
#######################################################################
#
#                 Cambridge Crystallographic Data Centre
#                                CCDC 
#
#######################################################################
#
# If this CIF has been generated from an entry in the Cambridge 
# Structural Database, then it will include bibliographic, chemical, 
# crystal, experimental, refinement or atomic coordinate data resulting 
# from the CCDC's data processing and validation procedures.
#
#######################################################################

data_GOYRAN
_symmetry_cell_setting           triclinic
_symmetry_space_group_name_H-M   'P -1'
_symmetry_Int_Tables_number      2
_space_group_name_Hall           '-P 1'
loop_
_symmetry_equiv_pos_site_id
_symmetry_equiv_pos_as_xyz
1 x,y,z
2 -x,-y,-z
_cell_length_a                   13.6823(3)
_cell_length_b                   19.7171(3)
_cell_length_c                   20.2532(4)
_cell_angle_alpha                65.093(1)
_cell_angle_beta                 71.897(1)
_cell_angle_gamma                73.909(1)
_cell_volume                     4642.01
loop_
_atom_site_label
_atom_site_type_symbol
_atom_site_fract_x
_atom_site_fract_y
_atom_site_fract_z
Zn1 Zn 0.74717(8) 0.78478(6) 1.16089(6)
Zn2 Zn 0.73929(7) 1.17888(6) 2.25243(5)
Zn3 Zn 0.74193(7) 1.26276(5) 1.66707(5)
Zn4 Zn 0.75219(7) 0.65607(5) 1.75811(5)
S1 S 0.9042(2) 0.8182(2) 1.09284(17)
S2 S 0.58580(19) 0.84081(16) 1.13813(16)
S3 S 0.89568(19) 1.11116(17) 2.27801(15)
S4 S 0.58069(18) 1.14949(15) 2.32068(14)
S5 S 0.89816(18) 1.29642(15) 1.59595(14)
S6 S 0.58319(18) 1.31503(13) 1.63775(14)
S7 S 0.59298(18) 0.64498(14) 1.83638(15)
S8 S 0.9099(2) 0.58468(16) 1.77602(16)
N1 N 0.7463(6) 0.7632(5) 1.2718(4)
N2 N 0.7479(5) 0.6732(4) 1.6493(4)
N3 N 0.7481(6) 0.6722(4) 1.1750(4)
N4 N 0.7427(6) 1.2934(4) 2.2300(4)
N5 N 0.7375(6) 1.1923(4) 2.1445(4)
N6 N 0.7381(5) 1.2511(4) 1.7749(4)
N7 N 0.7496(5) 1.1486(4) 1.6863(4)
N8 N 0.7579(5) 0.7689(4) 1.7375(4)
C1 C 0.8290(8) 0.7656(7) 1.2924(6)
H1 H 0.8880 0.7797 1.2553
C2 C 0.8319(8) 0.7487(7) 1.3652(6)
H2 H 0.8913 0.7518 1.3762
C3 C 0.7452(6) 0.7268(5) 1.4219(5)
C4 C 0.6592(7) 0.7250(6) 1.4002(5)
H3 H 0.5992 0.7107 1.4359
C5 C 0.6627(8) 0.7442(6) 1.3260(6)
H4 H 0.6033 0.7440 1.3130
C6 C 0.6596(7) 0.7057(5) 1.6242(5)
H5 H 0.5988 0.7166 1.6573
C7 C 0.6549(7) 0.7235(5) 1.5514(5)
H6 H 0.5923 0.7464 1.5362
C8 C 0.7449(7) 0.7070(5) 1.5009(4)
C9 C 0.8355(7) 0.6733(6) 1.5277(5)
H7 H 0.8975 0.6609 1.4963
C10 C 0.8331(7) 0.6583(6) 1.6014(5)
H8 H 0.8949 0.6366 1.6179
C11 C 0.6614(8) 1.6410(6) 2.2095(6)
H9 H 0.6008 1.6702 2.2267
C12 C 0.6581(7) 1.5687(6) 2.2203(6)
H10 H 0.5959 1.5498 2.2446
C13 C 0.7459(7) 1.5228(5) 2.1958(5)
C14 C 0.8358(8) 1.5561(6) 2.1579(6)
H11 H 0.8969 1.5285 2.1390
C15 C 0.8331(8) 1.6291(6) 2.1488(6)
H12 H 0.8933 1.6503 2.1230
C16 C 0.6544(8) 1.3438(5) 2.2338(5)
H13 H 0.5913 1.3277 2.2453
C17 C 0.6524(7) 1.4181(6) 2.2214(6)
H14 H 0.5893 1.4516 2.2220
C18 C 0.7450(7) 1.4435(5) 2.2080(4)
C19 C 0.8368(7) 1.3903(6) 2.2053(5)
H15 H 0.9009 1.4039 2.1963
C20 C 0.8315(7) 1.3181(6) 2.2158(5)
H16 H 0.8937 1.2840 2.2129
C21 C 0.8175(8) 1.1599(6) 2.1032(5)
H17 H 0.8742 1.1301 2.1239
C22 C 0.8196(8) 1.1689(6) 2.0315(6)
H18 H 0.8764 1.1451 2.0048
C23 C 0.7361(6) 1.2137(5) 1.9998(4)
C24 C 0.6534(7) 1.2472(5) 2.0419(5)
H19 H 0.5961 1.2776 2.0222
C25 C 0.6567(7) 1.2348(6) 2.1137(5)
H20 H 0.6002 1.2571 2.1419
C26 C 0.8228(7) 1.2521(6) 1.7945(5)
H21 H 0.8837 1.2606 1.7577
C27 C 0.8248(7) 1.2413(7) 1.8654(5)
H22 H 0.8852 1.2440 1.8755
C28 C 0.7364(6) 1.2265(5) 1.9221(5)
C29 C 0.6490(7) 1.2234(5) 1.9027(5)
H23 H 0.5879 1.2127 1.9388
C30 C 0.6542(7) 1.2363(5) 1.8295(5)
H24 H 0.5948 1.2346 1.8176
C31 C 0.8389(7) 1.1045(5) 1.6685(5)
H25 H 0.9002 1.1247 1.6496
C32 C 0.8451(7) 1.0309(5) 1.6765(5)
H26 H 0.9091 1.0029 1.6623
C33 C 0.7555(6) 0.9981(5) 1.7061(5)
C34 C 0.6624(7) 1.0445(5) 1.7258(5)
H27 H 0.6000 1.0257 1.7457
C35 C 0.6634(6) 1.1178(5) 1.7159(5)
H28 H 0.6010 1.1471 1.7306
C36 C 0.8399(7) 0.7898(5) 1.7419(5)
H29 H 0.8985 0.7531 1.7522
C37 C 0.8419(7) 0.8624(5) 1.7320(6)
H30 H 0.9008 0.8739 1.7361
C38 C 0.7570(6) 0.9190(5) 1.7158(5)
C39 C 0.6714(7) 0.8981(5) 1.7102(6)
H31 H 0.6124 0.9340 1.6994
C40 C 0.6750(7) 0.8236(5) 1.7210(6)
H32 H 0.6176 0.8106 1.7166
C41 C 0.8752(13) 0.8950(8) 1.0130(7)
C42 C 0.9124(11) 0.8924(7) 0.9418(9)
H33 H 0.9555 0.8491 0.9351
C43 C 0.8851(12) 0.9546(9) 0.8807(7)
H34 H 0.9099 0.9529 0.8330
C44 C 0.8206(12) 1.0194(7) 0.8907(7)
H35 H 0.8024 1.0610 0.8498
C45 C 0.7835(11) 1.0219(7) 0.9619(9)
H36 H 0.7404 1.0652 0.9687
C46 C 0.8108(12) 0.9597(9) 1.0231(7)
H37 H 0.7860 0.9614 1.0707
C53 C 0.5646(9) 0.9347(5) 1.1352(6)
C54 C 0.6111(8) 0.9583(6) 1.1720(6)
H43 H 0.6579 0.9237 1.2006
C55 C 0.5877(8) 1.0335(7) 1.1663(6)
H44 H 0.6189 1.0493 1.1910
C56 C 0.5177(9) 1.0852(5) 1.1237(6)
H45 H 0.5021 1.1356 1.1199
C57 C 0.4712(7) 1.0617(6) 1.0868(6)
H46 H 0.4244 1.0962 1.0583
C58 C 0.4946(8) 0.9864(7) 1.0925(6)
H47 H 0.4634 0.9706 1.0679
C59 C 0.8541(6) 1.0364(4) 2.3629(4)
C60 C 0.8576(7) 1.0384(5) 2.4299(5)
H48 H 0.8825 1.0779 2.4297
C61 C 0.8240(8) 0.9816(6) 2.4970(4)
H49 H 0.8263 0.9830 2.5419
C62 C 0.7868(8) 0.9226(5) 2.4972(5)
H50 H 0.7643 0.8846 2.5422
C63 C 0.7833(8) 0.9205(5) 2.4303(6)
H51 H 0.7585 0.8811 2.4304
C64 C 0.8170(7) 0.9774(5) 2.3631(5)
H52 H 0.8146 0.9760 2.3183
C65 C 0.5738(5) 1.1411(4) 2.4127(3)
C66 C 0.6300(5) 1.1798(4) 2.4277(4)
H53 H 0.6754 1.2099 2.3890
C67 C 0.6183(6) 1.1734(5) 2.5007(4)
H54 H 0.6559 1.1993 2.5108
C68 C 0.5504(7) 1.1283(5) 2.5586(3)
H55 H 0.5426 1.1240 2.6074
C69 C 0.4942(6) 1.0896(4) 2.5436(4)
H56 H 0.4488 1.0594 2.5824
C70 C 0.5059(5) 1.0960(4) 2.4707(4)
H57 H 0.4683 1.0701 2.4606
C71 C 0.8983(5) 1.2782(4) 1.5160(3)
C72 C 0.9741(5) 1.2220(4) 1.4966(4)
H58 H 1.0240 1.1943 1.5249
C73 C 0.9753(6) 1.2072(4) 1.4350(4)
H59 H 1.0260 1.1696 1.4221
C74 C 0.9007(7) 1.2485(5) 1.3928(4)
H60 H 0.9015 1.2386 1.3516
C75 C 0.8249(6) 1.3047(5) 1.4122(4)
H61 H 0.7750 1.3324 1.3839
C76 C 0.8237(5) 1.3195(4) 1.4737(4)
H62 H 0.7729 1.3571 1.4867
C77 C 0.5613(5) 1.4136(3) 1.6212(4)
C78 C 0.4716(5) 1.4577(4) 1.5967(4)
H63 H 0.4269 1.4358 1.5882
C79 C 0.4486(5) 1.5346(4) 1.5851(4)
H64 H 0.3886 1.5641 1.5687
C80 C 0.5154(7) 1.5673(3) 1.5978(5)
H65 H 0.5000 1.6188 1.5900
C81 C 0.6051(6) 1.5232(4) 1.6223(5)
H66 H 0.6498 1.5451 1.6308
C82 C 0.6280(5) 1.4463(4) 1.6339(4)
H67 H 0.6881 1.4168 1.6503
C83 C 0.5650(5) 0.5544(3) 1.8562(4)
C84 C 0.4810(5) 0.5298(4) 1.9144(4)
H68 H 0.4419 0.5603 1.9415
C85 C 0.4555(5) 0.4597(4) 1.9321(4)
H69 H 0.3993 0.4433 1.9711
C86 C 0.5140(6) 0.4143(3) 1.8916(5)
H70 H 0.4969 0.3674 1.9035
C87 C 0.5980(6) 0.4388(4) 1.8334(4)
H71 H 0.6371 0.4084 1.8063
C88 C 0.6235(5) 0.5089(4) 1.8157(4)
H72 H 0.6797 0.5254 1.7767
C89 C 0.8782(9) 0.5140(6) 1.8655(5)
C90 C 0.8792(9) 0.4403(7) 1.8734(6)
H73 H 0.8932 0.4281 1.8314
C91 C 0.8592(9) 0.3847(5) 1.9443(7)
H74 H 0.8599 0.3354 1.9496
C92 C 0.8382(8) 0.4028(6) 2.0072(5)
H75 H 0.8248 0.3657 2.0546
C93 C 0.8372(8) 0.4766(7) 1.9992(6)
H76 H 0.8232 0.4887 2.0413
C94 C 0.8572(9) 0.5321(5) 1.9284(7)
H77 H 0.8565 0.5815 1.9231
N3_2 N 0.7481(6) 1.6722(4) 2.1750(4)
Zn1_2 Zn 0.74717(8) 1.78478(6) 2.16089(6)
C95 C 0.7791(10) -0.243(2) 0.9533(17)
Cl1 Cl 0.9029(11) -0.2779(13) 0.9295(17)
Cl2 Cl 0.6871(13) -0.2744(11) 0.9450(11)
O1 O 0.979(3) -0.557(2) 0.634(2)
C47? C 0.8791(17) 0.9062(10) 1.0147(10)
C48? C 0.9408(15) 0.9610(13) 0.9914(11)
H38? H 0.9869 0.9555 1.0194
C49? C 0.9336(15) 1.0241(11) 0.9261(12)
H39? H 0.9748 1.0608 0.9105
C50? C 0.8647(17) 1.0323(10) 0.8842(10)
H40? H 0.8599 1.0746 0.8405
C51? C 0.8030(15) 0.9775(13) 0.9075(11)
H41? H 0.7569 0.9830 0.8795
C52? C 0.8102(15) 0.9144(11) 0.9728(12)
H42? H 0.7689 0.8777 0.9884
Cl3? Cl 0.6719(12) -0.2781(11) 0.9923(11)
Cl4? Cl 0.8928(11) -0.2950(13) 0.9402(17)
O2? O 1.073(3) -0.544(2) 0.630(2)
O3? O 1.177(2) -0.5476(15) 0.6409(15)
O4? O 0.987(3) -0.582(2) 0.676(3)
O5? O 1.028(4) -0.538(3) 0.607(3)
O6? O 1.005(4) -0.630(3) 0.727(3)
O7? O 1.189(4) -0.530(3) 0.582(3)
O8? O 0.912(5) -0.570(3) 0.680(4)
O9? O 1.100(6) -0.504(4) 0.557(4)
O10? O 1.111(7) -0.516(5) 0.643(4)
loop_
_geom_bond_atom_site_label_1
_geom_bond_atom_site_label_2
_geom_bond_site_symmetry_1
_geom_bond_site_symmetry_2
Zn1 S1 1_555 1_555
Zn2 S3 1_555 1_555
Zn3 S5 1_555 1_555
Zn4 S7 1_555 1_555
S1 C41 1_555 1_555
S2 Zn1 1_555 1_555
S3 C59 1_555 1_555
S4 Zn2 1_555 1_555
S5 C71 1_555 1_555
S6 Zn3 1_555 1_555
S7 C83 1_555 1_555
S8 Zn4 1_555 1_555
N1 Zn1 1_555 1_555
N2 Zn4 1_555 1_555
N3 Zn1 1_555 1_555
N4 Zn2 1_555 1_555
N5 Zn2 1_555 1_555
N6 Zn3 1_555 1_555
N7 Zn3 1_555 1_555
N8 Zn4 1_555 1_555
C1 N1 1_555 1_555
H1 C1 1_555 1_555
C2 C1 1_555 1_555
H2 C2 1_555 1_555
C3 C2 1_555 1_555
C4 C3 1_555 1_555
H3 C4 1_555 1_555
C5 N1 1_555 1_555
H4 C5 1_555 1_555
C6 N2 1_555 1_555
H5 C6 1_555 1_555
C7 C6 1_555 1_555
H6 C7 1_555 1_555
C8 C3 1_555 1_555
C9 C8 1_555 1_555
H7 C9 1_555 1_555
C10 N2 1_555 1_555
H8 C10 1_555 1_555
C11 H9 1_555 1_555
C12 C11 1_555 1_555
H10 C12 1_555 1_555
C13 C12 1_555 1_555
C14 C13 1_555 1_555
H11 C14 1_555 1_555
C15 C14 1_555 1_555
H12 C15 1_555 1_555
C16 N4 1_555 1_555
H13 C16 1_555 1_555
C17 C16 1_555 1_555
H14 C17 1_555 1_555
C18 C13 1_555 1_555
C19 C18 1_555 1_555
H15 C19 1_555 1_555
C20 N4 1_555 1_555
H16 C20 1_555 1_555
C21 N5 1_555 1_555
H17 C21 1_555 1_555
C22 C21 1_555 1_555
H18 C22 1_555 1_555
C23 C22 1_555 1_555
C24 C23 1_555 1_555
H19 C24 1_555 1_555
C25 N5 1_555 1_555
H20 C25 1_555 1_555
C26 N6 1_555 1_555
H21 C26 1_555 1_555
C27 C26 1_555 1_555
H22 C27 1_555 1_555
C28 C23 1_555 1_555
C29 C28 1_555 1_555
H23 C29 1_555 1_555
C30 N6 1_555 1_555
H24 C30 1_555 1_555
C31 N7 1_555 1_555
H25 C31 1_555 1_555
C32 C31 1_555 1_555
H26 C32 1_555 1_555
C33 C32 1_555 1_555
C34 C33 1_555 1_555
H27 C34 1_555 1_555
C35 N7 1_555 1_555
H28 C35 1_555 1_555
C36 N8 1_555 1_555
H29 C36 1_555 1_555
C37 C36 1_555 1_555
H30 C37 1_555 1_555
C38 C33 1_555 1_555
C39 C38 1_555 1_555
H31 C39 1_555 1_555
C40 N8 1_555 1_555
H32 C40 1_555 1_555
C41 C42 1_555 1_555
C42 H33 1_555 1_555
C43 C42 1_555 1_555
H34 C43 1_555 1_555
C44 C43 1_555 1_555
H35 C44 1_555 1_555
C45 C44 1_555 1_555
H36 C45 1_555 1_555
C46 C41 1_555 1_555
H37 C46 1_555 1_555
C53 S2 1_555 1_555
C54 C53 1_555 1_555
H43 C54 1_555 1_555
C55 C54 1_555 1_555
H44 C55 1_555 1_555
C56 C55 1_555 1_555
H45 C56 1_555 1_555
C57 C56 1_555 1_555
H46 C57 1_555 1_555
C58 C53 1_555 1_555
H47 C58 1_555 1_555
C59 C60 1_555 1_555
C60 H48 1_555 1_555
C61 C60 1_555 1_555
H49 C61 1_555 1_555
C62 C61 1_555 1_555
H50 C62 1_555 1_555
C63 C62 1_555 1_555
H51 C63 1_555 1_555
C64 C59 1_555 1_555
H52 C64 1_555 1_555
C65 S4 1_555 1_555
C66 C65 1_555 1_555
H53 C66 1_555 1_555
C67 C66 1_555 1_555
H54 C67 1_555 1_555
C68 C67 1_555 1_555
H55 C68 1_555 1_555
C69 C68 1_555 1_555
H56 C69 1_555 1_555
C70 C65 1_555 1_555
H57 C70 1_555 1_555
C71 C72 1_555 1_555
C72 H58 1_555 1_555
C73 C72 1_555 1_555
H59 C73 1_555 1_555
C74 C73 1_555 1_555
H60 C74 1_555 1_555
C75 C74 1_555 1_555
H61 C75 1_555 1_555
C76 C71 1_555 1_555
H62 C76 1_555 1_555
C77 S6 1_555 1_555
C78 C77 1_555 1_555
H63 C78 1_555 1_555
C79 C78 1_555 1_555
H64 C79 1_555 1_555
C80 C79 1_555 1_555
H65 C80 1_555 1_555
C81 C80 1_555 1_555
H66 C81 1_555 1_555
C82 C77 1_555 1_555
H67 C82 1_555 1_555
C83 C84 1_555 1_555
C84 H68 1_555 1_555
C85 C84 1_555 1_555
H69 C85 1_555 1_555
C86 C85 1_555 1_555
H70 C86 1_555 1_555
C87 C86 1_555 1_555
H71 C87 1_555 1_555
C88 C83 1_555 1_555
H72 C88 1_555 1_555
C89 S8 1_555 1_555
C90 C89 1_555 1_555
H73 C90 1_555 1_555
C91 C90 1_555 1_555
H74 C91 1_555 1_555
C92 C91 1_555 1_555
H75 C92 1_555 1_555
C93 C92 1_555 1_555
H76 C93 1_555 1_555
C94 C89 1_555 1_555
H77 C94 1_555 1_555
C95 Cl1 1_555 1_555
Cl2 C95 1_555 1_555
N3_2 C11 1_555 1_555
Zn1_2 N3_2 1_555 1_555
C4 C5 1_555 1_555
C7 C8 1_555 1_555
C9 C10 1_555 1_555
C15 N3_2 1_555 1_555
C17 C18 1_555 1_555
C19 C20 1_555 1_555
C24 C25 1_555 1_555
C27 C28 1_555 1_555
C29 C30 1_555 1_555
C34 C35 1_555 1_555
C37 C38 1_555 1_555
C39 C40 1_555 1_555
C45 C46 1_555 1_555
C57 C58 1_555 1_555
C63 C64 1_555 1_555
C69 C70 1_555 1_555
C75 C76 1_555 1_555
C81 C82 1_555 1_555
C87 C88 1_555 1_555
C93 C94 1_555 1_555

#END
