
#######################################################################
#
#                 Cambridge Crystallographic Data Centre
#                                CCDC 
#
#######################################################################
#
# If this CIF has been generated from an entry in the Cambridge 
# Structural Database, then it will include bibliographic, chemical, 
# crystal, experimental, refinement or atomic coordinate data resulting 
# from the CCDC's data processing and validation procedures.
#
#######################################################################

data_GOYSAO
_symmetry_cell_setting           orthorhombic
_symmetry_space_group_name_H-M   'P n m a'
_symmetry_Int_Tables_number      62
_space_group_name_Hall           '-P 2ac 2n'
loop_
_symmetry_equiv_pos_site_id
_symmetry_equiv_pos_as_xyz
1 x,y,z
2 1/2+x,y,1/2-z
3 x,1/2-y,z
4 1/2-x,1/2+y,1/2+z
5 -x,-y,-z
6 1/2-x,-y,1/2+z
7 -x,1/2+y,-z
8 1/2+x,1/2-y,1/2-z
_cell_length_a                   5.904(2)
_cell_length_b                   11.593(3)
_cell_length_c                   9.038(4)
_cell_angle_alpha                90
_cell_angle_beta                 90
_cell_angle_gamma                90
_cell_volume                     618.607
loop_
_atom_site_label
_atom_site_type_symbol
_atom_site_fract_x
_atom_site_fract_y
_atom_site_fract_z
Cu1 Cu 0.19250(8) 0.2500 0.66435(5)
N1 N 0.5449(6) 0.2500 0.6322(4)
C1 C 0.6037(7) 0.2500 0.5097(5)
O1 O 0.6616(7) 0.2500 0.3837(4)
N2 N 0.0805(4) 0.3991(2) 0.5651(3)
C2 C -0.0295(5) 0.4786(3) 0.6420(3)
H1 H -0.0529(5) 0.4666(3) 0.7426(3)
C3 C 0.1103(5) 0.4220(3) 0.4214(3)
H2 H 0.1877(5) 0.3692(3) 0.3629(3)
C3D C -0.1103(5) 0.5780(3) 0.5786(3)
N2D N -0.0805(4) 0.6009(2) 0.4349(3)
C2D C 0.0295(5) 0.5214(3) 0.3580(3)
H1D H 0.0529(5) 0.5334(3) 0.2574(3)
H2D H -0.1877(5) 0.6308(3) 0.6371(3)
N1A N 0.0449(6) 0.2500 0.8678(4)
N2B N 0.0805(4) 0.1009(2) 0.5651(3)
Cu1A Cu 0.69250(8) 0.2500 0.83565(5)
Cu1D Cu -0.19250(8) 0.7500 0.33565(5)
loop_
_geom_bond_atom_site_label_1
_geom_bond_atom_site_label_2
_geom_bond_site_symmetry_1
_geom_bond_site_symmetry_2
Cu1 N1 1_555 1_555
N1 C1 1_555 1_555
C1 O1 1_555 1_555
N2 Cu1 1_555 1_555
C2 N2 1_555 1_555
H1 C2 1_555 1_555
C3 N2 1_555 1_555
H2 C3 1_555 1_555
C3D C2 1_555 1_555
N2D C3D 1_555 1_555
C2D C3 1_555 1_555
H1D C2D 1_555 1_555
H2D C3D 1_555 1_555
N1A Cu1 1_555 1_555
N2B Cu1 1_555 1_555
Cu1A N1 1_555 1_555
Cu1D N2D 1_555 1_555
N2D C2D 1_555 1_555

#END
