
#######################################################################
#
#                 Cambridge Crystallographic Data Centre
#                                CCDC 
#
#######################################################################
#
# If this CIF has been generated from an entry in the Cambridge 
# Structural Database, then it will include bibliographic, chemical, 
# crystal, experimental, refinement or atomic coordinate data resulting 
# from the CCDC's data processing and validation procedures.
#
#######################################################################

data_GOYYOK
_symmetry_cell_setting           triclinic
_symmetry_space_group_name_H-M   'P -1'
_symmetry_Int_Tables_number      2
_space_group_name_Hall           '-P 1'
loop_
_symmetry_equiv_pos_site_id
_symmetry_equiv_pos_as_xyz
1 x,y,z
2 -x,-y,-z
_cell_length_a                   11.4462(4)
_cell_length_b                   14.4137(6)
_cell_length_c                   23.5798(10)
_cell_angle_alpha                72.870(2)
_cell_angle_beta                 82.3120(10)
_cell_angle_gamma                78.2780(10)
_cell_volume                     3628.75
loop_
_atom_site_label
_atom_site_type_symbol
_atom_site_fract_x
_atom_site_fract_y
_atom_site_fract_z
Ce1 Ce 0.541264(13) 0.908539(11) 0.582293(7)
Ce2 Ce 0.967443(15) 0.406871(12) 0.943452(7)
C1 C -0.1731(3) 0.6604(2) 0.46674(13)
C2 C -0.2320(3) 0.7576(2) 0.44841(13)
H1 H -0.1884 0.8104 0.4390
C3 C -0.3550(3) 0.7771(2) 0.44391(12)
C4 C -0.4157(3) 0.6979(2) 0.45703(13)
C5 C -0.3578(3) 0.6007(2) 0.47510(13)
H2 H -0.4011 0.5478 0.4837
C6 C -0.2362(3) 0.5825(2) 0.48035(13)
H3 H -0.1952 0.5166 0.4933
C7 C -0.4152(2) 0.8842(2) 0.43090(13)
O1 O -0.46652(17) 0.91214(14) 0.47611(8)
O2 O -0.40716(18) 0.94157(15) 0.38027(9)
N1 N -0.5441(2) 0.71593(19) 0.45034(12)
O3 O -0.58846(19) 0.79788(16) 0.42040(10)
O4 O -0.6007(2) 0.64918(18) 0.47368(13)
S1 S -0.01866(7) 0.62769(5) 0.47878(4)
S2 S 0.05895(7) 0.74649(6) 0.43572(3)
C8 C 0.0549(3) 0.8096(2) 0.49037(13)
C9 C 0.1520(2) 0.8565(2) 0.48716(13)
H4 H 0.2165 0.8509 0.4578
C10 C 0.1556(2) 0.9110(2) 0.52637(12)
C11 C 0.0571(2) 0.9195(2) 0.56762(12)
C12 C -0.0406(3) 0.8744(2) 0.57079(13)
H5 H -0.1066 0.8821 0.5990
C13 C -0.0411(2) 0.8180(2) 0.53254(13)
H6 H -0.1065 0.7852 0.5350
C14 C 0.2707(2) 0.9498(2) 0.52353(13)
O5 O 0.29190(18) 1.01629(15) 0.47789(9)
O6 O 0.33568(17) 0.90681(14) 0.56539(9)
N2 N 0.0531(2) 0.98053(18) 0.60785(11)
O7 O 0.13130(19) 1.03004(15) 0.60142(10)
O8 O -0.0308(2) 0.9808(2) 0.64635(11)
O9 O 0.6524(2) 0.92777(16) 0.65741(10)
C15 C 0.7059(3) 0.9416(2) 0.69591(14)
C16 C 0.6921(3) 1.0448(2) 0.70271(15)
H7 H 0.7663 1.0708 0.6875
H8 H 0.6750 1.0426 0.7449
H9 H 0.6259 1.0876 0.6802
N3 N 0.7762(2) 0.8692(2) 0.73043(12)
C17 C 0.8495(3) 0.8850(3) 0.77214(16)
H10 H 0.9207 0.9102 0.7503
H11 H 0.8739 0.8224 0.8019
H12 H 0.8027 0.9329 0.7922
C18 C 0.7953(3) 0.7699(3) 0.72346(17)
H13 H 0.7400 0.7672 0.6959
H14 H 0.7810 0.7230 0.7622
H15 H 0.8779 0.7527 0.7076
O10 O 0.4703(2) 0.80175(18) 0.68368(10)
H16 H 0.4657 0.8050 0.7205
H17 H 0.4429 0.7463 0.6787
O11 O 0.71699(18) 0.76958(14) 0.59331(10)
O12 O 0.54812(19) 0.72287(15) 0.58784(10)
C19 C 0.6551(3) 0.7039(2) 0.60013(13)
C20 C 0.7143(3) 0.5984(2) 0.62410(13)
C21 C 0.6520(3) 0.5203(2) 0.63977(13)
C22 C 0.7085(3) 0.4232(2) 0.65785(14)
H18 H 0.6640 0.3710 0.6673
C23 C 0.8310(3) 0.4035(2) 0.66191(14)
H19 H 0.8712 0.3372 0.6740
C24 C 0.8954(3) 0.4800(2) 0.64835(13)
C25 C 0.8379(3) 0.5772(2) 0.62910(13)
H20 H 0.8826 0.6293 0.6193
N4 N 0.5200(2) 0.53834(19) 0.64008(12)
O13 O 0.4626(2) 0.56690(18) 0.68147(11)
O14 O 0.4762(2) 0.51874(19) 0.60152(11)
S3 S 1.05209(7) 0.44311(6) 0.65793(4)
S4 S 1.12983(7) 0.56205(7) 0.61612(3)
C26 C 1.1362(3) 0.6217(2) 0.67121(14)
C27 C 1.0870(3) 0.5926(2) 0.72955(13)
H21 H 1.0464 0.5378 0.7416
C28 C 1.0964(3) 0.6425(2) 0.77030(14)
C29 C 1.1576(3) 0.7231(2) 0.75035(14)
C30 C 1.2039(3) 0.7542(2) 0.69244(15)
H22 H 1.2419 0.8105 0.6798
C31 C 1.1945(3) 0.7023(2) 0.65290(15)
H23 H 1.2281 0.7220 0.6130
C32 C 1.0312(3) 0.6150(2) 0.83131(13)
O15 O 1.0031(2) 0.53063(16) 0.84796(9)
O16 O 1.0052(2) 0.67826(16) 0.85961(10)
N5 N 1.1810(3) 0.7749(2) 0.79200(13)
O17 O 1.2372(2) 0.7261(2) 0.83496(12)
O18 O 1.1477(2) 0.86399(18) 0.78017(13)
O19 O 1.18246(19) 0.43042(16) 0.92087(10)
O20 O 1.3080(2) 0.3491(2) 0.99114(11)
C33 C 1.2800(3) 0.3760(2) 0.93905(15)
C34 C 1.3649(3) 0.3429(2) 0.89115(14)
C35 C 1.3284(3) 0.3663(2) 0.83400(14)
H24 H 1.2520 0.4055 0.8254
C36 C 1.4012(3) 0.3337(2) 0.78915(14)
C37 C 1.5146(3) 0.2768(3) 0.80089(15)
H25 H 1.5645 0.2545 0.7702
C38 C 1.5536(3) 0.2533(3) 0.85711(15)
H26 H 1.6305 0.2150 0.8656
C39 C 1.4787(3) 0.2864(3) 0.90101(15)
N6 N 1.5277(3) 0.2585(3) 0.95951(14)
O21 O 1.5673(2) 0.3203(2) 0.97346(13)
O22 O 1.5335(3) 0.1722(2) 0.98855(13)
S5 S 1.35070(7) 0.36721(6) 0.71642(3)
S6 S 1.35001(7) 0.23459(6) 0.70223(4)
C40 C 1.2063(3) 0.2055(2) 0.73285(13)
C41 C 1.1391(3) 0.2431(2) 0.77735(13)
H27 H 1.1714 0.2846 0.7935
C42 C 1.0264(3) 0.2213(2) 0.79860(13)
C43 C 0.9827(3) 0.1610(2) 0.77289(13)
C44 C 1.0483(3) 0.1208(2) 0.72940(14)
H28 H 1.0162 0.0787 0.7136
C45 C 1.1617(3) 0.1430(2) 0.70933(14)
H29 H 1.2085 0.1158 0.6798
C46 C 0.9577(3) 0.2594(2) 0.84912(14)
O23 O 1.00399(19) 0.31776(16) 0.86630(10)
O24 O 0.8617(2) 0.22999(19) 0.87031(11)
N7 N 0.8590(2) 0.14179(19) 0.78846(11)
O25 O 0.7802(2) 0.20270(18) 0.76121(11)
O26 O 0.8420(2) 0.06497(17) 0.82480(11)
O27 O 0.7709(2) 0.47821(17) 0.90398(10)
C47 C 0.7071(3) 0.4998(2) 0.86048(16)
C48 C 0.7607(3) 0.4808(3) 0.80166(16)
H30 H 0.8483 0.4696 0.8006
H31 H 0.7335 0.5380 0.7688
H32 H 0.7350 0.4225 0.7975
N8 N 0.5933(3) 0.5387(2) 0.86481(15)
C49 C 0.5154(4) 0.5604(3) 0.81629(19)
H33 H 0.5204 0.6263 0.7898
H34 H 0.4326 0.5577 0.8329
H35 H 0.5412 0.5115 0.7937
C50 C 0.5386(4) 0.5610(3) 0.92017(18)
H36 H 0.4876 0.5125 0.9413
H37 H 0.4900 0.6272 0.9109
H38 H 0.6015 0.5583 0.9453
O28 O 1.0873(2) 0.24806(17) 0.99119(12)
C51 C 1.0901(4) 0.1595(3) 1.01761(19)
C52 C 1.0134(4) 0.1312(3) 1.07755(18)
H39 H 0.9911 0.1882 1.0938
H40 H 1.0598 0.0767 1.1058
H41 H 0.9408 0.1109 1.0709
N9 N 1.1539(3) 0.0886(2) 0.99653(16)
C53 C 1.2233(4) 0.1165(3) 0.9398(2)
H42 H 1.1981 0.1868 0.9206
H43 H 1.2101 0.0777 0.9141
H44 H 1.3085 0.1038 0.9465
C54 C 1.1623(5) -0.0171(3) 1.0275(2)
H45 H 1.2387 -0.0416 1.0458
H46 H 1.1577 -0.0533 0.9988
H47 H 1.0962 -0.0267 1.0584
O29 O 0.91981(19) 0.58035(15) 0.96313(9)
H48 H 0.9495 0.6251 0.9287
H49 H 0.8385 0.6043 0.9750
O30 O 0.8265(2) 0.40390(16) 1.03910(9)
H50 H 0.8109 0.4537 1.0546
H51 H 0.8367 0.3489 1.0708
O31 O 0.8364(2) 0.27163(17) 0.97393(10)
H52 H 0.7492 0.2915 0.9903
H53 H 0.8292 0.2607 0.9452
Ce1_2 Ce -0.458736(13) 0.908539(11) 0.582293(7)
Ce1A Ce -0.541264(13) 1.091461(11) 0.417707(7)
Ce1A_2 Ce 0.458736(13) 1.091461(11) 0.417707(7)
Ce2A Ce 1.032557(15) 0.593129(12) 1.056548(7)
O1_2 O 0.53348(17) 0.91214(14) 0.47611(8)
O1A O 0.46652(17) 1.08786(14) 0.52389(8)
O2A O 0.40716(18) 1.05843(15) 0.61973(9)
O5A O 0.70810(18) 0.98371(15) 0.52211(9)
O29A O 1.08019(19) 0.41965(15) 1.03687(9)
O32 O 0.5180(3) 0.79918(19) 0.79162(11)
C55 C 0.4028(4) 0.9616(3) 0.77364(19)
H54 H 0.3793 0.9448 0.7399
H55 H 0.4376 1.0220 0.7590
H56 H 0.3322 0.9722 0.8010
C56 C 0.4932(4) 0.8792(3) 0.80562(17)
N10 N 0.5478(3) 0.8914(3) 0.84850(15)
C57 C 0.6317(4) 0.8080(4) 0.88255(19)
H57 H 0.5904 0.7756 0.9201
H58 H 0.6996 0.8325 0.8909
H59 H 0.6608 0.7606 0.8592
C58 C 0.5225(5) 0.9800(4) 0.8693(2)
H60 H 0.4750 1.0335 0.8409
H61 H 0.5980 0.9996 0.8725
H62 H 0.4775 0.9664 0.9084
loop_
_geom_bond_atom_site_label_1
_geom_bond_atom_site_label_2
_geom_bond_site_symmetry_1
_geom_bond_site_symmetry_2
Ce1 O6 1_555 1_555
Ce2 O15 1_555 1_555
C1 C2 1_555 1_555
C2 H1 1_555 1_555
C3 C2 1_555 1_555
C4 C3 1_555 1_555
C5 C4 1_555 1_555
H2 C5 1_555 1_555
C6 C1 1_555 1_555
H3 C6 1_555 1_555
C7 C3 1_555 1_555
O1 C7 1_555 1_555
O2 C7 1_555 1_555
N1 C4 1_555 1_555
O3 N1 1_555 1_555
O4 N1 1_555 1_555
S1 C1 1_555 1_555
S2 S1 1_555 1_555
C8 S2 1_555 1_555
C9 C8 1_555 1_555
H4 C9 1_555 1_555
C10 C9 1_555 1_555
C11 C10 1_555 1_555
C12 C11 1_555 1_555
H5 C12 1_555 1_555
C13 C8 1_555 1_555
H6 C13 1_555 1_555
C14 C10 1_555 1_555
O5 C14 1_555 1_555
O6 C14 1_555 1_555
N2 C11 1_555 1_555
O7 N2 1_555 1_555
O8 N2 1_555 1_555
O9 Ce1 1_555 1_555
C15 O9 1_555 1_555
C16 C15 1_555 1_555
H7 C16 1_555 1_555
H8 C16 1_555 1_555
H9 C16 1_555 1_555
N3 C15 1_555 1_555
C17 N3 1_555 1_555
H10 C17 1_555 1_555
H11 C17 1_555 1_555
H12 C17 1_555 1_555
C18 N3 1_555 1_555
H13 C18 1_555 1_555
H14 C18 1_555 1_555
H15 C18 1_555 1_555
O10 Ce1 1_555 1_555
H16 O10 1_555 1_555
H17 O10 1_555 1_555
O11 Ce1 1_555 1_555
O12 Ce1 1_555 1_555
C19 O11 1_555 1_555
C20 C19 1_555 1_555
C21 C20 1_555 1_555
C22 C21 1_555 1_555
H18 C22 1_555 1_555
C23 C22 1_555 1_555
H19 C23 1_555 1_555
C24 C23 1_555 1_555
C25 C20 1_555 1_555
H20 C25 1_555 1_555
N4 C21 1_555 1_555
O13 N4 1_555 1_555
O14 N4 1_555 1_555
S3 C24 1_555 1_555
S4 S3 1_555 1_555
C26 S4 1_555 1_555
C27 C26 1_555 1_555
H21 C27 1_555 1_555
C28 C27 1_555 1_555
C29 C28 1_555 1_555
C30 C29 1_555 1_555
H22 C30 1_555 1_555
C31 C26 1_555 1_555
H23 C31 1_555 1_555
C32 C28 1_555 1_555
O15 C32 1_555 1_555
O16 C32 1_555 1_555
N5 C29 1_555 1_555
O17 N5 1_555 1_555
O18 N5 1_555 1_555
O19 Ce2 1_555 1_555
O20 C33 1_555 1_555
C33 O19 1_555 1_555
C34 C33 1_555 1_555
C35 C34 1_555 1_555
H24 C35 1_555 1_555
C36 C35 1_555 1_555
C37 C36 1_555 1_555
H25 C37 1_555 1_555
C38 C37 1_555 1_555
H26 C38 1_555 1_555
C39 C34 1_555 1_555
N6 C39 1_555 1_555
O21 N6 1_555 1_555
O22 N6 1_555 1_555
S5 C36 1_555 1_555
S6 S5 1_555 1_555
C40 S6 1_555 1_555
C41 C40 1_555 1_555
H27 C41 1_555 1_555
C42 C41 1_555 1_555
C43 C42 1_555 1_555
C44 C43 1_555 1_555
H28 C44 1_555 1_555
C45 C40 1_555 1_555
H29 C45 1_555 1_555
C46 C42 1_555 1_555
O23 Ce2 1_555 1_555
O24 C46 1_555 1_555
N7 C43 1_555 1_555
O25 N7 1_555 1_555
O26 N7 1_555 1_555
O27 Ce2 1_555 1_555
C47 O27 1_555 1_555
C48 C47 1_555 1_555
H30 C48 1_555 1_555
H31 C48 1_555 1_555
H32 C48 1_555 1_555
N8 C47 1_555 1_555
C49 N8 1_555 1_555
H33 C49 1_555 1_555
H34 C49 1_555 1_555
H35 C49 1_555 1_555
C50 N8 1_555 1_555
H36 C50 1_555 1_555
H37 C50 1_555 1_555
H38 C50 1_555 1_555
O28 Ce2 1_555 1_555
C51 O28 1_555 1_555
C52 C51 1_555 1_555
H39 C52 1_555 1_555
H40 C52 1_555 1_555
H41 C52 1_555 1_555
N9 C51 1_555 1_555
C53 N9 1_555 1_555
H42 C53 1_555 1_555
H43 C53 1_555 1_555
H44 C53 1_555 1_555
C54 N9 1_555 1_555
H45 C54 1_555 1_555
H46 C54 1_555 1_555
H47 C54 1_555 1_555
O29 Ce2 1_555 1_555
H48 O29 1_555 1_555
H49 O29 1_555 1_555
O30 Ce2 1_555 1_555
H50 O30 1_555 1_555
H51 O30 1_555 1_555
O31 Ce2 1_555 1_555
H52 O31 1_555 1_555
H53 O31 1_555 1_555
O32 C56 1_555 1_555
C55 H54 1_555 1_555
H55 C55 1_555 1_555
H56 C55 1_555 1_555
C56 C55 1_555 1_555
N10 C56 1_555 1_555
C57 N10 1_555 1_555
H57 C57 1_555 1_555
H58 C57 1_555 1_555
H59 C57 1_555 1_555
C58 N10 1_555 1_555
H60 C58 1_555 1_555
H61 C58 1_555 1_555
H62 C58 1_555 1_555
Ce1_2 O1 1_555 1_555
Ce1A O1 1_555 1_555
Ce1A_2 O5 1_555 1_555
Ce2A O29 1_555 1_555
O1_2 Ce1 1_555 1_555
O1A Ce1 1_555 1_555
O2A Ce1 1_555 1_555
O5A Ce1 1_555 1_555
O29A Ce2 1_555 1_555
C5 C6 1_555 1_555
O2 Ce1A 1_555 1_555
C12 C13 1_555 1_555
O12 C19 1_555 1_555
C24 C25 1_555 1_555
C30 C31 1_555 1_555
C38 C39 1_555 1_555
C44 C45 1_555 1_555
C46 O23 1_555 1_555
Ce1A_2 O1_2 1_555 1_555
Ce1A_2 O1A 1_555 1_555
Ce2A O29A 1_555 1_555

#END
