
#######################################################################
#
#                 Cambridge Crystallographic Data Centre
#                                CCDC 
#
#######################################################################
#
# If this CIF has been generated from an entry in the Cambridge 
# Structural Database, then it will include bibliographic, chemical, 
# crystal, experimental, refinement or atomic coordinate data resulting 
# from the CCDC's data processing and validation procedures.
#
#######################################################################

data_GOZMOZ
_symmetry_cell_setting           monoclinic
_symmetry_space_group_name_H-M   'C c'
_symmetry_Int_Tables_number      9
_space_group_name_Hall           'C -2yc'
loop_
_symmetry_equiv_pos_site_id
_symmetry_equiv_pos_as_xyz
1 x,y,z
2 x,-y,1/2+z
3 1/2+x,1/2+y,z
4 1/2+x,1/2-y,1/2+z
_cell_length_a                   17.604(16)
_cell_length_b                   10.624(9)
_cell_length_c                   6.996(6)
_cell_angle_alpha                90
_cell_angle_beta                 111.663(8)
_cell_angle_gamma                90
_cell_volume                     1216.01
loop_
_atom_site_label
_atom_site_type_symbol
_atom_site_fract_x
_atom_site_fract_y
_atom_site_fract_z
Ce1 Ce 0.24953(5) 0.246585(15) 1.25109(9)
N1 N 0.10429(18) 0.1926(3) 0.9640(4)
N2 N 0.13222(18) 0.4221(3) 1.1216(4)
O1 O 0.24115(15) 0.0521(2) 1.0586(4)
O2 O 0.16883(16) -0.1129(2) 0.8902(4)
O3 O -0.10875(16) 0.2841(3) 0.7975(4)
O4 O 0.28328(16) 0.4546(2) 1.4058(4)
O5 O 0.26044(15) 0.6589(2) 1.4335(4)
O6 O -0.06787(17) 0.4965(2) 0.7333(4)
H1 H -0.0854 0.4248 0.7322
O7 O 0.33223(19) 0.2178(3) 1.6469(4)
H2 H 0.3475 0.1517 1.6524
H3 H 0.3122 0.2413 1.7325
C1 C 0.0374(2) 0.2672(3) 0.9203(6)
C2 C -0.0422(2) 0.2142(4) 0.8260(6)
C3 C -0.0480(2) 0.0892(4) 0.7659(6)
H4 H -0.0993 0.0533 0.7003
C4 C 0.0207(2) 0.0177(3) 0.8018(6)
H5 H 0.0166 -0.0655 0.7575
C5 C 0.0963(2) 0.0717(3) 0.9052(5)
C6 C 0.1746(2) -0.0018(3) 0.9558(5)
C7 C 0.0571(2) 0.4019(3) 0.9771(5)
C8 C 0.0061(2) 0.5062(3) 0.8823(5)
C9 C 0.0361(2) 0.6275(3) 0.9362(5)
H6 H 0.0044 0.6964 0.8718
C10 C 0.1127(2) 0.6458(3) 1.0852(5)
H7 H 0.1332 0.7264 1.1232
C11 C 0.1583(2) 0.5402(3) 1.1769(6)
C12 C 0.2403(2) 0.5523(3) 1.3502(5)
Ce1A Ce 0.24953(5) -0.246585(15) 0.75109(9)
Ce1A_2 Ce 0.24953(5) 0.753415(15) 1.75109(9)
Ce1C Ce -0.25047(5) 0.253415(15) 0.75109(9)
O2A O 0.16883(16) 0.1129(2) 1.3902(4)
O3C O 0.39125(16) 0.2159(3) 1.2975(4)
O5A O 0.26044(15) 0.3411(2) 0.9335(4)
loop_
_geom_bond_atom_site_label_1
_geom_bond_atom_site_label_2
_geom_bond_site_symmetry_1
_geom_bond_site_symmetry_2
Ce1 N1 1_555 1_555
N1 C1 1_555 1_555
N2 Ce1 1_555 1_555
O1 Ce1 1_555 1_555
O2 C6 1_555 1_555
O3 C2 1_555 1_555
O4 Ce1 1_555 1_555
O5 C12 1_555 1_555
O6 H1 1_555 1_555
O7 Ce1 1_555 1_555
H2 O7 1_555 1_555
H3 O7 1_555 1_555
C1 C2 1_555 1_555
C2 C3 1_555 1_555
C3 H4 1_555 1_555
C4 C3 1_555 1_555
H5 C4 1_555 1_555
C5 N1 1_555 1_555
C6 O1 1_555 1_555
C7 N2 1_555 1_555
C8 O6 1_555 1_555
C9 C8 1_555 1_555
H6 C9 1_555 1_555
C10 C9 1_555 1_555
H7 C10 1_555 1_555
C11 N2 1_555 1_555
C12 O4 1_555 1_555
Ce1A O2 1_555 1_555
Ce1A_2 O5 1_555 1_555
Ce1C O3 1_555 1_555
O2A Ce1 1_555 1_555
O3C Ce1 1_555 1_555
O5A Ce1 1_555 1_555
C1 C7 1_555 1_555
C4 C5 1_555 1_555
C5 C6 1_555 1_555
C7 C8 1_555 1_555
C10 C11 1_555 1_555
C11 C12 1_555 1_555

#END
