
#######################################################################
#
#                 Cambridge Crystallographic Data Centre
#                                CCDC 
#
#######################################################################
#
# If this CIF has been generated from an entry in the Cambridge 
# Structural Database, then it will include bibliographic, chemical, 
# crystal, experimental, refinement or atomic coordinate data resulting 
# from the CCDC's data processing and validation procedures.
#
#######################################################################

data_GOZNAM
_symmetry_cell_setting           monoclinic
_symmetry_space_group_name_H-M   'C 2/c'
_symmetry_Int_Tables_number      15
_space_group_name_Hall           '-C 2yn'
loop_
_symmetry_equiv_pos_site_id
_symmetry_equiv_pos_as_xyz
1 x,y,z
2 -x,y,1/2-z
3 1/2+x,1/2+y,z
4 1/2-x,1/2+y,1/2-z
5 -x,-y,-z
6 x,-y,1/2+z
7 1/2-x,1/2-y,-z
8 1/2+x,1/2-y,1/2+z
_cell_length_a                   12.6227(8)
_cell_length_b                   24.6013(16)
_cell_length_c                   32.699(2)
_cell_angle_alpha                90
_cell_angle_beta                 99.702(2)
_cell_angle_gamma                90
_cell_volume                     10008.9
loop_
_atom_site_label
_atom_site_type_symbol
_atom_site_fract_x
_atom_site_fract_y
_atom_site_fract_z
C27 C 0.4290(6) 0.3844(3) 0.3961(2)
H22 H 0.4677 0.4166 0.3960
C28 C 0.4872(6) 0.3331(2) 0.3996(2)
H23 H 0.5611 0.3323 0.4003
C29 C 0.4301(6) 0.2853(3) 0.4018(2)
C30 C 0.3176(6) 0.2864(3) 0.3987(2)
H24 H 0.2765 0.2550 0.3987
C31 C 0.2702(6) 0.3414(3) 0.3956(2)
H25 H 0.1965 0.3434 0.3955
C32 C 0.4819(6) 0.2335(3) 0.4066(2)
H26 H 0.4396 0.2037 0.4107
C33 C 0.5872(6) 0.2240(3) 0.4057(2)
H27 H 0.6291 0.2543 0.4024
C34 C 0.7924(6) 0.1173(3) 0.4009(2)
H28 H 0.8603 0.1141 0.3936
C35 C 0.7472(5) 0.1667(3) 0.39923(19)
H29 H 0.7834 0.1971 0.3917
C36 C 0.6428(5) 0.1715(3) 0.4093(2)
C37 C 0.5920(5) 0.1260(3) 0.42082(18)
H30 H 0.5233 0.1278 0.4275
C38 C 0.6503(6) 0.0749(2) 0.4222(2)
H31 H 0.6183 0.0435 0.4303
N12 N 0.3194(5) 0.3872(2) 0.39291(19)
N13 N 0.7450(5) 0.0716(2) 0.41250(17)
O4 O 0.2835(5) 0.9459(2) 0.30477(17)
H32 H 0.2504 0.9733 0.2930
H33 H 0.2837 0.9474 0.3307
O5 O 0.4926(5) 0.9415(2) 0.17020(19)
H34 H 0.4465 0.9373 0.1483
H35 H 0.5260 0.9712 0.1687
O6 O 0.5601(16) 0.9804(8) 0.0431(6)
H36 H 0.6133 0.9617 0.0382
H37 H 0.5753 1.0140 0.0424
O7 O 0.5140(17) 0.9096(8) 0.0505(6)
H38 H 0.5582 0.8947 0.0698
H39 H 0.4513 0.9087 0.0568
O8 O 0.5957(18) 0.8376(8) 0.1960(6)
H40 H 0.5752 0.8047 0.1964
H41 H 0.6627 0.8395 0.2052
O9 O 0.0562(14) 0.2787(7) 0.0771(5)
H42 H 0.0853 0.3093 0.0838
H43 H -0.0094 0.2834 0.0665
O10 O 0.5000 0.3341(5) 0.7500
O11 O 0.1916(15) 0.7529(8) 0.9938(6)
H44 H 0.2174 0.7472 1.0191
H45 H 0.2149 0.7831 0.9862
O11F O 0.3084(15) 0.7471(8) 1.0062(6)
H44F H 0.2826 0.7528 0.9809
H45F H 0.2851 0.7169 1.0138
C1 C 0.1877(5) 1.0390(3) 0.3044(2)
C2 C 0.1974(5) 0.9793(3) 0.37472(18)
C3 C 0.0230(5) 1.0513(2) 0.3404(2)
C4 C 0.1118(5) 1.0433(3) 0.4205(2)
C5 C 0.0976(5) 1.1377(3) 0.3813(2)
C6 C 0.2865(6) 1.1003(3) 0.4221(2)
C7 C 0.2436(5) 1.1368(3) 0.3372(2)
C8 C 0.3527(6) 1.0438(3) 0.3646(2)
C9 C 0.1730(5) 0.8733(3) 0.2071(2)
H1 H 0.2468 0.8734 0.2075
C10 C 0.1230(6) 0.8242(3) 0.2065(2)
H2 H 0.1639 0.7926 0.2106
C11 C 0.0068(6) 0.8207(3) 0.1996(2)
C12 C -0.0459(6) 0.8730(3) 0.1981(2)
H3 H -0.1205 0.8752 0.1944
C13 C 0.0141(5) 0.9185(2) 0.20206(19)
H4 H -0.0220 0.9515 0.2014
C14 C -0.0652(7) 0.7725(3) 0.1977(2)
H5 H -0.1394 0.7767 0.1941
C15 C -0.0190(6) 0.7217(3) 0.2014(2)
H6 H 0.0549 0.7171 0.2034
C16 C -0.1078(6) 0.5817(3) 0.1940(2)
H7 H -0.0778 0.5489 0.1875
C17 C -0.0480(6) 0.6276(3) 0.1912(2)
H8 H 0.0181 0.6264 0.1823
C18 C -0.0908(6) 0.6750(3) 0.2022(2)
C19 C -0.1966(6) 0.6753(3) 0.2147(2)
H9 H -0.2294 0.7072 0.2213
C20 C -0.2429(5) 0.6268(3) 0.2160(2)
H10 H -0.3085 0.6258 0.2254
C21 C 0.1543(6) 0.9073(3) 0.4820(2)
H11 H 0.1885 0.9364 0.4715
C22 C 0.2047(5) 0.8556(3) 0.48453(19)
H12 H 0.2724 0.8519 0.4772
C23 C 0.1537(5) 0.8104(3) 0.4979(2)
C24 C 0.0516(6) 0.8194(3) 0.5081(2)
H13 H 0.0111 0.7909 0.5160
C25 C 0.0132(6) 0.8720(3) 0.5060(2)
H14 H -0.0533 0.8776 0.5140
C26 C 0.2042(5) 0.7568(3) 0.50328(19)
H15 H 0.1636 0.7294 0.5127
Mn1 Mn 0.0000 1.0000 0.5000
Mn2 Mn 0.21204(7) 0.99993(4) 0.20831(3)
N1 N 0.1874(4) 1.0236(2) 0.27170(17)
N2 N 0.2044(5) 0.9331(2) 0.3795(2)
N3 N -0.0611(5) 1.0398(2) 0.32343(16)
N4 N 0.0726(4) 1.0304(2) 0.44747(17)
N5 N 0.0527(4) 1.1765(2) 0.39032(17)
N6 N 0.3396(4) 1.1188(2) 0.45213(17)
N7 N 0.2744(5) 1.1735(2) 0.32048(18)
N8 N 0.4349(5) 1.0262(2) 0.36274(17)
N9 N 0.1249(5) 0.9202(2) 0.20707(17)
N10 N -0.2035(4) 0.57906(18) 0.20509(15)
N11 N 0.0624(4) 0.9157(2) 0.49370(15)
O1 O -0.1516(3) 0.98277(16) 0.45729(13)
H16 H -0.1403 0.9535 0.4391
H17 H -0.1741 1.0146 0.4412
O2 O 0.3613(3) 0.95868(18) 0.23158(13)
H18 H 0.3937 0.9465 0.2087
H19 H 0.3468 0.9280 0.2479
O3 O 0.2582(3) 0.97959(17) 0.14734(12)
H20 H 0.2660 1.0125 0.1323
H21 H 0.2032 0.9574 0.1317
W1 W 0.187471(19) 1.067191(9) 0.367841(7)
C21F C 0.3457(6) 0.5927(3) 0.5180(2)
H11F H 0.3115 0.5636 0.5285
C22F C 0.2953(5) 0.6444(3) 0.51547(19)
H12F H 0.2276 0.6481 0.5228
C23F C 0.3463(5) 0.6896(3) 0.5021(2)
C24F C 0.4484(6) 0.6806(3) 0.4919(2)
H13F H 0.4889 0.7091 0.4840
C25F C 0.4868(6) 0.6280(3) 0.4940(2)
H14F H 0.5533 0.6224 0.4860
C26F C 0.2958(5) 0.7432(3) 0.49672(19)
H15F H 0.3364 0.7706 0.4873
N11F N 0.4376(4) 0.5843(2) 0.50630(15)
C1A C -0.1877(5) 1.0390(3) 0.1956(2)
C2A C -0.1974(5) 0.9793(3) 0.12528(18)
C3A C -0.0230(5) 1.0513(2) 0.1596(2)
C4A C -0.1118(5) 1.0433(3) 0.0795(2)
C5A C -0.0976(5) 1.1377(3) 0.1187(2)
C6A C -0.2865(6) 1.1003(3) 0.0779(2)
C7A C -0.2436(5) 1.1368(3) 0.1628(2)
C8A C -0.3527(6) 1.0438(3) 0.1354(2)
C9A C -0.1730(5) 0.8733(3) 0.2929(2)
H1A H -0.2468 0.8734 0.2925
C10A C -0.1230(6) 0.8242(3) 0.2935(2)
H2A H -0.1639 0.7926 0.2894
C11A C -0.0068(6) 0.8207(3) 0.3004(2)
C12A C 0.0459(6) 0.8730(3) 0.3019(2)
H3A H 0.1205 0.8752 0.3056
C13A C -0.0141(5) 0.9185(2) 0.29794(19)
H4A H 0.0220 0.9515 0.2986
C14A C 0.0652(7) 0.7725(3) 0.3023(2)
H5A H 0.1394 0.7767 0.3059
C15A C 0.0190(6) 0.7217(3) 0.2986(2)
H6A H -0.0549 0.7171 0.2966
C16A C 0.1078(6) 0.5817(3) 0.3060(2)
H7A H 0.0778 0.5489 0.3125
C17A C 0.0480(6) 0.6276(3) 0.3088(2)
H8A H -0.0181 0.6264 0.3177
C18A C 0.0908(6) 0.6750(3) 0.2978(2)
C19A C 0.1966(6) 0.6753(3) 0.2853(2)
H9A H 0.2294 0.7072 0.2787
C20A C 0.2429(5) 0.6268(3) 0.2840(2)
H10A H 0.3085 0.6258 0.2746
Mn2A Mn -0.21204(7) 0.99993(4) 0.29169(3)
N1A N -0.1874(4) 1.0236(2) 0.22830(17)
N2A N -0.2044(5) 0.9331(2) 0.1205(2)
N3A N 0.0611(5) 1.0398(2) 0.17657(16)
N4A N -0.0726(4) 1.0304(2) 0.05253(17)
N5A N -0.0527(4) 1.1765(2) 0.10968(17)
N6A N -0.3396(4) 1.1188(2) 0.04787(17)
N7A N -0.2744(5) 1.1735(2) 0.17952(18)
N8A N -0.4349(5) 1.0262(2) 0.13726(17)
N9A N -0.1249(5) 0.9202(2) 0.29293(17)
N10A N 0.2035(4) 0.57906(18) 0.29491(15)
O2A O -0.3613(3) 0.95868(18) 0.26842(13)
H18A H -0.3937 0.9465 0.2913
H19A H -0.3468 0.9280 0.2521
O3A O -0.2582(3) 0.97959(17) 0.35266(12)
H20A H -0.2660 1.0125 0.3677
H21A H -0.2032 0.9574 0.3683
W1A W -0.187471(19) 1.067191(9) 0.132159(7)
O1D O 0.1516(3) 1.01723(16) 0.54271(13)
H16D H 0.1403 1.0465 0.5609
H17D H 0.1741 0.9854 0.5588
Mn1A Mn 0.0000 1.0000 0.0000
Mn1B Mn 0.5000 0.5000 0.5000
Mn2B Mn -0.28796(7) 0.49993(4) 0.20831(3)
Mn2C Mn 0.28796(7) 0.49993(4) 0.29169(3)
N4D N -0.0726(4) 0.9696(2) 0.55253(17)
N10B N 0.2965(4) 1.07906(18) 0.20509(15)
N10C N -0.2965(4) 1.07906(18) 0.29491(15)
N11D N -0.0624(4) 1.0843(2) 0.50630(15)
H46? H 0.4823 0.3049 0.7610
H47? H 0.4673 0.3608 0.7587
loop_
_geom_bond_atom_site_label_1
_geom_bond_atom_site_label_2
_geom_bond_site_symmetry_1
_geom_bond_site_symmetry_2
C1 N1 1_555 1_555
C2 N2 1_555 1_555
C3 N3 1_555 1_555
C4 N4 1_555 1_555
C5 N5 1_555 1_555
C6 N6 1_555 1_555
C7 N7 1_555 1_555
C8 N8 1_555 1_555
C9 H1 1_555 1_555
C10 C9 1_555 1_555
H2 C10 1_555 1_555
C11 C10 1_555 1_555
C12 C11 1_555 1_555
H3 C12 1_555 1_555
C13 C12 1_555 1_555
H4 C13 1_555 1_555
C14 C11 1_555 1_555
H5 C14 1_555 1_555
C15 C14 1_555 1_555
H6 C15 1_555 1_555
C16 H7 1_555 1_555
C17 C16 1_555 1_555
H8 C17 1_555 1_555
C18 C15 1_555 1_555
C19 C18 1_555 1_555
H9 C19 1_555 1_555
C20 C19 1_555 1_555
H10 C20 1_555 1_555
C21 H11 1_555 1_555
C22 C21 1_555 1_555
H12 C22 1_555 1_555
C23 C22 1_555 1_555
C24 C23 1_555 1_555
H13 C24 1_555 1_555
C25 C24 1_555 1_555
H14 C25 1_555 1_555
C26 C23 1_555 1_555
H15 C26 1_555 1_555
Mn1 N4 1_555 1_555
Mn2 N1 1_555 1_555
N3 Mn2A 1_555 1_555
N9 C9 1_555 1_555
N10 C16 1_555 1_555
N11 C21 1_555 1_555
O1 Mn1 1_555 1_555
H16 O1 1_555 1_555
H17 O1 1_555 1_555
O2 Mn2 1_555 1_555
H18 O2 1_555 1_555
H19 O2 1_555 1_555
O3 Mn2 1_555 1_555
H20 O3 1_555 1_555
H21 O3 1_555 1_555
W1 C1 1_555 1_555
C27 H22 1_555 1_555
C28 C27 1_555 1_555
H23 C28 1_555 1_555
C29 C28 1_555 1_555
C30 C29 1_555 1_555
H24 C30 1_555 1_555
C31 C30 1_555 1_555
H25 C31 1_555 1_555
C32 C29 1_555 1_555
H26 C32 1_555 1_555
C33 C32 1_555 1_555
H27 C33 1_555 1_555
C34 H28 1_555 1_555
C35 C34 1_555 1_555
H29 C35 1_555 1_555
C36 C33 1_555 1_555
C37 C36 1_555 1_555
H30 C37 1_555 1_555
C38 C37 1_555 1_555
H31 C38 1_555 1_555
N12 C27 1_555 1_555
N13 C34 1_555 1_555
O4 H32 1_555 1_555
H33 O4 1_555 1_555
O5 H34 1_555 1_555
H35 O5 1_555 1_555
O6 H36 1_555 1_555
H37 O6 1_555 1_555
O7 H38 1_555 1_555
H39 O7 1_555 1_555
O8 H40 1_555 1_555
H41 O8 1_555 1_555
O9 H42 1_555 1_555
H43 O9 1_555 1_555
O11 H44 1_555 1_555
H45 O11 1_555 1_555
C21F H11F 1_555 1_555
C22F C21F 1_555 1_555
H12F C22F 1_555 1_555
C23F C22F 1_555 1_555
C24F C23F 1_555 1_555
H13F C24F 1_555 1_555
C25F C24F 1_555 1_555
H14F C25F 1_555 1_555
C26F C26 1_555 1_555
H15F C26F 1_555 1_555
N11F C21F 1_555 1_555
C1A N1A 1_555 1_555
C2A N2A 1_555 1_555
C3A N3A 1_555 1_555
C4A N4A 1_555 1_555
C5A N5A 1_555 1_555
C6A N6A 1_555 1_555
C7A N7A 1_555 1_555
C8A N8A 1_555 1_555
C9A H1A 1_555 1_555
C10A C9A 1_555 1_555
H2A C10A 1_555 1_555
C11A C10A 1_555 1_555
C12A C11A 1_555 1_555
H3A C12A 1_555 1_555
C13A C12A 1_555 1_555
H4A C13A 1_555 1_555
C14A C11A 1_555 1_555
H5A C14A 1_555 1_555
C15A C14A 1_555 1_555
H6A C15A 1_555 1_555
C16A H7A 1_555 1_555
C17A C16A 1_555 1_555
H8A C17A 1_555 1_555
C18A C15A 1_555 1_555
C19A C18A 1_555 1_555
H9A C19A 1_555 1_555
C20A C19A 1_555 1_555
H10A C20A 1_555 1_555
Mn2A N1A 1_555 1_555
N3A Mn2 1_555 1_555
N4A Mn1A 1_555 1_555
N9A C9A 1_555 1_555
N10A C16A 1_555 1_555
O2A Mn2A 1_555 1_555
H18A O2A 1_555 1_555
H19A O2A 1_555 1_555
O3A Mn2A 1_555 1_555
H20A O3A 1_555 1_555
H21A O3A 1_555 1_555
W1A C1A 1_555 1_555
O1D Mn1 1_555 1_555
H16D O1D 1_555 1_555
H17D O1D 1_555 1_555
Mn1B N11F 1_555 1_555
Mn2B N10 1_555 1_555
Mn2C N10A 1_555 1_555
N4D Mn1 1_555 1_555
N10B Mn2 1_555 1_555
N10C Mn2A 1_555 1_555
N11D Mn1 1_555 1_555
O11F H44F 1_555 1_555
H45F O11F 1_555 1_555
C2 W1 1_555 1_555
C3 W1 1_555 1_555
C4 W1 1_555 1_555
C5 W1 1_555 1_555
C6 W1 1_555 1_555
C7 W1 1_555 1_555
C8 W1 1_555 1_555
C13 N9 1_555 1_555
C17 C18 1_555 1_555
C20 N10 1_555 1_555
C25 N11 1_555 1_555
Mn1 N11 1_555 1_555
Mn2 N9 1_555 1_555
C31 N12 1_555 1_555
C35 C36 1_555 1_555
C38 N13 1_555 1_555
C23F C26F 1_555 1_555
C25F N11F 1_555 1_555
C2A W1A 1_555 1_555
C3A W1A 1_555 1_555
C4A W1A 1_555 1_555
C5A W1A 1_555 1_555
C6A W1A 1_555 1_555
C7A W1A 1_555 1_555
C8A W1A 1_555 1_555
C13A N9A 1_555 1_555
C17A C18A 1_555 1_555
C20A N10A 1_555 1_555
Mn2A N9A 1_555 1_555

#END
