
#######################################################################
#
#                 Cambridge Crystallographic Data Centre
#                                CCDC 
#
#######################################################################
#
# If this CIF has been generated from an entry in the Cambridge 
# Structural Database, then it will include bibliographic, chemical, 
# crystal, experimental, refinement or atomic coordinate data resulting 
# from the CCDC's data processing and validation procedures.
#
#######################################################################

data_GOZQUJ
_symmetry_cell_setting           monoclinic
_symmetry_space_group_name_H-M   'C 2/c'
_symmetry_Int_Tables_number      15
_space_group_name_Hall           '-C 2yn'
loop_
_symmetry_equiv_pos_site_id
_symmetry_equiv_pos_as_xyz
1 x,y,z
2 -x,y,1/2-z
3 1/2+x,1/2+y,z
4 1/2-x,1/2+y,1/2-z
5 -x,-y,-z
6 x,-y,1/2+z
7 1/2-x,1/2-y,-z
8 1/2+x,1/2-y,1/2+z
_cell_length_a                   24.542(5)
_cell_length_b                   10.375(5)
_cell_length_c                   22.112(5)
_cell_angle_alpha                90
_cell_angle_beta                 96.971(5)
_cell_angle_gamma                90
_cell_volume                     5588.61
loop_
_atom_site_label
_atom_site_type_symbol
_atom_site_fract_x
_atom_site_fract_y
_atom_site_fract_z
Ni1 Ni 0.84269(3) -0.48103(6) 0.42092(3)
Mo1 Mo 0.955945(18) -0.30160(4) 0.51514(2)
Mo2 Mo 1.062843(19) -0.03807(4) 0.55167(2)
Mo3 Mo 0.97373(2) 0.23142(5) 0.60138(2)
Mo4 Mo 0.92652(2) -0.07451(4) 0.61290(2)
C1 C 0.9173(2) -0.6114(5) 0.3381(2)
H1 H 0.9255 -0.6682 0.3704
C2 C 0.9378(2) -0.6365(6) 0.2839(3)
H2 H 0.9611 -0.7063 0.2806
C3 C 0.9237(3) -0.5583(6) 0.2357(3)
H3 H 0.9359 -0.5762 0.1984
C4 C 0.8909(3) -0.4509(6) 0.2420(3)
H4 H 0.8807 -0.3963 0.2093
C5 C 0.8738(2) -0.4276(5) 0.2989(2)
C6 C 0.8414(2) -0.3171(5) 0.3150(2)
C7 C 0.8410(2) -0.1561(5) 0.2265(2)
H5 H 0.8548 -0.0687 0.2318
H6 H 0.8690 -0.2085 0.2111
C8 C 0.7257(3) -0.2258(6) 0.1253(3)
H7 H 0.7016 -0.2807 0.1021
C9 C 0.7609(2) -0.0566(5) 0.1640(2)
H8 H 0.7681 0.0284 0.1756
C10 C 0.7941(2) -0.1956(5) 0.3667(2)
C11 C 0.7638(2) -0.1435(5) 0.4149(2)
C12 C 0.7097(2) -0.1044(5) 0.4027(2)
H9 H 0.6922 -0.1076 0.3630
C13 C 0.6817(2) -0.0607(5) 0.4489(2)
H10 H 0.6454 -0.0340 0.4394
C14 C 0.7574(2) -0.0880(5) 0.5180(2)
H11 H 0.7744 -0.0800 0.5578
C15 C 0.7886(2) -0.1329(5) 0.4747(2)
H12 H 0.8252 -0.1556 0.4852
N1 N 0.88599(17) -0.5086(4) 0.34586(18)
N2 N 0.82028(17) -0.3130(4) 0.36815(18)
N3 N 0.82870(18) -0.2070(4) 0.28480(19)
N4 N 0.79760(19) -0.1293(4) 0.31718(19)
N5 N 0.79149(18) -0.1574(4) 0.18386(18)
N6 N 0.7687(2) -0.2678(5) 0.1602(2)
N7 N 0.71883(18) -0.0950(4) 0.12550(19)
N8 N 0.70466(17) -0.0551(4) 0.50711(18)
O1 O 0.90827(14) -0.3827(3) 0.46511(15)
O2 O 0.97165(17) -0.4045(4) 0.57360(17)
O3 O 0.90498(15) -0.1898(3) 0.54770(16)
O4 O 1.00715(15) -0.1394(3) 0.56945(16)
O5 O 1.07455(16) -0.0706(3) 0.47516(18)
O6 O 1.12063(17) -0.0714(4) 0.5992(2)
O7 O 1.04587(15) 0.1301(3) 0.55687(16)
O8 O 0.97888(15) 0.3140(3) 0.52399(16)
O9 O 1.01851(18) 0.3125(4) 0.65111(18)
O10 O 0.91018(18) 0.2850(4) 0.61407(19)
O11 O 0.97495(16) 0.0647(4) 0.63798(17)
O12 O 0.9409(2) -0.1748(4) 0.67297(18)
O13 O 0.86404(18) -0.0096(4) 0.6211(2)
O14 O 0.87643(15) -0.6415(3) 0.46437(15)
H13 H 0.8549 -0.6886 0.4822
H14 H 0.9088 -0.6533 0.4820
Ni1C Ni 0.65731(3) 0.01897(6) 0.07908(3)
Ni1F Ni 0.65731(3) -0.01897(6) 0.57908(3)
Mo1D Mo 1.044055(18) 0.30160(4) 0.48486(2)
Mo3D Mo 1.02627(2) -0.23142(5) 0.39862(2)
Mo4D Mo 1.07348(2) 0.07451(4) 0.38710(2)
N7C N 0.78117(18) -0.5950(4) 0.37450(19)
N8F N 0.79534(17) -0.4449(4) 0.49289(18)
O5D O 0.92545(16) 0.0706(3) 0.52484(18)
O7D O 0.95413(15) -0.1301(3) 0.44313(16)
O8D O 1.02112(15) -0.3140(3) 0.47601(16)
O15 O 0.8107(2) -0.7945(5) 0.5235(2)
H15 H 0.8190 -0.7353 0.5492
H16 H 0.8249 -0.8636 0.5362
O16 O 0.8266(4) 0.1652(8) 0.2435(4)
H17 H 0.8225 0.2158 0.2134
H18 H 0.8204 0.1907 0.2785
O17 O 1.0615(9) 0.010(2) 0.7248(9)
H19 H 1.0382 0.0171 0.6932
H20 H 1.0862 -0.0408 0.7176
loop_
_geom_bond_atom_site_label_1
_geom_bond_atom_site_label_2
_geom_bond_site_symmetry_1
_geom_bond_site_symmetry_2
Ni1 N1 1_555 1_555
Mo1 O1 1_555 1_555
Mo2 O4 1_555 1_555
Mo3 O7 1_555 1_555
Mo4 O3 1_555 1_555
C1 H1 1_555 1_555
C2 C1 1_555 1_555
H2 C2 1_555 1_555
C3 C2 1_555 1_555
H3 C3 1_555 1_555
C4 C3 1_555 1_555
H4 C4 1_555 1_555
C5 C4 1_555 1_555
C6 C5 1_555 1_555
C7 H5 1_555 1_555
H6 C7 1_555 1_555
C8 H7 1_555 1_555
C9 H8 1_555 1_555
C10 C11 1_555 1_555
C11 C12 1_555 1_555
C12 H9 1_555 1_555
C13 C12 1_555 1_555
H10 C13 1_555 1_555
C14 H11 1_555 1_555
C15 C11 1_555 1_555
H12 C15 1_555 1_555
N1 C1 1_555 1_555
N2 Ni1 1_555 1_555
N3 C6 1_555 1_555
N4 C10 1_555 1_555
N5 C7 1_555 1_555
N6 C8 1_555 1_555
N7 C8 1_555 1_555
N8 C13 1_555 1_555
O1 Ni1 1_555 1_555
O2 Mo1 1_555 1_555
O3 Mo1 1_555 1_555
O4 Mo1 1_555 1_555
O5 Mo2 1_555 1_555
O6 Mo2 1_555 1_555
O7 Mo2 1_555 1_555
O8 Mo3 1_555 1_555
O9 Mo3 1_555 1_555
O10 Mo3 1_555 1_555
O11 Mo3 1_555 1_555
O12 Mo4 1_555 1_555
O13 Mo4 1_555 1_555
O14 Ni1 1_555 1_555
H13 O14 1_555 1_555
H14 O14 1_555 1_555
O15 H15 1_555 1_555
H16 O15 1_555 1_555
O16 H17 1_555 1_555
H18 O16 1_555 1_555
O17 H19 1_555 1_555
H20 O17 1_555 1_555
Ni1C N7 1_555 1_555
Ni1F N8 1_555 1_555
Mo1D O7 1_555 1_555
Mo3D O5 1_555 1_555
Mo4D O5 1_555 1_555
N7C Ni1 1_555 1_555
N8F Ni1 1_555 1_555
O5D Mo3 1_555 1_555
O7D Mo1 1_555 1_555
O8D Mo1 1_555 1_555
Mo4 O4 1_555 1_555
Mo4 O11 1_555 1_555
Mo4 O5D 1_555 1_555
C5 N1 1_555 1_555
C6 N2 1_555 1_555
C7 N3 1_555 1_555
C9 N5 1_555 1_555
C9 N7 1_555 1_555
C10 N2 1_555 1_555
C14 C15 1_555 1_555
C14 N8 1_555 1_555
N3 N4 1_555 1_555
N5 N6 1_555 1_555
O8 Mo1D 1_555 1_555
Mo3D O7D 1_555 1_555
Mo3D O8D 1_555 1_555

#END
