
#######################################################################
#
#                 Cambridge Crystallographic Data Centre
#                                CCDC 
#
#######################################################################
#
# If this CIF has been generated from an entry in the Cambridge 
# Structural Database, then it will include bibliographic, chemical, 
# crystal, experimental, refinement or atomic coordinate data resulting 
# from the CCDC's data processing and validation procedures.
#
#######################################################################

data_GOZTUM01
_symmetry_cell_setting           monoclinic
_symmetry_space_group_name_H-M   'C 2/c'
_symmetry_Int_Tables_number      15
_space_group_name_Hall           '-C 2yn'
loop_
_symmetry_equiv_pos_site_id
_symmetry_equiv_pos_as_xyz
1 x,y,z
2 -x,y,1/2-z
3 1/2+x,1/2+y,z
4 1/2-x,1/2+y,1/2-z
5 -x,-y,-z
6 x,-y,1/2+z
7 1/2-x,1/2-y,-z
8 1/2+x,1/2-y,1/2+z
_cell_length_a                   14.022(7)
_cell_length_b                   11.926(5)
_cell_length_c                   10.805(5)
_cell_angle_alpha                90
_cell_angle_beta                 111.698(9)
_cell_angle_gamma                90
_cell_volume                     1678.86
loop_
_atom_site_label
_atom_site_type_symbol
_atom_site_fract_x
_atom_site_fract_y
_atom_site_fract_z
Co1 Co 0.5000 0.45332(3) 0.2500
O1 O 0.58798(12) 0.57375(13) 0.38844(14)
O2 O 0.39356(12) 0.46327(12) 0.34933(15)
O3 O 0.68875(18) 0.64310(19) 0.28956(19)
N1 N 0.41464(13) 0.32057(14) 0.12642(16)
N2 N 0.38147(14) 0.17186(15) -0.00297(19)
C1 C 0.42728(16) 0.27280(17) 0.0241(2)
H1 H 0.4642 0.3055 -0.0248
C2 C 0.35735(17) 0.24499(19) 0.1673(2)
H2 H 0.3358 0.2558 0.2401
C3 C 0.33671(18) 0.15340(19) 0.0878(2)
H3 H 0.2987 0.0891 0.0940
C4 C 0.3842(2) 0.0941(2) -0.1065(3)
H4 H 0.4129 0.1329 -0.1661
H5 H 0.3134 0.0701 -0.1608
C5 C 0.4492(3) -0.0083(3) -0.0460(4)
H6 H 0.4121 -0.0529 -0.0007
H7 H 0.4529 -0.0547 -0.1200
C6 C 0.65882(16) 0.63768(17) 0.38330(19)
C7 C 0.70995(19) 0.7105(2) 0.5048(2)
H8 H 0.6563 0.7549 0.5215
H9 H 0.7421 0.6611 0.5828
H10 H 0.363(2) 0.5319(18) 0.324(3)
H11 H 0.405(2) 0.457(2) 0.4372(18)
O1F O 0.91202(12) 0.92625(13) 0.61156(14)
O3F O 0.81125(18) 0.85690(19) 0.71044(19)
C6F C 0.84118(16) 0.86232(17) 0.61670(19)
C7F C 0.79005(19) 0.7895(2) 0.4952(2)
H8F H 0.8437 0.7451 0.4785
H9F H 0.7579 0.8389 0.4172
N1D N 0.58536(13) -0.32057(14) -0.12642(16)
N2D N 0.61853(14) -0.17186(15) 0.00297(19)
C1D C 0.57272(16) -0.27280(17) -0.0241(2)
H1D H 0.5358 -0.3055 0.0248
C2D C 0.64265(17) -0.24499(19) -0.1673(2)
H2D H 0.6642 -0.2558 -0.2401
C3D C 0.66329(18) -0.15340(19) -0.0878(2)
H3D H 0.7013 -0.0891 -0.0940
C4D C 0.6158(2) -0.0941(2) 0.1065(3)
H4D H 0.5871 -0.1329 0.1661
H5D H 0.6866 -0.0701 0.1608
C5D C 0.5508(3) 0.0083(3) 0.0460(4)
H6D H 0.5879 0.0529 0.0007
H7D H 0.5471 0.0547 0.1200
O2A O 0.60644(12) 0.46327(12) 0.15067(15)
H10A H 0.637(2) 0.5319(18) 0.176(3)
H11A H 0.595(2) 0.457(2) 0.0628(18)
Co1D Co 0.5000 -0.45332(3) -0.2500
Co1F Co 1.0000 1.04668(3) 0.7500
O1A O 0.41202(12) 0.57375(13) 0.11156(14)
N1A N 0.58536(13) 0.32057(14) 0.37358(16)
loop_
_geom_bond_atom_site_label_1
_geom_bond_atom_site_label_2
_geom_bond_site_symmetry_1
_geom_bond_site_symmetry_2
Co1 O1 1_555 1_555
O1 C6 1_555 1_555
O2 Co1 1_555 1_555
O3 C6 1_555 1_555
N1 Co1 1_555 1_555
N2 C1 1_555 1_555
C1 N1 1_555 1_555
H1 C1 1_555 1_555
C2 N1 1_555 1_555
H2 C2 1_555 1_555
C3 N2 1_555 1_555
H3 C3 1_555 1_555
C4 N2 1_555 1_555
H4 C4 1_555 1_555
H5 C4 1_555 1_555
C5 C4 1_555 1_555
H6 C5 1_555 1_555
H7 C5 1_555 1_555
C6 C7 1_555 1_555
C7 H8 1_555 1_555
H9 C7 1_555 1_555
H10 O2 1_555 1_555
H11 O2 1_555 1_555
O1F C6F 1_555 1_555
O3F C6F 1_555 1_555
C6F C7F 1_555 1_555
C7F C7 1_555 1_555
H8F C7F 1_555 1_555
H9F C7F 1_555 1_555
N1D C1D 1_555 1_555
N2D C1D 1_555 1_555
C1D H1D 1_555 1_555
C2D N1D 1_555 1_555
H2D C2D 1_555 1_555
C3D N2D 1_555 1_555
H3D C3D 1_555 1_555
C4D N2D 1_555 1_555
H4D C4D 1_555 1_555
H5D C4D 1_555 1_555
C5D C5 1_555 1_555
H6D C5D 1_555 1_555
H7D C5D 1_555 1_555
O2A Co1 1_555 1_555
H10A O2A 1_555 1_555
H11A O2A 1_555 1_555
Co1D N1D 1_555 1_555
Co1F O1F 1_555 1_555
O1A Co1 1_555 1_555
N1A Co1 1_555 1_555
C2 C3 1_555 1_555
C2D C3D 1_555 1_555
C4D C5D 1_555 1_555

#END
