
#######################################################################
#
#                 Cambridge Crystallographic Data Centre
#                                CCDC 
#
#######################################################################
#
# If this CIF has been generated from an entry in the Cambridge 
# Structural Database, then it will include bibliographic, chemical, 
# crystal, experimental, refinement or atomic coordinate data resulting 
# from the CCDC's data processing and validation procedures.
#
#######################################################################

data_GOZTOE
_symmetry_cell_setting           triclinic
_symmetry_space_group_name_H-M   'P -1'
_symmetry_Int_Tables_number      2
_space_group_name_Hall           '-P 1'
loop_
_symmetry_equiv_pos_site_id
_symmetry_equiv_pos_as_xyz
1 x,y,z
2 -x,-y,-z
_cell_length_a                   7.418(2)
_cell_length_b                   9.794(5)
_cell_length_c                   9.986(5)
_cell_angle_alpha                91.63(4)
_cell_angle_beta                 97.63(3)
_cell_angle_gamma                99.88(3)
_cell_volume                     707.438
loop_
_atom_site_label
_atom_site_type_symbol
_atom_site_fract_x
_atom_site_fract_y
_atom_site_fract_z
Ru1 Ru 0.15282(7) -0.00495(7) 0.00217(6)
Cl1 Cl -0.5000 0.0000 0.0000
O1 O 0.1098(8) -0.1971(6) 0.0727(6)
O2 O 0.1918(8) 0.1894(6) -0.0668(6)
O3 O 0.2023(7) 0.0731(6) 0.1946(6)
O4 O 0.0968(8) -0.0863(6) -0.1902(6)
C1 C -0.0557(11) -0.2508(9) 0.0909(8)
C2 C -0.0852(13) -0.3942(9) 0.1393(10)
C3 C -0.2613(16) -0.4648(11) 0.1238(13)
H1 H -0.3534(16) -0.4153(11) 0.0925(13)
C4 C -0.3238(21) -0.6129(14) 0.1513(14)
H2 H -0.3782(21) -0.6636(14) 0.0667(14)
H3 H -0.2170(21) -0.6522(14) 0.1872(14)
C5 C -0.4559(27) -0.6318(19) 0.2449(18)
H4 H -0.4899(27) -0.7289(19) 0.2586(18)
H5 H -0.5638(27) -0.5957(19) 0.2090(18)
H6 H -0.4025(27) -0.5834(19) 0.3296(18)
C6 C 0.0829(16) -0.4532(12) 0.1939(13)
H7 H 0.1916(16) -0.3840(12) 0.1944(13)
H8 H 0.0913(16) -0.5323(12) 0.1376(13)
H9 H 0.0728(16) -0.4809(12) 0.2844(13)
C7 C 0.0686(11) 0.1023(9) 0.2521(8)
C8 C 0.1064(14) 0.1565(11) 0.3941(9)
C9 C 0.2688(16) 0.1499(15) 0.4645(10)
H10 H 0.3550(16) 0.1161(15) 0.4191(10)
C10 C 0.3245(26) 0.1924(18) 0.6110(17)
H11 H 0.2422(26) 0.2231(18) 0.6625(17)
H12 H 0.3105(26) 0.2946(18) 0.6271(17)
C11 C 0.5043(31) 0.1846(21) 0.6678(21)
H13 H 0.5233(31) 0.2163(21) 0.7613(21)
H14 H 0.5905(31) 0.2420(21) 0.6203(21)
H15 H 0.5229(31) 0.0902(21) 0.6609(21)
C12 C -0.0498(18) 0.2059(15) 0.4540(12)
H16 H -0.1546(18) 0.2006(15) 0.3852(12)
H17 H -0.0103(18) 0.3003(15) 0.4887(12)
H18 H -0.0833(18) 0.1483(15) 0.5261(12)
Ru1A Ru -0.15282(7) 0.00495(7) -0.00217(6)
Cl1_2 Cl 0.5000 0.0000 0.0000
Ru1_2 Ru -0.84718(7) -0.00495(7) 0.00217(6)
O1A O -0.1098(8) 0.1971(6) -0.0727(6)
C1A C 0.0557(11) 0.2508(9) -0.0909(8)
C2A C 0.0852(13) 0.3942(9) -0.1393(10)
C3A C 0.2613(16) 0.4648(11) -0.1238(13)
H1A H 0.3534(16) 0.4153(11) -0.0925(13)
C4A C 0.3238(21) 0.6129(14) -0.1513(14)
H2A H 0.3782(21) 0.6636(14) -0.0667(14)
H3A H 0.2170(21) 0.6522(14) -0.1872(14)
C5A C 0.4559(27) 0.6318(19) -0.2449(18)
H4A H 0.4899(27) 0.7289(19) -0.2586(18)
H5A H 0.5638(27) 0.5957(19) -0.2090(18)
H6A H 0.4025(27) 0.5834(19) -0.3296(18)
C6A C -0.0829(16) 0.4532(12) -0.1939(13)
H7A H -0.1916(16) 0.3840(12) -0.1944(13)
H8A H -0.0913(16) 0.5323(12) -0.1376(13)
H9A H -0.0728(16) 0.4809(12) -0.2844(13)
O2A O -0.1918(8) -0.1894(6) 0.0668(6)
O3A O -0.2023(7) -0.0731(6) -0.1946(6)
C7A C -0.0686(11) -0.1023(9) -0.2521(8)
C8A C -0.1064(14) -0.1565(11) -0.3941(9)
C9A C -0.2688(16) -0.1499(15) -0.4645(10)
H10A H -0.3550(16) -0.1161(15) -0.4191(10)
C10A C -0.3245(26) -0.1924(18) -0.6110(17)
H11A H -0.2422(26) -0.2231(18) -0.6625(17)
H12A H -0.3105(26) -0.2946(18) -0.6271(17)
C11A C -0.5043(31) -0.1846(21) -0.6678(21)
H13A H -0.5233(31) -0.2163(21) -0.7613(21)
H14A H -0.5905(31) -0.2420(21) -0.6203(21)
H15A H -0.5229(31) -0.0902(21) -0.6609(21)
C12A C 0.0498(18) -0.2059(15) -0.4540(12)
H16A H 0.1546(18) -0.2006(15) -0.3852(12)
H17A H 0.0103(18) -0.3003(15) -0.4887(12)
H18A H 0.0833(18) -0.1483(15) -0.5261(12)
O4A O -0.0968(8) 0.0863(6) 0.1902(6)
loop_
_geom_bond_atom_site_label_1
_geom_bond_atom_site_label_2
_geom_bond_site_symmetry_1
_geom_bond_site_symmetry_2
Ru1 O1 1_555 1_555
Cl1 Ru1A 1_555 1_555
O1 C1 1_555 1_555
O2 Ru1 1_555 1_555
O3 Ru1 1_555 1_555
O4 Ru1 1_555 1_555
C1 C2 1_555 1_555
C2 C3 1_555 1_555
C3 H1 1_555 1_555
C4 C3 1_555 1_555
H2 C4 1_555 1_555
H3 C4 1_555 1_555
C5 C4 1_555 1_555
H4 C5 1_555 1_555
H5 C5 1_555 1_555
H6 C5 1_555 1_555
C6 C2 1_555 1_555
H7 C6 1_555 1_555
H8 C6 1_555 1_555
H9 C6 1_555 1_555
C7 O3 1_555 1_555
C8 C7 1_555 1_555
C9 C8 1_555 1_555
H10 C9 1_555 1_555
C10 C9 1_555 1_555
H11 C10 1_555 1_555
H12 C10 1_555 1_555
C11 C10 1_555 1_555
H13 C11 1_555 1_555
H14 C11 1_555 1_555
H15 C11 1_555 1_555
C12 C8 1_555 1_555
H16 C12 1_555 1_555
H17 C12 1_555 1_555
H18 C12 1_555 1_555
Ru1A Ru1 1_555 1_555
Cl1_2 Ru1 1_555 1_555
Ru1_2 Cl1 1_555 1_555
O1A Ru1A 1_555 1_555
C1A O2 1_555 1_555
C2A C1A 1_555 1_555
C3A C2A 1_555 1_555
H1A C3A 1_555 1_555
C4A C3A 1_555 1_555
H2A C4A 1_555 1_555
H3A C4A 1_555 1_555
C5A C4A 1_555 1_555
H4A C5A 1_555 1_555
H5A C5A 1_555 1_555
H6A C5A 1_555 1_555
C6A C2A 1_555 1_555
H7A C6A 1_555 1_555
H8A C6A 1_555 1_555
H9A C6A 1_555 1_555
O2A C1 1_555 1_555
O3A Ru1A 1_555 1_555
C7A O4 1_555 1_555
C8A C7A 1_555 1_555
C9A C8A 1_555 1_555
H10A C9A 1_555 1_555
C10A C9A 1_555 1_555
H11A C10A 1_555 1_555
H12A C10A 1_555 1_555
C11A C10A 1_555 1_555
H13A C11A 1_555 1_555
H14A C11A 1_555 1_555
H15A C11A 1_555 1_555
C12A C8A 1_555 1_555
H16A C12A 1_555 1_555
H17A C12A 1_555 1_555
H18A C12A 1_555 1_555
O4A C7 1_555 1_555
Ru1A O2A 1_555 1_555
Ru1A O4A 1_555 1_555
O1A C1A 1_555 1_555
O3A C7A 1_555 1_555

#END
