
#######################################################################
#
#                 Cambridge Crystallographic Data Centre
#                                CCDC 
#
#######################################################################
#
# If this CIF has been generated from an entry in the Cambridge 
# Structural Database, then it will include bibliographic, chemical, 
# crystal, experimental, refinement or atomic coordinate data resulting 
# from the CCDC's data processing and validation procedures.
#
#######################################################################

data_GUBFOY
_symmetry_cell_setting           monoclinic
_symmetry_space_group_name_H-M   'C 2/c'
_symmetry_Int_Tables_number      15
_space_group_name_Hall           '-C 2yn'
loop_
_symmetry_equiv_pos_site_id
_symmetry_equiv_pos_as_xyz
1 x,y,z
2 -x,y,1/2-z
3 1/2+x,1/2+y,z
4 1/2-x,1/2+y,1/2-z
5 -x,-y,-z
6 x,-y,1/2+z
7 1/2-x,1/2-y,-z
8 1/2+x,1/2-y,1/2+z
_cell_length_a                   29.037(1)
_cell_length_b                   8.4340(2)
_cell_length_c                   22.5310(8)
_cell_angle_alpha                90
_cell_angle_beta                 126.63(1)
_cell_angle_gamma                90
_cell_volume                     4428.06
loop_
_atom_site_label
_atom_site_type_symbol
_atom_site_fract_x
_atom_site_fract_y
_atom_site_fract_z
Cd1 Cd 0.58054(1) 0.44535(4) 0.04423(1)
Cl1 Cl 0.67560(4) 0.5767(1) 0.13562(6)
Cl2 Cl 0.52397(4) 0.6713(1) 0.05228(7)
S1 S 0.59613(4) 0.2008(2) 0.13394(6)
C1 C 0.6716(3) 0.1915(9) 0.2073(3)
C2 C 0.5896(2) 0.0508(6) 0.0723(3)
C3 C 0.6237(1) 0.0829(5) 0.0424(2)
C4 C 0.6541(1) -0.0388(5) 0.0383(2)
C5 C 0.6821(1) -0.0095(5) 0.0062(2)
C6 C 0.6780(1) 0.1433(5) -0.0206(2)
C7 C 0.6490(1) 0.2612(5) -0.0115(2)
N1 N 0.6222(1) 0.2306(4) 0.0190(2)
C8 C 0.6504(2) 0.4299(5) -0.0325(2)
S2 S 0.58731(5) 0.5453(1) -0.06641(6)
C9 C 0.5342(3) 0.429(1) -0.1469(3)
C10 C 0.7160(1) -0.1338(5) 0.0018(2)
C11 C 0.7172(2) -0.1462(5) -0.0590(2)
C12 C 0.7492(1) -0.2393(5) 0.0606(2)
H1 H 0.6809 0.2666 0.2444
H2 H 0.6812 0.0881 0.2281
H3 H 0.6925 0.2149 0.1883
H4 H 0.5502 0.0425 0.0315
H5 H 0.6023 -0.0470 0.0983
H6 H 0.6556 -0.1411 0.0571
H7 H 0.6949 0.1667 -0.0450
H8 H 0.6560 0.4272 -0.0700
H9 H 0.6820 0.4816 0.0100
H10 H 0.4976 0.4774 -0.1711
H11 H 0.5443 0.4237 -0.1799
H12 H 0.5330 0.3249 -0.1318
H13 H 0.6949 -0.0759 -0.0996
H14 H 0.7487 -0.2326 0.1023
Cd1D Cd 0.41946(1) 0.55465(4) -0.04423(1)
Cl1D Cl 0.32440(4) 0.4233(1) -0.13562(6)
Cl2D Cl 0.47603(4) 0.3287(1) -0.05228(7)
C12F C 0.7508(1) -0.2607(5) -0.0606(2)
C10F C 0.7840(1) -0.3662(5) -0.0018(2)
C5F C 0.8179(1) -0.4905(5) -0.0062(2)
C4F C 0.8459(1) -0.4612(5) -0.0383(2)
C3F C 0.8763(1) -0.5829(5) -0.0424(2)
C2F C 0.9104(2) -0.5508(6) -0.0723(3)
S1F S 0.90387(4) -0.7008(2) -0.13394(6)
Cd1F Cd 0.91946(1) -0.94535(4) -0.04423(1)
N1F N 0.8778(1) -0.7306(4) -0.0190(2)
C7F C 0.8510(1) -0.7612(5) 0.0115(2)
C6F C 0.8220(1) -0.6433(5) 0.0206(2)
H7F H 0.8051 -0.6667 0.0450
C8F C 0.8496(2) -0.9299(5) 0.0325(2)
S2F S 0.91269(5) -1.0453(1) 0.06641(6)
C9F C 0.9658(3) -0.929(1) 0.1469(3)
H10F H 1.0024 -0.9774 0.1711
H11F H 0.9557 -0.9237 0.1799
H12F H 0.9670 -0.8249 0.1318
H8F H 0.8440 -0.9272 0.0700
H9F H 0.8180 -0.9816 -0.0100
C1F C 0.8284(3) -0.6915(9) -0.2073(3)
H1F H 0.8191 -0.7666 -0.2444
H2F H 0.8188 -0.5881 -0.2281
H3F H 0.8075 -0.7149 -0.1883
H4F H 0.9498 -0.5425 -0.0315
H5F H 0.8977 -0.4530 -0.0983
H6F H 0.8444 -0.3589 -0.0571
C11F C 0.7828(2) -0.3538(5) 0.0590(2)
H13F H 0.8051 -0.4241 0.0996
H14F H 0.7513 -0.2674 -0.1023
S1D S 0.40387(4) 0.7992(2) -0.13394(6)
N1D N 0.3778(1) 0.7694(4) -0.0190(2)
S2D S 0.41269(5) 0.4547(1) 0.06641(6)
C13 C 0.8482(2) 0.1955(9) 0.2372(3)
Cl3 Cl 0.78069(9) 0.2713(5) 0.1738(1)
Cl4 Cl 0.89719(8) 0.3293(3) 0.2478(1)
Cl5 Cl 0.8588(1) 0.0139(3) 0.2103(1)
O1 O 0.9377(2) -0.3010(6) 0.2232(2)
O2 O 0.9707(3) -0.4733(9) 0.1650(4)
loop_
_geom_bond_atom_site_label_1
_geom_bond_atom_site_label_2
_geom_bond_site_symmetry_1
_geom_bond_site_symmetry_2
Cd1 Cl1 1_555 1_555
Cl2 Cd1 1_555 1_555
S1 Cd1 1_555 1_555
C1 S1 1_555 1_555
C2 S1 1_555 1_555
C3 C2 1_555 1_555
C4 C3 1_555 1_555
C5 C4 1_555 1_555
C6 C5 1_555 1_555
C7 C6 1_555 1_555
N1 Cd1 1_555 1_555
C8 C7 1_555 1_555
S2 Cd1 1_555 1_555
C9 S2 1_555 1_555
C10 C5 1_555 1_555
C11 C10 1_555 1_555
C12 C10 1_555 1_555
C13 Cl3 1_555 1_555
Cl4 C13 1_555 1_555
Cl5 C13 1_555 1_555
H1 C1 1_555 1_555
H2 C1 1_555 1_555
H3 C1 1_555 1_555
H4 C2 1_555 1_555
H5 C2 1_555 1_555
H6 C4 1_555 1_555
H7 C6 1_555 1_555
H8 C8 1_555 1_555
H9 C8 1_555 1_555
H10 C9 1_555 1_555
H11 C9 1_555 1_555
H12 C9 1_555 1_555
H13 C11 1_555 1_555
H14 C12 1_555 1_555
Cd1D Cl2 1_555 1_555
Cl1D Cd1D 1_555 1_555
Cl2D Cd1 1_555 1_555
C12F C11 1_555 1_555
C10F C12F 1_555 1_555
C5F C10F 1_555 1_555
C4F C5F 1_555 1_555
C3F C4F 1_555 1_555
C2F C3F 1_555 1_555
S1F C2F 1_555 1_555
Cd1F S1F 1_555 1_555
N1F C3F 1_555 1_555
C7F N1F 1_555 1_555
C6F C5F 1_555 1_555
H7F C6F 1_555 1_555
C8F C7F 1_555 1_555
S2F Cd1F 1_555 1_555
C9F S2F 1_555 1_555
H10F C9F 1_555 1_555
H11F C9F 1_555 1_555
H12F C9F 1_555 1_555
H8F C8F 1_555 1_555
H9F C8F 1_555 1_555
C1F S1F 1_555 1_555
H1F C1F 1_555 1_555
H2F C1F 1_555 1_555
H3F C1F 1_555 1_555
H4F C2F 1_555 1_555
H5F C2F 1_555 1_555
H6F C4F 1_555 1_555
C11F C12 1_555 1_555
H13F C11F 1_555 1_555
H14F C12F 1_555 1_555
S1D Cd1D 1_555 1_555
N1D Cd1D 1_555 1_555
S2D Cd1D 1_555 1_555
C3 N1 1_555 1_555
C7 N1 1_555 1_555
C8 S2 1_555 1_555
Cd1D Cl2D 1_555 1_555
C10F C11F 1_555 1_555
Cd1F N1F 1_555 1_555
C7F C6F 1_555 1_555
C8F S2F 1_555 1_555

#END
