
#######################################################################
#
#                 Cambridge Crystallographic Data Centre
#                                CCDC 
#
#######################################################################
#
# If this CIF has been generated from an entry in the Cambridge 
# Structural Database, then it will include bibliographic, chemical, 
# crystal, experimental, refinement or atomic coordinate data resulting 
# from the CCDC's data processing and validation procedures.
#
#######################################################################

data_GUBRUS
_symmetry_cell_setting           monoclinic
_symmetry_space_group_name_H-M   'P 21/c'
_symmetry_Int_Tables_number      14
_space_group_name_Hall           '-P 2ybc'
loop_
_symmetry_equiv_pos_site_id
_symmetry_equiv_pos_as_xyz
1 x,y,z
2 -x,1/2+y,1/2-z
3 -x,-y,-z
4 x,1/2-y,1/2+z
_cell_length_a                   13.3217(2)
_cell_length_b                   11.7975(2)
_cell_length_c                   23.3963(5)
_cell_angle_alpha                90
_cell_angle_beta                 123.480(2)
_cell_angle_gamma                90
_cell_volume                     3066.93
loop_
_atom_site_label
_atom_site_type_symbol
_atom_site_fract_x
_atom_site_fract_y
_atom_site_fract_z
Cd1 Cd 0.57983(3) 0.72421(3) 0.929063(15)
Cd2 Cd 0.93106(3) 0.74785(3) 1.058222(14)
C1 C 0.9061(4) 0.6417(4) 0.9223(2)
H1 H 0.8890 0.5759 0.9373
C2 C 0.9019(4) 0.6375(4) 0.8622(2)
H2 H 0.8826 0.5703 0.8375
C3 C 0.9269(4) 0.7353(3) 0.8388(2)
C4 C 0.9571(4) 0.8324(4) 0.8788(2)
H3 H 0.9758 0.8992 0.8654
C5 C 0.9592(4) 0.8289(4) 0.9383(2)
H4 H 0.9794 0.8946 0.9645
C6 C 0.9227(4) 0.7367(3) 0.7740(2)
C7 C 0.9546(4) 0.6422(4) 0.7516(2)
H5 H 0.9781 0.5754 0.7768
C8 C 0.9508(4) 0.6488(4) 0.6919(2)
H6 H 0.9731 0.5853 0.6779
C9 C 0.8859(4) 0.8329(4) 0.6743(2)
H7 H 0.8625 0.8984 0.6479
C10 C 0.8873(3) 0.8341(3) 0.7336(2)
H8 H 0.8650 0.8990 0.7465
C11 C 0.5703(4) 0.6508(4) 1.0586(2)
H9 H 0.5595 0.5804 1.0381
C12 C 0.5736(4) 0.6568(4) 1.1184(2)
H10 H 0.5651 0.5913 1.1376
C13 C 0.5898(4) 0.7610(4) 1.1500(2)
C14 C 0.6006(4) 0.8561(4) 1.1186(2)
H11 H 0.6105 0.9277 1.1377
C15 C 0.5965(4) 0.8425(4) 1.0590(2)
H12 H 0.6042 0.9066 1.0386
C16 C 0.5939(4) 0.7696(4) 1.2148(2)
C17 C 0.6312(4) 0.6770(4) 1.2595(2)
H13 H 0.6558 0.6102 1.2498
C18 C 0.6308(4) 0.6862(4) 1.3179(2)
H14 H 0.6566 0.6243 1.3474
C19 C 0.5611(4) 0.8683(4) 1.2927(2)
H15 H 0.5372 0.9339 1.3041
C20 C 0.5594(4) 0.8676(4) 1.2330(2)
H16 H 0.5355 0.9317 1.2053
N1 N 0.9335(3) 0.7354(3) 0.96024(18)
N2 N 0.9166(3) 0.7417(3) 0.65276(17)
N3 N 0.5819(3) 0.7419(3) 1.02870(18)
N4 N 0.5955(3) 0.7793(3) 1.33469(18)
N5 N 1.1745(4) 0.6987(3) 1.13841(19)
N6 N 0.7896(4) 0.9429(4) 1.0006(2)
N7 N 0.3459(4) 0.8034(4) 0.8543(2)
N8 N 0.7245(4) 0.5191(4) 0.9901(2)
O1 O 0.8986(3) 0.9477(3) 1.04751(14)
O2 O 0.7375(3) 0.8471(3) 0.97824(17)
O3 O 0.4355(3) 0.8744(3) 0.88054(19)
O4 O 0.3689(3) 0.6989(3) 0.85972(17)
O5 O 0.6163(3) 0.5361(3) 0.94207(16)
O6 O 0.7987(4) 0.5955(4) 1.0221(2)
O7 O 1.0936(3) 0.6218(3) 1.11247(17)
O8 O 1.1410(3) 0.8025(3) 1.12823(17)
O9 O 0.7189(6) 1.0512(5) 0.9689(3)
O10 O 0.2201(5) 0.8481(6) 0.8148(4)
O11 O 0.7647(6) 0.3960(6) 1.0107(4)
O12 O 1.3042(5) 0.6673(6) 1.1799(3)
Cd1C Cd 0.57983(3) 0.77579(3) 1.429063(15)
Cd2C Cd 0.93106(3) 0.75215(3) 0.558222(14)
N2C N 0.9166(3) 0.7583(3) 1.15276(17)
N4C N 0.5955(3) 0.7207(3) 0.83469(18)
O13 O 0.2410(3) 0.5549(3) 0.74430(17)
H17 H 0.2795 0.5947 0.7806
H18 H 0.2136 0.5976 0.7095
loop_
_geom_bond_atom_site_label_1
_geom_bond_atom_site_label_2
_geom_bond_site_symmetry_1
_geom_bond_site_symmetry_2
Cd1 N3 1_555 1_555
Cd2 N1 1_555 1_555
C1 H1 1_555 1_555
C2 C1 1_555 1_555
H2 C2 1_555 1_555
C3 C2 1_555 1_555
C4 C3 1_555 1_555
H3 C4 1_555 1_555
C5 C4 1_555 1_555
H4 C5 1_555 1_555
C6 C3 1_555 1_555
C7 C6 1_555 1_555
H5 C7 1_555 1_555
C8 C7 1_555 1_555
H6 C8 1_555 1_555
C9 H7 1_555 1_555
C10 C6 1_555 1_555
H8 C10 1_555 1_555
C11 H9 1_555 1_555
C12 C11 1_555 1_555
H10 C12 1_555 1_555
C13 C12 1_555 1_555
C14 C13 1_555 1_555
H11 C14 1_555 1_555
C15 C14 1_555 1_555
H12 C15 1_555 1_555
C16 C13 1_555 1_555
C17 C16 1_555 1_555
H13 C17 1_555 1_555
C18 C17 1_555 1_555
H14 C18 1_555 1_555
C19 H15 1_555 1_555
C20 C16 1_555 1_555
H16 C20 1_555 1_555
N1 C1 1_555 1_555
N2 C8 1_555 1_555
N3 C11 1_555 1_555
N4 C18 1_555 1_555
N5 O7 1_555 1_555
N6 O1 1_555 1_555
N7 O3 1_555 1_555
N8 O5 1_555 1_555
O1 Cd2 1_555 1_555
O2 Cd1 1_555 1_555
O3 Cd1 1_555 1_555
O4 Cd1 1_555 1_555
O5 Cd1 1_555 1_555
O6 Cd2 1_555 1_555
O7 Cd2 1_555 1_555
O8 Cd2 1_555 1_555
O9 N6 1_555 1_555
O10 N7 1_555 1_555
O11 N8 1_555 1_555
O12 N5 1_555 1_555
O13 H17 1_555 1_555
H18 O13 1_555 1_555
Cd1C N4 1_555 1_555
Cd2C N2 1_555 1_555
N2C Cd2 1_555 1_555
N4C Cd1 1_555 1_555
Cd2 O2 1_555 1_555
C5 N1 1_555 1_555
C9 C10 1_555 1_555
C9 N2 1_555 1_555
C15 N3 1_555 1_555
C19 C20 1_555 1_555
C19 N4 1_555 1_555
N5 O8 1_555 1_555
N6 O2 1_555 1_555
N7 O4 1_555 1_555
N8 O6 1_555 1_555

#END
