
#######################################################################
#
#                 Cambridge Crystallographic Data Centre
#                                CCDC 
#
#######################################################################
#
# If this CIF has been generated from an entry in the Cambridge 
# Structural Database, then it will include bibliographic, chemical, 
# crystal, experimental, refinement or atomic coordinate data resulting 
# from the CCDC's data processing and validation procedures.
#
#######################################################################

data_GUBSAZ
_symmetry_cell_setting           monoclinic
_symmetry_space_group_name_H-M   'C 2/c'
_symmetry_Int_Tables_number      15
_space_group_name_Hall           '-C 2yn'
loop_
_symmetry_equiv_pos_site_id
_symmetry_equiv_pos_as_xyz
1 x,y,z
2 -x,y,1/2-z
3 1/2+x,1/2+y,z
4 1/2-x,1/2+y,1/2-z
5 -x,-y,-z
6 x,-y,1/2+z
7 1/2-x,1/2-y,-z
8 1/2+x,1/2-y,1/2+z
_cell_length_a                   21.032(2)
_cell_length_b                   7.9734(8)
_cell_length_c                   12.5404(13)
_cell_angle_alpha                90
_cell_angle_beta                 110.1920(10)
_cell_angle_gamma                90
_cell_volume                     1973.74
loop_
_atom_site_label
_atom_site_type_symbol
_atom_site_fract_x
_atom_site_fract_y
_atom_site_fract_z
Cd1 Cd 0.340021(10) 0.11034(2) 0.720920(17)
O1 O 0.43078(12) 0.2934(3) 0.8170(2)
O2 O 0.33072(11) 0.4028(2) 0.72915(19)
C1 C 0.39331(15) 0.4177(3) 0.7852(2)
O3 O 0.25590(12) -0.1067(3) 0.6043(2)
O4 O 0.22426(12) 0.1494(3) 0.5971(2)
N1 N 0.20961(13) 0.0004(4) 0.5659(2)
C2 C 0.42337(15) 0.5894(3) 0.8145(2)
C3 C 0.47347(15) 0.9068(4) 0.8596(3)
H1 H 0.4907 1.0150 0.8751
C4 C 0.38397(14) 0.7301(3) 0.7743(3)
H2 H 0.3386 0.7149 0.7306
C5 C 0.49104(16) 0.6123(3) 0.8798(3)
H3 H 0.5192 0.5204 0.9072
C6 C 0.51599(15) 0.7738(4) 0.9035(2)
H4 H 0.5609 0.7921 0.9485
N2 N 0.40765(12) 0.8868(3) 0.7949(2)
O5 O 0.29007(11) 0.0702(3) 0.86376(18)
H5 H 0.2824 0.1664 0.8889
H6 H 0.3171 0.0134 0.9201
O6 O 0.37063(13) 0.1249(3) 0.5588(2)
H7 H 0.4139 0.1262 0.5778
H8 H 0.3544 0.2148 0.5220
O7 O 0.15320(12) -0.0371(4) 0.5022(2)
Cd1_2 Cd 0.340021(10) 1.11034(2) 0.720920(17)
N2_2 N 0.40765(12) -0.1132(3) 0.7949(2)
loop_
_geom_bond_atom_site_label_1
_geom_bond_atom_site_label_2
_geom_bond_site_symmetry_1
_geom_bond_site_symmetry_2
Cd1 O1 1_555 1_555
O1 C1 1_555 1_555
O2 Cd1 1_555 1_555
C1 O2 1_555 1_555
O3 Cd1 1_555 1_555
O4 Cd1 1_555 1_555
N1 O3 1_555 1_555
C2 C1 1_555 1_555
C3 H1 1_555 1_555
C4 C2 1_555 1_555
H2 C4 1_555 1_555
C5 C2 1_555 1_555
H3 C5 1_555 1_555
C6 C3 1_555 1_555
H4 C6 1_555 1_555
N2 C3 1_555 1_555
O5 Cd1 1_555 1_555
H5 O5 1_555 1_555
H6 O5 1_555 1_555
O6 Cd1 1_555 1_555
H7 O6 1_555 1_555
H8 O6 1_555 1_555
O7 N1 1_555 1_555
Cd1_2 N2 1_555 1_555
N2_2 Cd1 1_555 1_555
O4 N1 1_555 1_555
C4 N2 1_555 1_555
C5 C6 1_555 1_555

#END
