
#######################################################################
#
#                 Cambridge Crystallographic Data Centre
#                                CCDC 
#
#######################################################################
#
# If this CIF has been generated from an entry in the Cambridge 
# Structural Database, then it will include bibliographic, chemical, 
# crystal, experimental, refinement or atomic coordinate data resulting 
# from the CCDC's data processing and validation procedures.
#
#######################################################################

data_GUBXOR
_symmetry_cell_setting           monoclinic
_symmetry_space_group_name_H-M   'P 21/c'
_symmetry_Int_Tables_number      14
_space_group_name_Hall           '-P 2ybc'
loop_
_symmetry_equiv_pos_site_id
_symmetry_equiv_pos_as_xyz
1 x,y,z
2 -x,1/2+y,1/2-z
3 -x,-y,-z
4 x,1/2-y,1/2+z
_cell_length_a                   4.3552(1)
_cell_length_b                   19.5739(6)
_cell_length_c                   18.4288(6)
_cell_angle_alpha                90
_cell_angle_beta                 95.12(2)
_cell_angle_gamma                90
_cell_volume                     1564.75
loop_
_atom_site_label
_atom_site_type_symbol
_atom_site_fract_x
_atom_site_fract_y
_atom_site_fract_z
Ag1 Ag 0.50934(5) 0.713243(11) 0.258907(12)
S1 S 0.91759(16) 0.80943(3) 0.25811(3)
O1 O 0.2050(4) 0.99152(9) 0.34612(9)
O2 O 0.4262(5) 0.71273(10) 0.37931(11)
O3 O 0.0609(6) 0.64161(11) 0.33542(11)
N1 N 0.2260(5) 1.02805(11) 0.22807(11)
N2 N -0.0809(6) 1.08331(12) 0.30139(13)
N3 N -0.3820(5) 1.16370(11) 0.35008(12)
C1 C 0.9052(7) 0.83655(15) 0.35162(15)
C2 C 0.7447(6) 0.87982(12) 0.20863(13)
C3 C 0.5525(6) 0.92486(14) 0.24058(13)
C4 C 0.4245(6) 0.98003(13) 0.20053(13)
C5 C 0.4918(6) 0.98844(14) 0.12804(14)
C6 C 0.6806(6) 0.94266(15) 0.09677(14)
C7 C 0.8113(6) 0.88747(14) 0.13654(14)
C8 C 0.1243(6) 1.03060(12) 0.29622(13)
C9 C -0.2172(6) 1.10574(13) 0.36137(13)
C10 C -0.1960(7) 1.07251(14) 0.42934(14)
C11 C -0.3349(7) 1.10157(16) 0.48569(15)
C12 C -0.4930(7) 1.16236(16) 0.47523(15)
C13 C -0.5139(8) 1.19117(16) 0.40713(16)
C14 C 0.2132(6) 0.67133(13) 0.38739(14)
C15 C 0.1223(8) 0.65830(19) 0.46348(16)
H1 H 0.150(8) 1.0585(18) 0.1983(19)
H2 H -0.126(8) 1.0995(17) 0.2716(18)
H3 H 0.700(9) 0.8314(17) 0.3661(19)
H4 H 0.984(8) 0.8796(19) 0.3600(19)
H5 H 1.062(8) 0.806(2) 0.384(2)
H6 H 0.503(6) 0.9176(15) 0.2826(17)
H7 H 0.422(7) 1.0259(17) 0.1053(18)
H8 H 0.736(9) 0.9520(19) 0.046(2)
H9 H 0.967(7) 0.8557(17) 0.1158(17)
H10 H -0.090(7) 1.0376(16) 0.4328(16)
H11 H -0.329(8) 1.0762(19) 0.528(2)
H12 H -0.592(8) 1.1853(18) 0.5079(19)
H13 H -0.608(8) 1.2330(19) 0.401(2)
H14 H 0.252(10) 0.685(2) 0.499(2)
H15 H -0.089(11) 0.673(2) 0.462(2)
H16 H 0.123(11) 0.614(3) 0.468(3)
Ag1A Ag -0.50934(5) 1.213243(11) 0.241093(12)
N3A N 0.3820(5) 0.66370(11) 0.14992(12)
loop_
_geom_bond_atom_site_label_1
_geom_bond_atom_site_label_2
_geom_bond_site_symmetry_1
_geom_bond_site_symmetry_2
Ag1 S1 1_555 1_555
S1 C1 1_555 1_555
O1 C8 1_555 1_555
O2 Ag1 1_555 1_555
O3 C14 1_555 1_555
N1 C4 1_555 1_555
N2 C8 1_555 1_555
N3 C9 1_555 1_555
C1 H3 1_555 1_555
C2 S1 1_555 1_555
C3 C2 1_555 1_555
C4 C3 1_555 1_555
C5 C4 1_555 1_555
C6 C5 1_555 1_555
C7 C2 1_555 1_555
C8 N1 1_555 1_555
C9 N2 1_555 1_555
C10 C9 1_555 1_555
C11 C10 1_555 1_555
C12 C11 1_555 1_555
C13 N3 1_555 1_555
C14 O2 1_555 1_555
C15 C14 1_555 1_555
H1 N1 1_555 1_555
H2 N2 1_555 1_555
H4 C1 1_555 1_555
H5 C1 1_555 1_555
H6 C3 1_555 1_555
H7 C5 1_555 1_555
H8 C6 1_555 1_555
H9 C7 1_555 1_555
H10 C10 1_555 1_555
H11 C11 1_555 1_555
H12 C12 1_555 1_555
H13 C13 1_555 1_555
H14 C15 1_555 1_555
H15 C15 1_555 1_555
H16 C15 1_555 1_555
Ag1A N3 1_555 1_555
N3A Ag1 1_555 1_555
C6 C7 1_555 1_555
C12 C13 1_555 1_555

#END
