
#######################################################################
#
#                 Cambridge Crystallographic Data Centre
#                                CCDC 
#
#######################################################################
#
# If this CIF has been generated from an entry in the Cambridge 
# Structural Database, then it will include bibliographic, chemical, 
# crystal, experimental, refinement or atomic coordinate data resulting 
# from the CCDC's data processing and validation procedures.
#
#######################################################################

data_GUBZUZ
_symmetry_cell_setting           triclinic
_symmetry_space_group_name_H-M   'P -1'
_symmetry_Int_Tables_number      2
_space_group_name_Hall           '-P 1'
loop_
_symmetry_equiv_pos_site_id
_symmetry_equiv_pos_as_xyz
1 x,y,z
2 -x,-y,-z
_cell_length_a                   10.190(2)
_cell_length_b                   13.450(3)
_cell_length_c                   14.880(3)
_cell_angle_alpha                105.82(3)
_cell_angle_beta                 90.50(3)
_cell_angle_gamma                109.19(3)
_cell_volume                     1842.23
loop_
_atom_site_label
_atom_site_type_symbol
_atom_site_fract_x
_atom_site_fract_y
_atom_site_fract_z
O6 O 0.0404(19) 0.6012(18) 0.1655(14)
O8 O 0.121(3) 0.316(3) -0.021(2)
O10 O 0.643(4) 0.551(3) 0.050(2)
Mo1 Mo 0.52480(19) 0.11938(14) 0.24455(11)
Mo2 Mo 0.61483(19) -0.22236(14) -0.08572(12)
Mo3 Mo 0.80676(19) 0.03657(15) -0.11534(12)
Mo4 Mo 0.58940(19) -0.12852(15) 0.15753(13)
Mo5 Mo 0.2826(2) -0.26677(14) -0.00500(12)
Mo6 Mo 0.82870(19) 0.11678(15) 0.13219(13)
Co1 Co 0.6447(3) -0.4902(2) -0.24255(18)
Si1 Si 0.5000 0.0000 0.0000
N1 N 0.7037(17) -0.4007(13) -0.3424(11)
N2 N 0.7611(19) -0.2660(14) -0.4064(12)
N3 N 0.705(2) -0.3628(15) -0.4804(13)
N4 N 1.360(2) -0.1877(14) -0.6251(12)
N5 N 1.464(2) -0.1839(16) -0.5656(12)
N6 N 1.372(2) -0.3519(14) -0.6733(12)
N7 N 0.4290(16) -0.5185(13) -0.2795(11)
N8 N 0.2004(19) -0.5740(16) -0.2691(14)
N9 N 0.2431(16) -0.4812(12) -0.2995(11)
O1 O 0.588(2) -0.5571(13) -0.1308(11)
O2 O 0.583(3) 0.024(2) 0.1011(17)
O3 O 0.8539(16) -0.4435(13) -0.1836(12)
O4 O 0.500(2) -0.1194(19) 0.0103(16)
O5 O 0.668(2) 0.0782(17) 0.0031(16)
O7 O 0.426(3) 0.0559(19) 0.0832(17)
O9 O 0.182(3) -0.2482(17) -0.0955(12)
O11 O 0.9498(17) 0.0484(16) -0.1654(13)
O12 O 0.7680(19) -0.0157(14) 0.1567(18)
O13 O 0.6543(18) -0.206(2) 0.0368(12)
O14 O 0.4193(18) -0.300(2) -0.0749(11)
O15 O 0.5312(19) 0.1693(12) 0.3591(10)
O16 O 0.4764(19) 0.2193(14) 0.2026(15)
O17 O 0.806(3) 0.1766(16) -0.0909(12)
O18 O 0.6424(18) -0.1895(13) 0.2269(10)
O19 O 0.766(2) -0.1121(14) -0.0988(14)
O20 O 0.9822(16) 0.1860(12) 0.1988(11)
O21 O 0.1792(19) -0.3907(13) 0.0020(13)
O22 O 0.4153(18) -0.227(2) 0.1100(11)
O23 O 0.711(2) 0.1646(13) 0.228(2)
O24 O 0.879(3) 0.0732(16) 0.0169(11)
O25 O 0.6548(16) -0.3361(11) -0.1392(11)
O26 O 0.539(2) -0.0258(13) 0.2421(18)
O27 O 0.3213(19) 0.0244(14) 0.2154(16)
C1 C 0.7610(19) -0.2940(15) -0.3264(13)
H1 H 0.7968 -0.2443 -0.2675
C2 C 0.678(3) -0.4369(16) -0.4380(16)
H2 H 0.6438 -0.5115 -0.4706
C3 C 0.811(2) -0.1574(16) -0.4177(17)
H3 H 0.7377 -0.1463 -0.4514
H4 H 0.8345 -0.1032 -0.3563
C4 C 0.938(2) -0.1407(14) -0.4705(13)
C5 C 1.071(3) -0.1085(18) -0.4189(17)
H5 H 1.0776 -0.0973 -0.3543
C6 C 1.194(3) -0.094(2) -0.4672(17)
H6 H 1.2813 -0.0761 -0.4348
C7 C 1.182(2) -0.1056(16) -0.5631(14)
C8 C 1.046(3) -0.1421(18) -0.6109(15)
H7 H 1.0353 -0.1581 -0.6760
C9 C 0.935(2) -0.1538(17) -0.5652(16)
H8 H 0.8487 -0.1720 -0.5992
C10 C 1.308(2) -0.2861(18) -0.6878(15)
H9 H 1.2370 -0.3057 -0.7355
C11 C 1.469(3) -0.2844(17) -0.6014(14)
H10 H 1.5363 -0.3068 -0.5782
C12 C 0.375(2) -0.4526(15) -0.3047(13)
H11 H 0.4259 -0.3922 -0.3239
C13 C 0.320(3) -0.5899(19) -0.2594(16)
H12 H 0.3269 -0.6482 -0.2396
C14 C 0.143(2) -0.4275(18) -0.3108(16)
H13 H 0.0720 -0.4423 -0.2683
H14 H 0.1909 -0.3486 -0.2933
C15 C 0.071(2) -0.4660(17) -0.4114(15)
C16 C 0.083(2) -0.3921(17) -0.4584(17)
H15 H 0.1358 -0.3186 -0.4297
C17 C -0.016(3) -0.5766(19) -0.4490(18)
H16 H -0.0296 -0.6269 -0.4148
C18 C 1.311(3) -0.0939(19) -0.6125(18)
H17 H 1.3848 -0.0272 -0.5769
H18 H 1.2922 -0.0859 -0.6737
Mo1A Mo 0.47520(19) -0.11938(14) -0.24455(11)
Mo2A Mo 0.38517(19) 0.22236(14) 0.08572(12)
Mo3A Mo 0.19324(19) -0.03657(15) 0.11534(12)
Mo4A Mo 0.41060(19) 0.12852(15) -0.15753(13)
Mo5A Mo 0.7174(2) 0.26677(14) 0.00500(12)
Mo6A Mo 0.17130(19) -0.11678(15) -0.13219(13)
Co1A Co 0.3553(3) 0.4902(2) 0.24255(18)
Co1A_2 Co 1.3553(3) -0.5098(2) -0.75745(18)
Co1A_3 Co -0.6447(3) -0.5098(2) -0.75745(18)
N1A N 1.2963(17) -0.5993(13) -0.6576(11)
N1A_2 N 0.2963(17) 0.4007(13) 0.3424(11)
N2A N 1.2389(19) -0.7340(14) -0.5936(12)
N3A N 1.295(2) -0.6372(15) -0.5196(13)
N4A N 0.640(2) -0.8123(14) -0.3749(12)
N5A N 0.536(2) -0.8161(16) -0.4344(12)
N6A N 0.628(2) -0.6481(14) -0.3267(12)
N6_2 N 0.372(2) 0.6481(14) 0.3267(12)
N7A N -0.4290(16) -0.4815(13) -0.7205(11)
N7A_2 N 0.5710(16) 0.5185(13) 0.2795(11)
N8A N -0.2004(19) -0.4260(16) -0.7309(14)
N9A N -0.2431(16) -0.5188(12) -0.7005(11)
O1A O 0.412(2) 0.5571(13) 0.1308(11)
O2A O 0.417(3) -0.024(2) -0.1011(17)
O3A O 0.1461(16) 0.4435(13) 0.1836(12)
O4A O 0.500(2) 0.1194(19) -0.0103(16)
O5A O 0.332(2) -0.0782(17) -0.0031(16)
O7A O 0.574(3) -0.0559(19) -0.0832(17)
O9A O 0.818(3) 0.2482(17) 0.0955(12)
O11A O 0.0502(17) -0.0484(16) 0.1654(13)
O12A O 0.2320(19) 0.0157(14) -0.1567(18)
O13A O 0.3457(18) 0.206(2) -0.0368(12)
O14A O 0.5807(18) 0.300(2) 0.0749(11)
O15A O 0.4688(19) -0.1693(12) -0.3591(10)
O16A O 0.5236(19) -0.2193(14) -0.2026(15)
O17A O 0.194(3) -0.1766(16) 0.0909(12)
O18A O 0.3576(18) 0.1895(13) -0.2269(10)
O19A O 0.234(2) 0.1121(14) 0.0988(14)
O20A O 0.0178(16) -0.1860(12) -0.1988(11)
O21A O 0.8208(19) 0.3907(13) -0.0020(13)
O22A O 0.5847(18) 0.227(2) -0.1100(11)
O23A O 0.289(2) -0.1646(13) -0.228(2)
O24A O 0.121(3) -0.0732(16) -0.0169(11)
O25A O 0.3452(16) 0.3361(11) 0.1392(11)
O26A O 0.461(2) 0.0258(13) -0.2421(18)
O27A O 0.6787(19) -0.0244(14) -0.2154(16)
C1A C 1.2390(19) -0.7060(15) -0.6736(13)
H1A H 1.2032 -0.7557 -0.7325
C2A C 1.322(3) -0.5631(16) -0.5620(16)
H2A H 1.3562 -0.4885 -0.5294
C3A C 1.189(2) -0.8426(16) -0.5823(17)
H3A H 1.2623 -0.8537 -0.5486
H4A H 1.1655 -0.8968 -0.6437
C4A C 1.062(2) -0.8593(14) -0.5295(13)
C5A C 0.929(3) -0.8915(18) -0.5811(17)
H5A H 0.9224 -0.9027 -0.6457
C6A C 0.806(3) -0.906(2) -0.5328(17)
H6A H 0.7187 -0.9239 -0.5652
C7A C 0.818(2) -0.8944(16) -0.4369(14)
C8A C 0.954(3) -0.8579(18) -0.3891(15)
H7A H 0.9647 -0.8419 -0.3240
C9A C 1.065(2) -0.8462(17) -0.4348(16)
H8A H 1.1513 -0.8280 -0.4008
C10A C 0.692(2) -0.7139(18) -0.3122(15)
H9A H 0.7630 -0.6943 -0.2645
C11A C 0.531(3) -0.7156(17) -0.3986(14)
H10A H 0.4637 -0.6932 -0.4218
C12A C -0.375(2) -0.5474(15) -0.6953(13)
H11A H -0.4259 -0.6078 -0.6761
C13A C -0.320(3) -0.4101(19) -0.7406(16)
H12A H -0.3269 -0.3518 -0.7604
C14A C -0.143(2) -0.5725(18) -0.6892(16)
H13A H -0.0720 -0.5577 -0.7317
H14A H -0.1909 -0.6514 -0.7067
C15A C -0.071(2) -0.5340(17) -0.5886(15)
C16A C -0.083(2) -0.6079(17) -0.5416(17)
H15A H -0.1358 -0.6814 -0.5703
C17A C 0.016(3) -0.4234(19) -0.5510(18)
H16A H 0.0296 -0.3731 -0.5852
C18A C 0.689(3) -0.9061(19) -0.3875(18)
H17A H 0.6152 -0.9728 -0.4231
H18A H 0.7078 -0.9141 -0.3263
loop_
_geom_bond_atom_site_label_1
_geom_bond_atom_site_label_2
_geom_bond_site_symmetry_1
_geom_bond_site_symmetry_2
Mo1 O2 1_555 1_555
Mo2 O4 1_555 1_555
Mo3 O5 1_555 1_555
Mo4 O2 1_555 1_555
Mo5 O4 1_555 1_555
Mo6 O2 1_555 1_555
Co1 N1 1_555 1_555
Si1 O2 1_555 1_555
N1 C1 1_555 1_555
N2 N3 1_555 1_555
N3 C2 1_555 1_555
N4 N5 1_555 1_555
N5 C11 1_555 1_555
N6 C10 1_555 1_555
N7 Co1 1_555 1_555
N8 N9 1_555 1_555
N9 C12 1_555 1_555
O1 Co1 1_555 1_555
O3 Co1 1_555 1_555
O4 Mo4 1_555 1_555
O5 Mo6 1_555 1_555
O7 Mo1 1_555 1_555
O9 Mo5 1_555 1_555
O11 Mo3 1_555 1_555
O12 Mo4 1_555 1_555
O13 Mo2 1_555 1_555
O14 Mo2 1_555 1_555
O15 Mo1 1_555 1_555
O16 Mo1 1_555 1_555
O17 Mo3 1_555 1_555
O18 Mo4 1_555 1_555
O19 Mo2 1_555 1_555
O20 Mo6 1_555 1_555
O21 Mo5 1_555 1_555
O22 Mo4 1_555 1_555
O23 Mo1 1_555 1_555
O24 Mo3 1_555 1_555
O25 Mo2 1_555 1_555
O26 Mo1 1_555 1_555
O27 Mo1 1_555 1_555
C1 N2 1_555 1_555
H1 C1 1_555 1_555
C2 N1 1_555 1_555
H2 C2 1_555 1_555
C3 N2 1_555 1_555
H3 C3 1_555 1_555
H4 C3 1_555 1_555
C4 C3 1_555 1_555
C5 C4 1_555 1_555
H5 C5 1_555 1_555
C6 C5 1_555 1_555
H6 C6 1_555 1_555
C7 C6 1_555 1_555
C8 C7 1_555 1_555
H7 C8 1_555 1_555
C9 C4 1_555 1_555
H8 C9 1_555 1_555
C10 N4 1_555 1_555
H9 C10 1_555 1_555
C11 N6 1_555 1_555
H10 C11 1_555 1_555
C12 N7 1_555 1_555
H11 C12 1_555 1_555
C13 N7 1_555 1_555
H12 C13 1_555 1_555
C14 N9 1_555 1_555
H13 C14 1_555 1_555
H14 C14 1_555 1_555
C15 C14 1_555 1_555
C16 C15 1_555 1_555
H15 C16 1_555 1_555
C17 C15 1_555 1_555
H16 C17 1_555 1_555
C18 N4 1_555 1_555
H17 C18 1_555 1_555
H18 C18 1_555 1_555
Mo1A O2A 1_555 1_555
Mo2A O7 1_555 1_555
Mo3A O7 1_555 1_555
Mo4A O2A 1_555 1_555
Mo5A O5 1_555 1_555
Mo6A O9 1_555 1_555
Co1A N1A_2 1_555 1_555
Co1A_2 N6 1_555 1_555
Co1A_3 N7A 1_555 1_555
N1A Co1A_2 1_555 1_555
N2A N3A 1_555 1_555
N3A C2A 1_555 1_555
N4A N5A 1_555 1_555
N5A C11A 1_555 1_555
N6A Co1 1_555 1_555
N6_2 Co1A 1_555 1_555
N7A C12A 1_555 1_555
N7A_2 Co1A 1_555 1_555
N8A N9A 1_555 1_555
N9A C12A 1_555 1_555
O1A Co1A 1_555 1_555
O2A Si1 1_555 1_555
O3A Co1A 1_555 1_555
O4A Si1 1_555 1_555
O5A Mo5 1_555 1_555
O7A Mo2 1_555 1_555
O9A Mo6 1_555 1_555
O11A Mo3A 1_555 1_555
O12A Mo4A 1_555 1_555
O13A Mo2A 1_555 1_555
O14A Mo2A 1_555 1_555
O15A Mo1A 1_555 1_555
O16A Mo2 1_555 1_555
O17A Mo5 1_555 1_555
O18A Mo4A 1_555 1_555
O19A Mo2A 1_555 1_555
O20A Mo6A 1_555 1_555
O21A Mo5A 1_555 1_555
O22A Mo4A 1_555 1_555
O23A Mo1A 1_555 1_555
O24A Mo3A 1_555 1_555
O25A Mo2A 1_555 1_555
O26A Mo1A 1_555 1_555
O27A Mo3 1_555 1_555
C1A N1A 1_555 1_555
H1A C1A 1_555 1_555
C2A N1A 1_555 1_555
H2A C2A 1_555 1_555
C3A N2A 1_555 1_555
H3A C3A 1_555 1_555
H4A C3A 1_555 1_555
C4A C3A 1_555 1_555
C5A C4A 1_555 1_555
H5A C5A 1_555 1_555
C6A C5A 1_555 1_555
H6A C6A 1_555 1_555
C7A C6A 1_555 1_555
C8A C7A 1_555 1_555
H7A C8A 1_555 1_555
C9A C4A 1_555 1_555
H8A C9A 1_555 1_555
C10A N4A 1_555 1_555
H9A C10A 1_555 1_555
C11A N6A 1_555 1_555
H10A C11A 1_555 1_555
C12A H11A 1_555 1_555
C13A N7A 1_555 1_555
H12A C13A 1_555 1_555
C14A N9A 1_555 1_555
H13A C14A 1_555 1_555
H14A C14A 1_555 1_555
C15A C14A 1_555 1_555
C16A C17 1_555 1_555
H15A C16A 1_555 1_555
C17A C16 1_555 1_555
H16A C17A 1_555 1_555
C18A N4A 1_555 1_555
H17A C18A 1_555 1_555
H18A C18A 1_555 1_555
Mo3 O19 1_555 1_555
Mo3 O7A 1_555 1_555
Mo4 O13 1_555 1_555
Mo4 O26 1_555 1_555
Mo5 O14 1_555 1_555
Mo5 O22 1_555 1_555
Mo6 O12 1_555 1_555
Mo6 O23 1_555 1_555
Mo6 O24 1_555 1_555
Co1 O25 1_555 1_555
Si1 O4 1_555 1_555
Si1 O5 1_555 1_555
Si1 O7 1_555 1_555
Si1 O5A 1_555 1_555
Si1 O7A 1_555 1_555
N8 C13 1_555 1_555
O16 Mo2A 1_555 1_555
O17 Mo5A 1_555 1_555
O27 Mo3A 1_555 1_555
C7 C18 1_555 1_555
C8 C9 1_555 1_555
Mo1A O7A 1_555 1_555
Mo1A O16A 1_555 1_555
Mo1A O27A 1_555 1_555
Mo2A O4A 1_555 1_555
Mo3A O5A 1_555 1_555
Mo3A O17A 1_555 1_555
Mo3A O19A 1_555 1_555
Mo4A O4A 1_555 1_555
Mo4A O13A 1_555 1_555
Mo4A O26A 1_555 1_555
Mo5A O4A 1_555 1_555
Mo5A O9A 1_555 1_555
Mo5A O14A 1_555 1_555
Mo5A O22A 1_555 1_555
Mo6A O2A 1_555 1_555
Mo6A O5A 1_555 1_555
Mo6A O12A 1_555 1_555
Mo6A O23A 1_555 1_555
Mo6A O24A 1_555 1_555
Co1A O25A 1_555 1_555
N2A C1A 1_555 1_555
N6A C10A 1_555 1_555
N8A C13A 1_555 1_555
C7A C18A 1_555 1_555
C8A C9A 1_555 1_555
C15A C16A 1_555 1_555
C15A C17A 1_555 1_555

#END
