
#######################################################################
#
#                 Cambridge Crystallographic Data Centre
#                                CCDC 
#
#######################################################################
#
# If this CIF has been generated from an entry in the Cambridge 
# Structural Database, then it will include bibliographic, chemical, 
# crystal, experimental, refinement or atomic coordinate data resulting 
# from the CCDC's data processing and validation procedures.
#
#######################################################################

data_GUBZOT
_symmetry_cell_setting           triclinic
_symmetry_space_group_name_H-M   'P -1'
_symmetry_Int_Tables_number      2
_space_group_name_Hall           '-P 1'
loop_
_symmetry_equiv_pos_site_id
_symmetry_equiv_pos_as_xyz
1 x,y,z
2 -x,-y,-z
_cell_length_a                   10.200(2)
_cell_length_b                   13.462(3)
_cell_length_c                   14.900(3)
_cell_angle_alpha                105.76(3)
_cell_angle_beta                 90.60(3)
_cell_angle_gamma                110.20(3)
_cell_volume                     1835.58
loop_
_atom_site_label
_atom_site_type_symbol
_atom_site_fract_x
_atom_site_fract_y
_atom_site_fract_z
O6 O -0.465(3) 0.093(2) -0.335(2)
O8 O -0.369(3) -0.172(4) -0.518(2)
O10 O -0.137(4) -0.053(4) -0.551(3)
Si1 Si 0.0000 -0.5000 -0.5000
Mo1 Mo -0.0256(2) -0.62031(16) -0.74607(13)
Mo2 Mo -0.3309(2) -0.62122(17) -0.63342(15)
Mo3 Mo -0.2205(2) -0.76844(16) -0.50399(15)
Mo4 Mo 0.1122(2) -0.72235(16) -0.58525(13)
Mo5 Mo 0.30893(19) -0.46213(17) -0.61529(14)
Mo6 Mo -0.0905(2) -0.37307(18) -0.65902(14)
Ni1 Ni 0.1401(3) -0.9867(2) -0.74102(19)
O1 O 0.3532(16) -0.9370(13) -0.6835(12)
O2 O -0.082(3) -0.523(3) -0.6012(19)
O3 O 0.089(2) -1.0544(14) -0.6293(12)
O4 O -0.272(2) -0.4910(16) -0.6567(18)
O5 O -0.090(2) -0.801(2) -0.5733(12)
O7 O -0.307(3) -0.6761(17) -0.4090(14)
O9 O 0.268(2) -0.6075(14) -0.5974(15)
O11 O -0.211(2) -0.6676(17) -0.727(2)
O12 O -0.042(2) -0.4756(15) -0.7459(19)
O13 O 0.178(2) -0.5247(14) -0.7170(15)
O14 O -0.172(3) -0.582(2) -0.507(2)
O15 O 0.019(2) -0.7182(14) -0.7023(14)
O16 O 0.154(2) -0.704(2) -0.4638(12)
O17 O 0.4564(19) -0.4448(18) -0.6656(15)
O18 O -0.379(3) -0.5735(16) -0.5158(12)
O19 O -0.325(2) -0.8918(14) -0.4978(15)
O20 O -0.1443(17) -0.3143(14) -0.7278(10)
O21 O -0.029(2) -0.6709(14) -0.8600(11)
O22 O -0.4821(18) -0.6931(16) -0.7000(12)
O23 O 0.1517(16) -0.8343(11) -0.6415(11)
O24 O 0.002(3) -0.379(2) -0.5127(19)
O25 O 0.074(3) -0.556(2) -0.5842(16)
O26 O -0.311(3) -0.7472(17) -0.5915(15)
O27 O -0.0859(18) -0.726(2) -0.3891(11)
N1 N -0.0704(18) -1.0171(14) -0.7773(12)
N2 N -0.303(2) -1.077(2) -0.764(2)
N3 N -0.262(2) -0.9865(15) -0.7977(12)
N4 N 0.1983(18) -0.9018(14) -0.8414(12)
N5 N 0.208(2) -0.8660(18) -0.9823(14)
N6 N 0.258(2) -0.7683(15) -0.9065(12)
N7 N 0.8702(19) -0.8602(16) -1.1782(12)
N8 N 0.966(3) -0.6872(17) -1.0687(15)
N9 N 0.854(2) -0.6973(16) -1.1304(14)
C1 C -0.176(3) -1.086(2) -0.750(2)
H1 H -0.1654 -1.1380 -0.7227
C2 C -0.126(2) -0.9555(18) -0.8042(14)
H2 H -0.0758 -0.8961 -0.8258
C3 C -0.361(3) -0.934(2) -0.8070(18)
H3 H -0.4325 -0.9516 -0.7654
H4 H -0.3123 -0.8544 -0.7875
C4 C -0.434(2) -0.9710(17) -0.9093(16)
C5 C -0.417(3) -0.8927(19) -0.9548(18)
H5 H -0.3599 -0.8196 -0.9249
C6 C -0.514(3) -1.079(2) -0.952(2)
H6 H -0.5243 -1.1334 -0.9225
C7 C 0.256(2) -0.7916(18) -0.8247(15)
H7 H 0.2880 -0.7400 -0.7659
C8 C 0.174(3) -0.9407(18) -0.9370(15)
H8 H 0.1365 -1.0160 -0.9684
C9 C 0.310(3) -0.657(2) -0.9210(19)
H9 H 0.2359 -0.6482 -0.9567
H10 H 0.3331 -0.6001 -0.8608
C10 C 0.440(2) -0.6418(18) -0.9740(15)
C11 C 0.573(3) -0.6090(19) -0.9205(18)
H11 H 0.5803 -0.5952 -0.8556
C12 C 0.693(3) -0.5981(19) -0.9703(17)
H12 H 0.7813 -0.5814 -0.9394
C13 C 0.675(2) -0.6134(17) -1.0674(17)
C14 C 0.555(2) -0.6413(19) -1.1116(17)
H13 H 0.5469 -0.6518 -1.1761
C15 C 0.434(3) -0.6566(19) -1.0647(19)
H14 H 0.3476 -0.6781 -1.0992
C16 C 0.806(3) -0.604(2) -1.122(2)
H15 H 0.7837 -0.6006 -1.1845
H16 H 0.8826 -0.5351 -1.0900
C17 C 0.806(2) -0.795(2) -1.1927(18)
H17 H 0.7360 -0.8156 -1.2417
C18 C 0.970(3) -0.789(2) -1.1000(18)
H18 H 1.0327 -0.8111 -1.0726
Mo1A Mo 0.0256(2) -0.37969(16) -0.25393(13)
Mo2A Mo 0.3309(2) -0.37878(17) -0.36658(15)
Mo3A Mo 0.2205(2) -0.23156(16) -0.49601(15)
Mo4A Mo -0.1122(2) -0.27765(16) -0.41475(13)
Mo5A Mo -0.30893(19) -0.53787(17) -0.38471(14)
Mo6A Mo 0.0905(2) -0.62693(18) -0.34098(14)
Ni1A Ni -0.1401(3) -0.0133(2) -0.25898(19)
Ni1A_2 Ni 0.8599(3) -1.0133(2) -1.25898(19)
Ni1A_3 Ni -1.1401(3) -1.0133(2) -1.25898(19)
O1A O -0.3532(16) -0.0630(13) -0.3165(12)
O2A O 0.082(3) -0.477(3) -0.3988(19)
O3A O -0.089(2) 0.0544(14) -0.3707(12)
O4A O 0.272(2) -0.5090(16) -0.3433(18)
O5A O 0.090(2) -0.199(2) -0.4267(12)
O7A O 0.307(3) -0.3239(17) -0.5910(14)
O9A O -0.268(2) -0.3925(14) -0.4026(15)
O11A O 0.211(2) -0.3324(17) -0.273(2)
O12A O 0.042(2) -0.5244(15) -0.2541(19)
O13A O -0.178(2) -0.4753(14) -0.2830(15)
O14A O 0.172(3) -0.418(2) -0.493(2)
O15A O -0.019(2) -0.2818(14) -0.2977(14)
O16A O -0.154(2) -0.296(2) -0.5362(12)
O17A O -0.4564(19) -0.5552(18) -0.3344(15)
O18A O 0.379(3) -0.4265(16) -0.4842(12)
O19A O 0.325(2) -0.1082(14) -0.5022(15)
O20A O 0.1443(17) -0.6857(14) -0.2722(10)
O21A O 0.029(2) -0.3291(14) -0.1400(11)
O22A O 0.4821(18) -0.3069(16) -0.3000(12)
O23A O -0.1517(16) -0.1657(11) -0.3585(11)
O24A O -0.002(3) -0.621(2) -0.4873(19)
O25A O -0.074(3) -0.444(2) -0.4158(16)
O26A O 0.311(3) -0.2528(17) -0.4085(15)
O27A O 0.0859(18) -0.274(2) -0.6109(11)
N1A N -0.9296(18) -0.9829(14) -1.2227(12)
N1A_2 N 0.0704(18) 0.0171(14) -0.2227(12)
N2A N -0.697(2) -0.923(2) -1.236(2)
N3A N -0.738(2) -1.0135(15) -1.2023(12)
N4A N 0.8017(18) -1.0982(14) -1.1586(12)
N4A_2 N -0.1983(18) -0.0982(14) -0.1586(12)
N5A N 0.792(2) -1.1340(18) -1.0177(14)
N6A N 0.742(2) -1.2317(15) -1.0935(12)
N7A N 0.1298(19) -1.1398(16) -0.8218(12)
N7_2 N -0.1298(19) 0.1398(16) -0.1782(12)
N8A N 0.034(3) -1.3128(17) -0.9313(15)
N9A N 0.146(2) -1.3027(16) -0.8696(14)
C1A C -0.824(3) -0.914(2) -1.250(2)
H1A H -0.8346 -0.8620 -1.2773
C2A C -0.874(2) -1.0445(18) -1.1958(14)
H2A H -0.9242 -1.1039 -1.1742
C3A C -0.639(3) -1.066(2) -1.1930(18)
H3A H -0.5675 -1.0484 -1.2346
H4A H -0.6877 -1.1456 -1.2125
C4A C -0.566(2) -1.0290(17) -1.0907(16)
C5A C -0.583(3) -1.1073(19) -1.0452(18)
H5A H -0.6401 -1.1804 -1.0751
C6A C -0.486(3) -0.921(2) -1.048(2)
H6A H -0.4757 -0.8666 -1.0775
C7A C 0.744(2) -1.2084(18) -1.1753(15)
H7A H 0.7120 -1.2600 -1.2341
C8A C 0.826(3) -1.0593(18) -1.0630(15)
H8A H 0.8635 -0.9840 -1.0316
C9A C 0.690(3) -1.343(2) -1.0790(19)
H9A H 0.7641 -1.3518 -1.0433
H10A H 0.6669 -1.3999 -1.1392
C10A C 0.560(2) -1.3582(18) -1.0260(15)
C11A C 0.427(3) -1.3910(19) -1.0795(18)
H11A H 0.4197 -1.4048 -1.1444
C12A C 0.307(3) -1.4019(19) -1.0297(17)
H12A H 0.2187 -1.4186 -1.0606
C13A C 0.325(2) -1.3866(17) -0.9326(17)
C14A C 0.445(2) -1.3587(19) -0.8884(17)
H13A H 0.4531 -1.3482 -0.8239
C15A C 0.566(3) -1.3434(19) -0.9353(19)
H14A H 0.6524 -1.3219 -0.9008
C16A C 0.194(3) -1.396(2) -0.878(2)
H15A H 0.2163 -1.3994 -0.8155
H16A H 0.1174 -1.4649 -0.9100
C17A C 0.194(2) -1.205(2) -0.8073(18)
H17A H 0.2640 -1.1844 -0.7583
C18A C 0.030(3) -1.211(2) -0.9000(18)
H18A H -0.0327 -1.1889 -0.9274
loop_
_geom_bond_atom_site_label_1
_geom_bond_atom_site_label_2
_geom_bond_site_symmetry_1
_geom_bond_site_symmetry_2
Si1 O2 1_555 1_555
Mo1 O2 1_555 1_555
Mo2 O2 1_555 1_555
Mo3 O5 1_555 1_555
Mo4 O5 1_555 1_555
Mo5 O9 1_555 1_555
Mo6 O2 1_555 1_555
Ni1 O1 1_555 1_555
O3 Ni1 1_555 1_555
O4 Mo2 1_555 1_555
O7 Mo3 1_555 1_555
O9 Mo4 1_555 1_555
O11 Mo1 1_555 1_555
O12 Mo1 1_555 1_555
O13 Mo1 1_555 1_555
O14 Si1 1_555 1_555
O15 Mo1 1_555 1_555
O16 Mo4 1_555 1_555
O17 Mo5 1_555 1_555
O18 Mo2 1_555 1_555
O19 Mo3 1_555 1_555
O20 Mo6 1_555 1_555
O21 Mo1 1_555 1_555
O22 Mo2 1_555 1_555
O23 Mo4 1_555 1_555
O24 Si1 1_555 1_555
O25 Si1 1_555 1_555
O26 Mo2 1_555 1_555
O27 Mo3 1_555 1_555
N1 Ni1 1_555 1_555
N2 N3 1_555 1_555
N3 C2 1_555 1_555
N4 Ni1 1_555 1_555
N5 N6 1_555 1_555
N6 C7 1_555 1_555
N7 C17 1_555 1_555
N8 N9 1_555 1_555
N9 C16 1_555 1_555
C1 N1 1_555 1_555
H1 C1 1_555 1_555
C2 N1 1_555 1_555
H2 C2 1_555 1_555
C3 N3 1_555 1_555
H3 C3 1_555 1_555
H4 C3 1_555 1_555
C4 C3 1_555 1_555
C5 C4 1_555 1_555
H5 C5 1_555 1_555
C6 C4 1_555 1_555
H6 C6 1_555 1_555
C7 N4 1_555 1_555
H7 C7 1_555 1_555
C8 N4 1_555 1_555
H8 C8 1_555 1_555
C9 N6 1_555 1_555
H9 C9 1_555 1_555
H10 C9 1_555 1_555
C10 C9 1_555 1_555
C11 C10 1_555 1_555
H11 C11 1_555 1_555
C12 C11 1_555 1_555
H12 C12 1_555 1_555
C13 C12 1_555 1_555
C14 C13 1_555 1_555
H13 C14 1_555 1_555
C15 C10 1_555 1_555
H14 C15 1_555 1_555
C16 C13 1_555 1_555
H15 C16 1_555 1_555
H16 C16 1_555 1_555
C17 N9 1_555 1_555
H17 C17 1_555 1_555
C18 N7 1_555 1_555
H18 C18 1_555 1_555
Mo1A O2A 1_555 1_555
Mo2A O2A 1_555 1_555
Mo3A O24 1_555 1_555
Mo4A O24 1_555 1_555
Mo5A O7 1_555 1_555
Mo6A O16 1_555 1_555
Ni1A O1A 1_555 1_555
Ni1A_2 N7 1_555 1_555
Ni1A_3 N1A 1_555 1_555
O2A Si1 1_555 1_555
O3A Ni1A 1_555 1_555
O4A Mo2A 1_555 1_555
O5A Mo3A 1_555 1_555
O7A Mo5 1_555 1_555
O9A Mo4A 1_555 1_555
O11A Mo1A 1_555 1_555
O12A Mo1A 1_555 1_555
O13A Mo1A 1_555 1_555
O14A Si1 1_555 1_555
O15A Mo1A 1_555 1_555
O16A Mo6 1_555 1_555
O17A Mo5A 1_555 1_555
O18A Mo5 1_555 1_555
O19A Mo3A 1_555 1_555
O20A Mo6A 1_555 1_555
O21A Mo1A 1_555 1_555
O22A Mo2A 1_555 1_555
O23A Mo4A 1_555 1_555
O24A Si1 1_555 1_555
O25A Si1 1_555 1_555
O26A Mo2A 1_555 1_555
O27A Mo6 1_555 1_555
N1A C1A 1_555 1_555
N1A_2 Ni1A 1_555 1_555
N2A N3A 1_555 1_555
N3A C2A 1_555 1_555
N4A Ni1A_2 1_555 1_555
N4A_2 Ni1A 1_555 1_555
N5A N6A 1_555 1_555
N6A C7A 1_555 1_555
N7A Ni1 1_555 1_555
N7_2 Ni1A 1_555 1_555
N8A N9A 1_555 1_555
N9A C16A 1_555 1_555
C1A N2A 1_555 1_555
H1A C1A 1_555 1_555
C2A N1A 1_555 1_555
H2A C2A 1_555 1_555
C3A N3A 1_555 1_555
H3A C3A 1_555 1_555
H4A C3A 1_555 1_555
C4A C3A 1_555 1_555
C5A C6 1_555 1_555
H5A C5A 1_555 1_555
C6A C5 1_555 1_555
H6A C6A 1_555 1_555
C7A N4A 1_555 1_555
H7A C7A 1_555 1_555
C8A N4A 1_555 1_555
H8A C8A 1_555 1_555
C9A N6A 1_555 1_555
H9A C9A 1_555 1_555
H10A C9A 1_555 1_555
C10A C9A 1_555 1_555
C11A C10A 1_555 1_555
H11A C11A 1_555 1_555
C12A C11A 1_555 1_555
H12A C12A 1_555 1_555
C13A C12A 1_555 1_555
C14A C13A 1_555 1_555
H13A C14A 1_555 1_555
C15A C10A 1_555 1_555
H14A C15A 1_555 1_555
C16A C13A 1_555 1_555
H15A C16A 1_555 1_555
H16A C16A 1_555 1_555
C17A N7A 1_555 1_555
H17A C17A 1_555 1_555
C18A N7A 1_555 1_555
H18A C18A 1_555 1_555
Mo1 O25 1_555 1_555
Mo2 O11 1_555 1_555
Mo2 O14 1_555 1_555
Mo3 O14 1_555 1_555
Mo3 O26 1_555 1_555
Mo3 O24A 1_555 1_555
Mo4 O15 1_555 1_555
Mo4 O25 1_555 1_555
Mo4 O24A 1_555 1_555
Mo5 O13 1_555 1_555
Mo5 O25 1_555 1_555
Mo5 O14A 1_555 1_555
Mo6 O4 1_555 1_555
Mo6 O12 1_555 1_555
Mo6 O24 1_555 1_555
Ni1 O23 1_555 1_555
O14 Mo5A 1_555 1_555
O18 Mo5A 1_555 1_555
O27 Mo6A 1_555 1_555
N2 C1 1_555 1_555
N5 C8 1_555 1_555
N8 C18 1_555 1_555
C14 C15 1_555 1_555
Mo1A O25A 1_555 1_555
Mo2A O11A 1_555 1_555
Mo2A O14A 1_555 1_555
Mo2A O18A 1_555 1_555
Mo3A O7A 1_555 1_555
Mo3A O14A 1_555 1_555
Mo3A O26A 1_555 1_555
Mo3A O27A 1_555 1_555
Mo4A O5A 1_555 1_555
Mo4A O15A 1_555 1_555
Mo4A O16A 1_555 1_555
Mo4A O25A 1_555 1_555
Mo5A O9A 1_555 1_555
Mo5A O13A 1_555 1_555
Mo5A O25A 1_555 1_555
Mo6A O2A 1_555 1_555
Mo6A O4A 1_555 1_555
Mo6A O12A 1_555 1_555
Mo6A O24A 1_555 1_555
Ni1A O23A 1_555 1_555
N5A C8A 1_555 1_555
N8A C18A 1_555 1_555
N9A C17A 1_555 1_555
C4A C5A 1_555 1_555
C4A C6A 1_555 1_555
C14A C15A 1_555 1_555

#END
