
#######################################################################
#
#                 Cambridge Crystallographic Data Centre
#                                CCDC 
#
#######################################################################
#
# If this CIF has been generated from an entry in the Cambridge 
# Structural Database, then it will include bibliographic, chemical, 
# crystal, experimental, refinement or atomic coordinate data resulting 
# from the CCDC's data processing and validation procedures.
#
#######################################################################

data_GUBZEJ
_symmetry_cell_setting           triclinic
_symmetry_space_group_name_H-M   'P -1'
_symmetry_Int_Tables_number      2
_space_group_name_Hall           '-P 1'
loop_
_symmetry_equiv_pos_site_id
_symmetry_equiv_pos_as_xyz
1 x,y,z
2 -x,-y,-z
_cell_length_a                   12.400(3)
_cell_length_b                   13.400(3)
_cell_length_c                   14.120(3)
_cell_angle_alpha                72.26(3)
_cell_angle_beta                 64.37(3)
_cell_angle_gamma                89.20(3)
_cell_volume                     1995.68
loop_
_atom_site_label
_atom_site_type_symbol
_atom_site_fract_x
_atom_site_fract_y
_atom_site_fract_z
Zn1 Zn 1.72027(19) -0.35196(16) 1.07540(17)
N1 N 1.8461(13) -0.4167(11) 1.1209(14)
N2 N 1.9419(12) -0.5127(11) 1.2023(12)
N3 N 2.0325(13) -0.4527(13) 1.0982(12)
N4 N 2.4039(12) -0.4177(10) 1.3618(11)
N5 N 2.4822(16) -0.3909(13) 1.3979(14)
N6 N 2.5729(14) -0.3639(11) 1.2168(12)
N7 N 1.6804(12) -0.4557(10) 1.0123(11)
N8 N 1.6355(12) -0.5328(11) 0.9112(11)
N9 N 1.6270(12) -0.6065(10) 1.0052(11)
N10 N 1.9150(18) -1.1391(17) 0.7696(19)
N11 N 1.8586(14) -1.0643(12) 0.8164(15)
N12 N 1.7883(15) -1.2193(13) 0.9462(18)
C1 C 1.9707(16) -0.3974(16) 1.0501(15)
H1 H 2.0056 -0.3507 0.9774
C2 C 1.8377(15) -0.4875(14) 1.2075(15)
H2 H 1.7644 -0.5189 1.2692
C3 C 1.9723(16) -0.5931(13) 1.2782(15)
H3 H 2.0131 -0.6428 1.2417
H4 H 1.8981 -0.6316 1.3424
C4 C 2.0509(14) -0.5521(13) 1.3180(13)
C5 C 2.1179(17) -0.6220(13) 1.3549(15)
H5 H 2.1136 -0.6907 1.3533
C6 C 2.1909(16) -0.5911(13) 1.3938(15)
H6 H 2.2338 -0.6400 1.4202
C7 C 2.2025(16) -0.4883(13) 1.3951(14)
C8 C 2.1341(17) -0.4186(15) 1.3585(16)
H7 H 2.1375 -0.3500 1.3603
C9 C 2.0610(15) -0.4510(13) 1.3192(15)
H8 H 2.0174 -0.4027 1.2930
C10 C 2.2780(16) -0.4577(16) 1.4437(15)
H9 H 2.2429 -0.4038 1.4760
H10 H 2.2761 -0.5189 1.5031
C11 C 2.5859(19) -0.3606(14) 1.3045(18)
H11 H 2.6591 -0.3397 1.3012
C12 C 2.4609(16) -0.4017(12) 1.2545(15)
H12 H 2.4265 -0.4154 1.2121
C13 C 1.6501(16) -0.5586(13) 1.0668(14)
H13 H 1.6454 -0.5925 1.1368
C14 C 1.6677(14) -0.4457(13) 0.9205(13)
H14 H 1.6811 -0.3802 0.8665
C15 C 1.5857(17) -0.7181(12) 1.0370(15)
H15 H 1.5047 -0.7253 1.0437
H16 H 1.5810 -0.7545 1.1098
C16 C 1.6636(15) -0.7718(13) 0.9578(12)
C17 C 1.7817(17) -0.7723(15) 0.9349(15)
H17 H 1.8150 -0.7329 0.9622
C18 C 1.8512(18) -0.8286(17) 0.8734(19)
H18 H 1.9311 -0.8301 0.8610
C19 C 1.8043(16) -0.8850(13) 0.8280(16)
C20 C 1.6844(17) -0.8850(15) 0.8563(17)
H19 H 1.6491 -0.9267 0.8325
C21 C 1.6149(15) -0.8283(13) 0.9163(15)
H20 H 1.5347 -0.8272 0.9298
C22 C 1.8804(18) -0.9513(14) 0.7611(17)
H21 H 1.8680 -0.9374 0.6952
H22 H 1.9646 -0.9273 0.7362
C23 C 1.8734(16) -1.2331(15) 0.8452(16)
H23 H 1.8954 -1.2970 0.8349
C24 C 1.7816(17) -1.1245(17) 0.9192(15)
H24 H 1.7249 -1.0954 0.9686
Zn1_2 Zn 0.72027(19) -0.35196(16) 1.07540(17)
Zn1_3 Zn 2.72027(19) -0.35196(16) 1.07540(17)
Zn1_4 Zn 1.72027(19) -1.35196(16) 1.07540(17)
Zn1_5 Zn 1.72027(19) 0.64804(16) 1.07540(17)
N1_2 N 0.8461(13) -0.4167(11) 1.1209(14)
N2_2 N 0.9419(12) -0.5127(11) 1.2023(12)
N3_2 N 1.0325(13) -0.4527(13) 1.0982(12)
N4_2 N 1.4039(12) -0.4177(10) 1.3618(11)
N5_2 N 1.4822(16) -0.3909(13) 1.3979(14)
N6_2 N 1.5729(14) -0.3639(11) 1.2168(12)
N6_3 N 0.5729(14) -0.3639(11) 1.2168(12)
N7_2 N 1.6804(12) 0.5443(10) 1.0123(11)
N7_3 N 0.6804(12) -0.4557(10) 1.0123(11)
N8_2 N 1.6355(12) 0.4672(11) 0.9112(11)
N9_2 N 1.6270(12) 0.3935(10) 1.0052(11)
N10_2 N 1.9150(18) -0.1391(17) 0.7696(19)
N11_2 N 1.8586(14) -0.0643(12) 0.8164(15)
N12_2 N 1.7883(15) -0.2193(13) 0.9462(18)
N12_3 N 0.7883(15) -0.2193(13) 0.9462(18)
C1_2 C 0.9707(16) -0.3974(16) 1.0501(15)
H1_2 H 1.0056 -0.3507 0.9774
C2_2 C 0.8377(15) -0.4875(14) 1.2075(15)
H2_2 H 0.7644 -0.5189 1.2692
C3_2 C 0.9723(16) -0.5931(13) 1.2782(15)
H3_2 H 1.0131 -0.6428 1.2417
H4_2 H 0.8981 -0.6316 1.3424
C4_2 C 1.0509(14) -0.5521(13) 1.3180(13)
C5_2 C 1.1179(17) -0.6220(13) 1.3549(15)
H5_2 H 1.1136 -0.6907 1.3533
C6_2 C 1.1909(16) -0.5911(13) 1.3938(15)
H6_2 H 1.2338 -0.6400 1.4202
C7_2 C 1.2025(16) -0.4883(13) 1.3951(14)
C8_2 C 1.1341(17) -0.4186(15) 1.3585(16)
H7_2 H 1.1375 -0.3500 1.3603
C9_2 C 1.0610(15) -0.4510(13) 1.3192(15)
H8_2 H 1.0174 -0.4027 1.2930
C10_2 C 1.2780(16) -0.4577(16) 1.4437(15)
H9_2 H 1.2429 -0.4038 1.4760
H10_2 H 1.2761 -0.5189 1.5031
C11_2 C 1.5859(19) -0.3606(14) 1.3045(18)
H11_2 H 1.6591 -0.3397 1.3012
C12_2 C 1.4609(16) -0.4017(12) 1.2545(15)
H12_2 H 1.4265 -0.4154 1.2121
C13_2 C 1.6501(16) 0.4414(13) 1.0668(14)
H13_2 H 1.6454 0.4075 1.1368
C14_2 C 1.6677(14) 0.5543(13) 0.9205(13)
H14_2 H 1.6811 0.6198 0.8665
C15_2 C 1.5857(17) 0.2819(12) 1.0370(15)
H15_2 H 1.5047 0.2747 1.0437
H16_2 H 1.5810 0.2455 1.1098
C16_2 C 1.6636(15) 0.2282(13) 0.9578(12)
C17_2 C 1.7817(17) 0.2277(15) 0.9349(15)
H17_2 H 1.8150 0.2671 0.9622
C18_2 C 1.8512(18) 0.1714(17) 0.8734(19)
H18_2 H 1.9311 0.1699 0.8610
C19_2 C 1.8043(16) 0.1150(13) 0.8280(16)
C20_2 C 1.6844(17) 0.1150(15) 0.8563(17)
H19_2 H 1.6491 0.0733 0.8325
C21_2 C 1.6149(15) 0.1717(13) 0.9163(15)
H20_2 H 1.5347 0.1728 0.9298
C22_2 C 1.8804(18) 0.0487(14) 0.7611(17)
H21_2 H 1.8680 0.0626 0.6952
H22_2 H 1.9646 0.0727 0.7362
C23_2 C 1.8734(16) -0.2331(15) 0.8452(16)
H23_2 H 1.8954 -0.2970 0.8349
C24_2 C 1.7816(17) -0.1245(17) 0.9192(15)
H24_2 H 1.7249 -0.0954 0.9686
O23 O 1.0000 0.0000 0.5000
Mo1 Mo 0.23647(11) -0.13212(11) 0.74231(11)
Mo2 Mo 0.45649(13) -0.27606(10) 0.60758(11)
Mo3 Mo 0.26085(12) 0.14192(11) 0.60679(12)
Mo4 Mo 0.64194(12) -0.12919(11) 0.66268(11)
Mo5 Mo 0.27765(12) -0.14462(11) 0.48330(12)
Mo6 Mo 0.43785(13) 0.04843(11) 0.74785(11)
Si1 Si 0.5000 0.0000 0.5000
O1 O 0.1081(10) -0.1869(11) 0.8518(9)
O2 O 0.4217(12) -0.1358(9) 0.3428(12)
O3 O 0.2512(12) 0.1454(13) 0.4816(10)
O4 O 0.5401(11) -0.2399(14) 0.6881(10)
O5 O 0.3219(14) -0.2400(14) 0.7298(13)
O6 O 0.5338(12) -0.0715(9) 0.7560(13)
O7 O 0.3641(14) -0.2571(13) 0.5371(12)
O8 O 0.1834(10) -0.2192(9) 0.4703(10)
O9 O 0.1861(15) 0.0092(9) 0.6908(14)
O10 O 0.7408(12) 0.0119(9) 0.5817(12)
O11 O 0.1960(14) -0.1470(12) 0.6248(11)
O12 O 0.3122(14) -0.0730(9) 0.7997(13)
O13 O 0.4059(11) 0.0618(8) 0.8689(8)
O14 O 0.3441(14) 0.1335(9) 0.6998(14)
O15 O 0.1582(9) 0.2165(9) 0.6582(10)
O16 O 0.4293(11) -0.4064(8) 0.6742(8)
O17 O 0.7150(9) -0.1874(9) 0.7341(9)
O18 O 0.6026(12) -0.2627(13) 0.4915(10)
O19 O 0.5585(16) 0.0144(15) 0.5802(16)
O20 O 0.3914(17) 0.0091(15) 0.6136(15)
O21 O 0.3982(16) -0.1059(13) 0.5651(16)
O22 O 0.5625(15) -0.1064(14) 0.5315(14)
Mo1A Mo 0.76353(11) 0.13212(11) 0.25769(11)
Mo2A Mo 0.54351(13) 0.27606(10) 0.39242(11)
Mo3A Mo 0.73915(12) -0.14192(11) 0.39321(12)
Mo4A Mo 0.35806(12) 0.12919(11) 0.33732(11)
Mo5A Mo 0.72235(12) 0.14462(11) 0.51670(12)
Mo6A Mo 0.56215(13) -0.04843(11) 0.25215(11)
O1A O 0.8919(10) 0.1869(11) 0.1482(9)
O2A O 0.5783(12) 0.1358(9) 0.6572(12)
O3A O 0.7488(12) -0.1454(13) 0.5184(10)
O4A O 0.4599(11) 0.2399(14) 0.3119(10)
O5A O 0.6781(14) 0.2400(14) 0.2702(13)
O6A O 0.4662(12) 0.0715(9) 0.2440(13)
O7A O 0.6359(14) 0.2571(13) 0.4629(12)
O8A O 0.8166(10) 0.2192(9) 0.5297(10)
O9A O 0.8139(15) -0.0092(9) 0.3092(14)
O10A O 0.2592(12) -0.0119(9) 0.4183(12)
O11A O 0.8040(14) 0.1470(12) 0.3752(11)
O12A O 0.6878(14) 0.0730(9) 0.2003(13)
O13A O 0.5941(11) -0.0618(8) 0.1311(8)
O14A O 0.6559(14) -0.1335(9) 0.3002(14)
O15A O 0.8418(9) -0.2165(9) 0.3418(10)
O16A O 0.5707(11) 0.4064(8) 0.3258(8)
O17A O 0.2850(9) 0.1874(9) 0.2659(9)
O18A O 0.3974(12) 0.2627(13) 0.5085(10)
O19A O 0.4415(16) -0.0144(15) 0.4198(16)
O20A O 0.6086(17) -0.0091(15) 0.3864(15)
O21A O 0.6018(16) 0.1059(13) 0.4349(16)
O22A O 0.4375(15) 0.1064(14) 0.4685(14)
loop_
_geom_bond_atom_site_label_1
_geom_bond_atom_site_label_2
_geom_bond_site_symmetry_1
_geom_bond_site_symmetry_2
Mo1 O1 1_555 1_555
Mo2 O4 1_555 1_555
Mo3 O3 1_555 1_555
Mo4 O4 1_555 1_555
Mo5 O2 1_555 1_555
Mo6 O6 1_555 1_555
Zn1 N1 1_555 1_555
Si1 O19 1_555 1_555
N1 C1 1_555 1_555
N2 N3 1_555 1_555
N3 C1 1_555 1_555
N4 N5 1_555 1_555
N5 C11 1_555 1_555
N6 C11 1_555 1_555
N7 Zn1 1_555 1_555
N8 N9 1_555 1_555
N9 C13 1_555 1_555
N10 N11 1_555 1_555
N11 C22 1_555 1_555
N12 C23 1_555 1_555
C1 H1 1_555 1_555
C2 N1 1_555 1_555
H2 C2 1_555 1_555
C3 N2 1_555 1_555
H3 C3 1_555 1_555
H4 C3 1_555 1_555
C4 C3 1_555 1_555
C5 C4 1_555 1_555
H5 C5 1_555 1_555
C6 C5 1_555 1_555
H6 C6 1_555 1_555
C7 C6 1_555 1_555
C8 C7 1_555 1_555
H7 C8 1_555 1_555
C9 C4 1_555 1_555
H8 C9 1_555 1_555
C10 N4 1_555 1_555
H9 C10 1_555 1_555
H10 C10 1_555 1_555
C11 H11 1_555 1_555
C12 N4 1_555 1_555
H12 C12 1_555 1_555
C13 N7 1_555 1_555
H13 C13 1_555 1_555
C14 N7 1_555 1_555
H14 C14 1_555 1_555
C15 N9 1_555 1_555
H15 C15 1_555 1_555
H16 C15 1_555 1_555
C16 C15 1_555 1_555
C17 C16 1_555 1_555
H17 C17 1_555 1_555
C18 C17 1_555 1_555
H18 C18 1_555 1_555
C19 C18 1_555 1_555
C20 C19 1_555 1_555
H19 C20 1_555 1_555
C21 C16 1_555 1_555
H20 C21 1_555 1_555
C22 C19 1_555 1_555
H21 C22 1_555 1_555
H22 C22 1_555 1_555
C23 N10 1_555 1_555
H23 C23 1_555 1_555
C24 N11 1_555 1_555
H24 C24 1_555 1_555
O2 Mo6A 1_555 1_555
O3 Mo4A 1_555 1_555
O5 Mo1 1_555 1_555
O6 Mo4 1_555 1_555
O7 Mo2 1_555 1_555
O8 Mo5 1_555 1_555
O9 Mo1 1_555 1_555
O10 Mo4 1_555 1_555
O11 Mo1 1_555 1_555
O12 Mo1 1_555 1_555
O13 Mo6 1_555 1_555
O14 Mo3 1_555 1_555
O15 Mo3 1_555 1_555
O16 Mo2 1_555 1_555
O17 Mo4 1_555 1_555
O18 Mo2 1_555 1_555
O19 Mo4 1_555 1_555
O20 Mo1 1_555 1_555
O21 Mo1 1_555 1_555
O22 Mo2 1_555 1_555
Mo1A O1A 1_555 1_555
Mo2A O4A 1_555 1_555
Mo3A O18 1_555 1_555
Mo4A O4A 1_555 1_555
Mo5A O10 1_555 1_555
Mo6A O6A 1_555 1_555
Zn1_2 N1_2 1_555 1_555
Zn1_3 N6 1_555 1_555
Zn1_4 N12 1_555 1_555
Zn1_5 N7_2 1_555 1_555
N1_2 C1_2 1_555 1_555
N2_2 N3_2 1_555 1_555
N3_2 C1_2 1_555 1_555
N4_2 N5_2 1_555 1_555
N5_2 C11_2 1_555 1_555
N6_2 Zn1 1_555 1_555
N6_3 Zn1_2 1_555 1_555
N7_2 C13_2 1_555 1_555
N7_3 Zn1_2 1_555 1_555
N8_2 N9_2 1_555 1_555
N9_2 C13_2 1_555 1_555
N10_2 N11_2 1_555 1_555
N11_2 C22_2 1_555 1_555
N12_2 Zn1 1_555 1_555
N12_3 Zn1_2 1_555 1_555
C1_2 H1_2 1_555 1_555
C2_2 N1_2 1_555 1_555
H2_2 C2_2 1_555 1_555
C3_2 N2_2 1_555 1_555
H3_2 C3_2 1_555 1_555
H4_2 C3_2 1_555 1_555
C4_2 C3_2 1_555 1_555
C5_2 C4_2 1_555 1_555
H5_2 C5_2 1_555 1_555
C6_2 C5_2 1_555 1_555
H6_2 C6_2 1_555 1_555
C7_2 C6_2 1_555 1_555
C8_2 C7_2 1_555 1_555
H7_2 C8_2 1_555 1_555
C9_2 C4_2 1_555 1_555
H8_2 C9_2 1_555 1_555
C10_2 N4_2 1_555 1_555
H9_2 C10_2 1_555 1_555
H10_2 C10_2 1_555 1_555
C11_2 N6_2 1_555 1_555
H11_2 C11_2 1_555 1_555
C12_2 N4_2 1_555 1_555
H12_2 C12_2 1_555 1_555
C13_2 H13_2 1_555 1_555
C14_2 N7_2 1_555 1_555
H14_2 C14_2 1_555 1_555
C15_2 N9_2 1_555 1_555
H15_2 C15_2 1_555 1_555
H16_2 C15_2 1_555 1_555
C16_2 C15_2 1_555 1_555
C17_2 C16_2 1_555 1_555
H17_2 C17_2 1_555 1_555
C18_2 C17_2 1_555 1_555
H18_2 C18_2 1_555 1_555
C19_2 C18_2 1_555 1_555
C20_2 C19_2 1_555 1_555
H19_2 C20_2 1_555 1_555
C21_2 C16_2 1_555 1_555
H20_2 C21_2 1_555 1_555
C22_2 C19_2 1_555 1_555
H21_2 C22_2 1_555 1_555
H22_2 C22_2 1_555 1_555
C23_2 N10_2 1_555 1_555
H23_2 C23_2 1_555 1_555
C24_2 N11_2 1_555 1_555
H24_2 C24_2 1_555 1_555
O2A Mo6 1_555 1_555
O3A Mo4 1_555 1_555
O5A Mo1A 1_555 1_555
O6A Mo4A 1_555 1_555
O7A Mo2A 1_555 1_555
O8A Mo5A 1_555 1_555
O9A Mo1A 1_555 1_555
O10A Mo5 1_555 1_555
O11A Mo1A 1_555 1_555
O12A Mo1A 1_555 1_555
O13A Mo6A 1_555 1_555
O14A Mo3A 1_555 1_555
O15A Mo3A 1_555 1_555
O16A Mo2A 1_555 1_555
O17A Mo4A 1_555 1_555
O18A Mo3 1_555 1_555
O19A Mo5 1_555 1_555
O20A Si1 1_555 1_555
O21A Si1 1_555 1_555
O22A Mo3 1_555 1_555
Mo2 O5 1_555 1_555
Mo2 O21 1_555 1_555
Mo3 O9 1_555 1_555
Mo3 O20 1_555 1_555
Mo4 O22 1_555 1_555
Mo5 O7 1_555 1_555
Mo5 O11 1_555 1_555
Mo5 O21 1_555 1_555
Mo6 O12 1_555 1_555
Mo6 O14 1_555 1_555
Mo6 O19 1_555 1_555
Mo6 O20 1_555 1_555
Si1 O20 1_555 1_555
Si1 O21 1_555 1_555
Si1 O22 1_555 1_555
Si1 O19A 1_555 1_555
Si1 O22A 1_555 1_555
N2 C2 1_555 1_555
N6 C12 1_555 1_555
N8 C14 1_555 1_555
N12 C24 1_555 1_555
C7 C10 1_555 1_555
C8 C9 1_555 1_555
C20 C21 1_555 1_555
O19 Mo5A 1_555 1_555
O22 Mo3A 1_555 1_555
Mo1A O20A 1_555 1_555
Mo1A O21A 1_555 1_555
Mo2A O5A 1_555 1_555
Mo2A O18A 1_555 1_555
Mo2A O21A 1_555 1_555
Mo2A O22A 1_555 1_555
Mo3A O3A 1_555 1_555
Mo3A O9A 1_555 1_555
Mo3A O20A 1_555 1_555
Mo4A O10A 1_555 1_555
Mo4A O19A 1_555 1_555
Mo4A O22A 1_555 1_555
Mo5A O2A 1_555 1_555
Mo5A O7A 1_555 1_555
Mo5A O11A 1_555 1_555
Mo5A O21A 1_555 1_555
Mo6A O12A 1_555 1_555
Mo6A O14A 1_555 1_555
Mo6A O19A 1_555 1_555
Mo6A O20A 1_555 1_555
N2_2 C2_2 1_555 1_555
N6_2 C12_2 1_555 1_555
N8_2 C14_2 1_555 1_555
N12_2 C23_2 1_555 1_555
N12_2 C24_2 1_555 1_555
C7_2 C10_2 1_555 1_555
C8_2 C9_2 1_555 1_555
C20_2 C21_2 1_555 1_555

#END
