
#######################################################################
#
#                 Cambridge Crystallographic Data Centre
#                                CCDC 
#
#######################################################################
#
# If this CIF has been generated from an entry in the Cambridge 
# Structural Database, then it will include bibliographic, chemical, 
# crystal, experimental, refinement or atomic coordinate data resulting 
# from the CCDC's data processing and validation procedures.
#
#######################################################################

data_GUCDIT
_symmetry_cell_setting           monoclinic
_symmetry_space_group_name_H-M   'P 21/c'
_symmetry_Int_Tables_number      14
_space_group_name_Hall           '-P 2ybc'
loop_
_symmetry_equiv_pos_site_id
_symmetry_equiv_pos_as_xyz
1 x,y,z
2 -x,1/2+y,1/2-z
3 -x,-y,-z
4 x,1/2-y,1/2+z
_cell_length_a                   6.8938(13)
_cell_length_b                   22.700(4)
_cell_length_c                   7.4502(14)
_cell_angle_alpha                90
_cell_angle_beta                 103.327(2)
_cell_angle_gamma                90
_cell_volume                     1134.48
loop_
_atom_site_label
_atom_site_type_symbol
_atom_site_fract_x
_atom_site_fract_y
_atom_site_fract_z
O1 O 0.3003(7) 0.50230(18) 0.9971(4)
H1 H 0.240(11) 0.512(3) 0.890(6)
H2 H 0.270(7) 0.4676(11) 1.015(6)
O2 O 0.1639(4) 0.80095(11) 0.1933(4)
O3 O 0.0553(5) 0.57015(14) 0.7111(4)
O4 O 0.2413(7) 0.60294(15) 0.1670(5)
C1 C 0.2318(5) 0.75674(15) 0.2871(5)
C2 C 0.4045(5) 0.48213(16) 0.4983(6)
O5 O 0.4689(5) 0.88656(11) 0.3018(4)
C3 C 0.6104(6) 0.85985(16) 0.4045(5)
C4 C 0.5899(5) 0.79666(15) 0.4463(5)
N1 N 0.7503(4) 0.76656(17) 0.5518(6)
H3 H 0.8652 0.7814 0.6005
Nd1 Nd 0.24962(2) 0.621964(10) 0.49862(2)
O6 O 0.2446(3) 0.51082(19) 0.4683(5)
O7 O 0.4233(4) 0.42800(11) 0.5232(4)
O8 O 0.7782(5) 0.88311(18) 0.4759(5)
O9 O -0.1019(4) 0.60992(14) 0.3483(4)
O10 O 0.1324(4) 0.70996(10) 0.2903(4)
N2 N 0.5103(4) 0.70134(12) 0.4759(4)
C5 C 0.4412(5) 0.75537(14) 0.3997(5)
C6 C 0.6965(5) 0.71046(16) 0.5650(5)
H4 H 0.7799 0.6815 0.6291
H5 H -0.011(7) 0.5427(17) 0.649(7)
H6 H 0.121(5) 0.599(5) 0.120(18)
H7 H -0.130(9) 0.606(3) 0.234(3)
H8 H -0.195(6) 0.600(2) 0.396(6)
H9 H 0.299(16) 0.570(3) 0.18(2)
H10 H -0.023(8) 0.592(2) 0.753(10)
C2B C 0.5955(5) 0.51787(16) 0.5017(6)
O6B O 0.7554(3) 0.48918(19) 0.5317(5)
O7B O 0.5767(4) 0.57200(11) 0.4768(4)
O2B O 0.8361(4) 0.19905(11) 0.8067(4)
O3B O 0.9447(5) 0.42985(14) 0.2889(4)
O4B O 0.7587(7) 0.39706(15) 0.8330(5)
C1B C 0.7682(5) 0.24326(15) 0.7129(5)
O5B O 0.5311(5) 0.11344(11) 0.6982(4)
C3B C 0.3896(6) 0.14015(16) 0.5955(5)
C4B C 0.4101(5) 0.20334(15) 0.5537(5)
N1B N 0.2497(4) 0.23344(17) 0.4482(6)
H3B H 0.1348 0.2186 0.3995
Nd1B Nd 0.75038(2) 0.378036(10) 0.50138(2)
O8B O 0.2218(5) 0.11689(18) 0.5241(5)
O9B O 1.1019(4) 0.39008(14) 0.6517(4)
O10B O 0.8676(4) 0.29004(10) 0.7097(4)
N2B N 0.4897(4) 0.29866(12) 0.5241(4)
C5B C 0.5588(5) 0.24463(14) 0.6003(5)
C6B C 0.3035(5) 0.28954(16) 0.4350(5)
H4B H 0.2201 0.3185 0.3709
H5B H 1.011(7) 0.4573(17) 0.351(7)
H6B H 0.879(5) 0.401(5) 0.880(18)
H7B H 1.130(9) 0.394(3) 0.766(3)
H8B H 1.195(6) 0.400(2) 0.604(6)
H9B H 0.701(16) 0.430(3) 0.82(2)
H10B H 1.023(8) 0.408(2) 0.247(10)
O2A O 0.8361(4) 0.30095(11) 0.3067(4)
O2C O 0.1639(4) 0.69905(11) 0.6933(4)
O5A O 0.5311(5) 0.38656(11) 0.1982(4)
O5C O 0.4689(5) 0.61344(11) 0.8018(4)
Nd1A Nd 0.75038(2) 0.121964(10) 1.00138(2)
Nd1C Nd 0.24962(2) 0.878036(10) -0.00138(2)
loop_
_geom_bond_atom_site_label_1
_geom_bond_atom_site_label_2
_geom_bond_site_symmetry_1
_geom_bond_site_symmetry_2
O1 H1 1_555 1_555
H2 O1 1_555 1_555
O2 C1 1_555 1_555
O3 Nd1 1_555 1_555
O4 Nd1 1_555 1_555
C1 O10 1_555 1_555
C2 O6 1_555 1_555
O5 C3 1_555 1_555
C3 C4 1_555 1_555
C4 N1 1_555 1_555
N1 H3 1_555 1_555
Nd1 O6 1_555 1_555
O7 C2 1_555 1_555
O8 C3 1_555 1_555
O9 Nd1 1_555 1_555
O10 Nd1 1_555 1_555
N2 Nd1 1_555 1_555
C5 C1 1_555 1_555
C6 N1 1_555 1_555
H4 C6 1_555 1_555
H5 O3 1_555 1_555
H6 O4 1_555 1_555
H7 O9 1_555 1_555
H8 O9 1_555 1_555
H9 O4 1_555 1_555
H10 O3 1_555 1_555
C2B C2 1_555 1_555
O6B C2B 1_555 1_555
O7B Nd1 1_555 1_555
O2B C1B 1_555 1_555
O3B Nd1B 1_555 1_555
O4B Nd1B 1_555 1_555
C1B O10B 1_555 1_555
O5B C3B 1_555 1_555
C3B C4B 1_555 1_555
C4B N1B 1_555 1_555
N1B H3B 1_555 1_555
Nd1B O7 1_555 1_555
O8B C3B 1_555 1_555
O9B Nd1B 1_555 1_555
O10B Nd1B 1_555 1_555
N2B Nd1B 1_555 1_555
C5B C1B 1_555 1_555
C6B N1B 1_555 1_555
H4B C6B 1_555 1_555
H5B O3B 1_555 1_555
H6B O4B 1_555 1_555
H7B O9B 1_555 1_555
H8B O9B 1_555 1_555
H9B O4B 1_555 1_555
H10B O3B 1_555 1_555
O2A Nd1B 1_555 1_555
O2C Nd1 1_555 1_555
O5A Nd1B 1_555 1_555
O5C Nd1 1_555 1_555
Nd1A O2B 1_555 1_555
Nd1C O2 1_555 1_555
O5 Nd1C 1_555 1_555
C4 C5 1_555 1_555
N2 C5 1_555 1_555
N2 C6 1_555 1_555
C2B O7B 1_555 1_555
O6B Nd1B 1_555 1_555
O5B Nd1A 1_555 1_555
C4B C5B 1_555 1_555
N2B C5B 1_555 1_555
N2B C6B 1_555 1_555

#END
