
#######################################################################
#
#                 Cambridge Crystallographic Data Centre
#                                CCDC 
#
#######################################################################
#
# If this CIF has been generated from an entry in the Cambridge 
# Structural Database, then it will include bibliographic, chemical, 
# crystal, experimental, refinement or atomic coordinate data resulting 
# from the CCDC's data processing and validation procedures.
#
#######################################################################

data_GUCDUF
_symmetry_cell_setting           monoclinic
_symmetry_space_group_name_H-M   'P 21/c'
_symmetry_Int_Tables_number      14
_space_group_name_Hall           '-P 2ybc'
loop_
_symmetry_equiv_pos_site_id
_symmetry_equiv_pos_as_xyz
1 x,y,z
2 -x,1/2+y,1/2-z
3 -x,-y,-z
4 x,1/2-y,1/2+z
_cell_length_a                   9.7504(9)
_cell_length_b                   7.2804(7)
_cell_length_c                   14.0849(13)
_cell_angle_alpha                90
_cell_angle_beta                 103.0790(10)
_cell_angle_gamma                90
_cell_volume                     973.905
loop_
_atom_site_label
_atom_site_type_symbol
_atom_site_fract_x
_atom_site_fract_y
_atom_site_fract_z
Tb1 Tb 0.782604(16) 0.11936(2) 0.313754(12)
O1 O 0.5646(3) 0.2213(4) 0.2162(2)
O2 O 0.8430(3) -0.0386(4) 0.4635(2)
O3 O 0.9037(3) 0.3288(4) 0.4315(2)
O4 O 0.8340(4) 0.3620(4) 0.2199(3)
O5 O 0.2000(3) 0.4789(4) 0.3287(2)
O6 O 0.3553(3) 0.3535(4) 0.1927(2)
O7 O 0.1982(3) 0.3862(3) 0.4782(2)
O8 O 0.9789(3) 0.5455(4) 0.1648(2)
N1 N 0.6115(3) 0.2170(4) 0.4070(2)
N2 N 0.4732(3) 0.2679(5) 0.5079(2)
H1 H 0.4444 0.2720 0.5612
C1 C 0.4651(4) 0.2901(5) 0.2479(3)
C2 C 0.2541(4) 0.4005(5) 0.4060(3)
C3 C 0.4828(4) 0.2849(5) 0.3552(3)
C4 C 0.9123(4) 0.4976(6) 0.2268(3)
H2 H 0.9223 0.5695 0.2825
C5 C 0.6010(4) 0.2103(5) 0.4995(3)
H3 H 0.6723 0.1713 0.5513
C6 C 0.3963(4) 0.3189(5) 0.4177(3)
H4 H 0.842(8) -0.153(3) 0.467(5)
H5 H 0.888(6) 0.006(7) 0.518(3)
H6 H 0.990(2) 0.352(7) 0.444(5)
H7 H 0.862(4) 0.409(5) 0.459(4)
Tb1A Tb 0.217396(16) 0.61936(2) 0.186246(12)
Tb1A_2 Tb 1.217396(16) 0.61936(2) 0.186246(12)
O5A O 0.8000(3) -0.0211(4) 0.1713(2)
O6A O 0.6447(3) -0.1465(4) 0.3073(2)
O8A O 1.0211(3) 0.0455(4) 0.3352(2)
loop_
_geom_bond_atom_site_label_1
_geom_bond_atom_site_label_2
_geom_bond_site_symmetry_1
_geom_bond_site_symmetry_2
Tb1 O1 1_555 1_555
O1 C1 1_555 1_555
O2 Tb1 1_555 1_555
O3 Tb1 1_555 1_555
O4 Tb1 1_555 1_555
O5 C2 1_555 1_555
O6 C1 1_555 1_555
O7 C2 1_555 1_555
O8 C4 1_555 1_555
N1 Tb1 1_555 1_555
N2 H1 1_555 1_555
C1 C3 1_555 1_555
C2 C6 1_555 1_555
C3 N1 1_555 1_555
C4 O4 1_555 1_555
H2 C4 1_555 1_555
C5 N1 1_555 1_555
H3 C5 1_555 1_555
C6 N2 1_555 1_555
H4 O2 1_555 1_555
H5 O2 1_555 1_555
H6 O3 1_555 1_555
H7 O3 1_555 1_555
Tb1A O5 1_555 1_555
Tb1A_2 O8 1_555 1_555
O5A Tb1 1_555 1_555
O6A Tb1 1_555 1_555
O8A Tb1 1_555 1_555
O6 Tb1A 1_555 1_555
N2 C5 1_555 1_555
C3 C6 1_555 1_555

#END
