
#######################################################################
#
#                 Cambridge Crystallographic Data Centre
#                                CCDC 
#
#######################################################################
#
# If this CIF has been generated from an entry in the Cambridge 
# Structural Database, then it will include bibliographic, chemical, 
# crystal, experimental, refinement or atomic coordinate data resulting 
# from the CCDC's data processing and validation procedures.
#
#######################################################################

data_GUCFAN
_symmetry_cell_setting           monoclinic
_symmetry_space_group_name_H-M   'P 21/c'
_symmetry_Int_Tables_number      14
_space_group_name_Hall           '-P 2ybc'
loop_
_symmetry_equiv_pos_site_id
_symmetry_equiv_pos_as_xyz
1 x,y,z
2 -x,1/2+y,1/2-z
3 -x,-y,-z
4 x,1/2-y,1/2+z
_cell_length_a                   9.8319(14)
_cell_length_b                   7.4275(11)
_cell_length_c                   14.158(2)
_cell_angle_alpha                90
_cell_angle_beta                 102.970(2)
_cell_angle_gamma                90
_cell_volume                     1007.53
loop_
_atom_site_label
_atom_site_type_symbol
_atom_site_fract_x
_atom_site_fract_y
_atom_site_fract_z
Eu1 Eu 0.282250(17) 0.37964(2) 0.312534(12)
O1 O 0.3006(3) 0.6150(3) 0.0175(2)
O2 O 0.2985(3) 0.5159(4) 0.16514(19)
O3 O -0.0569(3) 0.7825(4) 0.28281(18)
O4 O 0.3274(4) 0.1286(4) 0.2192(3)
O5 O 0.4746(3) -0.0512(4) 0.1666(2)
O6 O 0.3433(3) 0.5395(4) 0.46538(19)
H1 H 0.3113 0.6565 0.4733
H2 H 0.3948 0.5230 0.5230
O7 O 0.1501(3) 0.6513(4) 0.3035(2)
O8 O 0.4051(3) 0.1712(4) 0.4344(2)
H3 H 0.3657 0.0862 0.4552
H4 H 0.5011 0.1582 0.4559
N1 N -0.1058(3) 0.7861(4) 0.0918(2)
N2 N 0.0279(3) 0.7303(4) -0.0097(2)
H5 H 0.0554 0.7238 -0.0631
C1 C 0.2451(4) 0.5979(5) 0.0900(3)
C2 C 0.0204(4) 0.7184(5) 0.1426(2)
C3 C 0.0413(4) 0.7137(5) 0.2507(2)
C4 C 0.4058(4) -0.0030(6) 0.2262(3)
H6 H 0.4144 -0.0734 0.2816
C5 C -0.0980(4) 0.7899(5) -0.0007(3)
H7 H -0.1691 0.8282 -0.0518
C6 C 0.1054(4) 0.6813(5) 0.0799(2)
Eu1A Eu -0.282250(17) 0.87964(2) 0.187466(12)
Eu1A_2 Eu 0.717750(17) -0.12036(2) 0.187466(12)
O3A O 0.0569(3) 0.2825(4) 0.21719(18)
O5A O 0.5254(3) 0.4488(4) 0.3334(2)
N1A N 0.1058(3) 0.2861(4) 0.4082(2)
loop_
_geom_bond_atom_site_label_1
_geom_bond_atom_site_label_2
_geom_bond_site_symmetry_1
_geom_bond_site_symmetry_2
Eu1 O2 1_555 1_555
O1 C1 1_555 1_555
O2 C1 1_555 1_555
O3 C3 1_555 1_555
O4 Eu1 1_555 1_555
O5 C4 1_555 1_555
O6 Eu1 1_555 1_555
H1 O6 1_555 1_555
H2 O6 1_555 1_555
O7 Eu1 1_555 1_555
O8 Eu1 1_555 1_555
H3 O8 1_555 1_555
H4 O8 1_555 1_555
N1 C2 1_555 1_555
N2 H5 1_555 1_555
C1 C6 1_555 1_555
C2 C3 1_555 1_555
C3 O7 1_555 1_555
C4 O4 1_555 1_555
H6 C4 1_555 1_555
C5 N1 1_555 1_555
H7 C5 1_555 1_555
C6 N2 1_555 1_555
Eu1A O3 1_555 1_555
Eu1A_2 O5 1_555 1_555
O3A Eu1 1_555 1_555
O5A Eu1 1_555 1_555
N1A Eu1 1_555 1_555
N1 Eu1A 1_555 1_555
N2 C5 1_555 1_555
C2 C6 1_555 1_555

#END
