
#######################################################################
#
#                 Cambridge Crystallographic Data Centre
#                                CCDC 
#
#######################################################################
#
# If this CIF has been generated from an entry in the Cambridge 
# Structural Database, then it will include bibliographic, chemical, 
# crystal, experimental, refinement or atomic coordinate data resulting 
# from the CCDC's data processing and validation procedures.
#
#######################################################################

data_GUCMAU
_symmetry_cell_setting           monoclinic
_symmetry_space_group_name_H-M   'P 21/n'
_symmetry_Int_Tables_number      14
_space_group_name_Hall           '-P 2yn'
loop_
_symmetry_equiv_pos_site_id
_symmetry_equiv_pos_as_xyz
1 x,y,z
2 1/2-x,1/2+y,1/2-z
3 -x,-y,-z
4 1/2+x,1/2-y,1/2+z
_cell_length_a                   12.4034(10)
_cell_length_b                   17.6913(15)
_cell_length_c                   15.9823(13)
_cell_angle_alpha                90
_cell_angle_beta                 97.359(2)
_cell_angle_gamma                90
_cell_volume                     3478.15
loop_
_atom_site_label
_atom_site_type_symbol
_atom_site_fract_x
_atom_site_fract_y
_atom_site_fract_z
La1 La 0.95386(2) 0.150941(17) 0.247756(18)
O1 O 0.8561(3) -0.16465(19) -0.2062(2)
C1 C 1.0700(4) 0.3290(3) 0.2021(4)
H1 H 1.1259 0.3053 0.2367
C2 C 0.8123(4) -0.1617(3) -0.2824(3)
C3 C 0.6812(4) -0.0517(3) 0.1934(3)
H2 H 0.6391 -0.0773 0.2284
N1 N 0.9758(3) 0.2920(2) 0.1845(3)
N2 N 0.8222(3) 0.0390(2) 0.1804(2)
N3 N 0.7727(3) -0.0231(2) -0.1588(2)
H3 H 0.8035 -0.0085 -0.2012
C4 C 0.6895(4) -0.0736(3) -0.1604(3)
C5 C 0.6932(4) -0.1446(3) -0.2984(3)
N4 N 0.9532(3) 0.1168(2) 0.0854(2)
C6 C 0.7257(4) -0.0368(3) -0.0334(3)
C7 C 0.7319(4) -0.0263(3) 0.0568(3)
N5 N 0.6564(3) -0.0828(2) -0.0857(3)
C8 C 0.8096(4) 0.0259(3) 0.0951(3)
C9 C 0.8817(4) 0.0663(3) 0.0456(3)
C10 C 0.6674(4) -0.0647(3) 0.1082(3)
H4 H 0.6152 -0.0989 0.0848
C11 C 0.6373(4) -0.1073(3) -0.2392(3)
C12 C 0.7596(4) 0.0006(3) 0.2268(3)
H5 H 0.7684 0.0090 0.2847
C13 C 0.5241(4) -0.1619(3) -0.3903(3)
H6 H 0.4867 -0.1799 -0.4404
C14 C 1.0891(4) 0.4002(3) 0.1722(4)
H7 H 1.1562 0.4234 0.1867
C15 C 0.5245(4) -0.1002(3) -0.2564(3)
H8 H 0.4862 -0.0773 -0.2169
C16 C 0.7978(4) 0.0001(3) -0.0772(3)
C17 C 0.6357(4) -0.1699(3) -0.3739(3)
H9 H 0.6731 -0.1927 -0.4140
C18 C 1.0203(4) 0.1518(3) 0.0399(3)
H10 H 1.0692 0.1864 0.0672
C19 C 0.8766(4) 0.0523(3) -0.0417(3)
C20 C 0.9505(4) 0.0899(3) -0.0863(3)
H11 H 0.9507 0.0805 -0.1435
C21 C 1.0224(4) 0.1404(3) -0.0457(3)
H12 H 1.0712 0.1665 -0.0747
C22 C 0.4685(4) -0.1267(3) -0.3311(3)
H13 H 0.3935 -0.1208 -0.3417
N6 N 0.7798(3) 0.2200(2) 0.1527(3)
C23 C 0.6848(4) 0.1841(3) 0.1356(3)
H14 H 0.6766 0.1378 0.1616
C24 C 0.8930(4) 0.3280(3) 0.1353(3)
C25 C 0.9070(4) 0.4011(3) 0.1027(3)
C26 C 0.7900(4) 0.2887(3) 0.1171(3)
C27 C 1.0087(4) 0.4363(3) 0.1211(3)
H15 H 1.0211 0.4836 0.0987
O2 O 0.8653(3) -0.1731(2) -0.3425(2)
N7 N 0.6513(3) 0.4450(2) -0.0114(2)
H16 H 0.5847 0.4364 -0.0312
N8 N 0.8088(3) 0.5066(2) 0.0179(3)
C28 C 0.7023(4) 0.3223(3) 0.0646(3)
C29 C 0.5973(4) 0.2120(3) 0.0811(3)
H17 H 0.5338 0.1839 0.0692
C30 C 0.7076(4) 0.5093(3) -0.0213(3)
C31 C 0.8153(4) 0.4356(3) 0.0535(3)
C32 C 0.7198(4) 0.3964(3) 0.0358(3)
C33 C 0.6064(4) 0.2809(3) 0.0457(3)
H18 H 0.5491 0.3005 0.0089
N9 N 0.8061(4) 0.2253(3) 0.3594(3)
C34 C 0.6635(4) 0.5761(3) -0.0697(3)
C35 C 0.5820(4) 0.5698(3) -0.1400(3)
C36 C 0.5324(4) 0.4967(3) -0.1743(3)
C37 C 0.7098(4) 0.6457(3) -0.0487(4)
H19 H 0.7636 0.6496 -0.0027
C38 C 0.6770(5) 0.7098(3) -0.0953(4)
H20 H 0.7081 0.7565 -0.0802
C39 C 0.5503(4) 0.6354(3) -0.1848(3)
H21 H 0.4951 0.6327 -0.2300
C40 C 0.5984(5) 0.7038(3) -0.1639(4)
H22 H 0.5777 0.7463 -0.1963
O3 O 0.5541(3) 0.47859(19) -0.2463(2)
O4 O 0.4730(3) 0.4569(2) -0.1345(2)
O5 O 0.7892(3) 0.1581(2) 0.3322(2)
O6 O 0.8983(3) 0.2531(2) 0.3514(3)
O7 O 0.7385(3) 0.2606(2) 0.3928(3)
La1B La 1.04614(2) -0.150941(17) -0.247756(18)
La1C La 0.45386(2) 0.349059(17) -0.252244(18)
O1B O 1.1439(3) 0.16465(19) 0.2062(2)
O2B O 1.1347(3) 0.1731(2) 0.3425(2)
O3C O 1.0541(3) 0.02141(19) 0.2537(2)
O4C O 0.9730(3) 0.0431(2) 0.3655(2)
loop_
_geom_bond_atom_site_label_1
_geom_bond_atom_site_label_2
_geom_bond_site_symmetry_1
_geom_bond_site_symmetry_2
La1 N1 1_555 1_555
O1 C2 1_555 1_555
C1 H1 1_555 1_555
C2 C5 1_555 1_555
C3 H2 1_555 1_555
N1 C1 1_555 1_555
N2 La1 1_555 1_555
N3 H3 1_555 1_555
C4 N3 1_555 1_555
C5 C11 1_555 1_555
N4 La1 1_555 1_555
C6 C7 1_555 1_555
C7 C8 1_555 1_555
N5 C4 1_555 1_555
C8 N2 1_555 1_555
C9 N4 1_555 1_555
C10 C3 1_555 1_555
H4 C10 1_555 1_555
C11 C4 1_555 1_555
C12 C3 1_555 1_555
H5 C12 1_555 1_555
C13 H6 1_555 1_555
C14 C1 1_555 1_555
H7 C14 1_555 1_555
C15 C11 1_555 1_555
H8 C15 1_555 1_555
C16 N3 1_555 1_555
C17 C5 1_555 1_555
H9 C17 1_555 1_555
C18 N4 1_555 1_555
H10 C18 1_555 1_555
C19 C9 1_555 1_555
C20 C19 1_555 1_555
H11 C20 1_555 1_555
C21 C18 1_555 1_555
H12 C21 1_555 1_555
C22 C13 1_555 1_555
H13 C22 1_555 1_555
N6 La1 1_555 1_555
C23 N6 1_555 1_555
H14 C23 1_555 1_555
C24 N1 1_555 1_555
C25 C24 1_555 1_555
C26 N6 1_555 1_555
C27 C14 1_555 1_555
H15 C27 1_555 1_555
O2 C2 1_555 1_555
N7 H16 1_555 1_555
N8 C30 1_555 1_555
C28 C26 1_555 1_555
C29 C23 1_555 1_555
H17 C29 1_555 1_555
C30 N7 1_555 1_555
C31 C25 1_555 1_555
C32 N7 1_555 1_555
C33 C28 1_555 1_555
H18 C33 1_555 1_555
N9 O5 1_555 1_555
C34 C30 1_555 1_555
C35 C34 1_555 1_555
C36 C35 1_555 1_555
C37 C34 1_555 1_555
H19 C37 1_555 1_555
C38 C37 1_555 1_555
H20 C38 1_555 1_555
C39 C35 1_555 1_555
H21 C39 1_555 1_555
C40 C38 1_555 1_555
H22 C40 1_555 1_555
O3 C36 1_555 1_555
O4 C36 1_555 1_555
O5 La1 1_555 1_555
O6 La1 1_555 1_555
O7 N9 1_555 1_555
La1B O1 1_555 1_555
La1C O3 1_555 1_555
O1B La1 1_555 1_555
O2B La1 1_555 1_555
O3C La1 1_555 1_555
O4C La1 1_555 1_555
N2 C12 1_555 1_555
C6 N5 1_555 1_555
C6 C16 1_555 1_555
C7 C10 1_555 1_555
C8 C9 1_555 1_555
C13 C17 1_555 1_555
C15 C22 1_555 1_555
C16 C19 1_555 1_555
C20 C21 1_555 1_555
C24 C26 1_555 1_555
C25 C27 1_555 1_555
O2 La1B 1_555 1_555
N8 C31 1_555 1_555
C28 C32 1_555 1_555
C29 C33 1_555 1_555
C31 C32 1_555 1_555
N9 O6 1_555 1_555
C39 C40 1_555 1_555
O4 La1C 1_555 1_555

#END
