
#######################################################################
#
#                 Cambridge Crystallographic Data Centre
#                                CCDC 
#
#######################################################################
#
# If this CIF has been generated from an entry in the Cambridge 
# Structural Database, then it will include bibliographic, chemical, 
# crystal, experimental, refinement or atomic coordinate data resulting 
# from the CCDC's data processing and validation procedures.
#
#######################################################################

data_GUCVUW
_symmetry_cell_setting           triclinic
_symmetry_space_group_name_H-M   'P -1'
_symmetry_Int_Tables_number      2
_space_group_name_Hall           '-P 1'
loop_
_symmetry_equiv_pos_site_id
_symmetry_equiv_pos_as_xyz
1 x,y,z
2 -x,-y,-z
_cell_length_a                   8.407(2)
_cell_length_b                   9.540(3)
_cell_length_c                   11.475(3)
_cell_angle_alpha                94.888(5)
_cell_angle_beta                 97.642(5)
_cell_angle_gamma                106.120(5)
_cell_volume                     869.05
loop_
_atom_site_label
_atom_site_type_symbol
_atom_site_fract_x
_atom_site_fract_y
_atom_site_fract_z
Mn1 Mn 0.68976(9) 0.08723(8) 0.16494(7)
N1 N 0.9286(5) 0.0692(4) 0.2854(3)
N2 N 0.7180(5) 0.2187(4) 0.3473(4)
N3 N 1.1173(6) 0.4017(5) 0.7218(4)
H1 H 1.0752 0.4558 0.7649
N4 N 1.2968(5) 0.2842(5) 0.6681(4)
O1 O 0.5258(4) -0.1046(4) 0.2299(3)
H2 H 0.6059 -0.1280 0.2601
H3 H 0.4569 -0.1740 0.1867
O2 O 0.4866(4) 0.1669(4) 0.1048(3)
O3 O 0.2620(4) 0.0473(4) -0.0269(3)
O4 O -0.1514(4) 0.2879(3) 0.1163(3)
O5 O 0.0847(4) 0.4692(4) 0.1547(3)
C1 C 1.0267(6) -0.0089(5) 0.2539(5)
H4 H 0.9932 -0.0696 0.1818
C2 C 1.1783(6) -0.0055(5) 0.3230(5)
H5 H 1.2441 -0.0623 0.2978
C3 C 1.2267(6) 0.0846(5) 0.4295(5)
H6 H 1.3280 0.0909 0.4766
C4 C 1.1256(6) 0.1659(5) 0.4668(4)
C5 C 1.1606(6) 0.2582(5) 0.5777(5)
C6 C 1.2633(7) 0.3700(6) 0.7507(5)
H7 H 1.3339 0.4059 0.8230
C7 C 1.0494(6) 0.3296(5) 0.6093(4)
C8 C 0.8935(6) 0.3210(5) 0.5363(4)
C9 C 0.7717(7) 0.3844(6) 0.5680(5)
H8 H 0.7884 0.4398 0.6416
C10 C 0.6280(7) 0.3638(6) 0.4894(5)
H9 H 0.5447 0.4037 0.5094
C11 C 0.6077(6) 0.2829(6) 0.3797(5)
H10 H 0.5111 0.2732 0.3259
C12 C 0.8611(6) 0.2360(5) 0.4257(4)
C13 C 0.9756(6) 0.1561(5) 0.3911(4)
C14 C 0.3409(6) 0.1503(5) 0.0524(5)
C15 C 0.2569(6) 0.2608(5) 0.0903(4)
H11 H 0.3237 0.3512 0.1302
C16 C 0.0933(6) 0.2376(5) 0.0706(4)
H12 H 0.0284 0.1509 0.0239
C17 C 0.0041(6) 0.3393(5) 0.1171(4)
Mn1A Mn 0.31024(9) -0.08723(8) -0.16494(7)
Mn1_2 Mn -0.31024(9) 0.08723(8) 0.16494(7)
O3A O 0.7380(4) -0.0473(4) 0.0269(3)
O4_2 O 0.8486(4) 0.2879(3) 0.1163(3)
O6 O 0.3611(5) 0.6421(5) 0.0756(4)
H13 H 0.3473 0.6681 0.0091
H14 H 0.2929 0.6670 0.1160
loop_
_geom_bond_atom_site_label_1
_geom_bond_atom_site_label_2
_geom_bond_site_symmetry_1
_geom_bond_site_symmetry_2
Mn1 N1 1_555 1_555
N1 C1 1_555 1_555
N2 Mn1 1_555 1_555
N3 H1 1_555 1_555
N4 C5 1_555 1_555
O1 Mn1 1_555 1_555
H2 O1 1_555 1_555
H3 O1 1_555 1_555
O2 Mn1 1_555 1_555
O3 C14 1_555 1_555
O4 C17 1_555 1_555
O5 C17 1_555 1_555
C1 H4 1_555 1_555
C2 C1 1_555 1_555
H5 C2 1_555 1_555
C3 C2 1_555 1_555
H6 C3 1_555 1_555
C4 C3 1_555 1_555
C5 C4 1_555 1_555
C6 N3 1_555 1_555
H7 C6 1_555 1_555
C7 N3 1_555 1_555
C8 C7 1_555 1_555
C9 C8 1_555 1_555
H8 C9 1_555 1_555
C10 C9 1_555 1_555
H9 C10 1_555 1_555
C11 N2 1_555 1_555
H10 C11 1_555 1_555
C12 N2 1_555 1_555
C13 N1 1_555 1_555
C14 O2 1_555 1_555
C15 C14 1_555 1_555
H11 C15 1_555 1_555
C16 C15 1_555 1_555
H12 C16 1_555 1_555
C17 C16 1_555 1_555
O6 H13 1_555 1_555
H14 O6 1_555 1_555
Mn1A O3 1_555 1_555
Mn1_2 O4 1_555 1_555
O3A Mn1 1_555 1_555
O4_2 Mn1 1_555 1_555
N4 C6 1_555 1_555
C4 C13 1_555 1_555
C5 C7 1_555 1_555
C8 C12 1_555 1_555
C10 C11 1_555 1_555
C12 C13 1_555 1_555

#END
