
#######################################################################
#
#                 Cambridge Crystallographic Data Centre
#                                CCDC 
#
#######################################################################
#
# If this CIF has been generated from an entry in the Cambridge 
# Structural Database, then it will include bibliographic, chemical, 
# crystal, experimental, refinement or atomic coordinate data resulting 
# from the CCDC's data processing and validation procedures.
#
#######################################################################

data_GUCWOR
_symmetry_cell_setting           monoclinic
_symmetry_space_group_name_H-M   'C 2/c'
_symmetry_Int_Tables_number      15
_space_group_name_Hall           '-C 2yn'
loop_
_symmetry_equiv_pos_site_id
_symmetry_equiv_pos_as_xyz
1 x,y,z
2 -x,y,1/2-z
3 1/2+x,1/2+y,z
4 1/2-x,1/2+y,1/2-z
5 -x,-y,-z
6 x,-y,1/2+z
7 1/2-x,1/2-y,-z
8 1/2+x,1/2-y,1/2+z
_cell_length_a                   20.500(3)
_cell_length_b                   18.480(3)
_cell_length_c                   26.562(5)
_cell_angle_alpha                90
_cell_angle_beta                 99.660(5)
_cell_angle_gamma                90
_cell_volume                     9920.07
loop_
_atom_site_label
_atom_site_type_symbol
_atom_site_fract_x
_atom_site_fract_y
_atom_site_fract_z
Zn1 Zn 0.19706(6) 0.88111(7) 0.94279(5)
Zn2 Zn -0.03556(7) 0.36383(8) 0.51145(5)
O1 O 0.0046(6) 0.4117(7) 0.5878(5)
O2 O 0.1031(7) 0.3846(8) 0.5681(5)
O3 O 0.2092(6) 0.5003(8) 0.5685(5)
O4 O 0.0508(6) 0.7032(7) 0.9553(5)
O5 O 0.0278(6) 0.5889(7) 0.9583(4)
O6 O 0.2397(7) 0.6214(9) 0.7679(6)
O7 O 0.1835(6) 0.7549(7) 0.9479(5)
O8 O 0.1278(6) 0.8073(7) 0.8807(4)
C1 C 0.2108(10) 0.4626(13) 0.6068(8)
C2 C 0.1646(8) 0.4810(10) 0.6456(5)
C3 C 0.1000(8) 0.4609(9) 0.6414(6)
C4 C 0.0649(10) 0.4188(9) 0.5952(8)
C5 C 0.0620(10) 0.4788(10) 0.6765(7)
H1 H 0.0188 0.4621 0.6737
C6 C 0.0907(9) 0.5250(10) 0.7189(6)
H2 H 0.0644 0.5416 0.7417
C7 C 0.1552(9) 0.5439(11) 0.7253(8)
C8 C 0.1932(9) 0.5280(10) 0.6882(7)
H3 H 0.2357 0.5466 0.6903
C9 C 0.1861(10) 0.5893(13) 0.7704(8)
C10 C 0.1575(6) 0.5985(7) 0.8154(4)
C11 C 0.1212(6) 0.5447(5) 0.8345(5)
H4 H 0.1171 0.4993 0.8192
C12 C 0.0909(5) 0.5587(6) 0.8766(4)
H5 H 0.0666 0.5227 0.8894
C13 C 0.0970(5) 0.6266(7) 0.8995(3)
C14 C 0.1334(6) 0.6804(5) 0.8803(4)
C15 C 0.1637(5) 0.6664(6) 0.8383(4)
H6 H 0.1880 0.7024 0.8254
C16 C 0.0601(10) 0.6413(10) 0.9407(9)
C17 C 0.1471(10) 0.7458(10) 0.9048(6)
C18 C 0.0680(9) 1.0584(11) 1.0590(8)
N1 N 0.0454(9) 1.0971(13) 1.0989(10)
C19 C 0.0156(14) 1.1514(14) 1.0721(14)
H7 H 0.0026 1.1920 1.0886
N2 N 0.0046(9) 1.1481(12) 1.0224(10)
H8 H -0.0197 1.1755 1.0007
C20 C 0.0442(8) 1.0860(10) 1.0134(9)
C21 C 0.0576(8) 1.0619(10) 0.9671(6)
C22 C 0.0987(8) 1.0078(8) 0.9729(7)
N3 N 0.1662(8) 0.9104(9) 1.0219(6)
C23 C 0.1873(10) 0.8753(10) 1.0651(8)
H9 H 0.2132 0.8340 1.0651
C24 C 0.1703(11) 0.9010(13) 1.1101(7)
H10 H 0.1872 0.8784 1.1408
C25 C 0.1279(13) 0.9606(12) 1.1098(7)
H11 H 0.1133 0.9751 1.1396
C26 C 0.1082(8) 0.9973(9) 1.0645(7)
C27 C 0.1248(9) 0.9687(11) 1.0211(9)
C28 C -0.2171(8) 0.1512(10) 0.4338(7)
N4 N -0.2539(8) 0.0971(10) 0.4054(6)
C29 C -0.2788(10) 0.0598(12) 0.4367(9)
H12 H -0.3090 0.0226 0.4274
N5 N -0.2570(7) 0.0796(8) 0.4847(8)
H13 H -0.2659 0.0579 0.5114
C30 C -0.2171(8) 0.1417(9) 0.4849(7)
N6 N -0.1124(8) 0.2882(10) 0.5426(7)
C31 C -0.1497(9) 0.2406(11) 0.5058(7)
C32 C -0.1850(8) 0.1867(10) 0.5232(9)
C33 C -0.1885(9) 0.1800(11) 0.5764(7)
H14 H -0.2149 0.1440 0.5871
C34 C -0.1545(9) 0.2244(11) 0.6111(8)
H15 H -0.1588 0.2215 0.6454
C35 C -0.1120(10) 0.2757(11) 0.5942(8)
H16 H -0.0831 0.3019 0.6183
C36 C -0.1125(10) 0.3226(13) 0.3920(7)
H17 H -0.0930 0.3645 0.3820
C37 C -0.1406(11) 0.2791(13) 0.3573(8)
H18 H -0.1348 0.2882 0.3239
C38 C -0.1768(9) 0.2230(11) 0.3648(7)
H19 H -0.1983 0.1940 0.3385
C39 C -0.1801(9) 0.2104(9) 0.4189(8)
C40 C -0.1466(7) 0.2515(9) 0.4537(7)
N7 N -0.1099(6) 0.3098(8) 0.4428(6)
O9 O -0.0965(6) 0.4701(6) 0.5057(5)
H20 H -0.1286 0.4785 0.4849
H21 H -0.0764 0.5054 0.5166
O10 O 0.2993(6) 0.8618(8) 0.9912(5)
H22 H 0.3272 0.8688 0.9741
H23 H 0.3043 0.8272 1.0096
O11 O 0.2517(6) 0.4110(8) 0.6205(5)
N8 N 0.1206(7) 0.9757(8) 0.9280(7)
C41 C 0.0976(10) 1.0037(10) 0.8858(7)
H24 H 0.1097 0.9830 0.8568
C42 C 0.0342(9) 1.0951(10) 0.9204(6)
H25 H 0.0066 1.1354 0.9177
C43 C 0.0551(10) 1.0636(11) 0.8784(6)
H26 H 0.0411 1.0820 0.8457
Zn1C Zn 0.30294(6) 0.38111(7) 0.55721(5)
Zn2E Zn -0.03556(7) 0.63617(8) 1.01145(5)
O5E O 0.0278(6) 0.4111(7) 0.4583(4)
O11C O 0.2483(6) 0.9110(8) 0.8795(5)
O12 O 0.9521(9) 0.2488(8) 0.9440(7)
H27 H 0.9351 0.2878 0.9401
H28 H 0.9820 0.2589 0.9663
O13 O 0.0494(17) 0.321(2) 0.7779(12)
H29 H 0.0281 0.2986 0.7951
H30 H 0.0216 0.3490 0.7634
O14 O 0.965(2) 0.2406(17) 0.8425(11)
H31 H 0.9620 0.2430 0.8722
H32 H 0.9426 0.2097 0.8271
loop_
_geom_bond_atom_site_label_1
_geom_bond_atom_site_label_2
_geom_bond_site_symmetry_1
_geom_bond_site_symmetry_2
Zn1 O7 1_555 1_555
Zn2 O1 1_555 1_555
O1 C4 1_555 1_555
O2 C4 1_555 1_555
O3 C1 1_555 1_555
O4 C16 1_555 1_555
O5 C16 1_555 1_555
O6 C9 1_555 1_555
O7 C17 1_555 1_555
O8 Zn1 1_555 1_555
C1 C2 1_555 1_555
C2 C3 1_555 1_555
C3 C4 1_555 1_555
C5 C3 1_555 1_555
H1 C5 1_555 1_555
C6 C5 1_555 1_555
H2 C6 1_555 1_555
C7 C6 1_555 1_555
C8 C2 1_555 1_555
H3 C8 1_555 1_555
C9 C7 1_555 1_555
C10 C9 1_555 1_555
C11 C10 1_555 1_555
H4 C11 1_555 1_555
C12 C11 1_555 1_555
H5 C12 1_555 1_555
C13 C12 1_555 1_555
C14 C13 1_555 1_555
C15 C10 1_555 1_555
H6 C15 1_555 1_555
C16 C13 1_555 1_555
C17 O8 1_555 1_555
C18 N1 1_555 1_555
N1 C19 1_555 1_555
C19 H7 1_555 1_555
N2 C19 1_555 1_555
H8 N2 1_555 1_555
C20 C18 1_555 1_555
C21 C20 1_555 1_555
C22 C21 1_555 1_555
N3 Zn1 1_555 1_555
C23 N3 1_555 1_555
H9 C23 1_555 1_555
C24 C23 1_555 1_555
H10 C24 1_555 1_555
C25 C24 1_555 1_555
H11 C25 1_555 1_555
C26 C18 1_555 1_555
C27 C22 1_555 1_555
C28 N4 1_555 1_555
N4 C29 1_555 1_555
C29 H12 1_555 1_555
N5 C29 1_555 1_555
H13 N5 1_555 1_555
C30 C28 1_555 1_555
N6 Zn2 1_555 1_555
C31 N6 1_555 1_555
C32 C30 1_555 1_555
C33 C32 1_555 1_555
H14 C33 1_555 1_555
C34 C33 1_555 1_555
H15 C34 1_555 1_555
C35 N6 1_555 1_555
H16 C35 1_555 1_555
C36 H17 1_555 1_555
C37 C36 1_555 1_555
H18 C37 1_555 1_555
C38 C37 1_555 1_555
H19 C38 1_555 1_555
C39 C28 1_555 1_555
C40 C31 1_555 1_555
N7 Zn2 1_555 1_555
O9 Zn2 1_555 1_555
H20 O9 1_555 1_555
H21 O9 1_555 1_555
O10 Zn1 1_555 1_555
H22 O10 1_555 1_555
H23 O10 1_555 1_555
O11 C1 1_555 1_555
N8 Zn1 1_555 1_555
C41 N8 1_555 1_555
H24 C41 1_555 1_555
C42 C21 1_555 1_555
H25 C42 1_555 1_555
C43 C41 1_555 1_555
H26 C43 1_555 1_555
O12 H27 1_555 1_555
H28 O12 1_555 1_555
O13 H29 1_555 1_555
H30 O13 1_555 1_555
O14 H31 1_555 1_555
H32 O14 1_555 1_555
Zn1C O11 1_555 1_555
Zn2E O5 1_555 1_555
O5E Zn2 1_555 1_555
O11C Zn1 1_555 1_555
C7 C8 1_555 1_555
C14 C15 1_555 1_555
C14 C17 1_555 1_555
N2 C20 1_555 1_555
C22 N8 1_555 1_555
N3 C27 1_555 1_555
C25 C26 1_555 1_555
C26 C27 1_555 1_555
N5 C30 1_555 1_555
C31 C32 1_555 1_555
C34 C35 1_555 1_555
C36 N7 1_555 1_555
C38 C39 1_555 1_555
C39 C40 1_555 1_555
C40 N7 1_555 1_555
C42 C43 1_555 1_555

#END
