
#######################################################################
#
#                 Cambridge Crystallographic Data Centre
#                                CCDC 
#
#######################################################################
#
# If this CIF has been generated from an entry in the Cambridge 
# Structural Database, then it will include bibliographic, chemical, 
# crystal, experimental, refinement or atomic coordinate data resulting 
# from the CCDC's data processing and validation procedures.
#
#######################################################################

data_GUCWAD
_symmetry_cell_setting           monoclinic
_symmetry_space_group_name_H-M   'C 2/c'
_symmetry_Int_Tables_number      15
_space_group_name_Hall           '-C 2yn'
loop_
_symmetry_equiv_pos_site_id
_symmetry_equiv_pos_as_xyz
1 x,y,z
2 -x,y,1/2-z
3 1/2+x,1/2+y,z
4 1/2-x,1/2+y,1/2-z
5 -x,-y,-z
6 x,-y,1/2+z
7 1/2-x,1/2-y,-z
8 1/2+x,1/2-y,1/2+z
_cell_length_a                   10.890(4)
_cell_length_b                   25.221(12)
_cell_length_c                   19.959(8)
_cell_angle_alpha                90
_cell_angle_beta                 101.217(7)
_cell_angle_gamma                90
_cell_volume                     5377.16
loop_
_atom_site_label
_atom_site_type_symbol
_atom_site_fract_x
_atom_site_fract_y
_atom_site_fract_z
C1 C 0.0000 -0.3445(4) 0.7500
Cd1 Cd 0.74037(4) 0.059658(18) 0.64086(3)
Cd2 Cd 0.0000 -0.04650(3) 0.7500
O1 O 0.5405(4) 0.05399(19) 0.6564(3)
O2 O 0.5878(4) -0.0295(2) 0.6344(3)
O3 O 0.8237(5) 0.0104(2) 0.5656(3)
O4 O 0.9622(5) 0.0670(2) 0.6141(3)
O5 O 0.1408(4) -0.03915(18) 0.6757(3)
O6 O 0.1617(4) 0.01604(16) 0.7616(2)
N1 N 0.6125(5) 0.3228(2) 0.5515(3)
N2 N 0.6690(5) 0.1281(2) 0.5620(3)
N3 N 0.7893(4) 0.14126(19) 0.6944(3)
N4 N 0.7239(5) 0.3345(2) 0.6568(3)
H1 H 0.7606 0.3503 0.6934
N5 N -0.0842(5) -0.1194(2) 0.6899(4)
N6 N -0.0582(5) -0.3151(2) 0.6972(3)
H2 H -0.0996 -0.3262 0.6587
C2 C 0.6318(5) 0.2221(3) 0.5483(4)
C3 C -0.0432(5) -0.1673(3) 0.7169(3)
C4 C 0.7499(5) 0.1851(2) 0.6578(3)
C5 C -0.0371(5) -0.2629(2) 0.7183(3)
C6 C -0.0811(6) -0.2152(2) 0.6840(4)
C7 C 0.9259(8) 0.0310(3) 0.5727(4)
C8 C 0.7719(6) 0.2362(2) 0.6850(4)
C9 C 0.6088(6) 0.1207(3) 0.4981(4)
H3 H 0.6016 0.0864 0.4808
C10 C 0.6526(6) 0.2735(2) 0.5794(4)
C11 C 0.6820(5) 0.1778(2) 0.5875(4)
C12 C 0.8523(6) 0.1472(3) 0.7597(4)
H4 H 0.8789 0.1172 0.7854
C13 C 0.5147(7) 0.0050(3) 0.6480(4)
C14 C 0.8382(6) 0.2409(3) 0.7535(4)
H5 H 0.8542 0.2741 0.7736
C15 C 0.5678(6) 0.2124(3) 0.4813(4)
H6 H 0.5329 0.2405 0.4540
C16 C -0.1639(7) -0.1193(3) 0.6281(5)
H7 H -0.1925 -0.0868 0.6093
C17 C 0.6597(7) 0.3562(3) 0.6028(5)
H8 H 0.6466 0.3926 0.5994
C18 C 0.7219(5) 0.2800(2) 0.6439(4)
C19 C -0.1638(6) -0.2127(3) 0.6189(4)
H9 H -0.1896 -0.2438 0.5951
C20 C 1.0170(8) 0.0147(3) 0.5249(4)
H10 H 1.0988 0.0273 0.5341
C21 C 0.5567(6) 0.1616(3) 0.4561(4)
H11 H 0.5148 0.1549 0.4117
C22 C 0.3895(6) -0.0114(3) 0.6601(3)
H12 H 0.3598 -0.0444 0.6437
C23 C -0.2045(7) -0.1649(3) 0.5919(4)
H13 H -0.2587 -0.1628 0.5498
C24 C 0.3176(6) 0.0168(2) 0.6918(3)
H14 H 0.3413 0.0514 0.7038
C25 C 0.8778(6) 0.1964(3) 0.7887(4)
H15 H 0.9229 0.1991 0.8332
H16 H 0.0000 -0.3817 0.7500
C26 C 0.2005(6) -0.0035(2) 0.7096(4)
Cd1A Cd -0.74037(4) 0.059658(18) 0.85914(3)
Cd1A_2 Cd 0.25963(4) 0.059658(18) 0.85914(3)
Cd1D Cd 1.25963(4) -0.059658(18) 0.35914(3)
Cd1_2 Cd -0.25963(4) 0.059658(18) 0.64086(3)
O1A O -0.5405(4) 0.05399(19) 0.8436(3)
O2A O -0.5878(4) -0.0295(2) 0.8656(3)
O3D O 1.1763(5) -0.0104(2) 0.4344(3)
O3A O -0.8237(5) 0.0104(2) 0.9344(3)
O4D O 1.0378(5) -0.0670(2) 0.3859(3)
O4A O -0.9622(5) 0.0670(2) 0.8859(3)
O5A O -0.1408(4) -0.03915(18) 0.8243(3)
O6A O -0.1617(4) 0.01604(16) 0.7384(2)
O6A_2 O 0.8383(4) 0.01604(16) 0.7384(2)
O6_2 O -0.8383(4) 0.01604(16) 0.7616(2)
N1A N -0.6125(5) 0.3228(2) 0.9485(3)
N2A N -0.6690(5) 0.1281(2) 0.9380(3)
N3A N -0.7893(4) 0.14126(19) 0.8056(3)
N4A N -0.7239(5) 0.3345(2) 0.8432(3)
H1A H -0.7606 0.3503 0.8066
N5A N 0.0842(5) -0.1194(2) 0.8101(4)
N6A N 0.0582(5) -0.3151(2) 0.8028(3)
H2A H 0.0996 -0.3262 0.8413
C2A C -0.6318(5) 0.2221(3) 0.9517(4)
C3A C 0.0432(5) -0.1673(3) 0.7831(3)
C4A C -0.7499(5) 0.1851(2) 0.8422(3)
C5A C 0.0371(5) -0.2629(2) 0.7817(3)
C6A C 0.0811(6) -0.2152(2) 0.8160(4)
C7D C 1.0741(8) -0.0310(3) 0.4273(4)
C8A C -0.7719(6) 0.2362(2) 0.8150(4)
C9A C -0.6088(6) 0.1207(3) 1.0019(4)
H3A H -0.6016 0.0864 1.0192
C10A C -0.6526(6) 0.2735(2) 0.9206(4)
C11A C -0.6820(5) 0.1778(2) 0.9125(4)
C12A C -0.8523(6) 0.1472(3) 0.7403(4)
H4A H -0.8789 0.1172 0.7146
C13A C -0.5147(7) 0.0050(3) 0.8520(4)
C14A C -0.8382(6) 0.2409(3) 0.7465(4)
H5A H -0.8542 0.2741 0.7264
C15A C -0.5678(6) 0.2124(3) 1.0187(4)
H6A H -0.5329 0.2405 1.0460
C16A C 0.1639(7) -0.1193(3) 0.8719(5)
H7A H 0.1925 -0.0868 0.8907
C17A C -0.6597(7) 0.3562(3) 0.8972(5)
H8A H -0.6466 0.3926 0.9006
C18A C -0.7219(5) 0.2800(2) 0.8561(4)
C19A C 0.1638(6) -0.2127(3) 0.8811(4)
H9A H 0.1896 -0.2438 0.9049
C20D C 0.9830(8) -0.0147(3) 0.4751(4)
H10D H 0.9012 -0.0273 0.4659
C21A C -0.5567(6) 0.1616(3) 1.0439(4)
H11A H -0.5148 0.1549 1.0883
C22A C -0.3895(6) -0.0114(3) 0.8399(3)
H12A H -0.3598 -0.0444 0.8563
C23A C 0.2045(7) -0.1649(3) 0.9081(4)
H13A H 0.2587 -0.1628 0.9502
C24A C -0.3176(6) 0.0168(2) 0.8082(3)
H14A H -0.3413 0.0514 0.7962
C25A C -0.8778(6) 0.1964(3) 0.7113(4)
H15A H -0.9229 0.1991 0.6668
C26A C -0.2005(6) -0.0035(2) 0.7904(4)
O7 O 0.3920(4) 0.12451(17) 0.2786(2)
H17 H 0.3676 0.0936 0.2865
H18 H 0.4341 0.1208 0.2474
O8 O 0.8221(5) 0.6392(2) 0.5755(3)
H19 H 0.7448 0.6438 0.5763
H20 H 0.8606 0.6455 0.6159
O9 O 0.5697(5) 0.3500(2) 0.0581(3)
H21 H 0.5037 0.3355 0.0349
H22 H 0.5430 0.3786 0.0731
O10 O 0.6326(7) 0.9535(3) 0.4937(4)
H23 H 0.6110 0.9485 0.5322
H24 H 0.6991 0.9726 0.5033
loop_
_geom_bond_atom_site_label_1
_geom_bond_atom_site_label_2
_geom_bond_site_symmetry_1
_geom_bond_site_symmetry_2
C1 N6 1_555 1_555
Cd1 O1 1_555 1_555
Cd2 O5 1_555 1_555
O1 C13 1_555 1_555
O2 Cd1 1_555 1_555
O3 Cd1 1_555 1_555
O4 Cd1 1_555 1_555
O5 C26 1_555 1_555
O6 Cd2 1_555 1_555
N1 C10 1_555 1_555
N2 Cd1 1_555 1_555
N3 Cd1 1_555 1_555
N4 H1 1_555 1_555
N5 Cd2 1_555 1_555
N6 H2 1_555 1_555
C2 C10 1_555 1_555
C3 N5 1_555 1_555
C4 N3 1_555 1_555
C5 N6 1_555 1_555
C6 C3 1_555 1_555
C7 O3 1_555 1_555
C8 C4 1_555 1_555
C9 N2 1_555 1_555
H3 C9 1_555 1_555
C10 C18 1_555 1_555
C11 N2 1_555 1_555
C12 N3 1_555 1_555
H4 C12 1_555 1_555
C13 O2 1_555 1_555
C14 C8 1_555 1_555
H5 C14 1_555 1_555
C15 C2 1_555 1_555
H6 C15 1_555 1_555
C16 N5 1_555 1_555
H7 C16 1_555 1_555
C17 N1 1_555 1_555
H8 C17 1_555 1_555
C18 N4 1_555 1_555
C19 C6 1_555 1_555
H9 C19 1_555 1_555
C20 C7 1_555 1_555
H10 C20 1_555 1_555
C21 C9 1_555 1_555
H11 C21 1_555 1_555
C22 C13 1_555 1_555
H12 C22 1_555 1_555
C23 C16 1_555 1_555
H13 C23 1_555 1_555
C24 C22 1_555 1_555
H14 C24 1_555 1_555
C25 C12 1_555 1_555
H15 C25 1_555 1_555
H16 C1 1_555 1_555
C26 O6 1_555 1_555
O7 H17 1_555 1_555
H18 O7 1_555 1_555
O8 H19 1_555 1_555
H20 O8 1_555 1_555
O9 H21 1_555 1_555
H22 O9 1_555 1_555
O10 H23 1_555 1_555
H24 O10 1_555 1_555
Cd1A O1A 1_555 1_555
Cd1A_2 O6 1_555 1_555
Cd1D O3D 1_555 1_555
Cd1_2 O6A 1_555 1_555
O1A C13A 1_555 1_555
O2A Cd1A 1_555 1_555
O3D C7D 1_555 1_555
O3A Cd1A 1_555 1_555
O4D Cd1D 1_555 1_555
O4A Cd1A 1_555 1_555
O5A Cd2 1_555 1_555
O6A Cd2 1_555 1_555
O6A_2 Cd1 1_555 1_555
O6_2 Cd1A 1_555 1_555
N1A C10A 1_555 1_555
N2A Cd1A 1_555 1_555
N3A Cd1A 1_555 1_555
N4A H1A 1_555 1_555
N5A Cd2 1_555 1_555
N6A C1 1_555 1_555
H2A N6A 1_555 1_555
C2A C10A 1_555 1_555
C3A C3 1_555 1_555
C4A N3A 1_555 1_555
C5A C5 1_555 1_555
C6A C3A 1_555 1_555
C7D O4D 1_555 1_555
C8A C4A 1_555 1_555
C9A N2A 1_555 1_555
H3A C9A 1_555 1_555
C10A C18A 1_555 1_555
C11A N2A 1_555 1_555
C12A N3A 1_555 1_555
H4A C12A 1_555 1_555
C13A O2A 1_555 1_555
C14A C8A 1_555 1_555
H5A C14A 1_555 1_555
C15A C2A 1_555 1_555
H6A C15A 1_555 1_555
C16A N5A 1_555 1_555
H7A C16A 1_555 1_555
C17A N1A 1_555 1_555
H8A C17A 1_555 1_555
C18A N4A 1_555 1_555
C19A C6A 1_555 1_555
H9A C19A 1_555 1_555
C20D C20 1_555 1_555
H10D C20D 1_555 1_555
C21A C9A 1_555 1_555
H11A C21A 1_555 1_555
C22A C13A 1_555 1_555
H12A C22A 1_555 1_555
C23A C16A 1_555 1_555
H13A C23A 1_555 1_555
C24A C22A 1_555 1_555
H14A C24A 1_555 1_555
C25A C12A 1_555 1_555
H15A C25A 1_555 1_555
C26A O5A 1_555 1_555
O4 C7 1_555 1_555
N4 C17 1_555 1_555
C2 C11 1_555 1_555
C4 C11 1_555 1_555
C5 C6 1_555 1_555
C8 C18 1_555 1_555
C14 C25 1_555 1_555
C15 C21 1_555 1_555
C19 C23 1_555 1_555
C24 C26 1_555 1_555
O6A C26A 1_555 1_555
N4A C17A 1_555 1_555
N5A C3A 1_555 1_555
N6A C5A 1_555 1_555
C2A C11A 1_555 1_555
C4A C11A 1_555 1_555
C5A C6A 1_555 1_555
C7D C20D 1_555 1_555
C8A C18A 1_555 1_555
C14A C25A 1_555 1_555
C15A C21A 1_555 1_555
C19A C23A 1_555 1_555
C24A C26A 1_555 1_555

#END
