
#######################################################################
#
#                 Cambridge Crystallographic Data Centre
#                                CCDC 
#
#######################################################################
#
# If this CIF has been generated from an entry in the Cambridge 
# Structural Database, then it will include bibliographic, chemical, 
# crystal, experimental, refinement or atomic coordinate data resulting 
# from the CCDC's data processing and validation procedures.
#
#######################################################################

data_GUCXAE
_symmetry_cell_setting           monoclinic
_symmetry_space_group_name_H-M   'C 2/c'
_symmetry_Int_Tables_number      15
_space_group_name_Hall           '-C 2yn'
loop_
_symmetry_equiv_pos_site_id
_symmetry_equiv_pos_as_xyz
1 x,y,z
2 -x,y,1/2-z
3 1/2+x,1/2+y,z
4 1/2-x,1/2+y,1/2-z
5 -x,-y,-z
6 x,-y,1/2+z
7 1/2-x,1/2-y,-z
8 1/2+x,1/2-y,1/2+z
_cell_length_a                   14.048(3)
_cell_length_b                   24.077(5)
_cell_length_c                   16.737(5)
_cell_angle_alpha                90
_cell_angle_beta                 94.561(3)
_cell_angle_gamma                90
_cell_volume                     5643.09
loop_
_atom_site_label
_atom_site_type_symbol
_atom_site_fract_x
_atom_site_fract_y
_atom_site_fract_z
Mn1 Mn -0.14840(8) 0.16797(5) -0.03560(6)
O1 O -0.0698(7) 0.2414(4) 0.0340(6)
O2 O -0.0342(8) 0.1556(4) 0.0828(5)
O3 O 0.2297(8) 0.3476(5) 0.3523(6)
O4 O 0.2868(7) 0.2645(4) 0.3812(5)
N1 N -0.0256(9) 0.1517(5) -0.1114(6)
N2 N -0.1341(9) 0.0725(5) -0.0507(7)
N3 N 0.1705(9) 0.0023(7) -0.2111(7)
N4 N 0.0811(14) -0.0665(5) -0.1629(8)
H1 H 0.0598 -0.0982 -0.1487
C1 C 0.0243(15) 0.1935(7) -0.1369(9)
H2 H 0.0082 0.2299 -0.1249
C2 C 0.1079(14) 0.1819(10) -0.1856(10)
H3 H 0.1438 0.2105 -0.2054
C3 C 0.1299(12) 0.1234(9) -0.2004(9)
H4 H 0.1791 0.1144 -0.2321
C4 C 0.0776(13) 0.0814(7) -0.1674(8)
C5 C -0.0034(10) 0.0983(6) -0.1213(7)
C6 C 0.0953(12) 0.0270(7) -0.1737(8)
C7 C 0.0379(12) -0.0125(8) -0.1471(8)
C8 C 0.1696(15) -0.0576(11) -0.2083(12)
H5 H 0.2110 -0.0833 -0.2285
C9 C -0.0451(11) -0.0015(7) -0.1018(8)
C10 C -0.1077(13) -0.0368(6) -0.0673(9)
H6 H -0.0958 -0.0746 -0.0720
C11 C -0.1832(12) -0.0229(9) -0.0282(9)
H7 H -0.2255 -0.0482 -0.0085
C12 C -0.1904(12) 0.0342(8) -0.0207(8)
H8 H -0.2396 0.0473 0.0083
C13 C -0.0598(11) 0.0571(6) -0.0917(7)
C14 C -0.0189(11) 0.2074(7) 0.0855(7)
C15 C 0.0501(9) 0.2312(5) 0.1457(7)
C16 C 0.0591(10) 0.2852(6) 0.1571(8)
H9 H 0.0268 0.3090 0.1206
C17 C 0.1140(10) 0.3077(6) 0.2202(8)
H10 H 0.1134 0.3458 0.2295
C18 C 0.1698(9) 0.2734(6) 0.2695(7)
C19 C 0.1610(10) 0.2183(7) 0.2565(8)
H11 H 0.1959 0.1943 0.2910
C20 C 0.1042(11) 0.1966(6) 0.1963(8)
H12 H 0.1014 0.1583 0.1888
C21 C 0.2292(10) 0.2987(7) 0.3384(7)
O5 O -0.2671(7) 0.1650(4) 0.0433(7)
H13 H -0.3070 0.1910 0.0461
H14 H -0.3105 0.1481 0.0133
Mn1G Mn 0.35160(8) 0.33203(5) 0.46440(6)
O3G O -0.2703(8) 0.1524(5) -0.1477(6)
O4G O -0.2132(7) 0.2355(4) -0.1188(5)
O6 O 0.1634(8) 0.4577(5) 0.2840(8)
H15 H 0.1799 0.4280 0.3014
H16 H 0.2074 0.4698 0.2619
loop_
_geom_bond_atom_site_label_1
_geom_bond_atom_site_label_2
_geom_bond_site_symmetry_1
_geom_bond_site_symmetry_2
Mn1 O1 1_555 1_555
O1 C14 1_555 1_555
O2 Mn1 1_555 1_555
O3 C21 1_555 1_555
O4 C21 1_555 1_555
N1 Mn1 1_555 1_555
N2 Mn1 1_555 1_555
N3 C6 1_555 1_555
N4 H1 1_555 1_555
C1 N1 1_555 1_555
H2 C1 1_555 1_555
C2 C1 1_555 1_555
H3 C2 1_555 1_555
C3 C2 1_555 1_555
H4 C3 1_555 1_555
C4 C3 1_555 1_555
C5 N1 1_555 1_555
C6 C4 1_555 1_555
C7 N4 1_555 1_555
C8 N3 1_555 1_555
H5 C8 1_555 1_555
C9 C7 1_555 1_555
C10 C9 1_555 1_555
H6 C10 1_555 1_555
C11 C10 1_555 1_555
H7 C11 1_555 1_555
C12 N2 1_555 1_555
H8 C12 1_555 1_555
C13 N2 1_555 1_555
C14 O2 1_555 1_555
C15 C14 1_555 1_555
C16 C15 1_555 1_555
H9 C16 1_555 1_555
C17 C16 1_555 1_555
H10 C17 1_555 1_555
C18 C17 1_555 1_555
C19 C18 1_555 1_555
H11 C19 1_555 1_555
C20 C15 1_555 1_555
H12 C20 1_555 1_555
C21 C18 1_555 1_555
O5 Mn1 1_555 1_555
H13 O5 1_555 1_555
H14 O5 1_555 1_555
O6 H15 1_555 1_555
H16 O6 1_555 1_555
Mn1G O3 1_555 1_555
O3G Mn1 1_555 1_555
O4G Mn1 1_555 1_555
O4 Mn1G 1_555 1_555
N4 C8 1_555 1_555
C4 C5 1_555 1_555
C5 C13 1_555 1_555
C6 C7 1_555 1_555
C9 C13 1_555 1_555
C11 C12 1_555 1_555
C19 C20 1_555 1_555

#END
