
#######################################################################
#
#                 Cambridge Crystallographic Data Centre
#                                CCDC 
#
#######################################################################
#
# If this CIF has been generated from an entry in the Cambridge 
# Structural Database, then it will include bibliographic, chemical, 
# crystal, experimental, refinement or atomic coordinate data resulting 
# from the CCDC's data processing and validation procedures.
#
#######################################################################

data_GUCXEI
_symmetry_cell_setting           triclinic
_symmetry_space_group_name_H-M   'P -1'
_symmetry_Int_Tables_number      2
_space_group_name_Hall           '-P 1'
loop_
_symmetry_equiv_pos_site_id
_symmetry_equiv_pos_as_xyz
1 x,y,z
2 -x,-y,-z
_cell_length_a                   9.079(2)
_cell_length_b                   12.415(3)
_cell_length_c                   13.982(3)
_cell_angle_alpha                102.897(5)
_cell_angle_beta                 99.497(4)
_cell_angle_gamma                105.805(4)
_cell_volume                     1434.69
loop_
_atom_site_label
_atom_site_type_symbol
_atom_site_fract_x
_atom_site_fract_y
_atom_site_fract_z
C1 C 1.6188(7) 0.9553(7) 1.0271(5)
H1 H 1.6989 0.9251 1.0452
O1 O 0.9282(5) 1.1007(4) 0.5421(3)
C2 C 1.4680(7) 0.8801(6) 0.9800(5)
H2 H 1.4472 0.7999 0.9668
C3 C 0.3478(8) 0.4569(7) 0.9420(5)
H3 H 0.2453 0.4278 0.9020
C4 C 0.4128(7) 0.4884(6) 0.4041(5)
H4 H 0.3557 0.4806 0.3399
C5 C 0.3867(7) 0.8917(6) 0.4751(4)
H5 H 0.3108 0.8186 0.4580
C6 C 0.4626(9) 0.5392(7) 0.9171(5)
H6 H 0.4359 0.5654 0.8614
C7 C 0.5455(7) 0.9039(7) 0.5090(5)
H7 H 0.5752 0.8393 0.5153
N1 N 0.2062(6) 0.8098(5) 0.6496(4)
N2 N 0.2342(6) 1.0343(6) 0.6857(4)
C8 C 0.3674(7) 1.0083(7) 0.7175(4)
C9 C 0.3500(7) 0.8839(6) 0.6989(4)
C10 C 0.1860(8) 0.6972(7) 0.6327(5)
H8 H 0.0866 0.6449 0.5984
C11 C 0.3040(8) 0.6522(7) 0.6628(5)
H9 H 0.2835 0.5720 0.6500
Zn1 Zn 1.04044(8) 0.88710(7) 0.59580(6)
Zn2 Zn 0.86185(8) 0.79632(8) 0.82479(6)
O2 O 1.0792(5) 0.8906(5) 0.8815(3)
C12 C 0.6256(7) 0.9375(7) 0.7794(4)
O3 O 0.8630(5) 0.9557(4) 0.6127(3)
N3 N 0.7732(6) 0.9274(5) 0.8192(4)
O4 O 0.8644(5) 0.7305(4) 0.5271(3)
N4 N 0.7980(6) 1.1167(6) 0.8429(4)
H10 H 0.8423 1.1912 0.8609
O5 O 0.8488(5) 0.7223(4) 0.6818(3)
C13 C 0.7960(7) 0.6884(6) 0.5871(6)
O6 O 0.7166(5) 0.6734(5) 0.8579(4)
O7 O 1.1568(6) 0.7365(6) 0.8822(4)
C14 C 0.6393(7) 1.0544(7) 0.7944(5)
C15 C 0.8653(8) 1.0368(7) 0.8552(5)
H11 H 0.9712 1.0568 0.8872
C16 C 0.4501(8) 0.7276(7) 0.7116(5)
H12 H 0.5313 0.6993 0.7322
C17 C 1.3477(7) 0.9246(7) 0.9522(4)
C18 C 0.5108(8) 1.0944(7) 0.7655(5)
C19 C 0.4786(7) 0.8483(7) 0.7309(5)
C20 C 0.5540(7) 0.5779(6) 0.4469(5)
H13 H 0.5903 0.6309 0.4117
C21 C 1.1819(8) 0.8426(8) 0.9017(5)
C22 C 0.6436(7) 0.5898(6) 0.5432(5)
C23 C 0.2464(8) 1.1463(8) 0.7036(5)
H14 H 0.1562 1.1653 0.6831
C24 C 0.8292(7) 1.0238(7) 0.5652(5)
C25 C 0.6159(8) 0.5816(6) 0.9750(5)
C26 C 0.3849(9) 1.2357(7) 0.7506(5)
H15 H 0.3869 1.3128 0.7606
O8 O 0.8531(7) 0.7371(6) 1.0150(5)
C27 C 0.7382(9) 0.6721(8) 0.9480(7)
C28 C 0.5192(9) 1.2116(7) 0.7825(5)
H16 H 0.6137 1.2713 0.8147
C29 C 0.6582(7) 1.0126(6) 0.5333(5)
C1A C 1.3812(7) 1.0447(7) 0.9729(5)
H1A H 1.3011 1.0749 0.9548
O1A O 0.0718(5) 0.8993(4) 0.4579(3)
O1_2 O -0.0718(5) 0.1007(4) 0.5421(3)
O1A_2 O 1.0718(5) 0.8993(4) 0.4579(3)
C2A C 1.5320(7) 1.1199(6) 1.0200(5)
H2A H 1.5528 1.2001 1.0332
C3A C 0.6522(8) 0.5431(7) 1.0580(5)
H3A H 0.7547 0.5722 1.0980
C4A C 0.5872(7) 0.5116(6) 0.5959(5)
H4A H 0.6443 0.5194 0.6601
C5A C 0.6133(7) 1.1083(6) 0.5249(4)
H5A H 0.6892 1.1814 0.5420
C6A C 0.5374(9) 0.4608(7) 1.0829(5)
H6A H 0.5641 0.4346 1.1386
C7A C 0.4545(7) 1.0961(7) 0.4910(5)
H7A H 0.4248 1.1607 0.4847
N1A N 0.7938(6) 0.1902(5) 0.3504(4)
N1_2 N 1.2062(6) 0.8098(5) 0.6496(4)
N1A_2 N -0.2062(6) 0.1902(5) 0.3504(4)
N2A N 0.7658(6) -0.0343(6) 0.3143(4)
N2_2 N 1.2342(6) 1.0343(6) 0.6857(4)
N2A_2 N -0.2342(6) -0.0343(6) 0.3143(4)
C8A C 0.6326(7) -0.0083(7) 0.2825(4)
C9A C 0.6500(7) 0.1161(6) 0.3011(4)
C10A C 0.8140(8) 0.3028(7) 0.3673(5)
H8A H 0.9134 0.3551 0.4016
C11A C 0.6960(8) 0.3478(7) 0.3372(5)
H9A H 0.7165 0.4280 0.3500
Zn1A Zn -0.04044(8) 0.11290(7) 0.40420(6)
Zn1_2 Zn 0.04044(8) 0.88710(7) 0.59580(6)
Zn1A_2 Zn -0.04044(8) 1.11290(7) 0.40420(6)
Zn1A_3 Zn 0.95956(8) 0.11290(7) 0.40420(6)
Zn1A_4 Zn 0.95956(8) 1.11290(7) 0.40420(6)
Zn2A Zn 0.13815(8) 0.20368(8) 0.17521(6)
Zn2A_2 Zn 0.13815(8) 0.20368(8) 1.17521(6)
Zn2A_3 Zn 2.13815(8) 1.20368(8) 1.17521(6)
O2A O 1.9208(5) 1.1094(5) 1.1185(3)
O2A_2 O -0.0792(5) 0.1094(5) 0.1185(3)
C12A C 0.3744(7) 0.0625(7) 0.2206(4)
O3A O 0.1370(5) 1.0443(4) 0.3873(3)
O3A_2 O 0.1370(5) 0.0443(4) 0.3873(3)
N3A N 0.2268(6) 0.0726(5) 0.1808(4)
O4A O 0.1356(5) 0.2695(4) 0.4729(3)
N4A N 0.2020(6) -0.1167(6) 0.1571(4)
H10A H 0.1577 -0.1912 0.1391
O5A O 0.1512(5) 0.2777(4) 0.3182(3)
C13A C 0.2040(7) 0.3116(6) 0.4129(6)
O6A O 0.2834(5) 0.3266(5) 1.1421(4)
O6A_2 O 0.2834(5) 0.3266(5) 0.1421(4)
O7A O 1.8432(6) 1.2635(6) 1.1178(4)
C14A C 0.3607(7) -0.0544(7) 0.2056(5)
C15A C 0.1347(8) -0.0368(7) 0.1448(5)
H11A H 0.0288 -0.0568 0.1128
C16A C 0.5499(8) 0.2724(7) 0.2884(5)
H12A H 0.4687 0.3007 0.2678
C17A C 1.6523(7) 1.0754(7) 1.0478(4)
C18A C 0.4892(8) -0.0944(7) 0.2345(5)
C19A C 0.5214(7) 0.1517(7) 0.2691(5)
C20A C 0.4460(7) 0.4221(6) 0.5531(5)
H13A H 0.4097 0.3691 0.5883
C21A C 1.8181(8) 1.1574(8) 1.0983(5)
C22A C 0.3564(7) 0.4102(6) 0.4568(5)
C23A C 0.7536(8) -0.1463(8) 0.2964(5)
H14A H 0.8438 -0.1653 0.3169
C24A C 0.1708(7) 0.9762(7) 0.4348(5)
C25A C 0.3841(8) 0.4184(6) 1.0250(5)
C26A C 0.6151(9) -0.2357(7) 0.2494(5)
H15A H 0.6131 -0.3128 0.2394
O8A O 0.1469(7) 0.2629(6) 0.9850(5)
C27A C 0.2618(9) 0.3279(8) 1.0520(7)
C28A C 0.4808(9) -0.2116(7) 0.2175(5)
H16A H 0.3863 -0.2713 0.1853
C29A C 0.3418(7) 0.9874(6) 0.4667(5)
O9 O 0.8944(18) 0.6202(11) 0.3209(9)
H17 H 0.8858 0.6521 0.3709
H18 H 0.9717 0.6450 0.2931
O10 O 0.8936(8) 0.3629(7) 0.9284(7)
H19 H 0.9645 0.3324 0.9412
H20 H 0.8382 0.4023 0.9557
O11 O 0.9510(11) 0.4985(9) 0.7851(9)
H21 H 1.0113 0.5669 0.8100
H22 H 0.9328 0.4567 0.8238
loop_
_geom_bond_atom_site_label_1
_geom_bond_atom_site_label_2
_geom_bond_site_symmetry_1
_geom_bond_site_symmetry_2
C1 H1 1_555 1_555
O1 C24 1_555 1_555
C2 C1 1_555 1_555
H2 C2 1_555 1_555
C3 H3 1_555 1_555
C4 H4 1_555 1_555
C5 H5 1_555 1_555
C6 C3 1_555 1_555
H6 C6 1_555 1_555
C7 C5 1_555 1_555
H7 C7 1_555 1_555
N1 C9 1_555 1_555
N2 C8 1_555 1_555
C8 C9 1_555 1_555
C9 C19 1_555 1_555
C10 N1 1_555 1_555
H8 C10 1_555 1_555
C11 C10 1_555 1_555
H9 C11 1_555 1_555
Zn1 O3 1_555 1_555
Zn2 O2 1_555 1_555
O2 C21 1_555 1_555
C12 N3 1_555 1_555
O3 C24 1_555 1_555
N3 Zn2 1_555 1_555
O4 Zn1 1_555 1_555
N4 H10 1_555 1_555
O5 Zn2 1_555 1_555
C13 O4 1_555 1_555
O6 Zn2 1_555 1_555
O7 C21 1_555 1_555
C14 C12 1_555 1_555
C15 N3 1_555 1_555
H11 C15 1_555 1_555
C16 C11 1_555 1_555
H12 C16 1_555 1_555
C17 C2 1_555 1_555
C18 C8 1_555 1_555
C19 C12 1_555 1_555
C20 C4 1_555 1_555
H13 C20 1_555 1_555
C21 C17 1_555 1_555
C22 C13 1_555 1_555
C23 N2 1_555 1_555
H14 C23 1_555 1_555
C24 C29 1_555 1_555
C25 C6 1_555 1_555
C26 C23 1_555 1_555
H15 C26 1_555 1_555
O8 C27 1_555 1_555
C27 O6 1_555 1_555
C28 C18 1_555 1_555
H16 C28 1_555 1_555
C29 C7 1_555 1_555
O9 H17 1_555 1_555
H18 O9 1_555 1_555
O10 H19 1_555 1_555
H20 O10 1_555 1_555
O11 H21 1_555 1_555
H22 O11 1_555 1_555
C1A C17 1_555 1_555
H1A C1A 1_555 1_555
O1A Zn1_2 1_555 1_555
O1_2 Zn1A 1_555 1_555
O1A_2 Zn1 1_555 1_555
C2A C1A 1_555 1_555
H2A C2A 1_555 1_555
C3A C25 1_555 1_555
H3A C3A 1_555 1_555
C4A C22 1_555 1_555
H4A C4A 1_555 1_555
C5A C29 1_555 1_555
H5A C5A 1_555 1_555
C6A C3A 1_555 1_555
H6A C6A 1_555 1_555
C7A C5A 1_555 1_555
H7A C7A 1_555 1_555
N1A C9A 1_555 1_555
N1_2 Zn1 1_555 1_555
N1A_2 Zn1A 1_555 1_555
N2A C8A 1_555 1_555
N2_2 Zn1 1_555 1_555
N2A_2 Zn1A 1_555 1_555
C8A C9A 1_555 1_555
C9A C19A 1_555 1_555
C10A N1A 1_555 1_555
H8A C10A 1_555 1_555
C11A C10A 1_555 1_555
H9A C11A 1_555 1_555
Zn1A O3A_2 1_555 1_555
Zn1_2 N1 1_555 1_555
Zn1A_2 O3A 1_555 1_555
Zn1A_3 N1A 1_555 1_555
Zn1A_4 O1 1_555 1_555
Zn2A O2A_2 1_555 1_555
Zn2A_2 O6A 1_555 1_555
Zn2A_3 O2A 1_555 1_555
O2A C21A 1_555 1_555
C12A N3A 1_555 1_555
O3A C24A 1_555 1_555
N3A Zn2A 1_555 1_555
O4A Zn1A 1_555 1_555
N4A H10A 1_555 1_555
O5A Zn2A 1_555 1_555
C13A O4A 1_555 1_555
O6A C27A 1_555 1_555
O6A_2 Zn2A 1_555 1_555
O7A C21A 1_555 1_555
C14A C12A 1_555 1_555
C15A N3A 1_555 1_555
H11A C15A 1_555 1_555
C16A C11A 1_555 1_555
H12A C16A 1_555 1_555
C17A C1 1_555 1_555
C18A C8A 1_555 1_555
C19A C12A 1_555 1_555
C20A C4A 1_555 1_555
H13A C20A 1_555 1_555
C21A C17A 1_555 1_555
C22A C4 1_555 1_555
C23A N2A 1_555 1_555
H14A C23A 1_555 1_555
C24A O1A 1_555 1_555
C25A C3 1_555 1_555
C26A C23A 1_555 1_555
H15A C26A 1_555 1_555
O8A C27A 1_555 1_555
C27A C25A 1_555 1_555
C28A C18A 1_555 1_555
H16A C28A 1_555 1_555
C29A C5 1_555 1_555
N2 Zn1_2 1_555 1_555
N4 C14 1_555 1_555
N4 C15 1_555 1_555
O5 C13 1_555 1_555
C14 C18 1_555 1_555
C16 C19 1_555 1_555
C20 C22 1_555 1_555
C25 C27 1_555 1_555
C26 C28 1_555 1_555
C2A C17A 1_555 1_555
C6A C25A 1_555 1_555
C7A C29A 1_555 1_555
N2A Zn1A_3 1_555 1_555
N4A C14A 1_555 1_555
N4A C15A 1_555 1_555
O5A C13A 1_555 1_555
C13A C22A 1_555 1_555
C14A C18A 1_555 1_555
C16A C19A 1_555 1_555
C20A C22A 1_555 1_555
C24A C29A 1_555 1_555
C26A C28A 1_555 1_555

#END
