
#######################################################################
#
#                 Cambridge Crystallographic Data Centre
#                                CCDC 
#
#######################################################################
#
# If this CIF has been generated from an entry in the Cambridge 
# Structural Database, then it will include bibliographic, chemical, 
# crystal, experimental, refinement or atomic coordinate data resulting 
# from the CCDC's data processing and validation procedures.
#
#######################################################################

data_GUCXIN
_symmetry_cell_setting           orthorhombic
_symmetry_space_group_name_H-M   'P b c n'
_symmetry_Int_Tables_number      60
_space_group_name_Hall           '-P 2n 2ab'
loop_
_symmetry_equiv_pos_site_id
_symmetry_equiv_pos_as_xyz
1 x,y,z
2 1/2-x,1/2-y,1/2+z
3 -x,y,1/2-z
4 1/2+x,1/2-y,-z
5 -x,-y,-z
6 1/2+x,1/2+y,1/2-z
7 x,-y,1/2+z
8 1/2-x,1/2+y,z
_cell_length_a                   28.906(3)
_cell_length_b                   13.5294(14)
_cell_length_c                   17.8727(18)
_cell_angle_alpha                90
_cell_angle_beta                 90
_cell_angle_gamma                90
_cell_volume                     6989.67
loop_
_atom_site_label
_atom_site_type_symbol
_atom_site_fract_x
_atom_site_fract_y
_atom_site_fract_z
Cd1 Cd 0.5000 0.5000 0.0000
C1 C 0.18083(7) 0.48992(13) 0.35150(12)
H1 H 0.1937 0.4968 0.3041
C2 C 0.15203(7) 0.41124(13) 0.36673(11)
H2 H 0.1463 0.3650 0.3294
C3 C 0.13129(6) 0.39891(13) 0.43649(10)
C4 C 0.14044(8) 0.47043(16) 0.49011(11)
H3 H 0.1267 0.4652 0.5370
C5 C 0.16951(7) 0.54930(14) 0.47569(11)
H4 H 0.1748 0.5962 0.5127
C6 C 0.19079(6) 0.55925(12) 0.40686(10)
C7 C 0.10185(7) 0.31207(14) 0.45234(11)
C8 C 0.10600(8) 0.22579(15) 0.41178(12)
H5 H 0.1278 0.2218 0.3736
C9 C 0.07833(8) 0.14555(16) 0.42714(12)
H6 H 0.0820 0.0890 0.3982
C10 C 0.04315(8) 0.22706(17) 0.52116(13)
H7 H 0.0217 0.2283 0.5599
C11 C 0.06925(8) 0.31088(17) 0.50891(12)
H8 H 0.0649 0.3665 0.5387
C12 C 0.17621(6) 0.78034(13) 0.43388(10)
H9 H 0.1512 0.7585 0.4056
C13 C 0.17225(7) 0.86476(14) 0.47612(11)
H10 H 0.1444 0.8990 0.4760
C14 C 0.20873(6) 0.90053(13) 0.51915(10)
C15 C 0.24978(7) 0.84726(14) 0.51670(11)
H11 H 0.2750 0.8694 0.5443
C16 C 0.25409(6) 0.76259(13) 0.47451(13)
H12 H 0.2821 0.7288 0.4739
C17 C 0.21746(6) 0.72752(12) 0.43329(10)
C18 C 0.20426(7) 0.99258(13) 0.56355(12)
C19 C 0.16709(8) 1.05517(15) 0.55695(14)
H13 H 0.1437 1.0407 0.5230
C20 C 0.16412(10) 1.13894(17) 0.60002(17)
H14 H 0.1381 1.1785 0.5940
C21 C 0.23127(11) 1.1074(2) 0.65534(16)
H15 H 0.2543 1.1247 0.6893
C22 C 0.23728(9) 1.02116(18) 0.61547(15)
H16 H 0.2634 0.9823 0.6234
C23 C 0.28607(7) 0.53854(14) 0.34673(11)
H17 H 0.2770 0.4872 0.3781
C24 C 0.32490(7) 0.52742(14) 0.30221(11)
H18 H 0.3416 0.4687 0.3044
C25 C 0.33951(6) 0.60204(13) 0.25433(9)
C26 C 0.31354(7) 0.68862(14) 0.25330(10)
H19 H 0.3224 0.7400 0.2218
C27 C 0.27494(7) 0.70001(13) 0.29787(10)
H20 H 0.2583 0.7588 0.2962
C28 C 0.26066(6) 0.62466(12) 0.34522(10)
C29 C 0.38024(6) 0.58855(13) 0.20498(9)
C30 C 0.41194(7) 0.51306(15) 0.21574(12)
H21 H 0.4097 0.4727 0.2577
C31 C 0.44692(7) 0.49740(15) 0.16435(12)
H22 H 0.4676 0.4459 0.1731
C32 C 0.42379(7) 0.62817(15) 0.09481(11)
H23 H 0.4279 0.6698 0.0540
C33 C 0.38805(7) 0.64879(14) 0.14354(11)
H24 H 0.3691 0.7033 0.1351
Cl1 Cl 0.551426(16) 0.39996(4) 0.09353(3)
N1 N 0.22124(5) 0.63815(10) 0.39139(8)
N2 N 0.04666(6) 0.14438(12) 0.48104(9)
N3 N 0.19529(10) 1.16764(16) 0.64921(14)
N4 N 0.45268(5) 0.55227(13) 0.10276(9)
C1D C 0.81917(7) 0.51008(13) -0.35150(12)
H1D H 0.8063 0.5032 -0.3041
C2D C 0.84797(7) 0.58876(13) -0.36673(11)
H2D H 0.8537 0.6350 -0.3294
C3D C 0.86871(6) 0.60109(13) -0.43649(10)
C4D C 0.85956(8) 0.52957(16) -0.49011(11)
H3D H 0.8733 0.5348 -0.5370
C5D C 0.83049(7) 0.45070(14) -0.47569(11)
H4D H 0.8252 0.4038 -0.5127
C6D C 0.80921(6) 0.44075(12) -0.40686(10)
C7D C 0.89815(7) 0.68793(14) -0.45234(11)
C8D C 0.89400(8) 0.77421(15) -0.41178(12)
H5D H 0.8722 0.7782 -0.3736
C9D C 0.92167(8) 0.85445(16) -0.42714(12)
H6D H 0.9180 0.9110 -0.3982
C10D C 0.95685(8) 0.77294(17) -0.52116(13)
H7D H 0.9783 0.7717 -0.5599
C11D C 0.93075(8) 0.68912(17) -0.50891(12)
H8D H 0.9351 0.6335 -0.5387
C12D C 0.82379(6) 0.21966(13) -0.43388(10)
H9D H 0.8488 0.2415 -0.4056
C13D C 0.82775(7) 0.13524(14) -0.47612(11)
H10D H 0.8556 0.1010 -0.4760
C14D C 0.79127(6) 0.09947(13) -0.51915(10)
C15D C 0.75022(7) 0.15274(14) -0.51670(11)
H11D H 0.7250 0.1306 -0.5443
C16D C 0.74591(6) 0.23741(13) -0.47451(13)
H12D H 0.7179 0.2712 -0.4739
C17D C 0.78254(6) 0.27248(12) -0.43329(10)
C18D C 0.79574(7) 0.00742(13) -0.56355(12)
C19D C 0.83291(8) -0.05517(15) -0.55695(14)
H13D H 0.8563 -0.0407 -0.5230
C20D C 0.83588(10) -0.13894(17) -0.60002(17)
H14D H 0.8619 -0.1785 -0.5940
C21D C 0.76873(11) -0.1074(2) -0.65534(16)
H15D H 0.7457 -0.1247 -0.6893
C22D C 0.76272(9) -0.02116(18) -0.61547(15)
H16D H 0.7366 0.0177 -0.6234
C23D C 0.71393(7) 0.46146(14) -0.34673(11)
H17D H 0.7230 0.5128 -0.3781
C24D C 0.67510(7) 0.47258(14) -0.30221(11)
H18D H 0.6584 0.5313 -0.3044
C25D C 0.66049(6) 0.39796(13) -0.25433(9)
C26D C 0.68646(7) 0.31138(14) -0.25330(10)
H19D H 0.6776 0.2600 -0.2218
C27D C 0.72506(7) 0.29999(13) -0.29787(10)
H20D H 0.7417 0.2412 -0.2962
C28D C 0.73934(6) 0.37534(12) -0.34522(10)
C29D C 0.61976(6) 0.41145(13) -0.20498(9)
C30D C 0.58806(7) 0.48694(15) -0.21574(12)
H21D H 0.5903 0.5273 -0.2577
C31D C 0.55308(7) 0.50260(15) -0.16435(12)
H22D H 0.5324 0.5541 -0.1731
C32D C 0.57621(7) 0.37183(15) -0.09481(11)
H23D H 0.5721 0.3302 -0.0540
C33D C 0.61195(7) 0.35121(14) -0.14354(11)
H24D H 0.6309 0.2967 -0.1351
Cl1D Cl 0.448574(16) 0.60004(4) -0.09353(3)
N1D N 0.77876(5) 0.36185(10) -0.39139(8)
N2D N 0.95334(6) 0.85562(12) -0.48104(9)
N3D N 0.80471(10) -0.16764(16) -0.64921(14)
N4D N 0.54732(5) 0.44773(13) -0.10276(9)
Cd1A Cd 0.0000 0.0000 0.5000
Cd1A_2 Cd 1.0000 1.0000 -0.5000
N2A N 0.45334(6) 0.35562(12) -0.01896(9)
N2E N 0.54666(6) 0.64438(12) 0.01896(9)
loop_
_geom_bond_atom_site_label_1
_geom_bond_atom_site_label_2
_geom_bond_site_symmetry_1
_geom_bond_site_symmetry_2
Cd1 Cl1 1_555 1_555
C1 H1 1_555 1_555
C2 C1 1_555 1_555
H2 C2 1_555 1_555
C3 C2 1_555 1_555
C4 C3 1_555 1_555
H3 C4 1_555 1_555
C5 C4 1_555 1_555
H4 C5 1_555 1_555
C6 C1 1_555 1_555
C7 C3 1_555 1_555
C8 C7 1_555 1_555
H5 C8 1_555 1_555
C9 C8 1_555 1_555
H6 C9 1_555 1_555
C10 H7 1_555 1_555
C11 C7 1_555 1_555
H8 C11 1_555 1_555
C12 H9 1_555 1_555
C13 C12 1_555 1_555
H10 C13 1_555 1_555
C14 C13 1_555 1_555
C15 C14 1_555 1_555
H11 C15 1_555 1_555
C16 C15 1_555 1_555
H12 C16 1_555 1_555
C17 C12 1_555 1_555
C18 C14 1_555 1_555
C19 C18 1_555 1_555
H13 C19 1_555 1_555
C20 C19 1_555 1_555
H14 C20 1_555 1_555
C21 H15 1_555 1_555
C22 C18 1_555 1_555
H16 C22 1_555 1_555
C23 H17 1_555 1_555
C24 C23 1_555 1_555
H18 C24 1_555 1_555
C25 C24 1_555 1_555
C26 C25 1_555 1_555
H19 C26 1_555 1_555
C27 C26 1_555 1_555
H20 C27 1_555 1_555
C28 C23 1_555 1_555
C29 C25 1_555 1_555
C30 C29 1_555 1_555
H21 C30 1_555 1_555
C31 C30 1_555 1_555
H22 C31 1_555 1_555
C32 H23 1_555 1_555
C33 C29 1_555 1_555
H24 C33 1_555 1_555
N1 C6 1_555 1_555
N2 C9 1_555 1_555
N3 C20 1_555 1_555
N4 Cd1 1_555 1_555
C1D H1D 1_555 1_555
C2D C1D 1_555 1_555
H2D C2D 1_555 1_555
C3D C2D 1_555 1_555
C4D C3D 1_555 1_555
H3D C4D 1_555 1_555
C5D C4D 1_555 1_555
H4D C5D 1_555 1_555
C6D C1D 1_555 1_555
C7D C3D 1_555 1_555
C8D C7D 1_555 1_555
H5D C8D 1_555 1_555
C9D C8D 1_555 1_555
H6D C9D 1_555 1_555
C10D H7D 1_555 1_555
C11D C7D 1_555 1_555
H8D C11D 1_555 1_555
C12D H9D 1_555 1_555
C13D C12D 1_555 1_555
H10D C13D 1_555 1_555
C14D C13D 1_555 1_555
C15D C14D 1_555 1_555
H11D C15D 1_555 1_555
C16D C15D 1_555 1_555
H12D C16D 1_555 1_555
C17D C12D 1_555 1_555
C18D C14D 1_555 1_555
C19D C18D 1_555 1_555
H13D C19D 1_555 1_555
C20D C19D 1_555 1_555
H14D C20D 1_555 1_555
C21D H15D 1_555 1_555
C22D C18D 1_555 1_555
H16D C22D 1_555 1_555
C23D H17D 1_555 1_555
C24D C23D 1_555 1_555
H18D C24D 1_555 1_555
C25D C24D 1_555 1_555
C26D C25D 1_555 1_555
H19D C26D 1_555 1_555
C27D C26D 1_555 1_555
H20D C27D 1_555 1_555
C28D C23D 1_555 1_555
C29D C25D 1_555 1_555
C30D C29D 1_555 1_555
H21D C30D 1_555 1_555
C31D C30D 1_555 1_555
H22D C31D 1_555 1_555
C32D H23D 1_555 1_555
C33D C29D 1_555 1_555
H24D C33D 1_555 1_555
Cl1D Cd1 1_555 1_555
N1D C6D 1_555 1_555
N2D C9D 1_555 1_555
N3D C20D 1_555 1_555
N4D Cd1 1_555 1_555
Cd1A N2 1_555 1_555
Cd1A_2 N2D 1_555 1_555
N2A Cd1 1_555 1_555
N2E Cd1 1_555 1_555
C5 C6 1_555 1_555
C10 C11 1_555 1_555
C10 N2 1_555 1_555
C16 C17 1_555 1_555
C17 N1 1_555 1_555
C21 C22 1_555 1_555
C21 N3 1_555 1_555
C27 C28 1_555 1_555
C28 N1 1_555 1_555
C31 N4 1_555 1_555
C32 C33 1_555 1_555
C32 N4 1_555 1_555
C5D C6D 1_555 1_555
C10D C11D 1_555 1_555
C10D N2D 1_555 1_555
C16D C17D 1_555 1_555
C17D N1D 1_555 1_555
C21D C22D 1_555 1_555
C21D N3D 1_555 1_555
C27D C28D 1_555 1_555
C28D N1D 1_555 1_555
C31D N4D 1_555 1_555
C32D C33D 1_555 1_555
C32D N4D 1_555 1_555

#END
