
#######################################################################
#
#                 Cambridge Crystallographic Data Centre
#                                CCDC 
#
#######################################################################
#
# If this CIF has been generated from an entry in the Cambridge 
# Structural Database, then it will include bibliographic, chemical, 
# crystal, experimental, refinement or atomic coordinate data resulting 
# from the CCDC's data processing and validation procedures.
#
#######################################################################

data_GUCZEK
_symmetry_cell_setting           monoclinic
_symmetry_space_group_name_H-M   'C 2/c'
_symmetry_Int_Tables_number      15
_space_group_name_Hall           '-C 2yn'
loop_
_symmetry_equiv_pos_site_id
_symmetry_equiv_pos_as_xyz
1 x,y,z
2 -x,y,1/2-z
3 1/2+x,1/2+y,z
4 1/2-x,1/2+y,1/2-z
5 -x,-y,-z
6 x,-y,1/2+z
7 1/2-x,1/2-y,-z
8 1/2+x,1/2-y,1/2+z
_cell_length_a                   29.470(5)
_cell_length_b                   9.7036(15)
_cell_length_c                   14.674(2)
_cell_angle_alpha                90
_cell_angle_beta                 114.343(5)
_cell_angle_gamma                90
_cell_volume                     3823.18
loop_
_atom_site_label
_atom_site_type_symbol
_atom_site_fract_x
_atom_site_fract_y
_atom_site_fract_z
Zn1 Zn 0.105149(14) 0.95828(4) -0.09703(3)
C1 C 0.29573(12) 0.8897(4) 0.1720(2)
C2 C 0.32511(12) 0.7928(3) 0.2394(2)
H1 H 0.3146 0.7018 0.2364
C3 C 0.37035(12) 0.8346(3) 0.3113(2)
C4 C 0.38807(12) 0.9658(4) 0.3145(2)
H2 H 0.4192 0.9912 0.3625
C5 C 0.35831(12) 1.0592(4) 0.2443(2)
C6 C 0.31199(12) 1.0224(3) 0.1739(2)
H3 H 0.2919 1.0869 0.1281
C7 C 0.22387(13) 0.7274(4) 0.0969(3)
H4 H 0.2379 0.6489 0.1343
C8 C 0.17709(13) 0.7410(4) 0.0267(3)
H5 H 0.1529 0.6724 0.0075
C9 C 0.21312(12) 0.9343(4) 0.0350(2)
H6 H 0.2193 1.0250 0.0232
C10 C 0.40181(12) 1.2767(4) 0.3255(3)
H7 H 0.4133 1.2518 0.3925
C11 C 0.40859(13) 1.3972(4) 0.2892(2)
H8 H 0.4256 1.4718 0.3280
C12 C 0.36641(12) 1.2727(3) 0.1625(2)
H9 H 0.3486 1.2421 0.0973
C13 C 0.44852(12) 0.7227(4) 0.4365(2)
H10 H 0.4727 0.7696 0.4235
C14 C 0.45610(12) 0.6260(4) 0.5067(2)
H11 H 0.4872 0.5945 0.5511
C15 C 0.37766(13) 0.6523(4) 0.4311(2)
H12 H 0.3435 0.6438 0.4123
C16 C 0.02038(11) 0.6205(3) -0.2035(2)
C17 C 0.03933(13) 0.4953(4) -0.1587(3)
H13 H 0.0660 0.4944 -0.0962
C18 C 0.01967(13) 0.3723(4) -0.2043(3)
H14 H 0.0331 0.2894 -0.1730
C19 C 0.04672(12) 0.7477(4) -0.1521(3)
N1 N 0.17049(9) 0.8715(3) -0.01208(19)
N2 N 0.24684(10) 0.8517(3) 0.10255(19)
N3 N 0.38675(10) 1.3954(3) 0.18608(19)
N4 N 0.37458(9) 1.1971(3) 0.24431(19)
N5 N 0.41160(10) 0.5805(3) 0.50367(19)
N6 N 0.39814(9) 0.7382(3) 0.38810(19)
O1 O 0.05846(8) 0.8345(2) -0.20243(17)
O2 O 0.05897(9) 0.7604(3) -0.06136(17)
Zn1F Zn 0.394851(14) 1.54172(4) 0.09703(3)
Zn1C Zn 0.394851(14) 0.45828(4) 0.59703(3)
Zn1A Zn -0.105149(14) 0.95828(4) -0.40297(3)
Zn1E Zn 0.105149(14) 2.04172(4) -0.59703(3)
C1F C 0.20427(12) 1.6103(4) -0.1720(2)
C2F C 0.17489(12) 1.7072(3) -0.2394(2)
H1F H 0.1854 1.7982 -0.2364
C3F C 0.12965(12) 1.6654(3) -0.3113(2)
C4F C 0.11193(12) 1.5342(4) -0.3145(2)
H2F H 0.0808 1.5088 -0.3625
C5F C 0.14169(12) 1.4408(4) -0.2443(2)
C6F C 0.18801(12) 1.4776(3) -0.1739(2)
H3F H 0.2081 1.4131 -0.1281
C7F C 0.27613(13) 1.7726(4) -0.0969(3)
H4F H 0.2621 1.8511 -0.1343
C8F C 0.32291(13) 1.7590(4) -0.0267(3)
H5F H 0.3471 1.8276 -0.0075
C9F C 0.28688(12) 1.5657(4) -0.0350(2)
H6F H 0.2807 1.4750 -0.0232
C10F C 0.09819(12) 1.2233(4) -0.3255(3)
H7F H 0.0867 1.2482 -0.3925
C11F C 0.09141(13) 1.1028(4) -0.2892(2)
H8F H 0.0744 1.0282 -0.3280
C12F C 0.13359(12) 1.2273(3) -0.1625(2)
H9F H 0.1514 1.2579 -0.0973
C13F C 0.05148(12) 1.7773(4) -0.4365(2)
H10F H 0.0273 1.7304 -0.4235
C14F C 0.04390(12) 1.8740(4) -0.5067(2)
H11F H 0.0128 1.9055 -0.5511
C15F C 0.12234(13) 1.8477(4) -0.4311(2)
H12F H 0.1565 1.8562 -0.4123
C16A C -0.02038(11) 0.6205(3) -0.2965(2)
C17A C -0.03933(13) 0.4953(4) -0.3413(3)
H13A H -0.0660 0.4944 -0.4038
C18A C -0.01967(13) 0.3723(4) -0.2957(3)
H14A H -0.0331 0.2894 -0.3270
C19A C -0.04672(12) 0.7477(4) -0.3479(3)
N1F N 0.32951(9) 1.6285(3) 0.01208(19)
N2F N 0.25316(10) 1.6483(3) -0.10255(19)
N3F N 0.11325(10) 1.1046(3) -0.18608(19)
N4F N 0.12542(9) 1.3029(3) -0.24431(19)
N5F N 0.08840(10) 1.9195(3) -0.50367(19)
N5C N 0.08840(10) 1.0805(3) -0.00367(19)
N5E N 0.41160(10) 1.4195(3) 0.00367(19)
N6F N 0.10186(9) 1.7618(3) -0.38810(19)
O1A O -0.05846(8) 0.8345(2) -0.29757(17)
O1F O 0.44154(8) 1.6655(2) 0.20243(17)
O2A O -0.05897(9) 0.7604(3) -0.43864(17)
N7 N 0.22897(15) 0.3596(4) 0.1039(3)
O3 O 0.18985(14) 0.4168(3) 0.0540(2)
O4 O 0.26542(12) 0.4197(3) 0.1657(3)
O5 O 0.2328(3) 0.2315(7) 0.1327(14)
O6? O 0.2286(3) 0.2535(11) 0.0556(13)
loop_
_geom_bond_atom_site_label_1
_geom_bond_atom_site_label_2
_geom_bond_site_symmetry_1
_geom_bond_site_symmetry_2
Zn1 N1 1_555 1_555
C1 C2 1_555 1_555
C2 H1 1_555 1_555
C3 C2 1_555 1_555
C4 C3 1_555 1_555
H2 C4 1_555 1_555
C5 C4 1_555 1_555
C6 C1 1_555 1_555
H3 C6 1_555 1_555
C7 H4 1_555 1_555
C8 C7 1_555 1_555
H5 C8 1_555 1_555
C9 H6 1_555 1_555
C10 H7 1_555 1_555
C11 C10 1_555 1_555
H8 C11 1_555 1_555
C12 H9 1_555 1_555
C13 H10 1_555 1_555
C14 C13 1_555 1_555
H11 C14 1_555 1_555
C15 H12 1_555 1_555
C16 C17 1_555 1_555
C17 H13 1_555 1_555
C18 C17 1_555 1_555
H14 C18 1_555 1_555
C19 C16 1_555 1_555
N1 C8 1_555 1_555
N2 C1 1_555 1_555
N3 C11 1_555 1_555
N4 C5 1_555 1_555
N5 C14 1_555 1_555
N6 C3 1_555 1_555
N7 O3 1_555 1_555
O1 Zn1 1_555 1_555
O2 C19 1_555 1_555
O4 N7 1_555 1_555
O5 N7 1_555 1_555
Zn1F N3 1_555 1_555
Zn1C N5 1_555 1_555
Zn1A O1A 1_555 1_555
Zn1E N5F 1_555 1_555
C1F C2F 1_555 1_555
C2F H1F 1_555 1_555
C3F C2F 1_555 1_555
C4F C3F 1_555 1_555
H2F C4F 1_555 1_555
C5F C4F 1_555 1_555
C6F C1F 1_555 1_555
H3F C6F 1_555 1_555
C7F H4F 1_555 1_555
C8F C7F 1_555 1_555
H5F C8F 1_555 1_555
C9F H6F 1_555 1_555
C10F H7F 1_555 1_555
C11F C10F 1_555 1_555
H8F C11F 1_555 1_555
C12F H9F 1_555 1_555
C13F H10F 1_555 1_555
C14F C13F 1_555 1_555
H11F C14F 1_555 1_555
C15F H12F 1_555 1_555
C16A C16 1_555 1_555
C17A C16A 1_555 1_555
H13A C17A 1_555 1_555
C18A C18 1_555 1_555
H14A C18A 1_555 1_555
C19A C16A 1_555 1_555
N1F Zn1F 1_555 1_555
N2F C1F 1_555 1_555
N3F Zn1 1_555 1_555
N4F C5F 1_555 1_555
N5F C14F 1_555 1_555
N5C Zn1 1_555 1_555
N5E Zn1F 1_555 1_555
N6F C3F 1_555 1_555
O1A C19A 1_555 1_555
O1F Zn1F 1_555 1_555
O2A C19A 1_555 1_555
C5 C6 1_555 1_555
C7 N2 1_555 1_555
C9 N1 1_555 1_555
C9 N2 1_555 1_555
C10 N4 1_555 1_555
C12 N3 1_555 1_555
C12 N4 1_555 1_555
C13 N6 1_555 1_555
C15 N5 1_555 1_555
C15 N6 1_555 1_555
C19 O1 1_555 1_555
C5F C6F 1_555 1_555
C7F N2F 1_555 1_555
C8F N1F 1_555 1_555
C9F N1F 1_555 1_555
C9F N2F 1_555 1_555
C10F N4F 1_555 1_555
C11F N3F 1_555 1_555
C12F N3F 1_555 1_555
C12F N4F 1_555 1_555
C13F N6F 1_555 1_555
C15F N5F 1_555 1_555
C15F N6F 1_555 1_555
C17A C18A 1_555 1_555

#END
