
#######################################################################
#
#                 Cambridge Crystallographic Data Centre
#                                CCDC 
#
#######################################################################
#
# If this CIF has been generated from an entry in the Cambridge 
# Structural Database, then it will include bibliographic, chemical, 
# crystal, experimental, refinement or atomic coordinate data resulting 
# from the CCDC's data processing and validation procedures.
#
#######################################################################

data_GUCZIO
_symmetry_cell_setting           monoclinic
_symmetry_space_group_name_H-M   'C 2/c'
_symmetry_Int_Tables_number      15
_space_group_name_Hall           '-C 2yn'
loop_
_symmetry_equiv_pos_site_id
_symmetry_equiv_pos_as_xyz
1 x,y,z
2 -x,y,1/2-z
3 1/2+x,1/2+y,z
4 1/2-x,1/2+y,1/2-z
5 -x,-y,-z
6 x,-y,1/2+z
7 1/2-x,1/2-y,-z
8 1/2+x,1/2-y,1/2+z
_cell_length_a                   30.386(4)
_cell_length_b                   9.6758(10)
_cell_length_c                   15.0141(16)
_cell_angle_alpha                90
_cell_angle_beta                 116.780(3)
_cell_angle_gamma                90
_cell_volume                     3940.82
loop_
_atom_site_label
_atom_site_type_symbol
_atom_site_fract_x
_atom_site_fract_y
_atom_site_fract_z
Zn1 Zn 0.10363(2) 0.53672(6) 0.40761(4)
C1 C 0.12816(18) 0.1698(5) 0.6956(4)
C2 C 0.17418(18) 0.2095(6) 0.7688(4)
H1 H 0.1850 0.3001 0.7723
C3 C 0.20360(18) 0.1112(5) 0.8363(4)
C4 C 0.18687(18) -0.0206(5) 0.8356(4)
H2 H 0.2066 -0.0853 0.8824
C5 C 0.14032(19) -0.0553(5) 0.7644(4)
C6 C 0.11024(19) 0.0391(6) 0.6922(4)
H3 H 0.0791 0.0140 0.6435
C7 C 0.05084(18) 0.2814(6) 0.5655(4)
H4 H 0.0269 0.2351 0.5763
C8 C 0.04382(18) 0.3766(6) 0.4956(4)
H5 H 0.0132 0.4102 0.4500
C9 C 0.12157(19) 0.3494(5) 0.5753(4)
H6 H 0.1553 0.3574 0.5962
C10 C 0.2762(2) 0.2694(6) 0.9060(5)
H7 H 0.2616 0.3489 0.8698
C11 C 0.3235(2) 0.2540(6) 0.9715(5)
H8 H 0.3475 0.3222 0.9893
C12 C 0.28779(19) 0.0602(6) 0.9657(4)
H9 H 0.2821 -0.0307 0.9778
C13 C 0.0958(2) -0.2746(6) 0.6808(4)
H10 H 0.0845 -0.2511 0.6140
C14 C 0.0891(2) -0.3936(6) 0.7174(4)
H11 H 0.0719 -0.4688 0.6789
C15 C 0.13193(19) -0.2689(5) 0.8438(4)
H12 H 0.1506 -0.2391 0.9091
C16 C 0.01954(17) 0.8791(5) 0.2980(4)
C17 C 0.0378(2) 1.0031(6) 0.3451(5)
H13 H 0.0633 1.0033 0.4098
C18 C 0.0189(2) 1.1270(6) 0.2979(6)
H14 H 0.0316 1.2101 0.3305
C19 C 0.04585(18) 0.7508(6) 0.3514(4)
N1 N 0.08782(15) 0.4176(4) 0.5005(3)
N2 N 0.10120(15) 0.2668(5) 0.6178(3)
N3 N 0.33098(15) 0.1226(5) 1.0081(3)
N4 N 0.25309(15) 0.1470(4) 0.9021(3)
N5 N 0.11087(15) -0.3902(5) 0.8192(3)
N6 N 0.12308(15) -0.1935(5) 0.7631(3)
O1 O 0.05684(14) 0.6622(4) 0.3033(3)
O2 O 0.05772(16) 0.7386(5) 0.4416(3)
Zn1A Zn -0.10363(2) 0.53672(6) 0.09239(4)
Zn1B Zn -0.39637(2) 0.03672(6) -0.59239(4)
Zn1C Zn 0.39637(2) 0.03672(6) 1.09239(4)
Zn1D Zn -0.10363(2) -0.53672(6) -0.40761(4)
Zn1E Zn 0.10363(2) -0.53672(6) 0.90761(4)
C1A C -0.12816(18) 0.1698(5) -0.1956(4)
C2A C -0.17418(18) 0.2095(6) -0.2688(4)
H1A H -0.1850 0.3001 -0.2723
C3A C -0.20360(18) 0.1112(5) -0.3363(4)
C4A C -0.18687(18) -0.0206(5) -0.3356(4)
H2A H -0.2066 -0.0853 -0.3824
C5A C -0.14032(19) -0.0553(5) -0.2644(4)
C6A C -0.11024(19) 0.0391(6) -0.1922(4)
H3A H -0.0791 0.0140 -0.1435
C7A C -0.05084(18) 0.2814(6) -0.0655(4)
H4A H -0.0269 0.2351 -0.0763
C8A C -0.04382(18) 0.3766(6) 0.0044(4)
H5A H -0.0132 0.4102 0.0500
C9A C -0.12157(19) 0.3494(5) -0.0753(4)
H6A H -0.1553 0.3574 -0.0962
C10A C -0.2762(2) 0.2694(6) -0.4060(5)
H7A H -0.2616 0.3489 -0.3698
C11A C -0.3235(2) 0.2540(6) -0.4715(5)
H8A H -0.3475 0.3222 -0.4893
C12A C -0.28779(19) 0.0602(6) -0.4657(4)
H9A H -0.2821 -0.0307 -0.4778
C13A C -0.0958(2) -0.2746(6) -0.1808(4)
H10A H -0.0845 -0.2511 -0.1140
C14A C -0.0891(2) -0.3936(6) -0.2174(4)
H11A H -0.0719 -0.4688 -0.1789
C15A C -0.13193(19) -0.2689(5) -0.3438(4)
H12A H -0.1506 -0.2391 -0.4091
C16A C -0.01954(17) 0.8791(5) 0.2020(4)
C17A C -0.0378(2) 1.0031(6) 0.1549(5)
H13A H -0.0633 1.0033 0.0902
C18A C -0.0189(2) 1.1270(6) 0.2021(6)
H14A H -0.0316 1.2101 0.1695
C19A C -0.04585(18) 0.7508(6) 0.1486(4)
N1A N -0.08782(15) 0.4176(4) -0.0005(3)
N2A N -0.10120(15) 0.2668(5) -0.1178(3)
N3A N -0.33098(15) 0.1226(5) -0.5081(3)
N3B N -0.16902(15) 0.6226(5) 0.0081(3)
N3C N 0.16902(15) 0.6226(5) 0.4919(3)
N4A N -0.25309(15) 0.1470(4) -0.4021(3)
N5A N -0.11087(15) -0.3902(5) -0.3192(3)
N5D N -0.11087(15) 0.3902(5) 0.1808(3)
N5E N 0.11087(15) 0.3902(5) 0.3192(3)
N6A N -0.12308(15) -0.1935(5) -0.2631(3)
O1A O -0.05684(14) 0.6622(4) 0.1967(3)
O2A O -0.05772(16) 0.7386(5) 0.0584(3)
I1 I 0.236613(17) 0.84849(4) 0.11807(3)
loop_
_geom_bond_atom_site_label_1
_geom_bond_atom_site_label_2
_geom_bond_site_symmetry_1
_geom_bond_site_symmetry_2
Zn1 N1 1_555 1_555
C1 C2 1_555 1_555
C2 H1 1_555 1_555
C3 C2 1_555 1_555
C4 C3 1_555 1_555
H2 C4 1_555 1_555
C5 C4 1_555 1_555
C6 C1 1_555 1_555
H3 C6 1_555 1_555
C7 H4 1_555 1_555
C8 C7 1_555 1_555
H5 C8 1_555 1_555
C9 H6 1_555 1_555
C10 H7 1_555 1_555
C11 C10 1_555 1_555
H8 C11 1_555 1_555
C12 H9 1_555 1_555
C13 H10 1_555 1_555
C14 C13 1_555 1_555
H11 C14 1_555 1_555
C15 H12 1_555 1_555
C16 C17 1_555 1_555
C17 H13 1_555 1_555
C18 C17 1_555 1_555
H14 C18 1_555 1_555
C19 C16 1_555 1_555
N1 C8 1_555 1_555
N2 C1 1_555 1_555
N3 C11 1_555 1_555
N4 C3 1_555 1_555
N5 C14 1_555 1_555
N6 C5 1_555 1_555
O1 Zn1 1_555 1_555
O2 C19 1_555 1_555
Zn1A N1A 1_555 1_555
Zn1B N3A 1_555 1_555
Zn1C N3 1_555 1_555
Zn1D N5A 1_555 1_555
Zn1E N5 1_555 1_555
C1A C2A 1_555 1_555
C2A H1A 1_555 1_555
C3A C2A 1_555 1_555
C4A C3A 1_555 1_555
H2A C4A 1_555 1_555
C5A C4A 1_555 1_555
C6A C1A 1_555 1_555
H3A C6A 1_555 1_555
C7A H4A 1_555 1_555
C8A C7A 1_555 1_555
H5A C8A 1_555 1_555
C9A H6A 1_555 1_555
C10A H7A 1_555 1_555
C11A C10A 1_555 1_555
H8A C11A 1_555 1_555
C12A H9A 1_555 1_555
C13A H10A 1_555 1_555
C14A C13A 1_555 1_555
H11A C14A 1_555 1_555
C15A H12A 1_555 1_555
C16A C16 1_555 1_555
C17A C16A 1_555 1_555
H13A C17A 1_555 1_555
C18A C18 1_555 1_555
H14A C18A 1_555 1_555
C19A C16A 1_555 1_555
N1A C8A 1_555 1_555
N2A C1A 1_555 1_555
N3A C11A 1_555 1_555
N3B Zn1A 1_555 1_555
N3C Zn1 1_555 1_555
N4A C3A 1_555 1_555
N5A C14A 1_555 1_555
N5D Zn1A 1_555 1_555
N5E Zn1 1_555 1_555
N6A C5A 1_555 1_555
O1A Zn1A 1_555 1_555
O2A C19A 1_555 1_555
C5 C6 1_555 1_555
C7 N2 1_555 1_555
C9 N1 1_555 1_555
C9 N2 1_555 1_555
C10 N4 1_555 1_555
C12 N3 1_555 1_555
C12 N4 1_555 1_555
C13 N6 1_555 1_555
C15 N5 1_555 1_555
C15 N6 1_555 1_555
C19 O1 1_555 1_555
C5A C6A 1_555 1_555
C7A N2A 1_555 1_555
C9A N1A 1_555 1_555
C9A N2A 1_555 1_555
C10A N4A 1_555 1_555
C12A N3A 1_555 1_555
C12A N4A 1_555 1_555
C13A N6A 1_555 1_555
C15A N5A 1_555 1_555
C15A N6A 1_555 1_555
C17A C18A 1_555 1_555
C19A O1A 1_555 1_555

#END
