
#######################################################################
#
#                 Cambridge Crystallographic Data Centre
#                                CCDC 
#
#######################################################################
#
# If this CIF has been generated from an entry in the Cambridge 
# Structural Database, then it will include bibliographic, chemical, 
# crystal, experimental, refinement or atomic coordinate data resulting 
# from the CCDC's data processing and validation procedures.
#
#######################################################################

data_GUCZAG
_symmetry_cell_setting           orthorhombic
_symmetry_space_group_name_H-M   'P c a 21'
_symmetry_Int_Tables_number      29
_space_group_name_Hall           'P 2c -2ac'
loop_
_symmetry_equiv_pos_site_id
_symmetry_equiv_pos_as_xyz
1 x,y,z
2 -x,-y,1/2+z
3 1/2+x,-y,z
4 1/2-x,y,1/2+z
_cell_length_a                   25.7057(17)
_cell_length_b                   11.8041(8)
_cell_length_c                   20.9672(13)
_cell_angle_alpha                90
_cell_angle_beta                 90
_cell_angle_gamma                90
_cell_volume                     6362.13
loop_
_atom_site_label
_atom_site_type_symbol
_atom_site_fract_x
_atom_site_fract_y
_atom_site_fract_z
Zn1 Zn 0.60080(3) 0.13733(6) 0.89634(3)
Zn2 Zn 0.58020(3) -0.13856(6) 0.90682(4)
Zn3 Zn 0.21670(3) -0.36970(6) 0.96175(4)
Zn4 Zn 0.46128(3) -0.37183(6) 0.83621(4)
C1 C 0.7817(3) -0.1590(6) 0.8258(4)
C2 C 0.7951(3) -0.0475(6) 0.8216(3)
H1 H 0.7702 0.0091 0.8263
C3 C 0.8468(3) -0.0209(6) 0.8101(3)
C4 C 0.8853(3) -0.1041(6) 0.8004(3)
H2 H 0.9196 -0.0847 0.7912
C5 C 0.8696(3) -0.2169(5) 0.8053(4)
C6 C 0.8190(3) -0.2448(6) 0.8165(4)
H3 H 0.8091 -0.3205 0.8180
C7 C 0.7115(3) -0.3051(7) 0.8413(6)
H4 H 0.7302 -0.3696 0.8301
C8 C 0.6627(3) -0.3033(6) 0.8607(5)
H5 H 0.6407 -0.3657 0.8631
C9 C 0.6903(3) -0.1356(6) 0.8636(3)
H6 H 0.6914 -0.0576 0.8699
C10 C 0.8302(3) 0.1823(7) 0.7862(5)
H7 H 0.7960 0.1759 0.7721
C11 C 0.8584(3) 0.2775(6) 0.7909(5)
H8 H 0.8469 0.3491 0.7788
C12 C 0.9070(3) 0.1456(6) 0.8246(4)
H9 H 0.9352 0.1061 0.8413
C13 C 0.9526(3) -0.3010(7) 0.7644(5)
H10 H 0.9665 -0.2390 0.7430
C14 C 0.9739(4) -0.4052(7) 0.7693(5)
H11 H 1.0053 -0.4275 0.7513
C15 C 0.9036(3) -0.4089(6) 0.8215(4)
H12 H 0.8767 -0.4333 0.8478
C16 C 0.3982(3) 0.1678(6) 0.9720(4)
C17 C 0.3837(3) 0.0522(5) 0.9725(3)
H13 H 0.4087 -0.0040 0.9671
C18 C 0.3329(3) 0.0240(6) 0.9810(3)
C19 C 0.2951(3) 0.1042(5) 0.9905(3)
H14 H 0.2604 0.0846 0.9962
C20 C 0.3118(3) 0.2187(6) 0.9910(3)
C21 C 0.3621(3) 0.2505(6) 0.9812(3)
H15 H 0.3715 0.3265 0.9808
C22 C 0.4715(3) 0.3023(7) 0.9744(5)
H16 H 0.4546 0.3623 0.9943
C23 C 0.5203(3) 0.3012(6) 0.9534(4)
H17 H 0.5434 0.3617 0.9565
C24 C 0.4891(3) 0.1411(6) 0.9349(4)
H18 H 0.4857 0.0655 0.9231
C25 C 0.3523(3) -0.1823(6) 0.9832(5)
H19 H 0.3881 -0.1781 0.9891
C26 C 0.3237(3) -0.2775(6) 0.9769(5)
H20 H 0.3371 -0.3506 0.9762
C27 C 0.2711(3) -0.1389(5) 0.9729(4)
H21 H 0.2406 -0.0971 0.9696
C28 C 0.2270(3) 0.3014(7) 1.0307(5)
H22 H 0.2130 0.2380 1.0506
C29 C 0.2051(3) 0.4041(6) 1.0271(5)
H23 H 0.1732 0.4244 1.0446
C30 C 0.2778(3) 0.4139(5) 0.9781(3)
H24 H 0.3061 0.4409 0.9550
C31 C 0.7004(3) 0.2664(7) 0.7588(3)
C32 C 0.6968(4) 0.2224(9) 0.6958(5)
H25 H 0.6781 0.1564 0.6878
C33 C 0.7217(5) 0.2797(13) 0.6461(4)
H26 H 0.7190 0.2514 0.6048
C34 C 0.7489(5) 0.3735(10) 0.6562(5)
H27 H 0.7650 0.4093 0.6220
C35 C 0.7537(4) 0.4179(7) 0.7155(4)
H28 H 0.7734 0.4830 0.7218
C36 C 0.7289(3) 0.3655(6) 0.7677(4)
C37 C 0.6735(3) 0.2004(7) 0.8107(4)
C38 C 0.7374(3) 0.4101(6) 0.8314(4)
C39 C 0.6093(3) 0.1960(7) 1.0611(4)
C40 C 0.5832(4) 0.2524(9) 1.1093(5)
H29 H 0.5870 0.3304 1.1134
C41 C 0.5514(4) 0.1940(11) 1.1518(5)
H30 H 0.5319 0.2337 1.1817
C42 C 0.5490(4) 0.0801(10) 1.1496(5)
H31 H 0.5287 0.0407 1.1789
C43 C 0.5757(3) 0.0245(8) 1.1056(4)
H32 H 0.5745 -0.0543 1.1057
C44 C 0.6056(3) 0.0787(6) 1.0587(3)
C45 C 0.6433(3) 0.2582(6) 1.0156(4)
C46 C 0.6341(3) 0.0081(6) 1.0107(3)
C47 C 0.5799(3) -0.0854(7) 0.7437(3)
C48 C 0.6094(4) -0.0333(8) 0.7000(5)
H33 H 0.6104 0.0454 0.6990
C49 C 0.6377(5) -0.0936(10) 0.6571(5)
H34 H 0.6587 -0.0560 0.6279
C50 C 0.6354(5) -0.2126(10) 0.6569(5)
H35 H 0.6548 -0.2541 0.6276
C51 C 0.6041(3) -0.2671(7) 0.7004(4)
H36 H 0.6022 -0.3458 0.7007
C52 C 0.5758(3) -0.2050(7) 0.7433(3)
C53 C 0.5499(3) -0.0089(6) 0.7900(4)
C54 C 0.5399(3) -0.2628(6) 0.7892(4)
C55 C 0.4464(3) -0.3612(6) 1.0335(3)
C56 C 0.4217(3) -0.4101(7) 1.0842(4)
H37 H 0.4039 -0.4777 1.0778
C57 C 0.4222(3) -0.3626(8) 1.1452(4)
H38 H 0.4049 -0.3978 1.1788
C58 C 0.4487(3) -0.2623(7) 1.1546(4)
H39 H 0.4492 -0.2284 1.1946
C59 C 0.4745(3) -0.2129(7) 1.1040(4)
H40 H 0.4917 -0.1446 1.1105
C60 C 0.4758(3) -0.2614(6) 1.0434(3)
C61 C 0.4404(3) -0.4101(6) 0.9675(4)
C62 C 0.5035(3) -0.1964(6) 0.9897(4)
N1 N 0.6500(2) -0.1970(4) 0.8765(3)
N2 N 0.7302(2) -0.1957(4) 0.8402(3)
N3 N 0.9061(2) 0.2545(4) 0.8158(3)
N4 N 0.8617(2) 0.0966(5) 0.8064(3)
N5 N 0.9425(3) -0.4718(5) 0.8044(3)
N6 N 0.9069(3) -0.3048(5) 0.7969(3)
N7 N 0.5318(2) 0.1979(5) 0.9267(3)
N8 N 0.4512(2) 0.1994(5) 0.9611(3)
N9 N 0.2726(2) -0.2511(4) 0.9719(3)
N10 N 0.3182(2) -0.0926(4) 0.9793(3)
N11 N 0.2375(2) 0.4747(4) 0.9934(3)
N12 N 0.2735(2) 0.3067(4) 0.9998(3)
O1 O 0.7010(2) 0.1295(4) 0.8392(3)
O2 O 0.62599(19) 0.2162(4) 0.8195(2)
O3 O 0.77697(19) 0.4664(4) 0.8430(3)
O4 O 0.70239(19) 0.3853(4) 0.8716(2)
O5 O 0.6657(2) 0.3468(4) 1.0338(2)
O6 O 0.65043(18) 0.2217(4) 0.9597(2)
O7 O 0.6740(2) -0.0402(5) 1.0252(3)
O8 O 0.61290(19) 0.0003(4) 0.9557(2)
O9 O 0.5131(2) 0.0447(5) 0.7707(3)
O10 O 0.5684(2) -0.0024(4) 0.8471(2)
O11 O 0.5172(2) -0.3499(4) 0.7695(3)
O12 O 0.53054(19) -0.2238(4) 0.8424(3)
O13 O 0.4731(2) -0.3774(4) 0.9259(2)
O14 O 0.40370(18) -0.4769(4) 0.9571(3)
O15 O 0.4786(2) -0.1256(4) 0.9593(3)
O16 O 0.55116(18) -0.2166(4) 0.9828(2)
Zn3_2 Zn 0.21670(3) 0.63030(6) 0.96175(4)
Zn3B Zn 0.71670(3) 0.36970(6) 0.96175(4)
Zn4B Zn 0.96128(3) 0.37183(6) 0.83621(4)
Zn4B_2 Zn 0.96128(3) -0.62817(6) 0.83621(4)
N3B N 0.4061(2) -0.2545(4) 0.8158(3)
N5B N 0.4425(3) -0.5282(5) 0.8044(3)
N11_2 N 0.2375(2) -0.5253(4) 0.9934(3)
O4B O 0.20239(19) -0.3853(4) 0.8716(2)
O5B O 0.1657(2) -0.3468(4) 1.0338(2)
O6B O 0.15043(18) -0.2217(4) 0.9597(2)
O17 O 0.5953(3) 0.4531(8) 0.8304(7)
O18 O 0.5819(4) 0.5492(10) 0.9691(10)
loop_
_geom_bond_atom_site_label_1
_geom_bond_atom_site_label_2
_geom_bond_site_symmetry_1
_geom_bond_site_symmetry_2
Zn1 N7 1_555 1_555
Zn2 N1 1_555 1_555
Zn3 N9 1_555 1_555
Zn4 O11 1_555 1_555
C1 C2 1_555 1_555
C2 H1 1_555 1_555
C3 C2 1_555 1_555
C4 C3 1_555 1_555
H2 C4 1_555 1_555
C5 C4 1_555 1_555
C6 C1 1_555 1_555
H3 C6 1_555 1_555
C7 H4 1_555 1_555
C8 C7 1_555 1_555
H5 C8 1_555 1_555
C9 H6 1_555 1_555
C10 H7 1_555 1_555
C11 C10 1_555 1_555
H8 C11 1_555 1_555
C12 H9 1_555 1_555
C13 H10 1_555 1_555
C14 C13 1_555 1_555
H11 C14 1_555 1_555
C15 H12 1_555 1_555
C16 C17 1_555 1_555
C17 H13 1_555 1_555
C18 C17 1_555 1_555
C19 C18 1_555 1_555
H14 C19 1_555 1_555
C20 C19 1_555 1_555
C21 C16 1_555 1_555
H15 C21 1_555 1_555
C22 H16 1_555 1_555
C23 C22 1_555 1_555
H17 C23 1_555 1_555
C24 H18 1_555 1_555
C25 H19 1_555 1_555
C26 C25 1_555 1_555
H20 C26 1_555 1_555
C27 H21 1_555 1_555
C28 H22 1_555 1_555
C29 C28 1_555 1_555
H23 C29 1_555 1_555
C30 H24 1_555 1_555
C31 C32 1_555 1_555
C32 H25 1_555 1_555
C33 C32 1_555 1_555
H26 C33 1_555 1_555
C34 C33 1_555 1_555
H27 C34 1_555 1_555
C35 C34 1_555 1_555
H28 C35 1_555 1_555
C36 C31 1_555 1_555
C37 C31 1_555 1_555
C38 C36 1_555 1_555
C39 C40 1_555 1_555
C40 H29 1_555 1_555
C41 C40 1_555 1_555
H30 C41 1_555 1_555
C42 C41 1_555 1_555
H31 C42 1_555 1_555
C43 C42 1_555 1_555
H32 C43 1_555 1_555
C44 C39 1_555 1_555
C45 C39 1_555 1_555
C46 C44 1_555 1_555
C47 C48 1_555 1_555
C48 H33 1_555 1_555
C49 C48 1_555 1_555
H34 C49 1_555 1_555
C50 C49 1_555 1_555
H35 C50 1_555 1_555
C51 C50 1_555 1_555
H36 C51 1_555 1_555
C52 C47 1_555 1_555
C53 C47 1_555 1_555
C54 C52 1_555 1_555
C55 C56 1_555 1_555
C56 H37 1_555 1_555
C57 C56 1_555 1_555
H38 C57 1_555 1_555
C58 C57 1_555 1_555
H39 C58 1_555 1_555
C59 C58 1_555 1_555
H40 C59 1_555 1_555
C60 C55 1_555 1_555
C61 C55 1_555 1_555
C62 C60 1_555 1_555
N1 C8 1_555 1_555
N2 C1 1_555 1_555
N3 C11 1_555 1_555
N4 C3 1_555 1_555
N5 C14 1_555 1_555
N6 C5 1_555 1_555
N7 C23 1_555 1_555
N8 C16 1_555 1_555
N9 C26 1_555 1_555
N10 C18 1_555 1_555
N11 C29 1_555 1_555
N12 C20 1_555 1_555
O1 C37 1_555 1_555
O2 Zn1 1_555 1_555
O3 C38 1_555 1_555
O4 C38 1_555 1_555
O5 C45 1_555 1_555
O6 Zn1 1_555 1_555
O7 C46 1_555 1_555
O8 Zn1 1_555 1_555
O9 C53 1_555 1_555
O10 Zn1 1_555 1_555
O11 C54 1_555 1_555
O12 Zn2 1_555 1_555
O13 Zn4 1_555 1_555
O14 C61 1_555 1_555
O15 C62 1_555 1_555
O16 Zn2 1_555 1_555
Zn3_2 N11 1_555 1_555
Zn3B O4 1_555 1_555
Zn4B N3 1_555 1_555
Zn4B_2 N5 1_555 1_555
N3B Zn4 1_555 1_555
N5B Zn4 1_555 1_555
N11_2 Zn3 1_555 1_555
O4B Zn3 1_555 1_555
O5B Zn3 1_555 1_555
O6B Zn3 1_555 1_555
Zn2 O8 1_555 1_555
Zn2 O10 1_555 1_555
C5 C6 1_555 1_555
C7 N2 1_555 1_555
C9 N1 1_555 1_555
C9 N2 1_555 1_555
C10 N4 1_555 1_555
C12 N3 1_555 1_555
C12 N4 1_555 1_555
C13 N6 1_555 1_555
C15 N5 1_555 1_555
C15 N6 1_555 1_555
C20 C21 1_555 1_555
C22 N8 1_555 1_555
C24 N7 1_555 1_555
C24 N8 1_555 1_555
C25 N10 1_555 1_555
C27 N9 1_555 1_555
C27 N10 1_555 1_555
C28 N12 1_555 1_555
C30 N11 1_555 1_555
C30 N12 1_555 1_555
C35 C36 1_555 1_555
C37 O2 1_555 1_555
C43 C44 1_555 1_555
C45 O6 1_555 1_555
C46 O8 1_555 1_555
C51 C52 1_555 1_555
C53 O10 1_555 1_555
C54 O12 1_555 1_555
C59 C60 1_555 1_555
C61 O13 1_555 1_555
C62 O16 1_555 1_555
O5 Zn3B 1_555 1_555
O6 Zn3B 1_555 1_555

#END
