
#######################################################################
#
#                 Cambridge Crystallographic Data Centre
#                                CCDC 
#
#######################################################################
#
# If this CIF has been generated from an entry in the Cambridge 
# Structural Database, then it will include bibliographic, chemical, 
# crystal, experimental, refinement or atomic coordinate data resulting 
# from the CCDC's data processing and validation procedures.
#
#######################################################################

data_GUDFER
_symmetry_cell_setting           triclinic
_symmetry_space_group_name_H-M   'P -1'
_symmetry_Int_Tables_number      2
_space_group_name_Hall           '-P 1'
loop_
_symmetry_equiv_pos_site_id
_symmetry_equiv_pos_as_xyz
1 x,y,z
2 -x,-y,-z
_cell_length_a                   5.7617(3)
_cell_length_b                   9.5558(4)
_cell_length_c                   10.6455(4)
_cell_angle_alpha                79.903(2)
_cell_angle_beta                 88.324(2)
_cell_angle_gamma                73.811(2)
_cell_volume                     554.038
loop_
_atom_site_label
_atom_site_type_symbol
_atom_site_fract_x
_atom_site_fract_y
_atom_site_fract_z
Rb1 Rb 0.79485(3) 0.361742(19) 0.128680(18)
O1 O 0.8311(2) 0.02210(16) 0.18603(14)
O2 O 0.5509(2) 0.13702(16) 0.30615(14)
C1 C 0.6244(3) 0.04118(18) 0.23489(16)
C2 C 0.4540(3) -0.04361(18) 0.20648(16)
H1 H 0.300(4) -0.014(2) 0.2450(18)
C3 C 0.4862(3) -0.14748(18) 0.13292(16)
H2 H 0.350(4) -0.185(2) 0.1219(19)
C4 C 0.6999(3) -0.21768(18) 0.05919(15)
O3 O 0.8984(2) -0.17488(14) 0.05691(13)
H3 H 0.876(5) -0.101(3) 0.106(3)
O4 O 0.6843(3) -0.31509(16) 0.00089(13)
O5 O 1.1254(2) 0.18801(19) 0.38244(15)
H4 H 1.286(4) 0.161(4) 0.363(3)
O6 O 1.2560(2) 0.28324(17) 0.53321(13)
C5 C 1.0917(3) 0.2508(2) 0.48118(16)
C6 C 0.8349(3) 0.2849(2) 0.52577(17)
H5 H 0.732(4) 0.247(2) 0.483(2)
C7 C 0.7371(3) 0.3615(2) 0.61696(17)
H6 H 0.564(4) 0.375(2) 0.635(2)
C8 C 0.8419(3) 0.43391(19) 0.70654(16)
O7 O 1.0721(2) 0.43528(15) 0.69766(12)
H7 H 1.139(4) 0.379(3) 0.640(2)
O8 O 0.7131(3) 0.4912(2) 0.78663(16)
Rb1A Rb 0.20515(3) 0.638258(19) -0.128680(18)
Rb1A_2 Rb 1.20515(3) -0.361742(19) -0.128680(18)
Rb1_2 Rb 0.79485(3) -0.638258(19) 0.128680(18)
Rb1A_3 Rb 0.20515(3) -0.361742(19) -0.128680(18)
Rb1A_4 Rb 1.20515(3) 0.638258(19) 0.871320(18)
Rb1A_5 Rb 0.20515(3) 0.638258(19) 0.871320(18)
O3A O 1.1016(2) 0.17488(14) -0.05691(13)
H3A H 1.124(5) 0.101(3) -0.106(3)
O4_2 O 0.6843(3) 0.68491(16) 0.00089(13)
O4A O 0.3157(3) 0.31509(16) -0.00089(13)
O4A_2 O 1.3157(3) 0.31509(16) -0.00089(13)
O7A O 0.9279(2) 0.56472(15) 0.30234(12)
H7A H 0.861(4) 0.621(3) 0.360(2)
O8A O 0.2869(3) 0.5088(2) 0.21337(16)
loop_
_geom_bond_atom_site_label_1
_geom_bond_atom_site_label_2
_geom_bond_site_symmetry_1
_geom_bond_site_symmetry_2
Rb1 O1 1_555 1_555
O1 C1 1_555 1_555
O2 Rb1 1_555 1_555
C1 O2 1_555 1_555
C2 C1 1_555 1_555
H1 C2 1_555 1_555
C3 C2 1_555 1_555
H2 C3 1_555 1_555
C4 C3 1_555 1_555
O3 C4 1_555 1_555
H3 O3 1_555 1_555
O4 C4 1_555 1_555
O5 Rb1 1_555 1_555
H4 O5 1_555 1_555
O6 C5 1_555 1_555
C5 O5 1_555 1_555
C6 C5 1_555 1_555
H5 C6 1_555 1_555
C7 C6 1_555 1_555
H6 C7 1_555 1_555
C8 C7 1_555 1_555
O7 C8 1_555 1_555
H7 O7 1_555 1_555
O8 C8 1_555 1_555
Rb1A O4_2 1_555 1_555
Rb1A_2 O3 1_555 1_555
Rb1_2 O4 1_555 1_555
Rb1A_3 O4 1_555 1_555
Rb1A_4 O7 1_555 1_555
Rb1A_5 O8 1_555 1_555
O3A Rb1 1_555 1_555
H3A O3A 1_555 1_555
O4_2 Rb1 1_555 1_555
O4A Rb1 1_555 1_555
O4A_2 Rb1 1_555 1_555
O7A Rb1 1_555 1_555
H7A O7A 1_555 1_555
O8A Rb1 1_555 1_555
O4 Rb1A_2 1_555 1_555
Rb1A O4A 1_555 1_555

#END
