
#######################################################################
#
#                 Cambridge Crystallographic Data Centre
#                                CCDC 
#
#######################################################################
#
# If this CIF has been generated from an entry in the Cambridge 
# Structural Database, then it will include bibliographic, chemical, 
# crystal, experimental, refinement or atomic coordinate data resulting 
# from the CCDC's data processing and validation procedures.
#
#######################################################################

data_GUDLAU
_symmetry_cell_setting           hexagonal
_symmetry_space_group_name_H-M   'P 62 2 2'
_symmetry_Int_Tables_number      180
_space_group_name_Hall           "P 62 2' (0,0,4)"
loop_
_symmetry_equiv_pos_site_id
_symmetry_equiv_pos_as_xyz
1 x,y,z
2 x-y,x,1/3+z
3 y,-x+y,2/3+z
4 -y,x-y,2/3+z
5 -x+y,-x,1/3+z
6 x-y,-y,-z
7 -x,-x+y,1/3-z
8 -x,-y,z
9 y,x,2/3-z
10 -y,-x,2/3-z
11 -x+y,y,-z
12 x,x-y,1/3-z
_cell_length_a                   18.5292(3)
_cell_length_b                   18.5292(3)
_cell_length_c                   19.6529(4)
_cell_angle_alpha                90
_cell_angle_beta                 90
_cell_angle_gamma                120
_cell_volume                     5843.47
loop_
_atom_site_label
_atom_site_type_symbol
_atom_site_fract_x
_atom_site_fract_y
_atom_site_fract_z
Au1 Au 0.65952(2) 0.31904(2) 0.5000
Au2 Au 1.0000 1.0000 0.5000
Cu1 Cu 0.82832(4) 0.65663(8) 0.5000
Cu2 Cu 0.5000 0.0000 0.5000
O1 O 0.3736(4) 0.0000 0.5000
N1 N 0.7562(3) 0.5125(5) 0.5000
N2 N 0.5619(2) 0.1239(5) 0.5000
N3 N 0.9029(3) 0.8058(5) 0.5000
N4 N 0.8159(5) 0.6593(4) 0.6035(3)
N5 N 0.7209(5) 0.6603(4) 0.4877(4)
N6 N 0.5000 0.0000 0.6039(4)
C1 C 0.7202(3) 0.4403(6) 0.5000
C2 C 0.5978(3) 0.1957(6) 0.5000
C3 C 0.9384(3) 0.8767(6) 0.5000
C4 C 0.8725(7) 0.7236(5) 0.6409(4)
H1 H 0.9208 0.7658 0.6187
C5 C 0.8641(6) 0.7312(6) 0.7097(5)
H2 H 0.9051 0.7777 0.7344
C6 C 0.7942(7) 0.6693(7) 0.7416(5)
H3 H 0.7864 0.6728 0.7890
C7 C 0.7365(7) 0.6032(7) 0.7049(5)
H4 H 0.6885 0.5597 0.7264
C8 C 0.7487(6) 0.6002(6) 0.6359(5)
H5 H 0.7077 0.5544 0.6104
C9 C 0.6631(6) 0.6096(5) 0.4413(5)
H6 H 0.6726 0.5707 0.4170
C10 C 0.5916(7) 0.6123(6) 0.4282(5)
H7 H 0.5525 0.5764 0.3953
C11 C 0.5779(7) 0.6687(6) 0.4640(5)
H8 H 0.5292 0.6722 0.4559
C12 C 0.6350(7) 0.7192(6) 0.5112(6)
H9 H 0.6263 0.7580 0.5363
C13 C 0.7053(7) 0.7132(6) 0.5219(5)
H10 H 0.7444 0.7483 0.5552
C14 C 0.4993(6) 0.0615(5) 0.6392(4)
H11 H 0.4982 0.1053 0.6149
C15 C 0.5002(7) 0.0640(6) 0.7093(4)
H12 H 0.5009 0.1091 0.7328
C16 C 0.5000 0.0000 0.7445(6)
H13 H 0.5000 0.0000 0.7928
H14 H 0.349(3) 0.024(3) 0.529(3)
H14E H 0.325(4) -0.024(3) 0.471(3)
C14G C 0.5007(6) -0.0615(5) 0.6392(4)
H11G H 0.5018 -0.1053 0.6149
C15G C 0.4998(7) -0.0640(6) 0.7093(4)
H12G H 0.4991 -0.1091 0.7328
Au1E Au 0.34048(3) -0.31904(2) 0.5000
Cu1E Cu 0.17169(9) -0.65663(8) 0.5000
N1E N 0.2437(6) -0.5125(5) 0.5000
N2E N 0.4380(5) -0.1239(5) 0.5000
N3E N 0.0971(6) -0.8058(5) 0.5000
N4E N 0.1566(6) -0.6593(4) 0.3965(3)
N5E N 0.0606(6) -0.6603(4) 0.5123(4)
N6E N 0.5000 0.0000 0.3961(4)
C1E C 0.2799(7) -0.4403(6) 0.5000
C2E C 0.4021(7) -0.1957(6) 0.5000
C3E C 0.0617(7) -0.8767(6) 0.5000
C4E C 0.1489(9) -0.7236(5) 0.3591(4)
H1E H 0.1550 -0.7658 0.3813
C5E C 0.1329(8) -0.7312(6) 0.2903(5)
H2E H 0.1274 -0.7777 0.2656
C6E C 0.1249(10) -0.6693(7) 0.2584(5)
H3E H 0.1136 -0.6728 0.2110
C7E C 0.1333(10) -0.6032(7) 0.2951(5)
H4E H 0.1288 -0.5597 0.2736
C8E C 0.1485(8) -0.6002(6) 0.3641(5)
H5E H 0.1533 -0.5544 0.3896
C9E C 0.0535(8) -0.6096(5) 0.5587(5)
H6E H 0.1019 -0.5707 0.5830
C10E C -0.0207(9) -0.6123(6) 0.5718(5)
H7E H -0.0239 -0.5764 0.6047
C11E C -0.0908(9) -0.6687(6) 0.5360(5)
H8E H -0.1430 -0.6722 0.5441
C12E C -0.0842(9) -0.7192(6) 0.4888(6)
H9E H -0.1317 -0.7580 0.4637
C13E C -0.0079(9) -0.7132(6) 0.4781(5)
H10E H -0.0039 -0.7483 0.4448
C14E C 0.4378(8) -0.0615(5) 0.3608(4)
H11E H 0.3929 -0.1053 0.3851
C15E C 0.4362(9) -0.0640(6) 0.2907(4)
H12E H 0.3918 -0.1091 0.2672
C16E C 0.5000 0.0000 0.2555(6)
H13E H 0.5000 0.0000 0.2072
C14J C 0.5622(8) 0.0615(5) 0.3608(4)
H11J H 0.6071 0.1053 0.3851
C15J C 0.5638(9) 0.0640(6) 0.2907(4)
H12J H 0.6082 0.1091 0.2672
O1G O 0.6264(4) 0.0000 0.5000
N4G N 0.1841(5) -0.6593(4) 0.6035(3)
N5G N 0.2791(5) -0.6603(4) 0.4877(4)
C4G C 0.1275(7) -0.7236(5) 0.6409(4)
H1G H 0.0792 -0.7658 0.6187
C5G C 0.1359(6) -0.7312(6) 0.7097(5)
H2G H 0.0949 -0.7777 0.7344
C6G C 0.2058(7) -0.6693(7) 0.7416(5)
H3G H 0.2136 -0.6728 0.7890
C7G C 0.2635(7) -0.6032(7) 0.7049(5)
H4G H 0.3115 -0.5597 0.7264
C8G C 0.2513(6) -0.6002(6) 0.6359(5)
H5G H 0.2923 -0.5544 0.6104
C9G C 0.3369(6) -0.6096(5) 0.4413(5)
H6G H 0.3274 -0.5707 0.4170
C10G C 0.4084(7) -0.6123(6) 0.4282(5)
H7G H 0.4475 -0.5764 0.3953
C11G C 0.4221(7) -0.6687(6) 0.4640(5)
H8G H 0.4708 -0.6722 0.4559
C12G C 0.3650(7) -0.7192(6) 0.5112(6)
H9G H 0.3737 -0.7580 0.5363
C13G C 0.2947(7) -0.7132(6) 0.5219(5)
H10G H 0.2556 -0.7483 0.5552
H14G H 0.651(3) -0.024(3) 0.529(3)
H14J H 0.675(4) 0.024(3) 0.471(3)
N4J N 0.8434(6) 0.6593(4) 0.3965(3)
N5J N 0.9394(6) 0.6603(4) 0.5123(4)
C4J C 0.8511(9) 0.7236(5) 0.3591(4)
H1J H 0.8450 0.7658 0.3813
C5J C 0.8671(8) 0.7312(6) 0.2903(5)
H2J H 0.8726 0.7777 0.2656
C6J C 0.8751(10) 0.6693(7) 0.2584(5)
H3J H 0.8864 0.6728 0.2110
C7J C 0.8667(10) 0.6032(7) 0.2951(5)
H4J H 0.8712 0.5597 0.2736
C8J C 0.8515(8) 0.6002(6) 0.3641(5)
H5J H 0.8467 0.5544 0.3896
C9J C 0.9465(8) 0.6096(5) 0.5587(5)
H6J H 0.8981 0.5707 0.5830
C10J C 1.0207(9) 0.6123(6) 0.5718(5)
H7J H 1.0239 0.5764 0.6047
C11J C 1.0908(9) 0.6687(6) 0.5360(5)
H8J H 1.1430 0.6722 0.5441
C12J C 1.0842(9) 0.7192(6) 0.4888(6)
H9J H 1.1317 0.7580 0.4637
C13J C 1.0079(9) 0.7132(6) 0.4781(5)
H10J H 1.0039 0.7483 0.4448
Au2_2 Au 0.0000 -1.0000 0.5000
C3E_2 C 1.0617(7) 1.1233(6) 0.5000
Au3 Au 0.66415(2) 0.33208(2) 0.6667
N7 N 0.4695(6) 0.2348(3) 0.6667
N8 N 0.8589(6) 0.4294(3) 0.6667
C17 C 0.5413(6) 0.2706(3) 0.6667
C18 C 0.7878(7) 0.3939(3) 0.6667
Au4 Au 1.0000 1.0000 0.6667
N9 N 0.8060(7) 0.9030(4) 0.6667
C19 C 0.8771(7) 0.9386(3) 0.6667
N9F N 1.1940(7) 1.0970(8) 0.6666
C19F C 1.1229(7) 1.0615(8) 0.6666
O2 O 0.7583(4) 0.6654(4) 0.9253(4)
H15 H 0.803(4) 0.719(2) 0.939(4)
H16 H 0.766(3) 0.623(2) 0.945(4)
loop_
_geom_bond_atom_site_label_1
_geom_bond_atom_site_label_2
_geom_bond_site_symmetry_1
_geom_bond_site_symmetry_2
Au1 C1 1_555 1_555
Au2 C3 1_555 1_555
Cu1 N1 1_555 1_555
Cu2 O1 1_555 1_555
O1 H14 1_555 1_555
N1 C1 1_555 1_555
N2 Cu2 1_555 1_555
N3 Cu1 1_555 1_555
N4 Cu1 1_555 1_555
N5 Cu1 1_555 1_555
N6 Cu2 1_555 1_555
C2 Au1 1_555 1_555
C3 N3 1_555 1_555
C4 N4 1_555 1_555
H1 C4 1_555 1_555
C5 C4 1_555 1_555
H2 C5 1_555 1_555
C6 C5 1_555 1_555
H3 C6 1_555 1_555
C7 C6 1_555 1_555
H4 C7 1_555 1_555
C8 N4 1_555 1_555
H5 C8 1_555 1_555
C9 N5 1_555 1_555
H6 C9 1_555 1_555
C10 C9 1_555 1_555
H7 C10 1_555 1_555
C11 C10 1_555 1_555
H8 C11 1_555 1_555
C12 C11 1_555 1_555
H9 C12 1_555 1_555
C13 N5 1_555 1_555
H10 C13 1_555 1_555
C14 N6 1_555 1_555
H11 C14 1_555 1_555
C15 C14 1_555 1_555
H12 C15 1_555 1_555
C16 C15 1_555 1_555
H13 C16 1_555 1_555
Au3 C17 1_555 1_555
N7 C17 1_555 1_555
N8 C18 1_555 1_555
C18 Au3 1_555 1_555
Au4 C19 1_555 1_555
N9 C19 1_555 1_555
O2 H15 1_555 1_555
H16 O2 1_555 1_555
H14E O1 1_555 1_555
C14G N6 1_555 1_555
H11G C14G 1_555 1_555
C15G C16 1_555 1_555
H12G C15G 1_555 1_555
Au1E C1E 1_555 1_555
Cu1E N1E 1_555 1_555
N1E C1E 1_555 1_555
N2E Cu2 1_555 1_555
N3E Cu1E 1_555 1_555
N4E Cu1E 1_555 1_555
N5E Cu1E 1_555 1_555
N6E Cu2 1_555 1_555
C2E Au1E 1_555 1_555
C3E N3E 1_555 1_555
C4E N4E 1_555 1_555
H1E C4E 1_555 1_555
C5E C4E 1_555 1_555
H2E C5E 1_555 1_555
C6E C5E 1_555 1_555
H3E C6E 1_555 1_555
C7E C6E 1_555 1_555
H4E C7E 1_555 1_555
C8E N4E 1_555 1_555
H5E C8E 1_555 1_555
C9E N5E 1_555 1_555
H6E C9E 1_555 1_555
C10E C9E 1_555 1_555
H7E C10E 1_555 1_555
C11E C10E 1_555 1_555
H8E C11E 1_555 1_555
C12E C11E 1_555 1_555
H9E C12E 1_555 1_555
C13E N5E 1_555 1_555
H10E C13E 1_555 1_555
C14E N6E 1_555 1_555
H11E C14E 1_555 1_555
C15E C14E 1_555 1_555
H12E C15E 1_555 1_555
C16E C15E 1_555 1_555
H13E C16E 1_555 1_555
C14J N6E 1_555 1_555
H11J C14J 1_555 1_555
C15J C16E 1_555 1_555
H12J C15J 1_555 1_555
O1G Cu2 1_555 1_555
N4G Cu1E 1_555 1_555
N5G Cu1E 1_555 1_555
C4G N4G 1_555 1_555
H1G C4G 1_555 1_555
C5G C4G 1_555 1_555
H2G C5G 1_555 1_555
C6G C5G 1_555 1_555
H3G C6G 1_555 1_555
C7G C6G 1_555 1_555
H4G C7G 1_555 1_555
C8G N4G 1_555 1_555
H5G C8G 1_555 1_555
C9G N5G 1_555 1_555
H6G C9G 1_555 1_555
C10G C9G 1_555 1_555
H7G C10G 1_555 1_555
C11G C10G 1_555 1_555
H8G C11G 1_555 1_555
C12G C11G 1_555 1_555
H9G C12G 1_555 1_555
C13G N5G 1_555 1_555
H10G C13G 1_555 1_555
H14G O1G 1_555 1_555
H14J O1G 1_555 1_555
N4J Cu1 1_555 1_555
N5J Cu1 1_555 1_555
C4J N4J 1_555 1_555
H1J C4J 1_555 1_555
C5J C4J 1_555 1_555
H2J C5J 1_555 1_555
C6J C5J 1_555 1_555
H3J C6J 1_555 1_555
C7J C6J 1_555 1_555
H4J C7J 1_555 1_555
C8J N4J 1_555 1_555
H5J C8J 1_555 1_555
C9J N5J 1_555 1_555
H6J C9J 1_555 1_555
C10J C9J 1_555 1_555
H7J C10J 1_555 1_555
C11J C10J 1_555 1_555
H8J C11J 1_555 1_555
C12J C11J 1_555 1_555
H9J C12J 1_555 1_555
C13J N5J 1_555 1_555
H10J C13J 1_555 1_555
Au2_2 C3E 1_555 1_555
C3E_2 Au2 1_555 1_555
N9F C19F 1_555 1_555
C19F Au4 1_555 1_555
N2 C2 1_555 1_555
C7 C8 1_555 1_555
C12 C13 1_555 1_555
C14G C15G 1_555 1_555
N2E C2E 1_555 1_555
C7E C8E 1_555 1_555
C12E C13E 1_555 1_555
C14J C15J 1_555 1_555
C7G C8G 1_555 1_555
C12G C13G 1_555 1_555
C7J C8J 1_555 1_555
C12J C13J 1_555 1_555

#END
