
#######################################################################
#
#                 Cambridge Crystallographic Data Centre
#                                CCDC 
#
#######################################################################
#
# If this CIF has been generated from an entry in the Cambridge 
# Structural Database, then it will include bibliographic, chemical, 
# crystal, experimental, refinement or atomic coordinate data resulting 
# from the CCDC's data processing and validation procedures.
#
#######################################################################

data_GUDMAV
_symmetry_cell_setting           monoclinic
_symmetry_space_group_name_H-M   'P 21/n'
_symmetry_Int_Tables_number      14
_space_group_name_Hall           '-P 2yn'
loop_
_symmetry_equiv_pos_site_id
_symmetry_equiv_pos_as_xyz
1 x,y,z
2 1/2-x,1/2+y,1/2-z
3 -x,-y,-z
4 1/2+x,1/2-y,1/2+z
_cell_length_a                   16.317(3)
_cell_length_b                   14.555(3)
_cell_length_c                   21.006(4)
_cell_angle_alpha                90
_cell_angle_beta                 110.362(4)
_cell_angle_gamma                90
_cell_volume                     4677.06
loop_
_atom_site_label
_atom_site_type_symbol
_atom_site_fract_x
_atom_site_fract_y
_atom_site_fract_z
Cu1 Cu 0.52146(5) 0.42060(5) 0.19596(4)
Cu2 Cu 0.66698(5) 0.32058(5) 0.14705(4)
Cu3 Cu 0.61367(5) 0.52483(5) 0.10154(4)
C1 C 0.4974(3) 1.3374(3) 0.3482(3)
H1 H 0.5485 1.3706 0.3553
C2 C 0.4440(4) 1.3580(3) 0.3853(2)
H2 H 0.4593 1.4050 0.4173
C3 C 0.3676(3) 1.3083(4) 0.3747(3)
H3 H 0.3318 1.3221 0.3995
C4 C 0.3446(3) 1.2380(4) 0.3269(3)
H4 H 0.2935 1.2048 0.3198
C5 C 0.3981(3) 1.2174(3) 0.2898(2)
H5 H 0.3827 1.1704 0.2578
C6 C 0.4744(3) 1.2671(3) 0.3004(2)
C7 C 0.5345(4) 1.2425(4) 0.2644(3)
C8 C 0.5772(4) 1.1599(4) 0.2664(3)
C9 C 0.6315(4) 1.1770(4) 0.2292(3)
C10 C 0.6968(5) 1.1160(5) 0.2170(3)
C11 C 0.6785(5) 1.0254(5) 0.1983(3)
H6 H 0.6237 1.0014 0.1931
C12 C 0.7417(6) 0.9695(5) 0.1872(4)
H7 H 0.7297 0.9079 0.1761
C13 C 0.8206(6) 1.0052(7) 0.1926(4)
H8 H 0.8618 0.9681 0.1837
C14 C 0.8405(5) 1.0951(6) 0.2111(3)
H9 H 0.8949 1.1188 0.2148
C15 C 0.7789(5) 1.1505(5) 0.2241(3)
H10 H 0.7927 1.2111 0.2377
C16 C 0.5725(4) 1.0744(4) 0.3051(3)
H11 H 0.5471 1.0905 0.3391
H12 H 0.6316 1.0533 0.3290
C17 C 0.7196(5) 0.1819(5) 0.0387(3)
H13 H 0.6629 0.1980 0.0349
C18 C 0.7399(6) 0.0910(6) 0.0324(3)
H14 H 0.6964 0.0466 0.0237
C19 C 0.8223(7) 0.0658(6) 0.0389(4)
H15 H 0.8352 0.0045 0.0342
C20 C 0.8870(6) 0.1314(6) 0.0523(4)
H16 H 0.9439 0.1142 0.0577
C21 C 0.8674(5) 0.2225(5) 0.0579(3)
H17 H 0.9114 0.2664 0.0667
C22 C 0.7838(4) 0.2495(5) 0.0508(3)
C23 C 0.7614(4) 0.3470(4) 0.0515(3)
C24 C 0.7825(4) 0.4203(5) 0.0181(3)
C25 C 0.7440(4) 0.4975(4) 0.0357(3)
C26 C 0.7482(4) 0.5951(5) 0.0197(4)
C27 C 0.7563(6) 0.6236(6) -0.0388(4)
H18 H 0.7566 0.5797 -0.0709
C28 C 0.7641(8) 0.7141(7) -0.0531(6)
H19 H 0.7685 0.7301 -0.0947
C29 C 0.7656(7) 0.7792(8) -0.0089(7)
H20 H 0.7718 0.8404 -0.0192
C30 C 0.7581(5) 0.7566(6) 0.0513(5)
H21 H 0.7580 0.8020 0.0824
C31 C 0.7504(4) 0.6636(6) 0.0660(4)
H22 H 0.7466 0.6477 0.1077
C32 C 0.8285(4) 0.4140(4) -0.0329(3)
H23 H 0.7900 0.4401 -0.0753
H24 H 0.8357 0.3495 -0.0411
C33 C 0.9166(4) 0.4599(4) -0.0155(4)
C34 C 0.9741(5) 0.4681(5) 0.0509(4)
H25 H 0.9575 0.4459 0.0861
C35 C 0.9450(5) 0.4916(4) -0.0658(3)
H26 H 0.9089 0.4858 -0.1109
C36 C 0.5151(4) 0.6915(5) -0.0010(4)
H27 H 0.5043 0.6296 -0.0115
C37 C 0.5326(5) 0.7502(8) -0.0469(4)
H28 H 0.5346 0.7272 -0.0876
C38 C 0.5468(6) 0.8403(7) -0.0324(5)
H29 H 0.5574 0.8794 -0.0637
C39 C 0.5458(5) 0.8745(5) 0.0275(4)
H30 H 0.5568 0.9365 0.0377
C40 C 0.5285(4) 0.8166(5) 0.0728(3)
H31 H 0.5268 0.8408 0.1133
C41 C 0.5136(4) 0.7249(5) 0.0608(3)
C42 C 0.4905(4) 0.6639(4) 0.1085(3)
C43 C 0.4343(4) 0.6811(4) 0.1443(3)
C44 C 0.4329(4) 0.5988(4) 0.1773(3)
C45 C 0.3845(4) 0.5763(5) 0.2223(4)
C46 C 0.3355(5) 0.4965(6) 0.2124(5)
H32 H 0.3354 0.4550 0.1787
C47 C 0.2844(8) 0.4784(9) 0.2555(7)
H33 H 0.2506 0.4257 0.2503
C48 C 0.2882(9) 0.5424(9) 0.3039(8)
H34 H 0.2536 0.5331 0.3304
C49 C 0.3361(8) 0.6142(8) 0.3154(6)
H35 H 0.3397 0.6530 0.3514
C50 C 0.3837(6) 0.6332(6) 0.2719(5)
H36 H 0.4156 0.6875 0.2782
C51 C 0.3820(4) 0.7658(4) 0.1431(3)
H37 H 0.3335 0.7493 0.1574
H38 H 0.3575 0.7871 0.0965
C52 C 0.4302(4) 0.8447(4) 0.1865(3)
C53 C 0.5029(4) 0.8331(4) 0.2430(3)
H39 H 0.5227 0.7738 0.2563
C54 C 0.5484(4) 0.9069(4) 0.2813(3)
H40 H 0.5980 0.8964 0.3193
C55 C 0.5204(4) 0.9949(4) 0.2632(3)
C56 C 0.4470(4) 1.0067(4) 0.2056(4)
H41 H 0.4268 1.0659 0.1920
C57 C 0.4032(4) 0.9329(4) 0.1682(3)
H42 H 0.3543 0.9431 0.1296
N1 N 0.5598(3) 1.3045(3) 0.2278(2)
N2 N 0.6219(3) 1.2629(3) 0.2064(2)
N3 N 0.7128(3) 0.3778(4) 0.0877(2)
N4 N 0.7017(3) 0.4705(4) 0.0783(2)
N5 N 0.5208(3) 0.5770(3) 0.1200(2)
N6 N 0.4844(3) 0.5362(3) 0.1628(2)
C17B C 1.2804(5) 0.8181(5) -0.0387(3)
H13B H 1.3371 0.8020 -0.0349
C18B C 1.2601(6) 0.9090(6) -0.0324(3)
H14B H 1.3036 0.9534 -0.0237
C19B C 1.1777(7) 0.9342(6) -0.0389(4)
H15B H 1.1648 0.9955 -0.0342
C20B C 1.1130(6) 0.8686(6) -0.0523(4)
H16B H 1.0561 0.8858 -0.0577
C21B C 1.1326(5) 0.7775(5) -0.0579(3)
H17B H 1.0886 0.7336 -0.0667
C22B C 1.2162(4) 0.7505(5) -0.0508(3)
C23B C 1.2386(4) 0.6530(4) -0.0515(3)
C24B C 1.2175(4) 0.5797(5) -0.0181(3)
C25B C 1.2560(4) 0.5025(4) -0.0357(3)
C26B C 1.2518(4) 0.4049(5) -0.0197(4)
C27B C 1.2437(6) 0.3764(6) 0.0388(4)
H18B H 1.2434 0.4203 0.0709
C28B C 1.2359(8) 0.2859(7) 0.0531(6)
H19B H 1.2315 0.2699 0.0947
C29B C 1.2344(7) 0.2208(8) 0.0089(7)
H20B H 1.2282 0.1596 0.0192
C30B C 1.2419(5) 0.2434(6) -0.0513(5)
H21B H 1.2420 0.1980 -0.0824
C31B C 1.2496(4) 0.3364(6) -0.0660(4)
H22B H 1.2534 0.3523 -0.1077
C32B C 1.1715(4) 0.5860(4) 0.0329(3)
H23B H 1.2100 0.5599 0.0753
H24B H 1.1643 0.6505 0.0411
C33B C 1.0834(4) 0.5401(4) 0.0155(4)
C34B C 1.0259(5) 0.5319(5) -0.0509(4)
H25B H 1.0425 0.5541 -0.0861
C35B C 1.0550(5) 0.5084(4) 0.0658(3)
H26B H 1.0911 0.5142 0.1109
N3B N 1.2872(3) 0.6222(4) -0.0877(2)
N4B N 1.2983(3) 0.5295(4) -0.0783(2)
Cu1B Cu 1.47854(5) 0.57940(5) -0.19596(4)
Cu2B Cu 1.33302(5) 0.67942(5) -0.14705(4)
Cu3B Cu 1.38633(5) 0.47517(5) -0.10154(4)
C1B C 1.5026(3) -0.3374(3) -0.3482(3)
H1B H 1.4515 -0.3706 -0.3553
C2B C 1.5560(4) -0.3580(3) -0.3853(2)
H2B H 1.5407 -0.4050 -0.4173
C3B C 1.6324(3) -0.3083(4) -0.3747(3)
H3B H 1.6682 -0.3221 -0.3995
C4B C 1.6554(3) -0.2380(4) -0.3269(3)
H4B H 1.7065 -0.2048 -0.3198
C5B C 1.6019(3) -0.2174(3) -0.2898(2)
H5B H 1.6173 -0.1704 -0.2578
C6B C 1.5256(3) -0.2671(3) -0.3004(2)
C7B C 1.4655(4) -0.2425(4) -0.2644(3)
C8B C 1.4228(4) -0.1599(4) -0.2664(3)
C9B C 1.3685(4) -0.1770(4) -0.2292(3)
C10B C 1.3032(5) -0.1160(5) -0.2170(3)
C11B C 1.3215(5) -0.0254(5) -0.1983(3)
H6B H 1.3763 -0.0014 -0.1931
C12B C 1.2583(6) 0.0305(5) -0.1872(4)
H7B H 1.2703 0.0921 -0.1761
C13B C 1.1794(6) -0.0052(7) -0.1926(4)
H8B H 1.1382 0.0319 -0.1837
C14B C 1.1595(5) -0.0951(6) -0.2111(3)
H9B H 1.1051 -0.1188 -0.2148
C15B C 1.2211(5) -0.1505(5) -0.2241(3)
H10B H 1.2073 -0.2111 -0.2377
C16B C 1.4275(4) -0.0744(4) -0.3051(3)
H11B H 1.4529 -0.0905 -0.3391
H12B H 1.3684 -0.0533 -0.3290
C36B C 1.4849(4) 0.3085(5) 0.0010(4)
H27B H 1.4957 0.3704 0.0115
C37B C 1.4674(5) 0.2498(8) 0.0469(4)
H28B H 1.4654 0.2728 0.0876
C38B C 1.4532(6) 0.1597(7) 0.0324(5)
H29B H 1.4426 0.1206 0.0637
C39B C 1.4542(5) 0.1255(5) -0.0275(4)
H30B H 1.4432 0.0635 -0.0377
C40B C 1.4715(4) 0.1834(5) -0.0728(3)
H31B H 1.4732 0.1592 -0.1133
C41B C 1.4864(4) 0.2751(5) -0.0608(3)
C42B C 1.5095(4) 0.3361(4) -0.1085(3)
C43B C 1.5657(4) 0.3189(4) -0.1443(3)
C44B C 1.5671(4) 0.4012(4) -0.1773(3)
C45B C 1.6155(4) 0.4237(5) -0.2223(4)
C46B C 1.6645(5) 0.5035(6) -0.2124(5)
H32B H 1.6646 0.5450 -0.1787
C47B C 1.7156(8) 0.5216(9) -0.2555(7)
H33B H 1.7494 0.5743 -0.2503
C48B C 1.7118(9) 0.4576(9) -0.3039(8)
H34B H 1.7464 0.4669 -0.3304
C49B C 1.6639(8) 0.3858(8) -0.3154(6)
H35B H 1.6603 0.3470 -0.3514
C50B C 1.6163(6) 0.3668(6) -0.2719(5)
H36B H 1.5844 0.3125 -0.2782
C51B C 1.6180(4) 0.2342(4) -0.1431(3)
H37B H 1.6665 0.2507 -0.1574
H38B H 1.6425 0.2129 -0.0965
C52B C 1.5698(4) 0.1553(4) -0.1865(3)
C53B C 1.4971(4) 0.1669(4) -0.2430(3)
H39B H 1.4773 0.2262 -0.2563
C54B C 1.4516(4) 0.0931(4) -0.2813(3)
H40B H 1.4020 0.1036 -0.3193
C55B C 1.4796(4) 0.0051(4) -0.2632(3)
C56B C 1.5530(4) -0.0067(4) -0.2056(4)
H41B H 1.5732 -0.0659 -0.1920
C57B C 1.5968(4) 0.0671(4) -0.1682(3)
H42B H 1.6457 0.0569 -0.1296
N1B N 1.4402(3) -0.3045(3) -0.2278(2)
N2B N 1.3781(3) -0.2629(3) -0.2064(2)
N5B N 1.4792(3) 0.4230(3) -0.1200(2)
N6B N 1.5156(3) 0.4638(3) -0.1628(2)
Cu1_2 Cu 0.52146(5) 1.42060(5) 0.19596(4)
Cu1B_2 Cu 1.47854(5) -0.42060(5) -0.19596(4)
Cu2_2 Cu 0.66698(5) 1.32058(5) 0.14705(4)
Cu2B_2 Cu 1.33302(5) -0.32058(5) -0.14705(4)
N1_2 N 0.5598(3) 0.3045(3) 0.2278(2)
N1B_2 N 1.4402(3) 0.6955(3) -0.2278(2)
N2_2 N 0.6219(3) 0.2629(3) 0.2064(2)
N2B_2 N 1.3781(3) 0.7371(3) -0.2064(2)
loop_
_geom_bond_atom_site_label_1
_geom_bond_atom_site_label_2
_geom_bond_site_symmetry_1
_geom_bond_site_symmetry_2
Cu1 N6 1_555 1_555
Cu2 N3 1_555 1_555
Cu3 N4 1_555 1_555
C1 H1 1_555 1_555
C2 C1 1_555 1_555
H2 C2 1_555 1_555
C3 C2 1_555 1_555
H3 C3 1_555 1_555
C4 C3 1_555 1_555
H4 C4 1_555 1_555
C5 C4 1_555 1_555
H5 C5 1_555 1_555
C6 C1 1_555 1_555
C7 C6 1_555 1_555
C8 C7 1_555 1_555
C9 C8 1_555 1_555
C10 C9 1_555 1_555
C11 C10 1_555 1_555
H6 C11 1_555 1_555
C12 C11 1_555 1_555
H7 C12 1_555 1_555
C13 C12 1_555 1_555
H8 C13 1_555 1_555
C14 C13 1_555 1_555
H9 C14 1_555 1_555
C15 C10 1_555 1_555
H10 C15 1_555 1_555
C16 C8 1_555 1_555
H11 C16 1_555 1_555
H12 C16 1_555 1_555
C17 H13 1_555 1_555
C18 C17 1_555 1_555
H14 C18 1_555 1_555
C19 C18 1_555 1_555
H15 C19 1_555 1_555
C20 C19 1_555 1_555
H16 C20 1_555 1_555
C21 C20 1_555 1_555
H17 C21 1_555 1_555
C22 C17 1_555 1_555
C23 C22 1_555 1_555
C24 C23 1_555 1_555
C25 C24 1_555 1_555
C26 C25 1_555 1_555
C27 C26 1_555 1_555
H18 C27 1_555 1_555
C28 C27 1_555 1_555
H19 C28 1_555 1_555
C29 C28 1_555 1_555
H20 C29 1_555 1_555
C30 C29 1_555 1_555
H21 C30 1_555 1_555
C31 C26 1_555 1_555
H22 C31 1_555 1_555
C32 C24 1_555 1_555
H23 C32 1_555 1_555
H24 C32 1_555 1_555
C33 C32 1_555 1_555
C34 C33 1_555 1_555
H25 C34 1_555 1_555
C35 C33 1_555 1_555
H26 C35 1_555 1_555
C36 H27 1_555 1_555
C37 C36 1_555 1_555
H28 C37 1_555 1_555
C38 C37 1_555 1_555
H29 C38 1_555 1_555
C39 C38 1_555 1_555
H30 C39 1_555 1_555
C40 C39 1_555 1_555
H31 C40 1_555 1_555
C41 C36 1_555 1_555
C42 C41 1_555 1_555
C43 C42 1_555 1_555
C44 C43 1_555 1_555
C45 C44 1_555 1_555
C46 C45 1_555 1_555
H32 C46 1_555 1_555
C47 C46 1_555 1_555
H33 C47 1_555 1_555
C48 C47 1_555 1_555
H34 C48 1_555 1_555
C49 C48 1_555 1_555
H35 C49 1_555 1_555
C50 C45 1_555 1_555
H36 C50 1_555 1_555
C51 C43 1_555 1_555
H37 C51 1_555 1_555
H38 C51 1_555 1_555
C52 C51 1_555 1_555
C53 C52 1_555 1_555
H39 C53 1_555 1_555
C54 C53 1_555 1_555
H40 C54 1_555 1_555
C55 C16 1_555 1_555
C56 C55 1_555 1_555
H41 C56 1_555 1_555
C57 C52 1_555 1_555
H42 C57 1_555 1_555
N1 C7 1_555 1_555
N2 C9 1_555 1_555
N3 C23 1_555 1_555
N4 C25 1_555 1_555
N5 Cu3 1_555 1_555
N6 C44 1_555 1_555
C17B H13B 1_555 1_555
C18B C17B 1_555 1_555
H14B C18B 1_555 1_555
C19B C18B 1_555 1_555
H15B C19B 1_555 1_555
C20B C19B 1_555 1_555
H16B C20B 1_555 1_555
C21B C20B 1_555 1_555
H17B C21B 1_555 1_555
C22B C17B 1_555 1_555
C23B C22B 1_555 1_555
C24B C23B 1_555 1_555
C25B C24B 1_555 1_555
C26B C25B 1_555 1_555
C27B C26B 1_555 1_555
H18B C27B 1_555 1_555
C28B C27B 1_555 1_555
H19B C28B 1_555 1_555
C29B C28B 1_555 1_555
H20B C29B 1_555 1_555
C30B C29B 1_555 1_555
H21B C30B 1_555 1_555
C31B C26B 1_555 1_555
H22B C31B 1_555 1_555
C32B C24B 1_555 1_555
H23B C32B 1_555 1_555
H24B C32B 1_555 1_555
C33B C32B 1_555 1_555
C34B C35 1_555 1_555
H25B C34B 1_555 1_555
C35B C34 1_555 1_555
H26B C35B 1_555 1_555
N3B C23B 1_555 1_555
N4B C25B 1_555 1_555
Cu1B N6B 1_555 1_555
Cu2B N3B 1_555 1_555
Cu3B N4B 1_555 1_555
C1B H1B 1_555 1_555
C2B C1B 1_555 1_555
H2B C2B 1_555 1_555
C3B C2B 1_555 1_555
H3B C3B 1_555 1_555
C4B C3B 1_555 1_555
H4B C4B 1_555 1_555
C5B C4B 1_555 1_555
H5B C5B 1_555 1_555
C6B C1B 1_555 1_555
C7B C6B 1_555 1_555
C8B C7B 1_555 1_555
C9B C8B 1_555 1_555
C10B C9B 1_555 1_555
C11B C10B 1_555 1_555
H6B C11B 1_555 1_555
C12B C11B 1_555 1_555
H7B C12B 1_555 1_555
C13B C12B 1_555 1_555
H8B C13B 1_555 1_555
C14B C13B 1_555 1_555
H9B C14B 1_555 1_555
C15B C10B 1_555 1_555
H10B C15B 1_555 1_555
C16B C8B 1_555 1_555
H11B C16B 1_555 1_555
H12B C16B 1_555 1_555
C36B H27B 1_555 1_555
C37B C36B 1_555 1_555
H28B C37B 1_555 1_555
C38B C37B 1_555 1_555
H29B C38B 1_555 1_555
C39B C38B 1_555 1_555
H30B C39B 1_555 1_555
C40B C39B 1_555 1_555
H31B C40B 1_555 1_555
C41B C36B 1_555 1_555
C42B C41B 1_555 1_555
C43B C42B 1_555 1_555
C44B C43B 1_555 1_555
C45B C44B 1_555 1_555
C46B C45B 1_555 1_555
H32B C46B 1_555 1_555
C47B C46B 1_555 1_555
H33B C47B 1_555 1_555
C48B C47B 1_555 1_555
H34B C48B 1_555 1_555
C49B C48B 1_555 1_555
H35B C49B 1_555 1_555
C50B C45B 1_555 1_555
H36B C50B 1_555 1_555
C51B C43B 1_555 1_555
H37B C51B 1_555 1_555
H38B C51B 1_555 1_555
C52B C51B 1_555 1_555
C53B C52B 1_555 1_555
H39B C53B 1_555 1_555
C54B C53B 1_555 1_555
H40B C54B 1_555 1_555
C55B C16B 1_555 1_555
C56B C55B 1_555 1_555
H41B C56B 1_555 1_555
C57B C52B 1_555 1_555
H42B C57B 1_555 1_555
N1B C7B 1_555 1_555
N2B C9B 1_555 1_555
N5B Cu3B 1_555 1_555
N6B C44B 1_555 1_555
Cu1_2 N1 1_555 1_555
Cu1B_2 N1B 1_555 1_555
Cu2_2 N2 1_555 1_555
Cu2B_2 N2B 1_555 1_555
N1_2 Cu1 1_555 1_555
N1B_2 Cu1B 1_555 1_555
N2_2 Cu2 1_555 1_555
N2B_2 Cu2B 1_555 1_555
C5 C6 1_555 1_555
C14 C15 1_555 1_555
C21 C22 1_555 1_555
C30 C31 1_555 1_555
C40 C41 1_555 1_555
C42 N5 1_555 1_555
C49 C50 1_555 1_555
C54 C55 1_555 1_555
C56 C57 1_555 1_555
N1 N2 1_555 1_555
N3 N4 1_555 1_555
N5 N6 1_555 1_555
C21B C22B 1_555 1_555
C30B C31B 1_555 1_555
C33B C34B 1_555 1_555
C33B C35B 1_555 1_555
N3B N4B 1_555 1_555
C5B C6B 1_555 1_555
C14B C15B 1_555 1_555
C40B C41B 1_555 1_555
C42B N5B 1_555 1_555
C49B C50B 1_555 1_555
C54B C55B 1_555 1_555
C56B C57B 1_555 1_555
N1B N2B 1_555 1_555
N5B N6B 1_555 1_555
N1_2 N2_2 1_555 1_555
N1B_2 N2B_2 1_555 1_555

#END
