
#######################################################################
#
#                 Cambridge Crystallographic Data Centre
#                                CCDC 
#
#######################################################################
#
# If this CIF has been generated from an entry in the Cambridge 
# Structural Database, then it will include bibliographic, chemical, 
# crystal, experimental, refinement or atomic coordinate data resulting 
# from the CCDC's data processing and validation procedures.
#
#######################################################################

data_GUDTIJ
_symmetry_cell_setting           triclinic
_symmetry_space_group_name_H-M   'P -1'
_symmetry_Int_Tables_number      2
_space_group_name_Hall           '-P 1'
loop_
_symmetry_equiv_pos_site_id
_symmetry_equiv_pos_as_xyz
1 x,y,z
2 -x,-y,-z
_cell_length_a                   8.438(2)
_cell_length_b                   10.407(2)
_cell_length_c                   14.408(3)
_cell_angle_alpha                85.17(3)
_cell_angle_beta                 86.85(3)
_cell_angle_gamma                75.03(3)
_cell_volume                     1217.22
loop_
_atom_site_label
_atom_site_type_symbol
_atom_site_fract_x
_atom_site_fract_y
_atom_site_fract_z
Sm1 Sm 0.49518(2) -0.028007(19) 0.717537(13)
Sm2 Sm 0.81913(2) -0.205844(19) 0.929509(13)
C1 C 0.3857(6) 0.3129(4) 0.7027(3)
C2 C 0.4684(7) 0.3653(5) 0.6271(4)
H1 H 0.5053 0.3148 0.5762
C3 C 0.4948(7) 0.4888(5) 0.6274(3)
H2 H 0.5522 0.5209 0.5777
C4 C 0.4360(6) 0.5682(4) 0.7024(3)
C5 C 0.3541(6) 0.5185(5) 0.7742(3)
H3 H 0.3141 0.5694 0.8245
C6 C 0.4622(6) 0.7054(4) 0.7039(3)
C7 C 1.0544(8) -0.2266(7) 0.4446(4)
C8 C 1.1165(6) -0.1568(5) 0.5031(3)
H4 H 1.1924 -0.1115 0.4780
C9 C 1.0759(6) -0.1488(5) 0.5949(3)
H5 H 1.1249 -0.1003 0.6306
C10 C 0.9638(5) -0.2112(4) 0.6354(3)
C11 C 0.8956(6) -0.2868(5) 0.5784(3)
H6 H 0.8187 -0.3308 0.6039
C12 C 0.9091(5) -0.1906(4) 0.7332(3)
C13 C 0.4702(5) 0.0224(4) 0.9500(3)
C14 C 0.5917(5) -0.0010(4) 0.4994(3)
C15 C 0.9344(5) 0.0601(4) 0.9783(3)
C16 C 0.9634(5) -0.4873(4) 1.0497(3)
N1 N 0.3304(5) 0.3951(4) 0.7729(3)
H7 H 0.2771 0.3667 0.8193
N2 N 0.9418(7) -0.2953(6) 0.4865(4)
H8 H 0.9016 -0.3435 0.4534
O1 O 0.3581(4) 0.1994(3) 0.7095(2)
O2 O 0.2100(4) 0.0053(3) 0.7747(2)
H9 H 0.1601 -0.0564 0.7818
H10 H 0.1510 0.0843 0.7644
O3 O 0.7001(4) 0.0977(3) 0.7496(2)
H11 H 0.7428 0.1032 0.8007
H12 H 0.7506 0.1443 0.7139
O4 O 0.5104(4) 0.7601(3) 0.6317(2)
O5 O 0.6179(4) -0.3389(3) 0.9276(2)
H13 H 0.5537 -0.3132 0.8825
H14 H 0.6221 -0.4196 0.9192
O6 O 0.4314(4) 0.7626(3) 0.7797(2)
O7 O 1.0949(8) -0.2208(7) 0.3602(3)
O8 O 0.7645(4) -0.1994(3) 0.7588(2)
O9 O 1.0007(4) -0.1652(3) 0.7912(2)
O10 O 0.5494(3) -0.0489(3) 0.88685(19)
O11 O 0.3540(4) 0.1197(3) 0.9380(2)
O12 O 0.6478(4) 0.0117(3) 0.5766(2)
O13 O 0.6692(4) -0.0140(3) 0.4237(2)
O14 O 0.8272(4) 0.0321(3) 0.9332(2)
O15 O 0.9474(4) 0.1732(3) 0.9921(2)
O16 O 0.8714(4) -0.3742(3) 1.0615(2)
O17 O 1.0012(4) -0.5827(3) 1.1106(2)
C13A C 0.5298(5) -0.0224(4) 1.0500(3)
O10A O 0.4506(3) 0.0489(3) 1.11315(19)
O11A O 0.6460(4) -0.1197(3) 1.0620(2)
C14A C 0.4083(5) 0.0010(4) 0.5006(3)
O12A O 0.3522(4) -0.0117(3) 0.4234(2)
O13A O 0.3308(4) 0.0140(3) 0.5763(2)
C15A C 1.0656(5) -0.0601(4) 1.0217(3)
O14A O 1.1728(4) -0.0321(3) 1.0668(2)
O15A O 1.0526(4) -0.1732(3) 1.0079(2)
C16A C 1.0366(5) -0.5127(4) 0.9503(3)
O16A O 1.1286(4) -0.6258(3) 0.9385(2)
O17A O 0.9988(4) -0.4173(3) 0.8894(2)
C1_2 C 0.3857(6) -0.6871(4) 0.7027(3)
C2_2 C 0.4684(7) -0.6347(5) 0.6271(4)
H1_2 H 0.5053 -0.6852 0.5762
C3_2 C 0.4948(7) -0.5112(5) 0.6274(3)
H2_2 H 0.5522 -0.4791 0.5777
C4_2 C 0.4360(6) -0.4318(4) 0.7024(3)
C5_2 C 0.3541(6) -0.4815(5) 0.7742(3)
H3_2 H 0.3141 -0.4306 0.8245
C6_2 C 0.4622(6) -0.2946(4) 0.7039(3)
N1_2 N 0.3304(5) -0.6049(4) 0.7729(3)
H7_2 H 0.2771 -0.6333 0.8193
O1_2 O 0.3581(4) -0.8006(3) 0.7095(2)
O4_2 O 0.5104(4) -0.2399(3) 0.6317(2)
O6_2 O 0.4314(4) -0.2374(3) 0.7797(2)
Sm1_2 Sm 0.49518(2) -1.028007(19) 0.717537(13)
Sm2A Sm 0.18087(2) 0.205844(19) 1.070491(13)
O2_2 O 0.2100(4) -0.9947(3) 0.7747(2)
H9_2 H 0.1601 -1.0564 0.7818
H10_2 H 0.1510 -0.9157 0.7644
O3_2 O 0.7001(4) -0.9023(3) 0.7496(2)
H11_2 H 0.7428 -0.8968 0.8007
H12_2 H 0.7506 -0.8557 0.7139
C7_2 C 1.0544(8) -1.2266(7) 0.4446(4)
C8_2 C 1.1165(6) -1.1568(5) 0.5031(3)
H4_2 H 1.1924 -1.1115 0.4780
C9_2 C 1.0759(6) -1.1488(5) 0.5949(3)
H5_2 H 1.1249 -1.1003 0.6306
C10_2 C 0.9638(5) -1.2112(4) 0.6354(3)
C11_2 C 0.8956(6) -1.2868(5) 0.5784(3)
H6_2 H 0.8187 -1.3308 0.6039
C12_2 C 0.9091(5) -1.1906(4) 0.7332(3)
N2_2 N 0.9418(7) -1.2953(6) 0.4865(4)
H8_2 H 0.9016 -1.3435 0.4534
O7_2 O 1.0949(8) -1.2208(7) 0.3602(3)
O8_2 O 0.7645(4) -1.1994(3) 0.7588(2)
O9_2 O 1.0007(4) -1.1652(3) 0.7912(2)
O5A O 0.3821(4) 0.3389(3) 1.0724(2)
H13A H 0.4463 0.3132 1.1175
H14A H 0.3779 0.4196 1.0808
Sm1_3 Sm 0.49518(2) 0.971993(19) 0.717537(13)
Sm1A Sm 0.50482(2) 0.028007(19) 0.282463(13)
Sm2A_2 Sm 1.18087(2) 0.205844(19) 1.070491(13)
Sm2A_3 Sm 1.18087(2) -0.794156(19) 1.070491(13)
Sm1A_2 Sm 0.50482(2) 0.028007(19) 1.282463(13)
O4_3 O 0.5104(4) -1.2399(3) 0.6317(2)
O6_3 O 0.4314(4) -1.2374(3) 0.7797(2)
O10_2 O 0.5494(3) -1.0489(3) 0.88685(19)
O12_2 O 0.6478(4) -0.9883(3) 0.5766(2)
O13A_2 O 0.3308(4) -0.9860(3) 0.5763(2)
O8A O 0.2355(4) 0.1994(3) 1.2412(2)
O9A O -0.0007(4) 0.1652(3) 1.2088(2)
O14A_2 O 0.1728(4) -0.0321(3) 1.0668(2)
O15_2 O -0.0526(4) 0.1732(3) 0.9921(2)
O16A_2 O 0.1286(4) 0.3742(3) 0.9385(2)
O17_2 O 0.0012(4) 0.4173(3) 1.1106(2)
Sm2_2 Sm 0.81913(2) -1.205844(19) 0.929509(13)
O18 O -0.013(2) 0.255(2) 0.7961(12)
H15 H 0.0502 0.1788 0.7864
H16 H -0.0928 0.2689 0.7602
O19 O 0.6738(8) -0.6084(6) 0.9488(7)
H17 H 0.7257 -0.5935 0.8985
H18 H 0.6190 -0.6555 0.9261
O20 O -0.126(3) 0.4406(16) 0.7339(12)
H19 H -0.0913 0.4859 0.7710
H20 H -0.2106 0.5054 0.7283
loop_
_geom_bond_atom_site_label_1
_geom_bond_atom_site_label_2
_geom_bond_site_symmetry_1
_geom_bond_site_symmetry_2
Sm1 O1 1_555 1_555
Sm2 O5 1_555 1_555
C1 C2 1_555 1_555
C2 H1 1_555 1_555
C3 C2 1_555 1_555
H2 C3 1_555 1_555
C4 C3 1_555 1_555
C5 C4 1_555 1_555
H3 C5 1_555 1_555
C6 C4 1_555 1_555
C7 C8 1_555 1_555
C8 H4 1_555 1_555
C9 C8 1_555 1_555
H5 C9 1_555 1_555
C10 C9 1_555 1_555
C11 C10 1_555 1_555
H6 C11 1_555 1_555
C12 C10 1_555 1_555
C13 O10 1_555 1_555
C14 O12 1_555 1_555
C15 O14 1_555 1_555
C16 O16 1_555 1_555
N1 C1 1_555 1_555
H7 N1 1_555 1_555
N2 C7 1_555 1_555
H8 N2 1_555 1_555
O1 C1 1_555 1_555
O2 Sm1 1_555 1_555
H9 O2 1_555 1_555
H10 O2 1_555 1_555
O3 Sm1 1_555 1_555
H11 O3 1_555 1_555
H12 O3 1_555 1_555
O4 C6 1_555 1_555
O5 H13 1_555 1_555
H14 O5 1_555 1_555
O6 C6 1_555 1_555
O7 C7 1_555 1_555
O8 Sm1 1_555 1_555
O9 Sm2 1_555 1_555
O10 Sm1 1_555 1_555
O11 C13 1_555 1_555
O12 Sm1 1_555 1_555
O13 C14 1_555 1_555
O14 Sm2 1_555 1_555
O15 C15 1_555 1_555
O16 Sm2 1_555 1_555
O17 C16 1_555 1_555
O18 H15 1_555 1_555
H16 O18 1_555 1_555
O19 H17 1_555 1_555
H18 O19 1_555 1_555
O20 H19 1_555 1_555
H20 O20 1_555 1_555
C13A C13 1_555 1_555
O10A C13A 1_555 1_555
O11A Sm2 1_555 1_555
C14A C14 1_555 1_555
O12A C14A 1_555 1_555
O13A Sm1 1_555 1_555
C15A C15 1_555 1_555
O14A C15A 1_555 1_555
O15A Sm2 1_555 1_555
C16A C16 1_555 1_555
O16A C16A 1_555 1_555
O17A Sm2 1_555 1_555
C1_2 C2_2 1_555 1_555
C2_2 H1_2 1_555 1_555
C3_2 C2_2 1_555 1_555
H2_2 C3_2 1_555 1_555
C4_2 C3_2 1_555 1_555
C5_2 C4_2 1_555 1_555
H3_2 C5_2 1_555 1_555
C6_2 C4_2 1_555 1_555
N1_2 C1_2 1_555 1_555
H7_2 N1_2 1_555 1_555
O1_2 C1_2 1_555 1_555
O4_2 Sm1 1_555 1_555
O6_2 Sm1 1_555 1_555
Sm1_2 O1_2 1_555 1_555
Sm2A O11 1_555 1_555
O2_2 Sm1_2 1_555 1_555
H9_2 O2_2 1_555 1_555
H10_2 O2_2 1_555 1_555
O3_2 Sm1_2 1_555 1_555
H11_2 O3_2 1_555 1_555
H12_2 O3_2 1_555 1_555
C7_2 C8_2 1_555 1_555
C8_2 H4_2 1_555 1_555
C9_2 C8_2 1_555 1_555
H5_2 C9_2 1_555 1_555
C10_2 C9_2 1_555 1_555
C11_2 C10_2 1_555 1_555
H6_2 C11_2 1_555 1_555
C12_2 C10_2 1_555 1_555
N2_2 C7_2 1_555 1_555
H8_2 N2_2 1_555 1_555
O7_2 C7_2 1_555 1_555
O8_2 Sm1_2 1_555 1_555
O9_2 C12_2 1_555 1_555
O5A Sm2A 1_555 1_555
H13A O5A 1_555 1_555
H14A O5A 1_555 1_555
Sm1_3 O4 1_555 1_555
Sm1A O13 1_555 1_555
Sm2A_2 O15 1_555 1_555
Sm2A_3 O17 1_555 1_555
Sm1A_2 O10A 1_555 1_555
O4_3 Sm1_2 1_555 1_555
O6_3 Sm1_2 1_555 1_555
O10_2 Sm1_2 1_555 1_555
O12_2 Sm1_2 1_555 1_555
O13A_2 Sm1_2 1_555 1_555
O8A Sm2A 1_555 1_555
O9A Sm2A 1_555 1_555
O14A_2 Sm2A 1_555 1_555
O15_2 Sm2A 1_555 1_555
O16A_2 Sm2A 1_555 1_555
O17_2 Sm2A 1_555 1_555
Sm2_2 O8_2 1_555 1_555
Sm2 O8 1_555 1_555
Sm2 O10 1_555 1_555
C5 N1 1_555 1_555
C11 N2 1_555 1_555
C12 O8 1_555 1_555
C12 O9 1_555 1_555
O6 Sm1_3 1_555 1_555
C13A O11A 1_555 1_555
O10A Sm2A 1_555 1_555
C14A O13A 1_555 1_555
O12A Sm1A 1_555 1_555
C15A O15A 1_555 1_555
O14A Sm2A_2 1_555 1_555
C16A O17A 1_555 1_555
O16A Sm2A_3 1_555 1_555
C5_2 N1_2 1_555 1_555
C6_2 O4_2 1_555 1_555
C6_2 O6_2 1_555 1_555
C11_2 N2_2 1_555 1_555
C12_2 O8_2 1_555 1_555
O9_2 Sm2_2 1_555 1_555
Sm1A_2 O8A 1_555 1_555
O10_2 Sm2_2 1_555 1_555

#END
