
#######################################################################
#
#                 Cambridge Crystallographic Data Centre
#                                CCDC 
#
#######################################################################
#
# If this CIF has been generated from an entry in the Cambridge 
# Structural Database, then it will include bibliographic, chemical, 
# crystal, experimental, refinement or atomic coordinate data resulting 
# from the CCDC's data processing and validation procedures.
#
#######################################################################

data_GUDTEF
_symmetry_cell_setting           triclinic
_symmetry_space_group_name_H-M   'P -1'
_symmetry_Int_Tables_number      2
_space_group_name_Hall           '-P 1'
loop_
_symmetry_equiv_pos_site_id
_symmetry_equiv_pos_as_xyz
1 x,y,z
2 -x,-y,-z
_cell_length_a                   8.470(2)
_cell_length_b                   10.464(2)
_cell_length_c                   14.496(3)
_cell_angle_alpha                85.37(3)
_cell_angle_beta                 86.47(3)
_cell_angle_gamma                75.19(3)
_cell_volume                     1236.93
loop_
_atom_site_label
_atom_site_type_symbol
_atom_site_fract_x
_atom_site_fract_y
_atom_site_fract_z
Nd1 Nd 0.680304(19) -0.793028(15) 0.071565(11)
Nd2 Nd 1.00640(2) -0.971953(15) 0.281962(10)
C1 C 0.4478(6) -0.7766(5) 0.5572(3)
C2 C 0.5613(6) -0.7087(5) 0.5155(3)
C3 C 0.6069(5) -0.7165(4) 0.4239(3)
C4 C 0.5367(4) -0.7890(3) 0.3666(2)
C5 C 0.4237(5) -0.8495(4) 0.4059(3)
C6 C 0.5910(4) -0.8083(3) 0.2689(2)
C7 C 1.1153(4) -0.3138(3) 0.2967(2)
N1 N 1.1690(4) -0.3952(3) 0.2267(2)
C8 C 1.1469(5) -0.5179(4) 0.2253(3)
C9 C 1.0650(4) -0.5684(3) 0.2967(2)
C10 C 1.0074(5) -0.4894(4) 0.3721(3)
C11 C 1.0404(4) -0.7037(3) 0.2952(2)
C12 C 0.4623(4) -0.4872(3) 0.0496(2)
C13 C 0.5644(4) -1.0587(3) 0.0216(2)
C14 C 1.0281(4) -1.0214(3) 0.0494(2)
C15 C 0.9092(4) -0.9999(3) 0.5008(2)
N2 N 0.3833(4) -0.8438(4) 0.4981(2)
C16 C 1.0321(6) -0.3657(4) 0.3724(3)
O1 O 0.8840(4) -0.6582(3) 0.0738(2)
O2 O 0.4065(6) -0.7821(5) 0.6412(2)
O3 O 0.7358(3) -0.7997(2) 0.24287(16)
O4 O 0.7991(4) -1.0975(3) 0.2492(2)
H1 H 0.760(6) -1.103(5) 0.194(4)
H2 H 0.754(6) -1.133(5) 0.281(4)
O5 O 0.4990(3) -0.8329(3) 0.21207(17)
O6 O 1.2945(4) -1.0055(4) 0.2250(2)
H3 H 1.352(6) -0.954(5) 0.212(4)
H4 H 1.342(6) -1.063(5) 0.229(3)
O7 O 1.1434(3) -0.2011(2) 0.29042(19)
O8 O 0.9930(3) -0.7591(2) 0.36720(17)
O9 O 1.0701(3) -0.7607(2) 0.21963(17)
O10 O 0.4989(3) -0.5798(2) 0.11032(16)
O11 O 0.3702(3) -0.3745(2) 0.06047(16)
O12 O 0.6703(3) -1.0310(2) 0.06749(18)
O13 O 0.5531(3) -1.1722(2) 0.00682(19)
O14 O 0.9506(3) -0.9497(2) 0.11242(15)
O15 O 1.1432(3) -1.1195(2) 0.06169(16)
O16 O 0.8530(3) -1.0127(3) 0.42431(16)
O17 O 0.8314(3) -0.9873(2) 0.57630(15)
H5 H 0.380(5) -0.901(4) 0.375(3)
H6 H 1.190(6) -0.562(5) 0.181(3)
H7 H 0.938(6) -0.519(5) 0.425(3)
H8 H 0.682(6) -0.670(5) 0.391(3)
H9 H 0.299(8) -0.905(6) 0.524(4)
H10 H 0.612(6) -0.668(5) 0.560(3)
H11 H 1.210(6) -0.374(5) 0.188(3)
H12 H 0.938(6) -0.675(5) 0.112(3)
H13 H 0.869(7) -0.586(6) 0.069(4)
H14 H 0.986(6) -0.308(5) 0.412(4)
Nd1A Nd 0.319696(19) -0.206972(15) -0.071565(11)
Nd1A_2 Nd 0.319696(19) -1.206972(15) -0.071565(11)
Nd1A_3 Nd 1.319696(19) -1.206972(15) -0.071565(11)
Nd2A Nd 0.99360(2) -1.028047(15) -0.281962(10)
Nd2_2 Nd 1.00640(2) 0.028047(15) 0.281962(10)
Nd2A_2 Nd 0.99360(2) -1.028047(15) 0.718038(10)
Nd2_3 Nd 1.00640(2) -1.971953(15) 0.281962(10)
Nd2A_3 Nd -0.00640(2) -0.028047(15) -0.281962(10)
C1A C 0.5522(6) -0.2234(5) -0.5572(3)
C2A C 0.4387(6) -0.2913(5) -0.5155(3)
C3A C 0.3931(5) -0.2835(4) -0.4239(3)
C4A C 0.4633(4) -0.2110(3) -0.3666(2)
C5A C 0.5763(5) -0.1505(4) -0.4059(3)
C6A C 0.4090(4) -0.1917(3) -0.2689(2)
C7_2 C 1.1153(4) -1.3138(3) 0.2967(2)
N1_2 N 1.1690(4) -1.3952(3) 0.2267(2)
C8_2 C 1.1469(5) -1.5179(4) 0.2253(3)
C9_2 C 1.0650(4) -1.5684(3) 0.2967(2)
C10_2 C 1.0074(5) -1.4894(4) 0.3721(3)
C11_2 C 1.0404(4) -1.7037(3) 0.2952(2)
C12A C 0.5377(4) -0.5128(3) -0.0496(2)
C13A C 0.4356(4) -0.9413(3) -0.0216(2)
C14A C 0.9719(4) -0.9786(3) -0.0494(2)
C15A C 1.0908(4) -1.0001(3) 0.4992(2)
N2A N 0.6167(4) -0.1562(4) -0.4981(2)
C16_2 C 1.0321(6) -1.3657(4) 0.3724(3)
O1A O 0.1160(4) -0.3418(3) -0.0738(2)
O2A O 0.5935(6) -0.2179(5) -0.6412(2)
O3A O 0.2642(3) -0.2003(2) -0.24287(16)
O3A_2 O 1.2642(3) -1.2003(2) -0.24287(16)
O4A O 1.2009(4) -0.9025(3) -0.2492(2)
H1A H 1.240(6) -0.897(5) -0.194(4)
H2A H 1.246(6) -0.867(5) -0.281(4)
O5A O 0.5010(3) -0.1671(3) -0.21207(17)
O6A O 0.7055(4) -0.9945(4) -0.2250(2)
H3A H 0.648(6) -1.046(5) -0.212(4)
H4A H 0.658(6) -0.937(5) -0.229(3)
O7_2 O 1.1434(3) -1.2011(2) 0.29042(19)
O7A O 0.8566(3) -0.7989(2) -0.29042(19)
O8_2 O 0.9930(3) -1.7591(2) 0.36720(17)
O8A O 1.0070(3) -1.2409(2) -0.36720(17)
O9_2 O 1.0701(3) -1.7607(2) 0.21963(17)
O9A O 0.9299(3) -1.2393(2) -0.21963(17)
O10A O 0.5011(3) -0.4202(2) -0.11032(16)
O11A O 0.6298(3) -0.6255(2) -0.06047(16)
O12A O 0.3297(3) -0.9690(2) -0.06749(18)
O12A_2 O 0.3297(3) 0.0310(2) -0.06749(18)
O13A O 0.4469(3) -0.8278(2) -0.00682(19)
O13_2 O 0.5531(3) -0.1722(2) 0.00682(19)
O14A O 1.0494(3) -1.0503(2) -0.11242(15)
O14A_2 O 0.0494(3) -0.0503(2) -0.11242(15)
O15A O 0.8568(3) -0.8805(2) -0.06169(16)
O15_2 O 0.1432(3) -0.1195(2) 0.06169(16)
O16A O 1.1470(3) -0.9873(3) 0.57569(16)
O16A_2 O 1.1470(3) -0.9873(3) -0.42431(16)
O17A O 1.1686(3) -1.0127(2) 0.42370(15)
O17_2 O 0.8314(3) -0.9873(2) -0.42370(15)
H5A H 0.620(5) -0.099(4) -0.375(3)
H6_2 H 1.190(6) -1.562(5) 0.181(3)
H7_2 H 0.938(6) -1.519(5) 0.425(3)
H8A H 0.318(6) -0.330(5) -0.391(3)
H9A H 0.701(8) -0.095(6) -0.524(4)
H10A H 0.388(6) -0.332(5) -0.560(3)
H11_2 H 1.210(6) -1.374(5) 0.188(3)
H12A H 0.062(6) -0.325(5) -0.112(3)
H13A H 0.131(7) -0.414(6) -0.069(4)
H14_2 H 0.986(6) -1.308(5) 0.412(4)
O18 O 0.4836(15) -0.7513(14) 0.7954(8)
H15 H 0.4874 -0.6851 0.8247
H16 H 0.5812 -0.7608 0.8110
O19 O 0.378(3) -0.5502(15) 0.7327(11)
H17 H 0.4108 -0.4991 0.7654
H18 H 0.3249 -0.5879 0.7734
O20 O 0.8260(6) -0.3881(4) 0.0502(5)
H19 H 0.7783 -0.4067 0.1010
H20 H 0.8776 -0.3343 0.0664
loop_
_geom_bond_atom_site_label_1
_geom_bond_atom_site_label_2
_geom_bond_site_symmetry_1
_geom_bond_site_symmetry_2
Nd1 O1 1_555 1_555
Nd2 O3 1_555 1_555
C1 C2 1_555 1_555
C2 C3 1_555 1_555
C3 C4 1_555 1_555
C4 C5 1_555 1_555
C5 N2 1_555 1_555
C6 C4 1_555 1_555
C7 N1 1_555 1_555
N1 C8 1_555 1_555
C8 C9 1_555 1_555
C9 C10 1_555 1_555
C10 C16 1_555 1_555
C11 C9 1_555 1_555
C12 O10 1_555 1_555
C13 O12 1_555 1_555
C14 O14 1_555 1_555
C15 O16 1_555 1_555
N2 C1 1_555 1_555
C16 C7 1_555 1_555
O1 H12 1_555 1_555
O2 C1 1_555 1_555
O3 Nd1 1_555 1_555
O4 Nd2 1_555 1_555
H1 O4 1_555 1_555
H2 O4 1_555 1_555
O5 Nd1 1_555 1_555
O6 Nd2 1_555 1_555
H3 O6 1_555 1_555
H4 O6 1_555 1_555
O7 C7 1_555 1_555
O8 Nd2 1_555 1_555
O9 Nd2 1_555 1_555
O10 Nd1 1_555 1_555
O11 C12 1_555 1_555
O12 Nd1 1_555 1_555
O13 C13 1_555 1_555
O14 Nd1 1_555 1_555
O15 C14 1_555 1_555
O16 Nd2 1_555 1_555
O17 C15 1_555 1_555
H5 C5 1_555 1_555
H6 C8 1_555 1_555
H7 C10 1_555 1_555
H8 C3 1_555 1_555
H9 N2 1_555 1_555
H10 C2 1_555 1_555
H11 N1 1_555 1_555
H13 O1 1_555 1_555
H14 C16 1_555 1_555
O18 H15 1_555 1_555
H16 O18 1_555 1_555
O19 H17 1_555 1_555
H18 O19 1_555 1_555
O20 H19 1_555 1_555
H20 O20 1_555 1_555
Nd1A O11 1_555 1_555
Nd1A_2 O13 1_555 1_555
Nd1A_3 O15 1_555 1_555
Nd2A O3A_2 1_555 1_555
Nd2_2 O7 1_555 1_555
Nd2A_2 O17 1_555 1_555
Nd2_3 O8_2 1_555 1_555
Nd2A_3 O3A 1_555 1_555
C1A C2A 1_555 1_555
C2A C3A 1_555 1_555
C3A C4A 1_555 1_555
C4A C5A 1_555 1_555
C5A N2A 1_555 1_555
C6A C4A 1_555 1_555
C7_2 N1_2 1_555 1_555
N1_2 C8_2 1_555 1_555
C8_2 C9_2 1_555 1_555
C9_2 C10_2 1_555 1_555
C10_2 C16_2 1_555 1_555
C11_2 C9_2 1_555 1_555
C12A C12 1_555 1_555
C13A C13 1_555 1_555
C14A C14 1_555 1_555
C15A C15 1_555 1_555
N2A C1A 1_555 1_555
C16_2 C7_2 1_555 1_555
O1A Nd1A 1_555 1_555
O2A C1A 1_555 1_555
O3A Nd1A 1_555 1_555
O3A_2 Nd1A_3 1_555 1_555
O4A Nd2A 1_555 1_555
H1A O4A 1_555 1_555
H2A O4A 1_555 1_555
O5A Nd1A 1_555 1_555
O6A Nd2A 1_555 1_555
H3A O6A 1_555 1_555
H4A O6A 1_555 1_555
O7_2 Nd2 1_555 1_555
O7A Nd2A 1_555 1_555
O8_2 C11_2 1_555 1_555
O8A Nd2A 1_555 1_555
O9_2 Nd2_3 1_555 1_555
O9A Nd2A 1_555 1_555
O10A Nd1A 1_555 1_555
O11A Nd1 1_555 1_555
O12A Nd1A_2 1_555 1_555
O12A_2 Nd1A 1_555 1_555
O13A Nd1 1_555 1_555
O13_2 Nd1A 1_555 1_555
O14A Nd1A_3 1_555 1_555
O14A_2 Nd1A 1_555 1_555
O15A Nd1 1_555 1_555
O15_2 Nd1A 1_555 1_555
O16A Nd2A_2 1_555 1_555
O16A_2 Nd2A 1_555 1_555
O17A Nd2 1_555 1_555
O17_2 Nd2A 1_555 1_555
H5A C5A 1_555 1_555
H6_2 C8_2 1_555 1_555
H7_2 C10_2 1_555 1_555
H8A C3A 1_555 1_555
H9A N2A 1_555 1_555
H10A C2A 1_555 1_555
H11_2 N1_2 1_555 1_555
H12A O1A 1_555 1_555
H13A O1A 1_555 1_555
H14_2 C16_2 1_555 1_555
Nd2 O14 1_555 1_555
C6 O3 1_555 1_555
C6 O5 1_555 1_555
C11 O8 1_555 1_555
C11 O9 1_555 1_555
Nd2A O14A 1_555 1_555
Nd2A_3 O14A_2 1_555 1_555
C6A O3A 1_555 1_555
C6A O5A 1_555 1_555
C7_2 O7_2 1_555 1_555
C11_2 O9_2 1_555 1_555
C12A O10A 1_555 1_555
C12A O11A 1_555 1_555
C13A O12A 1_555 1_555
C13A O13A 1_555 1_555
C14A O14A 1_555 1_555
C14A O15A 1_555 1_555
C15A O16A 1_555 1_555
C15A O17A 1_555 1_555

#END
