
#######################################################################
#
#                 Cambridge Crystallographic Data Centre
#                                CCDC 
#
#######################################################################
#
# If this CIF has been generated from an entry in the Cambridge 
# Structural Database, then it will include bibliographic, chemical, 
# crystal, experimental, refinement or atomic coordinate data resulting 
# from the CCDC's data processing and validation procedures.
#
#######################################################################

data_GUDYOU
_symmetry_cell_setting           monoclinic
_symmetry_space_group_name_H-M   'P 21/n'
_symmetry_Int_Tables_number      14
_space_group_name_Hall           '-P 2yn'
loop_
_symmetry_equiv_pos_site_id
_symmetry_equiv_pos_as_xyz
1 x,y,z
2 1/2-x,1/2+y,1/2-z
3 -x,-y,-z
4 1/2+x,1/2-y,1/2+z
_cell_length_a                   15.381(4)
_cell_length_b                   13.967(3)
_cell_length_c                   15.629(4)
_cell_angle_alpha                90
_cell_angle_beta                 116.221(4)
_cell_angle_gamma                90
_cell_volume                     3012.02
loop_
_atom_site_label
_atom_site_type_symbol
_atom_site_fract_x
_atom_site_fract_y
_atom_site_fract_z
Mn1 Mn 0.83887(2) 0.16670(2) 0.79066(2)
N1 N 0.92575(12) 0.18363(12) 0.72775(12)
N2 N 0.79167(12) 0.29565(12) 0.73504(12)
N3 N 0.95351(13) 0.24759(13) 0.91992(13)
N4 N 1.22373(13) 0.38842(13) 1.14358(12)
N5 N 0.62177(16) 0.58544(18) 1.08325(18)
N6 N 0.85867(16) 0.55700(19) 1.36539(16)
O1 O 0.89080(10) 0.04652(10) 0.83965(10)
O2 O 0.75005(10) 0.15822(10) 0.84209(10)
O3 O 0.83494(12) 0.69728(11) 1.18520(11)
C1 C 0.97533(14) 0.01064(15) 0.85117(14)
C2 C 1.01052(16) -0.07050(15) 0.90909(15)
H1 H 0.9756 -0.0955 0.9413
C3 C 1.09465(16) -0.11454(16) 0.92003(16)
H2 H 1.1173 -0.1693 0.9599
C4 C 1.14731(16) -0.07961(17) 0.87300(16)
H3 H 1.2049 -0.1110 0.8800
C5 C 1.11494(15) 0.00057(16) 0.81664(16)
H4 H 1.1509 0.0245 0.7851
C6 C 1.02928(15) 0.04800(15) 0.80477(15)
C7 C 1.00022(15) 0.13012(15) 0.74326(14)
H5 H 1.0384 0.1466 0.7115
C8 C 0.89915(15) 0.26402(15) 0.66439(14)
C9 C 0.93902(16) 0.28484(16) 0.60204(15)
H6 H 0.9871 0.2443 0.5990
C10 C 0.90782(17) 0.36541(16) 0.54445(16)
H7 H 0.9356 0.3807 0.5026
C11 C 0.83604(16) 0.42396(16) 0.54753(15)
H8 H 0.8147 0.4784 0.5071
C12 C 0.79510(16) 0.40379(15) 0.60903(15)
H9 H 0.7458 0.4438 0.6105
C13 C 0.82748(15) 0.32388(14) 0.66867(14)
C14 C 0.73795(15) 0.35011(15) 0.75942(14)
H10 H 0.7252 0.4131 0.7339
C15 C 0.69629(14) 0.32266(15) 0.82192(14)
C16 C 0.64513(15) 0.39362(16) 0.84593(15)
H11 H 0.6428 0.4571 0.8232
C17 C 0.59886(16) 0.37290(17) 0.90131(16)
H12 H 0.5648 0.4213 0.9167
C18 C 0.60270(16) 0.27955(18) 0.93458(17)
H13 H 0.5706 0.2645 0.9727
C19 C 0.65220(16) 0.20889(17) 0.91307(16)
H14 H 0.6533 0.1458 0.9362
C20 C 0.70106(15) 0.22849(16) 0.85744(15)
C21 C 0.99594(15) 0.29963(15) 0.98239(14)
C22 C 1.04065(15) 0.36306(15) 1.05881(14)
C23 C 1.14091(16) 0.37395(15) 1.10316(14)
C24 C 0.98102(15) 0.41983(14) 1.09136(14)
C25 C 0.88021(15) 0.42186(16) 1.04028(15)
H15 H 0.8494 0.3842 0.9842
C26 C 0.82443(15) 0.47788(16) 1.07011(15)
H16 H 0.7560 0.4789 1.0340
C27 C 0.86775(16) 0.53229(15) 1.15205(15)
C28 C 0.96854(16) 0.52955(16) 1.20523(16)
H17 H 0.9987 0.5659 1.2623
C29 C 1.02417(16) 0.47468(16) 1.17560(15)
H18 H 1.0926 0.4736 1.2123
C30 C 0.70370(18) 0.58721(18) 1.12878(18)
C31 C 0.81118(16) 0.59889(16) 1.18596(16)
C32 C 0.83672(17) 0.57689(18) 1.28782(18)
C33 C 0.81610(18) 0.73100(18) 1.09174(17)
H19 H 0.8568 0.6959 1.0688
H20 H 0.8310 0.7995 1.0947
H21 H 0.7477 0.7206 1.0480
Mn1C Mn 1.33887(2) 0.33330(2) 1.29066(2)
N4C N 0.72373(13) 0.11158(13) 0.64358(12)
C34 C 0.7722(2) 0.32629(19) 0.2119(2)
C35 C 0.8754(2) 0.3037(2) 0.2607(2)
H22 H 0.9091 0.3533 0.3083
H23 H 0.9019 0.3013 0.2141
H24 H 0.8843 0.2415 0.2924
N7 N 0.6916(2) 0.3444(2) 0.17445(19)
loop_
_geom_bond_atom_site_label_1
_geom_bond_atom_site_label_2
_geom_bond_site_symmetry_1
_geom_bond_site_symmetry_2
Mn1 N1 1_555 1_555
N1 C7 1_555 1_555
N2 Mn1 1_555 1_555
N3 Mn1 1_555 1_555
N4 C23 1_555 1_555
N5 C30 1_555 1_555
N6 C32 1_555 1_555
O1 Mn1 1_555 1_555
O2 Mn1 1_555 1_555
O3 C31 1_555 1_555
C1 O1 1_555 1_555
C2 C1 1_555 1_555
H1 C2 1_555 1_555
C3 C2 1_555 1_555
H2 C3 1_555 1_555
C4 C3 1_555 1_555
H3 C4 1_555 1_555
C5 C4 1_555 1_555
H4 C5 1_555 1_555
C6 C1 1_555 1_555
C7 C6 1_555 1_555
H5 C7 1_555 1_555
C8 N1 1_555 1_555
C9 C8 1_555 1_555
H6 C9 1_555 1_555
C10 C9 1_555 1_555
H7 C10 1_555 1_555
C11 C10 1_555 1_555
H8 C11 1_555 1_555
C12 C11 1_555 1_555
H9 C12 1_555 1_555
C13 N2 1_555 1_555
C14 N2 1_555 1_555
H10 C14 1_555 1_555
C15 C14 1_555 1_555
C16 C15 1_555 1_555
H11 C16 1_555 1_555
C17 C16 1_555 1_555
H12 C17 1_555 1_555
C18 C17 1_555 1_555
H13 C18 1_555 1_555
C19 C18 1_555 1_555
H14 C19 1_555 1_555
C20 O2 1_555 1_555
C21 N3 1_555 1_555
C22 C21 1_555 1_555
C23 C22 1_555 1_555
C24 C22 1_555 1_555
C25 C24 1_555 1_555
H15 C25 1_555 1_555
C26 C25 1_555 1_555
H16 C26 1_555 1_555
C27 C26 1_555 1_555
C28 C27 1_555 1_555
H17 C28 1_555 1_555
C29 C24 1_555 1_555
H18 C29 1_555 1_555
C30 C31 1_555 1_555
C31 C27 1_555 1_555
C32 C31 1_555 1_555
C33 O3 1_555 1_555
H19 C33 1_555 1_555
H20 C33 1_555 1_555
H21 C33 1_555 1_555
C34 C35 1_555 1_555
C35 H22 1_555 1_555
H23 C35 1_555 1_555
H24 C35 1_555 1_555
N7 C34 1_555 1_555
Mn1C N4 1_555 1_555
N4C Mn1 1_555 1_555
C5 C6 1_555 1_555
C8 C13 1_555 1_555
C12 C13 1_555 1_555
C15 C20 1_555 1_555
C19 C20 1_555 1_555
C28 C29 1_555 1_555

#END
