
#######################################################################
#
#                 Cambridge Crystallographic Data Centre
#                                CCDC 
#
#######################################################################
#
# If this CIF has been generated from an entry in the Cambridge 
# Structural Database, then it will include bibliographic, chemical, 
# crystal, experimental, refinement or atomic coordinate data resulting 
# from the CCDC's data processing and validation procedures.
#
#######################################################################

data_GUFBIU
_symmetry_cell_setting           trigonal
_symmetry_space_group_name_H-M   'P 31 2 1'
_symmetry_Int_Tables_number      152
_space_group_name_Hall           'P 31 2"'
loop_
_symmetry_equiv_pos_site_id
_symmetry_equiv_pos_as_xyz
1 x,y,z
2 -y,x-y,1/3+z
3 -x+y,-x,2/3+z
4 y,x,-z
5 -x,-x+y,1/3-z
6 x-y,-y,2/3-z
_cell_length_a                   19.7657(8)
_cell_length_b                   19.7657(8)
_cell_length_c                   11.8402(9)
_cell_angle_alpha                90
_cell_angle_beta                 90
_cell_angle_gamma                120
_cell_volume                     4006.03
loop_
_atom_site_label
_atom_site_type_symbol
_atom_site_fract_x
_atom_site_fract_y
_atom_site_fract_z
Co1 Co 0.28268(3) 0.47845(3) 0.42495(4)
S1 S 0.08603(6) -0.19847(6) 0.66675(10)
S2 S 0.08583(5) -0.03499(6) 0.67264(10)
O1 O 0.23093(16) 0.37703(14) 0.5153(2)
O2 O 0.32279(16) 0.38070(16) 0.6278(2)
O3 O 0.22538(17) -0.47263(17) 0.5059(2)
O4 O 0.31248(18) -0.39049(19) 0.6300(3)
O5 O 0.3401(2) 0.57921(18) 0.3258(3)
H1 H 0.3494 0.3988 0.3595
H2 H 0.3155 0.4125 0.2630
O6 O 0.37552(15) 0.52549(17) 0.5455(2)
H3 H 0.3783 0.4835 0.5852
H4 H 0.3610 0.5522 0.5910
O7 O 0.34626(19) 0.43840(17) 0.3268(2)
H5 H 0.3091 0.6045 0.3212
H6 H 0.3485 0.5662 0.2511
N1 N 0.18128(18) 0.42480(19) 0.3133(3)
C1 C 0.2562(2) 0.3470(2) 0.5870(3)
C2 C 0.1981(2) 0.2644(2) 0.6198(3)
C3 C 0.2170(2) 0.2225(2) 0.6939(3)
H7 H 0.2651 0.2469 0.7303
C4 C 0.1647(2) 0.1444(2) 0.7142(3)
H8 H 0.1776 0.1168 0.7651
C5 C 0.0926(2) 0.1066(2) 0.6589(3)
C6 C 0.0728(2) 0.1496(2) 0.5886(3)
H9 H 0.0240 0.1258 0.5541
C7 C 0.1247(2) 0.2274(2) 0.5691(3)
H10 H 0.1106 0.2557 0.5213
C8 C 0.0392(2) 0.0212(2) 0.6679(3)
C9 C 0.0000 -0.1258(3) 0.6667
C10 C 0.0000 -0.1940(3) 0.6667
C11 C 0.0391(2) -0.3009(2) 0.6652(3)
C12 C 0.0916(2) -0.3335(2) 0.6505(3)
C13 C 0.1563(2) -0.3113(2) 0.7172(3)
H11 H 0.1660 -0.2776 0.7776
C14 C 0.0775(3) -0.3847(3) 0.5607(4)
H12 H 0.0337 -0.4006 0.5154
C15 C 0.2076(2) -0.3389(2) 0.6955(4)
H13 H 0.2512 -0.3235 0.7411
C16 C 0.1935(2) -0.3895(2) 0.6053(3)
C17 C 0.1288(3) -0.4118(3) 0.5388(4)
H14 H 0.1192 -0.4455 0.4784
C18 C 0.2494(2) -0.4182(2) 0.5780(4)
C19 C 0.1545(3) 0.4667(2) 0.2630(4)
H15 H 0.1848 0.5208 0.2666
C20 C 0.0840(3) 0.4345(3) 0.2054(4)
H16 H 0.0675 0.4667 0.1733
C21 C 0.0387(2) 0.3549(2) 0.1962(3)
C22 C 0.0677(3) 0.3108(2) 0.2453(4)
H17 H 0.0398 0.2566 0.2403
C23 C 0.1382(2) 0.3481(2) 0.3016(3)
H18 H 0.1567 0.3174 0.3333
S1D S -0.08603(6) -0.28450(8) 0.66658(10)
S2D S -0.08583(5) -0.12082(8) 0.66069(10)
O1D O -0.23093(16) 0.14610(21) 0.8180(2)
O2D O -0.32279(16) 0.05791(23) 0.7055(2)
O3D O -0.22538(17) -0.69801(24) 0.8274(2)
O4D O -0.31248(18) -0.70297(26) 0.7033(3)
C1D C -0.2562(2) 0.0908(3) 0.7463(3)
C2D C -0.1981(2) 0.0663(3) 0.7135(3)
C3D C -0.2170(2) 0.0055(3) 0.6394(3)
H7D H -0.2651 -0.0182 0.6030
C4D C -0.1647(2) -0.0203(3) 0.6191(3)
H8D H -0.1776 -0.0608 0.5682
C5D C -0.0926(2) 0.0140(3) 0.6744(3)
C6D C -0.0728(2) 0.0768(3) 0.7447(3)
H9D H -0.0240 0.1018 0.7792
C7D C -0.1247(2) 0.1027(3) 0.7642(3)
H10D H -0.1106 0.1451 0.8120
C8D C -0.0392(2) -0.0180(3) 0.6654(3)
C11D C -0.0391(2) -0.3400(3) 0.6681(3)
C12D C -0.0916(2) -0.4251(3) 0.6828(3)
C13D C -0.1563(2) -0.4676(3) 0.6161(3)
H11D H -0.1660 -0.4436 0.5557
C14D C -0.0775(3) -0.4622(4) 0.7726(4)
H12D H -0.0337 -0.4343 0.8179
C15D C -0.2076(2) -0.5465(3) 0.6378(4)
H13D H -0.2512 -0.5747 0.5922
C16D C -0.1935(2) -0.5830(3) 0.7280(3)
C17D C -0.1288(3) -0.5406(4) 0.7945(4)
H14D H -0.1192 -0.5647 0.8549
C18D C -0.2494(2) -0.6676(3) 0.7553(4)
N1D N -0.18128(18) 0.24352(26) 0.0200(3)
C19D C -0.1545(3) 0.3122(4) 0.0703(4)
H15D H -0.1848 0.3360 0.0667
C20D C -0.0840(3) 0.3505(4) 0.1279(4)
H16D H -0.0675 0.3992 0.1600
C21D C -0.0387(2) 0.3162(3) 0.1371(3)
C22D C -0.0677(3) 0.2431(4) 0.0880(4)
H17D H -0.0398 0.2168 0.0930
C23D C -0.1382(2) 0.2099(3) 0.0317(3)
H18D H -0.1567 0.1607 0.0000
Co1D Co -0.28268(3) 0.19577(4) -0.09162(4)
O5D O -0.3401(2) 0.23911(27) 0.0075(3)
H1D H -0.3494 0.0494 -0.0262
H2D H -0.3155 0.0970 0.0703
O6D O -0.37552(15) 0.14997(23) -0.2122(2)
H3D H -0.3783 0.1052 -0.2519
H4D H -0.3610 0.1912 -0.2577
O7D O -0.34626(19) 0.09214(25) 0.0065(2)
H5D H -0.3091 0.2954 0.0121
H6D H -0.3485 0.2177 0.0822
Co1_2 Co 0.28268(3) -0.52155(3) 0.42495(4)
Co1D_2 Co -0.28268(3) -0.80423(4) 0.90838(4)
Co1D_3 Co -0.28268(3) 0.19577(4) 0.90838(4)
O1D_2 O -0.23093(16) 0.14610(21) -0.1820(2)
O3_2 O 0.22538(17) 0.52737(17) 0.5059(2)
O3D_2 O -0.22538(17) 0.30199(24) -0.1726(2)
loop_
_geom_bond_atom_site_label_1
_geom_bond_atom_site_label_2
_geom_bond_site_symmetry_1
_geom_bond_site_symmetry_2
Co1 O1 1_555 1_555
S1 C10 1_555 1_555
S2 C8 1_555 1_555
O1 C1 1_555 1_555
O2 C1 1_555 1_555
O3 C18 1_555 1_555
O4 C18 1_555 1_555
O5 Co1 1_555 1_555
H1 O7 1_555 1_555
H2 O7 1_555 1_555
O6 Co1 1_555 1_555
H3 O6 1_555 1_555
H4 O6 1_555 1_555
O7 Co1 1_555 1_555
H5 O5 1_555 1_555
H6 O5 1_555 1_555
N1 Co1 1_555 1_555
C1 C2 1_555 1_555
C2 C3 1_555 1_555
C3 H7 1_555 1_555
C4 C3 1_555 1_555
H8 C4 1_555 1_555
C5 C4 1_555 1_555
C6 C5 1_555 1_555
H9 C6 1_555 1_555
C7 C2 1_555 1_555
H10 C7 1_555 1_555
C8 C5 1_555 1_555
C9 S2 1_555 1_555
C10 C9 1_555 1_555
C11 S1 1_555 1_555
C12 C11 1_555 1_555
C13 C12 1_555 1_555
H11 C13 1_555 1_555
C14 C12 1_555 1_555
H12 C14 1_555 1_555
C15 C13 1_555 1_555
H13 C15 1_555 1_555
C16 C15 1_555 1_555
C17 C14 1_555 1_555
H14 C17 1_555 1_555
C18 C16 1_555 1_555
C19 N1 1_555 1_555
H15 C19 1_555 1_555
C20 C19 1_555 1_555
H16 C20 1_555 1_555
C21 C20 1_555 1_555
C22 C21 1_555 1_555
H17 C22 1_555 1_555
C23 N1 1_555 1_555
H18 C23 1_555 1_555
S1D C10 1_555 1_555
S2D C9 1_555 1_555
O1D C1D 1_555 1_555
O2D C1D 1_555 1_555
O3D C18D 1_555 1_555
O4D C18D 1_555 1_555
C1D C2D 1_555 1_555
C2D C3D 1_555 1_555
C3D H7D 1_555 1_555
C4D C3D 1_555 1_555
H8D C4D 1_555 1_555
C5D C4D 1_555 1_555
C6D C5D 1_555 1_555
H9D C6D 1_555 1_555
C7D C2D 1_555 1_555
H10D C7D 1_555 1_555
C8D C8 1_555 1_555
C11D C11 1_555 1_555
C12D C11D 1_555 1_555
C13D C12D 1_555 1_555
H11D C13D 1_555 1_555
C14D C12D 1_555 1_555
H12D C14D 1_555 1_555
C15D C13D 1_555 1_555
H13D C15D 1_555 1_555
C16D C15D 1_555 1_555
C17D C14D 1_555 1_555
H14D C17D 1_555 1_555
C18D C16D 1_555 1_555
N1D C19D 1_555 1_555
C19D H15D 1_555 1_555
C20D C19D 1_555 1_555
H16D C20D 1_555 1_555
C21D C21 1_555 1_555
C22D C21D 1_555 1_555
H17D C22D 1_555 1_555
C23D N1D 1_555 1_555
H18D C23D 1_555 1_555
Co1D N1D 1_555 1_555
O5D Co1D 1_555 1_555
H1D O7D 1_555 1_555
H2D O7D 1_555 1_555
O6D Co1D 1_555 1_555
H3D O6D 1_555 1_555
H4D O6D 1_555 1_555
O7D Co1D 1_555 1_555
H5D O5D 1_555 1_555
H6D O5D 1_555 1_555
Co1_2 O3 1_555 1_555
Co1D_2 O3D 1_555 1_555
Co1D_3 O1D 1_555 1_555
O1D_2 Co1D 1_555 1_555
O3_2 Co1 1_555 1_555
O3D_2 Co1D 1_555 1_555
C6 C7 1_555 1_555
C16 C17 1_555 1_555
C22 C23 1_555 1_555
S1D C11D 1_555 1_555
S2D C8D 1_555 1_555
C5D C8D 1_555 1_555
C6D C7D 1_555 1_555
C16D C17D 1_555 1_555
C20D C21D 1_555 1_555
C22D C23D 1_555 1_555

#END
