
#######################################################################
#
#                 Cambridge Crystallographic Data Centre
#                                CCDC 
#
#######################################################################
#
# If this CIF has been generated from an entry in the Cambridge 
# Structural Database, then it will include bibliographic, chemical, 
# crystal, experimental, refinement or atomic coordinate data resulting 
# from the CCDC's data processing and validation procedures.
#
#######################################################################

data_GUFQUU
_symmetry_cell_setting           triclinic
_symmetry_space_group_name_H-M   'P -1'
_symmetry_Int_Tables_number      2
_space_group_name_Hall           '-P 1'
loop_
_symmetry_equiv_pos_site_id
_symmetry_equiv_pos_as_xyz
1 x,y,z
2 -x,-y,-z
_cell_length_a                   10.906(2)
_cell_length_b                   11.047(2)
_cell_length_c                   15.799(3)
_cell_angle_alpha                91.546(2)
_cell_angle_beta                 90.233(2)
_cell_angle_gamma                94.030(2)
_cell_volume                     1898.01
loop_
_atom_site_label
_atom_site_type_symbol
_atom_site_fract_x
_atom_site_fract_y
_atom_site_fract_z
Cd1 Cd 0.861908(16) 0.387860(15) 0.197265(11)
Cd2 Cd 0.621299(14) 0.149532(16) 0.309056(10)
O3 O 0.78498(15) 0.30255(16) 0.33735(12)
O4 O 0.97655(16) 0.2957(2) 0.29629(14)
O5 O 1.34363(17) -0.08390(19) 0.56058(12)
O6 O 1.4180(2) 0.07858(19) 0.63098(12)
O7 O 0.7316(2) 0.04042(17) 0.21742(13)
O8 O 0.71436(17) 0.21926(15) 0.16368(12)
O9 O 1.0626(2) -0.34454(18) -0.07134(12)
O10 O 0.8929(2) -0.4303(2) -0.12970(13)
N1 N 0.92042(19) 0.58561(18) 0.24423(12)
N2 N 0.69496(19) 0.50818(18) 0.18431(13)
N3 N 0.48747(17) 0.30251(18) 0.33104(12)
N4 N 0.43044(19) 0.09127(18) 0.24607(13)
C1 C 1.0355(3) 0.6215(3) 0.26971(18)
H1 H 1.0941 0.5642 0.2698
C2 C 1.0705(3) 0.7385(3) 0.29555(19)
H2 H 1.1505 0.7602 0.3136
C3 C 0.9833(3) 0.8227(3) 0.2939(2)
H3 H 1.0044 0.9029 0.3105
C4 C 0.8654(3) 0.7885(2) 0.26784(18)
H4 H 0.8065 0.8453 0.2663
C5 C 0.8352(2) 0.6682(2) 0.24383(14)
C6 C 0.7091(2) 0.6230(2) 0.21552(15)
C7 C 0.6101(3) 0.6951(3) 0.2206(2)
H5 H 0.6206 0.7739 0.2429
C8 C 0.4958(3) 0.6487(3) 0.1923(2)
H6 H 0.4286 0.6959 0.1960
C9 C 0.4820(3) 0.5328(3) 0.1589(2)
H7 H 0.4062 0.5007 0.1384
C10 C 0.5838(3) 0.4651(3) 0.15635(18)
H8 H 0.5747 0.3861 0.1343
C11 C 0.5188(2) 0.4050(3) 0.37529(18)
H9 H 0.5980 0.4162 0.3975
C12 C 0.4393(3) 0.4946(3) 0.38958(19)
H10 H 0.4645 0.5653 0.4200
C13 C 0.3215(3) 0.4773(3) 0.35771(19)
H11 H 0.2658 0.5363 0.3666
C14 C 0.2865(2) 0.3715(2) 0.31245(18)
H12 H 0.2071 0.3584 0.2908
C15 C 0.3715(2) 0.2853(2) 0.29977(14)
C16 C 0.3406(2) 0.1682(2) 0.25292(14)
C17 C 0.2246(2) 0.1375(3) 0.21841(18)
H13 H 0.1629 0.1913 0.2228
C18 C 0.2027(3) 0.0263(3) 0.1777(2)
H14 H 0.1255 0.0047 0.1545
C19 C 0.2936(3) -0.0527(3) 0.1714(2)
H15 H 0.2797 -0.1283 0.1445
C20 C 0.4070(3) -0.0160(2) 0.20636(18)
H16 H 0.4698 -0.0685 0.2020
C21 C 0.8935(2) 0.2720(3) 0.34852(18)
C22 C 0.9213(3) 0.2032(4) 0.4277(3)
H17 H 0.8592 0.2182 0.4697
H18 H 0.9147 0.1169 0.4137
C23 C 1.0465(2) 0.2362(3) 0.46642(19)
C24 C 1.0691(3) 0.3444(3) 0.5106(2)
H19 H 1.0071 0.3977 0.5158
C25 C 1.1821(3) 0.3752(3) 0.5472(2)
H20 H 1.1964 0.4491 0.5765
C26 C 1.2739(3) 0.2961(3) 0.54027(17)
H21 H 1.3499 0.3163 0.5658
C27 C 1.2544(2) 0.1869(2) 0.49579(15)
C28 C 1.1400(2) 0.1577(2) 0.45922(15)
H22 H 1.1257 0.0843 0.4294
C29 C 1.3563(3) 0.1018(3) 0.48623(18)
H23 H 1.4324 0.1486 0.4739
H24 H 1.3375 0.0462 0.4386
C30 C 1.3742(2) 0.0287(3) 0.56576(17)
C31 C 0.7491(3) 0.1132(2) 0.15852(18)
C32 C 0.8142(4) 0.0713(3) 0.0790(2)
H25 H 0.8019 0.1276 0.0342
H26 H 0.9018 0.0725 0.0903
C33 C 0.7683(3) -0.0544(2) 0.04936(17)
C34 C 0.6469(3) -0.0780(3) 0.0259(2)
H27 H 0.5941 -0.0155 0.0287
C35 C 0.6024(3) -0.1911(4) -0.0014(3)
H28 H 0.5204 -0.2048 -0.0174
C36 C 0.6797(3) -0.2851(3) -0.0051(2)
H29 H 0.6493 -0.3622 -0.0234
C37 C 0.8021(2) -0.2651(2) 0.01849(15)
C38 C 0.8443(2) -0.1494(2) 0.04512(15)
H30 H 0.9265 -0.1350 0.0607
C39 C 0.8861(3) -0.3679(3) 0.01687(17)
H31 H 0.8387 -0.4428 0.0293
H32 H 0.9481 -0.3531 0.0608
C40 C 0.9497(3) -0.3827(2) -0.06855(17)
Cd1A Cd 1.138092(16) -0.387860(15) -0.197265(11)
Cd2A Cd 1.378701(14) -0.149532(16) 0.690944(10)
O5A O 0.65637(17) 0.08390(19) 0.43942(12)
O6A O 0.5820(2) -0.07858(19) 0.36902(12)
O9A O 0.9374(2) 0.34454(18) 0.07134(12)
O1 O 0.3516(3) 0.7799(3) 0.40117(19)
H33 H 0.4225(18) 0.811(3) 0.3804(16)
H35 H 0.343(3) 0.815(3) 0.4521(11)
O2 O 0.2273(3) 0.6659(3) 0.0760(2)
H34 H 0.172(2) 0.672(3) 0.0344(15)
H36 H 0.209(3) 0.5958(18) 0.1007(17)
loop_
_geom_bond_atom_site_label_1
_geom_bond_atom_site_label_2
_geom_bond_site_symmetry_1
_geom_bond_site_symmetry_2
Cd1 O3 1_555 1_555
Cd2 O3 1_555 1_555
O1 H33 1_555 1_555
O2 H34 1_555 1_555
O3 C21 1_555 1_555
O4 Cd1 1_555 1_555
O5 C30 1_555 1_555
O6 C30 1_555 1_555
O7 Cd2 1_555 1_555
O8 Cd1 1_555 1_555
O9 C40 1_555 1_555
O10 C40 1_555 1_555
N1 Cd1 1_555 1_555
N2 Cd1 1_555 1_555
N3 Cd2 1_555 1_555
N4 Cd2 1_555 1_555
C1 N1 1_555 1_555
H1 C1 1_555 1_555
C2 C1 1_555 1_555
H2 C2 1_555 1_555
C3 C2 1_555 1_555
H3 C3 1_555 1_555
C4 C3 1_555 1_555
H4 C4 1_555 1_555
C5 N1 1_555 1_555
C6 N2 1_555 1_555
C7 C6 1_555 1_555
H5 C7 1_555 1_555
C8 C7 1_555 1_555
H6 C8 1_555 1_555
C9 C8 1_555 1_555
H7 C9 1_555 1_555
C10 N2 1_555 1_555
H8 C10 1_555 1_555
C11 N3 1_555 1_555
H9 C11 1_555 1_555
C12 C11 1_555 1_555
H10 C12 1_555 1_555
C13 C12 1_555 1_555
H11 C13 1_555 1_555
C14 C13 1_555 1_555
H12 C14 1_555 1_555
C15 N3 1_555 1_555
C16 N4 1_555 1_555
C17 C16 1_555 1_555
H13 C17 1_555 1_555
C18 C17 1_555 1_555
H14 C18 1_555 1_555
C19 C18 1_555 1_555
H15 C19 1_555 1_555
C20 N4 1_555 1_555
H16 C20 1_555 1_555
C21 O4 1_555 1_555
C22 C21 1_555 1_555
H17 C22 1_555 1_555
H18 C22 1_555 1_555
C23 C22 1_555 1_555
C24 C23 1_555 1_555
H19 C24 1_555 1_555
C25 C24 1_555 1_555
H20 C25 1_555 1_555
C26 C25 1_555 1_555
H21 C26 1_555 1_555
C27 C26 1_555 1_555
C28 C23 1_555 1_555
H22 C28 1_555 1_555
C29 C27 1_555 1_555
H23 C29 1_555 1_555
H24 C29 1_555 1_555
C30 C29 1_555 1_555
C31 O7 1_555 1_555
C32 C31 1_555 1_555
H25 C32 1_555 1_555
H26 C32 1_555 1_555
C33 C32 1_555 1_555
C34 C33 1_555 1_555
H27 C34 1_555 1_555
C35 C34 1_555 1_555
H28 C35 1_555 1_555
C36 C35 1_555 1_555
H29 C36 1_555 1_555
C37 C36 1_555 1_555
C38 C33 1_555 1_555
H30 C38 1_555 1_555
C39 C37 1_555 1_555
H31 C39 1_555 1_555
H32 C39 1_555 1_555
C40 C39 1_555 1_555
H35 O1 1_555 1_555
H36 O2 1_555 1_555
Cd1A O9 1_555 1_555
Cd2A O5 1_555 1_555
O5A Cd2 1_555 1_555
O6A Cd2 1_555 1_555
O9A Cd1 1_555 1_555
Cd2 O8 1_555 1_555
O6 Cd2A 1_555 1_555
O8 C31 1_555 1_555
C4 C5 1_555 1_555
C5 C6 1_555 1_555
C9 C10 1_555 1_555
C14 C15 1_555 1_555
C15 C16 1_555 1_555
C19 C20 1_555 1_555
C27 C28 1_555 1_555
C37 C38 1_555 1_555

#END
