
#######################################################################
#
#                 Cambridge Crystallographic Data Centre
#                                CCDC 
#
#######################################################################
#
# If this CIF has been generated from an entry in the Cambridge 
# Structural Database, then it will include bibliographic, chemical, 
# crystal, experimental, refinement or atomic coordinate data resulting 
# from the CCDC's data processing and validation procedures.
#
#######################################################################

data_GUFQII
_symmetry_cell_setting           triclinic
_symmetry_space_group_name_H-M   'P -1'
_symmetry_Int_Tables_number      2
_space_group_name_Hall           '-P 1'
loop_
_symmetry_equiv_pos_site_id
_symmetry_equiv_pos_as_xyz
1 x,y,z
2 -x,-y,-z
_cell_length_a                   6.8920(10)
_cell_length_b                   9.4410(13)
_cell_length_c                   16.151(2)
_cell_angle_alpha                96.072(2)
_cell_angle_beta                 101.351(2)
_cell_angle_gamma                91.589(2)
_cell_volume                     1023.3
loop_
_atom_site_label
_atom_site_type_symbol
_atom_site_fract_x
_atom_site_fract_y
_atom_site_fract_z
Zn1 Zn 0.37868(7) 0.30062(5) 0.70131(3)
O1 O 0.3369(6) 0.0298(4) 0.6148(3)
O2 O 0.5847(5) 0.1868(4) 0.6654(3)
O3 O 0.4817(7) -0.5024(4) 0.7403(2)
O4 O 0.6602(12) -0.5803(7) 0.8468(4)
N1 N 0.1243(5) 0.3455(4) 0.6205(2)
C1 C 0.7683(7) -0.1121(5) 0.6748(3)
C2 C 0.6638(7) -0.1779(5) 0.7271(3)
H3 H 0.5269 -0.1722 0.7182
C3 C 0.7590(7) -0.2519(5) 0.7923(3)
C4 C 0.9646(8) -0.2591(6) 0.8042(4)
H4 H 1.0319 -0.3074 0.8476
C5 C 1.0695(8) -0.1950(6) 0.7520(4)
H5 H 1.2061 -0.2024 0.7599
C6 C 0.9737(8) -0.1208(5) 0.6891(4)
H6 H 1.0460 -0.0759 0.6555
C7 C 0.6610(9) -0.0361(6) 0.6012(3)
H7 H 0.7579 0.0163 0.5785
H8 H 0.5921 -0.1067 0.5562
C8 C 0.5136(8) 0.0658(5) 0.6281(3)
C9 C 0.6466(9) -0.3251(6) 0.8479(3)
H9 H 0.5332 -0.2705 0.8558
H10 H 0.7313 -0.3275 0.9033
C10 C 0.5752(12) -0.4768(7) 0.8104(4)
C11 C 0.0265(7) 0.2635(5) 0.5522(3)
H11 H 0.0829 0.1802 0.5344
C12 C -0.1554(7) 0.2960(5) 0.5062(3)
H12 H -0.2159 0.2370 0.4576
C13 C -0.2476(6) 0.4175(5) 0.5328(3)
C14 C -0.1451(7) 0.5018(5) 0.6042(3)
H13 H -0.1996 0.5841 0.6247
C15 C 0.0367(8) 0.4638(5) 0.6448(3)
H14 H 0.1033 0.5234 0.6920
C16 C -0.4423(7) 0.4513(5) 0.4864(3)
H15 H -0.4892 0.4002 0.4334
N2 N 0.2668(5) 0.2053(3) 0.79459(18)
C17 C 0.3819(4) 0.1139(4) 0.8380(2)
H16 H 0.5058 0.0957 0.8258
C18 C 0.3189(5) 0.0484(4) 0.8991(2)
H17 H 0.3990 -0.0152 0.9284
C19 C 0.1379(5) 0.0754(4) 0.91804(17)
C20 C 0.0228(5) 0.1677(4) 0.8734(3)
H18 H -0.1007 0.1878 0.8856
C21 C 0.0873(5) 0.2305(4) 0.8114(2)
H19 H 0.0064 0.2915 0.7803
C22 C 0.0762(8) -0.0011(6) 0.9809(3)
H20 H 0.1650 -0.0691 0.9992
Zn1_2 Zn 0.37868(7) -0.69938(5) 0.70131(3)
Zn1A Zn -1.37868(7) 0.69938(5) 0.29869(3)
Zn1A_2 Zn -0.37868(7) -0.30062(5) 1.29869(3)
Zn1A_3 Zn -1.37868(7) 1.69938(5) 0.29869(3)
O1A O -1.3369(6) 0.9702(4) 0.3852(3)
O2A O -1.5847(5) 0.8132(4) 0.3346(3)
O3_2 O 0.4817(7) 0.4976(4) 0.7403(2)
O3A O -1.4817(7) 0.5024(4) 0.2597(2)
O3A_2 O -1.4817(7) 1.5024(4) 0.2597(2)
O4A O -1.6602(12) 1.5803(7) 0.1532(4)
N1A N -1.1243(5) 0.6545(4) 0.3795(2)
C1A C -1.7683(7) 1.1121(5) 0.3252(3)
C2A C -1.6638(7) 1.1779(5) 0.2729(3)
H3A H -1.5269 1.1722 0.2818
C3A C -1.7590(7) 1.2519(5) 0.2077(3)
C4A C -1.9646(8) 1.2591(6) 0.1958(4)
H4A H -2.0319 1.3074 0.1524
C5A C -2.0695(8) 1.1950(6) 0.2480(4)
H5A H -2.2061 1.2024 0.2401
C6A C -1.9737(8) 1.1208(5) 0.3109(4)
H6A H -2.0460 1.0759 0.3445
C7A C -1.6610(9) 1.0361(6) 0.3988(3)
H7A H -1.7579 0.9837 0.4215
H8A H -1.5921 1.1067 0.4438
C8A C -1.5136(8) 0.9342(5) 0.3719(3)
C9A C -1.6466(9) 1.3251(6) 0.1521(3)
H9A H -1.5332 1.2705 0.1442
H10A H -1.7313 1.3275 0.0967
C10A C -1.5752(12) 1.4768(7) 0.1896(4)
C11A C -1.0265(7) 0.7365(5) 0.4478(3)
H11A H -1.0829 0.8198 0.4656
C12A C -0.8446(7) 0.7040(5) 0.4938(3)
H12A H -0.7841 0.7630 0.5424
C13A C -0.7524(6) 0.5825(5) 0.4672(3)
C14A C -0.8549(7) 0.4982(5) 0.3958(3)
H13A H -0.8004 0.4159 0.3753
C15A C -1.0367(8) 0.5362(5) 0.3552(3)
H14A H -1.1033 0.4766 0.3080
C16A C -0.5577(7) 0.5487(5) 0.5136(3)
H15A H -0.5108 0.5998 0.5666
N2A N -0.2668(5) -0.2053(3) 1.20541(18)
N2A_2 N -1.2668(5) 0.7947(3) 0.20541(18)
C17A C -0.3819(4) -0.1139(4) 1.1620(2)
H16A H -0.5058 -0.0957 1.1742
C18A C -0.3189(5) -0.0484(4) 1.1009(2)
H17A H -0.3990 0.0152 1.0716
C19A C -0.1379(5) -0.0754(4) 1.08196(17)
C20A C -0.0228(5) -0.1677(4) 1.1266(3)
H18A H 0.1007 -0.1878 1.1144
C21A C -0.0873(5) -0.2305(4) 1.1886(2)
H19A H -0.0064 -0.2915 1.2197
C22A C -0.0762(8) 0.0011(6) 1.0191(3)
H20A H -0.1650 0.0691 1.0008
O5 O 0.287(2) 0.6240(17) -0.0049(10)
H1 H 0.3808 0.5881 -0.0241
H2 H 0.3024 0.6105 0.0472
loop_
_geom_bond_atom_site_label_1
_geom_bond_atom_site_label_2
_geom_bond_site_symmetry_1
_geom_bond_site_symmetry_2
Zn1 O2 1_555 1_555
O1 C8 1_555 1_555
O2 C8 1_555 1_555
O3 C10 1_555 1_555
O4 C10 1_555 1_555
O5 H1 1_555 1_555
H2 O5 1_555 1_555
N1 Zn1 1_555 1_555
C1 C2 1_555 1_555
C2 H3 1_555 1_555
C3 C2 1_555 1_555
C4 C3 1_555 1_555
H4 C4 1_555 1_555
C5 C4 1_555 1_555
H5 C5 1_555 1_555
C6 C1 1_555 1_555
H6 C6 1_555 1_555
C7 C1 1_555 1_555
H7 C7 1_555 1_555
H8 C7 1_555 1_555
C8 C7 1_555 1_555
C9 C3 1_555 1_555
H9 C9 1_555 1_555
H10 C9 1_555 1_555
C10 C9 1_555 1_555
C11 N1 1_555 1_555
H11 C11 1_555 1_555
C12 C11 1_555 1_555
H12 C12 1_555 1_555
C13 C12 1_555 1_555
C14 C13 1_555 1_555
H13 C14 1_555 1_555
C15 N1 1_555 1_555
H14 C15 1_555 1_555
C16 C13 1_555 1_555
H15 C16 1_555 1_555
N2 Zn1 1_555 1_555
C17 N2 1_555 1_555
H16 C17 1_555 1_555
C18 C17 1_555 1_555
H17 C18 1_555 1_555
C19 C18 1_555 1_555
C20 C19 1_555 1_555
H18 C20 1_555 1_555
C21 N2 1_555 1_555
H19 C21 1_555 1_555
C22 C19 1_555 1_555
H20 C22 1_555 1_555
Zn1_2 O3 1_555 1_555
Zn1A O2A 1_555 1_555
Zn1A_2 N2A 1_555 1_555
Zn1A_3 O3A_2 1_555 1_555
O1A C8A 1_555 1_555
O2A C8A 1_555 1_555
O3_2 Zn1 1_555 1_555
O3A Zn1A 1_555 1_555
O3A_2 C10A 1_555 1_555
O4A C10A 1_555 1_555
N1A Zn1A 1_555 1_555
C1A C2A 1_555 1_555
C2A H3A 1_555 1_555
C3A C2A 1_555 1_555
C4A C3A 1_555 1_555
H4A C4A 1_555 1_555
C5A C4A 1_555 1_555
H5A C5A 1_555 1_555
C6A C1A 1_555 1_555
H6A C6A 1_555 1_555
C7A C1A 1_555 1_555
H7A C7A 1_555 1_555
H8A C7A 1_555 1_555
C8A C7A 1_555 1_555
C9A C3A 1_555 1_555
H9A C9A 1_555 1_555
H10A C9A 1_555 1_555
C10A C9A 1_555 1_555
C11A N1A 1_555 1_555
H11A C11A 1_555 1_555
C12A C11A 1_555 1_555
H12A C12A 1_555 1_555
C13A C12A 1_555 1_555
C14A C13A 1_555 1_555
H13A C14A 1_555 1_555
C15A N1A 1_555 1_555
H14A C15A 1_555 1_555
C16A C16 1_555 1_555
H15A C16A 1_555 1_555
N2A C17A 1_555 1_555
N2A_2 Zn1A 1_555 1_555
C17A H16A 1_555 1_555
C18A C17A 1_555 1_555
H17A C18A 1_555 1_555
C19A C18A 1_555 1_555
C20A C19A 1_555 1_555
H18A C20A 1_555 1_555
C21A N2A 1_555 1_555
H19A C21A 1_555 1_555
C22A C22 1_555 1_555
H20A C22A 1_555 1_555
C5 C6 1_555 1_555
C14 C15 1_555 1_555
C20 C21 1_555 1_555
C5A C6A 1_555 1_555
C13A C16A 1_555 1_555
C14A C15A 1_555 1_555
C19A C22A 1_555 1_555
C20A C21A 1_555 1_555

#END
