
#######################################################################
#
#                 Cambridge Crystallographic Data Centre
#                                CCDC 
#
#######################################################################
#
# If this CIF has been generated from an entry in the Cambridge 
# Structural Database, then it will include bibliographic, chemical, 
# crystal, experimental, refinement or atomic coordinate data resulting 
# from the CCDC's data processing and validation procedures.
#
#######################################################################

data_GUFQAB
_symmetry_cell_setting           triclinic
_symmetry_space_group_name_H-M   'P -1'
_symmetry_Int_Tables_number      2
_space_group_name_Hall           '-P 1'
loop_
_symmetry_equiv_pos_site_id
_symmetry_equiv_pos_as_xyz
1 x,y,z
2 -x,-y,-z
_cell_length_a                   12.848(3)
_cell_length_b                   14.185(3)
_cell_length_c                   15.785(3)
_cell_angle_alpha                114.870(3)
_cell_angle_beta                 97.126(4)
_cell_angle_gamma                109.338(3)
_cell_volume                     2343.37
loop_
_atom_site_label
_atom_site_type_symbol
_atom_site_fract_x
_atom_site_fract_y
_atom_site_fract_z
O1 O 0.5585(2) 1.93078(18) 0.93786(16)
O2 O 0.59529(19) 1.94004(17) 1.08333(15)
C1 C 0.5723(3) 1.8878(3) 0.9908(2)
C2 C 0.5598(3) 1.7661(3) 0.9431(2)
C3 C 0.5823(3) 1.7176(3) 0.9992(2)
H1 H 0.6091 1.7619 1.0672
C4 C 0.5218(3) 1.6988(3) 0.8411(2)
H2 H 0.5083 1.7302 0.8021
C5 C 0.5040(3) 1.5842(3) 0.7980(2)
H3 H 0.4773 1.5393 0.7300
C6 C 0.5653(3) 1.6035(3) 0.9549(2)
H4 H 0.5811 1.5723 0.9935
C7 C 0.5254(3) 1.5363(3) 0.8542(2)
C8 C 0.5046(3) 1.4106(3) 0.8049(2)
H5 H 0.5626 1.4018 0.7722
H6 H 0.5138 1.3885 0.8548
Co1 Co 0.55124(4) 1.06751(3) 0.16484(3)
C9 C -0.0688(3) 0.5331(3) 0.1238(3)
H7 H -0.1439 0.4954 0.0810
N1 N 0.4017(2) 0.9341(2) 0.16263(18)
C10 C 0.3031(3) 0.9446(3) 0.1715(3)
H8 H 0.2960 1.0083 0.1728
C11 C 0.4089(3) 0.8422(3) 0.1612(3)
H9 H 0.4762 0.8326 0.1549
N2 N -0.3016(2) 0.2039(2) 0.17606(19)
O3 O 0.5226(2) 1.17949(19) 0.28709(16)
O4 O 0.6257(2) 1.0988(2) 0.32397(16)
O5 O -0.0099(2) 0.6666(2) 0.0608(2)
N3 N 0.3896(2) 1.3340(2) 0.73347(18)
C12 C -0.1485(4) 0.3938(3) 0.2696(3)
H10 H -0.1035 0.4568 0.3311
C13 C 0.4417(3) 1.2125(3) 0.5960(2)
O6 O 0.0965(2) 0.5152(3) 0.3153(2)
C14 C 0.5122(3) 1.1555(3) 0.5778(2)
H11 H 0.5305 1.1279 0.6188
C15 C 0.3218(3) 0.7605(3) 0.1687(3)
H12 H 0.3320 0.6982 0.1679
C16 C 0.5632(3) 1.1526(3) 0.3457(2)
C17 C 0.2198(3) 0.7699(3) 0.1775(2)
C18 C 0.5561(3) 1.1389(3) 0.4991(2)
H13 H 0.6028 1.0997 0.4873
C19 C 0.1263(3) 0.6804(3) 0.1839(2)
C20 C 0.5303(3) 1.1809(3) 0.4382(2)
C21 C 0.0140(3) 0.6266(3) 0.1223(3)
C22 C -0.0355(4) 1.1751(4) 0.5682(4)
C23 C 0.3828(3) 1.2194(3) 0.6733(2)
H14 H 0.3020 1.1648 0.6419
H15 H 0.4182 1.1975 0.7156
C24 C -0.1280(3) 0.3954(3) 0.1856(2)
C25 C -0.0396(3) 0.4965(3) 0.1886(3)
C26 C 0.1617(4) 1.3214(4) 0.6469(4)
H16 H 0.2212 1.3851 0.6527
C27 C -0.1964(3) 0.2965(3) 0.0973(3)
H17 H -0.1860 0.2922 0.0387
C28 C -0.2801(3) 0.2040(3) 0.0959(2)
H18 H -0.3238 0.1383 0.0355
C29 C 0.2082(5) 0.5704(5) 0.3848(4)
H19 H 0.2275 0.6510 0.4265
H20 H 0.2660 0.5649 0.3511
C30 C 0.2117(3) 0.8669(3) 0.1790(3)
H21 H 0.1452 0.8785 0.1849
C31 C 0.0911(4) 1.1818(4) 0.6934(4)
H22 H 0.1028 1.1500 0.7327
C32 C 0.0735(3) 0.5549(3) 0.2536(3)
C33 C 0.1548(3) 0.6439(3) 0.2496(3)
H23 H 0.2302 0.6806 0.2915
C34 C 0.2964(3) 1.3293(3) 0.7790(3)
H24 H 0.3120 1.4065 0.8280
H25 H 0.2949 1.2847 0.8119
C35 C -0.2355(3) 0.2987(3) 0.2617(3)
H26 H -0.2488 0.3008 0.3189
C36 C 0.1814(3) 1.2771(3) 0.7054(3)
C37 C 0.4632(4) 1.2410(3) 0.4585(3)
H27 H 0.4462 1.2703 0.4185
C38 C 0.0510(4) 1.2715(5) 0.5769(4)
H28 H 0.0372 1.3029 0.5379
C39 C -0.1572(5) 1.1202(4) 0.4924(4)
C40 C -0.0160(4) 1.1320(5) 0.6253(4)
H29 H -0.0750 1.0677 0.6192
C41 C 0.4209(4) 1.2584(4) 0.5373(3)
H30 H 0.3780 1.3013 0.5511
C42 C 0.2073(6) 0.5133(7) 0.4453(6)
H31 H 0.1452 0.5140 0.4744
H32 H 0.2799 0.5566 0.4983
C43 C -0.1255(3) 0.6147(4) -0.0040(3)
H33 H -0.1796 0.6209 0.0336
H34 H -0.1479 0.5339 -0.0481
O7 O -0.1659(4) 1.1692(5) 0.4446(3)
C44 C -0.1280(4) 0.6752(4) -0.0613(4)
H35 H -0.2035 0.6344 -0.1105
H36 H -0.0708 0.6707 -0.0957
O8 O -0.2345(3) 1.0398(4) 0.4871(4)
C45 C -0.1057(6) 0.7972(6) -0.0038(6)
H37 H -0.0259 0.8408 0.0383
H38 H -0.1551 0.8036 0.0381
C46 C -0.1267(7) 0.8501(7) -0.0661(7)
H39 H -0.0652 0.8630 -0.0945
H40 H -0.1291 0.9218 -0.0259
H41 H -0.1993 0.7989 -0.1174
C47 C 0.1908(10) 0.3881(10) 0.3851(10)
H42 H 0.1595 0.3423 0.4151
H43 H 0.1425 0.3512 0.3179
C48 C 0.3134(12) 0.4116(13) 0.3921(12)
H44 H 0.3324 0.4295 0.3421
H45 H 0.3252 0.3450 0.3832
H46 H 0.3623 0.4754 0.4555
H47 H -0.135(6) 1.233(4) 0.442(5)
O1A O 0.4415(2) 1.06922(18) 0.06214(16)
O2_2 O 0.59529(19) 0.94004(17) 0.08333(15)
Co1_2 Co -0.44876(4) 0.06751(3) 0.16484(3)
Co1_3 Co 0.55124(4) 2.06751(3) 1.16484(3)
Co1A Co 0.44876(4) 1.93249(3) 0.83516(3)
N2_2 N 0.6984(2) 1.2039(2) 0.17606(19)
loop_
_geom_bond_atom_site_label_1
_geom_bond_atom_site_label_2
_geom_bond_site_symmetry_1
_geom_bond_site_symmetry_2
O1 C1 1_555 1_555
O2 C1 1_555 1_555
C1 C2 1_555 1_555
C2 C3 1_555 1_555
C3 H1 1_555 1_555
C4 C2 1_555 1_555
H2 C4 1_555 1_555
C5 C4 1_555 1_555
H3 C5 1_555 1_555
C6 C3 1_555 1_555
H4 C6 1_555 1_555
C7 C5 1_555 1_555
C8 C7 1_555 1_555
H5 C8 1_555 1_555
H6 C8 1_555 1_555
Co1 N1 1_555 1_555
C9 H7 1_555 1_555
N1 C10 1_555 1_555
C10 H8 1_555 1_555
C11 N1 1_555 1_555
H9 C11 1_555 1_555
N2 C28 1_555 1_555
O3 Co1 1_555 1_555
O4 Co1 1_555 1_555
O5 C21 1_555 1_555
N3 C8 1_555 1_555
C12 H10 1_555 1_555
C13 C14 1_555 1_555
O6 C29 1_555 1_555
C14 H11 1_555 1_555
C15 C11 1_555 1_555
H12 C15 1_555 1_555
C16 O3 1_555 1_555
C17 C15 1_555 1_555
C18 C14 1_555 1_555
H13 C18 1_555 1_555
C19 C17 1_555 1_555
C20 C16 1_555 1_555
C21 C9 1_555 1_555
C22 C38 1_555 1_555
C23 N3 1_555 1_555
H14 C23 1_555 1_555
H15 C23 1_555 1_555
C24 C12 1_555 1_555
C25 C9 1_555 1_555
C26 H16 1_555 1_555
C27 C24 1_555 1_555
H17 C27 1_555 1_555
C28 C27 1_555 1_555
H18 C28 1_555 1_555
C29 H19 1_555 1_555
H20 C29 1_555 1_555
C30 C10 1_555 1_555
H21 C30 1_555 1_555
C31 H22 1_555 1_555
C32 O6 1_555 1_555
C33 C19 1_555 1_555
H23 C33 1_555 1_555
C34 N3 1_555 1_555
H24 C34 1_555 1_555
H25 C34 1_555 1_555
C35 N2 1_555 1_555
H26 C35 1_555 1_555
C36 C26 1_555 1_555
C37 C20 1_555 1_555
H27 C37 1_555 1_555
C38 C26 1_555 1_555
H28 C38 1_555 1_555
C39 C22 1_555 1_555
C40 C22 1_555 1_555
H29 C40 1_555 1_555
C41 C13 1_555 1_555
H30 C41 1_555 1_555
C42 C29 1_555 1_555
H31 C42 1_555 1_555
H32 C42 1_555 1_555
C43 O5 1_555 1_555
H33 C43 1_555 1_555
H34 C43 1_555 1_555
O7 C39 1_555 1_555
C44 C43 1_555 1_555
H35 C44 1_555 1_555
H36 C44 1_555 1_555
O8 C39 1_555 1_555
C45 C44 1_555 1_555
H37 C45 1_555 1_555
H38 C45 1_555 1_555
C46 C45 1_555 1_555
H39 C46 1_555 1_555
H40 C46 1_555 1_555
H41 C46 1_555 1_555
C47 C42 1_555 1_555
H42 C47 1_555 1_555
H43 C47 1_555 1_555
C48 C47 1_555 1_555
H44 C48 1_555 1_555
H45 C48 1_555 1_555
H46 C48 1_555 1_555
H47 O7 1_555 1_555
O1A Co1 1_555 1_555
O2_2 Co1 1_555 1_555
Co1_2 N2 1_555 1_555
Co1_3 O2 1_555 1_555
Co1A O1 1_555 1_555
N2_2 Co1 1_555 1_555
C6 C7 1_555 1_555
O4 C16 1_555 1_555
C12 C35 1_555 1_555
C13 C23 1_555 1_555
C17 C30 1_555 1_555
C18 C20 1_555 1_555
C19 C21 1_555 1_555
C24 C25 1_555 1_555
C25 C32 1_555 1_555
C31 C36 1_555 1_555
C31 C40 1_555 1_555
C32 C33 1_555 1_555
C34 C36 1_555 1_555
C37 C41 1_555 1_555

#END
