
#######################################################################
#
#                 Cambridge Crystallographic Data Centre
#                                CCDC 
#
#######################################################################
#
# If this CIF has been generated from an entry in the Cambridge 
# Structural Database, then it will include bibliographic, chemical, 
# crystal, experimental, refinement or atomic coordinate data resulting 
# from the CCDC's data processing and validation procedures.
#
#######################################################################

data_GUFXUC
_symmetry_cell_setting           triclinic
_symmetry_space_group_name_H-M   'P -1'
_symmetry_Int_Tables_number      2
_space_group_name_Hall           '-P 1'
loop_
_symmetry_equiv_pos_site_id
_symmetry_equiv_pos_as_xyz
1 x,y,z
2 -x,-y,-z
_cell_length_a                   9.6387(6)
_cell_length_b                   10.9157(7)
_cell_length_c                   14.6164(9)
_cell_angle_alpha                71.2860(10)
_cell_angle_beta                 86.6540(10)
_cell_angle_gamma                69.0720(10)
_cell_volume                     1357.7
loop_
_atom_site_label
_atom_site_type_symbol
_atom_site_fract_x
_atom_site_fract_y
_atom_site_fract_z
Cd1 Cd 0.69567(2) 0.47490(2) 0.250905(16)
O1 O 0.7357(3) 0.2943(2) 0.39483(16)
H1 H 0.7270 0.2175 0.4005
H2 H 0.7154 0.3013 0.4508
O2 O 0.8464(3) 0.5454(2) 0.32932(18)
H3 H 0.9314 0.4908 0.3566
H4 H 0.8201 0.5801 0.3748
N1 N 0.4264(3) 0.2711(2) 0.16272(19)
N2 N 0.4909(3) 0.3060(3) 0.07772(19)
N3 N 0.5628(3) 0.3806(3) 0.18644(19)
N4 N 0.6654(3) -0.3293(2) 0.11139(19)
H5 H 0.7579 -0.3289 0.0922
H6 H 0.6180 -0.3375 0.0620
N5 N 0.2574(3) 0.6863(2) 0.34390(19)
N6 N 0.3385(3) 0.6821(3) 0.41884(19)
N7 N 0.4886(3) 0.5953(3) 0.31459(18)
N8 N -0.0786(3) 1.3402(3) 0.1982(2)
H7 H -0.0859 1.3689 0.1316
H8 H -0.0019 1.3607 0.2164
C1 C 0.5720(3) 0.3713(3) 0.0954(2)
H9 H 0.6317 0.4086 0.0489
C2 C 0.4705(3) 0.3151(3) 0.2265(2)
H10 H 0.4408 0.3018 0.2910
C3 C 0.3338(4) 0.1861(3) 0.1759(3)
H11 H 0.2453 0.2369 0.1297
H12 H 0.2990 0.1685 0.2423
C4 C 0.4203(3) 0.0498(3) 0.1597(2)
C5 C 0.5689(4) -0.0220(3) 0.1940(3)
H13 H 0.6156 0.0138 0.2293
C6 C 0.6486(4) -0.1452(3) 0.1767(2)
H14 H 0.7501 -0.1931 0.1995
C7 C 0.5812(3) -0.1989(3) 0.1264(2)
C8 C 0.4332(3) -0.1298(3) 0.0933(2)
H15 H 0.3860 -0.1672 0.0597
C9 C 0.3542(3) -0.0053(3) 0.1097(2)
H16 H 0.2530 0.0428 0.0862
C10 C 0.4764(4) 0.6271(3) 0.3977(2)
H17 H 0.5601 0.6111 0.4371
C11 C 0.3480(3) 0.6348(3) 0.2830(2)
H18 H 0.3170 0.6272 0.2251
C12 C 0.0946(3) 0.7479(3) 0.3367(3)
H19 H 0.0564 0.7162 0.4010
H20 H 0.0540 0.7164 0.2915
C13 C 0.0421(3) 0.9044(3) 0.3013(2)
C14 C 0.0659(4) 0.9748(3) 0.3594(3)
H21 H 0.1095 0.9245 0.4234
C15 C 0.0270(4) 1.1167(3) 0.3254(3)
H22 H 0.0446 1.1633 0.3658
C16 C -0.0377(3) 1.1918(3) 0.2326(2)
C17 C -0.0662(3) 1.1233(3) 0.1747(2)
H23 H -0.1135 1.1741 0.1118
C18 C -0.0250(3) 0.9795(3) 0.2095(3)
H24 H -0.0433 0.9327 0.1695
Cd1_2 Cd -0.30433(2) 1.47490(2) 0.250905(16)
Cd1_3 Cd 0.69567(2) -0.52510(2) 0.250905(16)
N4_2 N 0.6654(3) 0.6707(2) 0.11139(19)
N8_2 N 0.9214(3) 0.3402(3) 0.1982(2)
Cl1 Cl 0.10200(9) 0.61010(9) 0.08167(6)
O3 O 0.1992(3) 0.6852(3) 0.07689(18)
O4 O 0.1042(4) 0.5238(3) 0.1805(2)
O5 O 0.1538(3) 0.5232(3) 0.02130(18)
O6 O -0.0451(3) 0.7055(3) 0.0474(3)
Cl2 Cl 0.2352(2) 0.28509(19) 0.47289(13)
O7 O 0.3257(3) 0.1664(3) 0.4445(2)
O8 O 0.0824(2) 0.3293(3) 0.4368(2)
O9 O 0.2909(4) 0.3968(3) 0.4330(2)
O10 O 0.2418(4) 0.2463(3) 0.57761(13)
O15 O 0.6772(4) 0.0681(3) 0.3969(3)
H25 H 0.7019 -0.0132 0.4373
H26 H 0.5841 0.1079 0.3991
Cl3? Cl 0.2276(2) 0.3076(2) 0.45517(15)
O11? O 0.1653(4) 0.3518(4) 0.35683(17)
O12? O 0.3872(2) 0.2379(4) 0.4580(3)
O13? O 0.1954(5) 0.4276(3) 0.4864(3)
O14? O 0.1620(4) 0.2135(3) 0.5185(2)
loop_
_geom_bond_atom_site_label_1
_geom_bond_atom_site_label_2
_geom_bond_site_symmetry_1
_geom_bond_site_symmetry_2
Cd1 O1 1_555 1_555
O1 H1 1_555 1_555
H2 O1 1_555 1_555
O2 Cd1 1_555 1_555
H3 O2 1_555 1_555
H4 O2 1_555 1_555
N1 N2 1_555 1_555
N2 C1 1_555 1_555
N3 Cd1 1_555 1_555
N4 H5 1_555 1_555
H6 N4 1_555 1_555
N5 N6 1_555 1_555
N6 C10 1_555 1_555
N7 Cd1 1_555 1_555
N8 H7 1_555 1_555
H8 N8 1_555 1_555
C1 N3 1_555 1_555
H9 C1 1_555 1_555
C2 N1 1_555 1_555
H10 C2 1_555 1_555
C3 N1 1_555 1_555
H11 C3 1_555 1_555
H12 C3 1_555 1_555
C4 C3 1_555 1_555
C5 C4 1_555 1_555
H13 C5 1_555 1_555
C6 C5 1_555 1_555
H14 C6 1_555 1_555
C7 N4 1_555 1_555
C8 C7 1_555 1_555
H15 C8 1_555 1_555
C9 C4 1_555 1_555
H16 C9 1_555 1_555
C10 N7 1_555 1_555
H17 C10 1_555 1_555
C11 N5 1_555 1_555
H18 C11 1_555 1_555
C12 N5 1_555 1_555
H19 C12 1_555 1_555
H20 C12 1_555 1_555
C13 C12 1_555 1_555
C14 C13 1_555 1_555
H21 C14 1_555 1_555
C15 C14 1_555 1_555
H22 C15 1_555 1_555
C16 N8 1_555 1_555
C17 C16 1_555 1_555
H23 C17 1_555 1_555
C18 C13 1_555 1_555
H24 C18 1_555 1_555
Cl1 O3 1_555 1_555
O4 Cl1 1_555 1_555
O5 Cl1 1_555 1_555
O6 Cl1 1_555 1_555
Cl2 O7 1_555 1_555
O8 Cl2 1_555 1_555
O9 Cl2 1_555 1_555
O10 Cl2 1_555 1_555
O15 H25 1_555 1_555
H26 O15 1_555 1_555
Cd1_2 N8 1_555 1_555
Cd1_3 N4 1_555 1_555
N4_2 Cd1 1_555 1_555
N8_2 Cd1 1_555 1_555
N3 C2 1_555 1_555
N7 C11 1_555 1_555
C6 C7 1_555 1_555
C8 C9 1_555 1_555
C15 C16 1_555 1_555
C17 C18 1_555 1_555

#END
