
#######################################################################
#
#                 Cambridge Crystallographic Data Centre
#                                CCDC 
#
#######################################################################
#
# If this CIF has been generated from an entry in the Cambridge 
# Structural Database, then it will include bibliographic, chemical, 
# crystal, experimental, refinement or atomic coordinate data resulting 
# from the CCDC's data processing and validation procedures.
#
#######################################################################

data_GUFYIR
_symmetry_cell_setting           monoclinic
_symmetry_space_group_name_H-M   'P 21/c'
_symmetry_Int_Tables_number      14
_space_group_name_Hall           '-P 2ybc'
loop_
_symmetry_equiv_pos_site_id
_symmetry_equiv_pos_as_xyz
1 x,y,z
2 -x,1/2+y,1/2-z
3 -x,-y,-z
4 x,1/2-y,1/2+z
_cell_length_a                   10.3992(9)
_cell_length_b                   21.9601(18)
_cell_length_c                   10.4500(9)
_cell_angle_alpha                90
_cell_angle_beta                 91.022(2)
_cell_angle_gamma                90
_cell_volume                     2386.06
loop_
_atom_site_label
_atom_site_type_symbol
_atom_site_fract_x
_atom_site_fract_y
_atom_site_fract_z
Cd1 Cd 0.0000 0.5000 1.0000
Cd2 Cd 0.5000 0.0000 1.0000
O1 O 0.1542(2) 0.48697(10) 0.84985(19)
H1 H 0.2350 0.4889 0.8633
H2 H 0.1419 0.4835 0.7696
O2 O 0.6351(2) 0.02838(11) 1.16886(18)
H3 H 0.6283 0.0167 1.2460
H4 H 0.7148 0.0290 1.1521
N1 N 0.2245(2) 0.15283(11) 1.0438(2)
N2 N 0.2657(3) 0.14989(11) 1.1686(2)
N3 N 0.3778(2) 0.08523(11) 1.0458(2)
N4 N 0.1182(2) 0.43975(11) 1.1499(2)
H5 H 0.2012 0.4542 1.1548
H6 H 0.0826 0.4445 1.2292
N5 N 0.7556(3) 0.34714(11) 0.8569(2)
N6 N 0.8575(3) 0.33681(12) 0.7780(2)
N7 N 0.9016(2) 0.41332(11) 0.9151(2)
N8 N 0.6522(2) 0.05537(11) 0.8797(2)
H7 H 0.7323 0.0452 0.9120
H8 H 0.6478 0.0405 0.7974
C1 C 0.3579(3) 0.10907(13) 1.1641(3)
H9 H 0.4068 0.0971 1.2376
C2 C 0.2908(3) 0.11385(13) 0.9734(3)
H10 H 0.2778 0.1074 0.8842
C3 C 0.1105(3) 0.18799(14) 1.0072(3)
H11 H 0.0340 0.1687 1.0451
H12 H 0.0994 0.1866 0.9130
C4 C 0.1170(3) 0.25369(13) 1.0493(3)
C5 C 0.0258(3) 0.27675(13) 1.1313(3)
H13 H -0.0381 0.2504 1.1643
C6 C 0.0263(3) 0.33771(14) 1.1660(3)
H14 H -0.0382 0.3533 1.2203
C7 C 0.1224(3) 0.37599(13) 1.1206(3)
C8 C 0.2150(3) 0.35276(14) 1.0407(3)
H15 H 0.2814 0.3785 1.0106
C9 C 0.2114(3) 0.29256(14) 1.0048(3)
H16 H 0.2745 0.2773 0.9485
C10 C 0.9424(3) 0.37728(14) 0.8178(3)
H17 H 1.0253 0.3811 0.7817
C11 C 0.7845(3) 0.39235(13) 0.9367(3)
H18 H 0.7290 0.4075 1.0005
C12 C 0.6335(3) 0.31600(14) 0.8373(3)
H19 H 0.5989 0.3263 0.7511
H20 H 0.5717 0.3312 0.9009
C13 C 0.6430(3) 0.24715(13) 0.8493(3)
C14 C 0.7144(3) 0.21939(15) 0.9450(3)
H21 H 0.7612 0.2437 1.0049
C15 C 0.7190(3) 0.15653(14) 0.9552(3)
H22 H 0.7704 0.1379 1.0204
C16 C 0.6486(3) 0.12090(14) 0.8701(3)
C17 C 0.5743(3) 0.14805(14) 0.7758(3)
H23 H 0.5247 0.1238 0.7182
C18 C 0.5723(3) 0.21127(14) 0.7653(3)
H24 H 0.5218 0.2299 0.6997
O1B O -0.1542(2) 0.51303(10) 1.15015(19)
H1B H -0.2350 0.5111 1.1367
H2B H -0.1419 0.5165 1.2304
N1B N -0.2245(2) 0.84717(11) 0.9562(2)
N2B N -0.2657(3) 0.85011(11) 0.8314(2)
N3B N -0.3778(2) 0.91477(11) 0.9542(2)
N4B N -0.1182(2) 0.56025(11) 0.8501(2)
H5B H -0.2012 0.5458 0.8452
H6B H -0.0826 0.5555 0.7708
C1B C -0.3579(3) 0.89093(13) 0.8359(3)
H9B H -0.4068 0.9029 0.7624
C2B C -0.2908(3) 0.88615(13) 1.0266(3)
H10B H -0.2778 0.8926 1.1158
C3B C -0.1105(3) 0.81201(14) 0.9928(3)
H11B H -0.0340 0.8313 0.9549
H12B H -0.0994 0.8134 1.0870
C4B C -0.1170(3) 0.74631(13) 0.9507(3)
C5B C -0.0258(3) 0.72325(13) 0.8687(3)
H13B H 0.0381 0.7496 0.8357
C6B C -0.0263(3) 0.66229(14) 0.8340(3)
H14B H 0.0382 0.6467 0.7797
C7B C -0.1224(3) 0.62401(13) 0.8794(3)
C8B C -0.2150(3) 0.64724(14) 0.9593(3)
H15B H -0.2814 0.6215 0.9894
C9B C -0.2114(3) 0.70744(14) 0.9952(3)
H16B H -0.2745 0.7227 1.0515
N5B N 0.2444(3) 0.65286(11) 1.1431(2)
N6B N 0.1425(3) 0.66319(12) 1.2220(2)
N7B N 0.0984(2) 0.58668(11) 1.0849(2)
N8B N 0.3478(2) 0.94463(11) 1.1203(2)
H7B H 0.2677 0.9548 1.0880
H8B H 0.3522 0.9595 1.2026
C10B C 0.0576(3) 0.62272(14) 1.1822(3)
H17B H -0.0253 0.6189 1.2183
C11B C 0.2155(3) 0.60765(13) 1.0633(3)
H18B H 0.2710 0.5925 0.9995
C12B C 0.3665(3) 0.68400(14) 1.1627(3)
H19B H 0.4011 0.6737 1.2489
H20B H 0.4283 0.6688 1.0991
C13B C 0.3570(3) 0.75285(13) 1.1507(3)
C14B C 0.2856(3) 0.78061(15) 1.0550(3)
H21B H 0.2388 0.7563 0.9951
C15B C 0.2810(3) 0.84347(14) 1.0448(3)
H22B H 0.2296 0.8621 0.9796
C16B C 0.3514(3) 0.87910(14) 1.1299(3)
C17B C 0.4257(3) 0.85195(14) 1.2242(3)
H23B H 0.4753 0.8762 1.2818
C18B C 0.4277(3) 0.78873(14) 1.2347(3)
H24B H 0.4782 0.7701 1.3003
O2B O 0.3649(2) -0.02838(11) 0.83114(18)
H3B H 0.3717 -0.0167 0.7540
H4B H 0.2852 -0.0290 0.8479
Cd1_2 Cd 1.0000 0.5000 1.0000
Cd2_2 Cd -0.5000 1.0000 1.0000
Cd2_3 Cd 0.5000 1.0000 1.0000
N3B_2 N 0.6222(2) -0.08523(11) 0.9542(2)
N7_2 N -0.0984(2) 0.41332(11) 0.9151(2)
N8B_2 N 0.3478(2) -0.05537(11) 1.1203(2)
Si1 Si 0.5000 0.0000 0.5000
F1 F 0.4037(2) -0.01415(11) 0.37325(19)
F2 F 0.4987(2) 0.07286(9) 0.4624(2)
F3 F 0.36835(18) 0.01082(8) 0.58964(16)
F1B F 0.5963(2) 0.01415(11) 0.62675(19)
F2B F 0.5013(2) -0.07286(9) 0.5376(2)
F3B F 0.63165(18) -0.01082(8) 0.41036(16)
Si2 Si 1.0000 0.0000 0.0000
F4 F 0.87526(17) 0.02937(8) 0.08189(15)
F5 F 1.10465(17) 0.03311(8) 0.10397(14)
F6 F 0.99737(18) -0.06189(7) 0.09331(15)
F4B F 1.12474(17) -0.02937(8) -0.08189(15)
F5B F 0.89535(17) -0.03311(8) -0.10397(14)
F6B F 1.00263(18) 0.06189(7) -0.09331(15)
loop_
_geom_bond_atom_site_label_1
_geom_bond_atom_site_label_2
_geom_bond_site_symmetry_1
_geom_bond_site_symmetry_2
Cd1 O1 1_555 1_555
Cd2 O2 1_555 1_555
O1 H1 1_555 1_555
H2 O1 1_555 1_555
O2 H3 1_555 1_555
H4 O2 1_555 1_555
N1 N2 1_555 1_555
N2 C1 1_555 1_555
N3 Cd2 1_555 1_555
N4 Cd1 1_555 1_555
H5 N4 1_555 1_555
H6 N4 1_555 1_555
N5 N6 1_555 1_555
N6 C10 1_555 1_555
N7 C10 1_555 1_555
N8 Cd2 1_555 1_555
H7 N8 1_555 1_555
H8 N8 1_555 1_555
C1 N3 1_555 1_555
H9 C1 1_555 1_555
C2 N1 1_555 1_555
H10 C2 1_555 1_555
C3 N1 1_555 1_555
H11 C3 1_555 1_555
H12 C3 1_555 1_555
C4 C3 1_555 1_555
C5 C4 1_555 1_555
H13 C5 1_555 1_555
C6 C5 1_555 1_555
H14 C6 1_555 1_555
C7 N4 1_555 1_555
C8 C7 1_555 1_555
H15 C8 1_555 1_555
C9 C4 1_555 1_555
H16 C9 1_555 1_555
C10 H17 1_555 1_555
C11 N5 1_555 1_555
H18 C11 1_555 1_555
C12 N5 1_555 1_555
H19 C12 1_555 1_555
H20 C12 1_555 1_555
C13 C12 1_555 1_555
C14 C13 1_555 1_555
H21 C14 1_555 1_555
C15 C14 1_555 1_555
H22 C15 1_555 1_555
C16 N8 1_555 1_555
C17 C16 1_555 1_555
H23 C17 1_555 1_555
C18 C13 1_555 1_555
H24 C18 1_555 1_555
Si1 F1 1_555 1_555
F2 Si1 1_555 1_555
F3 Si1 1_555 1_555
Si2 F4 1_555 1_555
F5 Si2 1_555 1_555
F6 Si2 1_555 1_555
O1B Cd1 1_555 1_555
H1B O1B 1_555 1_555
H2B O1B 1_555 1_555
N1B N2B 1_555 1_555
N2B C1B 1_555 1_555
N3B C1B 1_555 1_555
N4B Cd1 1_555 1_555
H5B N4B 1_555 1_555
H6B N4B 1_555 1_555
C1B H9B 1_555 1_555
C2B N1B 1_555 1_555
H10B C2B 1_555 1_555
C3B N1B 1_555 1_555
H11B C3B 1_555 1_555
H12B C3B 1_555 1_555
C4B C3B 1_555 1_555
C5B C4B 1_555 1_555
H13B C5B 1_555 1_555
C6B C5B 1_555 1_555
H14B C6B 1_555 1_555
C7B N4B 1_555 1_555
C8B C7B 1_555 1_555
H15B C8B 1_555 1_555
C9B C4B 1_555 1_555
H16B C9B 1_555 1_555
N5B N6B 1_555 1_555
N6B C10B 1_555 1_555
N7B Cd1 1_555 1_555
N8B H7B 1_555 1_555
H8B N8B 1_555 1_555
C10B N7B 1_555 1_555
H17B C10B 1_555 1_555
C11B N5B 1_555 1_555
H18B C11B 1_555 1_555
C12B N5B 1_555 1_555
H19B C12B 1_555 1_555
H20B C12B 1_555 1_555
C13B C12B 1_555 1_555
C14B C13B 1_555 1_555
H21B C14B 1_555 1_555
C15B C14B 1_555 1_555
H22B C15B 1_555 1_555
C16B N8B 1_555 1_555
C17B C16B 1_555 1_555
H23B C17B 1_555 1_555
C18B C13B 1_555 1_555
H24B C18B 1_555 1_555
O2B Cd2 1_555 1_555
H3B O2B 1_555 1_555
H4B O2B 1_555 1_555
Cd1_2 N7 1_555 1_555
Cd2_2 N3B 1_555 1_555
Cd2_3 N8B 1_555 1_555
N3B_2 Cd2 1_555 1_555
N7_2 Cd1 1_555 1_555
N8B_2 Cd2 1_555 1_555
F1B Si1 1_555 1_555
F2B Si1 1_555 1_555
F3B Si1 1_555 1_555
F4B Si2 1_555 1_555
F5B Si2 1_555 1_555
F6B Si2 1_555 1_555
N3 C2 1_555 1_555
N7 C11 1_555 1_555
C6 C7 1_555 1_555
C8 C9 1_555 1_555
C15 C16 1_555 1_555
C17 C18 1_555 1_555
N3B C2B 1_555 1_555
C6B C7B 1_555 1_555
C8B C9B 1_555 1_555
N7B C11B 1_555 1_555
C15B C16B 1_555 1_555
C17B C18B 1_555 1_555

#END
