
#######################################################################
#
#                 Cambridge Crystallographic Data Centre
#                                CCDC 
#
#######################################################################
#
# If this CIF has been generated from an entry in the Cambridge 
# Structural Database, then it will include bibliographic, chemical, 
# crystal, experimental, refinement or atomic coordinate data resulting 
# from the CCDC's data processing and validation procedures.
#
#######################################################################

data_GUGLEB
_symmetry_cell_setting           triclinic
_symmetry_space_group_name_H-M   'P -1'
_symmetry_Int_Tables_number      2
_space_group_name_Hall           '-P 1'
loop_
_symmetry_equiv_pos_site_id
_symmetry_equiv_pos_as_xyz
1 x,y,z
2 -x,-y,-z
_cell_length_a                   7.8207(5)
_cell_length_b                   8.0541(6)
_cell_length_c                   11.1937(6)
_cell_angle_alpha                90.536(4)
_cell_angle_beta                 105.935(4)
_cell_angle_gamma                117.551(4)
_cell_volume                     593.363
loop_
_atom_site_label
_atom_site_type_symbol
_atom_site_fract_x
_atom_site_fract_y
_atom_site_fract_z
Br1 Br 0.76128(8) 0.50883(8) 0.87948(4)
Cu1 Cu 0.96302(11) 0.33309(11) 0.91771(7)
Br2 Br 1.11444(8) 0.31183(7) 0.75146(4)
N1 N 0.7667(6) 0.0679(6) 0.9345(4)
Cu2 Cu 0.90906(12) 0.03758(11) 0.58530(7)
C1 C 0.7702(9) -0.0320(8) 1.0261(5)
N2 N 0.5751(6) -0.0286(6) 0.8481(4)
N3 N 0.6232(6) -0.1746(6) 0.5483(4)
Br3 Br 1.10184(7) -0.15856(7) 0.62397(5)
H1 H 0.8815(9) 0.0002(8) 1.0972(5)
N4 N 0.5872(8) -0.1887(7) 1.0014(4)
Cu3 Cu 0.49862(11) 0.06954(10) 0.69762(6)
C2 C 0.4728(8) -0.1807(7) 0.8914(5)
N5 N 0.4691(6) -0.2156(6) 0.4372(4)
C3 C 0.5474(9) -0.3047(8) 0.6163(5)
H2 H 0.5519(8) -0.2760(7) 1.0473(4)
H3 H 0.3383(8) -0.2712(7) 0.8511(5)
C4 C 0.3082(8) -0.3686(8) 0.4425(5)
N6 N 0.3525(7) -0.4281(7) 0.5528(5)
H4 H 0.6178(9) -0.3108(8) 0.6964(5)
H5 H 0.1829(8) -0.4271(8) 0.3797(5)
H6 H 0.2719(7) -0.5259(7) 0.5779(5)
Cu1A Cu 1.03698(11) 0.66691(11) 1.08229(7)
Br1A Br 1.23872(8) 0.49117(8) 1.12052(4)
Br3A Br 0.89816(7) 0.15856(7) 0.37603(5)
Cu2A Cu 1.09094(12) -0.03758(11) 0.41470(7)
Cu3A Cu 0.50138(11) -0.06954(10) 0.30238(6)
Br3_2 Br 0.10184(7) -0.15856(7) 0.62397(5)
N5A N 0.5309(6) 0.2156(6) 0.5628(4)
Cu2_2 Cu -0.09094(12) 0.03758(11) 0.58530(7)
Cu2A_2 Cu 0.09094(12) -0.03758(11) 0.41470(7)
loop_
_geom_bond_atom_site_label_1
_geom_bond_atom_site_label_2
_geom_bond_site_symmetry_1
_geom_bond_site_symmetry_2
Br1 Cu1 1_555 1_555
Cu1 Br2 1_555 1_555
Br2 Cu2 1_555 1_555
N1 Cu1 1_555 1_555
Cu2 N3 1_555 1_555
C1 N1 1_555 1_555
N2 N1 1_555 1_555
N3 N5 1_555 1_555
Br3 Cu2 1_555 1_555
H1 C1 1_555 1_555
N4 C1 1_555 1_555
Cu3 N2 1_555 1_555
C2 N2 1_555 1_555
N5 C4 1_555 1_555
C3 N3 1_555 1_555
H2 N4 1_555 1_555
H3 C2 1_555 1_555
C4 N6 1_555 1_555
N6 C3 1_555 1_555
H4 C3 1_555 1_555
H5 C4 1_555 1_555
H6 N6 1_555 1_555
Cu1A Br1 1_555 1_555
Br1A Cu1 1_555 1_555
Br3A Cu2 1_555 1_555
Cu2A Br3 1_555 1_555
Cu3A N5 1_555 1_555
Br3_2 Cu3 1_555 1_555
N5A Cu3 1_555 1_555
Cu2_2 Br3_2 1_555 1_555
Cu2A_2 Br3_2 1_555 1_555
N4 C2 1_555 1_555
Cu1A Br1A 1_555 1_555
Br3A Cu2A 1_555 1_555
Br3A Cu3A 1_555 1_555

#END
