
#######################################################################
#
#                 Cambridge Crystallographic Data Centre
#                                CCDC 
#
#######################################################################
#
# If this CIF has been generated from an entry in the Cambridge 
# Structural Database, then it will include bibliographic, chemical, 
# crystal, experimental, refinement or atomic coordinate data resulting 
# from the CCDC's data processing and validation procedures.
#
#######################################################################

data_GUGPAB
_symmetry_cell_setting           monoclinic
_symmetry_space_group_name_H-M   'C 2/c'
_symmetry_Int_Tables_number      15
_space_group_name_Hall           '-C 2yn'
loop_
_symmetry_equiv_pos_site_id
_symmetry_equiv_pos_as_xyz
1 x,y,z
2 -x,y,1/2-z
3 1/2+x,1/2+y,z
4 1/2-x,1/2+y,1/2-z
5 -x,-y,-z
6 x,-y,1/2+z
7 1/2-x,1/2-y,-z
8 1/2+x,1/2-y,1/2+z
_cell_length_a                   37.010(4)
_cell_length_b                   9.7422(11)
_cell_length_c                   22.538(3)
_cell_angle_alpha                90
_cell_angle_beta                 123.3170(10)
_cell_angle_gamma                90
_cell_volume                     6790.68
loop_
_atom_site_label
_atom_site_type_symbol
_atom_site_fract_x
_atom_site_fract_y
_atom_site_fract_z
Cu1 Cu 0.155806(14) 0.62176(4) 0.56808(2)
O1 O 0.21043(8) 0.6092(2) 0.66585(13)
O2 O 0.10057(8) 0.5608(3) 0.47693(13)
C1 C 0.10028(11) 0.8739(3) 0.54385(17)
N1 N 0.16495(9) 0.4279(3) 0.57396(15)
N2 N 0.13522(9) 0.7887(3) 0.58808(13)
C2 C 0.19976(11) 0.3773(4) 0.6322(2)
N3 N 0.13316(9) 0.9550(3) 0.65377(15)
O3 O 0.06821(9) 0.3764(3) 0.41136(15)
C3 C 0.07025(11) 0.8722(4) 0.47123(18)
H1 H 0.0710 0.8033 0.4434
N4 N 0.17824(12) 1.1876(3) 0.92007(17)
C4 C 0.15383(12) 0.8423(4) 0.65260(18)
H2 H 0.1784 0.8060 0.6926
C5 C 0.09838(11) 0.9780(4) 0.58462(19)
C6 C 0.09769(13) 0.4333(4) 0.4641(2)
C7 C 0.12663(11) 0.9653(3) 0.75714(18)
C8 C 0.13544(12) 0.3496(3) 0.52165(19)
C9 C 0.21127(14) 1.1226(4) 0.9783(2)
C10 C 0.17739(15) 0.1535(4) 0.5851(3)
H3 H 0.1821 0.0593 0.5883
O4 O 0.26049(9) 0.4603(3) 0.73996(16)
C11 C 0.21314(13) 1.1788(4) 1.0365(2)
C12 C 0.06663(12) 1.0791(4) 0.5542(2)
H4 H 0.0653 1.1464 0.5822
C13 C 0.14438(13) 1.0308(4) 0.71730(18)
H5 H 0.1332 1.1235 0.7040
H6 H 0.1756 1.0365 0.7485
C14 C 0.24456(13) 1.1345(4) 1.1047(2)
H7 H 0.2462 1.1733 1.1438
C15 C 0.03764(12) 1.0776(4) 0.4828(2)
C16 C 0.13522(13) 1.0278(4) 0.81935(19)
C17 C 0.22691(13) 0.4893(4) 0.6849(2)
C18 C 0.03929(12) 0.9731(4) 0.4407(2)
C19 C 0.16106(14) 1.2784(4) 0.9434(2)
H8 H 0.1377 1.3350 0.9135
C20 C 0.14070(14) 0.2089(4) 0.5255(2)
H9 H 0.1202 0.1526 0.4891
C21 C 0.20676(14) 0.2386(4) 0.6395(2)
H10 H 0.2308 0.2024 0.6803
C22 C 0.23981(17) 1.0205(5) 0.9868(3)
H11 H 0.2382 0.9829 0.9476
C23 C 0.10222(12) 0.8474(4) 0.7338(2)
H12 H 0.0969 0.8047 0.6928
C24 C 0.27287(15) 1.0342(4) 1.1140(2)
C25 C 0.08552(13) 0.7912(4) 0.7699(2)
H13 H 0.0693 0.7109 0.7535
C26 C 0.11752(16) 0.9711(4) 0.8540(2)
H14 H 0.1224 1.0133 0.8948
C27 C 0.09274(15) 0.8534(5) 0.8296(2)
H15 H 0.0811 0.8169 0.8537
C28 C 0.27079(16) 0.9752(4) 1.0548(3)
C29 C 0.00677(15) 0.9722(5) 0.3608(2)
H16 H -0.0219 0.9632 0.3507
H17 H 0.0127 0.8963 0.3403
H18 H 0.0089 1.0564 0.3409
C30 C 0.16184(17) 1.1565(4) 0.8456(2)
H19 H 0.1861 1.1472 0.8405
H20 H 0.1444 1.2329 0.8162
C31 C 0.00353(13) 1.1892(4) 0.4487(3)
H21 H 0.0072 1.2516 0.4846
H22 H -0.0247 1.1484 0.4253
H23 H 0.0064 1.2381 0.4146
C32 C 0.30275(19) 0.8636(5) 1.0649(3)
H24 H 0.2971 0.8370 1.0195
H25 H 0.2995 0.7853 1.0876
H26 H 0.3317 0.8982 1.0941
C33 C 0.30711(16) 0.9868(5) 1.1876(3)
H27 H 0.3352 1.0069 1.1970
H28 H 0.3044 0.8896 1.1913
H29 H 0.3036 1.0335 1.2216
N5 N 0.18074(10) 1.2782(3) 1.01233(15)
Cu1E Cu 0.155806(14) 1.37824(4) 1.06808(2)
N5E N 0.18074(10) 0.7218(3) 0.51233(15)
loop_
_geom_bond_atom_site_label_1
_geom_bond_atom_site_label_2
_geom_bond_site_symmetry_1
_geom_bond_site_symmetry_2
Cu1 O1 1_555 1_555
O1 C17 1_555 1_555
O2 Cu1 1_555 1_555
C1 N2 1_555 1_555
N1 Cu1 1_555 1_555
N2 Cu1 1_555 1_555
C2 N1 1_555 1_555
N3 C4 1_555 1_555
O3 C6 1_555 1_555
C3 C1 1_555 1_555
H1 C3 1_555 1_555
N4 C9 1_555 1_555
C4 N2 1_555 1_555
H2 C4 1_555 1_555
C5 C1 1_555 1_555
C6 O2 1_555 1_555
C7 C13 1_555 1_555
C8 N1 1_555 1_555
C9 C11 1_555 1_555
C10 H3 1_555 1_555
O4 C17 1_555 1_555
C11 C14 1_555 1_555
C12 C5 1_555 1_555
H4 C12 1_555 1_555
C13 N3 1_555 1_555
H5 C13 1_555 1_555
H6 C13 1_555 1_555
C14 H7 1_555 1_555
C15 C12 1_555 1_555
C16 C7 1_555 1_555
C17 C2 1_555 1_555
C18 C3 1_555 1_555
C19 N4 1_555 1_555
H8 C19 1_555 1_555
C20 C8 1_555 1_555
H9 C20 1_555 1_555
C21 C2 1_555 1_555
H10 C21 1_555 1_555
C22 C9 1_555 1_555
H11 C22 1_555 1_555
C23 C7 1_555 1_555
H12 C23 1_555 1_555
C24 C14 1_555 1_555
C25 C23 1_555 1_555
H13 C25 1_555 1_555
C26 C16 1_555 1_555
H14 C26 1_555 1_555
C27 C25 1_555 1_555
H15 C27 1_555 1_555
C28 C22 1_555 1_555
C29 C18 1_555 1_555
H16 C29 1_555 1_555
H17 C29 1_555 1_555
H18 C29 1_555 1_555
C30 N4 1_555 1_555
H19 C30 1_555 1_555
H20 C30 1_555 1_555
C31 C15 1_555 1_555
H21 C31 1_555 1_555
H22 C31 1_555 1_555
H23 C31 1_555 1_555
C32 C28 1_555 1_555
H24 C32 1_555 1_555
H25 C32 1_555 1_555
H26 C32 1_555 1_555
C33 C24 1_555 1_555
H27 C33 1_555 1_555
H28 C33 1_555 1_555
H29 C33 1_555 1_555
N5 C11 1_555 1_555
Cu1E N5 1_555 1_555
N5E Cu1 1_555 1_555
N3 C5 1_555 1_555
C6 C8 1_555 1_555
C10 C20 1_555 1_555
C10 C21 1_555 1_555
C15 C18 1_555 1_555
C16 C30 1_555 1_555
C19 N5 1_555 1_555
C24 C28 1_555 1_555
C26 C27 1_555 1_555

#END
