
#######################################################################
#
#                 Cambridge Crystallographic Data Centre
#                                CCDC 
#
#######################################################################
#
# If this CIF has been generated from an entry in the Cambridge 
# Structural Database, then it will include bibliographic, chemical, 
# crystal, experimental, refinement or atomic coordinate data resulting 
# from the CCDC's data processing and validation procedures.
#
#######################################################################

data_GUGQAC
_symmetry_cell_setting           monoclinic
_symmetry_space_group_name_H-M   'P 21/n'
_symmetry_Int_Tables_number      14
_space_group_name_Hall           '-P 2yn'
loop_
_symmetry_equiv_pos_site_id
_symmetry_equiv_pos_as_xyz
1 x,y,z
2 1/2-x,1/2+y,1/2-z
3 -x,-y,-z
4 1/2+x,1/2-y,1/2+z
_cell_length_a                   8.4116(4)
_cell_length_b                   11.5062(4)
_cell_length_c                   29.4257(15)
_cell_angle_alpha                90
_cell_angle_beta                 94.295(4)
_cell_angle_gamma                90
_cell_volume                     2839.98
loop_
_atom_site_label
_atom_site_type_symbol
_atom_site_fract_x
_atom_site_fract_y
_atom_site_fract_z
Ag1 Ag 0.22450(8) 0.48345(5) 0.17692(2)
C1 C 0.1897(8) 0.3055(6) 0.1855(2)
N1 N 0.1605(6) 0.2121(5) 0.19378(19)
C2 C 0.1181(7) 0.0993(5) 0.2058(2)
C3 C 0.1666(8) 0.0061(5) 0.1809(2)
H1 H 0.2299 0.0180 0.1568
C4 C 0.1216(8) -0.1040(6) 0.1919(2)
H2 H 0.1548 -0.1673 0.1753
C5 C 0.0258(7) -0.1207(5) 0.2279(2)
C6 C -0.0194(7) -0.0250(6) 0.2529(2)
H3 H -0.0811 -0.0357 0.2775
C7 C 0.0266(7) 0.0844(6) 0.2415(2)
H4 H -0.0045 0.1483 0.2580
N2 N -0.0273(6) -0.2310(5) 0.24147(18)
H5 H -0.1003 -0.2303 0.2604
C8 C 0.0200(8) -0.3355(5) 0.2290(2)
O1 O 0.1212(6) -0.3480(4) 0.20180(18)
C9 C -0.0578(8) -0.4375(6) 0.2493(3)
H6 H -0.0991 -0.4885 0.2255
H7 H -0.1434 -0.4112 0.2666
H8 H 0.0192 -0.4784 0.2691
S1 S 0.5256(2) 0.65204(15) 0.12645(6)
O2 O 0.3638(6) 0.6288(5) 0.13756(18)
O3 O 0.6461(6) 0.5961(5) 0.15568(17)
O4 O 0.5474(7) 0.6477(5) 0.07895(16)
C10 C 0.5565(11) 0.8050(8) 0.1403(3)
F1 F 0.5376(8) 0.8244(5) 0.18363(19)
F2 F 0.7014(7) 0.8358(5) 0.1321(2)
F3 F 0.4582(7) 0.8709(4) 0.1154(2)
Ag1_2 Ag 0.22450(8) -0.51655(5) 0.17692(2)
O1_2 O 0.1212(6) 0.6520(4) 0.20180(18)
Ag2 Ag 0.06980(8) -0.35532(5) 0.08151(2)
O5 O -0.0689(8) -0.4743(5) 0.1226(2)
H9 H -0.097(7) -0.531(5) 0.1170(19)
H10 H -0.143(11) -0.459(8) 0.136(3)
C11 C 0.1024(9) -0.1852(7) 0.0641(3)
N3 N 0.1288(6) -0.0930(5) 0.05296(19)
C12 C 0.1602(8) 0.0209(5) 0.0399(2)
C13 C 0.2581(8) 0.0406(6) 0.0054(2)
H11 H 0.3042 -0.0215 -0.0089
C14 C 0.2872(8) 0.1512(6) -0.0077(2)
H12 H 0.3531 0.1643 -0.0312
C15 C 0.2200(7) 0.2452(5) 0.0135(2)
C16 C 0.1194(7) 0.2242(5) 0.0481(2)
H13 H 0.0726 0.2858 0.0626
C17 C 0.0903(8) 0.1124(6) 0.0606(2)
H14 H 0.0222 0.0981 0.0834
N4 N 0.2553(6) 0.3569(4) -0.00249(18)
H15 H 0.3073 0.3588 -0.0266
C18 C 0.2194(8) 0.4606(6) 0.0145(2)
O6 O 0.1398(6) 0.4709(4) 0.04790(18)
C19 C 0.2800(8) 0.5636(6) -0.0097(2)
H16 H 0.1918 0.6112 -0.0208
H17 H 0.3375 0.5380 -0.0348
H18 H 0.3497 0.6080 0.0110
Ag2_2 Ag 0.06980(8) 0.64468(5) 0.08151(2)
O6_2 O 0.1398(6) -0.5291(4) 0.04790(18)
S2 S 0.7516(2) 0.23038(18) 0.14016(7)
O7 O 0.7893(7) 0.1061(5) 0.1420(2)
O8 O 0.8461(6) 0.2983(5) 0.11155(16)
O9 O 0.7259(6) 0.2841(6) 0.18226(17)
C20 C 0.5606(11) 0.2279(9) 0.1093(4)
F4 F 0.5045(7) 0.3365(5) 0.1044(2)
F5 F 0.5715(7) 0.1827(7) 0.0685(2)
F6 F 0.4593(6) 0.1632(6) 0.1300(2)
loop_
_geom_bond_atom_site_label_1
_geom_bond_atom_site_label_2
_geom_bond_site_symmetry_1
_geom_bond_site_symmetry_2
Ag1 C1 1_555 1_555
C1 N1 1_555 1_555
N1 C2 1_555 1_555
C2 C3 1_555 1_555
C3 H1 1_555 1_555
C4 C3 1_555 1_555
H2 C4 1_555 1_555
C5 C4 1_555 1_555
C6 C5 1_555 1_555
H3 C6 1_555 1_555
C7 C2 1_555 1_555
H4 C7 1_555 1_555
N2 C5 1_555 1_555
H5 N2 1_555 1_555
C8 N2 1_555 1_555
O1 C8 1_555 1_555
C9 C8 1_555 1_555
H6 C9 1_555 1_555
H7 C9 1_555 1_555
H8 C9 1_555 1_555
S1 O2 1_555 1_555
O2 Ag1 1_555 1_555
O3 S1 1_555 1_555
O4 S1 1_555 1_555
C10 S1 1_555 1_555
F1 C10 1_555 1_555
F2 C10 1_555 1_555
F3 C10 1_555 1_555
Ag2 O5 1_555 1_555
O5 H9 1_555 1_555
H10 O5 1_555 1_555
C11 Ag2 1_555 1_555
N3 C11 1_555 1_555
C12 N3 1_555 1_555
C13 C12 1_555 1_555
H11 C13 1_555 1_555
C14 C13 1_555 1_555
H12 C14 1_555 1_555
C15 C14 1_555 1_555
C16 C15 1_555 1_555
H13 C16 1_555 1_555
C17 C12 1_555 1_555
H14 C17 1_555 1_555
N4 C15 1_555 1_555
H15 N4 1_555 1_555
C18 N4 1_555 1_555
O6 C18 1_555 1_555
C19 C18 1_555 1_555
H16 C19 1_555 1_555
H17 C19 1_555 1_555
H18 C19 1_555 1_555
S2 O7 1_555 1_555
O8 S2 1_555 1_555
O9 S2 1_555 1_555
C20 S2 1_555 1_555
F4 C20 1_555 1_555
F5 C20 1_555 1_555
F6 C20 1_555 1_555
Ag1_2 O1 1_555 1_555
O1_2 Ag1 1_555 1_555
Ag2_2 O6 1_555 1_555
O6_2 Ag2 1_555 1_555
C6 C7 1_555 1_555
C16 C17 1_555 1_555

#END
