
#######################################################################
#
#                 Cambridge Crystallographic Data Centre
#                                CCDC 
#
#######################################################################
#
# If this CIF has been generated from an entry in the Cambridge 
# Structural Database, then it will include bibliographic, chemical, 
# crystal, experimental, refinement or atomic coordinate data resulting 
# from the CCDC's data processing and validation procedures.
#
#######################################################################

data_GUGSIM
_symmetry_cell_setting           monoclinic
_symmetry_space_group_name_H-M   'P 21/c'
_symmetry_Int_Tables_number      14
_space_group_name_Hall           '-P 2ybc'
loop_
_symmetry_equiv_pos_site_id
_symmetry_equiv_pos_as_xyz
1 x,y,z
2 -x,1/2+y,1/2-z
3 -x,-y,-z
4 x,1/2-y,1/2+z
_cell_length_a                   19.435(5)
_cell_length_b                   12.153(5)
_cell_length_c                   17.175(5)
_cell_angle_alpha                90
_cell_angle_beta                 99.667(5)
_cell_angle_gamma                90
_cell_volume                     3999.02
loop_
_atom_site_label
_atom_site_type_symbol
_atom_site_fract_x
_atom_site_fract_y
_atom_site_fract_z
Cd1 Cd 0.747649(9) 0.806747(16) 0.214740(11)
Cd2 Cd 0.744146(9) 1.120417(16) 0.275889(10)
N1 N 1.21665(12) 0.8157(2) -0.16458(14)
O1 O 0.34319(10) 0.77452(17) 0.23162(11)
O2 O 0.80510(9) 0.95701(16) 0.28089(12)
N2 N 0.62960(11) 1.08341(19) 0.47734(12)
O3 O 0.23955(10) 0.78599(16) 0.15616(12)
O4 O 1.25738(11) 1.11194(18) 0.31398(14)
N3 N 0.69597(12) 1.0677(2) 0.38542(13)
O5 O 1.17000(12) 1.1722(2) 0.22740(16)
N4 N 0.39291(11) 1.20625(18) 0.60558(13)
O6 O 0.88134(11) 1.08239(18) 0.32743(14)
N5 N 0.31233(12) 1.21057(18) 0.68164(13)
O7 O 0.66758(12) 1.0062(2) 0.18834(15)
O8 O 0.64759(11) 0.8480(2) 0.12923(14)
N6 N 0.81001(12) 0.8393(2) 0.11250(15)
C1 C 0.72222(14) 1.0023(2) 0.44855(16)
H1 H 0.7617 0.9582 0.4516
N7 N 0.89247(12) 0.8510(2) 0.03948(15)
N8 N 1.14352(11) 0.8026(2) -0.07980(13)
C2 C 0.63192(13) 0.9453(3) 0.14076(15)
C3 C 0.45438(14) 1.1766(2) 0.57504(15)
C4 C 1.17079(18) 0.9796(3) 0.2583(2)
C5 C 0.57084(13) 1.1160(2) 0.51259(15)
C6 C 0.46475(16) 1.1092(3) 0.24403(17)
H2 H 0.4713 1.1617 0.2840
C7 C 0.37395(14) 1.1719(2) 0.67387(15)
H3 H 0.4011 1.1267 0.7106
C8 C 0.29029(14) 1.2725(2) 0.61508(17)
H4 H 0.2481 1.3102 0.6045
C9 C 0.57439(14) 1.1194(2) 0.59337(16)
H5 H 0.6158 1.1017 0.6266
C10 C 0.51550(14) 1.1495(2) 0.62492(15)
H6 H 0.5173 1.1513 0.6794
C11 C 1.08710(18) 0.9680(3) 0.4418(2)
H7 H 1.1010 0.9748 0.4961
C12 C 0.39070(14) 0.9764(2) 0.16756(18)
C13 C 0.68238(14) 1.0110(2) 0.50587(16)
H8 H 0.6893 0.9755 0.5545
C14 C 0.44486(14) 0.9543(2) 0.12661(17)
H9 H 0.4384 0.9014 0.0870
C15 C 1.13505(15) 0.9813(3) 0.3919(2)
H10 H 1.1810 0.9986 0.4129
C16 C 1.08004(14) 0.8112(2) -0.04909(16)
C17 C 0.33873(15) 1.2708(2) 0.56761(17)
H11 H 0.3363 1.3058 0.5191
C18 C 0.86721(14) 0.9880(2) 0.30398(16)
C19 C 0.45145(14) 1.1738(3) 0.49394(16)
H12 H 0.4105 1.1930 0.4604
C20 C 0.64027(15) 1.1153(2) 0.40469(17)
H13 H 0.6119 1.1646 0.3725
C21 C 1.25330(15) 0.7887(3) -0.09160(18)
H14 H 1.3013 0.7781 -0.0802
C22 C 0.40148(15) 1.0537(3) 0.22737(17)
H15 H 0.3663 1.0685 0.2565
C23 C 0.56440(14) 0.9887(3) 0.09321(17)
H16 H 0.5740 1.0571 0.0679
H17 H 0.5472 0.9362 0.0520
C24 C 1.11622(15) 0.9695(2) 0.31144(19)
C25 C 0.30031(14) 0.8217(2) 0.18055(15)
C26 C 0.92316(15) 0.9030(3) 0.2978(3)
H18 H 0.9119 0.8369 0.3247
H19 H 0.9207 0.8845 0.2425
C27 C 1.20910(15) 0.7799(3) -0.03873(18)
H20 H 1.2207 0.7620 0.0145
C28 C 0.31915(16) 0.9275(3) 0.1411(2)
H21 H 0.3140 0.9137 0.0848
H22 H 0.2849 0.9828 0.1487
C29 C 0.99735(14) 0.9341(3) 0.3304(2)
C30 C 1.04680(15) 0.9462(3) 0.2815(2)
H23 H 1.0332 0.9386 0.2272
C31 C 0.51758(14) 1.0877(2) 0.20242(17)
H24 H 0.5596 1.1258 0.2139
C32 C 1.20183(16) 1.0955(2) 0.26679(18)
C33 C 0.79592(17) 0.9261(3) 0.06163(19)
H25 H 0.7576 0.9725 0.0588
C34 C 1.07826(16) 0.7890(3) 0.02993(18)
H26 H 1.1185 0.7665 0.0633
C35 C 0.84553(17) 0.9343(3) 0.0164(2)
H27 H 0.8478 0.9861 -0.0229
C36 C 1.15125(14) 0.8226(3) -0.15506(16)
H28 H 1.1145 0.8393 -0.1954
C37 C 0.86805(16) 0.7956(3) 0.09706(19)
H29 H 0.8896 0.7342 0.1227
C38 C 0.95659(15) 0.8328(3) 0.00972(18)
C39 C 1.01635(17) 0.8005(3) 0.05881(18)
H30 H 1.0152 0.7863 0.1118
C40 C 0.50824(13) 1.0088(2) 0.14299(15)
C41 C 1.01820(17) 0.9445(3) 0.4112(2)
H31 H 0.9859 0.9357 0.4449
C42 C 1.01936(16) 0.8427(3) -0.09816(18)
H32 H 1.0202 0.8574 -0.1511
C43 C 0.95737(15) 0.8525(3) -0.06913(18)
H33 H 0.9165 0.8722 -0.1026
C44 C 0.50963(15) 1.1424(3) 0.46308(16)
H34 H 0.5075 1.1391 0.4086
Cd1A Cd 1.252351(9) 1.306747(16) 0.285260(11)
Cd1B Cd 0.252351(9) 1.193253(16) 0.785260(11)
Cd2A Cd 0.255854(9) 0.620417(16) 0.224111(10)
Cd2B Cd 1.255854(9) 0.879583(16) -0.275889(10)
N1B N 0.78335(12) 1.1843(2) 0.16458(14)
O1A O 0.65681(10) 1.27452(17) 0.26838(11)
O3A O 0.76045(10) 1.28599(16) 0.34384(12)
O4A O 0.74262(11) 0.61194(18) 0.18602(14)
O5A O 0.83000(12) 0.6722(2) 0.27260(16)
N5B N 0.68767(12) 0.78943(18) 0.31836(13)
O9 O -0.0049(19) 0.170(3) 0.2933(11)
H35 H -0.0277 0.2255 0.3056
H36 H 0.0347 0.1679 0.3232
loop_
_geom_bond_atom_site_label_1
_geom_bond_atom_site_label_2
_geom_bond_site_symmetry_1
_geom_bond_site_symmetry_2
Cd1 O2 1_555 1_555
Cd2 O2 1_555 1_555
N1 C21 1_555 1_555
O1 C25 1_555 1_555
O2 C18 1_555 1_555
N2 C5 1_555 1_555
O3 C25 1_555 1_555
O4 C32 1_555 1_555
N3 Cd2 1_555 1_555
O5 C32 1_555 1_555
N4 C3 1_555 1_555
O6 Cd2 1_555 1_555
N5 C7 1_555 1_555
O7 Cd2 1_555 1_555
O8 Cd1 1_555 1_555
N6 Cd1 1_555 1_555
C1 N3 1_555 1_555
H1 C1 1_555 1_555
N7 C35 1_555 1_555
N8 C16 1_555 1_555
C2 O7 1_555 1_555
C3 C10 1_555 1_555
C4 C24 1_555 1_555
C5 C9 1_555 1_555
C6 H2 1_555 1_555
C7 N4 1_555 1_555
H3 C7 1_555 1_555
C8 N5 1_555 1_555
H4 C8 1_555 1_555
C9 H5 1_555 1_555
C10 C9 1_555 1_555
H6 C10 1_555 1_555
C11 H7 1_555 1_555
C12 C14 1_555 1_555
C13 N2 1_555 1_555
H8 C13 1_555 1_555
C14 H9 1_555 1_555
C15 C11 1_555 1_555
H10 C15 1_555 1_555
C16 C34 1_555 1_555
C17 N4 1_555 1_555
H11 C17 1_555 1_555
C18 O6 1_555 1_555
C19 C3 1_555 1_555
H12 C19 1_555 1_555
C20 N2 1_555 1_555
H13 C20 1_555 1_555
C21 H14 1_555 1_555
C22 C6 1_555 1_555
H15 C22 1_555 1_555
C23 C2 1_555 1_555
H16 C23 1_555 1_555
H17 C23 1_555 1_555
C24 C15 1_555 1_555
C25 C28 1_555 1_555
C26 C18 1_555 1_555
H18 C26 1_555 1_555
H19 C26 1_555 1_555
C27 N8 1_555 1_555
H20 C27 1_555 1_555
C28 C12 1_555 1_555
H21 C28 1_555 1_555
H22 C28 1_555 1_555
C29 C26 1_555 1_555
C30 C24 1_555 1_555
H23 C30 1_555 1_555
C31 C6 1_555 1_555
H24 C31 1_555 1_555
C32 C4 1_555 1_555
C33 N6 1_555 1_555
H25 C33 1_555 1_555
C34 H26 1_555 1_555
C35 C33 1_555 1_555
H27 C35 1_555 1_555
C36 N1 1_555 1_555
H28 C36 1_555 1_555
C37 N6 1_555 1_555
H29 C37 1_555 1_555
C38 N7 1_555 1_555
C39 C34 1_555 1_555
H30 C39 1_555 1_555
C40 C14 1_555 1_555
C41 C11 1_555 1_555
H31 C41 1_555 1_555
C42 C16 1_555 1_555
H32 C42 1_555 1_555
C43 C38 1_555 1_555
H33 C43 1_555 1_555
C44 C5 1_555 1_555
H34 C44 1_555 1_555
O9 H35 1_555 1_555
H36 O9 1_555 1_555
Cd1A O4 1_555 1_555
Cd1B N5 1_555 1_555
Cd2A O1 1_555 1_555
Cd2B N1 1_555 1_555
N1B Cd2 1_555 1_555
O1A Cd2 1_555 1_555
O3A Cd2 1_555 1_555
O4A Cd1 1_555 1_555
O5A Cd1 1_555 1_555
N5B Cd1 1_555 1_555
O3 Cd2A 1_555 1_555
N3 C20 1_555 1_555
O5 Cd1A 1_555 1_555
O8 C2 1_555 1_555
C1 C13 1_555 1_555
N7 C37 1_555 1_555
N8 C36 1_555 1_555
C8 C17 1_555 1_555
C12 C22 1_555 1_555
C19 C44 1_555 1_555
C21 C27 1_555 1_555
C23 C40 1_555 1_555
C29 C30 1_555 1_555
C29 C41 1_555 1_555
C31 C40 1_555 1_555
C38 C39 1_555 1_555
C42 C43 1_555 1_555

#END
