
#######################################################################
#
#                 Cambridge Crystallographic Data Centre
#                                CCDC 
#
#######################################################################
#
# If this CIF has been generated from an entry in the Cambridge 
# Structural Database, then it will include bibliographic, chemical, 
# crystal, experimental, refinement or atomic coordinate data resulting 
# from the CCDC's data processing and validation procedures.
#
#######################################################################

data_GUGSEI
_symmetry_cell_setting           monoclinic
_symmetry_space_group_name_H-M   'C 2/c'
_symmetry_Int_Tables_number      15
_space_group_name_Hall           '-C 2yn'
loop_
_symmetry_equiv_pos_site_id
_symmetry_equiv_pos_as_xyz
1 x,y,z
2 -x,y,1/2-z
3 1/2+x,1/2+y,z
4 1/2-x,1/2+y,1/2-z
5 -x,-y,-z
6 x,-y,1/2+z
7 1/2-x,1/2-y,-z
8 1/2+x,1/2-y,1/2+z
_cell_length_a                   29.149(5)
_cell_length_b                   7.527(5)
_cell_length_c                   26.798(5)
_cell_angle_alpha                90
_cell_angle_beta                 121.473(5)
_cell_angle_gamma                90
_cell_volume                     5014.63
loop_
_atom_site_label
_atom_site_type_symbol
_atom_site_fract_x
_atom_site_fract_y
_atom_site_fract_z
Cd1 Cd 0.281026(5) 1.164991(17) 0.716021(5)
S1 S 0.432264(17) 0.50182(7) 0.57423(2)
O1 O 0.70024(5) 0.46172(18) 0.75809(6)
N1 N 0.39684(6) 1.0819(2) 0.90449(6)
O2 O 0.41779(6) 0.32312(19) 0.57980(7)
N2 N 0.23161(6) 1.4585(2) 0.55276(6)
C1 C 0.44939(7) 1.0398(2) 0.95286(7)
N3 N 0.24266(7) 1.2750(2) 0.62220(7)
C2 C 0.50315(7) 0.5141(2) 0.61271(7)
C3 C 0.50530(7) 0.9150(3) 1.04869(8)
H1 H 0.5089 0.8581 1.0813
O3 O 0.69539(6) 0.6233(2) 0.68591(7)
O4 O 0.41155(6) 0.5744(2) 0.51674(6)
C4 C 0.39691(8) 0.5726(3) 0.64882(9)
H2 H 0.3978 0.4505 0.6546
C5 C 0.53176(7) 0.4362(3) 0.66772(8)
H3 H 0.5139 0.3804 0.6837
C6 C 0.31346(8) 1.1721(3) 0.85203(8)
H4 H 0.2798 1.2174 0.8410
C7 C 0.24637(9) 1.7297(3) 0.44662(8)
H5 H 0.2440 1.7164 0.4108
N4 N 0.32875(6) 1.1146(2) 0.81423(6)
C8 C 0.37882(9) 0.6866(3) 0.67553(9)
H6 H 0.3667 0.6403 0.6988
O5 O 0.36618(9) 1.1447(3) 0.70222(10)
C9 C 0.61410(7) 0.5271(2) 0.67462(7)
O6 O 0.31508(7) 0.9204(2) 0.69577(7)
C10 C 0.24070(7) 1.6076(3) 0.52576(8)
C11 C 0.35497(8) 1.1527(3) 0.90798(8)
H7 H 0.3552 1.1815 0.9418
C12 C 0.58460(8) 0.6020(3) 0.61902(9)
H8 H 0.6024 0.6564 0.6028
C13 C 0.45453(7) 0.9548(3) 1.00144(8)
H9 H 0.4240 0.9246 1.0024
C14 C 0.67495(7) 0.5368(2) 0.70938(8)
C15 C 0.58731(7) 0.4431(3) 0.69826(8)
H10 H 0.6070 0.3909 0.7350
C16 C 0.23692(8) 1.5860(3) 0.47238(8)
H11 H 0.2281 1.4758 0.4540
C17 C 0.41365(7) 0.6445(3) 0.61338(8)
C18 C 0.37886(7) 1.0617(3) 0.84682(7)
H12 H 0.3993 1.0164 0.8323
C19 C 0.37856(8) 0.8688(3) 0.66797(9)
C20 C 0.41551(9) 0.8266(3) 0.60697(10)
H13 H 0.4281 0.8727 0.5841
C21 C 0.19188(9) 1.3320(3) 0.52651(9)
H14 H 0.1655 1.3245 0.4870
C22 C 0.19886(8) 1.2206(3) 0.56957(8)
H15 H 0.1775 1.1225 0.5645
C23 C 0.52891(7) 0.5961(3) 0.58772(8)
H16 H 0.5092 0.6463 0.5506
C24 C 0.26063(8) 1.4179(3) 0.61036(8)
H17 H 0.2899 1.4837 0.6382
C25 C 0.39851(9) 0.9388(3) 0.63492(10)
H18 H 0.4004 1.0612 0.6317
C26 C 0.35201(9) 0.9881(3) 0.69133(9)
N1D N 0.60316(6) 0.9181(2) 1.09551(6)
C1D C 0.55061(7) 0.9602(2) 1.04714(7)
C3D C 0.49470(7) 1.0850(3) 0.95131(8)
H1D H 0.4911 1.1419 0.9187
C6D C 0.68654(8) 0.8279(3) 1.14797(8)
H4D H 0.7202 0.7826 1.1590
N4D N 0.67125(6) 0.8854(2) 1.18577(6)
C11D C 0.64503(8) 0.8473(3) 1.09202(8)
H7D H 0.6448 0.8185 1.0582
C13D C 0.54547(7) 1.0452(3) 0.99856(8)
H9D H 0.5760 1.0754 0.9976
C18D C 0.62114(7) 0.9383(3) 1.15318(7)
H12D H 0.6007 0.9836 1.1677
N2F N 0.26839(6) 2.0415(2) 0.44724(6)
N3F N 0.25734(7) 2.2250(2) 0.37780(7)
C7F C 0.25363(9) 1.7703(3) 0.55338(8)
H5F H 0.2560 1.7836 0.5892
C10F C 0.25930(7) 1.8924(3) 0.47424(8)
C16F C 0.26308(8) 1.9140(3) 0.52762(8)
H11F H 0.2719 2.0242 0.5460
C21F C 0.30812(9) 2.1680(3) 0.47349(9)
H14F H 0.3345 2.1755 0.5130
C22F C 0.30114(8) 2.2794(3) 0.43043(8)
H15F H 0.3225 2.3775 0.4355
C24F C 0.23937(8) 2.0821(3) 0.38964(8)
H17F H 0.2101 2.0163 0.3618
Cd1D Cd 0.718974(5) 0.835009(17) 1.283979(5)
S1D S 0.567736(17) 1.49818(7) 1.42577(2)
O1D O 0.29976(5) 1.53828(18) 1.24191(6)
O2D O 0.58221(6) 1.67688(19) 1.42020(7)
C2D C 0.49685(7) 1.4859(2) 1.38729(7)
O3D O 0.30461(6) 1.3767(2) 1.31409(7)
O4D O 0.58845(6) 1.4256(2) 1.48326(6)
C4D C 0.60309(8) 1.4274(3) 1.35118(9)
H2D H 0.6022 1.5495 1.3454
C5D C 0.46824(7) 1.5638(3) 1.33228(8)
H3D H 0.4861 1.6196 1.3163
C8D C 0.62118(9) 1.3134(3) 1.32447(9)
H6D H 0.6333 1.3597 1.3012
O5D O 0.63382(9) 0.8553(3) 1.29778(10)
C9D C 0.38590(7) 1.4729(2) 1.32538(7)
O6D O 0.68492(7) 1.0796(2) 1.30423(7)
C12D C 0.41540(8) 1.3980(3) 1.38098(9)
H8D H 0.3976 1.3436 1.3972
C14D C 0.32505(7) 1.4632(2) 1.29062(8)
C15D C 0.41269(7) 1.5569(3) 1.30174(8)
H10D H 0.3930 1.6091 1.2650
C17D C 0.58635(7) 1.3555(3) 1.38662(8)
C19D C 0.62144(8) 1.1312(3) 1.33203(9)
C20D C 0.58449(9) 1.1734(3) 1.39303(10)
H13D H 0.5719 1.1273 1.4159
C23D C 0.47109(7) 1.4039(3) 1.41228(8)
H16D H 0.4908 1.3537 1.4494
C25D C 0.60149(9) 1.0612(3) 1.36508(10)
H18D H 0.5996 0.9388 1.3683
C26D C 0.64799(9) 1.0119(3) 1.30867(9)
Cd1A Cd 0.718974(5) 0.164991(17) 0.783979(5)
Cd1B Cd 0.781026(5) 0.664991(17) 0.716021(5)
Cd1E Cd 0.281026(5) 1.835009(17) 1.216021(5)
Cd1F Cd 0.218974(5) 1.335009(17) 1.283979(5)
Cd1F_2 Cd 0.218974(5) 2.335009(17) 0.283979(5)
O1A O 0.29976(5) 1.46172(18) 0.74191(6)
O1E O 0.70024(5) 0.53828(18) 1.25809(6)
N3D N 0.75734(7) 0.7250(2) 1.37780(7)
O3B O 0.19539(6) 1.1233(2) 0.68591(7)
O3F O 0.80461(6) 0.8767(2) 1.31409(7)
loop_
_geom_bond_atom_site_label_1
_geom_bond_atom_site_label_2
_geom_bond_site_symmetry_1
_geom_bond_site_symmetry_2
Cd1 N3 1_555 1_555
S1 O2 1_555 1_555
O1 C14 1_555 1_555
N1 C1 1_555 1_555
N2 C10 1_555 1_555
C1 C13 1_555 1_555
N3 C22 1_555 1_555
C2 S1 1_555 1_555
C3 H1 1_555 1_555
O3 C14 1_555 1_555
O4 S1 1_555 1_555
C4 H2 1_555 1_555
C5 C2 1_555 1_555
H3 C5 1_555 1_555
C6 H4 1_555 1_555
C7 H5 1_555 1_555
N4 Cd1 1_555 1_555
C8 C4 1_555 1_555
H6 C8 1_555 1_555
O5 Cd1 1_555 1_555
C9 C12 1_555 1_555
O6 Cd1 1_555 1_555
C10 C16 1_555 1_555
C11 N1 1_555 1_555
H7 C11 1_555 1_555
C12 H8 1_555 1_555
C13 C3 1_555 1_555
H9 C13 1_555 1_555
C14 C9 1_555 1_555
C15 C5 1_555 1_555
H10 C15 1_555 1_555
C16 C7 1_555 1_555
H11 C16 1_555 1_555
C17 S1 1_555 1_555
C18 N1 1_555 1_555
H12 C18 1_555 1_555
C19 C8 1_555 1_555
C20 C17 1_555 1_555
H13 C20 1_555 1_555
C21 N2 1_555 1_555
H14 C21 1_555 1_555
C22 C21 1_555 1_555
H15 C22 1_555 1_555
C23 C2 1_555 1_555
H16 C23 1_555 1_555
C24 N2 1_555 1_555
H17 C24 1_555 1_555
C25 C19 1_555 1_555
H18 C25 1_555 1_555
C26 O5 1_555 1_555
N1D C1D 1_555 1_555
C1D C3 1_555 1_555
C3D C1 1_555 1_555
H1D C3D 1_555 1_555
C6D H4D 1_555 1_555
N4D C6D 1_555 1_555
C11D N1D 1_555 1_555
H7D C11D 1_555 1_555
C13D C1D 1_555 1_555
H9D C13D 1_555 1_555
C18D N1D 1_555 1_555
H12D C18D 1_555 1_555
N2F C10F 1_555 1_555
N3F C22F 1_555 1_555
C7F C10 1_555 1_555
H5F C7F 1_555 1_555
C10F C7 1_555 1_555
C16F C7F 1_555 1_555
H11F C16F 1_555 1_555
C21F N2F 1_555 1_555
H14F C21F 1_555 1_555
C22F C21F 1_555 1_555
H15F C22F 1_555 1_555
C24F N2F 1_555 1_555
H17F C24F 1_555 1_555
Cd1D N4D 1_555 1_555
S1D O2D 1_555 1_555
O1D C14D 1_555 1_555
C2D S1D 1_555 1_555
O3D C14D 1_555 1_555
O4D S1D 1_555 1_555
C4D H2D 1_555 1_555
C5D C2D 1_555 1_555
H3D C5D 1_555 1_555
C8D C4D 1_555 1_555
H6D C8D 1_555 1_555
O5D Cd1D 1_555 1_555
C9D C12D 1_555 1_555
O6D Cd1D 1_555 1_555
C12D H8D 1_555 1_555
C14D C9D 1_555 1_555
C15D C5D 1_555 1_555
H10D C15D 1_555 1_555
C17D S1D 1_555 1_555
C19D C8D 1_555 1_555
C20D C17D 1_555 1_555
H13D C20D 1_555 1_555
C23D C2D 1_555 1_555
H16D C23D 1_555 1_555
C25D C19D 1_555 1_555
H18D C25D 1_555 1_555
C26D O5D 1_555 1_555
Cd1A O1 1_555 1_555
Cd1B O3 1_555 1_555
Cd1E O1D 1_555 1_555
Cd1F O3D 1_555 1_555
Cd1F_2 N3F 1_555 1_555
O1A Cd1 1_555 1_555
O1E Cd1D 1_555 1_555
N3D Cd1D 1_555 1_555
O3B Cd1 1_555 1_555
O3F Cd1D 1_555 1_555
N3 C24 1_555 1_555
C4 C17 1_555 1_555
C6 N4 1_555 1_555
C6 C11 1_555 1_555
N4 C18 1_555 1_555
C9 C15 1_555 1_555
O6 C26 1_555 1_555
C12 C23 1_555 1_555
C19 C26 1_555 1_555
C20 C25 1_555 1_555
C3D C13D 1_555 1_555
C6D C11D 1_555 1_555
N4D C18D 1_555 1_555
N3F C24F 1_555 1_555
C10F C16F 1_555 1_555
C4D C17D 1_555 1_555
C9D C15D 1_555 1_555
O6D C26D 1_555 1_555
C12D C23D 1_555 1_555
C19D C26D 1_555 1_555
C20D C25D 1_555 1_555

#END
