
#######################################################################
#
#                 Cambridge Crystallographic Data Centre
#                                CCDC 
#
#######################################################################
#
# If this CIF has been generated from an entry in the Cambridge 
# Structural Database, then it will include bibliographic, chemical, 
# crystal, experimental, refinement or atomic coordinate data resulting 
# from the CCDC's data processing and validation procedures.
#
#######################################################################

data_GUGVEL
_symmetry_cell_setting           monoclinic
_symmetry_space_group_name_H-M   'P 21'
_symmetry_Int_Tables_number      4
_space_group_name_Hall           'P 2yb'
loop_
_symmetry_equiv_pos_site_id
_symmetry_equiv_pos_as_xyz
1 x,y,z
2 -x,1/2+y,-z
_cell_length_a                   11.0919(3)
_cell_length_b                   10.6761(3)
_cell_length_c                   12.9315(3)
_cell_angle_alpha                90
_cell_angle_beta                 114.781(1)
_cell_angle_gamma                90
_cell_volume                     1390.32
loop_
_atom_site_label
_atom_site_type_symbol
_atom_site_fract_x
_atom_site_fract_y
_atom_site_fract_z
Cu1 Cu -0.108870(17) 0.729466(19) 0.261935(14)
O1 O -0.01951(10) 0.73027(14) 0.43286(8)
O2 O 0.09725(14) 0.82957(13) 0.59523(10)
C1 C 0.03325(17) 0.82717(17) 0.48846(14)
C2 C 0.02474(17) 0.95043(17) 0.42402(14)
H1 H 0.0015 1.0195 0.4647
O3 O -0.07669(13) 0.94265(13) 0.31063(11)
H2 H -0.1285(19) 1.0005(19) 0.3019(19)
C3 C 0.15463(18) 0.98320(18) 0.41816(14)
C4 C 0.1563(2) 1.0879(2) 0.35413(17)
H3 H 0.0791 1.1386 0.3202
C5 C 0.2704(2) 1.1187(2) 0.33974(18)
H4 H 0.2695 1.1894 0.2948
C6 C 0.3860(2) 1.0474(2) 0.39039(17)
H5 H 0.4640 1.0682 0.3809
C7 C 0.38250(19) 0.94558(19) 0.45480(15)
C8 C 0.26953(18) 0.91203(18) 0.47024(14)
H6 H 0.2711 0.8416 0.5157
Cl1 Cl 0.52581(5) 0.85540(5) 0.52152(4)
O4 O -0.19463(12) 0.68820(11) 0.09752(10)
O5 O -0.29375(14) 0.54806(13) -0.03905(11)
C9 C -0.22961(16) 0.57763(16) 0.06278(14)
C10 C -0.19725(16) 0.46958(16) 0.14918(13)
H7 H -0.2823 0.4405 0.1506
O6 O -0.11356(12) 0.51413(13) 0.25945(9)
H8 H -0.107(2) 0.4585(19) 0.3045(17)
C11 C -0.13438(17) 0.35915(17) 0.11613(13)
C12 C -0.00820(17) 0.37067(17) 0.11738(14)
H9 H 0.0384 0.4478 0.1389
C13 C 0.04915(18) 0.26972(18) 0.08731(15)
H10 H 0.1344 0.2788 0.0875
C14 C -0.01660(19) 0.15537(18) 0.05691(15)
H11 H 0.0232 0.0858 0.0375
C15 C -0.14125(19) 0.14571(17) 0.05574(14)
C16 C -0.20140(16) 0.24536(18) 0.08476(13)
H12 H -0.2873 0.2360 0.0832
Cl2 Cl -0.22672(5) 0.00437(5) 0.01538(4)
N1 N 0.06812(12) 0.72998(17) 0.25485(10)
C17 C 0.09865(16) 0.81593(17) 0.19456(14)
H13 H 0.0340 0.8772 0.1539
C18 C 0.22139(16) 0.81946(17) 0.18888(14)
H14 H 0.2397 0.8826 0.1457
C19 C 0.31657(14) 0.7298(2) 0.24683(12)
C20 C 0.28290(17) 0.63969(18) 0.30873(16)
H15 H 0.3445 0.5760 0.3489
C21 C 0.15915(17) 0.64381(18) 0.31113(15)
H16 H 0.1384 0.5828 0.3546
C22 C 0.61571(18) 0.81727(19) 0.19255(17)
H17 H 0.6382 0.8757 0.1481
C23 C 0.48669(18) 0.81775(19) 0.18491(17)
H18 H 0.4235 0.8763 0.1370
C24 C 0.45124(14) 0.7317(2) 0.24804(12)
C25 C 0.54875(19) 0.6491(2) 0.31563(18)
H19 H 0.5285 0.5876 0.3590
C26 C 0.67558(19) 0.6557(2) 0.32029(17)
H20 H 0.7411 0.5991 0.3685
N2 N 0.70944(12) 0.73811(18) 0.25982(10)
Cu1_2 Cu 0.891130(17) 0.729466(19) 0.261935(14)
N2_2 N -0.29056(12) 0.73811(18) 0.25982(10)
O7 O -0.24507(16) 1.10828(16) 0.32756(16)
H21 H -0.3401(17) 1.117(3) 0.2759(19)
H22 H -0.204(3) 1.1893(19) 0.345(2)
C27 C -0.5198(3) 1.3084(3) 0.1803(3)
O8 O -0.5056(5) 1.1781(4) 0.1966(6)
O9? O -0.4841(9) 1.1903(10) 0.1563(11)
loop_
_geom_bond_atom_site_label_1
_geom_bond_atom_site_label_2
_geom_bond_site_symmetry_1
_geom_bond_site_symmetry_2
Cu1 O1 1_555 1_555
O1 C1 1_555 1_555
O2 C1 1_555 1_555
C1 C2 1_555 1_555
C2 H1 1_555 1_555
O3 Cu1 1_555 1_555
H2 O3 1_555 1_555
C3 C2 1_555 1_555
C4 C3 1_555 1_555
H3 C4 1_555 1_555
C5 C4 1_555 1_555
H4 C5 1_555 1_555
C6 C5 1_555 1_555
H5 C6 1_555 1_555
C7 C6 1_555 1_555
C8 C3 1_555 1_555
H6 C8 1_555 1_555
Cl1 C7 1_555 1_555
O4 Cu1 1_555 1_555
O5 C9 1_555 1_555
C9 O4 1_555 1_555
C10 C9 1_555 1_555
H7 C10 1_555 1_555
O6 Cu1 1_555 1_555
H8 O6 1_555 1_555
C11 C10 1_555 1_555
C12 C11 1_555 1_555
H9 C12 1_555 1_555
C13 C12 1_555 1_555
H10 C13 1_555 1_555
C14 C13 1_555 1_555
H11 C14 1_555 1_555
C15 C14 1_555 1_555
C16 C11 1_555 1_555
H12 C16 1_555 1_555
Cl2 C15 1_555 1_555
N1 Cu1 1_555 1_555
C17 N1 1_555 1_555
H13 C17 1_555 1_555
C18 C17 1_555 1_555
H14 C18 1_555 1_555
C19 C18 1_555 1_555
C20 C19 1_555 1_555
H15 C20 1_555 1_555
C21 N1 1_555 1_555
H16 C21 1_555 1_555
C22 H17 1_555 1_555
C23 C22 1_555 1_555
H18 C23 1_555 1_555
C24 C19 1_555 1_555
C25 C24 1_555 1_555
H19 C25 1_555 1_555
C26 C25 1_555 1_555
H20 C26 1_555 1_555
N2 C22 1_555 1_555
O7 H21 1_555 1_555
H22 O7 1_555 1_555
C27 O8 1_555 1_555
Cu1_2 N2 1_555 1_555
N2_2 Cu1 1_555 1_555
C2 O3 1_555 1_555
C7 C8 1_555 1_555
C10 O6 1_555 1_555
C15 C16 1_555 1_555
C20 C21 1_555 1_555
C23 C24 1_555 1_555
C26 N2 1_555 1_555

#END
