
#######################################################################
#
#                 Cambridge Crystallographic Data Centre
#                                CCDC 
#
#######################################################################
#
# If this CIF has been generated from an entry in the Cambridge 
# Structural Database, then it will include bibliographic, chemical, 
# crystal, experimental, refinement or atomic coordinate data resulting 
# from the CCDC's data processing and validation procedures.
#
#######################################################################

data_GUGVUB
_symmetry_cell_setting           monoclinic
_symmetry_space_group_name_H-M   'P 21'
_symmetry_Int_Tables_number      4
_space_group_name_Hall           'P 2yb'
loop_
_symmetry_equiv_pos_site_id
_symmetry_equiv_pos_as_xyz
1 x,y,z
2 -x,1/2+y,-z
_cell_length_a                   11.1135(4)
_cell_length_b                   16.4401(5)
_cell_length_c                   11.2565(3)
_cell_angle_alpha                90
_cell_angle_beta                 90.465(1)
_cell_angle_gamma                90
_cell_volume                     2056.57
loop_
_atom_site_label
_atom_site_type_symbol
_atom_site_fract_x
_atom_site_fract_y
_atom_site_fract_z
Cu1 Cu 0.63744(2) 0.659047(18) 0.87479(2)
N1 N 0.45467(15) 0.65923(19) 0.87582(16)
C1 C 0.3931(2) 0.70213(15) 0.9572(2)
H1 H 0.4368 0.7327 1.0147
C2 C 0.2688(2) 0.70342(15) 0.9602(2)
H2 H 0.2286 0.7345 1.0189
C3 C 0.20267(18) 0.6589(3) 0.87687(19)
C4 C 0.2673(2) 0.61481(14) 0.7933(2)
H3 H 0.2260 0.5835 0.7348
C5 C 0.3917(2) 0.61666(15) 0.7955(2)
H4 H 0.4342 0.5864 0.7375
N2 N -0.18193(15) 0.6592(2) 0.87547(17)
C6 C -0.1202(2) 0.67341(14) 0.9759(2)
H5 H -0.1634 0.6835 1.0469
C7 C 0.0044(2) 0.67402(14) 0.9799(2)
H6 H 0.0455 0.6845 1.0526
C8 C 0.0032(2) 0.64427(16) 0.7728(2)
H7 H 0.0438 0.6340 0.7004
C9 C 0.06920(18) 0.6591(2) 0.87643(19)
C10 C -0.12071(19) 0.64442(15) 0.7751(2)
H8 H -0.1642 0.6338 0.7037
O1 O 0.63145(15) 0.72482(10) 0.72894(14)
O2 O 0.60195(18) 0.84457(11) 0.64215(15)
C11 C 0.6205(2) 0.80145(15) 0.7326(2)
C12 C 0.6319(2) 0.84679(15) 0.8518(2)
H9 H 0.5535 0.8739 0.8693
O3 O 0.65662(15) 0.78865(10) 0.94224(14)
H10 H 0.638(2) 0.8022(17) 1.0118(12)
C13 C 0.7308(2) 0.91229(15) 0.8445(2)
H11 H 0.7098 0.9489 0.7766
C14 C 0.8534(2) 0.87579(17) 0.8191(3)
H12 H 0.8486 0.8427 0.7468
H13 H 0.8785 0.8415 0.8861
H14 H 0.9121 0.9196 0.8081
C15 C 0.7332(3) 0.96402(17) 0.9565(2)
H15 H 0.7965 1.0052 0.9500
H16 H 0.7494 0.9293 1.0255
H17 H 0.6551 0.9909 0.9660
O4 O 0.63264(14) 0.59137(10) 1.01903(14)
O5 O 0.60508(17) 0.47072(11) 1.10173(15)
C16 C 0.6221(2) 0.51460(16) 1.0128(2)
C17 C 0.6319(2) 0.47167(15) 0.8923(2)
H18 H 0.5532 0.4448 0.8738
O6 O 0.65493(16) 0.53052(10) 0.80420(15)
H19 H 0.631(3) 0.5117(16) 0.7386(15)
C18 C 0.7306(3) 0.40556(16) 0.9004(2)
H20 H 0.7084 0.3680 0.9666
C19 C 0.8530(3) 0.44098(18) 0.9303(3)
H21 H 0.8477 0.4730 1.0035
H22 H 0.8793 0.4761 0.8651
H23 H 0.9111 0.3968 0.9415
C20 C 0.7338(3) 0.35560(17) 0.7878(3)
H24 H 0.6536 0.3333 0.7714
H25 H 0.7914 0.3109 0.7975
H26 H 0.7585 0.3902 0.7214
Cu1_2 Cu -0.36256(2) 0.659047(18) 0.87479(2)
N2_2 N 0.81807(15) 0.6592(2) 0.87547(17)
Cu2 Cu 0.70928(2) 0.655542(19) 0.37265(2)
N3 N 0.52759(15) 0.6549(2) 0.37234(17)
C21 C 0.4669(2) 0.67503(14) 0.4708(2)
H27 H 0.5107 0.6887 0.5408
C22 C 0.3421(2) 0.67638(14) 0.4730(2)
H28 H 0.3015 0.6918 0.5435
C23 C 0.27657(18) 0.6551(2) 0.37173(18)
C24 C 0.3412(2) 0.63375(14) 0.2706(2)
H29 H 0.2998 0.6180 0.2001
C25 C 0.4664(2) 0.63555(13) 0.2733(2)
H30 H 0.5095 0.6227 0.2032
N4 N -0.10899(14) 0.65520(19) 0.37157(16)
C26 C -0.0463(2) 0.70063(15) 0.4492(2)
H31 H -0.0888 0.7330 0.5047
C27 C 0.0783(2) 0.70206(15) 0.4514(2)
H32 H 0.1196 0.7353 0.5074
C28 C 0.14308(17) 0.6547(3) 0.37145(19)
C29 C 0.0763(2) 0.60824(15) 0.2919(2)
H33 H 0.1162 0.5748 0.2357
C30 C -0.0480(2) 0.61041(15) 0.2941(2)
H34 H -0.0917 0.5786 0.2380
O7 O 0.70449(15) 0.58645(10) 0.51617(14)
O8 O 0.60813(19) 0.47957(11) 0.59025(16)
C31 C 0.6574(2) 0.51610(15) 0.5072(2)
C32 C 0.6641(3) 0.47048(15) 0.3891(2)
H35 H 0.5816 0.4511 0.3670
O9 O 0.70638(16) 0.52346(10) 0.29810(15)
H36 H 0.672(2) 0.7981(16) 0.5148(15)
C33 C 0.7482(2) 0.39553(15) 0.4038(2)
H37 H 0.7162 0.3615 0.4700
C34 C 0.8756(3) 0.42152(17) 0.4378(3)
H38 H 0.8733 0.4547 0.5101
H39 H 0.9103 0.4534 0.3730
H40 H 0.9252 0.3731 0.4521
C35 C 0.7474(3) 0.34398(16) 0.2920(2)
H41 H 0.6647 0.3277 0.2730
H42 H 0.7968 0.2953 0.3050
H43 H 0.7803 0.3756 0.2260
O10 O 0.70210(15) 0.72630(10) 0.23083(14)
C36 C 0.6553(2) 0.79616(15) 0.2410(2)
O11 O 0.60626(17) 0.83468(11) 0.15770(15)
C37 C 0.6613(2) 0.84068(15) 0.3606(2)
H44 H 0.5783 0.8581 0.3827
O12 O 0.70655(15) 0.78749(10) 0.45017(14)
H45 H 0.676(2) 0.5093(16) 0.2328(15)
C38 C 0.7406(3) 0.91693(15) 0.3466(2)
H46 H 0.7021 0.9521 0.2846
C39 C 0.7445(3) 0.96566(16) 0.4624(3)
H47 H 0.6623 0.9782 0.4873
H48 H 0.7889 1.0164 0.4497
H49 H 0.7849 0.9336 0.5243
C40 C 0.8663(3) 0.89661(18) 0.3049(3)
H50 H 0.8613 0.8656 0.2306
H51 H 0.9078 0.8641 0.3656
H52 H 0.9112 0.9470 0.2913
Cu2_2 Cu -0.29072(2) 0.655542(19) 0.37265(2)
N4_2 N 0.89101(14) 0.65520(19) 0.37157(16)
loop_
_geom_bond_atom_site_label_1
_geom_bond_atom_site_label_2
_geom_bond_site_symmetry_1
_geom_bond_site_symmetry_2
Cu1 N1 1_555 1_555
N1 C1 1_555 1_555
C1 H1 1_555 1_555
C2 C1 1_555 1_555
H2 C2 1_555 1_555
C3 C2 1_555 1_555
C4 C3 1_555 1_555
H3 C4 1_555 1_555
C5 N1 1_555 1_555
H4 C5 1_555 1_555
N2 C6 1_555 1_555
C6 H5 1_555 1_555
C7 C6 1_555 1_555
H6 C7 1_555 1_555
C8 H7 1_555 1_555
C9 C3 1_555 1_555
C10 N2 1_555 1_555
H8 C10 1_555 1_555
O1 Cu1 1_555 1_555
O2 C11 1_555 1_555
C11 O1 1_555 1_555
C12 C11 1_555 1_555
H9 C12 1_555 1_555
O3 Cu1 1_555 1_555
H10 O3 1_555 1_555
C13 C12 1_555 1_555
H11 C13 1_555 1_555
C14 C13 1_555 1_555
H12 C14 1_555 1_555
H13 C14 1_555 1_555
H14 C14 1_555 1_555
C15 C13 1_555 1_555
H15 C15 1_555 1_555
H16 C15 1_555 1_555
H17 C15 1_555 1_555
O4 Cu1 1_555 1_555
O5 C16 1_555 1_555
C16 O4 1_555 1_555
C17 C16 1_555 1_555
H18 C17 1_555 1_555
O6 Cu1 1_555 1_555
H19 O6 1_555 1_555
C18 C17 1_555 1_555
H20 C18 1_555 1_555
C19 C18 1_555 1_555
H21 C19 1_555 1_555
H22 C19 1_555 1_555
H23 C19 1_555 1_555
C20 C18 1_555 1_555
H24 C20 1_555 1_555
H25 C20 1_555 1_555
H26 C20 1_555 1_555
Cu2 N3 1_555 1_555
N3 C21 1_555 1_555
C21 H27 1_555 1_555
C22 C21 1_555 1_555
H28 C22 1_555 1_555
C23 C22 1_555 1_555
C24 C23 1_555 1_555
H29 C24 1_555 1_555
C25 N3 1_555 1_555
H30 C25 1_555 1_555
N4 C26 1_555 1_555
C26 H31 1_555 1_555
C27 C26 1_555 1_555
H32 C27 1_555 1_555
C28 C23 1_555 1_555
C29 C28 1_555 1_555
H33 C29 1_555 1_555
C30 N4 1_555 1_555
H34 C30 1_555 1_555
O7 Cu2 1_555 1_555
O8 C31 1_555 1_555
C31 O7 1_555 1_555
C32 C31 1_555 1_555
H35 C32 1_555 1_555
O9 Cu2 1_555 1_555
H36 O12 1_555 1_555
C33 C32 1_555 1_555
H37 C33 1_555 1_555
C34 C33 1_555 1_555
H38 C34 1_555 1_555
H39 C34 1_555 1_555
H40 C34 1_555 1_555
C35 C33 1_555 1_555
H41 C35 1_555 1_555
H42 C35 1_555 1_555
H43 C35 1_555 1_555
O10 Cu2 1_555 1_555
C36 O10 1_555 1_555
O11 C36 1_555 1_555
C37 C36 1_555 1_555
H44 C37 1_555 1_555
O12 Cu2 1_555 1_555
H45 O9 1_555 1_555
C38 C37 1_555 1_555
H46 C38 1_555 1_555
C39 C38 1_555 1_555
H47 C39 1_555 1_555
H48 C39 1_555 1_555
H49 C39 1_555 1_555
C40 C38 1_555 1_555
H50 C40 1_555 1_555
H51 C40 1_555 1_555
H52 C40 1_555 1_555
Cu1_2 N2 1_555 1_555
N2_2 Cu1 1_555 1_555
Cu2_2 N4 1_555 1_555
N4_2 Cu2 1_555 1_555
C4 C5 1_555 1_555
C7 C9 1_555 1_555
C8 C9 1_555 1_555
C8 C10 1_555 1_555
C12 O3 1_555 1_555
C17 O6 1_555 1_555
C24 C25 1_555 1_555
C27 C28 1_555 1_555
C29 C30 1_555 1_555
C32 O9 1_555 1_555
C37 O12 1_555 1_555

#END
