
#######################################################################
#
#                 Cambridge Crystallographic Data Centre
#                                CCDC 
#
#######################################################################
#
# If this CIF has been generated from an entry in the Cambridge 
# Structural Database, then it will include bibliographic, chemical, 
# crystal, experimental, refinement or atomic coordinate data resulting 
# from the CCDC's data processing and validation procedures.
#
#######################################################################

data_GUHHEY
_symmetry_cell_setting           monoclinic
_symmetry_space_group_name_H-M   'P 21/c'
_symmetry_Int_Tables_number      14
_space_group_name_Hall           '-P 2ybc'
loop_
_symmetry_equiv_pos_site_id
_symmetry_equiv_pos_as_xyz
1 x,y,z
2 -x,1/2+y,1/2-z
3 -x,-y,-z
4 x,1/2-y,1/2+z
_cell_length_a                   17.105(4)
_cell_length_b                   4.7827(9)
_cell_length_c                   13.015(3)
_cell_angle_alpha                90
_cell_angle_beta                 112.19(3)
_cell_angle_gamma                90
_cell_volume                     985.874
loop_
_atom_site_label
_atom_site_type_symbol
_atom_site_fract_x
_atom_site_fract_y
_atom_site_fract_z
Zn1 Zn 0.05575(3) 0.28980(8) -0.07528(3)
O1 O 0.10866(19) 0.3162(6) 0.0842(2)
O2 O 0.06020(16) 0.6455(6) 0.1658(2)
O3 O 0.07462(16) 0.6069(5) 0.40301(19)
O4 O 0.13108(16) 0.9976(5) 0.37423(19)
C1 C 0.1141(2) 0.4706(7) 0.1646(3)
C2 C 0.1285(3) 0.7335(7) 0.3781(3)
C3 C 0.1924(2) 0.4459(7) 0.2662(3)
C4 C 0.1999(2) 0.5780(7) 0.3634(3)
C5 C 0.2766(2) 0.5644(7) 0.4584(3)
C6 C 0.2893(3) 0.7106(8) 0.5580(3)
H1 H 0.2458 0.8175 0.5638
C7 C 0.3644(3) 0.6963(10) 0.6450(4)
H2 H 0.3721 0.7984 0.7089
C8 C 0.4298(3) 0.5331(11) 0.6407(4)
H3 H 0.4804 0.5241 0.7017
C9 C 0.4201(3) 0.3846(11) 0.5466(4)
H4 H 0.4640 0.2732 0.5446
C10 C 0.3436(2) 0.3992(9) 0.4524(3)
C11 C 0.3331(3) 0.2583(9) 0.3533(4)
H5 H 0.3766 0.1471 0.3494
C12 C 0.2601(3) 0.2832(8) 0.2631(4)
H6 H 0.2548 0.1910 0.1978
Zn1B Zn -0.05575(3) 0.71020(8) 0.07528(3)
Zn1C Zn 0.05575(3) 0.21020(8) 0.42472(3)
Zn1C_2 Zn 0.05575(3) 1.21020(8) 0.42472(3)
O2B O -0.06020(16) 0.3545(6) -0.1658(2)
O3C O 0.07462(16) -0.1069(5) -0.09699(19)
O4C O 0.13108(16) 0.5024(5) -0.12577(19)
loop_
_geom_bond_atom_site_label_1
_geom_bond_atom_site_label_2
_geom_bond_site_symmetry_1
_geom_bond_site_symmetry_2
Zn1 O1 1_555 1_555
O1 C1 1_555 1_555
O2 C1 1_555 1_555
O3 C2 1_555 1_555
O4 C2 1_555 1_555
C1 C3 1_555 1_555
C2 C4 1_555 1_555
C3 C4 1_555 1_555
C4 C5 1_555 1_555
C5 C6 1_555 1_555
C6 H1 1_555 1_555
C7 C6 1_555 1_555
H2 C7 1_555 1_555
C8 C7 1_555 1_555
H3 C8 1_555 1_555
C9 C8 1_555 1_555
H4 C9 1_555 1_555
C10 C5 1_555 1_555
C11 C10 1_555 1_555
H5 C11 1_555 1_555
C12 C3 1_555 1_555
H6 C12 1_555 1_555
Zn1B O2 1_555 1_555
Zn1C O3 1_555 1_555
Zn1C_2 O4 1_555 1_555
O2B Zn1 1_555 1_555
O3C Zn1 1_555 1_555
O4C Zn1 1_555 1_555
C9 C10 1_555 1_555
C11 C12 1_555 1_555

#END
