
#######################################################################
#
#                 Cambridge Crystallographic Data Centre
#                                CCDC 
#
#######################################################################
#
# If this CIF has been generated from an entry in the Cambridge 
# Structural Database, then it will include bibliographic, chemical, 
# crystal, experimental, refinement or atomic coordinate data resulting 
# from the CCDC's data processing and validation procedures.
#
#######################################################################

data_GUHLAX
_symmetry_cell_setting           orthorhombic
_symmetry_space_group_name_H-M   'P b c a'
_symmetry_Int_Tables_number      61
_space_group_name_Hall           '-P 2ac 2ab'
loop_
_symmetry_equiv_pos_site_id
_symmetry_equiv_pos_as_xyz
1 x,y,z
2 1/2-x,-y,1/2+z
3 -x,1/2+y,1/2-z
4 1/2+x,1/2-y,-z
5 -x,-y,-z
6 1/2+x,y,1/2-z
7 x,1/2-y,1/2+z
8 1/2-x,1/2+y,z
_cell_length_a                   11.3899(11)
_cell_length_b                   10.7726(10)
_cell_length_c                   13.2541(12)
_cell_angle_alpha                90
_cell_angle_beta                 90
_cell_angle_gamma                90
_cell_volume                     1626.26
loop_
_atom_site_label
_atom_site_type_symbol
_atom_site_fract_x
_atom_site_fract_y
_atom_site_fract_z
Cu1 Cu 0.44876(4) -0.54593(5) 0.74966(4)
Mo1 Mo 0.30799(3) -0.24391(3) 0.22785(2)
O1 O 0.3341(3) -0.7092(3) 0.7599(3)
O2 O 0.3233(3) -0.2428(3) 0.0966(2)
O3 O 0.3369(3) -0.0911(3) 0.2731(2)
O4 O 0.4107(3) -0.3505(3) 0.2761(2)
N1 N 0.5133(3) -0.4482(3) 0.1015(3)
H1 H 0.477 -0.374 0.090
N2 N 0.4505(3) -0.5039(3) 0.6013(3)
H2 H 0.389 -0.452 0.590
C1 C 0.6135(4) -0.4556(5) 0.0304(3)
H3 H 0.6661 -0.3863 0.0426
H4 H 0.6568 -0.5316 0.0429
C2 C 0.5738(4) -0.4531(4) -0.0791(3)
H5 H 0.4606 -0.6272 0.0939
H6 H 0.3584 -0.5362 0.1226
C3 C 0.5597(4) -0.4339(4) 0.5781(3)
H7 H 0.6272 -0.4864 0.5911
H8 H 0.5650 -0.3622 0.6221
C4 C 0.4377(4) -0.6089(4) 0.5311(3)
H9 H 0.5009 -0.6676 0.5424
H10 H 0.3641 -0.6510 0.5443
Cu1A Cu 0.05124(4) -0.45407(5) 0.24966(4)
Cu1F Cu 0.44876(4) 0.04593(5) 0.24966(4)
Cu1D Cu 0.55124(4) -0.45407(5) 0.25034(4)
Cu1_2 Cu 0.44876(4) -0.54593(5) -0.25034(4)
Mo1A Mo 0.19201(3) -0.75609(3) 0.72785(2)
Mo1E Mo 0.80799(3) -0.24391(3) 0.27215(2)
Mo1B Mo 0.69201(3) -0.74391(3) 0.27215(2)
O1A O 0.1659(3) -0.2908(3) 0.2599(3)
O1D O 0.6659(3) -0.2908(3) 0.2401(3)
O1C O 0.8341(3) -0.7908(3) 0.2401(3)
O2B O 0.6767(3) -0.7428(3) 0.4034(2)
O3F O 0.3369(3) -0.4089(3) 0.7731(2)
O3B O 0.6631(3) -0.5911(3) 0.2269(2)
O4B O 0.5893(3) -0.8505(3) 0.2239(2)
O4D O 0.5893(3) -0.6495(3) 0.7239(2)
N1D N 0.4867(3) -0.5518(3) 0.8985(3)
N1D_2 N 0.4867(3) -0.5518(3) -0.1015(3)
H1D H 0.523 -0.626 0.910
H1D_2 H 0.523 -0.626 -0.090
N2D N 0.5495(3) -0.4961(3) 0.3987(3)
H2D H 0.611 -0.548 0.410
C1D C 0.3865(4) -0.5444(5) -0.0304(3)
H3D H 0.3339 -0.6137 -0.0426
H4D H 0.3432 -0.4684 -0.0429
C2D C 0.4262(4) -0.5469(4) 0.0791(3)
H5D H 0.5394 -0.3728 -0.0939
H6D H 0.6416 -0.4638 -0.1226
C3D C 0.4403(4) -0.5661(4) 0.4219(3)
H7D H 0.3728 -0.5136 0.4089
H8D H 0.4350 -0.6378 0.3779
C4D C 0.5623(4) -0.3911(4) 0.4689(3)
H9D H 0.4991 -0.3324 0.4576
H10D H 0.6359 -0.3490 0.4557
loop_
_geom_bond_atom_site_label_1
_geom_bond_atom_site_label_2
_geom_bond_site_symmetry_1
_geom_bond_site_symmetry_2
Cu1 O1 1_555 1_555
Mo1 O2 1_555 1_555
O1 Mo1A 1_555 1_555
O3 Mo1 1_555 1_555
O4 Mo1 1_555 1_555
N1 H1 1_555 1_555
N2 Cu1 1_555 1_555
H2 N2 1_555 1_555
C1 N1 1_555 1_555
H3 C1 1_555 1_555
H4 C1 1_555 1_555
C2 C1 1_555 1_555
H5 C2D 1_555 1_555
H6 C2D 1_555 1_555
C3 N2 1_555 1_555
H7 C3 1_555 1_555
H8 C3 1_555 1_555
C4 N2 1_555 1_555
H9 C4 1_555 1_555
H10 C4 1_555 1_555
Cu1A O1A 1_555 1_555
Cu1F O3 1_555 1_555
Cu1D O4 1_555 1_555
Cu1_2 N1D_2 1_555 1_555
Mo1E O1D 1_555 1_555
Mo1B O1C 1_555 1_555
O1A Mo1 1_555 1_555
O1D Cu1D 1_555 1_555
O2B Mo1B 1_555 1_555
O3F Cu1 1_555 1_555
O3B Cu1D 1_555 1_555
O4B Mo1B 1_555 1_555
O4D Cu1 1_555 1_555
N1D Cu1 1_555 1_555
N1D_2 C2 1_555 1_555
H1D N1D 1_555 1_555
H1D_2 N1D_2 1_555 1_555
N2D Cu1D 1_555 1_555
H2D N2D 1_555 1_555
C1D N1D_2 1_555 1_555
H3D C1D 1_555 1_555
H4D C1D 1_555 1_555
C2D N1 1_555 1_555
H5D C2 1_555 1_555
H6D C2 1_555 1_555
C3D C4 1_555 1_555
H7D C3D 1_555 1_555
H8D C3D 1_555 1_555
C4D C3 1_555 1_555
H9D C4D 1_555 1_555
H10D C4D 1_555 1_555
N1 Cu1D 1_555 1_555
Mo1B O3B 1_555 1_555
N2D C3D 1_555 1_555
N2D C4D 1_555 1_555
C1D C2D 1_555 1_555

#END
