
#######################################################################
#
#                 Cambridge Crystallographic Data Centre
#                                CCDC 
#
#######################################################################
#
# If this CIF has been generated from an entry in the Cambridge 
# Structural Database, then it will include bibliographic, chemical, 
# crystal, experimental, refinement or atomic coordinate data resulting 
# from the CCDC's data processing and validation procedures.
#
#######################################################################

data_GUJCEU
_symmetry_cell_setting           triclinic
_symmetry_space_group_name_H-M   'P -1'
_symmetry_Int_Tables_number      2
_space_group_name_Hall           '-P 1'
loop_
_symmetry_equiv_pos_site_id
_symmetry_equiv_pos_as_xyz
1 x,y,z
2 -x,-y,-z
_cell_length_a                   12.2609(14)
_cell_length_b                   13.1835(14)
_cell_length_c                   13.6532(15)
_cell_angle_alpha                71.692(2)
_cell_angle_beta                 69.016(2)
_cell_angle_gamma                65.056(2)
_cell_volume                     1833.35
loop_
_atom_site_label
_atom_site_type_symbol
_atom_site_fract_x
_atom_site_fract_y
_atom_site_fract_z
Ag1 Ag 0.5000 0.0000 0.0000
Ag2 Ag 0.68325(5) 0.37606(4) 0.24460(3)
Ag3 Ag 0.81324(4) 0.11913(4) 0.21613(3)
N1 N 0.6842(5) 0.4096(4) 0.0776(4)
N2 N 0.6636(5) 0.3827(4) -0.5927(4)
N3 N 0.8481(4) 0.1176(4) 0.0494(3)
N4 N 0.8200(5) 0.0971(4) -0.6205(4)
O1 O 0.4258(4) 0.0439(3) 0.1560(3)
O2 O 0.4379(4) 0.2149(4) 0.0682(3)
O3 O 0.5990(4) 0.0921(4) 0.2575(4)
O4 O 0.5602(4) 0.2451(4) 0.3164(3)
O5 O -0.0092(4) 0.3746(5) 0.5483(4)
O6 O 0.0522(5) 0.5576(3) 0.8018(3)
O7 O 0.0623(4) 0.4242(3) 0.9483(3)
O8 O 0.2491(4) 0.1661(4) 0.9861(3)
O9 O 0.3519(4) 0.2852(4) 0.8983(3)
H1 H 0.3705 0.2687 0.9548
C1 C 0.4092(5) 0.1466(5) 0.1504(4)
C2 C 0.3335(5) 0.1931(4) 0.2524(4)
C3 C 0.2065(6) 0.2279(4) 0.2755(4)
H2 H 0.1701 0.2223 0.2291
C4 C 0.1319(5) 0.2712(4) 0.3666(4)
H3 H 0.0458 0.2958 0.3797
C5 C 0.1824(5) 0.2791(4) 0.4400(4)
C6 C 0.3119(5) 0.2499(4) 0.4108(4)
H4 H 0.3479 0.2597 0.4551
C7 C 0.3899(5) 0.2068(4) 0.3188(4)
C8 C 0.5280(5) 0.1786(4) 0.2956(4)
C9 C 0.1016(5) 0.3229(5) 0.5375(4)
C10 C 0.1524(5) 0.3008(4) 0.6307(4)
C11 C 0.2430(5) 0.1979(4) 0.6611(4)
H5 H 0.2765 0.1414 0.6208
C12 C 0.2836(5) 0.1782(5) 0.7487(4)
H6 H 0.3459 0.1102 0.7663
C13 C 0.2298(5) 0.2624(4) 0.8122(4)
C14 C 0.1405(5) 0.3659(4) 0.7821(4)
C15 C 0.1021(5) 0.3832(4) 0.6929(4)
H7 H 0.0410 0.4517 0.6740
C16 C 0.0821(5) 0.4582(5) 0.8468(4)
C17 C 0.2759(6) 0.2339(4) 0.9083(4)
C18 C 0.6205(6) 0.3632(5) 0.0534(4)
H8 H 0.5776 0.3204 0.1088
C19 C 0.6155(5) 0.3756(4) -0.0479(4)
H9 H 0.5702 0.3415 -0.0605
C20 C 0.6771(5) 0.4382(4) -0.1309(4)
C21 C 0.7413(6) 0.4878(5) -0.1047(4)
H10 H 0.7841 0.5318 -0.1586
C22 C 0.7422(6) 0.4728(5) -0.0018(5)
H11 H 0.7846 0.5079 0.0133
C23 C 0.7315(6) 0.4249(5) -0.5689(4)
H12 H 0.7907 0.4499 -0.6248
C24 C 0.7195(5) 0.4335(5) -0.4694(4)
H13 H 0.7689 0.4640 -0.4580
C25 C 0.6312(5) 0.3956(4) -0.3830(4)
C26 C 0.6135(5) 0.3943(5) -0.2664(4)
H14 H 0.5253 0.4290 -0.2344
H15 H 0.6396 0.3155 -0.2295
C27 C 0.6823(6) 0.4540(5) -0.2468(4)
H16 H 0.6480 0.5349 -0.2748
H17 H 0.7689 0.4267 -0.2867
C28 C 0.5607(5) 0.3521(5) -0.4075(4)
H18 H 0.5002 0.3270 -0.3535
C29 C 0.5805(6) 0.3460(5) -0.5117(4)
H19 H 0.5337 0.3149 -0.5260
C30 C 0.7409(6) 0.0583(5) -0.5401(4)
H20 H 0.6882 0.0338 -0.5544
C31 C 0.7326(6) 0.0522(4) -0.4354(4)
H21 H 0.6750 0.0243 -0.3804
C32 C 0.8105(5) 0.0880(4) -0.4118(4)
C33 C 0.8935(5) 0.1285(5) -0.4980(4)
H22 H 0.9479 0.1533 -0.4868
C34 C 0.8954(6) 0.1319(5) -0.5987(4)
H23 H 0.9517 0.1597 -0.6555
C35 C 0.7837(6) 0.0725(5) 0.0245(4)
H24 H 0.7303 0.0398 0.0799
C36 C 0.7927(6) 0.0722(5) -0.0780(4)
H25 H 0.7468 0.0393 -0.0911
C37 C 0.8704(5) 0.1212(4) -0.1626(4)
C38 C 0.8841(5) 0.1260(5) -0.2774(4)
H26 H 0.9700 0.0833 -0.3092
H27 H 0.8671 0.2047 -0.3147
C39 C 0.8003(6) 0.0798(5) -0.2954(4)
H28 H 0.7146 0.1207 -0.2614
H29 H 0.8193 0.0003 -0.2601
C40 C 0.9342(6) 0.1670(5) -0.1348(5)
H30 H 0.9874 0.2013 -0.1886
C41 C 0.9222(6) 0.1638(5) -0.0317(5)
H31 H 0.9683 0.1955 -0.0171
Ag2A Ag 0.31675(5) -0.37606(4) -0.24460(3)
Ag2_2 Ag 0.68325(5) 0.37606(4) -0.75540(3)
Ag2A_2 Ag 0.31675(5) -0.37606(4) 0.75540(3)
Ag3A Ag 0.18676(4) -0.11913(4) -0.21613(3)
Ag3_2 Ag 0.81324(4) 0.11913(4) -0.78387(3)
Ag3A_2 Ag 0.18676(4) -0.11913(4) 0.78387(3)
N1A N 0.3158(5) -0.4096(4) -0.0776(4)
N2_2 N 0.6636(5) 0.3827(4) 0.4073(4)
N2A N 0.3364(5) -0.3827(4) -0.4073(4)
N2A_2 N 0.3364(5) -0.3827(4) 0.5927(4)
N3A N 0.1519(4) -0.1176(4) -0.0494(3)
N4_2 N 0.8200(5) 0.0971(4) 0.3795(4)
N4A N 0.1800(5) -0.0971(4) -0.3795(4)
N4A_2 N 0.1800(5) -0.0971(4) 0.6205(4)
O1A O 0.5742(4) -0.0439(3) -0.1560(3)
O2A O 0.5621(4) -0.2149(4) -0.0682(3)
O3A O 0.4010(4) -0.0921(4) -0.2575(4)
O4A O 0.4398(4) -0.2451(4) -0.3164(3)
O5A O 1.0092(4) -0.3746(5) -0.5483(4)
O6A O 0.9478(5) -0.5576(3) -0.8018(3)
O7A O 0.9377(4) -0.4242(3) -0.9483(3)
O8A O 0.7509(4) -0.1661(4) -0.9861(3)
O9A O 0.6481(4) -0.2852(4) -0.8983(3)
H1A H 0.6295 -0.2687 -0.9548
C1A C 0.5908(5) -0.1466(5) -0.1504(4)
C2A C 0.6665(5) -0.1931(4) -0.2524(4)
C3A C 0.7935(6) -0.2279(4) -0.2755(4)
H2A H 0.8299 -0.2223 -0.2291
C4A C 0.8681(5) -0.2712(4) -0.3666(4)
H3A H 0.9542 -0.2958 -0.3797
C5A C 0.8176(5) -0.2791(4) -0.4400(4)
C6A C 0.6881(5) -0.2499(4) -0.4108(4)
H4A H 0.6521 -0.2597 -0.4551
C7A C 0.6101(5) -0.2068(4) -0.3188(4)
C8A C 0.4720(5) -0.1786(4) -0.2956(4)
C9A C 0.8984(5) -0.3229(5) -0.5375(4)
C10A C 0.8476(5) -0.3008(4) -0.6307(4)
C11A C 0.7570(5) -0.1979(4) -0.6611(4)
H5A H 0.7235 -0.1414 -0.6208
C12A C 0.7164(5) -0.1782(5) -0.7487(4)
H6A H 0.6541 -0.1102 -0.7663
C13A C 0.7702(5) -0.2624(4) -0.8122(4)
C14A C 0.8595(5) -0.3659(4) -0.7821(4)
C15A C 0.8979(5) -0.3832(4) -0.6929(4)
H7A H 0.9590 -0.4517 -0.6740
C16A C 0.9179(5) -0.4582(5) -0.8468(4)
C17A C 0.7241(6) -0.2339(4) -0.9083(4)
C18A C 0.3795(6) -0.3632(5) -0.0534(4)
H8A H 0.4224 -0.3204 -0.1088
C19A C 0.3845(5) -0.3756(4) 0.0479(4)
H9A H 0.4298 -0.3415 0.0605
C20A C 0.3229(5) -0.4382(4) 0.1309(4)
C21A C 0.2587(6) -0.4878(5) 0.1047(4)
H10A H 0.2159 -0.5318 0.1586
C22A C 0.2578(6) -0.4728(5) 0.0018(5)
H11A H 0.2154 -0.5079 -0.0133
C23A C 0.2685(6) -0.4249(5) 0.5689(4)
H12A H 0.2093 -0.4499 0.6248
C24A C 0.2805(5) -0.4335(5) 0.4694(4)
H13A H 0.2311 -0.4640 0.4580
C25A C 0.3688(5) -0.3956(4) 0.3830(4)
C26A C 0.3865(5) -0.3943(5) 0.2664(4)
H14A H 0.4747 -0.4290 0.2344
H15A H 0.3604 -0.3155 0.2295
C27A C 0.3177(6) -0.4540(5) 0.2468(4)
H16A H 0.3520 -0.5349 0.2748
H17A H 0.2311 -0.4267 0.2867
C28A C 0.4393(5) -0.3521(5) 0.4075(4)
H18A H 0.4998 -0.3270 0.3535
C29A C 0.4195(6) -0.3460(5) 0.5117(4)
H19A H 0.4663 -0.3149 0.5260
C30A C 0.2591(6) -0.0583(5) 0.5401(4)
H20A H 0.3118 -0.0338 0.5544
C31A C 0.2674(6) -0.0522(4) 0.4354(4)
H21A H 0.3250 -0.0243 0.3804
C32A C 0.1895(5) -0.0880(4) 0.4118(4)
C33A C 0.1065(5) -0.1285(5) 0.4980(4)
H22A H 0.0521 -0.1533 0.4868
C34A C 0.1046(6) -0.1319(5) 0.5987(4)
H23A H 0.0483 -0.1597 0.6555
C35A C 0.2163(6) -0.0725(5) -0.0245(4)
H24A H 0.2697 -0.0398 -0.0799
C36A C 0.2073(6) -0.0722(5) 0.0780(4)
H25A H 0.2532 -0.0393 0.0911
C37A C 0.1296(5) -0.1212(4) 0.1626(4)
C38A C 0.1159(5) -0.1260(5) 0.2774(4)
H26A H 0.0300 -0.0833 0.3092
H27A H 0.1329 -0.2047 0.3147
C39A C 0.1997(6) -0.0798(5) 0.2954(4)
H28A H 0.2854 -0.1207 0.2614
H29A H 0.1807 -0.0003 0.2601
C40A C 0.0658(6) -0.1670(5) 0.1348(5)
H30A H 0.0126 -0.2013 0.1886
C41A C 0.0778(6) -0.1638(5) 0.0317(5)
H31A H 0.0317 -0.1955 0.0171
O10 O 0.0057(6) 0.2294(4) 0.1478(4)
H32 H 0.053(10) 0.217(5) 0.088(4)
H33 H -0.031(5) 0.2986(14) 0.145(4)
loop_
_geom_bond_atom_site_label_1
_geom_bond_atom_site_label_2
_geom_bond_site_symmetry_1
_geom_bond_site_symmetry_2
Ag1 O1 1_555 1_555
Ag2 Ag3 1_555 1_555
Ag3 N3 1_555 1_555
N1 Ag2 1_555 1_555
N2 C23 1_555 1_555
N3 C35 1_555 1_555
N4 C30 1_555 1_555
O1 C1 1_555 1_555
O2 C1 1_555 1_555
O3 Ag3 1_555 1_555
O4 Ag2 1_555 1_555
O5 C9 1_555 1_555
O6 C16 1_555 1_555
O7 C16 1_555 1_555
O8 C17 1_555 1_555
O9 H1 1_555 1_555
O10 H32 1_555 1_555
C1 C2 1_555 1_555
C2 C3 1_555 1_555
C3 H2 1_555 1_555
C4 C3 1_555 1_555
H3 C4 1_555 1_555
C5 C4 1_555 1_555
C6 C5 1_555 1_555
H4 C6 1_555 1_555
C7 C2 1_555 1_555
C8 O3 1_555 1_555
C9 C5 1_555 1_555
C10 C9 1_555 1_555
C11 C10 1_555 1_555
H5 C11 1_555 1_555
C12 C11 1_555 1_555
H6 C12 1_555 1_555
C13 C12 1_555 1_555
C14 C13 1_555 1_555
C15 C10 1_555 1_555
H7 C15 1_555 1_555
C16 C14 1_555 1_555
C17 O9 1_555 1_555
C18 N1 1_555 1_555
H8 C18 1_555 1_555
C19 C18 1_555 1_555
H9 C19 1_555 1_555
C20 C19 1_555 1_555
C21 C20 1_555 1_555
H10 C21 1_555 1_555
C22 N1 1_555 1_555
H11 C22 1_555 1_555
C23 H12 1_555 1_555
C24 C23 1_555 1_555
H13 C24 1_555 1_555
C25 C24 1_555 1_555
C26 C25 1_555 1_555
H14 C26 1_555 1_555
H15 C26 1_555 1_555
C27 C20 1_555 1_555
H16 C27 1_555 1_555
H17 C27 1_555 1_555
C28 C25 1_555 1_555
H18 C28 1_555 1_555
C29 N2 1_555 1_555
H19 C29 1_555 1_555
C30 H20 1_555 1_555
C31 C30 1_555 1_555
H21 C31 1_555 1_555
C32 C31 1_555 1_555
C33 C32 1_555 1_555
H22 C33 1_555 1_555
C34 N4 1_555 1_555
H23 C34 1_555 1_555
C35 H24 1_555 1_555
C36 C35 1_555 1_555
H25 C36 1_555 1_555
C37 C36 1_555 1_555
C38 C37 1_555 1_555
H26 C38 1_555 1_555
H27 C38 1_555 1_555
C39 C32 1_555 1_555
H28 C39 1_555 1_555
H29 C39 1_555 1_555
C40 C37 1_555 1_555
H30 C40 1_555 1_555
C41 N3 1_555 1_555
H31 C41 1_555 1_555
H33 O10 1_555 1_555
Ag2A Ag3A 1_555 1_555
Ag2_2 N2 1_555 1_555
Ag2A_2 Ag3A_2 1_555 1_555
Ag3A N3A 1_555 1_555
Ag3_2 N4 1_555 1_555
Ag3A_2 N4A_2 1_555 1_555
N1A Ag2A 1_555 1_555
N2_2 Ag2 1_555 1_555
N2A Ag2A 1_555 1_555
N2A_2 Ag2A_2 1_555 1_555
N3A C35A 1_555 1_555
N4_2 Ag3 1_555 1_555
N4A Ag3A 1_555 1_555
N4A_2 C30A 1_555 1_555
O1A Ag1 1_555 1_555
O2A C1A 1_555 1_555
O3A Ag3A 1_555 1_555
O4A Ag2A 1_555 1_555
O5A C9A 1_555 1_555
O6A C16A 1_555 1_555
O7A C16A 1_555 1_555
O8A C17A 1_555 1_555
O9A H1A 1_555 1_555
C1A O1A 1_555 1_555
C2A C1A 1_555 1_555
C3A C2A 1_555 1_555
H2A C3A 1_555 1_555
C4A C3A 1_555 1_555
H3A C4A 1_555 1_555
C5A C4A 1_555 1_555
C6A C5A 1_555 1_555
H4A C6A 1_555 1_555
C7A C2A 1_555 1_555
C8A O3A 1_555 1_555
C9A C5A 1_555 1_555
C10A C9A 1_555 1_555
C11A C10A 1_555 1_555
H5A C11A 1_555 1_555
C12A C11A 1_555 1_555
H6A C12A 1_555 1_555
C13A C12A 1_555 1_555
C14A C13A 1_555 1_555
C15A C10A 1_555 1_555
H7A C15A 1_555 1_555
C16A C14A 1_555 1_555
C17A O9A 1_555 1_555
C18A N1A 1_555 1_555
H8A C18A 1_555 1_555
C19A C18A 1_555 1_555
H9A C19A 1_555 1_555
C20A C19A 1_555 1_555
C21A C20A 1_555 1_555
H10A C21A 1_555 1_555
C22A N1A 1_555 1_555
H11A C22A 1_555 1_555
C23A N2A_2 1_555 1_555
H12A C23A 1_555 1_555
C24A C23A 1_555 1_555
H13A C24A 1_555 1_555
C25A C24A 1_555 1_555
C26A C25A 1_555 1_555
H14A C26A 1_555 1_555
H15A C26A 1_555 1_555
C27A C20A 1_555 1_555
H16A C27A 1_555 1_555
H17A C27A 1_555 1_555
C28A C25A 1_555 1_555
H18A C28A 1_555 1_555
C29A N2A_2 1_555 1_555
H19A C29A 1_555 1_555
C30A H20A 1_555 1_555
C31A C30A 1_555 1_555
H21A C31A 1_555 1_555
C32A C31A 1_555 1_555
C33A C32A 1_555 1_555
H22A C33A 1_555 1_555
C34A N4A_2 1_555 1_555
H23A C34A 1_555 1_555
C35A H24A 1_555 1_555
C36A C35A 1_555 1_555
H25A C36A 1_555 1_555
C37A C36A 1_555 1_555
C38A C37A 1_555 1_555
H26A C38A 1_555 1_555
H27A C38A 1_555 1_555
C39A C32A 1_555 1_555
H28A C39A 1_555 1_555
H29A C39A 1_555 1_555
C40A C37A 1_555 1_555
H30A C40A 1_555 1_555
C41A N3A 1_555 1_555
H31A C41A 1_555 1_555
O4 C8 1_555 1_555
C6 C7 1_555 1_555
C7 C8 1_555 1_555
C13 C17 1_555 1_555
C14 C15 1_555 1_555
C21 C22 1_555 1_555
C26 C27 1_555 1_555
C28 C29 1_555 1_555
C33 C34 1_555 1_555
C38 C39 1_555 1_555
C40 C41 1_555 1_555
Ag2_2 Ag3_2 1_555 1_555
O4A C8A 1_555 1_555
C6A C7A 1_555 1_555
C7A C8A 1_555 1_555
C13A C17A 1_555 1_555
C14A C15A 1_555 1_555
C21A C22A 1_555 1_555
C26A C27A 1_555 1_555
C28A C29A 1_555 1_555
C33A C34A 1_555 1_555
C38A C39A 1_555 1_555
C40A C41A 1_555 1_555

#END
