
#######################################################################
#
#                 Cambridge Crystallographic Data Centre
#                                CCDC 
#
#######################################################################
#
# If this CIF has been generated from an entry in the Cambridge 
# Structural Database, then it will include bibliographic, chemical, 
# crystal, experimental, refinement or atomic coordinate data resulting 
# from the CCDC's data processing and validation procedures.
#
#######################################################################

data_GUJDUL
_symmetry_cell_setting           monoclinic
_symmetry_space_group_name_H-M   'P 21/c'
_symmetry_Int_Tables_number      14
_space_group_name_Hall           '-P 2ybc'
loop_
_symmetry_equiv_pos_site_id
_symmetry_equiv_pos_as_xyz
1 x,y,z
2 -x,1/2+y,1/2-z
3 -x,-y,-z
4 x,1/2-y,1/2+z
_cell_length_a                   11.159(2)
_cell_length_b                   30.345(6)
_cell_length_c                   9.6387(19)
_cell_angle_alpha                90
_cell_angle_beta                 103.26(3)
_cell_angle_gamma                90
_cell_volume                     3176.84
loop_
_atom_site_label
_atom_site_type_symbol
_atom_site_fract_x
_atom_site_fract_y
_atom_site_fract_z
C1 C -0.1783(5) 0.91272(15) 0.3515(5)
C2 C -0.2055(5) 0.86593(15) 0.3761(5)
C3 C -0.3239(6) 0.85238(16) 0.3728(6)
H1 H -0.3884 0.8724 0.3490
C4 C -0.3480(6) 0.80910(17) 0.4046(6)
H2 H -0.4280 0.8004 0.4040
C5 C -0.2539(6) 0.77946(16) 0.4366(6)
C6 C -0.1344(6) 0.79162(17) 0.4380(6)
H3 H -0.0709 0.7711 0.4587
C7 C -0.1111(6) 0.83523(16) 0.4079(6)
H4 H -0.0309 0.8439 0.4091
C8 C -0.2417(6) 0.69980(15) 0.4373(6)
C9 C -0.2131(6) 0.69529(17) 0.3073(6)
H5 H -0.2127 0.7196 0.2487
C10 C -0.1849(6) 0.65349(17) 0.2650(6)
H6 H -0.1648 0.6500 0.1771
C11 C -0.1858(5) 0.61713(15) 0.3503(5)
C12 C -0.2175(8) 0.62303(18) 0.4791(7)
H7 H -0.2202 0.5988 0.5376
C13 C -0.2453(8) 0.66421(19) 0.5224(7)
H8 H -0.2666 0.6678 0.6095
C14 C -0.1569(6) 0.57293(17) 0.3014(6)
C15 C 0.2026(6) 0.89774(15) 0.7004(5)
C16 C 0.2439(5) 0.85195(15) 0.7510(5)
C17 C 0.1563(6) 0.81899(17) 0.7408(6)
H9 H 0.0736 0.8255 0.7043
C18 C 0.1905(6) 0.77633(17) 0.7845(7)
H10 H 0.1313 0.7544 0.7790
C19 C 0.3123(6) 0.76703(16) 0.8356(6)
C20 C 0.4006(6) 0.79900(17) 0.8482(6)
H11 H 0.4830 0.7922 0.8853
C21 C 0.3658(6) 0.84166(17) 0.8049(6)
H12 H 0.4254 0.8635 0.8124
C22 C 0.2990(6) 0.68751(16) 0.8202(6)
C23 C 0.2545(9) 0.6841(2) 0.6769(7)
H13 H 0.2538 0.7085 0.6187
C24 C 0.2106(9) 0.64433(19) 0.6187(6)
H14 H 0.1802 0.6422 0.5206
C25 C 0.2105(6) 0.60755(16) 0.7021(5)
C26 C 0.2557(8) 0.61194(19) 0.8455(6)
H15 H 0.2573 0.5875 0.9041
C27 C 0.2996(8) 0.65222(19) 0.9061(6)
H16 H 0.3289 0.6548 1.0042
C28 C 0.1670(6) 0.56413(17) 0.6341(6)
C29 C 0.4808(6) 1.03175(17) 0.9041(6)
H17 H 0.4701 1.0547 0.8386
C30 C 0.5778(6) 1.03401(18) 1.0225(6)
H18 H 0.6297 1.0584 1.0344
C31 C 0.4982(6) 0.96803(17) 0.5914(6)
H19 H 0.4993 0.9449 0.6550
C32 C 0.5946(6) 0.97173(18) 0.5245(6)
H20 H 0.6590 0.9516 0.5450
Co1 Co -0.00846(7) 0.95685(2) 0.57913(7)
Co2 Co 0.25946(7) 0.99388(2) 0.68128(7)
H21 H -0.131(7) 1.0222(18) 0.576(4)
N1 N 0.4015(4) 0.99803(13) 0.8795(4)
N2 N 0.4035(4) 0.99601(13) 0.5693(4)
O1 O -0.0679(4) 0.92518(11) 0.3750(4)
O2 O -0.2690(3) 0.93841(10) 0.3123(4)
O3 O -0.2826(5) 0.73864(11) 0.4856(4)
O4 O -0.1574(5) 0.54076(12) 0.3857(4)
O5 O -0.1402(4) 0.56873(11) 0.1775(4)
O6 O 0.0912(4) 0.90299(10) 0.6509(4)
O7 O 0.2850(3) 0.92707(10) 0.7100(4)
O8 O 0.3527(4) 0.72572(11) 0.8892(4)
O9 O 0.1632(5) 0.53239(11) 0.7212(4)
O10 O 0.1441(5) 0.56012(13) 0.5042(4)
O11 O -0.1227(3) 1.00941(10) 0.5000(3)
O12 O 0.0970(3) 0.99195(10) 0.7765(3)
H22 H 0.1255 0.9847 0.8574
H23 H 0.0774 1.0193 0.7733
C1C C -0.1783(5) 0.58728(15) 0.8515(5)
C2C C -0.2055(5) 0.63407(15) 0.8761(5)
C3C C -0.3239(6) 0.64762(16) 0.8728(6)
H1C H -0.3884 0.6276 0.8490
C4C C -0.3480(6) 0.69090(17) 0.9046(6)
H2C H -0.4280 0.6996 0.9040
C5C C -0.2539(6) 0.72054(16) 0.9366(6)
C6C C -0.1344(6) 0.70838(17) 0.9380(6)
H3C H -0.0709 0.7289 0.9587
C7C C -0.1111(6) 0.66477(16) 0.9079(6)
H4C H -0.0309 0.6561 0.9091
C8C C -0.2417(6) 0.80020(15) 0.9373(6)
C9C C -0.2131(6) 0.80471(17) 0.8073(6)
H5C H -0.2127 0.7804 0.7487
C10C C -0.1849(6) 0.84651(17) 0.7650(6)
H6C H -0.1648 0.8500 0.6771
C11C C -0.1858(5) 0.88287(15) 0.8503(5)
C12C C -0.2175(8) 0.87697(18) 0.9791(7)
H7C H -0.2202 0.9012 1.0376
C13C C -0.2453(8) 0.83579(19) 1.0224(7)
H8C H -0.2666 0.8322 1.1095
C14C C -0.1569(6) 0.92707(17) 0.8014(6)
C15C C 0.2026(6) 0.60226(15) 1.2004(5)
C16C C 0.2439(5) 0.64805(15) 1.2510(5)
C17C C 0.1563(6) 0.68101(17) 1.2408(6)
H9C H 0.0736 0.6745 1.2043
C18C C 0.1905(6) 0.72367(17) 1.2845(7)
H10C H 0.1313 0.7456 1.2790
C19C C 0.3123(6) 0.73297(16) 1.3356(6)
C20C C 0.4006(6) 0.70100(17) 1.3482(6)
H11C H 0.4830 0.7078 1.3853
C21C C 0.3658(6) 0.65834(17) 1.3049(6)
H12C H 0.4254 0.6365 1.3124
C22C C 0.2990(6) 0.81249(16) 1.3202(6)
C23C C 0.2545(9) 0.8159(2) 1.1769(7)
H13C H 0.2538 0.7915 1.1187
C24C C 0.2106(9) 0.85567(19) 1.1187(6)
H14C H 0.1802 0.8578 1.0206
C25C C 0.2105(6) 0.89245(16) 1.2021(5)
C26C C 0.2557(8) 0.88806(19) 1.3455(6)
H15C H 0.2573 0.9125 1.4041
C27C C 0.2996(8) 0.84778(19) 1.4061(6)
H16C H 0.3289 0.8452 1.5042
C28C C 0.1670(6) 0.93587(17) 1.1341(6)
C29B C 0.5192(6) 0.96825(17) 1.0959(6)
H17B H 0.5299 0.9453 1.1614
C30B C 0.4222(6) 0.96599(18) 0.9775(6)
H18B H 0.3703 0.9416 0.9656
C31B C 0.5018(6) 1.03197(17) 0.4086(6)
H19B H 0.5007 1.0551 0.3450
C32B C 0.4054(6) 1.02827(18) 0.4755(6)
H20B H 0.3410 1.0484 0.4550
Co1C Co -0.00846(7) 0.54315(2) 1.07913(7)
Co1C_2 Co -0.00846(7) 0.54315(2) 0.07913(7)
Co1B Co 0.00846(7) 1.04315(2) 0.42087(7)
Co2B Co -0.25946(7) 1.00612(2) 0.31872(7)
Co2B_2 Co 0.74054(7) 1.00612(2) 1.31872(7)
Co2B_3 Co 0.74054(7) 1.00612(2) 0.31872(7)
Co2A Co -0.25946(7) 0.49388(2) 0.81872(7)
Co2C Co 0.25946(7) 0.50612(2) 1.18128(7)
H21B H 0.131(7) 0.9778(18) 0.424(4)
H21C H -0.131(7) 0.4778(18) 1.076(4)
H21A H 0.131(7) 0.5222(18) 0.924(4)
N1B N 0.5985(4) 1.00197(13) 1.1205(4)
N1B_2 N -0.4015(4) 1.00197(13) 0.1205(4)
N2B N 0.5965(4) 1.00399(13) 0.4307(4)
N2B_2 N -0.4035(4) 1.00399(13) 0.4307(4)
O1C O -0.0679(4) 0.57482(11) 0.8750(4)
O2C O -0.2690(3) 0.56159(10) 0.8123(4)
O2B O 0.2690(3) 1.06159(10) 0.6877(4)
O3C O -0.2826(5) 0.76136(11) 0.9856(4)
O4C O -0.1574(5) 0.95924(12) 0.8857(4)
O5C O -0.1402(4) 0.93127(11) 0.6775(4)
O5_2 O -0.1402(4) 0.56873(11) 1.1775(4)
O6C O 0.0912(4) 0.59701(10) 1.1509(4)
O7C O 0.2850(3) 0.57293(10) 1.2100(4)
O7B O -0.2850(3) 1.07293(10) 0.2900(4)
O8C O 0.3527(4) 0.77428(11) 1.3892(4)
O9C O 0.1632(5) 0.96761(11) 1.2212(4)
O10C O 0.1441(5) 0.93988(13) 1.0042(4)
O11B O 0.1227(3) 0.99059(10) 0.5000(3)
O11C O -0.1227(3) 0.49059(10) 1.0000(3)
O11A O 0.1227(3) 0.50941(10) 1.0000(3)
O12C O 0.0970(3) 0.50805(10) 1.2765(3)
O12B O -0.0970(3) 1.00805(10) 0.2235(3)
H22C H 0.1255 0.5153 1.3574
H22B H -0.1255 1.0153 0.1426
H23C H 0.0774 0.4807 1.2733
H23B H -0.0774 0.9807 0.2267
loop_
_geom_bond_atom_site_label_1
_geom_bond_atom_site_label_2
_geom_bond_site_symmetry_1
_geom_bond_site_symmetry_2
C1 C2 1_555 1_555
C2 C3 1_555 1_555
C3 H1 1_555 1_555
C4 C3 1_555 1_555
H2 C4 1_555 1_555
C5 C4 1_555 1_555
C6 C5 1_555 1_555
H3 C6 1_555 1_555
C7 C2 1_555 1_555
H4 C7 1_555 1_555
C8 C9 1_555 1_555
C9 H5 1_555 1_555
C10 C9 1_555 1_555
H6 C10 1_555 1_555
C11 C10 1_555 1_555
C12 C11 1_555 1_555
H7 C12 1_555 1_555
C13 C8 1_555 1_555
H8 C13 1_555 1_555
C14 C11 1_555 1_555
C15 C16 1_555 1_555
C16 C17 1_555 1_555
C17 H9 1_555 1_555
C18 C17 1_555 1_555
H10 C18 1_555 1_555
C19 C18 1_555 1_555
C20 C19 1_555 1_555
H11 C20 1_555 1_555
C21 C16 1_555 1_555
H12 C21 1_555 1_555
C22 C23 1_555 1_555
C23 H13 1_555 1_555
C24 C23 1_555 1_555
H14 C24 1_555 1_555
C25 C24 1_555 1_555
C26 C25 1_555 1_555
H15 C26 1_555 1_555
C27 C22 1_555 1_555
H16 C27 1_555 1_555
C28 C25 1_555 1_555
C29 H17 1_555 1_555
C30 C29 1_555 1_555
H18 C30 1_555 1_555
C31 H19 1_555 1_555
C32 C31 1_555 1_555
H20 C32 1_555 1_555
Co1 O1 1_555 1_555
Co2 N1 1_555 1_555
H21 O11 1_555 1_555
N1 C29 1_555 1_555
N2 C31 1_555 1_555
O1 C1 1_555 1_555
O2 C1 1_555 1_555
O3 C5 1_555 1_555
O4 C14 1_555 1_555
O5 C14 1_555 1_555
O6 C15 1_555 1_555
O7 C15 1_555 1_555
O8 C19 1_555 1_555
O9 C28 1_555 1_555
O10 C28 1_555 1_555
O11 Co1 1_555 1_555
O12 Co1 1_555 1_555
H22 O12 1_555 1_555
H23 O12 1_555 1_555
C1C C2C 1_555 1_555
C2C C3C 1_555 1_555
C3C H1C 1_555 1_555
C4C C3C 1_555 1_555
H2C C4C 1_555 1_555
C5C C4C 1_555 1_555
C6C C5C 1_555 1_555
H3C C6C 1_555 1_555
C7C C2C 1_555 1_555
H4C C7C 1_555 1_555
C8C C9C 1_555 1_555
C9C H5C 1_555 1_555
C10C C9C 1_555 1_555
H6C C10C 1_555 1_555
C11C C10C 1_555 1_555
C12C C11C 1_555 1_555
H7C C12C 1_555 1_555
C13C C8C 1_555 1_555
H8C C13C 1_555 1_555
C14C C11C 1_555 1_555
C15C C16C 1_555 1_555
C16C C17C 1_555 1_555
C17C H9C 1_555 1_555
C18C C17C 1_555 1_555
H10C C18C 1_555 1_555
C19C C18C 1_555 1_555
C20C C19C 1_555 1_555
H11C C20C 1_555 1_555
C21C C16C 1_555 1_555
H12C C21C 1_555 1_555
C22C C23C 1_555 1_555
C23C H13C 1_555 1_555
C24C C23C 1_555 1_555
H14C C24C 1_555 1_555
C25C C24C 1_555 1_555
C26C C25C 1_555 1_555
H15C C26C 1_555 1_555
C27C C22C 1_555 1_555
H16C C27C 1_555 1_555
C28C C25C 1_555 1_555
C29B H17B 1_555 1_555
C30B N1 1_555 1_555
H18B C30B 1_555 1_555
C31B H19B 1_555 1_555
C32B N2 1_555 1_555
H20B C32B 1_555 1_555
Co1C O1C 1_555 1_555
Co1C_2 O5 1_555 1_555
Co1B O11 1_555 1_555
Co2B O2 1_555 1_555
Co2B_2 N1B 1_555 1_555
Co2B_3 N2B 1_555 1_555
Co2A O2C 1_555 1_555
Co2C O7C 1_555 1_555
H21B O11B 1_555 1_555
H21C O11C 1_555 1_555
H21A O11A 1_555 1_555
N1B C30 1_555 1_555
N1B_2 Co2B 1_555 1_555
N2B C32 1_555 1_555
N2B_2 Co2B 1_555 1_555
O1C C1C 1_555 1_555
O2C C1C 1_555 1_555
O2B Co2 1_555 1_555
O3C C5C 1_555 1_555
O4C C14C 1_555 1_555
O5C Co1 1_555 1_555
O5_2 Co1C 1_555 1_555
O6C C15C 1_555 1_555
O7C C15C 1_555 1_555
O7B Co2B 1_555 1_555
O8C C19C 1_555 1_555
O9C C28C 1_555 1_555
O10C C28C 1_555 1_555
O11B Co1 1_555 1_555
O11C Co1C 1_555 1_555
O11A Co1C 1_555 1_555
O12C Co1C 1_555 1_555
O12B Co1B 1_555 1_555
H22C O12C 1_555 1_555
H22B O12B 1_555 1_555
H23C O12C 1_555 1_555
H23B O12B 1_555 1_555
C6 C7 1_555 1_555
C8 O3 1_555 1_555
C12 C13 1_555 1_555
C20 C21 1_555 1_555
C22 O8 1_555 1_555
C26 C27 1_555 1_555
Co1 O6 1_555 1_555
Co2 N2 1_555 1_555
Co2 O7 1_555 1_555
Co2 O12 1_555 1_555
Co2 O11B 1_555 1_555
O11 Co2B 1_555 1_555
C6C C7C 1_555 1_555
C8C O3C 1_555 1_555
C12C C13C 1_555 1_555
C14C O5C 1_555 1_555
C20C C21C 1_555 1_555
C22C O8C 1_555 1_555
C26C C27C 1_555 1_555
C29B C30B 1_555 1_555
C29B N1B 1_555 1_555
C31B C32B 1_555 1_555
C31B N2B 1_555 1_555
Co1C O6C 1_555 1_555
Co1B O11B 1_555 1_555
Co2B O12B 1_555 1_555
Co2A O11C 1_555 1_555
Co2C O11A 1_555 1_555
Co2C O12C 1_555 1_555

#END
