
#######################################################################
#
#                 Cambridge Crystallographic Data Centre
#                                CCDC 
#
#######################################################################
#
# If this CIF has been generated from an entry in the Cambridge 
# Structural Database, then it will include bibliographic, chemical, 
# crystal, experimental, refinement or atomic coordinate data resulting 
# from the CCDC's data processing and validation procedures.
#
#######################################################################

data_GUJFEW
_symmetry_cell_setting           monoclinic
_symmetry_space_group_name_H-M   'P 2/c'
_symmetry_Int_Tables_number      13
_space_group_name_Hall           '-P 2yc'
loop_
_symmetry_equiv_pos_site_id
_symmetry_equiv_pos_as_xyz
1 x,y,z
2 x,-y,1/2+z
3 -x,-y,-z
4 -x,y,1/2-z
_cell_length_a                   5.8590(10)
_cell_length_b                   6.440(2)
_cell_length_c                   14.316(5)
_cell_angle_alpha                90
_cell_angle_beta                 94.520(10)
_cell_angle_gamma                90
_cell_volume                     538.491
loop_
_atom_site_label
_atom_site_type_symbol
_atom_site_fract_x
_atom_site_fract_y
_atom_site_fract_z
Ag1 Ag -0.58991(8) 0.20721(9) 0.03839(3)
S1 S -0.6438(2) -0.1626(2) 0.12239(8)
C1 C -0.8956(8) -0.2139(7) 0.0705(3)
N1 N -1.0720(8) -0.2521(9) 0.0336(3)
N2 N -0.3281(7) 0.3711(7) 0.1311(3)
H1 H -0.4014 0.4588 0.1674
H2 H -0.2439 0.4492 0.0945
C2 C -0.1712(10) 0.2475(8) 0.1917(3)
H3 H -0.2784 0.1682 0.2357
H4 H -0.1296 0.1167 0.1613
C3 C 0.0000 0.3720(12) 0.2500
H5 H 0.0840 0.4828 0.2149
S1B S -0.3562(2) 0.1626(2) -0.12239(8)
Ag1B Ag -0.41009(8) -0.20721(9) -0.03839(3)
N1B N -0.9280(8) 0.2521(9) -0.0336(3)
H5C H -0.0840 0.4828 0.2851
C2C C 0.1712(10) 0.2475(8) 0.3083(3)
C1B C -0.1044(8) 0.2139(7) -0.0705(3)
N1_2 N -0.0720(8) -0.2521(9) 0.0336(3)
N2B N -0.6719(7) -0.3711(7) -0.1311(3)
Ag1B_2 Ag -1.41009(8) -0.20721(9) -0.03839(3)
N2C N 0.3281(7) 0.3711(7) 0.3689(3)
H3C H 0.2784 0.1682 0.2643
H4C H 0.1296 0.1167 0.3387
N1B_2 N 0.0720(8) 0.2521(9) -0.0336(3)
H1B H -0.5986 -0.4588 -0.1674
H2B H -0.7561 -0.4492 -0.0945
Ag1C Ag 0.58991(8) 0.20721(9) 0.46161(3)
H1C H 0.4014 0.4588 0.3326
H2C H 0.2439 0.4492 0.4055
Ag1_2 Ag 0.41009(8) 0.20721(9) 0.03839(3)
loop_
_geom_bond_atom_site_label_1
_geom_bond_atom_site_label_2
_geom_bond_site_symmetry_1
_geom_bond_site_symmetry_2
Ag1 S1 1_555 1_555
S1 C1 1_555 1_555
C1 N1 1_555 1_555
N1 Ag1B_2 1_555 1_555
N2 Ag1 1_555 1_555
H1 N2 1_555 1_555
H2 N2 1_555 1_555
C2 N2 1_555 1_555
H3 C2 1_555 1_555
H4 C2 1_555 1_555
C3 C2 1_555 1_555
H5 C3 1_555 1_555
S1B Ag1 1_555 1_555
Ag1B S1 1_555 1_555
N1B Ag1 1_555 1_555
H5C C3 1_555 1_555
C2C C3 1_555 1_555
C1B S1B 1_555 1_555
N1_2 Ag1B 1_555 1_555
N2B Ag1B 1_555 1_555
N2C C2C 1_555 1_555
H3C C2C 1_555 1_555
H4C C2C 1_555 1_555
N1B_2 C1B 1_555 1_555
H1B N2B 1_555 1_555
H2B N2B 1_555 1_555
Ag1C N2C 1_555 1_555
H1C N2C 1_555 1_555
H2C N2C 1_555 1_555
Ag1_2 N1B_2 1_555 1_555
S1B Ag1B 1_555 1_555

#END
