
#######################################################################
#
#                 Cambridge Crystallographic Data Centre
#                                CCDC 
#
#######################################################################
#
# If this CIF has been generated from an entry in the Cambridge 
# Structural Database, then it will include bibliographic, chemical, 
# crystal, experimental, refinement or atomic coordinate data resulting 
# from the CCDC's data processing and validation procedures.
#
#######################################################################

data_GUJHOI
_symmetry_cell_setting           triclinic
_symmetry_space_group_name_H-M   'P -1'
_symmetry_Int_Tables_number      2
_space_group_name_Hall           '-P 1'
loop_
_symmetry_equiv_pos_site_id
_symmetry_equiv_pos_as_xyz
1 x,y,z
2 -x,-y,-z
_cell_length_a                   5.4888(2)
_cell_length_b                   11.8617(6)
_cell_length_c                   15.0146(6)
_cell_angle_alpha                108.161(2)
_cell_angle_beta                 95.599(3)
_cell_angle_gamma                100.334(2)
_cell_volume                     901.383
loop_
_atom_site_label
_atom_site_type_symbol
_atom_site_fract_x
_atom_site_fract_y
_atom_site_fract_z
Cl1 Cl -0.32794(17) 0.62354(9) 0.29444(6)
O1 O -0.4195(7) 0.4945(3) 0.2551(2)
O2 O -0.0633(6) 0.6571(4) 0.3017(3)
O3 O -0.4424(6) 0.6784(3) 0.2338(2)
O4 O -0.3919(7) 0.6650(4) 0.3871(2)
Zn1 Zn 0.0000 0.0000 0.0000
O5 O -0.2575(4) -0.11825(19) 0.04848(16)
O6 O 0.1652(5) 0.0952(3) 0.13733(17)
H1 H 0.109(10) 0.072(5) 0.178(4)
H2 H 0.336(10) 0.126(4) 0.161(3)
O7 O -0.2470(4) 0.1172(2) 0.02289(18)
H3 H -0.383(9) 0.115(4) -0.007(3)
H4 H -0.250(7) 0.154(4) 0.084(3)
N1 N -0.1974(4) -0.2261(2) 0.03711(18)
C1 C -0.0285(7) -0.2358(3) 0.1029(2)
H5 H 0.0366 -0.1696 0.1580
C2 C 0.0500(6) -0.3423(3) 0.0901(2)
H6 H 0.1676 -0.3477 0.1367
C3 C -0.0434(6) -0.4420(3) 0.0088(2)
C4 C -0.2263(7) -0.4293(3) -0.0565(3)
H7 H -0.3007 -0.4950 -0.1109
C5 C -0.2971(6) -0.3205(3) -0.0410(3)
H8 H -0.4165 -0.3127 -0.0858
O5A O 0.2575(4) 0.11825(19) -0.04848(16)
O6A O -0.1652(5) -0.0952(3) -0.13733(17)
O7A O 0.2470(4) -0.1172(2) -0.02289(18)
C3A C 0.0434(6) -0.5580(3) -0.0088(2)
H1A H -0.109(10) -0.072(5) -0.178(4)
H2A H -0.336(10) -0.126(4) -0.161(3)
H3A H 0.383(9) -0.115(4) 0.007(3)
H4A H 0.250(7) -0.154(4) -0.084(3)
C2A C -0.0500(6) -0.6577(3) -0.0901(2)
C4A C 0.2263(7) -0.5707(3) 0.0565(3)
C1A C 0.0285(7) -0.7642(3) -0.1029(2)
H6A H -0.1676 -0.6523 -0.1367
H7A H 0.3007 -0.5050 0.1109
C5A C 0.2971(6) -0.6795(3) 0.0410(3)
N1A N 0.1974(4) -0.7739(2) -0.03711(18)
H5A H -0.0366 -0.8304 -0.1580
H8A H 0.4165 -0.6873 0.0858
O5A_2 O 0.2575(4) -0.88175(19) -0.04848(16)
Zn1_2 Zn 0.0000 -1.0000 0.0000
O8 O 0.1092(5) 0.0713(3) 0.3022(2)
N2 N -0.0627(5) 0.0559(3) 0.3544(2)
C6 C -0.2744(7) -0.0295(4) 0.3174(3)
H9 H -0.3055 -0.0734 0.2526
C7 C -0.4459(7) -0.0535(4) 0.3727(3)
H10 H -0.5887 -0.1154 0.3456
C8 C -0.4101(6) 0.0132(3) 0.4689(2)
C9 C -0.1952(7) 0.1056(4) 0.5039(3)
H11 H -0.1669 0.1552 0.5673
C10 C -0.0238(7) 0.1251(4) 0.4466(3)
H12 H 0.1205 0.1866 0.4718
C8A C -0.5899(6) -0.0132(3) 0.5311(2)
C7A C -0.5541(7) 0.0535(4) 0.6273(3)
C9A C -0.8048(7) -0.1056(4) 0.4961(3)
C6A C -0.7256(7) 0.0295(4) 0.6826(3)
H10A H -0.4113 0.1154 0.6544
H11A H -0.8331 -0.1552 0.4327
C10A C -0.9762(7) -0.1251(4) 0.5534(3)
N2A N -0.9373(5) -0.0559(3) 0.6456(2)
H9A H -0.6945 0.0734 0.7474
H12A H -1.1205 -0.1866 0.5282
O8A O -1.1092(5) -0.0713(3) 0.6978(2)
O9 O -0.3475(5) 0.1869(3) 0.19686(18)
N3 N -0.2501(5) 0.2721(3) 0.27989(19)
C11 C -0.3792(6) 0.2829(3) 0.3527(2)
H13 H -0.5336 0.2303 0.3446
C12 C -0.2826(6) 0.3716(3) 0.4392(2)
H14 H -0.3739 0.3787 0.4890
C13 C -0.0520(5) 0.4511(3) 0.4540(2)
C14 C 0.0765(6) 0.4356(3) 0.3766(2)
H15 H 0.2320 0.4864 0.3830
C15 C -0.0253(6) 0.3461(4) 0.2914(2)
H16 H 0.0629 0.3365 0.2407
C13A C 0.0520(5) 0.5489(3) 0.5460(2)
C12A C 0.2826(6) 0.6284(3) 0.5608(2)
C14A C -0.0765(6) 0.5644(3) 0.6234(2)
C11A C 0.3792(6) 0.7171(3) 0.6473(2)
H14A H 0.3739 0.6213 0.5110
H15A H -0.2320 0.5136 0.6170
C15A C 0.0253(6) 0.6539(4) 0.7086(2)
N3A N 0.2501(5) 0.7279(3) 0.72011(19)
H13A H 0.5336 0.7697 0.6554
H16A H -0.0629 0.6635 0.7593
O9A O 0.3475(5) 0.8131(3) 0.80314(18)
loop_
_geom_bond_atom_site_label_1
_geom_bond_atom_site_label_2
_geom_bond_site_symmetry_1
_geom_bond_site_symmetry_2
Cl1 O1 1_555 1_555
O2 Cl1 1_555 1_555
O3 Cl1 1_555 1_555
O4 Cl1 1_555 1_555
Zn1 O5 1_555 1_555
O5 N1 1_555 1_555
O6 Zn1 1_555 1_555
H1 O6 1_555 1_555
H2 O6 1_555 1_555
O7 Zn1 1_555 1_555
H3 O7 1_555 1_555
H4 O7 1_555 1_555
N1 C1 1_555 1_555
C1 H5 1_555 1_555
C2 C1 1_555 1_555
H6 C2 1_555 1_555
C3 C2 1_555 1_555
C4 C3 1_555 1_555
H7 C4 1_555 1_555
C5 N1 1_555 1_555
H8 C5 1_555 1_555
O8 N2 1_555 1_555
N2 C6 1_555 1_555
C6 H9 1_555 1_555
C7 C6 1_555 1_555
H10 C7 1_555 1_555
C8 C7 1_555 1_555
C9 C8 1_555 1_555
H11 C9 1_555 1_555
C10 N2 1_555 1_555
H12 C10 1_555 1_555
O9 N3 1_555 1_555
N3 C11 1_555 1_555
C11 H13 1_555 1_555
C12 C11 1_555 1_555
H14 C12 1_555 1_555
C13 C12 1_555 1_555
C14 C13 1_555 1_555
H15 C14 1_555 1_555
C15 N3 1_555 1_555
H16 C15 1_555 1_555
O5A Zn1 1_555 1_555
O6A Zn1 1_555 1_555
O7A Zn1 1_555 1_555
C3A C3 1_555 1_555
H1A O6A 1_555 1_555
H2A O6A 1_555 1_555
H3A O7A 1_555 1_555
H4A O7A 1_555 1_555
C2A C3A 1_555 1_555
C4A C3A 1_555 1_555
C1A C2A 1_555 1_555
H6A C2A 1_555 1_555
H7A C4A 1_555 1_555
C5A C4A 1_555 1_555
N1A C1A 1_555 1_555
H5A C1A 1_555 1_555
H8A C5A 1_555 1_555
O5A_2 N1A 1_555 1_555
Zn1_2 O5A_2 1_555 1_555
C8A C8 1_555 1_555
C7A C8A 1_555 1_555
C9A C8A 1_555 1_555
C6A C7A 1_555 1_555
H10A C7A 1_555 1_555
H11A C9A 1_555 1_555
C10A C9A 1_555 1_555
N2A C6A 1_555 1_555
H9A C6A 1_555 1_555
H12A C10A 1_555 1_555
O8A N2A 1_555 1_555
C13A C13 1_555 1_555
C12A C13A 1_555 1_555
C14A C13A 1_555 1_555
C11A C12A 1_555 1_555
H14A C12A 1_555 1_555
H15A C14A 1_555 1_555
C15A C14A 1_555 1_555
N3A C11A 1_555 1_555
H13A C11A 1_555 1_555
H16A C15A 1_555 1_555
O9A N3A 1_555 1_555
C4 C5 1_555 1_555
C9 C10 1_555 1_555
C14 C15 1_555 1_555
C5A N1A 1_555 1_555
C10A N2A 1_555 1_555
C15A N3A 1_555 1_555

#END
