
#######################################################################
#
#                 Cambridge Crystallographic Data Centre
#                                CCDC 
#
#######################################################################
#
# If this CIF has been generated from an entry in the Cambridge 
# Structural Database, then it will include bibliographic, chemical, 
# crystal, experimental, refinement or atomic coordinate data resulting 
# from the CCDC's data processing and validation procedures.
#
#######################################################################

data_GUJHIC
_symmetry_cell_setting           triclinic
_symmetry_space_group_name_H-M   'P -1'
_symmetry_Int_Tables_number      2
_space_group_name_Hall           '-P 1'
loop_
_symmetry_equiv_pos_site_id
_symmetry_equiv_pos_as_xyz
1 x,y,z
2 -x,-y,-z
_cell_length_a                   5.3540(2)
_cell_length_b                   11.8921(4)
_cell_length_c                   15.2705(6)
_cell_angle_alpha                110.739(2)
_cell_angle_beta                 94.0425(19)
_cell_angle_gamma                99.2350(18)
_cell_volume                     888.912
loop_
_atom_site_label
_atom_site_type_symbol
_atom_site_fract_x
_atom_site_fract_y
_atom_site_fract_z
Cl1 Cl -0.34252(13) 0.63312(6) 0.29606(5)
O6 O -0.4373(5) 0.5029(2) 0.25560(18)
O7 O -0.0740(5) 0.6622(3) 0.3006(2)
O8 O -0.4597(5) 0.6873(2) 0.23817(17)
O9 O -0.4085(6) 0.6795(3) 0.38953(17)
Cu1 Cu 0.0000 0.0000 0.0000
O1 O -0.3005(3) -0.11986(14) 0.05868(12)
O4 O 0.1556(4) 0.0906(2) 0.13074(13)
H1 H 0.109(8) 0.068(4) 0.165(3)
H2 H 0.308(8) 0.126(3) 0.154(3)
O5 O -0.2261(3) 0.11942(16) 0.02119(14)
H3 H -0.376(7) 0.109(3) -0.016(3)
H4 H -0.240(5) 0.145(3) 0.077(2)
N1 N -0.2284(4) -0.22666(17) 0.04383(14)
C1 C -0.0519(5) -0.2338(2) 0.10727(17)
H5 H 0.0099 -0.1662 0.1626
C2 C 0.0389(5) -0.3401(2) 0.09152(17)
H6 H 0.1612 -0.3433 0.1365
C3 C -0.0490(5) -0.4425(2) 0.00963(17)
C4 C -0.2350(6) -0.4318(2) -0.0536(2)
H7 H -0.3019 -0.4986 -0.1090
C5 C -0.3220(5) -0.3242(2) -0.0357(2)
H8 H -0.4463 -0.3189 -0.0790
O1A O 0.3005(3) 0.11986(14) -0.05868(12)
O4A O -0.1556(4) -0.0906(2) -0.13074(13)
O5A O 0.2261(3) -0.11942(16) -0.02119(14)
C3A C 0.0490(5) -0.5575(2) -0.00963(17)
H1A H -0.109(8) -0.068(4) -0.165(3)
H2A H -0.308(8) -0.126(3) -0.154(3)
H3A H 0.376(7) -0.109(3) 0.016(3)
H4A H 0.240(5) -0.145(3) -0.077(2)
C2A C -0.0389(5) -0.6599(2) -0.09152(17)
C4A C 0.2350(6) -0.5682(2) 0.0536(2)
C1A C 0.0519(5) -0.7662(2) -0.10727(17)
H6A H -0.1612 -0.6567 -0.1365
H7A H 0.3019 -0.5014 0.1090
C5A C 0.3220(5) -0.6758(2) 0.0357(2)
N1A N 0.2284(4) -0.77334(17) -0.04383(14)
H5A H -0.0099 -0.8338 -0.1626
H8A H 0.4463 -0.6811 0.0790
O1A_2 O 0.3005(3) -0.88014(14) -0.05868(12)
Cu1_2 Cu 0.0000 -1.0000 0.0000
O2 O 0.0866(4) 0.0862(2) 0.29537(14)
N2 N -0.0809(4) 0.0663(2) 0.34991(15)
C6 C -0.3015(5) -0.0151(3) 0.31290(19)
H9 H -0.3424 -0.0538 0.2476
C7 C -0.4659(5) -0.0416(2) 0.37043(18)
H10 H -0.6160 -0.0995 0.3435
C8 C -0.4149(5) 0.0160(2) 0.46847(17)
C9 C -0.1918(5) 0.1049(3) 0.50333(18)
H11 H -0.1535 0.1496 0.5680
C10 C -0.0280(5) 0.1279(3) 0.44434(19)
H12 H 0.1217 0.1866 0.4695
C8A C -0.5851(5) -0.0160(2) 0.53153(17)
C7A C -0.5341(5) 0.0416(2) 0.62957(18)
C9A C -0.8082(5) -0.1049(3) 0.49667(18)
C6A C -0.6985(5) 0.0151(3) 0.68710(19)
H10A H -0.3840 0.0995 0.6565
H11A H -0.8465 -0.1496 0.4320
C10A C -0.9720(5) -0.1279(3) 0.55566(19)
N2A N -0.9191(4) -0.0663(2) 0.65009(15)
H9A H -0.6576 0.0538 0.7524
H12A H -1.1217 -0.1866 0.5305
O2A O -1.0866(4) -0.0862(2) 0.70463(14)
O3 O -0.3648(4) 0.2037(2) 0.18927(13)
N3 N -0.2622(4) 0.2837(2) 0.27470(14)
C11 C -0.3884(5) 0.2894(2) 0.34871(18)
H13 H -0.5438 0.2363 0.3400
C12 C -0.2881(5) 0.3736(2) 0.43699(17)
H14 H -0.3777 0.3772 0.4876
C13 C -0.0544(4) 0.4541(2) 0.45261(15)
C14 C 0.0687(5) 0.4432(2) 0.37388(17)
H15 H 0.2253 0.4945 0.3806
C15 C -0.0365(5) 0.3582(3) 0.28624(18)
H16 H 0.0497 0.3522 0.2345
C13A C 0.0544(4) 0.5459(2) 0.54739(15)
C12A C 0.2881(5) 0.6264(2) 0.56301(17)
C14A C -0.0687(5) 0.5568(2) 0.62612(17)
C11A C 0.3884(5) 0.7106(2) 0.65129(18)
H14A H 0.3777 0.6228 0.5124
H15A H -0.2253 0.5055 0.6194
C15A C 0.0365(5) 0.6418(3) 0.71376(18)
N3A N 0.2622(4) 0.7163(2) 0.72530(14)
H13A H 0.5438 0.7637 0.6600
H16A H -0.0497 0.6478 0.7655
O3A O 0.3648(4) 0.7963(2) 0.81073(13)
loop_
_geom_bond_atom_site_label_1
_geom_bond_atom_site_label_2
_geom_bond_site_symmetry_1
_geom_bond_site_symmetry_2
Cl1 O6 1_555 1_555
Cu1 O1 1_555 1_555
O1 N1 1_555 1_555
O2 N2 1_555 1_555
O3 N3 1_555 1_555
O4 Cu1 1_555 1_555
H1 O4 1_555 1_555
H2 O4 1_555 1_555
O5 Cu1 1_555 1_555
H3 O5 1_555 1_555
H4 O5 1_555 1_555
O7 Cl1 1_555 1_555
O8 Cl1 1_555 1_555
O9 Cl1 1_555 1_555
N1 C1 1_555 1_555
N2 C6 1_555 1_555
N3 C11 1_555 1_555
C1 H5 1_555 1_555
C2 C1 1_555 1_555
H6 C2 1_555 1_555
C3 C2 1_555 1_555
C4 C3 1_555 1_555
H7 C4 1_555 1_555
C5 N1 1_555 1_555
H8 C5 1_555 1_555
C6 H9 1_555 1_555
C7 C6 1_555 1_555
H10 C7 1_555 1_555
C8 C7 1_555 1_555
C9 C8 1_555 1_555
H11 C9 1_555 1_555
C10 N2 1_555 1_555
H12 C10 1_555 1_555
C11 H13 1_555 1_555
C12 C11 1_555 1_555
H14 C12 1_555 1_555
C13 C12 1_555 1_555
C14 C13 1_555 1_555
H15 C14 1_555 1_555
C15 N3 1_555 1_555
H16 C15 1_555 1_555
O1A Cu1 1_555 1_555
O4A Cu1 1_555 1_555
O5A Cu1 1_555 1_555
C3A C3 1_555 1_555
C8A C8 1_555 1_555
C13A C13 1_555 1_555
H1A O4A 1_555 1_555
H2A O4A 1_555 1_555
H3A O5A 1_555 1_555
H4A O5A 1_555 1_555
C2A C3A 1_555 1_555
C4A C3A 1_555 1_555
C7A C8A 1_555 1_555
C9A C8A 1_555 1_555
C12A C13A 1_555 1_555
C14A C13A 1_555 1_555
C1A C2A 1_555 1_555
H6A C2A 1_555 1_555
H7A C4A 1_555 1_555
C5A C4A 1_555 1_555
C6A C7A 1_555 1_555
H10A C7A 1_555 1_555
H11A C9A 1_555 1_555
C10A C9A 1_555 1_555
C11A C12A 1_555 1_555
H14A C12A 1_555 1_555
H15A C14A 1_555 1_555
C15A C14A 1_555 1_555
N1A C1A 1_555 1_555
H5A C1A 1_555 1_555
H8A C5A 1_555 1_555
N2A C6A 1_555 1_555
H9A C6A 1_555 1_555
H12A C10A 1_555 1_555
N3A C11A 1_555 1_555
H13A C11A 1_555 1_555
H16A C15A 1_555 1_555
O1A_2 N1A 1_555 1_555
O2A N2A 1_555 1_555
O3A N3A 1_555 1_555
Cu1_2 O1A_2 1_555 1_555
C4 C5 1_555 1_555
C9 C10 1_555 1_555
C14 C15 1_555 1_555
C5A N1A 1_555 1_555
C10A N2A 1_555 1_555
C15A N3A 1_555 1_555

#END
