
#######################################################################
#
#                 Cambridge Crystallographic Data Centre
#                                CCDC 
#
#######################################################################
#
# If this CIF has been generated from an entry in the Cambridge 
# Structural Database, then it will include bibliographic, chemical, 
# crystal, experimental, refinement or atomic coordinate data resulting 
# from the CCDC's data processing and validation procedures.
#
#######################################################################

data_GUJWIS
_symmetry_cell_setting           monoclinic
_symmetry_space_group_name_H-M   'C 2/c'
_symmetry_Int_Tables_number      15
_space_group_name_Hall           '-C 2yn'
loop_
_symmetry_equiv_pos_site_id
_symmetry_equiv_pos_as_xyz
1 x,y,z
2 -x,y,1/2-z
3 1/2+x,1/2+y,z
4 1/2-x,1/2+y,1/2-z
5 -x,-y,-z
6 x,-y,1/2+z
7 1/2-x,1/2-y,-z
8 1/2+x,1/2-y,1/2+z
_cell_length_a                   22.587(5)
_cell_length_b                   8.3906(17)
_cell_length_c                   14.932(3)
_cell_angle_alpha                90
_cell_angle_beta                 97.38(3)
_cell_angle_gamma                90
_cell_volume                     2806.45
loop_
_atom_site_label
_atom_site_type_symbol
_atom_site_fract_x
_atom_site_fract_y
_atom_site_fract_z
Cu1 Cu 0.29544(2) 0.15151(6) 0.90073(3)
O1 O 0.21447(13) 0.0770(4) 0.9221(2)
N1 N 0.24840(15) 0.2956(4) 0.8128(2)
O2 O 0.06310(13) 0.2517(4) 0.7335(2)
O3 O 0.07832(14) 0.4413(4) 0.6379(2)
N2 N 0.37533(15) 0.2534(4) 0.9131(2)
C1 C 0.16179(18) 0.3482(5) 0.7348(3)
C2 C 0.09778(18) 0.3510(5) 0.6975(3)
N3 N 0.33314(16) 0.0318(4) 1.0072(2)
N4 N 0.25612(15) 0.4105(4) 0.7534(2)
O4 O 0.11940(13) 0.0824(4) 0.8569(2)
C3 C 0.19039(18) 0.2539(5) 0.8035(3)
C4 C 0.3968(2) -0.1370(6) 1.1455(3)
H1 H 0.4187 -0.1955 1.1931
C5 C 0.39101(18) 0.0674(5) 1.0331(3)
C6 C 0.3378(2) -0.1735(6) 1.1178(3)
H2 H 0.3189 -0.2583 1.1454
C7 C 0.49328(19) 0.3511(5) 0.9341(3)
H3 H 0.5339 0.3835 0.9404
C8 C 0.4239(2) -0.0156(6) 1.1039(3)
H4 H 0.4644 0.0113 1.1230
C9 C 0.3943(2) 0.3642(6) 0.8580(3)
H5 H 0.3664 0.4099 0.8121
C10 C 0.17271(19) 0.1290(5) 0.8642(3)
C11 C 0.3067(2) -0.0851(6) 1.0497(3)
H6 H 0.2656 -0.1071 1.0321
C12 C 0.4151(2) 0.1930(5) 0.9794(3)
C13 C 0.47423(19) 0.2409(5) 0.9930(3)
H7 H 0.5010 0.1992 1.0416
C14 C 0.4531(2) 0.4132(6) 0.8663(3)
H8 H 0.4656 0.4892 0.8255
H9 H 0.081(2) 0.197(7) 0.777(4)
N5 N 0.20343(15) 0.4448(4) 0.7058(2)
Cu1C Cu 0.20456(2) 0.65151(6) 0.59927(3)
N5C N 0.29657(15) -0.0552(4) 0.7942(2)
loop_
_geom_bond_atom_site_label_1
_geom_bond_atom_site_label_2
_geom_bond_site_symmetry_1
_geom_bond_site_symmetry_2
Cu1 O1 1_555 1_555
O1 C10 1_555 1_555
N1 Cu1 1_555 1_555
O2 C2 1_555 1_555
O3 C2 1_555 1_555
N2 Cu1 1_555 1_555
C1 C2 1_555 1_555
N3 Cu1 1_555 1_555
N4 N1 1_555 1_555
O4 C10 1_555 1_555
C3 N1 1_555 1_555
C4 H1 1_555 1_555
C5 N3 1_555 1_555
C6 C4 1_555 1_555
H2 C6 1_555 1_555
C7 H3 1_555 1_555
C8 C4 1_555 1_555
H4 C8 1_555 1_555
C9 N2 1_555 1_555
H5 C9 1_555 1_555
C10 C3 1_555 1_555
C11 N3 1_555 1_555
H6 C11 1_555 1_555
C12 N2 1_555 1_555
C13 C7 1_555 1_555
H7 C13 1_555 1_555
C14 C7 1_555 1_555
H8 C14 1_555 1_555
H9 O2 1_555 1_555
N5 C1 1_555 1_555
Cu1C N5 1_555 1_555
N5C Cu1 1_555 1_555
C1 C3 1_555 1_555
N4 N5 1_555 1_555
C5 C8 1_555 1_555
C5 C12 1_555 1_555
C6 C11 1_555 1_555
C9 C14 1_555 1_555
C12 C13 1_555 1_555

#END
