
#######################################################################
#
#                 Cambridge Crystallographic Data Centre
#                                CCDC 
#
#######################################################################
#
# If this CIF has been generated from an entry in the Cambridge 
# Structural Database, then it will include bibliographic, chemical, 
# crystal, experimental, refinement or atomic coordinate data resulting 
# from the CCDC's data processing and validation procedures.
#
#######################################################################

data_GUJYOB
_symmetry_cell_setting           monoclinic
_symmetry_space_group_name_H-M   'C 2/c'
_symmetry_Int_Tables_number      15
_space_group_name_Hall           '-C 2yn'
loop_
_symmetry_equiv_pos_site_id
_symmetry_equiv_pos_as_xyz
1 x,y,z
2 -x,y,1/2-z
3 1/2+x,1/2+y,z
4 1/2-x,1/2+y,1/2-z
5 -x,-y,-z
6 x,-y,1/2+z
7 1/2-x,1/2-y,-z
8 1/2+x,1/2-y,1/2+z
_cell_length_a                   32.102(4)
_cell_length_b                   7.022
_cell_length_c                   14.945(2)
_cell_angle_alpha                90
_cell_angle_beta                 109.052(5)
_cell_angle_gamma                90
_cell_volume                     3184.37
loop_
_atom_site_label
_atom_site_type_symbol
_atom_site_fract_x
_atom_site_fract_y
_atom_site_fract_z
Co1 Co 0.626602(10) 0.87949(4) 0.70876(2)
O1 O 0.62258(6) 0.2347(2) 0.33116(11)
O2 O 0.63300(6) 0.8426(2) 0.23939(12)
O3 O 0.62691(6) 0.9220(2) 0.56995(11)
O4 O 0.62132(6) 0.6293(2) 0.61851(11)
N1 N 0.62828(7) 0.5470(3) 0.29302(14)
H1 H 0.6291(10) 0.501(4) 0.232(2)
N2 N 0.55776(7) 0.8983(3) 0.66014(14)
N3 N 0.69577(7) 0.8496(3) 0.76014(14)
C1 C 0.62438(8) 0.4090(3) 0.35566(16)
C2 C 0.62279(8) 0.4757(3) 0.44347(17)
H2 H 0.6201 0.3904 0.4889
C3 C 0.62522(8) 0.6706(3) 0.46124(16)
C4 C 0.62930(8) 0.8045(3) 0.39608(16)
H3 H 0.6314 0.9336 0.4109
C5 C 0.63027(8) 0.7417(3) 0.30758(17)
C6 C 0.62412(8) 0.7453(3) 0.55505(16)
C7 C 0.53326(10) 0.7417(5) 0.6517(2)
H4 H 0.5475 0.6248 0.6660
C8 C 0.48771(11) 0.7448(6) 0.6227(3)
H5 H 0.4720 0.6320 0.6182
C9 C 0.46602(11) 0.9147(6) 0.6007(2)
H6 H 0.4354 0.9202 0.5807
C10 C 0.49079(11) 1.0767(5) 0.6092(2)
H7 H 0.4771 1.1948 0.5953
C11 C 0.53656(10) 1.0639(5) 0.6386(2)
H8 H 0.5529 1.1749 0.6434
C12 C 0.72070(9) 0.8288(4) 0.70370(19)
H9 H 0.7066 0.8234 0.6386
C13 C 0.76595(10) 0.8151(4) 0.7372(2)
H10 H 0.7817 0.8003 0.6954
C14 C 0.78762(10) 0.8237(4) 0.8335(2)
H11 H 0.8181 0.8120 0.8581
C15 C 0.76256(10) 0.8503(4) 0.8924(2)
H12 H 0.7761 0.8602 0.9575
C16 C 0.71723(9) 0.8619(4) 0.85330(18)
H13 H 0.7008 0.8790 0.8937
Co1E Co 0.626602(10) 0.12051(4) 0.20876(2)
Co1E_2 Co 0.626602(10) 1.12051(4) 0.20876(2)
O1E O 0.62258(6) 0.7653(2) 0.83116(11)
O2E O 0.63300(6) 1.1574(2) 0.73939(12)
loop_
_geom_bond_atom_site_label_1
_geom_bond_atom_site_label_2
_geom_bond_site_symmetry_1
_geom_bond_site_symmetry_2
Co1 O3 1_555 1_555
O1 C1 1_555 1_555
O2 C5 1_555 1_555
O3 C6 1_555 1_555
O4 Co1 1_555 1_555
N1 H1 1_555 1_555
N2 Co1 1_555 1_555
N3 Co1 1_555 1_555
C1 N1 1_555 1_555
C2 C1 1_555 1_555
H2 C2 1_555 1_555
C3 C2 1_555 1_555
C4 C3 1_555 1_555
H3 C4 1_555 1_555
C5 N1 1_555 1_555
C6 O4 1_555 1_555
C7 N2 1_555 1_555
H4 C7 1_555 1_555
C8 C7 1_555 1_555
H5 C8 1_555 1_555
C9 C8 1_555 1_555
H6 C9 1_555 1_555
C10 C9 1_555 1_555
H7 C10 1_555 1_555
C11 N2 1_555 1_555
H8 C11 1_555 1_555
C12 N3 1_555 1_555
H9 C12 1_555 1_555
C13 C12 1_555 1_555
H10 C13 1_555 1_555
C14 C13 1_555 1_555
H11 C14 1_555 1_555
C15 C14 1_555 1_555
H12 C15 1_555 1_555
C16 N3 1_555 1_555
H13 C16 1_555 1_555
Co1E O1 1_555 1_555
Co1E_2 O2 1_555 1_555
O1E Co1 1_555 1_555
O2E Co1 1_555 1_555
C3 C6 1_555 1_555
C4 C5 1_555 1_555
C10 C11 1_555 1_555
C15 C16 1_555 1_555

#END
