
#######################################################################
#
#                 Cambridge Crystallographic Data Centre
#                                CCDC 
#
#######################################################################
#
# If this CIF has been generated from an entry in the Cambridge 
# Structural Database, then it will include bibliographic, chemical, 
# crystal, experimental, refinement or atomic coordinate data resulting 
# from the CCDC's data processing and validation procedures.
#
#######################################################################

data_GUKCEW
_symmetry_cell_setting           monoclinic
_symmetry_space_group_name_H-M   'C c'
_symmetry_Int_Tables_number      9
_space_group_name_Hall           'C -2yc'
loop_
_symmetry_equiv_pos_site_id
_symmetry_equiv_pos_as_xyz
1 x,y,z
2 x,-y,1/2+z
3 1/2+x,1/2+y,z
4 1/2+x,1/2-y,1/2+z
_cell_length_a                   16.9914(7)
_cell_length_b                   15.7268(8)
_cell_length_c                   9.2125(9)
_cell_angle_alpha                90
_cell_angle_beta                 120.503(3)
_cell_angle_gamma                90
_cell_volume                     2121.07
loop_
_atom_site_label
_atom_site_type_symbol
_atom_site_fract_x
_atom_site_fract_y
_atom_site_fract_z
Cd1 Cd 0.46059(16) 0.125138(17) 0.7670(2)
N1 N 0.3092(2) 0.1094(4) 0.5522(5)
C1 C 0.2900(3) 0.0562(4) 0.4176(6)
H1 H 0.3374 0.0310 0.4105
C2 C 0.1999(4) 0.0407(4) 0.2937(6)
H2 H 0.1870 0.0052 0.2037
C3 C 0.1290(3) 0.0784(5) 0.3043(7)
C4 C 0.1482(3) 0.1316(4) 0.4388(9)
H3 H 0.1007 0.1568 0.4459
C5 C 0.2382(4) 0.1471(4) 0.5628(7)
H4 H 0.2511 0.1827 0.6528
C6 C 0.5023(15) 0.1993(9) 0.542(2)
C7 C 0.5601(9) 0.2575(6) 0.4817(11)
H5 H 0.5392 0.3160 0.4671
H6 H 0.6244 0.2564 0.5673
C8 C 0.5475(7) 0.2239(6) 0.3177(9)
H7 H 0.5665 0.1642 0.3335
C9 C 0.4491(8) 0.2293(4) 0.1734(10)
H8 H 0.4314 0.2888 0.1588
H9 H 0.4114 0.2001 0.2087
C10 C 0.4241(16) 0.1935(10) -0.0032(18)
C11 C 0.0311(7) 0.0650(6) 0.1761(11)
H10 H -0.0121 0.1060 0.1594
C12 C -0.1098(9) -0.0610(7) -0.1377(14)
H11 H -0.0634 -0.0927 -0.1371
C13 C -0.3625(6) -0.0483(5) -0.4024(10)
H12 H -0.4096 -0.0160 -0.4070
C14 C -0.2759(5) -0.0329(6) -0.2694(10)
H13 H -0.2658 0.0039 -0.1826
C15 C -0.2043(5) -0.0750(5) -0.2705(9)
C16 C -0.2275(5) -0.1325(6) -0.4020(10)
H14 H -0.1831 -0.1637 -0.4092
C17 C -0.3186(5) -0.1410(5) -0.5200(9)
H15 H -0.3331 -0.1785 -0.6082
C18 C 0.6140(12) 0.2777(11) 0.2731(16)
H16 H 0.5925 0.3359 0.2422
H17 H 0.6147 0.2512 0.1775
H18 H 0.6777 0.2800 0.3677
N2 N 0.0064(4) -0.0047(4) 0.0874(7)
N3 N -0.0898(4) -0.0062(4) -0.0230(8)
N4 N -0.3848(4) -0.1033(5) -0.5219(8)
O1 O 0.4971(6) 0.2387(5) 0.6480(9)
O2 O 0.4656(8) -0.0212(2) 0.7686(13)
H19 H 0.4231 -0.0182 0.7870
H20 H 0.4446 -0.0455 0.6720
O3 O 0.4924(9) 0.1179(6) 0.5288(14)
O4 O 0.4313(8) 0.2386(6) -0.1090(10)
O5 O 0.4284(12) 0.1151(7) 0.0013(16)
Cd1_2 Cd 0.46059(16) 0.125138(17) -0.2330(2)
Cd1A Cd -0.53941(16) -0.125138(17) -0.7330(2)
N4A N 0.6152(4) 0.1033(5) 0.9781(8)
O4_2 O 0.4313(8) 0.2386(6) 0.8910(10)
O5_2 O 0.4284(12) 0.1151(7) 1.0013(16)
O6 O 0.250(5) -0.282(4) 0.668(6)
loop_
_geom_bond_atom_site_label_1
_geom_bond_atom_site_label_2
_geom_bond_site_symmetry_1
_geom_bond_site_symmetry_2
Cd1 N1 1_555 1_555
N1 C1 1_555 1_555
C1 H1 1_555 1_555
C2 C1 1_555 1_555
H2 C2 1_555 1_555
C3 C2 1_555 1_555
C4 C3 1_555 1_555
H3 C4 1_555 1_555
C5 N1 1_555 1_555
H4 C5 1_555 1_555
C6 C7 1_555 1_555
C7 H5 1_555 1_555
H6 C7 1_555 1_555
C8 C7 1_555 1_555
H7 C8 1_555 1_555
C9 C8 1_555 1_555
H8 C9 1_555 1_555
H9 C9 1_555 1_555
C10 C9 1_555 1_555
C11 C3 1_555 1_555
H10 C11 1_555 1_555
C12 H11 1_555 1_555
C13 H12 1_555 1_555
C14 C13 1_555 1_555
H13 C14 1_555 1_555
C15 C12 1_555 1_555
C16 C15 1_555 1_555
H14 C16 1_555 1_555
C17 C16 1_555 1_555
H15 C17 1_555 1_555
C18 C8 1_555 1_555
H16 C18 1_555 1_555
H17 C18 1_555 1_555
H18 C18 1_555 1_555
N2 C11 1_555 1_555
N3 C12 1_555 1_555
N4 C13 1_555 1_555
O1 Cd1 1_555 1_555
O2 Cd1 1_555 1_555
H19 O2 1_555 1_555
H20 O2 1_555 1_555
O3 Cd1 1_555 1_555
O4 C10 1_555 1_555
O5 C10 1_555 1_555
Cd1_2 O4 1_555 1_555
Cd1A N4 1_555 1_555
N4A Cd1 1_555 1_555
O4_2 Cd1 1_555 1_555
O5_2 Cd1 1_555 1_555
C4 C5 1_555 1_555
C6 O1 1_555 1_555
C6 O3 1_555 1_555
C14 C15 1_555 1_555
C17 N4 1_555 1_555
N2 N3 1_555 1_555
O5 Cd1_2 1_555 1_555

#END
