
#######################################################################
#
#                 Cambridge Crystallographic Data Centre
#                                CCDC 
#
#######################################################################
#
# If this CIF has been generated from an entry in the Cambridge 
# Structural Database, then it will include bibliographic, chemical, 
# crystal, experimental, refinement or atomic coordinate data resulting 
# from the CCDC's data processing and validation procedures.
#
#######################################################################

data_GUKKON
_symmetry_cell_setting           orthorhombic
_symmetry_space_group_name_H-M   'P n a 21'
_symmetry_Int_Tables_number      33
_space_group_name_Hall           'P 2c -2n'
loop_
_symmetry_equiv_pos_site_id
_symmetry_equiv_pos_as_xyz
1 x,y,z
2 -x,-y,1/2+z
3 1/2+x,1/2-y,z
4 1/2-x,1/2+y,1/2+z
_cell_length_a                   12.688(2)
_cell_length_b                   10.0083(15)
_cell_length_c                   17.142(3)
_cell_angle_alpha                90
_cell_angle_beta                 90
_cell_angle_gamma                90
_cell_volume                     2176.78
loop_
_atom_site_label
_atom_site_type_symbol
_atom_site_fract_x
_atom_site_fract_y
_atom_site_fract_z
Sr1 Sr 0.06536(3) 0.40728(4) 0.97412(4)
Sr2 Sr -0.02269(3) -0.24834(4) 0.827362(19)
Sr3 Sr 0.23016(3) -0.24839(4) 0.660270(19)
O1 O 0.0468(2) -0.0062(3) 0.80993(19)
O2 O 0.0703(2) -0.1085(3) 0.69680(17)
O3 O 0.0729(2) 0.6078(3) 0.72230(17)
O4 O 0.0681(3) 0.4857(3) 0.83056(17)
O5 O 0.1150(2) 0.1771(3) 0.45496(16)
O6 O 0.0455(2) 0.3805(2) 0.46143(17)
O7 O -0.1957(2) -0.0048(3) 0.66189(19)
O8 O -0.1788(2) -0.1124(3) 0.77426(18)
O9 O -0.1965(3) 0.4983(3) 0.6626(2)
O10 O -0.1738(2) 0.6048(3) 0.77411(17)
O11 O -0.1203(2) 0.3243(3) 1.02419(17)
O12 O -0.2488(2) 0.1730(3) 1.01738(16)
O13 O 0.1825(2) 0.6103(3) 1.01863(19)
H1 H 0.2498(19) 0.627(4) 1.000(2)
H2 H 0.194(3) 0.586(4) 1.0714(13)
O14 O 0.0681(3) 0.1583(3) 0.94020(18)
H3 H 0.097(3) 0.096(4) 0.974(3)
H4 H 0.071(4) 0.121(4) 0.8914(15)
O15 O 0.1714(3) -0.2341(3) 0.8680(2)
H5 H 0.193(4) -0.146(2) 0.872(3)
H6 H 0.208(4) -0.312(3) 0.859(3)
O16 O 0.0699(3) 0.2773(3) 1.11483(18)
H7 H 0.030(3) 0.330(4) 1.148(2)
H8 H 0.031(3) 0.200(3) 1.119(3)
C1 C 0.0695(4) 0.1304(4) 0.6978(3)
C2 C 0.0683(4) 0.2469(4) 0.7427(3)
H11 H 0.0641 0.2403 0.7979
C3 C 0.0731(4) 0.3715(4) 0.7083(3)
C4 C 0.0771(3) 0.3808(4) 0.6272(3)
H12 H 0.0789 0.4661 0.6030
C5 C 0.0784(4) 0.2655(4) 0.5811(3)
C6 C 0.0741(4) 0.1405(4) 0.6168(3)
H13 H 0.0743 0.0618 0.5858
C7 C 0.0628(4) -0.0023(5) 0.7371(3)
C8 C 0.0723(4) 0.4938(4) 0.7565(3)
C9 C 0.0800(3) 0.2754(4) 0.4939(2)
C10 C -0.1804(4) 0.1262(4) 0.7774(3)
C11 C -0.1810(4) 0.2463(5) 0.7375(3)
H14 H -0.1842 0.2464 0.6821
C12 C -0.1771(4) 0.3665(4) 0.7775(3)
C13 C -0.1720(3) 0.3668(4) 0.8586(3)
H15 H -0.1659 0.4489 0.8861
C14 C -0.1759(4) 0.2473(5) 0.8993(3)
C15 C -0.1787(3) 0.1275(4) 0.8579(3)
H16 H -0.1794 0.0452 0.8856
C16 C -0.1841(3) -0.0046(5) 0.7341(3)
C17 C -0.1821(3) 0.4979(5) 0.7346(3)
C18 C -0.1807(4) 0.2489(4) 0.9863(3)
Sr1A Sr -0.06536(3) 0.59272(4) 0.47412(4)
Sr1B Sr -0.43464(3) 0.09272(4) 0.97412(4)
Sr2_2 Sr -0.02269(3) 0.75166(4) 0.827362(19)
Sr2A Sr 0.02269(3) 0.24834(4) 0.327362(19)
Sr3_2 Sr 0.23016(3) 0.75161(4) 0.660270(19)
Sr3B Sr -0.26984(3) -0.25161(4) 0.660270(19)
Sr3B_2 Sr -0.26984(3) 0.74839(4) 0.660270(19)
Sr3A Sr -0.23016(3) 0.24839(4) 1.160270(19)
Sr3C Sr 0.26984(3) 0.25161(4) 1.160270(19)
O3_2 O 0.0729(2) -0.3922(3) 0.72230(17)
O4_2 O 0.0681(3) -0.5143(3) 0.83056(17)
O5A O -0.1150(2) -0.1771(3) 0.95496(16)
O6A O -0.0455(2) 0.6195(2) 0.96143(17)
O6A_2 O -0.0455(2) -0.3805(2) 0.96143(17)
O7B O 0.3043(2) -0.4952(3) 0.66189(19)
O8B O 0.3212(2) -0.3876(3) 0.77426(18)
O9B O 0.3035(3) 0.0017(3) 0.6626(2)
O10_2 O -0.1738(2) -0.3952(3) 0.77411(17)
O10B O 0.3262(2) -0.1048(3) 0.77411(17)
O11A O 0.1203(2) -0.3243(3) 0.52419(17)
O12B O 0.2512(2) 0.3270(3) 1.01738(16)
O12A O 0.2488(2) -0.1730(3) 0.51738(16)
O16C O 0.4301(3) -0.2227(3) 0.61483(18)
H7C H 0.470(3) -0.170(4) 0.648(2)
H8C H 0.469(3) -0.300(3) 0.619(3)
O17 O 0.1672(4) -0.0566(4) 1.0076(2)
H9 H 0.164(4) -0.145(3) 0.986(4)
H10 H 0.172(4) -0.043(6) 1.0630(13)
loop_
_geom_bond_atom_site_label_1
_geom_bond_atom_site_label_2
_geom_bond_site_symmetry_1
_geom_bond_site_symmetry_2
Sr1 O4 1_555 1_555
Sr2 O1 1_555 1_555
Sr3 O2 1_555 1_555
O1 C7 1_555 1_555
O2 Sr2 1_555 1_555
O3 C8 1_555 1_555
O4 C8 1_555 1_555
O5 C9 1_555 1_555
O6 C9 1_555 1_555
O7 C16 1_555 1_555
O8 Sr2 1_555 1_555
O9 C17 1_555 1_555
O10 C17 1_555 1_555
O11 Sr1 1_555 1_555
O12 C18 1_555 1_555
O13 Sr1 1_555 1_555
H1 O13 1_555 1_555
H2 O13 1_555 1_555
O14 Sr1 1_555 1_555
H3 O14 1_555 1_555
H4 O14 1_555 1_555
O15 Sr2 1_555 1_555
H5 O15 1_555 1_555
H6 O15 1_555 1_555
O16 Sr1 1_555 1_555
H7 O16 1_555 1_555
H8 O16 1_555 1_555
O17 H9 1_555 1_555
H10 O17 1_555 1_555
C1 C2 1_555 1_555
C2 H11 1_555 1_555
C3 C2 1_555 1_555
C4 C3 1_555 1_555
H12 C4 1_555 1_555
C5 C4 1_555 1_555
C6 C1 1_555 1_555
H13 C6 1_555 1_555
C7 O2 1_555 1_555
C8 C3 1_555 1_555
C9 C5 1_555 1_555
C10 C11 1_555 1_555
C11 H14 1_555 1_555
C12 C11 1_555 1_555
C13 C12 1_555 1_555
H15 C13 1_555 1_555
C14 C13 1_555 1_555
C15 C10 1_555 1_555
H16 C15 1_555 1_555
C16 O8 1_555 1_555
C17 C12 1_555 1_555
C18 O11 1_555 1_555
Sr1A O6 1_555 1_555
Sr1B O12 1_555 1_555
Sr2_2 O3 1_555 1_555
Sr2A O5 1_555 1_555
Sr3_2 O3 1_555 1_555
Sr3B O7 1_555 1_555
Sr3B_2 O9 1_555 1_555
Sr3A O11 1_555 1_555
Sr3C O16 1_555 1_555
O3_2 Sr2 1_555 1_555
O4_2 Sr2 1_555 1_555
O5A Sr2 1_555 1_555
O6A Sr1 1_555 1_555
O6A_2 Sr2 1_555 1_555
O7B Sr3 1_555 1_555
O8B Sr3 1_555 1_555
O9B Sr3 1_555 1_555
O10_2 Sr2 1_555 1_555
O10B Sr3 1_555 1_555
O11A Sr3 1_555 1_555
O12B Sr1 1_555 1_555
O12A Sr3 1_555 1_555
O16C Sr3 1_555 1_555
H7C O16C 1_555 1_555
H8C O16C 1_555 1_555
Sr3 O3_2 1_555 1_555
O4 Sr2_2 1_555 1_555
O6 Sr2A 1_555 1_555
O8 Sr3B 1_555 1_555
O10 Sr2_2 1_555 1_555
O10 Sr3B_2 1_555 1_555
O12 Sr3A 1_555 1_555
C1 C7 1_555 1_555
C5 C6 1_555 1_555
C10 C16 1_555 1_555
C14 C15 1_555 1_555
C14 C18 1_555 1_555
Sr2_2 O6A 1_555 1_555
Sr3B O10_2 1_555 1_555
Sr3C O12B 1_555 1_555

#END
