
#######################################################################
#
#                 Cambridge Crystallographic Data Centre
#                                CCDC 
#
#######################################################################
#
# If this CIF has been generated from an entry in the Cambridge 
# Structural Database, then it will include bibliographic, chemical, 
# crystal, experimental, refinement or atomic coordinate data resulting 
# from the CCDC's data processing and validation procedures.
#
#######################################################################

data_GUKMEF
_symmetry_cell_setting           triclinic
_symmetry_space_group_name_H-M   'P -1'
_symmetry_Int_Tables_number      2
_space_group_name_Hall           '-P 1'
loop_
_symmetry_equiv_pos_site_id
_symmetry_equiv_pos_as_xyz
1 x,y,z
2 -x,-y,-z
_cell_length_a                   7.5447(10)
_cell_length_b                   13.0577(18)
_cell_length_c                   17.367(2)
_cell_angle_alpha                97.261(2)
_cell_angle_beta                 92.263(2)
_cell_angle_gamma                100.482(2)
_cell_volume                     1665.46
loop_
_atom_site_label
_atom_site_type_symbol
_atom_site_fract_x
_atom_site_fract_y
_atom_site_fract_z
Eu1 Eu 1.62638(2) -0.795994(11) -0.980017(8)
Ag1 Ag 1.27172(5) -1.05951(3) -0.525064(17)
Ag2 Ag 1.29189(5) -0.50612(3) -0.537310(17)
O1 O 1.5143(4) -1.07523(18) -0.91759(13)
O2 O 1.5578(3) -0.90296(17) -0.88138(13)
O3 O 0.9773(4) -0.9674(2) -0.14201(15)
O4 O 0.8795(3) -1.14084(18) -0.16757(13)
O5 O 0.9516(4) -0.4684(2) -0.16100(14)
O6 O 0.9060(4) -0.6430(2) -0.18889(14)
O7 O 1.6129(4) -0.4732(2) -0.91488(15)
O8 O 1.6031(3) -0.64150(18) -0.90740(14)
N1 N 1.3556(4) -1.0404(2) -0.63914(17)
N2 N 1.1544(4) -1.0609(3) -0.41567(17)
N3 N 1.1754(4) -0.5229(3) -0.42823(17)
N4 N 1.3761(4) -0.5196(2) -0.65375(17)
C1 C 1.3573(5) -1.1223(3) -0.6936(2)
H1 H 1.3228 -1.1895 -0.6802
C2 C 1.4069(5) -1.1129(3) -0.7678(2)
H2 H 1.4042 -1.1723 -0.8039
C3 C 1.4612(4) -1.0127(2) -0.78822(17)
C4 C 1.4620(5) -0.9274(3) -0.73173(19)
H3 H 1.4997 -0.8593 -0.7430
C5 C 1.4074(5) -0.9436(3) -0.6594(2)
H4 H 1.4058 -0.8855 -0.6227
C6 C 1.5153(4) -0.9956(2) -0.86900(18)
C7 C 1.0900(6) -1.1489(3) -0.3854(2)
H5 H 1.0889 -1.2134 -0.4152
C8 C 1.0252(6) -1.1484(3) -0.3120(2)
H6 H 0.9802 -1.2116 -0.2941
C9 C 1.0269(4) -1.0556(3) -0.26571(18)
C10 C 1.0919(5) -0.9643(3) -0.2962(2)
H7 H 1.0931 -0.8993 -0.2671
C11 C 1.1546(6) -0.9695(3) -0.3693(2)
H8 H 1.1996 -0.9069 -0.3880
C12 C 0.9557(4) -1.0540(3) -0.18447(19)
C13 C 1.1070(6) -0.6171(3) -0.4075(2)
H9 H 1.1065 -0.6771 -0.4428
C14 C 1.0377(5) -0.6286(3) -0.3362(2)
H10 H 0.9926 -0.6954 -0.3240
C15 C 1.0350(4) -0.5410(3) -0.28261(19)
C16 C 1.1050(5) -0.4449(3) -0.3045(2)
H11 H 1.1046 -0.3838 -0.2706
C17 C 1.1752(6) -0.4383(3) -0.3753(2)
H12 H 1.2252 -0.3723 -0.3876
C18 C 0.9580(4) -0.5514(3) -0.20340(19)
C19 C 1.3674(5) -0.6132(3) -0.6952(2)
H13 H 1.3179 -0.6726 -0.6733
C20 C 1.4276(5) -0.6271(3) -0.7687(2)
H14 H 1.4192 -0.6945 -0.7952
C21 C 1.5011(4) -0.5400(2) -0.80336(18)
C22 C 1.5063(5) -0.4423(3) -0.76121(19)
H15 H 1.5523 -0.3817 -0.7823
C23 C 1.4433(5) -0.4353(3) -0.6880(2)
H16 H 1.4473 -0.3688 -0.6607
C24 C 1.5778(4) -0.5515(2) -0.88232(18)
O11 O 1.2996(3) -0.81089(19) -0.96129(14)
H20 H 1.254(3) -0.8350(15) -0.9231(8)
H21 H 1.253(2) -0.7658(10) -0.9789(13)
O12 O 1.8250(3) -0.92775(18) -1.00091(14)
H22 H 1.876(2) -0.929(2) -1.0423(6)
H23 H 1.788(4) -0.9831(9) -0.9838(12)
O13 O 1.4988(3) -0.70970(16) -1.07869(13)
H24 H 1.4044(15) -0.7396(18) -1.1035(13)
H25 H 1.512(4) -0.6458(6) -1.0652(18)
O14 O 1.8634(3) -0.7090(2) -1.04777(13)
H26 H 1.9609(14) -0.689(3) -1.0226(10)
H27 H 1.858(4) -0.6872(14) -1.0900(6)
O15 O 1.8808(3) -0.73992(17) -0.88194(14)
H28 H 1.907(4) -0.6767(6) -0.8667(19)
H29 H 1.9503(16) -0.7804(10) -0.876(2)
Eu1A Eu 1.37362(2) -1.204006(11) -1.019983(8)
O1A O 1.4857(4) -0.92477(18) -1.08241(13)
O9 O 1.3229(5) -1.2734(3) -0.5258(2)
O10 O 1.5499(6) -1.3130(3) -0.4733(3)
C25 C 1.4837(5) -1.2561(3) -0.50706(19)
C26 C 1.5777(6) -1.1714(3) -0.5243(2)
H17 H 1.7012 -1.1659 -0.5060
H18 H 1.5317 -1.1122 -0.5002
H19 H 1.5709 -1.1725 -0.5797
O16 O 1.1815(3) -0.6109(2) -0.97371(14)
H30 H 1.2596(18) -0.5760(16) -0.9964(11)
H31 H 1.131(2) -0.5796(16) -0.9392(10)
O17 O 1.1780(4) -0.7713(2) -1.15937(17)
H32 H 1.1105(16) -0.7303(9) -1.1683(19)
H33 H 1.137(4) -0.8304(7) -1.1487(15)
loop_
_geom_bond_atom_site_label_1
_geom_bond_atom_site_label_2
_geom_bond_site_symmetry_1
_geom_bond_site_symmetry_2
Eu1 O2 1_555 1_555
Ag1 N1 1_555 1_555
Ag2 N3 1_555 1_555
O1 C6 1_555 1_555
O2 C6 1_555 1_555
O3 C12 1_555 1_555
O4 C12 1_555 1_555
O5 C18 1_555 1_555
O6 C18 1_555 1_555
O7 C24 1_555 1_555
O8 Eu1 1_555 1_555
O9 C25 1_555 1_555
O10 C25 1_555 1_555
N1 C1 1_555 1_555
N2 Ag1 1_555 1_555
N3 C13 1_555 1_555
N4 Ag2 1_555 1_555
C1 H1 1_555 1_555
C2 C1 1_555 1_555
H2 C2 1_555 1_555
C3 C2 1_555 1_555
C4 C3 1_555 1_555
H3 C4 1_555 1_555
C5 N1 1_555 1_555
H4 C5 1_555 1_555
C6 C3 1_555 1_555
C7 N2 1_555 1_555
H5 C7 1_555 1_555
C8 C7 1_555 1_555
H6 C8 1_555 1_555
C9 C8 1_555 1_555
C10 C9 1_555 1_555
H7 C10 1_555 1_555
C11 N2 1_555 1_555
H8 C11 1_555 1_555
C12 C9 1_555 1_555
C13 H9 1_555 1_555
C14 C13 1_555 1_555
H10 C14 1_555 1_555
C15 C14 1_555 1_555
C16 C15 1_555 1_555
H11 C16 1_555 1_555
C17 N3 1_555 1_555
H12 C17 1_555 1_555
C18 C15 1_555 1_555
C19 N4 1_555 1_555
H13 C19 1_555 1_555
C20 C19 1_555 1_555
H14 C20 1_555 1_555
C21 C20 1_555 1_555
C22 C21 1_555 1_555
H15 C22 1_555 1_555
C23 N4 1_555 1_555
H16 C23 1_555 1_555
C24 O8 1_555 1_555
C25 C26 1_555 1_555
C26 H17 1_555 1_555
H18 C26 1_555 1_555
H19 C26 1_555 1_555
O11 Eu1 1_555 1_555
H20 O11 1_555 1_555
H21 O11 1_555 1_555
O12 Eu1 1_555 1_555
H22 O12 1_555 1_555
H23 O12 1_555 1_555
O13 Eu1 1_555 1_555
H24 O13 1_555 1_555
H25 O13 1_555 1_555
O14 Eu1 1_555 1_555
H26 O14 1_555 1_555
H27 O14 1_555 1_555
O15 Eu1 1_555 1_555
H28 O15 1_555 1_555
H29 O15 1_555 1_555
O16 H30 1_555 1_555
H31 O16 1_555 1_555
O17 H32 1_555 1_555
H33 O17 1_555 1_555
Eu1A O1 1_555 1_555
O1A Eu1 1_555 1_555
C4 C5 1_555 1_555
C10 C11 1_555 1_555
C16 C17 1_555 1_555
C21 C24 1_555 1_555
C22 C23 1_555 1_555

#END
