
#######################################################################
#
#                 Cambridge Crystallographic Data Centre
#                                CCDC 
#
#######################################################################
#
# If this CIF has been generated from an entry in the Cambridge 
# Structural Database, then it will include bibliographic, chemical, 
# crystal, experimental, refinement or atomic coordinate data resulting 
# from the CCDC's data processing and validation procedures.
#
#######################################################################

data_GUKNAC01
_symmetry_cell_setting           monoclinic
_symmetry_space_group_name_H-M   'P 21/c'
_symmetry_Int_Tables_number      14
_space_group_name_Hall           '-P 2ybc'
loop_
_symmetry_equiv_pos_site_id
_symmetry_equiv_pos_as_xyz
1 x,y,z
2 -x,1/2+y,1/2-z
3 -x,-y,-z
4 x,1/2-y,1/2+z
_cell_length_a                   12.6385(3)
_cell_length_b                   12.3998(3)
_cell_length_c                   12.3670(3)
_cell_angle_alpha                90
_cell_angle_beta                 111.8240(10)
_cell_angle_gamma                90
_cell_volume                     1799.19
loop_
_atom_site_label
_atom_site_type_symbol
_atom_site_fract_x
_atom_site_fract_y
_atom_site_fract_z
Sb1 Sb 0.36761(2) 0.19911(2) 0.23605(2)
Sb2 Sb 0.35795(2) 0.50513(2) 0.23154(2)
Mn1 Mn 0.63455(5) 0.30401(5) 0.27386(5)
Mn2 Mn 0.50022(5) 0.14898(5) 0.00459(5)
S1 S 0.54948(9) 0.18746(9) 0.39449(8)
S2 S 0.43754(9) 0.30341(8) 0.11192(8)
S3 S 0.29858(9) 0.35174(8) 0.32946(9)
S4 S 0.30343(9) 0.64849(8) 0.33432(9)
S5 S 0.55402(9) 0.49255(8) 0.37209(9)
N1 N 0.8091(3) 0.2945(3) 0.4158(3)
N2 N 0.7431(3) 0.4236(3) 0.2249(3)
C1 C 0.8416(4) 0.2278(3) 0.5063(3)
H1 H 0.7861 0.1887 0.5220
C2 C 0.9550(4) 0.2139(4) 0.5783(4)
H2 H 0.9740 0.1655 0.6401
C3 C 1.0386(4) 0.2707(4) 0.5591(4)
H3 H 1.1147 0.2607 0.6066
C4 C 1.0076(4) 0.3450(3) 0.4659(3)
C5 C 0.8909(3) 0.3530(3) 0.3951(3)
C6 C 0.8556(3) 0.4251(3) 0.2970(3)
C7 C 0.9367(4) 0.4923(3) 0.2781(3)
C8 C 0.8982(4) 0.5618(3) 0.1813(4)
H4 H 0.9488 0.6082 0.1661
C9 C 0.7851(4) 0.5604(3) 0.1092(4)
H5 H 0.7585 0.6055 0.0446
C10 C 0.7104(4) 0.4902(3) 0.1341(4)
H6 H 0.6341 0.4901 0.0846
C11 C 1.0879(3) 0.4132(3) 0.4421(3)
H7 H 1.1648 0.4083 0.4888
C12 C 1.0542(4) 0.4841(3) 0.3535(4)
H8 H 1.1079 0.5284 0.3409
Mn1A Mn 0.36545(5) 0.80401(5) 0.22614(5)
Mn2A Mn 0.49978(5) 0.64898(5) 0.49541(5)
Mn2C Mn 0.50022(5) 0.35102(5) 0.50459(5)
S1C S 0.54948(9) 0.31254(9) -0.10551(8)
S3C S 0.29858(9) 0.14826(8) -0.17054(9)
S4A S 0.69657(9) 0.14849(8) 0.16568(9)
S5A S 0.44598(9) -0.00745(8) 0.12791(9)
S5C S 0.55402(9) 0.00745(8) -0.12791(9)
loop_
_geom_bond_atom_site_label_1
_geom_bond_atom_site_label_2
_geom_bond_site_symmetry_1
_geom_bond_site_symmetry_2
Sb1 S1 1_555 1_555
Sb2 S3 1_555 1_555
Mn1 S1 1_555 1_555
Mn2 S2 1_555 1_555
S1 Mn2C 1_555 1_555
S2 Sb1 1_555 1_555
S3 Sb1 1_555 1_555
S4 Sb2 1_555 1_555
S5 Sb2 1_555 1_555
N1 Mn1 1_555 1_555
N2 Mn1 1_555 1_555
C1 N1 1_555 1_555
H1 C1 1_555 1_555
C2 C1 1_555 1_555
H2 C2 1_555 1_555
C3 C2 1_555 1_555
H3 C3 1_555 1_555
C4 C3 1_555 1_555
C5 N1 1_555 1_555
C6 N2 1_555 1_555
C7 C6 1_555 1_555
C8 C7 1_555 1_555
H4 C8 1_555 1_555
C9 C8 1_555 1_555
H5 C9 1_555 1_555
C10 N2 1_555 1_555
H6 C10 1_555 1_555
C11 C4 1_555 1_555
H7 C11 1_555 1_555
C12 C7 1_555 1_555
H8 C12 1_555 1_555
Mn1A S4 1_555 1_555
Mn2A S4 1_555 1_555
Mn2C S3 1_555 1_555
S1C Mn2 1_555 1_555
S3C Mn2 1_555 1_555
S4A Mn1 1_555 1_555
S5A Mn2 1_555 1_555
S5C Mn2 1_555 1_555
Mn1 S2 1_555 1_555
Mn2 S4A 1_555 1_555
S5 Mn2A 1_555 1_555
S5 Mn2C 1_555 1_555
C4 C5 1_555 1_555
C5 C6 1_555 1_555
C9 C10 1_555 1_555
C11 C12 1_555 1_555

#END
