
#######################################################################
#
#                 Cambridge Crystallographic Data Centre
#                                CCDC 
#
#######################################################################
#
# If this CIF has been generated from an entry in the Cambridge 
# Structural Database, then it will include bibliographic, chemical, 
# crystal, experimental, refinement or atomic coordinate data resulting 
# from the CCDC's data processing and validation procedures.
#
#######################################################################

data_GUKQIN
_symmetry_cell_setting           triclinic
_symmetry_space_group_name_H-M   'P -1'
_symmetry_Int_Tables_number      2
_space_group_name_Hall           '-P 1'
loop_
_symmetry_equiv_pos_site_id
_symmetry_equiv_pos_as_xyz
1 x,y,z
2 -x,-y,-z
_cell_length_a                   7.2552(3)
_cell_length_b                   9.6285(3)
_cell_length_c                   13.7303(8)
_cell_angle_alpha                96.583(4)
_cell_angle_beta                 100.335(4)
_cell_angle_gamma                92.878(3)
_cell_volume                     934.909
loop_
_atom_site_label
_atom_site_type_symbol
_atom_site_fract_x
_atom_site_fract_y
_atom_site_fract_z
C1 C 0.624(2) 0.9654(15) 0.7083(11)
H1 H 0.6874 1.0557 0.7283
C2 C 1.0317(18) 2.0903(14) 0.6200(10)
H2 H 0.9205 2.0380 0.5847
C3 C 0.507(2) 0.9393(15) 0.6166(11)
H3 H 0.4851 1.0102 0.5740
C4 C 1.0485(18) 1.2511(13) 0.9245(10)
C5 C 1.1654(17) 1.6237(13) 0.8774(10)
C6 C 1.0619(17) 1.6235(13) 0.7813(10)
H4 H 1.0652 1.7055 0.7490
C7 C 0.9534(17) 1.3874(13) 0.7821(10)
H5 H 0.8793 1.3051 0.7502
C8 C 1.1684(17) 1.5051(14) 0.9237(10)
H6 H 1.2464 1.5051 0.9872
C9 C 1.1095(18) 2.1984(13) 0.5819(10)
H7 H 1.0502 2.2199 0.5184
C10 C 1.0610(17) 1.3877(13) 0.8797(10)
C11 C 1.2792(18) 1.7568(13) 0.9297(10)
C12 C 0.557(2) 0.7424(14) 0.7393(10)
C13 C 1.1204(19) 2.0590(14) 0.7121(10)
H8 H 1.0692 1.9841 0.7406
C14 C 0.8305(19) 1.5052(14) 0.6332(10)
C15 C 1.3452(18) 2.2397(13) 0.7186(10)
C16 C 0.422(2) 0.8040(15) 0.5890(11)
H9 H 0.3430 0.7819 0.5254
C17 C 0.9548(17) 1.5048(13) 0.7331(10)
O1 O 1.2495(15) 1.8645(9) 0.8904(8)
O2 O 0.9274(14) 1.1584(10) 0.8810(8)
O3 O 1.1634(14) 1.2453(10) 1.0046(7)
O4 O 0.6981(13) 1.4101(9) 0.6061(7)
O5 O 0.8585(16) 1.5969(12) 0.5830(8)
O6 O 1.3926(14) 1.7499(10) 1.0080(7)
N1 N 0.5750(17) 0.6487(11) 0.8041(9)
H10 H 0.6452 0.6698 0.8620
H11 H 0.5165 0.5671 0.7880
N2 N 1.2644(16) 2.2759(12) 0.6286(9)
N3 N 0.6516(15) 0.8681(11) 0.7699(9)
N4 N 1.5107(16) 2.3119(12) 0.7646(9)
H12 H 1.5708 2.2894 0.8198
H13 H 1.5548 2.3800 0.7382
N5 N 0.4480(17) 0.7048(13) 0.6489(9)
N6 N 1.2787(16) 2.1337(11) 0.7619(8)
Ag1 Ag 0.85359(17) 0.94813(11) 0.92202(8)
Ag2 Ag 1.41610(15) 2.06935(10) 0.92066(8)
Ag3 Ag 0.64976(18) 1.51690(12) 0.42631(9)
O3A O 0.8366(14) 0.7547(10) 0.9954(7)
O6A O 1.6074(14) 2.2501(10) 0.9920(7)
N2A N 0.7356(16) 1.7241(12) 0.3714(9)
N5A N 0.5520(17) 1.2952(13) 0.3511(9)
Ag1A Ag 1.14641(17) 1.05187(11) 1.07798(8)
Ag2A Ag 1.58390(15) 1.93065(10) 1.07934(8)
Ag3A Ag 1.35024(18) 2.48310(12) 0.57369(9)
Ag3A_2 Ag 0.35024(18) 0.48310(12) 0.57369(9)
loop_
_geom_bond_atom_site_label_1
_geom_bond_atom_site_label_2
_geom_bond_site_symmetry_1
_geom_bond_site_symmetry_2
C1 H1 1_555 1_555
C2 H2 1_555 1_555
C3 C1 1_555 1_555
H3 C3 1_555 1_555
C4 C10 1_555 1_555
C5 C6 1_555 1_555
C6 H4 1_555 1_555
C7 H5 1_555 1_555
C8 C5 1_555 1_555
H6 C8 1_555 1_555
C9 C2 1_555 1_555
H7 C9 1_555 1_555
C10 C7 1_555 1_555
C11 C5 1_555 1_555
C12 N1 1_555 1_555
C13 C2 1_555 1_555
H8 C13 1_555 1_555
C14 C17 1_555 1_555
C15 N2 1_555 1_555
C16 C3 1_555 1_555
H9 C16 1_555 1_555
C17 C6 1_555 1_555
O1 C11 1_555 1_555
O2 C4 1_555 1_555
O3 C4 1_555 1_555
O4 C14 1_555 1_555
O5 C14 1_555 1_555
O6 C11 1_555 1_555
N1 H10 1_555 1_555
H11 N1 1_555 1_555
N2 C9 1_555 1_555
N3 C1 1_555 1_555
N4 C15 1_555 1_555
H12 N4 1_555 1_555
H13 N4 1_555 1_555
N5 C12 1_555 1_555
N6 C13 1_555 1_555
Ag1 O2 1_555 1_555
Ag2 O1 1_555 1_555
Ag3 O5 1_555 1_555
O3A Ag1 1_555 1_555
O6A Ag2 1_555 1_555
N2A Ag3 1_555 1_555
N5A Ag3 1_555 1_555
Ag1A O3 1_555 1_555
Ag2A O6 1_555 1_555
Ag3A N2 1_555 1_555
Ag3A_2 N5 1_555 1_555
C7 C17 1_555 1_555
C8 C10 1_555 1_555
C12 N3 1_555 1_555
C15 N6 1_555 1_555
C16 N5 1_555 1_555
N3 Ag1 1_555 1_555
N6 Ag2 1_555 1_555

#END
