
#######################################################################
#
#                 Cambridge Crystallographic Data Centre
#                                CCDC 
#
#######################################################################
#
# If this CIF has been generated from an entry in the Cambridge 
# Structural Database, then it will include bibliographic, chemical, 
# crystal, experimental, refinement or atomic coordinate data resulting 
# from the CCDC's data processing and validation procedures.
#
#######################################################################

data_GUKRAG
_symmetry_cell_setting           monoclinic
_symmetry_space_group_name_H-M   'C 2/m'
_symmetry_Int_Tables_number      12
_space_group_name_Hall           '-C 2y'
loop_
_symmetry_equiv_pos_site_id
_symmetry_equiv_pos_as_xyz
1 x,y,z
2 -x,y,-z
3 1/2+x,1/2+y,z
4 1/2-x,1/2+y,-z
5 -x,-y,-z
6 x,-y,z
7 1/2-x,1/2-y,-z
8 1/2+x,1/2-y,z
_cell_length_a                   7.6483(19)
_cell_length_b                   8.299(2)
_cell_length_c                   5.4943(11)
_cell_angle_alpha                90
_cell_angle_beta                 108.586(12)
_cell_angle_gamma                90
_cell_volume                     330.553
loop_
_atom_site_label
_atom_site_type_symbol
_atom_site_fract_x
_atom_site_fract_y
_atom_site_fract_z
Co1 Co 0.5000 1.0000 0.5000
O1 O 0.4974(2) 0.8376(2) 0.2022(3)
N1 N 0.7978(4) 1.0000 0.6343(6)
H1 H 0.8362 1.0892 0.7370
C1 C 0.5000 0.9057(5) 0.0000
C2 C 0.8954(5) 1.0000 0.4400(7)
H2 H 0.8577 1.0964 0.3295
Co1_2 Co 0.5000 1.0000 -0.5000
Co1_3 Co 1.5000 1.0000 0.5000
O1A O 0.5026(2) 0.8376(2) -0.2022(3)
O1D O 0.5026(2) 1.1624(2) -0.2022(3)
O1E O 0.4974(2) 1.1624(2) 0.2022(3)
O1A_2 O 0.5026(2) 0.8376(2) 0.7978(3)
O1D_2 O 0.5026(2) 1.1624(2) 0.7978(3)
N1A N 1.2022(4) 1.0000 0.3657(6)
N1A_2 N 0.2022(4) 1.0000 0.3657(6)
H1A H 1.1638 1.0892 0.2630
H1D H 1.1638 0.9108 0.2630
H1E H 0.8362 0.9108 0.7370
C1D C 0.5000 1.0943(5) 0.0000
C2A C 1.1046(5) 1.0000 0.5600(7)
H2A H 1.1423 1.0964 0.6705
H2D H 1.1423 0.9036 0.6705
H2E H 0.8577 0.9036 0.3295
loop_
_geom_bond_atom_site_label_1
_geom_bond_atom_site_label_2
_geom_bond_site_symmetry_1
_geom_bond_site_symmetry_2
Co1 O1 1_555 1_555
O1 C1 1_555 1_555
N1 Co1 1_555 1_555
H1 N1 1_555 1_555
C1 O1A 1_555 1_555
C2 N1 1_555 1_555
H2 C2 1_555 1_555
Co1_2 O1A 1_555 1_555
Co1_3 N1A 1_555 1_555
O1D Co1_2 1_555 1_555
O1E Co1 1_555 1_555
O1A_2 Co1 1_555 1_555
O1D_2 Co1 1_555 1_555
N1A H1A 1_555 1_555
N1A_2 Co1 1_555 1_555
H1D N1A 1_555 1_555
H1E N1 1_555 1_555
C1D C1 1_555 1_555
C2A C2 1_555 1_555
H2A C2A 1_555 1_555
H2D C2A 1_555 1_555
H2E C2 1_555 1_555
O1D C1D 1_555 1_555
O1E C1D 1_555 1_555
N1A C2A 1_555 1_555

#END
