
#######################################################################
#
#                 Cambridge Crystallographic Data Centre
#                                CCDC 
#
#######################################################################
#
# If this CIF has been generated from an entry in the Cambridge 
# Structural Database, then it will include bibliographic, chemical, 
# crystal, experimental, refinement or atomic coordinate data resulting 
# from the CCDC's data processing and validation procedures.
#
#######################################################################

data_GUKYAN
_symmetry_cell_setting           triclinic
_symmetry_space_group_name_H-M   'P -1'
_symmetry_Int_Tables_number      2
_space_group_name_Hall           '-P 1'
loop_
_symmetry_equiv_pos_site_id
_symmetry_equiv_pos_as_xyz
1 x,y,z
2 -x,-y,-z
_cell_length_a                   13.779(3)
_cell_length_b                   14.154(3)
_cell_length_c                   14.472(3)
_cell_angle_alpha                63.838(3)
_cell_angle_beta                 86.871(3)
_cell_angle_gamma                65.200(3)
_cell_volume                     2270.04
loop_
_atom_site_label
_atom_site_type_symbol
_atom_site_fract_x
_atom_site_fract_y
_atom_site_fract_z
Cu3 Cu 0.68764(18) 0.7604(2) 0.6488(2)
N5 N 0.6131(12) 0.8257(13) 0.7388(11)
N6 N 0.5318(10) 0.8486(11) 0.5635(10)
N7 N 0.8036(13) 0.6694(12) 0.6028(13)
C21 C 0.6541(16) 0.826(2) 0.8222(18)
H17 H 0.7292 0.7890 0.8398
C22 C 0.600(2) 0.873(2) 0.8806(15)
H18 H 0.6345 0.8633 0.9398
C23 C 0.484(2) 0.941(2) 0.849(2)
H19 H 0.4417 0.9825 0.8828
C24 C 0.4390(16) 0.9418(17) 0.7665(17)
H20 H 0.3641 0.9783 0.7479
C25 C 0.5027(12) 0.8898(12) 0.7118(12)
C26 C 0.4572(12) 0.8970(13) 0.6136(13)
C27 C 0.3468(13) 0.9553(14) 0.5752(14)
H21 H 0.2949 0.9864 0.6108
C28 C 0.3195(17) 0.9639(17) 0.4786(18)
H22 H 0.2472 1.0049 0.4476
C29 C 0.392(2) 0.916(2) 0.431(2)
H23 H 0.3714 0.9221 0.3679
C30 C 0.4999(16) 0.8571(15) 0.4738(14)
H24 H 0.5511 0.8227 0.4397
C31 C 0.868(2) 0.711(2) 0.5434(19)
H25 H 0.8648 0.7812 0.5351
C32 C 0.941(2) 0.654(2) 0.494(2)
H26 H 0.9769 0.6895 0.4444
C33 C 0.9570(15) 0.5359(16) 0.5224(15)
C34 C 0.9227(13) 0.4841(14) 0.6114(14)
H27 H 0.9520 0.4028 0.6485
C35 C 0.8433(13) 0.5534(13) 0.6469(13)
H28 H 0.8159 0.5167 0.7050
Cu3A Cu 1.31236(18) 0.2396(2) 0.3512(2)
N5A N 1.3869(12) 0.1743(13) 0.2612(11)
N6A N 1.4682(10) 0.1514(11) 0.4365(10)
N7A N 1.1964(13) 0.3306(12) 0.3972(13)
C21A C 1.3459(16) 0.174(2) 0.1778(18)
H17A H 1.2708 0.2110 0.1602
C22A C 1.400(2) 0.127(2) 0.1194(15)
H18A H 1.3655 0.1367 0.0602
C23A C 1.516(2) 0.059(2) 0.151(2)
H19A H 1.5583 0.0175 0.1172
C24A C 1.5610(16) 0.0582(17) 0.2335(17)
H20A H 1.6359 0.0217 0.2521
C25A C 1.4973(12) 0.1102(12) 0.2882(12)
C26A C 1.5428(12) 0.1030(13) 0.3864(13)
C27A C 1.6532(13) 0.0447(14) 0.4248(14)
H21A H 1.7051 0.0136 0.3892
C28A C 1.6805(17) 0.0361(17) 0.5214(18)
H22A H 1.7528 -0.0049 0.5524
C29A C 1.608(2) 0.084(2) 0.569(2)
H23A H 1.6286 0.0779 0.6321
C30A C 1.5001(16) 0.1429(15) 0.5262(14)
H24A H 1.4489 0.1773 0.5603
C31A C 1.132(2) 0.289(2) 0.4566(19)
H25A H 1.1352 0.2188 0.4649
C32A C 1.059(2) 0.346(2) 0.506(2)
H26A H 1.0231 0.3105 0.5556
C33A C 1.0430(15) 0.4641(16) 0.4776(15)
C34A C 1.0773(13) 0.5159(14) 0.3886(14)
H27A H 1.0480 0.5972 0.3515
C35A C 1.1567(13) 0.4466(13) 0.3531(13)
H28A H 1.1841 0.4833 0.2950
W1 W 1.07723(5) 0.71220(5) 0.05008(4)
W2 W 1.18534(5) 1.11949(5) -0.07412(5)
W3 W 0.82969(4) 1.22986(5) -0.22995(4)
W4 W 1.26944(4) 0.82337(5) -0.00589(4)
W5 W 1.09111(5) 1.04279(5) -0.23652(4)
W6 W 0.89210(5) 0.94191(5) -0.17207(4)
Cu1 Cu 0.40366(17) 0.67442(18) 0.50833(15)
Cu2 Cu 1.0000 0.5000 0.0000
B1 B 1.0000 1.0000 0.0000
N1 N 0.2634(10) 0.7384(11) 0.5579(9)
N2 N 0.4652(10) 0.6112(11) 0.6705(10)
N3 N 0.4986(9) 0.6470(10) 0.4112(9)
N4 N 0.8919(10) 0.5218(12) 0.0874(11)
C1 C 0.1621(15) 0.8001(16) 0.4984(14)
H1 H 0.1551 0.8191 0.4281
C2 C 0.0749(14) 0.8322(15) 0.5413(13)
H2 H 0.0069 0.8701 0.5012
C3 C 0.0818(14) 0.8110(16) 0.6433(15)
H3 H 0.0196 0.8332 0.6726
C4 C 0.1792(13) 0.7582(16) 0.6992(14)
H4 H 0.1850 0.7469 0.7674
C5 C 0.2721(11) 0.7196(12) 0.6582(10)
C6 C 0.3849(13) 0.6574(11) 0.7166(10)
C7 C 0.4063(14) 0.6552(14) 0.8105(11)
H5 H 0.3507 0.6947 0.8381
C8 C 0.5105(15) 0.5940(16) 0.8615(12)
H6 H 0.5268 0.5855 0.9271
C9 C 0.5925(15) 0.5440(16) 0.8118(15)
H7 H 0.6649 0.5050 0.8421
C10 C 0.5639(14) 0.5538(15) 0.7200(13)
H8 H 0.6183 0.5172 0.6896
C11 C 0.5981(15) 0.5659(14) 0.4486(13)
H9 H 0.6177 0.5235 0.5207
C12 C 0.6767(12) 0.5383(14) 0.3884(11)
H10 H 0.7470 0.4810 0.4197
C13 C 0.6485(11) 0.5979(12) 0.2805(10)
C14 C 0.5469(13) 0.6802(13) 0.2391(12)
H11 H 0.5255 0.7225 0.1672
C15 C 0.4736(11) 0.7015(12) 0.3062(11)
H12 H 0.4025 0.7572 0.2765
C16 C 0.7330(12) 0.5680(12) 0.2151(10)
C17 C 0.8412(13) 0.5356(15) 0.2440(14)
H13 H 0.8626 0.5302 0.3067
C18 C 0.9186(12) 0.5108(16) 0.1809(12)
H14 H 0.9907 0.4860 0.2043
C19 C 0.7055(14) 0.5796(15) 0.1166(12)
H15 H 0.6340 0.6050 0.0906
C20 C 0.7863(15) 0.5526(15) 0.0610(14)
H16 H 0.7672 0.5557 -0.0013
O1 O 1.1135(9) 0.5722(8) 0.0804(8)
O2 O 1.2756(7) 1.1725(9) -0.1062(9)
O3 O 0.7453(9) 1.3411(11) -0.3415(9)
O4 O 1.3978(8) 0.7357(10) -0.0084(8)
O5 O 1.1320(10) 1.0714(9) -0.3543(9)
O6 O 0.8429(8) 0.9138(9) -0.2575(8)
O7 O 1.0079(8) 0.9683(11) -0.2428(13)
O8 O 1.0039(11) 0.7917(12) -0.0833(11)
O9 O 1.2819(12) 0.9571(10) -0.0244(10)
O10 O 1.2100(11) 0.9047(10) -0.1517(10)
O11 O 1.1510(10) 1.1248(9) -0.2001(10)
O12 O 0.8102(9) 1.1044(10) -0.2344(12)
O13 O 1.2768(9) 0.7710(11) 0.1364(8)
O14 O 1.1282(9) 0.6894(10) 0.1809(9)
O15 O 0.9598(8) 1.1842(10) -0.2828(12)
O16 O 0.8044(12) 0.9170(13) -0.0705(12)
O17 O 0.9405(12) 0.7460(13) 0.0982(12)
O18 O 1.2016(9) 0.7249(10) 0.0029(8)
O19 O 1.0898(14) 0.8812(15) 0.0484(14)
O20 O 0.9622(15) 0.9125(16) -0.0087(14)
O21 O 1.0977(14) 0.9947(15) -0.0578(14)
O22 O 0.9674(14) 1.0454(15) -0.1143(14)
W1A W 0.92277(5) 1.28780(5) -0.05008(4)
W2A W 0.81466(5) 0.88051(5) 0.07412(5)
W3A W 1.17031(4) 0.77014(5) 0.22995(4)
W4A W 0.73056(4) 1.17663(5) 0.00589(4)
W5A W 0.90889(5) 0.95721(5) 0.23652(4)
W6A W 1.10790(5) 1.05809(5) 0.17207(4)
Cu1A Cu 1.59634(17) 0.32558(18) -0.50833(15)
Cu2_2 Cu 1.0000 1.5000 0.0000
N1A N 1.7366(10) 0.2616(11) -0.5579(9)
N2A N 1.5348(10) 0.3888(11) -0.6705(10)
N3A N 1.5014(9) 0.3530(10) -0.4112(9)
N4A N 1.1081(10) 0.4782(12) -0.0874(11)
C1A C 1.8379(15) 0.1999(16) -0.4984(14)
H1A H 1.8449 0.1809 -0.4281
C2A C 1.9251(14) 0.1678(15) -0.5413(13)
H2A H 1.9931 0.1299 -0.5012
C3A C 1.9182(14) 0.1890(16) -0.6433(15)
H3A H 1.9804 0.1668 -0.6726
C4A C 1.8208(13) 0.2418(16) -0.6992(14)
H4A H 1.8150 0.2531 -0.7674
C5A C 1.7279(11) 0.2804(12) -0.6582(10)
C6A C 1.6151(13) 0.3426(11) -0.7166(10)
C7A C 1.5937(14) 0.3448(14) -0.8105(11)
H5A H 1.6493 0.3053 -0.8381
C8A C 1.4895(15) 0.4060(16) -0.8615(12)
H6A H 1.4732 0.4145 -0.9271
C9A C 1.4075(15) 0.4560(16) -0.8118(15)
H7A H 1.3351 0.4950 -0.8421
C10A C 1.4361(14) 0.4462(15) -0.7200(13)
H8A H 1.3817 0.4828 -0.6896
C11A C 1.4019(15) 0.4341(14) -0.4486(13)
H9A H 1.3823 0.4765 -0.5207
C12A C 1.3233(12) 0.4617(14) -0.3884(11)
H10A H 1.2530 0.5190 -0.4197
C13A C 1.3515(11) 0.4021(12) -0.2805(10)
C14A C 1.4531(13) 0.3198(13) -0.2391(12)
H11A H 1.4745 0.2775 -0.1672
C15A C 1.5264(11) 0.2985(12) -0.3062(11)
H12A H 1.5975 0.2428 -0.2765
C16A C 1.2670(12) 0.4320(12) -0.2151(10)
C17A C 1.1588(13) 0.4644(15) -0.2440(14)
H13A H 1.1374 0.4698 -0.3067
C18A C 1.0814(12) 0.4892(16) -0.1809(12)
H14A H 1.0093 0.5140 -0.2043
C19A C 1.2945(14) 0.4204(15) -0.1166(12)
H15A H 1.3660 0.3950 -0.0906
C20A C 1.2137(15) 0.4474(15) -0.0610(14)
H16A H 1.2328 0.4443 0.0013
O1A O 0.8865(9) 0.4278(8) -0.0804(8)
O1A_2 O 0.8865(9) 1.4278(8) -0.0804(8)
O2A O 0.7244(7) 0.8275(9) 0.1062(9)
O3A O 1.2547(9) 0.6589(11) 0.3415(9)
O4A O 0.6022(8) 1.2643(10) 0.0084(8)
O5A O 0.8680(10) 0.9286(9) 0.3543(9)
O6A O 1.1571(8) 1.0862(9) 0.2575(8)
O7A O 0.9921(8) 1.0317(11) 0.2428(13)
O8A O 0.9961(11) 1.2083(12) 0.0833(11)
O9A O 0.7181(12) 1.0429(10) 0.0244(10)
O10A O 0.7900(11) 1.0953(10) 0.1517(10)
O11A O 0.8490(10) 0.8752(9) 0.2001(10)
O12A O 1.1898(9) 0.8956(10) 0.2344(12)
O13A O 0.7232(9) 1.2290(11) -0.1364(8)
O14A O 0.8718(9) 1.3106(10) -0.1809(9)
O15A O 1.0402(8) 0.8158(10) 0.2828(12)
O16A O 1.1956(12) 1.0830(13) 0.0705(12)
O17A O 1.0595(12) 1.2540(13) -0.0982(12)
O18A O 0.7984(9) 1.2751(10) -0.0029(8)
O19A O 0.9102(14) 1.1188(15) -0.0484(14)
O20A O 1.0378(15) 1.0875(16) 0.0087(14)
O21A O 0.9023(14) 1.0053(15) 0.0578(14)
O22A O 1.0326(14) 0.9546(15) 0.1143(14)
loop_
_geom_bond_atom_site_label_1
_geom_bond_atom_site_label_2
_geom_bond_site_symmetry_1
_geom_bond_site_symmetry_2
W1 O1 1_555 1_555
W2 O2 1_555 1_555
W3 O3 1_555 1_555
W4 O4 1_555 1_555
W5 O5 1_555 1_555
W6 O6 1_555 1_555
Cu1 N1 1_555 1_555
Cu2 N4 1_555 1_555
Cu3 N5 1_555 1_555
B1 O19 1_555 1_555
N1 C1 1_555 1_555
N2 Cu1 1_555 1_555
N3 Cu1 1_555 1_555
N4 C18 1_555 1_555
N5 C21 1_555 1_555
N6 Cu3 1_555 1_555
N7 Cu3 1_555 1_555
C1 H1 1_555 1_555
C2 C1 1_555 1_555
H2 C2 1_555 1_555
C3 C2 1_555 1_555
H3 C3 1_555 1_555
C4 C3 1_555 1_555
H4 C4 1_555 1_555
C5 N1 1_555 1_555
C6 N2 1_555 1_555
C7 C6 1_555 1_555
H5 C7 1_555 1_555
C8 C7 1_555 1_555
H6 C8 1_555 1_555
C9 C8 1_555 1_555
H7 C9 1_555 1_555
C10 N2 1_555 1_555
H8 C10 1_555 1_555
C11 N3 1_555 1_555
H9 C11 1_555 1_555
C12 C11 1_555 1_555
H10 C12 1_555 1_555
C13 C12 1_555 1_555
C14 C13 1_555 1_555
H11 C14 1_555 1_555
C15 N3 1_555 1_555
H12 C15 1_555 1_555
C16 C13 1_555 1_555
C17 C16 1_555 1_555
H13 C17 1_555 1_555
C18 C17 1_555 1_555
H14 C18 1_555 1_555
C19 C16 1_555 1_555
H15 C19 1_555 1_555
C20 N4 1_555 1_555
H16 C20 1_555 1_555
C21 H17 1_555 1_555
C22 C21 1_555 1_555
H18 C22 1_555 1_555
C23 C22 1_555 1_555
H19 C23 1_555 1_555
C24 C23 1_555 1_555
H20 C24 1_555 1_555
C25 N5 1_555 1_555
C26 N6 1_555 1_555
C27 C26 1_555 1_555
H21 C27 1_555 1_555
C28 C27 1_555 1_555
H22 C28 1_555 1_555
C29 C28 1_555 1_555
H23 C29 1_555 1_555
C30 N6 1_555 1_555
H24 C30 1_555 1_555
C31 N7 1_555 1_555
H25 C31 1_555 1_555
C32 C31 1_555 1_555
H26 C32 1_555 1_555
C33 C32 1_555 1_555
C34 C33 1_555 1_555
H27 C34 1_555 1_555
C35 N7 1_555 1_555
H28 C35 1_555 1_555
O1 Cu2 1_555 1_555
O7 W5 1_555 1_555
O8 W1 1_555 1_555
O9 W2 1_555 1_555
O10 W4 1_555 1_555
O11 W2 1_555 1_555
O12 W3 1_555 1_555
O13 W4 1_555 1_555
O14 W1 1_555 1_555
O15 W3 1_555 1_555
O16 W6 1_555 1_555
O17 W1 1_555 1_555
O18 W1 1_555 1_555
O19 W1 1_555 1_555
O20 W1 1_555 1_555
O21 W2 1_555 1_555
O22 W3 1_555 1_555
W1A O1A_2 1_555 1_555
W2A O16 1_555 1_555
W3A O13 1_555 1_555
W4A O4A 1_555 1_555
W5A O5A 1_555 1_555
W6A O6A 1_555 1_555
Cu1A N1A 1_555 1_555
Cu2_2 O1A_2 1_555 1_555
Cu3A N5A 1_555 1_555
N1A C1A 1_555 1_555
N2A Cu1A 1_555 1_555
N3A Cu1A 1_555 1_555
N4A Cu2 1_555 1_555
N5A C21A 1_555 1_555
N6A Cu3A 1_555 1_555
N7A Cu3A 1_555 1_555
C1A H1A 1_555 1_555
C2A C1A 1_555 1_555
H2A C2A 1_555 1_555
C3A C2A 1_555 1_555
H3A C3A 1_555 1_555
C4A C3A 1_555 1_555
H4A C4A 1_555 1_555
C5A N1A 1_555 1_555
C6A N2A 1_555 1_555
C7A C6A 1_555 1_555
H5A C7A 1_555 1_555
C8A C7A 1_555 1_555
H6A C8A 1_555 1_555
C9A C8A 1_555 1_555
H7A C9A 1_555 1_555
C10A N2A 1_555 1_555
H8A C10A 1_555 1_555
C11A N3A 1_555 1_555
H9A C11A 1_555 1_555
C12A C11A 1_555 1_555
H10A C12A 1_555 1_555
C13A C12A 1_555 1_555
C14A C13A 1_555 1_555
H11A C14A 1_555 1_555
C15A N3A 1_555 1_555
H12A C15A 1_555 1_555
C16A C13A 1_555 1_555
C17A C16A 1_555 1_555
H13A C17A 1_555 1_555
C18A N4A 1_555 1_555
H14A C18A 1_555 1_555
C19A C16A 1_555 1_555
H15A C19A 1_555 1_555
C20A N4A 1_555 1_555
H16A C20A 1_555 1_555
C21A H17A 1_555 1_555
C22A C21A 1_555 1_555
H18A C22A 1_555 1_555
C23A C22A 1_555 1_555
H19A C23A 1_555 1_555
C24A C23A 1_555 1_555
H20A C24A 1_555 1_555
C25A N5A 1_555 1_555
C26A N6A 1_555 1_555
C27A C26A 1_555 1_555
H21A C27A 1_555 1_555
C28A C27A 1_555 1_555
H22A C28A 1_555 1_555
C29A C28A 1_555 1_555
H23A C29A 1_555 1_555
C30A N6A 1_555 1_555
H24A C30A 1_555 1_555
C31A N7A 1_555 1_555
H25A C31A 1_555 1_555
C32A C31A 1_555 1_555
H26A C32A 1_555 1_555
C33A C33 1_555 1_555
C34A C33A 1_555 1_555
H27A C34A 1_555 1_555
C35A N7A 1_555 1_555
H28A C35A 1_555 1_555
O1A Cu2 1_555 1_555
O2A W2A 1_555 1_555
O3A W3A 1_555 1_555
O7A W5A 1_555 1_555
O8A W1A 1_555 1_555
O9A W2A 1_555 1_555
O10A W4A 1_555 1_555
O11A W2A 1_555 1_555
O12A W3A 1_555 1_555
O13A W3 1_555 1_555
O14A W3 1_555 1_555
O15A W3A 1_555 1_555
O16A W2 1_555 1_555
O17A W2 1_555 1_555
O18A W1A 1_555 1_555
O19A W3 1_555 1_555
O20A W2 1_555 1_555
O21A B1 1_555 1_555
O22A B1 1_555 1_555
W4 O9 1_555 1_555
W4 O18 1_555 1_555
W4 O19 1_555 1_555
W4 O21 1_555 1_555
W5 O10 1_555 1_555
W5 O11 1_555 1_555
W5 O15 1_555 1_555
W5 O21 1_555 1_555
W5 O22 1_555 1_555
W6 O7 1_555 1_555
W6 O8 1_555 1_555
W6 O12 1_555 1_555
W6 O20 1_555 1_555
B1 O20 1_555 1_555
B1 O21 1_555 1_555
B1 O22 1_555 1_555
B1 O19A 1_555 1_555
B1 O20A 1_555 1_555
C4 C5 1_555 1_555
C5 C6 1_555 1_555
C9 C10 1_555 1_555
C14 C15 1_555 1_555
C19 C20 1_555 1_555
C24 C25 1_555 1_555
C25 C26 1_555 1_555
C29 C30 1_555 1_555
C34 C35 1_555 1_555
O14 W3A 1_555 1_555
O17 W2A 1_555 1_555
O19 O20 1_555 1_555
O19 O21 1_555 1_555
O19 W3A 1_555 1_555
O19 O22A 1_555 1_555
O20 W2A 1_555 1_555
O21 O22 1_555 1_555
O22 O19A 1_555 1_555
W1A O14A 1_555 1_555
W1A O17A 1_555 1_555
W1A O19A 1_555 1_555
W1A O20A 1_555 1_555
W2A O21A 1_555 1_555
W3A O22A 1_555 1_555
W4A O9A 1_555 1_555
W4A O13A 1_555 1_555
W4A O18A 1_555 1_555
W4A O19A 1_555 1_555
W4A O21A 1_555 1_555
W5A O10A 1_555 1_555
W5A O11A 1_555 1_555
W5A O15A 1_555 1_555
W5A O21A 1_555 1_555
W5A O22A 1_555 1_555
W6A O7A 1_555 1_555
W6A O8A 1_555 1_555
W6A O12A 1_555 1_555
W6A O16A 1_555 1_555
W6A O20A 1_555 1_555
C4A C5A 1_555 1_555
C5A C6A 1_555 1_555
C9A C10A 1_555 1_555
C14A C15A 1_555 1_555
C17A C18A 1_555 1_555
C19A C20A 1_555 1_555
C24A C25A 1_555 1_555
C25A C26A 1_555 1_555
C29A C30A 1_555 1_555
C32A C33A 1_555 1_555
C34A C35A 1_555 1_555
O19A O20A 1_555 1_555
O19A O21A 1_555 1_555
O21A O22A 1_555 1_555

#END
