
#######################################################################
#
#                 Cambridge Crystallographic Data Centre
#                                CCDC 
#
#######################################################################
#
# If this CIF has been generated from an entry in the Cambridge 
# Structural Database, then it will include bibliographic, chemical, 
# crystal, experimental, refinement or atomic coordinate data resulting 
# from the CCDC's data processing and validation procedures.
#
#######################################################################

data_GUKZIW
_symmetry_cell_setting           triclinic
_symmetry_space_group_name_H-M   'P -1'
_symmetry_Int_Tables_number      2
_space_group_name_Hall           '-P 1'
loop_
_symmetry_equiv_pos_site_id
_symmetry_equiv_pos_as_xyz
1 x,y,z
2 -x,-y,-z
_cell_length_a                   10.585(5)
_cell_length_b                   12.066(5)
_cell_length_c                   13.480(4)
_cell_angle_alpha                95.530(17)
_cell_angle_beta                 104.492(16)
_cell_angle_gamma                103.006(18)
_cell_volume                     1602.69
loop_
_atom_site_label
_atom_site_type_symbol
_atom_site_fract_x
_atom_site_fract_y
_atom_site_fract_z
Cd1 Cd 0.13801(2) 0.79750(2) 0.263838(18)
Cd2 Cd -0.43580(2) 1.30065(2) -0.216890(18)
Cd3 Cd -0.21265(2) 0.74748(2) 0.262010(19)
O1 O 0.0227(3) 0.8022(2) 0.10098(19)
O2 O -0.1849(3) 0.7997(3) 0.1114(2)
O3 O -0.5584(3) 1.0146(3) -0.3578(3)
O4 O -0.3610(3) 1.1327(2) -0.2672(2)
O5 O 0.0053(3) 1.1382(2) -0.3395(2)
O6 O 0.0898(3) 0.9967(3) -0.3866(2)
O7 O 0.0099(3) 0.5195(2) 0.1214(2)
O8 O 0.2087(3) 0.6424(2) 0.1974(2)
O9 O 0.5913(3) 0.6085(2) 0.1793(2)
O10 O 0.6498(3) 0.4637(3) 0.1063(3)
O11 O 0.4911(3) 0.2974(2) 0.6130(2)
O12 O 0.2754(3) 0.2993(3) 0.5966(2)
O13 O 0.2470(5) 0.7491(5) 0.4182(3)
H1 H 0.234(7) 0.787(6) 0.470(4)
H2 H 0.328(3) 0.745(7) 0.434(5)
O14 O -0.3930(3) 1.2786(3) -0.0473(2)
H3 H -0.409(5) 1.329(4) -0.007(4)
H4 H -0.310(2) 1.280(5) -0.024(4)
O15 O -0.6303(3) 1.1463(2) -0.2295(2)
H5 H -0.614(5) 1.119(4) -0.174(2)
H6 H -0.629(5) 1.103(3) -0.280(2)
O16 O -0.0612(3) 0.6347(3) 0.2648(3)
H7 H -0.132(4) 0.582(4) 0.222(3)
H8 H -0.058(6) 0.604(4) 0.321(2)
N1 N -0.2228(3) 0.9765(2) -0.3244(2)
N2 N 0.3402(3) 0.4691(2) 0.1725(2)
C1 C -0.0060(4) 1.0321(3) -0.3724(2)
C2 C -0.1443(4) 0.9499(3) -0.3958(3)
H13 H -0.1339 0.8707 -0.3924
H14 H -0.1960 0.9515 -0.4676
C3 C -0.0328(3) 0.8829(3) -0.0906(3)
H15 H 0.0564 0.8767 -0.0614
C4 C -0.0646(4) 0.9197(3) -0.1861(3)
H16 H 0.0022 0.9367 -0.2221
C5 C -0.1933(3) 0.9319(3) -0.2294(2)
C6 C -0.2898(3) 0.9057(3) -0.1749(3)
H17 H -0.3784 0.9138 -0.2028
C7 C -0.2566(3) 0.8679(3) -0.0805(3)
H18 H -0.3232 0.8504 -0.0445
C8 C -0.3664(3) 0.9600(3) -0.3763(3)
H19 H -0.3765 0.9693 -0.4498
H20 H -0.4148 0.8798 -0.3754
C9 C -0.4341(3) 1.0415(3) -0.3290(3)
C10 C 0.1350(3) 0.5463(3) 0.1454(3)
C11 C 0.2035(4) 0.4593(3) 0.1071(3)
H21 H 0.1471 0.3807 0.1032
H22 H 0.2081 0.4694 0.0360
C12 C 0.2475(4) 0.3653(3) 0.4030(3)
H23 H 0.1706 0.3494 0.4286
C13 C 0.2365(4) 0.4037(3) 0.3084(3)
H24 H 0.1526 0.4142 0.2703
C14 C 0.3474(3) 0.4272(3) 0.2687(2)
C15 C 0.4687(4) 0.4112(3) 0.3270(3)
H25 H 0.5458 0.4265 0.3015
H26 H 0.5624 0.3638 0.4605
C16 C 0.4783(4) 0.3733(3) 0.4214(3)
C17 C 0.3683(4) 0.3494(3) 0.4610(3)
C18 C 0.3792(4) 0.3125(3) 0.5648(3)
C19 C 0.4261(4) 0.4276(3) 0.1149(3)
H27 H 0.3807 0.4177 0.0397
H28 H 0.4332 0.3507 0.1316
C20 C 0.5670(4) 0.5045(3) 0.1363(3)
C21 C -0.0944(4) 0.8166(3) 0.0665(3)
C22 C -0.1286(3) 0.8549(3) -0.0369(2)
Cd1A Cd -0.13801(2) 1.20250(2) -0.263838(18)
Cd2A Cd 0.43580(2) 0.69935(2) 0.216890(18)
Cd2_2 Cd 0.56420(2) 0.30065(2) 0.783110(18)
Cd3A Cd 0.21265(2) 1.25252(2) -0.262010(19)
Cd3_2 Cd 0.78735(2) 0.74748(2) 0.262010(19)
Cd3A_2 Cd 0.21265(2) 0.25252(2) 0.737990(19)
Cd3A_3 Cd -0.78735(2) 1.25252(2) -0.262010(19)
O4A O 0.3610(3) 0.8673(2) 0.2672(2)
O5A O -0.0053(3) 0.8618(2) 0.3395(2)
O8A O -0.2087(3) 1.3576(2) -0.1974(2)
O9A O -0.5913(3) 1.3915(2) -0.1793(2)
O9_2 O -0.4087(3) 0.6085(2) 0.1793(2)
O11_2 O -0.5089(3) 1.2974(2) -0.3870(2)
O12A O -0.2754(3) 0.7007(3) 0.4034(2)
O15A O -0.3697(3) 0.8537(2) 0.2295(2)
H5A H -0.386(5) 0.881(4) 0.174(2)
H6A H -0.371(5) 0.897(3) 0.280(2)
N1A N 0.2228(3) 1.0235(2) 0.3244(2)
N2A N -0.3402(3) 1.5309(2) -0.1725(2)
O17 O 0.8658(3) 0.2998(3) 0.0395(3)
H9 H 0.892(6) 0.276(4) -0.014(3)
H10 H 0.912(5) 0.372(2) 0.059(4)
O18 O 0.6218(11) 1.0179(10) 0.0960(7)
H11 H 0.547(7) 0.984(12) 0.052(9)
H12 H 0.687(9) 1.017(15) 0.072(11)
O19 O 0.2219(8) 0.8264(6) 0.6022(5)
O20 O 0.8777(17) 0.4935(15) 0.4045(13)
O21 O 0.785(2) 0.2740(19) 0.2224(16)
O22? O 0.1405(12) 0.7836(10) 0.5893(9)
O23? O 0.9714(19) 0.5793(17) 0.4545(15)
O24? O 0.687(2) 0.2364(18) 0.2047(17)
loop_
_geom_bond_atom_site_label_1
_geom_bond_atom_site_label_2
_geom_bond_site_symmetry_1
_geom_bond_site_symmetry_2
Cd1 O1 1_555 1_555
Cd2 O4 1_555 1_555
Cd3 O2 1_555 1_555
O1 C21 1_555 1_555
O2 C21 1_555 1_555
O3 C9 1_555 1_555
O4 C9 1_555 1_555
O5 C1 1_555 1_555
O6 C1 1_555 1_555
O7 C10 1_555 1_555
O8 Cd1 1_555 1_555
O9 C20 1_555 1_555
O10 C20 1_555 1_555
O11 C18 1_555 1_555
O12 C18 1_555 1_555
O13 Cd1 1_555 1_555
H1 O13 1_555 1_555
H2 O13 1_555 1_555
O14 Cd2 1_555 1_555
H3 O14 1_555 1_555
H4 O14 1_555 1_555
O15 Cd2 1_555 1_555
H5 O15 1_555 1_555
H6 O15 1_555 1_555
O16 Cd1 1_555 1_555
H7 O16 1_555 1_555
H8 O16 1_555 1_555
O17 H9 1_555 1_555
H10 O17 1_555 1_555
O18 H11 1_555 1_555
H12 O18 1_555 1_555
N1 C2 1_555 1_555
N2 C11 1_555 1_555
C1 C2 1_555 1_555
C2 H13 1_555 1_555
H14 C2 1_555 1_555
C3 H15 1_555 1_555
C4 C3 1_555 1_555
H16 C4 1_555 1_555
C5 N1 1_555 1_555
C6 C5 1_555 1_555
H17 C6 1_555 1_555
C7 C6 1_555 1_555
H18 C7 1_555 1_555
C8 N1 1_555 1_555
H19 C8 1_555 1_555
H20 C8 1_555 1_555
C9 C8 1_555 1_555
C10 O8 1_555 1_555
C11 C10 1_555 1_555
H21 C11 1_555 1_555
H22 C11 1_555 1_555
C12 H23 1_555 1_555
C13 C12 1_555 1_555
H24 C13 1_555 1_555
C14 N2 1_555 1_555
C15 C14 1_555 1_555
H25 C15 1_555 1_555
H26 C16 1_555 1_555
C16 C15 1_555 1_555
C17 C12 1_555 1_555
C18 C17 1_555 1_555
C19 N2 1_555 1_555
H27 C19 1_555 1_555
H28 C19 1_555 1_555
C20 C19 1_555 1_555
C21 C22 1_555 1_555
C22 C3 1_555 1_555
Cd1A O4 1_555 1_555
Cd2A O8 1_555 1_555
Cd2_2 O11 1_555 1_555
Cd3A O5 1_555 1_555
Cd3_2 O9 1_555 1_555
Cd3A_2 O12 1_555 1_555
Cd3A_3 O15 1_555 1_555
O4A Cd1 1_555 1_555
O5A Cd1 1_555 1_555
O8A Cd2 1_555 1_555
O9A Cd2 1_555 1_555
O9_2 Cd3 1_555 1_555
O11_2 Cd2 1_555 1_555
O12A Cd3 1_555 1_555
O15A Cd3 1_555 1_555
H5A O15A 1_555 1_555
H6A O15A 1_555 1_555
N1A Cd1 1_555 1_555
N2A Cd2 1_555 1_555
Cd3 O16 1_555 1_555
Cd3 O5A 1_555 1_555
O5 Cd1A 1_555 1_555
O9 Cd2A 1_555 1_555
N1 Cd1A 1_555 1_555
N2 Cd2A 1_555 1_555
C4 C5 1_555 1_555
C7 C22 1_555 1_555
C13 C14 1_555 1_555
C16 C17 1_555 1_555
Cd1A O8A 1_555 1_555
Cd2A O4A 1_555 1_555
Cd3A_3 O9A 1_555 1_555

#END
