
#######################################################################
#
#                 Cambridge Crystallographic Data Centre
#                                CCDC 
#
#######################################################################
#
# If this CIF has been generated from an entry in the Cambridge 
# Structural Database, then it will include bibliographic, chemical, 
# crystal, experimental, refinement or atomic coordinate data resulting 
# from the CCDC's data processing and validation procedures.
#
#######################################################################

data_GULBUL01
_symmetry_cell_setting           triclinic
_symmetry_space_group_name_H-M   'P -1'
_symmetry_Int_Tables_number      2
_space_group_name_Hall           '-P 1'
loop_
_symmetry_equiv_pos_site_id
_symmetry_equiv_pos_as_xyz
1 x,y,z
2 -x,-y,-z
_cell_length_a                   12.0086(17)
_cell_length_b                   12.1777(13)
_cell_length_c                   13.547(2)
_cell_angle_alpha                103.265(5)
_cell_angle_beta                 108.906(6)
_cell_angle_gamma                90.863(4)
_cell_volume                     1815.57
loop_
_atom_site_label
_atom_site_type_symbol
_atom_site_fract_x
_atom_site_fract_y
_atom_site_fract_z
O27 O 0.109(6) 0.462(5) -0.009(4)
H18 H 0.122(12) 0.393(5) -0.012(9)
H20 H 0.110(12) 0.494(8) 0.053(6)
W1 W -0.19000(5) -0.06775(5) -0.27198(4)
W2 W 0.23525(4) -0.10394(4) -0.09015(4)
W3 W -0.26932(4) -0.17207(4) -0.07699(4)
W4 W -0.03292(5) -0.27926(4) -0.16188(4)
W5 W -0.16277(5) 0.21071(4) -0.10681(4)
W6 W 0.07507(5) 0.11097(4) -0.19360(4)
P1 P -0.5163(2) -0.6426(2) -0.5837(2)
P2 P 0.0000 0.0000 0.0000
Cu1 Cu -0.47748(12) -0.42533(11) -0.65474(10)
Cu2 Cu -0.27949(13) -0.50759(12) -0.40259(12)
C1 C -0.1139(12) -0.4145(13) -0.6493(10)
H1 H -0.0860 -0.4002 -0.7021
C2 C -0.4588(14) -0.0654(12) -0.7361(13)
H2 H -0.4562 0.0030 -0.7553
C3 C -0.1748(11) -0.6549(10) -0.5306(9)
C4 C -0.1467(13) -0.7550(11) -0.5865(11)
H3 H -0.1204 -0.7554 -0.6440
C5 C -0.3617(17) -0.3849(15) -0.9028(13)
H4 H -0.3517 -0.3229 -0.9295
C6 C -0.1196(12) -0.5252(13) -0.6335(10)
H5 H -0.0934 -0.5846 -0.6744
C7 C -0.1963(16) -0.8488(12) -0.4688(12)
H6 H -0.2047 -0.9141 -0.4463
C8 C -0.4976(11) -0.1747(10) -0.6228(10)
H7 H -0.5211 -0.1778 -0.5645
C9 C -0.1646(9) -0.5431(10) -0.5564(9)
C10 C -0.3558(14) -0.5804(13) -0.9091(12)
H8 H -0.3433 -0.6528 -0.9420
C11 C -0.4291(15) -0.1641(12) -0.7940(12)
H9 H -0.4051 -0.1628 -0.8524
C12 C -0.1502(13) -0.3293(13) -0.5854(10)
H10 H -0.1436 -0.2552 -0.5917
C13 C -0.3320(19) -0.4875(19) -0.9453(17)
H11 H -0.2962 -0.4958 -0.9977
C14 C -0.1583(17) -0.8540(13) -0.5558(12)
H12 H -0.1410 -0.9223 -0.5925
C15 C -0.4359(10) -0.2636(9) -0.7632(9)
C16 C -0.4919(14) -0.0731(13) -0.6501(12)
H13 H -0.5109 -0.0085 -0.6093
C17 C -0.3979(9) -0.5647(10) -0.8246(10)
H14 H -0.4107 -0.6262 -0.7984
C18 C -0.1970(8) -0.3541(10) -0.5114(9)
H15 H -0.2267 -0.2968 -0.4716
C19 C -0.4073(11) -0.3728(11) -0.8191(9)
C20 C -0.2216(14) -0.7480(11) -0.4161(11)
H16 H -0.2445 -0.7448 -0.3563
N1 N -0.4205(7) -0.4633(7) -0.7801(6)
N2 N -0.2138(8) -0.6529(8) -0.4493(7)
N3 N -0.2005(7) -0.4590(8) -0.4953(6)
N4 N -0.4694(8) -0.2698(8) -0.6799(7)
O1 O 0.3422(8) -0.1552(10) -0.1335(9)
O2 O -0.1123(9) -0.1981(10) -0.2647(8)
O3 O 0.0537(9) -0.2985(11) -0.0256(8)
O4 O -0.2895(10) -0.1232(10) -0.2040(8)
O5 O -0.0329(10) 0.2101(9) -0.1590(13)
O6 O -0.0526(9) -0.4114(7) -0.2410(8)
O7 O -0.2273(9) 0.0797(10) -0.2166(13)
O8 O -0.1911(10) -0.1885(8) 0.0643(8)
O9 O -0.3925(8) -0.2546(9) -0.1130(11)
O10 O -0.2801(8) -0.0984(8) -0.3994(6)
O11 O 0.3075(11) 0.0311(8) 0.0132(7)
O12 O 0.1108(11) 0.1612(8) -0.2845(7)
O13 O -0.0544(9) 0.0041(9) -0.2804(12)
O14 O 0.1670(10) -0.0156(8) -0.1856(7)
O15 O 0.2522(10) -0.1694(11) 0.0299(8)
O16 O 0.1097(9) -0.2209(10) -0.1705(8)
O17 O -0.2401(9) 0.3101(9) -0.1591(8)
O18 O -0.1687(10) -0.2772(11) -0.1214(9)
O19 O 0.0662(11) -0.1014(10) -0.0282(9)
O20 O -0.0891(14) -0.0932(11) -0.0856(11)
O21 O -0.0988(14) -0.0309(11) 0.0315(12)
O22 O -0.0482(12) 0.0475(11) -0.1043(11)
O23 O -0.4489(7) -0.5731(6) -0.6301(6)
O24 O -0.4569(7) -0.6182(7) -0.4628(6)
O25 O -0.5002(7) -0.7715(6) -0.6260(6)
O26 O -0.6466(8) -0.6302(7) -0.6170(6)
O28 O -0.2972(8) -0.5148(7) -0.2541(6)
H17 H -0.295(12) -0.4432(15) -0.234(8)
H19 H -0.278(11) -0.543(8) -0.200(5)
H21 H -0.565(6) -0.802(11) -0.674(8)
W1A W 0.19000(5) 0.06775(5) 0.27198(4)
W2A W -0.23525(4) 0.10394(4) 0.09015(4)
W3A W 0.26932(4) 0.17207(4) 0.07699(4)
W4A W 0.03292(5) 0.27926(4) 0.16188(4)
W5A W 0.16277(5) -0.21071(4) 0.10681(4)
W6A W -0.07507(5) -0.11097(4) 0.19360(4)
P1A P -0.4837(2) -0.3574(2) -0.4163(2)
Cu1A Cu -0.52252(12) -0.57467(11) -0.34526(10)
Cu2A Cu 0.27949(13) 0.50759(12) 0.40259(12)
Cu2A_2 Cu -0.72051(13) -0.49241(12) -0.59741(12)
C1A C -0.8861(12) -0.5855(13) -0.3507(10)
H1A H -0.9140 -0.5998 -0.2979
C2A C -0.5412(14) -0.9346(12) -0.2639(13)
H2A H -0.5438 -1.0030 -0.2447
C3A C -0.8252(11) -0.3451(10) -0.4694(9)
C4A C -0.8533(13) -0.2450(11) -0.4135(11)
H3A H -0.8796 -0.2446 -0.3560
C5A C -0.6383(17) -0.6151(15) -0.0972(13)
H4A H -0.6483 -0.6771 -0.0705
C6A C -0.8804(12) -0.4748(13) -0.3665(10)
H5A H -0.9066 -0.4154 -0.3256
C7A C -0.8037(16) -0.1512(12) -0.5312(12)
H6A H -0.7953 -0.0859 -0.5537
C8A C -0.5024(11) -0.8253(10) -0.3772(10)
H7A H -0.4789 -0.8222 -0.4355
C9A C -0.8354(9) -0.4569(10) -0.4436(9)
C10A C -0.6442(14) -0.4196(13) -0.0909(12)
H8A H -0.6567 -0.3472 -0.0580
C11A C -0.5709(15) -0.8359(12) -0.2060(12)
H9A H -0.5949 -0.8372 -0.1476
C12A C -0.8498(13) -0.6707(13) -0.4146(10)
H10A H -0.8564 -0.7448 -0.4083
C13A C -0.6680(19) -0.5125(19) -0.0547(17)
H11A H -0.7038 -0.5042 -0.0023
C14A C -0.8417(17) -0.1460(13) -0.4442(12)
H12A H -0.8590 -0.0777 -0.4075
C15A C -0.5641(10) -0.7364(9) -0.2368(9)
C16A C -0.5081(14) -0.9269(13) -0.3499(12)
H13A H -0.4891 -0.9915 -0.3907
C17A C -0.6021(9) -0.4353(10) -0.1754(10)
H14A H -0.5893 -0.3738 -0.2016
C18A C -0.8030(8) -0.6459(10) -0.4886(9)
H15A H -0.7733 -0.7032 -0.5284
C19A C -0.5927(11) -0.6272(11) -0.1809(9)
C20A C -0.7784(14) -0.2520(11) -0.5839(11)
H16A H -0.7555 -0.2552 -0.6437
N1A N -0.5795(7) -0.5367(7) -0.2199(6)
N2A N -0.7862(8) -0.3471(8) -0.5507(7)
N3A N -0.7995(7) -0.5410(8) -0.5047(6)
N4A N -0.5306(8) -0.7302(8) -0.3201(7)
O1A O -0.3422(8) 0.1552(10) 0.1335(9)
O2A O 0.1123(9) 0.1981(10) 0.2647(8)
O3A O -0.0537(9) 0.2985(11) 0.0256(8)
O4A O 0.2895(10) 0.1232(10) 0.2040(8)
O5A O 0.0329(10) -0.2101(9) 0.1590(13)
O6A O 0.0526(9) 0.4114(7) 0.2410(8)
O6A_2 O -0.9474(9) -0.5886(7) -0.7590(8)
O7A O 0.2273(9) -0.0797(10) 0.2166(13)
O8A O 0.1911(10) 0.1885(8) -0.0643(8)
O9A O 0.3925(8) 0.2546(9) 0.1130(11)
O10A O 0.2801(8) 0.0984(8) 0.3994(6)
O11A O -0.3075(11) -0.0311(8) -0.0132(7)
O12A O -0.1108(11) -0.1612(8) 0.2845(7)
O13A O 0.0544(9) -0.0041(9) 0.2804(12)
O14A O -0.1670(10) 0.0156(8) 0.1856(7)
O15A O -0.2522(10) 0.1694(11) -0.0299(8)
O16A O -0.1097(9) 0.2209(10) 0.1705(8)
O17A O 0.2401(9) -0.3101(9) 0.1591(8)
O18A O 0.1687(10) 0.2772(11) 0.1214(9)
O19A O -0.0662(11) 0.1014(10) 0.0282(9)
O20A O 0.0891(14) 0.0932(11) 0.0856(11)
O21A O 0.0988(14) 0.0309(11) -0.0315(12)
O22A O 0.0482(12) -0.0475(11) 0.1043(11)
O23A O -0.5511(7) -0.4269(6) -0.3699(6)
O24A O -0.5431(7) -0.3818(7) -0.5372(6)
O25A O -0.4998(7) -0.2285(6) -0.3740(6)
O26A O -0.3534(8) -0.3698(7) -0.3830(6)
O28A O -0.7028(8) -0.4852(7) -0.7459(6)
H17A H -0.705(12) -0.5568(15) -0.766(8)
H19A H -0.722(11) -0.457(8) -0.800(5)
H21A H -0.435(6) -0.198(11) -0.326(8)
V1? V 0.19000(5) 0.06775(5) 0.27198(4)
V2? V -0.23525(4) 0.10394(4) 0.09015(4)
V3? V 0.26932(4) 0.17207(4) 0.07699(4)
V4? V 0.03292(5) 0.27926(4) 0.16188(4)
V5? V -0.16277(5) 0.21071(4) -0.10681(4)
V6? V -0.07507(5) -0.11097(4) 0.19360(4)
loop_
_geom_bond_atom_site_label_1
_geom_bond_atom_site_label_2
_geom_bond_site_symmetry_1
_geom_bond_site_symmetry_2
W1 O2 1_555 1_555
W2 O1 1_555 1_555
W3 O4 1_555 1_555
W4 O2 1_555 1_555
W5 O5 1_555 1_555
W6 O5 1_555 1_555
P1 O23 1_555 1_555
P2 O19 1_555 1_555
Cu1 N1 1_555 1_555
Cu2 N2 1_555 1_555
C1 H1 1_555 1_555
C2 H2 1_555 1_555
C3 C4 1_555 1_555
C4 H3 1_555 1_555
C5 H4 1_555 1_555
C6 C1 1_555 1_555
H5 C6 1_555 1_555
C7 H6 1_555 1_555
C8 H7 1_555 1_555
C9 C3 1_555 1_555
C10 H8 1_555 1_555
C11 C2 1_555 1_555
H9 C11 1_555 1_555
C12 C1 1_555 1_555
H10 C12 1_555 1_555
C13 C5 1_555 1_555
H11 C13 1_555 1_555
C14 C4 1_555 1_555
H12 C14 1_555 1_555
C15 C11 1_555 1_555
C16 C2 1_555 1_555
H13 C16 1_555 1_555
C17 C10 1_555 1_555
H14 C17 1_555 1_555
C18 C12 1_555 1_555
H15 C18 1_555 1_555
C19 C5 1_555 1_555
C20 C7 1_555 1_555
H16 C20 1_555 1_555
N1 C17 1_555 1_555
N2 C3 1_555 1_555
N3 Cu2 1_555 1_555
N4 Cu1 1_555 1_555
O3 W4 1_555 1_555
O4 W1 1_555 1_555
O6 W4 1_555 1_555
O7 W1 1_555 1_555
O8 W3 1_555 1_555
O9 W3 1_555 1_555
O10 W1 1_555 1_555
O11 W2 1_555 1_555
O12 W6 1_555 1_555
O13 W1 1_555 1_555
O14 W2 1_555 1_555
O15 W2 1_555 1_555
O16 W2 1_555 1_555
O17 W5 1_555 1_555
O18 W3 1_555 1_555
O19 W2 1_555 1_555
O20 W1 1_555 1_555
O21 W3 1_555 1_555
O22 W1 1_555 1_555
O23 Cu1 1_555 1_555
O24 P1 1_555 1_555
O25 P1 1_555 1_555
O26 P1 1_555 1_555
O27 H18 1_555 1_555
O28 Cu2 1_555 1_555
H17 O28 1_555 1_555
H19 O28 1_555 1_555
H20 O27 1_555 1_555
H21 O25 1_555 1_555
W1A O2A 1_555 1_555
W2A O21 1_555 1_555
W3A O11 1_555 1_555
W4A O2A 1_555 1_555
W5A O3 1_555 1_555
W6A O8 1_555 1_555
P1A O23A 1_555 1_555
Cu1A O24 1_555 1_555
Cu2A O6A 1_555 1_555
Cu2A_2 O26 1_555 1_555
C1A H1A 1_555 1_555
C2A H2A 1_555 1_555
C3A C4A 1_555 1_555
C4A H3A 1_555 1_555
C5A H4A 1_555 1_555
C6A C1A 1_555 1_555
H5A C6A 1_555 1_555
C7A H6A 1_555 1_555
C8A H7A 1_555 1_555
C9A C3A 1_555 1_555
C10A H8A 1_555 1_555
C11A C2A 1_555 1_555
H9A C11A 1_555 1_555
C12A C1A 1_555 1_555
H10A C12A 1_555 1_555
C13A C5A 1_555 1_555
H11A C13A 1_555 1_555
C14A C4A 1_555 1_555
H12A C14A 1_555 1_555
C15A C11A 1_555 1_555
C16A C2A 1_555 1_555
H13A C16A 1_555 1_555
C17A C10A 1_555 1_555
H14A C17A 1_555 1_555
C18A C12A 1_555 1_555
H15A C18A 1_555 1_555
C19A C5A 1_555 1_555
C20A C7A 1_555 1_555
H16A C20A 1_555 1_555
N1A Cu1A 1_555 1_555
N2A Cu2A_2 1_555 1_555
N3A Cu2A_2 1_555 1_555
N4A Cu1A 1_555 1_555
O1A W2A 1_555 1_555
O3A W5 1_555 1_555
O4A W1A 1_555 1_555
O5A W5A 1_555 1_555
O6A W4A 1_555 1_555
O6A_2 Cu2A_2 1_555 1_555
O7A W1A 1_555 1_555
O8A W6 1_555 1_555
O9A W3A 1_555 1_555
O10A W1A 1_555 1_555
O11A W3 1_555 1_555
O12A W6A 1_555 1_555
O13A W1A 1_555 1_555
O14A W2A 1_555 1_555
O15A W5 1_555 1_555
O16A W2A 1_555 1_555
O17A W5A 1_555 1_555
O18A W3A 1_555 1_555
O19A W5 1_555 1_555
O20A P2 1_555 1_555
O21A W2 1_555 1_555
O22A P2 1_555 1_555
O23A Cu1A 1_555 1_555
O24A Cu1 1_555 1_555
O25A P1A 1_555 1_555
O26A Cu2 1_555 1_555
O28A Cu1 1_555 1_555
H17A O28A 1_555 1_555
H19A O28A 1_555 1_555
H21A O25A 1_555 1_555
W3 O20 1_555 1_555
W4 O16 1_555 1_555
W4 O18 1_555 1_555
W4 O19 1_555 1_555
W4 O20 1_555 1_555
W5 O7 1_555 1_555
W5 O22 1_555 1_555
W6 O13 1_555 1_555
W6 O14 1_555 1_555
W6 O22 1_555 1_555
W6 O21A 1_555 1_555
P2 O20 1_555 1_555
P2 O21 1_555 1_555
P2 O22 1_555 1_555
P2 O19A 1_555 1_555
P2 O21A 1_555 1_555
Cu2 O6 1_555 1_555
Cu2 O24 1_555 1_555
C6 C9 1_555 1_555
C7 C14 1_555 1_555
C8 C16 1_555 1_555
C8 N4 1_555 1_555
C9 N3 1_555 1_555
C10 C13 1_555 1_555
C15 C19 1_555 1_555
C15 N4 1_555 1_555
C18 N3 1_555 1_555
C19 N1 1_555 1_555
C20 N2 1_555 1_555
O15 W5A 1_555 1_555
O19 O20 1_555 1_555
O19 W5A 1_555 1_555
O19 O21A 1_555 1_555
O19 O22A 1_555 1_555
O20 O21 1_555 1_555
O20 O22 1_555 1_555
O21 W6A 1_555 1_555
O21 O19A 1_555 1_555
O21 O22A 1_555 1_555
O22 O19A 1_555 1_555
O22 O21A 1_555 1_555
O28 Cu1A 1_555 1_555
W1A O20A 1_555 1_555
W1A O22A 1_555 1_555
W2A O11A 1_555 1_555
W2A O15A 1_555 1_555
W2A O19A 1_555 1_555
W3A O4A 1_555 1_555
W3A O8A 1_555 1_555
W3A O20A 1_555 1_555
W3A O21A 1_555 1_555
W4A O3A 1_555 1_555
W4A O16A 1_555 1_555
W4A O18A 1_555 1_555
W4A O19A 1_555 1_555
W4A O20A 1_555 1_555
W5A O7A 1_555 1_555
W5A O22A 1_555 1_555
W6A O5A 1_555 1_555
W6A O13A 1_555 1_555
W6A O14A 1_555 1_555
W6A O22A 1_555 1_555
P1A O24A 1_555 1_555
P1A O26A 1_555 1_555
Cu2A_2 O24A 1_555 1_555
Cu2A_2 O28A 1_555 1_555
C3A N2A 1_555 1_555
C6A C9A 1_555 1_555
C7A C14A 1_555 1_555
C8A C16A 1_555 1_555
C8A N4A 1_555 1_555
C9A N3A 1_555 1_555
C10A C13A 1_555 1_555
C15A C19A 1_555 1_555
C15A N4A 1_555 1_555
C17A N1A 1_555 1_555
C18A N3A 1_555 1_555
C19A N1A 1_555 1_555
C20A N2A 1_555 1_555
O19A O20A 1_555 1_555
O20A O21A 1_555 1_555
O20A O22A 1_555 1_555

#END
