
#######################################################################
#
#                 Cambridge Crystallographic Data Centre
#                                CCDC 
#
#######################################################################
#
# If this CIF has been generated from an entry in the Cambridge 
# Structural Database, then it will include bibliographic, chemical, 
# crystal, experimental, refinement or atomic coordinate data resulting 
# from the CCDC's data processing and validation procedures.
#
#######################################################################

data_GULBIZ
_symmetry_cell_setting           orthorhombic
_symmetry_space_group_name_H-M   'P b c a'
_symmetry_Int_Tables_number      61
_space_group_name_Hall           '-P 2ac 2ab'
loop_
_symmetry_equiv_pos_site_id
_symmetry_equiv_pos_as_xyz
1 x,y,z
2 1/2-x,-y,1/2+z
3 1/2+x,1/2-y,-z
4 -x,1/2+y,1/2-z
5 -x,-y,-z
6 1/2+x,y,1/2-z
7 1/2-x,1/2+y,z
8 x,1/2-y,1/2+z
_cell_length_a                   13.901(3)
_cell_length_b                   9.3017(19)
_cell_length_c                   15.672(3)
_cell_angle_alpha                90
_cell_angle_beta                 90
_cell_angle_gamma                90
_cell_volume                     2026.44
loop_
_atom_site_label
_atom_site_type_symbol
_atom_site_fract_x
_atom_site_fract_y
_atom_site_fract_z
Zn1 Zn 0.10565(4) 0.24286(8) 0.70713(3)
O1 O 0.0064(3) 0.2645(5) 0.7985(2)
O2 O 0.1422(3) 0.2243(5) 0.8670(2)
N1 N 0.2798(5) 0.4447(7) 0.8161(3)
N2 N 0.1839(3) 0.4205(5) 0.6905(3)
N3 N 0.1854(4) 0.4902(6) 0.6125(3)
N4 N 0.2507(4) 0.5875(6) 0.6129(3)
N5 N 0.2959(3) 0.5872(5) 0.6905(3)
N6 N 0.0183(3) 0.2804(5) 1.1028(3)
C1 C 0.2551(5) 0.4829(6) 0.7359(3)
C2 C -0.0738(4) 0.3199(7) 1.1070(3)
C3 C -0.1310(4) 0.3401(9) 1.0361(4)
C4 C -0.0906(4) 0.3183(7) 0.9565(3)
C5 C 0.0043(4) 0.2795(6) 0.9506(3)
C6 C 0.0558(4) 0.2602(7) 1.0249(3)
C7 C 0.0546(4) 0.2543(7) 0.8668(3)
H1 H 0.126(4) 0.250(6) 1.022(3)
H2 H -0.100(4) 0.332(5) 1.160(3)
H3 H 0.239(4) 0.378(6) 0.840(3)
H4 H -0.199(4) 0.355(7) 1.044(4)
H5 H -0.127(4) 0.330(6) 0.910(4)
H6 H 0.316(5) 0.504(7) 0.846(4)
Zn1F Zn 0.39435(4) 0.74286(8) 0.70713(3)
Zn1G Zn 0.10565(4) 0.25714(8) 1.20713(3)
N5F N 0.2041(3) 0.0872(5) 0.6905(3)
N6G N 0.0183(3) 0.2196(5) 0.6028(3)
loop_
_geom_bond_atom_site_label_1
_geom_bond_atom_site_label_2
_geom_bond_site_symmetry_1
_geom_bond_site_symmetry_2
Zn1 O1 1_555 1_555
O1 C7 1_555 1_555
O2 C7 1_555 1_555
N1 C1 1_555 1_555
N2 Zn1 1_555 1_555
N3 N2 1_555 1_555
N4 N3 1_555 1_555
N5 N4 1_555 1_555
N6 C2 1_555 1_555
C1 N2 1_555 1_555
C2 C3 1_555 1_555
C3 C4 1_555 1_555
C4 C5 1_555 1_555
C5 C6 1_555 1_555
C6 N6 1_555 1_555
C7 C5 1_555 1_555
H1 C6 1_555 1_555
H2 C2 1_555 1_555
H3 N1 1_555 1_555
H4 C3 1_555 1_555
H5 C4 1_555 1_555
H6 N1 1_555 1_555
Zn1F N5 1_555 1_555
Zn1G N6 1_555 1_555
N5F Zn1 1_555 1_555
N6G Zn1 1_555 1_555
N5 C1 1_555 1_555

#END
