
#######################################################################
#
#                 Cambridge Crystallographic Data Centre
#                                CCDC 
#
#######################################################################
#
# If this CIF has been generated from an entry in the Cambridge 
# Structural Database, then it will include bibliographic, chemical, 
# crystal, experimental, refinement or atomic coordinate data resulting 
# from the CCDC's data processing and validation procedures.
#
#######################################################################

data_GULKUV
_symmetry_cell_setting           monoclinic
_symmetry_space_group_name_H-M   'P 21/c'
_symmetry_Int_Tables_number      14
_space_group_name_Hall           '-P 2ybc'
loop_
_symmetry_equiv_pos_site_id
_symmetry_equiv_pos_as_xyz
1 x,y,z
2 -x,1/2+y,1/2-z
3 -x,-y,-z
4 x,1/2-y,1/2+z
_cell_length_a                   12.5002(7)
_cell_length_b                   19.1346(12)
_cell_length_c                   13.6734(10)
_cell_angle_alpha                90
_cell_angle_beta                 111.827(7)
_cell_angle_gamma                90
_cell_volume                     3036.03
loop_
_atom_site_label
_atom_site_type_symbol
_atom_site_fract_x
_atom_site_fract_y
_atom_site_fract_z
Co1 Co 0.02813(5) 0.41612(3) 0.22663(5)
Co2 Co 0.20569(5) 0.53578(4) 0.32212(5)
Co3 Co 0.47013(5) 0.55304(4) 0.29511(5)
Co4 Co 0.28952(5) 0.43771(4) 0.18316(5)
O1 O 0.0761(3) -0.00200(18) 0.2719(3)
O2 O 0.3579(3) 0.49052(17) 0.3310(3)
O3 O -0.0526(3) 0.07991(18) 0.1856(3)
O4 O -0.4240(3) 0.46952(19) 0.2965(3)
O5 O 0.1347(3) 0.47771(18) 0.1803(3)
O6 O -0.4062(3) 0.14973(18) 0.1933(3)
O7 O -0.0366(3) 0.36665(18) 0.3436(3)
O8 O 0.4581(3) 0.10529(18) 0.3128(3)
O9 O 0.0871(3) 0.32198(18) 0.2039(3)
O10 O 0.1776(3) 0.4640(2) 0.5431(3)
O11 O -0.5520(3) 0.39388(19) 0.1894(3)
O12 O 0.2762(3) 0.34158(18) 0.2471(3)
O13 O -0.1182(3) 0.3834(2) 0.0936(3)
H1 H -0.1823 0.4048 0.0909
H2 H -0.1302 0.3379 0.0958
O14 O 0.5975(3) 0.57161(19) 0.4405(3)
H3 H 0.5945 0.6148 0.4615
H4 H 0.6663 0.5652 0.4383
O15 O 0.2146(3) 0.4126(2) 0.0213(3)
H5 H 0.2375 0.3718 0.0094
H6 H 0.2345 0.4433 -0.0154
O16 O 0.6844(3) 0.0321(2) 0.5311(3)
O17 O 0.2880(3) 0.5831(2) 0.4730(3)
H7 H 0.2615 0.5836 0.5230
H8 H 0.3533 0.6047 0.4937
O18 O 0.1512(3) 0.43956(18) 0.3767(3)
O19 O -0.2166(3) 0.13024(18) 0.2531(3)
C1 C -0.3733(4) 0.2920(3) 0.2401(4)
H9 H -0.4484 0.2750 0.2148
O20 O 0.6486(3) 0.03447(18) 0.3584(3)
C2 C 0.0484(4) 0.0581(3) 0.2339(4)
C3 C -0.1687(4) 0.2719(3) 0.2934(4)
H10 H -0.1069 0.2418 0.3047
C4 C 0.1906(4) 0.3020(3) 0.2296(4)
C5 C -0.3034(4) 0.1697(3) 0.2321(4)
C6 C 0.1451(4) 0.1082(3) 0.2480(4)
C7 C 0.1214(4) 0.4374(3) 0.4570(4)
C8 C 0.0090(4) 0.4018(3) 0.4435(4)
H11 H 0.0214 0.3682 0.4998
H12 H -0.0461 0.4362 0.4477
C9 C 0.3451(4) 0.1293(3) 0.2853(4)
C10 C -0.3533(4) 0.3627(3) 0.2622(4)
C11 C -0.1493(4) 0.3429(3) 0.3141(4)
C12 C 0.2131(4) 0.2256(3) 0.2409(4)
C13 C -0.2806(4) 0.2461(3) 0.2558(4)
C14 C -0.4508(4) 0.4120(3) 0.2486(4)
C15 C -0.2406(4) 0.3876(3) 0.3000(4)
H13 H -0.2267 0.4348 0.3160
C16 C 0.2571(4) 0.0836(3) 0.2771(4)
H14 H 0.2727 0.0363 0.2909
C17 C 0.1230(4) 0.1790(3) 0.2309(4)
H15 H 0.0482 0.1956 0.2126
C18 C 0.6247(4) 0.0489(3) 0.4391(4)
C19 C 0.3248(4) 0.1997(3) 0.2669(4)
H16 H 0.3850 0.2298 0.2717
C20 C 0.5141(5) 0.0882(3) 0.4209(4)
H17 H 0.4634 0.0596 0.4434
H18 H 0.5310 0.1306 0.4625
Co1A Co -0.02813(5) -0.08388(3) 0.27337(5)
Co2A Co -0.20569(5) 0.03578(4) 0.17788(5)
Co3_2 Co -0.52987(5) 0.55304(4) 0.29511(5)
Co3A Co -0.47013(5) 0.05304(4) 0.20489(5)
Co3A_2 Co 0.52987(5) 0.05304(4) 0.20489(5)
Co4_2 Co -0.71048(5) 0.43771(4) 0.18316(5)
Co4A Co 0.71048(5) -0.06229(4) 0.31684(5)
O1A O -0.0761(3) 0.49800(18) 0.2281(3)
O3A O 0.0526(3) 0.57991(18) 0.3144(3)
O4_2 O 0.5760(3) 0.46952(19) 0.2965(3)
O6A O 0.4062(3) 0.64973(18) 0.3067(3)
O8A O 0.5419(3) 0.60529(18) 0.1872(3)
O11_2 O 0.4480(3) 0.39388(19) 0.1894(3)
O19A O 0.2166(3) 0.63024(18) 0.2469(3)
O20A O 0.3514(3) 0.53447(18) 0.1416(3)
O21 O -0.0230(3) 0.3984(2) -0.0628(3)
H19 H -0.0475 0.3910 -0.0135
H20 H 0.0025 0.4400 -0.0583
O22 O -0.1736(6) 0.2402(4) 0.0529(4)
H21 H -0.1446 0.2337 0.0063
H22 H -0.2380 0.2610 0.0253
O23 O 0.3660(7) 0.2110(4) 0.5243(5)
O24 O 0.4545(7) 0.3260(4) 0.4506(5)
loop_
_geom_bond_atom_site_label_1
_geom_bond_atom_site_label_2
_geom_bond_site_symmetry_1
_geom_bond_site_symmetry_2
Co1 O5 1_555 1_555
Co2 O2 1_555 1_555
Co3 O2 1_555 1_555
Co4 O2 1_555 1_555
O1 C2 1_555 1_555
O3 C2 1_555 1_555
O4 C14 1_555 1_555
O5 Co2 1_555 1_555
O6 C5 1_555 1_555
O7 Co1 1_555 1_555
O8 C9 1_555 1_555
O9 Co1 1_555 1_555
O10 C7 1_555 1_555
O11 C14 1_555 1_555
O12 Co4 1_555 1_555
O13 Co1 1_555 1_555
H1 O13 1_555 1_555
H2 O13 1_555 1_555
O14 Co3 1_555 1_555
H3 O14 1_555 1_555
H4 O14 1_555 1_555
O15 Co4 1_555 1_555
H5 O15 1_555 1_555
H6 O15 1_555 1_555
O16 C18 1_555 1_555
O17 Co2 1_555 1_555
H7 O17 1_555 1_555
H8 O17 1_555 1_555
O18 Co1 1_555 1_555
O19 C5 1_555 1_555
C1 H9 1_555 1_555
O20 C18 1_555 1_555
C2 C6 1_555 1_555
C3 H10 1_555 1_555
C4 O9 1_555 1_555
C5 C13 1_555 1_555
C6 C16 1_555 1_555
C7 O18 1_555 1_555
C8 O7 1_555 1_555
H11 C8 1_555 1_555
H12 C8 1_555 1_555
C9 C16 1_555 1_555
C10 C1 1_555 1_555
C11 O7 1_555 1_555
C12 C4 1_555 1_555
C13 C1 1_555 1_555
C14 C10 1_555 1_555
C15 C10 1_555 1_555
H13 C15 1_555 1_555
C16 H14 1_555 1_555
C17 C6 1_555 1_555
H15 C17 1_555 1_555
C18 C20 1_555 1_555
C19 C9 1_555 1_555
H16 C19 1_555 1_555
C20 O8 1_555 1_555
H17 C20 1_555 1_555
H18 C20 1_555 1_555
O21 H19 1_555 1_555
H20 O21 1_555 1_555
O22 H21 1_555 1_555
H22 O22 1_555 1_555
Co1A O1 1_555 1_555
Co2A O3 1_555 1_555
Co3_2 O4 1_555 1_555
Co3A O6 1_555 1_555
Co3A_2 O8 1_555 1_555
Co4_2 O11 1_555 1_555
Co4A O20 1_555 1_555
O1A Co1 1_555 1_555
O3A Co2 1_555 1_555
O4_2 Co3 1_555 1_555
O6A Co3 1_555 1_555
O8A Co3 1_555 1_555
O11_2 Co4 1_555 1_555
O19A Co2 1_555 1_555
O20A Co3 1_555 1_555
Co2 O18 1_555 1_555
Co4 O5 1_555 1_555
Co4 O20A 1_555 1_555
O12 C4 1_555 1_555
O19 Co2A 1_555 1_555
O20 Co3A_2 1_555 1_555
C3 C11 1_555 1_555
C3 C13 1_555 1_555
C7 C8 1_555 1_555
C11 C15 1_555 1_555
C12 C17 1_555 1_555
C12 C19 1_555 1_555

#END
