
#######################################################################
#
#                 Cambridge Crystallographic Data Centre
#                                CCDC 
#
#######################################################################
#
# If this CIF has been generated from an entry in the Cambridge 
# Structural Database, then it will include bibliographic, chemical, 
# crystal, experimental, refinement or atomic coordinate data resulting 
# from the CCDC's data processing and validation procedures.
#
#######################################################################

data_GULNOR
_symmetry_cell_setting           triclinic
_symmetry_space_group_name_H-M   'P -1'
_symmetry_Int_Tables_number      2
_space_group_name_Hall           '-P 1'
loop_
_symmetry_equiv_pos_site_id
_symmetry_equiv_pos_as_xyz
1 x,y,z
2 -x,-y,-z
_cell_length_a                   8.9254(5)
_cell_length_b                   11.7200(8)
_cell_length_c                   15.1824(10)
_cell_angle_alpha                69.243(3)
_cell_angle_beta                 88.554(3)
_cell_angle_gamma                73.663(3)
_cell_volume                     1420.2
loop_
_atom_site_label
_atom_site_type_symbol
_atom_site_fract_x
_atom_site_fract_y
_atom_site_fract_z
I1 I 0.32347(3) 0.17437(2) -0.294108(14)
I2 I 0.80035(2) -0.09219(2) -0.250773(15)
Zn1 Zn 0.50539(4) -0.05673(3) -0.24092(2)
P1 P 0.47712(8) -0.17995(6) -0.00937(4)
P2 P 0.49506(8) -0.18420(6) -0.39315(4)
C1 C 0.2503(3) -0.1519(3) 0.11784(19)
H1 H 0.3260 -0.1436 0.1543
C2 C 0.1023(3) -0.1459(3) 0.1478(2)
H2 H 0.0779 -0.1334 0.2042
C3 C -0.0094(3) -0.1585(3) 0.0940(2)
H3 H -0.1091 -0.1549 0.1144
C4 C 0.0256(3) -0.1763(3) 0.0102(2)
H4 H -0.0505 -0.1852 -0.0256
C5 C 0.1729(3) -0.1812(3) -0.0210(2)
H5 H 0.1957 -0.1918 -0.0782
C6 C 0.2869(3) -0.1702(2) 0.03327(17)
C7 C 0.5534(3) -0.0687(2) 0.01885(18)
H6 H 0.5704 -0.0966 0.0870
H7 H 0.6542 -0.0705 -0.0069
C8 C 0.6077(3) -0.3353(3) 0.0545(2)
C9 C 0.7130(5) -0.3968(4) 0.0075(3)
H8 H 0.7150 -0.3598 -0.0576
C10 C 0.8181(6) -0.5161(5) 0.0581(5)
H9 H 0.8901 -0.5578 0.0261
C11 C 0.8167(6) -0.5708(4) 0.1514(5)
H10 H 0.8857 -0.6509 0.1836
C12 C 0.7149(5) -0.5097(4) 0.1991(4)
H11 H 0.7152 -0.5473 0.2643
C13 C 0.6106(4) -0.3918(3) 0.1512(3)
H12 H 0.5416 -0.3501 0.1845
C14 C 0.1898(4) -0.1660(3) -0.4338(3)
H13 H 0.1656 -0.1225 -0.3921
C15 C 0.0717(5) -0.1830(4) -0.4807(4)
H14 H -0.0321 -0.1506 -0.4704
C16 C 0.1053(5) -0.2461(5) -0.5413(3)
H15 H 0.0246 -0.2566 -0.5724
C17 C 0.2564(5) -0.2942(5) -0.5569(3)
H16 H 0.2793 -0.3379 -0.5984
C18 C 0.3761(4) -0.2780(4) -0.5108(2)
H17 H 0.4796 -0.3109 -0.5215
C19 C 0.3432(3) -0.2137(3) -0.44921(19)
C20 C 0.6580(3) -0.3252(2) -0.35194(18)
C21 C 0.7736(4) -0.3561(3) -0.4088(2)
H18 H 0.7661 -0.3045 -0.4722
C22 C 0.9007(4) -0.4635(3) -0.3717(3)
H19 H 0.9792 -0.4831 -0.4099
C23 C 0.9111(4) -0.5406(3) -0.2793(3)
H20 H 0.9968 -0.6126 -0.2548
C24 C 0.7968(5) -0.5131(3) -0.2226(3)
H21 H 0.8042 -0.5670 -0.1599
C25 C 0.6694(4) -0.4051(3) -0.2580(2)
H22 H 0.5919 -0.3862 -0.2190
C26 C 0.5634(3) -0.0646(2) -0.48167(17)
H23 H 0.6545 -0.0548 -0.4549
H24 H 0.5950 -0.0925 -0.5341
O1 O 0.4672(2) -0.1556(2) -0.11277(13)
O2 O 0.4299(2) -0.14135(18) -0.31390(12)
I1A I 0.67653(3) -0.17437(2) 0.294108(14)
I2A I 0.19965(2) 0.09219(2) 0.250773(15)
Zn1A Zn 0.49461(4) 0.05673(3) 0.24092(2)
Zn1A_2 Zn 0.49461(4) 0.05673(3) -0.75908(2)
P1A P 0.52288(8) 0.17995(6) 0.00937(4)
P2A P 0.50494(8) 0.18420(6) -0.60685(4)
C1A C 0.7497(3) 0.1519(3) -0.11784(19)
H1A H 0.6740 0.1436 -0.1543
C2A C 0.8977(3) 0.1459(3) -0.1478(2)
H2A H 0.9221 0.1334 -0.2042
C3A C 1.0094(3) 0.1585(3) -0.0940(2)
H3A H 1.1091 0.1549 -0.1144
C4A C 0.9744(3) 0.1763(3) -0.0102(2)
H4A H 1.0505 0.1852 0.0256
C5A C 0.8271(3) 0.1812(3) 0.0210(2)
H5A H 0.8043 0.1918 0.0782
C6A C 0.7131(3) 0.1702(2) -0.03327(17)
C7A C 0.4466(3) 0.0687(2) -0.01885(18)
H6A H 0.4296 0.0966 -0.0870
H7A H 0.3458 0.0705 0.0069
C8A C 0.3923(3) 0.3353(3) -0.0545(2)
C9A C 0.2870(5) 0.3968(4) -0.0075(3)
H8A H 0.2850 0.3598 0.0576
C10A C 0.1819(6) 0.5161(5) -0.0581(5)
H9A H 0.1099 0.5578 -0.0261
C11A C 0.1833(6) 0.5708(4) -0.1514(5)
H10A H 0.1143 0.6509 -0.1836
C12A C 0.2851(5) 0.5097(4) -0.1991(4)
H11A H 0.2848 0.5473 -0.2643
C13A C 0.3894(4) 0.3918(3) -0.1512(3)
H12A H 0.4584 0.3501 -0.1845
C14A C 0.8102(4) 0.1660(3) -0.5662(3)
H13A H 0.8344 0.1225 -0.6079
C15A C 0.9283(5) 0.1830(4) -0.5193(4)
H14A H 1.0321 0.1506 -0.5296
C16A C 0.8947(5) 0.2461(5) -0.4587(3)
H15A H 0.9754 0.2566 -0.4276
C17A C 0.7436(5) 0.2942(5) -0.4431(3)
H16A H 0.7207 0.3379 -0.4016
C18A C 0.6239(4) 0.2780(4) -0.4892(2)
H17A H 0.5204 0.3109 -0.4785
C19A C 0.6568(3) 0.2137(3) -0.55079(19)
C20A C 0.3420(3) 0.3252(2) -0.64806(18)
C21A C 0.2264(4) 0.3561(3) -0.5912(2)
H18A H 0.2339 0.3045 -0.5278
C22A C 0.0993(4) 0.4635(3) -0.6283(3)
H19A H 0.0208 0.4831 -0.5901
C23A C 0.0889(4) 0.5406(3) -0.7207(3)
H20A H 0.0032 0.6126 -0.7452
C24A C 0.2032(5) 0.5131(3) -0.7774(3)
H21A H 0.1958 0.5670 -0.8401
C25A C 0.3306(4) 0.4051(3) -0.7420(2)
H22A H 0.4081 0.3862 -0.7810
C26A C 0.4366(3) 0.0646(2) -0.51833(17)
H23A H 0.3455 0.0548 -0.5451
H24A H 0.4050 0.0925 -0.4659
O1A O 0.5328(2) 0.1556(2) 0.11277(13)
O2A O 0.5701(2) 0.14135(18) -0.68610(12)
O2A_2 O 0.5701(2) 0.14135(18) 0.31390(12)
loop_
_geom_bond_atom_site_label_1
_geom_bond_atom_site_label_2
_geom_bond_site_symmetry_1
_geom_bond_site_symmetry_2
I1 Zn1 1_555 1_555
I2 Zn1 1_555 1_555
Zn1 O1 1_555 1_555
P1 C6 1_555 1_555
P2 C19 1_555 1_555
C1 H1 1_555 1_555
C2 C1 1_555 1_555
H2 C2 1_555 1_555
C3 C2 1_555 1_555
H3 C3 1_555 1_555
C4 C3 1_555 1_555
H4 C4 1_555 1_555
C5 C4 1_555 1_555
H5 C5 1_555 1_555
C6 C1 1_555 1_555
C7 P1 1_555 1_555
H6 C7 1_555 1_555
H7 C7 1_555 1_555
C8 P1 1_555 1_555
C9 C8 1_555 1_555
H8 C9 1_555 1_555
C10 C9 1_555 1_555
H9 C10 1_555 1_555
C11 C10 1_555 1_555
H10 C11 1_555 1_555
C12 C11 1_555 1_555
H11 C12 1_555 1_555
C13 C8 1_555 1_555
H12 C13 1_555 1_555
C14 H13 1_555 1_555
C15 C14 1_555 1_555
H14 C15 1_555 1_555
C16 C15 1_555 1_555
H15 C16 1_555 1_555
C17 C16 1_555 1_555
H16 C17 1_555 1_555
C18 C17 1_555 1_555
H17 C18 1_555 1_555
C19 C14 1_555 1_555
C20 P2 1_555 1_555
C21 C20 1_555 1_555
H18 C21 1_555 1_555
C22 C21 1_555 1_555
H19 C22 1_555 1_555
C23 C22 1_555 1_555
H20 C23 1_555 1_555
C24 C23 1_555 1_555
H21 C24 1_555 1_555
C25 C20 1_555 1_555
H22 C25 1_555 1_555
C26 P2 1_555 1_555
H23 C26 1_555 1_555
H24 C26 1_555 1_555
O1 P1 1_555 1_555
O2 Zn1 1_555 1_555
I1A Zn1A 1_555 1_555
I2A Zn1A 1_555 1_555
Zn1A O1A 1_555 1_555
Zn1A_2 O2A 1_555 1_555
P1A C6A 1_555 1_555
P2A C19A 1_555 1_555
C1A H1A 1_555 1_555
C2A C1A 1_555 1_555
H2A C2A 1_555 1_555
C3A C2A 1_555 1_555
H3A C3A 1_555 1_555
C4A C3A 1_555 1_555
H4A C4A 1_555 1_555
C5A C4A 1_555 1_555
H5A C5A 1_555 1_555
C6A C1A 1_555 1_555
C7A C7 1_555 1_555
H6A C7A 1_555 1_555
H7A C7A 1_555 1_555
C8A P1A 1_555 1_555
C9A C8A 1_555 1_555
H8A C9A 1_555 1_555
C10A C9A 1_555 1_555
H9A C10A 1_555 1_555
C11A C10A 1_555 1_555
H10A C11A 1_555 1_555
C12A C11A 1_555 1_555
H11A C12A 1_555 1_555
C13A C8A 1_555 1_555
H12A C13A 1_555 1_555
C14A H13A 1_555 1_555
C15A C14A 1_555 1_555
H14A C15A 1_555 1_555
C16A C15A 1_555 1_555
H15A C16A 1_555 1_555
C17A C16A 1_555 1_555
H16A C17A 1_555 1_555
C18A C17A 1_555 1_555
H17A C18A 1_555 1_555
C19A C14A 1_555 1_555
C20A P2A 1_555 1_555
C21A C20A 1_555 1_555
H18A C21A 1_555 1_555
C22A C21A 1_555 1_555
H19A C22A 1_555 1_555
C23A C22A 1_555 1_555
H20A C23A 1_555 1_555
C24A C23A 1_555 1_555
H21A C24A 1_555 1_555
C25A C20A 1_555 1_555
H22A C25A 1_555 1_555
C26A C26 1_555 1_555
H23A C26A 1_555 1_555
H24A C26A 1_555 1_555
O1A P1A 1_555 1_555
O2A P2A 1_555 1_555
O2A_2 Zn1A 1_555 1_555
P2 O2 1_555 1_555
C5 C6 1_555 1_555
C12 C13 1_555 1_555
C18 C19 1_555 1_555
C24 C25 1_555 1_555
P1A C7A 1_555 1_555
P2A C26A 1_555 1_555
C5A C6A 1_555 1_555
C12A C13A 1_555 1_555
C18A C19A 1_555 1_555
C24A C25A 1_555 1_555

#END
