
#######################################################################
#
#                 Cambridge Crystallographic Data Centre
#                                CCDC 
#
#######################################################################
#
# If this CIF has been generated from an entry in the Cambridge 
# Structural Database, then it will include bibliographic, chemical, 
# crystal, experimental, refinement or atomic coordinate data resulting 
# from the CCDC's data processing and validation procedures.
#
#######################################################################

data_GULVIT
_symmetry_cell_setting           triclinic
_symmetry_space_group_name_H-M   'P 1'
_symmetry_Int_Tables_number      1
_space_group_name_Hall           'P 1'
loop_
_symmetry_equiv_pos_site_id
_symmetry_equiv_pos_as_xyz
1 x,y,z
_cell_length_a                   7.7066(8)
_cell_length_b                   8.9430(10)
_cell_length_c                   12.4915(13)
_cell_angle_alpha                76.671(2)
_cell_angle_beta                 84.180(2)
_cell_angle_gamma                69.409(2)
_cell_volume                     784.011
loop_
_atom_site_label
_atom_site_type_symbol
_atom_site_fract_x
_atom_site_fract_y
_atom_site_fract_z
Cd1 Cd 0.4763(4) -0.2222(4) 0.7805(2)
Cd2 Cd 0.50698(12) -0.54098(11) 1.29866(7)
Cd3 Cd 0.44525(12) -0.90218(11) 1.26189(7)
Ni1 Ni 0.0155(4) -0.1979(4) 0.5016(2)
Ni2 Ni 0.9381(5) -0.2437(4) 1.0580(3)
O1 O 0.541(3) -0.691(3) 1.1742(14)
N1 N 0.305(4) -0.307(4) 0.684(2)
O2 O 0.130(3) -0.699(3) 1.2079(17)
O3 O 0.391(3) 0.262(3) 0.3896(15)
O4 O 0.812(2) -0.7342(19) 1.3599(13)
N2 N 0.658(4) -0.152(3) 0.8909(19)
C1 C 0.188(4) -1.123(4) 1.412(2)
N3 N 0.369(3) 0.033(3) 0.6730(16)
C2 C 0.184(3) -0.265(3) 0.6101(17)
C3 C 0.778(4) -0.327(4) 1.152(2)
N4 N 0.574(3) -0.489(2) 0.8930(14)
C4 C 0.759(4) -0.177(4) 0.944(2)
C5 C 0.606(3) -0.679(3) 1.0659(17)
C6 C 0.361(3) 0.221(3) 0.4967(16)
C7 C 0.840(3) -0.266(3) 0.6065(19)
N5 N 0.217(3) -0.364(3) 1.2398(17)
N6 N 0.289(3) -1.073(3) 1.3623(17)
C8 C 0.411(4) 0.065(3) 0.5644(19)
H1 H 0.4771 -0.0231 0.5322
N7 N 0.573(3) -0.478(3) 1.4564(17)
H2 H 0.5412 -0.3692 1.4487
H3 H 0.5111 -0.5161 1.5150
C9 C 0.537(3) -0.523(3) 1.0023(16)
H4 H 0.4627 -0.4392 1.0358
C10 C 0.249(3) 0.352(2) 0.5444(19)
H5 H 0.1945 0.4555 0.5011
N8 N 0.363(3) -0.971(3) 1.1076(18)
H6 H 0.4620 -0.9956 1.0619
H7 H 0.3283 -1.0594 1.1298
N9 N 0.737(3) -0.299(3) 0.6674(18)
C11 C 0.707(3) -0.801(3) 1.0162(16)
H8 H 0.7429 -0.9093 1.0547
C12 C 0.262(3) 0.171(3) 0.7122(17)
H9 H 0.2131 0.1534 0.7832
C13 C 0.670(4) -0.605(3) 0.842(2)
H10 H 0.6801 -0.5846 0.7652
C14 C 0.224(4) 0.323(3) 0.659(2)
H11 H 0.1807 0.4087 0.6965
C15 C 0.757(3) -0.763(2) 0.9058(19)
H12 H 0.8474 -0.8411 0.8739
C16 C 0.111(4) -0.719(4) 1.093(2)
H13 H -0.0151 -0.7155 1.0883
H14 H 0.1206 -0.6209 1.0432
C17 C 0.215(3) -0.839(3) 1.0498(14)
H15 H 0.2683 -0.7925 0.9826
H16 H 0.1327 -0.8875 1.0281
C18 C 0.788(2) -0.563(3) 1.4713(15)
H17 H 0.8501 -0.4921 1.4265
H18 H 0.8158 -0.5755 1.5476
C19 C 0.103(4) -0.320(4) 1.172(3)
C20 C 0.836(3) -1.128(3) 1.3930(15)
C21 C 0.103(2) -0.180(3) 0.9647(15)
C22 C 0.857(5) -0.710(5) 1.444(3)
H19 H 0.9912 -0.7394 1.4405
H20 H 0.8288 -0.7878 1.5052
N10 N 0.224(3) -0.154(3) 0.9099(18)
N11 N 0.670(3) -0.389(3) 1.2036(16)
N12 N 0.722(4) -1.066(4) 1.336(2)
Cd2_2 Cd 0.50698(12) 0.45902(11) 0.29866(7)
Cd3_2 Cd 0.44525(12) 0.09782(11) 0.26189(7)
Ni1_2 Ni 0.0155(4) -1.1979(4) 1.5016(2)
Ni1_3 Ni 1.0155(4) -0.1979(4) 0.5016(2)
Ni1_4 Ni 1.0155(4) -1.1979(4) 1.5016(2)
Ni2_2 Ni -0.0619(5) -0.2437(4) 1.0580(3)
O3_2 O 0.391(3) -0.738(3) 1.3896(15)
C1_2 C 0.188(4) -0.123(4) 0.412(2)
C7_2 C -0.160(3) -0.266(3) 0.6065(19)
C19_2 C 1.103(4) -0.320(4) 1.172(3)
C20_2 C -0.164(3) -0.128(3) 0.3930(15)
C21_2 C 1.103(2) -0.180(3) 0.9647(15)
loop_
_geom_bond_atom_site_label_1
_geom_bond_atom_site_label_2
_geom_bond_site_symmetry_1
_geom_bond_site_symmetry_2
Cd1 N1 1_555 1_555
Cd2 O1 1_555 1_555
Cd3 O1 1_555 1_555
Ni1 C2 1_555 1_555
Ni2 C3 1_555 1_555
O1 C5 1_555 1_555
N1 C2 1_555 1_555
O2 Cd3 1_555 1_555
O3 C6 1_555 1_555
O4 Cd2 1_555 1_555
N2 Cd1 1_555 1_555
C1 N6 1_555 1_555
N3 Cd1 1_555 1_555
C3 N11 1_555 1_555
N4 Cd1 1_555 1_555
C4 Ni2 1_555 1_555
C5 C9 1_555 1_555
C6 C8 1_555 1_555
C7 N9 1_555 1_555
N5 Cd2 1_555 1_555
N6 Cd3 1_555 1_555
C8 N3 1_555 1_555
H1 C8 1_555 1_555
N7 Cd2 1_555 1_555
H2 N7 1_555 1_555
H3 N7 1_555 1_555
C9 N4 1_555 1_555
H4 C9 1_555 1_555
C10 C6 1_555 1_555
H5 C10 1_555 1_555
N8 Cd3 1_555 1_555
H6 N8 1_555 1_555
H7 N8 1_555 1_555
N9 Cd1 1_555 1_555
C11 C5 1_555 1_555
H8 C11 1_555 1_555
C12 N3 1_555 1_555
H9 C12 1_555 1_555
C13 N4 1_555 1_555
H10 C13 1_555 1_555
C14 C10 1_555 1_555
H11 C14 1_555 1_555
C15 C11 1_555 1_555
H12 C15 1_555 1_555
C16 O2 1_555 1_555
H13 C16 1_555 1_555
H14 C16 1_555 1_555
C17 N8 1_555 1_555
H15 C17 1_555 1_555
H16 C17 1_555 1_555
C18 N7 1_555 1_555
H17 C18 1_555 1_555
H18 C18 1_555 1_555
C19 N5 1_555 1_555
C20 N12 1_555 1_555
C21 N10 1_555 1_555
C22 O4 1_555 1_555
H19 C22 1_555 1_555
H20 C22 1_555 1_555
N10 Cd1 1_555 1_555
N11 Cd2 1_555 1_555
N12 Cd3 1_555 1_555
Cd2_2 O3 1_555 1_555
Cd3_2 O3 1_555 1_555
Ni1_2 C1 1_555 1_555
Ni1_3 C7 1_555 1_555
Ni1_4 C20 1_555 1_555
Ni2_2 C19 1_555 1_555
O3_2 Cd2 1_555 1_555
C1_2 Ni1 1_555 1_555
C7_2 Ni1 1_555 1_555
C19_2 Ni2 1_555 1_555
C20_2 Ni1 1_555 1_555
C21_2 Ni2 1_555 1_555
Cd3 O3_2 1_555 1_555
N2 C4 1_555 1_555
C12 C14 1_555 1_555
C13 C15 1_555 1_555
C16 C17 1_555 1_555
C18 C22 1_555 1_555
C21 Ni2_2 1_555 1_555

#END
