
#######################################################################
#
#                 Cambridge Crystallographic Data Centre
#                                CCDC 
#
#######################################################################
#
# If this CIF has been generated from an entry in the Cambridge 
# Structural Database, then it will include bibliographic, chemical, 
# crystal, experimental, refinement or atomic coordinate data resulting 
# from the CCDC's data processing and validation procedures.
#
#######################################################################

data_GULVUF
_symmetry_cell_setting           orthorhombic
_symmetry_space_group_name_H-M   'F d d d'
_symmetry_Int_Tables_number      70
_space_group_name_Hall           '-F 2uv 2vw'
loop_
_symmetry_equiv_pos_site_id
_symmetry_equiv_pos_as_xyz
1 x,y,z
2 3/4-x,3/4-y,z
3 3/4-x,y,3/4-z
4 x,3/4-y,3/4-z
5 x,1/2+y,1/2+z
6 3/4-x,1/4-y,1/2+z
7 3/4-x,1/2+y,1/4-z
8 x,1/4-y,1/4-z
9 1/2+x,y,1/2+z
10 1/4-x,3/4-y,1/2+z
11 1/4-x,y,1/4-z
12 1/2+x,3/4-y,1/4-z
13 1/2+x,1/2+y,z
14 1/4-x,1/4-y,z
15 1/4-x,1/2+y,3/4-z
16 1/2+x,1/4-y,3/4-z
17 -x,-y,-z
18 1/4+x,1/4+y,-z
19 1/4+x,-y,1/4+z
20 -x,1/4+y,1/4+z
21 -x,1/2-y,1/2-z
22 1/4+x,3/4+y,1/2-z
23 1/4+x,1/2-y,3/4+z
24 -x,3/4+y,3/4+z
25 1/2-x,-y,1/2-z
26 3/4+x,1/4+y,1/2-z
27 3/4+x,-y,3/4+z
28 1/2-x,1/4+y,3/4+z
29 1/2-x,1/2-y,-z
30 3/4+x,3/4+y,-z
31 3/4+x,1/2-y,1/4+z
32 1/2-x,3/4+y,1/4+z
_cell_length_a                   16.247(6)
_cell_length_b                   48.939(19)
_cell_length_c                   80.84(3)
_cell_angle_alpha                90
_cell_angle_beta                 90
_cell_angle_gamma                90
_cell_volume                     64276.8
loop_
_atom_site_label
_atom_site_type_symbol
_atom_site_fract_x
_atom_site_fract_y
_atom_site_fract_z
Yb1 Yb -0.1250 0.8750 0.630321(5)
Yb2 Yb 0.1250 0.909695(11) 0.6250
O1 O 0.1024(4) 0.87457(14) 0.64142(6)
O2 O -0.0104(4) 0.85173(11) 0.63646(7)
O3 O 0.2946(4) 0.67645(13) 0.85444(8)
O4 O 0.1794(4) 0.65251(13) 0.85141(6)
O5 O 0.0123(9) 0.7268(3) 0.72349(13)
O6 O 0.2655(10) 0.7736(3) 0.76022(14)
O7 O -0.1236(6) 0.90457(14) 0.60877(7)
O8 O 0.0030(5) 0.90563(18) 0.61164(7)
O9 O 0.1134(9) 0.9555(3) 0.50417(15)
O10 O 0.0770(7) 0.9564(2) 0.61628(14)
C1 C 0.0547(7) 0.8554(2) 0.64437(10)
C2 C 0.0743(4) 0.83639(13) 0.65796(6)
C3 C 0.1475(4) 0.84064(13) 0.66650(8)
H1 H 0.1840 0.8541 0.6630
C4 C 0.1660(4) 0.82482(15) 0.68029(8)
H2 H 0.2149 0.8277 0.6860
C5 C 0.1114(4) 0.80475(14) 0.68553(7)
C6 C 0.0382(4) 0.80050(13) 0.67700(9)
H3 H 0.0017 0.7871 0.6805
C7 C 0.0197(4) 0.81631(15) 0.66321(8)
H4 H -0.0292 0.8135 0.6575
C8 C 0.1296(7) 0.7906(3) 0.70097(15)
H5 H 0.1814 0.7953 0.7049
C9 C 0.0933(8) 0.7731(3) 0.71080(15)
H6 H 0.0414 0.7674 0.7074
C10 C 0.1218(6) 0.76140(17) 0.72621(9)
C11 C 0.0808(6) 0.73920(19) 0.73306(10)
C12 C 0.1054(6) 0.72885(17) 0.74829(10)
H7 H 0.0779 0.7140 0.7529
C13 C 0.1710(6) 0.7407(2) 0.75666(9)
C14 C 0.2121(6) 0.7629(2) 0.74981(11)
C15 C 0.1875(6) 0.77325(19) 0.73458(11)
H8 H 0.2149 0.7881 0.7300
C16 C 0.1948(9) 0.7317(3) 0.77308(15)
H9 H 0.2355 0.7422 0.7781
C17 C 0.1680(9) 0.7112(3) 0.78193(16)
H10 H 0.1273 0.7009 0.7767
C18 C 0.1892(5) 0.70149(17) 0.79797(7)
C19 C 0.2480(5) 0.71405(15) 0.80790(10)
H11 H 0.2764 0.7292 0.8040
C20 C 0.2641(4) 0.70391(17) 0.82362(9)
H12 H 0.3034 0.7123 0.8303
C21 C 0.2216(5) 0.68121(17) 0.82942(7)
C22 C 0.1628(5) 0.66865(14) 0.81950(9)
H13 H 0.1344 0.6535 0.8234
C23 C 0.1467(5) 0.67879(16) 0.80377(8)
H14 H 0.1074 0.6704 0.7971
C24 C 0.2317(7) 0.6690(2) 0.84640(11)
C25 C -0.0561(9) 0.9111(3) 0.60352(12)
C26 C -0.0491(5) 0.92507(14) 0.58779(6)
C27 C -0.1202(4) 0.93710(16) 0.58160(8)
H15 H -0.1691 0.9360 0.5876
C28 C -0.1183(4) 0.95069(16) 0.56651(8)
H16 H -0.1659 0.9587 0.5624
C29 C -0.0452(4) 0.95225(16) 0.55760(7)
C30 C 0.0259(4) 0.94023(18) 0.56380(8)
H17 H 0.0747 0.9413 0.5578
C31 C 0.0240(4) 0.92664(16) 0.57889(8)
H18 H 0.0715 0.9186 0.5830
C32 C -0.0466(6) 0.9672(3) 0.54126(14)
H19 H -0.0964 0.9755 0.5387
C33 C 0.0115(8) 0.9702(3) 0.53022(13)
H20 H 0.0629 0.9628 0.5325
C34 C 0.0010(8) 0.9848(3) 0.51432(11)
C35 C -0.0537(7) 1.0067(2) 0.51318(10)
H21 H -0.0880 1.0113 0.5220
C36 C 0.0552(9) 0.9787(3) 0.50153(13)
C37 C -0.0131(12) 0.7026(3) 0.7352(3)
H22 H -0.0586 0.6929 0.7304
H23 H -0.0290 0.7097 0.7458
H24 H 0.0327 0.6904 0.7365
C38 C 0.1665(12) 0.9551(5) 0.4883(2)
H25 H 0.2061 0.9406 0.4890
H26 H 0.1947 0.9723 0.4872
H27 H 0.1318 0.9523 0.4789
C39 C 0.3008(13) 0.7990(3) 0.7490(3)
H28 H 0.3423 0.8087 0.7551
H29 H 0.2565 0.8112 0.7464
H30 H 0.3242 0.7920 0.7390
Yb1T Yb 0.1250 0.6250 0.869679(5)
Yb1P Yb 0.1250 1.1250 0.369679(5)
Yb1X Yb -0.3750 1.1250 0.869679(5)
Yb2U Yb 0.3750 0.659695(11) 0.8750
Yb2P Yb -0.1250 1.090305(11) 0.3750
Yb2A Yb -0.3750 0.840305(11) 0.6250
Yb2R Yb -0.6250 1.090305(11) 0.8750
O1A O -0.3524(4) 0.87543(14) 0.64142(6)
O1J O 0.1476(4) 0.87457(14) 0.60858(6)
O2A O -0.2396(4) 0.89827(11) 0.63646(7)
O3A O -0.5446(4) 1.07355(13) 0.85444(8)
O3Y O 0.0446(4) 0.92645(13) 0.64556(8)
O3AA O 0.2054(4) 0.92645(13) 0.60444(8)
O4A O -0.4294(4) 1.09749(13) 0.85141(6)
O4Y O -0.0706(4) 0.90251(13) 0.64859(6)
O4T O -0.1794(4) 0.84749(13) 0.64859(6)
O5A O -0.2623(9) 1.0232(3) 0.72349(13)
O6A O -0.5155(10) 0.9764(3) 0.76022(14)
O7P O 0.1236(6) 1.09543(14) 0.39123(7)
O7A O -0.1264(6) 0.84543(14) 0.60877(7)
O8P O -0.0030(5) 1.09437(18) 0.38836(7)
O8J O 0.2470(5) 0.90563(18) 0.63836(7)
O9P O -0.1134(9) 1.0445(3) 0.49583(15)
O10J O 0.1730(7) 0.9564(2) 0.63372(14)
C1A C -0.3047(7) 0.8946(2) 0.64437(10)
C2A C -0.3243(4) 0.91361(13) 0.65796(6)
C3A C -0.3975(4) 0.90936(13) 0.66650(8)
H1A H -0.4340 0.8959 0.6630
C4A C -0.4160(4) 0.92518(15) 0.68029(8)
H2A H -0.4649 0.9223 0.6860
C5A C -0.3614(4) 0.94525(14) 0.68553(7)
C6A C -0.2882(4) 0.94950(13) 0.67700(9)
H3A H -0.2517 0.9629 0.6805
C7A C -0.2697(4) 0.93369(15) 0.66321(8)
H4A H -0.2208 0.9365 0.6575
C8A C -0.3796(7) 0.9594(3) 0.70097(15)
H5A H -0.4314 0.9547 0.7049
C9A C -0.3433(8) 0.9769(3) 0.71080(15)
H6A H -0.2914 0.9826 0.7074
C10A C -0.3718(6) 0.98860(17) 0.72621(9)
C11A C -0.3308(6) 1.01080(19) 0.73306(10)
C12A C -0.3554(6) 1.02115(17) 0.74829(10)
H7A H -0.3279 1.0360 0.7529
C13A C -0.4210(6) 1.0093(2) 0.75666(9)
C14A C -0.4621(6) 0.9871(2) 0.74981(11)
C15A C -0.4375(6) 0.97675(19) 0.73458(11)
H8A H -0.4649 0.9619 0.7300
C16A C -0.4448(9) 1.0183(3) 0.77308(15)
H9A H -0.4855 1.0078 0.7781
C17A C -0.4180(9) 1.0388(3) 0.78193(16)
H10A H -0.3773 1.0491 0.7767
C18A C -0.4392(5) 1.04851(17) 0.79797(7)
C19A C -0.4980(5) 1.03595(15) 0.80790(10)
H11A H -0.5264 1.0208 0.8040
C20A C -0.5141(4) 1.04609(17) 0.82362(9)
H12A H -0.5534 1.0377 0.8303
C21A C -0.4716(5) 1.06879(17) 0.82942(7)
C22A C -0.4128(5) 1.08135(14) 0.81950(9)
H13A H -0.3844 1.0965 0.8234
C23A C -0.3967(5) 1.07121(16) 0.80377(8)
H14A H -0.3574 1.0796 0.7971
C24A C -0.4817(7) 1.0810(2) 0.84640(11)
C25P C 0.0561(9) 1.0889(3) 0.39648(12)
C26P C 0.0491(5) 1.07493(14) 0.41221(6)
C27P C 0.1202(4) 1.06290(16) 0.41840(8)
H15P H 0.1691 1.0640 0.4124
C28P C 0.1183(4) 1.04931(16) 0.43349(8)
H16P H 0.1659 1.0413 0.4376
C29P C 0.0452(4) 1.04775(16) 0.44240(7)
C30P C -0.0259(4) 1.05977(18) 0.43620(8)
H17P H -0.0747 1.0587 0.4422
C31P C -0.0240(4) 1.07336(16) 0.42111(8)
H18P H -0.0715 1.0814 0.4170
C32P C 0.0466(6) 1.0328(3) 0.45874(14)
H19P H 0.0964 1.0245 0.4613
C33P C -0.0115(8) 1.0298(3) 0.46978(13)
H20P H -0.0629 1.0372 0.4675
C34P C -0.0010(8) 1.0152(3) 0.48568(11)
C35P C 0.0537(7) 0.9933(2) 0.48682(10)
H21P H 0.0880 0.9887 0.4780
C36P C -0.0552(9) 1.0213(3) 0.49847(13)
C37A C -0.2369(12) 1.0474(3) 0.7352(3)
H22A H -0.1914 1.0571 0.7304
H23A H -0.2210 1.0403 0.7458
H24A H -0.2827 1.0596 0.7365
C38P C -0.1665(12) 1.0449(5) 0.5117(2)
H25P H -0.2061 1.0594 0.5110
H26P H -0.1947 1.0277 0.5128
H27P H -0.1318 1.0477 0.5211
C39A C -0.5508(13) 0.9510(3) 0.7490(3)
H28A H -0.5923 0.9413 0.7551
H29A H -0.5065 0.9388 0.7464
H30A H -0.5742 0.9580 0.7390
loop_
_geom_bond_atom_site_label_1
_geom_bond_atom_site_label_2
_geom_bond_site_symmetry_1
_geom_bond_site_symmetry_2
Yb1 O2 1_555 1_555
Yb2 O1 1_555 1_555
O1 C1 1_555 1_555
O2 C1 1_555 1_555
O3 C24 1_555 1_555
O4 C24 1_555 1_555
O5 C11 1_555 1_555
O6 C14 1_555 1_555
O7 Yb1 1_555 1_555
O8 Yb2 1_555 1_555
O9 C36 1_555 1_555
O10 Yb2 1_555 1_555
C1 C2 1_555 1_555
C2 C3 1_555 1_555
C3 H1 1_555 1_555
C4 C3 1_555 1_555
H2 C4 1_555 1_555
C5 C4 1_555 1_555
C6 C5 1_555 1_555
H3 C6 1_555 1_555
C7 C2 1_555 1_555
H4 C7 1_555 1_555
C8 C5 1_555 1_555
H5 C8 1_555 1_555
C9 C8 1_555 1_555
H6 C9 1_555 1_555
C10 C9 1_555 1_555
C11 C10 1_555 1_555
C12 C11 1_555 1_555
H7 C12 1_555 1_555
C13 C12 1_555 1_555
C14 C13 1_555 1_555
C15 C10 1_555 1_555
H8 C15 1_555 1_555
C16 C13 1_555 1_555
H9 C16 1_555 1_555
C17 C16 1_555 1_555
H10 C17 1_555 1_555
C18 C17 1_555 1_555
C19 C18 1_555 1_555
H11 C19 1_555 1_555
C20 C19 1_555 1_555
H12 C20 1_555 1_555
C21 C20 1_555 1_555
C22 C21 1_555 1_555
H13 C22 1_555 1_555
C23 C18 1_555 1_555
H14 C23 1_555 1_555
C24 C21 1_555 1_555
C25 O7 1_555 1_555
C26 C25 1_555 1_555
C27 C26 1_555 1_555
H15 C27 1_555 1_555
C28 C27 1_555 1_555
H16 C28 1_555 1_555
C29 C28 1_555 1_555
C30 C29 1_555 1_555
H17 C30 1_555 1_555
C31 C26 1_555 1_555
H18 C31 1_555 1_555
C32 C29 1_555 1_555
H19 C32 1_555 1_555
C33 C32 1_555 1_555
H20 C33 1_555 1_555
C34 C33 1_555 1_555
C35 C34 1_555 1_555
H21 C35 1_555 1_555
C36 C34 1_555 1_555
C37 O5 1_555 1_555
H22 C37 1_555 1_555
H23 C37 1_555 1_555
H24 C37 1_555 1_555
C38 O9 1_555 1_555
H25 C38 1_555 1_555
H26 C38 1_555 1_555
H27 C38 1_555 1_555
C39 O6 1_555 1_555
H28 C39 1_555 1_555
H29 C39 1_555 1_555
H30 C39 1_555 1_555
Yb1T O4 1_555 1_555
Yb1P O7P 1_555 1_555
Yb1X O4A 1_555 1_555
Yb2U O3 1_555 1_555
Yb2P O8P 1_555 1_555
Yb2A O1A 1_555 1_555
Yb2R O3A 1_555 1_555
O1A C1A 1_555 1_555
O1J Yb2 1_555 1_555
O2A Yb1 1_555 1_555
O3A C24A 1_555 1_555
O3Y Yb2 1_555 1_555
O3AA Yb2 1_555 1_555
O4A C24A 1_555 1_555
O4Y Yb1 1_555 1_555
O4T Yb1 1_555 1_555
O5A C11A 1_555 1_555
O6A C14A 1_555 1_555
O7P C25P 1_555 1_555
O7A Yb1 1_555 1_555
O8P C25P 1_555 1_555
O8J Yb2 1_555 1_555
O9P C36P 1_555 1_555
O10J Yb2 1_555 1_555
C1A O2A 1_555 1_555
C2A C1A 1_555 1_555
C3A C2A 1_555 1_555
H1A C3A 1_555 1_555
C4A C3A 1_555 1_555
H2A C4A 1_555 1_555
C5A C4A 1_555 1_555
C6A C5A 1_555 1_555
H3A C6A 1_555 1_555
C7A C2A 1_555 1_555
H4A C7A 1_555 1_555
C8A C5A 1_555 1_555
H5A C8A 1_555 1_555
C9A C8A 1_555 1_555
H6A C9A 1_555 1_555
C10A C9A 1_555 1_555
C11A C10A 1_555 1_555
C12A C11A 1_555 1_555
H7A C12A 1_555 1_555
C13A C12A 1_555 1_555
C14A C13A 1_555 1_555
C15A C10A 1_555 1_555
H8A C15A 1_555 1_555
C16A C13A 1_555 1_555
H9A C16A 1_555 1_555
C17A C16A 1_555 1_555
H10A C17A 1_555 1_555
C18A C17A 1_555 1_555
C19A C18A 1_555 1_555
H11A C19A 1_555 1_555
C20A C19A 1_555 1_555
H12A C20A 1_555 1_555
C21A C20A 1_555 1_555
C22A C21A 1_555 1_555
H13A C22A 1_555 1_555
C23A C18A 1_555 1_555
H14A C23A 1_555 1_555
C24A C21A 1_555 1_555
C25P C26P 1_555 1_555
C26P C27P 1_555 1_555
C27P H15P 1_555 1_555
C28P C27P 1_555 1_555
H16P C28P 1_555 1_555
C29P C28P 1_555 1_555
C30P C29P 1_555 1_555
H17P C30P 1_555 1_555
C31P C26P 1_555 1_555
H18P C31P 1_555 1_555
C32P C29P 1_555 1_555
H19P C32P 1_555 1_555
C33P C32P 1_555 1_555
H20P C33P 1_555 1_555
C34P C33P 1_555 1_555
C35P C36 1_555 1_555
H21P C35P 1_555 1_555
C36P C35 1_555 1_555
C37A O5A 1_555 1_555
H22A C37A 1_555 1_555
H23A C37A 1_555 1_555
H24A C37A 1_555 1_555
C38P O9P 1_555 1_555
H25P C38P 1_555 1_555
H26P C38P 1_555 1_555
H27P C38P 1_555 1_555
C39A O6A 1_555 1_555
H28A C39A 1_555 1_555
H29A C39A 1_555 1_555
H30A C39A 1_555 1_555
O8 C25 1_555 1_555
C6 C7 1_555 1_555
C14 C15 1_555 1_555
C22 C23 1_555 1_555
C30 C31 1_555 1_555
C6A C7A 1_555 1_555
C14A C15A 1_555 1_555
C22A C23A 1_555 1_555
C30P C31P 1_555 1_555
C34P C35P 1_555 1_555
C34P C36P 1_555 1_555

#END
