
#######################################################################
#
#                 Cambridge Crystallographic Data Centre
#                                CCDC 
#
#######################################################################
#
# If this CIF has been generated from an entry in the Cambridge 
# Structural Database, then it will include bibliographic, chemical, 
# crystal, experimental, refinement or atomic coordinate data resulting 
# from the CCDC's data processing and validation procedures.
#
#######################################################################

data_GULYIX
_symmetry_cell_setting           monoclinic
_symmetry_space_group_name_H-M   'C 2/c'
_symmetry_Int_Tables_number      15
_space_group_name_Hall           '-C 2yn'
loop_
_symmetry_equiv_pos_site_id
_symmetry_equiv_pos_as_xyz
1 x,y,z
2 -x,y,1/2-z
3 1/2+x,1/2+y,z
4 1/2-x,1/2+y,1/2-z
5 -x,-y,-z
6 x,-y,1/2+z
7 1/2-x,1/2-y,-z
8 1/2+x,1/2-y,1/2+z
_cell_length_a                   21.283(5)
_cell_length_b                   12.194(5)
_cell_length_c                   13.793(5)
_cell_angle_alpha                90
_cell_angle_beta                 129.475(5)
_cell_angle_gamma                90
_cell_volume                     2763.12
loop_
_atom_site_label
_atom_site_type_symbol
_atom_site_fract_x
_atom_site_fract_y
_atom_site_fract_z
W1 W 0.0000 0.285010(16) -0.2500
Cu1 Cu 0.0000 0.52048(7) -0.2500
Cu2 Cu 0.0000 0.06491(6) -0.2500
Cu3 Cu -0.06067(3) 0.28857(4) -0.12535(5)
S1 S -0.10054(6) 0.39145(8) -0.29750(10)
S2 S 0.04293(6) 0.17926(8) -0.08574(9)
N1 N -0.0331(2) 0.5986(3) -0.4010(4)
N2 N 0.0919(2) -0.0417(3) -0.1986(3)
N3 N -0.1591(2) 0.1774(3) -0.2033(3)
C1 C -0.0444(2) 0.6422(3) -0.4850(4)
C2 C 0.1700(3) -0.0174(4) -0.1052(4)
H1 H 0.1824 0.0491 -0.0635
C3 C 0.2328(3) -0.0866(4) -0.0681(4)
H2 H 0.2864 -0.0669 -0.0027
C4 C 0.2156(3) -0.1844(4) -0.1283(5)
H3 H 0.2572 -0.2324 -0.1047
C5 C 0.1360(4) -0.2107(4) -0.2241(6)
H4 H 0.1225 -0.2768 -0.2669
C6 C 0.0763(3) -0.1381(4) -0.2560(5)
H5 H 0.0224 -0.1569 -0.3207
C7 C -0.2341(3) 0.1951(4) -0.3094(4)
H6 H -0.2435 0.2568 -0.3565
C8 C -0.2988(3) 0.1269(4) -0.3532(5)
H7 H -0.3504 0.1427 -0.4278
C9 C -0.2861(3) 0.0356(5) -0.2856(5)
H8 H -0.3287 -0.0116 -0.3125
C10 C -0.2087(3) 0.0154(4) -0.1766(5)
H9 H -0.1978 -0.0465 -0.1288
C11 C -0.1481(3) 0.0872(4) -0.1396(4)
H10 H -0.0960 0.0724 -0.0656
Cu3A Cu 0.06067(3) 0.28857(4) -0.37465(5)
S1A S 0.10054(6) 0.39145(8) -0.20250(10)
S2A S -0.04293(6) 0.17926(8) -0.41426(9)
N1A N 0.0331(2) 0.5986(3) -0.0990(4)
N2A N -0.0919(2) -0.0417(3) -0.3014(3)
N3A N 0.1591(2) 0.1774(3) -0.2967(3)
C1A C 0.0444(2) 0.6422(3) -0.0150(4)
C2A C -0.1700(3) -0.0174(4) -0.3948(4)
H1A H -0.1824 0.0491 -0.4365
C3A C -0.2328(3) -0.0866(4) -0.4319(4)
H2A H -0.2864 -0.0669 -0.4973
C4A C -0.2156(3) -0.1844(4) -0.3717(5)
H3A H -0.2572 -0.2324 -0.3953
C5A C -0.1360(4) -0.2107(4) -0.2759(6)
H4A H -0.1225 -0.2768 -0.2331
C6A C -0.0763(3) -0.1381(4) -0.2440(5)
H5A H -0.0224 -0.1569 -0.1793
C7A C 0.2341(3) 0.1951(4) -0.1906(4)
H6A H 0.2435 0.2568 -0.1435
C8A C 0.2988(3) 0.1269(4) -0.1468(5)
H7A H 0.3504 0.1427 -0.0722
C9A C 0.2861(3) 0.0356(5) -0.2144(5)
H8A H 0.3287 -0.0116 -0.1875
C10A C 0.2087(3) 0.0154(4) -0.3234(5)
H9A H 0.1978 -0.0465 -0.3712
C11A C 0.1481(3) 0.0872(4) -0.3604(4)
H10A H 0.0960 0.0724 -0.4344
Cu3D Cu 0.06067(3) 0.71143(4) 0.12535(5)
Cu3E Cu -0.06067(3) 0.71143(4) -0.62535(5)
C1D C 0.0444(2) 0.3578(3) -0.5150(4)
C1E C -0.0444(2) 0.3578(3) 0.0150(4)
loop_
_geom_bond_atom_site_label_1
_geom_bond_atom_site_label_2
_geom_bond_site_symmetry_1
_geom_bond_site_symmetry_2
W1 S1 1_555 1_555
Cu1 S1 1_555 1_555
Cu2 S2 1_555 1_555
Cu3 S1 1_555 1_555
S2 W1 1_555 1_555
N1 Cu1 1_555 1_555
N2 Cu2 1_555 1_555
N3 Cu3 1_555 1_555
C1 N1 1_555 1_555
C2 N2 1_555 1_555
H1 C2 1_555 1_555
C3 C2 1_555 1_555
H2 C3 1_555 1_555
C4 C3 1_555 1_555
H3 C4 1_555 1_555
C5 C4 1_555 1_555
H4 C5 1_555 1_555
C6 N2 1_555 1_555
H5 C6 1_555 1_555
C7 N3 1_555 1_555
H6 C7 1_555 1_555
C8 C7 1_555 1_555
H7 C8 1_555 1_555
C9 C8 1_555 1_555
H8 C9 1_555 1_555
C10 C9 1_555 1_555
H9 C10 1_555 1_555
C11 N3 1_555 1_555
H10 C11 1_555 1_555
Cu3A S1A 1_555 1_555
S1A W1 1_555 1_555
S2A W1 1_555 1_555
N1A Cu1 1_555 1_555
N2A Cu2 1_555 1_555
N3A Cu3A 1_555 1_555
C1A N1A 1_555 1_555
C2A N2A 1_555 1_555
H1A C2A 1_555 1_555
C3A C2A 1_555 1_555
H2A C3A 1_555 1_555
C4A C3A 1_555 1_555
H3A C4A 1_555 1_555
C5A C4A 1_555 1_555
H4A C5A 1_555 1_555
C6A N2A 1_555 1_555
H5A C6A 1_555 1_555
C7A N3A 1_555 1_555
H6A C7A 1_555 1_555
C8A C7A 1_555 1_555
H7A C8A 1_555 1_555
C9A C8A 1_555 1_555
H8A C9A 1_555 1_555
C10A C9A 1_555 1_555
H9A C10A 1_555 1_555
C11A N3A 1_555 1_555
H10A C11A 1_555 1_555
Cu3D C1A 1_555 1_555
Cu3E C1 1_555 1_555
C1D Cu3A 1_555 1_555
C1E Cu3 1_555 1_555
Cu1 S1A 1_555 1_555
Cu2 S2A 1_555 1_555
Cu3 S2 1_555 1_555
C5 C6 1_555 1_555
C10 C11 1_555 1_555
Cu3A S2A 1_555 1_555
C5A C6A 1_555 1_555
C10A C11A 1_555 1_555

#END
