
#######################################################################
#
#                 Cambridge Crystallographic Data Centre
#                                CCDC 
#
#######################################################################
#
# If this CIF has been generated from an entry in the Cambridge 
# Structural Database, then it will include bibliographic, chemical, 
# crystal, experimental, refinement or atomic coordinate data resulting 
# from the CCDC's data processing and validation procedures.
#
#######################################################################

data_GULYUJ
_symmetry_cell_setting           monoclinic
_symmetry_space_group_name_H-M   'P 21/c'
_symmetry_Int_Tables_number      14
_space_group_name_Hall           '-P 2ybc'
loop_
_symmetry_equiv_pos_site_id
_symmetry_equiv_pos_as_xyz
1 x,y,z
2 -x,1/2+y,1/2-z
3 -x,-y,-z
4 x,1/2-y,1/2+z
_cell_length_a                   14.834(3)
_cell_length_b                   16.069(3)
_cell_length_c                   30.081(9)
_cell_angle_alpha                90
_cell_angle_beta                 107.33(3)
_cell_angle_gamma                90
_cell_volume                     6844.84
loop_
_atom_site_label
_atom_site_type_symbol
_atom_site_fract_x
_atom_site_fract_y
_atom_site_fract_z
W1 W -0.35649(4) -0.27459(4) -0.396702(18)
W2 W -0.14693(4) -0.77467(4) -0.356039(18)
Cu1 Cu -0.36504(13) -0.15433(11) -0.33475(6)
Cu2 Cu -0.35139(13) -0.15045(12) -0.45762(6)
Cu3 Cu -0.33572(12) -0.39295(12) -0.45692(6)
Cu4 Cu -0.35518(13) -0.39707(11) -0.33383(6)
Cu5 Cu -0.15424(13) -0.65378(11) -0.29466(6)
Cu6 Cu -0.16400(13) 0.10276(11) -0.29592(6)
Cu7 Cu -0.14970(13) 0.10662(12) -0.42055(6)
Cu8 Cu -0.13711(13) -0.65075(12) -0.41653(6)
S1 S -0.4519(3) -0.1648(2) -0.41215(12)
S2 S -0.2580(2) -0.2663(2) -0.43959(12)
S3 S -0.4369(3) -0.3948(2) -0.41228(12)
S4 S -0.2735(3) -0.2734(2) -0.32160(12)
S5 S -0.2465(2) -0.7720(2) -0.31260(12)
S6 S -0.0648(3) -0.8922(3) -0.34246(12)
S7 S -0.2310(2) -0.7686(3) -0.43084(12)
S8 S -0.0527(3) -0.6628(3) -0.33875(13)
N1 N -0.2456(10) 0.0031(9) -0.3045(4)
N2 N -0.2728(9) -0.0479(8) -0.4496(4)
N3 N -0.2505(9) -0.4909(10) -0.4476(4)
N4 N -0.2344(9) -0.5535(9) -0.3019(4)
C1 C -0.2911(10) -0.0549(10) -0.3135(5)
C2 C -0.2283(9) 0.0106(8) -0.4429(4)
C3 C -0.2063(9) -0.5512(9) -0.4370(5)
C4 C -0.2826(9) -0.4954(8) -0.3115(4)
N5 N -0.4619(8) -0.1679(7) -0.2978(4)
N6 N -0.4345(9) -0.1509(8) -0.5270(4)
N7 N -0.4201(8) -0.3937(7) -0.5255(4)
N8 N -0.4618(8) -0.4027(7) -0.3004(4)
N9 N -0.0707(8) -0.6418(6) -0.2261(4)
N10 N -0.0327(8) -0.6512(9) -0.4507(4)
N11 N -0.0467(9) 0.1175(8) -0.4564(4)
N12 N -0.0760(8) 0.1155(8) -0.2270(4)
C5 C -0.5566(10) -0.1575(10) -0.3182(6)
H1 H -0.5789 -0.1483 -0.3501
C6 C -0.6223(13) -0.1602(10) -0.2919(6)
H2 H -0.6864 -0.1514 -0.3062
C7 C -0.5885(12) -0.1760(11) -0.2449(6)
H3 H -0.6289 -0.1765 -0.2264
C8 C -0.4935(13) -0.1912(11) -0.2260(6)
H4 H -0.4693 -0.2063 -0.1948
C9 C -0.4349(12) -0.1840(11) -0.2531(5)
H5 H -0.3706 -0.1911 -0.2387
C10 C -0.5185(12) -0.1162(11) -0.5415(5)
H6 H -0.5460 -0.0997 -0.5189
C11 C -0.5694(10) -0.1021(11) -0.5875(5)
H7 H -0.6283 -0.0767 -0.5955
C12 C -0.5283(14) -0.1278(13) -0.6211(5)
H8 H -0.5572 -0.1175 -0.6526
C13 C -0.4456(13) -0.1680(11) -0.6065(5)
H9 H -0.4190 -0.1894 -0.6284
C14 C -0.3996(13) -0.1783(10) -0.5604(6)
H10 H -0.3416 -0.2055 -0.5519
C15 C -0.5087(12) -0.3710(11) -0.5397(5)
H11 H -0.5365 -0.3524 -0.5175
C16 C -0.5633(10) -0.3732(11) -0.5857(6)
H12 H -0.6272 -0.3600 -0.5937
C17 C -0.5234(13) -0.3948(11) -0.6191(6)
H13 H -0.5573 -0.3907 -0.6505
C18 C -0.4308(12) -0.4230(10) -0.6055(5)
H14 H -0.4016 -0.4428 -0.6269
C19 C -0.3842(11) -0.4199(10) -0.5579(5)
H15 H -0.3219 -0.4381 -0.5482
C20 C -0.5472(11) -0.3674(12) -0.3206(5)
H16 H -0.5563 -0.3376 -0.3481
C21 C -0.6228(12) -0.3744(13) -0.3015(6)
H17 H -0.6819 -0.3517 -0.3162
C22 C -0.6043(13) -0.4165(11) -0.2600(6)
H18 H -0.6520 -0.4204 -0.2459
C23 C -0.5205(15) -0.4522(12) -0.2389(6)
H19 H -0.5089 -0.4817 -0.2112
C24 C -0.4512(13) -0.4417(11) -0.2621(6)
H20 H -0.3924 -0.4654 -0.2482
C25 C -0.1087(10) -0.6120(11) -0.1943(5)
H21 H -0.1736 -0.6032 -0.2035
C26 C -0.0589(11) -0.5935(11) -0.1492(5)
H22 H -0.0881 -0.5709 -0.1286
C27 C 0.0388(10) -0.6104(8) -0.1356(5)
H23 H 0.0754 -0.6012 -0.1050
C28 C 0.0794(11) -0.6402(10) -0.1675(5)
H24 H 0.1439 -0.6505 -0.1592
C29 C 0.0233(10) -0.6545(10) -0.2116(5)
H25 H 0.0517 -0.6744 -0.2332
C30 C -0.0521(11) -0.6117(10) -0.4924(5)
H26 H -0.1128 -0.5913 -0.5057
C31 C 0.0143(13) -0.6000(12) -0.5162(6)
H27 H -0.0006 -0.5715 -0.5443
C32 C 0.1034(13) -0.6327(12) -0.4961(6)
H28 H 0.1498 -0.6285 -0.5110
C33 C 0.1218(12) -0.6714(11) -0.4538(6)
H29 H 0.1825 -0.6905 -0.4390
C34 C 0.0535(11) -0.6821(10) -0.4332(5)
H30 H 0.0673 -0.7123 -0.4056
C35 C -0.0765(12) 0.1516(11) -0.4999(5)
H31 H -0.1388 0.1690 -0.5120
C36 C -0.0140(14) 0.1605(11) -0.5266(6)
H32 H -0.0348 0.1817 -0.5567
C37 C 0.0793(13) 0.1372(12) -0.5070(6)
H33 H 0.1233 0.1448 -0.5231
C38 C 0.1058(14) 0.1022(12) -0.4629(7)
H34 H 0.1674 0.0837 -0.4496
C39 C 0.0397(13) 0.0952(11) -0.4388(7)
H35 H 0.0587 0.0736 -0.4088
C40 C 0.0088(11) 0.0776(10) -0.2124(5)
H36 H 0.0293 0.0475 -0.2340
C41 C 0.0661(14) 0.0812(13) -0.1676(6)
H37 H 0.1242 0.0542 -0.1589
C42 C 0.0373(10) 0.1238(11) -0.1365(5)
H38 H 0.0754 0.1263 -0.1058
C43 C -0.0502(11) 0.1651(10) -0.1496(5)
H39 H -0.0717 0.1947 -0.1282
C44 C -0.1038(10) 0.1592(8) -0.1971(4)
H40 H -0.1610 0.1875 -0.2072
Cu6_2 Cu -0.16400(13) -0.89724(11) -0.29592(6)
Cu7_2 Cu -0.14970(13) -0.89338(12) -0.42055(6)
S5_2 S -0.2465(2) 0.2280(2) -0.31260(12)
S6_2 S -0.0648(3) 0.1078(3) -0.34246(12)
S7_2 S -0.2310(2) 0.2314(3) -0.43084(12)
N13 N 0.7412(13) -0.2602(12) -0.1525(7)
C45 C 0.7701(14) -0.3018(15) -0.1726(7)
C46 C 0.8091(13) -0.3631(15) -0.2011(6)
H41 H 0.8083 -0.4183 -0.1890
H42 H 0.8728 -0.3481 -0.1991
H43 H 0.7708 -0.3615 -0.2330
N14 N 0.2713(15) -0.0017(14) -0.3644(7)
C47 C 0.2956(16) -0.0196(14) -0.3948(8)
C48 C 0.3279(16) -0.0409(13) -0.4358(7)
H44 H 0.3774 -0.0035 -0.4373
H45 H 0.2759 -0.0359 -0.4638
H46 H 0.3512 -0.0970 -0.4328
N15 N 0.7939(14) 0.0221(13) -0.0996(7)
C49 C 0.8040(14) -0.0078(14) -0.1321(8)
C50 C 0.8224(15) -0.0520(13) -0.1718(8)
H47 H 0.7679 -0.0842 -0.1879
H48 H 0.8758 -0.0882 -0.1605
H49 H 0.8353 -0.0121 -0.1929
N16 N 0.2310(15) -0.2412(11) -0.4015(6)
C51 C 0.2710(13) -0.2795(16) -0.4212(7)
C52 C 0.3156(14) -0.3293(15) -0.4496(6)
H50 H 0.3283 -0.3842 -0.4367
H51 H 0.3736 -0.3035 -0.4500
H52 H 0.2739 -0.3330 -0.4809
loop_
_geom_bond_atom_site_label_1
_geom_bond_atom_site_label_2
_geom_bond_site_symmetry_1
_geom_bond_site_symmetry_2
W1 S1 1_555 1_555
W2 S5 1_555 1_555
Cu1 S1 1_555 1_555
Cu2 S1 1_555 1_555
Cu3 S2 1_555 1_555
Cu4 S3 1_555 1_555
Cu5 S5 1_555 1_555
Cu6 N1 1_555 1_555
Cu7 C2 1_555 1_555
Cu8 S7 1_555 1_555
S2 W1 1_555 1_555
S3 W1 1_555 1_555
S4 W1 1_555 1_555
S5 Cu6_2 1_555 1_555
S6 W2 1_555 1_555
S7 W2 1_555 1_555
S8 W2 1_555 1_555
N1 C1 1_555 1_555
N2 Cu2 1_555 1_555
N3 Cu3 1_555 1_555
N4 Cu5 1_555 1_555
C1 Cu1 1_555 1_555
C2 N2 1_555 1_555
C3 Cu8 1_555 1_555
C4 Cu4 1_555 1_555
N5 Cu1 1_555 1_555
N6 Cu2 1_555 1_555
N7 Cu3 1_555 1_555
N8 Cu4 1_555 1_555
N9 Cu5 1_555 1_555
N10 Cu8 1_555 1_555
N11 Cu7 1_555 1_555
N12 Cu6 1_555 1_555
C5 N5 1_555 1_555
H1 C5 1_555 1_555
C6 C5 1_555 1_555
H2 C6 1_555 1_555
C7 C6 1_555 1_555
H3 C7 1_555 1_555
C8 C7 1_555 1_555
H4 C8 1_555 1_555
C9 N5 1_555 1_555
H5 C9 1_555 1_555
C10 N6 1_555 1_555
H6 C10 1_555 1_555
C11 C10 1_555 1_555
H7 C11 1_555 1_555
C12 C11 1_555 1_555
H8 C12 1_555 1_555
C13 C12 1_555 1_555
H9 C13 1_555 1_555
C14 N6 1_555 1_555
H10 C14 1_555 1_555
C15 N7 1_555 1_555
H11 C15 1_555 1_555
C16 C15 1_555 1_555
H12 C16 1_555 1_555
C17 C16 1_555 1_555
H13 C17 1_555 1_555
C18 C17 1_555 1_555
H14 C18 1_555 1_555
C19 N7 1_555 1_555
H15 C19 1_555 1_555
C20 N8 1_555 1_555
H16 C20 1_555 1_555
C21 C20 1_555 1_555
H17 C21 1_555 1_555
C22 C21 1_555 1_555
H18 C22 1_555 1_555
C23 C22 1_555 1_555
H19 C23 1_555 1_555
C24 N8 1_555 1_555
H20 C24 1_555 1_555
C25 N9 1_555 1_555
H21 C25 1_555 1_555
C26 C25 1_555 1_555
H22 C26 1_555 1_555
C27 C26 1_555 1_555
H23 C27 1_555 1_555
C28 C27 1_555 1_555
H24 C28 1_555 1_555
C29 N9 1_555 1_555
H25 C29 1_555 1_555
C30 N10 1_555 1_555
H26 C30 1_555 1_555
C31 C30 1_555 1_555
H27 C31 1_555 1_555
C32 C31 1_555 1_555
H28 C32 1_555 1_555
C33 C32 1_555 1_555
H29 C33 1_555 1_555
C34 N10 1_555 1_555
H30 C34 1_555 1_555
C35 N11 1_555 1_555
H31 C35 1_555 1_555
C36 C35 1_555 1_555
H32 C36 1_555 1_555
C37 C36 1_555 1_555
H33 C37 1_555 1_555
C38 C37 1_555 1_555
H34 C38 1_555 1_555
C39 N11 1_555 1_555
H35 C39 1_555 1_555
C40 N12 1_555 1_555
H36 C40 1_555 1_555
C41 C40 1_555 1_555
H37 C41 1_555 1_555
C42 C41 1_555 1_555
H38 C42 1_555 1_555
C43 C42 1_555 1_555
H39 C43 1_555 1_555
C44 N12 1_555 1_555
H40 C44 1_555 1_555
N13 C45 1_555 1_555
C45 C46 1_555 1_555
C46 H41 1_555 1_555
H42 C46 1_555 1_555
H43 C46 1_555 1_555
N14 C47 1_555 1_555
C47 C48 1_555 1_555
C48 H44 1_555 1_555
H45 C48 1_555 1_555
H46 C48 1_555 1_555
N15 C49 1_555 1_555
C49 C50 1_555 1_555
C50 H47 1_555 1_555
H48 C50 1_555 1_555
H49 C50 1_555 1_555
N16 C51 1_555 1_555
C51 C52 1_555 1_555
C52 H50 1_555 1_555
H51 C52 1_555 1_555
H52 C52 1_555 1_555
Cu6_2 S6 1_555 1_555
Cu7_2 S6 1_555 1_555
S5_2 Cu6 1_555 1_555
S6_2 Cu6 1_555 1_555
S7_2 Cu7 1_555 1_555
Cu1 S4 1_555 1_555
Cu2 S2 1_555 1_555
Cu3 S3 1_555 1_555
Cu4 S4 1_555 1_555
Cu5 S8 1_555 1_555
Cu7 S6_2 1_555 1_555
Cu8 S8 1_555 1_555
S7 Cu7_2 1_555 1_555
N3 C3 1_555 1_555
N4 C4 1_555 1_555
C8 C9 1_555 1_555
C13 C14 1_555 1_555
C18 C19 1_555 1_555
C23 C24 1_555 1_555
C28 C29 1_555 1_555
C33 C34 1_555 1_555
C38 C39 1_555 1_555
C43 C44 1_555 1_555

#END
