
#######################################################################
#
#                 Cambridge Crystallographic Data Centre
#                                CCDC 
#
#######################################################################
#
# If this CIF has been generated from an entry in the Cambridge 
# Structural Database, then it will include bibliographic, chemical, 
# crystal, experimental, refinement or atomic coordinate data resulting 
# from the CCDC's data processing and validation procedures.
#
#######################################################################

data_GUMVEQ
_symmetry_cell_setting           monoclinic
_symmetry_space_group_name_H-M   'P 21/n'
_symmetry_Int_Tables_number      14
_space_group_name_Hall           '-P 2yn'
loop_
_symmetry_equiv_pos_site_id
_symmetry_equiv_pos_as_xyz
1 x,y,z
2 1/2-x,1/2+y,1/2-z
3 -x,-y,-z
4 1/2+x,1/2-y,1/2+z
_cell_length_a                   11.7947(13)
_cell_length_b                   13.7475(15)
_cell_length_c                   20.183(2)
_cell_angle_alpha                90
_cell_angle_beta                 95.7580(10)
_cell_angle_gamma                90
_cell_volume                     3256.11
loop_
_atom_site_label
_atom_site_type_symbol
_atom_site_fract_x
_atom_site_fract_y
_atom_site_fract_z
Zn1 Zn 0.39459(3) 0.37530(3) 0.182484(19)
S1 S -0.09556(8) 0.66841(7) 0.09970(4)
S2 S 0.14876(10) -0.02085(9) 0.03000(6)
S3 S 0.92061(9) 0.24963(8) 0.11563(5)
O4 O 0.3864(2) 0.28523(17) 0.26994(11)
H7 H 0.4386 0.2829 0.3006
H8 H 0.3263 0.3033 0.2835
O5 O 0.3700(2) 0.46479(17) 0.09643(11)
H9 H 0.3042 0.4864 0.0914
H10 H 0.3910 0.4446 0.0611
O6 O 0.1797(2) 0.35829(18) 0.28551(12)
O7 O 0.2326(2) 0.43071(18) 0.19441(12)
O8 O -0.0236(2) 0.3786(2) 0.31525(15)
H11 H 0.0430 0.3604 0.3199
O9 O -0.2165(2) 0.6827(3) 0.08657(17)
O10 O -0.0415(3) 0.7556(2) 0.12531(15)
O11 O -0.0458(3) 0.6319(2) 0.04271(15)
N1 N 0.3186(3) 0.2479(2) 0.12968(14)
N2 N 0.4240(4) -0.2527(3) 0.0344(2)
N3 N 0.5658(2) 0.3367(2) 0.16554(14)
N4 N 1.0376(2) -0.0043(2) 0.25246(14)
C1 C 0.1627(3) 0.4157(2) 0.23613(17)
C2 C 0.0502(3) 0.4658(2) 0.22585(16)
C3 C -0.0380(3) 0.4431(3) 0.26481(18)
C4 C -0.1438(3) 0.4869(3) 0.2514(2)
H12 H -0.2027 0.4713 0.2768
C5 C -0.1617(3) 0.5531(3) 0.20061(19)
H13 H -0.2332 0.5813 0.1916
C6 C -0.0750(3) 0.5786(2) 0.16263(16)
C7 C 0.0299(3) 0.5348(2) 0.17561(16)
H14 H 0.0885 0.5517 0.1502
C8 C 0.2279(3) 0.2529(3) 0.08330(18)
H15 H 0.1977 0.3139 0.0721
C9 C 0.1779(3) 0.1733(3) 0.05193(18)
H16 H 0.1158 0.1812 0.0202
C10 C 0.2195(3) 0.0813(3) 0.06727(18)
C11 C 0.3123(4) 0.0748(3) 0.11537(19)
H17 H 0.3435 0.0146 0.1277
C12 C 0.3572(4) 0.1584(3) 0.14447(19)
H18 H 0.4189 0.1522 0.1767
C13 C 0.2576(3) -0.1101(3) 0.03249(18)
C14 C 0.2398(4) -0.1996(3) 0.05931(19)
H19 H 0.1722 -0.2140 0.0773
C15 C 0.3258(5) -0.2677(3) 0.0588(2)
H20 H 0.3136 -0.3285 0.0770
C16 C 0.4379(4) -0.1663(4) 0.0073(3)
H21 H 0.5058 -0.1543 -0.0110
C17 C 0.3574(4) -0.0927(3) 0.0048(2)
H22 H 0.3706 -0.0332 -0.0150
C18 C 0.6195(3) 0.3801(3) 0.11758(17)
H23 H 0.5823 0.4304 0.0935
C19 C 0.7256(3) 0.3540(3) 0.10247(18)
H24 H 0.7583 0.3855 0.0683
C20 C 0.7848(3) 0.2803(3) 0.13808(17)
C21 C 0.7321(4) 0.2385(3) 0.1888(2)
H25 H 0.7692 0.1904 0.2152
C22 C 0.6246(3) 0.2678(3) 0.20027(19)
H26 H 0.5907 0.2377 0.2345
C23 C 0.9623(3) 0.1498(3) 0.16934(18)
C24 C 0.9156(3) 0.0585(3) 0.1602(2)
H27 H 0.8582 0.0466 0.1261
C25 C 0.9557(3) -0.0150(3) 0.20291(19)
H28 H 0.9231 -0.0763 0.1965
C26 C 1.0839(4) 0.0839(3) 0.2590(2)
H29 H 1.1429 0.0937 0.2926
C27 C 1.0491(4) 0.1613(3) 0.2189(2)
H30 H 1.0845 0.2215 0.2254
Zn1A Zn 1.10541(3) -0.12470(3) 0.317516(19)
N4A N 0.4624(2) 0.4957(2) 0.24754(14)
O1 O 0.8389(2) 0.4723(2) 0.97186(13)
H1 H 0.8657 0.5175 0.9953
H2 H 0.8868 0.4298 0.9666
O2 O 0.4130(2) 0.4045(2) 0.97415(14)
H3 H 0.3532 0.3779 0.9553
H4 H 0.4378 0.3509 0.9884
O3 O 0.7946(3) 0.3906(2) 0.40185(18)
H5 H 0.8514 0.3672 0.3855
H6 H 0.7408 0.3504 0.3977
loop_
_geom_bond_atom_site_label_1
_geom_bond_atom_site_label_2
_geom_bond_site_symmetry_1
_geom_bond_site_symmetry_2
Zn1 O4 1_555 1_555
S1 O9 1_555 1_555
S2 C10 1_555 1_555
S3 C20 1_555 1_555
O1 H1 1_555 1_555
H2 O1 1_555 1_555
O2 H3 1_555 1_555
H4 O2 1_555 1_555
O3 H5 1_555 1_555
H6 O3 1_555 1_555
O4 H7 1_555 1_555
H8 O4 1_555 1_555
O5 Zn1 1_555 1_555
H9 O5 1_555 1_555
H10 O5 1_555 1_555
O6 C1 1_555 1_555
O7 Zn1 1_555 1_555
O8 H11 1_555 1_555
O10 S1 1_555 1_555
O11 S1 1_555 1_555
N1 Zn1 1_555 1_555
N2 C15 1_555 1_555
N3 Zn1 1_555 1_555
N4 C25 1_555 1_555
C1 O7 1_555 1_555
C2 C1 1_555 1_555
C3 O8 1_555 1_555
C4 C3 1_555 1_555
H12 C4 1_555 1_555
C5 C4 1_555 1_555
H13 C5 1_555 1_555
C6 S1 1_555 1_555
C7 C2 1_555 1_555
H14 C7 1_555 1_555
C8 N1 1_555 1_555
H15 C8 1_555 1_555
C9 C8 1_555 1_555
H16 C9 1_555 1_555
C10 C9 1_555 1_555
C11 C10 1_555 1_555
H17 C11 1_555 1_555
C12 N1 1_555 1_555
H18 C12 1_555 1_555
C13 S2 1_555 1_555
C14 C13 1_555 1_555
H19 C14 1_555 1_555
C15 C14 1_555 1_555
H20 C15 1_555 1_555
C16 N2 1_555 1_555
H21 C16 1_555 1_555
C17 C13 1_555 1_555
H22 C17 1_555 1_555
C18 N3 1_555 1_555
H23 C18 1_555 1_555
C19 C18 1_555 1_555
H24 C19 1_555 1_555
C20 C19 1_555 1_555
C21 C20 1_555 1_555
H25 C21 1_555 1_555
C22 N3 1_555 1_555
H26 C22 1_555 1_555
C23 S3 1_555 1_555
C24 C23 1_555 1_555
H27 C24 1_555 1_555
C25 C24 1_555 1_555
H28 C25 1_555 1_555
C26 N4 1_555 1_555
H29 C26 1_555 1_555
C27 C23 1_555 1_555
H30 C27 1_555 1_555
Zn1A N4 1_555 1_555
N4A Zn1 1_555 1_555
C2 C3 1_555 1_555
C5 C6 1_555 1_555
C6 C7 1_555 1_555
C11 C12 1_555 1_555
C16 C17 1_555 1_555
C21 C22 1_555 1_555
C26 C27 1_555 1_555

#END
