
#######################################################################
#
#                 Cambridge Crystallographic Data Centre
#                                CCDC 
#
#######################################################################
#
# If this CIF has been generated from an entry in the Cambridge 
# Structural Database, then it will include bibliographic, chemical, 
# crystal, experimental, refinement or atomic coordinate data resulting 
# from the CCDC's data processing and validation procedures.
#
#######################################################################

data_GUMVAM
_symmetry_cell_setting           monoclinic
_symmetry_space_group_name_H-M   'P 21/n'
_symmetry_Int_Tables_number      14
_space_group_name_Hall           '-P 2yn'
loop_
_symmetry_equiv_pos_site_id
_symmetry_equiv_pos_as_xyz
1 x,y,z
2 1/2-x,1/2+y,1/2-z
3 -x,-y,-z
4 1/2+x,1/2-y,1/2+z
_cell_length_a                   11.940(7)
_cell_length_b                   14.068(8)
_cell_length_c                   20.323(12)
_cell_angle_alpha                90
_cell_angle_beta                 95.137(9)
_cell_angle_gamma                90
_cell_volume                     3399.98
loop_
_atom_site_label
_atom_site_type_symbol
_atom_site_fract_x
_atom_site_fract_y
_atom_site_fract_z
Cd1 Cd 0.89220(5) 0.62576(4) 0.18160(3)
S1 S 0.40067(19) 0.33128(17) 0.10231(12)
S2 S 0.6479(3) 1.0282(3) 0.0297(2)
S3 S 1.4284(2) 0.7463(2) 0.11562(16)
O4 O 0.8642(5) 0.5305(4) 0.0890(3)
H7 H 0.8912 0.5595 0.0586
H8 H 0.8059 0.5020 0.0755
O5 O 0.8760(5) 0.7211(4) 0.2753(3)
H9 H 0.8220 0.7044 0.2954
H10 H 0.9313 0.7355 0.3010
O6 O 0.7201(5) 0.5660(4) 0.1947(3)
O7 O 0.6705(5) 0.6382(4) 0.2853(3)
O8 O 0.4694(6) 0.6176(6) 0.3161(4)
H11 H 0.5348 0.6360 0.3202
O9 O 0.2803(5) 0.3133(6) 0.0901(4)
O10 O 0.4580(7) 0.2470(5) 0.1270(4)
O11 O 0.4482(7) 0.3675(5) 0.0444(4)
N1 N 0.8143(7) 0.7590(5) 0.1262(3)
N2 N 0.9244(11) 1.2554(8) 0.0341(6)
N3 N 1.0758(6) 0.6636(5) 0.1638(4)
N4 N 1.5396(6) 1.0004(5) 0.2476(4)
C1 C 0.6536(6) 0.5814(5) 0.2349(4)
C2 C 0.5432(6) 0.5301(5) 0.2267(4)
C3 C 0.4558(8) 0.5533(7) 0.2661(5)
C4 C 0.3483(8) 0.5063(8) 0.2520(6)
H12 H 0.2890 0.5204 0.2771
C5 C 0.3340(8) 0.4424(7) 0.2029(5)
H13 H 0.2644 0.4130 0.1946
C6 C 0.4193(7) 0.4189(6) 0.1646(4)
C7 C 0.5223(6) 0.4644(6) 0.1777(4)
H14 H 0.5800 0.4493 0.1517
C8 C 0.7289(8) 0.7570(7) 0.0777(5)
H15 H 0.7019 0.6977 0.0637
C9 C 0.6780(8) 0.8371(9) 0.0469(5)
H16 H 0.6191 0.8297 0.0141
C10 C 0.7147(9) 0.9263(8) 0.0650(5)
C11 C 0.8048(10) 0.9289(7) 0.1150(4)
H17 H 0.8344 0.9872 0.1292
C12 C 0.8488(10) 0.8484(7) 0.1423(5)
H18 H 0.9079 0.8547 0.1751
C13 C 0.8566(10) 1.0975(9) 0.0080(6)
H19 H 0.8692 1.0384 -0.0105
C14 C 0.9378(10) 1.1681(11) 0.0112(7)
H20 H 1.0069 1.1533 -0.0039
C15 C 0.8253(15) 1.2695(10) 0.0595(6)
H21 H 0.8147 1.3283 0.0790
C16 C 0.7404(11) 1.2066(10) 0.0594(6)
H22 H 0.6731 1.2223 0.0765
C17 C 0.7568(10) 1.1189(10) 0.0333(6)
C18 C 1.1296(8) 0.6221(6) 0.1180(5)
H23 H 1.0934 0.5721 0.0950
C19 C 1.2340(8) 0.6463(6) 0.1015(4)
H24 H 1.2656 0.6160 0.0670
C20 C 1.2916(7) 0.7169(6) 0.1374(5)
C21 C 1.2412(9) 0.7597(8) 0.1881(5)
H25 H 1.2784 0.8064 0.2141
C22 C 1.1345(9) 0.7313(8) 0.1992(6)
H26 H 1.1004 0.7606 0.2332
C23 C 1.5894(10) 0.9136(8) 0.2551(6)
H27 H 1.6491 0.9057 0.2873
C24 C 1.5538(10) 0.8367(7) 0.2162(6)
H28 H 1.5887 0.7781 0.2233
C25 C 1.4688(7) 0.8461(7) 0.1680(5)
C26 C 1.4223(8) 0.9352(8) 0.1574(5)
H29 H 1.3673 0.9457 0.1227
C27 C 1.4586(7) 1.0090(7) 0.1993(5)
H30 H 1.4240 1.0680 0.1929
Cd1A Cd 1.60780(5) 1.12576(4) 0.31840(3)
N4A N 0.9604(6) 0.5004(5) 0.2524(4)
O1 O 0.2098(8) 0.1062(6) 0.0982(5)
H1 H 0.2369 0.1605 0.0952
H2 H 0.1614 0.1073 0.1281
O2 O 0.0897(6) 0.4022(5) 0.0302(4)
H3 H 0.1533 0.3857 0.0457
H4 H 0.0416 0.3906 0.0564
O3 O 0.3485(6) 0.5277(5) 0.9733(3)
H5 H 0.4084 0.5580 0.9677
H6 H 0.3732 0.5034 1.0090
loop_
_geom_bond_atom_site_label_1
_geom_bond_atom_site_label_2
_geom_bond_site_symmetry_1
_geom_bond_site_symmetry_2
Cd1 O4 1_555 1_555
S1 O9 1_555 1_555
S2 C10 1_555 1_555
S3 C20 1_555 1_555
O1 H1 1_555 1_555
H2 O1 1_555 1_555
O2 H3 1_555 1_555
H4 O2 1_555 1_555
O3 H5 1_555 1_555
H6 O3 1_555 1_555
O4 H7 1_555 1_555
H8 O4 1_555 1_555
O5 Cd1 1_555 1_555
H9 O5 1_555 1_555
H10 O5 1_555 1_555
O6 Cd1 1_555 1_555
O7 C1 1_555 1_555
O8 H11 1_555 1_555
O10 S1 1_555 1_555
O11 S1 1_555 1_555
N1 Cd1 1_555 1_555
N2 C14 1_555 1_555
N3 Cd1 1_555 1_555
N4 C23 1_555 1_555
C1 O6 1_555 1_555
C2 C1 1_555 1_555
C3 O8 1_555 1_555
C4 C3 1_555 1_555
H12 C4 1_555 1_555
C5 C4 1_555 1_555
H13 C5 1_555 1_555
C6 S1 1_555 1_555
C7 C2 1_555 1_555
H14 C7 1_555 1_555
C8 N1 1_555 1_555
H15 C8 1_555 1_555
C9 C8 1_555 1_555
H16 C9 1_555 1_555
C10 C9 1_555 1_555
C11 C10 1_555 1_555
H17 C11 1_555 1_555
C12 N1 1_555 1_555
H18 C12 1_555 1_555
C13 H19 1_555 1_555
C14 C13 1_555 1_555
H20 C14 1_555 1_555
C15 N2 1_555 1_555
H21 C15 1_555 1_555
C16 C15 1_555 1_555
H22 C16 1_555 1_555
C17 S2 1_555 1_555
C18 N3 1_555 1_555
H23 C18 1_555 1_555
C19 C18 1_555 1_555
H24 C19 1_555 1_555
C20 C19 1_555 1_555
C21 C20 1_555 1_555
H25 C21 1_555 1_555
C22 N3 1_555 1_555
H26 C22 1_555 1_555
C23 H27 1_555 1_555
C24 C23 1_555 1_555
H28 C24 1_555 1_555
C25 S3 1_555 1_555
C26 C25 1_555 1_555
H29 C26 1_555 1_555
C27 N4 1_555 1_555
H30 C27 1_555 1_555
Cd1A N4 1_555 1_555
N4A Cd1 1_555 1_555
C2 C3 1_555 1_555
C5 C6 1_555 1_555
C6 C7 1_555 1_555
C11 C12 1_555 1_555
C13 C17 1_555 1_555
C16 C17 1_555 1_555
C21 C22 1_555 1_555
C24 C25 1_555 1_555
C26 C27 1_555 1_555

#END
