
#######################################################################
#
#                 Cambridge Crystallographic Data Centre
#                                CCDC 
#
#######################################################################
#
# If this CIF has been generated from an entry in the Cambridge 
# Structural Database, then it will include bibliographic, chemical, 
# crystal, experimental, refinement or atomic coordinate data resulting 
# from the CCDC's data processing and validation procedures.
#
#######################################################################

data_GUNCID
_symmetry_cell_setting           monoclinic
_symmetry_space_group_name_H-M   'C 2/c'
_symmetry_Int_Tables_number      15
_space_group_name_Hall           '-C 2yn'
loop_
_symmetry_equiv_pos_site_id
_symmetry_equiv_pos_as_xyz
1 x,y,z
2 -x,y,1/2-z
3 1/2+x,1/2+y,z
4 1/2-x,1/2+y,1/2-z
5 -x,-y,-z
6 x,-y,1/2+z
7 1/2-x,1/2-y,-z
8 1/2+x,1/2-y,1/2+z
_cell_length_a                   23.9507(12)
_cell_length_b                   11.7986(6)
_cell_length_c                   14.5996(8)
_cell_angle_alpha                90
_cell_angle_beta                 110.0440(10)
_cell_angle_gamma                90
_cell_volume                     3875.73
loop_
_atom_site_label
_atom_site_type_symbol
_atom_site_fract_x
_atom_site_fract_y
_atom_site_fract_z
Cu1 Cu 0.262500(9) 0.811494(19) 0.111861(16)
C1 C 0.38632(10) 0.81869(18) 0.12109(17)
H1 H 0.3822 0.7403 0.1216
C2 C 0.44019(9) 0.86308(19) 0.12420(17)
H2 H 0.4713 0.8150 0.1258
C3 C 0.44798(8) 0.97967(18) 0.12492(14)
C4 C 0.50490(9) 1.0262(2) 0.12615(16)
H3 H 0.5343 0.9742 0.1274
C5 C 0.40009(9) 1.04597(18) 0.12432(15)
H4 H 0.4036 1.1245 0.1270
C6 C 0.34731(9) 0.99595(18) 0.11982(16)
H5 H 0.3156 1.0421 0.1184
C7 C 0.67760(9) 1.15145(19) 0.13831(17)
H6 H 0.7099 1.1030 0.1497
C8 C 0.62514(9) 1.10784(19) 0.14115(16)
H7 H 0.6224 1.0311 0.1537
C9 C 0.57627(9) 1.17741(18) 0.12547(15)
C10 C 0.58378(10) 1.29145(19) 0.10878(17)
H8 H 0.5525 1.3420 0.0994
C11 C 0.63758(10) 1.32932(18) 0.10623(17)
H9 H 0.6417 1.4058 0.0945
C12 C 0.51866(9) 1.1349(2) 0.12568(16)
H10 H 0.4899 1.1879 0.1255
C13 C 0.20412(8) 0.96044(16) -0.03488(15)
C14 C 0.17389(13) 1.0018(2) -0.13934(18)
C15 C 0.1335(2) 1.0940(3) -0.1456(3)
C16 C 0.30740(11) 0.79998(19) 0.30820(17)
C17 C 0.34372(17) 0.7498(3) 0.40752(19)
H11 H 0.3558 0.8107 0.4548
H12 H 0.3185 0.6989 0.4282
C18 C 0.3953(2) 0.6894(5) 0.4078(3)
N1 N 0.33988(7) 0.88319(14) 0.11740(12)
N2 N 0.68422(7) 1.26099(15) 0.11982(12)
N3 N 0.1004(3) 1.1648(4) -0.1494(3)
N4 N 0.4359(2) 0.6444(7) 0.4068(5)
O1 O 0.22387(6) 0.85863(11) -0.02613(10)
O2 O 0.20825(7) 1.02291(13) 0.03375(11)
O3 O 0.30485(6) 0.73822(12) 0.23597(10)
O4 O 0.28477(10) 0.89295(17) 0.30332(16)
H13 H 0.1492(14) 0.945(3) -0.177(2)
H14 H 0.2000(17) 1.011(3) -0.166(3)
Cu1B Cu 0.762500(9) 1.311494(19) 0.111861(16)
Cu1F Cu 0.237500(9) 0.688506(19) -0.111861(16)
N2B N 0.18422(7) 0.76099(15) 0.11982(12)
O1F O 0.27613(6) 0.64137(11) 0.02613(10)
O5 O 0.5300(4) 0.5654(9) 0.3494(9)
C19? C 0.1725(5) 1.1268(11) -0.1390(8)
N5? N 0.1649(7) 1.2199(9) -0.1405(8)
loop_
_geom_bond_atom_site_label_1
_geom_bond_atom_site_label_2
_geom_bond_site_symmetry_1
_geom_bond_site_symmetry_2
Cu1 N1 1_555 1_555
C1 H1 1_555 1_555
C2 C1 1_555 1_555
H2 C2 1_555 1_555
C3 C2 1_555 1_555
C4 C3 1_555 1_555
H3 C4 1_555 1_555
C5 C3 1_555 1_555
H4 C5 1_555 1_555
C6 C5 1_555 1_555
H5 C6 1_555 1_555
C7 H6 1_555 1_555
C8 C7 1_555 1_555
H7 C8 1_555 1_555
C9 C8 1_555 1_555
C10 C9 1_555 1_555
H8 C10 1_555 1_555
C11 C10 1_555 1_555
H9 C11 1_555 1_555
C12 C4 1_555 1_555
H10 C12 1_555 1_555
C13 C14 1_555 1_555
C14 C15 1_555 1_555
C15 N3 1_555 1_555
C16 C17 1_555 1_555
C17 H11 1_555 1_555
H12 C17 1_555 1_555
C18 C17 1_555 1_555
N1 C1 1_555 1_555
N2 C7 1_555 1_555
N4 C18 1_555 1_555
O1 Cu1 1_555 1_555
O2 C13 1_555 1_555
O3 Cu1 1_555 1_555
O4 C16 1_555 1_555
H13 C14 1_555 1_555
H14 C14 1_555 1_555
Cu1B N2 1_555 1_555
Cu1F O1 1_555 1_555
N2B Cu1 1_555 1_555
O1F Cu1 1_555 1_555
C6 N1 1_555 1_555
C9 C12 1_555 1_555
C11 N2 1_555 1_555
C13 O1 1_555 1_555
C16 O3 1_555 1_555
Cu1F O1F 1_555 1_555

#END
