
#######################################################################
#
#                 Cambridge Crystallographic Data Centre
#                                CCDC 
#
#######################################################################
#
# If this CIF has been generated from an entry in the Cambridge 
# Structural Database, then it will include bibliographic, chemical, 
# crystal, experimental, refinement or atomic coordinate data resulting 
# from the CCDC's data processing and validation procedures.
#
#######################################################################

data_GUNCAV
_symmetry_cell_setting           orthorhombic
_symmetry_space_group_name_H-M   'P c c n'
_symmetry_Int_Tables_number      56
_space_group_name_Hall           '-P 2ab 2ac'
loop_
_symmetry_equiv_pos_site_id
_symmetry_equiv_pos_as_xyz
1 x,y,z
2 1/2-x,1/2-y,z
3 -x,1/2+y,1/2-z
4 1/2+x,-y,1/2-z
5 -x,-y,-z
6 1/2+x,1/2+y,-z
7 x,1/2-y,1/2+z
8 1/2-x,y,1/2+z
_cell_length_a                   12.7963(12)
_cell_length_b                   18.0945(17)
_cell_length_c                   7.4363(7)
_cell_angle_alpha                90
_cell_angle_beta                 90
_cell_angle_gamma                90
_cell_volume                     1721.82
loop_
_atom_site_label
_atom_site_type_symbol
_atom_site_fract_x
_atom_site_fract_y
_atom_site_fract_z
H1 H 0.427(3) 0.5671(13) 0.355(4)
Cu1 Cu 0.5000 0.5000 0.0000
C1 C 0.69584(14) 0.58576(9) 0.0095(2)
H2 H 0.7257 0.5398 -0.0132
C2 C 0.76016(14) 0.64699(9) 0.0159(2)
H3 H 0.8316 0.6420 -0.0034
C3 C 0.71724(12) 0.71615(8) 0.0513(2)
C4 C 0.61035(12) 0.71940(9) 0.0830(3)
H4 H 0.5787 0.7642 0.1113
C5 C 0.55138(13) 0.65561(9) 0.0721(3)
H5 H 0.4798 0.6588 0.0918
C6 C 0.58632(13) 0.40824(9) 0.2825(2)
C7 C 0.67872(13) 0.36429(9) 0.3557(2)
H6 H 0.7108 0.3366 0.2586
H7 H 0.7306 0.3982 0.4033
C8 C 0.64633(15) 0.31355(11) 0.4966(2)
N1 N 0.59251(11) 0.58953(7) 0.0346(2)
N2 N 0.61856(15) 0.27479(10) 0.6078(3)
O1 O 0.39792(12) 0.53175(8) 0.2760(2)
O2 O 0.60336(9) 0.44046(7) 0.13535(17)
O3 O 0.50432(10) 0.40908(10) 0.3712(2)
H8 H 0.422(3) 0.4851(8) 0.317(4)
C1A C 0.80416(14) 0.91424(9) 0.0095(2)
H2A H 0.7743 0.9602 -0.0132
C2A C 0.73984(14) 0.85301(9) 0.0159(2)
H3A H 0.6684 0.8580 -0.0034
C3A C 0.78276(12) 0.78385(8) 0.0513(2)
C4A C 0.88965(12) 0.78060(9) 0.0830(3)
H4A H 0.9213 0.7358 0.1113
C5A C 0.94862(13) 0.84439(9) 0.0721(3)
H5A H 1.0202 0.8412 0.0918
N1A N 0.90749(11) 0.91047(7) 0.0346(2)
C6D C 0.41368(13) 0.59176(9) -0.2825(2)
C7D C 0.32128(13) 0.63571(9) -0.3557(2)
H6D H 0.2892 0.6634 -0.2586
H7D H 0.2694 0.6018 -0.4033
C8D C 0.35367(15) 0.68645(11) -0.4966(2)
N2D N 0.38144(15) 0.72521(10) -0.6078(3)
O2D O 0.39664(9) 0.55954(7) -0.13535(17)
O3D O 0.49568(10) 0.59092(10) -0.3712(2)
H1D H 0.573(3) 0.4329(13) -0.355(4)
O1D O 0.60208(12) 0.46825(8) -0.2760(2)
H8D H 0.578(3) 0.5149(8) -0.317(4)
Cu1A Cu 1.0000 1.0000 0.0000
N1D N 0.40749(11) 0.41047(7) -0.0346(2)
loop_
_geom_bond_atom_site_label_1
_geom_bond_atom_site_label_2
_geom_bond_site_symmetry_1
_geom_bond_site_symmetry_2
H1 O1 1_555 1_555
Cu1 N1 1_555 1_555
C1 H2 1_555 1_555
C2 C1 1_555 1_555
H3 C2 1_555 1_555
C3 C2 1_555 1_555
C4 C3 1_555 1_555
H4 C4 1_555 1_555
C5 C4 1_555 1_555
H5 C5 1_555 1_555
C6 C7 1_555 1_555
C7 H6 1_555 1_555
H7 C7 1_555 1_555
C8 C7 1_555 1_555
N1 C1 1_555 1_555
N2 C8 1_555 1_555
O1 Cu1 1_555 1_555
O2 Cu1 1_555 1_555
O3 C6 1_555 1_555
H8 O1 1_555 1_555
C1A H2A 1_555 1_555
C2A C1A 1_555 1_555
H3A C2A 1_555 1_555
C3A C3 1_555 1_555
C4A C3A 1_555 1_555
H4A C4A 1_555 1_555
C5A C4A 1_555 1_555
H5A C5A 1_555 1_555
N1A C1A 1_555 1_555
C6D C7D 1_555 1_555
C7D H6D 1_555 1_555
H7D C7D 1_555 1_555
C8D C7D 1_555 1_555
N2D C8D 1_555 1_555
O2D Cu1 1_555 1_555
O3D C6D 1_555 1_555
H1D O1D 1_555 1_555
O1D Cu1 1_555 1_555
H8D O1D 1_555 1_555
Cu1A N1A 1_555 1_555
N1D Cu1 1_555 1_555
C5 N1 1_555 1_555
C6 O2 1_555 1_555
C2A C3A 1_555 1_555
C5A N1A 1_555 1_555
C6D O2D 1_555 1_555

#END
