
#######################################################################
#
#                 Cambridge Crystallographic Data Centre
#                                CCDC 
#
#######################################################################
#
# If this CIF has been generated from an entry in the Cambridge 
# Structural Database, then it will include bibliographic, chemical, 
# crystal, experimental, refinement or atomic coordinate data resulting 
# from the CCDC's data processing and validation procedures.
#
#######################################################################

data_GUNSAJ
_symmetry_cell_setting           orthorhombic
_symmetry_space_group_name_H-M   'P 21 21 21'
_symmetry_Int_Tables_number      19
_space_group_name_Hall           'P 2ac 2ab'
loop_
_symmetry_equiv_pos_site_id
_symmetry_equiv_pos_as_xyz
1 x,y,z
2 1/2-x,-y,1/2+z
3 -x,1/2+y,1/2-z
4 1/2+x,1/2-y,-z
_cell_length_a                   6.924(3)
_cell_length_b                   11.737(3)
_cell_length_c                   42.767(7)
_cell_angle_alpha                90
_cell_angle_beta                 90
_cell_angle_gamma                90
_cell_volume                     3475.55
loop_
_atom_site_label
_atom_site_type_symbol
_atom_site_fract_x
_atom_site_fract_y
_atom_site_fract_z
K1 K 0.9083(2) 0.38551(11) 0.50369(3)
K2 K 0.1701(2) 0.66289(11) 0.49784(4)
N1 N 0.5720(9) 0.4666(4) 0.53862(12)
S1 S 0.3672(3) 0.40908(13) 0.54369(4)
S2 S 0.6285(3) 0.59109(13) 0.55074(4)
O1 O 0.3689(8) 0.3080(3) 0.52508(10)
O2 O 0.2044(7) 0.4852(4) 0.53940(11)
O3 O 0.8120(7) 0.6156(4) 0.53663(11)
O4 O 0.4808(7) 0.6757(4) 0.54701(11)
C1 C 0.3582(9) 0.3640(5) 0.58351(15)
C2 C 0.2780(10) 0.4350(6) 0.60557(17)
H1 H 0.2246 0.5061 0.5994
C3 C 0.2752(10) 0.4026(6) 0.63673(16)
H2 H 0.2217 0.4518 0.6521
C4 C 0.3509(10) 0.2982(5) 0.64534(16)
C5 C 0.4302(11) 0.2264(6) 0.62299(16)
H3 H 0.4806 0.1544 0.6290
C6 C 0.4361(10) 0.2595(5) 0.59177(16)
H4 H 0.4925 0.2114 0.5764
C7 C 0.6663(10) 0.5757(6) 0.59149(16)
C8 C 0.5934(10) 0.6536(6) 0.61256(16)
H5 H 0.5309 0.7209 0.6055
C9 C 0.6133(10) 0.6314(6) 0.64451(16)
H6 H 0.5648 0.6849 0.6592
C10 C 0.7023(10) 0.5331(6) 0.65514(16)
C11 C 0.7816(10) 0.4573(6) 0.63367(17)
H7 H 0.8473 0.3912 0.6408
C12 C 0.7647(11) 0.4781(6) 0.60165(16)
H8 H 0.8193 0.4268 0.5869
O5 O 0.2960(9) 0.3261(4) 0.69954(12)
O6 O 0.3832(8) 0.1529(4) 0.68335(11)
C13 C 0.3382(12) 0.2637(6) 0.67924(18)
C14 C 0.3602(13) 0.1121(7) 0.71530(17)
H9 H 0.2307 0.1314 0.7229
H10 H 0.4572 0.1482 0.7287
H11 H 0.3773 0.0292 0.7158
O7 O 0.6456(9) 0.5711(4) 0.70929(12)
O8 O 0.7835(8) 0.4054(4) 0.69461(12)
C15 C 0.7069(11) 0.5077(7) 0.68918(19)
C16 C 0.7840(13) 0.3677(7) 0.72717(19)
H12 H 0.6511 0.3655 0.7350
H13 H 0.8604 0.4208 0.7398
H14 H 0.8408 0.2913 0.7285
N2 N 0.6062(8) 0.4436(4) 0.45268(12)
S3 S 0.6605(3) 0.57456(13) 0.45410(4)
S4 S 0.3955(3) 0.39445(14) 0.44649(4)
O9 O 0.8571(7) 0.5780(4) 0.46521(10)
O10 O 0.5251(7) 0.6456(4) 0.47063(10)
O11 O 0.4098(8) 0.2731(4) 0.45008(11)
O12 O 0.2453(7) 0.4519(4) 0.46362(11)
C17 C 0.6665(10) 0.6276(5) 0.41501(15)
C18 C 0.5888(11) 0.7328(6) 0.40826(16)
H15 H 0.5345 0.7786 0.4243
C19 C 0.5918(11) 0.7704(5) 0.37735(15)
H16 H 0.5392 0.8427 0.3721
C20 C 0.6719(11) 0.7020(5) 0.35411(16)
C21 C 0.7486(10) 0.5971(6) 0.36120(17)
H17 H 0.8009 0.5504 0.3452
C22 C 0.7487(10) 0.5597(6) 0.39239(17)
H18 H 0.8046 0.4885 0.3978
C23 C 0.3504(10) 0.4200(5) 0.40606(14)
C24 C 0.2550(10) 0.5184(6) 0.39738(18)
H19 H 0.2003 0.5669 0.4128
C25 C 0.2399(11) 0.5454(6) 0.36600(17)
H20 H 0.1776 0.6138 0.3597
C26 C 0.3160(10) 0.4721(6) 0.34365(16)
C27 C 0.4038(10) 0.3711(5) 0.35261(16)
H21 H 0.4504 0.3198 0.3372
C28 C 0.4236(10) 0.3449(6) 0.38402(16)
H22 H 0.4862 0.2767 0.3904
O13 O 0.7179(10) 0.6774(4) 0.29911(12)
O14 O 0.6384(8) 0.8500(4) 0.31692(11)
C29 C 0.6762(12) 0.7385(6) 0.32063(17)
C30 C 0.6546(13) 0.8934(7) 0.28526(17)
H23 H 0.5463 0.8651 0.2727
H24 H 0.7764 0.8675 0.2760
H25 H 0.6519 0.9768 0.2856
O15 O 0.3660(8) 0.4384(4) 0.28900(12)
O16 O 0.2271(8) 0.6018(4) 0.30495(12)
C31 C 0.3064(11) 0.4990(6) 0.30972(17)
C32 C 0.2168(14) 0.6392(7) 0.27237(19)
H26 H 0.1622 0.5781 0.2595
H27 H 0.3468 0.6578 0.2649
H28 H 0.1345 0.7070 0.2709
K2_2 K 1.1701(2) 0.66289(11) 0.49784(4)
O1C O 0.8689(8) 0.1920(3) 0.47492(10)
O2_2 O 1.2044(7) 0.4852(4) 0.53940(11)
O11C O 0.9098(8) 0.2269(4) 0.54992(11)
O12_2 O 1.2453(7) 0.4519(4) 0.46362(11)
K1_2 K -0.0917(2) 0.38551(11) 0.50369(3)
K2C K -0.3299(2) 0.83711(11) 0.50216(4)
K2C_2 K 0.6701(2) 0.83711(11) 0.50216(4)
O3_2 O -0.1880(7) 0.6156(4) 0.53663(11)
O3C O 0.3120(7) 0.8844(4) 0.46337(11)
O4C O -0.0192(7) 0.8243(4) 0.45299(11)
O9_2 O -0.1429(7) 0.5780(4) 0.46521(10)
O10C O 0.0251(7) 0.8544(4) 0.52937(10)
K1C K 0.4083(2) 0.11449(11) 0.49631(3)
loop_
_geom_bond_atom_site_label_1
_geom_bond_atom_site_label_2
_geom_bond_site_symmetry_1
_geom_bond_site_symmetry_2
K1 N1 1_555 1_555
K2 O2 1_555 1_555
N1 S1 1_555 1_555
S1 O1 1_555 1_555
S2 N1 1_555 1_555
O1 K1C 1_555 1_555
O2 S1 1_555 1_555
O3 K1 1_555 1_555
O4 K2 1_555 1_555
C1 S1 1_555 1_555
C2 C1 1_555 1_555
H1 C2 1_555 1_555
C3 C2 1_555 1_555
H2 C3 1_555 1_555
C4 C3 1_555 1_555
C5 C4 1_555 1_555
H3 C5 1_555 1_555
C6 C1 1_555 1_555
H4 C6 1_555 1_555
C7 S2 1_555 1_555
C8 C7 1_555 1_555
H5 C8 1_555 1_555
C9 C8 1_555 1_555
H6 C9 1_555 1_555
C10 C9 1_555 1_555
C11 C10 1_555 1_555
H7 C11 1_555 1_555
C12 C7 1_555 1_555
H8 C12 1_555 1_555
O5 C13 1_555 1_555
O6 C13 1_555 1_555
C13 C4 1_555 1_555
C14 O6 1_555 1_555
H9 C14 1_555 1_555
H10 C14 1_555 1_555
H11 C14 1_555 1_555
O7 C15 1_555 1_555
O8 C15 1_555 1_555
C15 C10 1_555 1_555
C16 O8 1_555 1_555
H12 C16 1_555 1_555
H13 C16 1_555 1_555
H14 C16 1_555 1_555
N2 K1 1_555 1_555
S3 N2 1_555 1_555
S4 N2 1_555 1_555
O9 K1 1_555 1_555
O10 K2 1_555 1_555
O11 S4 1_555 1_555
O12 K2 1_555 1_555
C17 S3 1_555 1_555
C18 C17 1_555 1_555
H15 C18 1_555 1_555
C19 C18 1_555 1_555
H16 C19 1_555 1_555
C20 C19 1_555 1_555
C21 C20 1_555 1_555
H17 C21 1_555 1_555
C22 C17 1_555 1_555
H18 C22 1_555 1_555
C23 S4 1_555 1_555
C24 C23 1_555 1_555
H19 C24 1_555 1_555
C25 C24 1_555 1_555
H20 C25 1_555 1_555
C26 C25 1_555 1_555
C27 C26 1_555 1_555
H21 C27 1_555 1_555
C28 C23 1_555 1_555
H22 C28 1_555 1_555
O13 C29 1_555 1_555
O14 C29 1_555 1_555
C29 C20 1_555 1_555
C30 O14 1_555 1_555
H23 C30 1_555 1_555
H24 C30 1_555 1_555
H25 C30 1_555 1_555
O15 C31 1_555 1_555
O16 C31 1_555 1_555
C31 C26 1_555 1_555
C32 O16 1_555 1_555
H26 C32 1_555 1_555
H27 C32 1_555 1_555
H28 C32 1_555 1_555
K2_2 O3 1_555 1_555
O1C K1 1_555 1_555
O2_2 K1 1_555 1_555
O11C K1 1_555 1_555
O12_2 K1 1_555 1_555
K1_2 O2 1_555 1_555
K2C O3_2 1_555 1_555
K2C_2 O3 1_555 1_555
O3_2 K2 1_555 1_555
O3C K2 1_555 1_555
O4C K2 1_555 1_555
O9_2 K2 1_555 1_555
O10C K2 1_555 1_555
K1C O11 1_555 1_555
S2 O3 1_555 1_555
S2 O4 1_555 1_555
O4 K2C_2 1_555 1_555
C5 C6 1_555 1_555
C11 C12 1_555 1_555
S3 O9 1_555 1_555
S3 O10 1_555 1_555
S4 O12 1_555 1_555
O9 K2_2 1_555 1_555
O10 K2C_2 1_555 1_555
O12 K1_2 1_555 1_555
C21 C22 1_555 1_555
C27 C28 1_555 1_555
K2_2 O2_2 1_555 1_555
K2_2 O12_2 1_555 1_555
K1_2 O3_2 1_555 1_555
K1_2 O9_2 1_555 1_555
K2C O4C 1_555 1_555
K2C O10C 1_555 1_555
K2C_2 O3C 1_555 1_555

#END
