
#######################################################################
#
#                 Cambridge Crystallographic Data Centre
#                                CCDC 
#
#######################################################################
#
# If this CIF has been generated from an entry in the Cambridge 
# Structural Database, then it will include bibliographic, chemical, 
# crystal, experimental, refinement or atomic coordinate data resulting 
# from the CCDC's data processing and validation procedures.
#
#######################################################################

data_GUPBIC
_symmetry_cell_setting           triclinic
_symmetry_space_group_name_H-M   'P -1'
_symmetry_Int_Tables_number      2
_space_group_name_Hall           '-P 1'
loop_
_symmetry_equiv_pos_site_id
_symmetry_equiv_pos_as_xyz
1 x,y,z
2 -x,-y,-z
_cell_length_a                   9.526(2)
_cell_length_b                   12.687(2)
_cell_length_c                   14.7340(10)
_cell_angle_alpha                95.119(10)
_cell_angle_beta                 89.903(12)
_cell_angle_gamma                109.113(14)
_cell_volume                     1675.11
loop_
_atom_site_label
_atom_site_type_symbol
_atom_site_fract_x
_atom_site_fract_y
_atom_site_fract_z
Cu1 Cu 0.38972(14) 0.18313(9) 0.50154(7)
S1 S 0.1366(2) 0.18353(15) 0.54988(11)
C1 C 0.4875(11) 0.1086(9) 0.5941(6)
H1 H 0.4208 0.0394 0.6057
H2 H 0.5633 0.1123 0.5534
C2 C 0.4741(9) 0.2049(7) 0.6367(5)
H3 H 0.5418 0.2733 0.6242
C3 C 0.3537(10) 0.2039(7) 0.7031(5)
H4 H 0.2733 0.1332 0.6921
H5 H 0.3932 0.2079 0.7644
N1 N 0.2944(8) 0.2940(6) 0.6979(4)
H6 H 0.3215 0.3495 0.7393
C4 C 0.2001(8) 0.2957(6) 0.6325(4)
N2 N 0.1543(9) 0.3831(6) 0.6348(4)
H7 H 0.1834 0.4339 0.6799
N3 N 0.0596(8) 0.3975(6) 0.5669(4)
H8 H 0.1053 0.4612 0.5412
H9 H -0.0237 0.4034 0.5924
Cu2 Cu 0.00557(13) 0.26614(10) 0.46981(7)
S2 S -0.1261(3) 0.10666(16) 0.08153(13)
C5 C -0.1837(10) 0.2397(10) 0.3936(7)
H10 H -0.1697 0.2945 0.3533
H11 H -0.2330 0.2445 0.4475
C6 C -0.1320(10) 0.1525(9) 0.3735(6)
H12 H -0.1475 0.0989 0.4149
C7 C -0.0513(15) 0.1379(10) 0.2881(6)
H13 H 0.0401 0.1254 0.3046
H14 H -0.1122 0.0718 0.2510
N4 N -0.0160(10) 0.2316(7) 0.2350(5)
H15 H 0.0267 0.2966 0.2634
C8 C -0.0426(10) 0.2284(7) 0.1464(5)
N5 N 0.0050(8) 0.3285(6) 0.1127(5)
H16 H 0.0573 0.3867 0.1467
N6 N -0.0310(8) 0.3385(5) 0.0205(5)
H17 H 0.0508 0.3807 -0.0060
H18 H -0.0997 0.3731 0.0197
Cu3 Cu -0.11221(14) 0.18282(10) -0.05215(7)
S3 S 0.6312(2) 0.18436(15) -0.09898(11)
C9 C 0.9642(11) 0.0999(8) -0.1592(6)
H19 H 0.8913 0.0339 -0.1817
H20 H 1.0376 0.0977 -0.1186
C10 C 0.9636(9) 0.1986(8) -0.1854(5)
H21 H 1.0369 0.2642 -0.1625
C11 C 0.8459(10) 0.2046(7) -0.2513(5)
H22 H 0.8866 0.2116 -0.3117
H23 H 0.7631 0.1351 -0.2537
N7 N 0.7912(7) 0.2972(5) -0.2274(4)
H24 H 0.8225 0.3556 -0.2569
C12 C 0.6951(8) 0.2956(6) -0.1622(4)
N8 N 0.6511(9) 0.3871(6) -0.1504(4)
H25 H 0.6830 0.4399 -0.1856
N9 N 0.5540(8) 0.3959(6) -0.0810(4)
H26 H 0.4709 0.4015 -0.1060
H27 H 0.5971 0.4590 -0.0443
Cu4 Cu 0.49814(13) 0.26353(11) -0.00567(7)
S4 S 0.3754(2) 0.10720(16) 0.35638(13)
C13 C 0.3166(11) 0.2372(11) 0.0729(7)
H28 H 0.3380 0.2939 0.1204
H29 H 0.2597 0.2401 0.0226
C14 C 0.3691(10) 0.1492(9) 0.0770(6)
H30 H 0.3457 0.0938 0.0284
C15 C 0.4618(13) 0.1362(9) 0.1549(6)
H31 H 0.4075 0.0691 0.1832
H32 H 0.5522 0.1263 0.1313
N10 N 0.5012(10) 0.2315(7) 0.2239(5)
H33 H 0.5521 0.2955 0.2065
C16 C 0.4660(8) 0.2293(7) 0.3111(5)
N11 N 0.5102(8) 0.3294(6) 0.3591(4)
H34 H 0.5614 0.3877 0.3337
N12 N 0.4730(7) 0.3398(5) 0.4518(4)
H35 H 0.4045 0.3746 0.4574
H36 H 0.5544 0.3820 0.4851
S5 S 0.23691(19) 0.48016(14) 0.36178(11)
O1 O 0.3810(7) 0.5151(5) 0.3210(5)
O2 O 0.2379(7) 0.5518(5) 0.4458(4)
O3 O 0.1223(8) 0.4913(6) 0.3007(5)
O4 O 0.1957(6) 0.3622(5) 0.3820(4)
S6 S 0.74059(19) 0.48270(14) 0.13403(11)
O5 O 0.8885(8) 0.5195(6) 0.1758(6)
O6 O 0.7348(8) 0.5531(5) 0.0625(4)
O7 O 0.6303(9) 0.4929(6) 0.2018(5)
O8 O 0.6967(6) 0.3642(4) 0.0966(4)
S3_2 S -0.3688(2) 0.18436(15) -0.09898(11)
C9_2 C -0.0358(11) 0.0999(8) -0.1592(6)
C10_2 C -0.0364(9) 0.1986(8) -0.1854(5)
Cu3_2 Cu 0.88779(14) 0.18282(10) -0.05215(7)
H19_2 H -0.1087 0.0339 -0.1817
H20_2 H 0.0376 0.0977 -0.1186
H21_2 H 0.0369 0.2642 -0.1625
loop_
_geom_bond_atom_site_label_1
_geom_bond_atom_site_label_2
_geom_bond_site_symmetry_1
_geom_bond_site_symmetry_2
Cu1 S1 1_555 1_555
S1 C4 1_555 1_555
C1 Cu1 1_555 1_555
H1 C1 1_555 1_555
H2 C1 1_555 1_555
C2 Cu1 1_555 1_555
H3 C2 1_555 1_555
C3 C2 1_555 1_555
H4 C3 1_555 1_555
H5 C3 1_555 1_555
N1 C3 1_555 1_555
H6 N1 1_555 1_555
C4 N1 1_555 1_555
N2 C4 1_555 1_555
H7 N2 1_555 1_555
N3 N2 1_555 1_555
H8 N3 1_555 1_555
H9 N3 1_555 1_555
Cu2 S1 1_555 1_555
S2 C8 1_555 1_555
C5 Cu2 1_555 1_555
H10 C5 1_555 1_555
H11 C5 1_555 1_555
C6 Cu2 1_555 1_555
H12 C6 1_555 1_555
C7 C6 1_555 1_555
H13 C7 1_555 1_555
H14 C7 1_555 1_555
N4 C7 1_555 1_555
H15 N4 1_555 1_555
C8 N4 1_555 1_555
N5 C8 1_555 1_555
H16 N5 1_555 1_555
N6 N5 1_555 1_555
H17 N6 1_555 1_555
H18 N6 1_555 1_555
Cu3 S2 1_555 1_555
S3 C12 1_555 1_555
C9 H19 1_555 1_555
H20 C9 1_555 1_555
C10 C9 1_555 1_555
H21 C10 1_555 1_555
C11 C10 1_555 1_555
H22 C11 1_555 1_555
H23 C11 1_555 1_555
N7 C11 1_555 1_555
H24 N7 1_555 1_555
C12 N7 1_555 1_555
N8 C12 1_555 1_555
H25 N8 1_555 1_555
N9 N8 1_555 1_555
H26 N9 1_555 1_555
H27 N9 1_555 1_555
Cu4 S3 1_555 1_555
S4 Cu1 1_555 1_555
C13 Cu4 1_555 1_555
H28 C13 1_555 1_555
H29 C13 1_555 1_555
C14 Cu4 1_555 1_555
H30 C14 1_555 1_555
C15 C14 1_555 1_555
H31 C15 1_555 1_555
H32 C15 1_555 1_555
N10 C15 1_555 1_555
H33 N10 1_555 1_555
C16 S4 1_555 1_555
N11 C16 1_555 1_555
H34 N11 1_555 1_555
N12 Cu1 1_555 1_555
H35 N12 1_555 1_555
H36 N12 1_555 1_555
S5 O1 1_555 1_555
O2 S5 1_555 1_555
O3 S5 1_555 1_555
O4 Cu2 1_555 1_555
S6 O5 1_555 1_555
O6 S6 1_555 1_555
O7 S6 1_555 1_555
O8 Cu4 1_555 1_555
S3_2 Cu3 1_555 1_555
C9_2 Cu3 1_555 1_555
C10_2 Cu3 1_555 1_555
Cu3_2 S3 1_555 1_555
H19_2 C9_2 1_555 1_555
H20_2 C9_2 1_555 1_555
H21_2 C10_2 1_555 1_555
C1 C2 1_555 1_555
N3 Cu2 1_555 1_555
C5 C6 1_555 1_555
N6 Cu3 1_555 1_555
C9 Cu3_2 1_555 1_555
C10 Cu3_2 1_555 1_555
N9 Cu4 1_555 1_555
C13 C14 1_555 1_555
N10 C16 1_555 1_555
N11 N12 1_555 1_555
S5 O4 1_555 1_555
S6 O8 1_555 1_555
C9_2 C10_2 1_555 1_555

#END
