
#######################################################################
#
#                 Cambridge Crystallographic Data Centre
#                                CCDC 
#
#######################################################################
#
# If this CIF has been generated from an entry in the Cambridge 
# Structural Database, then it will include bibliographic, chemical, 
# crystal, experimental, refinement or atomic coordinate data resulting 
# from the CCDC's data processing and validation procedures.
#
#######################################################################

data_GUPCUQ02
_symmetry_cell_setting           tetragonal
_symmetry_space_group_name_H-M   'I -4 2 d'
_symmetry_Int_Tables_number      122
_space_group_name_Hall           'I -4 2bw'
loop_
_symmetry_equiv_pos_site_id
_symmetry_equiv_pos_as_xyz
1 x,y,z
2 -x,-y,z
3 y,-x,-z
4 -y,x,-z
5 1/2-x,y,3/4-z
6 1/2+x,-y,3/4-z
7 1/2-y,-x,3/4+z
8 1/2+y,x,3/4+z
9 1/2+x,1/2+y,1/2+z
10 1/2-x,1/2-y,1/2+z
11 1/2+y,1/2-x,1/2-z
12 1/2-y,1/2+x,1/2-z
13 -x,1/2+y,1/4-z
14 x,1/2-y,1/4-z
15 -y,1/2-x,1/4+z
16 y,1/2+x,1/4+z
_cell_length_a                   18.0847(8)
_cell_length_b                   18.0847(8)
_cell_length_c                   9.9217(9)
_cell_angle_alpha                90
_cell_angle_beta                 90
_cell_angle_gamma                90
_cell_volume                     3244.96
loop_
_atom_site_label
_atom_site_type_symbol
_atom_site_fract_x
_atom_site_fract_y
_atom_site_fract_z
Cd1 Cd 0.5000 0.5000 0.5000
Cd2 Cd 0.2500 0.63769(2) 0.8750
O1 O 0.48691(16) 0.57683(17) 0.7510(4)
O2 O 0.40194(19) 0.5947(2) 0.9010(3)
O3 O 0.35157(16) 0.78333(18) 0.5341(3)
N1 N 0.38549(18) 0.51700(18) 0.5817(3)
N2 N 0.29568(17) 0.55822(19) 0.7207(3)
N3 N 0.20154(19) 0.7123(2) 0.7163(4)
N4 N 0.4219(2) 0.57464(19) 0.7894(3)
C1 C 0.3678(2) 0.5490(2) 0.6974(4)
C2 C 0.3184(2) 0.5040(3) 0.5250(4)
H1 H 0.3107 0.4812 0.4422
C3 C 0.2641(2) 0.5295(2) 0.6083(5)
H2 H 0.2136 0.5276 0.5908
N5 N 0.3190(2) 0.7500 0.6250
C4 C 0.2404(3) 0.7500 0.6250
C5 C 0.1312(2) 0.7274(4) 0.6804(6)
H3 H 0.0892 0.7098 0.7241
Cd2A Cd 0.7500 0.36231(2) 0.8750
Cd2I Cd 0.2500 0.86231(2) 0.3750
Cd2B Cd 0.63769(2) 0.7500 0.1250
Cd2C Cd 0.36231(2) 0.2500 0.1250
Cd2I_2 Cd 0.2500 0.86231(2) 1.3750
O1A O 0.51309(16) 0.42317(17) 0.7510(4)
O1B O 0.57683(17) 0.51309(16) 0.2490(4)
O1C O 0.42317(17) 0.48691(16) 0.2490(4)
O2A O 0.59806(19) 0.4053(2) 0.9010(3)
O2B O 0.5947(2) 0.59806(19) 0.0990(3)
O2C O 0.4053(2) 0.40194(19) 0.0990(3)
O3M O 0.35157(16) 0.71667(18) 0.7159(3)
O3D O 0.14843(16) 0.78333(18) 1.2159(3)
O3I O 0.14843(16) 0.71667(18) 1.0341(3)
N1A N 0.61451(18) 0.48300(18) 0.5817(3)
N1B N 0.51700(18) 0.61451(18) 0.4183(3)
N1C N 0.48300(18) 0.38549(18) 0.4183(3)
N2A N 0.70432(17) 0.44178(19) 0.7207(3)
N2B N 0.55822(19) 0.70432(17) 0.2793(3)
N2C N 0.44178(19) 0.29568(17) 0.2793(3)
N2D N 0.20432(17) 0.55822(19) 1.0293(3)
N2E N 0.79568(17) 0.44178(19) 1.0293(3)
N3M N 0.20154(19) 0.7877(2) 0.5337(4)
N3D N 0.29846(19) 0.7123(2) 1.0337(4)
N3I N 0.29846(19) 0.7877(2) 1.2163(4)
N3A N 0.79846(19) 0.2877(2) 0.7163(4)
N3E N 0.70154(19) 0.2877(2) 1.0337(4)
N4A N 0.5781(2) 0.42536(19) 0.7894(3)
N4B N 0.57464(19) 0.5781(2) 0.2106(3)
N4C N 0.42536(19) 0.4219(2) 0.2106(3)
C1A C 0.6322(2) 0.4510(2) 0.6974(4)
C1B C 0.5490(2) 0.6322(2) 0.3026(4)
C1C C 0.4510(2) 0.3678(2) 0.3026(4)
C2A C 0.6816(2) 0.4960(3) 0.5250(4)
C2B C 0.5040(3) 0.6816(2) 0.4750(4)
C2C C 0.4960(3) 0.3184(2) 0.4750(4)
H1A H 0.6893 0.5188 0.4422
H1B H 0.4812 0.6893 0.5578
H1C H 0.5188 0.3107 0.5578
C3A C 0.7359(2) 0.4705(2) 0.6083(5)
C3B C 0.5295(2) 0.7359(2) 0.3917(5)
C3C C 0.4705(2) 0.2641(2) 0.3917(5)
H2A H 0.7864 0.4724 0.5908
H2B H 0.5276 0.7864 0.4092
H2C H 0.4724 0.2136 0.4092
N5D N 0.1810(2) 0.7500 1.1250
C4D C 0.2596(3) 0.7500 1.1250
C5M C 0.1312(2) 0.7726(4) 0.5696(6)
C5D C 0.3688(2) 0.7274(4) 1.0696(6)
C5I C 0.3688(2) 0.7726(4) 1.1804(6)
H3M H 0.0892 0.7902 0.5259
H3D H 0.4108 0.7098 1.0259
H3I H 0.4108 0.7902 1.2241
loop_
_geom_bond_atom_site_label_1
_geom_bond_atom_site_label_2
_geom_bond_site_symmetry_1
_geom_bond_site_symmetry_2
Cd1 N1 1_555 1_555
Cd2 N2 1_555 1_555
O1 N4 1_555 1_555
O2 N4 1_555 1_555
O3 N5 1_555 1_555
N1 C1 1_555 1_555
N2 C1 1_555 1_555
N3 Cd2 1_555 1_555
N4 C1 1_555 1_555
C2 N1 1_555 1_555
H1 C2 1_555 1_555
C3 N2 1_555 1_555
H2 C3 1_555 1_555
N5 C4 1_555 1_555
C4 N3 1_555 1_555
C5 N3 1_555 1_555
H3 C5 1_555 1_555
Cd2A N2A 1_555 1_555
Cd2I N3M 1_555 1_555
Cd2B N2B 1_555 1_555
Cd2C N2C 1_555 1_555
Cd2I_2 N3I 1_555 1_555
O1A N4A 1_555 1_555
O1B N4B 1_555 1_555
O1C N4C 1_555 1_555
O2A N4A 1_555 1_555
O2B N4B 1_555 1_555
O2C N4C 1_555 1_555
O3M N5 1_555 1_555
O3D N5D 1_555 1_555
O3I N5D 1_555 1_555
N1A Cd1 1_555 1_555
N1B Cd1 1_555 1_555
N1C Cd1 1_555 1_555
N2A C1A 1_555 1_555
N2B C1B 1_555 1_555
N2C C1C 1_555 1_555
N2D Cd2 1_555 1_555
N2E Cd2A 1_555 1_555
N3M C4 1_555 1_555
N3D Cd2 1_555 1_555
N3I C4D 1_555 1_555
N3A Cd2A 1_555 1_555
N3E Cd2A 1_555 1_555
N4A C1A 1_555 1_555
N4B C1B 1_555 1_555
N4C C1C 1_555 1_555
C1A N1A 1_555 1_555
C1B N1B 1_555 1_555
C1C N1C 1_555 1_555
C2A N1A 1_555 1_555
C2B N1B 1_555 1_555
C2C N1C 1_555 1_555
H1A C2A 1_555 1_555
H1B C2B 1_555 1_555
H1C C2C 1_555 1_555
C3A N2A 1_555 1_555
C3B N2B 1_555 1_555
C3C N2C 1_555 1_555
H2A C3A 1_555 1_555
H2B C3B 1_555 1_555
H2C C3C 1_555 1_555
N5D C4D 1_555 1_555
C4D N3D 1_555 1_555
C5M C5 1_555 1_555
C5D N3D 1_555 1_555
C5I N3I 1_555 1_555
H3M C5M 1_555 1_555
H3D C5D 1_555 1_555
H3I C5I 1_555 1_555
C2 C3 1_555 1_555
N3M C5M 1_555 1_555
C2A C3A 1_555 1_555
C2B C3B 1_555 1_555
C2C C3C 1_555 1_555
C5D C5I 1_555 1_555

#END
