
#######################################################################
#
#                 Cambridge Crystallographic Data Centre
#                                CCDC 
#
#######################################################################
#
# If this CIF has been generated from an entry in the Cambridge 
# Structural Database, then it will include bibliographic, chemical, 
# crystal, experimental, refinement or atomic coordinate data resulting 
# from the CCDC's data processing and validation procedures.
#
#######################################################################

data_GUPCOK01
_symmetry_cell_setting           trigonal
_symmetry_space_group_name_H-M   'P 32 2 1'
_symmetry_Int_Tables_number      154
_space_group_name_Hall           'P 32 2"'
loop_
_symmetry_equiv_pos_site_id
_symmetry_equiv_pos_as_xyz
1 x,y,z
2 -y,x-y,2/3+z
3 -x+y,-x,1/3+z
4 y,x,-z
5 x-y,-y,1/3-z
6 -x,-x+y,2/3-z
_cell_length_a                   8.7514(2)
_cell_length_b                   8.7514(2)
_cell_length_c                   13.6088(5)
_cell_angle_alpha                90
_cell_angle_beta                 90
_cell_angle_gamma                120
_cell_volume                     902.621
loop_
_atom_site_label
_atom_site_type_symbol
_atom_site_fract_x
_atom_site_fract_y
_atom_site_fract_z
Cd1 Cd 0.46484(4) 0.46484(4) 0.0000
N1 N 0.6628(4) 0.5733(4) 0.11711(17)
N2 N 0.8244(4) 0.5990(4) 0.24964(19)
C1 C 0.7805(7) 0.7507(6) 0.1337(3)
C2 C 0.6948(5) 0.4885(5) 0.1890(2)
C3 C 0.8768(5) 0.7653(5) 0.2139(3)
C4 C 0.5928(6) 0.2924(5) 0.2018(3)
H1 H 0.5316 0.2392 0.1410
H2 H 0.6752 0.2509 0.2141
C5 C 0.4621(7) 0.2312(7) 0.2828(3)
H3 H 0.4030 0.1048 0.2869
H4 H 0.3772 0.2678 0.2703
H5 H 0.5215 0.2813 0.3437
H6 H 0.977(6) 0.861(5) 0.242(2)
H7 H 0.778(5) 0.835(5) 0.091(2)
Cd1B Cd 1.00000(6) 0.53516(4) 0.3333
Cd1A Cd 0.53516(4) 1.00000(6) -0.3333
N1C N 0.5733(4) 0.6628(4) -0.11711(17)
N2C N 0.5990(4) 0.8244(4) -0.24964(19)
N2A N 0.4010(4) 0.2254(6) -0.08369(19)
N2D N 0.2254(6) 0.4010(4) 0.08369(19)
C1C C 0.7507(6) 0.7805(7) -0.1337(3)
C2C C 0.4885(5) 0.6948(5) -0.1890(2)
C3C C 0.7653(5) 0.8768(5) -0.2139(3)
C4C C 0.2924(5) 0.5928(6) -0.2018(3)
H1C H 0.2392 0.5316 -0.1410
H2C H 0.2509 0.6752 -0.2141
C5C C 0.2312(7) 0.4621(7) -0.2828(3)
H3C H 0.1048 0.4030 -0.2869
H4C H 0.2678 0.3772 -0.2703
H5C H 0.2813 0.5215 -0.3437
H6C H 0.861(5) 0.977(6) -0.242(2)
H7C H 0.835(5) 0.778(5) -0.091(2)
loop_
_geom_bond_atom_site_label_1
_geom_bond_atom_site_label_2
_geom_bond_site_symmetry_1
_geom_bond_site_symmetry_2
Cd1 N1 1_555 1_555
N1 C1 1_555 1_555
N2 C2 1_555 1_555
C1 C3 1_555 1_555
C2 N1 1_555 1_555
C3 N2 1_555 1_555
C4 C2 1_555 1_555
H1 C4 1_555 1_555
H2 C4 1_555 1_555
C5 C4 1_555 1_555
H3 C5 1_555 1_555
H4 C5 1_555 1_555
H5 C5 1_555 1_555
H6 C3 1_555 1_555
H7 C1 1_555 1_555
Cd1B N2 1_555 1_555
Cd1A N2C 1_555 1_555
N1C Cd1 1_555 1_555
N2C C2C 1_555 1_555
N2A Cd1 1_555 1_555
N2D Cd1 1_555 1_555
C1C N1C 1_555 1_555
C2C N1C 1_555 1_555
C3C N2C 1_555 1_555
C4C C2C 1_555 1_555
H1C C4C 1_555 1_555
H2C C4C 1_555 1_555
C5C C4C 1_555 1_555
H3C C5C 1_555 1_555
H4C C5C 1_555 1_555
H5C C5C 1_555 1_555
H6C C3C 1_555 1_555
H7C C1C 1_555 1_555
C1C C3C 1_555 1_555

#END
