
#######################################################################
#
#                 Cambridge Crystallographic Data Centre
#                                CCDC 
#
#######################################################################
#
# If this CIF has been generated from an entry in the Cambridge 
# Structural Database, then it will include bibliographic, chemical, 
# crystal, experimental, refinement or atomic coordinate data resulting 
# from the CCDC's data processing and validation procedures.
#
#######################################################################

data_GUPCUQ01
_symmetry_cell_setting           cubic
_symmetry_space_group_name_H-M   'I -4 3 m'
_symmetry_Int_Tables_number      217
_space_group_name_Hall           'I -4 2 3'
loop_
_symmetry_equiv_pos_site_id
_symmetry_equiv_pos_as_xyz
1 x,y,z
2 -x,-y,z
3 -x,y,-z
4 x,-y,-z
5 z,x,y
6 z,-x,-y
7 -z,-x,y
8 -z,x,-y
9 y,z,x
10 -y,z,-x
11 y,-z,-x
12 -y,-z,x
13 y,x,z
14 -y,-x,z
15 y,-x,-z
16 -y,x,-z
17 x,z,y
18 -x,z,-y
19 -x,-z,y
20 x,-z,-y
21 z,y,x
22 z,-y,-x
23 -z,y,-x
24 -z,-y,x
25 1/2+x,1/2+y,1/2+z
26 1/2-x,1/2-y,1/2+z
27 1/2-x,1/2+y,1/2-z
28 1/2+x,1/2-y,1/2-z
29 1/2+z,1/2+x,1/2+y
30 1/2+z,1/2-x,1/2-y
31 1/2-z,1/2-x,1/2+y
32 1/2-z,1/2+x,1/2-y
33 1/2+y,1/2+z,1/2+x
34 1/2-y,1/2+z,1/2-x
35 1/2+y,1/2-z,1/2-x
36 1/2-y,1/2-z,1/2+x
37 1/2+y,1/2+x,1/2+z
38 1/2-y,1/2-x,1/2+z
39 1/2+y,1/2-x,1/2-z
40 1/2-y,1/2+x,1/2-z
41 1/2+x,1/2+z,1/2+y
42 1/2-x,1/2+z,1/2-y
43 1/2-x,1/2-z,1/2+y
44 1/2+x,1/2-z,1/2-y
45 1/2+z,1/2+y,1/2+x
46 1/2+z,1/2-y,1/2-x
47 1/2-z,1/2+y,1/2-x
48 1/2-z,1/2-y,1/2+x
_cell_length_a                   18.0772(6)
_cell_length_b                   18.0772(6)
_cell_length_c                   18.0772(6)
_cell_angle_alpha                90
_cell_angle_beta                 90
_cell_angle_gamma                90
_cell_volume                     5907.36
loop_
_atom_site_label
_atom_site_type_symbol
_atom_site_fract_x
_atom_site_fract_y
_atom_site_fract_z
Cd1 Cd 0.0000 0.2500 0.5000
N1 N -0.0213(2) 0.3014(2) 0.3889(3)
N2 N 0.0560(4) 0.4069(3) 0.4069(3)
C1 C 0.0039(7) 0.3659(2) 0.3659(2)
C2 C -0.0683(5) 0.2817(4) 0.3344(4)
H1 H -0.0963 0.2386 0.3334
O1 O 0.0773(3) 0.4663(2) 0.3810(2)
Cd1P Cd 0.0000 0.5000 0.2500
Cd1Q Cd 0.0000 0.5000 0.7500
N1P N -0.0213(2) 0.3889(3) 0.3014(2)
N1B N 0.0213(2) 0.3014(2) 0.6111(3)
N1Q N 0.0213(2) 0.3889(3) 0.6986(2)
N1SA N -0.1111(3) 0.1986(2) 0.5213(2)
N1UA N 0.1111(3) 0.1986(2) 0.4787(2)
N2B N -0.0560(4) 0.4069(3) 0.5931(3)
C1B C -0.0039(7) 0.3659(2) 0.6341(2)
C2P C -0.0683(5) 0.3344(4) 0.2817(4)
C2B C 0.0683(5) 0.2817(4) 0.6656(4)
C2Q C 0.0683(5) 0.3344(4) 0.7183(4)
H1P H -0.0963 0.3334 0.2386
H1B H 0.0963 0.2386 0.6666
H1Q H 0.0963 0.3334 0.7614
O1P O 0.0773(3) 0.3810(2) 0.4663(2)
O1B O -0.0773(3) 0.4663(2) 0.6190(2)
O1Q O -0.0773(3) 0.3810(2) 0.5337(2)
loop_
_geom_bond_atom_site_label_1
_geom_bond_atom_site_label_2
_geom_bond_site_symmetry_1
_geom_bond_site_symmetry_2
Cd1 N1 1_555 1_555
N1 C1 1_555 1_555
N2 C1 1_555 1_555
C1 N1P 1_555 1_555
C2 N1 1_555 1_555
H1 C2 1_555 1_555
O1 N2 1_555 1_555
Cd1P N1P 1_555 1_555
Cd1Q N1Q 1_555 1_555
N1P C2P 1_555 1_555
N1B Cd1 1_555 1_555
N1Q C1B 1_555 1_555
N1SA Cd1 1_555 1_555
N1UA Cd1 1_555 1_555
N2B C1B 1_555 1_555
C1B N1B 1_555 1_555
C2P C2 1_555 1_555
C2B N1B 1_555 1_555
C2Q N1Q 1_555 1_555
H1P C2P 1_555 1_555
H1B C2B 1_555 1_555
H1Q C2Q 1_555 1_555
O1P N2 1_555 1_555
O1B N2B 1_555 1_555
O1Q N2B 1_555 1_555
C2B C2Q 1_555 1_555

#END
