
#######################################################################
#
#                 Cambridge Crystallographic Data Centre
#                                CCDC 
#
#######################################################################
#
# If this CIF has been generated from an entry in the Cambridge 
# Structural Database, then it will include bibliographic, chemical, 
# crystal, experimental, refinement or atomic coordinate data resulting 
# from the CCDC's data processing and validation procedures.
#
#######################################################################

data_GUPDUR
_symmetry_cell_setting           tetragonal
_symmetry_space_group_name_H-M   'I -4 2 d'
_symmetry_Int_Tables_number      122
_space_group_name_Hall           'I -4 2bw'
loop_
_symmetry_equiv_pos_site_id
_symmetry_equiv_pos_as_xyz
1 x,y,z
2 -x,-y,z
3 x,1/2-y,1/4-z
4 -x,1/2+y,1/4-z
5 y,1/2+x,1/4+z
6 -y,1/2-x,1/4+z
7 -y,x,-z
8 y,-x,-z
9 1/2+x,1/2+y,1/2+z
10 1/2-x,1/2-y,1/2+z
11 1/2+x,-y,3/4-z
12 1/2-x,y,3/4-z
13 1/2+y,x,3/4+z
14 1/2-y,-x,3/4+z
15 1/2-y,1/2+x,1/2-z
16 1/2+y,1/2-x,1/2-z
_cell_length_a                   10.500
_cell_length_b                   10.500
_cell_length_c                   14.999
_cell_angle_alpha                90
_cell_angle_beta                 90
_cell_angle_gamma                90
_cell_volume                     1653.64
loop_
_atom_site_label
_atom_site_type_symbol
_atom_site_fract_x
_atom_site_fract_y
_atom_site_fract_z
Cd1 Cd 0.5000 0.5000 0.5000
N1 N 0.3407(2) 0.4413(2) 0.41455(14)
C1 C 0.2500 0.9155(6) 0.3750
H1 H 0.2500 1.0041 0.3750
C2 C 0.1400(5) 0.8508(4) 0.3939(4)
H2 H 0.0655 0.8953 0.4062
C3 C 0.1403(4) 0.7187(3) 0.3947(3)
H3 H 0.0661 0.6746 0.4085
C4 C 0.2500 0.6529(5) 0.3750
C5 C 0.2500 0.5117(6) 0.3750
C6 C 0.3044(3) 0.3171(3) 0.3984(2)
H4 H 0.3484 0.2450 0.4170
Cd1J Cd 0.0000 0.5000 0.2500
Cd1B Cd 0.5000 1.0000 0.7500
N1K N 0.1593(2) 0.4413(2) 0.33545(14)
N1G N 0.4413(2) 0.6593(2) 0.58545(14)
N1D N 0.4413(2) 0.8407(2) 0.66455(14)
N1A N 0.6593(2) 0.5587(2) 0.41455(14)
N1F N 0.5587(2) 0.3407(2) 0.58545(14)
C1D C 0.9155(6) 0.7500 0.6250
H1D H 1.0041 0.7500 0.6250
C2K C 0.3600(5) 0.8508(4) 0.3561(4)
C2G C 0.8508(4) 0.8600(5) 0.6061(4)
C2D C 0.8508(4) 0.6400(5) 0.6439(4)
H2K H 0.4345 0.8953 0.3438
H2G H 0.8953 0.9345 0.5938
H2D H 0.8953 0.5655 0.6562
C3K C 0.3597(4) 0.7187(3) 0.3553(3)
C3G C 0.7187(3) 0.8597(4) 0.6053(3)
C3D C 0.7187(3) 0.6403(4) 0.6447(3)
H3K H 0.4339 0.6746 0.3415
H3G H 0.6746 0.9339 0.5915
H3D H 0.6746 0.5661 0.6585
C4D C 0.6529(5) 0.7500 0.6250
C5D C 0.5117(6) 0.7500 0.6250
C6K C 0.1956(3) 0.3171(3) 0.3516(2)
C6G C 0.3171(3) 0.6956(3) 0.6016(2)
C6D C 0.3171(3) 0.8044(3) 0.6484(2)
H4K H 0.1516 0.2450 0.3330
H4G H 0.2450 0.6516 0.5830
H4D H 0.2450 0.8484 0.6670
loop_
_geom_bond_atom_site_label_1
_geom_bond_atom_site_label_2
_geom_bond_site_symmetry_1
_geom_bond_site_symmetry_2
Cd1 N1 1_555 1_555
N1 C5 1_555 1_555
C1 H1 1_555 1_555
C2 C1 1_555 1_555
H2 C2 1_555 1_555
C3 C2 1_555 1_555
H3 C3 1_555 1_555
C4 C3 1_555 1_555
C5 C4 1_555 1_555
C6 N1 1_555 1_555
H4 C6 1_555 1_555
Cd1J N1K 1_555 1_555
Cd1B N1D 1_555 1_555
N1K C5 1_555 1_555
N1G Cd1 1_555 1_555
N1D C5D 1_555 1_555
N1A Cd1 1_555 1_555
N1F Cd1 1_555 1_555
C1D H1D 1_555 1_555
C2K C1 1_555 1_555
C2G C1D 1_555 1_555
C2D C1D 1_555 1_555
H2K C2K 1_555 1_555
H2G C2G 1_555 1_555
H2D C2D 1_555 1_555
C3K C4 1_555 1_555
C3G C2G 1_555 1_555
C3D C2D 1_555 1_555
H3K C3K 1_555 1_555
H3G C3G 1_555 1_555
H3D C3D 1_555 1_555
C4D C3G 1_555 1_555
C5D N1G 1_555 1_555
C6K C6 1_555 1_555
C6G N1G 1_555 1_555
C6D N1D 1_555 1_555
H4K C6K 1_555 1_555
H4G C6G 1_555 1_555
H4D C6D 1_555 1_555
N1K C6K 1_555 1_555
C2K C3K 1_555 1_555
C3D C4D 1_555 1_555
C4D C5D 1_555 1_555
C6G C6D 1_555 1_555

#END
