
#######################################################################
#
#                 Cambridge Crystallographic Data Centre
#                                CCDC 
#
#######################################################################
#
# If this CIF has been generated from an entry in the Cambridge 
# Structural Database, then it will include bibliographic, chemical, 
# crystal, experimental, refinement or atomic coordinate data resulting 
# from the CCDC's data processing and validation procedures.
#
#######################################################################

data_GUPXEV
_symmetry_cell_setting           monoclinic
_symmetry_space_group_name_H-M   'C 2/c'
_symmetry_Int_Tables_number      15
_space_group_name_Hall           '-C 2yn'
loop_
_symmetry_equiv_pos_site_id
_symmetry_equiv_pos_as_xyz
1 x,y,z
2 -x,y,1/2-z
3 1/2+x,1/2+y,z
4 1/2-x,1/2+y,1/2-z
5 -x,-y,-z
6 x,-y,1/2+z
7 1/2-x,1/2-y,-z
8 1/2+x,1/2-y,1/2+z
_cell_length_a                   37.176(11)
_cell_length_b                   13.881(4)
_cell_length_c                   6.5301(17)
_cell_angle_alpha                90
_cell_angle_beta                 94.674(9)
_cell_angle_gamma                90
_cell_volume                     3358.59
loop_
_atom_site_label
_atom_site_type_symbol
_atom_site_fract_x
_atom_site_fract_y
_atom_site_fract_z
Ag1 Ag 0.082080(13) 0.02580(4) 0.65124(10)
Ag2 Ag 0.250690(13) 0.04437(4) 0.50730(9)
C1 C 0.36214(16) -0.1952(5) 0.3580(10)
H1 H 0.3471 -0.2466 0.3831
C2 C 0.39757(15) -0.2136(5) 0.3174(9)
C3 C 0.41968(15) -0.1382(5) 0.2834(9)
H2 H 0.4434 -0.1485 0.2540
C4 C 0.40605(18) -0.0461(5) 0.2934(11)
C5 C 0.37191(18) -0.0268(5) 0.3342(10)
H3 H 0.3640 0.0364 0.3435
C6 C 0.34878(15) -0.1030(5) 0.3621(9)
C7 C 0.31024(16) -0.0824(5) 0.3955(10)
C8 C 0.41134(15) -0.3147(5) 0.3105(10)
C9 C 0.17002(16) 0.0588(5) 0.6010(9)
C10 C 0.13898(18) 0.1972(5) 0.6387(11)
H4 H 0.1173 0.2295 0.6507
C11 C 0.1700(2) 0.2502(5) 0.6419(14)
H5 H 0.1699 0.3167 0.6594
C12 C 0.20098(18) 0.2011(5) 0.6183(11)
H6 H 0.2226 0.2351 0.6192
C13 C 0.0000 0.0470(6) 0.7500
C14 C 0.03050(18) 0.1877(5) 0.7346(12)
H7 H 0.0520 0.2208 0.7238
C15 C 0.0000 0.2398(7) 0.7500
H8 H 0.0000 0.3068 0.7500
N1 N 0.13820(13) 0.1024(4) 0.6196(8)
N2 N 0.20144(14) 0.1055(4) 0.5940(9)
N3 N 0.17031(15) -0.0363(4) 0.5867(9)
H9 H 0.1903 -0.0661 0.5731
H10 H 0.1506 -0.0683 0.5910
N4 N 0.03144(13) 0.0923(4) 0.7342(9)
N5 N 0.0000 -0.0484(5) 0.7500
H11 H -0.0207 -0.0809 0.7599
N6 N 0.43025(16) 0.0366(4) 0.2672(10)
O1 O 0.30277(13) 0.0036(4) 0.4318(9)
O2 O 0.28845(12) -0.1497(4) 0.3864(9)
O3 O 0.39575(12) -0.3770(4) 0.4086(9)
O4 O 0.43694(14) -0.3299(4) 0.2045(9)
O5 O 0.45995(14) 0.0210(4) 0.2058(11)
O6 O 0.41921(15) 0.1173(4) 0.2980(9)
Ag1A Ag -0.082080(13) 0.02580(4) 0.84876(10)
Ag1F Ag 0.417920(13) -0.52580(4) 0.34876(10)
Ag1G Ag -0.417920(13) -0.52580(4) 1.15124(10)
Ag2A Ag -0.250690(13) 0.04437(4) 0.99270(9)
C1A C -0.36214(16) -0.1952(5) 1.1420(10)
H1A H -0.3471 -0.2466 1.1169
C2A C -0.39757(15) -0.2136(5) 1.1826(9)
C3A C -0.41968(15) -0.1382(5) 1.2166(9)
H2A H -0.4434 -0.1485 1.2460
C4A C -0.40605(18) -0.0461(5) 1.2066(11)
C5A C -0.37191(18) -0.0268(5) 1.1658(10)
H3A H -0.3640 0.0364 1.1565
C6A C -0.34878(15) -0.1030(5) 1.1379(9)
C7A C -0.31024(16) -0.0824(5) 1.1045(10)
C8A C -0.41134(15) -0.3147(5) 1.1895(10)
C9A C -0.17002(16) 0.0588(5) 0.8990(9)
C10A C -0.13898(18) 0.1972(5) 0.8613(11)
H4A H -0.1173 0.2295 0.8493
C11A C -0.1700(2) 0.2502(5) 0.8581(14)
H5A H -0.1699 0.3167 0.8406
C12A C -0.20098(18) 0.2011(5) 0.8817(11)
H6A H -0.2226 0.2351 0.8808
C14A C -0.03050(18) 0.1877(5) 0.7654(12)
H7A H -0.0520 0.2208 0.7762
N1A N -0.13820(13) 0.1024(4) 0.8804(8)
N2A N -0.20144(14) 0.1055(4) 0.9060(9)
N3A N -0.17031(15) -0.0363(4) 0.9133(9)
H9A H -0.1903 -0.0661 0.9269
H10A H -0.1506 -0.0683 0.9090
N4A N -0.03144(13) 0.0923(4) 0.7658(9)
H11A H 0.0207 -0.0809 0.7401
N6A N -0.43025(16) 0.0366(4) 1.2328(10)
O1A O -0.30277(13) 0.0036(4) 1.0682(9)
O2A O -0.28845(12) -0.1497(4) 1.1136(9)
O3F O 0.10425(12) -0.1230(4) 0.5914(9)
O3G O -0.10425(12) -0.1230(4) 0.9086(9)
O3A O -0.39575(12) -0.3770(4) 1.0914(9)
O4A O -0.43694(14) -0.3299(4) 1.2955(9)
O5A O -0.45995(14) 0.0210(4) 1.2942(11)
O6A O -0.41921(15) 0.1173(4) 1.2020(9)
O7 O 0.76758(14) -0.1591(4) -0.1442(8)
H12 H 0.7653 -0.2150 -0.1965
H13 H 0.7472 -0.1407 -0.1083
loop_
_geom_bond_atom_site_label_1
_geom_bond_atom_site_label_2
_geom_bond_site_symmetry_1
_geom_bond_site_symmetry_2
Ag1 N1 1_555 1_555
Ag2 N2 1_555 1_555
C1 H1 1_555 1_555
C2 C1 1_555 1_555
C3 C2 1_555 1_555
H2 C3 1_555 1_555
C4 C3 1_555 1_555
C5 C4 1_555 1_555
H3 C5 1_555 1_555
C6 C1 1_555 1_555
C7 C6 1_555 1_555
C8 C2 1_555 1_555
C9 N1 1_555 1_555
C10 H4 1_555 1_555
C11 C10 1_555 1_555
H5 C11 1_555 1_555
C12 C11 1_555 1_555
H6 C12 1_555 1_555
C13 N4 1_555 1_555
C14 H7 1_555 1_555
C15 C14 1_555 1_555
H8 C15 1_555 1_555
N1 C10 1_555 1_555
N2 C9 1_555 1_555
N3 C9 1_555 1_555
H9 N3 1_555 1_555
H10 N3 1_555 1_555
N4 Ag1 1_555 1_555
N5 C13 1_555 1_555
H11 N5 1_555 1_555
N6 C4 1_555 1_555
O1 Ag2 1_555 1_555
O2 C7 1_555 1_555
O3 C8 1_555 1_555
O4 C8 1_555 1_555
O5 N6 1_555 1_555
O6 N6 1_555 1_555
O7 H12 1_555 1_555
H13 O7 1_555 1_555
Ag1A N1A 1_555 1_555
Ag1F O3 1_555 1_555
Ag1G O3A 1_555 1_555
Ag2A N2A 1_555 1_555
C1A H1A 1_555 1_555
C2A C1A 1_555 1_555
C3A C2A 1_555 1_555
H2A C3A 1_555 1_555
C4A C3A 1_555 1_555
C5A C4A 1_555 1_555
H3A C5A 1_555 1_555
C6A C1A 1_555 1_555
C7A C6A 1_555 1_555
C8A C2A 1_555 1_555
C9A N1A 1_555 1_555
C10A H4A 1_555 1_555
C11A C10A 1_555 1_555
H5A C11A 1_555 1_555
C12A C11A 1_555 1_555
H6A C12A 1_555 1_555
C14A C15 1_555 1_555
H7A C14A 1_555 1_555
N1A C10A 1_555 1_555
N2A C9A 1_555 1_555
N3A C9A 1_555 1_555
H9A N3A 1_555 1_555
H10A N3A 1_555 1_555
N4A C13 1_555 1_555
H11A N5 1_555 1_555
N6A C4A 1_555 1_555
O1A Ag2A 1_555 1_555
O2A C7A 1_555 1_555
O3F Ag1 1_555 1_555
O3G Ag1A 1_555 1_555
O3A C8A 1_555 1_555
O4A C8A 1_555 1_555
O5A N6A 1_555 1_555
O6A N6A 1_555 1_555
C5 C6 1_555 1_555
C7 O1 1_555 1_555
C12 N2 1_555 1_555
C14 N4 1_555 1_555
Ag1A N4A 1_555 1_555
C5A C6A 1_555 1_555
C7A O1A 1_555 1_555
C12A N2A 1_555 1_555
C14A N4A 1_555 1_555

#END
