
#######################################################################
#
#                 Cambridge Crystallographic Data Centre
#                                CCDC 
#
#######################################################################
#
# If this CIF has been generated from an entry in the Cambridge 
# Structural Database, then it will include bibliographic, chemical, 
# crystal, experimental, refinement or atomic coordinate data resulting 
# from the CCDC's data processing and validation procedures.
#
#######################################################################

data_GUPXIZ
_symmetry_cell_setting           monoclinic
_symmetry_space_group_name_H-M   'P 21/c'
_symmetry_Int_Tables_number      14
_space_group_name_Hall           '-P 2ybc'
loop_
_symmetry_equiv_pos_site_id
_symmetry_equiv_pos_as_xyz
1 x,y,z
2 -x,1/2+y,1/2-z
3 -x,-y,-z
4 x,1/2-y,1/2+z
_cell_length_a                   17.064(4)
_cell_length_b                   7.7914(19)
_cell_length_c                   17.635(4)
_cell_angle_alpha                90
_cell_angle_beta                 102.715(5)
_cell_angle_gamma                90
_cell_volume                     2287.12
loop_
_atom_site_label
_atom_site_type_symbol
_atom_site_fract_x
_atom_site_fract_y
_atom_site_fract_z
Ag1 Ag 0.53324(2) 0.29983(5) 0.40617(2)
Ag2 Ag 0.25862(2) 0.65705(5) 0.51390(2)
C1 C 0.1805(3) 0.9657(6) 0.5851(2)
C2 C 0.1068(3) 0.7174(7) 0.5769(3)
C3 C 0.0461(3) 0.8061(8) 0.5993(4)
H1 H 0.0000 0.7504 0.6065
C4 C 0.0558(3) 0.9816(8) 0.6108(3)
C5 C 0.1016(3) 0.5264(8) 0.5617(4)
H2 H 0.1484 0.4712 0.5921
H3 H 0.0988 0.5054 0.5075
H4 H 0.0544 0.4814 0.5757
C6 C -0.0109(3) 1.0913(9) 0.6294(4)
H5 H 0.0100 1.2025 0.6466
H6 H -0.0318 1.0374 0.6697
H7 H -0.0530 1.1035 0.5837
C7 C 0.3713(2) 0.4560(5) 0.4289(2)
C8 C 0.3824(2) 0.4775(6) 0.3012(2)
C9 C 0.3095(3) 0.5610(6) 0.2836(3)
H8 H 0.2871 0.5942 0.2328
C10 C 0.2704(2) 0.5947(6) 0.3422(3)
C11 C 0.4299(3) 0.4462(8) 0.2409(3)
H9 H 0.4477 0.3290 0.2438
H10 H 0.4757 0.5212 0.2499
H11 H 0.3969 0.4683 0.1903
C12 C 0.1919(3) 0.6878(6) 0.3265(3)
H12 H 0.1556 0.6306 0.3527
H13 H 0.1694 0.6890 0.2716
H14 H 0.2002 0.8036 0.3452
C13 C 0.6346(2) 0.0339(5) 0.6829(2)
H15 H 0.5906 0.0983 0.6891
C14 C 0.6850(2) -0.0379(5) 0.7482(2)
C15 C 0.7504(3) -0.1353(6) 0.7395(3)
H16 H 0.7841 -0.1865 0.7821
C16 C 0.7640(3) -0.1540(5) 0.6657(3)
C17 C 0.7144(2) -0.0839(5) 0.6005(2)
H17 H 0.7250 -0.1007 0.5515
C18 C 0.6484(2) 0.0120(5) 0.6092(2)
C19 C 0.5962(2) 0.1050(6) 0.5414(3)
C20 C 0.6701(2) 0.0000(6) 0.8281(3)
N1 N 0.2491(2) 1.0452(5) 0.5828(2)
H18 H 0.2880 0.9888 0.5709
H19 H 0.2545 1.1529 0.5933
N2 N 0.1225(2) 1.0625(6) 0.6056(2)
N3 N 0.1741(2) 0.7967(5) 0.5685(2)
N4 N 0.4003(2) 0.4015(5) 0.5012(2)
H20 H 0.4449 0.3460 0.5122
H21 H 0.3744 0.4219 0.5369
N5 N 0.3015(2) 0.5461(5) 0.4155(2)
N6 N 0.4137(2) 0.4216(5) 0.3743(2)
N7 N 0.8352(2) -0.2478(5) 0.6554(2)
O1 O 0.53685(19) 0.1812(5) 0.55346(19)
O2 O 0.62003(18) 0.1067(4) 0.47823(17)
O3 O 0.6293(2) 0.1324(5) 0.8334(2)
O4 O 0.7011(2) -0.0962(5) 0.88281(18)
O5 O 0.8841(2) -0.2923(6) 0.7127(2)
O6 O 0.8429(2) -0.2780(6) 0.5895(2)
Ag1C Ag 0.53324(2) 0.20017(5) 0.90617(2)
Ag2B Ag 0.74138(2) 0.34295(5) 0.48610(2)
Ag2A Ag 0.74138(2) 0.15705(5) 0.98610(2)
O2B O 0.37997(18) 0.8933(4) 0.52177(17)
O3C O 0.6293(2) 0.3676(5) 0.3334(2)
O4A O 0.2989(2) 0.4038(5) 0.61719(18)
loop_
_geom_bond_atom_site_label_1
_geom_bond_atom_site_label_2
_geom_bond_site_symmetry_1
_geom_bond_site_symmetry_2
Ag1 N6 1_555 1_555
Ag2 N3 1_555 1_555
C1 N1 1_555 1_555
C2 C3 1_555 1_555
C3 H1 1_555 1_555
C4 C3 1_555 1_555
C5 C2 1_555 1_555
H2 C5 1_555 1_555
H3 C5 1_555 1_555
H4 C5 1_555 1_555
C6 C4 1_555 1_555
H5 C6 1_555 1_555
H6 C6 1_555 1_555
H7 C6 1_555 1_555
C7 N4 1_555 1_555
C8 C9 1_555 1_555
C9 H8 1_555 1_555
C10 C9 1_555 1_555
C11 C8 1_555 1_555
H9 C11 1_555 1_555
H10 C11 1_555 1_555
H11 C11 1_555 1_555
C12 C10 1_555 1_555
H12 C12 1_555 1_555
H13 C12 1_555 1_555
H14 C12 1_555 1_555
C13 H15 1_555 1_555
C14 C13 1_555 1_555
C15 C14 1_555 1_555
H16 C15 1_555 1_555
C16 C15 1_555 1_555
C17 C16 1_555 1_555
H17 C17 1_555 1_555
C18 C13 1_555 1_555
C19 C18 1_555 1_555
C20 C14 1_555 1_555
N1 H18 1_555 1_555
H19 N1 1_555 1_555
N2 C1 1_555 1_555
N3 C1 1_555 1_555
N4 H20 1_555 1_555
H21 N4 1_555 1_555
N5 Ag2 1_555 1_555
N6 C7 1_555 1_555
N7 C16 1_555 1_555
O1 Ag1 1_555 1_555
O2 Ag1 1_555 1_555
O3 C20 1_555 1_555
O4 C20 1_555 1_555
O5 N7 1_555 1_555
O6 N7 1_555 1_555
Ag1C O3 1_555 1_555
Ag2B O2 1_555 1_555
Ag2A O4 1_555 1_555
O2B Ag2 1_555 1_555
O3C Ag1 1_555 1_555
O4A Ag2 1_555 1_555
C2 N3 1_555 1_555
C4 N2 1_555 1_555
C7 N5 1_555 1_555
C8 N6 1_555 1_555
C10 N5 1_555 1_555
C17 C18 1_555 1_555
C19 O1 1_555 1_555
C19 O2 1_555 1_555

#END
