
#######################################################################
#
#                 Cambridge Crystallographic Data Centre
#                                CCDC 
#
#######################################################################
#
# If this CIF has been generated from an entry in the Cambridge 
# Structural Database, then it will include bibliographic, chemical, 
# crystal, experimental, refinement or atomic coordinate data resulting 
# from the CCDC's data processing and validation procedures.
#
#######################################################################

data_GUPXUL
_symmetry_cell_setting           monoclinic
_symmetry_space_group_name_H-M   'P 21/c'
_symmetry_Int_Tables_number      14
_space_group_name_Hall           '-P 2ybc'
loop_
_symmetry_equiv_pos_site_id
_symmetry_equiv_pos_as_xyz
1 x,y,z
2 -x,1/2+y,1/2-z
3 -x,-y,-z
4 x,1/2-y,1/2+z
_cell_length_a                   12.133(2)
_cell_length_b                   9.6093(19)
_cell_length_c                   17.102(3)
_cell_angle_alpha                90
_cell_angle_beta                 100.43(3)
_cell_angle_gamma                90
_cell_volume                     1960.97
loop_
_atom_site_label
_atom_site_type_symbol
_atom_site_fract_x
_atom_site_fract_y
_atom_site_fract_z
C1 C 1.0225(2) 1.2033(2) 0.4816(1)
C2 C 1.0109(2) 1.3573(2) 0.4920(1)
C3 C 0.8177(2) 0.6823(4) 0.2718(2)
H1 H 0.8896 0.6676 0.3003
C4 C 0.6248(2) 0.6095(3) 0.2384(2)
C5 C 1.1039(2) 1.4386(3) 0.5167(2)
H2 H 1.1744 1.3976 0.5280
C6 C 0.6041(2) 0.7226(3) 0.1886(2)
H3 H 0.5322 0.7373 0.1601
C7 C 1.4442(2) 0.6261(2) 0.4831(2)
C8 C 1.3833(2) 0.7620(3) 0.4648(2)
C9 C 0.7968(2) 0.7949(3) 0.2214(2)
C10 C 0.7330(2) 0.5915(3) 0.2801(2)
H4 H 0.7486 0.5163 0.3146
C11 C 1.0113(2) 0.9447(3) 0.3378(2)
H5 H 0.9632 1.0036 0.3587
C12 C 1.0933(2) 1.5810(3) 0.5247(2)
H6 H 1.1566 1.6352 0.5415
C13 C 1.4022(2) 0.5252(3) 0.5265(2)
H7 H 1.3358 0.5414 0.5448
C14 C 0.3778(2) 0.4779(3) 0.1361(2)
H8 H 0.4092 0.4110 0.1075
C15 C 0.2703(2) 0.6236(3) 0.1729(2)
H9 H 0.2077 0.6794 0.1732
C16 C 0.6884(2) 0.8141(3) 0.1805(2)
H10 H 0.6723 0.8903 0.1468
C17 C 0.8863(2) 0.8950(3) 0.2079(2)
H11 H 0.9043 0.8775 0.1558
H12 H 0.8570 0.9889 0.2078
C18 C 0.5387(2) 0.5024(3) 0.2482(2)
H13 H 0.5629 0.4129 0.2312
H14 H 0.5350 0.4949 0.3043
C19 C 1.5429(2) 0.5999(3) 0.4569(2)
H15 H 1.5729 0.6672 0.4278
C20 C 1.1473(2) 0.8231(3) 0.3217(2)
H16 H 1.2170 0.7799 0.3316
Co1 Co 1.1901 0.9565 0.4938
N1 N 1.1116(2) 0.9077(2) 0.3748(1)
N2 N 1.0764(2) 0.8065(3) 0.2553(2)
N3 N 0.9883(2) 0.8863(2) 0.2668(1)
N4 N 0.4276(2) 0.5314(2) 0.2045(1)
N5 N 0.2778(2) 0.5324(2) 0.1141(1)
N6 N 0.3586(2) 0.6267(3) 0.2297(1)
O1 O 0.9346(1) 1.1350(2) 0.4604(1)
O2 O 1.1197(1) 1.1551(2) 0.4928(1)
O3 O 1.4225(2) 0.8471(2) 0.4227(1)
O4 O 1.2950(1) 0.7790(2) 0.4917(1)
O5 O 1.3211(2) 1.0700(2) 0.4581(1)
C1B C 0.9775(2) 1.7967(2) 0.5184(1)
C2B C 0.9891(2) 1.6427(2) 0.5080(1)
C3B C 1.1823(2) 1.3177(4) 0.7282(2)
H1B H 1.1104 1.3324 0.6997
C4B C 1.3752(2) 1.3905(3) 0.7616(2)
C5B C 0.8961(2) 1.5614(3) 0.4833(2)
H2B H 0.8256 1.6024 0.4720
C6B C 1.3959(2) 1.2774(3) 0.8114(2)
H3B H 1.4678 1.2627 0.8399
C7B C 1.5558(2) 0.3739(2) 0.5169(2)
C8B C 1.6167(2) 0.2380(3) 0.5352(2)
C9B C 1.2032(2) 1.2051(3) 0.7786(2)
C10B C 1.2670(2) 1.4085(3) 0.7199(2)
H4B H 1.2514 1.4837 0.6854
C11B C 0.9887(2) 1.0553(3) 0.6622(2)
H5B H 1.0368 0.9964 0.6413
C12B C 0.9067(2) 1.4190(3) 0.4753(2)
H6B H 0.8434 1.3648 0.4585
C13B C 1.5978(2) 0.4748(3) 0.4735(2)
H7B H 1.6642 0.4586 0.4552
C14B C 1.6222(2) 1.5221(3) 0.8639(2)
H8B H 1.5908 1.5890 0.8925
C15B C 1.7297(2) 1.3764(3) 0.8271(2)
H9B H 1.7923 1.3206 0.8268
C16B C 1.3116(2) 1.1859(3) 0.8195(2)
H10B H 1.3277 1.1097 0.8532
C17B C 1.1137(2) 1.1050(3) 0.7921(2)
H11B H 1.0957 1.1225 0.8442
H12B H 1.1430 1.0111 0.7922
C18B C 1.4613(2) 1.4976(3) 0.7518(2)
H13B H 1.4371 1.5871 0.7688
H14B H 1.4650 1.5051 0.6957
C19B C 1.4571(2) 0.4001(3) 0.5431(2)
H15B H 1.4271 0.3328 0.5722
C20B C 0.8527(2) 1.1769(3) 0.6783(2)
H16B H 0.7830 1.2201 0.6684
Co1B Co 0.8099 1.0435 0.5062
Co1_2 Co 1.1901 1.9565 0.4938
Co1A Co 1.8099 1.4565 1.0062
Co1B_2 Co 0.8099 2.0435 0.5062
Co1B_3 Co 1.8099 0.0435 0.5062
Co1C Co 0.1901 0.5435 -0.0062
N1B N 0.8884(2) 1.0923(2) 0.6252(1)
N2B N 0.9236(2) 1.1935(3) 0.7447(2)
N3B N 1.0117(2) 1.1137(2) 0.7332(1)
N4B N 1.5724(2) 1.4686(2) 0.7955(1)
N5B N 1.7222(2) 1.4676(2) 0.8859(1)
N5A N 0.7222(2) 1.0324(2) 0.3859(1)
N5C N 1.2778(2) 0.9676(2) 0.6141(1)
N6B N 1.6414(2) 1.3733(3) 0.7703(1)
O1B O 1.0654(1) 1.8650(2) 0.5396(1)
O1B_2 O 1.0654(1) 0.8650(2) 0.5396(1)
O2B O 0.8803(1) 1.8449(2) 0.5072(1)
O2B_2 O 0.8803(1) 0.8449(2) 0.5072(1)
O3B O 1.5775(2) 0.1529(2) 0.5773(1)
O4B O 1.7050(1) 0.2210(2) 0.5083(1)
O4B_2 O 0.7050(1) 1.2210(2) 0.5083(1)
O5B O 0.6789(2) 0.9300(2) 0.5419(1)
loop_
_geom_bond_atom_site_label_1
_geom_bond_atom_site_label_2
_geom_bond_site_symmetry_1
_geom_bond_site_symmetry_2
C1 C2 1_555 1_555
C2 C5 1_555 1_555
C3 H1 1_555 1_555
C4 C6 1_555 1_555
C5 H2 1_555 1_555
C6 H3 1_555 1_555
C7 C8 1_555 1_555
C8 O3 1_555 1_555
C9 C3 1_555 1_555
C10 C3 1_555 1_555
H4 C10 1_555 1_555
C11 H5 1_555 1_555
C12 C5 1_555 1_555
H6 C12 1_555 1_555
C13 C7 1_555 1_555
H7 C13 1_555 1_555
C14 H8 1_555 1_555
C15 H9 1_555 1_555
C16 C6 1_555 1_555
H10 C16 1_555 1_555
C17 C9 1_555 1_555
H11 C17 1_555 1_555
H12 C17 1_555 1_555
C18 C4 1_555 1_555
H13 C18 1_555 1_555
H14 C18 1_555 1_555
C19 C7 1_555 1_555
H15 C19 1_555 1_555
C20 H16 1_555 1_555
Co1 N1 1_555 1_555
N1 C11 1_555 1_555
N2 C20 1_555 1_555
N3 C11 1_555 1_555
N4 C14 1_555 1_555
N5 C14 1_555 1_555
N6 C15 1_555 1_555
O1 C1 1_555 1_555
O2 C1 1_555 1_555
O4 C8 1_555 1_555
O5 Co1 1_555 1_555
C1B C2B 1_555 1_555
C2B C12 1_555 1_555
C3B H1B 1_555 1_555
C4B C6B 1_555 1_555
C5B C2B 1_555 1_555
H2B C5B 1_555 1_555
C6B H3B 1_555 1_555
C7B C8B 1_555 1_555
C8B O3B 1_555 1_555
C9B C3B 1_555 1_555
C10B C3B 1_555 1_555
H4B C10B 1_555 1_555
C11B H5B 1_555 1_555
C12B C2 1_555 1_555
H6B C12B 1_555 1_555
C13B C19 1_555 1_555
H7B C13B 1_555 1_555
C14B H8B 1_555 1_555
C15B H9B 1_555 1_555
C16B C6B 1_555 1_555
H10B C16B 1_555 1_555
C17B C9B 1_555 1_555
H11B C17B 1_555 1_555
H12B C17B 1_555 1_555
C18B C4B 1_555 1_555
H13B C18B 1_555 1_555
H14B C18B 1_555 1_555
C19B C13 1_555 1_555
H15B C19B 1_555 1_555
C20B H16B 1_555 1_555
Co1B O1 1_555 1_555
Co1_2 O1B 1_555 1_555
Co1A N5B 1_555 1_555
Co1B_2 O2B 1_555 1_555
Co1B_3 O4B 1_555 1_555
Co1C N5 1_555 1_555
N1B C11B 1_555 1_555
N2B C20B 1_555 1_555
N3B C11B 1_555 1_555
N4B C14B 1_555 1_555
N5B C14B 1_555 1_555
N5A Co1B 1_555 1_555
N5C Co1 1_555 1_555
N6B C15B 1_555 1_555
O1B C1B 1_555 1_555
O1B_2 Co1 1_555 1_555
O2B C1B 1_555 1_555
O2B_2 Co1B 1_555 1_555
O4B C8B 1_555 1_555
O4B_2 Co1B 1_555 1_555
O5B Co1B 1_555 1_555
C4 C10 1_555 1_555
C9 C16 1_555 1_555
C15 N5 1_555 1_555
C17 N3 1_555 1_555
C18 N4 1_555 1_555
C20 N1 1_555 1_555
Co1 O2 1_555 1_555
Co1 O4 1_555 1_555
N2 N3 1_555 1_555
N4 N6 1_555 1_555
C4B C10B 1_555 1_555
C5B C12B 1_555 1_555
C7B C13B 1_555 1_555
C7B C19B 1_555 1_555
C9B C16B 1_555 1_555
C15B N5B 1_555 1_555
C17B N3B 1_555 1_555
C18B N4B 1_555 1_555
C20B N1B 1_555 1_555
Co1B N1B 1_555 1_555
N2B N3B 1_555 1_555
N4B N6B 1_555 1_555

#END
