
#######################################################################
#
#                 Cambridge Crystallographic Data Centre
#                                CCDC 
#
#######################################################################
#
# If this CIF has been generated from an entry in the Cambridge 
# Structural Database, then it will include bibliographic, chemical, 
# crystal, experimental, refinement or atomic coordinate data resulting 
# from the CCDC's data processing and validation procedures.
#
#######################################################################

data_GUPYAS01
_symmetry_cell_setting           monoclinic
_symmetry_space_group_name_H-M   'P 21/c'
_symmetry_Int_Tables_number      14
_space_group_name_Hall           '-P 2ybc'
loop_
_symmetry_equiv_pos_site_id
_symmetry_equiv_pos_as_xyz
1 x,y,z
2 -x,1/2+y,1/2-z
3 -x,-y,-z
4 x,1/2-y,1/2+z
_cell_length_a                   9.9581(13)
_cell_length_b                   10.0119(12)
_cell_length_c                   28.536(3)
_cell_angle_alpha                90
_cell_angle_beta                 108.002(4)
_cell_angle_gamma                90
_cell_volume                     2705.75
loop_
_atom_site_label
_atom_site_type_symbol
_atom_site_fract_x
_atom_site_fract_y
_atom_site_fract_z
O1 O 0.3770(4) -0.6091(3) 0.93706(14)
Co1 Co 0.14943(6) 0.14141(5) 0.836322(18)
Co2 Co 0.5000 0.0000 1.0000
O2 O 0.2830(3) -0.0003(2) 0.87830(9)
C1 C 0.1784(4) -0.2342(4) 0.82192(13)
H1 H 0.1602 -0.1539 0.8047
O3 O 0.4246(3) -0.1226(3) 0.93732(10)
O4 O 0.0069(3) -0.2509(3) 0.72175(9)
C2 C 0.2990(4) -0.3577(4) 0.89500(13)
H2 H 0.3617 -0.3599 0.9268
O5 O -0.0509(3) -0.4547(3) 0.73213(9)
O6 O 0.1934(3) -0.7029(3) 0.88352(9)
N1 N 0.6595(4) 0.0865(3) 0.97495(13)
N2 N 0.3188(4) 0.2007(3) 0.81009(12)
C3 C 0.1166(4) -0.3512(4) 0.79955(13)
C4 C 0.0189(4) -0.3522(4) 0.74833(14)
N3 N 0.9860(4) 1.0576(3) 0.86176(12)
C5 C 0.1439(4) -0.4704(4) 0.82528(13)
H3 H 0.0993 -0.5483 0.8107
N4 N 0.4559(4) 0.3118(3) 0.77844(13)
N5 N 0.8641(4) 0.9060(3) 0.88379(13)
C6 C 0.4546(5) 0.1593(4) 0.82744(16)
H4 H 0.4833 0.0904 0.8502
C7 C 0.2681(4) -0.2368(4) 0.87037(13)
N6 N 0.7781(5) 0.2209(4) 0.94411(14)
C8 C 0.8451(5) 1.0771(5) 0.84152(18)
H5 H 0.8074 1.1478 0.8204
C9 C 0.2381(4) -0.4746(4) 0.87302(14)
C10 C 0.3262(5) 0.2961(4) 0.77950(15)
H6 H 0.2495 0.3462 0.7610
C11 C 0.6548(6) 0.1976(4) 0.94983(16)
H7 H 0.5756 0.2516 0.9379
C12 C 0.9914(5) 0.9489(4) 0.88792(15)
H8 H 1.0743 0.9079 0.9068
N7 N 0.5428(4) 0.2244(4) 0.80954(14)
C13 C 0.7957(5) 0.0475(5) 0.98405(17)
H9 H 0.8316 -0.0297 1.0016
C14 C 0.2732(5) -0.6056(4) 0.89939(15)
C15 C 0.5173(5) 0.4148(4) 0.75542(17)
H10 H 0.4430 0.4609 0.7305
H11 H 0.5802 0.3741 0.7395
C16 C 0.3297(4) -0.1102(4) 0.89705(13)
C17 C 0.8208(5) 0.7879(5) 0.90539(17)
H12 H 0.7606 0.8146 0.9247
H13 H 0.9037 0.7445 0.9273
C18 C 0.7428(5) 0.6912(4) 0.86627(17)
N8 N 0.8725(5) 0.1264(4) 0.96641(16)
C19 C 0.5980(5) 0.5129(4) 0.79357(16)
C20 C 0.8139(5) 0.6133(5) 0.84226(18)
H14 H 0.9115 0.6201 0.8503
C21 C 0.7416(5) 0.5248(5) 0.80613(17)
H15 H 0.7912 0.4726 0.7901
N9 N 0.7665(4) 0.9879(4) 0.85422(16)
C22 C 0.8220(7) 0.3376(5) 0.92221(19)
H16 H 0.7395 0.3876 0.9034
H17 H 0.8730 0.3095 0.8999
C23 C 0.9146(6) 0.4245(5) 0.96168(18)
C24 C 1.0573(7) 0.4187(5) 0.9733(2)
H18 H 1.0978 0.3630 0.9553
C25 C 0.5282(5) 0.5924(5) 0.8177(2)
H19 H 0.4304 0.5873 0.8093
C26 C 0.5996(6) 0.6791(5) 0.8540(2)
H20 H 0.5501 0.7301 0.8703
C27 C 0.8575(6) 0.5068(5) 0.9891(2)
H21 H 0.7600 0.5117 0.9820
O7 O 0.6465(3) -0.1499(3) 1.02990(11)
O1B O 0.6230(4) 0.6091(3) 1.06294(14)
Co1B Co 0.85057(6) -0.14141(5) 1.163678(18)
Co1A Co -0.14943(6) -0.35859(5) 0.663678(18)
Co1_2 Co 0.14943(6) -0.85859(5) 0.836322(18)
Co1_3 Co 1.14943(6) 1.14141(5) 0.836322(18)
Co1C Co 1.14943(6) 0.35859(5) 1.336322(18)
Co1B_2 Co 0.85057(6) 0.85859(5) 1.163678(18)
Co1_4 Co -0.85057(6) -0.85859(5) 0.836322(18)
Co2_2 Co 1.5000 1.0000 1.0000
O2B O 0.7170(3) 0.0003(2) 1.12170(9)
C1B C 0.8216(4) 0.2342(4) 1.17808(13)
H1B H 0.8398 0.1539 1.1953
O3B O 0.5754(3) 0.1226(3) 1.06268(10)
O4B O 0.9931(3) 0.2509(3) 1.27825(9)
O4A O -0.0069(3) 0.2491(3) 0.77825(9)
O4C O 1.0069(3) -0.2491(3) 1.22175(9)
C2B C 0.7010(4) 0.3577(4) 1.10500(13)
H2B H 0.6383 0.3599 1.0732
O5B O 1.0509(3) 0.4547(3) 1.26787(9)
O5A O 0.0509(3) 0.0453(3) 0.76787(9)
O5C O 0.9491(3) -0.0453(3) 1.23213(9)
O6B O 0.8066(3) 0.7029(3) 1.11648(9)
O6_2 O 0.1934(3) 0.2971(3) 0.88352(9)
O6B_2 O 0.8066(3) -0.2971(3) 1.11648(9)
N1B N 1.3405(4) 0.9135(3) 1.02505(13)
N1B_2 N 0.3405(4) -0.0865(3) 1.02505(13)
N2_2 N -0.6812(4) -0.7993(3) 0.81009(12)
N2B N 0.6812(4) -0.2007(3) 1.18991(12)
C3B C 0.8834(4) 0.3512(4) 1.20045(13)
C4B C 0.9811(4) 0.3522(4) 1.25167(14)
N3_2 N -0.0140(4) 0.0576(3) 0.86176(12)
N3B N 1.0140(4) -0.0576(3) 1.13824(12)
C5B C 0.8561(4) 0.4704(4) 1.17472(13)
H3B H 0.9007 0.5483 1.1893
N4_2 N -0.5441(4) -0.6882(3) 0.77844(13)
N5_2 N -0.1359(4) -0.0940(3) 0.88379(13)
C6_2 C -0.5454(5) -0.8407(4) 0.82744(16)
H4_2 H -0.5167 -0.9096 0.8502
C7B C 0.7319(4) 0.2368(4) 1.12963(13)
N6B N 1.2219(5) 0.7791(4) 1.05589(14)
C8_2 C -0.1549(5) 0.0771(5) 0.84152(18)
H5_2 H -0.1926 0.1478 0.8204
C9B C 0.7619(4) 0.4746(4) 1.12698(14)
C10_2 C -0.6738(5) -0.7039(4) 0.77950(15)
H6_2 H -0.7505 -0.6538 0.7610
C11B C 1.3452(6) 0.8024(4) 1.05017(16)
H7B H 1.4244 0.7484 1.0621
C12_2 C -0.0086(5) -0.0511(4) 0.88792(15)
H8_2 H 0.0743 -0.0921 0.9068
N7_2 N -0.4572(4) -0.7756(4) 0.80954(14)
C13B C 1.2043(5) 0.9525(5) 1.01595(17)
H9B H 1.1684 1.0297 0.9984
C14B C 0.7268(5) 0.6056(4) 1.10061(15)
C15_2 C -0.4827(5) -0.5852(4) 0.75542(17)
H10_2 H -0.5570 -0.5391 0.7305
H11_2 H -0.4198 -0.6259 0.7395
C16B C 0.6703(4) 0.1102(4) 1.10295(13)
C17_2 C -0.1792(5) -0.2121(5) 0.90539(17)
H12_2 H -0.2394 -0.1854 0.9247
H13_2 H -0.0963 -0.2555 0.9273
C18_2 C -0.2572(5) -0.3088(4) 0.86627(17)
N8B N 1.1275(5) 0.8736(4) 1.03359(16)
C19_2 C -0.4020(5) -0.4871(4) 0.79357(16)
C20_2 C -0.1861(5) -0.3867(5) 0.84226(18)
H14_2 H -0.0885 -0.3799 0.8503
C21_2 C -0.2584(5) -0.4752(5) 0.80613(17)
H15_2 H -0.2088 -0.5274 0.7901
N9_2 N -0.2335(4) -0.0121(4) 0.85422(16)
C22B C 1.1780(7) 0.6624(5) 1.07779(19)
H16B H 1.2605 0.6124 1.0966
H17B H 1.1270 0.6905 1.1001
C23B C 1.0854(6) 0.5755(5) 1.03832(18)
C24B C 0.9427(7) 0.5813(5) 1.0267(2)
H18B H 0.9022 0.6370 1.0447
C25_2 C -0.4718(5) -0.4076(5) 0.8177(2)
H19_2 H -0.5696 -0.4127 0.8093
C26_2 C -0.4004(6) -0.3209(5) 0.8540(2)
H20_2 H -0.4499 -0.2699 0.8703
C27B C 1.1425(6) 0.4932(5) 1.0109(2)
H21B H 1.2400 0.4883 1.0180
O7B O 0.3535(3) 0.1499(3) 0.97010(11)
loop_
_geom_bond_atom_site_label_1
_geom_bond_atom_site_label_2
_geom_bond_site_symmetry_1
_geom_bond_site_symmetry_2
O1 C14 1_555 1_555
Co1 O2 1_555 1_555
Co2 O3 1_555 1_555
O2 C16 1_555 1_555
C1 H1 1_555 1_555
O3 C16 1_555 1_555
O4 C4 1_555 1_555
C2 H2 1_555 1_555
O5 C4 1_555 1_555
O6 C14 1_555 1_555
N1 Co2 1_555 1_555
N2 Co1 1_555 1_555
C3 C1 1_555 1_555
C4 C3 1_555 1_555
N3 C8 1_555 1_555
C5 C3 1_555 1_555
H3 C5 1_555 1_555
N4 C10 1_555 1_555
N5 C12 1_555 1_555
C6 N2 1_555 1_555
H4 C6 1_555 1_555
C7 C1 1_555 1_555
N6 C11 1_555 1_555
C8 H5 1_555 1_555
C9 C2 1_555 1_555
C10 N2 1_555 1_555
H6 C10 1_555 1_555
C11 N1 1_555 1_555
H7 C11 1_555 1_555
C12 N3 1_555 1_555
H8 C12 1_555 1_555
N7 N4 1_555 1_555
C13 N1 1_555 1_555
H9 C13 1_555 1_555
C14 C9 1_555 1_555
C15 N4 1_555 1_555
H10 C15 1_555 1_555
H11 C15 1_555 1_555
C16 C7 1_555 1_555
C17 N5 1_555 1_555
H12 C17 1_555 1_555
H13 C17 1_555 1_555
C18 C17 1_555 1_555
N8 N6 1_555 1_555
C19 C15 1_555 1_555
C20 C18 1_555 1_555
H14 C20 1_555 1_555
C21 C19 1_555 1_555
H15 C21 1_555 1_555
N9 N5 1_555 1_555
C22 N6 1_555 1_555
H16 C22 1_555 1_555
H17 C22 1_555 1_555
C23 C22 1_555 1_555
C24 C23 1_555 1_555
H18 C24 1_555 1_555
C25 C19 1_555 1_555
H19 C25 1_555 1_555
C26 C18 1_555 1_555
H20 C26 1_555 1_555
C27 C23 1_555 1_555
H21 C27 1_555 1_555
O7 Co2 1_555 1_555
O1B C14B 1_555 1_555
Co1B O2B 1_555 1_555
Co1A O4 1_555 1_555
Co1_2 O6 1_555 1_555
Co1_3 N3 1_555 1_555
Co1C O4B 1_555 1_555
Co1B_2 O6B 1_555 1_555
Co1_4 N2_2 1_555 1_555
Co2_2 N1B 1_555 1_555
O2B C16B 1_555 1_555
C1B H1B 1_555 1_555
O3B Co2 1_555 1_555
O4B C4B 1_555 1_555
O4A Co1 1_555 1_555
O4C Co1B 1_555 1_555
C2B H2B 1_555 1_555
O5B Co1C 1_555 1_555
O5A Co1 1_555 1_555
O5C Co1B 1_555 1_555
O6B C14B 1_555 1_555
O6_2 Co1 1_555 1_555
O6B_2 Co1B 1_555 1_555
N1B C11B 1_555 1_555
N1B_2 Co2 1_555 1_555
N2_2 C6_2 1_555 1_555
N2B Co1B 1_555 1_555
C3B C1B 1_555 1_555
C4B O5B 1_555 1_555
N3_2 Co1 1_555 1_555
N3B Co1B 1_555 1_555
C5B C3B 1_555 1_555
H3B C5B 1_555 1_555
N4_2 C10_2 1_555 1_555
N5_2 C12_2 1_555 1_555
C6_2 H4_2 1_555 1_555
C7B C1B 1_555 1_555
N6B C11B 1_555 1_555
C8_2 N3_2 1_555 1_555
H5_2 C8_2 1_555 1_555
C9B C2B 1_555 1_555
C10_2 N2_2 1_555 1_555
H6_2 C10_2 1_555 1_555
C11B H7B 1_555 1_555
C12_2 N3_2 1_555 1_555
H8_2 C12_2 1_555 1_555
N7_2 N4_2 1_555 1_555
C13B N1B 1_555 1_555
H9B C13B 1_555 1_555
C14B C9B 1_555 1_555
C15_2 N4_2 1_555 1_555
H10_2 C15_2 1_555 1_555
H11_2 C15_2 1_555 1_555
C16B O3B 1_555 1_555
C17_2 N5_2 1_555 1_555
H12_2 C17_2 1_555 1_555
H13_2 C17_2 1_555 1_555
C18_2 C17_2 1_555 1_555
N8B N6B 1_555 1_555
C19_2 C15_2 1_555 1_555
C20_2 C18_2 1_555 1_555
H14_2 C20_2 1_555 1_555
C21_2 C19_2 1_555 1_555
H15_2 C21_2 1_555 1_555
N9_2 N5_2 1_555 1_555
C22B N6B 1_555 1_555
H16B C22B 1_555 1_555
H17B C22B 1_555 1_555
C23B C22B 1_555 1_555
C24B C27 1_555 1_555
H18B C24B 1_555 1_555
C25_2 C19_2 1_555 1_555
H19_2 C25_2 1_555 1_555
C26_2 C18_2 1_555 1_555
H20_2 C26_2 1_555 1_555
C27B C24 1_555 1_555
H21B C27B 1_555 1_555
O7B Co2 1_555 1_555
C2 C7 1_555 1_555
O5 Co1A 1_555 1_555
C5 C9 1_555 1_555
C6 N7 1_555 1_555
C8 N9 1_555 1_555
C13 N8 1_555 1_555
C20 C21 1_555 1_555
C25 C26 1_555 1_555
C2B C7B 1_555 1_555
C3B C4B 1_555 1_555
C5B C9B 1_555 1_555
C6_2 N7_2 1_555 1_555
C7B C16B 1_555 1_555
C8_2 N9_2 1_555 1_555
C13B N8B 1_555 1_555
C20_2 C21_2 1_555 1_555
C23B C24B 1_555 1_555
C23B C27B 1_555 1_555
C25_2 C26_2 1_555 1_555

#END
