
#######################################################################
#
#                 Cambridge Crystallographic Data Centre
#                                CCDC 
#
#######################################################################
#
# If this CIF has been generated from an entry in the Cambridge 
# Structural Database, then it will include bibliographic, chemical, 
# crystal, experimental, refinement or atomic coordinate data resulting 
# from the CCDC's data processing and validation procedures.
#
#######################################################################

data_GUQCOL
_symmetry_cell_setting           triclinic
_symmetry_space_group_name_H-M   'P -1'
_symmetry_Int_Tables_number      2
_space_group_name_Hall           '-P 1'
loop_
_symmetry_equiv_pos_site_id
_symmetry_equiv_pos_as_xyz
1 x,y,z
2 -x,-y,-z
_cell_length_a                   11.474(3)
_cell_length_b                   12.057(4)
_cell_length_c                   12.378(3)
_cell_angle_alpha                66.419(14)
_cell_angle_beta                 63.323(15)
_cell_angle_gamma                75.348(17)
_cell_volume                     1396.71
loop_
_atom_site_label
_atom_site_type_symbol
_atom_site_fract_x
_atom_site_fract_y
_atom_site_fract_z
W1 W 0.82344(12) -0.13212(11) 0.44843(12)
W2 W 0.58196(14) -0.30191(11) 0.50094(13)
W3 W 0.75280(13) 0.09850(13) 0.19432(12)
W4 W 0.57004(13) -0.23100(11) 0.75634(12)
W5 W 0.48593(13) 0.07256(15) 0.75522(12)
W6 W 0.74068(14) 0.17012(14) 0.44982(13)
Si1 Si 0.5000 0.0000 0.5000
Cu1 Cu 1.0119(5) 0.3733(4) 0.2276(4)
Cu2 Cu 1.0145(4) 0.6499(4) 0.0371(4)
O1 O 0.588(3) -0.120(3) 0.542(3)
O2 O 0.655(3) 0.014(3) 0.421(3)
O3 O 0.462(4) -0.048(3) 0.653(4)
O4 O 0.473(4) -0.113(4) 0.462(4)
O5 O 0.730(3) -0.197(2) 0.634(2)
O6 O 0.750(2) -0.255(2) 0.443(2)
O7 O 0.973(2) -0.201(2) 0.428(2)
O8 O 0.836(4) 0.012(3) 0.470(3)
O9 O 0.848(4) -0.041(3) 0.274(4)
O10 O 0.623(3) -0.451(2) 0.505(3)
O11 O 0.561(3) -0.326(3) 0.669(3)
O12 O 0.397(3) -0.296(4) 0.559(3)
O13 O 0.5826(18) -0.2302(19) 0.3336(19)
O14 O 0.8754(18) 0.1384(19) 0.0488(19)
O15 O 0.677(3) -0.013(3) 0.168(4)
O16 O 0.386(3) -0.216(3) 0.829(4)
O17 O 0.777(2) 0.184(2) 0.277(2)
O18 O 0.603(2) -0.347(2) 0.879(2)
O19 O 0.5632(18) -0.0893(17) 0.7956(19)
O20 O 0.4806(18) 0.1096(17) 0.8776(19)
O21 O 0.6493(18) 0.1266(18) 0.6354(18)
O22 O 0.8561(18) 0.2527(18) 0.4232(18)
C1 C 1.109(4) 0.678(3) 0.216(3)
H1 H 1.1208 0.7608 0.1752
C2 C 1.114(3) 0.493(3) 0.343(3)
H2 H 1.1272 0.4250 0.4083
C3 C 1.273(4) 0.506(3) -0.074(4)
H3 H 1.3050 0.5045 -0.0164
C4 C 1.255(4) 0.479(3) -0.229(4)
H4 H 1.2727 0.4561 -0.2982
C5 C 0.856(3) 0.873(3) -0.042(3)
H5 H 0.8450 0.8984 0.0239
C6 C 0.856(3) 0.873(3) -0.218(3)
H6 H 0.8446 0.8976 -0.2948
N1 N 1.059(3) 0.492(2) 0.269(2)
N2 N 1.050(3) 0.614(2) 0.190(3)
N3 N 1.149(3) 0.604(3) 0.310(3)
N4 N 1.209(3) 0.644(3) 0.362(3)
H7 H 1.2225 0.7189 0.3345
H8 H 1.2327 0.5925 0.4225
N5 N 1.158(3) 0.556(2) -0.074(3)
N6 N 1.147(3) 0.537(2) -0.172(2)
N7 N 1.339(3) 0.456(3) -0.167(3)
N8 N 1.464(3) 0.396(3) -0.197(4)
H9 H 1.5087 0.3872 -0.1530
H10 H 1.4973 0.3679 -0.2593
N9 N 0.903(3) 0.764(2) -0.162(2)
N10 N 0.903(3) 0.764(2) -0.049(2)
N11 N 0.826(3) 0.943(3) -0.144(3)
N12 N 0.778(3) 1.065(3) -0.164(4)
H11 H 0.7661 1.0981 -0.1094
H12 H 0.7601 1.1063 -0.2302
W1A W 0.17656(12) 0.13212(11) 0.55157(12)
W2A W 0.41804(14) 0.30191(11) 0.49906(13)
W3A W 0.24720(13) -0.09850(13) 0.80568(12)
W4A W 0.42996(13) 0.23100(11) 0.24366(12)
W5A W 0.51407(13) -0.07256(15) 0.24478(12)
W6A W 0.25932(14) -0.17012(14) 0.55018(13)
Cu1A Cu -0.0119(5) -0.3733(4) 0.7724(4)
Cu1A_2 Cu 0.9881(5) 0.6267(4) -0.2276(4)
Cu2A Cu 0.9855(4) 0.3501(4) -0.0371(4)
O1A O 0.412(3) 0.120(3) 0.458(3)
O2A O 0.345(3) -0.014(3) 0.579(3)
O3A O 0.538(4) 0.048(3) 0.347(4)
O4A O 0.527(4) 0.113(4) 0.538(4)
O5A O 0.270(3) 0.197(2) 0.366(2)
O6A O 0.250(2) 0.255(2) 0.557(2)
O7A O 0.027(2) 0.201(2) 0.572(2)
O8A O 0.164(4) -0.012(3) 0.530(3)
O9A O 0.152(4) 0.041(3) 0.726(4)
O10A O 0.377(3) 0.451(2) 0.495(3)
O11A O 0.439(3) 0.326(3) 0.331(3)
O12A O 0.603(3) 0.296(4) 0.441(3)
O13A O 0.4174(18) 0.2302(19) 0.6664(19)
O14A O 0.1246(18) -0.1384(19) 0.9512(19)
O15A O 0.323(3) 0.013(3) 0.832(4)
O16A O 0.614(3) 0.216(3) 0.171(4)
O17A O 0.223(2) -0.184(2) 0.723(2)
O18A O 0.397(2) 0.347(2) 0.121(2)
O19A O 0.4368(18) 0.0893(17) 0.2044(19)
O20A O 0.5194(18) -0.1096(17) 0.1224(19)
O21A O 0.3507(18) -0.1266(18) 0.3646(18)
O22A O 0.1439(18) -0.2527(18) 0.5768(18)
C1A C 0.891(4) 0.322(3) -0.216(3)
H1A H 0.8792 0.2392 -0.1752
C2A C 0.886(3) 0.507(3) -0.343(3)
H2A H 0.8728 0.5750 -0.4083
C3A C 0.727(4) 0.494(3) 0.074(4)
H3A H 0.6950 0.4955 0.0164
C4A C 0.745(4) 0.521(3) 0.229(4)
H4A H 0.7273 0.5439 0.2982
C5A C 1.144(3) 0.127(3) 0.042(3)
H5A H 1.1550 0.1016 -0.0239
C6A C 1.144(3) 0.127(3) 0.218(3)
H6A H 1.1554 0.1024 0.2948
N1A N 0.941(3) 0.508(2) -0.269(2)
N1A_2 N -0.059(3) -0.492(2) 0.731(2)
N2A N 0.950(3) 0.386(2) -0.190(3)
N3A N 0.851(3) 0.396(3) -0.310(3)
N4A N 0.791(3) 0.356(3) -0.362(3)
H7A H 0.7775 0.2811 -0.3345
H8A H 0.7673 0.4075 -0.4225
N5A N 0.842(3) 0.444(2) 0.074(3)
N6A N 0.853(3) 0.463(2) 0.172(2)
N6_2 N 0.147(3) -0.463(2) 0.828(2)
N7A N 0.661(3) 0.544(3) 0.167(3)
N8A N 0.536(3) 0.604(3) 0.197(4)
H9A H 0.4913 0.6128 0.1530
H10A H 0.5027 0.6321 0.2593
N9A N 1.097(3) 0.236(2) 0.162(2)
N9_2 N -0.097(3) -0.236(2) 0.838(2)
N10A N 1.097(3) 0.236(2) 0.049(2)
N11A N 1.174(3) 0.057(3) 0.144(3)
N12A N 1.222(3) -0.065(3) 0.164(4)
H11A H 1.2339 -0.0981 0.1094
H12A H 1.2399 -0.1063 0.2302
loop_
_geom_bond_atom_site_label_1
_geom_bond_atom_site_label_2
_geom_bond_site_symmetry_1
_geom_bond_site_symmetry_2
W1 O1 1_555 1_555
W2 O1 1_555 1_555
W3 O2 1_555 1_555
W4 O1 1_555 1_555
W5 O3 1_555 1_555
W6 O8 1_555 1_555
Si1 O1 1_555 1_555
Cu1 O22 1_555 1_555
Cu2 N2 1_555 1_555
O1 O2 1_555 1_555
O2 W1 1_555 1_555
O3 W4 1_555 1_555
O4 W2 1_555 1_555
O5 W1 1_555 1_555
O6 W1 1_555 1_555
O7 W1 1_555 1_555
O8 W1 1_555 1_555
O9 W1 1_555 1_555
O10 W2 1_555 1_555
O11 W2 1_555 1_555
O12 W2 1_555 1_555
O13 W2 1_555 1_555
O14 W3 1_555 1_555
O15 W3 1_555 1_555
O16 W4 1_555 1_555
O17 W3 1_555 1_555
O18 W4 1_555 1_555
O19 W4 1_555 1_555
O20 W5 1_555 1_555
O21 W5 1_555 1_555
O22 W6 1_555 1_555
C1 H1 1_555 1_555
C2 H2 1_555 1_555
C3 H3 1_555 1_555
C4 H4 1_555 1_555
C5 H5 1_555 1_555
C6 H6 1_555 1_555
N1 Cu1 1_555 1_555
N2 C1 1_555 1_555
N3 C1 1_555 1_555
N4 N3 1_555 1_555
H7 N4 1_555 1_555
H8 N4 1_555 1_555
N5 Cu2 1_555 1_555
N6 C4 1_555 1_555
N7 C3 1_555 1_555
N8 N7 1_555 1_555
H9 N8 1_555 1_555
H10 N8 1_555 1_555
N9 C6 1_555 1_555
N10 Cu2 1_555 1_555
N11 C5 1_555 1_555
N12 N11 1_555 1_555
H11 N12 1_555 1_555
H12 N12 1_555 1_555
W1A O1A 1_555 1_555
W2A O1A 1_555 1_555
W3A O3 1_555 1_555
W4A O1A 1_555 1_555
W5A O4 1_555 1_555
W6A O4 1_555 1_555
Cu1A O22A 1_555 1_555
Cu1A_2 N6 1_555 1_555
Cu2A N2A 1_555 1_555
O1A Si1 1_555 1_555
O2A Si1 1_555 1_555
O3A W3 1_555 1_555
O4A W5 1_555 1_555
O5A W1A 1_555 1_555
O6A W1A 1_555 1_555
O7A W1A 1_555 1_555
O8A W1A 1_555 1_555
O9A W1A 1_555 1_555
O10A W2A 1_555 1_555
O11A W2A 1_555 1_555
O12A W6 1_555 1_555
O13A W5 1_555 1_555
O14A W3A 1_555 1_555
O15A W5 1_555 1_555
O16A W3 1_555 1_555
O17A W3A 1_555 1_555
O18A W4A 1_555 1_555
O19A W4A 1_555 1_555
O20A W5A 1_555 1_555
O21A W5A 1_555 1_555
O22A W6A 1_555 1_555
C1A H1A 1_555 1_555
C2A H2A 1_555 1_555
C3A H3A 1_555 1_555
C4A H4A 1_555 1_555
C5A H5A 1_555 1_555
C6A H6A 1_555 1_555
N1A Cu1A_2 1_555 1_555
N1A_2 Cu1A 1_555 1_555
N2A C1A 1_555 1_555
N3A C1A 1_555 1_555
N4A N3A 1_555 1_555
H7A N4A 1_555 1_555
H8A N4A 1_555 1_555
N5A Cu2A 1_555 1_555
N6A Cu1 1_555 1_555
N6_2 Cu1A 1_555 1_555
N7A C3A 1_555 1_555
N8A N7A 1_555 1_555
H9A N8A 1_555 1_555
H10A N8A 1_555 1_555
N9A Cu1 1_555 1_555
N9_2 Cu1A 1_555 1_555
N10A Cu2A 1_555 1_555
N11A C5A 1_555 1_555
N12A N11A 1_555 1_555
H11A N12A 1_555 1_555
H12A N12A 1_555 1_555
W2 O6 1_555 1_555
W3 O9 1_555 1_555
W4 O5 1_555 1_555
W4 O11 1_555 1_555
W5 O19 1_555 1_555
W6 O17 1_555 1_555
W6 O21 1_555 1_555
W6 O4A 1_555 1_555
Si1 O2 1_555 1_555
Si1 O3 1_555 1_555
Si1 O4 1_555 1_555
Si1 O3A 1_555 1_555
Si1 O4A 1_555 1_555
O1 O3 1_555 1_555
O2 O3A 1_555 1_555
O3 O2A 1_555 1_555
O12 W6A 1_555 1_555
O13 W5A 1_555 1_555
O15 W5A 1_555 1_555
O16 W3A 1_555 1_555
C2 N1 1_555 1_555
C2 N3 1_555 1_555
C3 N5 1_555 1_555
C4 N7 1_555 1_555
C5 N10 1_555 1_555
C6 N11 1_555 1_555
N1 N2 1_555 1_555
N5 N6 1_555 1_555
N9 N10 1_555 1_555
N9 Cu1A_2 1_555 1_555
W1A O2A 1_555 1_555
W2A O4A 1_555 1_555
W2A O6A 1_555 1_555
W2A O12A 1_555 1_555
W2A O13A 1_555 1_555
W3A O2A 1_555 1_555
W3A O9A 1_555 1_555
W3A O15A 1_555 1_555
W4A O3A 1_555 1_555
W4A O5A 1_555 1_555
W4A O11A 1_555 1_555
W4A O16A 1_555 1_555
W5A O3A 1_555 1_555
W5A O19A 1_555 1_555
W6A O8A 1_555 1_555
W6A O17A 1_555 1_555
W6A O21A 1_555 1_555
O1A O2A 1_555 1_555
O1A O3A 1_555 1_555
C2A N1A 1_555 1_555
C2A N3A 1_555 1_555
C3A N5A 1_555 1_555
C4A N6A 1_555 1_555
C4A N7A 1_555 1_555
C5A N10A 1_555 1_555
C6A N9A 1_555 1_555
C6A N11A 1_555 1_555
N1A N2A 1_555 1_555
N5A N6A 1_555 1_555
N9A N10A 1_555 1_555

#END
