
#######################################################################
#
#                 Cambridge Crystallographic Data Centre
#                                CCDC 
#
#######################################################################
#
# If this CIF has been generated from an entry in the Cambridge 
# Structural Database, then it will include bibliographic, chemical, 
# crystal, experimental, refinement or atomic coordinate data resulting 
# from the CCDC's data processing and validation procedures.
#
#######################################################################

data_GUQNAI
_symmetry_cell_setting           orthorhombic
_symmetry_space_group_name_H-M   'P 21 21 21'
_symmetry_Int_Tables_number      19
_space_group_name_Hall           'P 2ac 2ab'
loop_
_symmetry_equiv_pos_site_id
_symmetry_equiv_pos_as_xyz
1 x,y,z
2 1/2-x,-y,1/2+z
3 -x,1/2+y,1/2-z
4 1/2+x,1/2-y,-z
_cell_length_a                   8.2676(8)
_cell_length_b                   11.1516(11)
_cell_length_c                   11.2300(11)
_cell_angle_alpha                90
_cell_angle_beta                 90
_cell_angle_gamma                90
_cell_volume                     1035.37
loop_
_atom_site_label
_atom_site_type_symbol
_atom_site_fract_x
_atom_site_fract_y
_atom_site_fract_z
Zn1 Zn 0.88003(6) 0.62215(4) 0.35662(5)
S1 S 0.89618(15) 0.69803(11) 0.00064(11)
S2 S 0.69413(14) 0.71247(11) 0.22602(11)
S3 S 0.75819(14) 0.96483(11) 0.40728(12)
S4 S 0.99484(15) 0.76503(10) 0.47862(11)
N1 N 1.0365(5) 0.9368(3) 0.3108(4)
N2 N 0.6627(5) 0.5552(3) 0.0462(3)
N3 N 0.7228(5) 0.5209(3) -0.0633(3)
N4 N 0.9646(4) 1.0324(3) 0.2530(4)
N5 N 0.7257(5) 1.1450(4) 0.2466(4)
H1 H 0.7621 1.1898 0.1903
H2 H 0.6303 1.1569 0.2746
N6 N 0.9189(6) 0.5749(4) -0.2061(4)
H3 H 0.8884 0.5194 -0.2542
H4 H 0.9972 0.6218 -0.2254
C1 C 0.9449(5) 0.8910(4) 0.3912(4)
C2 C 0.8172(6) 1.0572(4) 0.2904(4)
C3 C 0.7399(5) 0.6449(4) 0.0905(4)
C4 C 0.8441(6) 0.5885(4) -0.1006(4)
Zn1A Zn 0.61997(6) 0.37785(4) -0.14338(5)
Zn1B Zn 1.11997(6) 1.12215(4) 0.14338(5)
N3A N 0.7772(5) 0.4791(3) 0.4367(3)
N4B N 1.0354(4) 0.5324(3) 0.2470(4)
loop_
_geom_bond_atom_site_label_1
_geom_bond_atom_site_label_2
_geom_bond_site_symmetry_1
_geom_bond_site_symmetry_2
Zn1 S2 1_555 1_555
S1 C3 1_555 1_555
S2 C3 1_555 1_555
S3 C1 1_555 1_555
S4 Zn1 1_555 1_555
N1 N4 1_555 1_555
N2 N3 1_555 1_555
N3 C4 1_555 1_555
N4 C2 1_555 1_555
N5 H1 1_555 1_555
H2 N5 1_555 1_555
N6 H3 1_555 1_555
H4 N6 1_555 1_555
C1 S4 1_555 1_555
C2 S3 1_555 1_555
C3 N2 1_555 1_555
C4 S1 1_555 1_555
Zn1A N3 1_555 1_555
Zn1B N4 1_555 1_555
N3A Zn1 1_555 1_555
N4B Zn1 1_555 1_555
N1 C1 1_555 1_555
N5 C2 1_555 1_555
N6 C4 1_555 1_555

#END
