
#######################################################################
#
#                 Cambridge Crystallographic Data Centre
#                                CCDC 
#
#######################################################################
#
# If this CIF has been generated from an entry in the Cambridge 
# Structural Database, then it will include bibliographic, chemical, 
# crystal, experimental, refinement or atomic coordinate data resulting 
# from the CCDC's data processing and validation procedures.
#
#######################################################################

data_GUQXIZ02
_symmetry_cell_setting           monoclinic
_symmetry_space_group_name_H-M   'C 2/c'
_symmetry_Int_Tables_number      15
_space_group_name_Hall           '-C 2yn'
loop_
_symmetry_equiv_pos_site_id
_symmetry_equiv_pos_as_xyz
1 x,y,z
2 1/2+x,1/2+y,z
3 -x,y,1/2-z
4 1/2-x,1/2+y,1/2-z
5 -x,-y,-z
6 1/2-x,1/2-y,-z
7 x,-y,1/2+z
8 1/2+x,1/2-y,1/2+z
_cell_length_a                   19.753(6)
_cell_length_b                   9.051(10)
_cell_length_c                   13.414(13)
_cell_angle_alpha                90
_cell_angle_beta                 118.06(3)
_cell_angle_gamma                90
_cell_volume                     2116.32
loop_
_atom_site_label
_atom_site_type_symbol
_atom_site_fract_x
_atom_site_fract_y
_atom_site_fract_z
Cd1 Cd 0.811914(10) -0.09680(2) 0.193628(16)
O1 O 0.88974(14) 0.1034(2) 0.2749(2)
O2 O 1.00846(12) 0.0216(2) 0.3860(2)
O3 O 1.22015(13) 0.3914(2) 0.5886(2)
O4 O 1.18725(11) 0.6244(2) 0.57043(17)
O5 O 0.92487(11) 0.7868(2) 0.30685(18)
O6 O 0.83497(11) 0.6263(2) 0.21264(17)
O7 O 0.77938(14) -0.0933(2) 0.3439(2)
O8 O 0.84054(15) -0.1163(3) 0.0454(2)
C1 C 0.98801(14) 0.2769(3) 0.3667(2)
C2 C 1.06493(13) 0.3079(3) 0.4394(2)
H1 H 1.0998 0.2314 0.4727
C3 C 1.08892(14) 0.4532(3) 0.4616(2)
C4 C 1.03623(14) 0.5659(3) 0.4108(2)
H2 H 1.0523 0.6637 0.4266
C5 C 0.95969(13) 0.5352(3) 0.3366(2)
C6 C 0.93637(15) 0.3897(3) 0.3159(2)
H3 H 0.8853 0.3676 0.2672
C7 C 0.95787(16) 0.1257(3) 0.3388(2)
C8 C 1.17091(14) 0.4899(3) 0.5446(2)
C9 C 0.90247(14) 0.6550(3) 0.2815(2)
H4 H 0.986(2) -0.066(2) 0.367(3)
H5 H 0.832(3) -0.205(2) 0.013(3)
H6 H 0.746(2) -0.021(4) 0.330(4)
H7 H 0.770(2) -0.1841(19) 0.358(3)
H8 H 0.822(3) -0.049(5) -0.008(4)
O3G O 0.72015(13) 0.1086(2) 0.0886(2)
O4G O 0.68725(11) -0.1244(2) 0.07043(17)
O5_2 O 0.92487(11) -0.2132(2) 0.30685(18)
O6_2 O 0.83497(11) -0.3737(2) 0.21264(17)
Cd1G Cd 1.311914(10) 0.59680(2) 0.693628(16)
Cd1_2 Cd 0.811914(10) 0.90320(2) 0.193628(16)
loop_
_geom_bond_atom_site_label_1
_geom_bond_atom_site_label_2
_geom_bond_site_symmetry_1
_geom_bond_site_symmetry_2
Cd1 O1 1_555 1_555
O1 C7 1_555 1_555
O2 C7 1_555 1_555
O3 C8 1_555 1_555
O4 C8 1_555 1_555
O5 C9 1_555 1_555
O6 C9 1_555 1_555
O7 Cd1 1_555 1_555
O8 Cd1 1_555 1_555
C1 C2 1_555 1_555
C2 H1 1_555 1_555
C3 C2 1_555 1_555
C4 C3 1_555 1_555
H2 C4 1_555 1_555
C5 C4 1_555 1_555
C6 C1 1_555 1_555
H3 C6 1_555 1_555
C7 C1 1_555 1_555
C8 C3 1_555 1_555
C9 C5 1_555 1_555
H4 O2 1_555 1_555
H5 O8 1_555 1_555
H6 O7 1_555 1_555
H7 O7 1_555 1_555
H8 O8 1_555 1_555
O3G Cd1 1_555 1_555
O4G Cd1 1_555 1_555
O5_2 Cd1 1_555 1_555
O6_2 Cd1 1_555 1_555
Cd1G O3 1_555 1_555
Cd1_2 O5 1_555 1_555
O4 Cd1G 1_555 1_555
O6 Cd1_2 1_555 1_555
C5 C6 1_555 1_555

#END
