
#######################################################################
#
#                 Cambridge Crystallographic Data Centre
#                                CCDC 
#
#######################################################################
#
# If this CIF has been generated from an entry in the Cambridge 
# Structural Database, then it will include bibliographic, chemical, 
# crystal, experimental, refinement or atomic coordinate data resulting 
# from the CCDC's data processing and validation procedures.
#
#######################################################################

data_GUQXIZ
_symmetry_cell_setting           monoclinic
_symmetry_space_group_name_H-M   'C 2/c'
_symmetry_Int_Tables_number      15
_space_group_name_Hall           '-C 2yn'
loop_
_symmetry_equiv_pos_site_id
_symmetry_equiv_pos_as_xyz
1 x,y,z
2 1/2+x,1/2+y,z
3 -x,y,1/2-z
4 1/2-x,1/2+y,1/2-z
5 -x,-y,-z
6 1/2-x,1/2-y,-z
7 x,-y,1/2+z
8 1/2+x,1/2-y,1/2+z
_cell_length_a                   19.7328(9)
_cell_length_b                   9.1088(4)
_cell_length_c                   13.3636(6)
_cell_angle_alpha                90
_cell_angle_beta                 117.8840(10)
_cell_angle_gamma                90
_cell_volume                     2123.12
loop_
_atom_site_label
_atom_site_type_symbol
_atom_site_fract_x
_atom_site_fract_y
_atom_site_fract_z
Cd1 Cd 0.687943(8) 0.596639(15) 0.306263(13)
O1 O 0.57508(9) 0.71297(17) 0.19291(15)
O2 O 0.66510(10) 0.87374(18) 0.28706(15)
C1 C 0.59721(11) 0.8448(2) 0.21845(17)
C2 C 0.54019(11) 0.9647(2) 0.16342(16)
C3 C 0.56389(11) 1.1099(2) 0.18466(17)
H1 H 0.6149 1.1316 0.2336
C4 C 0.51184(11) 1.2232(2) 0.13320(17)
O3 O 0.61022(11) 1.39649(16) 0.22526(19)
O4 O 0.49129(10) 1.47841(19) 0.11398(18)
H2 H 0.513(2) 1.570(3) 0.133(3)
C5 C 0.54226(12) 1.3750(2) 0.16124(19)
C6 C 0.43503(11) 1.1925(2) 0.06043(16)
H3 H 0.4002 1.2686 0.0272
C7 C 0.41071(11) 1.0468(2) 0.03777(16)
C8 C 0.32913(11) 1.0101(2) -0.04461(16)
O5 O 0.27966(10) 1.10853(18) -0.08861(17)
O6 O 0.31282(10) 0.87555(18) -0.07048(14)
C9 C 0.46349(11) 0.9333(2) 0.08902(16)
H4 H 0.4474 0.8362 0.0735
O7 O 0.72039(12) 0.5924(2) 0.15562(19)
H5 H 0.751(3) 0.539(5) 0.170(3)
H6 H 0.725(3) 0.659(5) 0.146(3)
O8 O 0.65948(14) 0.6168(2) 0.4548(2)
H7 H 0.668(2) 0.693(5) 0.485(3)
H8 H 0.672(3) 0.562(5) 0.492(4)
O3_2 O 0.61022(11) 0.39649(16) 0.22526(19)
O5G O 0.77966(10) 0.39147(18) 0.41139(17)
O6G O 0.81282(10) 0.62445(18) 0.42952(14)
Cd1_2 Cd 0.687943(8) 1.596639(15) 0.306263(13)
Cd1G Cd 0.187943(8) 0.903361(15) -0.193737(13)
loop_
_geom_bond_atom_site_label_1
_geom_bond_atom_site_label_2
_geom_bond_site_symmetry_1
_geom_bond_site_symmetry_2
Cd1 O1 1_555 1_555
O1 C1 1_555 1_555
O2 Cd1 1_555 1_555
C1 O2 1_555 1_555
C2 C1 1_555 1_555
C3 C2 1_555 1_555
H1 C3 1_555 1_555
C4 C3 1_555 1_555
O3 C5 1_555 1_555
O4 H2 1_555 1_555
C5 C4 1_555 1_555
C6 C4 1_555 1_555
H3 C6 1_555 1_555
C7 C6 1_555 1_555
C8 C7 1_555 1_555
O5 C8 1_555 1_555
O6 C8 1_555 1_555
C9 C2 1_555 1_555
H4 C9 1_555 1_555
O7 Cd1 1_555 1_555
H5 O7 1_555 1_555
H6 O7 1_555 1_555
O8 Cd1 1_555 1_555
H7 O8 1_555 1_555
H8 O8 1_555 1_555
O3_2 Cd1 1_555 1_555
O5G Cd1 1_555 1_555
O6G Cd1 1_555 1_555
Cd1_2 O3 1_555 1_555
Cd1G O5 1_555 1_555
O4 C5 1_555 1_555
C7 C9 1_555 1_555
O6 Cd1G 1_555 1_555

#END
