
#######################################################################
#
#                 Cambridge Crystallographic Data Centre
#                                CCDC 
#
#######################################################################
#
# If this CIF has been generated from an entry in the Cambridge 
# Structural Database, then it will include bibliographic, chemical, 
# crystal, experimental, refinement or atomic coordinate data resulting 
# from the CCDC's data processing and validation procedures.
#
#######################################################################

data_GUQXIZ01
_symmetry_cell_setting           monoclinic
_symmetry_space_group_name_H-M   'C 2/c'
_symmetry_Int_Tables_number      15
_space_group_name_Hall           '-C 2yn'
loop_
_symmetry_equiv_pos_site_id
_symmetry_equiv_pos_as_xyz
1 x,y,z
2 -x,y,1/2-z
3 1/2+x,1/2+y,z
4 1/2-x,1/2+y,1/2-z
5 -x,-y,-z
6 x,-y,1/2+z
7 1/2-x,1/2-y,-z
8 1/2+x,1/2-y,1/2+z
_cell_length_a                   19.7072(4)
_cell_length_b                   9.1000(2)
_cell_length_c                   13.3441(3)
_cell_angle_alpha                90
_cell_angle_beta                 117.8760(15)
_cell_angle_gamma                90
_cell_volume                     2115.38
loop_
_atom_site_label
_atom_site_type_symbol
_atom_site_fract_x
_atom_site_fract_y
_atom_site_fract_z
Cd1 Cd 0.312121(11) 0.40339(2) 0.193836(16)
O1 O 0.18712(13) 0.3758(3) 0.07044(18)
O2 O 0.22075(16) 0.6082(2) 0.0887(2)
O3 O -0.11016(16) 0.8969(2) -0.2250(3)
O4 O -0.16492(13) 0.3739(2) -0.28706(18)
O5 O -0.07487(13) 0.2133(2) -0.19272(18)
O6 O 0.00894(12) 0.9784(2) -0.1137(2)
O7 O 0.27903(17) 0.4068(2) 0.3442(2)
O8 O 0.34032(17) 0.3832(3) 0.0448(2)
C1 C 0.08958(15) 0.5467(3) -0.0377(2)
C2 C 0.03645(15) 0.4336(3) -0.0892(2)
C3 C -0.04028(15) 0.4650(3) -0.1634(2)
C4 C -0.06378(17) 0.6095(3) -0.1843(2)
C5 C -0.01223(15) 0.7232(3) -0.1336(2)
C6 C 0.06512(15) 0.6932(3) -0.0605(2)
C7 C 0.17099(15) 0.5100(3) 0.0448(2)
C8 C -0.09719(15) 0.3446(3) -0.2184(2)
C9 C -0.04213(17) 0.8754(3) -0.1611(2)
H1 H 0.0547 0.3332 -0.0710
H2 H -0.1197 0.6459 -0.2332
H3 H 0.1018 0.7698 -0.0270
H4 H -0.0094 1.0788 -0.1333
O3G O 0.38984(16) 0.6031(2) 0.2750(3)
O4G O 0.33508(13) 0.1261(2) 0.21294(18)
O5G O 0.42513(13) 0.2867(2) 0.30728(18)
Cd1G Cd -0.187879(11) 1.09661(2) -0.306164(16)
Cd1G_2 Cd -0.187879(11) 0.09661(2) -0.306164(16)
loop_
_geom_bond_atom_site_label_1
_geom_bond_atom_site_label_2
_geom_bond_site_symmetry_1
_geom_bond_site_symmetry_2
Cd1 O1 1_555 1_555
O1 C7 1_555 1_555
O2 Cd1 1_555 1_555
O3 C9 1_555 1_555
O4 C8 1_555 1_555
O5 C8 1_555 1_555
O6 C9 1_555 1_555
O7 Cd1 1_555 1_555
O8 Cd1 1_555 1_555
C1 C2 1_555 1_555
C2 C3 1_555 1_555
C3 C4 1_555 1_555
C4 C5 1_555 1_555
C5 C6 1_555 1_555
C6 C1 1_555 1_555
C7 O2 1_555 1_555
C8 C3 1_555 1_555
C9 C5 1_555 1_555
H1 C2 1_555 1_555
H2 C4 1_555 1_555
H3 C6 1_555 1_555
H4 O6 1_555 1_555
O3G Cd1 1_555 1_555
O4G Cd1 1_555 1_555
O5G Cd1 1_555 1_555
Cd1G O3 1_555 1_555
Cd1G_2 O4 1_555 1_555
O5 Cd1G_2 1_555 1_555
C1 C7 1_555 1_555

#END
