
#######################################################################
#
#                 Cambridge Crystallographic Data Centre
#                                CCDC 
#
#######################################################################
#
# If this CIF has been generated from an entry in the Cambridge 
# Structural Database, then it will include bibliographic, chemical, 
# crystal, experimental, refinement or atomic coordinate data resulting 
# from the CCDC's data processing and validation procedures.
#
#######################################################################

data_GURVEV
_symmetry_cell_setting           orthorhombic
_symmetry_space_group_name_H-M   'P 21 21 2'
_symmetry_Int_Tables_number      18
_space_group_name_Hall           'P 2 2ab'
loop_
_symmetry_equiv_pos_site_id
_symmetry_equiv_pos_as_xyz
1 x,y,z
2 -x,-y,z
3 1/2+x,1/2-y,-z
4 1/2-x,1/2+y,-z
_cell_length_a                   14.3920(4)
_cell_length_b                   25.2960(9)
_cell_length_c                   6.9590(16)
_cell_angle_alpha                90
_cell_angle_beta                 90
_cell_angle_gamma                90
_cell_volume                     2533.49
loop_
_atom_site_label
_atom_site_type_symbol
_atom_site_fract_x
_atom_site_fract_y
_atom_site_fract_z
Cd1 Cd 0.15408(3) 0.156191(17) 0.23937(6)
C1 C 0.3652(5) 0.1698(3) 0.4024(9)
H1 H 0.3923 0.1572 0.2900
C2 C 0.4097(5) 0.1879(3) 0.5534(10)
H2 H 0.4740 0.1893 0.5653
C3 C 0.2641(5) 0.1910(3) 0.6211(10)
H3 H 0.2092 0.1943 0.6906
C4 C 0.3709(6) 0.2256(5) 0.8837(10)
H4 H 0.3242 0.2127 0.9725
H5 H 0.4304 0.2117 0.9252
C5 C 0.3738(7) 0.2781(4) 0.8966(12)
H6 H 0.3148 0.2929 0.8559
H7 H 0.4219 0.2918 0.8126
C6 C 0.3945(7) 0.2950(4) 1.1111(15)
H8 H 0.3397 0.2898 1.1898
H9 H 0.4445 0.2736 1.1633
C7 C 0.4204(9) 0.3492(6) 1.1118(17)
H10 H 0.3702 0.3711 1.0641
H11 H 0.4749 0.3549 1.0325
C8 C 0.5177(6) 0.3412(5) 1.4142(15)
H12 H 0.5539 0.3141 1.3636
C9 C 0.4677(7) 0.4031(3) 1.5892(12)
H13 H 0.4620 0.4275 1.6886
C10 C 0.4120(8) 0.4010(5) 1.4327(17)
H14 H 0.3620 0.4231 1.4061
C11 C 0.3760(4) -0.2380(3) -1.1261(11)
C12 C 0.3784(5) -0.1851(3) -1.0348(11)
C13 C 0.3886(8) -0.1819(5) -0.8420(15)
H15 H 0.3890 -0.2135 -0.7739
C14 C 0.3983(12) -0.1364(9) -0.738(2)
H16 H 0.4162 -0.1357 -0.6100
C15 C 0.3778(12) -0.0890(9) -0.850(3)
C16 C 0.3647(13) -0.0903(5) -1.044(3)
H17 H 0.3554 -0.0596 -1.1143
C17 C 0.3660(7) -0.1406(3) -1.1336(14)
H18 H 0.3579 -0.1426 -1.2660
C18 C 0.3167(18) -0.0097(5) -0.7475(16)
H19 H 0.2692 -0.0365 -0.7658
H20 H 0.3060 0.0166 -0.8465
C19 C 0.2922(15) 0.0167(4) -0.5659(16)
C20 C 0.3584(10) 0.0378(4) -0.4408(16)
H21 H 0.4210 0.0370 -0.4735
C21 C 0.3305(8) 0.0604(3) -0.2661(15)
H22 H 0.3739 0.0724 -0.1773
C22 C 0.2371(7) 0.0640(3) -0.2306(11)
C23 C 0.1726(8) 0.0429(3) -0.3613(10)
H23 H 0.1094 0.0426 -0.3336
C24 C 0.2058(13) 0.0229(4) -0.5306(15)
H24 H 0.1632 0.0133 -0.6249
C25 C 0.2030(6) 0.0907(3) -0.0472(11)
N1 N 0.2703(4) 0.1726(2) 0.4404(7)
N2 N 0.3498(4) 0.2039(3) 0.6870(8)
N3 N 0.5334(4) 0.3643(3) 1.5799(9)
N4 N 0.4417(5) 0.3620(3) 1.3260(12)
O1 O 0.3688(3) -0.2785(2) -1.0242(9)
O2 O 0.3814(4) -0.2412(2) -1.3088(8)
O3 O 0.2608(4) 0.1151(3) 0.0472(8)
O4 O 0.1192(4) 0.0897(2) -0.0101(9)
O5 O 0.3847(14) -0.0298(9) -0.789(3)
Cd1B Cd 0.65408(3) 0.343809(17) 1.76063(6)
Cd1C Cd 0.34592(3) -0.343809(17) -1.23937(6)
N3B N 0.0334(4) 0.1357(3) 0.4201(9)
O1C O 0.1312(3) 0.2215(2) 0.0242(9)
O2C O 0.1186(4) 0.2588(2) 0.3088(8)
loop_
_geom_bond_atom_site_label_1
_geom_bond_atom_site_label_2
_geom_bond_site_symmetry_1
_geom_bond_site_symmetry_2
Cd1 N1 1_555 1_555
C1 H1 1_555 1_555
C2 C1 1_555 1_555
H2 C2 1_555 1_555
C3 H3 1_555 1_555
C4 H4 1_555 1_555
H5 C4 1_555 1_555
C5 C4 1_555 1_555
H6 C5 1_555 1_555
H7 C5 1_555 1_555
C6 C5 1_555 1_555
H8 C6 1_555 1_555
H9 C6 1_555 1_555
C7 C6 1_555 1_555
H10 C7 1_555 1_555
H11 C7 1_555 1_555
C8 H12 1_555 1_555
C9 H13 1_555 1_555
C10 C9 1_555 1_555
H14 C10 1_555 1_555
C11 C12 1_555 1_555
C12 C13 1_555 1_555
C13 H15 1_555 1_555
C14 C13 1_555 1_555
H16 C14 1_555 1_555
C15 C14 1_555 1_555
C16 C15 1_555 1_555
H17 C16 1_555 1_555
C17 C12 1_555 1_555
H18 C17 1_555 1_555
C18 H19 1_555 1_555
H20 C18 1_555 1_555
C19 C18 1_555 1_555
C20 C19 1_555 1_555
H21 C20 1_555 1_555
C21 C20 1_555 1_555
H22 C21 1_555 1_555
C22 C21 1_555 1_555
C23 C22 1_555 1_555
H23 C23 1_555 1_555
C24 C19 1_555 1_555
H24 C24 1_555 1_555
C25 C22 1_555 1_555
N1 C1 1_555 1_555
N2 C2 1_555 1_555
N3 C8 1_555 1_555
N4 C7 1_555 1_555
O1 C11 1_555 1_555
O2 C11 1_555 1_555
O3 Cd1 1_555 1_555
O4 Cd1 1_555 1_555
O5 C15 1_555 1_555
Cd1B N3 1_555 1_555
Cd1C O1 1_555 1_555
N3B Cd1 1_555 1_555
O1C Cd1 1_555 1_555
O2C Cd1 1_555 1_555
C3 N1 1_555 1_555
C3 N2 1_555 1_555
C4 N2 1_555 1_555
C8 N4 1_555 1_555
C9 N3 1_555 1_555
C10 N4 1_555 1_555
C16 C17 1_555 1_555
C18 O5 1_555 1_555
C23 C24 1_555 1_555
C25 O3 1_555 1_555
C25 O4 1_555 1_555
O2 Cd1C 1_555 1_555

#END
