
#######################################################################
#
#                 Cambridge Crystallographic Data Centre
#                                CCDC 
#
#######################################################################
#
# If this CIF has been generated from an entry in the Cambridge 
# Structural Database, then it will include bibliographic, chemical, 
# crystal, experimental, refinement or atomic coordinate data resulting 
# from the CCDC's data processing and validation procedures.
#
#######################################################################

data_GURWIA
_symmetry_cell_setting           monoclinic
_symmetry_space_group_name_H-M   'C 2/c'
_symmetry_Int_Tables_number      15
_space_group_name_Hall           '-C 2yn'
loop_
_symmetry_equiv_pos_site_id
_symmetry_equiv_pos_as_xyz
1 x,y,z
2 -x,y,1/2-z
3 1/2+x,1/2+y,z
4 1/2-x,1/2+y,1/2-z
5 -x,-y,-z
6 x,-y,1/2+z
7 1/2-x,1/2-y,-z
8 1/2+x,1/2-y,1/2+z
_cell_length_a                   22.988(8)
_cell_length_b                   10.986(4)
_cell_length_c                   18.298(7)
_cell_angle_alpha                90
_cell_angle_beta                 111.342(6)
_cell_angle_gamma                90
_cell_volume                     4304.2
loop_
_atom_site_label
_atom_site_type_symbol
_atom_site_fract_x
_atom_site_fract_y
_atom_site_fract_z
Cd1 Cd 0.122791(14) 0.77231(3) 0.224510(19)
S1 S 0.10952(6) 1.47184(11) 0.21657(7)
O1 O 0.12794(18) 0.9908(3) 0.2127(2)
O2 O 0.08884(17) 0.9158(3) 0.2954(2)
O3 O 0.0476(2) 1.0557(4) 0.3781(3)
H1 H 0.0571 0.9911 0.3629
O4 O 0.10323(17) 1.5812(3) 0.2604(2)
O5 O 0.0619(2) 1.4686(4) 0.1393(2)
O6 O 0.17185(18) 1.4574(4) 0.2179(3)
N1 N 0.02343(19) 0.7700(4) 0.1233(2)
N2 N -0.2809(2) 0.7400(4) -0.1683(3)
N3 N 0.1735(2) 0.7519(4) 0.1365(3)
C1 C 0.1041(2) 1.0066(4) 0.2627(3)
C2 C 0.0917(2) 1.1304(4) 0.2857(3)
C3 C 0.0642(2) 1.1494(5) 0.3418(3)
C4 C 0.0520(3) 1.2664(4) 0.3598(4)
H2 H 0.0334 1.2782 0.3967
C5 C 0.0666(3) 1.3656(4) 0.3243(3)
H3 H 0.0582 1.4438 0.3372
C6 C 0.0940(2) 1.3484(4) 0.2693(3)
C7 C 0.1066(2) 1.2323(4) 0.2506(3)
H4 H 0.1254 1.2217 0.2138
C8 C -0.0229(2) 0.7114(5) 0.1362(3)
H5 H -0.0142 0.6719 0.1839
C9 C -0.0832(2) 0.7071(5) 0.0816(3)
H6 H -0.1142 0.6666 0.0935
C10 C -0.0976(2) 0.7628(4) 0.0093(3)
C11 C -0.0492(2) 0.8242(5) -0.0046(3)
H7 H -0.0563 0.8628 -0.0523
C12 C 0.0097(2) 0.8265(5) 0.0542(3)
H8 H 0.0412 0.8696 0.0451
C13 C -0.1614(2) 0.7575(4) -0.0507(3)
C14 C -0.2013(3) 0.6602(6) -0.0546(3)
H9 H -0.1888 0.5987 -0.0172
C15 C -0.2594(3) 0.6548(5) -0.1139(4)
H10 H -0.2848 0.5880 -0.1156
C16 C -0.2434(2) 0.8332(5) -0.1651(3)
H11 H -0.2575 0.8935 -0.2032
C17 C -0.1842(2) 0.8457(5) -0.1079(3)
H12 H -0.1599 0.9134 -0.1081
C18 C 0.1558(3) 0.6774(6) 0.0754(4)
H13 H 0.1228 0.6244 0.0689
C19 C 0.1842(3) 0.6752(6) 0.0213(3)
H14 H 0.1695 0.6225 -0.0213
C20 C 0.2343(2) 0.7497(5) 0.0288(3)
C21 C 0.2520(3) 0.8275(7) 0.0929(4)
H15 H 0.2848 0.8817 0.1008
C22 C 0.2211(2) 0.8246(5) 0.1448(3)
H16 H 0.2345 0.8766 0.1879
Cd1F Cd 0.377209(14) 0.72769(3) -0.224510(19)
Cd1_2 Cd 0.122791(14) 1.77231(3) 0.224510(19)
Cd1A Cd 0.877209(14) 0.77231(3) 0.275490(19)
Cd1F_2 Cd 0.377209(14) -0.27231(3) -0.224510(19)
Cd1G Cd -0.377209(14) 0.72769(3) -0.275490(19)
S1F S 0.39048(6) 0.02816(11) -0.21657(7)
O1F O 0.37206(18) 0.5092(3) -0.2127(2)
O2F O 0.41116(17) 0.5842(3) -0.2954(2)
O3F O 0.4524(2) 0.4443(4) -0.3781(3)
H1F H 0.4429 0.5089 -0.3629
O4F O 0.39677(17) -0.0812(3) -0.2604(2)
O4_2 O 0.10323(17) 0.5812(3) 0.2604(2)
O4F_2 O 0.39677(17) 0.9188(3) -0.2604(2)
O5F O 0.4381(2) 0.0314(4) -0.1393(2)
O6F O 0.32815(18) 0.0426(4) -0.2179(3)
N1F N 0.47657(19) 0.7300(4) -0.1233(2)
N2F N 0.7809(2) 0.7600(4) 0.1683(3)
N2A N 0.2809(2) 0.7400(4) -0.3317(3)
N2G N 0.2191(2) 0.7600(4) 0.3317(3)
N3F N 0.3265(2) 0.7481(4) -0.1365(3)
C1F C 0.3959(2) 0.4934(4) -0.2627(3)
C2F C 0.4083(2) 0.3696(4) -0.2857(3)
C3F C 0.4358(2) 0.3506(5) -0.3418(3)
C4F C 0.4480(3) 0.2336(4) -0.3598(4)
H2F H 0.4666 0.2218 -0.3967
C5F C 0.4334(3) 0.1344(4) -0.3243(3)
H3F H 0.4418 0.0562 -0.3372
C6F C 0.4060(2) 0.1516(4) -0.2693(3)
C7F C 0.3934(2) 0.2677(4) -0.2506(3)
H4F H 0.3746 0.2783 -0.2138
C8F C 0.5229(2) 0.7886(5) -0.1362(3)
H5F H 0.5142 0.8281 -0.1839
C9F C 0.5832(2) 0.7929(5) -0.0816(3)
H6F H 0.6142 0.8334 -0.0935
C10F C 0.5976(2) 0.7372(4) -0.0093(3)
C11F C 0.5492(2) 0.6758(5) 0.0046(3)
H7F H 0.5563 0.6372 0.0523
C12F C 0.4903(2) 0.6735(5) -0.0542(3)
H8F H 0.4588 0.6304 -0.0451
C13F C 0.6614(2) 0.7425(4) 0.0507(3)
C14F C 0.7013(3) 0.8398(6) 0.0546(3)
H9F H 0.6888 0.9013 0.0172
C15F C 0.7594(3) 0.8452(5) 0.1139(4)
H10F H 0.7848 0.9120 0.1156
C16F C 0.7434(2) 0.6668(5) 0.1651(3)
H11F H 0.7575 0.6065 0.2032
C17F C 0.6842(2) 0.6543(5) 0.1079(3)
H12F H 0.6599 0.5866 0.1081
C18F C 0.3442(3) 0.8226(6) -0.0754(4)
H13F H 0.3772 0.8756 -0.0689
C19F C 0.3158(3) 0.8248(6) -0.0213(3)
H14F H 0.3305 0.8775 0.0213
C20F C 0.2657(2) 0.7503(5) -0.0288(3)
C21F C 0.2480(3) 0.6725(7) -0.0929(4)
H15F H 0.2152 0.6183 -0.1008
C22F C 0.2789(2) 0.6754(5) -0.1448(3)
H16F H 0.2655 0.6234 -0.1879
O7 O 0.0440(2) 0.5208(5) -0.0136(3)
loop_
_geom_bond_atom_site_label_1
_geom_bond_atom_site_label_2
_geom_bond_site_symmetry_1
_geom_bond_site_symmetry_2
Cd1 O1 1_555 1_555
S1 O4 1_555 1_555
O1 C1 1_555 1_555
O2 Cd1 1_555 1_555
O3 H1 1_555 1_555
O4 Cd1_2 1_555 1_555
O5 S1 1_555 1_555
O6 S1 1_555 1_555
N1 Cd1 1_555 1_555
N2 C15 1_555 1_555
N3 Cd1 1_555 1_555
C1 O2 1_555 1_555
C2 C1 1_555 1_555
C3 O3 1_555 1_555
C4 C3 1_555 1_555
H2 C4 1_555 1_555
C5 C4 1_555 1_555
H3 C5 1_555 1_555
C6 S1 1_555 1_555
C7 C2 1_555 1_555
H4 C7 1_555 1_555
C8 N1 1_555 1_555
H5 C8 1_555 1_555
C9 C8 1_555 1_555
H6 C9 1_555 1_555
C10 C9 1_555 1_555
C11 C10 1_555 1_555
H7 C11 1_555 1_555
C12 N1 1_555 1_555
H8 C12 1_555 1_555
C13 C10 1_555 1_555
C14 C13 1_555 1_555
H9 C14 1_555 1_555
C15 C14 1_555 1_555
H10 C15 1_555 1_555
C16 N2 1_555 1_555
H11 C16 1_555 1_555
C17 C13 1_555 1_555
H12 C17 1_555 1_555
C18 N3 1_555 1_555
H13 C18 1_555 1_555
C19 C18 1_555 1_555
H14 C19 1_555 1_555
C20 C19 1_555 1_555
C21 C20 1_555 1_555
H15 C21 1_555 1_555
C22 N3 1_555 1_555
H16 C22 1_555 1_555
Cd1F O1F 1_555 1_555
Cd1A N2F 1_555 1_555
Cd1F_2 O4F 1_555 1_555
Cd1G N2 1_555 1_555
S1F O4F 1_555 1_555
O1F C1F 1_555 1_555
O2F Cd1F 1_555 1_555
O3F H1F 1_555 1_555
O4_2 Cd1 1_555 1_555
O4F_2 Cd1F 1_555 1_555
O5F S1F 1_555 1_555
O6F S1F 1_555 1_555
N1F Cd1F 1_555 1_555
N2F C15F 1_555 1_555
N2A Cd1F 1_555 1_555
N2G Cd1 1_555 1_555
N3F Cd1F 1_555 1_555
C1F O2F 1_555 1_555
C2F C1F 1_555 1_555
C3F O3F 1_555 1_555
C4F C3F 1_555 1_555
H2F C4F 1_555 1_555
C5F C4F 1_555 1_555
H3F C5F 1_555 1_555
C6F S1F 1_555 1_555
C7F C2F 1_555 1_555
H4F C7F 1_555 1_555
C8F N1F 1_555 1_555
H5F C8F 1_555 1_555
C9F C8F 1_555 1_555
H6F C9F 1_555 1_555
C10F C9F 1_555 1_555
C11F C10F 1_555 1_555
H7F C11F 1_555 1_555
C12F N1F 1_555 1_555
H8F C12F 1_555 1_555
C13F C10F 1_555 1_555
C14F C13F 1_555 1_555
H9F C14F 1_555 1_555
C15F C14F 1_555 1_555
H10F C15F 1_555 1_555
C16F N2F 1_555 1_555
H11F C16F 1_555 1_555
C17F C13F 1_555 1_555
H12F C17F 1_555 1_555
C18F N3F 1_555 1_555
H13F C18F 1_555 1_555
C19F C18F 1_555 1_555
H14F C19F 1_555 1_555
C20F C20 1_555 1_555
C21F C20F 1_555 1_555
H15F C21F 1_555 1_555
C22F N3F 1_555 1_555
H16F C22F 1_555 1_555
C2 C3 1_555 1_555
C5 C6 1_555 1_555
C6 C7 1_555 1_555
C11 C12 1_555 1_555
C16 C17 1_555 1_555
C21 C22 1_555 1_555
C2F C3F 1_555 1_555
C5F C6F 1_555 1_555
C6F C7F 1_555 1_555
C11F C12F 1_555 1_555
C16F C17F 1_555 1_555
C19F C20F 1_555 1_555
C21F C22F 1_555 1_555

#END
