
#######################################################################
#
#                 Cambridge Crystallographic Data Centre
#                                CCDC 
#
#######################################################################
#
# If this CIF has been generated from an entry in the Cambridge 
# Structural Database, then it will include bibliographic, chemical, 
# crystal, experimental, refinement or atomic coordinate data resulting 
# from the CCDC's data processing and validation procedures.
#
#######################################################################

data_GURYID
_symmetry_cell_setting           monoclinic
_symmetry_space_group_name_H-M   'C 2/m'
_symmetry_Int_Tables_number      12
_space_group_name_Hall           '-C 2y'
loop_
_symmetry_equiv_pos_site_id
_symmetry_equiv_pos_as_xyz
1 x,y,z
2 -x,y,-z
3 1/2+x,1/2+y,z
4 1/2-x,1/2+y,-z
5 -x,-y,-z
6 x,-y,z
7 1/2-x,1/2-y,-z
8 1/2+x,1/2-y,z
_cell_length_a                   21.381(9)
_cell_length_b                   7.616(4)
_cell_length_c                   15.488(7)
_cell_angle_alpha                90
_cell_angle_beta                 126.334(12)
_cell_angle_gamma                90
_cell_volume                     2031.69
loop_
_atom_site_label
_atom_site_type_symbol
_atom_site_fract_x
_atom_site_fract_y
_atom_site_fract_z
Cu1 Cu 0.5000 0.24817(14) 0.5000
N1 N 0.3028(4) 0.0000 0.2444(5)
N2 N 0.4087(3) 0.0904(6) 0.3967(3)
N3 N -0.0251(4) 0.0000 0.2438(4)
N4 N 0.0023(3) -0.0904(6) 0.3966(3)
C1 C 0.0281(5) 0.0000 0.1392(5)
C2 C 0.3442(4) 0.1375(10) 0.3037(4)
H1 H 0.3296 0.2535 0.2824
C3 C 0.1265(4) 0.1562(11) 0.1399(4)
H2 H 0.1483 0.2620 0.1401
C4 C -0.0137(3) -0.1400(8) 0.3041(4)
H3 H -0.0167 -0.2561 0.2834
C5 C -0.0449(4) 0.0000 0.1336(5)
H4 H -0.0756 0.1031 0.0950
C6 C 0.1598(5) 0.0000 0.1403(5)
C7 C 0.2278(5) 0.0000 0.1356(6)
H5 H 0.2252 -0.1030 0.0967
C8 C 0.0612(3) 0.1584(9) 0.1394(4)
H6 H 0.0397 0.2647 0.1391
H4E H -0.0756 -0.1031 0.0950
H5E H 0.2252 0.1030 0.0967
N2E N 0.4087(3) -0.0904(6) 0.3967(3)
C2E C 0.3442(4) -0.1375(10) 0.3037(4)
H1E H 0.3296 -0.2535 0.2824
C3E C 0.1265(4) -0.1562(11) 0.1399(4)
H2E H 0.1483 -0.2620 0.1401
N4E N 0.0023(3) 0.0904(6) 0.3966(3)
C4E C -0.0137(3) 0.1400(8) 0.3041(4)
H3E H -0.0167 0.2561 0.2834
C8E C 0.0612(3) -0.1584(9) 0.1394(4)
H6E H 0.0397 -0.2647 0.1391
Cu1B Cu 0.0000 -0.25183(14) 0.5000
Cu1D Cu 0.5000 -0.24817(14) 0.5000
Cu1F Cu 0.0000 0.25183(14) 0.5000
N2A N 0.5913(3) 0.0904(6) 0.6033(3)
N4B N 0.5023(3) 0.4096(6) 0.3966(3)
N4C N 0.4977(3) 0.4096(6) 0.6034(3)
Cl1 Cl 0.38029(13) 0.0000 0.08156(15)
O1 O 0.4570(4) 0.0000 0.1824(5)
O2 O 0.3404(3) 0.1542(7) 0.0762(4)
O3 O 0.3935(7) 0.0000 0.0023(6)
O2E O 0.3404(3) -0.1542(7) 0.0762(4)
C9 C 0.2816(8) 0.5000 0.5818(8)
H9 H 0.2462 0.5000 0.6008
H10 H 0.3137 0.6029 0.6106
C10 C 0.2747(9) 0.5000 0.4204(12)
H11 H 0.3287 0.5000 0.4668
C11 C 0.1554(7) 0.5000 0.4067(10)
H12 H 0.1422 0.5000 0.4561
H13 H 0.1343 0.3971 0.3625
N5 N 0.2375(5) 0.5000 0.4647(6)
O4 O 0.2457(8) 0.5000 0.3263(9)
H10E H 0.3137 0.3971 0.6106
H13E H 0.1343 0.6029 0.3625
O5 O 0.2878(8) 0.5000 0.1910(11)
H7? H 0.2252 -0.1030 0.0967
H8? H -0.0756 0.1031 0.0950
H14? H 0.3137 0.6029 0.6106
H15? H 0.1343 0.3971 0.3625
loop_
_geom_bond_atom_site_label_1
_geom_bond_atom_site_label_2
_geom_bond_site_symmetry_1
_geom_bond_site_symmetry_2
Cu1 N2 1_555 1_555
N1 C2 1_555 1_555
N2 C2 1_555 1_555
N3 C4 1_555 1_555
N4 C4 1_555 1_555
C1 C5 1_555 1_555
C2 H1 1_555 1_555
C3 H2 1_555 1_555
C4 H3 1_555 1_555
C5 N3 1_555 1_555
H4 C5 1_555 1_555
C6 C3 1_555 1_555
C7 N1 1_555 1_555
H5 C7 1_555 1_555
C8 C1 1_555 1_555
H6 C8 1_555 1_555
Cl1 O1 1_555 1_555
O2 Cl1 1_555 1_555
O3 Cl1 1_555 1_555
C9 H9 1_555 1_555
H10 C9 1_555 1_555
C10 H11 1_555 1_555
C11 H12 1_555 1_555
H13 C11 1_555 1_555
N5 C9 1_555 1_555
O4 C10 1_555 1_555
H4E C5 1_555 1_555
H5E C7 1_555 1_555
N2E N2 1_555 1_555
C2E N1 1_555 1_555
H1E C2E 1_555 1_555
C3E C6 1_555 1_555
H2E C3E 1_555 1_555
N4E N4 1_555 1_555
C4E N3 1_555 1_555
H3E C4E 1_555 1_555
C8E C1 1_555 1_555
H6E C8E 1_555 1_555
Cu1B N4 1_555 1_555
Cu1D N2E 1_555 1_555
Cu1F N4E 1_555 1_555
N2A Cu1 1_555 1_555
N4B Cu1 1_555 1_555
N4C Cu1 1_555 1_555
O2E Cl1 1_555 1_555
H10E C9 1_555 1_555
H13E C11 1_555 1_555
C3 C8 1_555 1_555
C6 C7 1_555 1_555
C10 N5 1_555 1_555
C11 N5 1_555 1_555
N2E C2E 1_555 1_555
C3E C8E 1_555 1_555
N4E C4E 1_555 1_555

#END
