
#######################################################################
#
#                 Cambridge Crystallographic Data Centre
#                                CCDC 
#
#######################################################################
#
# If this CIF has been generated from an entry in the Cambridge 
# Structural Database, then it will include bibliographic, chemical, 
# crystal, experimental, refinement or atomic coordinate data resulting 
# from the CCDC's data processing and validation procedures.
#
#######################################################################

data_GURYAU01
_symmetry_cell_setting           orthorhombic
_symmetry_space_group_name_H-M   'P c c n'
_symmetry_Int_Tables_number      56
_space_group_name_Hall           '-P 2ab 2ac'
loop_
_symmetry_equiv_pos_site_id
_symmetry_equiv_pos_as_xyz
1 x,y,z
2 1/2-x,1/2-y,z
3 -x,1/2+y,1/2-z
4 1/2+x,-y,1/2-z
5 -x,-y,-z
6 1/2+x,1/2+y,-z
7 x,1/2-y,1/2+z
8 1/2-x,y,1/2+z
_cell_length_a                   10.7074(7)
_cell_length_b                   21.3803(13)
_cell_length_c                   8.6565(5)
_cell_angle_alpha                90
_cell_angle_beta                 90
_cell_angle_gamma                90
_cell_volume                     1981.71
loop_
_atom_site_label
_atom_site_type_symbol
_atom_site_fract_x
_atom_site_fract_y
_atom_site_fract_z
N1 N -0.5247(3) -0.19420(14) -0.0183(4)
C1 C -0.4412(4) -0.21187(19) 0.0854(6)
H1 H -0.4523 -0.2499 0.1355
C2 C -0.5077(3) -0.13914(15) -0.0891(4)
H2 H -0.5669 -0.1267 -0.1615
Pb1 Pb -0.2500 0.2500 -0.517830(17)
C3 C -0.3817(3) 0.08098(15) -0.2800(4)
C4 C -0.3985(3) -0.03746(14) -0.1381(4)
C5 C -0.3684(3) 0.14210(14) -0.3627(4)
O1 O -0.2897(2) 0.18091(10) -0.3077(3)
O2 O -0.0735(3) 0.34837(11) -0.4842(3)
C6 C -0.4079(3) -0.09950(15) -0.0615(4)
C7 C -0.3039(3) 0.06448(15) -0.1599(4)
H3 H -0.2553 0.4070 -0.1249
C8 C -0.3120(3) 0.00650(15) -0.0905(4)
H4 H -0.2421 0.5032 -0.0099
C9 C -0.0302(4) 0.46217(17) -0.3271(5)
H5 H 0.0251 0.4519 -0.4058
C10 C -0.0233(4) 0.5206(2) -0.2586(5)
H6 H 0.0353 0.5492 -0.2944
C11 C -0.3215(5) -0.1202(2) 0.0454(7)
H7 H -0.2491 0.5963 0.0661
C12 C -0.3395(5) -0.1764(2) 0.1217(7)
H8 H -0.2168 0.6897 0.1966
N1B N -0.4753(3) 0.30580(14) -0.4817(4)
N1C N -0.0247(3) 0.19420(14) -0.4817(4)
N1A N 0.0247(3) 0.69420(14) -0.0183(4)
C1A C -0.0588(4) 0.71187(19) 0.0854(6)
H1A H -0.0477 0.7499 0.1355
C2A C 0.0077(3) 0.63914(15) -0.0891(4)
H2A H 0.0669 0.6267 -0.1615
Pb1B Pb -0.7500 -0.2500 0.017830(17)
Pb1B_2 Pb 0.2500 0.7500 0.017830(17)
C3A C -0.1183(3) 0.41902(15) -0.2800(4)
C4A C -0.1015(3) 0.53746(14) -0.1381(4)
C5A C -0.1316(3) 0.35790(14) -0.3627(4)
O1A O -0.2103(2) 0.31909(10) -0.3077(3)
O2A O -0.4265(3) 0.15163(11) -0.4842(3)
C6A C -0.0921(3) 0.59950(15) -0.0615(4)
C7A C -0.1961(3) 0.43552(15) -0.1599(4)
H3A H -0.2447 0.0930 -0.1249
C8A C -0.1880(3) 0.49350(15) -0.0905(4)
H4A H -0.2579 -0.0032 -0.0099
C9A C -0.4698(4) 0.03783(17) -0.3271(5)
H5A H -0.5251 0.0481 -0.4058
C10A C -0.4767(4) -0.0206(2) -0.2586(5)
H6A H -0.5353 -0.0492 -0.2944
C11A C -0.1785(5) 0.6202(2) 0.0454(7)
H7A H -0.2509 -0.0963 0.0661
C12A C -0.1605(5) 0.6764(2) 0.1217(7)
H8A H -0.2832 -0.1897 0.1966
loop_
_geom_bond_atom_site_label_1
_geom_bond_atom_site_label_2
_geom_bond_site_symmetry_1
_geom_bond_site_symmetry_2
N1 C1 1_555 1_555
C1 H1 1_555 1_555
C2 N1 1_555 1_555
H2 C2 1_555 1_555
Pb1 O1 1_555 1_555
C3 C5 1_555 1_555
C4 C6 1_555 1_555
C5 O1 1_555 1_555
O2 Pb1 1_555 1_555
C6 C2 1_555 1_555
C7 C3 1_555 1_555
H3 C7A 1_555 1_555
C8 C4 1_555 1_555
H4 C8A 1_555 1_555
C9 H5 1_555 1_555
C10 C9 1_555 1_555
H6 C10 1_555 1_555
C11 C6 1_555 1_555
H7 C11A 1_555 1_555
C12 C1 1_555 1_555
H8 C12A 1_555 1_555
N1B Pb1 1_555 1_555
N1C Pb1 1_555 1_555
N1A C1A 1_555 1_555
C1A H1A 1_555 1_555
C2A N1A 1_555 1_555
H2A C2A 1_555 1_555
Pb1B N1 1_555 1_555
Pb1B_2 N1A 1_555 1_555
C3A C9 1_555 1_555
C4A C10 1_555 1_555
C5A O2 1_555 1_555
O1A Pb1 1_555 1_555
O2A Pb1 1_555 1_555
C6A C2A 1_555 1_555
C7A C3A 1_555 1_555
H3A C7 1_555 1_555
C8A C4A 1_555 1_555
H4A C8 1_555 1_555
C9A C3 1_555 1_555
H5A C9A 1_555 1_555
C10A C4 1_555 1_555
H6A C10A 1_555 1_555
C11A C6A 1_555 1_555
H7A C11 1_555 1_555
C12A C1A 1_555 1_555
H8A C12 1_555 1_555
C5 O2A 1_555 1_555
C7 C8 1_555 1_555
C11 C12 1_555 1_555
C3A C5A 1_555 1_555
C4A C6A 1_555 1_555
C5A O1A 1_555 1_555
C7A C8A 1_555 1_555
C9A C10A 1_555 1_555
C11A C12A 1_555 1_555

#END
