
#######################################################################
#
#                 Cambridge Crystallographic Data Centre
#                                CCDC 
#
#######################################################################
#
# If this CIF has been generated from an entry in the Cambridge 
# Structural Database, then it will include bibliographic, chemical, 
# crystal, experimental, refinement or atomic coordinate data resulting 
# from the CCDC's data processing and validation procedures.
#
#######################################################################

data_GURYOJ
_symmetry_cell_setting           monoclinic
_symmetry_space_group_name_H-M   'C 2/m'
_symmetry_Int_Tables_number      12
_space_group_name_Hall           '-C 2y'
loop_
_symmetry_equiv_pos_site_id
_symmetry_equiv_pos_as_xyz
1 x,y,z
2 -x,y,-z
3 1/2+x,1/2+y,z
4 1/2-x,1/2+y,-z
5 -x,-y,-z
6 x,-y,z
7 1/2-x,1/2-y,-z
8 1/2+x,1/2-y,z
_cell_length_a                   21.5868(10)
_cell_length_b                   7.3214(3)
_cell_length_c                   18.2301(10)
_cell_angle_alpha                90
_cell_angle_beta                 116.799(3)
_cell_angle_gamma                90
_cell_volume                     2571.73
loop_
_atom_site_label
_atom_site_type_symbol
_atom_site_fract_x
_atom_site_fract_y
_atom_site_fract_z
Cu1 Cu 0.5000 0.74812(17) 0.5000
N1 N 0.4213(3) 0.5938(9) 0.4173(4)
C1 C 0.0810(5) 0.5000 0.2250(7)
N2 N 0.3375(4) 0.5000 0.3012(6)
C2 C 0.2097(5) 0.5000 0.2229(6)
C3 C 0.1149(4) 0.6636(10) 0.2252(5)
H1 H 0.0938 0.7769 0.2261
C4 C 0.0119(7) 0.5000 0.2214(9)
H2 H -0.0139 0.3907 0.1909
C5 C 0.3708(4) 0.6458(13) 0.3474(6)
H3 H 0.3592 0.7694 0.3312
C6 C 0.1783(4) 0.6624(11) 0.2241(5)
H4 H 0.2004 0.7746 0.2241
C7 C 0.2776(6) 0.5000 0.2181(7)
H5 H 0.2800 0.3906 0.1876
C8 C 0.0177(5) 0.6444(12) 0.3525(8)
H6 H 0.0174 0.7680 0.3366
N3 N 0.0153(5) 0.5000 0.3057(8)
N4 N 0.0203(4) 0.5943(9) 0.4221(5)
H2E H -0.0139 0.6093 0.1909
H5E H 0.2800 0.6094 0.1876
N1E N 0.4213(3) 0.4062(9) 0.4173(4)
C3E C 0.1149(4) 0.3364(10) 0.2252(5)
H1E H 0.0938 0.2231 0.2261
C5E C 0.3708(4) 0.3542(13) 0.3474(6)
H3E H 0.3592 0.2306 0.3312
C6E C 0.1783(4) 0.3376(11) 0.2241(5)
H4E H 0.2004 0.2254 0.2241
C8E C 0.0177(5) 0.3556(12) 0.3525(8)
H6E H 0.0174 0.2320 0.3366
N4E N 0.0203(4) 0.4057(9) 0.4221(5)
Cu1B Cu 0.0000 0.24812(17) 0.5000
Cu1D Cu 0.5000 0.25188(17) 0.5000
Cu1F Cu 0.0000 0.75188(17) 0.5000
N1A N 0.5787(3) 0.5938(9) 0.5827(4)
N4F N 0.4797(4) 0.9057(9) 0.5779(5)
N4G N 0.5203(4) 0.9057(9) 0.4221(5)
Cl1 Cl 0.43304(13) 0.5000 0.16710(16)
O1 O 0.3913(4) 0.3431(9) 0.1498(7)
O2 O 0.4882(10) 0.5000 0.2471(7)
O3 O 0.4672(7) 0.5000 0.1171(10)
O1E O 0.3913(4) 0.6569(9) 0.1498(7)
C9 C 0.3072(6) 0.0000 0.1592(7)
H9 H 0.3530 0.0000 0.1644
N5 N 0.2553(5) 0.0000 0.0823(6)
C10 C 0.1836(8) 0.0000 0.0675(10)
H10 H 0.1532 0.0000 0.0082
H11 H 0.1745 0.1093 0.0922
C11 C 0.2700(11) 0.0000 0.0096(9)
H12 H 0.2261 0.0000 -0.0409
H13 H 0.2967 -0.1093 0.0111
O4 O 0.3019(4) 0.0000 0.2227(5)
H11E H 0.1745 -0.1093 0.0922
H13E H 0.2967 0.1093 0.0111
N6 N 0.7602(5) 1.0000 0.5243(6)
C12 C 0.8255(9) 1.0000 0.5551(13)
H16 H 0.8422 1.0000 0.5150
C13 C 0.7201(9) 1.0000 0.5742(16)
H17 H 0.6702 1.0000 0.5371
H18 H 0.7321 1.1093 0.6089
C14 C 0.719(2) 1.0000 0.4394(11)
H19 H 0.6700 1.0000 0.4272
H20 H 0.7292 0.8907 0.4157
O5 O 0.8671(10) 1.0000 0.6182(12)
H18E H 0.7321 0.8907 0.6089
H20E H 0.7292 1.1093 0.4157
O6 O 1.0000 0.5000 0.0000
H7? H -0.0139 0.3907 0.1909
H8? H 0.2800 0.3906 0.1876
H14? H 0.1745 0.1093 0.0922
H15? H 0.2967 -0.1093 0.0111
H21? H 0.7321 1.1093 0.6089
H22? H 0.7292 0.8907 0.4157
loop_
_geom_bond_atom_site_label_1
_geom_bond_atom_site_label_2
_geom_bond_site_symmetry_1
_geom_bond_site_symmetry_2
Cu1 N1 1_555 1_555
N1 C5 1_555 1_555
C1 C3 1_555 1_555
N2 C5 1_555 1_555
C2 C6 1_555 1_555
C3 H1 1_555 1_555
C4 C1 1_555 1_555
H2 C4 1_555 1_555
C5 H3 1_555 1_555
C6 C3 1_555 1_555
H4 C6 1_555 1_555
C7 N2 1_555 1_555
H5 C7 1_555 1_555
C8 H6 1_555 1_555
N3 C4 1_555 1_555
N4 C8 1_555 1_555
Cl1 O1 1_555 1_555
O2 Cl1 1_555 1_555
O3 Cl1 1_555 1_555
C9 H9 1_555 1_555
N5 C9 1_555 1_555
C10 N5 1_555 1_555
H10 C10 1_555 1_555
H11 C10 1_555 1_555
C11 N5 1_555 1_555
H12 C11 1_555 1_555
H13 C11 1_555 1_555
O4 C9 1_555 1_555
N6 C12 1_555 1_555
C12 H16 1_555 1_555
C13 N6 1_555 1_555
H17 C13 1_555 1_555
H18 C13 1_555 1_555
C14 N6 1_555 1_555
H19 C14 1_555 1_555
H20 C14 1_555 1_555
O5 C12 1_555 1_555
H2E C4 1_555 1_555
H5E C7 1_555 1_555
N1E N1 1_555 1_555
C3E C1 1_555 1_555
H1E C3E 1_555 1_555
C5E N2 1_555 1_555
H3E C5E 1_555 1_555
C6E C2 1_555 1_555
H4E C6E 1_555 1_555
C8E N3 1_555 1_555
H6E C8E 1_555 1_555
N4E N4 1_555 1_555
Cu1B N4E 1_555 1_555
Cu1D N1E 1_555 1_555
Cu1F N4 1_555 1_555
N1A Cu1 1_555 1_555
N4F Cu1 1_555 1_555
N4G Cu1 1_555 1_555
O1E Cl1 1_555 1_555
H11E C10 1_555 1_555
H13E C11 1_555 1_555
H18E C13 1_555 1_555
H20E C14 1_555 1_555
C2 C7 1_555 1_555
C8 N3 1_555 1_555
N1E C5E 1_555 1_555
C3E C6E 1_555 1_555
C8E N4E 1_555 1_555

#END
