
#######################################################################
#
#                 Cambridge Crystallographic Data Centre
#                                CCDC 
#
#######################################################################
#
# If this CIF has been generated from an entry in the Cambridge 
# Structural Database, then it will include bibliographic, chemical, 
# crystal, experimental, refinement or atomic coordinate data resulting 
# from the CCDC's data processing and validation procedures.
#
#######################################################################

data_GUSCUU
_symmetry_cell_setting           orthorhombic
_symmetry_space_group_name_H-M   'P 21 21 21'
_symmetry_Int_Tables_number      19
_space_group_name_Hall           'P 2ac 2ab'
loop_
_symmetry_equiv_pos_site_id
_symmetry_equiv_pos_as_xyz
1 x,y,z
2 1/2-x,-y,1/2+z
3 -x,1/2+y,1/2-z
4 1/2+x,1/2-y,-z
_cell_length_a                   4.38860(10)
_cell_length_b                   13.3722(3)
_cell_length_c                   15.5729(4)
_cell_angle_alpha                90
_cell_angle_beta                 90
_cell_angle_gamma                90
_cell_volume                     913.899
loop_
_atom_site_label
_atom_site_type_symbol
_atom_site_fract_x
_atom_site_fract_y
_atom_site_fract_z
O1 O -0.5205(8) 0.0639(2) 0.5427(2)
H1 H -0.33(2) 0.143(4) 0.554(5)
C1 C -0.3936(12) 0.0027(3) 0.4925(3)
Cu1 Cu 0.06124(15) 0.16374(4) 0.45000(4)
N1 N -0.1667(9) 0.0354(3) 0.4387(2)
N2 N 0.2636(9) 0.1143(3) 0.3425(2)
C2 C 0.4791(12) 0.1628(3) 0.2957(3)
C3 C -0.0552(13) -0.0254(3) 0.3754(3)
C4 C 0.1644(12) 0.0227(3) 0.3178(3)
C5 C 0.5723(15) 0.1216(4) 0.2178(3)
H2 H 0.7022 0.1578 0.1823
C6 C 0.4763(13) 0.0291(5) 0.1927(3)
H3 H 0.5528 -0.0002 0.1430
C7 C 0.2655(14) -0.0199(4) 0.2419(3)
H4 H 0.1902 -0.0817 0.2244
C8 C -0.1545(13) -0.1226(4) 0.3674(3)
H5 H -0.0840 -0.1629 0.3230
O2 O 0.5892(10) 0.2473(3) 0.3228(2)
O3 O -0.1853(8) 0.2148(2) 0.54394(19)
C9 C -0.3609(13) -0.1591(4) 0.4266(4)
H6 H -0.4177 -0.2260 0.4244
C10 C -0.4821(13) -0.0991(3) 0.4878(3)
H7 H -0.6229 -0.1247 0.5266
H8 H 0.504(17) 0.276(5) 0.387(4)
O1_2 O 0.4795(8) 0.0639(2) 0.5427(2)
Cu1_2 Cu -0.93876(15) 0.16374(4) 0.45000(4)
Cu1C Cu -0.43876(15) 0.33626(4) 0.55000(4)
O3C O 0.3147(8) 0.2852(2) 0.45606(19)
loop_
_geom_bond_atom_site_label_1
_geom_bond_atom_site_label_2
_geom_bond_site_symmetry_1
_geom_bond_site_symmetry_2
O1 C1 1_555 1_555
H1 O3 1_555 1_555
C1 N1 1_555 1_555
Cu1 N1 1_555 1_555
N1 C3 1_555 1_555
N2 Cu1 1_555 1_555
C2 N2 1_555 1_555
C3 C4 1_555 1_555
C4 N2 1_555 1_555
C5 C2 1_555 1_555
H2 C5 1_555 1_555
C6 C5 1_555 1_555
H3 C6 1_555 1_555
C7 C4 1_555 1_555
H4 C7 1_555 1_555
C8 C3 1_555 1_555
H5 C8 1_555 1_555
O2 C2 1_555 1_555
O3 Cu1 1_555 1_555
C9 C8 1_555 1_555
H6 C9 1_555 1_555
C10 C1 1_555 1_555
H7 C10 1_555 1_555
H8 O2 1_555 1_555
O1_2 Cu1 1_555 1_555
Cu1_2 O1 1_555 1_555
Cu1C O3 1_555 1_555
O3C Cu1 1_555 1_555
C6 C7 1_555 1_555
C9 C10 1_555 1_555

#END
