
#######################################################################
#
#                 Cambridge Crystallographic Data Centre
#                                CCDC 
#
#######################################################################
#
# If this CIF has been generated from an entry in the Cambridge 
# Structural Database, then it will include bibliographic, chemical, 
# crystal, experimental, refinement or atomic coordinate data resulting 
# from the CCDC's data processing and validation procedures.
#
#######################################################################

data_GUSNUE
_symmetry_cell_setting           monoclinic
_symmetry_space_group_name_H-M   'P c'
_symmetry_Int_Tables_number      7
_space_group_name_Hall           'P -2yc'
loop_
_symmetry_equiv_pos_site_id
_symmetry_equiv_pos_as_xyz
1 x,y,z
2 x,-y,1/2+z
_cell_length_a                   6.7921(3)
_cell_length_b                   13.8302(5)
_cell_length_c                   7.2662(3)
_cell_angle_alpha                90
_cell_angle_beta                 90.35(3)
_cell_angle_gamma                90
_cell_volume                     682.546
loop_
_atom_site_label
_atom_site_type_symbol
_atom_site_fract_x
_atom_site_fract_y
_atom_site_fract_z
Ni1 Ni 0.666(3) 0.253(3) 0.891(2)
Co1 Co 0.166(2) 0.248(2) 1.379(2)
C1 C 0.475(4) 0.221(5) 1.062(4)
N1 N 0.352(2) 0.218(6) 1.173(5)
C2 C 0.505(2) 0.211(2) 0.701(4)
N2 N 0.376(2) 0.195(3) 0.605(6)
C3 C 0.850(3) 0.278(3) 1.062(4)
N3 N 0.980(4) 0.283(4) 1.173(5)
C4 C 0.833(5) 0.292(5) 0.701(4)
N4 N 0.961(5) 0.304(3) 0.659(4)
N5 N 0.316(3) 0.602(3) 0.881(3)
N6 N 0.483(4) 0.426(6) 0.915(4)
C5 C 0.187(5) 0.512(3) 0.913(2)
C6 C 0.521(3) 0.596(5) 0.894(4)
C7 C 0.284(2) 0.437(3) 0.882(4)
C8 C 0.590(6) 0.502(5) 0.931(5)
N7 N 1.016(3) -0.109(4) 0.884(3)
N8 N 0.842(5) 0.065(3) 0.920(5)
C9 C 1.146(5) -0.016(5) 0.914(4)
C10 C 0.811(4) -0.092(5) 0.900(3)
C11 C 1.048(4) 0.065(4) 0.882(5)
C12 C 0.741(3) 0.003(4) 0.923(4)
Co1_2 Co 0.166(2) 0.248(2) 0.379(2)
Co1_3 Co 1.166(2) 0.248(2) 1.379(2)
Co1_4 Co 1.166(2) 0.248(2) 0.379(2)
Co1A Co 0.166(2) 0.752(2) 0.879(2)
Co1A_2 Co 1.166(2) -0.248(2) 0.879(2)
N2_2 N 0.376(2) 0.195(3) 1.605(6)
N3_2 N -0.020(4) 0.283(4) 1.173(5)
N4_2 N -0.039(5) 0.304(3) 1.659(4)
N5A N 0.316(3) 0.398(3) 1.381(3)
N7A N 0.016(3) 0.109(4) 1.384(3)
loop_
_geom_bond_atom_site_label_1
_geom_bond_atom_site_label_2
_geom_bond_site_symmetry_1
_geom_bond_site_symmetry_2
Ni1 C1 1_555 1_555
Co1 N1 1_555 1_555
C1 N1 1_555 1_555
C2 Ni1 1_555 1_555
N2 C2 1_555 1_555
C3 Ni1 1_555 1_555
N3 C3 1_555 1_555
C4 Ni1 1_555 1_555
N4 C4 1_555 1_555
N5 C5 1_555 1_555
N6 Ni1 1_555 1_555
C5 C7 1_555 1_555
C6 N5 1_555 1_555
C7 N6 1_555 1_555
C8 N6 1_555 1_555
N7 C9 1_555 1_555
N8 Ni1 1_555 1_555
C9 C11 1_555 1_555
C10 N7 1_555 1_555
C11 N8 1_555 1_555
C12 N8 1_555 1_555
Co1_2 N2 1_555 1_555
Co1_3 N3 1_555 1_555
Co1_4 N4 1_555 1_555
Co1A N5 1_555 1_555
Co1A_2 N7 1_555 1_555
N2_2 Co1 1_555 1_555
N3_2 Co1 1_555 1_555
N4_2 Co1 1_555 1_555
N5A Co1 1_555 1_555
N7A Co1 1_555 1_555
C6 C8 1_555 1_555
C10 C12 1_555 1_555

#END
