
#######################################################################
#
#                 Cambridge Crystallographic Data Centre
#                                CCDC 
#
#######################################################################
#
# If this CIF has been generated from an entry in the Cambridge 
# Structural Database, then it will include bibliographic, chemical, 
# crystal, experimental, refinement or atomic coordinate data resulting 
# from the CCDC's data processing and validation procedures.
#
#######################################################################

data_GUSNEN
_symmetry_cell_setting           monoclinic
_symmetry_space_group_name_H-M   'C 2/c'
_symmetry_Int_Tables_number      15
_space_group_name_Hall           '-C 2yn'
loop_
_symmetry_equiv_pos_site_id
_symmetry_equiv_pos_as_xyz
1 x,y,z
2 -x,y,1/2-z
3 1/2+x,1/2+y,z
4 1/2-x,1/2+y,1/2-z
5 -x,-y,-z
6 x,-y,1/2+z
7 1/2-x,1/2-y,-z
8 1/2+x,1/2-y,1/2+z
_cell_length_a                   19.685(4)
_cell_length_b                   7.849(1)
_cell_length_c                   6.782(1)
_cell_angle_alpha                90
_cell_angle_beta                 104.90(2)
_cell_angle_gamma                90
_cell_volume                     1012.64
loop_
_atom_site_label
_atom_site_type_symbol
_atom_site_fract_x
_atom_site_fract_y
_atom_site_fract_z
Cr1 Cr 0.000 0.000 0.000
O1 O 0.000 -0.113(1) -0.250
O2 O -0.068(1) 0.166(1) -0.445(1)
O3 O -0.087(1) 0.141(1) -0.152(1)
C1 C -0.111(1) 0.190(1) -0.330(1)
C2 C -0.198(1) 0.296(2) -0.618(1)
C3 C -0.229(1) 0.180(2) -0.296(1)
C4 C -0.184(1) 0.210(2) -0.421(1)
Cr1A Cr 0.000 0.000 -0.500
O2A O 0.068(1) 0.166(1) -0.055(1)
O1D O 0.000 0.113(1) 0.250
O2E O -0.068(1) -0.166(1) 0.055(1)
O3D O 0.087(1) -0.141(1) 0.152(1)
C3F C -0.271(1) 0.320(2) -0.704(1)
C2F C -0.302(1) 0.204(2) -0.382(1)
C4F C -0.316(1) 0.290(2) -0.579(1)
C1F C -0.389(1) 0.310(1) -0.670(1)
O2F O -0.432(1) 0.334(1) -0.555(1)
O3F O -0.413(1) 0.359(1) -0.848(1)
Cr1C Cr -0.500 0.500 -0.500
Cr1B Cr -0.500 0.500 -1.000
O4 O 0.000 0.500 0.500
loop_
_geom_bond_atom_site_label_1
_geom_bond_atom_site_label_2
_geom_bond_site_symmetry_1
_geom_bond_site_symmetry_2
Cr1 O1 1_555 1_555
O1 Cr1A 1_555 1_555
O2 C1 1_555 1_555
O3 Cr1 1_555 1_555
C1 O3 1_555 1_555
C2 C4 1_555 1_555
C3 C4 1_555 1_555
C4 C1 1_555 1_555
Cr1A O2 1_555 1_555
O2A Cr1 1_555 1_555
O1D Cr1 1_555 1_555
O2E Cr1 1_555 1_555
O3D Cr1 1_555 1_555
C3F C2 1_555 1_555
C2F C3 1_555 1_555
C4F C3F 1_555 1_555
C1F C4F 1_555 1_555
O2F C1F 1_555 1_555
O3F C1F 1_555 1_555
Cr1C O2F 1_555 1_555
Cr1B O3F 1_555 1_555
C2F C4F 1_555 1_555

#END
