
#######################################################################
#
#                 Cambridge Crystallographic Data Centre
#                                CCDC 
#
#######################################################################
#
# If this CIF has been generated from an entry in the Cambridge 
# Structural Database, then it will include bibliographic, chemical, 
# crystal, experimental, refinement or atomic coordinate data resulting 
# from the CCDC's data processing and validation procedures.
#
#######################################################################

data_GUSNEO
_symmetry_cell_setting           monoclinic
_symmetry_space_group_name_H-M   'P c'
_symmetry_Int_Tables_number      7
_space_group_name_Hall           'P -2yc'
loop_
_symmetry_equiv_pos_site_id
_symmetry_equiv_pos_as_xyz
1 x,y,z
2 x,-y,1/2+z
_cell_length_a                   6.9380(2)
_cell_length_b                   14.0441(2)
_cell_length_c                   7.4554(2)
_cell_angle_alpha                90
_cell_angle_beta                 91.01(1)
_cell_angle_gamma                90
_cell_volume                     726.326
loop_
_atom_site_label
_atom_site_type_symbol
_atom_site_fract_x
_atom_site_fract_y
_atom_site_fract_z
Ni1 Ni 0.666(1) 0.243(1) 0.886(2)
Cd1 Cd 0.166(1) 0.252(2) 1.399(1)
C1 C 0.482(2) 0.221(3) 1.065(4)
N1 N 0.369(2) 0.213(4) 1.177(3)
C2 C 0.509(2) 0.215(4) 0.696(4)
N2 N 0.395(4) 0.196(4) 0.592(5)
C3 C 0.851(5) 0.279(6) 1.061(4)
N3 N 0.965(4) 0.290(5) 1.173(4)
C4 C 0.824(3) 0.285(4) 0.696(4)
N4 N 0.938(4) 0.304(7) 0.592(5)
N5 N 0.308(4) 0.592(4) 0.876(5)
N6 N 0.488(3) 0.438(3) 0.923(4)
C5 C 0.182(5) 0.525(3) 0.909(3)
C6 C 0.528(4) 0.593(5) 0.905(5)
C7 C 0.285(4) 0.441(4) 0.887(5)
C8 C 0.596(3) 0.498(4) 0.932(6)
N7 N 1.024(5) -0.092(5) 0.876(4)
N8 N 0.845(4) 0.064(3) 0.923(3)
C9 C 1.149(3) -0.025(4) 0.909(3)
C10 C 0.805(3) -0.093(4) 0.905(5)
C11 C 1.047(3) 0.059(4) 0.887(3)
C12 C 0.737(2) 0.002(4) 0.931(3)
Cd1_2 Cd 0.166(1) 0.252(2) 0.399(1)
Cd1_3 Cd 1.166(1) 0.252(2) 1.399(1)
Cd1_4 Cd 1.166(1) 0.252(2) 0.399(1)
Cd1A Cd 0.166(1) 0.748(2) 0.899(1)
Cd1A_2 Cd 1.166(1) -0.252(2) 0.899(1)
N2_2 N 0.395(4) 0.196(4) 1.592(5)
N3_2 N -0.035(4) 0.290(5) 1.173(4)
N4_2 N -0.062(4) 0.304(7) 1.592(5)
N5A N 0.308(4) 0.408(4) 1.376(5)
N7A N 0.024(5) 0.092(5) 1.376(4)
loop_
_geom_bond_atom_site_label_1
_geom_bond_atom_site_label_2
_geom_bond_site_symmetry_1
_geom_bond_site_symmetry_2
Ni1 C1 1_555 1_555
Cd1 N1 1_555 1_555
C1 N1 1_555 1_555
C2 Ni1 1_555 1_555
N2 C2 1_555 1_555
C3 Ni1 1_555 1_555
N3 C3 1_555 1_555
C4 Ni1 1_555 1_555
N4 C4 1_555 1_555
N5 C5 1_555 1_555
N6 Ni1 1_555 1_555
C5 C7 1_555 1_555
C6 N5 1_555 1_555
C7 N6 1_555 1_555
C8 N6 1_555 1_555
N7 C9 1_555 1_555
N8 Ni1 1_555 1_555
C9 C11 1_555 1_555
C10 N7 1_555 1_555
C11 N8 1_555 1_555
C12 N8 1_555 1_555
Cd1_2 N2 1_555 1_555
Cd1_3 N3 1_555 1_555
Cd1_4 N4 1_555 1_555
Cd1A N5 1_555 1_555
Cd1A_2 N7 1_555 1_555
N2_2 Cd1 1_555 1_555
N3_2 Cd1 1_555 1_555
N4_2 Cd1 1_555 1_555
N5A Cd1 1_555 1_555
N7A Cd1 1_555 1_555
C6 C8 1_555 1_555
C10 C12 1_555 1_555

#END
