
#######################################################################
#
#                 Cambridge Crystallographic Data Centre
#                                CCDC 
#
#######################################################################
#
# If this CIF has been generated from an entry in the Cambridge 
# Structural Database, then it will include bibliographic, chemical, 
# crystal, experimental, refinement or atomic coordinate data resulting 
# from the CCDC's data processing and validation procedures.
#
#######################################################################

data_GUSVAS
_symmetry_cell_setting           monoclinic
_symmetry_space_group_name_H-M   'C 2/c'
_symmetry_Int_Tables_number      15
_space_group_name_Hall           '-C 2yn'
loop_
_symmetry_equiv_pos_site_id
_symmetry_equiv_pos_as_xyz
1 x,y,z
2 -x,y,1/2-z
3 1/2+x,1/2+y,z
4 1/2-x,1/2+y,1/2-z
5 -x,-y,-z
6 x,-y,1/2+z
7 1/2-x,1/2-y,-z
8 1/2+x,1/2-y,1/2+z
_cell_length_a                   23.088(2)
_cell_length_b                   9.6487(9)
_cell_length_c                   20.0312(17)
_cell_angle_alpha                90
_cell_angle_beta                 122.6830(10)
_cell_angle_gamma                90
_cell_volume                     3755.82
loop_
_atom_site_label
_atom_site_type_symbol
_atom_site_fract_x
_atom_site_fract_y
_atom_site_fract_z
Co1 Co 0.2500 0.7500 0.0000
Cl1 Cl 0.18717(3) 0.96341(7) 0.00108(4)
F1 F 0.03679(11) -0.25794(18) 0.13454(13)
F2 F -0.00177(8) 0.20731(18) 0.06259(11)
O1 O 0.21267(8) 0.2834(2) 0.19250(10)
H1 H 0.2300 0.2436 0.1713
N1 N 0.19064(10) 0.6252(2) 0.03144(11)
N2 N 0.10440(12) 0.5670(3) 0.04665(16)
N3 N 0.13965(10) 0.4527(2) 0.04936(11)
N4 N 0.12687(10) 0.3343(2) 0.25334(11)
N5 N 0.07477(11) 0.2819(3) 0.25838(13)
N6 N 0.17425(10) 0.2768(2) 0.37708(11)
C1 C 0.19038(13) 0.4898(3) 0.04054(15)
H2 H 0.2216 0.4287 0.0407
C2 C 0.13724(14) 0.6673(3) 0.03658(18)
H3 H 0.1249 0.7600 0.0332
C3 C 0.11724(14) 0.3161(3) 0.05668(14)
H4 H 0.1352 0.2477 0.0369
H5 H 0.0674 0.3122 0.0235
C4 C 0.14035(12) 0.2774(3) 0.14241(13)
C5 C 0.11463(13) 0.3826(3) 0.17802(14)
H6 H 0.1381 0.4703 0.1859
H7 H 0.0657 0.3979 0.1412
C6 C 0.18490(12) 0.3295(3) 0.32384(14)
H8 H 0.2274 0.3592 0.3344
C7 C 0.10576(14) 0.2494(3) 0.33320(16)
H9 H 0.0827 0.2104 0.3549
C8 C 0.11309(11) 0.1320(3) 0.14072(13)
C9 C 0.04344(12) 0.1028(3) 0.10116(14)
C10 C 0.01632(14) -0.0249(3) 0.09830(16)
H10 H -0.0309 -0.0393 0.0712
C11 C 0.06181(15) -0.1296(3) 0.13700(17)
C12 C 0.13107(15) -0.1104(3) 0.17747(17)
H11 H 0.1610 -0.1842 0.2032
C13 C 0.15633(13) 0.0209(3) 0.17966(15)
H12 H 0.2037 0.0347 0.2081
Co1C Co 0.2500 0.2500 0.5000
Co1C_2 Co 0.2500 1.2500 -0.5000
Cl1F Cl 0.31283(3) 0.53659(7) -0.00108(4)
F1F F 0.46321(11) 1.75794(18) -0.13454(13)
F2F F 0.50177(8) 1.29269(18) -0.06259(11)
O1F O 0.28733(8) 1.2166(2) -0.19250(10)
H1F H 0.2700 1.2564 -0.1713
N1F N 0.30936(10) 0.8748(2) -0.03144(11)
N2F N 0.39560(12) 0.9330(3) -0.04665(16)
N3F N 0.36035(10) 1.0473(2) -0.04936(11)
N4F N 0.37313(10) 1.1657(2) -0.25334(11)
N5F N 0.42523(11) 1.2181(3) -0.25838(13)
N6F N 0.32575(10) 1.2232(2) -0.37708(11)
N6C N 0.32575(10) 0.7768(2) 0.12292(11)
N6E N 0.17425(10) 0.7232(2) -0.12292(11)
C1F C 0.30962(13) 1.0102(3) -0.04054(15)
H2F H 0.2784 1.0713 -0.0407
C2F C 0.36276(14) 0.8327(3) -0.03658(18)
H3F H 0.3751 0.7400 -0.0332
C3F C 0.38276(14) 1.1839(3) -0.05668(14)
H4F H 0.3648 1.2523 -0.0369
H5F H 0.4326 1.1878 -0.0235
C4F C 0.35965(12) 1.2226(3) -0.14241(13)
C5F C 0.38537(13) 1.1174(3) -0.17802(14)
H6F H 0.3619 1.0297 -0.1859
H7F H 0.4343 1.1021 -0.1412
C6F C 0.31510(12) 1.1705(3) -0.32384(14)
H8F H 0.2726 1.1408 -0.3344
C7F C 0.39424(14) 1.2506(3) -0.33320(16)
H9F H 0.4173 1.2896 -0.3549
C8F C 0.38691(11) 1.3680(3) -0.14072(13)
C9F C 0.45656(12) 1.3972(3) -0.10116(14)
C10F C 0.48368(14) 1.5249(3) -0.09830(16)
H10F H 0.5309 1.5393 -0.0712
C11F C 0.43819(15) 1.6296(3) -0.13700(17)
C12F C 0.36893(15) 1.6104(3) -0.17747(17)
H11F H 0.3390 1.6842 -0.2032
C13F C 0.34367(13) 1.4791(3) -0.17966(15)
H12F H 0.2963 1.4653 -0.2081
O2 O 0.2873(6) 0.1671(12) 0.1421(8)
H13 H 0.2724 0.2236 0.1599
C14 C 0.3368(4) 0.2331(8) 0.1305(5)
H14 H 0.3147 0.2496 0.0740
H15 H 0.3470 0.3232 0.1559
C15 C 0.4024(6) 0.165(2) 0.1580(9)
H16 H 0.4308 0.2241 0.1489
H17 H 0.3943 0.0794 0.1295
H18 H 0.4253 0.1455 0.2137
O3? O 0.2734(7) 0.1619(19) 0.1190(9)
H19? H 0.2685 0.2040 0.1512
C16? C 0.3916(16) 0.1428(15) 0.1678(10)
H20? H 0.4037 0.0717 0.1433
H21? H 0.4223 0.1442 0.2251
C17? C 0.3742(7) 0.2812(12) 0.1282(11)
H22? H 0.4152 0.3236 0.1364
H23? H 0.3550 0.3392 0.1504
H24? H 0.3414 0.2699 0.0724
loop_
_geom_bond_atom_site_label_1
_geom_bond_atom_site_label_2
_geom_bond_site_symmetry_1
_geom_bond_site_symmetry_2
Co1 Cl1 1_555 1_555
F1 C11 1_555 1_555
F2 C9 1_555 1_555
O1 H1 1_555 1_555
N1 Co1 1_555 1_555
N2 N3 1_555 1_555
N3 C1 1_555 1_555
N4 N5 1_555 1_555
N5 C7 1_555 1_555
N6 C6 1_555 1_555
C1 N1 1_555 1_555
H2 C1 1_555 1_555
C2 N1 1_555 1_555
H3 C2 1_555 1_555
C3 N3 1_555 1_555
H4 C3 1_555 1_555
H5 C3 1_555 1_555
C4 O1 1_555 1_555
C5 N4 1_555 1_555
H6 C5 1_555 1_555
H7 C5 1_555 1_555
C6 N4 1_555 1_555
H8 C6 1_555 1_555
C7 N6 1_555 1_555
H9 C7 1_555 1_555
C8 C4 1_555 1_555
C9 C8 1_555 1_555
C10 C9 1_555 1_555
H10 C10 1_555 1_555
C11 C10 1_555 1_555
C12 C11 1_555 1_555
H11 C12 1_555 1_555
C13 C8 1_555 1_555
H12 C13 1_555 1_555
O2 H13 1_555 1_555
C14 O2 1_555 1_555
H14 C14 1_555 1_555
H15 C14 1_555 1_555
C15 C14 1_555 1_555
H16 C15 1_555 1_555
H17 C15 1_555 1_555
H18 C15 1_555 1_555
Co1C N6 1_555 1_555
Co1C_2 N6F 1_555 1_555
Cl1F Co1 1_555 1_555
F1F C11F 1_555 1_555
F2F C9F 1_555 1_555
O1F H1F 1_555 1_555
N1F Co1 1_555 1_555
N2F N3F 1_555 1_555
N3F C1F 1_555 1_555
N4F N5F 1_555 1_555
N5F C7F 1_555 1_555
N6F C6F 1_555 1_555
N6C Co1 1_555 1_555
N6E Co1 1_555 1_555
C1F N1F 1_555 1_555
H2F C1F 1_555 1_555
C2F N1F 1_555 1_555
H3F C2F 1_555 1_555
C3F N3F 1_555 1_555
H4F C3F 1_555 1_555
H5F C3F 1_555 1_555
C4F O1F 1_555 1_555
C5F N4F 1_555 1_555
H6F C5F 1_555 1_555
H7F C5F 1_555 1_555
C6F N4F 1_555 1_555
H8F C6F 1_555 1_555
C7F N6F 1_555 1_555
H9F C7F 1_555 1_555
C8F C4F 1_555 1_555
C9F C8F 1_555 1_555
C10F C9F 1_555 1_555
H10F C10F 1_555 1_555
C11F C10F 1_555 1_555
C12F C11F 1_555 1_555
H11F C12F 1_555 1_555
C13F C8F 1_555 1_555
H12F C13F 1_555 1_555
N2 C2 1_555 1_555
C3 C4 1_555 1_555
C4 C5 1_555 1_555
C12 C13 1_555 1_555
N2F C2F 1_555 1_555
C3F C4F 1_555 1_555
C4F C5F 1_555 1_555
C12F C13F 1_555 1_555

#END
