
#######################################################################
#
#                 Cambridge Crystallographic Data Centre
#                                CCDC 
#
#######################################################################
#
# If this CIF has been generated from an entry in the Cambridge 
# Structural Database, then it will include bibliographic, chemical, 
# crystal, experimental, refinement or atomic coordinate data resulting 
# from the CCDC's data processing and validation procedures.
#
#######################################################################

data_GUTGOS
_symmetry_cell_setting           triclinic
_symmetry_space_group_name_H-M   'P -1'
_symmetry_Int_Tables_number      2
_space_group_name_Hall           '-P 1'
loop_
_symmetry_equiv_pos_site_id
_symmetry_equiv_pos_as_xyz
1 x,y,z
2 -x,-y,-z
_cell_length_a                   11.097(3)
_cell_length_b                   11.512(3)
_cell_length_c                   16.527(4)
_cell_angle_alpha                97.234(4)
_cell_angle_beta                 105.360(3)
_cell_angle_gamma                110.452(4)
_cell_volume                     1850.94
loop_
_atom_site_label
_atom_site_type_symbol
_atom_site_fract_x
_atom_site_fract_y
_atom_site_fract_z
Cd1 Cd 0.85761(6) 0.01019(6) 0.06051(4)
Cd2 Cd 1.45699(7) -0.19135(6) 0.45543(4)
O1 O 1.2139(8) -0.3659(7) 0.3968(5)
N1 N 1.5222(8) -0.3692(8) 0.4165(5)
O2 O 1.2841(7) -0.1909(7) 0.3518(5)
N2 N 0.7059(8) 0.1026(7) 0.0952(5)
N3 N 0.6211(8) 0.1490(7) -0.1255(5)
O3 O 0.7387(7) -0.1881(7) 0.1089(5)
O4 O 0.9574(7) -0.0598(6) 0.1675(5)
O5 O 0.9803(8) 0.7937(7) -0.1112(5)
O6 O 2.4146(8) -0.0739(8) 0.5583(6)
C1 C 0.8001(10) 0.6300(8) -0.0898(5)
N4 N 0.7484(9) 0.0610(7) -0.0552(5)
N5 N 1.5928(9) -0.2187(8) 0.5731(5)
C2 C 1.0506(10) -0.3273(9) 0.2893(6)
C3 C 0.5457(9) 0.2281(8) -0.1482(6)
H1 H 0.4781 0.2144 -0.1193
H2 H 0.4979 0.2026 -0.2101
C4 C 1.4831(13) -0.4390(12) 0.3361(6)
H3 H 1.4121 -0.4336 0.2939
O7 O 0.8585(11) 0.8535(8) -0.0429(6)
C5 C 0.6852(11) 0.5907(9) -0.0685(6)
H4 H 0.6602 0.6509 -0.0425
C6 C 1.0178(9) -0.2346(8) 0.2541(6)
H5 H 1.0834 -0.1515 0.2691
C7 C 0.8572(10) -0.1650(9) 0.1558(6)
C8 C 0.5461(10) 0.1930(9) 0.0448(6)
H6 H 0.4998 0.2214 0.0014
C9 C 0.8885(9) -0.2640(9) 0.1967(6)
C10 C 1.6258(9) -0.3741(9) 0.4772(5)
C11 C 0.6389(9) 0.3692(8) -0.1227(6)
C12 C 0.8882(11) 0.7688(8) -0.0780(6)
C13 C 0.7606(11) 0.4095(9) -0.1404(7)
H7 H 0.7878 0.3491 -0.1639
C14 C 0.6360(9) 0.1424(8) 0.0314(6)
C15 C 1.1904(10) -0.2931(9) 0.3503(6)
C16 C 2.2115(10) -0.1019(10) 0.5946(6)
C17 C 0.5250(12) 0.2013(9) 0.1245(6)
H8 H 0.4610 0.2316 0.1336
O8 O 2.3775(11) 0.0968(9) 0.5965(9)
C18 C 0.6036(10) 0.4603(9) -0.0853(6)
H9 H 0.5243 0.4350 -0.0709
C19 C 2.1675(12) -0.2322(10) 0.5793(7)
H10 H 2.2155 -0.2725 0.5571
C20 C 0.6679(9) 0.1202(8) -0.0488(5)
C21 C 1.6846(14) -0.4572(13) 0.4592(7)
H11 H 1.7509 -0.4666 0.5027
C22 C 0.7574(12) 0.0542(9) -0.1362(6)
H12 H 0.8094 0.0185 -0.1576
C23 C 0.6794(11) 0.1071(9) -0.1799(6)
H13 H 0.6670 0.1141 -0.2367
C24 C 0.6848(11) 0.1162(10) 0.1708(6)
H14 H 0.7335 0.0902 0.2145
C25 C 0.7966(12) -0.3880(13) 0.1731(9)
H15 H 0.7108 -0.4099 0.1331
C26 C 2.3429(11) -0.0213(11) 0.5809(7)
C27 C 0.8426(11) 0.5391(9) -0.1235(7)
H16 H 0.9248 0.5651 -0.1345
C28 C 0.8276(14) -0.4822(13) 0.2068(11)
H17 H 0.7631 -0.5659 0.1912
C29 C 1.5416(15) -0.5172(12) 0.3130(7)
H18 H 1.5126 -0.5631 0.2560
C30 C 0.9550(13) -0.4489(11) 0.2634(8)
H19 H 0.9774 -0.5120 0.2853
C31 C 1.6422(16) -0.5271(14) 0.3738(8)
H20 H 1.6838 -0.5803 0.3593
C32 C 0.5973(11) 0.1654(10) 0.1887(6)
H21 H 0.5875 0.1740 0.2430
C33 C 1.6429(10) -0.1571(11) 0.6579(6)
H22 H 1.6134 -0.1002 0.6833
N6 N 1.7533(8) -0.2772(7) 0.6389(5)
C34 C 1.9816(10) -0.2445(9) 0.6321(5)
C35 C 1.6567(9) -0.2921(9) 0.5620(6)
C36 C 1.8639(10) -0.3201(9) 0.6577(6)
H23 H 1.8293 -0.4091 0.6276
H24 H 1.8959 -0.3146 0.7192
C37 C 2.1406(12) -0.0415(10) 0.6264(8)
H25 H 2.1692 0.0466 0.6351
C38 C 2.0527(11) -0.3041(9) 0.5965(6)
H26 H 2.0223 -0.3926 0.5844
C39 C 2.0262(11) -0.1123(10) 0.6453(7)
H27 H 1.9787 -0.0710 0.6670
C40 C 1.7424(12) -0.1915(11) 0.6998(6)
H28 H 1.7936 -0.1629 0.7584
Cd1A Cd 1.14239(6) 0.98981(6) -0.06051(4)
Cd1_2 Cd 0.85761(6) 1.01019(6) 0.06051(4)
Cd2_2 Cd 2.45699(7) -0.19135(6) 0.45543(4)
Cd2A Cd 2.54301(7) 0.19135(6) 0.54457(4)
O5A O 1.0197(8) 0.2063(7) 0.1112(5)
O6_2 O 1.4146(8) -0.0739(8) 0.5583(6)
O7_2 O 0.8585(11) -0.1465(8) -0.0429(6)
O8A O 1.6225(11) -0.0968(9) 0.4035(9)
loop_
_geom_bond_atom_site_label_1
_geom_bond_atom_site_label_2
_geom_bond_site_symmetry_1
_geom_bond_site_symmetry_2
Cd1 N2 1_555 1_555
Cd2 O1 1_555 1_555
O1 C15 1_555 1_555
N1 Cd2 1_555 1_555
O2 Cd2 1_555 1_555
N2 C14 1_555 1_555
N3 C3 1_555 1_555
O3 Cd1 1_555 1_555
O4 Cd1 1_555 1_555
O5 C12 1_555 1_555
O6 C26 1_555 1_555
C1 C5 1_555 1_555
N4 Cd1 1_555 1_555
N5 Cd2 1_555 1_555
C2 C6 1_555 1_555
C3 H1 1_555 1_555
H2 C3 1_555 1_555
C4 N1 1_555 1_555
H3 C4 1_555 1_555
O7 C12 1_555 1_555
C5 H4 1_555 1_555
C6 H5 1_555 1_555
C7 O3 1_555 1_555
C8 H6 1_555 1_555
C9 C6 1_555 1_555
C10 N1 1_555 1_555
C11 C3 1_555 1_555
C12 C1 1_555 1_555
C13 C11 1_555 1_555
H7 C13 1_555 1_555
C14 C8 1_555 1_555
C15 O2 1_555 1_555
C16 C19 1_555 1_555
C17 C8 1_555 1_555
H8 C17 1_555 1_555
O8 C26 1_555 1_555
C18 C5 1_555 1_555
H9 C18 1_555 1_555
C19 H10 1_555 1_555
C20 N3 1_555 1_555
C21 C10 1_555 1_555
H11 C21 1_555 1_555
C22 N4 1_555 1_555
H12 C22 1_555 1_555
C23 N3 1_555 1_555
H13 C23 1_555 1_555
C24 N2 1_555 1_555
H14 C24 1_555 1_555
C25 C9 1_555 1_555
H15 C25 1_555 1_555
C26 C16 1_555 1_555
C27 C1 1_555 1_555
H16 C27 1_555 1_555
C28 C25 1_555 1_555
H17 C28 1_555 1_555
C29 C4 1_555 1_555
H18 C29 1_555 1_555
C30 C2 1_555 1_555
H19 C30 1_555 1_555
C31 C21 1_555 1_555
H20 C31 1_555 1_555
C32 C17 1_555 1_555
H21 C32 1_555 1_555
C33 N5 1_555 1_555
H22 C33 1_555 1_555
N6 C35 1_555 1_555
C34 C36 1_555 1_555
C35 N5 1_555 1_555
C36 N6 1_555 1_555
H23 C36 1_555 1_555
H24 C36 1_555 1_555
C37 C16 1_555 1_555
H25 C37 1_555 1_555
C38 C19 1_555 1_555
H26 C38 1_555 1_555
C39 C34 1_555 1_555
H27 C39 1_555 1_555
C40 C33 1_555 1_555
H28 C40 1_555 1_555
Cd1A O5 1_555 1_555
Cd1_2 O7 1_555 1_555
Cd2_2 O6 1_555 1_555
Cd2A O8 1_555 1_555
O5A Cd1 1_555 1_555
O6_2 Cd2 1_555 1_555
O7_2 Cd1 1_555 1_555
O8A Cd2 1_555 1_555
O4 C7 1_555 1_555
N4 C20 1_555 1_555
C2 C15 1_555 1_555
C7 C9 1_555 1_555
C10 C35 1_555 1_555
C11 C18 1_555 1_555
C13 C27 1_555 1_555
C14 C20 1_555 1_555
C22 C23 1_555 1_555
C24 C32 1_555 1_555
C28 C30 1_555 1_555
C29 C31 1_555 1_555
N6 C40 1_555 1_555
C34 C38 1_555 1_555
C37 C39 1_555 1_555

#END
