
#######################################################################
#
#                 Cambridge Crystallographic Data Centre
#                                CCDC 
#
#######################################################################
#
# If this CIF has been generated from an entry in the Cambridge 
# Structural Database, then it will include bibliographic, chemical, 
# crystal, experimental, refinement or atomic coordinate data resulting 
# from the CCDC's data processing and validation procedures.
#
#######################################################################

data_GUTGIM
_symmetry_cell_setting           monoclinic
_symmetry_space_group_name_H-M   'P 21/n'
_symmetry_Int_Tables_number      14
_space_group_name_Hall           '-P 2yn'
loop_
_symmetry_equiv_pos_site_id
_symmetry_equiv_pos_as_xyz
1 x,y,z
2 1/2-x,1/2+y,1/2-z
3 -x,-y,-z
4 1/2+x,1/2-y,1/2+z
_cell_length_a                   10.367(1)
_cell_length_b                   18.961(1)
_cell_length_c                   15.046(1)
_cell_angle_alpha                90
_cell_angle_beta                 100.633(1)
_cell_angle_gamma                90
_cell_volume                     2906.79
loop_
_atom_site_label
_atom_site_type_symbol
_atom_site_fract_x
_atom_site_fract_y
_atom_site_fract_z
Cd1 Cd 0.11922(3) 0.615517(18) 0.76947(2)
Cd2 Cd -0.19059(4) 0.523790(18) 0.61165(3)
O1 O 0.0271(3) 0.58681(17) 0.6174(2)
O2 O 0.3402(4) 0.61482(19) 0.7520(3)
O3 O 0.9455(3) 0.68166(18) 0.7653(3)
O4 O 0.8205(4) 0.58456(17) 0.7482(3)
N1 N 0.3500(4) 1.0030(2) 0.6851(3)
O5 O -0.4084(4) 0.5471(2) 0.5738(3)
O6 O 0.2637(3) 0.71690(19) 0.7840(3)
O7 O 0.5738(4) 0.92128(19) 0.8579(3)
N2 N 0.2806(4) 0.9229(2) 0.5812(3)
C1 C 0.7225(4) 0.6958(2) 0.7729(3)
C2 C 0.4930(4) 0.7101(2) 0.7784(3)
N3 N 0.3629(4) 1.1099(2) 0.5687(3)
C3 C 0.0337(5) 0.7008(3) 0.5490(3)
C4 C 0.7440(4) 0.7664(2) 0.7976(3)
H1 H 0.8278 0.7854 0.8034
C5 C 0.3234(5) 0.9428(3) 0.7277(3)
H2 H 0.3335 0.9369 0.7900
C6 C 0.3885(6) 1.1634(3) 0.5176(4)
H3 H 0.4019 1.2079 0.5437
C7 C 0.3434(5) 1.0452(3) 0.5313(3)
C8 C 0.2375(6) 0.8872(3) 0.4937(4)
H4 H 0.3131 0.8757 0.4669
H5 H 0.1808 0.9183 0.4526
C9 C 0.1642(5) 0.8204(3) 0.5081(3)
C10 C 0.5962(4) 0.6683(3) 0.7630(3)
H6 H 0.5809 0.6214 0.7459
O8 O -0.2070(5) 0.4912(3) 0.4598(3)
C11 C 0.2800(5) 0.8928(3) 0.6649(3)
H7 H 0.2546 0.8471 0.6760
C12 C -0.0363(5) 0.6369(3) 0.5726(3)
C13 C 0.2319(5) 0.7580(3) 0.5250(3)
H8 H 0.3206 0.7559 0.5221
C14 C 0.6412(5) 0.8083(2) 0.8135(3)
C15 C 0.5158(4) 0.7799(2) 0.8043(3)
H9 H 0.4469 0.8078 0.8155
C16 C 0.6658(5) 0.8845(2) 0.8416(3)
C17 C 0.3511(6) 1.0342(3) 0.4413(4)
H10 H 0.3359 0.9896 0.4158
C18 C 0.3576(5) 0.6787(3) 0.7709(3)
C19 C 0.3809(7) 1.0891(3) 0.3905(4)
H11 H 0.3911 1.0819 0.3311
C20 C -0.0341(5) 0.7629(3) 0.5292(4)
H12 H -0.1237 0.7646 0.5293
C21 C 0.8368(5) 0.6501(3) 0.7602(3)
C22 C 0.3242(5) 0.9905(2) 0.5964(3)
C23 C 0.1667(5) 0.6979(3) 0.5467(3)
H13 H 0.2124 0.6558 0.5596
C24 C 0.0310(6) 0.8233(3) 0.5090(4)
H14 H -0.0146 0.8654 0.4962
C25 C 0.3959(6) 1.1558(3) 0.4282(4)
H15 H 0.4106 1.1946 0.3936
O9 O -0.1592(4) 0.6344(2) 0.5488(3)
O10 O 0.7789(4) 0.9096(2) 0.8454(3)
Cd1_2 Cd 1.11922(3) 0.615517(18) 0.76947(2)
Cd1A Cd 0.38078(3) 1.115517(18) 0.73053(2)
Cd2_2 Cd 0.80941(4) 0.523790(18) 0.61165(3)
Cd2A Cd 0.69059(4) 1.023790(18) 0.88835(3)
O3_2 O -0.0545(3) 0.68166(18) 0.7653(3)
O4_2 O -0.1795(4) 0.58456(17) 0.7482(3)
N1A N 0.1500(4) 0.5030(2) 0.8149(3)
O7A O -0.0738(4) 0.42128(19) 0.6421(3)
N3A N 0.1371(4) 0.6099(2) 0.9313(3)
O10A O -0.2789(4) 0.4096(2) 0.6546(3)
O11 O 0.3076(4) 0.3323(3) 0.6244(3)
O12 O -0.4177(6) 0.5043(3) 0.3303(4)
O13 O 0.0056(9) 0.0081(5) 0.6074(7)
O14 O -0.4655(10) 0.3963(5) 0.7735(7)
O15 O -0.5145(5) 0.6559(3) 0.4705(3)
loop_
_geom_bond_atom_site_label_1
_geom_bond_atom_site_label_2
_geom_bond_site_symmetry_1
_geom_bond_site_symmetry_2
Cd1 O1 1_555 1_555
Cd2 O1 1_555 1_555
O1 C12 1_555 1_555
O2 Cd1 1_555 1_555
O3 C21 1_555 1_555
O4 C21 1_555 1_555
N1 C5 1_555 1_555
O5 Cd2 1_555 1_555
O6 Cd1 1_555 1_555
O7 C16 1_555 1_555
N2 C8 1_555 1_555
C1 C4 1_555 1_555
C2 C10 1_555 1_555
N3 C6 1_555 1_555
C3 C12 1_555 1_555
C4 H1 1_555 1_555
C5 H2 1_555 1_555
C6 H3 1_555 1_555
C7 N3 1_555 1_555
C8 H4 1_555 1_555
H5 C8 1_555 1_555
C9 C8 1_555 1_555
C10 C1 1_555 1_555
H6 C10 1_555 1_555
O8 Cd2 1_555 1_555
C11 N2 1_555 1_555
H7 C11 1_555 1_555
C12 O9 1_555 1_555
C13 C9 1_555 1_555
H8 C13 1_555 1_555
C14 C4 1_555 1_555
C15 C2 1_555 1_555
H9 C15 1_555 1_555
C16 C14 1_555 1_555
C17 C7 1_555 1_555
H10 C17 1_555 1_555
C18 O2 1_555 1_555
C19 C17 1_555 1_555
H11 C19 1_555 1_555
C20 C3 1_555 1_555
H12 C20 1_555 1_555
C21 C1 1_555 1_555
C22 N1 1_555 1_555
C23 C3 1_555 1_555
H13 C23 1_555 1_555
C24 C9 1_555 1_555
H14 C24 1_555 1_555
C25 C6 1_555 1_555
H15 C25 1_555 1_555
O9 Cd2 1_555 1_555
O10 C16 1_555 1_555
Cd1_2 O3 1_555 1_555
Cd1A N1 1_555 1_555
Cd2_2 O4 1_555 1_555
Cd2A O7 1_555 1_555
O3_2 Cd1 1_555 1_555
O4_2 Cd2 1_555 1_555
N1A Cd1 1_555 1_555
O7A Cd2 1_555 1_555
N3A Cd1 1_555 1_555
O10A Cd2 1_555 1_555
O6 C18 1_555 1_555
N2 C22 1_555 1_555
C2 C18 1_555 1_555
N3 Cd1A 1_555 1_555
C5 C11 1_555 1_555
C7 C22 1_555 1_555
C13 C23 1_555 1_555
C14 C15 1_555 1_555
C19 C25 1_555 1_555
C20 C24 1_555 1_555
O10 Cd2A 1_555 1_555

#END
