
#######################################################################
#
#                 Cambridge Crystallographic Data Centre
#                                CCDC 
#
#######################################################################
#
# If this CIF has been generated from an entry in the Cambridge 
# Structural Database, then it will include bibliographic, chemical, 
# crystal, experimental, refinement or atomic coordinate data resulting 
# from the CCDC's data processing and validation procedures.
#
#######################################################################

data_GUTKIQ
_symmetry_cell_setting           monoclinic
_symmetry_space_group_name_H-M   'P 21/c'
_symmetry_Int_Tables_number      14
_space_group_name_Hall           '-P 2ybc'
loop_
_symmetry_equiv_pos_site_id
_symmetry_equiv_pos_as_xyz
1 x,y,z
2 -x,1/2+y,1/2-z
3 -x,-y,-z
4 x,1/2-y,1/2+z
_cell_length_a                   8.616(3)
_cell_length_b                   17.837(6)
_cell_length_c                   15.724(5)
_cell_angle_alpha                90
_cell_angle_beta                 100.056(6)
_cell_angle_gamma                90
_cell_volume                     2379.4
loop_
_atom_site_label
_atom_site_type_symbol
_atom_site_fract_x
_atom_site_fract_y
_atom_site_fract_z
C1 C 0.5146(6) 0.4931(3) 0.6573(3)
C2 C 0.3525(6) 0.5068(3) 0.6293(3)
H1 H 0.2734 0.4799 0.6516
C3 C 0.3162(6) 0.5621(3) 0.5670(3)
H2 H 0.2086 0.5735 0.5459
C4 C 0.4332(6) 0.6017(3) 0.5341(3)
H3 H 0.4022 0.6396 0.4921
C5 C 0.5914(6) 0.5876(3) 0.5603(3)
H4 H 0.6700 0.6139 0.5369
C6 C 0.6293(6) 0.5327(3) 0.6231(3)
C7 C 0.9277(6) 0.5253(3) 0.6613(3)
H5 H 0.9357 0.5372 0.6007
H6 H 1.0010 0.4835 0.6805
C8 C 1.4488(6) 0.5118(3) 0.8812(3)
C9 C 1.6084(6) 0.5280(3) 0.9086(3)
H7 H 1.6884 0.4928 0.9024
C10 C 1.6437(6) 0.5965(3) 0.9444(3)
H8 H 1.7510 0.6095 0.9633
C11 C 1.5246(7) 0.6491(3) 0.9545(3)
H9 H 1.5549 0.6967 0.9790
C12 C 1.3675(7) 0.6335(3) 0.9299(3)
H10 H 1.2875 0.6682 0.9375
C13 C 1.3329(6) 0.5627(3) 0.8929(3)
C14 C 1.0373(5) 0.5593(3) 0.8430(3)
H11 H 1.0257 0.5942 0.8904
H12 H 0.9598 0.5183 0.8431
C15 C 0.5606(8) 0.2660(3) 0.7230(4)
H13 H 0.4817 0.2910 0.6833
H14 H 0.6603 0.2556 0.7076
C16 C 0.5311(8) 0.2451(3) 0.8016(4)
H15 H 0.6100 0.2201 0.8413
C17 C 0.3861(7) 0.2603(3) 0.8237(4)
H16 H 0.3073 0.2853 0.7839
H17 H 0.3652 0.2457 0.8787
N1 N 0.5898(5) 0.4420(2) 0.7158(2)
N2 N 0.7420(5) 0.4478(2) 0.7209(3)
N3 N 0.7681(4) 0.5018(2) 0.6651(2)
N4 N 1.3764(5) 0.4489(2) 0.8412(2)
N5 N 1.2214(4) 0.4595(2) 0.8275(2)
N6 N 1.1953(5) 0.5279(2) 0.8588(3)
Pd1 Pd 0.48369(5) 0.36081(2) 0.78364(2)
Se1 Se 0.99081(6) 0.61268(3) 0.73319(3)
N4_2 N 0.3764(5) 0.4489(2) 0.8412(2)
Pd1_2 Pd 1.48369(5) 0.36081(2) 0.78364(2)
C18 C 0.0183(7) 0.6869(3) 0.1681(4)
H18 H -0.0964 0.6924 0.1611
H19 H 0.0661 0.7360 0.1620
H20 H 0.0591 0.6666 0.2256
C19 C 0.0573(6) 0.6360(3) 0.1024(3)
N7 N 0.0843(6) 0.5953(3) 0.0512(3)
F1 F 0.8345(4) 0.7708(2) 0.9785(3)
F2 F 0.9416(4) 0.8864(2) 0.9808(2)
F3 F 0.8363(4) 0.8340(2) 0.8545(2)
F4 F 1.0999(4) 0.8475(2) 0.8910(2)
F5 F 0.9878(5) 0.7320(2) 0.8866(3)
F6 F 1.0986(4) 0.78423(19) 1.0125(2)
P1 P 0.96547(16) 0.80829(8) 0.93404(9)
loop_
_geom_bond_atom_site_label_1
_geom_bond_atom_site_label_2
_geom_bond_site_symmetry_1
_geom_bond_site_symmetry_2
C1 C2 1_555 1_555
C2 H1 1_555 1_555
C3 C2 1_555 1_555
H2 C3 1_555 1_555
C4 C3 1_555 1_555
H3 C4 1_555 1_555
C5 C4 1_555 1_555
H4 C5 1_555 1_555
C6 C1 1_555 1_555
C7 H5 1_555 1_555
H6 C7 1_555 1_555
C8 C9 1_555 1_555
C9 H7 1_555 1_555
C10 C9 1_555 1_555
H8 C10 1_555 1_555
C11 C10 1_555 1_555
H9 C11 1_555 1_555
C12 C11 1_555 1_555
H10 C12 1_555 1_555
C13 C8 1_555 1_555
C14 H11 1_555 1_555
H12 C14 1_555 1_555
C15 H13 1_555 1_555
H14 C15 1_555 1_555
C16 C15 1_555 1_555
H15 C16 1_555 1_555
C17 C16 1_555 1_555
H16 C17 1_555 1_555
H17 C17 1_555 1_555
N1 C1 1_555 1_555
N2 N1 1_555 1_555
N3 C6 1_555 1_555
N4 C8 1_555 1_555
N5 N4 1_555 1_555
N6 C13 1_555 1_555
Pd1 C15 1_555 1_555
Se1 C7 1_555 1_555
C18 H18 1_555 1_555
H19 C18 1_555 1_555
H20 C18 1_555 1_555
C19 C18 1_555 1_555
N7 C19 1_555 1_555
F1 P1 1_555 1_555
F2 P1 1_555 1_555
F3 P1 1_555 1_555
F4 P1 1_555 1_555
F5 P1 1_555 1_555
F6 P1 1_555 1_555
N4_2 Pd1 1_555 1_555
Pd1_2 N4 1_555 1_555
C5 C6 1_555 1_555
C7 N3 1_555 1_555
C12 C13 1_555 1_555
C14 N6 1_555 1_555
C14 Se1 1_555 1_555
C16 Pd1 1_555 1_555
C17 Pd1 1_555 1_555
N1 Pd1 1_555 1_555
N2 N3 1_555 1_555
N5 N6 1_555 1_555

#END
