
#######################################################################
#
#                 Cambridge Crystallographic Data Centre
#                                CCDC 
#
#######################################################################
#
# If this CIF has been generated from an entry in the Cambridge 
# Structural Database, then it will include bibliographic, chemical, 
# crystal, experimental, refinement or atomic coordinate data resulting 
# from the CCDC's data processing and validation procedures.
#
#######################################################################

data_GUTKEM
_symmetry_cell_setting           monoclinic
_symmetry_space_group_name_H-M   'P 21/c'
_symmetry_Int_Tables_number      14
_space_group_name_Hall           '-P 2ybc'
loop_
_symmetry_equiv_pos_site_id
_symmetry_equiv_pos_as_xyz
1 x,y,z
2 -x,1/2+y,1/2-z
3 -x,-y,-z
4 x,1/2-y,1/2+z
_cell_length_a                   8.647(2)
_cell_length_b                   18.093(4)
_cell_length_c                   15.182(3)
_cell_angle_alpha                90
_cell_angle_beta                 99.724(5)
_cell_angle_gamma                90
_cell_volume                     2341.1
loop_
_atom_site_label
_atom_site_type_symbol
_atom_site_fract_x
_atom_site_fract_y
_atom_site_fract_z
C1 C 0.3722(15) 0.7286(7) 0.8080(10)
H1 H 0.2851 0.7492 0.8272
C2 C 0.5204(19) 0.7428(7) 0.7904(12)
H2 H 0.6058 0.7578 0.8380
C3 C 0.551(2) 0.7223(8) 0.7030(12)
H3 H 0.5850 0.7395 0.6519
C4 C 0.9140(12) 0.4602(7) 0.6439(8)
H4 H 0.9851 0.5012 0.6608
H5 H 0.9236 0.4457 0.5835
C5 C 0.6156(13) 0.4513(7) 0.6078(7)
C6 C 0.5767(15) 0.3936(7) 0.5494(7)
H6 H 0.6526 0.3664 0.5269
C7 C 0.4180(14) 0.3780(7) 0.5257(8)
H7 H 0.3880 0.3372 0.4897
C8 C 0.3043(15) 0.4200(7) 0.5530(8)
H8 H 0.2001 0.4081 0.5318
C9 C 0.3359(12) 0.4802(7) 0.6112(7)
H9 H 0.2581 0.5081 0.6310
C10 C 0.4980(14) 0.4943(7) 0.6369(7)
C11 C 1.4355(13) 0.4860(6) 0.8714(7)
C12 C 1.5931(15) 0.4721(7) 0.8995(8)
H10 H 1.6696 0.5054 0.8887
C13 C 1.6320(16) 0.4072(8) 0.9439(8)
H11 H 1.7370 0.3970 0.9654
C14 C 1.5139(19) 0.3544(9) 0.9581(9)
H12 H 1.5435 0.3101 0.9871
C15 C 1.3549(16) 0.3695(7) 0.9286(8)
H13 H 1.2764 0.3371 0.9389
C16 C 1.3214(13) 0.4353(7) 0.8832(6)
C17 C 1.0285(12) 0.4347(7) 0.8319(8)
H14 H 0.9538 0.4749 0.8310
H15 H 1.0175 0.4029 0.8818
N1 N 0.5718(10) 0.5501(6) 0.6926(6)
N2 N 0.7241(12) 0.5430(5) 0.6970(6)
N3 N 0.7533(10) 0.4848(5) 0.6449(6)
N4 N 1.3563(12) 0.5431(5) 0.8230(6)
N5 N 1.2072(10) 0.5312(5) 0.8106(6)
N6 N 1.1839(10) 0.4652(5) 0.8466(6)
Pd1 Pd 0.46868(10) 0.62976(5) 0.76324(6)
Se1 Se 0.97532(15) 0.37885(7) 0.72273(9)
N4_2 N 0.3563(12) 0.5431(5) 0.8230(6)
Pd1_2 Pd 1.46868(10) 0.62976(5) 0.76324(6)
C18 C 0.9388(18) 0.6285(9) 0.8919(11)
C19 C 0.962(2) 0.6779(8) 0.8216(12)
H16 H 1.0601 0.6668 0.8028
H17 H 0.9638 0.7279 0.8429
H18 H 0.8781 0.6721 0.7720
N7 N 0.9179(19) 0.5918(8) 0.9422(11)
Cl1 Cl 0.0541(4) 0.7043(2) 0.5612(2)
O1 O 0.068(4) 0.7012(12) 0.4795(11)
O2 O 0.0790(19) 0.6322(6) 0.5910(12)
O3 O 0.151(3) 0.7531(10) 0.5903(17)
O4 O -0.082(2) 0.7270(8) 0.555(2)
loop_
_geom_bond_atom_site_label_1
_geom_bond_atom_site_label_2
_geom_bond_site_symmetry_1
_geom_bond_site_symmetry_2
C1 H1 1_555 1_555
C2 C1 1_555 1_555
H2 C2 1_555 1_555
C3 C2 1_555 1_555
H3 C3 1_555 1_555
C4 H4 1_555 1_555
H5 C4 1_555 1_555
C5 C6 1_555 1_555
C6 H6 1_555 1_555
C7 C6 1_555 1_555
H7 C7 1_555 1_555
C8 C7 1_555 1_555
H8 C8 1_555 1_555
C9 C8 1_555 1_555
H9 C9 1_555 1_555
C10 C5 1_555 1_555
C11 C12 1_555 1_555
C12 H10 1_555 1_555
C13 C12 1_555 1_555
H11 C13 1_555 1_555
C14 C13 1_555 1_555
H12 C14 1_555 1_555
C15 C14 1_555 1_555
H13 C15 1_555 1_555
C16 C11 1_555 1_555
C17 H14 1_555 1_555
H15 C17 1_555 1_555
N1 C10 1_555 1_555
N2 N1 1_555 1_555
N3 C4 1_555 1_555
N4 C11 1_555 1_555
N5 N4 1_555 1_555
N6 C16 1_555 1_555
Pd1 C1 1_555 1_555
Se1 C4 1_555 1_555
C18 C19 1_555 1_555
C19 H16 1_555 1_555
H17 C19 1_555 1_555
H18 C19 1_555 1_555
N7 C18 1_555 1_555
Cl1 O1 1_555 1_555
O2 Cl1 1_555 1_555
O3 Cl1 1_555 1_555
O4 Cl1 1_555 1_555
N4_2 Pd1 1_555 1_555
Pd1_2 N4 1_555 1_555
C2 Pd1 1_555 1_555
C3 Pd1 1_555 1_555
C5 N3 1_555 1_555
C9 C10 1_555 1_555
C15 C16 1_555 1_555
C17 N6 1_555 1_555
C17 Se1 1_555 1_555
N1 Pd1 1_555 1_555
N2 N3 1_555 1_555
N5 N6 1_555 1_555

#END
