
#######################################################################
#
#                 Cambridge Crystallographic Data Centre
#                                CCDC 
#
#######################################################################
#
# If this CIF has been generated from an entry in the Cambridge 
# Structural Database, then it will include bibliographic, chemical, 
# crystal, experimental, refinement or atomic coordinate data resulting 
# from the CCDC's data processing and validation procedures.
#
#######################################################################

data_GUTWEZ
_symmetry_cell_setting           triclinic
_symmetry_space_group_name_H-M   'P -1'
_symmetry_Int_Tables_number      2
_space_group_name_Hall           '-P 1'
loop_
_symmetry_equiv_pos_site_id
_symmetry_equiv_pos_as_xyz
1 x,y,z
2 -x,-y,-z
_cell_length_a                   11.1593(9)
_cell_length_b                   16.8755(13)
_cell_length_c                   18.511(2)
_cell_angle_alpha                109.589(5)
_cell_angle_beta                 95.072(5)
_cell_angle_gamma                109.019(3)
_cell_volume                     3027.5
loop_
_atom_site_label
_atom_site_type_symbol
_atom_site_fract_x
_atom_site_fract_y
_atom_site_fract_z
C1 C 0.3419(3) 0.44981(19) 0.17900(15)
H1 H 0.3341 0.3887 0.1531
C2 C 0.4297(3) 0.51577(18) 0.16237(16)
H2 H 0.4815 0.5006 0.1260
C3 C 0.4419(3) 0.60468(19) 0.19907(16)
H3 H 0.5000 0.6515 0.1871
C4 C 0.3684(3) 0.62441(19) 0.25357(16)
H4 H 0.3766 0.6854 0.2804
C5 C 0.2827(3) 0.55468(18) 0.26885(16)
C6 C 0.2068(3) 0.5764(2) 0.3307(2)
H5 H 0.1664 0.6176 0.3219
H6 H 0.2672 0.6089 0.3830
C7 C 0.1385(3) 0.4679(2) 0.42206(16)
H7 H 0.1545 0.5257 0.4664
H8 H 0.0699 0.4189 0.4299
C8 C 0.2621(3) 0.44882(19) 0.42298(16)
H9 H 0.2770 0.4304 0.4674
H10 H 0.3365 0.5053 0.4317
C9 C -0.1479(3) 0.25487(19) 0.23040(16)
H11 H -0.1690 0.2844 0.1985
C10 C -0.2475(3) 0.1918(2) 0.24396(17)
H12 H -0.3353 0.1780 0.2215
C11 C -0.2182(3) 0.14882(19) 0.29064(17)
H13 H -0.2854 0.1049 0.3008
C12 C -0.0901(3) 0.17068(18) 0.32210(16)
H14 H -0.0680 0.1420 0.3545
C13 C 0.0069(3) 0.23460(18) 0.30654(15)
C14 C 0.1479(3) 0.25732(19) 0.33780(16)
H15 H 0.1719 0.2062 0.3078
H16 H 0.1604 0.2637 0.3934
C15 C 0.1469(3) 0.19866(19) 0.12249(16)
C16 C 0.1410(3) 0.11003(17) 0.07017(16)
H17 H 0.1774 0.0824 0.1014
H18 H 0.1950 0.1182 0.0316
C17 C 0.0022(3) 0.04618(17) 0.02640(15)
H19 H -0.0524 0.0387 0.0648
H20 H -0.0338 0.0730 -0.0058
C18 C -0.0279(3) 0.38551(19) 0.10293(17)
C19 C -0.0722(3) 0.4042(2) 0.03568(17)
H21 H -0.1585 0.4082 0.0377
H22 H -0.0816 0.3535 -0.0137
C20 C 0.0224(3) 0.49177(19) 0.03594(17)
H23 H 0.1095 0.4887 0.0360
H24 H 0.0291 0.5430 0.0843
N1 N 0.2656(2) 0.46670(14) 0.23020(12)
N2 N -0.0212(2) 0.27672(14) 0.26052(12)
N3 N 0.0150(2) 0.37515(15) 0.15577(14)
N4 N 0.1463(2) 0.26641(15) 0.16370(13)
S1 S 0.08076(7) 0.47595(5) 0.33045(4)
S2 S 0.25558(7) 0.36019(5) 0.33222(4)
Fe1 Fe 0.12147(4) 0.36787(3) 0.24064(2)
C15A C -0.1469(3) -0.19866(19) -0.12249(16)
C16A C -0.1410(3) -0.11003(17) -0.07017(16)
H17A H -0.1774 -0.0824 -0.1014
H18A H -0.1950 -0.1182 -0.0316
C17A C -0.0022(3) -0.04618(17) -0.02640(15)
H19A H 0.0524 -0.0387 -0.0648
H20A H 0.0338 -0.0730 0.0058
N4A N -0.1463(2) -0.26641(15) -0.16370(13)
C18A C 0.0279(3) 0.61449(19) -0.10293(17)
C19A C 0.0722(3) 0.5958(2) -0.03568(17)
H21A H 0.1585 0.5918 -0.0377
H22A H 0.0816 0.6465 0.0137
C20A C -0.0224(3) 0.50823(19) -0.03594(17)
H23A H -0.1095 0.5113 -0.0360
H24A H -0.0291 0.4570 -0.0843
N3A N -0.0150(2) 0.62485(15) -0.15577(14)
C1A C -0.3419(3) -0.44981(19) -0.17900(15)
H1A H -0.3341 -0.3887 -0.1531
C2A C -0.4297(3) -0.51577(18) -0.16237(16)
H2A H -0.4815 -0.5006 -0.1260
C3A C -0.4419(3) -0.60468(19) -0.19907(16)
H3A H -0.5000 -0.6515 -0.1871
C4A C -0.3684(3) -0.62441(19) -0.25357(16)
H4A H -0.3766 -0.6854 -0.2804
C5A C -0.2827(3) -0.55468(18) -0.26885(16)
C6A C -0.2068(3) -0.5764(2) -0.3307(2)
H5A H -0.1664 -0.6176 -0.3219
H6A H -0.2672 -0.6089 -0.3830
C7A C -0.1385(3) -0.4679(2) -0.42206(16)
H7A H -0.1545 -0.5257 -0.4664
H8A H -0.0699 -0.4189 -0.4299
C8A C -0.2621(3) -0.44882(19) -0.42298(16)
H9A H -0.2770 -0.4304 -0.4674
H10A H -0.3365 -0.5053 -0.4317
C9A C 0.1479(3) -0.25487(19) -0.23040(16)
H11A H 0.1690 -0.2844 -0.1985
C10A C 0.2475(3) -0.1918(2) -0.24396(17)
H12A H 0.3353 -0.1780 -0.2215
C11A C 0.2182(3) -0.14882(19) -0.29064(17)
H13A H 0.2854 -0.1049 -0.3008
C12A C 0.0901(3) -0.17068(18) -0.32210(16)
H14A H 0.0680 -0.1420 -0.3545
C13A C -0.0069(3) -0.23460(18) -0.30654(15)
C14A C -0.1479(3) -0.25732(19) -0.33780(16)
H15A H -0.1719 -0.2062 -0.3078
H16A H -0.1604 -0.2637 -0.3934
N1A N -0.2656(2) -0.46670(14) -0.23020(12)
N2A N 0.0212(2) -0.27672(14) -0.26052(12)
S1A S -0.08076(7) -0.47595(5) -0.33045(4)
S2A S -0.25558(7) -0.36019(5) -0.33222(4)
Fe1A Fe -0.12147(4) -0.36787(3) -0.24064(2)
N3A_2 N -0.0150(2) -0.37515(15) -0.15577(14)
Fe1A_2 Fe -0.12147(4) 0.63213(3) -0.24064(2)
C21 C 0.7120(3) 0.69695(18) 0.44235(15)
C22 C 0.6190(3) 0.61147(19) 0.39261(16)
H25 H 0.5312 0.6057 0.3804
C23 C 0.6485(3) 0.53500(19) 0.36038(16)
H26 H 0.5816 0.4788 0.3270
C24 C 0.7745(3) 0.5400(2) 0.37649(16)
H27 H 0.7951 0.4877 0.3550
C25 C 0.8700(3) 0.6229(2) 0.42473(17)
H28 H 0.9576 0.6281 0.4360
C26 C 0.8386(3) 0.69928(19) 0.45697(16)
H29 H 0.9061 0.7552 0.4903
C27 C 0.5293(3) 0.75236(17) 0.50165(15)
C28 C 0.5090(3) 0.69704(19) 0.54525(16)
H30 H 0.5748 0.6754 0.5552
C29 C 0.3985(3) 0.67213(19) 0.57464(17)
H31 H 0.3899 0.6343 0.6036
C30 C 0.3014(3) 0.70256(19) 0.56155(17)
H32 H 0.2261 0.6870 0.5823
C31 C 0.3145(3) 0.7560(2) 0.51800(18)
H33 H 0.2476 0.7767 0.5081
C32 C 0.4259(3) 0.77945(19) 0.48858(17)
H34 H 0.4321 0.8156 0.4582
C33 C 0.6598(3) 0.82733(18) 0.40757(16)
C34 C 0.6806(3) 0.79081(18) 0.33229(16)
H35 H 0.6996 0.7374 0.3181
C35 C 0.6745(3) 0.82981(19) 0.27716(17)
H36 H 0.6912 0.8036 0.2270
C36 C 0.6444(3) 0.90609(19) 0.29497(17)
H37 H 0.6373 0.9314 0.2568
C37 C 0.6246(3) 0.9455(2) 0.36965(17)
H38 H 0.6048 0.9986 0.3831
C38 C 0.6338(3) 0.90714(19) 0.42431(17)
H39 H 0.6221 0.9359 0.4754
C39 C 0.7793(3) 0.86778(18) 0.55147(16)
C40 C 0.7610(3) 0.89826(18) 0.62869(16)
H40 H 0.6784 0.8712 0.6385
C41 C 0.8597(3) 0.96669(18) 0.69125(16)
H41 H 0.8438 0.9849 0.7427
C42 C 0.9807(3) 1.00834(18) 0.67904(16)
H42 H 1.0485 1.0542 0.7220
C43 C 1.0021(3) 0.98250(19) 0.60365(16)
H43 H 1.0844 1.0111 0.5942
C44 C 0.9021(3) 0.91432(18) 0.54184(16)
H44 H 0.9179 0.8984 0.4903
B1 B 0.6687(3) 0.7855(2) 0.47553(18)
C45 C 0.3767(3) 0.21404(18) -0.02700(15)
C46 C 0.3154(3) 0.12502(18) -0.08354(15)
H45 H 0.3632 0.0865 -0.0930
C47 C 0.1887(3) 0.09045(19) -0.12622(15)
H46 H 0.1512 0.0297 -0.1639
C48 C 0.1167(3) 0.1453(2) -0.11352(16)
H47 H 0.0296 0.1223 -0.1421
C49 C 0.1729(3) 0.23299(19) -0.05920(16)
H48 H 0.1244 0.2710 -0.0502
C50 C 0.3006(3) 0.26656(19) -0.01725(15)
H49 H 0.3375 0.3278 0.0196
C51 C 0.6160(3) 0.21219(17) -0.02825(16)
C52 C 0.7204(3) 0.19276(18) -0.00139(17)
H50 H 0.7329 0.1932 0.0502
C53 C 0.8060(3) 0.1729(2) -0.04782(18)
H51 H 0.8757 0.1601 -0.0276
C54 C 0.7909(3) 0.1714(2) -0.12315(19)
H52 H 0.8498 0.1579 -0.1548
C55 C 0.6896(3) 0.1898(2) -0.15182(17)
H53 H 0.6775 0.1886 -0.2037
C56 C 0.6051(3) 0.21015(18) -0.10474(16)
H54 H 0.5363 0.2234 -0.1255
C57 C 0.5974(3) 0.35834(18) 0.06617(16)
C58 C 0.5960(3) 0.40932(18) 0.01980(16)
H55 H 0.5422 0.3790 -0.0317
C59 C 0.6691(3) 0.50162(19) 0.04550(16)
H56 H 0.6648 0.5329 0.0118
C60 C 0.7484(3) 0.5481(2) 0.12035(17)
H57 H 0.7981 0.6114 0.1387
C61 C 0.7538(3) 0.5007(2) 0.16788(17)
H58 H 0.8085 0.5315 0.2191
C62 C 0.6797(3) 0.40808(19) 0.14136(16)
H59 H 0.6849 0.3773 0.1754
C63 C 0.4940(3) 0.19992(18) 0.09231(15)
C64 C 0.4647(3) 0.24091(18) 0.16434(16)
H60 H 0.4726 0.3024 0.1801
C65 C 0.4245(3) 0.19570(19) 0.21392(16)
H61 H 0.4066 0.2267 0.2624
C66 C 0.4104(3) 0.10579(19) 0.19273(16)
H62 H 0.3835 0.0747 0.2264
C67 C 0.4363(3) 0.06194(19) 0.12157(16)
H63 H 0.4258 -0.0001 0.1057
C68 C 0.4777(3) 0.10838(18) 0.07319(15)
H64 H 0.4959 0.0769 0.0250
B2 B 0.5220(3) 0.2471(2) 0.02766(18)
C69 C -0.0080(4) 0.7681(2) 0.3040(2)
H65 H -0.0198 0.8054 0.2753
H66 H -0.0503 0.7782 0.3486
H67 H -0.0470 0.7038 0.2687
C70 C 0.1341(4) 0.7938(2) 0.3335(2)
C71 C 0.2022(4) 0.8807(3) 0.4013(3)
H68 H 0.2931 0.8888 0.4167
H69 H 0.1600 0.8803 0.4454
H70 H 0.1989 0.9308 0.3867
O1 O 0.1889(3) 0.74556(19) 0.30498(17)
loop_
_geom_bond_atom_site_label_1
_geom_bond_atom_site_label_2
_geom_bond_site_symmetry_1
_geom_bond_site_symmetry_2
C1 H1 1_555 1_555
C2 C1 1_555 1_555
H2 C2 1_555 1_555
C3 C2 1_555 1_555
H3 C3 1_555 1_555
C4 C3 1_555 1_555
H4 C4 1_555 1_555
C5 C4 1_555 1_555
C6 C5 1_555 1_555
H5 C6 1_555 1_555
H6 C6 1_555 1_555
C7 H7 1_555 1_555
H8 C7 1_555 1_555
C8 C7 1_555 1_555
H9 C8 1_555 1_555
H10 C8 1_555 1_555
C9 H11 1_555 1_555
C10 C9 1_555 1_555
H12 C10 1_555 1_555
C11 C10 1_555 1_555
H13 C11 1_555 1_555
C12 C11 1_555 1_555
H14 C12 1_555 1_555
C13 C12 1_555 1_555
C14 C13 1_555 1_555
H15 C14 1_555 1_555
H16 C14 1_555 1_555
C15 C16 1_555 1_555
C16 H17 1_555 1_555
H18 C16 1_555 1_555
C17 C16 1_555 1_555
H19 C17 1_555 1_555
H20 C17 1_555 1_555
C18 C19 1_555 1_555
C19 H21 1_555 1_555
H22 C19 1_555 1_555
C20 C19 1_555 1_555
H23 C20 1_555 1_555
H24 C20 1_555 1_555
N1 C1 1_555 1_555
N2 C9 1_555 1_555
N3 C18 1_555 1_555
N4 C15 1_555 1_555
S1 C6 1_555 1_555
S2 C8 1_555 1_555
Fe1 N1 1_555 1_555
C21 C22 1_555 1_555
C22 H25 1_555 1_555
C23 C22 1_555 1_555
H26 C23 1_555 1_555
C24 C23 1_555 1_555
H27 C24 1_555 1_555
C25 C24 1_555 1_555
H28 C25 1_555 1_555
C26 C21 1_555 1_555
H29 C26 1_555 1_555
C27 C28 1_555 1_555
C28 H30 1_555 1_555
C29 C28 1_555 1_555
H31 C29 1_555 1_555
C30 C29 1_555 1_555
H32 C30 1_555 1_555
C31 C30 1_555 1_555
H33 C31 1_555 1_555
C32 C27 1_555 1_555
H34 C32 1_555 1_555
C33 C34 1_555 1_555
C34 H35 1_555 1_555
C35 C34 1_555 1_555
H36 C35 1_555 1_555
C36 C35 1_555 1_555
H37 C36 1_555 1_555
C37 C36 1_555 1_555
H38 C37 1_555 1_555
C38 C33 1_555 1_555
H39 C38 1_555 1_555
C39 C40 1_555 1_555
C40 H40 1_555 1_555
C41 C40 1_555 1_555
H41 C41 1_555 1_555
C42 C41 1_555 1_555
H42 C42 1_555 1_555
C43 C42 1_555 1_555
H43 C43 1_555 1_555
C44 C39 1_555 1_555
H44 C44 1_555 1_555
B1 C21 1_555 1_555
C45 C46 1_555 1_555
C46 H45 1_555 1_555
C47 C46 1_555 1_555
H46 C47 1_555 1_555
C48 C47 1_555 1_555
H47 C48 1_555 1_555
C49 C48 1_555 1_555
H48 C49 1_555 1_555
C50 C45 1_555 1_555
H49 C50 1_555 1_555
C51 C52 1_555 1_555
C52 H50 1_555 1_555
C53 C52 1_555 1_555
H51 C53 1_555 1_555
C54 C53 1_555 1_555
H52 C54 1_555 1_555
C55 C54 1_555 1_555
H53 C55 1_555 1_555
C56 C51 1_555 1_555
H54 C56 1_555 1_555
C57 C58 1_555 1_555
C58 H55 1_555 1_555
C59 C58 1_555 1_555
H56 C59 1_555 1_555
C60 C59 1_555 1_555
H57 C60 1_555 1_555
C61 C60 1_555 1_555
H58 C61 1_555 1_555
C62 C57 1_555 1_555
H59 C62 1_555 1_555
C63 C64 1_555 1_555
C64 H60 1_555 1_555
C65 C64 1_555 1_555
H61 C65 1_555 1_555
C66 C65 1_555 1_555
H62 C66 1_555 1_555
C67 C66 1_555 1_555
H63 C67 1_555 1_555
C68 C63 1_555 1_555
H64 C68 1_555 1_555
B2 C45 1_555 1_555
C69 H65 1_555 1_555
H66 C69 1_555 1_555
H67 C69 1_555 1_555
C70 C69 1_555 1_555
C71 C70 1_555 1_555
H68 C71 1_555 1_555
H69 C71 1_555 1_555
H70 C71 1_555 1_555
O1 C70 1_555 1_555
C15A C16A 1_555 1_555
C16A H17A 1_555 1_555
H18A C16A 1_555 1_555
C17A C17 1_555 1_555
H19A C17A 1_555 1_555
H20A C17A 1_555 1_555
N4A C15A 1_555 1_555
C18A C19A 1_555 1_555
C19A H21A 1_555 1_555
H22A C19A 1_555 1_555
C20A C20 1_555 1_555
H23A C20A 1_555 1_555
H24A C20A 1_555 1_555
N3A C18A 1_555 1_555
C1A H1A 1_555 1_555
C2A C1A 1_555 1_555
H2A C2A 1_555 1_555
C3A C2A 1_555 1_555
H3A C3A 1_555 1_555
C4A C3A 1_555 1_555
H4A C4A 1_555 1_555
C5A C4A 1_555 1_555
C6A C5A 1_555 1_555
H5A C6A 1_555 1_555
H6A C6A 1_555 1_555
C7A H7A 1_555 1_555
H8A C7A 1_555 1_555
C8A C7A 1_555 1_555
H9A C8A 1_555 1_555
H10A C8A 1_555 1_555
C9A H11A 1_555 1_555
C10A C9A 1_555 1_555
H12A C10A 1_555 1_555
C11A C10A 1_555 1_555
H13A C11A 1_555 1_555
C12A C11A 1_555 1_555
H14A C12A 1_555 1_555
C13A C12A 1_555 1_555
C14A C13A 1_555 1_555
H15A C14A 1_555 1_555
H16A C14A 1_555 1_555
N1A C1A 1_555 1_555
N2A C9A 1_555 1_555
S1A C6A 1_555 1_555
S2A C8A 1_555 1_555
Fe1A N4A 1_555 1_555
N3A_2 Fe1A 1_555 1_555
Fe1A_2 N3A 1_555 1_555
C5 N1 1_555 1_555
C7 S1 1_555 1_555
C13 N2 1_555 1_555
C14 S2 1_555 1_555
N2 Fe1 1_555 1_555
N3 Fe1 1_555 1_555
N4 Fe1 1_555 1_555
S1 Fe1 1_555 1_555
S2 Fe1 1_555 1_555
C25 C26 1_555 1_555
C27 B1 1_555 1_555
C31 C32 1_555 1_555
C33 B1 1_555 1_555
C37 C38 1_555 1_555
C39 B1 1_555 1_555
C43 C44 1_555 1_555
C49 C50 1_555 1_555
C51 B2 1_555 1_555
C55 C56 1_555 1_555
C57 B2 1_555 1_555
C61 C62 1_555 1_555
C63 B2 1_555 1_555
C67 C68 1_555 1_555
C16A C17A 1_555 1_555
C19A C20A 1_555 1_555
C5A N1A 1_555 1_555
C7A S1A 1_555 1_555
C13A N2A 1_555 1_555
C14A S2A 1_555 1_555
N1A Fe1A 1_555 1_555
N2A Fe1A 1_555 1_555
S1A Fe1A 1_555 1_555
S2A Fe1A 1_555 1_555

#END
