
#######################################################################
#
#                 Cambridge Crystallographic Data Centre
#                                CCDC 
#
#######################################################################
#
# If this CIF has been generated from an entry in the Cambridge 
# Structural Database, then it will include bibliographic, chemical, 
# crystal, experimental, refinement or atomic coordinate data resulting 
# from the CCDC's data processing and validation procedures.
#
#######################################################################

data_GUTYEA
_symmetry_cell_setting           orthorhombic
_symmetry_space_group_name_H-M   'P b c a'
_symmetry_Int_Tables_number      61
_space_group_name_Hall           '-P 2ac 2ab'
loop_
_symmetry_equiv_pos_site_id
_symmetry_equiv_pos_as_xyz
1 x,y,z
2 1/2-x,-y,1/2+z
3 -x,1/2+y,1/2-z
4 1/2+x,1/2-y,-z
5 -x,-y,-z
6 1/2+x,y,1/2-z
7 x,1/2-y,1/2+z
8 1/2-x,1/2+y,z
_cell_length_a                   15.080(3)
_cell_length_b                   11.474(2)
_cell_length_c                   31.527(6)
_cell_angle_alpha                90
_cell_angle_beta                 90
_cell_angle_gamma                90
_cell_volume                     5455.05
loop_
_atom_site_label
_atom_site_type_symbol
_atom_site_fract_x
_atom_site_fract_y
_atom_site_fract_z
Tb1 Tb 0.08899(2) 0.32813(3) 0.095491(11)
C1 C 0.2222(6) 0.3873(7) 0.1779(2)
C2 C 0.2305(7) 0.4690(8) 0.2118(3)
H1 H 0.1857 0.5234 0.2162
C3 C 0.3021(8) 0.4687(9) 0.2376(3)
H2 H 0.3055 0.5236 0.2592
C4 C 0.3704(7) 0.3894(8) 0.2329(3)
C5 C 0.4506(10) 0.3915(10) 0.2586(3)
H3 H 0.4565 0.4493 0.2791
C6 C 0.5137(9) 0.3169(10) 0.2543(4)
H4 H 0.5605 0.3169 0.2736
C7 C 0.5132(9) 0.2374(10) 0.2217(4)
H5 H 0.5606 0.1866 0.2180
C8 C 0.4419(6) 0.2337(9) 0.1948(3)
H6 H 0.4428 0.1802 0.1726
C9 C 0.3673(6) 0.3072(7) 0.1990(2)
C10 C 0.2902(5) 0.3041(6) 0.1723(2)
C11 C 0.2851(5) 0.2169(7) 0.1394(2)
H7 H 0.3307 0.1624 0.1383
C12 C 0.1768(5) 0.1032(6) 0.0520(2)
C13 C 0.1931(5) 0.0127(6) 0.0202(2)
C14 C 0.1358(7) 0.0104(8) -0.0147(3)
H8 H 0.0880 0.0616 -0.0159
C15 C 0.1495(8) -0.0668(9) -0.0472(3)
H9 H 0.1130 -0.0656 -0.0710
C16 C 0.2167(7) -0.1452(8) -0.0444(3)
H10 H 0.2243 -0.1999 -0.0659
C17 C 0.2732(6) -0.1450(7) -0.0107(3)
H11 H 0.3196 -0.1983 -0.0102
C18 C 0.2643(5) -0.0686(6) 0.0228(2)
C19 C -0.0926(7) 0.4036(10) 0.0267(4)
H12 H -0.1330 0.4086 0.0502
H13 H -0.1223 0.3694 0.0028
H14 H -0.0724 0.4803 0.0193
C20 C 0.0502(8) 0.0753(10) 0.1540(4)
H15 H 0.0741 0.0948 0.1813
H16 H 0.0960 0.0423 0.1366
H17 H 0.0031 0.0198 0.1573
H18 H 0.004(5) 0.311(9) 0.0156(10)
H19 H -0.033(3) 0.189(5) 0.142(3)
N1 N 0.2236(4) 0.2075(5) 0.11176(19)
N2 N 0.2355(4) 0.1146(6) 0.08369(18)
H20 H 0.2788 0.0666 0.0866
N3 N -0.0388(5) 0.5086(8) 0.1204(3)
O1 O 0.1539(4) 0.3939(5) 0.15371(16)
O2 O 0.1135(4) 0.1721(5) 0.04942(17)
O3 O 0.3194(3) -0.0699(4) 0.05552(15)
O4 O 0.0288(4) 0.5341(5) 0.09840(19)
O5 O -0.0918(5) 0.5822(8) 0.1313(3)
O6 O -0.0473(4) 0.4033(6) 0.1302(2)
O7 O -0.0171(4) 0.3318(6) 0.0384(2)
O8 O 0.0173(5) 0.1754(5) 0.1347(2)
Tb1G Tb 0.41101(2) -0.17187(3) 0.095491(11)
O3G O 0.1806(3) 0.4301(4) 0.05552(15)
C21 C 0.4581(13) 0.3204(14) 0.0701(6)
H21 H 0.4518 0.2915 0.0985
H22 H 0.4006 0.3290 0.0574
H23 H 0.4874 0.3947 0.0707
O9 O 0.5085(8) 0.2419(8) 0.0462(3)
H24 H 0.5173 0.1827 0.0602
C22 C 0.825(3) 0.155(3) 0.1962(8)
H25 H 0.8753 0.1475 0.2144
H26 H 0.7925 0.0827 0.1958
H27 H 0.7867 0.2158 0.2066
O10 O 0.8517(10) 0.1815(18) 0.1564(6)
H28 H 0.8286 0.2428 0.1489
loop_
_geom_bond_atom_site_label_1
_geom_bond_atom_site_label_2
_geom_bond_site_symmetry_1
_geom_bond_site_symmetry_2
Tb1 N1 1_555 1_555
C1 C2 1_555 1_555
C2 H1 1_555 1_555
C3 C2 1_555 1_555
H2 C3 1_555 1_555
C4 C3 1_555 1_555
C5 C4 1_555 1_555
H3 C5 1_555 1_555
C6 C5 1_555 1_555
H4 C6 1_555 1_555
C7 C6 1_555 1_555
H5 C7 1_555 1_555
C8 C7 1_555 1_555
H6 C8 1_555 1_555
C9 C4 1_555 1_555
C10 C1 1_555 1_555
C11 C10 1_555 1_555
H7 C11 1_555 1_555
C12 C13 1_555 1_555
C13 C14 1_555 1_555
C14 H8 1_555 1_555
C15 C14 1_555 1_555
H9 C15 1_555 1_555
C16 C15 1_555 1_555
H10 C16 1_555 1_555
C17 C16 1_555 1_555
H11 C17 1_555 1_555
C18 C13 1_555 1_555
C19 H12 1_555 1_555
H13 C19 1_555 1_555
H14 C19 1_555 1_555
C20 H15 1_555 1_555
H16 C20 1_555 1_555
H17 C20 1_555 1_555
H18 O7 1_555 1_555
H19 O8 1_555 1_555
N1 C11 1_555 1_555
N2 C12 1_555 1_555
H20 N2 1_555 1_555
N3 O4 1_555 1_555
O1 Tb1 1_555 1_555
O2 Tb1 1_555 1_555
O3 C18 1_555 1_555
O4 Tb1 1_555 1_555
O5 N3 1_555 1_555
O6 Tb1 1_555 1_555
O7 Tb1 1_555 1_555
O8 Tb1 1_555 1_555
C21 H21 1_555 1_555
H22 C21 1_555 1_555
H23 C21 1_555 1_555
O9 C21 1_555 1_555
H24 O9 1_555 1_555
C22 H25 1_555 1_555
H26 C22 1_555 1_555
H27 C22 1_555 1_555
O10 C22 1_555 1_555
H28 O10 1_555 1_555
Tb1G O3 1_555 1_555
O3G Tb1 1_555 1_555
C1 O1 1_555 1_555
C8 C9 1_555 1_555
C9 C10 1_555 1_555
C12 O2 1_555 1_555
C17 C18 1_555 1_555
C19 O7 1_555 1_555
C20 O8 1_555 1_555
N1 N2 1_555 1_555
N3 O6 1_555 1_555

#END
