
#######################################################################
#
#                 Cambridge Crystallographic Data Centre
#                                CCDC 
#
#######################################################################
#
# If this CIF has been generated from an entry in the Cambridge 
# Structural Database, then it will include bibliographic, chemical, 
# crystal, experimental, refinement or atomic coordinate data resulting 
# from the CCDC's data processing and validation procedures.
#
#######################################################################

data_GUTZEB
_symmetry_cell_setting           monoclinic
_symmetry_space_group_name_H-M   'C 2/c'
_symmetry_Int_Tables_number      15
_space_group_name_Hall           '-C 2yn'
loop_
_symmetry_equiv_pos_site_id
_symmetry_equiv_pos_as_xyz
1 x,y,z
2 -x,y,1/2-z
3 1/2+x,1/2+y,z
4 1/2-x,1/2+y,1/2-z
5 -x,-y,-z
6 x,-y,1/2+z
7 1/2-x,1/2-y,-z
8 1/2+x,1/2-y,1/2+z
_cell_length_a                   23.785(7)
_cell_length_b                   5.1592(15)
_cell_length_c                   7.652(3)
_cell_angle_alpha                90
_cell_angle_beta                 90.311(9)
_cell_angle_gamma                90
_cell_volume                     938.975
loop_
_atom_site_label
_atom_site_type_symbol
_atom_site_fract_x
_atom_site_fract_y
_atom_site_fract_z
Pb1 Pb 0.5000 0.82487(14) 0.7500
O1 O 0.5782(5) 0.558(3) 0.6855(15)
O2 O 0.5437(6) 0.210(3) 0.5521(13)
C1 C 0.5833(6) 0.363(3) 0.5976(17)
C2 C 0.6405(8) 0.283(3) 0.5517(19)
C3 C 0.6566(10) 0.061(5) 0.464(3)
H1 H 0.6277 -0.0542 0.4314
C4 C 0.7109(8) -0.011(5) 0.418(3)
H2 H 0.7165 -0.1698 0.3606
C5 C 0.7566(5) 0.142(3) 0.4538(19)
C6 C 0.6887(5) 0.427(4) 0.5908(18)
H3 H 0.6838 0.5834 0.6521
Pb1_2 Pb 0.5000 -0.17513(14) 0.7500
Pb1D Pb 0.5000 0.17513(14) 0.2500
Pb1F Pb 1.0000 -0.32487(14) 0.2500
Pb1F_2 Pb 1.0000 0.67513(14) 0.2500
Pb1B Pb 1.0000 0.32487(14) 0.7500
O1F O 0.9218(5) -0.058(3) 0.3145(15)
O1A O 0.4218(5) 0.558(3) 0.8145(15)
O2F O 0.9563(6) 0.290(3) 0.4479(13)
O2_2 O 0.5437(6) 1.210(3) 0.5521(13)
O2A O 0.4563(6) 1.210(3) 0.9479(13)
O2D O 0.4563(6) 0.790(3) 0.4479(13)
O2E O 0.5437(6) 0.790(3) 1.0521(13)
C1F C 0.9167(6) 0.137(3) 0.4024(17)
C2F C 0.8595(8) 0.217(3) 0.4483(19)
C3F C 0.8434(10) 0.439(5) 0.536(3)
H1F H 0.8723 0.5542 0.5686
C4F C 0.7891(8) 0.511(5) 0.582(3)
H2F H 0.7835 0.6698 0.6394
C5F C 0.7434(5) 0.358(3) 0.5462(19)
C6F C 0.8113(5) 0.073(4) 0.4092(18)
H3F H 0.8162 -0.0834 0.3479
loop_
_geom_bond_atom_site_label_1
_geom_bond_atom_site_label_2
_geom_bond_site_symmetry_1
_geom_bond_site_symmetry_2
Pb1 O1 1_555 1_555
O1 C1 1_555 1_555
O2 C1 1_555 1_555
C1 C2 1_555 1_555
C2 C3 1_555 1_555
C3 H1 1_555 1_555
C4 C3 1_555 1_555
H2 C4 1_555 1_555
C5 C4 1_555 1_555
C6 C2 1_555 1_555
H3 C6 1_555 1_555
Pb1_2 O2 1_555 1_555
Pb1D O2 1_555 1_555
Pb1F O1F 1_555 1_555
Pb1F_2 O2F 1_555 1_555
Pb1B O2F 1_555 1_555
O1F C1F 1_555 1_555
O1A Pb1 1_555 1_555
O2F C1F 1_555 1_555
O2_2 Pb1 1_555 1_555
O2A Pb1 1_555 1_555
O2D Pb1 1_555 1_555
O2E Pb1 1_555 1_555
C1F C2F 1_555 1_555
C2F C3F 1_555 1_555
C3F H1F 1_555 1_555
C4F C3F 1_555 1_555
H2F C4F 1_555 1_555
C5F C5 1_555 1_555
C6F C5 1_555 1_555
H3F C6F 1_555 1_555
C6 C5F 1_555 1_555
C2F C6F 1_555 1_555
C4F C5F 1_555 1_555

#END
