
#######################################################################
#
#                 Cambridge Crystallographic Data Centre
#                                CCDC 
#
#######################################################################
#
# If this CIF has been generated from an entry in the Cambridge 
# Structural Database, then it will include bibliographic, chemical, 
# crystal, experimental, refinement or atomic coordinate data resulting 
# from the CCDC's data processing and validation procedures.
#
#######################################################################

data_GUTZOL
_symmetry_cell_setting           orthorhombic
_symmetry_space_group_name_H-M   'C 2 2 21'
_symmetry_Int_Tables_number      20
_space_group_name_Hall           'C 2n 2'
loop_
_symmetry_equiv_pos_site_id
_symmetry_equiv_pos_as_xyz
1 x,y,z
2 -x,-y,1/2+z
3 -x,y,1/2-z
4 x,-y,-z
5 1/2+x,1/2+y,z
6 1/2-x,1/2-y,1/2+z
7 1/2-x,1/2+y,1/2-z
8 1/2+x,1/2-y,-z
_cell_length_a                   7.297(7)
_cell_length_b                   19.455(18)
_cell_length_c                   14.976(14)
_cell_angle_alpha                90
_cell_angle_beta                 90
_cell_angle_gamma                90
_cell_volume                     2126.04
loop_
_atom_site_label
_atom_site_type_symbol
_atom_site_fract_x
_atom_site_fract_y
_atom_site_fract_z
Cu1 Cu 0.0000 0.69168(3) 0.2500
Cl1 Cl -0.5000 0.68431(8) 0.2500
N1 N 0.0078(8) 0.61508(18) 0.3359(2)
N2 N -0.0169(8) 0.7472(2) 0.3624(3)
N3 N -0.0358(9) 0.8083(3) 0.4839(4)
H1 H -0.0441 0.8438 0.5178
C1 C 0.036(2) 0.4197(3) 0.2948(5)
H2 H 0.1680 0.4152 0.2922
H3 H -0.0118 0.3798 0.3262
C2 C -0.0122(17) 0.4840(3) 0.3477(4)
H4 H -0.1431 0.4853 0.3587
H5 H 0.0500 0.4831 0.4049
C3 C 0.0453(7) 0.5478(2) 0.2960(3)
H6 H 0.1779 0.5448 0.2865
C4 C -0.0090(12) 0.6304(3) 0.4170(3)
H7 H -0.0117 0.5972 0.4617
C5 C -0.0238(9) 0.7030(3) 0.4360(3)
C6 C -0.0366(15) 0.7406(4) 0.5128(5)
H8 H -0.0441 0.7245 0.5711
C7 C -0.0202(10) 0.8094(3) 0.3952(5)
H9 H -0.0126 0.8493 0.3612
O1 O -0.450(2) 0.6456(4) 0.3240(4)
O2 O -0.3536(10) 0.7185(6) 0.2174(6)
Cu1_2 Cu -1.0000 0.69168(3) 0.2500
N1B N -0.0078(8) 0.61508(18) 0.1641(2)
N2B N 0.0169(8) 0.7472(2) 0.1376(3)
N3B N 0.0358(9) 0.8083(3) 0.0161(4)
H1B H 0.0441 0.8438 -0.0178
C1B C -0.036(2) 0.4197(3) 0.2052(5)
H2B H -0.1680 0.4152 0.2078
H3B H 0.0118 0.3798 0.1738
C2B C 0.0122(17) 0.4840(3) 0.1523(4)
H4B H 0.1431 0.4853 0.1413
H5B H -0.0500 0.4831 0.0951
C3B C -0.0453(7) 0.5478(2) 0.2040(3)
H6B H -0.1779 0.5448 0.2135
C4B C 0.0090(12) 0.6304(3) 0.0830(3)
H7B H 0.0117 0.5972 0.0383
C5B C 0.0238(9) 0.7030(3) 0.0640(3)
C6B C 0.0366(15) 0.7406(4) -0.0128(5)
H8B H 0.0441 0.7245 -0.0711
C7B C 0.0202(10) 0.8094(3) 0.1048(5)
H9B H 0.0126 0.8493 0.1388
O1B O -0.550(2) 0.6456(4) 0.1760(4)
O2B O -0.6464(10) 0.7185(6) 0.2826(6)
O2B_2 O 0.3536(10) 0.7185(6) 0.2826(6)
Cl2 Cl 0.9729(5) 1.0000 0.5000
O3 O 0.8610(17) 0.9488(4) 0.5302(8)
O4 O 1.061(3) 0.9678(7) 0.437(2)
O3C O 0.8610(17) 1.0512(4) 0.4698(8)
O4C O 1.061(3) 1.0322(7) 0.563(2)
O5 O 0.0000 0.9619(14) 0.2500
loop_
_geom_bond_atom_site_label_1
_geom_bond_atom_site_label_2
_geom_bond_site_symmetry_1
_geom_bond_site_symmetry_2
Cu1 N1 1_555 1_555
Cl1 O1 1_555 1_555
N1 C3 1_555 1_555
N2 Cu1 1_555 1_555
N3 H1 1_555 1_555
C1 H2 1_555 1_555
H3 C1 1_555 1_555
C2 C1 1_555 1_555
H4 C2 1_555 1_555
H5 C2 1_555 1_555
C3 C2 1_555 1_555
H6 C3 1_555 1_555
C4 N1 1_555 1_555
H7 C4 1_555 1_555
C5 N2 1_555 1_555
C6 N3 1_555 1_555
H8 C6 1_555 1_555
C7 N2 1_555 1_555
H9 C7 1_555 1_555
O2 Cu1 1_555 1_555
Cl2 O3 1_555 1_555
O4 Cl2 1_555 1_555
Cu1_2 O2B 1_555 1_555
N1B Cu1 1_555 1_555
N2B Cu1 1_555 1_555
N3B H1B 1_555 1_555
C1B C1 1_555 1_555
H2B C1B 1_555 1_555
H3B C1B 1_555 1_555
C2B C1B 1_555 1_555
H4B C2B 1_555 1_555
H5B C2B 1_555 1_555
C3B C3 1_555 1_555
H6B C3B 1_555 1_555
C4B N1B 1_555 1_555
H7B C4B 1_555 1_555
C5B N2B 1_555 1_555
C6B N3B 1_555 1_555
H8B C6B 1_555 1_555
C7B N2B 1_555 1_555
H9B C7B 1_555 1_555
O1B Cl1 1_555 1_555
O2B Cl1 1_555 1_555
O2B_2 Cu1 1_555 1_555
O3C Cl2 1_555 1_555
O4C Cl2 1_555 1_555
Cl1 O2 1_555 1_555
N3 C7 1_555 1_555
C4 C5 1_555 1_555
C5 C6 1_555 1_555
N1B C3B 1_555 1_555
N3B C7B 1_555 1_555
C2B C3B 1_555 1_555
C4B C5B 1_555 1_555
C5B C6B 1_555 1_555

#END
