
#######################################################################
#
#                 Cambridge Crystallographic Data Centre
#                                CCDC 
#
#######################################################################
#
# If this CIF has been generated from an entry in the Cambridge 
# Structural Database, then it will include bibliographic, chemical, 
# crystal, experimental, refinement or atomic coordinate data resulting 
# from the CCDC's data processing and validation procedures.
#
#######################################################################

data_GUVCOP
_symmetry_cell_setting           monoclinic
_symmetry_space_group_name_H-M   'C 2/c'
_symmetry_Int_Tables_number      15
_space_group_name_Hall           '-C 2yn'
loop_
_symmetry_equiv_pos_site_id
_symmetry_equiv_pos_as_xyz
1 x,y,z
2 1/2+x,1/2+y,z
3 -x,y,1/2-z
4 1/2-x,1/2+y,1/2-z
5 -x,-y,-z
6 1/2-x,1/2-y,-z
7 x,-y,1/2+z
8 1/2+x,1/2-y,1/2+z
_cell_length_a                   24.042(8)
_cell_length_b                   12.490(4)
_cell_length_c                   31.150(7)
_cell_angle_alpha                90
_cell_angle_beta                 107.80(2)
_cell_angle_gamma                90
_cell_volume                     8906.09
loop_
_atom_site_label
_atom_site_type_symbol
_atom_site_fract_x
_atom_site_fract_y
_atom_site_fract_z
Pt1 Pt 0.28217(3) 0.49248(5) 0.39029(3)
Pt2 Pt 0.5000 0.73117(9) 0.7500
Cu1 Cu 0.5000 1.0000 0.5000
Cu2 Cu 0.53736(9) 0.80281(16) 0.45702(7)
Cu3 Cu 0.59980(9) 0.87048(17) 0.57071(7)
N1 N 0.2920(8) 0.5344(13) 0.3303(6)
H1 H 0.2706 0.5928 0.3192
H2 H 0.3297 0.5488 0.3334
N2 N 0.2733(7) 0.3416(11) 0.3643(5)
H3 H 0.2997 0.2980 0.3828
H4 H 0.2374 0.3165 0.3619
N3 N 0.2946(6) 0.6446(10) 0.4143(5)
N4 N 0.7757(6) 0.9429(11) 0.4501(5)
N5 N 0.5292(11) 0.6124(14) 0.7953(6)
H5 H 0.5672 0.6222 0.8105
H6 H 0.5087 0.6110 0.8151
N6 N 0.4692(8) 0.8457(12) 0.7016(5)
O1 O 0.4227(5) 0.9352(8) 0.4674(4)
O2 O 0.4514(5) 0.7882(8) 0.4381(4)
O3 O 0.6201(5) 0.8355(9) 0.4669(4)
O4 O 0.6600(5) 0.8493(10) 0.5421(5)
O5 O 0.4776(5) 1.0024(8) 0.5672(4)
O6 O 0.5480(5) 0.8944(10) 0.6063(4)
O7 O 0.5345(4) 0.8580(8) 0.5152(3)
O8 O 0.5383(5) 0.6287(10) 0.4898(5)
O9 O 0.5355(6) 0.7412(11) 0.3984(5)
O10 O 0.6634(5) 0.8935(12) 0.6262(4)
O11 O 0.5993(5) 0.6874(10) 0.5821(5)
C1 C 0.2713(15) 0.440(2) 0.2992(8)
H7 H 0.2296 0.4468 0.2848
H8 H 0.2900 0.4429 0.2756
C2 C 0.2821(13) 0.343(2) 0.3193(8)
H9 H 0.3221 0.3221 0.3224
H10 H 0.2565 0.2901 0.3002
C3 C 0.3441(7) 0.6957(13) 0.4208(6)
H11 H 0.3742 0.6616 0.4131
C4 C 0.3538(6) 0.7979(12) 0.4385(6)
C5 C 0.3101(8) 0.8515(16) 0.4478(7)
H12 H 0.3158 0.9199 0.4603
C6 C 0.2569(8) 0.8011(15) 0.4382(8)
H13 H 0.2252 0.8380 0.4421
C7 C 0.2497(8) 0.6988(15) 0.4230(8)
H14 H 0.2138 0.6650 0.4185
C8 C 0.4142(7) 0.8451(13) 0.4484(6)
C9 C 0.7253(7) 0.9059(12) 0.4554(6)
H15 H 0.6931 0.8965 0.4300
C10 C 0.7198(7) 0.8813(11) 0.4979(6)
C11 C 0.7686(8) 0.8897(14) 0.5350(7)
H16 H 0.7674 0.8711 0.5636
C12 C 0.8192(8) 0.9265(15) 0.5284(7)
H17 H 0.8529 0.9341 0.5527
C13 C 0.8199(8) 0.9522(15) 0.4854(7)
H18 H 0.8546 0.9778 0.4819
C14 C 0.6606(8) 0.8529(12) 0.5011(7)
C15 C 0.521(2) 0.5086(18) 0.7689(8)
H19 H 0.5571 0.4916 0.7629
H20 H 0.5135 0.4519 0.7877
C16 C 0.4935(9) 0.8579(14) 0.6685(6)
H21 H 0.5243 0.8138 0.6676
C17 C 0.4737(8) 0.9338(15) 0.6363(6)
C18 C 0.4253(10) 0.9958(18) 0.6364(7)
H22 H 0.4096 1.0453 0.6136
C19 C 0.4024(13) 0.983(2) 0.6697(9)
H23 H 0.3716 1.0259 0.6711
C20 C 0.4236(12) 0.905(2) 0.7020(9)
H24 H 0.4058 0.8950 0.7244
C21 C 0.5016(8) 0.9471(13) 0.5997(6)
C15B C 0.479(2) 0.5086(18) 0.7311(8)
N5B N 0.4708(11) 0.6124(14) 0.7047(6)
H5B H 0.4328 0.6222 0.6895
H6B H 0.4913 0.6110 0.6849
H19B H 0.4429 0.4916 0.7371
H20B H 0.4865 0.4519 0.7123
N6B N 0.5308(8) 0.8457(12) 0.7984(5)
O5B O 0.5224(5) 1.0024(8) 0.9328(4)
O6B O 0.4520(5) 0.8944(10) 0.8937(4)
C16B C 0.5065(9) 0.8579(14) 0.8315(6)
H21B H 0.4757 0.8138 0.8324
C17B C 0.5263(8) 0.9338(15) 0.8637(6)
C18B C 0.5747(10) 0.9958(18) 0.8636(7)
H22B H 0.5904 1.0453 0.8864
C19B C 0.5976(13) 0.983(2) 0.8303(9)
H23B H 0.6284 1.0259 0.8289
C20B C 0.5764(12) 0.905(2) 0.7980(9)
H24B H 0.5942 0.8950 0.7756
C21B C 0.4984(8) 0.9471(13) 0.9003(6)
Cu3B Cu 0.40020(9) 0.87048(17) 0.92929(7)
N3D N 0.7054(6) 1.3554(10) 0.5857(5)
O1D O 0.5773(5) 1.0648(8) 0.5326(4)
O2D O 0.5486(5) 1.2118(8) 0.5619(4)
C3D C 0.6559(7) 1.3043(13) 0.5792(6)
H11D H 0.6258 1.3384 0.5869
C4D C 0.6462(6) 1.2021(12) 0.5615(6)
C5D C 0.6899(8) 1.1485(16) 0.5522(7)
H12D H 0.6842 1.0801 0.5397
C6D C 0.7431(8) 1.1989(15) 0.5618(8)
H13D H 0.7748 1.1620 0.5579
C7D C 0.7503(8) 1.3012(15) 0.5770(8)
H14D H 0.7862 1.3350 0.5815
C8D C 0.5858(7) 1.1549(13) 0.5516(6)
O7D O 0.4655(4) 1.1420(8) 0.4848(3)
N4B N 0.2243(6) 0.9429(11) 1.0499(5)
O3B O 0.3799(5) 0.8355(9) 1.0331(4)
O4B O 0.3400(5) 0.8493(10) 0.9579(5)
C9B C 0.2747(7) 0.9059(12) 1.0446(6)
H15B H 0.3069 0.8965 1.0700
C10B C 0.2802(7) 0.8813(11) 1.0021(6)
C11B C 0.2314(8) 0.8897(14) 0.9650(7)
H16B H 0.2326 0.8711 0.9364
C12B C 0.1808(8) 0.9265(15) 0.9716(7)
H17B H 0.1471 0.9341 0.9473
C13B C 0.1801(8) 0.9522(15) 1.0146(7)
H18B H 0.1454 0.9778 1.0181
C14B C 0.3394(8) 0.8529(12) 0.9989(7)
O10B O 0.3366(5) 0.8935(12) 0.8738(4)
O11B O 0.4007(5) 0.6874(10) 0.9179(5)
Pt1D Pt 0.71783(3) 1.50752(5) 0.60971(3)
Cu2D Cu 0.46264(9) 1.19719(16) 0.54298(7)
N1D N 0.7080(8) 1.4656(13) 0.6697(6)
H1D H 0.7294 1.4072 0.6808
H2D H 0.6703 1.4512 0.6666
N2D N 0.7267(7) 1.6584(11) 0.6357(5)
H3D H 0.7003 1.7020 0.6172
H4D H 0.7626 1.6835 0.6381
C1D C 0.7287(15) 1.560(2) 0.7008(8)
H7D H 0.7704 1.5532 0.7152
H8D H 0.7100 1.5571 0.7244
C2D C 0.7179(13) 1.657(2) 0.6807(8)
H9D H 0.6779 1.6779 0.6776
H10D H 0.7435 1.7099 0.6998
O8D O 0.4617(5) 1.3713(10) 0.5102(5)
O9D O 0.4645(6) 1.2588(11) 0.6016(5)
N4A N 0.2757(6) 0.4429(11) 0.4501(5)
O5D O 0.5224(5) 0.9976(8) 0.4328(4)
Pt1A Pt 0.78217(3) 0.99248(5) 0.39029(3)
Cu1F Cu 0.5000 1.0000 1.0000
O7B O 0.4655(4) 0.8580(8) 0.9848(3)
Cu3D Cu 0.40020(9) 1.12952(17) 0.42929(7)
Pt1C Pt 0.21783(3) 0.99248(5) 1.10971(3)
Cu2B Cu 0.46264(9) 0.80281(16) 1.04298(7)
N4E N 0.7243(6) 1.5571(11) 0.5499(5)
O3D O 0.3799(5) 1.1645(9) 0.5331(4)
N7 N 0.291(2) -0.271(3) 0.6988(16)
O12 O 0.2895(16) -0.186(3) 0.7206(14)
O13 O 0.3322(17) -0.324(3) 0.7178(14)
O14 O 0.250(3) -0.282(6) 0.6633(19)
N8 N 0.4271(9) 0.6696(17) 0.5399(7)
O15 O 0.4536(7) 0.7523(12) 0.5452(6)
O16 O 0.4439(7) 0.5968(13) 0.5184(7)
O17 O 0.3862(9) 0.6579(16) 0.5536(9)
N9 N 0.0419(13) 0.9986(19) 0.1336(10)
O18 O 0.0547(12) 0.9124(19) 0.1481(8)
O19 O -0.0002(16) 1.039(2) 0.1327(12)
O20 O 0.0691(13) 1.053(3) 0.1189(13)
N10 N 0.3616(12) 0.720(2) 0.1522(10)
O21 O 0.3552(10) 0.7737(17) 0.1275(7)
O22 O 0.3304(13) 0.701(3) 0.1757(11)
O23 O 0.385(2) 0.646(4) 0.1472(15)
N11 N 0.097(3) 1.344(4) 0.2092(13)
O24 O 0.106(2) 1.427(3) 0.2269(13)
O25 O 0.116(2) 1.322(4) 0.1739(17)
O26 O 0.052(3) 1.276(5) 0.2216(18)
O27 O 0.2668(9) 0.515(2) 0.1406(8)
O28 O 0.3578(10) 0.104(2) 0.0473(9)
O29 O 0.1471(12) 0.392(3) 0.7058(8)
loop_
_geom_bond_atom_site_label_1
_geom_bond_atom_site_label_2
_geom_bond_site_symmetry_1
_geom_bond_site_symmetry_2
Pt1 N1 1_555 1_555
Pt2 N5 1_555 1_555
Cu1 O1 1_555 1_555
Cu2 O2 1_555 1_555
Cu3 O4 1_555 1_555
N1 H1 1_555 1_555
H2 N1 1_555 1_555
N2 Pt1 1_555 1_555
H3 N2 1_555 1_555
H4 N2 1_555 1_555
N3 Pt1 1_555 1_555
N4 C9 1_555 1_555
N5 H5 1_555 1_555
H6 N5 1_555 1_555
N6 Pt2 1_555 1_555
O1 C8 1_555 1_555
O2 C8 1_555 1_555
O3 Cu2 1_555 1_555
O4 C14 1_555 1_555
O5 Cu1 1_555 1_555
O6 Cu3 1_555 1_555
O7 Cu1 1_555 1_555
O8 Cu2 1_555 1_555
O9 Cu2 1_555 1_555
O10 Cu3 1_555 1_555
O11 Cu3 1_555 1_555
C1 N1 1_555 1_555
H7 C1 1_555 1_555
H8 C1 1_555 1_555
C2 N2 1_555 1_555
H9 C2 1_555 1_555
H10 C2 1_555 1_555
C3 N3 1_555 1_555
H11 C3 1_555 1_555
C4 C3 1_555 1_555
C5 C4 1_555 1_555
H12 C5 1_555 1_555
C6 C5 1_555 1_555
H13 C6 1_555 1_555
C7 N3 1_555 1_555
H14 C7 1_555 1_555
C8 C4 1_555 1_555
C9 H15 1_555 1_555
C10 C9 1_555 1_555
C11 C10 1_555 1_555
H16 C11 1_555 1_555
C12 C11 1_555 1_555
H17 C12 1_555 1_555
C13 N4 1_555 1_555
H18 C13 1_555 1_555
C14 O3 1_555 1_555
C15 N5 1_555 1_555
H19 C15 1_555 1_555
H20 C15 1_555 1_555
C16 N6 1_555 1_555
H21 C16 1_555 1_555
C17 C16 1_555 1_555
C18 C17 1_555 1_555
H22 C18 1_555 1_555
C19 C18 1_555 1_555
H23 C19 1_555 1_555
C20 N6 1_555 1_555
H24 C20 1_555 1_555
C21 O5 1_555 1_555
N7 O12 1_555 1_555
O13 N7 1_555 1_555
O14 N7 1_555 1_555
N8 O15 1_555 1_555
O16 N8 1_555 1_555
O17 N8 1_555 1_555
N9 O18 1_555 1_555
O19 N9 1_555 1_555
O20 N9 1_555 1_555
N10 O21 1_555 1_555
O22 N10 1_555 1_555
O23 N10 1_555 1_555
N11 O24 1_555 1_555
O25 N11 1_555 1_555
O26 N11 1_555 1_555
C15B C15 1_555 1_555
N5B Pt2 1_555 1_555
H5B N5B 1_555 1_555
H6B N5B 1_555 1_555
H19B C15B 1_555 1_555
H20B C15B 1_555 1_555
N6B Pt2 1_555 1_555
O5B C21B 1_555 1_555
O6B C21B 1_555 1_555
C16B N6B 1_555 1_555
H21B C16B 1_555 1_555
C17B C16B 1_555 1_555
C18B C17B 1_555 1_555
H22B C18B 1_555 1_555
C19B C18B 1_555 1_555
H23B C19B 1_555 1_555
C20B N6B 1_555 1_555
H24B C20B 1_555 1_555
C21B C17B 1_555 1_555
Cu3B O6B 1_555 1_555
N3D C3D 1_555 1_555
O1D Cu1 1_555 1_555
O2D C8D 1_555 1_555
C3D H11D 1_555 1_555
C4D C3D 1_555 1_555
C5D C4D 1_555 1_555
H12D C5D 1_555 1_555
C6D C5D 1_555 1_555
H13D C6D 1_555 1_555
C7D N3D 1_555 1_555
H14D C7D 1_555 1_555
C8D O1D 1_555 1_555
O7D Cu1 1_555 1_555
N4B C9B 1_555 1_555
O3B C14B 1_555 1_555
O4B Cu3B 1_555 1_555
C9B H15B 1_555 1_555
C10B C9B 1_555 1_555
C11B C10B 1_555 1_555
H16B C11B 1_555 1_555
C12B C11B 1_555 1_555
H17B C12B 1_555 1_555
C13B N4B 1_555 1_555
H18B C13B 1_555 1_555
C14B O4B 1_555 1_555
O10B Cu3B 1_555 1_555
O11B Cu3B 1_555 1_555
Pt1D N3D 1_555 1_555
Cu2D O2D 1_555 1_555
N1D Pt1D 1_555 1_555
H1D N1D 1_555 1_555
H2D N1D 1_555 1_555
N2D Pt1D 1_555 1_555
H3D N2D 1_555 1_555
H4D N2D 1_555 1_555
C1D N1D 1_555 1_555
H7D C1D 1_555 1_555
H8D C1D 1_555 1_555
C2D N2D 1_555 1_555
H9D C2D 1_555 1_555
H10D C2D 1_555 1_555
O8D Cu2D 1_555 1_555
O9D Cu2D 1_555 1_555
N4A Pt1 1_555 1_555
O5D Cu1 1_555 1_555
Pt1A N4 1_555 1_555
Cu1F O5B 1_555 1_555
O7B Cu3B 1_555 1_555
Cu3D O7D 1_555 1_555
Pt1C N4B 1_555 1_555
Cu2B O3B 1_555 1_555
N4E Pt1D 1_555 1_555
O3D Cu2D 1_555 1_555
Cu2 O7 1_555 1_555
Cu3 O7 1_555 1_555
O6 C21 1_555 1_555
C1 C2 1_555 1_555
C6 C7 1_555 1_555
C10 C14 1_555 1_555
C12 C13 1_555 1_555
C17 C21 1_555 1_555
C19 C20 1_555 1_555
C15B N5B 1_555 1_555
C19B C20B 1_555 1_555
C4D C8D 1_555 1_555
C6D C7D 1_555 1_555
O7D Cu2D 1_555 1_555
C10B C14B 1_555 1_555
C12B C13B 1_555 1_555
C1D C2D 1_555 1_555
Cu1F O7B 1_555 1_555
O7B Cu2B 1_555 1_555

#END
