
#######################################################################
#
#                 Cambridge Crystallographic Data Centre
#                                CCDC 
#
#######################################################################
#
# If this CIF has been generated from an entry in the Cambridge 
# Structural Database, then it will include bibliographic, chemical, 
# crystal, experimental, refinement or atomic coordinate data resulting 
# from the CCDC's data processing and validation procedures.
#
#######################################################################

data_GUVCEH
_symmetry_cell_setting           triclinic
_symmetry_space_group_name_H-M   'P -1'
_symmetry_Int_Tables_number      2
_space_group_name_Hall           '-P 1'
loop_
_symmetry_equiv_pos_site_id
_symmetry_equiv_pos_as_xyz
1 x,y,z
2 -x,-y,-z
_cell_length_a                   9.6591(5)
_cell_length_b                   9.7142(5)
_cell_length_c                   11.5382(7)
_cell_angle_alpha                111.594(5)
_cell_angle_beta                 94.739(4)
_cell_angle_gamma                97.575(4)
_cell_volume                     987.714
loop_
_atom_site_label
_atom_site_type_symbol
_atom_site_fract_x
_atom_site_fract_y
_atom_site_fract_z
Co1 Co 0.5000 0.5000 1.0000
O1 O 0.2938(2) 0.5284(3) 1.0298(2)
H1 H 0.2452 0.5350 0.9778
H2 H 0.2530 0.5215 1.0833
N1 N 0.5365(3) 0.7019(3) 0.9564(2)
N2 N 0.5673(3) 0.6151(3) 0.2035(2)
C1 C 0.4335(3) 0.7294(4) 0.8861(3)
H3 H 0.3443 0.6712 0.8700
C2 C 0.4527(3) 0.8390(3) 0.8366(3)
H4 H 0.3777 0.8525 0.7881
C3 C 0.5843(3) 0.9293(3) 0.8593(3)
C4 C 0.6902(3) 0.9052(3) 0.9349(3)
H5 H 0.7794 0.9646 0.9551
C5 C 0.6620(3) 0.7919(3) 0.9802(3)
H6 H 0.7348 0.7775 1.0303
C6 C 0.6115(4) 1.0428(3) 0.7995(3)
H7 H 0.7075 1.0972 0.8287
H8 H 0.5482 1.1147 0.8253
C7 C 0.5898(4) 0.9669(4) 0.6557(3)
H9 H 0.4911 0.9220 0.6265
H10 H 0.6123 1.0428 0.6210
C8 C 0.6799(3) 0.8460(4) 0.6065(3)
H11 H 0.7788 0.8923 0.6271
H12 H 0.6652 0.7755 0.6477
C9 C 0.6445(3) 0.7624(4) 0.4664(3)
C10 C 0.5134(4) 0.6722(5) 0.4135(3)
H13 H 0.4485 0.6591 0.4654
C11 C 0.4788(4) 0.6018(4) 0.2842(3)
H14 H 0.3902 0.5424 0.2516
C12 C 0.6956(3) 0.6975(4) 0.2547(3)
H15 H 0.7601 0.7058 0.2011
C13 C 0.7371(3) 0.7709(4) 0.3834(3)
H16 H 0.8278 0.8261 0.4140
N1A N 0.4635(3) 0.2981(3) 0.0436(2)
N2A N 0.4327(3) 0.3849(3) 0.7965(2)
C1A C 0.5665(3) 0.2706(4) 0.1139(3)
H3A H 0.6557 0.3288 0.1300
C2A C 0.5473(3) 0.1610(3) 0.1634(3)
H4A H 0.6223 0.1475 0.2119
C3A C 0.4157(3) 0.0707(3) 0.1407(3)
C4A C 0.3098(3) 0.0948(3) 0.0651(3)
H5A H 0.2206 0.0354 0.0449
C5A C 0.3380(3) 0.2081(3) 0.0198(3)
H6A H 0.2652 0.2225 -0.0303
C6A C 0.3885(4) -0.0428(3) 0.2005(3)
H7A H 0.2925 -0.0972 0.1713
H8A H 0.4518 -0.1147 0.1747
C7A C 0.4102(4) 0.0331(4) 0.3443(3)
H9A H 0.5089 0.0780 0.3735
H10A H 0.3877 -0.0428 0.3790
C8A C 0.3201(3) 0.1540(4) 0.3935(3)
H11A H 0.2212 0.1077 0.3729
H12A H 0.3348 0.2245 0.3523
C9A C 0.3555(3) 0.2376(4) 0.5336(3)
C10A C 0.4866(4) 0.3278(5) 0.5865(3)
H13A H 0.5515 0.3409 0.5346
C11A C 0.5212(4) 0.3982(4) 0.7158(3)
H14A H 0.6098 0.4576 0.7484
C12A C 0.3044(3) 0.3025(4) 0.7453(3)
H15A H 0.2399 0.2942 0.7989
C13A C 0.2629(3) 0.2291(4) 0.6166(3)
H16A H 0.1722 0.1739 0.5860
O1A O 0.7062(2) 0.4716(3) 0.9702(2)
H1A H 0.7548 0.4650 1.0222
H2A H 0.7470 0.4785 0.9167
Co1_2 Co 0.5000 0.5000 0.0000
N1A_2 N 0.4635(3) 0.2981(3) 1.0436(2)
N2_2 N 0.5673(3) 0.6151(3) 1.2035(2)
S1 S 0.00249(7) 0.64843(9) 0.85965(7)
O2 O -0.1436(2) 0.5757(3) 0.8143(2)
O3 O 0.0913(3) 0.5390(3) 0.8634(3)
O4 O 0.0198(3) 0.7785(3) 0.9761(2)
C14 C 0.0599(3) 0.7130(4) 0.7439(3)
C15 C 0.0474(4) 0.8579(4) 0.7547(4)
H17 H 0.0134 0.9222 0.8239
C16 C 0.0868(4) 0.9052(6) 0.6600(5)
H18 H 0.0797 1.0022 0.6662
C17 C 0.1359(4) 0.8105(6) 0.5580(4)
H19 H 0.1605 0.8429 0.4948
C18 C 0.1491(4) 0.6666(6) 0.5481(4)
H20 H 0.1835 0.6030 0.4789
C19 C 0.1110(4) 0.6173(5) 0.6418(3)
H21 H 0.1198 0.5208 0.6357
O5 O 0.9537(3) 0.2210(4) 0.7705(3)
H22 H 0.9672 0.2965 0.7831
H23 H 0.9483 0.2175 0.8377
loop_
_geom_bond_atom_site_label_1
_geom_bond_atom_site_label_2
_geom_bond_site_symmetry_1
_geom_bond_site_symmetry_2
Co1 O1 1_555 1_555
O1 H1 1_555 1_555
H2 O1 1_555 1_555
N1 Co1 1_555 1_555
N2 C11 1_555 1_555
C1 N1 1_555 1_555
H3 C1 1_555 1_555
C2 C1 1_555 1_555
H4 C2 1_555 1_555
C3 C2 1_555 1_555
C4 C3 1_555 1_555
H5 C4 1_555 1_555
C5 N1 1_555 1_555
H6 C5 1_555 1_555
C6 C3 1_555 1_555
H7 C6 1_555 1_555
H8 C6 1_555 1_555
C7 C6 1_555 1_555
H9 C7 1_555 1_555
H10 C7 1_555 1_555
C8 C7 1_555 1_555
H11 C8 1_555 1_555
H12 C8 1_555 1_555
C9 C8 1_555 1_555
C10 C9 1_555 1_555
H13 C10 1_555 1_555
C11 C10 1_555 1_555
H14 C11 1_555 1_555
C12 N2 1_555 1_555
H15 C12 1_555 1_555
C13 C9 1_555 1_555
H16 C13 1_555 1_555
S1 O2 1_555 1_555
O3 S1 1_555 1_555
O4 S1 1_555 1_555
C14 S1 1_555 1_555
C15 C14 1_555 1_555
H17 C15 1_555 1_555
C16 C15 1_555 1_555
H18 C16 1_555 1_555
C17 C16 1_555 1_555
H19 C17 1_555 1_555
C18 C17 1_555 1_555
H20 C18 1_555 1_555
C19 C14 1_555 1_555
H21 C19 1_555 1_555
O5 H22 1_555 1_555
H23 O5 1_555 1_555
N1A C1A 1_555 1_555
N2A Co1 1_555 1_555
C1A H3A 1_555 1_555
C2A C1A 1_555 1_555
H4A C2A 1_555 1_555
C3A C2A 1_555 1_555
C4A C3A 1_555 1_555
H5A C4A 1_555 1_555
C5A N1A 1_555 1_555
H6A C5A 1_555 1_555
C6A C3A 1_555 1_555
H7A C6A 1_555 1_555
H8A C6A 1_555 1_555
C7A C6A 1_555 1_555
H9A C7A 1_555 1_555
H10A C7A 1_555 1_555
C8A C7A 1_555 1_555
H11A C8A 1_555 1_555
H12A C8A 1_555 1_555
C9A C8A 1_555 1_555
C10A C9A 1_555 1_555
H13A C10A 1_555 1_555
C11A N2A 1_555 1_555
H14A C11A 1_555 1_555
C12A N2A 1_555 1_555
H15A C12A 1_555 1_555
C13A C9A 1_555 1_555
H16A C13A 1_555 1_555
O1A Co1 1_555 1_555
H1A O1A 1_555 1_555
H2A O1A 1_555 1_555
Co1_2 N2 1_555 1_555
N1A_2 Co1 1_555 1_555
N2_2 Co1 1_555 1_555
C4 C5 1_555 1_555
C12 C13 1_555 1_555
C18 C19 1_555 1_555
N1A Co1_2 1_555 1_555
C4A C5A 1_555 1_555
C10A C11A 1_555 1_555
C12A C13A 1_555 1_555

#END
