
#######################################################################
#
#                 Cambridge Crystallographic Data Centre
#                                CCDC 
#
#######################################################################
#
# If this CIF has been generated from an entry in the Cambridge 
# Structural Database, then it will include bibliographic, chemical, 
# crystal, experimental, refinement or atomic coordinate data resulting 
# from the CCDC's data processing and validation procedures.
#
#######################################################################

data_GUVFIN
_symmetry_cell_setting           triclinic
_symmetry_space_group_name_H-M   'P -1'
_symmetry_Int_Tables_number      2
_space_group_name_Hall           '-P 1'
loop_
_symmetry_equiv_pos_site_id
_symmetry_equiv_pos_as_xyz
1 x,y,z
2 -x,-y,-z
_cell_length_a                   6.8007(6)
_cell_length_b                   7.3759(6)
_cell_length_c                   11.5405(10)
_cell_angle_alpha                99.9550(10)
_cell_angle_beta                 90.3070(10)
_cell_angle_gamma                103.2940(10)
_cell_volume                     554.277
loop_
_atom_site_label
_atom_site_type_symbol
_atom_site_fract_x
_atom_site_fract_y
_atom_site_fract_z
Cu1 Cu 0.0000 0.0000 0.0000
N1 N 0.1576(3) -0.1605(3) 0.06176(17)
N2 N 0.2770(4) -0.4005(3) 0.14352(18)
N3 N 0.2989(4) -0.7179(3) 0.0482(2)
N4 N 0.1108(3) -0.0636(3) -0.16056(16)
N5 N 0.2420(4) -0.2895(4) -0.5872(2)
H1 H 0.1168(19) -0.294(5) -0.586(3)
H2 H 0.299(5) -0.309(5) -0.6518(17)
O1 O 0.5446(3) -0.2158(3) -0.49039(18)
C1 C 0.2118(3) -0.2807(3) 0.09360(19)
C2 C 0.2864(4) -0.5678(3) 0.0867(2)
C3 C -0.0103(4) -0.1350(4) -0.2571(2)
H3 H -0.1490 -0.1494 -0.2502
C4 C 0.0605(4) -0.1886(4) -0.3665(2)
H4 H -0.0290 -0.2393 -0.4314
C5 C 0.2667(4) -0.1656(3) -0.3782(2)
C6 C 0.3919(4) -0.0873(4) -0.2793(2)
H5 H 0.5314 -0.0665 -0.2845
C7 C 0.3097(4) -0.0397(3) -0.1725(2)
H6 H 0.3962 0.0110 -0.1063
C8 C 0.3627(4) -0.2262(4) -0.4914(2)
Cu1_2 Cu 0.0000 -1.0000 0.0000
Cu1_3 Cu 0.0000 1.0000 0.0000
N1A N -0.1576(3) 0.1605(3) -0.06176(17)
N2A N -0.2770(4) 0.4005(3) -0.14352(18)
N3_2 N 0.2989(4) 0.2821(3) 0.0482(2)
N3A N -0.2989(4) -0.2821(3) -0.0482(2)
N3A_2 N -0.2989(4) 0.7179(3) -0.0482(2)
N4A N -0.1108(3) 0.0636(3) 0.16056(16)
N5A N -0.2420(4) 0.2895(4) 0.5872(2)
H1A H -0.1168(19) 0.294(5) 0.586(3)
H2A H -0.299(5) 0.309(5) 0.6518(17)
O1A O -0.5446(3) 0.2158(3) 0.49039(18)
C1A C -0.2118(3) 0.2807(3) -0.09360(19)
C2A C -0.2864(4) 0.5678(3) -0.0867(2)
C3A C 0.0103(4) 0.1350(4) 0.2571(2)
H3A H 0.1490 0.1494 0.2502
C4A C -0.0605(4) 0.1886(4) 0.3665(2)
H4A H 0.0290 0.2393 0.4314
C5A C -0.2667(4) 0.1656(3) 0.3782(2)
C6A C -0.3919(4) 0.0873(4) 0.2793(2)
H5A H -0.5314 0.0665 0.2845
C7A C -0.3097(4) 0.0397(3) 0.1725(2)
H6A H -0.3962 -0.0110 0.1063
C8A C -0.3627(4) 0.2262(4) 0.4914(2)
O2 O 0.8160(4) -0.3511(5) -0.6296(2)
H7 H 0.723(5) -0.312(6) -0.593(4)
C9 C 0.7542(5) -0.4184(5) -0.7448(3)
H8 H 0.7358 -0.3160 -0.7816
H9 H 0.6287 -0.5116 -0.7493
H10 H 0.8548 -0.4751 -0.7846
loop_
_geom_bond_atom_site_label_1
_geom_bond_atom_site_label_2
_geom_bond_site_symmetry_1
_geom_bond_site_symmetry_2
Cu1 N1 1_555 1_555
N1 C1 1_555 1_555
N2 C1 1_555 1_555
N3 C2 1_555 1_555
N4 Cu1 1_555 1_555
N5 H1 1_555 1_555
H2 N5 1_555 1_555
O1 C8 1_555 1_555
C2 N2 1_555 1_555
C3 N4 1_555 1_555
H3 C3 1_555 1_555
C4 C3 1_555 1_555
H4 C4 1_555 1_555
C5 C4 1_555 1_555
C6 C5 1_555 1_555
H5 C6 1_555 1_555
C7 N4 1_555 1_555
H6 C7 1_555 1_555
C8 N5 1_555 1_555
O2 H7 1_555 1_555
C9 O2 1_555 1_555
H8 C9 1_555 1_555
H9 C9 1_555 1_555
H10 C9 1_555 1_555
Cu1_2 N3 1_555 1_555
Cu1_3 N3A_2 1_555 1_555
N1A Cu1 1_555 1_555
N2A C1A 1_555 1_555
N3_2 Cu1 1_555 1_555
N3A Cu1 1_555 1_555
N3A_2 C2A 1_555 1_555
N4A Cu1 1_555 1_555
N5A H1A 1_555 1_555
H2A N5A 1_555 1_555
O1A C8A 1_555 1_555
C1A N1A 1_555 1_555
C2A N2A 1_555 1_555
C3A N4A 1_555 1_555
H3A C3A 1_555 1_555
C4A C3A 1_555 1_555
H4A C4A 1_555 1_555
C5A C4A 1_555 1_555
C6A C5A 1_555 1_555
H5A C6A 1_555 1_555
C7A N4A 1_555 1_555
H6A C7A 1_555 1_555
C8A N5A 1_555 1_555
C5 C8 1_555 1_555
C6 C7 1_555 1_555
C5A C8A 1_555 1_555
C6A C7A 1_555 1_555

#END
