
#######################################################################
#
#                 Cambridge Crystallographic Data Centre
#                                CCDC 
#
#######################################################################
#
# If this CIF has been generated from an entry in the Cambridge 
# Structural Database, then it will include bibliographic, chemical, 
# crystal, experimental, refinement or atomic coordinate data resulting 
# from the CCDC's data processing and validation procedures.
#
#######################################################################

data_GUVHUB
_symmetry_cell_setting           monoclinic
_symmetry_space_group_name_H-M   'P 21/c'
_symmetry_Int_Tables_number      14
_space_group_name_Hall           '-P 2ybc'
loop_
_symmetry_equiv_pos_site_id
_symmetry_equiv_pos_as_xyz
1 x,y,z
2 -x,1/2+y,1/2-z
3 -x,-y,-z
4 x,1/2-y,1/2+z
_cell_length_a                   11.192(2)
_cell_length_b                   18.496(3)
_cell_length_c                   12.598(3)
_cell_angle_alpha                90
_cell_angle_beta                 107.961(2)
_cell_angle_gamma                90
_cell_volume                     2480.79
loop_
_atom_site_label
_atom_site_type_symbol
_atom_site_fract_x
_atom_site_fract_y
_atom_site_fract_z
Er1 Er 0.085363(12) -0.052262(7) 0.150860(11)
Er2 Er 0.123023(13) 0.200852(7) 0.126852(11)
C1 C 0.0303(3) 0.10333(16) 0.2527(3)
C2 C -0.0886(3) -0.13974(16) 0.2696(3)
C3 C -0.0355(3) 0.05357(16) 0.3085(3)
C4 C -0.0972(3) 0.07508(17) 0.3831(3)
H1 H -0.0962 0.1232 0.4046
C5 C -0.1609(4) 0.0231(2) 0.4254(3)
H2 H -0.2030 0.0359 0.4757
C6 C -0.1601(3) -0.04807(18) 0.3908(3)
H3 H -0.2018 -0.0839 0.4173
C7 C -0.0957(3) -0.06472(16) 0.3157(3)
C8 C 0.1187(3) -0.20438(17) 0.0242(3)
C9 C 0.3151(3) -0.09392(19) 0.3727(3)
C10 C 0.2287(3) -0.20952(16) 0.1261(3)
C11 C 0.3178(4) -0.26457(18) 0.1476(3)
H4 H 0.3144 -0.3005 0.0950
C12 C 0.4114(4) -0.2644(2) 0.2492(4)
H5 H 0.4734 -0.2998 0.2654
C13 C 0.4126(3) -0.2108(2) 0.3274(3)
H6 H 0.4731 -0.2110 0.3973
C14 C 0.3210(3) -0.15714(17) 0.2982(3)
C15 C 0.2223(3) 0.00682(16) 0.0119(3)
C16 C 0.3155(3) 0.15526(18) -0.0153(3)
C17 C 0.3046(3) 0.02232(17) -0.0587(3)
C18 C 0.3400(3) -0.03668(19) -0.1126(3)
H7 H 0.3152 -0.0832 -0.1010
C19 C 0.4116(4) -0.0256(2) -0.1826(3)
H8 H 0.4338 -0.0647 -0.2189
C20 C 0.4506(4) 0.0427(2) -0.1993(3)
H9 H 0.4982 0.0495 -0.2473
C21 C 0.4195(3) 0.1011(2) -0.1454(3)
H10 H 0.4472 0.1471 -0.1564
C22 C 0.3464(3) 0.09148(18) -0.0741(3)
N1 N -0.0333(2) -0.01545(12) 0.2770(2)
N2 N 0.2324(2) -0.15662(13) 0.2001(2)
O2 O 0.0190(2) 0.17114(11) 0.2604(2)
O3 O 0.0934(2) 0.07687(10) 0.19379(18)
O4 O -0.0240(2) -0.14629(11) 0.2048(2)
O5 O -0.1489(2) -0.18918(12) 0.2979(2)
O6 O 0.0876(3) -0.25537(13) -0.0430(2)
O7 O 0.0526(2) -0.14606(11) 0.01080(18)
O8 O 0.2300(2) -0.04805(11) 0.32978(19)
O9 O 0.3895(3) -0.09129(17) 0.4673(2)
O10 O 0.2678(2) -0.02298(14) 0.1048(2)
O11 O 0.1036(2) 0.01575(12) -0.02677(19)
O12 O 0.2561(2) 0.14282(12) 0.05536(19)
O13 O 0.3455(3) 0.21726(13) -0.0374(2)
O14 O 0.2987(2) 0.19371(12) 0.2807(2)
H11 H 0.3266 0.2343 0.3249
H12 H 0.3418 0.1502 0.2987
O15 O 0.1359(3) 0.27542(14) -0.0206(2)
H13 H 0.1470 0.3250 -0.0097
H14 H 0.1298 0.2553 -0.0897
Er1B Er -0.085363(12) 0.052262(7) -0.150860(11)
Er2A Er -0.123023(13) -0.299148(7) 0.373148(11)
Er2B Er -0.123023(13) -0.200852(7) -0.126852(11)
O5A O 0.1489(2) 0.31082(12) 0.2021(2)
O6B O -0.0876(3) 0.25537(13) 0.0430(2)
O7B O -0.0526(2) 0.14606(11) -0.01080(18)
O11B O -0.1036(2) -0.01575(12) 0.02677(19)
O1 O 0.3472(4) 0.0845(2) 0.4256(4)
O16? O 0.3994(12) 0.0767(6) 0.3630(10)
loop_
_geom_bond_atom_site_label_1
_geom_bond_atom_site_label_2
_geom_bond_site_symmetry_1
_geom_bond_site_symmetry_2
Er1 N1 1_555 1_555
Er2 O2 1_555 1_555
C1 C3 1_555 1_555
C2 C7 1_555 1_555
C3 C4 1_555 1_555
C4 H1 1_555 1_555
C5 C4 1_555 1_555
H2 C5 1_555 1_555
C6 C5 1_555 1_555
H3 C6 1_555 1_555
C7 C6 1_555 1_555
C8 C10 1_555 1_555
C9 C14 1_555 1_555
C10 C11 1_555 1_555
C11 H4 1_555 1_555
C12 C11 1_555 1_555
H5 C12 1_555 1_555
C13 C12 1_555 1_555
H6 C13 1_555 1_555
C14 C13 1_555 1_555
C15 C17 1_555 1_555
C16 C22 1_555 1_555
C17 C18 1_555 1_555
C18 H7 1_555 1_555
C19 C18 1_555 1_555
H8 C19 1_555 1_555
C20 C19 1_555 1_555
H9 C20 1_555 1_555
C21 C20 1_555 1_555
H10 C21 1_555 1_555
C22 C17 1_555 1_555
N1 C3 1_555 1_555
N2 Er1 1_555 1_555
O2 C1 1_555 1_555
O3 Er1 1_555 1_555
O4 Er1 1_555 1_555
O5 C2 1_555 1_555
O6 C8 1_555 1_555
O7 Er1 1_555 1_555
O8 Er1 1_555 1_555
O9 C9 1_555 1_555
O10 Er1 1_555 1_555
O11 Er1 1_555 1_555
O12 Er2 1_555 1_555
O13 C16 1_555 1_555
O14 Er2 1_555 1_555
H11 O14 1_555 1_555
H12 O14 1_555 1_555
O15 Er2 1_555 1_555
H13 O15 1_555 1_555
H14 O15 1_555 1_555
Er1B O11 1_555 1_555
Er2A O5 1_555 1_555
Er2B O6 1_555 1_555
O5A Er2 1_555 1_555
O6B Er2 1_555 1_555
O7B Er2 1_555 1_555
O11B Er1 1_555 1_555
Er2 O3 1_555 1_555
C1 O3 1_555 1_555
C2 O4 1_555 1_555
C7 N1 1_555 1_555
C8 O7 1_555 1_555
C9 O8 1_555 1_555
C10 N2 1_555 1_555
C14 N2 1_555 1_555
C15 O10 1_555 1_555
C15 O11 1_555 1_555
C16 O12 1_555 1_555
C21 C22 1_555 1_555
O7 Er2B 1_555 1_555
Er1B O7B 1_555 1_555
Er1B O11B 1_555 1_555

#END
