
#######################################################################
#
#                 Cambridge Crystallographic Data Centre
#                                CCDC 
#
#######################################################################
#
# If this CIF has been generated from an entry in the Cambridge 
# Structural Database, then it will include bibliographic, chemical, 
# crystal, experimental, refinement or atomic coordinate data resulting 
# from the CCDC's data processing and validation procedures.
#
#######################################################################

data_GUVKOZ
_symmetry_cell_setting           triclinic
_symmetry_space_group_name_H-M   'P -1'
_symmetry_Int_Tables_number      2
_space_group_name_Hall           '-P 1'
loop_
_symmetry_equiv_pos_site_id
_symmetry_equiv_pos_as_xyz
1 x,y,z
2 -x,-y,-z
_cell_length_a                   10.6771(13)
_cell_length_b                   11.7810(14)
_cell_length_c                   13.604(2)
_cell_angle_alpha                105.335(4)
_cell_angle_beta                 110.148(4)
_cell_angle_gamma                95.645(3)
_cell_volume                     1514.99
loop_
_atom_site_label
_atom_site_type_symbol
_atom_site_fract_x
_atom_site_fract_y
_atom_site_fract_z
Hg1 Hg -1.270526(16) -0.876747(13) -0.916669(13)
S1 S -1.19849(12) -0.83837(9) -1.05682(10)
C1 C -1.2284(4) -0.6994(4) -1.0468(3)
N1 N -1.2463(4) -0.6038(3) -1.0430(3)
Hg2 Hg -1.299674(17) -0.405261(13) -0.968391(14)
S2 S -1.39767(11) -0.44724(9) -0.84278(9)
N2 N -1.3006(5) -0.6599(3) -0.8284(3)
C2 C -1.3401(4) -0.5739(4) -0.8354(3)
Hg3 Hg -0.499982(16) -0.744884(13) -0.483862(13)
S3 S -1.41225(12) -0.95042(9) -0.83343(10)
N3 N -1.4337(4) -1.2016(3) -0.9164(3)
C3 C -1.4222(4) -1.0997(4) -0.8839(3)
C4 C -1.2100(4) -0.1794(4) -1.0293(4)
N4 N -1.1731(4) -0.0774(3) -0.9832(3)
S4 S -1.26184(13) -0.32604(9) -1.10408(10)
S5 S -0.54835(12) -0.80897(10) -0.34441(10)
N5 N -0.4463(4) -1.0226(3) -0.3713(3)
C5 C -0.4872(4) -0.9349(4) -0.3616(3)
S6 S -0.43555(11) -0.69968(9) -0.62533(10)
N6 N -0.5273(4) -0.4825(3) -0.6273(3)
C6 C -0.4900(4) -0.5711(4) -0.6241(4)
C7 C -0.9954(4) -0.7504(3) -0.6530(3)
C8 C -0.9341(4) -0.8526(4) -0.7908(4)
H1 H -0.9563 -0.8991 -0.8655
N7 N -1.0317(4) -0.8162(3) -0.7616(3)
C9 C -0.7966(4) -0.8256(4) -0.7154(4)
H2 H -0.7302 -0.8559 -0.7407
N8 N -0.7584(3) -0.7603(3) -0.6121(3)
C10 C -0.8569(4) -0.7208(3) -0.5775(4)
C11 C -0.8228(4) -0.6528(3) -0.4665(3)
H3 H -0.7303 -0.6320 -0.4160
C12 C -0.9210(4) -0.6167(4) -0.4307(4)
H4 H -0.8971 -0.5721 -0.3553
C13 C -1.0586(4) -0.6452(4) -0.5055(4)
H5 H -1.1263 -0.6181 -0.4801
C14 C -1.0954(4) -0.7112(4) -0.6140(4)
H6 H -1.1884 -0.7307 -0.6631
C15 C -0.9999(4) -0.2430(4) -0.7436(4)
N9 N -1.0486(4) -0.3521(3) -0.8253(3)
C16 C -0.9655(5) -0.4281(4) -0.8236(4)
H7 H -0.9961 -0.5047 -0.8790
C17 C -0.8318(5) -0.3985(4) -0.7413(4)
H8 H -0.7763 -0.4566 -0.7433
N10 N -0.7811(4) -0.2938(4) -0.6621(3)
C18 C -0.8656(4) -0.2139(4) -0.6628(4)
C19 C -0.8186(5) -0.1004(4) -0.5790(4)
H9 H -0.7287 -0.0804 -0.5241
C20 C -0.9013(5) -0.0201(4) -0.5767(4)
H10 H -0.8689 0.0563 -0.5209
C21 C -1.0356(5) -0.0502(4) -0.6571(4)
H11 H -1.0929 0.0063 -0.6540
C22 C -1.0850(5) -0.1581(4) -0.7391(4)
H12 H -1.1755 -0.1764 -0.7927
Hg1_2 Hg -1.270526(16) 0.123253(13) -0.916669(13)
Hg3A Hg -0.500018(16) -1.255116(13) -0.516138(13)
Hg3A_2 Hg -0.500018(16) -0.255116(13) -0.516138(13)
N4_2 N -1.1731(4) -1.0774(3) -0.9832(3)
N5A N -0.5537(4) -0.9774(3) -0.6287(3)
N6A N -0.4727(4) -0.5175(3) -0.3727(3)
loop_
_geom_bond_atom_site_label_1
_geom_bond_atom_site_label_2
_geom_bond_site_symmetry_1
_geom_bond_site_symmetry_2
Hg1 S1 1_555 1_555
S1 C1 1_555 1_555
C1 N1 1_555 1_555
N1 Hg2 1_555 1_555
Hg2 S2 1_555 1_555
S2 C2 1_555 1_555
N2 Hg1 1_555 1_555
C2 N2 1_555 1_555
Hg3 S5 1_555 1_555
S3 Hg1 1_555 1_555
N3 C3 1_555 1_555
C3 S3 1_555 1_555
C4 N4 1_555 1_555
N4 Hg1_2 1_555 1_555
S4 Hg2 1_555 1_555
S5 C5 1_555 1_555
N5 C5 1_555 1_555
S6 Hg3 1_555 1_555
N6 C6 1_555 1_555
C6 S6 1_555 1_555
C7 N7 1_555 1_555
C8 H1 1_555 1_555
N7 Hg1 1_555 1_555
C9 C8 1_555 1_555
H2 C9 1_555 1_555
N8 Hg3 1_555 1_555
C10 C7 1_555 1_555
C11 C10 1_555 1_555
H3 C11 1_555 1_555
C12 C11 1_555 1_555
H4 C12 1_555 1_555
C13 C12 1_555 1_555
H5 C13 1_555 1_555
C14 C7 1_555 1_555
H6 C14 1_555 1_555
C15 N9 1_555 1_555
N9 Hg2 1_555 1_555
C16 N9 1_555 1_555
H7 C16 1_555 1_555
C17 C16 1_555 1_555
H8 C17 1_555 1_555
N10 C17 1_555 1_555
C18 C15 1_555 1_555
C19 C18 1_555 1_555
H9 C19 1_555 1_555
C20 C19 1_555 1_555
H10 C20 1_555 1_555
C21 C20 1_555 1_555
H11 C21 1_555 1_555
C22 C15 1_555 1_555
H12 C22 1_555 1_555
Hg3A N5 1_555 1_555
Hg3A_2 N6 1_555 1_555
N4_2 Hg1 1_555 1_555
N5A Hg3 1_555 1_555
N6A Hg3 1_555 1_555
C4 S4 1_555 1_555
C8 N7 1_555 1_555
C9 N8 1_555 1_555
N8 C10 1_555 1_555
C13 C14 1_555 1_555
N10 C18 1_555 1_555
C21 C22 1_555 1_555

#END
