
#######################################################################
#
#                 Cambridge Crystallographic Data Centre
#                                CCDC 
#
#######################################################################
#
# If this CIF has been generated from an entry in the Cambridge 
# Structural Database, then it will include bibliographic, chemical, 
# crystal, experimental, refinement or atomic coordinate data resulting 
# from the CCDC's data processing and validation procedures.
#
#######################################################################

data_GUVPAO
_symmetry_cell_setting           triclinic
_symmetry_space_group_name_H-M   'P -1'
_symmetry_Int_Tables_number      2
_space_group_name_Hall           '-P 1'
loop_
_symmetry_equiv_pos_site_id
_symmetry_equiv_pos_as_xyz
1 x,y,z
2 -x,-y,-z
_cell_length_a                   9.259
_cell_length_b                   10.787
_cell_length_c                   14.865
_cell_angle_alpha                85.96
_cell_angle_beta                 88.61
_cell_angle_gamma                88.46
_cell_volume                     1480.07
loop_
_atom_site_label
_atom_site_type_symbol
_atom_site_fract_x
_atom_site_fract_y
_atom_site_fract_z
Zn1 Zn 0.48622(6) 0.35686(5) 0.22632(4)
S1 S 0.83195(15) 0.40508(13) 0.01729(9)
S2 S 0.68403(14) 0.53817(13) 0.45162(8)
S3 S 0.67801(15) 0.67926(12) 0.06310(8)
S4 S 0.82269(13) 0.25859(12) 0.43745(8)
O1 O 0.8415(4) 0.3184(4) 0.5206(2)
O2 O 0.8278(4) 0.1258(3) 0.4438(3)
O3 O 0.5546(4) 0.7581(3) 0.0393(2)
O4 O 0.7865(4) 0.6643(4) -0.0082(2)
N1 N 0.6406(4) 0.3395(4) 0.1350(3)
N2 N 0.5379(4) 0.4608(4) 0.3255(2)
N3 N 0.4990(4) 0.5850(4) 0.3298(3)
N4 N 0.7103(4) 0.2305(4) 0.1139(3)
N5 N 0.6775(4) 0.2999(4) 0.3882(3)
N6 N 0.6203(5) 0.5492(4) 0.1029(3)
N7 N 0.9346(8) 0.8839(7) 0.3787(4)
H1 H 1.298(5) 0.510(5) 0.175(3)
H2 H 1.276(5) 0.408(5) 0.131(4)
N8 N 1.2912(4) 0.4333(5) 0.1815(3)
H3 H 0.992(9) 0.848(8) 0.414(6)
H4 H 0.910(7) 0.951(6) 0.390(4)
N9 N 0.4140(4) 0.1838(4) 0.2570(3)
C1 C 0.9039(7) 0.1490(6) 0.0171(5)
H5 H 0.9725 0.1844 -0.0261
H6 H 0.8441 0.0928 -0.0116
H7 H 0.9543 0.1046 0.0655
C2 C 0.5436(7) 0.7708(5) 0.4113(4)
H8 H 0.6057 0.7886 0.4593
H9 H 0.4448 0.7855 0.4293
H10 H 0.5667 0.8236 0.3585
C3 C 0.8111(5) 0.2507(5) 0.0538(3)
C4 C 0.5653(5) 0.6368(5) 0.3905(3)
C5 C 0.6873(5) 0.4418(5) 0.0892(3)
C6 C 0.6349(5) 0.4194(5) 0.3852(3)
C7 C 0.7616(5) 0.7445(5) 0.1535(3)
C8 C 0.9617(5) 0.3113(4) 0.3622(3)
C9 C 0.7227(5) 0.8630(5) 0.1760(3)
H11 H 0.6556 0.9101 0.1418
C10 C 1.0505(5) 0.4032(5) 0.3845(3)
H12 H 1.0395 0.4364 0.4404
C11 C 0.7831(6) 0.9113(5) 0.2489(3)
H13 H 0.7582 0.9918 0.2632
C12 C 1.1569(5) 0.4470(5) 0.3239(3)
H14 H 1.2166 0.5100 0.3389
C13 C 0.8814(5) 0.8407(5) 0.3018(3)
C14 C 1.1736(5) 0.3965(4) 0.2414(3)
C15 C 0.9238(6) 0.7234(5) 0.2761(4)
H15 H 0.9938 0.6770 0.3084
C16 C 1.0828(5) 0.3042(5) 0.2185(3)
H16 H 1.0935 0.2710 0.1625
C17 C 0.8634(6) 0.6763(5) 0.2039(4)
H17 H 0.8908 0.5970 0.1882
C18 C 0.9767(5) 0.2616(5) 0.2785(3)
H18 H 0.9154 0.1999 0.2631
C19 C 0.3950(6) 0.1108(5) 0.1901(4)
H19 H 0.4320 0.1352 0.1330
C20 C 0.3237(8) 0.0017(6) 0.2017(6)
H20 H 0.3122 -0.0470 0.1533
C21 C 0.2693(8) -0.0354(7) 0.2849(7)
H21 H 0.2188 -0.1088 0.2939
C22 C 0.2902(8) 0.0373(7) 0.3553(6)
H22 H 0.2555 0.0134 0.4130
C23 C 0.3633(7) 0.1464(6) 0.3391(4)
H23 H 0.3779 0.1956 0.3868
N8_2 N 0.2912(4) 0.4333(5) 0.1815(3)
Zn1_2 Zn 1.48622(6) 0.35686(5) 0.22632(4)
H1_2 H 0.298(5) 0.510(5) 0.175(3)
H2_2 H 0.276(5) 0.408(5) 0.131(4)
O5 O 1.3292(5) 0.7006(4) 0.1787(3)
H24 H 1.387(7) 0.688(6) 0.217(4)
H25 H 1.392(10) 0.730(10) 0.125(5)
loop_
_geom_bond_atom_site_label_1
_geom_bond_atom_site_label_2
_geom_bond_site_symmetry_1
_geom_bond_site_symmetry_2
Zn1 N1 1_555 1_555
S1 C3 1_555 1_555
S2 C4 1_555 1_555
S3 O3 1_555 1_555
S4 O1 1_555 1_555
O2 S4 1_555 1_555
O4 S3 1_555 1_555
N1 N4 1_555 1_555
N2 Zn1 1_555 1_555
N3 N2 1_555 1_555
N4 C3 1_555 1_555
N5 S4 1_555 1_555
N6 S3 1_555 1_555
N7 H3 1_555 1_555
H1 N8 1_555 1_555
H2 N8 1_555 1_555
N8 C14 1_555 1_555
H4 N7 1_555 1_555
N9 Zn1 1_555 1_555
C1 H5 1_555 1_555
H6 C1 1_555 1_555
H7 C1 1_555 1_555
C2 H8 1_555 1_555
H9 C2 1_555 1_555
H10 C2 1_555 1_555
C3 C1 1_555 1_555
C4 N3 1_555 1_555
C5 S1 1_555 1_555
C6 S2 1_555 1_555
C7 S3 1_555 1_555
C8 S4 1_555 1_555
C9 C7 1_555 1_555
H11 C9 1_555 1_555
C10 C8 1_555 1_555
H12 C10 1_555 1_555
C11 C9 1_555 1_555
H13 C11 1_555 1_555
C12 C10 1_555 1_555
H14 C12 1_555 1_555
C13 N7 1_555 1_555
C14 C12 1_555 1_555
C15 C13 1_555 1_555
H15 C15 1_555 1_555
C16 C14 1_555 1_555
H16 C16 1_555 1_555
C17 C7 1_555 1_555
H17 C17 1_555 1_555
C18 C8 1_555 1_555
H18 C18 1_555 1_555
C19 N9 1_555 1_555
H19 C19 1_555 1_555
C20 C19 1_555 1_555
H20 C20 1_555 1_555
C21 C20 1_555 1_555
H21 C21 1_555 1_555
C22 C21 1_555 1_555
H22 C22 1_555 1_555
C23 N9 1_555 1_555
H23 C23 1_555 1_555
O5 H24 1_555 1_555
H25 O5 1_555 1_555
N8_2 Zn1 1_555 1_555
Zn1_2 N8 1_555 1_555
H1_2 N8_2 1_555 1_555
H2_2 N8_2 1_555 1_555
N1 C5 1_555 1_555
N2 C6 1_555 1_555
N5 C6 1_555 1_555
N6 C5 1_555 1_555
C2 C4 1_555 1_555
C11 C13 1_555 1_555
C15 C17 1_555 1_555
C16 C18 1_555 1_555
C22 C23 1_555 1_555

#END
