
#######################################################################
#
#                 Cambridge Crystallographic Data Centre
#                                CCDC 
#
#######################################################################
#
# If this CIF has been generated from an entry in the Cambridge 
# Structural Database, then it will include bibliographic, chemical, 
# crystal, experimental, refinement or atomic coordinate data resulting 
# from the CCDC's data processing and validation procedures.
#
#######################################################################

data_GUVRUL
_symmetry_cell_setting           monoclinic
_symmetry_space_group_name_H-M   'P 21/n'
_symmetry_Int_Tables_number      14
_space_group_name_Hall           '-P 2yn'
loop_
_symmetry_equiv_pos_site_id
_symmetry_equiv_pos_as_xyz
1 x,y,z
2 1/2-x,1/2+y,1/2-z
3 -x,-y,-z
4 1/2+x,1/2-y,1/2+z
_cell_length_a                   12.1936(11)
_cell_length_b                   10.7720(9)
_cell_length_c                   13.0685(11)
_cell_angle_alpha                90
_cell_angle_beta                 95.3730(10)
_cell_angle_gamma                90
_cell_volume                     1709
loop_
_atom_site_label
_atom_site_type_symbol
_atom_site_fract_x
_atom_site_fract_y
_atom_site_fract_z
Zn1 Zn 1.166935(19) 1.04418(2) 0.399595(18)
S1 S 1.12448(5) 0.53965(5) 0.67572(6)
O1 O 1.06903(14) 0.87879(14) 0.24351(13)
O2 O 1.04221(13) 1.07157(14) 0.29641(12)
O3 O 0.8203(3) 1.3628(2) 0.0664(3)
O4 O 0.69789(13) 1.28652(15) -0.05188(13)
N1 N 1.13865(15) 0.90302(17) 0.49945(14)
N2 N 0.80640(16) 0.49182(17) 0.82737(15)
C1 C 1.02287(17) 0.98130(19) 0.23302(16)
C2 C 0.94003(17) 1.0046(2) 0.14267(16)
C3 C 0.91123(19) 0.9091(2) 0.07277(18)
H1 H 0.9428 0.8309 0.0828
C4 C 0.8355(2) 0.9309(2) -0.01163(19)
H2 H 0.8163 0.8667 -0.0575
C5 C 0.7886(2) 1.0469(2) -0.02812(18)
H3 H 0.7377 1.0604 -0.0846
C6 C 0.81768(18) 1.1438(2) 0.04010(17)
C7 C 0.7736(2) 1.2734(2) 0.0209(2)
C8 C 0.89294(18) 1.1215(2) 0.12469(17)
H4 H 0.9123 1.1859 0.1703
C9 C 1.2086(2) 0.8799(2) 0.58323(18)
H5 H 1.2636 0.9374 0.6023
C10 C 1.2018(2) 0.7737(2) 0.64205(18)
H6 H 1.2508 0.7608 0.7000
C11 C 1.12102(18) 0.6871(2) 0.61325(17)
C12 C 1.04546(19) 0.7127(2) 0.53005(18)
H7 H 0.9882 0.6579 0.5110
C13 C 1.05712(19) 0.8214(2) 0.47597(18)
H8 H 1.0059 0.8388 0.4206
C14 C 0.8732(2) 0.3967(2) 0.8086(2)
H9 H 0.8543 0.3175 0.8292
C15 C 0.9683(2) 0.4108(2) 0.7602(2)
H10 H 1.0119 0.3425 0.7480
C16 C 0.99798(19) 0.52964(19) 0.72987(17)
C17 C 0.92890(18) 0.62830(19) 0.74728(16)
H11 H 0.9455 0.7083 0.7268
C18 C 0.83509(18) 0.6053(2) 0.79559(17)
H12 H 0.7891 0.6718 0.8069
Zn1C Zn 0.666935(19) 1.45582(2) -0.100405(18)
Zn1C_2 Zn 0.666935(19) 0.45582(2) 0.899595(18)
O4C O 1.19789(13) 1.21348(15) 0.44812(13)
N2C N 1.30640(16) 1.00818(17) 0.32737(15)
loop_
_geom_bond_atom_site_label_1
_geom_bond_atom_site_label_2
_geom_bond_site_symmetry_1
_geom_bond_site_symmetry_2
Zn1 O2 1_555 1_555
S1 C11 1_555 1_555
O1 C1 1_555 1_555
O2 C1 1_555 1_555
O3 C7 1_555 1_555
O4 C7 1_555 1_555
N1 Zn1 1_555 1_555
N2 C14 1_555 1_555
C1 C2 1_555 1_555
C2 C3 1_555 1_555
C3 H1 1_555 1_555
C4 C3 1_555 1_555
H2 C4 1_555 1_555
C5 C4 1_555 1_555
H3 C5 1_555 1_555
C6 C5 1_555 1_555
C7 C6 1_555 1_555
C8 C2 1_555 1_555
H4 C8 1_555 1_555
C9 N1 1_555 1_555
H5 C9 1_555 1_555
C10 C9 1_555 1_555
H6 C10 1_555 1_555
C11 C10 1_555 1_555
C12 C11 1_555 1_555
H7 C12 1_555 1_555
C13 N1 1_555 1_555
H8 C13 1_555 1_555
C14 H9 1_555 1_555
C15 C14 1_555 1_555
H10 C15 1_555 1_555
C16 S1 1_555 1_555
C17 C16 1_555 1_555
H11 C17 1_555 1_555
C18 N2 1_555 1_555
H12 C18 1_555 1_555
Zn1C O4 1_555 1_555
Zn1C_2 N2 1_555 1_555
O4C Zn1 1_555 1_555
N2C Zn1 1_555 1_555
C6 C8 1_555 1_555
C12 C13 1_555 1_555
C15 C16 1_555 1_555
C17 C18 1_555 1_555

#END
