
#######################################################################
#
#                 Cambridge Crystallographic Data Centre
#                                CCDC 
#
#######################################################################
#
# If this CIF has been generated from an entry in the Cambridge 
# Structural Database, then it will include bibliographic, chemical, 
# crystal, experimental, refinement or atomic coordinate data resulting 
# from the CCDC's data processing and validation procedures.
#
#######################################################################

data_GUVZAZ
_symmetry_cell_setting           triclinic
_symmetry_space_group_name_H-M   'P -1'
_symmetry_Int_Tables_number      2
_space_group_name_Hall           '-P 1'
loop_
_symmetry_equiv_pos_site_id
_symmetry_equiv_pos_as_xyz
1 x,y,z
2 -x,-y,-z
_cell_length_a                   9.6597(5)
_cell_length_b                   14.6326(7)
_cell_length_c                   14.6675(7)
_cell_angle_alpha                76.538(4)
_cell_angle_beta                 87.819(4)
_cell_angle_gamma                70.832(4)
_cell_volume                     1902.79
loop_
_atom_site_label
_atom_site_type_symbol
_atom_site_fract_x
_atom_site_fract_y
_atom_site_fract_z
C1 C -0.2781(6) 0.0272(4) 1.2492(4)
H1 H -0.2158 0.0622 1.2559
C2 C -0.3691(7) 0.0079(5) 1.3227(4)
H2 H -0.3678 0.0296 1.3773
C3 C -0.4581(7) -0.0429(5) 1.3117(5)
H3 H -0.5214 -0.0552 1.3587
C4 C -0.4566(5) -0.0765(4) 1.2326(4)
H4 H -0.5160 -0.1135 1.2260
C5 C -0.3659(5) -0.0549(3) 1.1628(4)
C6 C -0.3526(5) -0.0868(3) 1.0750(4)
C7 C -0.4282(5) -0.1453(4) 1.0529(4)
H5 H -0.4948 -0.1636 1.0945
C8 C -0.4059(5) -0.1760(4) 0.9715(5)
H6 H -0.4569 -0.2149 0.9566
C9 C -0.3066(5) -0.1485(4) 0.9118(4)
H7 H -0.2873 -0.1697 0.8562
C10 C -0.2349(5) -0.0882(3) 0.9354(4)
H8 H -0.1690 -0.0686 0.8940
C11 C -0.1535(5) 0.1296(3) 0.8609(3)
C12 C -0.0686(4) 0.1774(3) 0.7875(3)
C13 C -0.0705(4) 0.1683(3) 0.6931(3)
C14 C -0.1443(5) 0.1107(3) 0.6629(4)
H9 H -0.1978 0.0793 0.7054
C15 C -0.1383(6) 0.1007(4) 0.5736(4)
H10 H -0.1854 0.0611 0.5557
C16 C -0.0617(6) 0.1495(4) 0.5078(4)
H11 H -0.0598 0.1433 0.4460
C17 C 0.0098(5) 0.2059(4) 0.5339(4)
H12 H 0.0596 0.2383 0.4893
C18 C 0.0105(4) 0.2166(3) 0.6267(3)
C19 C 0.0875(4) 0.2726(3) 0.6556(3)
C20 C 0.1696(5) 0.3266(4) 0.5863(3)
C21 C 0.0883(5) 0.2778(3) 0.7470(3)
H13 H 0.1418 0.3132 0.7658
C22 C 0.0098(5) 0.2308(3) 0.8133(3)
H14 H 0.0111 0.2359 0.8752
C23 C 0.2326(5) 0.5497(3) 0.6056(3)
H15 H 0.1712 0.5159 0.6359
C24 C 0.2965(5) 0.5946(4) 0.6567(4)
H16 H 0.2777 0.5916 0.7198
C25 C 0.3877(5) 0.6433(4) 0.6128(4)
H17 H 0.4333 0.6733 0.6459
C26 C 0.4117(5) 0.6477(3) 0.5201(4)
H18 H 0.4738 0.6809 0.4897
C27 C 0.3437(4) 0.6028(3) 0.4710(3)
C28 C 0.3629(5) 0.6021(3) 0.3713(3)
C29 C 0.4531(5) 0.6451(3) 0.3159(4)
H19 H 0.5029 0.6796 0.3399
C30 C 0.4692(6) 0.6365(4) 0.2239(4)
H20 H 0.5319 0.6634 0.1856
C31 C 0.3920(6) 0.5882(4) 0.1909(4)
H21 H 0.4001 0.5817 0.1292
C32 C 0.3010(5) 0.5487(4) 0.2500(4)
H22 H 0.2473 0.5166 0.2260
C33 C 0.1553(6) 0.3709(4) 0.3157(3)
C34 C 0.0697(5) 0.3336(4) 0.2555(3)
C35 C 0.0862(5) 0.2341(4) 0.2802(3)
H23 H 0.1511 0.1929 0.3297
C36 C 0.0083(5) 0.1939(4) 0.2331(4)
H24 H 0.0223 0.1261 0.2515
C37 C -0.0881(5) 0.2506(4) 0.1607(4)
C38 C -0.1094(5) 0.3546(4) 0.1317(3)
C39 C -0.0292(5) 0.3965(3) 0.1801(3)
C40 C -0.0503(5) 0.4992(4) 0.1506(4)
H25 H 0.0002 0.5274 0.1825
C41 C -0.1432(6) 0.5583(4) 0.0764(4)
H26 H -0.1539 0.6255 0.0567
C42 C -0.2209(6) 0.5170(5) 0.0310(4)
H27 H -0.2867 0.5575 -0.0182
C43 C -0.2036(6) 0.4193(4) 0.0564(4)
H28 H -0.2559 0.3938 0.0228
C44 C -0.1657(6) 0.1996(4) 0.1121(4)
N1 N -0.2776(4) -0.0026(3) 1.1703(3)
N2 N -0.2570(4) -0.0578(3) 1.0143(3)
N3 N 0.2858(4) 0.5540(3) 0.3390(3)
N4 N 0.2548(4) 0.5525(2) 0.5149(3)
O1 O -0.0798(3) 0.0781(2) 0.9374(2)
O2 O -0.2829(3) 0.1417(3) 0.8464(3)
O3 O 0.3014(3) 0.2927(2) 0.5814(3)
O4 O 0.0886(3) 0.4108(2) 0.5374(2)
O5 O 0.2875(4) 0.3226(3) 0.3347(3)
O6 O 0.0829(3) 0.4488(3) 0.3432(2)
O7 O -0.2927(4) 0.2393(3) 0.0803(3)
O8 O -0.0883(3) 0.1097(3) 0.1118(2)
Cu1 Cu 0.16894(6) 0.49092(4) 0.43476(4)
Cu2 Cu -0.16508(6) 0.02993(4) 1.05551(4)
O1A O 0.0798(3) -0.0781(2) 1.0626(2)
O8_2 O -0.0883(3) 0.1097(3) 1.1118(2)
Cu2A Cu 0.16508(6) -0.02993(4) 0.94449(4)
Cu2_2 Cu -0.16508(6) 0.02993(4) 0.05551(4)
O9 O 0.4377(8) 0.1496(4) 0.4638(5)
O10 O -0.5486(7) 0.3415(5) 0.1622(5)
loop_
_geom_bond_atom_site_label_1
_geom_bond_atom_site_label_2
_geom_bond_site_symmetry_1
_geom_bond_site_symmetry_2
C1 H1 1_555 1_555
C2 C1 1_555 1_555
H2 C2 1_555 1_555
C3 C2 1_555 1_555
H3 C3 1_555 1_555
C4 C3 1_555 1_555
H4 C4 1_555 1_555
C5 C4 1_555 1_555
C6 C5 1_555 1_555
C7 C6 1_555 1_555
H5 C7 1_555 1_555
C8 C7 1_555 1_555
H6 C8 1_555 1_555
C9 C8 1_555 1_555
H7 C9 1_555 1_555
C10 C9 1_555 1_555
H8 C10 1_555 1_555
C11 C12 1_555 1_555
C12 C13 1_555 1_555
C13 C14 1_555 1_555
C14 H9 1_555 1_555
C15 C14 1_555 1_555
H10 C15 1_555 1_555
C16 C15 1_555 1_555
H11 C16 1_555 1_555
C17 C16 1_555 1_555
H12 C17 1_555 1_555
C18 C13 1_555 1_555
C19 C18 1_555 1_555
C20 C19 1_555 1_555
C21 C19 1_555 1_555
H13 C21 1_555 1_555
C22 C12 1_555 1_555
H14 C22 1_555 1_555
C23 H15 1_555 1_555
C24 C23 1_555 1_555
H16 C24 1_555 1_555
C25 C24 1_555 1_555
H17 C25 1_555 1_555
C26 C25 1_555 1_555
H18 C26 1_555 1_555
C27 C26 1_555 1_555
C28 C27 1_555 1_555
C29 C28 1_555 1_555
H19 C29 1_555 1_555
C30 C29 1_555 1_555
H20 C30 1_555 1_555
C31 C30 1_555 1_555
H21 C31 1_555 1_555
C32 C31 1_555 1_555
H22 C32 1_555 1_555
C33 C34 1_555 1_555
C34 C35 1_555 1_555
C35 H23 1_555 1_555
C36 C35 1_555 1_555
H24 C36 1_555 1_555
C37 C36 1_555 1_555
C38 C37 1_555 1_555
C39 C34 1_555 1_555
C40 C39 1_555 1_555
H25 C40 1_555 1_555
C41 C40 1_555 1_555
H26 C41 1_555 1_555
C42 C41 1_555 1_555
H27 C42 1_555 1_555
C43 C38 1_555 1_555
H28 C43 1_555 1_555
C44 C37 1_555 1_555
N1 C1 1_555 1_555
N2 C6 1_555 1_555
N3 C28 1_555 1_555
N4 C23 1_555 1_555
O1 C11 1_555 1_555
O2 C11 1_555 1_555
O3 C20 1_555 1_555
O4 C20 1_555 1_555
O5 C33 1_555 1_555
O6 C33 1_555 1_555
O7 C44 1_555 1_555
O8 C44 1_555 1_555
Cu1 N3 1_555 1_555
Cu2 N1 1_555 1_555
O1A Cu2 1_555 1_555
O8_2 Cu2 1_555 1_555
Cu2A O1 1_555 1_555
Cu2_2 O8 1_555 1_555
C5 N1 1_555 1_555
C10 N2 1_555 1_555
C17 C18 1_555 1_555
C21 C22 1_555 1_555
C27 N4 1_555 1_555
C32 N3 1_555 1_555
C38 C39 1_555 1_555
C42 C43 1_555 1_555
N2 Cu2 1_555 1_555
N4 Cu1 1_555 1_555
O1 Cu2 1_555 1_555
O4 Cu1 1_555 1_555
O6 Cu1 1_555 1_555
O1A Cu2A 1_555 1_555

#END
