
#######################################################################
#
#                 Cambridge Crystallographic Data Centre
#                                CCDC 
#
#######################################################################
#
# If this CIF has been generated from an entry in the Cambridge 
# Structural Database, then it will include bibliographic, chemical, 
# crystal, experimental, refinement or atomic coordinate data resulting 
# from the CCDC's data processing and validation procedures.
#
#######################################################################

data_GUVZED
_symmetry_cell_setting           triclinic
_symmetry_space_group_name_H-M   'P -1'
_symmetry_Int_Tables_number      2
_space_group_name_Hall           '-P 1'
loop_
_symmetry_equiv_pos_site_id
_symmetry_equiv_pos_as_xyz
1 x,y,z
2 -x,-y,-z
_cell_length_a                   10.8052(7)
_cell_length_b                   12.2282(8)
_cell_length_c                   16.9267(11)
_cell_angle_alpha                85.7570(10)
_cell_angle_beta                 78.0750(10)
_cell_angle_gamma                70.1740(10)
_cell_volume                     2058.51
loop_
_atom_site_label
_atom_site_type_symbol
_atom_site_fract_x
_atom_site_fract_y
_atom_site_fract_z
Cu1 Cu 0.56528(2) 0.81819(2) 0.330121(16)
Cu2 Cu 0.75619(2) 0.75021(2) -0.054180(15)
S1 S 0.23762(6) 0.62340(5) 0.02524(4)
S2 S 0.46182(7) 0.58430(5) 0.11862(4)
S3 S 0.45430(7) 0.41887(5) 0.26241(4)
S4 S 0.39627(7) 0.53603(6) 0.42285(4)
S5 S 0.64049(7) 1.14615(5) 0.36502(4)
S6 S 0.82305(6) 1.14374(5) 0.20320(4)
S7 S 0.99164(6) 0.91070(5) 0.12606(5)
S8 S 1.28278(6) 0.87978(5) 0.12130(5)
S9 S 0.98852(7) 0.60316(6) 0.22515(5)
S10 S 1.11708(7) 0.70163(8) 0.33082(6)
S11 S 0.99060(6) 0.95223(8) 0.38761(5)
S12 S 1.16721(8) 1.08582(6) 0.30172(5)
O1 O 0.57168(17) 0.81244(16) 0.47320(10)
O2 O 0.7318(3) 0.6644(2) 0.5029(2)
O3 O 0.7253(2) 0.8378(2) 0.52495(15)
O4 O 0.95353(14) 0.67524(13) -0.06574(10)
O5 O 1.12352(18) 0.58874(18) -0.15818(14)
O6 O 0.9310(2) 0.68285(17) -0.19065(12)
O7 O 0.55967(14) 0.81088(13) -0.03384(10)
O8 O 0.5726(3) 0.80885(17) -0.16301(13)
O9 O 0.39366(19) 0.80058(18) -0.08054(18)
O10 O 0.73781(19) 0.74251(16) 0.08360(11)
O11 O 0.63583(19) 0.92736(15) 0.09534(12)
O12 O 0.56889(18) 0.81092(18) 0.18169(10)
N1 N 0.25535(17) 0.41294(15) 0.05305(11)
N2 N 0.34973(18) 0.42878(15) 0.09035(12)
N3 N 0.52108(19) 0.60327(16) 0.29310(12)
N4 N 0.50981(18) 0.67701(15) 0.35411(11)
N5 N 0.61635(17) 0.96080(15) 0.32558(11)
N6 N 0.70148(17) 0.98622(15) 0.25989(11)
N7 N 1.11105(17) 1.07331(15) 0.09162(12)
N8 N 1.23249(16) 1.09158(15) 0.08222(11)
N9 N 0.76217(17) 0.72472(16) 0.30009(11)
N10 N 0.85228(18) 0.75247(17) 0.33531(12)
N11 N 1.26128(18) 0.88756(17) 0.36745(12)
N12 N 1.36932(18) 0.92245(16) 0.33338(11)
N13 N 0.6785(2) 0.7702(2) 0.50163(14)
N14 N 1.00418(19) 0.64868(16) -0.14062(13)
N15 N 0.5069(2) 0.80686(16) -0.09497(16)
N16 N 0.64722(18) 0.82756(17) 0.12054(11)
C1 C 0.1904(2) 0.50527(19) 0.01712(15)
H1 H 0.1240 0.5072 -0.0107
C2 C 0.3525(2) 0.53468(18) 0.08065(14)
C3 C 0.5466(2) 0.45212(19) 0.16791(15)
H2 H 0.5694 0.3878 0.1313
H3 H 0.6300 0.4573 0.1773
C4 C 0.4654(2) 0.52524(18) 0.32101(14)
C5 C 0.4490(2) 0.6526(2) 0.42357(15)
H4 H 0.4352 0.6949 0.4700
C6 C 0.5780(2) 1.0347(2) 0.38377(15)
H5 H 0.5212 1.0276 0.4318
C7 C 0.7220(2) 1.08197(18) 0.27193(14)
C8 C 0.8591(2) 1.0468(2) 0.11999(15)
H6 H 0.8833 1.0859 0.0702
H7 H 0.7781 1.0306 0.1173
C9 C 1.1238(2) 0.96615(18) 0.11055(14)
C10 C 1.3300(2) 0.99921(19) 0.09464(17)
H8 H 1.4178 0.9981 0.0895
C11 C 0.8177(2) 0.6490(2) 0.24308(15)
H9 H 0.7692 0.6221 0.2145
C12 C 0.9743(2) 0.6950(2) 0.30196(16)
C13 C 1.0400(3) 0.8008(3) 0.41486(18)
H10 H 0.9613 0.7838 0.4441
H11 H 1.1024 0.7865 0.4512
C14 C 1.1493(2) 0.9650(2) 0.35592(15)
C15 C 1.3347(3) 1.0229(2) 0.29779(16)
H12 H 1.3968 1.0577 0.2722
Cu1_2 Cu 1.56528(2) 0.81819(2) 0.330121(16)
Cu2A Cu 0.24381(2) 0.24979(2) 0.054180(15)
Cu2A_2 Cu 1.24381(2) 1.24979(2) 0.054180(15)
N1A N 0.74465(17) 0.58706(15) -0.05305(11)
N8A N 0.76751(16) 0.90842(15) -0.08222(11)
N12_2 N 0.36932(18) 0.92245(16) 0.33338(11)
N17 N 0.2104(7) 0.6713(6) 0.5967(4)
C16 C 0.1269(6) 0.6382(4) 0.5993(3)
C17 C 0.0173(6) 0.5962(4) 0.6006(3)
H13 H -0.0452 0.6485 0.5707
H14 H -0.0271 0.5914 0.6554
H15 H 0.0509 0.5205 0.5765
loop_
_geom_bond_atom_site_label_1
_geom_bond_atom_site_label_2
_geom_bond_site_symmetry_1
_geom_bond_site_symmetry_2
Cu1 O1 1_555 1_555
Cu2 O4 1_555 1_555
S1 C1 1_555 1_555
S2 C2 1_555 1_555
S3 C3 1_555 1_555
S4 C4 1_555 1_555
S5 C6 1_555 1_555
S6 C7 1_555 1_555
S7 C8 1_555 1_555
S8 C9 1_555 1_555
S9 C11 1_555 1_555
S10 C12 1_555 1_555
S11 C13 1_555 1_555
S12 C14 1_555 1_555
O1 N13 1_555 1_555
O2 N13 1_555 1_555
O3 N13 1_555 1_555
O4 N14 1_555 1_555
O5 N14 1_555 1_555
O6 N14 1_555 1_555
O7 Cu2 1_555 1_555
O8 N15 1_555 1_555
O9 N15 1_555 1_555
O10 Cu2 1_555 1_555
O11 N16 1_555 1_555
O12 Cu1 1_555 1_555
N1 N2 1_555 1_555
N2 C2 1_555 1_555
N3 N4 1_555 1_555
N4 Cu1 1_555 1_555
N5 Cu1 1_555 1_555
N6 N5 1_555 1_555
N7 N8 1_555 1_555
N8 C10 1_555 1_555
N9 Cu1 1_555 1_555
N10 N9 1_555 1_555
N11 N12 1_555 1_555
N12 C15 1_555 1_555
N15 O7 1_555 1_555
N16 O10 1_555 1_555
C1 N1 1_555 1_555
H1 C1 1_555 1_555
C2 S1 1_555 1_555
C3 S2 1_555 1_555
H2 C3 1_555 1_555
H3 C3 1_555 1_555
C4 S3 1_555 1_555
C5 S4 1_555 1_555
H4 C5 1_555 1_555
C6 N5 1_555 1_555
H5 C6 1_555 1_555
C7 S5 1_555 1_555
C8 S6 1_555 1_555
H6 C8 1_555 1_555
H7 C8 1_555 1_555
C9 S7 1_555 1_555
C10 S8 1_555 1_555
H8 C10 1_555 1_555
C11 N9 1_555 1_555
H9 C11 1_555 1_555
C12 S9 1_555 1_555
C13 S10 1_555 1_555
H10 C13 1_555 1_555
H11 C13 1_555 1_555
C14 S11 1_555 1_555
C15 S12 1_555 1_555
H12 C15 1_555 1_555
N17 C16 1_555 1_555
C16 C17 1_555 1_555
C17 H13 1_555 1_555
H14 C17 1_555 1_555
H15 C17 1_555 1_555
Cu1_2 N12 1_555 1_555
Cu2A N1 1_555 1_555
Cu2A_2 N8 1_555 1_555
N1A Cu2 1_555 1_555
N8A Cu2 1_555 1_555
N12_2 Cu1 1_555 1_555
O12 N16 1_555 1_555
N3 C4 1_555 1_555
N4 C5 1_555 1_555
N6 C7 1_555 1_555
N7 C9 1_555 1_555
N10 C12 1_555 1_555
N11 C14 1_555 1_555

#END
