
#######################################################################
#
#                 Cambridge Crystallographic Data Centre
#                                CCDC 
#
#######################################################################
#
# If this CIF has been generated from an entry in the Cambridge 
# Structural Database, then it will include bibliographic, chemical, 
# crystal, experimental, refinement or atomic coordinate data resulting 
# from the CCDC's data processing and validation procedures.
#
#######################################################################

data_GUWFEK
_symmetry_cell_setting           triclinic
_symmetry_space_group_name_H-M   'P -1'
_symmetry_Int_Tables_number      2
_space_group_name_Hall           '-P 1'
loop_
_symmetry_equiv_pos_site_id
_symmetry_equiv_pos_as_xyz
1 x,y,z
2 -x,-y,-z
_cell_length_a                   6.6238(16)
_cell_length_b                   10.198(2)
_cell_length_c                   15.794(4)
_cell_angle_alpha                82.927(4)
_cell_angle_beta                 87.897(4)
_cell_angle_gamma                76.752(4)
_cell_volume                     1030.54
loop_
_atom_site_label
_atom_site_type_symbol
_atom_site_fract_x
_atom_site_fract_y
_atom_site_fract_z
C1 C 1.0117(5) -0.8542(4) 0.7397(2)
C2 C 1.0994(5) -0.7307(3) 0.7405(2)
C3 C 0.9636(6) -0.6040(3) 0.7333(2)
H1 H 0.8228 -0.5961 0.7252
C4 C 1.0424(5) -0.4856(3) 0.7385(2)
C5 C 1.2494(5) -0.5002(3) 0.7515(2)
H2 H 1.3010 -0.4234 0.7544
C6 C 1.3857(6) -0.6277(3) 0.7604(2)
H3 H 1.5256 -0.6364 0.7710
C7 C 1.3078(5) -0.7417(4) 0.7529(2)
H4 H 1.3981 -0.8267 0.7564
C8 C 0.8908(5) -0.3497(3) 0.7344(2)
C9 C 0.7023(5) 0.1347(3) 0.5764(2)
H5 H 0.6703 0.2117 0.6047
C10 C 0.7986(6) -0.0847(4) 0.5502(2)
H6 H 0.8430 -0.1787 0.5579
C11 C 0.7468(6) -0.0043(4) 0.4717(3)
H7 H 0.7498 -0.0355 0.4187
C12 C 0.6221(6) 0.2480(4) 0.4248(2)
H8 H 0.5040 0.2356 0.3947
H9 H 0.7330 0.2531 0.3836
C13 C 0.5633(5) 0.3771(3) 0.46343(19)
C14 C 0.3564(6) 0.4311(4) 0.4822(3)
H10 H 0.2576 0.3839 0.4709
C15 C 0.7078(6) 0.4492(4) 0.4834(2)
H11 H 0.8482 0.4157 0.4733
C16 C 1.1063(6) -0.1639(5) 0.9044(3)
H12 H 1.2284 -0.1889 0.8734
C17 C 0.8672(6) -0.1402(4) 1.0180(2)
H13 H 0.8069 -0.1515 1.0717
C18 C 0.7667(6) -0.0780(4) 0.9381(2)
H14 H 0.6296 -0.0295 0.9328
C19 C 1.2794(6) -0.2392(4) 1.0410(3)
H15 H 1.2415 -0.2557 1.1006
H16 H 1.3580 -0.1692 1.0369
C20 C 1.4248(7) -0.3654(4) 1.0190(3)
C21 C 1.3218(7) -0.4659(5) 1.0461(3)
H17 H 1.1969 -0.4449 1.0758
C22 C 1.5995(7) -0.4051(5) 0.9700(3)
H18 H 1.6676 -0.3388 0.9464
Co1 Co 0.84180(7) -0.05311(5) 0.74282(3)
N1 N 0.7720(5) 0.0006(3) 0.61498(18)
N2 N 0.6893(5) 0.1328(3) 0.48799(19)
N3 N 0.9075(5) -0.1020(3) 0.86973(19)
N4 N 1.0853(5) -0.1807(3) 0.9939(2)
O1 O 0.8221(4) -0.8420(2) 0.75469(17)
O2 O 1.1245(4) -0.9656(2) 0.72998(15)
O3 O 0.7046(4) -0.3459(3) 0.73946(16)
O4 O 0.9753(4) -0.2485(2) 0.72321(16)
O5 O 0.5399(4) -0.0975(2) 0.77353(15)
H19 H 0.5442 -0.1897 0.7651
H20 H 0.4374 -0.0376 0.7369
C1_2 C 1.0117(5) 0.1458(4) 0.7397(2)
C2_2 C 1.0994(5) 0.2693(3) 0.7405(2)
C3_2 C 0.9636(6) 0.3960(3) 0.7333(2)
H1_2 H 0.8228 0.4039 0.7252
C4_2 C 1.0424(5) 0.5144(3) 0.7385(2)
C5_2 C 1.2494(5) 0.4998(3) 0.7515(2)
H2_2 H 1.3010 0.5766 0.7544
C6_2 C 1.3857(6) 0.3723(3) 0.7604(2)
H3_2 H 1.5256 0.3636 0.7710
C7_2 C 1.3078(5) 0.2583(4) 0.7529(2)
H4_2 H 1.3981 0.1733 0.7564
C8_2 C 0.8908(5) 0.6503(3) 0.7344(2)
C9A C 0.2977(5) 0.8653(3) 0.4236(2)
H5A H 0.3297 0.7883 0.3953
C10A C 0.2014(6) 1.0847(4) 0.4498(2)
H6A H 0.1570 1.1787 0.4421
C11A C 0.2532(6) 1.0043(4) 0.5283(3)
H7A H 0.2502 1.0355 0.5813
C12A C 0.3779(6) 0.7520(4) 0.5752(2)
H8A H 0.4960 0.7644 0.6053
H9A H 0.2670 0.7469 0.6164
C13A C 0.4367(5) 0.6229(3) 0.53657(19)
C14A C 0.6436(6) 0.5689(4) 0.5178(3)
H10A H 0.7424 0.6161 0.5291
C15A C 0.2922(6) 0.5508(4) 0.5166(2)
H11A H 0.1518 0.5843 0.5267
C16A C 1.8937(6) -0.8361(5) 1.0956(3)
H12A H 1.7716 -0.8111 1.1266
C17A C 2.1328(6) -0.8598(4) 0.9820(2)
H13A H 2.1931 -0.8485 0.9283
C18A C 2.2333(6) -0.9220(4) 1.0619(2)
H14A H 2.3704 -0.9705 1.0672
C19A C 1.7206(6) -0.7608(4) 0.9590(3)
H15A H 1.7585 -0.7443 0.8994
H16A H 1.6420 -0.8308 0.9631
C20A C 1.5752(7) -0.6346(4) 0.9810(3)
C21A C 1.6782(7) -0.5341(5) 0.9539(3)
H17A H 1.8031 -0.5551 0.9242
C22A C 1.4005(7) -0.5949(5) 1.0300(3)
H18A H 1.3324 -0.6612 1.0536
Co1A Co 0.15820(7) 1.05311(5) 0.25718(3)
Co1_2 Co 0.84180(7) -1.05311(5) 0.74282(3)
Co1A_2 Co 2.15820(7) -0.94689(5) 1.25718(3)
Co1_3 Co 0.84180(7) 0.94689(5) 0.74282(3)
N1A N 0.2280(5) 0.9994(3) 0.38502(18)
N2A N 0.3107(5) 0.8672(3) 0.51201(19)
N3A N 2.0925(5) -0.8980(3) 1.13027(19)
N3A_2 N 0.0925(5) 1.1020(3) 0.13027(19)
N4A N 1.9147(5) -0.8193(3) 1.0061(2)
O1_2 O 0.8221(4) 0.1580(2) 0.75469(17)
O1A O 0.1779(4) 0.8420(2) 0.24531(17)
O2_2 O 1.1245(4) 0.0344(2) 0.72998(15)
O2A O -0.1245(4) 0.9656(2) 0.27002(15)
O3_2 O 0.7046(4) 0.6541(3) 0.73946(16)
O4_2 O 0.9753(4) 0.7515(2) 0.72321(16)
O4A O 0.0247(4) 1.2485(2) 0.27679(16)
O5A O 0.4601(4) 1.0975(2) 0.22647(15)
H19A H 0.4558 1.1897 0.2349
H20A H 0.5626 1.0376 0.2631
loop_
_geom_bond_atom_site_label_1
_geom_bond_atom_site_label_2
_geom_bond_site_symmetry_1
_geom_bond_site_symmetry_2
C1 C2 1_555 1_555
C2 C3 1_555 1_555
C3 H1 1_555 1_555
C4 C3 1_555 1_555
C5 C4 1_555 1_555
H2 C5 1_555 1_555
C6 C5 1_555 1_555
H3 C6 1_555 1_555
C7 C2 1_555 1_555
H4 C7 1_555 1_555
C8 C4 1_555 1_555
C9 H5 1_555 1_555
C10 H6 1_555 1_555
C11 C10 1_555 1_555
H7 C11 1_555 1_555
C12 H8 1_555 1_555
H9 C12 1_555 1_555
C13 C12 1_555 1_555
C14 C13 1_555 1_555
H10 C14 1_555 1_555
C15 C13 1_555 1_555
H11 C15 1_555 1_555
C16 H12 1_555 1_555
C17 H13 1_555 1_555
C18 C17 1_555 1_555
H14 C18 1_555 1_555
C19 H15 1_555 1_555
H16 C19 1_555 1_555
C20 C19 1_555 1_555
C21 C20 1_555 1_555
H17 C21 1_555 1_555
C22 C20 1_555 1_555
H18 C22 1_555 1_555
Co1 N1 1_555 1_555
N1 C9 1_555 1_555
N2 C9 1_555 1_555
N3 C16 1_555 1_555
N4 C16 1_555 1_555
O1 C1 1_555 1_555
O2 C1 1_555 1_555
O3 C8 1_555 1_555
O4 C8 1_555 1_555
O5 Co1 1_555 1_555
H19 O5 1_555 1_555
H20 O5 1_555 1_555
C1_2 C2_2 1_555 1_555
C2_2 C3_2 1_555 1_555
C3_2 H1_2 1_555 1_555
C4_2 C3_2 1_555 1_555
C5_2 C4_2 1_555 1_555
H2_2 C5_2 1_555 1_555
C6_2 C5_2 1_555 1_555
H3_2 C6_2 1_555 1_555
C7_2 C2_2 1_555 1_555
H4_2 C7_2 1_555 1_555
C8_2 C4_2 1_555 1_555
C9A H5A 1_555 1_555
C10A H6A 1_555 1_555
C11A C10A 1_555 1_555
H7A C11A 1_555 1_555
C12A H8A 1_555 1_555
H9A C12A 1_555 1_555
C13A C12A 1_555 1_555
C14A C15 1_555 1_555
H10A C14A 1_555 1_555
C15A C14 1_555 1_555
H11A C15A 1_555 1_555
C16A H12A 1_555 1_555
C17A H13A 1_555 1_555
C18A C17A 1_555 1_555
H14A C18A 1_555 1_555
C19A H15A 1_555 1_555
H16A C19A 1_555 1_555
C20A C19A 1_555 1_555
C21A C22 1_555 1_555
H17A C21A 1_555 1_555
C22A C21 1_555 1_555
H18A C22A 1_555 1_555
Co1A N1A 1_555 1_555
Co1_2 O1 1_555 1_555
Co1A_2 N3A 1_555 1_555
Co1_3 O4_2 1_555 1_555
N1A C9A 1_555 1_555
N2A C9A 1_555 1_555
N3A C16A 1_555 1_555
N3A_2 Co1A 1_555 1_555
N4A C16A 1_555 1_555
O1_2 Co1 1_555 1_555
O1A Co1A 1_555 1_555
O2_2 Co1 1_555 1_555
O2A Co1A 1_555 1_555
O3_2 C8_2 1_555 1_555
O4_2 C8_2 1_555 1_555
O4A Co1A 1_555 1_555
O5A Co1A 1_555 1_555
H19A O5A 1_555 1_555
H20A O5A 1_555 1_555
C6 C7 1_555 1_555
C10 N1 1_555 1_555
C11 N2 1_555 1_555
C12 N2 1_555 1_555
C17 N4 1_555 1_555
C18 N3 1_555 1_555
C19 N4 1_555 1_555
Co1 N3 1_555 1_555
Co1 O4 1_555 1_555
O2 Co1_2 1_555 1_555
C1_2 O1_2 1_555 1_555
C1_2 O2_2 1_555 1_555
C6_2 C7_2 1_555 1_555
C10A N1A 1_555 1_555
C11A N2A 1_555 1_555
C12A N2A 1_555 1_555
C13A C14A 1_555 1_555
C13A C15A 1_555 1_555
C17A N4A 1_555 1_555
C18A N3A 1_555 1_555
C19A N4A 1_555 1_555
C20A C21A 1_555 1_555
C20A C22A 1_555 1_555

#END
