
#######################################################################
#
#                 Cambridge Crystallographic Data Centre
#                                CCDC 
#
#######################################################################
#
# If this CIF has been generated from an entry in the Cambridge 
# Structural Database, then it will include bibliographic, chemical, 
# crystal, experimental, refinement or atomic coordinate data resulting 
# from the CCDC's data processing and validation procedures.
#
#######################################################################

data_GUWGAG
_symmetry_cell_setting           triclinic
_symmetry_space_group_name_H-M   'P -1'
_symmetry_Int_Tables_number      2
_space_group_name_Hall           '-P 1'
loop_
_symmetry_equiv_pos_site_id
_symmetry_equiv_pos_as_xyz
1 x,y,z
2 -x,-y,-z
_cell_length_a                   8.7858(18)
_cell_length_b                   9.5635(19)
_cell_length_c                   11.912(2)
_cell_angle_alpha                85.60(3)
_cell_angle_beta                 86.93(3)
_cell_angle_gamma                81.38(3)
_cell_volume                     985.761
loop_
_atom_site_label
_atom_site_type_symbol
_atom_site_fract_x
_atom_site_fract_y
_atom_site_fract_z
Zn1 Zn -0.34665(4) -0.15555(4) -0.22215(3)
S1 S -0.3099(2) -0.40781(16) -0.54462(12)
S2 S -0.81299(11) 0.00830(11) -0.04218(9)
N1 N -0.1796(3) -0.0367(3) -0.2689(2)
N2 N -0.2022(3) 0.1026(3) -0.2613(2)
N3 N -0.0766(3) 0.1523(3) -0.3071(2)
N4 N -0.2780(3) 0.6721(3) -0.1129(2)
N5 N -0.1771(3) 0.5715(3) -0.1551(2)
N6 N -0.1626(3) 0.4606(3) -0.0793(2)
N7 N -0.3679(4) -0.2482(3) -0.3600(3)
N8 N -0.5337(3) -0.0544(3) -0.1601(3)
C1 C -0.3325(3) 0.6253(3) -0.0079(3)
C2 C -0.4389(4) 0.6901(4) 0.0714(3)
H1 H -0.4895 0.7820 0.0578
C3 C -0.4644(4) 0.6115(4) 0.1696(3)
H2 H -0.5337 0.6516 0.2241
C4 C -0.3885(4) 0.4706(4) 0.1914(3)
H3 H -0.4100 0.4214 0.2594
C5 C -0.2850(4) 0.4053(4) 0.1153(3)
H4 H -0.2357 0.3130 0.1292
C6 C -0.2576(4) 0.4863(3) 0.0145(3)
C7 C -0.0526(4) 0.3311(3) -0.0986(3)
H5 H -0.1076 0.2500 -0.0909
H6 H 0.0234 0.3180 -0.0412
C8 C 0.0295(4) 0.3359(4) -0.2134(3)
H7 H 0.069(4) 0.431(4) -0.235(3)
H8 H 0.114(4) 0.273(4) -0.209(3)
C9 C -0.0648(4) 0.3035(3) -0.3098(3)
H9 H -0.172(3) 0.358(3) -0.306(2)
H10 H -0.014(4) 0.326(4) -0.377(3)
C10 C 0.0305(4) 0.0455(3) -0.3452(2)
C11 C 0.1760(4) 0.0438(4) -0.3996(3)
H11 H 0.2206 0.1258 -0.4150
C12 C 0.2488(4) -0.0862(4) -0.4288(3)
H12 H 0.3460 -0.0929 -0.4647
C13 C 0.1794(4) -0.2108(4) -0.4057(3)
H13 H 0.2324 -0.2965 -0.4281
C14 C 0.0382(4) -0.2098(4) -0.3520(3)
H14 H -0.0057 -0.2922 -0.3366
C15 C -0.0374(4) -0.0771(3) -0.3212(3)
C16 C -0.3450(4) -0.3166(4) -0.4365(3)
C17 C -0.6516(4) -0.0281(3) -0.1114(3)
N4_2 N -0.2780(3) -0.3279(3) -0.1129(2)
Zn1_2 Zn -0.34665(4) 0.84445(4) -0.22215(3)
loop_
_geom_bond_atom_site_label_1
_geom_bond_atom_site_label_2
_geom_bond_site_symmetry_1
_geom_bond_site_symmetry_2
Zn1 N1 1_555 1_555
S1 C16 1_555 1_555
S2 C17 1_555 1_555
N1 N2 1_555 1_555
N2 N3 1_555 1_555
N3 C9 1_555 1_555
N4 N5 1_555 1_555
N5 N6 1_555 1_555
N6 C6 1_555 1_555
N7 Zn1 1_555 1_555
N8 Zn1 1_555 1_555
C1 N4 1_555 1_555
C2 C1 1_555 1_555
H1 C2 1_555 1_555
C3 C2 1_555 1_555
H2 C3 1_555 1_555
C4 C3 1_555 1_555
H3 C4 1_555 1_555
C5 C4 1_555 1_555
H4 C5 1_555 1_555
C6 C1 1_555 1_555
C7 N6 1_555 1_555
H5 C7 1_555 1_555
H6 C7 1_555 1_555
C8 C7 1_555 1_555
H7 C8 1_555 1_555
H8 C8 1_555 1_555
C9 C8 1_555 1_555
H9 C9 1_555 1_555
H10 C9 1_555 1_555
C10 N3 1_555 1_555
C11 C10 1_555 1_555
H11 C11 1_555 1_555
C12 C11 1_555 1_555
H12 C12 1_555 1_555
C13 C12 1_555 1_555
H13 C13 1_555 1_555
C14 C13 1_555 1_555
H14 C14 1_555 1_555
C15 N1 1_555 1_555
C16 N7 1_555 1_555
C17 N8 1_555 1_555
N4_2 Zn1 1_555 1_555
Zn1_2 N4 1_555 1_555
C5 C6 1_555 1_555
C10 C15 1_555 1_555
C14 C15 1_555 1_555

#END
