
#######################################################################
#
#                 Cambridge Crystallographic Data Centre
#                                CCDC 
#
#######################################################################
#
# If this CIF has been generated from an entry in the Cambridge 
# Structural Database, then it will include bibliographic, chemical, 
# crystal, experimental, refinement or atomic coordinate data resulting 
# from the CCDC's data processing and validation procedures.
#
#######################################################################

data_GUWLAM
_symmetry_cell_setting           monoclinic
_symmetry_space_group_name_H-M   'C 2/c'
_symmetry_Int_Tables_number      15
_space_group_name_Hall           '-C 2yn'
loop_
_symmetry_equiv_pos_site_id
_symmetry_equiv_pos_as_xyz
1 x,y,z
2 -x,y,1/2-z
3 1/2+x,1/2+y,z
4 1/2-x,1/2+y,1/2-z
5 -x,-y,-z
6 x,-y,1/2+z
7 1/2-x,1/2-y,-z
8 1/2+x,1/2-y,1/2+z
_cell_length_a                   29.738(3)
_cell_length_b                   10.2118(4)
_cell_length_c                   21.417(5)
_cell_angle_alpha                90
_cell_angle_beta                 133.1850(10)
_cell_angle_gamma                90
_cell_volume                     4742.29
loop_
_atom_site_label
_atom_site_type_symbol
_atom_site_fract_x
_atom_site_fract_y
_atom_site_fract_z
Cu1 Cu 0.99152(2) -0.21534(5) 0.35171(3)
Cu2 Cu 1.07132(2) -0.39674(5) 0.34469(3)
C1 C 0.89895(15) 0.1625(4) 0.4115(2)
H1 H 0.8818 0.1822 0.4339
C2 C 0.91187(14) 0.0344(3) 0.4057(2)
C3 C 0.94012(14) 0.0055(4) 0.3762(2)
C4 C 0.95475(16) 0.1035(4) 0.3478(2)
H2 H 0.9736 0.0849 0.3277
C5 C 0.94009(18) 0.2291(4) 0.3507(3)
H3 H 0.9485 0.2970 0.3310
C6 C 0.91315(18) 0.2584(4) 0.3821(3)
H4 H 0.9044 0.3453 0.3834
C7 C 0.92632(15) -0.1786(3) 0.4103(2)
C8 C 0.87895(14) -0.1053(3) 0.4661(2)
H5 H 0.8951 -0.0356 0.5075
H6 H 0.8963 -0.1866 0.4982
C9 C 0.80813(14) -0.1113(3) 0.40976(19)
C10 C 0.77577(16) -0.2071(3) 0.3356(2)
H7 H 0.7348 -0.2241 0.3129
H8 H 0.7982 -0.2893 0.3574
C11 C 0.78073(14) 0.0256(3) 0.3794(2)
H9 H 0.7886 0.0606 0.3455
H10 H 0.8012 0.0819 0.4289
C12 C 0.92290(16) -0.2693(4) 0.6408(2)
H11 H 0.9159 -0.1780 0.6260
H12 H 0.9583 -0.2983 0.6513
H13 H 0.9301 -0.2819 0.6915
C13 C 0.86791(14) -0.3460(4) 0.5691(2)
C14 C 0.80326(15) -0.5060(4) 0.4962(2)
C15 C 0.77159(14) -0.3930(3) 0.4512(2)
C16 C 0.70920(15) -0.3944(4) 0.3782(2)
H14 H 0.6878 -0.3182 0.3482
C17 C 0.68054(17) -0.5141(4) 0.3526(2)
H15 H 0.6385 -0.5187 0.3042
C18 C 0.71194(17) -0.6274(4) 0.3961(2)
H16 H 0.6907 -0.7065 0.3761
C19 C 0.77395(17) -0.6267(4) 0.4684(2)
H17 H 0.7953 -0.7036 0.4972
C20 C 0.92640(17) -0.3208(3) 0.4248(2)
H18 H 0.9078 -0.3350 0.4472
H19 H 0.9681 -0.3525 0.4650
H20 H 0.9034 -0.3670 0.3716
C21 C 0.79997(15) -0.1550(3) 0.4709(2)
H21 H 0.8264 -0.1009 0.5219
H22 H 0.7577 -0.1377 0.4430
N1 N 0.94862(12) -0.1290(3) 0.37925(17)
N2 N 0.90299(11) -0.0854(3) 0.42644(16)
N3 N 0.81368(12) -0.2921(3) 0.49733(16)
N4 N 0.86374(12) -0.4752(3) 0.56996(17)
Br1 Br 0.768354(18) -0.14806(4) 0.24221(2)
Br2 Br 0.692021(17) 0.02884(4) 0.31096(3)
Br3 Br 1.078210(17) -0.15868(4) 0.37267(3)
Br4 Br 0.965753(17) -0.44240(4) 0.30102(3)
Cu1A Cu 1.00848(2) -0.21534(5) 0.14829(3)
Cu2A Cu 0.92868(2) -0.39674(5) 0.15531(3)
Cu2D Cu 0.92868(2) -0.60326(5) 0.65531(3)
Cu2E Cu 1.07132(2) -0.60326(5) -0.15531(3)
C1A C 1.10105(15) 0.1625(4) 0.0885(2)
H1A H 1.1182 0.1822 0.0661
C2A C 1.08813(14) 0.0344(3) 0.0943(2)
C3A C 1.05988(14) 0.0055(4) 0.1238(2)
C4A C 1.04525(16) 0.1035(4) 0.1522(2)
H2A H 1.0264 0.0849 0.1723
C5A C 1.05991(18) 0.2291(4) 0.1493(3)
H3A H 1.0515 0.2970 0.1690
C6A C 1.08685(18) 0.2584(4) 0.1179(3)
H4A H 1.0956 0.3453 0.1166
C7A C 1.07368(15) -0.1786(3) 0.0897(2)
C8A C 1.12105(14) -0.1053(3) 0.0339(2)
H5A H 1.1049 -0.0356 -0.0075
H6A H 1.1037 -0.1866 0.0018
C9A C 1.19187(14) -0.1113(3) 0.09024(19)
C10A C 1.22423(16) -0.2071(3) 0.1644(2)
H7A H 1.2652 -0.2241 0.1871
H8A H 1.2018 -0.2893 0.1426
C11A C 1.21927(14) 0.0256(3) 0.1206(2)
H9A H 1.2114 0.0606 0.1545
H10A H 1.1988 0.0819 0.0711
C12A C 1.07710(16) -0.2693(4) -0.1408(2)
H11A H 1.0841 -0.1780 -0.1260
H12A H 1.0417 -0.2983 -0.1513
H13A H 1.0699 -0.2819 -0.1915
C13A C 1.13209(14) -0.3460(4) -0.0691(2)
C14A C 1.19674(15) -0.5060(4) 0.0038(2)
C15A C 1.22841(14) -0.3930(3) 0.0488(2)
C16A C 1.29080(15) -0.3944(4) 0.1218(2)
H14A H 1.3122 -0.3182 0.1518
C17A C 1.31946(17) -0.5141(4) 0.1474(2)
H15A H 1.3615 -0.5187 0.1958
C18A C 1.28806(17) -0.6274(4) 0.1039(2)
H16A H 1.3093 -0.7065 0.1239
C19A C 1.22605(17) -0.6267(4) 0.0316(2)
H17A H 1.2047 -0.7036 0.0028
C20A C 1.07360(17) -0.3208(3) 0.0752(2)
H18A H 1.0922 -0.3350 0.0528
H19A H 1.0319 -0.3525 0.0350
H20A H 1.0966 -0.3670 0.1284
C21A C 1.20003(15) -0.1550(3) 0.0291(2)
H21A H 1.1736 -0.1009 -0.0219
H22A H 1.2423 -0.1377 0.0570
N1A N 1.05138(12) -0.1290(3) 0.12075(17)
N2A N 1.09701(11) -0.0854(3) 0.07356(16)
N3A N 1.18632(12) -0.2921(3) 0.00267(16)
N4A N 1.13626(12) -0.4752(3) -0.06996(17)
N4D N 1.13626(12) -0.5248(3) 0.43004(17)
N4E N 0.86374(12) -0.5248(3) 0.06996(17)
Br1A Br 1.231646(18) -0.14806(4) 0.25779(2)
Br2A Br 1.307979(17) 0.02884(4) 0.18904(3)
Br3A Br 0.921790(17) -0.15868(4) 0.12733(3)
Br4A Br 1.034247(17) -0.44240(4) 0.19898(3)
loop_
_geom_bond_atom_site_label_1
_geom_bond_atom_site_label_2
_geom_bond_site_symmetry_1
_geom_bond_site_symmetry_2
Cu1 N1 1_555 1_555
Cu2 Br3 1_555 1_555
C1 H1 1_555 1_555
C2 C1 1_555 1_555
C3 C2 1_555 1_555
C4 C3 1_555 1_555
H2 C4 1_555 1_555
C5 C4 1_555 1_555
H3 C5 1_555 1_555
C6 C1 1_555 1_555
H4 C6 1_555 1_555
C7 C20 1_555 1_555
C8 H5 1_555 1_555
H6 C8 1_555 1_555
C9 C8 1_555 1_555
C10 C9 1_555 1_555
H7 C10 1_555 1_555
H8 C10 1_555 1_555
C11 C9 1_555 1_555
H9 C11 1_555 1_555
H10 C11 1_555 1_555
C12 H11 1_555 1_555
H12 C12 1_555 1_555
H13 C12 1_555 1_555
C13 C12 1_555 1_555
C14 C15 1_555 1_555
C15 C16 1_555 1_555
C16 H14 1_555 1_555
C17 C16 1_555 1_555
H15 C17 1_555 1_555
C18 C17 1_555 1_555
H16 C18 1_555 1_555
C19 C14 1_555 1_555
H17 C19 1_555 1_555
C20 H18 1_555 1_555
H19 C20 1_555 1_555
H20 C20 1_555 1_555
C21 C9 1_555 1_555
H21 C21 1_555 1_555
H22 C21 1_555 1_555
N1 C3 1_555 1_555
N2 C2 1_555 1_555
N3 C13 1_555 1_555
N4 C13 1_555 1_555
Br1 C10 1_555 1_555
Br2 C11 1_555 1_555
Br3 Cu1 1_555 1_555
Br4 Cu1 1_555 1_555
Cu1A N1A 1_555 1_555
Cu2A Br4 1_555 1_555
Cu2D N4 1_555 1_555
Cu2E N4A 1_555 1_555
C1A H1A 1_555 1_555
C2A C1A 1_555 1_555
C3A C2A 1_555 1_555
C4A C3A 1_555 1_555
H2A C4A 1_555 1_555
C5A C4A 1_555 1_555
H3A C5A 1_555 1_555
C6A C1A 1_555 1_555
H4A C6A 1_555 1_555
C7A C20A 1_555 1_555
C8A H5A 1_555 1_555
H6A C8A 1_555 1_555
C9A C8A 1_555 1_555
C10A C9A 1_555 1_555
H7A C10A 1_555 1_555
H8A C10A 1_555 1_555
C11A C9A 1_555 1_555
H9A C11A 1_555 1_555
H10A C11A 1_555 1_555
C12A H11A 1_555 1_555
H12A C12A 1_555 1_555
H13A C12A 1_555 1_555
C13A C12A 1_555 1_555
C14A C15A 1_555 1_555
C15A C16A 1_555 1_555
C16A H14A 1_555 1_555
C17A C16A 1_555 1_555
H15A C17A 1_555 1_555
C18A C17A 1_555 1_555
H16A C18A 1_555 1_555
C19A C14A 1_555 1_555
H17A C19A 1_555 1_555
C20A H18A 1_555 1_555
H19A C20A 1_555 1_555
H20A C20A 1_555 1_555
C21A C9A 1_555 1_555
H21A C21A 1_555 1_555
H22A C21A 1_555 1_555
N1A C3A 1_555 1_555
N2A C2A 1_555 1_555
N3A C13A 1_555 1_555
N4A C13A 1_555 1_555
N4D Cu2 1_555 1_555
N4E Cu2A 1_555 1_555
Br1A C10A 1_555 1_555
Br2A C11A 1_555 1_555
Br3A Cu1A 1_555 1_555
Br4A Cu2 1_555 1_555
Cu2 Br4 1_555 1_555
C5 C6 1_555 1_555
C7 N1 1_555 1_555
C7 N2 1_555 1_555
C8 N2 1_555 1_555
C14 N4 1_555 1_555
C15 N3 1_555 1_555
C18 C19 1_555 1_555
C21 N3 1_555 1_555
Cu1A Br4A 1_555 1_555
Cu2A Br3A 1_555 1_555
Cu2A Br4A 1_555 1_555
C5A C6A 1_555 1_555
C7A N1A 1_555 1_555
C7A N2A 1_555 1_555
C8A N2A 1_555 1_555
C14A N4A 1_555 1_555
C15A N3A 1_555 1_555
C18A C19A 1_555 1_555
C21A N3A 1_555 1_555

#END
