
#######################################################################
#
#                 Cambridge Crystallographic Data Centre
#                                CCDC 
#
#######################################################################
#
# If this CIF has been generated from an entry in the Cambridge 
# Structural Database, then it will include bibliographic, chemical, 
# crystal, experimental, refinement or atomic coordinate data resulting 
# from the CCDC's data processing and validation procedures.
#
#######################################################################

data_GUWNIW
_symmetry_cell_setting           monoclinic
_symmetry_space_group_name_H-M   'P 21/n'
_symmetry_Int_Tables_number      14
_space_group_name_Hall           '-P 2yn'
loop_
_symmetry_equiv_pos_site_id
_symmetry_equiv_pos_as_xyz
1 x,y,z
2 1/2-x,1/2+y,1/2-z
3 -x,-y,-z
4 1/2+x,1/2-y,1/2+z
_cell_length_a                   9.318(4)
_cell_length_b                   8.822(4)
_cell_length_c                   9.768(4)
_cell_angle_alpha                90
_cell_angle_beta                 108.192(6)
_cell_angle_gamma                90
_cell_volume                     762.827
loop_
_atom_site_label
_atom_site_type_symbol
_atom_site_fract_x
_atom_site_fract_y
_atom_site_fract_z
Cd1 Cd 0.5000 0.0000 0.5000
N1 N 0.2887(3) 0.0759(3) 0.5624(3)
O1 O 0.0220(3) 0.2671(2) 0.9119(2)
O2 O 0.1932(3) 0.1681(2) 1.1024(2)
O3 O 0.6458(3) 0.0583(3) 0.7333(2)
H1 H 0.7026 -0.0050 0.7909
H2 H 0.6987 0.1345 0.7259
C1 C 0.2725(3) 0.0431(3) 0.6908(3)
H3 H 0.3492 -0.0111 0.7564
C2 C 0.1786(4) 0.1550(3) 0.4695(3)
H4 H 0.1878 0.1785 0.3798
C3 C 0.0518(4) 0.2035(4) 0.5009(3)
H5 H -0.0218 0.2600 0.4342
C4 C 0.0354(3) 0.1673(3) 0.6322(3)
H6 H -0.0504 0.1975 0.6543
C5 C 0.1486(3) 0.0850(3) 0.7319(3)
C6 C 0.1392(4) 0.0389(3) 0.8775(3)
H7 H 0.2310 -0.0148 0.9288
H8 H 0.0556 -0.0312 0.8633
C7 C 0.1178(3) 0.1696(3) 0.9718(3)
Cd1A Cd 0.0000 0.5000 1.0000
Cd1A_2 Cd 1.0000 -0.5000 0.0000
N1B N 0.7113(3) -0.0759(3) 0.4376(3)
O1B O 0.9780(3) -0.2671(2) 0.0881(2)
O1A O 0.4780(3) -0.2329(2) 0.5881(2)
O1C O 0.5220(3) 0.2329(2) 0.4119(2)
O2B O 0.8068(3) -0.1681(2) -0.1024(2)
O3B O 0.3542(3) -0.0583(3) 0.2667(2)
H1B H 0.2974 0.0050 0.2091
H2B H 0.3013 -0.1345 0.2741
C1B C 0.7275(3) -0.0431(3) 0.3092(3)
H3B H 0.6508 0.0111 0.2436
C2B C 0.8214(4) -0.1550(3) 0.5305(3)
H4B H 0.8122 -0.1785 0.6202
C3B C 0.9482(4) -0.2035(4) 0.4991(3)
H5B H 1.0218 -0.2600 0.5658
C4B C 0.9646(3) -0.1673(3) 0.3678(3)
H6B H 1.0504 -0.1975 0.3457
C5B C 0.8514(3) -0.0850(3) 0.2681(3)
C6B C 0.8608(4) -0.0389(3) 0.1225(3)
H7B H 0.7690 0.0148 0.0712
H8B H 0.9444 0.0312 0.1367
C7B C 0.8822(3) -0.1696(3) 0.0282(3)
loop_
_geom_bond_atom_site_label_1
_geom_bond_atom_site_label_2
_geom_bond_site_symmetry_1
_geom_bond_site_symmetry_2
Cd1 N1 1_555 1_555
N1 C1 1_555 1_555
O1 C7 1_555 1_555
O2 C7 1_555 1_555
O3 Cd1 1_555 1_555
H1 O3 1_555 1_555
H2 O3 1_555 1_555
C1 H3 1_555 1_555
C2 N1 1_555 1_555
H4 C2 1_555 1_555
C3 C2 1_555 1_555
H5 C3 1_555 1_555
C4 C3 1_555 1_555
H6 C4 1_555 1_555
C5 C1 1_555 1_555
C6 C5 1_555 1_555
H7 C6 1_555 1_555
H8 C6 1_555 1_555
C7 C6 1_555 1_555
Cd1A O1 1_555 1_555
Cd1A_2 O1B 1_555 1_555
N1B Cd1 1_555 1_555
O1B C7B 1_555 1_555
O1A Cd1 1_555 1_555
O1C Cd1 1_555 1_555
O2B C7B 1_555 1_555
O3B Cd1 1_555 1_555
H1B O3B 1_555 1_555
H2B O3B 1_555 1_555
C1B N1B 1_555 1_555
H3B C1B 1_555 1_555
C2B N1B 1_555 1_555
H4B C2B 1_555 1_555
C3B C2B 1_555 1_555
H5B C3B 1_555 1_555
C4B C3B 1_555 1_555
H6B C4B 1_555 1_555
C5B C1B 1_555 1_555
C6B C5B 1_555 1_555
H7B C6B 1_555 1_555
H8B C6B 1_555 1_555
C7B C6B 1_555 1_555
C4 C5 1_555 1_555
C4B C5B 1_555 1_555

#END
