
#######################################################################
#
#                 Cambridge Crystallographic Data Centre
#                                CCDC 
#
#######################################################################
#
# If this CIF has been generated from an entry in the Cambridge 
# Structural Database, then it will include bibliographic, chemical, 
# crystal, experimental, refinement or atomic coordinate data resulting 
# from the CCDC's data processing and validation procedures.
#
#######################################################################

data_GUWXAX
_symmetry_cell_setting           orthorhombic
_symmetry_space_group_name_H-M   'C 2 2 21'
_symmetry_Int_Tables_number      20
_space_group_name_Hall           'C 2n 2'
loop_
_symmetry_equiv_pos_site_id
_symmetry_equiv_pos_as_xyz
1 x,y,z
2 -x,-y,1/2+z
3 -x,y,1/2-z
4 x,-y,-z
5 1/2+x,1/2+y,z
6 1/2-x,1/2-y,1/2+z
7 1/2-x,1/2+y,1/2-z
8 1/2+x,1/2-y,-z
_cell_length_a                   11.4484(10)
_cell_length_b                   14.3019(12)
_cell_length_c                   23.552(2)
_cell_angle_alpha                90
_cell_angle_beta                 90
_cell_angle_gamma                90
_cell_volume                     3856.26
loop_
_atom_site_label
_atom_site_type_symbol
_atom_site_fract_x
_atom_site_fract_y
_atom_site_fract_z
Cd1 Cd 0.0000 0.30431(4) 0.2500
O1 O 0.0959(5) 0.1852(4) 0.2016(2)
O2 O 0.1343(4) 0.3213(3) 0.16357(18)
O3 O 0.5741(4) 0.0648(3) -0.07638(18)
C4 C 0.4467(5) 0.0529(4) 0.0024(2)
C5 C 0.5118(7) 0.1076(4) -0.0351(2)
C6 C 0.5064(8) 0.2067(4) -0.0307(2)
H4 H 0.5511 0.2436 -0.0562
C7 C 0.4400(6) 0.2496(4) 0.0083(3)
H5 H 0.4381 0.3160 0.0099
C8 C 0.2981(6) 0.2401(4) 0.0878(2)
H6 H 0.2945 0.3065 0.0891
C9 C 0.2315(5) 0.1876(4) 0.1250(2)
C10 C 0.2384(6) 0.0894(5) 0.1238(3)
H7 H 0.1938 0.0537 0.1500
C11 C 0.3090(6) 0.0442(4) 0.0851(3)
H8 H 0.3119 -0.0221 0.0848
C12 C 0.3782(5) 0.0964(4) 0.0451(2)
C13 C 0.3717(5) 0.1957(4) 0.0477(2)
C14 C 0.1508(6) 0.2359(5) 0.1662(2)
N2 N 0.1665(4) 0.3081(4) 0.3083(2)
C15 C 0.2606(5) 0.3636(4) 0.2922(3)
H9 H 0.2556 0.4010 0.2590
C16 C 0.3618(5) 0.3643(5) 0.3248(4)
H10 H 0.4261 0.4023 0.3138
C17 C 0.3690(5) 0.3095(6) 0.3734(3)
H11 H 0.4382 0.3100 0.3957
C18 C 0.2749(7) 0.2540(6) 0.3895(3)
H12 H 0.2798 0.2166 0.4227
C19 C 0.1737(6) 0.2533(5) 0.3569(3)
H13 H 0.1094 0.2154 0.3679
N3 N 0.0000 0.4685(4) 0.2500
C20 C 0.0122(14) 0.5189(5) 0.2054(5)
H14 H 0.0211 0.4871 0.1702
C21 C 0.0135(15) 0.6132(5) 0.2040(5)
H15 H 0.0245 0.6443 0.1688
C22 C 0.0000 0.6622(7) 0.2500
H16 H 0.0000 0.7286 0.2500
C4C C 0.4467(5) -0.0529(4) -0.0024(2)
C5C C 0.5118(7) -0.1076(4) 0.0351(2)
O3C O 0.5741(4) -0.0648(3) 0.07638(18)
C6C C 0.5064(8) -0.2067(4) 0.0307(2)
H4C H 0.5511 -0.2436 0.0562
C7C C 0.4400(6) -0.2496(4) -0.0083(3)
H5C H 0.4381 -0.3160 -0.0099
C13C C 0.3717(5) -0.1957(4) -0.0477(2)
C8C C 0.2981(6) -0.2401(4) -0.0878(2)
H6C H 0.2945 -0.3065 -0.0891
C9C C 0.2315(5) -0.1876(4) -0.1250(2)
C10C C 0.2384(6) -0.0894(5) -0.1238(3)
H7C H 0.1938 -0.0537 -0.1500
C11C C 0.3090(6) -0.0442(4) -0.0851(3)
H8C H 0.3119 0.0221 -0.0848
C12C C 0.3782(5) -0.0964(4) -0.0451(2)
C14C C 0.1508(6) -0.2359(5) -0.1662(2)
O1C O 0.0959(5) -0.1852(4) -0.2016(2)
O2C O 0.1343(4) -0.3213(3) -0.16357(18)
C21B C -0.0135(15) 0.6132(5) 0.2960(5)
C20B C -0.0122(14) 0.5189(5) 0.2946(5)
H14B H -0.0211 0.4871 0.3298
H15B H -0.0245 0.6443 0.3312
N2B N -0.1665(4) 0.3081(4) 0.1917(2)
C15B C -0.2606(5) 0.3636(4) 0.2078(3)
H9B H -0.2556 0.4010 0.2410
C16B C -0.3618(5) 0.3643(5) 0.1752(4)
H10B H -0.4261 0.4023 0.1862
C17B C -0.3690(5) 0.3095(6) 0.1266(3)
H11B H -0.4382 0.3100 0.1043
C18B C -0.2749(7) 0.2540(6) 0.1105(3)
H12B H -0.2798 0.2166 0.0773
C19B C -0.1737(6) 0.2533(5) 0.1431(3)
H13B H -0.1094 0.2154 0.1321
O1B O -0.0959(5) 0.1852(4) 0.2984(2)
O2B O -0.1343(4) 0.3213(3) 0.33643(18)
Cd1A Cd 0.0000 -0.30431(4) -0.2500
N1 N 0.5422(13) 0.5000 0.0000
C1 C 0.3100(14) 0.5000 0.0000
H1 H 0.2270 0.5000 0.0000
C2 C 0.3655(9) 0.5089(7) 0.0495(4)
H2 H 0.3245 0.5151 0.0844
C3 C 0.4800(10) 0.5085(7) 0.0473(5)
H3 H 0.5214 0.5147 0.0820
C2C C 0.3655(9) 0.4911(7) -0.0495(4)
H2C H 0.3245 0.4849 -0.0844
C3C C 0.4800(10) 0.4915(7) -0.0473(5)
H3C H 0.5214 0.4853 -0.0820
O4? O 0.441(2) 0.5120(19) 0.2286(13)
loop_
_geom_bond_atom_site_label_1
_geom_bond_atom_site_label_2
_geom_bond_site_symmetry_1
_geom_bond_site_symmetry_2
N1 C3 1_555 1_555
C1 H1 1_555 1_555
C2 C1 1_555 1_555
H2 C2 1_555 1_555
C3 C2 1_555 1_555
H3 C3 1_555 1_555
Cd1 O1 1_555 1_555
O1 C14 1_555 1_555
O2 Cd1 1_555 1_555
O3 C5 1_555 1_555
C4 C5 1_555 1_555
C5 C6 1_555 1_555
C6 H4 1_555 1_555
C7 C6 1_555 1_555
H5 C7 1_555 1_555
C8 H6 1_555 1_555
C9 C8 1_555 1_555
C10 C9 1_555 1_555
H7 C10 1_555 1_555
C11 C10 1_555 1_555
H8 C11 1_555 1_555
C12 C4 1_555 1_555
C13 C7 1_555 1_555
C14 O2 1_555 1_555
N2 Cd1 1_555 1_555
C15 N2 1_555 1_555
H9 C15 1_555 1_555
C16 C15 1_555 1_555
H10 C16 1_555 1_555
C17 C16 1_555 1_555
H11 C17 1_555 1_555
C18 C17 1_555 1_555
H12 C18 1_555 1_555
C19 N2 1_555 1_555
H13 C19 1_555 1_555
N3 Cd1 1_555 1_555
C20 N3 1_555 1_555
H14 C20 1_555 1_555
C21 C20 1_555 1_555
H15 C21 1_555 1_555
C22 C21 1_555 1_555
H16 C22 1_555 1_555
C2C C1 1_555 1_555
H2C C2C 1_555 1_555
C3C N1 1_555 1_555
H3C C3C 1_555 1_555
C4C C4 1_555 1_555
C5C C4C 1_555 1_555
O3C C5C 1_555 1_555
C6C C5C 1_555 1_555
H4C C6C 1_555 1_555
C7C C6C 1_555 1_555
H5C C7C 1_555 1_555
C13C C7C 1_555 1_555
C8C C13C 1_555 1_555
H6C C8C 1_555 1_555
C9C C8C 1_555 1_555
C10C C9C 1_555 1_555
H7C C10C 1_555 1_555
C11C C10C 1_555 1_555
H8C C11C 1_555 1_555
C12C C4C 1_555 1_555
C14C C9C 1_555 1_555
O1C C14C 1_555 1_555
O2C C14C 1_555 1_555
C21B C22 1_555 1_555
C20B N3 1_555 1_555
H14B C20B 1_555 1_555
H15B C21B 1_555 1_555
N2B Cd1 1_555 1_555
C15B N2B 1_555 1_555
H9B C15B 1_555 1_555
C16B C15B 1_555 1_555
H10B C16B 1_555 1_555
C17B C16B 1_555 1_555
H11B C17B 1_555 1_555
C18B C17B 1_555 1_555
H12B C18B 1_555 1_555
C19B N2B 1_555 1_555
H13B C19B 1_555 1_555
O1B Cd1 1_555 1_555
O2B Cd1 1_555 1_555
Cd1A O1C 1_555 1_555
C8 C13 1_555 1_555
C9 C14 1_555 1_555
C11 C12 1_555 1_555
C12 C13 1_555 1_555
C18 C19 1_555 1_555
C2C C3C 1_555 1_555
C13C C12C 1_555 1_555
C11C C12C 1_555 1_555
O2C Cd1A 1_555 1_555
C21B C20B 1_555 1_555
C18B C19B 1_555 1_555

#END
