
#######################################################################
#
#                 Cambridge Crystallographic Data Centre
#                                CCDC 
#
#######################################################################
#
# If this CIF has been generated from an entry in the Cambridge 
# Structural Database, then it will include bibliographic, chemical, 
# crystal, experimental, refinement or atomic coordinate data resulting 
# from the CCDC's data processing and validation procedures.
#
#######################################################################

data_GUWXAY
_symmetry_cell_setting           orthorhombic
_symmetry_space_group_name_H-M   'P c c n'
_symmetry_Int_Tables_number      56
_space_group_name_Hall           '-P 2ab 2ac'
loop_
_symmetry_equiv_pos_site_id
_symmetry_equiv_pos_as_xyz
1 x,y,z
2 1/2-x,1/2-y,z
3 -x,1/2+y,1/2-z
4 1/2+x,-y,1/2-z
5 -x,-y,-z
6 1/2+x,1/2+y,-z
7 x,1/2-y,1/2+z
8 1/2-x,y,1/2+z
_cell_length_a                   9.9148(9)
_cell_length_b                   10.0079(9)
_cell_length_c                   22.546(2)
_cell_angle_alpha                90
_cell_angle_beta                 90
_cell_angle_gamma                90
_cell_volume                     2237.16
loop_
_atom_site_label
_atom_site_type_symbol
_atom_site_fract_x
_atom_site_fract_y
_atom_site_fract_z
Ni1 Ni 0.7500 0.7500 0.688532(11)
C1 C 0.6384(2) 0.7247(2) 0.56518(8)
H1 H 0.5592 0.7068 0.5858
C2 C 0.6344(2) 0.7238(2) 0.50413(8)
H2 H 0.5538 0.7054 0.4847
C3 C 0.7500 0.7500 0.47141(10)
C4 C 0.7500 0.7500 0.40568(10)
C5 C 0.86416(18) 0.78382(19) 0.37322(7)
H3 H 0.9432 0.8077 0.3928
C6 C 0.86050(19) 0.78204(19) 0.31203(7)
H4 H 0.9385 0.8041 0.2913
N1 N 0.7500 0.7500 0.59626(8)
N2 N 0.7500 0.7500 0.28117(8)
O1 O 0.91623(11) 0.87938(12) 0.69153(5)
H5 H 0.9982 0.8612 0.6991
H6 H 0.9029 0.9379 0.7182
O2 O 0.86065(11) 0.57538(11) 0.68426(5)
H7 H 0.9463 0.5750 0.6855
H8 H 0.8418 0.5142 0.7090
Ni1F Ni 0.7500 0.7500 0.188532(11)
C1A C 0.8616(2) 0.7753(2) 0.56518(8)
H1A H 0.9408 0.7932 0.5858
C2A C 0.8656(2) 0.7762(2) 0.50413(8)
H2A H 0.9462 0.7946 0.4847
C5A C 0.63584(18) 0.71618(19) 0.37322(7)
H3A H 0.5568 0.6923 0.3928
C6A C 0.63950(19) 0.71796(19) 0.31203(7)
H4A H 0.5615 0.6959 0.2913
N2F N 0.7500 0.7500 0.78117(8)
O1A O 0.58377(11) 0.62062(12) 0.69153(5)
H5A H 0.5018 0.6388 0.6991
H6A H 0.5971 0.5621 0.7182
O2A O 0.63935(11) 0.92462(11) 0.68426(5)
H7A H 0.5537 0.9250 0.6855
H8A H 0.6582 0.9858 0.7090
C7 C 0.72072(17) 0.39132(18) 0.80008(8)
C8 C 0.72732(16) 0.31769(17) 0.85836(8)
C9 C 0.70378(19) 0.38086(18) 0.91119(8)
H9 H 0.6723 0.4684 0.9109
C10 C 0.7261(2) 0.31659(19) 0.96645(9)
C11 C 0.7036(3) 0.3807(2) 1.02159(9)
H10 H 0.6722 0.4683 1.0222
C12 C 0.7274(3) 0.3158(3) 1.07386(10)
H11 H 0.7132 0.3598 1.1096
O3 O 0.61608(12) 0.45413(14) 0.78704(6)
O4 O 0.82455(11) 0.38615(13) 0.76838(5)
C7A C 0.77928(17) 0.10868(18) 0.80008(8)
C8A C 0.77268(16) 0.18231(17) 0.85836(8)
C9A C 0.79622(19) 0.11914(18) 0.91119(8)
H9A H 0.8277 0.0316 0.9109
C10A C 0.7739(2) 0.18341(19) 0.96645(9)
C11A C 0.7964(3) 0.1193(2) 1.02159(9)
H10A H 0.8278 0.0317 1.0222
C12A C 0.7726(3) 0.1842(3) 1.07386(10)
H11A H 0.7868 0.1402 1.1096
O3A O 0.88392(12) 0.04587(14) 0.78704(6)
O4A O 0.67545(11) 0.11385(13) 0.76838(5)
loop_
_geom_bond_atom_site_label_1
_geom_bond_atom_site_label_2
_geom_bond_site_symmetry_1
_geom_bond_site_symmetry_2
Ni1 N1 1_555 1_555
C1 H1 1_555 1_555
C2 C1 1_555 1_555
H2 C2 1_555 1_555
C3 C2 1_555 1_555
C4 C3 1_555 1_555
C5 C4 1_555 1_555
H3 C5 1_555 1_555
C6 C5 1_555 1_555
H4 C6 1_555 1_555
N1 C1 1_555 1_555
N2 C6 1_555 1_555
O1 Ni1 1_555 1_555
H5 O1 1_555 1_555
H6 O1 1_555 1_555
O2 Ni1 1_555 1_555
H7 O2 1_555 1_555
H8 O2 1_555 1_555
C7 C8 1_555 1_555
C8 C9 1_555 1_555
C9 H9 1_555 1_555
C10 C9 1_555 1_555
C11 C10 1_555 1_555
H10 C11 1_555 1_555
C12 C11 1_555 1_555
H11 C12 1_555 1_555
O3 C7 1_555 1_555
O4 C7 1_555 1_555
Ni1F N2 1_555 1_555
C1A N1 1_555 1_555
H1A C1A 1_555 1_555
C2A C3 1_555 1_555
H2A C2A 1_555 1_555
C5A C4 1_555 1_555
H3A C5A 1_555 1_555
C6A N2 1_555 1_555
H4A C6A 1_555 1_555
N2F Ni1 1_555 1_555
O1A Ni1 1_555 1_555
H5A O1A 1_555 1_555
H6A O1A 1_555 1_555
O2A Ni1 1_555 1_555
H7A O2A 1_555 1_555
H8A O2A 1_555 1_555
C7A C8A 1_555 1_555
C8A C8 1_555 1_555
C9A C8A 1_555 1_555
H9A C9A 1_555 1_555
C10A C10 1_555 1_555
C11A C10A 1_555 1_555
H10A C11A 1_555 1_555
C12A C12 1_555 1_555
H11A C12A 1_555 1_555
O3A C7A 1_555 1_555
O4A C7A 1_555 1_555
C1A C2A 1_555 1_555
C5A C6A 1_555 1_555
C9A C10A 1_555 1_555
C11A C12A 1_555 1_555

#END
