
#######################################################################
#
#                 Cambridge Crystallographic Data Centre
#                                CCDC 
#
#######################################################################
#
# If this CIF has been generated from an entry in the Cambridge 
# Structural Database, then it will include bibliographic, chemical, 
# crystal, experimental, refinement or atomic coordinate data resulting 
# from the CCDC's data processing and validation procedures.
#
#######################################################################

data_GUXLIU
_symmetry_cell_setting           monoclinic
_symmetry_space_group_name_H-M   'P 21/m'
_symmetry_Int_Tables_number      11
_space_group_name_Hall           '-P 2yb'
loop_
_symmetry_equiv_pos_site_id
_symmetry_equiv_pos_as_xyz
1 x,y,z
2 x,1/2-y,z
3 -x,-y,-z
4 -x,1/2+y,-z
_cell_length_a                   4.9387(12)
_cell_length_b                   12.060(3)
_cell_length_c                   8.1856(19)
_cell_angle_alpha                90
_cell_angle_beta                 92.045(4)
_cell_angle_gamma                90
_cell_volume                     487.23
loop_
_atom_site_label
_atom_site_type_symbol
_atom_site_fract_x
_atom_site_fract_y
_atom_site_fract_z
O1 O 0.437(4) 0.7500 0.651(2)
H1 H 0.304(18) 0.472(7) 0.449(11)
H2 H 0.063(13) 0.382(6) 0.435(8)
Al1 Al 0.2456(6) 0.7500 0.1382(4)
P1 P 0.0090(4) 0.51753(16) 0.2341(2)
Al2 Al 0.5000 0.5000 0.0000
O2 O -0.0002(16) 0.7500 -0.0490(9)
O3 O 0.2028(9) 0.4582(4) 0.1218(6)
O4 O 0.5282(18) 0.7500 0.3067(12)
F1 F 0.4428(9) 0.6472(3) 0.0358(5)
O5 O -0.2820(11) 0.4917(4) 0.1923(6)
C1 C 0.0820(16) 0.4686(6) 0.4356(9)
O6 O 0.0536(11) 0.6429(4) 0.2371(6)
C1B C -0.0820(16) 0.5314(6) 0.5644(9)
H1B H -0.304(18) 0.528(7) 0.551(11)
H2B H -0.063(13) 0.618(6) 0.565(8)
P1B P -0.0090(4) 0.48247(16) 0.7659(2)
O3B O -0.2028(9) 0.5418(4) 0.8782(6)
O5B O 0.2820(11) 0.5083(4) 0.8077(6)
O6B O -0.0536(11) 0.3571(4) 0.7629(6)
F1A F 0.4428(9) 0.8528(3) 0.0358(5)
O6A O 0.0536(11) 0.8571(4) 0.2371(6)
O3B_2 O 0.7972(9) 0.5418(4) -0.1218(6)
F1B F 0.5572(9) 0.3528(3) -0.0358(5)
O5_2 O 0.7180(11) 0.4917(4) 0.1923(6)
O5B_2 O 0.2820(11) 0.5083(4) -0.1923(6)
Al2_2 Al -0.5000 0.5000 0.0000
Al2_3 Al -0.5000 0.5000 1.0000
Al2_4 Al 0.5000 0.5000 1.0000
Al1B Al -0.2456(6) 0.2500 0.8618(4)
Al2A Al 0.5000 1.0000 0.0000
loop_
_geom_bond_atom_site_label_1
_geom_bond_atom_site_label_2
_geom_bond_site_symmetry_1
_geom_bond_site_symmetry_2
H1 C1 1_555 1_555
H2 C1 1_555 1_555
Al1 O2 1_555 1_555
P1 O3 1_555 1_555
Al2 O3 1_555 1_555
O4 Al1 1_555 1_555
F1 Al1 1_555 1_555
O5 P1 1_555 1_555
C1 P1 1_555 1_555
O6 Al1 1_555 1_555
C1B C1 1_555 1_555
H1B C1B 1_555 1_555
H2B C1B 1_555 1_555
P1B C1B 1_555 1_555
O3B P1B 1_555 1_555
O5B P1B 1_555 1_555
O6B P1B 1_555 1_555
F1A Al1 1_555 1_555
O6A Al1 1_555 1_555
O3B_2 Al2 1_555 1_555
F1B Al2 1_555 1_555
O5_2 Al2 1_555 1_555
O5B_2 Al2 1_555 1_555
Al2_2 O5 1_555 1_555
Al2_3 O3B 1_555 1_555
Al2_4 O5B 1_555 1_555
Al1B O6B 1_555 1_555
Al2A F1A 1_555 1_555
P1 O6 1_555 1_555
Al2 F1 1_555 1_555

#END
