
#######################################################################
#
#                 Cambridge Crystallographic Data Centre
#                                CCDC 
#
#######################################################################
#
# If this CIF has been generated from an entry in the Cambridge 
# Structural Database, then it will include bibliographic, chemical, 
# crystal, experimental, refinement or atomic coordinate data resulting 
# from the CCDC's data processing and validation procedures.
#
#######################################################################

data_GUXPAR
_symmetry_cell_setting           orthorhombic
_symmetry_space_group_name_H-M   'P 21 21 21'
_symmetry_Int_Tables_number      19
_space_group_name_Hall           'P 2ac 2ab'
loop_
_symmetry_equiv_pos_site_id
_symmetry_equiv_pos_as_xyz
1 x,y,z
2 1/2-x,-y,1/2+z
3 -x,1/2+y,1/2-z
4 1/2+x,1/2-y,-z
_cell_length_a                   9.5921(8)
_cell_length_b                   13.7579(12)
_cell_length_c                   17.5620(15)
_cell_angle_alpha                90
_cell_angle_beta                 90
_cell_angle_gamma                90
_cell_volume                     2317.61
loop_
_atom_site_label
_atom_site_type_symbol
_atom_site_fract_x
_atom_site_fract_y
_atom_site_fract_z
Zn1 Zn 0.01408(2) 0.876480(15) 0.236208(13)
O1 O -0.11540(17) 0.98263(11) 0.26246(11)
O2 O 0.07996(19) 0.76801(11) 0.30048(9)
C1 C 0.2086(2) 0.74317(14) 0.41475(12)
C2 C -0.3380(2) 1.10476(14) 0.30091(13)
H1 H -0.2581 1.1330 0.2806
C3 C -0.3464(2) 1.00406(15) 0.30687(14)
O3 O 0.1348(2) 0.89736(11) 0.36871(12)
C4 C 0.1900(2) 0.64344(14) 0.41184(12)
H2 H 0.1375 0.6166 0.3726
C5 C 0.1379(2) 0.80886(14) 0.35838(13)
C6 C -0.4470(2) 1.16364(16) 0.32488(15)
C7 C 0.2484(3) 0.58236(15) 0.46683(13)
C8 C -0.2303(3) 0.94100(15) 0.27938(13)
C9 C 0.2221(3) 0.47779(16) 0.46787(14)
H3 H 0.2678 0.4416 0.5050
C10 C 0.3313(3) 0.62349(18) 0.52323(14)
H4 H 0.3740 0.5839 0.5593
C11 C -0.5662(3) 1.12025(19) 0.35367(18)
H5 H -0.6407 1.1589 0.3690
C12 C -0.4662(3) 0.96191(18) 0.33711(16)
H6 H -0.4721 0.8947 0.3419
C13 C 0.2894(3) 0.78315(17) 0.47265(15)
H7 H 0.3020 0.8501 0.4753
O4 O -0.2470(3) 0.85256(13) 0.27393(16)
C14 C 0.3505(3) 0.72374(19) 0.52590(17)
H8 H 0.4052 0.7508 0.5641
C15 C -0.5760(3) 1.0195(2) 0.35994(19)
H9 H -0.6565 0.9912 0.3795
C16 C 0.1404(3) 0.43043(15) 0.42153(14)
H10 H 0.0940 0.4674 0.3852
C17 C 0.1134(3) 0.32562(14) 0.42023(13)
N1 N 0.0444(2) 0.29156(12) 0.35877(11)
C18 C 0.1534(4) 0.26309(18) 0.47888(14)
H11 H 0.1974 0.2875 0.5220
C19 C 0.1273(4) 0.16473(17) 0.47238(16)
H12 H 0.1546 0.1224 0.5109
C20 C 0.0607(3) 0.12960(15) 0.40865(14)
H13 H 0.0436 0.0635 0.4029
C21 C 0.0202(3) 0.19498(14) 0.35380(13)
H14 H -0.0262 0.1716 0.3111
C22 C -0.4400(3) 1.27031(16) 0.32384(16)
H15 H -0.5236 1.3046 0.3250
C23 C -0.3230(2) 1.32085(14) 0.32135(14)
H16 H -0.2410 1.2850 0.3180
C24 C -0.3073(2) 1.42644(14) 0.32325(13)
N2 N -0.1809(2) 1.46117(12) 0.30460(11)
C25 C -0.4155(3) 1.48783(17) 0.34514(16)
H17 H -0.5013 1.4622 0.3594
C26 C -0.3944(4) 1.58736(18) 0.34554(18)
H18 H -0.4656 1.6295 0.3598
C27 C -0.2650(3) 1.62301(17) 0.32419(16)
H19 H -0.2483 1.6896 0.3231
C28 C -0.1628(3) 1.55868(15) 0.30483(14)
H20 H -0.0760 1.5832 0.2911
Zn1B Zn -0.01408(2) 0.376480(15) 0.263792(13)
Zn1B_2 Zn -0.01408(2) 1.376480(15) 0.263792(13)
N1B N -0.0444(2) 0.79156(12) 0.14123(11)
N2B N 0.1809(2) 0.96117(12) 0.19540(11)
loop_
_geom_bond_atom_site_label_1
_geom_bond_atom_site_label_2
_geom_bond_site_symmetry_1
_geom_bond_site_symmetry_2
Zn1 O1 1_555 1_555
O1 C8 1_555 1_555
O2 Zn1 1_555 1_555
C1 C4 1_555 1_555
C2 H1 1_555 1_555
C3 C2 1_555 1_555
O3 C5 1_555 1_555
C4 H2 1_555 1_555
C5 O2 1_555 1_555
C6 C2 1_555 1_555
C7 C4 1_555 1_555
C8 C3 1_555 1_555
C9 C7 1_555 1_555
H3 C9 1_555 1_555
C10 C7 1_555 1_555
H4 C10 1_555 1_555
C11 C6 1_555 1_555
H5 C11 1_555 1_555
C12 C3 1_555 1_555
H6 C12 1_555 1_555
C13 C1 1_555 1_555
H7 C13 1_555 1_555
O4 C8 1_555 1_555
C14 C10 1_555 1_555
H8 C14 1_555 1_555
C15 C11 1_555 1_555
H9 C15 1_555 1_555
C16 C9 1_555 1_555
H10 C16 1_555 1_555
C17 C16 1_555 1_555
N1 C17 1_555 1_555
C18 C17 1_555 1_555
H11 C18 1_555 1_555
C19 C18 1_555 1_555
H12 C19 1_555 1_555
C20 C19 1_555 1_555
H13 C20 1_555 1_555
C21 N1 1_555 1_555
H14 C21 1_555 1_555
C22 C6 1_555 1_555
H15 C22 1_555 1_555
C23 C22 1_555 1_555
H16 C23 1_555 1_555
C24 C23 1_555 1_555
N2 C24 1_555 1_555
C25 C24 1_555 1_555
H17 C25 1_555 1_555
C26 C25 1_555 1_555
H18 C26 1_555 1_555
C27 C26 1_555 1_555
H19 C27 1_555 1_555
C28 N2 1_555 1_555
H20 C28 1_555 1_555
Zn1B N1 1_555 1_555
Zn1B_2 N2 1_555 1_555
N1B Zn1 1_555 1_555
N2B Zn1 1_555 1_555
C1 C5 1_555 1_555
C12 C15 1_555 1_555
C13 C14 1_555 1_555
C20 C21 1_555 1_555
C27 C28 1_555 1_555

#END
