
#######################################################################
#
#                 Cambridge Crystallographic Data Centre
#                                CCDC 
#
#######################################################################
#
# If this CIF has been generated from an entry in the Cambridge 
# Structural Database, then it will include bibliographic, chemical, 
# crystal, experimental, refinement or atomic coordinate data resulting 
# from the CCDC's data processing and validation procedures.
#
#######################################################################

data_GUXQAS
_symmetry_cell_setting           tetragonal
_symmetry_space_group_name_H-M   'I 41/a'
_symmetry_Int_Tables_number      88
_space_group_name_Hall           '-I 4ad'
loop_
_symmetry_equiv_pos_site_id
_symmetry_equiv_pos_as_xyz
1 x,y,z
2 1/2-x,-y,1/2+z
3 3/4-y,1/4+x,1/4+z
4 3/4+y,3/4-x,3/4+z
5 1/2+x,1/2+y,1/2+z
6 -x,1/2-y,z
7 1/4-y,3/4+x,3/4+z
8 1/4+y,1/4-x,1/4+z
9 -x,-y,-z
10 1/2+x,y,1/2-z
11 1/4+y,3/4-x,3/4-z
12 1/4-y,1/4+x,1/4-z
13 1/2-x,1/2-y,1/2-z
14 x,1/2+y,-z
15 3/4+y,1/4-x,1/4-z
16 3/4-y,3/4+x,3/4-z
_cell_length_a                   30.0837(16)
_cell_length_b                   30.0837(16)
_cell_length_c                   8.6670(9)
_cell_angle_alpha                90
_cell_angle_beta                 90
_cell_angle_gamma                90
_cell_volume                     7843.89
loop_
_atom_site_label
_atom_site_type_symbol
_atom_site_fract_x
_atom_site_fract_y
_atom_site_fract_z
Cu1 Cu 0.896392(8) 0.234894(8) 0.06588(3)
F1 F 0.74611(9) 0.42776(7) 0.0122(3)
F2 F 0.80480(10) 0.38168(13) 0.4814(2)
O1 O 0.86410(5) 0.22615(6) 0.25911(18)
O2 O 0.85810(6) 0.23021(8) 0.5111(2)
O3 O 0.97340(5) 0.30722(5) 0.34992(17)
O4 O 0.93356(5) 0.28005(5) 0.16025(16)
O5 O 0.72247(5) 0.29286(6) -0.1063(2)
H1 H 0.6989(6) 0.2875(10) -0.056(3)
N1 N 0.86127(6) 0.28839(6) -0.0628(2)
N2 N 0.84107(6) 0.35962(7) -0.1023(3)
N3 N 0.81013(6) 0.33104(6) -0.1606(2)
N4 N 0.67150(6) 0.35098(6) -0.2902(2)
N5 N 0.68889(7) 0.36716(7) -0.4243(2)
N6 N 0.63944(6) 0.31323(6) -0.4708(2)
C1 C 0.87069(8) 0.33200(8) -0.0467(3)
H2 H 0.8966 0.3418 0.0009
C2 C 0.82277(7) 0.28943(8) -0.1361(3)
H3 H 0.8068 0.2644 -0.1663
C3 C 0.76761(7) 0.34787(8) -0.2145(3)
H4 H 0.7601 0.3338 -0.3118
H5 H 0.7699 0.3796 -0.2323
C4 C 0.73058(7) 0.33881(8) -0.0967(3)
C5 C 0.68840(8) 0.36512(9) -0.1413(3)
H6 H 0.6657 0.3606 -0.0633
H7 H 0.6953 0.3966 -0.1449
C6 C 0.64235(7) 0.31947(8) -0.3199(3)
H8 H 0.6262 0.3039 -0.2460
C7 C 0.66869(8) 0.34326(8) -0.5285(3)
H9 H 0.6739 0.3465 -0.6337
C8 C 0.74666(8) 0.35144(10) 0.0649(3)
C9 C 0.75487(12) 0.39375(13) 0.1104(4)
C10 C 0.77372(13) 0.40565(17) 0.2512(4)
H10 H 0.7783 0.4351 0.2791
C11 C 0.78498(13) 0.3714(2) 0.3448(4)
C12 C 0.77868(12) 0.32784(19) 0.3094(4)
H11 H 0.7873 0.3053 0.3765
C13 C 0.75885(10) 0.31856(13) 0.1691(3)
H12 H 0.7534 0.2890 0.1434
C14 C 0.87998(8) 0.23311(7) 0.3915(3)
C15 C 0.92904(7) 0.24441(8) 0.4082(3)
H13 H 0.9343 0.2545 0.5130
H14 H 0.9462 0.2174 0.3932
C16 C 0.94628(7) 0.27927(7) 0.2990(2)
Cu1N Cu 0.984894(8) 0.353608(8) 0.18412(3)
Cu1L Cu 0.603608(8) 0.265106(8) -0.56588(3)
O3K O 0.94278(5) 0.22340(5) -0.09992(17)
O4K O 0.96995(5) 0.18356(5) 0.08975(16)
N6L N 0.86056(6) 0.18677(6) -0.0292(2)
loop_
_geom_bond_atom_site_label_1
_geom_bond_atom_site_label_2
_geom_bond_site_symmetry_1
_geom_bond_site_symmetry_2
Cu1 O1 1_555 1_555
F1 C9 1_555 1_555
F2 C11 1_555 1_555
O1 C14 1_555 1_555
O2 C14 1_555 1_555
O3 C16 1_555 1_555
O4 Cu1 1_555 1_555
O5 H1 1_555 1_555
N1 Cu1 1_555 1_555
N2 N3 1_555 1_555
N3 C2 1_555 1_555
N4 N5 1_555 1_555
N5 C7 1_555 1_555
N6 C6 1_555 1_555
C1 N1 1_555 1_555
H2 C1 1_555 1_555
C2 N1 1_555 1_555
H3 C2 1_555 1_555
C3 N3 1_555 1_555
H4 C3 1_555 1_555
H5 C3 1_555 1_555
C4 O5 1_555 1_555
C5 N4 1_555 1_555
H6 C5 1_555 1_555
H7 C5 1_555 1_555
C6 N4 1_555 1_555
H8 C6 1_555 1_555
C7 N6 1_555 1_555
H9 C7 1_555 1_555
C8 C4 1_555 1_555
C9 C8 1_555 1_555
C10 C9 1_555 1_555
H10 C10 1_555 1_555
C11 C10 1_555 1_555
C12 C11 1_555 1_555
H11 C12 1_555 1_555
C13 C8 1_555 1_555
H12 C13 1_555 1_555
C14 C15 1_555 1_555
C15 H13 1_555 1_555
H14 C15 1_555 1_555
C16 O4 1_555 1_555
Cu1N O3 1_555 1_555
Cu1L N6 1_555 1_555
O3K Cu1 1_555 1_555
O4K Cu1 1_555 1_555
N6L Cu1 1_555 1_555
O4 Cu1N 1_555 1_555
N2 C1 1_555 1_555
C3 C4 1_555 1_555
C4 C5 1_555 1_555
C12 C13 1_555 1_555
C15 C16 1_555 1_555

#END
