
#######################################################################
#
#                 Cambridge Crystallographic Data Centre
#                                CCDC 
#
#######################################################################
#
# If this CIF has been generated from an entry in the Cambridge 
# Structural Database, then it will include bibliographic, chemical, 
# crystal, experimental, refinement or atomic coordinate data resulting 
# from the CCDC's data processing and validation procedures.
#
#######################################################################

data_GUXTOJ
_symmetry_cell_setting           triclinic
_symmetry_space_group_name_H-M   'P -1'
_symmetry_Int_Tables_number      2
_space_group_name_Hall           '-P 1'
loop_
_symmetry_equiv_pos_site_id
_symmetry_equiv_pos_as_xyz
1 x,y,z
2 -x,-y,-z
_cell_length_a                   12.348(7)
_cell_length_b                   13.308(8)
_cell_length_c                   15.115(7)
_cell_angle_alpha                70.90(5)
_cell_angle_beta                 87.04(4)
_cell_angle_gamma                78.51(5)
_cell_volume                     2299.79
loop_
_atom_site_label
_atom_site_type_symbol
_atom_site_fract_x
_atom_site_fract_y
_atom_site_fract_z
Ag1 Ag 0.92066(3) -0.58458(2) 0.44682(2)
Ag2 Ag 0.55354(2) 0.57275(2) 0.048791(19)
Ag3 Ag 0.64420(2) 0.35063(2) 0.110823(19)
Ag4 Ag 1.26461(3) -1.48995(2) 0.78313(2)
O1 O 0.4527(2) 0.5451(2) 0.17114(19)
O2 O 0.5131(2) 0.3653(2) 0.22449(18)
O3 O 0.4812(2) 0.3143(2) 0.44216(19)
O4 O 0.4431(3) 0.1626(2) 0.4327(2)
O5 O 0.1907(2) 0.1898(2) 0.1679(2)
O6 O 0.0879(2) 0.3464(2) 0.08509(18)
O7 O 0.3294(2) 0.4091(2) 0.06330(19)
O8 O 0.2544(2) 0.5856(2) 0.02288(17)
N1 N 1.4700(3) -2.2396(2) 0.9895(2)
N2 N 1.3105(3) -1.6640(2) 0.8358(2)
N3 N 0.7026(3) 0.1622(2) 0.1901(2)
N4 N 0.8694(3) -0.4109(3) 0.3868(2)
N5 N 1.2023(3) -1.3205(2) 0.7079(2)
N6 N 0.9921(3) -0.7551(3) 0.5004(2)
C1 C 0.3463(3) 0.4479(3) 0.2871(3)
H1 H 0.3607 0.4813 0.3348
C2 C 0.3298(3) 0.3316(3) 0.3413(3)
H2 H 0.2645 0.3397 0.3821
C3 C 0.2978(3) 0.2760(3) 0.2756(3)
H3 H 0.2826 0.2039 0.3128
H4 H 0.3601 0.2653 0.2336
C4 C 0.1927(3) 0.3455(3) 0.2153(3)
H5 H 0.1317 0.3460 0.2613
C5 C 0.1983(3) 0.4660(3) 0.1665(3)
H6 H 0.1207 0.5051 0.1482
C6 C 0.2382(3) 0.5143(3) 0.2360(3)
H7 H 0.2488 0.5889 0.2016
H8 H 0.1801 0.5189 0.2829
C7 C 0.4471(3) 0.4508(3) 0.2225(3)
C8 C 0.4285(3) 0.2634(3) 0.4088(3)
C9 C 0.1575(3) 0.2896(3) 0.1503(3)
C10 C 0.2657(3) 0.4893(3) 0.0759(3)
C11 C 1.3826(3) -2.1910(3) 1.0248(3)
H9 H 1.3410 -2.2350 1.0706
C12 C 1.3480(3) -2.0779(3) 0.9984(3)
H10 H 1.2859 -2.0470 1.0271
C13 C 1.4059(3) -2.0116(3) 0.9295(3)
C14 C 1.5002(3) -2.0640(3) 0.8932(3)
H11 H 1.5444 -2.0226 0.8481
C15 C 1.5273(3) -2.1755(3) 0.9240(3)
H12 H 1.5897 -2.2092 0.8976
C16 C 1.3724(3) -1.8925(3) 0.8976(3)
C17 C 1.2789(4) -1.8398(3) 0.9300(3)
H13 H 1.2345 -1.8807 0.9753
C18 C 1.2491(4) -1.7273(3) 0.8967(4)
H14 H 1.1824 -1.6937 0.9181
C19 C 1.4003(4) -1.7150(3) 0.8047(3)
H15 H 1.4446 -1.6722 0.7608
C20 C 1.4331(3) -1.8262(3) 0.8323(3)
H16 H 1.4976 -1.8576 0.8066
C21 C 0.7945(3) 0.1067(3) 0.1626(3)
H17 H 0.8382 0.1461 0.1154
C22 C 0.8280(3) -0.0036(3) 0.1995(3)
H18 H 0.8925 -0.0385 0.1764
C23 C 0.7683(3) -0.0651(3) 0.2707(3)
C24 C 0.6736(3) -0.0066(3) 0.2995(3)
H19 H 0.6286 -0.0439 0.3469
C25 C 0.6451(3) 0.1047(3) 0.2597(3)
H20 H 0.5822 0.1422 0.2826
C26 C 0.8026(3) -0.1839(3) 0.3103(3)
C27 C 0.8967(4) -0.2398(3) 0.2808(3)
H21 H 0.9406 -0.2011 0.2333
C28 C 0.9276(4) -0.3504(3) 0.3194(4)
H22 H 0.9927 -0.3858 0.2975
C29 C 0.7796(3) -0.3587(3) 0.4149(3)
H23 H 0.7372 -0.3996 0.4623
C30 C 0.7430(3) -0.2469(3) 0.3793(3)
H24 H 0.6772 -0.2138 0.4023
C31 C 1.1039(3) -1.2703(3) 0.7351(3)
H25 H 1.0642 -1.3125 0.7840
C32 C 1.0610(3) -1.1634(3) 0.6956(3)
H26 H 0.9934 -1.1324 0.7177
C33 C 1.1162(3) -1.0980(3) 0.6217(3)
C34 C 1.2139(3) -1.1509(3) 0.5929(3)
H27 H 1.2536 -1.1113 0.5424
C35 C 1.2535(3) -1.2593(3) 0.6367(3)
H28 H 1.3204 -1.2923 0.6152
C36 C 1.0735(3) -0.9804(3) 0.5800(3)
C37 C 0.9754(3) -0.9279(3) 0.6097(3)
H29 H 0.9337 -0.9685 0.6579
C38 C 0.9388(4) -0.8169(3) 0.5691(3)
H30 H 0.8727 -0.7836 0.5915
C39 C 1.0859(3) -0.8056(3) 0.4719(3)
H31 H 1.1255 -0.7628 0.4233
C40 C 1.1285(3) -0.9142(3) 0.5080(3)
H32 H 1.1952 -0.9445 0.4842
Ag2A Ag 0.44646(2) 0.42725(2) -0.048791(19)
Ag2_2 Ag 1.55354(2) -2.42725(2) 1.048791(19)
Ag3A Ag 0.35580(2) 0.64937(2) -0.110823(19)
O7A O 0.6706(2) 0.5909(2) -0.06330(19)
O8A O 0.7456(2) 0.4144(2) -0.02288(17)
N1_2 N 0.4700(3) 0.7604(2) -0.0105(2)
O9 O 0.7478(2) -0.5947(2) 0.5473(2)
H33 H 0.6945 -0.5792 0.5086
H34 H 0.7421 -0.6488 0.5952
O10 O 0.5909(2) -0.5163(2) 0.4025(2)
H35 H 0.5555 -0.4536 0.3996
H36 H 0.5493 -0.5627 0.4141
O11 O 0.4795(3) -0.3055(2) 0.3827(2)
H37 H 0.4184 -0.2834 0.3526
H38 H 0.4698 -0.3030 0.4381
O12 O 0.2725(3) -0.2182(3) 0.2831(2)
H39 H 0.2843 -0.1544 0.2566
H40 H 0.2204 -0.2148 0.2471
O13 O 0.2914(3) -0.0172(3) 0.2788(3)
H41 H 0.3128 -0.0174 0.3315
H42 H 0.2608 0.0457 0.2445
O14 O 0.3972(2) -0.0288(2) 0.4368(2)
H43 H 0.4098 0.0327 0.4337
H44 H 0.4511 -0.0819 0.4552
O15 O 0.1067(3) -0.1628(3) 0.1401(2)
H45 H 0.1015 -0.0955 0.1106
H46 H 0.1210 -0.1984 0.1021
O16 O 0.0852(2) 0.0645(2) 0.0952(2)
H47 H 0.1175 0.1024 0.1169
H48 H 0.0205 0.0983 0.0757
O17 O -0.0886(2) 0.5054(2) 0.1000(2)
H49 H -0.0347 0.4559 0.0969
H50 H -0.1032 0.5513 0.0457
O18 O -0.0548(2) 0.2666(2) -0.0086(2)
H51 H -0.1148 0.3126 -0.0240
H52 H -0.0100 0.2864 0.0201
loop_
_geom_bond_atom_site_label_1
_geom_bond_atom_site_label_2
_geom_bond_site_symmetry_1
_geom_bond_site_symmetry_2
Ag1 N4 1_555 1_555
Ag2 O1 1_555 1_555
Ag3 O2 1_555 1_555
Ag4 N2 1_555 1_555
O1 C7 1_555 1_555
O2 C7 1_555 1_555
O3 C8 1_555 1_555
O4 C8 1_555 1_555
O5 C9 1_555 1_555
O6 C9 1_555 1_555
O7 C10 1_555 1_555
O8 C10 1_555 1_555
N1 C11 1_555 1_555
N2 C18 1_555 1_555
N3 Ag3 1_555 1_555
N4 C28 1_555 1_555
N5 Ag4 1_555 1_555
N6 Ag1 1_555 1_555
C1 H1 1_555 1_555
C2 C1 1_555 1_555
H2 C2 1_555 1_555
C3 C2 1_555 1_555
H3 C3 1_555 1_555
H4 C3 1_555 1_555
C4 C3 1_555 1_555
H5 C4 1_555 1_555
C5 C4 1_555 1_555
H6 C5 1_555 1_555
C6 C1 1_555 1_555
H7 C6 1_555 1_555
H8 C6 1_555 1_555
C7 C1 1_555 1_555
C8 C2 1_555 1_555
C9 C4 1_555 1_555
C10 C5 1_555 1_555
C11 H9 1_555 1_555
C12 C11 1_555 1_555
H10 C12 1_555 1_555
C13 C12 1_555 1_555
C14 C13 1_555 1_555
H11 C14 1_555 1_555
C15 N1 1_555 1_555
H12 C15 1_555 1_555
C16 C13 1_555 1_555
C17 C16 1_555 1_555
H13 C17 1_555 1_555
C18 C17 1_555 1_555
H14 C18 1_555 1_555
C19 N2 1_555 1_555
H15 C19 1_555 1_555
C20 C16 1_555 1_555
H16 C20 1_555 1_555
C21 N3 1_555 1_555
H17 C21 1_555 1_555
C22 C21 1_555 1_555
H18 C22 1_555 1_555
C23 C22 1_555 1_555
C24 C23 1_555 1_555
H19 C24 1_555 1_555
C25 N3 1_555 1_555
H20 C25 1_555 1_555
C26 C23 1_555 1_555
C27 C26 1_555 1_555
H21 C27 1_555 1_555
C28 C27 1_555 1_555
H22 C28 1_555 1_555
C29 N4 1_555 1_555
H23 C29 1_555 1_555
C30 C26 1_555 1_555
H24 C30 1_555 1_555
C31 N5 1_555 1_555
H25 C31 1_555 1_555
C32 C31 1_555 1_555
H26 C32 1_555 1_555
C33 C32 1_555 1_555
C34 C33 1_555 1_555
H27 C34 1_555 1_555
C35 N5 1_555 1_555
H28 C35 1_555 1_555
C36 C33 1_555 1_555
C37 C36 1_555 1_555
H29 C37 1_555 1_555
C38 N6 1_555 1_555
H30 C38 1_555 1_555
C39 N6 1_555 1_555
H31 C39 1_555 1_555
C40 C36 1_555 1_555
H32 C40 1_555 1_555
O9 H33 1_555 1_555
H34 O9 1_555 1_555
O10 H35 1_555 1_555
H36 O10 1_555 1_555
O11 H37 1_555 1_555
H38 O11 1_555 1_555
O12 H39 1_555 1_555
H40 O12 1_555 1_555
O13 H41 1_555 1_555
H42 O13 1_555 1_555
O14 H43 1_555 1_555
H44 O14 1_555 1_555
O15 H45 1_555 1_555
H46 O15 1_555 1_555
O16 H47 1_555 1_555
H48 O16 1_555 1_555
O17 H49 1_555 1_555
H50 O17 1_555 1_555
O18 H51 1_555 1_555
H52 O18 1_555 1_555
Ag2A O7 1_555 1_555
Ag2_2 N1 1_555 1_555
Ag3A O8 1_555 1_555
O7A Ag2 1_555 1_555
O8A Ag3 1_555 1_555
N1_2 Ag2 1_555 1_555
C5 C6 1_555 1_555
C14 C15 1_555 1_555
C19 C20 1_555 1_555
C24 C25 1_555 1_555
C29 C30 1_555 1_555
C34 C35 1_555 1_555
C37 C38 1_555 1_555
C39 C40 1_555 1_555

#END
