
#######################################################################
#
#                 Cambridge Crystallographic Data Centre
#                                CCDC 
#
#######################################################################
#
# If this CIF has been generated from an entry in the Cambridge 
# Structural Database, then it will include bibliographic, chemical, 
# crystal, experimental, refinement or atomic coordinate data resulting 
# from the CCDC's data processing and validation procedures.
#
#######################################################################

data_GUYBEH
_symmetry_cell_setting           orthorhombic
_symmetry_space_group_name_H-M   'C m c a'
_symmetry_Int_Tables_number      64
_space_group_name_Hall           '-C 2ac 2'
loop_
_symmetry_equiv_pos_site_id
_symmetry_equiv_pos_as_xyz
1 x,y,z
2 1/2+x,1/2+y,z
3 x,1/2+y,1/2-z
4 x,1/2-y,1/2+z
5 -x,y,z
6 1/2+x,y,1/2-z
7 1/2+x,-y,1/2+z
8 1/2-x,1/2+y,z
9 -x,-y,-z
10 1/2-x,1/2-y,-z
11 -x,1/2-y,1/2+z
12 -x,1/2+y,1/2-z
13 x,-y,-z
14 1/2-x,-y,1/2+z
15 1/2-x,y,1/2-z
16 1/2+x,1/2-y,-z
_cell_length_a                   37.6469(12)
_cell_length_b                   11.0621(4)
_cell_length_c                   11.41490(10)
_cell_angle_alpha                90
_cell_angle_beta                 90
_cell_angle_gamma                90
_cell_volume                     4753.78
loop_
_atom_site_label
_atom_site_type_symbol
_atom_site_fract_x
_atom_site_fract_y
_atom_site_fract_z
N3 N -0.0419(9) 0.4992(60) 0.5066(71)
C13 C -0.0249(14) 0.4428(46) 0.4189(56)
H12 H -0.0383(20) 0.4213(63) 0.3514(69)
C14 C -0.0111(14) 0.5861(31) 0.5792(48)
H13 H -0.0218(21) 0.3721(42) 0.3573(58)
C15 C -0.0312(10) 0.4478(42) 0.5181(58)
H14 H -0.0558(11) 0.4296(66) 0.5225(84)
C16 C -0.0142(16) 0.5091(40) 0.6090(43)
H15 H -0.0271(23) 0.4630(55) 0.3250(51)
C17 C -0.0224(15) 0.5285(47) 0.6006(52)
H16 H -0.0341(22) 0.4354(63) 0.3345(63)
N3L N -0.0419(9) 0.5008(60) 0.4934(71)
C13L C -0.0249(14) 0.5572(46) 0.5811(56)
C14L C -0.0111(14) 0.4139(31) 0.4208(48)
C13D C 0.0249(14) 0.4428(46) 0.4189(56)
N3D N 0.0419(9) 0.4992(60) 0.5066(71)
N3H N 0.0419(9) 0.5008(60) 0.4934(71)
C13H C 0.0249(14) 0.5572(46) 0.5811(56)
H12D H 0.0383(20) 0.4213(63) 0.3514(69)
C14H C 0.0111(14) 0.4139(31) 0.4208(48)
C15H C 0.0312(10) 0.5522(42) 0.4819(58)
C14D C 0.0111(14) 0.5861(31) 0.5792(48)
H12L H -0.0383(20) 0.5787(63) 0.6486(69)
C15L C -0.0312(10) 0.5522(42) 0.4819(58)
H14L H -0.0558(11) 0.5704(66) 0.4775(84)
C16L C -0.0142(16) 0.4909(40) 0.3910(43)
C17L C -0.0224(15) 0.4715(47) 0.3994(52)
H13D H 0.0218(21) 0.3721(42) 0.3573(58)
C16H C 0.0142(16) 0.4909(40) 0.3910(43)
C15D C 0.0312(10) 0.4478(42) 0.5181(58)
H14D H 0.0558(11) 0.4296(66) 0.5225(84)
H14H H 0.0558(11) 0.5704(66) 0.4775(84)
C16D C 0.0142(16) 0.5091(40) 0.6090(43)
C17H C 0.0224(15) 0.4715(47) 0.3994(52)
H12H H 0.0383(20) 0.5787(63) 0.6486(69)
H13L H -0.0218(21) 0.6279(42) 0.6427(58)
H13H H 0.0218(21) 0.6279(42) 0.6427(58)
C17D C 0.0224(15) 0.5285(47) 0.6006(52)
H15L H -0.0271(23) 0.5370(55) 0.6750(51)
H15H H 0.0271(23) 0.5370(55) 0.6750(51)
H15D H 0.0271(23) 0.4630(55) 0.3250(51)
H16D H 0.0341(22) 0.4354(63) 0.3345(63)
H16H H 0.0341(22) 0.5646(63) 0.6655(63)
H16L H -0.0341(22) 0.5646(63) 0.6655(63)
Ca1 Ca 0.24056(5) 0.5000 1.0000
O1 O 0.19526(13) 0.6582(5) 0.9828(5)
O2 O 0.20264(14) 0.5479(5) 0.8246(4)
O3 O 0.2709(2) 0.6196(6) 1.1423(6)
H1 H 0.2830(24) 0.5801(82) 1.1990(79)
H2 H 0.2677(26) 0.6884(83) 1.1546(88)
O4 O 0.2756(2) 0.6491(6) 0.8907(6)
H3 H 0.2925(23) 0.7010(78) 0.9225(76)
H4 H 0.2848(26) 0.5850(85) 0.8872(90)
N1 N 0.0523(2) 1.0000 0.5000
N2 N 0.0000 0.8767(9) 0.6429(8)
H5 H 0.0000 0.9316(47) 0.5789(40)
C1 C 0.1112(2) 0.9589(6) 0.5430(6)
H6 H 0.1298(18) 0.9293(60) 0.5765(60)
C2 C 0.0746(2) 0.9344(7) 0.5727(6)
C3 C 0.0643(2) 0.8559(7) 0.6621(7)
C4 C 0.0295(2) 0.8299(9) 0.6949(8)
C5 C 0.0183(2) 0.7518(11) 0.7854(10)
H7 H 0.0338(26) 0.7022(94) 0.8312(91)
C6 C 0.0944(2) 0.7929(7) 0.7242(6)
C7 C 0.1095(2) 0.6902(8) 0.6767(7)
H8 H 0.0967(20) 0.6599(66) 0.6082(65)
C8 C 0.1393(2) 0.6382(8) 0.7257(7)
H9 H 0.1492(20) 0.5725(70) 0.6863(67)
C9 C 0.1541(2) 0.6867(7) 0.8272(6)
C10 C 0.1381(2) 0.7859(8) 0.8755(7)
H10 H 0.1476(20) 0.8150(68) 0.9504(67)
C11 C 0.1083(2) 0.8370(8) 0.8260(8)
H11 H 0.0998(21) 0.8998(72) 0.8606(68)
C12 C 0.1862(2) 0.6278(7) 0.8819(7)
C2L C 0.0746(2) 1.0656(7) 0.4273(6)
C1L C 0.1112(2) 1.0411(6) 0.4570(6)
H6L H 0.1298(18) 1.0707(60) 0.4235(60)
C3L C 0.0643(2) 1.1441(7) 0.3379(7)
C4L C 0.0295(2) 1.1701(9) 0.3051(8)
N2L N 0.0000 1.1233(9) 0.3571(8)
H5L H 0.0000 1.0684(47) 0.4211(40)
C4H C -0.0295(2) 1.1701(9) 0.3051(8)
C3H C -0.0643(2) 1.1441(7) 0.3379(7)
C2H C -0.0746(2) 1.0656(7) 0.4273(6)
N1H N -0.0523(2) 1.0000 0.5000
C2D C -0.0746(2) 0.9344(7) 0.5727(6)
C1D C -0.1112(2) 0.9589(6) 0.5430(6)
C1H C -0.1112(2) 1.0411(6) 0.4570(6)
H6H H -0.1298(18) 1.0707(60) 0.4235(60)
H6D H -0.1298(18) 0.9293(60) 0.5765(60)
C3D C -0.0643(2) 0.8559(7) 0.6621(7)
C4D C -0.0295(2) 0.8299(9) 0.6949(8)
C5D C -0.0183(2) 0.7518(11) 0.7854(10)
H7D H -0.0338(26) 0.7022(94) 0.8312(91)
C6D C -0.0944(2) 0.7929(7) 0.7242(6)
C7D C -0.1095(2) 0.6902(8) 0.6767(7)
H8D H -0.0967(20) 0.6599(66) 0.6082(65)
C8D C -0.1393(2) 0.6382(8) 0.7257(7)
H9D H -0.1492(20) 0.5725(70) 0.6863(67)
C9D C -0.1541(2) 0.6867(7) 0.8272(6)
C10D C -0.1381(2) 0.7859(8) 0.8755(7)
H10D H -0.1476(20) 0.8150(68) 0.9504(67)
C11D C -0.1083(2) 0.8370(8) 0.8260(8)
H11D H -0.0998(21) 0.8998(72) 0.8606(68)
C12D C -0.1862(2) 0.6278(7) 0.8819(7)
O1D O -0.19526(13) 0.6582(5) 0.9828(5)
O2D O -0.20264(14) 0.5479(5) 0.8246(4)
C6H C -0.0944(2) 1.2071(7) 0.2758(6)
C7H C -0.1095(2) 1.3098(8) 0.3233(7)
H8H H -0.0967(20) 1.3401(66) 0.3918(65)
C8H C -0.1393(2) 1.3618(8) 0.2743(7)
H9H H -0.1492(20) 1.4275(70) 0.3137(67)
C9H C -0.1541(2) 1.3133(7) 0.1728(6)
C10H C -0.1381(2) 1.2141(8) 0.1245(7)
H10H H -0.1476(20) 1.1850(68) 0.0496(67)
C11H C -0.1083(2) 1.1630(8) 0.1740(8)
H11H H -0.0998(21) 1.1002(72) 0.1394(68)
C12H C -0.1862(2) 1.3722(7) 0.1181(7)
O1H O -0.19526(13) 1.3418(5) 0.0172(5)
O2H O -0.20264(14) 1.4521(5) 0.1754(4)
C5H C -0.0183(2) 1.2482(11) 0.2146(10)
C5L C 0.0183(2) 1.2482(11) 0.2146(10)
H7L H 0.0338(26) 1.2978(94) 0.1688(91)
H7H H -0.0338(26) 1.2978(94) 0.1688(91)
C6L C 0.0944(2) 1.2071(7) 0.2758(6)
C7L C 0.1095(2) 1.3098(8) 0.3233(7)
H8L H 0.0967(20) 1.3401(66) 0.3918(65)
C8L C 0.1393(2) 1.3618(8) 0.2743(7)
H9L H 0.1492(20) 1.4275(70) 0.3137(67)
C9L C 0.1541(2) 1.3133(7) 0.1728(6)
C10L C 0.1381(2) 1.2141(8) 0.1245(7)
H10L H 0.1476(20) 1.1850(68) 0.0496(67)
C11L C 0.1083(2) 1.1630(8) 0.1740(8)
H11L H 0.0998(21) 1.1002(72) 0.1394(68)
C12L C 0.1862(2) 1.3722(7) 0.1181(7)
O1L O 0.19526(13) 1.3418(5) 0.0172(5)
O2L O 0.20264(14) 1.4521(5) 0.1754(4)
O3L O 0.2709(2) 0.3804(6) 0.8577(6)
H1L H 0.2830(24) 0.4199(82) 0.8010(79)
H2L H 0.2677(26) 0.3116(83) 0.8454(88)
O4L O 0.2756(2) 0.3509(6) 1.1093(6)
H3L H 0.2925(23) 0.2990(78) 1.0775(76)
H4L H 0.2848(26) 0.4150(85) 1.1128(90)
Ca1D Ca -0.24056(5) 0.5000 1.0000
O3D O -0.2709(2) 0.6196(6) 1.1423(6)
H1D H -0.2830(24) 0.5801(82) 1.1990(79)
H2D H -0.2677(26) 0.6884(83) 1.1546(88)
O3H O -0.2709(2) 0.3804(6) 0.8577(6)
H1H H -0.2830(24) 0.4199(82) 0.8010(79)
H2H H -0.2677(26) 0.3116(83) 0.8454(88)
O4D O -0.2756(2) 0.6491(6) 0.8907(6)
H3D H -0.2925(23) 0.7010(78) 0.9225(76)
H4D H -0.2848(26) 0.5850(85) 0.8872(90)
O4H O -0.2756(2) 0.3509(6) 1.1093(6)
H3H H -0.2925(23) 0.2990(78) 1.0775(76)
H4H H -0.2848(26) 0.4150(85) 1.1128(90)
O1L_2 O 0.19526(13) 0.3418(5) 1.0172(5)
O2L_2 O 0.20264(14) 0.4521(5) 1.1754(4)
Ca1D_2 Ca -0.24056(5) 1.5000 0.0000
Ca1_2 Ca 0.24056(5) 1.5000 0.0000
O1H_2 O -0.19526(13) 0.3418(5) 1.0172(5)
O2H_2 O -0.20264(14) 0.4521(5) 1.1754(4)
loop_
_geom_bond_atom_site_label_1
_geom_bond_atom_site_label_2
_geom_bond_site_symmetry_1
_geom_bond_site_symmetry_2
Ca1 O1 1_555 1_555
O1 C12 1_555 1_555
O2 Ca1 1_555 1_555
O3 Ca1 1_555 1_555
H1 O3 1_555 1_555
H2 O3 1_555 1_555
O4 Ca1 1_555 1_555
H3 O4 1_555 1_555
H4 O4 1_555 1_555
N1 C2 1_555 1_555
N2 H5 1_555 1_555
C1 H6 1_555 1_555
C2 C1 1_555 1_555
C3 C2 1_555 1_555
C4 N2 1_555 1_555
C5 C4 1_555 1_555
H7 C5 1_555 1_555
C6 C3 1_555 1_555
C7 C6 1_555 1_555
H8 C7 1_555 1_555
C8 C7 1_555 1_555
H9 C8 1_555 1_555
C9 C8 1_555 1_555
C10 C9 1_555 1_555
H10 C10 1_555 1_555
C11 C6 1_555 1_555
H11 C11 1_555 1_555
C12 O2 1_555 1_555
N3 C13 1_555 1_555
C13 H12 1_555 1_555
H12 H13 1_555 1_555
C14 N3 1_555 1_555
H13 C13 1_555 1_555
C15 N3 1_555 1_555
H14 N3 1_555 1_555
C16 N3 1_555 1_555
H15 C13 1_555 1_555
C17 N3 1_555 1_555
H16 C13 1_555 1_555
C2L N1 1_555 1_555
C1L C1 1_555 1_555
H6L C1L 1_555 1_555
C3L C2L 1_555 1_555
C4L C3L 1_555 1_555
N2L C4L 1_555 1_555
H5L N2L 1_555 1_555
C4H N2L 1_555 1_555
C3H C4H 1_555 1_555
C2H C3H 1_555 1_555
N1H C2H 1_555 1_555
C2D N1H 1_555 1_555
C1D C2D 1_555 1_555
C1H C2H 1_555 1_555
H6H C1H 1_555 1_555
H6D C1D 1_555 1_555
C3D C2D 1_555 1_555
C4D N2 1_555 1_555
C5D C5 1_555 1_555
H7D C5D 1_555 1_555
C6D C3D 1_555 1_555
C7D C6D 1_555 1_555
H8D C7D 1_555 1_555
C8D C7D 1_555 1_555
H9D C8D 1_555 1_555
C9D C8D 1_555 1_555
C10D C9D 1_555 1_555
H10D C10D 1_555 1_555
C11D C6D 1_555 1_555
H11D C11D 1_555 1_555
C12D C9D 1_555 1_555
O1D C12D 1_555 1_555
O2D C12D 1_555 1_555
C6H C3H 1_555 1_555
C7H C6H 1_555 1_555
H8H C7H 1_555 1_555
C8H C7H 1_555 1_555
H9H C8H 1_555 1_555
C9H C8H 1_555 1_555
C10H C9H 1_555 1_555
H10H C10H 1_555 1_555
C11H C6H 1_555 1_555
H11H C11H 1_555 1_555
C12H C9H 1_555 1_555
O1H C12H 1_555 1_555
O2H C12H 1_555 1_555
C5H C4H 1_555 1_555
C5L C4L 1_555 1_555
H7L C5L 1_555 1_555
H7H C5H 1_555 1_555
C6L C3L 1_555 1_555
C7L C6L 1_555 1_555
H8L C7L 1_555 1_555
C8L C7L 1_555 1_555
H9L C8L 1_555 1_555
C9L C8L 1_555 1_555
C10L C9L 1_555 1_555
H10L C10L 1_555 1_555
C11L C6L 1_555 1_555
H11L C11L 1_555 1_555
C12L C9L 1_555 1_555
O1L C12L 1_555 1_555
O2L C12L 1_555 1_555
N3L N3 1_555 1_555
C13L N3 1_555 1_555
C14L C13 1_555 1_555
C13D C14L 1_555 1_555
N3D C13D 1_555 1_555
N3H C13D 1_555 1_555
C13H C14 1_555 1_555
H12D C13D 1_555 1_555
C14H C13 1_555 1_555
C15H C13D 1_555 1_555
C14D C14 1_555 1_555
H12L C14 1_555 1_555
C15L N3 1_555 1_555
H14L N3 1_555 1_555
C16L N3 1_555 1_555
C17L N3 1_555 1_555
H13D C13D 1_555 1_555
C16H C13 1_555 1_555
C15D C13D 1_555 1_555
H14D N3D 1_555 1_555
H14H N3D 1_555 1_555
C16D C14 1_555 1_555
C17H C14L 1_555 1_555
H12H C13H 1_555 1_555
H13L C14 1_555 1_555
H13H C13H 1_555 1_555
C17D C14 1_555 1_555
H15L C16 1_555 1_555
H15H C13H 1_555 1_555
H15D C13D 1_555 1_555
H16D C13D 1_555 1_555
H16H C13H 1_555 1_555
H16L C16 1_555 1_555
O3L Ca1 1_555 1_555
H1L O3L 1_555 1_555
H2L O3L 1_555 1_555
O4L Ca1 1_555 1_555
H3L O4L 1_555 1_555
H4L O4L 1_555 1_555
Ca1D O1D 1_555 1_555
O3D Ca1D 1_555 1_555
H1D O3D 1_555 1_555
H2D O3D 1_555 1_555
O3H Ca1D 1_555 1_555
H1H O3H 1_555 1_555
H2H O3H 1_555 1_555
O4D Ca1D 1_555 1_555
H3D O4D 1_555 1_555
H4D O4D 1_555 1_555
O4H Ca1D 1_555 1_555
H3H O4H 1_555 1_555
H4H O4H 1_555 1_555
O1L_2 Ca1 1_555 1_555
O2L_2 Ca1 1_555 1_555
Ca1D_2 O1H 1_555 1_555
Ca1_2 O1L 1_555 1_555
O1H_2 Ca1D 1_555 1_555
O2H_2 Ca1D 1_555 1_555
C3 C4 1_555 1_555
C9 C12 1_555 1_555
C10 C11 1_555 1_555
C13 N3L 1_555 1_555
C13 C17L 1_555 1_555
C13 C15L 1_555 1_555
C13 C16L 1_555 1_555
C13 C15 1_555 1_555
H12 H15 1_555 1_555
H12 C14L 1_555 1_555
H12 C16L 1_555 1_555
H12 C17L 1_555 1_555
H12 H16 1_555 1_555
C14 C13L 1_555 1_555
C14 C15L 1_555 1_555
C14 C17 1_555 1_555
C14 C16 1_555 1_555
H13 C14L 1_555 1_555
H13 C17L 1_555 1_555
C15 N3L 1_555 1_555
C15 C13L 1_555 1_555
C15 C14L 1_555 1_555
C15 C15L 1_555 1_555
C15 C16 1_555 1_555
C15 H14 1_555 1_555
C15 C16L 1_555 1_555
C15 C17 1_555 1_555
C15 C17L 1_555 1_555
H14 N3L 1_555 1_555
C16 N3L 1_555 1_555
C16 H12L 1_555 1_555
C16 C13L 1_555 1_555
C16 C13H 1_555 1_555
C16 C14D 1_555 1_555
C16 C16D 1_555 1_555
C16 C15L 1_555 1_555
C16 C17D 1_555 1_555
C16 C17 1_555 1_555
H15 C16L 1_555 1_555
H15 C17L 1_555 1_555
H15 H16 1_555 1_555
C17 N3L 1_555 1_555
C17 H13L 1_555 1_555
C17 C13L 1_555 1_555
C17 H12L 1_555 1_555
C17 C15L 1_555 1_555
C17 C14D 1_555 1_555
C17 H15L 1_555 1_555
C17 C16D 1_555 1_555
C17 C17D 1_555 1_555
C17 H16L 1_555 1_555
H16 C16L 1_555 1_555
H16 C17L 1_555 1_555
C2L C1L 1_555 1_555
C1D C1H 1_555 1_555
C3D C4D 1_555 1_555
C4D C5D 1_555 1_555
C10D C11D 1_555 1_555
O2D Ca1D 1_555 1_555
C10H C11H 1_555 1_555
O2H Ca1D_2 1_555 1_555
C5H C5L 1_555 1_555
C10L C11L 1_555 1_555
O2L Ca1_2 1_555 1_555
N3L C13L 1_555 1_555
N3L C14L 1_555 1_555
N3L C15L 1_555 1_555
N3L H14L 1_555 1_555
N3L C16L 1_555 1_555
N3L C17L 1_555 1_555
C13L H12L 1_555 1_555
C13L H13L 1_555 1_555
C13L H15L 1_555 1_555
C13L C14D 1_555 1_555
C13L C15L 1_555 1_555
C13L C16D 1_555 1_555
C13L H16L 1_555 1_555
C14L C14H 1_555 1_555
C14L C16H 1_555 1_555
C14L C16L 1_555 1_555
C14L C17L 1_555 1_555
C13D C14H 1_555 1_555
C13D C16H 1_555 1_555
C13D C16L 1_555 1_555
C13D C17H 1_555 1_555
N3D N3H 1_555 1_555
N3D C13H 1_555 1_555
N3D C14D 1_555 1_555
N3D C16D 1_555 1_555
N3D C15H 1_555 1_555
N3D C15D 1_555 1_555
N3D C17H 1_555 1_555
N3D C16H 1_555 1_555
N3D C17D 1_555 1_555
N3H C15H 1_555 1_555
N3H C15D 1_555 1_555
N3H H14H 1_555 1_555
N3H C17H 1_555 1_555
N3H C13H 1_555 1_555
N3H C14H 1_555 1_555
N3H C16H 1_555 1_555
N3H H14D 1_555 1_555
N3H C16D 1_555 1_555
N3H C17D 1_555 1_555
C13H C15D 1_555 1_555
C13H C14D 1_555 1_555
C13H C16D 1_555 1_555
C13H C17D 1_555 1_555
C13H C15H 1_555 1_555
H12D C14H 1_555 1_555
H12D C16H 1_555 1_555
H12D H13D 1_555 1_555
H12D H15D 1_555 1_555
H12D C17H 1_555 1_555
H12D H16D 1_555 1_555
C14H C16L 1_555 1_555
C14H C15D 1_555 1_555
C14H H13D 1_555 1_555
C14H C17H 1_555 1_555
C14H C16H 1_555 1_555
C14H C17L 1_555 1_555
C15H C14D 1_555 1_555
C15H C15D 1_555 1_555
C15H C16H 1_555 1_555
C15H H14H 1_555 1_555
C15H C16D 1_555 1_555
C15H C17H 1_555 1_555
C15H C17D 1_555 1_555
C14D H12H 1_555 1_555
C14D H13H 1_555 1_555
C14D C17D 1_555 1_555
C14D C16D 1_555 1_555
H12L H13L 1_555 1_555
H12L H15L 1_555 1_555
H12L H16L 1_555 1_555
C15L C17L 1_555 1_555
C15L H14L 1_555 1_555
C15L C16L 1_555 1_555
C16L C16H 1_555 1_555
C16L C17H 1_555 1_555
C16L C17L 1_555 1_555
C17L C16H 1_555 1_555
C17L C17H 1_555 1_555
H13D C17H 1_555 1_555
C16H H16D 1_555 1_555
C16H C15D 1_555 1_555
C16H H15D 1_555 1_555
C16H C17H 1_555 1_555
C15D H14D 1_555 1_555
C15D C16D 1_555 1_555
C15D C17D 1_555 1_555
C15D C17H 1_555 1_555
C16D H16H 1_555 1_555
C16D H12H 1_555 1_555
C16D H15H 1_555 1_555
C16D C17D 1_555 1_555
C17H H15D 1_555 1_555
C17H H16D 1_555 1_555
H12H H13H 1_555 1_555
H12H H15H 1_555 1_555
H12H C17D 1_555 1_555
H12H H16H 1_555 1_555
H13H C17D 1_555 1_555
C17D H15H 1_555 1_555
C17D H16H 1_555 1_555
H15L H16L 1_555 1_555
H15H H16H 1_555 1_555
H15D H16D 1_555 1_555

#END
