
#######################################################################
#
#                 Cambridge Crystallographic Data Centre
#                                CCDC 
#
#######################################################################
#
# If this CIF has been generated from an entry in the Cambridge 
# Structural Database, then it will include bibliographic, chemical, 
# crystal, experimental, refinement or atomic coordinate data resulting 
# from the CCDC's data processing and validation procedures.
#
#######################################################################

data_GUYJER
_symmetry_cell_setting           triclinic
_symmetry_space_group_name_H-M   'P -1'
_symmetry_Int_Tables_number      2
_space_group_name_Hall           '-P 1'
loop_
_symmetry_equiv_pos_site_id
_symmetry_equiv_pos_as_xyz
1 x,y,z
2 -x,-y,-z
_cell_length_a                   9.1308(3)
_cell_length_b                   13.6503(4)
_cell_length_c                   17.7229(5)
_cell_angle_alpha                87.558(2)
_cell_angle_beta                 85.382(3)
_cell_angle_gamma                86.398(3)
_cell_volume                     2195.86
loop_
_atom_site_label
_atom_site_type_symbol
_atom_site_fract_x
_atom_site_fract_y
_atom_site_fract_z
Tb1 Tb 0.70537(2) 0.948360(14) 0.460463(10)
O1 O 0.6910(4) 1.3244(3) 0.8410(2)
O2 O 0.6791(4) 1.4353(3) 1.17514(17)
O3 O 0.8349(3) 1.7346(2) 0.89005(17)
O4 O 0.7662(3) 1.0414(2) 0.56278(16)
O5 O 0.5254(3) 1.0611(2) 0.57988(15)
O6 O 0.6229(4) 1.1092(2) 1.42945(17)
O7 O 0.3843(4) 1.1590(2) 1.43885(16)
O8 O 1.2287(4) 2.0295(2) 0.68356(16)
O9 O 1.0836(3) 1.9766(3) 0.60475(16)
O10 O 0.7512(4) 0.7880(2) 0.4098(2)
H1 H 0.8310 0.7496 0.4218
H2 H 0.6891 0.7652 0.3783
O11 O 0.9330(4) 0.8751(2) 0.51005(18)
H3 H 0.9681 0.8142 0.4971
H4 H 0.9827 0.9086 0.5417
C1 C 0.7978(4) 1.4182(3) 0.9290(2)
C2 C 0.7106(4) 1.4056(3) 0.9971(2)
C3 C 0.6836(4) 1.4836(3) 1.0455(2)
C4 C 0.7520(4) 1.5725(3) 1.02919(19)
C5 C 0.8411(4) 1.5830(3) 0.9621(2)
C6 C 0.8585(4) 1.5084(3) 0.9102(2)
C7 C 0.8251(5) 1.3349(3) 0.8759(3)
H5 H 0.9039 1.3491 0.8377
H6 H 0.8532 1.2747 0.9036
C8 C 0.6466(6) 1.3082(3) 1.0185(3)
H7 H 0.5911 1.3124 1.0668
H8 H 0.7248 1.2582 1.0217
H9 H 0.5832 1.2920 0.9809
C9 C 0.5846(5) 1.4715(3) 1.1171(2)
H10 H 0.5351 1.5340 1.1307
H11 H 0.5109 1.4251 1.1104
C10 C 0.7306(6) 1.6533(3) 1.0849(2)
H12 H 0.6609 1.6350 1.1257
H13 H 0.6943 1.7127 1.0598
H14 H 0.8229 1.6640 1.1046
C11 C 0.9196(5) 1.6765(3) 0.9430(2)
H15 H 0.9267 1.7124 0.9884
H16 H 1.0183 1.6610 0.9205
C12 C 0.9428(6) 1.5267(4) 0.8341(3)
H17 H 0.9762 1.5922 0.8313
H18 H 0.8795 1.5194 0.7943
H19 H 1.0260 1.4803 0.8286
C13 C 0.6927(5) 1.2604(4) 0.7838(3)
C14 C 0.5551(5) 1.2409(5) 0.7614(3)
H20 H 0.4707 1.2691 0.7867
C15 C 0.5421(5) 1.1808(4) 0.7028(3)
H21 H 0.4493 1.1681 0.6890
C16 C 0.6672(4) 1.1386(3) 0.6638(2)
C17 C 0.8033(4) 1.1552(3) 0.6881(2)
H22 H 0.8874 1.1256 0.6635
C18 C 0.8180(4) 1.2148(3) 0.7482(2)
H23 H 0.9104 1.2241 0.7644
C19 C 0.6525(4) 1.0771(3) 0.5984(2)
C20 C 0.6256(5) 1.3764(3) 1.2339(2)
C21 C 0.7348(5) 1.3248(4) 1.2726(3)
H24 H 0.8334 1.3346 1.2590
C22 C 0.6969(5) 1.2598(3) 1.3306(3)
H25 H 0.7704 1.2256 1.3562
C23 C 0.5500(5) 1.2439(3) 1.3518(2)
C24 C 0.4431(5) 1.2999(3) 1.3165(2)
H26 H 0.3446 1.2938 1.3330
C25 C 0.4795(5) 1.3657(3) 1.2563(2)
H27 H 0.4062 1.4016 1.2318
C26 C 0.5145(5) 1.1651(3) 1.4112(2)
C27 C 0.9082(5) 1.7988(3) 0.8421(2)
C28 C 0.8469(5) 1.8205(4) 0.7742(3)
H28 H 0.7589 1.7939 0.7652
C29 C 0.9135(5) 1.8804(4) 0.7199(3)
H29 H 0.8717 1.8930 0.6741
C30 C 1.0431(4) 1.9227(3) 0.7326(2)
C31 C 1.0996(5) 1.9052(3) 0.8023(2)
H30 H 1.1837 1.9355 0.8126
C32 C 1.0332(5) 1.8430(3) 0.8574(2)
H31 H 1.0729 1.8315 0.9039
C33 C 1.1227(5) 1.9802(3) 0.6716(2)
Tb1_2 Tb 0.70537(2) 0.948360(14) 1.460463(10)
Tb1A Tb 0.29463(2) 1.051640(14) 0.539537(10)
Tb1A_2 Tb 0.29463(2) 1.051640(14) 1.539537(10)
Tb1A_3 Tb 1.29463(2) 2.051640(14) 0.539537(10)
O5A O 0.4746(3) 0.9389(2) 0.42012(15)
O6_2 O 0.6229(4) 1.1092(2) 0.42945(17)
O7A O 0.6157(4) 0.8410(2) 0.56115(16)
O8A O 0.7713(4) 0.9705(2) 0.31644(16)
O9A O 0.9164(3) 1.0234(3) 0.39525(16)
loop_
_geom_bond_atom_site_label_1
_geom_bond_atom_site_label_2
_geom_bond_site_symmetry_1
_geom_bond_site_symmetry_2
Tb1 O4 1_555 1_555
O1 C7 1_555 1_555
O2 C9 1_555 1_555
O3 C11 1_555 1_555
O4 C19 1_555 1_555
O5 C19 1_555 1_555
O6 C26 1_555 1_555
O7 C26 1_555 1_555
O8 C33 1_555 1_555
O9 C33 1_555 1_555
O10 Tb1 1_555 1_555
H1 O10 1_555 1_555
H2 O10 1_555 1_555
O11 Tb1 1_555 1_555
H3 O11 1_555 1_555
H4 O11 1_555 1_555
C1 C2 1_555 1_555
C2 C3 1_555 1_555
C3 C4 1_555 1_555
C4 C5 1_555 1_555
C5 C6 1_555 1_555
C6 C1 1_555 1_555
C7 C1 1_555 1_555
H5 C7 1_555 1_555
H6 C7 1_555 1_555
C8 C2 1_555 1_555
H7 C8 1_555 1_555
H8 C8 1_555 1_555
H9 C8 1_555 1_555
C9 C3 1_555 1_555
H10 C9 1_555 1_555
H11 C9 1_555 1_555
C10 C4 1_555 1_555
H12 C10 1_555 1_555
H13 C10 1_555 1_555
H14 C10 1_555 1_555
C11 C5 1_555 1_555
H15 C11 1_555 1_555
H16 C11 1_555 1_555
C12 C6 1_555 1_555
H17 C12 1_555 1_555
H18 C12 1_555 1_555
H19 C12 1_555 1_555
C13 O1 1_555 1_555
C14 C13 1_555 1_555
H20 C14 1_555 1_555
C15 C14 1_555 1_555
H21 C15 1_555 1_555
C16 C15 1_555 1_555
C17 C16 1_555 1_555
H22 C17 1_555 1_555
C18 C13 1_555 1_555
H23 C18 1_555 1_555
C19 C16 1_555 1_555
C20 O2 1_555 1_555
C21 C20 1_555 1_555
H24 C21 1_555 1_555
C22 C21 1_555 1_555
H25 C22 1_555 1_555
C23 C22 1_555 1_555
C24 C23 1_555 1_555
H26 C24 1_555 1_555
C25 C20 1_555 1_555
H27 C25 1_555 1_555
C26 C23 1_555 1_555
C27 O3 1_555 1_555
C28 C27 1_555 1_555
H28 C28 1_555 1_555
C29 C28 1_555 1_555
H29 C29 1_555 1_555
C30 C29 1_555 1_555
C31 C30 1_555 1_555
H30 C31 1_555 1_555
C32 C27 1_555 1_555
H31 C32 1_555 1_555
C33 C30 1_555 1_555
Tb1_2 O6 1_555 1_555
Tb1A O5 1_555 1_555
Tb1A_2 O7 1_555 1_555
Tb1A_3 O8 1_555 1_555
O5A Tb1 1_555 1_555
O6_2 Tb1 1_555 1_555
O7A Tb1 1_555 1_555
O8A Tb1 1_555 1_555
O9A Tb1 1_555 1_555
O9 Tb1A_3 1_555 1_555
C17 C18 1_555 1_555
C24 C25 1_555 1_555
C31 C32 1_555 1_555

#END
