
#######################################################################
#
#                 Cambridge Crystallographic Data Centre
#                                CCDC 
#
#######################################################################
#
# If this CIF has been generated from an entry in the Cambridge 
# Structural Database, then it will include bibliographic, chemical, 
# crystal, experimental, refinement or atomic coordinate data resulting 
# from the CCDC's data processing and validation procedures.
#
#######################################################################

data_GUYMAO
_symmetry_cell_setting           monoclinic
_symmetry_space_group_name_H-M   'C 2/c'
_symmetry_Int_Tables_number      15
_space_group_name_Hall           '-C 2yn'
loop_
_symmetry_equiv_pos_site_id
_symmetry_equiv_pos_as_xyz
1 x,y,z
2 1/2+x,1/2+y,z
3 -x,y,1/2-z
4 1/2-x,1/2+y,1/2-z
5 -x,-y,-z
6 1/2-x,1/2-y,-z
7 x,-y,1/2+z
8 1/2+x,1/2-y,1/2+z
_cell_length_a                   20.914(6)
_cell_length_b                   21.409(6)
_cell_length_c                   8.234(2)
_cell_angle_alpha                90
_cell_angle_beta                 104.028(5)
_cell_angle_gamma                90
_cell_volume                     3576.81
loop_
_atom_site_label
_atom_site_type_symbol
_atom_site_fract_x
_atom_site_fract_y
_atom_site_fract_z
Eu1 Eu 0.0000 0.28681(3) 0.7500
O1 O 0.0588(3) 0.2464(3) 0.5464(7)
O2 O 0.0699(3) 0.2085(3) 0.8790(8)
O3 O 0.0336(3) 0.3544(3) 0.9986(8)
O4 O 0.0926(3) 0.3605(3) 0.7364(8)
Eu2 Eu 0.0000 0.20685(3) 0.2500
C1 C -0.0565(4) 0.3435(4) 0.3515(12)
O5 O 0.0965(3) 0.1643(3) 0.4422(8)
O6 O -0.0502(3) 0.1480(3) 0.4205(8)
O7 O 0.0663(3) 0.2897(3) 0.2110(8)
C2 C -0.0777(5) 0.3966(4) 0.2299(12)
C3 C -0.1024(5) 0.2050(5) -0.0492(12)
C4 C 0.0716(4) 0.1568(5) -0.0483(12)
C5 C -0.1440(5) 0.3990(5) 0.1414(12)
C6 C -0.0359(4) 0.4454(4) 0.2095(12)
C7 C -0.1689(5) 0.2087(5) -0.1782(12)
C8 C 0.0995(5) 0.1012(4) -0.1181(11)
C9 C -0.1696(5) 0.4477(5) 0.0388(12)
C10 C -0.0634(5) 0.4951(5) 0.1050(12)
C11 C -0.1909(4) 0.1614(5) -0.2950(12)
C12 C -0.2078(5) 0.2594(5) -0.1649(14)
C13 C 0.0707(5) 0.0436(5) -0.0989(12)
C14 C 0.1530(5) 0.1038(5) -0.1911(12)
C15 C -0.1284(6) 0.4963(5) 0.0229(13)
C16 C -0.2537(5) 0.1677(5) -0.3980(13)
C17 C -0.2719(5) 0.2630(6) -0.2644(15)
C18 C 0.0942(7) -0.0107(5) -0.1527(15)
C19 C 0.1771(5) 0.0472(5) -0.2370(12)
C20 C -0.2933(5) 0.2172(6) -0.3828(14)
C21 C 0.1478(6) -0.0083(5) -0.2193(15)
O1B O -0.0588(3) 0.2464(3) 0.9536(7)
O2B O -0.0699(3) 0.2085(3) 0.6210(8)
O4B O -0.0926(3) 0.3605(3) 0.7636(8)
O3B O -0.0336(3) 0.3544(3) 0.5014(8)
O1B_2 O -0.0588(3) 0.2464(3) -0.0464(7)
O5B O -0.0965(3) 0.1643(3) 0.0578(8)
O6B O 0.0502(3) 0.1480(3) 0.0795(8)
O7B O -0.0663(3) 0.2897(3) 0.2890(8)
Eu1_2 Eu 0.0000 0.28681(3) -0.2500
C1B C 0.0565(4) 0.3435(4) 0.1485(12)
O1_2 O 0.0588(3) 0.2464(3) -0.4536(7)
O3_2 O 0.0336(3) 0.3544(3) -0.0014(8)
O2_2 O 0.0699(3) 0.2085(3) -0.1210(8)
O2B_2 O -0.0699(3) 0.2085(3) -0.3790(8)
C2B C 0.0777(5) 0.3966(4) 0.2701(12)
C6B C 0.0359(4) 0.4454(4) 0.2905(12)
Eu2_2 Eu 0.0000 0.20685(3) -0.7500
C3B C 0.1024(5) 0.2050(5) -0.4508(12)
C4B C -0.0716(4) 0.1568(5) -0.4517(12)
C5B C 0.1440(5) 0.3990(5) 0.3586(12)
C10B C 0.0634(5) 0.4951(5) 0.3950(12)
O5_2 O 0.0965(3) 0.1643(3) -0.5578(8)
O6_2 O -0.0502(3) 0.1480(3) -0.5795(8)
C7B C 0.1689(5) 0.2087(5) -0.3218(12)
C8B C -0.0995(5) 0.1012(4) -0.3819(11)
C14B C -0.1530(5) 0.1038(5) -0.3089(12)
C11B C 0.1909(4) 0.1614(5) -0.2050(12)
C9B C 0.1696(5) 0.4477(5) 0.4612(12)
C15B C 0.1284(6) 0.4963(5) 0.4771(13)
C12B C 0.2078(5) 0.2594(5) -0.3351(14)
C13B C -0.0707(5) 0.0436(5) -0.4011(12)
C19B C -0.1771(5) 0.0472(5) -0.2630(12)
C16B C 0.2537(5) 0.1677(5) -0.1020(13)
C17B C 0.2719(5) 0.2630(6) -0.2356(15)
C18B C -0.0942(7) -0.0107(5) -0.3473(15)
C21B C -0.1478(6) -0.0083(5) -0.2807(15)
C20B C 0.2933(5) 0.2172(6) -0.1172(14)
loop_
_geom_bond_atom_site_label_1
_geom_bond_atom_site_label_2
_geom_bond_site_symmetry_1
_geom_bond_site_symmetry_2
Eu1 O1 1_555 1_555
O1 Eu2 1_555 1_555
O2 Eu1 1_555 1_555
O3 Eu1 1_555 1_555
O4 Eu1 1_555 1_555
Eu2 O5 1_555 1_555
C1 C2 1_555 1_555
O6 Eu2 1_555 1_555
O7 Eu2 1_555 1_555
C2 C5 1_555 1_555
C3 C7 1_555 1_555
C4 C8 1_555 1_555
C5 C9 1_555 1_555
C6 C2 1_555 1_555
C7 C11 1_555 1_555
C8 C13 1_555 1_555
C9 C15 1_555 1_555
C10 C6 1_555 1_555
C11 C16 1_555 1_555
C12 C7 1_555 1_555
C13 C18 1_555 1_555
C14 C8 1_555 1_555
C15 C10 1_555 1_555
C16 C20 1_555 1_555
C17 C12 1_555 1_555
C18 C21 1_555 1_555
C19 C14 1_555 1_555
C20 C17 1_555 1_555
C21 C19 1_555 1_555
O1B Eu1 1_555 1_555
O2B Eu1 1_555 1_555
O4B Eu1 1_555 1_555
O3B Eu1 1_555 1_555
O1B_2 Eu2 1_555 1_555
O5B Eu2 1_555 1_555
O6B Eu2 1_555 1_555
O7B Eu2 1_555 1_555
Eu1_2 O1B_2 1_555 1_555
C1B O7 1_555 1_555
O1_2 Eu1_2 1_555 1_555
O3_2 Eu1_2 1_555 1_555
O2_2 C4 1_555 1_555
O2B_2 Eu1_2 1_555 1_555
C2B C1B 1_555 1_555
C6B C6 1_555 1_555
Eu2_2 O1_2 1_555 1_555
C3B O1_2 1_555 1_555
C4B O2B_2 1_555 1_555
C5B C2B 1_555 1_555
C10B C6B 1_555 1_555
O5_2 Eu2_2 1_555 1_555
O6_2 Eu2_2 1_555 1_555
C7B C3B 1_555 1_555
C8B C4B 1_555 1_555
C14B C11 1_555 1_555
C11B C14 1_555 1_555
C9B C5B 1_555 1_555
C15B C10B 1_555 1_555
C12B C7B 1_555 1_555
C13B C8B 1_555 1_555
C19B C14B 1_555 1_555
C16B C11B 1_555 1_555
C17B C12B 1_555 1_555
C18B C13B 1_555 1_555
C21B C19B 1_555 1_555
C20B C16B 1_555 1_555
C1 O3B 1_555 1_555
C1 O7B 1_555 1_555
C3 O1B_2 1_555 1_555
C3 O5B 1_555 1_555
C4 O6B 1_555 1_555
Eu1_2 O2_2 1_555 1_555
C1B O3_2 1_555 1_555
C2B C6B 1_555 1_555
C3B O5_2 1_555 1_555
C4B O6_2 1_555 1_555
C7B C11B 1_555 1_555
C8B C14B 1_555 1_555
C9B C15B 1_555 1_555
C17B C20B 1_555 1_555
C18B C21B 1_555 1_555

#END
