
#######################################################################
#
#                 Cambridge Crystallographic Data Centre
#                                CCDC 
#
#######################################################################
#
# If this CIF has been generated from an entry in the Cambridge 
# Structural Database, then it will include bibliographic, chemical, 
# crystal, experimental, refinement or atomic coordinate data resulting 
# from the CCDC's data processing and validation procedures.
#
#######################################################################

data_GUZBUY
_symmetry_cell_setting           monoclinic
_symmetry_space_group_name_H-M   'C 2/c'
_symmetry_Int_Tables_number      15
_space_group_name_Hall           '-C 2yn'
loop_
_symmetry_equiv_pos_site_id
_symmetry_equiv_pos_as_xyz
1 x,y,z
2 -x,y,1/2-z
3 1/2+x,1/2+y,z
4 1/2-x,1/2+y,1/2-z
5 -x,-y,-z
6 x,-y,1/2+z
7 1/2-x,1/2-y,-z
8 1/2+x,1/2-y,1/2+z
_cell_length_a                   18.079(3)
_cell_length_b                   3.8138(8)
_cell_length_c                   15.022(4)
_cell_angle_alpha                90
_cell_angle_beta                 92.71(1)
_cell_angle_gamma                90
_cell_volume                     1034.6
loop_
_atom_site_label
_atom_site_type_symbol
_atom_site_fract_x
_atom_site_fract_y
_atom_site_fract_z
Co1 Co 0.0000 0.013(7) 0.2500
Br1 Br -0.0620(8) -0.521(8) 0.1525(9)
N1 N 0.0940(6) 0.009(6) 0.1649(8)
S1 S 0.1698(9) -0.018(8) 0.0371(9)
C1 C 0.0909(8) -0.130(4) 0.0801(12)
C2 C 0.2191(9) 0.016(7) 0.1321(10)
C3 C 0.1619(8) 0.022(8) 0.2011(11)
H1 H 0.043(2) -0.202(7) 0.050(2)
H2 H 0.274(2) 0.051(8) 0.130(2)
H3 H 0.170(2) 0.094(8) 0.268(2)
Br1_2 Br -0.0620(8) 0.479(8) 0.1525(9)
N1A N -0.0940(6) 0.009(6) 0.3351(8)
S1A S -0.1698(9) -0.018(8) 0.4629(9)
C1A C -0.0909(8) -0.130(4) 0.4199(12)
C2A C -0.2191(9) 0.016(7) 0.3679(10)
C3A C -0.1619(8) 0.022(8) 0.2989(11)
H1A H -0.043(2) -0.202(7) 0.450(2)
H2A H -0.274(2) 0.051(8) 0.370(2)
H3A H -0.170(2) 0.094(8) 0.232(2)
Br1A Br 0.0620(8) -0.521(8) 0.3475(9)
Br1A_2 Br 0.0620(8) 0.479(8) 0.3475(9)
Co1_2 Co 0.0000 -0.987(7) 0.2500
Co1_3 Co 0.0000 1.013(7) 0.2500
loop_
_geom_bond_atom_site_label_1
_geom_bond_atom_site_label_2
_geom_bond_site_symmetry_1
_geom_bond_site_symmetry_2
Co1 Br1 1_555 1_555
Br1 Co1_2 1_555 1_555
N1 Co1 1_555 1_555
S1 C1 1_555 1_555
C1 N1 1_555 1_555
C2 S1 1_555 1_555
C3 N1 1_555 1_555
H1 C1 1_555 1_555
H2 C2 1_555 1_555
H3 C3 1_555 1_555
Br1_2 Co1 1_555 1_555
N1A Co1 1_555 1_555
S1A C1A 1_555 1_555
C1A N1A 1_555 1_555
C2A S1A 1_555 1_555
C3A N1A 1_555 1_555
H1A C1A 1_555 1_555
H2A C2A 1_555 1_555
H3A C3A 1_555 1_555
Br1A Co1 1_555 1_555
Br1A_2 Co1 1_555 1_555
Co1_2 Br1A 1_555 1_555
Co1_3 Br1_2 1_555 1_555
C2 C3 1_555 1_555
C2A C3A 1_555 1_555
Br1A_2 Co1_3 1_555 1_555

#END
