
#######################################################################
#
#                 Cambridge Crystallographic Data Centre
#                                CCDC 
#
#######################################################################
#
# If this CIF has been generated from an entry in the Cambridge 
# Structural Database, then it will include bibliographic, chemical, 
# crystal, experimental, refinement or atomic coordinate data resulting 
# from the CCDC's data processing and validation procedures.
#
#######################################################################

data_GUZNUK
_symmetry_cell_setting           monoclinic
_symmetry_space_group_name_H-M   'C 2/c'
_symmetry_Int_Tables_number      15
_space_group_name_Hall           '-C 2yn'
loop_
_symmetry_equiv_pos_site_id
_symmetry_equiv_pos_as_xyz
1 x,y,z
2 1/2+x,1/2+y,z
3 x,-y,1/2+z
4 1/2+x,1/2-y,1/2+z
5 -x,-y,-z
6 1/2-x,1/2-y,-z
7 -x,y,1/2-z
8 1/2-x,1/2+y,1/2-z
_cell_length_a                   35.970(3)
_cell_length_b                   15.9400(13)
_cell_length_c                   10.7681(7)
_cell_angle_alpha                90
_cell_angle_beta                 101.073(4)
_cell_angle_gamma                90
_cell_volume                     6059.08
loop_
_atom_site_label
_atom_site_type_symbol
_atom_site_fract_x
_atom_site_fract_y
_atom_site_fract_z
V1 V 0.33472(4) 0.75698(10) -0.20270(12)
V2 V 0.41585(4) 0.50759(9) 0.19619(12)
V3 V 0.33551(4) 0.74546(10) 0.29804(12)
V4 V 0.41430(4) 0.99624(9) -0.29202(11)
P1 P 0.37018(7) 0.66751(15) 0.06048(19)
P2 P 0.38050(7) 0.58405(15) 0.43332(18)
P3 P 0.37127(7) 0.83426(15) -0.43702(18)
P4 P 0.37852(6) 0.91733(15) -0.05830(18)
O1 O 0.29903(16) 0.8126(4) -0.1954(6)
O2 O 0.35439(19) 0.7752(4) -0.3544(5)
O3 O 0.37629(15) 0.8274(3) -0.1066(5)
O4 O 0.34844(15) 0.6715(3) -0.0735(4)
O5 O 0.45134(15) 0.5626(4) 0.1798(5)
O6 O 0.37356(15) 0.5778(4) 0.1076(4)
O7 O 0.3996(2) 0.5276(4) 0.3545(5)
O8 O 0.40078(16) 0.5793(3) 0.5708(4)
O9 O 0.30013(17) 0.6909(4) 0.3085(6)
O10 O 0.37728(15) 0.6748(3) 0.3896(5)
O11 O 0.3530(2) 0.7256(4) 0.1423(5)
O12 O 0.34920(15) 0.8302(4) -0.5710(4)
O13 O 0.45054(16) 0.9412(4) -0.2906(5)
O14 O 0.37417(15) 0.9240(4) -0.3898(4)
O15 O 0.39288(17) 0.9791(4) -0.1426(5)
O16 O 0.40251(17) 0.9208(3) 0.0756(4)
N1 N 0.3027(2) 0.6566(5) -0.3102(6)
N2 N 0.1964(2) 0.3461(5) -0.6935(6)
N3 N 0.44829(18) 0.4086(4) 0.3002(5)
N4 N 0.5550(2) 0.0978(5) 0.6862(6)
C1 C 0.2742(4) 0.6736(6) -0.4004(13)
H1 H 0.2688 0.7299 -0.4185
C2 C 0.2528(4) 0.6191(7) -0.4666(12)
H2 H 0.2308 0.6370 -0.5206
C3 C 0.2614(2) 0.5344(6) -0.4598(7)
C4 C 0.2912(3) 0.5173(6) -0.3682(9)
H3 H 0.2992 0.4620 -0.3543
C5 C 0.3102(3) 0.5793(7) -0.2949(8)
H4 H 0.3298 0.5638 -0.2295
C6 C 0.1909(3) 0.4253(6) -0.7155(8)
H5 H 0.1724 0.4412 -0.7842
C7 C 0.2108(3) 0.4873(6) -0.6431(9)
H6 H 0.2049 0.5431 -0.6626
C8 C 0.2389(2) 0.4688(6) -0.5439(7)
C9 C 0.2443(4) 0.3839(7) -0.5254(11)
H7 H 0.2637 0.3656 -0.4612
C10 C 0.2231(4) 0.3276(6) -0.5951(12)
H8 H 0.2271 0.2714 -0.5736
C11 C 0.4378(3) 0.3283(6) 0.2935(8)
H9 H 0.4159 0.3132 0.2369
C12 C 0.4581(2) 0.2662(6) 0.3674(9)
H10 H 0.4498 0.2109 0.3585
C13 C 0.4906(2) 0.2857(5) 0.4539(7)
C14 C 0.5020(2) 0.3680(5) 0.4592(8)
H11 H 0.5238 0.3838 0.5152
C15 C 0.4809(2) 0.4282(5) 0.3811(7)
H12 H 0.4896 0.4833 0.3847
C16 C 0.5334(3) 0.0793(6) 0.5740(8)
H13 H 0.5328 0.0243 0.5452
C17 C 0.5115(3) 0.1402(6) 0.4978(7)
H14 H 0.4965 0.1242 0.4213
C18 C 0.5121(2) 0.2214(5) 0.5344(7)
C19 C 0.5355(3) 0.2409(6) 0.6485(8)
H15 H 0.5375 0.2960 0.6771
C20 C 0.5557(3) 0.1784(6) 0.7193(8)
H16 H 0.5710 0.1935 0.7959
H17 H 0.406(2) 0.691(6) 0.072(8)
H18 H 0.344(2) 0.553(6) 0.423(7)
H19 H 0.407(2) 0.808(6) -0.435(8)
H20 H 0.342(2) 0.953(6) -0.051(7)
O8B O 0.40078(16) 0.4207(3) 0.0708(4)
O12_2 O 0.34920(15) 0.8302(4) 0.4290(4)
N2G N 0.3036(2) 0.8461(5) 0.1935(6)
O16B O 0.40251(17) 1.0792(3) -0.4244(4)
N4F N 0.4450(2) 1.0978(5) -0.1862(6)
V2B V 0.41585(4) 0.49241(9) 0.69619(12)
V3_2 V 0.33551(4) 0.74546(10) -0.70196(12)
V4B V 0.41430(4) 1.00376(9) 0.20798(11)
V3G V 0.16449(4) 0.24546(10) -0.79804(12)
V4F V 0.58570(4) -0.00376(9) 0.79202(11)
loop_
_geom_bond_atom_site_label_1
_geom_bond_atom_site_label_2
_geom_bond_site_symmetry_1
_geom_bond_site_symmetry_2
V1 O1 1_555 1_555
V2 O5 1_555 1_555
V3 O9 1_555 1_555
V4 O13 1_555 1_555
P1 O4 1_555 1_555
P2 O7 1_555 1_555
P3 O2 1_555 1_555
P4 O3 1_555 1_555
O2 V1 1_555 1_555
O3 V1 1_555 1_555
O4 V1 1_555 1_555
O6 V2 1_555 1_555
O7 V2 1_555 1_555
O8 P2 1_555 1_555
O10 V3 1_555 1_555
O11 V3 1_555 1_555
O12 P3 1_555 1_555
O14 V4 1_555 1_555
O15 V4 1_555 1_555
O16 P4 1_555 1_555
N1 V1 1_555 1_555
N2 C6 1_555 1_555
N3 V2 1_555 1_555
N4 C16 1_555 1_555
C1 N1 1_555 1_555
H1 C1 1_555 1_555
C2 C1 1_555 1_555
H2 C2 1_555 1_555
C3 C2 1_555 1_555
C4 C3 1_555 1_555
H3 C4 1_555 1_555
C5 N1 1_555 1_555
H4 C5 1_555 1_555
C6 H5 1_555 1_555
C7 C6 1_555 1_555
H6 C7 1_555 1_555
C8 C3 1_555 1_555
C9 C8 1_555 1_555
H7 C9 1_555 1_555
C10 N2 1_555 1_555
H8 C10 1_555 1_555
C11 N3 1_555 1_555
H9 C11 1_555 1_555
C12 C11 1_555 1_555
H10 C12 1_555 1_555
C13 C12 1_555 1_555
C14 C13 1_555 1_555
H11 C14 1_555 1_555
C15 N3 1_555 1_555
H12 C15 1_555 1_555
C16 H13 1_555 1_555
C17 C16 1_555 1_555
H14 C17 1_555 1_555
C18 C13 1_555 1_555
C19 C18 1_555 1_555
H15 C19 1_555 1_555
C20 N4 1_555 1_555
H16 C20 1_555 1_555
H17 P1 1_555 1_555
H18 P2 1_555 1_555
H19 P3 1_555 1_555
H20 P4 1_555 1_555
O8B V2 1_555 1_555
O12_2 V3 1_555 1_555
N2G V3 1_555 1_555
O16B V4 1_555 1_555
N4F V4 1_555 1_555
V2B O8 1_555 1_555
V3_2 O12 1_555 1_555
V4B O16 1_555 1_555
V3G N2 1_555 1_555
V4F N4 1_555 1_555
P1 O6 1_555 1_555
P1 O11 1_555 1_555
P2 O10 1_555 1_555
P3 O14 1_555 1_555
P4 O15 1_555 1_555
C4 C5 1_555 1_555
C7 C8 1_555 1_555
C9 C10 1_555 1_555
C14 C15 1_555 1_555
C17 C18 1_555 1_555
C19 C20 1_555 1_555

#END
