
#######################################################################
#
#                 Cambridge Crystallographic Data Centre
#                                CCDC 
#
#######################################################################
#
# If this CIF has been generated from an entry in the Cambridge 
# Structural Database, then it will include bibliographic, chemical, 
# crystal, experimental, refinement or atomic coordinate data resulting 
# from the CCDC's data processing and validation procedures.
#
#######################################################################

data_HABDEU01
_symmetry_cell_setting           orthorhombic
_symmetry_space_group_name_H-M   'P n c 2'
_symmetry_Int_Tables_number      30
_space_group_name_Hall           'P 2 -2bc'
loop_
_symmetry_equiv_pos_site_id
_symmetry_equiv_pos_as_xyz
1 x,y,z
2 -x,-y,z
3 x,1/2-y,1/2+z
4 -x,1/2+y,1/2+z
_cell_length_a                   8.2546(7)
_cell_length_b                   6.9145(6)
_cell_length_c                   13.3739(11)
_cell_angle_alpha                90
_cell_angle_beta                 90
_cell_angle_gamma                90
_cell_volume                     763.334
loop_
_atom_site_label
_atom_site_type_symbol
_atom_site_fract_x
_atom_site_fract_y
_atom_site_fract_z
Zn1 Zn 0.5000 0.5000 0.25279(4)
S1 S 1.0000 1.0000 -0.02812(7)
O1 O 0.4071(2) 0.6734(2) 0.35376(14)
O2 O 0.2836(2) 0.7919(3) 0.22335(15)
N1 N 0.65530(18) 0.6581(2) 0.16682(14)
C1 C 0.6037(2) 0.7591(3) 0.08795(17)
H1 H 0.4941 0.7552 0.0719
C2 C 0.7049(2) 0.8685(3) 0.02945(16)
H2 H 0.6649 0.9362 -0.0253
C3 C 0.8682(2) 0.8762(2) 0.05365(15)
C4 C 0.9227(2) 0.7745(3) 0.13550(18)
H3 H 1.0312 0.7786 0.1541
C5 C 0.8129(2) 0.6666(3) 0.18918(18)
H4 H 0.8503 0.5962 0.2437
C6 C 0.3149(2) 0.7966(3) 0.3125(2)
C7 C 0.2467(4) 0.9504(5) 0.3798(3)
H5 H 0.3263 1.0498 0.3897
H6 H 0.2184 0.8944 0.4431
H7 H 0.1519 1.0053 0.3495
Zn1_2 Zn 1.5000 1.5000 0.25279(4)
O1A O 0.5929(2) 0.3266(2) 0.35376(14)
O2A O 0.7164(2) 0.2081(3) 0.22335(15)
N1A N 1.34470(18) 1.3419(2) 0.16682(14)
N1A_2 N 0.34470(18) 0.3419(2) 0.16682(14)
C1A C 1.3963(2) 1.2409(3) 0.08795(17)
H1A H 1.5059 1.2448 0.0719
C2A C 1.2951(2) 1.1315(3) 0.02945(16)
H2A H 1.3351 1.0638 -0.0253
C3A C 1.1318(2) 1.1238(2) 0.05365(15)
C4A C 1.0773(2) 1.2255(3) 0.13550(18)
H3A H 0.9688 1.2214 0.1541
C5A C 1.1871(2) 1.3334(3) 0.18918(18)
H4A H 1.1497 1.4038 0.2437
C6A C 0.6851(2) 0.2034(3) 0.3125(2)
C7A C 0.7533(4) 0.0496(5) 0.3798(3)
H5A H 0.6737 -0.0498 0.3897
H6A H 0.7816 0.1056 0.4431
H7A H 0.8481 -0.0053 0.3495
loop_
_geom_bond_atom_site_label_1
_geom_bond_atom_site_label_2
_geom_bond_site_symmetry_1
_geom_bond_site_symmetry_2
Zn1 O1 1_555 1_555
S1 C3 1_555 1_555
O1 C6 1_555 1_555
O2 C6 1_555 1_555
N1 Zn1 1_555 1_555
C1 N1 1_555 1_555
H1 C1 1_555 1_555
C2 C1 1_555 1_555
H2 C2 1_555 1_555
C3 C2 1_555 1_555
C4 C3 1_555 1_555
H3 C4 1_555 1_555
C5 N1 1_555 1_555
H4 C5 1_555 1_555
C6 C7 1_555 1_555
C7 H5 1_555 1_555
H6 C7 1_555 1_555
H7 C7 1_555 1_555
Zn1_2 N1A 1_555 1_555
O1A Zn1 1_555 1_555
O2A C6A 1_555 1_555
N1A C1A 1_555 1_555
N1A_2 Zn1 1_555 1_555
C1A H1A 1_555 1_555
C2A C1A 1_555 1_555
H2A C2A 1_555 1_555
C3A S1 1_555 1_555
C4A C3A 1_555 1_555
H3A C4A 1_555 1_555
C5A N1A 1_555 1_555
H4A C5A 1_555 1_555
C6A O1A 1_555 1_555
C7A C6A 1_555 1_555
H5A C7A 1_555 1_555
H6A C7A 1_555 1_555
H7A C7A 1_555 1_555
C4 C5 1_555 1_555
C2A C3A 1_555 1_555
C4A C5A 1_555 1_555

#END
