
#######################################################################
#
#                 Cambridge Crystallographic Data Centre
#                                CCDC 
#
#######################################################################
#
# If this CIF has been generated from an entry in the Cambridge 
# Structural Database, then it will include bibliographic, chemical, 
# crystal, experimental, refinement or atomic coordinate data resulting 
# from the CCDC's data processing and validation procedures.
#
#######################################################################

data_HABDIY
_symmetry_cell_setting           orthorhombic
_symmetry_space_group_name_H-M   'P n a 21'
_symmetry_Int_Tables_number      33
_space_group_name_Hall           'P 2c -2n'
loop_
_symmetry_equiv_pos_site_id
_symmetry_equiv_pos_as_xyz
1 x,y,z
2 -x,-y,1/2+z
3 1/2-x,1/2+y,1/2+z
4 1/2+x,1/2-y,z
_cell_length_a                   11.3514(18)
_cell_length_b                   15.873(3)
_cell_length_c                   8.0454(12)
_cell_angle_alpha                90
_cell_angle_beta                 90
_cell_angle_gamma                90
_cell_volume                     1449.63
loop_
_atom_site_label
_atom_site_type_symbol
_atom_site_fract_x
_atom_site_fract_y
_atom_site_fract_z
Zn1 Zn 1.00367(4) 0.14412(3) 0.44795(9)
Cl1 Cl 1.00698(13) 0.20987(10) 0.2012(2)
Cl2 Cl 1.14088(12) 0.05469(8) 0.5300(2)
N1 N 1.0014(3) 0.2418(3) 0.6173(5)
N2 N 0.6612(3) 0.5897(2) 0.9592(6)
S1 S 1.02662(9) 0.47168(7) 0.9524(2)
C1 C 0.9154(4) 0.2995(3) 0.6166(6)
C2 C 0.9159(4) 0.3693(3) 0.7185(6)
C3 C 1.0123(4) 0.3832(3) 0.8205(6)
C4 C 1.1069(4) 0.3254(3) 0.8195(6)
C5 C 1.0937(4) 0.2564(3) 0.7177(6)
C6 C 1.2163(4) 0.3376(3) 0.9213(7)
C7 C 0.7520(4) 0.6272(3) 0.8852(6)
C8 C 0.8631(4) 0.5922(3) 0.8804(6)
C9 C 0.8809(3) 0.5138(2) 0.9553(7)
C10 C 0.7880(4) 0.4736(3) 1.0350(6)
C11 C 0.6800(4) 0.5142(3) 1.0331(6)
C12 C 0.7997(5) 0.3902(3) 1.1230(7)
N2B N 0.8388(3) 0.0897(2) 0.4592(6)
Zn1B Zn 0.49633(4) 0.64412(3) 0.94795(9)
loop_
_geom_bond_atom_site_label_1
_geom_bond_atom_site_label_2
_geom_bond_site_symmetry_1
_geom_bond_site_symmetry_2
Zn1 Cl1 1_555 1_555
Cl2 Zn1 1_555 1_555
N1 Zn1 1_555 1_555
N2 C7 1_555 1_555
S1 C3 1_555 1_555
C1 N1 1_555 1_555
C2 C1 1_555 1_555
C3 C2 1_555 1_555
C4 C3 1_555 1_555
C5 N1 1_555 1_555
C6 C4 1_555 1_555
C7 C8 1_555 1_555
C8 C9 1_555 1_555
C9 S1 1_555 1_555
C10 C9 1_555 1_555
C11 N2 1_555 1_555
C12 C10 1_555 1_555
N2B Zn1 1_555 1_555
Zn1B N2 1_555 1_555
C4 C5 1_555 1_555
C10 C11 1_555 1_555

#END
