
#######################################################################
#
#                 Cambridge Crystallographic Data Centre
#                                CCDC 
#
#######################################################################
#
# If this CIF has been generated from an entry in the Cambridge 
# Structural Database, then it will include bibliographic, chemical, 
# crystal, experimental, refinement or atomic coordinate data resulting 
# from the CCDC's data processing and validation procedures.
#
#######################################################################

data_HABGAT
_symmetry_cell_setting           monoclinic
_symmetry_space_group_name_H-M   'P 21/n'
_symmetry_Int_Tables_number      14
_space_group_name_Hall           '-P 2yn'
loop_
_symmetry_equiv_pos_site_id
_symmetry_equiv_pos_as_xyz
1 x,y,z
2 1/2-x,1/2+y,1/2-z
3 -x,-y,-z
4 1/2+x,1/2-y,1/2+z
_cell_length_a                   6.330(1)
_cell_length_b                   8.241(2)
_cell_length_c                   12.964(3)
_cell_angle_alpha                90
_cell_angle_beta                 97.90(1)
_cell_angle_gamma                90
_cell_volume                     669.856
loop_
_atom_site_label
_atom_site_type_symbol
_atom_site_fract_x
_atom_site_fract_y
_atom_site_fract_z
Rb1 Rb -0.2527(1) 0.4657(1) -0.1214(1)
O1 O -0.6649(6) 0.5039(4) -0.2442(3)
O2 O -0.8319(6) 0.6800(5) -0.6667(3)
O3 O -0.7828(6) 0.4252(4) -0.6352(3)
O4 O -0.1488(6) 0.3582(4) 0.0857(3)
N1 N -0.7393(7) 0.7220(5) -0.3580(3)
N2 N -0.7791(6) 0.7474(4) -0.4629(3)
N3 N -0.7182(6) 0.4794(5) -0.4258(5)
N4 N -0.7943(6) 0.5659(5) -0.6068(3)
C1 C -0.7048(7) 0.5610(5) -0.3354(4)
C2 C -0.7638(7) 0.5992(5) -0.4956(4)
Rb1B Rb -0.7473(1) 0.5343(1) 0.1214(1)
Rb1B_2 Rb 0.2527(1) 0.5343(1) 0.1214(1)
O2B O -0.1681(6) 0.3200(5) -0.3333(3)
O2C O -0.3319(6) 0.8200(5) -0.1667(3)
O3B O -0.2172(6) 0.5748(4) -0.3648(3)
O3C O -0.2828(6) 0.0748(4) -0.1352(3)
O4B O 0.1488(6) 0.6418(4) -0.0857(3)
N2C N -0.2791(6) 0.7526(4) 0.0371(3)
Rb1B_3 Rb -0.7473(1) 0.5343(1) -0.8786(1)
Rb1C Rb -0.7527(1) 1.0343(1) -0.6214(1)
Rb1C_2 Rb -0.7527(1) 0.0343(1) -0.6214(1)
loop_
_geom_bond_atom_site_label_1
_geom_bond_atom_site_label_2
_geom_bond_site_symmetry_1
_geom_bond_site_symmetry_2
Rb1 O1 1_555 1_555
O1 C1 1_555 1_555
O2 N4 1_555 1_555
O3 N4 1_555 1_555
O4 Rb1 1_555 1_555
N1 N2 1_555 1_555
N2 C2 1_555 1_555
N3 C1 1_555 1_555
N4 C2 1_555 1_555
C1 N1 1_555 1_555
C2 N3 1_555 1_555
Rb1B Rb1 1_555 1_555
Rb1B_2 Rb1 1_555 1_555
O2B Rb1 1_555 1_555
O2C Rb1 1_555 1_555
O3B Rb1 1_555 1_555
O3C Rb1 1_555 1_555
O4B Rb1 1_555 1_555
N2C Rb1 1_555 1_555
Rb1B_3 O2 1_555 1_555
Rb1C O2 1_555 1_555
Rb1C_2 O3 1_555 1_555
O3 Rb1B_3 1_555 1_555
O4 Rb1B_2 1_555 1_555
N2 Rb1C 1_555 1_555
Rb1B_2 O4B 1_555 1_555

#END
