
#######################################################################
#
#                 Cambridge Crystallographic Data Centre
#                                CCDC 
#
#######################################################################
#
# If this CIF has been generated from an entry in the Cambridge 
# Structural Database, then it will include bibliographic, chemical, 
# crystal, experimental, refinement or atomic coordinate data resulting 
# from the CCDC's data processing and validation procedures.
#
#######################################################################

data_HABMON
_symmetry_cell_setting           monoclinic
_symmetry_space_group_name_H-M   'P 21/n'
_symmetry_Int_Tables_number      14
_space_group_name_Hall           '-P 2yn'
loop_
_symmetry_equiv_pos_site_id
_symmetry_equiv_pos_as_xyz
1 x,y,z
2 1/2-x,1/2+y,1/2-z
3 -x,-y,-z
4 1/2+x,1/2-y,1/2+z
_cell_length_a                   10.5091(7)
_cell_length_b                   12.5366(7)
_cell_length_c                   14.4420(10)
_cell_angle_alpha                90
_cell_angle_beta                 90.974(2)
_cell_angle_gamma                90
_cell_volume                     1902.44
loop_
_atom_site_label
_atom_site_type_symbol
_atom_site_fract_x
_atom_site_fract_y
_atom_site_fract_z
La1 La 0.2369(1) 0.7521(1) 0.0294(1)
O1 O 0.3190(2) 0.6042(1) -0.0799(1)
O2 O 0.2131(1) 0.5495(1) 0.0810(1)
O3 O 0.0544(1) 0.6329(1) -0.0360(1)
O4 O 0.1843(2) 0.7937(1) -0.1385(1)
O5 O 0.2373(1) 0.9543(1) -0.0334(1)
O6 O 0.0247(1) 0.8562(1) 0.0140(1)
O7 O 0.1046(2) 0.7281(2) 0.1754(1)
O8 O 0.2865(2) 0.8939(2) 0.1575(1)
O9 O 0.4449(2) 0.8132(2) -0.0351(1)
O10 O 0.4254(2) 0.6856(2) 0.1303(1)
C1 C 0.2892(2) 0.4937(2) -0.0678(2)
C2 C 0.1834(2) 0.4836(2) 0.0018(1)
C3 C 0.0530(2) 0.5182(2) -0.0322(1)
C4 C 0.1421(2) 0.8950(2) -0.1727(1)
C5 C 0.1283(2) 0.9710(2) -0.0923(1)
C6 C 0.0094(2) 0.9551(2) -0.0352(1)
C3B C -0.0530(2) 0.4818(2) 0.0322(1)
O3B O -0.0544(1) 0.3671(1) 0.0360(1)
C2B C -0.1834(2) 0.5164(2) -0.0018(1)
O2B O -0.2131(1) 0.4505(1) -0.0810(1)
C1B C -0.2892(2) 0.5063(2) 0.0678(2)
O1B O -0.3190(2) 0.3958(1) 0.0799(1)
C6B C -0.0094(2) 1.0449(2) 0.0352(1)
O6B O -0.0247(1) 1.1438(1) -0.0140(1)
C5B C -0.1283(2) 1.0290(2) 0.0923(1)
O5B O -0.2373(1) 1.0457(1) 0.0334(1)
C4B C -0.1421(2) 1.1050(2) 0.1727(1)
O4B O -0.1843(2) 1.2063(1) 0.1385(1)
La1B La -0.2369(1) 0.2479(1) -0.0294(1)
O7B O -0.1046(2) 0.2719(2) -0.1754(1)
O8B O -0.2865(2) 0.1061(2) -0.1575(1)
O9B O -0.4449(2) 0.1868(2) 0.0351(1)
O10B O -0.4254(2) 0.3144(2) -0.1303(1)
La1B_2 La -0.2369(1) 1.2479(1) -0.0294(1)
O4B_2 O -0.1843(2) 0.2063(1) 0.1385(1)
O5B_2 O -0.2373(1) 0.0457(1) 0.0334(1)
O6B_2 O -0.0247(1) 0.1438(1) -0.0140(1)
Cl1 Cl 0.4284(1) 0.4374(1) 0.1948(1)
Cl2 Cl 0.5099(1) 1.0400(1) 0.2097(1)
Cl3 Cl -0.2609(1) 0.7986(1) 0.0053(1)
O11 O 0.1266(2) 0.6856(2) -0.2976(2)
O12 O -0.1090(2) 0.7130(2) -0.1658(2)
loop_
_geom_bond_atom_site_label_1
_geom_bond_atom_site_label_2
_geom_bond_site_symmetry_1
_geom_bond_site_symmetry_2
La1 O1 1_555 1_555
O1 C1 1_555 1_555
O2 La1 1_555 1_555
O3 La1 1_555 1_555
O4 La1 1_555 1_555
O5 La1 1_555 1_555
O6 La1 1_555 1_555
O7 La1 1_555 1_555
O8 La1 1_555 1_555
O9 La1 1_555 1_555
O10 La1 1_555 1_555
C1 C2 1_555 1_555
C2 O2 1_555 1_555
C3 O3 1_555 1_555
C4 O4 1_555 1_555
C5 O5 1_555 1_555
C6 O6 1_555 1_555
C3B C3 1_555 1_555
O3B C3B 1_555 1_555
C2B C3B 1_555 1_555
O2B C2B 1_555 1_555
C1B C2B 1_555 1_555
O1B C1B 1_555 1_555
C6B C6 1_555 1_555
O6B C6B 1_555 1_555
C5B C6B 1_555 1_555
O5B C5B 1_555 1_555
C4B C5B 1_555 1_555
O4B C4B 1_555 1_555
La1B O3B 1_555 1_555
O7B La1B 1_555 1_555
O8B La1B 1_555 1_555
O9B La1B 1_555 1_555
O10B La1B 1_555 1_555
La1B_2 O6B 1_555 1_555
O4B_2 La1B 1_555 1_555
O5B_2 La1B 1_555 1_555
O6B_2 La1B 1_555 1_555
C2 C3 1_555 1_555
C4 C5 1_555 1_555
C5 C6 1_555 1_555
O2B La1B 1_555 1_555
O1B La1B 1_555 1_555
O5B La1B_2 1_555 1_555
O4B La1B_2 1_555 1_555

#END
