
#######################################################################
#
#                 Cambridge Crystallographic Data Centre
#                                CCDC 
#
#######################################################################
#
# If this CIF has been generated from an entry in the Cambridge 
# Structural Database, then it will include bibliographic, chemical, 
# crystal, experimental, refinement or atomic coordinate data resulting 
# from the CCDC's data processing and validation procedures.
#
#######################################################################

data_HABROT
_symmetry_cell_setting           monoclinic
_symmetry_space_group_name_H-M   'P 21/c'
_symmetry_Int_Tables_number      14
_space_group_name_Hall           '-P 2ybc'
loop_
_symmetry_equiv_pos_site_id
_symmetry_equiv_pos_as_xyz
1 x,y,z
2 -x,1/2+y,1/2-z
3 -x,-y,-z
4 x,1/2-y,1/2+z
_cell_length_a                   11.8587(15)
_cell_length_b                   13.7752(16)
_cell_length_c                   16.746(2)
_cell_angle_alpha                90
_cell_angle_beta                 96.469(7)
_cell_angle_gamma                90
_cell_volume                     2718.14
loop_
_atom_site_label
_atom_site_type_symbol
_atom_site_fract_x
_atom_site_fract_y
_atom_site_fract_z
B1 B 1.1851(4) 1.0824(3) 0.4067(3)
Zn1 Zn 1.22187(4) 0.74027(3) 0.23831(3)
Zn2 Zn 1.58284(5) 0.72631(4) -0.17917(3)
O1 O 1.6767(3) 0.8793(3) -0.0932(2)
O2 O 1.5196(3) 0.7935(2) -0.09046(17)
O3 O 1.4383(3) 0.8363(2) 0.26891(16)
O4 O 1.3135(3) 0.8128(2) 0.16243(17)
O5 O 1.7921(4) 1.1188(3) 0.1281(3)
O6 O 1.6869(3) 1.1260(2) 0.22994(17)
N1 N 0.9147(3) 1.2081(3) 0.3385(2)
N2 N 1.0779(3) 1.1465(3) 0.3946(2)
N3 N 1.1547(3) 0.9795(2) 0.37427(19)
N4 N 1.1693(3) 0.8393(3) 0.3116(2)
N5 N 1.2301(3) 1.0771(2) 0.4971(2)
N6 N 1.3162(3) 1.1312(3) 0.6138(2)
N7 N 1.2808(3) 1.1246(2) 0.36250(19)
N8 N 1.3726(3) 1.2003(3) 0.2723(2)
C1 C 0.9523(8) 1.2607(6) 0.4047(5)
H1 H 0.9164 1.3152 0.4226
C2 C 1.0503(7) 1.2219(6) 0.4408(5)
H2 H 1.074(5) 1.239(4) 0.491(3)
C3 C 0.9931(4) 1.1411(3) 0.3348(3)
H3 H 0.981(4) 1.099(4) 0.291(3)
C4 C 1.0636(4) 0.9226(3) 0.3887(3)
H4 H 1.014(4) 0.958(4) 0.422(3)
C5 C 1.0729(4) 0.8366(3) 0.3505(3)
H5 H 1.029(4) 0.785(4) 0.351(3)
C6 C 1.2148(4) 0.9259(3) 0.3274(2)
H6 H 1.292(4) 0.947(4) 0.314(3)
C7 C 1.2725(5) 1.0399(3) 0.6247(3)
H7 H 1.283(4) 1.006(4) 0.671(3)
C8 C 1.2211(4) 1.0060(3) 0.5539(3)
H8 H 1.184(4) 0.945(3) 0.545(3)
C9 C 1.2895(4) 1.1499(3) 0.5367(3)
H9 H 1.307(6) 1.209(5) 0.520(4)
C10 C 1.4491(4) 1.1441(3) 0.3208(3)
H10 H 1.525(5) 1.134(4) 0.314(3)
C11 C 1.3943(4) 1.0981(3) 0.3754(3)
H11 H 1.419(5) 1.067(4) 0.420(3)
C12 C 1.2722(4) 1.1862(3) 0.2989(2)
H12 H 1.205(4) 1.210(4) 0.276(3)
C13 C 1.7119(4) 1.0893(3) 0.1635(3)
C14 C 1.6389(4) 1.0062(3) 0.1304(2)
C15 C 1.6500(4) 0.9696(3) 0.0539(3)
H13 H 1.710(4) 0.994(3) 0.020(3)
C16 C 1.5771(4) 0.8960(3) 0.0213(2)
C17 C 1.5936(4) 0.8562(3) -0.0607(3)
C18 C 1.4955(4) 0.8576(3) 0.0649(2)
H14 H 1.452(4) 0.813(4) 0.046(3)
C19 C 1.4882(4) 0.8905(3) 0.1432(2)
C20 C 1.4077(4) 0.8436(3) 0.1946(2)
C21 C 1.5588(4) 0.9652(3) 0.1750(3)
H15 H 1.553(5) 0.987(4) 0.217(3)
Zn1A Zn 1.77813(4) 1.24027(3) 0.26169(3)
Zn1A_2 Zn 0.77813(4) 1.24027(3) 0.26169(3)
Zn2C Zn 1.58284(5) 0.77369(4) 0.32083(3)
Zn2A Zn 1.41716(5) 1.22631(4) 0.67917(3)
Zn2B Zn 1.41716(5) 1.27369(4) 0.17917(3)
O3C O 1.4383(3) 0.6637(2) -0.23109(16)
O6A O 1.3131(3) 0.6260(2) 0.27006(17)
N1A N 1.0853(3) 0.7081(3) 0.1615(2)
N6A N 1.6838(3) 0.6312(3) -0.1138(2)
N8B N 1.6274(3) 0.7997(3) -0.2723(2)
O7 O 0.4165(8) 0.8891(5) 0.4673(4)
O8 O 0.2451(10) 0.7713(6) 0.5042(4)
O9 O 0.8306(10) 1.0200(6) -0.0987(5)
O10 O 0.9616(8) 1.0213(8) 0.0616(6)
O12 O 0.8894(9) 0.8441(9) -0.1363(7)
O11? O 0.9735(19) 0.8933(12) -0.1630(10)
loop_
_geom_bond_atom_site_label_1
_geom_bond_atom_site_label_2
_geom_bond_site_symmetry_1
_geom_bond_site_symmetry_2
B1 N2 1_555 1_555
Zn1 O4 1_555 1_555
Zn2 O2 1_555 1_555
O1 C17 1_555 1_555
O2 C17 1_555 1_555
O3 C20 1_555 1_555
O4 C20 1_555 1_555
O5 C13 1_555 1_555
O6 C13 1_555 1_555
N1 C1 1_555 1_555
N2 C2 1_555 1_555
N3 B1 1_555 1_555
N4 Zn1 1_555 1_555
N5 B1 1_555 1_555
N6 C7 1_555 1_555
N7 B1 1_555 1_555
N8 C10 1_555 1_555
C1 H1 1_555 1_555
C2 C1 1_555 1_555
H2 C2 1_555 1_555
C3 N1 1_555 1_555
H3 C3 1_555 1_555
C4 N3 1_555 1_555
H4 C4 1_555 1_555
C5 N4 1_555 1_555
H5 C5 1_555 1_555
C6 N3 1_555 1_555
H6 C6 1_555 1_555
C7 H7 1_555 1_555
C8 N5 1_555 1_555
H8 C8 1_555 1_555
C9 N5 1_555 1_555
H9 C9 1_555 1_555
C10 H10 1_555 1_555
C11 N7 1_555 1_555
H11 C11 1_555 1_555
C12 N7 1_555 1_555
H12 C12 1_555 1_555
C13 C14 1_555 1_555
C14 C15 1_555 1_555
C15 H13 1_555 1_555
C16 C15 1_555 1_555
C17 C16 1_555 1_555
C18 C16 1_555 1_555
H14 C18 1_555 1_555
C19 C18 1_555 1_555
C20 C19 1_555 1_555
C21 C14 1_555 1_555
H15 C21 1_555 1_555
Zn1A O6 1_555 1_555
Zn1A_2 N1 1_555 1_555
Zn2C O3 1_555 1_555
Zn2A N6 1_555 1_555
Zn2B N8 1_555 1_555
O3C Zn2 1_555 1_555
O6A Zn1 1_555 1_555
N1A Zn1 1_555 1_555
N6A Zn2 1_555 1_555
N8B Zn2 1_555 1_555
N2 C3 1_555 1_555
N4 C6 1_555 1_555
N6 C9 1_555 1_555
N8 C12 1_555 1_555
C4 C5 1_555 1_555
C7 C8 1_555 1_555
C10 C11 1_555 1_555
C19 C21 1_555 1_555

#END
