
#######################################################################
#
#                 Cambridge Crystallographic Data Centre
#                                CCDC 
#
#######################################################################
#
# If this CIF has been generated from an entry in the Cambridge 
# Structural Database, then it will include bibliographic, chemical, 
# crystal, experimental, refinement or atomic coordinate data resulting 
# from the CCDC's data processing and validation procedures.
#
#######################################################################

data_HACGID
_symmetry_cell_setting           monoclinic
_symmetry_space_group_name_H-M   'P 21'
_symmetry_Int_Tables_number      4
_space_group_name_Hall           'P 2yb'
loop_
_symmetry_equiv_pos_site_id
_symmetry_equiv_pos_as_xyz
1 x,y,z
2 -x,1/2+y,-z
_cell_length_a                   9.4286(5)
_cell_length_b                   5.3264(3)
_cell_length_c                   15.7265(9)
_cell_angle_alpha                90
_cell_angle_beta                 107.162(2)
_cell_angle_gamma                90
_cell_volume                     754.627
loop_
_atom_site_label
_atom_site_type_symbol
_atom_site_fract_x
_atom_site_fract_y
_atom_site_fract_z
Tl1 Tl 0.327400(13) 0.04286(3) -0.082102(7)
Tl2 Tl 0.182840(12) -0.44598(2) 0.080710(7)
O1 O 0.4363(3) -0.1659(6) 0.07692(18)
O2 O 0.4230(3) 0.2515(6) 0.08159(17)
O3 O 0.8211(3) 0.3222(6) 0.41881(18)
O4 O 0.7404(3) -0.0746(5) 0.4081(2)
O5 O 0.1601(3) 0.5197(6) -0.09086(17)
O6 O -0.0591(3) 0.5837(6) -0.06765(16)
O7 O -0.2148(3) 0.0220(5) -0.35320(17)
O8 O -0.3282(3) 0.3727(6) -0.41590(17)
N1 N 0.5519(3) 0.5052(6) 0.40833(19)
H1 H 0.5870 0.4927 0.4686
H2 H 0.4560 0.5583 0.3925
H3 H 0.6079 0.6175 0.3887
N2 N -0.0827(3) 0.6083(6) -0.41890(18)
H4 H -0.1354 0.5826 -0.4768
H5 H 0.0078 0.6736 -0.4161
H6 H -0.1326 0.7173 -0.3936
C1 C 0.7206(4) 0.1566(7) 0.4022(2)
C2 C 0.5613(3) 0.2550(7) 0.3680(2)
H7 H 0.4951 0.1381 0.3859
C3 C 0.5105(4) 0.2793(7) 0.2667(2)
H8 H 0.4130 0.3564 0.2481
H9 H 0.5785 0.3889 0.2485
C4 C 0.5037(4) 0.0277(9) 0.2202(2)
H10 H 0.6019 -0.0469 0.2385
H11 H 0.4380 -0.0823 0.2403
C5 C 0.4507(3) 0.0377(12) 0.1196(2)
C6 C -0.2131(4) 0.2430(7) -0.3809(2)
C7 C -0.0628(3) 0.3636(7) -0.3704(2)
H12 H -0.0059 0.2519 -0.3976
C8 C 0.0254(4) 0.3978(7) -0.2720(2)
H13 H 0.0514 0.2335 -0.2454
H14 H 0.1170 0.4855 -0.2686
C9 C -0.0572(3) 0.5424(10) -0.2176(2)
H15 H -0.0714 0.7140 -0.2391
H16 H -0.1546 0.4680 -0.2274
C10 C 0.0216(4) 0.5463(12) -0.1181(2)
Tl1A Tl 0.672600(13) -0.45714(3) 0.082102(7)
Tl1A_2 Tl 0.672600(13) 0.54286(3) 0.082102(7)
Tl2_2 Tl 0.182840(12) 0.55402(2) 0.080710(7)
Tl2A Tl -0.182840(12) 1.05402(2) -0.080710(7)
Tl2A_2 Tl -0.182840(12) 0.05402(2) -0.080710(7)
O1A O 0.5637(3) 0.3341(6) -0.07692(18)
O2A O 0.5770(3) -0.2485(6) -0.08159(17)
O2_2 O 0.4230(3) -0.7485(6) 0.08159(17)
O5_2 O 0.1601(3) -0.4803(6) -0.09086(17)
O6_2 O -0.0591(3) -0.4163(6) -0.06765(16)
O6A O 0.0591(3) -0.9163(6) 0.06765(16)
O6A_2 O 0.0591(3) 0.0837(6) 0.06765(16)
loop_
_geom_bond_atom_site_label_1
_geom_bond_atom_site_label_2
_geom_bond_site_symmetry_1
_geom_bond_site_symmetry_2
Tl1 O1 1_555 1_555
Tl2 O1 1_555 1_555
O1 C5 1_555 1_555
O2 Tl1 1_555 1_555
O3 C1 1_555 1_555
O4 C1 1_555 1_555
O5 Tl1 1_555 1_555
O6 C10 1_555 1_555
O7 C6 1_555 1_555
O8 C6 1_555 1_555
N1 H1 1_555 1_555
H2 N1 1_555 1_555
H3 N1 1_555 1_555
N2 H4 1_555 1_555
H5 N2 1_555 1_555
H6 N2 1_555 1_555
C1 C2 1_555 1_555
C2 N1 1_555 1_555
H7 C2 1_555 1_555
C3 C2 1_555 1_555
H8 C3 1_555 1_555
H9 C3 1_555 1_555
C4 C3 1_555 1_555
H10 C4 1_555 1_555
H11 C4 1_555 1_555
C5 O2 1_555 1_555
C6 C7 1_555 1_555
C7 N2 1_555 1_555
H12 C7 1_555 1_555
C8 C7 1_555 1_555
H13 C8 1_555 1_555
H14 C8 1_555 1_555
C9 C8 1_555 1_555
H15 C9 1_555 1_555
H16 C9 1_555 1_555
C10 O5 1_555 1_555
Tl1A O1 1_555 1_555
Tl1A_2 O2 1_555 1_555
Tl2_2 O2 1_555 1_555
Tl2A O6 1_555 1_555
Tl2A_2 O6 1_555 1_555
O1A Tl1 1_555 1_555
O2A Tl1 1_555 1_555
O2_2 Tl2 1_555 1_555
O5_2 Tl2 1_555 1_555
O6_2 Tl2 1_555 1_555
O6A Tl2 1_555 1_555
O6A_2 Tl2 1_555 1_555
O5 Tl2_2 1_555 1_555
O6 Tl2_2 1_555 1_555
C4 C5 1_555 1_555
C9 C10 1_555 1_555
Tl1A O2A 1_555 1_555
Tl1A O2_2 1_555 1_555
Tl1A_2 O1A 1_555 1_555
Tl2_2 O6A_2 1_555 1_555
Tl2A_2 O6_2 1_555 1_555
Tl2A_2 O6A_2 1_555 1_555

#END
