
#######################################################################
#
#                 Cambridge Crystallographic Data Centre
#                                CCDC 
#
#######################################################################
#
# If this CIF has been generated from an entry in the Cambridge 
# Structural Database, then it will include bibliographic, chemical, 
# crystal, experimental, refinement or atomic coordinate data resulting 
# from the CCDC's data processing and validation procedures.
#
#######################################################################

data_HACGEZ
_symmetry_cell_setting           triclinic
_symmetry_space_group_name_H-M   'P -1'
_symmetry_Int_Tables_number      2
_space_group_name_Hall           '-P 1'
loop_
_symmetry_equiv_pos_site_id
_symmetry_equiv_pos_as_xyz
1 x,y,z
2 -x,-y,-z
_cell_length_a                   8.6543(2)
_cell_length_b                   12.1291(3)
_cell_length_c                   12.755(3)
_cell_angle_alpha                77.660(2)
_cell_angle_beta                 85.330(2)
_cell_angle_gamma                74.219(2)
_cell_volume                     1258.26
loop_
_atom_site_label
_atom_site_type_symbol
_atom_site_fract_x
_atom_site_fract_y
_atom_site_fract_z
O1 O 0.28226(14) 0.39522(10) 0.03878(10)
N1 N -0.10311(19) 0.03564(14) 0.25445(12)
N2 N -0.01534(19) 0.07842(14) 0.29759(12)
N3 N 0.20970(17) 0.32394(12) 0.09843(12)
N4 N -0.1885(2) -0.00563(16) 0.22406(14)
C1 C 0.1242(2) 0.26484(15) 0.03930(14)
C2 C 0.0122(2) 0.20659(16) 0.11824(14)
H1 H -0.0808 0.2679 0.1373
H2 H -0.029 0.1557 0.0826
C3 C 0.0956(2) 0.13423(15) 0.21982(14)
H3 H 0.1909 0.0727 0.2016
C4 C 0.1486(2) 0.21381(16) 0.27807(14)
H4 H 0.202 0.1664 0.3449
H5 H 0.0525 0.2717 0.2987
C5 C 0.2641(2) 0.27929(16) 0.21130(14)
C6 C 0.4358(2) 0.20151(16) 0.20959(15)
H6 H 0.4358 0.1305 0.1846
H7 H 0.4785 0.1801 0.2821
H8 H 0.5033 0.2441 0.1609
C7 C 0.2585(2) 0.38548(17) 0.25919(16)
H9 H 0.3303 0.4295 0.2174
H10 H 0.2932 0.3593 0.3337
H11 H 0.1485 0.4357 0.2572
C8 C 0.2482(2) 0.17539(16) -0.01382(15)
H12 H 0.3184 0.2151 -0.0628
H13 H 0.1927 0.138 -0.0542
H14 H 0.3129 0.1159 0.0416
C9 C 0.0247(2) 0.35763(17) -0.04691(16)
H15 H -0.0539 0.4154 -0.0131
H16 H -0.0318 0.3207 -0.0871
H17 H 0.0955 0.3966 -0.096
Cu1 Cu 0.50000 0.50000 0.00000
Cu2 Cu 0.00000 0.00000 0.50000
O2 O 0.39750(14) 0.54938(10) -0.13789(9)
O3 O -0.23129(14) 0.05069(10) 0.51840(10)
O4 O 0.62239(14) 0.35060(10) -0.03162(9)
O5 O 0.03157(14) 0.14028(10) 0.53449(10)
C10 C -0.2424(2) 0.22811(15) 0.57394(14)
H18 H -0.3129 0.2935 0.5977
C11 C -0.4863(2) 0.15547(16) 0.56578(15)
C12 C -0.3052(2) 0.14259(15) 0.55032(13)
C13 C 0.4098(2) 0.48429(15) -0.20430(14)
C14 C 0.4965(2) 0.36834(15) -0.19564(14)
H19 H 0.4881 0.3275 -0.2498
C15 C -0.0180(2) 0.31816(17) 0.58989(16)
C16 C 0.6895(2) 0.18357(16) -0.10719(15)
C17 C -0.0790(2) 0.22010(15) 0.56356(14)
C18 C 0.3166(2) 0.54286(17) -0.30687(15)
C19 C 0.5950(2) 0.31097(15) -0.10956(14)
F1 F -0.13530(16) 0.40488(12) 0.61471(14)
F2 F -0.56658(14) 0.25964(11) 0.58404(13)
F3 F 0.06487(17) 0.36227(11) 0.50799(11)
F4 F 0.70254(17) 0.12122(10) -0.00845(9)
F5 F -0.51426(15) 0.07683(13) 0.64944(10)
F6 F 0.83775(14) 0.17739(10) -0.14826(11)
F7 F 0.27839(17) 0.65783(10) -0.32195(10)
F8 F 0.62122(14) 0.13057(9) -0.16481(9)
F9 F 0.39900(19) 0.51338(13) -0.39314(10)
F10 F 0.18005(18) 0.51304(15) -0.30379(13)
F11 F 0.07948(18) 0.27768(12) 0.67215(11)
F12 F -0.54822(14) 0.13845(12) 0.48177(10)
O1A O 0.71774(14) 0.60478(10) -0.03878(10)
N1A N 1.10311(19) 0.96436(14) -0.25445(12)
N2A N 1.01534(19) 0.92158(14) -0.29759(12)
N2A_2 N 0.01534(19) -0.07842(14) 0.70241(12)
N3A N 0.79030(17) 0.67606(12) -0.09843(12)
N4A N 1.1885(2) 1.00563(16) -0.22406(14)
C1A C 0.8758(2) 0.73516(15) -0.03930(14)
C2A C 0.9878(2) 0.79341(16) -0.11824(14)
H1A H 1.0808 0.7321 -0.1373
H2A H 1.029 0.8443 -0.0826
C3A C 0.9044(2) 0.86577(15) -0.21982(14)
H3A H 0.8091 0.9273 -0.2016
C4A C 0.8514(2) 0.78619(16) -0.27807(14)
H4A H 0.798 0.8336 -0.3449
H5A H 0.9475 0.7283 -0.2987
C5A C 0.7359(2) 0.72071(16) -0.21130(14)
C6A C 0.5642(2) 0.79849(16) -0.20959(15)
H6A H 0.5642 0.8695 -0.1846
H7A H 0.5215 0.8199 -0.2821
H8A H 0.4967 0.7559 -0.1609
C7A C 0.7415(2) 0.61452(17) -0.25919(16)
H9A H 0.6697 0.5705 -0.2174
H10A H 0.7068 0.6407 -0.3337
H11A H 0.8515 0.5643 -0.2572
C8A C 0.7518(2) 0.82461(16) 0.01382(15)
H12A H 0.6816 0.7849 0.0628
H13A H 0.8073 0.862 0.0542
H14A H 0.6871 0.8841 -0.0416
C9A C 0.9753(2) 0.64237(17) 0.04691(16)
H15A H 1.0539 0.5846 0.0131
H16A H 1.0318 0.6793 0.0871
H17A H 0.9045 0.6034 0.096
Cu2_2 Cu 1.00000 1.00000 -0.50000
O2A O 0.60250(14) 0.45062(10) 0.13789(9)
O3A O 0.23129(14) -0.05069(10) 0.48160(10)
O4A O 0.37761(14) 0.64940(10) 0.03162(9)
O5A O -0.03157(14) -0.14028(10) 0.46551(10)
C10A C 0.2424(2) -0.22811(15) 0.42606(14)
H18A H 0.3129 -0.2935 0.4023
C11A C 0.4863(2) -0.15547(16) 0.43422(15)
C12A C 0.3052(2) -0.14259(15) 0.44968(13)
C13A C 0.5902(2) 0.51571(15) 0.20430(14)
C14A C 0.5035(2) 0.63166(15) 0.19564(14)
H19A H 0.5119 0.6725 0.2498
C15A C 0.0180(2) -0.31816(17) 0.41011(16)
C16A C 0.3105(2) 0.81643(16) 0.10719(15)
C17A C 0.0790(2) -0.22010(15) 0.43644(14)
C18A C 0.6834(2) 0.45714(17) 0.30687(15)
C19A C 0.4050(2) 0.68903(15) 0.10956(14)
F1A F 0.13530(16) -0.40488(12) 0.38529(14)
F2A F 0.56658(14) -0.25964(11) 0.41596(13)
F3A F -0.06487(17) -0.36227(11) 0.49201(11)
F4A F 0.29746(17) 0.87878(10) 0.00845(9)
F5A F 0.51426(15) -0.07683(13) 0.35056(10)
F6A F 0.16225(14) 0.82261(10) 0.14826(11)
F7A F 0.72161(17) 0.34217(10) 0.32195(10)
F8A F 0.37878(14) 0.86943(9) 0.16481(9)
F9A F 0.60100(19) 0.48662(13) 0.39314(10)
F10A F 0.81995(18) 0.48696(15) 0.30379(13)
F11A F -0.07948(18) -0.27768(12) 0.32785(11)
F12A F 0.54822(14) -0.13845(12) 0.51823(10)
loop_
_geom_bond_atom_site_label_1
_geom_bond_atom_site_label_2
_geom_bond_site_symmetry_1
_geom_bond_site_symmetry_2
O1 N3 1_555 1_555
N1 N2 1_555 1_555
N2 C3 1_555 1_555
N3 C1 1_555 1_555
N4 N1 1_555 1_555
C1 C2 1_555 1_555
C2 H1 1_555 1_555
H2 C2 1_555 1_555
C3 C2 1_555 1_555
H3 C3 1_555 1_555
C4 C3 1_555 1_555
H4 C4 1_555 1_555
H5 C4 1_555 1_555
C5 N3 1_555 1_555
C6 C5 1_555 1_555
H6 C6 1_555 1_555
H7 C6 1_555 1_555
H8 C6 1_555 1_555
C7 C5 1_555 1_555
H9 C7 1_555 1_555
H10 C7 1_555 1_555
H11 C7 1_555 1_555
C8 C1 1_555 1_555
H12 C8 1_555 1_555
H13 C8 1_555 1_555
H14 C8 1_555 1_555
C9 C1 1_555 1_555
H15 C9 1_555 1_555
H16 C9 1_555 1_555
H17 C9 1_555 1_555
Cu1 O1 1_555 1_555
Cu2 N2 1_555 1_555
O2 Cu1 1_555 1_555
O3 Cu2 1_555 1_555
O4 Cu1 1_555 1_555
O5 Cu2 1_555 1_555
C10 H18 1_555 1_555
C11 C12 1_555 1_555
C12 O3 1_555 1_555
C13 O2 1_555 1_555
C14 C13 1_555 1_555
H19 C14 1_555 1_555
C15 C17 1_555 1_555
C16 C19 1_555 1_555
C17 O5 1_555 1_555
C18 C13 1_555 1_555
C19 O4 1_555 1_555
F1 C15 1_555 1_555
F2 C11 1_555 1_555
F3 C15 1_555 1_555
F4 C16 1_555 1_555
F5 C11 1_555 1_555
F6 C16 1_555 1_555
F7 C18 1_555 1_555
F8 C16 1_555 1_555
F9 C18 1_555 1_555
F10 C18 1_555 1_555
F11 C15 1_555 1_555
F12 C11 1_555 1_555
O1A Cu1 1_555 1_555
N1A N2A 1_555 1_555
N2A C3A 1_555 1_555
N2A_2 Cu2 1_555 1_555
N3A O1A 1_555 1_555
N4A N1A 1_555 1_555
C1A N3A 1_555 1_555
C2A C1A 1_555 1_555
H1A C2A 1_555 1_555
H2A C2A 1_555 1_555
C3A C2A 1_555 1_555
H3A C3A 1_555 1_555
C4A C3A 1_555 1_555
H4A C4A 1_555 1_555
H5A C4A 1_555 1_555
C5A N3A 1_555 1_555
C6A C5A 1_555 1_555
H6A C6A 1_555 1_555
H7A C6A 1_555 1_555
H8A C6A 1_555 1_555
C7A C5A 1_555 1_555
H9A C7A 1_555 1_555
H10A C7A 1_555 1_555
H11A C7A 1_555 1_555
C8A C1A 1_555 1_555
H12A C8A 1_555 1_555
H13A C8A 1_555 1_555
H14A C8A 1_555 1_555
C9A C1A 1_555 1_555
H15A C9A 1_555 1_555
H16A C9A 1_555 1_555
H17A C9A 1_555 1_555
Cu2_2 N2A 1_555 1_555
O2A Cu1 1_555 1_555
O3A Cu2 1_555 1_555
O4A Cu1 1_555 1_555
O5A Cu2 1_555 1_555
C10A H18A 1_555 1_555
C11A C12A 1_555 1_555
C12A O3A 1_555 1_555
C13A O2A 1_555 1_555
C14A C13A 1_555 1_555
H19A C14A 1_555 1_555
C15A C17A 1_555 1_555
C16A C19A 1_555 1_555
C17A O5A 1_555 1_555
C18A C13A 1_555 1_555
C19A O4A 1_555 1_555
F1A C15A 1_555 1_555
F2A C11A 1_555 1_555
F3A C15A 1_555 1_555
F4A C16A 1_555 1_555
F5A C11A 1_555 1_555
F6A C16A 1_555 1_555
F7A C18A 1_555 1_555
F8A C16A 1_555 1_555
F9A C18A 1_555 1_555
F10A C18A 1_555 1_555
F11A C15A 1_555 1_555
F12A C11A 1_555 1_555
C4 C5 1_555 1_555
C10 C12 1_555 1_555
C10 C17 1_555 1_555
C14 C19 1_555 1_555
C4A C5A 1_555 1_555
C10A C12A 1_555 1_555
C10A C17A 1_555 1_555
C14A C19A 1_555 1_555

#END
