
#######################################################################
#
#                 Cambridge Crystallographic Data Centre
#                                CCDC 
#
#######################################################################
#
# If this CIF has been generated from an entry in the Cambridge 
# Structural Database, then it will include bibliographic, chemical, 
# crystal, experimental, refinement or atomic coordinate data resulting 
# from the CCDC's data processing and validation procedures.
#
#######################################################################

data_HACPOR01
_symmetry_cell_setting           orthorhombic
_symmetry_space_group_name_H-M   'P b c a'
_symmetry_Int_Tables_number      61
_space_group_name_Hall           '-P 2ac 2ab'
loop_
_symmetry_equiv_pos_site_id
_symmetry_equiv_pos_as_xyz
1 x,y,z
2 1/2-x,1/2+y,z
3 x,1/2-y,1/2+z
4 1/2+x,y,1/2-z
5 -x,-y,-z
6 1/2+x,1/2-y,-z
7 -x,1/2+y,1/2-z
8 1/2-x,-y,1/2+z
_cell_length_a                   7.09494(33)
_cell_length_b                   6.79535(32)
_cell_length_c                   16.7212(8)
_cell_angle_alpha                90
_cell_angle_beta                 90
_cell_angle_gamma                90
_cell_volume                     806.173
loop_
_atom_site_label
_atom_site_type_symbol
_atom_site_fract_x
_atom_site_fract_y
_atom_site_fract_z
Cd1 Cd 0.60048(16) 0.05133(17) 0.30071(7)
Se1 Se 0.94657(23) -0.07510(31) 0.33200(8)
N1 N 0.4047(17) -0.1023(21) 0.3993(5)
C1 C 0.4051(16) -0.0032(22) 0.4820(7)
H1 H 0.44228 -0.22794 0.40521
H2 H 0.28547 -0.10447 0.369
H3 H 0.32183 -0.07391 0.51693
H4 H 0.35785 0.12854 0.47682
C1D C 0.5949(16) 0.0032(22) 0.5180(7)
N1D N 0.5953(17) 0.1023(21) 0.6007(5)
H1D H 0.55772 0.22794 0.59479
H2D H 0.71453 0.10447 0.631
H3D H 0.67817 0.07391 0.48307
H4D H 0.64215 -0.12854 0.52318
Se1A Se 0.55343(23) 0.42490(31) 0.33200(8)
Cd1A Cd 0.89952(16) 0.55133(17) 0.30071(7)
Se1C Se 0.44657(23) -0.07510(31) 0.16800(8)
Cd1A_2 Cd 0.89952(16) -0.44867(17) 0.30071(7)
Cd1C Cd 1.10048(16) 0.05133(17) 0.19929(7)
Cd1D Cd 0.39952(16) -0.05133(17) 0.69929(7)
Cd1F Cd 0.39952(16) 0.55133(17) 0.19929(7)
Se1_2 Se 0.94657(23) 0.92490(31) 0.33200(8)
Se1F Se 1.05343(23) 0.42490(31) 0.16800(8)
N1A N 1.0953(17) 0.3977(21) 0.3993(5)
H1A H 1.05772 0.27206 0.40521
H2A H 1.21453 0.39553 0.369
loop_
_geom_bond_atom_site_label_1
_geom_bond_atom_site_label_2
_geom_bond_site_symmetry_1
_geom_bond_site_symmetry_2
Cd1 Se1 1_555 1_555
Se1 Cd1A_2 1_555 1_555
N1 Cd1 1_555 1_555
C1 N1 1_555 1_555
H1 N1 1_555 1_555
H2 N1 1_555 1_555
H3 C1 1_555 1_555
H4 C1 1_555 1_555
C1D C1 1_555 1_555
N1D C1D 1_555 1_555
H1D N1D 1_555 1_555
H2D N1D 1_555 1_555
H3D C1D 1_555 1_555
H4D C1D 1_555 1_555
Se1A Cd1 1_555 1_555
Cd1A Se1A 1_555 1_555
Se1C Cd1 1_555 1_555
Cd1C Se1 1_555 1_555
Cd1D N1D 1_555 1_555
Cd1F Se1A 1_555 1_555
Se1_2 Cd1A 1_555 1_555
Se1F Cd1A 1_555 1_555
N1A Cd1A 1_555 1_555
H1A N1A 1_555 1_555
H2A N1A 1_555 1_555
Cd1C Se1F 1_555 1_555

#END
