
#######################################################################
#
#                 Cambridge Crystallographic Data Centre
#                                CCDC 
#
#######################################################################
#
# If this CIF has been generated from an entry in the Cambridge 
# Structural Database, then it will include bibliographic, chemical, 
# crystal, experimental, refinement or atomic coordinate data resulting 
# from the CCDC's data processing and validation procedures.
#
#######################################################################

data_HACWIR02
_symmetry_cell_setting           monoclinic
_symmetry_space_group_name_H-M   'C 2/c'
_symmetry_Int_Tables_number      15
_space_group_name_Hall           '-C 2yc'
loop_
_symmetry_equiv_pos_site_id
_symmetry_equiv_pos_as_xyz
1 x,y,z
2 1/2+x,1/2+y,z
3 1/2-x,1/2+y,1/2-z
4 -x,y,1/2-z
5 -x,-y,-z
6 1/2-x,1/2-y,-z
7 1/2+x,1/2-y,1/2+z
8 x,-y,1/2+z
_cell_length_a                   14.4451(16)
_cell_length_b                   8.4711(11)
_cell_length_c                   13.0204(14)
_cell_angle_alpha                90
_cell_angle_beta                 114.69(2)
_cell_angle_gamma                90
_cell_volume                     1447.6
loop_
_atom_site_label
_atom_site_type_symbol
_atom_site_fract_x
_atom_site_fract_y
_atom_site_fract_z
Mn1 Mn 0.5000 0.5113(1) 0.7500
N1 N 0.5606(3) 0.3493(4) 0.6508(3)
N2 N 0.6106(3) 0.1782(5) 0.5017(3)
O1 O 0.3625(2) 0.4612(4) 0.5921(3)
O2 O 0.3140(3) 0.3256(4) 0.4323(3)
O3 O 0.4180(3) 0.2995(4) 0.2815(3)
O4 O 0.4163(3) 0.0504(4) 0.3313(3)
C1 C 0.3837(4) 0.3717(6) 0.5233(4)
C2 C 0.4902(3) 0.3125(5) 0.5482(4)
C3 C 0.5144(3) 0.2288(5) 0.4720(4)
C4 C 0.4412(4) 0.1918(6) 0.3510(4)
C5 C 0.6557(4) 0.3031(6) 0.6771(4)
C6 C 0.6804(4) 0.2154(6) 0.6031(4)
H1 H 0.6262 0.1229 0.4558
H4 H 0.7067 0.3307 0.7469
H5 H 0.7472 0.1818 0.6249
Mn1D Mn 0.5000 0.4887(1) 0.2500
Mn1D_2 Mn 0.5000 0.4887(1) 1.2500
N1C N 0.4394(3) 0.3493(4) 0.8492(3)
N2C N 0.3894(3) 0.1782(5) 0.9983(3)
O1C O 0.6375(2) 0.4612(4) 0.9079(3)
O2C O 0.6860(3) 0.3256(4) 1.0677(3)
O3C O 0.5820(3) 0.2995(4) 1.2185(3)
O3D O 0.5820(3) 0.7005(4) 0.7185(3)
O3G O 0.4180(3) 0.7005(4) 0.7815(3)
O4C O 0.5837(3) 0.0504(4) 1.1687(3)
C1C C 0.6163(4) 0.3717(6) 0.9767(4)
C2C C 0.5098(3) 0.3125(5) 0.9518(4)
C3C C 0.4856(3) 0.2288(5) 1.0280(4)
C4C C 0.5588(4) 0.1918(6) 1.1490(4)
C5C C 0.3443(4) 0.3031(6) 0.8229(4)
C6C C 0.3196(4) 0.2154(6) 0.8969(4)
H1C H 0.3738 0.1229 1.0442
H4C H 0.2933 0.3307 0.7531
H5C H 0.2528 0.1818 0.8751
O5 O 0.8551(3) 0.5454(4) 0.6310(3)
H2 H 0.7982 0.5928 0.6095
H3 H 0.8645 0.4924 0.6899
loop_
_geom_bond_atom_site_label_1
_geom_bond_atom_site_label_2
_geom_bond_site_symmetry_1
_geom_bond_site_symmetry_2
Mn1 N1 1_555 1_555
N1 C2 1_555 1_555
N2 C3 1_555 1_555
O1 Mn1 1_555 1_555
O2 C1 1_555 1_555
O3 C4 1_555 1_555
O4 C4 1_555 1_555
O5 H2 1_555 1_555
C1 O1 1_555 1_555
C2 C1 1_555 1_555
C3 C2 1_555 1_555
C4 C3 1_555 1_555
C5 N1 1_555 1_555
C6 N2 1_555 1_555
H1 N2 1_555 1_555
H3 O5 1_555 1_555
H4 C5 1_555 1_555
H5 C6 1_555 1_555
Mn1D O3 1_555 1_555
Mn1D_2 O3C 1_555 1_555
N1C Mn1 1_555 1_555
N2C C3C 1_555 1_555
O1C Mn1 1_555 1_555
O2C C1C 1_555 1_555
O3C C4C 1_555 1_555
O3D Mn1 1_555 1_555
O3G Mn1 1_555 1_555
O4C C4C 1_555 1_555
C1C O1C 1_555 1_555
C2C N1C 1_555 1_555
C3C C2C 1_555 1_555
C4C C3C 1_555 1_555
C5C N1C 1_555 1_555
C6C N2C 1_555 1_555
H1C N2C 1_555 1_555
H4C C5C 1_555 1_555
H5C C6C 1_555 1_555
C5 C6 1_555 1_555
C1C C2C 1_555 1_555
C5C C6C 1_555 1_555

#END
