
#######################################################################
#
#                 Cambridge Crystallographic Data Centre
#                                CCDC 
#
#######################################################################
#
# If this CIF has been generated from an entry in the Cambridge 
# Structural Database, then it will include bibliographic, chemical, 
# crystal, experimental, refinement or atomic coordinate data resulting 
# from the CCDC's data processing and validation procedures.
#
#######################################################################

data_HADDIB
_symmetry_cell_setting           triclinic
_symmetry_space_group_name_H-M   'P -1'
_symmetry_Int_Tables_number      2
_space_group_name_Hall           '-P 1'
loop_
_symmetry_equiv_pos_site_id
_symmetry_equiv_pos_as_xyz
1 x,y,z
2 -x,-y,-z
_cell_length_a                   9.7321(2)
_cell_length_b                   12.8829(3)
_cell_length_c                   13.4251(3)
_cell_angle_alpha                117.7680(10)
_cell_angle_beta                 93.6470(10)
_cell_angle_gamma                104.5730(10)
_cell_volume                     1408.95
loop_
_atom_site_label
_atom_site_type_symbol
_atom_site_fract_x
_atom_site_fract_y
_atom_site_fract_z
Mn1 Mn 0.07590(3) 0.16051(3) 0.07926(3)
Mn2 Mn 0.41108(3) 0.35212(3) 0.13069(3)
C1 C 0.1232(2) 0.41615(19) 0.10165(18)
C2 C 0.0670(2) 0.52612(19) 0.13806(17)
C3 C -0.0796(2) 0.5119(2) 0.12649(18)
H1 H -0.1475 0.4334 0.0940
C4 C -0.1248(2) 0.6145(2) 0.16334(19)
H2 H -0.2235 0.6049 0.1549
C5 C 0.1163(3) 0.7440(2) 0.2232(2)
H3 H 0.1823 0.8234 0.2566
C6 C 0.1656(2) 0.6444(2) 0.1866(2)
H4 H 0.2647 0.6559 0.1941
C7 C -0.0775(3) 0.8395(2) 0.2510(2)
H5 H -0.1822 0.8126 0.2262
H6 H -0.0347 0.8865 0.2152
C8 C -0.0362(2) 0.9222(2) 0.3804(2)
C9 C -0.1204(3) 0.8960(2) 0.4495(2)
H7 H -0.202(4) 0.823(3) 0.417(3)
C10 C 0.0847(3) 1.0277(2) 0.4318(2)
H8 H 0.147(3) 1.045(3) 0.389(2)
C21 C 0.5823(5) 0.1639(3) 0.0867(4)
H17 H 0.6546 0.1425 0.1184
H18 H 0.6111 0.1743 0.0240
H19 H 0.4909 0.0991 0.0593
N1 N 0.0907(2) -0.01370(17) 0.07459(18)
N2 N 0.1861(2) -0.01808(17) 0.13072(18)
N3 N 0.2769(3) -0.0224(3) 0.1862(3)
N4 N 0.2582(2) 0.17205(18) -0.01604(17)
N5 N 0.2703(2) 0.09332(16) -0.10331(16)
N6 N 0.2794(3) 0.01611(19) -0.19030(19)
N7 N 0.2636(2) 0.28889(19) 0.22422(17)
N8 N 0.2868(3) 0.2957(2) 0.3149(2)
N9 N 0.3064(5) 0.3028(5) 0.4029(3)
N10 N 0.5401(2) 0.3830(2) 0.0139(2)
N11 N 0.4929(2) 0.34754(17) -0.08323(19)
N12 N 0.4476(3) 0.3121(2) -0.1802(2)
N13 N -0.0278(2) 0.72804(16) 0.21130(15)
O1 O -0.0569(2) 0.19157(19) 0.20798(18)
H20 H -0.085(4) 0.256(4) 0.234(3)
H21 H -0.120(4) 0.134(4) 0.210(3)
O2 O 0.51702(18) 0.53444(15) 0.28003(15)
H22 H 0.5819 0.5304 0.3023
H23 H 0.532(4) 0.590(3) 0.255(3)
O3 O 0.5681(2) 0.27510(16) 0.17239(18)
H24 H 0.6476 0.3105 0.2071
O4 O 0.03117(17) 0.31406(14) 0.07076(15)
O5 O 0.25666(17) 0.44007(15) 0.10780(16)
Mn1A Mn -0.07590(3) -0.16051(3) -0.07926(3)
Mn1A_2 Mn -0.07590(3) 1.83949(3) 0.92074(3)
Mn2A Mn -0.41108(3) 1.64788(3) 0.86931(3)
Mn2A_2 Mn -0.41108(3) -0.35212(3) -0.13069(3)
C1A C -0.1232(2) 1.58385(19) 0.89835(18)
C2A C -0.0670(2) 1.47388(19) 0.86194(17)
C3A C 0.0796(2) 1.4881(2) 0.87351(18)
H1A H 0.1475 1.5666 0.9060
C4A C 0.1248(2) 1.3855(2) 0.83666(19)
H2A H 0.2235 1.3951 0.8451
C5A C -0.1163(3) 1.2560(2) 0.7768(2)
H3A H -0.1823 1.1766 0.7434
C6A C -0.1656(2) 1.3556(2) 0.8134(2)
H4A H -0.2647 1.3441 0.8059
C7A C 0.0775(3) 1.1605(2) 0.7490(2)
H5A H 0.1822 1.1874 0.7738
H6A H 0.0347 1.1135 0.7848
C8A C 0.0362(2) 1.0778(2) 0.6196(2)
C9A C 0.1204(3) 1.1040(2) 0.5505(2)
H7A H 0.202(4) 1.177(3) 0.583(3)
C10A C -0.0847(3) 0.9723(2) 0.5682(2)
H8A H -0.147(3) 0.955(3) 0.611(2)
C21A C -0.5823(5) 1.8361(3) 0.9133(4)
H17A H -0.6546 1.8575 0.8816
H18A H -0.6111 1.8257 0.9760
H19A H -0.4909 1.9009 0.9407
N1A N -0.0907(2) 0.01370(17) -0.07459(18)
N2A N -0.1861(2) 0.01808(17) -0.13072(18)
N3A N -0.2769(3) 0.0224(3) -0.1862(3)
N4A N -0.2582(2) -0.17205(18) 0.01604(17)
N4A_2 N -0.2582(2) 1.82795(18) 1.01604(17)
N5A N -0.2703(2) -0.09332(16) 0.10331(16)
N6A N -0.2794(3) -0.01611(19) 0.19030(19)
N7A N -0.2636(2) -0.28889(19) -0.22422(17)
N7A_2 N -0.2636(2) 1.71111(19) 0.77578(17)
N8A N -0.2868(3) -0.2957(2) -0.3149(2)
N9A N -0.3064(5) -0.3028(5) -0.4029(3)
N10A N -0.5401(2) 1.6170(2) 0.9861(2)
N11A N -0.4929(2) 1.65246(17) 1.08323(19)
N12A N -0.4476(3) 1.6879(2) 1.1802(2)
N13A N 0.0278(2) 1.27196(16) 0.78870(15)
O1A O 0.0569(2) -0.19157(19) -0.20798(18)
H20A H 0.085(4) -0.256(4) -0.234(3)
H21A H 0.120(4) -0.134(4) -0.210(3)
O2A O -0.51702(18) 1.46556(15) 0.71997(15)
H22A H -0.5819 1.4696 0.6977
H23A H -0.532(4) 1.410(3) 0.745(3)
O3A O -0.5681(2) 1.72490(16) 0.82761(18)
H24A H -0.6476 1.6895 0.7929
O4A O -0.03117(17) 1.68594(14) 0.92924(15)
O4A_2 O -0.03117(17) -0.31406(14) -0.07076(15)
O5A O -0.25666(17) 1.55993(15) 0.89220(16)
C11 C -0.1312(2) 0.4987(2) 0.35609(19)
C12 C 0.0235(2) 0.5792(2) 0.42074(18)
C13 C 0.0474(3) 0.7032(2) 0.4985(2)
H9 H -0.0307 0.7334 0.5139
C14 C 0.1857(3) 0.7809(2) 0.5525(2)
H10 H 0.2015 0.8640 0.6043
C15 C 0.2798(3) 0.6189(2) 0.4581(2)
H11 H 0.3596 0.5908 0.4446
C16 C 0.1417(3) 0.5373(2) 0.4022(2)
H12 H 0.1283 0.4541 0.3520
C17 C 0.4486(3) 0.8301(2) 0.5891(2)
H13 H 0.5204 0.7874 0.5741
H14 H 0.4561 0.8752 0.6717
C18 C 0.4775(2) 0.9194(2) 0.5436(2)
C19 C 0.4857(3) 1.0419(2) 0.6131(2)
H15 H 0.475(3) 1.069(3) 0.689(3)
C20 C 0.4923(3) 0.8790(2) 0.4309(2)
H16 H 0.493(3) 0.799(3) 0.386(2)
N14 N 0.2996(2) 0.73806(17) 0.53145(16)
O6 O -0.15913(19) 0.38400(16) 0.30555(16)
O7 O -0.2162(2) 0.55609(18) 0.35869(18)
C11A C 1.1312(2) 1.5013(2) 0.64391(19)
C12A C 0.9765(2) 1.4208(2) 0.57926(18)
C13A C 0.9526(3) 1.2968(2) 0.5015(2)
H9A H 1.0307 1.2666 0.4861
C14A C 0.8143(3) 1.2191(2) 0.4475(2)
H10A H 0.7985 1.1360 0.3957
C15A C 0.7202(3) 1.3811(2) 0.5419(2)
H11A H 0.6404 1.4092 0.5554
C16A C 0.8583(3) 1.4627(2) 0.5978(2)
H12A H 0.8717 1.5459 0.6480
C17A C 0.5514(3) 1.1699(2) 0.4109(2)
H13A H 0.4796 1.2126 0.4259
H14A H 0.5439 1.1248 0.3283
C18A C 0.5225(2) 1.0806(2) 0.4564(2)
C19A C 0.5143(3) 0.9581(2) 0.3869(2)
H15A H 0.525(3) 0.931(3) 0.311(3)
C20A C 0.5077(3) 1.1210(2) 0.5691(2)
H16A H 0.507(3) 1.201(3) 0.614(2)
N14A N 0.7004(2) 1.26194(17) 0.46855(16)
O6A O 1.15913(19) 1.61600(16) 0.69445(16)
O7A O 1.2162(2) 1.44391(18) 0.64131(18)
loop_
_geom_bond_atom_site_label_1
_geom_bond_atom_site_label_2
_geom_bond_site_symmetry_1
_geom_bond_site_symmetry_2
Mn1 N1 1_555 1_555
Mn2 N4 1_555 1_555
C1 C2 1_555 1_555
C2 C3 1_555 1_555
C3 H1 1_555 1_555
C4 C3 1_555 1_555
H2 C4 1_555 1_555
C5 H3 1_555 1_555
C6 C2 1_555 1_555
H4 C6 1_555 1_555
C7 H5 1_555 1_555
H6 C7 1_555 1_555
C8 C7 1_555 1_555
C9 C8 1_555 1_555
H7 C9 1_555 1_555
C10 C8 1_555 1_555
H8 C10 1_555 1_555
C11 C12 1_555 1_555
C12 C13 1_555 1_555
C13 H9 1_555 1_555
C14 C13 1_555 1_555
H10 C14 1_555 1_555
C15 H11 1_555 1_555
C16 C12 1_555 1_555
H12 C16 1_555 1_555
C17 H13 1_555 1_555
H14 C17 1_555 1_555
C18 C17 1_555 1_555
C19 C18 1_555 1_555
H15 C19 1_555 1_555
C20 C18 1_555 1_555
H16 C20 1_555 1_555
C21 H17 1_555 1_555
H18 C21 1_555 1_555
H19 C21 1_555 1_555
N1 N2 1_555 1_555
N2 N3 1_555 1_555
N4 Mn1 1_555 1_555
N5 N4 1_555 1_555
N6 N5 1_555 1_555
N7 Mn1 1_555 1_555
N8 N7 1_555 1_555
N9 N8 1_555 1_555
N10 Mn2 1_555 1_555
N11 N10 1_555 1_555
N12 N11 1_555 1_555
N13 C4 1_555 1_555
N14 C14 1_555 1_555
O1 Mn1 1_555 1_555
H20 O1 1_555 1_555
H21 O1 1_555 1_555
O2 Mn2 1_555 1_555
H22 O2 1_555 1_555
H23 O2 1_555 1_555
O3 Mn2 1_555 1_555
H24 O3 1_555 1_555
O4 Mn1 1_555 1_555
O5 Mn2 1_555 1_555
O6 C11 1_555 1_555
O7 C11 1_555 1_555
Mn1A N1 1_555 1_555
Mn1A_2 N4A_2 1_555 1_555
Mn2A N4A_2 1_555 1_555
Mn2A_2 N4A 1_555 1_555
C1A C2A 1_555 1_555
C2A C3A 1_555 1_555
C3A H1A 1_555 1_555
C4A C3A 1_555 1_555
H2A C4A 1_555 1_555
C5A H3A 1_555 1_555
C6A C2A 1_555 1_555
H4A C6A 1_555 1_555
C7A H5A 1_555 1_555
H6A C7A 1_555 1_555
C8A C7A 1_555 1_555
C9A C10 1_555 1_555
H7A C9A 1_555 1_555
C10A C9 1_555 1_555
H8A C10A 1_555 1_555
C11A C12A 1_555 1_555
C12A C13A 1_555 1_555
C13A H9A 1_555 1_555
C14A C13A 1_555 1_555
H10A C14A 1_555 1_555
C15A H11A 1_555 1_555
C16A C12A 1_555 1_555
H12A C16A 1_555 1_555
C17A H13A 1_555 1_555
H14A C17A 1_555 1_555
C18A C17A 1_555 1_555
C19A C20 1_555 1_555
H15A C19A 1_555 1_555
C20A C19 1_555 1_555
H16A C20A 1_555 1_555
C21A H17A 1_555 1_555
H18A C21A 1_555 1_555
H19A C21A 1_555 1_555
N1A Mn1 1_555 1_555
N2A N1A 1_555 1_555
N3A N2A 1_555 1_555
N4A Mn1A 1_555 1_555
N5A N4A 1_555 1_555
N6A N5A 1_555 1_555
N7A Mn1A 1_555 1_555
N7A_2 Mn1A_2 1_555 1_555
N8A N7A 1_555 1_555
N9A N8A 1_555 1_555
N10A Mn2A 1_555 1_555
N11A N10A 1_555 1_555
N12A N11A 1_555 1_555
N13A C4A 1_555 1_555
N14A C14A 1_555 1_555
O1A Mn1A 1_555 1_555
H20A O1A 1_555 1_555
H21A O1A 1_555 1_555
O2A Mn2A 1_555 1_555
H22A O2A 1_555 1_555
H23A O2A 1_555 1_555
O3A Mn2A 1_555 1_555
H24A O3A 1_555 1_555
O4A Mn1A_2 1_555 1_555
O4A_2 Mn1A 1_555 1_555
O5A Mn2A 1_555 1_555
O6A C11A 1_555 1_555
O7A C11A 1_555 1_555
Mn2 N7 1_555 1_555
C1 O4 1_555 1_555
C1 O5 1_555 1_555
C5 C6 1_555 1_555
C5 N13 1_555 1_555
C7 N13 1_555 1_555
C15 C16 1_555 1_555
C15 N14 1_555 1_555
C17 N14 1_555 1_555
C21 O3 1_555 1_555
Mn1A N1A 1_555 1_555
Mn2A N7A_2 1_555 1_555
Mn2A_2 N7A 1_555 1_555
C1A O4A 1_555 1_555
C1A O5A 1_555 1_555
C5A C6A 1_555 1_555
C5A N13A 1_555 1_555
C7A N13A 1_555 1_555
C8A C9A 1_555 1_555
C8A C10A 1_555 1_555
C15A C16A 1_555 1_555
C15A N14A 1_555 1_555
C17A N14A 1_555 1_555
C18A C19A 1_555 1_555
C18A C20A 1_555 1_555
C21A O3A 1_555 1_555

#END
