
#######################################################################
#
#                 Cambridge Crystallographic Data Centre
#                                CCDC 
#
#######################################################################
#
# If this CIF has been generated from an entry in the Cambridge 
# Structural Database, then it will include bibliographic, chemical, 
# crystal, experimental, refinement or atomic coordinate data resulting 
# from the CCDC's data processing and validation procedures.
#
#######################################################################

data_HADHUP
_symmetry_cell_setting           monoclinic
_symmetry_space_group_name_H-M   'P 21/n'
_symmetry_Int_Tables_number      14
_space_group_name_Hall           '-P 2yn'
loop_
_symmetry_equiv_pos_site_id
_symmetry_equiv_pos_as_xyz
1 x,y,z
2 1/2-x,1/2+y,1/2-z
3 -x,-y,-z
4 1/2+x,1/2-y,1/2+z
_cell_length_a                   7.989(1)
_cell_length_b                   16.543(2)
_cell_length_c                   11.416(1)
_cell_angle_alpha                90
_cell_angle_beta                 106.48(1)
_cell_angle_gamma                90
_cell_volume                     1446.78
loop_
_atom_site_label
_atom_site_type_symbol
_atom_site_fract_x
_atom_site_fract_y
_atom_site_fract_z
Ca1 Ca 0.82961(4) 0.41321(2) 0.50335(3)
Na1 Na 0.17091(10) 0.66057(4) 0.06616(6)
Na2 Na 0.33633(10) 0.74684(5) 0.35879(7)
O1 O 0.59082(14) 0.45390(6) 0.32615(9)
O2 O 0.30980(21) 0.46889(8) 0.43588(12)
O3 O 0.23380(18) 0.59518(7) 0.29324(11)
O4 O 0.21943(19) 0.52475(8) 0.12344(11)
O5 O 0.34082(16) 0.27815(7) 0.33384(11)
O6 O 0.58791(16) 0.32478(7) 0.45973(11)
O7 O 0.79414(17) 0.61515(7) 0.22963(11)
O8 O 0.88938(16) 0.53491(7) 0.39169(11)
O9 O 0.89961(18) 0.35934(8) 0.33114(11)
O10 O 0.89714(19) 0.31693(9) 0.14693(12)
O11 O 0.96066(19) 0.28640(8) 0.60073(13)
O12 O 0.47650(20) 0.69996(9) 0.10554(15)
O13 O -0.14897(21) 0.62996(9) -0.00810(14)
C1 C 0.43550(19) 0.40605(8) 0.28905(13)
C2 C 0.45892(20) 0.32923(9) 0.36708(13)
C3 C 0.28076(22) 0.45204(10) 0.30920(15)
C4 C 0.24324(21) 0.53094(9) 0.23618(15)
C5 C 0.64717(20) 0.48985(9) 0.22886(13)
C6 C 0.78801(20) 0.55202(9) 0.28832(14)
C7 C 0.71301(23) 0.42752(10) 0.15249(14)
C8 C 0.84639(21) 0.36319(10) 0.21618(15)
H1 H 0.3175 0.4225 0.4735
H2 H 0.9978(41) 0.2625(20) 0.5609(28)
H3 H 1.0530(38) 0.3070(18) 0.6605(27)
H4 H 0.4972(39) 0.7430(20) 0.1408(27)
H5 H 0.5729(39) 0.6730(18) 0.1407(26)
H6 H -0.1581(36) 0.5804(17) -0.0345(24)
H7 H -0.1764(41) 0.6320(19) 0.0517(28)
H8 H 0.4083(25) 0.3905(11) 0.1998(17)
H9 H 0.1803(30) 0.4201(13) 0.2885(20)
H10 H 0.5495(23) 0.5195(11) 0.1737(16)
H11 H 0.6100(28) 0.3996(12) 0.1005(19)
H12 H 0.7600(29) 0.4609(13) 0.0957(19)
O2B O 0.69020(21) 0.53111(8) 0.56412(12)
O3B O 0.76620(18) 0.40482(7) 0.70676(11)
O8B O 1.11062(16) 0.46509(7) 0.60831(11)
Na2C Na -0.16367(10) 0.75316(5) -0.14121(7)
O5A O 0.15918(16) 0.77815(7) 0.16616(11)
O10B O 0.10286(19) 0.68307(9) -0.14693(12)
Na1C Na 0.67091(10) 0.83943(4) 0.56616(6)
O6B O 0.41209(16) 0.67522(7) 0.54027(11)
O10A O 0.60286(19) 0.81693(9) 0.35307(12)
O11B O 0.03934(19) 0.71360(8) 0.39927(13)
O13C O 0.35103(21) 0.87004(9) 0.49190(14)
Ca1B Ca 0.17039(4) 0.58679(2) 0.49665(3)
Na1A Na 0.32909(10) 0.16057(4) 0.43384(6)
Na2A Na 0.16367(10) 0.24684(5) 0.14121(7)
Na2B Na 0.66367(10) 0.25316(5) 0.64121(7)
Ca1B_2 Ca 1.17039(4) 0.58679(2) 0.49665(3)
Na1B Na 0.82909(10) 0.33943(4) -0.06616(6)
Na2A_2 Na 1.16367(10) 0.24684(5) 0.14121(7)
H1B H 0.6825 0.5775 0.5265
H2B H 0.0022(41) 0.7375(20) 0.4391(28)
H3B H -0.0530(38) 0.6930(18) 0.3395(27)
H6C H 0.3419(36) 0.9196(17) 0.4655(24)
H7C H 0.3236(41) 0.8680(19) 0.5517(28)
loop_
_geom_bond_atom_site_label_1
_geom_bond_atom_site_label_2
_geom_bond_site_symmetry_1
_geom_bond_site_symmetry_2
Ca1 O1 1_555 1_555
Na1 O3 1_555 1_555
Na2 O3 1_555 1_555
O1 C1 1_555 1_555
O2 C3 1_555 1_555
O3 C4 1_555 1_555
O4 Na1 1_555 1_555
O5 C2 1_555 1_555
O6 Ca1 1_555 1_555
O7 C6 1_555 1_555
O8 Ca1 1_555 1_555
O9 Ca1 1_555 1_555
O10 C8 1_555 1_555
O11 Ca1 1_555 1_555
O12 Na1 1_555 1_555
O13 Na1 1_555 1_555
C1 C2 1_555 1_555
C2 O6 1_555 1_555
C3 C1 1_555 1_555
C4 O4 1_555 1_555
C5 O1 1_555 1_555
C6 O8 1_555 1_555
C7 C5 1_555 1_555
C8 O9 1_555 1_555
H1 O2 1_555 1_555
H2 O11 1_555 1_555
H3 O11 1_555 1_555
H4 O12 1_555 1_555
H5 O12 1_555 1_555
H6 O13 1_555 1_555
H7 O13 1_555 1_555
H8 C1 1_555 1_555
H9 C3 1_555 1_555
H10 C5 1_555 1_555
H11 C7 1_555 1_555
H12 C7 1_555 1_555
O2B Ca1 1_555 1_555
O3B Ca1 1_555 1_555
O8B Ca1 1_555 1_555
Na2C O13 1_555 1_555
O5A Na1 1_555 1_555
O10B Na1 1_555 1_555
Na1C O10A 1_555 1_555
O6B Na2 1_555 1_555
O10A Na2 1_555 1_555
O11B Na2 1_555 1_555
O13C Na2 1_555 1_555
Ca1B O2 1_555 1_555
Na1A O5 1_555 1_555
Na2A O5 1_555 1_555
Na2B O6 1_555 1_555
Ca1B_2 O8 1_555 1_555
Na1B O10 1_555 1_555
Na2A_2 O10 1_555 1_555
H1B O2B 1_555 1_555
H2B O11B 1_555 1_555
H3B O11B 1_555 1_555
H6C O13C 1_555 1_555
H7C O13C 1_555 1_555
Na2 O5A 1_555 1_555
O3 Ca1B 1_555 1_555
O11 Na2B 1_555 1_555
C3 C4 1_555 1_555
C5 C6 1_555 1_555
C7 C8 1_555 1_555
O3B Na2B 1_555 1_555
O8B Ca1B_2 1_555 1_555
Na2C O10B 1_555 1_555
Na1C O13C 1_555 1_555
O6B Ca1B 1_555 1_555
O11B Ca1B 1_555 1_555

#END
