
#######################################################################
#
#                 Cambridge Crystallographic Data Centre
#                                CCDC 
#
#######################################################################
#
# If this CIF has been generated from an entry in the Cambridge 
# Structural Database, then it will include bibliographic, chemical, 
# crystal, experimental, refinement or atomic coordinate data resulting 
# from the CCDC's data processing and validation procedures.
#
#######################################################################

data_HADLEE
_symmetry_cell_setting           triclinic
_symmetry_space_group_name_H-M   'P -1'
_symmetry_Int_Tables_number      2
_space_group_name_Hall           '-P 1'
loop_
_symmetry_equiv_pos_site_id
_symmetry_equiv_pos_as_xyz
1 x,y,z
2 -x,-y,-z
_cell_length_a                   18.4029(10)
_cell_length_b                   18.5309(9)
_cell_length_c                   19.1906(10)
_cell_angle_alpha                99.1660(10)
_cell_angle_beta                 117.9960(10)
_cell_angle_gamma                91.0700(10)
_cell_volume                     5671.93
loop_
_atom_site_label
_atom_site_type_symbol
_atom_site_fract_x
_atom_site_fract_y
_atom_site_fract_z
N8 N -0.2180(7) 0.7458(5) 0.7125(5)
O10 O -0.2694(6) 0.7907(4) 0.7012(5)
O11 O -0.2350(6) 0.6817(4) 0.7202(5)
O12 O -0.1526(6) 0.7616(4) 0.7140(6)
Re1 Re 0.39933(3) 0.788813(18) 0.29247(2)
Re2 Re 0.26442(3) 0.697241(18) 0.23461(2)
Re3 Re 0.33771(3) 0.835085(19) 0.15346(2)
Re4 Re 0.20389(3) 0.740890(18) 0.09597(2)
Re5 Re 0.35227(3) 0.693108(18) 0.15761(2)
Re6 Re 0.25175(2) 0.837409(18) 0.23031(2)
Se1 Se 0.22225(6) 0.60771(5) 0.10515(5)
Se2 Se 0.12507(6) 0.74677(5) 0.17367(5)
Se3 Se 0.47634(6) 0.78707(5) 0.21353(5)
Se4 Se 0.40614(6) 0.65333(5) 0.29182(5)
Se5 Se 0.31099(6) 0.79301(5) 0.36072(5)
Se6 Se 0.38313(6) 0.92211(5) 0.28495(5)
Se7 Se 0.19396(6) 0.87494(5) 0.09476(5)
Se8 Se 0.29210(6) 0.73973(5) 0.02859(5)
Cd1 Cd -0.01684(5) 0.30319(4) 0.48378(4)
P1 P 0.53483(17) 0.81319(13) 0.42069(14)
C1 C 0.5973(6) 0.8994(5) 0.4377(5)
C2 C 0.6747(7) 0.8998(5) 0.4402(5)
H1 H 0.6942 0.8546 0.4289
C3 C 0.7232(7) 0.9656(6) 0.4591(6)
H2 H 0.7757 0.9656 0.4610
C4 C 0.6942(7) 1.0306(6) 0.4749(6)
H3 H 0.7272 1.0758 0.4882
C5 C 0.6169(7) 1.0312(5) 0.4717(6)
H4 H 0.5978 1.0764 0.4835
C6 C 0.5676(7) 0.9650(5) 0.4512(5)
H5 H 0.5139 0.9652 0.4466
C7 C 0.5245(6) 0.8196(5) 0.5118(5)
C8 C 0.5698(7) 0.8759(5) 0.5796(5)
H6 H 0.6054 0.9132 0.5789
C9 C 0.5610(8) 0.8751(6) 0.6473(6)
H7 H 0.5914 0.9125 0.6935
C10 C 0.5104(8) 0.8227(7) 0.6499(6)
H8 H 0.5050 0.8242 0.6970
C11 C 0.4662(8) 0.7664(6) 0.5832(6)
H9 H 0.4310 0.7290 0.5844
C12 C 0.4749(6) 0.7666(5) 0.5154(5)
H10 H 0.4453 0.7284 0.4699
C13 C 0.6076(6) 0.7422(5) 0.4344(5)
C14 C 0.6434(7) 0.7154(5) 0.5049(6)
H11 H 0.6309 0.7327 0.5470
C15 C 0.6978(7) 0.6628(6) 0.5133(6)
H12 H 0.7214 0.6431 0.5611
C16 C 0.7185(7) 0.6384(5) 0.4540(6)
H13 H 0.7559 0.6021 0.4609
C17 C 0.6850(7) 0.6666(6) 0.3854(6)
H14 H 0.7005 0.6512 0.3450
C18 C 0.6289(7) 0.7175(5) 0.3745(5)
H15 H 0.6045 0.7359 0.3258
P2 P 0.07239(17) 0.71085(13) -0.03530(14)
C19 C -0.0146(6) 0.6580(5) -0.0386(6)
C20 C -0.0079(6) 0.6133(5) 0.0137(5)
H16 H 0.0454 0.6066 0.0542
C21 C -0.0773(7) 0.5774(5) 0.0088(6)
H17 H -0.0712 0.5477 0.0469
C22 C -0.1541(7) 0.5846(5) -0.0504(6)
H18 H -0.2018 0.5600 -0.0538
C23 C -0.1621(7) 0.6279(5) -0.1052(7)
H19 H -0.2155 0.6329 -0.1469
C24 C -0.0933(7) 0.6637(5) -0.0995(6)
H20 H -0.0994 0.6929 -0.1380
C25 C 0.0259(6) 0.7948(5) -0.0657(6)
C26 C -0.0055(7) 0.8348(5) -0.0207(6)
H21 H -0.0028 0.8177 0.0245
C27 C -0.0402(7) 0.8981(6) -0.0393(7)
H22 H -0.0641 0.9227 -0.0090
C28 C -0.0408(8) 0.9268(6) -0.1016(8)
H23 H -0.0630 0.9720 -0.1128
C29 C -0.0082(8) 0.8882(6) -0.1488(7)
H24 H -0.0054 0.9080 -0.1903
C30 C 0.0194(8) 0.8210(6) -0.1325(6)
H25 H 0.0345 0.7916 -0.1679
C31 C 0.0826(6) 0.6587(5) -0.1182(5)
C32 C 0.1335(7) 0.6893(6) -0.1450(5)
H26 H 0.1591 0.7383 -0.1219
C33 C 0.1470(7) 0.6491(6) -0.2042(5)
H27 H 0.1789 0.6717 -0.2236
C34 C 0.1141(7) 0.5755(7) -0.2360(6)
H28 H 0.1250 0.5473 -0.2753
C35 C 0.0660(7) 0.5453(6) -0.2090(6)
H29 H 0.0429 0.4955 -0.2302
C36 C 0.0501(7) 0.5861(5) -0.1512(5)
H30 H 0.0161 0.5635 -0.1340
P3 P 0.42100(18) 0.60496(13) 0.09814(14)
C37 C 0.4501(6) 0.6472(5) 0.0340(6)
C38 C 0.4057(7) 0.6268(5) -0.0500(6)
H31 H 0.3632 0.5868 -0.0738
C39 C 0.4228(8) 0.6640(6) -0.0990(7)
H32 H 0.3925 0.6487 -0.1557
C40 C 0.4832(8) 0.7228(6) -0.0663(7)
H33 H 0.4933 0.7487 -0.1003
C41 C 0.5301(8) 0.7442(5) 0.0185(7)
H34 H 0.5726 0.7842 0.0423
C42 C 0.5121(7) 0.7050(5) 0.0660(7)
H35 H 0.5439 0.7187 0.1228
C43 C 0.5153(6) 0.5707(5) 0.1673(5)
C44 C 0.5843(7) 0.5689(5) 0.1577(6)
H36 H 0.5848 0.5908 0.1164
C45 C 0.6542(7) 0.5364(6) 0.2056(6)
H37 H 0.7029 0.5393 0.2002
C46 C 0.6495(8) 0.5007(6) 0.2601(7)
H38 H 0.6948 0.4759 0.2916
C47 C 0.5803(8) 0.4995(5) 0.2709(6)
H39 H 0.5788 0.4749 0.3101
C48 C 0.5139(7) 0.5340(5) 0.2247(5)
H40 H 0.4663 0.5329 0.2319
C49 C 0.3560(6) 0.5204(4) 0.0336(5)
C50 C 0.3854(7) 0.4518(5) 0.0413(6)
H41 H 0.4397 0.4485 0.0824
C51 C 0.3368(7) 0.3882(5) -0.0099(6)
H42 H 0.3566 0.3416 -0.0023
C52 C 0.2606(7) 0.3933(6) -0.0712(6)
H43 H 0.2282 0.3497 -0.1072
C53 C 0.2292(7) 0.4597(5) -0.0826(6)
H44 H 0.1756 0.4623 -0.1254
C54 C 0.2788(7) 0.5238(5) -0.0289(5)
H45 H 0.2584 0.5703 -0.0361
P4 P 0.37749(18) 0.93117(13) 0.09584(14)
C55 C 0.3186(7) 0.9100(5) -0.0144(5)
C56 C 0.3419(7) 0.8539(5) -0.0559(5)
H46 H 0.3902 0.8311 -0.0269
C57 C 0.2960(8) 0.8314(6) -0.1374(6)
H47 H 0.3121 0.7937 -0.1654
C58 C 0.2234(9) 0.8662(7) -0.1792(6)
H48 H 0.1898 0.8504 -0.2355
C59 C 0.2010(8) 0.9227(6) -0.1390(6)
H49 H 0.1538 0.9469 -0.1677
C60 C 0.2489(7) 0.9437(6) -0.0554(6)
H50 H 0.2333 0.9813 -0.0269
C61 C 0.3547(7) 1.0266(5) 0.1170(6)
C62 C 0.2944(7) 1.0428(5) 0.1367(5)
H51 H 0.2657 1.0044 0.1446
C63 C 0.2731(7) 1.1147(5) 0.1457(6)
H52 H 0.2289 1.1248 0.1569
C64 C 0.3180(9) 1.1702(6) 0.1378(8)
H53 H 0.3068 1.2195 0.1477
C65 C 0.3786(10) 1.1564(6) 0.1160(9)
H54 H 0.4049 1.1944 0.1051
C66 C 0.4010(9) 1.0821(6) 0.1102(8)
H55 H 0.4469 1.0716 0.1018
C67 C 0.4870(7) 0.9423(5) 0.1259(5)
C68 C 0.5447(7) 0.9555(6) 0.2094(6)
H56 H 0.5253 0.9545 0.2473
C69 C 0.6267(8) 0.9694(7) 0.2357(7)
H57 H 0.6635 0.9806 0.2919
C70 C 0.6576(8) 0.9679(6) 0.1847(7)
H58 H 0.7157 0.9754 0.2046
C71 C 0.6045(8) 0.9553(6) 0.1036(7)
H59 H 0.6259 0.9546 0.0671
C72 C 0.5220(7) 0.9440(5) 0.0752(6)
H60 H 0.4865 0.9370 0.0188
N1 N 0.2182(5) 0.6175(4) 0.2816(4)
C73 C 0.2278(6) 0.5459(5) 0.2721(5)
H61 H 0.2568 0.5290 0.2438
C74 C 0.1987(6) 0.4950(5) 0.3004(5)
H62 H 0.2076 0.4449 0.2912
C75 C 0.1562(6) 0.5172(5) 0.3424(5)
C76 C 0.1458(6) 0.5921(5) 0.3523(5)
H63 H 0.1168 0.6106 0.3801
C77 C 0.1774(6) 0.6396(5) 0.3217(5)
H64 H 0.1697 0.6902 0.3298
C78 C 0.1203(6) 0.4680(4) 0.3735(5)
C79 C 0.0975(6) 0.3931(4) 0.3406(5)
H65 H 0.1071 0.3720 0.2975
C80 C 0.0603(6) 0.3487(5) 0.3708(5)
H66 H 0.0445 0.2982 0.3464
N2 N 0.0463(5) 0.3737(4) 0.4312(4)
C81 C 0.0733(6) 0.4454(5) 0.4662(5)
H67 H 0.0684 0.4639 0.5127
C82 C 0.1074(6) 0.4927(5) 0.4386(5)
H68 H 0.1224 0.5430 0.4643
N3 N 0.1963(5) 0.9244(4) 0.2770(4)
C83 C 0.1448(6) 0.9056(5) 0.3057(5)
H69 H 0.1308 0.8554 0.3036
C84 C 0.1130(6) 0.9605(5) 0.3380(5)
H70 H 0.0786 0.9470 0.3593
C85 C 0.1294(6) 1.0333(5) 0.3401(5)
C86 C 0.1818(7) 1.0498(5) 0.3091(5)
H71 H 0.1962 1.0997 0.3104
C87 C 0.2121(6) 0.9962(5) 0.2776(5)
H72 H 0.2456 1.0091 0.2551
C88 C 0.0960(7) 1.0915(5) 0.3760(5)
C89 C 0.0165(7) 1.0835(5) 0.3643(6)
H73 H -0.0184 1.0395 0.3329
C90 C -0.0127(7) 1.1383(5) 0.3975(6)
H74 H -0.0677 1.1315 0.3893
N4 N 0.0348(6) 1.2020(4) 0.4418(5)
C91 C 0.1119(7) 1.2095(5) 0.4549(6)
H75 H 0.1462 1.2530 0.4890
C92 C 0.1456(7) 1.1576(5) 0.4219(5)
H76 H 0.2003 1.1663 0.4300
N5 N -0.1725(6) 0.3297(5) 0.3640(5)
O1 O -0.2424(5) 0.3375(4) 0.3137(4)
O2 O -0.1296(5) 0.3772(4) 0.4201(4)
O3 O -0.1413(5) 0.2698(4) 0.3580(4)
N6 N -0.1124(8) 0.2213(5) 0.5454(7)
O4 O -0.1445(6) 0.1960(4) 0.5792(5)
O5 O -0.1101(8) 0.2809(5) 0.5347(6)
O6 O -0.0561(8) 0.1938(6) 0.5336(8)
N7 N 0.0999(6) 0.3701(5) 0.6431(5)
O7 O 0.1465(6) 0.3958(5) 0.7144(5)
O8 O 0.1160(6) 0.3155(5) 0.6058(4)
O9 O 0.0338(6) 0.3965(4) 0.6047(4)
N4_2 N 0.0348(6) 0.2020(4) 0.4418(5)
Cd1_2 Cd -0.01684(5) 1.30319(4) 0.48378(4)
loop_
_geom_bond_atom_site_label_1
_geom_bond_atom_site_label_2
_geom_bond_site_symmetry_1
_geom_bond_site_symmetry_2
Re1 Re2 1_555 1_555
Re2 Re4 1_555 1_555
Re3 Re1 1_555 1_555
Re4 Re3 1_555 1_555
Re5 Re1 1_555 1_555
Re6 Re1 1_555 1_555
Se1 Re2 1_555 1_555
Se2 Re2 1_555 1_555
Se3 Re1 1_555 1_555
Se4 Re1 1_555 1_555
Se5 Re1 1_555 1_555
Se6 Re1 1_555 1_555
Se7 Re3 1_555 1_555
Se8 Re3 1_555 1_555
Cd1 N2 1_555 1_555
P1 Re1 1_555 1_555
C1 P1 1_555 1_555
C2 C1 1_555 1_555
H1 C2 1_555 1_555
C3 C2 1_555 1_555
H2 C3 1_555 1_555
C4 C3 1_555 1_555
H3 C4 1_555 1_555
C5 C4 1_555 1_555
H4 C5 1_555 1_555
C6 C1 1_555 1_555
H5 C6 1_555 1_555
C7 P1 1_555 1_555
C8 C7 1_555 1_555
H6 C8 1_555 1_555
C9 C8 1_555 1_555
H7 C9 1_555 1_555
C10 C9 1_555 1_555
H8 C10 1_555 1_555
C11 C10 1_555 1_555
H9 C11 1_555 1_555
C12 C7 1_555 1_555
H10 C12 1_555 1_555
C13 P1 1_555 1_555
C14 C13 1_555 1_555
H11 C14 1_555 1_555
C15 C14 1_555 1_555
H12 C15 1_555 1_555
C16 C15 1_555 1_555
H13 C16 1_555 1_555
C17 C16 1_555 1_555
H14 C17 1_555 1_555
C18 C13 1_555 1_555
H15 C18 1_555 1_555
P2 Re4 1_555 1_555
C19 P2 1_555 1_555
C20 C19 1_555 1_555
H16 C20 1_555 1_555
C21 C20 1_555 1_555
H17 C21 1_555 1_555
C22 C21 1_555 1_555
H18 C22 1_555 1_555
C23 C22 1_555 1_555
H19 C23 1_555 1_555
C24 C19 1_555 1_555
H20 C24 1_555 1_555
C25 P2 1_555 1_555
C26 C25 1_555 1_555
H21 C26 1_555 1_555
C27 C26 1_555 1_555
H22 C27 1_555 1_555
C28 C27 1_555 1_555
H23 C28 1_555 1_555
C29 C28 1_555 1_555
H24 C29 1_555 1_555
C30 C25 1_555 1_555
H25 C30 1_555 1_555
C31 P2 1_555 1_555
C32 C31 1_555 1_555
H26 C32 1_555 1_555
C33 C32 1_555 1_555
H27 C33 1_555 1_555
C34 C33 1_555 1_555
H28 C34 1_555 1_555
C35 C34 1_555 1_555
H29 C35 1_555 1_555
C36 C31 1_555 1_555
H30 C36 1_555 1_555
P3 Re5 1_555 1_555
C37 P3 1_555 1_555
C38 C37 1_555 1_555
H31 C38 1_555 1_555
C39 C38 1_555 1_555
H32 C39 1_555 1_555
C40 C39 1_555 1_555
H33 C40 1_555 1_555
C41 C40 1_555 1_555
H34 C41 1_555 1_555
C42 C37 1_555 1_555
H35 C42 1_555 1_555
C43 P3 1_555 1_555
C44 C43 1_555 1_555
H36 C44 1_555 1_555
C45 C44 1_555 1_555
H37 C45 1_555 1_555
C46 C45 1_555 1_555
H38 C46 1_555 1_555
C47 C46 1_555 1_555
H39 C47 1_555 1_555
C48 C43 1_555 1_555
H40 C48 1_555 1_555
C49 P3 1_555 1_555
C50 C49 1_555 1_555
H41 C50 1_555 1_555
C51 C50 1_555 1_555
H42 C51 1_555 1_555
C52 C51 1_555 1_555
H43 C52 1_555 1_555
C53 C52 1_555 1_555
H44 C53 1_555 1_555
C54 C49 1_555 1_555
H45 C54 1_555 1_555
P4 Re3 1_555 1_555
C55 P4 1_555 1_555
C56 C55 1_555 1_555
H46 C56 1_555 1_555
C57 C56 1_555 1_555
H47 C57 1_555 1_555
C58 C57 1_555 1_555
H48 C58 1_555 1_555
C59 C58 1_555 1_555
H49 C59 1_555 1_555
C60 C55 1_555 1_555
H50 C60 1_555 1_555
C61 P4 1_555 1_555
C62 C61 1_555 1_555
H51 C62 1_555 1_555
C63 C62 1_555 1_555
H52 C63 1_555 1_555
C64 C63 1_555 1_555
H53 C64 1_555 1_555
C65 C64 1_555 1_555
H54 C65 1_555 1_555
C66 C61 1_555 1_555
H55 C66 1_555 1_555
C67 P4 1_555 1_555
C68 C67 1_555 1_555
H56 C68 1_555 1_555
C69 C68 1_555 1_555
H57 C69 1_555 1_555
C70 C69 1_555 1_555
H58 C70 1_555 1_555
C71 C70 1_555 1_555
H59 C71 1_555 1_555
C72 C67 1_555 1_555
H60 C72 1_555 1_555
N1 Re2 1_555 1_555
C73 N1 1_555 1_555
H61 C73 1_555 1_555
C74 C73 1_555 1_555
H62 C74 1_555 1_555
C75 C74 1_555 1_555
C76 C75 1_555 1_555
H63 C76 1_555 1_555
C77 N1 1_555 1_555
H64 C77 1_555 1_555
C78 C75 1_555 1_555
C79 C78 1_555 1_555
H65 C79 1_555 1_555
C80 C79 1_555 1_555
H66 C80 1_555 1_555
N2 C80 1_555 1_555
C81 N2 1_555 1_555
H67 C81 1_555 1_555
C82 C78 1_555 1_555
H68 C82 1_555 1_555
N3 Re6 1_555 1_555
C83 N3 1_555 1_555
H69 C83 1_555 1_555
C84 C83 1_555 1_555
H70 C84 1_555 1_555
C85 C84 1_555 1_555
C86 C85 1_555 1_555
H71 C86 1_555 1_555
C87 N3 1_555 1_555
H72 C87 1_555 1_555
C88 C85 1_555 1_555
C89 C88 1_555 1_555
H73 C89 1_555 1_555
C90 C89 1_555 1_555
H74 C90 1_555 1_555
N4 C90 1_555 1_555
C91 N4 1_555 1_555
H75 C91 1_555 1_555
C92 C88 1_555 1_555
H76 C92 1_555 1_555
N5 O1 1_555 1_555
O2 Cd1 1_555 1_555
O3 Cd1 1_555 1_555
N6 O4 1_555 1_555
O5 Cd1 1_555 1_555
O6 Cd1 1_555 1_555
N7 O7 1_555 1_555
O8 Cd1 1_555 1_555
O9 Cd1 1_555 1_555
N8 O10 1_555 1_555
O11 N8 1_555 1_555
O12 N8 1_555 1_555
N4_2 Cd1 1_555 1_555
Cd1_2 N4 1_555 1_555
Re2 Se4 1_555 1_555
Re2 Se5 1_555 1_555
Re2 Re5 1_555 1_555
Re2 Re6 1_555 1_555
Re3 Se3 1_555 1_555
Re3 Se6 1_555 1_555
Re3 Re5 1_555 1_555
Re3 Re6 1_555 1_555
Re4 Se1 1_555 1_555
Re4 Se2 1_555 1_555
Re4 Se7 1_555 1_555
Re4 Se8 1_555 1_555
Re4 Re5 1_555 1_555
Re4 Re6 1_555 1_555
Re5 Se3 1_555 1_555
Re5 Se4 1_555 1_555
Re5 Se1 1_555 1_555
Re5 Se8 1_555 1_555
Re6 Se5 1_555 1_555
Re6 Se6 1_555 1_555
Re6 Se2 1_555 1_555
Re6 Se7 1_555 1_555
C5 C6 1_555 1_555
C11 C12 1_555 1_555
C17 C18 1_555 1_555
C23 C24 1_555 1_555
C29 C30 1_555 1_555
C35 C36 1_555 1_555
C41 C42 1_555 1_555
C47 C48 1_555 1_555
C53 C54 1_555 1_555
C59 C60 1_555 1_555
C65 C66 1_555 1_555
C71 C72 1_555 1_555
C76 C77 1_555 1_555
C81 C82 1_555 1_555
C86 C87 1_555 1_555
C91 C92 1_555 1_555
N5 O2 1_555 1_555
N5 O3 1_555 1_555
N6 O5 1_555 1_555
N6 O6 1_555 1_555
N7 O8 1_555 1_555
N7 O9 1_555 1_555

#END
