
#######################################################################
#
#                 Cambridge Crystallographic Data Centre
#                                CCDC 
#
#######################################################################
#
# If this CIF has been generated from an entry in the Cambridge 
# Structural Database, then it will include bibliographic, chemical, 
# crystal, experimental, refinement or atomic coordinate data resulting 
# from the CCDC's data processing and validation procedures.
#
#######################################################################

data_HADVUE
_symmetry_cell_setting           monoclinic
_symmetry_space_group_name_H-M   'P 21'
_symmetry_Int_Tables_number      4
_space_group_name_Hall           'P 2yb'
loop_
_symmetry_equiv_pos_site_id
_symmetry_equiv_pos_as_xyz
1 x,y,z
2 -x,1/2+y,-z
_cell_length_a                   9.0644(2)
_cell_length_b                   6.5493(2)
_cell_length_c                   10.4485(3)
_cell_angle_alpha                90
_cell_angle_beta                 96.527(2)
_cell_angle_gamma                90
_cell_volume                     616.26
loop_
_atom_site_label
_atom_site_type_symbol
_atom_site_fract_x
_atom_site_fract_y
_atom_site_fract_z
Cu1 Cu 0.94286(6) 0.14681(5) 0.41180(5)
O1 O 1.1170(3) 0.1453(11) 0.3157(3)
O2 O 1.1779(4) 0.1379(13) 0.1151(4)
O3 O 0.9594(4) 0.4960(6) 0.4372(3)
O4 O 0.8961(6) 0.7730(7) 0.3226(5)
N1 N 0.8317(4) 0.2363(7) 0.2385(3)
N2 N 0.7385(3) 0.1513(10) 0.4663(3)
C1 C 0.6842(4) 0.1428(12) 0.2349(4)
C2 C 0.6305(4) 0.1509(11) 0.3657(3)
C3 C 0.4826(5) 0.1553(13) 0.3829(4)
C4 C 0.4434(5) 0.1609(13) 0.5070(5)
C5 C 0.5529(5) 0.1558(16) 0.6097(4)
C6 C 0.6996(5) 0.1554(13) 0.5863(4)
C7 C 0.9232(5) 0.1554(14) 0.1412(4)
C8 C 1.0864(4) 0.1481(13) 0.1946(4)
C9 C 0.8155(6) 0.4637(8) 0.2318(5)
C10 C 0.8961(6) 0.5867(9) 0.3364(5)
H1 H 0.608(6) 0.188(10) 0.170(5)
H2 H 0.705(7) 0.011(11) 0.209(6)
H3 H 0.415(6) 0.125(13) 0.314(5)
H4 H 0.339(6) 0.203(9) 0.519(5)
H5 H 0.530(6) 0.181(11) 0.697(5)
H6 H 0.783(4) 0.182(7) 0.657(4)
H7 H 0.893(7) 0.033(11) 0.123(6)
H8 H 0.902(6) 0.244(10) 0.061(6)
H9 H 0.859(7) 0.517(12) 0.144(7)
H10 H 0.684(8) 0.501(13) 0.235(7)
O3A O 1.0406(4) -0.0040(6) 0.5628(3)
Cu1A Cu 1.05714(6) 0.64681(5) 0.58820(5)
O5 O 0.3862(10) -0.1673(12) 0.0834(7)
H11 H 0.323(9) -0.118(16) 0.070(9)
H12 H 0.426(8) -0.099(12) 0.045(8)
O6 O 0.3966(10) -0.5840(12) 0.0670(10)
H13 H 0.380(7) -0.500(9) 0.079(6)
H14 H 0.328(8) -0.674(15) 0.103(7)
loop_
_geom_bond_atom_site_label_1
_geom_bond_atom_site_label_2
_geom_bond_site_symmetry_1
_geom_bond_site_symmetry_2
Cu1 O1 1_555 1_555
O1 C8 1_555 1_555
O2 C8 1_555 1_555
O3 Cu1 1_555 1_555
O4 C10 1_555 1_555
N1 Cu1 1_555 1_555
N2 Cu1 1_555 1_555
C1 N1 1_555 1_555
C2 N2 1_555 1_555
C3 C2 1_555 1_555
C4 C3 1_555 1_555
C5 C4 1_555 1_555
C6 N2 1_555 1_555
C7 N1 1_555 1_555
C8 C7 1_555 1_555
C9 N1 1_555 1_555
C10 O3 1_555 1_555
H1 C1 1_555 1_555
H2 C1 1_555 1_555
H3 C3 1_555 1_555
H4 C4 1_555 1_555
H5 C5 1_555 1_555
H6 C6 1_555 1_555
H7 C7 1_555 1_555
H8 C7 1_555 1_555
H9 C9 1_555 1_555
H10 C9 1_555 1_555
O5 H11 1_555 1_555
H12 O5 1_555 1_555
O6 H13 1_555 1_555
H14 O6 1_555 1_555
O3A Cu1 1_555 1_555
Cu1A O3 1_555 1_555
C1 C2 1_555 1_555
C5 C6 1_555 1_555
C9 C10 1_555 1_555

#END
