
#######################################################################
#
#                 Cambridge Crystallographic Data Centre
#                                CCDC 
#
#######################################################################
#
# If this CIF has been generated from an entry in the Cambridge 
# Structural Database, then it will include bibliographic, chemical, 
# crystal, experimental, refinement or atomic coordinate data resulting 
# from the CCDC's data processing and validation procedures.
#
#######################################################################

data_HADYAN
_symmetry_cell_setting           monoclinic
_symmetry_space_group_name_H-M   'P 21/c'
_symmetry_Int_Tables_number      14
_space_group_name_Hall           '-P 2ybc'
loop_
_symmetry_equiv_pos_site_id
_symmetry_equiv_pos_as_xyz
1 x,y,z
2 x,1/2-y,1/2+z
3 -x,-y,-z
4 -x,1/2+y,1/2-z
_cell_length_a                   13.641(6)
_cell_length_b                   8.579(4)
_cell_length_c                   16.480(7)
_cell_angle_alpha                90
_cell_angle_beta                 107.818(8)
_cell_angle_gamma                90
_cell_volume                     1836.08
loop_
_atom_site_label
_atom_site_type_symbol
_atom_site_fract_x
_atom_site_fract_y
_atom_site_fract_z
Ag1 Ag 0.87671(6) 1.02680(10) 0.01418(6)
Ag2 Ag 0.38928(6) 0.46875(10) -0.54755(5)
O1 O 0.3025(6) 0.5935(9) -0.6867(5)
O2 O 0.3516(8) 0.7852(9) -0.7512(6)
O3 O 0.4555(7) 0.6847(11) -0.6393(5)
O4 O 0.7822(6) 0.8177(11) 0.0593(5)
O5 O 0.9269(7) 0.7152(10) 0.0813(6)
O6 O 0.7998(8) 0.5757(12) 0.0845(6)
C1 C 1.0736(9) 0.7250(13) -0.2030(7)
H1 H 1.1354 0.7705 -0.1659
H2 H 1.0790 0.6135 -0.1999
H3 H 1.0644 0.7583 -0.2605
C2 C 0.9832(7) 0.7763(12) -0.1761(6)
C3 C 0.8158(7) 0.8219(11) -0.1631(6)
C4 C 0.6185(7) 0.7604(11) -0.2654(6)
H4 H 0.5487 0.7360 -0.2665
H5 H 0.6503 0.6647 -0.2761
C5 C 0.6148(7) 0.8768(10) -0.3366(5)
H6 H 0.5800 0.9706 -0.3272
H7 H 0.6846 0.9051 -0.3336
C6 C 0.4207(7) 0.7936(10) -0.4399(5)
C7 C 0.2497(7) 0.8392(12) -0.4335(6)
C8 C 0.1516(7) 0.8885(11) -0.4192(7)
H8 H 0.1000 0.8102 -0.4411
H9 H 0.1291 0.9853 -0.4481
H10 H 0.1624 0.9017 -0.3593
N1 N 0.8898(6) 0.8976(9) -0.1066(5)
N2 N 0.9848(6) 0.8712(10) -0.1163(6)
N3 N 0.3589(6) 0.6760(8) -0.4720(5)
N4 N 0.2607(5) 0.7023(9) -0.4682(5)
N5 N 0.3677(9) 0.6882(12) -0.6926(7)
N6 N 0.8371(8) 0.7045(12) 0.0720(6)
S1 S 0.54904(17) 0.8026(3) -0.44316(15)
S2 S 0.36269(19) 0.9443(3) -0.40533(17)
S3 S 0.6893(2) 0.8318(3) -0.16018(16)
S4 S 0.8607(2) 0.7112(3) -0.23206(18)
N2B N 1.0152(6) 1.1288(10) 0.1163(6)
N4C N 0.7393(5) 1.2023(9) -0.0318(5)
S1B S 0.45096(17) 0.1974(3) -0.55684(15)
Ag1B Ag 1.12329(6) 0.97320(10) -0.01418(6)
Ag1C Ag 0.12329(6) 0.52680(10) -0.51418(6)
Ag2B Ag 0.61072(6) 0.53125(10) -0.45245(5)
loop_
_geom_bond_atom_site_label_1
_geom_bond_atom_site_label_2
_geom_bond_site_symmetry_1
_geom_bond_site_symmetry_2
Ag1 O4 1_555 1_555
Ag2 O1 1_555 1_555
O1 N5 1_555 1_555
O2 N5 1_555 1_555
O3 N5 1_555 1_555
O4 N6 1_555 1_555
O5 N6 1_555 1_555
O6 N6 1_555 1_555
C1 H1 1_555 1_555
H2 C1 1_555 1_555
H3 C1 1_555 1_555
C2 C1 1_555 1_555
C3 N1 1_555 1_555
C4 H4 1_555 1_555
H5 C4 1_555 1_555
C5 C4 1_555 1_555
H6 C5 1_555 1_555
H7 C5 1_555 1_555
C6 N3 1_555 1_555
C7 C8 1_555 1_555
C8 H8 1_555 1_555
H9 C8 1_555 1_555
H10 C8 1_555 1_555
N1 Ag1 1_555 1_555
N2 C2 1_555 1_555
N3 Ag2 1_555 1_555
N4 C7 1_555 1_555
S1 C5 1_555 1_555
S2 C6 1_555 1_555
S3 C3 1_555 1_555
S4 C2 1_555 1_555
N2B Ag1 1_555 1_555
N4C Ag1 1_555 1_555
S1B Ag2 1_555 1_555
Ag1B N2 1_555 1_555
Ag1C N4 1_555 1_555
Ag2B S1 1_555 1_555
C3 S4 1_555 1_555
C4 S3 1_555 1_555
C6 S1 1_555 1_555
C7 S2 1_555 1_555
N1 N2 1_555 1_555
N3 N4 1_555 1_555

#END
