
#######################################################################
#
#                 Cambridge Crystallographic Data Centre
#                                CCDC 
#
#######################################################################
#
# If this CIF has been generated from an entry in the Cambridge 
# Structural Database, then it will include bibliographic, chemical, 
# crystal, experimental, refinement or atomic coordinate data resulting 
# from the CCDC's data processing and validation procedures.
#
#######################################################################

data_HAFFAW
_symmetry_cell_setting           triclinic
_symmetry_space_group_name_H-M   'P -1'
_symmetry_Int_Tables_number      2
_space_group_name_Hall           '-P 1'
loop_
_symmetry_equiv_pos_site_id
_symmetry_equiv_pos_as_xyz
1 x,y,z
2 -x,-y,-z
_cell_length_a                   10.020(8)
_cell_length_b                   10.573(8)
_cell_length_c                   12.888(10)
_cell_angle_alpha                113.582(14)
_cell_angle_beta                 93.966(15)
_cell_angle_gamma                110.037(14)
_cell_volume                     1141.38
loop_
_atom_site_label
_atom_site_type_symbol
_atom_site_fract_x
_atom_site_fract_y
_atom_site_fract_z
Mn1 Mn 0.37748(17) 0.27657(17) 0.31302(12)
N1 N 0.1353(8) 0.1704(10) 0.2112(6)
N2 N 0.2974(9) 0.0225(9) 0.2307(6)
N3 N 0.1201(11) -0.2034(11) 0.1326(7)
O1 O -0.0026(10) -0.3058(10) 0.0751(9)
O2 O 0.3018(7) 0.2773(7) 0.4627(5)
O3 O 0.3837(7) 0.2730(8) 0.6242(6)
O4 O 0.6050(6) 0.3445(7) 0.3842(5)
O5 O 0.7146(7) 0.3976(8) 0.2556(5)
O6 O 0.3843(6) 0.5002(6) 0.3721(5)
O7 O 0.4381(7) 0.2752(8) 0.1484(5)
C1 C 0.0569(11) 0.2464(11) 0.2075(7)
H1 H 0.1026 0.3512 0.2425
C2 C -0.0875(13) 0.1791(15) 0.1550(9)
H2 H -0.1380 0.2375 0.1526
C3 C -0.1570(12) 0.0306(15) 0.1072(8)
H3 H -0.2572 -0.0156 0.0747
C4 C -0.0781(12) -0.0564(12) 0.1061(8)
H4 H -0.1222 -0.1613 0.0688
C5 C 0.0681(11) 0.0210(12) 0.1629(8)
C6 C 0.1629(11) -0.0555(11) 0.1750(8)
C7 C 0.2453(12) -0.2383(12) 0.1542(10)
C8 C 0.3679(12) -0.0805(12) 0.2310(9)
C9 C 0.2044(16) -0.3438(17) 0.2033(12)
H5 H 0.1298 -0.4382 0.1461
H6 H 0.1677 -0.3036 0.2705
H7 H 0.2885 -0.3594 0.2258
C10 C 0.2729(15) -0.3252(16) 0.0362(10)
H8 H 0.1936 -0.4229 -0.0051
H9 H 0.3628 -0.3366 0.0486
H10 H 0.2797 -0.2704 -0.0086
C11 C 0.4099(16) -0.0459(14) 0.3540(10)
H11 H 0.3236 -0.0697 0.3830
H12 H 0.4718 0.0595 0.3989
H13 H 0.4616 -0.1049 0.3604
C12 C 0.5003(15) -0.0447(14) 0.1774(15)
H14 H 0.5716 0.0555 0.2280
H15 H 0.4688 -0.0511 0.1027
H16 H 0.5429 -0.1160 0.1681
C13 C 0.2841(11) 0.2291(11) 0.5383(9)
C14 C 0.1367(11) 0.1107(10) 0.5185(8)
C15 C 0.0172(11) 0.0894(11) 0.4437(8)
H17 H 0.0281 0.1513 0.4072
C16 C 0.1174(10) 0.0212(11) 0.5778(8)
H18 H 0.1960 0.0373 0.6314
C17 C 0.7166(10) 0.3940(11) 0.3486(10)
C18 C 0.8623(10) 0.4490(11) 0.4294(8)
C19 C 0.8772(10) 0.3976(11) 0.5111(9)
H19 H 0.7950 0.3296 0.5186
C20 C 0.9843(10) 0.5529(11) 0.4166(8)
H20 H 0.9742 0.5881 0.3622
C16A C -0.1174(10) -0.0212(11) 0.4222(8)
C14A C -0.1367(11) -0.1107(10) 0.4815(8)
C13A C -0.2841(11) -0.2291(11) 0.4617(9)
O2A O -0.3018(7) -0.2773(7) 0.5373(5)
O3A O -0.3837(7) -0.2730(8) 0.3758(6)
C15A C -0.0172(11) -0.0894(11) 0.5563(8)
H17A H -0.0281 -0.1513 0.5928
H18A H -0.1960 -0.0373 0.3686
C20A C 1.0157(10) 0.4471(11) 0.5834(8)
C18A C 1.1377(10) 0.5510(11) 0.5706(8)
C17A C 1.2834(10) 0.6060(11) 0.6514(10)
O4A O 1.3950(6) 0.6555(7) 0.6158(5)
O5A O 1.2854(7) 0.6024(8) 0.7444(5)
C19A C 1.1228(10) 0.6024(11) 0.4889(9)
H19A H 1.2050 0.6704 0.4814
H20A H 1.0258 0.4119 0.6378
Mn1A Mn -0.37748(17) -0.27657(17) 0.68698(12)
N1A N -0.1353(8) -0.1704(10) 0.7888(6)
N2A N -0.2974(9) -0.0225(9) 0.7693(6)
N3A N -0.1201(11) 0.2034(11) 0.8674(7)
O1A O 0.0026(10) 0.3058(10) 0.9249(9)
C1A C -0.0569(11) -0.2464(11) 0.7925(7)
H1A H -0.1026 -0.3512 0.7575
C2A C 0.0875(13) -0.1791(15) 0.8450(9)
H2A H 0.1380 -0.2375 0.8474
C3A C 0.1570(12) -0.0306(15) 0.8928(8)
H3A H 0.2572 0.0156 0.9253
C4A C 0.0781(12) 0.0564(12) 0.8939(8)
H4A H 0.1222 0.1613 0.9312
C5A C -0.0681(11) -0.0210(12) 0.8371(8)
C6A C -0.1629(11) 0.0555(11) 0.8250(8)
C7A C -0.2453(12) 0.2383(12) 0.8458(10)
C8A C -0.3679(12) 0.0805(12) 0.7690(9)
C9A C -0.2044(16) 0.3438(17) 0.7967(12)
H5A H -0.1298 0.4382 0.8539
H6A H -0.1677 0.3036 0.7295
H7A H -0.2885 0.3594 0.7742
C10A C -0.2729(15) 0.3252(16) 0.9638(10)
H8A H -0.1936 0.4229 1.0051
H9A H -0.3628 0.3366 0.9514
H10A H -0.2797 0.2704 1.0086
C11A C -0.4099(16) 0.0459(14) 0.6460(10)
H11A H -0.3236 0.0697 0.6170
H12A H -0.4718 -0.0595 0.6011
H13A H -0.4616 0.1049 0.6396
C12A C -0.5003(15) 0.0447(14) 0.8226(15)
H14A H -0.5716 -0.0555 0.7720
H15A H -0.4688 0.0511 0.8973
H16A H -0.5429 0.1160 0.8319
O6A O -0.3843(6) -0.5002(6) 0.6279(5)
O7A O -0.4381(7) -0.2752(8) 0.8516(5)
Mn1A_2 Mn 1.62252(17) 0.72343(17) 0.68698(12)
O4A_2 O -0.6050(6) -0.3445(7) 0.6158(5)
O8 O 0.3234(11) 0.3687(10) 0.8357(7)
O9 O 0.5993(17) 0.5939(18) 0.9676(12)
loop_
_geom_bond_atom_site_label_1
_geom_bond_atom_site_label_2
_geom_bond_site_symmetry_1
_geom_bond_site_symmetry_2
Mn1 N1 1_555 1_555
N1 C1 1_555 1_555
N2 Mn1 1_555 1_555
N3 O1 1_555 1_555
O2 Mn1 1_555 1_555
O3 C13 1_555 1_555
O4 Mn1 1_555 1_555
O5 C17 1_555 1_555
O6 Mn1 1_555 1_555
O7 Mn1 1_555 1_555
C1 H1 1_555 1_555
C2 C1 1_555 1_555
H2 C2 1_555 1_555
C3 C2 1_555 1_555
H3 C3 1_555 1_555
C4 C3 1_555 1_555
H4 C4 1_555 1_555
C5 N1 1_555 1_555
C6 N2 1_555 1_555
C7 N3 1_555 1_555
C8 N2 1_555 1_555
C9 C7 1_555 1_555
H5 C9 1_555 1_555
H6 C9 1_555 1_555
H7 C9 1_555 1_555
C10 C7 1_555 1_555
H8 C10 1_555 1_555
H9 C10 1_555 1_555
H10 C10 1_555 1_555
C11 C8 1_555 1_555
H11 C11 1_555 1_555
H12 C11 1_555 1_555
H13 C11 1_555 1_555
C12 C8 1_555 1_555
H14 C12 1_555 1_555
H15 C12 1_555 1_555
H16 C12 1_555 1_555
C13 O2 1_555 1_555
C14 C13 1_555 1_555
C15 C14 1_555 1_555
H17 C15 1_555 1_555
C16 C14 1_555 1_555
H18 C16 1_555 1_555
C17 O4 1_555 1_555
C18 C17 1_555 1_555
C19 C18 1_555 1_555
H19 C19 1_555 1_555
C20 C18 1_555 1_555
H20 C20 1_555 1_555
C16A C15 1_555 1_555
C14A C16A 1_555 1_555
C13A C14A 1_555 1_555
O2A C13A 1_555 1_555
O3A C13A 1_555 1_555
C15A C16 1_555 1_555
H17A C15A 1_555 1_555
H18A C16A 1_555 1_555
C20A C19 1_555 1_555
C18A C20A 1_555 1_555
C17A C18A 1_555 1_555
O4A C17A 1_555 1_555
O5A C17A 1_555 1_555
C19A C20 1_555 1_555
H19A C19A 1_555 1_555
H20A C20A 1_555 1_555
Mn1A O2A 1_555 1_555
N1A Mn1A 1_555 1_555
N2A Mn1A 1_555 1_555
N3A O1A 1_555 1_555
C1A N1A 1_555 1_555
H1A C1A 1_555 1_555
C2A C1A 1_555 1_555
H2A C2A 1_555 1_555
C3A C2A 1_555 1_555
H3A C3A 1_555 1_555
C4A C3A 1_555 1_555
H4A C4A 1_555 1_555
C5A N1A 1_555 1_555
C6A N2A 1_555 1_555
C7A N3A 1_555 1_555
C8A N2A 1_555 1_555
C9A C7A 1_555 1_555
H5A C9A 1_555 1_555
H6A C9A 1_555 1_555
H7A C9A 1_555 1_555
C10A C7A 1_555 1_555
H8A C10A 1_555 1_555
H9A C10A 1_555 1_555
H10A C10A 1_555 1_555
C11A C8A 1_555 1_555
H11A C11A 1_555 1_555
H12A C11A 1_555 1_555
H13A C11A 1_555 1_555
C12A C8A 1_555 1_555
H14A C12A 1_555 1_555
H15A C12A 1_555 1_555
H16A C12A 1_555 1_555
O6A Mn1A 1_555 1_555
O7A Mn1A 1_555 1_555
Mn1A_2 O4A 1_555 1_555
O4A_2 Mn1A 1_555 1_555
N3 C6 1_555 1_555
C4 C5 1_555 1_555
C5 C6 1_555 1_555
C7 C8 1_555 1_555
C14A C15A 1_555 1_555
C18A C19A 1_555 1_555
N3A C6A 1_555 1_555
C4A C5A 1_555 1_555
C5A C6A 1_555 1_555
C7A C8A 1_555 1_555

#END
