
#######################################################################
#
#                 Cambridge Crystallographic Data Centre
#                                CCDC 
#
#######################################################################
#
# If this CIF has been generated from an entry in the Cambridge 
# Structural Database, then it will include bibliographic, chemical, 
# crystal, experimental, refinement or atomic coordinate data resulting 
# from the CCDC's data processing and validation procedures.
#
#######################################################################

data_HAFLAD
_symmetry_cell_setting           monoclinic
_symmetry_space_group_name_H-M   'P 21/m'
_symmetry_Int_Tables_number      11
_space_group_name_Hall           '-P 2yb'
loop_
_symmetry_equiv_pos_site_id
_symmetry_equiv_pos_as_xyz
1 x,y,z
2 -x,1/2+y,-z
3 -x,-y,-z
4 x,1/2-y,z
_cell_length_a                   6.904(1)
_cell_length_b                   6.828(1)
_cell_length_c                   10.952(2)
_cell_angle_alpha                90
_cell_angle_beta                 94.50(2)
_cell_angle_gamma                90
_cell_volume                     514.691
loop_
_atom_site_label
_atom_site_type_symbol
_atom_site_fract_x
_atom_site_fract_y
_atom_site_fract_z
C1 C 0.5731(6) 0.7500 0.3628(4)
N1 N 0.6031(5) 0.750000(9) 0.4870(4)
N2 N 0.5541(4) 0.5882(4) 0.2937(3)
N3 N 0.5212(4) 0.6545(4) 0.1786(2)
H6 H 0.6514 0.8507 0.5237
N2C N 0.5541(4) 0.9118(4) 0.2937(3)
N3C N 0.5212(4) 0.8455(4) 0.1786(2)
H6C H 0.6514 0.6493 0.5237
O1 O 1.3034(4) 0.250000(5) 0.2319(3)
O2 O 0.8029(4) 0.250000(9) 0.2694(3)
O3 O 0.7703(3) 0.0059(3) 0.00454(19)
C2 C 1.0680(8) 0.6506(8) 0.3302(8)
N4 N 1.0846(5) 0.5315(5) 0.4286(4)
N5 N 1.0666(7) 0.8467(7) 0.3301(7)
N6 N 1.0375(4) 0.5916(4) 0.2137(2)
N7 N 1.0197(5) 0.7500 0.1431(3)
Ca1 Ca 1.01520(13) 0.2500 0.09895(9)
H1 H 0.7046 -0.0404 0.0578
H2 H 0.6968 0.0491 -0.0531
H3 H 0.7368 0.1566 0.2860
H4 H 1.0864 0.5962 0.5038
H5 H 0.9942 0.4326 0.4238
H7 H 1.4153 0.2500 0.2303
H8 H 1.2907 0.2500 0.3050
O3A O 1.2297(3) 0.5059(3) -0.00454(19)
O3B O 1.2297(3) -0.0059(3) -0.00454(19)
O3C O 0.7703(3) 0.4941(3) 0.00454(19)
N4C N 1.0846(5) 0.9685(5) 0.4286(4)
N6C N 1.0375(4) 0.9084(4) 0.2137(2)
N6C_2 N 1.0375(4) -0.0916(4) 0.2137(2)
N7A N 0.9803(5) 0.2500 -0.1431(3)
Ca1A Ca 0.98480(13) -0.2500 -0.09895(9)
Ca1A_2 Ca 0.98480(13) 0.7500 -0.09895(9)
Ca1_2 Ca 1.01520(13) 1.2500 0.09895(9)
H1A H 1.2954 0.4596 -0.0578
H1B H 1.2954 0.0404 -0.0578
H1C H 0.7046 0.5404 0.0578
H2A H 1.3032 0.5491 0.0531
H2B H 1.3032 -0.0491 0.0531
H2C H 0.6968 0.4509 -0.0531
H3C H 0.7368 0.3434 0.2860
H4C H 1.0864 0.9038 0.5038
H5C H 0.9942 1.0674 0.4238
loop_
_geom_bond_atom_site_label_1
_geom_bond_atom_site_label_2
_geom_bond_site_symmetry_1
_geom_bond_site_symmetry_2
O1 Ca1 1_555 1_555
O2 Ca1 1_555 1_555
O3 Ca1 1_555 1_555
C1 N1 1_555 1_555
C2 N4 1_555 1_555
N1 H6 1_555 1_555
N2 C1 1_555 1_555
N3 N2 1_555 1_555
N4 H4 1_555 1_555
N5 C2 1_555 1_555
N6 C2 1_555 1_555
N7 N6 1_555 1_555
Ca1 N6 1_555 1_555
H1 O3 1_555 1_555
H2 O3 1_555 1_555
H3 O2 1_555 1_555
H5 N4 1_555 1_555
H7 O1 1_555 1_555
H8 O1 1_555 1_555
O3A Ca1 1_555 1_555
O3B Ca1 1_555 1_555
O3C Ca1 1_555 1_555
N2C C1 1_555 1_555
N3C N3 1_555 1_555
N4C N5 1_555 1_555
N6C N5 1_555 1_555
N6C_2 Ca1 1_555 1_555
N7A Ca1 1_555 1_555
Ca1A O3 1_555 1_555
Ca1A_2 N7 1_555 1_555
Ca1_2 N6C 1_555 1_555
H1A O3A 1_555 1_555
H1B O3B 1_555 1_555
H1C O3C 1_555 1_555
H2A O3A 1_555 1_555
H2B O3B 1_555 1_555
H2C O3C 1_555 1_555
H3C O2 1_555 1_555
H4C N4C 1_555 1_555
H5C N4C 1_555 1_555
H6C N1 1_555 1_555
N7 N6C 1_555 1_555
O3A Ca1A_2 1_555 1_555
O3B Ca1A 1_555 1_555
O3C Ca1A_2 1_555 1_555
N2C N3C 1_555 1_555

#END
