
#######################################################################
#
#                 Cambridge Crystallographic Data Centre
#                                CCDC 
#
#######################################################################
#
# If this CIF has been generated from an entry in the Cambridge 
# Structural Database, then it will include bibliographic, chemical, 
# crystal, experimental, refinement or atomic coordinate data resulting 
# from the CCDC's data processing and validation procedures.
#
#######################################################################

data_HAFWAO
_symmetry_cell_setting           tetragonal
_symmetry_space_group_name_H-M   'I -4 2 d'
_symmetry_Int_Tables_number      122
_space_group_name_Hall           'I -4 2bw'
loop_
_symmetry_equiv_pos_site_id
_symmetry_equiv_pos_as_xyz
1 x,y,z
2 -x,-y,z
3 y,-x,-z
4 -y,x,-z
5 1/2-x,y,3/4-z
6 1/2+x,-y,3/4-z
7 1/2-y,-x,3/4+z
8 1/2+y,x,3/4+z
9 1/2+x,1/2+y,1/2+z
10 1/2-x,1/2-y,1/2+z
11 1/2+y,1/2-x,1/2-z
12 1/2-y,1/2+x,1/2-z
13 -x,1/2+y,1/4-z
14 x,1/2-y,1/4-z
15 -y,1/2-x,1/4+z
16 y,1/2+x,1/4+z
_cell_length_a                   22.467(2)
_cell_length_b                   22.467(2)
_cell_length_c                   29.858(3)
_cell_angle_alpha                90
_cell_angle_beta                 90
_cell_angle_gamma                90
_cell_volume                     15071.3
loop_
_atom_site_label
_atom_site_type_symbol
_atom_site_fract_x
_atom_site_fract_y
_atom_site_fract_z
Zn1 Zn 0.69055(5) 0.22981(5) -0.00393(3)
C1 C 0.7107(5) 0.1191(5) -0.0467(3)
C2 C 0.7323(6) 0.0841(5) -0.0872(3)
C3 C 0.7308(5) 0.0237(4) -0.0876(3)
H1 H 0.7167 0.0033 -0.0626
C4 C 0.7500 -0.0082(6) -0.1250
C5 C 0.7500 -0.0738(7) -0.1250
C6 C 0.7615(6) -0.1072(5) -0.0857(3)
H2 H 0.7706 -0.0871 -0.0593
C7 C 0.7597(5) -0.1675(5) -0.0854(3)
C8 C 0.7710(6) -0.2020(5) -0.0428(3)
C9 C 0.7500 0.1160(6) -0.1250
H3 H 0.7500 0.1574 -0.1250
C10 C 0.7500 -0.1990(7) -0.1250
H4 H 0.7500 -0.2404 -0.1250
C11 C 0.5116(5) 0.2422(6) 0.0287(3)
C12 C 0.4606(4) 0.2599(5) 0.0070(3)
H5 H 0.4608 0.2645 -0.0239
C13 C 0.4093(4) 0.2710(6) 0.0306(3)
C14 C 0.4108(5) 0.2682(5) 0.0774(3)
H6 H 0.3765 0.2773 0.0935
C15 C 0.4602(4) 0.2529(5) 0.0997(3)
C16 C 0.5106(5) 0.2399(5) 0.0757(3)
H7 H 0.5451 0.2292 0.0909
C17 C 0.5698(5) 0.2325(5) 0.0041(3)
C18 C 0.3543(4) 0.2890(7) 0.0067(4)
O1 O 0.7050(3) 0.1754(3) -0.0530(2)
O2 O 0.7020(4) 0.0924(3) -0.0109(2)
O3 O 0.7658(6) -0.1762(3) -0.0062(2)
O4 O 0.7827(3) -0.2559(3) -0.0469(2)
O5 O 0.6148(3) 0.2179(4) 0.0271(2)
O6 O 0.5715(4) 0.2416(5) -0.0370(2)
O7 O 0.3089(3) 0.2971(3) 0.0304(2)
O8 O 0.3542(4) 0.2910(7) -0.0356(3)
Zn1D Zn 0.80945(5) 0.22981(5) -0.24607(3)
Zn1C Zn 0.77019(5) -0.30945(5) 0.00393(3)
Zn1B Zn 0.22981(5) 0.30945(5) 0.00393(3)
Zn1G Zn 0.72981(5) -0.30945(5) -0.25393(3)
Zn1M Zn 0.69055(5) 0.27019(5) 0.25393(3)
Zn1O Zn 0.22981(5) 0.19055(5) 0.24607(3)
C1D C 0.7893(5) 0.1191(5) -0.2033(3)
C2D C 0.7677(6) 0.0841(5) -0.1628(3)
C3D C 0.7692(5) 0.0237(4) -0.1624(3)
H1D H 0.7833 0.0033 -0.1874
C6D C 0.7385(6) -0.1072(5) -0.1643(3)
H2D H 0.7294 -0.0871 -0.1907
C7D C 0.7403(5) -0.1675(5) -0.1646(3)
C8D C 0.7290(6) -0.2020(5) -0.2072(3)
C11M C 0.5116(5) 0.2578(6) 0.2213(3)
C12M C 0.4606(4) 0.2401(5) 0.2430(3)
H5M H 0.4608 0.2355 0.2739
C13M C 0.4093(4) 0.2290(6) 0.2194(3)
C14M C 0.4108(5) 0.2318(5) 0.1726(3)
H6M H 0.3765 0.2227 0.1565
C15M C 0.4602(4) 0.2471(5) 0.1503(3)
C16M C 0.5106(5) 0.2601(5) 0.1743(3)
H7M H 0.5451 0.2708 0.1591
C17M C 0.5698(5) 0.2675(5) 0.2459(3)
C18M C 0.3543(4) 0.2110(7) 0.2433(4)
O1D O 0.7950(3) 0.1754(3) -0.1970(2)
O2D O 0.7980(4) 0.0924(3) -0.2391(2)
O3D O 0.7342(6) -0.1762(3) -0.2438(2)
O4D O 0.7173(3) -0.2559(3) -0.2031(2)
O4B O 0.7441(3) 0.2173(3) 0.0469(2)
O4F O 0.7559(3) 0.2173(3) -0.2969(2)
O5M O 0.6148(3) 0.2821(4) 0.2229(2)
O5D O 0.8852(3) 0.2179(4) -0.2771(2)
O6M O 0.5715(4) 0.2584(5) 0.2870(2)
O7M O 0.3089(3) 0.2029(3) 0.2196(2)
O7C O 0.7029(3) 0.3089(3) -0.0304(2)
O7G O 0.7971(3) 0.3089(3) -0.2196(2)
O8M O 0.3542(4) 0.2090(7) 0.2856(3)
O9 O 0.6444(4) 0.3077(4) 0.1034(3)
O10 O 0.7504(7) -0.0146(6) 0.0223(3)
O11 O 0.5486(7) 0.3127(9) -0.1087(5)
N1 N 0.6767(5) 0.1139(5) 0.0798(3)
H8 H 0.6663 0.1496 0.0911
H9 H 0.6865 0.1192 0.0508
C19 C 0.7310(7) 0.0907(7) 0.1051(4)
H12 H 0.7634 0.1183 0.1018
H13 H 0.7424 0.0527 0.0933
H14 H 0.7214 0.0867 0.1363
C20 C 0.6244(7) 0.0728(8) 0.0825(5)
H15 H 0.5916 0.0895 0.0661
H16 H 0.6132 0.0676 0.1132
H17 H 0.6349 0.0350 0.0698
N2 N 0.4820(14) 0.0965(12) -0.0367(11)
H10 H 0.4749 0.1355 -0.0411
H11 H 0.4590 0.0756 -0.0558
C21 C 0.4667(17) 0.0794(14) 0.0120(12)
H18 H 0.4254 0.0871 0.0175
H19 H 0.4906 0.1025 0.0322
H20 H 0.4747 0.0378 0.0165
C22 C 0.5485(16) 0.0826(14) -0.0456(14)
H21 H 0.5581 0.0923 -0.0760
H22 H 0.5558 0.0411 -0.0404
H23 H 0.5727 0.1059 -0.0257
O12 O 0.8892(14) -0.1123(15) -0.0010(12)
O13 O 0.5000 0.0000 0.1066(11)
O14 O 0.8684(11) 0.0046(10) 0.0389(6)
C23? C 0.8210(8) 0.2729(13) -0.0961(7)
C24? C 0.8885(12) 0.1898(10) -0.0998(8)
H24? H 0.8141 0.3124 -0.0849
H25? H 0.7913 0.2464 -0.0844
H26? H 0.8189 0.2732 -0.1282
H27? H 0.9269 0.1744 -0.0916
H28? H 0.8851 0.1905 -0.1318
H29? H 0.8580 0.1648 -0.0875
H30? H 0.8846 0.2523 -0.0516
H31? H 0.9101 0.2762 -0.0929
N3? N 0.8817(7) 0.2522(8) -0.0816(6)
loop_
_geom_bond_atom_site_label_1
_geom_bond_atom_site_label_2
_geom_bond_site_symmetry_1
_geom_bond_site_symmetry_2
Zn1 O1 1_555 1_555
C1 C2 1_555 1_555
C2 C3 1_555 1_555
C3 H1 1_555 1_555
C4 C3 1_555 1_555
C5 C4 1_555 1_555
C6 C5 1_555 1_555
H2 C6 1_555 1_555
C7 C6 1_555 1_555
C8 C7 1_555 1_555
C9 C2 1_555 1_555
H3 C9 1_555 1_555
C10 C7 1_555 1_555
H4 C10 1_555 1_555
C11 C12 1_555 1_555
C12 H5 1_555 1_555
C13 C12 1_555 1_555
C14 C13 1_555 1_555
H6 C14 1_555 1_555
C15 C14 1_555 1_555
C16 C11 1_555 1_555
H7 C16 1_555 1_555
C17 C11 1_555 1_555
C18 C13 1_555 1_555
O1 C1 1_555 1_555
O2 C1 1_555 1_555
O3 C8 1_555 1_555
O4 C8 1_555 1_555
O5 Zn1 1_555 1_555
O6 C17 1_555 1_555
O7 C18 1_555 1_555
O8 C18 1_555 1_555
N1 H8 1_555 1_555
H9 N1 1_555 1_555
N2 H10 1_555 1_555
H11 N2 1_555 1_555
C19 N1 1_555 1_555
H12 C19 1_555 1_555
H13 C19 1_555 1_555
H14 C19 1_555 1_555
C20 N1 1_555 1_555
H15 C20 1_555 1_555
H16 C20 1_555 1_555
H17 C20 1_555 1_555
C21 N2 1_555 1_555
H18 C21 1_555 1_555
H19 C21 1_555 1_555
H20 C21 1_555 1_555
C22 N2 1_555 1_555
H21 C22 1_555 1_555
H22 C22 1_555 1_555
H23 C22 1_555 1_555
Zn1D O1D 1_555 1_555
Zn1C O4 1_555 1_555
Zn1B O7 1_555 1_555
Zn1G O4D 1_555 1_555
Zn1M O5M 1_555 1_555
Zn1O O7M 1_555 1_555
C1D C2D 1_555 1_555
C2D C9 1_555 1_555
C3D C4 1_555 1_555
H1D C3D 1_555 1_555
C6D C5 1_555 1_555
H2D C6D 1_555 1_555
C7D C10 1_555 1_555
C8D C7D 1_555 1_555
C11M C12M 1_555 1_555
C12M H5M 1_555 1_555
C13M C12M 1_555 1_555
C14M C13M 1_555 1_555
H6M C14M 1_555 1_555
C15M C15 1_555 1_555
C16M C11M 1_555 1_555
H7M C16M 1_555 1_555
C17M C11M 1_555 1_555
C18M C13M 1_555 1_555
O1D C1D 1_555 1_555
O2D C1D 1_555 1_555
O3D C8D 1_555 1_555
O4D C8D 1_555 1_555
O4B Zn1 1_555 1_555
O4F Zn1D 1_555 1_555
O5M C17M 1_555 1_555
O5D Zn1D 1_555 1_555
O6M C17M 1_555 1_555
O7M C18M 1_555 1_555
O7C Zn1 1_555 1_555
O7G Zn1D 1_555 1_555
O8M C18M 1_555 1_555
C15 C16 1_555 1_555
C17 O5 1_555 1_555
C2D C3D 1_555 1_555
C6D C7D 1_555 1_555
C14M C15M 1_555 1_555
C15M C16M 1_555 1_555

#END
