
#######################################################################
#
#                 Cambridge Crystallographic Data Centre
#                                CCDC 
#
#######################################################################
#
# If this CIF has been generated from an entry in the Cambridge 
# Structural Database, then it will include bibliographic, chemical, 
# crystal, experimental, refinement or atomic coordinate data resulting 
# from the CCDC's data processing and validation procedures.
#
#######################################################################

data_HAGHII
_symmetry_cell_setting           monoclinic
_symmetry_space_group_name_H-M   'P 21/n'
_symmetry_Int_Tables_number      14
_space_group_name_Hall           '-P 2yn'
loop_
_symmetry_equiv_pos_site_id
_symmetry_equiv_pos_as_xyz
1 x,y,z
2 1/2-x,1/2+y,1/2-z
3 -x,-y,-z
4 1/2+x,1/2-y,1/2+z
_cell_length_a                   8.6968(14)
_cell_length_b                   13.728(2)
_cell_length_c                   20.238(3)
_cell_angle_alpha                90
_cell_angle_beta                 100.961(3)
_cell_angle_gamma                90
_cell_volume                     2372.13
loop_
_atom_site_label
_atom_site_type_symbol
_atom_site_fract_x
_atom_site_fract_y
_atom_site_fract_z
Zn1 Zn -0.04227(4) 0.48141(3) 0.80494(2)
Zn2 Zn 0.52372(4) 0.99991(3) 0.926030(19)
O1 O 0.0973(3) 0.60337(18) 0.78480(12)
O2 O 0.1629(3) 0.51395(19) 0.87448(13)
O3 O 0.4901(3) 0.86522(17) 0.74250(12)
O4 O 0.5731(2) 0.94041(16) 0.83936(11)
O5 O 1.3062(2) 0.94334(16) 0.91831(11)
O6 O 1.2793(2) 0.93530(16) 1.02715(11)
O7 O 0.5852(2) 0.88558(16) 0.99925(11)
O8 O 0.7490(2) 0.79975(17) 1.07561(11)
O9 O 0.4607(3) 1.12106(18) 0.86184(12)
H1 H 0.4297 1.1019 0.8232
N1 N -0.1686(4) 0.4206(2) 0.87033(16)
N2 N -0.2622(3) 0.5276(2) 0.76303(15)
C1 C 0.1919(4) 0.5830(3) 0.83825(19)
C2 C 0.3405(4) 0.6386(2) 0.85843(17)
C3 C 0.3683(3) 0.7204(2) 0.82312(16)
H2 H 0.2929 0.7416 0.7871
C4 C 0.5075(3) 0.7715(2) 0.84068(16)
C5 C 0.5259(3) 0.8659(3) 0.80565(17)
C6 C 0.6247(3) 0.7374(2) 0.89221(16)
C7 C 0.7803(3) 0.7872(2) 0.90950(16)
C8 C 0.8844(4) 0.7869(2) 0.86531(16)
H3 H 0.8566 0.7563 0.8237
C9 C 1.0285(4) 0.8314(2) 0.88244(16)
H4 H 1.0959 0.8315 0.8518
C10 C 1.0746(3) 0.8758(2) 0.94412(16)
C11 C 1.2334(4) 0.9223(2) 0.96461(18)
C12 C 0.9720(3) 0.8748(2) 0.98876(16)
H5 H 1.0021 0.9033 1.0309
C13 C 0.8260(3) 0.8323(2) 0.97182(16)
C14 C 0.7118(4) 0.8391(2) 1.01953(17)
C15 C 0.5961(4) 0.6541(2) 0.92667(17)
H6 H 0.6735 0.6302 0.9610
C16 C 0.4557(4) 0.6064(3) 0.91107(17)
H7 H 0.4373 0.5520 0.9359
C17 C -0.1105(6) 0.3754(3) 0.9282(2)
H8 H -0.0031 0.3771 0.9447
C18 C -0.2067(9) 0.3260(4) 0.9640(3)
H9 H -0.1660 0.2966 1.0050
C19 C -0.3626(9) 0.3217(4) 0.9375(4)
H10 H -0.4288 0.2867 0.9598
C20 C -0.4232(6) 0.3679(4) 0.8787(3)
H11 H -0.5298 0.3649 0.8609
C21 C -0.3232(5) 0.4194(3) 0.8459(2)
C22 C -0.3751(4) 0.4801(3) 0.7856(2)
C23 C -0.5328(5) 0.4897(4) 0.7533(3)
H12 H -0.6114 0.4532 0.7669
C24 C -0.5661(6) 0.5543(5) 0.7013(3)
H13 H -0.6694 0.5628 0.6795
C25 C -0.4518(7) 0.6062(5) 0.6809(2)
H14 H -0.4759 0.6522 0.6468
C26 C -0.2999(5) 0.5897(3) 0.7116(2)
H15 H -0.2203 0.6227 0.6961
H16 H 0.390(5) 1.159(3) 0.877(2)
Zn1A Zn 0.54227(4) 0.98141(3) 0.69506(2)
Zn2_2 Zn 1.52372(4) 0.99991(3) 0.926030(19)
Zn2B Zn 1.47628(4) 1.00009(3) 1.073970(19)
O3A O 0.0099(3) 0.36522(17) 0.75750(12)
O5_2 O 0.3062(2) 0.94334(16) 0.91831(11)
O6B O 0.7207(2) 1.06470(16) 0.97285(11)
loop_
_geom_bond_atom_site_label_1
_geom_bond_atom_site_label_2
_geom_bond_site_symmetry_1
_geom_bond_site_symmetry_2
Zn1 O1 1_555 1_555
Zn2 O4 1_555 1_555
O1 C1 1_555 1_555
O2 Zn1 1_555 1_555
O3 C5 1_555 1_555
O4 C5 1_555 1_555
O5 C11 1_555 1_555
O6 C11 1_555 1_555
O7 Zn2 1_555 1_555
O8 C14 1_555 1_555
O9 Zn2 1_555 1_555
H1 O9 1_555 1_555
N1 Zn1 1_555 1_555
N2 Zn1 1_555 1_555
C1 O2 1_555 1_555
C2 C1 1_555 1_555
C3 C2 1_555 1_555
H2 C3 1_555 1_555
C4 C3 1_555 1_555
C5 C4 1_555 1_555
C6 C4 1_555 1_555
C7 C6 1_555 1_555
C8 C7 1_555 1_555
H3 C8 1_555 1_555
C9 C8 1_555 1_555
H4 C9 1_555 1_555
C10 C9 1_555 1_555
C11 C10 1_555 1_555
C12 C10 1_555 1_555
H5 C12 1_555 1_555
C13 C7 1_555 1_555
C14 O7 1_555 1_555
C15 C6 1_555 1_555
H6 C15 1_555 1_555
C16 C2 1_555 1_555
H7 C16 1_555 1_555
C17 N1 1_555 1_555
H8 C17 1_555 1_555
C18 C17 1_555 1_555
H9 C18 1_555 1_555
C19 C18 1_555 1_555
H10 C19 1_555 1_555
C20 C19 1_555 1_555
H11 C20 1_555 1_555
C21 N1 1_555 1_555
C22 N2 1_555 1_555
C23 C22 1_555 1_555
H12 C23 1_555 1_555
C24 C23 1_555 1_555
H13 C24 1_555 1_555
C25 C24 1_555 1_555
H14 C25 1_555 1_555
C26 N2 1_555 1_555
H15 C26 1_555 1_555
H16 O9 1_555 1_555
Zn1A O3 1_555 1_555
Zn2_2 O5 1_555 1_555
Zn2B O6 1_555 1_555
O3A Zn1 1_555 1_555
O5_2 Zn2 1_555 1_555
O6B Zn2 1_555 1_555
C12 C13 1_555 1_555
C13 C14 1_555 1_555
C15 C16 1_555 1_555
C20 C21 1_555 1_555
C21 C22 1_555 1_555
C25 C26 1_555 1_555

#END
