
#######################################################################
#
#                 Cambridge Crystallographic Data Centre
#                                CCDC 
#
#######################################################################
#
# If this CIF has been generated from an entry in the Cambridge 
# Structural Database, then it will include bibliographic, chemical, 
# crystal, experimental, refinement or atomic coordinate data resulting 
# from the CCDC's data processing and validation procedures.
#
#######################################################################

data_HAGQIR
_symmetry_cell_setting           orthorhombic
_symmetry_space_group_name_H-M   'P c c n'
_symmetry_Int_Tables_number      56
_space_group_name_Hall           '-P 2ab 2ac'
loop_
_symmetry_equiv_pos_site_id
_symmetry_equiv_pos_as_xyz
1 x,y,z
2 1/2-x,1/2-y,z
3 -x,1/2+y,1/2-z
4 1/2+x,-y,1/2-z
5 -x,-y,-z
6 1/2+x,1/2+y,-z
7 x,1/2-y,1/2+z
8 1/2-x,y,1/2+z
_cell_length_a                   20.7845(10)
_cell_length_b                   8.9365(4)
_cell_length_c                   15.5862(7)
_cell_angle_alpha                90
_cell_angle_beta                 90
_cell_angle_gamma                90
_cell_volume                     2894.99
loop_
_atom_site_label
_atom_site_type_symbol
_atom_site_fract_x
_atom_site_fract_y
_atom_site_fract_z
C1 C 0.76178(11) 0.5966(3) 0.28370(14)
H1 H 0.7695 0.4941 0.2838
Ni1 Ni 0.5000 0.0000 0.5000
O1 O 0.52721(7) 0.11649(15) 0.39396(8)
O2 O 0.52530(9) -0.04238(18) 0.28317(10)
O3 O 0.51510(8) 0.4523(2) 0.37863(10)
H2 H 0.5025 0.4431 0.3290
O4 O 0.59869(8) 0.38044(19) 0.45593(10)
C2 C 0.81262(11) 0.6976(2) 0.28306(15)
H3 H 0.8548 0.6629 0.2819
O5 O 0.52433(8) 0.18266(17) 0.57285(10)
H4 H 0.5131 0.1806 0.6231
H5 H 0.5477 0.2532 0.5598
N1 N 0.40598(8) 0.0887(2) 0.49150(11)
C3 C 0.54264(9) 0.0766(2) 0.31962(12)
C4 C 0.57153(10) 0.3849(2) 0.38737(13)
C5 C 0.60084(9) 0.3232(2) 0.30620(13)
O6 O 0.64544(8) 0.56111(18) 0.29402(12)
C6 C 0.66132(10) 0.2292(3) 0.15646(14)
H6 H 0.6822 0.1966 0.1071
C7 C 0.58799(9) 0.1812(2) 0.27327(12)
C8 C 0.64241(10) 0.4181(2) 0.26171(14)
C9 C 0.61874(9) 0.1349(2) 0.19803(13)
H7 H 0.6105 0.0403 0.1758
C10 C 0.67315(10) 0.3713(3) 0.18758(14)
H8 H 0.7014 0.4348 0.1591
C11 C 0.28264(9) 0.2156(3) 0.48655(13)
C12 C 0.69958(11) 0.6509(2) 0.28416(14)
C13 C 0.35353(11) 0.0076(2) 0.50907(14)
H9 H 0.3587 -0.0928 0.5234
C14 C 0.33716(11) 0.2994(3) 0.46846(17)
H10 H 0.3334 0.4001 0.4544
C15 C 0.29189(10) 0.0662(3) 0.50693(13)
H11 H 0.2567 0.0055 0.5192
C16 C 0.39712(10) 0.2326(3) 0.47142(17)
H12 H 0.4330 0.2907 0.4588
C1A C 0.73822(11) 0.9034(3) 0.28370(14)
H1A H 0.7305 1.0059 0.2838
Ni1A Ni 1.0000 1.5000 0.5000
Ni1A_2 Ni 0.0000 0.5000 0.5000
O1A O 0.97279(7) 1.38351(15) 0.39396(8)
O1D O 0.47279(7) -0.11649(15) 0.60604(8)
O2A O 0.97470(9) 1.54238(18) 0.28317(10)
O3A O 0.98490(8) 1.0477(2) 0.37863(10)
H2A H 0.9975 1.0569 0.3290
O4A O 0.90131(8) 1.11956(19) 0.45593(10)
C2A C 0.68738(11) 0.8024(2) 0.28306(15)
H3A H 0.6452 0.8371 0.2819
O5D O 0.47567(8) -0.18266(17) 0.42715(10)
H4D H 0.4869 -0.1806 0.3769
H5D H 0.4523 -0.2532 0.4402
N1A N 0.09402(8) 0.4113(2) 0.49150(11)
N1D N 0.59402(8) -0.0887(2) 0.50850(11)
C3A C 0.95736(9) 1.4234(2) 0.31962(12)
C4A C 0.92847(10) 1.1151(2) 0.38737(13)
C5A C 0.89916(9) 1.1768(2) 0.30620(13)
O6A O 0.85456(8) 0.93889(18) 0.29402(12)
C6A C 0.83868(10) 1.2708(3) 0.15646(14)
H6A H 0.8178 1.3034 0.1071
C7A C 0.91201(9) 1.3188(2) 0.27327(12)
C8A C 0.85759(10) 1.0819(2) 0.26171(14)
C9A C 0.88126(9) 1.3651(2) 0.19803(13)
H7A H 0.8895 1.4597 0.1758
C10A C 0.82685(10) 1.1287(3) 0.18758(14)
H8A H 0.7986 1.0652 0.1591
C11A C 0.21736(9) 0.2844(3) 0.48655(13)
C12A C 0.80042(11) 0.8491(2) 0.28416(14)
C13A C 0.14647(11) 0.4924(2) 0.50907(14)
H9A H 0.1413 0.5928 0.5234
C14A C 0.16284(11) 0.2006(3) 0.46846(17)
H10A H 0.1666 0.0999 0.4544
C15A C 0.20811(10) 0.4338(3) 0.50693(13)
H11A H 0.2433 0.4945 0.5192
C16A C 0.10288(10) 0.2674(3) 0.47142(17)
H12A H 0.0670 0.2093 0.4588
loop_
_geom_bond_atom_site_label_1
_geom_bond_atom_site_label_2
_geom_bond_site_symmetry_1
_geom_bond_site_symmetry_2
C1 H1 1_555 1_555
Ni1 O1 1_555 1_555
O1 C3 1_555 1_555
O2 C3 1_555 1_555
O3 H2 1_555 1_555
O4 C4 1_555 1_555
C2 C1 1_555 1_555
H3 C2 1_555 1_555
O5 Ni1 1_555 1_555
H4 O5 1_555 1_555
H5 O5 1_555 1_555
N1 Ni1 1_555 1_555
C3 C7 1_555 1_555
C4 O3 1_555 1_555
C5 C4 1_555 1_555
O6 C8 1_555 1_555
C6 H6 1_555 1_555
C7 C5 1_555 1_555
C8 C5 1_555 1_555
C9 C6 1_555 1_555
H7 C9 1_555 1_555
C10 C6 1_555 1_555
H8 C10 1_555 1_555
C11 C14 1_555 1_555
C12 C1 1_555 1_555
C13 N1 1_555 1_555
H9 C13 1_555 1_555
C14 H10 1_555 1_555
C15 C11 1_555 1_555
H11 C15 1_555 1_555
C16 N1 1_555 1_555
H12 C16 1_555 1_555
C1A H1A 1_555 1_555
Ni1A O1A 1_555 1_555
Ni1A_2 N1A 1_555 1_555
O1A C3A 1_555 1_555
O1D Ni1 1_555 1_555
O2A C3A 1_555 1_555
O3A H2A 1_555 1_555
O4A C4A 1_555 1_555
C2A C12 1_555 1_555
H3A C2A 1_555 1_555
O5D Ni1 1_555 1_555
H4D O5D 1_555 1_555
H5D O5D 1_555 1_555
N1A C13A 1_555 1_555
N1D Ni1 1_555 1_555
C3A C7A 1_555 1_555
C4A O3A 1_555 1_555
C5A C4A 1_555 1_555
O6A C8A 1_555 1_555
C6A H6A 1_555 1_555
C7A C5A 1_555 1_555
C8A C5A 1_555 1_555
C9A C6A 1_555 1_555
H7A C9A 1_555 1_555
C10A C6A 1_555 1_555
H8A C10A 1_555 1_555
C11A C11 1_555 1_555
C12A C2 1_555 1_555
C13A H9A 1_555 1_555
C14A C11A 1_555 1_555
H10A C14A 1_555 1_555
C15A C11A 1_555 1_555
H11A C15A 1_555 1_555
C16A N1A 1_555 1_555
H12A C16A 1_555 1_555
O6 C12 1_555 1_555
C7 C9 1_555 1_555
C8 C10 1_555 1_555
C13 C15 1_555 1_555
C14 C16 1_555 1_555
C1A C2A 1_555 1_555
C1A C12A 1_555 1_555
O6A C12A 1_555 1_555
C7A C9A 1_555 1_555
C8A C10A 1_555 1_555
C13A C15A 1_555 1_555
C14A C16A 1_555 1_555

#END
