
#######################################################################
#
#                 Cambridge Crystallographic Data Centre
#                                CCDC 
#
#######################################################################
#
# If this CIF has been generated from an entry in the Cambridge 
# Structural Database, then it will include bibliographic, chemical, 
# crystal, experimental, refinement or atomic coordinate data resulting 
# from the CCDC's data processing and validation procedures.
#
#######################################################################

data_HAGQOV
_symmetry_cell_setting           monoclinic
_symmetry_space_group_name_H-M   'P 2/n'
_symmetry_Int_Tables_number      13
_space_group_name_Hall           '-P 2yac'
loop_
_symmetry_equiv_pos_site_id
_symmetry_equiv_pos_as_xyz
1 x,y,z
2 1/2-x,y,1/2-z
3 -x,-y,-z
4 1/2+x,-y,1/2+z
_cell_length_a                   10.274(1)
_cell_length_b                   11.018(1)
_cell_length_c                   11.615(1)
_cell_angle_alpha                90
_cell_angle_beta                 93.13(1)
_cell_angle_gamma                90
_cell_volume                     1312.84
loop_
_atom_site_label
_atom_site_type_symbol
_atom_site_fract_x
_atom_site_fract_y
_atom_site_fract_z
Zn1 Zn 0.0890(1) 0.1495(1) 0.2897(1)
N1 N 0.0873(3) 0.1014(3) 0.4769(3)
N2 N 0.1153(4) 0.3153(3) 0.3627(3)
O1 O 0.0570(4) 0.2862(4) 0.1490(3)
C1 C 0.1363(4) -0.0221(4) 0.5077(4)
C2 C -0.0401(4) 0.1179(4) 0.5301(4)
C3 C 0.1818(5) 0.1918(4) 0.5258(4)
C4 C 0.1586(4) 0.3150(4) 0.4748(4)
C5 C 0.1848(5) 0.4221(5) 0.5317(5)
C6 C 0.1694(5) 0.5301(5) 0.4736(5)
C7 C 0.1256(5) 0.5297(4) 0.3592(5)
C8 C 0.0984(4) 0.4197(4) 0.3061(4)
C9 C 0.0512(5) 0.4094(5) 0.1823(5)
O2 O -0.0546(4) 0.0527(3) 0.2117(3)
O3 O 0.2500 0.0749(4) 0.2500
H1 H 0.0223(69) 0.2724(70) 0.0817(37)
H2 H 0.1532(4) -0.0272(4) 0.5905(4)
H3 H 0.2179(4) -0.0363(4) 0.4715(4)
H4 H -0.0264(4) 0.1152(4) 0.6133(4)
H5 H -0.0752(4) 0.1971(4) 0.5093(4)
H6 H 0.2696(5) 0.1657(4) 0.5113(4)
H7 H 0.1746(5) 0.1960(4) 0.6086(4)
H8 H 0.2130(5) 0.4215(5) 0.6092(5)
H9 H 0.1879(5) 0.6031(5) 0.5112(5)
H10 H 0.1150(5) 0.6020(4) 0.3184(5)
H11 H -0.0376(5) 0.4389(5) 0.1725(5)
H12 H 0.1055(5) 0.4582(5) 0.1346(5)
H13 H -0.0239(59) 0.0068(50) 0.1593(44)
H14 H -0.1118(50) 0.1074(49) 0.1878(55)
H15 H 0.2500 -0.0028(29) 0.2500
C2B C 0.0401(4) -0.1179(4) 0.4699(4)
N1B N -0.0873(3) -0.1014(3) 0.5231(3)
Zn1B Zn -0.0890(1) -0.1495(1) 0.7103(1)
N2B N -0.1153(4) -0.3153(3) 0.6373(3)
C4B C -0.1586(4) -0.3150(4) 0.5252(4)
C3B C -0.1818(5) -0.1918(4) 0.4742(4)
C1B C -0.1363(4) 0.0221(4) 0.4923(4)
Zn1A Zn 0.4110(1) 0.1495(1) 0.2103(1)
H2B H -0.1532(4) 0.0272(4) 0.4095(4)
H3B H -0.2179(4) 0.0363(4) 0.5285(4)
H6B H -0.2696(5) -0.1657(4) 0.4887(4)
H7B H -0.1746(5) -0.1960(4) 0.3914(4)
C5B C -0.1848(5) -0.4221(5) 0.4683(5)
C6B C -0.1694(5) -0.5301(5) 0.5264(5)
C7B C -0.1256(5) -0.5297(4) 0.6408(5)
C8B C -0.0984(4) -0.4197(4) 0.6939(4)
C9B C -0.0512(5) -0.4094(5) 0.8177(5)
O1B O -0.0570(4) -0.2862(4) 0.8510(3)
H1B H -0.0223(69) -0.2724(70) 0.9183(37)
H11B H 0.0376(5) -0.4389(5) 0.8275(5)
H12B H -0.1055(5) -0.4582(5) 0.8654(5)
H10B H -0.1150(5) -0.6020(4) 0.6816(5)
H9B H -0.1879(5) -0.6031(5) 0.4888(5)
H8B H -0.2130(5) -0.4215(5) 0.3908(5)
O2B O 0.0546(4) -0.0527(3) 0.7883(3)
H13B H 0.0239(59) -0.0068(50) 0.8407(44)
H14B H 0.1118(50) -0.1074(49) 0.8122(55)
O3B O -0.2500 -0.0749(4) 0.7500
H4B H 0.0264(4) -0.1152(4) 0.3867(4)
H5B H 0.0752(4) -0.1971(4) 0.4907(4)
H15B H -0.2500 0.0028(29) 0.7500
N3 N 0.0741(8) -0.2009(6) 0.1113(6)
O4 O 0.0383(7) -0.1150(7) 0.0548(7)
O5 O 0.0321(8) -0.3109(7) 0.0779(7)
O6 O 0.1446(9) -0.1832(8) 0.1995(8)
N4 N -0.2500 0.2869(5) 0.2500
O7 O -0.2500 0.3976(6) 0.2500
O8 O -0.2465(6) 0.2286(5) 0.1577(4)
O8A O -0.2535(6) 0.2286(5) 0.3423(4)
N5? N 0.0143(13) -0.2221(10) 0.1169(9)
O9? O -0.0010(13) -0.1213(10) 0.0663(11)
O10? O 0.0848(13) -0.3019(11) 0.0648(11)
O11? O -0.0157(14) -0.2303(12) 0.2141(11)
O12? O -0.3255(18) 0.2419(15) 0.1719(13)
loop_
_geom_bond_atom_site_label_1
_geom_bond_atom_site_label_2
_geom_bond_site_symmetry_1
_geom_bond_site_symmetry_2
Zn1 N1 1_555 1_555
N1 C1 1_555 1_555
N2 Zn1 1_555 1_555
O1 Zn1 1_555 1_555
C1 H2 1_555 1_555
C2 N1 1_555 1_555
C3 N1 1_555 1_555
C4 N2 1_555 1_555
C5 C4 1_555 1_555
C6 C5 1_555 1_555
C7 C6 1_555 1_555
C8 N2 1_555 1_555
C9 O1 1_555 1_555
O2 Zn1 1_555 1_555
O3 Zn1 1_555 1_555
H1 O1 1_555 1_555
H3 C1 1_555 1_555
H4 C2 1_555 1_555
H5 C2 1_555 1_555
H6 C3 1_555 1_555
H7 C3 1_555 1_555
H8 C5 1_555 1_555
H9 C6 1_555 1_555
H10 C7 1_555 1_555
H11 C9 1_555 1_555
H12 C9 1_555 1_555
H13 O2 1_555 1_555
H14 O2 1_555 1_555
H15 O3 1_555 1_555
N3 O4 1_555 1_555
O5 N3 1_555 1_555
O6 N3 1_555 1_555
N4 O7 1_555 1_555
O8 N4 1_555 1_555
C2B C1 1_555 1_555
N1B C2B 1_555 1_555
Zn1B N1B 1_555 1_555
N2B Zn1B 1_555 1_555
C4B N2B 1_555 1_555
C3B N1B 1_555 1_555
C1B C2 1_555 1_555
Zn1A O3 1_555 1_555
H2B C1B 1_555 1_555
H3B C1B 1_555 1_555
H6B C3B 1_555 1_555
H7B C3B 1_555 1_555
C5B C4B 1_555 1_555
C6B C5B 1_555 1_555
C7B C6B 1_555 1_555
C8B N2B 1_555 1_555
C9B C8B 1_555 1_555
O1B Zn1B 1_555 1_555
H1B O1B 1_555 1_555
H11B C9B 1_555 1_555
H12B C9B 1_555 1_555
H10B C7B 1_555 1_555
H9B C6B 1_555 1_555
H8B C5B 1_555 1_555
O2B Zn1B 1_555 1_555
H13B O2B 1_555 1_555
H14B O2B 1_555 1_555
O3B Zn1B 1_555 1_555
H4B C2B 1_555 1_555
H5B C2B 1_555 1_555
H15B O3B 1_555 1_555
O8A N4 1_555 1_555
C3 C4 1_555 1_555
C7 C8 1_555 1_555
C8 C9 1_555 1_555
N1B C1B 1_555 1_555
C4B C3B 1_555 1_555
C7B C8B 1_555 1_555
C9B O1B 1_555 1_555

#END
