
#######################################################################
#
#                 Cambridge Crystallographic Data Centre
#                                CCDC 
#
#######################################################################
#
# If this CIF has been generated from an entry in the Cambridge 
# Structural Database, then it will include bibliographic, chemical, 
# crystal, experimental, refinement or atomic coordinate data resulting 
# from the CCDC's data processing and validation procedures.
#
#######################################################################

data_HAGVUG
_symmetry_cell_setting           monoclinic
_symmetry_space_group_name_H-M   'C 2/c'
_symmetry_Int_Tables_number      15
_space_group_name_Hall           '-C 2yn'
loop_
_symmetry_equiv_pos_site_id
_symmetry_equiv_pos_as_xyz
1 x,y,z
2 1/2+x,1/2+y,z
3 -x,y,1/2-z
4 1/2-x,1/2+y,1/2-z
5 -x,-y,-z
6 1/2-x,1/2-y,-z
7 x,-y,1/2+z
8 1/2+x,1/2-y,1/2+z
_cell_length_a                   26.858(4)
_cell_length_b                   8.433(2)
_cell_length_c                   8.729(1)
_cell_angle_alpha                90
_cell_angle_beta                 90.67(1)
_cell_angle_gamma                90
_cell_volume                     1976.93
loop_
_atom_site_label
_atom_site_type_symbol
_atom_site_fract_x
_atom_site_fract_y
_atom_site_fract_z
Ba1 Ba 0.0000 0.06929(3) 0.25000
S1 S -0.2037(1) 0.0044(2) 0.2014(2)
O1 O -0.0043(1) -0.1835(3) 0.4436(3)
O2 O 0.0390(1) 0.3501(4) 0.3912(3)
N1 N -0.1024(2) 0.0297(7) 0.2470(8)
N2 N -0.1119(1) -0.4354(3) 0.4096(4)
C1 C -0.1443(2) 0.0178(5) 0.2287(6)
C2 C -0.0348(2) -0.2913(4) 0.4788(3)
C3 C -0.0681(2) -0.3538(5) 0.3491(4)
C4 C -0.1495(2) -0.3485(6) 0.4676(6)
C5 C -0.1891(2) -0.4216(7) 0.5342(8)
C6 C -0.1909(2) -0.5846(7) 0.5413(7)
C7 C -0.1520(2) -0.6713(6) 0.4826(6)
C8 C -0.1129(2) -0.5946(5) 0.4166(6)
O1D O 0.0043(1) 0.1835(3) 0.5564(3)
O1B O 0.0043(1) -0.1835(3) 0.0564(3)
O1F O -0.0043(1) 0.1835(3) -0.0564(3)
O2B O -0.0390(1) 0.3501(4) 0.1088(3)
N1B N 0.1024(2) 0.0297(7) 0.2530(8)
Ba1D Ba 0.0000 -0.06929(3) 0.75000
C2D C 0.0348(2) 0.2913(4) 0.5212(3)
O2D O -0.0390(1) -0.3501(4) 0.6088(3)
Ba1D_2 Ba 0.0000 -0.06929(3) -0.25000
C2B C 0.0348(2) -0.2913(4) 0.0212(3)
C2F C -0.0348(2) 0.2913(4) -0.0212(3)
C1B C 0.1443(2) 0.0178(5) 0.2713(6)
O1B_2 O 0.0043(1) -0.1835(3) 1.0564(3)
O1F_2 O -0.0043(1) 0.1835(3) 0.9436(3)
O2F O 0.0390(1) -0.3501(4) 0.8912(3)
N1D N 0.1024(2) -0.0297(7) 0.7530(8)
N1F N -0.1024(2) -0.0297(7) 0.7470(8)
C3D C 0.0681(2) 0.3538(5) 0.6509(4)
O2F_2 O 0.0390(1) -0.3501(4) -0.1088(3)
C3B C 0.0681(2) -0.3538(5) 0.1509(4)
C3F C -0.0681(2) 0.3538(5) -0.1509(4)
S1B S 0.2037(1) 0.0044(2) 0.2986(2)
C1D C 0.1443(2) -0.0178(5) 0.7713(6)
C1F C -0.1443(2) -0.0178(5) 0.7287(6)
N2D N 0.1119(1) 0.4354(3) 0.5904(4)
N2B N 0.1119(1) -0.4354(3) 0.0904(4)
N2F N -0.1119(1) 0.4354(3) -0.0904(4)
S1D S 0.2037(1) -0.0044(2) 0.7986(2)
S1F S -0.2037(1) -0.0044(2) 0.7014(2)
C4D C 0.1495(2) 0.3485(6) 0.5324(6)
C8D C 0.1129(2) 0.5946(5) 0.5834(6)
C4B C 0.1495(2) -0.3485(6) 0.0324(6)
C8B C 0.1129(2) -0.5946(5) 0.0834(6)
C4F C -0.1495(2) 0.3485(6) -0.0324(6)
C8F C -0.1129(2) 0.5946(5) -0.0834(6)
C5D C 0.1891(2) 0.4216(7) 0.4658(8)
C7D C 0.1520(2) 0.6713(6) 0.5174(6)
C5B C 0.1891(2) -0.4216(7) -0.0342(8)
C7B C 0.1520(2) -0.6713(6) 0.0174(6)
C5F C -0.1891(2) 0.4216(7) 0.0342(8)
C7F C -0.1520(2) 0.6713(6) -0.0174(6)
C6D C 0.1909(2) 0.5846(7) 0.4587(7)
C6B C 0.1909(2) -0.5846(7) -0.0413(7)
C6F C -0.1909(2) 0.5846(7) 0.0413(7)
loop_
_geom_bond_atom_site_label_1
_geom_bond_atom_site_label_2
_geom_bond_site_symmetry_1
_geom_bond_site_symmetry_2
Ba1 O1 1_555 1_555
S1 C1 1_555 1_555
O1 C2 1_555 1_555
O2 Ba1 1_555 1_555
N1 Ba1 1_555 1_555
N2 C3 1_555 1_555
C1 N1 1_555 1_555
C2 C3 1_555 1_555
C4 N2 1_555 1_555
C5 C4 1_555 1_555
C6 C5 1_555 1_555
C7 C6 1_555 1_555
C8 N2 1_555 1_555
O1D Ba1 1_555 1_555
O1B Ba1 1_555 1_555
O1F Ba1 1_555 1_555
O2B Ba1 1_555 1_555
N1B Ba1 1_555 1_555
Ba1D O1 1_555 1_555
C2D O2 1_555 1_555
O2D C2 1_555 1_555
Ba1D_2 O1B 1_555 1_555
C2B O1B 1_555 1_555
C2F O1F 1_555 1_555
C1B N1B 1_555 1_555
O1B_2 Ba1D 1_555 1_555
O1F_2 Ba1D 1_555 1_555
O2F Ba1D 1_555 1_555
N1D Ba1D 1_555 1_555
N1F Ba1D 1_555 1_555
C3D C2D 1_555 1_555
O2F_2 Ba1D_2 1_555 1_555
C3B C2B 1_555 1_555
C3F C2F 1_555 1_555
S1B C1B 1_555 1_555
C1D N1D 1_555 1_555
C1F N1F 1_555 1_555
N2D C3D 1_555 1_555
N2B C3B 1_555 1_555
N2F C3F 1_555 1_555
S1D C1D 1_555 1_555
S1F C1F 1_555 1_555
C4D N2D 1_555 1_555
C8D N2D 1_555 1_555
C4B N2B 1_555 1_555
C8B N2B 1_555 1_555
C4F N2F 1_555 1_555
C8F N2F 1_555 1_555
C5D C4D 1_555 1_555
C7D C8D 1_555 1_555
C5B C4B 1_555 1_555
C7B C8B 1_555 1_555
C5F C4F 1_555 1_555
C7F C8F 1_555 1_555
C6D C5D 1_555 1_555
C6B C5B 1_555 1_555
C6F C5F 1_555 1_555
C7 C8 1_555 1_555
O1D Ba1D 1_555 1_555
O1D C2D 1_555 1_555
O1F Ba1D_2 1_555 1_555
O2B C2F 1_555 1_555
Ba1D O2D 1_555 1_555
C2B O2F_2 1_555 1_555
C7D C6D 1_555 1_555
C7B C6B 1_555 1_555
C7F C6F 1_555 1_555

#END
