
#######################################################################
#
#                 Cambridge Crystallographic Data Centre
#                                CCDC 
#
#######################################################################
#
# If this CIF has been generated from an entry in the Cambridge 
# Structural Database, then it will include bibliographic, chemical, 
# crystal, experimental, refinement or atomic coordinate data resulting 
# from the CCDC's data processing and validation procedures.
#
#######################################################################

data_HAGWUI
_symmetry_cell_setting           monoclinic
_symmetry_space_group_name_H-M   'P 21/n'
_symmetry_Int_Tables_number      14
_space_group_name_Hall           '-P 2yn'
loop_
_symmetry_equiv_pos_site_id
_symmetry_equiv_pos_as_xyz
1 x,y,z
2 1/2+x,1/2-y,1/2+z
3 -x,-y,-z
4 1/2-x,1/2+y,1/2-z
_cell_length_a                   7.933(3)
_cell_length_b                   15.061(2)
_cell_length_c                   10.383(2)
_cell_angle_alpha                90
_cell_angle_beta                 112.43(2)
_cell_angle_gamma                90
_cell_volume                     1146.7
loop_
_atom_site_label
_atom_site_type_symbol
_atom_site_fract_x
_atom_site_fract_y
_atom_site_fract_z
Cu1 Cu 0.47956(4) 0.46325(2) 0.36262(3)
Cl1 Cl 0.27886(8) 0.44607(4) 0.48155(6)
S1 S 0.28538(9) 0.65206(4) 0.31993(6)
S2 S 0.19920(8) 0.77912(4) 0.26471(8)
N1 N 0.3409(3) 0.5235(1) 0.1723(2)
N2 N -0.1220(2) 0.8522(1) 0.1604(2)
C1 C 0.2475(3) 0.6000(2) 0.1578(2)
C2 C 0.1312(4) 0.6316(2) 0.0293(3)
C3 C 0.1122(4) 0.5837(2) -0.0885(3)
C4 C 0.2117(4) 0.5078(2) -0.0763(3)
C5 C 0.3224(4) 0.4795(2) 0.0545(3)
C6 C -0.0405(3) 0.7767(1) 0.2222(2)
C7 C -0.1332(4) 0.7063(2) 0.2493(3)
C8 C -0.3205(4) 0.7110(2) 0.2027(3)
C9 C -0.4086(3) 0.7859(2) 0.1326(3)
C10 C -0.3051(3) 0.8554(2) 0.1160(3)
H1 H 0.065(4) 0.681(2) 0.023(3)
H2 H 0.034(4) 0.602(2) -0.175(3)
H3 H 0.205(4) 0.479(2) -0.154(3)
H4 H 0.393(4) 0.424(2) 0.068(3)
H5 H -0.068(4) 0.656(2) 0.298(3)
H6 H -0.384(4) 0.666(2) 0.221(3)
H7 H -0.528(4) 0.795(2) 0.104(3)
H8 H -0.359(3) 0.907(2) 0.073(2)
Cl1B Cl 0.72114(8) 0.55393(4) 0.51845(6)
N2C N 0.6220(2) 0.3522(1) 0.3396(2)
Cu1B Cu 0.52044(4) 0.53675(2) 0.63738(3)
Cu1C Cu 0.02044(4) 0.96325(2) 0.13738(3)
loop_
_geom_bond_atom_site_label_1
_geom_bond_atom_site_label_2
_geom_bond_site_symmetry_1
_geom_bond_site_symmetry_2
Cu1 Cl1 1_555 1_555
Cl1 Cu1B 1_555 1_555
S1 S2 1_555 1_555
S2 C6 1_555 1_555
N1 Cu1 1_555 1_555
N2 C6 1_555 1_555
C1 S1 1_555 1_555
C2 C1 1_555 1_555
C3 C2 1_555 1_555
C4 C3 1_555 1_555
C5 N1 1_555 1_555
C6 C7 1_555 1_555
C7 C8 1_555 1_555
C8 C9 1_555 1_555
C9 C10 1_555 1_555
C10 N2 1_555 1_555
H1 C2 1_555 1_555
H2 C3 1_555 1_555
H3 C4 1_555 1_555
H4 C5 1_555 1_555
H5 C7 1_555 1_555
H6 C8 1_555 1_555
H7 C9 1_555 1_555
H8 C10 1_555 1_555
Cl1B Cu1 1_555 1_555
N2C Cu1 1_555 1_555
Cu1B Cl1B 1_555 1_555
Cu1C N2 1_555 1_555
N1 C1 1_555 1_555
C4 C5 1_555 1_555

#END
