
#######################################################################
#
#                 Cambridge Crystallographic Data Centre
#                                CCDC 
#
#######################################################################
#
# If this CIF has been generated from an entry in the Cambridge 
# Structural Database, then it will include bibliographic, chemical, 
# crystal, experimental, refinement or atomic coordinate data resulting 
# from the CCDC's data processing and validation procedures.
#
#######################################################################

data_HAHJEH
_symmetry_cell_setting           monoclinic
_symmetry_space_group_name_H-M   'P 2/c'
_symmetry_Int_Tables_number      13
_space_group_name_Hall           '-P 2yc'
loop_
_symmetry_equiv_pos_site_id
_symmetry_equiv_pos_as_xyz
1 x,y,z
2 -x,y,1/2-z
3 -x,-y,-z
4 x,-y,1/2+z
_cell_length_a                   12.923(3)
_cell_length_b                   11.651(2)
_cell_length_c                   13.133(3)
_cell_angle_alpha                90
_cell_angle_beta                 115.88(3)
_cell_angle_gamma                90
_cell_volume                     1779.07
loop_
_atom_site_label
_atom_site_type_symbol
_atom_site_fract_x
_atom_site_fract_y
_atom_site_fract_z
Cd1 Cd 0.5000 0.770664(14) 0.2500
O1 O 0.30651(10) 0.76830(11) 0.14475(11)
O2 O 0.28976(10) 0.84495(13) -0.01717(11)
O3 O 0.17757(13) 0.83228(14) 0.27986(11)
O4 O 0.50892(10) 0.77366(10) 0.07257(10)
H1 H 0.5518 0.8176 0.0574
H2 H 0.4376 0.7904 0.0410
N1 N 0.5000 0.57417(16) 0.2500
N2 N 0.5000 -0.03083(16) 0.2500
C1 C 0.24923(14) 0.81213(16) 0.04797(14)
C2 C 0.12305(14) 0.82582(16) 0.01316(13)
C3 C 0.05108(16) 0.87232(19) -0.09205(16)
H3 H 0.0817 0.8925 -0.1419
C4 C -0.06442(16) 0.8890(2) -0.12361(16)
H4 H -0.1110 0.9210 -0.1937
C5 C -0.10990(17) 0.8584(2) -0.05163(18)
H5 H -0.1880 0.8688 -0.0730
C6 C -0.04113(16) 0.8121(2) 0.05247(16)
H6 H -0.0733 0.7910 0.1007
C7 C 0.07556(14) 0.79669(16) 0.08626(14)
C8 C 0.14587(15) 0.75868(17) 0.20672(15)
C9 C 0.15981(15) 0.63457(19) 0.23568(16)
C10 C 0.1193(2) 0.5519(2) 0.1536(2)
H7 H 0.0854 0.5733 0.0778
C11 C 0.1282(3) 0.4360(2) 0.1823(3)
H8 H 0.1011 0.3802 0.1261
C12 C 0.1772(2) 0.4053(3) 0.2937(3)
H9 H 0.1813 0.3282 0.3134
C13 C 0.2201(2) 0.4860(2) 0.3759(2)
H10 H 0.2549 0.4636 0.4515
C14 C 0.21251(18) 0.6012(2) 0.34865(18)
H11 H 0.2425 0.6562 0.4055
C15 C 0.48311(18) 0.51467(17) 0.32737(17)
H12 H 0.4718 0.5548 0.3829
C16 C 0.48145(18) 0.39709(18) 0.32992(17)
H13 H 0.4679 0.3594 0.3853
C17 C 0.5000 0.33476(19) 0.2500
C18 C 0.5000 0.20787(19) 0.2500
C19 C 0.57872(14) 0.14598(14) 0.22614(14)
H14 H 0.6324 0.1841 0.2090
C20 C 0.57668(13) 0.02898(14) 0.22810(14)
H15 H 0.6310 -0.0112 0.2136
Cd1_2 Cd 0.5000 -0.229336(14) 0.2500
O1A O 0.69349(10) 0.76830(11) 0.35525(11)
O2A O 0.71024(10) 0.84495(13) 0.51717(11)
O3A O 0.82243(13) 0.83228(14) 0.22014(11)
O4A O 0.49108(10) 0.77366(10) 0.42743(10)
H1A H 0.4482 0.8176 0.4426
H2A H 0.5624 0.7904 0.4590
N2_2 N 0.5000 0.96917(16) 0.2500
C1A C 0.75077(14) 0.81213(16) 0.45203(14)
C2A C 0.87695(14) 0.82582(16) 0.48684(13)
C3A C 0.94892(16) 0.87232(19) 0.59205(16)
H3A H 0.9183 0.8925 0.6419
C4A C 1.06442(16) 0.8890(2) 0.62361(16)
H4A H 1.1110 0.9210 0.6937
C5A C 1.10990(17) 0.8584(2) 0.55163(18)
H5A H 1.1880 0.8688 0.5730
C6A C 1.04113(16) 0.8121(2) 0.44753(16)
H6A H 1.0733 0.7910 0.3993
C7A C 0.92444(14) 0.79669(16) 0.41374(14)
C8A C 0.85413(15) 0.75868(17) 0.29328(15)
C9A C 0.84019(15) 0.63457(19) 0.26432(16)
C10A C 0.8807(2) 0.5519(2) 0.3464(2)
H7A H 0.9146 0.5733 0.4222
C11A C 0.8718(3) 0.4360(2) 0.3177(3)
H8A H 0.8989 0.3802 0.3739
C12A C 0.8228(2) 0.4053(3) 0.2063(3)
H9A H 0.8187 0.3282 0.1866
C13A C 0.7799(2) 0.4860(2) 0.1241(2)
H10A H 0.7451 0.4636 0.0485
C14A C 0.78749(18) 0.6012(2) 0.15135(18)
H11A H 0.7575 0.6562 0.0945
C15A C 0.51689(18) 0.51467(17) 0.17263(17)
H12A H 0.5282 0.5548 0.1171
C16A C 0.51855(18) 0.39709(18) 0.17008(17)
H13A H 0.5321 0.3594 0.1147
C19A C 0.42128(14) 0.14598(14) 0.27386(14)
H14A H 0.3676 0.1841 0.2910
C20A C 0.42332(13) 0.02898(14) 0.27190(14)
H15A H 0.3690 -0.0112 0.2864
O5 O 0.65723(11) 0.08659(14) 0.52078(11)
H16 H 0.7145 0.1077 0.5808
H17 H 0.6592 0.0114 0.5095
loop_
_geom_bond_atom_site_label_1
_geom_bond_atom_site_label_2
_geom_bond_site_symmetry_1
_geom_bond_site_symmetry_2
Cd1 O1 1_555 1_555
O1 C1 1_555 1_555
O2 C1 1_555 1_555
O3 C8 1_555 1_555
O4 Cd1 1_555 1_555
H1 O4 1_555 1_555
H2 O4 1_555 1_555
N1 Cd1 1_555 1_555
N2 C20 1_555 1_555
C1 C2 1_555 1_555
C2 C3 1_555 1_555
C3 H3 1_555 1_555
C4 C3 1_555 1_555
H4 C4 1_555 1_555
C5 C4 1_555 1_555
H5 C5 1_555 1_555
C6 C5 1_555 1_555
H6 C6 1_555 1_555
C7 C2 1_555 1_555
C8 C7 1_555 1_555
C9 C8 1_555 1_555
C10 C9 1_555 1_555
H7 C10 1_555 1_555
C11 C10 1_555 1_555
H8 C11 1_555 1_555
C12 C11 1_555 1_555
H9 C12 1_555 1_555
C13 C12 1_555 1_555
H10 C13 1_555 1_555
C14 C9 1_555 1_555
H11 C14 1_555 1_555
C15 N1 1_555 1_555
H12 C15 1_555 1_555
C16 C15 1_555 1_555
H13 C16 1_555 1_555
C17 C16 1_555 1_555
C18 C17 1_555 1_555
C19 C18 1_555 1_555
H14 C19 1_555 1_555
C20 C19 1_555 1_555
H15 C20 1_555 1_555
O5 H16 1_555 1_555
H17 O5 1_555 1_555
Cd1_2 N2 1_555 1_555
O1A Cd1 1_555 1_555
O2A C1A 1_555 1_555
O3A C8A 1_555 1_555
O4A Cd1 1_555 1_555
H1A O4A 1_555 1_555
H2A O4A 1_555 1_555
N2_2 Cd1 1_555 1_555
C1A O1A 1_555 1_555
C2A C1A 1_555 1_555
C3A C2A 1_555 1_555
H3A C3A 1_555 1_555
C4A C3A 1_555 1_555
H4A C4A 1_555 1_555
C5A C4A 1_555 1_555
H5A C5A 1_555 1_555
C6A C5A 1_555 1_555
H6A C6A 1_555 1_555
C7A C2A 1_555 1_555
C8A C7A 1_555 1_555
C9A C8A 1_555 1_555
C10A C9A 1_555 1_555
H7A C10A 1_555 1_555
C11A C10A 1_555 1_555
H8A C11A 1_555 1_555
C12A C11A 1_555 1_555
H9A C12A 1_555 1_555
C13A C12A 1_555 1_555
H10A C13A 1_555 1_555
C14A C9A 1_555 1_555
H11A C14A 1_555 1_555
C15A N1 1_555 1_555
H12A C15A 1_555 1_555
C16A C17 1_555 1_555
H13A C16A 1_555 1_555
C19A C18 1_555 1_555
H14A C19A 1_555 1_555
C20A N2 1_555 1_555
H15A C20A 1_555 1_555
C6 C7 1_555 1_555
C13 C14 1_555 1_555
C6A C7A 1_555 1_555
C13A C14A 1_555 1_555
C15A C16A 1_555 1_555
C19A C20A 1_555 1_555

#END
