
#######################################################################
#
#                 Cambridge Crystallographic Data Centre
#                                CCDC 
#
#######################################################################
#
# If this CIF has been generated from an entry in the Cambridge 
# Structural Database, then it will include bibliographic, chemical, 
# crystal, experimental, refinement or atomic coordinate data resulting 
# from the CCDC's data processing and validation procedures.
#
#######################################################################

data_HAHWIW
_symmetry_cell_setting           triclinic
_symmetry_space_group_name_H-M   'P -1'
_symmetry_Int_Tables_number      2
_space_group_name_Hall           '-P 1'
loop_
_symmetry_equiv_pos_site_id
_symmetry_equiv_pos_as_xyz
1 x,y,z
2 -x,-y,-z
_cell_length_a                   9.354(1)
_cell_length_b                   10.211(2)
_cell_length_c                   10.424(2)
_cell_angle_alpha                64.04(1)
_cell_angle_beta                 75.72(1)
_cell_angle_gamma                68.90(1)
_cell_volume                     830.435
loop_
_atom_site_label
_atom_site_type_symbol
_atom_site_fract_x
_atom_site_fract_y
_atom_site_fract_z
Rb2 Rb 0.53859(4) 0.23467(4) 0.88963(4)
Cu1 Cu 1.10244(4) 0.12505(4) 0.48369(4)
O1 O 0.89119(25) 0.1523(3) 0.44132(25)
O2 O 1.01506(24) 0.10417(23) 0.67543(22)
C1 C 0.9543(3) 0.2176(3) 0.7125(3)
O3 O 0.8798(3) 0.2143(3) 0.82829(23)
C2 C 0.9758(3) 0.3695(3) 0.6020(3)
N1 N 1.0471(3) 0.3685(3) 0.4739(3)
C3 C 0.9277(3) 0.5014(3) 0.6295(3)
C4 C 0.8398(4) 0.5178(4) 0.7685(3)
O4 O 0.9174(3) 0.4828(3) 0.8644(3)
O5 O 0.6981(3) 0.5716(4) 0.7667(3)
O6 O 1.18555(23) 0.1266(3) 0.29678(22)
C5 C 1.3297(3) 0.0692(3) 0.2737(3)
O7 O 1.3946(3) 0.0423(3) 0.16623(24)
C6 C 1.4236(3) 0.0312(3) 0.3920(3)
N2 N 1.3401(3) 0.0511(3) 0.5108(3)
C7 C 1.5843(3) -0.0200(3) 0.3791(3)
C8 C 1.6806(3) -0.0531(4) 0.2488(3)
O8 O 1.7130(3) 0.0563(3) 0.14356(25)
O9 O 1.7190(3) -0.1874(3) 0.2623(3)
H1 H 0.885(4) 0.187(4) 0.357(5)
H2 H 0.830(7) 0.194(7) 0.487(6)
O1A O 1.10881(25) -0.1523(3) 0.55868(25)
Cu1A Cu 0.89756(4) -0.12505(4) 0.51631(4)
C3A C 1.0723(3) 0.4986(3) 0.3705(3)
N1A N 0.9529(3) 0.6315(3) 0.5261(3)
C7A C 1.4157(3) 0.0200(3) 0.6209(3)
N2A N 1.6599(3) -0.0511(3) 0.4892(3)
H1A H 1.115(4) -0.187(4) 0.643(5)
H2A H 1.170(7) -0.194(7) 0.513(6)
O2A O 0.98494(24) -0.10417(23) 0.32457(22)
N1A_2 N 0.9529(3) -0.3685(3) 0.5261(3)
O6A O 0.81445(23) -0.1266(3) 0.70322(22)
N2A_2 N 0.6599(3) -0.0511(3) 0.4892(3)
C2A C 1.0242(3) 0.6305(3) 0.3980(3)
C4A C 1.1602(4) 0.4822(4) 0.2315(3)
Cu1A_2 Cu 0.89756(4) 0.87495(4) 0.51631(4)
C6A C 1.5764(3) -0.0312(3) 0.6080(3)
C8A C 1.3194(3) 0.0531(4) 0.7512(3)
Cu1A_3 Cu 1.89756(4) -0.12505(4) 0.51631(4)
C1A C 1.0457(3) -0.2176(3) 0.2875(3)
C5A C 0.6703(3) -0.0692(3) 0.7263(3)
C1A_2 C 1.0457(3) 0.7824(3) 0.2875(3)
O4A O 1.0826(3) 0.5172(3) 0.1356(3)
O5A O 1.3019(3) 0.4284(4) 0.2333(3)
C5A_2 C 1.6703(3) -0.0692(3) 0.7263(3)
O8A O 1.2870(3) -0.0563(3) 0.85644(25)
O9A O 1.2810(3) 0.1874(3) 0.7377(3)
O3A O 1.1202(3) -0.2143(3) 0.17171(23)
C2A_2 C 1.0242(3) -0.3695(3) 0.3980(3)
O7A O 0.6054(3) -0.0423(3) 0.83377(24)
C6A_2 C 0.5764(3) -0.0312(3) 0.6080(3)
O10 O 0.6600(3) 0.3153(3) 0.5712(3)
H3 H 0.663(6) 0.413(6) 0.543(6)
H4 H 0.598(8) 0.324(7) 0.525(7)
O11 O 1.3858(3) 0.3816(3) 0.4857(3)
H5 H 1.359(6) 0.386(6) 0.407(6)
H6 H 1.337(8) 0.326(8) 0.546(7)
O12 O 0.2222(4) 0.4143(4) 0.9163(3)
H7 H 0.138(6) 0.448(5) 0.881(5)
H8 H 0.190(7) 0.438(7) 0.978(7)
O13 O 0.7850(4) 0.2635(3) 0.1940(3)
H9 H 0.749(7) 0.202(7) 0.183(6)
H10 H 0.713(8) 0.341(8) 0.162(7)
Rb1 Rb 1.08149(4) 0.13841(4) 0.04101(3)
O14? O 0.4598(9) 0.5082(15) 0.9653(10)
H11? H 0.528(7) 0.447(7) 1.018(6)
loop_
_geom_bond_atom_site_label_1
_geom_bond_atom_site_label_2
_geom_bond_site_symmetry_1
_geom_bond_site_symmetry_2
Cu1 O1 1_555 1_555
O1 H1 1_555 1_555
O2 Cu1 1_555 1_555
C1 O2 1_555 1_555
O3 C1 1_555 1_555
C2 C1 1_555 1_555
N1 Cu1 1_555 1_555
C3 C2 1_555 1_555
C4 C3 1_555 1_555
O4 C4 1_555 1_555
O5 C4 1_555 1_555
O6 Cu1 1_555 1_555
C5 O6 1_555 1_555
O7 C5 1_555 1_555
C6 C5 1_555 1_555
N2 Cu1 1_555 1_555
C7 C6 1_555 1_555
C8 C7 1_555 1_555
O8 C8 1_555 1_555
O9 C8 1_555 1_555
O10 H3 1_555 1_555
O11 H5 1_555 1_555
O12 H7 1_555 1_555
O13 H9 1_555 1_555
H2 O1 1_555 1_555
H4 O10 1_555 1_555
H6 O11 1_555 1_555
H8 O12 1_555 1_555
H10 O13 1_555 1_555
O1A Cu1 1_555 1_555
Cu1A O1 1_555 1_555
C3A N1 1_555 1_555
N1A C3 1_555 1_555
C7A N2 1_555 1_555
N2A C7 1_555 1_555
H1A O1A 1_555 1_555
H2A O1A 1_555 1_555
O2A Cu1A 1_555 1_555
N1A_2 Cu1A 1_555 1_555
O6A Cu1A 1_555 1_555
N2A_2 Cu1A 1_555 1_555
C2A C3A 1_555 1_555
C4A C3A 1_555 1_555
Cu1A_2 N1A 1_555 1_555
C6A C7A 1_555 1_555
C8A C7A 1_555 1_555
Cu1A_3 N2A 1_555 1_555
C1A O2A 1_555 1_555
C5A O6A 1_555 1_555
C1A_2 C2A 1_555 1_555
O4A C4A 1_555 1_555
O5A C4A 1_555 1_555
C5A_2 C6A 1_555 1_555
O8A C8A 1_555 1_555
O9A C8A 1_555 1_555
O3A C1A 1_555 1_555
C2A_2 C1A 1_555 1_555
O7A C5A 1_555 1_555
C6A_2 C5A 1_555 1_555
C2 N1 1_555 1_555
C6 N2 1_555 1_555
O1A Cu1A 1_555 1_555
N1A C2A 1_555 1_555
N2A C6A 1_555 1_555

#END
