
#######################################################################
#
#                 Cambridge Crystallographic Data Centre
#                                CCDC 
#
#######################################################################
#
# If this CIF has been generated from an entry in the Cambridge 
# Structural Database, then it will include bibliographic, chemical, 
# crystal, experimental, refinement or atomic coordinate data resulting 
# from the CCDC's data processing and validation procedures.
#
#######################################################################

data_HAJCUR01
_symmetry_cell_setting           trigonal
_symmetry_space_group_name_H-M   'P 32'
_symmetry_Int_Tables_number      145
_space_group_name_Hall           'P 32'
loop_
_symmetry_equiv_pos_site_id
_symmetry_equiv_pos_as_xyz
1 x,y,z
2 -y,x-y,2/3+z
3 -x+y,-x,1/3+z
_cell_length_a                   12.7814(6)
_cell_length_b                   12.7814(6)
_cell_length_c                   13.5912(12)
_cell_angle_alpha                90
_cell_angle_beta                 90
_cell_angle_gamma                120
_cell_volume                     1922.85
loop_
_atom_site_label
_atom_site_type_symbol
_atom_site_fract_x
_atom_site_fract_y
_atom_site_fract_z
C1 C 0.0112(2) 0.0236(2) 0.47050(19)
C2 C 0.0907(2) -0.0361(2) 0.46959(17)
C3 C 0.2457(3) -0.0467(3) 0.37372(19)
H1 H 0.2054 -0.1348 0.3858
H2 H 0.3197 -0.0061 0.4145
C4 C 0.2769(3) -0.0191(3) 0.26484(19)
H3 H 0.3525 -0.0198 0.2503
H4 H 0.2116 -0.0824 0.2243
C5 C 0.4035(3) 0.1991(3) 0.2861(2)
H5 H 0.3953 0.1910 0.3578
H6 H 0.4144 0.2777 0.2663
H7 H 0.4737 0.1932 0.2652
C6 C 0.3042(3) 0.1176(3) 0.1302(2)
H8 H 0.3710 0.1071 0.1069
H9 H 0.3205 0.1990 0.1137
H10 H 0.2289 0.0577 0.0986
Cu1 Cu 0.14187(3) 0.09368(3) 0.299939(19)
N1 N 0.1646(2) -0.0008(2) 0.39727(15)
N2 N 0.2924(2) 0.1007(2) 0.23886(15)
O1 O 0.02810(17) 0.09622(17) 0.39986(13)
O2 O -0.06299(18) -0.00454(17) 0.53786(14)
O3 O 0.07565(18) -0.11220(17) 0.53685(13)
Cu1B Cu -0.04819(4) -0.14187(3) 0.633272(19)
O2A O 0.00454(17) -0.05845(25) 0.20453(14)
O3A O 0.11220(17) 0.18785(25) 0.20352(13)
C7 C 0.2901(2) 0.6618(2) 0.12693(18)
C8 C 0.3614(2) 0.7959(2) 0.09561(17)
C9 C 0.5459(2) 0.9841(2) 0.13580(17)
H11 H 0.5286 1.0426 0.1693
H12 H 0.5542 1.0013 0.0643
C10 C 0.6604(2) 0.9917(2) 0.17687(18)
H13 H 0.6886 0.9500 0.1319
H14 H 0.7248 1.0774 0.1817
C11 C 0.7379(2) 0.9154(3) 0.3048(2)
H15 H 0.8124 0.9938 0.3097
H16 H 0.7480 0.8660 0.2547
H17 H 0.7206 0.8741 0.3685
C12 C 0.6280(3) 1.0152(2) 0.3510(2)
H18 H 0.6165 0.9789 0.4165
H19 H 0.5594 1.0264 0.3352
H20 H 0.7027 1.0937 0.3502
Cu2 Cu 0.47220(2) 0.77766(3) 0.263770(19)
N3 N 0.4502(2) 0.86059(19) 0.15479(15)
N4 N 0.63630(19) 0.93413(19) 0.27680(15)
O4 O 0.32378(17) 0.63557(16) 0.20696(12)
O5 O 0.20902(16) 0.59077(16) 0.07111(13)
O6 O 0.33024(16) 0.82886(16) 0.01798(13)
Cu2A Cu 0.22234(3) 0.69454(4) -0.069563(19)
O5B O 0.38175(23) 0.79098(16) 0.40444(13)
O6B O 0.49862(23) 0.66976(16) 0.35131(13)
C13 C 0.7079(2) 0.3363(2) 0.18090(18)
C14 C 0.7418(2) 0.4662(2) 0.20970(17)
C15 C 0.7084(3) 0.6305(3) 0.1623(2)
H21 H 0.7912 0.6937 0.1806
H22 H 0.6517 0.6253 0.2142
C16 C 0.5789(6) 0.6074(6) 0.1277(4)
H23 H 0.5158 0.5563 0.1759
H24 H 0.5795 0.6847 0.1203
C17 C 0.4177(7) 0.4857(8) 0.0150(6)
H25 H 0.3963 0.5494 0.0166
H26 H 0.3755 0.4279 0.0682
H27 H 0.3938 0.4438 -0.0485
C18 C 0.6150(11) 0.6248(9) -0.0492(6)
H28 H 0.5947 0.6892 -0.0468
H29 H 0.5883 0.5820 -0.1121
H30 H 0.7026 0.6599 -0.0427
Cu3 Cu 0.60589(3) 0.41435(3) 0.04303(2)
N5 N 0.7020(2) 0.5147(2) 0.14886(16)
N6 N 0.5563(3) 0.5428(2) 0.02882(18)
O7 O 0.64825(18) 0.29625(17) 0.10181(14)
O8 O 0.73782(19) 0.28015(17) 0.23767(14)
O9 O 0.80420(18) 0.51266(17) 0.28784(13)
Cu3B Cu 0.80846(4) 0.39411(3) 0.37636(2)
O8A O 0.71985(17) 0.45767(25) -0.09566(14)
O9A O 0.48734(17) 0.29154(25) -0.04549(13)
H31 H 0.235(5) 0.360(5) 0.251(4)
H32 H 0.275(6) 0.462(6) 0.260(5)
O10 O 0.2943(3) 0.4080(2) 0.2704(2)
O11 O 0.7258(4) 0.9926(4) 0.5925(4)
C19? C 0.6723(6) 0.6584(6) 0.0613(5)
C20? C 0.4591(7) 0.5164(8) 0.0863(7)
C21? C 0.5399(9) 0.5610(8) -0.0769(6)
H33? H 0.6570 0.7268 0.0669
H34? H 0.7376 0.6798 0.0127
H35? H 0.4420 0.5830 0.0834
H36? H 0.4764 0.5049 0.1544
H37? H 0.3887 0.4421 0.0625
H38? H 0.5067 0.6152 -0.0827
H39? H 0.4841 0.4830 -0.1071
H40? H 0.6181 0.5968 -0.1106
loop_
_geom_bond_atom_site_label_1
_geom_bond_atom_site_label_2
_geom_bond_site_symmetry_1
_geom_bond_site_symmetry_2
C1 C2 1_555 1_555
C2 N1 1_555 1_555
C3 H1 1_555 1_555
H2 C3 1_555 1_555
C4 C3 1_555 1_555
H3 C4 1_555 1_555
H4 C4 1_555 1_555
C5 H5 1_555 1_555
H6 C5 1_555 1_555
H7 C5 1_555 1_555
C6 H8 1_555 1_555
H9 C6 1_555 1_555
H10 C6 1_555 1_555
C7 C8 1_555 1_555
C8 N3 1_555 1_555
C9 H11 1_555 1_555
H12 C9 1_555 1_555
C10 C9 1_555 1_555
H13 C10 1_555 1_555
H14 C10 1_555 1_555
C11 H15 1_555 1_555
H16 C11 1_555 1_555
H17 C11 1_555 1_555
C12 H18 1_555 1_555
H19 C12 1_555 1_555
H20 C12 1_555 1_555
C13 C14 1_555 1_555
C14 N5 1_555 1_555
C15 H21 1_555 1_555
H22 C15 1_555 1_555
C16 C15 1_555 1_555
H23 C16 1_555 1_555
H24 C16 1_555 1_555
C17 H25 1_555 1_555
H26 C17 1_555 1_555
H27 C17 1_555 1_555
C18 H28 1_555 1_555
H29 C18 1_555 1_555
H30 C18 1_555 1_555
Cu1 N1 1_555 1_555
Cu2 N3 1_555 1_555
Cu3 N5 1_555 1_555
H31 O10 1_555 1_555
H32 O10 1_555 1_555
N1 C3 1_555 1_555
N2 C4 1_555 1_555
N3 C9 1_555 1_555
N4 C10 1_555 1_555
N5 C15 1_555 1_555
N6 C16 1_555 1_555
O1 C1 1_555 1_555
O2 C1 1_555 1_555
O3 C2 1_555 1_555
O4 C7 1_555 1_555
O5 C7 1_555 1_555
O6 C8 1_555 1_555
O7 C13 1_555 1_555
O8 C13 1_555 1_555
O9 C14 1_555 1_555
Cu1B O2 1_555 1_555
Cu2A O5 1_555 1_555
Cu3B O8 1_555 1_555
O2A Cu1 1_555 1_555
O3A Cu1 1_555 1_555
O5B Cu2 1_555 1_555
O6B Cu2 1_555 1_555
O8A Cu3 1_555 1_555
O9A Cu3 1_555 1_555
C5 N2 1_555 1_555
C6 N2 1_555 1_555
C11 N4 1_555 1_555
C12 N4 1_555 1_555
C17 N6 1_555 1_555
C18 N6 1_555 1_555
Cu1 N2 1_555 1_555
Cu1 O1 1_555 1_555
Cu2 N4 1_555 1_555
Cu2 O4 1_555 1_555
Cu3 N6 1_555 1_555
Cu3 O7 1_555 1_555
O3 Cu1B 1_555 1_555
O6 Cu2A 1_555 1_555
O9 Cu3B 1_555 1_555

#END
