
#######################################################################
#
#                 Cambridge Crystallographic Data Centre
#                                CCDC 
#
#######################################################################
#
# If this CIF has been generated from an entry in the Cambridge 
# Structural Database, then it will include bibliographic, chemical, 
# crystal, experimental, refinement or atomic coordinate data resulting 
# from the CCDC's data processing and validation procedures.
#
#######################################################################

data_HAJDIH
_symmetry_cell_setting           triclinic
_symmetry_space_group_name_H-M   'P -1'
_symmetry_Int_Tables_number      2
_space_group_name_Hall           '-P 1'
loop_
_symmetry_equiv_pos_site_id
_symmetry_equiv_pos_as_xyz
1 x,y,z
2 -x,-y,-z
_cell_length_a                   10.310(5)
_cell_length_b                   10.521(5)
_cell_length_c                   12.168(5)
_cell_angle_alpha                80.808(5)
_cell_angle_beta                 81.973(5)
_cell_angle_gamma                79.638(5)
_cell_volume                     1273.3
loop_
_atom_site_label
_atom_site_type_symbol
_atom_site_fract_x
_atom_site_fract_y
_atom_site_fract_z
C1 C 0.4456(10) 0.2012(10) -0.0108(9)
H1 H 0.4369 0.1788 0.0667
C2 C 0.3361(10) 0.2716(11) -0.0588(10)
H2 H 0.2571 0.2967 -0.0148
C3 C 0.3472(11) 0.3034(10) -0.1731(9)
H3 H 0.2754 0.3507 -0.2082
C4 C 0.4673(12) 0.2640(10) -0.2362(9)
C5 C 0.5742(9) 0.1939(9) -0.1805(8)
C6 C 0.6970(11) 0.1542(12) -0.2434(9)
C7 C 0.9127(15) 0.045(2) -0.2412(14)
H4 H 0.9847 0.0053 -0.2029
C8 C 0.9286(19) 0.063(3) -0.3585(14)
H5 H 1.0046 0.0208 -0.3967
C9 C 0.8359(15) 0.140(2) -0.4171(13)
H6 H 0.8537 0.1665 -0.4937
C10 C 0.7143(13) 0.1800(13) -0.3605(10)
C11 C 0.6029(14) 0.2551(11) -0.4170(9)
C12 C 0.4815(12) 0.2962(10) -0.3573(9)
C13 C 0.3933(16) 0.3872(13) -0.5174(11)
C14 C 0.5098(14) 0.3532(11) -0.5781(10)
C15 C 0.5274(19) 0.3807(12) -0.7020(12)
H7 H 0.6070 0.3570 -0.7457
C16 C 0.299(2) 0.4796(18) -0.6740(16)
H8 H 0.2259 0.5258 -0.7085
C17 C 0.6393(9) 0.0269(10) 0.2729(8)
C18 C 0.5658(12) 0.0121(10) 0.3909(8)
C19 C 0.9004(10) 0.2545(9) 0.0216(10)
C20 C 0.9527(9) 0.3819(10) 0.0083(11)
C21 C 1.0025(10) 0.4393(10) -0.0996(12)
C22 C 0.9476(10) 0.4413(10) 0.1062(12)
C23 C 0.8990(18) 0.3839(17) 0.2269(16)
H9 H 0.8674 0.3050 0.2363
C24 C 0.899(2) 0.445(2) 0.330(2)
H10 H 0.8661 0.4049 0.3994
C25 C 0.943(2) 0.553(3) 0.324(2)
H11 H 0.9419 0.5908 0.3882
C26 C 0.4170(19) 0.4429(13) -0.7442(11)
C27 C 1.003(2) 0.382(2) -0.211(2)
H12 H 0.9689 0.3052 -0.2077
C28 C 0.4272(8) 0.0668(8) 0.4083(6)
C29 C 0.6351(9) -0.0611(9) 0.4825(6)
C30 C 0.7655(9) -0.1223(14) 0.4616(8)
H13 H 0.8073 -0.1185 0.3885
C31 C 0.8336(9) -0.1892(17) 0.5498(12)
H14 H 0.9208 -0.2302 0.5358
C32 C 0.7712(12) -0.1950(17) 0.6590(10)
H15 H 0.8167 -0.2397 0.7181
C33 C 0.3592(12) 0.1338(14) 0.3200(6)
H16 H 0.4009 0.1376 0.2470
N1 N 0.5634(7) 0.1630(7) -0.0676(6)
N2 N 0.7984(10) 0.0821(12) -0.1843(8)
N3 N 0.6203(13) 0.2842(11) -0.5325(9)
N4 N 0.3801(12) 0.3605(10) -0.4073(9)
N5 N 0.2836(17) 0.4539(14) -0.5657(12)
O1 O 0.7784(7) 0.2542(7) 0.0471(7)
O2 O 0.9787(8) 0.1549(7) 0.0017(9)
O3 O 0.7609(11) 0.0195(10) 0.2604(9)
O4 O 0.5772(7) 0.0533(8) 0.1913(6)
Cl1 Cl 0.3995(7) 0.4896(4) -0.8800(4)
Pb1 Pb 0.76337(3) 0.03798(3) 0.03963(3)
C1A C 1.5544(10) 0.7988(10) 0.0108(9)
H1A H 1.5631 0.8212 -0.0667
C2A C 1.6639(10) 0.7284(11) 0.0588(10)
H2A H 1.7429 0.7033 0.0148
C3A C 1.6528(11) 0.6966(10) 0.1731(9)
H3A H 1.7246 0.6493 0.2082
C4A C 1.5327(12) 0.7360(10) 0.2362(9)
C5A C 1.4258(9) 0.8061(9) 0.1805(8)
C6A C 1.3030(11) 0.8458(12) 0.2434(9)
C7A C 1.0873(15) 0.955(2) 0.2412(14)
H4A H 1.0153 0.9947 0.2029
C8A C 1.0714(19) 0.937(3) 0.3585(14)
H5A H 0.9954 0.9792 0.3967
C9A C 1.1641(15) 0.860(2) 0.4171(13)
H6A H 1.1463 0.8335 0.4937
C10A C 1.2857(13) 0.8200(13) 0.3605(10)
C11A C 1.3971(14) 0.7449(11) 0.4170(9)
C12A C 1.5185(12) 0.7038(10) 0.3573(9)
C13A C 1.6067(16) 0.6128(13) 0.5174(11)
C14A C 1.4902(14) 0.6468(11) 0.5781(10)
C15A C 1.4726(19) 0.6193(12) 0.7020(12)
H7A H 1.3930 0.6430 0.7457
C16A C 1.701(2) 0.5204(18) 0.6740(16)
H8A H 1.7741 0.4742 0.7085
C17A C 0.3607(9) -0.0269(10) 0.7271(8)
C18A C 0.4342(12) -0.0121(10) 0.6091(8)
C19A C 1.0996(10) 0.7455(9) -0.0216(10)
C20A C 1.0473(9) 0.6181(10) -0.0083(11)
C21A C 0.9975(10) 0.5607(10) 0.0996(12)
C22A C 1.0524(10) 0.5587(10) -0.1062(12)
C23A C 1.1010(18) 0.6161(17) -0.2269(16)
H9A H 1.1326 0.6950 -0.2363
C24A C 1.101(2) 0.555(2) -0.330(2)
H10A H 1.1339 0.5951 -0.3994
C25A C 1.057(2) 0.447(3) -0.324(2)
H11A H 1.0581 0.4092 -0.3882
C26A C 1.5830(19) 0.5571(13) 0.7442(11)
C27A C 0.997(2) 0.618(2) 0.211(2)
H12A H 1.0311 0.6948 0.2077
C28A C 0.5728(8) -0.0668(8) 0.5917(6)
C29A C 0.3649(9) 0.0611(9) 0.5175(6)
C30A C 0.2345(9) 0.1223(14) 0.5384(8)
H13A H 0.1927 0.1185 0.6115
C31A C 0.1664(9) 0.1892(17) 0.4502(12)
H14A H 0.0792 0.2302 0.4642
C32A C 0.2288(12) 0.1950(17) 0.3410(10)
H15A H 0.1833 0.2397 0.2819
C33A C 0.6408(12) -0.1338(14) 0.6800(6)
H16A H 0.5991 -0.1376 0.7530
N1A N 1.4366(7) 0.8370(7) 0.0676(6)
N2A N 1.2016(10) 0.9179(12) 0.1843(8)
N3A N 1.3797(13) 0.7158(11) 0.5325(9)
N4A N 1.6199(12) 0.6395(10) 0.4073(9)
N5A N 1.7164(17) 0.5461(14) 0.5657(12)
O1A O 1.2216(7) 0.7458(7) -0.0471(7)
O2A O 1.0213(8) 0.8451(7) -0.0017(9)
O3A O 0.2391(11) -0.0195(10) 0.7396(9)
O3A_2 O 1.2391(11) 0.9805(10) -0.2604(9)
O4A O 0.4228(7) -0.0533(8) 0.8087(6)
O4A_2 O 1.4228(7) 0.9467(8) -0.1913(6)
Cl1A Cl 1.6005(7) 0.5104(4) 0.8800(4)
Pb1A Pb 1.23663(3) 0.96202(3) -0.03963(3)
Pb1A_2 Pb 0.23663(3) -0.03798(3) 0.96037(3)
loop_
_geom_bond_atom_site_label_1
_geom_bond_atom_site_label_2
_geom_bond_site_symmetry_1
_geom_bond_site_symmetry_2
C1 H1 1_555 1_555
C2 C1 1_555 1_555
H2 C2 1_555 1_555
C3 C2 1_555 1_555
H3 C3 1_555 1_555
C4 C3 1_555 1_555
C5 C4 1_555 1_555
C6 C5 1_555 1_555
C7 H4 1_555 1_555
C8 C7 1_555 1_555
H5 C8 1_555 1_555
C9 C8 1_555 1_555
H6 C9 1_555 1_555
C10 C6 1_555 1_555
C11 C10 1_555 1_555
C12 C4 1_555 1_555
C13 C14 1_555 1_555
C14 C15 1_555 1_555
C15 H7 1_555 1_555
C16 H8 1_555 1_555
C17 C18 1_555 1_555
C18 C28 1_555 1_555
C19 C20 1_555 1_555
C20 C21 1_555 1_555
C21 C27 1_555 1_555
C22 C20 1_555 1_555
C23 C22 1_555 1_555
H9 C23 1_555 1_555
C24 C23 1_555 1_555
H10 C24 1_555 1_555
C25 C24 1_555 1_555
H11 C25 1_555 1_555
C26 C15 1_555 1_555
C27 H12 1_555 1_555
C28 C33 1_555 1_555
C29 C18 1_555 1_555
C30 C29 1_555 1_555
H13 C30 1_555 1_555
C31 C30 1_555 1_555
H14 C31 1_555 1_555
C32 C31 1_555 1_555
H15 C32 1_555 1_555
C33 H16 1_555 1_555
N1 C1 1_555 1_555
N2 C6 1_555 1_555
N3 C11 1_555 1_555
N4 C12 1_555 1_555
N5 C13 1_555 1_555
O1 C19 1_555 1_555
O2 C19 1_555 1_555
O3 C17 1_555 1_555
O4 C17 1_555 1_555
Cl1 C26 1_555 1_555
Pb1 N1 1_555 1_555
C1A H1A 1_555 1_555
C2A C1A 1_555 1_555
H2A C2A 1_555 1_555
C3A C2A 1_555 1_555
H3A C3A 1_555 1_555
C4A C3A 1_555 1_555
C5A C4A 1_555 1_555
C6A C5A 1_555 1_555
C7A H4A 1_555 1_555
C8A C7A 1_555 1_555
H5A C8A 1_555 1_555
C9A C8A 1_555 1_555
H6A C9A 1_555 1_555
C10A C6A 1_555 1_555
C11A C10A 1_555 1_555
C12A C4A 1_555 1_555
C13A C14A 1_555 1_555
C14A C15A 1_555 1_555
C15A H7A 1_555 1_555
C16A H8A 1_555 1_555
C17A C18A 1_555 1_555
C18A C28A 1_555 1_555
C19A C20A 1_555 1_555
C20A C21A 1_555 1_555
C21A C22 1_555 1_555
C22A C21 1_555 1_555
C23A C22A 1_555 1_555
H9A C23A 1_555 1_555
C24A C23A 1_555 1_555
H10A C24A 1_555 1_555
C25A C27 1_555 1_555
H11A C25A 1_555 1_555
C26A C15A 1_555 1_555
C27A C25 1_555 1_555
H12A C27A 1_555 1_555
C28A C29 1_555 1_555
C29A C28 1_555 1_555
C30A C29A 1_555 1_555
H13A C30A 1_555 1_555
C31A C30A 1_555 1_555
H14A C31A 1_555 1_555
C32A C33 1_555 1_555
H15A C32A 1_555 1_555
C33A C32 1_555 1_555
H16A C33A 1_555 1_555
N1A C1A 1_555 1_555
N2A C6A 1_555 1_555
N3A C11A 1_555 1_555
N4A C12A 1_555 1_555
N5A C13A 1_555 1_555
O1A C19A 1_555 1_555
O2A C19A 1_555 1_555
O3A C17A 1_555 1_555
O3A_2 Pb1A 1_555 1_555
O4A C17A 1_555 1_555
O4A_2 Pb1A 1_555 1_555
Cl1A C26A 1_555 1_555
Pb1A N1A 1_555 1_555
Pb1A_2 O3A 1_555 1_555
C5 N1 1_555 1_555
C7 N2 1_555 1_555
C9 C10 1_555 1_555
C11 C12 1_555 1_555
C13 N4 1_555 1_555
C14 N3 1_555 1_555
C16 C26 1_555 1_555
C16 N5 1_555 1_555
N2 Pb1 1_555 1_555
O1 Pb1 1_555 1_555
O2 Pb1 1_555 1_555
O3 Pb1 1_555 1_555
O4 Pb1 1_555 1_555
C5A N1A 1_555 1_555
C7A N2A 1_555 1_555
C9A C10A 1_555 1_555
C11A C12A 1_555 1_555
C13A N4A 1_555 1_555
C14A N3A 1_555 1_555
C16A C26A 1_555 1_555
C16A N5A 1_555 1_555
C18A C29A 1_555 1_555
C20A C22A 1_555 1_555
C21A C27A 1_555 1_555
C24A C25A 1_555 1_555
C28A C33A 1_555 1_555
C31A C32A 1_555 1_555
N2A Pb1A 1_555 1_555
O1A Pb1A 1_555 1_555
O2A Pb1A 1_555 1_555
O4A Pb1A_2 1_555 1_555

#END
