
#######################################################################
#
#                 Cambridge Crystallographic Data Centre
#                                CCDC 
#
#######################################################################
#
# If this CIF has been generated from an entry in the Cambridge 
# Structural Database, then it will include bibliographic, chemical, 
# crystal, experimental, refinement or atomic coordinate data resulting 
# from the CCDC's data processing and validation procedures.
#
#######################################################################

data_HAJGUW
_symmetry_cell_setting           monoclinic
_symmetry_space_group_name_H-M   'P 21/c'
_symmetry_Int_Tables_number      14
_space_group_name_Hall           '-P 2ybc'
loop_
_symmetry_equiv_pos_site_id
_symmetry_equiv_pos_as_xyz
1 x,y,z
2 -x,1/2+y,1/2-z
3 -x,-y,-z
4 x,1/2-y,1/2+z
_cell_length_a                   8.4774(13)
_cell_length_b                   10.5381(16)
_cell_length_c                   17.249(3)
_cell_angle_alpha                90
_cell_angle_beta                 87.208(12)
_cell_angle_gamma                90
_cell_volume                     1539.12
loop_
_atom_site_label
_atom_site_type_symbol
_atom_site_fract_x
_atom_site_fract_y
_atom_site_fract_z
C1 C 0.5543(17) 0.5678(14) 0.8823(8)
H1 H 0.4955 0.5232 0.9228
H2 H 0.6353 0.5135 0.8601
H3 H 0.4845 0.5924 0.8428
C2 C 0.774(2) 0.9021(15) 0.9627(11)
H4 H 0.7345 0.9724 0.9342
H5 H 0.8859 0.8944 0.9518
H6 H 0.7540 0.9161 1.0173
C3 C 0.8495(16) 0.7809(15) 0.7649(8)
H7 H 0.7602 0.8316 0.7624
C4 C 0.9586(14) 0.7851(15) 0.7004(7)
H8 H 0.9377 0.8241 0.6537
C5 C 1.1011(11) 0.7247(12) 0.7140(7)
C6 C 1.1149(16) 0.6445(14) 0.7747(8)
H9 H 1.2008 0.5902 0.7773
C7 C 0.9957(16) 0.6466(14) 0.8331(7)
H10 H 1.0087 0.6001 0.8782
C8 C 1.2395(19) 0.7235(12) 0.6504(7)
C9 C 1.1903(14) 0.7485(12) 0.5708(7)
H11 H 1.0843 0.7587 0.5606
C10 C 1.3053(14) 0.7564(12) 0.5124(7)
H12 H 1.2757 0.7704 0.4619
C11 C 1.4976(14) 0.7203(14) 0.6007(7)
H13 H 1.6034 0.7101 0.6112
C12 C 1.3832(16) 0.7110(14) 0.6602(7)
H14 H 1.4150 0.6946 0.7101
C13 C 0.3933(19) 0.9022(14) 0.8402(8)
N1 N 0.8609(14) 0.7145(11) 0.8264(6)
N2 N 1.4560(11) 0.7448(8) 0.5254(6)
N3 N 0.5048(17) 0.8564(16) 0.8503(8)
S1 S 0.2301(6) 0.9775(5) 0.8235(3)
Sn1 Sn 0.65962(9) 0.73241(7) 0.92925(5)
Cl1 Cl 0.8121(4) 0.5958(4) 1.0212(2)
N2C N 0.4560(11) 0.7552(8) 1.0254(6)
Sn1C Sn 1.65962(9) 0.76759(7) 0.42925(5)
loop_
_geom_bond_atom_site_label_1
_geom_bond_atom_site_label_2
_geom_bond_site_symmetry_1
_geom_bond_site_symmetry_2
C1 H1 1_555 1_555
H2 C1 1_555 1_555
H3 C1 1_555 1_555
C2 H4 1_555 1_555
H5 C2 1_555 1_555
H6 C2 1_555 1_555
C3 H7 1_555 1_555
C4 C3 1_555 1_555
H8 C4 1_555 1_555
C5 C4 1_555 1_555
C6 C5 1_555 1_555
H9 C6 1_555 1_555
C7 C6 1_555 1_555
H10 C7 1_555 1_555
C8 C5 1_555 1_555
C9 C8 1_555 1_555
H11 C9 1_555 1_555
C10 C9 1_555 1_555
H12 C10 1_555 1_555
C11 H13 1_555 1_555
C12 C8 1_555 1_555
H14 C12 1_555 1_555
C13 N3 1_555 1_555
N1 C3 1_555 1_555
N2 C10 1_555 1_555
N3 Sn1 1_555 1_555
S1 C13 1_555 1_555
Sn1 C1 1_555 1_555
Cl1 Sn1 1_555 1_555
N2C Sn1 1_555 1_555
Sn1C N2 1_555 1_555
C2 Sn1 1_555 1_555
C7 N1 1_555 1_555
C11 C12 1_555 1_555
C11 N2 1_555 1_555
N1 Sn1 1_555 1_555

#END
