
#######################################################################
#
#                 Cambridge Crystallographic Data Centre
#                                CCDC 
#
#######################################################################
#
# If this CIF has been generated from an entry in the Cambridge 
# Structural Database, then it will include bibliographic, chemical, 
# crystal, experimental, refinement or atomic coordinate data resulting 
# from the CCDC's data processing and validation procedures.
#
#######################################################################

data_HAJHUW
_symmetry_cell_setting           triclinic
_symmetry_space_group_name_H-M   'P -1'
_symmetry_Int_Tables_number      2
_space_group_name_Hall           '-P 1'
loop_
_symmetry_equiv_pos_site_id
_symmetry_equiv_pos_as_xyz
1 x,y,z
2 -x,-y,-z
_cell_length_a                   9.833(2)
_cell_length_b                   11.107(2)
_cell_length_c                   12.615(3)
_cell_angle_alpha                74.884(3)
_cell_angle_beta                 89.323(4)
_cell_angle_gamma                69.755(3)
_cell_volume                     1243.22
loop_
_atom_site_label
_atom_site_type_symbol
_atom_site_fract_x
_atom_site_fract_y
_atom_site_fract_z
Ni1 Ni 0.83359(4) 0.32953(3) 0.70160(3)
Ni2 Ni 1.37212(4) -0.35678(3) 0.48175(3)
Ni3 Ni 0.70039(4) 0.11460(3) 0.78541(3)
S1 S 1.27100(7) -0.46190(6) 0.72732(5)
S2 S 0.60053(7) 0.95585(6) 0.18890(5)
Na1 Na 1.55979(13) -0.24284(12) 1.02894(9)
O1 O 0.91110(19) 0.12295(17) 0.75568(15)
O2 O 1.0055(2) 0.07138(18) 0.60260(15)
O3 O 1.1909(2) -0.34273(18) 1.14101(15)
O4 O 1.3035(2) -0.19519(18) 1.08385(15)
O5 O 1.3434(2) -0.58371(18) 0.81306(16)
O6 O 1.1453(2) -0.46576(18) 0.66664(15)
O7 O 1.3744(2) -0.42434(18) 0.65241(15)
O8 O 0.6611(2) 1.17373(17) 0.50368(15)
O9 O 0.7095(2) 1.01707(17) 0.66924(15)
O10 O 0.7693(2) 0.53250(18) 0.64473(15)
O11 O 0.59872(19) 0.55567(17) 0.51543(15)
O12 O 0.5060(2) 0.88473(18) 0.16754(15)
O13 O 0.5324(2) 1.09991(18) 0.15028(15)
O14 O 0.7409(2) 0.90316(19) 0.14486(15)
O15 O 1.0446(2) 0.31927(19) 0.71535(17)
H1 H 1.104(3) 0.258(3) 0.761(2)
H2 H 1.079(3) 0.376(3) 0.698(3)
O16 O 0.8510(2) 0.31307(18) 0.53969(16)
H3 H 0.884(3) 0.352(3) 0.492(2)
H4 H 0.900(3) 0.2335(19) 0.549(3)
O17 O 0.7889(2) -0.05872(19) 0.91029(17)
H5 H 0.796(4) -0.131(2) 0.906(3)
H6 H 0.766(4) -0.046(3) 0.9689(19)
O18 O 1.8057(3) -0.3186(2) 0.9812(2)
O19 O 1.5727(4) -0.3812(4) 0.8747(4)
O21 O 0.6390(2) 0.30381(17) 0.68288(15)
H9 H 0.574(3) 0.357(2) 0.700(3)
C1 C 1.0754(3) -0.0969(3) 0.7720(2)
C2 C 1.1116(3) -0.1191(3) 0.8838(2)
H10 H 1.0829 -0.0480 0.9150
C3 C 1.1909(3) -0.2477(3) 0.9492(2)
C4 C 1.2338(3) -0.3554(2) 0.9029(2)
H11 H 1.2827 -0.4418 0.9464
C5 C 1.2016(3) -0.3302(2) 0.7901(2)
C6 C 1.1245(3) -0.2027(3) 0.7237(2)
H12 H 1.1057 -0.1879 0.6484
C7 C 0.9919(3) 0.0415(3) 0.7035(2)
C8 C 1.2320(3) -0.2644(3) 1.0674(2)
C9 C 0.6823(3) 0.9556(3) 0.5045(2)
C10 C 0.6968(3) 0.8250(2) 0.5626(2)
H13 H 0.7209 0.7953 0.6384
C11 C 0.6749(3) 0.7397(2) 0.5057(2)
C12 C 0.6436(3) 0.7824(2) 0.3917(2)
H14 H 0.6287 0.7256 0.3541
C13 C 0.6347(3) 0.9110(3) 0.3342(2)
C14 C 0.6523(3) 0.9982(2) 0.3902(2)
H15 H 0.6441 1.0844 0.3516
C15 C 0.6866(3) 1.0568(3) 0.5652(2)
C16 C 0.6816(3) 0.5995(2) 0.5618(2)
O3A O 0.8091(2) 0.34273(18) 0.85899(15)
O8A O 1.3389(2) -0.17373(17) 0.49632(15)
O11_2 O 1.59872(19) -0.44433(17) 0.51543(15)
O11A O 1.40128(19) -0.55567(17) 0.48457(15)
O16A O 1.1490(2) -0.31307(18) 0.46031(16)
O21A O 1.3610(2) -0.30381(17) 0.31712(15)
O4A O 0.6965(2) 0.19519(18) 0.91615(15)
O9_2 O 0.7095(2) 0.01707(17) 0.66924(15)
O12A O 0.4940(2) 0.11527(18) 0.83246(15)
O5A O 1.6566(2) -0.41629(18) 1.18694(16)
O12_2 O 1.5060(2) -0.11527(18) 1.16754(15)
O13A O 1.4676(2) -0.09991(18) 0.84972(15)
Ni1A Ni 1.16641(4) -0.32953(3) 1.29840(3)
Ni3A Ni 1.29961(4) -0.11460(3) 1.21459(3)
Na1A Na 1.44021(13) -0.75716(12) 0.97106(9)
Ni2A Ni 0.62788(4) 1.35678(3) 0.51825(3)
Ni3_2 Ni 0.70039(4) 1.11460(3) 0.78541(3)
Ni2_2 Ni 0.37212(4) 0.64322(3) 0.48175(3)
Ni2A_2 Ni 0.62788(4) 0.35678(3) 0.51825(3)
Ni3A_2 Ni 0.29961(4) 0.88540(3) 0.21459(3)
Na1_2 Na 0.55979(13) 0.75716(12) 0.02894(9)
Na1A_2 Na 0.44021(13) 1.24284(12) -0.02894(9)
H3A H 1.116(3) -0.352(3) 0.508(2)
H4A H 1.100(3) -0.2335(19) 0.451(3)
H9A H 1.426(3) -0.357(2) 0.300(3)
O20 O 0.0456(3) 0.4864(3) 1.1368(3)
H7 H 0.087(4) 0.543(4) 1.135(4)
H8 H 0.043(5) 0.447(4) 1.2041(19)
loop_
_geom_bond_atom_site_label_1
_geom_bond_atom_site_label_2
_geom_bond_site_symmetry_1
_geom_bond_site_symmetry_2
Ni1 O1 1_555 1_555
Ni2 O7 1_555 1_555
Ni3 O1 1_555 1_555
S1 O5 1_555 1_555
S2 O12 1_555 1_555
Na1 O4 1_555 1_555
O1 C7 1_555 1_555
O2 C7 1_555 1_555
O3 C8 1_555 1_555
O4 C8 1_555 1_555
O5 Na1A 1_555 1_555
O6 S1 1_555 1_555
O7 S1 1_555 1_555
O8 C15 1_555 1_555
O9 C15 1_555 1_555
O10 Ni1 1_555 1_555
O11 C16 1_555 1_555
O12 Ni3A_2 1_555 1_555
O13 S2 1_555 1_555
O14 S2 1_555 1_555
O15 Ni1 1_555 1_555
H1 O15 1_555 1_555
H2 O15 1_555 1_555
O16 Ni1 1_555 1_555
H3 O16 1_555 1_555
H4 O16 1_555 1_555
O17 Ni3 1_555 1_555
H5 O17 1_555 1_555
H6 O17 1_555 1_555
O18 Na1 1_555 1_555
O19 Na1 1_555 1_555
O20 H7 1_555 1_555
H8 O20 1_555 1_555
O21 Ni1 1_555 1_555
H9 O21 1_555 1_555
C1 C2 1_555 1_555
C2 H10 1_555 1_555
C3 C2 1_555 1_555
C4 C3 1_555 1_555
H11 C4 1_555 1_555
C5 S1 1_555 1_555
C6 C1 1_555 1_555
H12 C6 1_555 1_555
C7 C1 1_555 1_555
C8 C3 1_555 1_555
C9 C10 1_555 1_555
C10 H13 1_555 1_555
C11 C10 1_555 1_555
C12 C11 1_555 1_555
H14 C12 1_555 1_555
C13 S2 1_555 1_555
C14 C9 1_555 1_555
H15 C14 1_555 1_555
C15 C9 1_555 1_555
C16 O10 1_555 1_555
O3A Ni1 1_555 1_555
O8A Ni2 1_555 1_555
O11_2 Ni2 1_555 1_555
O11A Ni2 1_555 1_555
O16A Ni2 1_555 1_555
O21A Ni2 1_555 1_555
O4A Ni3 1_555 1_555
O9_2 Ni3 1_555 1_555
O12A Ni3 1_555 1_555
O5A Na1 1_555 1_555
O12_2 Na1 1_555 1_555
O13A Na1 1_555 1_555
Ni1A O3 1_555 1_555
Ni3A O4 1_555 1_555
Ni2A O8 1_555 1_555
Ni3_2 O9 1_555 1_555
Ni2_2 O11 1_555 1_555
Ni2A_2 O11 1_555 1_555
Na1_2 O12 1_555 1_555
Na1A_2 O13 1_555 1_555
H3A O16A 1_555 1_555
H4A O16A 1_555 1_555
H9A O21A 1_555 1_555
Ni3 O21 1_555 1_555
O16 Ni2A_2 1_555 1_555
O21 Ni2A_2 1_555 1_555
C4 C5 1_555 1_555
C5 C6 1_555 1_555
C11 C16 1_555 1_555
C12 C13 1_555 1_555
C13 C14 1_555 1_555
O12_2 Ni3A 1_555 1_555

#END
