
#######################################################################
#
#                 Cambridge Crystallographic Data Centre
#                                CCDC 
#
#######################################################################
#
# If this CIF has been generated from an entry in the Cambridge 
# Structural Database, then it will include bibliographic, chemical, 
# crystal, experimental, refinement or atomic coordinate data resulting 
# from the CCDC's data processing and validation procedures.
#
#######################################################################

data_HAKYOH
_symmetry_cell_setting           orthorhombic
_symmetry_space_group_name_H-M   'P n a m'
_symmetry_Int_Tables_number      62
_space_group_name_Hall           '-P 2c 2n'
loop_
_symmetry_equiv_pos_site_id
_symmetry_equiv_pos_as_xyz
1 x,y,z
2 1/2-x,1/2+y,1/2+z
3 1/2+x,1/2-y,z
4 -x,-y,1/2+z
5 -x,-y,-z
6 1/2+x,1/2-y,1/2-z
7 1/2-x,1/2+y,-z
8 x,y,1/2-z
_cell_length_a                   9.053(1)
_cell_length_b                   8.036(1)
_cell_length_c                   7.834(1)
_cell_angle_alpha                90
_cell_angle_beta                 90
_cell_angle_gamma                90
_cell_volume                     569.923
loop_
_atom_site_label
_atom_site_type_symbol
_atom_site_fract_x
_atom_site_fract_y
_atom_site_fract_z
Pb1 Pb 0.3957(1) -0.0377(1) 0.2500
C1 C 0.146(1) 0.244(1) 0.148(1)
O1 O 0.224(1) 0.137(1) 0.079(1)
O2 O 0.065(1) 0.350(1) 0.078(1)
O3 O 0.138(2) -0.214(2) 0.2500
H1 H 0.09(2) -0.21(2) 0.34(2)
C1G C 0.146(1) 0.244(1) 0.352(1)
O1G O 0.224(1) 0.137(1) 0.421(1)
O2G O 0.065(1) 0.350(1) 0.422(1)
H1G H 0.09(2) -0.21(2) 0.16(2)
O2A O 0.435(1) -0.150(1) 0.578(1)
O2B O 0.565(1) 0.150(1) 0.078(1)
O2E O 0.565(1) 0.150(1) 0.422(1)
O2F O 0.435(1) -0.150(1) -0.078(1)
Pb1A Pb 0.1043(1) 0.4623(1) -0.2500
Pb1B Pb -0.1043(1) 0.5377(1) 0.2500
Pb1A_2 Pb 0.1043(1) 0.4623(1) 0.7500
O4 O 0.386(2) -0.484(2) 0.2500
H2 H 0.30(1) -0.47(1) 0.18(2)
H2G H 0.30(1) -0.47(1) 0.32(2)
loop_
_geom_bond_atom_site_label_1
_geom_bond_atom_site_label_2
_geom_bond_site_symmetry_1
_geom_bond_site_symmetry_2
Pb1 O1 1_555 1_555
C1 O1 1_555 1_555
O2 C1 1_555 1_555
O3 Pb1 1_555 1_555
O4 H2 1_555 1_555
H1 O3 1_555 1_555
C1G C1 1_555 1_555
O1G Pb1 1_555 1_555
O2G C1G 1_555 1_555
H1G O3 1_555 1_555
H2G O4 1_555 1_555
O2A Pb1 1_555 1_555
O2B Pb1 1_555 1_555
O2E Pb1 1_555 1_555
O2F Pb1 1_555 1_555
Pb1A O2 1_555 1_555
Pb1B O2 1_555 1_555
Pb1A_2 O2G 1_555 1_555
C1G O1G 1_555 1_555
O2G Pb1B 1_555 1_555

#END
