
#######################################################################
#
#                 Cambridge Crystallographic Data Centre
#                                CCDC 
#
#######################################################################
#
# If this CIF has been generated from an entry in the Cambridge 
# Structural Database, then it will include bibliographic, chemical, 
# crystal, experimental, refinement or atomic coordinate data resulting 
# from the CCDC's data processing and validation procedures.
#
#######################################################################

data_HALYEA
_symmetry_cell_setting           monoclinic
_symmetry_space_group_name_H-M   'P 21/c'
_symmetry_Int_Tables_number      14
_space_group_name_Hall           '-P 2ybc'
loop_
_symmetry_equiv_pos_site_id
_symmetry_equiv_pos_as_xyz
1 x,y,z
2 -x,1/2+y,1/2-z
3 -x,-y,-z
4 x,1/2-y,1/2+z
_cell_length_a                   10.2526(13)
_cell_length_b                   9.1383(11)
_cell_length_c                   14.9577(15)
_cell_angle_alpha                90
_cell_angle_beta                 111.072(7)
_cell_angle_gamma                90
_cell_volume                     1307.69
loop_
_atom_site_label
_atom_site_type_symbol
_atom_site_fract_x
_atom_site_fract_y
_atom_site_fract_z
Cu1 Cu 0.5000 1.0000 1.0000
O1 O 0.3994(2) 1.0633(2) 0.86547(14)
O2 O 0.2800(3) 1.1656(3) 0.94591(16)
N1 N 0.3894(3) 0.8155(3) 0.97339(17)
N2 N 0.2748(3) 0.6159(3) 0.9794(2)
C1 C 0.3035(3) 1.1478(3) 0.8716(2)
C2 C 0.2177(3) 1.2304(3) 0.7824(2)
C3 C 0.0878(3) 1.2862(3) 0.7727(2)
H1 H 0.0503 1.2681 0.8198
C4 C 0.0134(3) 1.3686(3) 0.6931(2)
H2 H -0.0746 1.4038 0.6868
C5 C 0.0671(3) 1.3997(3) 0.6229(2)
C6 C 0.1991(3) 1.3430(3) 0.6331(2)
H3 H 0.2377 1.3627 0.5868
C7 C 0.2716(3) 1.2583(3) 0.7114(2)
H4 H 0.3579 1.2194 0.7167
C8 C -0.0159(4) 1.4861(3) 0.5383(2)
H5 H -0.0994 1.5252 0.5388
C9 C 0.3702(4) 0.7345(4) 0.8926(2)
H6 H 0.4013 0.7603 0.8435
C10 C 0.2995(4) 0.6119(4) 0.8954(3)
H7 H 0.2726 0.5386 0.8493
C11 C 0.3308(3) 0.7419(3) 1.0250(2)
C12 C 0.3252(4) 0.7846(4) 1.1189(2)
H8 H 0.3731 0.8760 1.1387
H9 H 0.3695 0.7106 1.1655
H10 H 0.2295 0.7950 1.1135
C13 C 0.1934(4) 0.5092(3) 1.0117(3)
H11 H 0.2330 0.5013 1.0809
H12 H 0.1997 0.4139 0.9850
C14 C 0.0418(4) 0.5534(4) 0.9815(3)
H13 H 0.0012 0.5571 0.9121
H14 H 0.0359 0.6506 1.0057
Cu1_2 Cu -0.5000 2.0000 0.0000
Cu1_3 Cu -0.5000 0.0000 1.0000
O1B O -0.3994(2) 1.9367(2) 0.13453(14)
O1B_2 O 0.6006(2) 0.9367(2) 1.13453(14)
O2B O -0.2800(3) 1.8344(3) 0.05409(16)
O2B_2 O 0.7200(3) 0.8344(3) 1.05409(16)
N1B N -0.3894(3) 0.1845(3) 1.02661(17)
N1B_2 N 0.6106(3) 1.1845(3) 1.02661(17)
N2B N -0.2748(3) 0.3841(3) 1.0206(2)
C1B C -0.3035(3) 1.8522(3) 0.1284(2)
C2B C -0.2177(3) 1.7696(3) 0.2176(2)
C3B C -0.0878(3) 1.7138(3) 0.2273(2)
H1B H -0.0503 1.7319 0.1802
C4B C -0.0134(3) 1.6314(3) 0.3069(2)
H2B H 0.0746 1.5962 0.3132
C5B C -0.0671(3) 1.6003(3) 0.3771(2)
C6B C -0.1991(3) 1.6570(3) 0.3669(2)
H3B H -0.2377 1.6373 0.4132
C7B C -0.2716(3) 1.7417(3) 0.2886(2)
H4B H -0.3579 1.7806 0.2833
C8B C 0.0159(4) 1.5139(3) 0.4617(2)
H5B H 0.0994 1.4748 0.4612
C9B C -0.3702(4) 0.2655(4) 1.1074(2)
H6B H -0.4013 0.2397 1.1565
C10B C -0.2995(4) 0.3881(4) 1.1046(3)
H7B H -0.2726 0.4614 1.1507
C11B C -0.3308(3) 0.2581(3) 0.9750(2)
C12B C -0.3252(4) 0.2154(4) 0.8811(2)
H8B H -0.3731 0.1240 0.8613
H9B H -0.3695 0.2894 0.8345
H10B H -0.2295 0.2050 0.8865
C13B C -0.1934(4) 0.4908(3) 0.9883(3)
H11B H -0.2330 0.4987 0.9191
H12B H -0.1997 0.5861 1.0150
C14B C -0.0418(4) 0.4466(4) 1.0185(3)
H13B H -0.0012 0.4429 1.0879
H14B H -0.0359 0.3494 0.9943
loop_
_geom_bond_atom_site_label_1
_geom_bond_atom_site_label_2
_geom_bond_site_symmetry_1
_geom_bond_site_symmetry_2
Cu1 O1 1_555 1_555
O1 C1 1_555 1_555
O2 Cu1 1_555 1_555
N1 Cu1 1_555 1_555
N2 C10 1_555 1_555
C1 O2 1_555 1_555
C2 C1 1_555 1_555
C3 C2 1_555 1_555
H1 C3 1_555 1_555
C4 C3 1_555 1_555
H2 C4 1_555 1_555
C5 C4 1_555 1_555
C6 C5 1_555 1_555
H3 C6 1_555 1_555
C7 C2 1_555 1_555
H4 C7 1_555 1_555
C8 C5 1_555 1_555
H5 C8 1_555 1_555
C9 N1 1_555 1_555
H6 C9 1_555 1_555
C10 C9 1_555 1_555
H7 C10 1_555 1_555
C11 N1 1_555 1_555
C12 C11 1_555 1_555
H8 C12 1_555 1_555
H9 C12 1_555 1_555
H10 C12 1_555 1_555
C13 N2 1_555 1_555
H11 C13 1_555 1_555
H12 C13 1_555 1_555
C14 C13 1_555 1_555
H13 C14 1_555 1_555
H14 C14 1_555 1_555
Cu1_2 O1B 1_555 1_555
Cu1_3 N1B 1_555 1_555
O1B C1B 1_555 1_555
O1B_2 Cu1 1_555 1_555
O2B Cu1_2 1_555 1_555
O2B_2 Cu1 1_555 1_555
N1B C9B 1_555 1_555
N1B_2 Cu1 1_555 1_555
N2B C10B 1_555 1_555
C1B O2B 1_555 1_555
C2B C1B 1_555 1_555
C3B C2B 1_555 1_555
H1B C3B 1_555 1_555
C4B C3B 1_555 1_555
H2B C4B 1_555 1_555
C5B C4B 1_555 1_555
C6B C5B 1_555 1_555
H3B C6B 1_555 1_555
C7B C2B 1_555 1_555
H4B C7B 1_555 1_555
C8B C8 1_555 1_555
H5B C8B 1_555 1_555
C9B H6B 1_555 1_555
C10B C9B 1_555 1_555
H7B C10B 1_555 1_555
C11B N1B 1_555 1_555
C12B C11B 1_555 1_555
H8B C12B 1_555 1_555
H9B C12B 1_555 1_555
H10B C12B 1_555 1_555
C13B N2B 1_555 1_555
H11B C13B 1_555 1_555
H12B C13B 1_555 1_555
C14B C14 1_555 1_555
H13B C14B 1_555 1_555
H14B C14B 1_555 1_555
N2 C11 1_555 1_555
C6 C7 1_555 1_555
N2B C11B 1_555 1_555
C5B C8B 1_555 1_555
C6B C7B 1_555 1_555
C13B C14B 1_555 1_555

#END
