
#######################################################################
#
#                 Cambridge Crystallographic Data Centre
#                                CCDC 
#
#######################################################################
#
# If this CIF has been generated from an entry in the Cambridge 
# Structural Database, then it will include bibliographic, chemical, 
# crystal, experimental, refinement or atomic coordinate data resulting 
# from the CCDC's data processing and validation procedures.
#
#######################################################################

data_HAMFAE
_symmetry_cell_setting           triclinic
_symmetry_space_group_name_H-M   'P -1'
_symmetry_Int_Tables_number      2
_space_group_name_Hall           '-P 1'
loop_
_symmetry_equiv_pos_site_id
_symmetry_equiv_pos_as_xyz
1 x,y,z
2 -x,-y,-z
_cell_length_a                   6.7870(12)
_cell_length_b                   7.1494(9)
_cell_length_c                   8.2010(14)
_cell_angle_alpha                102.891(13)
_cell_angle_beta                 97.148(14)
_cell_angle_gamma                114.001(15)
_cell_volume                     343.868
loop_
_atom_site_label
_atom_site_type_symbol
_atom_site_fract_x
_atom_site_fract_y
_atom_site_fract_z
O1 O 0.2765(4) 1.4320(3) -0.3543(3)
O2 O 0.1506(3) 1.1965(3) -0.2137(3)
N1 N 0.3292(4) 1.6898(4) 0.2131(3)
N2 N 0.2394(4) 1.6102(4) 0.3361(3)
N3 N 0.1120(4) 1.4022(4) 0.2692(3)
N4 N 0.1160(4) 1.3399(4) 0.1026(3)
N5 N 0.3009(4) 1.5568(4) -0.0810(3)
N6 N 0.2407(4) 1.3915(4) -0.2139(3)
C1 C 0.2500(4) 1.5212(4) 0.0716(4)
O3 O 0.7135(4) 0.9810(4) -0.0416(3)
O4 O 0.2879(4) 1.0696(4) -0.5542(3)
Ba1 Ba 0.34377(2) 0.86683(2) -0.297970(19)
H1 H 0.743(6) 0.876(6) -0.043(4)
H2 H 0.280(7) 1.175(7) -0.502(5)
H3 H 0.817(7) 1.071(6) -0.024(5)
H4 H 0.181(8) 0.998(7) -0.616(6)
O1_2 O 0.2765(4) 0.4320(3) -0.3543(3)
N1A N 0.6708(4) 1.3102(4) -0.2131(3)
N2_2 N 0.2394(4) 0.6102(4) -0.6639(3)
N3A N -0.1120(4) 0.5978(4) -0.2692(3)
N5_2 N 0.3009(4) 0.5568(4) -0.0810(3)
O3A O 0.2865(4) 1.0190(4) 0.0416(3)
O4A O 0.7121(4) 0.9304(4) -0.4458(3)
Ba1_2 Ba 0.34377(2) 1.86683(2) -0.297970(19)
Ba1A Ba 0.65623(2) 2.13317(2) 0.297970(19)
Ba1_3 Ba 0.34377(2) 1.86683(2) 0.702030(19)
Ba1A_2 Ba -0.34377(2) 1.13317(2) 0.297970(19)
Ba1A_3 Ba 0.65623(2) 1.13317(2) 0.297970(19)
Ba1A_4 Ba 0.65623(2) 1.13317(2) -0.702030(19)
H1A H 0.257(6) 1.124(6) 0.043(4)
H2A H 0.720(7) 0.825(7) -0.498(5)
H3A H 0.183(7) 0.929(6) 0.024(5)
H4A H 0.819(8) 1.002(7) -0.384(6)
loop_
_geom_bond_atom_site_label_1
_geom_bond_atom_site_label_2
_geom_bond_site_symmetry_1
_geom_bond_site_symmetry_2
O1 N6 1_555 1_555
O2 N6 1_555 1_555
N1 N2 1_555 1_555
N2 N3 1_555 1_555
N3 N4 1_555 1_555
N4 C1 1_555 1_555
N5 N6 1_555 1_555
C1 N1 1_555 1_555
O3 Ba1 1_555 1_555
O4 Ba1 1_555 1_555
Ba1 O2 1_555 1_555
H1 O3 1_555 1_555
H2 O4 1_555 1_555
H3 O3 1_555 1_555
H4 O4 1_555 1_555
O1_2 Ba1 1_555 1_555
N1A Ba1 1_555 1_555
N2_2 Ba1 1_555 1_555
N3A Ba1 1_555 1_555
N5_2 Ba1 1_555 1_555
O3A Ba1 1_555 1_555
O4A Ba1 1_555 1_555
Ba1_2 O1 1_555 1_555
Ba1A N1 1_555 1_555
Ba1_3 N2 1_555 1_555
Ba1A_2 N3 1_555 1_555
Ba1A_3 O3 1_555 1_555
Ba1A_4 O4 1_555 1_555
H1A O3A 1_555 1_555
H2A O4A 1_555 1_555
H3A O3A 1_555 1_555
H4A O4A 1_555 1_555
N5 C1 1_555 1_555
N5 Ba1_2 1_555 1_555
O3A Ba1A_3 1_555 1_555
O4A Ba1A_4 1_555 1_555

#END
