
#######################################################################
#
#                 Cambridge Crystallographic Data Centre
#                                CCDC 
#
#######################################################################
#
# If this CIF has been generated from an entry in the Cambridge 
# Structural Database, then it will include bibliographic, chemical, 
# crystal, experimental, refinement or atomic coordinate data resulting 
# from the CCDC's data processing and validation procedures.
#
#######################################################################

data_HAMLAJ
_symmetry_cell_setting           triclinic
_symmetry_space_group_name_H-M   'P -1'
_symmetry_Int_Tables_number      2
_space_group_name_Hall           '-P 1'
loop_
_symmetry_equiv_pos_site_id
_symmetry_equiv_pos_as_xyz
1 x,y,z
2 -x,-y,-z
_cell_length_a                   7.696(2)
_cell_length_b                   10.759(2)
_cell_length_c                   10.900(2)
_cell_angle_alpha                100.54(3)
_cell_angle_beta                 99.51(3)
_cell_angle_gamma                96.76(3)
_cell_volume                     864.866
loop_
_atom_site_label
_atom_site_type_symbol
_atom_site_fract_x
_atom_site_fract_y
_atom_site_fract_z
Ag1 Ag 0.09819(12) 0.73469(9) 0.54212(9)
C1 C 0.329(2) 0.5394(13) 0.6045(15)
H1 H 0.4082 0.4780 0.5837
H2 H 0.2476 0.5024 0.6516
C2 C 0.4350(15) 0.6548(13) 0.6855(13)
H3 H 0.4801 0.6353 0.7673
H4 H 0.5372 0.6777 0.6482
C3 C -0.0668(11) 0.9563(8) 0.4470(8)
H5 H -0.1708 0.9974 0.4280
H6 H -0.0152 0.9412 0.3713
N1 N 0.2312(14) 0.5592(9) 0.4911(11)
H17 H 0.1484 0.4904 0.4544
H18 H 0.3038 0.5720 0.4363
N2 N 0.3451(10) 0.7655(8) 0.7075(7)
H19 H 0.4190 0.8371 0.7083
H20 H 0.3097 0.7732 0.7829
N3 N -0.1214(10) 0.8341(7) 0.4804(7)
H21 H -0.1944 0.7827 0.4124
H22 H -0.1841 0.8478 0.5431
C3A C 0.0668(11) 1.0437(8) 0.5530(8)
H5A H 0.1708 1.0026 0.5720
H6A H 0.0152 1.0588 0.6287
N3A N 0.1214(10) 1.1659(7) 0.5196(7)
H21A H 0.1944 1.2173 0.5876
H22A H 0.1841 1.1522 0.4569
Ag1A Ag -0.09819(12) 1.26531(9) 0.45788(9)
C1A C -0.329(2) 1.4606(13) 0.3955(15)
H1A H -0.4082 1.5220 0.4163
H2A H -0.2476 1.4976 0.3484
C2A C -0.4350(15) 1.3452(13) 0.3145(13)
H3A H -0.4801 1.3647 0.2327
H4A H -0.5372 1.3223 0.3518
N1A N -0.2312(14) 1.4408(9) 0.5089(11)
H17A H -0.1484 1.5096 0.5456
H18A H -0.3038 1.4280 0.5637
N2A N -0.3451(10) 1.2345(8) 0.2925(7)
H19A H -0.4190 1.1629 0.2917
H20A H -0.3097 1.2268 0.2171
Ag2 Ag 0.0000 1.0000 0.0000
Ag3 Ag 0.5000 1.0000 0.5000
C4 C 0.2736(10) 0.9719(7) 0.2301(7)
C5 C 0.2276(10) 0.7989(8) 0.0527(7)
C6 C 0.3398(10) 0.7225(7) 0.1322(7)
C7 C 0.4115(10) 0.7910(7) 0.2688(7)
C8 C 0.2172(13) 0.5968(8) 0.1315(8)
H7 H 0.1836 0.5478 0.0449
H8 H 0.2845 0.5464 0.1816
C9 C 0.0489(13) 0.6169(10) 0.1834(10)
H9 H -0.0203 0.5354 0.1791
H10 H -0.0199 0.6655 0.1336
H11 H 0.0806 0.6626 0.2702
C10 C 0.4979(13) 0.6928(9) 0.0657(9)
H12 H 0.5648 0.6382 0.1104
H13 H 0.4504 0.6452 -0.0203
C11 C 0.6207(13) 0.8063(13) 0.0599(10)
H14 H 0.7141 0.7799 0.0174
H15 H 0.6715 0.8529 0.1446
H16 H 0.5567 0.8601 0.0139
N4 N 0.3800(8) 0.9134(6) 0.3096(5)
N5 N 0.1924(8) 0.9141(6) 0.1054(6)
O1 O 0.2486(9) 1.0829(5) 0.2748(6)
O2 O 0.1680(8) 0.7506(6) -0.0608(5)
O3 O 0.4995(8) 0.7387(5) 0.3417(5)
C4A C -0.2736(10) 1.0281(7) -0.2301(7)
C5A C -0.2276(10) 1.2011(8) -0.0527(7)
C6A C -0.3398(10) 1.2775(7) -0.1322(7)
C7A C -0.4115(10) 1.2090(7) -0.2688(7)
C8A C -0.2172(13) 1.4032(8) -0.1315(8)
H7A H -0.1836 1.4522 -0.0449
H8A H -0.2845 1.4536 -0.1816
C9A C -0.0489(13) 1.3831(10) -0.1834(10)
H9A H 0.0203 1.4646 -0.1791
H10A H 0.0199 1.3345 -0.1336
H11A H -0.0806 1.3374 -0.2702
C10A C -0.4979(13) 1.3072(9) -0.0657(9)
H12A H -0.5648 1.3618 -0.1104
H13A H -0.4504 1.3548 0.0203
C11A C -0.6207(13) 1.1937(13) -0.0599(10)
H14A H -0.7141 1.2201 -0.0174
H15A H -0.6715 1.1471 -0.1446
H16A H -0.5567 1.1399 -0.0139
N4A N -0.3800(8) 1.0866(6) -0.3096(5)
N5A N -0.1924(8) 1.0859(6) -0.1054(6)
O1A O -0.2486(9) 0.9171(5) -0.2748(6)
O2A O -0.1680(8) 1.2494(6) 0.0608(5)
O3A O -0.4995(8) 1.2613(5) -0.3417(5)
Ag3A Ag -0.5000 1.0000 -0.5000
N4A_2 N 0.6200(8) 1.0866(6) 0.6904(5)
O4 O 0.1177(8) 0.3163(6) 0.2656(6)
H23 H 0.0278 0.2962 0.2063
H24 H 0.1891 0.2644 0.2506
loop_
_geom_bond_atom_site_label_1
_geom_bond_atom_site_label_2
_geom_bond_site_symmetry_1
_geom_bond_site_symmetry_2
Ag1 N1 1_555 1_555
Ag2 N5 1_555 1_555
Ag3 N4 1_555 1_555
C1 H1 1_555 1_555
H2 C1 1_555 1_555
C2 C1 1_555 1_555
H3 C2 1_555 1_555
H4 C2 1_555 1_555
C3 H5 1_555 1_555
H6 C3 1_555 1_555
C4 N4 1_555 1_555
C5 C6 1_555 1_555
C6 C7 1_555 1_555
C7 N4 1_555 1_555
C8 C6 1_555 1_555
H7 C8 1_555 1_555
H8 C8 1_555 1_555
C9 C8 1_555 1_555
H9 C9 1_555 1_555
H10 C9 1_555 1_555
H11 C9 1_555 1_555
C10 C6 1_555 1_555
H12 C10 1_555 1_555
H13 C10 1_555 1_555
C11 C10 1_555 1_555
H14 C11 1_555 1_555
H15 C11 1_555 1_555
H16 C11 1_555 1_555
N1 C1 1_555 1_555
H17 N1 1_555 1_555
H18 N1 1_555 1_555
N2 Ag1 1_555 1_555
H19 N2 1_555 1_555
H20 N2 1_555 1_555
N3 Ag1 1_555 1_555
H21 N3 1_555 1_555
H22 N3 1_555 1_555
N5 C4 1_555 1_555
O1 C4 1_555 1_555
O2 C5 1_555 1_555
O3 C7 1_555 1_555
O4 H23 1_555 1_555
H24 O4 1_555 1_555
C3A C3 1_555 1_555
H5A C3A 1_555 1_555
H6A C3A 1_555 1_555
N3A C3A 1_555 1_555
H21A N3A 1_555 1_555
H22A N3A 1_555 1_555
C4A N4A 1_555 1_555
C5A C6A 1_555 1_555
C6A C7A 1_555 1_555
C7A N4A 1_555 1_555
C8A C6A 1_555 1_555
H7A C8A 1_555 1_555
H8A C8A 1_555 1_555
C9A C8A 1_555 1_555
H9A C9A 1_555 1_555
H10A C9A 1_555 1_555
H11A C9A 1_555 1_555
C10A C6A 1_555 1_555
H12A C10A 1_555 1_555
H13A C10A 1_555 1_555
C11A C10A 1_555 1_555
H14A C11A 1_555 1_555
H15A C11A 1_555 1_555
H16A C11A 1_555 1_555
N4A Ag3A 1_555 1_555
N5A Ag2 1_555 1_555
O1A C4A 1_555 1_555
O2A C5A 1_555 1_555
O3A C7A 1_555 1_555
N4A_2 Ag3 1_555 1_555
Ag1A N3A 1_555 1_555
C1A H1A 1_555 1_555
H2A C1A 1_555 1_555
C2A C1A 1_555 1_555
H3A C2A 1_555 1_555
H4A C2A 1_555 1_555
N1A Ag1A 1_555 1_555
H17A N1A 1_555 1_555
H18A N1A 1_555 1_555
N2A Ag1A 1_555 1_555
H19A N2A 1_555 1_555
H20A N2A 1_555 1_555
C2 N2 1_555 1_555
C3 N3 1_555 1_555
C5 N5 1_555 1_555
C4A N5A 1_555 1_555
C5A N5A 1_555 1_555
C1A N1A 1_555 1_555
C2A N2A 1_555 1_555

#END
