
#######################################################################
#
#                 Cambridge Crystallographic Data Centre
#                                CCDC 
#
#######################################################################
#
# If this CIF has been generated from an entry in the Cambridge 
# Structural Database, then it will include bibliographic, chemical, 
# crystal, experimental, refinement or atomic coordinate data resulting 
# from the CCDC's data processing and validation procedures.
#
#######################################################################

data_HAMMAK
_symmetry_cell_setting           triclinic
_symmetry_space_group_name_H-M   'P -1'
_symmetry_Int_Tables_number      2
_space_group_name_Hall           '-P 1'
loop_
_symmetry_equiv_pos_site_id
_symmetry_equiv_pos_as_xyz
1 x,y,z
2 -x,-y,-z
_cell_length_a                   10.262(9)
_cell_length_b                   10.767(10)
_cell_length_c                   13.437(12)
_cell_angle_alpha                81.790(14)
_cell_angle_beta                 82.515(13)
_cell_angle_gamma                84.724(14)
_cell_volume                     1452.85
loop_
_atom_site_label
_atom_site_type_symbol
_atom_site_fract_x
_atom_site_fract_y
_atom_site_fract_z
Cu1 Cu 0.52818(6) 0.84918(6) 0.35599(4)
P1 P 0.34596(12) 0.86817(13) 0.28383(10)
N1 N 0.5962(4) 0.7037(4) 0.4583(3)
N2 N 0.5228(4) 0.9394(4) 0.4880(3)
N3 N 0.9918(6) 0.9498(6) 0.0104(7)
C1 C 0.6461(6) 0.5883(5) 0.4411(4)
H1 H 0.6417 0.5640 0.3780
C2 C 0.7030(7) 0.5048(6) 0.5121(5)
H2 H 0.7371 0.4256 0.4974
C3 C 0.7089(7) 0.5393(6) 0.6042(5)
H3 H 0.7497 0.4848 0.6529
C4 C 0.6545(6) 0.6548(6) 0.6253(4)
H4 H 0.6529 0.6781 0.6896
C5 C 0.6024(5) 0.7355(5) 0.5497(4)
C6 C 0.5526(5) 0.8632(5) 0.5635(4)
H5 H 0.5428 0.8888 0.6275
N4 N 0.6931(4) 0.8856(5) 0.2560(3)
C7 C 0.7425(7) 0.8004(8) 0.1951(6)
H6 H 0.7073 0.7223 0.2056
C8 C 0.8406(8) 0.8220(10) 0.1192(6)
H7 H 0.8743 0.7597 0.0796
C9 C 0.8900(6) 0.9397(9) 0.1020(5)
C10 C 0.8442(6) 1.0267(7) 0.1655(7)
H8 H 0.8782 1.1052 0.1564
C11 C 0.7463(6) 0.9955(7) 0.2433(5)
H9 H 0.7168 1.0531 0.2882
C12 C 0.3469(5) 0.7705(5) 0.1854(4)
C13 C 0.4198(6) 0.6564(6) 0.1925(5)
H10 H 0.4723 0.6341 0.2446
C14 C 0.4151(7) 0.5748(7) 0.1226(5)
H11 H 0.4642 0.4976 0.1279
C15 C 0.3386(8) 0.6076(8) 0.0457(6)
H12 H 0.3345 0.5522 -0.0007
C16 C 0.2686(8) 0.7205(8) 0.0370(6)
H13 H 0.2176 0.7425 -0.0161
C17 C 0.2719(7) 0.8029(7) 0.1051(5)
H14 H 0.2240 0.8806 0.0977
C18 C 0.3062(6) 1.0246(5) 0.2207(4)
C19 C 0.3999(7) 1.0803(7) 0.1504(5)
H15 H 0.4822 1.0382 0.1367
C20 C 0.3723(9) 1.1979(8) 0.1003(7)
H16 H 0.4358 1.2345 0.0520
C21 C 0.2544(9) 1.2613(8) 0.1201(7)
H17 H 0.2372 1.3410 0.0853
C22 C 0.1617(9) 1.2101(7) 0.1897(7)
H18 H 0.0814 1.2552 0.2043
C23 C 0.1854(6) 1.0915(6) 0.2393(5)
H19 H 0.1198 1.0554 0.2859
C24 C 0.1974(5) 0.8317(5) 0.3684(5)
C25 C 0.0917(7) 0.7803(9) 0.3394(6)
H20 H 0.0939 0.7625 0.2735
C26 C -0.0171(8) 0.7558(11) 0.4094(9)
H21 H -0.0887 0.7220 0.3901
C27 C -0.0204(9) 0.7804(11) 0.5052(8)
H22 H -0.0940 0.7633 0.5517
C28 C 0.0824(7) 0.8297(10) 0.5339(7)
H23 H 0.0793 0.8470 0.6001
C29 C 0.1904(6) 0.8541(7) 0.4669(5)
H24 H 0.2613 0.8869 0.4882
N2A N 0.4772(4) 1.0606(4) 0.5120(3)
C6A C 0.4474(5) 1.1368(5) 0.4365(4)
C5A C 0.3976(5) 1.2645(5) 0.4503(4)
N1A N 0.4038(4) 1.2963(4) 0.5417(3)
C1A C 0.3539(6) 1.4117(5) 0.5589(4)
H1A H 0.3583 1.4360 0.6220
C2A C 0.2970(7) 1.4952(6) 0.4879(5)
H2A H 0.2629 1.5744 0.5026
C3A C 0.2911(7) 1.4607(6) 0.3958(5)
H3A H 0.2503 1.5152 0.3471
C4A C 0.3455(6) 1.3452(6) 0.3747(4)
H4A H 0.3471 1.3219 0.3104
H5A H 0.4572 1.1112 0.3725
N3A N 1.0082(6) 1.0502(6) -0.0104(7)
C9A C 1.1100(6) 1.0603(9) -0.1020(5)
C8A C 1.1594(8) 1.1780(10) -0.1192(6)
C7A C 1.2575(7) 1.1996(8) -0.1951(6)
N4A N 1.3069(4) 1.1144(5) -0.2560(3)
C11A C 1.2537(6) 1.0045(7) -0.2433(5)
C10A C 1.1558(6) 0.9733(7) -0.1655(7)
H8A H 1.1218 0.8948 -0.1564
H9A H 1.2832 0.9469 -0.2882
H6A H 1.2927 1.2777 -0.2056
H7A H 1.1257 1.2403 -0.0796
Cu1A Cu 0.47182(6) 1.15082(6) 0.64401(4)
Cu1A_2 Cu 1.47182(6) 1.15082(6) -0.35599(4)
P1A P 0.65404(12) 1.13183(13) 0.71617(10)
C12A C 0.6531(5) 1.2295(5) 0.8146(4)
C13A C 0.5802(6) 1.3436(6) 0.8075(5)
H10A H 0.5277 1.3659 0.7554
C14A C 0.5849(7) 1.4252(7) 0.8774(5)
H11A H 0.5358 1.5024 0.8721
C15A C 0.6614(8) 1.3924(8) 0.9543(6)
H12A H 0.6655 1.4478 1.0007
C16A C 0.7314(8) 1.2795(8) 0.9630(6)
H13A H 0.7824 1.2575 1.0161
C17A C 0.7281(7) 1.1971(7) 0.8949(5)
H14A H 0.7760 1.1194 0.9023
C18A C 0.6938(6) 0.9754(5) 0.7793(4)
C19A C 0.6001(7) 0.9197(7) 0.8496(5)
H15A H 0.5178 0.9618 0.8633
C20A C 0.6277(9) 0.8021(8) 0.8997(7)
H16A H 0.5642 0.7655 0.9480
C21A C 0.7456(9) 0.7387(8) 0.8799(7)
H17A H 0.7628 0.6590 0.9147
C22A C 0.8383(9) 0.7899(7) 0.8103(7)
H18A H 0.9186 0.7448 0.7957
C23A C 0.8146(6) 0.9085(6) 0.7607(5)
H19A H 0.8802 0.9446 0.7141
C24A C 0.8026(5) 1.1683(5) 0.6316(5)
C25A C 0.9083(7) 1.2197(9) 0.6606(6)
H20A H 0.9061 1.2375 0.7265
C26A C 1.0171(8) 1.2442(11) 0.5906(9)
H21A H 1.0887 1.2780 0.6099
C27A C 1.0204(9) 1.2196(11) 0.4948(8)
H22A H 1.0940 1.2367 0.4483
C28A C 0.9176(7) 1.1703(10) 0.4661(7)
H23A H 0.9207 1.1530 0.3999
C29A C 0.8096(6) 1.1459(7) 0.5331(5)
H24A H 0.7387 1.1131 0.5118
N4A_2 N 0.3069(4) 1.1144(5) 0.7440(3)
B1 B 0.7067(9) 0.3446(9) 0.2446(7)
F1 F 0.8292(7) 0.3068(7) 0.1996(7)
F2 F 0.6846(8) 0.4721(6) 0.2185(6)
F3 F 0.6850(9) 0.3123(10) 0.3450(6)
F4 F 0.6137(9) 0.2856(9) 0.2089(7)
B2? B 0.7613(15) 0.3787(12) 0.2680(10)
F5? F 0.860(2) 0.445(2) 0.2880(18)
loop_
_geom_bond_atom_site_label_1
_geom_bond_atom_site_label_2
_geom_bond_site_symmetry_1
_geom_bond_site_symmetry_2
Cu1 P1 1_555 1_555
P1 C12 1_555 1_555
N1 Cu1 1_555 1_555
N2 Cu1 1_555 1_555
N3 C9 1_555 1_555
C1 N1 1_555 1_555
H1 C1 1_555 1_555
C2 C1 1_555 1_555
H2 C2 1_555 1_555
C3 C2 1_555 1_555
H3 C3 1_555 1_555
C4 C3 1_555 1_555
H4 C4 1_555 1_555
C5 N1 1_555 1_555
C6 N2 1_555 1_555
H5 C6 1_555 1_555
N4 Cu1 1_555 1_555
C7 N4 1_555 1_555
H6 C7 1_555 1_555
C8 C7 1_555 1_555
H7 C8 1_555 1_555
C9 C8 1_555 1_555
C10 C9 1_555 1_555
H8 C10 1_555 1_555
C11 N4 1_555 1_555
H9 C11 1_555 1_555
C12 C13 1_555 1_555
C13 H10 1_555 1_555
C14 C13 1_555 1_555
H11 C14 1_555 1_555
C15 C14 1_555 1_555
H12 C15 1_555 1_555
C16 C15 1_555 1_555
H13 C16 1_555 1_555
C17 C12 1_555 1_555
H14 C17 1_555 1_555
C18 P1 1_555 1_555
C19 C18 1_555 1_555
H15 C19 1_555 1_555
C20 C19 1_555 1_555
H16 C20 1_555 1_555
C21 C20 1_555 1_555
H17 C21 1_555 1_555
C22 C21 1_555 1_555
H18 C22 1_555 1_555
C23 C18 1_555 1_555
H19 C23 1_555 1_555
C24 P1 1_555 1_555
C25 C24 1_555 1_555
H20 C25 1_555 1_555
C26 C25 1_555 1_555
H21 C26 1_555 1_555
C27 C26 1_555 1_555
H22 C27 1_555 1_555
C28 C27 1_555 1_555
H23 C28 1_555 1_555
C29 C24 1_555 1_555
H24 C29 1_555 1_555
B1 F1 1_555 1_555
F2 B1 1_555 1_555
F3 B1 1_555 1_555
F4 B1 1_555 1_555
N2A N2 1_555 1_555
C6A N2A 1_555 1_555
C5A C6A 1_555 1_555
N1A C5A 1_555 1_555
C1A N1A 1_555 1_555
H1A C1A 1_555 1_555
C2A C1A 1_555 1_555
H2A C2A 1_555 1_555
C3A C2A 1_555 1_555
H3A C3A 1_555 1_555
C4A C5A 1_555 1_555
H4A C4A 1_555 1_555
H5A C6A 1_555 1_555
N3A N3 1_555 1_555
C9A N3A 1_555 1_555
C8A C9A 1_555 1_555
C7A C8A 1_555 1_555
N4A C7A 1_555 1_555
C11A N4A 1_555 1_555
C10A C9A 1_555 1_555
H8A C10A 1_555 1_555
H9A C11A 1_555 1_555
H6A C7A 1_555 1_555
H7A C8A 1_555 1_555
Cu1A N2A 1_555 1_555
Cu1A_2 N4A 1_555 1_555
P1A Cu1A 1_555 1_555
C12A P1A 1_555 1_555
C13A C12A 1_555 1_555
H10A C13A 1_555 1_555
C14A C13A 1_555 1_555
H11A C14A 1_555 1_555
C15A C14A 1_555 1_555
H12A C15A 1_555 1_555
C16A C15A 1_555 1_555
H13A C16A 1_555 1_555
C17A C12A 1_555 1_555
H14A C17A 1_555 1_555
C18A P1A 1_555 1_555
C19A C18A 1_555 1_555
H15A C19A 1_555 1_555
C20A C19A 1_555 1_555
H16A C20A 1_555 1_555
C21A C20A 1_555 1_555
H17A C21A 1_555 1_555
C22A C21A 1_555 1_555
H18A C22A 1_555 1_555
C23A C18A 1_555 1_555
H19A C23A 1_555 1_555
C24A P1A 1_555 1_555
C25A C24A 1_555 1_555
H20A C25A 1_555 1_555
C26A C25A 1_555 1_555
H21A C26A 1_555 1_555
C27A C26A 1_555 1_555
H22A C27A 1_555 1_555
C28A C27A 1_555 1_555
H23A C28A 1_555 1_555
C29A C24A 1_555 1_555
H24A C29A 1_555 1_555
N4A_2 Cu1A 1_555 1_555
C4 C5 1_555 1_555
C5 C6 1_555 1_555
C10 C11 1_555 1_555
C16 C17 1_555 1_555
C22 C23 1_555 1_555
C28 C29 1_555 1_555
N1A Cu1A 1_555 1_555
C3A C4A 1_555 1_555
C11A C10A 1_555 1_555
C16A C17A 1_555 1_555
C22A C23A 1_555 1_555
C28A C29A 1_555 1_555

#END
