
#######################################################################
#
#                 Cambridge Crystallographic Data Centre
#                                CCDC 
#
#######################################################################
#
# If this CIF has been generated from an entry in the Cambridge 
# Structural Database, then it will include bibliographic, chemical, 
# crystal, experimental, refinement or atomic coordinate data resulting 
# from the CCDC's data processing and validation procedures.
#
#######################################################################

data_HANROD
_symmetry_cell_setting           orthorhombic
_symmetry_space_group_name_H-M   'P n m a'
_symmetry_Int_Tables_number      62
_space_group_name_Hall           '-P 2ac 2n'
loop_
_symmetry_equiv_pos_site_id
_symmetry_equiv_pos_as_xyz
1 x,y,z
2 1/2-x,-y,1/2+z
3 1/2+x,1/2-y,1/2-z
4 -x,1/2+y,-z
5 -x,-y,-z
6 1/2+x,y,1/2-z
7 1/2-x,1/2+y,1/2+z
8 x,1/2-y,z
_cell_length_a                   10.915(2)
_cell_length_b                   7.871(2)
_cell_length_c                   12.336(2)
_cell_angle_alpha                90
_cell_angle_beta                 90
_cell_angle_gamma                90
_cell_volume                     1059.81
loop_
_atom_site_label
_atom_site_type_symbol
_atom_site_fract_x
_atom_site_fract_y
_atom_site_fract_z
Cu1 Cu 0.10934(6) 0.25000 0.11288(6)
S1 S -0.1595(1) 0.2500 0.1673(1)
O1 O -0.0277(4) 0.2500 0.2106(3)
O2 O 0.2582(4) 0.2500 0.2412(4)
O3 O -0.1773(4) 0.4014(5) 0.1008(3)
O4 O 0.1051(3) 0.5012(4) 0.0995(3)
O5 O 0.2306(4) 0.2500 -0.0026(3)
O6 O 0.0715(4) 0.2500 -0.1160(4)
C1 C 0.1835(5) 0.2500 -0.0953(5)
C2 C 0.2678(5) 0.2500 -0.1933(4)
N1 N 0.3987(4) 0.2500 -0.1600(4)
C3 C 0.4534(4) 0.4002(7) -0.1432(4)
C4 C 0.5720(5) 0.4019(7) -0.1030(4)
C5 C 0.6283(7) 0.2500 -0.0811(6)
O4G O 0.1051(3) -0.0012(4) 0.0995(3)
O2B O -0.2418(4) 0.2500 0.2588(4)
O3G O -0.1773(4) 0.0986(5) 0.1008(3)
S1B S 0.3405(1) 0.2500 0.3327(1)
C3G C 0.4534(4) 0.0998(7) -0.1432(4)
C4G C 0.5720(5) 0.0981(7) -0.1030(4)
Cu1B Cu -0.39066(6) 0.25000 0.38712(6)
O1B O 0.4723(4) 0.2500 0.2894(3)
O3E O 0.3227(4) 0.4014(5) 0.3992(3)
O3B O 0.3227(4) 0.0986(5) 0.3992(3)
O1B_2 O -0.5277(4) 0.2500 0.2894(3)
O4E O -0.3949(3) 0.5012(4) 0.4005(3)
O4B O -0.3949(3) -0.0012(4) 0.4005(3)
O5B O -0.2694(4) 0.2500 0.5026(3)
Cu1B_2 Cu 0.60934(6) 0.25000 0.38712(6)
C1B C -0.3165(5) 0.2500 0.5953(5)
O6B O -0.4285(4) 0.2500 0.6160(4)
C2B C -0.2322(5) 0.2500 0.6933(4)
N1B N -0.1013(4) 0.2500 0.6600(4)
C3E C -0.0466(4) 0.4002(7) 0.6432(4)
C3B C -0.0466(4) 0.0998(7) 0.6432(4)
C4E C 0.0720(5) 0.4019(7) 0.6030(4)
C4B C 0.0720(5) 0.0981(7) 0.6030(4)
C5B C 0.1283(7) 0.2500 0.5811(6)
loop_
_geom_bond_atom_site_label_1
_geom_bond_atom_site_label_2
_geom_bond_site_symmetry_1
_geom_bond_site_symmetry_2
Cu1 O1 1_555 1_555
S1 O1 1_555 1_555
O2 Cu1 1_555 1_555
O3 S1 1_555 1_555
O4 Cu1 1_555 1_555
O5 Cu1 1_555 1_555
O6 C1 1_555 1_555
C1 O5 1_555 1_555
C2 C1 1_555 1_555
N1 C2 1_555 1_555
C3 N1 1_555 1_555
C4 C3 1_555 1_555
C5 C4 1_555 1_555
O4G Cu1 1_555 1_555
O2B S1 1_555 1_555
O3G S1 1_555 1_555
S1B O2 1_555 1_555
C3G N1 1_555 1_555
C4G C5 1_555 1_555
Cu1B O2B 1_555 1_555
O1B S1B 1_555 1_555
O3E S1B 1_555 1_555
O3B S1B 1_555 1_555
O1B_2 Cu1B 1_555 1_555
O4E Cu1B 1_555 1_555
O4B Cu1B 1_555 1_555
O5B Cu1B 1_555 1_555
Cu1B_2 O1B 1_555 1_555
C1B O5B 1_555 1_555
O6B C1B 1_555 1_555
C2B C1B 1_555 1_555
N1B C2B 1_555 1_555
C3E N1B 1_555 1_555
C3B N1B 1_555 1_555
C4E C3E 1_555 1_555
C4B C3B 1_555 1_555
C5B C4E 1_555 1_555
C3G C4G 1_555 1_555
C4B C5B 1_555 1_555

#END
