
#######################################################################
#
#                 Cambridge Crystallographic Data Centre
#                                CCDC 
#
#######################################################################
#
# If this CIF has been generated from an entry in the Cambridge 
# Structural Database, then it will include bibliographic, chemical, 
# crystal, experimental, refinement or atomic coordinate data resulting 
# from the CCDC's data processing and validation procedures.
#
#######################################################################

data_HAPQIY
_symmetry_cell_setting           monoclinic
_symmetry_space_group_name_H-M   'I 2/a'
_symmetry_Int_Tables_number      15
_space_group_name_Hall           '-I 2ya'
loop_
_symmetry_equiv_pos_site_id
_symmetry_equiv_pos_as_xyz
1 x,y,z
2 1/2-x,y,-z
3 1/2+x,1/2+y,1/2+z
4 -x,1/2+y,1/2-z
5 -x,-y,-z
6 1/2+x,-y,z
7 1/2-x,1/2-y,1/2-z
8 x,1/2-y,1/2+z
_cell_length_a                   17.8854(7)
_cell_length_b                   3.7705(2)
_cell_length_c                   15.0919(7)
_cell_angle_alpha                90
_cell_angle_beta                 92.007(3)
_cell_angle_gamma                90
_cell_volume                     1017.13
loop_
_atom_site_label
_atom_site_type_symbol
_atom_site_fract_x
_atom_site_fract_y
_atom_site_fract_z
Ni1 Ni 0.7500 -1.670(2) 0.0000
Br1 Br 0.6875(4) -1.176(2) -0.0971(4)
N1 N 0.8429(3) -1.668(1) -0.0810(3)
S1 S 0.9176(7) -1.648(4) -0.2117(9)
C1 C 0.8349(3) -1.632(2) -0.1669(4)
C2 C 0.9675(4) -1.718(2) -0.1179(5)
C3 C 0.9146(3) -1.725(2) -0.0542(4)
H1 H 0.7851(9) -1.580(4) -0.1984(9)
H2 H 1.0246(9) -1.758(5) -0.1135(9)
H3 H 0.9242(8) -1.753(5) 0.0257(9)
Ni1_2 Ni 0.7500 -0.670(2) 0.0000
Br1A Br 0.8125(4) -1.176(2) 0.0971(4)
Br1_2 Br 0.6875(4) -2.176(2) -0.0971(4)
Ni1_3 Ni 0.7500 -2.670(2) 0.0000
Br1A_2 Br 0.8125(4) -2.176(2) 0.0971(4)
N1A N 0.6571(3) -1.668(1) 0.0810(3)
C1A C 0.6651(3) -1.632(2) 0.1669(4)
S1A S 0.5824(7) -1.648(4) 0.2117(9)
C2A C 0.5325(4) -1.718(2) 0.1179(5)
C3A C 0.5854(3) -1.725(2) 0.0542(4)
H3A H 0.5758(8) -1.753(5) -0.0257(9)
H2A H 0.4754(9) -1.758(5) 0.1135(9)
H1A H 0.7149(9) -1.580(4) 0.1984(9)
loop_
_geom_bond_atom_site_label_1
_geom_bond_atom_site_label_2
_geom_bond_site_symmetry_1
_geom_bond_site_symmetry_2
Ni1 Br1 1_555 1_555
Br1 Ni1_2 1_555 1_555
N1 Ni1 1_555 1_555
S1 C1 1_555 1_555
C1 N1 1_555 1_555
C2 S1 1_555 1_555
C3 N1 1_555 1_555
H1 C1 1_555 1_555
H2 C2 1_555 1_555
H3 C3 1_555 1_555
Ni1_2 Br1A 1_555 1_555
Br1A Ni1 1_555 1_555
Br1_2 Ni1 1_555 1_555
Ni1_3 Br1_2 1_555 1_555
Br1A_2 Ni1 1_555 1_555
N1A Ni1 1_555 1_555
C1A N1A 1_555 1_555
S1A C1A 1_555 1_555
C2A S1A 1_555 1_555
C3A N1A 1_555 1_555
H3A C3A 1_555 1_555
H2A C2A 1_555 1_555
H1A C1A 1_555 1_555
C2 C3 1_555 1_555
Ni1_3 Br1A_2 1_555 1_555
C2A C3A 1_555 1_555

#END
