
#######################################################################
#
#                 Cambridge Crystallographic Data Centre
#                                CCDC 
#
#######################################################################
#
# If this CIF has been generated from an entry in the Cambridge 
# Structural Database, then it will include bibliographic, chemical, 
# crystal, experimental, refinement or atomic coordinate data resulting 
# from the CCDC's data processing and validation procedures.
#
#######################################################################

data_HAQFAI
_symmetry_cell_setting           monoclinic
_symmetry_space_group_name_H-M   'C c'
_symmetry_Int_Tables_number      9
_space_group_name_Hall           'C -2yc'
loop_
_symmetry_equiv_pos_site_id
_symmetry_equiv_pos_as_xyz
1 x,y,z
2 x,-y,1/2+z
3 1/2+x,1/2+y,z
4 1/2+x,1/2-y,1/2+z
_cell_length_a                   9.1707(17)
_cell_length_b                   13.6639(17)
_cell_length_c                   9.4543(17)
_cell_angle_alpha                90
_cell_angle_beta                 105.555(7)
_cell_angle_gamma                90
_cell_volume                     1141.3
loop_
_atom_site_label
_atom_site_type_symbol
_atom_site_fract_x
_atom_site_fract_y
_atom_site_fract_z
Cu1 Cu 0.50025(8) 0.28388(5) -0.26822(8)
S1 S 0.5043(3) 0.52645(9) -0.2827(2)
O1 O 0.3723(6) 0.5157(4) -0.4285(5)
H1 H 0.4117 0.4915 -0.5055
O2 O 0.6082(7) 0.5970(4) -0.3126(7)
O3 O 0.4246(7) 0.5538(5) -0.1783(6)
O4 O 0.5741(5) 0.4307(3) -0.2554(6)
N1 N 0.2681(6) 0.2926(4) -0.3566(6)
N2 N 0.2302(7) 0.2477(4) -0.4859(6)
N3 N 0.0868(6) 0.2598(4) -0.5639(6)
C1 C 0.1397(7) 0.3408(4) -0.3489(7)
C2 C 0.1126(8) 0.4033(5) -0.2422(9)
H2 H 0.1857 0.4174 -0.1554
C3 C -0.0286(11) 0.4418(5) -0.2748(12)
H3 H -0.0516 0.4844 -0.2071
C4 C -0.1439(9) 0.4215(5) -0.4054(9)
H4 H -0.2384 0.4508 -0.4199
C5 C -0.1188(8) 0.3605(5) -0.5088(8)
H5 H -0.1935 0.3464 -0.5945
C6 C 0.0267(7) 0.3196(4) -0.4792(7)
C7 C 0.3415(8) 0.1866(5) -0.5291(8)
H6 H 0.3115 0.1773 -0.6347
H7 H 0.3462 0.1229 -0.4829
C8 C 0.4946(9) 0.2344(5) -0.4838(8)
H8 H 0.5082 0.2956 -0.5212
C9 C 0.6138(8) 0.1892(5) -0.3887(8)
H9 H 0.6011 0.1279 -0.3509
H10 H 0.7079 0.2197 -0.3617
Cu1C Cu 0.00025(8) 0.21612(5) -0.76822(8)
N3C N 0.5868(6) 0.2402(4) -0.0639(6)
loop_
_geom_bond_atom_site_label_1
_geom_bond_atom_site_label_2
_geom_bond_site_symmetry_1
_geom_bond_site_symmetry_2
Cu1 O4 1_555 1_555
S1 O1 1_555 1_555
O1 H1 1_555 1_555
O2 S1 1_555 1_555
O3 S1 1_555 1_555
O4 S1 1_555 1_555
N1 Cu1 1_555 1_555
N2 N1 1_555 1_555
N3 N2 1_555 1_555
C1 N1 1_555 1_555
C2 C1 1_555 1_555
H2 C2 1_555 1_555
C3 C2 1_555 1_555
H3 C3 1_555 1_555
C4 C3 1_555 1_555
H4 C4 1_555 1_555
C5 C4 1_555 1_555
H5 C5 1_555 1_555
C6 N3 1_555 1_555
C7 N2 1_555 1_555
H6 C7 1_555 1_555
H7 C7 1_555 1_555
C8 Cu1 1_555 1_555
H8 C8 1_555 1_555
C9 Cu1 1_555 1_555
H9 C9 1_555 1_555
H10 C9 1_555 1_555
Cu1C N3 1_555 1_555
N3C Cu1 1_555 1_555
C1 C6 1_555 1_555
C5 C6 1_555 1_555
C7 C8 1_555 1_555
C8 C9 1_555 1_555

#END
