
#######################################################################
#
#                 Cambridge Crystallographic Data Centre
#                                CCDC 
#
#######################################################################
#
# If this CIF has been generated from an entry in the Cambridge 
# Structural Database, then it will include bibliographic, chemical, 
# crystal, experimental, refinement or atomic coordinate data resulting 
# from the CCDC's data processing and validation procedures.
#
#######################################################################

data_HASMUL
_symmetry_cell_setting           monoclinic
_symmetry_space_group_name_H-M   'P 21/n'
_symmetry_Int_Tables_number      14
_space_group_name_Hall           '-P 2yn'
loop_
_symmetry_equiv_pos_site_id
_symmetry_equiv_pos_as_xyz
1 x,y,z
2 1/2-x,1/2+y,1/2-z
3 -x,-y,-z
4 1/2+x,1/2-y,1/2+z
_cell_length_a                   15.1318(3)
_cell_length_b                   17.3172(6)
_cell_length_c                   15.8969(5)
_cell_angle_alpha                90
_cell_angle_beta                 114.284(2)
_cell_angle_gamma                90
_cell_volume                     3797.05
loop_
_atom_site_label
_atom_site_type_symbol
_atom_site_fract_x
_atom_site_fract_y
_atom_site_fract_z
Ce1 Ce 0.094096(11) 1.047466(9) 0.428377(11)
S1 S 0.01559(5) 1.23675(4) 0.50043(5)
O1 O 0.03647(15) 1.06064(12) 0.55500(14)
O2 O -0.00399(16) 1.06899(13) 0.67273(15)
O3 O 0.04710(15) 1.18659(12) 0.44367(15)
O4 O 0.01653(18) 1.31705(13) 0.47506(17)
O5 O -0.07654(15) 1.21254(13) 0.50007(16)
O6 O 0.24410(14) 1.08806(12) 0.56383(14)
O7 O 0.65870(15) 1.20134(14) 0.70143(16)
O8 O 0.19899(15) 1.13280(12) 0.37050(15)
O9 O 0.61428(15) 1.25448(14) 0.48196(18)
O10 O 0.25353(16) 0.97918(14) 0.22751(16)
O11 O 0.65579(15) 1.11020(14) 0.36218(16)
O12 O -0.09332(16) 1.07061(14) 0.32268(17)
O13 O 0.00595(19) 1.08606(16) 0.25587(17)
O14 O -0.1507(2) 1.08431(19) 0.1714(2)
O15 O 0.16435(15) 0.93510(13) 0.53030(15)
H1 H 0.1446 0.8882 0.5368
H2 H 0.2229 0.9324 0.5550
O16 O 0.20564(19) 0.97166(14) 0.37827(19)
H3 H 0.1872 0.9722 0.3216
H4 H 0.2042 0.9271 0.3944
N1 N 0.38336(17) 1.10444(16) 0.69540(17)
N2 N 0.33233(17) 1.20155(15) 0.59590(18)
N3 N 0.50016(18) 1.24402(16) 0.64777(19)
N4 N 0.54998(18) 1.15377(16) 0.75619(18)
N5 N 0.29532(18) 1.23843(15) 0.43831(18)
N6 N 0.30740(17) 1.18479(15) 0.31703(17)
N7 N 0.46803(17) 1.23845(16) 0.35576(19)
N8 N 0.46689(17) 1.27468(16) 0.48949(19)
N9 N 0.34243(17) 1.08755(16) 0.22662(18)
N10 N 0.38505(18) 0.97416(17) 0.18983(18)
N11 N 0.55093(18) 1.02351(17) 0.25586(18)
N12 N 0.50161(17) 1.14410(16) 0.26122(18)
N13 N -0.0819(2) 1.07943(18) 0.2486(2)
C1 C 0.0437(2) 1.09291(17) 0.6288(2)
C2 C 0.1105(2) 1.16035(18) 0.6669(2)
C3 C 0.1041(2) 1.22732(18) 0.6168(2)
C4 C 0.1647(2) 1.2899(2) 0.6571(2)
H7 H 0.1581 1.3356 0.6242
C5 C 0.2353(2) 1.2836(2) 0.7473(3)
H8 H 0.2767 1.3248 0.7744
C6 C 0.2438(2) 1.2165(2) 0.7960(2)
H9 H 0.2918 1.2122 0.8556
C7 C 0.1811(2) 1.1546(2) 0.7569(2)
H10 H 0.1864 1.1097 0.7908
C8 C 0.3138(2) 1.12754(17) 0.6131(2)
C9 C 0.4509(2) 1.16723(19) 0.7422(2)
H11 H 0.4462 1.1824 0.7997
C10 C 0.4175(2) 1.23293(18) 0.6699(2)
H12 H 0.4022 1.2801 0.6953
C11 C 0.5780(2) 1.19934(18) 0.7010(2)
C12 C 0.2704(2) 1.24538(17) 0.5160(2)
H13 H 0.2736 1.2994 0.5331
H14 H 0.2040 1.2283 0.4977
C13 C 0.5049(2) 1.30148(19) 0.5842(2)
H15 H 0.4685 1.3466 0.5876
H16 H 0.5719 1.3170 0.6029
C14 C 0.2624(2) 1.18024(18) 0.3751(2)
C15 C 0.3670(2) 1.28622(18) 0.4239(2)
H17 H 0.3490 1.3409 0.4182
C16 C 0.3668(2) 1.25407(18) 0.3330(2)
H18 H 0.3394 1.2911 0.2822
C17 C 0.5247(2) 1.25537(18) 0.4464(2)
C18 C 0.2728(2) 1.14368(19) 0.2299(2)
H19 H 0.2591 1.1806 0.1802
H20 H 0.2128 1.1174 0.2203
C19 C 0.5064(2) 1.22383(19) 0.2892(2)
H21 H 0.4713 1.2551 0.2350
H22 H 0.5736 1.2403 0.3145
C20 C 0.3206(2) 1.01086(19) 0.2163(2)
C21 C 0.4164(2) 1.1074(2) 0.1936(2)
H23 H 0.3893 1.1366 0.1357
C22 C 0.4544(2) 1.0271(2) 0.1805(2)
H24 H 0.4569 1.0225 0.1201
C23 C 0.5775(2) 1.0935(2) 0.3001(2)
C24 C 0.6187(2) 1.1072(2) 0.8302(2)
H25 H 0.6836 1.1258 0.8439
H26 H 0.6066 1.1144 0.8850
C25 C 0.3768(2) 1.03330(19) 0.7396(2)
H27 H 0.3129 1.0113 0.7063
H28 H 0.3839 1.0447 0.8018
Ce1B Ce -0.094096(11) 0.952534(9) 0.571623(11)
Ce1B_2 Ce 0.905904(11) 0.952534(9) 0.571623(11)
S1B S -0.01559(5) 0.76325(4) 0.49957(5)
O1B O -0.03647(15) 0.93936(12) 0.44500(14)
O2B O 0.00399(16) 0.93101(13) 0.32727(15)
O3B O -0.04710(15) 0.81341(12) 0.55633(15)
O4B O -0.01653(18) 0.68295(13) 0.52494(17)
O5B O 0.07654(15) 0.78746(13) 0.49993(16)
O6B O 0.75590(14) 0.91194(12) 0.43617(14)
O6B_2 O -0.24410(14) 0.91194(12) 0.43617(14)
O7B O 0.34130(15) 0.79866(14) 0.29857(16)
O8B O 0.80101(15) 0.86720(12) 0.62950(15)
O8B_2 O -0.19899(15) 0.86720(12) 0.62950(15)
O9B O 0.38572(15) 0.74552(14) 0.51804(18)
O10B O 0.74647(16) 1.02082(14) 0.77249(16)
O11B O 0.34421(15) 0.88980(14) 0.63782(16)
O12B O 0.09332(16) 0.92939(14) 0.67732(17)
O13B O -0.00595(19) 0.91394(16) 0.74413(17)
O14B O 0.1507(2) 0.91569(19) 0.8286(2)
O15B O -0.16435(15) 1.06490(13) 0.46970(15)
H1B H -0.1446 1.1118 0.4632
H2B H -0.2229 1.0676 0.4450
O16B O -0.20564(19) 1.02834(14) 0.62173(19)
H3B H -0.1872 1.0278 0.6784
H4B H -0.2042 1.0729 0.6056
N1B N 0.61664(17) 0.89556(16) 0.30460(17)
N2B N 0.66767(17) 0.79845(15) 0.40410(18)
N3B N 0.49984(18) 0.75598(16) 0.35223(19)
N4B N 0.45002(18) 0.84623(16) 0.24381(18)
N5B N 0.70468(18) 0.76157(15) 0.56169(18)
N6B N 0.69260(17) 0.81521(15) 0.68297(17)
N7B N 0.53197(17) 0.76155(16) 0.64424(19)
N8B N 0.53311(17) 0.72532(16) 0.51051(19)
N9B N 0.65757(17) 0.91245(16) 0.77338(18)
N10B N 0.61495(18) 1.02584(17) 0.81017(18)
N11B N 0.44907(18) 0.97649(17) 0.74414(18)
N12B N 0.49839(17) 0.85590(16) 0.73878(18)
N13B N 0.0819(2) 0.92057(18) 0.7514(2)
C1B C -0.0437(2) 0.90709(17) 0.3712(2)
C2B C -0.1105(2) 0.83965(18) 0.3331(2)
C3B C -0.1041(2) 0.77268(18) 0.3832(2)
C4B C -0.1647(2) 0.7101(2) 0.3429(2)
H7B H -0.1581 0.6644 0.3758
C5B C -0.2353(2) 0.7164(2) 0.2527(3)
H8B H -0.2767 0.6752 0.2256
C6B C -0.2438(2) 0.7835(2) 0.2040(2)
H9B H -0.2918 0.7878 0.1444
C7B C -0.1811(2) 0.8454(2) 0.2431(2)
H10B H -0.1864 0.8903 0.2092
C8B C 0.6862(2) 0.87246(17) 0.3869(2)
C9B C 0.5491(2) 0.83277(19) 0.2578(2)
H11B H 0.5538 0.8176 0.2003
C10B C 0.5825(2) 0.76707(18) 0.3301(2)
H12B H 0.5978 0.7199 0.3047
C11B C 0.4220(2) 0.80066(18) 0.2990(2)
C12B C 0.7296(2) 0.75462(17) 0.4840(2)
H13B H 0.7264 0.7006 0.4669
H14B H 0.7960 0.7717 0.5023
C13B C 0.4951(2) 0.69852(19) 0.4158(2)
H15B H 0.5315 0.6534 0.4124
H16B H 0.4281 0.6830 0.3971
C14B C 0.7376(2) 0.81976(18) 0.6249(2)
C15B C 0.6330(2) 0.71378(18) 0.5761(2)
H17B H 0.6510 0.6591 0.5818
C16B C 0.6332(2) 0.74593(18) 0.6670(2)
H18B H 0.6606 0.7089 0.7178
C17B C 0.4753(2) 0.74463(18) 0.5536(2)
C18B C 0.7272(2) 0.85632(19) 0.7701(2)
H19B H 0.7409 0.8194 0.8198
H20B H 0.7872 0.8826 0.7797
C19B C 0.4936(2) 0.77617(19) 0.7108(2)
H21B H 0.5287 0.7449 0.7650
H22B H 0.4264 0.7597 0.6855
C20B C 0.6794(2) 0.98914(19) 0.7837(2)
C21B C 0.5836(2) 0.8926(2) 0.8064(2)
H23B H 0.6107 0.8634 0.8643
C22B C 0.5456(2) 0.9729(2) 0.8195(2)
H24B H 0.5431 0.9775 0.8799
C23B C 0.4225(2) 0.9065(2) 0.6999(2)
C24B C 0.3813(2) 0.8928(2) 0.1698(2)
H25B H 0.3164 0.8742 0.1561
H26B H 0.3934 0.8856 0.1150
C25B C 0.6232(2) 0.96670(19) 0.2604(2)
H27B H 0.6871 0.9887 0.2937
H28B H 0.6161 0.9553 0.1982
O17 O 0.79871(16) 1.19098(14) 0.60286(17)
H5 H 0.8346 1.2015 0.5695
H6 H 0.7305 1.2020 0.5710
O18 O 0.2873(2) 0.60040(19) 0.4899(2)
O19 O 1.0439(4) 0.9239(2) 0.1569(3)
O21 O 1.1411(4) 0.5863(3) 0.5499(4)
O22 O 1.1729(7) 0.9462(4) 1.0023(5)
O20? O 1.0014(4) 0.5291(3) 0.5066(4)
O23? O 1.1924(4) 0.5037(4) 0.5633(5)
O24? O 1.0736(5) 0.9910(5) 1.0087(6)
loop_
_geom_bond_atom_site_label_1
_geom_bond_atom_site_label_2
_geom_bond_site_symmetry_1
_geom_bond_site_symmetry_2
Ce1 O1 1_555 1_555
S1 O3 1_555 1_555
O1 C1 1_555 1_555
O2 C1 1_555 1_555
O3 Ce1 1_555 1_555
O4 S1 1_555 1_555
O5 S1 1_555 1_555
O6 Ce1 1_555 1_555
O7 C11 1_555 1_555
O8 Ce1 1_555 1_555
O9 C17 1_555 1_555
O10 C20 1_555 1_555
O11 C23 1_555 1_555
O12 Ce1 1_555 1_555
O13 Ce1 1_555 1_555
O14 N13 1_555 1_555
O15 Ce1 1_555 1_555
H1 O15 1_555 1_555
H2 O15 1_555 1_555
O16 Ce1 1_555 1_555
H3 O16 1_555 1_555
H4 O16 1_555 1_555
O17 H5 1_555 1_555
H6 O17 1_555 1_555
N1 C8 1_555 1_555
N2 C8 1_555 1_555
N3 C10 1_555 1_555
N4 C9 1_555 1_555
N5 C12 1_555 1_555
N6 C14 1_555 1_555
N7 C16 1_555 1_555
N8 C13 1_555 1_555
N9 C18 1_555 1_555
N10 C20 1_555 1_555
N11 C22 1_555 1_555
N12 C19 1_555 1_555
N13 O12 1_555 1_555
C1 C2 1_555 1_555
C2 C3 1_555 1_555
C3 S1 1_555 1_555
C4 C3 1_555 1_555
H7 C4 1_555 1_555
C5 C4 1_555 1_555
H8 C5 1_555 1_555
C6 C5 1_555 1_555
H9 C6 1_555 1_555
C7 C2 1_555 1_555
H10 C7 1_555 1_555
C8 O6 1_555 1_555
C9 N1 1_555 1_555
H11 C9 1_555 1_555
C10 N2 1_555 1_555
H12 C10 1_555 1_555
C11 N3 1_555 1_555
C12 N2 1_555 1_555
H13 C12 1_555 1_555
H14 C12 1_555 1_555
C13 N3 1_555 1_555
H15 C13 1_555 1_555
H16 C13 1_555 1_555
C14 O8 1_555 1_555
C15 N5 1_555 1_555
H17 C15 1_555 1_555
C16 N6 1_555 1_555
H18 C16 1_555 1_555
C17 N7 1_555 1_555
C18 N6 1_555 1_555
H19 C18 1_555 1_555
H20 C18 1_555 1_555
C19 N7 1_555 1_555
H21 C19 1_555 1_555
H22 C19 1_555 1_555
C20 N9 1_555 1_555
C21 N9 1_555 1_555
H23 C21 1_555 1_555
C22 N10 1_555 1_555
H24 C22 1_555 1_555
C23 N11 1_555 1_555
C24 N4 1_555 1_555
H25 C24 1_555 1_555
H26 C24 1_555 1_555
C25 N1 1_555 1_555
H27 C25 1_555 1_555
H28 C25 1_555 1_555
Ce1B O1 1_555 1_555
Ce1B_2 O6B 1_555 1_555
S1B O3B 1_555 1_555
O1B Ce1 1_555 1_555
O2B Ce1 1_555 1_555
O3B Ce1B 1_555 1_555
O4B S1B 1_555 1_555
O5B S1B 1_555 1_555
O6B C8B 1_555 1_555
O6B_2 Ce1B 1_555 1_555
O7B C11B 1_555 1_555
O8B Ce1B_2 1_555 1_555
O8B_2 Ce1B 1_555 1_555
O9B C17B 1_555 1_555
O10B C20B 1_555 1_555
O11B C23B 1_555 1_555
O12B Ce1B 1_555 1_555
O13B Ce1B 1_555 1_555
O14B N13B 1_555 1_555
O15B Ce1B 1_555 1_555
H1B O15B 1_555 1_555
H2B O15B 1_555 1_555
O16B Ce1B 1_555 1_555
H3B O16B 1_555 1_555
H4B O16B 1_555 1_555
N1B C8B 1_555 1_555
N2B C8B 1_555 1_555
N3B C10B 1_555 1_555
N4B C9B 1_555 1_555
N5B C12B 1_555 1_555
N6B C14B 1_555 1_555
N7B C16B 1_555 1_555
N8B C13B 1_555 1_555
N9B C18B 1_555 1_555
N10B C24 1_555 1_555
N11B C25 1_555 1_555
N12B C19B 1_555 1_555
N13B O12B 1_555 1_555
C1B O1B 1_555 1_555
C2B C1B 1_555 1_555
C3B S1B 1_555 1_555
C4B C3B 1_555 1_555
H7B C4B 1_555 1_555
C5B C4B 1_555 1_555
H8B C5B 1_555 1_555
C6B C5B 1_555 1_555
H9B C6B 1_555 1_555
C7B C2B 1_555 1_555
H10B C7B 1_555 1_555
C9B N1B 1_555 1_555
H11B C9B 1_555 1_555
C10B N2B 1_555 1_555
H12B C10B 1_555 1_555
C11B N3B 1_555 1_555
C12B N2B 1_555 1_555
H13B C12B 1_555 1_555
H14B C12B 1_555 1_555
C13B N3B 1_555 1_555
H15B C13B 1_555 1_555
H16B C13B 1_555 1_555
C14B O8B 1_555 1_555
C15B N5B 1_555 1_555
H17B C15B 1_555 1_555
C16B N6B 1_555 1_555
H18B C16B 1_555 1_555
C17B N7B 1_555 1_555
C18B N6B 1_555 1_555
H19B C18B 1_555 1_555
H20B C18B 1_555 1_555
C19B N7B 1_555 1_555
H21B C19B 1_555 1_555
H22B C19B 1_555 1_555
C20B N9B 1_555 1_555
C21B N9B 1_555 1_555
H23B C21B 1_555 1_555
C22B N10B 1_555 1_555
H24B C22B 1_555 1_555
C23B N11B 1_555 1_555
C24B N10 1_555 1_555
H25B C24B 1_555 1_555
H26B C24B 1_555 1_555
C25B N11 1_555 1_555
H27B C25B 1_555 1_555
H28B C25B 1_555 1_555
O2 Ce1B 1_555 1_555
O13 N13 1_555 1_555
N4 C11 1_555 1_555
N5 C14 1_555 1_555
N8 C15 1_555 1_555
N8 C17 1_555 1_555
N12 C21 1_555 1_555
N12 C23 1_555 1_555
C6 C7 1_555 1_555
C9 C10 1_555 1_555
C15 C16 1_555 1_555
C21 C22 1_555 1_555
Ce1B O1B 1_555 1_555
O2B C1B 1_555 1_555
O13B N13B 1_555 1_555
N1B C25B 1_555 1_555
N4B C11B 1_555 1_555
N4B C24B 1_555 1_555
N5B C14B 1_555 1_555
N8B C15B 1_555 1_555
N8B C17B 1_555 1_555
N10B C20B 1_555 1_555
N11B C22B 1_555 1_555
N12B C21B 1_555 1_555
N12B C23B 1_555 1_555
C2B C3B 1_555 1_555
C6B C7B 1_555 1_555
C9B C10B 1_555 1_555
C15B C16B 1_555 1_555
C21B C22B 1_555 1_555

#END
