
#######################################################################
#
#                 Cambridge Crystallographic Data Centre
#                                CCDC 
#
#######################################################################
#
# If this CIF has been generated from an entry in the Cambridge 
# Structural Database, then it will include bibliographic, chemical, 
# crystal, experimental, refinement or atomic coordinate data resulting 
# from the CCDC's data processing and validation procedures.
#
#######################################################################

data_HATKUK
_symmetry_cell_setting           triclinic
_symmetry_space_group_name_H-M   'P -1'
_symmetry_Int_Tables_number      2
_space_group_name_Hall           '-P 1'
loop_
_symmetry_equiv_pos_site_id
_symmetry_equiv_pos_as_xyz
1 x,y,z
2 -x,-y,-z
_cell_length_a                   16.312(2)
_cell_length_b                   18.040(2)
_cell_length_c                   22.835(3)
_cell_angle_alpha                105.968(2)
_cell_angle_beta                 103.670(2)
_cell_angle_gamma                105.645(2)
_cell_volume                     5860.64
loop_
_atom_site_label
_atom_site_type_symbol
_atom_site_fract_x
_atom_site_fract_y
_atom_site_fract_z
Cu1 Cu 0.85972(9) 0.97602(8) 0.43143(6)
Cu2 Cu 0.56763(8) 0.96772(8) 0.08695(6)
P1 P 0.9534(2) 0.85258(18) 0.48737(15)
P2 P 0.40724(19) 0.85944(17) -0.05474(15)
O1 O 0.8793(5) 0.8836(4) 0.4714(3)
O2 O 0.9322(6) 0.7942(5) 0.5261(4)
O3 O 0.9496(5) 0.7873(5) 0.4238(4)
O4 O 1.0468(5) 0.9137(4) 0.5205(4)
O5 O 0.4828(5) 0.8656(4) -0.0013(3)
O6 O 0.4086(5) 0.8058(4) -0.1223(3)
O7 O 0.3180(5) 0.8076(4) -0.0461(4)
O8 O 0.3962(5) 0.9352(4) -0.0631(3)
N1 N 0.7416(6) 0.9013(5) 0.3550(4)
N2 N 0.9162(6) 0.9377(5) 0.3674(4)
N3 N 0.7744(6) 0.9958(6) 0.4769(5)
N4 N 0.5680(6) 0.8977(5) 0.1445(4)
N5 N 0.6738(6) 0.9386(5) 0.0778(4)
N6 N 0.4632(6) 0.9811(5) 0.1114(4)
C1 C 0.7669(7) 0.8327(6) 0.3218(5)
H1 H 0.7219 0.8000 0.2794
H2 H 0.7705 0.7972 0.3466
C2 C 0.8565(8) 0.8695(7) 0.3155(6)
C3 C 0.8818(8) 0.8355(7) 0.2640(6)
H3 H 0.8403 0.7896 0.2287
C4 C 0.9693(9) 0.8697(8) 0.2645(6)
H4 H 0.9868 0.8484 0.2295
C5 C 1.0297(8) 0.9363(7) 0.3188(6)
H5 H 1.0894 0.9589 0.3212
C6 C 1.0022(8) 0.9696(7) 0.3690(6)
H6 H 1.0436 1.0148 0.4049
C7 C 0.6733(7) 0.8742(6) 0.3845(5)
H7 H 0.6136 0.8613 0.3548
H8 H 0.6757 0.8243 0.3919
C8 C 0.6881(8) 0.9381(7) 0.4462(6)
C9 C 0.6228(9) 0.9411(8) 0.4742(6)
H9 H 0.5648 0.9016 0.4537
C10 C 0.6426(10) 1.0017(9) 0.5321(7)
H10 H 0.5980 1.0039 0.5508
C11 C 0.7291(9) 1.0602(8) 0.5629(6)
H11 H 0.7437 1.1021 0.6023
C12 C 0.7931(9) 1.0542(8) 0.5336(6)
H12 H 0.8517 1.0926 0.5543
C13 C 0.7135(7) 0.9450(6) 0.3133(5)
C14 C 0.7524(8) 1.0321(7) 0.3363(5)
H13 H 0.7933 1.0620 0.3779
C15 C 0.7273(8) 1.0714(6) 0.2942(5)
H14 H 0.7518 1.1287 0.3087
C16 C 0.6683(7) 1.0293(6) 0.2325(5)
H15 H 0.6534 1.0577 0.2057
C17 C 0.6310(6) 0.9442(6) 0.2102(5)
C18 C 0.6529(7) 0.9024(6) 0.2511(5)
H16 H 0.6265 0.8452 0.2364
C19 C 0.5961(7) 0.8316(6) 0.1090(5)
H17 H 0.5466 0.7934 0.0701
H18 H 0.6121 0.8010 0.1360
C20 C 0.6776(7) 0.8718(6) 0.0914(5)
C21 C 0.7420(8) 0.8389(7) 0.0843(6)
H19 H 0.7424 0.7920 0.0937
C22 C 0.8079(9) 0.8782(9) 0.0620(7)
H20 H 0.8539 0.8584 0.0572
C23 C 0.8040(8) 0.9457(8) 0.0477(7)
H21 H 0.8458 0.9710 0.0312
C24 C 0.7375(7) 0.9765(7) 0.0577(5)
H22 H 0.7373 1.0247 0.0503
C25 C 0.4728(7) 0.8644(7) 0.1418(5)
H23 H 0.4709 0.8486 0.1789
H24 H 0.4388 0.8158 0.1030
C26 C 0.4319(7) 0.9290(7) 0.1418(5)
C27 C 0.3615(9) 0.9329(8) 0.1651(6)
H25 H 0.3417 0.8983 0.1865
C28 C 0.3218(9) 0.9882(10) 0.1563(7)
H26 H 0.2735 0.9906 0.1708
C29 C 0.3528(8) 1.0407(9) 0.1259(7)
H27 H 0.3275 1.0800 0.1210
C30 C 0.4207(7) 1.0334(7) 0.1035(5)
H28 H 0.4393 1.0669 0.0810
C31 C 0.9128(10) 0.8193(7) 0.5842(7)
C32 C 0.9766(11) 0.8278(9) 0.6409(8)
H29 H 1.0308 0.8207 0.6400
C33 C 0.959(2) 0.8465(14) 0.6965(11)
H30 H 1.0013 0.8516 0.7342
C34 C 0.884(2) 0.8578(11) 0.6990(10)
H31 H 0.8744 0.8727 0.7385
C35 C 0.8163(12) 0.8473(8) 0.6417(10)
H32 H 0.7626 0.8545 0.6436
C36 C 0.8312(9) 0.8266(7) 0.5834(7)
H33 H 0.7876 0.8179 0.5451
C37 C 1.0180(10) 0.7542(8) 0.4178(8)
C38 C 1.0331(10) 0.7421(9) 0.3617(8)
H34 H 0.9999 0.7547 0.3292
C39 C 1.0982(14) 0.7109(11) 0.3531(8)
H35 H 1.1104 0.7029 0.3145
C40 C 1.146(2) 0.6910(19) 0.4007(15)
H36 H 1.1860 0.6639 0.3932
C41 C 1.1341(19) 0.7115(16) 0.4570(13)
H37 H 1.1725 0.7049 0.4908
C42 C 1.0692(16) 0.7418(12) 0.4696(10)
H38 H 1.0602 0.7530 0.5093
C43 C 0.4306(8) 0.7351(7) -0.1289(5)
C44 C 0.3630(9) 0.6597(8) -0.1615(7)
H39 H 0.3035 0.6563 -0.1773
C45 C 0.3836(11) 0.5869(8) -0.1712(7)
H40 H 0.3386 0.5354 -0.1953
C46 C 0.4720(13) 0.5938(10) -0.1441(8)
H41 H 0.4860 0.5464 -0.1476
C47 C 0.5399(12) 0.6709(10) -0.1116(7)
H42 H 0.5998 0.6754 -0.0959
C48 C 0.5177(9) 0.7418(9) -0.1027(6)
H43 H 0.5623 0.7936 -0.0788
C49 C 0.2338(8) 0.8148(6) -0.0710(6)
C50 C 0.1975(8) 0.8004(7) -0.1358(6)
H44 H 0.2268 0.7840 -0.1645
C51 C 0.1176(9) 0.8108(8) -0.1567(7)
H45 H 0.0928 0.8023 -0.2002
C52 C 0.0733(8) 0.8333(7) -0.1157(8)
H46 H 0.0190 0.8403 -0.1312
C53 C 0.1080(10) 0.8460(8) -0.0510(8)
H47 H 0.0774 0.8614 -0.0230
C54 C 0.1916(9) 0.8351(7) -0.0279(7)
H48 H 0.2161 0.8418 0.0152
Cu1A Cu 1.14028(9) 1.02398(8) 0.56857(6)
Cu2A Cu 0.43237(8) 1.03228(8) -0.08695(6)
O4A O 0.9532(5) 1.0863(4) 0.4795(4)
O8A O 0.6038(5) 1.0648(4) 0.0631(3)
Cu3 Cu 0.37771(9) 0.48624(8) 0.42745(6)
Cu4 Cu 0.05548(9) 0.49237(8) 0.09690(6)
P3 P 0.4356(2) 0.34862(18) 0.48547(15)
P4 P 0.10369(19) 0.64612(17) 0.04666(14)
O9 O 0.3722(5) 0.3899(4) 0.4673(3)
O10 O 0.4341(5) 0.2832(5) 0.4207(3)
O11 O 0.3953(5) 0.2852(4) 0.5173(4)
O12 O 0.5308(5) 0.4022(4) 0.5257(3)
O13 O 0.1025(4) 0.6025(4) 0.0937(3)
O14 O 0.0500(5) 0.7075(4) 0.0581(4)
O15 O 0.2032(5) 0.7097(4) 0.0653(3)
O16 O 0.0667(5) 0.5947(4) -0.0235(3)
N7 N 0.2612(5) 0.4104(5) 0.3494(4)
N8 N 0.4374(6) 0.4404(5) 0.3685(4)
N9 N 0.2891(6) 0.5144(6) 0.4680(4)
N10 N 0.0677(5) 0.4170(5) 0.1508(4)
N11 N -0.0173(5) 0.5241(5) 0.1509(4)
N12 N 0.1320(5) 0.4410(5) 0.0571(4)
C55 C 0.1926(7) 0.3877(7) 0.3792(5)
H49 H 0.1977 0.3422 0.3928
H50 H 0.1329 0.3694 0.3476
C56 C 0.2035(8) 0.4591(7) 0.4363(6)
C57 C 0.1347(10) 0.4673(10) 0.4585(8)
H51 H 0.0758 0.4302 0.4359
C58 C 0.1541(12) 0.5317(12) 0.5153(9)
H52 H 0.1082 0.5365 0.5319
C59 C 0.2385(11) 0.5876(10) 0.5469(7)
H53 H 0.2518 0.6310 0.5851
C60 C 0.3051(9) 0.5780(8) 0.5203(6)
H54 H 0.3630 0.6178 0.5401
C61 C 0.2842(8) 0.3414(6) 0.3161(5)
H55 H 0.2434 0.3143 0.2718
H56 H 0.2774 0.3014 0.3373
C62 C 0.3807(8) 0.3722(7) 0.3169(5)
C63 C 0.4111(8) 0.3314(7) 0.2708(6)
H57 H 0.3700 0.2860 0.2349
C64 C 0.5014(9) 0.3569(8) 0.2770(6)
H58 H 0.5224 0.3291 0.2466
C65 C 0.5599(9) 0.4263(7) 0.3312(6)
H59 H 0.6213 0.4459 0.3371
C66 C 0.5270(8) 0.4659(7) 0.3759(5)
H60 H 0.5671 0.5113 0.4121
C67 C 0.2396(7) 0.4569(6) 0.3069(5)
C68 C 0.2902(7) 0.5407(6) 0.3256(5)
H61 H 0.3377 0.5683 0.3647
C69 C 0.2683(7) 0.5817(7) 0.2848(6)
H62 H 0.3031 0.6368 0.2958
C70 C 0.1970(7) 0.5429(6) 0.2289(5)
H63 H 0.1828 0.5715 0.2022
C71 C 0.1453(7) 0.4609(6) 0.2119(5)
C72 C 0.1663(7) 0.4188(6) 0.2523(5)
H64 H 0.1300 0.3643 0.2420
C73 C -0.0190(6) 0.3965(6) 0.1651(5)
H65 H -0.0111 0.3794 0.2022
H66 H -0.0661 0.3513 0.1284
C74 C -0.0459(7) 0.4715(7) 0.1792(5)
C75 C -0.0978(7) 0.4836(8) 0.2183(6)
H67 H -0.1138 0.4478 0.2396
C76 C -0.1246(8) 0.5496(8) 0.2245(6)
H68 H -0.1607 0.5583 0.2498
C77 C -0.0995(8) 0.6042(8) 0.1941(7)
H69 H -0.1192 0.6485 0.1978
C78 C -0.0440(7) 0.5904(7) 0.1581(5)
H70 H -0.0246 0.6273 0.1384
C79 C 0.0781(7) 0.3454(6) 0.1061(5)
H71 H 0.0193 0.3081 0.0751
H72 H 0.1029 0.3156 0.1305
C80 C 0.1405(7) 0.3747(6) 0.0701(5)
C81 C 0.1937(8) 0.3355(7) 0.0514(5)
H73 H 0.1981 0.2912 0.0635
C82 C 0.2424(8) 0.3611(7) 0.0139(6)
H74 H 0.2807 0.3351 0.0010
C83 C 0.2325(8) 0.4266(7) -0.0040(6)
H75 H 0.2615 0.4438 -0.0311
C84 C 0.1785(7) 0.4657(7) 0.0194(5)
H76 H 0.1738 0.5111 0.0090
C85 C 0.4752(9) 0.2236(7) 0.4150(7)
C86 C 0.5356(10) 0.2197(8) 0.4672(8)
H77 H 0.5494 0.2574 0.5084
C87 C 0.5760(11) 0.1604(9) 0.4591(10)
H78 H 0.6177 0.1587 0.4939
C88 C 0.5513(15) 0.1038(11) 0.3967(12)
H79 H 0.5742 0.0615 0.3893
C89 C 0.4900(16) 0.1115(12) 0.3438(11)
H80 H 0.4773 0.0763 0.3018
C90 C 0.4504(13) 0.1690(10) 0.3539(8)
H81 H 0.4075 0.1710 0.3198
C91 C 0.3923(9) 0.3171(5) 0.5787(4)
C92 C 0.4612(7) 0.3263(6) 0.6325(6)
H82 H 0.5110 0.3132 0.6274
C93 C 0.4555(10) 0.3553(7) 0.6939(5)
H83 H 0.5016 0.3615 0.7299
C94 C 0.3810(13) 0.3749(6) 0.7015(5)
H84 H 0.3772 0.3943 0.7426
C95 C 0.3121(9) 0.3656(7) 0.6477(8)
H85 H 0.2623 0.3788 0.6528
C96 C 0.3178(7) 0.3367(6) 0.5863(6)
H86 H 0.2717 0.3305 0.5503
C97 C 0.2738(7) 0.6777(6) 0.0619(5)
C98 C 0.3227(7) 0.6730(6) 0.1173(6)
H87 H 0.3095 0.6881 0.1553
C99 C 0.3941(8) 0.6441(7) 0.1141(7)
H88 H 0.4292 0.6395 0.1505
C100 C 0.4122(9) 0.6227(8) 0.0571(8)
H89 H 0.4598 0.6040 0.0558
C101 C 0.3612(9) 0.6280(7) 0.0017(7)
H90 H 0.3730 0.6126 -0.0369
C102 C 0.2929(8) 0.6571(7) 0.0062(6)
H91 H 0.2585 0.6628 -0.0299
C103 C 0.0788(8) 0.7830(7) 0.1097(6)
C104 C 0.1393(8) 0.7968(7) 0.1696(6)
H92 H 0.1602 0.7561 0.1775
C105 C 0.1670(8) 0.8752(8) 0.2173(6)
H93 H 0.2085 0.8869 0.2574
C106 C 0.1353(11) 0.9352(9) 0.2072(9)
H94 H 0.1542 0.9867 0.2396
C107 C 0.0722(11) 0.9157(9) 0.1452(9)
H95 H 0.0498 0.9554 0.1370
C108 C 0.0448(8) 0.8422(7) 0.0988(7)
H96 H 0.0027 0.8306 0.0589
Cu3A Cu 0.62229(9) 0.51376(8) 0.57255(6)
Cu4A Cu -0.05548(9) 0.50763(8) -0.09690(6)
O12A O 0.4692(5) 0.5978(4) 0.4743(3)
O16A O -0.0667(5) 0.4053(4) 0.0235(3)
Cl1 Cl 0.6693(2) 0.63902(19) 0.14629(17)
O17 O 0.6266(7) 0.6923(6) 0.1719(4)
O18 O 0.6138(9) 0.5658(7) 0.1014(7)
O19 O 0.7171(7) 0.6217(7) 0.2017(6)
O20 O 0.7430(7) 0.6837(6) 0.1294(5)
Cl2 Cl 0.8882(2) 0.3286(2) 0.32607(19)
O21 O 0.9650(6) 0.3470(7) 0.3050(5)
O22 O 0.9117(8) 0.3381(10) 0.3898(5)
O23 O 0.8375(12) 0.3731(11) 0.3133(10)
O24 O 0.8368(11) 0.2493(8) 0.2910(7)
Cl3 Cl 0.3891(2) 0.8227(2) 0.31240(16)
O25 O 0.3850(11) 0.9010(7) 0.3269(7)
O26 O 0.4506(8) 0.8168(11) 0.2816(6)
O27 O 0.4079(7) 0.8038(7) 0.3692(5)
O28 O 0.3015(7) 0.7675(6) 0.2691(5)
Cl4 Cl 0.1664(4) 0.1564(4) 0.1181(4)
O29 O 0.1566(6) 0.2160(5) 0.1674(4)
O30 O 0.2512(5) 0.1884(6) 0.1128(4)
O31 O 0.1333(11) 0.0744(5) 0.1101(8)
O32 O 0.1022(8) 0.1412(10) 0.0599(6)
Cl5? Cl 0.1885(5) 0.1555(4) 0.1400(4)
O33? O 0.2303(12) 0.1383(11) 0.1928(7)
loop_
_geom_bond_atom_site_label_1
_geom_bond_atom_site_label_2
_geom_bond_site_symmetry_1
_geom_bond_site_symmetry_2
Cu1 O1 1_555 1_555
Cu2 O5 1_555 1_555
P1 O1 1_555 1_555
P2 O5 1_555 1_555
O2 P1 1_555 1_555
O3 P1 1_555 1_555
O4 P1 1_555 1_555
O6 P2 1_555 1_555
O7 P2 1_555 1_555
O8 P2 1_555 1_555
N1 Cu1 1_555 1_555
N2 Cu1 1_555 1_555
N3 Cu1 1_555 1_555
N4 Cu2 1_555 1_555
N5 Cu2 1_555 1_555
N6 Cu2 1_555 1_555
C1 N1 1_555 1_555
H1 C1 1_555 1_555
H2 C1 1_555 1_555
C2 N2 1_555 1_555
C3 C2 1_555 1_555
H3 C3 1_555 1_555
C4 C3 1_555 1_555
H4 C4 1_555 1_555
C5 C4 1_555 1_555
H5 C5 1_555 1_555
C6 N2 1_555 1_555
H6 C6 1_555 1_555
C7 N1 1_555 1_555
H7 C7 1_555 1_555
H8 C7 1_555 1_555
C8 N3 1_555 1_555
C9 C8 1_555 1_555
H9 C9 1_555 1_555
C10 C9 1_555 1_555
H10 C10 1_555 1_555
C11 C10 1_555 1_555
H11 C11 1_555 1_555
C12 N3 1_555 1_555
H12 C12 1_555 1_555
C13 N1 1_555 1_555
C14 C13 1_555 1_555
H13 C14 1_555 1_555
C15 C14 1_555 1_555
H14 C15 1_555 1_555
C16 C15 1_555 1_555
H15 C16 1_555 1_555
C17 N4 1_555 1_555
C18 C13 1_555 1_555
H16 C18 1_555 1_555
C19 N4 1_555 1_555
H17 C19 1_555 1_555
H18 C19 1_555 1_555
C20 N5 1_555 1_555
C21 C20 1_555 1_555
H19 C21 1_555 1_555
C22 C21 1_555 1_555
H20 C22 1_555 1_555
C23 C22 1_555 1_555
H21 C23 1_555 1_555
C24 N5 1_555 1_555
H22 C24 1_555 1_555
C25 N4 1_555 1_555
H23 C25 1_555 1_555
H24 C25 1_555 1_555
C26 N6 1_555 1_555
C27 C26 1_555 1_555
H25 C27 1_555 1_555
C28 C27 1_555 1_555
H26 C28 1_555 1_555
C29 C28 1_555 1_555
H27 C29 1_555 1_555
C30 N6 1_555 1_555
H28 C30 1_555 1_555
C31 O2 1_555 1_555
C32 C31 1_555 1_555
H29 C32 1_555 1_555
C33 C32 1_555 1_555
H30 C33 1_555 1_555
C34 C33 1_555 1_555
H31 C34 1_555 1_555
C35 C34 1_555 1_555
H32 C35 1_555 1_555
C36 C31 1_555 1_555
H33 C36 1_555 1_555
C37 O3 1_555 1_555
C38 C37 1_555 1_555
H34 C38 1_555 1_555
C39 C38 1_555 1_555
H35 C39 1_555 1_555
C40 C39 1_555 1_555
H36 C40 1_555 1_555
C41 C40 1_555 1_555
H37 C41 1_555 1_555
C42 C37 1_555 1_555
H38 C42 1_555 1_555
C43 O6 1_555 1_555
C44 C43 1_555 1_555
H39 C44 1_555 1_555
C45 C44 1_555 1_555
H40 C45 1_555 1_555
C46 C45 1_555 1_555
H41 C46 1_555 1_555
C47 C46 1_555 1_555
H42 C47 1_555 1_555
C48 C43 1_555 1_555
H43 C48 1_555 1_555
C49 O7 1_555 1_555
C50 C49 1_555 1_555
H44 C50 1_555 1_555
C51 C50 1_555 1_555
H45 C51 1_555 1_555
C52 C51 1_555 1_555
H46 C52 1_555 1_555
C53 C52 1_555 1_555
H47 C53 1_555 1_555
C54 C49 1_555 1_555
H48 C54 1_555 1_555
Cu3 O9 1_555 1_555
Cu4 O13 1_555 1_555
P3 O9 1_555 1_555
P4 O13 1_555 1_555
O10 P3 1_555 1_555
O11 P3 1_555 1_555
O12 P3 1_555 1_555
O14 P4 1_555 1_555
O15 P4 1_555 1_555
O16 P4 1_555 1_555
N7 Cu3 1_555 1_555
N8 Cu3 1_555 1_555
N9 Cu3 1_555 1_555
N10 Cu4 1_555 1_555
N11 Cu4 1_555 1_555
N12 Cu4 1_555 1_555
C55 N7 1_555 1_555
H49 C55 1_555 1_555
H50 C55 1_555 1_555
C56 N9 1_555 1_555
C57 C56 1_555 1_555
H51 C57 1_555 1_555
C58 C57 1_555 1_555
H52 C58 1_555 1_555
C59 C58 1_555 1_555
H53 C59 1_555 1_555
C60 N9 1_555 1_555
H54 C60 1_555 1_555
C61 N7 1_555 1_555
H55 C61 1_555 1_555
H56 C61 1_555 1_555
C62 N8 1_555 1_555
C63 C62 1_555 1_555
H57 C63 1_555 1_555
C64 C63 1_555 1_555
H58 C64 1_555 1_555
C65 C64 1_555 1_555
H59 C65 1_555 1_555
C66 N8 1_555 1_555
H60 C66 1_555 1_555
C67 N7 1_555 1_555
C68 C67 1_555 1_555
H61 C68 1_555 1_555
C69 C68 1_555 1_555
H62 C69 1_555 1_555
C70 C69 1_555 1_555
H63 C70 1_555 1_555
C71 N10 1_555 1_555
C72 C67 1_555 1_555
H64 C72 1_555 1_555
C73 N10 1_555 1_555
H65 C73 1_555 1_555
H66 C73 1_555 1_555
C74 N11 1_555 1_555
C75 C74 1_555 1_555
H67 C75 1_555 1_555
C76 C75 1_555 1_555
H68 C76 1_555 1_555
C77 C76 1_555 1_555
H69 C77 1_555 1_555
C78 N11 1_555 1_555
H70 C78 1_555 1_555
C79 N10 1_555 1_555
H71 C79 1_555 1_555
H72 C79 1_555 1_555
C80 N12 1_555 1_555
C81 C80 1_555 1_555
H73 C81 1_555 1_555
C82 C81 1_555 1_555
H74 C82 1_555 1_555
C83 C82 1_555 1_555
H75 C83 1_555 1_555
C84 N12 1_555 1_555
H76 C84 1_555 1_555
C85 O10 1_555 1_555
C86 C85 1_555 1_555
H77 C86 1_555 1_555
C87 C86 1_555 1_555
H78 C87 1_555 1_555
C88 C87 1_555 1_555
H79 C88 1_555 1_555
C89 C88 1_555 1_555
H80 C89 1_555 1_555
C90 C85 1_555 1_555
H81 C90 1_555 1_555
C91 O11 1_555 1_555
C92 C91 1_555 1_555
H82 C92 1_555 1_555
C93 C92 1_555 1_555
H83 C93 1_555 1_555
C94 C93 1_555 1_555
H84 C94 1_555 1_555
C95 C94 1_555 1_555
H85 C95 1_555 1_555
C96 C91 1_555 1_555
H86 C96 1_555 1_555
C97 O15 1_555 1_555
C98 C97 1_555 1_555
H87 C98 1_555 1_555
C99 C98 1_555 1_555
H88 C99 1_555 1_555
C100 C99 1_555 1_555
H89 C100 1_555 1_555
C101 C100 1_555 1_555
H90 C101 1_555 1_555
C102 C97 1_555 1_555
H91 C102 1_555 1_555
C103 O14 1_555 1_555
C104 C103 1_555 1_555
H92 C104 1_555 1_555
C105 C104 1_555 1_555
H93 C105 1_555 1_555
C106 C105 1_555 1_555
H94 C106 1_555 1_555
C107 C106 1_555 1_555
H95 C107 1_555 1_555
C108 C103 1_555 1_555
H96 C108 1_555 1_555
Cl1 O17 1_555 1_555
O18 Cl1 1_555 1_555
O19 Cl1 1_555 1_555
O20 Cl1 1_555 1_555
Cl2 O21 1_555 1_555
O22 Cl2 1_555 1_555
O23 Cl2 1_555 1_555
O24 Cl2 1_555 1_555
Cl3 O25 1_555 1_555
O26 Cl3 1_555 1_555
O27 Cl3 1_555 1_555
O28 Cl3 1_555 1_555
Cl4 O29 1_555 1_555
O30 Cl4 1_555 1_555
O31 Cl4 1_555 1_555
O32 Cl4 1_555 1_555
Cu1A O4 1_555 1_555
Cu2A O8 1_555 1_555
O4A Cu1 1_555 1_555
O8A Cu2 1_555 1_555
Cu3A O12 1_555 1_555
Cu4A O16 1_555 1_555
O12A Cu3 1_555 1_555
O16A Cu4 1_555 1_555
C1 C2 1_555 1_555
C5 C6 1_555 1_555
C7 C8 1_555 1_555
C11 C12 1_555 1_555
C16 C17 1_555 1_555
C17 C18 1_555 1_555
C19 C20 1_555 1_555
C23 C24 1_555 1_555
C25 C26 1_555 1_555
C29 C30 1_555 1_555
C35 C36 1_555 1_555
C41 C42 1_555 1_555
C47 C48 1_555 1_555
C53 C54 1_555 1_555
C55 C56 1_555 1_555
C59 C60 1_555 1_555
C61 C62 1_555 1_555
C65 C66 1_555 1_555
C70 C71 1_555 1_555
C71 C72 1_555 1_555
C73 C74 1_555 1_555
C77 C78 1_555 1_555
C79 C80 1_555 1_555
C83 C84 1_555 1_555
C89 C90 1_555 1_555
C95 C96 1_555 1_555
C101 C102 1_555 1_555
C107 C108 1_555 1_555

#END
