
#######################################################################
#
#                 Cambridge Crystallographic Data Centre
#                                CCDC 
#
#######################################################################
#
# If this CIF has been generated from an entry in the Cambridge 
# Structural Database, then it will include bibliographic, chemical, 
# crystal, experimental, refinement or atomic coordinate data resulting 
# from the CCDC's data processing and validation procedures.
#
#######################################################################

data_HATVUV03
_symmetry_cell_setting           trigonal
_symmetry_space_group_name_H-M   'P -3'
_symmetry_Int_Tables_number      147
_space_group_name_Hall           '-P 3'
loop_
_symmetry_equiv_pos_site_id
_symmetry_equiv_pos_as_xyz
1 x,y,z
2 -y,x-y,z
3 -x+y,-x,z
4 -x,-y,-z
5 y,-x+y,-z
6 x-y,x,-z
_cell_length_a                   9.982(3)
_cell_length_b                   9.982(3)
_cell_length_c                   8.161(2)
_cell_angle_alpha                90
_cell_angle_beta                 90
_cell_angle_gamma                120
_cell_volume                     704.221
loop_
_atom_site_label
_atom_site_type_symbol
_atom_site_fract_x
_atom_site_fract_y
_atom_site_fract_z
Fe1 Fe 0.0000 0.0000 0.0000
N1 N 0.38140(12) 0.20591(12) 0.30166(13)
N2 N 0.31194(15) 0.05961(14) 0.35722(17)
N3 N 0.19520(15) -0.02120(13) 0.26252(17)
N4 N 0.18714(11) 0.07153(12) 0.14481(12)
C1 C 0.51886(14) 0.32883(15) 0.38212(16)
H1 H 0.5089 0.3122 0.5021
H2 H 0.5262 0.4297 0.3592
C2 C 0.6667 0.3333 0.3232(2)
H3 H 0.6667 0.3333 0.2007
C3 C 0.30396(14) 0.21143(14) 0.17202(15)
H4 H 0.3287 0.3012 0.1095
C1A C 0.67117(15) 0.19003(21) 0.38212(16)
N1A N 0.79409(12) 0.17549(17) 0.30166(13)
N2A N 0.94039(14) 0.25233(21) 0.35722(17)
N3A N 1.02120(13) 0.21640(20) 0.26252(17)
N4A N 0.92847(12) 0.11561(16) 0.14481(12)
C3A C 0.78857(14) 0.09253(20) 0.17202(15)
H4A H 0.6988 0.0275 0.1095
H1A H 0.6878 0.1967 0.5021
H2A H 0.5703 0.0965 0.3592
C1B C 0.80997(21) 0.48114(14) 0.38212(16)
N1B N 0.82451(17) 0.61860(12) 0.30166(13)
N2B N 0.74767(21) 0.68806(15) 0.35722(17)
N3B N 0.78360(20) 0.80480(15) 0.26252(17)
N4B N 0.88439(16) 0.81286(11) 0.14481(12)
C3B C 0.90747(20) 0.69604(14) 0.17202(15)
H4B H 0.9725 0.6713 0.1095
H1B H 0.8033 0.4911 0.5021
H2B H 0.9035 0.4738 0.3592
N1A_2 N -0.20591(12) 0.17549(17) 0.30166(13)
N2A_2 N -0.05961(14) 0.25233(21) 0.35722(17)
N3A_2 N 0.02120(13) 0.21640(20) 0.26252(17)
N4A_2 N -0.07153(12) 0.11561(16) 0.14481(12)
C1A_2 C -0.32883(15) 0.19003(21) 0.38212(16)
H1A_2 H -0.3122 0.1967 0.5021
H2A_2 H -0.4297 0.0965 0.3592
C2A C -0.3333 0.3334 0.3232(2)
H3A H -0.3333 0.3334 0.2007
C3A_2 C -0.21143(14) 0.09253(20) 0.17202(15)
H4A_2 H -0.3012 0.0275 0.1095
C1B_2 C -0.19003(21) 0.48114(14) 0.38212(16)
N1B_2 N -0.17549(17) 0.61860(12) 0.30166(13)
N2B_2 N -0.25233(21) 0.68806(15) 0.35722(17)
N3B_2 N -0.21640(20) 0.80480(15) 0.26252(17)
N4B_2 N -0.11561(16) 0.81286(11) 0.14481(12)
C3B_2 C -0.09253(20) 0.69604(14) 0.17202(15)
H4B_2 H -0.0275 0.6713 0.1095
H1B_2 H -0.1967 0.4911 0.5021
H2B_2 H -0.0965 0.4738 0.3592
C1_2 C -0.48114(14) 0.32883(15) 0.38212(16)
N1_2 N -0.61860(12) 0.20591(12) 0.30166(13)
N2_2 N -0.68806(15) 0.05961(14) 0.35722(17)
N3_2 N -0.80480(15) -0.02120(13) 0.26252(17)
N4_2 N -0.81286(11) 0.07153(12) 0.14481(12)
C3_2 C -0.69604(14) 0.21143(14) 0.17202(15)
H4_2 H -0.6713 0.3012 0.1095
H1_2 H -0.4911 0.3122 0.5021
H2_2 H -0.4738 0.4297 0.3592
N4B_3 N -0.11561(16) -0.18714(11) 0.14481(12)
N4E N 0.11561(16) 0.18714(11) -0.14481(12)
N4D N 0.07153(12) -0.11561(16) -0.14481(12)
N4C N -0.18714(11) -0.07153(12) -0.14481(12)
Fe1A Fe 1.0000 0.0000 0.0000
Fe1B Fe 1.0000 1.0000 0.0000
Fe1B_2 Fe 0.0000 1.0000 0.0000
Fe1_2 Fe -1.0000 0.0000 0.0000
B1 B 0.3333 0.6667 0.1130(4)
F1 F 0.3857(14) 0.5759(11) 0.038(3)
F2 F 0.4386(10) 0.8215(7) 0.0808(16)
F3 F 0.3158(35) 0.675(3) 0.2811(4)
F4 F 0.1902(11) 0.6311(10) 0.048(3)
B2? B 0.369(2) 0.707(3) 0.136(3)
F5? F 0.377(6) 0.574(4) 0.152(5)
F6? F 0.427(6) 0.797(4) 0.276(3)
F7? F 0.453(7) 0.790(6) 0.001(3)
F8? F 0.219(4) 0.672(5) 0.108(6)
loop_
_geom_bond_atom_site_label_1
_geom_bond_atom_site_label_2
_geom_bond_site_symmetry_1
_geom_bond_site_symmetry_2
Fe1 N4 1_555 1_555
N1 N2 1_555 1_555
N2 N3 1_555 1_555
N3 N4 1_555 1_555
N4 C3 1_555 1_555
C1 N1 1_555 1_555
H1 C1 1_555 1_555
H2 C1 1_555 1_555
C2 C1 1_555 1_555
H3 C2 1_555 1_555
C3 N1 1_555 1_555
H4 C3 1_555 1_555
B1 F1 1_555 1_555
F2 B1 1_555 1_555
F3 B1 1_555 1_555
F4 B1 1_555 1_555
C1A C2 1_555 1_555
N1A C1A 1_555 1_555
N2A N1A 1_555 1_555
N3A N2A 1_555 1_555
N4A N3A 1_555 1_555
C3A N1A 1_555 1_555
H4A C3A 1_555 1_555
H1A C1A 1_555 1_555
H2A C1A 1_555 1_555
C1B C2 1_555 1_555
N1B C1B 1_555 1_555
N2B N1B 1_555 1_555
N3B N2B 1_555 1_555
N4B N3B 1_555 1_555
C3B N1B 1_555 1_555
H4B C3B 1_555 1_555
H1B C1B 1_555 1_555
H2B C1B 1_555 1_555
N1A_2 N2A_2 1_555 1_555
N2A_2 N3A_2 1_555 1_555
N3A_2 N4A_2 1_555 1_555
N4A_2 Fe1 1_555 1_555
C1A_2 N1A_2 1_555 1_555
H1A_2 C1A_2 1_555 1_555
H2A_2 C1A_2 1_555 1_555
C2A C1A_2 1_555 1_555
H3A C2A 1_555 1_555
C3A_2 N1A_2 1_555 1_555
H4A_2 C3A_2 1_555 1_555
C1B_2 C2A 1_555 1_555
N1B_2 C1B_2 1_555 1_555
N2B_2 N1B_2 1_555 1_555
N3B_2 N2B_2 1_555 1_555
N4B_2 N3B_2 1_555 1_555
C3B_2 N1B_2 1_555 1_555
H4B_2 C3B_2 1_555 1_555
H1B_2 C1B_2 1_555 1_555
H2B_2 C1B_2 1_555 1_555
C1_2 C2A 1_555 1_555
N1_2 C1_2 1_555 1_555
N2_2 N1_2 1_555 1_555
N3_2 N2_2 1_555 1_555
N4_2 N3_2 1_555 1_555
C3_2 N1_2 1_555 1_555
H4_2 C3_2 1_555 1_555
H1_2 C1_2 1_555 1_555
H2_2 C1_2 1_555 1_555
N4B_3 Fe1 1_555 1_555
N4E Fe1 1_555 1_555
N4D Fe1 1_555 1_555
N4C Fe1 1_555 1_555
Fe1A N4A 1_555 1_555
Fe1B N4B 1_555 1_555
Fe1B_2 N4B_2 1_555 1_555
Fe1_2 N4_2 1_555 1_555
N4A C3A 1_555 1_555
N4B C3B 1_555 1_555
N4A_2 C3A_2 1_555 1_555
N4B_2 C3B_2 1_555 1_555
N4_2 C3_2 1_555 1_555

#END
