
#######################################################################
#
#                 Cambridge Crystallographic Data Centre
#                                CCDC 
#
#######################################################################
#
# If this CIF has been generated from an entry in the Cambridge 
# Structural Database, then it will include bibliographic, chemical, 
# crystal, experimental, refinement or atomic coordinate data resulting 
# from the CCDC's data processing and validation procedures.
#
#######################################################################

data_HATZUY
_symmetry_cell_setting           monoclinic
_symmetry_space_group_name_H-M   'P 21/c'
_symmetry_Int_Tables_number      14
_space_group_name_Hall           '-P 2ybc'
loop_
_symmetry_equiv_pos_site_id
_symmetry_equiv_pos_as_xyz
1 x,y,z
2 -x,1/2+y,1/2-z
3 -x,-y,-z
4 x,1/2-y,1/2+z
_cell_length_a                   7.7407(5)
_cell_length_b                   13.6362(8)
_cell_length_c                   13.5921(9)
_cell_angle_alpha                90
_cell_angle_beta                 109.4240(10)
_cell_angle_gamma                90
_cell_volume                     1353.04
loop_
_atom_site_label
_atom_site_type_symbol
_atom_site_fract_x
_atom_site_fract_y
_atom_site_fract_z
Ag1 Ag 0.38055(5) -0.05714(2) 0.06938(2)
N1 N 0.2114(4) 0.0788(2) 0.0571(2)
N2 N 0.5112(4) 0.2923(2) 0.4265(2)
O1 O 0.3411(5) -0.0044(2) 0.2521(2)
C1 C 0.1118(5) 0.1134(3) -0.0366(3)
H1 H 0.1171 0.0808 -0.0956
C2 C 0.0005(6) 0.1956(3) -0.0500(4)
H2 H -0.0666 0.2178 -0.1164
C3 C -0.0079(6) 0.2429(3) 0.0363(4)
H3 H -0.0815 0.2981 0.0299
C4 C 0.0938(5) 0.2081(3) 0.1332(3)
H4 H 0.0893 0.2394 0.1930
C5 C 0.2029(5) 0.1263(3) 0.1409(3)
C6 C 0.3093(6) 0.0826(3) 0.2450(3)
C7 C 0.4383(5) 0.2395(3) 0.3404(3)
H5 H 0.4303 0.2676 0.2767
C8 C 0.3740(5) 0.1452(3) 0.3408(3)
C9 C 0.3847(6) 0.1044(3) 0.4358(3)
H6 H 0.3419 0.0412 0.4390
C10 C 0.4591(6) 0.1580(3) 0.5252(3)
H7 H 0.4673 0.1316 0.5897
C11 C 0.5213(6) 0.2511(3) 0.5181(3)
H8 H 0.5724 0.2870 0.5790
Ag1A Ag 0.61945(5) 0.44286(2) 0.43062(2)
N2A N 0.4888(4) -0.2077(2) 0.0735(2)
C12 C 0.2497(6) 0.5791(3) 0.2730(3)
O2 O 0.3092(5) 0.5388(2) 0.3583(2)
O3 O 0.2558(7) 0.6658(3) 0.2492(3)
C13 C 0.1621(6) 0.5126(3) 0.1818(3)
F1 F 0.256(2) 0.4394(11) 0.1637(14)
F2 F 0.081(3) 0.5517(9) 0.0906(7)
F3 F 0.0223(13) 0.4630(9) 0.1961(9)
F4? F 0.2285(18) 0.4231(4) 0.2025(8)
F5? F 0.2102(12) 0.5372(7) 0.0996(5)
F6? F -0.0146(9) 0.5094(15) 0.1491(10)
loop_
_geom_bond_atom_site_label_1
_geom_bond_atom_site_label_2
_geom_bond_site_symmetry_1
_geom_bond_site_symmetry_2
Ag1 N1 1_555 1_555
N1 C1 1_555 1_555
N2 C7 1_555 1_555
O1 C6 1_555 1_555
C1 H1 1_555 1_555
C2 C1 1_555 1_555
H2 C2 1_555 1_555
C3 C2 1_555 1_555
H3 C3 1_555 1_555
C4 C3 1_555 1_555
H4 C4 1_555 1_555
C5 N1 1_555 1_555
C6 C5 1_555 1_555
C7 H5 1_555 1_555
C8 C6 1_555 1_555
C9 C8 1_555 1_555
H6 C9 1_555 1_555
C10 C9 1_555 1_555
H7 C10 1_555 1_555
C11 N2 1_555 1_555
H8 C11 1_555 1_555
C12 O2 1_555 1_555
O3 C12 1_555 1_555
C13 C12 1_555 1_555
F1 C13 1_555 1_555
F2 C13 1_555 1_555
F3 C13 1_555 1_555
Ag1A N2 1_555 1_555
N2A Ag1 1_555 1_555
C4 C5 1_555 1_555
C7 C8 1_555 1_555
C10 C11 1_555 1_555

#END
