
#######################################################################
#
#                 Cambridge Crystallographic Data Centre
#                                CCDC 
#
#######################################################################
#
# If this CIF has been generated from an entry in the Cambridge 
# Structural Database, then it will include bibliographic, chemical, 
# crystal, experimental, refinement or atomic coordinate data resulting 
# from the CCDC's data processing and validation procedures.
#
#######################################################################

data_HAVDAK02
_symmetry_cell_setting           monoclinic
_symmetry_space_group_name_H-M   'C 2/c'
_symmetry_Int_Tables_number      15
_space_group_name_Hall           '-C 2yn'
loop_
_symmetry_equiv_pos_site_id
_symmetry_equiv_pos_as_xyz
1 x,y,z
2 -x,y,1/2-z
3 1/2+x,1/2+y,z
4 1/2-x,1/2+y,1/2-z
5 -x,-y,-z
6 x,-y,1/2+z
7 1/2-x,1/2-y,-z
8 1/2+x,1/2-y,1/2+z
_cell_length_a                   17.2688(5)
_cell_length_b                   10.4547(3)
_cell_length_c                   7.0517(3)
_cell_angle_alpha                90
_cell_angle_beta                 112.033(2)
_cell_angle_gamma                90
_cell_volume                     1180.14
loop_
_atom_site_label
_atom_site_type_symbol
_atom_site_fract_x
_atom_site_fract_y
_atom_site_fract_z
Mn1 Mn 0.0000 0.07034(2) 0.2500
N1 N 0.07578(7) 0.24390(13) 0.40406(18)
C1 C 0.04096(10) 0.35802(14) 0.3290(2)
C2 C 0.15142(10) 0.2420(2) 0.5522(3)
H1 H 0.1749 0.1640 0.6081
C3 C 0.08211(16) 0.47544(18) 0.4021(3)
C4 C 0.19620(14) 0.3548(3) 0.6256(4)
H2 H 0.2497 0.3507 0.7257
C5 C 0.1625(2) 0.4689(3) 0.5525(4)
H3 H 0.1927 0.5436 0.6019
C6 C 0.0382(2) 0.59224(18) 0.3197(4)
H4 H 0.0646 0.6700 0.3663
Cl1 Cl -0.09003(2) -0.07832(3) -0.01523(6)
Mn1D Mn 0.0000 -0.07034(2) -0.2500
Mn1D_2 Mn 0.0000 -0.07034(2) 0.7500
N1A N -0.07578(7) 0.24390(13) 0.09594(18)
C1A C -0.04096(10) 0.35802(14) 0.1710(2)
C2A C -0.15142(10) 0.2420(2) -0.0522(3)
H1A H -0.1749 0.1640 -0.1081
C3A C -0.08211(16) 0.47544(18) 0.0979(3)
C4A C -0.19620(14) 0.3548(3) -0.1256(4)
H2A H -0.2497 0.3507 -0.2257
C5A C -0.1625(2) 0.4689(3) -0.0525(4)
H3A H -0.1927 0.5436 -0.1019
C6A C -0.0382(2) 0.59224(18) 0.1803(4)
H4A H -0.0646 0.6700 0.1337
Cl1A Cl 0.09003(2) -0.07832(3) 0.51523(6)
Cl1D Cl 0.09003(2) 0.07832(3) 0.01523(6)
Cl1E Cl -0.09003(2) 0.07832(3) 0.48477(6)
loop_
_geom_bond_atom_site_label_1
_geom_bond_atom_site_label_2
_geom_bond_site_symmetry_1
_geom_bond_site_symmetry_2
Mn1 N1 1_555 1_555
N1 C1 1_555 1_555
C1 C3 1_555 1_555
C2 N1 1_555 1_555
H1 C2 1_555 1_555
C3 C5 1_555 1_555
C4 C2 1_555 1_555
H2 C4 1_555 1_555
C5 C4 1_555 1_555
H3 C5 1_555 1_555
C6 C3 1_555 1_555
H4 C6 1_555 1_555
Cl1 Mn1 1_555 1_555
Mn1D Cl1 1_555 1_555
Mn1D_2 Cl1A 1_555 1_555
N1A Mn1 1_555 1_555
C1A C1 1_555 1_555
C2A N1A 1_555 1_555
H1A C2A 1_555 1_555
C3A C1A 1_555 1_555
C4A C2A 1_555 1_555
H2A C4A 1_555 1_555
C5A C3A 1_555 1_555
H3A C5A 1_555 1_555
C6A C6 1_555 1_555
H4A C6A 1_555 1_555
Cl1A Mn1 1_555 1_555
Cl1D Mn1 1_555 1_555
Cl1E Mn1 1_555 1_555
Mn1D Cl1D 1_555 1_555
Mn1D_2 Cl1E 1_555 1_555
N1A C1A 1_555 1_555
C3A C6A 1_555 1_555
C4A C5A 1_555 1_555

#END
