
#######################################################################
#
#                 Cambridge Crystallographic Data Centre
#                                CCDC 
#
#######################################################################
#
# If this CIF has been generated from an entry in the Cambridge 
# Structural Database, then it will include bibliographic, chemical, 
# crystal, experimental, refinement or atomic coordinate data resulting 
# from the CCDC's data processing and validation procedures.
#
#######################################################################

data_HAVFER
_symmetry_cell_setting           monoclinic
_symmetry_space_group_name_H-M   'C c'
_symmetry_Int_Tables_number      9
_space_group_name_Hall           'C -2yc'
loop_
_symmetry_equiv_pos_site_id
_symmetry_equiv_pos_as_xyz
1 x,y,z
2 x,-y,1/2+z
3 1/2+x,1/2+y,z
4 1/2+x,1/2-y,1/2+z
_cell_length_a                   16.1147(12)
_cell_length_b                   16.7364(9)
_cell_length_c                   8.4586(5)
_cell_angle_alpha                90
_cell_angle_beta                 116.194(2)
_cell_angle_gamma                90
_cell_volume                     2047.02
loop_
_atom_site_label
_atom_site_type_symbol
_atom_site_fract_x
_atom_site_fract_y
_atom_site_fract_z
Gd1 Gd 0.17305(7) 0.64586(3) 0.71916(9)
Gd2 Gd 0.42565(7) 0.74350(5) 0.98549(9)
O1 O 0.1433(9) 0.5061(5) 0.7040(17)
H1 H 0.1596 0.4781 0.6385
H2 H 0.1334 0.4746 0.7727
O2 O 0.3109(10) 0.6669(7) 1.0106(15)
O3 O 0.1935(11) 0.6075(7) 1.0192(17)
O4 O 0.2736(11) 0.7474(7) 0.6935(17)
O5 O 0.3671(14) 0.8495(9) 0.773(2)
O6 O 0.2955(10) 0.5758(6) 0.6950(18)
O7 O 0.4349(11) 0.6354(7) 0.8284(19)
O8 O 0.0606(10) 0.7262(7) 0.4481(16)
O9 O 0.1186(11) 0.6157(7) 0.4002(17)
O10 O 0.1494(11) 0.7645(7) 0.8443(19)
O11 O 0.0158(13) 0.8281(9) 0.739(2)
O12 O 0.3759(11) 0.8362(8) 1.148(2)
O13 O 0.5121(10) 0.8623(7) 1.1622(17)
C1 C 0.2682(13) 0.6440(8) 1.0956(18)
C2 C 0.3106(18) 0.6621(16) 1.294(2)
H3 H 0.2946 0.6202 1.3536
H4 H 0.2871 0.7120 1.3131
H5 H 0.3767 0.6652 1.3406
C3 C 0.2920(17) 0.8191(11) 0.669(3)
C4 C 0.221(2) 0.8675(13) 0.524(3)
H6 H 0.1953 0.8364 0.4176
H7 H 0.2496 0.9147 0.5053
H8 H 0.1730 0.8825 0.5556
C5 C 0.3808(14) 0.5820(10) 0.728(2)
C6 C 0.4205(18) 0.5204(11) 0.658(3)
H9 H 0.4562 0.5456 0.6063
H10 H 0.3716 0.4897 0.5701
H11 H 0.4597 0.4858 0.7518
C7 C 0.0740(14) 0.6780(9) 0.345(2)
C8 C 0.029(2) 0.6943(13) 0.151(3)
H12 H 0.0741 0.6924 0.1063
H13 H 0.0006 0.7463 0.1293
H14 H -0.0181 0.6547 0.0919
C9 C 0.0981(14) 0.8218(11) 0.844(3)
C10 C 0.142(2) 0.8834(15) 0.990(3)
H15 H 0.1189 0.9356 0.9444
H16 H 0.2080 0.8826 1.0318
H17 H 0.1271 0.8711 1.0850
C11 C 0.4471(17) 0.8835(9) 1.193(3)
C12 C 0.4440(19) 0.9626(12) 1.272(4)
H18 H 0.4262 1.0032 1.1827
H19 H 0.5040 0.9749 1.3643
H20 H 0.3998 0.9607 1.3193
Gd1C Gd 0.67305(7) 0.85414(3) 1.21916(9)
Gd2C Gd -0.07435(7) 0.75650(5) 0.48549(9)
O8C O 0.5606(10) 0.7738(7) 0.9481(16)
O11C O 0.5158(13) 0.6719(9) 1.239(2)
O13C O 0.0121(10) 0.6377(7) 0.6622(17)
loop_
_geom_bond_atom_site_label_1
_geom_bond_atom_site_label_2
_geom_bond_site_symmetry_1
_geom_bond_site_symmetry_2
Gd1 O1 1_555 1_555
Gd2 O2 1_555 1_555
O1 H1 1_555 1_555
H2 O1 1_555 1_555
O2 Gd1 1_555 1_555
O3 Gd1 1_555 1_555
O4 Gd1 1_555 1_555
O5 Gd2 1_555 1_555
O6 Gd1 1_555 1_555
O7 Gd2 1_555 1_555
O8 Gd1 1_555 1_555
O9 Gd1 1_555 1_555
O10 Gd1 1_555 1_555
O11 C9 1_555 1_555
O12 Gd2 1_555 1_555
O13 Gd2 1_555 1_555
C1 O2 1_555 1_555
C2 C1 1_555 1_555
H3 C2 1_555 1_555
H4 C2 1_555 1_555
H5 C2 1_555 1_555
C3 O4 1_555 1_555
C4 C3 1_555 1_555
H6 C4 1_555 1_555
H7 C4 1_555 1_555
H8 C4 1_555 1_555
C5 O6 1_555 1_555
C6 C5 1_555 1_555
H9 C6 1_555 1_555
H10 C6 1_555 1_555
H11 C6 1_555 1_555
C7 O8 1_555 1_555
C8 C7 1_555 1_555
H12 C8 1_555 1_555
H13 C8 1_555 1_555
H14 C8 1_555 1_555
C9 O10 1_555 1_555
C10 C9 1_555 1_555
H15 C10 1_555 1_555
H16 C10 1_555 1_555
H17 C10 1_555 1_555
C11 O12 1_555 1_555
C12 C11 1_555 1_555
H18 C12 1_555 1_555
H19 C12 1_555 1_555
H20 C12 1_555 1_555
Gd1C O13 1_555 1_555
Gd2C O8 1_555 1_555
O8C Gd2 1_555 1_555
O11C Gd2 1_555 1_555
O13C Gd1 1_555 1_555
Gd2 O4 1_555 1_555
O3 C1 1_555 1_555
O5 C3 1_555 1_555
O7 C5 1_555 1_555
O9 C7 1_555 1_555
O11 Gd2C 1_555 1_555
O13 C11 1_555 1_555
Gd1C O8C 1_555 1_555
Gd2C O13C 1_555 1_555

#END
