
#######################################################################
#
#                 Cambridge Crystallographic Data Centre
#                                CCDC 
#
#######################################################################
#
# If this CIF has been generated from an entry in the Cambridge 
# Structural Database, then it will include bibliographic, chemical, 
# crystal, experimental, refinement or atomic coordinate data resulting 
# from the CCDC's data processing and validation procedures.
#
#######################################################################

data_HAVFAN
_symmetry_cell_setting           monoclinic
_symmetry_space_group_name_H-M   'P 21/c'
_symmetry_Int_Tables_number      14
_space_group_name_Hall           '-P 2ybc'
loop_
_symmetry_equiv_pos_site_id
_symmetry_equiv_pos_as_xyz
1 x,y,z
2 -x,1/2+y,1/2-z
3 -x,-y,-z
4 x,1/2-y,1/2+z
_cell_length_a                   12.1092(5)
_cell_length_b                   12.1790(4)
_cell_length_c                   7.6817(3)
_cell_angle_alpha                90
_cell_angle_beta                 90.637(2)
_cell_angle_gamma                90
_cell_volume                     1132.81
loop_
_atom_site_label
_atom_site_type_symbol
_atom_site_fract_x
_atom_site_fract_y
_atom_site_fract_z
Gd1 Gd 0.24470(2) 0.696594(19) 0.19024(3)
O1 O 0.3619(3) 0.7521(3) 0.4465(5)
O2 O 0.4328(4) 0.6280(3) 0.2731(5)
O3 O 0.2174(4) 0.5504(3) 0.3904(5)
O4 O 0.2398(4) 0.6030(3) 0.6644(5)
O5 O 0.0523(4) 0.6362(4) 0.1216(5)
O6 O 0.1357(3) 0.7288(3) -0.0799(5)
O7 O 0.2662(4) 0.5347(3) 0.0026(5)
H1 H 0.2698 0.5560 -0.1025
C1 C 0.4358(5) 0.6794(5) 0.4129(7)
C2 C 0.5229(6) 0.6548(6) 0.5493(10)
H2 H 0.5615 0.7212 0.5791
H3 H 0.5742 0.6021 0.5044
H4 H 0.4885 0.6255 0.6512
C3 C 0.2132(5) 0.5339(4) 0.5479(7)
C4 C 0.1726(7) 0.4219(5) 0.6057(8)
H5 H 0.1848 0.3693 0.5148
H6 H 0.0951 0.4258 0.6300
H7 H 0.2121 0.3997 0.7089
C5 C 0.0535(5) 0.6710(4) -0.0298(7)
C6 C -0.0368(5) 0.6442(5) -0.1562(9)
H8 H -0.0848 0.7065 -0.1690
H9 H -0.0782 0.5827 -0.1141
H10 H -0.0055 0.6263 -0.2669
C7 C 0.3370(7) 0.4442(6) 0.0259(11)
H11 H 0.3129 0.3849 -0.0476
H12 H 0.3357 0.4212 0.1453
H13 H 0.4109 0.4648 -0.0043
Gd1C Gd 0.24470(2) 0.803406(19) -0.30976(3)
Gd1C_2 Gd 0.24470(2) 0.803406(19) 0.69024(3)
O1C O 0.3619(3) 0.7479(3) -0.0535(5)
O4C O 0.2398(4) 0.8970(3) 0.1644(5)
O6C O 0.1357(3) 0.7712(3) 0.4201(5)
loop_
_geom_bond_atom_site_label_1
_geom_bond_atom_site_label_2
_geom_bond_site_symmetry_1
_geom_bond_site_symmetry_2
Gd1 O1 1_555 1_555
O1 C1 1_555 1_555
O2 Gd1 1_555 1_555
O3 Gd1 1_555 1_555
O4 C3 1_555 1_555
O5 Gd1 1_555 1_555
O6 Gd1 1_555 1_555
O7 Gd1 1_555 1_555
H1 O7 1_555 1_555
C1 O2 1_555 1_555
C2 C1 1_555 1_555
H2 C2 1_555 1_555
H3 C2 1_555 1_555
H4 C2 1_555 1_555
C3 O3 1_555 1_555
C4 C3 1_555 1_555
H5 C4 1_555 1_555
H6 C4 1_555 1_555
H7 C4 1_555 1_555
C5 O5 1_555 1_555
C6 C5 1_555 1_555
H8 C6 1_555 1_555
H9 C6 1_555 1_555
H10 C6 1_555 1_555
C7 O7 1_555 1_555
H11 C7 1_555 1_555
H12 C7 1_555 1_555
H13 C7 1_555 1_555
Gd1C O6 1_555 1_555
Gd1C_2 O1 1_555 1_555
O1C Gd1 1_555 1_555
O4C Gd1 1_555 1_555
O6C Gd1 1_555 1_555
O4 Gd1C_2 1_555 1_555
O6 C5 1_555 1_555
Gd1C O1C 1_555 1_555
Gd1C_2 O6C 1_555 1_555

#END
