
#######################################################################
#
#                 Cambridge Crystallographic Data Centre
#                                CCDC 
#
#######################################################################
#
# If this CIF has been generated from an entry in the Cambridge 
# Structural Database, then it will include bibliographic, chemical, 
# crystal, experimental, refinement or atomic coordinate data resulting 
# from the CCDC's data processing and validation procedures.
#
#######################################################################

data_HAVGAN
_symmetry_cell_setting           monoclinic
_symmetry_space_group_name_H-M   'C 2/c'
_symmetry_Int_Tables_number      15
_space_group_name_Hall           '-C 2yn'
loop_
_symmetry_equiv_pos_site_id
_symmetry_equiv_pos_as_xyz
1 x,y,z
2 1/2+x,1/2+y,z
3 -x,y,1/2-z
4 1/2-x,1/2+y,1/2-z
5 -x,-y,-z
6 1/2-x,1/2-y,-z
7 x,-y,1/2+z
8 1/2+x,1/2-y,1/2+z
_cell_length_a                   23.424(4)
_cell_length_b                   7.9696(14)
_cell_length_c                   15.727(3)
_cell_angle_alpha                90
_cell_angle_beta                 129.617(2)
_cell_angle_gamma                90
_cell_volume                     2261.61
loop_
_atom_site_label
_atom_site_type_symbol
_atom_site_fract_x
_atom_site_fract_y
_atom_site_fract_z
Cu1 Cu 0.04781(2) 0.18868(5) 0.06304(4)
O1 O 0.02039(14) -0.0078(3) 0.10390(19)
O2 O 0.0719(2) 0.1111(4) 0.2645(2)
O3 O -0.04404(14) 0.3230(3) 0.0034(2)
N1 N -0.08019(16) 0.6010(4) -0.0474(3)
N2 N -0.14779(17) 0.8868(4) -0.1180(3)
H1 H -0.1798 0.8873 -0.1923
H2 H -0.1448 0.9918 -0.0943
C1 C 0.0392(2) -0.0061(4) 0.2001(3)
C2 C 0.0192(2) -0.1628(4) 0.2295(3)
C3 C 0.0410(3) -0.3151(5) 0.2161(3)
H3 H 0.0689 -0.3158 0.1929
C4 C 0.0227(3) -0.4648(5) 0.2358(3)
H4 H 0.0405 -0.5652 0.2304
C5 C -0.03586(19) 0.4768(4) -0.0124(3)
C6 C -0.1529(2) 0.5959(5) -0.0769(4)
H5 H -0.1887 0.5470 -0.1496
H6 H -0.1513 0.5276 -0.0243
C7 C -0.1749(3) 0.7702(7) -0.0761(5)
H7 H -0.1492 0.8002 0.0011
C8 C -0.2573(3) 0.7876(7) -0.1376(6)
H8 H -0.2724 0.7054 -0.1108
H9 H -0.2675 0.8979 -0.1258
H10 H -0.2841 0.7704 -0.2150
Cu1B Cu -0.04781(2) 0.18868(5) 0.43696(4)
Cu1D Cu -0.04781(2) -0.18868(5) -0.06304(4)
Cu1D_2 Cu -0.04781(2) 0.81132(5) -0.06304(4)
Cu1F Cu 0.04781(2) -0.18868(5) 0.56304(4)
O1B O -0.02039(14) -0.0078(3) 0.39610(19)
O1D O -0.02039(14) 0.0078(3) -0.10390(19)
O1F O 0.02039(14) 0.0078(3) 0.60390(19)
O2B O -0.0719(2) 0.1111(4) 0.2355(2)
O3D O 0.04404(14) 0.6770(3) -0.0034(2)
O3B O 0.04404(14) 0.3230(3) 0.4966(2)
N1D N 0.08019(16) 0.3990(4) 0.0474(3)
N1F N -0.08019(16) 0.3990(4) 0.4526(3)
N2D N 0.14779(17) 0.1132(4) 0.1180(3)
N2F N -0.14779(17) 0.1132(4) 0.3820(3)
H1D H 0.1798 0.1127 0.1923
H1F H -0.1798 0.1127 0.3077
H2D H 0.1448 0.0082 0.0943
H2F H -0.1448 0.0082 0.4057
C1B C -0.0392(2) -0.0061(4) 0.2999(3)
C2B C -0.0192(2) -0.1628(4) 0.2705(3)
C3B C -0.0410(3) -0.3151(5) 0.2839(3)
H3B H -0.0689 -0.3158 0.3071
C4B C -0.0227(3) -0.4648(5) 0.2642(3)
H4B H -0.0405 -0.5652 0.2696
C5D C 0.03586(19) 0.5232(4) 0.0124(3)
C6D C 0.1529(2) 0.4041(5) 0.0769(4)
H5D H 0.1887 0.4530 0.1496
H6D H 0.1513 0.4724 0.0243
C7D C 0.1749(3) 0.2298(7) 0.0761(5)
H7D H 0.1492 0.1998 -0.0011
C8D C 0.2573(3) 0.2124(7) 0.1376(6)
H8D H 0.2724 0.2946 0.1108
H9D H 0.2675 0.1021 0.1258
H10D H 0.2841 0.2296 0.2150
O4 O 0.14369(16) 0.1708(4) 0.4835(3)
H11 H 0.1144 0.2307 0.4849
H12 H 0.1278 0.1379 0.4202
O5 O 0.2850(3) 0.2669(8) 0.6618(4)
H13 H 0.2856 0.3533 0.6292
H14 H 0.2589 0.1851 0.6187
loop_
_geom_bond_atom_site_label_1
_geom_bond_atom_site_label_2
_geom_bond_site_symmetry_1
_geom_bond_site_symmetry_2
Cu1 O1 1_555 1_555
O1 C1 1_555 1_555
O2 C1 1_555 1_555
O3 Cu1 1_555 1_555
N1 C5 1_555 1_555
N2 H1 1_555 1_555
H2 N2 1_555 1_555
C1 C2 1_555 1_555
C2 C3 1_555 1_555
C3 H3 1_555 1_555
C4 C3 1_555 1_555
H4 C4 1_555 1_555
C5 O3 1_555 1_555
C6 N1 1_555 1_555
H5 C6 1_555 1_555
H6 C6 1_555 1_555
C7 N2 1_555 1_555
H7 C7 1_555 1_555
C8 C7 1_555 1_555
H8 C8 1_555 1_555
H9 C8 1_555 1_555
H10 C8 1_555 1_555
O4 H11 1_555 1_555
H12 O4 1_555 1_555
O5 H13 1_555 1_555
H14 O5 1_555 1_555
Cu1B O1B 1_555 1_555
Cu1D O1 1_555 1_555
Cu1D_2 N1 1_555 1_555
Cu1F O1B 1_555 1_555
O1B C1B 1_555 1_555
O1D Cu1 1_555 1_555
O1F Cu1B 1_555 1_555
O2B C1B 1_555 1_555
O3D Cu1D_2 1_555 1_555
O3B Cu1B 1_555 1_555
N1D Cu1 1_555 1_555
N1F Cu1B 1_555 1_555
N2D Cu1 1_555 1_555
N2F Cu1B 1_555 1_555
H1D N2D 1_555 1_555
H1F N2F 1_555 1_555
H2D N2D 1_555 1_555
H2F N2F 1_555 1_555
C1B C2B 1_555 1_555
C2B C2 1_555 1_555
C3B C2B 1_555 1_555
H3B C3B 1_555 1_555
C4B C4 1_555 1_555
H4B C4B 1_555 1_555
C5D C5 1_555 1_555
C6D N1D 1_555 1_555
H5D C6D 1_555 1_555
H6D C6D 1_555 1_555
C7D N2D 1_555 1_555
H7D C7D 1_555 1_555
C8D C7D 1_555 1_555
H8D C8D 1_555 1_555
H9D C8D 1_555 1_555
H10D C8D 1_555 1_555
N2 Cu1D_2 1_555 1_555
C6 C7 1_555 1_555
Cu1D O1D 1_555 1_555
Cu1F O1F 1_555 1_555
O3D C5D 1_555 1_555
N1D C5D 1_555 1_555
C3B C4B 1_555 1_555
C6D C7D 1_555 1_555

#END
