
#######################################################################
#
#                 Cambridge Crystallographic Data Centre
#                                CCDC 
#
#######################################################################
#
# If this CIF has been generated from an entry in the Cambridge 
# Structural Database, then it will include bibliographic, chemical, 
# crystal, experimental, refinement or atomic coordinate data resulting 
# from the CCDC's data processing and validation procedures.
#
#######################################################################

data_HAVPUP
_symmetry_cell_setting           monoclinic
_symmetry_space_group_name_H-M   'C c'
_symmetry_Int_Tables_number      9
_space_group_name_Hall           'C -2yc'
loop_
_symmetry_equiv_pos_site_id
_symmetry_equiv_pos_as_xyz
1 x,y,z
2 x,-y,1/2+z
3 1/2+x,1/2+y,z
4 1/2+x,1/2-y,1/2+z
_cell_length_a                   6.1428(9)
_cell_length_b                   14.3670(15)
_cell_length_c                   15.215(2)
_cell_angle_alpha                90
_cell_angle_beta                 90.084(9)
_cell_angle_gamma                90
_cell_volume                     1342.78
loop_
_atom_site_label
_atom_site_type_symbol
_atom_site_fract_x
_atom_site_fract_y
_atom_site_fract_z
Cu1 Cu 0.54462(4) 0.36943(2) -0.41415(3)
N1 N 0.4623(5) 0.3411(2) -0.2888(2)
H1 H 0.3576(97) 0.2957(36) -0.2965(35)
H2 H 0.559(11) 0.3155(37) -0.2599(36)
C1 C 0.3756(6) 0.4274(3) -0.2493(2)
H3 H 0.4941(6) 0.4696(3) -0.2357(2)
H4 H 0.2994(6) 0.4130(3) -0.1952(2)
N2 N 0.3401(5) 0.4806(2) -0.3992(2)
H5 H 0.425(10) 0.5316(35) -0.3973(34)
H6 H 0.243(10) 0.4892(38) -0.4440(37)
C2 C 0.2197(5) 0.4727(2) -0.3148(2)
H7 H 0.1805(5) 0.5350(2) -0.2940(2)
N3 N -0.1510(5) 0.4535(2) -0.3854(2)
H8 H -0.176(10) 0.5070(41) -0.3717(36)
H9 H -0.107(10) 0.4654(37) -0.4332(40)
C3 C 0.0139(5) 0.4147(2) -0.3262(2)
H10 H 0.0553(5) 0.3538(2) -0.3480(2)
H11 H -0.0517(5) 0.4059(2) -0.2688(2)
N4 N 0.6611(6) 0.2393(2) -0.4351(2)
H12 H 0.556(12) 0.2077(35) -0.4296(37)
H13 H 0.761(11) 0.2313(37) -0.4049(37)
C4 C 0.7558(7) 0.2354(3) -0.5243(3)
H14 H 0.7691(7) 0.1711(3) -0.5429(3)
H15 H 0.9000(7) 0.2629(3) -0.5238(3)
N5 N 0.5629(5) 0.3805(2) -0.5480(2)
H16 H 0.671(10) 0.4126(39) -0.5589(37)
H17 H 0.447(10) 0.4113(37) -0.5730(35)
C5 C 0.6100(6) 0.2882(3) -0.5881(2)
H18 H 0.6902(6) 0.2980(3) -0.6429(2)
N6 N 0.2740(7) 0.2756(3) -0.6819(2)
H19 H 0.2045(96) 0.3300(37) -0.6639(36)
H20 H 0.3587(97) 0.3013(35) -0.7261(37)
C6 C 0.3998(7) 0.2361(3) -0.6090(3)
H21 H 0.4354(7) 0.1720(3) -0.6230(3)
H22 H 0.3091(7) 0.2356(3) -0.5568(3)
Cu1_2 Cu -0.45538(4) 0.36943(2) -0.41415(3)
N3_2 N 0.8490(5) 0.4535(2) -0.3854(2)
H8_2 H 0.824(10) 0.5070(41) -0.3717(36)
H9_2 H 0.893(10) 0.4654(37) -0.4332(40)
Cl1 Cl 0.0494(2) 0.47045(8) -0.58710(6)
Cl2 Cl 0.1451(2) 0.16579(6) -0.35419(8)
loop_
_geom_bond_atom_site_label_1
_geom_bond_atom_site_label_2
_geom_bond_site_symmetry_1
_geom_bond_site_symmetry_2
Cu1 N1 1_555 1_555
N1 H1 1_555 1_555
H2 N1 1_555 1_555
C1 N1 1_555 1_555
H3 C1 1_555 1_555
H4 C1 1_555 1_555
N2 Cu1 1_555 1_555
H5 N2 1_555 1_555
H6 N2 1_555 1_555
C2 C1 1_555 1_555
H7 C2 1_555 1_555
N3 H8 1_555 1_555
H9 N3 1_555 1_555
C3 C2 1_555 1_555
H10 C3 1_555 1_555
H11 C3 1_555 1_555
N4 Cu1 1_555 1_555
H12 N4 1_555 1_555
H13 N4 1_555 1_555
C4 N4 1_555 1_555
H14 C4 1_555 1_555
H15 C4 1_555 1_555
N5 Cu1 1_555 1_555
H16 N5 1_555 1_555
H17 N5 1_555 1_555
C5 C4 1_555 1_555
H18 C5 1_555 1_555
N6 H19 1_555 1_555
H20 N6 1_555 1_555
C6 C5 1_555 1_555
H21 C6 1_555 1_555
H22 C6 1_555 1_555
Cu1_2 N3 1_555 1_555
N3_2 Cu1 1_555 1_555
H8_2 N3_2 1_555 1_555
H9_2 N3_2 1_555 1_555
N2 C2 1_555 1_555
N3 C3 1_555 1_555
N5 C5 1_555 1_555
N6 C6 1_555 1_555

#END
