
#######################################################################
#
#                 Cambridge Crystallographic Data Centre
#                                CCDC 
#
#######################################################################
#
# If this CIF has been generated from an entry in the Cambridge 
# Structural Database, then it will include bibliographic, chemical, 
# crystal, experimental, refinement or atomic coordinate data resulting 
# from the CCDC's data processing and validation procedures.
#
#######################################################################

data_HAVYUZ
_symmetry_cell_setting           monoclinic
_symmetry_space_group_name_H-M   'P 21/c'
_symmetry_Int_Tables_number      14
_space_group_name_Hall           '-P 2ybc'
loop_
_symmetry_equiv_pos_site_id
_symmetry_equiv_pos_as_xyz
1 x,y,z
2 -x,1/2+y,1/2-z
3 -x,-y,-z
4 x,1/2-y,1/2+z
_cell_length_a                   12.957(7)
_cell_length_b                   12.947(8)
_cell_length_c                   16.458(10)
_cell_angle_alpha                90
_cell_angle_beta                 106.849(8)
_cell_angle_gamma                90
_cell_volume                     2642.38
loop_
_atom_site_label
_atom_site_type_symbol
_atom_site_fract_x
_atom_site_fract_y
_atom_site_fract_z
Pt1 Pt 0.5000 0.5000 1.0000
K1 K 0.65666(12) 0.45477(12) 0.58614(10)
N1 N 0.7643(5) 0.4365(7) 0.7650(5)
N2 N 0.9399(5) 0.6280(5) 0.9863(5)
O1 O 0.8169(3) 0.5632(3) 0.5474(3)
O2 O 0.8081(3) 0.3700(3) 0.5197(3)
O3 O 0.6689(3) 0.2473(3) 0.5817(3)
O4 O 0.5204(3) 0.3497(4) 0.6507(3)
O5 O 0.4617(3) 0.5562(4) 0.5970(3)
O6 O 0.6594(3) 0.6628(3) 0.6039(3)
S1 S 0.67373(13) 0.56697(14) 1.03265(11)
S2 S 0.56858(13) 0.44530(14) 0.89185(11)
C1 C 0.8497(4) 0.5336(5) 0.4791(4)
C2 C 0.8839(4) 0.5976(5) 0.4277(4)
H1 H 0.8882 0.6681 0.4390
C3 C 0.9132(5) 0.5597(6) 0.3573(4)
C4 C 0.9471(5) 0.6241(7) 0.3013(4)
H2 H 0.9515 0.6948 0.3115
C5 C 0.9733(6) 0.5878(8) 0.2343(5)
H3 H 0.9942 0.6326 0.1978
C6 C 0.9689(6) 0.4802(7) 0.2195(5)
H4 H 0.9883 0.4539 0.1734
C7 C 0.9366(5) 0.4146(7) 0.2716(5)
H5 H 0.9342 0.3440 0.2610
C8 C 0.9071(5) 0.4526(6) 0.3412(4)
C9 C 0.8716(4) 0.3878(5) 0.3966(4)
H6 H 0.8675 0.3170 0.3870
C10 C 0.8434(4) 0.4267(5) 0.4634(4)
C11 C 0.8058(5) 0.2607(5) 0.5115(4)
H7 H 0.8759 0.2351 0.5108
H8 H 0.7529 0.2401 0.4592
C12 C 0.7765(5) 0.2188(5) 0.5864(5)
H9 H 0.7828 0.1441 0.5874
H10 H 0.8256 0.2457 0.6383
C13 C 0.6319(6) 0.2056(5) 0.6484(4)
H11 H 0.6784 0.2280 0.7030
H12 H 0.6331 0.1308 0.6465
C14 C 0.5190(5) 0.2431(6) 0.6368(4)
H13 H 0.4747 0.2275 0.5797
H14 H 0.4884 0.2081 0.6766
C15 C 0.4176(5) 0.3927(6) 0.6408(4)
H15 H 0.3834 0.3588 0.6788
H16 H 0.3725 0.3826 0.5830
C16 C 0.4295(5) 0.5034(6) 0.6602(4)
H17 H 0.3614 0.5312 0.6637
H18 H 0.4828 0.5135 0.7148
C17 C 0.4816(5) 0.6629(6) 0.6143(4)
H19 H 0.4374 0.6866 0.6492
H20 H 0.4595 0.7008 0.5612
C18 C 0.5976(5) 0.6878(5) 0.6588(4)
H21 H 0.6052 0.7607 0.6730
H22 H 0.6223 0.6482 0.7108
C19 C 0.7711(5) 0.6865(5) 0.6362(4)
H23 H 0.8047 0.6420 0.6839
H24 H 0.7804 0.7577 0.6554
C20 C 0.8218(5) 0.6704(5) 0.5670(4)
H25 H 0.7836 0.7097 0.5172
H26 H 0.8962 0.6933 0.5850
C21 C 0.6848(5) 0.5114(4) 0.9406(4)
C22 C 0.7741(5) 0.5202(5) 0.9094(4)
C23 C 0.7702(5) 0.4728(6) 0.8291(5)
C24 C 0.8669(6) 0.5802(5) 0.9526(5)
K1B K 0.34334(12) 0.54523(12) 1.41386(10)
K1B_2 K 0.34334(12) 0.54523(12) 0.41386(10)
N1B N 0.2357(5) 0.5635(7) 1.2350(5)
N1B_2 N 0.2357(5) 0.5635(7) 0.2350(5)
N2B N 0.0601(5) 0.3720(5) 1.0137(5)
O1B O 0.1831(3) 0.4368(3) 0.4526(3)
O2B O 0.1919(3) 0.6300(3) 0.4803(3)
O3B O 0.3311(3) 0.7527(3) 0.4183(3)
O4B O 0.4796(3) 0.6503(4) 0.3493(3)
O5B O 0.5383(3) 0.4438(4) 0.4030(3)
O6B O 0.3406(3) 0.3372(3) 0.3961(3)
S1B S 0.32627(13) 0.43303(14) 0.96735(11)
S2B S 0.43142(13) 0.55470(14) 1.10815(11)
C1B C 0.1503(4) 0.4664(5) 0.5209(4)
C2B C 0.1161(4) 0.4024(5) 0.5723(4)
H1B H 0.1118 0.3319 0.5610
C3B C 0.0868(5) 0.4403(6) 0.6427(4)
C4B C 0.0529(5) 0.3759(7) 0.6987(4)
H2B H 0.0485 0.3052 0.6885
C5B C 0.0267(6) 0.4122(8) 0.7657(5)
H3B H 0.0058 0.3674 0.8022
C6B C 0.0311(6) 0.5198(7) 0.7805(5)
H4B H 0.0117 0.5461 0.8266
C7B C 0.0634(5) 0.5854(7) 0.7284(5)
H5B H 0.0658 0.6560 0.7390
C8B C 0.0929(5) 0.5474(6) 0.6588(4)
C9B C 0.1284(4) 0.6122(5) 0.6034(4)
H6B H 0.1325 0.6830 0.6130
C10B C 0.1566(4) 0.5733(5) 0.5366(4)
C11B C 0.1942(5) 0.7393(5) 0.4885(4)
H7B H 0.1241 0.7649 0.4892
H8B H 0.2471 0.7599 0.5408
C12B C 0.2235(5) 0.7812(5) 0.4136(5)
H9B H 0.2172 0.8559 0.4126
H10B H 0.1744 0.7543 0.3617
C13B C 0.3681(6) 0.7944(5) 0.3516(4)
H11B H 0.3216 0.7720 0.2970
H12B H 0.3669 0.8692 0.3535
C14B C 0.4810(5) 0.7569(6) 0.3632(4)
H13B H 0.5253 0.7725 0.4203
H14B H 0.5116 0.7919 0.3234
C15B C 0.5824(5) 0.6073(6) 0.3592(4)
H15B H 0.6166 0.6412 0.3212
H16B H 0.6275 0.6174 0.4170
C16B C 0.5705(5) 0.4966(6) 0.3398(4)
H17B H 0.6386 0.4688 0.3363
H18B H 0.5172 0.4865 0.2852
C17B C 0.5184(5) 0.3371(6) 0.3857(4)
H19B H 0.5626 0.3134 0.3508
H20B H 0.5405 0.2992 0.4388
C18B C 0.4024(5) 0.3122(5) 0.3412(4)
H21B H 0.3948 0.2393 0.3270
H22B H 0.3777 0.3518 0.2892
C19B C 0.2289(5) 0.3135(5) 0.3638(4)
H23B H 0.1953 0.3580 0.3161
H24B H 0.2196 0.2423 0.3446
C20B C 0.1782(5) 0.3296(5) 0.4330(4)
H25B H 0.2164 0.2903 0.4828
H26B H 0.1038 0.3067 0.4150
C21B C 0.3152(5) 0.4886(4) 1.0594(4)
C22B C 0.2259(5) 0.4798(5) 1.0906(4)
C23B C 0.2298(5) 0.5272(6) 1.1709(5)
C24B C 0.1331(6) 0.4198(5) 1.0474(5)
loop_
_geom_bond_atom_site_label_1
_geom_bond_atom_site_label_2
_geom_bond_site_symmetry_1
_geom_bond_site_symmetry_2
Pt1 S1 1_555 1_555
K1 N1 1_555 1_555
N1 C23 1_555 1_555
N2 C24 1_555 1_555
O1 K1 1_555 1_555
O2 K1 1_555 1_555
O3 K1 1_555 1_555
O4 K1 1_555 1_555
O5 K1 1_555 1_555
O6 K1 1_555 1_555
S1 C21 1_555 1_555
S2 Pt1 1_555 1_555
C1 O1 1_555 1_555
C2 C1 1_555 1_555
H1 C2 1_555 1_555
C3 C2 1_555 1_555
C4 C3 1_555 1_555
H2 C4 1_555 1_555
C5 C4 1_555 1_555
H3 C5 1_555 1_555
C6 C5 1_555 1_555
H4 C6 1_555 1_555
C7 C6 1_555 1_555
H5 C7 1_555 1_555
C8 C3 1_555 1_555
C9 C8 1_555 1_555
H6 C9 1_555 1_555
C10 O2 1_555 1_555
C11 O2 1_555 1_555
H7 C11 1_555 1_555
H8 C11 1_555 1_555
C12 O3 1_555 1_555
H9 C12 1_555 1_555
H10 C12 1_555 1_555
C13 O3 1_555 1_555
H11 C13 1_555 1_555
H12 C13 1_555 1_555
C14 O4 1_555 1_555
H13 C14 1_555 1_555
H14 C14 1_555 1_555
C15 O4 1_555 1_555
H15 C15 1_555 1_555
H16 C15 1_555 1_555
C16 O5 1_555 1_555
H17 C16 1_555 1_555
H18 C16 1_555 1_555
C17 O5 1_555 1_555
H19 C17 1_555 1_555
H20 C17 1_555 1_555
C18 O6 1_555 1_555
H21 C18 1_555 1_555
H22 C18 1_555 1_555
C19 O6 1_555 1_555
H23 C19 1_555 1_555
H24 C19 1_555 1_555
C20 O1 1_555 1_555
H25 C20 1_555 1_555
H26 C20 1_555 1_555
C21 S2 1_555 1_555
C22 C21 1_555 1_555
C23 C22 1_555 1_555
C24 C22 1_555 1_555
K1B N1B 1_555 1_555
K1B_2 O5 1_555 1_555
N1B C23B 1_555 1_555
N1B_2 K1B_2 1_555 1_555
N2B C24B 1_555 1_555
O1B K1B_2 1_555 1_555
O2B K1B_2 1_555 1_555
O3B K1B_2 1_555 1_555
O4B K1B_2 1_555 1_555
O5B K1 1_555 1_555
O6B K1B_2 1_555 1_555
S1B Pt1 1_555 1_555
S2B Pt1 1_555 1_555
C1B O1B 1_555 1_555
C2B C1B 1_555 1_555
H1B C2B 1_555 1_555
C3B C2B 1_555 1_555
C4B C3B 1_555 1_555
H2B C4B 1_555 1_555
C5B C4B 1_555 1_555
H3B C5B 1_555 1_555
C6B C5B 1_555 1_555
H4B C6B 1_555 1_555
C7B C6B 1_555 1_555
H5B C7B 1_555 1_555
C8B C3B 1_555 1_555
C9B C8B 1_555 1_555
H6B C9B 1_555 1_555
C10B O2B 1_555 1_555
C11B O2B 1_555 1_555
H7B C11B 1_555 1_555
H8B C11B 1_555 1_555
C12B O3B 1_555 1_555
H9B C12B 1_555 1_555
H10B C12B 1_555 1_555
C13B O3B 1_555 1_555
H11B C13B 1_555 1_555
H12B C13B 1_555 1_555
C14B O4B 1_555 1_555
H13B C14B 1_555 1_555
H14B C14B 1_555 1_555
C15B O4B 1_555 1_555
H15B C15B 1_555 1_555
H16B C15B 1_555 1_555
C16B O5B 1_555 1_555
H17B C16B 1_555 1_555
H18B C16B 1_555 1_555
C17B O5B 1_555 1_555
H19B C17B 1_555 1_555
H20B C17B 1_555 1_555
C18B O6B 1_555 1_555
H21B C18B 1_555 1_555
H22B C18B 1_555 1_555
C19B O6B 1_555 1_555
H23B C19B 1_555 1_555
H24B C19B 1_555 1_555
C20B O1B 1_555 1_555
H25B C20B 1_555 1_555
H26B C20B 1_555 1_555
C21B S1B 1_555 1_555
C22B C21B 1_555 1_555
C23B C22B 1_555 1_555
C24B C22B 1_555 1_555
C1 C10 1_555 1_555
C7 C8 1_555 1_555
C9 C10 1_555 1_555
C11 C12 1_555 1_555
C13 C14 1_555 1_555
C15 C16 1_555 1_555
C17 C18 1_555 1_555
C19 C20 1_555 1_555
K1B_2 O5B 1_555 1_555
S2B C21B 1_555 1_555
C1B C10B 1_555 1_555
C7B C8B 1_555 1_555
C9B C10B 1_555 1_555
C11B C12B 1_555 1_555
C13B C14B 1_555 1_555
C15B C16B 1_555 1_555
C17B C18B 1_555 1_555
C19B C20B 1_555 1_555

#END
