
#######################################################################
#
#                 Cambridge Crystallographic Data Centre
#                                CCDC 
#
#######################################################################
#
# If this CIF has been generated from an entry in the Cambridge 
# Structural Database, then it will include bibliographic, chemical, 
# crystal, experimental, refinement or atomic coordinate data resulting 
# from the CCDC's data processing and validation procedures.
#
#######################################################################

data_HAVYAG
_symmetry_cell_setting           triclinic
_symmetry_space_group_name_H-M   'P -1'
_symmetry_Int_Tables_number      2
_space_group_name_Hall           '-P 1'
loop_
_symmetry_equiv_pos_site_id
_symmetry_equiv_pos_as_xyz
1 x,y,z
2 -x,-y,-z
_cell_length_a                   10.5417(9)
_cell_length_b                   10.6273(9)
_cell_length_c                   12.2719(10)
_cell_angle_alpha                80.4760(10)
_cell_angle_beta                 84.4580(10)
_cell_angle_gamma                77.7130(10)
_cell_volume                     1322.12
loop_
_atom_site_label
_atom_site_type_symbol
_atom_site_fract_x
_atom_site_fract_y
_atom_site_fract_z
Zn1 Zn 0.28141(3) 0.65495(3) 0.16187(3)
Zn2 Zn 0.5000 0.5000 0.0000
O1 O 0.34759(19) 0.67939(19) 0.00256(17)
O2 O 0.3996(2) 0.8558(2) 0.04571(19)
O3 O 0.3727(2) 0.3954(2) 0.09115(19)
O4 O 0.1865(2) 0.5162(2) 0.1494(2)
O5 O 0.5727(2) 0.5410(2) 0.13601(18)
O6 O 0.4219(2) 0.6154(2) 0.26388(19)
N1 N 0.4664(3) 0.9593(3) -0.4880(3)
N2 N -0.0324(3) 0.0502(2) 0.0174(2)
N3 N 0.9444(3) 0.5216(4) 0.5183(3)
N4 N 0.1356(2) 0.7804(3) 0.2240(2)
N5 N 0.0157(3) 0.9459(3) 0.2943(2)
C1 C 0.3821(3) 0.7921(3) -0.0239(3)
C2 C 0.3968(3) 0.8420(3) -0.1455(3)
C3 C 0.4333(3) 0.9616(3) -0.1797(3)
H1 H 0.4450 1.0120 -0.1277
C4 C 0.4522(3) 1.0053(4) -0.2922(3)
H2 H 0.4735 1.0865 -0.3155
C5 C 0.4395(3) 0.9286(4) -0.3694(3)
C6 C 0.3966(4) 0.8127(4) -0.3356(3)
H3 H 0.3811 0.7644 -0.3878
C7 C 0.3772(3) 0.7695(3) -0.2242(3)
H4 H 0.3506 0.6907 -0.2016
C8 C 0.2517(3) 0.4178(3) 0.1094(3)
C9 C 0.1781(3) 0.3214(3) 0.0823(3)
C10 C 0.2443(3) 0.2096(3) 0.0415(3)
H5 H 0.3343 0.1957 0.0292
C11 C 0.1784(3) 0.1193(3) 0.0191(3)
H6 H 0.2240 0.0444 -0.0077
C12 C 0.0443(3) 0.1394(3) 0.0365(3)
C13 C -0.0232(3) 0.2530(3) 0.0722(3)
H7 H -0.1136 0.2689 0.0804
C14 C 0.0437(3) 0.3433(3) 0.0958(3)
H8 H -0.0021 0.4192 0.1210
C15 C 0.5384(3) 0.5739(3) 0.2291(3)
C16 C 0.6434(3) 0.5596(3) 0.3063(3)
C17 C 0.6182(4) 0.5934(5) 0.4115(3)
H9 H 0.5333 0.6264 0.4364
C18 C 0.7191(4) 0.5781(6) 0.4797(4)
H10 H 0.7015 0.6003 0.5505
C19 C 0.8456(4) 0.5300(4) 0.4438(3)
C20 C 0.8711(4) 0.4959(4) 0.3386(3)
H11 H 0.9559 0.4625 0.3138
C21 C 0.7713(3) 0.5115(4) 0.2716(3)
H12 H 0.7893 0.4893 0.2007
C22 C 0.2577(4) 0.9332(4) 0.2787(3)
H13 H 0.2855 0.9021 0.3523
H14 H 0.2407 1.0267 0.2662
H15 H 0.3248 0.9005 0.2259
C23 C 0.1374(3) 0.8874(3) 0.2656(3)
C24 C 0.0058(3) 0.7710(4) 0.2290(3)
H16 H -0.0252 0.7045 0.2063
C25 C -0.0672(4) 0.8718(4) 0.2713(3)
H17 H -0.1573 0.8888 0.2830
C26 C -0.0229(5) 1.0665(4) 0.3436(3)
H18 H -0.0987 1.1206 0.3088
H19 H 0.0472 1.1144 0.3298
C27 C -0.0543(5) 1.0379(5) 0.4678(4)
H20 H -0.0847 1.1201 0.4957
H21 H -0.1252 0.9911 0.4803
Zn1A Zn 0.71859(3) 1.34505(3) -1.16187(3)
Zn1A_2 Zn -0.28141(3) -0.65495(3) -0.16187(3)
Zn1A_3 Zn 1.71859(3) 0.34505(3) 0.83813(3)
Zn1A_4 Zn -0.28141(3) 1.34505(3) 0.83813(3)
Zn2_2 Zn 0.5000 1.5000 -1.0000
Zn2_3 Zn -0.5000 -0.5000 0.0000
Zn2_4 Zn 1.5000 0.5000 1.0000
O1A O 0.65241(19) 1.32061(19) -1.00256(17)
O1A_2 O 0.65241(19) 0.32061(19) -0.00256(17)
O2A O 0.6004(2) 1.1442(2) -1.04571(19)
O3A O -0.3727(2) -0.3954(2) -0.09115(19)
O3A_2 O 0.6273(2) 0.6046(2) -0.09115(19)
O4A O -0.1865(2) -0.5162(2) -0.1494(2)
O4A_2 O 0.8135(2) 1.4838(2) -1.1494(2)
O5A O 1.4273(2) 0.4590(2) 0.86399(18)
O5A_2 O 0.4273(2) 0.4590(2) -0.13601(18)
O6A O 1.5781(2) 0.3846(2) 0.73612(19)
O6A_2 O 0.5781(2) 1.3846(2) -1.26388(19)
N1A N 0.5336(3) 1.0407(3) -0.5120(3)
N2A N 0.0324(3) -0.0502(2) -0.0174(2)
N3A N 1.0556(3) 0.4784(4) 0.4817(3)
N4A N -0.1356(2) 1.2196(3) 0.7760(2)
N4A_2 N 0.8644(2) 1.2196(3) -1.2240(2)
N5A N -0.0157(3) 1.0541(3) 0.7057(2)
C1A C 0.6179(3) 1.2079(3) -0.9761(3)
C2A C 0.6032(3) 1.1580(3) -0.8545(3)
C3A C 0.5667(3) 1.0384(3) -0.8203(3)
H1A H 0.5550 0.9880 -0.8723
C4A C 0.5478(3) 0.9947(4) -0.7078(3)
H2A H 0.5265 0.9135 -0.6845
C5A C 0.5605(3) 1.0714(4) -0.6306(3)
C6A C 0.6034(4) 1.1873(4) -0.6644(3)
H3A H 0.6189 1.2356 -0.6122
C7A C 0.6228(3) 1.2305(3) -0.7758(3)
H4A H 0.6494 1.3093 -0.7984
C8A C -0.2517(3) -0.4178(3) -0.1094(3)
C9A C -0.1781(3) -0.3214(3) -0.0823(3)
C10A C -0.2443(3) -0.2096(3) -0.0415(3)
H5A H -0.3343 -0.1957 -0.0292
C11A C -0.1784(3) -0.1193(3) -0.0191(3)
H6A H -0.2240 -0.0444 0.0077
C12A C -0.0443(3) -0.1394(3) -0.0365(3)
C13A C 0.0232(3) -0.2530(3) -0.0722(3)
H7A H 0.1136 -0.2689 -0.0804
C14A C -0.0437(3) -0.3433(3) -0.0958(3)
H8A H 0.0021 -0.4192 -0.1210
C15A C 1.4616(3) 0.4261(3) 0.7709(3)
C16A C 1.3566(3) 0.4404(3) 0.6937(3)
C17A C 1.3818(4) 0.4066(5) 0.5885(3)
H9A H 1.4667 0.3736 0.5636
C18A C 1.2809(4) 0.4219(6) 0.5203(4)
H10A H 1.2985 0.3997 0.4495
C19A C 1.1544(4) 0.4700(4) 0.5562(3)
C20A C 1.1289(4) 0.5041(4) 0.6614(3)
H11A H 1.0441 0.5375 0.6862
C21A C 1.2287(3) 0.4885(4) 0.7284(3)
H12A H 1.2107 0.5107 0.7993
C22A C -0.2577(4) 1.0668(4) 0.7213(3)
H13A H -0.2855 1.0979 0.6477
H14A H -0.2407 0.9733 0.7338
H15A H -0.3248 1.0995 0.7741
C23A C -0.1374(3) 1.1126(3) 0.7344(3)
C24A C -0.0058(3) 1.2290(4) 0.7710(3)
H16A H 0.0252 1.2955 0.7937
C25A C 0.0672(4) 1.1282(4) 0.7287(3)
H17A H 0.1573 1.1112 0.7170
C26A C 0.0229(5) 0.9335(4) 0.6564(3)
H18A H 0.0987 0.8794 0.6912
H19A H -0.0472 0.8856 0.6702
C27A C 0.0543(5) 0.9621(5) 0.5322(4)
H20A H 0.0847 0.8799 0.5043
H21A H 0.1252 1.0089 0.5197
loop_
_geom_bond_atom_site_label_1
_geom_bond_atom_site_label_2
_geom_bond_site_symmetry_1
_geom_bond_site_symmetry_2
Zn1 O1 1_555 1_555
Zn2 O1 1_555 1_555
O1 C1 1_555 1_555
O2 C1 1_555 1_555
O3 Zn2 1_555 1_555
O4 Zn1 1_555 1_555
O5 Zn2 1_555 1_555
O6 Zn1 1_555 1_555
N1 C5 1_555 1_555
N2 C12 1_555 1_555
N3 C19 1_555 1_555
N4 Zn1 1_555 1_555
N5 C23 1_555 1_555
C1 C2 1_555 1_555
C2 C3 1_555 1_555
C3 H1 1_555 1_555
C4 C3 1_555 1_555
H2 C4 1_555 1_555
C5 C4 1_555 1_555
C6 C5 1_555 1_555
H3 C6 1_555 1_555
C7 C2 1_555 1_555
H4 C7 1_555 1_555
C8 O3 1_555 1_555
C9 C8 1_555 1_555
C10 C9 1_555 1_555
H5 C10 1_555 1_555
C11 C10 1_555 1_555
H6 C11 1_555 1_555
C12 C11 1_555 1_555
C13 C12 1_555 1_555
H7 C13 1_555 1_555
C14 C9 1_555 1_555
H8 C14 1_555 1_555
C15 O5 1_555 1_555
C16 C15 1_555 1_555
C17 C16 1_555 1_555
H9 C17 1_555 1_555
C18 C17 1_555 1_555
H10 C18 1_555 1_555
C19 C18 1_555 1_555
C20 C19 1_555 1_555
H11 C20 1_555 1_555
C21 C16 1_555 1_555
H12 C21 1_555 1_555
C22 H13 1_555 1_555
H14 C22 1_555 1_555
H15 C22 1_555 1_555
C23 N4 1_555 1_555
C24 N4 1_555 1_555
H16 C24 1_555 1_555
C25 N5 1_555 1_555
H17 C25 1_555 1_555
C26 N5 1_555 1_555
H18 C26 1_555 1_555
H19 C26 1_555 1_555
C27 C26 1_555 1_555
H20 C27 1_555 1_555
H21 C27 1_555 1_555
Zn1A O1A 1_555 1_555
Zn1A_2 O4A 1_555 1_555
Zn1A_3 O6A 1_555 1_555
Zn1A_4 N4A 1_555 1_555
Zn2_2 O1A 1_555 1_555
Zn2_3 O3A 1_555 1_555
Zn2_4 O5A 1_555 1_555
O1A C1A 1_555 1_555
O1A_2 Zn2 1_555 1_555
O2A C1A 1_555 1_555
O3A C8A 1_555 1_555
O3A_2 Zn2 1_555 1_555
O4A C8A 1_555 1_555
O4A_2 Zn1A 1_555 1_555
O5A C15A 1_555 1_555
O5A_2 Zn2 1_555 1_555
O6A C15A 1_555 1_555
O6A_2 Zn1A 1_555 1_555
N1A N1 1_555 1_555
N2A N2 1_555 1_555
N3A N3 1_555 1_555
N4A C23A 1_555 1_555
N4A_2 Zn1A 1_555 1_555
N5A C23A 1_555 1_555
C1A C2A 1_555 1_555
C2A C3A 1_555 1_555
C3A H1A 1_555 1_555
C4A C3A 1_555 1_555
H2A C4A 1_555 1_555
C5A N1A 1_555 1_555
C6A C5A 1_555 1_555
H3A C6A 1_555 1_555
C7A C2A 1_555 1_555
H4A C7A 1_555 1_555
C8A C9A 1_555 1_555
C9A C10A 1_555 1_555
C10A H5A 1_555 1_555
C11A C10A 1_555 1_555
H6A C11A 1_555 1_555
C12A N2A 1_555 1_555
C13A C12A 1_555 1_555
H7A C13A 1_555 1_555
C14A C9A 1_555 1_555
H8A C14A 1_555 1_555
C15A C16A 1_555 1_555
C16A C17A 1_555 1_555
C17A H9A 1_555 1_555
C18A C17A 1_555 1_555
H10A C18A 1_555 1_555
C19A N3A 1_555 1_555
C20A C19A 1_555 1_555
H11A C20A 1_555 1_555
C21A C16A 1_555 1_555
H12A C21A 1_555 1_555
C22A H13A 1_555 1_555
H14A C22A 1_555 1_555
H15A C22A 1_555 1_555
C23A C22A 1_555 1_555
C24A N4A 1_555 1_555
H16A C24A 1_555 1_555
C25A N5A 1_555 1_555
H17A C25A 1_555 1_555
C26A N5A 1_555 1_555
H18A C26A 1_555 1_555
H19A C26A 1_555 1_555
C27A C27 1_555 1_555
H20A C27A 1_555 1_555
H21A C27A 1_555 1_555
O4 C8 1_555 1_555
O6 C15 1_555 1_555
C6 C7 1_555 1_555
C13 C14 1_555 1_555
C20 C21 1_555 1_555
C22 C23 1_555 1_555
C24 C25 1_555 1_555
C4A C5A 1_555 1_555
C6A C7A 1_555 1_555
C11A C12A 1_555 1_555
C13A C14A 1_555 1_555
C18A C19A 1_555 1_555
C20A C21A 1_555 1_555
C24A C25A 1_555 1_555
C26A C27A 1_555 1_555

#END
