
#######################################################################
#
#                 Cambridge Crystallographic Data Centre
#                                CCDC 
#
#######################################################################
#
# If this CIF has been generated from an entry in the Cambridge 
# Structural Database, then it will include bibliographic, chemical, 
# crystal, experimental, refinement or atomic coordinate data resulting 
# from the CCDC's data processing and validation procedures.
#
#######################################################################

data_HAWBUE
_symmetry_cell_setting           monoclinic
_symmetry_space_group_name_H-M   'C c'
_symmetry_Int_Tables_number      9
_space_group_name_Hall           'C -2yc'
loop_
_symmetry_equiv_pos_site_id
_symmetry_equiv_pos_as_xyz
1 x,y,z
2 x,-y,1/2+z
3 1/2+x,1/2+y,z
4 1/2+x,1/2-y,1/2+z
_cell_length_a                   12.281(3)
_cell_length_b                   22.530(5)
_cell_length_c                   7.7632(16)
_cell_angle_alpha                90
_cell_angle_beta                 129.21
_cell_angle_gamma                90
_cell_volume                     1664.35
loop_
_atom_site_label
_atom_site_type_symbol
_atom_site_fract_x
_atom_site_fract_y
_atom_site_fract_z
Zn1 Zn 1.00929(2) 0.100160(7) 0.20010(3)
C1 C 0.3009(2) -0.08939(9) -0.8717(4)
H1 H 0.3015 -0.1300 -0.8919
C2 C 0.4231(2) -0.06276(9) -0.6920(3)
H2 H 0.5034 -0.0854 -0.5928
C3 C 0.4250(2) -0.00179(9) -0.6610(3)
C4 C 0.30060(19) 0.02976(8) -0.8140(3)
H3 H 0.2977 0.0706 -0.7997
C5 C 0.1824(2) -0.00029(8) -0.9865(3)
H4 H 0.0997 0.0210 -1.0853
C6 C 0.5501(2) 0.03111(9) -0.4788(3)
H5 H 0.5439 0.0723 -0.4875
C7 C 0.6703(2) 0.00860(8) -0.3044(3)
H6 H 0.6826 -0.0323 -0.2894
C8 C 0.7868(2) 0.04857(9) -0.1306(3)
C9 C 0.9157(2) 0.12164(9) 0.4608(3)
H7 H 0.9515 0.0836 0.5115
C10 C 0.8551(2) 0.14941(10) 0.5396(3)
H8 H 0.8483 0.1298 0.6379
C11 C 0.8044(2) 0.20682(9) 0.4714(3)
C12 C 0.8116(3) 0.23290(10) 0.3141(4)
H9 H 0.7759 0.2708 0.2598
C13 C 0.8726(3) 0.20152(10) 0.2410(4)
H10 H 0.8770 0.2191 0.1370
C14 C 0.7472(3) 0.23616(10) 0.5690(4)
H11 H 0.7501 0.2150 0.6746
C15 C 0.6923(2) 0.29004(10) 0.5188(4)
H12 H 0.6865 0.3121 0.4118
C16 C 0.6388(2) 0.31663(10) 0.6322(4)
N1 N 0.18128(17) -0.05910(7) -1.0182(3)
N2 N 0.92556(18) 0.14681(7) 0.3144(3)
O1 O 0.90010(14) 0.02482(6) 0.0361(2)
O2 O 0.77125(18) 0.10384(6) -0.1513(3)
O3 O 0.64787(17) 0.29044(6) 0.7798(3)
O4 O 0.58486(16) 0.36810(7) 0.5609(3)
Zn1A Zn 0.00929(2) -0.100160(7) -1.29990(3)
Zn1C Zn 0.50929(2) 0.399840(7) 0.70010(3)
N1A N 1.18128(17) 0.05910(7) 0.4818(3)
O4C O 1.08486(16) 0.13190(7) 0.0609(3)
O5 O -1.95697(18) 0.32532(7) -3.7608(4)
H13 H -1.9363 0.3116 -3.8388
H14 H -2.0380 0.3399 -3.8237
loop_
_geom_bond_atom_site_label_1
_geom_bond_atom_site_label_2
_geom_bond_site_symmetry_1
_geom_bond_site_symmetry_2
Zn1 N2 1_555 1_555
C1 H1 1_555 1_555
C2 C1 1_555 1_555
H2 C2 1_555 1_555
C3 C2 1_555 1_555
C4 C3 1_555 1_555
H3 C4 1_555 1_555
C5 C4 1_555 1_555
H4 C5 1_555 1_555
C6 C3 1_555 1_555
H5 C6 1_555 1_555
C7 C6 1_555 1_555
H6 C7 1_555 1_555
C8 C7 1_555 1_555
C9 H7 1_555 1_555
C10 C9 1_555 1_555
H8 C10 1_555 1_555
C11 C10 1_555 1_555
C12 C11 1_555 1_555
H9 C12 1_555 1_555
C13 C12 1_555 1_555
H10 C13 1_555 1_555
C14 C11 1_555 1_555
H11 C14 1_555 1_555
C15 C14 1_555 1_555
H12 C15 1_555 1_555
C16 C15 1_555 1_555
N1 C1 1_555 1_555
N2 C9 1_555 1_555
O1 Zn1 1_555 1_555
O2 Zn1 1_555 1_555
O3 C16 1_555 1_555
O4 C16 1_555 1_555
O5 H13 1_555 1_555
H14 O5 1_555 1_555
Zn1A N1 1_555 1_555
Zn1C O4 1_555 1_555
N1A Zn1 1_555 1_555
O4C Zn1 1_555 1_555
C5 N1 1_555 1_555
C8 O1 1_555 1_555
C8 O2 1_555 1_555
C13 N2 1_555 1_555

#END
