
#######################################################################
#
#                 Cambridge Crystallographic Data Centre
#                                CCDC 
#
#######################################################################
#
# If this CIF has been generated from an entry in the Cambridge 
# Structural Database, then it will include bibliographic, chemical, 
# crystal, experimental, refinement or atomic coordinate data resulting 
# from the CCDC's data processing and validation procedures.
#
#######################################################################

data_HAWBIS
_symmetry_cell_setting           cubic
_symmetry_space_group_name_H-M   'P a -3'
_symmetry_Int_Tables_number      205
_space_group_name_Hall           '-P 2ac 2ab 3'
loop_
_symmetry_equiv_pos_site_id
_symmetry_equiv_pos_as_xyz
1 x,y,z
2 1/2-x,-y,1/2+z
3 -x,1/2+y,1/2-z
4 1/2+x,1/2-y,-z
5 z,x,y
6 1/2+z,1/2-x,-y
7 1/2-z,-x,1/2+y
8 -z,1/2+x,1/2-y
9 y,z,x
10 -y,1/2+z,1/2-x
11 1/2+y,1/2-z,-x
12 1/2-y,-z,1/2+x
13 -x,-y,-z
14 1/2+x,y,1/2-z
15 x,1/2-y,1/2+z
16 1/2-x,1/2+y,z
17 -z,-x,-y
18 1/2-z,1/2+x,y
19 1/2+z,x,1/2-y
20 z,1/2-x,1/2+y
21 -y,-z,-x
22 y,1/2-z,1/2+x
23 1/2-y,1/2+z,x
24 1/2+y,z,1/2-x
_cell_length_a                   19.159(2)
_cell_length_b                   19.159(2)
_cell_length_c                   19.159(2)
_cell_angle_alpha                90
_cell_angle_beta                 90
_cell_angle_gamma                90
_cell_volume                     7032.64
loop_
_atom_site_label
_atom_site_type_symbol
_atom_site_fract_x
_atom_site_fract_y
_atom_site_fract_z
Cu1 Cu 0.31506(5) -0.44003(5) 0.17826(5)
Cu2 Cu 0.53219(5) -0.40451(5) 0.08328(5)
O1 O 0.2943(3) -0.2841(3) -0.0349(3)
O2 O 0.3425(3) -0.3697(3) -0.0983(3)
O3 O 0.4598(3) -0.4598(3) 0.0402(3)
O4 O 0.3603(5) -0.3603(5) 0.1397(5)
N1 N 0.3878(4) -0.2405(4) 0.0704(4)
N2 N 0.3401(3) -0.4940(4) -0.0264(3)
N3 N 0.4342(4) -0.2419(3) 0.1234(3)
N4 N 0.3463(3) -0.5421(4) 0.0245(4)
C1 C 0.2998(4) -0.3206(5) -0.0885(4)
C2 C 0.2495(4) -0.3087(4) -0.1476(4)
C3 C 0.2440(4) -0.3571(4) -0.2006(4)
H1 H 0.2034 -0.2238 -0.1066
C4 C 0.1804(5) -0.4628(5) 0.1043(6)
H2 H 0.1671 -0.5021 0.1296
C5 C 0.1820(5) -0.3787(5) 0.0293(5)
H3 H 0.1705 -0.3488 -0.0071
C6 C 0.1403(5) -0.4317(6) 0.0539(6)
H4 H 0.0955 -0.4435 0.0397
C7 C 0.5429(6) -0.2570(5) -0.0719(5)
H5 H 0.5622 -0.2196 -0.0961
C8 C 0.5659(5) -0.2862(5) -0.0131(5)
H6 H 0.6047 -0.2708 0.0116
C9 C 0.4845(5) -0.2947(5) -0.0887(6)
H7 H 0.4555 -0.2858 -0.1266
Cu1I Cu 0.44003(5) -0.32174(5) 0.18494(5)
Cu1F Cu 0.32174(5) -0.31506(5) 0.05997(5)
Cu1K Cu -0.05997(5) -0.17826(5) -0.18494(5)
Cu1A Cu 0.18494(5) -0.55997(5) -0.32174(5)
Cu2I Cu 0.40451(5) -0.41672(5) -0.03219(5)
Cu2C Cu 0.03219(5) -0.09549(5) -0.08328(5)
Cu2F Cu 0.41672(5) -0.53219(5) 0.09549(5)
Cu2D Cu 0.08328(5) -0.46781(5) -0.40451(5)
O1I O 0.2841(3) -0.5349(3) 0.2057(3)
O1F O 0.5349(3) -0.2943(3) 0.2159(3)
O1J O 0.2159(3) -0.4651(3) -0.2943(3)
O1G O 0.0349(3) -0.2057(3) -0.2159(3)
O2F O 0.5983(3) -0.3425(3) 0.1303(3)
O2J O 0.1303(3) -0.4017(3) -0.3425(3)
O2G O 0.0983(3) -0.1575(3) -0.1303(3)
O2I O 0.3697(3) -0.5983(3) 0.1575(3)
N1F N 0.4296(4) -0.3878(4) 0.2595(4)
N1I N 0.2405(4) -0.4296(4) 0.1122(4)
N2I N 0.4940(4) -0.5264(3) 0.1599(3)
N2F N 0.5264(3) -0.3401(3) 0.0060(4)
N3F N 0.3766(3) -0.4342(4) 0.2581(3)
N3I N 0.2419(3) -0.3766(3) 0.0658(4)
N4I N 0.5421(4) -0.4755(4) 0.1537(3)
N4F N 0.4755(4) -0.3463(3) -0.0421(4)
C1J C 0.1794(5) -0.4115(4) -0.2998(4)
C1G C 0.0885(4) -0.2002(4) -0.1794(5)
C2J C 0.1913(4) -0.3524(4) -0.2495(4)
C2G C 0.1476(4) -0.2505(4) -0.1913(4)
C3J C 0.1429(4) -0.2994(4) -0.2440(4)
C3G C 0.2006(4) -0.2560(4) -0.1429(4)
H1G H 0.1066 -0.2966 -0.2762
H1J H 0.2762 -0.3934 -0.2034
C4I C 0.4628(5) -0.3957(6) 0.3196(5)
C4F C 0.3957(6) -0.1804(5) 0.0372(5)
H2I H 0.5021 -0.3704 0.3329
H2F H 0.3704 -0.1671 -0.0021
C5I C 0.3787(5) -0.4707(5) 0.3180(5)
C5F C 0.4707(5) -0.1820(5) 0.1213(5)
H3I H 0.3488 -0.5071 0.3295
H3F H 0.5071 -0.1705 0.1512
C6I C 0.4317(6) -0.4461(6) 0.3597(5)
C6F C 0.4461(6) -0.1403(5) 0.0683(6)
H4I H 0.4435 -0.4603 0.4045
H4F H 0.4603 -0.0955 0.0565
C7F C 0.5719(5) -0.5429(6) 0.2430(5)
C7I C 0.2570(5) -0.5719(5) -0.0429(6)
H5F H 0.5961 -0.5622 0.2804
H5I H 0.2196 -0.5961 -0.0622
C8F C 0.5131(5) -0.5659(5) 0.2138(5)
C8I C 0.2862(5) -0.5131(5) -0.0659(5)
H6F H 0.4884 -0.6047 0.2292
H6I H 0.2708 -0.4884 -0.1047
C9F C 0.5887(6) -0.4845(5) 0.2053(5)
C9I C 0.2947(5) -0.5887(6) 0.0155(5)
H7F H 0.6266 -0.4555 0.2142
H7I H 0.2858 -0.6266 0.0445
loop_
_geom_bond_atom_site_label_1
_geom_bond_atom_site_label_2
_geom_bond_site_symmetry_1
_geom_bond_site_symmetry_2
Cu1 O4 1_555 1_555
Cu2 O3 1_555 1_555
O1 C1 1_555 1_555
O2 C1 1_555 1_555
O3 Cu2I 1_555 1_555
O4 Cu1I 1_555 1_555
N1 N3 1_555 1_555
N2 N4 1_555 1_555
N3 Cu1I 1_555 1_555
N4 Cu2F 1_555 1_555
C1 C2 1_555 1_555
C2 C3 1_555 1_555
C3 C2J 1_555 1_555
H1 C3G 1_555 1_555
C4 H2 1_555 1_555
C5 H3 1_555 1_555
C6 C4 1_555 1_555
H4 C6 1_555 1_555
C7 H5 1_555 1_555
C8 C7 1_555 1_555
H6 C8 1_555 1_555
C9 C7 1_555 1_555
H7 C9 1_555 1_555
Cu1I O1F 1_555 1_555
Cu1F O1 1_555 1_555
Cu1K O1G 1_555 1_555
Cu1A O1J 1_555 1_555
Cu2I O2 1_555 1_555
Cu2C O2G 1_555 1_555
Cu2F O3 1_555 1_555
Cu2D O2J 1_555 1_555
O1I Cu1 1_555 1_555
O1J C1J 1_555 1_555
O1G C1G 1_555 1_555
O2F Cu2 1_555 1_555
O2J C1J 1_555 1_555
O2G C1G 1_555 1_555
O2I Cu2F 1_555 1_555
N1F Cu1I 1_555 1_555
N1I Cu1 1_555 1_555
N2I Cu2F 1_555 1_555
N2F Cu2 1_555 1_555
N3F Cu1 1_555 1_555
N3I C5 1_555 1_555
N4I Cu2 1_555 1_555
N4F C9 1_555 1_555
C1J C2J 1_555 1_555
C1G C2G 1_555 1_555
C2J C3J 1_555 1_555
C2G C3J 1_555 1_555
C3J H1G 1_555 1_555
C3G C2 1_555 1_555
H1J C3 1_555 1_555
C4I N1F 1_555 1_555
C4F N1 1_555 1_555
H2I C4I 1_555 1_555
H2F C4F 1_555 1_555
C5I N3F 1_555 1_555
C5F N3 1_555 1_555
H3I C5I 1_555 1_555
H3F C5F 1_555 1_555
C6I C4I 1_555 1_555
C6F C4F 1_555 1_555
H4I C6I 1_555 1_555
H4F C6F 1_555 1_555
C7F H5F 1_555 1_555
C7I H5I 1_555 1_555
C8F N2I 1_555 1_555
C8I N2 1_555 1_555
H6F C8F 1_555 1_555
H6I C8I 1_555 1_555
C9F N4I 1_555 1_555
C9I N4 1_555 1_555
H7F C9F 1_555 1_555
H7I C9I 1_555 1_555
O4 Cu1F 1_555 1_555
N1 Cu1F 1_555 1_555
N2 Cu2I 1_555 1_555
C4 N1I 1_555 1_555
C5 C6 1_555 1_555
C8 N2F 1_555 1_555
Cu1F N3I 1_555 1_555
Cu2I N4F 1_555 1_555
N1F N3F 1_555 1_555
N1I N3I 1_555 1_555
N2I N4I 1_555 1_555
N2F N4F 1_555 1_555
C2G C3G 1_555 1_555
C5I C6I 1_555 1_555
C5F C6F 1_555 1_555
C7F C8F 1_555 1_555
C7F C9F 1_555 1_555
C7I C8I 1_555 1_555
C7I C9I 1_555 1_555

#END
