
#######################################################################
#
#                 Cambridge Crystallographic Data Centre
#                                CCDC 
#
#######################################################################
#
# If this CIF has been generated from an entry in the Cambridge 
# Structural Database, then it will include bibliographic, chemical, 
# crystal, experimental, refinement or atomic coordinate data resulting 
# from the CCDC's data processing and validation procedures.
#
#######################################################################

data_HAWDAM
_symmetry_cell_setting           monoclinic
_symmetry_space_group_name_H-M   'P 21/c'
_symmetry_Int_Tables_number      14
_space_group_name_Hall           '-P 2ybc'
loop_
_symmetry_equiv_pos_site_id
_symmetry_equiv_pos_as_xyz
1 x,y,z
2 -x,1/2+y,1/2-z
3 -x,-y,-z
4 x,1/2-y,1/2+z
_cell_length_a                   10.778(2)
_cell_length_b                   13.955(3)
_cell_length_c                   16.104(5)
_cell_angle_alpha                90
_cell_angle_beta                 128.68(2)
_cell_angle_gamma                90
_cell_volume                     1890.85
loop_
_atom_site_label
_atom_site_type_symbol
_atom_site_fract_x
_atom_site_fract_y
_atom_site_fract_z
Cd1 Cd 0.629953(19) 0.969246(12) 0.647349(14)
O1 O 0.9019(2) 0.99892(16) 0.77849(16)
O2 O 0.7911(2) 0.91369(15) 0.83117(14)
O3 O 1.3551(3) 0.53260(16) 0.98039(17)
O4 O 1.3993(2) 0.59230(16) 1.12086(15)
N1 N 0.6792(3) 0.81609(15) 0.61748(18)
N2 N 0.6949(2) 0.65812(14) 0.63559(17)
N3 N 0.5548(2) 0.27782(14) 0.66846(17)
N4 N 0.5636(2) 0.11977(14) 0.66862(17)
C1 C 0.9108(3) 0.94792(19) 0.8467(2)
C2 C 1.0747(3) 0.9306(2) 0.9521(2)
H1 H 1.1529 0.9270 0.9390
H2 H 1.1034 0.9863 0.9992
C3 C 1.0878(4) 0.8408(2) 1.0093(2)
H3 H 0.9955 0.8369 1.0086
H4 H 1.1852 0.8442 1.0843
C4 C 1.0937(4) 0.7511(2) 0.9587(3)
H5 H 1.1949 0.7508 0.9697
H6 H 1.0060 0.7539 0.8811
C5 C 1.0806(4) 0.6577(3) 1.0014(3)
H7 H 0.9696 0.6491 0.9741
H8 H 1.1496 0.6610 1.0800
C6 C 1.1291(3) 0.5714(3) 0.9690(3)
H9 H 1.0733 0.5748 0.8916
H10 H 1.0945 0.5120 0.9829
C7 C 1.3043(3) 0.56627(18) 1.0270(2)
C8 C 0.6208(3) 0.73923(18) 0.6289(2)
H11 H 0.5358 0.7406 0.6321
C9 C 0.7984(3) 0.7823(2) 0.6166(2)
H12 H 0.8629 0.8212 0.6088
C10 C 0.8110(3) 0.6862(2) 0.6282(2)
H13 H 0.8845 0.6460 0.6309
C11 C 0.6601(3) 0.56244(18) 0.64649(19)
C12 C 0.5097(3) 0.53916(17) 0.6134(2)
H14 H 0.4302 0.5873 0.5846
C13 C 0.4757(3) 0.44510(18) 0.6224(2)
H15 H 0.3734 0.4292 0.6004
C14 C 0.5906(3) 0.37507(17) 0.66325(19)
C15 C 0.7413(3) 0.39884(19) 0.6985(2)
H16 H 0.8212 0.3509 0.7286
C16 C 0.7762(3) 0.49221(19) 0.6902(2)
H17 H 0.8798 0.5081 0.7144
C17 C 0.4393(3) 0.24528(18) 0.6732(2)
H18 H 0.3683 0.2831 0.6756
C18 C 0.4466(3) 0.14854(19) 0.6738(2)
H19 H 0.3806 0.1066 0.6773
C19 C 0.6253(3) 0.19870(19) 0.6655(2)
H20 H 0.7097 0.2006 0.6616
Cd1A Cd 1.370047(19) 0.469246(12) 0.852651(14)
Cd1C Cd 1.629953(19) 0.530754(12) 1.147349(14)
Cd1_2 Cd 0.629953(19) -0.030754(12) 0.647349(14)
O3A O 0.6449(3) 1.03260(16) 0.51961(17)
O3C O 0.3551(3) 0.96740(16) 0.48039(17)
O4C O 0.3993(2) 0.90770(16) 0.62086(15)
N4_2 N 0.5636(2) 1.11977(14) 0.66862(17)
loop_
_geom_bond_atom_site_label_1
_geom_bond_atom_site_label_2
_geom_bond_site_symmetry_1
_geom_bond_site_symmetry_2
Cd1 O1 1_555 1_555
O1 C1 1_555 1_555
O2 Cd1 1_555 1_555
O3 C7 1_555 1_555
O4 C7 1_555 1_555
N1 Cd1 1_555 1_555
N2 C8 1_555 1_555
N3 C14 1_555 1_555
N4 C18 1_555 1_555
C1 O2 1_555 1_555
C2 C1 1_555 1_555
H1 C2 1_555 1_555
H2 C2 1_555 1_555
C3 C2 1_555 1_555
H3 C3 1_555 1_555
H4 C3 1_555 1_555
C4 C3 1_555 1_555
H5 C4 1_555 1_555
H6 C4 1_555 1_555
C5 C4 1_555 1_555
H7 C5 1_555 1_555
H8 C5 1_555 1_555
C6 C5 1_555 1_555
H9 C6 1_555 1_555
H10 C6 1_555 1_555
C7 C6 1_555 1_555
C8 N1 1_555 1_555
H11 C8 1_555 1_555
C9 N1 1_555 1_555
H12 C9 1_555 1_555
C10 N2 1_555 1_555
H13 C10 1_555 1_555
C11 N2 1_555 1_555
C12 C11 1_555 1_555
H14 C12 1_555 1_555
C13 C12 1_555 1_555
H15 C13 1_555 1_555
C14 C13 1_555 1_555
C15 C14 1_555 1_555
H16 C15 1_555 1_555
C16 C11 1_555 1_555
H17 C16 1_555 1_555
C17 N3 1_555 1_555
H18 C17 1_555 1_555
C18 C17 1_555 1_555
H19 C18 1_555 1_555
C19 N3 1_555 1_555
H20 C19 1_555 1_555
Cd1A O3 1_555 1_555
Cd1C O3 1_555 1_555
Cd1_2 N4 1_555 1_555
O3A Cd1 1_555 1_555
O3C Cd1 1_555 1_555
O4C Cd1 1_555 1_555
N4_2 Cd1 1_555 1_555
O4 Cd1C 1_555 1_555
N4 C19 1_555 1_555
C9 C10 1_555 1_555
C15 C16 1_555 1_555

#END
