
#######################################################################
#
#                 Cambridge Crystallographic Data Centre
#                                CCDC 
#
#######################################################################
#
# If this CIF has been generated from an entry in the Cambridge 
# Structural Database, then it will include bibliographic, chemical, 
# crystal, experimental, refinement or atomic coordinate data resulting 
# from the CCDC's data processing and validation procedures.
#
#######################################################################

data_HAWJOG
_symmetry_cell_setting           triclinic
_symmetry_space_group_name_H-M   'P -1'
_symmetry_Int_Tables_number      2
_space_group_name_Hall           '-P 1'
loop_
_symmetry_equiv_pos_site_id
_symmetry_equiv_pos_as_xyz
1 x,y,z
2 -x,-y,-z
_cell_length_a                   6.6540(10)
_cell_length_b                   8.209(2)
_cell_length_c                   10.373(2)
_cell_angle_alpha                77.88(3)
_cell_angle_beta                 71.31(3)
_cell_angle_gamma                85.60(3)
_cell_volume                     524.731
loop_
_atom_site_label
_atom_site_type_symbol
_atom_site_fract_x
_atom_site_fract_y
_atom_site_fract_z
N1 N 0.2890(4) 0.0039(3) 0.9317(3)
H1 H 0.3599 -0.0938 0.9284
Nd1 Nd 0.22953(2) 0.341387(19) 0.317247(16)
O1 O 0.2392(4) 0.2500(3) 0.5599(2)
O2 O 0.0510(4) 0.4569(3) 0.6527(2)
O3 O 0.0451(3) 0.2880(3) 1.1583(2)
O4 O -0.2399(3) -0.0312(3) 0.6356(2)
O5 O -0.1111(3) 0.1997(3) 0.4793(2)
O6 O 0.5042(4) 0.2972(3) 0.0940(2)
O7 O 0.6561(4) 0.4008(3) -0.1312(2)
O8 O 0.6035(4) 0.2641(3) 0.3251(2)
H2 H 0.6222 0.2481 0.4041
H3 H 0.7306 0.2570 0.2731
O9 O 0.3850(4) 0.5701(3) 0.3909(2)
H4 H 0.2943 0.6415 0.4240
H5 H 0.4918 0.6304 0.3374
C1 C 0.1519(5) 0.3224(4) 0.6598(3)
C2 C 0.1759(5) 0.2377(4) 0.7986(3)
C3 C 0.2762(5) 0.0835(4) 0.8073(3)
H6 H 0.3759 0.0207 0.7382
C4 C 0.2122(5) 0.0661(4) 1.0482(3)
H7 H 0.2312 0.0080 1.1334
C5 C 0.1145(5) 0.2240(4) 1.0464(3)
C6 C 0.0973(5) 0.3081(4) 0.9163(3)
H8 H 0.0714 0.4048 0.9137
C7 C -0.1015(5) 0.0479(4) 0.5338(3)
C8 C 0.5472(5) 0.4134(4) -0.0121(3)
N1A N -0.2890(4) -0.0039(3) 0.0683(3)
H1A H -0.3599 0.0938 0.0716
Nd1A Nd -0.22953(2) -0.341387(19) 0.682753(16)
Nd1_2 Nd 0.22953(2) -0.658613(19) 0.317247(16)
Nd1_3 Nd 0.22953(2) 0.341387(19) 1.317247(16)
Nd1A_2 Nd -0.22953(2) -0.341387(19) -0.317247(16)
Nd1A_3 Nd -0.22953(2) 0.658613(19) 0.682753(16)
Nd1A_4 Nd 0.77047(2) 0.658613(19) -0.317247(16)
O1A O -0.2392(4) -0.2500(3) 0.4401(2)
O2A O -0.0510(4) -0.4569(3) 0.3473(2)
O2_2 O 0.0510(4) -0.5431(3) 0.6527(2)
O2A_2 O -0.0510(4) 0.5431(3) 0.3473(2)
O3A O -0.0451(3) -0.2880(3) -0.1583(2)
O3_2 O 0.0451(3) 0.2880(3) 0.1583(2)
O3A_2 O -0.0451(3) -0.2880(3) 0.8417(2)
O4A O 0.2399(3) 0.0312(3) 0.3644(2)
O5A O 0.1111(3) -0.1997(3) 0.5207(2)
O6A O 0.4958(4) 0.7028(3) -0.0940(2)
O6A_2 O -0.5042(4) -0.2972(3) 0.9060(2)
O7A O 0.3439(4) 0.5992(3) 0.1312(2)
O7_2 O -0.3439(4) -0.5992(3) 0.8688(2)
O8A O -0.6035(4) -0.2641(3) 0.6749(2)
H2A H -0.6222 -0.2481 0.5959
H3A H -0.7306 -0.2570 0.7269
O9A O -0.3850(4) -0.5701(3) 0.6091(2)
H4A H -0.2943 -0.6415 0.5760
H5A H -0.4918 -0.6304 0.6626
C1A C -0.1519(5) -0.3224(4) 0.3402(3)
C2A C -0.1759(5) -0.2377(4) 0.2014(3)
C3A C -0.2762(5) -0.0835(4) 0.1927(3)
H6A H -0.3759 -0.0207 0.2618
C4A C -0.2122(5) -0.0661(4) -0.0482(3)
H7A H -0.2312 -0.0080 -0.1334
C5A C -0.1145(5) -0.2240(4) -0.0464(3)
C6A C -0.0973(5) -0.3081(4) 0.0837(3)
H8A H -0.0714 -0.4048 0.0863
C7A C 0.1015(5) -0.0479(4) 0.4662(3)
C8A C 0.4528(5) 0.5866(4) 0.0121(3)
loop_
_geom_bond_atom_site_label_1
_geom_bond_atom_site_label_2
_geom_bond_site_symmetry_1
_geom_bond_site_symmetry_2
N1 H1 1_555 1_555
Nd1 O1 1_555 1_555
O1 C1 1_555 1_555
O2 C1 1_555 1_555
O3 C5 1_555 1_555
O4 C7 1_555 1_555
O5 Nd1 1_555 1_555
O6 Nd1 1_555 1_555
O7 C8 1_555 1_555
O8 Nd1 1_555 1_555
H2 O8 1_555 1_555
H3 O8 1_555 1_555
O9 Nd1 1_555 1_555
H4 O9 1_555 1_555
H5 O9 1_555 1_555
C1 C2 1_555 1_555
C2 C3 1_555 1_555
C3 N1 1_555 1_555
H6 C3 1_555 1_555
C4 N1 1_555 1_555
H7 C4 1_555 1_555
C5 C4 1_555 1_555
C6 C2 1_555 1_555
H8 C6 1_555 1_555
C7 O5 1_555 1_555
C8 O6 1_555 1_555
N1A H1A 1_555 1_555
Nd1A O4 1_555 1_555
Nd1_2 O2A 1_555 1_555
Nd1_3 O3 1_555 1_555
Nd1A_2 O3A 1_555 1_555
Nd1A_3 O2 1_555 1_555
Nd1A_4 O7 1_555 1_555
O1A Nd1A 1_555 1_555
O2A C1A 1_555 1_555
O2_2 Nd1A 1_555 1_555
O2A_2 Nd1 1_555 1_555
O3A C5A 1_555 1_555
O3_2 Nd1 1_555 1_555
O3A_2 Nd1A 1_555 1_555
O4A Nd1 1_555 1_555
O5A Nd1A 1_555 1_555
O6A Nd1A_4 1_555 1_555
O6A_2 Nd1A 1_555 1_555
O7A Nd1 1_555 1_555
O7_2 Nd1A 1_555 1_555
O8A Nd1A 1_555 1_555
H2A O8A 1_555 1_555
H3A O8A 1_555 1_555
O9A Nd1A 1_555 1_555
H4A O9A 1_555 1_555
H5A O9A 1_555 1_555
C1A O1A 1_555 1_555
C2A C1A 1_555 1_555
C3A N1A 1_555 1_555
H6A C3A 1_555 1_555
C4A N1A 1_555 1_555
H7A C4A 1_555 1_555
C5A C4A 1_555 1_555
C6A C2A 1_555 1_555
H8A C6A 1_555 1_555
C7A C7 1_555 1_555
C8A C8 1_555 1_555
C5 C6 1_555 1_555
O4A C7A 1_555 1_555
O5A C7A 1_555 1_555
O6A C8A 1_555 1_555
O7A C8A 1_555 1_555
C2A C3A 1_555 1_555
C5A C6A 1_555 1_555

#END
