
#######################################################################
#
#                 Cambridge Crystallographic Data Centre
#                                CCDC 
#
#######################################################################
#
# If this CIF has been generated from an entry in the Cambridge 
# Structural Database, then it will include bibliographic, chemical, 
# crystal, experimental, refinement or atomic coordinate data resulting 
# from the CCDC's data processing and validation procedures.
#
#######################################################################

data_HAWKIB
_symmetry_cell_setting           triclinic
_symmetry_space_group_name_H-M   'P -1'
_symmetry_Int_Tables_number      2
_space_group_name_Hall           '-P 1'
loop_
_symmetry_equiv_pos_site_id
_symmetry_equiv_pos_as_xyz
1 x,y,z
2 -x,-y,-z
_cell_length_a                   7.7638(14)
_cell_length_b                   8.0386(14)
_cell_length_c                   9.4893(16)
_cell_angle_alpha                110.801(2)
_cell_angle_beta                 96.983(3)
_cell_angle_gamma                95.683(3)
_cell_volume                     543.028
loop_
_atom_site_label
_atom_site_type_symbol
_atom_site_fract_x
_atom_site_fract_y
_atom_site_fract_z
C1 C -0.3072(5) -0.2118(5) -0.3733(4)
C2 C -0.2262(5) -0.0467(5) -0.2359(4)
C3 C -0.2957(5) 0.0059(5) -0.1005(4)
H1 H -0.4006 -0.0618 -0.0954
C4 C -0.2136(5) 0.1571(5) 0.0291(4)
C5 C -0.0613(5) 0.2517(5) 0.0111(4)
H2 H -0.0013 0.3556 0.0942
C6 C -0.0745(5) 0.0547(5) -0.2448(4)
H3 H -0.0261 0.0227 -0.3364
C7 C -1.0465(5) -0.5449(5) -0.4505(4)
C8 C -0.5811(5) -0.5695(5) -0.0110(4)
Er1 Er -0.648270(19) -0.470620(19) -0.302750(17)
H4 H 0.099(7) 0.258(7) -0.137(6)
H5 H -0.479(7) -0.772(8) -0.320(6)
H6 H -0.372(7) -0.666(7) -0.365(6)
N1 N 0.0015(4) 0.1985(4) -0.1212(4)
O1 O -0.4360(3) -0.3125(3) -0.3629(3)
O2 O -0.2389(3) -0.2439(4) -0.4916(3)
O3 O -0.2766(3) 0.2071(3) 0.1565(3)
O4 O -0.9590(3) -0.5453(4) -0.3329(3)
O5 O -1.2077(3) -0.6068(3) -0.4995(3)
O6 O -0.7038(3) -0.5873(4) -0.1195(3)
O7 O -0.5814(3) -0.6517(4) 0.0766(3)
O8 O -0.4356(4) -0.6729(4) -0.3103(3)
C1A C -0.6928(5) -0.7882(5) -0.6267(4)
C2A C -0.7738(5) -0.9533(5) -0.7641(4)
C3A C -0.7043(5) -1.0059(5) -0.8995(4)
H1A H -0.5994 -0.9382 -0.9046
C4A C -0.7864(5) -1.1571(5) -1.0291(4)
C5A C -0.9387(5) -1.2517(5) -1.0111(4)
H2A H -0.9987 -1.3556 -1.0942
C6A C -0.9255(5) -1.0547(5) -0.7552(4)
H3A H -0.9739 -1.0227 -0.6636
C7A C -0.9535(5) -0.4551(5) -0.5495(4)
C8A C -0.4189(5) -0.4305(5) 0.0110(4)
Er1A Er -0.351730(19) 0.470620(19) 0.302750(17)
Er1A_2 Er -1.351730(19) -0.529380(19) -0.697250(17)
Er1A_3 Er -0.351730(19) -0.529380(19) 0.302750(17)
Er1A_4 Er -0.351730(19) -0.529380(19) -0.697250(17)
Er1_2 Er -0.648270(19) -1.470620(19) -1.302750(17)
H4A H -1.099(7) -1.258(7) -0.863(6)
H5A H -0.521(7) -0.228(8) 0.320(6)
H6A H -0.628(7) -0.334(7) 0.365(6)
N1A N -1.0015(4) -1.1985(4) -0.8788(4)
O1A O -0.5640(3) -0.6875(3) -0.6371(3)
O1A_2 O -0.5640(3) -0.6875(3) 0.3629(3)
O2A O -0.7611(3) -0.7561(4) -0.5084(3)
O2_2 O -0.2389(3) -0.2439(4) 0.5084(3)
O3A O -0.7234(3) -0.2071(3) -0.1565(3)
O3A_2 O -0.7234(3) -1.2071(3) -1.1565(3)
O3_2 O -0.2766(3) -0.7929(3) 0.1565(3)
O4A O -1.0410(3) -0.4547(4) -0.6671(3)
O4A_2 O -0.0410(3) -0.4547(4) 0.3329(3)
O5A O -0.7923(3) -0.3932(3) -0.5005(3)
O5_2 O -0.2077(3) -0.6068(3) 0.5005(3)
O6A O -0.2962(3) -0.4127(4) 0.1195(3)
O7A O -0.4186(3) -0.3483(4) -0.0766(3)
O8A O -0.5644(4) -0.3271(4) 0.3103(3)
H7 H -0.661(9) -0.040(10) -0.292(8)
H8 H -0.711(14) -0.010(14) -0.399(13)
O9 O -0.6474(6) 0.0146(5) -0.3337(6)
loop_
_geom_bond_atom_site_label_1
_geom_bond_atom_site_label_2
_geom_bond_site_symmetry_1
_geom_bond_site_symmetry_2
C1 C2 1_555 1_555
C2 C3 1_555 1_555
C3 H1 1_555 1_555
C4 C3 1_555 1_555
C5 C4 1_555 1_555
H2 C5 1_555 1_555
C6 C2 1_555 1_555
H3 C6 1_555 1_555
C7 O4 1_555 1_555
C8 O6 1_555 1_555
Er1 O1 1_555 1_555
H4 N1 1_555 1_555
H5 O8 1_555 1_555
H6 O8 1_555 1_555
H7 O9 1_555 1_555
H8 O9 1_555 1_555
N1 C5 1_555 1_555
O1 C1 1_555 1_555
O2 C1 1_555 1_555
O3 C4 1_555 1_555
O4 Er1 1_555 1_555
O5 C7 1_555 1_555
O6 Er1 1_555 1_555
O7 C8 1_555 1_555
O8 Er1 1_555 1_555
C1A C2A 1_555 1_555
C2A C3A 1_555 1_555
C3A H1A 1_555 1_555
C4A C3A 1_555 1_555
C5A C4A 1_555 1_555
H2A C5A 1_555 1_555
C6A C2A 1_555 1_555
H3A C6A 1_555 1_555
C7A C7 1_555 1_555
C8A C8 1_555 1_555
Er1A O3 1_555 1_555
Er1A_2 O5 1_555 1_555
Er1A_3 O7 1_555 1_555
Er1A_4 O2 1_555 1_555
Er1_2 O3A_2 1_555 1_555
H4A N1A 1_555 1_555
H5A O8A 1_555 1_555
H6A O8A 1_555 1_555
N1A C5A 1_555 1_555
O1A C1A 1_555 1_555
O1A_2 Er1A_3 1_555 1_555
O2A Er1 1_555 1_555
O2_2 Er1A_3 1_555 1_555
O3A Er1 1_555 1_555
O3A_2 C4A 1_555 1_555
O3_2 Er1A_3 1_555 1_555
O4A C7A 1_555 1_555
O4A_2 Er1A_3 1_555 1_555
O5A Er1 1_555 1_555
O5_2 Er1A_3 1_555 1_555
O6A C8A 1_555 1_555
O7A Er1 1_555 1_555
O8A Er1A_3 1_555 1_555
C6 N1 1_555 1_555
C1A O2A 1_555 1_555
C6A N1A 1_555 1_555
C7A O5A 1_555 1_555
C8A O7A 1_555 1_555
Er1A_2 O4A 1_555 1_555
Er1A_3 O6A 1_555 1_555
Er1A_4 O1A 1_555 1_555

#END
