
#######################################################################
#
#                 Cambridge Crystallographic Data Centre
#                                CCDC 
#
#######################################################################
#
# If this CIF has been generated from an entry in the Cambridge 
# Structural Database, then it will include bibliographic, chemical, 
# crystal, experimental, refinement or atomic coordinate data resulting 
# from the CCDC's data processing and validation procedures.
#
#######################################################################

data_HAWNIC
_symmetry_cell_setting           monoclinic
_symmetry_space_group_name_H-M   'P 21/a'
_symmetry_Int_Tables_number      14
_space_group_name_Hall           '-P 2yab'
loop_
_symmetry_equiv_pos_site_id
_symmetry_equiv_pos_as_xyz
1 x,y,z
2 1/2-x,1/2+y,-z
3 -x,-y,-z
4 1/2+x,1/2-y,z
_cell_length_a                   12.842
_cell_length_b                   11.170
_cell_length_c                   13.984
_cell_angle_alpha                90
_cell_angle_beta                 102.11
_cell_angle_gamma                90
_cell_volume                     1961.3
loop_
_atom_site_label
_atom_site_type_symbol
_atom_site_fract_x
_atom_site_fract_y
_atom_site_fract_z
Nd1 Nd 0.35129(7) 0.2949(1) 0.23045(8)
O1 O 0.370(1) 0.102(1) 0.152(1)
O2 O 0.374(1) -0.024(1) 0.032(1)
O3 O 0.365(1) 0.487(1) 0.1444(9)
O4 O 0.371(1) 0.599(2) 0.018(1)
O5 O 0.7164(9) 0.332(1) 0.2817(9)
O6 O 0.5471(9) 0.280(1) 0.2271(9)
O7 O 0.283(1) 0.428(1) 0.343(1)
O8 O 0.282(1) 0.605(2) 0.420(1)
N1 N 0.369(1) 0.295(2) 0.055(1)
N2 N 0.480(1) 0.450(1) 0.331(1)
C1 C 0.367(3) 0.187(3) 0.013(3)
C2 C 0.365(2) 0.183(2) -0.092(2)
C3 C 0.367(2) 0.284(3) -0.142(2)
C4 C 0.362(2) 0.395(3) -0.105(3)
C5 C 0.362(1) 0.395(2) -0.003(2)
C6 C 0.585(1) 0.450(2) 0.325(1)
C7 C 0.652(1) 0.541(2) 0.362(2)
C8 C 0.605(1) 0.643(2) 0.400(2)
C9 C 0.500(2) 0.639(2) 0.407(2)
C10 C 0.441(1) 0.538(2) 0.373(1)
C11 C 0.372(2) 0.070(2) 0.073(2)
C12 C 0.366(2) 0.504(2) 0.064(2)
C13 C 0.620(1) 0.347(2) 0.274(1)
C14 C 0.327(2) 0.524(2) 0.379(2)
O9 O 0.436(1) 0.182(1) 0.377(1)
O10 O 0.174(1) 0.380(1) 0.163(1)
O5C O 0.2164(9) 0.168(1) 0.2817(9)
Nd1C Nd 0.85129(7) 0.2051(1) 0.23045(8)
O11 O 0.1500(9) 0.308(1) 0.460(1)
O12 O 0.100(1) 0.557(1) 0.471(1)
O13 O 0.385(1) 0.775(2) 0.127(2)
O14 O 0.412(2) -0.093(2) 0.300(2)
loop_
_geom_bond_atom_site_label_1
_geom_bond_atom_site_label_2
_geom_bond_site_symmetry_1
_geom_bond_site_symmetry_2
Nd1 O1 1_555 1_555
O1 C11 1_555 1_555
O2 C11 1_555 1_555
O3 Nd1 1_555 1_555
O4 C12 1_555 1_555
O5 C13 1_555 1_555
O6 Nd1 1_555 1_555
O7 Nd1 1_555 1_555
O8 C14 1_555 1_555
N1 Nd1 1_555 1_555
N2 Nd1 1_555 1_555
C1 N1 1_555 1_555
C2 C1 1_555 1_555
C3 C2 1_555 1_555
C4 C3 1_555 1_555
C5 N1 1_555 1_555
C6 N2 1_555 1_555
C7 C6 1_555 1_555
C8 C7 1_555 1_555
C9 C8 1_555 1_555
C10 N2 1_555 1_555
C11 C1 1_555 1_555
C12 O3 1_555 1_555
C13 O6 1_555 1_555
C14 O7 1_555 1_555
O9 Nd1 1_555 1_555
O10 Nd1 1_555 1_555
O5C Nd1 1_555 1_555
Nd1C O5 1_555 1_555
C4 C5 1_555 1_555
C5 C12 1_555 1_555
C6 C13 1_555 1_555
C9 C10 1_555 1_555
C10 C14 1_555 1_555

#END
