
#######################################################################
#
#                 Cambridge Crystallographic Data Centre
#                                CCDC 
#
#######################################################################
#
# If this CIF has been generated from an entry in the Cambridge 
# Structural Database, then it will include bibliographic, chemical, 
# crystal, experimental, refinement or atomic coordinate data resulting 
# from the CCDC's data processing and validation procedures.
#
#######################################################################

data_HAWPAX
_symmetry_cell_setting           rhombohedral
_symmetry_space_group_name_H-M   'R -3'
_symmetry_Int_Tables_number      148
_space_group_name_Hall           '-R 3'
loop_
_symmetry_equiv_pos_site_id
_symmetry_equiv_pos_as_xyz
1 x,y,z
2 -y,x-y,z
3 -x+y,-x,z
4 2/3+x,1/3+y,1/3+z
5 2/3-y,1/3+x-y,1/3+z
6 2/3-x+y,1/3-x,1/3+z
7 1/3+x,2/3+y,2/3+z
8 1/3-y,2/3+x-y,2/3+z
9 1/3-x+y,2/3-x,2/3+z
10 -x,-y,-z
11 y,-x+y,-z
12 x-y,x,-z
13 1/3-x,2/3-y,2/3-z
14 1/3+y,2/3-x+y,2/3-z
15 1/3+x-y,2/3+x,2/3-z
16 2/3-x,1/3-y,1/3-z
17 2/3+y,1/3-x+y,1/3-z
18 2/3+x-y,1/3+x,1/3-z
_cell_length_a                   15.3547(17)
_cell_length_b                   15.3547(17)
_cell_length_c                   25.539(5)
_cell_angle_alpha                90
_cell_angle_beta                 90
_cell_angle_gamma                120.0000
_cell_volume                     5214.55
loop_
_atom_site_label
_atom_site_type_symbol
_atom_site_fract_x
_atom_site_fract_y
_atom_site_fract_z
I1 I 1.262140(10) 0.776480(10) 0.095220(10)
Cu1 Cu 1.14410(3) 0.58963(3) 0.13644(2)
N1 N 1.00353(18) 0.53367(18) 0.10337(10)
C1 C 0.76831(19) 0.3588(2) 0.20809(12)
C2 C 0.6917(2) 0.2571(2) 0.20800(12)
C3 C 0.7187(2) 0.1742(2) 0.21324(12)
C4 C 0.7209(2) 0.1452(2) 0.27042(14)
C5 C 0.8789(2) 0.3853(2) 0.20977(12)
C6 C 0.9254(2) 0.3798(2) 0.15739(12)
C7 C 0.9219(2) 0.4427(2) 0.11368(12)
C8 C 0.8355(2) 0.4063(2) 0.08304(14)
C9 C 0.8324(2) 0.4621(2) 0.04167(14)
C10 C 0.9144(2) 0.5551(2) 0.03170(14)
C11 C 0.9974(2) 0.5878(2) 0.06332(12)
H1 H 0.6701 0.1163 0.1949
H2 H 0.7832 0.1970 0.1982
H3 H 0.7866 0.1862 0.2842
H4 H 0.7029 0.0765 0.2728
H5 H 0.6744 0.1560 0.2899
H6 H 0.9170 0.4525 0.2221
H7 H 0.8838 0.3410 0.2340
H8 H 0.9941 0.4005 0.1635
H9 H 0.8908 0.3115 0.1464
H10 H 0.7790 0.3424 0.0907
H11 H 0.7744 0.4363 0.0201
H12 H 0.9136 0.5958 0.0039
H13 H 1.0539 0.6523 0.0567
I1A I 1.223520(10) 0.485660(14) 0.095220(10)
I1Q I 1.152327(14) 0.595473(10) 0.238113(10)
I1B I 1.514340(14) 0.737860(10) 0.095220(10)
I1O I 1.404527(10) 0.556853(10) 0.238113(10)
Cu1A Cu 1.41037(3) 0.55447(4) 0.13644(2)
Cu1Q Cu 1.22114(4) 0.47743(3) 0.19689(2)
Cu1B Cu 1.44553(4) 0.85590(3) 0.13644(2)
Cu1P Cu 1.25630(3) 0.77886(4) 0.19689(2)
Cu1A_2 Cu 0.41037(3) 0.55447(4) 0.13644(2)
Cu1B_2 Cu 0.44553(4) -0.14410(3) 0.13644(2)
N1A N 0.46633(18) 0.46986(25) 0.10337(10)
N1B N 0.53014(25) -0.00353(18) 0.10337(10)
N1A_2 N 1.46633(18) 0.46986(25) 0.10337(10)
N1Q N 1.13653(25) 0.33686(18) 0.22996(10)
C1B C 0.59049(28) 0.23169(19) 0.20809(12)
C1A C 0.6412(2) 0.40951(28) 0.20809(12)
C2B C 0.5654(3) 0.3083(2) 0.20800(12)
C2A C 0.7429(2) 0.4346(3) 0.20800(12)
C3A C 0.8258(2) 0.5445(3) 0.21324(12)
C3B C 0.4555(3) 0.2813(2) 0.21324(12)
C4A C 0.8548(2) 0.5757(3) 0.27042(14)
C4B C 0.4243(3) 0.2791(2) 0.27042(14)
C5A C 0.6147(2) 0.4936(3) 0.20977(12)
C5B C 0.5064(3) 0.1211(2) 0.20977(12)
C6A C 0.6202(2) 0.5456(3) 0.15739(12)
C6B C 0.4544(3) 0.0746(2) 0.15739(12)
C7A C 0.5573(2) 0.4792(3) 0.11368(12)
C7B C 0.5208(3) 0.0781(2) 0.11368(12)
C8A C 0.5937(2) 0.4292(3) 0.08304(14)
C8B C 0.5708(3) 0.1645(2) 0.08304(14)
C9A C 0.5379(2) 0.3703(3) 0.04167(14)
C9B C 0.6297(3) 0.1676(2) 0.04167(14)
C10A C 0.4449(2) 0.3593(3) 0.03170(14)
C10B C 0.6407(3) 0.0856(2) 0.03170(14)
C11A C 0.4122(2) 0.4096(3) 0.06332(12)
C11B C 0.5904(3) 0.0026(2) 0.06332(12)
H1A H 0.8837 0.5538 0.1949
H1B H 0.4462 0.3299 0.1949
H2A H 0.8030 0.5862 0.1982
H2B H 0.4138 0.2168 0.1982
H3A H 0.8138 0.6004 0.2842
H3B H 0.3996 0.2134 0.2842
H4A H 0.9235 0.6264 0.2728
H4B H 0.3736 0.2971 0.2728
H5A H 0.8440 0.5184 0.2899
H5B H 0.4816 0.3256 0.2899
H6A H 0.5475 0.4645 0.2221
H6B H 0.5355 0.0830 0.2221
H7A H 0.6590 0.5428 0.2340
H7B H 0.4572 0.1162 0.2340
H8A H 0.5995 0.5936 0.1635
H8B H 0.4064 0.0059 0.1635
H9A H 0.6885 0.5793 0.1464
H9B H 0.4207 0.1092 0.1464
H10A H 0.6576 0.4366 0.0907
H10B H 0.5634 0.2210 0.0907
H11A H 0.5637 0.3381 0.0201
H11B H 0.6619 0.2256 0.0201
H12A H 0.4042 0.3178 0.0039
H12B H 0.6822 0.0864 0.0039
H13A H 0.3477 0.4016 0.0567
H13B H 0.5984 -0.0539 0.0567
loop_
_geom_bond_atom_site_label_1
_geom_bond_atom_site_label_2
_geom_bond_site_symmetry_1
_geom_bond_site_symmetry_2
I1 Cu1 1_555 1_555
Cu1 N1 1_555 1_555
N1 C7 1_555 1_555
C1 C2 1_555 1_555
C2 C3 1_555 1_555
C3 C4 1_555 1_555
C4 H3 1_555 1_555
C5 C1 1_555 1_555
C6 C5 1_555 1_555
C7 C6 1_555 1_555
C8 C7 1_555 1_555
C9 C8 1_555 1_555
C10 C9 1_555 1_555
C11 N1 1_555 1_555
H1 C3 1_555 1_555
H2 C3 1_555 1_555
H4 C4 1_555 1_555
H5 C4 1_555 1_555
H6 C5 1_555 1_555
H7 C5 1_555 1_555
H8 C6 1_555 1_555
H9 C6 1_555 1_555
H10 C8 1_555 1_555
H11 C9 1_555 1_555
H12 C10 1_555 1_555
H13 C11 1_555 1_555
I1A Cu1 1_555 1_555
I1Q Cu1 1_555 1_555
I1B Cu1A 1_555 1_555
I1O Cu1A 1_555 1_555
Cu1A I1A 1_555 1_555
Cu1Q I1A 1_555 1_555
Cu1B I1 1_555 1_555
Cu1P I1 1_555 1_555
Cu1A_2 N1A 1_555 1_555
Cu1B_2 N1B 1_555 1_555
N1A C7A 1_555 1_555
N1B C7B 1_555 1_555
N1A_2 Cu1A 1_555 1_555
N1Q Cu1Q 1_555 1_555
C1B C2 1_555 1_555
C1A C2B 1_555 1_555
C2B C1B 1_555 1_555
C2A C1 1_555 1_555
C3A C2A 1_555 1_555
C3B C2B 1_555 1_555
C4A C3A 1_555 1_555
C4B C3B 1_555 1_555
C5A C1A 1_555 1_555
C5B C1B 1_555 1_555
C6A C5A 1_555 1_555
C6B C5B 1_555 1_555
C7A C6A 1_555 1_555
C7B C6B 1_555 1_555
C8A C7A 1_555 1_555
C8B C7B 1_555 1_555
C9A C8A 1_555 1_555
C9B C8B 1_555 1_555
C10A C9A 1_555 1_555
C10B C9B 1_555 1_555
C11A N1A 1_555 1_555
C11B N1B 1_555 1_555
H1A C3A 1_555 1_555
H1B C3B 1_555 1_555
H2A C3A 1_555 1_555
H2B C3B 1_555 1_555
H3A C4A 1_555 1_555
H3B C4B 1_555 1_555
H4A C4A 1_555 1_555
H4B C4B 1_555 1_555
H5A C4A 1_555 1_555
H5B C4B 1_555 1_555
H6A C5A 1_555 1_555
H6B C5B 1_555 1_555
H7A C5A 1_555 1_555
H7B C5B 1_555 1_555
H8A C6A 1_555 1_555
H8B C6B 1_555 1_555
H9A C6A 1_555 1_555
H9B C6B 1_555 1_555
H10A C8A 1_555 1_555
H10B C8B 1_555 1_555
H11A C9A 1_555 1_555
H11B C9B 1_555 1_555
H12A C10A 1_555 1_555
H12B C10B 1_555 1_555
H13A C11A 1_555 1_555
H13B C11B 1_555 1_555
C10 C11 1_555 1_555
I1Q Cu1Q 1_555 1_555
I1Q Cu1P 1_555 1_555
I1B Cu1B 1_555 1_555
I1O Cu1Q 1_555 1_555
C1A C2A 1_555 1_555
C10A C11A 1_555 1_555
C10B C11B 1_555 1_555

#END
