
#######################################################################
#
#                 Cambridge Crystallographic Data Centre
#                                CCDC 
#
#######################################################################
#
# If this CIF has been generated from an entry in the Cambridge 
# Structural Database, then it will include bibliographic, chemical, 
# crystal, experimental, refinement or atomic coordinate data resulting 
# from the CCDC's data processing and validation procedures.
#
#######################################################################

data_HAWVOQ05
_symmetry_cell_setting           monoclinic
_symmetry_space_group_name_H-M   'P 21/n'
_symmetry_Int_Tables_number      14
_space_group_name_Hall           '-P 2yn'
loop_
_symmetry_equiv_pos_site_id
_symmetry_equiv_pos_as_xyz
1 x,y,z
2 1/2-x,1/2+y,1/2-z
3 -x,-y,-z
4 1/2+x,1/2-y,1/2+z
_cell_length_a                   7.39758(17)
_cell_length_b                   6.88612(11)
_cell_length_c                   5.62799(9)
_cell_angle_alpha                90
_cell_angle_beta                 94.9603(14)
_cell_angle_gamma                90
_cell_volume                     285.62
loop_
_atom_site_label
_atom_site_type_symbol
_atom_site_fract_x
_atom_site_fract_y
_atom_site_fract_z
Co1 Co 0.500 0.000 0.000
N1 N 0.32697(9) 0.1080(3) 0.2288(3)
N2 N 0.03260(7) 0.22141(16) 0.3533(2)
N3 N -0.26277(10) 0.0705(2) 0.2245(4)
C1 C 0.18939(7) 0.1599(2) 0.2858(2)
C2 C -0.12437(7) 0.13911(15) 0.2833(3)
N1B N -0.32697(9) -0.1080(3) -0.2288(3)
N2B N -0.03260(7) -0.22141(16) -0.3533(2)
N3B N 0.26277(10) -0.0705(2) -0.2245(4)
C1B C -0.18939(7) -0.1599(2) -0.2858(2)
C2B C 0.12437(7) -0.13911(15) -0.2833(3)
Co1_2 Co -0.500 0.000 0.000
Co1A Co 0.000 -0.500 -0.500
Co1A_2 Co 0.000 0.500 0.500
N1B_2 N 0.67303(9) -0.1080(3) -0.2288(3)
N2A N 0.46740(7) -0.27859(16) 0.1467(2)
N2C N 0.53260(7) 0.27859(16) -0.1467(2)
N3_2 N 0.73723(10) 0.0705(2) 0.2245(4)
loop_
_geom_bond_atom_site_label_1
_geom_bond_atom_site_label_2
_geom_bond_site_symmetry_1
_geom_bond_site_symmetry_2
Co1 N1 1_555 1_555
N1 C1 1_555 1_555
N2 C1 1_555 1_555
N3 C2 1_555 1_555
C2 N2 1_555 1_555
N1B C1B 1_555 1_555
N2B C1B 1_555 1_555
N3B Co1 1_555 1_555
C2B N2B 1_555 1_555
Co1_2 N3 1_555 1_555
Co1A N2B 1_555 1_555
Co1A_2 N2 1_555 1_555
N1B_2 Co1 1_555 1_555
N2A Co1 1_555 1_555
N2C Co1 1_555 1_555
N3_2 Co1 1_555 1_555
N1B Co1_2 1_555 1_555
N3B C2B 1_555 1_555

#END
