
#######################################################################
#
#                 Cambridge Crystallographic Data Centre
#                                CCDC 
#
#######################################################################
#
# If this CIF has been generated from an entry in the Cambridge 
# Structural Database, then it will include bibliographic, chemical, 
# crystal, experimental, refinement or atomic coordinate data resulting 
# from the CCDC's data processing and validation procedures.
#
#######################################################################

data_HAWVOQ02
_symmetry_cell_setting           orthorhombic
_symmetry_space_group_name_H-M   'P m n n'
_symmetry_Int_Tables_number      58
_space_group_name_Hall           '-P 2n 2'
loop_
_symmetry_equiv_pos_site_id
_symmetry_equiv_pos_as_xyz
1 x,y,z
2 1/2-x,1/2-y,1/2+z
3 1/2-x,1/2+y,1/2-z
4 x,-y,-z
5 -x,-y,-z
6 1/2+x,1/2+y,1/2-z
7 1/2+x,1/2-y,1/2+z
8 -x,y,z
_cell_length_a                   7.39674(15)
_cell_length_b                   7.07368(10)
_cell_length_c                   5.87615(8)
_cell_angle_alpha                90
_cell_angle_beta                 90
_cell_angle_gamma                90
_cell_volume                     307.453
loop_
_atom_site_label
_atom_site_type_symbol
_atom_site_fract_x
_atom_site_fract_y
_atom_site_fract_z
Co1 Co 0.500 0.000 0.000
N1 N 0.30091(9) 0.0972(2) -0.2159(3)
N2 N 0.000 0.2192(2) -0.3234(3)
C1 C 0.15930(7) 0.15013(17) -0.2653(3)
N1G N -0.30091(9) 0.0972(2) -0.2159(3)
C1G C -0.15930(7) 0.15013(17) -0.2653(3)
N1C N 0.30091(9) -0.0972(2) 0.2159(3)
N2C N 0.000 -0.2192(2) 0.3234(3)
C1C C 0.15930(7) -0.15013(17) 0.2653(3)
N1D N -0.30091(9) -0.0972(2) 0.2159(3)
C1D C -0.15930(7) -0.15013(17) 0.2653(3)
Co1_2 Co -0.500 0.000 0.000
Co1A Co 0.000 -0.500 0.500
Co1A_2 Co 0.000 0.500 -0.500
N1D_2 N 0.69909(9) -0.0972(2) 0.2159(3)
N1G_2 N 0.69909(9) 0.0972(2) -0.2159(3)
N2A N 0.500 0.2808(2) 0.1766(3)
N2B N 0.500 -0.2808(2) -0.1766(3)
loop_
_geom_bond_atom_site_label_1
_geom_bond_atom_site_label_2
_geom_bond_site_symmetry_1
_geom_bond_site_symmetry_2
Co1 N1 1_555 1_555
N1 C1 1_555 1_555
N2 C1 1_555 1_555
N1G C1G 1_555 1_555
C1G N2 1_555 1_555
N1C Co1 1_555 1_555
N2C C1C 1_555 1_555
C1C N1C 1_555 1_555
N1D C1D 1_555 1_555
C1D N2C 1_555 1_555
Co1_2 N1G 1_555 1_555
Co1A N2C 1_555 1_555
Co1A_2 N2 1_555 1_555
N1D_2 Co1 1_555 1_555
N1G_2 Co1 1_555 1_555
N2A Co1 1_555 1_555
N2B Co1 1_555 1_555
N1D Co1_2 1_555 1_555

#END
