
#######################################################################
#
#                 Cambridge Crystallographic Data Centre
#                                CCDC 
#
#######################################################################
#
# If this CIF has been generated from an entry in the Cambridge 
# Structural Database, then it will include bibliographic, chemical, 
# crystal, experimental, refinement or atomic coordinate data resulting 
# from the CCDC's data processing and validation procedures.
#
#######################################################################

data_HAWVOR
_symmetry_cell_setting           triclinic
_symmetry_space_group_name_H-M   'P -1'
_symmetry_Int_Tables_number      2
_space_group_name_Hall           '-P 1'
loop_
_symmetry_equiv_pos_site_id
_symmetry_equiv_pos_as_xyz
1 x,y,z
2 -x,-y,-z
_cell_length_a                   18.336(4)
_cell_length_b                   18.817(4)
_cell_length_c                   19.086(4)
_cell_angle_alpha                119.535(3)
_cell_angle_beta                 115.848(5)
_cell_angle_gamma                90.000(5)
_cell_volume                     4958.24
loop_
_atom_site_label
_atom_site_type_symbol
_atom_site_fract_x
_atom_site_fract_y
_atom_site_fract_z
Mn1 Mn 0.53024(5) -0.02851(6) 0.91381(6)
Mn2 Mn 0.68802(6) 0.00411(6) 1.12736(7)
Mn3 Mn 0.74993(6) 0.03406(6) 0.99991(7)
Mn4 Mn 0.81202(6) -0.12316(6) 0.87270(7)
Mn5 Mn 0.96981(6) 0.05796(6) 1.08618(6)
O1 O 0.6551(2) 0.0450(2) 1.0367(3)
O2 O 0.8453(2) 0.0077(2) 0.9630(3)
O3 O 0.5137(2) -0.0724(2) 0.9957(3)
O4 O 0.6150(2) -0.1207(3) 1.0598(3)
O5 O 0.2673(3) -0.0799(3) 0.7283(3)
O6 O 0.3968(2) -0.0767(3) 0.8097(3)
O7 O 0.5483(3) 0.0362(3) 0.8588(3)
O8 O 0.6824(3) 0.0603(3) 0.8964(3)
O9 O 0.7923(2) -0.0085(3) 1.1037(3)
O10 O 0.9276(2) 0.0042(3) 1.1432(3)
O11 O 0.5724(2) -0.1388(2) 0.8567(3)
O12 O 0.7072(2) -0.1114(3) 0.8962(3)
O13 O 0.8852(3) -0.1799(3) 0.9406(3)
O14 O 0.9862(2) -0.0685(3) 1.0043(3)
O15 O 0.8171(3) 0.1631(3) 1.1036(4)
O16 O 0.9514(3) 0.1781(3) 1.1416(3)
O17 O 0.8964(2) -0.1130(3) 0.8098(3)
O18 O 0.7674(3) -0.1919(3) 0.7284(3)
C1 C 0.5405(4) -0.1319(4) 1.0036(4)
C2 C 0.4820(4) -0.2200(4) 0.9424(4)
C3 C 0.5117(4) -0.2848(4) 0.9617(5)
C4 C 0.5655(5) -0.3238(5) 0.9346(6)
C5 C 0.5898(6) -0.3880(6) 0.9467(7)
C6 C 0.5574(6) -0.4139(5) 0.9862(7)
C7 C 0.5059(6) -0.3740(6) 1.0163(6)
C8 C 0.4824(4) -0.3096(5) 1.0044(5)
C9 C 0.4071(4) -0.2334(4) 0.8713(5)
C10 C 0.3376(4) -0.3105(5) 0.7942(5)
C11 C 0.2651(5) -0.2980(5) 0.7398(5)
C12 C 0.1987(5) -0.3650(6) 0.6638(6)
C13 C 0.2002(5) -0.4465(6) 0.6409(5)
C14 C 0.2722(5) -0.4599(5) 0.6939(6)
C15 C 0.3394(4) -0.3913(5) 0.7704(5)
C16 C 0.3342(4) -0.0982(4) 0.7312(5)
C17 C 0.3391(4) -0.1413(4) 0.6440(4)
C18 C 0.2589(4) -0.1804(4) 0.5538(4)
C19 C 0.2336(5) -0.2677(5) 0.4910(5)
C20 C 0.1625(6) -0.3063(5) 0.4028(6)
C21 C 0.1184(5) -0.2579(7) 0.3784(5)
C22 C 0.1406(5) -0.1707(6) 0.4402(6)
C23 C 0.2110(4) -0.1329(4) 0.5280(5)
C24 C 0.4151(4) -0.1397(4) 0.6528(4)
C25 C 0.4426(4) -0.1670(4) 0.5844(5)
C26 C 0.3921(5) -0.1892(5) 0.4930(5)
C27 C 0.4233(5) -0.2145(5) 0.4332(5)
C28 C 0.5059(6) -0.2170(6) 0.4644(7)
C29 C 0.5569(5) -0.1958(7) 0.5519(7)
C30 C 0.5251(5) -0.1686(5) 0.6123(6)
C31 C 0.6107(5) 0.0694(4) 0.8633(5)
C32 C 0.5961(4) 0.1264(4) 0.8282(5)
C33 C 0.5108(4) 0.1098(4) 0.7523(5)
C34 C 0.5048(5) 0.0989(5) 0.6718(5)
C35 C 0.4276(6) 0.0827(6) 0.5984(6)
C36 C 0.3567(5) 0.0745(6) 0.6029(6)
C37 C 0.3599(5) 0.0839(5) 0.6801(7)
C38 C 0.4374(4) 0.1015(5) 0.7541(5)
C39 C 0.6604(4) 0.1911(5) 0.8677(5)
C40 C 0.6671(5) 0.2677(4) 0.8630(5)
C41 C 0.5983(5) 0.2975(5) 0.8341(5)
C42 C 0.6102(7) 0.3709(6) 0.8353(6)
C43 C 0.6887(9) 0.4127(6) 0.8654(7)
C44 C 0.7555(7) 0.3804(6) 0.8888(7)
C45 C 0.7438(5) 0.3089(5) 0.8887(6)
C46 C 0.8652(4) -0.0158(4) 1.1466(4)
C47 C 0.8753(4) -0.0529(4) 1.2042(4)
C48 C 0.9540(4) -0.0123(4) 1.2966(5)
C49 C 1.0319(4) -0.0136(5) 1.3058(5)
C50 C 1.1022(4) 0.0203(5) 1.3923(6)
C51 C 1.0947(5) 0.0585(5) 1.4697(5)
C52 C 1.0169(6) 0.0614(6) 1.4610(5)
C53 C 0.9461(4) 0.0270(5) 1.3749(5)
C54 C 0.8145(4) -0.1195(4) 1.1694(4)
C55 C 0.8123(4) -0.1681(4) 1.2087(4)
C56 C 0.8821(4) -0.1805(4) 1.2643(5)
C57 C 0.8752(5) -0.2258(5) 1.3013(5)
C58 C 0.7982(6) -0.2591(5) 1.2839(6)
C59 C 0.7272(5) -0.2487(5) 1.2272(6)
C60 C 0.7345(4) -0.2048(5) 1.1882(5)
C61 C 0.6350(4) -0.1621(4) 0.8541(4)
C62 C 0.6246(4) -0.2569(4) 0.7963(4)
C63 C 0.5470(4) -0.3081(4) 0.7044(4)
C64 C 0.5548(4) -0.3485(5) 0.6253(5)
C65 C 0.4828(6) -0.4001(5) 0.5389(5)
C66 C 0.4047(5) -0.4117(5) 0.5296(5)
C67 C 0.3984(4) -0.3717(5) 0.6078(6)
C68 C 0.4665(4) -0.3204(4) 0.6930(5)
C69 C 0.6853(4) -0.2895(4) 0.8301(4)
C70 C 0.6881(4) -0.3771(4) 0.7911(4)
C71 C 0.7653(4) -0.3938(4) 0.8116(5)
C72 C 0.7727(5) -0.4747(5) 0.7739(6)
C73 C 0.7021(6) -0.5417(5) 0.7169(5)
C74 C 0.6245(5) -0.5257(5) 0.7001(5)
C75 C 0.6180(4) -0.4447(5) 0.7358(5)
C76 C 0.9592(4) -0.1361(4) 0.9964(4)
C77 C 1.0192(4) -0.1624(4) 1.0579(4)
C78 C 0.9885(4) -0.2463(4) 1.0384(4)
C79 C 0.9354(5) -0.2570(5) 1.0677(6)
C80 C 0.9106(6) -0.3343(6) 1.0536(7)
C81 C 0.9414(7) -0.3999(5) 1.0124(7)
C82 C 0.9942(6) -0.3895(6) 0.9832(7)
C83 C 1.0167(5) -0.3132(5) 0.9961(5)
C84 C 1.0922(4) -0.1052(4) 1.1278(4)
C85 C 1.1625(4) -0.1041(4) 1.2055(5)
C86 C 1.2335(5) -0.0391(5) 1.2594(5)
C87 C 1.3043(5) -0.0289(6) 1.3372(6)
C88 C 1.2982(5) -0.0878(6) 1.3587(5)
C89 C 1.2284(5) -0.1544(5) 1.3051(5)
C90 C 1.1598(4) -0.1619(5) 1.2300(5)
C91 C 0.8895(4) 0.2060(4) 1.1370(4)
C92 C 0.9033(4) 0.2966(4) 1.1705(4)
C93 C 0.9889(4) 0.3565(4) 1.2474(5)
C94 C 0.9961(5) 0.4268(5) 1.3286(5)
C95 C 1.0722(6) 0.4839(5) 1.4008(6)
C96 C 1.1448(5) 0.4718(6) 1.3972(7)
C97 C 1.1382(5) 0.4031(6) 1.3180(6)
C98 C 1.0616(4) 0.3464(4) 1.2449(5)
C99 C 0.8389(4) 0.3236(4) 1.1323(5)
C100 C 0.8331(5) 0.4046(4) 1.1387(5)
C101 C 0.7563(5) 0.4210(5) 1.1112(6)
C102 C 0.7469(7) 0.4934(7) 1.1121(7)
C103 C 0.8127(9) 0.5497(6) 1.1371(7)
C104 C 0.8901(7) 0.5348(5) 1.1633(6)
C105 C 0.9004(5) 0.4627(5) 1.1648(5)
C106 C 0.8355(4) -0.1702(4) 0.7329(5)
C107 C 0.8394(4) -0.2140(4) 0.6447(4)
C108 C 0.7580(4) -0.2657(5) 0.5530(5)
C109 C 0.7101(4) -0.3390(5) 0.5270(5)
C110 C 0.6411(5) -0.3899(5) 0.4403(6)
C111 C 0.6187(5) -0.3656(6) 0.3782(6)
C112 C 0.6621(6) -0.2913(6) 0.4030(6)
C113 C 0.7332(4) -0.2408(5) 0.4903(5)
C114 C 0.9146(4) -0.2090(4) 0.6515(4)
C115 C 0.9422(4) -0.2490(4) 0.5835(5)
C116 C 0.8916(4) -0.3180(5) 0.4927(5)
C117 C 0.9237(6) -0.3516(5) 0.4337(5)
C118 C 1.0056(6) -0.3185(6) 0.4637(7)
C119 C 1.0575(5) -0.2513(6) 0.5532(7)
C120 C 1.0246(5) -0.2189(5) 0.6122(6)
H1 H 0.6559 0.1031 1.0689
H2 H 0.8445 0.0335 0.9308
H3 H 0.5869 -0.3063 0.9067
H4 H 0.6281 -0.4140 0.9282
H5 H 0.5713 -0.4600 0.9921
H6 H 0.4860 -0.3905 1.0459
H7 H 0.4460 -0.2821 1.0254
H8 H 0.3978 -0.1837 0.8712
H9 H 0.2623 -0.2420 0.7562
H10 H 0.1505 -0.3556 0.6260
H11 H 0.1524 -0.4930 0.5892
H12 H 0.2752 -0.5160 0.6775
H13 H 0.3883 -0.4005 0.8075
H14 H 0.2653 -0.3018 0.5084
H15 H 0.1455 -0.3662 0.3606
H16 H 0.0711 -0.2837 0.3175
H17 H 0.1079 -0.1373 0.4225
H18 H 0.2263 -0.0732 0.5708
H19 H 0.4596 -0.1166 0.7147
H20 H 0.3353 -0.1867 0.4718
H21 H 0.3881 -0.2300 0.3709
H22 H 0.5274 -0.2342 0.4231
H23 H 0.6134 -0.1992 0.5720
H24 H 0.5618 -0.1506 0.6752
H25 H 0.5542 0.1027 0.6675
H26 H 0.4243 0.0774 0.5449
H27 H 0.3038 0.0620 0.5515
H28 H 0.3098 0.0784 0.6827
H29 H 0.4399 0.1080 0.8078
H30 H 0.7129 0.1882 0.9069
H31 H 0.5438 0.2683 0.8138
H32 H 0.5636 0.3921 0.8152
H33 H 0.6971 0.4650 0.8702
H34 H 0.8091 0.4073 0.9049
H35 H 0.7906 0.2873 0.9071
H36 H 1.0378 -0.0381 1.2522
H37 H 1.1560 0.0169 1.3979
H38 H 1.1433 0.0832 1.5295
H39 H 1.0116 0.0874 1.5150
H40 H 0.8923 0.0302 1.3695
H41 H 0.7663 -0.1372 1.1112
H42 H 0.9361 -0.1576 1.2776
H43 H 0.9244 -0.2340 1.3392
H44 H 0.7941 -0.2890 1.3108
H45 H 0.6734 -0.2713 1.2145
H46 H 0.6850 -0.2000 1.1467
H47 H 0.6084 -0.3408 0.6303
H48 H 0.4880 -0.4283 0.4848
H49 H 0.3560 -0.4467 0.4699
H50 H 0.3446 -0.3802 0.6023
H51 H 0.4596 -0.2923 0.7460
H52 H 0.7335 -0.2493 0.8882
H53 H 0.8149 -0.3476 0.8531
H54 H 0.8266 -0.4844 0.7873
H55 H 0.7063 -0.5984 0.6892
H56 H 0.5755 -0.5718 0.6634
H57 H 0.5641 -0.4348 0.7221
H58 H 0.9157 -0.2110 1.0979
H59 H 0.8726 -0.3422 1.0722
H60 H 0.9258 -0.4527 1.0043
H61 H 1.0150 -0.4350 0.9542
H62 H 1.0530 -0.3064 0.9752
H63 H 1.1008 -0.0555 1.1276
H64 H 1.2353 0.0014 1.2438
H65 H 1.3539 0.0164 1.3732
H66 H 1.3440 -0.0817 1.4124
H67 H 1.2271 -0.1957 1.3197
H68 H 1.1102 -0.2069 1.1946
H69 H 0.9470 0.4348 1.3335
H70 H 1.0750 0.5322 1.4539
H71 H 1.1982 0.5101 1.4482
H72 H 1.1876 0.3947 1.3138
H73 H 1.0591 0.2990 1.1913
H74 H 0.7860 0.2820 1.0929
H75 H 0.7084 0.3811 1.0909
H76 H 0.6931 0.5041 1.0949
H77 H 0.8054 0.5994 1.1364
H78 H 0.9369 0.5739 1.1804
H79 H 0.9546 0.4532 1.1842
H80 H 0.7253 -0.3551 0.5704
H81 H 0.6091 -0.4411 0.4233
H82 H 0.5721 -0.4015 0.3169
H83 H 0.6439 -0.2737 0.3607
H84 H 0.7647 -0.1894 0.5072
H85 H 0.9596 -0.1718 0.7134
H86 H 0.8349 -0.3420 0.4714
H87 H 0.8886 -0.3983 0.3714
H88 H 1.0267 -0.3424 0.4220
H89 H 1.1143 -0.2276 0.5742
H90 H 1.0607 -0.1739 0.6752
Mn1A Mn 0.46976(5) 0.02851(6) 1.08619(6)
Mn2A Mn 0.31198(6) -0.00411(6) 0.87264(7)
Mn5A Mn 1.03019(6) -0.05796(6) 0.91382(6)
O3A O 0.4863(2) 0.0724(2) 1.0043(3)
O5A O 0.7327(3) 0.0799(3) 1.2717(3)
O6A O 0.6032(2) 0.0767(3) 1.1903(3)
O14A O 1.0138(2) 0.0685(3) 0.9957(3)
O17A O 1.1036(2) 0.1130(3) 1.1902(3)
loop_
_geom_bond_atom_site_label_1
_geom_bond_atom_site_label_2
_geom_bond_site_symmetry_1
_geom_bond_site_symmetry_2
Mn1 O1 1_555 1_555
Mn2 O1 1_555 1_555
Mn3 O1 1_555 1_555
Mn4 O2 1_555 1_555
Mn5 O2 1_555 1_555
O1 H1 1_555 1_555
O2 Mn3 1_555 1_555
O3 Mn1 1_555 1_555
O4 Mn2 1_555 1_555
O5 C16 1_555 1_555
O6 Mn1 1_555 1_555
O7 Mn1 1_555 1_555
O8 Mn3 1_555 1_555
O9 Mn2 1_555 1_555
O10 Mn5 1_555 1_555
O11 Mn1 1_555 1_555
O12 Mn3 1_555 1_555
O13 Mn4 1_555 1_555
O14 Mn5 1_555 1_555
O15 Mn3 1_555 1_555
O16 Mn5 1_555 1_555
O17 Mn4 1_555 1_555
O18 Mn4 1_555 1_555
C1 O3 1_555 1_555
C2 C1 1_555 1_555
C3 C2 1_555 1_555
C4 C3 1_555 1_555
C5 C4 1_555 1_555
C6 C5 1_555 1_555
C7 C6 1_555 1_555
C8 C3 1_555 1_555
C9 C2 1_555 1_555
C10 C9 1_555 1_555
C11 C10 1_555 1_555
C12 C11 1_555 1_555
C13 C12 1_555 1_555
C14 C13 1_555 1_555
C15 C10 1_555 1_555
C16 O6 1_555 1_555
C17 C16 1_555 1_555
C18 C17 1_555 1_555
C19 C18 1_555 1_555
C20 C19 1_555 1_555
C21 C20 1_555 1_555
C22 C21 1_555 1_555
C23 C18 1_555 1_555
C24 C17 1_555 1_555
C25 C24 1_555 1_555
C26 C25 1_555 1_555
C27 C26 1_555 1_555
C28 C27 1_555 1_555
C29 C28 1_555 1_555
C30 C25 1_555 1_555
C31 O7 1_555 1_555
C32 C31 1_555 1_555
C33 C32 1_555 1_555
C34 C33 1_555 1_555
C35 C34 1_555 1_555
C36 C35 1_555 1_555
C37 C36 1_555 1_555
C38 C33 1_555 1_555
C39 C32 1_555 1_555
C40 C39 1_555 1_555
C41 C40 1_555 1_555
C42 C41 1_555 1_555
C43 C42 1_555 1_555
C44 C43 1_555 1_555
C45 C40 1_555 1_555
C46 O9 1_555 1_555
C47 C46 1_555 1_555
C48 C47 1_555 1_555
C49 C48 1_555 1_555
C50 C49 1_555 1_555
C51 C50 1_555 1_555
C52 C51 1_555 1_555
C53 C48 1_555 1_555
C54 C47 1_555 1_555
C55 C54 1_555 1_555
C56 C55 1_555 1_555
C57 C56 1_555 1_555
C58 C57 1_555 1_555
C59 C58 1_555 1_555
C60 C55 1_555 1_555
C61 O11 1_555 1_555
C62 C61 1_555 1_555
C63 C62 1_555 1_555
C64 C63 1_555 1_555
C65 C64 1_555 1_555
C66 C65 1_555 1_555
C67 C66 1_555 1_555
C68 C63 1_555 1_555
C69 C62 1_555 1_555
C70 C69 1_555 1_555
C71 C70 1_555 1_555
C72 C71 1_555 1_555
C73 C72 1_555 1_555
C74 C73 1_555 1_555
C75 C70 1_555 1_555
C76 O13 1_555 1_555
C77 C76 1_555 1_555
C78 C77 1_555 1_555
C79 C78 1_555 1_555
C80 C79 1_555 1_555
C81 C80 1_555 1_555
C82 C81 1_555 1_555
C83 C78 1_555 1_555
C84 C77 1_555 1_555
C85 C84 1_555 1_555
C86 C85 1_555 1_555
C87 C86 1_555 1_555
C88 C87 1_555 1_555
C89 C88 1_555 1_555
C90 C85 1_555 1_555
C91 O15 1_555 1_555
C92 C91 1_555 1_555
C93 C92 1_555 1_555
C94 C93 1_555 1_555
C95 C94 1_555 1_555
C96 C95 1_555 1_555
C97 C96 1_555 1_555
C98 C93 1_555 1_555
C99 C92 1_555 1_555
C100 C99 1_555 1_555
C101 C100 1_555 1_555
C102 C101 1_555 1_555
C103 C102 1_555 1_555
C104 C103 1_555 1_555
C105 C100 1_555 1_555
C106 O17 1_555 1_555
C107 C106 1_555 1_555
C108 C107 1_555 1_555
C109 C108 1_555 1_555
C110 C109 1_555 1_555
C111 C110 1_555 1_555
C112 C111 1_555 1_555
C113 C108 1_555 1_555
C114 C107 1_555 1_555
C115 C114 1_555 1_555
C116 C115 1_555 1_555
C117 C116 1_555 1_555
C118 C117 1_555 1_555
C119 C118 1_555 1_555
C120 C115 1_555 1_555
H2 O2 1_555 1_555
H3 C4 1_555 1_555
H4 C5 1_555 1_555
H5 C6 1_555 1_555
H6 C7 1_555 1_555
H7 C8 1_555 1_555
H8 C9 1_555 1_555
H9 C11 1_555 1_555
H10 C12 1_555 1_555
H11 C13 1_555 1_555
H12 C14 1_555 1_555
H13 C15 1_555 1_555
H14 C19 1_555 1_555
H15 C20 1_555 1_555
H16 C21 1_555 1_555
H17 C22 1_555 1_555
H18 C23 1_555 1_555
H19 C24 1_555 1_555
H20 C26 1_555 1_555
H21 C27 1_555 1_555
H22 C28 1_555 1_555
H23 C29 1_555 1_555
H24 C30 1_555 1_555
H25 C34 1_555 1_555
H26 C35 1_555 1_555
H27 C36 1_555 1_555
H28 C37 1_555 1_555
H29 C38 1_555 1_555
H30 C39 1_555 1_555
H31 C41 1_555 1_555
H32 C42 1_555 1_555
H33 C43 1_555 1_555
H34 C44 1_555 1_555
H35 C45 1_555 1_555
H36 C49 1_555 1_555
H37 C50 1_555 1_555
H38 C51 1_555 1_555
H39 C52 1_555 1_555
H40 C53 1_555 1_555
H41 C54 1_555 1_555
H42 C56 1_555 1_555
H43 C57 1_555 1_555
H44 C58 1_555 1_555
H45 C59 1_555 1_555
H46 C60 1_555 1_555
H47 C64 1_555 1_555
H48 C65 1_555 1_555
H49 C66 1_555 1_555
H50 C67 1_555 1_555
H51 C68 1_555 1_555
H52 C69 1_555 1_555
H53 C71 1_555 1_555
H54 C72 1_555 1_555
H55 C73 1_555 1_555
H56 C74 1_555 1_555
H57 C75 1_555 1_555
H58 C79 1_555 1_555
H59 C80 1_555 1_555
H60 C81 1_555 1_555
H61 C82 1_555 1_555
H62 C83 1_555 1_555
H63 C84 1_555 1_555
H64 C86 1_555 1_555
H65 C87 1_555 1_555
H66 C88 1_555 1_555
H67 C89 1_555 1_555
H68 C90 1_555 1_555
H69 C94 1_555 1_555
H70 C95 1_555 1_555
H71 C96 1_555 1_555
H72 C97 1_555 1_555
H73 C98 1_555 1_555
H74 C99 1_555 1_555
H75 C101 1_555 1_555
H76 C102 1_555 1_555
H77 C103 1_555 1_555
H78 C104 1_555 1_555
H79 C105 1_555 1_555
H80 C109 1_555 1_555
H81 C110 1_555 1_555
H82 C111 1_555 1_555
H83 C112 1_555 1_555
H84 C113 1_555 1_555
H85 C114 1_555 1_555
H86 C116 1_555 1_555
H87 C117 1_555 1_555
H88 C118 1_555 1_555
H89 C119 1_555 1_555
H90 C120 1_555 1_555
Mn1A O3 1_555 1_555
Mn2A O5 1_555 1_555
Mn5A O14 1_555 1_555
O3A Mn1 1_555 1_555
O5A Mn2 1_555 1_555
O6A Mn2 1_555 1_555
O14A Mn5 1_555 1_555
O17A Mn5 1_555 1_555
Mn3 O9 1_555 1_555
Mn4 O12 1_555 1_555
O4 C1 1_555 1_555
O6 Mn2A 1_555 1_555
O8 C31 1_555 1_555
O10 C46 1_555 1_555
O12 C61 1_555 1_555
O14 C76 1_555 1_555
O16 C91 1_555 1_555
O17 Mn5A 1_555 1_555
O18 C106 1_555 1_555
C7 C8 1_555 1_555
C14 C15 1_555 1_555
C22 C23 1_555 1_555
C29 C30 1_555 1_555
C37 C38 1_555 1_555
C44 C45 1_555 1_555
C52 C53 1_555 1_555
C59 C60 1_555 1_555
C67 C68 1_555 1_555
C74 C75 1_555 1_555
C82 C83 1_555 1_555
C89 C90 1_555 1_555
C97 C98 1_555 1_555
C104 C105 1_555 1_555
C112 C113 1_555 1_555
C119 C120 1_555 1_555
Mn1A O3A 1_555 1_555
Mn1A O6A 1_555 1_555
Mn5A O14A 1_555 1_555

#END
