
#######################################################################
#
#                 Cambridge Crystallographic Data Centre
#                                CCDC 
#
#######################################################################
#
# If this CIF has been generated from an entry in the Cambridge 
# Structural Database, then it will include bibliographic, chemical, 
# crystal, experimental, refinement or atomic coordinate data resulting 
# from the CCDC's data processing and validation procedures.
#
#######################################################################

data_HAWWIM
_symmetry_cell_setting           monoclinic
_symmetry_space_group_name_H-M   'C 2/c'
_symmetry_Int_Tables_number      15
_space_group_name_Hall           '-C 2yn'
loop_
_symmetry_equiv_pos_site_id
_symmetry_equiv_pos_as_xyz
1 x,y,z
2 1/2+x,1/2+y,z
3 -x,y,1/2-z
4 1/2-x,1/2+y,1/2-z
5 -x,-y,-z
6 1/2-x,1/2-y,-z
7 x,-y,1/2+z
8 1/2+x,1/2-y,1/2+z
_cell_length_a                   19.142(4)
_cell_length_b                   13.862(3)
_cell_length_c                   15.625(3)
_cell_angle_alpha                90.00
_cell_angle_beta                 122.404(3)
_cell_angle_gamma                90.00
_cell_volume                     3500.46
loop_
_atom_site_label
_atom_site_type_symbol
_atom_site_fract_x
_atom_site_fract_y
_atom_site_fract_z
Zn1 Zn 0.5000 0.69243(2) 0.7500
O1 O 0.62566(11) 0.69132(13) 0.87303(14)
O2 O 0.53876(9) 0.69776(9) 0.65079(11)
O3 O 0.43636(9) 0.77319(12) 0.51641(12)
O4 O 0.85288(10) 0.64625(14) 0.83999(13)
O5 O 0.74394(10) 0.72283(13) 0.82008(15)
N1 N 0.5000 0.53688(16) 0.7500
N2 N 0.5000 -0.14421(17) 0.7500
C1 C 0.44363(16) 0.48686(16) 0.75664(19)
H1 H 0.4031 0.5214 0.7617
C2 C 0.4412(2) 0.38737(19) 0.7566(2)
H2 H 0.390(2) 0.353(2) 0.760(3)
C3 C 0.5000 0.3354(3) 0.7500
C4 C 0.5329(4) 0.1670(4) 0.7851(5)
C5 C 0.4669(4) 0.2264(4) 0.7155(5)
C6 C 0.5000 0.0579(2) 0.7500
C7 C 0.5653(2) 0.00609(19) 0.7617(3)
H3 H 0.6121 0.0389 0.7699
C8 C 0.56391(16) -0.09323(16) 0.7617(2)
H4 H 0.6105 -0.1271 0.7705
C9 C 0.51116(11) 0.75171(13) 0.57436(14)
C10 C 0.57526(12) 0.79659(13) 0.55847(14)
C11 C 0.64866(12) 0.74853(14) 0.58507(14)
C12 C 0.70871(15) 0.79781(17) 0.57814(19)
H5 H 0.7531(16) 0.7641(18) 0.5964(19)
C13 C 0.69682(16) 0.89270(17) 0.54505(19)
H6 H 0.7420(18) 0.925(2) 0.545(2)
C14 C 0.62394(16) 0.93968(16) 0.51731(19)
H7 H 0.6107(16) 1.0107(19) 0.491(2)
C15 C 0.56385(15) 0.89152(14) 0.52364(17)
H8 H 0.5173(15) 0.9206(16) 0.5118(19)
C16 C 0.77348(12) 0.66415(15) 0.79128(15)
C17 C 0.72286(12) 0.60289(14) 0.69914(15)
C18 C 0.65971(12) 0.64228(13) 0.60744(15)
C19 C 0.60867(14) 0.57993(17) 0.52842(18)
H9 H 0.5701(15) 0.6018(18) 0.473(2)
C20 C 0.62015(16) 0.48126(17) 0.53857(19)
H10 H 0.5828(18) 0.440(2) 0.484(2)
C21 C 0.68309(16) 0.44305(16) 0.6272(2)
H11 H 0.6925(17) 0.3816(19) 0.634(2)
C22 C 0.73468(15) 0.50360(16) 0.70746(18)
H12 H 0.7742(17) 0.482(2) 0.763(2)
H13 H 0.661(2) 0.710(2) 0.870(3)
H14 H 0.632(2) 0.715(2) 0.918(3)
H15 H 0.877(2) 0.676(2) 0.898(3)
Zn1_2 Zn 0.5000 -0.30757(2) 0.7500
O1B O 0.37434(11) 0.69132(13) 0.62697(14)
O2B O 0.46124(9) 0.69776(9) 0.84921(11)
O3B O 0.56364(9) 0.77319(12) 0.98359(12)
O4B O 0.14712(10) 0.64625(14) 0.66001(13)
O5B O 0.25606(10) 0.72283(13) 0.67992(15)
N2_2 N 0.5000 0.85579(17) 0.7500
C1B C 0.55637(16) 0.48686(16) 0.74336(19)
H1B H 0.5969 0.5214 0.7383
C2B C 0.5588(2) 0.38737(19) 0.7434(2)
H2B H 0.610(2) 0.353(2) 0.740(3)
C4B C 0.4671(4) 0.1670(4) 0.7149(5)
C5B C 0.5331(4) 0.2264(4) 0.7845(5)
C7B C 0.4347(2) 0.00609(19) 0.7383(3)
H3B H 0.3879 0.0389 0.7301
C8B C 0.43609(16) -0.09323(16) 0.7383(2)
H4B H 0.3895 -0.1271 0.7295
C9B C 0.48884(11) 0.75171(13) 0.92564(14)
C10B C 0.42474(12) 0.79659(13) 0.94153(14)
C11B C 0.35134(12) 0.74853(14) 0.91493(14)
C12B C 0.29129(15) 0.79781(17) 0.92186(19)
H5B H 0.2469(16) 0.7641(18) 0.9036(19)
C13B C 0.30318(16) 0.89270(17) 0.95495(19)
H6B H 0.2580(18) 0.925(2) 0.955(2)
C14B C 0.37606(16) 0.93968(16) 0.98269(19)
H7B H 0.3893(16) 1.0107(19) 1.009(2)
C15B C 0.43615(15) 0.89152(14) 0.97636(17)
H8B H 0.4827(15) 0.9206(16) 0.9882(19)
C16B C 0.22652(12) 0.66415(15) 0.70872(15)
C17B C 0.27714(12) 0.60289(14) 0.80086(15)
C18B C 0.34029(12) 0.64228(13) 0.89256(15)
C19B C 0.39133(14) 0.57993(17) 0.97158(18)
H9B H 0.4299(15) 0.6018(18) 1.027(2)
C20B C 0.37985(16) 0.48126(17) 0.96143(19)
H10B H 0.4172(18) 0.440(2) 1.016(2)
C21B C 0.31691(16) 0.44305(16) 0.8728(2)
H11B H 0.3075(17) 0.3816(19) 0.866(2)
C22B C 0.26532(15) 0.50360(16) 0.79254(18)
H12B H 0.2258(17) 0.482(2) 0.737(2)
H13B H 0.339(2) 0.710(2) 0.630(3)
H14B H 0.368(2) 0.715(2) 0.582(3)
H15B H 0.123(2) 0.676(2) 0.602(3)
loop_
_geom_bond_atom_site_label_1
_geom_bond_atom_site_label_2
_geom_bond_site_symmetry_1
_geom_bond_site_symmetry_2
Zn1 O1 1_555 1_555
O1 H13 1_555 1_555
O2 Zn1 1_555 1_555
O3 C9 1_555 1_555
O4 C16 1_555 1_555
O5 C16 1_555 1_555
N1 Zn1 1_555 1_555
N2 C8 1_555 1_555
C1 N1 1_555 1_555
H1 C1 1_555 1_555
C2 C1 1_555 1_555
H2 C2 1_555 1_555
C3 C2 1_555 1_555
C4 C5 1_555 1_555
C5 C3 1_555 1_555
C6 C4 1_555 1_555
C7 C6 1_555 1_555
H3 C7 1_555 1_555
C8 C7 1_555 1_555
H4 C8 1_555 1_555
C9 O2 1_555 1_555
C10 C9 1_555 1_555
C11 C10 1_555 1_555
C12 C11 1_555 1_555
H5 C12 1_555 1_555
C13 C12 1_555 1_555
H6 C13 1_555 1_555
C14 C13 1_555 1_555
H7 C14 1_555 1_555
C15 C10 1_555 1_555
H8 C15 1_555 1_555
C16 C17 1_555 1_555
C17 C18 1_555 1_555
C18 C11 1_555 1_555
C19 C18 1_555 1_555
H9 C19 1_555 1_555
C20 C19 1_555 1_555
H10 C20 1_555 1_555
C21 C20 1_555 1_555
H11 C21 1_555 1_555
C22 C17 1_555 1_555
H12 C22 1_555 1_555
H14 O1 1_555 1_555
H15 O4 1_555 1_555
Zn1_2 N2 1_555 1_555
O1B Zn1 1_555 1_555
O2B Zn1 1_555 1_555
O3B C9B 1_555 1_555
O4B C16B 1_555 1_555
O5B C16B 1_555 1_555
N2_2 Zn1 1_555 1_555
C1B N1 1_555 1_555
H1B C1B 1_555 1_555
C2B C3 1_555 1_555
H2B C2B 1_555 1_555
C4B C4 1_555 1_555
C5B C3 1_555 1_555
C7B C6 1_555 1_555
H3B C7B 1_555 1_555
C8B N2 1_555 1_555
H4B C8B 1_555 1_555
C9B O2B 1_555 1_555
C10B C9B 1_555 1_555
C11B C10B 1_555 1_555
C12B C11B 1_555 1_555
H5B C12B 1_555 1_555
C13B C12B 1_555 1_555
H6B C13B 1_555 1_555
C14B C13B 1_555 1_555
H7B C14B 1_555 1_555
C15B C10B 1_555 1_555
H8B C15B 1_555 1_555
C16B C17B 1_555 1_555
C17B C18B 1_555 1_555
C18B C11B 1_555 1_555
C19B C18B 1_555 1_555
H9B C19B 1_555 1_555
C20B C19B 1_555 1_555
H10B C20B 1_555 1_555
C21B C20B 1_555 1_555
H11B C21B 1_555 1_555
C22B C17B 1_555 1_555
H12B C22B 1_555 1_555
H13B O1B 1_555 1_555
H14B O1B 1_555 1_555
H15B O4B 1_555 1_555
C4 C5B 1_555 1_555
C5 C4B 1_555 1_555
C5 C5B 1_555 1_555
C6 C4B 1_555 1_555
C14 C15 1_555 1_555
C21 C22 1_555 1_555
C1B C2B 1_555 1_555
C4B C5B 1_555 1_555
C7B C8B 1_555 1_555
C14B C15B 1_555 1_555
C21B C22B 1_555 1_555

#END
