
#######################################################################
#
#                 Cambridge Crystallographic Data Centre
#                                CCDC 
#
#######################################################################
#
# If this CIF has been generated from an entry in the Cambridge 
# Structural Database, then it will include bibliographic, chemical, 
# crystal, experimental, refinement or atomic coordinate data resulting 
# from the CCDC's data processing and validation procedures.
#
#######################################################################

data_HAWWAE
_symmetry_cell_setting           monoclinic
_symmetry_space_group_name_H-M   'C 2/c'
_symmetry_Int_Tables_number      15
_space_group_name_Hall           '-C 2yn'
loop_
_symmetry_equiv_pos_site_id
_symmetry_equiv_pos_as_xyz
1 x,y,z
2 1/2+x,1/2+y,z
3 -x,y,1/2-z
4 1/2-x,1/2+y,1/2-z
5 -x,-y,-z
6 1/2-x,1/2-y,-z
7 x,-y,1/2+z
8 1/2+x,1/2-y,1/2+z
_cell_length_a                   23.014(3)
_cell_length_b                   8.7184(13)
_cell_length_c                   18.091(3)
_cell_angle_alpha                90.00
_cell_angle_beta                 95.964(3)
_cell_angle_gamma                90.00
_cell_volume                     3610.23
loop_
_atom_site_label
_atom_site_type_symbol
_atom_site_fract_x
_atom_site_fract_y
_atom_site_fract_z
Zn1 Zn 0.432548(17) 0.57037(4) 0.59907(2)
N1 N 0.40402(12) 0.7906(3) 0.59970(15)
O1 O 0.51765(13) 0.6126(3) 0.60403(15)
H1 H 0.5327 0.6042 0.6482
H2 H 0.5368(18) 0.592(4) 0.583(2)
O2 O 0.41347(10) 0.4823(3) 0.49730(12)
O3 O 0.32789(11) 0.4930(3) 0.54163(13)
O4 O 0.41860(14) 0.5855(3) 0.17168(13)
O5 O 0.43127(11) 0.4116(3) 0.25983(13)
C1 C 0.35758(15) 0.4633(4) 0.49073(19)
C2 C 0.32908(14) 0.4022(4) 0.41820(19)
C3 C 0.33244(14) 0.4767(4) 0.34970(18)
C4 C 0.30264(16) 0.4111(4) 0.2865(2)
H3 H 0.3041 0.4598 0.2398
C5 C 0.27100(16) 0.2772(5) 0.2899(2)
H4 H 0.2513 0.2348 0.2459
C6 C 0.26799(17) 0.2055(4) 0.3567(2)
H5 H 0.2464 0.1130 0.3589
C7 C 0.29622(16) 0.2671(4) 0.4204(2)
H6 H 0.2935 0.2175 0.4667
C8 C 0.41753(14) 0.5418(4) 0.23826(18)
C9 C 0.39878(15) 0.6616(4) 0.29087(17)
C10 C 0.36129(14) 0.6274(4) 0.34474(17)
C11 C 0.34704(18) 0.7465(4) 0.3918(2)
H7 H 0.3213 0.7266 0.4285
C12 C 0.3696(2) 0.8909(4) 0.3859(2)
H8 H 0.3598 0.9689 0.4191
C13 C 0.4061(2) 0.9248(4) 0.3326(3)
H9 H 0.4213 1.0255 0.3285
C14 C 0.42042(18) 0.8098(4) 0.2848(2)
H10 H 0.4453 0.8323 0.2475
C15 C 0.34937(18) 0.8242(4) 0.6123(3)
H11 H 0.3232 0.7428 0.6200
C16 C 0.3297(2) 0.9729(5) 0.6143(3)
H12 H 0.2905 0.9931 0.6234
C17 C 0.3663(2) 1.0906(4) 0.6032(3)
H13 H 0.3534 1.1940 0.6045
C18 C 0.4222(2) 1.0566(5) 0.5900(3)
H14 H 0.4488 1.1367 0.5820
C19 C 0.43968(18) 0.9075(4) 0.5883(3)
H15 H 0.4786 0.8858 0.5786
Zn1F Zn 0.432548(17) 0.42963(4) 0.09907(2)
O4F O 0.41860(14) 0.4145(3) 0.67168(13)
loop_
_geom_bond_atom_site_label_1
_geom_bond_atom_site_label_2
_geom_bond_site_symmetry_1
_geom_bond_site_symmetry_2
Zn1 N1 1_555 1_555
N1 C15 1_555 1_555
O1 Zn1 1_555 1_555
H1 O1 1_555 1_555
H2 O1 1_555 1_555
O2 Zn1 1_555 1_555
O3 Zn1 1_555 1_555
O4 C8 1_555 1_555
O5 C8 1_555 1_555
C1 O2 1_555 1_555
C2 C1 1_555 1_555
C3 C2 1_555 1_555
C4 C3 1_555 1_555
H3 C4 1_555 1_555
C5 C4 1_555 1_555
H4 C5 1_555 1_555
C6 C5 1_555 1_555
H5 C6 1_555 1_555
C7 C2 1_555 1_555
H6 C7 1_555 1_555
C8 C9 1_555 1_555
C9 C10 1_555 1_555
C10 C3 1_555 1_555
C11 C10 1_555 1_555
H7 C11 1_555 1_555
C12 C11 1_555 1_555
H8 C12 1_555 1_555
C13 C12 1_555 1_555
H9 C13 1_555 1_555
C14 C9 1_555 1_555
H10 C14 1_555 1_555
C15 H11 1_555 1_555
C16 C15 1_555 1_555
H12 C16 1_555 1_555
C17 C16 1_555 1_555
H13 C17 1_555 1_555
C18 C17 1_555 1_555
H14 C18 1_555 1_555
C19 N1 1_555 1_555
H15 C19 1_555 1_555
Zn1F O4 1_555 1_555
O4F Zn1 1_555 1_555
O3 C1 1_555 1_555
C6 C7 1_555 1_555
C13 C14 1_555 1_555
C18 C19 1_555 1_555

#END
