
#######################################################################
#
#                 Cambridge Crystallographic Data Centre
#                                CCDC 
#
#######################################################################
#
# If this CIF has been generated from an entry in the Cambridge 
# Structural Database, then it will include bibliographic, chemical, 
# crystal, experimental, refinement or atomic coordinate data resulting 
# from the CCDC's data processing and validation procedures.
#
#######################################################################

data_HAWZEM
_symmetry_cell_setting           monoclinic
_symmetry_space_group_name_H-M   'P 21/c'
_symmetry_Int_Tables_number      14
_space_group_name_Hall           '-P 2ybc'
loop_
_symmetry_equiv_pos_site_id
_symmetry_equiv_pos_as_xyz
1 x,y,z
2 -x,1/2+y,1/2-z
3 -x,-y,-z
4 x,1/2-y,1/2+z
_cell_length_a                   11.6755(3)
_cell_length_b                   12.2521(2)
_cell_length_c                   12.6399(8)
_cell_angle_alpha                90
_cell_angle_beta                 118.308(3)
_cell_angle_gamma                90
_cell_volume                     1591.9
loop_
_atom_site_label
_atom_site_type_symbol
_atom_site_fract_x
_atom_site_fract_y
_atom_site_fract_z
Cu1 Cu 0.28858(4) 0.03562(3) 0.46738(3)
O1 O 0.4193(2) 0.0436(2) 0.3758(2)
O2 O 0.6190(2) 0.06407(19) 0.3967(2)
O3 O 0.1607(2) 0.13287(18) 0.34204(19)
O4 O 0.0320(2) 0.1048(2) 0.4245(2)
N1 N -0.1893(3) 0.4051(2) 0.1282(2)
N2 N 0.3603(3) 0.3373(2) 0.0807(2)
C1 C 0.0582(3) 0.1491(3) 0.3515(3)
C2 C 0.4987(3) 0.0858(3) 0.3502(3)
C3 C -0.0238(3) 0.2733(3) 0.1683(3)
H1 H 0.0357 0.2426 0.1476
C4 C 0.4518(3) 0.1731(3) 0.2539(3)
C5 C 0.3348(4) 0.2247(4) 0.2214(4)
H2 H 0.2837 0.2046 0.2565
C6 C 0.2945(4) 0.3064(4) 0.1362(4)
H3 H 0.2165 0.3416 0.1168
C7 C -0.1036(3) 0.3567(3) 0.1014(3)
H4 H -0.0978 0.3807 0.0343
C8 C -0.0332(3) 0.2352(3) 0.2679(3)
C9 C -0.1989(4) 0.3675(3) 0.2228(3)
H5 H -0.2581 0.4002 0.2426
C10 C 0.5200(4) 0.2053(3) 0.1965(3)
H6 H 0.5991 0.1722 0.2152
C11 C 0.4716(4) 0.2873(3) 0.1102(3)
H7 H 0.5194 0.3077 0.0719
C12 C -0.1248(4) 0.2823(3) 0.2920(3)
H8 H -0.1368 0.2566 0.3552
Cu1B Cu 0.71142(4) -0.03562(3) 0.53262(3)
Cu1A Cu -0.28858(4) 0.53562(3) 0.03262(3)
Cu1C Cu 0.28858(4) 0.46438(3) -0.03262(3)
O2B O 0.3810(2) -0.06407(19) 0.6033(2)
N1A N 0.1893(3) -0.0949(2) 0.3718(2)
N2C N 0.3603(3) 0.1627(2) 0.5807(2)
C13 C 0.6838(8) 0.1000(10) -0.0400(12)
H9 H 0.6990 0.1289 -0.1003
N3 N 0.7550(5) 0.0149(4) 0.0496(5)
C14 C 0.7345(9) -0.0380(6) 0.1399(8)
H10 H 0.8035 -0.0892 0.1827
H11 H 0.6528 -0.0760 0.1027
H12 H 0.7334 0.0154 0.1949
C15 C 0.8663(7) -0.0037(6) 0.0305(9)
H13 H 0.9213 -0.0583 0.0856
H14 H 0.9143 0.0631 0.0436
H15 H 0.8371 -0.0281 -0.0504
O5 O 0.6136(12) 0.1183(9) -0.0174(9)
loop_
_geom_bond_atom_site_label_1
_geom_bond_atom_site_label_2
_geom_bond_site_symmetry_1
_geom_bond_site_symmetry_2
Cu1 O1 1_555 1_555
O1 C2 1_555 1_555
O2 C2 1_555 1_555
O3 Cu1 1_555 1_555
O4 C1 1_555 1_555
N1 C7 1_555 1_555
N2 C6 1_555 1_555
C1 O3 1_555 1_555
C2 C4 1_555 1_555
C3 H1 1_555 1_555
C4 C5 1_555 1_555
C5 H2 1_555 1_555
C6 C5 1_555 1_555
H3 C6 1_555 1_555
C7 C3 1_555 1_555
H4 C7 1_555 1_555
C8 C1 1_555 1_555
C9 N1 1_555 1_555
H5 C9 1_555 1_555
C10 C4 1_555 1_555
H6 C10 1_555 1_555
C11 N2 1_555 1_555
H7 C11 1_555 1_555
C12 C8 1_555 1_555
H8 C12 1_555 1_555
C13 H9 1_555 1_555
N3 C13 1_555 1_555
C14 N3 1_555 1_555
H10 C14 1_555 1_555
H11 C14 1_555 1_555
H12 C14 1_555 1_555
C15 N3 1_555 1_555
H13 C15 1_555 1_555
H14 C15 1_555 1_555
H15 C15 1_555 1_555
O5 C13 1_555 1_555
Cu1B O2 1_555 1_555
Cu1A N1 1_555 1_555
Cu1C N2 1_555 1_555
O2B Cu1 1_555 1_555
N1A Cu1 1_555 1_555
N2C Cu1 1_555 1_555
C3 C8 1_555 1_555
C9 C12 1_555 1_555
C10 C11 1_555 1_555

#END
