
#######################################################################
#
#                 Cambridge Crystallographic Data Centre
#                                CCDC 
#
#######################################################################
#
# If this CIF has been generated from an entry in the Cambridge 
# Structural Database, then it will include bibliographic, chemical, 
# crystal, experimental, refinement or atomic coordinate data resulting 
# from the CCDC's data processing and validation procedures.
#
#######################################################################

data_HAXFIV03
_symmetry_cell_setting           orthorhombic
_symmetry_space_group_name_H-M   'P n m a'
_symmetry_Int_Tables_number      62
_space_group_name_Hall           '-P 2ac 2n'
loop_
_symmetry_equiv_pos_site_id
_symmetry_equiv_pos_as_xyz
1 x,y,z
2 1/2-x,-y,1/2+z
3 1/2+x,1/2-y,1/2-z
4 -x,1/2+y,-z
5 -x,-y,-z
6 1/2+x,y,1/2-z
7 1/2-x,1/2+y,1/2+z
8 x,1/2-y,z
_cell_length_a                   7.6209(4)
_cell_length_b                   7.5985(4)
_cell_length_c                   12.0477(7)
_cell_angle_alpha                90
_cell_angle_beta                 90
_cell_angle_gamma                90
_cell_volume                     697.651
loop_
_atom_site_label
_atom_site_type_symbol
_atom_site_fract_x
_atom_site_fract_y
_atom_site_fract_z
Zn1 Zn 0.7689(1) -0.7500 0.34866(8)
N1 N 0.7614(6) 0.0398(7) 0.2532(5)
N2 N 0.5591(9) -0.7500 0.4418(7)
N3 N -0.0157(9) -0.7500 0.4364(7)
N4 N 0.6692(20) -0.2500 0.1912(10)
N5 N 0.2685(9) -0.7500 0.5268(7)
C1 C 0.7252(8) -0.1006(8) 0.2283(5)
C2 C 0.4185(10) -0.7500 0.4773(7)
C3 C 0.1215(10) -0.7500 0.4738(8)
C1G C 0.7252(8) -0.3994(8) 0.2283(5)
N1G N 0.7614(6) -0.5398(7) 0.2532(5)
Zn1_2 Zn 0.7689(1) 0.2500 0.34866(8)
N1_2 N 0.7614(6) -0.9602(7) 0.2532(5)
Zn1_3 Zn -0.2311(1) -0.7500 0.34866(8)
N3_2 N 0.9843(9) -0.7500 0.4364(7)
loop_
_geom_bond_atom_site_label_1
_geom_bond_atom_site_label_2
_geom_bond_site_symmetry_1
_geom_bond_site_symmetry_2
Zn1 N2 1_555 1_555
N1 C1 1_555 1_555
N2 C2 1_555 1_555
N3 C3 1_555 1_555
N4 C1 1_555 1_555
N5 C2 1_555 1_555
C3 N5 1_555 1_555
C1G N4 1_555 1_555
N1G Zn1 1_555 1_555
Zn1_2 N1 1_555 1_555
N1_2 Zn1 1_555 1_555
Zn1_3 N3 1_555 1_555
N3_2 Zn1 1_555 1_555
C1G N1G 1_555 1_555

#END
