
#######################################################################
#
#                 Cambridge Crystallographic Data Centre
#                                CCDC 
#
#######################################################################
#
# If this CIF has been generated from an entry in the Cambridge 
# Structural Database, then it will include bibliographic, chemical, 
# crystal, experimental, refinement or atomic coordinate data resulting 
# from the CCDC's data processing and validation procedures.
#
#######################################################################

data_HAXGAQ
_symmetry_cell_setting           monoclinic
_symmetry_space_group_name_H-M   'P 21/c'
_symmetry_Int_Tables_number      14
_space_group_name_Hall           '-P 2ybc'
loop_
_symmetry_equiv_pos_site_id
_symmetry_equiv_pos_as_xyz
1 x,y,z
2 -x,1/2+y,1/2-z
3 -x,-y,-z
4 x,1/2-y,1/2+z
_cell_length_a                   6.5738(3)
_cell_length_b                   13.0947(4)
_cell_length_c                   20.7033(9)
_cell_angle_alpha                90
_cell_angle_beta                 90.165(4)
_cell_angle_gamma                90
_cell_volume                     1782.17
loop_
_atom_site_label
_atom_site_type_symbol
_atom_site_fract_x
_atom_site_fract_y
_atom_site_fract_z
Sn1 Sn 0.10623(2) 0.400709(14) 0.120038(7)
Sn2 Sn -0.53391(2) 0.648926(13) 0.613594(8)
N1 N 0.0256(4) 0.54475(18) 0.18873(11)
N2 N -0.0548(3) 0.53989(17) 0.24801(11)
N3 N -0.2955(4) 0.60435(18) 0.47490(11)
N4 N -0.2042(3) 0.75711(17) 0.44058(10)
N5 N -0.2854(4) 0.76739(18) 0.49898(10)
N6 N 0.0921(4) 0.68944(18) 0.23194(11)
N7 N -0.1536(4) 0.60904(18) 0.36973(11)
N8 N 0.1137(4) 0.63378(18) 0.17887(12)
N9 N -0.0606(4) 0.67018(17) 0.33370(11)
N10 N -0.3378(4) 0.67545(18) 0.51887(11)
C1 C 0.2310(5) 0.5014(2) 0.05034(13)
H1 H 0.2813 0.4619 0.0135
H2 H 0.3435 0.5398 0.0697
H3 H 0.1256 0.5490 0.0356
C2 C -0.2070(4) 0.3651(2) 0.11405(15)
H4 H -0.2258 0.3044 0.0870
H5 H -0.2806 0.4228 0.0950
H6 H -0.2598 0.3516 0.1574
C3 C 0.2988(4) 0.3623(2) 0.19816(13)
H7 H 0.3708 0.2987 0.1884
H8 H 0.2171 0.3533 0.2373
H9 H 0.3977 0.4173 0.2051
C4 C -0.2118(4) 0.6565(2) 0.42733(12)
C5 C -0.0100(4) 0.6306(2) 0.27286(12)
C6 C -0.8010(5) 0.6560(2) 0.55684(15)
H10 H -0.9202 0.6468 0.5846
H11 H -0.7979 0.6019 0.5242
H12 H -0.8089 0.7227 0.5355
C7 C -0.4088(4) 0.7860(2) 0.65130(14)
H13 H -0.4639 0.7985 0.6945
H14 H -0.4443 0.8432 0.6228
H15 H -0.2605 0.7797 0.6539
C8 C -0.3689(4) 0.5127(2) 0.63198(14)
H16 H -0.4190 0.4811 0.6718
H17 H -0.2241 0.5288 0.6368
H18 H -0.3875 0.4652 0.5958
O1 O -0.7189(3) 0.62745(16) 0.70552(10)
H19 H -0.776(6) 0.680(3) 0.7159(18)
H20 H -0.792(5) 0.579(3) 0.7174(18)
Sn1A Sn -0.10623(2) 0.900709(14) 0.379962(7)
N4A N 0.2042(3) 0.25711(17) 0.05942(10)
loop_
_geom_bond_atom_site_label_1
_geom_bond_atom_site_label_2
_geom_bond_site_symmetry_1
_geom_bond_site_symmetry_2
Sn1 N1 1_555 1_555
Sn2 N10 1_555 1_555
N1 N2 1_555 1_555
N2 C5 1_555 1_555
N3 N10 1_555 1_555
N4 N5 1_555 1_555
N5 N10 1_555 1_555
N6 N8 1_555 1_555
N7 N9 1_555 1_555
N8 N1 1_555 1_555
N9 C5 1_555 1_555
C1 Sn1 1_555 1_555
H1 C1 1_555 1_555
H2 C1 1_555 1_555
H3 C1 1_555 1_555
C2 Sn1 1_555 1_555
H4 C2 1_555 1_555
H5 C2 1_555 1_555
H6 C2 1_555 1_555
C3 Sn1 1_555 1_555
H7 C3 1_555 1_555
H8 C3 1_555 1_555
H9 C3 1_555 1_555
C4 N3 1_555 1_555
C5 N6 1_555 1_555
C6 Sn2 1_555 1_555
H10 C6 1_555 1_555
H11 C6 1_555 1_555
H12 C6 1_555 1_555
C7 Sn2 1_555 1_555
H13 C7 1_555 1_555
H14 C7 1_555 1_555
H15 C7 1_555 1_555
C8 Sn2 1_555 1_555
H16 C8 1_555 1_555
H17 C8 1_555 1_555
H18 C8 1_555 1_555
O1 Sn2 1_555 1_555
H19 O1 1_555 1_555
H20 O1 1_555 1_555
Sn1A N4 1_555 1_555
N4A Sn1 1_555 1_555
N4 C4 1_555 1_555
N7 C4 1_555 1_555

#END
