
#######################################################################
#
#                 Cambridge Crystallographic Data Centre
#                                CCDC 
#
#######################################################################
#
# If this CIF has been generated from an entry in the Cambridge 
# Structural Database, then it will include bibliographic, chemical, 
# crystal, experimental, refinement or atomic coordinate data resulting 
# from the CCDC's data processing and validation procedures.
#
#######################################################################

data_HAXJAT
_symmetry_cell_setting           monoclinic
_symmetry_space_group_name_H-M   'C 2/c'
_symmetry_Int_Tables_number      15
_space_group_name_Hall           '-C 2yn'
loop_
_symmetry_equiv_pos_site_id
_symmetry_equiv_pos_as_xyz
1 x,y,z
2 -x,y,1/2-z
3 1/2+x,1/2+y,z
4 1/2-x,1/2+y,1/2-z
5 -x,-y,-z
6 x,-y,1/2+z
7 1/2-x,1/2-y,-z
8 1/2+x,1/2-y,1/2+z
_cell_length_a                   33.957(3)
_cell_length_b                   23.8834(17)
_cell_length_c                   17.1688(12)
_cell_angle_alpha                90
_cell_angle_beta                 90.0790(10)
_cell_angle_gamma                90
_cell_volume                     13924
loop_
_atom_site_label
_atom_site_type_symbol
_atom_site_fract_x
_atom_site_fract_y
_atom_site_fract_z
Zn1 Zn 0.202889(6) 0.152201(10) 0.644086(12)
Zn2 Zn 0.276932(6) 0.068840(10) 0.702271(13)
Zn3 Zn -0.030493(6) 0.350710(10) 0.842718(13)
Zn4 Zn 0.239570(6) 0.308320(10) 0.205920(12)
Zn5 Zn 0.027136(6) 0.146031(10) 1.161668(12)
N1 N 0.04369(5) 0.06395(8) 1.19615(10)
N2 N -0.01645(5) 0.09448(9) 1.10316(11)
N3 N -0.06900(6) 0.40854(9) 0.78714(11)
N4 N -0.00342(6) 0.42875(9) 0.86913(12)
N5 N 0.28788(5) 0.27425(8) 0.13216(10)
N6 N 0.22806(5) 0.34377(7) 0.09557(10)
N7 N 0.18219(5) 0.16329(8) 0.52755(9)
N8 N 0.18818(5) 0.06679(7) 0.60723(10)
O1 O 0.31926(4) 0.19006(7) 0.76229(9)
O2 O 0.32927(4) 0.10485(6) 0.71066(9)
O3 O 0.44548(5) 0.17937(7) 0.43871(9)
O4 O 0.41202(6) 0.10171(8) 0.46712(10)
O5 O 0.43996(4) 0.31768(6) 0.75101(8)
O6 O 0.48692(4) 0.29220(7) 0.66657(8)
O7 O 0.05271(5) 0.17974(7) 1.07098(9)
O8 O 0.02282(5) 0.31292(7) 0.85588(9)
O9 O 0.04579(5) 0.29211(7) 0.73645(9)
O10 O 0.26365(5) 0.14936(7) 0.58995(8)
O11 O 0.15221(4) 0.16115(7) 0.70648(8)
O12 O 0.16784(4) 0.10069(7) 0.80184(9)
O13 O 0.28057(5) 0.05933(7) 0.58534(9)
O14 O 0.09730(5) 0.11243(7) 1.05293(9)
O15 O 0.24359(4) 0.23416(6) 0.26103(8)
O16 O 0.28770(5) 0.26304(6) 0.34992(9)
O17 O 0.2731(2) -0.03034(12) 0.31639(19)
O18 O 0.27309(6) 0.01963(8) 0.21632(11)
O19 O 0.23747(4) 0.12594(6) 0.73774(8)
C1 C 0.37383(5) 0.17645(8) 0.67847(11)
C2 C 0.38375(6) 0.15242(9) 0.60689(11)
C3 C 0.41463(6) 0.17406(9) 0.56215(11)
C4 C 0.43673(6) 0.21812(9) 0.59222(11)
C5 C 0.42792(5) 0.24103(9) 0.66526(11)
C6 C 0.39571(5) 0.22125(9) 0.70745(11)
C7 C 0.33786(5) 0.15564(9) 0.72087(11)
C8 C 0.42410(6) 0.14893(9) 0.48319(12)
C9 C 0.45345(5) 0.28716(9) 0.69698(11)
C10 C 0.02338(6) 0.02238(9) 1.15972(12)
C11 C 0.03288(7) -0.03469(10) 1.16849(14)
C12 C 0.06526(9) -0.04797(12) 1.21630(16)
C13 C 0.08545(8) -0.00632(12) 1.25293(15)
C14 C 0.07371(7) 0.04937(10) 1.24203(13)
C15 C -0.00925(6) 0.03852(10) 1.11120(12)
C16 C -0.03236(7) -0.00284(12) 1.07465(14)
C17 C -0.02173(9) -0.06056(13) 1.08491(17)
C18 C 0.00904(9) -0.07586(12) 1.12914(18)
C19 C -0.04664(7) 0.11014(13) 1.05939(15)
C20 C -0.07171(7) 0.07156(15) 1.02210(16)
C21 C -0.06463(7) 0.01562(14) 1.02967(16)
C22 C 0.28499(6) 0.29160(9) 0.05696(11)
C23 C 0.31090(6) 0.27287(9) -0.00204(12)
C24 C 0.33977(6) 0.23360(10) 0.01900(14)
C25 C 0.34210(6) 0.21561(10) 0.09469(15)
C26 C 0.31583(6) 0.23746(10) 0.15002(13)
C27 C 0.25421(6) 0.33047(9) 0.03838(11)
C28 C 0.25164(7) 0.35270(9) -0.03771(12)
C29 C 0.27867(7) 0.33263(11) -0.09611(12)
C30 C 0.30641(7) 0.29443(11) -0.07981(12)
C31 C 0.19994(6) 0.38053(10) 0.07975(13)
C32 C 0.19660(8) 0.40731(11) 0.00691(14)
C33 C 0.22255(8) 0.39365(11) -0.05171(13)
C34 C 0.17918(5) 0.11500(9) 0.48652(11)
C35 C 0.17351(6) 0.11385(10) 0.40494(12)
C36 C 0.17222(7) 0.16576(11) 0.36594(13)
C37 C 0.17527(7) 0.21432(11) 0.40806(13)
C38 C 0.17942(6) 0.21117(10) 0.48919(13)
C39 C 0.18169(5) 0.06329(9) 0.52930(11)
C40 C 0.17692(6) 0.01168(9) 0.48996(13)
C41 C 0.17183(7) 0.01211(11) 0.40660(14)
C42 C 0.17046(7) 0.06067(11) 0.36639(13)
C43 C 0.08368(5) 0.17472(9) 0.94813(11)
C44 C 0.06110(5) 0.21857(9) 0.91895(11)
C45 C 0.06589(5) 0.23577(9) 0.84184(11)
C46 C 0.09339(6) 0.20913(9) 0.79436(11)
C47 C 0.11618(5) 0.16544(8) 0.82338(11)
C48 C 0.11114(5) 0.14814(9) 0.90021(11)
C49 C 0.07831(5) 0.15345(9) 1.03035(11)
C50 C 0.04265(6) 0.28398(9) 0.80873(12)
C51 C 0.14782(6) 0.13972(9) 0.77385(11)
C52 C 0.27603(8) 0.01678(11) 0.28762(14)
C53 C 0.27494(6) 0.06827(9) 0.33759(11)
C54 C 0.27086(6) 0.12133(9) 0.30422(11)
C55 C 0.27701(6) 0.06245(9) 0.41857(12)
C56 C 0.27320(6) 0.10615(9) 0.55303(11)
C57 C 0.27483(5) 0.10979(9) 0.46558(11)
C58 C 0.27175(6) 0.16243(9) 0.43204(11)
C59 C 0.26987(6) 0.16861(9) 0.35136(11)
C60 C -0.05924(8) 0.46245(11) 0.79908(15)
C61 C -0.02418(8) 0.47357(11) 0.84319(15)
C62 C -0.01273(11) 0.52928(13) 0.8581(2)
C63 C 0.02184(13) 0.53675(17) 0.9019(3)
C64 C 0.04286(11) 0.49214(17) 0.9271(2)
C65 C 0.02943(8) 0.43775(13) 0.90962(17)
C66 C -0.10150(8) 0.39717(14) 0.74700(17)
C67 C 0.26650(6) 0.22674(9) 0.31818(11)
C68 C 0.18796(6) 0.01995(9) 0.64858(12)
C69 C 0.18214(7) -0.03306(10) 0.61507(15)
C70 C 0.17728(7) -0.03700(10) 0.53589(15)
C71 C -0.08198(11) 0.50748(14) 0.7697(2)
C72 C -0.12593(10) 0.43849(18) 0.7156(2)
C73 C -0.11588(12) 0.4932(2) 0.7269(3)
C74 C -0.03672(17) 0.57380(15) 0.8269(3)
C75 C -0.06935(17) 0.56317(17) 0.7850(3)
H1 H 0.0962(7) 0.2221(11) 0.7418(15)
H2 H 0.4584(8) 0.2318(12) 0.5650(16)
H3 H 0.0420(7) 0.2367(11) 0.9504(15)
H4 H 0.0876(8) 0.0791(11) 1.2681(15)
H5 H 0.3702(8) 0.1223(12) 0.5881(16)
H6 H 0.1809(8) -0.0649(12) 0.6493(16)
H7 H 0.1813(8) 0.2437(12) 0.5219(16)
H8 H 0.3883(7) 0.2368(11) 0.7561(15)
H9 H 0.1077(10) -0.0134(13) 1.2870(19)
H10 H 0.0426(9) 0.4039(13) 0.9249(18)
H11 H -0.0512(8) 0.1502(12) 1.0542(16)
H12 H 0.1262(8) 0.1181(12) 0.9180(16)
H13 H -0.1074(9) 0.3565(13) 0.7391(18)
H14 H 0.3248(7) 0.2796(11) -0.1187(15)
H15 H 0.1677(9) 0.0612(13) 0.3127(19)
H16 H 0.2791(8) 0.0267(12) 0.4422(16)
H17 H 0.1695(9) 0.1658(13) 0.3117(18)
H18 H 0.2702(7) 0.1951(11) 0.4662(15)
H19 H 0.1730(8) -0.0714(12) 0.5091(17)
H20 H 0.1824(8) 0.3883(11) 0.1190(16)
H21 H 0.3610(8) 0.1874(12) 0.1106(17)
H22 H 0.1701(9) -0.0217(13) 0.3808(18)
H23 H 0.0166(11) -0.1130(16) 1.136(2)
H24 H 0.0724(10) -0.0854(14) 1.2192(19)
H25 H 0.3177(8) 0.2249(12) 0.2060(17)
H26 H 0.1909(8) 0.0238(11) 0.7075(16)
H27 H -0.0384(11) -0.0855(16) 1.059(2)
H28 H 0.1769(9) 0.4349(13) 0.0012(18)
H29 H 0.1752(8) 0.2520(12) 0.3843(17)
H30 H 0.3578(9) 0.2196(13) -0.0192(19)
H31 H 0.0305(15) 0.576(2) 0.913(3)
H32 H -0.0800(10) -0.0109(14) 1.005(2)
H33 H 0.2696(8) 0.1254(12) 0.2487(17)
H34 H -0.1318(12) 0.5213(17) 0.706(2)
H35 H -0.0289(13) 0.609(2) 0.839(3)
H36 H 0.0682(12) 0.4952(17) 0.955(2)
H37 H -0.0928(10) 0.0864(14) 0.991(2)
H38 H 0.2213(9) 0.4102(13) -0.1024(19)
H39 H -0.0860(16) 0.594(2) 0.765(3)
H40 H 0.2752(9) 0.3474(13) -0.1446(19)
H41 H -0.1518(13) 0.4274(17) 0.686(2)
H42 H 0.2194(9) 0.1142(12) 0.7668(18)
Zn1F Zn 0.297111(6) 0.347799(10) 0.355914(12)
Zn2E Zn 0.276932(6) -0.068840(10) 0.202271(13)
Zn3G Zn 0.469507(6) 0.149290(10) 0.342718(13)
Zn3A Zn 0.030493(6) 0.350710(10) 0.657282(13)
Zn4F Zn 0.260430(6) 0.191680(10) 0.794080(12)
Zn5F Zn 0.472864(6) 0.353969(10) 0.838332(12)
Zn5G Zn 0.527136(6) 0.353969(10) 0.661668(12)
O1F O 0.18074(4) 0.30994(7) 0.23771(9)
O3G O -0.05452(5) 0.32063(7) 0.93871(9)
O5F O 0.06004(4) 0.18232(6) 1.24899(8)
O6G O -0.01308(4) 0.20780(7) 1.16657(8)
O9A O -0.04579(5) 0.29211(7) 0.76355(9)
O16F O 0.21230(5) 0.23696(6) 0.65008(9)
O17E O 0.2731(2) 0.03034(12) 0.81639(19)
O18E O 0.27309(6) -0.01963(8) 0.71632(11)
O19F O 0.26253(4) 0.37406(6) 0.26226(8)
H42F H 0.2806(9) 0.3858(12) 0.2332(18)
O20 O 0.36516(5) 0.35554(8) 0.80561(10)
H43 H 0.3865(11) 0.3366(15) 0.787(2)
H44 H 0.3755(11) 0.3653(15) 0.850(2)
O21 O 0.08362(9) 0.19245(12) 0.58307(18)
O23 O 0.37356(18) -0.0063(3) 0.4295(4)
O24 O 0.6012(2) 0.1210(3) 0.5240(4)
O26 O 0.4679(4) 0.8150(6) 0.4462(8)
O22? O 0.36037(9) 0.01799(13) 0.52534(18)
O25? O 0.4511(3) 0.7957(5) 0.3905(7)
O27? O -0.2989(5) -0.0253(3) 1.1760(4)
loop_
_geom_bond_atom_site_label_1
_geom_bond_atom_site_label_2
_geom_bond_site_symmetry_1
_geom_bond_site_symmetry_2
Zn1 N7 1_555 1_555
Zn2 O2 1_555 1_555
Zn3 N3 1_555 1_555
Zn4 N5 1_555 1_555
Zn5 N1 1_555 1_555
N1 C10 1_555 1_555
N2 Zn5 1_555 1_555
N3 C60 1_555 1_555
N4 Zn3 1_555 1_555
N5 C22 1_555 1_555
N6 Zn4 1_555 1_555
N7 C34 1_555 1_555
N8 Zn1 1_555 1_555
O1 C7 1_555 1_555
O2 C7 1_555 1_555
O3 C8 1_555 1_555
O4 C8 1_555 1_555
O5 C9 1_555 1_555
O6 C9 1_555 1_555
O7 Zn5 1_555 1_555
O8 Zn3 1_555 1_555
O9 C50 1_555 1_555
O10 Zn1 1_555 1_555
O11 Zn1 1_555 1_555
O12 C51 1_555 1_555
O13 Zn2 1_555 1_555
O14 C49 1_555 1_555
O15 Zn4 1_555 1_555
O16 C67 1_555 1_555
O17 C52 1_555 1_555
O18 C52 1_555 1_555
O19 Zn1 1_555 1_555
C1 C2 1_555 1_555
C2 C3 1_555 1_555
C3 C4 1_555 1_555
C4 C5 1_555 1_555
C5 C6 1_555 1_555
C6 C1 1_555 1_555
C7 C1 1_555 1_555
C8 C3 1_555 1_555
C9 C5 1_555 1_555
C10 C11 1_555 1_555
C11 C12 1_555 1_555
C12 C13 1_555 1_555
C13 C14 1_555 1_555
C14 N1 1_555 1_555
C15 N2 1_555 1_555
C16 C15 1_555 1_555
C17 C16 1_555 1_555
C18 C11 1_555 1_555
C19 N2 1_555 1_555
C20 C19 1_555 1_555
C21 C16 1_555 1_555
C22 C23 1_555 1_555
C23 C24 1_555 1_555
C24 C25 1_555 1_555
C25 C26 1_555 1_555
C26 N5 1_555 1_555
C27 N6 1_555 1_555
C28 C27 1_555 1_555
C29 C28 1_555 1_555
C30 C23 1_555 1_555
C31 N6 1_555 1_555
C32 C31 1_555 1_555
C33 C28 1_555 1_555
C34 C35 1_555 1_555
C35 C36 1_555 1_555
C36 C37 1_555 1_555
C37 C38 1_555 1_555
C38 N7 1_555 1_555
C39 N8 1_555 1_555
C40 C39 1_555 1_555
C41 C40 1_555 1_555
C42 C35 1_555 1_555
C43 C44 1_555 1_555
C44 C45 1_555 1_555
C45 C46 1_555 1_555
C46 C47 1_555 1_555
C47 C48 1_555 1_555
C48 C43 1_555 1_555
C49 O7 1_555 1_555
C50 O8 1_555 1_555
C51 O11 1_555 1_555
C52 C53 1_555 1_555
C53 C54 1_555 1_555
C54 C59 1_555 1_555
C55 C53 1_555 1_555
C56 O10 1_555 1_555
C57 C55 1_555 1_555
C58 C57 1_555 1_555
C59 C58 1_555 1_555
C60 C61 1_555 1_555
C61 N4 1_555 1_555
C62 C61 1_555 1_555
C63 C62 1_555 1_555
C64 C63 1_555 1_555
C65 N4 1_555 1_555
C66 N3 1_555 1_555
C67 O15 1_555 1_555
C68 N8 1_555 1_555
C69 C68 1_555 1_555
C70 C40 1_555 1_555
C71 C60 1_555 1_555
C72 C66 1_555 1_555
C73 C71 1_555 1_555
C74 C62 1_555 1_555
C75 C71 1_555 1_555
H1 C46 1_555 1_555
H2 C4 1_555 1_555
H3 C44 1_555 1_555
H4 C14 1_555 1_555
H5 C2 1_555 1_555
H6 C69 1_555 1_555
H7 C38 1_555 1_555
H8 C6 1_555 1_555
H9 C13 1_555 1_555
H10 C65 1_555 1_555
H11 C19 1_555 1_555
H12 C48 1_555 1_555
H13 C66 1_555 1_555
H14 C30 1_555 1_555
H15 C42 1_555 1_555
H16 C55 1_555 1_555
H17 C36 1_555 1_555
H18 C58 1_555 1_555
H19 C70 1_555 1_555
H20 C31 1_555 1_555
H21 C25 1_555 1_555
H22 C41 1_555 1_555
H23 C18 1_555 1_555
H24 C12 1_555 1_555
H25 C26 1_555 1_555
H26 C68 1_555 1_555
H27 C17 1_555 1_555
H28 C32 1_555 1_555
H29 C37 1_555 1_555
H30 C24 1_555 1_555
H31 C63 1_555 1_555
H32 C21 1_555 1_555
H33 C54 1_555 1_555
H34 C73 1_555 1_555
H35 C74 1_555 1_555
H36 C64 1_555 1_555
H37 C20 1_555 1_555
H38 C33 1_555 1_555
H39 C75 1_555 1_555
H40 C29 1_555 1_555
H41 C72 1_555 1_555
H42 O19 1_555 1_555
O20 H43 1_555 1_555
H44 O20 1_555 1_555
Zn1F O16 1_555 1_555
Zn2E O17 1_555 1_555
Zn3G O3 1_555 1_555
Zn3A O9 1_555 1_555
Zn4F O1 1_555 1_555
Zn5F O5 1_555 1_555
Zn5G O6 1_555 1_555
O1F Zn4 1_555 1_555
O3G Zn3 1_555 1_555
O5F Zn5 1_555 1_555
O6G Zn5 1_555 1_555
O9A Zn3 1_555 1_555
O16F Zn1 1_555 1_555
O17E Zn2 1_555 1_555
O18E Zn2 1_555 1_555
O19F Zn4 1_555 1_555
H42F O19F 1_555 1_555
Zn2 O19 1_555 1_555
O13 C56 1_555 1_555
O18 Zn2E 1_555 1_555
O19 Zn4F 1_555 1_555
C10 C15 1_555 1_555
C17 C18 1_555 1_555
C20 C21 1_555 1_555
C22 C27 1_555 1_555
C29 C30 1_555 1_555
C32 C33 1_555 1_555
C34 C39 1_555 1_555
C41 C42 1_555 1_555
C43 C49 1_555 1_555
C45 C50 1_555 1_555
C47 C51 1_555 1_555
C56 C57 1_555 1_555
C59 C67 1_555 1_555
C64 C65 1_555 1_555
C69 C70 1_555 1_555
C72 C73 1_555 1_555
C74 C75 1_555 1_555
Zn1F O19F 1_555 1_555

#END
