
#######################################################################
#
#                 Cambridge Crystallographic Data Centre
#                                CCDC 
#
#######################################################################
#
# If this CIF has been generated from an entry in the Cambridge 
# Structural Database, then it will include bibliographic, chemical, 
# crystal, experimental, refinement or atomic coordinate data resulting 
# from the CCDC's data processing and validation procedures.
#
#######################################################################

data_HAXMUQ
_symmetry_cell_setting           triclinic
_symmetry_space_group_name_H-M   'P -1'
_symmetry_Int_Tables_number      2
_space_group_name_Hall           '-P 1'
loop_
_symmetry_equiv_pos_site_id
_symmetry_equiv_pos_as_xyz
1 x,y,z
2 -x,-y,-z
_cell_length_a                   9.134(2)
_cell_length_b                   9.694(2)
_cell_length_c                   11.735(3)
_cell_angle_alpha                80.602(4)
_cell_angle_beta                 87.611(4)
_cell_angle_gamma                66.518(4)
_cell_volume                     939.919
loop_
_atom_site_label
_atom_site_type_symbol
_atom_site_fract_x
_atom_site_fract_y
_atom_site_fract_z
Zn1 Zn 0.18549(4) 0.30228(4) 0.53051(3)
O1 O 0.3329(2) 0.3717(2) 0.4424(2)
O2 O 0.4374(3) 0.1398(2) 0.3973(2)
O3 O 1.0213(2) 0.2818(2) 0.44043(19)
O4 O 0.9177(2) 0.5303(2) 0.37562(18)
N1 N 0.6595(3) 0.3871(3) 0.1472(2)
N2 N 0.2617(3) 0.1183(3) 0.6545(2)
H1 H 0.340(3) 0.051(3) 0.628(3)
C1 C 0.4359(3) 0.2687(3) 0.3939(3)
C2 C 0.5617(3) 0.3120(3) 0.3293(3)
C3 C 0.5544(4) 0.3429(3) 0.2087(3)
C4 C 0.4256(4) 0.3313(4) 0.1402(3)
H2 H 0.4263 0.3773 0.0614
H3 H 0.3237 0.3833 0.1723
H4 H 0.4445 0.2260 0.1431
C5 C 0.7741(4) 0.4051(3) 0.2036(3)
C6 C 0.8874(4) 0.4544(4) 0.1275(3)
H5 H 0.9094 0.4044 0.0607
H6 H 0.9852 0.4273 0.1699
H7 H 0.8398 0.5627 0.1035
C7 C 0.7876(3) 0.3787(3) 0.3238(2)
C8 C 0.6815(3) 0.3277(3) 0.3890(3)
C9 C 0.6987(3) 0.2934(3) 0.5161(3)
H8 H 0.7097 0.3673 0.5524
C10 C 0.7005(4) 0.1702(4) 0.5844(3)
H9 H 0.6852 0.0968 0.5501
C11 C 0.7248(4) 0.1402(4) 0.7107(3)
C12 C 0.6999(5) 0.2556(4) 0.7737(3)
H10 H 0.6629 0.3559 0.7362
C13 C 0.7288(6) 0.2248(6) 0.8909(4)
H11 H 0.7136 0.3037 0.9318
C14 C 0.7795(6) 0.0797(6) 0.9468(4)
H12 H 0.7988 0.0594 1.0262
C15 C 0.8026(6) -0.0374(6) 0.8876(4)
H13 H 0.8371 -0.1371 0.9263
C16 C 0.7739(5) -0.0056(4) 0.7694(3)
H14 H 0.7884 -0.0848 0.7290
C17 C 0.9169(3) 0.3990(3) 0.3845(3)
C18 C 0.3220(5) 0.1458(5) 0.7596(4)
H15 H 0.2358 0.2189 0.7952
H16 H 0.4031 0.1844 0.7393
H17 H 0.3664 0.0520 0.8127
C19 C 0.1382(4) 0.0566(4) 0.6850(4)
H18 H 0.1822 -0.0350 0.7404
H19 H 0.1033 0.0343 0.6168
H20 H 0.0490 0.1305 0.7176
Zn1A Zn 0.81451(4) 0.69772(4) 0.46949(3)
Zn1_2 Zn 1.18549(4) 0.30228(4) 0.53051(3)
Zn1A_2 Zn -0.18549(4) 0.69772(4) 0.46949(3)
O1A O 0.6671(2) 0.6283(2) 0.5576(2)
O2A O 0.5626(3) 0.8602(2) 0.6027(2)
O3A O -0.0213(2) 0.7182(2) 0.55957(19)
O3_2 O 0.0213(2) 0.2818(2) 0.44043(19)
O3A_2 O 0.9787(2) 0.7182(2) 0.55957(19)
O4A O 0.0823(2) 0.4697(2) 0.62438(18)
N1A N 0.3405(3) 0.6129(3) 0.8528(2)
N2A N 0.7383(3) 0.8817(3) 0.3455(2)
H1A H 0.660(3) 0.949(3) 0.372(3)
C1A C 0.5641(3) 0.7313(3) 0.6061(3)
C2A C 0.4383(3) 0.6880(3) 0.6707(3)
C3A C 0.4456(4) 0.6571(3) 0.7913(3)
C4A C 0.5744(4) 0.6687(4) 0.8598(3)
H2A H 0.5737 0.6227 0.9386
H3A H 0.6763 0.6167 0.8277
H4A H 0.5555 0.7740 0.8569
C5A C 0.2259(4) 0.5949(3) 0.7964(3)
C6A C 0.1126(4) 0.5456(4) 0.8725(3)
H5A H 0.0906 0.5956 0.9393
H6A H 0.0148 0.5727 0.8301
H7A H 0.1602 0.4373 0.8965
C7A C 0.2124(3) 0.6213(3) 0.6762(2)
C8A C 0.3185(3) 0.6723(3) 0.6110(3)
C9A C 0.3013(3) 0.7066(3) 0.4839(3)
H8A H 0.2903 0.6327 0.4476
C10A C 0.2995(4) 0.8298(4) 0.4156(3)
H9A H 0.3148 0.9032 0.4499
C11A C 0.2752(4) 0.8598(4) 0.2893(3)
C12A C 0.3001(5) 0.7444(4) 0.2263(3)
H10A H 0.3371 0.6441 0.2638
C13A C 0.2712(6) 0.7752(6) 0.1091(4)
H11A H 0.2864 0.6963 0.0682
C14A C 0.2205(6) 0.9203(6) 0.0532(4)
H12A H 0.2012 0.9406 -0.0262
C15A C 0.1974(6) 1.0374(6) 0.1124(4)
H13A H 0.1629 1.1371 0.0737
C16A C 0.2261(5) 1.0056(4) 0.2306(3)
H14A H 0.2116 1.0848 0.2710
C17A C 0.0831(3) 0.6010(3) 0.6155(3)
C18A C 0.6780(5) 0.8542(5) 0.2404(4)
H15A H 0.7642 0.7811 0.2048
H16A H 0.5969 0.8156 0.2607
H17A H 0.6336 0.9480 0.1873
C19A C 0.8618(4) 0.9434(4) 0.3150(4)
H18A H 0.8178 1.0350 0.2596
H19A H 0.8967 0.9657 0.3832
H20A H 0.9510 0.8695 0.2824
loop_
_geom_bond_atom_site_label_1
_geom_bond_atom_site_label_2
_geom_bond_site_symmetry_1
_geom_bond_site_symmetry_2
Zn1 O1 1_555 1_555
O1 C1 1_555 1_555
O2 C1 1_555 1_555
O3 C17 1_555 1_555
O4 C17 1_555 1_555
N1 C3 1_555 1_555
N2 Zn1 1_555 1_555
H1 N2 1_555 1_555
C1 C2 1_555 1_555
C2 C3 1_555 1_555
C3 C4 1_555 1_555
C4 H2 1_555 1_555
H3 C4 1_555 1_555
H4 C4 1_555 1_555
C5 N1 1_555 1_555
C6 C5 1_555 1_555
H5 C6 1_555 1_555
H6 C6 1_555 1_555
H7 C6 1_555 1_555
C7 C5 1_555 1_555
C8 C2 1_555 1_555
C9 C8 1_555 1_555
H8 C9 1_555 1_555
C10 C9 1_555 1_555
H9 C10 1_555 1_555
C11 C10 1_555 1_555
C12 C11 1_555 1_555
H10 C12 1_555 1_555
C13 C12 1_555 1_555
H11 C13 1_555 1_555
C14 C13 1_555 1_555
H12 C14 1_555 1_555
C15 C14 1_555 1_555
H13 C15 1_555 1_555
C16 C11 1_555 1_555
H14 C16 1_555 1_555
C17 C7 1_555 1_555
C18 N2 1_555 1_555
H15 C18 1_555 1_555
H16 C18 1_555 1_555
H17 C18 1_555 1_555
C19 N2 1_555 1_555
H18 C19 1_555 1_555
H19 C19 1_555 1_555
H20 C19 1_555 1_555
Zn1A O4 1_555 1_555
Zn1_2 O3 1_555 1_555
Zn1A_2 O3A 1_555 1_555
O1A Zn1A 1_555 1_555
O2A C1A 1_555 1_555
O3A C17A 1_555 1_555
O3_2 Zn1 1_555 1_555
O3A_2 Zn1A 1_555 1_555
O4A Zn1 1_555 1_555
N1A C3A 1_555 1_555
N2A Zn1A 1_555 1_555
H1A N2A 1_555 1_555
C1A O1A 1_555 1_555
C2A C1A 1_555 1_555
C3A C2A 1_555 1_555
C4A C3A 1_555 1_555
H2A C4A 1_555 1_555
H3A C4A 1_555 1_555
H4A C4A 1_555 1_555
C5A N1A 1_555 1_555
C6A C5A 1_555 1_555
H5A C6A 1_555 1_555
H6A C6A 1_555 1_555
H7A C6A 1_555 1_555
C7A C5A 1_555 1_555
C8A C2A 1_555 1_555
C9A C8A 1_555 1_555
H8A C9A 1_555 1_555
C10A C9A 1_555 1_555
H9A C10A 1_555 1_555
C11A C10A 1_555 1_555
C12A C11A 1_555 1_555
H10A C12A 1_555 1_555
C13A C12A 1_555 1_555
H11A C13A 1_555 1_555
C14A C13A 1_555 1_555
H12A C14A 1_555 1_555
C15A C14A 1_555 1_555
H13A C15A 1_555 1_555
C16A C11A 1_555 1_555
H14A C16A 1_555 1_555
C17A O4A 1_555 1_555
C18A N2A 1_555 1_555
H15A C18A 1_555 1_555
H16A C18A 1_555 1_555
H17A C18A 1_555 1_555
C19A N2A 1_555 1_555
H18A C19A 1_555 1_555
H19A C19A 1_555 1_555
H20A C19A 1_555 1_555
C7 C8 1_555 1_555
C15 C16 1_555 1_555
C7A C8A 1_555 1_555
C7A C17A 1_555 1_555
C15A C16A 1_555 1_555

#END
