
#######################################################################
#
#                 Cambridge Crystallographic Data Centre
#                                CCDC 
#
#######################################################################
#
# If this CIF has been generated from an entry in the Cambridge 
# Structural Database, then it will include bibliographic, chemical, 
# crystal, experimental, refinement or atomic coordinate data resulting 
# from the CCDC's data processing and validation procedures.
#
#######################################################################

data_HAXYOW
_symmetry_cell_setting           triclinic
_symmetry_space_group_name_H-M   'P -1'
_symmetry_Int_Tables_number      2
_space_group_name_Hall           '-P 1'
loop_
_symmetry_equiv_pos_site_id
_symmetry_equiv_pos_as_xyz
1 x,y,z
2 -x,-y,-z
_cell_length_a                   7.94110(10)
_cell_length_b                   13.0312(2)
_cell_length_c                   13.6564(2)
_cell_angle_alpha                97.3560(10)
_cell_angle_beta                 97.1200(10)
_cell_angle_gamma                103.7390(10)
_cell_volume                     1343.87
loop_
_atom_site_label
_atom_site_type_symbol
_atom_site_fract_x
_atom_site_fract_y
_atom_site_fract_z
Sm1 Sm 0.231707(9) 0.462033(5) 0.480253(5)
O1 O 0.06012(15) 0.55519(9) 0.59671(8)
O2 O 0.07151(18) 0.32289(11) 0.56401(11)
H1 H -0.034(2) 0.318(2) 0.5643(17)
H2 H 0.109(3) 0.312(2) 0.6205(14)
O3 O 0.32583(16) 0.54888(12) 0.65526(9)
O5 O 0.4554(2) 0.56809(15) 1.19165(12)
H5 H 0.401(3) 0.5246(19) 1.2314(18)
O6 O 0.51185(15) 0.59885(9) 0.47391(9)
O7 O 0.26831(15) 0.64608(9) 0.43899(10)
O8 O 1.0331(2) 1.09500(12) 0.39523(14)
H6 H 1.080(3) 1.1627(15) 0.382(2)
O9 O 0.19076(17) 0.29241(9) 0.36232(9)
O10 O 0.28389(16) 0.44152(9) 0.30584(9)
O11 O 0.3333(5) 0.1288(2) -0.16532(17)
H7 H 0.351(6) 0.077(3) -0.215(3)
C1 C 0.3318(3) 0.59470(16) 1.12695(14)
C2 C 0.1850(3) 0.62021(18) 1.15591(15)
H8 H 0.1672 0.6218 1.2221
C3 C 0.0638(3) 0.6435(2) 1.08592(16)
H9 H -0.0346 0.6618 1.1056
C4 C 0.0877(3) 0.63986(18) 0.98720(15)
H10 H 0.0039 0.6541 0.9406
C5 C 0.2359(3) 0.61510(15) 0.95721(14)
C6 C 0.3595(3) 0.59493(16) 1.02878(14)
H11 H 0.4621 0.5814 1.0104
C7 C 0.2629(2) 0.60020(16) 0.85277(14)
H12 H 0.3726 0.5922 0.8417
C8 C 0.1498(2) 0.59684(16) 0.77289(13)
H13 H 0.0447 0.6140 0.7811
C9 C 0.1830(2) 0.56691(14) 0.67091(13)
C10 C 0.8553(3) 1.07639(15) 0.38269(15)
C11 C 0.7683(3) 1.14997(15) 0.35253(16)
H14 H 0.8315 1.2160 0.3411
C12 C 0.5879(3) 1.12497(16) 0.33946(18)
H15 H 0.5299 1.1749 0.3196
C13 C 0.4906(3) 1.02652(16) 0.35534(17)
H16 H 0.3686 1.0104 0.3454
C14 C 0.5770(3) 0.95222(14) 0.38628(14)
C15 C 0.7603(3) 0.97840(14) 0.40027(15)
H17 H 0.8194 0.9296 0.4216
C16 C 0.4745(3) 0.84864(14) 0.40343(14)
H18 H 0.3529 0.8359 0.3920
C17 C 0.5399(2) 0.77163(14) 0.43369(14)
H19 H 0.6614 0.7836 0.4458
C18 C 0.4330(2) 0.66875(13) 0.44924(12)
C19 C 0.2960(5) 0.0830(2) -0.0827(2)
C20 C 0.2780(5) -0.0240(2) -0.0819(2)
H20 H 0.2905 -0.0681 -0.1383
C21 C 0.2415(5) -0.0653(2) 0.0023(3)
H21 H 0.2308 -0.1377 0.0036
C22 C 0.2202(4) -0.0002(2) 0.0858(2)
H22 H 0.1926 -0.0294 0.1422
C23 C 0.2398(3) 0.10820(18) 0.08566(17)
C24 C 0.2779(4) 0.1496(2) 0.00018(18)
H23 H 0.2912 0.2222 -0.0014
C25 C 0.2225(3) 0.17526(16) 0.17687(15)
H24 H 0.1776 0.1391 0.2262
C26 C 0.2632(3) 0.28090(15) 0.19707(14)
H25 H 0.3052 0.3196 0.1486
C27 C 0.2452(2) 0.34016(14) 0.29289(13)
Sm1A Sm -0.231707(9) 0.537967(5) 0.519747(5)
Sm1A_2 Sm 0.768293(9) 0.537967(5) 0.519747(5)
O1A O -0.06012(15) 0.44481(9) 0.40329(8)
O6A O 0.48815(15) 0.40115(9) 0.52609(9)
O4 O 0.7925(2) 0.70266(18) 0.25319(14)
H3 H 0.786(4) 0.7600(17) 0.232(3)
H4 H 0.697(3) 0.661(2) 0.232(3)
loop_
_geom_bond_atom_site_label_1
_geom_bond_atom_site_label_2
_geom_bond_site_symmetry_1
_geom_bond_site_symmetry_2
Sm1 O1 1_555 1_555
O1 C9 1_555 1_555
O2 Sm1 1_555 1_555
H1 O2 1_555 1_555
H2 O2 1_555 1_555
O3 Sm1 1_555 1_555
O4 H3 1_555 1_555
H4 O4 1_555 1_555
O5 H5 1_555 1_555
O6 Sm1 1_555 1_555
O7 Sm1 1_555 1_555
O8 H6 1_555 1_555
O9 Sm1 1_555 1_555
O10 Sm1 1_555 1_555
O11 H7 1_555 1_555
C1 O5 1_555 1_555
C2 C1 1_555 1_555
H8 C2 1_555 1_555
C3 C2 1_555 1_555
H9 C3 1_555 1_555
C4 C3 1_555 1_555
H10 C4 1_555 1_555
C5 C4 1_555 1_555
C6 C1 1_555 1_555
H11 C6 1_555 1_555
C7 C5 1_555 1_555
H12 C7 1_555 1_555
C8 C7 1_555 1_555
H13 C8 1_555 1_555
C9 O3 1_555 1_555
C10 O8 1_555 1_555
C11 C10 1_555 1_555
H14 C11 1_555 1_555
C12 C11 1_555 1_555
H15 C12 1_555 1_555
C13 C12 1_555 1_555
H16 C13 1_555 1_555
C14 C13 1_555 1_555
C15 C10 1_555 1_555
H17 C15 1_555 1_555
C16 C14 1_555 1_555
H18 C16 1_555 1_555
C17 C16 1_555 1_555
H19 C17 1_555 1_555
C18 O6 1_555 1_555
C19 O11 1_555 1_555
C20 C19 1_555 1_555
H20 C20 1_555 1_555
C21 C20 1_555 1_555
H21 C21 1_555 1_555
C22 C21 1_555 1_555
H22 C22 1_555 1_555
C23 C22 1_555 1_555
C24 C19 1_555 1_555
H23 C24 1_555 1_555
C25 C23 1_555 1_555
H24 C25 1_555 1_555
C26 C25 1_555 1_555
H25 C26 1_555 1_555
C27 O9 1_555 1_555
Sm1A O1 1_555 1_555
Sm1A_2 O6 1_555 1_555
O1A Sm1 1_555 1_555
O6A Sm1 1_555 1_555
O7 C18 1_555 1_555
O10 C27 1_555 1_555
C5 C6 1_555 1_555
C8 C9 1_555 1_555
C14 C15 1_555 1_555
C17 C18 1_555 1_555
C23 C24 1_555 1_555
C26 C27 1_555 1_555
Sm1A O1A 1_555 1_555
Sm1A_2 O6A 1_555 1_555

#END
