
#######################################################################
#
#                 Cambridge Crystallographic Data Centre
#                                CCDC 
#
#######################################################################
#
# If this CIF has been generated from an entry in the Cambridge 
# Structural Database, then it will include bibliographic, chemical, 
# crystal, experimental, refinement or atomic coordinate data resulting 
# from the CCDC's data processing and validation procedures.
#
#######################################################################

data_HAYCOB
_symmetry_cell_setting           monoclinic
_symmetry_space_group_name_H-M   'P 21/n'
_symmetry_Int_Tables_number      14
_space_group_name_Hall           '-P 2yn'
loop_
_symmetry_equiv_pos_site_id
_symmetry_equiv_pos_as_xyz
1 x,y,z
2 1/2-x,1/2+y,1/2-z
3 -x,-y,-z
4 1/2+x,1/2-y,1/2+z
_cell_length_a                   5.5781(11)
_cell_length_b                   12.931(3)
_cell_length_c                   9.810(2)
_cell_angle_alpha                90
_cell_angle_beta                 97.69(3)
_cell_angle_gamma                90
_cell_volume                     701.236
loop_
_atom_site_label
_atom_site_type_symbol
_atom_site_fract_x
_atom_site_fract_y
_atom_site_fract_z
Cu1 Cu 0.25060(7) 0.99881(3) 0.51220(4)
Br1 Br 0.02520(5) 1.07438(2) 0.68746(3)
S1 S 0.52061(14) 0.86702(6) 0.58000(7)
N1 N 0.5464(5) 0.9389(2) 0.8453(3)
H1 H 0.417(5) 0.976(2) 0.838(4)
N2 N 0.6910(5) 0.9341(2) 0.9706(3)
N3 N 0.8341(4) 0.83717(19) 0.8149(3)
C1 C 0.6309(5) 0.8819(2) 0.7499(3)
C2 C 0.8636(6) 0.8719(2) 0.9480(3)
H2 H 0.9944 0.8528 1.0154
C3 C 0.9938(6) 0.7674(2) 0.7517(3)
H3 H 0.9086 0.7025 0.7263
H4 H 1.1385 0.7530 0.8173
H5 H 1.0414 0.7999 0.6692
Cu1B Cu -0.25060(7) 1.00119(3) 0.48780(4)
Cu1B_2 Cu 0.74940(7) 1.00119(3) 0.48780(4)
Br1B Br -0.02520(5) 0.92562(2) 0.31254(3)
S1B S 0.47939(14) 1.13298(6) 0.42000(7)
loop_
_geom_bond_atom_site_label_1
_geom_bond_atom_site_label_2
_geom_bond_site_symmetry_1
_geom_bond_site_symmetry_2
Cu1 Br1 1_555 1_555
Br1 Cu1B 1_555 1_555
S1 Cu1 1_555 1_555
N1 H1 1_555 1_555
N2 N1 1_555 1_555
N3 C1 1_555 1_555
C1 S1 1_555 1_555
C2 N2 1_555 1_555
H2 C2 1_555 1_555
C3 N3 1_555 1_555
H3 C3 1_555 1_555
H4 C3 1_555 1_555
H5 C3 1_555 1_555
Cu1B Br1B 1_555 1_555
Cu1B_2 S1 1_555 1_555
Br1B Cu1 1_555 1_555
S1B Cu1 1_555 1_555
N1 C1 1_555 1_555
N3 C2 1_555 1_555
Cu1B_2 S1B 1_555 1_555

#END
