
#######################################################################
#
#                 Cambridge Crystallographic Data Centre
#                                CCDC 
#
#######################################################################
#
# If this CIF has been generated from an entry in the Cambridge 
# Structural Database, then it will include bibliographic, chemical, 
# crystal, experimental, refinement or atomic coordinate data resulting 
# from the CCDC's data processing and validation procedures.
#
#######################################################################

data_HAYDOC
_symmetry_cell_setting           orthorhombic
_symmetry_space_group_name_H-M   'P n a 21'
_symmetry_Int_Tables_number      33
_space_group_name_Hall           'P 2c -2n'
loop_
_symmetry_equiv_pos_site_id
_symmetry_equiv_pos_as_xyz
1 x,y,z
2 -x,-y,1/2+z
3 1/2-x,1/2+y,1/2+z
4 1/2+x,1/2-y,z
_cell_length_a                   34.050(4)
_cell_length_b                   14.1831(10)
_cell_length_c                   7.8764(6)
_cell_angle_alpha                90
_cell_angle_beta                 90
_cell_angle_gamma                90
_cell_volume                     3803.79
loop_
_atom_site_label
_atom_site_type_symbol
_atom_site_fract_x
_atom_site_fract_y
_atom_site_fract_z
Zn1 Zn 0.446526(19) 0.36444(4) 0.62772(9)
Cl1 Cl 0.53270(7) 0.15962(15) -0.2478(2)
O1 O 0.48307(15) 0.3004(3) 0.4755(5)
O2 O 0.47741(14) 0.4839(3) 0.7036(6)
H1 H 0.4918 0.5028 0.6220
H2 H 0.4881 0.4524 0.7830
O3 O 0.45488(16) 0.3521(3) 0.2380(6)
O4 O 0.46114(11) 0.2980(3) -0.1501(5)
O5 O 0.51092(14) 0.3849(3) -0.0516(5)
N1 N 0.39925(14) 0.4462(3) 0.5397(6)
N2 N 0.39966(14) 0.2639(3) 0.6065(7)
C1 C 0.47656(19) 0.2992(5) 0.3164(7)
C2 C 0.49032(19) 0.3121(4) -0.0579(7)
C4 C 0.49776(19) 0.2223(4) 0.2198(7)
C5 C 0.50368(18) 0.2278(4) 0.0461(7)
C6 C 0.5226(2) 0.1537(4) -0.0331(9)
C7 C 0.5346(2) 0.0737(5) 0.0544(9)
H6 H 0.5470 0.0246 -0.0028
C8 C 0.5282(2) 0.0680(5) 0.2251(9)
H7 H 0.5356 0.0143 0.2846
C9 C 0.5105(2) 0.1420(4) 0.3089(8)
H8 H 0.5071 0.1388 0.4258
C18 C 0.4015(2) 0.5397(4) 0.5072(9)
H12 H 0.4248 0.5717 0.5298
C19 C 0.3702(2) 0.5882(4) 0.4417(9)
H13 H 0.3724 0.6526 0.4209
C20 C 0.3356(2) 0.5428(4) 0.4066(8)
C21 C 0.33365(19) 0.4466(4) 0.4388(8)
H14 H 0.3105 0.4136 0.4181
C22 C 0.36621(18) 0.4002(4) 0.5020(7)
C23 C 0.36610(18) 0.2978(4) 0.5409(7)
C24 C 0.33407(19) 0.2400(4) 0.5094(8)
H15 H 0.3112 0.2650 0.4631
C25 C 0.3363(2) 0.1447(4) 0.5475(9)
C26 C 0.3715(2) 0.1119(4) 0.6178(11)
H16 H 0.3743 0.0485 0.6453
C27 C 0.4011(2) 0.1728(4) 0.6454(9)
H17 H 0.4240 0.1497 0.6947
C28 C 0.3001(2) 0.5942(5) 0.3372(12)
H18 H 0.2881 0.6302 0.4263
H19 H 0.2816 0.5492 0.2937
H20 H 0.3082 0.6357 0.2475
C29 C 0.3008(2) 0.0812(5) 0.5202(10)
H21 H 0.2998 0.0345 0.6084
H22 H 0.3029 0.0506 0.4119
H23 H 0.2772 0.1184 0.5233
Zn1_2 Zn 0.446526(19) 0.36444(4) -0.37228(9)
O4_2 O 0.46114(11) 0.2980(3) 0.8499(5)
Zn2 Zn 0.73030(2) 0.67276(5) 0.37248(10)
Cl2 Cl 0.84880(6) 0.65033(13) 1.2682(2)
O6 O 0.77114(14) 0.6635(4) 0.5400(6)
O7 O 0.73636(14) 0.6683(4) 0.7724(6)
O8 O 0.75751(13) 0.7136(3) 1.1661(5)
O9 O 0.76227(13) 0.5605(3) 1.1177(7)
N3 N 0.68490(14) 0.5810(3) 0.3955(6)
N4 N 0.68816(15) 0.7651(3) 0.4601(6)
C3 C 0.5919(2) 0.9246(5) 0.6602(12)
H3 H 0.5960 0.9384 0.7781
H4 H 0.5682 0.8888 0.6473
H5 H 0.5898 0.9824 0.5975
C10 C 0.7673(2) 0.6666(5) 0.7003(9)
C11 C 0.77225(18) 0.6434(4) 1.0906(7)
C12 C 0.80563(19) 0.6689(4) 0.7983(7)
C13 C 0.80732(19) 0.6604(4) 0.9751(7)
C14 C 0.8441(2) 0.6620(4) 1.0484(8)
C15 C 0.8786(2) 0.6732(4) 0.9570(9)
H9 H 0.9028 0.6751 1.0115
C16 C 0.8759(2) 0.6812(5) 0.7839(10)
H10 H 0.8986 0.6874 0.7192
C17 C 0.8403(2) 0.6802(4) 0.7065(7)
H11 H 0.8390 0.6873 0.5892
C30 C 0.6922(2) 0.8562(5) 0.4932(10)
H24 H 0.7161 0.8853 0.4702
C31 C 0.6618(2) 0.9098(4) 0.5612(9)
H25 H 0.6656 0.9734 0.5847
C32 C 0.62615(19) 0.8681(4) 0.5935(9)
C33 C 0.62257(19) 0.7715(4) 0.5612(8)
H26 H 0.5989 0.7408 0.5827
C34 C 0.65364(19) 0.7224(4) 0.4983(7)
C35 C 0.65222(19) 0.6193(4) 0.4647(7)
C36 C 0.61938(19) 0.5652(4) 0.5012(7)
H27 H 0.5973 0.5938 0.5480
C37 C 0.6189(2) 0.4691(4) 0.4691(8)
C38 C 0.6532(2) 0.4317(4) 0.3981(10)
H28 H 0.6547 0.3676 0.3745
C39 C 0.6845(2) 0.4887(4) 0.3632(10)
H29 H 0.7067 0.4617 0.3144
C40 C 0.5834(2) 0.4107(5) 0.5081(10)
H30 H 0.5900 0.3642 0.5920
H31 H 0.5746 0.3799 0.4066
H32 H 0.5629 0.4506 0.5509
Zn2_2 Zn 0.73030(2) 0.67276(5) 1.37248(10)
O8_2 O 0.75751(13) 0.7136(3) 0.1661(5)
loop_
_geom_bond_atom_site_label_1
_geom_bond_atom_site_label_2
_geom_bond_site_symmetry_1
_geom_bond_site_symmetry_2
Zn1 O1 1_555 1_555
Zn2 O6 1_555 1_555
Cl1 C6 1_555 1_555
Cl2 C14 1_555 1_555
O1 C1 1_555 1_555
O2 Zn1 1_555 1_555
H1 O2 1_555 1_555
H2 O2 1_555 1_555
O3 C1 1_555 1_555
O4 C2 1_555 1_555
O5 C2 1_555 1_555
O6 C10 1_555 1_555
O7 C10 1_555 1_555
O8 C11 1_555 1_555
O9 C11 1_555 1_555
N1 Zn1 1_555 1_555
N2 Zn1 1_555 1_555
N3 Zn2 1_555 1_555
N4 Zn2 1_555 1_555
C1 C4 1_555 1_555
C2 C5 1_555 1_555
C3 H3 1_555 1_555
H4 C3 1_555 1_555
H5 C3 1_555 1_555
C4 C5 1_555 1_555
C5 C6 1_555 1_555
C6 C7 1_555 1_555
C7 H6 1_555 1_555
C8 C7 1_555 1_555
H7 C8 1_555 1_555
C9 C4 1_555 1_555
H8 C9 1_555 1_555
C10 C12 1_555 1_555
C11 C13 1_555 1_555
C12 C13 1_555 1_555
C13 C14 1_555 1_555
C14 C15 1_555 1_555
C15 H9 1_555 1_555
C16 C15 1_555 1_555
H10 C16 1_555 1_555
C17 C12 1_555 1_555
H11 C17 1_555 1_555
C18 N1 1_555 1_555
H12 C18 1_555 1_555
C19 C18 1_555 1_555
H13 C19 1_555 1_555
C20 C19 1_555 1_555
C21 C20 1_555 1_555
H14 C21 1_555 1_555
C22 N1 1_555 1_555
C23 N2 1_555 1_555
C24 C23 1_555 1_555
H15 C24 1_555 1_555
C25 C24 1_555 1_555
C26 C25 1_555 1_555
H16 C26 1_555 1_555
C27 N2 1_555 1_555
H17 C27 1_555 1_555
C28 C20 1_555 1_555
H18 C28 1_555 1_555
H19 C28 1_555 1_555
H20 C28 1_555 1_555
C29 C25 1_555 1_555
H21 C29 1_555 1_555
H22 C29 1_555 1_555
H23 C29 1_555 1_555
C30 N4 1_555 1_555
H24 C30 1_555 1_555
C31 C30 1_555 1_555
H25 C31 1_555 1_555
C32 C3 1_555 1_555
C33 C32 1_555 1_555
H26 C33 1_555 1_555
C34 N4 1_555 1_555
C35 N3 1_555 1_555
C36 C35 1_555 1_555
H27 C36 1_555 1_555
C37 C36 1_555 1_555
C38 C37 1_555 1_555
H28 C38 1_555 1_555
C39 N3 1_555 1_555
H29 C39 1_555 1_555
C40 C37 1_555 1_555
H30 C40 1_555 1_555
H31 C40 1_555 1_555
H32 C40 1_555 1_555
Zn1_2 O4 1_555 1_555
Zn2_2 O8 1_555 1_555
O4_2 Zn1 1_555 1_555
O8_2 Zn2 1_555 1_555
C8 C9 1_555 1_555
C16 C17 1_555 1_555
C21 C22 1_555 1_555
C22 C23 1_555 1_555
C26 C27 1_555 1_555
C31 C32 1_555 1_555
C33 C34 1_555 1_555
C34 C35 1_555 1_555
C38 C39 1_555 1_555

#END
