
#######################################################################
#
#                 Cambridge Crystallographic Data Centre
#                                CCDC 
#
#######################################################################
#
# If this CIF has been generated from an entry in the Cambridge 
# Structural Database, then it will include bibliographic, chemical, 
# crystal, experimental, refinement or atomic coordinate data resulting 
# from the CCDC's data processing and validation procedures.
#
#######################################################################

data_HAYGIZ
_symmetry_cell_setting           monoclinic
_symmetry_space_group_name_H-M   'P 21/c'
_symmetry_Int_Tables_number      14
_space_group_name_Hall           '-P 2ybc'
loop_
_symmetry_equiv_pos_site_id
_symmetry_equiv_pos_as_xyz
1 x,y,z
2 -x,1/2+y,1/2-z
3 -x,-y,-z
4 x,1/2-y,1/2+z
_cell_length_a                   10.077(2)
_cell_length_b                   8.1235(16)
_cell_length_c                   17.101(3)
_cell_angle_alpha                90
_cell_angle_beta                 124.86(3)
_cell_angle_gamma                90
_cell_volume                     1148.69
loop_
_atom_site_label
_atom_site_type_symbol
_atom_site_fract_x
_atom_site_fract_y
_atom_site_fract_z
Zn1 Zn 0.44202(7) 0.83143(7) 0.20225(4)
O1 O 0.6292(4) 0.8216(4) 0.3472(2)
O2 O 0.5778(4) 1.0836(4) 0.3099(2)
O3 O 1.1259(4) 1.3677(4) 0.7066(2)
O4 O 0.9191(5) 1.4792(4) 0.5739(3)
O5 O 0.3262(4) 0.9960(4) 0.1007(3)
H1 H 0.334(6) 1.097(3) 0.110(3)
H2 H 0.244(4) 0.976(5) 0.047(2)
C1 C 0.6580(5) 0.9708(5) 0.3707(3)
C2 C 0.7857(5) 1.0133(5) 0.4697(3)
O6 O 0.8150(4) 1.1781(3) 0.4901(2)
C3 C 0.9431(6) 1.1887(6) 0.5841(3)
C4 C 0.9904(6) 1.0374(6) 0.6215(4)
H3 H 1.0737 1.0123 0.6841
C5 C 0.8892(6) 0.9213(6) 0.5474(3)
H4 H 0.8937 0.8071 0.5519
C6 C 0.9997(6) 1.3588(6) 0.6231(4)
O7 O 0.6257(4) 0.8255(5) 0.1789(3)
H5 H 0.708(5) 0.785(7) 0.224(3)
C7 C 0.5999(8) 0.8006(8) 0.0889(4)
H6 H 0.5788 0.6861 0.0722
H7 H 0.6945 0.8338 0.0923
H8 H 0.5089 0.8649 0.0414
O8 O 0.2706(5) 0.8407(4) 0.2328(3)
H9 H 0.225(6) 0.931(4) 0.214(4)
C8 C 0.2859(9) 0.7722(8) 0.3147(5)
H10 H 0.3299 0.6631 0.3258
H11 H 0.1814 0.7675 0.3038
H12 H 0.3566 0.8399 0.3692
Zn1A Zn 0.55798(7) 1.33143(7) 0.29775(4)
O2A O 0.4222(4) 0.5836(4) 0.1901(2)
loop_
_geom_bond_atom_site_label_1
_geom_bond_atom_site_label_2
_geom_bond_site_symmetry_1
_geom_bond_site_symmetry_2
Zn1 O1 1_555 1_555
O1 C1 1_555 1_555
O2 Zn1 1_555 1_555
O3 C6 1_555 1_555
O4 C6 1_555 1_555
O5 Zn1 1_555 1_555
H1 O5 1_555 1_555
H2 O5 1_555 1_555
C1 O2 1_555 1_555
C2 C1 1_555 1_555
O6 C2 1_555 1_555
C3 O6 1_555 1_555
C4 C3 1_555 1_555
H3 C4 1_555 1_555
C5 C2 1_555 1_555
H4 C5 1_555 1_555
C6 C3 1_555 1_555
O7 Zn1 1_555 1_555
H5 O7 1_555 1_555
C7 O7 1_555 1_555
H6 C7 1_555 1_555
H7 C7 1_555 1_555
H8 C7 1_555 1_555
O8 Zn1 1_555 1_555
H9 O8 1_555 1_555
C8 O8 1_555 1_555
H10 C8 1_555 1_555
H11 C8 1_555 1_555
H12 C8 1_555 1_555
Zn1A O2 1_555 1_555
O2A Zn1 1_555 1_555
C4 C5 1_555 1_555

#END
