
#######################################################################
#
#                 Cambridge Crystallographic Data Centre
#                                CCDC 
#
#######################################################################
#
# If this CIF has been generated from an entry in the Cambridge 
# Structural Database, then it will include bibliographic, chemical, 
# crystal, experimental, refinement or atomic coordinate data resulting 
# from the CCDC's data processing and validation procedures.
#
#######################################################################

data_HAYJIC
_symmetry_cell_setting           monoclinic
_symmetry_space_group_name_H-M   'P 21/n'
_symmetry_Int_Tables_number      14
_space_group_name_Hall           '-P 2yn'
loop_
_symmetry_equiv_pos_site_id
_symmetry_equiv_pos_as_xyz
1 x,y,z
2 1/2-x,1/2+y,1/2-z
3 -x,-y,-z
4 1/2+x,1/2-y,1/2+z
_cell_length_a                   10.8061(3)
_cell_length_b                   9.9466(3)
_cell_length_c                   18.4288(5)
_cell_angle_alpha                90
_cell_angle_beta                 98.230(3)
_cell_angle_gamma                90
_cell_volume                     1960.4
loop_
_atom_site_label
_atom_site_type_symbol
_atom_site_fract_x
_atom_site_fract_y
_atom_site_fract_z
C1 C 0.6485(3) 0.3186(3) 0.37306(16)
C2 C 0.5674(3) 0.2730(3) 0.41963(17)
H1 H 0.5350 0.3328 0.4508
C3 C 0.5348(3) 0.1389(4) 0.4196(2)
H2 H 0.4799 0.1099 0.4509
C4 C 0.5814(3) 0.0464(4) 0.3743(2)
C5 C 0.6608(3) 0.0938(4) 0.3271(2)
H3 H 0.6920 0.0341 0.2953
C6 C 0.6943(3) 0.2273(4) 0.32633(18)
H4 H 0.7479 0.2566 0.2944
C7 C 0.5484(4) -0.1011(4) 0.3759(3)
H5 H 0.5897 -0.1488 0.3410
H6 H 0.4596 -0.1117 0.3637
H7 H 0.5750 -0.1364 0.4241
C8 C 0.9014(3) 0.4156(3) 0.66123(17)
H8 H 0.9868 0.4291 0.6622
C9 C 0.8610(3) 0.3436(3) 0.71756(16)
H9 H 0.9190 0.3081 0.7548
C10 C 0.7347(3) 0.3243(3) 0.71868(15)
C11 C 0.6536(3) 0.3777(3) 0.66073(16)
H10 H 0.5678 0.3675 0.6593
C12 C 0.6999(3) 0.4455(3) 0.60545(17)
H11 H 0.6438 0.4784 0.5665
C13 C 0.6866(3) 0.2504(3) 0.78054(17)
H12 H 0.6419 0.1708 0.7610
H13 H 0.7573 0.2211 0.8155
C14 C 0.5998(3) 0.3358(3) 0.82062(17)
H14 H 0.5670 0.2812 0.8571
H15 H 0.5297 0.3669 0.7858
C15 C 0.6673(3) 0.4540(4) 0.8572(2)
H16 H 0.7369 0.4208 0.8916
H17 H 0.7021 0.5053 0.8201
C16 C 0.5919(3) 0.5492(3) 0.89783(17)
C17 C 0.4734(3) 0.5934(3) 0.86888(18)
H18 H 0.4342 0.5596 0.8244
H19 H 0.3344 0.7176 0.8862
H20 H 0.6140 0.7266 1.0447
C18 C 0.4136(3) 0.6884(3) 0.90651(17)
C19 C 0.5775(3) 0.6939(3) 0.99934(17)
C20 C 0.6415(3) 0.6010(3) 0.96477(18)
H21 H 0.7198 0.5724 0.9869
N1 N 0.8229(2) 0.4665(2) 0.60532(13)
N2 N 0.4650(2) 0.7402(2) 0.97099(13)
O1 O 0.6460(2) 0.5548(2) 0.43292(12)
O2 O 0.6561(2) 0.5423(3) 0.30278(13)
O3 O 0.8348(2) 0.4792(2) 0.39088(14)
S1 S 0.69972(7) 0.48821(8) 0.37467(4)
Ag1 Ag 0.88538(2) 0.59100(3) 0.521998(14)
N2C N 0.9650(2) 0.7598(2) 0.47099(13)
Ag1C Ag 0.38538(2) 0.90900(3) 1.021998(14)
loop_
_geom_bond_atom_site_label_1
_geom_bond_atom_site_label_2
_geom_bond_site_symmetry_1
_geom_bond_site_symmetry_2
C1 C2 1_555 1_555
C2 H1 1_555 1_555
C3 C2 1_555 1_555
H2 C3 1_555 1_555
C4 C3 1_555 1_555
C5 C4 1_555 1_555
H3 C5 1_555 1_555
C6 C1 1_555 1_555
H4 C6 1_555 1_555
C7 C4 1_555 1_555
H5 C7 1_555 1_555
H6 C7 1_555 1_555
H7 C7 1_555 1_555
C8 H8 1_555 1_555
C9 C8 1_555 1_555
H9 C9 1_555 1_555
C10 C9 1_555 1_555
C11 C10 1_555 1_555
H10 C11 1_555 1_555
C12 C11 1_555 1_555
H11 C12 1_555 1_555
C13 C10 1_555 1_555
H12 C13 1_555 1_555
H13 C13 1_555 1_555
C14 C13 1_555 1_555
H14 C14 1_555 1_555
H15 C14 1_555 1_555
C15 C14 1_555 1_555
H16 C15 1_555 1_555
H17 C15 1_555 1_555
C16 C15 1_555 1_555
C17 C16 1_555 1_555
H18 C17 1_555 1_555
H19 C18 1_555 1_555
H20 C19 1_555 1_555
C18 C17 1_555 1_555
C19 C20 1_555 1_555
C20 C16 1_555 1_555
H21 C20 1_555 1_555
N1 C8 1_555 1_555
N2 C18 1_555 1_555
O1 S1 1_555 1_555
O2 S1 1_555 1_555
O3 S1 1_555 1_555
S1 C1 1_555 1_555
Ag1 N1 1_555 1_555
N2C Ag1 1_555 1_555
Ag1C N2 1_555 1_555
C5 C6 1_555 1_555
C12 N1 1_555 1_555
C19 N2 1_555 1_555
O3 Ag1 1_555 1_555

#END
