
#######################################################################
#
#                 Cambridge Crystallographic Data Centre
#                                CCDC 
#
#######################################################################
#
# If this CIF has been generated from an entry in the Cambridge 
# Structural Database, then it will include bibliographic, chemical, 
# crystal, experimental, refinement or atomic coordinate data resulting 
# from the CCDC's data processing and validation procedures.
#
#######################################################################

data_HAYKEZ
_symmetry_cell_setting           monoclinic
_symmetry_space_group_name_H-M   'P 21/c'
_symmetry_Int_Tables_number      14
_space_group_name_Hall           '-P 2ybc'
loop_
_symmetry_equiv_pos_site_id
_symmetry_equiv_pos_as_xyz
1 x,y,z
2 -x,1/2+y,1/2-z
3 -x,-y,-z
4 x,1/2-y,1/2+z
_cell_length_a                   7.3363(10)
_cell_length_b                   6.1934(9)
_cell_length_c                   25.219(4)
_cell_angle_alpha                90
_cell_angle_beta                 97.708(2)
_cell_angle_gamma                90
_cell_volume                     1135.51
loop_
_atom_site_label
_atom_site_type_symbol
_atom_site_fract_x
_atom_site_fract_y
_atom_site_fract_z
Cu1 Cu 0.0000 0.0000 0.5000
C1 C 0.1942(2) 0.1287(3) 0.35950(7)
C2 C 0.2239(2) 0.0738(3) 0.30431(7)
C3 C 0.1855(3) -0.1330(3) 0.28390(7)
H1 H 0.1428 -0.2387 0.3054
C4 C 0.2110(3) -0.1813(3) 0.23170(7)
H2 H 0.1839 -0.3193 0.2183
C5 C 0.2764(2) -0.0262(3) 0.19905(7)
C6 C 0.3139(3) 0.1795(3) 0.21932(7)
H3 H 0.3571 0.2848 0.1978
C7 C 0.2875(3) 0.2295(3) 0.27156(7)
H4 H 0.3126 0.3682 0.2847
C8 C 0.3083(3) -0.0898(3) 0.14277(7)
H5 H 0.4269 -0.1604 0.1444
H6 H 0.2147 -0.1928 0.1285
C9 C 0.1502(3) 0.1771(3) 0.07892(7)
H7 H 0.0324 0.1233 0.0800
C10 C 0.3754(3) 0.3717(4) 0.06022(8)
H8 H 0.4416 0.4790 0.0454
C11 C 0.4493(3) 0.2182(4) 0.09521(8)
H9 H 0.5727 0.2005 0.1087
N1 N 0.1185(2) 0.1067(3) 0.43685(6)
N2 N 0.1231(3) -0.0072(2) 0.39174(7)
N3 N 0.1844(2) 0.3016(3) 0.43178(6)
N4 N 0.2332(3) 0.3209(3) 0.38258(7)
N5 N 0.3034(2) 0.0945(3) 0.10656(6)
N6 N 0.1884(2) 0.3443(3) 0.05002(6)
O1 O -0.2368(3) 0.3145(3) 0.50004(7)
H10 H -0.214(4) 0.447(3) 0.5139(12)
H11 H -0.336(3) 0.265(5) 0.5113(12)
Cu1A Cu 0.0000 0.5000 0.0000
Cu1A_2 Cu 0.0000 -0.5000 1.0000
C1B C -0.1942(2) -0.1287(3) 0.64050(7)
C2B C -0.2239(2) -0.0738(3) 0.69569(7)
C3B C -0.1855(3) 0.1330(3) 0.71610(7)
H1B H -0.1428 0.2387 0.6946
C4B C -0.2110(3) 0.1813(3) 0.76830(7)
H2B H -0.1839 0.3193 0.7817
C5B C -0.2764(2) 0.0262(3) 0.80095(7)
C6B C -0.3139(3) -0.1795(3) 0.78068(7)
H3B H -0.3571 -0.2848 0.8022
C7B C -0.2875(3) -0.2295(3) 0.72844(7)
H4B H -0.3126 -0.3682 0.7153
C8B C -0.3083(3) 0.0898(3) 0.85723(7)
H5B H -0.4269 0.1604 0.8556
H6B H -0.2147 0.1928 0.8715
C9B C -0.1502(3) -0.1771(3) 0.92108(7)
H7B H -0.0324 -0.1233 0.9200
C10B C -0.3754(3) -0.3717(4) 0.93978(8)
H8B H -0.4416 -0.4790 0.9546
C11B C -0.4493(3) -0.2182(4) 0.90479(8)
H9B H -0.5727 -0.2005 0.8913
N1B N -0.1185(2) -0.1067(3) 0.56315(6)
N2B N -0.1231(3) 0.0072(2) 0.60826(7)
N3B N -0.1844(2) -0.3016(3) 0.56822(6)
N4B N -0.2332(3) -0.3209(3) 0.61742(7)
N5B N -0.3034(2) -0.0945(3) 0.89344(6)
N6B N -0.1884(2) -0.3443(3) 0.94998(6)
N6A N -0.1884(2) -0.1557(3) 0.44998(6)
N6C N 0.1884(2) 0.1557(3) 0.55002(6)
O1B O 0.2368(3) -0.3145(3) 0.49996(7)
H10B H 0.214(4) -0.447(3) 0.4861(12)
H11B H 0.336(3) -0.265(5) 0.4887(12)
loop_
_geom_bond_atom_site_label_1
_geom_bond_atom_site_label_2
_geom_bond_site_symmetry_1
_geom_bond_site_symmetry_2
Cu1 N1 1_555 1_555
C1 C2 1_555 1_555
C2 C3 1_555 1_555
C3 H1 1_555 1_555
C4 C3 1_555 1_555
H2 C4 1_555 1_555
C5 C4 1_555 1_555
C6 C5 1_555 1_555
H3 C6 1_555 1_555
C7 C2 1_555 1_555
H4 C7 1_555 1_555
C8 C5 1_555 1_555
H5 C8 1_555 1_555
H6 C8 1_555 1_555
C9 H7 1_555 1_555
C10 H8 1_555 1_555
C11 C10 1_555 1_555
H9 C11 1_555 1_555
N1 N2 1_555 1_555
N2 C1 1_555 1_555
N3 N1 1_555 1_555
N4 C1 1_555 1_555
N5 C8 1_555 1_555
N6 C9 1_555 1_555
O1 Cu1 1_555 1_555
H10 O1 1_555 1_555
H11 O1 1_555 1_555
Cu1A N6 1_555 1_555
Cu1A_2 N6B 1_555 1_555
C1B C2B 1_555 1_555
C2B C3B 1_555 1_555
C3B H1B 1_555 1_555
C4B C3B 1_555 1_555
H2B C4B 1_555 1_555
C5B C4B 1_555 1_555
C6B C5B 1_555 1_555
H3B C6B 1_555 1_555
C7B C2B 1_555 1_555
H4B C7B 1_555 1_555
C8B C5B 1_555 1_555
H5B C8B 1_555 1_555
H6B C8B 1_555 1_555
C9B H7B 1_555 1_555
C10B H8B 1_555 1_555
C11B C10B 1_555 1_555
H9B C11B 1_555 1_555
N1B Cu1 1_555 1_555
N2B C1B 1_555 1_555
N3B N1B 1_555 1_555
N4B C1B 1_555 1_555
N5B C8B 1_555 1_555
N6B C9B 1_555 1_555
N6A Cu1 1_555 1_555
N6C Cu1 1_555 1_555
O1B Cu1 1_555 1_555
H10B O1B 1_555 1_555
H11B O1B 1_555 1_555
C6 C7 1_555 1_555
C9 N5 1_555 1_555
C10 N6 1_555 1_555
C11 N5 1_555 1_555
N3 N4 1_555 1_555
C6B C7B 1_555 1_555
C9B N5B 1_555 1_555
C10B N6B 1_555 1_555
C11B N5B 1_555 1_555
N1B N2B 1_555 1_555
N3B N4B 1_555 1_555

#END
