
#######################################################################
#
#                 Cambridge Crystallographic Data Centre
#                                CCDC 
#
#######################################################################
#
# If this CIF has been generated from an entry in the Cambridge 
# Structural Database, then it will include bibliographic, chemical, 
# crystal, experimental, refinement or atomic coordinate data resulting 
# from the CCDC's data processing and validation procedures.
#
#######################################################################

data_HAYMIF
_symmetry_cell_setting           orthorhombic
_symmetry_space_group_name_H-M   'P n n m'
_symmetry_Int_Tables_number      58
_space_group_name_Hall           '-P 2 2n'
loop_
_symmetry_equiv_pos_site_id
_symmetry_equiv_pos_as_xyz
1 x,y,z
2 -x,-y,z
3 1/2+x,1/2-y,1/2-z
4 1/2-x,1/2+y,1/2-z
5 -x,-y,-z
6 x,y,-z
7 1/2-x,1/2+y,1/2+z
8 1/2+x,1/2-y,1/2+z
_cell_length_a                   6.112(4)
_cell_length_b                   14.278(8)
_cell_length_c                   22.395(12)
_cell_angle_alpha                90
_cell_angle_beta                 90
_cell_angle_gamma                90
_cell_volume                     1954.35
loop_
_atom_site_label
_atom_site_type_symbol
_atom_site_fract_x
_atom_site_fract_y
_atom_site_fract_z
Ce1 Ce 1.0000 0.0000 0.286968(11)
O1 O 0.6621(5) 0.03486(19) 0.34397(11)
O2 O 1.0784(5) 0.1316(2) 0.35957(13)
O3 O 0.8063(5) 0.14579(19) 0.24774(12)
O4 O 0.6817(5) -0.0885(2) 0.24157(13)
N1 N 1.0000 0.0000 0.15870(19)
C1 C 0.5000 0.0000 0.4378(2)
C2 C 0.6884(6) 0.0245(3) 0.46904(14)
C3 C 0.5000 0.0000 0.37044(19)
C4 C 0.8241(7) 0.0259(3) 0.12810(16)
C5 C 0.8174(7) 0.0271(3) 0.06620(16)
C6 C 1.0000 0.0000 0.0334(2)
H1 H 0.8145 0.0410 0.4483
H2 H 0.983(7) 0.174(3) 0.361(3)
H3 H 1.197(5) 0.160(3) 0.353(2)
H4 H 0.778(11) 0.188(4) 0.272(2)
H5 H 0.848(10) 0.176(4) 0.2178(18)
H6 H 0.555(5) -0.094(5) 0.255(3)
H7 H 0.684(10) -0.130(3) 0.2149(18)
H8 H 0.6998 0.0439 0.1491
H9 H 0.6908 0.0461 0.0466
Ce1D Ce 1.0000 0.0000 -0.286968(11)
Ce1_2 Ce 0.0000 0.0000 0.286968(11)
Ce1D_2 Ce 0.0000 0.0000 0.713032(11)
Ce1D_3 Ce 1.0000 0.0000 0.713032(11)
O1A O 0.3379(5) -0.03486(19) 0.34397(11)
O1D O 0.3379(5) -0.03486(19) 0.65603(11)
O1E O 0.6621(5) 0.03486(19) 0.65603(11)
O1A_2 O 1.3379(5) -0.03486(19) 0.34397(11)
O1D_2 O 1.3379(5) -0.03486(19) -0.34397(11)
O1E_2 O 0.6621(5) 0.03486(19) -0.34397(11)
O2E O 1.0784(5) 0.1316(2) -0.35957(13)
O2A O 0.9216(5) -0.1316(2) 0.35957(13)
O2D O 0.9216(5) -0.1316(2) -0.35957(13)
O3E O 0.8063(5) 0.14579(19) -0.24774(12)
O3A O 1.1937(5) -0.14579(19) 0.24774(12)
O3D O 1.1937(5) -0.14579(19) -0.24774(12)
O4E O 0.6817(5) -0.0885(2) -0.24157(13)
O4A O 1.3183(5) 0.0885(2) 0.24157(13)
O4D O 1.3183(5) 0.0885(2) -0.24157(13)
N1D N 1.0000 0.0000 -0.15870(19)
C1D C 0.5000 0.0000 0.5622(2)
C2A C 0.3116(6) -0.0245(3) 0.46904(14)
C2D C 0.3116(6) -0.0245(3) 0.53096(14)
C2E C 0.6884(6) 0.0245(3) 0.53096(14)
C3D C 0.5000 0.0000 0.62956(19)
C4A C 1.1759(7) -0.0259(3) 0.12810(16)
C4D C 1.1759(7) -0.0259(3) -0.12810(16)
C4E C 0.8241(7) 0.0259(3) -0.12810(16)
C5A C 1.1826(7) -0.0271(3) 0.06620(16)
C5D C 1.1826(7) -0.0271(3) -0.06620(16)
C5E C 0.8174(7) 0.0271(3) -0.06620(16)
C6D C 1.0000 0.0000 -0.0334(2)
H1A H 0.1855 -0.0410 0.4483
H1D H 0.1855 -0.0410 0.5517
H1E H 0.8145 0.0410 0.5517
H2E H 0.983(7) 0.174(3) -0.361(3)
H2A H 1.017(7) -0.174(3) 0.361(3)
H2D H 1.017(7) -0.174(3) -0.361(3)
H3E H 1.197(5) 0.160(3) -0.353(2)
H3A H 0.803(5) -0.160(3) 0.353(2)
H3D H 0.803(5) -0.160(3) -0.353(2)
H4E H 0.778(11) 0.188(4) -0.272(2)
H4A H 1.222(11) -0.188(4) 0.272(2)
H4D H 1.222(11) -0.188(4) -0.272(2)
H5E H 0.848(10) 0.176(4) -0.2178(18)
H5A H 1.152(10) -0.176(4) 0.2178(18)
H5D H 1.152(10) -0.176(4) -0.2178(18)
H6E H 0.555(5) -0.094(5) -0.255(3)
H6A H 1.445(5) 0.094(5) 0.255(3)
H6D H 1.445(5) 0.094(5) -0.255(3)
H7E H 0.684(10) -0.130(3) -0.2149(18)
H7A H 1.316(10) 0.130(3) 0.2149(18)
H7D H 1.316(10) 0.130(3) -0.2149(18)
H8A H 1.3002 -0.0439 0.1491
H8D H 1.3002 -0.0439 -0.1491
H8E H 0.6998 0.0439 -0.1491
H9A H 1.3092 -0.0461 0.0466
H9D H 1.3092 -0.0461 -0.0466
H9E H 0.6908 0.0461 -0.0466
O5 O 0.7801(5) 0.2740(2) 0.34373(11)
O6 O 0.4224(6) 0.2508(3) 0.34529(12)
C7 C 0.6065(7) 0.2588(3) 0.43811(15)
C8 C 0.7943(7) 0.2825(3) 0.46897(16)
C9 C 0.4180(7) 0.2347(3) 0.46905(15)
C10 C 0.6024(7) 0.2610(3) 0.37083(16)
H10 H 0.9207 0.2984 0.4482
H11 H 0.2917 0.2186 0.4483
O5E O 0.7801(5) 0.2740(2) 0.65627(11)
O6E O 0.4224(6) 0.2508(3) 0.65471(12)
C7E C 0.6065(7) 0.2588(3) 0.56189(15)
C8E C 0.7943(7) 0.2825(3) 0.53103(16)
C9E C 0.4180(7) 0.2347(3) 0.53095(15)
C10E C 0.6024(7) 0.2610(3) 0.62917(16)
H10E H 0.9207 0.2984 0.5518
H11E H 0.2917 0.2186 0.5517
loop_
_geom_bond_atom_site_label_1
_geom_bond_atom_site_label_2
_geom_bond_site_symmetry_1
_geom_bond_site_symmetry_2
Ce1 O1 1_555 1_555
O1 C3 1_555 1_555
O2 Ce1 1_555 1_555
O3 Ce1 1_555 1_555
O4 Ce1 1_555 1_555
O5 C10 1_555 1_555
O6 C10 1_555 1_555
N1 Ce1 1_555 1_555
C1 C2 1_555 1_555
C2 H1 1_555 1_555
C3 C1 1_555 1_555
C4 N1 1_555 1_555
C5 C4 1_555 1_555
C6 C5 1_555 1_555
C7 C8 1_555 1_555
C8 H10 1_555 1_555
C9 C7 1_555 1_555
C10 C7 1_555 1_555
H2 O2 1_555 1_555
H3 O2 1_555 1_555
H4 O3 1_555 1_555
H5 O3 1_555 1_555
H6 O4 1_555 1_555
H7 O4 1_555 1_555
H8 C4 1_555 1_555
H9 C5 1_555 1_555
H11 C9 1_555 1_555
Ce1D O1D_2 1_555 1_555
Ce1_2 O1A 1_555 1_555
Ce1D_2 O1D 1_555 1_555
Ce1D_3 O1E 1_555 1_555
O1A C3 1_555 1_555
O1D C3D 1_555 1_555
O1E C3D 1_555 1_555
O1A_2 Ce1 1_555 1_555
O1E_2 Ce1D 1_555 1_555
O2E Ce1D 1_555 1_555
O2A Ce1 1_555 1_555
O2D Ce1D 1_555 1_555
O3E Ce1D 1_555 1_555
O3A Ce1 1_555 1_555
O3D Ce1D 1_555 1_555
O4E Ce1D 1_555 1_555
O4A Ce1 1_555 1_555
O4D Ce1D 1_555 1_555
O5E C10E 1_555 1_555
O6E C10E 1_555 1_555
N1D Ce1D 1_555 1_555
C1D C2D 1_555 1_555
C2A C1 1_555 1_555
C2D C2A 1_555 1_555
C2E C2 1_555 1_555
C3D C1D 1_555 1_555
C4A N1 1_555 1_555
C4D N1D 1_555 1_555
C4E N1D 1_555 1_555
C5A C6 1_555 1_555
C5D C4D 1_555 1_555
C5E C4E 1_555 1_555
C6D C6 1_555 1_555
C7E C8E 1_555 1_555
C8E C8 1_555 1_555
C9E C9 1_555 1_555
C10E C7E 1_555 1_555
H1A C2A 1_555 1_555
H1D C2D 1_555 1_555
H1E C2E 1_555 1_555
H2E O2E 1_555 1_555
H2A O2A 1_555 1_555
H2D O2D 1_555 1_555
H3E O2E 1_555 1_555
H3A O2A 1_555 1_555
H3D O2D 1_555 1_555
H4E O3E 1_555 1_555
H4A O3A 1_555 1_555
H4D O3D 1_555 1_555
H5E O3E 1_555 1_555
H5A O3A 1_555 1_555
H5D O3D 1_555 1_555
H6E O4E 1_555 1_555
H6A O4A 1_555 1_555
H6D O4D 1_555 1_555
H7E O4E 1_555 1_555
H7A O4A 1_555 1_555
H7D O4D 1_555 1_555
H8A C4A 1_555 1_555
H8D C4D 1_555 1_555
H8E C4E 1_555 1_555
H9A C5A 1_555 1_555
H9D C5D 1_555 1_555
H9E C5E 1_555 1_555
H10E C8E 1_555 1_555
H11E C9E 1_555 1_555
C1D C2E 1_555 1_555
C4A C5A 1_555 1_555
C5D C6D 1_555 1_555
C5E C6D 1_555 1_555
C7E C9E 1_555 1_555

#END
