
#######################################################################
#
#                 Cambridge Crystallographic Data Centre
#                                CCDC 
#
#######################################################################
#
# If this CIF has been generated from an entry in the Cambridge 
# Structural Database, then it will include bibliographic, chemical, 
# crystal, experimental, refinement or atomic coordinate data resulting 
# from the CCDC's data processing and validation procedures.
#
#######################################################################

data_HAYXIQ
_symmetry_cell_setting           monoclinic
_symmetry_space_group_name_H-M   'P 2/c'
_symmetry_Int_Tables_number      13
_space_group_name_Hall           '-P 2yc'
loop_
_symmetry_equiv_pos_site_id
_symmetry_equiv_pos_as_xyz
1 x,y,z
2 -x,y,1/2-z
3 -x,-y,-z
4 x,-y,1/2+z
_cell_length_a                   8.5025(17)
_cell_length_b                   4.8868(6)
_cell_length_c                   19.709(4)
_cell_angle_alpha                90
_cell_angle_beta                 113.885(17)
_cell_angle_gamma                90
_cell_volume                     748.778
loop_
_atom_site_label
_atom_site_type_symbol
_atom_site_fract_x
_atom_site_fract_y
_atom_site_fract_z
Ag1 Ag 0.0000 -0.85115(7) -0.2500
Cl1 Cl 0.35126(8) -0.90827(15) -0.10086(4)
C1 C 0.2706(3) -0.5489(6) -0.01675(13)
H1 H 0.3613 -0.6188 0.0245
C2 C 0.1660(3) -0.3340(6) -0.01092(13)
C3 C 0.0098(3) -0.3497(5) -0.13663(13)
C4 C 0.2309(3) -0.6481(5) -0.08637(13)
N1 N 0.0350(3) -0.2331(5) -0.07186(11)
N2 N 0.1001(2) -0.5569(5) -0.14802(11)
N3 N 0.1923(3) -0.2185(6) 0.05436(12)
H2 H 0.1275 -0.0864 0.0563
H3 H 0.2739 -0.2764 0.0943
N4 N -0.1166(3) -0.2353(5) -0.19920(11)
H4 H -0.1740 -0.0962 -0.1950
H5 H -0.1377 -0.3032 -0.2423
Ag1_2 Ag 0.0000 0.14885(7) -0.2500
Cl1A Cl -0.35126(8) -0.90827(15) -0.39914(4)
C1A C -0.2706(3) -0.5489(6) -0.48325(13)
H1A H -0.3613 -0.6188 -0.5245
C2A C -0.1660(3) -0.3340(6) -0.48908(13)
C3A C -0.0098(3) -0.3497(5) -0.36337(13)
C4A C -0.2309(3) -0.6481(5) -0.41363(13)
N1A N -0.0350(3) -0.2331(5) -0.42814(11)
N2A N -0.1001(2) -0.5569(5) -0.35198(11)
N3A N -0.1923(3) -0.2185(6) -0.55436(12)
H2A H -0.1275 -0.0864 -0.5563
H3A H -0.2739 -0.2764 -0.5943
N4A N 0.1166(3) -0.2353(5) -0.30080(11)
N4_2 N -0.1166(3) -1.2353(5) -0.19920(11)
N4A_2 N 0.1166(3) -1.2353(5) -0.30080(11)
H4A H 0.1740 -0.0962 -0.3050
H4_2 H -0.1740 -1.0962 -0.1950
H4A_2 H 0.1740 -1.0962 -0.3050
H5A H 0.1377 -0.3032 -0.2577
H5_2 H -0.1377 -1.3032 -0.2423
H5A_2 H 0.1377 -1.3032 -0.2577
Cl2 Cl 0.5000 -0.5894(2) -0.2500
O1 O 0.4995(3) -0.4219(6) -0.19036(13)
O2 O 0.6515(3) -0.7557(6) -0.22284(13)
O1A O 0.5005(3) -0.4219(6) -0.30964(13)
O2A O 0.3485(3) -0.7557(6) -0.27716(13)
loop_
_geom_bond_atom_site_label_1
_geom_bond_atom_site_label_2
_geom_bond_site_symmetry_1
_geom_bond_site_symmetry_2
Ag1 N2 1_555 1_555
Cl1 C4 1_555 1_555
C1 H1 1_555 1_555
C2 C1 1_555 1_555
C3 N1 1_555 1_555
C4 C1 1_555 1_555
N1 C2 1_555 1_555
N2 C3 1_555 1_555
N3 C2 1_555 1_555
H2 N3 1_555 1_555
H3 N3 1_555 1_555
N4 C3 1_555 1_555
H4 N4 1_555 1_555
H5 N4 1_555 1_555
Cl2 O1 1_555 1_555
O2 Cl2 1_555 1_555
Ag1_2 N4 1_555 1_555
Cl1A C4A 1_555 1_555
C1A H1A 1_555 1_555
C2A C1A 1_555 1_555
C3A N1A 1_555 1_555
C4A C1A 1_555 1_555
N1A C2A 1_555 1_555
N2A Ag1 1_555 1_555
N3A C2A 1_555 1_555
H2A N3A 1_555 1_555
H3A N3A 1_555 1_555
N4A Ag1_2 1_555 1_555
N4_2 Ag1 1_555 1_555
N4A_2 Ag1 1_555 1_555
H4A N4A 1_555 1_555
H4_2 N4_2 1_555 1_555
H4A_2 N4A_2 1_555 1_555
H5A N4A 1_555 1_555
H5_2 N4_2 1_555 1_555
H5A_2 N4A_2 1_555 1_555
O1A Cl2 1_555 1_555
O2A Cl2 1_555 1_555
C4 N2 1_555 1_555
C3A N2A 1_555 1_555
C3A N4A 1_555 1_555
C4A N2A 1_555 1_555

#END
