
#######################################################################
#
#                 Cambridge Crystallographic Data Centre
#                                CCDC 
#
#######################################################################
#
# If this CIF has been generated from an entry in the Cambridge 
# Structural Database, then it will include bibliographic, chemical, 
# crystal, experimental, refinement or atomic coordinate data resulting 
# from the CCDC's data processing and validation procedures.
#
#######################################################################

data_HAYYUD
_symmetry_cell_setting           monoclinic
_symmetry_space_group_name_H-M   'P 21/n'
_symmetry_Int_Tables_number      14
_space_group_name_Hall           '-P 2yn'
loop_
_symmetry_equiv_pos_site_id
_symmetry_equiv_pos_as_xyz
1 x,y,z
2 1/2-x,1/2+y,1/2-z
3 -x,-y,-z
4 1/2+x,1/2-y,1/2+z
_cell_length_a                   10.5135(18)
_cell_length_b                   7.4851(8)
_cell_length_c                   17.628(3)
_cell_angle_alpha                90
_cell_angle_beta                 94.12(2)
_cell_angle_gamma                90
_cell_volume                     1383.64
loop_
_atom_site_label
_atom_site_type_symbol
_atom_site_fract_x
_atom_site_fract_y
_atom_site_fract_z
Ag1 Ag 0.52528(5) 0.22636(9) 0.27177(3)
C1 C 0.5859(7) 0.4297(11) 0.1129(4)
C2 C 0.7848(6) 0.5258(10) 0.0896(4)
C3 C 0.7387(6) 0.4633(10) 0.2105(4)
C4 C 0.7757(6) 0.4585(10) 0.2937(3)
C5 C 0.6906(8) 0.5199(11) 0.3455(4)
H1 H 0.6108 0.5630 0.3283
C6 C 0.7266(9) 0.5158(13) 0.4226(4)
H2 H 0.6705 0.5570 0.4571
C7 C 0.8421(10) 0.4527(14) 0.4483(5)
H3 H 0.8639 0.4490 0.5003
C8 C 0.9278(9) 0.3939(13) 0.3986(5)
H4 H 1.0071 0.3510 0.4171
C9 C 0.8957(7) 0.3986(11) 0.3200(4)
H5 H 0.9541 0.3620 0.2860
N1 N 0.6209(5) 0.4065(8) 0.1883(3)
N2 N 0.6656(6) 0.4860(9) 0.0616(3)
N3 N 0.8238(5) 0.5248(8) 0.1653(3)
N4 N 0.4664(6) 0.3945(11) 0.0899(4)
H6 H 0.4406 0.4076 0.0428
H7 H 0.4142 0.3584 0.1221
N5 N 0.8704(6) 0.5768(11) 0.0422(3)
H8 H 0.8494 0.5841 -0.0058
H9 H 0.9468 0.6025 0.0594
O5 O 0.3762(7) 0.1700(12) 0.3660(4)
Ag1A Ag 0.97472(5) 0.72636(9) 0.22823(3)
N3A N 0.6762(5) 0.0248(8) 0.3347(3)
Cl1 Cl 0.1928(2) 0.1499(4) 0.16944(14)
O1 O 0.3134(13) 0.090(3) 0.1760(10)
O2 O 0.1949(19) 0.319(2) 0.1378(11)
O3 O 0.1276(9) 0.1254(18) 0.2339(5)
O4 O 0.138(2) 0.065(4) 0.1133(8)
loop_
_geom_bond_atom_site_label_1
_geom_bond_atom_site_label_2
_geom_bond_site_symmetry_1
_geom_bond_site_symmetry_2
Ag1 N1 1_555 1_555
C1 N1 1_555 1_555
C2 N2 1_555 1_555
C3 C4 1_555 1_555
C4 C5 1_555 1_555
C5 H1 1_555 1_555
C6 C5 1_555 1_555
H2 C6 1_555 1_555
C7 C6 1_555 1_555
H3 C7 1_555 1_555
C8 C7 1_555 1_555
H4 C8 1_555 1_555
C9 C4 1_555 1_555
H5 C9 1_555 1_555
N1 C3 1_555 1_555
N2 C1 1_555 1_555
N3 C2 1_555 1_555
N4 C1 1_555 1_555
H6 N4 1_555 1_555
H7 N4 1_555 1_555
N5 C2 1_555 1_555
H8 N5 1_555 1_555
H9 N5 1_555 1_555
Cl1 O1 1_555 1_555
O2 Cl1 1_555 1_555
O3 Cl1 1_555 1_555
O4 Cl1 1_555 1_555
O5 Ag1 1_555 1_555
Ag1A N3 1_555 1_555
N3A Ag1 1_555 1_555
C3 N3 1_555 1_555
C8 C9 1_555 1_555

#END
