
#######################################################################
#
#                 Cambridge Crystallographic Data Centre
#                                CCDC 
#
#######################################################################
#
# If this CIF has been generated from an entry in the Cambridge 
# Structural Database, then it will include bibliographic, chemical, 
# crystal, experimental, refinement or atomic coordinate data resulting 
# from the CCDC's data processing and validation procedures.
#
#######################################################################

data_HAZJOI
_symmetry_cell_setting           triclinic
_symmetry_space_group_name_H-M   'P -1'
_symmetry_Int_Tables_number      2
_space_group_name_Hall           '-P 1'
loop_
_symmetry_equiv_pos_site_id
_symmetry_equiv_pos_as_xyz
1 x,y,z
2 -x,-y,-z
_cell_length_a                   9.591(7)
_cell_length_b                   11.059(8)
_cell_length_c                   16.148(11)
_cell_angle_alpha                70.222(10)
_cell_angle_beta                 89.983(10)
_cell_angle_gamma                84.576(11)
_cell_volume                     1603.6
loop_
_atom_site_label
_atom_site_type_symbol
_atom_site_fract_x
_atom_site_fract_y
_atom_site_fract_z
Sn1 Sn -0.02024(2) 0.23029(2) 0.334427(14)
N1 N -0.2791(2) 0.2067(2) 0.35113(17)
N2 N 0.3786(5) 0.8235(4) 0.3486(3)
N3 N 0.4174(4) 0.6778(4) -0.0687(2)
N4 N -0.3127(5) -0.2288(4) 0.0889(3)
O1 O -0.79890(19) 0.2413(2) 0.31407(13)
O2 O -0.7660(2) 0.1225(2) 0.45638(14)
C1 C -0.7216(3) 0.1818(3) 0.3844(2)
C2 C -0.5665(3) 0.1893(3) 0.3723(2)
C3 C -0.5089(3) 0.2195(3) 0.2900(2)
H1 H -0.5658 0.2361 0.2400
C4 C -0.3668(3) 0.2247(3) 0.2831(2)
H2 H -0.3294 0.2418 0.2276
C5 C -0.3357(3) 0.1764(3) 0.4301(2)
H3 H -0.2764 0.1613 0.4789
C6 C -0.4763(3) 0.1662(3) 0.4440(2)
H4 H -0.5101 0.1443 0.5006
C7 C -0.0399(3) 0.3280(3) 0.4297(2)
H5 H -0.1362 0.3647 0.4284
H6 H -0.0186 0.2654 0.4881
C8 C 0.0549(3) 0.4331(3) 0.4132(2)
C9 C 0.0174(4) 0.5522(4) 0.3507(3)
H7 H -0.0672 0.5656 0.3192
C10 C 0.1000(4) 0.6514(4) 0.3331(3)
H8 H 0.0718 0.7306 0.2902
C11 C 0.2268(4) 0.6332(4) 0.3800(2)
C12 C 0.2654(4) 0.5159(4) 0.4439(3)
H9 H 0.3493 0.5028 0.4760
C13 C 0.1796(4) 0.4175(3) 0.4603(2)
H10 H 0.2065 0.3387 0.5040
C14 C 0.3129(5) 0.7383(4) 0.3627(3)
C15 C -0.0764(3) 0.3465(3) 0.1991(2)
H11 H -0.1105 0.2901 0.1705
H12 H -0.1544 0.4088 0.1997
C16 C 0.0327(3) 0.4187(3) 0.1427(2)
C17 C 0.1274(4) 0.3594(4) 0.0993(2)
H13 H 0.1239 0.2724 0.1074
C18 C 0.2255(4) 0.4256(4) 0.0451(2)
H14 H 0.2866 0.3837 0.0164
C19 C 0.2334(4) 0.5531(4) 0.0331(2)
C20 C 0.1412(4) 0.6142(4) 0.0754(3)
H15 H 0.1457 0.7010 0.0675
C21 C 0.0421(4) 0.5470(4) 0.1295(2)
H16 H -0.0194 0.5895 0.1575
C22 C 0.3355(4) 0.6240(4) -0.0240(3)
C23 C -0.0043(3) 0.0239(3) 0.3676(2)
H17 H 0.0940 -0.0081 0.3717
H18 H -0.0425 -0.0134 0.4253
C24 C -0.0772(3) -0.0225(3) 0.3045(2)
C25 C -0.1971(3) -0.0856(3) 0.3269(2)
H19 H -0.2360 -0.0941 0.3810
C26 C -0.2597(4) -0.1360(3) 0.2711(3)
H20 H -0.3394 -0.1789 0.2881
C27 C -0.2046(4) -0.1231(4) 0.1901(3)
C28 C -0.0879(5) -0.0571(4) 0.1642(2)
H21 H -0.0521 -0.0458 0.1088
C29 C -0.0246(4) -0.0077(3) 0.2214(2)
H22 H 0.0544 0.0361 0.2041
C30 C -0.2655(5) -0.1812(4) 0.1332(3)
Sn1_2 Sn -1.02024(2) 0.23029(2) 0.334427(14)
O1_2 O 0.20110(19) 0.2413(2) 0.31407(13)
N5 N 0.6325(5) 0.5297(4) 0.3267(3)
C31 C 0.5508(5) 0.5444(4) 0.2747(3)
C32 C 0.4468(6) 0.5633(5) 0.2088(3)
H23 H 0.3643(18) 0.522(2) 0.2194(16)
H24 H 0.473(2) 0.538(3) 0.1593(12)
H25 H 0.408(3) 0.6474(12) 0.1754(16)
N6 N 0.2503(7) -0.0933(6) 0.0831(4)
C33 C 0.3216(6) -0.0326(5) 0.1002(4)
C34 C 0.4111(6) 0.0415(5) 0.1231(4)
H26 H 0.4985(18) 0.061(3) 0.0972(17)
H27 H 0.382(2) 0.1300(13) 0.1154(19)
H28 H 0.447(3) 0.021(2) 0.1817(9)
loop_
_geom_bond_atom_site_label_1
_geom_bond_atom_site_label_2
_geom_bond_site_symmetry_1
_geom_bond_site_symmetry_2
Sn1 N1 1_555 1_555
N1 C4 1_555 1_555
N2 C14 1_555 1_555
N3 C22 1_555 1_555
N4 C30 1_555 1_555
N5 C31 1_555 1_555
N6 C33 1_555 1_555
O1 C1 1_555 1_555
O2 C1 1_555 1_555
C1 C2 1_555 1_555
C2 C3 1_555 1_555
C3 H1 1_555 1_555
C4 C3 1_555 1_555
H2 C4 1_555 1_555
C5 N1 1_555 1_555
H3 C5 1_555 1_555
C6 C2 1_555 1_555
H4 C6 1_555 1_555
C7 Sn1 1_555 1_555
H5 C7 1_555 1_555
H6 C7 1_555 1_555
C8 C7 1_555 1_555
C9 C8 1_555 1_555
H7 C9 1_555 1_555
C10 C9 1_555 1_555
H8 C10 1_555 1_555
C11 C10 1_555 1_555
C12 C11 1_555 1_555
H9 C12 1_555 1_555
C13 C8 1_555 1_555
H10 C13 1_555 1_555
C14 C11 1_555 1_555
C15 Sn1 1_555 1_555
H11 C15 1_555 1_555
H12 C15 1_555 1_555
C16 C15 1_555 1_555
C17 C16 1_555 1_555
H13 C17 1_555 1_555
C18 C17 1_555 1_555
H14 C18 1_555 1_555
C19 C18 1_555 1_555
C20 C19 1_555 1_555
H15 C20 1_555 1_555
C21 C16 1_555 1_555
H16 C21 1_555 1_555
C22 C19 1_555 1_555
C23 Sn1 1_555 1_555
H17 C23 1_555 1_555
H18 C23 1_555 1_555
C24 C23 1_555 1_555
C25 C24 1_555 1_555
H19 C25 1_555 1_555
C26 C25 1_555 1_555
H20 C26 1_555 1_555
C27 C26 1_555 1_555
C28 C27 1_555 1_555
H21 C28 1_555 1_555
C29 C24 1_555 1_555
H22 C29 1_555 1_555
C30 C27 1_555 1_555
C31 C32 1_555 1_555
C32 H23 1_555 1_555
C33 C34 1_555 1_555
C34 H26 1_555 1_555
H24 C32 1_555 1_555
H25 C32 1_555 1_555
H27 C34 1_555 1_555
H28 C34 1_555 1_555
Sn1_2 O1 1_555 1_555
O1_2 Sn1 1_555 1_555
C5 C6 1_555 1_555
C12 C13 1_555 1_555
C20 C21 1_555 1_555
C28 C29 1_555 1_555

#END
