
#######################################################################
#
#                 Cambridge Crystallographic Data Centre
#                                CCDC 
#
#######################################################################
#
# If this CIF has been generated from an entry in the Cambridge 
# Structural Database, then it will include bibliographic, chemical, 
# crystal, experimental, refinement or atomic coordinate data resulting 
# from the CCDC's data processing and validation procedures.
#
#######################################################################

data_HAZROP
_symmetry_cell_setting           tetragonal
_symmetry_space_group_name_H-M   'I -4 2 d'
_symmetry_Int_Tables_number      122
_space_group_name_Hall           'I -4 2bw'
loop_
_symmetry_equiv_pos_site_id
_symmetry_equiv_pos_as_xyz
1 x,y,z
2 1/2+x,1/2+y,1/2+z
3 -y,x,-z
4 1/2-y,1/2+x,1/2-z
5 -x,-y,z
6 1/2-x,1/2-y,1/2+z
7 y,-x,-z
8 1/2+y,1/2-x,1/2-z
9 y,1/2+x,1/4+z
10 1/2+y,x,3/4+z
11 x,1/2-y,1/4-z
12 1/2+x,-y,3/4-z
13 -y,1/2-x,1/4+z
14 1/2-y,-x,3/4+z
15 -x,1/2+y,1/4-z
16 1/2-x,y,3/4-z
_cell_length_a                   14.797(4)
_cell_length_b                   14.797(4)
_cell_length_c                   15.661(4)
_cell_angle_alpha                90
_cell_angle_beta                 90
_cell_angle_gamma                90
_cell_volume                     3428.99
loop_
_atom_site_label
_atom_site_type_symbol
_atom_site_fract_x
_atom_site_fract_y
_atom_site_fract_z
W1 W 0.5000 0.0000 0.2500
S1 S 0.3759(3) 0.0050(4) 0.1660(3)
Cu1 Cu 0.5000 0.0000 0.0796(2)
I1 I 0.5000 0.0000 -0.0763(1)
Cu2 Cu 0.3541(2) -0.1072(2) 0.2678(2)
I2 I 0.2500 -0.0015(4) 0.3750
N1 N 0.2768(7) -0.2106(8) 0.2589(7)
C1 C 0.1917(7) -0.2101(9) 0.2345(7)
C2 C 0.1330(7) -0.2821(9) 0.2352(8)
C3 C 0.1686(8) -0.3652(9) 0.2542(8)
C4 C 0.2611(8) -0.3738(8) 0.2591(7)
C5 C 0.3150(7) -0.2947(8) 0.2627(7)
H1 H 0.1672 -0.1508 0.2143
H2 H 0.0673 -0.2740 0.2224
H3 H 0.1286 -0.4186 0.2646
H4 H 0.2909 -0.4344 0.2606
H5 H 0.3821 -0.2997 0.2680
S1C S 0.4950(4) -0.1241(3) 0.3340(3)
S1D S 0.6241(3) -0.0050(4) 0.1660(3)
S1G S 0.5050(4) 0.1241(3) 0.3340(3)
Cu1C Cu 0.5000 0.0000 0.4204(2)
Cu2C Cu 0.6072(2) -0.1459(2) 0.2322(2)
Cu2D Cu 0.6459(2) 0.1072(2) 0.2678(2)
Cu2G Cu 0.3928(2) 0.1459(2) 0.2322(2)
I1C I 0.5000 0.0000 0.5763(1)
I2C I 0.5015(4) -0.2500 0.1250
N1C N 0.7106(8) -0.2232(7) 0.2411(7)
C1C C 0.7101(9) -0.3083(7) 0.2655(7)
C2C C 0.7821(9) -0.3670(7) 0.2648(8)
C3C C 0.8652(9) -0.3314(8) 0.2458(8)
C4C C 0.8738(8) -0.2389(8) 0.2409(7)
C5C C 0.7947(8) -0.1850(7) 0.2373(7)
H1C H 0.6508 -0.3328 0.2857
H2C H 0.7740 -0.4327 0.2776
H3C H 0.9186 -0.3714 0.2354
H4C H 0.9344 -0.2091 0.2394
H5C H 0.7997 -0.1179 0.2320
N1D N 0.7232(7) 0.2106(8) 0.2589(7)
C1D C 0.8083(7) 0.2101(9) 0.2345(7)
C2D C 0.8670(7) 0.2821(9) 0.2352(8)
C3D C 0.8314(8) 0.3652(9) 0.2542(8)
C4D C 0.7389(8) 0.3738(8) 0.2591(7)
C5D C 0.6850(7) 0.2947(8) 0.2627(7)
H1D H 0.8328 0.1508 0.2143
H2D H 0.9327 0.2740 0.2224
H3D H 0.8714 0.4186 0.2646
H4D H 0.7091 0.4344 0.2606
H5D H 0.6179 0.2997 0.2680
N1G N 0.2894(8) 0.2232(7) 0.2411(7)
C1G C 0.2899(9) 0.3083(7) 0.2655(7)
C2G C 0.2179(9) 0.3670(7) 0.2648(8)
C3G C 0.1348(9) 0.3314(8) 0.2458(8)
C4G C 0.1262(8) 0.2389(8) 0.2409(7)
C5G C 0.2053(8) 0.1850(7) 0.2373(7)
H1G H 0.3492 0.3328 0.2857
H2G H 0.2260 0.4327 0.2776
H3G H 0.0814 0.3714 0.2354
H4G H 0.0656 0.2091 0.2394
H5G H 0.2003 0.1179 0.2320
Cu2O Cu 0.1459(2) -0.1072(2) 0.4822(2)
I2D I 0.7500 0.0015(4) 0.3750
I2G I 0.4985(4) 0.2500 0.1250
Cu2M Cu 0.6072(2) -0.3541(2) 0.0178(2)
loop_
_geom_bond_atom_site_label_1
_geom_bond_atom_site_label_2
_geom_bond_site_symmetry_1
_geom_bond_site_symmetry_2
W1 S1 1_555 1_555
S1 Cu1 1_555 1_555
Cu1 I1 1_555 1_555
Cu2 S1 1_555 1_555
I2 Cu2 1_555 1_555
N1 Cu2 1_555 1_555
C1 N1 1_555 1_555
C2 C1 1_555 1_555
C3 C2 1_555 1_555
C4 C3 1_555 1_555
C5 N1 1_555 1_555
H1 C1 1_555 1_555
H2 C2 1_555 1_555
H3 C3 1_555 1_555
H4 C4 1_555 1_555
H5 C5 1_555 1_555
S1C W1 1_555 1_555
S1D W1 1_555 1_555
S1G W1 1_555 1_555
Cu1C S1C 1_555 1_555
Cu2C S1C 1_555 1_555
Cu2D S1D 1_555 1_555
Cu2G S1 1_555 1_555
I1C Cu1C 1_555 1_555
I2C Cu2C 1_555 1_555
N1C Cu2C 1_555 1_555
C1C N1C 1_555 1_555
C2C C1C 1_555 1_555
C3C C2C 1_555 1_555
C4C C3C 1_555 1_555
C5C N1C 1_555 1_555
H1C C1C 1_555 1_555
H2C C2C 1_555 1_555
H3C C3C 1_555 1_555
H4C C4C 1_555 1_555
H5C C5C 1_555 1_555
N1D Cu2D 1_555 1_555
C1D N1D 1_555 1_555
C2D C1D 1_555 1_555
C3D C2D 1_555 1_555
C4D C3D 1_555 1_555
C5D N1D 1_555 1_555
H1D C1D 1_555 1_555
H2D C2D 1_555 1_555
H3D C3D 1_555 1_555
H4D C4D 1_555 1_555
H5D C5D 1_555 1_555
N1G Cu2G 1_555 1_555
C1G N1G 1_555 1_555
C2G C1G 1_555 1_555
C3G C2G 1_555 1_555
C4G C3G 1_555 1_555
C5G N1G 1_555 1_555
H1G C1G 1_555 1_555
H2G C2G 1_555 1_555
H3G C3G 1_555 1_555
H4G C4G 1_555 1_555
H5G C5G 1_555 1_555
Cu2O I2 1_555 1_555
I2D Cu2D 1_555 1_555
I2G Cu2G 1_555 1_555
Cu2M I2C 1_555 1_555
Cu1 S1D 1_555 1_555
Cu2 S1C 1_555 1_555
C4 C5 1_555 1_555
S1D Cu2C 1_555 1_555
S1G Cu2G 1_555 1_555
S1G Cu1C 1_555 1_555
S1G Cu2D 1_555 1_555
C4C C5C 1_555 1_555
C4D C5D 1_555 1_555
C4G C5G 1_555 1_555

#END
