
#######################################################################
#
#                 Cambridge Crystallographic Data Centre
#                                CCDC 
#
#######################################################################
#
# If this CIF has been generated from an entry in the Cambridge 
# Structural Database, then it will include bibliographic, chemical, 
# crystal, experimental, refinement or atomic coordinate data resulting 
# from the CCDC's data processing and validation procedures.
#
#######################################################################

data_HAZSAD
_symmetry_cell_setting           monoclinic
_symmetry_space_group_name_H-M   'P 21/c'
_symmetry_Int_Tables_number      14
_space_group_name_Hall           '-P 2ybc'
loop_
_symmetry_equiv_pos_site_id
_symmetry_equiv_pos_as_xyz
1 x,y,z
2 -x,1/2+y,1/2-z
3 -x,-y,-z
4 x,1/2-y,1/2+z
_cell_length_a                   8.7876(6)
_cell_length_b                   7.2981(4)
_cell_length_c                   15.6325(8)
_cell_angle_alpha                90
_cell_angle_beta                 90.266(2)
_cell_angle_gamma                90
_cell_volume                     1002.54
loop_
_atom_site_label
_atom_site_type_symbol
_atom_site_fract_x
_atom_site_fract_y
_atom_site_fract_z
Co1 Co 0.51544(12) -0.75740(14) 0.37260(7)
P1 P 0.3067(2) -0.6099(3) 0.53454(13)
P2 P 0.2931(2) -0.0754(3) 0.28637(13)
N1 N 0.2771(8) -0.3395(9) 0.4105(4)
H1 H 0.3539 -0.2870 0.4398
H2 H 0.3184 -0.4098 0.3694
C1 C 0.1898(9) -0.4580(11) 0.4693(5)
H3 H 0.1300 -0.3808 0.5068
H4 H 0.1195 -0.5317 0.4359
C2 C 0.1841(9) -0.1919(13) 0.3689(6)
H5 H 0.0934 -0.2452 0.3436
H6 H 0.1526 -0.1038 0.4118
O1 O 0.1841(7) -0.6964(8) 0.5957(4)
H7 H 0.1935 -0.6526 0.6438
O2 O 0.4226(6) -0.5016(8) 0.5828(4)
O3 O 0.3669(7) -0.7657(8) 0.4790(4)
O4 O 0.1887(7) 0.0789(8) 0.2542(4)
O5 O 0.4400(6) -0.0068(7) 0.3273(4)
O6 O 0.3211(7) -0.2256(8) 0.2205(4)
O7 O 0.6794(7) -0.9029(8) 0.4476(4)
H8 H 0.676(10) -1.051(15) 0.461(6)
H9 H 0.764(12) -0.911(14) 0.424(7)
O8 O 0.3506(7) -0.6176(8) 0.2943(4)
H10 H 0.413(11) -0.586(13) 0.247(7)
H11 H 0.276(12) -0.652(15) 0.277(7)
Co1_2 Co 0.51544(12) 0.24260(14) 0.37260(7)
Co1A Co 0.48456(12) -0.25740(14) 0.12740(7)
Co1B Co 0.48456(12) -0.24260(14) 0.62740(7)
O2B O 0.5774(6) -0.4984(8) 0.4172(4)
O5_2 O 0.4400(6) -1.0068(7) 0.3273(4)
O6A O 0.6789(7) -0.7256(8) 0.2795(4)
O9 O 0.0493(9) -0.1946(13) 0.6344(5)
H12 H 0.121(15) -0.18(2) 0.658(9)
H13 H -0.022(15) -0.19(2) 0.660(9)
loop_
_geom_bond_atom_site_label_1
_geom_bond_atom_site_label_2
_geom_bond_site_symmetry_1
_geom_bond_site_symmetry_2
Co1 O3 1_555 1_555
P1 C1 1_555 1_555
P2 C2 1_555 1_555
N1 H1 1_555 1_555
H2 N1 1_555 1_555
C1 N1 1_555 1_555
H3 C1 1_555 1_555
H4 C1 1_555 1_555
C2 N1 1_555 1_555
H5 C2 1_555 1_555
H6 C2 1_555 1_555
O1 P1 1_555 1_555
H7 O1 1_555 1_555
O2 P1 1_555 1_555
O3 P1 1_555 1_555
O4 P2 1_555 1_555
O5 P2 1_555 1_555
O6 P2 1_555 1_555
O7 Co1 1_555 1_555
H8 O7 1_555 1_555
H9 O7 1_555 1_555
O8 Co1 1_555 1_555
H10 O8 1_555 1_555
H11 O8 1_555 1_555
O9 H12 1_555 1_555
H13 O9 1_555 1_555
Co1_2 O5 1_555 1_555
Co1A O6 1_555 1_555
Co1B O2 1_555 1_555
O2B Co1 1_555 1_555
O5_2 Co1 1_555 1_555
O6A Co1 1_555 1_555

#END
