
#######################################################################
#
#                 Cambridge Crystallographic Data Centre
#                                CCDC 
#
#######################################################################
#
# If this CIF has been generated from an entry in the Cambridge 
# Structural Database, then it will include bibliographic, chemical, 
# crystal, experimental, refinement or atomic coordinate data resulting 
# from the CCDC's data processing and validation procedures.
#
#######################################################################

data_HAZWIP
_symmetry_cell_setting           tetragonal
_symmetry_space_group_name_H-M   'P 43 21 2'
_symmetry_Int_Tables_number      96
_space_group_name_Hall           'P 4nw 2abw'
loop_
_symmetry_equiv_pos_site_id
_symmetry_equiv_pos_as_xyz
1 x,y,z
2 -x,-y,1/2+z
3 1/2-y,1/2+x,3/4+z
4 1/2+y,1/2-x,1/4+z
5 1/2-x,1/2+y,3/4-z
6 1/2+x,1/2-y,1/4-z
7 y,x,-z
8 -y,-x,1/2-z
_cell_length_a                   11.0763(2)
_cell_length_b                   11.0763(2)
_cell_length_c                   27.4307(5)
_cell_angle_alpha                90
_cell_angle_beta                 90
_cell_angle_gamma                90
_cell_volume                     3365.32
loop_
_atom_site_label
_atom_site_type_symbol
_atom_site_fract_x
_atom_site_fract_y
_atom_site_fract_z
Cu1 Cu -0.48391(4) -0.48391(4) 1.0000
Ni1 Ni -0.47164(5) -0.52836(5) 0.7500
O1 O -0.6109(2) -0.6109(2) 1.0000
H1 H -0.6097 -0.7000 1.0086
O2 O -0.6302(3) -0.3438(3) 0.99145(11)
H2 H -0.6971 -0.3733 0.9777
H3 H -0.6482 -0.3162 1.0212
O3 O -0.6109(6) -0.3891(6) 0.7500
H4 H -0.6590 -0.3943 0.7814
O4 O -0.3500(3) -0.3972(3) 0.74526(10)
H5 H -0.2890 -0.4020 0.7546
H6 H -0.3668 -0.3206 0.7374
N1 N -0.4661(3) -0.4972(3) 0.92688(10)
N2 N -0.4065(3) -0.2937(3) 0.91961(10)
N3 N -0.3540(2) -0.3540(2) 1.0000
N4 N -0.4649(3) -0.5154(3) 0.82564(11)
N5 N -0.1755(3) -0.1755(3) 1.0000
C1 C -0.4878(3) -0.6032(3) 0.90407(12)
H7 H -0.5041 -0.6730 0.9231
C2 C -0.4871(4) -0.6128(3) 0.85424(13)
H8 H -0.5023 -0.6889 0.8395
C3 C -0.4415(4) -0.4116(4) 0.84807(12)
H9 H -0.4262 -0.3417 0.8290
C4 C -0.4386(3) -0.4020(3) 0.89911(12)
C5 C -0.3378(3) -0.2792(3) 0.96204(12)
C6 C -0.2523(3) -0.1877(3) 0.96293(13)
H10 H -0.1325 -0.2483 1.0635
Ni1C Ni -0.02836(5) -0.02836(5) 1.0000
Ni1A Ni -0.52836(5) -0.47164(5) 1.2500
H1F H -0.7000 -0.6097 0.9914
O2F O -0.3438(3) -0.6302(3) 1.00855(11)
H2F H -0.3733 -0.6971 1.0223
H3F H -0.3162 -0.6482 0.9788
H4G H -0.6057 -0.3410 0.7186
O4G O -0.6028(3) -0.6500(3) 0.75474(10)
H5G H -0.5980 -0.7110 0.7454
H6G H -0.6794 -0.6332 0.7626
N1F N -0.4972(3) -0.4661(3) 1.07312(10)
N2F N -0.2937(3) -0.4065(3) 1.08039(10)
N4G N -0.4846(3) -0.5351(3) 0.67436(11)
N4F N -0.5154(3) -0.4649(3) 1.17436(11)
N5B N -0.3245(3) -0.6755(3) 0.7500
C1F C -0.6032(3) -0.4878(3) 1.09593(12)
H7F H -0.6730 -0.5041 1.0769
C2F C -0.6128(3) -0.4871(4) 1.14576(13)
H8F H -0.6889 -0.5023 1.1605
C3F C -0.4116(4) -0.4415(4) 1.15193(12)
H9F H -0.3417 -0.4262 1.1710
C4F C -0.4020(3) -0.4386(3) 1.10089(12)
C5F C -0.2792(3) -0.3378(3) 1.03796(12)
C6F C -0.1877(3) -0.2523(3) 1.03707(13)
H10F H -0.2483 -0.1325 0.9365
Cl1 Cl 0.14354(12) 0.27114(12) 0.12028(5)
O5 O 0.2217(5) 0.1755(5) 0.1100(3)
O6 O 0.1750(6) 0.3206(6) 0.16653(18)
O7 O 0.1562(5) 0.3636(4) 0.08542(16)
O8 O 0.0227(3) 0.2279(3) 0.12246(14)
Cl2 Cl -0.51805(11) -1.12079(9) 0.09133(4)
O9 O -0.4755(4) -1.1078(4) 0.04333(13)
O10 O -0.6149(4) -1.2058(4) 0.09212(16)
O11 O -0.5652(4) -1.0105(3) 0.11015(16)
O12 O -0.4233(5) -1.1661(5) 0.12093(16)
O13 O -0.5873(5) -0.8276(4) 0.21491(19)
H11 H -0.6632 -0.8494 0.2114
H12 H -0.5296 -0.8798 0.2022
O14 O -0.5836(7) -0.8432(5) 0.0254(2)
H13 H -0.6628 -0.8618 0.0301
H14 H -0.5458 -0.8278 0.0538
O15 O -0.3878(7) -1.1250(6) 0.22212(17)
H15 H -0.4462 -1.1037 0.2007
H16 H -0.3862 -1.0859 0.2517
loop_
_geom_bond_atom_site_label_1
_geom_bond_atom_site_label_2
_geom_bond_site_symmetry_1
_geom_bond_site_symmetry_2
Cu1 O1 1_555 1_555
Ni1 O3 1_555 1_555
O1 H1 1_555 1_555
O2 Cu1 1_555 1_555
H2 O2 1_555 1_555
H3 O2 1_555 1_555
O3 H4 1_555 1_555
O4 Ni1 1_555 1_555
H5 O4 1_555 1_555
H6 O4 1_555 1_555
N1 Cu1 1_555 1_555
N2 C4 1_555 1_555
N3 Cu1 1_555 1_555
N4 Ni1 1_555 1_555
N5 C6 1_555 1_555
C1 N1 1_555 1_555
H7 C1 1_555 1_555
C2 N4 1_555 1_555
H8 C2 1_555 1_555
C3 N4 1_555 1_555
H9 C3 1_555 1_555
C4 N1 1_555 1_555
C5 N2 1_555 1_555
C6 C5 1_555 1_555
H10 C6F 1_555 1_555
Cl1 O5 1_555 1_555
O6 Cl1 1_555 1_555
O7 Cl1 1_555 1_555
O8 Cl1 1_555 1_555
Cl2 O9 1_555 1_555
O10 Cl2 1_555 1_555
O11 Cl2 1_555 1_555
O12 Cl2 1_555 1_555
O13 H11 1_555 1_555
H12 O13 1_555 1_555
O14 H13 1_555 1_555
H14 O14 1_555 1_555
O15 H15 1_555 1_555
H16 O15 1_555 1_555
Ni1C N5 1_555 1_555
Ni1A N4F 1_555 1_555
H1F O1 1_555 1_555
O2F Cu1 1_555 1_555
H2F O2F 1_555 1_555
H3F O2F 1_555 1_555
H4G O3 1_555 1_555
O4G Ni1 1_555 1_555
H5G O4G 1_555 1_555
H6G O4G 1_555 1_555
N1F Cu1 1_555 1_555
N2F C4F 1_555 1_555
N4G Ni1 1_555 1_555
N4F C2F 1_555 1_555
N5B Ni1 1_555 1_555
C1F N1F 1_555 1_555
H7F C1F 1_555 1_555
C2F C1F 1_555 1_555
H8F C2F 1_555 1_555
C3F N4F 1_555 1_555
H9F C3F 1_555 1_555
C4F N1F 1_555 1_555
C5F N3 1_555 1_555
C6F N5 1_555 1_555
H10F C6 1_555 1_555
N3 C5 1_555 1_555
C1 C2 1_555 1_555
C3 C4 1_555 1_555
N2F C5F 1_555 1_555
C3F C4F 1_555 1_555
C5F C6F 1_555 1_555

#END
