
#######################################################################
#
#                 Cambridge Crystallographic Data Centre
#                                CCDC 
#
#######################################################################
#
# If this CIF has been generated from an entry in the Cambridge 
# Structural Database, then it will include bibliographic, chemical, 
# crystal, experimental, refinement or atomic coordinate data resulting 
# from the CCDC's data processing and validation procedures.
#
#######################################################################

data_HAZYUE
_symmetry_cell_setting           monoclinic
_symmetry_space_group_name_H-M   'P 21/c'
_symmetry_Int_Tables_number      14
_space_group_name_Hall           '-P 2ybc'
loop_
_symmetry_equiv_pos_site_id
_symmetry_equiv_pos_as_xyz
1 x,y,z
2 -x,1/2+y,1/2-z
3 -x,-y,-z
4 x,1/2-y,1/2+z
_cell_length_a                   11.772(2)
_cell_length_b                   7.5720(15)
_cell_length_c                   13.663(3)
_cell_angle_alpha                90
_cell_angle_beta                 94.14(3)
_cell_angle_gamma                90
_cell_volume                     1214.71
loop_
_atom_site_label
_atom_site_type_symbol
_atom_site_fract_x
_atom_site_fract_y
_atom_site_fract_z
Zn1 Zn 0.17384(3) 0.54500(5) 0.10555(3)
Zn2 Zn 0.08990(3) 0.77132(5) -0.20917(3)
O1 O 0.1570(2) 0.5889(4) -0.03514(18)
O2 O 0.1655(2) 0.5352(3) -0.19198(17)
O3 O 0.0926(2) 0.3344(3) 0.15003(18)
O4 O 0.0053(2) 0.0842(3) 0.12169(19)
O5 O 0.6777(2) 0.0876(4) 0.32373(19)
O6 O 0.7671(2) 0.0843(4) 0.1848(2)
O7 O 0.0617(2) 0.7109(3) 0.15114(18)
H1 H 0.060(4) 0.813(3) 0.127(3)
N1 N 0.2573(2) 0.2603(4) 0.0154(2)
C1 C 0.1868(3) 0.4933(4) -0.1040(2)
C2 C 0.2554(3) 0.3273(6) -0.0860(3)
H2 H 0.2240 0.2343 -0.1311
H3 H 0.3347 0.3503 -0.1022
C3 C 0.0843(3) 0.1892(4) 0.1059(2)
C4 C 0.1637(3) 0.1374(5) 0.0291(3)
H4 H 0.1966 0.0204 0.0467
H5 H 0.1184 0.1242 -0.0344
C5 C 0.3637(3) 0.2174(4) 0.0656(2)
C6 C 0.3639(3) 0.1394(5) 0.1590(3)
H6 H 0.2937 0.1128 0.1859
C7 C 0.4649(3) 0.1014(5) 0.2119(3)
H7 H 0.4634 0.0519 0.2757
C8 C 0.4676(3) 0.2472(5) 0.0266(3)
H8 H 0.4697 0.2973 -0.0370
C9 C 0.5689(3) 0.2040(5) 0.0802(3)
H9 H 0.6394 0.2229 0.0521
C10 C 0.5686(3) 0.1342(4) 0.1735(2)
C11 C 0.6787(3) 0.0986(4) 0.2312(3)
Zn1A Zn 0.82616(3) 0.04500(5) 0.39445(3)
Zn2B Zn -0.08990(3) 0.22868(5) 0.20917(3)
Zn2B_2 Zn 0.91010(3) 0.22868(5) 0.20917(3)
Zn2C Zn 0.08990(3) 0.72868(5) 0.29083(3)
O3B O -0.0926(2) 0.6656(3) -0.15003(18)
O4B O -0.0053(2) 0.9158(3) -0.12169(19)
O5A O 0.3223(2) 0.5876(4) 0.17627(19)
O6B O 0.2329(2) 0.9157(4) -0.1848(2)
O7C O 0.0617(2) 0.7891(3) -0.34886(18)
H1C H 0.060(4) 0.687(3) -0.373(3)
loop_
_geom_bond_atom_site_label_1
_geom_bond_atom_site_label_2
_geom_bond_site_symmetry_1
_geom_bond_site_symmetry_2
Zn1 O1 1_555 1_555
Zn2 O2 1_555 1_555
O1 C1 1_555 1_555
O2 C1 1_555 1_555
O3 Zn1 1_555 1_555
O4 C3 1_555 1_555
O5 C11 1_555 1_555
O6 C11 1_555 1_555
O7 Zn1 1_555 1_555
H1 O7 1_555 1_555
N1 C2 1_555 1_555
C1 C2 1_555 1_555
C2 H2 1_555 1_555
H3 C2 1_555 1_555
C3 O3 1_555 1_555
C4 N1 1_555 1_555
H4 C4 1_555 1_555
H5 C4 1_555 1_555
C5 N1 1_555 1_555
C6 C5 1_555 1_555
H6 C6 1_555 1_555
C7 C6 1_555 1_555
H7 C7 1_555 1_555
C8 C5 1_555 1_555
H8 C8 1_555 1_555
C9 C8 1_555 1_555
H9 C9 1_555 1_555
C10 C7 1_555 1_555
C11 C10 1_555 1_555
Zn1A O5 1_555 1_555
Zn2B O3 1_555 1_555
Zn2B_2 O6 1_555 1_555
Zn2C O7 1_555 1_555
O3B Zn2 1_555 1_555
O4B Zn2 1_555 1_555
O5A Zn1 1_555 1_555
O6B Zn2 1_555 1_555
O7C Zn2 1_555 1_555
H1C O7C 1_555 1_555
O4 Zn2B 1_555 1_555
C3 C4 1_555 1_555
C9 C10 1_555 1_555

#END
