
#######################################################################
#
#                 Cambridge Crystallographic Data Centre
#                                CCDC 
#
#######################################################################
#
# If this CIF has been generated from an entry in the Cambridge 
# Structural Database, then it will include bibliographic, chemical, 
# crystal, experimental, refinement or atomic coordinate data resulting 
# from the CCDC's data processing and validation procedures.
#
#######################################################################

data_HEBFAW
_symmetry_cell_setting           triclinic
_symmetry_space_group_name_H-M   'P -1'
_symmetry_Int_Tables_number      2
_space_group_name_Hall           '-P 1'
loop_
_symmetry_equiv_pos_site_id
_symmetry_equiv_pos_as_xyz
1 x,y,z
2 -x,-y,-z
_cell_length_a                   5.9174(7)
_cell_length_b                   7.9631(10)
_cell_length_c                   12.4977(15)
_cell_angle_alpha                95.391(2)
_cell_angle_beta                 94.007(2)
_cell_angle_gamma                92.122(2)
_cell_volume                     584.3
loop_
_atom_site_label
_atom_site_type_symbol
_atom_site_fract_x
_atom_site_fract_y
_atom_site_fract_z
Cd1 Cd 0.0000 0.0000 0.0000
S1 S 0.2486(3) -0.2785(2) 0.03964(13)
N1 N 0.0469(8) -0.0638(6) -0.1869(3)
N2 N -0.2255(9) -0.3823(7) -0.5632(4)
N3 N 0.6755(8) -0.1714(6) -0.0153(4)
C1 C -0.1211(12) -0.1426(11) -0.2493(6)
H1 H -0.2566 -0.1638 -0.2185
C2 C -0.1098(12) -0.1959(11) -0.3571(5)
H2 H -0.2344 -0.2509 -0.3967
C3 C 0.0886(9) -0.1664(6) -0.4051(4)
C4 C 0.2602(10) -0.0764(8) -0.3420(5)
H3 H 0.3946 -0.0482 -0.3718
C5 C 0.2338(10) -0.0283(9) -0.2354(5)
H4 H 0.3529 0.0323 -0.1949
C6 C 0.1323(10) -0.2164(7) -0.5210(4)
C7 C -0.0372(9) -0.3202(6) -0.5990(4)
C8 C 0.0114(13) -0.3426(8) -0.7056(5)
H5 H 0.1461 -0.2980 -0.7277
C9 C -0.1433(14) -0.4321(10) -0.7786(5)
H6 H -0.1132 -0.4510 -0.8507
C10 C -0.3417(14) -0.4929(9) -0.7440(5)
H7 H -0.4518 -0.5499 -0.7922
C11 C -0.3741(12) -0.4675(9) -0.6356(5)
H8 H -0.5068 -0.5121 -0.6116
C12 C 0.4984(9) -0.2143(7) 0.0064(4)
O1 O 0.3109(8) -0.1718(7) -0.5527(4)
Cd1_2 Cd 1.0000 0.0000 0.0000
Cd1_3 Cd -1.0000 0.0000 0.0000
S1A S -0.2486(3) 0.2785(2) -0.03964(13)
N1A N -0.0469(8) 0.0638(6) 0.1869(3)
N2A N 0.2255(9) 0.3823(7) 0.5632(4)
N3A N -0.6755(8) 0.1714(6) 0.0153(4)
N3_2 N -0.3245(8) -0.1714(6) -0.0153(4)
N3A_2 N 0.3245(8) 0.1714(6) 0.0153(4)
C1A C 0.1211(12) 0.1426(11) 0.2493(6)
H1A H 0.2566 0.1638 0.2185
C2A C 0.1098(12) 0.1959(11) 0.3571(5)
H2A H 0.2344 0.2509 0.3967
C3A C -0.0886(9) 0.1664(6) 0.4051(4)
C4A C -0.2602(10) 0.0764(8) 0.3420(5)
H3A H -0.3946 0.0482 0.3718
C5A C -0.2338(10) 0.0283(9) 0.2354(5)
H4A H -0.3529 -0.0323 0.1949
C6A C -0.1323(10) 0.2164(7) 0.5210(4)
C7A C 0.0372(9) 0.3202(6) 0.5990(4)
C8A C -0.0114(13) 0.3426(8) 0.7056(5)
H5A H -0.1461 0.2980 0.7277
C9A C 0.1433(14) 0.4321(10) 0.7786(5)
H6A H 0.1132 0.4510 0.8507
C10A C 0.3417(14) 0.4929(9) 0.7440(5)
H7A H 0.4518 0.5499 0.7922
C11A C 0.3741(12) 0.4675(9) 0.6356(5)
H8A H 0.5068 0.5121 0.6116
C12A C -0.4984(9) 0.2143(7) -0.0064(4)
O1A O -0.3109(8) 0.1718(7) 0.5527(4)
loop_
_geom_bond_atom_site_label_1
_geom_bond_atom_site_label_2
_geom_bond_site_symmetry_1
_geom_bond_site_symmetry_2
Cd1 S1 1_555 1_555
S1 C12 1_555 1_555
N1 Cd1 1_555 1_555
N2 C7 1_555 1_555
N3 C12 1_555 1_555
C1 N1 1_555 1_555
H1 C1 1_555 1_555
C2 C1 1_555 1_555
H2 C2 1_555 1_555
C3 C2 1_555 1_555
C4 C3 1_555 1_555
H3 C4 1_555 1_555
C5 N1 1_555 1_555
H4 C5 1_555 1_555
C6 C3 1_555 1_555
C7 C6 1_555 1_555
C8 C7 1_555 1_555
H5 C8 1_555 1_555
C9 C8 1_555 1_555
H6 C9 1_555 1_555
C10 C9 1_555 1_555
H7 C10 1_555 1_555
C11 N2 1_555 1_555
H8 C11 1_555 1_555
O1 C6 1_555 1_555
Cd1_2 N3 1_555 1_555
Cd1_3 N3A 1_555 1_555
S1A Cd1 1_555 1_555
N1A Cd1 1_555 1_555
N2A C7A 1_555 1_555
N3A C12A 1_555 1_555
N3_2 Cd1 1_555 1_555
N3A_2 Cd1 1_555 1_555
C1A N1A 1_555 1_555
H1A C1A 1_555 1_555
C2A C1A 1_555 1_555
H2A C2A 1_555 1_555
C3A C2A 1_555 1_555
C4A C3A 1_555 1_555
H3A C4A 1_555 1_555
C5A N1A 1_555 1_555
H4A C5A 1_555 1_555
C6A C3A 1_555 1_555
C7A C6A 1_555 1_555
C8A C7A 1_555 1_555
H5A C8A 1_555 1_555
C9A C8A 1_555 1_555
H6A C9A 1_555 1_555
C10A C9A 1_555 1_555
H7A C10A 1_555 1_555
C11A N2A 1_555 1_555
H8A C11A 1_555 1_555
C12A S1A 1_555 1_555
O1A C6A 1_555 1_555
C4 C5 1_555 1_555
C10 C11 1_555 1_555
C4A C5A 1_555 1_555
C10A C11A 1_555 1_555

#END
