
#######################################################################
#
#                 Cambridge Crystallographic Data Centre
#                                CCDC 
#
#######################################################################
#
# If this CIF has been generated from an entry in the Cambridge 
# Structural Database, then it will include bibliographic, chemical, 
# crystal, experimental, refinement or atomic coordinate data resulting 
# from the CCDC's data processing and validation procedures.
#
#######################################################################

data_HEBHED
_symmetry_cell_setting           monoclinic
_symmetry_space_group_name_H-M   'P 21/n'
_symmetry_Int_Tables_number      14
_space_group_name_Hall           '-P 2yn'
loop_
_symmetry_equiv_pos_site_id
_symmetry_equiv_pos_as_xyz
1 x,y,z
2 1/2-x,1/2+y,1/2-z
3 -x,-y,-z
4 1/2+x,1/2-y,1/2+z
_cell_length_a                   13.8015(18)
_cell_length_b                   9.1393(12)
_cell_length_c                   17.045(2)
_cell_angle_alpha                90
_cell_angle_beta                 111.037(2)
_cell_angle_gamma                90
_cell_volume                     2006.69
loop_
_atom_site_label
_atom_site_type_symbol
_atom_site_fract_x
_atom_site_fract_y
_atom_site_fract_z
Co1 Co 0.08292(3) 0.89759(5) 1.02824(3)
O1 O -0.03516(18) 0.7564(3) 0.97627(15)
O2 O -0.3692(2) 0.6112(3) 1.42905(15)
O3 O -0.16656(19) 0.9150(2) 0.93676(15)
O4 O -0.3589(3) 0.3968(3) 1.07761(18)
O5 O -0.49680(18) 0.4486(3) 1.39058(15)
N1 N 0.1767(2) 0.7529(3) 1.11568(16)
C1 C -0.1281(3) 0.7913(4) 0.9615(2)
C2 C -0.4260(3) 0.5178(4) 1.3777(2)
C3 C -0.3404(3) 0.5771(4) 1.2746(2)
H1 H -0.3085 0.6564 1.3081
C4 C -0.4043(2) 0.4869(3) 1.2999(2)
C5 C -0.1943(3) 0.6803(4) 0.9831(2)
C6 C -0.3692(3) 0.4322(4) 1.1526(2)
C7 C 0.2795(3) 0.7382(4) 1.1364(2)
C8 C -0.1522(3) 0.5474(4) 1.0175(2)
H2 H -0.0864 0.5211 1.0193
N2 N 0.3271(3) 0.8314(4) 1.1012(2)
C9 C -0.3039(3) 0.4929(4) 1.0457(2)
C10 C 0.4660(3) 0.9155(4) 1.0534(2)
C11 C 0.1271(3) 0.6596(4) 1.1497(2)
H3 H 0.0559 0.6708 1.1355
C12 C -0.2944(3) 0.7143(4) 0.9765(2)
H4 H -0.3246 0.8011 0.9508
C13 C -0.4487(3) 0.3668(4) 1.2506(2)
H5 H -0.4913 0.3044 1.2668
C14 C 0.4356(3) 0.8184(5) 1.1117(3)
H6 H 0.4501 0.7176 1.1019
H7 H 0.4778 0.8427 1.1693
C15 C -0.3229(3) 0.5523(4) 1.2012(2)
H8 H -0.2808 0.6150 1.1845
C16 C -0.4306(3) 0.3388(4) 1.1781(2)
H9 H -0.4597 0.2567 1.1461
C17 C 0.1754(4) 0.5501(5) 1.2035(3)
H10 H 0.1383 0.4873 1.2253
C18 C 0.4001(3) 0.9491(4) 0.9741(2)
H11 H 0.3321 0.9151 0.9556
C19 C 0.5672(3) 0.9677(4) 1.0788(3)
H12 H 0.6136 0.9459 1.1324
C20 C 0.2811(4) 0.5353(5) 1.2246(3)
H13 H 0.3165 0.4617 1.2614
C21 C 0.3335(3) 0.6276(5) 1.1920(3)
H14 H 0.4049 0.6178 1.2063
C22 C -0.2073(3) 0.4535(4) 1.0493(2)
H15 H -0.1789 0.3644 1.0727
C23 C -0.3498(3) 0.6204(4) 1.0078(3)
H16 H -0.4173 0.6431 1.0033
H17 H 0.301(3) 0.886(5) 1.080(3)
Co1C Co 0.58292(3) 0.60241(5) 0.52824(3)
Co1C_2 Co -0.41708(3) 0.60241(5) 1.52824(3)
Co1B Co -0.08292(3) 1.10241(5) 0.97176(3)
Co1A Co -0.58292(3) 0.39759(5) 1.47176(3)
Co1B_2 Co 0.91708(3) 1.10241(5) 0.97176(3)
Co1A_2 Co 0.41708(3) 0.39759(5) 0.47176(3)
O1C O 0.46484(18) 0.7436(3) 0.47627(15)
O1B O 0.03516(18) 1.2436(3) 1.02373(15)
O2C O 0.1308(2) 0.8888(3) 0.92905(15)
O2A O -0.1308(2) 1.1112(3) 1.07095(15)
O3C O 0.33344(19) 0.5850(2) 0.43676(15)
O3B O 0.16656(19) 1.0850(2) 1.06324(15)
O4C O 0.1411(3) 1.1032(3) 0.57761(18)
O5C O 0.00320(18) 1.0514(3) 0.89058(15)
O5A O -0.00320(18) 0.9486(3) 1.10942(15)
N1B N 0.8233(2) 1.2471(3) 0.88432(16)
N1B_2 N -0.1767(2) 1.2471(3) 0.88432(16)
C1C C 0.3719(3) 0.7087(4) 0.4615(2)
C2C C 0.0740(3) 0.9822(4) 0.8777(2)
C3C C 0.1596(3) 0.9229(4) 0.7746(2)
H1C H 0.1915 0.8436 0.8081
C4C C 0.0957(2) 1.0131(3) 0.7999(2)
C5C C 0.3057(3) 0.8197(4) 0.4831(2)
C6C C 0.1308(3) 1.0678(4) 0.6526(2)
C7B C 0.7205(3) 1.2618(4) 0.8636(2)
C8C C 0.3478(3) 0.9526(4) 0.5175(2)
H2C H 0.4136 0.9789 0.5193
N2B N 0.6729(3) 1.1686(4) 0.8988(2)
C9C C 0.1961(3) 1.0071(4) 0.5457(2)
C10B C 0.5340(3) 1.0845(4) 0.9466(2)
C11B C 0.8729(3) 1.3404(4) 0.8503(2)
H3B H 0.9441 1.3292 0.8645
C12C C 0.2056(3) 0.7857(4) 0.4765(2)
H4C H 0.1754 0.6989 0.4508
C13C C 0.0513(3) 1.1332(4) 0.7506(2)
H5C H 0.0087 1.1956 0.7668
C14B C 0.5644(3) 1.1816(5) 0.8883(3)
H6B H 0.5499 1.2824 0.8981
H7B H 0.5222 1.1573 0.8307
C15C C 0.1771(3) 0.9477(4) 0.7012(2)
H8C H 0.2192 0.8850 0.6845
C16C C 0.0694(3) 1.1612(4) 0.6781(2)
H9C H 0.0403 1.2433 0.6461
C17B C 0.8246(4) 1.4499(5) 0.7965(3)
H10B H 0.8617 1.5127 0.7747
C18B C 0.5999(3) 1.0509(4) 1.0259(2)
H11B H 0.6679 1.0849 1.0444
C19B C 0.4328(3) 1.0323(4) 0.9212(3)
H12B H 0.3864 1.0541 0.8676
C20B C 0.7189(4) 1.4647(5) 0.7754(3)
H13B H 0.6835 1.5383 0.7386
C21B C 0.6665(3) 1.3724(5) 0.8080(3)
H14B H 0.5951 1.3822 0.7937
C22C C 0.2927(3) 1.0465(4) 0.5493(2)
H15C H 0.3211 1.1356 0.5727
C23C C 0.1502(3) 0.8796(4) 0.5078(3)
H16C H 0.0827 0.8569 0.5033
H17B H 0.699(3) 1.114(5) 0.920(3)
loop_
_geom_bond_atom_site_label_1
_geom_bond_atom_site_label_2
_geom_bond_site_symmetry_1
_geom_bond_site_symmetry_2
Co1 O1 1_555 1_555
O1 C1 1_555 1_555
O2 C2 1_555 1_555
O3 C1 1_555 1_555
O4 C6 1_555 1_555
O5 C2 1_555 1_555
N1 Co1 1_555 1_555
C1 C5 1_555 1_555
C2 C4 1_555 1_555
C3 H1 1_555 1_555
C4 C3 1_555 1_555
C5 C8 1_555 1_555
C6 C15 1_555 1_555
C7 N1 1_555 1_555
C8 H2 1_555 1_555
N2 C7 1_555 1_555
C9 O4 1_555 1_555
C10 C14 1_555 1_555
C11 N1 1_555 1_555
H3 C11 1_555 1_555
C12 C5 1_555 1_555
H4 C12 1_555 1_555
C13 C4 1_555 1_555
H5 C13 1_555 1_555
C14 N2 1_555 1_555
H6 C14 1_555 1_555
H7 C14 1_555 1_555
C15 C3 1_555 1_555
H8 C15 1_555 1_555
C16 C6 1_555 1_555
H9 C16 1_555 1_555
C17 C11 1_555 1_555
H10 C17 1_555 1_555
C18 C10 1_555 1_555
H11 C18 1_555 1_555
C19 C10 1_555 1_555
H12 C19 1_555 1_555
C20 C17 1_555 1_555
H13 C20 1_555 1_555
C21 C7 1_555 1_555
H14 C21 1_555 1_555
C22 C8 1_555 1_555
H15 C22 1_555 1_555
C23 C9 1_555 1_555
H16 C23 1_555 1_555
H17 N2 1_555 1_555
Co1C O1C 1_555 1_555
Co1C_2 O2 1_555 1_555
Co1B O3 1_555 1_555
Co1A O5 1_555 1_555
Co1B_2 N1B 1_555 1_555
Co1A_2 O3C 1_555 1_555
O1C C1C 1_555 1_555
O1B Co1B 1_555 1_555
O2C Co1 1_555 1_555
O2A Co1B 1_555 1_555
O3C C1C 1_555 1_555
O3B Co1 1_555 1_555
O4C C6C 1_555 1_555
O5C Co1B 1_555 1_555
O5A Co1 1_555 1_555
N1B C7B 1_555 1_555
N1B_2 Co1B 1_555 1_555
C1C C5C 1_555 1_555
C2C O2C 1_555 1_555
C3C H1C 1_555 1_555
C4C C2C 1_555 1_555
C5C C8C 1_555 1_555
C6C C15C 1_555 1_555
C7B N2B 1_555 1_555
C8C H2C 1_555 1_555
N2B C14B 1_555 1_555
C9C O4C 1_555 1_555
C10B C14B 1_555 1_555
C11B N1B 1_555 1_555
H3B C11B 1_555 1_555
C12C C5C 1_555 1_555
H4C C12C 1_555 1_555
C13C C4C 1_555 1_555
H5C C13C 1_555 1_555
C14B H6B 1_555 1_555
H7B C14B 1_555 1_555
C15C C3C 1_555 1_555
H8C C15C 1_555 1_555
C16C C6C 1_555 1_555
H9C C16C 1_555 1_555
C17B C11B 1_555 1_555
H10B C17B 1_555 1_555
C18B C19 1_555 1_555
H11B C18B 1_555 1_555
C19B C18 1_555 1_555
H12B C19B 1_555 1_555
C20B C17B 1_555 1_555
H13B C20B 1_555 1_555
C21B C7B 1_555 1_555
H14B C21B 1_555 1_555
C22C C8C 1_555 1_555
H15C C22C 1_555 1_555
C23C C9C 1_555 1_555
H16C C23C 1_555 1_555
H17B N2B 1_555 1_555
C9 C22 1_555 1_555
C12 C23 1_555 1_555
C13 C16 1_555 1_555
C20 C21 1_555 1_555
O5C C2C 1_555 1_555
C3C C4C 1_555 1_555
C9C C22C 1_555 1_555
C10B C18B 1_555 1_555
C10B C19B 1_555 1_555
C12C C23C 1_555 1_555
C13C C16C 1_555 1_555
C20B C21B 1_555 1_555

#END
