
#######################################################################
#
#                 Cambridge Crystallographic Data Centre
#                                CCDC 
#
#######################################################################
#
# If this CIF has been generated from an entry in the Cambridge 
# Structural Database, then it will include bibliographic, chemical, 
# crystal, experimental, refinement or atomic coordinate data resulting 
# from the CCDC's data processing and validation procedures.
#
#######################################################################

data_HEBHIH
_symmetry_cell_setting           monoclinic
_symmetry_space_group_name_H-M   'P 21/n'
_symmetry_Int_Tables_number      14
_space_group_name_Hall           '-P 2yn'
loop_
_symmetry_equiv_pos_site_id
_symmetry_equiv_pos_as_xyz
1 x,y,z
2 1/2-x,1/2+y,1/2-z
3 -x,-y,-z
4 1/2+x,1/2-y,1/2+z
_cell_length_a                   12.426(4)
_cell_length_b                   9.771(3)
_cell_length_c                   25.202(8)
_cell_angle_alpha                90
_cell_angle_beta                 92.962(5)
_cell_angle_gamma                90
_cell_volume                     3055.8
loop_
_atom_site_label
_atom_site_type_symbol
_atom_site_fract_x
_atom_site_fract_y
_atom_site_fract_z
Co1 Co 0.76763(3) 0.92338(5) 0.625871(16)
O1 O 1.27583(19) 0.6153(3) 0.80433(9)
O2 O 0.89658(19) 0.9268(2) 0.67910(9)
O3 O 1.3684(2) 0.5472(3) 1.05287(9)
O4 O 1.2063(2) 0.6228(4) 1.05140(10)
N1 N 0.6384(2) 0.8382(3) 0.66409(10)
C1 C 1.3684(3) 0.5750(3) 0.88552(13)
H1 H 1.4288 0.5539 0.8668
C2 C 1.2741(3) 0.6136(4) 0.85888(13)
C3 C 1.3730(3) 0.5678(3) 0.94024(12)
H2 H 1.4368 0.5415 0.9583
C4 C 1.2850(3) 0.5990(3) 0.96818(13)
C5 C 1.2876(3) 0.5889(4) 1.02735(14)
C6 C 1.1847(3) 0.6461(4) 0.88629(14)
H3 H 1.1208 0.6718 0.8681
C7 C 1.0126(3) 0.7501(3) 0.71104(11)
C8 C 0.9191(3) 0.8015(3) 0.67761(12)
N2 N 0.2685(2) 0.8695(3) 0.36610(10)
C9 C 1.0261(3) 0.6133(3) 0.72142(14)
H4 H 0.9777 0.5503 0.7062
C10 C 1.0863(3) 0.8420(3) 0.73343(12)
H5 H 1.0777 0.9351 0.7268
C11 C 1.1114(3) 0.5684(4) 0.75452(15)
H6 H 1.1189 0.4759 0.7626
N3 N 0.3683(3) 0.7353(5) 0.62138(16)
C12 C 0.1969(3) 0.6425(4) 0.37078(13)
C13 C 0.4579(3) 0.7494(4) 0.65421(14)
C14 C 0.3501(3) 0.8223(4) 0.33939(15)
H7 H 0.4016 0.8833 0.3280
C15 C 1.1726(3) 0.7975(4) 0.76552(12)
H8 H 1.2220 0.8599 0.7803
C16 C 0.4672(3) 0.7004(4) 0.70563(14)
H9 H 0.4104 0.6539 0.7201
C17 C 0.1943(3) 0.7821(3) 0.38170(12)
H10 H 0.1380 0.8159 0.4008
C18 C 0.2843(4) 0.5962(4) 0.34384(16)
H11 H 0.2909 0.5034 0.3364
C19 C 0.5463(3) 0.8180(4) 0.63593(15)
H12 H 0.5408 0.8524 0.6015
O5 O 0.8638(2) 0.7228(2) 0.64850(9)
N4 N 0.1164(3) 0.5569(4) 0.38498(15)
C20 C 0.1048(3) 0.6013(4) 0.48063(15)
C21 C 1.1845(3) 0.6615(4) 0.77530(12)
C22 C 0.0470(3) 0.5895(4) 0.42707(15)
H13 H 0.0108 0.6755 0.4188
H14 H -0.0078 0.5192 0.4286
C23 C 1.1908(3) 0.6402(5) 0.94096(14)
H15 H 1.1312 0.6640 0.9598
C24 C 0.2146(3) 0.6239(5) 0.58010(16)
C25 C 0.1831(3) 0.5092(5) 0.49654(16)
H16 H 0.2000 0.4382 0.4739
C26 C 0.5609(3) 0.7214(4) 0.73469(14)
H17 H 0.5680 0.6887 0.7693
C27 C 0.6456(3) 0.7906(4) 0.71361(13)
H18 H 0.7087 0.8042 0.7344
C28 C 0.2373(4) 0.5198(5) 0.54551(18)
H19 H 0.2900 0.4558 0.5553
C29 C 0.2808(3) 0.6422(5) 0.63070(16)
H20 H 0.2365 0.6789 0.6579
H21 H 0.3093 0.5546 0.6429
C30 C 0.3603(4) 0.6853(5) 0.32819(18)
H22 H 0.4187 0.6539 0.3100
C31 C 0.1339(4) 0.7124(4) 0.56489(16)
H23 H 0.1149 0.7813 0.5880
C32 C 0.0801(3) 0.7017(4) 0.51588(16)
H24 H 0.0259 0.7640 0.5065
H25 H 0.128(3) 0.481(4) 0.3781(16)
H26 H 0.364(3) 0.774(4) 0.5921(16)
Co1C Co 1.26763(3) 0.57662(5) 1.125871(16)
Co1B Co 0.23237(3) 1.07662(5) 0.374129(16)
O3C O 0.8684(2) 0.9528(3) 0.55287(9)
O4C O 0.7063(2) 0.8772(4) 0.55140(10)
N2B N 0.7315(2) 1.1305(3) 0.63390(10)
O6 O 0.4107(7) 0.8375(11) 0.5016(3)
loop_
_geom_bond_atom_site_label_1
_geom_bond_atom_site_label_2
_geom_bond_site_symmetry_1
_geom_bond_site_symmetry_2
Co1 O2 1_555 1_555
O1 C2 1_555 1_555
O2 C8 1_555 1_555
O3 C5 1_555 1_555
O4 C5 1_555 1_555
N1 Co1 1_555 1_555
C1 H1 1_555 1_555
C2 C1 1_555 1_555
C3 C1 1_555 1_555
H2 C3 1_555 1_555
C4 C3 1_555 1_555
C5 C4 1_555 1_555
C6 C2 1_555 1_555
H3 C6 1_555 1_555
C7 C8 1_555 1_555
C8 O5 1_555 1_555
N2 C14 1_555 1_555
C9 C7 1_555 1_555
H4 C9 1_555 1_555
C10 C7 1_555 1_555
H5 C10 1_555 1_555
C11 C9 1_555 1_555
H6 C11 1_555 1_555
N3 C13 1_555 1_555
C12 C17 1_555 1_555
C13 C16 1_555 1_555
C14 H7 1_555 1_555
C15 C10 1_555 1_555
H8 C15 1_555 1_555
C16 H9 1_555 1_555
C17 N2 1_555 1_555
H10 C17 1_555 1_555
C18 C12 1_555 1_555
H11 C18 1_555 1_555
C19 N1 1_555 1_555
H12 C19 1_555 1_555
O5 Co1 1_555 1_555
N4 C12 1_555 1_555
C20 C22 1_555 1_555
C21 O1 1_555 1_555
C22 N4 1_555 1_555
H13 C22 1_555 1_555
H14 C22 1_555 1_555
C23 C4 1_555 1_555
H15 C23 1_555 1_555
C24 C28 1_555 1_555
C25 C20 1_555 1_555
H16 C25 1_555 1_555
C26 C16 1_555 1_555
H17 C26 1_555 1_555
C27 N1 1_555 1_555
H18 C27 1_555 1_555
C28 C25 1_555 1_555
H19 C28 1_555 1_555
C29 N3 1_555 1_555
H20 C29 1_555 1_555
H21 C29 1_555 1_555
C30 C14 1_555 1_555
H22 C30 1_555 1_555
C31 C24 1_555 1_555
H23 C31 1_555 1_555
C32 C20 1_555 1_555
H24 C32 1_555 1_555
H25 N4 1_555 1_555
H26 N3 1_555 1_555
Co1C O3 1_555 1_555
Co1B N2 1_555 1_555
O3C Co1 1_555 1_555
O4C Co1 1_555 1_555
N2B Co1 1_555 1_555
O4 Co1C 1_555 1_555
C6 C23 1_555 1_555
C11 C21 1_555 1_555
C13 C19 1_555 1_555
C15 C21 1_555 1_555
C18 C30 1_555 1_555
C24 C29 1_555 1_555
C26 C27 1_555 1_555
C31 C32 1_555 1_555

#END
