
#######################################################################
#
#                 Cambridge Crystallographic Data Centre
#                                CCDC 
#
#######################################################################
#
# If this CIF has been generated from an entry in the Cambridge 
# Structural Database, then it will include bibliographic, chemical, 
# crystal, experimental, refinement or atomic coordinate data resulting 
# from the CCDC's data processing and validation procedures.
#
#######################################################################

data_HEBJIJ
_symmetry_cell_setting           triclinic
_symmetry_space_group_name_H-M   'P -1'
_symmetry_Int_Tables_number      2
_space_group_name_Hall           '-P 1'
loop_
_symmetry_equiv_pos_site_id
_symmetry_equiv_pos_as_xyz
1 x,y,z
2 -x,-y,-z
_cell_length_a                   8.280(6)
_cell_length_b                   10.184(5)
_cell_length_c                   15.679(4)
_cell_angle_alpha                81.102(3)
_cell_angle_beta                 85.719(5)
_cell_angle_gamma                74.985(6)
_cell_volume                     1260.77
loop_
_atom_site_label
_atom_site_type_symbol
_atom_site_fract_x
_atom_site_fract_y
_atom_site_fract_z
Co1 Co 1.03269(8) 1.02186(6) 0.74982(4)
Co2 Co 0.0000 0.5000 1.5000
O1 O 0.9794(4) 0.8439(3) 0.8057(2)
O2 O 1.0823(4) 0.7202(3) 0.6993(2)
O3 O 1.0403(4) 0.2320(3) 0.72912(19)
O4 O 0.8885(4) 0.1574(3) 0.8373(2)
O5 O 0.7229(4) 0.5439(3) 1.0232(2)
O6 O 0.2080(4) 0.4769(3) 1.4155(2)
O7 O 0.2934(4) 0.6674(3) 1.4168(2)
N1 N 1.2300(5) 0.9898(4) 0.8370(2)
C1 C 1.0075(6) 0.7353(5) 0.7716(3)
C2 C 0.9472(5) 0.6168(4) 0.8214(3)
C3 C 0.9798(6) 0.4930(5) 0.7876(3)
H1 H 1.0399 0.4828 0.7355
C4 C 0.9209(6) 0.3853(4) 0.8332(3)
C5 C 0.9491(6) 0.2531(5) 0.7983(3)
C6 C 0.8356(6) 0.3971(5) 0.9124(3)
H2 H 0.7981 0.3238 0.9425
C7 C 0.8065(6) 0.5207(5) 0.9465(3)
C8 C 0.8628(6) 0.6307(5) 0.9001(3)
H3 H 0.8433 0.7131 0.9225
C9 C 0.6774(6) 0.4267(5) 1.0723(3)
H4 H 0.7771 0.3529 1.0848
H5 H 0.6051 0.3944 1.0390
C10 C 0.5879(6) 0.4650(5) 1.1556(3)
C11 C 0.5102(6) 0.3698(5) 1.2038(3)
H6 H 0.5197 0.2857 1.1851
C12 C 0.4201(6) 0.3994(5) 1.2782(3)
H7 H 0.3666 0.3361 1.3091
C13 C 0.4077(6) 0.5235(5) 1.3083(3)
C14 C 0.4892(6) 0.6175(5) 1.2615(3)
H8 H 0.4830 0.7003 1.2813
C15 C 0.5791(6) 0.5880(5) 1.1860(3)
H9 H 0.6339 0.6506 1.1554
C16 C 0.2954(6) 0.5597(5) 1.3854(3)
C17 C 1.1965(6) 0.9529(5) 0.9215(3)
H10 H 1.0994 0.9238 0.9366
C18 C 1.2961(6) 0.9557(5) 0.9857(3)
H11 H 1.2655 0.9305 1.0430
C19 C 1.4438(6) 0.9964(5) 0.9659(3)
C20 C 1.4807(7) 1.0303(5) 0.8781(3)
H12 H 1.5791 1.0564 0.8607
C21 C 1.3730(7) 1.0253(5) 0.8178(3)
H13 H 1.4014 1.0482 0.7599
O8 O 0.8389(4) 1.0685(3) 0.6651(2)
O9 O 1.1951(4) 0.9369(3) 0.6496(2)
O10 O -0.0533(4) 0.3255(3) 1.4621(2)
O11 O 0.1511(4) 0.3783(3) 1.5939(2)
H14 H 0.8073 1.1572 0.6382
H15 H 1.1654 0.8592 0.6440
H16 H -0.1422 0.3089 1.4918
H17 H 0.2401 0.3136 1.5788
H18 H 0.8455 1.0229 0.6199
H19 H 1.3011 0.9179 0.6730
H20 H -0.0635 0.3231 1.4087
H21 H 0.1452 0.3413 1.6490
Co1A Co -1.03269(8) -0.02186(6) 2.25018(4)
Co1_2 Co 1.03269(8) 0.02186(6) 0.74982(4)
Co1A_2 Co 1.96731(8) 0.97814(6) 1.25018(4)
Co1A_3 Co -1.03269(8) 0.97814(6) 2.25018(4)
O1A O -0.9794(4) 0.1561(3) 2.1943(2)
O2A O -1.0823(4) 0.2798(3) 2.3007(2)
O3A O -1.0403(4) 0.7680(3) 2.27088(19)
O3_2 O 1.0403(4) 1.2320(3) 0.72912(19)
O3A_2 O -1.0403(4) -0.2320(3) 2.27088(19)
O4A O -0.8885(4) 0.8426(3) 2.1627(2)
O4_2 O 0.8885(4) 1.1574(3) 0.8373(2)
O4A_2 O -0.8885(4) -0.1574(3) 2.1627(2)
O5A O -0.7229(4) 0.4561(3) 1.9768(2)
O6A O -0.2080(4) 0.5231(3) 1.5845(2)
O7A O -0.2934(4) 0.3326(3) 1.5832(2)
N1A N 1.7700(5) 1.0102(4) 1.1630(2)
N1A_2 N -1.2300(5) 0.0102(4) 2.1630(2)
C1A C -1.0075(6) 0.2647(5) 2.2284(3)
C2A C -0.9472(5) 0.3832(4) 2.1786(3)
C3A C -0.9798(6) 0.5070(5) 2.2124(3)
H1A H -1.0399 0.5172 2.2645
C4A C -0.9209(6) 0.6147(4) 2.1668(3)
C5A C -0.9491(6) 0.7469(5) 2.2017(3)
C6A C -0.8356(6) 0.6029(5) 2.0876(3)
H2A H -0.7981 0.6762 2.0575
C7A C -0.8065(6) 0.4793(5) 2.0535(3)
C8A C -0.8628(6) 0.3693(5) 2.0999(3)
H3A H -0.8433 0.2869 2.0775
C9A C -0.6774(6) 0.5733(5) 1.9277(3)
H4A H -0.7771 0.6471 1.9152
H5A H -0.6051 0.6056 1.9610
C10A C -0.5879(6) 0.5350(5) 1.8444(3)
C11A C -0.5102(6) 0.6302(5) 1.7962(3)
H6A H -0.5197 0.7143 1.8149
C12A C -0.4201(6) 0.6006(5) 1.7218(3)
H7A H -0.3666 0.6639 1.6909
C13A C -0.4077(6) 0.4765(5) 1.6917(3)
C14A C -0.4892(6) 0.3825(5) 1.7385(3)
H8A H -0.4830 0.2997 1.7187
C15A C -0.5791(6) 0.4120(5) 1.8140(3)
H9A H -0.6339 0.3494 1.8446
C16A C -0.2954(6) 0.4403(5) 1.6146(3)
C17A C 1.8035(6) 1.0471(5) 1.0785(3)
H10A H 1.9006 1.0762 1.0634
C18A C 1.7039(6) 1.0443(5) 1.0143(3)
H11A H 1.7345 1.0695 0.9570
C19A C 1.5562(6) 1.0036(5) 1.0341(3)
C20A C 1.5193(7) 0.9697(5) 1.1219(3)
H12A H 1.4209 0.9436 1.1393
C21A C 1.6270(7) 0.9747(5) 1.1822(3)
H13A H 1.5986 0.9518 1.2401
O8A O -0.8389(4) -0.0685(3) 2.3349(2)
O9A O -1.1951(4) 0.0631(3) 2.3504(2)
O10A O 0.0533(4) 0.6745(3) 1.5379(2)
O11A O -0.1511(4) 0.6217(3) 1.4061(2)
H14A H -0.8073 -0.1572 2.3618
H15A H -1.1654 0.1408 2.3560
H16A H 0.1422 0.6911 1.5082
H17A H -0.2401 0.6864 1.4212
H18A H -0.8455 -0.0229 2.3801
H19A H -1.3011 0.0821 2.3270
H20A H 0.0635 0.6769 1.5913
H21A H -0.1452 0.6587 1.3510
O12 O 0.1682(4) 0.0721(4) 1.4735(2)
O13 O 0.5418(5) 0.7696(5) 1.4614(3)
O14 O 1.5133(6) 0.9508(6) 0.6081(4)
loop_
_geom_bond_atom_site_label_1
_geom_bond_atom_site_label_2
_geom_bond_site_symmetry_1
_geom_bond_site_symmetry_2
Co1 O1 1_555 1_555
Co2 O6 1_555 1_555
O1 C1 1_555 1_555
O2 C1 1_555 1_555
O3 C5 1_555 1_555
O4 C5 1_555 1_555
O5 C7 1_555 1_555
O6 C16 1_555 1_555
O7 C16 1_555 1_555
N1 Co1 1_555 1_555
C1 C2 1_555 1_555
C2 C3 1_555 1_555
C3 H1 1_555 1_555
C4 C3 1_555 1_555
C5 C4 1_555 1_555
C6 C4 1_555 1_555
H2 C6 1_555 1_555
C7 C6 1_555 1_555
C8 C2 1_555 1_555
H3 C8 1_555 1_555
C9 O5 1_555 1_555
H4 C9 1_555 1_555
H5 C9 1_555 1_555
C10 C9 1_555 1_555
C11 C10 1_555 1_555
H6 C11 1_555 1_555
C12 C11 1_555 1_555
H7 C12 1_555 1_555
C13 C12 1_555 1_555
C14 C13 1_555 1_555
H8 C14 1_555 1_555
C15 C10 1_555 1_555
H9 C15 1_555 1_555
C16 C13 1_555 1_555
C17 N1 1_555 1_555
H10 C17 1_555 1_555
C18 C17 1_555 1_555
H11 C18 1_555 1_555
C19 C18 1_555 1_555
C20 C19 1_555 1_555
H12 C20 1_555 1_555
C21 N1 1_555 1_555
H13 C21 1_555 1_555
O8 Co1 1_555 1_555
O9 Co1 1_555 1_555
O10 Co2 1_555 1_555
O11 Co2 1_555 1_555
H14 O8 1_555 1_555
H15 O9 1_555 1_555
H16 O10 1_555 1_555
H17 O11 1_555 1_555
H18 O8 1_555 1_555
H19 O9 1_555 1_555
H20 O10 1_555 1_555
H21 O11 1_555 1_555
Co1A O1A 1_555 1_555
Co1_2 O3 1_555 1_555
Co1A_2 N1A 1_555 1_555
Co1A_3 O3A 1_555 1_555
O1A C1A 1_555 1_555
O2A C1A 1_555 1_555
O3A C5A 1_555 1_555
O3_2 Co1 1_555 1_555
O3A_2 Co1A 1_555 1_555
O4A Co1A_3 1_555 1_555
O4_2 Co1 1_555 1_555
O4A_2 Co1A 1_555 1_555
O5A C7A 1_555 1_555
O6A Co2 1_555 1_555
O7A C16A 1_555 1_555
N1A C17A 1_555 1_555
N1A_2 Co1A 1_555 1_555
C1A C2A 1_555 1_555
C2A C3A 1_555 1_555
C3A H1A 1_555 1_555
C4A C3A 1_555 1_555
C5A O4A 1_555 1_555
C6A C4A 1_555 1_555
H2A C6A 1_555 1_555
C7A C6A 1_555 1_555
C8A C2A 1_555 1_555
H3A C8A 1_555 1_555
C9A O5A 1_555 1_555
H4A C9A 1_555 1_555
H5A C9A 1_555 1_555
C10A C9A 1_555 1_555
C11A C10A 1_555 1_555
H6A C11A 1_555 1_555
C12A C11A 1_555 1_555
H7A C12A 1_555 1_555
C13A C12A 1_555 1_555
C14A C13A 1_555 1_555
H8A C14A 1_555 1_555
C15A C10A 1_555 1_555
H9A C15A 1_555 1_555
C16A O6A 1_555 1_555
C17A H10A 1_555 1_555
C18A C17A 1_555 1_555
H11A C18A 1_555 1_555
C19A C19 1_555 1_555
C20A C19A 1_555 1_555
H12A C20A 1_555 1_555
C21A N1A 1_555 1_555
H13A C21A 1_555 1_555
O8A Co1A 1_555 1_555
O9A Co1A 1_555 1_555
O10A Co2 1_555 1_555
O11A Co2 1_555 1_555
H14A O8A 1_555 1_555
H15A O9A 1_555 1_555
H16A O10A 1_555 1_555
H17A O11A 1_555 1_555
H18A O8A 1_555 1_555
H19A O9A 1_555 1_555
H20A O10A 1_555 1_555
H21A O11A 1_555 1_555
O4 Co1_2 1_555 1_555
C7 C8 1_555 1_555
C14 C15 1_555 1_555
C20 C21 1_555 1_555
C4A C5A 1_555 1_555
C7A C8A 1_555 1_555
C13A C16A 1_555 1_555
C14A C15A 1_555 1_555
C18A C19A 1_555 1_555
C20A C21A 1_555 1_555

#END
