
#######################################################################
#
#                 Cambridge Crystallographic Data Centre
#                                CCDC 
#
#######################################################################
#
# If this CIF has been generated from an entry in the Cambridge 
# Structural Database, then it will include bibliographic, chemical, 
# crystal, experimental, refinement or atomic coordinate data resulting 
# from the CCDC's data processing and validation procedures.
#
#######################################################################

data_HEBLOR
_symmetry_cell_setting           monoclinic
_symmetry_space_group_name_H-M   'C 2/c'
_symmetry_Int_Tables_number      15
_space_group_name_Hall           '-C 2yn'
loop_
_symmetry_equiv_pos_site_id
_symmetry_equiv_pos_as_xyz
1 x,y,z
2 -x,y,1/2-z
3 1/2+x,1/2+y,z
4 1/2-x,1/2+y,1/2-z
5 -x,-y,-z
6 x,-y,1/2+z
7 1/2-x,1/2-y,-z
8 1/2+x,1/2-y,1/2+z
_cell_length_a                   6.3566(2)
_cell_length_b                   8.4626(2)
_cell_length_c                   16.7062(4)
_cell_angle_alpha                90
_cell_angle_beta                 94.0300(10)
_cell_angle_gamma                90
_cell_volume                     896.461
loop_
_atom_site_label
_atom_site_type_symbol
_atom_site_fract_x
_atom_site_fract_y
_atom_site_fract_z
U1 U 0.5000 0.5000 0.0000
O1 O 0.6579(3) 0.63299(19) 0.05859(9)
O2 O 0.5666(2) 0.31415(18) 0.10153(8)
O3 O 0.7087(3) 0.09400(19) 0.05781(9)
C1 C 0.6145(3) 0.1706(2) 0.10960(10)
C2 C 0.5000 0.1690(4) 0.2500
H1 H 0.5000 0.2789 0.2500
C3 C 0.5575(3) 0.0858(3) 0.18276(11)
C4 C 0.5000 -0.1614(4) 0.2500
H2 H 0.5000 -0.2713 0.2500
C5 C 0.5597(4) -0.0790(3) 0.18335(13)
H3 H 0.6014 -0.1340 0.1389
U1B U 1.0000 0.0000 0.0000
U1A U 0.5000 0.5000 0.5000
U1C U 0.0000 0.0000 0.5000
O1D O 0.3421(3) 0.36701(19) -0.05859(9)
O2A O 0.4334(2) 0.31415(18) 0.39847(8)
O2D O 0.4334(2) 0.68585(18) -0.10153(8)
O3A O 0.2913(3) 0.09400(19) 0.44219(9)
O3B O 0.2087(3) 0.59400(19) 0.05781(9)
O3F O 0.7913(3) 0.40600(19) -0.05781(9)
C1A C 0.3855(3) 0.1706(2) 0.39040(10)
C3A C 0.4425(3) 0.0858(3) 0.31724(11)
C5A C 0.4403(4) -0.0790(3) 0.31665(13)
H3A H 0.3986 -0.1340 0.3611
loop_
_geom_bond_atom_site_label_1
_geom_bond_atom_site_label_2
_geom_bond_site_symmetry_1
_geom_bond_site_symmetry_2
U1 O1 1_555 1_555
O2 U1 1_555 1_555
O3 C1 1_555 1_555
C1 O2 1_555 1_555
C2 H1 1_555 1_555
C3 C1 1_555 1_555
C4 H2 1_555 1_555
C5 C3 1_555 1_555
H3 C5 1_555 1_555
U1B O3 1_555 1_555
U1A O2A 1_555 1_555
U1C O3A 1_555 1_555
O1D U1 1_555 1_555
O2A C1A 1_555 1_555
O2D U1 1_555 1_555
O3A C1A 1_555 1_555
O3B U1 1_555 1_555
O3F U1 1_555 1_555
C1A C3A 1_555 1_555
C3A C2 1_555 1_555
C5A C4 1_555 1_555
H3A C5A 1_555 1_555
C2 C3 1_555 1_555
C4 C5 1_555 1_555
C3A C5A 1_555 1_555

#END
