
#######################################################################
#
#                 Cambridge Crystallographic Data Centre
#                                CCDC 
#
#######################################################################
#
# If this CIF has been generated from an entry in the Cambridge 
# Structural Database, then it will include bibliographic, chemical, 
# crystal, experimental, refinement or atomic coordinate data resulting 
# from the CCDC's data processing and validation procedures.
#
#######################################################################

data_HEBMIM
_symmetry_cell_setting           triclinic
_symmetry_space_group_name_H-M   'P -1'
_symmetry_Int_Tables_number      2
_space_group_name_Hall           '-P 1'
loop_
_symmetry_equiv_pos_site_id
_symmetry_equiv_pos_as_xyz
1 x,y,z
2 -x,-y,-z
_cell_length_a                   9.503(9)
_cell_length_b                   11.211(10)
_cell_length_c                   20.271(18)
_cell_angle_alpha                76.345(12)
_cell_angle_beta                 86.308(12)
_cell_angle_gamma                83.617(12)
_cell_volume                     2083.95
loop_
_atom_site_label
_atom_site_type_symbol
_atom_site_fract_x
_atom_site_fract_y
_atom_site_fract_z
Mn1 Mn 0.01152(10) 0.39719(8) 0.63728(5)
Mn2 Mn -0.04459(11) -0.32046(9) 0.65351(5)
Mn3 Mn 0.10717(11) 0.46049(8) 0.80285(5)
O1 O 0.1546(5) 0.2759(4) 0.7839(3)
O2 O 0.0425(5) 0.2233(4) 0.7033(2)
O3 O 0.0243(6) -0.2221(4) 0.7187(3)
O4 O 0.0694(6) -0.3557(4) 0.8175(2)
O5 O 0.0661(6) -0.3959(5) 1.1306(2)
O6 O 0.2262(6) -0.3709(5) 1.2003(2)
O7 O 0.1645(5) 1.1507(4) 0.4064(2)
O8 O 0.2809(5) 1.2788(4) 0.3300(2)
O9 O 0.1289(5) 0.6670(5) 0.5840(3)
O10 O 0.2137(5) 0.4672(4) 0.6116(3)
O11 O 0.7545(5) 0.4044(4) 0.6289(2)
O12 O 0.8737(5) 0.5554(4) 0.5724(2)
O13 O 0.2976(6) 0.5000(6) 0.7402(3)
H1 H 0.3799 0.5177 0.7396
H2 H 0.2948 0.4273 0.7382
O14 O -0.0251(4) 0.5029(3) 0.71340(19)
H3 H -0.1049 0.4943 0.7308
O15 O 0.0239(5) 0.3046(4) 0.5543(2)
H4 H 0.0349 0.3438 0.5144
H5 H -0.0118 0.2395 0.5564
N1 N 0.2355(6) 0.4188(5) 0.9001(3)
N2 N 0.3639(7) -0.2030(5) 1.2988(3)
H10 H 0.3450 -0.2755 1.3205
C1 C 0.0988(7) 0.1999(5) 0.7597(3)
C2 C 0.1003(7) 0.0704(5) 0.8017(3)
C3 C 0.0727(6) -0.0252(5) 0.7732(3)
H11 H 0.0484 -0.0086 0.7280
C4 C 0.0815(7) -0.1458(5) 0.8120(3)
C5 C 0.1198(7) -0.1691(6) 0.8785(3)
H12 H 0.1271 -0.2499 0.9042
C6 C 0.1479(7) -0.0758(6) 0.9083(3)
C7 C 0.1346(7) 0.0451(5) 0.8689(3)
H13 H 0.1492 0.1097 0.8884
C8 C 0.0563(7) -0.2503(6) 0.7801(4)
C9 C 0.1950(8) -0.1034(6) 0.9798(3)
C10 C 0.2903(11) -0.0301(7) 0.9976(4)
H14 H 0.3176 0.0385 0.9658
C11 C 0.3437(12) -0.0585(8) 1.0616(4)
H15 H 0.4092 -0.0113 1.0726
C12 C 0.2979(10) -0.1600(8) 1.1099(4)
H16 H 0.3311 -0.1781 1.1537
C13 C 0.2060(7) -0.2321(6) 1.0938(3)
C14 C 0.1551(7) -0.2020(6) 1.0285(3)
H17 H 0.0914 -0.2509 1.0175
C15 C 0.1614(8) -0.3406(7) 1.1455(3)
C16 C 0.2794(7) 1.1799(6) 0.3741(3)
C17 C 0.4114(6) 1.0957(6) 0.3883(3)
C18 C 0.5414(7) 1.1322(6) 0.3637(3)
H18 H 0.5487 1.2126 0.3389
C19 C 0.6603(7) 1.0509(7) 0.3756(4)
H19 H 0.7481 1.0762 0.3586
C20 C 0.6509(7) 0.9303(7) 0.4130(4)
H20 H 0.7321 0.8750 0.4195
C21 C 0.5215(6) 0.8920(6) 0.4406(3)
C22 C 0.4027(7) 0.9763(6) 0.4277(3)
H21 H 0.3149 0.9526 0.4457
C23 C 0.5100(6) 0.7669(6) 0.4861(3)
C24 C 0.6314(6) 0.6903(6) 0.5111(3)
H22 H 0.7201 0.7154 0.4956
C25 C 0.6239(6) 0.5789(5) 0.5578(3)
C26 C 0.4924(7) 0.5372(6) 0.5785(3)
H23 H 0.4858 0.4602 0.6077
C27 C 0.3693(6) 0.6130(6) 0.5549(3)
C28 C 0.3788(6) 0.7243(6) 0.5104(3)
H24 H 0.2961 0.7732 0.4958
C29 C 0.7576(7) 0.5070(6) 0.5874(3)
C30 C 0.2258(7) 0.5783(7) 0.5841(3)
C31 C 0.1749(9) 0.4523(8) 0.9540(4)
H25 H 0.0846 0.4942 0.9499
C32 C 0.2358(9) 0.4295(8) 1.0162(4)
H26 H 0.1860 0.4556 1.0521
C33 C 0.3676(9) 0.3695(7) 1.0256(4)
C34 C 0.4345(9) 0.3376(8) 0.9682(4)
H27 H 0.5272 0.3007 0.9702
C35 C 0.3637(9) 0.3605(7) 0.9081(4)
H28 H 0.4091 0.3333 0.8715
C36 C 0.4354(9) 0.3337(7) 1.0930(4)
H29 H 0.4032 0.3942 1.1193
H30 H 0.5374 0.3329 1.0861
C37 C 0.3982(11) 0.2058(8) 1.1324(4)
H31 H 0.2962 0.2100 1.1406
H32 H 0.4229 0.1485 1.1034
C38 C 0.4630(10) 0.1552(7) 1.1959(4)
H33 H 0.4347 0.2098 1.2261
H34 H 0.5650 0.1533 1.1884
C39 C 0.4272(9) 0.0267(7) 1.2310(4)
C40 C 0.2899(8) 0.0039(7) 1.2550(4)
H35 H 0.2174 0.0680 1.2482
C41 C 0.2614(8) -0.1115(7) 1.2885(4)
H36 H 0.1694 -0.1262 1.3042
C42 C 0.4933(9) -0.1846(8) 1.2762(5)
H37 H 0.5639 -0.2503 1.2833
C43 C 0.5260(8) -0.0709(7) 1.2428(4)
H38 H 0.6191 -0.0599 1.2275
Mn1_2 Mn 1.01152(10) 0.39719(8) 0.63728(5)
Mn2A Mn 0.04459(11) 1.32046(9) 0.34649(5)
Mn2_2 Mn -0.04459(11) 0.67954(9) 0.65351(5)
Mn3_2 Mn 0.10717(11) -0.53951(8) 0.80285(5)
Mn3A Mn -0.10717(11) -0.46049(8) 1.19715(5)
O4_2 O 0.0694(6) 0.6443(4) 0.8175(2)
O5A O -0.0661(6) 0.3959(5) 0.8694(2)
O7A O -0.1645(5) -0.1507(4) 0.5936(2)
O8A O -0.2809(5) -0.2788(4) 0.6700(2)
O9_2 O 0.1289(5) -0.3330(5) 0.5840(3)
O11_2 O -0.2455(5) 0.4044(4) 0.6289(2)
O12_2 O -0.1263(5) 0.5554(4) 0.5724(2)
O14_2 O -0.0251(4) -0.4971(3) 0.71340(19)
H3_2 H -0.1049 -0.5057 0.7308
O16 O 0.0213(9) 0.9360(7) 0.4373(5)
H6 H -0.0242 0.9150 0.4750
H7 H 0.0449 0.9992 0.4465
O17 O 0.4427(5) 0.4548(6) 0.2465(3)
H8 H 0.3955 0.5199 0.2285
H9 H 0.4083 0.4238 0.2846
loop_
_geom_bond_atom_site_label_1
_geom_bond_atom_site_label_2
_geom_bond_site_symmetry_1
_geom_bond_site_symmetry_2
Mn1 O2 1_555 1_555
Mn2 O3 1_555 1_555
Mn3 O1 1_555 1_555
O1 C1 1_555 1_555
O2 C1 1_555 1_555
O3 C8 1_555 1_555
O4 C8 1_555 1_555
O5 C15 1_555 1_555
O6 C15 1_555 1_555
O7 C16 1_555 1_555
O8 C16 1_555 1_555
O9 C30 1_555 1_555
O10 Mn1 1_555 1_555
O11 C29 1_555 1_555
O12 C29 1_555 1_555
O13 Mn3 1_555 1_555
H1 O13 1_555 1_555
H2 O13 1_555 1_555
O14 Mn1 1_555 1_555
H3 O14 1_555 1_555
O15 Mn1 1_555 1_555
H4 O15 1_555 1_555
H5 O15 1_555 1_555
O16 H6 1_555 1_555
H7 O16 1_555 1_555
O17 H8 1_555 1_555
H9 O17 1_555 1_555
N1 Mn3 1_555 1_555
N2 H10 1_555 1_555
C1 C2 1_555 1_555
C2 C3 1_555 1_555
C3 H11 1_555 1_555
C4 C3 1_555 1_555
C5 C4 1_555 1_555
H12 C5 1_555 1_555
C6 C5 1_555 1_555
C7 C2 1_555 1_555
H13 C7 1_555 1_555
C8 C4 1_555 1_555
C9 C6 1_555 1_555
C10 C9 1_555 1_555
H14 C10 1_555 1_555
C11 C10 1_555 1_555
H15 C11 1_555 1_555
C12 C11 1_555 1_555
H16 C12 1_555 1_555
C13 C12 1_555 1_555
C14 C9 1_555 1_555
H17 C14 1_555 1_555
C15 C13 1_555 1_555
C16 C17 1_555 1_555
C17 C18 1_555 1_555
C18 H18 1_555 1_555
C19 C18 1_555 1_555
H19 C19 1_555 1_555
C20 C19 1_555 1_555
H20 C20 1_555 1_555
C21 C20 1_555 1_555
C22 C17 1_555 1_555
H21 C22 1_555 1_555
C23 C21 1_555 1_555
C24 C23 1_555 1_555
H22 C24 1_555 1_555
C25 C24 1_555 1_555
C26 C25 1_555 1_555
H23 C26 1_555 1_555
C27 C26 1_555 1_555
C28 C23 1_555 1_555
H24 C28 1_555 1_555
C29 C25 1_555 1_555
C30 O10 1_555 1_555
C31 N1 1_555 1_555
H25 C31 1_555 1_555
C32 C31 1_555 1_555
H26 C32 1_555 1_555
C33 C32 1_555 1_555
C34 C33 1_555 1_555
H27 C34 1_555 1_555
C35 N1 1_555 1_555
H28 C35 1_555 1_555
C36 C33 1_555 1_555
H29 C36 1_555 1_555
H30 C36 1_555 1_555
C37 C36 1_555 1_555
H31 C37 1_555 1_555
H32 C37 1_555 1_555
C38 C37 1_555 1_555
H33 C38 1_555 1_555
H34 C38 1_555 1_555
C39 C38 1_555 1_555
C40 C39 1_555 1_555
H35 C40 1_555 1_555
C41 N2 1_555 1_555
H36 C41 1_555 1_555
C42 N2 1_555 1_555
H37 C42 1_555 1_555
C43 C39 1_555 1_555
H38 C43 1_555 1_555
Mn1_2 O11 1_555 1_555
Mn2A O7 1_555 1_555
Mn2_2 O9 1_555 1_555
Mn3_2 O4 1_555 1_555
Mn3A O5 1_555 1_555
O4_2 Mn3 1_555 1_555
O5A Mn3 1_555 1_555
O7A Mn2 1_555 1_555
O8A Mn2 1_555 1_555
O9_2 Mn2 1_555 1_555
O11_2 Mn1 1_555 1_555
O12_2 Mn1 1_555 1_555
O14_2 Mn2 1_555 1_555
H3_2 O14_2 1_555 1_555
Mn3 O14 1_555 1_555
O8 Mn2A 1_555 1_555
O12 Mn1_2 1_555 1_555
O14 Mn2_2 1_555 1_555
C6 C7 1_555 1_555
C13 C14 1_555 1_555
C21 C22 1_555 1_555
C27 C28 1_555 1_555
C27 C30 1_555 1_555
C34 C35 1_555 1_555
C40 C41 1_555 1_555
C42 C43 1_555 1_555
Mn3_2 O14_2 1_555 1_555

#END
