
#######################################################################
#
#                 Cambridge Crystallographic Data Centre
#                                CCDC 
#
#######################################################################
#
# If this CIF has been generated from an entry in the Cambridge 
# Structural Database, then it will include bibliographic, chemical, 
# crystal, experimental, refinement or atomic coordinate data resulting 
# from the CCDC's data processing and validation procedures.
#
#######################################################################

data_HEBNEJ
_symmetry_cell_setting           monoclinic
_symmetry_space_group_name_H-M   'P 21/c'
_symmetry_Int_Tables_number      14
_space_group_name_Hall           '-P 2ybc'
loop_
_symmetry_equiv_pos_site_id
_symmetry_equiv_pos_as_xyz
1 x,y,z
2 -x,1/2+y,1/2-z
3 -x,-y,-z
4 x,1/2-y,1/2+z
_cell_length_a                   9.6541(4)
_cell_length_b                   23.3402(10)
_cell_length_c                   18.1468(8)
_cell_angle_alpha                90
_cell_angle_beta                 90.7090(10)
_cell_angle_gamma                90
_cell_volume                     4088.68
loop_
_atom_site_label
_atom_site_type_symbol
_atom_site_fract_x
_atom_site_fract_y
_atom_site_fract_z
U1 U 0.55222(3) 0.761019(13) 0.593242(15)
U2 U 1.04795(3) 0.795543(13) 0.814599(15)
Zn1 Zn 0.70571(11) 0.93999(4) 0.87183(5)
Zn2 Zn 0.13718(11) 0.86397(5) 0.48743(5)
P1 P 0.2476(2) 0.74571(9) 0.47422(11)
P2 P 0.6801(2) 0.82980(9) 0.77123(11)
P3 P 0.1797(2) 0.79506(10) 0.62327(11)
P4 P 0.7363(2) 0.81453(9) 0.93579(11)
O1 O 0.3292(5) 0.7786(2) 0.6424(3)
O2 O 1.0834(5) 0.8700(2) 0.8081(3)
O3 O 0.5861(5) 0.8101(2) 0.7080(3)
O4 O 0.8294(5) 0.8108(2) 0.7589(3)
O5 O 0.0827(5) 0.7866(2) 0.6876(3)
O6 O 1.0120(5) 0.7217(2) 0.8214(3)
O7 O 0.6874(5) 0.7778(2) 0.9993(3)
O8 O 0.1880(5) 0.7027(2) 0.4200(3)
O9 O 1.2895(5) 0.7686(2) 0.7879(3)
O10 O 0.2508(5) 0.8060(2) 0.4441(3)
O11 O 0.5493(6) 0.6940(2) 0.6384(3)
O12 O 0.5516(6) 0.8281(2) 0.5482(3)
O13 O 0.8873(5) 0.8020(2) 0.9167(3)
O14 O 0.7977(6) 0.7717(3) 0.6217(4)
O15 O 0.6687(6) 0.8940(2) 0.7833(3)
O16 O 0.3899(5) 0.7261(2) 0.5036(3)
O17 O -0.0041(5) 0.7681(2) 0.5199(3)
H1 H 0.0100 0.8010 0.5027
O18 O 0.4884(5) 0.8138(2) 0.8727(3)
H2 H 0.4626 0.8373 0.8403
O19 O 0.1708(6) 0.8555(2) 0.5920(3)
O20 O 0.7113(5) 0.8781(2) 0.9497(3)
O21 O 0.5242(6) 0.9690(3) 0.9111(4)
C1 C 0.6267(7) 0.7937(3) 0.8564(4)
C2 C 0.1245(8) 0.7454(3) 0.5503(4)
C3 C 0.1023(8) 0.6862(3) 0.5813(4)
H3 H 0.0783 0.6598 0.5412
H4 H 0.1874 0.6732 0.6060
H5 H 0.0267 0.6873 0.6168
C4 C 0.6267(8) 0.7287(3) 0.8456(4)
H6 H 0.5906 0.7102 0.8898
H7 H 0.7215 0.7156 0.8371
H8 H 0.5680 0.7189 0.8031
C5 C 0.9991(10) 0.9390(4) 0.9403(5)
H9 H 0.9698 0.9050 0.9643
C6 C 1.1322(10) 0.9582(4) 0.9541(5)
H10 H 1.1901 0.9391 0.9890
C7 C 1.1794(11) 1.0052(4) 0.9167(5)
H11 H 1.2713 1.0187 0.9244
C8 C 1.0893(10) 1.0332(4) 0.8668(5)
C9 C 0.9534(10) 1.0119(4) 0.8596(5)
C10 C 0.8560(10) 1.0406(4) 0.8112(4)
C11 C 0.6295(11) 1.0477(4) 0.7708(5)
H12 H 0.5371 1.0337 0.7708
C12 C 0.6593(11) 1.0968(4) 0.7294(5)
H13 H 0.5880 1.1154 0.7019
C13 C 0.7924(10) 1.1181(4) 0.7289(5)
H14 H 0.8141 1.1511 0.7006
C14 C 0.8966(10) 1.0900(4) 0.7710(5)
C15 C 1.0374(10) 1.1091(4) 0.7772(5)
H15 H 1.0672 1.1408 0.7486
C16 C 1.1302(10) 1.0822(4) 0.8241(5)
H16 H 1.2225 1.0961 0.8282
C17 C -0.1692(10) 0.8808(4) 0.4463(5)
H17 H -0.1895 0.8464 0.4721
C18 C -0.2769(10) 0.9107(4) 0.4094(6)
H18 H -0.3691 0.8966 0.4111
C19 C -0.2496(10) 0.9601(4) 0.3710(5)
H19 H -0.3218 0.9797 0.3455
C20 C -0.1124(10) 0.9812(4) 0.3701(5)
C21 C -0.0752(11) 1.0323(4) 0.3316(5)
H20 H -0.1435 1.0528 0.3041
C22 C 0.0579(10) 1.0518(4) 0.3342(5)
H21 H 0.0811 1.0859 0.3086
C23 C 0.1635(10) 1.0221(4) 0.3748(5)
C24 C 0.3017(10) 1.0399(4) 0.3796(5)
H22 H 0.3298 1.0749 0.3576
C25 C 0.3957(10) 1.0063(4) 0.4165(5)
H23 H 0.4905 1.0173 0.4181
C26 C 0.3548(10) 0.9563(4) 0.4517(5)
H24 H 0.4222 0.9341 0.4775
C27 C 0.1291(10) 0.9715(4) 0.4118(5)
C28 C -0.0129(9) 0.9504(4) 0.4093(4)
N1 N 0.9090(8) 0.9654(3) 0.8953(4)
N2 N 0.7253(8) 1.0199(3) 0.8100(4)
N3 N -0.0392(8) 0.9002(3) 0.4451(4)
N4 N 0.2231(7) 0.9386(3) 0.4502(4)
U1C U 0.55222(3) 0.738981(13) 1.093242(15)
U2_2 U 0.04795(3) 0.795543(13) 0.814599(15)
U2C U 0.04795(3) 0.704457(13) 0.314599(15)
O5_2 O 1.0827(5) 0.7866(2) 0.6876(3)
O7C O 0.6874(5) 0.7222(2) 0.4993(3)
O8C O 1.1880(5) 0.7973(2) 0.9200(3)
O22 O 0.5965(7) 0.4088(3) 0.8287(4)
O23 O 0.5048(11) 0.0848(3) 0.9444(5)
O24 O 0.6612(8) 0.4441(3) 0.6968(5)
loop_
_geom_bond_atom_site_label_1
_geom_bond_atom_site_label_2
_geom_bond_site_symmetry_1
_geom_bond_site_symmetry_2
U1 O1 1_555 1_555
U2 O2 1_555 1_555
Zn1 O15 1_555 1_555
Zn2 O10 1_555 1_555
P1 O8 1_555 1_555
P2 O3 1_555 1_555
P3 O1 1_555 1_555
P4 O7 1_555 1_555
O3 U1 1_555 1_555
O4 U2 1_555 1_555
O5 P3 1_555 1_555
O6 U2 1_555 1_555
O7 U1C 1_555 1_555
O8 U2C 1_555 1_555
O9 U2 1_555 1_555
O10 P1 1_555 1_555
O11 U1 1_555 1_555
O12 U1 1_555 1_555
O13 U2 1_555 1_555
O14 U1 1_555 1_555
O15 P2 1_555 1_555
O16 U1 1_555 1_555
O17 H1 1_555 1_555
O18 H2 1_555 1_555
O19 Zn2 1_555 1_555
O20 Zn1 1_555 1_555
O21 Zn1 1_555 1_555
C1 P2 1_555 1_555
C2 P1 1_555 1_555
C3 C2 1_555 1_555
H3 C3 1_555 1_555
H4 C3 1_555 1_555
H5 C3 1_555 1_555
C4 C1 1_555 1_555
H6 C4 1_555 1_555
H7 C4 1_555 1_555
H8 C4 1_555 1_555
C5 H9 1_555 1_555
C6 C5 1_555 1_555
H10 C6 1_555 1_555
C7 C6 1_555 1_555
H11 C7 1_555 1_555
C8 C7 1_555 1_555
C9 C8 1_555 1_555
C10 C9 1_555 1_555
C11 H12 1_555 1_555
C12 C11 1_555 1_555
H13 C12 1_555 1_555
C13 C12 1_555 1_555
H14 C13 1_555 1_555
C14 C10 1_555 1_555
C15 C14 1_555 1_555
H15 C15 1_555 1_555
C16 C8 1_555 1_555
H16 C16 1_555 1_555
C17 H17 1_555 1_555
C18 C17 1_555 1_555
H18 C18 1_555 1_555
C19 C18 1_555 1_555
H19 C19 1_555 1_555
C20 C19 1_555 1_555
C21 C20 1_555 1_555
H20 C21 1_555 1_555
C22 C21 1_555 1_555
H21 C22 1_555 1_555
C23 C22 1_555 1_555
C24 C23 1_555 1_555
H22 C24 1_555 1_555
C25 C24 1_555 1_555
H23 C25 1_555 1_555
C26 C25 1_555 1_555
H24 C26 1_555 1_555
C27 C23 1_555 1_555
C28 C20 1_555 1_555
N1 Zn1 1_555 1_555
N2 Zn1 1_555 1_555
N3 Zn2 1_555 1_555
N4 Zn2 1_555 1_555
U2_2 O5 1_555 1_555
O5_2 U2 1_555 1_555
O7C U1 1_555 1_555
O8C U2 1_555 1_555
P1 O16 1_555 1_555
P2 O4 1_555 1_555
P3 O19 1_555 1_555
P3 C2 1_555 1_555
P4 O13 1_555 1_555
P4 O20 1_555 1_555
P4 C1 1_555 1_555
O17 C2 1_555 1_555
O18 C1 1_555 1_555
C5 N1 1_555 1_555
C9 N1 1_555 1_555
C10 N2 1_555 1_555
C11 N2 1_555 1_555
C13 C14 1_555 1_555
C15 C16 1_555 1_555
C17 N3 1_555 1_555
C26 N4 1_555 1_555
C27 C28 1_555 1_555
C27 N4 1_555 1_555
C28 N3 1_555 1_555

#END
