
#######################################################################
#
#                 Cambridge Crystallographic Data Centre
#                                CCDC 
#
#######################################################################
#
# If this CIF has been generated from an entry in the Cambridge 
# Structural Database, then it will include bibliographic, chemical, 
# crystal, experimental, refinement or atomic coordinate data resulting 
# from the CCDC's data processing and validation procedures.
#
#######################################################################

data_HEBNUZ
_symmetry_cell_setting           orthorhombic
_symmetry_space_group_name_H-M   'P n a 21'
_symmetry_Int_Tables_number      33
_space_group_name_Hall           'P 2c -2n'
loop_
_symmetry_equiv_pos_site_id
_symmetry_equiv_pos_as_xyz
1 x,y,z
2 -x,-y,1/2+z
3 1/2+x,1/2-y,z
4 1/2-x,1/2+y,1/2+z
_cell_length_a                   18.0978(13)
_cell_length_b                   21.7894(16)
_cell_length_c                   9.6388(7)
_cell_angle_alpha                90
_cell_angle_beta                 90
_cell_angle_gamma                90
_cell_volume                     3800.97
loop_
_atom_site_label
_atom_site_type_symbol
_atom_site_fract_x
_atom_site_fract_y
_atom_site_fract_z
U1 U 0.29589(3) 0.19317(3) 0.23885(12)
U2 U 0.07860(3) 0.24408(3) -0.26232(11)
Zn1 Zn -0.04092(14) 0.12419(13) 0.1102(3)
Zn2 Zn 0.35837(19) 0.06757(16) 0.6734(4)
P1 P 0.1013(2) 0.1949(3) 0.1054(5)
P2 P -0.0445(3) 0.2569(2) 0.0405(5)
P3 P 0.4183(2) 0.1805(3) 0.5446(5)
P4 P 0.2549(3) 0.1724(3) 0.6138(5)
O1 O 0.1657(6) 0.1968(6) 0.2032(13)
O2 O 0.3976(8) 0.2016(7) 0.3924(15)
O3 O -0.0955(8) 0.3067(7) 0.0971(18)
O4 O 0.2950(7) 0.2709(8) 0.256(2)
O5 O 0.2975(6) 0.1128(5) 0.229(3)
O6 O 0.1221(7) 0.2150(6) -0.0401(14)
O7 O 0.4873(8) 0.2111(7) 0.5946(17)
O8 O -0.0151(7) 0.2777(7) -0.1033(15)
O9 O 0.1218(7) 0.3166(7) -0.248(2)
O10 O 0.0360(6) 0.1722(5) -0.275(2)
O11 O -0.0804(7) 0.1950(7) 0.0270(14)
O12 O 0.2608(7) 0.1044(7) 0.6430(15)
O13 O 0.2429(8) 0.1841(6) 0.4640(15)
O14 O 0.2660(11) 0.2009(9) -0.003(2)
O15 O 0.0640(6) 0.1321(6) 0.1069(16)
O16 O 0.1958(7) 0.2011(6) 0.7035(15)
O17 O 0.4238(7) 0.1112(6) 0.5586(15)
O18 O 0.1099(9) 0.2425(8) -0.5107(15)
O19 O 0.0697(12) 0.3156(10) 0.177(2)
H1 H 0.0399 0.3417 0.2025
O20 O 0.3340(14) 0.2736(13) 0.674(2)
H2 H 0.3728 0.2908 0.6942
C1 C 0.0286(10) 0.2502(9) 0.1631(19)
C2 C 0.0035(8) 0.2246(7) 0.2893(17)
H3 H -0.0340 0.2504 0.3285
H4 H 0.0441 0.2213 0.3530
H5 H -0.0165 0.1845 0.2722
C3 C 0.3477(9) 0.2024(8) 0.6616(18)
C4 C 0.3644(8) 0.1771(7) 0.7928(16)
H6 H 0.4122 0.1911 0.8222
H7 H 0.3644 0.1332 0.7866
H8 H 0.3278 0.1900 0.8589
C5 C -0.0579(14) 0.0374(12) -0.129(3)
H9 H -0.0382 0.0684 -0.1838
C6 C -0.0773(15) -0.0202(13) -0.187(3)
H10 H -0.0687 -0.0268 -0.2808
C7 C -0.1075(15) -0.065(2) -0.112(3)
H11 H -0.1214 -0.1021 -0.1530
C8 C -0.1177(15) -0.0546(13) 0.031(3)
H12 H -0.1368 -0.0861 0.0849
C9 C -0.1004(12) 0.0010(11) 0.094(4)
C10 C -0.1122(11) 0.0203(11) 0.229(4)
C11 C -0.1469(16) -0.0215(13) 0.324(3)
H13 H -0.1633 -0.0602 0.2976
C12 C -0.1543(16) 0.0009(15) 0.466(3)
H14 H -0.1744 -0.0243 0.5338
C13 C -0.1327(16) 0.0568(13) 0.497(3)
H15 H -0.1406 0.0708 0.5868
C14 C -0.0978(15) 0.0969(14) 0.401(3)
H16 H -0.0817 0.1356 0.4286
C15 C 0.3394(17) -0.0414(15) 0.840(2)
C16 C 0.350(2) -0.0787(11) 0.955(3)
H17 H 0.3339 -0.1193 0.9538
C17 C 0.385(2) -0.0556(18) 1.073(3)
H18 H 0.3917 -0.0806 1.1500
C18 C 0.409(2) 0.0050(19) 1.075(3)
H19 H 0.4318 0.0205 1.1540
C19 C 0.3980(17) 0.0424(12) 0.960(4)
H20 H 0.4141 0.0830 0.9619
N1 N 0.3634(14) 0.0192(13) 0.843(3)
N2 N 0.3327(10) -0.0114(7) 0.589(2)
C20 C 0.3109(13) -0.0234(10) 0.4537(19)
H21 H 0.3222 0.0042 0.3834
C21 C 0.2722(13) -0.0769(12) 0.4232(19)
H22 H 0.2576 -0.0849 0.3325
C22 C 0.2553(11) -0.1182(9) 0.528(3)
H23 H 0.2294 -0.1540 0.5079
C23 C 0.2771(12) -0.1062(9) 0.664(2)
H24 H 0.2658 -0.1339 0.7341
C24 C 0.3158(11) -0.0528(10) 0.6943(16)
N3 N -0.0684(10) 0.0458(10) 0.0063(19)
N4 N -0.0882(8) 0.0774(8) 0.267(2)
U1B U -0.20411(3) 0.30683(3) 0.23885(12)
U2B U 0.57860(3) 0.25592(3) 0.73768(11)
U2_2 U 0.07860(3) 0.24408(3) 0.73768(11)
O3B O 0.4045(8) 0.1933(7) 0.0971(18)
O7B O -0.0127(8) 0.2889(7) -0.4054(17)
O16_2 O 0.1958(7) 0.2011(6) -0.2965(15)
loop_
_geom_bond_atom_site_label_1
_geom_bond_atom_site_label_2
_geom_bond_site_symmetry_1
_geom_bond_site_symmetry_2
U1 O1 1_555 1_555
U2 O6 1_555 1_555
Zn1 O11 1_555 1_555
Zn2 O12 1_555 1_555
P1 O1 1_555 1_555
P2 O3 1_555 1_555
P3 O2 1_555 1_555
P4 O12 1_555 1_555
O2 U1 1_555 1_555
O3 U1B 1_555 1_555
O4 U1 1_555 1_555
O5 U1 1_555 1_555
O6 P1 1_555 1_555
O7 P3 1_555 1_555
O8 U2 1_555 1_555
O9 U2 1_555 1_555
O10 U2 1_555 1_555
O11 P2 1_555 1_555
O13 U1 1_555 1_555
O14 U1 1_555 1_555
O15 Zn1 1_555 1_555
O16 P4 1_555 1_555
O17 Zn2 1_555 1_555
O18 U2 1_555 1_555
O19 H1 1_555 1_555
O20 H2 1_555 1_555
C1 P1 1_555 1_555
C2 C1 1_555 1_555
H3 C2 1_555 1_555
H4 C2 1_555 1_555
H5 C2 1_555 1_555
C3 P3 1_555 1_555
C4 C3 1_555 1_555
H6 C4 1_555 1_555
H7 C4 1_555 1_555
H8 C4 1_555 1_555
C5 H9 1_555 1_555
C6 C5 1_555 1_555
H10 C6 1_555 1_555
C7 C6 1_555 1_555
H11 C7 1_555 1_555
C8 C7 1_555 1_555
H12 C8 1_555 1_555
C9 C8 1_555 1_555
C10 C9 1_555 1_555
C11 C10 1_555 1_555
H13 C11 1_555 1_555
C12 C11 1_555 1_555
H14 C12 1_555 1_555
C13 C12 1_555 1_555
H15 C13 1_555 1_555
C14 C13 1_555 1_555
H16 C14 1_555 1_555
C15 C16 1_555 1_555
C16 H17 1_555 1_555
C17 C16 1_555 1_555
H18 C17 1_555 1_555
C18 C17 1_555 1_555
H19 C18 1_555 1_555
C19 C18 1_555 1_555
H20 C19 1_555 1_555
N1 Zn2 1_555 1_555
N2 Zn2 1_555 1_555
C20 N2 1_555 1_555
H21 C20 1_555 1_555
C21 C20 1_555 1_555
H22 C21 1_555 1_555
C22 C21 1_555 1_555
H23 C22 1_555 1_555
C23 C22 1_555 1_555
H24 C23 1_555 1_555
C24 C15 1_555 1_555
N3 Zn1 1_555 1_555
N4 Zn1 1_555 1_555
U2B O7 1_555 1_555
U2_2 O16 1_555 1_555
O3B U1 1_555 1_555
O7B U2 1_555 1_555
O16_2 U2 1_555 1_555
P1 O15 1_555 1_555
P2 O8 1_555 1_555
P2 C1 1_555 1_555
P3 O17 1_555 1_555
P4 O13 1_555 1_555
P4 C3 1_555 1_555
O19 C1 1_555 1_555
O20 C3 1_555 1_555
C5 N3 1_555 1_555
C9 N3 1_555 1_555
C10 N4 1_555 1_555
C14 N4 1_555 1_555
C15 N1 1_555 1_555
C19 N1 1_555 1_555
N2 C24 1_555 1_555
C23 C24 1_555 1_555

#END
