
#######################################################################
#
#                 Cambridge Crystallographic Data Centre
#                                CCDC 
#
#######################################################################
#
# If this CIF has been generated from an entry in the Cambridge 
# Structural Database, then it will include bibliographic, chemical, 
# crystal, experimental, refinement or atomic coordinate data resulting 
# from the CCDC's data processing and validation procedures.
#
#######################################################################

data_HEBQIQ
_symmetry_cell_setting           orthorhombic
_symmetry_space_group_name_H-M   'P 21 21 21'
_symmetry_Int_Tables_number      19
_space_group_name_Hall           'P 2ac 2ab'
loop_
_symmetry_equiv_pos_site_id
_symmetry_equiv_pos_as_xyz
1 x,y,z
2 1/2-x,-y,1/2+z
3 -x,1/2+y,1/2-z
4 1/2+x,1/2-y,-z
_cell_length_a                   9.1240(5)
_cell_length_b                   20.9934(13)
_cell_length_c                   21.5716(13)
_cell_angle_alpha                90
_cell_angle_beta                 90
_cell_angle_gamma                90
_cell_volume                     4131.91
loop_
_atom_site_label
_atom_site_type_symbol
_atom_site_fract_x
_atom_site_fract_y
_atom_site_fract_z
Cd1 Cd 0.07501(4) 0.57726(2) 0.757522(19)
Cd2 Cd 0.04530(5) 0.50871(2) 0.908777(19)
O1 O -0.0048(6) 0.4473(2) 0.8213(2)
O2 O -0.1503(5) 0.4297(2) 0.8996(2)
O3 O -0.2609(6) 0.1598(3) 0.8123(3)
O4 O -0.1151(6) 0.1782(2) 0.7330(2)
O5 O 0.8595(4) 0.5899(3) 0.8015(2)
O6 O 0.8852(4) 0.5910(2) 0.9031(2)
O7 O 0.2201(4) 0.5569(2) 0.84327(19)
O8 O 0.2439(5) 0.5794(3) 0.9418(2)
N1 N -0.0354(6) 0.5766(3) 0.6571(3)
N2 N 0.1660(6) 0.4936(3) 0.6987(2)
N3 N -0.0027(5) 0.4991(3) 1.0134(2)
N4 N 0.1817(5) 0.4230(3) 0.9527(2)
C1 C -0.2032(7) 0.3748(3) 0.8039(3)
C2 C -0.1225(8) 0.3097(3) 0.7954(3)
C3 C -0.2464(7) 0.2661(3) 0.7726(3)
H1 H -0.2668 0.2775 0.7294
C4 C -0.3803(8) 0.2856(4) 0.8112(4)
H2 H -0.4686 0.2851 0.7861
H3 H -0.3935 0.2572 0.8462
C5 C -0.3456(8) 0.3530(4) 0.8331(4)
H4 H -0.4242 0.3816 0.8213
H5 H -0.3368 0.3537 0.8779
C6 C -0.2287(12) 0.4077(4) 0.7428(4)
H6 H -0.2790 0.4472 0.7498
H7 H -0.2870 0.3809 0.7165
H8 H -0.1362 0.4160 0.7232
C7 C 0.0078(10) 0.3127(4) 0.7494(5)
H9 H 0.0528 0.2715 0.7465
H10 H 0.0784 0.3431 0.7639
H11 H -0.0273 0.3253 0.7093
C8 C -0.0628(9) 0.2871(3) 0.8575(4)
H12 H -0.0129 0.2472 0.8520
H13 H -0.1424 0.2816 0.8862
H14 H 0.0044 0.3181 0.8736
C9 C -0.1138(8) 0.4209(4) 0.8445(3)
C10 C -0.2076(9) 0.1957(4) 0.7737(3)
C11 C 0.6750(7) 0.6408(3) 0.8596(3)
C12 C 0.5422(7) 0.5946(3) 0.8485(3)
C13 C 0.4089(6) 0.6306(3) 0.8720(3)
H15 H 0.3763 0.6594 0.8390
C14 C 0.4636(8) 0.6716(4) 0.9266(4)
H16 H 0.4346 0.7157 0.9214
H17 H 0.4246 0.6560 0.9656
C15 C 0.6319(7) 0.6649(4) 0.9250(4)
H18 H 0.6642 0.6349 0.9563
H19 H 0.6777 0.7058 0.9331
C16 C 0.6716(9) 0.6955(5) 0.8133(5)
H20 H 0.7527 0.7235 0.8210
H21 H 0.5815 0.7186 0.8177
H22 H 0.6786 0.6789 0.7719
C17 C 0.5233(9) 0.5803(6) 0.7787(3)
H23 H 0.4422 0.5517 0.7730
H24 H 0.6111 0.5609 0.7630
H25 H 0.5050 0.6192 0.7568
C18 C 0.5663(8) 0.5334(3) 0.8837(4)
H26 H 0.4855 0.5051 0.8765
H27 H 0.5732 0.5425 0.9273
H28 H 0.6555 0.5137 0.8699
C19 C 0.8193(7) 0.6047(3) 0.8544(3)
C20 C 0.2837(6) 0.5882(3) 0.8884(3)
C21 C -0.1307(10) 0.6202(4) 0.6387(4)
H29 H -0.1681 0.6481 0.6682
C22 C -0.1776(12) 0.6264(5) 0.5781(5)
H30 H -0.2431 0.6583 0.5669
C23 C -0.1252(14) 0.5843(6) 0.5350(5)
H31 H -0.1561 0.5863 0.4939
C24 C -0.0261(12) 0.5393(5) 0.5538(3)
H32 H 0.0098 0.5105 0.5247
C25 C 0.0228(9) 0.5350(4) 0.6149(3)
C26 C 0.1263(8) 0.4882(4) 0.6398(3)
C27 C 0.1826(12) 0.4383(5) 0.6028(4)
H33 H 0.1576 0.4352 0.5611
C28 C 0.2720(13) 0.3960(5) 0.6287(6)
H34 H 0.3084 0.3626 0.6048
C29 C 0.3115(10) 0.4004(5) 0.6899(5)
H35 H 0.3741 0.3710 0.7082
C30 C 0.2544(9) 0.4504(4) 0.7227(4)
H36 H 0.2794 0.4542 0.7644
C31 C -0.0935(8) 0.5395(4) 1.0404(3)
H37 H -0.1321 0.5726 1.0169
C32 C -0.1336(9) 0.5349(4) 1.1015(3)
H38 H -0.2009 0.5630 1.1188
C33 C -0.0710(10) 0.4874(4) 1.1359(3)
H39 H -0.0932 0.4838 1.1779
C34 C 0.0251(8) 0.4450(4) 1.1088(3)
H40 H 0.0677 0.4126 1.1321
C35 C 0.0574(7) 0.4512(3) 1.0459(3)
C36 C 0.1546(7) 0.4075(3) 1.0114(3)
C37 C 0.2156(9) 0.3542(4) 1.0387(4)
H41 H 0.1967 0.3447 1.0800
C38 C 0.3046(10) 0.3156(4) 1.0038(5)
H42 H 0.3457 0.2793 1.0214
C39 C 0.3328(8) 0.3303(4) 0.9437(4)
H43 H 0.3925 0.3045 0.9194
C40 C 0.2705(8) 0.3842(4) 0.9200(3)
H44 H 0.2906 0.3947 0.8790
Cd1_2 Cd 1.07501(4) 0.57726(2) 0.757522(19)
Cd1B Cd -0.07501(4) 0.07726(2) 0.742478(19)
Cd2_2 Cd 1.04530(5) 0.50871(2) 0.908777(19)
O4B O 0.1151(6) 0.6782(2) 0.7670(2)
O5_2 O -0.1405(4) 0.5899(3) 0.8015(2)
O6_2 O -0.1148(4) 0.5910(2) 0.9031(2)
loop_
_geom_bond_atom_site_label_1
_geom_bond_atom_site_label_2
_geom_bond_site_symmetry_1
_geom_bond_site_symmetry_2
Cd1 O7 1_555 1_555
Cd2 O1 1_555 1_555
O1 C9 1_555 1_555
O2 Cd2 1_555 1_555
O3 C10 1_555 1_555
O4 C10 1_555 1_555
O5 C19 1_555 1_555
O6 C19 1_555 1_555
O7 Cd2 1_555 1_555
O8 Cd2 1_555 1_555
N1 Cd1 1_555 1_555
N2 Cd1 1_555 1_555
N3 Cd2 1_555 1_555
N4 Cd2 1_555 1_555
C1 C2 1_555 1_555
C2 C3 1_555 1_555
C3 H1 1_555 1_555
C4 C3 1_555 1_555
H2 C4 1_555 1_555
H3 C4 1_555 1_555
C5 C1 1_555 1_555
H4 C5 1_555 1_555
H5 C5 1_555 1_555
C6 C1 1_555 1_555
H6 C6 1_555 1_555
H7 C6 1_555 1_555
H8 C6 1_555 1_555
C7 C2 1_555 1_555
H9 C7 1_555 1_555
H10 C7 1_555 1_555
H11 C7 1_555 1_555
C8 C2 1_555 1_555
H12 C8 1_555 1_555
H13 C8 1_555 1_555
H14 C8 1_555 1_555
C9 O2 1_555 1_555
C10 C3 1_555 1_555
C11 C12 1_555 1_555
C12 C13 1_555 1_555
C13 H15 1_555 1_555
C14 C13 1_555 1_555
H16 C14 1_555 1_555
H17 C14 1_555 1_555
C15 C11 1_555 1_555
H18 C15 1_555 1_555
H19 C15 1_555 1_555
C16 C11 1_555 1_555
H20 C16 1_555 1_555
H21 C16 1_555 1_555
H22 C16 1_555 1_555
C17 C12 1_555 1_555
H23 C17 1_555 1_555
H24 C17 1_555 1_555
H25 C17 1_555 1_555
C18 C12 1_555 1_555
H26 C18 1_555 1_555
H27 C18 1_555 1_555
H28 C18 1_555 1_555
C19 C11 1_555 1_555
C20 O7 1_555 1_555
C21 N1 1_555 1_555
H29 C21 1_555 1_555
C22 C21 1_555 1_555
H30 C22 1_555 1_555
C23 C22 1_555 1_555
H31 C23 1_555 1_555
C24 C23 1_555 1_555
H32 C24 1_555 1_555
C25 N1 1_555 1_555
C26 N2 1_555 1_555
C27 C26 1_555 1_555
H33 C27 1_555 1_555
C28 C27 1_555 1_555
H34 C28 1_555 1_555
C29 C28 1_555 1_555
H35 C29 1_555 1_555
C30 N2 1_555 1_555
H36 C30 1_555 1_555
C31 N3 1_555 1_555
H37 C31 1_555 1_555
C32 C31 1_555 1_555
H38 C32 1_555 1_555
C33 C32 1_555 1_555
H39 C33 1_555 1_555
C34 C33 1_555 1_555
H40 C34 1_555 1_555
C35 N3 1_555 1_555
C36 N4 1_555 1_555
C37 C36 1_555 1_555
H41 C37 1_555 1_555
C38 C37 1_555 1_555
H42 C38 1_555 1_555
C39 C38 1_555 1_555
H43 C39 1_555 1_555
C40 N4 1_555 1_555
H44 C40 1_555 1_555
Cd1_2 O5 1_555 1_555
Cd1B O4 1_555 1_555
Cd2_2 O6 1_555 1_555
O4B Cd1 1_555 1_555
O5_2 Cd1 1_555 1_555
O6_2 Cd2 1_555 1_555
O8 C20 1_555 1_555
C1 C9 1_555 1_555
C4 C5 1_555 1_555
C13 C20 1_555 1_555
C14 C15 1_555 1_555
C24 C25 1_555 1_555
C25 C26 1_555 1_555
C29 C30 1_555 1_555
C34 C35 1_555 1_555
C35 C36 1_555 1_555
C39 C40 1_555 1_555

#END
