
#######################################################################
#
#                 Cambridge Crystallographic Data Centre
#                                CCDC 
#
#######################################################################
#
# If this CIF has been generated from an entry in the Cambridge 
# Structural Database, then it will include bibliographic, chemical, 
# crystal, experimental, refinement or atomic coordinate data resulting 
# from the CCDC's data processing and validation procedures.
#
#######################################################################

data_HEBQOW
_symmetry_cell_setting           monoclinic
_symmetry_space_group_name_H-M   'P 21'
_symmetry_Int_Tables_number      4
_space_group_name_Hall           'P 2yb'
loop_
_symmetry_equiv_pos_site_id
_symmetry_equiv_pos_as_xyz
1 x,y,z
2 -x,1/2+y,-z
_cell_length_a                   11.5075(3)
_cell_length_b                   16.0366(4)
_cell_length_c                   17.5482(4)
_cell_angle_alpha                90
_cell_angle_beta                 104.709(2)
_cell_angle_gamma                90
_cell_volume                     3132.24
loop_
_atom_site_label
_atom_site_type_symbol
_atom_site_fract_x
_atom_site_fract_y
_atom_site_fract_z
Cd1 Cd 0.32206(4) 1.14877(2) 0.00801(3)
Cd2 Cd -0.16784(4) 1.08173(2) -0.49189(3)
Cu1 Cu -0.38153(6) 1.02064(4) -0.40006(4)
Cu2 Cu 0.12597(6) 1.21355(5) 0.10824(4)
O1 O -0.1656(5) 1.1698(3) -0.3941(3)
O3 O -0.2692(3) 1.0954(3) -0.3280(3)
O5 O 0.1080(4) 1.1658(3) -0.0207(2)
O7 O 0.2137(4) 1.2372(3) -0.0890(3)
O9 O 0.6962(4) 1.5402(3) 0.0807(3)
O10 O 0.5294(4) 1.6136(3) 0.0532(3)
O11 O 0.4183(4) 1.2404(3) 0.0963(3)
O12 O 0.2511(4) 1.2976(3) 0.1129(3)
O13 O 0.3212(4) 1.0618(3) 0.1064(3)
O14 O 0.2305(4) 1.1394(4) 0.1815(3)
O15 O 0.6124(4) 1.0684(3) 0.4777(3)
O16 O 0.7152(4) 0.9962(3) 0.4130(3)
O17 O -0.2622(4) 0.9298(3) -0.3936(3)
O18 O -0.0871(4) 0.9841(3) -0.4062(3)
O19 O 0.0139(4) 0.6092(3) -0.4455(3)
O20 O 0.1752(4) 0.6893(3) -0.4177(3)
N1 N -0.5255(5) 1.0925(5) -0.3923(3)
N2 N -0.5172(5) 0.9347(4) -0.4254(3)
N3 N -0.0034(5) 1.2994(4) 0.0628(3)
N4 N -0.0209(4) 1.1500(4) 0.1174(3)
C1 C -0.1513(5) 1.2059(4) -0.2589(4)
C2 C -0.0471(6) 1.1632(4) -0.1975(4)
C3 C -0.0021(5) 1.2330(4) -0.1391(4)
H1 H -0.0634 1.2406 -0.1098
C4 C -0.0009(5) 1.3146(4) -0.1861(4)
H2 H 0.0796 1.3290 -0.1893
H3 H -0.0351 1.3609 -0.1636
C5 C -0.0852(7) 1.2875(5) -0.2710(4)
H4 H -0.1431 1.3312 -0.2917
H5 H -0.0367 1.2782 -0.3080
C6 C -0.2538(7) 1.2247(6) -0.2216(5)
H6 H -0.2942 1.1737 -0.2152
H7 H -0.3096 1.2620 -0.2549
H8 H -0.2226 1.2501 -0.1710
C7 C -0.0957(8) 1.0883(5) -0.1518(5)
H9 H -0.0295 1.0640 -0.1135
H10 H -0.1333 1.0464 -0.1891
H11 H -0.1532 1.1100 -0.1257
C8 C 0.0440(6) 1.1267(5) -0.2303(4)
H12 H 0.0770 1.1687 -0.2576
H13 H 0.0090 1.0831 -0.2664
H14 H 0.1067 1.1038 -0.1886
C9 C -0.1983(5) 1.1544(5) -0.3334(4)
C10 C 0.1136(6) 1.2135(5) -0.0785(4)
C11 C 0.5461(6) 1.4971(4) 0.1446(4)
C12 C 0.4555(14) 1.4338(6) 0.1008(6)
C13 C 0.4312(6) 1.3730(5) 0.1576(4)
H15 H 0.3871 1.4002 0.1917
C14 C 0.5562(17) 1.3547(6) 0.2037(11)
H16 H 0.5819 1.3010 0.1884
H17 H 0.5600 1.3530 0.2596
C15 C 0.6390(8) 1.4251(9) 0.1864(7)
H18 H 0.6864 1.4055 0.1515
H19 H 0.6927 1.4454 0.2347
C16 C 0.4837(15) 1.5449(6) 0.1921(9)
H20 H 0.4288 1.5829 0.1591
H21 H 0.5411 1.5757 0.2313
H22 H 0.4400 1.5077 0.2176
C17 C 0.3228(9) 1.4832(8) 0.0899(12)
H23 H 0.2588 1.4476 0.0622
H24 H 0.3228 1.5336 0.0604
H25 H 0.3112 1.4965 0.1408
C18 C 0.4741(6) 1.4058(5) 0.0258(4)
H26 H 0.5465 1.3733 0.0351
H27 H 0.4809 1.4533 -0.0060
H28 H 0.4071 1.3722 -0.0011
C19 C 0.5959(6) 1.5529(4) 0.0915(4)
C20 C 0.3624(6) 1.2968(5) 0.1194(4)
C21 C 0.3532(5) 1.0229(5) 0.2403(4)
C22 C 0.4839(5) 1.0491(4) 0.2823(4)
C23 C 0.5032(5) 0.9958(5) 0.3596(4)
H29 H 0.5130 0.9375 0.3458
C24 C 0.3846(5) 1.0032(4) 0.3823(4)
H30 H 0.3898 1.0457 0.4224
H31 H 0.3637 0.9506 0.4026
C25 C 0.2905(5) 1.0273(6) 0.3069(4)
H32 H 0.2231 0.9890 0.2972
H33 H 0.2609 1.0833 0.3113
C26 C 0.3526(9) 0.9331(5) 0.2076(5)
H34 H 0.2718 0.9174 0.1817
H35 H 0.3842 0.8954 0.2503
H36 H 0.4015 0.9310 0.1707
C27 C 0.5729(5) 1.0326(5) 0.2351(4)
H37 H 0.6508 1.0517 0.2638
H38 H 0.5489 1.0617 0.1858
H39 H 0.5761 0.9738 0.2255
C28 C 0.4901(6) 1.1435(4) 0.3015(4)
H40 H 0.5712 1.1584 0.3279
H41 H 0.4382 1.1558 0.3351
H42 H 0.4648 1.1748 0.2536
C29 C 0.2973(5) 1.0811(5) 0.1710(4)
C30 C 0.6172(5) 1.0223(4) 0.4209(4)
C31 C -0.5184(7) 1.1748(5) -0.3717(5)
H43 H -0.4457 1.2028 -0.3649
C32 C -0.6135(8) 1.2158(7) -0.3611(5)
H44 H -0.6052 1.2714 -0.3457
C33 C -0.7254(9) 1.1773(6) -0.3725(5)
H45 H -0.7918 1.2057 -0.3645
C34 C -0.7327(8) 1.0930(8) -0.3969(5)
H46 H -0.8054 1.0645 -0.4059
C35 C -0.6331(7) 1.0538(5) -0.4072(4)
C36 C -0.6283(6) 0.9628(6) -0.4311(4)
C37 C -0.7324(6) 0.9173(5) -0.4610(4)
H47 H -0.8081 0.9404 -0.4663
C38 C -0.7180(7) 0.8364(5) -0.4826(5)
H48 H -0.7855 0.8038 -0.5033
C39 C -0.6048(7) 0.8027(5) -0.4739(5)
H49 H -0.5949 0.7472 -0.4862
C40 C -0.5043(7) 0.8556(5) -0.4454(5)
H50 H -0.4274 0.8346 -0.4406
C41 C -0.0820(6) 0.8506(4) -0.3403(4)
C42 C -0.0812(5) 0.7789(4) -0.3993(4)
C43 C 0.0205(6) 0.7208(4) -0.3528(4)
H51 H -0.0131 0.6830 -0.3201
C44 C 0.1093(6) 0.7794(5) -0.2992(4)
H52 H 0.1841 0.7805 -0.3150
H53 H 0.1261 0.7598 -0.2452
C45 C 0.0547(5) 0.8675(4) -0.3050(3)
H54 H 0.0871 0.9028 -0.3396
H55 H 0.0692 0.8936 -0.2536
C46 C -0.1395(6) 0.8281(4) -0.2738(4)
H56 H -0.1353 0.8752 -0.2394
H57 H -0.0973 0.7819 -0.2446
H58 H -0.2220 0.8131 -0.2955
C47 C -0.2021(6) 0.7307(4) -0.4225(4)
H59 H -0.1969 0.6871 -0.4590
H60 H -0.2656 0.7684 -0.4467
H61 H -0.2186 0.7069 -0.3762
C48 C -0.0591(6) 0.8110(5) -0.4770(4)
H62 H -0.0611 0.7650 -0.5123
H63 H 0.0181 0.8375 -0.4666
H64 H -0.1205 0.8504 -0.5006
C49 C -0.1472(6) 0.9287(4) -0.3833(4)
C50 C 0.0734(6) 0.6691(4) -0.4086(4)
C51 C 0.0170(7) 1.3778(5) 0.0417(4)
H65 H 0.0955 1.3973 0.0514
C52 C -0.0760(7) 1.4295(5) 0.0062(5)
H66 H -0.0603 1.4836 -0.0073
C53 C -0.1897(7) 1.4018(6) -0.0091(5)
H67 H -0.2536 1.4361 -0.0332
C54 C -0.2089(7) 1.3213(5) 0.0120(5)
H68 H -0.2869 1.3005 0.0000
C55 C -0.1149(6) 1.2706(4) 0.0505(4)
C56 C -0.1253(6) 1.1875(5) 0.0806(4)
C57 C -0.2358(6) 1.1468(6) 0.0763(5)
H69 H -0.3078 1.1716 0.0499
C58 C -0.2357(8) 1.0705(7) 0.1111(6)
H70 H -0.3073 1.0416 0.1062
C59 C -0.1273(8) 1.0366(6) 0.1539(6)
H71 H -0.1252 0.9870 0.1817
C60 C -0.0247(6) 1.0786(5) 0.1535(4)
H72 H 0.0479 1.0552 0.1807
Cd1A Cd 0.67794(4) 1.64877(2) -0.00801(3)
Cd2_2 Cd 0.83216(4) 1.08173(2) 0.50811(3)
Cd2A Cd 0.16784(4) 0.58173(2) -0.50811(3)
Cu1_2 Cu 0.61847(6) 1.02064(4) 0.59994(4)
O9A O 0.3038(4) 1.0402(3) -0.0807(3)
O10A O 0.4706(4) 1.1136(3) -0.0532(3)
O15_2 O -0.3876(4) 1.0684(3) -0.5223(3)
O16_2 O -0.2848(4) 0.9962(3) -0.5870(3)
O19A O -0.0139(4) 1.1092(3) -0.5545(3)
O20A O -0.1752(4) 1.1893(3) -0.5823(3)
O2 O 0.1901(5) 0.3775(3) -0.3268(3)
O4 O -0.0367(6) 0.4646(5) -0.3675(5)
O6 O -0.5424(5) 0.7582(4) -0.8842(4)
O8 O -0.3206(5) 0.8438(5) -0.8267(4)
loop_
_geom_bond_atom_site_label_1
_geom_bond_atom_site_label_2
_geom_bond_site_symmetry_1
_geom_bond_site_symmetry_2
Cd1 O5 1_555 1_555
Cd2 O1 1_555 1_555
Cu1 O3 1_555 1_555
Cu2 O5 1_555 1_555
O1 C9 1_555 1_555
O3 C9 1_555 1_555
O5 C10 1_555 1_555
O7 Cd1 1_555 1_555
O9 C19 1_555 1_555
O10 C19 1_555 1_555
O11 Cd1 1_555 1_555
O12 Cu2 1_555 1_555
O13 Cd1 1_555 1_555
O14 Cu2 1_555 1_555
O15 C30 1_555 1_555
O16 C30 1_555 1_555
O17 Cu1 1_555 1_555
O18 Cd2 1_555 1_555
O19 C50 1_555 1_555
O20 C50 1_555 1_555
N1 Cu1 1_555 1_555
N2 Cu1 1_555 1_555
N3 Cu2 1_555 1_555
N4 Cu2 1_555 1_555
C1 C2 1_555 1_555
C2 C3 1_555 1_555
C3 H1 1_555 1_555
C4 C3 1_555 1_555
H2 C4 1_555 1_555
H3 C4 1_555 1_555
C5 C1 1_555 1_555
H4 C5 1_555 1_555
H5 C5 1_555 1_555
C6 C1 1_555 1_555
H6 C6 1_555 1_555
H7 C6 1_555 1_555
H8 C6 1_555 1_555
C7 C2 1_555 1_555
H9 C7 1_555 1_555
H10 C7 1_555 1_555
H11 C7 1_555 1_555
C8 C2 1_555 1_555
H12 C8 1_555 1_555
H13 C8 1_555 1_555
H14 C8 1_555 1_555
C9 C1 1_555 1_555
C10 O7 1_555 1_555
C11 C12 1_555 1_555
C12 C13 1_555 1_555
C13 H15 1_555 1_555
C14 C13 1_555 1_555
H16 C14 1_555 1_555
H17 C14 1_555 1_555
C15 C11 1_555 1_555
H18 C15 1_555 1_555
H19 C15 1_555 1_555
C16 C11 1_555 1_555
H20 C16 1_555 1_555
H21 C16 1_555 1_555
H22 C16 1_555 1_555
C17 C12 1_555 1_555
H23 C17 1_555 1_555
H24 C17 1_555 1_555
H25 C17 1_555 1_555
C18 C12 1_555 1_555
H26 C18 1_555 1_555
H27 C18 1_555 1_555
H28 C18 1_555 1_555
C19 C11 1_555 1_555
C20 O11 1_555 1_555
C21 C22 1_555 1_555
C22 C23 1_555 1_555
C23 H29 1_555 1_555
C24 C23 1_555 1_555
H30 C24 1_555 1_555
H31 C24 1_555 1_555
C25 C21 1_555 1_555
H32 C25 1_555 1_555
H33 C25 1_555 1_555
C26 C21 1_555 1_555
H34 C26 1_555 1_555
H35 C26 1_555 1_555
H36 C26 1_555 1_555
C27 C22 1_555 1_555
H37 C27 1_555 1_555
H38 C27 1_555 1_555
H39 C27 1_555 1_555
C28 C22 1_555 1_555
H40 C28 1_555 1_555
H41 C28 1_555 1_555
H42 C28 1_555 1_555
C29 O13 1_555 1_555
C30 C23 1_555 1_555
C31 N1 1_555 1_555
H43 C31 1_555 1_555
C32 C31 1_555 1_555
H44 C32 1_555 1_555
C33 C32 1_555 1_555
H45 C33 1_555 1_555
C34 C33 1_555 1_555
H46 C34 1_555 1_555
C35 N1 1_555 1_555
C36 N2 1_555 1_555
C37 C36 1_555 1_555
H47 C37 1_555 1_555
C38 C37 1_555 1_555
H48 C38 1_555 1_555
C39 C38 1_555 1_555
H49 C39 1_555 1_555
C40 N2 1_555 1_555
H50 C40 1_555 1_555
C41 C42 1_555 1_555
C42 C43 1_555 1_555
C43 H51 1_555 1_555
C44 C43 1_555 1_555
H52 C44 1_555 1_555
H53 C44 1_555 1_555
C45 C41 1_555 1_555
H54 C45 1_555 1_555
H55 C45 1_555 1_555
C46 C41 1_555 1_555
H56 C46 1_555 1_555
H57 C46 1_555 1_555
H58 C46 1_555 1_555
C47 C42 1_555 1_555
H59 C47 1_555 1_555
H60 C47 1_555 1_555
H61 C47 1_555 1_555
C48 C42 1_555 1_555
H62 C48 1_555 1_555
H63 C48 1_555 1_555
H64 C48 1_555 1_555
C49 O17 1_555 1_555
C50 C43 1_555 1_555
C51 N3 1_555 1_555
H65 C51 1_555 1_555
C52 C51 1_555 1_555
H66 C52 1_555 1_555
C53 C52 1_555 1_555
H67 C53 1_555 1_555
C54 C53 1_555 1_555
H68 C54 1_555 1_555
C55 N3 1_555 1_555
C56 N4 1_555 1_555
C57 C56 1_555 1_555
H69 C57 1_555 1_555
C58 C57 1_555 1_555
H70 C58 1_555 1_555
C59 C58 1_555 1_555
H71 C59 1_555 1_555
C60 N4 1_555 1_555
H72 C60 1_555 1_555
Cd1A O9 1_555 1_555
Cd2_2 O15 1_555 1_555
Cd2A O19 1_555 1_555
Cu1_2 O15 1_555 1_555
O9A Cd1 1_555 1_555
O10A Cd1 1_555 1_555
O15_2 Cd2 1_555 1_555
O16_2 Cd2 1_555 1_555
O19A Cd2 1_555 1_555
O20A Cd2 1_555 1_555
Cu1 O15_2 1_555 1_555
O10 Cd1A 1_555 1_555
O12 C20 1_555 1_555
O14 C29 1_555 1_555
O16 Cd2_2 1_555 1_555
O18 C49 1_555 1_555
O20 Cd2A 1_555 1_555
C3 C10 1_555 1_555
C4 C5 1_555 1_555
C13 C20 1_555 1_555
C14 C15 1_555 1_555
C21 C29 1_555 1_555
C24 C25 1_555 1_555
C34 C35 1_555 1_555
C35 C36 1_555 1_555
C39 C40 1_555 1_555
C41 C49 1_555 1_555
C44 C45 1_555 1_555
C54 C55 1_555 1_555
C55 C56 1_555 1_555
C59 C60 1_555 1_555

#END
