
#######################################################################
#
#                 Cambridge Crystallographic Data Centre
#                                CCDC 
#
#######################################################################
#
# If this CIF has been generated from an entry in the Cambridge 
# Structural Database, then it will include bibliographic, chemical, 
# crystal, experimental, refinement or atomic coordinate data resulting 
# from the CCDC's data processing and validation procedures.
#
#######################################################################

data_HEBTAK
_symmetry_cell_setting           monoclinic
_symmetry_space_group_name_H-M   'C 2/c'
_symmetry_Int_Tables_number      15
_space_group_name_Hall           '-C 2yn'
loop_
_symmetry_equiv_pos_site_id
_symmetry_equiv_pos_as_xyz
1 x,y,z
2 1/2+x,1/2+y,z
3 -x,y,1/2-z
4 1/2-x,1/2+y,1/2-z
5 -x,-y,-z
6 1/2-x,1/2-y,-z
7 x,-y,1/2+z
8 1/2+x,1/2-y,1/2+z
_cell_length_a                   25.677(8)
_cell_length_b                   9.326(3)
_cell_length_c                   14.254(5)
_cell_angle_alpha                90
_cell_angle_beta                 112.247(4)
_cell_angle_gamma                90
_cell_volume                     3159.23
loop_
_atom_site_label
_atom_site_type_symbol
_atom_site_fract_x
_atom_site_fract_y
_atom_site_fract_z
Au1 Au 1.035200(9) 0.52915(2) 0.157991(18)
Co1 Co 1.0000 0.03027(10) 0.2500
O1 O 0.79504(16) -0.0931(6) 0.2067(3)
O2 O 0.71145(17) 0.1351(6) -0.1015(3)
N1 N 1.03124(18) 0.1985(6) 0.1809(4)
N2 N 1.03027(18) -0.1369(5) 0.1800(4)
N3 N 0.92321(18) 0.0330(4) 0.1196(4)
N4 N 0.75823(18) -0.0401(5) 0.1264(3)
N5 N 0.71840(17) 0.0606(5) -0.0224(3)
C1 C 1.0343(2) 0.3218(7) 0.1656(4)
C2 C 1.0335(2) -0.2556(7) 0.1655(4)
C3 C 0.9255(2) 0.0357(6) 0.0269(4)
H1 H 0.9606 0.0369 0.0219
C4 C 0.8783(3) 0.0368(6) -0.0605(5)
H2 H 0.8815 0.0370 -0.1233
C5 C 0.8263(2) 0.0374(6) -0.0540(4)
H3 H 0.7938 0.0408 -0.1126
C6 C 0.8224(2) 0.0331(5) 0.0407(4)
C7 C 0.8726(2) 0.0325(6) 0.1264(4)
H4 H 0.8708 0.0316 0.1903
C8 C 0.7680(2) 0.0213(6) 0.0497(4)
C9 C 0.6970(2) -0.0314(6) 0.1118(4)
C10 C 0.6801(2) -0.1684(7) 0.1497(5)
H5 H 0.6925 -0.2494 0.1221
H6 H 0.6399 -0.1713 0.1286
H7 H 0.6971 -0.1712 0.2223
C11 C 0.6924(2) 0.0960(8) 0.1739(5)
H8 H 0.7120 0.0756 0.2446
H9 H 0.6535 0.1144 0.1608
H10 H 0.7088 0.1787 0.1556
C12 C 0.6702(2) -0.0082(6) -0.0039(4)
C13 C 0.6576(3) -0.1456(8) -0.0667(5)
H11 H 0.6464 -0.1219 -0.1372
H12 H 0.6277 -0.1967 -0.0565
H13 H 0.6906 -0.2046 -0.0459
C14 C 0.6193(2) 0.0914(8) -0.0400(5)
H14 H 0.6293 0.1817 -0.0055
H15 H 0.5891 0.0487 -0.0255
H16 H 0.6074 0.1064 -0.1117
Au1B Au 0.964800(9) 0.52915(2) 0.342009(18)
Au1_2 Au 1.035200(9) -0.47085(2) 0.157991(18)
Au1B_2 Au 0.964800(9) -0.47085(2) 0.342009(18)
O1B O 1.20496(16) -0.0931(6) 0.2933(3)
O2B O 1.28855(17) 0.1351(6) 0.6015(3)
N1B N 0.96876(18) 0.1985(6) 0.3191(4)
N2B N 0.96973(18) -0.1369(5) 0.3200(4)
N3B N 1.07679(18) 0.0330(4) 0.3804(4)
N4B N 1.24177(18) -0.0401(5) 0.3736(3)
N5B N 1.28160(17) 0.0606(5) 0.5224(3)
C1B C 0.9657(2) 0.3218(7) 0.3344(4)
C2B C 0.9665(2) -0.2556(7) 0.3345(4)
C2_2 C 1.0335(2) 0.7444(7) 0.1655(4)
C2B_2 C 0.9665(2) 0.7444(7) 0.3345(4)
C3B C 1.0745(2) 0.0357(6) 0.4731(4)
H1B H 1.0394 0.0369 0.4781
C4B C 1.1217(3) 0.0368(6) 0.5605(5)
H2B H 1.1185 0.0370 0.6233
C5B C 1.1737(2) 0.0374(6) 0.5540(4)
H3B H 1.2062 0.0408 0.6126
C6B C 1.1776(2) 0.0331(5) 0.4593(4)
C7B C 1.1274(2) 0.0325(6) 0.3736(4)
H4B H 1.1292 0.0316 0.3097
C8B C 1.2320(2) 0.0213(6) 0.4503(4)
C9B C 1.3030(2) -0.0314(6) 0.3882(4)
C10B C 1.3199(2) -0.1684(7) 0.3503(5)
H5B H 1.3075 -0.2494 0.3779
H6B H 1.3601 -0.1713 0.3714
H7B H 1.3029 -0.1712 0.2777
C11B C 1.3076(2) 0.0960(8) 0.3261(5)
H8B H 1.2880 0.0756 0.2554
H9B H 1.3465 0.1144 0.3392
H10B H 1.2912 0.1787 0.3444
C12B C 1.3298(2) -0.0082(6) 0.5039(4)
C13B C 1.3424(3) -0.1456(8) 0.5667(5)
H11B H 1.3536 -0.1219 0.6372
H12B H 1.3723 -0.1967 0.5565
H13B H 1.3094 -0.2046 0.5459
C14B C 1.3807(2) 0.0914(8) 0.5400(5)
H14B H 1.3707 0.1817 0.5055
H15B H 1.4109 0.0487 0.5255
H16B H 1.3926 0.1064 0.6117
loop_
_geom_bond_atom_site_label_1
_geom_bond_atom_site_label_2
_geom_bond_site_symmetry_1
_geom_bond_site_symmetry_2
Au1 C1 1_555 1_555
Co1 N1 1_555 1_555
O1 N4 1_555 1_555
O2 N5 1_555 1_555
N1 C1 1_555 1_555
N2 Co1 1_555 1_555
N3 Co1 1_555 1_555
N4 C8 1_555 1_555
N5 C8 1_555 1_555
C2 N2 1_555 1_555
C3 N3 1_555 1_555
H1 C3 1_555 1_555
C4 C3 1_555 1_555
H2 C4 1_555 1_555
C5 C4 1_555 1_555
H3 C5 1_555 1_555
C6 C5 1_555 1_555
C7 N3 1_555 1_555
H4 C7 1_555 1_555
C8 C6 1_555 1_555
C9 N4 1_555 1_555
C10 C9 1_555 1_555
H5 C10 1_555 1_555
H6 C10 1_555 1_555
H7 C10 1_555 1_555
C11 C9 1_555 1_555
H8 C11 1_555 1_555
H9 C11 1_555 1_555
H10 C11 1_555 1_555
C12 N5 1_555 1_555
C13 C12 1_555 1_555
H11 C13 1_555 1_555
H12 C13 1_555 1_555
H13 C13 1_555 1_555
C14 C12 1_555 1_555
H14 C14 1_555 1_555
H15 C14 1_555 1_555
H16 C14 1_555 1_555
Au1B C1B 1_555 1_555
Au1_2 C2 1_555 1_555
Au1B_2 C2B 1_555 1_555
O1B N4B 1_555 1_555
O2B N5B 1_555 1_555
N1B Co1 1_555 1_555
N2B Co1 1_555 1_555
N3B Co1 1_555 1_555
N4B C8B 1_555 1_555
N5B C8B 1_555 1_555
C1B N1B 1_555 1_555
C2B N2B 1_555 1_555
C2_2 Au1 1_555 1_555
C2B_2 Au1B 1_555 1_555
C3B N3B 1_555 1_555
H1B C3B 1_555 1_555
C4B C3B 1_555 1_555
H2B C4B 1_555 1_555
C5B C4B 1_555 1_555
H3B C5B 1_555 1_555
C6B C5B 1_555 1_555
C7B N3B 1_555 1_555
H4B C7B 1_555 1_555
C8B C6B 1_555 1_555
C9B N4B 1_555 1_555
C10B C9B 1_555 1_555
H5B C10B 1_555 1_555
H6B C10B 1_555 1_555
H7B C10B 1_555 1_555
C11B C9B 1_555 1_555
H8B C11B 1_555 1_555
H9B C11B 1_555 1_555
H10B C11B 1_555 1_555
C12B N5B 1_555 1_555
C13B C12B 1_555 1_555
H11B C13B 1_555 1_555
H12B C13B 1_555 1_555
H13B C13B 1_555 1_555
C14B C12B 1_555 1_555
H14B C14B 1_555 1_555
H15B C14B 1_555 1_555
H16B C14B 1_555 1_555
C6 C7 1_555 1_555
C9 C12 1_555 1_555
C6B C7B 1_555 1_555
C9B C12B 1_555 1_555

#END
