
#######################################################################
#
#                 Cambridge Crystallographic Data Centre
#                                CCDC 
#
#######################################################################
#
# If this CIF has been generated from an entry in the Cambridge 
# Structural Database, then it will include bibliographic, chemical, 
# crystal, experimental, refinement or atomic coordinate data resulting 
# from the CCDC's data processing and validation procedures.
#
#######################################################################

data_HEBVEQ
_symmetry_cell_setting           triclinic
_symmetry_space_group_name_H-M   'P -1'
_symmetry_Int_Tables_number      2
_space_group_name_Hall           '-P 1'
loop_
_symmetry_equiv_pos_site_id
_symmetry_equiv_pos_as_xyz
1 x,y,z
2 -x,-y,-z
_cell_length_a                   7.2710(15)
_cell_length_b                   9.0756(18)
_cell_length_c                   11.327(2)
_cell_angle_alpha                99.40(3)
_cell_angle_beta                 100.62(3)
_cell_angle_gamma                105.43(3)
_cell_volume                     690.153
loop_
_atom_site_label
_atom_site_type_symbol
_atom_site_fract_x
_atom_site_fract_y
_atom_site_fract_z
Cu1 Cu 0.5000 0.5000 0.5000
N1 N 1.1256(3) 0.7643(2) 0.67809(19)
N2 N 0.2700(3) 0.0180(2) 0.92582(18)
H1 H 0.2289 -0.0373 0.8515
N3 N 0.4758(3) 0.3800(2) 0.63680(18)
N4 N 0.7801(3) 0.6138(3) 0.5838(2)
C1 C 0.9444(3) 0.6796(3) 0.6234(2)
O1 O 0.4618(4) 0.2576(2) 1.04426(18)
C2 C 0.2126(3) -0.0550(3) 1.0193(2)
C3 C 0.3736(4) 0.2275(3) 0.6145(2)
H2 H 0.3237 0.1719 0.5330
C4 C 0.5283(4) 0.3882(3) 0.8522(2)
H3 H 0.5855 0.4455 0.9328
C5 C 1.2701(3) 0.7262(3) 0.6396(2)
C6 C 0.5537(4) 0.4582(3) 0.7546(2)
H4 H 0.6272 0.5633 0.7709
C7 C 0.3858(4) 0.1700(3) 0.9431(2)
N5 N 1.4095(4) 0.7072(3) 0.6141(2)
C8 C 0.4167(4) 0.2312(3) 0.8296(2)
C9 C 0.0907(4) -0.2116(3) 0.9829(2)
H5 H 0.0520 -0.2622 0.9000
C10 C 0.0893(4) -0.2139(3) 1.1932(2)
C11 C 0.0282(4) -0.2906(3) 1.0698(3)
H6 H -0.0536 -0.3938 1.0459
C12 C 0.2705(4) 0.0208(3) 1.1443(2)
H7 H 0.3499 0.1247 1.1690
C13 C 0.3389(4) 0.1487(3) 0.7077(2)
H8 H 0.2653 0.0434 0.6889
O2 O 0.0816(4) -0.2276(4) 1.3942(2)
N6 N 0.0296(4) -0.2995(3) 1.2860(3)
O3 O -0.0714(4) -0.4372(3) 1.2504(3)
C14 C 0.2089(4) -0.0597(3) 1.2313(2)
H9 H 0.2477 -0.0105 1.3146
Cu1_2 Cu 1.5000 0.5000 0.5000
Cu1_3 Cu -0.5000 0.5000 0.5000
N1A N -0.1256(3) 0.2357(2) 0.32191(19)
N2A N 0.7300(3) 0.9820(2) 0.07418(18)
H1A H 0.7711 1.0373 0.1485
N3A N 0.5242(3) 0.6200(2) 0.36320(18)
N4A N 0.2199(3) 0.3862(3) 0.4162(2)
C1A C 0.0556(3) 0.3204(3) 0.3766(2)
O1A O 0.5382(4) 0.7424(2) -0.04426(18)
C2A C 0.7874(3) 1.0550(3) -0.0193(2)
C3A C 0.6264(4) 0.7725(3) 0.3855(2)
H2A H 0.6763 0.8281 0.4670
C4A C 0.4717(4) 0.6118(3) 0.1478(2)
H3A H 0.4145 0.5545 0.0672
C5A C -0.2701(3) 0.2738(3) 0.3604(2)
C6A C 0.4463(4) 0.5418(3) 0.2454(2)
H4A H 0.3728 0.4367 0.2291
C7A C 0.6142(4) 0.8300(3) 0.0569(2)
N5A N -0.4095(4) 0.2928(3) 0.3859(2)
N5_2 N 0.4095(4) 0.7072(3) 0.6141(2)
N5A_2 N 0.5905(4) 0.2928(3) 0.3859(2)
C8A C 0.5833(4) 0.7688(3) 0.1704(2)
C9A C 0.9093(4) 1.2116(3) 0.0171(2)
H5A H 0.9480 1.2622 0.1000
C10A C 0.9107(4) 1.2139(3) -0.1932(2)
C11A C 0.9718(4) 1.2906(3) -0.0698(3)
H6A H 1.0536 1.3938 -0.0459
C12A C 0.7295(4) 0.9792(3) -0.1443(2)
H7A H 0.6501 0.8753 -0.1690
C13A C 0.6611(4) 0.8513(3) 0.2923(2)
H8A H 0.7347 0.9566 0.3111
O2A O 0.9184(4) 1.2276(4) -0.3942(2)
N6A N 0.9704(4) 1.2995(3) -0.2860(3)
O3A O 1.0714(4) 1.4372(3) -0.2504(3)
C14A C 0.7911(4) 1.0597(3) -0.2313(2)
H9A H 0.7523 1.0105 -0.3146
loop_
_geom_bond_atom_site_label_1
_geom_bond_atom_site_label_2
_geom_bond_site_symmetry_1
_geom_bond_site_symmetry_2
Cu1 N3 1_555 1_555
N1 C1 1_555 1_555
N2 H1 1_555 1_555
N3 C3 1_555 1_555
N4 Cu1 1_555 1_555
C1 N4 1_555 1_555
O1 C7 1_555 1_555
C2 N2 1_555 1_555
C3 H2 1_555 1_555
C4 H3 1_555 1_555
C5 N1 1_555 1_555
C6 N3 1_555 1_555
H4 C6 1_555 1_555
C7 N2 1_555 1_555
N5 C5 1_555 1_555
C8 C4 1_555 1_555
C9 C2 1_555 1_555
H5 C9 1_555 1_555
C10 C11 1_555 1_555
C11 C9 1_555 1_555
H6 C11 1_555 1_555
C12 C2 1_555 1_555
H7 C12 1_555 1_555
C13 C3 1_555 1_555
H8 C13 1_555 1_555
O2 N6 1_555 1_555
N6 C10 1_555 1_555
O3 N6 1_555 1_555
C14 C10 1_555 1_555
H9 C14 1_555 1_555
Cu1_2 N5 1_555 1_555
Cu1_3 N5A 1_555 1_555
N1A C1A 1_555 1_555
N2A H1A 1_555 1_555
N3A Cu1 1_555 1_555
N4A Cu1 1_555 1_555
C1A N4A 1_555 1_555
O1A C7A 1_555 1_555
C2A N2A 1_555 1_555
C3A N3A 1_555 1_555
H2A C3A 1_555 1_555
C4A H3A 1_555 1_555
C5A N1A 1_555 1_555
C6A N3A 1_555 1_555
H4A C6A 1_555 1_555
C7A N2A 1_555 1_555
N5A C5A 1_555 1_555
N5_2 Cu1 1_555 1_555
N5A_2 Cu1 1_555 1_555
C8A C4A 1_555 1_555
C9A C2A 1_555 1_555
H5A C9A 1_555 1_555
C10A C11A 1_555 1_555
C11A C9A 1_555 1_555
H6A C11A 1_555 1_555
C12A C2A 1_555 1_555
H7A C12A 1_555 1_555
C13A C3A 1_555 1_555
H8A C13A 1_555 1_555
O2A N6A 1_555 1_555
N6A C10A 1_555 1_555
O3A N6A 1_555 1_555
C14A C10A 1_555 1_555
H9A C14A 1_555 1_555
C4 C6 1_555 1_555
C7 C8 1_555 1_555
C8 C13 1_555 1_555
C12 C14 1_555 1_555
C4A C6A 1_555 1_555
C7A C8A 1_555 1_555
C8A C13A 1_555 1_555
C12A C14A 1_555 1_555

#END
