
#######################################################################
#
#                 Cambridge Crystallographic Data Centre
#                                CCDC 
#
#######################################################################
#
# If this CIF has been generated from an entry in the Cambridge 
# Structural Database, then it will include bibliographic, chemical, 
# crystal, experimental, refinement or atomic coordinate data resulting 
# from the CCDC's data processing and validation procedures.
#
#######################################################################

data_HEBVUH
_symmetry_cell_setting           monoclinic
_symmetry_space_group_name_H-M   'P 21/m'
_symmetry_Int_Tables_number      11
_space_group_name_Hall           '-P 2yb'
loop_
_symmetry_equiv_pos_site_id
_symmetry_equiv_pos_as_xyz
1 x,y,z
2 -x,1/2+y,-z
3 -x,-y,-z
4 x,1/2-y,z
_cell_length_a                   9.808(2)
_cell_length_b                   18.443(4)
_cell_length_c                   17.136(3)
_cell_angle_alpha                90
_cell_angle_beta                 106.12(3)
_cell_angle_gamma                90
_cell_volume                     2977.84
loop_
_atom_site_label
_atom_site_type_symbol
_atom_site_fract_x
_atom_site_fract_y
_atom_site_fract_z
Pr1 Pr 0.87936(4) 0.470652(19) 0.38517(2)
O1 O 0.9461(5) 0.4423(3) 0.2488(3)
O2 O 0.7880(5) 0.3768(3) 0.2861(3)
O3 O 1.0739(5) 0.3817(3) 0.4081(3)
O4 O 0.8620(5) 0.3901(3) 0.4967(3)
O5 O 0.9499(5) 0.4373(3) 0.6209(3)
O6 O 1.1601(6) 0.4401(3) 0.5240(3)
O7 O -0.4597(7) 0.5804(5) -0.0804(5)
N1 N 0.7084(6) 0.5545(3) 0.2762(3)
N2 N 0.6021(6) 0.4542(3) 0.3607(4)
N3 N 0.1298(6) 0.5169(3) 0.1827(4)
N4 N 0.2118(6) 0.6050(4) 0.1189(4)
H1 H 0.2151 0.6402 0.0866
C1 C 0.7613(8) 0.6038(4) 0.2348(4)
H2 H 0.8593 0.6089 0.2475
C2 C 0.6788(8) 0.6472(5) 0.1748(5)
H3 H 0.7205 0.6809 0.1482
C3 C 0.5321(8) 0.6400(4) 0.1545(5)
H4 H 0.4742 0.6689 0.1142
C4 C 0.4732(7) 0.5893(4) 0.1951(4)
C5 C 0.3236(8) 0.5748(4) 0.1770(4)
C6 C 0.2754(7) 0.5211(4) 0.2172(4)
C7 C 0.3626(8) 0.4778(3) 0.2803(5)
C8 C 0.3129(8) 0.4224(4) 0.3219(5)
H5 H 0.2167 0.4115 0.3093
C9 C 0.4094(8) 0.3850(5) 0.3811(5)
H6 H 0.3792 0.3486 0.4100
C10 C 0.5527(8) 0.4018(5) 0.3978(5)
H7 H 0.6171 0.3747 0.4371
C11 C 0.5083(7) 0.4922(4) 0.2997(4)
C12 C 0.5645(7) 0.5465(4) 0.2563(4)
C13 C 0.0983(7) 0.5683(5) 0.1235(4)
C14 C -0.0474(8) 0.5767(5) 0.0706(5)
C15 C -0.0941(10) 0.6371(8) 0.0283(8)
H8 H -0.0348 0.6772 0.0334
C16 C -0.2346(11) 0.6397(8) -0.0246(7)
H9 H -0.2666 0.6811 -0.0553
C17 C -0.3212(10) 0.5818(8) -0.0299(6)
C18 C -0.2802(11) 0.5226(6) 0.0133(7)
H10 H -0.3414 0.4834 0.0098
C19 C -0.1467(10) 0.5205(5) 0.0629(6)
H11 H -0.1186 0.4789 0.0940
C20 C -0.5101(14) 0.6442(9) -0.1249(11)
H12 H -0.6059 0.6368 -0.1575
H13 H -0.4510 0.6556 -0.1595
H14 H -0.5077 0.6837 -0.0880
C21 C 0.8841(7) 0.3813(5) 0.2498(4)
C22 C 0.9267(7) 0.3157(4) 0.2156(4)
C23 C 1.0200(9) 0.3144(5) 0.1671(5)
H15 H 1.0510 0.3578 0.1501
C24 C 1.0660(17) 0.2500 0.1444(9)
H16 H 1.1297 0.2500 0.1130
C25 C 0.8790(10) 0.2500 0.2362(6)
H17 H 0.8118 0.2500 0.2653
C26 C 1.1490(7) 0.3833(4) 0.4799(4)
C27 C 1.2203(7) 0.3152(4) 0.5167(4)
C28 C 1.3362(8) 0.3147(4) 0.5862(4)
H18 H 1.3734 0.3582 0.6105
C29 C 1.3949(12) 0.2500 0.6183(6)
H19 H 1.4755 0.2500 0.6625
C30 C 1.1641(9) 0.2500 0.4830(6)
H20 H 1.0872 0.2500 0.4368
C31 C 0.8947(7) 0.3860(3) 0.5726(4)
C32 C 0.8681(7) 0.3155(4) 0.6098(4)
C33 C 0.8517(7) 0.3156(4) 0.6894(4)
H21 H 0.8497 0.3592 0.7164
C34 C 0.8387(11) 0.2500 0.7270(6)
H22 H 0.8211 0.2500 0.7776
C35 C 0.8711(9) 0.2500 0.5697(6)
H23 H 0.8752 0.2500 0.5161
Pr1C Pr 0.87936(4) 0.029348(19) 0.38517(2)
Pr1B Pr 1.12064(4) 0.529348(19) 0.61483(2)
Pr1A Pr 1.12064(4) -0.029348(19) 0.61483(2)
O1C O 0.9461(5) 0.0577(3) 0.2488(3)
O2C O 0.7880(5) 0.1232(3) 0.2861(3)
O3C O 1.0739(5) 0.1183(3) 0.4081(3)
O4C O 0.8620(5) 0.1099(3) 0.4967(3)
O5C O 0.9499(5) 0.0627(3) 0.6209(3)
O5B O 1.0501(5) 0.5627(3) 0.3791(3)
O5A O 1.0501(5) -0.0627(3) 0.3791(3)
O6C O 1.1601(6) 0.0599(3) 0.5240(3)
O6B O 0.8399(6) 0.5599(3) 0.4760(3)
O6A O 0.8399(6) -0.0599(3) 0.4760(3)
O7C O -0.4597(7) -0.0804(5) -0.0804(5)
N1C N 0.7084(6) -0.0545(3) 0.2762(3)
N2C N 0.6021(6) 0.0458(3) 0.3607(4)
N3C N 0.1298(6) -0.0169(3) 0.1827(4)
N4C N 0.2118(6) -0.1050(4) 0.1189(4)
H1C H 0.2151 -0.1402 0.0866
C1C C 0.7613(8) -0.1038(4) 0.2348(4)
H2C H 0.8593 -0.1089 0.2475
C2C C 0.6788(8) -0.1472(5) 0.1748(5)
H3C H 0.7205 -0.1809 0.1482
C3C C 0.5321(8) -0.1400(4) 0.1545(5)
H4C H 0.4742 -0.1689 0.1142
C4C C 0.4732(7) -0.0893(4) 0.1951(4)
C5C C 0.3236(8) -0.0748(4) 0.1770(4)
C6C C 0.2754(7) -0.0211(4) 0.2172(4)
C7C C 0.3626(8) 0.0222(3) 0.2803(5)
C8C C 0.3129(8) 0.0776(4) 0.3219(5)
H5C H 0.2167 0.0885 0.3093
C9C C 0.4094(8) 0.1150(5) 0.3811(5)
H6C H 0.3792 0.1514 0.4100
C10C C 0.5527(8) 0.0982(5) 0.3978(5)
H7C H 0.6171 0.1253 0.4371
C11C C 0.5083(7) 0.0078(4) 0.2997(4)
C12C C 0.5645(7) -0.0465(4) 0.2563(4)
C13C C 0.0983(7) -0.0683(5) 0.1235(4)
C14C C -0.0474(8) -0.0767(5) 0.0706(5)
C15C C -0.0941(10) -0.1371(8) 0.0283(8)
H8C H -0.0348 -0.1772 0.0334
C16C C -0.2346(11) -0.1397(8) -0.0246(7)
H9C H -0.2666 -0.1811 -0.0553
C17C C -0.3212(10) -0.0818(8) -0.0299(6)
C18C C -0.2802(11) -0.0226(6) 0.0133(7)
H10C H -0.3414 0.0166 0.0098
C19C C -0.1467(10) -0.0205(5) 0.0629(6)
H11C H -0.1186 0.0211 0.0940
C20C C -0.5101(14) -0.1442(9) -0.1249(11)
H12C H -0.6059 -0.1368 -0.1575
H13C H -0.4510 -0.1556 -0.1595
H14C H -0.5077 -0.1837 -0.0880
C21C C 0.8841(7) 0.1187(5) 0.2498(4)
C22C C 0.9267(7) 0.1843(4) 0.2156(4)
C23C C 1.0200(9) 0.1856(5) 0.1671(5)
H15C H 1.0510 0.1422 0.1501
C26C C 1.1490(7) 0.1167(4) 0.4799(4)
C27C C 1.2203(7) 0.1848(4) 0.5167(4)
C28C C 1.3362(8) 0.1853(4) 0.5862(4)
H18C H 1.3734 0.1418 0.6105
C31C C 0.8947(7) 0.1140(3) 0.5726(4)
C32C C 0.8681(7) 0.1845(4) 0.6098(4)
C33C C 0.8517(7) 0.1844(4) 0.6894(4)
H21C H 0.8497 0.1408 0.7164
O8 O 0.2538(11) 0.7500 0.0419(6)
loop_
_geom_bond_atom_site_label_1
_geom_bond_atom_site_label_2
_geom_bond_site_symmetry_1
_geom_bond_site_symmetry_2
Pr1 O1 1_555 1_555
O1 C21 1_555 1_555
O2 Pr1 1_555 1_555
O3 Pr1 1_555 1_555
O4 Pr1 1_555 1_555
O5 C31 1_555 1_555
O6 C26 1_555 1_555
O7 C17 1_555 1_555
N1 Pr1 1_555 1_555
N2 Pr1 1_555 1_555
N3 C6 1_555 1_555
N4 H1 1_555 1_555
C1 N1 1_555 1_555
H2 C1 1_555 1_555
C2 C1 1_555 1_555
H3 C2 1_555 1_555
C3 C2 1_555 1_555
H4 C3 1_555 1_555
C4 C3 1_555 1_555
C5 N4 1_555 1_555
C6 C5 1_555 1_555
C7 C6 1_555 1_555
C8 C7 1_555 1_555
H5 C8 1_555 1_555
C9 C8 1_555 1_555
H6 C9 1_555 1_555
C10 N2 1_555 1_555
H7 C10 1_555 1_555
C11 N2 1_555 1_555
C12 N1 1_555 1_555
C13 N3 1_555 1_555
C14 C13 1_555 1_555
C15 C14 1_555 1_555
H8 C15 1_555 1_555
C16 C15 1_555 1_555
H9 C16 1_555 1_555
C17 C16 1_555 1_555
C18 C17 1_555 1_555
H10 C18 1_555 1_555
C19 C14 1_555 1_555
H11 C19 1_555 1_555
C20 O7 1_555 1_555
H12 C20 1_555 1_555
H13 C20 1_555 1_555
H14 C20 1_555 1_555
C21 O2 1_555 1_555
C22 C21 1_555 1_555
C23 C22 1_555 1_555
H15 C23 1_555 1_555
C24 C23 1_555 1_555
H16 C24 1_555 1_555
C25 C22 1_555 1_555
H17 C25 1_555 1_555
C26 O3 1_555 1_555
C27 C26 1_555 1_555
C28 C27 1_555 1_555
H18 C28 1_555 1_555
C29 C28 1_555 1_555
H19 C29 1_555 1_555
C30 C27 1_555 1_555
H20 C30 1_555 1_555
C31 O4 1_555 1_555
C32 C31 1_555 1_555
C33 C32 1_555 1_555
H21 C33 1_555 1_555
C34 C33 1_555 1_555
H22 C34 1_555 1_555
C35 C32 1_555 1_555
H23 C35 1_555 1_555
Pr1C O1C 1_555 1_555
Pr1B O5 1_555 1_555
Pr1A O5C 1_555 1_555
O1C C21C 1_555 1_555
O2C Pr1C 1_555 1_555
O3C Pr1C 1_555 1_555
O4C Pr1C 1_555 1_555
O5C C31C 1_555 1_555
O5B Pr1 1_555 1_555
O5A Pr1C 1_555 1_555
O6C Pr1A 1_555 1_555
O6B Pr1 1_555 1_555
O6A Pr1C 1_555 1_555
O7C C17C 1_555 1_555
N1C Pr1C 1_555 1_555
N2C Pr1C 1_555 1_555
N3C C6C 1_555 1_555
N4C H1C 1_555 1_555
C1C N1C 1_555 1_555
H2C C1C 1_555 1_555
C2C C1C 1_555 1_555
H3C C2C 1_555 1_555
C3C C2C 1_555 1_555
H4C C3C 1_555 1_555
C4C C3C 1_555 1_555
C5C N4C 1_555 1_555
C6C C5C 1_555 1_555
C7C C6C 1_555 1_555
C8C C7C 1_555 1_555
H5C C8C 1_555 1_555
C9C C8C 1_555 1_555
H6C C9C 1_555 1_555
C10C N2C 1_555 1_555
H7C C10C 1_555 1_555
C11C N2C 1_555 1_555
C12C N1C 1_555 1_555
C13C N3C 1_555 1_555
C14C C13C 1_555 1_555
C15C C14C 1_555 1_555
H8C C15C 1_555 1_555
C16C C15C 1_555 1_555
H9C C16C 1_555 1_555
C17C C16C 1_555 1_555
C18C C17C 1_555 1_555
H10C C18C 1_555 1_555
C19C C14C 1_555 1_555
H11C C19C 1_555 1_555
C20C O7C 1_555 1_555
H12C C20C 1_555 1_555
H13C C20C 1_555 1_555
H14C C20C 1_555 1_555
C21C O2C 1_555 1_555
C22C C25 1_555 1_555
C23C C24 1_555 1_555
H15C C23C 1_555 1_555
C26C O3C 1_555 1_555
C27C C30 1_555 1_555
C28C C29 1_555 1_555
H18C C28C 1_555 1_555
C31C O4C 1_555 1_555
C32C C35 1_555 1_555
C33C C34 1_555 1_555
H21C C33C 1_555 1_555
O6 Pr1B 1_555 1_555
N4 C13 1_555 1_555
C4 C5 1_555 1_555
C4 C12 1_555 1_555
C7 C11 1_555 1_555
C9 C10 1_555 1_555
C11 C12 1_555 1_555
C18 C19 1_555 1_555
O6C C26C 1_555 1_555
N4C C13C 1_555 1_555
C4C C5C 1_555 1_555
C4C C12C 1_555 1_555
C7C C11C 1_555 1_555
C9C C10C 1_555 1_555
C11C C12C 1_555 1_555
C18C C19C 1_555 1_555
C21C C22C 1_555 1_555
C22C C23C 1_555 1_555
C26C C27C 1_555 1_555
C27C C28C 1_555 1_555
C31C C32C 1_555 1_555
C32C C33C 1_555 1_555

#END
