
#######################################################################
#
#                 Cambridge Crystallographic Data Centre
#                                CCDC 
#
#######################################################################
#
# If this CIF has been generated from an entry in the Cambridge 
# Structural Database, then it will include bibliographic, chemical, 
# crystal, experimental, refinement or atomic coordinate data resulting 
# from the CCDC's data processing and validation procedures.
#
#######################################################################

data_HECPEM
_symmetry_cell_setting           triclinic
_symmetry_space_group_name_H-M   'P -1'
_symmetry_Int_Tables_number      2
_space_group_name_Hall           '-P 1'
loop_
_symmetry_equiv_pos_site_id
_symmetry_equiv_pos_as_xyz
1 x,y,z
2 -x,-y,-z
_cell_length_a                   11.281(6)
_cell_length_b                   11.739(6)
_cell_length_c                   12.205(6)
_cell_angle_alpha                65.443(10)
_cell_angle_beta                 76.776(13)
_cell_angle_gamma                88.258(11)
_cell_volume                     1427.28
loop_
_atom_site_label
_atom_site_type_symbol
_atom_site_fract_x
_atom_site_fract_y
_atom_site_fract_z
Cu1 Cu 0.0000 0.0000 0.0000
O1 O -0.0956(4) 0.1482(4) -0.0417(4)
C1 C -0.1595(6) 0.3461(7) -0.0646(7)
F1 F -0.1243(4) 0.4524(4) -0.0640(4)
F2 F -0.2751(4) 0.3140(4) 0.0062(4)
F3 F -0.1665(4) 0.3707(4) -0.1802(4)
C2 C -0.0807(6) 0.2385(6) -0.0142(6)
C3 C -0.0028(6) 0.2502(6) 0.0544(7)
H1 H 0.0006 0.3252 0.0658
C4 C 0.0701(6) 0.1552(6) 0.1066(6)
C5 C 0.1489(7) 0.1737(7) 0.1858(7)
F4 F 0.1137(4) 0.2636(4) 0.2225(4)
F5 F 0.1480(4) 0.0680(4) 0.2876(4)
F6 F 0.2644(4) 0.2021(4) 0.1225(4)
O2 O 0.0843(4) 0.0516(4) 0.0967(4)
N1 N -0.1595(5) -0.1174(5) 0.1776(5)
N2 N -0.1625(5) -0.1876(5) 0.2986(5)
C6 C -0.0659(11) -0.238(2) 0.4694(12)
H2 H 0.0136 -0.2471 0.4906
H3 H -0.1164 -0.3171 0.5176
H4 H -0.1068 -0.1712 0.4887
C7 C -0.0489(6) -0.2060(7) 0.3410(7)
H5 H -0.0070 -0.2735 0.3225
H6 H 0.0052 -0.1279 0.2934
C8 C -0.2720(6) -0.1210(6) 0.1656(7)
H7 H -0.2975 -0.0775 0.0907
C9 C -0.2754(6) -0.2393(6) 0.3647(6)
H8 H -0.2989 -0.2924 0.4509
C10 C -0.3505(6) -0.2004(6) 0.2828(6)
N3 N -0.4729(5) -0.2364(5) 0.3173(5)
C11 C -0.5611(6) -0.1893(7) 0.2341(6)
C12 C -0.6883(6) -0.2434(7) 0.3086(7)
H9 H -0.7125 -0.2141 0.3743
H10 H -0.6899 -0.3353 0.3457
H11 H -0.7451 -0.2160 0.2542
C13 C -0.5583(6) -0.0452(6) 0.1843(7)
H12 H -0.5833 -0.0215 0.2539
H13 H -0.6145 -0.0134 0.1295
H14 H -0.4753 -0.0089 0.1378
C14 C -0.5224(7) -0.2310(6) 0.1281(6)
H15 H -0.4400 -0.1942 0.0799
H16 H -0.5796 -0.2027 0.0742
H17 H -0.5229 -0.3228 0.1627
O3 O -0.5170(4) -0.3153(4) 0.4323(4)
Cu2 Cu -0.5000 -0.5000 0.5000
O4 O -0.3440(4) -0.4874(4) 0.3913(4)
C15 C -0.1750(6) -0.5292(7) 0.2690(7)
F7 F -0.1315(4) -0.6120(5) 0.3603(5)
F8 F -0.1211(4) -0.4154(4) 0.2379(4)
F9 F -0.1387(4) -0.5545(4) 0.1720(4)
C16 C -0.3147(6) -0.5305(6) 0.3145(7)
C17 C -0.3868(7) -0.5744(6) 0.2605(6)
H18 H -0.3478 -0.6026 0.1996
C18 C -0.5131(7) -0.5792(6) 0.2911(7)
C19 C -0.5835(7) -0.6437(7) 0.2351(7)
F10 F -0.5123(4) -0.6939(4) 0.1651(4)
F11 F -0.6471(5) -0.5616(5) 0.1616(5)
F12 F -0.6625(4) -0.7348(4) 0.3213(4)
O5 O -0.5815(4) -0.5410(4) 0.3618(4)
Cu1_2 Cu -1.0000 -1.0000 1.0000
O1A O 0.0956(4) -0.1482(4) 0.0417(4)
C1A C 0.1595(6) -0.3461(7) 0.0646(7)
F1A F 0.1243(4) -0.4524(4) 0.0640(4)
F2A F 0.2751(4) -0.3140(4) -0.0062(4)
F3A F 0.1665(4) -0.3707(4) 0.1802(4)
C2A C 0.0807(6) -0.2385(6) 0.0142(6)
C3A C 0.0028(6) -0.2502(6) -0.0544(7)
H1A H -0.0006 -0.3252 -0.0658
C4A C -0.0701(6) -0.1552(6) -0.1066(6)
C5A C -0.1489(7) -0.1737(7) -0.1858(7)
F4A F -0.1137(4) -0.2636(4) -0.2225(4)
F5A F -0.1480(4) -0.0680(4) -0.2876(4)
F6A F -0.2644(4) -0.2021(4) -0.1225(4)
O2A O -0.0843(4) -0.0516(4) -0.0967(4)
N1A N -0.8405(5) -0.8826(5) 0.8224(5)
N1A_2 N 0.1595(5) 0.1174(5) -0.1776(5)
N2A N -0.8375(5) -0.8124(5) 0.7014(5)
C6A C -0.9341(11) -0.762(2) 0.5306(12)
H2A H -1.0136 -0.7529 0.5094
H3A H -0.8836 -0.6829 0.4824
H4A H -0.8932 -0.8288 0.5113
C7A C -0.9511(6) -0.7940(7) 0.6590(7)
H5A H -0.9930 -0.7265 0.6775
H6A H -1.0052 -0.8721 0.7066
C8A C -0.7280(6) -0.8790(6) 0.8344(7)
H7A H -0.7025 -0.9225 0.9093
C9A C -0.7246(6) -0.7607(6) 0.6353(6)
H8A H -0.7011 -0.7076 0.5491
C10A C -0.6495(6) -0.7996(6) 0.7172(6)
N3A N -0.5271(5) -0.7636(5) 0.6827(5)
C11A C -0.4389(6) -0.8107(7) 0.7659(6)
C12A C -0.3117(6) -0.7566(7) 0.6914(7)
H9A H -0.2875 -0.7859 0.6257
H10A H -0.3101 -0.6647 0.6543
H11A H -0.2549 -0.7840 0.7458
C13A C -0.4417(6) -0.9548(6) 0.8157(7)
H12A H -0.4167 -0.9785 0.7461
H13A H -0.3855 -0.9866 0.8705
H14A H -0.5247 -0.9911 0.8622
C14A C -0.4776(7) -0.7690(6) 0.8719(6)
H15A H -0.5600 -0.8058 0.9201
H16A H -0.4204 -0.7973 0.9258
H17A H -0.4771 -0.6772 0.8373
O3A O -0.4830(4) -0.6847(4) 0.5677(4)
O4A O -0.6560(4) -0.5126(4) 0.6087(4)
C15A C -0.8250(6) -0.4708(7) 0.7310(7)
F7A F -0.8685(4) -0.3880(5) 0.6397(5)
F8A F -0.8789(4) -0.5846(4) 0.7621(4)
F9A F -0.8613(4) -0.4455(4) 0.8280(4)
C16A C -0.6853(6) -0.4695(6) 0.6855(7)
C17A C -0.6132(7) -0.4256(6) 0.7395(6)
H18A H -0.6522 -0.3974 0.8004
C18A C -0.4869(7) -0.4208(6) 0.7089(7)
C19A C -0.4165(7) -0.3563(7) 0.7649(7)
F10A F -0.4877(4) -0.3061(4) 0.8349(4)
F11A F -0.3529(5) -0.4384(5) 0.8384(5)
F12A F -0.3375(4) -0.2652(4) 0.6787(4)
O5A O -0.4185(4) -0.4590(4) 0.6382(4)
C20 C -0.4468(7) 0.0166(8) 0.4455(7)
H19 H -0.4714 0.0782 0.3712
H20 H -0.4269 -0.0598 0.4317
C21 C -0.3329(7) 0.0707(8) 0.4568(8)
H21 H -0.3527 0.1463 0.4722
H22 H -0.3063 0.0084 0.5293
C22 C -0.2304(8) 0.1055(7) 0.3451(8)
H23 H -0.1594 0.1395 0.3585
H24 H -0.2551 0.1691 0.2731
H25 H -0.2090 0.0309 0.3299
C20A C -0.5532(7) -0.0166(8) 0.5545(7)
H19A H -0.5286 -0.0782 0.6288
H20A H -0.5731 0.0598 0.5683
C21A C -0.6671(7) -0.0707(8) 0.5432(8)
H21A H -0.6473 -0.1463 0.5278
H22A H -0.6937 -0.0084 0.4707
C22A C -0.7696(8) -0.1055(7) 0.6549(8)
H23A H -0.8406 -0.1395 0.6415
H24A H -0.7449 -0.1691 0.7269
H25A H -0.7910 -0.0309 0.6701
loop_
_geom_bond_atom_site_label_1
_geom_bond_atom_site_label_2
_geom_bond_site_symmetry_1
_geom_bond_site_symmetry_2
Cu1 O1 1_555 1_555
O1 C2 1_555 1_555
C1 F1 1_555 1_555
F2 C1 1_555 1_555
F3 C1 1_555 1_555
C2 C1 1_555 1_555
C3 C2 1_555 1_555
H1 C3 1_555 1_555
C4 C3 1_555 1_555
C5 C4 1_555 1_555
F4 C5 1_555 1_555
F5 C5 1_555 1_555
F6 C5 1_555 1_555
O2 Cu1 1_555 1_555
N1 Cu1 1_555 1_555
N2 N1 1_555 1_555
C6 H2 1_555 1_555
H3 C6 1_555 1_555
H4 C6 1_555 1_555
C7 N2 1_555 1_555
H5 C7 1_555 1_555
H6 C7 1_555 1_555
C8 N1 1_555 1_555
H7 C8 1_555 1_555
C9 N2 1_555 1_555
H8 C9 1_555 1_555
C10 C8 1_555 1_555
N3 C10 1_555 1_555
C11 N3 1_555 1_555
C12 C11 1_555 1_555
H9 C12 1_555 1_555
H10 C12 1_555 1_555
H11 C12 1_555 1_555
C13 C11 1_555 1_555
H12 C13 1_555 1_555
H13 C13 1_555 1_555
H14 C13 1_555 1_555
C14 C11 1_555 1_555
H15 C14 1_555 1_555
H16 C14 1_555 1_555
H17 C14 1_555 1_555
O3 N3 1_555 1_555
Cu2 O3 1_555 1_555
O4 Cu2 1_555 1_555
C15 F7 1_555 1_555
F8 C15 1_555 1_555
F9 C15 1_555 1_555
C16 O4 1_555 1_555
C17 C16 1_555 1_555
H18 C17 1_555 1_555
C18 C17 1_555 1_555
C19 C18 1_555 1_555
F10 C19 1_555 1_555
F11 C19 1_555 1_555
F12 C19 1_555 1_555
O5 Cu2 1_555 1_555
C20 H19 1_555 1_555
H20 C20 1_555 1_555
C21 C20 1_555 1_555
H21 C21 1_555 1_555
H22 C21 1_555 1_555
C22 C21 1_555 1_555
H23 C22 1_555 1_555
H24 C22 1_555 1_555
H25 C22 1_555 1_555
Cu1_2 N1A 1_555 1_555
O1A Cu1 1_555 1_555
C1A F1A 1_555 1_555
F2A C1A 1_555 1_555
F3A C1A 1_555 1_555
C2A O1A 1_555 1_555
C3A C2A 1_555 1_555
H1A C3A 1_555 1_555
C4A C3A 1_555 1_555
C5A C4A 1_555 1_555
F4A C5A 1_555 1_555
F5A C5A 1_555 1_555
F6A C5A 1_555 1_555
O2A Cu1 1_555 1_555
N1A N2A 1_555 1_555
N1A_2 Cu1 1_555 1_555
N2A C7A 1_555 1_555
C6A H2A 1_555 1_555
H3A C6A 1_555 1_555
H4A C6A 1_555 1_555
C7A C6A 1_555 1_555
H5A C7A 1_555 1_555
H6A C7A 1_555 1_555
C8A N1A 1_555 1_555
H7A C8A 1_555 1_555
C9A N2A 1_555 1_555
H8A C9A 1_555 1_555
C10A C8A 1_555 1_555
N3A C10A 1_555 1_555
C11A N3A 1_555 1_555
C12A C11A 1_555 1_555
H9A C12A 1_555 1_555
H10A C12A 1_555 1_555
H11A C12A 1_555 1_555
C13A C11A 1_555 1_555
H12A C13A 1_555 1_555
H13A C13A 1_555 1_555
H14A C13A 1_555 1_555
C14A C11A 1_555 1_555
H15A C14A 1_555 1_555
H16A C14A 1_555 1_555
H17A C14A 1_555 1_555
O3A Cu2 1_555 1_555
O4A Cu2 1_555 1_555
C15A F7A 1_555 1_555
F8A C15A 1_555 1_555
F9A C15A 1_555 1_555
C16A O4A 1_555 1_555
C17A C16A 1_555 1_555
H18A C17A 1_555 1_555
C18A C17A 1_555 1_555
C19A C18A 1_555 1_555
F10A C19A 1_555 1_555
F11A C19A 1_555 1_555
F12A C19A 1_555 1_555
O5A Cu2 1_555 1_555
C20A C20 1_555 1_555
H19A C20A 1_555 1_555
H20A C20A 1_555 1_555
C21A C20A 1_555 1_555
H21A C21A 1_555 1_555
H22A C21A 1_555 1_555
C22A C21A 1_555 1_555
H23A C22A 1_555 1_555
H24A C22A 1_555 1_555
H25A C22A 1_555 1_555
C4 O2 1_555 1_555
C6 C7 1_555 1_555
C9 C10 1_555 1_555
C15 C16 1_555 1_555
C18 O5 1_555 1_555
C1A C2A 1_555 1_555
C4A O2A 1_555 1_555
C9A C10A 1_555 1_555
N3A O3A 1_555 1_555
C15A C16A 1_555 1_555
C18A O5A 1_555 1_555

#END
