
#######################################################################
#
#                 Cambridge Crystallographic Data Centre
#                                CCDC 
#
#######################################################################
#
# If this CIF has been generated from an entry in the Cambridge 
# Structural Database, then it will include bibliographic, chemical, 
# crystal, experimental, refinement or atomic coordinate data resulting 
# from the CCDC's data processing and validation procedures.
#
#######################################################################

data_HECRUE01
_symmetry_cell_setting           triclinic
_symmetry_space_group_name_H-M   'P -1'
_symmetry_Int_Tables_number      2
_space_group_name_Hall           '-P 1'
loop_
_symmetry_equiv_pos_site_id
_symmetry_equiv_pos_as_xyz
1 x,y,z
2 -x,-y,-z
_cell_length_a                   9.2979(4)
_cell_length_b                   11.9963(4)
_cell_length_c                   15.0186(6)
_cell_angle_alpha                73.559(2)
_cell_angle_beta                 74.362(2)
_cell_angle_gamma                68.6390(10)
_cell_volume                     1470.1
loop_
_atom_site_label
_atom_site_type_symbol
_atom_site_fract_x
_atom_site_fract_y
_atom_site_fract_z
Cu1 Cu 0.0000 -0.5000 0.5000
O1 O 0.1806(2) -0.6413(2) 0.47905(14)
C1 C 0.3837(6) -0.7870(5) 0.4061(4)
F1 F 0.4858(16) -0.7784(16) 0.4430(16)
F2 F 0.350(3) -0.8833(10) 0.4708(14)
F3 F 0.4498(17) -0.8189(15) 0.3299(8)
C2 C 0.2354(3) -0.6744(3) 0.4017(2)
C3 C 0.1816(4) -0.6236(3) 0.3184(2)
H1 H 0.2409 -0.6537 0.2639
C4 C 0.0422(4) -0.5291(3) 0.3124(2)
C5 C -0.0124(6) -0.4790(4) 0.2169(3)
F4 F 0.0884(11) -0.5048(14) 0.1463(4)
F5 F -0.1284(10) -0.5335(11) 0.2265(6)
F6 F -0.088(2) -0.3689(8) 0.2011(9)
O2 O -0.0474(2) -0.47505(19) 0.37659(13)
Cu2 Cu 0.0000 0.0000 0.0000
O3 O -0.1661(2) 0.14880(18) 0.02938(15)
C6 C -0.2970(5) 0.3418(3) 0.0644(3)
F7 F -0.4017(18) 0.311(2) 0.1296(15)
F8 F -0.363(3) 0.3842(17) -0.0116(12)
F9 F -0.262(2) 0.4293(12) 0.0819(13)
C7 C -0.1421(4) 0.2373(2) 0.04411(19)
C8 C -0.0027(4) 0.2506(3) 0.0451(2)
H2 H -0.0042 0.3231 0.0583
C9 C 0.1395(4) 0.1627(3) 0.0276(2)
C10 C 0.2900(5) 0.1837(4) 0.0339(4)
F10 F 0.3933(19) 0.1875(15) -0.0471(10)
F11 F 0.3686(14) 0.0842(11) 0.0897(12)
F12 F 0.2696(14) 0.2697(12) 0.0750(10)
O4 O 0.1669(2) 0.06203(17) 0.00638(14)
O5 O 0.1599(3) -0.3678(2) 0.42019(14)
C11 C 0.2146(4) -0.3125(3) 0.3433(2)
C12 C 0.3912(4) -0.3374(3) 0.3129(2)
C13 C 0.4300(5) -0.2152(4) 0.2892(3)
H3 H 0.3915 -0.1784 0.3444
H4 H 0.3798 -0.1596 0.2375
H5 H 0.5429 -0.2315 0.2710
C14 C 0.4495(5) -0.3925(4) 0.2271(3)
H6 H 0.4252 -0.4685 0.2413
H7 H 0.5624 -0.4088 0.2086
H8 H 0.3988 -0.3361 0.1759
C15 C 0.4690(6) -0.4193(5) 0.3952(4)
H9 H 0.4463 -0.4962 0.4123
H10 H 0.4287 -0.3795 0.4488
H11 H 0.5817 -0.4347 0.3772
C16 C 0.1067(3) -0.2244(3) 0.2822(2)
C17 C 0.1311(4) -0.1585(3) 0.1895(2)
H12 H 0.2309 -0.1628 0.1518
N1 N -0.0024(3) -0.0895(3) 0.16095(18)
N2 N -0.1162(3) -0.1094(2) 0.23610(17)
C18 C -0.2797(4) -0.0449(3) 0.2289(3)
H13 H -0.2857 0.0067 0.1664
H14 H -0.3279 0.0053 0.2761
H15 H -0.3348 -0.1037 0.2392
C19 C -0.0555(4) -0.1888(3) 0.3090(2)
H16 H -0.1125 -0.2159 0.3681
O1A O -0.1806(2) -0.3587(2) 0.52095(14)
C1A C -0.3837(6) -0.2130(5) 0.5939(4)
F1A F -0.4858(16) -0.2216(16) 0.5570(16)
F2A F -0.350(3) -0.1167(10) 0.5292(14)
F3A F -0.4498(17) -0.1811(15) 0.6701(8)
C2A C -0.2354(3) -0.3256(3) 0.5983(2)
C3A C -0.1816(4) -0.3764(3) 0.6816(2)
H1A H -0.2409 -0.3463 0.7361
C4A C -0.0422(4) -0.4709(3) 0.6876(2)
C5A C 0.0124(6) -0.5210(4) 0.7831(3)
F4A F -0.0884(11) -0.4952(14) 0.8537(4)
F5A F 0.1284(10) -0.4665(11) 0.7735(6)
F6A F 0.088(2) -0.6311(8) 0.7989(9)
O2A O 0.0474(2) -0.52495(19) 0.62341(13)
Cu2_2 Cu 0.0000 -1.0000 1.0000
O3A O 0.1661(2) -0.14880(18) -0.02938(15)
C6A C 0.2970(5) -0.3418(3) -0.0644(3)
F7A F 0.4017(18) -0.311(2) -0.1296(15)
F8A F 0.363(3) -0.3842(17) 0.0116(12)
F9A F 0.262(2) -0.4293(12) -0.0819(13)
C7A C 0.1421(4) -0.2373(2) -0.04411(19)
C8A C 0.0027(4) -0.2506(3) -0.0451(2)
H2A H 0.0042 -0.3231 -0.0583
C9A C -0.1395(4) -0.1627(3) -0.0276(2)
C10A C -0.2900(5) -0.1837(4) -0.0339(4)
F10A F -0.3933(19) -0.1875(15) 0.0471(10)
F11A F -0.3686(14) -0.0842(11) -0.0897(12)
F12A F -0.2696(14) -0.2697(12) -0.0750(10)
O4A O -0.1669(2) -0.06203(17) -0.00638(14)
O5A O -0.1599(3) -0.6322(2) 0.57981(14)
C11A C -0.2146(4) -0.6875(3) 0.6567(2)
C12A C -0.3912(4) -0.6626(3) 0.6871(2)
C13A C -0.4300(5) -0.7848(4) 0.7108(3)
H3A H -0.3915 -0.8216 0.6556
H4A H -0.3798 -0.8404 0.7625
H5A H -0.5429 -0.7685 0.7290
C14A C -0.4495(5) -0.6075(4) 0.7729(3)
H6A H -0.4252 -0.5315 0.7587
H7A H -0.5624 -0.5912 0.7914
H8A H -0.3988 -0.6639 0.8241
C15A C -0.4690(6) -0.5807(5) 0.6048(4)
H9A H -0.4463 -0.5038 0.5877
H10A H -0.4287 -0.6205 0.5512
H11A H -0.5817 -0.5653 0.6228
C16A C -0.1067(3) -0.7756(3) 0.7178(2)
C17A C -0.1311(4) -0.8415(3) 0.8105(2)
H12A H -0.2309 -0.8372 0.8482
N1A N 0.0024(3) -0.9105(3) 0.83905(18)
N1A_2 N 0.0024(3) 0.0895(3) -0.16095(18)
N2A N 0.1162(3) -0.8906(2) 0.76390(17)
C18A C 0.2797(4) -0.9551(3) 0.7711(3)
H13A H 0.2857 -1.0067 0.8336
H14A H 0.3279 -1.0053 0.7239
H15A H 0.3348 -0.8963 0.7608
C19A C 0.0555(4) -0.8112(3) 0.6910(2)
H16A H 0.1125 -0.7841 0.6319
C20 C 0.1238 -0.1766 0.6633
H17 H 0.2146 -0.2330 0.6882
H18 H 0.1272 -0.0947 0.6517
H19 H 0.0304 -0.1842 0.7080
C21 C 0.1224 -0.2096 0.5578
H20 H 0.1077 -0.2868 0.5638
H21 H 0.2060 -0.1958 0.5066
C22 C -0.0340 -0.0971 0.5630
H23 H -0.1162 -0.1142 0.5472
C23 C 0.0000 0.0000 0.5000
H25 H 0.0118 0.0531 0.5329
C20A C -0.1238 0.1766 0.3367
H17A H -0.2146 0.2330 0.3118
H18A H -0.1272 0.0947 0.3483
H19A H -0.0304 0.1842 0.2920
C21A C -0.1224 0.2096 0.4422
H20A H -0.1077 0.2868 0.4362
H21A H -0.2060 0.1958 0.4934
C22A C 0.0340 0.0971 0.4370
H23A H 0.1162 0.1142 0.4528
H25A H -0.0118 -0.0531 0.4671
H22? H -0.0681 -0.0806 0.6256
H24? H 0.0976 -0.0280 0.4581
C24? C -0.1308 0.0707 0.4427
H26? H -0.2262 0.1083 0.4824
H27? H -0.1506 0.0172 0.4138
C25? C -0.0729 0.1632 0.3711
H28? H -0.0185 0.1960 0.3981
H29? H -0.1596 0.2290 0.3484
C26? C 0.0297 0.1102 0.2957
H30? H 0.0678 0.1711 0.2485
H31? H 0.1167 0.0451 0.3186
H32? H -0.0255 0.0783 0.2685
F13? F -0.2707(16) -0.3039(10) -0.0130(9)
F14? F -0.3999(15) -0.1458(13) 0.0309(13)
F15? F -0.334(2) -0.1335(19) -0.1101(10)
F16? F -0.395(3) -0.1567(13) 0.5151(11)
F17? F -0.3924(19) -0.1426(15) 0.6540(13)
F18? F -0.5059(12) -0.2498(14) 0.6281(13)
F19? F -0.006(3) -0.4468(8) 0.8246(10)
F20? F -0.137(2) -0.3861(17) 0.2155(12)
F21? F -0.089(2) -0.5926(16) 0.8380(7)
F22? F -0.387(3) 0.3631(19) 0.0084(16)
F23? F -0.2814(16) 0.4474(11) 0.0605(11)
F24? F -0.362(2) 0.306(2) 0.1513(15)
loop_
_geom_bond_atom_site_label_1
_geom_bond_atom_site_label_2
_geom_bond_site_symmetry_1
_geom_bond_site_symmetry_2
Cu1 O1 1_555 1_555
O1 C2 1_555 1_555
C1 F1 1_555 1_555
F2 C1 1_555 1_555
F3 C1 1_555 1_555
C2 C1 1_555 1_555
C3 C2 1_555 1_555
H1 C3 1_555 1_555
C4 C3 1_555 1_555
C5 C4 1_555 1_555
F4 C5 1_555 1_555
F5 C5 1_555 1_555
F6 C5 1_555 1_555
O2 Cu1 1_555 1_555
Cu2 O3 1_555 1_555
O3 C7 1_555 1_555
C6 F7 1_555 1_555
F8 C6 1_555 1_555
F9 C6 1_555 1_555
C7 C6 1_555 1_555
C8 C7 1_555 1_555
H2 C8 1_555 1_555
C9 C8 1_555 1_555
C10 C9 1_555 1_555
F10 C10 1_555 1_555
F11 C10 1_555 1_555
F12 C10 1_555 1_555
O4 Cu2 1_555 1_555
O5 Cu1 1_555 1_555
C11 O5 1_555 1_555
C12 C11 1_555 1_555
C13 C12 1_555 1_555
H3 C13 1_555 1_555
H4 C13 1_555 1_555
H5 C13 1_555 1_555
C14 C12 1_555 1_555
H6 C14 1_555 1_555
H7 C14 1_555 1_555
H8 C14 1_555 1_555
C15 C12 1_555 1_555
H9 C15 1_555 1_555
H10 C15 1_555 1_555
H11 C15 1_555 1_555
C16 C11 1_555 1_555
C17 C16 1_555 1_555
H12 C17 1_555 1_555
N1 Cu2 1_555 1_555
N2 N1 1_555 1_555
C18 N2 1_555 1_555
H13 C18 1_555 1_555
H14 C18 1_555 1_555
H15 C18 1_555 1_555
C19 C16 1_555 1_555
H16 C19 1_555 1_555
C20 H17 1_555 1_555
H18 C20 1_555 1_555
H19 C20 1_555 1_555
C21 C20 1_555 1_555
H20 C21 1_555 1_555
H21 C21 1_555 1_555
C22 C21 1_555 1_555
H23 C22 1_555 1_555
C23 C22 1_555 1_555
H25 C23 1_555 1_555
O1A Cu1 1_555 1_555
C1A F1A 1_555 1_555
F2A C1A 1_555 1_555
F3A C1A 1_555 1_555
C2A O1A 1_555 1_555
C3A C2A 1_555 1_555
H1A C3A 1_555 1_555
C4A C3A 1_555 1_555
C5A C4A 1_555 1_555
F4A C5A 1_555 1_555
F5A C5A 1_555 1_555
F6A C5A 1_555 1_555
O2A Cu1 1_555 1_555
Cu2_2 N1A 1_555 1_555
O3A Cu2 1_555 1_555
C6A F7A 1_555 1_555
F8A C6A 1_555 1_555
F9A C6A 1_555 1_555
C7A O3A 1_555 1_555
C8A C7A 1_555 1_555
H2A C8A 1_555 1_555
C9A C8A 1_555 1_555
C10A C9A 1_555 1_555
F10A C10A 1_555 1_555
F11A C10A 1_555 1_555
F12A C10A 1_555 1_555
O4A Cu2 1_555 1_555
O5A Cu1 1_555 1_555
C11A O5A 1_555 1_555
C12A C11A 1_555 1_555
C13A C12A 1_555 1_555
H3A C13A 1_555 1_555
H4A C13A 1_555 1_555
H5A C13A 1_555 1_555
C14A C12A 1_555 1_555
H6A C14A 1_555 1_555
H7A C14A 1_555 1_555
H8A C14A 1_555 1_555
C15A C12A 1_555 1_555
H9A C15A 1_555 1_555
H10A C15A 1_555 1_555
H11A C15A 1_555 1_555
C16A C11A 1_555 1_555
C17A C16A 1_555 1_555
H12A C17A 1_555 1_555
N1A C17A 1_555 1_555
N1A_2 Cu2 1_555 1_555
N2A N1A 1_555 1_555
C18A N2A 1_555 1_555
H13A C18A 1_555 1_555
H14A C18A 1_555 1_555
H15A C18A 1_555 1_555
C19A C16A 1_555 1_555
H16A C19A 1_555 1_555
C20A H17A 1_555 1_555
H18A C20A 1_555 1_555
H19A C20A 1_555 1_555
C21A C20A 1_555 1_555
H20A C21A 1_555 1_555
H21A C21A 1_555 1_555
C22A C23 1_555 1_555
H23A C22A 1_555 1_555
H25A C23 1_555 1_555
C4 O2 1_555 1_555
C9 O4 1_555 1_555
C17 N1 1_555 1_555
N2 C19 1_555 1_555
C1A C2A 1_555 1_555
C4A O2A 1_555 1_555
C6A C7A 1_555 1_555
C9A O4A 1_555 1_555
N2A C19A 1_555 1_555
C21A C22A 1_555 1_555

#END
