
#######################################################################
#
#                 Cambridge Crystallographic Data Centre
#                                CCDC 
#
#######################################################################
#
# If this CIF has been generated from an entry in the Cambridge 
# Structural Database, then it will include bibliographic, chemical, 
# crystal, experimental, refinement or atomic coordinate data resulting 
# from the CCDC's data processing and validation procedures.
#
#######################################################################

data_HECWUI
_symmetry_cell_setting           orthorhombic
_symmetry_space_group_name_H-M   'P b c a'
_symmetry_Int_Tables_number      61
_space_group_name_Hall           '-P 2ac 2ab'
loop_
_symmetry_equiv_pos_site_id
_symmetry_equiv_pos_as_xyz
1 x,y,z
2 1/2-x,-y,1/2+z
3 -x,1/2+y,1/2-z
4 1/2+x,1/2-y,-z
5 -x,-y,-z
6 1/2+x,y,1/2-z
7 x,1/2-y,1/2+z
8 1/2-x,1/2+y,z
_cell_length_a                   8.600(2)
_cell_length_b                   13.440(4)
_cell_length_c                   24.083(7)
_cell_angle_alpha                90
_cell_angle_beta                 90
_cell_angle_gamma                90
_cell_volume                     2783.61
loop_
_atom_site_label
_atom_site_type_symbol
_atom_site_fract_x
_atom_site_fract_y
_atom_site_fract_z
Mn1 Mn 0.10468(8) 0.89260(5) 0.49252(3)
N1 N -0.1357(4) 0.9507(3) 0.4818(2)
N2 N -0.2395(5) 0.9234(3) 0.4510(2)
N3 N -0.3387(5) 0.8985(4) 0.4224(2)
N4 N 0.0445(5) 0.7435(3) 0.4607(2)
N5 N -0.0542(5) 0.6891(3) 0.4766(2)
N6 N -0.1479(5) 0.6316(3) 0.4919(2)
N7 N 0.0444(5) 0.8372(3) 0.5807(2)
C1 C 0.1513(6) 0.8178(4) 0.6195(2)
H1 H 0.2541 0.8364 0.6135
C2 C 0.1117(6) 0.7708(4) 0.6685(2)
N8 N -0.0330(5) 0.7459(3) 0.6816(2)
C3 C -0.1398(6) 0.7666(4) 0.6428(2)
H2 H -0.2432 0.7508 0.6498
C4 C -0.1020(6) 0.8106(4) 0.5928(2)
H3 H -0.1800 0.8221 0.5668
Cl1 Cl 0.2552(2) 0.74382(11) 0.71661(5)
N9 N 0.1643(5) 0.9338(3) 0.4026(2)
C5 C 0.2985(6) 0.9781(4) 0.3893(2)
H4 H 0.3733 0.9890 0.4164
C6 C 0.3263(6) 1.0076(4) 0.3351(2)
N10 N 0.2283(5) 0.9929(3) 0.2940(2)
C7 C 0.0944(7) 0.9483(4) 0.3076(2)
H5 H 0.0213 0.9361 0.2799
C8 C 0.0617(6) 0.9199(4) 0.3613(2)
H6 H -0.0336 0.8904 0.3692
Cl2 Cl 0.4971(2) 1.06909(12) 0.31913(6)
Mn1D Mn -0.10468(8) 1.10740(5) 0.50748(3)
Mn1C Mn -0.39532(8) 0.60740(5) 0.50748(3)
N1D N 0.1357(4) 1.0493(3) 0.5182(2)
N6C N 0.3521(5) 0.8684(3) 0.5081(2)
loop_
_geom_bond_atom_site_label_1
_geom_bond_atom_site_label_2
_geom_bond_site_symmetry_1
_geom_bond_site_symmetry_2
Mn1 N1 1_555 1_555
N1 N2 1_555 1_555
N2 N3 1_555 1_555
N4 Mn1 1_555 1_555
N5 N4 1_555 1_555
N6 N5 1_555 1_555
N7 Mn1 1_555 1_555
C1 N7 1_555 1_555
H1 C1 1_555 1_555
C2 C1 1_555 1_555
N8 C2 1_555 1_555
C3 N8 1_555 1_555
H2 C3 1_555 1_555
C4 N7 1_555 1_555
H3 C4 1_555 1_555
Cl1 C2 1_555 1_555
N9 Mn1 1_555 1_555
C5 N9 1_555 1_555
H4 C5 1_555 1_555
C6 C5 1_555 1_555
N10 C6 1_555 1_555
C7 N10 1_555 1_555
H5 C7 1_555 1_555
C8 N9 1_555 1_555
H6 C8 1_555 1_555
Cl2 C6 1_555 1_555
Mn1D N1 1_555 1_555
Mn1C N6 1_555 1_555
N1D Mn1 1_555 1_555
N6C Mn1 1_555 1_555
C3 C4 1_555 1_555
C7 C8 1_555 1_555
Mn1D N1D 1_555 1_555

#END
