
#######################################################################
#
#                 Cambridge Crystallographic Data Centre
#                                CCDC 
#
#######################################################################
#
# If this CIF has been generated from an entry in the Cambridge 
# Structural Database, then it will include bibliographic, chemical, 
# crystal, experimental, refinement or atomic coordinate data resulting 
# from the CCDC's data processing and validation procedures.
#
#######################################################################

data_HECYAR01
_symmetry_cell_setting           orthorhombic
_symmetry_space_group_name_H-M   'F 2 2 2'
_symmetry_Int_Tables_number      22
_space_group_name_Hall           'F 2 2'
loop_
_symmetry_equiv_pos_site_id
_symmetry_equiv_pos_as_xyz
1 x,y,z
2 -x,-y,z
3 -x,y,-z
4 x,-y,-z
5 x,1/2+y,1/2+z
6 -x,1/2-y,1/2+z
7 -x,1/2+y,1/2-z
8 x,1/2-y,1/2-z
9 1/2+x,y,1/2+z
10 1/2-x,-y,1/2+z
11 1/2-x,y,1/2-z
12 1/2+x,-y,1/2-z
13 1/2+x,1/2+y,z
14 1/2-x,1/2-y,z
15 1/2-x,1/2+y,-z
16 1/2+x,1/2-y,-z
_cell_length_a                   12.252(4)
_cell_length_b                   22.160(9)
_cell_length_c                   23.571(9)
_cell_angle_alpha                90
_cell_angle_beta                 90
_cell_angle_gamma                90
_cell_volume                     6399.63
loop_
_atom_site_label
_atom_site_type_symbol
_atom_site_fract_x
_atom_site_fract_y
_atom_site_fract_z
Ni1 Ni 0.7500 0.976311(13) 0.7500
O1 O 0.77045(13) 0.90930(7) 0.68844(7)
O2 O 0.61036(12) 0.94991(7) 0.70220(6)
O3 O 0.5910(2) 0.71038(8) 0.47670(8)
S1 S 0.5000 0.74296(4) 0.5000
N1 N 0.68966(15) 1.04031(8) 0.80234(7)
N2 N 0.58689(15) 1.11390(8) 0.83371(8)
C1 C 0.67124(18) 0.91253(9) 0.67756(9)
C2 C 0.62577(19) 0.87074(9) 0.63340(9)
C3 C 0.6946(2) 0.85063(11) 0.59083(10)
H1 H 0.7671 0.8630 0.5900
C4 C 0.6550(2) 0.81202(12) 0.54956(11)
H2 H 0.6998 0.7995 0.5200
C5 C 0.5484(2) 0.79239(10) 0.55282(10)
C6 C 0.4810(2) 0.81198(11) 0.59444(10)
H3 H 0.4092 0.7985 0.5959
C7 C 0.5191(2) 0.85220(11) 0.63486(11)
H4 H 0.4725 0.8666 0.6629
C8 C 0.59791(19) 1.06996(9) 0.79532(9)
H5 H 0.5470 1.0614 0.7672
C9 C 0.7396(3) 1.06698(10) 0.84771(10)
H6 H 0.8065 1.0554 0.8628
C10 C 0.6772(2) 1.11275(12) 0.86731(12)
H7 H 0.6928 1.1383 0.8976
C11 C 0.49682(19) 1.15699(10) 0.83701(10)
H8 H 0.4985 1.1767 0.8738
H9 H 0.4283 1.1352 0.8341
C12 C 0.50086(19) 1.20422(9) 0.79147(10)
C13 C 0.5973(2) 1.22770(10) 0.77035(10)
H10 H 0.6635 1.2131 0.7839
C14 C 0.4040(2) 1.22717(10) 0.77002(10)
H11 H 0.3379 1.2116 0.7828
Ni1G Ni 0.7500 1.523689(13) 0.7500
Ni1B Ni 0.2500 0.976311(13) 0.2500
O1B O 0.22955(13) 0.90930(7) 0.31156(7)
O1J O 0.72955(13) 0.90930(7) 0.81156(7)
O2B O 0.38964(12) 0.94991(7) 0.29780(6)
O2J O 0.88964(12) 0.94991(7) 0.79780(6)
O3B O 0.4090(2) 0.71038(8) 0.52330(8)
N1G N 0.68966(15) 1.45969(8) 0.69766(7)
N1J N 0.81034(15) 1.04031(8) 0.69766(7)
N2G N 0.58689(15) 1.38610(8) 0.66629(8)
C1B C 0.32876(18) 0.91253(9) 0.32244(9)
C1J C 0.82876(18) 0.91253(9) 0.82244(9)
C2B C 0.37423(19) 0.87074(9) 0.36660(9)
C3B C 0.3054(2) 0.85063(11) 0.40917(10)
H1B H 0.2329 0.8630 0.4100
C4B C 0.3450(2) 0.81202(12) 0.45044(11)
H2B H 0.3002 0.7995 0.4800
C5B C 0.4516(2) 0.79239(10) 0.44718(10)
C6B C 0.5190(2) 0.81198(11) 0.40556(10)
H3B H 0.5908 0.7985 0.4041
C7B C 0.4809(2) 0.85220(11) 0.36514(11)
H4B H 0.5275 0.8666 0.3371
C8G C 0.59791(19) 1.43004(9) 0.70468(9)
H5G H 0.5470 1.4386 0.7328
C9G C 0.7396(3) 1.43302(10) 0.65229(10)
H6G H 0.8065 1.4446 0.6372
C10G C 0.6772(2) 1.38725(12) 0.63269(12)
H7G H 0.6928 1.3617 0.6024
C11G C 0.49682(19) 1.34301(10) 0.66299(10)
H8G H 0.4985 1.3233 0.6262
H9G H 0.4283 1.3648 0.6659
C12G C 0.50086(19) 1.29578(9) 0.70853(10)
C13G C 0.5973(2) 1.27230(10) 0.72965(10)
H10G H 0.6635 1.2869 0.7161
C14G C 0.4040(2) 1.27283(10) 0.72998(10)
H11G H 0.3379 1.2884 0.7172
loop_
_geom_bond_atom_site_label_1
_geom_bond_atom_site_label_2
_geom_bond_site_symmetry_1
_geom_bond_site_symmetry_2
Ni1 O1 1_555 1_555
O1 C1 1_555 1_555
O2 Ni1 1_555 1_555
O3 S1 1_555 1_555
S1 C5 1_555 1_555
N1 Ni1 1_555 1_555
N2 C8 1_555 1_555
C1 O2 1_555 1_555
C2 C1 1_555 1_555
C3 C2 1_555 1_555
H1 C3 1_555 1_555
C4 C3 1_555 1_555
H2 C4 1_555 1_555
C5 C4 1_555 1_555
C6 C5 1_555 1_555
H3 C6 1_555 1_555
C7 C2 1_555 1_555
H4 C7 1_555 1_555
C8 N1 1_555 1_555
H5 C8 1_555 1_555
C9 N1 1_555 1_555
H6 C9 1_555 1_555
C10 N2 1_555 1_555
H7 C10 1_555 1_555
C11 N2 1_555 1_555
H8 C11 1_555 1_555
H9 C11 1_555 1_555
C12 C11 1_555 1_555
C13 C12 1_555 1_555
H10 C13 1_555 1_555
C14 C12 1_555 1_555
H11 C14 1_555 1_555
Ni1G N1G 1_555 1_555
Ni1B O1B 1_555 1_555
O1B C1B 1_555 1_555
O1J Ni1 1_555 1_555
O2B Ni1B 1_555 1_555
O2J Ni1 1_555 1_555
O3B S1 1_555 1_555
N1G C8G 1_555 1_555
N1J Ni1 1_555 1_555
N2G C8G 1_555 1_555
C1B O2B 1_555 1_555
C1J O1J 1_555 1_555
C2B C1B 1_555 1_555
C3B C2B 1_555 1_555
H1B C3B 1_555 1_555
C4B C3B 1_555 1_555
H2B C4B 1_555 1_555
C5B S1 1_555 1_555
C6B C5B 1_555 1_555
H3B C6B 1_555 1_555
C7B C2B 1_555 1_555
H4B C7B 1_555 1_555
C8G H5G 1_555 1_555
C9G N1G 1_555 1_555
H6G C9G 1_555 1_555
C10G N2G 1_555 1_555
H7G C10G 1_555 1_555
C11G N2G 1_555 1_555
H8G C11G 1_555 1_555
H9G C11G 1_555 1_555
C12G C11G 1_555 1_555
C13G C13 1_555 1_555
H10G C13G 1_555 1_555
C14G C14 1_555 1_555
H11G C14G 1_555 1_555
C6 C7 1_555 1_555
C9 C10 1_555 1_555
O2J C1J 1_555 1_555
C4B C5B 1_555 1_555
C6B C7B 1_555 1_555
C9G C10G 1_555 1_555
C12G C13G 1_555 1_555
C12G C14G 1_555 1_555

#END
