
#######################################################################
#
#                 Cambridge Crystallographic Data Centre
#                                CCDC 
#
#######################################################################
#
# If this CIF has been generated from an entry in the Cambridge 
# Structural Database, then it will include bibliographic, chemical, 
# crystal, experimental, refinement or atomic coordinate data resulting 
# from the CCDC's data processing and validation procedures.
#
#######################################################################

data_HECYUL
_symmetry_cell_setting           triclinic
_symmetry_space_group_name_H-M   'P -1'
_symmetry_Int_Tables_number      2
_space_group_name_Hall           '-P 1'
loop_
_symmetry_equiv_pos_site_id
_symmetry_equiv_pos_as_xyz
1 x,y,z
2 -x,-y,-z
_cell_length_a                   6.9316(16)
_cell_length_b                   13.157(3)
_cell_length_c                   13.476(3)
_cell_angle_alpha                110.340(3)
_cell_angle_beta                 99.638(4)
_cell_angle_gamma                93.412(4)
_cell_volume                     1126.85
loop_
_atom_site_label
_atom_site_type_symbol
_atom_site_fract_x
_atom_site_fract_y
_atom_site_fract_z
Cd1 Cd 0.20907(4) 0.53586(2) 0.07976(2)
S1 S -0.38271(18) 0.11491(8) 0.36793(8)
O1 O 0.0616(5) 0.4247(3) 0.1477(3)
O2 O -0.2379(5) 0.3845(2) 0.0401(2)
O3 O -0.2563(5) 0.1534(2) 0.4743(2)
O4 O -0.0031(5) -0.3444(3) 0.1379(3)
O5 O -0.5938(5) 0.1119(2) 0.3577(3)
O6 O -0.2974(5) -0.3823(2) 0.0262(3)
N1 N 0.4388(5) 0.6122(3) 0.2268(3)
N2 N 0.7289(5) 0.6452(3) 0.3331(3)
C1 C -0.1113(7) 0.3785(3) 0.1165(4)
C2 C -0.1808(7) 0.3124(3) 0.1787(3)
C3 C -0.0429(7) 0.2856(4) 0.2510(4)
H1 H 0.0906 0.3085 0.2603
C4 C -0.1032(7) 0.2252(4) 0.3089(4)
H2 H -0.0116 0.2062 0.3561
C5 C -0.3051(7) 0.1934(3) 0.2947(3)
C6 C -0.4419(7) 0.2201(3) 0.2245(4)
H3 H -0.5756 0.1982 0.2162
C7 C -0.3802(7) 0.2795(3) 0.1659(4)
H4 H -0.4724 0.2974 0.1180
C8 C -0.3273(7) -0.0164(3) 0.2959(3)
C9 C -0.1434(7) -0.0446(4) 0.3251(4)
H5 H -0.0537 0.0030 0.3849
C10 C -0.0938(8) -0.1446(4) 0.2642(4)
H6 H 0.0293 -0.1646 0.2835
C11 C -0.2280(7) -0.2148(3) 0.1744(3)
C12 C -0.4136(7) -0.1861(3) 0.1475(3)
H7 H -0.5049 -0.2345 0.0889
C13 C -0.4637(7) -0.0862(3) 0.2072(4)
H8 H -0.5868 -0.0661 0.1881
C14 C -0.1717(7) -0.3228(3) 0.1069(4)
C15 C 0.6149(6) 0.5813(3) 0.2386(3)
H9 H 0.6554 0.5226 0.1879
C16 C 0.4377(7) 0.6991(3) 0.3205(3)
H10 H 0.3310 0.7374 0.3357
C17 C 0.6170(7) 0.7200(3) 0.3871(3)
H11 H 0.6561 0.7741 0.4554
C18 C 0.9340(7) 0.6355(4) 0.3702(4)
H12 H 1.0031 0.7081 0.4124
H13 H 0.9936 0.6057 0.3076
C19 C 0.9638(7) 0.5644(4) 0.4377(3)
C20 C 0.8088(7) 0.5164(4) 0.4657(4)
H14 H 0.6799 0.5271 0.4429
C21 C 1.1537(7) 0.5473(4) 0.4722(4)
H15 H 1.2583 0.5793 0.4535
Cd1A Cd -0.20907(4) -0.53586(2) -0.07976(2)
Cd1A_2 Cd -0.20907(4) 0.46414(2) -0.07976(2)
Cd1_2 Cd 0.20907(4) -0.46414(2) 0.07976(2)
Cd1A_3 Cd 1.79093(4) 0.46414(2) 0.92024(2)
S1A S 0.38271(18) -0.11491(8) -0.36793(8)
O1A O -0.0616(5) -0.4247(3) -0.1477(3)
O2A O 0.2379(5) -0.3845(2) -0.0401(2)
O2A_2 O 0.2379(5) 0.6155(2) -0.0401(2)
O2_2 O -0.2379(5) -0.6155(2) 0.0401(2)
O3A O 0.2563(5) -0.1534(2) -0.4743(2)
O4A O 0.0031(5) 0.3444(3) -0.1379(3)
O4_2 O -0.0031(5) 0.6556(3) 0.1379(3)
O4A_2 O 0.0031(5) -0.6556(3) -0.1379(3)
O5A O 0.5938(5) -0.1119(2) -0.3577(3)
O6A O 0.2974(5) 0.3823(2) -0.0262(3)
N1A N 1.5612(5) 0.3878(3) 0.7732(3)
N1A_2 N -0.4388(5) -0.6122(3) -0.2268(3)
N2A N 1.2711(5) 0.3548(3) 0.6669(3)
C1A C 0.1113(7) -0.3785(3) -0.1165(4)
C2A C 0.1808(7) -0.3124(3) -0.1787(3)
C3A C 0.0429(7) -0.2856(4) -0.2510(4)
H1A H -0.0906 -0.3085 -0.2603
C4A C 0.1032(7) -0.2252(4) -0.3089(4)
H2A H 0.0116 -0.2062 -0.3561
C5A C 0.3051(7) -0.1934(3) -0.2947(3)
C6A C 0.4419(7) -0.2201(3) -0.2245(4)
H3A H 0.5756 -0.1982 -0.2162
C7A C 0.3802(7) -0.2795(3) -0.1659(4)
H4A H 0.4724 -0.2974 -0.1180
C8A C 0.3273(7) 0.0164(3) -0.2959(3)
C9A C 0.1434(7) 0.0446(4) -0.3251(4)
H5A H 0.0537 -0.0030 -0.3849
C10A C 0.0938(8) 0.1446(4) -0.2642(4)
H6A H -0.0293 0.1646 -0.2835
C11A C 0.2280(7) 0.2148(3) -0.1744(3)
C12A C 0.4136(7) 0.1861(3) -0.1475(3)
H7A H 0.5049 0.2345 -0.0889
C13A C 0.4637(7) 0.0862(3) -0.2072(4)
H8A H 0.5868 0.0661 -0.1881
C14A C 0.1717(7) 0.3228(3) -0.1069(4)
C15A C 1.3851(6) 0.4187(3) 0.7614(3)
H9A H 1.3446 0.4774 0.8121
C16A C 1.5623(7) 0.3009(3) 0.6795(3)
H10A H 1.6690 0.2626 0.6643
C17A C 1.3830(7) 0.2800(3) 0.6129(3)
H11A H 1.3439 0.2259 0.5446
C18A C 1.0660(7) 0.3645(4) 0.6298(4)
H12A H 0.9969 0.2919 0.5876
H13A H 1.0064 0.3943 0.6924
C19A C 1.0362(7) 0.4356(4) 0.5623(3)
C20A C 1.1912(7) 0.4836(4) 0.5343(4)
H14A H 1.3201 0.4729 0.5571
C21A C 0.8463(7) 0.4527(4) 0.5278(4)
H15A H 0.7417 0.4207 0.5465
loop_
_geom_bond_atom_site_label_1
_geom_bond_atom_site_label_2
_geom_bond_site_symmetry_1
_geom_bond_site_symmetry_2
Cd1 O1 1_555 1_555
S1 O3 1_555 1_555
O1 C1 1_555 1_555
O2 C1 1_555 1_555
O4 C14 1_555 1_555
O5 S1 1_555 1_555
O6 C14 1_555 1_555
N1 Cd1 1_555 1_555
N2 C15 1_555 1_555
C1 C2 1_555 1_555
C2 C3 1_555 1_555
C3 H1 1_555 1_555
C4 C3 1_555 1_555
H2 C4 1_555 1_555
C5 S1 1_555 1_555
C6 C5 1_555 1_555
H3 C6 1_555 1_555
C7 C2 1_555 1_555
H4 C7 1_555 1_555
C8 S1 1_555 1_555
C9 C8 1_555 1_555
H5 C9 1_555 1_555
C10 C9 1_555 1_555
H6 C10 1_555 1_555
C11 C10 1_555 1_555
C12 C11 1_555 1_555
H7 C12 1_555 1_555
C13 C8 1_555 1_555
H8 C13 1_555 1_555
C14 C11 1_555 1_555
C15 N1 1_555 1_555
H9 C15 1_555 1_555
C16 N1 1_555 1_555
H10 C16 1_555 1_555
C17 N2 1_555 1_555
H11 C17 1_555 1_555
C18 N2 1_555 1_555
H12 C18 1_555 1_555
H13 C18 1_555 1_555
C19 C18 1_555 1_555
C20 C19 1_555 1_555
H14 C20 1_555 1_555
C21 C19 1_555 1_555
H15 C21 1_555 1_555
Cd1A O6 1_555 1_555
Cd1A_2 O2 1_555 1_555
Cd1_2 O4 1_555 1_555
Cd1A_3 N1A 1_555 1_555
S1A O3A 1_555 1_555
O1A Cd1A 1_555 1_555
O2A Cd1_2 1_555 1_555
O2A_2 Cd1 1_555 1_555
O2_2 Cd1A 1_555 1_555
O4A Cd1A_2 1_555 1_555
O4_2 Cd1 1_555 1_555
O4A_2 Cd1A 1_555 1_555
O5A S1A 1_555 1_555
O6A Cd1 1_555 1_555
N1A C15A 1_555 1_555
N1A_2 Cd1A 1_555 1_555
N2A C15A 1_555 1_555
C1A O1A 1_555 1_555
C2A C1A 1_555 1_555
C3A C2A 1_555 1_555
H1A C3A 1_555 1_555
C4A C3A 1_555 1_555
H2A C4A 1_555 1_555
C5A S1A 1_555 1_555
C6A C5A 1_555 1_555
H3A C6A 1_555 1_555
C7A C2A 1_555 1_555
H4A C7A 1_555 1_555
C8A S1A 1_555 1_555
C9A C8A 1_555 1_555
H5A C9A 1_555 1_555
C10A C9A 1_555 1_555
H6A C10A 1_555 1_555
C11A C10A 1_555 1_555
C12A C11A 1_555 1_555
H7A C12A 1_555 1_555
C13A C8A 1_555 1_555
H8A C13A 1_555 1_555
C14A O4A 1_555 1_555
C15A H9A 1_555 1_555
C16A N1A 1_555 1_555
H10A C16A 1_555 1_555
C17A N2A 1_555 1_555
H11A C17A 1_555 1_555
C18A N2A 1_555 1_555
H12A C18A 1_555 1_555
H13A C18A 1_555 1_555
C19A C18A 1_555 1_555
C20A C21 1_555 1_555
H14A C20A 1_555 1_555
C21A C20 1_555 1_555
H15A C21A 1_555 1_555
C4 C5 1_555 1_555
C6 C7 1_555 1_555
C12 C13 1_555 1_555
C16 C17 1_555 1_555
O2A C1A 1_555 1_555
O6A C14A 1_555 1_555
C4A C5A 1_555 1_555
C6A C7A 1_555 1_555
C11A C14A 1_555 1_555
C12A C13A 1_555 1_555
C16A C17A 1_555 1_555
C19A C20A 1_555 1_555
C19A C21A 1_555 1_555

#END
