
#######################################################################
#
#                 Cambridge Crystallographic Data Centre
#                                CCDC 
#
#######################################################################
#
# If this CIF has been generated from an entry in the Cambridge 
# Structural Database, then it will include bibliographic, chemical, 
# crystal, experimental, refinement or atomic coordinate data resulting 
# from the CCDC's data processing and validation procedures.
#
#######################################################################

data_HECYUJ
_symmetry_cell_setting           monoclinic
_symmetry_space_group_name_H-M   'C 2/c'
_symmetry_Int_Tables_number      15
_space_group_name_Hall           '-C 2yn'
loop_
_symmetry_equiv_pos_site_id
_symmetry_equiv_pos_as_xyz
1 x,y,z
2 1/2+x,1/2+y,z
3 -x,y,1/2-z
4 1/2-x,1/2+y,1/2-z
5 -x,-y,-z
6 1/2-x,1/2-y,-z
7 x,-y,1/2+z
8 1/2+x,1/2-y,1/2+z
_cell_length_a                   11.099(2)
_cell_length_b                   19.106(2)
_cell_length_c                   12.558(2)
_cell_angle_alpha                90
_cell_angle_beta                 104.10(1)
_cell_angle_gamma                90
_cell_volume                     2582.79
loop_
_atom_site_label
_atom_site_type_symbol
_atom_site_fract_x
_atom_site_fract_y
_atom_site_fract_z
Cu1 Cu 1.0000 0.20632(6) 0.2500
Cu2 Cu 0.5000 0.13811(5) 0.2500
O5 O 1.0000 0.0967(3) 0.2500
N1 N 0.8258(3) 0.2309(2) 0.2061(3)
N2 N 0.6189(3) 0.2044(2) 0.2049(3)
C1 C 0.7420(4) 0.1940(2) 0.2358(4)
C2 C 0.5790(4) 0.2578(2) 0.1373(4)
C3 C 0.6616(4) 0.3015(2) 0.1004(4)
C4 C 0.6223(5) 0.3585(3) 0.0290(5)
C5 C 0.7095(6) 0.4016(3) 0.0026(5)
C6 C 0.8367(5) 0.3864(3) 0.0401(4)
C7 C 0.8764(4) 0.3312(3) 0.1068(4)
C8 C 0.7884(4) 0.2875(2) 0.1383(4)
C9 C 1.0000 0.0341(4) 0.2500
C10 C 1.0667(7) -0.0071(4) 0.1843(6)
C11 C 0.5520(5) 0.0379(3) 0.2347(6)
H1 H 0.7735 0.1535 0.2823
H2 H 0.4796 0.2639 0.1108
H3 H 0.5269 0.3694 -0.0090
H4 H 0.6862 0.4331 -0.0587
H5 H 0.8966 0.4161 0.0203
H6 H 0.9668 0.3195 0.1343
H7 H 1.0585 -0.0552 0.1943
H8 H 1.1543 0.0042 0.2059
H9 H 1.0378 0.0046 0.1082
H10 H 0.5563 0.0289 0.1611
H11 H 0.6352 0.0307 0.2814
C10B C 0.9333(7) -0.0071(4) 0.3157(6)
H7B H 0.9415 -0.0552 0.3057
H8B H 0.8457 0.0042 0.2941
H9B H 0.9622 0.0046 0.3918
N2B N 0.3811(3) 0.2044(2) 0.2951(3)
C11B C 0.4480(5) 0.0379(3) 0.2653(6)
H10B H 0.4437 0.0289 0.3389
H11B H 0.3648 0.0307 0.2186
N1B N 1.1742(3) 0.2309(2) 0.2939(3)
C1B C 1.2580(4) 0.1940(2) 0.2642(4)
C8B C 1.2116(4) 0.2875(2) 0.3617(4)
N2B_2 N 1.3811(3) 0.2044(2) 0.2951(3)
H1B H 1.2265 0.1535 0.2177
C3B C 1.3384(4) 0.3015(2) 0.3996(4)
C7B C 1.1236(4) 0.3312(3) 0.3932(4)
Cu2_2 Cu 1.5000 0.13811(5) 0.2500
C2B C 1.4210(4) 0.2578(2) 0.3627(4)
C4B C 1.3777(5) 0.3585(3) 0.4710(5)
C6B C 1.1633(5) 0.3864(3) 0.4599(4)
H6B H 1.0332 0.3195 0.3657
H2B H 1.5204 0.2639 0.3892
C5B C 1.2905(6) 0.4016(3) 0.4974(5)
H3B H 1.4731 0.3694 0.5090
H5B H 1.1034 0.4161 0.4797
H4B H 1.3138 0.4331 0.5587
Cl1 Cl 0.7235(1) 0.12242(6) 0.5419(1)
O1 O 0.6315(6) 0.1593(4) 0.4701(6)
O2 O 0.8119(6) 0.1059(5) 0.4853(6)
O3 O 0.6789(8) 0.0597(4) 0.5680(8)
O4 O 0.781(1) 0.1585(4) 0.6324(6)
loop_
_geom_bond_atom_site_label_1
_geom_bond_atom_site_label_2
_geom_bond_site_symmetry_1
_geom_bond_site_symmetry_2
Cu1 O5 1_555 1_555
Cu2 N2 1_555 1_555
Cl1 O1 1_555 1_555
O2 Cl1 1_555 1_555
O3 Cl1 1_555 1_555
O4 Cl1 1_555 1_555
O5 C9 1_555 1_555
N1 Cu1 1_555 1_555
N2 C1 1_555 1_555
C1 N1 1_555 1_555
C2 N2 1_555 1_555
C3 C2 1_555 1_555
C4 C3 1_555 1_555
C5 C4 1_555 1_555
C6 C5 1_555 1_555
C7 C6 1_555 1_555
C8 N1 1_555 1_555
C9 C10 1_555 1_555
C10 H7 1_555 1_555
C11 Cu2 1_555 1_555
H1 C1 1_555 1_555
H2 C2 1_555 1_555
H3 C4 1_555 1_555
H4 C5 1_555 1_555
H5 C6 1_555 1_555
H6 C7 1_555 1_555
H8 C10 1_555 1_555
H9 C10 1_555 1_555
H10 C11 1_555 1_555
H11 C11 1_555 1_555
C10B C9 1_555 1_555
H7B C10B 1_555 1_555
H8B C10B 1_555 1_555
H9B C10B 1_555 1_555
N2B Cu2 1_555 1_555
C11B Cu2 1_555 1_555
H10B C11B 1_555 1_555
H11B C11B 1_555 1_555
N1B Cu1 1_555 1_555
C1B N1B 1_555 1_555
C8B N1B 1_555 1_555
N2B_2 C1B 1_555 1_555
H1B C1B 1_555 1_555
C3B C8B 1_555 1_555
C7B C8B 1_555 1_555
Cu2_2 N2B_2 1_555 1_555
C2B N2B_2 1_555 1_555
C4B C3B 1_555 1_555
C6B C7B 1_555 1_555
H6B C7B 1_555 1_555
H2B C2B 1_555 1_555
C5B C4B 1_555 1_555
H3B C4B 1_555 1_555
H5B C6B 1_555 1_555
H4B C5B 1_555 1_555
C3 C8 1_555 1_555
C7 C8 1_555 1_555
C11 C11B 1_555 1_555
C3B C2B 1_555 1_555
C6B C5B 1_555 1_555

#END
