
#######################################################################
#
#                 Cambridge Crystallographic Data Centre
#                                CCDC 
#
#######################################################################
#
# If this CIF has been generated from an entry in the Cambridge 
# Structural Database, then it will include bibliographic, chemical, 
# crystal, experimental, refinement or atomic coordinate data resulting 
# from the CCDC's data processing and validation procedures.
#
#######################################################################

data_HECYOD
_symmetry_cell_setting           monoclinic
_symmetry_space_group_name_H-M   'C 2/c'
_symmetry_Int_Tables_number      15
_space_group_name_Hall           '-C 2yn'
loop_
_symmetry_equiv_pos_site_id
_symmetry_equiv_pos_as_xyz
1 x,y,z
2 1/2+x,1/2+y,z
3 -x,y,1/2-z
4 1/2-x,1/2+y,1/2-z
5 -x,-y,-z
6 1/2-x,1/2-y,-z
7 x,-y,1/2+z
8 1/2+x,1/2-y,1/2+z
_cell_length_a                   13.483(5)
_cell_length_b                   20.384(3)
_cell_length_c                   7.278(7)
_cell_angle_alpha                90
_cell_angle_beta                 98.90(5)
_cell_angle_gamma                90
_cell_volume                     1976.18
loop_
_atom_site_label
_atom_site_type_symbol
_atom_site_fract_x
_atom_site_fract_y
_atom_site_fract_z
Cl1 Cl 1.5000 0.3541(2) 0.7500
O3 O 1.4137(9) 0.3155(5) 0.715(2)
O4 O 1.4960(7) 0.3968(4) 0.901(1)
O3B O 1.5863(9) 0.3155(5) 0.785(2)
O4B O 1.5040(7) 0.3968(4) 0.599(1)
Ag1 Ag 1.0000 0.15693(5) 0.7500
Ag2 Ag 1.5000 0.19300(5) 0.7500
Cl2 Cl 1.0000 0.3213(2) 0.7500
S1 S 1.2454(2) 0.2016(1) 0.7526(4)
O1 O 0.989(2) 0.3754(9) 0.869(3)
O2 O 1.043(3) 0.275(1) 0.890(3)
O5 O 0.926(4) 0.340(2) 0.845(5)
O6 O 1.092(2) 0.302(2) 0.801(6)
N1 N 1.3393(5) 0.1582(4) 0.705(1)
N2 N 1.1645(5) 0.1441(3) 0.747(1)
C1 C 1.2081(6) 0.0864(4) 0.709(1)
C2 C 1.1658(7) 0.0245(5) 0.698(1)
C3 C 1.2250(9) -0.0273(5) 0.662(1)
C4 C 1.3251(8) -0.0176(5) 0.635(1)
C5 C 1.3670(6) 0.0426(5) 0.642(1)
C6 C 1.3093(6) 0.0956(4) 0.682(1)
H1 H 1.0958 0.0179 0.7138
H2 H 1.1969 -0.0718 0.6553
H3 H 1.3646 -0.0557 0.6105
H4 H 1.4359 0.0487 0.6187
O1B O 1.011(2) 0.3754(9) 0.631(3)
O5B O 1.074(4) 0.340(2) 0.655(5)
O2B O 0.957(3) 0.275(1) 0.610(3)
O6B O 0.908(2) 0.302(2) 0.699(6)
S1B S 0.7546(2) 0.2016(1) 0.7474(4)
N1B N 0.6607(5) 0.1582(4) 0.795(1)
N2B N 0.8355(5) 0.1441(3) 0.753(1)
C1B C 0.7919(6) 0.0864(4) 0.791(1)
C2B C 0.8342(7) 0.0245(5) 0.802(1)
C3B C 0.7750(9) -0.0273(5) 0.838(1)
C4B C 0.6749(8) -0.0176(5) 0.865(1)
C5B C 0.6330(6) 0.0426(5) 0.858(1)
C6B C 0.6907(6) 0.0956(4) 0.818(1)
H1B H 0.9042 0.0179 0.7862
H2B H 0.8031 -0.0718 0.8447
H3B H 0.6354 -0.0557 0.8895
H4B H 0.5641 0.0487 0.8813
N1B_2 N 1.6607(5) 0.1582(4) 0.795(1)
Ag2_2 Ag 0.5000 0.19300(5) 0.7500
loop_
_geom_bond_atom_site_label_1
_geom_bond_atom_site_label_2
_geom_bond_site_symmetry_1
_geom_bond_site_symmetry_2
Ag1 O2 1_555 1_555
Ag2 N1 1_555 1_555
Cl1 O3 1_555 1_555
Cl2 O1 1_555 1_555
S1 N1 1_555 1_555
O1 O5 1_555 1_555
O2 Cl2 1_555 1_555
O4 Cl1 1_555 1_555
O5 Cl2 1_555 1_555
O6 Cl2 1_555 1_555
N1 C6 1_555 1_555
N2 Ag1 1_555 1_555
C1 N2 1_555 1_555
C2 C1 1_555 1_555
C3 C2 1_555 1_555
C4 C3 1_555 1_555
C5 C4 1_555 1_555
C6 C1 1_555 1_555
H1 C2 1_555 1_555
H2 C3 1_555 1_555
H3 C4 1_555 1_555
H4 C5 1_555 1_555
O3B Cl1 1_555 1_555
O4B Cl1 1_555 1_555
O1B Cl2 1_555 1_555
O5B Cl2 1_555 1_555
O2B Ag1 1_555 1_555
O6B Cl2 1_555 1_555
S1B N1B 1_555 1_555
N1B C6B 1_555 1_555
N2B Ag1 1_555 1_555
C1B N2B 1_555 1_555
C2B C1B 1_555 1_555
C3B C2B 1_555 1_555
C4B C3B 1_555 1_555
C5B C4B 1_555 1_555
C6B C1B 1_555 1_555
H1B C2B 1_555 1_555
H2B C3B 1_555 1_555
H3B C4B 1_555 1_555
H4B C5B 1_555 1_555
N1B_2 Ag2 1_555 1_555
Ag2_2 N1B 1_555 1_555
Cl2 O2B 1_555 1_555
S1 N2 1_555 1_555
O2 O6 1_555 1_555
O5 O6B 1_555 1_555
O6 O5B 1_555 1_555
C5 C6 1_555 1_555
O1B O5B 1_555 1_555
O2B O6B 1_555 1_555
S1B N2B 1_555 1_555
C5B C6B 1_555 1_555

#END
