
#######################################################################
#
#                 Cambridge Crystallographic Data Centre
#                                CCDC 
#
#######################################################################
#
# If this CIF has been generated from an entry in the Cambridge 
# Structural Database, then it will include bibliographic, chemical, 
# crystal, experimental, refinement or atomic coordinate data resulting 
# from the CCDC's data processing and validation procedures.
#
#######################################################################

data_HEDCUQ
_symmetry_cell_setting           tetragonal
_symmetry_space_group_name_H-M   'I 41/a'
_symmetry_Int_Tables_number      88
_space_group_name_Hall           '-I 4ad'
loop_
_symmetry_equiv_pos_site_id
_symmetry_equiv_pos_as_xyz
1 x,y,z
2 -x,1/2-y,z
3 3/4-y,1/4+x,1/4+z
4 1/4+y,1/4-x,1/4+z
5 1/2+x,1/2+y,1/2+z
6 1/2-x,-y,1/2+z
7 1/4-y,3/4+x,3/4+z
8 3/4+y,3/4-x,3/4+z
9 -x,-y,-z
10 x,1/2+y,-z
11 1/4+y,3/4-x,3/4-z
12 3/4-y,3/4+x,3/4-z
13 1/2-x,1/2-y,1/2-z
14 1/2+x,y,1/2-z
15 3/4+y,1/4-x,1/4-z
16 1/4-y,1/4+x,1/4-z
_cell_length_a                   19.449(5)
_cell_length_b                   19.449(5)
_cell_length_c                   23.283(5)
_cell_angle_alpha                90
_cell_angle_beta                 90
_cell_angle_gamma                90
_cell_volume                     8807.11
loop_
_atom_site_label
_atom_site_type_symbol
_atom_site_fract_x
_atom_site_fract_y
_atom_site_fract_z
Mg1 Mg 0.5000 0.2500 0.3750
Mg2 Mg 0.5000 0.2500 0.8750
O1 O 0.57922(9) -0.02165(9) 0.34314(9)
O2 O 0.52155(9) -0.02646(9) 0.42282(8)
O3 O 0.29820(9) 0.06550(9) 0.81581(10)
O4 O 0.28537(9) 0.06406(9) 0.90887(10)
N1 N 0.43943(9) 0.16140(9) 0.37470(8)
N2 N 0.54516(10) 0.00507(10) 0.38144(10)
N3 N 0.5000 0.2500 0.47203(11)
N4 N 0.49387(9) 0.14219(9) 0.87640(8)
N5 N 0.31349(10) 0.08358(10) 0.86462(11)
N6 N 0.5000 0.2500 0.77743(11)
C1 C 0.37124(11) 0.16110(11) 0.36104(10)
C2 C 0.35165(11) 0.09431(11) 0.33740(10)
C3 C 0.40833(12) 0.05323(11) 0.34195(10)
C4 C 0.46303(11) 0.09661(11) 0.36504(10)
C5 C 0.53164(12) 0.07942(11) 0.37813(10)
C6 C 0.28707(12) 0.07660(13) 0.30494(12)
H1 H 0.2467 0.0918 0.3275
H2 H 0.2841 0.0261 0.3005
C7 C 0.28471(14) 0.11026(14) 0.24535(12)
H3 H 0.2418 0.0975 0.2260
H4 H 0.3239 0.0944 0.2225
H5 H 0.2869 0.1604 0.2495
C8 C 0.41258(13) -0.01971(12) 0.32021(11)
H6 H 0.3659 -0.0400 0.3199
H7 H 0.4412 -0.0471 0.3469
C9 C 0.44285(15) -0.02443(14) 0.26035(12)
H8 H 0.4430 -0.0725 0.2478
H9 H 0.4901 -0.0068 0.2608
H10 H 0.4150 0.0030 0.2338
C10 C 0.50149(13) 0.19164(12) 0.50253(10)
H11 H 0.5020 0.1493 0.4822
C11 C 0.50229(12) 0.18931(12) 0.56177(10)
H12 H 0.5044 0.1463 0.5811
C12 C 0.5000 0.2500 0.59298(14)
C13 C 0.5000 0.2500 0.65638(14)
C14 C 0.52901(11) 0.30366(11) 0.68769(10)
H13 H 0.5490 0.3418 0.6684
C15 C 0.52846(11) 0.30105(12) 0.74687(10)
H14 H 0.5496 0.3377 0.7673
C16 C 0.54768(12) 0.09753(11) 0.88186(10)
C17 C 0.52204(12) 0.02660(12) 0.88635(10)
C18 C 0.45232(12) 0.03033(12) 0.88085(11)
C19 C 0.43511(12) 0.10349(11) 0.87538(10)
C20 C 0.37012(11) 0.13384(12) 0.86987(10)
C21 C 0.55943(13) -0.04057(12) 0.89772(12)
H15 H 0.6066 -0.0374 0.8819
H16 H 0.5354 -0.0781 0.8772
C22 C 0.56377(14) -0.05868(15) 0.96150(13)
H17 H 0.5873 -0.1029 0.9661
H18 H 0.5173 -0.0619 0.9775
H19 H 0.5895 -0.0228 0.9818
C23 C 0.40742(13) -0.03314(13) 0.87869(12)
H20 H 0.3603 -0.0209 0.8911
H21 H 0.4256 -0.0678 0.9059
C24 C 0.40435(14) -0.06466(14) 0.81839(14)
H22 H 0.3754 -0.1059 0.8191
H23 H 0.4509 -0.0771 0.8060
H24 H 0.3849 -0.0311 0.7915
Mg2_2 Mg 0.5000 0.2500 -0.1250
O1J O 0.22835(9) 0.17078(9) 0.40686(9)
O1K O 0.77165(9) 0.32922(9) 0.40686(9)
O1A O 0.42078(9) 0.52165(9) 0.34314(9)
O2J O 0.22354(9) 0.22845(9) 0.32718(8)
O2K O 0.77646(9) 0.27155(9) 0.32718(8)
O2A O 0.47845(9) 0.52646(9) 0.42282(8)
O3J O 0.31550(9) 0.45180(9) 0.93419(10)
O3K O 0.68450(9) 0.04820(9) 0.93419(10)
O3A O 0.70180(9) 0.43450(9) 0.81581(10)
O4J O 0.31406(9) 0.46463(9) 0.84113(10)
O4K O 0.68594(9) 0.03537(9) 0.84113(10)
O4A O 0.71463(9) 0.43594(9) 0.90887(10)
N1J N 0.41140(9) 0.31057(9) 0.37530(8)
N1K N 0.58860(9) 0.18943(9) 0.37530(8)
N1A N 0.56057(9) 0.33860(9) 0.37470(8)
N2J N 0.25507(10) 0.20484(10) 0.36856(10)
N2K N 0.74493(10) 0.29516(10) 0.36856(10)
N2A N 0.45484(10) 0.49493(10) 0.38144(10)
N3J N 0.5000 0.2500 0.27797(11)
N4J N 0.39219(9) 0.25613(9) 0.87360(8)
N4K N 0.60781(9) 0.24387(9) 0.87360(8)
N4A N 0.50613(9) 0.35781(9) 0.87640(8)
N5J N 0.33358(10) 0.43651(10) 0.88538(11)
N5K N 0.66642(10) 0.06349(10) 0.88538(11)
N5A N 0.68651(10) 0.41642(10) 0.86462(11)
N6J N 0.5000 0.2500 -0.02743(11)
N6J_2 N 0.5000 0.2500 0.97257(11)
C1J C 0.41110(11) 0.37876(11) 0.38896(10)
C1K C 0.58890(11) 0.12124(11) 0.38896(10)
C1A C 0.62876(11) 0.33890(11) 0.36104(10)
C2J C 0.34431(11) 0.39835(11) 0.41260(10)
C2K C 0.65569(11) 0.10165(11) 0.41260(10)
C2A C 0.64835(11) 0.40569(11) 0.33740(10)
C3J C 0.30323(11) 0.34167(12) 0.40805(10)
C3K C 0.69677(11) 0.15833(12) 0.40805(10)
C3A C 0.59167(12) 0.44677(11) 0.34195(10)
C4J C 0.34661(11) 0.28697(11) 0.38496(10)
C4K C 0.65339(11) 0.21303(11) 0.38496(10)
C4A C 0.53697(11) 0.40339(11) 0.36504(10)
C5J C 0.32942(11) 0.21836(12) 0.37187(10)
C5K C 0.67058(11) 0.28164(12) 0.37187(10)
C5A C 0.46836(12) 0.42058(11) 0.37813(10)
C6J C 0.32660(13) 0.46293(12) 0.44506(12)
C6K C 0.67340(13) 0.03707(12) 0.44506(12)
C6A C 0.71293(12) 0.42340(13) 0.30494(12)
H1J H 0.3418 0.5033 0.4225
H1K H 0.6582 -0.0033 0.4225
H1A H 0.7533 0.4082 0.3275
H2J H 0.2761 0.4659 0.4495
H2K H 0.7239 0.0341 0.4495
H2A H 0.7159 0.4739 0.3005
C7J C 0.36026(14) 0.46529(14) 0.50465(12)
C7K C 0.63974(14) 0.03471(14) 0.50465(12)
C7A C 0.71529(14) 0.38974(14) 0.24535(12)
H3J H 0.3475 0.5082 0.5240
H3K H 0.6525 -0.0082 0.5240
H3A H 0.7582 0.4025 0.2260
H4J H 0.3444 0.4261 0.5275
H4K H 0.6556 0.0739 0.5275
H4A H 0.6761 0.4056 0.2225
H5J H 0.4104 0.4631 0.5005
H5K H 0.5896 0.0369 0.5005
H5A H 0.7131 0.3396 0.2495
C8J C 0.23029(12) 0.33742(13) 0.42979(11)
C8K C 0.76971(12) 0.16258(13) 0.42979(11)
C8A C 0.58742(13) 0.51971(12) 0.32021(11)
H6J H 0.2100 0.3841 0.4301
H6K H 0.7900 0.1159 0.4301
H6A H 0.6341 0.5400 0.3199
H7J H 0.2029 0.3088 0.4031
H7K H 0.7971 0.1912 0.4031
H7A H 0.5588 0.5471 0.3469
C9J C 0.22557(14) 0.30715(15) 0.48965(12)
C9K C 0.77443(14) 0.19285(15) 0.48965(12)
C9A C 0.55715(15) 0.52443(14) 0.26035(12)
H8J H 0.1775 0.3070 0.5022
H8K H 0.8225 0.1930 0.5022
H8A H 0.5570 0.5725 0.2478
H9J H 0.2432 0.2599 0.4892
H9K H 0.7568 0.2401 0.4892
H9A H 0.5099 0.5068 0.2608
H10J H 0.2530 0.3350 0.5162
H10K H 0.7470 0.1650 0.5162
H10A H 0.5850 0.4970 0.2338
C10A C 0.49851(13) 0.30836(12) 0.50253(10)
C10J C 0.44164(12) 0.24851(13) 0.24747(10)
C10K C 0.55836(12) 0.25149(13) 0.24747(10)
H11A H 0.4980 0.3507 0.4822
H11J H 0.3993 0.2480 0.2678
H11K H 0.6007 0.2520 0.2678
C11A C 0.49771(12) 0.31069(12) 0.56177(10)
C11J C 0.43931(12) 0.24771(12) 0.18823(10)
C11K C 0.56069(12) 0.25229(12) 0.18823(10)
H12A H 0.4956 0.3537 0.5811
H12J H 0.3963 0.2456 0.1689
H12K H 0.6037 0.2544 0.1689
C12J C 0.5000 0.2500 0.15702(14)
C13J C 0.5000 0.2500 0.09362(14)
C14A C 0.47099(11) 0.19634(11) 0.68769(10)
C14J C 0.55366(11) 0.22099(11) 0.06231(10)
C14K C 0.44634(11) 0.27901(11) 0.06231(10)
H13A H 0.4510 0.1582 0.6684
H13J H 0.5918 0.2010 0.0816
H13K H 0.4082 0.2990 0.0816
C15A C 0.47154(11) 0.19895(12) 0.74687(10)
C15J C 0.55105(12) 0.22154(11) 0.00313(10)
C15K C 0.44895(12) 0.27846(11) 0.00313(10)
H14A H 0.4504 0.1623 0.7673
H14J H 0.5877 0.2004 -0.0173
H14K H 0.4123 0.2996 -0.0173
C16J C 0.34753(11) 0.20232(12) 0.86814(10)
C16K C 0.65247(11) 0.29768(12) 0.86814(10)
C16A C 0.45232(12) 0.40247(11) 0.88186(10)
C17J C 0.27660(12) 0.22796(12) 0.86365(10)
C17K C 0.72340(12) 0.27204(12) 0.86365(10)
C17A C 0.47796(12) 0.47340(12) 0.88635(10)
C18J C 0.28033(12) 0.29768(12) 0.86915(11)
C18K C 0.71967(12) 0.20232(12) 0.86915(11)
C18A C 0.54768(12) 0.46967(12) 0.88085(11)
C19J C 0.35349(11) 0.31489(12) 0.87462(10)
C19K C 0.64651(11) 0.18511(12) 0.87462(10)
C19A C 0.56489(12) 0.39651(11) 0.87538(10)
C20J C 0.38384(12) 0.37988(11) 0.88013(10)
C20K C 0.61616(12) 0.12012(11) 0.88013(10)
C20A C 0.62988(11) 0.36616(12) 0.86987(10)
C21J C 0.20943(12) 0.19057(13) 0.85228(12)
C21K C 0.79057(12) 0.30943(13) 0.85228(12)
C21A C 0.44057(13) 0.54057(12) 0.89772(12)
H15J H 0.2126 0.1434 0.8681
H15K H 0.7874 0.3566 0.8681
H15A H 0.3934 0.5374 0.8819
H16J H 0.1719 0.2146 0.8728
H16K H 0.8281 0.2854 0.8728
H16A H 0.4646 0.5781 0.8772
C22J C 0.19132(15) 0.18623(14) 0.78850(13)
C22K C 0.80868(15) 0.31377(14) 0.78850(13)
C22A C 0.43623(14) 0.55868(15) 0.96150(13)
H17J H 0.1471 0.1627 0.7839
H17K H 0.8529 0.3373 0.7839
H17A H 0.4127 0.6029 0.9661
H18J H 0.1881 0.2327 0.7725
H18K H 0.8119 0.2673 0.7725
H18A H 0.4827 0.5619 0.9775
H19J H 0.2272 0.1605 0.7682
H19K H 0.7728 0.3395 0.7682
H19A H 0.4105 0.5228 0.9818
C23J C 0.21686(13) 0.34258(13) 0.87131(12)
C23K C 0.78314(13) 0.15742(13) 0.87131(12)
C23A C 0.59258(13) 0.53314(13) 0.87869(12)
H20J H 0.2291 0.3897 0.8589
H20K H 0.7709 0.1103 0.8589
H20A H 0.6397 0.5209 0.8911
H21J H 0.1822 0.3244 0.8441
H21K H 0.8178 0.1756 0.8441
H21A H 0.5744 0.5678 0.9059
C24J C 0.18534(14) 0.34565(14) 0.93161(14)
C24K C 0.81466(14) 0.15435(14) 0.93161(14)
C24A C 0.59565(14) 0.56466(14) 0.81839(14)
H22J H 0.1441 0.3746 0.9309
H22K H 0.8559 0.1254 0.9309
H22A H 0.6246 0.6059 0.8191
H23J H 0.1729 0.2991 0.9440
H23K H 0.8271 0.2009 0.9440
H23A H 0.5491 0.5771 0.8060
H24J H 0.2189 0.3651 0.9585
H24K H 0.7811 0.1349 0.9585
H24A H 0.6151 0.5311 0.7915
loop_
_geom_bond_atom_site_label_1
_geom_bond_atom_site_label_2
_geom_bond_site_symmetry_1
_geom_bond_site_symmetry_2
Mg1 N1 1_555 1_555
Mg2 N4 1_555 1_555
O1 N2 1_555 1_555
O2 N2 1_555 1_555
O3 N5 1_555 1_555
O4 N5 1_555 1_555
N1 C1 1_555 1_555
N2 C5 1_555 1_555
N3 Mg1 1_555 1_555
N4 C16 1_555 1_555
N5 C20 1_555 1_555
N6 Mg2 1_555 1_555
C1 C2 1_555 1_555
C2 C3 1_555 1_555
C3 C4 1_555 1_555
C4 N1 1_555 1_555
C5 C4 1_555 1_555
C6 C2 1_555 1_555
H1 C6 1_555 1_555
H2 C6 1_555 1_555
C7 C6 1_555 1_555
H3 C7 1_555 1_555
H4 C7 1_555 1_555
H5 C7 1_555 1_555
C8 C3 1_555 1_555
H6 C8 1_555 1_555
H7 C8 1_555 1_555
C9 C8 1_555 1_555
H8 C9 1_555 1_555
H9 C9 1_555 1_555
H10 C9 1_555 1_555
C10 N3 1_555 1_555
H11 C10 1_555 1_555
C11 C10 1_555 1_555
H12 C11 1_555 1_555
C12 C11 1_555 1_555
C13 C12 1_555 1_555
C14 C13 1_555 1_555
H13 C14 1_555 1_555
C15 N6 1_555 1_555
H14 C15 1_555 1_555
C16 C17 1_555 1_555
C17 C18 1_555 1_555
C18 C19 1_555 1_555
C19 N4 1_555 1_555
C20 C19 1_555 1_555
C21 C17 1_555 1_555
H15 C21 1_555 1_555
H16 C21 1_555 1_555
C22 C21 1_555 1_555
H17 C22 1_555 1_555
H18 C22 1_555 1_555
H19 C22 1_555 1_555
C23 C18 1_555 1_555
H20 C23 1_555 1_555
H21 C23 1_555 1_555
C24 C23 1_555 1_555
H22 C24 1_555 1_555
H23 C24 1_555 1_555
H24 C24 1_555 1_555
Mg2_2 N6J 1_555 1_555
O1J N2J 1_555 1_555
O1K N2K 1_555 1_555
O1A N2A 1_555 1_555
O2J N2J 1_555 1_555
O2K N2K 1_555 1_555
O2A N2A 1_555 1_555
O3J N5J 1_555 1_555
O3K N5K 1_555 1_555
O3A N5A 1_555 1_555
O4J N5J 1_555 1_555
O4K N5K 1_555 1_555
O4A N5A 1_555 1_555
N1J Mg1 1_555 1_555
N1K Mg1 1_555 1_555
N1A Mg1 1_555 1_555
N2J C5J 1_555 1_555
N2K C5K 1_555 1_555
N2A C5A 1_555 1_555
N3J Mg1 1_555 1_555
N4J Mg2 1_555 1_555
N4K Mg2 1_555 1_555
N4A Mg2 1_555 1_555
N5J C20J 1_555 1_555
N5K C20K 1_555 1_555
N5A C20A 1_555 1_555
N6J C15J 1_555 1_555
N6J_2 Mg2 1_555 1_555
C1J N1J 1_555 1_555
C1K C5 1_555 1_555
C1A N1A 1_555 1_555
C2J C1J 1_555 1_555
C2K C1K 1_555 1_555
C2A C1A 1_555 1_555
C3J C2J 1_555 1_555
C3K C2K 1_555 1_555
C3A C2A 1_555 1_555
C4J N1J 1_555 1_555
C4K N1K 1_555 1_555
C4A N1A 1_555 1_555
C5J C1 1_555 1_555
C5K C1A 1_555 1_555
C5A C1J 1_555 1_555
C6J C2J 1_555 1_555
C6K C2K 1_555 1_555
C6A C2A 1_555 1_555
H1J C6J 1_555 1_555
H1K C6K 1_555 1_555
H1A C6A 1_555 1_555
H2J C6J 1_555 1_555
H2K C6K 1_555 1_555
H2A C6A 1_555 1_555
C7J C6J 1_555 1_555
C7K C6K 1_555 1_555
C7A C6A 1_555 1_555
H3J C7J 1_555 1_555
H3K C7K 1_555 1_555
H3A C7A 1_555 1_555
H4J C7J 1_555 1_555
H4K C7K 1_555 1_555
H4A C7A 1_555 1_555
H5J C7J 1_555 1_555
H5K C7K 1_555 1_555
H5A C7A 1_555 1_555
C8J C3J 1_555 1_555
C8K C3K 1_555 1_555
C8A C3A 1_555 1_555
H6J C8J 1_555 1_555
H6K C8K 1_555 1_555
H6A C8A 1_555 1_555
H7J C8J 1_555 1_555
H7K C8K 1_555 1_555
H7A C8A 1_555 1_555
C9J C8J 1_555 1_555
C9K C8K 1_555 1_555
C9A C8A 1_555 1_555
H8J C9J 1_555 1_555
H8K C9K 1_555 1_555
H8A C9A 1_555 1_555
H9J C9J 1_555 1_555
H9K C9K 1_555 1_555
H9A C9A 1_555 1_555
H10J C9J 1_555 1_555
H10K C9K 1_555 1_555
H10A C9A 1_555 1_555
C10A N3 1_555 1_555
C10J N3J 1_555 1_555
C10K N3J 1_555 1_555
H11A C10A 1_555 1_555
H11J C10J 1_555 1_555
H11K C10K 1_555 1_555
C11A C12 1_555 1_555
C11J C10J 1_555 1_555
C11K C10K 1_555 1_555
H12A C11A 1_555 1_555
H12J C11J 1_555 1_555
H12K C11K 1_555 1_555
C12J C11J 1_555 1_555
C13J C12J 1_555 1_555
C14A C13 1_555 1_555
C14J C13J 1_555 1_555
C14K C13J 1_555 1_555
H13A C14A 1_555 1_555
H13J C14J 1_555 1_555
H13K C14K 1_555 1_555
C15A N6 1_555 1_555
C15J C14J 1_555 1_555
C15K N6J 1_555 1_555
H14A C15A 1_555 1_555
H14J C15J 1_555 1_555
H14K C15K 1_555 1_555
C16J C20 1_555 1_555
C16K N4K 1_555 1_555
C16A N4A 1_555 1_555
C17J C16J 1_555 1_555
C17K C16K 1_555 1_555
C17A C16A 1_555 1_555
C18J C17J 1_555 1_555
C18K C17K 1_555 1_555
C18A C17A 1_555 1_555
C19J N4J 1_555 1_555
C19K N4K 1_555 1_555
C19A N4A 1_555 1_555
C20J C16A 1_555 1_555
C20K C16 1_555 1_555
C20A C16K 1_555 1_555
C21J C17J 1_555 1_555
C21K C17K 1_555 1_555
C21A C17A 1_555 1_555
H15J C21J 1_555 1_555
H15K C21K 1_555 1_555
H15A C21A 1_555 1_555
H16J C21J 1_555 1_555
H16K C21K 1_555 1_555
H16A C21A 1_555 1_555
C22J C21J 1_555 1_555
C22K C21K 1_555 1_555
C22A C21A 1_555 1_555
H17J C22J 1_555 1_555
H17K C22K 1_555 1_555
H17A C22A 1_555 1_555
H18J C22J 1_555 1_555
H18K C22K 1_555 1_555
H18A C22A 1_555 1_555
H19J C22J 1_555 1_555
H19K C22K 1_555 1_555
H19A C22A 1_555 1_555
C23J C18J 1_555 1_555
C23K C18K 1_555 1_555
C23A C18A 1_555 1_555
H20J C23J 1_555 1_555
H20K C23K 1_555 1_555
H20A C23A 1_555 1_555
H21J C23J 1_555 1_555
H21K C23K 1_555 1_555
H21A C23A 1_555 1_555
C24J C23J 1_555 1_555
C24K C23K 1_555 1_555
C24A C23A 1_555 1_555
H22J C24J 1_555 1_555
H22K C24K 1_555 1_555
H22A C24A 1_555 1_555
H23J C24J 1_555 1_555
H23K C24K 1_555 1_555
H23A C24A 1_555 1_555
H24J C24J 1_555 1_555
H24K C24K 1_555 1_555
H24A C24A 1_555 1_555
C14 C15 1_555 1_555
N1K C1K 1_555 1_555
N4J C16J 1_555 1_555
C3J C4J 1_555 1_555
C3K C4K 1_555 1_555
C3A C4A 1_555 1_555
C4J C5J 1_555 1_555
C4K C5K 1_555 1_555
C4A C5A 1_555 1_555
C10A C11A 1_555 1_555
C11K C12J 1_555 1_555
C14A C15A 1_555 1_555
C14K C15K 1_555 1_555
C18J C19J 1_555 1_555
C18K C19K 1_555 1_555
C18A C19A 1_555 1_555
C19J C20J 1_555 1_555
C19K C20K 1_555 1_555
C19A C20A 1_555 1_555

#END
