
#######################################################################
#
#                 Cambridge Crystallographic Data Centre
#                                CCDC 
#
#######################################################################
#
# If this CIF has been generated from an entry in the Cambridge 
# Structural Database, then it will include bibliographic, chemical, 
# crystal, experimental, refinement or atomic coordinate data resulting 
# from the CCDC's data processing and validation procedures.
#
#######################################################################

data_HEDDIF
_symmetry_cell_setting           orthorhombic
_symmetry_space_group_name_H-M   'P c c n'
_symmetry_Int_Tables_number      56
_space_group_name_Hall           '-P 2ab 2ac'
loop_
_symmetry_equiv_pos_site_id
_symmetry_equiv_pos_as_xyz
1 x,y,z
2 1/2-x,1/2-y,z
3 1/2+x,-y,1/2-z
4 -x,1/2+y,1/2-z
5 -x,-y,-z
6 1/2+x,1/2+y,-z
7 1/2-x,y,1/2+z
8 x,1/2-y,1/2+z
_cell_length_a                   25.448(4)
_cell_length_b                   13.497(2)
_cell_length_c                   14.724(2)
_cell_angle_alpha                90
_cell_angle_beta                 90
_cell_angle_gamma                90
_cell_volume                     5057.28
loop_
_atom_site_label
_atom_site_type_symbol
_atom_site_fract_x
_atom_site_fract_y
_atom_site_fract_z
Mg1 Mg 0.2500 -0.7500 -0.13239(9)
O1 O 0.27099(12) -0.3522(2) -0.1999(3)
O2 O 0.32466(12) -0.3663(2) -0.0882(3)
O3 O 0.04538(11) -0.6082(2) -0.1741(2)
O4 O 0.03895(10) -0.7144(2) -0.0644(2)
N1 N 0.20659(10) -0.61886(18) -0.13207(16)
N2 N 0.31952(10) -0.66804(18) -0.13304(16)
N3 N 0.29295(13) -0.3995(2) -0.1419(3)
N4 N 0.2500 -0.7500 -0.2882(2)
N5 N 0.2500 -0.7500 -0.4774(2)
N6 N 0.06398(12) -0.6697(3) -0.1224(2)
C1 C 0.15450(12) -0.6130(2) -0.10936(19)
C2 C 0.14305(12) -0.5173(2) -0.0685(2)
C3 C 0.18869(13) -0.4645(2) -0.0710(2)
C4 C 0.22790(13) -0.5284(2) -0.1136(2)
C5 C 0.28039(13) -0.5067(2) -0.1365(2)
C6 C 0.32261(12) -0.5707(2) -0.1558(2)
C7 C 0.37358(13) -0.5485(2) -0.1969(2)
C8 C 0.40115(12) -0.6354(2) -0.1950(2)
C9 C 0.36752(12) -0.7082(2) -0.1519(2)
C10 C 0.12091(12) -0.6928(2) -0.1285(2)
C11 C 0.09325(13) -0.4815(3) -0.0230(2)
H1 H 0.1025 -0.4524 0.0366
H2 H 0.0702 -0.5392 -0.0116
C12 C 0.06252(15) -0.4047(3) -0.0777(3)
H3 H 0.0326 -0.3812 -0.0418
H4 H 0.0498 -0.4350 -0.1340
H5 H 0.0855 -0.3487 -0.0923
C13 C 0.19817(16) -0.3688(3) -0.0210(3)
H6 H 0.1644 -0.3335 -0.0127
H7 H 0.2218 -0.3259 -0.0572
C14 C 0.22277(18) -0.3886(4) 0.0710(3)
H8 H 0.2270 -0.3259 0.1038
H9 H 0.2572 -0.4197 0.0626
H10 H 0.2000 -0.4330 0.1060
C15 C 0.39299(14) -0.4543(3) -0.2407(3)
H11 H 0.3626 -0.4101 -0.2514
H12 H 0.4083 -0.4709 -0.3006
C16 C 0.43401(16) -0.3983(3) -0.1851(3)
H13 H 0.4462 -0.3404 -0.2194
H14 H 0.4639 -0.4420 -0.1724
H15 H 0.4183 -0.3763 -0.1277
C17 C 0.45173(13) -0.6552(3) -0.2454(3)
H16 H 0.4759 -0.6935 -0.2060
H17 H 0.4689 -0.5915 -0.2605
C18 C 0.44131(16) -0.7129(3) -0.3321(3)
H18 H 0.4744 -0.7228 -0.3648
H19 H 0.4168 -0.6757 -0.3705
H20 H 0.4260 -0.7774 -0.3170
C19 C 0.21863(18) -0.6938(3) -0.3357(2)
H21 H 0.1951 -0.6509 -0.3046
C20 C 0.21832(18) -0.6945(3) -0.4291(2)
H22 H 0.1941 -0.6529 -0.4600
Mg1F Mg 0.2500 -0.7500 -0.63239(9)
O1A O 0.22901(12) -1.1478(2) -0.1999(3)
O2A O 0.17534(12) -1.1337(2) -0.0882(3)
O3A O 0.45462(11) -0.8918(2) -0.1741(2)
O4A O 0.46105(10) -0.7856(2) -0.0644(2)
N1A N 0.29341(10) -0.88114(18) -0.13207(16)
N2A N 0.18048(10) -0.83196(18) -0.13304(16)
N3A N 0.20705(13) -1.1005(2) -0.1419(3)
N5F N 0.2500 -0.7500 0.0226(2)
N6A N 0.43602(12) -0.8303(3) -0.1224(2)
C1A C 0.34550(12) -0.8870(2) -0.10936(19)
C2A C 0.35695(12) -0.9827(2) -0.0685(2)
C3A C 0.31131(13) -1.0355(2) -0.0710(2)
C4A C 0.27210(13) -0.9716(2) -0.1136(2)
C5A C 0.21961(13) -0.9933(2) -0.1365(2)
C6A C 0.17739(12) -0.9293(2) -0.1558(2)
C7A C 0.12642(13) -0.9515(2) -0.1969(2)
C8A C 0.09885(12) -0.8646(2) -0.1950(2)
C9A C 0.13248(12) -0.7918(2) -0.1519(2)
C10A C 0.37909(12) -0.8072(2) -0.1285(2)
C11A C 0.40675(13) -1.0185(3) -0.0230(2)
H1A H 0.3975 -1.0476 0.0366
H2A H 0.4298 -0.9608 -0.0116
C12A C 0.43748(15) -1.0953(3) -0.0777(3)
H3A H 0.4674 -1.1188 -0.0418
H4A H 0.4502 -1.0650 -0.1340
H5A H 0.4145 -1.1513 -0.0923
C13A C 0.30183(16) -1.1312(3) -0.0210(3)
H6A H 0.3356 -1.1665 -0.0127
H7A H 0.2782 -1.1741 -0.0572
C14A C 0.27723(18) -1.1114(4) 0.0710(3)
H8A H 0.2730 -1.1741 0.1038
H9A H 0.2428 -1.0803 0.0626
H10A H 0.3000 -1.0670 0.1060
C15A C 0.10701(14) -1.0457(3) -0.2407(3)
H11A H 0.1374 -1.0899 -0.2514
H12A H 0.0917 -1.0291 -0.3006
C16A C 0.06599(16) -1.1017(3) -0.1851(3)
H13A H 0.0538 -1.1596 -0.2194
H14A H 0.0361 -1.0580 -0.1724
H15A H 0.0817 -1.1237 -0.1277
C17A C 0.04827(13) -0.8448(3) -0.2454(3)
H16A H 0.0241 -0.8065 -0.2060
H17A H 0.0311 -0.9085 -0.2605
C18A C 0.05869(16) -0.7871(3) -0.3321(3)
H18A H 0.0256 -0.7772 -0.3648
H19A H 0.0832 -0.8243 -0.3705
H20A H 0.0740 -0.7226 -0.3170
C19A C 0.28137(18) -0.8062(3) -0.3357(2)
H21A H 0.3049 -0.8491 -0.3046
C20A C 0.28168(18) -0.8055(3) -0.4291(2)
H22A H 0.3059 -0.8471 -0.4600
N7 N 0.14674(19) -0.4509(4) -0.3160(4)
N8 N 0.0686(3) -0.3612(6) -0.4256(4)
C21 C 0.1208(3) -0.5084(5) -0.3774(5)
H23 H 0.1328 -0.5740 -0.3882
C22 C 0.0764(3) -0.4732(5) -0.4254(5)
H24 H 0.0529 -0.5167 -0.4558
C23 C 0.0950(2) -0.3056(4) -0.3542(5)
H25 H 0.0814 -0.2436 -0.3346
C24 C 0.1386(3) -0.3426(4) -0.3162(4)
H26 H 0.1640 -0.2998 -0.2899
loop_
_geom_bond_atom_site_label_1
_geom_bond_atom_site_label_2
_geom_bond_site_symmetry_1
_geom_bond_site_symmetry_2
Mg1 N1 1_555 1_555
O1 N3 1_555 1_555
O2 N3 1_555 1_555
O3 N6 1_555 1_555
O4 N6 1_555 1_555
N1 C1 1_555 1_555
N2 Mg1 1_555 1_555
N3 C5 1_555 1_555
N4 Mg1 1_555 1_555
N5 C20 1_555 1_555
N6 C10 1_555 1_555
C1 C2 1_555 1_555
C2 C3 1_555 1_555
C3 C4 1_555 1_555
C4 N1 1_555 1_555
C5 C4 1_555 1_555
C6 N2 1_555 1_555
C7 C6 1_555 1_555
C8 C7 1_555 1_555
C9 N2 1_555 1_555
C10 C1 1_555 1_555
C11 C2 1_555 1_555
H1 C11 1_555 1_555
H2 C11 1_555 1_555
C12 C11 1_555 1_555
H3 C12 1_555 1_555
H4 C12 1_555 1_555
H5 C12 1_555 1_555
C13 C3 1_555 1_555
H6 C13 1_555 1_555
H7 C13 1_555 1_555
C14 C13 1_555 1_555
H8 C14 1_555 1_555
H9 C14 1_555 1_555
H10 C14 1_555 1_555
C15 C7 1_555 1_555
H11 C15 1_555 1_555
H12 C15 1_555 1_555
C16 C15 1_555 1_555
H13 C16 1_555 1_555
H14 C16 1_555 1_555
H15 C16 1_555 1_555
C17 C8 1_555 1_555
H16 C17 1_555 1_555
H17 C17 1_555 1_555
C18 C17 1_555 1_555
H18 C18 1_555 1_555
H19 C18 1_555 1_555
H20 C18 1_555 1_555
C19 N4 1_555 1_555
H21 C19 1_555 1_555
C20 C19 1_555 1_555
H22 C20 1_555 1_555
N7 C21 1_555 1_555
N8 C22 1_555 1_555
C21 H23 1_555 1_555
C22 C21 1_555 1_555
H24 C22 1_555 1_555
C23 N8 1_555 1_555
H25 C23 1_555 1_555
C24 N7 1_555 1_555
H26 C24 1_555 1_555
Mg1F N5 1_555 1_555
O1A N3A 1_555 1_555
O2A N3A 1_555 1_555
O3A N6A 1_555 1_555
O4A N6A 1_555 1_555
N1A Mg1 1_555 1_555
N2A Mg1 1_555 1_555
N3A C5A 1_555 1_555
N5F Mg1 1_555 1_555
N6A C10A 1_555 1_555
C1A N1A 1_555 1_555
C2A C1A 1_555 1_555
C3A C2A 1_555 1_555
C4A N1A 1_555 1_555
C5A C4A 1_555 1_555
C6A N2A 1_555 1_555
C7A C6A 1_555 1_555
C8A C7A 1_555 1_555
C9A C10 1_555 1_555
C10A C9 1_555 1_555
C11A C2A 1_555 1_555
H1A C11A 1_555 1_555
H2A C11A 1_555 1_555
C12A C11A 1_555 1_555
H3A C12A 1_555 1_555
H4A C12A 1_555 1_555
H5A C12A 1_555 1_555
C13A C3A 1_555 1_555
H6A C13A 1_555 1_555
H7A C13A 1_555 1_555
C14A C13A 1_555 1_555
H8A C14A 1_555 1_555
H9A C14A 1_555 1_555
H10A C14A 1_555 1_555
C15A C7A 1_555 1_555
H11A C15A 1_555 1_555
H12A C15A 1_555 1_555
C16A C15A 1_555 1_555
H13A C16A 1_555 1_555
H14A C16A 1_555 1_555
H15A C16A 1_555 1_555
C17A C8A 1_555 1_555
H16A C17A 1_555 1_555
H17A C17A 1_555 1_555
C18A C17A 1_555 1_555
H18A C18A 1_555 1_555
H19A C18A 1_555 1_555
H20A C18A 1_555 1_555
C19A N4 1_555 1_555
H21A C19A 1_555 1_555
C20A N5 1_555 1_555
H22A C20A 1_555 1_555
C5 C6 1_555 1_555
C8 C9 1_555 1_555
C23 C24 1_555 1_555
N2A C9A 1_555 1_555
C1A C10A 1_555 1_555
C3A C4A 1_555 1_555
C5A C6A 1_555 1_555
C8A C9A 1_555 1_555
C19A C20A 1_555 1_555

#END
