
#######################################################################
#
#                 Cambridge Crystallographic Data Centre
#                                CCDC 
#
#######################################################################
#
# If this CIF has been generated from an entry in the Cambridge 
# Structural Database, then it will include bibliographic, chemical, 
# crystal, experimental, refinement or atomic coordinate data resulting 
# from the CCDC's data processing and validation procedures.
#
#######################################################################

data_HEDJOR
_symmetry_cell_setting           triclinic
_symmetry_space_group_name_H-M   'P -1'
_symmetry_Int_Tables_number      2
_space_group_name_Hall           '-P 1'
loop_
_symmetry_equiv_pos_site_id
_symmetry_equiv_pos_as_xyz
1 x,y,z
2 -x,-y,-z
_cell_length_a                   11.6621(9)
_cell_length_b                   13.4355(11)
_cell_length_c                   13.9027(10)
_cell_angle_alpha                76.274(5)
_cell_angle_beta                 67.563(5)
_cell_angle_gamma                69.521(3)
_cell_volume                     1872.62
loop_
_atom_site_label
_atom_site_type_symbol
_atom_site_fract_x
_atom_site_fract_y
_atom_site_fract_z
Ag2 Ag 0.5000 1.5000 0.5000
N5 N 0.5944(11) 1.3465(10) 0.5650(12)
N6 N 0.9389(12) 1.0265(10) 0.5355(11)
C13 C 0.6982(17) 1.1455(14) 0.6560(12)
H11 H 0.7334 1.0785 0.6878
C14 C 0.5817(15) 1.2096(13) 0.7048(13)
H12 H 0.5354 1.1845 0.7717
C15 C 0.5253(15) 1.3122(14) 0.6612(13)
H13 H 0.4441 1.3542 0.6973
C16 C 0.7088(15) 1.2869(13) 0.5126(14)
H14 H 0.7535 1.3136 0.4459
C17 C 0.7636(12) 1.1849(11) 0.5551(11)
C18 C 0.8895(14) 1.1194(14) 0.4991(12)
H15 H 0.9356 1.1474 0.4335
N5A N 0.4056(11) 1.6535(10) 0.4350(12)
N6A N 1.0611(12) 0.9735(10) 0.4645(11)
N7 N 0.702(2) -0.5393(14) 0.2943(14)
C19 C 0.785(3) -0.5260(17) 0.224(2)
C20 C 0.911(3) -0.519(2) 0.138(2)
H16 H 0.8969 -0.4508 0.0961
H17 H 0.9398 -0.5750 0.0946
H18 H 0.9754 -0.5272 0.1683
N8 N 0.4802(12) 0.591(3) 0.114(2)
C21 C 0.5864(12) 0.591(3) 0.054(2)
C22 C 0.7229(17) 0.563(4) -0.020(3)
H19 H 0.7454 0.6275 -0.0563
H20 H 0.7301 0.5210 -0.0702
H21 H 0.7807 0.5229 0.0186
P1 P 0.0000 0.0000 0.0000
Mo1 Mo 0.00801(13) 0.16327(10) 0.16307(10)
Mo2 Mo -0.26158(11) 0.23182(10) 0.07393(10)
Mo3 Mo -0.20851(11) 0.00367(10) 0.26416(9)
Mo4 Mo 0.18127(12) 0.18794(10) -0.11068(10)
Mo5 Mo -0.08084(12) 0.21050(10) -0.19608(10)
Mo6 Mo 0.28809(11) -0.04387(12) 0.05342(10)
O1 O 0.0081(11) 0.2458(8) 0.2341(8)
O2 O -0.3909(10) 0.3350(8) 0.1158(9)
O3 O -0.2987(11) 0.0087(11) 0.3884(8)
O4 O 0.2746(10) 0.2695(8) -0.1677(9)
O5 O -0.1192(12) 0.3121(9) -0.2805(8)
O6 O 0.4221(10) -0.0684(9) 0.0844(9)
O7 O 0.0948(14) 0.2251(11) 0.0188(10)
O8 O -0.0919(11) 0.0844(10) 0.2572(11)
O9 O 0.1608(15) 0.0580(11) 0.1487(11)
O10 O -0.1421(12) 0.2496(10) 0.1180(10)
O11 O -0.2947(11) 0.1244(10) 0.2016(10)
O12 O 0.3374(11) -0.1442(11) -0.0305(9)
O13 O -0.1883(11) 0.2735(10) -0.0636(8)
O14 O 0.2580(10) 0.0887(8) -0.2226(10)
O15 O -0.0548(11) -0.1166(10) 0.2779(12)
O16 O 0.0486(12) 0.2497(10) -0.1640(11)
O17 O 0.2958(14) 0.0656(11) -0.0531(10)
O18 O 0.1996(12) -0.1388(12) 0.1675(9)
O19 O 0.0847(15) 0.0555(13) 0.0211(13)
O20 O 0.0833(14) -0.0668(12) -0.0878(12)
O21 O -0.0541(15) -0.0643(14) 0.1006(13)
O22 O -0.1118(15) 0.0914(12) -0.0287(13)
Mo2A Mo 0.26158(11) -0.23182(10) -0.07393(10)
Mo3A Mo 0.20851(11) -0.00367(10) -0.26416(9)
Mo5A Mo 0.08084(12) -0.21050(10) 0.19608(10)
Mo6A Mo -0.28809(11) 0.04387(12) -0.05342(10)
O12A O -0.3374(11) 0.1442(11) 0.0305(9)
O14A O -0.2580(10) -0.0887(8) 0.2226(10)
O15A O 0.0548(11) 0.1166(10) -0.2779(12)
O18A O -0.1996(12) 0.1388(12) -0.1675(9)
O19A O -0.0847(15) -0.0555(13) -0.0211(13)
O20A O -0.0833(14) 0.0668(12) 0.0878(12)
O21A O 0.0541(15) 0.0643(14) -0.1006(13)
O22A O 0.1118(15) -0.0914(12) 0.0287(13)
Ag1 Ag 0.48053(11) 0.92711(9) 0.42320(10)
N1 N 0.3794(10) 1.0716(9) 0.3454(10)
N2 N 0.0368(12) 1.3947(10) 0.3746(10)
N3 N -0.0826(11) 1.4481(9) 0.4485(9)
N4 N 0.5771(10) 0.7757(9) 0.4929(10)
C1 C 0.2579(13) 1.2554(12) 0.2451(12)
H1 H 0.2152 1.3157 0.2096
C2 C 0.3730(14) 1.1855(13) 0.1914(13)
H2 H 0.4124 1.2019 0.1199
C3 C 0.4283(16) 1.0929(12) 0.2436(12)
H3 H 0.5020 1.0440 0.2063
C4 C 0.2718(11) 1.1369(9) 0.3968(10)
H4 H 0.2351 1.1178 0.4682
C5 C 0.2090(13) 1.2334(11) 0.3509(11)
C6 C 0.0843(12) 1.3052(11) 0.4165(11)
H5 H 0.0445 1.2827 0.4864
C7 C -0.1265(13) 1.5433(11) 0.4145(12)
H6 H -0.0819 1.5719 0.3487
C8 C -0.2510(11) 1.6108(9) 0.4801(10)
C9 C -0.3098(16) 1.5725(12) 0.5811(11)
H7 H -0.2715 1.5052 0.6105
C10 C -0.4302(16) 1.6375(13) 0.6399(12)
H8 H -0.4748 1.6140 0.7080
C11 C 0.5204(14) 0.7409(11) 0.5893(11)
H9 H 0.4432 0.7859 0.6275
C12 C 0.6891(14) 0.7100(11) 0.4387(10)
H10 H 0.7284 0.7333 0.3689
C8_2 C 0.7490(11) 0.6108(9) 0.4801(10)
C10_2 C 0.5698(16) 0.6375(13) 0.6399(12)
C11_2 C -0.4796(14) 1.7409(11) 0.5893(11)
C12_2 C -0.3109(14) 1.7100(11) 0.4387(10)
loop_
_geom_bond_atom_site_label_1
_geom_bond_atom_site_label_2
_geom_bond_site_symmetry_1
_geom_bond_site_symmetry_2
Ag1 N1 1_555 1_555
N1 C3 1_555 1_555
N2 N3 1_555 1_555
N3 C7 1_555 1_555
N4 Ag1 1_555 1_555
C1 H1 1_555 1_555
C2 C1 1_555 1_555
H2 C2 1_555 1_555
C3 C2 1_555 1_555
H3 C3 1_555 1_555
C4 N1 1_555 1_555
H4 C4 1_555 1_555
C5 C1 1_555 1_555
C6 N2 1_555 1_555
H5 C6 1_555 1_555
C7 H6 1_555 1_555
C8 C7 1_555 1_555
C9 C8 1_555 1_555
H7 C9 1_555 1_555
C10 C9 1_555 1_555
H8 C10 1_555 1_555
C11 N4 1_555 1_555
H9 C11 1_555 1_555
C12 N4 1_555 1_555
H10 C12 1_555 1_555
Ag2 N5 1_555 1_555
N5 C15 1_555 1_555
N6 C18 1_555 1_555
C13 H11 1_555 1_555
C14 C13 1_555 1_555
H12 C14 1_555 1_555
C15 C14 1_555 1_555
H13 C15 1_555 1_555
C16 N5 1_555 1_555
H14 C16 1_555 1_555
C17 C13 1_555 1_555
C18 C17 1_555 1_555
H15 C18 1_555 1_555
N7 C19 1_555 1_555
C19 C20 1_555 1_555
C20 H16 1_555 1_555
H17 C20 1_555 1_555
H18 C20 1_555 1_555
N8 C21 1_555 1_555
C21 C22 1_555 1_555
C22 H19 1_555 1_555
H20 C22 1_555 1_555
H21 C22 1_555 1_555
P1 O19 1_555 1_555
Mo1 O1 1_555 1_555
Mo2 O2 1_555 1_555
Mo3 O3 1_555 1_555
Mo4 O4 1_555 1_555
Mo5 O5 1_555 1_555
Mo6 O6 1_555 1_555
O7 Mo1 1_555 1_555
O8 Mo1 1_555 1_555
O9 Mo1 1_555 1_555
O10 Mo1 1_555 1_555
O11 Mo2 1_555 1_555
O12 Mo6 1_555 1_555
O13 Mo2 1_555 1_555
O14 Mo4 1_555 1_555
O15 Mo3 1_555 1_555
O16 Mo4 1_555 1_555
O17 Mo4 1_555 1_555
O18 Mo6 1_555 1_555
O19 Mo1 1_555 1_555
O20 P1 1_555 1_555
O21 P1 1_555 1_555
O22 P1 1_555 1_555
C8_2 C12 1_555 1_555
C10_2 C11 1_555 1_555
C11_2 C10 1_555 1_555
C12_2 C8 1_555 1_555
N5A Ag2 1_555 1_555
N6A N6 1_555 1_555
Mo2A O12 1_555 1_555
Mo3A O14 1_555 1_555
Mo5A O15 1_555 1_555
Mo6A O22 1_555 1_555
O12A Mo2 1_555 1_555
O14A Mo3 1_555 1_555
O15A Mo5 1_555 1_555
O18A Mo5 1_555 1_555
O19A P1 1_555 1_555
O20A P1 1_555 1_555
O21A P1 1_555 1_555
O22A P1 1_555 1_555
C4 C5 1_555 1_555
C5 C6 1_555 1_555
C16 C17 1_555 1_555
Mo2 O10 1_555 1_555
Mo2 O22 1_555 1_555
Mo2 O20A 1_555 1_555
Mo3 O8 1_555 1_555
Mo3 O11 1_555 1_555
Mo3 O21 1_555 1_555
Mo3 O20A 1_555 1_555
Mo4 O7 1_555 1_555
Mo4 O19 1_555 1_555
Mo5 O13 1_555 1_555
Mo5 O16 1_555 1_555
Mo5 O22 1_555 1_555
Mo5 O21A 1_555 1_555
Mo6 O9 1_555 1_555
Mo6 O17 1_555 1_555
Mo6 O19 1_555 1_555
Mo6 O22A 1_555 1_555
O18 Mo5A 1_555 1_555
O19 O20A 1_555 1_555
O19 O21A 1_555 1_555
O20 Mo2A 1_555 1_555
O20 Mo3A 1_555 1_555
O20 O19A 1_555 1_555
O20 O21A 1_555 1_555
O20 O22A 1_555 1_555
O21 Mo5A 1_555 1_555
O21 O19A 1_555 1_555
O21 O20A 1_555 1_555
O21 O22A 1_555 1_555
O22 O20A 1_555 1_555
O22 O21A 1_555 1_555
Mo2A O22A 1_555 1_555
Mo3A O15A 1_555 1_555
Mo3A O21A 1_555 1_555
Mo5A O22A 1_555 1_555
Mo6A O12A 1_555 1_555
Mo6A O18A 1_555 1_555
Mo6A O19A 1_555 1_555

#END
