
#######################################################################
#
#                 Cambridge Crystallographic Data Centre
#                                CCDC 
#
#######################################################################
#
# If this CIF has been generated from an entry in the Cambridge 
# Structural Database, then it will include bibliographic, chemical, 
# crystal, experimental, refinement or atomic coordinate data resulting 
# from the CCDC's data processing and validation procedures.
#
#######################################################################

data_HEDNEL
_symmetry_cell_setting           monoclinic
_symmetry_space_group_name_H-M   'C 2/c'
_symmetry_Int_Tables_number      15
_space_group_name_Hall           '-C 2yn'
loop_
_symmetry_equiv_pos_site_id
_symmetry_equiv_pos_as_xyz
1 x,y,z
2 -x,y,1/2-z
3 1/2+x,1/2+y,z
4 1/2-x,1/2+y,1/2-z
5 -x,-y,-z
6 x,-y,1/2+z
7 1/2-x,1/2-y,-z
8 1/2+x,1/2-y,1/2+z
_cell_length_a                   21.695(4)
_cell_length_b                   8.8627(18)
_cell_length_c                   13.476(3)
_cell_angle_alpha                90
_cell_angle_beta                 125.77(3)
_cell_angle_gamma                90
_cell_volume                     2102.35
loop_
_atom_site_label
_atom_site_type_symbol
_atom_site_fract_x
_atom_site_fract_y
_atom_site_fract_z
Cu1 Cu 0.113333(19) 0.68975(4) 0.22539(3)
C1 C -0.01236(16) 0.8960(3) 0.1048(3)
C2 C -0.08566(16) 0.9517(3) 0.0293(3)
H1 H -0.0948 1.0542 0.0293
C3 C -0.14570(16) 0.8537(3) -0.0466(3)
C4 C -0.12931(16) 0.7028(3) -0.0454(3)
H2 H -0.1678 0.6351 -0.0973
C5 C -0.05451(17) 0.6530(3) 0.0342(3)
H3 H -0.0443 0.5508 0.0356
C6 C 0.05445(16) 0.9914(3) 0.1876(3)
C7 C 0.05077(16) 1.1482(3) 0.1935(3)
H4 H 0.0054 1.1992 0.1398
C8 C 0.11636(17) 1.2265(3) 0.2812(3)
C9 C 0.18334(17) 1.1449(3) 0.3565(3)
H5 H 0.2280 1.1942 0.4160
C10 C 0.18303(16) 0.9903(3) 0.3422(3)
H6 H 0.2283 0.9374 0.3922
C11 C -0.22660(16) 0.9154(3) -0.1280(3)
C12 C 0.11677(16) 1.3949(3) 0.3002(3)
N1 N 0.00300(14) 0.7462(3) 0.1085(2)
N2 N 0.12030(14) 0.9143(3) 0.2595(2)
O1 O -0.27729(11) 0.8172(2) -0.1568(2)
O2 O -0.23597(12) 1.0505(2) -0.1571(2)
O3 O 0.08971(11) 1.4754(2) 0.20453(19)
O4 O 0.14245(13) 1.4404(2) 0.4042(2)
O5 O 0.13358(13) 0.7140(2) 0.0753(2)
Cu1_2 Cu 0.113333(19) 1.68975(4) 0.22539(3)
Cu1G Cu -0.386667(19) 0.81025(4) -0.27461(3)
O1G O 0.22271(11) 0.6828(2) 0.3432(2)
O3_2 O 0.08971(11) 0.4754(2) 0.20453(19)
loop_
_geom_bond_atom_site_label_1
_geom_bond_atom_site_label_2
_geom_bond_site_symmetry_1
_geom_bond_site_symmetry_2
Cu1 N1 1_555 1_555
C1 C2 1_555 1_555
C2 H1 1_555 1_555
C3 C2 1_555 1_555
C4 C3 1_555 1_555
H2 C4 1_555 1_555
C5 C4 1_555 1_555
H3 C5 1_555 1_555
C6 C1 1_555 1_555
C7 C6 1_555 1_555
H4 C7 1_555 1_555
C8 C7 1_555 1_555
C9 C8 1_555 1_555
H5 C9 1_555 1_555
C10 C9 1_555 1_555
H6 C10 1_555 1_555
C11 C3 1_555 1_555
C12 C8 1_555 1_555
N1 C1 1_555 1_555
N2 Cu1 1_555 1_555
O1 C11 1_555 1_555
O2 C11 1_555 1_555
O3 C12 1_555 1_555
O4 C12 1_555 1_555
O5 Cu1 1_555 1_555
Cu1_2 O3 1_555 1_555
Cu1G O1 1_555 1_555
O1G Cu1 1_555 1_555
O3_2 Cu1 1_555 1_555
C5 N1 1_555 1_555
C6 N2 1_555 1_555
C10 N2 1_555 1_555

#END
