
#######################################################################
#
#                 Cambridge Crystallographic Data Centre
#                                CCDC 
#
#######################################################################
#
# If this CIF has been generated from an entry in the Cambridge 
# Structural Database, then it will include bibliographic, chemical, 
# crystal, experimental, refinement or atomic coordinate data resulting 
# from the CCDC's data processing and validation procedures.
#
#######################################################################

data_HEDNEL01
_symmetry_cell_setting           monoclinic
_symmetry_space_group_name_H-M   'C 2/c'
_symmetry_Int_Tables_number      15
_space_group_name_Hall           '-C 2yn'
loop_
_symmetry_equiv_pos_site_id
_symmetry_equiv_pos_as_xyz
1 x,y,z
2 -x,y,1/2-z
3 1/2+x,1/2+y,z
4 1/2-x,1/2+y,1/2-z
5 -x,-y,-z
6 x,-y,1/2+z
7 1/2-x,1/2-y,-z
8 1/2+x,1/2-y,1/2+z
_cell_length_a                   21.813(3)
_cell_length_b                   8.8628(11)
_cell_length_c                   13.6464(18)
_cell_angle_alpha                90
_cell_angle_beta                 126.1250(10)
_cell_angle_gamma                90
_cell_volume                     2130.94
loop_
_atom_site_label
_atom_site_type_symbol
_atom_site_fract_x
_atom_site_fract_y
_atom_site_fract_z
Cu1 Cu 0.613574(17) 0.18932(4) 0.72603(3)
C1 C 0.44553(16) 0.1535(3) 0.5338(3)
H1 H 0.4558 0.0516 0.5341
C2 C 0.37121(15) 0.2023(3) 0.4554(3)
H2 H 0.3328 0.1342 0.4040
C3 C 0.35450(15) 0.3531(3) 0.4542(2)
C4 C 0.41472(15) 0.4509(3) 0.5297(2)
H3 H 0.4058 0.5535 0.5294
C5 C 0.48774(14) 0.3951(3) 0.6050(2)
C6 C 0.55419(14) 0.4915(3) 0.6874(2)
C7 C 0.55074(15) 0.6475(3) 0.6934(2)
H4 H 0.5055 0.6987 0.6396
C8 C 0.61640(15) 0.7261(3) 0.7814(2)
C9 C 0.68242(15) 0.6446(3) 0.8553(3)
H5 H 0.7270 0.6940 0.9147
C10 C 0.27364(15) 0.4147(3) 0.3722(2)
C11 C 0.61576(15) 0.8943(3) 0.7993(3)
N1 N 0.50315(12) 0.2460(3) 0.6089(2)
N2 N 0.62009(12) 0.4142(2) 0.7592(2)
O1 O 0.22319(10) 0.3173(2) 0.34271(19)
O2 O 0.26446(11) 0.5493(2) 0.3442(2)
O3 O 0.59019(11) 0.9754(2) 0.70515(17)
O4 O 0.63981(13) 0.9401(2) 0.90105(19)
O5 O 0.63311(13) 0.2116(3) 0.5753(2)
H6 H 0.6331(18) 0.165(3) 0.523(2)
H7 H 0.6668(16) 0.277(3) 0.605(3)
C12 C 0.68287(15) 0.4908(3) 0.8417(2)
H8 H 0.7283 0.4385 0.8915
Cu1_2 Cu 0.613574(17) 1.18932(4) 0.72603(3)
Cu1G Cu 0.113574(17) 0.31068(4) 0.22603(3)
O1G O 0.72319(10) 0.1827(2) 0.84271(19)
O3_2 O 0.59019(11) -0.0246(2) 0.70515(17)
loop_
_geom_bond_atom_site_label_1
_geom_bond_atom_site_label_2
_geom_bond_site_symmetry_1
_geom_bond_site_symmetry_2
Cu1 N1 1_555 1_555
C1 H1 1_555 1_555
C2 C1 1_555 1_555
H2 C2 1_555 1_555
C3 C2 1_555 1_555
C4 C3 1_555 1_555
H3 C4 1_555 1_555
C5 C4 1_555 1_555
C6 C5 1_555 1_555
C7 C6 1_555 1_555
H4 C7 1_555 1_555
C8 C7 1_555 1_555
C9 C8 1_555 1_555
H5 C9 1_555 1_555
C10 C3 1_555 1_555
C11 C8 1_555 1_555
N1 C1 1_555 1_555
N2 Cu1 1_555 1_555
O1 C10 1_555 1_555
O2 C10 1_555 1_555
O3 C11 1_555 1_555
O4 C11 1_555 1_555
O5 Cu1 1_555 1_555
H6 O5 1_555 1_555
H7 O5 1_555 1_555
C12 C9 1_555 1_555
H8 C12 1_555 1_555
Cu1_2 O3 1_555 1_555
Cu1G O1 1_555 1_555
O1G Cu1 1_555 1_555
O3_2 Cu1 1_555 1_555
C5 N1 1_555 1_555
C6 N2 1_555 1_555
N2 C12 1_555 1_555

#END
