
#######################################################################
#
#                 Cambridge Crystallographic Data Centre
#                                CCDC 
#
#######################################################################
#
# If this CIF has been generated from an entry in the Cambridge 
# Structural Database, then it will include bibliographic, chemical, 
# crystal, experimental, refinement or atomic coordinate data resulting 
# from the CCDC's data processing and validation procedures.
#
#######################################################################

data_HEDPEN
_symmetry_cell_setting           triclinic
_symmetry_space_group_name_H-M   'P -1'
_symmetry_Int_Tables_number      2
_space_group_name_Hall           '-P 1'
loop_
_symmetry_equiv_pos_site_id
_symmetry_equiv_pos_as_xyz
1 x,y,z
2 -x,-y,-z
_cell_length_a                   9.1392(7)
_cell_length_b                   10.6874(9)
_cell_length_c                   12.6728(10)
_cell_angle_alpha                85.709(2)
_cell_angle_beta                 84.911(2)
_cell_angle_gamma                63.992(2)
_cell_volume                     1107.18
loop_
_atom_site_label
_atom_site_type_symbol
_atom_site_fract_x
_atom_site_fract_y
_atom_site_fract_z
Nd1 Nd 0.28568(3) 0.45220(2) 0.51236(2)
Co1 Co 0.5000 0.0000 0.0000
N1 N 0.3924(5) 0.9977(5) 0.1627(3)
O1 O 0.3377(4) 0.5347(4) 0.3289(3)
O2 O 0.2525(5) 0.3239(4) -0.1692(3)
C1 C 0.2429(6) 0.4035(5) 0.1058(4)
H1 H 0.2381 0.3244 0.1385
O3 O 0.1135(4) 0.5286(4) 0.6820(3)
N2 N 0.2097(5) 1.0192(4) 0.2866(3)
O4 O -0.3598(5) 1.3678(4) 0.4474(3)
C2 C -0.2198(5) 1.0018(5) 0.4107(4)
H2 H -0.3186 0.9985 0.4305
N3 N 0.3503(5) 0.9131(4) -0.0496(3)
N4 N 0.3761(5) 0.7889(5) -0.0092(4)
O5 O 0.2048(4) 0.4052(4) 0.3361(3)
C3 C 0.2419(6) 0.6421(5) 0.0110(4)
C4 C 0.2644(6) 0.3030(5) -0.0724(4)
N5 N 0.2633(5) 0.9759(5) 0.1878(4)
C5 C 0.2415(6) 0.4217(5) -0.0046(4)
C6 C 0.2530(7) 0.6224(6) 0.1187(4)
H3 H 0.2613 0.6882 0.1587
O6 O -0.2211(4) 0.7409(4) 0.4345(3)
N6 N 0.2507(5) 0.7658(4) -0.0348(3)
O7 O 0.4635(5) 0.3375(4) 0.6636(3)
C7 C -0.0794(5) 0.8783(5) 0.3970(4)
O8 O 0.0402(4) 0.6444(4) 0.4654(3)
C8 C 0.2384(7) 0.5451(5) -0.0529(4)
H4 H 0.2342 0.5609 -0.1259
O9 O 0.3024(5) 0.1862(4) -0.0241(3)
C9 C 0.0650(6) 0.8831(5) 0.3581(4)
H5 H 0.1599 0.8014 0.3478
C10 C -0.0714(6) 1.1362(5) 0.3560(4)
H6 H -0.0669 1.2214 0.3440
C11 C 0.0653(5) 1.0125(5) 0.3347(4)
O10 O -0.4975(4) 1.2455(4) 0.4347(3)
C12 C -0.0862(6) 0.7439(5) 0.4337(4)
C13 C 0.2116(7) 0.9685(6) -0.1003(4)
H7 H 0.1680 1.0553 -0.1355
C14 C -0.2151(5) 1.1302(5) 0.3955(4)
C15 C 0.2639(6) 0.4790(5) 0.2842(4)
C16 C 0.3017(7) 1.0745(7) 0.3233(5)
H8 H 0.2874 1.1154 0.3880
C17 C -0.3674(6) 1.2578(5) 0.4281(4)
C18 C 0.2514(6) 0.5016(5) 0.1667(4)
C19 C 0.1453(7) 0.8755(6) -0.0912(5)
H9 H 0.0490 0.8855 -0.1180
C20 C 0.4197(7) 1.0574(7) 0.2452(4)
H10 H 0.5048 1.0824 0.2477
H11 H 0.014(2) 0.554(6) 0.673(3)
H12 H 0.144(5) 0.463(4) 0.729(3)
H13 H 0.414(5) 0.324(7) 0.7201(19)
H14 H 0.520(7) 0.378(6) 0.679(3)
Nd1A Nd -0.28568(3) 0.54780(2) 0.48764(2)
Nd1_2 Nd -0.71432(3) 1.45220(2) 0.51236(2)
Nd1_3 Nd 0.28568(3) -0.54780(2) 0.51236(2)
Nd1A_2 Nd -0.28568(3) 1.54780(2) 0.48764(2)
Nd1A_3 Nd 0.71432(3) -0.45220(2) 0.48764(2)
Co1_2 Co -0.5000 0.0000 1.0000
Co1_3 Co -0.5000 1.0000 1.0000
Co1_4 Co 0.5000 1.0000 0.0000
N1A N -0.3924(5) 0.0023(5) 0.8373(3)
N1_2 N 0.3924(5) -0.0023(5) 0.1627(3)
N1A_2 N 0.6076(5) 0.0023(5) -0.1627(3)
O1A O -0.3377(4) 0.4653(4) 0.6711(3)
O2A O -0.2525(5) 0.6761(4) 1.1692(3)
C1A C -0.2429(6) 0.5965(5) 0.8942(4)
H1A H -0.2381 0.6756 0.8615
O3A O -0.1135(4) 0.4714(4) 0.3180(3)
N2A N -0.2097(5) -0.0192(4) 0.7134(3)
O4A O 0.3598(5) -0.3678(4) 0.5526(3)
O4_2 O -0.3598(5) 0.3678(4) 0.4474(3)
O4A_2 O 0.3598(5) 0.6322(4) 0.5526(3)
C2A C 0.2198(5) -0.0018(5) 0.5893(4)
H2A H 0.3186 0.0015 0.5695
N3A N -0.3503(5) 0.0869(4) 1.0496(3)
N3_2 N 0.3503(5) -0.0869(4) -0.0496(3)
N3A_2 N 0.6497(5) 0.0869(4) 0.0496(3)
N4A N -0.3761(5) 0.2111(5) 1.0092(4)
O5A O -0.2048(4) 0.5948(4) 0.6639(3)
C3A C -0.2419(6) 0.3579(5) 0.9890(4)
C4A C -0.2644(6) 0.6970(5) 1.0724(4)
N5A N -0.2633(5) 0.0241(5) 0.8122(4)
C5A C -0.2415(6) 0.5783(5) 1.0046(4)
C6A C -0.2530(7) 0.3776(6) 0.8813(4)
H3A H -0.2613 0.3118 0.8413
O6A O 0.2211(4) 0.2591(4) 0.5655(3)
N6A N -0.2507(5) 0.2342(4) 1.0348(3)
O7A O -0.4635(5) 0.6625(4) 0.3364(3)
C7A C 0.0794(5) 0.1217(5) 0.6030(4)
O8A O -0.0402(4) 0.3556(4) 0.5346(3)
C8A C -0.2384(7) 0.4549(5) 1.0529(4)
H4A H -0.2342 0.4391 1.1259
O9A O -0.3024(5) 0.8138(4) 1.0241(3)
O9A_2 O 0.6976(5) -0.1862(4) 0.0241(3)
C9A C -0.0650(6) 0.1169(5) 0.6419(4)
H5A H -0.1599 0.1986 0.6522
C10A C 0.0714(6) -0.1362(5) 0.6440(4)
H6A H 0.0669 -0.2214 0.6560
C11A C -0.0653(5) -0.0125(5) 0.6653(4)
O10A O 0.4975(4) -0.2455(4) 0.5653(3)
O10_2 O 0.5025(4) 0.2455(4) 0.4347(3)
O10A_2 O -0.5025(4) 0.7545(4) 0.5653(3)
C12A C 0.0862(6) 0.2561(5) 0.5663(4)
C13A C -0.2116(7) 0.0315(6) 1.1003(4)
H7A H -0.1680 -0.0553 1.1355
C14A C 0.2151(5) -0.1302(5) 0.6045(4)
C15A C -0.2639(6) 0.5210(5) 0.7158(4)
C16A C -0.3017(7) -0.0745(7) 0.6767(5)
H8A H -0.2874 -0.1154 0.6120
C17A C 0.3674(6) -0.2578(5) 0.5719(4)
C18A C -0.2514(6) 0.4984(5) 0.8333(4)
C19A C -0.1453(7) 0.1245(6) 1.0912(5)
H9A H -0.0490 0.1145 1.1180
C20A C -0.4197(7) -0.0574(7) 0.7548(4)
H10A H -0.5048 -0.0824 0.7523
H11A H -0.014(2) 0.446(6) 0.327(3)
H12A H -0.144(5) 0.537(4) 0.271(3)
H13A H -0.414(5) 0.676(7) 0.2799(19)
H14A H -0.520(7) 0.622(6) 0.321(3)
loop_
_geom_bond_atom_site_label_1
_geom_bond_atom_site_label_2
_geom_bond_site_symmetry_1
_geom_bond_site_symmetry_2
Nd1 O1 1_555 1_555
Co1 O9 1_555 1_555
N1 N5 1_555 1_555
O1 C15 1_555 1_555
O2 C4 1_555 1_555
C1 H1 1_555 1_555
O3 Nd1 1_555 1_555
N2 N5 1_555 1_555
O4 C17 1_555 1_555
C2 H2 1_555 1_555
N3 N4 1_555 1_555
N4 N6 1_555 1_555
O5 Nd1 1_555 1_555
C3 C6 1_555 1_555
C4 C5 1_555 1_555
C5 C1 1_555 1_555
C6 H3 1_555 1_555
O6 C12 1_555 1_555
N6 C3 1_555 1_555
O7 Nd1 1_555 1_555
C7 C2 1_555 1_555
O8 Nd1 1_555 1_555
C8 C3 1_555 1_555
H4 C8 1_555 1_555
O9 C4 1_555 1_555
C9 C7 1_555 1_555
H5 C9 1_555 1_555
C10 H6 1_555 1_555
C11 N2 1_555 1_555
O10 C17 1_555 1_555
C12 C7 1_555 1_555
C13 N3 1_555 1_555
H7 C13 1_555 1_555
C14 C2 1_555 1_555
C15 O5 1_555 1_555
C16 N2 1_555 1_555
H8 C16 1_555 1_555
C17 C14 1_555 1_555
C18 C1 1_555 1_555
C19 N6 1_555 1_555
H9 C19 1_555 1_555
C20 N1 1_555 1_555
H10 C20 1_555 1_555
H11 O3 1_555 1_555
H12 O3 1_555 1_555
H13 O7 1_555 1_555
H14 O7 1_555 1_555
Nd1A O6 1_555 1_555
Nd1_2 O10 1_555 1_555
Nd1_3 O4A 1_555 1_555
Nd1A_2 O4 1_555 1_555
Nd1A_3 O10A 1_555 1_555
Co1_2 N1A 1_555 1_555
Co1_3 O9A 1_555 1_555
Co1_4 N1 1_555 1_555
N1A N5A 1_555 1_555
N1_2 Co1 1_555 1_555
N1A_2 Co1 1_555 1_555
O1A Nd1A 1_555 1_555
O2A C4A 1_555 1_555
C1A H1A 1_555 1_555
O3A Nd1A 1_555 1_555
N2A N5A 1_555 1_555
O4A C17A 1_555 1_555
O4_2 Nd1A 1_555 1_555
O4A_2 Nd1 1_555 1_555
C2A H2A 1_555 1_555
N3A Co1_2 1_555 1_555
N3_2 Co1 1_555 1_555
N3A_2 Co1 1_555 1_555
N4A N3A 1_555 1_555
O5A Nd1A 1_555 1_555
C3A C6A 1_555 1_555
C4A C5A 1_555 1_555
C5A C1A 1_555 1_555
C6A H3A 1_555 1_555
O6A Nd1 1_555 1_555
N6A N4A 1_555 1_555
O7A Nd1A 1_555 1_555
C7A C2A 1_555 1_555
O8A Nd1A 1_555 1_555
C8A C3A 1_555 1_555
H4A C8A 1_555 1_555
O9A C4A 1_555 1_555
O9A_2 Co1 1_555 1_555
C9A C7A 1_555 1_555
H5A C9A 1_555 1_555
C10A H6A 1_555 1_555
C11A N2A 1_555 1_555
O10A C17A 1_555 1_555
O10_2 Nd1 1_555 1_555
O10A_2 Nd1A 1_555 1_555
C12A O6A 1_555 1_555
C13A N3A 1_555 1_555
H7A C13A 1_555 1_555
C14A C2A 1_555 1_555
C15A O1A 1_555 1_555
C16A N2A 1_555 1_555
H8A C16A 1_555 1_555
C17A C14A 1_555 1_555
C18A C1A 1_555 1_555
C19A N6A 1_555 1_555
H9A C19A 1_555 1_555
C20A N1A 1_555 1_555
H10A C20A 1_555 1_555
H11A O3A 1_555 1_555
H12A O3A 1_555 1_555
H13A O7A 1_555 1_555
H14A O7A 1_555 1_555
N3 Co1_4 1_555 1_555
C5 C8 1_555 1_555
C6 C18 1_555 1_555
O8 C12 1_555 1_555
C9 C11 1_555 1_555
C10 C11 1_555 1_555
C10 C14 1_555 1_555
C13 C19 1_555 1_555
C15 C18 1_555 1_555
C16 C20 1_555 1_555
O5A C15A 1_555 1_555
C3A N6A 1_555 1_555
C5A C8A 1_555 1_555
C6A C18A 1_555 1_555
C7A C12A 1_555 1_555
O8A C12A 1_555 1_555
C9A C11A 1_555 1_555
C10A C11A 1_555 1_555
C10A C14A 1_555 1_555
C13A C19A 1_555 1_555
C15A C18A 1_555 1_555
C16A C20A 1_555 1_555

#END
