
#######################################################################
#
#                 Cambridge Crystallographic Data Centre
#                                CCDC 
#
#######################################################################
#
# If this CIF has been generated from an entry in the Cambridge 
# Structural Database, then it will include bibliographic, chemical, 
# crystal, experimental, refinement or atomic coordinate data resulting 
# from the CCDC's data processing and validation procedures.
#
#######################################################################

data_HEDPAJ
_symmetry_cell_setting           triclinic
_symmetry_space_group_name_H-M   'P -1'
_symmetry_Int_Tables_number      2
_space_group_name_Hall           '-P 1'
loop_
_symmetry_equiv_pos_site_id
_symmetry_equiv_pos_as_xyz
1 x,y,z
2 -x,-y,-z
_cell_length_a                   9.2001(16)
_cell_length_b                   10.6759(18)
_cell_length_c                   12.631(2)
_cell_angle_alpha                83.966(4)
_cell_angle_beta                 84.790(4)
_cell_angle_gamma                62.573(3)
_cell_volume                     1093.8
loop_
_atom_site_label
_atom_site_type_symbol
_atom_site_fract_x
_atom_site_fract_y
_atom_site_fract_z
Gd1 Gd 0.22488(2) 0.54848(2) -0.015953(17)
Co1 Co 0.0000 1.0000 0.5000
O1 O 0.2558(5) 0.6667(4) 0.6636(3)
O2 O 0.2028(5) 0.8091(4) 0.5155(3)
C1 C 0.5638(6) -0.1332(5) 0.1416(4)
H1 H 0.5559 -0.2174 0.1523
O3 O 0.1629(4) 0.4661(4) 0.1652(3)
N1 N 0.1221(5) 0.2089(4) 0.5082(4)
O4 O 0.4707(4) 0.3627(3) 0.0412(3)
O5 O 0.3983(4) 0.4707(4) -0.1777(3)
O6 O 0.0483(5) 0.6522(4) -0.1672(3)
N2 N 0.2479(6) 0.2291(4) 0.5345(4)
O7 O 0.8328(4) -0.3700(3) 0.0527(3)
N3 N 0.2830(5) -0.0076(4) 0.2122(3)
C2 C 0.7203(5) -0.0068(4) 0.0894(4)
H2 H 0.8212 -0.0085 0.0704
C3 C 0.2392(6) 0.6911(5) 0.5659(4)
N4 N 0.1000(5) 0.0133(5) 0.3358(3)
C4 C 0.2556(6) 0.3540(5) 0.4870(4)
O8 O 0.2807(4) 0.6042(3) 0.1592(3)
C5 C 0.5828(5) 0.1217(5) 0.1056(4)
C6 C 0.2533(6) 0.5967(5) 0.3889(4)
H3 H 0.2568 0.6772 0.3555
O9 O 0.7340(4) 0.2508(3) 0.0707(3)
C7 C 0.2587(6) 0.5736(5) 0.4998(4)
C8 C 0.3558(7) 0.1170(6) 0.5918(5)
H4 H 0.4524 0.1054 0.6187
C9 C 0.5967(5) 0.2548(4) 0.0714(4)
C10 C 0.7083(5) -0.1323(4) 0.1014(4)
C11 C 0.4358(5) 0.1223(5) 0.1450(4)
H5 H 0.3431 0.2071 0.1572
C12 C 0.2270(5) 0.5261(5) 0.2103(4)
N5 N 0.2310(6) 0.0341(5) 0.3112(4)
C13 C 0.2426(6) 0.5000(5) 0.3278(4)
O10 O 0.9857(4) -0.2603(3) 0.0495(3)
C14 C 0.2641(6) 0.4485(5) 0.5489(4)
H6 H 0.2733 0.4294 0.6222
C15 C 0.4303(5) -0.0054(5) 0.1658(4)
C16 C 0.2414(6) 0.3774(5) 0.3788(4)
H7 H 0.2311 0.3129 0.3399
C17 C 0.1940(8) -0.0614(8) 0.1766(5)
H8 H 0.2106 -0.1038 0.1130
C18 C 0.2918(7) 0.0240(6) 0.6017(5)
H9 H 0.3379 -0.0654 0.6373
C19 C 0.0729(8) -0.0409(8) 0.2534(5)
H10 H -0.0143 -0.0614 0.2492
N6 N 0.1485(5) 0.0844(4) 0.5506(3)
C20 C 0.8534(5) -0.2652(4) 0.0671(4)
H11 H 0.4996(19) 0.448(5) -0.176(2)
H12 H 0.364(3) 0.517(5) -0.2364(17)
H13 H 0.094(4) 0.669(6) -0.2246(16)
H14 H -0.007(5) 0.610(5) -0.180(3)
Gd1A Gd -0.22488(2) 0.45152(2) 1.015953(17)
Gd1_2 Gd -0.77512(2) 0.54848(2) 0.984047(17)
Gd1_3 Gd -0.77512(2) 1.54848(2) 0.984047(17)
Gd1_4 Gd 1.22488(2) -0.45152(2) -0.015953(17)
Gd1A_2 Gd -1.22488(2) 1.45152(2) 1.015953(17)
Gd1A_3 Gd 0.77512(2) -0.54848(2) 0.015953(17)
Gd1A_4 Gd 0.77512(2) 0.45152(2) 0.015953(17)
Co1_2 Co 0.0000 0.0000 0.5000
O1A O -0.2558(5) 0.3333(4) 0.3364(3)
O2A O -0.2028(5) 0.1909(4) 0.4845(3)
O2A_2 O -0.2028(5) 1.1909(4) 0.4845(3)
C1A C -0.5638(6) 1.1332(5) 0.8584(4)
H1A H -0.5559 1.2174 0.8477
O3A O -0.1629(4) 0.5339(4) 0.8348(3)
N1A N -0.1221(5) 0.7911(4) 0.4918(4)
O4A O -0.4707(4) 0.6373(3) 0.9588(3)
O5A O -0.3983(4) 0.5293(4) 1.1777(3)
O6A O -0.0483(5) 0.3478(4) 1.1672(3)
N2A N -0.2479(6) 0.7709(4) 0.4655(4)
O7A O -0.8328(4) 1.3700(3) 0.9473(3)
O7_2 O -0.1672(4) 0.6300(3) 1.0527(3)
O7A_2 O 0.1672(4) 0.3700(3) -0.0527(3)
N3A N -0.2830(5) 1.0076(4) 0.7878(3)
C2A C -0.7203(5) 1.0068(4) 0.9106(4)
H2A H -0.8212 1.0085 0.9296
C3A C -0.2392(6) 0.3089(5) 0.4341(4)
N4A N -0.1000(5) 0.9867(5) 0.6642(3)
N4_2 N 0.1000(5) 1.0133(5) 0.3358(3)
C4A C -0.2556(6) 0.6460(5) 0.5130(4)
O8A O -0.2807(4) 0.3958(3) 0.8408(3)
C5A C -0.5828(5) 0.8783(5) 0.8944(4)
C6A C -0.2533(6) 0.4033(5) 0.6111(4)
H3A H -0.2568 0.3228 0.6445
O9A O -0.7340(4) 0.7492(3) 0.9293(3)
O9_2 O -0.2660(4) 0.2508(3) 1.0707(3)
O9A_2 O 0.2660(4) 0.7492(3) -0.0707(3)
C7A C -0.2587(6) 0.4264(5) 0.5002(4)
C8A C -0.3558(7) 0.8830(6) 0.4082(5)
H4A H -0.4524 0.8946 0.3813
C9A C -0.5967(5) 0.7452(4) 0.9286(4)
C10A C -0.7083(5) 1.1323(4) 0.8986(4)
C11A C -0.4358(5) 0.8777(5) 0.8550(4)
H5A H -0.3431 0.7929 0.8428
C12A C -0.2270(5) 0.4739(5) 0.7897(4)
N5A N -0.2310(6) 0.9659(5) 0.6888(4)
C13A C -0.2426(6) 0.5000(5) 0.6722(4)
O10A O -0.9857(4) 1.2603(3) 0.9505(3)
O10_2 O -0.0143(4) 0.7397(3) 0.0495(3)
O10A_2 O 0.0143(4) 0.2603(3) 0.9505(3)
C14A C -0.2641(6) 0.5515(5) 0.4511(4)
H6A H -0.2733 0.5706 0.3778
C15A C -0.4303(5) 1.0054(5) 0.8342(4)
C16A C -0.2414(6) 0.6226(5) 0.6212(4)
H7A H -0.2311 0.6871 0.6601
C17A C -0.1940(8) 1.0614(8) 0.8234(5)
H8A H -0.2106 1.1038 0.8870
C18A C -0.2918(7) 0.9760(6) 0.3983(5)
H9A H -0.3379 1.0654 0.3627
C19A C -0.0729(8) 1.0409(8) 0.7466(5)
H10A H 0.0143 1.0614 0.7508
N6A N -0.1485(5) 0.9156(4) 0.4494(3)
N6_2 N 0.1485(5) 1.0844(4) 0.5506(3)
C20A C -0.8534(5) 1.2652(4) 0.9329(4)
H11A H -0.4996(19) 0.552(5) 1.176(2)
H12A H -0.364(3) 0.483(5) 1.2364(17)
H13A H -0.094(4) 0.331(6) 1.2246(16)
H14A H 0.007(5) 0.390(5) 1.180(3)
loop_
_geom_bond_atom_site_label_1
_geom_bond_atom_site_label_2
_geom_bond_site_symmetry_1
_geom_bond_site_symmetry_2
Gd1 O3 1_555 1_555
Co1 O2 1_555 1_555
O1 C3 1_555 1_555
O2 C3 1_555 1_555
C1 H1 1_555 1_555
O3 C12 1_555 1_555
N1 N2 1_555 1_555
O4 Gd1 1_555 1_555
O5 Gd1 1_555 1_555
O6 Gd1 1_555 1_555
N2 C4 1_555 1_555
O7 C20 1_555 1_555
N3 N5 1_555 1_555
C2 H2 1_555 1_555
C3 C7 1_555 1_555
N4 N5 1_555 1_555
C4 C14 1_555 1_555
O8 Gd1 1_555 1_555
C5 C2 1_555 1_555
C6 H3 1_555 1_555
O9 C9 1_555 1_555
C7 C6 1_555 1_555
C8 N2 1_555 1_555
H4 C8 1_555 1_555
C9 O4 1_555 1_555
C10 C1 1_555 1_555
C11 C5 1_555 1_555
H5 C11 1_555 1_555
C12 O8 1_555 1_555
C13 C6 1_555 1_555
O10 C20 1_555 1_555
C14 C7 1_555 1_555
H6 C14 1_555 1_555
C15 C1 1_555 1_555
C16 C4 1_555 1_555
H7 C16 1_555 1_555
C17 N3 1_555 1_555
H8 C17 1_555 1_555
C18 C8 1_555 1_555
H9 C18 1_555 1_555
C19 N4 1_555 1_555
H10 C19 1_555 1_555
N6 N1 1_555 1_555
C20 C10 1_555 1_555
H11 O5 1_555 1_555
H12 O5 1_555 1_555
H13 O6 1_555 1_555
H14 O6 1_555 1_555
Gd1A O3A 1_555 1_555
Gd1_2 O9A 1_555 1_555
Gd1_3 O7A 1_555 1_555
Gd1_4 O10 1_555 1_555
Gd1A_2 O10A 1_555 1_555
Gd1A_3 O7 1_555 1_555
Gd1A_4 O9 1_555 1_555
Co1_2 N4 1_555 1_555
O1A C3A 1_555 1_555
O2A Co1_2 1_555 1_555
O2A_2 Co1 1_555 1_555
C1A H1A 1_555 1_555
O3A C12A 1_555 1_555
N1A N2A 1_555 1_555
O4A Gd1A 1_555 1_555
O5A Gd1A 1_555 1_555
O6A Gd1A 1_555 1_555
N2A C4A 1_555 1_555
O7A C20A 1_555 1_555
O7_2 Gd1A 1_555 1_555
O7A_2 Gd1 1_555 1_555
N3A N5A 1_555 1_555
C2A H2A 1_555 1_555
C3A O2A 1_555 1_555
N4A Co1 1_555 1_555
N4_2 Co1 1_555 1_555
C4A C14A 1_555 1_555
O8A Gd1A 1_555 1_555
C5A C2A 1_555 1_555
C6A H3A 1_555 1_555
O9A C9A 1_555 1_555
O9_2 Gd1A 1_555 1_555
O9A_2 Gd1 1_555 1_555
C7A C3A 1_555 1_555
C8A N2A 1_555 1_555
H4A C8A 1_555 1_555
C9A O4A 1_555 1_555
C10A C1A 1_555 1_555
C11A C5A 1_555 1_555
H5A C11A 1_555 1_555
C12A O8A 1_555 1_555
N5A N4A 1_555 1_555
C13A C6A 1_555 1_555
O10A C20A 1_555 1_555
O10_2 Gd1 1_555 1_555
O10A_2 Gd1A 1_555 1_555
C14A C7A 1_555 1_555
H6A C14A 1_555 1_555
C15A C1A 1_555 1_555
C16A C4A 1_555 1_555
H7A C16A 1_555 1_555
C17A N3A 1_555 1_555
H8A C17A 1_555 1_555
C18A C8A 1_555 1_555
H9A C18A 1_555 1_555
C19A N4A 1_555 1_555
H10A C19A 1_555 1_555
N6A Co1 1_555 1_555
N6_2 Co1 1_555 1_555
C20A C10A 1_555 1_555
H11A O5A 1_555 1_555
H12A O5A 1_555 1_555
H13A O6A 1_555 1_555
H14A O6A 1_555 1_555
N3 C15 1_555 1_555
C2 C10 1_555 1_555
C5 C9 1_555 1_555
C11 C15 1_555 1_555
C12 C13 1_555 1_555
C13 C16 1_555 1_555
C17 C19 1_555 1_555
C18 N6 1_555 1_555
N6 Co1_2 1_555 1_555
N1A N6A 1_555 1_555
N3A C15A 1_555 1_555
C2A C10A 1_555 1_555
C5A C9A 1_555 1_555
C6A C7A 1_555 1_555
C11A C15A 1_555 1_555
C12A C13A 1_555 1_555
C13A C16A 1_555 1_555
C17A C19A 1_555 1_555
C18A N6A 1_555 1_555

#END
