
#######################################################################
#
#                 Cambridge Crystallographic Data Centre
#                                CCDC 
#
#######################################################################
#
# If this CIF has been generated from an entry in the Cambridge 
# Structural Database, then it will include bibliographic, chemical, 
# crystal, experimental, refinement or atomic coordinate data resulting 
# from the CCDC's data processing and validation procedures.
#
#######################################################################

data_HEDQAK
_symmetry_cell_setting           triclinic
_symmetry_space_group_name_H-M   'P -1'
_symmetry_Int_Tables_number      2
_space_group_name_Hall           '-P 1'
loop_
_symmetry_equiv_pos_site_id
_symmetry_equiv_pos_as_xyz
1 x,y,z
2 -x,-y,-z
_cell_length_a                   9.5303(18)
_cell_length_b                   10.526(2)
_cell_length_c                   13.192(3)
_cell_angle_alpha                73.487(4)
_cell_angle_beta                 86.001(4)
_cell_angle_gamma                63.889(3)
_cell_volume                     1136.94
loop_
_atom_site_label
_atom_site_type_symbol
_atom_site_fract_x
_atom_site_fract_y
_atom_site_fract_z
Eu1 Eu 0.26977(2) -0.040552(19) 1.010398(15)
O1 O 0.3017(4) 0.1122(3) 0.8373(2)
O2 O 0.1859(3) -0.0243(3) 0.8326(2)
O3 O 0.3539(3) 0.1071(3) 1.0572(3)
C1 C 0.1171(5) 0.3152(4) 1.1376(3)
H1 H 0.1169 0.2232 1.1546
N1 N -0.2662(5) 0.5301(5) 1.2159(4)
N2 N -0.1488(4) 0.4201(4) 1.1888(3)
C2 C 0.3805(5) 0.2078(4) 1.0684(3)
O4 O -0.0177(3) 0.8464(3) 1.0354(2)
C3 C 0.2149(7) 0.2925(5) 0.5070(4)
O5 O 0.2396(4) 0.7430(3) 1.0534(3)
O6 O 0.5094(3) 0.2107(3) 1.0557(3)
O7 O 0.1240(4) -0.0316(4) 1.1696(2)
O8 O 0.1844(6) -0.1412(4) 0.5056(3)
C4 C 0.2355(8) 0.6100(6) 0.3403(5)
H2 H 0.2525 0.6705 0.2790
O9 O 0.4476(4) -0.1859(3) 1.1663(3)
C5 C 0.1997(7) 0.2064(6) 0.4507(4)
H3 H 0.1893 0.2378 0.3771
C6 C 0.2389(5) 0.0662(4) 0.7864(3)
C7 C 0.2498(5) 0.4676(4) 1.0757(3)
H4 H 0.3391 0.4786 1.0520
C8 C 0.1166(5) 0.5873(4) 1.0898(3)
N3 N -0.3844(5) 0.4979(5) 1.2323(5)
O10 O 0.1795(7) 0.0126(5) 0.3505(3)
N4 N 0.2178(6) 0.4282(4) 0.4505(3)
C9 C 0.2246(6) 0.1181(5) 0.6693(3)
C10 C 0.2483(5) 0.3322(4) 1.0971(3)
C11 C -0.0141(5) 0.5713(4) 1.1270(3)
H5 H -0.1036 0.6524 1.1350
C12 C -0.0120(5) 0.4348(4) 1.1524(3)
N5 N 0.1939(7) 0.6439(5) 0.4302(4)
N6 N 0.1779(7) 0.5354(5) 0.4997(4)
C13 C -0.3408(6) 0.3666(6) 1.2149(5)
H6 H -0.4039 0.3184 1.2208
C14 C 0.2495(8) 0.4733(6) 0.3520(4)
H7 H 0.2758 0.4221 0.3012
C15 C 0.2003(7) 0.0733(6) 0.5051(4)
C16 C 0.1851(8) -0.0204(6) 0.4450(4)
C17 C 0.1128(5) 0.7363(4) 1.0573(3)
C18 C 0.2305(6) 0.2480(5) 0.6164(3)
H8 H 0.2448 0.3051 0.6534
C19 C -0.1921(6) 0.3158(5) 1.1877(4)
H9 H -0.1322 0.2274 1.1717
C20 C 0.2065(7) 0.0315(5) 0.6144(4)
H10 H 0.1986 -0.0545 0.6510
H11 H 0.0253(16) -0.004(6) 1.173(2)
H12 H 0.156(3) -0.037(6) 1.2302(16)
H13 H 0.471(5) -0.276(2) 1.197(3)
H14 H 0.519(4) -0.167(4) 1.184(3)
Eu1A Eu -0.26977(2) 1.040552(19) 0.989602(15)
Eu1_2 Eu -0.73023(2) 0.959448(19) 1.010398(15)
Eu1_3 Eu 0.26977(2) 0.959448(19) 1.010398(15)
Eu1A_2 Eu -0.26977(2) 0.040552(19) 0.989602(15)
Eu1A_3 Eu 0.73023(2) 0.040552(19) 0.989602(15)
O1A O -0.3017(4) 0.8878(3) 1.1627(2)
O2A O -0.1859(3) 1.0243(3) 1.1674(2)
O3A O -0.3539(3) 0.8929(3) 0.9428(3)
C1A C -0.1171(5) 0.6848(4) 0.8624(3)
H1A H -0.1169 0.7768 0.8454
N1A N 0.2662(5) 0.4699(5) 0.7841(4)
N2A N 0.1488(4) 0.5799(4) 0.8112(3)
C2A C -0.3805(5) 0.7922(4) 0.9316(3)
O4A O 0.0177(3) 0.1536(3) 0.9646(2)
C3A C -0.2149(7) 0.7075(5) 1.4930(4)
O5A O -0.2396(4) 0.2570(3) 0.9466(3)
O5_2 O 0.2396(4) -0.2570(3) 1.0534(3)
O5A_2 O -0.2396(4) 1.2570(3) 0.9466(3)
O6A O -0.5094(3) 0.7893(3) 0.9443(3)
O6_2 O -0.4906(3) 1.2107(3) 1.0557(3)
O6A_2 O 0.4906(3) -0.2107(3) 0.9443(3)
O7A O -0.1240(4) 1.0316(4) 0.8304(2)
O8A O -0.1844(6) 1.1412(4) 1.4944(3)
C4A C -0.2355(8) 0.3900(6) 1.6597(5)
H2A H -0.2525 0.3295 1.7210
O9A O -0.4476(4) 1.1859(3) 0.8337(3)
C5A C -0.1997(7) 0.7936(6) 1.5493(4)
H3A H -0.1893 0.7622 1.6229
C6A C -0.2389(5) 0.9338(4) 1.2136(3)
C7A C -0.2498(5) 0.5324(4) 0.9243(3)
H4A H -0.3391 0.5214 0.9480
C8A C -0.1166(5) 0.4127(4) 0.9102(3)
N3A N 0.3844(5) 0.5021(5) 0.7677(5)
O10A O -0.1795(7) 0.9874(5) 1.6495(3)
N4A N -0.2178(6) 0.5718(4) 1.5495(3)
C9A C -0.2246(6) 0.8819(5) 1.3307(3)
C10A C -0.2483(5) 0.6678(4) 0.9029(3)
C11A C 0.0141(5) 0.4287(4) 0.8730(3)
H5A H 0.1036 0.3476 0.8650
C12A C 0.0120(5) 0.5652(4) 0.8476(3)
N5A N -0.1939(7) 0.3561(5) 1.5698(4)
N6A N -0.1779(7) 0.4646(5) 1.5003(4)
C13A C 0.3408(6) 0.6334(6) 0.7851(5)
H6A H 0.4039 0.6816 0.7792
C14A C -0.2495(8) 0.5267(6) 1.6480(4)
H7A H -0.2758 0.5779 1.6988
C15A C -0.2003(7) 0.9267(6) 1.4949(4)
C16A C -0.1851(8) 1.0204(6) 1.5550(4)
C17A C -0.1128(5) 0.2637(4) 0.9427(3)
C18A C -0.2305(6) 0.7520(5) 1.3836(3)
H8A H -0.2448 0.6949 1.3466
C19A C 0.1921(6) 0.6842(5) 0.8123(4)
H9A H 0.1322 0.7726 0.8283
C20A C -0.2065(7) 0.9685(5) 1.3856(4)
H10A H -0.1986 1.0545 1.3490
H11A H -0.0253(16) 1.004(6) 0.827(2)
H12A H -0.156(3) 1.037(6) 0.7698(16)
H13A H -0.471(5) 1.276(2) 0.803(3)
H14A H -0.519(4) 1.167(4) 0.816(3)
loop_
_geom_bond_atom_site_label_1
_geom_bond_atom_site_label_2
_geom_bond_site_symmetry_1
_geom_bond_site_symmetry_2
Eu1 O1 1_555 1_555
O1 C6 1_555 1_555
O2 Eu1 1_555 1_555
O3 Eu1 1_555 1_555
C1 H1 1_555 1_555
N1 N2 1_555 1_555
N2 C12 1_555 1_555
C2 O3 1_555 1_555
O4 C17 1_555 1_555
C3 C5 1_555 1_555
O5 C17 1_555 1_555
O6 C2 1_555 1_555
O7 Eu1 1_555 1_555
O8 C16 1_555 1_555
C4 H2 1_555 1_555
O9 Eu1 1_555 1_555
C5 H3 1_555 1_555
C6 O2 1_555 1_555
C7 H4 1_555 1_555
C8 C7 1_555 1_555
N3 N1 1_555 1_555
O10 C16 1_555 1_555
N4 C3 1_555 1_555
C9 C6 1_555 1_555
C10 C1 1_555 1_555
C11 C8 1_555 1_555
H5 C11 1_555 1_555
C12 C1 1_555 1_555
N5 C4 1_555 1_555
N6 N4 1_555 1_555
C13 N3 1_555 1_555
H6 C13 1_555 1_555
C14 C4 1_555 1_555
H7 C14 1_555 1_555
C15 C5 1_555 1_555
C16 C15 1_555 1_555
C17 C8 1_555 1_555
C18 C3 1_555 1_555
H8 C18 1_555 1_555
C19 N2 1_555 1_555
H9 C19 1_555 1_555
C20 C9 1_555 1_555
H10 C20 1_555 1_555
H11 O7 1_555 1_555
H12 O7 1_555 1_555
H13 O9 1_555 1_555
H14 O9 1_555 1_555
Eu1A O4 1_555 1_555
Eu1_2 O6A 1_555 1_555
Eu1_3 O5 1_555 1_555
Eu1A_2 O5A 1_555 1_555
Eu1A_3 O6 1_555 1_555
O1A Eu1A 1_555 1_555
O2A Eu1A 1_555 1_555
O3A Eu1A 1_555 1_555
C1A H1A 1_555 1_555
N1A N2A 1_555 1_555
N2A C12A 1_555 1_555
C2A O3A 1_555 1_555
O4A Eu1 1_555 1_555
C3A C5A 1_555 1_555
O5A C17A 1_555 1_555
O5_2 Eu1 1_555 1_555
O5A_2 Eu1A 1_555 1_555
O6A C2A 1_555 1_555
O6_2 Eu1A 1_555 1_555
O6A_2 Eu1 1_555 1_555
O7A Eu1A 1_555 1_555
O8A C16A 1_555 1_555
C4A H2A 1_555 1_555
O9A Eu1A 1_555 1_555
C5A H3A 1_555 1_555
C6A O1A 1_555 1_555
C7A H4A 1_555 1_555
C8A C7A 1_555 1_555
N3A N1A 1_555 1_555
O10A C16A 1_555 1_555
N4A C3A 1_555 1_555
C9A C6A 1_555 1_555
C10A C1A 1_555 1_555
C11A C8A 1_555 1_555
H5A C11A 1_555 1_555
C12A C1A 1_555 1_555
N5A C4A 1_555 1_555
N6A N4A 1_555 1_555
C13A N3A 1_555 1_555
H6A C13A 1_555 1_555
C14A C4A 1_555 1_555
H7A C14A 1_555 1_555
C15A C5A 1_555 1_555
C16A C15A 1_555 1_555
C17A O4A 1_555 1_555
C18A C3A 1_555 1_555
H8A C18A 1_555 1_555
C19A N2A 1_555 1_555
H9A C19A 1_555 1_555
C20A C9A 1_555 1_555
H10A C20A 1_555 1_555
H11A O7A 1_555 1_555
H12A O7A 1_555 1_555
H13A O9A 1_555 1_555
H14A O9A 1_555 1_555
C2 C10 1_555 1_555
C7 C10 1_555 1_555
N4 C14 1_555 1_555
C9 C18 1_555 1_555
C11 C12 1_555 1_555
N5 N6 1_555 1_555
C13 C19 1_555 1_555
C15 C20 1_555 1_555
O2A C6A 1_555 1_555
C2A C10A 1_555 1_555
C7A C10A 1_555 1_555
C8A C17A 1_555 1_555
N4A C14A 1_555 1_555
C9A C18A 1_555 1_555
C11A C12A 1_555 1_555
N5A N6A 1_555 1_555
C13A C19A 1_555 1_555
C15A C20A 1_555 1_555

#END
