
#######################################################################
#
#                 Cambridge Crystallographic Data Centre
#                                CCDC 
#
#######################################################################
#
# If this CIF has been generated from an entry in the Cambridge 
# Structural Database, then it will include bibliographic, chemical, 
# crystal, experimental, refinement or atomic coordinate data resulting 
# from the CCDC's data processing and validation procedures.
#
#######################################################################

data_HEDTIV
_symmetry_cell_setting           monoclinic
_symmetry_space_group_name_H-M   'P 21/c'
_symmetry_Int_Tables_number      14
_space_group_name_Hall           '-P 2ybc'
loop_
_symmetry_equiv_pos_site_id
_symmetry_equiv_pos_as_xyz
1 x,y,z
2 -x,1/2+y,1/2-z
3 -x,-y,-z
4 x,1/2-y,1/2+z
_cell_length_a                   10.323(3)
_cell_length_b                   20.812(5)
_cell_length_c                   10.166(3)
_cell_angle_alpha                90
_cell_angle_beta                 108.736(6)
_cell_angle_gamma                90
_cell_volume                     2068.35
loop_
_atom_site_label
_atom_site_type_symbol
_atom_site_fract_x
_atom_site_fract_y
_atom_site_fract_z
Co1 Co 0.84104(4) 0.58634(2) -0.02163(4)
O1 O 0.9573(3) 0.57203(12) 0.1714(2)
O2 O 0.7632(3) 0.57723(13) 0.2205(3)
O3 O 0.9802(3) 0.59522(13) 0.8807(2)
O4 O 0.7831(3) 0.60380(13) 0.7135(3)
O5 O 1.4016(3) 0.5955(2) 0.7435(3)
O6 O 1.3846(3) 0.54355(19) 0.5564(3)
N1 N 0.6352(3) 0.75408(14) 0.0094(3)
N2 N 0.7016(4) 0.77722(16) -0.0770(4)
N3 N 0.7549(3) 0.67425(14) -0.0249(3)
N4 N 0.4131(3) 0.93568(14) -0.2901(3)
N5 N 0.4177(3) 0.92537(15) -0.4208(3)
N6 N 0.2934(3) 1.01303(13) -0.4125(3)
N7 N 1.3347(3) 0.57244(19) 0.6329(3)
C1 C 0.3992(4) 0.79508(17) -0.0616(4)
C2 C 0.3666(4) 0.83840(16) -0.1726(4)
C3 C 0.2377(4) 0.83473(19) -0.2716(4)
H1 H 0.2146 0.8633 -0.3459
C4 C 0.1434(4) 0.7895(2) -0.2621(5)
H2 H 0.0577 0.7879 -0.3296
C5 C 0.1755(5) 0.7473(2) -0.1542(6)
H3 H 0.1124 0.7166 -0.1478
C6 C 0.3033(5) 0.7506(2) -0.0542(5)
H4 H 0.3248 0.7219 0.0200
C7 C 0.5374(4) 0.79453(19) 0.0498(4)
H5 H 0.5724 0.8381 0.0661
H6 H 0.5277 0.7784 0.1356
C8 C 0.4708(4) 0.88886(18) -0.1802(4)
H7 H 0.5043 0.9110 -0.0918
H8 H 0.5480 0.8677 -0.1965
C9 C 0.7722(4) 0.72733(18) -0.0927(4)
H9 H 0.8299 0.7285 -0.1466
C10 C 0.6668(4) 0.69320(18) 0.0371(4)
H10 H 0.6320 0.6672 0.0922
C11 C 0.3462(4) 0.97389(18) -0.4895(4)
H11 H 0.3327 0.9809 -0.5833
C12 C 0.3400(3) 0.98717(17) -0.2867(3)
H12 H 0.3235 1.0030 -0.2080
C13 C 0.9716(3) 0.57906(15) 0.4081(3)
C14 C 0.9070(3) 0.58803(15) 0.5067(3)
H13 H 0.8120 0.5907 0.4788
C15 C 0.9820(3) 0.59315(15) 0.6467(3)
C16 C 1.1238(4) 0.58978(16) 0.6892(3)
H14 H 1.1754 0.5943 0.7823
C17 C 1.1859(3) 0.57965(17) 0.5898(3)
C18 C 1.1127(4) 0.57364(16) 0.4500(3)
H15 H 1.1575 0.5661 0.3854
C19 C 0.8890(4) 0.57570(16) 0.2560(3)
C20 C 0.9093(4) 0.59817(16) 0.7526(4)
Co1_2 Co 0.84104(4) 0.58634(2) 0.97837(4)
Co1A Co 0.15896(4) 1.08634(2) -0.47837(4)
O3_2 O 0.9802(3) 0.59522(13) -0.1193(2)
O4_2 O 0.7831(3) 0.60380(13) -0.2865(3)
N6A N 0.7066(3) 0.51303(13) -0.0875(3)
loop_
_geom_bond_atom_site_label_1
_geom_bond_atom_site_label_2
_geom_bond_site_symmetry_1
_geom_bond_site_symmetry_2
Co1 O1 1_555 1_555
O1 C19 1_555 1_555
O2 C19 1_555 1_555
O3 C20 1_555 1_555
O4 C20 1_555 1_555
O5 N7 1_555 1_555
O6 N7 1_555 1_555
N1 N2 1_555 1_555
N2 C9 1_555 1_555
N3 Co1 1_555 1_555
N4 N5 1_555 1_555
N5 C11 1_555 1_555
N6 C11 1_555 1_555
N7 C17 1_555 1_555
C1 C2 1_555 1_555
C2 C3 1_555 1_555
C3 H1 1_555 1_555
C4 C3 1_555 1_555
H2 C4 1_555 1_555
C5 C4 1_555 1_555
H3 C5 1_555 1_555
C6 C1 1_555 1_555
H4 C6 1_555 1_555
C7 N1 1_555 1_555
H5 C7 1_555 1_555
H6 C7 1_555 1_555
C8 N4 1_555 1_555
H7 C8 1_555 1_555
H8 C8 1_555 1_555
C9 N3 1_555 1_555
H9 C9 1_555 1_555
C10 N1 1_555 1_555
H10 C10 1_555 1_555
C11 H11 1_555 1_555
C12 N4 1_555 1_555
H12 C12 1_555 1_555
C13 C14 1_555 1_555
C14 H13 1_555 1_555
C15 C14 1_555 1_555
C16 C15 1_555 1_555
H14 C16 1_555 1_555
C17 C16 1_555 1_555
C18 C13 1_555 1_555
H15 C18 1_555 1_555
C19 C13 1_555 1_555
C20 C15 1_555 1_555
Co1_2 O3 1_555 1_555
Co1A N6 1_555 1_555
O3_2 Co1 1_555 1_555
O4_2 Co1 1_555 1_555
N6A Co1 1_555 1_555
O4 Co1_2 1_555 1_555
N3 C10 1_555 1_555
N6 C12 1_555 1_555
C1 C7 1_555 1_555
C2 C8 1_555 1_555
C5 C6 1_555 1_555
C17 C18 1_555 1_555

#END
