
#######################################################################
#
#                 Cambridge Crystallographic Data Centre
#                                CCDC 
#
#######################################################################
#
# If this CIF has been generated from an entry in the Cambridge 
# Structural Database, then it will include bibliographic, chemical, 
# crystal, experimental, refinement or atomic coordinate data resulting 
# from the CCDC's data processing and validation procedures.
#
#######################################################################

data_HEDZOH
_symmetry_cell_setting           monoclinic
_symmetry_space_group_name_H-M   'P 21/c'
_symmetry_Int_Tables_number      14
_space_group_name_Hall           '-P 2ybc'
loop_
_symmetry_equiv_pos_site_id
_symmetry_equiv_pos_as_xyz
1 x,y,z
2 -x,1/2+y,1/2-z
3 -x,-y,-z
4 x,1/2-y,1/2+z
_cell_length_a                   7.4020(3)
_cell_length_b                   21.9260(7)
_cell_length_c                   17.9520(9)
_cell_angle_alpha                90
_cell_angle_beta                 100.108(4)
_cell_angle_gamma                90
_cell_volume                     2868.32
loop_
_atom_site_label
_atom_site_type_symbol
_atom_site_fract_x
_atom_site_fract_y
_atom_site_fract_z
Cd1 Cd -0.04061(4) 0.176799(13) 0.063635(19)
C1 C -1.2510(6) 0.66077(17) 0.3239(3)
C2 C -1.4115(6) 0.65745(17) 0.2594(3)
C3 C -1.5771(6) 0.68222(17) 0.2734(3)
H1 H -1.5880 0.6925 0.3226
C4 C -1.7219(6) 0.6915(2) 0.2164(3)
H2 H -1.8306 0.7080 0.2268
C5 C -1.7070(7) 0.6764(2) 0.1438(3)
H3 H -1.8027 0.6850 0.1042
C6 C -1.5484(7) 0.6484(2) 0.1293(3)
H4 H -1.5422 0.6361 0.0802
C7 C -1.3990(6) 0.63825(18) 0.1865(3)
C8 C -1.2357(6) 0.60542(18) 0.1679(3)
C9 C -1.1831(6) 0.6128(2) 0.0991(3)
H5 H -1.2483 0.6397 0.0643
C10 C -1.0351(7) 0.5813(2) 0.0796(3)
H6 H -1.0020 0.5873 0.0325
C11 C -0.9381(6) 0.54127(19) 0.1303(3)
C12 C -0.9909(7) 0.5321(2) 0.1990(3)
H7 H -0.9269 0.5046 0.2333
C13 C -1.1399(7) 0.56387(19) 0.2175(3)
H8 H -1.1753 0.5570 0.2640
C14 C -0.7693(7) 0.50940(18) 0.1120(3)
H9 H -0.7482 0.5215 0.0623
H10 H -0.6621 0.5202 0.1490
C15 C -0.6661(6) 0.40747(18) 0.1009(2)
C16 C -0.4878(6) 0.42356(19) 0.0957(3)
H11 H -0.4520 0.4643 0.0996
C17 C -0.3634(6) 0.37889(19) 0.0847(3)
H12 H -0.2431 0.3899 0.0827
C18 C -0.4135(5) 0.31832(17) 0.0766(2)
C19 C -0.5927(6) 0.30312(18) 0.0823(2)
H13 H -0.6289 0.2625 0.0774
C20 C -0.7166(6) 0.34582(18) 0.0947(2)
H14 H -0.8351 0.3342 0.0992
C21 C -0.2822(6) 0.26945(19) 0.0632(2)
C22 C -0.0742(7) 0.1679(2) -0.1183(4)
H15 H -0.1982 0.1584 -0.1232
C23 C 0.0152(8) 0.1754(3) -0.1760(3)
H16 H -0.0331 0.1725 -0.2273
C24 C 0.2020(6) 0.18687(18) -0.0698(3)
H17 H 0.3097 0.1928 -0.0351
C25 C 0.3473(7) 0.1991(2) -0.1837(3)
H18 H 0.4467 0.2181 -0.1491
H19 H 0.3094 0.2270 -0.2254
C26 C 0.4149(7) 0.1417(2) -0.2132(3)
H20 H 0.3161 0.1219 -0.2474
H21 H 0.5130 0.1506 -0.2410
C27 C 0.3459(6) -0.07770(18) -0.0846(2)
H22 H 0.4296 -0.1093 -0.0850
C28 C 0.1015(6) -0.0280(2) -0.0774(3)
H23 H -0.0182 -0.0189 -0.0719
C29 C 0.2263(6) 0.01323(19) -0.0898(3)
H24 H 0.2099 0.0552 -0.0942
C30 C 0.5606(6) 0.0041(2) -0.1079(3)
H25 H 0.6208 0.0256 -0.0632
H26 H 0.6374 -0.0303 -0.1161
C31 C 0.5430(7) 0.0457(2) -0.1743(3)
H27 H 0.4564 0.0292 -0.2163
H28 H 0.6608 0.0505 -0.1902
O1 O -1.2649(4) 0.63780(14) 0.38604(18)
O2 O -1.1110(4) 0.68891(13) 0.31329(17)
O3 O -0.8016(4) 0.44610(12) 0.11393(19)
O4 O -0.1160(4) 0.28229(13) 0.0685(2)
O5 O -0.3394(4) 0.21653(12) 0.04843(19)
O6 O 0.4799(4) 0.10296(13) -0.15161(18)
N1 N 0.0415(5) 0.17606(16) -0.0508(2)
N2 N 0.1920(5) 0.18831(16) -0.1441(2)
N3 N 0.1744(5) -0.08514(15) -0.0738(2)
N4 N 0.3827(4) -0.01860(15) -0.0948(2)
Cd1B Cd 0.04061(4) -0.176799(13) -0.063635(19)
Cd1A Cd -0.95939(4) 0.676799(13) 0.436365(19)
Cd1C Cd 0.95939(4) -0.676799(13) -0.436365(19)
C1B C 1.2510(6) -0.66077(17) -0.3239(3)
C1A C 0.2510(6) 0.16077(17) 0.1761(3)
C1C C -0.2510(6) -0.16077(17) -0.1761(3)
C2B C 1.4115(6) -0.65745(17) -0.2594(3)
C3B C 1.5771(6) -0.68222(17) -0.2734(3)
H1B H 1.5880 -0.6925 -0.3226
C4B C 1.7219(6) -0.6915(2) -0.2164(3)
H2B H 1.8306 -0.7080 -0.2268
C5B C 1.7070(7) -0.6764(2) -0.1438(3)
H3B H 1.8027 -0.6850 -0.1042
C6B C 1.5484(7) -0.6484(2) -0.1293(3)
H4B H 1.5422 -0.6361 -0.0802
C7B C 1.3990(6) -0.63825(18) -0.1865(3)
C8B C 1.2357(6) -0.60542(18) -0.1679(3)
C9B C 1.1831(6) -0.6128(2) -0.0991(3)
H5B H 1.2483 -0.6397 -0.0643
C10B C 1.0351(7) -0.5813(2) -0.0796(3)
H6B H 1.0020 -0.5873 -0.0325
C11B C 0.9381(6) -0.54127(19) -0.1303(3)
C12B C 0.9909(7) -0.5321(2) -0.1990(3)
H7B H 0.9269 -0.5046 -0.2333
C13B C 1.1399(7) -0.56387(19) -0.2175(3)
H8B H 1.1753 -0.5570 -0.2640
C14B C 0.7693(7) -0.50940(18) -0.1120(3)
H9B H 0.7482 -0.5215 -0.0623
H10B H 0.6621 -0.5202 -0.1490
C15B C 0.6661(6) -0.40747(18) -0.1009(2)
C16B C 0.4878(6) -0.42356(19) -0.0957(3)
H11B H 0.4520 -0.4643 -0.0996
C17B C 0.3634(6) -0.37889(19) -0.0847(3)
H12B H 0.2431 -0.3899 -0.0827
C18B C 0.4135(5) -0.31832(17) -0.0766(2)
C19B C 0.5927(6) -0.30312(18) -0.0823(2)
H13B H 0.6289 -0.2625 -0.0774
C20B C 0.7166(6) -0.34582(18) -0.0947(2)
H14B H 0.8351 -0.3342 -0.0992
C21B C 0.2822(6) -0.26945(19) -0.0632(2)
C22B C 0.0742(7) -0.1679(2) 0.1183(4)
H15B H 0.1982 -0.1584 0.1232
C23B C -0.0152(8) -0.1754(3) 0.1760(3)
H16B H 0.0331 -0.1725 0.2273
C24B C -0.2020(6) -0.18687(18) 0.0698(3)
H17B H -0.3097 -0.1928 0.0351
C25B C -0.3473(7) -0.1991(2) 0.1837(3)
H18B H -0.4467 -0.2181 0.1491
H19B H -0.3094 -0.2270 0.2254
C26B C -0.4149(7) -0.1417(2) 0.2132(3)
H20B H -0.3161 -0.1219 0.2474
H21B H -0.5130 -0.1506 0.2410
C27B C -0.3459(6) 0.07770(18) 0.0846(2)
H22B H -0.4296 0.1093 0.0850
C28B C -0.1015(6) 0.0280(2) 0.0774(3)
H23B H 0.0182 0.0189 0.0719
C29B C -0.2263(6) -0.01323(19) 0.0898(3)
H24B H -0.2099 -0.0552 0.0942
C30B C -0.5606(6) -0.0041(2) 0.1079(3)
H25B H -0.6208 -0.0256 0.0632
H26B H -0.6374 0.0303 0.1161
C31B C -0.5430(7) -0.0457(2) 0.1743(3)
H27B H -0.4564 -0.0292 0.2163
H28B H -0.6608 -0.0505 0.1902
O1B O 1.2649(4) -0.63780(14) -0.38604(18)
O1A O 0.2649(4) 0.13780(14) 0.11396(18)
O1C O -0.2649(4) -0.13780(14) -0.11396(18)
O2B O 1.1110(4) -0.68891(13) -0.31329(17)
O2A O 0.1110(4) 0.18891(13) 0.18671(17)
O2C O -0.1110(4) -0.18891(13) -0.18671(17)
O3B O 0.8016(4) -0.44610(12) -0.11393(19)
O4B O 0.1160(4) -0.28229(13) -0.0685(2)
O5B O 0.3394(4) -0.21653(12) -0.04843(19)
O6B O -0.4799(4) -0.10296(13) 0.15161(18)
N1B N -0.0415(5) -0.17606(16) 0.0508(2)
N2B N -0.1920(5) -0.18831(16) 0.1441(2)
N3B N -0.1744(5) 0.08514(15) 0.0738(2)
N4B N -0.3827(4) 0.01860(15) 0.0948(2)
loop_
_geom_bond_atom_site_label_1
_geom_bond_atom_site_label_2
_geom_bond_site_symmetry_1
_geom_bond_site_symmetry_2
Cd1 O4 1_555 1_555
C1 C2 1_555 1_555
C2 C3 1_555 1_555
C3 H1 1_555 1_555
C4 C3 1_555 1_555
H2 C4 1_555 1_555
C5 C4 1_555 1_555
H3 C5 1_555 1_555
C6 C5 1_555 1_555
H4 C6 1_555 1_555
C7 C2 1_555 1_555
C8 C7 1_555 1_555
C9 C8 1_555 1_555
H5 C9 1_555 1_555
C10 C9 1_555 1_555
H6 C10 1_555 1_555
C11 C10 1_555 1_555
C12 C11 1_555 1_555
H7 C12 1_555 1_555
C13 C8 1_555 1_555
H8 C13 1_555 1_555
C14 C11 1_555 1_555
H9 C14 1_555 1_555
H10 C14 1_555 1_555
C15 C16 1_555 1_555
C16 H11 1_555 1_555
C17 C16 1_555 1_555
H12 C17 1_555 1_555
C18 C17 1_555 1_555
C19 C18 1_555 1_555
H13 C19 1_555 1_555
C20 C15 1_555 1_555
H14 C20 1_555 1_555
C21 C18 1_555 1_555
C22 H15 1_555 1_555
C23 C22 1_555 1_555
H16 C23 1_555 1_555
C24 H17 1_555 1_555
C25 H18 1_555 1_555
H19 C25 1_555 1_555
C26 C25 1_555 1_555
H20 C26 1_555 1_555
H21 C26 1_555 1_555
C27 H22 1_555 1_555
C28 H23 1_555 1_555
C29 C28 1_555 1_555
H24 C29 1_555 1_555
C30 H25 1_555 1_555
H26 C30 1_555 1_555
C31 C30 1_555 1_555
H27 C31 1_555 1_555
H28 C31 1_555 1_555
O1 C1 1_555 1_555
O2 C1 1_555 1_555
O3 C14 1_555 1_555
O4 C21 1_555 1_555
O5 Cd1 1_555 1_555
O6 C26 1_555 1_555
N1 Cd1 1_555 1_555
N2 C23 1_555 1_555
N3 C27 1_555 1_555
N4 C27 1_555 1_555
Cd1B N3 1_555 1_555
Cd1A O1 1_555 1_555
Cd1C O1B 1_555 1_555
C1B C2B 1_555 1_555
C1A O1A 1_555 1_555
C1C O1C 1_555 1_555
C2B C3B 1_555 1_555
C3B H1B 1_555 1_555
C4B C3B 1_555 1_555
H2B C4B 1_555 1_555
C5B C4B 1_555 1_555
H3B C5B 1_555 1_555
C6B C5B 1_555 1_555
H4B C6B 1_555 1_555
C7B C2B 1_555 1_555
C8B C7B 1_555 1_555
C9B C8B 1_555 1_555
H5B C9B 1_555 1_555
C10B C9B 1_555 1_555
H6B C10B 1_555 1_555
C11B C10B 1_555 1_555
C12B C11B 1_555 1_555
H7B C12B 1_555 1_555
C13B C8B 1_555 1_555
H8B C13B 1_555 1_555
C14B C11B 1_555 1_555
H9B C14B 1_555 1_555
H10B C14B 1_555 1_555
C15B C16B 1_555 1_555
C16B H11B 1_555 1_555
C17B C16B 1_555 1_555
H12B C17B 1_555 1_555
C18B C17B 1_555 1_555
C19B C18B 1_555 1_555
H13B C19B 1_555 1_555
C20B C15B 1_555 1_555
H14B C20B 1_555 1_555
C21B C18B 1_555 1_555
C22B H15B 1_555 1_555
C23B C22B 1_555 1_555
H16B C23B 1_555 1_555
C24B H17B 1_555 1_555
C25B H18B 1_555 1_555
H19B C25B 1_555 1_555
C26B C25B 1_555 1_555
H20B C26B 1_555 1_555
H21B C26B 1_555 1_555
C27B H22B 1_555 1_555
C28B H23B 1_555 1_555
C29B C28B 1_555 1_555
H24B C29B 1_555 1_555
C30B H25B 1_555 1_555
H26B C30B 1_555 1_555
C31B C30B 1_555 1_555
H27B C31B 1_555 1_555
H28B C31B 1_555 1_555
O1B C1B 1_555 1_555
O1A Cd1 1_555 1_555
O1C Cd1B 1_555 1_555
O2B Cd1C 1_555 1_555
O2A Cd1 1_555 1_555
O2C Cd1B 1_555 1_555
O3B C14B 1_555 1_555
O4B Cd1B 1_555 1_555
O5B Cd1B 1_555 1_555
O6B C26B 1_555 1_555
N1B Cd1B 1_555 1_555
N2B C23B 1_555 1_555
N3B Cd1 1_555 1_555
N4B C27B 1_555 1_555
C6 C7 1_555 1_555
C12 C13 1_555 1_555
C15 O3 1_555 1_555
C19 C20 1_555 1_555
C21 O5 1_555 1_555
C22 N1 1_555 1_555
C24 N1 1_555 1_555
C24 N2 1_555 1_555
C25 N2 1_555 1_555
C28 N3 1_555 1_555
C29 N4 1_555 1_555
C30 N4 1_555 1_555
C31 O6 1_555 1_555
O2 Cd1A 1_555 1_555
C1B O2B 1_555 1_555
C1A O2A 1_555 1_555
C1C O2C 1_555 1_555
C6B C7B 1_555 1_555
C12B C13B 1_555 1_555
C15B O3B 1_555 1_555
C19B C20B 1_555 1_555
C21B O4B 1_555 1_555
C21B O5B 1_555 1_555
C22B N1B 1_555 1_555
C24B N1B 1_555 1_555
C24B N2B 1_555 1_555
C25B N2B 1_555 1_555
C27B N3B 1_555 1_555
C28B N3B 1_555 1_555
C29B N4B 1_555 1_555
C30B N4B 1_555 1_555
C31B O6B 1_555 1_555

#END
