
#######################################################################
#
#                 Cambridge Crystallographic Data Centre
#                                CCDC 
#
#######################################################################
#
# If this CIF has been generated from an entry in the Cambridge 
# Structural Database, then it will include bibliographic, chemical, 
# crystal, experimental, refinement or atomic coordinate data resulting 
# from the CCDC's data processing and validation procedures.
#
#######################################################################

data_HEFCEC
_symmetry_cell_setting           monoclinic
_symmetry_space_group_name_H-M   'P 21/n'
_symmetry_Int_Tables_number      14
_space_group_name_Hall           '-P 2yn'
loop_
_symmetry_equiv_pos_site_id
_symmetry_equiv_pos_as_xyz
1 x,y,z
2 1/2-x,1/2+y,1/2-z
3 -x,-y,-z
4 1/2+x,1/2-y,1/2+z
_cell_length_a                   13.4310(7)
_cell_length_b                   7.0310(3)
_cell_length_c                   18.3430(8)
_cell_angle_alpha                90
_cell_angle_beta                 98.067(4)
_cell_angle_gamma                90
_cell_volume                     1715.05
loop_
_atom_site_label
_atom_site_type_symbol
_atom_site_fract_x
_atom_site_fract_y
_atom_site_fract_z
Pb1 Pb 0.33328(2) 0.09336(4) 0.742235(16)
C1 C 0.1418(6) 0.0100(10) 0.6667(4)
C2 C 0.0399(6) -0.0369(9) 0.6259(4)
C3 C 0.0366(6) -0.1876(10) 0.5759(4)
H1 H 0.0945 -0.2589 0.5738
C4 C -0.0495(7) -0.2328(11) 0.5301(4)
H2 H -0.0497 -0.3318 0.4964
C5 C -0.1362(6) -0.1300(11) 0.5344(4)
H3 H -0.1951 -0.1578 0.5031
C6 C -0.1345(6) 0.0145(11) 0.5854(4)
H4 H -0.1941 0.0779 0.5897
C7 C -0.0469(6) 0.0697(10) 0.6311(4)
C8 C -0.0569(5) 0.2357(10) 0.6811(4)
C9 C -0.1058(6) 0.3967(10) 0.6503(4)
H5 H -0.1264 0.4021 0.5997
C10 C -0.1241(6) 0.5496(11) 0.6945(5)
H6 H -0.1563 0.6569 0.6729
C11 C -0.0955(6) 0.5455(10) 0.7701(4)
C12 C -0.0459(5) 0.3841(9) 0.8000(4)
H7 H -0.0245 0.3787 0.8504
C13 C -0.0277(6) 0.2327(9) 0.7567(4)
H8 H 0.0047 0.1258 0.7784
C14 C -0.1123(6) 0.7183(11) 0.8145(4)
H9 H -0.1731 0.7830 0.7929
H10 H -0.0563 0.8055 0.8149
C15 C -0.1274(5) 0.7965(10) 0.9399(4)
C16 C -0.1219(6) 0.9894(10) 0.9290(4)
H11 H -0.1135 1.0370 0.8830
C17 C -0.1290(6) 1.1115(10) 0.9866(4)
H12 H -0.1254 1.2419 0.9790
C18 C -0.1413(6) 1.0444(10) 1.0558(4)
C19 C -0.1475(6) 0.8509(10) 1.0659(4)
H13 H -0.1575 0.8034 1.1116
C20 C -0.1390(6) 0.7279(10) 1.0092(4)
H14 H -0.1409 0.5974 1.0172
C21 C -0.1469(5) 1.1755(10) 1.1189(4)
O1 O 0.2060(4) -0.1249(6) 0.6750(3)
O2 O 0.1635(4) 0.1741(6) 0.6898(3)
O3 O -0.1213(4) 0.6606(7) 0.8881(3)
O4 O -0.1515(5) 1.1031(7) 1.1817(3)
O5 O -0.1468(4) 1.3523(7) 1.1115(3)
Pb1C Pb -0.16672(2) 1.40664(4) 1.242235(16)
O4C O 0.3485(5) 0.3969(7) 0.6817(3)
O5C O 0.3532(4) 0.1477(7) 0.6115(3)
loop_
_geom_bond_atom_site_label_1
_geom_bond_atom_site_label_2
_geom_bond_site_symmetry_1
_geom_bond_site_symmetry_2
Pb1 O1 1_555 1_555
C1 C2 1_555 1_555
C2 C3 1_555 1_555
C3 H1 1_555 1_555
C4 C3 1_555 1_555
H2 C4 1_555 1_555
C5 C4 1_555 1_555
H3 C5 1_555 1_555
C6 C5 1_555 1_555
H4 C6 1_555 1_555
C7 C2 1_555 1_555
C8 C7 1_555 1_555
C9 C8 1_555 1_555
H5 C9 1_555 1_555
C10 C9 1_555 1_555
H6 C10 1_555 1_555
C11 C10 1_555 1_555
C12 C11 1_555 1_555
H7 C12 1_555 1_555
C13 C8 1_555 1_555
H8 C13 1_555 1_555
C14 C11 1_555 1_555
H9 C14 1_555 1_555
H10 C14 1_555 1_555
C15 C16 1_555 1_555
C16 H11 1_555 1_555
C17 C16 1_555 1_555
H12 C17 1_555 1_555
C18 C17 1_555 1_555
C19 C18 1_555 1_555
H13 C19 1_555 1_555
C20 C15 1_555 1_555
H14 C20 1_555 1_555
C21 C18 1_555 1_555
O1 C1 1_555 1_555
O2 Pb1 1_555 1_555
O3 C14 1_555 1_555
O4 C21 1_555 1_555
O5 C21 1_555 1_555
Pb1C O4 1_555 1_555
O4C Pb1 1_555 1_555
O5C Pb1 1_555 1_555
C1 O2 1_555 1_555
C6 C7 1_555 1_555
C12 C13 1_555 1_555
C15 O3 1_555 1_555
C19 C20 1_555 1_555
O5 Pb1C 1_555 1_555

#END
