
#######################################################################
#
#                 Cambridge Crystallographic Data Centre
#                                CCDC 
#
#######################################################################
#
# If this CIF has been generated from an entry in the Cambridge 
# Structural Database, then it will include bibliographic, chemical, 
# crystal, experimental, refinement or atomic coordinate data resulting 
# from the CCDC's data processing and validation procedures.
#
#######################################################################

data_HEFCAX
_symmetry_cell_setting           triclinic
_symmetry_space_group_name_H-M   'P -1'
_symmetry_Int_Tables_number      2
_space_group_name_Hall           '-P 1'
loop_
_symmetry_equiv_pos_site_id
_symmetry_equiv_pos_as_xyz
1 x,y,z
2 -x,-y,-z
_cell_length_a                   7.4682(2)
_cell_length_b                   8.0849(2)
_cell_length_c                   9.6306(3)
_cell_angle_alpha                66.0960(10)
_cell_angle_beta                 68.8100(10)
_cell_angle_gamma                75.0920(10)
_cell_volume                     491.466
loop_
_atom_site_label
_atom_site_type_symbol
_atom_site_fract_x
_atom_site_fract_y
_atom_site_fract_z
Mn1 Mn 1.0000 0.0000 0.0000
N1 N 1.16011(18) 0.21266(17) -0.02897(15)
C1 C 0.7754(3) -0.3770(2) 0.65798(18)
H1 H 0.8421 -0.4836 0.6270
H2 H 0.6367 -0.3874 0.7064
H3 H 0.8288 -0.3709 0.7347
N2 N 0.88460(17) -0.05502(16) 0.26747(13)
C2 C 1.28693(19) 0.27584(18) -0.03786(15)
N3 N 1.42025(17) 0.36213(16) -0.04905(16)
N4 N 0.80293(18) -0.21093(16) 0.51726(13)
C3 C 0.7606(2) -0.03465(19) 0.51024(16)
N5 N 0.87668(18) -0.22165(16) 0.37134(14)
C4 C 0.8142(2) 0.06637(19) 0.34763(16)
N6 N 1.74227(17) 0.20063(17) -0.02891(14)
C5 C 0.7943(2) 0.2573(2) 0.29355(17)
H4 H 0.8296 0.3276 0.1835
C6 C 0.6663(3) 0.2334(2) 0.57135(19)
H5 H 0.6155 0.2950 0.6459
C7 C 1.5892(2) 0.26997(18) -0.03680(15)
C8 C 0.7213(3) 0.3378(2) 0.40708(18)
H6 H 0.7073 0.4670 0.3748
C9 C 0.6838(2) 0.0473(2) 0.62603(18)
H7 H 0.6461 -0.0222 0.7361
Mn1_2 Mn 2.0000 0.0000 0.0000
Mn1_3 Mn 0.0000 0.0000 0.0000
N1A N 0.83989(18) -0.21266(17) 0.02897(15)
C1A C 1.2246(3) 0.3770(2) -0.65798(18)
H1A H 1.1579 0.4836 -0.6270
H2A H 1.3633 0.3874 -0.7064
H3A H 1.1712 0.3709 -0.7347
N2A N 1.11540(17) 0.05502(16) -0.26747(13)
C2A C 0.71307(19) -0.27584(18) 0.03786(15)
N3A N 0.57975(17) -0.36213(16) 0.04905(16)
N4A N 1.19707(18) 0.21093(16) -0.51726(13)
C3A C 1.2394(2) 0.03465(19) -0.51024(16)
N5A N 1.12332(18) 0.22165(16) -0.37134(14)
C4A C 1.1858(2) -0.06637(19) -0.34763(16)
N6A N 0.25773(17) -0.20063(17) 0.02891(14)
N6_2 N 0.74227(17) 0.20063(17) -0.02891(14)
N6A_2 N 1.25773(17) -0.20063(17) 0.02891(14)
C5A C 1.2057(2) -0.2573(2) -0.29355(17)
H4A H 1.1704 -0.3276 -0.1835
C6A C 1.3337(3) -0.2334(2) -0.57135(19)
H5A H 1.3845 -0.2950 -0.6459
C7A C 0.4108(2) -0.26997(18) 0.03680(15)
C8A C 1.2787(3) -0.3378(2) -0.40708(18)
H6A H 1.2927 -0.4670 -0.3748
C9A C 1.3162(2) -0.0473(2) -0.62603(18)
H7A H 1.3539 0.0222 -0.7361
loop_
_geom_bond_atom_site_label_1
_geom_bond_atom_site_label_2
_geom_bond_site_symmetry_1
_geom_bond_site_symmetry_2
Mn1 N1 1_555 1_555
N1 C2 1_555 1_555
C1 H1 1_555 1_555
H2 C1 1_555 1_555
H3 C1 1_555 1_555
N2 Mn1 1_555 1_555
C2 N3 1_555 1_555
N3 C7 1_555 1_555
N4 C1 1_555 1_555
C3 N4 1_555 1_555
N5 N2 1_555 1_555
C4 N2 1_555 1_555
N6 C7 1_555 1_555
C5 C4 1_555 1_555
H4 C5 1_555 1_555
C6 H5 1_555 1_555
C8 C5 1_555 1_555
H6 C8 1_555 1_555
C9 C3 1_555 1_555
H7 C9 1_555 1_555
Mn1_2 N6 1_555 1_555
Mn1_3 N6A 1_555 1_555
N1A Mn1 1_555 1_555
C1A H1A 1_555 1_555
H2A C1A 1_555 1_555
H3A C1A 1_555 1_555
N2A Mn1 1_555 1_555
C2A N1A 1_555 1_555
N3A C2A 1_555 1_555
N4A C1A 1_555 1_555
C3A N4A 1_555 1_555
N5A N2A 1_555 1_555
C4A N2A 1_555 1_555
N6A C7A 1_555 1_555
N6_2 Mn1 1_555 1_555
N6A_2 Mn1 1_555 1_555
C5A C4A 1_555 1_555
H4A C5A 1_555 1_555
C6A H5A 1_555 1_555
C7A N3A 1_555 1_555
C8A C5A 1_555 1_555
H6A C8A 1_555 1_555
C9A C3A 1_555 1_555
H7A C9A 1_555 1_555
N4 N5 1_555 1_555
C3 C4 1_555 1_555
C6 C8 1_555 1_555
C6 C9 1_555 1_555
N4A N5A 1_555 1_555
C3A C4A 1_555 1_555
C6A C8A 1_555 1_555
C6A C9A 1_555 1_555

#END
