
#######################################################################
#
#                 Cambridge Crystallographic Data Centre
#                                CCDC 
#
#######################################################################
#
# If this CIF has been generated from an entry in the Cambridge 
# Structural Database, then it will include bibliographic, chemical, 
# crystal, experimental, refinement or atomic coordinate data resulting 
# from the CCDC's data processing and validation procedures.
#
#######################################################################

data_HEFCEB
_symmetry_cell_setting           triclinic
_symmetry_space_group_name_H-M   'P -1'
_symmetry_Int_Tables_number      2
_space_group_name_Hall           '-P 1'
loop_
_symmetry_equiv_pos_site_id
_symmetry_equiv_pos_as_xyz
1 x,y,z
2 -x,-y,-z
_cell_length_a                   7.3932(2)
_cell_length_b                   8.09260(10)
_cell_length_c                   9.5947(3)
_cell_angle_alpha                65.6610(10)
_cell_angle_beta                 67.9440(10)
_cell_angle_gamma                74.531(2)
_cell_volume                     480.477
loop_
_atom_site_label
_atom_site_type_symbol
_atom_site_fract_x
_atom_site_fract_y
_atom_site_fract_z
Fe1 Fe 1.0000 0.0000 0.5000
N1 N 0.74930(19) 0.20043(18) 0.46955(17)
N2 N 0.4185(2) 0.35626(18) 0.45596(18)
N3 N 0.1672(2) 0.20047(18) 0.46660(17)
N4 N 0.88705(19) -0.05325(17) 0.76079(15)
N5 N 0.8758(2) -0.21999(18) 0.86595(16)
N6 N 0.8009(2) -0.20954(18) 1.01326(16)
C1 C 0.5924(2) 0.2674(2) 0.46421(18)
C2 C 0.2904(2) 0.2671(2) 0.46176(18)
C3 C 0.8181(2) 0.0689(2) 0.84147(18)
C4 C 0.8017(2) 0.2603(2) 0.7858(2)
C5 C 0.7286(3) 0.3410(2) 0.9008(2)
C6 C 0.6702(3) 0.2371(3) 1.0662(2)
C7 C 0.6845(3) 0.0497(2) 1.1227(2)
C8 C 0.7613(2) -0.0321(2) 1.00551(19)
C9 C 0.7692(3) -0.3748(2) 1.1555(2)
H1 H 0.836(3) 0.328(2) 0.678(2)
H2 H 0.720(3) 0.473(3) 0.865(2)
H3 H 0.620(3) 0.297(3) 1.139(3)
H4 H 0.645(3) -0.022(3) 1.236(3)
H5 H 0.633(4) -0.385(3) 1.203(3)
H6 H 0.821(3) -0.371(3) 1.232(3)
H7 H 0.840(3) -0.479(3) 1.128(3)
Fe1_2 Fe 0.0000 0.0000 0.5000
Fe1_3 Fe 2.0000 0.0000 0.5000
N1A N 1.25070(19) -0.20043(18) 0.53045(17)
N2A N 1.5815(2) -0.35626(18) 0.54404(18)
N3A N 1.8328(2) -0.20047(18) 0.53340(17)
N3_2 N 1.1672(2) 0.20047(18) 0.46660(17)
N3A_2 N 0.8328(2) -0.20047(18) 0.53340(17)
N4A N 1.11295(19) 0.05325(17) 0.23921(15)
N5A N 1.1242(2) 0.21999(18) 0.13405(16)
N6A N 1.1991(2) 0.20954(18) -0.01326(16)
C1A C 1.4076(2) -0.2674(2) 0.53579(18)
C2A C 1.7096(2) -0.2671(2) 0.53824(18)
C3A C 1.1819(2) -0.0689(2) 0.15853(18)
C4A C 1.1983(2) -0.2603(2) 0.2142(2)
C5A C 1.2714(3) -0.3410(2) 0.0992(2)
C6A C 1.3298(3) -0.2371(3) -0.0662(2)
C7A C 1.3155(3) -0.0497(2) -0.1227(2)
C8A C 1.2387(2) 0.0321(2) -0.00551(19)
C9A C 1.2308(3) 0.3748(2) -0.1555(2)
H1A H 1.164(3) -0.328(2) 0.322(2)
H2A H 1.280(3) -0.473(3) 0.135(2)
H3A H 1.380(3) -0.297(3) -0.139(3)
H4A H 1.355(3) 0.022(3) -0.236(3)
H5A H 1.367(4) 0.385(3) -0.203(3)
H6A H 1.179(3) 0.371(3) -0.232(3)
H7A H 1.160(3) 0.479(3) -0.128(3)
loop_
_geom_bond_atom_site_label_1
_geom_bond_atom_site_label_2
_geom_bond_site_symmetry_1
_geom_bond_site_symmetry_2
Fe1 N1 1_555 1_555
N1 C1 1_555 1_555
N2 C1 1_555 1_555
N3 C2 1_555 1_555
N4 Fe1 1_555 1_555
N5 N4 1_555 1_555
N6 N5 1_555 1_555
C2 N2 1_555 1_555
C3 N4 1_555 1_555
C4 C3 1_555 1_555
C5 C4 1_555 1_555
C6 C5 1_555 1_555
C7 C6 1_555 1_555
C8 N6 1_555 1_555
C9 N6 1_555 1_555
H1 C4 1_555 1_555
H2 C5 1_555 1_555
H3 C6 1_555 1_555
H4 C7 1_555 1_555
H5 C9 1_555 1_555
H6 C9 1_555 1_555
H7 C9 1_555 1_555
Fe1_2 N3 1_555 1_555
Fe1_3 N3A 1_555 1_555
N1A Fe1 1_555 1_555
N2A C1A 1_555 1_555
N3A C2A 1_555 1_555
N3_2 Fe1 1_555 1_555
N3A_2 Fe1 1_555 1_555
N4A Fe1 1_555 1_555
N5A N4A 1_555 1_555
N6A N5A 1_555 1_555
C1A N1A 1_555 1_555
C2A N2A 1_555 1_555
C3A N4A 1_555 1_555
C4A C3A 1_555 1_555
C5A C4A 1_555 1_555
C6A C5A 1_555 1_555
C7A C6A 1_555 1_555
C8A N6A 1_555 1_555
C9A N6A 1_555 1_555
H1A C4A 1_555 1_555
H2A C5A 1_555 1_555
H3A C6A 1_555 1_555
H4A C7A 1_555 1_555
H5A C9A 1_555 1_555
H6A C9A 1_555 1_555
H7A C9A 1_555 1_555
C3 C8 1_555 1_555
C7 C8 1_555 1_555
C3A C8A 1_555 1_555
C7A C8A 1_555 1_555

#END
