
#######################################################################
#
#                 Cambridge Crystallographic Data Centre
#                                CCDC 
#
#######################################################################
#
# If this CIF has been generated from an entry in the Cambridge 
# Structural Database, then it will include bibliographic, chemical, 
# crystal, experimental, refinement or atomic coordinate data resulting 
# from the CCDC's data processing and validation procedures.
#
#######################################################################

data_HEFXAR
_symmetry_cell_setting           orthorhombic
_symmetry_space_group_name_H-M   'P 21 21 21'
_symmetry_Int_Tables_number      19
_space_group_name_Hall           'P 2ac 2ab'
loop_
_symmetry_equiv_pos_site_id
_symmetry_equiv_pos_as_xyz
1 x,y,z
2 1/2+x,1/2-y,-z
3 -x,1/2+y,1/2-z
4 1/2-x,-y,1/2+z
_cell_length_a                   4.998(1)
_cell_length_b                   7.864(1)
_cell_length_c                   9.261(1)
_cell_angle_alpha                90
_cell_angle_beta                 90
_cell_angle_gamma                90
_cell_volume                     363.997
loop_
_atom_site_label
_atom_site_type_symbol
_atom_site_fract_x
_atom_site_fract_y
_atom_site_fract_z
Li1 Li 0.246(1) 0.1751(6) -0.0774(5)
N1 N 0.1963(5) 0.2279(3) -0.2921(2)
C1 C 0.3650(6) 0.3717(4) -0.3340(3)
C2 C 0.2384(6) 0.5033(3) -0.4320(2)
O1 O -0.0051(4) 0.4866(2) -0.4642(2)
O2 O 0.3848(4) 0.6239(2) -0.4727(2)
H1 H 0.0376 0.2533 -0.3021
H2 H 0.2179 0.1401 -0.3584
H3 H 0.5069 0.3377 -0.3686
H4 H 0.4342 0.4213 -0.2522
O1B O 0.0051(4) -0.0134(2) -0.0358(2)
O2B O 0.6152(4) 0.1239(2) -0.0273(2)
O2C O 0.1152(4) 0.3761(2) 0.0273(2)
Li1B Li -0.246(1) 0.6751(6) -0.4226(5)
Li1B_2 Li 0.754(1) 0.6751(6) -0.4226(5)
Li1C Li 0.254(1) 0.8249(6) -0.5774(5)
loop_
_geom_bond_atom_site_label_1
_geom_bond_atom_site_label_2
_geom_bond_site_symmetry_1
_geom_bond_site_symmetry_2
Li1 N1 1_555 1_555
N1 C1 1_555 1_555
C1 C2 1_555 1_555
C2 O1 1_555 1_555
O1 Li1B 1_555 1_555
O2 C2 1_555 1_555
H1 N1 1_555 1_555
H2 N1 1_555 1_555
H3 C1 1_555 1_555
H4 C1 1_555 1_555
O1B Li1 1_555 1_555
O2B Li1 1_555 1_555
O2C Li1 1_555 1_555
Li1B_2 O2 1_555 1_555
Li1C O2 1_555 1_555

#END
