
#######################################################################
#
#                 Cambridge Crystallographic Data Centre
#                                CCDC 
#
#######################################################################
#
# If this CIF has been generated from an entry in the Cambridge 
# Structural Database, then it will include bibliographic, chemical, 
# crystal, experimental, refinement or atomic coordinate data resulting 
# from the CCDC's data processing and validation procedures.
#
#######################################################################

data_HEFXEV
_symmetry_cell_setting           triclinic
_symmetry_space_group_name_H-M   'P -1'
_symmetry_Int_Tables_number      2
_space_group_name_Hall           '-P 1'
loop_
_symmetry_equiv_pos_site_id
_symmetry_equiv_pos_as_xyz
1 x,y,z
2 -x,-y,-z
_cell_length_a                   5.033(1)
_cell_length_b                   7.533(1)
_cell_length_c                   10.132(2)
_cell_angle_alpha                76.54(1)
_cell_angle_beta                 88.42(1)
_cell_angle_gamma                84.56(1)
_cell_volume                     371.901
loop_
_atom_site_label
_atom_site_type_symbol
_atom_site_fract_x
_atom_site_fract_y
_atom_site_fract_z
Li1 Li 0.2995(5) -0.6176(3) 0.5133(2)
N1 N -0.1579(3) -0.6408(2) 0.8516(1)
C1 C -0.1955(3) -0.8192(2) 0.8209(1)
C2 C 0.0355(3) -0.8773(2) 0.7371(1)
O1 O 0.1943(2) -0.7675(1) 0.68074(9)
N2 N 0.0457(3) -1.0496(2) 0.7266(1)
C3 C 0.2494(3) -1.1276(2) 0.6472(2)
C4 C 0.1559(3) -1.2864(2) 0.5976(1)
O2 O -0.0785(2) -1.3275(1) 0.62226(9)
O3 O 0.3257(2) -1.3664(1) 0.53244(9)
H1 H -0.142(4) -0.551(2) 0.776(2)
H2 H -0.300(4) -0.603(3) 0.900(2)
H3 H 0.002(4) -0.648(2) 0.914(2)
H4 H -0.357(4) -0.807(2) 0.767(2)
H5 H -0.205(3) -0.906(2) 0.903(2)
H6 H -0.064(4) -1.118(2) 0.776(2)
H7 H 0.410(4) -1.175(2) 0.700(2)
H8 H 0.295(4) -1.033(2) 0.566(2)
O2A O 0.0785(2) -0.6725(1) 0.37774(9)
O3_2 O 0.3257(2) -0.3664(1) 0.53244(9)
O3A O 0.6743(2) -0.6336(1) 0.46756(9)
Li1A Li -0.2995(5) -1.3824(3) 0.4867(2)
Li1_2 Li 0.2995(5) -1.6176(3) 0.5133(2)
Li1A_2 Li 0.7005(5) -1.3824(3) 0.4867(2)
Cl1 Cl 0.33137(7) 0.27741(5) 1.04348(3)
loop_
_geom_bond_atom_site_label_1
_geom_bond_atom_site_label_2
_geom_bond_site_symmetry_1
_geom_bond_site_symmetry_2
Li1 O1 1_555 1_555
N1 C1 1_555 1_555
C1 C2 1_555 1_555
C2 O1 1_555 1_555
N2 C2 1_555 1_555
C3 N2 1_555 1_555
C4 C3 1_555 1_555
O2 C4 1_555 1_555
O3 C4 1_555 1_555
H1 N1 1_555 1_555
H2 N1 1_555 1_555
H3 N1 1_555 1_555
H4 C1 1_555 1_555
H5 C1 1_555 1_555
H6 N2 1_555 1_555
H7 C3 1_555 1_555
H8 C3 1_555 1_555
O2A Li1 1_555 1_555
O3_2 Li1 1_555 1_555
O3A Li1 1_555 1_555
Li1A O2 1_555 1_555
Li1_2 O3 1_555 1_555
Li1A_2 O3 1_555 1_555

#END
