
#######################################################################
#
#                 Cambridge Crystallographic Data Centre
#                                CCDC 
#
#######################################################################
#
# If this CIF has been generated from an entry in the Cambridge 
# Structural Database, then it will include bibliographic, chemical, 
# crystal, experimental, refinement or atomic coordinate data resulting 
# from the CCDC's data processing and validation procedures.
#
#######################################################################

data_HEFYUN
_symmetry_cell_setting           monoclinic
_symmetry_space_group_name_H-M   'C 2/c'
_symmetry_Int_Tables_number      15
_space_group_name_Hall           '-C 2yn'
loop_
_symmetry_equiv_pos_site_id
_symmetry_equiv_pos_as_xyz
1 x,y,z
2 1/2+x,1/2+y,z
3 -x,y,1/2-z
4 1/2-x,1/2+y,1/2-z
5 -x,-y,-z
6 1/2-x,1/2-y,-z
7 x,-y,1/2+z
8 1/2+x,1/2-y,1/2+z
_cell_length_a                   22.749(4)
_cell_length_b                   9.5867(15)
_cell_length_c                   7.9484(14)
_cell_angle_alpha                90
_cell_angle_beta                 99.787(5)
_cell_angle_gamma                90
_cell_volume                     1708.22
loop_
_atom_site_label
_atom_site_type_symbol
_atom_site_fract_x
_atom_site_fract_y
_atom_site_fract_z
Cd1 Cd 0.7500 0.2500 0.0000
S1 S 0.68453(3) 0.22428(7) 0.25751(10)
N1 N 0.91000(8) 0.1834(2) 0.3920(2)
N2 N 0.91536(11) 0.0640(3) 0.3051(3)
N3 N 0.83446(8) 0.1815(2) 0.1843(2)
N4 N 0.73165(11) -0.0221(2) 0.4131(3)
C1 C 0.86861(13) 0.0690(3) 0.1821(4)
H1 H 0.8600 -0.0021 0.0983
C2 C 0.86169(12) 0.2506(2) 0.3189(3)
H2 H 0.8484 0.3369 0.3577
C3 C 0.95352(12) 0.2226(3) 0.5442(3)
H3 H 0.9866 0.1543 0.5614
H4 H 0.9339 0.2203 0.6463
C4 C 0.97804(10) 0.3664(3) 0.5243(3)
C5 C 0.94670(10) 0.4841(3) 0.5573(3)
H5 H 0.9098 0.4738 0.5970
C6 C 1.03204(10) 0.3839(3) 0.4664(3)
H6 H 1.0543 0.3046 0.4432
C7 C 0.71300(10) 0.0789(2) 0.3469(3)
Cd1C Cd 0.7500 -0.2500 0.5000
Cd1A Cd 1.2500 0.7500 1.0000
Cd1C_2 Cd 0.7500 0.7500 -0.5000
S1E S 0.81547(3) 0.27572(7) -0.25751(10)
N1D N 1.09000(8) 0.8166(2) 0.6080(2)
N2D N 1.08464(11) 0.9360(3) 0.6949(3)
N3D N 1.16554(8) 0.8185(2) 0.8157(2)
N3E N 0.66554(8) 0.3185(2) -0.1843(2)
N4E N 0.76835(11) 0.5221(2) -0.4131(3)
N4F N 0.73165(11) 0.0221(2) -0.0869(3)
N4C N 0.76835(11) 0.4779(2) 0.0869(3)
C1D C 1.13139(13) 0.9310(3) 0.8179(4)
H1D H 1.1400 1.0021 0.9017
C2D C 1.13831(12) 0.7494(2) 0.6811(3)
H2D H 1.1516 0.6631 0.6423
C3D C 1.04648(12) 0.7774(3) 0.4558(3)
H3D H 1.0134 0.8457 0.4386
H4D H 1.0661 0.7797 0.3537
C4D C 1.02196(10) 0.6336(3) 0.4757(3)
C5D C 1.05330(10) 0.5159(3) 0.4427(3)
H5D H 1.0902 0.5262 0.4030
C6D C 0.96796(10) 0.6161(3) 0.5336(3)
H6D H 0.9457 0.6954 0.5568
C7E C 0.78700(10) 0.4211(2) -0.3469(3)
loop_
_geom_bond_atom_site_label_1
_geom_bond_atom_site_label_2
_geom_bond_site_symmetry_1
_geom_bond_site_symmetry_2
Cd1 S1 1_555 1_555
S1 C7 1_555 1_555
N1 N2 1_555 1_555
N2 C1 1_555 1_555
N3 Cd1 1_555 1_555
N4 C7 1_555 1_555
C1 N3 1_555 1_555
H1 C1 1_555 1_555
C2 N1 1_555 1_555
H2 C2 1_555 1_555
C3 N1 1_555 1_555
H3 C3 1_555 1_555
H4 C3 1_555 1_555
C4 C3 1_555 1_555
C5 C4 1_555 1_555
H5 C5 1_555 1_555
C6 C4 1_555 1_555
H6 C6 1_555 1_555
Cd1C N4 1_555 1_555
Cd1A N3D 1_555 1_555
Cd1C_2 N4E 1_555 1_555
S1E Cd1 1_555 1_555
N1D N2D 1_555 1_555
N2D C1D 1_555 1_555
N3D C1D 1_555 1_555
N3E Cd1 1_555 1_555
N4E C7E 1_555 1_555
N4F Cd1 1_555 1_555
N4C Cd1 1_555 1_555
C1D H1D 1_555 1_555
C2D N1D 1_555 1_555
H2D C2D 1_555 1_555
C3D N1D 1_555 1_555
H3D C3D 1_555 1_555
H4D C3D 1_555 1_555
C4D C3D 1_555 1_555
C5D C6 1_555 1_555
H5D C5D 1_555 1_555
C6D C5 1_555 1_555
H6D C6D 1_555 1_555
C7E S1E 1_555 1_555
N3 C2 1_555 1_555
N3D C2D 1_555 1_555
C4D C5D 1_555 1_555
C4D C6D 1_555 1_555

#END
