
#######################################################################
#
#                 Cambridge Crystallographic Data Centre
#                                CCDC 
#
#######################################################################
#
# If this CIF has been generated from an entry in the Cambridge 
# Structural Database, then it will include bibliographic, chemical, 
# crystal, experimental, refinement or atomic coordinate data resulting 
# from the CCDC's data processing and validation procedures.
#
#######################################################################

data_HEGCAY
_symmetry_cell_setting           monoclinic
_symmetry_space_group_name_H-M   'P 21/c'
_symmetry_Int_Tables_number      14
_space_group_name_Hall           '-P 2ybc'
loop_
_symmetry_equiv_pos_site_id
_symmetry_equiv_pos_as_xyz
1 x,y,z
2 -x,1/2+y,1/2-z
3 -x,-y,-z
4 x,1/2-y,1/2+z
_cell_length_a                   12.2570(12)
_cell_length_b                   12.5085(11)
_cell_length_c                   15.8471(14)
_cell_angle_alpha                90
_cell_angle_beta                 102.687(2)
_cell_angle_gamma                90
_cell_volume                     2370.3
loop_
_atom_site_label
_atom_site_type_symbol
_atom_site_fract_x
_atom_site_fract_y
_atom_site_fract_z
Cd1 Cd 0.617147(11) 0.245492(10) 0.314046(8)
O1 O 0.78544(17) 0.14100(16) 0.31820(15)
O2 O 0.79300(15) 0.31157(15) 0.31705(14)
O3 O 0.94516(16) 0.2186(2) 0.32920(15)
O4 O 0.52995(18) 0.33058(14) 0.18542(10)
O5 O 0.5455(2) 0.16176(15) 0.17805(11)
O6 O 0.47635(17) 0.25102(13) 0.06161(10)
N1 N 0.55571(13) 0.37252(13) 0.39847(10)
N2 N 0.44286(13) 0.39005(13) 0.36615(10)
N3 N 0.65872(14) 0.10920(13) 0.47271(10)
N4 N 0.57061(13) 0.12034(13) 0.40202(10)
N5 N 0.84418(16) 0.22297(19) 0.32131(12)
N6 N 0.51607(15) 0.24771(13) 0.13927(11)
C1 C 0.55577(15) 0.48943(14) 0.51646(11)
C2 C 0.61033(15) 0.41647(15) 0.47098(12)
C3 C 0.73074(16) 0.38999(17) 0.50792(14)
H1 H 0.7663 0.3702 0.4619
H2 H 0.7347 0.3299 0.5462
C4 C 0.79402(16) 0.48500(17) 0.55837(13)
C5 C 0.73251(16) 0.52066(17) 0.62878(12)
H3 H 0.7674 0.5843 0.6561
H4 H 0.7398 0.4659 0.6721
C6 C 0.38933(15) 0.45712(15) 0.40666(11)
C7 C 0.91183(18) 0.4470(2) 0.60193(17)
H5 H 0.9478 0.4166 0.5595
H6 H 0.9071 0.3943 0.6450
H7 H 0.9552 0.5061 0.6299
C8 C 0.8016(2) 0.5774(2) 0.49697(15)
H8 H 0.7279 0.6003 0.4687
H9 H 0.8421 0.5548 0.4547
H10 H 0.8417 0.6357 0.5291
C9 C 0.54311(15) -0.00535(15) 0.53600(11)
C10 C 0.64596(15) 0.04789(15) 0.53714(12)
C11 C 0.74105(17) 0.03449(17) 0.61430(13)
H11 H 0.8104 0.0360 0.5955
H12 H 0.7411 0.0934 0.6532
C12 C 0.73365(16) -0.07163(16) 0.66296(12)
C13 C 0.61709(16) -0.08173(16) 0.68406(12)
H13 H 0.6111 -0.1500 0.7104
H14 H 0.6088 -0.0273 0.7249
C14 C 0.47503(16) 0.07063(14) 0.39536(11)
C15 C 0.82231(19) -0.07073(19) 0.74766(14)
H15 H 0.8178 -0.1360 0.7786
H16 H 0.8955 -0.0643 0.7356
H17 H 0.8105 -0.0110 0.7826
C16 C 0.75407(19) -0.16734(18) 0.60850(15)
H18 H 0.7396 -0.2326 0.6360
H19 H 0.7046 -0.1641 0.5525
H20 H 0.8304 -0.1659 0.6026
Cd1B Cd 0.382853(11) 0.754508(10) 0.685954(8)
Cd1B_2 Cd 0.382853(11) -0.245492(10) 0.685954(8)
O1B O 0.21456(17) 0.85900(16) 0.68180(15)
O2B O 0.20700(15) 0.68843(15) 0.68295(14)
O3B O 0.05484(16) 0.7814(2) 0.67080(15)
O4B O 0.47005(18) 0.66942(14) 0.81458(10)
O5B O 0.4545(2) 0.83824(15) 0.82195(11)
O6B O 0.52365(17) 0.74898(13) 0.93839(10)
N1B N 0.44429(13) 0.62748(13) 0.60153(10)
N2B N 0.55714(13) 0.60995(13) 0.63385(10)
N3B N 0.34128(14) -0.10920(13) 0.52729(10)
N4B N 0.42939(13) -0.12034(13) 0.59798(10)
N4B_2 N 0.42939(13) 0.87966(13) 0.59798(10)
N5B N 0.15582(16) 0.77703(19) 0.67869(12)
N6B N 0.48393(15) 0.75229(13) 0.86073(11)
C1B C 0.44423(15) 0.51057(14) 0.48354(11)
C2B C 0.38967(15) 0.58353(15) 0.52902(12)
C3B C 0.26926(16) 0.61001(17) 0.49208(14)
H1B H 0.2337 0.6298 0.5381
H2B H 0.2653 0.6701 0.4538
C4B C 0.20598(16) 0.51500(17) 0.44163(13)
C5B C 0.26749(16) 0.47934(17) 0.37122(12)
H3B H 0.2326 0.4157 0.3439
H4B H 0.2602 0.5341 0.3279
C6B C 0.61067(15) 0.54288(15) 0.59334(11)
C7B C 0.08817(18) 0.5530(2) 0.39807(17)
H5B H 0.0522 0.5834 0.4405
H6B H 0.0929 0.6057 0.3550
H7B H 0.0448 0.4939 0.3701
C8B C 0.1984(2) 0.4226(2) 0.50303(15)
H8B H 0.2721 0.3997 0.5313
H9B H 0.1579 0.4452 0.5453
H10B H 0.1583 0.3643 0.4709
C9B C 0.45689(15) 0.00535(15) 0.46400(11)
C10B C 0.35404(15) -0.04789(15) 0.46286(12)
C11B C 0.25895(17) -0.03449(17) 0.38570(13)
H11B H 0.1896 -0.0360 0.4045
H12B H 0.2589 -0.0934 0.3468
C12B C 0.26635(16) 0.07163(16) 0.33704(12)
C13B C 0.38291(16) 0.08173(16) 0.31594(12)
H13B H 0.3889 0.1500 0.2896
H14B H 0.3912 0.0273 0.2751
C14B C 0.52497(16) -0.07063(14) 0.60464(11)
C15B C 0.17769(19) 0.07073(19) 0.25234(14)
H15B H 0.1822 0.1360 0.2214
H16B H 0.1045 0.0643 0.2644
H17B H 0.1895 0.0110 0.2174
C16B C 0.24593(19) 0.16734(18) 0.39150(15)
H18B H 0.2604 0.2326 0.3640
H19B H 0.2954 0.1641 0.4475
H20B H 0.1696 0.1659 0.3974
C17 C 0.9000(2) -0.0960(2) 0.37863(16)
H21 H 0.9052 -0.0195 0.3777
Cl1 Cl 0.97537(8) -0.14221(8) 0.47974(5)
Cl2 Cl 0.96080(6) -0.14790(6) 0.29642(4)
Cl3 Cl 0.75834(6) -0.13170(7) 0.36125(5)
loop_
_geom_bond_atom_site_label_1
_geom_bond_atom_site_label_2
_geom_bond_site_symmetry_1
_geom_bond_site_symmetry_2
Cd1 O1 1_555 1_555
O1 N5 1_555 1_555
O2 Cd1 1_555 1_555
O3 N5 1_555 1_555
O4 Cd1 1_555 1_555
O5 Cd1 1_555 1_555
O6 N6 1_555 1_555
N1 Cd1 1_555 1_555
N2 N1 1_555 1_555
N3 N4 1_555 1_555
N4 Cd1 1_555 1_555
N5 O2 1_555 1_555
N6 O4 1_555 1_555
C1 C2 1_555 1_555
C2 N1 1_555 1_555
C3 C2 1_555 1_555
H1 C3 1_555 1_555
H2 C3 1_555 1_555
C4 C3 1_555 1_555
C5 C4 1_555 1_555
H3 C5 1_555 1_555
H4 C5 1_555 1_555
C6 N2 1_555 1_555
C7 C4 1_555 1_555
H5 C7 1_555 1_555
H6 C7 1_555 1_555
H7 C7 1_555 1_555
C8 C4 1_555 1_555
H8 C8 1_555 1_555
H9 C8 1_555 1_555
H10 C8 1_555 1_555
C9 C10 1_555 1_555
C10 N3 1_555 1_555
C11 C10 1_555 1_555
H11 C11 1_555 1_555
H12 C11 1_555 1_555
C12 C11 1_555 1_555
C13 C12 1_555 1_555
H13 C13 1_555 1_555
H14 C13 1_555 1_555
C14 N4 1_555 1_555
C15 C12 1_555 1_555
H15 C15 1_555 1_555
H16 C15 1_555 1_555
H17 C15 1_555 1_555
C16 C12 1_555 1_555
H18 C16 1_555 1_555
H19 C16 1_555 1_555
H20 C16 1_555 1_555
C17 H21 1_555 1_555
Cl1 C17 1_555 1_555
Cl2 C17 1_555 1_555
Cl3 C17 1_555 1_555
Cd1B O1B 1_555 1_555
Cd1B_2 N4B 1_555 1_555
O1B N5B 1_555 1_555
O2B Cd1B 1_555 1_555
O3B N5B 1_555 1_555
O4B Cd1B 1_555 1_555
O5B Cd1B 1_555 1_555
O6B N6B 1_555 1_555
N1B Cd1B 1_555 1_555
N2B N1B 1_555 1_555
N3B N4B 1_555 1_555
N4B C14B 1_555 1_555
N4B_2 Cd1B 1_555 1_555
N5B O2B 1_555 1_555
N6B O4B 1_555 1_555
C1B C1 1_555 1_555
C2B N1B 1_555 1_555
C3B C2B 1_555 1_555
H1B C3B 1_555 1_555
H2B C3B 1_555 1_555
C4B C3B 1_555 1_555
C5B C6 1_555 1_555
H3B C5B 1_555 1_555
H4B C5B 1_555 1_555
C6B C1 1_555 1_555
C7B C4B 1_555 1_555
H5B C7B 1_555 1_555
H6B C7B 1_555 1_555
H7B C7B 1_555 1_555
C8B C4B 1_555 1_555
H8B C8B 1_555 1_555
H9B C8B 1_555 1_555
H10B C8B 1_555 1_555
C9B C9 1_555 1_555
C10B N3B 1_555 1_555
C11B C10B 1_555 1_555
H11B C11B 1_555 1_555
H12B C11B 1_555 1_555
C12B C11B 1_555 1_555
C13B C14 1_555 1_555
H13B C13B 1_555 1_555
H14B C13B 1_555 1_555
C14B C9 1_555 1_555
C15B C12B 1_555 1_555
H15B C15B 1_555 1_555
H16B C15B 1_555 1_555
H17B C15B 1_555 1_555
C16B C12B 1_555 1_555
H18B C16B 1_555 1_555
H19B C16B 1_555 1_555
H20B C16B 1_555 1_555
O5 N6 1_555 1_555
C5 C6B 1_555 1_555
C6 C1B 1_555 1_555
C13 C14B 1_555 1_555
C14 C9B 1_555 1_555
O5B N6B 1_555 1_555
N2B C6B 1_555 1_555
C1B C2B 1_555 1_555
C4B C5B 1_555 1_555
C9B C10B 1_555 1_555
C12B C13B 1_555 1_555

#END
