
#######################################################################
#
#                 Cambridge Crystallographic Data Centre
#                                CCDC 
#
#######################################################################
#
# If this CIF has been generated from an entry in the Cambridge 
# Structural Database, then it will include bibliographic, chemical, 
# crystal, experimental, refinement or atomic coordinate data resulting 
# from the CCDC's data processing and validation procedures.
#
#######################################################################

data_HEGKAG
_symmetry_cell_setting           orthorhombic
_symmetry_space_group_name_H-M   'P n a 21'
_symmetry_Int_Tables_number      33
_space_group_name_Hall           'P 2c -2n'
loop_
_symmetry_equiv_pos_site_id
_symmetry_equiv_pos_as_xyz
1 x,y,z
2 -x,-y,1/2+z
3 1/2+x,1/2-y,z
4 1/2-x,1/2+y,1/2+z
_cell_length_a                   11.927(2)
_cell_length_b                   11.9270(10)
_cell_length_c                   11.228(2)
_cell_angle_alpha                90
_cell_angle_beta                 90
_cell_angle_gamma                90
_cell_volume                     1597.22
loop_
_atom_site_label
_atom_site_type_symbol
_atom_site_fract_x
_atom_site_fract_y
_atom_site_fract_z
Fe1 Fe 0.52544(3) 0.09664(4) 0.98823(7)
O1 O 0.61952(19) 0.2027(2) 0.9127(3)
O2 O 0.64573(18) -0.0034(2) 0.9708(3)
N1 N 0.4088(2) 0.2183(2) 1.0058(3)
N2 N 0.4255(2) -0.0270(2) 1.0586(3)
N3 N 0.5733(3) 0.1174(3) 1.1875(3)
N4 N 0.5661(2) 0.0368(3) 1.2500(3)
N5 N 0.5603(3) -0.0433(3) 1.3082(3)
C1 C 0.4855(3) 0.3389(3) 0.8512(3)
C2 C 0.5920(3) 0.2892(3) 0.8463(3)
C3 C 0.6722(3) 0.3371(3) 0.7702(3)
H1 H 0.7438 0.3064 0.7665
C4 C 0.6464(4) 0.4289(4) 0.7011(4)
H2 H 0.7009 0.4593 0.6514
C5 C 0.5399(4) 0.4771(4) 0.7042(5)
H3 H 0.5224 0.5380 0.6559
C6 C 0.4615(3) 0.4328(4) 0.7799(4)
H4 H 0.3908 0.4655 0.7842
C7 C 0.4034(3) 0.3047(3) 0.9378(3)
H5 H 0.3401 0.3496 0.9453
C8 C 0.3229(3) 0.2074(3) 1.0984(4)
H6 H 0.2704 0.2691 1.0917
H7 H 0.3582 0.2119 1.1761
C9 C 0.2602(3) 0.0987(3) 1.0888(4)
H8 H 0.2396 0.0867 1.0062
H9 H 0.1915 0.1044 1.1346
C10 C 0.3260(3) -0.0019(3) 1.1322(3)
H10 H 0.3499 0.0116 1.2135
H11 H 0.2772 -0.0669 1.1327
C11 C 0.4520(3) -0.1308(4) 1.0510(4)
H12 H 0.4031 -0.1817 1.0862
C12 C 0.5500(3) -0.1773(3) 0.9932(4)
C13 C 0.6412(3) -0.1142(3) 0.9586(3)
C14 C 0.7340(4) -0.1691(4) 0.9105(4)
H13 H 0.7971 -0.1280 0.8888
C15 C 0.7333(4) -0.2833(4) 0.8947(4)
H14 H 0.7951 -0.3185 0.8607
C16 C 0.6429(5) -0.3458(4) 0.9282(5)
H15 H 0.6433 -0.4231 0.9174
C17 C 0.5534(4) -0.2955(3) 0.9769(6)
H16 H 0.4924 -0.3387 1.0004
Fe1A Fe 0.47456(3) -0.09664(4) 1.48823(7)
N5A N 0.4397(3) 0.0433(3) 0.8082(3)
loop_
_geom_bond_atom_site_label_1
_geom_bond_atom_site_label_2
_geom_bond_site_symmetry_1
_geom_bond_site_symmetry_2
Fe1 O1 1_555 1_555
O1 C2 1_555 1_555
O2 Fe1 1_555 1_555
N1 Fe1 1_555 1_555
N2 Fe1 1_555 1_555
N3 Fe1 1_555 1_555
N4 N3 1_555 1_555
N5 N4 1_555 1_555
C1 C2 1_555 1_555
C2 C3 1_555 1_555
C3 H1 1_555 1_555
C4 C3 1_555 1_555
H2 C4 1_555 1_555
C5 C4 1_555 1_555
H3 C5 1_555 1_555
C6 C1 1_555 1_555
H4 C6 1_555 1_555
C7 N1 1_555 1_555
H5 C7 1_555 1_555
C8 N1 1_555 1_555
H6 C8 1_555 1_555
H7 C8 1_555 1_555
C9 C8 1_555 1_555
H8 C9 1_555 1_555
H9 C9 1_555 1_555
C10 N2 1_555 1_555
H10 C10 1_555 1_555
H11 C10 1_555 1_555
C11 N2 1_555 1_555
H12 C11 1_555 1_555
C12 C11 1_555 1_555
C13 O2 1_555 1_555
C14 C13 1_555 1_555
H13 C14 1_555 1_555
C15 C14 1_555 1_555
H14 C15 1_555 1_555
C16 C15 1_555 1_555
H15 C16 1_555 1_555
C17 C12 1_555 1_555
H16 C17 1_555 1_555
Fe1A N5 1_555 1_555
N5A Fe1 1_555 1_555
C1 C7 1_555 1_555
C5 C6 1_555 1_555
C9 C10 1_555 1_555
C12 C13 1_555 1_555
C16 C17 1_555 1_555

#END
