
#######################################################################
#
#                 Cambridge Crystallographic Data Centre
#                                CCDC 
#
#######################################################################
#
# If this CIF has been generated from an entry in the Cambridge 
# Structural Database, then it will include bibliographic, chemical, 
# crystal, experimental, refinement or atomic coordinate data resulting 
# from the CCDC's data processing and validation procedures.
#
#######################################################################

data_HEGVOG
_symmetry_cell_setting           orthorhombic
_symmetry_space_group_name_H-M   'P 21 21 21'
_symmetry_Int_Tables_number      19
_space_group_name_Hall           'P 2ac 2ab'
loop_
_symmetry_equiv_pos_site_id
_symmetry_equiv_pos_as_xyz
1 x,y,z
2 1/2-x,-y,1/2+z
3 -x,1/2+y,1/2-z
4 1/2+x,1/2-y,-z
_cell_length_a                   10.1857(3)
_cell_length_b                   11.8652(4)
_cell_length_c                   20.0280(6)
_cell_angle_alpha                90
_cell_angle_beta                 90
_cell_angle_gamma                90
_cell_volume                     2420.49
loop_
_atom_site_label
_atom_site_type_symbol
_atom_site_fract_x
_atom_site_fract_y
_atom_site_fract_z
Cd1 Cd 0.23987(7) 0.51451(5) 0.51369(3)
Cd2 Cd 0.26040(7) 0.42194(6) 0.24334(3)
Cd3 Cd -0.25696(7) 0.58554(7) 0.74236(4)
Sr1 Sr -0.37451(8) 0.49280(6) 0.49998(4)
C1 C -0.1915(9) 0.4321(9) 0.6414(5)
C2 C -0.1294(8) 0.3454(8) 0.5942(4)
H1 H -0.1396 0.2693 0.6125
C3 C 0.0157(8) 0.3752(8) 0.5891(4)
H2 H 0.0531 0.3705 0.6341
C4 C 0.0902(9) 0.2933(8) 0.5452(4)
C5 C 0.4468(10) 0.6010(8) 0.3254(5)
H3 H 0.5414 0.5891 0.3310
C6 C 0.3733(10) 0.5260(8) 0.3744(4)
C7 C 0.4159(11) 0.7249(9) 0.3379(5)
H4 H 0.4339 0.7411 0.3850
C8 C 0.5054(12) 0.7983(9) 0.2958(6)
C9 C 0.5134(11) 0.1989(9) 0.7198(5)
C10 C 0.4281(11) 0.2611(9) 0.6703(5)
H5 H 0.4568 0.2423 0.6249
C11 C 0.4452(10) 0.3887(9) 0.6816(5)
H6 H 0.5394 0.4053 0.6803
C12 C 0.3805(10) 0.4552(9) 0.6263(4)
C13 C -0.1776(9) 0.5530(9) 0.3641(5)
C14 C -0.1219(9) 0.6434(8) 0.4106(4)
H7 H -0.1494 0.7178 0.3946
C15 C 0.0273(8) 0.6374(8) 0.4102(5)
H8 H 0.0576 0.6544 0.3648
C16 C 0.0879(9) 0.7237(8) 0.4577(5)
O1 O -0.2786(6) 0.4961(7) 0.6218(3)
O2 O -0.1478(7) 0.4347(7) 0.7016(3)
O3 O -0.1889(6) 0.3522(5) 0.5320(3)
H9 H -0.1614 0.3040 0.5003
O4 O 0.0296(6) 0.4896(6) 0.5668(3)
H10 H -0.0315 0.5437 0.5721
O5 O 0.1823(7) 0.3308(6) 0.5084(4)
O6 O 0.0637(8) 0.1919(6) 0.5502(4)
O7 O 0.4116(7) 0.5752(6) 0.2580(3)
H11 H 0.4444 0.6139 0.2231
O8 O 0.2816(7) 0.4684(6) 0.3539(3)
O9 O 0.4040(6) 0.5377(6) 0.4356(3)
O10 O 0.2814(8) 0.7456(6) 0.3261(4)
H12 H 0.2167 0.7014 0.3420
O11 O 0.4554(8) 0.8565(7) 0.2493(4)
O12 O 0.6236(7) 0.7932(6) 0.3094(4)
O13 O 0.6326(7) 0.2053(7) 0.7078(4)
O14 O 0.4642(8) 0.1473(7) 0.7685(4)
O15 O 0.2918(8) 0.2344(7) 0.6771(4)
H13 H 0.2272 0.2684 0.6539
O16 O 0.3974(7) 0.4205(6) 0.7461(3)
H14 H 0.4222 0.3859 0.7840
O17 O 0.2835(7) 0.5163(6) 0.6374(3)
O18 O 0.4244(7) 0.4399(6) 0.5682(3)
O19 O -0.2702(7) 0.4933(7) 0.3825(3)
O20 O -0.1260(6) 0.5434(7) 0.3061(3)
O21 O -0.1719(6) 0.6269(6) 0.4758(3)
H15 H -0.1336 0.6632 0.5101
O22 O 0.0681(6) 0.5259(6) 0.4264(3)
H16 H 0.0340 0.4646 0.4064
O23 O 0.1855(7) 0.6917(5) 0.4952(4)
O24 O 0.0451(7) 0.8201(6) 0.4561(4)
Cd2B Cd 0.73960(7) 0.92194(6) 0.25666(3)
Cd2C Cd 0.76040(7) 0.07806(6) 0.75666(3)
Cd2A Cd 0.23960(7) 0.57806(6) 0.74334(3)
Cd3C Cd 0.24304(7) 0.91446(7) 0.25764(4)
Cd3B Cd 0.25696(7) 0.08554(7) 0.75764(4)
Cd3A Cd -0.24304(7) 0.41446(7) 0.24236(4)
Sr1C Sr 0.12549(8) 0.00720(6) 0.50002(4)
Sr1_2 Sr 0.62549(8) 0.49280(6) 0.49998(4)
Sr1C_2 Sr 0.12549(8) 1.00720(6) 0.50002(4)
O6C O -0.4363(8) 0.3081(6) 0.4498(4)
O9_2 O -0.5960(6) 0.5377(6) 0.4356(3)
O10C O -0.2186(8) 0.7544(6) 0.6739(4)
H12C H -0.2833 0.7986 0.6580
O11C O -0.0446(8) 0.6435(7) 0.7507(4)
O12B O 0.3764(7) 0.2932(6) 0.1906(4)
O13C O 0.1326(7) 0.2947(7) 0.2922(4)
O14B O -0.4642(8) 0.6473(7) 0.7315(4)
O15B O -0.2918(8) 0.7344(7) 0.8229(4)
H13B H -0.2272 0.7684 0.8461
O16A O 0.1026(7) 0.5795(6) 0.2461(3)
H14A H 0.0778 0.6141 0.2840
O17A O 0.2165(7) 0.4837(6) 0.1374(3)
O18_2 O -0.5756(7) 0.4399(6) 0.5682(3)
O20A O -0.3740(6) 0.4566(7) 0.8061(3)
O24C O -0.4549(7) 0.6799(6) 0.5439(4)
loop_
_geom_bond_atom_site_label_1
_geom_bond_atom_site_label_2
_geom_bond_site_symmetry_1
_geom_bond_site_symmetry_2
Cd1 O4 1_555 1_555
Cd2 O7 1_555 1_555
Cd3 O1 1_555 1_555
Sr1 O1 1_555 1_555
C1 C2 1_555 1_555
C2 H1 1_555 1_555
C3 C2 1_555 1_555
H2 C3 1_555 1_555
C4 C3 1_555 1_555
C5 H3 1_555 1_555
C6 C5 1_555 1_555
C7 C5 1_555 1_555
H4 C7 1_555 1_555
C8 C7 1_555 1_555
C9 C10 1_555 1_555
C10 H5 1_555 1_555
C11 C10 1_555 1_555
H6 C11 1_555 1_555
C12 C11 1_555 1_555
C13 C14 1_555 1_555
C14 H7 1_555 1_555
C15 C14 1_555 1_555
H8 C15 1_555 1_555
C16 C15 1_555 1_555
O1 C1 1_555 1_555
O2 Cd3 1_555 1_555
O3 Sr1 1_555 1_555
H9 O3 1_555 1_555
O4 C3 1_555 1_555
H10 O4 1_555 1_555
O5 Cd1 1_555 1_555
O6 C4 1_555 1_555
O7 C5 1_555 1_555
H11 O7 1_555 1_555
O8 Cd2 1_555 1_555
O9 Cd1 1_555 1_555
O10 C7 1_555 1_555
H12 O10 1_555 1_555
O11 C8 1_555 1_555
O12 C8 1_555 1_555
O13 C9 1_555 1_555
O14 C9 1_555 1_555
O15 C10 1_555 1_555
H13 O15 1_555 1_555
O16 C11 1_555 1_555
H14 O16 1_555 1_555
O17 Cd1 1_555 1_555
O18 Cd1 1_555 1_555
O19 Sr1 1_555 1_555
O20 C13 1_555 1_555
O21 Sr1 1_555 1_555
H15 O21 1_555 1_555
O22 Cd1 1_555 1_555
H16 O22 1_555 1_555
O23 Cd1 1_555 1_555
O24 C16 1_555 1_555
Cd2B O12 1_555 1_555
Cd2C O13 1_555 1_555
Cd2A O16 1_555 1_555
Cd3C O10 1_555 1_555
Cd3B O14 1_555 1_555
Cd3A O20 1_555 1_555
Sr1C O6 1_555 1_555
Sr1_2 O9 1_555 1_555
Sr1C_2 O24 1_555 1_555
O6C Sr1 1_555 1_555
O9_2 Sr1 1_555 1_555
O10C Cd3 1_555 1_555
H12C O10C 1_555 1_555
O11C Cd3 1_555 1_555
O12B Cd2 1_555 1_555
O13C Cd2 1_555 1_555
O14B Cd3 1_555 1_555
O15B Cd3 1_555 1_555
H13B O15B 1_555 1_555
O16A Cd2 1_555 1_555
H14A O16A 1_555 1_555
O17A Cd2 1_555 1_555
O18_2 Sr1 1_555 1_555
O20A Cd3 1_555 1_555
O24C Sr1 1_555 1_555
C1 O2 1_555 1_555
C2 O3 1_555 1_555
C4 O5 1_555 1_555
C6 O8 1_555 1_555
C6 O9 1_555 1_555
C12 O17 1_555 1_555
C12 O18 1_555 1_555
C13 O19 1_555 1_555
C14 O21 1_555 1_555
C15 O22 1_555 1_555
C16 O23 1_555 1_555
O11 Cd3C 1_555 1_555
O15 Cd3B 1_555 1_555
O17 Cd2A 1_555 1_555
O18 Sr1_2 1_555 1_555

#END
