
#######################################################################
#
#                 Cambridge Crystallographic Data Centre
#                                CCDC 
#
#######################################################################
#
# If this CIF has been generated from an entry in the Cambridge 
# Structural Database, then it will include bibliographic, chemical, 
# crystal, experimental, refinement or atomic coordinate data resulting 
# from the CCDC's data processing and validation procedures.
#
#######################################################################

data_HEGXAU01
_symmetry_cell_setting           monoclinic
_symmetry_space_group_name_H-M   'C 2/c'
_symmetry_Int_Tables_number      15
_space_group_name_Hall           '-C 2yn'
loop_
_symmetry_equiv_pos_site_id
_symmetry_equiv_pos_as_xyz
1 x,y,z
2 -x,y,1/2-z
3 1/2+x,1/2+y,z
4 1/2-x,1/2+y,1/2-z
5 -x,-y,-z
6 x,-y,1/2+z
7 1/2-x,1/2-y,-z
8 1/2+x,1/2-y,1/2+z
_cell_length_a                   19.992(3)
_cell_length_b                   9.4432(15)
_cell_length_c                   13.634(2)
_cell_angle_alpha                90
_cell_angle_beta                 118.313(2)
_cell_angle_gamma                90
_cell_volume                     2266.02
loop_
_atom_site_label
_atom_site_type_symbol
_atom_site_fract_x
_atom_site_fract_y
_atom_site_fract_z
Tb1 Tb 0.132760(13) 0.06238(2) 0.18535(2)
O1 O 0.1065(2) 0.0622(4) 0.3430(4)
O2 O 0.0158(2) 0.1861(4) 0.1448(4)
O3 O 0.1882(2) -0.1162(4) 0.1155(3)
O4 O 0.1114(2) 0.3274(4) 0.1782(4)
C1 C 0.2269(3) -0.2162(5) 0.1765(4)
C2 C 0.0428(3) 0.3099(6) 0.1517(5)
C3 C -0.0102(3) 0.4323(6) 0.1231(5)
C4 C 0.0142(3) 0.5705(5) 0.1269(5)
H1 H 0.0653 0.5889 0.1510
C5 C -0.1365(3) 0.5175(6) 0.0657(4)
C6 C -0.0863(3) 0.4044(6) 0.0917(5)
H2 H -0.1032 0.3118 0.0881
C7 C -0.1131(3) 0.6548(6) 0.0660(5)
H3 H -0.1477 0.7288 0.0469
C8 C -0.0381(3) 0.6828(6) 0.0947(4)
N1 N -0.2158(3) 0.4895(5) 0.0326(4)
H4 H -0.2222 0.3973 0.0388
H5 H -0.2445 0.5165 -0.0377
H6 H -0.2293 0.5376 0.0766
O5 O 0.2693(2) -0.3281(4) 0.3526(3)
C9 C 0.2354(3) -0.2209(5) 0.2943(5)
O6 O 0.2084(2) -0.1201(4) 0.3235(3)
O7 O 0.2601(2) -0.3102(5) 0.1512(3)
C10 C -0.0161(3) 0.8309(6) 0.0824(4)
O8 O -0.0690(2) 0.9072(4) 0.0103(3)
O9 O 0.0512(2) 0.8689(4) 0.1425(3)
H7 H 0.1221 0.0102 0.4009
H8 H 0.0676 0.1041 0.3383
Tb1C Tb 0.367240(13) -0.43762(2) 0.31465(2)
Tb1D Tb -0.132760(13) 0.93762(2) -0.18535(2)
Tb1_2 Tb 0.132760(13) 1.06238(2) 0.18535(2)
O5C O 0.2307(2) 0.1719(4) 0.1474(3)
O7C O 0.2399(2) 0.1898(5) 0.3488(3)
O8D O 0.0690(2) 0.0928(4) -0.0103(3)
O9_2 O 0.0512(2) -0.1311(4) 0.1425(3)
loop_
_geom_bond_atom_site_label_1
_geom_bond_atom_site_label_2
_geom_bond_site_symmetry_1
_geom_bond_site_symmetry_2
Tb1 O1 1_555 1_555
O1 H7 1_555 1_555
O2 Tb1 1_555 1_555
O3 Tb1 1_555 1_555
O4 Tb1 1_555 1_555
C1 O3 1_555 1_555
C2 O2 1_555 1_555
C3 C2 1_555 1_555
C4 C3 1_555 1_555
H1 C4 1_555 1_555
C5 C6 1_555 1_555
C6 C3 1_555 1_555
H2 C6 1_555 1_555
C7 C5 1_555 1_555
H3 C7 1_555 1_555
C8 C4 1_555 1_555
N1 C5 1_555 1_555
H4 N1 1_555 1_555
H5 N1 1_555 1_555
H6 N1 1_555 1_555
O5 C9 1_555 1_555
C9 C1 1_555 1_555
O6 Tb1 1_555 1_555
O7 C1 1_555 1_555
C10 C8 1_555 1_555
O8 C10 1_555 1_555
O9 C10 1_555 1_555
H8 O1 1_555 1_555
Tb1C O5 1_555 1_555
Tb1D O8 1_555 1_555
Tb1_2 O9 1_555 1_555
O5C Tb1 1_555 1_555
O7C Tb1 1_555 1_555
O8D Tb1 1_555 1_555
O9_2 Tb1 1_555 1_555
O4 C2 1_555 1_555
C7 C8 1_555 1_555
C9 O6 1_555 1_555
O7 Tb1C 1_555 1_555

#END
