
#######################################################################
#
#                 Cambridge Crystallographic Data Centre
#                                CCDC 
#
#######################################################################
#
# If this CIF has been generated from an entry in the Cambridge 
# Structural Database, then it will include bibliographic, chemical, 
# crystal, experimental, refinement or atomic coordinate data resulting 
# from the CCDC's data processing and validation procedures.
#
#######################################################################

data_HEGXAU
_symmetry_cell_setting           monoclinic
_symmetry_space_group_name_H-M   'C 2/c'
_symmetry_Int_Tables_number      15
_space_group_name_Hall           '-C 2yn'
loop_
_symmetry_equiv_pos_site_id
_symmetry_equiv_pos_as_xyz
1 x,y,z
2 -x,y,1/2-z
3 1/2+x,1/2+y,z
4 1/2-x,1/2+y,1/2-z
5 -x,-y,-z
6 x,-y,1/2+z
7 1/2-x,1/2-y,-z
8 1/2+x,1/2-y,1/2+z
_cell_length_a                   19.989(3)
_cell_length_b                   9.4444(16)
_cell_length_c                   13.630(2)
_cell_angle_alpha                90
_cell_angle_beta                 118.293(2)
_cell_angle_gamma                90
_cell_volume                     2265.73
loop_
_atom_site_label
_atom_site_type_symbol
_atom_site_fract_x
_atom_site_fract_y
_atom_site_fract_z
Tb1 Tb 0.132662(18) 0.56223(3) 0.18510(3)
O1 O 0.0509(3) 0.3684(5) 0.1424(4)
O2 O -0.0688(3) 0.4083(5) 0.0107(4)
O3 O 0.1113(3) -0.1729(5) 0.1793(4)
O4 O 0.0159(3) -0.3138(5) 0.1451(4)
O5 O 0.1075(3) 0.5620(5) 0.3448(5)
H1 H 0.092(3) 0.477(2) 0.337(7)
H2 H 0.075(3) 0.620(5) 0.347(6)
O6 O 0.1880(3) 0.3838(5) 0.1148(4)
O7 O 0.2083(3) 0.3798(5) 0.3231(4)
O8 O 0.2601(3) 0.1900(5) 0.1511(4)
O9 O 0.2689(3) 0.1716(5) 0.3530(4)
N1 N -0.2154(3) -0.0116(6) 0.0329(5)
H3 H -0.2219 -0.1042 0.0368
H4 H -0.2444 0.0181 -0.0367
H5 H -0.2286 0.0338 0.0784
C1 C 0.0139(4) 0.0709(7) 0.1266(5)
H6 H 0.0650 0.0902 0.1505
C2 C -0.0383(4) 0.1815(7) 0.0944(5)
C3 C -0.0172(4) 0.3319(7) 0.0810(6)
C4 C -0.1124(4) 0.1554(7) 0.0667(5)
H7 H -0.1467 0.2298 0.0486
C5 C -0.1360(4) 0.0174(7) 0.0659(6)
C6 C -0.0857(4) -0.0946(7) 0.0915(6)
H8 H -0.1027 -0.1871 0.0874
C7 C -0.0099(4) -0.0685(7) 0.1233(6)
C8 C 0.0431(4) -0.1913(7) 0.1513(5)
C9 C 0.2272(4) 0.2842(7) 0.1771(6)
C10 C 0.2354(4) 0.2780(7) 0.2942(6)
Tb1D Tb -0.132662(18) 0.43777(3) -0.18510(3)
Tb1_2 Tb 0.132662(18) -0.43777(3) 0.18510(3)
Tb1C Tb 0.367338(18) 0.06223(3) 0.31490(3)
O2D O 0.0688(3) 0.5917(5) -0.0107(4)
O3_2 O 0.1113(3) 0.8271(5) 0.1793(4)
O4_2 O 0.0159(3) 0.6862(5) 0.1451(4)
O8C O 0.2399(3) 0.6900(5) 0.3489(4)
O9C O 0.2311(3) 0.6716(5) 0.1470(4)
loop_
_geom_bond_atom_site_label_1
_geom_bond_atom_site_label_2
_geom_bond_site_symmetry_1
_geom_bond_site_symmetry_2
Tb1 O1 1_555 1_555
O1 C3 1_555 1_555
O2 C3 1_555 1_555
O3 C8 1_555 1_555
O4 C8 1_555 1_555
O5 Tb1 1_555 1_555
H1 O5 1_555 1_555
H2 O5 1_555 1_555
O6 Tb1 1_555 1_555
O7 Tb1 1_555 1_555
O8 C9 1_555 1_555
O9 C10 1_555 1_555
N1 H3 1_555 1_555
H4 N1 1_555 1_555
H5 N1 1_555 1_555
C1 H6 1_555 1_555
C2 C1 1_555 1_555
C3 C2 1_555 1_555
C4 C2 1_555 1_555
H7 C4 1_555 1_555
C5 N1 1_555 1_555
C6 C5 1_555 1_555
H8 C6 1_555 1_555
C7 C1 1_555 1_555
C8 C7 1_555 1_555
C9 O6 1_555 1_555
C10 O7 1_555 1_555
Tb1D O2 1_555 1_555
Tb1_2 O3 1_555 1_555
Tb1C O8 1_555 1_555
O2D Tb1 1_555 1_555
O3_2 Tb1 1_555 1_555
O4_2 Tb1 1_555 1_555
O8C Tb1 1_555 1_555
O9C Tb1 1_555 1_555
O4 Tb1_2 1_555 1_555
O9 Tb1C 1_555 1_555
C4 C5 1_555 1_555
C6 C7 1_555 1_555
C9 C10 1_555 1_555

#END
