
#######################################################################
#
#                 Cambridge Crystallographic Data Centre
#                                CCDC 
#
#######################################################################
#
# If this CIF has been generated from an entry in the Cambridge 
# Structural Database, then it will include bibliographic, chemical, 
# crystal, experimental, refinement or atomic coordinate data resulting 
# from the CCDC's data processing and validation procedures.
#
#######################################################################

data_HEHGUY
_symmetry_cell_setting           monoclinic
_symmetry_space_group_name_H-M   'C 2/c'
_symmetry_Int_Tables_number      15
_space_group_name_Hall           '-C 2yn'
loop_
_symmetry_equiv_pos_site_id
_symmetry_equiv_pos_as_xyz
1 x,y,z
2 -x,y,1/2-z
3 1/2+x,1/2+y,z
4 1/2-x,1/2+y,1/2-z
5 -x,-y,-z
6 x,-y,1/2+z
7 1/2-x,1/2-y,-z
8 1/2+x,1/2-y,1/2+z
_cell_length_a                   20.0923(19)
_cell_length_b                   9.6520(9)
_cell_length_c                   13.7184(13)
_cell_angle_alpha                90
_cell_angle_beta                 117.6930(10)
_cell_angle_gamma                90
_cell_volume                     2355.67
loop_
_atom_site_label
_atom_site_type_symbol
_atom_site_fract_x
_atom_site_fract_y
_atom_site_fract_z
Pr1 Pr 0.131536(12) 0.43747(3) 0.183795(18)
O1 O 0.10471(16) 0.4360(3) 0.3451(2)
O2 O 0.01386(16) 0.3073(3) 0.1432(3)
O3 O 0.10930(16) 0.1686(3) 0.1786(2)
O4 O 0.20780(15) 0.6224(3) 0.3240(2)
C1 C 0.2346(2) 0.7231(5) 0.2955(3)
C2 C -0.0121(2) 0.0665(5) 0.1229(3)
C3 C 0.0408(2) 0.1862(5) 0.1504(3)
C4 C 0.0123(2) -0.0691(5) 0.1267(3)
C5 C -0.0392(2) -0.1784(5) 0.0943(3)
C6 C -0.1372(2) -0.0159(5) 0.0632(3)
C7 C -0.0882(3) 0.0933(5) 0.0889(4)
N1 N -0.21681(18) 0.0101(4) 0.0277(3)
H1 H -0.2443 -0.0285 -0.0379
H2 H -0.2251 0.1010 0.0231
H3 H -0.2295 -0.0264 0.0763
C8 C -0.1140(2) -0.1508(5) 0.0645(4)
O5 O 0.19181(16) 0.6181(3) 0.1187(2)
C9 C 0.2275(2) 0.7177(5) 0.1786(3)
O6 O 0.25944(15) 0.8122(4) 0.1536(2)
C10 C -0.0175(2) -0.3244(5) 0.0841(3)
O7 O -0.06881(15) -0.4021(3) 0.0157(2)
O8 O 0.04981(15) -0.3602(3) 0.1426(2)
H4 H -0.101(2) 0.182(5) 0.081(4)
H5 H 0.064(2) -0.083(4) 0.154(3)
H6 H -0.146(2) -0.214(4) 0.041(3)
O9 O 0.26727(15) 0.8267(3) 0.3534(2)
H7 H 0.0684 0.3856 0.3396
H8 H 0.1070 0.4901 0.3959
Pr1C Pr 0.368464(12) 0.93747(3) 0.316205(18)
Pr1D Pr -0.131536(12) -0.43747(3) -0.183795(18)
Pr1_2 Pr 0.131536(12) -0.56253(3) 0.183795(18)
O6C O 0.24056(15) 0.3122(4) 0.3464(2)
O7D O 0.06881(15) 0.4021(3) -0.0157(2)
O8_2 O 0.04981(15) 0.6398(3) 0.1426(2)
O9C O 0.23273(15) 0.3267(3) 0.1466(2)
loop_
_geom_bond_atom_site_label_1
_geom_bond_atom_site_label_2
_geom_bond_site_symmetry_1
_geom_bond_site_symmetry_2
Pr1 O1 1_555 1_555
O1 H7 1_555 1_555
O2 Pr1 1_555 1_555
O3 Pr1 1_555 1_555
O4 Pr1 1_555 1_555
C1 O4 1_555 1_555
C2 C3 1_555 1_555
C3 O2 1_555 1_555
C4 C2 1_555 1_555
C5 C4 1_555 1_555
C6 C7 1_555 1_555
C7 C2 1_555 1_555
N1 C6 1_555 1_555
H1 N1 1_555 1_555
H2 N1 1_555 1_555
H3 N1 1_555 1_555
C8 C5 1_555 1_555
O5 Pr1 1_555 1_555
C9 C1 1_555 1_555
O6 C9 1_555 1_555
C10 C5 1_555 1_555
O7 C10 1_555 1_555
O8 C10 1_555 1_555
H4 C7 1_555 1_555
H5 C4 1_555 1_555
H6 C8 1_555 1_555
O9 C1 1_555 1_555
H8 O1 1_555 1_555
Pr1C O6 1_555 1_555
Pr1D O7 1_555 1_555
Pr1_2 O8 1_555 1_555
O6C Pr1 1_555 1_555
O7D Pr1 1_555 1_555
O8_2 Pr1 1_555 1_555
O9C Pr1 1_555 1_555
O3 C3 1_555 1_555
C6 C8 1_555 1_555
O5 C9 1_555 1_555
O9 Pr1C 1_555 1_555

#END
