
#######################################################################
#
#                 Cambridge Crystallographic Data Centre
#                                CCDC 
#
#######################################################################
#
# If this CIF has been generated from an entry in the Cambridge 
# Structural Database, then it will include bibliographic, chemical, 
# crystal, experimental, refinement or atomic coordinate data resulting 
# from the CCDC's data processing and validation procedures.
#
#######################################################################

data_HEHHAD
_symmetry_cell_setting           orthorhombic
_symmetry_space_group_name_H-M   'C c c 2'
_symmetry_Int_Tables_number      37
_space_group_name_Hall           'C 2 -2c'
loop_
_symmetry_equiv_pos_site_id
_symmetry_equiv_pos_as_xyz
1 x,y,z
2 1/2+x,1/2+y,z
3 -x,y,1/2+z
4 1/2-x,1/2+y,1/2+z
5 x,-y,1/2+z
6 1/2+x,1/2-y,1/2+z
7 -x,-y,z
8 1/2-x,1/2-y,z
_cell_length_a                   7.428(1)
_cell_length_b                   13.278(2)
_cell_length_c                   8.005(3)
_cell_angle_alpha                90
_cell_angle_beta                 90
_cell_angle_gamma                90
_cell_volume                     789.525
loop_
_atom_site_label
_atom_site_type_symbol
_atom_site_fract_x
_atom_site_fract_y
_atom_site_fract_z
Cd1 Cd 0.2500 0.2500 0.000
N1 N -0.066(1) 0.1799(9) -0.281(2)
C1 C 0.041(2) 0.1961(9) -0.190(1)
C2 C -0.091(1) 0.4142(6) 0.014(2)
N2 N 0.0893(8) 0.4092(4) -0.023(1)
C3 C 0.176(1) 0.4943(6) -0.006(3)
H1 H -0.166(1) 0.3483(6) 0.048(2)
H2 H 0.321(1) 0.4934(6) -0.019(3)
N1E N 0.434(1) 0.3201(9) 0.219(2)
C1G C 0.459(2) 0.3039(9) -0.190(1)
N2G N 0.4107(8) 0.0908(4) -0.023(1)
N1B N 0.066(1) 0.1799(9) 0.219(2)
C3F C -0.176(1) 0.5057(6) -0.006(3)
C2F C 0.091(1) 0.5858(6) 0.014(2)
N1G N 0.566(1) 0.3201(9) -0.281(2)
Cd1B Cd -0.2500 0.2500 -0.500
N2F N -0.0893(8) 0.5908(4) -0.023(1)
H2F H -0.321(1) 0.5066(6) -0.019(3)
H1F H 0.166(1) 0.6517(6) 0.048(2)
Cd1B_2 Cd 0.7500 0.2500 -0.500
Cd1A Cd -0.2500 0.7500 0.000
loop_
_geom_bond_atom_site_label_1
_geom_bond_atom_site_label_2
_geom_bond_site_symmetry_1
_geom_bond_site_symmetry_2
Cd1 C1 1_555 1_555
N1 C1 1_555 1_555
C2 N2 1_555 1_555
N2 Cd1 1_555 1_555
C3 N2 1_555 1_555
H1 C2 1_555 1_555
H2 C3 1_555 1_555
N1E Cd1 1_555 1_555
C1G Cd1 1_555 1_555
N2G Cd1 1_555 1_555
N1B Cd1 1_555 1_555
C3F C2 1_555 1_555
C2F C3 1_555 1_555
N1G C1G 1_555 1_555
Cd1B N1 1_555 1_555
N2F C3F 1_555 1_555
H2F C3F 1_555 1_555
H1F C2F 1_555 1_555
Cd1B_2 N1G 1_555 1_555
Cd1A N2F 1_555 1_555
C2F N2F 1_555 1_555

#END
