
#######################################################################
#
#                 Cambridge Crystallographic Data Centre
#                                CCDC 
#
#######################################################################
#
# If this CIF has been generated from an entry in the Cambridge 
# Structural Database, then it will include bibliographic, chemical, 
# crystal, experimental, refinement or atomic coordinate data resulting 
# from the CCDC's data processing and validation procedures.
#
#######################################################################

data_HEHJOV
_symmetry_cell_setting           monoclinic
_symmetry_space_group_name_H-M   'C 2/c'
_symmetry_Int_Tables_number      15
_space_group_name_Hall           '-C 2yn'
loop_
_symmetry_equiv_pos_site_id
_symmetry_equiv_pos_as_xyz
1 x,y,z
2 -x,y,1/2-z
3 1/2+x,1/2+y,z
4 1/2-x,1/2+y,1/2-z
5 -x,-y,-z
6 x,-y,1/2+z
7 1/2-x,1/2-y,-z
8 1/2+x,1/2-y,1/2+z
_cell_length_a                   26.808(5)
_cell_length_b                   8.4927(15)
_cell_length_c                   9.6379(17)
_cell_angle_alpha                90
_cell_angle_beta                 105.601(3)
_cell_angle_gamma                90
_cell_volume                     2113.44
loop_
_atom_site_label
_atom_site_type_symbol
_atom_site_fract_x
_atom_site_fract_y
_atom_site_fract_z
Cu1 Cu 0.0000 1.02385(5) 0.2500
Cu2 Cu 0.0000 1.31461(5) -0.2500
Cu3 Cu 0.049260(11) 1.14532(4) -0.01232(3)
O1 O 0.06690(6) 1.0141(2) 0.21524(17)
O2 O 0.10755(7) 0.8938(2) 0.42112(18)
O3 O -0.00561(6) 1.2194(2) 0.05787(16)
O4 O -0.04611(7) 1.35534(19) -0.13831(18)
C1 C 0.10643(9) 0.9514(3) 0.2993(2)
C2 C 0.15581(9) 0.9523(3) 0.2539(3)
H1 H 0.1481 0.9227 0.1510
H2 H 0.1797 0.8724 0.3104
C3 C 0.18226(10) 1.1118(3) 0.2755(3)
H3 H 0.1923 1.1379 0.3794
H4 H 0.1575 1.1930 0.2248
C4 C 0.23006(12) 1.1153(4) 0.2195(4)
H5 H 0.2535 1.0300 0.2641
H6 H 0.2477 1.2167 0.2435
H7 H 0.2198 1.1014 0.1147
C5 C -0.04181(9) 1.3087(3) -0.0125(2)
C6 C -0.08185(10) 1.3591(3) 0.0616(2)
H8 H -0.0639 1.4085 0.1546
H9 H -0.0997 1.2639 0.0832
C7 C -0.12198(10) 1.4720(3) -0.0215(3)
H10 H -0.1043 1.5659 -0.0464
H11 H -0.1412 1.4213 -0.1127
C8 C -0.16047(10) 1.5248(3) 0.0596(3)
H12 H -0.1420 1.5782 0.1487
H13 H -0.1856 1.5974 -0.0007
H14 H -0.1787 1.4327 0.0831
Cu2_2 Cu 0.0000 1.31461(5) 0.7500
Cu3A Cu -0.049260(11) 1.14532(4) 0.51232(3)
Cu3E Cu 0.049260(11) 0.85468(4) 0.48768(3)
Cu3D Cu -0.049260(11) 0.85468(4) 0.01232(3)
O1A O -0.06690(6) 1.0141(2) 0.28476(17)
O2A O -0.10755(7) 0.8938(2) 0.07888(18)
O2E O 0.10755(7) 1.1062(2) -0.07888(18)
O2D O -0.10755(7) 1.1062(2) 0.57888(18)
O3A O 0.00561(6) 1.2194(2) 0.44213(16)
O4A O 0.04611(7) 1.35534(19) 0.63831(18)
O4A_2 O 0.04611(7) 1.35534(19) -0.36169(18)
C1A C -0.10643(9) 0.9514(3) 0.2007(2)
C2A C -0.15581(9) 0.9523(3) 0.2461(3)
H1A H -0.1481 0.9227 0.3490
H2A H -0.1797 0.8724 0.1896
C3A C -0.18226(10) 1.1118(3) 0.2245(3)
H3A H -0.1923 1.1379 0.1206
H4A H -0.1575 1.1930 0.2752
C4A C -0.23006(12) 1.1153(4) 0.2805(4)
H5A H -0.2535 1.0300 0.2359
H6A H -0.2477 1.2167 0.2565
H7A H -0.2198 1.1014 0.3853
C5A C 0.04181(9) 1.3087(3) 0.5125(2)
C6A C 0.08185(10) 1.3591(3) 0.4384(2)
H8A H 0.0639 1.4085 0.3454
H9A H 0.0997 1.2639 0.4168
C7A C 0.12198(10) 1.4720(3) 0.5215(3)
H10A H 0.1043 1.5659 0.5464
H11A H 0.1412 1.4213 0.6127
C8A C 0.16047(10) 1.5248(3) 0.4404(3)
H12A H 0.1420 1.5782 0.3513
H13A H 0.1856 1.5974 0.5007
H14A H 0.1787 1.4327 0.4169
loop_
_geom_bond_atom_site_label_1
_geom_bond_atom_site_label_2
_geom_bond_site_symmetry_1
_geom_bond_site_symmetry_2
Cu1 O1 1_555 1_555
Cu2 O4 1_555 1_555
Cu3 O1 1_555 1_555
O1 C1 1_555 1_555
O2 C1 1_555 1_555
O3 Cu3 1_555 1_555
O4 C5 1_555 1_555
C1 C2 1_555 1_555
C2 H1 1_555 1_555
H2 C2 1_555 1_555
C3 C2 1_555 1_555
H3 C3 1_555 1_555
H4 C3 1_555 1_555
C4 C3 1_555 1_555
H5 C4 1_555 1_555
H6 C4 1_555 1_555
H7 C4 1_555 1_555
C5 O3 1_555 1_555
C6 C5 1_555 1_555
H8 C6 1_555 1_555
H9 C6 1_555 1_555
C7 C6 1_555 1_555
H10 C7 1_555 1_555
H11 C7 1_555 1_555
C8 C7 1_555 1_555
H12 C8 1_555 1_555
H13 C8 1_555 1_555
H14 C8 1_555 1_555
Cu2_2 O4A 1_555 1_555
Cu3A O1A 1_555 1_555
Cu3E O2 1_555 1_555
Cu3D O2A 1_555 1_555
O1A Cu1 1_555 1_555
O2A C1A 1_555 1_555
O2E Cu3 1_555 1_555
O2D Cu3A 1_555 1_555
O3A Cu3A 1_555 1_555
O4A C5A 1_555 1_555
O4A_2 Cu2 1_555 1_555
C1A O1A 1_555 1_555
C2A C1A 1_555 1_555
H1A C2A 1_555 1_555
H2A C2A 1_555 1_555
C3A C2A 1_555 1_555
H3A C3A 1_555 1_555
H4A C3A 1_555 1_555
C4A C3A 1_555 1_555
H5A C4A 1_555 1_555
H6A C4A 1_555 1_555
H7A C4A 1_555 1_555
C5A O3A 1_555 1_555
C6A C5A 1_555 1_555
H8A C6A 1_555 1_555
H9A C6A 1_555 1_555
C7A C6A 1_555 1_555
H10A C7A 1_555 1_555
H11A C7A 1_555 1_555
C8A C7A 1_555 1_555
H12A C8A 1_555 1_555
H13A C8A 1_555 1_555
H14A C8A 1_555 1_555

#END
