
#######################################################################
#
#                 Cambridge Crystallographic Data Centre
#                                CCDC 
#
#######################################################################
#
# If this CIF has been generated from an entry in the Cambridge 
# Structural Database, then it will include bibliographic, chemical, 
# crystal, experimental, refinement or atomic coordinate data resulting 
# from the CCDC's data processing and validation procedures.
#
#######################################################################

data_HEKSOH
_symmetry_cell_setting           triclinic
_symmetry_space_group_name_H-M   'P -1'
_symmetry_Int_Tables_number      2
_space_group_name_Hall           '-P 1'
loop_
_symmetry_equiv_pos_site_id
_symmetry_equiv_pos_as_xyz
1 x,y,z
2 -x,-y,-z
_cell_length_a                   9.842(2)
_cell_length_b                   10.237(3)
_cell_length_c                   15.175(4)
_cell_angle_alpha                72.892(4)
_cell_angle_beta                 84.194(4)
_cell_angle_gamma                63.756(4)
_cell_volume                     1309.89
loop_
_atom_site_label
_atom_site_type_symbol
_atom_site_fract_x
_atom_site_fract_y
_atom_site_fract_z
Cd1 Cd 0.24213(4) 0.20743(4) 0.65542(2)
O1 O 0.0965(4) 0.2090(4) 0.5453(2)
O2 O 0.3350(4) 0.0416(4) 0.5589(2)
O3 O 0.3675(4) 0.1092(4) -0.2022(2)
O4 O 0.2041(4) 0.0234(4) -0.2163(2)
N1 N 0.3310(5) 0.3595(5) 0.5511(3)
N2 N 0.4066(5) 0.4527(4) 0.4168(3)
N3 N 0.9009(4) 0.4906(4) -0.1857(3)
N4 N 1.0520(5) 0.3973(5) -0.2902(3)
N5 N 0.1227(5) -0.0456(5) 0.2049(3)
H1 H 0.0414 -0.0364 0.2097
C1 C 0.1881(6) 0.0741(5) 0.4331(3)
C2 C 0.3079(6) 0.0166(5) 0.3782(3)
H2 H 0.4039 0.0003 0.3945
C3 C 0.2898(5) -0.0171(5) 0.3005(3)
H3 H 0.3718 -0.0524 0.2636
C4 C 0.1467(6) 0.0018(5) 0.2769(3)
C5 C 0.0263(6) 0.0596(6) 0.3317(3)
H4 H -0.0690 0.0723 0.3169
C6 C 0.0443(6) 0.0985(6) 0.4071(3)
H5 H -0.0392 0.1412 0.4413
C7 C 0.1872(5) -0.0373(5) 0.1195(3)
C8 C 0.2675(6) 0.0480(6) 0.0820(3)
H6 H 0.2938 0.0932 0.1181
C9 C 0.3078(5) 0.0652(6) -0.0089(3)
H7 H 0.3602 0.1237 -0.0335
C10 C 0.2728(5) -0.0019(5) -0.0649(3)
C11 C 0.2017(6) -0.0948(6) -0.0248(3)
H8 H 0.1798 -0.1441 -0.0599
C12 C 0.1634(7) -0.1147(6) 0.0658(3)
H9 H 0.1205 -0.1815 0.0920
C13 C 0.2877(6) 0.0420(5) -0.1670(3)
C14 C 0.4121(6) 0.3266(6) 0.4796(3)
H10 H 0.4660 0.2291 0.4733
C15 C 0.2701(7) 0.5115(6) 0.5331(4)
H11 H 0.2070 0.5661 0.5723
C16 C 0.3130(7) 0.5732(6) 0.4507(4)
H12 H 0.2854 0.6757 0.4224
C17 C 0.4812(6) 0.4623(5) 0.3304(3)
C18 C 0.4546(8) 0.6002(6) 0.2714(4)
H13 H 0.3878 0.6879 0.2868
C19 C 0.5265(8) 0.6106(6) 0.1884(4)
H14 H 0.5063 0.7058 0.1481
C20 C 0.6273(5) 0.4831(5) 0.1640(3)
C21 C 0.6537(6) 0.3434(5) 0.2254(4)
H15 H 0.7217 0.2555 0.2105
C22 C 0.5817(6) 0.3315(6) 0.3080(4)
H16 H 0.6004 0.2367 0.3483
C23 C 0.7021(6) 0.4940(5) 0.0738(3)
C24 C 0.6232(6) 0.5956(6) -0.0067(4)
H17 H 0.5236 0.6654 -0.0034
C25 C 0.6865(6) 0.5967(6) -0.0906(4)
H18 H 0.6294 0.6645 -0.1437
C26 C 0.8357(6) 0.4972(5) -0.0971(3)
C27 C 0.9193(6) 0.3996(6) -0.0180(3)
H19 H 1.0210 0.3351 -0.0214
C28 C 0.8529(6) 0.3970(6) 0.0667(3)
H20 H 0.9100 0.3293 0.1198
C29 C 0.8416(7) 0.5838(8) -0.2693(4)
H21 H 0.7524 0.6731 -0.2814
C30 C 0.9354(7) 0.5236(8) -0.3323(4)
H22 H 0.9204 0.5647 -0.3958
C31 C 1.0299(7) 0.3816(6) -0.2027(4)
H23 H 1.0969 0.3027 -0.1568
C32 C 0.2083(5) 0.1100(5) 0.5179(3)
Cd1_2 Cd 0.24213(4) 0.20743(4) -0.34458(2)
Cd1_3 Cd 1.24213(4) 0.20743(4) -0.34458(2)
O3_2 O 0.3675(4) 0.1092(4) 0.7978(2)
O4_2 O 0.2041(4) 0.0234(4) 0.7837(2)
N4_2 N 0.0520(5) 0.3973(5) 0.7098(3)
loop_
_geom_bond_atom_site_label_1
_geom_bond_atom_site_label_2
_geom_bond_site_symmetry_1
_geom_bond_site_symmetry_2
Cd1 O1 1_555 1_555
O1 C32 1_555 1_555
O2 Cd1 1_555 1_555
O3 C13 1_555 1_555
O4 C13 1_555 1_555
N1 Cd1 1_555 1_555
N2 C14 1_555 1_555
N3 C26 1_555 1_555
N4 C30 1_555 1_555
N5 H1 1_555 1_555
C1 C2 1_555 1_555
C2 H2 1_555 1_555
C3 C2 1_555 1_555
H3 C3 1_555 1_555
C4 N5 1_555 1_555
C5 C4 1_555 1_555
H4 C5 1_555 1_555
C6 C1 1_555 1_555
H5 C6 1_555 1_555
C7 N5 1_555 1_555
C8 C7 1_555 1_555
H6 C8 1_555 1_555
C9 C8 1_555 1_555
H7 C9 1_555 1_555
C10 C9 1_555 1_555
C11 C10 1_555 1_555
H8 C11 1_555 1_555
C12 C7 1_555 1_555
H9 C12 1_555 1_555
C13 C10 1_555 1_555
C14 N1 1_555 1_555
H10 C14 1_555 1_555
C15 N1 1_555 1_555
H11 C15 1_555 1_555
C16 N2 1_555 1_555
H12 C16 1_555 1_555
C17 N2 1_555 1_555
C18 C17 1_555 1_555
H13 C18 1_555 1_555
C19 C18 1_555 1_555
H14 C19 1_555 1_555
C20 C19 1_555 1_555
C21 C20 1_555 1_555
H15 C21 1_555 1_555
C22 C17 1_555 1_555
H16 C22 1_555 1_555
C23 C20 1_555 1_555
C24 C23 1_555 1_555
H17 C24 1_555 1_555
C25 C24 1_555 1_555
H18 C25 1_555 1_555
C26 C25 1_555 1_555
C27 C26 1_555 1_555
H19 C27 1_555 1_555
C28 C23 1_555 1_555
H20 C28 1_555 1_555
C29 N3 1_555 1_555
H21 C29 1_555 1_555
C30 C29 1_555 1_555
H22 C30 1_555 1_555
C31 N3 1_555 1_555
H23 C31 1_555 1_555
C32 O2 1_555 1_555
Cd1_2 O3 1_555 1_555
Cd1_3 N4 1_555 1_555
O3_2 Cd1 1_555 1_555
O4_2 Cd1 1_555 1_555
N4_2 Cd1 1_555 1_555
O4 Cd1_2 1_555 1_555
N4 C31 1_555 1_555
C1 C32 1_555 1_555
C3 C4 1_555 1_555
C5 C6 1_555 1_555
C11 C12 1_555 1_555
C15 C16 1_555 1_555
C21 C22 1_555 1_555
C27 C28 1_555 1_555

#END
