
#######################################################################
#
#                 Cambridge Crystallographic Data Centre
#                                CCDC 
#
#######################################################################
#
# If this CIF has been generated from an entry in the Cambridge 
# Structural Database, then it will include bibliographic, chemical, 
# crystal, experimental, refinement or atomic coordinate data resulting 
# from the CCDC's data processing and validation procedures.
#
#######################################################################

data_HEKTUO01
_symmetry_cell_setting           monoclinic
_symmetry_space_group_name_H-M   'C 2/c'
_symmetry_Int_Tables_number      15
_space_group_name_Hall           '-C 2yn'
loop_
_symmetry_equiv_pos_site_id
_symmetry_equiv_pos_as_xyz
1 x,y,z
2 -x,y,1/2-z
3 1/2+x,1/2+y,z
4 1/2-x,1/2+y,1/2-z
5 -x,-y,-z
6 x,-y,1/2+z
7 1/2-x,1/2-y,-z
8 1/2+x,1/2-y,1/2+z
_cell_length_a                   20.0407(4)
_cell_length_b                   10.0674(2)
_cell_length_c                   18.9273(5)
_cell_angle_alpha                90
_cell_angle_beta                 101.300(2)
_cell_angle_gamma                90
_cell_volume                     3744.7
loop_
_atom_site_label
_atom_site_type_symbol
_atom_site_fract_x
_atom_site_fract_y
_atom_site_fract_z
Cd1 Cd -0.094811(13) -0.05062(3) -0.026203(14)
O1 O -0.20826(13) -0.1097(3) -0.07871(15)
O2 O -0.14992(14) 0.0002(3) -0.14261(14)
O3 O 0.00426(13) -0.0815(2) -0.06627(14)
O4 O -0.10251(13) 0.1593(3) 0.00833(15)
O5 O -0.06506(13) -0.2240(2) 0.04125(13)
Cd2 Cd -0.2500 -0.2500 0.0000
C1 C -0.20525(18) -0.0484(4) -0.13508(18)
O6 O -0.30698(15) -0.3895(3) -0.08586(17)
O7 O -0.34693(12) -0.1381(3) -0.00772(15)
C2 C -0.26644(18) -0.0312(4) -0.19336(18)
C3 C -0.3092(2) -0.5065(5) -0.1083(2)
C4 C -0.26566(19) 0.0572(4) -0.24902(19)
C5 C -0.3255(2) -0.1001(5) -0.1921(2)
C6 C -0.2562(2) -0.6058(5) -0.0743(3)
N1 N -0.3580(2) -0.5433(4) -0.16140(18)
H1 H -0.2261 0.1042 -0.2508
C7 C -0.32319(18) 0.0771(4) -0.30252(19)
C8 C -0.3829(2) -0.0806(5) -0.2448(2)
H2 H -0.3268 -0.1606 -0.1552
H3 H -0.2245 -0.5636 -0.0363
H4 H -0.2324 -0.6386 -0.1101
H5 H -0.2779 -0.6784 -0.0549
C9 C -0.4099(2) -0.4487(5) -0.1942(2)
C10 C -0.3634(3) -0.6758(5) -0.1935(3)
H6 H -0.3215 0.1360 -0.3399
C11 C -0.38296(18) 0.0096(4) -0.30038(18)
H7 H -0.4222 -0.1286 -0.2431
H8 H -0.4022 -0.3650 -0.1697
H9 H -0.4540 -0.4818 -0.1905
H10 H -0.4078 -0.4371 -0.2441
H11 H -0.3271 -0.7306 -0.1686
H12 H -0.3605 -0.6694 -0.2434
H13 H -0.4063 -0.7145 -0.1895
C12 C -0.44594(17) 0.0327(3) -0.35478(18)
C13 C -0.46530(17) 0.1616(4) -0.37719(18)
C14 C -0.48792(18) -0.0721(3) -0.38386(18)
H14 H -0.4373 0.2326 -0.3594
C15 C -0.52590(17) 0.1853(3) -0.42580(18)
C16 C -0.54874(17) -0.0485(3) -0.43131(18)
H15 H -0.4749 -0.1589 -0.3712
C17 C -0.56792(17) 0.0802(3) -0.45189(18)
C18 C -0.54541(19) 0.3235(4) -0.45206(19)
C19 C -0.59310(17) -0.1632(3) -0.46352(17)
H16 H -0.6091 0.0958 -0.4832
O3D O -0.00426(13) 0.0815(2) 0.06627(14)
O6F O -0.19302(15) -0.1105(3) 0.08586(17)
O1F O -0.29174(13) -0.3903(3) 0.07871(15)
O7F O -0.15307(12) -0.3619(3) 0.00772(15)
C3F C -0.1908(2) 0.0065(5) 0.1083(2)
Cd1F Cd -0.405189(13) -0.44938(3) 0.026203(14)
C1F C -0.29475(18) -0.4516(4) 0.13508(18)
O5F O -0.43494(13) -0.2760(2) -0.04125(13)
C6F C -0.2438(2) 0.1058(5) 0.0743(3)
N1F N -0.1420(2) 0.0433(4) 0.16140(18)
O3F O -0.50426(13) -0.4185(2) 0.06627(14)
O2F O -0.35008(14) -0.5002(3) 0.14261(14)
O4F O -0.39749(13) -0.6593(3) -0.00833(15)
O3B O -0.49574(13) -0.5815(2) -0.06627(14)
C2F C -0.23356(18) -0.4688(4) 0.19336(18)
H3F H -0.2755 0.0636 0.0363
H4F H -0.2676 0.1386 0.1101
H5F H -0.2221 0.1784 0.0549
C9F C -0.0901(2) -0.0513(5) 0.1942(2)
C10F C -0.1366(3) 0.1758(5) 0.1935(3)
C4F C -0.23434(19) -0.5572(4) 0.24902(19)
C5F C -0.1745(2) -0.3999(5) 0.1921(2)
H8F H -0.0978 -0.1350 0.1697
H9F H -0.0460 -0.0182 0.1905
H10F H -0.0922 -0.0629 0.2441
H11F H -0.1729 0.2306 0.1686
H12F H -0.1395 0.1694 0.2434
H13F H -0.0937 0.2145 0.1895
C7F C -0.17681(18) -0.5771(4) 0.30252(19)
H1F H -0.2739 -0.6042 0.2508
C8F C -0.1171(2) -0.4194(5) 0.2448(2)
H2F H -0.1732 -0.3394 0.1552
C11F C -0.11704(18) -0.5096(4) 0.30038(18)
H6F H -0.1785 -0.6360 0.3399
H7F H -0.0778 -0.3714 0.2431
C12F C -0.05406(17) -0.5327(3) 0.35478(18)
C14F C -0.01208(18) -0.4279(3) 0.38386(18)
C13F C -0.03470(17) -0.6616(4) 0.37719(18)
H15F H -0.0251 -0.3411 0.3712
C16F C 0.04874(17) -0.4515(3) 0.43131(18)
H14F H -0.0627 -0.7326 0.3594
C15F C 0.02590(17) -0.6853(3) 0.42580(18)
O3C O -0.50426(13) 0.4185(2) -0.43373(14)
O4G O -0.60251(13) 0.3407(3) -0.49167(15)
O5G O -0.56506(13) -0.2760(2) -0.45875(13)
O7A O -0.65307(12) -0.1381(3) -0.49228(15)
C19F C 0.09310(17) -0.3368(3) 0.46352(17)
C17F C 0.06792(17) -0.5802(3) 0.45189(18)
C18F C 0.04541(19) -0.8235(4) 0.45206(19)
Cd1C Cd -0.405189(13) 0.44938(3) -0.473797(14)
Cd1G Cd -0.594811(13) 0.55062(3) -0.526203(14)
Cd1G_2 Cd -0.594811(13) -0.44938(3) -0.526203(14)
Cd2A Cd -0.7500 -0.2500 -0.5000
Cd2A_2 Cd 0.2500 -0.2500 0.5000
O7G O 0.15307(12) -0.3619(3) 0.49228(15)
O5A O 0.06506(13) -0.2240(2) 0.45875(13)
H16F H 0.1091 -0.5958 0.4832
O3E O 0.00426(13) -0.9185(2) 0.43373(14)
O4A O 0.10251(13) -0.8407(3) 0.49167(15)
Cd1A Cd 0.094811(13) -0.05062(3) 0.526203(14)
Cd1E Cd -0.094811(13) -0.94938(3) 0.473797(14)
Cd1A_2 Cd 0.094811(13) -1.05062(3) 0.526203(14)
loop_
_geom_bond_atom_site_label_1
_geom_bond_atom_site_label_2
_geom_bond_site_symmetry_1
_geom_bond_site_symmetry_2
Cd1 O1 1_555 1_555
O1 Cd2 1_555 1_555
O2 Cd1 1_555 1_555
O3 Cd1 1_555 1_555
O4 Cd1 1_555 1_555
O5 Cd1 1_555 1_555
Cd2 O6 1_555 1_555
C1 O1 1_555 1_555
O6 C3 1_555 1_555
O7 Cd2 1_555 1_555
C2 C1 1_555 1_555
C3 C6 1_555 1_555
C4 C2 1_555 1_555
C5 C2 1_555 1_555
C6 H3 1_555 1_555
N1 C3 1_555 1_555
H1 C4 1_555 1_555
C7 C4 1_555 1_555
C8 C5 1_555 1_555
H2 C5 1_555 1_555
H4 C6 1_555 1_555
H5 C6 1_555 1_555
C9 N1 1_555 1_555
C10 N1 1_555 1_555
H6 C7 1_555 1_555
C11 C7 1_555 1_555
H7 C8 1_555 1_555
H8 C9 1_555 1_555
H9 C9 1_555 1_555
H10 C9 1_555 1_555
H11 C10 1_555 1_555
H12 C10 1_555 1_555
H13 C10 1_555 1_555
C12 C11 1_555 1_555
C13 C12 1_555 1_555
C14 C12 1_555 1_555
H14 C13 1_555 1_555
C15 C13 1_555 1_555
C16 C14 1_555 1_555
H15 C14 1_555 1_555
C17 C15 1_555 1_555
C18 C15 1_555 1_555
C19 C16 1_555 1_555
H16 C17 1_555 1_555
O3D Cd1 1_555 1_555
O6F Cd2 1_555 1_555
O1F Cd2 1_555 1_555
O7F Cd2 1_555 1_555
C3F O6F 1_555 1_555
Cd1F O1F 1_555 1_555
C1F O1F 1_555 1_555
O5F Cd1F 1_555 1_555
C6F C3F 1_555 1_555
N1F C3F 1_555 1_555
O3F Cd1F 1_555 1_555
O2F Cd1F 1_555 1_555
O4F Cd1F 1_555 1_555
O3B Cd1F 1_555 1_555
C2F C1F 1_555 1_555
H3F C6F 1_555 1_555
H4F C6F 1_555 1_555
H5F C6F 1_555 1_555
C9F N1F 1_555 1_555
C10F N1F 1_555 1_555
C4F C2F 1_555 1_555
C5F C2F 1_555 1_555
H8F C9F 1_555 1_555
H9F C9F 1_555 1_555
H10F C9F 1_555 1_555
H11F C10F 1_555 1_555
H12F C10F 1_555 1_555
H13F C10F 1_555 1_555
C7F C4F 1_555 1_555
H1F C4F 1_555 1_555
C8F C5F 1_555 1_555
H2F C5F 1_555 1_555
C11F C7F 1_555 1_555
H6F C7F 1_555 1_555
H7F C8F 1_555 1_555
C12F C11F 1_555 1_555
C14F C12F 1_555 1_555
C13F C12F 1_555 1_555
H15F C14F 1_555 1_555
C16F C14F 1_555 1_555
H14F C13F 1_555 1_555
C15F C13F 1_555 1_555
O3C C18 1_555 1_555
O4G C18 1_555 1_555
O5G C19 1_555 1_555
O7A C19 1_555 1_555
C19F C16F 1_555 1_555
C17F C16F 1_555 1_555
C18F C15F 1_555 1_555
Cd1C O3C 1_555 1_555
Cd1G O3C 1_555 1_555
Cd1G_2 O5G 1_555 1_555
Cd2A O7A 1_555 1_555
Cd2A_2 O7G 1_555 1_555
O7G C19F 1_555 1_555
O5A C19F 1_555 1_555
H16F C17F 1_555 1_555
O3E C18F 1_555 1_555
O4A C18F 1_555 1_555
Cd1A O5A 1_555 1_555
Cd1E O3E 1_555 1_555
Cd1A_2 O3E 1_555 1_555
O2 C1 1_555 1_555
C8 C11 1_555 1_555
C16 C17 1_555 1_555
C1F O2F 1_555 1_555
C8F C11F 1_555 1_555
C15F C17F 1_555 1_555
O4G Cd1G 1_555 1_555
O4A Cd1A_2 1_555 1_555

#END
