
#######################################################################
#
#                 Cambridge Crystallographic Data Centre
#                                CCDC 
#
#######################################################################
#
# If this CIF has been generated from an entry in the Cambridge 
# Structural Database, then it will include bibliographic, chemical, 
# crystal, experimental, refinement or atomic coordinate data resulting 
# from the CCDC's data processing and validation procedures.
#
#######################################################################

data_HELCUY
_symmetry_cell_setting           monoclinic
_symmetry_space_group_name_H-M   'P 21/c'
_symmetry_Int_Tables_number      14
_space_group_name_Hall           '-P 2ybc'
loop_
_symmetry_equiv_pos_site_id
_symmetry_equiv_pos_as_xyz
1 x,y,z
2 -x,1/2+y,1/2-z
3 -x,-y,-z
4 x,1/2-y,1/2+z
_cell_length_a                   5.5807(11)
_cell_length_b                   13.793(3)
_cell_length_c                   24.064(5)
_cell_angle_alpha                90
_cell_angle_beta                 95.91(3)
_cell_angle_gamma                90
_cell_volume                     1842.47
loop_
_atom_site_label
_atom_site_type_symbol
_atom_site_fract_x
_atom_site_fract_y
_atom_site_fract_z
Zn1 Zn 2.00171(9) 0.42378(4) 0.44983(2)
Zn2 Zn 1.5000 0.5000 0.5000
Zn3 Zn 2.30894(10) 0.24723(4) 0.50589(2)
O1 O 1.7152(8) 0.4701(3) 0.20905(16)
O2 O 1.3624(7) 0.3357(3) 0.35258(15)
O3 O 1.9207(7) 0.1655(3) 0.26715(17)
O4 O 1.8674(6) 0.2799(3) 0.42519(15)
O5 O 2.1451(7) 0.1647(3) 0.44599(15)
O6 O 1.8680(7) 0.4806(3) 0.37895(14)
O7 O 1.1698(5) 0.5597(2) 0.48370(13)
O8 O 1.3384(5) 0.3713(2) 0.46607(13)
O9 O 2.6182(6) 0.1771(3) 0.51744(15)
O10 O 2.0590(7) 0.2438(3) 0.05716(15)
O11 O 1.5701(7) 0.5534(3) 0.41881(14)
O12 O 2.3310(7) 0.3058(4) 0.12072(18)
N1 N 1.6397(8) 0.2467(3) 0.31110(16)
N2 N 1.8385(8) 0.3203(3) 0.24095(16)
N3 N 1.5398(7) 0.4058(3) 0.28164(16)
C1 C 1.5081(9) 0.3299(4) 0.31839(19)
C2 C 1.8088(9) 0.2390(3) 0.2731(2)
C3 C 1.6999(9) 0.4033(4) 0.24155(19)
C4 C 1.4152(10) 0.4987(4) 0.2904(2)
H1 H 1.2804 0.4868 0.3119
H2 H 1.3522 0.5251 0.2545
C5 C 1.5842(9) 0.5721(3) 0.32097(19)
H3 H 1.4983 0.6323 0.3254
H4 H 1.7171 0.5855 0.2991
C6 C 1.6810(9) 0.5338(3) 0.3778(2)
C7 C 1.5974(9) 0.1617(4) 0.3462(2)
H5 H 1.5310 0.1098 0.3221
H6 H 1.4773 0.1789 0.3709
C8 C 1.8182(10) 0.1239(4) 0.3812(2)
H7 H 1.7701 0.0699 0.4034
H8 H 1.9295 0.0989 0.3563
C9 C 1.9504(9) 0.1968(3) 0.42000(19)
C10 C 2.0268(9) 0.3168(4) 0.2023(2)
H9 H 2.1660 0.2827 0.2202
H10 H 2.0764 0.3824 0.1945
C11 C 2.1294(9) 0.2747(4) 0.1073(2)
C12 C 1.9425(9) 0.2672(4) 0.1483(2)
H11 H 1.7935 0.2968 0.1322
H12 H 1.9106 0.1995 0.1554
Zn1B Zn 0.99829(9) 0.57622(4) 0.55017(2)
Zn1_2 Zn 1.00171(9) 0.42378(4) 0.44983(2)
Zn1B_2 Zn 1.99829(9) 0.57622(4) 0.55017(2)
Zn3B Zn 0.69106(10) 0.75277(4) 0.49411(2)
Zn3_2 Zn 1.30894(10) 0.24723(4) 0.50589(2)
Zn3C Zn 2.30894(10) 0.25277(4) 0.00589(2)
Zn3B_2 Zn 1.69106(10) 0.75277(4) 0.49411(2)
Zn3A Zn 0.69106(10) 0.74723(4) 0.99411(2)
O1B O 1.2848(8) 0.5299(3) 0.79095(16)
O2B O 1.6376(7) 0.6643(3) 0.64742(15)
O3B O 1.0793(7) 0.8345(3) 0.73285(17)
O4B O 1.1326(6) 0.7201(3) 0.57481(15)
O5B O 0.8549(7) 0.8353(3) 0.55401(15)
O6B O 1.1320(7) 0.5194(3) 0.62105(14)
O7B O 1.8302(5) 0.4403(2) 0.51630(13)
O7_2 O 2.1698(5) 0.5597(2) 0.48370(13)
O7B_2 O 0.8302(5) 0.4403(2) 0.51630(13)
O8B O 1.6616(5) 0.6287(2) 0.53393(13)
O8_2 O 2.3384(5) 0.3713(2) 0.46607(13)
O8B_2 O 0.6616(5) 0.6287(2) 0.53393(13)
O9B O 0.3818(6) 0.8229(3) 0.48256(15)
O10B O 0.9410(7) 0.7562(3) 0.94284(15)
O10C O 2.0590(7) 0.2562(3) 0.55716(15)
O10A O 0.9410(7) 0.7438(3) 0.44284(15)
O11B O 1.4299(7) 0.4466(3) 0.58119(14)
O12B O 0.6690(7) 0.6942(4) 0.87928(18)
N1B N 1.3603(8) 0.7533(3) 0.68890(16)
N2B N 1.1615(8) 0.6797(3) 0.75905(16)
N3B N 1.4602(7) 0.5942(3) 0.71836(16)
C1B C 1.4919(9) 0.6701(4) 0.68161(19)
C2B C 1.1912(9) 0.7610(3) 0.7269(2)
C3B C 1.3001(9) 0.5967(4) 0.75845(19)
C4B C 1.5848(10) 0.5013(4) 0.7096(2)
H1B H 1.7196 0.5132 0.6881
H2B H 1.6478 0.4749 0.7455
C5B C 1.4158(9) 0.4279(3) 0.67903(19)
H3B H 1.5017 0.3677 0.6746
H4B H 1.2829 0.4145 0.7009
C6B C 1.3190(9) 0.4662(3) 0.6222(2)
C7B C 1.4026(9) 0.8383(4) 0.6538(2)
H5B H 1.4690 0.8902 0.6779
H6B H 1.5227 0.8211 0.6291
C8B C 1.1818(10) 0.8761(4) 0.6188(2)
H7B H 1.2299 0.9301 0.5966
H8B H 1.0705 0.9011 0.6437
C9B C 1.0496(9) 0.8032(3) 0.58000(19)
C10B C 0.9732(9) 0.6832(4) 0.7977(2)
H9B H 0.8340 0.7173 0.7798
H10B H 0.9236 0.6176 0.8055
C11B C 0.8706(9) 0.7253(4) 0.8927(2)
C12B C 1.0575(9) 0.7328(4) 0.8517(2)
H11B H 1.2065 0.7032 0.8678
H12B H 1.0894 0.8005 0.8446
O13 O 0.6680(10) 0.4806(3) 0.0818(2)
loop_
_geom_bond_atom_site_label_1
_geom_bond_atom_site_label_2
_geom_bond_site_symmetry_1
_geom_bond_site_symmetry_2
Zn1 O4 1_555 1_555
Zn2 O7 1_555 1_555
Zn3 O5 1_555 1_555
O1 C3 1_555 1_555
O2 C1 1_555 1_555
O3 C2 1_555 1_555
O4 C9 1_555 1_555
O5 C9 1_555 1_555
O6 Zn1 1_555 1_555
O7 Zn1B 1_555 1_555
O8 Zn2 1_555 1_555
O9 Zn3 1_555 1_555
O10 C11 1_555 1_555
O11 Zn2 1_555 1_555
O12 C11 1_555 1_555
N1 C1 1_555 1_555
N2 C2 1_555 1_555
N3 C1 1_555 1_555
C2 N1 1_555 1_555
C3 N2 1_555 1_555
C4 N3 1_555 1_555
H1 C4 1_555 1_555
H2 C4 1_555 1_555
C5 C4 1_555 1_555
H3 C5 1_555 1_555
H4 C5 1_555 1_555
C6 O6 1_555 1_555
C7 N1 1_555 1_555
H5 C7 1_555 1_555
H6 C7 1_555 1_555
C8 C7 1_555 1_555
H7 C8 1_555 1_555
H8 C8 1_555 1_555
C9 C8 1_555 1_555
C10 N2 1_555 1_555
H9 C10 1_555 1_555
H10 C10 1_555 1_555
C11 C12 1_555 1_555
C12 C10 1_555 1_555
H11 C12 1_555 1_555
H12 C12 1_555 1_555
Zn1B O4B 1_555 1_555
Zn1_2 O7 1_555 1_555
Zn1B_2 O7B 1_555 1_555
Zn3B O5B 1_555 1_555
Zn3_2 O8 1_555 1_555
Zn3C O10 1_555 1_555
Zn3B_2 O8B 1_555 1_555
Zn3A O10B 1_555 1_555
O1B C3B 1_555 1_555
O2B C1B 1_555 1_555
O3B C2B 1_555 1_555
O4B C9B 1_555 1_555
O5B C9B 1_555 1_555
O6B Zn1B 1_555 1_555
O7B Zn1 1_555 1_555
O7_2 Zn1 1_555 1_555
O7B_2 Zn1B 1_555 1_555
O8B Zn2 1_555 1_555
O8_2 Zn1 1_555 1_555
O8B_2 Zn1B 1_555 1_555
O9B Zn3B 1_555 1_555
O10B C11B 1_555 1_555
O10C Zn3 1_555 1_555
O10A Zn3B 1_555 1_555
O11B Zn2 1_555 1_555
O12B C11B 1_555 1_555
N1B C1B 1_555 1_555
N2B C2B 1_555 1_555
N3B C1B 1_555 1_555
C2B N1B 1_555 1_555
C3B N2B 1_555 1_555
C4B N3B 1_555 1_555
H1B C4B 1_555 1_555
H2B C4B 1_555 1_555
C5B C4B 1_555 1_555
H3B C5B 1_555 1_555
H4B C5B 1_555 1_555
C6B O6B 1_555 1_555
C7B N1B 1_555 1_555
H5B C7B 1_555 1_555
H6B C7B 1_555 1_555
C8B C7B 1_555 1_555
H7B C8B 1_555 1_555
H8B C8B 1_555 1_555
C9B C8B 1_555 1_555
C10B N2B 1_555 1_555
H9B C10B 1_555 1_555
H10B C10B 1_555 1_555
C11B C12B 1_555 1_555
C12B C10B 1_555 1_555
H11B C12B 1_555 1_555
H12B C12B 1_555 1_555
Zn2 O7B 1_555 1_555
Zn3 O8_2 1_555 1_555
O8 Zn1_2 1_555 1_555
O11 C6 1_555 1_555
N3 C3 1_555 1_555
C5 C6 1_555 1_555
Zn1_2 O7B_2 1_555 1_555
Zn1B_2 O7_2 1_555 1_555
Zn1B_2 O8B 1_555 1_555
Zn3B O8B_2 1_555 1_555
O11B C6B 1_555 1_555
N3B C3B 1_555 1_555
C5B C6B 1_555 1_555

#END
