
#######################################################################
#
#                 Cambridge Crystallographic Data Centre
#                                CCDC 
#
#######################################################################
#
# If this CIF has been generated from an entry in the Cambridge 
# Structural Database, then it will include bibliographic, chemical, 
# crystal, experimental, refinement or atomic coordinate data resulting 
# from the CCDC's data processing and validation procedures.
#
#######################################################################

data_HEMROH
_symmetry_cell_setting           monoclinic
_symmetry_space_group_name_H-M   'P 21/n'
_symmetry_Int_Tables_number      14
_space_group_name_Hall           '-P 2yn'
loop_
_symmetry_equiv_pos_site_id
_symmetry_equiv_pos_as_xyz
1 x,y,z
2 1/2-x,1/2+y,1/2-z
3 -x,-y,-z
4 1/2+x,1/2-y,1/2+z
_cell_length_a                   10.923(4)
_cell_length_b                   14.793(5)
_cell_length_c                   22.341(8)
_cell_angle_alpha                90
_cell_angle_beta                 97.580(5)
_cell_angle_gamma                90
_cell_volume                     3578.4
loop_
_atom_site_label
_atom_site_type_symbol
_atom_site_fract_x
_atom_site_fract_y
_atom_site_fract_z
Sn1 Sn 0.22050(4) 0.16818(3) 0.14165(2)
Sn2 Sn 0.50581(5) -0.05360(3) 0.28752(2)
O1 O 0.3465(4) 0.0652(3) 0.1132(2)
O2 O 0.4155(4) 0.0334(3) 0.2084(2)
O3 O 0.0882(4) 0.2853(3) 0.14448(19)
O4 O -0.0869(4) 0.3570(3) 0.1394(2)
S1 S 0.42840(19) -0.17553(13) 0.22138(9)
S2 S 0.13794(18) 0.17025(16) 0.03619(8)
C1 C 0.4118(6) 0.0177(5) 0.1528(4)
C2 C 0.4841(6) -0.0569(5) 0.1299(3)
C3 C 0.4962(6) -0.1422(6) 0.1559(3)
C4 C 0.5621(8) -0.2082(6) 0.1296(4)
H1 H 0.5687 -0.2659 0.1463
C5 C 0.6177(8) -0.1895(7) 0.0793(4)
H2 H 0.6613 -0.2345 0.0621
C6 C 0.6090(8) -0.1062(8) 0.0549(4)
H3 H 0.6491 -0.0934 0.0217
C7 C 0.5414(7) -0.0396(6) 0.0786(3)
H4 H 0.5337 0.0170 0.0604
C8 C -0.0222(7) 0.2939(5) 0.1225(3)
C9 C -0.0837(7) 0.2296(5) 0.0763(3)
C10 C -0.0226(7) 0.1737(5) 0.0399(3)
C11 C -0.0936(9) 0.1162(6) 0.0004(3)
H5 H -0.0534 0.0771 -0.0230
C12 C -0.2186(10) 0.1142(7) -0.0057(4)
H6 H -0.2634 0.0754 -0.0331
C13 C -0.2779(8) 0.1722(7) 0.0305(5)
H7 H -0.3637 0.1725 0.0269
C14 C -0.2134(8) 0.2275(6) 0.0703(4)
H8 H -0.2549 0.2650 0.0943
C15 C 0.3642(7) 0.2615(6) 0.1691(4)
H9 H 0.3374 0.3036 0.1980
H10 H 0.4359 0.2293 0.1886
C16 C 0.3991(10) 0.3139(8) 0.1145(5)
H11 H 0.4244 0.2688 0.0870
H12 H 0.3230 0.3399 0.0946
C17 C 0.489(2) 0.3836(15) 0.1173(9)
H13 H 0.5652 0.3626 0.1401
H14 H 0.4601 0.4353 0.1384
C18 C 0.5127(19) 0.4126(16) 0.0542(9)
H15 H 0.5735 0.4599 0.0575
H16 H 0.4374 0.4343 0.0318
H17 H 0.5425 0.3618 0.0336
C19 C 0.1157(8) 0.0868(6) 0.1932(4)
H18 H 0.1620 0.0769 0.2328
H19 H 0.0401 0.1183 0.1987
C20 C 0.0835(12) -0.0039(9) 0.1634(6)
H20 H 0.0469 0.0083 0.1222
H21 H 0.1608 -0.0352 0.1609
C21 C 0.0048(14) -0.0656(10) 0.1879(7)
H22 H -0.0727 -0.0348 0.1904
H23 H 0.0413 -0.0785 0.2290
C22 C -0.0253(18) -0.1549(10) 0.1571(8)
H24 H -0.0730 -0.1910 0.1812
H25 H 0.0499 -0.1860 0.1522
H26 H -0.0720 -0.1446 0.1182
C23 C 0.6880(7) -0.0174(6) 0.2738(4)
H27 H 0.7423 -0.0655 0.2906
H28 H 0.6907 -0.0174 0.2305
C24 C 0.742(2) 0.0692(12) 0.2979(11)
H29 H 0.7414 0.0694 0.3412
H30 H 0.8283 0.0704 0.2910
C25 C 0.6848(13) 0.1513(9) 0.2737(7)
H31 H 0.6770 0.1894 0.3084
H32 H 0.6015 0.1347 0.2569
C26 C 0.7301(13) 0.2099(12) 0.2292(7)
H33 H 0.6793 0.2629 0.2236
H34 H 0.7271 0.1782 0.1916
H35 H 0.8137 0.2272 0.2431
C27 C 0.3866(9) 0.0109(7) 0.3390(4)
H36 H 0.3273 0.0439 0.3110
H37 H 0.3409 -0.0362 0.3566
C28 C 0.432(2) 0.0748(18) 0.3889(12)
H38 H 0.4607 0.1295 0.3714
H39 H 0.5013 0.0475 0.4138
C29 C 0.332(3) 0.1008(19) 0.4299(9)
H40 H 0.2849 0.0470 0.4369
H41 H 0.3735 0.1207 0.4687
C30 C 0.243(3) 0.1731(19) 0.4050(14)
H42 H 0.1935 0.1910 0.4353
H43 H 0.1912 0.1503 0.3703
H44 H 0.2888 0.2244 0.3934
Sn2A Sn -0.00581(5) 0.44640(3) 0.21248(2)
O4A O 0.5869(4) -0.1430(3) 0.3606(2)
loop_
_geom_bond_atom_site_label_1
_geom_bond_atom_site_label_2
_geom_bond_site_symmetry_1
_geom_bond_site_symmetry_2
Sn1 O1 1_555 1_555
Sn2 O2 1_555 1_555
O1 C1 1_555 1_555
O2 C1 1_555 1_555
O3 Sn1 1_555 1_555
O4 C8 1_555 1_555
S1 Sn2 1_555 1_555
S2 Sn1 1_555 1_555
C1 C2 1_555 1_555
C2 C3 1_555 1_555
C3 S1 1_555 1_555
C4 C3 1_555 1_555
H1 C4 1_555 1_555
C5 C4 1_555 1_555
H2 C5 1_555 1_555
C6 C5 1_555 1_555
H3 C6 1_555 1_555
C7 C2 1_555 1_555
H4 C7 1_555 1_555
C8 O3 1_555 1_555
C9 C8 1_555 1_555
C10 S2 1_555 1_555
C11 C10 1_555 1_555
H5 C11 1_555 1_555
C12 C11 1_555 1_555
H6 C12 1_555 1_555
C13 C12 1_555 1_555
H7 C13 1_555 1_555
C14 C9 1_555 1_555
H8 C14 1_555 1_555
C15 Sn1 1_555 1_555
H9 C15 1_555 1_555
H10 C15 1_555 1_555
C16 C15 1_555 1_555
H11 C16 1_555 1_555
H12 C16 1_555 1_555
C17 C16 1_555 1_555
H13 C17 1_555 1_555
H14 C17 1_555 1_555
C18 C17 1_555 1_555
H15 C18 1_555 1_555
H16 C18 1_555 1_555
H17 C18 1_555 1_555
C19 Sn1 1_555 1_555
H18 C19 1_555 1_555
H19 C19 1_555 1_555
C20 C19 1_555 1_555
H20 C20 1_555 1_555
H21 C20 1_555 1_555
C21 C20 1_555 1_555
H22 C21 1_555 1_555
H23 C21 1_555 1_555
C22 C21 1_555 1_555
H24 C22 1_555 1_555
H25 C22 1_555 1_555
H26 C22 1_555 1_555
C23 Sn2 1_555 1_555
H27 C23 1_555 1_555
H28 C23 1_555 1_555
C24 C23 1_555 1_555
H29 C24 1_555 1_555
H30 C24 1_555 1_555
C25 C24 1_555 1_555
H31 C25 1_555 1_555
H32 C25 1_555 1_555
C26 C25 1_555 1_555
H33 C26 1_555 1_555
H34 C26 1_555 1_555
H35 C26 1_555 1_555
C27 Sn2 1_555 1_555
H36 C27 1_555 1_555
H37 C27 1_555 1_555
C28 C27 1_555 1_555
H38 C28 1_555 1_555
H39 C28 1_555 1_555
C29 C28 1_555 1_555
H40 C29 1_555 1_555
H41 C29 1_555 1_555
C30 C29 1_555 1_555
H42 C30 1_555 1_555
H43 C30 1_555 1_555
H44 C30 1_555 1_555
Sn2A O4 1_555 1_555
O4A Sn2 1_555 1_555
C6 C7 1_555 1_555
C9 C10 1_555 1_555
C13 C14 1_555 1_555

#END
