
#######################################################################
#
#                 Cambridge Crystallographic Data Centre
#                                CCDC 
#
#######################################################################
#
# If this CIF has been generated from an entry in the Cambridge 
# Structural Database, then it will include bibliographic, chemical, 
# crystal, experimental, refinement or atomic coordinate data resulting 
# from the CCDC's data processing and validation procedures.
#
#######################################################################

data_HENTOJ
_symmetry_cell_setting           monoclinic
_symmetry_space_group_name_H-M   'I 2/m'
_symmetry_Int_Tables_number      12
_space_group_name_Hall           '-I 2y'
loop_
_symmetry_equiv_pos_site_id
_symmetry_equiv_pos_as_xyz
1 x,y,z
2 1/2+x,1/2+y,1/2+z
3 -x,y,-z
4 1/2-x,1/2+y,1/2-z
5 -x,-y,-z
6 1/2-x,1/2-y,1/2-z
7 x,-y,z
8 1/2+x,1/2-y,1/2+z
_cell_length_a                   10.239(1)
_cell_length_b                   6.643(1)
_cell_length_c                   12.363(2)
_cell_angle_alpha                90
_cell_angle_beta                 103.74(1)
_cell_angle_gamma                90
_cell_volume                     816.839
loop_
_atom_site_label
_atom_site_type_symbol
_atom_site_fract_x
_atom_site_fract_y
_atom_site_fract_z
Cu1 Cu -0.2500 0.2500 0.2500
O1 O -0.1567(2) 0.0000 0.2702(2)
O3 O -0.1665(2) 0.3381(3) 0.4467(2)
O4 O -0.2118(5) 0.5000 0.5820(3)
N1 N -0.4097(2) 0.1005(3) 0.2914(2)
N2 N -0.1831(3) 0.5000 0.4917(2)
C1 C -0.5084(3) 0.1967(4) 0.3221(3)
C2 C -0.6126(3) 0.1011(4) 0.3545(2)
H1 H -0.091(3) 0.0000 0.314(3)
H2 H -0.5074(3) 0.3367(4) 0.3218(3)
H3 H -0.6801(3) 0.1739(4) 0.3755(2)
O3F O -0.1665(2) 0.6619(3) 0.4467(2)
N1F N -0.4097(2) -0.1005(3) 0.2914(2)
C1F C -0.5084(3) -0.1967(4) 0.3221(3)
C2F C -0.6126(3) -0.1011(4) 0.3545(2)
H3F H -0.6801(3) -0.1739(4) 0.3755(2)
H2F H -0.5074(3) -0.3367(4) 0.3218(3)
O1C O -0.3433(2) 0.5000 0.2298(2)
O3E O -0.3335(2) 0.1619(3) 0.0533(2)
N1E N -0.0903(2) 0.3995(3) 0.2086(2)
Cu1C Cu -0.2500 0.7500 0.2500
Cu1C_2 Cu -0.2500 -0.2500 0.2500
H1C H -0.409(3) 0.5000 0.186(3)
O2 O -0.0968(3) 0.0000 0.5905(2)
H4 H -0.120(3) 0.091(4) 0.547(2)
H4F H -0.120(3) -0.091(4) 0.547(2)
loop_
_geom_bond_atom_site_label_1
_geom_bond_atom_site_label_2
_geom_bond_site_symmetry_1
_geom_bond_site_symmetry_2
Cu1 O1 1_555 1_555
O1 H1 1_555 1_555
O2 H4 1_555 1_555
O3 Cu1 1_555 1_555
O4 N2 1_555 1_555
N1 Cu1 1_555 1_555
N2 O3 1_555 1_555
C1 N1 1_555 1_555
C2 C1 1_555 1_555
H2 C1 1_555 1_555
H3 C2 1_555 1_555
H4F O2 1_555 1_555
O3F N2 1_555 1_555
N1F N1 1_555 1_555
C1F N1F 1_555 1_555
C2F C2 1_555 1_555
H3F C2F 1_555 1_555
H2F C1F 1_555 1_555
O1C Cu1 1_555 1_555
O3E Cu1 1_555 1_555
N1E Cu1 1_555 1_555
Cu1C O3F 1_555 1_555
Cu1C_2 O1 1_555 1_555
H1C O1C 1_555 1_555
N1F Cu1C_2 1_555 1_555
C1F C2F 1_555 1_555
O1C Cu1C 1_555 1_555

#END
