
#######################################################################
#
#                 Cambridge Crystallographic Data Centre
#                                CCDC 
#
#######################################################################
#
# If this CIF has been generated from an entry in the Cambridge 
# Structural Database, then it will include bibliographic, chemical, 
# crystal, experimental, refinement or atomic coordinate data resulting 
# from the CCDC's data processing and validation procedures.
#
#######################################################################

data_HENVUR
_symmetry_cell_setting           monoclinic
_symmetry_space_group_name_H-M   'P 21/n'
_symmetry_Int_Tables_number      14
_space_group_name_Hall           '-P 2yn'
loop_
_symmetry_equiv_pos_site_id
_symmetry_equiv_pos_as_xyz
1 x,y,z
2 1/2-x,1/2+y,1/2-z
3 -x,-y,-z
4 1/2+x,1/2-y,1/2+z
_cell_length_a                   13.783(1)
_cell_length_b                   16.459(1)
_cell_length_c                   22.232(3)
_cell_angle_alpha                90
_cell_angle_beta                 101.638(8)
_cell_angle_gamma                90
_cell_volume                     4939.74
loop_
_atom_site_label
_atom_site_type_symbol
_atom_site_fract_x
_atom_site_fract_y
_atom_site_fract_z
V1 V 0.38210(4) 0.46816(4) 0.46887(3)
V2 V 0.12274(4) 0.48384(4) 0.48937(3)
O1 O 0.4596(2) 0.5160(1) 0.5462(1)
C1 C 0.4186(2) 0.5805(2) 0.5703(2)
C2 C 0.4220(3) 0.5830(3) 0.6327(2)
C3 C 0.3880(3) 0.6504(3) 0.6594(2)
C4 C 0.3520(3) 0.7168(3) 0.6239(2)
C5 C 0.3453(3) 0.7148(3) 0.5620(2)
C6 C 0.3761(3) 0.6462(2) 0.5332(2)
C7 C 0.3668(3) 0.6479(2) 0.4677(2)
N1 N 0.3750(2) 0.5852(2) 0.4345(1)
C8 C 0.3651(3) 0.5906(2) 0.3680(2)
C9 C 0.3048(3) 0.5180(2) 0.3405(2)
N2 N 0.3433(2) 0.4460(2) 0.3764(1)
C10 C 0.3467(3) 0.3772(3) 0.3491(2)
C11 C 0.3785(3) 0.3023(2) 0.3780(2)
C12 C 0.3792(3) 0.2340(3) 0.3394(2)
C13 C 0.4063(4) 0.1585(3) 0.3635(3)
C14 C 0.4304(3) 0.1494(3) 0.4261(3)
C15 C 0.4312(3) 0.2148(2) 0.4653(2)
C16 C 0.4068(3) 0.2930(2) 0.4421(2)
O2 O 0.4143(2) 0.3548(1) 0.4813(1)
O3 O 0.2727(2) 0.4709(1) 0.4858(1)
O4 O 0.1371(2) 0.5912(1) 0.4687(1)
C17 C 0.1165(2) 0.6585(2) 0.4968(2)
C18 C 0.0946(3) 0.7295(2) 0.4620(2)
C19 C 0.0769(3) 0.8008(3) 0.4906(2)
C20 C 0.0817(3) 0.8037(3) 0.5526(3)
C21 C 0.1031(3) 0.7346(3) 0.5875(2)
C22 C 0.1209(3) 0.6600(2) 0.5602(2)
C23 C 0.1537(3) 0.5917(2) 0.5986(2)
N3 N 0.1701(2) 0.5202(2) 0.5793(1)
C24 C 0.2085(3) 0.4561(2) 0.6232(2)
C25 C 0.1498(3) 0.3810(2) 0.6026(2)
N4 N 0.1449(2) 0.3741(2) 0.5367(1)
C26 C 0.1580(3) 0.3039(2) 0.5137(2)
C27 C 0.1500(3) 0.2871(2) 0.4500(2)
C28 C 0.1662(3) 0.2076(3) 0.4317(2)
C29 C 0.1516(3) 0.1868(3) 0.3716(2)
C30 C 0.1185(3) 0.2444(3) 0.3271(2)
C31 C 0.1025(3) 0.3237(3) 0.3433(2)
C32 C 0.1171(3) 0.3458(2) 0.4047(2)
O5 O 0.0990(2) 0.4214(1) 0.4202(1)
O6 O 0.0000 0.5000 0.5000
H1 H 0.4487 0.5366 0.6584
H2 H 0.3896 0.6510 0.7037
H3 H 0.3313 0.7655 0.6433
H4 H 0.3186 0.7619 0.5371
H5 H 0.3533 0.7004 0.4468
H6 H 0.3310 0.6411 0.3527
H7 H 0.4306 0.5894 0.3573
H8 H 0.3109 0.5109 0.2977
H9 H 0.2350 0.5261 0.3423
H10 H 0.3253 0.3766 0.3043
H11 H 0.3601 0.2407 0.2948
H12 H 0.4084 0.1118 0.3364
H13 H 0.4475 0.0953 0.4435
H14 H 0.4490 0.2064 0.5098
H15 H 0.0918 0.7285 0.4177
H16 H 0.0606 0.8503 0.4661
H17 H 0.0698 0.8551 0.5722
H18 H 0.1061 0.7371 0.6319
H19 H 0.1645 0.5999 0.6432
H20 H 0.2788 0.4467 0.6236
H21 H 0.2003 0.4716 0.6645
H22 H 0.0830 0.3857 0.6111
H23 H 0.1827 0.3332 0.6238
H24 H 0.1748 0.2584 0.5423
H25 H 0.1884 0.1661 0.4631
H26 H 0.1646 0.1311 0.3597
H27 H 0.1062 0.2290 0.2837
H28 H 0.0807 0.3644 0.3113
O1B O 0.5404(2) 0.4840(1) 0.4538(1)
C1B C 0.5814(2) 0.4195(2) 0.4297(2)
C2B C 0.5780(3) 0.4170(3) 0.3673(2)
C3B C 0.6120(3) 0.3496(3) 0.3406(2)
C4B C 0.6480(3) 0.2832(3) 0.3761(2)
C5B C 0.6547(3) 0.2852(3) 0.4380(2)
C6B C 0.6239(3) 0.3538(2) 0.4668(2)
C7B C 0.6332(3) 0.3521(2) 0.5323(2)
N1B N 0.6250(2) 0.4148(2) 0.5655(1)
C8B C 0.6349(3) 0.4094(2) 0.6320(2)
C9B C 0.6952(3) 0.4820(2) 0.6595(2)
N2B N 0.6567(2) 0.5540(2) 0.6236(1)
C10B C 0.6533(3) 0.6228(3) 0.6509(2)
C11B C 0.6215(3) 0.6977(2) 0.6220(2)
C12B C 0.6208(3) 0.7660(3) 0.6606(2)
C13B C 0.5937(4) 0.8415(3) 0.6365(3)
C14B C 0.5696(3) 0.8506(3) 0.5739(3)
C15B C 0.5688(3) 0.7852(2) 0.5347(2)
C16B C 0.5932(3) 0.7070(2) 0.5579(2)
O2B O 0.5857(2) 0.6452(1) 0.5187(1)
H1B H 0.5513 0.4634 0.3416
H2B H 0.6104 0.3490 0.2963
H3B H 0.6687 0.2345 0.3567
H4B H 0.6814 0.2381 0.4629
H5B H 0.6467 0.2996 0.5532
H6B H 0.6690 0.3589 0.6473
H7B H 0.5694 0.4106 0.6427
H8B H 0.6891 0.4891 0.7023
H9B H 0.7650 0.4739 0.6577
H10B H 0.6747 0.6234 0.6957
H11B H 0.6399 0.7593 0.7052
H12B H 0.5916 0.8882 0.6636
H13B H 0.5525 0.9047 0.5565
H14B H 0.5510 0.7936 0.4902
V1B V 0.61790(4) 0.53184(4) 0.53113(3)
O3B O 0.7273(2) 0.5291(1) 0.5142(1)
V2B V 0.87726(4) 0.51616(4) 0.51063(3)
O4B O 0.8629(2) 0.4088(1) 0.5313(1)
C17B C 0.8835(2) 0.3415(2) 0.5032(2)
C18B C 0.9054(3) 0.2705(2) 0.5380(2)
C19B C 0.9231(3) 0.1992(3) 0.5094(2)
C20B C 0.9183(3) 0.1963(3) 0.4474(3)
C21B C 0.8969(3) 0.2654(3) 0.4125(2)
C22B C 0.8791(3) 0.3400(2) 0.4398(2)
C23B C 0.8463(3) 0.4083(2) 0.4014(2)
N3B N 0.8299(2) 0.4798(2) 0.4207(1)
C24B C 0.7915(3) 0.5439(2) 0.3768(2)
C25B C 0.8502(3) 0.6190(2) 0.3974(2)
N4B N 0.8551(2) 0.6259(2) 0.4633(1)
C26B C 0.8420(3) 0.6961(2) 0.4863(2)
C27B C 0.8500(3) 0.7129(2) 0.5500(2)
C28B C 0.8338(3) 0.7924(3) 0.5683(2)
C29B C 0.8484(3) 0.8132(3) 0.6284(2)
C30B C 0.8815(3) 0.7556(3) 0.6729(2)
C31B C 0.8975(3) 0.6763(3) 0.6567(2)
C32B C 0.8829(3) 0.6542(2) 0.5953(2)
O5B O 0.9010(2) 0.5786(1) 0.5798(1)
H15B H 0.9082 0.2715 0.5823
H16B H 0.9394 0.1497 0.5339
H17B H 0.9302 0.1449 0.4278
H18B H 0.8939 0.2629 0.3681
H19B H 0.8355 0.4001 0.3568
H20B H 0.7212 0.5533 0.3764
H21B H 0.7997 0.5284 0.3355
H22B H 0.9170 0.6143 0.3889
H23B H 0.8173 0.6668 0.3762
H24B H 0.8252 0.7416 0.4577
H25B H 0.8116 0.8339 0.5369
H26B H 0.8354 0.8689 0.6403
H27B H 0.8938 0.7710 0.7163
H28B H 0.9193 0.6356 0.6887
V2B_2 V -0.12274(4) 0.51616(4) 0.51063(3)
O6_2 O 1.0000 0.5000 0.5000
B1 B 0.7573(3) 0.4412(3) 0.1600(2)
C33 C 0.7447(3) 0.4752(2) 0.0892(2)
C34 C 0.6584(3) 0.4660(2) 0.0455(2)
C35 C 0.6484(4) 0.4917(3) -0.0150(2)
C36 C 0.7249(4) 0.5276(3) -0.0341(2)
C37 C 0.8125(4) 0.5389(3) 0.0079(2)
C38 C 0.8211(3) 0.5130(3) 0.0676(2)
C39 C 0.6489(3) 0.4401(2) 0.1786(2)
C40 C 0.6058(3) 0.5068(3) 0.2027(2)
C41 C 0.5096(3) 0.5076(3) 0.2115(2)
C42 C 0.4498(3) 0.4412(3) 0.1972(2)
C43 C 0.4878(3) 0.3737(3) 0.1745(2)
C44 C 0.5841(3) 0.3734(3) 0.1651(2)
C45 C 0.8030(3) 0.3482(2) 0.1647(2)
C46 C 0.8064(3) 0.3015(2) 0.2174(2)
C47 C 0.8508(3) 0.2255(2) 0.2255(2)
C48 C 0.8923(3) 0.1923(3) 0.1801(2)
C49 C 0.8886(3) 0.2343(3) 0.1273(2)
C50 C 0.8447(3) 0.3111(2) 0.1193(2)
C51 C 0.8371(3) 0.5008(2) 0.2060(2)
C52 C 0.8288(3) 0.5854(2) 0.2040(2)
C53 C 0.8941(4) 0.6373(3) 0.2408(2)
C54 C 0.9743(3) 0.6067(3) 0.2804(2)
C55 C 0.9862(3) 0.5239(3) 0.2847(2)
C56 C 0.9192(3) 0.4732(2) 0.2484(2)
H29 H 0.6015 0.4401 0.0578
H30 H 0.5854 0.4837 -0.0440
H31 H 0.7185 0.5453 -0.0768
H32 H 0.8687 0.5655 -0.0049
H33 H 0.8842 0.5216 0.0962
H34 H 0.6465 0.5554 0.2139
H35 H 0.4838 0.5563 0.2281
H36 H 0.3812 0.4419 0.2032
H37 H 0.4465 0.3251 0.1648
H38 H 0.6085 0.3242 0.1481
H39 H 0.7760 0.3233 0.2503
H40 H 0.8526 0.1954 0.2637
H41 H 0.9241 0.1388 0.1858
H42 H 0.9170 0.2106 0.0943
H43 H 0.8430 0.3400 0.0806
H44 H 0.7734 0.6093 0.1748
H45 H 0.8827 0.6961 0.2384
H46 H 1.0226 0.6431 0.3053
H47 H 1.0426 0.5008 0.3136
H48 H 0.9298 0.4144 0.2526
N5 N 0.2162(6) 0.3047(5) 0.1749(5)
C57 C 0.1551(7) 0.3567(6) 0.1635(4)
C58 C 0.0832(6) 0.4170(5) 0.1473(4)
loop_
_geom_bond_atom_site_label_1
_geom_bond_atom_site_label_2
_geom_bond_site_symmetry_1
_geom_bond_site_symmetry_2
V1 O1 1_555 1_555
V2 O3 1_555 1_555
O1 C1 1_555 1_555
C1 C2 1_555 1_555
C2 C3 1_555 1_555
C3 C4 1_555 1_555
C4 C5 1_555 1_555
C5 C6 1_555 1_555
C6 C1 1_555 1_555
C7 C6 1_555 1_555
N1 V1 1_555 1_555
C8 N1 1_555 1_555
C9 C8 1_555 1_555
N2 V1 1_555 1_555
C10 N2 1_555 1_555
C11 C10 1_555 1_555
C12 C11 1_555 1_555
C13 C12 1_555 1_555
C14 C13 1_555 1_555
C15 C14 1_555 1_555
C16 C11 1_555 1_555
O2 V1 1_555 1_555
O3 V1 1_555 1_555
O4 V2 1_555 1_555
C17 O4 1_555 1_555
C18 C17 1_555 1_555
C19 C18 1_555 1_555
C20 C19 1_555 1_555
C21 C20 1_555 1_555
C22 C17 1_555 1_555
C23 C22 1_555 1_555
N3 V2 1_555 1_555
C24 N3 1_555 1_555
C25 C24 1_555 1_555
N4 V2 1_555 1_555
C26 N4 1_555 1_555
C27 C26 1_555 1_555
C28 C27 1_555 1_555
C29 C28 1_555 1_555
C30 C29 1_555 1_555
C31 C30 1_555 1_555
C32 C27 1_555 1_555
O5 V2 1_555 1_555
O6 V2 1_555 1_555
B1 C33 1_555 1_555
C33 C34 1_555 1_555
C34 C35 1_555 1_555
C35 C36 1_555 1_555
C36 C37 1_555 1_555
C37 C38 1_555 1_555
C38 C33 1_555 1_555
C39 B1 1_555 1_555
C40 C39 1_555 1_555
C41 C40 1_555 1_555
C42 C41 1_555 1_555
C43 C42 1_555 1_555
C44 C39 1_555 1_555
C45 B1 1_555 1_555
C46 C45 1_555 1_555
C47 C46 1_555 1_555
C48 C47 1_555 1_555
C49 C48 1_555 1_555
C50 C45 1_555 1_555
C51 B1 1_555 1_555
C52 C51 1_555 1_555
C53 C52 1_555 1_555
C54 C53 1_555 1_555
C55 C54 1_555 1_555
C56 C51 1_555 1_555
N5 C57 1_555 1_555
C57 C58 1_555 1_555
H1 C2 1_555 1_555
H2 C3 1_555 1_555
H3 C4 1_555 1_555
H4 C5 1_555 1_555
H5 C7 1_555 1_555
H6 C8 1_555 1_555
H7 C8 1_555 1_555
H8 C9 1_555 1_555
H9 C9 1_555 1_555
H10 C10 1_555 1_555
H11 C12 1_555 1_555
H12 C13 1_555 1_555
H13 C14 1_555 1_555
H14 C15 1_555 1_555
H15 C18 1_555 1_555
H16 C19 1_555 1_555
H17 C20 1_555 1_555
H18 C21 1_555 1_555
H19 C23 1_555 1_555
H20 C24 1_555 1_555
H21 C24 1_555 1_555
H22 C25 1_555 1_555
H23 C25 1_555 1_555
H24 C26 1_555 1_555
H25 C28 1_555 1_555
H26 C29 1_555 1_555
H27 C30 1_555 1_555
H28 C31 1_555 1_555
H29 C34 1_555 1_555
H30 C35 1_555 1_555
H31 C36 1_555 1_555
H32 C37 1_555 1_555
H33 C38 1_555 1_555
H34 C40 1_555 1_555
H35 C41 1_555 1_555
H36 C42 1_555 1_555
H37 C43 1_555 1_555
H38 C44 1_555 1_555
H39 C46 1_555 1_555
H40 C47 1_555 1_555
H41 C48 1_555 1_555
H42 C49 1_555 1_555
H43 C50 1_555 1_555
H44 C52 1_555 1_555
H45 C53 1_555 1_555
H46 C54 1_555 1_555
H47 C55 1_555 1_555
H48 C56 1_555 1_555
O1B V1 1_555 1_555
C1B O1B 1_555 1_555
C2B C1B 1_555 1_555
C3B C2B 1_555 1_555
C4B C3B 1_555 1_555
C5B C4B 1_555 1_555
C6B C1B 1_555 1_555
C7B C6B 1_555 1_555
N1B C7B 1_555 1_555
C8B N1B 1_555 1_555
C9B C8B 1_555 1_555
N2B C9B 1_555 1_555
C10B N2B 1_555 1_555
C11B C10B 1_555 1_555
C12B C11B 1_555 1_555
C13B C12B 1_555 1_555
C14B C13B 1_555 1_555
C15B C14B 1_555 1_555
C16B C11B 1_555 1_555
O2B C16B 1_555 1_555
H1B C2B 1_555 1_555
H2B C3B 1_555 1_555
H3B C4B 1_555 1_555
H4B C5B 1_555 1_555
H5B C7B 1_555 1_555
H6B C8B 1_555 1_555
H7B C8B 1_555 1_555
H8B C9B 1_555 1_555
H9B C9B 1_555 1_555
H10B C10B 1_555 1_555
H11B C12B 1_555 1_555
H12B C13B 1_555 1_555
H13B C14B 1_555 1_555
H14B C15B 1_555 1_555
V1B O1 1_555 1_555
O3B V1B 1_555 1_555
V2B O3B 1_555 1_555
O4B V2B 1_555 1_555
C17B O4B 1_555 1_555
C18B C17B 1_555 1_555
C19B C18B 1_555 1_555
C20B C19B 1_555 1_555
C21B C20B 1_555 1_555
C22B C17B 1_555 1_555
C23B C22B 1_555 1_555
N3B V2B 1_555 1_555
C24B N3B 1_555 1_555
C25B C24B 1_555 1_555
N4B V2B 1_555 1_555
C26B N4B 1_555 1_555
C27B C26B 1_555 1_555
C28B C27B 1_555 1_555
C29B C28B 1_555 1_555
C30B C29B 1_555 1_555
C31B C30B 1_555 1_555
C32B C27B 1_555 1_555
O5B V2B 1_555 1_555
H15B C18B 1_555 1_555
H16B C19B 1_555 1_555
H17B C20B 1_555 1_555
H18B C21B 1_555 1_555
H19B C23B 1_555 1_555
H20B C24B 1_555 1_555
H21B C24B 1_555 1_555
H22B C25B 1_555 1_555
H23B C25B 1_555 1_555
H24B C26B 1_555 1_555
H25B C28B 1_555 1_555
H26B C29B 1_555 1_555
H27B C30B 1_555 1_555
H28B C31B 1_555 1_555
V2B_2 O6 1_555 1_555
O6_2 V2B 1_555 1_555
C7 N1 1_555 1_555
C9 N2 1_555 1_555
C15 C16 1_555 1_555
C16 O2 1_555 1_555
C21 C22 1_555 1_555
C23 N3 1_555 1_555
C25 N4 1_555 1_555
C31 C32 1_555 1_555
C32 O5 1_555 1_555
C43 C44 1_555 1_555
C49 C50 1_555 1_555
C55 C56 1_555 1_555
O1B V1B 1_555 1_555
C5B C6B 1_555 1_555
N1B V1B 1_555 1_555
N2B V1B 1_555 1_555
C15B C16B 1_555 1_555
O2B V1B 1_555 1_555
C21B C22B 1_555 1_555
C23B N3B 1_555 1_555
C25B N4B 1_555 1_555
C31B C32B 1_555 1_555
C32B O5B 1_555 1_555

#END
