
#######################################################################
#
#                 Cambridge Crystallographic Data Centre
#                                CCDC 
#
#######################################################################
#
# If this CIF has been generated from an entry in the Cambridge 
# Structural Database, then it will include bibliographic, chemical, 
# crystal, experimental, refinement or atomic coordinate data resulting 
# from the CCDC's data processing and validation procedures.
#
#######################################################################

data_HENXAZ
_symmetry_cell_setting           orthorhombic
_symmetry_space_group_name_H-M   'P b c m'
_symmetry_Int_Tables_number      57
_space_group_name_Hall           '-P 2c 2b'
loop_
_symmetry_equiv_pos_site_id
_symmetry_equiv_pos_as_xyz
1 x,y,z
2 -x,1/2+y,z
3 x,1/2-y,1/2+z
4 -x,-y,1/2+z
5 -x,-y,-z
6 x,1/2-y,-z
7 -x,1/2+y,1/2-z
8 x,y,1/2-z
_cell_length_a                   10.848(3)
_cell_length_b                   10.414(3)
_cell_length_c                   6.262(2)
_cell_angle_alpha                90
_cell_angle_beta                 90
_cell_angle_gamma                90
_cell_volume                     707.425
loop_
_atom_site_label
_atom_site_type_symbol
_atom_site_fract_x
_atom_site_fract_y
_atom_site_fract_z
Cu1 Cu 0.06859(8) 0.24931(7) 0.25000
Cu2 Cu 0.3502(2) 0.25000 0.00000
Cl1 Cl 0.2339(1) 0.3818(1) 0.25000
Cl2 Cl 0.4629(1) 0.1354(2) 0.25000
C1 C -0.0849(6) 0.4714(5) 0.25000
C2 C -0.2157(6) 0.3030(5) 0.25000
N1 N -0.0680(5) 0.5757(5) 0.25000
N2 N -0.0972(5) 0.3503(4) 0.25000
N3 N -0.3208(6) 0.3728(6) 0.25000
N4 N -0.2277(6) 0.1822(5) 0.25000
H1 H -0.306(8) 0.447(9) 0.25000
H2 H -0.378(8) 0.342(8) 0.25000
H3 H -0.292(9) 0.141(8) 0.25000
H4 H -0.168(6) 0.139(6) 0.25000
Cu2B Cu 0.3502(2) 0.25000 0.50000
Cl1B Cl 0.2339(1) 0.1182(1) -0.25000
Cl2B Cl 0.4629(1) 0.3646(2) -0.25000
N1A N 0.0680(5) 0.0757(5) 0.25000
Cu1A Cu -0.06859(8) 0.74931(7) 0.25000
loop_
_geom_bond_atom_site_label_1
_geom_bond_atom_site_label_2
_geom_bond_site_symmetry_1
_geom_bond_site_symmetry_2
Cu1 Cl1 1_555 1_555
Cu2 Cl1 1_555 1_555
Cl1 Cu2B 1_555 1_555
Cl2 Cu2 1_555 1_555
C1 N1 1_555 1_555
C2 N2 1_555 1_555
N1 Cu1A 1_555 1_555
N2 Cu1 1_555 1_555
N3 C2 1_555 1_555
N4 C2 1_555 1_555
H1 N3 1_555 1_555
H2 N3 1_555 1_555
H3 N4 1_555 1_555
H4 N4 1_555 1_555
Cu2B Cl2 1_555 1_555
Cl1B Cu2 1_555 1_555
Cl2B Cu2 1_555 1_555
N1A Cu1 1_555 1_555
C1 N2 1_555 1_555

#END
