
#######################################################################
#
#                 Cambridge Crystallographic Data Centre
#                                CCDC 
#
#######################################################################
#
# If this CIF has been generated from an entry in the Cambridge 
# Structural Database, then it will include bibliographic, chemical, 
# crystal, experimental, refinement or atomic coordinate data resulting 
# from the CCDC's data processing and validation procedures.
#
#######################################################################

data_HEPLUK
_symmetry_cell_setting           monoclinic
_symmetry_space_group_name_H-M   'P 21/c'
_symmetry_Int_Tables_number      14
_space_group_name_Hall           '-P 2ybc'
loop_
_symmetry_equiv_pos_site_id
_symmetry_equiv_pos_as_xyz
1 x,y,z
2 -x,1/2+y,1/2-z
3 -x,-y,-z
4 x,1/2-y,1/2+z
_cell_length_a                   11.7531(1)
_cell_length_b                   18.0464(2)
_cell_length_c                   18.7263(2)
_cell_angle_alpha                90
_cell_angle_beta                 106.5641(5)
_cell_angle_gamma                90
_cell_volume                     3807.04
loop_
_atom_site_label
_atom_site_type_symbol
_atom_site_fract_x
_atom_site_fract_y
_atom_site_fract_z
Re1 Re 0.13274(2) 0.235344(14) -0.195459(14)
Re2 Re 0.20004(2) 0.043272(14) -0.263332(14)
Ag1 Ag 0.40363(5) 0.09054(3) -0.04489(3)
S1 S 0.29710(14) 0.13936(9) -0.16722(9)
S2 S 0.03149(14) 0.13346(9) -0.28007(9)
O1 O -0.0855(5) 0.3346(3) -0.2521(3)
O2 O 0.2354(5) 0.3099(3) -0.3107(3)
O3 O 0.2653(6) 0.3504(3) -0.0808(3)
O4 O 0.2764(5) 0.1240(3) -0.3865(3)
O5 O 0.0568(5) -0.0677(3) -0.3792(3)
O6 O 0.4152(5) -0.0607(3) -0.2354(3)
O7 O 0.4499(5) 0.0098(3) 0.0548(3)
O8 O 0.3754(5) -0.0582(3) 0.1243(3)
O9 O 0.2889(5) 0.0434(3) 0.0778(4)
O10 O 0.5612(4) 0.1637(3) 0.0373(3)
N1 N 0.0601(4) 0.1819(3) -0.1115(3)
N2 N -0.1417(4) 0.0089(3) 0.1717(3)
N3 N 0.3708(5) -0.0014(3) 0.0869(3)
C1 C -0.0026(6) 0.2983(4) -0.2286(4)
C2 C 0.1967(6) 0.2812(4) -0.2673(4)
C3 C 0.2147(6) 0.3067(4) -0.1234(4)
C4 C 0.2488(6) 0.0931(4) -0.3407(4)
C5 C 0.1100(6) -0.0261(4) -0.3356(4)
C6 C 0.3351(6) -0.0213(4) -0.2443(4)
C7 C -0.0539(6) 0.1589(4) -0.1258(4)
H1 H -0.1053 0.1649 -0.1748
C8 C -0.0990(6) 0.1272(4) -0.0727(4)
H2 H -0.1794 0.1115 -0.0857
C9 C -0.0270(6) 0.1182(4) -0.0003(4)
C10 C 0.0885(6) 0.1453(4) 0.0154(4)
H3 H 0.1398 0.1432 0.0648
C11 C 0.1279(6) 0.1750(4) -0.0405(4)
H4 H 0.2077 0.1917 -0.0285
C12 C -0.0265(6) 0.0110(4) 0.1729(4)
H5 H 0.0302 -0.0126 0.2129
C13 C 0.0130(6) 0.0460(4) 0.1183(4)
H6 H 0.0951 0.0458 0.1214
C14 C -0.0679(6) 0.0815(3) 0.0591(4)
C15 C -0.1868(6) 0.0800(4) 0.0581(4)
H7 H -0.2451 0.1039 0.0190
C16 C -0.2196(6) 0.0435(4) 0.1144(4)
H8 H -0.3013 0.0429 0.1125
C17 C 0.4239(6) 0.1756(4) -0.1964(4)
H9 H 0.4742 0.1336 -0.2028
H10 H 0.3934 0.2004 -0.2453
C18 C 0.4995(7) 0.2300(4) -0.1413(4)
H11 H 0.5271 0.2063 -0.0916
H12 H 0.4508 0.2736 -0.1369
C19 C 0.6066(7) 0.2555(5) -0.1651(5)
H13 H 0.6485 0.2115 -0.1766
H14 H 0.5788 0.2852 -0.2113
C20 C 0.6919(9) 0.3008(6) -0.1072(6)
H15 H 0.7586 0.3157 -0.1256
H16 H 0.7215 0.2713 -0.0617
H17 H 0.6515 0.3450 -0.0963
C21 C -0.0096(6) 0.1725(4) -0.3746(4)
H18 H -0.0696 0.2118 -0.3778
H19 H 0.0614 0.1959 -0.3834
C22 C -0.0593(6) 0.1162(4) -0.4360(4)
H20 H 0.0039 0.0801 -0.4365
H21 H -0.0808 0.1423 -0.4845
C23 C -0.1675(7) 0.0738(5) -0.4289(4)
H22 H -0.2321 0.1094 -0.4299
H23 H -0.1471 0.0480 -0.3803
C24 C -0.2118(8) 0.0171(5) -0.4910(5)
H24 H -0.2813 -0.0086 -0.4840
H25 H -0.1488 -0.0189 -0.4896
H26 H -0.2339 0.0425 -0.5393
C25 C 0.5603(6) 0.2034(4) 0.0886(4)
C26 C 0.6708(7) 0.2353(5) 0.1379(6)
H27 H 0.7384 0.2197 0.1207
H28 H 0.6819 0.2178 0.1890
H29 H 0.6654 0.2895 0.1367
C27 C 0.4467(8) 0.2203(6) 0.1069(6)
H30 H 0.3803 0.1964 0.0703
H31 H 0.4341 0.2741 0.1056
H32 H 0.4516 0.2016 0.1568
Re2B Re -0.20004(2) -0.043272(14) 0.263332(14)
Ag1B Ag 0.59637(5) -0.09054(3) 0.04489(3)
O7B O 0.5501(5) -0.0098(3) -0.0548(3)
N2B N 0.1417(4) -0.0089(3) -0.1717(3)
C28 C 0.3789(15) 0.5381(6) -0.1852(8)
C29 C 0.3076(10) 0.4800(8) -0.2265(7)
H33 H 0.2510 0.5006 -0.2710
H34 H 0.2643 0.4555 -0.1955
H35 H 0.3586 0.4437 -0.2415
C30 C 0.4714(16) 0.5057(11) -0.1130(10)
H39 H 0.5046 0.4593 -0.1256
H40 H 0.4314 0.4962 -0.0746
H41 H 0.5356 0.5416 -0.0942
O11 O 0.3915(14) 0.6033(9) -0.1932(8)
H36? H 0.2510 0.5006 -0.2710
H37? H 0.2643 0.4555 -0.1955
H38? H 0.3586 0.4437 -0.2415
C31? C 0.294(2) 0.5953(13) -0.2260(14)
H42? H 0.2634 0.5811 -0.2785
H43? H 0.3343 0.6432 -0.2222
H44? H 0.2276 0.5993 -0.2041
O12? O 0.459(4) 0.562(3) -0.143(3)
loop_
_geom_bond_atom_site_label_1
_geom_bond_atom_site_label_2
_geom_bond_site_symmetry_1
_geom_bond_site_symmetry_2
Re1 S1 1_555 1_555
Re2 S1 1_555 1_555
Ag1 S1 1_555 1_555
S1 C17 1_555 1_555
S2 Re1 1_555 1_555
O1 C1 1_555 1_555
O2 C2 1_555 1_555
O3 C3 1_555 1_555
O4 C4 1_555 1_555
O5 C5 1_555 1_555
O6 C6 1_555 1_555
O7 Ag1 1_555 1_555
O8 N3 1_555 1_555
O9 N3 1_555 1_555
O10 Ag1 1_555 1_555
N1 Re1 1_555 1_555
N2 C12 1_555 1_555
N3 O7 1_555 1_555
C1 Re1 1_555 1_555
C2 Re1 1_555 1_555
C3 Re1 1_555 1_555
C4 Re2 1_555 1_555
C5 Re2 1_555 1_555
C6 Re2 1_555 1_555
C7 N1 1_555 1_555
H1 C7 1_555 1_555
C8 C7 1_555 1_555
H2 C8 1_555 1_555
C9 C8 1_555 1_555
C10 C9 1_555 1_555
H3 C10 1_555 1_555
C11 N1 1_555 1_555
H4 C11 1_555 1_555
C12 H5 1_555 1_555
C13 C12 1_555 1_555
H6 C13 1_555 1_555
C14 C9 1_555 1_555
C15 C14 1_555 1_555
H7 C15 1_555 1_555
C16 N2 1_555 1_555
H8 C16 1_555 1_555
C17 H9 1_555 1_555
H10 C17 1_555 1_555
C18 C17 1_555 1_555
H11 C18 1_555 1_555
H12 C18 1_555 1_555
C19 C18 1_555 1_555
H13 C19 1_555 1_555
H14 C19 1_555 1_555
C20 C19 1_555 1_555
H15 C20 1_555 1_555
H16 C20 1_555 1_555
H17 C20 1_555 1_555
C21 S2 1_555 1_555
H18 C21 1_555 1_555
H19 C21 1_555 1_555
C22 C21 1_555 1_555
H20 C22 1_555 1_555
H21 C22 1_555 1_555
C23 C22 1_555 1_555
H22 C23 1_555 1_555
H23 C23 1_555 1_555
C24 C23 1_555 1_555
H24 C24 1_555 1_555
H25 C24 1_555 1_555
H26 C24 1_555 1_555
C25 O10 1_555 1_555
C26 C25 1_555 1_555
H27 C26 1_555 1_555
H28 C26 1_555 1_555
H29 C26 1_555 1_555
C27 C25 1_555 1_555
H30 C27 1_555 1_555
H31 C27 1_555 1_555
H32 C27 1_555 1_555
C28 C29 1_555 1_555
C29 H33 1_555 1_555
H34 C29 1_555 1_555
H35 C29 1_555 1_555
C30 C28 1_555 1_555
H39 C30 1_555 1_555
H40 C30 1_555 1_555
H41 C30 1_555 1_555
O11 C28 1_555 1_555
Re2B N2 1_555 1_555
Ag1B O7 1_555 1_555
O7B Ag1 1_555 1_555
N2B Re2 1_555 1_555
Re2 S2 1_555 1_555
C10 C11 1_555 1_555
C13 C14 1_555 1_555
C15 C16 1_555 1_555
Ag1B O7B 1_555 1_555

#END
