
#######################################################################
#
#                 Cambridge Crystallographic Data Centre
#                                CCDC 
#
#######################################################################
#
# If this CIF has been generated from an entry in the Cambridge 
# Structural Database, then it will include bibliographic, chemical, 
# crystal, experimental, refinement or atomic coordinate data resulting 
# from the CCDC's data processing and validation procedures.
#
#######################################################################

data_HEPREA
_symmetry_cell_setting           triclinic
_symmetry_space_group_name_H-M   'P -1'
_symmetry_Int_Tables_number      2
_space_group_name_Hall           '-P 1'
loop_
_symmetry_equiv_pos_site_id
_symmetry_equiv_pos_as_xyz
1 x,y,z
2 -x,-y,-z
_cell_length_a                   8.179(3)
_cell_length_b                   9.171(4)
_cell_length_c                   9.790(4)
_cell_angle_alpha                101.121(6)
_cell_angle_beta                 110.349(6)
_cell_angle_gamma                110.465(6)
_cell_volume                     602.309
loop_
_atom_site_label
_atom_site_type_symbol
_atom_site_fract_x
_atom_site_fract_y
_atom_site_fract_z
Fe1 Fe 0.5000 0.5000 0.5000
N1 N 0.5335(4) 0.3750(3) 0.6687(3)
N2 N 0.4637(4) 0.1761(3) 0.7600(3)
N3 N 0.6103(6) 0.3125(4) 0.8861(4)
N4 N 0.4698(4) -0.0841(3) 0.7606(3)
N5 N 0.6432(5) -0.0512(4) 0.8757(3)
N6 N 0.5391(4) -0.2781(4) 0.6716(3)
C1 C 0.4213(5) 0.2164(4) 0.6332(4)
H1 H 0.3259 0.1429 0.5335
C2 C 0.6468(7) 0.4277(5) 0.8250(4)
H2 H 0.7426 0.5371 0.8839
C3 C 0.3712(5) 0.0191(4) 0.7755(4)
H3 H 0.2361 -0.0406 0.6960
H4 H 0.3714 0.0396 0.8766
C4 C 0.4111(5) -0.2183(4) 0.6412(4)
H5 H 0.2958 -0.2639 0.5491
C5 C 0.6796(6) -0.1700(5) 0.8166(4)
H6 H 0.7922 -0.1795 0.8693
O8 O 0.8032(4) 0.6056(4) 0.5621(3)
H7 H 0.8525 0.6311 0.4976
H8 H 0.8977 0.6397 0.6540
Fe1_2 Fe 0.5000 -0.5000 0.5000
Fe1_3 Fe 0.5000 1.5000 0.5000
N1A N 0.4665(4) 0.6250(3) 0.3313(3)
N2A N 0.5363(4) 0.8239(3) 0.2400(3)
N3A N 0.3897(6) 0.6875(4) 0.1139(4)
N4A N 0.5302(4) 1.0841(3) 0.2394(3)
N5A N 0.3568(5) 1.0512(4) 0.1243(3)
N6A N 0.4609(4) 1.2781(4) 0.3284(3)
N6_2 N 0.5391(4) 0.7219(4) 0.6716(3)
N6A_2 N 0.4609(4) 0.2781(4) 0.3284(3)
C1A C 0.5787(5) 0.7836(4) 0.3668(4)
H1A H 0.6741 0.8571 0.4665
C2A C 0.3532(7) 0.5723(5) 0.1750(4)
H2A H 0.2574 0.4629 0.1161
C3A C 0.6288(5) 0.9809(4) 0.2245(4)
H3A H 0.7639 1.0406 0.3040
H4A H 0.6286 0.9604 0.1234
C4A C 0.5889(5) 1.2183(4) 0.3588(4)
H5A H 0.7042 1.2639 0.4509
C5A C 0.3204(6) 1.1700(5) 0.1834(4)
H6A H 0.2078 1.1795 0.1307
O8A O 0.1968(4) 0.3944(4) 0.4379(3)
H7A H 0.1475 0.3689 0.5024
H8A H 0.1023 0.3603 0.3460
Cl1 Cl 1.01118(16) 0.78251(15) 0.28016(12)
O1 O 1.2191(5) 0.8666(6) 0.3389(5)
O2 O 0.9824(10) 0.8012(16) 0.4131(8)
O3 O 0.9112(13) 0.8392(16) 0.1815(10)
O4 O 0.9567(19) 0.6187(10) 0.2032(17)
O9 O 0.0926(6) 0.7223(5) 0.8513(4)
H9 H 0.1110 0.6418 0.8185
H10 H 0.1811 0.8077 0.9270
O5? O 0.944(2) 0.6606(18) 0.3333(19)
O6? O 0.985(2) 0.9217(19) 0.349(4)
O7? O 0.927(3) 0.742(3) 0.1276(13)
loop_
_geom_bond_atom_site_label_1
_geom_bond_atom_site_label_2
_geom_bond_site_symmetry_1
_geom_bond_site_symmetry_2
Fe1 N1 1_555 1_555
N1 C1 1_555 1_555
N2 N3 1_555 1_555
N3 C2 1_555 1_555
N4 N5 1_555 1_555
N5 C5 1_555 1_555
N6 C4 1_555 1_555
Cl1 O1 1_555 1_555
O2 Cl1 1_555 1_555
O3 Cl1 1_555 1_555
O4 Cl1 1_555 1_555
C1 N2 1_555 1_555
H1 C1 1_555 1_555
C2 N1 1_555 1_555
H2 C2 1_555 1_555
C3 N2 1_555 1_555
H3 C3 1_555 1_555
H4 C3 1_555 1_555
C4 N4 1_555 1_555
H5 C4 1_555 1_555
C5 N6 1_555 1_555
H6 C5 1_555 1_555
O8 Fe1 1_555 1_555
H7 O8 1_555 1_555
H8 O8 1_555 1_555
O9 H9 1_555 1_555
H10 O9 1_555 1_555
Fe1_2 N6 1_555 1_555
Fe1_3 N6A 1_555 1_555
N1A Fe1 1_555 1_555
N2A N3A 1_555 1_555
N3A C2A 1_555 1_555
N4A N5A 1_555 1_555
N5A C5A 1_555 1_555
N6A C4A 1_555 1_555
N6_2 Fe1 1_555 1_555
N6A_2 Fe1 1_555 1_555
C1A N1A 1_555 1_555
H1A C1A 1_555 1_555
C2A N1A 1_555 1_555
H2A C2A 1_555 1_555
C3A N2A 1_555 1_555
H3A C3A 1_555 1_555
H4A C3A 1_555 1_555
C4A N4A 1_555 1_555
H5A C4A 1_555 1_555
C5A N6A 1_555 1_555
H6A C5A 1_555 1_555
O8A Fe1 1_555 1_555
H7A O8A 1_555 1_555
H8A O8A 1_555 1_555
N4 C3 1_555 1_555
N2A C1A 1_555 1_555
N4A C3A 1_555 1_555

#END
