
#######################################################################
#
#                 Cambridge Crystallographic Data Centre
#                                CCDC 
#
#######################################################################
#
# If this CIF has been generated from an entry in the Cambridge 
# Structural Database, then it will include bibliographic, chemical, 
# crystal, experimental, refinement or atomic coordinate data resulting 
# from the CCDC's data processing and validation procedures.
#
#######################################################################

data_HEQJUJ
_symmetry_cell_setting           triclinic
_symmetry_space_group_name_H-M   'P -1'
_symmetry_Int_Tables_number      2
_space_group_name_Hall           '-P 1'
loop_
_symmetry_equiv_pos_site_id
_symmetry_equiv_pos_as_xyz
1 x,y,z
2 -x,-y,-z
_cell_length_a                   8.2610(3)
_cell_length_b                   9.4040(3)
_cell_length_c                   10.3570(3)
_cell_angle_alpha                87.9330(19)
_cell_angle_beta                 83.0400(16)
_cell_angle_gamma                89.2380(19)
_cell_volume                     798.117
loop_
_atom_site_label
_atom_site_type_symbol
_atom_site_fract_x
_atom_site_fract_y
_atom_site_fract_z
Cu1 Cu 0.51434(4) 0.35702(3) 0.56807(3)
O1 O 0.3751(2) 0.5219(2) 0.56772(18)
N1 N 0.3269(3) 0.8019(3) 0.4561(3)
H1 H 0.376(4) 0.859(4) 0.502(4)
H2 H 0.323(4) 0.843(4) 0.389(4)
N2 N 0.3633(3) 0.2381(2) 0.6932(2)
C1 C 0.2195(4) 0.5407(4) 0.6356(4)
H3 H 0.2187 0.4985 0.7226
H4 H 0.1416 0.4895 0.5924
C2 C 0.1648(4) 0.6916(4) 0.6465(4)
H5 H 0.2361 0.7400 0.6982
H6 H 0.0559 0.6935 0.6935
C3 C 0.1621(4) 0.7731(3) 0.5206(3)
H7 H 0.1030 0.7195 0.4636
H8 H 0.1047 0.8626 0.5365
C4 C 0.2305(3) 0.1790(3) 0.6573(3)
H9 H 0.2051 0.1988 0.5734
C5 C 0.1298(4) 0.0908(3) 0.7376(3)
H10 H 0.0374 0.0537 0.7086
C6 C 0.1658(4) 0.0569(3) 0.8621(3)
C7 C 0.3008(4) 0.1191(4) 0.8991(3)
H11 H 0.3284 0.1011 0.9827
C8 C 0.3958(4) 0.2075(4) 0.8142(3)
H12 H 0.4870 0.2480 0.8422
C9 C 0.0584(4) -0.0407(3) 0.9539(3)
H13 H -0.0025 -0.1013 0.9037
H14 H 0.1264 -0.1013 1.0032
O2 O 0.6638(4) 0.4510(3) 0.7510(3)
H15 H 0.6634 0.5364 0.7319
C10 C 0.7892(7) 0.4201(7) 0.8226(7)
H16 H 0.8846 0.4715 0.7829
H17 H 0.8143 0.3194 0.8160
C11 C 0.7641(11) 0.4514(9) 0.9551(7)
H18 H 0.7582 0.5527 0.9638
H19 H 0.8530 0.4134 0.9976
H20 H 0.6639 0.4095 0.9944
Cu1A Cu 0.48566(4) 0.64298(3) 0.43193(3)
Cu1A_2 Cu -0.51434(4) -0.35702(3) 1.43193(3)
O1A O 0.6249(2) 0.4781(2) 0.43228(18)
N1A N 0.6731(3) 0.1981(3) 0.5439(3)
H1A H 0.624(4) 0.141(4) 0.498(4)
H2A H 0.677(4) 0.157(4) 0.611(4)
N2A N -0.3633(3) -0.2381(2) 1.3068(2)
N2A_2 N 0.6367(3) 0.7619(2) 0.3068(2)
C1A C 0.7805(4) 0.4593(4) 0.3644(4)
H3A H 0.7813 0.5015 0.2774
H4A H 0.8584 0.5105 0.4076
C2A C 0.8352(4) 0.3084(4) 0.3535(4)
H5A H 0.7639 0.2600 0.3018
H6A H 0.9441 0.3065 0.3065
C3A C 0.8379(4) 0.2269(3) 0.4794(3)
H7A H 0.8970 0.2805 0.5364
H8A H 0.8953 0.1374 0.4635
C4A C -0.2305(3) -0.1790(3) 1.3427(3)
H9A H -0.2051 -0.1988 1.4266
C5A C -0.1298(4) -0.0908(3) 1.2624(3)
H10A H -0.0374 -0.0537 1.2914
C6A C -0.1658(4) -0.0569(3) 1.1379(3)
C7A C -0.3008(4) -0.1191(4) 1.1009(3)
H11A H -0.3284 -0.1011 1.0173
C8A C -0.3958(4) -0.2075(4) 1.1858(3)
H12A H -0.4870 -0.2480 1.1578
C9A C -0.0584(4) 0.0407(3) 1.0461(3)
H13A H 0.0025 0.1013 1.0963
H14A H -0.1264 0.1013 0.9968
O2A O 0.3362(4) 0.5490(3) 0.2490(3)
H15A H 0.3366 0.4636 0.2681
C10A C 0.2108(7) 0.5799(7) 0.1774(7)
H16A H 0.1154 0.5285 0.2171
H17A H 0.1857 0.6806 0.1840
C11A C 0.2359(11) 0.5486(9) 0.0449(7)
H18A H 0.2418 0.4473 0.0362
H19A H 0.1470 0.5866 0.0024
H20A H 0.3361 0.5905 0.0056
B1 B 0.3601(7) 0.1472(6) 0.2766(5)
F1 F 0.2727(6) 0.2572(4) 0.3387(4)
F2 F 0.4480(5) 0.2066(4) 0.1719(3)
F3 F 0.2632(6) 0.0414(5) 0.2436(5)
F4 F 0.4563(4) 0.0893(4) 0.3632(3)
B2? B 0.330(3) 0.138(2) 0.285(2)
F5? F 0.181(2) 0.122(2) 0.3600(18)
F6? F 0.294(3) 0.249(2) 0.211(2)
F7? F 0.339(2) 0.0175(18) 0.2173(17)
F8? F 0.429(3) 0.151(3) 0.377(2)
loop_
_geom_bond_atom_site_label_1
_geom_bond_atom_site_label_2
_geom_bond_site_symmetry_1
_geom_bond_site_symmetry_2
Cu1 O1 1_555 1_555
O1 C1 1_555 1_555
N1 H1 1_555 1_555
H2 N1 1_555 1_555
N2 Cu1 1_555 1_555
C1 H3 1_555 1_555
H4 C1 1_555 1_555
C2 C1 1_555 1_555
H5 C2 1_555 1_555
H6 C2 1_555 1_555
C3 N1 1_555 1_555
H7 C3 1_555 1_555
H8 C3 1_555 1_555
C4 N2 1_555 1_555
H9 C4 1_555 1_555
C5 C4 1_555 1_555
H10 C5 1_555 1_555
C6 C5 1_555 1_555
C7 C6 1_555 1_555
H11 C7 1_555 1_555
C8 N2 1_555 1_555
H12 C8 1_555 1_555
C9 C6 1_555 1_555
H13 C9 1_555 1_555
H14 C9 1_555 1_555
B1 F1 1_555 1_555
F2 B1 1_555 1_555
F3 B1 1_555 1_555
F4 B1 1_555 1_555
O2 Cu1 1_555 1_555
H15 O2 1_555 1_555
C10 O2 1_555 1_555
H16 C10 1_555 1_555
H17 C10 1_555 1_555
C11 C10 1_555 1_555
H18 C11 1_555 1_555
H19 C11 1_555 1_555
H20 C11 1_555 1_555
Cu1A O1 1_555 1_555
Cu1A_2 N2A 1_555 1_555
O1A Cu1 1_555 1_555
N1A Cu1 1_555 1_555
H1A N1A 1_555 1_555
H2A N1A 1_555 1_555
N2A C4A 1_555 1_555
N2A_2 Cu1A 1_555 1_555
C1A O1A 1_555 1_555
H3A C1A 1_555 1_555
H4A C1A 1_555 1_555
C2A C1A 1_555 1_555
H5A C2A 1_555 1_555
H6A C2A 1_555 1_555
C3A N1A 1_555 1_555
H7A C3A 1_555 1_555
H8A C3A 1_555 1_555
C4A H9A 1_555 1_555
C5A C4A 1_555 1_555
H10A C5A 1_555 1_555
C6A C5A 1_555 1_555
C7A C6A 1_555 1_555
H11A C7A 1_555 1_555
C8A N2A 1_555 1_555
H12A C8A 1_555 1_555
C9A C9 1_555 1_555
H13A C9A 1_555 1_555
H14A C9A 1_555 1_555
O2A Cu1A 1_555 1_555
H15A O2A 1_555 1_555
C10A O2A 1_555 1_555
H16A C10A 1_555 1_555
H17A C10A 1_555 1_555
C11A C10A 1_555 1_555
H18A C11A 1_555 1_555
H19A C11A 1_555 1_555
H20A C11A 1_555 1_555
N1 Cu1A 1_555 1_555
C2 C3 1_555 1_555
C7 C8 1_555 1_555
Cu1A O1A 1_555 1_555
C2A C3A 1_555 1_555
C6A C9A 1_555 1_555
C7A C8A 1_555 1_555

#END
