
#######################################################################
#
#                 Cambridge Crystallographic Data Centre
#                                CCDC 
#
#######################################################################
#
# If this CIF has been generated from an entry in the Cambridge 
# Structural Database, then it will include bibliographic, chemical, 
# crystal, experimental, refinement or atomic coordinate data resulting 
# from the CCDC's data processing and validation procedures.
#
#######################################################################

data_HEQPOJ
_symmetry_cell_setting           monoclinic
_symmetry_space_group_name_H-M   'P 21/n'
_symmetry_Int_Tables_number      14
_space_group_name_Hall           '-P 2yn'
loop_
_symmetry_equiv_pos_site_id
_symmetry_equiv_pos_as_xyz
1 x,y,z
2 1/2-x,1/2+y,1/2-z
3 -x,-y,-z
4 1/2+x,1/2-y,1/2+z
_cell_length_a                   13.1867(9)
_cell_length_b                   13.2605(9)
_cell_length_c                   15.1625(10)
_cell_angle_alpha                90
_cell_angle_beta                 99.3640(10)
_cell_angle_gamma                90
_cell_volume                     2616.02
loop_
_atom_site_label
_atom_site_type_symbol
_atom_site_fract_x
_atom_site_fract_y
_atom_site_fract_z
Ag1 Ag 0.750316(11) 0.491232(11) 0.228901(10)
F1 F 0.85478(10) 0.17954(10) 0.61813(9)
F2 F 0.96348(10) 0.48484(9) 0.76184(10)
F3 F 0.71967(10) 0.15364(9) 0.73016(10)
F4 F 0.83264(10) 0.45555(11) 0.87658(8)
F5 F 1.16587(9) 0.91197(9) 0.09895(9)
F6 F 0.85148(9) 0.88778(9) -0.09806(9)
O1 O 0.67964(13) 0.34660(14) 0.11388(17)
O2 O 0.84159(13) 0.33214(12) 0.15162(12)
O3 O 0.75478(13) 0.21121(11) 0.08193(11)
N1 N 0.82899(12) 0.43700(11) 0.36374(11)
N2 N 0.57902(12) 0.53761(13) 0.21221(12)
N3 N 0.82180(12) 0.60548(12) 0.14157(11)
N4 N 0.75785(13) 0.29579(12) 0.11632(10)
C1 C 0.89798(17) 0.36217(16) 0.37268(14)
H1 H 0.9116 0.3292 0.3202
C2 C 0.81231(16) 0.48186(14) 0.43895(14)
H2 H 0.7637 0.5353 0.4344
C3 C 0.95046(16) 0.33050(16) 0.45429(14)
H3 H 0.9984 0.2767 0.4571
C4 C 0.86177(16) 0.45485(15) 0.52256(14)
H4 H 0.8471 0.4893 0.5740
C5 C 0.93311(13) 0.37711(14) 0.53153(13)
C6 C 0.98951(14) 0.34533(17) 0.62252(13)
H5 H 1.0266 0.2814 0.6166
H6 H 1.0408 0.3974 0.6455
C7 C 0.91548(13) 0.33097(15) 0.68822(12)
C8 C 0.85125(15) 0.24838(14) 0.68272(13)
C9 C 0.90559(13) 0.40030(15) 0.75399(13)
C10 C 0.78152(16) 0.23510(14) 0.74067(14)
C11 C 0.83684(14) 0.38612(15) 0.81249(12)
C12 C 0.77330(14) 0.30330(15) 0.80774(13)
C13 C 0.69693(17) 0.29090(18) 0.87157(15)
H7 H 0.6783 0.2188 0.8748
H8 H 0.7291 0.3127 0.9321
C14 C 0.60080(14) 0.35228(15) 0.84175(13)
C15 C 0.53226(15) 0.32580(15) 0.76656(14)
H9 H 0.5456 0.2690 0.7321
C16 C 0.57786(15) 0.43588(17) 0.88879(16)
H10 H 0.6235 0.4573 0.9405
C17 C 0.55571(15) 0.61789(16) 0.25836(14)
H11 H 0.6017 0.6370 0.3106
C18 C 0.51232(17) 0.51155(16) 0.13995(18)
H12 H 0.5273 0.4543 0.1067
C19 C 0.85985(17) 0.56900(15) 0.07154(14)
H13 H 0.8444 0.5012 0.0541
C20 C 0.84313(15) 0.70187(14) 0.16281(14)
H14 H 0.8152 0.7303 0.2112
C21 C 0.92024(16) 0.62425(14) 0.02324(13)
H15 H 0.9451 0.5947 -0.0262
C22 C 0.90357(15) 0.76245(13) 0.11830(13)
H16 H 0.9169 0.8304 0.1363
C23 C 0.94450(14) 0.72306(13) 0.04723(12)
C24 C 1.01815(16) 0.77965(15) -0.00148(14)
H17 H 1.0071 0.7571 -0.0645
H18 H 1.0892 0.7610 0.0252
C25 C 1.00897(13) 0.89325(14) -0.00001(12)
C26 C 1.08244(14) 0.95382(14) 0.04917(13)
C27 C 0.92610(14) 0.94263(14) -0.04888(13)
Ag1B Ag 0.249684(11) 0.508768(11) 0.771099(10)
Ag1B_2 Ag 1.249684(11) 1.508768(11) -0.228901(10)
F1B F 0.14522(10) 0.82046(10) 0.38187(9)
F2B F 0.03652(10) 0.51516(9) 0.23816(10)
F3B F 0.28033(10) 0.84636(9) 0.26984(10)
F4B F 0.16736(10) 0.54445(11) 0.12342(8)
F5B F 0.83413(9) 1.08803(9) -0.09895(9)
F6B F 1.14852(9) 1.11222(9) 0.09806(9)
O1B O 0.32036(13) 0.65340(14) 0.88612(17)
O2B O 0.15841(13) 0.66786(12) 0.84838(12)
O3B O 0.24522(13) 0.78879(11) 0.91807(11)
N1B N 0.17101(12) 0.56300(11) 0.63626(11)
N2B N 0.42098(12) 0.46239(13) 0.78779(12)
N3B N 1.17820(12) 1.39452(12) -0.14157(11)
N3B_2 N 0.17820(12) 0.39452(12) 0.85843(11)
N4B N 0.24215(13) 0.70421(12) 0.88368(10)
C1B C 0.10202(17) 0.63783(16) 0.62732(14)
H1B H 0.0884 0.6708 0.6798
C2B C 0.18769(16) 0.51814(14) 0.56105(14)
H2B H 0.2363 0.4647 0.5656
C3B C 0.04954(16) 0.66950(16) 0.54571(14)
H3B H 0.0016 0.7233 0.5429
C4B C 0.13823(16) 0.54515(15) 0.47744(14)
H4B H 0.1529 0.5107 0.4260
C5B C 0.06689(13) 0.62289(14) 0.46847(13)
C6B C 0.01049(14) 0.65467(17) 0.37748(13)
H5B H -0.0266 0.7186 0.3834
H6B H -0.0408 0.6026 0.3545
C7B C 0.08452(13) 0.66903(15) 0.31178(12)
C8B C 0.14875(15) 0.75162(14) 0.31728(13)
C9B C 0.09441(13) 0.59970(15) 0.24601(13)
C10B C 0.21848(16) 0.76490(14) 0.25933(14)
C11B C 0.16316(14) 0.61388(15) 0.18751(12)
C12B C 0.22670(14) 0.69670(15) 0.19226(13)
C13B C 0.30307(17) 0.70910(18) 0.12843(15)
H7B H 0.3217 0.7812 0.1252
H8B H 0.2709 0.6873 0.0679
C14B C 0.39920(14) 0.64772(15) 0.15825(13)
C15B C 0.46774(15) 0.67420(15) 0.23344(14)
H9B H 0.4544 0.7310 0.2679
C16B C 0.42214(15) 0.56412(17) 0.11121(16)
H10B H 0.3765 0.5427 0.0595
C17B C 0.44429(15) 0.38211(16) 0.74164(14)
H11B H 0.3983 0.3630 0.6894
C18B C 0.48768(17) 0.48845(16) 0.86005(18)
H12B H 0.4727 0.5457 0.8933
C19B C 1.14015(17) 1.43100(15) -0.07154(14)
H13B H 1.1556 1.4988 -0.0541
C20B C 1.15687(15) 1.29813(14) -0.16281(14)
H14B H 1.1848 1.2697 -0.2112
C21B C 1.07976(16) 1.37575(14) -0.02324(13)
H15B H 1.0549 1.4053 0.0262
C22B C 1.09643(15) 1.23755(13) -0.11830(13)
H16B H 1.0831 1.1696 -0.1363
C23B C 1.05550(14) 1.27694(13) -0.04723(12)
C24B C 0.98185(16) 1.22035(15) 0.00148(14)
H17B H 0.9929 1.2429 0.0645
H18B H 0.9108 1.2390 -0.0252
C25B C 0.99103(13) 1.10675(14) 0.00001(12)
C26B C 0.91756(14) 1.04618(14) -0.04917(13)
C27B C 1.07390(14) 1.05737(14) 0.04888(13)
loop_
_geom_bond_atom_site_label_1
_geom_bond_atom_site_label_2
_geom_bond_site_symmetry_1
_geom_bond_site_symmetry_2
Ag1 O1 1_555 1_555
F1 C8 1_555 1_555
F2 C9 1_555 1_555
F3 C10 1_555 1_555
F4 C11 1_555 1_555
F5 C26 1_555 1_555
F6 C27 1_555 1_555
O1 N4 1_555 1_555
O2 N4 1_555 1_555
O3 N4 1_555 1_555
N1 Ag1 1_555 1_555
N2 Ag1 1_555 1_555
N3 Ag1 1_555 1_555
C1 N1 1_555 1_555
H1 C1 1_555 1_555
C2 N1 1_555 1_555
H2 C2 1_555 1_555
C3 C1 1_555 1_555
H3 C3 1_555 1_555
C4 C2 1_555 1_555
H4 C4 1_555 1_555
C5 C3 1_555 1_555
C6 C5 1_555 1_555
H5 C6 1_555 1_555
H6 C6 1_555 1_555
C7 C6 1_555 1_555
C8 C7 1_555 1_555
C9 C7 1_555 1_555
C10 C8 1_555 1_555
C11 C9 1_555 1_555
C12 C10 1_555 1_555
C13 C12 1_555 1_555
H7 C13 1_555 1_555
H8 C13 1_555 1_555
C14 C13 1_555 1_555
C15 C14 1_555 1_555
H9 C15 1_555 1_555
C16 C14 1_555 1_555
H10 C16 1_555 1_555
C17 N2 1_555 1_555
H11 C17 1_555 1_555
C18 N2 1_555 1_555
H12 C18 1_555 1_555
C19 N3 1_555 1_555
H13 C19 1_555 1_555
C20 N3 1_555 1_555
H14 C20 1_555 1_555
C21 C19 1_555 1_555
H15 C21 1_555 1_555
C22 C20 1_555 1_555
H16 C22 1_555 1_555
C23 C21 1_555 1_555
C24 C23 1_555 1_555
H17 C24 1_555 1_555
H18 C24 1_555 1_555
C25 C24 1_555 1_555
C26 C25 1_555 1_555
C27 C25 1_555 1_555
Ag1B O1B 1_555 1_555
Ag1B_2 N3B 1_555 1_555
F1B C8B 1_555 1_555
F2B C9B 1_555 1_555
F3B C10B 1_555 1_555
F4B C11B 1_555 1_555
F5B C26B 1_555 1_555
F6B C27B 1_555 1_555
O1B N4B 1_555 1_555
O2B N4B 1_555 1_555
O3B N4B 1_555 1_555
N1B Ag1B 1_555 1_555
N2B Ag1B 1_555 1_555
N3B C19B 1_555 1_555
N3B_2 Ag1B 1_555 1_555
C1B N1B 1_555 1_555
H1B C1B 1_555 1_555
C2B N1B 1_555 1_555
H2B C2B 1_555 1_555
C3B C1B 1_555 1_555
H3B C3B 1_555 1_555
C4B C2B 1_555 1_555
H4B C4B 1_555 1_555
C5B C3B 1_555 1_555
C6B C5B 1_555 1_555
H5B C6B 1_555 1_555
H6B C6B 1_555 1_555
C7B C6B 1_555 1_555
C8B C7B 1_555 1_555
C9B C7B 1_555 1_555
C10B C8B 1_555 1_555
C11B C9B 1_555 1_555
C12B C10B 1_555 1_555
C13B C12B 1_555 1_555
H7B C13B 1_555 1_555
H8B C13B 1_555 1_555
C14B C13B 1_555 1_555
C15B C17 1_555 1_555
H9B C15B 1_555 1_555
C16B C18 1_555 1_555
H10B C16B 1_555 1_555
C17B C15 1_555 1_555
H11B C17B 1_555 1_555
C18B C16 1_555 1_555
H12B C18B 1_555 1_555
C19B H13B 1_555 1_555
C20B N3B 1_555 1_555
H14B C20B 1_555 1_555
C21B C19B 1_555 1_555
H15B C21B 1_555 1_555
C22B C20B 1_555 1_555
H16B C22B 1_555 1_555
C23B C21B 1_555 1_555
C24B C23B 1_555 1_555
H17B C24B 1_555 1_555
H18B C24B 1_555 1_555
C25B C24B 1_555 1_555
C26B C27 1_555 1_555
C27B C26 1_555 1_555
C4 C5 1_555 1_555
C11 C12 1_555 1_555
C22 C23 1_555 1_555
N2B C17B 1_555 1_555
N2B C18B 1_555 1_555
C4B C5B 1_555 1_555
C11B C12B 1_555 1_555
C14B C15B 1_555 1_555
C14B C16B 1_555 1_555
C22B C23B 1_555 1_555
C25B C26B 1_555 1_555
C25B C27B 1_555 1_555

#END
