
#######################################################################
#
#                 Cambridge Crystallographic Data Centre
#                                CCDC 
#
#######################################################################
#
# If this CIF has been generated from an entry in the Cambridge 
# Structural Database, then it will include bibliographic, chemical, 
# crystal, experimental, refinement or atomic coordinate data resulting 
# from the CCDC's data processing and validation procedures.
#
#######################################################################

data_HEQPUP
_symmetry_cell_setting           orthorhombic
_symmetry_space_group_name_H-M   'P n n a'
_symmetry_Int_Tables_number      52
_space_group_name_Hall           '-P 2a 2bc'
loop_
_symmetry_equiv_pos_site_id
_symmetry_equiv_pos_as_xyz
1 x,y,z
2 1/2-x,-y,z
3 1/2-x,1/2+y,1/2-z
4 x,1/2-y,1/2-z
5 -x,-y,-z
6 1/2+x,y,-z
7 1/2+x,1/2-y,1/2+z
8 -x,1/2+y,1/2+z
_cell_length_a                   23.7569(14)
_cell_length_b                   34.3409(19)
_cell_length_c                   6.0656(4)
_cell_angle_alpha                90
_cell_angle_beta                 90
_cell_angle_gamma                90
_cell_volume                     4948.52
loop_
_atom_site_label
_atom_site_type_symbol
_atom_site_fract_x
_atom_site_fract_y
_atom_site_fract_z
O1 O -0.02138(10) 0.02983(8) 0.1594(4)
O2 O 0.0197(2) 0.02094(14) 0.6027(9)
O3 O 0.0129(2) 0.03537(16) 0.4874(9)
N3 N -0.00888(19) 0.01424(15) 0.3468(8)
O1D O 0.02138(10) -0.02983(8) 0.8406(4)
O2D O -0.0197(2) -0.02094(14) 0.3973(9)
O3D O -0.0129(2) -0.03537(16) 0.5126(9)
N3D N 0.00888(19) -0.01424(15) 0.6532(8)
N4 N 0.27303(18) 0.18255(14) 0.3647(7)
C25 C 0.26151(15) 0.18702(13) 0.1834(8)
C26 C 0.2470(2) 0.19241(17) -0.0455(8)
Cu1 Cu 0.2500 0.0000 0.67249(7)
F1 F 0.38082(8) 0.15021(5) -0.1148(3)
F2 F 0.47992(7) 0.14613(4) 0.5566(3)
F3 F 0.37494(8) 0.22734(5) -0.0856(3)
F4 F 0.47559(6) 0.22333(4) 0.5832(3)
F5 F 0.05912(6) 0.22354(4) 0.9165(2)
F6 F 0.15896(7) 0.22715(4) 1.5870(3)
F7 F 0.05281(6) 0.14633(4) 0.9462(3)
F8 F 0.15092(8) 0.15006(5) 1.6197(3)
N1 N 0.30360(8) 0.03475(5) 0.4981(3)
N2 N 0.20070(8) 0.03589(5) 0.8653(3)
C1 C 0.30856(11) 0.07300(7) 0.5365(4)
H1 H 0.2826 0.0849 0.6347
C2 C 0.34092(11) 0.01927(7) 0.3571(4)
H2 H 0.3382 -0.0078 0.3254
C3 C 0.34969(11) 0.09612(7) 0.4403(4)
H3 H 0.3511 0.1232 0.4714
C4 C 0.38299(10) 0.04022(7) 0.2557(4)
H4 H 0.4081 0.0278 0.1563
C5 C 0.38836(10) 0.07967(7) 0.3001(4)
C6 C 0.43705(11) 0.10190(7) 0.1976(5)
H5 H 0.4725 0.0936 0.2694
H6 H 0.4396 0.0949 0.0395
C7 C 0.43186(11) 0.14559(7) 0.2171(4)
C8 C 0.40532(11) 0.16785(8) 0.0587(4)
C9 C 0.45380(10) 0.16592(7) 0.3927(4)
C10 C 0.40245(11) 0.20795(7) 0.0724(4)
C11 C 0.45157(10) 0.20598(7) 0.4078(4)
C12 C 0.42630(10) 0.22823(6) 0.2462(4)
C13 C 0.10858(10) 0.22841(7) 1.2545(4)
C14 C 0.08262(10) 0.20602(7) 1.0913(4)
C15 C 0.13142(11) 0.20782(7) 1.4271(4)
C16 C 0.07944(10) 0.16627(7) 1.1070(4)
C17 C 0.12760(11) 0.16781(7) 1.4426(4)
C18 C 0.10098(10) 0.14575(7) 1.2848(4)
C19 C 0.09349(12) 0.10210(7) 1.3035(5)
H7 H 0.0537 0.0954 1.2727
H8 H 0.1021 0.0939 1.4562
C20 C 0.13138(10) 0.08005(6) 1.1443(4)
C21 C 0.18971(11) 0.08186(7) 1.1595(4)
H9 H 0.2070 0.0984 1.2651
C22 C 0.10865(10) 0.05656(7) 0.9827(4)
H10 H 0.0690 0.0552 0.9634
C23 C 0.22219(10) 0.05954(7) 1.0208(4)
H11 H 0.2620 0.0609 1.0356
C24 C 0.14404(10) 0.03501(7) 0.8491(4)
H12 H 0.1276 0.0187 0.7401
Cu1B Cu 0.2500 0.5000 -0.17249(7)
Cu1B_2 Cu 0.2500 0.5000 1.82751(7)
F1C F 0.38082(8) 0.34979(5) 0.6148(3)
F2C F 0.47992(7) 0.35387(4) -0.0566(3)
F3C F 0.37494(8) 0.27266(5) 0.5856(3)
F4C F 0.47559(6) 0.27667(4) -0.0832(3)
F5C F 0.05912(6) 0.27646(4) 1.5835(2)
F6C F 0.15896(7) 0.27285(4) 0.9130(3)
F7C F 0.05281(6) 0.35367(4) 1.5538(3)
F8C F 0.15092(8) 0.34994(5) 0.8803(3)
N1C N 0.30360(8) 0.46525(5) 0.0019(3)
N1A N 0.19640(8) -0.03475(5) 0.4981(3)
N2C N 0.20070(8) 0.46411(5) 1.6347(3)
N2A N 0.29930(8) -0.03589(5) 0.8653(3)
C1C C 0.30856(11) 0.42700(7) -0.0365(4)
H1C H 0.2826 0.4151 -0.1347
C2C C 0.34092(11) 0.48073(7) 0.1429(4)
H2C H 0.3382 0.5078 0.1746
C3C C 0.34969(11) 0.40388(7) 0.0597(4)
H3C H 0.3511 0.3768 0.0286
C4C C 0.38299(10) 0.45978(7) 0.2443(4)
H4C H 0.4081 0.4722 0.3437
C5C C 0.38836(10) 0.42033(7) 0.1999(4)
C6C C 0.43705(11) 0.39810(7) 0.3024(5)
H5C H 0.4725 0.4064 0.2306
H6C H 0.4396 0.4051 0.4605
C7C C 0.43186(11) 0.35441(7) 0.2829(4)
C8C C 0.40532(11) 0.33215(8) 0.4413(4)
C9C C 0.45380(10) 0.33408(7) 0.1073(4)
C10C C 0.40245(11) 0.29205(7) 0.4276(4)
C11C C 0.45157(10) 0.29402(7) 0.0922(4)
C12C C 0.42630(10) 0.27177(6) 0.2538(4)
C13C C 0.10858(10) 0.27159(7) 1.2455(4)
C14C C 0.08262(10) 0.29398(7) 1.4087(4)
C15C C 0.13142(11) 0.29218(7) 1.0729(4)
C16C C 0.07944(10) 0.33373(7) 1.3930(4)
C17C C 0.12760(11) 0.33219(7) 1.0574(4)
C18C C 0.10098(10) 0.35425(7) 1.2152(4)
C19C C 0.09349(12) 0.39790(7) 1.1965(5)
H7C H 0.0537 0.4046 1.2273
H8C H 0.1021 0.4061 1.0438
C20C C 0.13138(10) 0.41995(6) 1.3557(4)
C21C C 0.18971(11) 0.41814(7) 1.3405(4)
H9C H 0.2070 0.4016 1.2349
C22C C 0.10865(10) 0.44344(7) 1.5173(4)
H10C H 0.0690 0.4448 1.5366
C23C C 0.22219(10) 0.44046(7) 1.4792(4)
H11C H 0.2620 0.4391 1.4644
C24C C 0.14404(10) 0.46499(7) 1.6509(4)
H12C H 0.1276 0.4813 1.7599
loop_
_geom_bond_atom_site_label_1
_geom_bond_atom_site_label_2
_geom_bond_site_symmetry_1
_geom_bond_site_symmetry_2
Cu1 N1 1_555 1_555
F1 C8 1_555 1_555
F2 C9 1_555 1_555
F3 C10 1_555 1_555
F4 C11 1_555 1_555
F5 C14 1_555 1_555
F6 C15 1_555 1_555
F7 C16 1_555 1_555
F8 C17 1_555 1_555
O1 N3 1_555 1_555
O2 O3 1_555 1_555
O3 N3 1_555 1_555
N1 C1 1_555 1_555
N2 Cu1 1_555 1_555
N3 O2 1_555 1_555
N4 C25 1_555 1_555
C1 H1 1_555 1_555
C2 N1 1_555 1_555
H2 C2 1_555 1_555
C3 C1 1_555 1_555
H3 C3 1_555 1_555
C4 C2 1_555 1_555
H4 C4 1_555 1_555
C5 C3 1_555 1_555
C6 C5 1_555 1_555
H5 C6 1_555 1_555
H6 C6 1_555 1_555
C7 C6 1_555 1_555
C8 C7 1_555 1_555
C9 C7 1_555 1_555
C10 C8 1_555 1_555
C11 C9 1_555 1_555
C12 C10 1_555 1_555
C13 C14 1_555 1_555
C14 C16 1_555 1_555
C15 C13 1_555 1_555
C16 C18 1_555 1_555
C17 C15 1_555 1_555
C18 C17 1_555 1_555
C19 C18 1_555 1_555
H7 C19 1_555 1_555
H8 C19 1_555 1_555
C20 C19 1_555 1_555
C21 C20 1_555 1_555
H9 C21 1_555 1_555
C22 C20 1_555 1_555
H10 C22 1_555 1_555
C23 N2 1_555 1_555
H11 C23 1_555 1_555
C24 N2 1_555 1_555
H12 C24 1_555 1_555
C25 C26 1_555 1_555
Cu1B N1C 1_555 1_555
Cu1B_2 N2C 1_555 1_555
F1C C8C 1_555 1_555
F2C C9C 1_555 1_555
F3C C10C 1_555 1_555
F4C C11C 1_555 1_555
F5C C14C 1_555 1_555
F6C C15C 1_555 1_555
F7C C16C 1_555 1_555
F8C C17C 1_555 1_555
O1D N3D 1_555 1_555
O2D N3 1_555 1_555
O3D O2D 1_555 1_555
N1C C1C 1_555 1_555
N1A Cu1 1_555 1_555
N2C C23C 1_555 1_555
N2A Cu1 1_555 1_555
N3D O2 1_555 1_555
C1C H1C 1_555 1_555
C2C N1C 1_555 1_555
H2C C2C 1_555 1_555
C3C C1C 1_555 1_555
H3C C3C 1_555 1_555
C4C C2C 1_555 1_555
H4C C4C 1_555 1_555
C5C C3C 1_555 1_555
C6C C5C 1_555 1_555
H5C C6C 1_555 1_555
H6C C6C 1_555 1_555
C7C C6C 1_555 1_555
C8C C7C 1_555 1_555
C9C C7C 1_555 1_555
C10C C8C 1_555 1_555
C11C C9C 1_555 1_555
C12C C12 1_555 1_555
C13C C13 1_555 1_555
C14C C13C 1_555 1_555
C15C C13C 1_555 1_555
C16C C14C 1_555 1_555
C17C C15C 1_555 1_555
C18C C16C 1_555 1_555
C19C C18C 1_555 1_555
H7C C19C 1_555 1_555
H8C C19C 1_555 1_555
C20C C19C 1_555 1_555
C21C C20C 1_555 1_555
H9C C21C 1_555 1_555
C22C C20C 1_555 1_555
H10C C22C 1_555 1_555
C23C C21C 1_555 1_555
H11C C23C 1_555 1_555
C24C N2C 1_555 1_555
H12C C24C 1_555 1_555
C4 C5 1_555 1_555
C11 C12 1_555 1_555
C21 C23 1_555 1_555
C22 C24 1_555 1_555
O2D N3D 1_555 1_555
O3D N3D 1_555 1_555
C4C C5C 1_555 1_555
C10C C12C 1_555 1_555
C11C C12C 1_555 1_555
C17C C18C 1_555 1_555
C22C C24C 1_555 1_555

#END
