
#######################################################################
#
#                 Cambridge Crystallographic Data Centre
#                                CCDC 
#
#######################################################################
#
# If this CIF has been generated from an entry in the Cambridge 
# Structural Database, then it will include bibliographic, chemical, 
# crystal, experimental, refinement or atomic coordinate data resulting 
# from the CCDC's data processing and validation procedures.
#
#######################################################################

data_HERFIU
_symmetry_cell_setting           monoclinic
_symmetry_space_group_name_H-M   'P 21/c'
_symmetry_Int_Tables_number      14
_space_group_name_Hall           '-P 2ybc'
loop_
_symmetry_equiv_pos_site_id
_symmetry_equiv_pos_as_xyz
1 x,y,z
2 -x,1/2+y,1/2-z
3 -x,-y,-z
4 x,1/2-y,1/2+z
_cell_length_a                   7.3220(9)
_cell_length_b                   12.4263(16)
_cell_length_c                   20.662(3)
_cell_angle_alpha                90
_cell_angle_beta                 92.362(2)
_cell_angle_gamma                90
_cell_volume                     1878.34
loop_
_atom_site_label
_atom_site_type_symbol
_atom_site_fract_x
_atom_site_fract_y
_atom_site_fract_z
Ru1 Ru 0.189755(17) 0.023642(11) 0.310271(6)
Na1 Na 0.51131(10) -0.14031(6) 0.26517(3)
O1 O 0.34243(16) -0.09352(10) 0.35290(5)
O2 O 0.20900(17) -0.04775(10) 0.22242(6)
O3 O 0.6969(3) -0.07027(17) 0.18435(8)
N1 N 0.15549(19) 0.09754(12) 0.39404(7)
N2 N 0.04524(19) 0.14600(11) 0.27400(7)
N3 N 0.5227(2) 0.17482(14) 0.26952(8)
N4 N -0.1947(2) -0.09807(14) 0.32482(9)
C1 C 0.3484(2) -0.11437(15) 0.41555(8)
C2 C 0.4389(3) -0.20896(16) 0.43646(9)
H1 H 0.4894 -0.2552 0.4052
C3 C 0.4561(3) -0.23615(17) 0.50112(9)
H2 H 0.5160 -0.3011 0.5137
C4 C 0.3862(3) -0.16887(18) 0.54829(9)
H3 H 0.3990 -0.1876 0.5928
C5 C 0.2991(3) -0.07563(17) 0.52972(9)
H4 H 0.2532 -0.0298 0.5621
C6 C 0.2753(2) -0.04545(15) 0.46368(8)
C7 C 0.1913(2) 0.05736(16) 0.45099(9)
H5 H 0.1594 0.0992 0.4873
C8 C 0.0821(3) 0.20717(15) 0.38525(9)
H6 H 0.1835 0.2590 0.3806
H7 H 0.0129 0.2282 0.4234
C9 C -0.0436(3) 0.20855(15) 0.32435(9)
H8 H -0.1634 0.1763 0.3336
H9 H -0.0642 0.2835 0.3095
C10 C 0.0262(2) 0.17064(15) 0.21342(9)
H10 H -0.0430 0.2331 0.2023
C11 C 0.1026(2) 0.11005(15) 0.16137(8)
C12 C 0.0827(3) 0.15634(17) 0.09895(9)
H11 H 0.0297 0.2259 0.0945
C13 C 0.1375(3) 0.10413(18) 0.04458(9)
H12 H 0.1249 0.1376 0.0033
C14 C 0.2118(3) 0.00105(18) 0.05075(10)
H13 H 0.2472 -0.0365 0.0132
C15 C 0.2344(3) -0.04670(16) 0.11046(9)
H14 H 0.2853 -0.1169 0.1134
C16 C 0.1837(2) 0.00608(15) 0.16764(9)
C17 C 0.4147(2) 0.11570(14) 0.28760(8)
C18 C -0.0526(2) -0.05889(14) 0.32348(8)
C19 C 0.6919(4) -0.0093(2) 0.12865(14)
H15 H 0.5956 -0.0365 0.0986
H16 H 0.8101 -0.0139 0.1083
H17 H 0.6663 0.0658 0.1394
Na1A Na 0.48869(10) 0.35969(6) 0.23483(3)
Na1_2 Na -0.48869(10) -0.14031(6) 0.26517(3)
N3A N 0.4773(2) -0.32518(14) 0.23048(8)
N4_2 N 0.8053(2) -0.09807(14) 0.32482(9)
loop_
_geom_bond_atom_site_label_1
_geom_bond_atom_site_label_2
_geom_bond_site_symmetry_1
_geom_bond_site_symmetry_2
Ru1 O1 1_555 1_555
Na1 O1 1_555 1_555
O1 C1 1_555 1_555
O2 Ru1 1_555 1_555
O3 Na1 1_555 1_555
N1 Ru1 1_555 1_555
N2 Ru1 1_555 1_555
N3 C17 1_555 1_555
N4 C18 1_555 1_555
C1 C2 1_555 1_555
C2 H1 1_555 1_555
C3 C2 1_555 1_555
H2 C3 1_555 1_555
C4 C3 1_555 1_555
H3 C4 1_555 1_555
C5 C4 1_555 1_555
H4 C5 1_555 1_555
C6 C1 1_555 1_555
C7 N1 1_555 1_555
H5 C7 1_555 1_555
C8 N1 1_555 1_555
H6 C8 1_555 1_555
H7 C8 1_555 1_555
C9 N2 1_555 1_555
H8 C9 1_555 1_555
H9 C9 1_555 1_555
C10 N2 1_555 1_555
H10 C10 1_555 1_555
C11 C10 1_555 1_555
C12 C11 1_555 1_555
H11 C12 1_555 1_555
C13 C12 1_555 1_555
H12 C13 1_555 1_555
C14 C13 1_555 1_555
H13 C14 1_555 1_555
C15 C14 1_555 1_555
H14 C15 1_555 1_555
C16 O2 1_555 1_555
C17 Ru1 1_555 1_555
C18 Ru1 1_555 1_555
C19 O3 1_555 1_555
H15 C19 1_555 1_555
H16 C19 1_555 1_555
H17 C19 1_555 1_555
Na1A N3 1_555 1_555
Na1_2 N4 1_555 1_555
N3A Na1 1_555 1_555
N4_2 Na1 1_555 1_555
Na1 O2 1_555 1_555
C5 C6 1_555 1_555
C6 C7 1_555 1_555
C8 C9 1_555 1_555
C11 C16 1_555 1_555
C15 C16 1_555 1_555

#END
