
#######################################################################
#
#                 Cambridge Crystallographic Data Centre
#                                CCDC 
#
#######################################################################
#
# If this CIF has been generated from an entry in the Cambridge 
# Structural Database, then it will include bibliographic, chemical, 
# crystal, experimental, refinement or atomic coordinate data resulting 
# from the CCDC's data processing and validation procedures.
#
#######################################################################

data_HERFEQ
_symmetry_cell_setting           triclinic
_symmetry_space_group_name_H-M   'P -1'
_symmetry_Int_Tables_number      2
_space_group_name_Hall           '-P 1'
loop_
_symmetry_equiv_pos_site_id
_symmetry_equiv_pos_as_xyz
1 x,y,z
2 -x,-y,-z
_cell_length_a                   9.6253(11)
_cell_length_b                   14.2047(17)
_cell_length_c                   14.2607(17)
_cell_angle_alpha                94.109(2)
_cell_angle_beta                 99.171(2)
_cell_angle_gamma                107.940(2)
_cell_volume                     1816.08
loop_
_atom_site_label
_atom_site_type_symbol
_atom_site_fract_x
_atom_site_fract_y
_atom_site_fract_z
Ru1 Ru 0.95861(4) 0.71021(2) 0.21577(2)
Ni1 Ni 1.0000 1.0000 0.0000
Ni2 Ni 1.0000 0.5000 0.5000
O1 O 1.1460(3) 0.6942(2) 0.1796(2)
O2 O 1.0600(4) 0.8156(2) 0.3293(2)
N1 N 0.8368(4) 0.6139(3) 0.1010(2)
N2 N 0.7591(4) 0.7080(3) 0.2396(3)
N3 N 0.9742(4) 0.8823(3) 0.0816(3)
N4 N 0.9453(4) 0.5520(3) 0.3668(3)
N5 N 0.8816(4) 0.9000(3) -0.1200(3)
H1 H 0.8433 0.8385 -0.0988
N6 N 1.1863(4) 0.9761(3) -0.0390(3)
H2 H 1.2299 1.0288 -0.0713
N7 N 0.9536(5) 0.3565(3) 0.4331(3)
H3 H 0.9626 0.3165 0.4810
N8 N 0.7896(5) 0.4746(3) 0.5285(3)
H4 H 0.7862 0.4426 0.5831
C1 C 1.1580(5) 0.6775(3) 0.0888(3)
C2 C 1.3009(5) 0.7055(3) 0.0671(3)
H5 H 1.3844 0.7380 0.1166
C3 C 1.3230(6) 0.6868(4) -0.0256(4)
H6 H 1.4211 0.7059 -0.0383
C4 C 1.2029(6) 0.6405(4) -0.0995(3)
H7 H 1.2180 0.6283 -0.1628
C5 C 1.0631(6) 0.6126(3) -0.0799(3)
H8 H 0.9813 0.5799 -0.1305
C6 C 1.0351(5) 0.6305(3) 0.0126(3)
C7 C 0.8835(5) 0.5937(3) 0.0248(3)
H9 H 0.8124 0.5512 -0.0272
C8 C 0.6798(5) 0.5759(4) 0.1077(4)
H10 H 0.6621 0.5192 0.1458
H11 H 0.6172 0.5525 0.0430
C9 C 0.6416(5) 0.6610(4) 0.1560(4)
H12 H 0.6353 0.7102 0.1112
H13 H 0.5444 0.6353 0.1761
C10 C 0.7305(6) 0.7415(4) 0.3192(4)
H14 H 0.6292 0.7297 0.3236
C11 C 0.8418(7) 0.7951(4) 0.4006(3)
C12 C 0.7858(8) 0.8201(4) 0.4834(4)
H15 H 0.6816 0.7986 0.4820
C13 C 0.8814(8) 0.8747(5) 0.5640(4)
H16 H 0.8430 0.8895 0.6185
C14 C 1.0316(8) 0.9083(4) 0.5672(4)
H17 H 1.0968 0.9468 0.6234
C15 C 1.0893(7) 0.8857(4) 0.4875(4)
H18 H 1.1939 0.9089 0.4909
C16 C 0.9966(6) 0.8297(4) 0.4025(3)
C17 C 0.9691(4) 0.8211(3) 0.1292(3)
C18 C 0.9495(5) 0.6038(3) 0.3087(3)
C19 C 1.1290(6) 0.8854(4) -0.1091(4)
H19 H 1.1013 0.8256 -0.0756
H20 H 1.2066 0.8807 -0.1454
C20 C 0.9935(6) 0.8904(4) -0.1770(4)
H21 H 1.0221 0.9485 -0.2126
H22 H 0.9514 0.8292 -0.2238
C21 C 0.7555(6) 0.9213(4) -0.1757(4)
H23 H 0.7036 0.8660 -0.2281
H24 H 0.7928 0.9831 -0.2049
C22 C 0.6463(6) 0.9336(4) -0.1132(5)
H25 H 0.6213 0.8752 -0.0777
H26 H 0.5535 0.9321 -0.1558
C23 C 1.3023(6) 0.9721(4) 0.0411(4)
H27 H 1.2621 0.9133 0.0738
H28 H 1.3884 0.9645 0.0155
C24 C 0.6643(6) 0.4109(4) 0.4544(4)
H29 H 0.6583 0.4452 0.3966
H30 H 0.5703 0.4008 0.4783
C25 C 0.6809(6) 0.3100(4) 0.4275(4)
H31 H 0.6985 0.2801 0.4870
H32 H 0.5852 0.2661 0.3884
C26 C 0.8035(6) 0.3098(4) 0.3728(4)
H33 H 0.7916 0.2402 0.3485
H34 H 0.7941 0.3464 0.3169
C27 C 1.0767(6) 0.3625(4) 0.3807(4)
H35 H 1.0600 0.3923 0.3210
H36 H 1.0809 0.2948 0.3634
C28 C 0.7782(6) 0.5734(4) 0.5551(4)
H37 H 0.7591 0.6050 0.4969
H38 H 0.6946 0.5667 0.5894
Ru1A Ru 1.04139(4) 1.28979(2) -0.21577(2)
Ni2_2 Ni 1.0000 1.5000 -0.5000
O1A O 0.8540(3) 1.3058(2) -0.1796(2)
O2A O 0.9400(4) 1.1844(2) -0.3293(2)
N1A N 1.1632(4) 1.3861(3) -0.1010(2)
N2A N 1.2409(4) 1.2920(3) -0.2396(3)
N3A N 1.0258(4) 1.1177(3) -0.0816(3)
N4A N 1.0547(4) 1.4480(3) -0.3668(3)
N4A_2 N 1.0547(4) 0.4480(3) 0.6332(3)
N5A N 1.1184(4) 1.1000(3) 0.1200(3)
H1A H 1.1567 1.1615 0.0988
N6A N 0.8137(4) 1.0239(3) 0.0390(3)
H2A H 0.7701 0.9712 0.0713
N7A N 1.0464(5) 0.6435(3) 0.5669(3)
H3A H 1.0374 0.6835 0.5190
N8A N 1.2104(5) 0.5254(3) 0.4715(3)
H4A H 1.2138 0.5574 0.4169
C1A C 0.8420(5) 1.3225(3) -0.0888(3)
C2A C 0.6991(5) 1.2945(3) -0.0671(3)
H5A H 0.6156 1.2620 -0.1166
C3A C 0.6770(6) 1.3132(4) 0.0256(4)
H6A H 0.5789 1.2941 0.0383
C4A C 0.7971(6) 1.3595(4) 0.0995(3)
H7A H 0.7820 1.3717 0.1628
C5A C 0.9369(6) 1.3874(3) 0.0799(3)
H8A H 1.0187 1.4201 0.1305
C6A C 0.9649(5) 1.3695(3) -0.0126(3)
C7A C 1.1165(5) 1.4063(3) -0.0248(3)
H9A H 1.1876 1.4488 0.0272
C8A C 1.3202(5) 1.4241(4) -0.1077(4)
H10A H 1.3379 1.4808 -0.1458
H11A H 1.3828 1.4475 -0.0430
C9A C 1.3584(5) 1.3390(4) -0.1560(4)
H12A H 1.3647 1.2898 -0.1112
H13A H 1.4556 1.3647 -0.1761
C10A C 1.2695(6) 1.2585(4) -0.3192(4)
H14A H 1.3708 1.2703 -0.3236
C11A C 1.1582(7) 1.2049(4) -0.4006(3)
C12A C 1.2142(8) 1.1799(4) -0.4834(4)
H15A H 1.3184 1.2014 -0.4820
C13A C 1.1186(8) 1.1253(5) -0.5640(4)
H16A H 1.1570 1.1105 -0.6185
C14A C 0.9684(8) 1.0917(4) -0.5672(4)
H17A H 0.9032 1.0532 -0.6234
C15A C 0.9107(7) 1.1143(4) -0.4875(4)
H18A H 0.8061 1.0911 -0.4909
C16A C 1.0034(6) 1.1703(4) -0.4025(3)
C17A C 1.0309(4) 1.1789(3) -0.1292(3)
C18A C 1.0505(5) 1.3962(3) -0.3087(3)
C19A C 0.8710(6) 1.1146(4) 0.1091(4)
H19A H 0.8987 1.1744 0.0756
H20A H 0.7934 1.1193 0.1454
C20A C 1.0065(6) 1.1096(4) 0.1770(4)
H21A H 0.9779 1.0515 0.2126
H22A H 1.0486 1.1708 0.2238
C21A C 1.2445(6) 1.0787(4) 0.1757(4)
H23A H 1.2964 1.1340 0.2281
H24A H 1.2072 1.0169 0.2049
C22A C 1.3537(6) 1.0664(4) 0.1132(5)
H25A H 1.3787 1.1248 0.0777
H26A H 1.4465 1.0679 0.1558
C23A C 0.6977(6) 1.0279(4) -0.0411(4)
H27A H 0.7379 1.0867 -0.0738
H28A H 0.6116 1.0355 -0.0155
C24A C 1.3357(6) 0.5891(4) 0.5456(4)
H29A H 1.3417 0.5548 0.6034
H30A H 1.4297 0.5992 0.5217
C25A C 1.3191(6) 0.6900(4) 0.5725(4)
H31A H 1.3015 0.7199 0.5130
H32A H 1.4148 0.7339 0.6116
C26A C 1.1965(6) 0.6902(4) 0.6272(4)
H33A H 1.2084 0.7598 0.6515
H34A H 1.2059 0.6536 0.6831
C27A C 0.9233(6) 0.6375(4) 0.6193(4)
H35A H 0.9400 0.6077 0.6790
H36A H 0.9191 0.7052 0.6366
C28A C 1.2218(6) 0.4266(4) 0.4449(4)
H37A H 1.2409 0.3950 0.5031
H38A H 1.3054 0.4333 0.4106
Cl1 Cl 0.37902(13) 0.36494(8) 0.19014(9)
O3 O 0.5295(5) 0.3700(4) 0.2194(3)
O4 O 0.2930(6) 0.3150(3) 0.2544(4)
O5 O 0.3255(5) 0.3104(3) 0.0944(3)
O6 O 0.3722(5) 0.4648(3) 0.1870(3)
O7 O 0.3355(4) 0.6272(3) 0.3064(2)
N9 N 0.6288(7) 0.9329(5) 0.2122(5)
C29 C 0.5389(8) 0.9159(5) 0.2578(5)
C30 C 0.4245(8) 0.8934(6) 0.3183(6)
H39 H 0.4348 0.8398 0.3556
H40 H 0.3253 0.8721 0.2775
H41 H 0.4373 0.9533 0.3619
loop_
_geom_bond_atom_site_label_1
_geom_bond_atom_site_label_2
_geom_bond_site_symmetry_1
_geom_bond_site_symmetry_2
Ru1 O1 1_555 1_555
Ni1 N3 1_555 1_555
Ni2 N4 1_555 1_555
Cl1 O3 1_555 1_555
O1 C1 1_555 1_555
O2 Ru1 1_555 1_555
O4 Cl1 1_555 1_555
O5 Cl1 1_555 1_555
O6 Cl1 1_555 1_555
N1 Ru1 1_555 1_555
N2 Ru1 1_555 1_555
N3 C17 1_555 1_555
N4 C18 1_555 1_555
N5 Ni1 1_555 1_555
H1 N5 1_555 1_555
N6 Ni1 1_555 1_555
H2 N6 1_555 1_555
N7 Ni2 1_555 1_555
H3 N7 1_555 1_555
N8 Ni2 1_555 1_555
H4 N8 1_555 1_555
N9 C29 1_555 1_555
C1 C2 1_555 1_555
C2 H5 1_555 1_555
C3 C2 1_555 1_555
H6 C3 1_555 1_555
C4 C3 1_555 1_555
H7 C4 1_555 1_555
C5 C4 1_555 1_555
H8 C5 1_555 1_555
C6 C1 1_555 1_555
C7 N1 1_555 1_555
H9 C7 1_555 1_555
C8 N1 1_555 1_555
H10 C8 1_555 1_555
H11 C8 1_555 1_555
C9 N2 1_555 1_555
H12 C9 1_555 1_555
H13 C9 1_555 1_555
C10 N2 1_555 1_555
H14 C10 1_555 1_555
C11 C10 1_555 1_555
C12 C11 1_555 1_555
H15 C12 1_555 1_555
C13 C12 1_555 1_555
H16 C13 1_555 1_555
C14 C13 1_555 1_555
H17 C14 1_555 1_555
C15 C14 1_555 1_555
H18 C15 1_555 1_555
C16 O2 1_555 1_555
C17 Ru1 1_555 1_555
C18 Ru1 1_555 1_555
C19 N6 1_555 1_555
H19 C19 1_555 1_555
H20 C19 1_555 1_555
C20 N5 1_555 1_555
H21 C20 1_555 1_555
H22 C20 1_555 1_555
C21 N5 1_555 1_555
H23 C21 1_555 1_555
H24 C21 1_555 1_555
C22 C21 1_555 1_555
H25 C22 1_555 1_555
H26 C22 1_555 1_555
C23 N6 1_555 1_555
H27 C23 1_555 1_555
H28 C23 1_555 1_555
C24 N8 1_555 1_555
H29 C24 1_555 1_555
H30 C24 1_555 1_555
C25 C24 1_555 1_555
H31 C25 1_555 1_555
H32 C25 1_555 1_555
C26 N7 1_555 1_555
H33 C26 1_555 1_555
H34 C26 1_555 1_555
C27 N7 1_555 1_555
H35 C27 1_555 1_555
H36 C27 1_555 1_555
C28 N8 1_555 1_555
H37 C28 1_555 1_555
H38 C28 1_555 1_555
C29 C30 1_555 1_555
C30 H39 1_555 1_555
H40 C30 1_555 1_555
H41 C30 1_555 1_555
Ru1A O1A 1_555 1_555
Ni2_2 N4A 1_555 1_555
O1A C1A 1_555 1_555
O2A Ru1A 1_555 1_555
N1A Ru1A 1_555 1_555
N2A Ru1A 1_555 1_555
N3A Ni1 1_555 1_555
N4A C18A 1_555 1_555
N4A_2 Ni2 1_555 1_555
N5A Ni1 1_555 1_555
H1A N5A 1_555 1_555
N6A Ni1 1_555 1_555
H2A N6A 1_555 1_555
N7A Ni2 1_555 1_555
H3A N7A 1_555 1_555
N8A Ni2 1_555 1_555
H4A N8A 1_555 1_555
C1A C2A 1_555 1_555
C2A H5A 1_555 1_555
C3A C2A 1_555 1_555
H6A C3A 1_555 1_555
C4A C3A 1_555 1_555
H7A C4A 1_555 1_555
C5A C4A 1_555 1_555
H8A C5A 1_555 1_555
C6A C1A 1_555 1_555
C7A N1A 1_555 1_555
H9A C7A 1_555 1_555
C8A N1A 1_555 1_555
H10A C8A 1_555 1_555
H11A C8A 1_555 1_555
C9A N2A 1_555 1_555
H12A C9A 1_555 1_555
H13A C9A 1_555 1_555
C10A N2A 1_555 1_555
H14A C10A 1_555 1_555
C11A C10A 1_555 1_555
C12A C11A 1_555 1_555
H15A C12A 1_555 1_555
C13A C12A 1_555 1_555
H16A C13A 1_555 1_555
C14A C13A 1_555 1_555
H17A C14A 1_555 1_555
C15A C14A 1_555 1_555
H18A C15A 1_555 1_555
C16A O2A 1_555 1_555
C17A Ru1A 1_555 1_555
C18A Ru1A 1_555 1_555
C19A N6A 1_555 1_555
H19A C19A 1_555 1_555
H20A C19A 1_555 1_555
C20A N5A 1_555 1_555
H21A C20A 1_555 1_555
H22A C20A 1_555 1_555
C21A N5A 1_555 1_555
H23A C21A 1_555 1_555
H24A C21A 1_555 1_555
C22A C23 1_555 1_555
H25A C22A 1_555 1_555
H26A C22A 1_555 1_555
C23A C22 1_555 1_555
H27A C23A 1_555 1_555
H28A C23A 1_555 1_555
C24A N8A 1_555 1_555
H29A C24A 1_555 1_555
H30A C24A 1_555 1_555
C25A C24A 1_555 1_555
H31A C25A 1_555 1_555
H32A C25A 1_555 1_555
C26A N7A 1_555 1_555
H33A C26A 1_555 1_555
H34A C26A 1_555 1_555
C27A C28 1_555 1_555
H35A C27A 1_555 1_555
H36A C27A 1_555 1_555
C28A C27 1_555 1_555
H37A C28A 1_555 1_555
H38A C28A 1_555 1_555
C5 C6 1_555 1_555
C6 C7 1_555 1_555
C8 C9 1_555 1_555
C11 C16 1_555 1_555
C15 C16 1_555 1_555
C19 C20 1_555 1_555
C25 C26 1_555 1_555
N3A C17A 1_555 1_555
N6A C23A 1_555 1_555
N7A C27A 1_555 1_555
N8A C28A 1_555 1_555
C5A C6A 1_555 1_555
C6A C7A 1_555 1_555
C8A C9A 1_555 1_555
C11A C16A 1_555 1_555
C15A C16A 1_555 1_555
C19A C20A 1_555 1_555
C21A C22A 1_555 1_555
C25A C26A 1_555 1_555

#END
