
#######################################################################
#
#                 Cambridge Crystallographic Data Centre
#                                CCDC 
#
#######################################################################
#
# If this CIF has been generated from an entry in the Cambridge 
# Structural Database, then it will include bibliographic, chemical, 
# crystal, experimental, refinement or atomic coordinate data resulting 
# from the CCDC's data processing and validation procedures.
#
#######################################################################

data_HERSUT
_symmetry_cell_setting           monoclinic
_symmetry_space_group_name_H-M   'P 21/n'
_symmetry_Int_Tables_number      14
_space_group_name_Hall           '-P 2yn'
loop_
_symmetry_equiv_pos_site_id
_symmetry_equiv_pos_as_xyz
1 x,y,z
2 1/2-x,1/2+y,1/2-z
3 -x,-y,-z
4 1/2+x,1/2-y,1/2+z
_cell_length_a                   9.918(3)
_cell_length_b                   9.280(3)
_cell_length_c                   29.539(8)
_cell_angle_alpha                90
_cell_angle_beta                 97.220(4)
_cell_angle_gamma                90
_cell_volume                     2697.18
loop_
_atom_site_label
_atom_site_type_symbol
_atom_site_fract_x
_atom_site_fract_y
_atom_site_fract_z
Zn1 Zn 0.59356(4) 0.29683(5) 0.645588(14)
O1 O 0.3796(4) 0.2462(4) 0.64916(12)
O2 O 0.5265(3) 0.0904(4) 0.67185(10)
O3 O 0.3158(4) 0.0496(4) 0.67764(13)
N1 N 0.5969(3) 0.5182(3) 0.62716(11)
N2 N 0.5773(3) 0.2563(3) 0.56955(10)
N3 N 0.8011(3) 0.2483(3) 0.64718(9)
N4 N 0.7164(3) 0.5458(4) 0.60966(10)
N5 N 0.6622(3) 0.3514(3) 0.55129(9)
N6 N 0.8579(3) 0.3167(3) 0.61293(9)
N7 N 0.2065(5) 0.6632(6) 0.71470(17)
N8 N 0.1745(4) -0.1028(5) 0.53921(16)
N9 N 0.8812(3) -0.1173(3) 0.78262(10)
N10 N 0.4111(3) 0.1362(3) 0.66690(9)
B1 B 0.7769(5) 0.4277(5) 0.58139(15)
H1 H 0.8380 0.4727 0.5619
C1 C 0.8838(5) 0.7455(5) 0.60531(17)
H2 H 0.9297 0.6738 0.5895
H3 H 0.9412 0.7748 0.6324
H4 H 0.8634 0.8274 0.5858
C2 C 0.7547(5) 0.6839(4) 0.61821(13)
C3 C 0.6573(5) 0.7476(5) 0.64118(14)
H5 H 0.6560 0.8425 0.6512
C4 C 0.5616(4) 0.6412(5) 0.64634(13)
C5 C 0.4386(5) 0.6502(5) 0.66931(13)
C6 C 0.3270(5) 0.5618(5) 0.65733(15)
H6 H 0.3274 0.4957 0.6337
C7 C 0.2155(5) 0.5724(6) 0.68062(17)
H7 H 0.1420 0.5121 0.6719
C8 C 0.3125(7) 0.7481(7) 0.7256(2)
H8 H 0.3077 0.8142 0.7490
C9 C 0.4300(6) 0.7463(5) 0.70483(16)
H9 H 0.5017 0.8082 0.7145
C10 C 0.7053(5) 0.4534(5) 0.47597(14)
H10 H 0.7768 0.5031 0.4947
H11 H 0.6449 0.5224 0.4600
H12 H 0.7438 0.3936 0.4544
C11 C 0.6279(4) 0.3613(4) 0.50553(12)
C12 C 0.5196(4) 0.2729(5) 0.49364(13)
H13 H 0.4738 0.2591 0.4645
C13 C 0.4912(4) 0.2073(4) 0.53375(13)
C14 C 0.3844(4) 0.1003(4) 0.53666(14)
C15 C 0.2787(5) 0.0890(6) 0.50157(17)
H14 H 0.2748 0.1498 0.4764
C16 C 0.1789(5) -0.0135(7) 0.5043(2)
H15 H 0.1099 -0.0204 0.4799
C17 C 0.2763(5) -0.0919(5) 0.57200(17)
H16 H 0.2765 -0.1526 0.5971
C18 C 0.3833(5) 0.0033(5) 0.57190(14)
H17 H 0.4545 0.0020 0.5956
C19 C 1.0691(4) 0.3149(6) 0.57509(16)
H18 H 1.0220 0.3888 0.5566
H19 H 1.0882 0.2355 0.5561
H20 H 1.1528 0.3529 0.5903
C20 C 0.9825(4) 0.2643(5) 0.60974(14)
C21 C 1.0103(4) 0.1611(5) 0.64250(14)
H21 H 1.0894 0.1069 0.6483
C22 C 0.8955(4) 0.1535(4) 0.66553(12)
C23 C 0.8830(4) 0.0572(4) 0.70461(12)
C24 C 0.9794(4) -0.0491(4) 0.71565(13)
H22 H 1.0473 -0.0641 0.6971
C25 C 0.9749(4) -0.1325(4) 0.75388(13)
H23 H 1.0407 -0.2035 0.7602
C26 C 0.7849(4) -0.0188(4) 0.77078(13)
H24 H 0.7154 -0.0097 0.7890
C27 C 0.7819(4) 0.0702(4) 0.73342(12)
H25 H 0.7133 0.1384 0.7274
Zn1A Zn 0.90644(4) -0.20317(5) 0.854412(14)
N9A N 0.6188(3) 0.3827(3) 0.71738(10)
loop_
_geom_bond_atom_site_label_1
_geom_bond_atom_site_label_2
_geom_bond_site_symmetry_1
_geom_bond_site_symmetry_2
Zn1 O1 1_555 1_555
O1 N10 1_555 1_555
O2 Zn1 1_555 1_555
O3 N10 1_555 1_555
N1 Zn1 1_555 1_555
N2 Zn1 1_555 1_555
N3 Zn1 1_555 1_555
N4 N1 1_555 1_555
N5 N2 1_555 1_555
N6 N3 1_555 1_555
N7 C7 1_555 1_555
N8 C16 1_555 1_555
N9 C25 1_555 1_555
N10 O2 1_555 1_555
B1 N4 1_555 1_555
H1 B1 1_555 1_555
C1 H2 1_555 1_555
H3 C1 1_555 1_555
H4 C1 1_555 1_555
C2 N4 1_555 1_555
C3 C2 1_555 1_555
H5 C3 1_555 1_555
C4 N1 1_555 1_555
C5 C4 1_555 1_555
C6 C5 1_555 1_555
H6 C6 1_555 1_555
C7 C6 1_555 1_555
H7 C7 1_555 1_555
C8 N7 1_555 1_555
H8 C8 1_555 1_555
C9 C5 1_555 1_555
H9 C9 1_555 1_555
C10 H10 1_555 1_555
H11 C10 1_555 1_555
H12 C10 1_555 1_555
C11 N5 1_555 1_555
C12 C11 1_555 1_555
H13 C12 1_555 1_555
C13 N2 1_555 1_555
C14 C13 1_555 1_555
C15 C14 1_555 1_555
H14 C15 1_555 1_555
C16 C15 1_555 1_555
H15 C16 1_555 1_555
C17 N8 1_555 1_555
H16 C17 1_555 1_555
C18 C14 1_555 1_555
H17 C18 1_555 1_555
C19 H18 1_555 1_555
H19 C19 1_555 1_555
H20 C19 1_555 1_555
C20 N6 1_555 1_555
C21 C20 1_555 1_555
H21 C21 1_555 1_555
C22 N3 1_555 1_555
C23 C22 1_555 1_555
C24 C23 1_555 1_555
H22 C24 1_555 1_555
C25 C24 1_555 1_555
H23 C25 1_555 1_555
C26 N9 1_555 1_555
H24 C26 1_555 1_555
C27 C23 1_555 1_555
H25 C27 1_555 1_555
Zn1A N9 1_555 1_555
N9A Zn1 1_555 1_555
N5 B1 1_555 1_555
N6 B1 1_555 1_555
C1 C2 1_555 1_555
C3 C4 1_555 1_555
C8 C9 1_555 1_555
C10 C11 1_555 1_555
C12 C13 1_555 1_555
C17 C18 1_555 1_555
C19 C20 1_555 1_555
C21 C22 1_555 1_555
C26 C27 1_555 1_555

#END
