
#######################################################################
#
#                 Cambridge Crystallographic Data Centre
#                                CCDC 
#
#######################################################################
#
# If this CIF has been generated from an entry in the Cambridge 
# Structural Database, then it will include bibliographic, chemical, 
# crystal, experimental, refinement or atomic coordinate data resulting 
# from the CCDC's data processing and validation procedures.
#
#######################################################################

data_HESHET
_symmetry_cell_setting           triclinic
_symmetry_space_group_name_H-M   'P -1'
_symmetry_Int_Tables_number      2
_space_group_name_Hall           '-P 1'
loop_
_symmetry_equiv_pos_site_id
_symmetry_equiv_pos_as_xyz
1 x,y,z
2 -x,-y,-z
_cell_length_a                   8.8787(9)
_cell_length_b                   12.2644(12)
_cell_length_c                   12.3537(13)
_cell_angle_alpha                109.280(12)
_cell_angle_beta                 104.493(12)
_cell_angle_gamma                102.541(12)
_cell_volume                     1161.35
loop_
_atom_site_label
_atom_site_type_symbol
_atom_site_fract_x
_atom_site_fract_y
_atom_site_fract_z
Pr1 Pr 0.65325(2) 0.88470(2) -0.008637(18)
Cl1 Cl 1.2261(3) 1.1875(2) 0.41765(13)
Cl2 Cl 1.0601(5) 1.3109(2) 0.2932(3)
Cl3 Cl 0.2443(2) 0.8431(2) 0.22203(15)
Cl4 Cl 0.05231(17) 0.63990(15) -0.01078(19)
Cl5 Cl 0.7033(3) 1.0247(2) 0.44764(13)
Cl6 Cl 0.7404(3) 1.2728(2) 0.47545(14)
O1 O 0.9466(3) 0.9928(3) 0.1121(3)
O2 O 1.1941(4) 1.1189(3) 0.1497(3)
O3 O 0.3483(4) 0.9178(3) 0.0033(3)
O4 O 0.4017(4) 0.7540(3) 0.0126(3)
O5 O 0.6606(4) 1.0051(3) 0.2011(2)
O6 O 0.5390(4) 1.1476(3) 0.2052(3)
N1 N 0.6008(5) 0.6517(3) -0.1383(3)
N2 N 0.7522(4) 0.7520(3) 0.1058(3)
C1 C 0.5354(7) 0.6057(5) -0.2601(4)
H1 H 0.5076 0.6572 -0.2968
C2 C 0.5071(8) 0.4857(5) -0.3344(5)
H2 H 0.4608 0.4569 -0.4190
C3 C 0.5488(8) 0.4100(5) -0.2804(5)
H3 H 0.5329 0.3290 -0.3282
C4 C 0.6142(6) 0.4546(5) -0.1550(5)
H4 H 0.6418 0.4040 -0.1171
C5 C 0.6386(5) 0.5759(4) -0.0855(4)
C6 C 0.7123(5) 0.6309(4) 0.0494(4)
C7 C 0.7468(6) 0.5604(5) 0.1149(5)
H5 H 0.7151 0.4758 0.0746
C8 C 0.8278(7) 0.6168(5) 0.2390(5)
H6 H 0.8533 0.5711 0.2835
C9 C 0.8706(6) 0.7413(6) 0.2968(5)
H7 H 0.9268 0.7813 0.3808
C10 C 0.8288(6) 0.8063(5) 0.2279(4)
H8 H 0.8546 0.8905 0.2674
C11 C 1.0681(5) 1.0868(4) 0.1733(3)
C12 C 1.0598(6) 1.1703(5) 0.2937(4)
H9 H 0.9572 1.1319 0.3025
C13 C 0.3170(5) 0.8217(4) 0.0212(4)
C14 C 0.1696(6) 0.7954(4) 0.0619(5)
H10 H 0.1001 0.8430 0.0414
C15 C 0.6077(5) 1.0864(4) 0.2511(3)
C16 C 0.6225(7) 1.1186(5) 0.3854(4)
H11 H 0.5114 1.1078 0.3888
Pr1A Pr 1.34675(2) 1.11530(2) 0.008637(18)
Pr1A_2 Pr 0.34675(2) 1.11530(2) 0.008637(18)
O2A O 0.8059(4) 0.8811(3) -0.1497(3)
O3A O 0.6517(4) 1.0822(3) -0.0033(3)
O6A O 0.4610(4) 0.8524(3) -0.2052(3)
loop_
_geom_bond_atom_site_label_1
_geom_bond_atom_site_label_2
_geom_bond_site_symmetry_1
_geom_bond_site_symmetry_2
Pr1 O1 1_555 1_555
Cl1 C12 1_555 1_555
Cl2 C12 1_555 1_555
Cl3 C14 1_555 1_555
Cl4 C14 1_555 1_555
Cl5 C16 1_555 1_555
Cl6 C16 1_555 1_555
O1 C11 1_555 1_555
O2 C11 1_555 1_555
O3 Pr1 1_555 1_555
O4 Pr1 1_555 1_555
O5 Pr1 1_555 1_555
O6 C15 1_555 1_555
N1 Pr1 1_555 1_555
N2 Pr1 1_555 1_555
C1 N1 1_555 1_555
H1 C1 1_555 1_555
C2 C1 1_555 1_555
H2 C2 1_555 1_555
C3 C2 1_555 1_555
H3 C3 1_555 1_555
C4 C3 1_555 1_555
H4 C4 1_555 1_555
C5 N1 1_555 1_555
C6 N2 1_555 1_555
C7 C6 1_555 1_555
H5 C7 1_555 1_555
C8 C7 1_555 1_555
H6 C8 1_555 1_555
C9 C8 1_555 1_555
H7 C9 1_555 1_555
C10 N2 1_555 1_555
H8 C10 1_555 1_555
C11 C12 1_555 1_555
C12 H9 1_555 1_555
C13 O3 1_555 1_555
C14 C13 1_555 1_555
H10 C14 1_555 1_555
C15 O5 1_555 1_555
C16 C15 1_555 1_555
H11 C16 1_555 1_555
Pr1A O2 1_555 1_555
Pr1A_2 O3 1_555 1_555
O2A Pr1 1_555 1_555
O3A Pr1 1_555 1_555
O6A Pr1 1_555 1_555
O4 C13 1_555 1_555
O6 Pr1A_2 1_555 1_555
C4 C5 1_555 1_555
C5 C6 1_555 1_555
C9 C10 1_555 1_555
Pr1A_2 O3A 1_555 1_555

#END
