
#######################################################################
#
#                 Cambridge Crystallographic Data Centre
#                                CCDC 
#
#######################################################################
#
# If this CIF has been generated from an entry in the Cambridge 
# Structural Database, then it will include bibliographic, chemical, 
# crystal, experimental, refinement or atomic coordinate data resulting 
# from the CCDC's data processing and validation procedures.
#
#######################################################################

data_HESLUN
_symmetry_cell_setting           monoclinic
_symmetry_space_group_name_H-M   'P 21/n'
_symmetry_Int_Tables_number      14
_space_group_name_Hall           '-P 2yn'
loop_
_symmetry_equiv_pos_site_id
_symmetry_equiv_pos_as_xyz
1 x,y,z
2 1/2-x,1/2+y,1/2-z
3 -x,-y,-z
4 1/2+x,1/2-y,1/2+z
_cell_length_a                   9.4659(7)
_cell_length_b                   6.6555(5)
_cell_length_c                   13.9767(10)
_cell_angle_alpha                90
_cell_angle_beta                 104.5970(10)
_cell_angle_gamma                90
_cell_volume                     852.115
loop_
_atom_site_label
_atom_site_type_symbol
_atom_site_fract_x
_atom_site_fract_y
_atom_site_fract_z
Ag1 Ag 0.63194(3) 0.20899(4) 0.33123(2)
C1 C 0.5138(4) -0.2897(5) 0.2533(2)
H1 H 0.5111 -0.3672 0.1933
S1 S 0.68952(9) -0.15855(12) 0.28994(6)
C2 C 0.7608(4) -0.2767(5) 0.4093(3)
H2 H 0.8171 -0.3951 0.4023
H3 H 0.8238 -0.1841 0.4542
C3 C 0.6323(4) -0.3346(5) 0.4492(2)
H4 H 0.5878 -0.2156 0.4692
H5 H 0.6637 -0.4218 0.5062
S2 S 0.50275(9) -0.46387(11) 0.35123(6)
C4 C 0.3864(4) -0.1408(6) 0.2308(3)
H6 H 0.3921 -0.0599 0.1742
H7 H 0.2955 -0.2154 0.2131
O1 O 0.3841(3) -0.0129(4) 0.3100(3)
H8 H 0.3474 -0.0718 0.3494
N1 N 0.8387(4) 0.1954(4) 0.5396(2)
O2 O 0.7037(3) 0.1576(5) 0.5224(2)
O3 O 0.8892(4) 0.2376(6) 0.4687(3)
O4 O 0.9156(4) 0.1854(5) 0.6244(2)
Ag1A Ag 0.86806(3) -0.29101(4) 0.16877(2)
Ag1_2 Ag 0.63194(3) -0.79101(4) 0.33123(2)
S1A S 0.81048(9) 0.34145(12) 0.21006(6)
S2_2 S 0.50275(9) 0.53613(11) 0.35123(6)
loop_
_geom_bond_atom_site_label_1
_geom_bond_atom_site_label_2
_geom_bond_site_symmetry_1
_geom_bond_site_symmetry_2
Ag1 S1 1_555 1_555
C1 H1 1_555 1_555
S1 C1 1_555 1_555
C2 S1 1_555 1_555
H2 C2 1_555 1_555
H3 C2 1_555 1_555
C3 C2 1_555 1_555
H4 C3 1_555 1_555
H5 C3 1_555 1_555
S2 C1 1_555 1_555
C4 C1 1_555 1_555
H6 C4 1_555 1_555
H7 C4 1_555 1_555
O1 C4 1_555 1_555
H8 O1 1_555 1_555
N1 O2 1_555 1_555
O2 Ag1 1_555 1_555
O3 N1 1_555 1_555
O4 N1 1_555 1_555
Ag1A S1 1_555 1_555
Ag1_2 S2 1_555 1_555
S1A Ag1 1_555 1_555
S2_2 Ag1 1_555 1_555
C3 S2 1_555 1_555

#END
