
#######################################################################
#
#                 Cambridge Crystallographic Data Centre
#                                CCDC 
#
#######################################################################
#
# If this CIF has been generated from an entry in the Cambridge 
# Structural Database, then it will include bibliographic, chemical, 
# crystal, experimental, refinement or atomic coordinate data resulting 
# from the CCDC's data processing and validation procedures.
#
#######################################################################

data_HETBUE
_symmetry_cell_setting           triclinic
_symmetry_space_group_name_H-M   'P -1'
_symmetry_Int_Tables_number      2
_space_group_name_Hall           '-P 1'
loop_
_symmetry_equiv_pos_site_id
_symmetry_equiv_pos_as_xyz
1 x,y,z
2 -x,-y,-z
_cell_length_a                   9.4045(15)
_cell_length_b                   9.9465(16)
_cell_length_c                   15.150(2)
_cell_angle_alpha                80.939(3)
_cell_angle_beta                 72.968(3)
_cell_angle_gamma                75.745(2)
_cell_volume                     1307.7
loop_
_atom_site_label
_atom_site_type_symbol
_atom_site_fract_x
_atom_site_fract_y
_atom_site_fract_z
Co1 Co 0.24107(5) -0.08774(5) 0.30115(3)
Zn1 Zn 0.30948(5) 0.12711(4) 0.10615(3)
O1 O 0.1142(3) 0.1054(2) 0.32351(17)
O2 O 0.2390(3) 0.2424(3) 0.21246(18)
O3 O 0.2507(3) 0.6998(3) 0.29835(19)
O4 O 0.0363(3) 0.8259(3) 0.3703(2)
O5 O 1.2121(3) -0.0368(3) 0.1381(2)
O6 O 1.0476(3) 0.1410(3) 0.0936(2)
O7 O 0.5271(3) 0.0398(3) 0.09825(17)
O8 O 0.4624(3) -0.0994(3) 0.22812(17)
N1 N 0.3403(3) -0.7107(3) 1.0087(2)
N2 N 0.3092(3) -0.1087(3) 0.4247(2)
C1 C 0.1432(4) 0.2215(4) 0.2883(2)
C2 C 0.0585(4) 0.3483(3) 0.3386(2)
C3 C -0.0844(4) 0.3524(4) 0.3994(3)
H1 H -0.1265 0.2738 0.4127
C4 C -0.1649(5) 0.4735(4) 0.4406(3)
H2 H -0.2619 0.4763 0.4803
C5 C -0.1020(5) 0.5900(4) 0.4230(3)
H3 H -0.1568 0.6711 0.4506
C6 C 0.0429(4) 0.5859(4) 0.3643(3)
C7 C 0.1217(4) 0.4653(4) 0.3217(3)
H4 H 0.2181 0.4628 0.2814
C8 C 0.1134(4) 0.7110(4) 0.3441(3)
C9 C 1.0827(4) 0.0161(5) 0.1186(3)
C10 C 0.9780(4) -0.0811(4) 0.1321(2)
C11 C 0.8279(4) -0.0280(4) 0.1300(2)
H5 H 0.7973 0.0659 0.1116
C12 C 0.7228(4) -0.1132(4) 0.1550(2)
C13 C 0.7706(4) -0.2554(4) 0.1781(3)
H6 H 0.7003 -0.3125 0.1977
C14 C 0.9229(4) -0.3109(4) 0.1717(3)
H7 H 0.9565 -0.4067 0.1816
C15 C 1.0258(4) -0.2244(4) 0.1506(3)
H8 H 1.1273 -0.2622 0.1488
C16 C 0.5577(4) -0.0532(4) 0.1613(2)
C17 C 0.2291(4) -0.5953(4) 1.0097(3)
H9 H 0.1331 -0.5973 1.0496
C18 C 0.2516(4) -0.4750(4) 0.9543(3)
H10 H 0.1720 -0.3974 0.9575
C19 C 0.3937(4) -0.4692(4) 0.8934(2)
C20 C 0.5055(4) -0.5906(4) 0.8907(2)
H11 H 0.6005 -0.5934 0.8487
C21 C 0.4772(4) -0.7059(4) 0.9493(2)
H12 H 0.5557 -0.7842 0.9481
C22 C 0.4266(5) -0.3397(4) 0.8333(3)
H13 H 0.5346 -0.3424 0.8200
H14 H 0.3727 -0.2601 0.8683
C23 C 0.3840(5) -0.3164(4) 0.7419(3)
H15 H 0.2743 -0.3000 0.7540
H16 H 0.4281 -0.3994 0.7090
C24 C 0.4411(5) -0.1917(4) 0.6814(3)
H17 H 0.4008 -0.1103 0.7160
H18 H 0.5512 -0.2104 0.6678
C25 C 0.3959(4) -0.1600(4) 0.5910(3)
C26 C 0.2754(5) -0.0545(4) 0.5787(3)
H19 H 0.2210 0.0019 0.6262
C27 C 0.2350(4) -0.0319(4) 0.4960(3)
H20 H 0.1527 0.0396 0.4897
C28 C 0.4272(5) -0.2108(4) 0.4361(3)
H21 H 0.4810 -0.2650 0.3873
C29 C 0.4723(5) -0.2389(4) 0.5171(3)
H22 H 0.5545 -0.3114 0.5221
Co1_2 Co 0.24107(5) 0.91226(5) 0.30115(3)
Zn1_2 Zn 1.30948(5) 0.12711(4) 0.10615(3)
Zn1_3 Zn 0.30948(5) -0.87289(4) 1.10615(3)
O3_2 O 0.2507(3) -0.3002(3) 0.29835(19)
O4_2 O 0.0363(3) -0.1741(3) 0.3703(2)
O5_2 O 0.2121(3) -0.0368(3) 0.1381(2)
O6_2 O 0.0476(3) 0.1410(3) 0.0936(2)
N1_2 N 0.3403(3) 0.2893(3) 0.0087(2)
loop_
_geom_bond_atom_site_label_1
_geom_bond_atom_site_label_2
_geom_bond_site_symmetry_1
_geom_bond_site_symmetry_2
Co1 O1 1_555 1_555
Zn1 O2 1_555 1_555
O1 C1 1_555 1_555
O2 C1 1_555 1_555
O3 C8 1_555 1_555
O4 C8 1_555 1_555
O5 C9 1_555 1_555
O6 C9 1_555 1_555
O7 Zn1 1_555 1_555
O8 Co1 1_555 1_555
N1 C17 1_555 1_555
N2 Co1 1_555 1_555
C1 C2 1_555 1_555
C2 C3 1_555 1_555
C3 H1 1_555 1_555
C4 C3 1_555 1_555
H2 C4 1_555 1_555
C5 C4 1_555 1_555
H3 C5 1_555 1_555
C6 C5 1_555 1_555
C7 C2 1_555 1_555
H4 C7 1_555 1_555
C8 C6 1_555 1_555
C9 C10 1_555 1_555
C10 C11 1_555 1_555
C11 H5 1_555 1_555
C12 C11 1_555 1_555
C13 C12 1_555 1_555
H6 C13 1_555 1_555
C14 C13 1_555 1_555
H7 C14 1_555 1_555
C15 C10 1_555 1_555
H8 C15 1_555 1_555
C16 O7 1_555 1_555
C17 H9 1_555 1_555
C18 C17 1_555 1_555
H10 C18 1_555 1_555
C19 C18 1_555 1_555
C20 C19 1_555 1_555
H11 C20 1_555 1_555
C21 N1 1_555 1_555
H12 C21 1_555 1_555
C22 C19 1_555 1_555
H13 C22 1_555 1_555
H14 C22 1_555 1_555
C23 C22 1_555 1_555
H15 C23 1_555 1_555
H16 C23 1_555 1_555
C24 C23 1_555 1_555
H17 C24 1_555 1_555
H18 C24 1_555 1_555
C25 C24 1_555 1_555
C26 C25 1_555 1_555
H19 C26 1_555 1_555
C27 N2 1_555 1_555
H20 C27 1_555 1_555
C28 N2 1_555 1_555
H21 C28 1_555 1_555
C29 C25 1_555 1_555
H22 C29 1_555 1_555
Co1_2 O3 1_555 1_555
Zn1_2 O5 1_555 1_555
Zn1_3 N1 1_555 1_555
O3_2 Co1 1_555 1_555
O4_2 Co1 1_555 1_555
O5_2 Zn1 1_555 1_555
O6_2 Zn1 1_555 1_555
N1_2 Zn1 1_555 1_555
O4 Co1_2 1_555 1_555
O6 Zn1_2 1_555 1_555
O8 C16 1_555 1_555
C6 C7 1_555 1_555
C12 C16 1_555 1_555
C14 C15 1_555 1_555
C20 C21 1_555 1_555
C26 C27 1_555 1_555
C28 C29 1_555 1_555

#END
