
#######################################################################
#
#                 Cambridge Crystallographic Data Centre
#                                CCDC 
#
#######################################################################
#
# If this CIF has been generated from an entry in the Cambridge 
# Structural Database, then it will include bibliographic, chemical, 
# crystal, experimental, refinement or atomic coordinate data resulting 
# from the CCDC's data processing and validation procedures.
#
#######################################################################

data_HETCIT
_symmetry_cell_setting           monoclinic
_symmetry_space_group_name_H-M   'C 2/c'
_symmetry_Int_Tables_number      15
_space_group_name_Hall           '-C 2yn'
loop_
_symmetry_equiv_pos_site_id
_symmetry_equiv_pos_as_xyz
1 x,y,z
2 1/2+x,1/2+y,z
3 -x,y,1/2-z
4 1/2-x,1/2+y,1/2-z
5 -x,-y,-z
6 1/2-x,1/2-y,-z
7 x,-y,1/2+z
8 1/2+x,1/2-y,1/2+z
_cell_length_a                   30.992(3)
_cell_length_b                   13.9203(15)
_cell_length_c                   31.222(5)
_cell_angle_alpha                90
_cell_angle_beta                 115.0800(10)
_cell_angle_gamma                90
_cell_volume                     12199.8
loop_
_atom_site_label
_atom_site_type_symbol
_atom_site_fract_x
_atom_site_fract_y
_atom_site_fract_z
Eu1 Eu 0.351047(12) 0.36515(3) 0.079260(13)
Eu2 Eu 0.147090(12) 0.37324(3) -0.003300(13)
Eu3 Eu 0.463710(12) -0.14082(3) 0.052570(13)
Eu4 Eu 0.448707(13) 0.62624(3) 0.138444(15)
Ag1 Ag 0.26404(2) 0.61519(5) -0.19744(2)
C1 C 0.4507(2) 0.5596(6) -0.0461(3)
H1 H 0.4617 0.6162 -0.0538
C2 C 0.4400(3) -0.0581(6) 0.2182(3)
H2 H 0.4492 -0.1122 0.2375
C3 C 0.1433(3) 0.7721(6) 0.1241(3)
H3 H 0.1299 0.8322 0.1235
O1 O 0.45272(17) 0.6347(4) 0.06578(19)
O2 O 0.43284(16) 0.4329(4) 0.11049(17)
O3 O 0.44046(18) -0.1674(4) 0.11416(19)
O4 O 0.21347(17) 0.3754(4) -0.01895(18)
O5 O 0.39278(17) 0.2300(4) -0.03468(17)
O6 O 0.37067(17) 0.6413(4) 0.08767(19)
C4 C 0.4290(3) -0.0661(6) 0.1705(3)
O7 O 0.4345(2) -0.2353(4) 0.1749(2)
C5 C 0.2488(3) 0.3094(6) 0.0993(3)
O8 O 0.38039(16) 0.3075(4) 0.02001(17)
C6 C 0.6139(3) -0.2402(6) 0.2367(3)
H4 H 0.5987 -0.2869 0.2466
C7 C 0.4426(2) 0.5559(5) -0.0063(3)
N1 N 0.6816(2) -0.1372(5) 0.2565(2)
C8 C 0.4539(2) 0.6425(6) 0.0255(3)
C9 C 0.3322(3) 0.5981(6) 0.0639(3)
O9 O 0.52945(17) -0.1167(4) 0.03111(18)
N2 N 0.2572(3) 0.5181(5) -0.1411(2)
O10 O 0.28821(17) 0.3204(4) 0.09782(18)
C10 C 0.3949(2) 0.3049(6) -0.0127(3)
C11 C 0.6156(3) -0.1280(6) 0.1807(3)
H5 H 0.6017 -0.0976 0.1515
N3 N 0.2490(3) 0.1740(6) 0.2236(3)
O11 O 0.32924(17) 0.5168(4) 0.04481(18)
C12 C 0.2072(3) 0.2429(7) 0.1469(3)
H6 H 0.1780 0.2610 0.1231
N4 N 0.3057(3) 0.4623(5) 0.2659(2)
C13 C 0.6585(3) -0.2061(6) 0.2670(3)
H7 H 0.6732 -0.2339 0.2968
C14 C 0.2905(3) 0.2345(7) 0.1798(3)
H8 H 0.3197 0.2462 0.1790
C15 C 0.2489(3) 0.2607(6) 0.1422(3)
C16 C 0.2094(4) 0.1975(8) 0.1875(4)
H9 H 0.1808 0.1828 0.1891
O12 O 0.50181(18) 0.4929(4) 0.15931(19)
O13 O 0.46518(18) 0.7190(4) 0.01209(19)
N5 N 0.1878(2) 0.7567(5) 0.1569(2)
C17 C 0.4251(2) 0.4750(5) 0.0051(3)
H10 H 0.4194 0.4740 0.0320
C18 C 0.4158(2) 0.3944(5) -0.0233(2)
C19 C 0.2517(3) 0.3751(6) -0.0219(3)
C20 C 0.4141(3) 0.0142(6) 0.1423(3)
H11 H 0.4064 0.0085 0.1102
C21 C 0.4250(2) 0.3967(5) -0.0634(3)
H12 H 0.4195 0.3425 -0.0824
C22 C 0.4425(3) 0.4802(6) -0.0748(3)
H13 H 0.4485 0.4824 -0.1015
C23 C 0.4765(3) 0.4224(6) 0.1362(3)
C24 C 0.4102(2) 0.1029(6) 0.1601(3)
C25 C 0.2538(2) 0.4265(5) -0.0636(3)
C26 C 0.2128(3) 0.4542(6) -0.1016(3)
H14 H 0.1832 0.4432 -0.1016
C27 C 0.3510(3) 0.4877(6) 0.2841(3)
H15 H 0.3670 0.4918 0.3169
C28 C 0.2967(3) 0.4480(6) -0.0641(3)
H16 H 0.3252 0.4322 -0.0387
C29 C 0.4348(3) -0.1614(6) 0.1524(3)
C30 C 0.2158(3) 0.4977(6) -0.1391(3)
H17 H 0.1877 0.5143 -0.1648
C31 C 0.2049(3) 0.6701(6) 0.1567(3)
H18 H 0.2354 0.6563 0.1795
C32 C 0.2830(3) 0.4621(7) 0.2189(3)
H19 H 0.2506 0.4483 0.2050
C33 C 0.2964(3) 0.4936(6) -0.1033(3)
H20 H 0.3257 0.5083 -0.1033
C34 C 0.6592(3) -0.0994(7) 0.2141(3)
H21 H 0.6742 -0.0492 0.2061
C35 C 0.4229(3) 0.1094(6) 0.2083(3)
H22 H 0.4217 0.1686 0.2215
C36 C 0.3053(3) 0.4815(6) 0.1899(3)
H23 H 0.2880 0.4796 0.1572
C37 C 0.4374(4) 0.0295(7) 0.2370(3)
H24 H 0.4454 0.0350 0.2692
C38 C 0.2888(4) 0.1910(8) 0.2185(3)
H25 H 0.3175 0.1720 0.2428
O14 O 0.4984(4) 0.6191(10) 0.2331(3)
C39 C 0.1161(3) 0.7053(6) 0.0913(3)
H26 H 0.0852 0.7196 0.0698
C40 C 0.1357(2) 0.6174(5) 0.0911(2)
C41 C 0.1097(3) 0.5443(6) 0.0524(3)
O15 O 0.06771(17) 0.5633(4) 0.02338(16)
O16 O 0.13214(17) 0.4715(4) 0.05214(17)
C42 C 0.1807(3) 0.5978(6) 0.1249(3)
H27 H 0.1945 0.5379 0.1264
C43 C 0.5926(3) -0.2032(6) 0.1915(3)
C44 C 0.5459(3) -0.2402(6) 0.1561(3)
O17 O 0.53125(17) -0.2045(4) 0.11541(19)
O18 O 0.52524(18) -0.3029(4) 0.16845(19)
O19 O 0.28966(18) 0.3345(4) 0.00644(17)
O20 O 0.20940(18) 0.3373(4) 0.06935(18)
C45 C 0.3764(3) 0.5090(6) 0.2578(3)
H28 H 0.4084 0.5264 0.2726
C46 C 0.3532(3) 0.5036(5) 0.2093(3)
C47 C 0.3777(3) 0.5138(6) 0.1779(3)
O21 O 0.35798(19) 0.4708(4) 0.13862(19)
O22 O 0.4144(2) 0.5644(4) 0.18980(18)
C48 C 0.5009(2) 0.3276(5) 0.1399(3)
C49 C 0.4792(2) 0.2556(5) 0.1086(3)
H29 H 0.4495 0.2662 0.0838
C50 C 0.5456(3) 0.3110(6) 0.1760(3)
H30 H 0.5606 0.3596 0.1977
C51 C 0.5007(2) 0.1669(5) 0.1132(2)
C52 C 0.5680(3) 0.2243(6) 0.1805(3)
H31 H 0.5982 0.2148 0.2047
C53 C 0.4751(3) 0.0853(6) 0.0806(3)
C54 C 0.5461(3) 0.1517(6) 0.1493(3)
H32 H 0.5612 0.0927 0.1522
O23 O 0.49437(19) 0.0056(4) 0.08709(19)
O24 O 0.43448(17) 0.1026(4) 0.04850(17)
C55 C 0.3918(3) 0.1903(6) 0.1305(3)
O25 O 0.39414(18) 0.2700(4) 0.15003(18)
O26 O 0.37246(18) 0.1834(4) 0.08561(18)
C56 C 0.2872(2) 0.6490(5) 0.0568(3)
C57 C 0.2429(2) 0.6103(6) 0.0287(2)
H33 H 0.2409 0.5506 0.0147
C58 C 0.2896(3) 0.7367(6) 0.0779(3)
H34 H 0.3191 0.7627 0.0974
C59 C 0.2021(2) 0.6594(5) 0.0216(3)
C60 C 0.1539(3) 0.6172(6) -0.0098(2)
C61 C 0.2047(3) 0.7472(6) 0.0421(3)
H35 H 0.1769 0.7804 0.0367
O27 O 0.15170(18) 0.5319(4) -0.02455(18)
O28 O 0.11825(17) 0.6694(4) -0.01702(18)
C62 C 0.2480(3) 0.7868(7) 0.0704(3)
H36 H 0.2496 0.8465 0.0845
Eu1E Eu 0.148953(12) 0.13485(3) -0.079260(13)
Eu1F Eu 0.351047(12) 0.63485(3) -0.420740(13)
Eu2E Eu 0.352910(12) 0.12676(3) 0.003300(13)
Eu3_2 Eu 0.463710(12) 0.85918(3) 0.052570(13)
Eu3E Eu 0.036290(12) 0.64082(3) -0.052570(13)
Eu3E_2 Eu 0.036290(12) -0.35918(3) -0.052570(13)
Eu4_2 Eu 0.448707(13) -0.37376(3) 0.138444(15)
Eu4B Eu 0.551293(13) 0.62624(3) 0.361556(15)
Eu4E Eu 0.051293(13) -0.12624(3) -0.138444(15)
Eu4E_2 Eu 0.051293(13) 0.87376(3) -0.138444(15)
Eu4F Eu 0.448707(13) 0.37376(3) -0.361556(15)
Ag1F Ag 0.26404(2) 0.38481(5) 0.30256(2)
Ag1G Ag 0.76404(2) -0.11519(5) 0.30256(2)
Ag1E Ag 0.23596(2) 0.88481(5) 0.19744(2)
Ag1_2 Ag 0.26404(2) -0.38481(5) -0.19744(2)
Ag1G_2 Ag 0.76404(2) 0.88481(5) 0.30256(2)
Ag1E_2 Ag 0.23596(2) -0.11519(5) 0.19744(2)
C1E C 0.0493(2) -0.0596(6) 0.0461(3)
H1E H 0.0383 -0.1162 0.0538
C2E C 0.0600(3) 0.5581(6) -0.2182(3)
H2E H 0.0508 0.6122 -0.2375
C3E C 0.3567(3) -0.2721(6) -0.1241(3)
H3E H 0.3701 -0.3322 -0.1235
O1E O 0.04728(17) -0.1347(4) -0.06578(19)
O1_2 O 0.45272(17) -0.3653(4) 0.06578(19)
O2E O 0.06716(16) 0.0671(4) -0.11049(17)
O2_2 O 0.43284(16) -0.5671(4) 0.11049(17)
O3E O 0.05954(18) 0.6674(4) -0.11416(19)
O3_2 O 0.44046(18) 0.8326(4) 0.11416(19)
O4E O 0.28653(17) 0.1246(4) 0.01895(18)
O5E O 0.10722(17) 0.2700(4) 0.03468(17)
O6E O 0.12933(17) -0.1413(4) -0.08767(19)
O6_2 O 0.37067(17) -0.3587(4) 0.08767(19)
C4E C 0.0710(3) 0.5661(6) -0.1705(3)
O7E O 0.0655(2) 0.7353(4) -0.1749(2)
O7_2 O 0.4345(2) 0.7647(4) 0.1749(2)
C5E C 0.2512(3) 0.1906(6) -0.0993(3)
O8E O 0.11961(16) 0.1925(4) -0.02001(17)
C6_2 C 0.6139(3) 0.7598(6) 0.2367(3)
H4_2 H 0.5987 0.7131 0.2466
C7E C 0.0574(2) -0.0559(5) 0.0063(3)
N1_2 N 0.6816(2) 0.8628(5) 0.2565(2)
N1G N 0.1816(2) 0.6372(5) -0.2435(2)
N1A N 0.1816(2) 0.3628(5) 0.2565(2)
C8E C 0.0461(2) -0.1425(6) -0.0255(3)
C9E C 0.1678(3) -0.0981(6) -0.0639(3)
O9_2 O 0.52945(17) 0.8833(4) 0.03111(18)
N2E N 0.2428(3) -0.0181(5) 0.1411(2)
N2F N 0.2572(3) 0.4819(5) 0.3589(2)
O10E O 0.21179(17) 0.1796(4) -0.09782(18)
C10E C 0.1051(2) 0.1951(6) 0.0127(3)
C11_2 C 0.6156(3) 0.8720(6) 0.1807(3)
H5_2 H 0.6017 0.9024 0.1515
N3E N 0.2510(3) 0.3260(6) -0.2236(3)
O11E O 0.17076(17) -0.0168(4) -0.04481(18)
C12E C 0.2928(3) 0.2571(7) -0.1469(3)
H6E H 0.3220 0.2390 -0.1231
N4F N 0.3057(3) 0.5377(5) -0.2341(2)
C13_2 C 0.6585(3) 0.7939(6) 0.2670(3)
H7_2 H 0.6732 0.7661 0.2968
C14E C 0.2095(3) 0.2655(7) -0.1798(3)
H8E H 0.1803 0.2538 -0.1790
C15E C 0.2511(3) 0.2393(6) -0.1422(3)
C16E C 0.2906(4) 0.3025(8) -0.1875(4)
H9E H 0.3192 0.3172 -0.1891
O12E O -0.00181(18) 0.0071(4) -0.15931(19)
O12_2 O 0.50181(18) -0.5071(4) 0.15931(19)
O13E O 0.03482(18) -0.2190(4) -0.01209(19)
O13_2 O 0.46518(18) -0.2810(4) 0.01209(19)
N5E N 0.3122(2) -0.2567(5) -0.1569(2)
N5E_2 N 0.3122(2) 0.7433(5) -0.1569(2)
N5C N 0.3122(2) 0.2567(5) 0.3431(2)
C17E C 0.0749(2) 0.0250(5) -0.0051(3)
H10E H 0.0806 0.0260 -0.0320
C18E C 0.0842(2) 0.1056(5) 0.0233(2)
C19E C 0.2483(3) 0.1249(6) 0.0219(3)
C20E C 0.0859(3) 0.4858(6) -0.1423(3)
H11E H 0.0936 0.4915 -0.1102
C21E C 0.0750(2) 0.1033(5) 0.0634(3)
H12E H 0.0805 0.1575 0.0824
C22E C 0.0575(3) 0.0198(6) 0.0748(3)
H13E H 0.0515 0.0176 0.1015
C23E C 0.0235(3) 0.0776(6) -0.1362(3)
C24E C 0.0898(2) 0.3971(6) -0.1601(3)
C25E C 0.2462(2) 0.0735(5) 0.0636(3)
C26E C 0.2872(3) 0.0458(6) 0.1016(3)
H14E H 0.3168 0.0568 0.1016
C27F C 0.3510(3) 0.5123(6) -0.2159(3)
H15F H 0.3670 0.5082 -0.1831
C28E C 0.2033(3) 0.0520(6) 0.0641(3)
H16E H 0.1748 0.0678 0.0387
C29E C 0.0652(3) 0.6614(6) -0.1524(3)
C30E C 0.2842(3) 0.0023(6) 0.1391(3)
H17E H 0.3123 -0.0143 0.1648
C31E C 0.2951(3) -0.1701(6) -0.1567(3)
H18E H 0.2646 -0.1563 -0.1795
C32F C 0.2830(3) 0.5379(7) -0.2811(3)
H19F H 0.2506 0.5517 -0.2950
C33E C 0.2036(3) 0.0064(6) 0.1033(3)
H20E H 0.1743 -0.0083 0.1033
C34_2 C 0.6592(3) 0.9006(7) 0.2141(3)
H21_2 H 0.6742 0.9508 0.2061
C35E C 0.0771(3) 0.3906(6) -0.2083(3)
H22E H 0.0783 0.3314 -0.2215
C36F C 0.3053(3) 0.5185(6) -0.3101(3)
H23F H 0.2880 0.5204 -0.3428
C37E C 0.0626(4) 0.4705(7) -0.2370(3)
H24E H 0.0546 0.4650 -0.2692
C38E C 0.2112(4) 0.3090(8) -0.2185(3)
H25E H 0.1825 0.3280 -0.2428
O14B O 0.5016(4) 0.6191(10) 0.2669(3)
O14_2 O 0.4984(4) -0.3809(10) 0.2331(3)
C39E C 0.3839(3) -0.2053(6) -0.0913(3)
H26E H 0.4148 -0.2196 -0.0698
C40E C 0.3643(2) -0.1174(5) -0.0911(2)
C41E C 0.3903(3) -0.0443(6) -0.0524(3)
O15E O 0.43229(17) -0.0633(4) -0.02338(16)
O15E_2 O 0.43229(17) 0.9367(4) -0.02338(16)
O16E O 0.36786(17) 0.0285(4) -0.05214(17)
C42E C 0.3193(3) -0.0978(6) -0.1249(3)
H27E H 0.3055 -0.0379 -0.1264
C43_2 C 0.5926(3) 0.7968(6) 0.1915(3)
C44_2 C 0.5459(3) 0.7598(6) 0.1561(3)
O17_2 O 0.53125(17) 0.7955(4) 0.11541(19)
O18_2 O 0.52524(18) 0.6971(4) 0.16845(19)
O19E O 0.21034(18) 0.1655(4) -0.00644(17)
O20E O 0.29060(18) 0.1627(4) -0.06935(18)
C45F C 0.3764(3) 0.4910(6) -0.2422(3)
H28F H 0.4084 0.4736 -0.2274
C46F C 0.3532(3) 0.4964(5) -0.2907(3)
C47F C 0.3777(3) 0.4862(6) -0.3221(3)
O21F O 0.35798(19) 0.5292(4) -0.36138(19)
O21E O 0.14202(19) 0.0292(4) -0.13862(19)
O22F O 0.4144(2) 0.4356(4) -0.31020(18)
O22_2 O 0.4144(2) -0.4356(4) 0.18980(18)
C48E C -0.0009(2) 0.1724(5) -0.1399(3)
C49E C 0.0208(2) 0.2444(5) -0.1086(3)
H29E H 0.0505 0.2338 -0.0838
C50E C -0.0456(3) 0.1890(6) -0.1760(3)
H30E H -0.0606 0.1404 -0.1977
C51E C -0.0007(2) 0.3331(5) -0.1132(2)
C52E C -0.0680(3) 0.2757(6) -0.1805(3)
H31E H -0.0982 0.2852 -0.2047
C53E C 0.0249(3) 0.4147(6) -0.0806(3)
C54E C -0.0461(3) 0.3483(6) -0.1493(3)
H32E H -0.0612 0.4073 -0.1522
O23E O 0.00563(19) 0.4944(4) -0.08709(19)
O23_2 O 0.49437(19) 1.0056(4) 0.08709(19)
O24E O 0.06552(17) 0.3974(4) -0.04850(17)
C55E C 0.1082(3) 0.3097(6) -0.1305(3)
O25E O 0.10586(18) 0.2300(4) -0.15003(18)
O26E O 0.12754(18) 0.3166(4) -0.08561(18)
C56E C 0.2128(2) -0.1490(5) -0.0568(3)
C57E C 0.2571(2) -0.1103(6) -0.0287(2)
H33E H 0.2591 -0.0506 -0.0147
C58E C 0.2104(3) -0.2367(6) -0.0779(3)
H34E H 0.1809 -0.2627 -0.0974
C59E C 0.2979(2) -0.1594(5) -0.0216(3)
C60E C 0.3461(3) -0.1172(6) 0.0098(2)
C61E C 0.2953(3) -0.2472(6) -0.0421(3)
H35E H 0.3231 -0.2804 -0.0367
O27E O 0.34830(18) -0.0319(4) 0.02455(18)
O28E O 0.38175(17) -0.1694(4) 0.01702(18)
O28E_2 O 0.38175(17) 0.8306(4) 0.01702(18)
C62E C 0.2520(3) -0.2868(7) -0.0704(3)
H36E H 0.2504 -0.3465 -0.0845
loop_
_geom_bond_atom_site_label_1
_geom_bond_atom_site_label_2
_geom_bond_site_symmetry_1
_geom_bond_site_symmetry_2
Eu1 O2 1_555 1_555
Eu2 O4 1_555 1_555
Eu3 O3 1_555 1_555
Eu4 O1 1_555 1_555
Ag1 N2 1_555 1_555
C1 H1 1_555 1_555
C2 H2 1_555 1_555
C3 H3 1_555 1_555
O1 C8 1_555 1_555
O2 Eu4 1_555 1_555
O3 C29 1_555 1_555
O4 C19 1_555 1_555
O5 C10 1_555 1_555
O6 Eu4 1_555 1_555
C4 C2 1_555 1_555
O7 C29 1_555 1_555
C5 O10 1_555 1_555
O8 Eu1 1_555 1_555
C6 H4 1_555 1_555
C7 C1 1_555 1_555
N1 C13 1_555 1_555
C8 C7 1_555 1_555
C9 O6 1_555 1_555
O9 Eu3 1_555 1_555
N2 C30 1_555 1_555
O10 Eu1 1_555 1_555
C10 O8 1_555 1_555
C11 H5 1_555 1_555
N3 C16 1_555 1_555
O11 Eu1 1_555 1_555
C12 H6 1_555 1_555
N4 C27 1_555 1_555
C13 C6 1_555 1_555
H7 C13 1_555 1_555
C14 H8 1_555 1_555
C15 C5 1_555 1_555
C16 C12 1_555 1_555
H9 C16 1_555 1_555
O12 Eu4 1_555 1_555
O13 C8 1_555 1_555
N5 C3 1_555 1_555
C17 C7 1_555 1_555
H10 C17 1_555 1_555
C18 C10 1_555 1_555
C19 C25 1_555 1_555
C20 C4 1_555 1_555
H11 C20 1_555 1_555
C21 C18 1_555 1_555
H12 C21 1_555 1_555
C22 C1 1_555 1_555
H13 C22 1_555 1_555
C23 O2 1_555 1_555
C24 C20 1_555 1_555
C25 C26 1_555 1_555
C26 H14 1_555 1_555
C27 H15 1_555 1_555
C28 C25 1_555 1_555
H16 C28 1_555 1_555
C29 C4 1_555 1_555
C30 C26 1_555 1_555
H17 C30 1_555 1_555
C31 N5 1_555 1_555
H18 C31 1_555 1_555
C32 N4 1_555 1_555
H19 C32 1_555 1_555
C33 N2 1_555 1_555
H20 C33 1_555 1_555
C34 N1 1_555 1_555
H21 C34 1_555 1_555
C35 C24 1_555 1_555
H22 C35 1_555 1_555
C36 C32 1_555 1_555
H23 C36 1_555 1_555
C37 C2 1_555 1_555
H24 C37 1_555 1_555
C38 N3 1_555 1_555
H25 C38 1_555 1_555
O14 Eu4 1_555 1_555
C39 C3 1_555 1_555
H26 C39 1_555 1_555
C40 C39 1_555 1_555
C41 C40 1_555 1_555
O15 C41 1_555 1_555
O16 Eu2 1_555 1_555
C42 C31 1_555 1_555
H27 C42 1_555 1_555
C43 C6 1_555 1_555
C44 C43 1_555 1_555
O17 Eu3 1_555 1_555
O18 C44 1_555 1_555
O19 Eu1 1_555 1_555
O20 Eu2 1_555 1_555
C45 C27 1_555 1_555
H28 C45 1_555 1_555
C46 C36 1_555 1_555
C47 C46 1_555 1_555
O21 Eu1 1_555 1_555
O22 Eu4 1_555 1_555
C48 C23 1_555 1_555
C49 C48 1_555 1_555
H29 C49 1_555 1_555
C50 C48 1_555 1_555
H30 C50 1_555 1_555
C51 C49 1_555 1_555
C52 C50 1_555 1_555
H31 C52 1_555 1_555
C53 C51 1_555 1_555
C54 C51 1_555 1_555
H32 C54 1_555 1_555
O23 Eu3 1_555 1_555
O24 C53 1_555 1_555
C55 C24 1_555 1_555
O25 Eu1 1_555 1_555
O26 Eu1 1_555 1_555
C56 C9 1_555 1_555
C57 C56 1_555 1_555
H33 C57 1_555 1_555
C58 C56 1_555 1_555
H34 C58 1_555 1_555
C59 C57 1_555 1_555
C60 C59 1_555 1_555
C61 C59 1_555 1_555
H35 C61 1_555 1_555
O27 Eu2 1_555 1_555
O28 C60 1_555 1_555
C62 C58 1_555 1_555
H36 C62 1_555 1_555
Eu1E O2E 1_555 1_555
Eu1F O21F 1_555 1_555
Eu2E O5 1_555 1_555
Eu3_2 O13 1_555 1_555
Eu3E O15 1_555 1_555
Eu3E_2 O13E 1_555 1_555
Eu4_2 O7 1_555 1_555
Eu4B O14B 1_555 1_555
Eu4E O1E 1_555 1_555
Eu4E_2 O7E 1_555 1_555
Eu4F O22F 1_555 1_555
Ag1F N4 1_555 1_555
Ag1G N1 1_555 1_555
Ag1E N5 1_555 1_555
Ag1_2 N5E 1_555 1_555
Ag1G_2 N1_2 1_555 1_555
Ag1E_2 N2E 1_555 1_555
C1E H1E 1_555 1_555
C2E H2E 1_555 1_555
C3E H3E 1_555 1_555
O1E C8E 1_555 1_555
O1_2 Eu4_2 1_555 1_555
O2E Eu4E 1_555 1_555
O2_2 Eu4_2 1_555 1_555
O3E Eu3E 1_555 1_555
O3_2 Eu3_2 1_555 1_555
O4E Eu2E 1_555 1_555
O5E Eu2 1_555 1_555
O6E Eu4E 1_555 1_555
O6_2 Eu4_2 1_555 1_555
C4E C2E 1_555 1_555
O7E C29E 1_555 1_555
O7_2 Eu4 1_555 1_555
C5E O10E 1_555 1_555
O8E Eu2 1_555 1_555
C6_2 H4_2 1_555 1_555
C7E C1E 1_555 1_555
N1_2 C13_2 1_555 1_555
N1G Ag1 1_555 1_555
N1A Ag1F 1_555 1_555
C8E C7E 1_555 1_555
C9E O6E 1_555 1_555
O9_2 Eu3_2 1_555 1_555
N2E C30E 1_555 1_555
N2F Ag1F 1_555 1_555
O10E Eu1E 1_555 1_555
C10E O5E 1_555 1_555
C11_2 H5_2 1_555 1_555
N3E C16E 1_555 1_555
O11E Eu1E 1_555 1_555
C12E H6E 1_555 1_555
N4F Ag1 1_555 1_555
C13_2 C6_2 1_555 1_555
H7_2 C13_2 1_555 1_555
C14E H8E 1_555 1_555
C15E C5E 1_555 1_555
C16E C12E 1_555 1_555
H9E C16E 1_555 1_555
O12E Eu4E 1_555 1_555
O12_2 Eu4_2 1_555 1_555
O13E C8E 1_555 1_555
O13_2 Eu3 1_555 1_555
N5E C3E 1_555 1_555
N5E_2 Ag1 1_555 1_555
N5C Ag1F 1_555 1_555
C17E C7E 1_555 1_555
H10E C17E 1_555 1_555
C18E C10E 1_555 1_555
C19E O4E 1_555 1_555
C20E C4E 1_555 1_555
H11E C20E 1_555 1_555
C21E C18E 1_555 1_555
H12E C21E 1_555 1_555
C22E C1E 1_555 1_555
H13E C22E 1_555 1_555
C23E O2E 1_555 1_555
C24E C20E 1_555 1_555
C25E C19E 1_555 1_555
C26E C25E 1_555 1_555
H14E C26E 1_555 1_555
C27F N4F 1_555 1_555
H15F C27F 1_555 1_555
C28E C25E 1_555 1_555
H16E C28E 1_555 1_555
C29E O3E 1_555 1_555
C30E C26E 1_555 1_555
H17E C30E 1_555 1_555
C31E N5E 1_555 1_555
H18E C31E 1_555 1_555
C32F N4F 1_555 1_555
H19F C32F 1_555 1_555
C33E N2E 1_555 1_555
H20E C33E 1_555 1_555
C34_2 N1_2 1_555 1_555
H21_2 C34_2 1_555 1_555
C35E C24E 1_555 1_555
H22E C35E 1_555 1_555
C36F C32F 1_555 1_555
H23F C36F 1_555 1_555
C37E C2E 1_555 1_555
H24E C37E 1_555 1_555
C38E N3E 1_555 1_555
H25E C38E 1_555 1_555
O14B O14 1_555 1_555
O14_2 Eu4_2 1_555 1_555
C39E C3E 1_555 1_555
H26E C39E 1_555 1_555
C40E C39E 1_555 1_555
C41E C40E 1_555 1_555
O15E Eu3 1_555 1_555
O15E_2 Eu3_2 1_555 1_555
O16E Eu2E 1_555 1_555
C42E C31E 1_555 1_555
H27E C42E 1_555 1_555
C43_2 C6_2 1_555 1_555
C44_2 C43_2 1_555 1_555
O17_2 Eu3_2 1_555 1_555
O18_2 Eu4 1_555 1_555
O19E Eu1E 1_555 1_555
O20E Eu2E 1_555 1_555
C45F C27F 1_555 1_555
H28F C45F 1_555 1_555
C46F C36F 1_555 1_555
C47F C46F 1_555 1_555
O21F C47F 1_555 1_555
O21E Eu1E 1_555 1_555
O22F C47F 1_555 1_555
O22_2 Eu4_2 1_555 1_555
C48E C23E 1_555 1_555
C49E C48E 1_555 1_555
H29E C49E 1_555 1_555
C50E C48E 1_555 1_555
H30E C50E 1_555 1_555
C51E C49E 1_555 1_555
C52E C50E 1_555 1_555
H31E C52E 1_555 1_555
C53E C51E 1_555 1_555
C54E C51E 1_555 1_555
H32E C54E 1_555 1_555
O23E Eu3E 1_555 1_555
O23_2 Eu3_2 1_555 1_555
O24E Eu2 1_555 1_555
C55E C24E 1_555 1_555
O25E Eu1E 1_555 1_555
O26E Eu2 1_555 1_555
C56E C9E 1_555 1_555
C57E C56E 1_555 1_555
H33E C57E 1_555 1_555
C58E C56E 1_555 1_555
H34E C58E 1_555 1_555
C59E C57E 1_555 1_555
C60E C59E 1_555 1_555
C61E C59E 1_555 1_555
H35E C61E 1_555 1_555
O27E Eu2E 1_555 1_555
O28E Eu3 1_555 1_555
O28E_2 Eu3_2 1_555 1_555
C62E C58E 1_555 1_555
H36E C62E 1_555 1_555
C5 O20 1_555 1_555
O8 Eu2E 1_555 1_555
C9 O11 1_555 1_555
C11 C34 1_555 1_555
C11 C43 1_555 1_555
C12 C15 1_555 1_555
C14 C15 1_555 1_555
C14 C38 1_555 1_555
O12 C23 1_555 1_555
C17 C18 1_555 1_555
C19 O19 1_555 1_555
C21 C22 1_555 1_555
C28 C33 1_555 1_555
C35 C37 1_555 1_555
C40 C42 1_555 1_555
C41 O16 1_555 1_555
C44 O17 1_555 1_555
O18 Eu4_2 1_555 1_555
C45 C46 1_555 1_555
C47 O21 1_555 1_555
C47 O22 1_555 1_555
C52 C54 1_555 1_555
C53 O23 1_555 1_555
O24 Eu2E 1_555 1_555
C55 O25 1_555 1_555
C55 O26 1_555 1_555
O26 Eu2E 1_555 1_555
C60 O27 1_555 1_555
C61 C62 1_555 1_555
O28 Eu3E 1_555 1_555
Eu1E O8E 1_555 1_555
Eu1E O26E 1_555 1_555
C4E C29E 1_555 1_555
C5E O20E 1_555 1_555
O8E C10E 1_555 1_555
C9E O11E 1_555 1_555
C11_2 C34_2 1_555 1_555
C11_2 C43_2 1_555 1_555
C12E C15E 1_555 1_555
C14E C15E 1_555 1_555
C14E C38E 1_555 1_555
O12E C23E 1_555 1_555
C17E C18E 1_555 1_555
C19E O19E 1_555 1_555
C21E C22E 1_555 1_555
C28E C33E 1_555 1_555
C35E C37E 1_555 1_555
C40E C42E 1_555 1_555
C41E O15E 1_555 1_555
C41E O16E 1_555 1_555
C44_2 O17_2 1_555 1_555
C44_2 O18_2 1_555 1_555
C45F C46F 1_555 1_555
C52E C54E 1_555 1_555
C53E O23E 1_555 1_555
C53E O24E 1_555 1_555
C55E O25E 1_555 1_555
C55E O26E 1_555 1_555
C60E O27E 1_555 1_555
C60E O28E 1_555 1_555
C61E C62E 1_555 1_555

#END
