
#######################################################################
#
#                 Cambridge Crystallographic Data Centre
#                                CCDC 
#
#######################################################################
#
# If this CIF has been generated from an entry in the Cambridge 
# Structural Database, then it will include bibliographic, chemical, 
# crystal, experimental, refinement or atomic coordinate data resulting 
# from the CCDC's data processing and validation procedures.
#
#######################################################################

data_HETFES
_symmetry_cell_setting           monoclinic
_symmetry_space_group_name_H-M   'P 21/c'
_symmetry_Int_Tables_number      14
_space_group_name_Hall           '-P 2ybc'
loop_
_symmetry_equiv_pos_site_id
_symmetry_equiv_pos_as_xyz
1 x,y,z
2 -x,1/2+y,1/2-z
3 -x,-y,-z
4 x,1/2-y,1/2+z
_cell_length_a                   6.2411(17)
_cell_length_b                   45.375(13)
_cell_length_c                   6.7829(19)
_cell_angle_alpha                90
_cell_angle_beta                 109.536(4)
_cell_angle_gamma                90
_cell_volume                     1810.27
loop_
_atom_site_label
_atom_site_type_symbol
_atom_site_fract_x
_atom_site_fract_y
_atom_site_fract_z
Na1 Na 0.4943(3) 0.22656(3) 0.3805(2)
O1 O -0.1913(5) 0.11027(6) 1.0997(5)
O2 O 0.2177(7) 0.06175(7) 0.8647(7)
O3 O -0.3395(7) 0.02699(8) 1.4580(7)
O4 O 0.5749(5) 0.17289(6) 0.5005(5)
O5 O 0.4765(5) 0.22492(6) 0.7307(4)
O6 O 0.7954(5) 0.19517(6) 0.9294(5)
O7 O 0.4941(6) 0.20675(7) 1.0668(4)
O8 O 0.9016(6) 0.22524(9) 0.5887(6)
O9 O 0.1061(6) 0.22038(8) 0.2838(6)
S1 S 0.55332(18) 0.20154(2) 0.88167(16)
C1 C -0.0715(8) 0.12286(10) 0.9858(8)
C2 C 0.0696(7) 0.10864(9) 0.9074(7)
C3 C 0.0992(8) 0.07669(10) 0.9409(8)
C4 C -0.0180(8) 0.06401(9) 1.0727(7)
C5 C 0.0037(10) 0.03395(11) 1.1287(10)
C6 C -0.1101(11) 0.02249(12) 1.2518(11)
C7 C -0.2446(9) 0.04059(11) 1.3284(9)
C8 C -0.2715(9) 0.06990(11) 1.2763(8)
C9 C -0.1574(8) 0.08092(9) 1.1490(7)
C10 C 0.1984(7) 0.12554(9) 0.7970(7)
C11 C 0.2856(7) 0.15321(9) 0.8664(7)
C12 C 0.4130(7) 0.16853(8) 0.7680(6)
C13 C 0.4497(7) 0.15686(9) 0.5914(6)
C14 C 0.3574(8) 0.12967(10) 0.5183(7)
C15 C 0.2350(8) 0.11391(10) 0.6214(8)
C16 C -0.4630(13) 0.04445(16) 1.5564(12)
C17 C 0.7089(10) 0.15689(13) 0.4038(9)
H1 H -0.116(10) 0.1452(13) 0.953(9)
H2 H 0.108(10) 0.0220(13) 1.084(10)
H3 H -0.083(10) 0.0024(14) 1.289(10)
H4 H -0.356(10) 0.0831(13) 1.329(10)
H5 H 0.277(10) 0.1598(13) 0.990(10)
H6 H 0.348(10) 0.1211(13) 0.390(10)
H7 H 0.166(10) 0.0971(14) 0.564(10)
H8 H -0.349(11) 0.0591(13) 1.649(10)
H9 H -0.595(11) 0.0517(14) 1.447(11)
H10 H -0.512(10) 0.0305(13) 1.653(10)
H11 H 0.794(10) 0.1400(14) 0.498(10)
H12 H 0.606(10) 0.1463(13) 0.271(10)
H13 H 0.838(10) 0.1703(13) 0.404(9)
H14 H 0.966(11) 0.2421(14) 0.643(10)
H15 H 0.888(12) 0.2161(15) 0.661(11)
H16 H 0.053(10) 0.2178(14) 0.388(11)
H17 H 0.004(11) 0.2086(14) 0.190(11)
Na1C Na 0.4943(3) 0.27344(3) 0.8805(2)
Na1_2 Na 0.4943(3) 0.22656(3) 1.3805(2)
O5C O 0.4765(5) 0.27508(6) 0.2307(4)
O7_2 O 0.4941(6) 0.20675(7) 0.0668(4)
loop_
_geom_bond_atom_site_label_1
_geom_bond_atom_site_label_2
_geom_bond_site_symmetry_1
_geom_bond_site_symmetry_2
Na1 O4 1_555 1_555
O1 C1 1_555 1_555
O2 C3 1_555 1_555
O3 C7 1_555 1_555
O4 C13 1_555 1_555
O5 Na1 1_555 1_555
O6 S1 1_555 1_555
O7 S1 1_555 1_555
O8 Na1 1_555 1_555
O9 Na1 1_555 1_555
S1 O5 1_555 1_555
C1 C2 1_555 1_555
C2 C3 1_555 1_555
C3 C4 1_555 1_555
C4 C5 1_555 1_555
C5 C6 1_555 1_555
C6 C7 1_555 1_555
C7 C8 1_555 1_555
C8 C9 1_555 1_555
C9 O1 1_555 1_555
C10 C2 1_555 1_555
C11 C10 1_555 1_555
C12 S1 1_555 1_555
C13 C12 1_555 1_555
C14 C13 1_555 1_555
C15 C10 1_555 1_555
C16 O3 1_555 1_555
C17 O4 1_555 1_555
H1 C1 1_555 1_555
H2 C5 1_555 1_555
H3 C6 1_555 1_555
H4 C8 1_555 1_555
H5 C11 1_555 1_555
H6 C14 1_555 1_555
H7 C15 1_555 1_555
H8 C16 1_555 1_555
H9 C16 1_555 1_555
H10 C16 1_555 1_555
H11 C17 1_555 1_555
H12 C17 1_555 1_555
H13 C17 1_555 1_555
H14 O8 1_555 1_555
H15 O8 1_555 1_555
H16 O9 1_555 1_555
H17 O9 1_555 1_555
Na1C O5 1_555 1_555
Na1_2 O7 1_555 1_555
O5C Na1 1_555 1_555
O7_2 Na1 1_555 1_555
C4 C9 1_555 1_555
C11 C12 1_555 1_555
C14 C15 1_555 1_555

#END
