
#######################################################################
#
#                 Cambridge Crystallographic Data Centre
#                                CCDC 
#
#######################################################################
#
# If this CIF has been generated from an entry in the Cambridge 
# Structural Database, then it will include bibliographic, chemical, 
# crystal, experimental, refinement or atomic coordinate data resulting 
# from the CCDC's data processing and validation procedures.
#
#######################################################################

data_HEVCAN
_symmetry_cell_setting           monoclinic
_symmetry_space_group_name_H-M   'P 2/c'
_symmetry_Int_Tables_number      13
_space_group_name_Hall           '-P 2yc'
loop_
_symmetry_equiv_pos_site_id
_symmetry_equiv_pos_as_xyz
1 x,y,z
2 -x,y,1/2-z
3 -x,-y,-z
4 x,-y,1/2+z
_cell_length_a                   13.317(3)
_cell_length_b                   5.0376(13)
_cell_length_c                   12.120(3)
_cell_angle_alpha                90
_cell_angle_beta                 116.295(4)
_cell_angle_gamma                90
_cell_volume                     728.946
loop_
_atom_site_label
_atom_site_type_symbol
_atom_site_fract_x
_atom_site_fract_y
_atom_site_fract_z
Zn1 Zn 0.5000 -0.43470(10) 0.7500
S1 S 0.0000 0.6195(2) 0.2500
O1 O 0.37277(17) -0.1800(4) 0.6796(2)
O2 O 0.42388(18) -0.2505(4) 0.5338(2)
O3 O 0.04040(17) 0.7615(4) 0.1754(2)
O4 O 0.4346(2) -0.7090(5) 0.8159(2)
C1 C 0.3623(2) -0.1362(6) 0.5713(3)
C2 C 0.2739(2) 0.0556(6) 0.4926(3)
C3 C 0.2803(3) 0.1787(7) 0.3948(3)
H1 H 0.3409 0.1442 0.3783
C4 C 0.1973(3) 0.3544(6) 0.3199(3)
H2 H 0.2019 0.4378 0.2538
C5 C 0.1082(2) 0.4017(6) 0.3462(3)
C6 C 0.1010(3) 0.2829(6) 0.4450(3)
H3 H 0.0404 0.3184 0.4614
C7 C 0.1842(3) 0.1111(6) 0.5196(3)
H4 H 0.1807 0.0328 0.5873
H5 H 0.437(3) -0.703(7) 0.8864(16)
H6 H 0.397(3) -0.831(6) 0.768(3)
Zn1_2 Zn -0.5000 -0.43470(10) -0.2500
O1A O -0.37277(17) -0.1800(4) -0.1796(2)
O1A_2 O 0.62723(17) -0.1800(4) 0.8204(2)
O2A O -0.42388(18) -0.2505(4) -0.0338(2)
O3A O -0.04040(17) 0.7615(4) 0.3246(2)
O4A O 0.5654(2) -0.7090(5) 0.6841(2)
C1A C -0.3623(2) -0.1362(6) -0.0713(3)
C2A C -0.2739(2) 0.0556(6) 0.0074(3)
C3A C -0.2803(3) 0.1787(7) 0.1052(3)
H1A H -0.3409 0.1442 0.1217
C4A C -0.1973(3) 0.3544(6) 0.1801(3)
H2A H -0.2019 0.4378 0.2462
C5A C -0.1082(2) 0.4017(6) 0.1538(3)
C6A C -0.1010(3) 0.2829(6) 0.0550(3)
H3A H -0.0404 0.3184 0.0386
C7A C -0.1842(3) 0.1111(6) -0.0196(3)
H4A H -0.1807 0.0328 -0.0873
H5A H 0.563(3) -0.703(7) 0.6136(16)
H6A H 0.603(3) -0.831(6) 0.732(3)
loop_
_geom_bond_atom_site_label_1
_geom_bond_atom_site_label_2
_geom_bond_site_symmetry_1
_geom_bond_site_symmetry_2
Zn1 O1 1_555 1_555
S1 O3 1_555 1_555
O1 C1 1_555 1_555
O2 C1 1_555 1_555
O4 Zn1 1_555 1_555
C1 C2 1_555 1_555
C2 C3 1_555 1_555
C3 H1 1_555 1_555
C4 C3 1_555 1_555
H2 C4 1_555 1_555
C5 S1 1_555 1_555
C6 C5 1_555 1_555
H3 C6 1_555 1_555
C7 C2 1_555 1_555
H4 C7 1_555 1_555
H5 O4 1_555 1_555
H6 O4 1_555 1_555
Zn1_2 O1A 1_555 1_555
O1A C1A 1_555 1_555
O1A_2 Zn1 1_555 1_555
O2A C1A 1_555 1_555
O3A S1 1_555 1_555
O4A Zn1 1_555 1_555
C1A C2A 1_555 1_555
C2A C3A 1_555 1_555
C3A H1A 1_555 1_555
C4A C3A 1_555 1_555
H2A C4A 1_555 1_555
C5A S1 1_555 1_555
C6A C5A 1_555 1_555
H3A C6A 1_555 1_555
C7A C2A 1_555 1_555
H4A C7A 1_555 1_555
H5A O4A 1_555 1_555
H6A O4A 1_555 1_555
C4 C5 1_555 1_555
C6 C7 1_555 1_555
C4A C5A 1_555 1_555
C6A C7A 1_555 1_555

#END
