
#######################################################################
#
#                 Cambridge Crystallographic Data Centre
#                                CCDC 
#
#######################################################################
#
# If this CIF has been generated from an entry in the Cambridge 
# Structural Database, then it will include bibliographic, chemical, 
# crystal, experimental, refinement or atomic coordinate data resulting 
# from the CCDC's data processing and validation procedures.
#
#######################################################################

data_HEVGIZ
_symmetry_cell_setting           monoclinic
_symmetry_space_group_name_H-M   'P 21/n'
_symmetry_Int_Tables_number      14
_space_group_name_Hall           '-P 2yn'
loop_
_symmetry_equiv_pos_site_id
_symmetry_equiv_pos_as_xyz
1 x,y,z
2 1/2-x,1/2+y,1/2-z
3 -x,-y,-z
4 1/2+x,1/2-y,1/2+z
_cell_length_a                   11.371(2)
_cell_length_b                   10.063(1)
_cell_length_c                   15.5356(4)
_cell_angle_alpha                90
_cell_angle_beta                 104.6391(7)
_cell_angle_gamma                90
_cell_volume                     1719.97
loop_
_atom_site_label
_atom_site_type_symbol
_atom_site_fract_x
_atom_site_fract_y
_atom_site_fract_z
Co1 Co 1.0000 0.0000 1.0000
S1 S 0.85246(10) 0.44133(10) 1.03501(6)
O1 O 0.5537(2) 0.2389(3) 0.8765(2)
N1 N 0.8490(3) 0.0096(3) 0.8777(2)
N2 N 0.1188(2) 0.0793(3) 0.9201(2)
N3 N 0.4411(2) 0.1593(3) 0.7479(2)
N4 N 0.9580(2) 0.1933(3) 1.0315(2)
C1 C 0.7487(3) 0.0795(3) 0.8749(2)
C2 C 0.6505(3) 0.0862(3) 0.8010(2)
C3 C 0.6582(3) 0.0203(4) 0.7243(2)
C4 C 0.7644(4) -0.0514(5) 0.7261(2)
C5 C 0.8550(3) -0.0546(4) 0.8032(2)
C6 C 0.2101(3) 0.0098(3) 0.9026(2)
C7 C 0.2833(3) 0.0567(3) 0.8504(2)
C8 C 0.2639(3) 0.1810(3) 0.8135(2)
C9 C 0.1696(4) 0.2541(4) 0.8316(3)
C10 C 0.1010(3) 0.2013(4) 0.8845(3)
C11 C 0.5443(3) 0.1686(3) 0.8117(2)
C12 C 0.3353(3) 0.2383(4) 0.7522(2)
C13 C 0.9148(3) 0.2957(3) 1.0323(2)
H1 H 0.7442 0.1276 0.9266
H2 H 0.5934 0.0238 0.6719
H3 H 0.7733 -0.0972 0.6747
H4 H 0.9260 -0.1049 0.8040
H5 H 0.2255 -0.0767 0.9273
H6 H 0.3471 0.0027 0.8403
H7 H 0.1524 0.3408 0.8074
H8 H 0.0376 0.2541 0.8964
H9 H 0.4365 0.1007 0.6992
H10 H 0.3621 0.3248 0.7727
H11 H 0.2830 0.2441 0.6940
Co1_2 Co 0.0000 0.0000 1.0000
Co1_3 Co 2.0000 0.0000 1.0000
S1B S 1.14754(10) -0.44133(10) 0.96499(6)
O1B O 1.4463(2) -0.2389(3) 1.1235(2)
N1B N 1.1510(3) -0.0096(3) 1.1223(2)
N2B N 1.8812(2) -0.0793(3) 1.0799(2)
N2_2 N 1.1188(2) 0.0793(3) 0.9201(2)
N2B_2 N 0.8812(2) -0.0793(3) 1.0799(2)
N3B N 1.5589(2) -0.1593(3) 1.2521(2)
N4B N 1.0420(2) -0.1933(3) 0.9685(2)
C1B C 1.2513(3) -0.0795(3) 1.1251(2)
C2B C 1.3495(3) -0.0862(3) 1.1990(2)
C3B C 1.3418(3) -0.0203(4) 1.2757(2)
C4B C 1.2356(4) 0.0514(5) 1.2739(2)
C5B C 1.1450(3) 0.0546(4) 1.1968(2)
C6B C 1.7899(3) -0.0098(3) 1.0974(2)
C7B C 1.7167(3) -0.0567(3) 1.1496(2)
C8B C 1.7361(3) -0.1810(3) 1.1865(2)
C9B C 1.8304(4) -0.2541(4) 1.1684(3)
C10B C 1.8990(3) -0.2013(4) 1.1155(3)
C11B C 1.4557(3) -0.1686(3) 1.1883(2)
C12B C 1.6647(3) -0.2383(4) 1.2478(2)
C13B C 1.0852(3) -0.2957(3) 0.9677(2)
H1B H 1.2558 -0.1276 1.0734
H2B H 1.4066 -0.0238 1.3281
H3B H 1.2267 0.0972 1.3253
H4B H 1.0740 0.1049 1.1960
H5B H 1.7745 0.0767 1.0727
H6B H 1.6529 -0.0027 1.1597
H7B H 1.8476 -0.3408 1.1926
H8B H 1.9624 -0.2541 1.1036
H9B H 1.5635 -0.1007 1.3008
H10B H 1.6379 -0.3248 1.2273
H11B H 1.7170 -0.2441 1.3060
O2 O 1.0238 0.0737 0.6037
C14 C 0.8605 0.2275 0.5846
C15 C 0.9802 0.2107 0.5897
C16 C 1.0801 0.2740 0.5811
loop_
_geom_bond_atom_site_label_1
_geom_bond_atom_site_label_2
_geom_bond_site_symmetry_1
_geom_bond_site_symmetry_2
Co1 N1 1_555 1_555
S1 C13 1_555 1_555
O1 C11 1_555 1_555
O2 C15 1_555 1_555
N1 C1 1_555 1_555
N2 C6 1_555 1_555
N3 C11 1_555 1_555
N4 Co1 1_555 1_555
C1 C2 1_555 1_555
C2 C3 1_555 1_555
C3 C4 1_555 1_555
C4 C5 1_555 1_555
C5 N1 1_555 1_555
C6 C7 1_555 1_555
C7 C8 1_555 1_555
C8 C9 1_555 1_555
C9 C10 1_555 1_555
C10 N2 1_555 1_555
C11 C2 1_555 1_555
C12 N3 1_555 1_555
C13 N4 1_555 1_555
C14 C15 1_555 1_555
C15 C16 1_555 1_555
H1 C1 1_555 1_555
H2 C3 1_555 1_555
H3 C4 1_555 1_555
H4 C5 1_555 1_555
H5 C6 1_555 1_555
H6 C7 1_555 1_555
H7 C9 1_555 1_555
H8 C10 1_555 1_555
H9 N3 1_555 1_555
H10 C12 1_555 1_555
H11 C12 1_555 1_555
Co1_2 N2 1_555 1_555
Co1_3 N2B 1_555 1_555
S1B C13B 1_555 1_555
O1B C11B 1_555 1_555
N1B Co1 1_555 1_555
N2B C6B 1_555 1_555
N2_2 Co1 1_555 1_555
N2B_2 Co1 1_555 1_555
N3B C11B 1_555 1_555
N4B Co1 1_555 1_555
C1B N1B 1_555 1_555
C2B C1B 1_555 1_555
C3B C2B 1_555 1_555
C4B C3B 1_555 1_555
C5B N1B 1_555 1_555
C6B C7B 1_555 1_555
C7B C8B 1_555 1_555
C8B C9B 1_555 1_555
C9B C10B 1_555 1_555
C10B N2B 1_555 1_555
C11B C2B 1_555 1_555
C12B N3B 1_555 1_555
C13B N4B 1_555 1_555
H1B C1B 1_555 1_555
H2B C3B 1_555 1_555
H3B C4B 1_555 1_555
H4B C5B 1_555 1_555
H5B C6B 1_555 1_555
H6B C7B 1_555 1_555
H7B C9B 1_555 1_555
H8B C10B 1_555 1_555
H9B N3B 1_555 1_555
H10B C12B 1_555 1_555
H11B C12B 1_555 1_555
C8 C12 1_555 1_555
C4B C5B 1_555 1_555
C8B C12B 1_555 1_555

#END
