
#######################################################################
#
#                 Cambridge Crystallographic Data Centre
#                                CCDC 
#
#######################################################################
#
# If this CIF has been generated from an entry in the Cambridge 
# Structural Database, then it will include bibliographic, chemical, 
# crystal, experimental, refinement or atomic coordinate data resulting 
# from the CCDC's data processing and validation procedures.
#
#######################################################################

data_HEVQOP
_symmetry_cell_setting           triclinic
_symmetry_space_group_name_H-M   'P -1'
_symmetry_Int_Tables_number      2
_space_group_name_Hall           '-P 1'
loop_
_symmetry_equiv_pos_site_id
_symmetry_equiv_pos_as_xyz
1 x,y,z
2 -x,-y,-z
_cell_length_a                   7.869(6)
_cell_length_b                   8.674(7)
_cell_length_c                   8.759(7)
_cell_angle_alpha                102.231(9)
_cell_angle_beta                 102.427(10)
_cell_angle_gamma                98.464(10)
_cell_volume                     558.831
loop_
_atom_site_label
_atom_site_type_symbol
_atom_site_fract_x
_atom_site_fract_y
_atom_site_fract_z
O1 O 0.5633(5) 0.9184(4) 0.7787(6)
N1 N 0.6686(6) 0.6601(6) 0.5194(5)
S1 S 0.78794(17) 0.81111(15) 1.12918(14)
Cd1 Cd 0.73598(4) 0.71577(3) 0.79775(3)
S2 S 0.55210(15) 0.47599(14) 0.19916(12)
N2 N 1.0180(5) 1.1072(5) 1.1863(5)
N3 N 0.8181(5) 1.3608(4) 0.7890(5)
O2 O 0.8970(5) 1.5063(4) 0.7933(5)
C1 C 0.7696(6) 1.3302(6) 0.9202(5)
H1 H 0.7954 1.4126 1.0141
C2 C 0.7864(6) 1.2394(6) 0.6526(5)
N4 N 0.6482(5) 1.0609(5) 0.7836(5)
C3 C 0.7005(7) 1.0899(6) 0.6535(6)
H2 H 0.6775 1.0058 0.5614
C4 C 0.6840(7) 1.1818(6) 0.9179(6)
H3 H 0.6502 1.1636 1.0090
C5 C 0.8479(9) 1.2734(7) 0.5119(6)
H4 H 0.7837 1.3474 0.4694
H5 H 0.8270 1.1748 0.4298
H6 H 0.9726 1.3198 0.5455
C6 C 0.9235(5) 0.9850(5) 1.1606(5)
C7 C 0.6180(6) 0.5829(5) 0.3882(5)
Cd1A Cd 0.26402(4) 0.28423(3) 0.20225(3)
Cd1A_2 Cd 1.26402(4) 1.28423(3) 1.20225(3)
Cd1_2 Cd 0.73598(4) 1.71577(3) 0.79775(3)
S2A S 0.44790(15) 0.52401(14) 0.80084(12)
N2A N 0.9820(5) 0.8928(5) 0.8137(5)
O2_2 O 0.8970(5) 0.5063(4) 0.7933(5)
loop_
_geom_bond_atom_site_label_1
_geom_bond_atom_site_label_2
_geom_bond_site_symmetry_1
_geom_bond_site_symmetry_2
O1 Cd1 1_555 1_555
N1 Cd1 1_555 1_555
S1 Cd1 1_555 1_555
Cd1 S2A 1_555 1_555
S2 C7 1_555 1_555
N2 C6 1_555 1_555
N3 O2 1_555 1_555
O2 Cd1_2 1_555 1_555
C1 N3 1_555 1_555
H1 C1 1_555 1_555
C2 N3 1_555 1_555
N4 O1 1_555 1_555
C3 C2 1_555 1_555
H2 C3 1_555 1_555
C4 C1 1_555 1_555
H3 C4 1_555 1_555
C5 C2 1_555 1_555
H4 C5 1_555 1_555
H5 C5 1_555 1_555
H6 C5 1_555 1_555
C6 S1 1_555 1_555
C7 N1 1_555 1_555
Cd1A S2 1_555 1_555
Cd1A_2 N2 1_555 1_555
N2A Cd1 1_555 1_555
O2_2 Cd1 1_555 1_555
N4 C3 1_555 1_555
N4 C4 1_555 1_555

#END
