
#######################################################################
#
#                 Cambridge Crystallographic Data Centre
#                                CCDC 
#
#######################################################################
#
# If this CIF has been generated from an entry in the Cambridge 
# Structural Database, then it will include bibliographic, chemical, 
# crystal, experimental, refinement or atomic coordinate data resulting 
# from the CCDC's data processing and validation procedures.
#
#######################################################################

data_HEVWAH
_symmetry_cell_setting           monoclinic
_symmetry_space_group_name_H-M   'P 21/c'
_symmetry_Int_Tables_number      14
_space_group_name_Hall           '-P 2ybc'
loop_
_symmetry_equiv_pos_site_id
_symmetry_equiv_pos_as_xyz
1 x,y,z
2 -x,1/2+y,1/2-z
3 -x,-y,-z
4 x,1/2-y,1/2+z
_cell_length_a                   10.9020(7)
_cell_length_b                   17.764(2)
_cell_length_c                   15.5030(16)
_cell_angle_alpha                90
_cell_angle_beta                 110.58
_cell_angle_gamma                90
_cell_volume                     2810.76
loop_
_atom_site_label
_atom_site_type_symbol
_atom_site_fract_x
_atom_site_fract_y
_atom_site_fract_z
Cl2 Cl 0.1932(2) 0.47139(14) 0.16055(16)
O7 O 0.0954(8) 0.4604(6) 0.2012(6)
O8 O 0.3075(8) 0.4322(5) 0.2145(6)
O9 O 0.2261(8) 0.5476(4) 0.1641(6)
O10 O 0.1492(11) 0.4442(7) 0.0690(6)
Cu1 Cu 0.60224(8) 0.23811(6) 0.54966(6)
Cl1 Cl 0.3797(2) 0.29561(15) 0.64238(19)
O1 O 0.4348(5) 0.2156(3) 0.4517(4)
O2 O -0.2221(5) 0.2459(3) 0.1428(4)
O3 O 0.5119(6) 0.2653(4) 0.6594(5)
O4 O 0.3357(7) 0.3341(4) 0.5544(5)
O5 O 0.2945(7) 0.2347(4) 0.6390(5)
O6 O 0.3870(9) 0.3454(5) 0.7169(7)
N1 N 0.6128(6) 0.3470(4) 0.5201(5)
N2 N 0.3955(6) 0.3039(4) 0.3424(5)
H1 H 0.3370 0.3312 0.3031
N3 N -0.0848(6) 0.3361(4) 0.1275(5)
H2 H -0.0075 0.3553 0.1491
N4 N -0.3830(6) 0.3734(4) 0.0772(4)
C1 C 0.6572(8) 0.3946(5) 0.5904(7)
H3 H 0.6686 0.3776 0.6495
C2 C 0.6876(10) 0.4701(6) 0.5784(8)
H4 H 0.7203 0.5023 0.6286
C3 C 0.6675(11) 0.4950(6) 0.4901(8)
H5 H 0.6871 0.5444 0.4797
C4 C 0.6182(8) 0.4456(6) 0.4176(7)
H6 H 0.6028 0.4618 0.3577
C5 C 0.5917(7) 0.3728(5) 0.4337(5)
C6 C 0.5344(7) 0.3179(5) 0.3563(6)
H7 H 0.5418 0.3380 0.3001
H8 H 0.5828 0.2710 0.3706
C7 C 0.3572(7) 0.2525(4) 0.3864(5)
C8 C 0.2132(7) 0.2359(5) 0.3586(5)
C9 C 0.1701(8) 0.1896(5) 0.4139(6)
H9 H 0.2307 0.1717 0.4687
C10 C 0.0438(8) 0.1697(6) 0.3910(6)
H10 H 0.0184 0.1367 0.4283
C11 C -0.0491(7) 0.1989(5) 0.3111(6)
H11 H -0.1369 0.1862 0.2961
C12 C -0.0116(8) 0.2463(5) 0.2542(6)
C13 C 0.1230(7) 0.2637(5) 0.2774(6)
H12 H 0.1508 0.2936 0.2385
C14 C -0.1104(7) 0.2767(5) 0.1704(6)
C15 C -0.1788(8) 0.3703(5) 0.0472(5)
H13 H -0.2206 0.3318 0.0021
H14 H -0.1346 0.4050 0.0196
C16 C -0.2834(7) 0.4129(5) 0.0739(5)
C17 C -0.2670(9) 0.4881(5) 0.0958(6)
H15 H -0.1954 0.5146 0.0924
C18 C -0.3610(10) 0.5230(6) 0.1232(7)
H16 H -0.3537 0.5738 0.1385
C19 C -0.4648(9) 0.4817(6) 0.1272(6)
H17 H -0.5290 0.5043 0.1451
C20 C -0.4734(8) 0.4078(5) 0.1051(5)
H18 H -0.5433 0.3798 0.1091
Cu1C Cu -0.39776(8) 0.26189(6) 0.04966(6)
O2C O 0.7779(5) 0.2541(3) 0.6428(4)
N4C N 0.6170(6) 0.1266(4) 0.5772(4)
loop_
_geom_bond_atom_site_label_1
_geom_bond_atom_site_label_2
_geom_bond_site_symmetry_1
_geom_bond_site_symmetry_2
Cu1 O1 1_555 1_555
Cl1 O3 1_555 1_555
Cl2 O7 1_555 1_555
O1 C7 1_555 1_555
O2 C14 1_555 1_555
O3 Cu1 1_555 1_555
O4 Cl1 1_555 1_555
O5 Cl1 1_555 1_555
O6 Cl1 1_555 1_555
O8 Cl2 1_555 1_555
O9 Cl2 1_555 1_555
O10 Cl2 1_555 1_555
N1 Cu1 1_555 1_555
N2 H1 1_555 1_555
N3 H2 1_555 1_555
N4 C16 1_555 1_555
C1 N1 1_555 1_555
H3 C1 1_555 1_555
C2 C1 1_555 1_555
H4 C2 1_555 1_555
C3 C2 1_555 1_555
H5 C3 1_555 1_555
C4 C3 1_555 1_555
H6 C4 1_555 1_555
C5 N1 1_555 1_555
C6 N2 1_555 1_555
H7 C6 1_555 1_555
H8 C6 1_555 1_555
C7 N2 1_555 1_555
C8 C7 1_555 1_555
C9 C8 1_555 1_555
H9 C9 1_555 1_555
C10 C9 1_555 1_555
H10 C10 1_555 1_555
C11 C10 1_555 1_555
H11 C11 1_555 1_555
C12 C11 1_555 1_555
C13 C8 1_555 1_555
H12 C13 1_555 1_555
C14 N3 1_555 1_555
C15 N3 1_555 1_555
H13 C15 1_555 1_555
H14 C15 1_555 1_555
C16 C15 1_555 1_555
C17 C16 1_555 1_555
H15 C17 1_555 1_555
C18 C17 1_555 1_555
H16 C18 1_555 1_555
C19 C18 1_555 1_555
H17 C19 1_555 1_555
C20 N4 1_555 1_555
H18 C20 1_555 1_555
Cu1C O2 1_555 1_555
O2C Cu1 1_555 1_555
N4C Cu1 1_555 1_555
N4 Cu1C 1_555 1_555
C4 C5 1_555 1_555
C5 C6 1_555 1_555
C12 C13 1_555 1_555
C12 C14 1_555 1_555
C19 C20 1_555 1_555

#END
