
#######################################################################
#
#                 Cambridge Crystallographic Data Centre
#                                CCDC 
#
#######################################################################
#
# If this CIF has been generated from an entry in the Cambridge 
# Structural Database, then it will include bibliographic, chemical, 
# crystal, experimental, refinement or atomic coordinate data resulting 
# from the CCDC's data processing and validation procedures.
#
#######################################################################

data_HEWFAR02
_symmetry_cell_setting           triclinic
_symmetry_space_group_name_H-M   'P -1'
_symmetry_Int_Tables_number      2
_space_group_name_Hall           '-P 1'
loop_
_symmetry_equiv_pos_site_id
_symmetry_equiv_pos_as_xyz
1 x,y,z
2 -x,-y,-z
_cell_length_a                   6.5506(13)
_cell_length_b                   9.777(2)
_cell_length_c                   10.498(2)
_cell_angle_alpha                80.18(3)
_cell_angle_beta                 89.90(3)
_cell_angle_gamma                71.25(3)
_cell_volume                     626.321
loop_
_atom_site_label
_atom_site_type_symbol
_atom_site_fract_x
_atom_site_fract_y
_atom_site_fract_z
Ho1 Ho 0.37448(2) 0.123655(15) 0.322208(12)
O1 O 0.0870(5) 0.1510(3) 0.4665(3)
O2 O 0.0669(5) 0.3513(3) 0.3314(3)
O3 O -0.4553(5) 0.1097(3) 0.5476(3)
O4 O -0.4755(6) 0.2937(3) 0.3939(3)
O5 O 0.3989(5) -0.0235(3) 0.1577(3)
O6 O 0.0747(4) 0.1149(3) 0.1863(3)
O7 O 0.4192(5) 0.2785(3) 0.1381(3)
H1 H 0.368(13) 0.287(9) 0.062(3)
H2 H 0.506(8) 0.327(6) 0.129(6)
O8 O 0.7496(4) 0.0164(3) 0.3039(3)
H3 H 0.804(9) 0.071(6) 0.254(5)
H4 H 0.828(6) -0.042(4) 0.368(3)
C1 C 0.0044(6) 0.2887(4) 0.4313(3)
C2 C -0.1627(7) 0.3754(4) 0.5108(4)
H5 H -0.278(9) 0.467(6) 0.442(5)
H6 H -0.089(12) 0.416(8) 0.560(7)
C3 C -0.2854(6) 0.2849(4) 0.5906(4)
H7 H -0.378(9) 0.338(6) 0.649(5)
H8 H -0.169(10) 0.195(7) 0.655(6)
C4 C -0.4112(6) 0.2266(4) 0.5055(4)
C5 C 0.1996(6) 0.0217(4) 0.1266(3)
C6 C 0.1191(7) -0.0368(5) 0.0204(4)
H9 H 0.137(9) -0.141(6) 0.061(5)
H10 H 0.229(11) -0.051(7) -0.040(6)
O5A O -0.3989(5) 0.0235(3) -0.1577(3)
O6A O -0.0747(4) -0.1149(3) -0.1863(3)
C5A C -0.1996(6) -0.0217(4) -0.1266(3)
C6A C -0.1191(7) 0.0368(5) -0.0204(4)
H9A H -0.137(9) 0.141(6) -0.061(5)
H10A H -0.229(11) 0.051(7) 0.040(6)
Ho1A Ho -0.37448(2) -0.123655(15) -0.322208(12)
O1A O -0.0870(5) -0.1510(3) -0.4665(3)
O2A O -0.0669(5) -0.3513(3) -0.3314(3)
O3A O 0.4553(5) -0.1097(3) -0.5476(3)
O4A O 0.4755(6) -0.2937(3) -0.3939(3)
O7A O -0.4192(5) -0.2785(3) -0.1381(3)
H1A H -0.368(13) -0.287(9) -0.062(3)
H2A H -0.506(8) -0.327(6) -0.129(6)
O8A O -0.7496(4) -0.0164(3) -0.3039(3)
H3A H -0.804(9) -0.071(6) -0.254(5)
H4A H -0.828(6) 0.042(4) -0.368(3)
C1A C -0.0044(6) -0.2887(4) -0.4313(3)
C2A C 0.1627(7) -0.3754(4) -0.5108(4)
H5A H 0.278(9) -0.467(6) -0.442(5)
H6A H 0.089(12) -0.416(8) -0.560(7)
C3A C 0.2854(6) -0.2849(4) -0.5906(4)
H7A H 0.378(9) -0.338(6) -0.649(5)
H8A H 0.169(10) -0.195(7) -0.655(6)
C4A C 0.4112(6) -0.2266(4) -0.5055(4)
Ho1_2 Ho -0.62552(2) 0.123655(15) 0.322208(12)
Ho1_3 Ho 0.37448(2) 0.123655(15) -0.677792(12)
Ho1A_2 Ho -0.37448(2) -0.123655(15) 0.677792(12)
Ho1A_3 Ho 0.62552(2) -0.123655(15) -0.322208(12)
O3_2 O -0.4553(5) 0.1097(3) -0.4524(3)
O3_3 O 0.5447(5) 0.1097(3) 0.5476(3)
O3A_2 O -0.5447(5) -0.1097(3) -0.5476(3)
O3A_3 O 0.4553(5) -0.1097(3) 0.4524(3)
O4_2 O 0.5245(6) 0.2937(3) 0.3939(3)
O4A_2 O -0.5245(6) -0.2937(3) -0.3939(3)
O9 O 0.7278(6) 0.4134(4) 0.1067(4)
H11 H 0.695(14) 0.490(5) 0.140(8)
H12 H 0.842(9) 0.360(9) 0.152(8)
O10 O 0.3226(7) 0.2870(4) -0.1123(4)
H13 H 0.401(7) 0.201(3) -0.120(5)
H14 H 0.187(2) 0.304(6) -0.115(5)
O11 O 0.1199(8) 0.6070(4) 0.1539(4)
H15 H 0.113(11) 0.607(7) 0.0732(16)
H16 H 0.144(12) 0.520(3) 0.194(6)
loop_
_geom_bond_atom_site_label_1
_geom_bond_atom_site_label_2
_geom_bond_site_symmetry_1
_geom_bond_site_symmetry_2
Ho1 O1 1_555 1_555
O1 C1 1_555 1_555
O2 Ho1 1_555 1_555
O3 C4 1_555 1_555
O4 C4 1_555 1_555
O5 Ho1 1_555 1_555
O6 Ho1 1_555 1_555
O7 Ho1 1_555 1_555
H1 O7 1_555 1_555
H2 O7 1_555 1_555
O8 Ho1 1_555 1_555
H3 O8 1_555 1_555
H4 O8 1_555 1_555
C1 O2 1_555 1_555
C2 C1 1_555 1_555
H5 C2 1_555 1_555
H6 C2 1_555 1_555
C3 C2 1_555 1_555
H7 C3 1_555 1_555
H8 C3 1_555 1_555
C4 C3 1_555 1_555
C5 O5 1_555 1_555
C6 C5 1_555 1_555
H9 C6 1_555 1_555
H10 C6 1_555 1_555
O9 H11 1_555 1_555
H12 O9 1_555 1_555
O10 H13 1_555 1_555
H14 O10 1_555 1_555
O11 H15 1_555 1_555
H16 O11 1_555 1_555
O5A C5A 1_555 1_555
O6A C5A 1_555 1_555
C5A C6A 1_555 1_555
C6A C6 1_555 1_555
H9A C6A 1_555 1_555
H10A C6A 1_555 1_555
Ho1A O5A 1_555 1_555
O1A Ho1A 1_555 1_555
O2A Ho1A 1_555 1_555
O3A C4A 1_555 1_555
O4A C4A 1_555 1_555
O7A Ho1A 1_555 1_555
H1A O7A 1_555 1_555
H2A O7A 1_555 1_555
O8A Ho1A 1_555 1_555
H3A O8A 1_555 1_555
H4A O8A 1_555 1_555
C1A O1A 1_555 1_555
C2A C1A 1_555 1_555
H5A C2A 1_555 1_555
H6A C2A 1_555 1_555
C3A C2A 1_555 1_555
H7A C3A 1_555 1_555
H8A C3A 1_555 1_555
C4A C3A 1_555 1_555
Ho1_2 O3 1_555 1_555
Ho1_3 O3A 1_555 1_555
Ho1A_2 O3 1_555 1_555
Ho1A_3 O3A 1_555 1_555
O3_2 Ho1A 1_555 1_555
O3_3 Ho1 1_555 1_555
O3A_2 Ho1A 1_555 1_555
O3A_3 Ho1 1_555 1_555
O4_2 Ho1 1_555 1_555
O4A_2 Ho1A 1_555 1_555
O4 Ho1_2 1_555 1_555
O6 C5 1_555 1_555
O6A Ho1A 1_555 1_555
O2A C1A 1_555 1_555
O4A Ho1A_3 1_555 1_555

#END
