
#######################################################################
#
#                 Cambridge Crystallographic Data Centre
#                                CCDC 
#
#######################################################################
#
# If this CIF has been generated from an entry in the Cambridge 
# Structural Database, then it will include bibliographic, chemical, 
# crystal, experimental, refinement or atomic coordinate data resulting 
# from the CCDC's data processing and validation procedures.
#
#######################################################################

data_HEWKEB
_symmetry_cell_setting           monoclinic
_symmetry_space_group_name_H-M   'P 21/c'
_symmetry_Int_Tables_number      14
_space_group_name_Hall           '-P 2ybc'
loop_
_symmetry_equiv_pos_site_id
_symmetry_equiv_pos_as_xyz
1 x,y,z
2 -x,1/2+y,1/2-z
3 -x,-y,-z
4 x,1/2-y,1/2+z
_cell_length_a                   14.378(4)
_cell_length_b                   10.325(3)
_cell_length_c                   12.803(4)
_cell_angle_alpha                90
_cell_angle_beta                 96.785(5)
_cell_angle_gamma                90
_cell_volume                     1887.33
loop_
_atom_site_label
_atom_site_type_symbol
_atom_site_fract_x
_atom_site_fract_y
_atom_site_fract_z
K1 K 0.71225(6) 0.38399(9) 0.14250(8)
K2 K 1.21189(6) 1.44520(9) 0.13353(8)
N1 N 0.9783(2) 1.2804(3) 0.1165(3)
H1 H 0.9643 1.3614 0.1123
N2 N 1.0701(2) 1.2341(3) 0.1295(3)
N3 N 0.9688(2) 1.0740(3) 0.1197(3)
N4 N 0.9262(2) 0.9539(3) 0.1192(3)
N5 N 0.9849(2) 0.8660(3) 0.1276(3)
N6 N 0.9435(2) 0.7472(3) 0.1234(2)
N7 N 0.8437(2) 0.5867(3) 0.1034(3)
N8 N 0.9346(2) 0.5365(3) 0.1170(3)
H2 H 0.9484 0.4554 0.1177
N9 N 0.3435(2) 1.2418(3) 0.1046(3)
N10 N 0.4346(2) 1.2908(3) 0.1219(3)
H3 H 0.4486 1.3717 0.1270
N11 N 0.4424(2) 1.0801(3) 0.1140(3)
N12 N 0.4840(2) 0.9614(3) 0.1190(3)
N13 N 0.4252(2) 0.8731(3) 0.1082(3)
N14 N 0.4686(2) 0.7534(3) 0.1144(3)
N15 N 0.4790(2) 0.5464(3) 0.1183(3)
H4 H 0.4653 0.4653 0.1159
N16 N 0.5693(2) 0.5932(3) 0.1398(3)
O1 O 0.82852(19) 1.1920(3) 0.1020(3)
O2 O 1.08355(19) 0.6298(3) 0.1443(3)
O3 O 0.58292(19) 1.1963(3) 0.1453(3)
O4 O 0.32916(18) 0.6340(3) 0.0800(3)
O5 O 1.2899(2) 1.4828(3) 0.3411(3)
O6 O 0.79086(19) 0.3487(3) 0.3484(2)
C1 C 0.9141(3) 1.1856(4) 0.1112(3)
C2 C 1.0614(3) 1.1091(4) 0.1317(3)
H5 H 1.1112 1.0511 0.1402
C3 C 0.8504(3) 0.7110(4) 0.1084(3)
H6 H 0.7999 0.7680 0.1027
C4 C 0.9967(3) 0.6325(3) 0.1289(3)
C5 C 0.3502(3) 1.1185(4) 0.1002(4)
H7 H 0.2995 1.0623 0.0890
C6 C 0.4962(3) 1.1954(3) 0.1293(3)
C7 C 0.5615(3) 0.7181(4) 0.1366(3)
H8 H 0.6114 0.7759 0.1477
C8 C 0.4152(3) 0.6406(3) 0.1015(3)
K1B K 1.28775(6) 1.61601(9) -0.14250(8)
K1_2 K 0.71225(6) 1.38399(9) 0.14250(8)
K1B_2 K 0.28775(6) 0.61601(9) -0.14250(8)
K2B K 0.78811(6) 0.55480(9) -0.13353(8)
K2_2 K 0.21189(6) 1.44520(9) 0.13353(8)
K2_3 K 1.21189(6) 0.44520(9) 0.13353(8)
K2_4 K 0.21189(6) 0.44520(9) 0.13353(8)
N7B N 1.1563(2) 1.4133(3) -0.1034(3)
N9_2 N 1.3435(2) 1.2418(3) 0.1046(3)
O1_2 O 0.82852(19) 0.1920(3) 0.1020(3)
O2_2 O 1.08355(19) 1.6298(3) 0.1443(3)
O3_2 O 0.58292(19) 0.1963(3) 0.1453(3)
O4B O 0.67084(18) 0.3660(3) -0.0800(3)
O4_2 O 1.32916(18) 1.6340(3) 0.0800(3)
loop_
_geom_bond_atom_site_label_1
_geom_bond_atom_site_label_2
_geom_bond_site_symmetry_1
_geom_bond_site_symmetry_2
K1 N7 1_555 1_555
K2 N2 1_555 1_555
N1 H1 1_555 1_555
N2 N1 1_555 1_555
N3 N4 1_555 1_555
N4 N5 1_555 1_555
N5 N6 1_555 1_555
N6 C3 1_555 1_555
N7 N8 1_555 1_555
N8 H2 1_555 1_555
N9 N10 1_555 1_555
N10 H3 1_555 1_555
N11 N12 1_555 1_555
N12 N13 1_555 1_555
N13 N14 1_555 1_555
N14 C7 1_555 1_555
N15 H4 1_555 1_555
N16 K1 1_555 1_555
O1 C1 1_555 1_555
O2 C4 1_555 1_555
O3 C6 1_555 1_555
O4 C8 1_555 1_555
O5 K2 1_555 1_555
O6 K1 1_555 1_555
C1 N1 1_555 1_555
C2 N2 1_555 1_555
H5 C2 1_555 1_555
C3 N7 1_555 1_555
H6 C3 1_555 1_555
C4 N6 1_555 1_555
C5 N9 1_555 1_555
H7 C5 1_555 1_555
C6 N10 1_555 1_555
C7 N16 1_555 1_555
H8 C7 1_555 1_555
C8 N14 1_555 1_555
K1B N7B 1_555 1_555
K1_2 O1 1_555 1_555
K1B_2 O4 1_555 1_555
K2B N7 1_555 1_555
K2_2 N9 1_555 1_555
K2_3 O2 1_555 1_555
K2_4 O4 1_555 1_555
N7B K2 1_555 1_555
N9_2 K2 1_555 1_555
O1_2 K1 1_555 1_555
O2_2 K2 1_555 1_555
O3_2 K1 1_555 1_555
O4B K1 1_555 1_555
O4_2 K2 1_555 1_555
N3 C1 1_555 1_555
N3 C2 1_555 1_555
N8 C4 1_555 1_555
N11 C5 1_555 1_555
N11 C6 1_555 1_555
N15 N16 1_555 1_555
N15 C8 1_555 1_555
O3 K1_2 1_555 1_555
K1B O4_2 1_555 1_555
K2B O4B 1_555 1_555

#END
