
#######################################################################
#
#                 Cambridge Crystallographic Data Centre
#                                CCDC 
#
#######################################################################
#
# If this CIF has been generated from an entry in the Cambridge 
# Structural Database, then it will include bibliographic, chemical, 
# crystal, experimental, refinement or atomic coordinate data resulting 
# from the CCDC's data processing and validation procedures.
#
#######################################################################

data_HEWNIG
_symmetry_cell_setting           monoclinic
_symmetry_space_group_name_H-M   'P 21/c'
_symmetry_Int_Tables_number      14
_space_group_name_Hall           '-P 2ybc'
loop_
_symmetry_equiv_pos_site_id
_symmetry_equiv_pos_as_xyz
1 x,y,z
2 -x,1/2+y,1/2-z
3 -x,-y,-z
4 x,1/2-y,1/2+z
_cell_length_a                   21.173(3)
_cell_length_b                   15.781(2)
_cell_length_c                   13.930(4)
_cell_angle_alpha                90
_cell_angle_beta                 100.04(2)
_cell_angle_gamma                90
_cell_volume                     4583.17
loop_
_atom_site_label
_atom_site_type_symbol
_atom_site_fract_x
_atom_site_fract_y
_atom_site_fract_z
Ni1 Ni 0.28570(5) 0.39110(6) 0.33162(6)
N1 N 0.20770(36) 0.38273(44) 0.22009(45)
N2 N 0.33027(38) 0.38639(42) 0.21149(42)
N3 N 0.29026(34) 0.52279(43) 0.33439(49)
N4 N 0.36614(30) 0.41151(46) 0.43704(41)
N5 N 0.29428(35) 0.25855(46) 0.33871(46)
N6 N 0.25044(35) 0.21269(46) 0.31334(36)
N7 N 0.20808(35) 0.16581(45) 0.29260(44)
C1 C 0.14671(49) 0.38169(62) 0.23251(74)
C2 C 0.09576(57) 0.37338(77) 0.1568(11)
C3 C 0.11124(74) 0.36651(84) 0.0623(11)
C4 C 0.17382(72) 0.36440(72) 0.04731(70)
C5 C 0.22426(50) 0.37275(53) 0.12918(55)
C6 C 0.29122(50) 0.37509(50) 0.12488(53)
C7 C 0.31479(80) 0.36584(66) 0.03757(68)
C8 C 0.37822(97) 0.36661(83) 0.04044(92)
C9 C 0.42243(67) 0.37274(71) 0.13043(93)
C10 C 0.39385(54) 0.38446(66) 0.21543(70)
C11 C 0.25160(48) 0.57526(60) 0.27351(67)
C12 C 0.26298(61) 0.66297(70) 0.27031(81)
C13 C 0.31770(71) 0.69326(71) 0.3332(10)
C14 C 0.35605(53) 0.63983(70) 0.39868(88)
C15 C 0.34065(38) 0.55557(55) 0.39773(55)
C16 C 0.37870(37) 0.49219(58) 0.46106(52)
C17 C 0.42570(45) 0.51493(79) 0.54261(64)
C18 C 0.45909(43) 0.45010(87) 0.59548(63)
C19 C 0.44876(44) 0.36673(76) 0.56954(66)
C20 C 0.39924(41) 0.34903(62) 0.48833(60)
Ni2 Ni 0.21408(5) 0.05775(6) 0.20634(6)
N8 N 0.20904(31) -0.04668(40) 0.11200(41)
N9 N 0.12807(30) 0.07982(42) 0.11564(43)
N10 N 0.18104(33) -0.01231(43) 0.31523(43)
N11 N 0.29945(31) 0.02190(44) 0.29303(42)
N12 N 0.26065(36) 0.13047(47) 0.11030(45)
N13 N 0.24608(32) 0.12290(44) 0.02479(47)
N14 N 0.22865(37) 0.11574(54) -0.06008(47)
C21 C 0.25246(45) -0.11054(57) 0.11844(62)
C22 C 0.24457(51) -0.17778(62) 0.05269(76)
C23 C 0.18973(59) -0.17694(74) -0.02229(73)
C24 C 0.14615(49) -0.11123(60) -0.03041(65)
C25 C 0.15784(38) -0.04612(53) 0.03936(51)
C26 C 0.11564(37) 0.02751(52) 0.03657(51)
C27 C 0.06472(44) 0.04317(64) -0.04131(61)
C28 C 0.02715(49) 0.11403(68) -0.03755(77)
C29 C 0.03886(44) 0.16700(63) 0.04283(75)
C30 C 0.08985(43) 0.14678(63) 0.11876(61)
C31 C 0.12041(48) -0.01851(63) 0.32591(64)
C32 C 0.10106(51) -0.05931(70) 0.40613(74)
C33 C 0.15117(64) -0.09565(71) 0.47554(80)
C34 C 0.21350(54) -0.08690(64) 0.46604(65)
C35 C 0.22792(42) -0.04493(49) 0.38436(54)
C36 C 0.29418(40) -0.03121(50) 0.36921(55)
C37 C 0.34673(50) -0.06801(62) 0.42644(68)
C38 C 0.40715(51) -0.04724(79) 0.40731(75)
C39 C 0.41429(45) 0.00944(71) 0.33307(73)
C40 C 0.35718(45) 0.04268(57) 0.27698(58)
N14C N 0.22865(37) 0.38426(54) 0.43992(47)
Ni1C Ni 0.28570(5) 0.10890(6) -0.16838(6)
P1 P 0.45561(14) 0.78426(21) 0.65021(19)
F1 F 0.44618(42) 0.76960(82) 0.75699(60)
F2 F 0.52851(34) 0.79596(50) 0.69182(61)
F3 F 0.44222(52) 0.87800(56) 0.65869(94)
F4 F 0.47375(46) 0.68919(51) 0.63829(70)
F5 F 0.38483(39) 0.76967(85) 0.61024(77)
F6 F 0.46784(57) 0.79669(85) 0.54495(63)
P2 P 0.04385(14) 0.66345(25) 0.19169(18)
F7 F 0.11045(33) 0.62284(62) 0.20878(57)
F8 F 0.06083(56) 0.71791(63) 0.28441(64)
F9 F 0.06688(51) 0.72738(75) 0.12169(74)
F10 F -0.02470(38) 0.70019(75) 0.17180(60)
F11 F 0.02123(41) 0.59411(64) 0.25969(60)
F12 F 0.02596(43) 0.60131(87) 0.09900(59)
loop_
_geom_bond_atom_site_label_1
_geom_bond_atom_site_label_2
_geom_bond_site_symmetry_1
_geom_bond_site_symmetry_2
Ni1 N1 1_555 1_555
N1 C1 1_555 1_555
N2 Ni1 1_555 1_555
N3 Ni1 1_555 1_555
N4 Ni1 1_555 1_555
N5 Ni1 1_555 1_555
N6 N5 1_555 1_555
N7 N6 1_555 1_555
C1 C2 1_555 1_555
C2 C3 1_555 1_555
C3 C4 1_555 1_555
C4 C5 1_555 1_555
C5 N1 1_555 1_555
C6 N2 1_555 1_555
C7 C6 1_555 1_555
C8 C7 1_555 1_555
C9 C8 1_555 1_555
C10 N2 1_555 1_555
C11 N3 1_555 1_555
C12 C11 1_555 1_555
C13 C12 1_555 1_555
C14 C13 1_555 1_555
C15 N3 1_555 1_555
C16 N4 1_555 1_555
C17 C16 1_555 1_555
C18 C17 1_555 1_555
C19 C18 1_555 1_555
C20 N4 1_555 1_555
P1 F1 1_555 1_555
F2 P1 1_555 1_555
F3 P1 1_555 1_555
F4 P1 1_555 1_555
F5 P1 1_555 1_555
F6 P1 1_555 1_555
Ni2 N7 1_555 1_555
N8 Ni2 1_555 1_555
N9 Ni2 1_555 1_555
N10 Ni2 1_555 1_555
N11 Ni2 1_555 1_555
N12 Ni2 1_555 1_555
N13 N12 1_555 1_555
N14 N13 1_555 1_555
C21 N8 1_555 1_555
C22 C21 1_555 1_555
C23 C22 1_555 1_555
C24 C23 1_555 1_555
C25 N8 1_555 1_555
C26 N9 1_555 1_555
C27 C26 1_555 1_555
C28 C27 1_555 1_555
C29 C28 1_555 1_555
C30 N9 1_555 1_555
C31 N10 1_555 1_555
C32 C31 1_555 1_555
C33 C32 1_555 1_555
C34 C33 1_555 1_555
C35 N10 1_555 1_555
C36 N11 1_555 1_555
C37 C36 1_555 1_555
C38 C37 1_555 1_555
C39 C38 1_555 1_555
C40 N11 1_555 1_555
P2 F7 1_555 1_555
F8 P2 1_555 1_555
F9 P2 1_555 1_555
F10 P2 1_555 1_555
F11 P2 1_555 1_555
F12 P2 1_555 1_555
N14C Ni1 1_555 1_555
Ni1C N14 1_555 1_555
C5 C6 1_555 1_555
C9 C10 1_555 1_555
C14 C15 1_555 1_555
C15 C16 1_555 1_555
C19 C20 1_555 1_555
C24 C25 1_555 1_555
C25 C26 1_555 1_555
C29 C30 1_555 1_555
C34 C35 1_555 1_555
C35 C36 1_555 1_555
C39 C40 1_555 1_555

#END
