
#######################################################################
#
#                 Cambridge Crystallographic Data Centre
#                                CCDC 
#
#######################################################################
#
# If this CIF has been generated from an entry in the Cambridge 
# Structural Database, then it will include bibliographic, chemical, 
# crystal, experimental, refinement or atomic coordinate data resulting 
# from the CCDC's data processing and validation procedures.
#
#######################################################################

data_HEWNEC
_symmetry_cell_setting           monoclinic
_symmetry_space_group_name_H-M   'P 21/c'
_symmetry_Int_Tables_number      14
_space_group_name_Hall           '-P 2ybc'
loop_
_symmetry_equiv_pos_site_id
_symmetry_equiv_pos_as_xyz
1 x,y,z
2 -x,1/2+y,1/2-z
3 -x,-y,-z
4 x,1/2-y,1/2+z
_cell_length_a                   20.830(3)
_cell_length_b                   15.497(4)
_cell_length_c                   13.90(1)
_cell_angle_alpha                90
_cell_angle_beta                 101.72(3)
_cell_angle_gamma                90
_cell_volume                     4393.41
loop_
_atom_site_label
_atom_site_type_symbol
_atom_site_fract_x
_atom_site_fract_y
_atom_site_fract_z
Ni1 Ni 0.20784(2) 0.43611(6) 0.69430(6)
N1 N 0.29572(29) 0.47004(40) 0.78434(41)
N2 N 0.17578(31) 0.50697(38) 0.80309(43)
N3 N 0.20109(29) 0.54135(37) 0.59884(41)
N4 N 0.11857(29) 0.41433(38) 0.60231(41)
N5 N 0.20446(31) 0.32583(42) 0.77914(45)
N6 N 0.25015(31) 0.28080(40) 0.80741(40)
N7 N 0.29631(32) 0.23865(42) 0.83799(43)
C1 C 0.35554(39) 0.44367(62) 0.77089(63)
C2 C 0.41278(44) 0.47449(71) 0.83198(71)
C3 C 0.40878(52) 0.53102(69) 0.90913(75)
C4 C 0.34647(49) 0.55573(57) 0.92389(64)
C5 C 0.29142(39) 0.52342(47) 0.86065(52)
C6 C 0.22518(41) 0.54105(44) 0.87236(50)
C7 C 0.21103(53) 0.58599(59) 0.95409(64)
C8 C 0.14705(61) 0.59566(67) 0.96309(78)
C9 C 0.09797(53) 0.56055(70) 0.89396(83)
C10 C 0.11291(42) 0.51537(59) 0.81120(63)
C11 C 0.24441(42) 0.60636(54) 0.60410(56)
C12 C 0.23744(47) 0.67332(54) 0.53527(68)
C13 C 0.18267(54) 0.66975(62) 0.45819(67)
C14 C 0.13877(44) 0.60373(58) 0.44990(58)
C15 C 0.15027(36) 0.53954(46) 0.52347(51)
C16 C 0.10577(36) 0.46476(48) 0.52081(51)
C17 C 0.05446(41) 0.44637(56) 0.44102(61)
C18 C 0.01517(45) 0.37536(63) 0.44645(74)
C19 C 0.02604(42) 0.32574(61) 0.53228(79)
C20 C 0.07891(39) 0.34678(53) 0.60815(63)
Ni2 Ni 0.29086(5) 0.10175(6) 0.82591(6)
N8 N 0.29538(34) -0.03284(41) 0.82729(44)
N9 N 0.36969(30) 0.08040(41) 0.94139(40)
N10 N 0.34536(34) 0.11414(39) 0.71707(42)
N11 N 0.21779(33) 0.11168(40) 0.70104(43)
N12 N 0.22699(31) 0.39256(47) 0.42433(50)
N13 N 0.24146(28) 0.37909(40) 0.50977(50)
N14 N 0.25362(31) 0.36503(41) 0.59625(48)
C21 C 0.25587(52) -0.08493(57) 0.76146(65)
C22 C 0.26820(59) -0.17368(66) 0.76118(75)
C23 C 0.32127(67) -0.20866(66) 0.82988(89)
C24 C 0.35975(53) -0.15347(63) 0.89539(73)
C25 C 0.34482(40) -0.06674(54) 0.89404(55)
C26 C 0.38226(36) -0.00308(55) 0.96350(50)
C27 C 0.42922(41) -0.02646(65) 1.04893(61)
C28 C 0.46279(42) 0.03798(71) 1.10676(61)
C29 C 0.45066(40) 0.12268(67) 1.08209(60)
C30 C 0.40195(40) 0.14088(58) 0.99671(57)
C31 C 0.41084(47) 0.11690(59) 0.7327(64)
C32 C 0.44616(52) 0.13144(62) 0.65688(81)
C33 C 0.40866(66) 0.14246(63) 0.56294(86)
C34 C 0.34123(63) 0.14191(55) 0.54530(60)
C35 C 0.31070(44) 0.12727(47) 0.62598(52)
C36 C 0.23846(48) 0.12727(47) 0.61599(54)
C37 C 0.19669(56) 0.14112(62) 0.52773(63)
C38 C 0.13190(65) 0.13859(68) 0.52420(72)
C39 C 0.10715(50) 0.12207(65) 0.60838(94)
C40 C 0.15452(50) 0.10812(59) 0.70120(67)
N12C N 0.22699(31) 0.10744(47) 0.92433(50)
Ni2C Ni 0.29086(5) 0.39825(6) 0.32591(6)
Cl1 Cl 0.56577(13) 0.20703(19) 0.36030(18)
O1 O 0.63118(45) 0.20322(87) 0.40384(69)
O2 O 0.54850(56) 0.13860(85) 0.30369(87)
O3 O 0.53064(46) 0.21580(85) 0.43504(87)
O4 O 0.56439(82) 0.27959(94) 0.3064(10)
Cl2 Cl 0.95129(16) 0.14507(24) 0.31958(19)
O5 O 0.89188(61) 0.1679(13) 0.30406(99)
O6 O 0.95005(78) 0.06739(82) 0.27215(80)
O7 O 0.97257(47) 0.13829(86) 0.42153(58)
O8 O 0.99493(96) 0.1908(10) 0.2879(10)
loop_
_geom_bond_atom_site_label_1
_geom_bond_atom_site_label_2
_geom_bond_site_symmetry_1
_geom_bond_site_symmetry_2
Ni1 N1 1_555 1_555
N1 C1 1_555 1_555
N2 Ni1 1_555 1_555
N3 Ni1 1_555 1_555
N4 Ni1 1_555 1_555
N5 Ni1 1_555 1_555
N6 N5 1_555 1_555
N7 N6 1_555 1_555
C1 C2 1_555 1_555
C2 C3 1_555 1_555
C3 C4 1_555 1_555
C4 C5 1_555 1_555
C5 N1 1_555 1_555
C6 N2 1_555 1_555
C7 C6 1_555 1_555
C8 C7 1_555 1_555
C9 C8 1_555 1_555
C10 N2 1_555 1_555
C11 N3 1_555 1_555
C12 C11 1_555 1_555
C13 C12 1_555 1_555
C14 C13 1_555 1_555
C15 N3 1_555 1_555
C16 N4 1_555 1_555
C17 C16 1_555 1_555
C18 C17 1_555 1_555
C19 C18 1_555 1_555
C20 N4 1_555 1_555
Cl1 O1 1_555 1_555
O2 Cl1 1_555 1_555
O3 Cl1 1_555 1_555
O4 Cl1 1_555 1_555
Ni2 N7 1_555 1_555
N8 Ni2 1_555 1_555
N9 Ni2 1_555 1_555
N10 Ni2 1_555 1_555
N11 Ni2 1_555 1_555
N12 N13 1_555 1_555
N13 N14 1_555 1_555
N14 Ni1 1_555 1_555
C21 N8 1_555 1_555
C22 C21 1_555 1_555
C23 C22 1_555 1_555
C24 C23 1_555 1_555
C25 N8 1_555 1_555
C26 N9 1_555 1_555
C27 C26 1_555 1_555
C28 C27 1_555 1_555
C29 C28 1_555 1_555
C30 N9 1_555 1_555
C31 N10 1_555 1_555
C32 C31 1_555 1_555
C33 C32 1_555 1_555
C34 C33 1_555 1_555
C35 N10 1_555 1_555
C36 N11 1_555 1_555
C37 C36 1_555 1_555
C38 C37 1_555 1_555
C39 C38 1_555 1_555
C40 N11 1_555 1_555
Cl2 O5 1_555 1_555
O6 Cl2 1_555 1_555
O7 Cl2 1_555 1_555
O8 Cl2 1_555 1_555
N12C Ni2 1_555 1_555
Ni2C N12 1_555 1_555
C5 C6 1_555 1_555
C9 C10 1_555 1_555
C14 C15 1_555 1_555
C15 C16 1_555 1_555
C19 C20 1_555 1_555
C24 C25 1_555 1_555
C25 C26 1_555 1_555
C29 C30 1_555 1_555
C34 C35 1_555 1_555
C35 C36 1_555 1_555
C39 C40 1_555 1_555

#END
