
#######################################################################
#
#                 Cambridge Crystallographic Data Centre
#                                CCDC 
#
#######################################################################
#
# If this CIF has been generated from an entry in the Cambridge 
# Structural Database, then it will include bibliographic, chemical, 
# crystal, experimental, refinement or atomic coordinate data resulting 
# from the CCDC's data processing and validation procedures.
#
#######################################################################

data_HEWWEM
_symmetry_cell_setting           triclinic
_symmetry_space_group_name_H-M   'P -1'
_symmetry_Int_Tables_number      2
_space_group_name_Hall           '-P 1'
loop_
_symmetry_equiv_pos_site_id
_symmetry_equiv_pos_as_xyz
1 x,y,z
2 -x,-y,-z
_cell_length_a                   6.2302(13)
_cell_length_b                   12.712(3)
_cell_length_c                   15.650(3)
_cell_angle_alpha                111.814(4)
_cell_angle_beta                 90.354(4)
_cell_angle_gamma                95.088(4)
_cell_volume                     1145.14
loop_
_atom_site_label
_atom_site_type_symbol
_atom_site_fract_x
_atom_site_fract_y
_atom_site_fract_z
Sm1 Sm 0.74397(5) -0.02792(3) 0.07593(2)
O1 O 0.5760(7) -0.2271(4) 0.0197(3)
O2 O 0.4122(6) -0.1136(3) -0.0313(3)
O3 O 0.4335(7) 0.0046(4) 0.1713(3)
O4 O 0.6964(7) -0.0570(4) 0.2250(3)
O5 O 0.9089(7) 0.1449(3) 0.1989(3)
O6 O 1.0961(7) 0.0922(4) 0.0738(3)
N1 N -0.2737(9) -0.5732(4) -0.1757(4)
N2 N -0.1776(9) 0.1835(5) 0.5117(4)
N3 N 1.7888(9) 0.4669(5) 0.3716(4)
C1 C 0.4241(10) -0.2135(6) -0.0245(4)
C2 C 0.2528(11) -0.3055(6) -0.0716(5)
H1 H 0.1381 -0.2893 -0.1015
C3 C 0.2560(11) -0.4074(5) -0.0731(4)
H2 H 0.3775 -0.4243 -0.0477
C4 C 0.0812(10) -0.4977(5) -0.1118(4)
C5 C -0.1177(10) -0.4834(5) -0.1453(4)
H3 H -0.1440 -0.4133 -0.1468
C6 C -0.2362(10) -0.6790(5) -0.1765(4)
H4 H -0.3422 -0.7398 -0.2002
C7 C -0.0499(10) -0.6941(6) -0.1437(5)
H5 H -0.0289 -0.7642 -0.1408
C8 C 0.1048(12) -0.6108(5) -0.1155(5)
H6 H 0.2371 -0.6255 -0.0969
C9 C 0.5273(10) -0.0126(5) 0.2376(4)
C10 C 0.4298(10) 0.0225(5) 0.3297(4)
H7 H 0.5014 0.0112 0.3774
C11 C 0.2454(10) 0.0689(5) 0.3459(4)
H8 H 0.1731 0.0751 0.2961
C12 C 0.1445(10) 0.1114(5) 0.4347(4)
C13 C -0.0624(10) 0.1511(5) 0.4371(4)
H9 H -0.1200 0.1546 0.3833
C14 C -0.0922(12) 0.1810(6) 0.5858(5)
H10 H -0.1754 0.2007 0.6376
C15 C 0.1089(11) 0.1521(6) 0.5952(4)
H11 H 0.1621 0.1569 0.6523
C16 C 0.2365(10) 0.1148(5) 0.5170(4)
H12 H 0.3744 0.0936 0.5205
C17 C 1.0802(10) 0.1548(5) 0.1578(4)
C18 C 1.2610(10) 0.2377(5) 0.2061(4)
H13 H 1.3960 0.2293 0.1807
C19 C 1.2402(11) 0.3256(5) 0.2858(4)
H14 H 1.1045 0.3317 0.3107
C20 C 1.4144(10) 0.4126(5) 0.3366(4)
C21 C 1.6279(10) 0.3904(6) 0.3283(4)
H15 H 1.6597 0.3180 0.2903
C22 C 1.7318(11) 0.5721(6) 0.4258(5)
H16 H 1.8426 0.6277 0.4566
C23 C 1.5334(9) 0.6010(5) 0.4379(4)
H17 H 1.5059 0.6741 0.4759
C24 C 1.3662(11) 0.5187(5) 0.3919(4)
H18 H 1.2236 0.5356 0.3988
Sm1A Sm 0.25603(5) 0.02792(3) -0.07593(2)
Sm1A_2 Sm 1.25603(5) 0.02792(3) -0.07593(2)
O2A O 0.5878(6) 0.1136(3) 0.0313(3)
O6A O 0.9039(7) -0.0922(4) -0.0738(3)
loop_
_geom_bond_atom_site_label_1
_geom_bond_atom_site_label_2
_geom_bond_site_symmetry_1
_geom_bond_site_symmetry_2
Sm1 O1 1_555 1_555
O1 C1 1_555 1_555
O2 Sm1 1_555 1_555
O3 Sm1 1_555 1_555
O4 Sm1 1_555 1_555
O5 Sm1 1_555 1_555
O6 Sm1 1_555 1_555
N1 C5 1_555 1_555
N2 C13 1_555 1_555
N3 C21 1_555 1_555
C1 O2 1_555 1_555
C2 C1 1_555 1_555
H1 C2 1_555 1_555
C3 C2 1_555 1_555
H2 C3 1_555 1_555
C4 C3 1_555 1_555
C5 C4 1_555 1_555
H3 C5 1_555 1_555
C6 N1 1_555 1_555
H4 C6 1_555 1_555
C7 C6 1_555 1_555
H5 C7 1_555 1_555
C8 C4 1_555 1_555
H6 C8 1_555 1_555
C9 O3 1_555 1_555
C10 C9 1_555 1_555
H7 C10 1_555 1_555
C11 C10 1_555 1_555
H8 C11 1_555 1_555
C12 C11 1_555 1_555
C13 C12 1_555 1_555
H9 C13 1_555 1_555
C14 N2 1_555 1_555
H10 C14 1_555 1_555
C15 C14 1_555 1_555
H11 C15 1_555 1_555
C16 C12 1_555 1_555
H12 C16 1_555 1_555
C17 O5 1_555 1_555
C18 C17 1_555 1_555
H13 C18 1_555 1_555
C19 C18 1_555 1_555
H14 C19 1_555 1_555
C20 C19 1_555 1_555
C21 C20 1_555 1_555
H15 C21 1_555 1_555
C22 N3 1_555 1_555
H16 C22 1_555 1_555
C23 C22 1_555 1_555
H17 C23 1_555 1_555
C24 C20 1_555 1_555
H18 C24 1_555 1_555
Sm1A O2 1_555 1_555
Sm1A_2 O6 1_555 1_555
O2A Sm1 1_555 1_555
O6A Sm1 1_555 1_555
O4 C9 1_555 1_555
O6 C17 1_555 1_555
C7 C8 1_555 1_555
C15 C16 1_555 1_555
C23 C24 1_555 1_555
Sm1A O2A 1_555 1_555
Sm1A_2 O6A 1_555 1_555

#END
