
#######################################################################
#
#                 Cambridge Crystallographic Data Centre
#                                CCDC 
#
#######################################################################
#
# If this CIF has been generated from an entry in the Cambridge 
# Structural Database, then it will include bibliographic, chemical, 
# crystal, experimental, refinement or atomic coordinate data resulting 
# from the CCDC's data processing and validation procedures.
#
#######################################################################

data_HEXHID
_symmetry_cell_setting           monoclinic
_symmetry_space_group_name_H-M   'C 2/c'
_symmetry_Int_Tables_number      15
_space_group_name_Hall           '-C 2yn'
loop_
_symmetry_equiv_pos_site_id
_symmetry_equiv_pos_as_xyz
1 x,y,z
2 -x,y,1/2-z
3 1/2+x,1/2+y,z
4 1/2-x,1/2+y,1/2-z
5 -x,-y,-z
6 x,-y,1/2+z
7 1/2-x,1/2-y,-z
8 1/2+x,1/2-y,1/2+z
_cell_length_a                   21.1330(9)
_cell_length_b                   13.3290(6)
_cell_length_c                   18.3660(12)
_cell_angle_alpha                90
_cell_angle_beta                 123.6620(10)
_cell_angle_gamma                90
_cell_volume                     4305.91
loop_
_atom_site_label
_atom_site_type_symbol
_atom_site_fract_x
_atom_site_fract_y
_atom_site_fract_z
Cd1 Cd 1.0000 1.477940(19) 1.2500
Cd2 Cd 0.740816(9) 1.112877(12) 0.885539(11)
C1 C 0.95306(13) 1.25556(19) 1.00133(17)
C2 C 0.99833(13) 1.28847(19) 1.08731(16)
H1 H 0.9892 1.2651 1.1284
C3 C 1.05721(13) 1.35600(18) 1.11264(15)
C4 C 1.06788(13) 1.39570(17) 1.04994(16)
H2 H 1.1067 1.4418 1.0664
C5 C 1.02099(13) 1.36681(18) 0.96319(16)
C6 C 0.96495(13) 1.29464(19) 0.93962(16)
H3 H 0.9352 1.2724 0.8820
C7 C 0.88692(13) 1.18562(19) 0.97163(17)
C8 C 0.54161(13) 0.61998(17) 0.76820(18)
C9 C 0.58708(13) 0.70535(17) 0.80412(17)
H4 H 0.5659 0.7655 0.8064
C10 C 0.66406(13) 0.70017(17) 0.83651(17)
C11 C 0.69757(14) 0.61102(17) 0.83592(19)
H5 H 0.7490 0.6082 0.8572
C12 C 0.65221(14) 0.52616(17) 0.80275(18)
C13 C 0.57552(14) 0.53054(18) 0.76790(19)
H6 H 0.5460 0.4731 0.7439
C14 C 1.10941(14) 1.38634(17) 1.20657(16)
C15 C 1.02492(13) 1.41783(18) 0.89285(16)
C16 C 0.69186(14) 0.88271(17) 0.85221(17)
H7 H 0.6438 0.9034 0.8068
C17 C 0.80857(16) 0.8837(2) 0.9597(2)
H8 H 0.8568 0.9066 1.0030
C18 C 0.78733(15) 0.7867(2) 0.9445(2)
H9 H 0.8173 0.7312 0.9745
C19 C 0.67873(14) 0.34617(17) 0.83908(17)
H10 H 0.6496 0.3390 0.8625
C20 C 0.75282(17) 0.3157(2) 0.7965(2)
H11 H 0.7847 0.2817 0.7849
C21 C 0.73325(19) 0.4129(2) 0.7786(2)
H12 H 0.7490 0.4580 0.7532
H13 H 0.6729(19) 1.178(3) 0.968(2)
H14 H 0.659(2) 1.084(3) 0.955(3)
N1 N 0.71185(11) 0.78644(14) 0.87525(14)
N2 N 0.74865(11) 0.94374(15) 0.90183(14)
N3 N 0.68554(11) 0.43214(15) 0.80518(15)
N4 N 0.71844(12) 0.27438(14) 0.83464(14)
O1 O 0.85581(11) 1.18656(15) 1.01376(13)
O2 O 0.86218(11) 1.13488(14) 0.90386(14)
O3 O 0.97089(11) 1.40263(14) 0.81499(12)
O4 O 1.07838(12) 1.47471(17) 0.91125(14)
O5 O 1.08647(11) 1.37978(14) 1.25759(12)
O6 O 1.17517(10) 1.41268(14) 1.23234(12)
O7 O 0.68873(12) 1.12273(19) 0.96647(15)
C8A C 0.45839(13) 0.61998(17) 0.73180(18)
C9A C 0.41292(13) 0.70535(17) 0.69588(17)
H4A H 0.4341 0.7655 0.6936
C10A C 0.33594(13) 0.70017(17) 0.66349(17)
C11A C 0.30243(14) 0.61102(17) 0.66408(19)
H5A H 0.2510 0.6082 0.6428
C12A C 0.34779(14) 0.52616(17) 0.69725(18)
C13A C 0.42448(14) 0.53054(18) 0.73210(19)
H6A H 0.4540 0.4731 0.7561
C16A C 0.30814(14) 0.88271(17) 0.64779(17)
H7A H 0.3562 0.9034 0.6932
C17A C 0.19143(16) 0.8837(2) 0.5403(2)
H8A H 0.1432 0.9066 0.4970
C18A C 0.21267(15) 0.7867(2) 0.5555(2)
H9A H 0.1827 0.7312 0.5255
C19A C 0.32127(14) 0.34617(17) 0.66092(17)
H10A H 0.3504 0.3390 0.6375
C20A C 0.24718(17) 0.3157(2) 0.7035(2)
H11A H 0.2153 0.2817 0.7151
C21A C 0.26675(19) 0.4129(2) 0.7214(2)
H12A H 0.2510 0.4580 0.7468
N1A N 0.28815(11) 0.78644(14) 0.62475(14)
N2A N 0.25135(11) 0.94374(15) 0.59817(14)
N3A N 0.31446(11) 0.43214(15) 0.69482(15)
N4A N 0.28156(12) 0.27438(14) 0.66536(14)
Cd2A Cd 0.259184(9) 1.112877(12) 0.614461(11)
C1A C 0.04694(13) 1.25556(19) 0.49867(17)
C2A C 0.00167(13) 1.28847(19) 0.41269(16)
H1A H 0.0108 1.2651 0.3716
C3A C -0.05721(13) 1.35600(18) 0.38736(15)
C4A C -0.06788(13) 1.39570(17) 0.45006(16)
H2A H -0.1067 1.4418 0.4336
C5A C -0.02099(13) 1.36681(18) 0.53681(16)
C6A C 0.03505(13) 1.29464(19) 0.56038(16)
H3A H 0.0648 1.2724 0.6180
C7A C 0.11308(13) 1.18562(19) 0.52837(17)
C14A C -0.10941(14) 1.38634(17) 0.29343(16)
C15A C -0.02492(13) 1.41783(18) 0.60715(16)
H13A H 0.3271(19) 1.178(3) 0.532(2)
H14A H 0.341(2) 1.084(3) 0.545(3)
O1A O 0.14419(11) 1.18656(15) 0.48624(13)
O2A O 0.13782(11) 1.13488(14) 0.59614(14)
O3A O 0.02911(11) 1.40263(14) 0.68501(12)
O4A O -0.07838(12) 1.47471(17) 0.58875(14)
O5A O -0.08647(11) 1.37978(14) 0.24241(12)
O6A O -0.17517(10) 1.41268(14) 0.26766(12)
O7A O 0.31127(12) 1.12273(19) 0.53353(15)
Cd1_2 Cd 0.0000 1.477940(19) 0.2500
Cd1D Cd 0.0000 1.522060(19) 0.7500
Cd1D_2 Cd 1.0000 1.522060(19) 0.7500
Cd2_2 Cd 0.740816(9) 0.112877(12) 0.885539(11)
Cd2A_2 Cd 0.259184(9) 0.112877(12) 0.614461(11)
Cd2F Cd -0.240816(9) 1.387123(12) 0.114461(11)
Cd2G Cd 1.240816(9) 1.387123(12) 1.385539(11)
N4_2 N 0.71844(12) 1.27438(14) 0.83464(14)
N4A_2 N 0.28156(12) 1.27438(14) 0.66536(14)
O3D O 1.02911(11) 1.59737(14) 1.18501(12)
O3E O 0.97089(11) 1.59737(14) 1.31499(12)
O4D O 0.92162(12) 1.52529(17) 1.08875(14)
O4E O 1.07838(12) 1.52529(17) 1.41125(14)
O5A_2 O 0.91353(11) 1.37978(14) 1.24241(12)
O5F O 0.41353(11) 1.12022(14) 0.74241(12)
O5G O 0.58647(11) 1.12022(14) 0.75759(12)
O6F O 0.32483(10) 1.08732(14) 0.76766(12)
O6G O 0.67517(10) 1.08732(14) 0.73234(12)
loop_
_geom_bond_atom_site_label_1
_geom_bond_atom_site_label_2
_geom_bond_site_symmetry_1
_geom_bond_site_symmetry_2
Cd1 O5 1_555 1_555
Cd2 N2 1_555 1_555
C1 C2 1_555 1_555
C2 H1 1_555 1_555
C3 C2 1_555 1_555
C4 C3 1_555 1_555
H2 C4 1_555 1_555
C5 C4 1_555 1_555
C6 C1 1_555 1_555
H3 C6 1_555 1_555
C7 C1 1_555 1_555
C8 C9 1_555 1_555
C9 H4 1_555 1_555
C10 C9 1_555 1_555
C11 C10 1_555 1_555
H5 C11 1_555 1_555
C12 C11 1_555 1_555
C13 C8 1_555 1_555
H6 C13 1_555 1_555
C14 C3 1_555 1_555
C15 C5 1_555 1_555
C16 H7 1_555 1_555
C17 H8 1_555 1_555
C18 C17 1_555 1_555
H9 C18 1_555 1_555
C19 H10 1_555 1_555
C20 H11 1_555 1_555
C21 C20 1_555 1_555
H12 C21 1_555 1_555
H13 O7 1_555 1_555
H14 O7 1_555 1_555
N1 C10 1_555 1_555
N2 C16 1_555 1_555
N3 C12 1_555 1_555
N4 C19 1_555 1_555
O1 Cd2 1_555 1_555
O2 Cd2 1_555 1_555
O3 C15 1_555 1_555
O4 C15 1_555 1_555
O5 C14 1_555 1_555
O6 C14 1_555 1_555
O7 Cd2 1_555 1_555
C8A C8 1_555 1_555
C9A C8A 1_555 1_555
H4A C9A 1_555 1_555
C10A C9A 1_555 1_555
C11A C10A 1_555 1_555
H5A C11A 1_555 1_555
C12A C11A 1_555 1_555
C13A C8A 1_555 1_555
H6A C13A 1_555 1_555
C16A H7A 1_555 1_555
C17A H8A 1_555 1_555
C18A C17A 1_555 1_555
H9A C18A 1_555 1_555
C19A H10A 1_555 1_555
C20A H11A 1_555 1_555
C21A C20A 1_555 1_555
H12A C21A 1_555 1_555
N1A C10A 1_555 1_555
N2A C16A 1_555 1_555
N3A C12A 1_555 1_555
N4A C19A 1_555 1_555
Cd2A N2A 1_555 1_555
C1A C2A 1_555 1_555
C2A H1A 1_555 1_555
C3A C2A 1_555 1_555
C4A C3A 1_555 1_555
H2A C4A 1_555 1_555
C5A C4A 1_555 1_555
C6A C1A 1_555 1_555
H3A C6A 1_555 1_555
C7A C1A 1_555 1_555
C14A C3A 1_555 1_555
C15A C5A 1_555 1_555
H13A O7A 1_555 1_555
H14A O7A 1_555 1_555
O1A Cd2A 1_555 1_555
O2A Cd2A 1_555 1_555
O3A C15A 1_555 1_555
O4A C15A 1_555 1_555
O5A C14A 1_555 1_555
O6A C14A 1_555 1_555
O7A Cd2A 1_555 1_555
Cd1_2 O5A 1_555 1_555
Cd1D O3A 1_555 1_555
Cd1D_2 O3 1_555 1_555
Cd2_2 N4 1_555 1_555
Cd2A_2 N4A 1_555 1_555
Cd2F O5A 1_555 1_555
Cd2G O5 1_555 1_555
N4_2 Cd2 1_555 1_555
N4A_2 Cd2A 1_555 1_555
O3D Cd1 1_555 1_555
O3E Cd1 1_555 1_555
O4D Cd1 1_555 1_555
O4E Cd1 1_555 1_555
O5A_2 Cd1 1_555 1_555
O5F Cd2A 1_555 1_555
O5G Cd2 1_555 1_555
O6F Cd2A 1_555 1_555
O6G Cd2 1_555 1_555
C5 C6 1_555 1_555
C7 O1 1_555 1_555
C7 O2 1_555 1_555
C12 C13 1_555 1_555
C16 N1 1_555 1_555
C17 N2 1_555 1_555
C18 N1 1_555 1_555
C19 N3 1_555 1_555
C20 N4 1_555 1_555
C21 N3 1_555 1_555
O4 Cd1D_2 1_555 1_555
O6 Cd2G 1_555 1_555
C12A C13A 1_555 1_555
C16A N1A 1_555 1_555
C17A N2A 1_555 1_555
C18A N1A 1_555 1_555
C19A N3A 1_555 1_555
C20A N4A 1_555 1_555
C21A N3A 1_555 1_555
C5A C6A 1_555 1_555
C7A O1A 1_555 1_555
C7A O2A 1_555 1_555
O4A Cd1D 1_555 1_555
O6A Cd2F 1_555 1_555

#END
