
#######################################################################
#
#                 Cambridge Crystallographic Data Centre
#                                CCDC 
#
#######################################################################
#
# If this CIF has been generated from an entry in the Cambridge 
# Structural Database, then it will include bibliographic, chemical, 
# crystal, experimental, refinement or atomic coordinate data resulting 
# from the CCDC's data processing and validation procedures.
#
#######################################################################

data_HEXKEB
_symmetry_cell_setting           monoclinic
_symmetry_space_group_name_H-M   'C 2/m'
_symmetry_Int_Tables_number      12
_space_group_name_Hall           '-C 2y'
loop_
_symmetry_equiv_pos_site_id
_symmetry_equiv_pos_as_xyz
1 x,y,z
2 1/2+x,1/2+y,z
3 -x,y,-z
4 1/2-x,1/2+y,-z
5 -x,-y,-z
6 1/2-x,1/2-y,-z
7 x,-y,z
8 1/2+x,1/2-y,z
_cell_length_a                   18.230(4)
_cell_length_b                   14.013(3)
_cell_length_c                   7.3665(17)
_cell_angle_alpha                90
_cell_angle_beta                 90.230(4)
_cell_angle_gamma                90
_cell_volume                     1881.81
loop_
_atom_site_label
_atom_site_type_symbol
_atom_site_fract_x
_atom_site_fract_y
_atom_site_fract_z
C1 C 0.09685(13) 0.81988(16) 0.5041(3)
H1 H 0.0903 0.8294 0.6280
C2 C 0.13636(13) 0.74184(17) 0.4483(3)
C3 C 0.14823(14) 0.72930(19) 0.2654(3)
H2 H 0.1764 0.6786 0.2235
C4 C 0.11767(13) 0.79284(18) 0.1470(3)
H3 H 0.1240 0.7851 0.0227
C5 C 0.07829(13) 0.86682(18) 0.2104(3)
H4 H 0.0577 0.9089 0.1269
C6 C 0.16645(14) 0.67748(17) 0.5940(4)
C7 C 0.24058(15) 0.55336(17) 0.6447(4)
H5 H 0.2250 0.5737 0.7644
H6 H 0.2911 0.5737 0.6311
C8 C -0.1226(2) 1.0000 0.1995(5)
Co1 Co 0.0000 1.0000 0.5000
N1 N 0.06716(11) 0.88313(14) 0.3880(3)
N2 N -0.06455(16) 1.0000 0.2660(4)
O1 O 0.20023(9) 0.60314(11) 0.5223(2)
O2 O 0.16229(9) 0.69317(13) 0.7475(3)
S1 S -0.20171(6) 1.0000 0.11458(13)
C1F C 0.09685(13) 0.18012(16) 0.5041(3)
C1F_2 C 0.09685(13) 1.18012(16) 0.5041(3)
C1_2 C 0.09685(13) 1.81988(16) 0.5041(3)
H1F H 0.0903 0.1706 0.6280
H1F_2 H 0.0903 1.1706 0.6280
H1_2 H 0.0903 1.8294 0.6280
C2F C 0.13636(13) 0.25816(17) 0.4483(3)
C2F_2 C 0.13636(13) 1.25816(17) 0.4483(3)
C2_2 C 0.13636(13) 1.74184(17) 0.4483(3)
C3F C 0.14823(14) 0.27070(19) 0.2654(3)
C3F_2 C 0.14823(14) 1.27070(19) 0.2654(3)
C3_2 C 0.14823(14) 1.72930(19) 0.2654(3)
H2F H 0.1764 0.3214 0.2235
H2F_2 H 0.1764 1.3214 0.2235
H2_2 H 0.1764 1.6786 0.2235
C4F C 0.11767(13) 0.20716(18) 0.1470(3)
C4F_2 C 0.11767(13) 1.20716(18) 0.1470(3)
C4_2 C 0.11767(13) 1.79284(18) 0.1470(3)
H3F H 0.1240 0.2149 0.0227
H3F_2 H 0.1240 1.2149 0.0227
H3_2 H 0.1240 1.7851 0.0227
C5F C 0.07829(13) 0.13318(18) 0.2104(3)
C5F_2 C 0.07829(13) 1.13318(18) 0.2104(3)
C5_2 C 0.07829(13) 1.86682(18) 0.2104(3)
H4F H 0.0577 0.0911 0.1269
H4F_2 H 0.0577 1.0911 0.1269
H4_2 H 0.0577 1.9089 0.1269
C6F C 0.16645(14) 0.32252(17) 0.5940(4)
C6F_2 C 0.16645(14) 1.32252(17) 0.5940(4)
C6_2 C 0.16645(14) 1.67748(17) 0.5940(4)
C7F C 0.24058(15) 0.44664(17) 0.6447(4)
C7F_2 C 0.24058(15) 1.44664(17) 0.6447(4)
C7_2 C 0.24058(15) 1.55336(17) 0.6447(4)
H5F H 0.2250 0.4263 0.7644
H5F_2 H 0.2250 1.4263 0.7644
H5_2 H 0.2250 1.5737 0.7644
H6F H 0.2911 0.4263 0.6311
H6F_2 H 0.2911 1.4263 0.6311
H6_2 H 0.2911 1.5737 0.6311
C8D C 0.1226(2) 1.0000 0.8005(5)
Co1_2 Co 0.0000 0.0000 0.5000
Co1_3 Co 0.0000 2.0000 0.5000
N1F N 0.06716(11) 0.11687(14) 0.3880(3)
N1F_2 N 0.06716(11) 1.11687(14) 0.3880(3)
N1_2 N 0.06716(11) 1.88313(14) 0.3880(3)
N1D N -0.06716(11) 1.11687(14) 0.6120(3)
N1B N -0.06716(11) 0.88313(14) 0.6120(3)
N2D N 0.06455(16) 1.0000 0.7340(4)
O1F O 0.20023(9) 0.39686(11) 0.5223(2)
O1F_2 O 0.20023(9) 1.39686(11) 0.5223(2)
O1_2 O 0.20023(9) 1.60314(11) 0.5223(2)
O2F O 0.16229(9) 0.30683(13) 0.7475(3)
O2F_2 O 0.16229(9) 1.30683(13) 0.7475(3)
O2_2 O 0.16229(9) 1.69317(13) 0.7475(3)
S1D S 0.20171(6) 1.0000 0.88542(13)
O3 O 0.99338(18) 0.5558(2) 0.3266(4)
H7? H 0.9480 0.5692 0.3355
H8? H 1.0188 0.6030 0.3624
O4? O 0.9780(3) 0.5634(4) 0.0675(8)
H9? H 0.9328 0.5630 0.0955
H10? H 0.9869 0.5178 -0.0053
loop_
_geom_bond_atom_site_label_1
_geom_bond_atom_site_label_2
_geom_bond_site_symmetry_1
_geom_bond_site_symmetry_2
C1 H1 1_555 1_555
C2 C1 1_555 1_555
C3 C2 1_555 1_555
H2 C3 1_555 1_555
C4 C3 1_555 1_555
H3 C4 1_555 1_555
C5 C4 1_555 1_555
H4 C5 1_555 1_555
C6 C2 1_555 1_555
C7 H5 1_555 1_555
H6 C7 1_555 1_555
C8 N2 1_555 1_555
Co1 N1 1_555 1_555
N1 C1 1_555 1_555
N2 Co1 1_555 1_555
O1 C6 1_555 1_555
O2 C6 1_555 1_555
S1 C8 1_555 1_555
C1F H1F 1_555 1_555
C1F_2 H1F_2 1_555 1_555
C1_2 H1_2 1_555 1_555
C2F C1F 1_555 1_555
C2F_2 C1F_2 1_555 1_555
C2_2 C1_2 1_555 1_555
C3F C2F 1_555 1_555
C3F_2 C2F_2 1_555 1_555
C3_2 C2_2 1_555 1_555
H2F C3F 1_555 1_555
H2F_2 C3F_2 1_555 1_555
H2_2 C3_2 1_555 1_555
C4F C3F 1_555 1_555
C4F_2 C3F_2 1_555 1_555
C4_2 C3_2 1_555 1_555
H3F C4F 1_555 1_555
H3F_2 C4F_2 1_555 1_555
H3_2 C4_2 1_555 1_555
C5F C4F 1_555 1_555
C5F_2 C4F_2 1_555 1_555
C5_2 C4_2 1_555 1_555
H4F C5F 1_555 1_555
H4F_2 C5F_2 1_555 1_555
H4_2 C5_2 1_555 1_555
C6F C2F 1_555 1_555
C6F_2 C2F_2 1_555 1_555
C6_2 C2_2 1_555 1_555
C7F C7 1_555 1_555
C7F_2 C7_2 1_555 1_555
C7_2 H5_2 1_555 1_555
H5F C7F 1_555 1_555
H5F_2 C7F_2 1_555 1_555
H6F C7F 1_555 1_555
H6F_2 C7F_2 1_555 1_555
H6_2 C7_2 1_555 1_555
C8D N2D 1_555 1_555
Co1_2 N1F 1_555 1_555
Co1_3 N1_2 1_555 1_555
N1F C1F 1_555 1_555
N1F_2 Co1 1_555 1_555
N1_2 C1_2 1_555 1_555
N1D Co1 1_555 1_555
N1B Co1 1_555 1_555
N2D Co1 1_555 1_555
O1F C6F 1_555 1_555
O1F_2 C6F_2 1_555 1_555
O1_2 C6_2 1_555 1_555
O2F C6F 1_555 1_555
O2F_2 C6F_2 1_555 1_555
O2_2 C6_2 1_555 1_555
S1D C8D 1_555 1_555
C5 N1 1_555 1_555
C7 O1 1_555 1_555
C1F_2 N1F_2 1_555 1_555
C5F N1F 1_555 1_555
C5F_2 N1F_2 1_555 1_555
C5_2 N1_2 1_555 1_555
C7F O1F 1_555 1_555
C7F_2 O1F_2 1_555 1_555
C7_2 O1_2 1_555 1_555

#END
