
#######################################################################
#
#                 Cambridge Crystallographic Data Centre
#                                CCDC 
#
#######################################################################
#
# If this CIF has been generated from an entry in the Cambridge 
# Structural Database, then it will include bibliographic, chemical, 
# crystal, experimental, refinement or atomic coordinate data resulting 
# from the CCDC's data processing and validation procedures.
#
#######################################################################

data_HEXKUR
_symmetry_cell_setting           monoclinic
_symmetry_space_group_name_H-M   'P 21/n'
_symmetry_Int_Tables_number      14
_space_group_name_Hall           '-P 2yn'
loop_
_symmetry_equiv_pos_site_id
_symmetry_equiv_pos_as_xyz
1 x,y,z
2 1/2-x,1/2+y,1/2-z
3 -x,-y,-z
4 1/2+x,1/2-y,1/2+z
_cell_length_a                   13.435(3)
_cell_length_b                   16.000(4)
_cell_length_c                   14.127(3)
_cell_angle_alpha                90
_cell_angle_beta                 95.479(4)
_cell_angle_gamma                90
_cell_volume                     3022.87
loop_
_atom_site_label
_atom_site_type_symbol
_atom_site_fract_x
_atom_site_fract_y
_atom_site_fract_z
C1 C 0.6536(2) 0.43862(18) 0.3138(2)
C2 C 0.7262(2) 0.40989(18) 0.2585(2)
H1 H 0.7274 0.3534 0.2433
C3 C 0.7966(2) 0.46180(19) 0.2253(2)
C4 C 0.7934(3) 0.5458(2) 0.2452(2)
H2 H 0.8392 0.5820 0.2214
C5 C 0.7230(3) 0.5763(2) 0.3000(2)
H3 H 0.7223 0.6333 0.3130
C6 C 0.6511(2) 0.52464(19) 0.3378(2)
C7 C 0.5844(2) 0.37399(18) 0.3462(2)
C8 C 1.2832(3) 0.3082(3) 0.2975(3)
H4 H 1.3170 0.3390 0.2548
C9 C 1.1842(4) 0.2974(3) 0.2911(4)
H5 H 1.1375 0.3193 0.2448
C10 C 1.2531(3) 0.2338(3) 0.4129(3)
H6 H 1.2609 0.2022 0.4684
C11 C 1.0673(3) 0.2221(3) 0.3920(4)
H7 H 1.0742 0.1681 0.4230
H8 H 1.0213 0.2158 0.3352
C12 C 1.0246(3) 0.2831(3) 0.4575(3)
C13 C 1.0512(3) 0.2810(3) 0.5542(4)
H9 H 1.0952 0.2402 0.5797
C14 C 1.0136(3) 0.3387(3) 0.6133(3)
H10 H 1.0317 0.3359 0.6784
C15 C 0.9493(3) 0.4008(3) 0.5774(3)
C16 C 0.9211(3) 0.4004(3) 0.4817(3)
H11 H 0.8759 0.4403 0.4560
C17 C 0.9580(3) 0.3423(3) 0.4232(3)
H12 H 0.9372 0.3433 0.3585
C18 C 0.9091(3) 0.4673(4) 0.6400(4)
H13 H 0.9416 0.4617 0.7041
H14 H 0.9258 0.5220 0.6164
C19 C 0.7517(3) 0.4131(3) 0.6997(3)
H15 H 0.7797 0.3785 0.7480
C20 C 0.6543(3) 0.4234(3) 0.6737(3)
H16 H 0.6027 0.3965 0.7009
C21 C 0.7324(3) 0.5009(3) 0.5846(3)
H17 H 0.7471 0.5387 0.5379
C22 C 1.7264(3) 0.2384(2) 0.4977(4)
H18 H 1.7322 0.2950 0.4839
C23 C 1.8021(3) 0.1896(3) 0.5314(4)
H19 H 1.8686 0.2052 0.5446
C24 C 1.6659(3) 0.1194(2) 0.5152(3)
H20 H 1.6212 0.0751 0.5165
C25 C 1.8157(3) 0.0385(2) 0.5832(3)
H21 H 1.7718 -0.0095 0.5745
H22 H 1.8313 0.0469 0.6510
C26 C 1.9095(3) 0.0207(2) 0.5396(3)
C27 C 2.0032(3) 0.0203(3) 0.5935(3)
H23 H 2.0061 0.0343 0.6576
C28 C 1.9125(3) -0.0007(4) 0.4432(3)
H24 H 1.8531 -0.0011 0.4037
Cd1 Cd 1.489450(17) 0.248170(14) 0.430620(18)
Cd2 Cd 0.5000 0.5000 0.5000
N1 N 1.3272(2) 0.26826(19) 0.3744(2)
N2 N 1.1651(2) 0.24861(19) 0.3645(3)
N3 N 0.6423(2) 0.4797(2) 0.6007(2)
N4 N 0.8016(2) 0.4620(2) 0.6431(2)
N5 N 1.6400(2) 0.19445(17) 0.4864(2)
N6 N 1.7629(2) 0.11296(17) 0.5424(2)
O1 O 0.54328(18) 0.38433(13) 0.42212(16)
O2 O 0.57047(19) 0.30815(14) 0.30102(17)
O3 O 0.58696(18) 0.55841(13) 0.38894(17)
O4 O 0.8347(2) 0.41650(18) 0.05751(17)
O5 O 0.9120(2) 0.34025(16) 0.19092(18)
O6 O 0.96670(19) 0.47774(17) 0.1584(2)
O7 O 1.43792(17) 0.10915(14) 0.40507(16)
H25 H 1.4088 0.0924 0.4524
H26 H 1.4888 0.0787 0.3990
O8 O 1.4521(3) 0.28438(16) 0.5781(2)
H27 H 1.4226 0.2438 0.6025
H28 H 1.4139 0.3268 0.5741
S1 S 0.88368(6) 0.42130(5) 0.15254(6)
C1B C 0.3464(2) 0.56138(18) 0.6862(2)
C2B C 0.2738(2) 0.59011(18) 0.7415(2)
H1B H 0.2726 0.6466 0.7567
C3B C 0.2034(2) 0.53820(19) 0.7747(2)
C4B C 0.2066(3) 0.4542(2) 0.7548(2)
H2B H 0.1608 0.4180 0.7786
C5B C 0.2770(3) 0.4237(2) 0.7000(2)
H3B H 0.2777 0.3667 0.6870
C6B C 0.3489(2) 0.47536(19) 0.6622(2)
C7B C 0.4156(2) 0.62601(18) 0.6538(2)
C8B C -0.2832(3) 0.6918(3) 0.7025(3)
H4B H -0.3170 0.6610 0.7452
C9B C -0.1842(4) 0.7026(3) 0.7089(4)
H5B H -0.1375 0.6807 0.7552
C10B C -0.2531(3) 0.7662(3) 0.5871(3)
H6B H -0.2609 0.7978 0.5316
C11B C -0.0673(3) 0.7779(3) 0.6080(4)
H7B H -0.0742 0.8319 0.5770
H8B H -0.0213 0.7842 0.6648
C12B C -0.0246(3) 0.7169(3) 0.5425(3)
C13B C -0.0512(3) 0.7190(3) 0.4458(4)
H9B H -0.0952 0.7598 0.4203
C14B C -0.0136(3) 0.6613(3) 0.3867(3)
H10B H -0.0317 0.6641 0.3216
C15B C 0.0507(3) 0.5992(3) 0.4226(3)
C16B C 0.0789(3) 0.5996(3) 0.5183(3)
H11B H 0.1241 0.5597 0.5440
C17B C 0.0420(3) 0.6577(3) 0.5768(3)
H12B H 0.0628 0.6567 0.6415
C18B C 0.0909(3) 0.5327(4) 0.3600(4)
H13B H 0.0584 0.5383 0.2959
H14B H 0.0742 0.4780 0.3836
C19B C 0.2483(3) 0.5869(3) 0.3003(3)
H15B H 0.2203 0.6215 0.2520
C20B C 0.3457(3) 0.5766(3) 0.3263(3)
H16B H 0.3973 0.6035 0.2991
C21B C 0.2676(3) 0.4991(3) 0.4154(3)
H17B H 0.2529 0.4613 0.4621
C22B C 2.2736(3) -0.2384(2) 0.5023(4)
H18B H 2.2678 -0.2950 0.5161
C23B C 2.1979(3) -0.1896(3) 0.4686(4)
H19B H 2.1314 -0.2052 0.4554
C24B C 2.3341(3) -0.1194(2) 0.4848(3)
H20B H 2.3788 -0.0751 0.4835
C25B C 2.1843(3) -0.0385(2) 0.4168(3)
H21B H 2.2282 0.0095 0.4255
H22B H 2.1687 -0.0469 0.3490
C26B C 2.0905(3) -0.0207(2) 0.4604(3)
C27B C 1.9968(3) -0.0203(3) 0.4065(3)
H23B H 1.9939 -0.0343 0.3424
C28B C 2.0875(3) 0.0007(4) 0.5568(3)
H24B H 2.1469 0.0011 0.5963
Cd1B Cd -0.489450(17) 0.751830(14) 0.569380(18)
Cd1_2 Cd 0.489450(17) 0.248170(14) 0.430620(18)
Cd1B_2 Cd 2.510550(17) -0.248170(14) 0.569380(18)
Cd1B_3 Cd 0.510550(17) 0.751830(14) 0.569380(18)
N1B N -0.3272(2) 0.73174(19) 0.6256(2)
N2B N -0.1651(2) 0.75139(19) 0.6355(3)
N3B N 0.3577(2) 0.5203(2) 0.3993(2)
N4B N 0.1984(2) 0.5380(2) 0.3569(2)
N5B N 2.3600(2) -0.19445(17) 0.5136(2)
N5B_2 N -0.6400(2) 0.80555(17) 0.5136(2)
N6B N 2.2371(2) -0.11296(17) 0.4576(2)
O1B O 0.45672(18) 0.61567(13) 0.57788(16)
O1_2 O 1.54328(18) 0.38433(13) 0.42212(16)
O1B_2 O -0.54328(18) 0.61567(13) 0.57788(16)
O2B O 0.42953(19) 0.69185(14) 0.69898(17)
O2_2 O 1.57047(19) 0.30815(14) 0.30102(17)
O2B_2 O -0.57047(19) 0.69185(14) 0.69898(17)
O3B O 0.41304(18) 0.44159(13) 0.61106(17)
O4B O 0.1653(2) 0.58350(18) 0.94249(17)
O5B O 0.0880(2) 0.65975(16) 0.80908(18)
O6B O 0.03330(19) 0.52226(17) 0.8416(2)
O7B O -0.43792(17) 0.89085(14) 0.59493(16)
H25B H -0.4088 0.9076 0.5476
H26B H -0.4888 0.9213 0.6010
O8B O -0.4521(3) 0.71562(16) 0.4219(2)
H27B H -0.4226 0.7562 0.3975
H28B H -0.4139 0.6732 0.4259
S1B S 0.11632(6) 0.57870(5) 0.84746(6)
loop_
_geom_bond_atom_site_label_1
_geom_bond_atom_site_label_2
_geom_bond_site_symmetry_1
_geom_bond_site_symmetry_2
C1 C2 1_555 1_555
C2 H1 1_555 1_555
C3 C2 1_555 1_555
C4 C3 1_555 1_555
H2 C4 1_555 1_555
C5 C4 1_555 1_555
H3 C5 1_555 1_555
C6 C1 1_555 1_555
C7 C1 1_555 1_555
C8 H4 1_555 1_555
C9 C8 1_555 1_555
H5 C9 1_555 1_555
C10 H6 1_555 1_555
C11 H7 1_555 1_555
H8 C11 1_555 1_555
C12 C11 1_555 1_555
C13 C12 1_555 1_555
H9 C13 1_555 1_555
C14 C13 1_555 1_555
H10 C14 1_555 1_555
C15 C14 1_555 1_555
C16 C15 1_555 1_555
H11 C16 1_555 1_555
C17 C12 1_555 1_555
H12 C17 1_555 1_555
C18 C15 1_555 1_555
H13 C18 1_555 1_555
H14 C18 1_555 1_555
C19 H15 1_555 1_555
C20 C19 1_555 1_555
H16 C20 1_555 1_555
C21 H17 1_555 1_555
C22 H18 1_555 1_555
C23 C22 1_555 1_555
H19 C23 1_555 1_555
C24 H20 1_555 1_555
C25 H21 1_555 1_555
H22 C25 1_555 1_555
C26 C25 1_555 1_555
C27 C26 1_555 1_555
H23 C27 1_555 1_555
C28 C26 1_555 1_555
H24 C28 1_555 1_555
Cd1 N1 1_555 1_555
Cd2 N3 1_555 1_555
N1 C8 1_555 1_555
N2 C9 1_555 1_555
N3 C20 1_555 1_555
N4 C18 1_555 1_555
N5 C22 1_555 1_555
N6 C23 1_555 1_555
O1 C7 1_555 1_555
O2 C7 1_555 1_555
O3 C6 1_555 1_555
O4 S1 1_555 1_555
O5 S1 1_555 1_555
O6 S1 1_555 1_555
O7 Cd1 1_555 1_555
H25 O7 1_555 1_555
H26 O7 1_555 1_555
O8 Cd1 1_555 1_555
H27 O8 1_555 1_555
H28 O8 1_555 1_555
S1 C3 1_555 1_555
C1B C2B 1_555 1_555
C2B H1B 1_555 1_555
C3B C2B 1_555 1_555
C4B C3B 1_555 1_555
H2B C4B 1_555 1_555
C5B C4B 1_555 1_555
H3B C5B 1_555 1_555
C6B C1B 1_555 1_555
C7B C1B 1_555 1_555
C8B H4B 1_555 1_555
C9B C8B 1_555 1_555
H5B C9B 1_555 1_555
C10B H6B 1_555 1_555
C11B H7B 1_555 1_555
H8B C11B 1_555 1_555
C12B C11B 1_555 1_555
C13B C12B 1_555 1_555
H9B C13B 1_555 1_555
C14B C13B 1_555 1_555
H10B C14B 1_555 1_555
C15B C14B 1_555 1_555
C16B C15B 1_555 1_555
H11B C16B 1_555 1_555
C17B C12B 1_555 1_555
H12B C17B 1_555 1_555
C18B C15B 1_555 1_555
H13B C18B 1_555 1_555
H14B C18B 1_555 1_555
C19B H15B 1_555 1_555
C20B C19B 1_555 1_555
H16B C20B 1_555 1_555
C21B H17B 1_555 1_555
C22B H18B 1_555 1_555
C23B C22B 1_555 1_555
H19B C23B 1_555 1_555
C24B H20B 1_555 1_555
C25B H21B 1_555 1_555
H22B C25B 1_555 1_555
C26B C25B 1_555 1_555
C27B C28 1_555 1_555
H23B C27B 1_555 1_555
C28B C27 1_555 1_555
H24B C28B 1_555 1_555
Cd1B N1B 1_555 1_555
Cd1_2 O1 1_555 1_555
Cd1B_2 N5B 1_555 1_555
Cd1B_3 O1B 1_555 1_555
N1B C8B 1_555 1_555
N2B C9B 1_555 1_555
N3B Cd2 1_555 1_555
N4B C18B 1_555 1_555
N5B C22B 1_555 1_555
N5B_2 Cd1B 1_555 1_555
N6B C23B 1_555 1_555
O1B Cd2 1_555 1_555
O1_2 Cd1 1_555 1_555
O1B_2 Cd1B 1_555 1_555
O2B C7B 1_555 1_555
O2_2 Cd1 1_555 1_555
O2B_2 Cd1B 1_555 1_555
O3B Cd2 1_555 1_555
O4B S1B 1_555 1_555
O5B S1B 1_555 1_555
O6B S1B 1_555 1_555
O7B Cd1B 1_555 1_555
H25B O7B 1_555 1_555
H26B O7B 1_555 1_555
O8B Cd1B 1_555 1_555
H27B O8B 1_555 1_555
H28B O8B 1_555 1_555
S1B C3B 1_555 1_555
C5 C6 1_555 1_555
C10 N1 1_555 1_555
C10 N2 1_555 1_555
C11 N2 1_555 1_555
C16 C17 1_555 1_555
C19 N4 1_555 1_555
C21 N3 1_555 1_555
C21 N4 1_555 1_555
C24 N5 1_555 1_555
C24 N6 1_555 1_555
C25 N6 1_555 1_555
Cd1 N5 1_555 1_555
Cd2 O1 1_555 1_555
Cd2 O3 1_555 1_555
O2 Cd1_2 1_555 1_555
C5B C6B 1_555 1_555
C6B O3B 1_555 1_555
C7B O1B 1_555 1_555
C10B N1B 1_555 1_555
C10B N2B 1_555 1_555
C11B N2B 1_555 1_555
C16B C17B 1_555 1_555
C19B N4B 1_555 1_555
C20B N3B 1_555 1_555
C21B N3B 1_555 1_555
C21B N4B 1_555 1_555
C24B N5B 1_555 1_555
C24B N6B 1_555 1_555
C25B N6B 1_555 1_555
C26B C27B 1_555 1_555
C26B C28B 1_555 1_555
Cd1B_3 O2B 1_555 1_555

#END
