
#######################################################################
#
#                 Cambridge Crystallographic Data Centre
#                                CCDC 
#
#######################################################################
#
# If this CIF has been generated from an entry in the Cambridge 
# Structural Database, then it will include bibliographic, chemical, 
# crystal, experimental, refinement or atomic coordinate data resulting 
# from the CCDC's data processing and validation procedures.
#
#######################################################################

data_HEXLAY
_symmetry_cell_setting           monoclinic
_symmetry_space_group_name_H-M   'C 2/c'
_symmetry_Int_Tables_number      15
_space_group_name_Hall           '-C 2yn'
loop_
_symmetry_equiv_pos_site_id
_symmetry_equiv_pos_as_xyz
1 x,y,z
2 -x,y,1/2-z
3 1/2+x,1/2+y,z
4 1/2-x,1/2+y,1/2-z
5 -x,-y,-z
6 x,-y,1/2+z
7 1/2-x,1/2-y,-z
8 1/2+x,1/2-y,1/2+z
_cell_length_a                   24.7921(11)
_cell_length_b                   16.7848(11)
_cell_length_c                   18.9685(10)
_cell_angle_alpha                90.00
_cell_angle_beta                 116.3700(10)
_cell_angle_gamma                90.00
_cell_volume                     7072.02
loop_
_atom_site_label
_atom_site_type_symbol
_atom_site_fract_x
_atom_site_fract_y
_atom_site_fract_z
Co1 Co 0.0000 0.0000 0.5000
Co2 Co 0.5000 0.0000 0.5000
S1 S -0.37110(3) 0.00025(4) 0.32943(5)
C1 C 0.27432(11) 0.19663(16) 0.44135(16)
O1 O -0.09228(8) 0.00277(10) 0.41214(12)
N1 N 0.44697(9) 0.10458(12) 0.47519(13)
N2 N 0.01899(10) -0.10363(13) 0.44983(13)
C2 C -0.19697(11) 0.01860(15) 0.36783(15)
N3 N 0.06087(10) 0.10874(14) 0.34316(13)
N4 N 0.02085(9) 0.07123(13) 0.42122(13)
N5 N 0.06697(11) -0.20189(14) 0.42589(15)
N6 N 0.42072(10) -0.06664(13) 0.42918(13)
N7 N 0.38235(9) 0.19282(12) 0.47682(13)
N8 N 0.32613(10) -0.09719(15) 0.35254(14)
C3 C 0.09652(13) 0.1053(2) 0.29867(17)
H1 H 0.0768 0.1366 0.2510
H2 H 0.0987 0.0506 0.2836
C4 C 0.15933(12) 0.13666(17) 0.34665(16)
C5 C -0.19774(12) 0.09018(17) 0.32948(16)
C6 C -0.14133(12) -0.03178(17) 0.40380(16)
C7 C -0.30345(11) 0.03382(16) 0.32888(15)
C8 C 0.23226(13) 0.24175(16) 0.38125(18)
H3 H 0.2422 0.2928 0.3721
O2 O -0.37467(11) 0.03996(18) 0.39506(16)
C9 C 0.41349(12) 0.12713(16) 0.50898(16)
H4 H 0.4117 0.1002 0.5507
C10 C -0.30341(13) 0.10284(19) 0.2884(2)
H5 H -0.3393 0.1303 0.2605
C11 C 0.01436(12) 0.15205(17) 0.40903(17)
H6 H -0.0041 0.1857 0.4307
C12 C 0.17550(13) 0.21180(18) 0.33461(16)
H7 H 0.1478 0.2431 0.2944
C13 C 0.33576(12) 0.22905(18) 0.49444(19)
H8 H 0.3359 0.2863 0.4877
H9 H 0.3448 0.2184 0.5488
C14 C 0.03847(13) 0.17581(18) 0.36105(17)
H10 H 0.0396 0.2274 0.3438
C15 C 0.22588(13) -0.13069(18) 0.34261(18)
C16 C 0.04964(12) 0.04853(17) 0.38067(17)
H11 H 0.0609 -0.0039 0.3784
C17 C 0.15671(14) -0.21108(17) 0.40331(19)
O3 O -0.41902(10) 0.02635(19) 0.25626(15)
C18 C 0.36526(13) -0.04016(19) 0.39424(18)
H12 H 0.3543 0.0121 0.3979
C19 C 0.41660(14) -0.14515(19) 0.4081(2)
H13 H 0.4490 -0.1802 0.4241
C20 C 0.20162(13) 0.09072(18) 0.40652(19)
H14 H 0.1916 0.0395 0.4152
C21 C 0.25829(13) 0.12030(17) 0.45321(18)
H15 H 0.2861 0.0888 0.4931
C22 C 0.24157(14) -0.12877(18) 0.42238(18)
H16 H 0.2755 -0.1007 0.4564
C23 C 0.20696(14) -0.16844(18) 0.45174(18)
H17 H 0.2179 -0.1662 0.5054
C24 C 0.43784(14) 0.16065(18) 0.41953(19)
H18 H 0.4559 0.1612 0.3858
C25 C 0.26098(14) -0.0875(2) 0.3077(2)
H19 H 0.2487 -0.1067 0.2546
H20 H 0.2513 -0.0312 0.3046
C26 C -0.25056(12) -0.00780(14) 0.36724(15)
H21 H -0.2505 -0.0547 0.3934
C27 C 0.06867(14) -0.14476(17) 0.47589(18)
H22 H 0.1017 -0.1354 0.5240
C28 C 0.11771(17) -0.25239(17) 0.4341(2)
H23 H 0.1025 -0.3017 0.4055
H24 H 0.1416 -0.2655 0.4892
C29 C -0.01647(14) -0.13453(19) 0.3769(2)
H25 H -0.0549 -0.1168 0.3432
O4 O -0.36652(11) -0.08377(14) 0.3403(2)
C30 C 0.39837(16) 0.2155(2) 0.4207(2)
H26 H 0.3849 0.2603 0.3888
C31 C -0.25159(13) 0.1308(2) 0.2890(2)
H27 H -0.2523 0.1774 0.2621
C32 C 0.14139(15) -0.2123(2) 0.3239(2)
H28 H 0.1075 -0.2405 0.2898
C33 C 0.01275(14) -0.1945(2) 0.3614(2)
H29 H -0.0013 -0.2249 0.3156
C34 C 0.17520(14) -0.1727(2) 0.2944(2)
H30 H 0.1636 -0.1743 0.2406
C35 C 0.35899(15) -0.1644(2) 0.3609(2)
H31 H 0.3445 -0.2139 0.3385
O5 O -0.14729(9) 0.12038(13) 0.32958(13)
H32 H -0.1199 0.0878 0.3489
O6 O -0.14492(9) -0.10123(12) 0.42036(17)
O7 O 0.51350(9) 0.01916(12) 0.39738(11)
H33 H 0.5451 0.0469 0.4098
H34 H 0.4833 0.0439 0.3631
Co2_2 Co -0.5000 0.0000 0.5000
S1D S 0.37110(3) -0.00025(4) 0.67057(5)
C1D C -0.27432(11) -0.19663(16) 0.55865(16)
O1D O 0.09228(8) -0.00277(10) 0.58786(12)
N1D N -0.44697(9) -0.10458(12) 0.52481(13)
N1D_2 N 0.55303(9) -0.10458(12) 0.52481(13)
N2D N -0.01899(10) 0.10363(13) 0.55017(13)
C2D C 0.19697(11) -0.01860(15) 0.63217(15)
N3D N -0.06087(10) -0.10874(14) 0.65684(13)
N4D N -0.02085(9) -0.07123(13) 0.57878(13)
N5D N -0.06697(11) 0.20189(14) 0.57411(15)
N6D N -0.42072(10) 0.06664(13) 0.57082(13)
N6D_2 N 0.57928(10) 0.06664(13) 0.57082(13)
N7D N -0.38235(9) -0.19282(12) 0.52318(13)
N8D N -0.32613(10) 0.09719(15) 0.64746(14)
C3D C -0.09652(13) -0.1053(2) 0.70133(17)
H1D H -0.0768 -0.1366 0.7490
H2D H -0.0987 -0.0506 0.7164
C4D C -0.15933(12) -0.13666(17) 0.65335(16)
C5D C 0.19774(12) -0.09018(17) 0.67052(16)
C6D C 0.14133(12) 0.03178(17) 0.59620(16)
C7D C 0.30345(11) -0.03382(16) 0.67112(15)
C8D C -0.23226(13) -0.24175(16) 0.61875(18)
H3D H -0.2422 -0.2928 0.6279
O2D O 0.37467(11) -0.03996(18) 0.60494(16)
C9D C -0.41349(12) -0.12713(16) 0.49102(16)
H4D H -0.4117 -0.1002 0.4493
C10D C 0.30341(13) -0.10284(19) 0.7116(2)
H5D H 0.3393 -0.1303 0.7395
C11D C -0.01436(12) -0.15205(17) 0.59097(17)
H6D H 0.0041 -0.1857 0.5693
C12D C -0.17550(13) -0.21180(18) 0.66539(16)
H7D H -0.1478 -0.2431 0.7056
C13D C -0.33576(12) -0.22905(18) 0.50556(19)
H8D H -0.3359 -0.2863 0.5123
H9D H -0.3448 -0.2184 0.4512
C14D C -0.03847(13) -0.17581(18) 0.63895(17)
H10D H -0.0396 -0.2274 0.6562
C15D C -0.22588(13) 0.13069(18) 0.65739(18)
C16D C -0.04964(12) -0.04853(17) 0.61933(17)
H11D H -0.0609 0.0039 0.6216
C17D C -0.15671(14) 0.21108(17) 0.59669(19)
O3D O 0.41902(10) -0.02635(19) 0.74374(15)
C18D C -0.36526(13) 0.04016(19) 0.60576(18)
H12D H -0.3543 -0.0121 0.6021
C19D C -0.41660(14) 0.14515(19) 0.5919(2)
H13D H -0.4490 0.1802 0.5759
C20D C -0.20162(13) -0.09072(18) 0.59348(19)
H14D H -0.1916 -0.0395 0.5848
C21D C -0.25829(13) -0.12030(17) 0.54679(18)
H15D H -0.2861 -0.0888 0.5069
C22D C -0.24157(14) 0.12877(18) 0.57762(18)
H16D H -0.2755 0.1007 0.5436
C23D C -0.20696(14) 0.16844(18) 0.54826(18)
H17D H -0.2179 0.1662 0.4946
C24D C -0.43784(14) -0.16065(18) 0.58047(19)
H18D H -0.4559 -0.1612 0.6142
C25D C -0.26098(14) 0.0875(2) 0.6923(2)
H19D H -0.2487 0.1067 0.7454
H20D H -0.2513 0.0312 0.6954
C26D C 0.25056(12) 0.00780(14) 0.63276(15)
H21D H 0.2505 0.0547 0.6066
C27D C -0.06867(14) 0.14476(17) 0.52411(18)
H22D H -0.1017 0.1354 0.4760
C28D C -0.11771(17) 0.25239(17) 0.5659(2)
H23D H -0.1025 0.3017 0.5945
H24D H -0.1416 0.2655 0.5108
C29D C 0.01647(14) 0.13453(19) 0.6231(2)
H25D H 0.0549 0.1168 0.6568
O4D O 0.36652(11) 0.08377(14) 0.6597(2)
C30D C -0.39837(16) -0.2155(2) 0.5793(2)
H26D H -0.3849 -0.2603 0.6112
C31D C 0.25159(13) -0.1308(2) 0.7110(2)
H27D H 0.2523 -0.1774 0.7379
C32D C -0.14139(15) 0.2123(2) 0.6761(2)
H28D H -0.1075 0.2405 0.7102
C33D C -0.01275(14) 0.1945(2) 0.6386(2)
H29D H 0.0013 0.2249 0.6844
C34D C -0.17520(14) 0.1727(2) 0.7056(2)
H30D H -0.1636 0.1743 0.7594
C35D C -0.35899(15) 0.1644(2) 0.6391(2)
H31D H -0.3445 0.2139 0.6615
O5D O 0.14729(9) -0.12038(13) 0.67042(13)
H32D H 0.1199 -0.0878 0.6511
O6D O 0.14492(9) 0.10123(12) 0.57964(17)
O7D O 0.48650(9) -0.01916(12) 0.60262(11)
H33D H 0.4549 -0.0469 0.5902
H34D H 0.5167 -0.0439 0.6369
O8 O 0.0000 0.65082(17) 0.2500
H36 H 0.0312 0.6568 0.2428
H36A H -0.0312 0.6568 0.2572
O9 O 0.0000 0.34498(19) 0.2500
H37 H -0.0312 0.3731 0.2388
H37A H 0.0312 0.3731 0.2612
H35? H 0.0000 0.6044 0.2678
H38? H 0.0312 0.3731 0.2751
loop_
_geom_bond_atom_site_label_1
_geom_bond_atom_site_label_2
_geom_bond_site_symmetry_1
_geom_bond_site_symmetry_2
Co1 O1 1_555 1_555
Co2 N1 1_555 1_555
S1 C7 1_555 1_555
C1 C8 1_555 1_555
O1 C6 1_555 1_555
N1 C9 1_555 1_555
N2 Co1 1_555 1_555
C2 C5 1_555 1_555
N3 C3 1_555 1_555
N4 Co1 1_555 1_555
N5 C27 1_555 1_555
N6 Co2 1_555 1_555
N7 C9 1_555 1_555
N8 C18 1_555 1_555
C3 H1 1_555 1_555
H2 C3 1_555 1_555
C4 C3 1_555 1_555
C5 C31 1_555 1_555
C6 C2 1_555 1_555
C7 C10 1_555 1_555
C8 H3 1_555 1_555
O2 S1 1_555 1_555
C9 H4 1_555 1_555
C10 H5 1_555 1_555
C11 N4 1_555 1_555
H6 C11 1_555 1_555
C12 C4 1_555 1_555
H7 C12 1_555 1_555
C13 C1 1_555 1_555
H8 C13 1_555 1_555
H9 C13 1_555 1_555
C14 N3 1_555 1_555
H10 C14 1_555 1_555
C15 C22 1_555 1_555
C16 N3 1_555 1_555
H11 C16 1_555 1_555
C17 C23 1_555 1_555
O3 S1 1_555 1_555
C18 N6 1_555 1_555
H12 C18 1_555 1_555
C19 N6 1_555 1_555
H13 C19 1_555 1_555
C20 C4 1_555 1_555
H14 C20 1_555 1_555
C21 C1 1_555 1_555
H15 C21 1_555 1_555
C22 H16 1_555 1_555
C23 C22 1_555 1_555
H17 C23 1_555 1_555
C24 N1 1_555 1_555
H18 C24 1_555 1_555
C25 N8 1_555 1_555
H19 C25 1_555 1_555
H20 C25 1_555 1_555
C26 C2 1_555 1_555
H21 C26 1_555 1_555
C27 N2 1_555 1_555
H22 C27 1_555 1_555
C28 N5 1_555 1_555
H23 C28 1_555 1_555
H24 C28 1_555 1_555
C29 N2 1_555 1_555
H25 C29 1_555 1_555
O4 S1 1_555 1_555
C30 N7 1_555 1_555
H26 C30 1_555 1_555
C31 C10 1_555 1_555
H27 C31 1_555 1_555
C32 C17 1_555 1_555
H28 C32 1_555 1_555
C33 N5 1_555 1_555
H29 C33 1_555 1_555
C34 C15 1_555 1_555
H30 C34 1_555 1_555
C35 N8 1_555 1_555
H31 C35 1_555 1_555
O5 C5 1_555 1_555
H32 O5 1_555 1_555
O6 C6 1_555 1_555
O7 Co2 1_555 1_555
H33 O7 1_555 1_555
H34 O7 1_555 1_555
O8 H36 1_555 1_555
O9 H37 1_555 1_555
Co2_2 N1D 1_555 1_555
S1D C7D 1_555 1_555
C1D C8D 1_555 1_555
O1D Co1 1_555 1_555
N1D C9D 1_555 1_555
N1D_2 Co2 1_555 1_555
N2D Co1 1_555 1_555
C2D C5D 1_555 1_555
N3D C3D 1_555 1_555
N4D Co1 1_555 1_555
N5D C27D 1_555 1_555
N6D Co2_2 1_555 1_555
N6D_2 Co2 1_555 1_555
N7D C9D 1_555 1_555
N8D C18D 1_555 1_555
C3D H1D 1_555 1_555
H2D C3D 1_555 1_555
C4D C3D 1_555 1_555
C5D C31D 1_555 1_555
C6D O1D 1_555 1_555
C7D C10D 1_555 1_555
C8D H3D 1_555 1_555
O2D S1D 1_555 1_555
C9D H4D 1_555 1_555
C10D H5D 1_555 1_555
C11D N4D 1_555 1_555
H6D C11D 1_555 1_555
C12D C4D 1_555 1_555
H7D C12D 1_555 1_555
C13D C1D 1_555 1_555
H8D C13D 1_555 1_555
H9D C13D 1_555 1_555
C14D N3D 1_555 1_555
H10D C14D 1_555 1_555
C15D C22D 1_555 1_555
C16D N3D 1_555 1_555
H11D C16D 1_555 1_555
C17D C23D 1_555 1_555
O3D S1D 1_555 1_555
C18D N6D 1_555 1_555
H12D C18D 1_555 1_555
C19D N6D 1_555 1_555
H13D C19D 1_555 1_555
C20D C4D 1_555 1_555
H14D C20D 1_555 1_555
C21D C1D 1_555 1_555
H15D C21D 1_555 1_555
C22D H16D 1_555 1_555
C23D C22D 1_555 1_555
H17D C23D 1_555 1_555
C24D N1D 1_555 1_555
H18D C24D 1_555 1_555
C25D N8D 1_555 1_555
H19D C25D 1_555 1_555
H20D C25D 1_555 1_555
C26D C2D 1_555 1_555
H21D C26D 1_555 1_555
C27D N2D 1_555 1_555
H22D C27D 1_555 1_555
C28D N5D 1_555 1_555
H23D C28D 1_555 1_555
H24D C28D 1_555 1_555
C29D N2D 1_555 1_555
H25D C29D 1_555 1_555
O4D S1D 1_555 1_555
C30D N7D 1_555 1_555
H26D C30D 1_555 1_555
C31D C10D 1_555 1_555
H27D C31D 1_555 1_555
C32D C17D 1_555 1_555
H28D C32D 1_555 1_555
C33D N5D 1_555 1_555
H29D C33D 1_555 1_555
C34D C15D 1_555 1_555
H30D C34D 1_555 1_555
C35D N8D 1_555 1_555
H31D C35D 1_555 1_555
O5D C5D 1_555 1_555
H32D O5D 1_555 1_555
O6D C6D 1_555 1_555
O7D Co2 1_555 1_555
H33D O7D 1_555 1_555
H34D O7D 1_555 1_555
H36A O8 1_555 1_555
H37A O9 1_555 1_555
N4 C16 1_555 1_555
N7 C13 1_555 1_555
C7 C26 1_555 1_555
C8 C12 1_555 1_555
C11 C14 1_555 1_555
C15 C25 1_555 1_555
C17 C28 1_555 1_555
C19 C35 1_555 1_555
C20 C21 1_555 1_555
C24 C30 1_555 1_555
C29 C33 1_555 1_555
C32 C34 1_555 1_555
C2D C6D 1_555 1_555
N4D C16D 1_555 1_555
N7D C13D 1_555 1_555
C7D C26D 1_555 1_555
C8D C12D 1_555 1_555
C11D C14D 1_555 1_555
C15D C25D 1_555 1_555
C17D C28D 1_555 1_555
C19D C35D 1_555 1_555
C20D C21D 1_555 1_555
C24D C30D 1_555 1_555
C29D C33D 1_555 1_555
C32D C34D 1_555 1_555

#END
