
#######################################################################
#
#                 Cambridge Crystallographic Data Centre
#                                CCDC 
#
#######################################################################
#
# If this CIF has been generated from an entry in the Cambridge 
# Structural Database, then it will include bibliographic, chemical, 
# crystal, experimental, refinement or atomic coordinate data resulting 
# from the CCDC's data processing and validation procedures.
#
#######################################################################

data_HEXMED
_symmetry_cell_setting           orthorhombic
_symmetry_space_group_name_H-M   'P b c n'
_symmetry_Int_Tables_number      60
_space_group_name_Hall           '-P 2n 2ab'
loop_
_symmetry_equiv_pos_site_id
_symmetry_equiv_pos_as_xyz
1 x,y,z
2 1/2-x,1/2-y,1/2+z
3 -x,y,1/2-z
4 1/2+x,1/2-y,-z
5 -x,-y,-z
6 1/2+x,1/2+y,1/2-z
7 x,-y,1/2+z
8 1/2-x,1/2+y,z
_cell_length_a                   14.1119(4)
_cell_length_b                   15.0528(5)
_cell_length_c                   15.4885(5)
_cell_angle_alpha                90
_cell_angle_beta                 90
_cell_angle_gamma                90
_cell_volume                     3290.12
loop_
_atom_site_label
_atom_site_type_symbol
_atom_site_fract_x
_atom_site_fract_y
_atom_site_fract_z
Mn1 Mn 0.0000 0.0000 0.5000
C1 C -0.13688(17) 0.20175(15) 0.33679(14)
H1 H -0.1582 0.2237 0.2841
C2 C -0.10969(16) 0.11753(14) 0.35393(14)
H2 H -0.1090 0.0713 0.3141
C3 C -0.09447(13) 0.19093(13) 0.47117(13)
H3 H -0.0815 0.2061 0.5282
C4 C -0.13990(14) 0.34385(13) 0.42341(14)
H4 H -0.1511 0.3559 0.4841
H5 H -0.1956 0.3627 0.3916
C5 C -0.05534(13) 0.39777(12) 0.39337(12)
C6 C -0.06101(12) 0.49262(12) 0.39818(11)
C7 C -0.14103(13) 0.53606(13) 0.43333(12)
H6 H -0.1901 0.5025 0.4566
C8 C -0.14728(14) 0.62686(14) 0.43368(13)
H7 H -0.1999 0.6544 0.4579
C9 C -0.07490(15) 0.67833(14) 0.39775(13)
H8 H -0.0807 0.7399 0.3963
C10 C 0.00402(14) 0.63897(13) 0.36480(12)
H9 H 0.0519 0.6743 0.3419
C11 C 0.01502(12) 0.54477(12) 0.36456(11)
C12 C 0.09593(12) 0.50150(13) 0.32956(11)
C13 C 0.09924(13) 0.41118(14) 0.32865(12)
H10 H 0.1528 0.3830 0.3068
C14 C 0.02387(13) 0.35939(13) 0.35985(13)
H11 H 0.0282 0.2978 0.3576
C15 C 0.17799(13) 0.55277(15) 0.29136(12)
H12 H 0.2087 0.5163 0.2479
H13 H 0.1537 0.6055 0.2629
C16 C 0.27516(13) 0.66423(13) 0.37933(13)
H14 H 0.2486 0.7172 0.3602
C17 C 0.30574(13) 0.52337(13) 0.39920(13)
H15 H 0.3022 0.4618 0.3947
C18 C 0.34791(14) 0.65424(13) 0.43585(13)
H16 H 0.3801 0.7008 0.4623
N1 N -0.08313(11) 0.11040(11) 0.43913(11)
N2 N -0.12698(12) 0.24836(11) 0.41172(10)
N3 N 0.24897(10) 0.57963(10) 0.35641(9)
N4 N 0.36726(11) 0.56568(11) 0.44843(10)
O1 O 0.00749(13) 0.08264(11) 0.62140(10)
H17 H 0.0555(19) 0.0961(16) 0.6455(17)
H18 H -0.0402(19) 0.0974(16) 0.6537(17)
Mn1G Mn 0.5000 0.5000 0.5000
Mn1G_2 Mn -0.5000 -0.5000 0.5000
C1D C 0.13688(17) -0.20175(15) 0.66321(14)
H1D H 0.1582 -0.2237 0.7159
C2D C 0.10969(16) -0.11753(14) 0.64607(14)
H2D H 0.1090 -0.0713 0.6859
C3D C 0.09447(13) -0.19093(13) 0.52883(13)
H3D H 0.0815 -0.2061 0.4718
C4D C 0.13990(14) -0.34385(13) 0.57659(14)
H4D H 0.1511 -0.3559 0.5159
H5D H 0.1956 -0.3627 0.6084
C5D C 0.05534(13) -0.39777(12) 0.60663(12)
C6D C 0.06101(12) -0.49262(12) 0.60182(11)
C7D C 0.14103(13) -0.53606(13) 0.56667(12)
H6D H 0.1901 -0.5025 0.5434
C8D C 0.14728(14) -0.62686(14) 0.56632(13)
H7D H 0.1999 -0.6544 0.5421
C9D C 0.07490(15) -0.67833(14) 0.60225(13)
H8D H 0.0807 -0.7399 0.6037
C10D C -0.00402(14) -0.63897(13) 0.63520(12)
H9D H -0.0519 -0.6743 0.6581
C11D C -0.01502(12) -0.54477(12) 0.63544(11)
C12D C -0.09593(12) -0.50150(13) 0.67044(11)
C13D C -0.09924(13) -0.41118(14) 0.67135(12)
H10D H -0.1528 -0.3830 0.6932
C14D C -0.02387(13) -0.35939(13) 0.64015(13)
H11D H -0.0282 -0.2978 0.6424
C15D C -0.17799(13) -0.55277(15) 0.70864(12)
H12D H -0.2087 -0.5163 0.7521
H13D H -0.1537 -0.6055 0.7371
C16D C -0.27516(13) -0.66423(13) 0.62067(13)
H14D H -0.2486 -0.7172 0.6398
C17D C -0.30574(13) -0.52337(13) 0.60080(13)
H15D H -0.3022 -0.4618 0.6053
C18D C -0.34791(14) -0.65424(13) 0.56415(13)
H16D H -0.3801 -0.7008 0.5377
N1D N 0.08313(11) -0.11040(11) 0.56087(11)
N2D N 0.12698(12) -0.24836(11) 0.58828(10)
N3D N -0.24897(10) -0.57963(10) 0.64359(9)
N4D N -0.36726(11) -0.56568(11) 0.55157(10)
N4G N 0.13274(11) 0.06568(11) 0.44843(10)
N4C N -0.13274(11) -0.06568(11) 0.55157(10)
O1D O -0.00749(13) -0.08264(11) 0.37860(10)
H17D H -0.0555(19) -0.0961(16) 0.3545(17)
H18D H 0.0402(19) -0.0974(16) 0.3463(17)
Cl1 Cl 0.15757(4) 0.15061(4) 0.75565(4)
loop_
_geom_bond_atom_site_label_1
_geom_bond_atom_site_label_2
_geom_bond_site_symmetry_1
_geom_bond_site_symmetry_2
Mn1 N1 1_555 1_555
C1 H1 1_555 1_555
C2 C1 1_555 1_555
H2 C2 1_555 1_555
C3 H3 1_555 1_555
C4 H4 1_555 1_555
H5 C4 1_555 1_555
C5 C4 1_555 1_555
C6 C5 1_555 1_555
C7 C6 1_555 1_555
H6 C7 1_555 1_555
C8 C7 1_555 1_555
H7 C8 1_555 1_555
C9 C8 1_555 1_555
H8 C9 1_555 1_555
C10 C9 1_555 1_555
H9 C10 1_555 1_555
C11 C6 1_555 1_555
C12 C11 1_555 1_555
C13 C12 1_555 1_555
H10 C13 1_555 1_555
C14 C5 1_555 1_555
H11 C14 1_555 1_555
C15 C12 1_555 1_555
H12 C15 1_555 1_555
H13 C15 1_555 1_555
C16 H14 1_555 1_555
C17 H15 1_555 1_555
C18 C16 1_555 1_555
H16 C18 1_555 1_555
N1 C2 1_555 1_555
N2 C1 1_555 1_555
N3 C15 1_555 1_555
N4 C17 1_555 1_555
O1 Mn1 1_555 1_555
H17 O1 1_555 1_555
H18 O1 1_555 1_555
Mn1G N4 1_555 1_555
Mn1G_2 N4D 1_555 1_555
C1D H1D 1_555 1_555
C2D C1D 1_555 1_555
H2D C2D 1_555 1_555
C3D H3D 1_555 1_555
C4D H4D 1_555 1_555
H5D C4D 1_555 1_555
C5D C4D 1_555 1_555
C6D C5D 1_555 1_555
C7D C6D 1_555 1_555
H6D C7D 1_555 1_555
C8D C7D 1_555 1_555
H7D C8D 1_555 1_555
C9D C8D 1_555 1_555
H8D C9D 1_555 1_555
C10D C9D 1_555 1_555
H9D C10D 1_555 1_555
C11D C6D 1_555 1_555
C12D C11D 1_555 1_555
C13D C12D 1_555 1_555
H10D C13D 1_555 1_555
C14D C5D 1_555 1_555
H11D C14D 1_555 1_555
C15D C12D 1_555 1_555
H12D C15D 1_555 1_555
H13D C15D 1_555 1_555
C16D H14D 1_555 1_555
C17D H15D 1_555 1_555
C18D C16D 1_555 1_555
H16D C18D 1_555 1_555
N1D Mn1 1_555 1_555
N2D C1D 1_555 1_555
N3D C15D 1_555 1_555
N4D C17D 1_555 1_555
N4G Mn1 1_555 1_555
N4C Mn1 1_555 1_555
O1D Mn1 1_555 1_555
H17D O1D 1_555 1_555
H18D O1D 1_555 1_555
C3 N1 1_555 1_555
C3 N2 1_555 1_555
C4 N2 1_555 1_555
C10 C11 1_555 1_555
C13 C14 1_555 1_555
C16 N3 1_555 1_555
C17 N3 1_555 1_555
C18 N4 1_555 1_555
C2D N1D 1_555 1_555
C3D N1D 1_555 1_555
C3D N2D 1_555 1_555
C4D N2D 1_555 1_555
C10D C11D 1_555 1_555
C13D C14D 1_555 1_555
C16D N3D 1_555 1_555
C17D N3D 1_555 1_555
C18D N4D 1_555 1_555

#END
