
#######################################################################
#
#                 Cambridge Crystallographic Data Centre
#                                CCDC 
#
#######################################################################
#
# If this CIF has been generated from an entry in the Cambridge 
# Structural Database, then it will include bibliographic, chemical, 
# crystal, experimental, refinement or atomic coordinate data resulting 
# from the CCDC's data processing and validation procedures.
#
#######################################################################

data_HEXMIH
_symmetry_cell_setting           orthorhombic
_symmetry_space_group_name_H-M   'P b c n'
_symmetry_Int_Tables_number      60
_space_group_name_Hall           '-P 2n 2ab'
loop_
_symmetry_equiv_pos_site_id
_symmetry_equiv_pos_as_xyz
1 x,y,z
2 1/2-x,1/2-y,1/2+z
3 -x,y,1/2-z
4 1/2+x,1/2-y,-z
5 -x,-y,-z
6 1/2+x,1/2+y,1/2-z
7 x,-y,1/2+z
8 1/2-x,1/2+y,z
_cell_length_a                   14.026(2)
_cell_length_b                   15.486(3)
_cell_length_c                   16.261(3)
_cell_angle_alpha                90
_cell_angle_beta                 90
_cell_angle_gamma                90
_cell_volume                     3532
loop_
_atom_site_label
_atom_site_type_symbol
_atom_site_fract_x
_atom_site_fract_y
_atom_site_fract_z
Zn1 Zn 0.0000 0.0000 0.5000
C1 C -0.1264(3) 0.1879(3) 0.3377(3)
H1 H -0.1456 0.2079 0.2864
C2 C -0.0997(3) 0.1072(3) 0.3573(3)
H2 H -0.0983 0.0611 0.3206
C3 C -0.0876(3) 0.1809(3) 0.4671(3)
H3 H -0.0759 0.1974 0.5212
C4 C -0.1344(3) 0.3277(3) 0.4199(3)
H4 H -0.1447 0.3393 0.4779
H5 H -0.1916 0.3446 0.3906
C5 C -0.0520(3) 0.3825(3) 0.3900(3)
C6 C -0.0583(3) 0.4738(3) 0.3968(3)
C7 C -0.1393(3) 0.5146(3) 0.4321(3)
H6 H -0.1888 0.4810 0.4527
C8 C -0.1452(4) 0.6024(3) 0.4362(3)
H7 H -0.1990 0.6278 0.4593
C9 C -0.0719(4) 0.6546(3) 0.4063(3)
H8 H -0.0768 0.7143 0.4098
C10 C 0.0068(3) 0.6178(3) 0.3721(3)
H9 H 0.0547 0.6534 0.3517
C11 C 0.0180(3) 0.5261(3) 0.3665(3)
C12 C 0.0986(3) 0.4867(3) 0.3300(3)
C13 C 0.1029(3) 0.3987(3) 0.3261(3)
H10 H 0.1563 0.3723 0.3033
C14 C 0.0283(3) 0.3474(3) 0.3559(3)
H11 H 0.0334 0.2877 0.3523
C15 C 0.1808(3) 0.5383(3) 0.2954(3)
H12 H 0.2125 0.5043 0.2535
H13 H 0.1559 0.5899 0.2693
C16 C 0.2744(3) 0.6449(3) 0.3841(3)
H14 H 0.2459 0.6961 0.3672
C17 C 0.3105(3) 0.5094(3) 0.3987(3)
H15 H 0.3094 0.4496 0.3927
C18 C 0.3462(3) 0.6371(3) 0.4384(3)
H16 H 0.3756 0.6826 0.4658
N1 N -0.0746(2) 0.1020(2) 0.4391(2)
N2 N -0.1194(2) 0.2347(2) 0.4088(2)
N3 N 0.2514(2) 0.5638(2) 0.3584(2)
N4 N 0.3695(2) 0.5509(2) 0.4472(2)
O1 O 0.0210(4) 0.0883(3) 0.6018(3)
H17 H -0.023(5) 0.111(4) 0.626(4)
H18 H 0.064(5) 0.089(5) 0.622(5)
Zn1G Zn 0.5000 0.5000 0.5000
Zn1G_2 Zn -0.5000 -0.5000 0.5000
C1D C 0.1264(3) -0.1879(3) 0.6623(3)
H1D H 0.1456 -0.2079 0.7136
C2D C 0.0997(3) -0.1072(3) 0.6427(3)
H2D H 0.0983 -0.0611 0.6794
C3D C 0.0876(3) -0.1809(3) 0.5329(3)
H3D H 0.0759 -0.1974 0.4788
C4D C 0.1344(3) -0.3277(3) 0.5801(3)
H4D H 0.1447 -0.3393 0.5221
H5D H 0.1916 -0.3446 0.6094
C5D C 0.0520(3) -0.3825(3) 0.6100(3)
C6D C 0.0583(3) -0.4738(3) 0.6032(3)
C7D C 0.1393(3) -0.5146(3) 0.5679(3)
H6D H 0.1888 -0.4810 0.5473
C8D C 0.1452(4) -0.6024(3) 0.5638(3)
H7D H 0.1990 -0.6278 0.5407
C9D C 0.0719(4) -0.6546(3) 0.5937(3)
H8D H 0.0768 -0.7143 0.5902
C10D C -0.0068(3) -0.6178(3) 0.6279(3)
H9D H -0.0547 -0.6534 0.6483
C11D C -0.0180(3) -0.5261(3) 0.6335(3)
C12D C -0.0986(3) -0.4867(3) 0.6700(3)
C13D C -0.1029(3) -0.3987(3) 0.6739(3)
H10D H -0.1563 -0.3723 0.6967
C14D C -0.0283(3) -0.3474(3) 0.6441(3)
H11D H -0.0334 -0.2877 0.6477
C15D C -0.1808(3) -0.5383(3) 0.7046(3)
H12D H -0.2125 -0.5043 0.7465
H13D H -0.1559 -0.5899 0.7307
C16D C -0.2744(3) -0.6449(3) 0.6159(3)
H14D H -0.2459 -0.6961 0.6328
C17D C -0.3105(3) -0.5094(3) 0.6013(3)
H15D H -0.3094 -0.4496 0.6073
C18D C -0.3462(3) -0.6371(3) 0.5616(3)
H16D H -0.3756 -0.6826 0.5342
N1D N 0.0746(2) -0.1020(2) 0.5609(2)
N2D N 0.1194(2) -0.2347(2) 0.5912(2)
N3D N -0.2514(2) -0.5638(2) 0.6416(2)
N4D N -0.3695(2) -0.5509(2) 0.5528(2)
N4G N 0.1305(2) 0.0509(2) 0.4472(2)
N4C N -0.1305(2) -0.0509(2) 0.5528(2)
O1D O -0.0210(4) -0.0883(3) 0.3982(3)
H17D H 0.023(5) -0.111(4) 0.374(4)
H18D H -0.064(5) -0.089(5) 0.378(5)
N5 N 0.1507(3) 0.1668(3) 0.7604(3)
O2 O 0.1855(4) 0.2107(6) 0.7134(4)
O3 O 0.1423(3) 0.1884(3) 0.8309(3)
O4 O 0.1337(6) 0.0967(3) 0.7394(4)
loop_
_geom_bond_atom_site_label_1
_geom_bond_atom_site_label_2
_geom_bond_site_symmetry_1
_geom_bond_site_symmetry_2
Zn1 N1 1_555 1_555
C1 H1 1_555 1_555
C2 C1 1_555 1_555
H2 C2 1_555 1_555
C3 H3 1_555 1_555
C4 H4 1_555 1_555
H5 C4 1_555 1_555
C5 C4 1_555 1_555
C6 C5 1_555 1_555
C7 C6 1_555 1_555
H6 C7 1_555 1_555
C8 C7 1_555 1_555
H7 C8 1_555 1_555
C9 C8 1_555 1_555
H8 C9 1_555 1_555
C10 C9 1_555 1_555
H9 C10 1_555 1_555
C11 C6 1_555 1_555
C12 C11 1_555 1_555
C13 C12 1_555 1_555
H10 C13 1_555 1_555
C14 C5 1_555 1_555
H11 C14 1_555 1_555
C15 C12 1_555 1_555
H12 C15 1_555 1_555
H13 C15 1_555 1_555
C16 H14 1_555 1_555
C17 H15 1_555 1_555
C18 C16 1_555 1_555
H16 C18 1_555 1_555
N1 C2 1_555 1_555
N2 C1 1_555 1_555
N3 C15 1_555 1_555
N4 C17 1_555 1_555
N5 O2 1_555 1_555
O1 Zn1 1_555 1_555
H17 O1 1_555 1_555
O3 N5 1_555 1_555
O4 N5 1_555 1_555
H18 O1 1_555 1_555
Zn1G N4 1_555 1_555
Zn1G_2 N4D 1_555 1_555
C1D H1D 1_555 1_555
C2D C1D 1_555 1_555
H2D C2D 1_555 1_555
C3D H3D 1_555 1_555
C4D H4D 1_555 1_555
H5D C4D 1_555 1_555
C5D C4D 1_555 1_555
C6D C5D 1_555 1_555
C7D C6D 1_555 1_555
H6D C7D 1_555 1_555
C8D C7D 1_555 1_555
H7D C8D 1_555 1_555
C9D C8D 1_555 1_555
H8D C9D 1_555 1_555
C10D C9D 1_555 1_555
H9D C10D 1_555 1_555
C11D C6D 1_555 1_555
C12D C11D 1_555 1_555
C13D C12D 1_555 1_555
H10D C13D 1_555 1_555
C14D C5D 1_555 1_555
H11D C14D 1_555 1_555
C15D C12D 1_555 1_555
H12D C15D 1_555 1_555
H13D C15D 1_555 1_555
C16D H14D 1_555 1_555
C17D H15D 1_555 1_555
C18D C16D 1_555 1_555
H16D C18D 1_555 1_555
N1D Zn1 1_555 1_555
N2D C1D 1_555 1_555
N3D C15D 1_555 1_555
N4D C17D 1_555 1_555
N4G Zn1 1_555 1_555
N4C Zn1 1_555 1_555
O1D Zn1 1_555 1_555
H17D O1D 1_555 1_555
H18D O1D 1_555 1_555
C3 N1 1_555 1_555
C3 N2 1_555 1_555
C4 N2 1_555 1_555
C10 C11 1_555 1_555
C13 C14 1_555 1_555
C16 N3 1_555 1_555
C17 N3 1_555 1_555
C18 N4 1_555 1_555
C2D N1D 1_555 1_555
C3D N1D 1_555 1_555
C3D N2D 1_555 1_555
C4D N2D 1_555 1_555
C10D C11D 1_555 1_555
C13D C14D 1_555 1_555
C16D N3D 1_555 1_555
C17D N3D 1_555 1_555
C18D N4D 1_555 1_555

#END
