
#######################################################################
#
#                 Cambridge Crystallographic Data Centre
#                                CCDC 
#
#######################################################################
#
# If this CIF has been generated from an entry in the Cambridge 
# Structural Database, then it will include bibliographic, chemical, 
# crystal, experimental, refinement or atomic coordinate data resulting 
# from the CCDC's data processing and validation procedures.
#
#######################################################################

data_HEXNOO
_symmetry_cell_setting           monoclinic
_symmetry_space_group_name_H-M   'C c'
_symmetry_Int_Tables_number      9
_space_group_name_Hall           'C -2yc'
loop_
_symmetry_equiv_pos_site_id
_symmetry_equiv_pos_as_xyz
1 x,y,z
2 x,-y,1/2+z
3 1/2+x,1/2+y,z
4 1/2+x,1/2-y,1/2+z
_cell_length_a                   24.0569(12)
_cell_length_b                   16.0840(8)
_cell_length_c                   16.5679(6)
_cell_angle_alpha                90
_cell_angle_beta                 132.762(2)
_cell_angle_gamma                90
_cell_volume                     4706.56
loop_
_atom_site_label
_atom_site_type_symbol
_atom_site_fract_x
_atom_site_fract_y
_atom_site_fract_z
C1 C 0.0087(4) 0.8561(4) 0.3583(5)
H1 H 0.0576 0.8466 0.4287
C2 C -0.0144(4) 0.8059(4) 0.2736(5)
H2 H 0.0173 0.7626 0.2855
C3 C -0.0854(4) 0.8197(4) 0.1695(5)
C4 C -0.1289(3) 0.8833(4) 0.1574(4)
H3 H -0.1772 0.8956 0.0875
C5 C -0.1007(4) 0.9290(4) 0.2492(5)
H4 H -0.1317 0.9715 0.2408
C6 C 0.0369(4) 0.6778(4) 0.1089(5)
H5 H 0.088 0.6891 0.1451
C7 C 0.0003(4) 0.7355(4) 0.1184(5)
H6 H 0.0244 0.7861 0.1569
C8 C -0.0742(4) 0.7182(4) 0.0696(5)
C9 C -0.1074(4) 0.6450(4) 0.0074(5)
H7 H -0.1587 0.6323 -0.0308
C10 C -0.0654(4) 0.5920(4) 0.0021(5)
H8 H -0.0889 0.5424 -0.0396
C11 C -0.0492(4) 1.1504(4) 0.3447(5)
H9 H -0.0029 1.1379 0.3637
C12 C -0.0899(4) 1.2196(4) 0.2799(5)
H10 H -0.0717 1.2533 0.2548
C13 C -0.1574(3) 1.2393(4) 0.2518(4)
C14 C -0.1815(4) 1.1869(4) 0.2899(5)
H11 H -0.2273 1.1978 0.2727
C15 C -0.1386(4) 1.1202(4) 0.3517(5)
H12 H -0.1568 1.0849 0.3754
C16 C -0.3586(4) 1.4455(4) 0.0205(5)
H13 H -0.3805 1.4839 -0.0379
C17 C -0.2944(4) 1.4040(4) 0.0594(5)
H14 H -0.2734 1.4134 0.028
C18 C -0.2604(3) 1.3474(3) 0.1468(5)
C19 C -0.2938(4) 1.3384(4) 0.1892(5)
H15 H -0.2729 1.3022 0.2493
C20 C -0.3583(4) 1.3840(4) 0.1409(5)
H16 H -0.3804 1.3768 0.1709
C21 C 0.1961(4) 0.5720(4) 1.0487(5)
H17 H 0.2262 0.5267 1.0962
C22 C 0.2235(3) 0.6200(4) 1.0126(4)
H18 H 0.2702 0.607 1.0331
C23 C 0.1801(4) 0.6882(4) 0.9449(5)
C24 C 0.1133(4) 0.7040(4) 0.9193(5)
H19 H 0.0834 0.7508 0.8752
C25 C 0.0901(3) 0.6526(4) 0.9573(4)
H20 H 0.0436 0.6649 0.9376
C26 C 0.1541(4) 0.8992(4) 0.7136(5)
H21 H 0.1783 0.9436 0.7099
C27 C 0.1977(4) 0.8514(4) 0.8067(5)
H22 H 0.2501 0.8626 0.8648
C28 C 0.1638(4) 0.7866(4) 0.8147(5)
C29 C 0.0865(4) 0.7721(4) 0.7240(4)
H23 H 0.0608 0.7277 0.7246
C30 C 0.0493(4) 0.8236(3) 0.6347(5)
H24 H -0.0026 0.8122 0.5732
C31 C 0.2143(4) 0.3571(4) 0.2085(5)
H25 H 0.2229 0.38 0.269
C32 C 0.2582(3) 0.2893(4) 0.2293(4)
H26 H 0.2943 0.266 0.3008
C33 C 0.2477(3) 0.2572(3) 0.1434(4)
C34 C 0.1927(3) 0.2936(3) 0.0388(5)
H27 H 0.1842 0.2728 -0.0226
C35 C 0.1526(3) 0.3582(3) 0.0276(5)
H28 H 0.1155 0.3819 -0.0435
C36 C 0.4684(4) 0.1459(4) 0.4317(5)
H29 H 0.5026 0.1722 0.5015
C37 C 0.4053(3) 0.1895(3) 0.3451(4)
H30 H 0.3979 0.2452 0.3552
C38 C 0.3529(4) 0.1518(4) 0.2434(5)
C39 C 0.3714(4) 0.0724(4) 0.2327(5)
H31 H 0.3396 0.0461 0.1628
C40 C 0.4345(4) 0.0330(4) 0.3219(5)
H32 H 0.4438 -0.0219 0.3123
Cd1 Cd 0.002750(18) 0.99065(3) 0.49744(2)
Cd2 Cd 0.08613(2) 0.50076(3) 0.08056(3)
N1 N 0.0066(3) 0.6057(3) 0.0521(4)
N2 N -0.1145(3) 0.7712(3) 0.0784(4)
H33 H -0.1635 0.775 0.021
N3 N -0.0325(3) 0.9168(3) 0.3490(4)
N4 N -0.0725(3) 1.0998(3) 0.3822(4)
N5 N -0.1954(3) 1.3089(3) 0.1852(4)
H34 H -0.174 1.3324 0.164
N6 N -0.3926(3) 1.4359(3) 0.0586(4)
N7 N 0.1294(3) 0.5852(3) 1.0211(4)
N8 N 0.2071(3) 0.7360(3) 0.9084(4)
H35 H 0.2562 0.7346 0.9478
N9 N 0.0803(3) 0.8882(3) 0.6276(4)
N10 N 0.1613(3) 0.3923(3) 0.1110(4)
N11 N 0.2870(3) 0.1890(3) 0.1506(4)
H36 H 0.267 0.1665 0.0875
N12 N 0.4845(3) 0.0665(3) 0.4227(4)
N13 N 0.1985(3) 0.5942(4) 0.3335(5)
N16 N -0.1259(3) 0.8971(4) 0.4940(4)
O1 O 0.1931(3) 0.5667(3) 0.2548(3)
O2 O 0.1691(3) 0.5558(3) 0.3606(4)
O3 O 0.2339(3) 0.6594(3) 0.3796(3)
O10 O -0.1068(2) 0.9148(3) 0.4411(3)
O11 O -0.1453(2) 0.8244(3) 0.4918(3)
O12 O -0.1246(3) 0.9524(3) 0.5475(4)
O13 O -0.0048(2) 1.0507(2) 0.6167(3)
O14 O 0.0818(2) 0.4361(2) 0.2007(3)
H37 H -0.0328 1.0431 0.6295
H38 H 0.0344 1.0452 0.6787
H39 H 0.0376 0.4337 0.1824
H40 H 0.1032 0.4539 0.2641
Cd1C Cd -0.497250(18) 1.50935(3) -0.00256(2)
Cd2_2 Cd 0.08613(2) 0.50076(3) 1.08056(3)
Cd2C Cd 0.58613(2) -0.00076(3) 0.58056(3)
N6C N 0.1074(3) 1.0641(3) 0.5586(4)
N7_2 N 0.1294(3) 0.5852(3) 0.0211(4)
N12C N -0.0155(3) 0.4335(3) -0.0773(4)
N14 N 0.4064(4) 0.1182(3) 0.6029(5)
O4 O 0.3431(3) 0.1335(3) 0.5689(4)
O5 O 0.4117(4) 0.0990(4) 0.5357(5)
O6 O 0.4633(3) 0.1195(3) 0.7008(4)
N15 N 0.1685(3) 1.0929(4) 0.8797(4)
O7 O 0.2327(3) 1.0821(3) 0.9742(4)
O8 O 0.1486(3) 1.1626(3) 0.8386(3)
O9 O 0.1260(3) 1.0312(3) 0.8269(3)
loop_
_geom_bond_atom_site_label_1
_geom_bond_atom_site_label_2
_geom_bond_site_symmetry_1
_geom_bond_site_symmetry_2
C1 H1 1_555 1_555
C2 C1 1_555 1_555
H2 C2 1_555 1_555
C3 C2 1_555 1_555
C4 C3 1_555 1_555
H3 C4 1_555 1_555
C5 C4 1_555 1_555
H4 C5 1_555 1_555
C6 H5 1_555 1_555
C7 C6 1_555 1_555
H6 C7 1_555 1_555
C8 C7 1_555 1_555
C9 C8 1_555 1_555
H7 C9 1_555 1_555
C10 C9 1_555 1_555
H8 C10 1_555 1_555
C11 H9 1_555 1_555
C12 C11 1_555 1_555
H10 C12 1_555 1_555
C13 C12 1_555 1_555
C14 C13 1_555 1_555
H11 C14 1_555 1_555
C15 C14 1_555 1_555
H12 C15 1_555 1_555
C16 H13 1_555 1_555
C17 C16 1_555 1_555
H14 C17 1_555 1_555
C18 C17 1_555 1_555
C19 C18 1_555 1_555
H15 C19 1_555 1_555
C20 C19 1_555 1_555
H16 C20 1_555 1_555
C21 H17 1_555 1_555
C22 C21 1_555 1_555
H18 C22 1_555 1_555
C23 C22 1_555 1_555
C24 C23 1_555 1_555
H19 C24 1_555 1_555
C25 C24 1_555 1_555
H20 C25 1_555 1_555
C26 H21 1_555 1_555
C27 C26 1_555 1_555
H22 C27 1_555 1_555
C28 C27 1_555 1_555
C29 C28 1_555 1_555
H23 C29 1_555 1_555
C30 C29 1_555 1_555
H24 C30 1_555 1_555
C31 H25 1_555 1_555
C32 C31 1_555 1_555
H26 C32 1_555 1_555
C33 C32 1_555 1_555
C34 C33 1_555 1_555
H27 C34 1_555 1_555
C35 C34 1_555 1_555
H28 C35 1_555 1_555
C36 H29 1_555 1_555
C37 C36 1_555 1_555
H30 C37 1_555 1_555
C38 C37 1_555 1_555
C39 C38 1_555 1_555
H31 C39 1_555 1_555
C40 C39 1_555 1_555
H32 C40 1_555 1_555
Cd1 N3 1_555 1_555
Cd2 N1 1_555 1_555
N1 C6 1_555 1_555
N2 C3 1_555 1_555
H33 N2 1_555 1_555
N3 C1 1_555 1_555
N4 C11 1_555 1_555
N5 C13 1_555 1_555
H34 N5 1_555 1_555
N6 C16 1_555 1_555
N7 C21 1_555 1_555
N8 C23 1_555 1_555
H35 N8 1_555 1_555
N9 C26 1_555 1_555
N10 C31 1_555 1_555
N11 C33 1_555 1_555
H36 N11 1_555 1_555
N12 C36 1_555 1_555
N13 O1 1_555 1_555
N14 O4 1_555 1_555
N15 O7 1_555 1_555
N16 O10 1_555 1_555
O1 Cd2 1_555 1_555
O2 N13 1_555 1_555
O3 N13 1_555 1_555
O5 N14 1_555 1_555
O6 N14 1_555 1_555
O8 N15 1_555 1_555
O9 N15 1_555 1_555
O10 Cd1 1_555 1_555
O11 N16 1_555 1_555
O12 N16 1_555 1_555
O13 Cd1 1_555 1_555
O14 Cd2 1_555 1_555
H37 O13 1_555 1_555
H38 O13 1_555 1_555
H39 O14 1_555 1_555
H40 O14 1_555 1_555
Cd1C N6 1_555 1_555
Cd2_2 N7 1_555 1_555
Cd2C N12 1_555 1_555
N6C Cd1 1_555 1_555
N7_2 Cd2 1_555 1_555
N12C Cd2 1_555 1_555
C5 N3 1_555 1_555
C8 N2 1_555 1_555
C10 N1 1_555 1_555
C15 N4 1_555 1_555
C18 N5 1_555 1_555
C20 N6 1_555 1_555
C25 N7 1_555 1_555
C28 N8 1_555 1_555
C30 N9 1_555 1_555
C35 N10 1_555 1_555
C38 N11 1_555 1_555
C40 N12 1_555 1_555
Cd1 N4 1_555 1_555
Cd1 N9 1_555 1_555
Cd2 N10 1_555 1_555

#END
