
#######################################################################
#
#                 Cambridge Crystallographic Data Centre
#                                CCDC 
#
#######################################################################
#
# If this CIF has been generated from an entry in the Cambridge 
# Structural Database, then it will include bibliographic, chemical, 
# crystal, experimental, refinement or atomic coordinate data resulting 
# from the CCDC's data processing and validation procedures.
#
#######################################################################

data_HEXQIL
_symmetry_cell_setting           rhombohedral
_symmetry_space_group_name_H-M   'R -3'
_symmetry_Int_Tables_number      148
_space_group_name_Hall           '-R 3'
loop_
_symmetry_equiv_pos_site_id
_symmetry_equiv_pos_as_xyz
1 x,y,z
2 -y,x-y,z
3 -x+y,-x,z
4 2/3+x,1/3+y,1/3+z
5 2/3-y,1/3+x-y,1/3+z
6 2/3-x+y,1/3-x,1/3+z
7 1/3+x,2/3+y,2/3+z
8 1/3-y,2/3+x-y,2/3+z
9 1/3-x+y,2/3-x,2/3+z
10 -x,-y,-z
11 y,-x+y,-z
12 x-y,x,-z
13 1/3-x,2/3-y,2/3-z
14 1/3+y,2/3-x+y,2/3-z
15 1/3+x-y,2/3+x,2/3-z
16 2/3-x,1/3-y,1/3-z
17 2/3+y,1/3-x+y,1/3-z
18 2/3+x-y,1/3+x,1/3-z
_cell_length_a                   16.3466(18)
_cell_length_b                   16.3466(18)
_cell_length_c                   42.227(9)
_cell_angle_alpha                90
_cell_angle_beta                 90
_cell_angle_gamma                120.00
_cell_volume                     9771.83
loop_
_atom_site_label
_atom_site_type_symbol
_atom_site_fract_x
_atom_site_fract_y
_atom_site_fract_z
Cl1 Cl 0.44873(8) -0.34508(7) 0.23318(3)
Cl2 Cl 0.57650(7) -0.22747(7) 0.16630(3)
O1 O 0.7442(3) 0.0323(3) 0.29864(10)
O2 O 0.7975(3) 0.1305(3) 0.24280(10)
N1 N 0.5720(3) 0.0271(3) 0.29421(10)
N2 N 0.6182(3) 0.1090(3) 0.23846(10)
N3 N 0.6192(3) -0.0671(3) 0.24092(10)
N4 N 0.7325(3) 0.2172(3) 0.29420(11)
C1 C 0.7075(4) -0.0159(4) 0.32511(14)
C2 C 0.7617(5) -0.0465(5) 0.34230(16)
H1 H 0.8209 -0.0345 0.3341
C3 C 0.7307(7) -0.0923(5) 0.36997(18)
H2 H 0.7676 -0.1137 0.3807
C4 C 0.6452(8) -0.1093(6) 0.38351(19)
H3 H 0.6250 -0.1393 0.4035
C5 C 0.5929(6) -0.0814(5) 0.36694(16)
H4 H 0.5344 -0.0933 0.3757
C6 C 0.6199(5) -0.0358(4) 0.33756(14)
C7 C 0.5575(4) -0.0114(4) 0.32140(13)
H5 H 0.5006 -0.0253 0.3319
C8 C 0.5046(4) 0.0539(4) 0.28133(13)
H6 H 0.5173 0.1149 0.2905
H7 H 0.4392 0.0052 0.2868
Fe1 Fe 0.6667 0.3333 0.3333
Mn1 Mn 0.68895(5) 0.07403(5) 0.268572(19)
C9 C 0.5161(4) 0.0626(4) 0.24614(13)
H8 H 0.4822 -0.0008 0.2363
H9 H 0.4891 0.1006 0.2377
C10 C 0.6526(4) 0.1625(4) 0.21438(13)
H10 H 0.6109 0.1740 0.2021
C11 C 0.7495(5) 0.2068(4) 0.20432(15)
C12 C 0.7761(6) 0.2663(5) 0.17756(17)
H11 H 0.7293 0.2749 0.1672
C13 C 0.8647(7) 0.3113(6) 0.1660(2)
H12 H 0.8808 0.3516 0.1481
C14 C 0.9330(6) 0.2968(5) 0.1815(2)
H13 H 0.9961 0.3280 0.1738
C15 C 0.9103(5) 0.2392(5) 0.20687(19)
H14 H 0.9582 0.2316 0.2168
C16 C 0.8174(4) 0.1900(4) 0.21923(16)
C17 C 0.5608(3) -0.1257(3) 0.22577(11)
C18 C 0.7092(3) 0.2628(3) 0.30799(11)
Nb1 Nb 0.44192(2) -0.23475(2) 0.195035(9)
Cl1A Cl 0.34508(7) -0.20619(11) 0.23318(3)
Cl1B Cl 0.20619(11) -0.44873(8) 0.23318(3)
Cl1P Cl 0.32159(7) -0.46048(11) 0.10015(3)
Cl1Q Cl 0.46048(11) -0.21794(8) 0.10015(3)
Cl1O Cl 0.21794(8) -0.32159(7) 0.10015(3)
Cl2Q Cl 0.47064(10) -0.09017(7) 0.16703(3)
Cl2B Cl 0.19603(10) -0.57650(7) 0.16630(3)
Cl2P Cl 0.43920(7) -0.47064(10) 0.16703(3)
Cl2A Cl 0.22747(7) -0.19603(10) 0.16630(3)
Cl2O Cl 0.09017(7) -0.43920(7) 0.16703(3)
O1N O 1.0452(4) 0.4109(3) 0.36803(10)
O1A O 0.9677(3) 0.7119(4) 0.29864(10)
O1L O 0.5891(3) 0.6344(3) 0.36803(10)
O1B O 0.2881(4) 0.2558(3) 0.29864(10)
O1M O 0.3656(3) -0.0452(4) 0.36803(10)
O2N O 1.0003(4) 0.4642(3) 0.42387(10)
O2A O 0.8695(3) 0.6670(4) 0.24280(10)
O2L O 0.5358(3) 0.5362(3) 0.42387(10)
O2B O 0.3330(4) 0.2025(3) 0.24280(10)
O2M O 0.4638(3) -0.0003(4) 0.42387(10)
N1N N 0.8782(4) 0.2387(3) 0.37246(10)
N1A N 0.9729(3) 0.5449(4) 0.29421(10)
N1L N 0.7613(3) 0.6396(3) 0.37246(10)
N1B N 0.4551(4) 0.4280(3) 0.29421(10)
N1M N 0.3604(3) 0.1218(4) 0.37246(10)
N2N N 0.8425(4) 0.2849(3) 0.42821(10)
N2A N 0.8910(3) 0.5092(4) 0.23846(10)
N2L N 0.7151(3) 0.5577(3) 0.42821(10)
N2B N 0.4908(4) 0.3818(3) 0.23846(10)
N2M N 0.4423(3) 0.1575(4) 0.42821(10)
N3N N 1.0196(4) 0.2859(3) 0.42575(10)
N3A N 1.0671(3) 0.6863(4) 0.24092(10)
N3L N 0.7141(3) 0.7338(3) 0.42575(10)
N3B N 0.3137(4) 0.3808(3) 0.24092(10)
N3M N 0.2662(3) -0.0196(4) 0.42575(10)
N4A N 0.7828(3) 0.5153(4) 0.29420(11)
N4B N 0.4847(4) 0.2675(3) 0.29420(11)
N4L N 0.6008(3) 0.4495(3) 0.37247(11)
N4M N 0.5505(3) 0.1514(4) 0.37247(11)
N4N N 0.8486(4) 0.3992(3) 0.37247(11)
C1A C 1.0159(4) 0.7234(6) 0.32511(14)
C1L C 0.6258(4) 0.6826(4) 0.34156(14)
C1B C 0.2766(6) 0.2925(4) 0.32511(14)
C1M C 0.3174(4) -0.0567(6) 0.34156(14)
C1N C 1.0567(6) 0.3742(4) 0.34156(14)
C2A C 1.0465(5) 0.8082(7) 0.34230(16)
C2L C 0.5716(5) 0.7132(5) 0.32437(16)
C2B C 0.1918(7) 0.2383(5) 0.34230(16)
C2M C 0.2868(5) -0.1415(7) 0.32437(16)
C2N C 1.1415(7) 0.4284(5) 0.32437(16)
H1A H 1.0345 0.8554 0.3341
H1L H 0.5124 0.7012 0.3326
H1B H 0.1446 0.1791 0.3341
H1M H 0.2988 -0.1887 0.3326
H1N H 1.1887 0.4876 0.3326
C3A C 1.0923(5) 0.8230(9) 0.36997(18)
C3L C 0.6026(7) 0.7590(5) 0.29670(18)
C3B C 0.1770(9) 0.2693(7) 0.36997(18)
C3M C 0.2410(5) -0.1563(9) 0.29670(18)
C3N C 1.1563(9) 0.3974(7) 0.29670(18)
H2B H 0.1187 0.2324 0.3807
H2A H 1.1137 0.8813 0.3807
H2L H 0.5657 0.7804 0.2860
H2N H 1.2146 0.4343 0.2860
H2M H 0.2196 -0.2146 0.2860
C4B C 0.2455(10) 0.3548(8) 0.38351(19)
C4A C 1.1093(6) 0.7545(10) 0.38351(19)
C4L C 0.6881(8) 0.7760(6) 0.28316(19)
C4N C 1.0878(10) 0.3119(8) 0.28316(19)
C4M C 0.2240(6) -0.0878(10) 0.28316(19)
H3A H 1.1393 0.7643 0.4035
H3M H 0.1940 -0.0976 0.2632
H3B H 0.2357 0.3750 0.4035
H3L H 0.7083 0.8060 0.2632
H3N H 1.0976 0.2917 0.2632
C5A C 1.0814(5) 0.6743(8) 0.36694(16)
C5L C 0.7404(6) 0.7481(5) 0.29973(16)
C5B C 0.3257(8) 0.4071(6) 0.36694(16)
C5M C 0.2519(5) -0.0076(8) 0.29973(16)
C5N C 1.0076(8) 0.2596(6) 0.29973(16)
H4B H 0.3723 0.4656 0.3757
H4A H 1.0933 0.6277 0.3757
H4L H 0.7989 0.7600 0.2910
H4N H 0.9610 0.2011 0.2910
H4M H 0.2400 0.0390 0.2910
C6A C 1.0358(4) 0.6557(6) 0.33756(14)
C6L C 0.7134(5) 0.7025(4) 0.32911(14)
C6B C 0.3443(6) 0.3801(5) 0.33756(14)
C6M C 0.2975(4) 0.0110(6) 0.32911(14)
C6N C 0.9890(6) 0.2866(5) 0.32911(14)
C7A C 1.0114(4) 0.5689(6) 0.32140(13)
C7L C 0.7758(4) 0.6781(4) 0.34527(13)
C7B C 0.4311(6) 0.4425(4) 0.32140(13)
C7M C 0.3219(4) 0.0978(6) 0.34527(13)
C7N C 0.9022(6) 0.2242(4) 0.34527(13)
H5B H 0.4741 0.4994 0.3319
H5L H 0.8327 0.6920 0.3348
H5A H 1.0253 0.5259 0.3319
H5N H 0.8592 0.1673 0.3348
H5M H 0.3080 0.1408 0.3348
C8A C 0.9461(4) 0.4507(6) 0.28133(13)
C8B C 0.5493(6) 0.4954(4) 0.28133(13)
C8M C 0.3872(4) 0.2160(6) 0.38534(13)
C8N C 0.7840(6) 0.1713(4) 0.38534(13)
C8L C 0.8287(4) 0.6128(4) 0.38534(13)
H6M H 0.4482 0.2643 0.3762
H6N H 0.7357 0.1840 0.3762
H6A H 0.8851 0.4024 0.2905
H6B H 0.5976 0.4827 0.2905
H6L H 0.8160 0.5518 0.3762
H7M H 0.3385 0.2327 0.3799
H7N H 0.7673 0.1059 0.3799
H7A H 0.9948 0.4340 0.2868
H7B H 0.5660 0.5608 0.2868
H7L H 0.8941 0.6615 0.3799
Mn1N Mn 0.94825(7) 0.35562(5) 0.398095(19)
Mn1A Mn 0.92597(5) 0.61492(7) 0.268572(19)
Mn1L Mn 0.64438(5) 0.59264(5) 0.398095(19)
Mn1B Mn 0.38508(7) 0.31105(5) 0.268572(19)
Mn1M Mn 0.40736(5) 0.05175(7) 0.398095(19)
C9A C 0.9374(4) 0.4535(6) 0.24614(13)
C9B C 0.5465(6) 0.4839(4) 0.24614(13)
C9M C 0.3959(4) 0.2132(6) 0.42053(13)
C9N C 0.7868(6) 0.1828(4) 0.42053(13)
C9L C 0.8172(4) 0.6041(4) 0.42053(13)
H8M H 0.3325 0.1837 0.4304
H8N H 0.8163 0.1489 0.4304
H8A H 1.0008 0.4830 0.2363
H8B H 0.5170 0.5178 0.2363
H8L H 0.8511 0.6675 0.4304
H9M H 0.4339 0.2782 0.4290
H9N H 0.7218 0.1558 0.4290
H9A H 0.8994 0.3885 0.2377
H9B H 0.6115 0.5109 0.2377
H9L H 0.8442 0.5661 0.4290
C10A C 0.8375(4) 0.4901(6) 0.21438(13)
C10L C 0.6807(4) 0.5042(4) 0.45229(13)
C10M C 0.4958(4) 0.1766(6) 0.45229(13)
C10B C 0.5099(6) 0.3474(4) 0.21438(13)
C10N C 0.8234(6) 0.3193(4) 0.45229(13)
H10B H 0.5631 0.3891 0.2021
H10L H 0.7224 0.4927 0.4646
H10M H 0.5073 0.2298 0.4646
H10N H 0.7702 0.2776 0.4646
H10A H 0.8260 0.4369 0.2021
C11A C 0.7932(4) 0.5427(6) 0.20432(15)
C11L C 0.5838(5) 0.4599(4) 0.46235(15)
C11B C 0.4573(6) 0.2505(5) 0.20432(15)
C11M C 0.5401(4) 0.1240(6) 0.46235(15)
C11N C 0.8760(6) 0.4162(5) 0.46235(15)
C12A C 0.7337(5) 0.5098(8) 0.17756(17)
C12L C 0.5572(6) 0.4004(5) 0.48911(17)
C12M C 0.5996(5) 0.1569(8) 0.48911(17)
C12B C 0.4902(8) 0.2239(6) 0.17756(17)
C12N C 0.8431(8) 0.4428(6) 0.48911(17)
H11B H 0.5456 0.2707 0.1672
H11L H 0.6040 0.3918 0.4995
H11M H 0.6082 0.2123 0.4995
H11N H 0.7877 0.3960 0.4995
H11A H 0.7251 0.4544 0.1672
C13B C 0.4466(9) 0.1353(7) 0.1660(2)
C13L C 0.4686(7) 0.3554(6) 0.5007(2)
C13M C 0.6446(6) 0.1133(9) 0.5007(2)
C13N C 0.8867(9) 0.5314(7) 0.5007(2)
C13A C 0.6887(6) 0.5534(9) 0.1660(2)
H12B H 0.4708 0.1192 0.1481
H12N H 0.8625 0.5475 0.5186
H12A H 0.6484 0.5292 0.1481
H12M H 0.6849 0.1375 0.5186
H12L H 0.4525 0.3151 0.5186
C14A C 0.7032(5) 0.6362(8) 0.1815(2)
C14L C 0.4003(6) 0.3699(5) 0.4852(2)
C14M C 0.6301(5) 0.0305(8) 0.4852(2)
C14B C 0.3638(8) 0.0670(6) 0.1815(2)
C14N C 0.9695(8) 0.5997(6) 0.4852(2)
H13L H 0.3372 0.3387 0.4929
H13B H 0.3319 0.0039 0.1738
H13M H 0.6613 -0.0014 0.4929
H13N H 1.0014 0.6628 0.4929
H13A H 0.6720 0.6681 0.1738
C15A C 0.7608(5) 0.6711(7) 0.20687(19)
C15L C 0.4230(5) 0.4275(5) 0.45980(19)
C15B C 0.3289(7) 0.0897(5) 0.20687(19)
C15M C 0.5725(5) -0.0044(7) 0.45980(19)
C15N C 1.0044(7) 0.5770(5) 0.45980(19)
H14A H 0.7684 0.7266 0.2168
H14L H 0.3751 0.4351 0.4499
H14M H 0.5649 -0.0599 0.4499
H14B H 0.2734 0.0418 0.2168
H14N H 1.0599 0.6249 0.4499
C16A C 0.8100(4) 0.6274(6) 0.21923(16)
C16L C 0.5159(4) 0.4767(4) 0.44744(16)
C16B C 0.3726(6) 0.1826(4) 0.21923(16)
C16M C 0.5233(4) 0.0393(6) 0.44744(16)
C16N C 0.9607(6) 0.4841(4) 0.44744(16)
C17B C 0.3135(4) -0.5608(3) 0.22577(11)
C17P C 0.5410(3) -0.3532(4) 0.10756(11)
C17A C 0.1257(3) -0.3135(4) 0.22577(11)
C17Q C 0.3532(4) -0.1059(3) 0.10756(11)
C17O C 0.1059(3) -0.5410(3) 0.10756(11)
C17A_2 C 1.1257(3) 0.6865(4) 0.22577(11)
C17L C 0.7725(3) 0.7924(3) 0.44090(11)
C17N C 1.0198(4) 0.2275(3) 0.44090(11)
C17M C 0.2076(3) -0.0198(4) 0.44090(11)
C17B_2 C 0.3135(4) 0.4392(3) 0.22577(11)
C18A C 0.7372(3) 0.4464(4) 0.30799(11)
C18B C 0.5536(4) 0.2908(3) 0.30799(11)
C18L C 0.6241(3) 0.4039(3) 0.35868(11)
C18M C 0.5961(3) 0.2203(4) 0.35868(11)
C18N C 0.7797(4) 0.3759(3) 0.35868(11)
Nb1B Nb 0.32333(3) -0.44192(2) 0.195035(9)
Nb1P Nb 0.43192(2) -0.34334(3) 0.138298(9)
Nb1A Nb 0.23475(2) -0.32333(3) 0.195035(9)
Nb1Q Nb 0.34334(3) -0.22475(2) 0.138298(9)
Nb1O Nb 0.22475(2) -0.43192(2) 0.138298(9)
Nb1A_2 Nb 1.23475(2) 0.67667(3) 0.195035(9)
Nb1L Nb 0.89141(2) 0.90142(2) 0.471632(9)
Nb1N Nb 1.01000(3) 0.10859(2) 0.471632(9)
Nb1M Nb 0.09858(2) -0.01000(3) 0.471632(9)
Nb1B_2 Nb 0.32333(3) 0.55808(2) 0.195035(9)
O3 O 0.0000 0.0000 0.3549(10)
O4 O 0.0000 0.0000 0.2208(9)
O7 O 0.893(3) 0.013(3) 0.2582(10)
O5? O 0.0000 0.0000 0.3181(10)
O6? O 0.879(3) -0.007(3) 0.2416(11)
loop_
_geom_bond_atom_site_label_1
_geom_bond_atom_site_label_2
_geom_bond_site_symmetry_1
_geom_bond_site_symmetry_2
Cl1 Nb1 1_555 1_555
Cl2 Nb1 1_555 1_555
O1 C1 1_555 1_555
O2 Mn1 1_555 1_555
N1 C7 1_555 1_555
N2 Mn1 1_555 1_555
N3 Mn1 1_555 1_555
N4 Mn1 1_555 1_555
C1 C2 1_555 1_555
C2 H1 1_555 1_555
C3 C2 1_555 1_555
H2 C3 1_555 1_555
C4 C3 1_555 1_555
H3 C4 1_555 1_555
C5 C4 1_555 1_555
H4 C5 1_555 1_555
C6 C1 1_555 1_555
C7 C6 1_555 1_555
H5 C7 1_555 1_555
C8 N1 1_555 1_555
H6 C8 1_555 1_555
H7 C8 1_555 1_555
Fe1 C18 1_555 1_555
Mn1 O1 1_555 1_555
C9 N2 1_555 1_555
H8 C9 1_555 1_555
H9 C9 1_555 1_555
C10 N2 1_555 1_555
H10 C10 1_555 1_555
C11 C10 1_555 1_555
C12 C11 1_555 1_555
H11 C12 1_555 1_555
C13 C12 1_555 1_555
H12 C13 1_555 1_555
C14 C13 1_555 1_555
H13 C14 1_555 1_555
C15 C14 1_555 1_555
H14 C15 1_555 1_555
C16 O2 1_555 1_555
C17 N3 1_555 1_555
C18 N4 1_555 1_555
Nb1 C17 1_555 1_555
Cl1A Nb1 1_555 1_555
Cl1B Nb1B 1_555 1_555
Cl1P Nb1P 1_555 1_555
Cl1Q Nb1P 1_555 1_555
Cl1O Nb1Q 1_555 1_555
Cl2Q Nb1 1_555 1_555
Cl2B Nb1B 1_555 1_555
Cl2P Nb1B 1_555 1_555
Cl2A Nb1A 1_555 1_555
Cl2O Nb1A 1_555 1_555
O1N C1N 1_555 1_555
O1A C1A 1_555 1_555
O1L C1L 1_555 1_555
O1B C1B 1_555 1_555
O1M C1M 1_555 1_555
O2N Mn1N 1_555 1_555
O2A Mn1A 1_555 1_555
O2L Mn1L 1_555 1_555
O2B Mn1B 1_555 1_555
O2M Mn1M 1_555 1_555
N1N C7N 1_555 1_555
N1A C7A 1_555 1_555
N1L C7L 1_555 1_555
N1B C7B 1_555 1_555
N1M C7M 1_555 1_555
N2N Mn1N 1_555 1_555
N2A Mn1A 1_555 1_555
N2L Mn1L 1_555 1_555
N2B Mn1B 1_555 1_555
N2M Mn1M 1_555 1_555
N3N Mn1N 1_555 1_555
N3A Mn1A 1_555 1_555
N3L Mn1L 1_555 1_555
N3B Mn1B 1_555 1_555
N3M Mn1M 1_555 1_555
N4A Mn1A 1_555 1_555
N4B Mn1B 1_555 1_555
N4L Mn1L 1_555 1_555
N4M Mn1M 1_555 1_555
N4N Mn1N 1_555 1_555
C1A C2A 1_555 1_555
C1L C2L 1_555 1_555
C1B C2B 1_555 1_555
C1M C2M 1_555 1_555
C1N C2N 1_555 1_555
C2A H1A 1_555 1_555
C2L H1L 1_555 1_555
C2B H1B 1_555 1_555
C2M H1M 1_555 1_555
C2N H1N 1_555 1_555
C3A C2A 1_555 1_555
C3L C2L 1_555 1_555
C3B C2B 1_555 1_555
C3M C2M 1_555 1_555
C3N C2N 1_555 1_555
H2B C3B 1_555 1_555
H2A C3A 1_555 1_555
H2L C3L 1_555 1_555
H2N C3N 1_555 1_555
H2M C3M 1_555 1_555
C4B C3B 1_555 1_555
C4A C3A 1_555 1_555
C4L C3L 1_555 1_555
C4N C3N 1_555 1_555
C4M C3M 1_555 1_555
H3A C4A 1_555 1_555
H3M C4M 1_555 1_555
H3B C4B 1_555 1_555
H3L C4L 1_555 1_555
H3N C4N 1_555 1_555
C5A C4A 1_555 1_555
C5L C4L 1_555 1_555
C5B C4B 1_555 1_555
C5M C4M 1_555 1_555
C5N C4N 1_555 1_555
H4B C5B 1_555 1_555
H4A C5A 1_555 1_555
H4L C5L 1_555 1_555
H4N C5N 1_555 1_555
H4M C5M 1_555 1_555
C6A C1A 1_555 1_555
C6L C1L 1_555 1_555
C6B C1B 1_555 1_555
C6M C1M 1_555 1_555
C6N C1N 1_555 1_555
C7A C6A 1_555 1_555
C7L C6L 1_555 1_555
C7B C6B 1_555 1_555
C7M C6M 1_555 1_555
C7N C6N 1_555 1_555
H5B C7B 1_555 1_555
H5L C7L 1_555 1_555
H5A C7A 1_555 1_555
H5N C7N 1_555 1_555
H5M C7M 1_555 1_555
C8A N1A 1_555 1_555
C8B N1B 1_555 1_555
C8M N1M 1_555 1_555
C8N N1N 1_555 1_555
C8L N1L 1_555 1_555
H6M C8M 1_555 1_555
H6N C8N 1_555 1_555
H6A C8A 1_555 1_555
H6B C8B 1_555 1_555
H6L C8L 1_555 1_555
H7M C8M 1_555 1_555
H7N C8N 1_555 1_555
H7A C8A 1_555 1_555
H7B C8B 1_555 1_555
H7L C8L 1_555 1_555
Mn1N O1N 1_555 1_555
Mn1A O1A 1_555 1_555
Mn1L O1L 1_555 1_555
Mn1B O1B 1_555 1_555
Mn1M O1M 1_555 1_555
C9A N2A 1_555 1_555
C9B N2B 1_555 1_555
C9M N2M 1_555 1_555
C9N N2N 1_555 1_555
C9L N2L 1_555 1_555
H8M C9M 1_555 1_555
H8N C9N 1_555 1_555
H8A C9A 1_555 1_555
H8B C9B 1_555 1_555
H8L C9L 1_555 1_555
H9M C9M 1_555 1_555
H9N C9N 1_555 1_555
H9A C9A 1_555 1_555
H9B C9B 1_555 1_555
H9L C9L 1_555 1_555
C10A N2A 1_555 1_555
C10L N2L 1_555 1_555
C10M N2M 1_555 1_555
C10B N2B 1_555 1_555
C10N N2N 1_555 1_555
H10B C10B 1_555 1_555
H10L C10L 1_555 1_555
H10M C10M 1_555 1_555
H10N C10N 1_555 1_555
H10A C10A 1_555 1_555
C11A C10A 1_555 1_555
C11L C10L 1_555 1_555
C11B C10B 1_555 1_555
C11M C10M 1_555 1_555
C11N C10N 1_555 1_555
C12A C11A 1_555 1_555
C12L C11L 1_555 1_555
C12M C11M 1_555 1_555
C12B C11B 1_555 1_555
C12N C11N 1_555 1_555
H11B C12B 1_555 1_555
H11L C12L 1_555 1_555
H11M C12M 1_555 1_555
H11N C12N 1_555 1_555
H11A C12A 1_555 1_555
C13B C12B 1_555 1_555
C13L C12L 1_555 1_555
C13M C12M 1_555 1_555
C13N C12N 1_555 1_555
C13A C12A 1_555 1_555
H12B C13B 1_555 1_555
H12N C13N 1_555 1_555
H12A C13A 1_555 1_555
H12M C13M 1_555 1_555
H12L C13L 1_555 1_555
C14A C13A 1_555 1_555
C14L C13L 1_555 1_555
C14M C13M 1_555 1_555
C14B C13B 1_555 1_555
C14N C13N 1_555 1_555
H13L C14L 1_555 1_555
H13B C14B 1_555 1_555
H13M C14M 1_555 1_555
H13N C14N 1_555 1_555
H13A C14A 1_555 1_555
C15A C14A 1_555 1_555
C15L C14L 1_555 1_555
C15B C14B 1_555 1_555
C15M C14M 1_555 1_555
C15N C14N 1_555 1_555
H14A C15A 1_555 1_555
H14L C15L 1_555 1_555
H14M C15M 1_555 1_555
H14B C15B 1_555 1_555
H14N C15N 1_555 1_555
C16A O2A 1_555 1_555
C16L O2L 1_555 1_555
C16B O2B 1_555 1_555
C16M O2M 1_555 1_555
C16N O2N 1_555 1_555
C17B Nb1B 1_555 1_555
C17P Nb1P 1_555 1_555
C17A Nb1A 1_555 1_555
C17Q Nb1Q 1_555 1_555
C17O Nb1O 1_555 1_555
C17A_2 N3A 1_555 1_555
C17L N3L 1_555 1_555
C17N N3N 1_555 1_555
C17M N3M 1_555 1_555
C17B_2 N3B 1_555 1_555
C18A Fe1 1_555 1_555
C18B Fe1 1_555 1_555
C18L Fe1 1_555 1_555
C18M Fe1 1_555 1_555
C18N Fe1 1_555 1_555
Nb1B Cl1 1_555 1_555
Nb1P Cl2 1_555 1_555
Nb1A Nb1 1_555 1_555
Nb1Q Nb1 1_555 1_555
Nb1O Cl1P 1_555 1_555
Nb1A_2 C17A_2 1_555 1_555
Nb1L C17L 1_555 1_555
Nb1N C17N 1_555 1_555
Nb1M C17M 1_555 1_555
Nb1B_2 C17B_2 1_555 1_555
N1 Mn1 1_555 1_555
C5 C6 1_555 1_555
C8 C9 1_555 1_555
C11 C16 1_555 1_555
C15 C16 1_555 1_555
Nb1 Nb1B 1_555 1_555
Nb1 Nb1P 1_555 1_555
Cl1A Nb1A 1_555 1_555
Cl1B Nb1A 1_555 1_555
Cl1Q Nb1Q 1_555 1_555
Cl1O Nb1O 1_555 1_555
Cl2Q Nb1Q 1_555 1_555
Cl2B Nb1O 1_555 1_555
Cl2P Nb1P 1_555 1_555
Cl2A Nb1Q 1_555 1_555
Cl2O Nb1O 1_555 1_555
N1N Mn1N 1_555 1_555
N1A Mn1A 1_555 1_555
N1L Mn1L 1_555 1_555
N1B Mn1B 1_555 1_555
N1M Mn1M 1_555 1_555
N4A C18A 1_555 1_555
N4B C18B 1_555 1_555
N4L C18L 1_555 1_555
N4M C18M 1_555 1_555
N4N C18N 1_555 1_555
C5A C6A 1_555 1_555
C5L C6L 1_555 1_555
C5B C6B 1_555 1_555
C5M C6M 1_555 1_555
C5N C6N 1_555 1_555
C8A C9A 1_555 1_555
C8B C9B 1_555 1_555
C8M C9M 1_555 1_555
C8N C9N 1_555 1_555
C8L C9L 1_555 1_555
C11A C16A 1_555 1_555
C11L C16L 1_555 1_555
C11B C16B 1_555 1_555
C11M C16M 1_555 1_555
C11N C16N 1_555 1_555
C15A C16A 1_555 1_555
C15L C16L 1_555 1_555
C15B C16B 1_555 1_555
C15M C16M 1_555 1_555
C15N C16N 1_555 1_555
Nb1B Nb1P 1_555 1_555
Nb1B Nb1A 1_555 1_555
Nb1B Nb1O 1_555 1_555
Nb1P Nb1Q 1_555 1_555
Nb1P Nb1O 1_555 1_555
Nb1A Nb1Q 1_555 1_555
Nb1A Nb1O 1_555 1_555
Nb1Q Nb1O 1_555 1_555

#END
