
#######################################################################
#
#                 Cambridge Crystallographic Data Centre
#                                CCDC 
#
#######################################################################
#
# If this CIF has been generated from an entry in the Cambridge 
# Structural Database, then it will include bibliographic, chemical, 
# crystal, experimental, refinement or atomic coordinate data resulting 
# from the CCDC's data processing and validation procedures.
#
#######################################################################

data_HEXQUY
_symmetry_cell_setting           orthorhombic
_symmetry_space_group_name_H-M   'F d d d'
_symmetry_Int_Tables_number      70
_space_group_name_Hall           '-F 2uv 2vw'
loop_
_symmetry_equiv_pos_site_id
_symmetry_equiv_pos_as_xyz
1 x,y,z
2 1/4-x,1/4-y,z
3 x,1/4-y,1/4-z
4 1/4-x,y,1/4-z
5 x,1/2+y,1/2+z
6 1/4-x,3/4-y,1/2+z
7 x,3/4-y,3/4-z
8 1/4-x,1/2+y,3/4-z
9 1/2+x,y,1/2+z
10 3/4-x,1/4-y,1/2+z
11 1/2+x,1/4-y,3/4-z
12 3/4-x,y,3/4-z
13 1/2+x,1/2+y,z
14 3/4-x,3/4-y,z
15 1/2+x,3/4-y,1/4-z
16 3/4-x,1/2+y,1/4-z
17 -x,-y,-z
18 3/4+x,3/4+y,-z
19 -x,3/4+y,3/4+z
20 3/4+x,-y,3/4+z
21 -x,1/2-y,1/2-z
22 3/4+x,1/4+y,1/2-z
23 -x,1/4+y,1/4+z
24 3/4+x,1/2-y,1/4+z
25 1/2-x,-y,1/2-z
26 1/4+x,3/4+y,1/2-z
27 1/2-x,3/4+y,1/4+z
28 1/4+x,-y,1/4+z
29 1/2-x,1/2-y,-z
30 1/4+x,1/4+y,-z
31 1/2-x,1/4+y,3/4+z
32 1/4+x,1/2-y,3/4+z
_cell_length_a                   21.737(3)
_cell_length_b                   43.490(9)
_cell_length_c                   44.520(9)
_cell_angle_alpha                90
_cell_angle_beta                 90
_cell_angle_gamma                90
_cell_volume                     42086.6
loop_
_atom_site_label
_atom_site_type_symbol
_atom_site_fract_x
_atom_site_fract_y
_atom_site_fract_z
Au1 Au 0.67670(3) 0.449430(13) 0.104422(13)
Au2 Au 0.83788(3) 0.403141(14) 0.074453(13)
Ag1 Ag 0.73404(5) 0.43349(2) 0.05024(2)
Ag2 Ag 0.80501(5) 0.46018(3) 0.09836(2)
C1 C 0.7162(6) 0.4842(3) 0.1295(3)
C2 C 0.7083(7) 0.5153(3) 0.1206(4)
C3 C 0.7309(8) 0.5398(3) 0.1381(4)
C4 C 0.7628(9) 0.5339(4) 0.1642(4)
C5 C 0.7706(8) 0.5037(4) 0.1737(3)
C6 C 0.7488(7) 0.4803(3) 0.1566(4)
F1 F 0.6789(4) 0.5219(2) 0.0950(2)
F2 F 0.7205(6) 0.5689(2) 0.1286(3)
F3 F 0.7838(6) 0.5577(3) 0.1806(3)
F4 F 0.8007(5) 0.4985(3) 0.1992(2)
F5 F 0.7569(4) 0.4518(2) 0.16725(19)
C7 C 0.6382(7) 0.4150(4) 0.0782(3)
C8 C 0.6439(10) 0.3841(5) 0.0849(4)
C9 C 0.6113(15) 0.3621(5) 0.0698(6)
C10 C 0.5739(15) 0.3697(9) 0.0458(7)
C11 C 0.5683(10) 0.3996(9) 0.0381(5)
C12 C 0.5991(9) 0.4214(6) 0.0535(4)
F6 F 0.6804(6) 0.3758(2) 0.1067(2)
F7 F 0.6170(11) 0.3325(3) 0.0769(4)
F8 F 0.5434(10) 0.3478(5) 0.0309(4)
F9 F 0.5297(6) 0.4083(5) 0.0146(3)
F10 F 0.5918(5) 0.4519(4) 0.0449(3)
C13 C 0.8704(7) 0.4168(4) 0.1164(3)
C14 C 0.9259(8) 0.4319(5) 0.1206(5)
C15 C 0.9517(13) 0.4369(6) 0.1487(6)
C16 C 0.9187(12) 0.4284(7) 0.1738(5)
C17 C 0.8654(10) 0.4128(5) 0.1720(4)
C18 C 0.8415(9) 0.4073(4) 0.1430(4)
F11 F 0.9578(5) 0.4423(3) 0.0961(3)
F12 F 1.0060(6) 0.4516(5) 0.1512(4)
F13 F 0.9436(8) 0.4342(4) 0.2015(3)
F14 F 0.8368(6) 0.4037(3) 0.1962(2)
F15 F 0.7879(5) 0.3923(2) 0.1417(2)
C19 C 0.8037(8) 0.3923(4) 0.0324(4)
C20 C 0.7671(10) 0.3675(5) 0.0273(5)
C21 C 0.7527(13) 0.3579(6) -0.0029(8)
C22 C 0.7781(15) 0.3717(11) -0.0258(7)
C23 C 0.8157(14) 0.3968(10) -0.0227(5)
C24 C 0.8285(11) 0.4055(6) 0.0056(4)
F16 F 0.7431(5) 0.3513(2) 0.0502(3)
F17 F 0.7145(8) 0.3324(5) -0.0054(5)
F18 F 0.7622(8) 0.3608(6) -0.0540(3)
F19 F 0.8399(9) 0.4096(6) -0.0467(3)
F20 F 0.8674(6) 0.4303(4) 0.0089(3)
C25 C 0.7946(9) 0.4985(4) 0.0402(4)
O1 O 0.7635(6) 0.4793(3) 0.0286(3)
O2 O 0.8202(7) 0.4994(3) 0.0656(3)
C26 C 0.8140(17) 0.5274(5) 0.0207(6)
F21 F 0.7886(18) 0.5263(8) -0.0052(8)
F22 F 0.8736(16) 0.5377(7) 0.0256(7)
F23 F 0.7825(12) 0.5520(6) 0.0347(6)
Au1C Au 0.57330(3) 0.449430(13) 0.145578(13)
Au2M Au 0.91212(3) 0.346859(14) 0.074453(13)
N1 N 0.1250 0.1250 0.0430(4)
C27 C 0.1816(7) 0.1228(3) 0.0642(3)
H1 H 0.1798 0.1398 0.0783
H2 H 0.1783 0.1039 0.0757
C28 C 0.2437(7) 0.1233(4) 0.0490(4)
H3 H 0.2501 0.1431 0.0395
H4 H 0.2451 0.1076 0.0335
C29 C 0.2942(7) 0.1175(4) 0.0719(4)
H5 H 0.2894 0.1316 0.0886
H6 H 0.2905 0.0967 0.0797
C30 C 0.3574(8) 0.1217(5) 0.0582(5)
H7 H 0.3884 0.1179 0.0731
H8 H 0.3615 0.1424 0.0508
H9 H 0.3625 0.1075 0.0418
C31 C 0.1202(8) 0.0970(4) 0.0222(3)
H10 H 0.0829 0.0989 0.0104
H11 H 0.1547 0.0974 0.0084
C32 C 0.1195(9) 0.0667(4) 0.0374(5)
H12 H 0.0888 0.0668 0.0532
H13 H 0.1593 0.0627 0.0464
C33 C 0.1045(14) 0.0418(5) 0.0146(7)
H14 H 0.0642 0.0464 0.0065
H15 H 0.1336 0.0439 -0.0018
C34 C 0.1043(13) 0.0105(6) 0.0231(6)
H16 H 0.0948 -0.0019 0.0059
H17 H 0.0740 0.0073 0.0384
H18 H 0.1442 0.0050 0.0306
C27A C 0.0684(7) 0.1272(3) 0.0642(3)
H1A H 0.0702 0.1102 0.0783
H2A H 0.0717 0.1461 0.0757
C28A C 0.0063(7) 0.1267(4) 0.0490(4)
H3A H -0.0001 0.1069 0.0395
H4A H 0.0049 0.1424 0.0335
C29A C -0.0442(7) 0.1325(4) 0.0719(4)
H5A H -0.0394 0.1184 0.0886
H6A H -0.0405 0.1533 0.0797
C30A C -0.1074(8) 0.1283(5) 0.0582(5)
H7A H -0.1384 0.1321 0.0731
H8A H -0.1115 0.1076 0.0508
H9A H -0.1125 0.1425 0.0418
C31A C 0.1298(8) 0.1530(4) 0.0222(3)
H10A H 0.1671 0.1511 0.0104
H11A H 0.0953 0.1526 0.0084
C32A C 0.1305(9) 0.1833(4) 0.0374(5)
H12A H 0.1612 0.1832 0.0532
H13A H 0.0907 0.1873 0.0464
C33A C 0.1455(14) 0.2082(5) 0.0146(7)
H14A H 0.1858 0.2036 0.0065
H15A H 0.1164 0.2061 -0.0018
C34A C 0.1457(13) 0.2395(6) 0.0231(6)
H16A H 0.1552 0.2519 0.0059
H17A H 0.1760 0.2427 0.0384
H18A H 0.1058 0.2450 0.0306
C35 C 1.310(3) 0.5297(14) 0.0300(14)
Cl1 Cl 1.3241(4) 0.5626(2) 0.0118(2)
Cl2 Cl 1.2782(17) 0.5369(8) 0.0650(8)
F24? F 0.8376(17) 0.5471(8) 0.0304(7)
F25? F 0.7562(14) 0.5433(7) 0.0140(7)
F26? F 0.8303(12) 0.5193(5) -0.0065(5)
C36? C 0.1045(14) 0.0418(5) 0.0146(7)
H19? H 0.1179 0.0497 -0.0047
H20? H 0.1315 0.0247 0.0193
C37? C 0.059(4) 0.0319(18) 0.0108(17)
H21? H 0.0617 0.0171 -0.0051
H22? H 0.0310 0.0479 0.0055
H23? H 0.0456 0.0219 0.0289
C38? C 1.006(4) 0.4754(19) 0.0244(19)
C39? C 0.998(3) 0.4895(15) -0.0109(15)
C40? C 1.083(8) 0.508(3) 0.048(4)
Cl3? Cl 1.2471(19) 0.5348(9) 0.0552(9)
C41? C 1.131(5) 0.495(2) 0.180(2)
C42? C 1.307(3) 0.5134(14) 0.0637(14)
C43? C 1.203(4) 0.510(2) 0.0771(19)
N2? N 1.094(2) 0.5188(12) 0.0884(11)
C44? C 1.143(3) 0.5003(12) 0.1293(16)
C45? C 1.043(3) 0.5459(13) 0.0950(12)
C46? C 0.982(2) 0.5327(11) 0.1015(11)
C47? C 0.9519(19) 0.5615(9) 0.1075(9)
C48? C 0.884(4) 0.5580(17) 0.1220(18)
C49? C 1.069(3) 0.4898(13) 0.0673(13)
C50? C 1.044(3) 0.5049(13) 0.0363(13)
C51? C 1.148(2) 0.5349(11) 0.0736(11)
C52? C 1.139(6) 0.523(2) 0.106(2)
C53? C 1.094(2) 0.5188(12) 0.0884(11)
C54? C 1.075(7) 0.477(3) 0.086(3)
C55? C 0.893(2) 0.5430(11) 0.1023(11)
Cl4? Cl 0.9037(7) 0.5077(3) 0.1208(3)
Cl5? Cl 0.8910(11) 0.5720(4) 0.1301(4)
Cl6? Cl 0.9519(19) 0.5615(9) 0.1075(9)
C56? C 1.310(4) 0.5115(19) 0.046(2)
C57? C 1.2471(19) 0.5348(9) 0.0552(9)
Cl7? Cl 1.2141(18) 0.6462(8) 0.1262(9)
C58? C 1.1561(11) 0.6206(7) 0.1127(5)
Cl8? Cl 1.0939(11) 0.6206(7) 0.1373(5)
loop_
_geom_bond_atom_site_label_1
_geom_bond_atom_site_label_2
_geom_bond_site_symmetry_1
_geom_bond_site_symmetry_2
Au1 Ag1 1_555 1_555
Au2 Ag1 1_555 1_555
Ag1 O1 1_555 1_555
Ag2 Au1 1_555 1_555
C1 Au1 1_555 1_555
C2 C1 1_555 1_555
C3 C2 1_555 1_555
C4 C3 1_555 1_555
C5 C4 1_555 1_555
C6 C1 1_555 1_555
F1 C2 1_555 1_555
F2 C3 1_555 1_555
F3 C4 1_555 1_555
F4 C5 1_555 1_555
F5 C6 1_555 1_555
C7 Au1 1_555 1_555
C8 C7 1_555 1_555
C9 C8 1_555 1_555
C10 C9 1_555 1_555
C11 C10 1_555 1_555
C12 C7 1_555 1_555
F6 C8 1_555 1_555
F7 C9 1_555 1_555
F8 C10 1_555 1_555
F9 C11 1_555 1_555
F10 C12 1_555 1_555
C13 Au2 1_555 1_555
C14 C13 1_555 1_555
C15 C14 1_555 1_555
C16 C15 1_555 1_555
C17 C16 1_555 1_555
C18 C13 1_555 1_555
F11 C14 1_555 1_555
F12 C15 1_555 1_555
F13 C16 1_555 1_555
F14 C17 1_555 1_555
F15 C18 1_555 1_555
C19 Au2 1_555 1_555
C20 C19 1_555 1_555
C21 C20 1_555 1_555
C22 C21 1_555 1_555
C23 C22 1_555 1_555
C24 C19 1_555 1_555
F16 C20 1_555 1_555
F17 C21 1_555 1_555
F18 C22 1_555 1_555
F19 C23 1_555 1_555
F20 C24 1_555 1_555
C25 O1 1_555 1_555
O2 Ag2 1_555 1_555
C26 C25 1_555 1_555
F21 C26 1_555 1_555
F22 C26 1_555 1_555
F23 C26 1_555 1_555
N1 C27 1_555 1_555
C27 H1 1_555 1_555
H2 C27 1_555 1_555
C28 C27 1_555 1_555
H3 C28 1_555 1_555
H4 C28 1_555 1_555
C29 C28 1_555 1_555
H5 C29 1_555 1_555
H6 C29 1_555 1_555
C30 C29 1_555 1_555
H7 C30 1_555 1_555
H8 C30 1_555 1_555
H9 C30 1_555 1_555
C31 N1 1_555 1_555
H10 C31 1_555 1_555
H11 C31 1_555 1_555
C32 C31 1_555 1_555
H12 C32 1_555 1_555
H13 C32 1_555 1_555
C33 C32 1_555 1_555
H14 C33 1_555 1_555
H15 C33 1_555 1_555
C34 C33 1_555 1_555
H16 C34 1_555 1_555
H17 C34 1_555 1_555
H18 C34 1_555 1_555
C35 Cl1 1_555 1_555
Cl2 C35 1_555 1_555
Au1C Au1 1_555 1_555
Au2M Au2 1_555 1_555
C27A N1 1_555 1_555
H1A C27A 1_555 1_555
H2A C27A 1_555 1_555
C28A C27A 1_555 1_555
H3A C28A 1_555 1_555
H4A C28A 1_555 1_555
C29A C28A 1_555 1_555
H5A C29A 1_555 1_555
H6A C29A 1_555 1_555
C30A C29A 1_555 1_555
H7A C30A 1_555 1_555
H8A C30A 1_555 1_555
H9A C30A 1_555 1_555
C31A N1 1_555 1_555
H10A C31A 1_555 1_555
H11A C31A 1_555 1_555
C32A C31A 1_555 1_555
H12A C32A 1_555 1_555
H13A C32A 1_555 1_555
C33A C32A 1_555 1_555
H14A C33A 1_555 1_555
H15A C33A 1_555 1_555
C34A C33A 1_555 1_555
H16A C34A 1_555 1_555
H17A C34A 1_555 1_555
H18A C34A 1_555 1_555
Au2 Ag2 1_555 1_555
C5 C6 1_555 1_555
C11 C12 1_555 1_555
C17 C18 1_555 1_555
C23 C24 1_555 1_555
C25 O2 1_555 1_555

#END
