
#######################################################################
#
#                 Cambridge Crystallographic Data Centre
#                                CCDC 
#
#######################################################################
#
# If this CIF has been generated from an entry in the Cambridge 
# Structural Database, then it will include bibliographic, chemical, 
# crystal, experimental, refinement or atomic coordinate data resulting 
# from the CCDC's data processing and validation procedures.
#
#######################################################################

data_HEYCUK
_symmetry_cell_setting           monoclinic
_symmetry_space_group_name_H-M   'C 2/c'
_symmetry_Int_Tables_number      15
_space_group_name_Hall           '-C 2yn'
loop_
_symmetry_equiv_pos_site_id
_symmetry_equiv_pos_as_xyz
1 x,y,z
2 1/2+x,1/2+y,z
3 -x,y,1/2-z
4 1/2-x,1/2+y,1/2-z
5 -x,-y,-z
6 1/2-x,1/2-y,-z
7 x,-y,1/2+z
8 1/2+x,1/2-y,1/2+z
_cell_length_a                   16.2445(15)
_cell_length_b                   15.4718(14)
_cell_length_c                   8.8337(8)
_cell_angle_alpha                90.00
_cell_angle_beta                 98.718(2)
_cell_angle_gamma                90.00
_cell_volume                     2194.54
loop_
_atom_site_label
_atom_site_type_symbol
_atom_site_fract_x
_atom_site_fract_y
_atom_site_fract_z
Cd1 Cd 0.5000 0.129823(18) 0.2500
O1 O 0.08403(18) -0.05201(19) -0.0605(5)
O2 O 0.44625(18) 0.11616(16) 0.4986(3)
O3 O 0.46452(17) 0.24434(16) 0.4080(3)
O4 O 0.5000 -0.0186(2) 0.2500
N1 N 0.36294(17) 0.11995(18) 0.1206(3)
N2 N 0.05163(17) 0.0888(2) -0.0712(4)
H1 H 0.0189 0.1283 -0.0462
C1 C 0.2955(3) 0.1388(4) 0.1785(6)
H2 H 0.3016 0.1551 0.2809
C2 C 0.2162(3) 0.1362(4) 0.0973(6)
H3 H 0.1710 0.1507 0.1453
C3 C 0.2038(2) 0.1125(2) -0.0519(4)
C4 C 0.2737(3) 0.0888(4) -0.1121(5)
H4 H 0.2689 0.0699 -0.2129
C5 C 0.3507(2) 0.0931(4) -0.0230(5)
H5 H 0.3969 0.0762 -0.0665
C6 C 0.1198(2) 0.1123(3) -0.1512(5)
H6 H 0.1092 0.1695 -0.1949
H7 H 0.1213 0.0722 -0.2351
C7 C 0.0391(2) 0.0073(3) -0.0363(5)
C8 C 0.4389(2) 0.1969(2) 0.5036(4)
C9 C 0.3954(4) 0.2357(4) 0.6256(6)
H8 H 0.4183 0.2918 0.6525
H9 H 0.4031 0.1991 0.7143
H10 H 0.3370 0.2410 0.5879
Cd1F Cd -0.5000 -0.129823(18) -0.2500
O1D O -0.08403(18) 0.05201(19) 0.0605(5)
O2B O 0.55375(18) 0.11616(16) 0.0014(3)
O3B O 0.53548(17) 0.24434(16) 0.0920(3)
N1D N -0.36294(17) -0.11995(18) -0.1206(3)
N1B N 0.63706(17) 0.11995(18) 0.3794(3)
N2D N -0.05163(17) -0.0888(2) 0.0712(4)
H1D H -0.0189 -0.1283 0.0462
C1D C -0.2955(3) -0.1388(4) -0.1785(6)
H2D H -0.3016 -0.1551 -0.2809
C2D C -0.2162(3) -0.1362(4) -0.0973(6)
H3D H -0.1710 -0.1507 -0.1453
C3D C -0.2038(2) -0.1125(2) 0.0519(4)
C4D C -0.2737(3) -0.0888(4) 0.1121(5)
H4D H -0.2689 -0.0699 0.2129
C5D C -0.3507(2) -0.0931(4) 0.0230(5)
H5D H -0.3969 -0.0762 0.0665
C6D C -0.1198(2) -0.1123(3) 0.1512(5)
H6D H -0.1092 -0.1695 0.1949
H7D H -0.1213 -0.0722 0.2351
C7D C -0.0391(2) -0.0073(3) 0.0363(5)
C8B C 0.5611(2) 0.1969(2) -0.0036(4)
C9B C 0.6046(4) 0.2357(4) -0.1256(6)
H8B H 0.5817 0.2918 -0.1525
H9B H 0.5969 0.1991 -0.2143
H10B H 0.6630 0.2410 -0.0879
loop_
_geom_bond_atom_site_label_1
_geom_bond_atom_site_label_2
_geom_bond_site_symmetry_1
_geom_bond_site_symmetry_2
Cd1 O2 1_555 1_555
O1 C7 1_555 1_555
O2 C8 1_555 1_555
O3 Cd1 1_555 1_555
O4 Cd1 1_555 1_555
N1 Cd1 1_555 1_555
N2 H1 1_555 1_555
C1 N1 1_555 1_555
H2 C1 1_555 1_555
C2 C1 1_555 1_555
H3 C2 1_555 1_555
C3 C2 1_555 1_555
C4 C3 1_555 1_555
H4 C4 1_555 1_555
C5 N1 1_555 1_555
H5 C5 1_555 1_555
C6 N2 1_555 1_555
H6 C6 1_555 1_555
H7 C6 1_555 1_555
C7 N2 1_555 1_555
C8 O3 1_555 1_555
C9 C8 1_555 1_555
H8 C9 1_555 1_555
H9 C9 1_555 1_555
H10 C9 1_555 1_555
Cd1F N1D 1_555 1_555
O1D C7D 1_555 1_555
O2B Cd1 1_555 1_555
O3B Cd1 1_555 1_555
N1D C1D 1_555 1_555
N1B Cd1 1_555 1_555
N2D H1D 1_555 1_555
C1D H2D 1_555 1_555
C2D C1D 1_555 1_555
H3D C2D 1_555 1_555
C3D C2D 1_555 1_555
C4D C3D 1_555 1_555
H4D C4D 1_555 1_555
C5D N1D 1_555 1_555
H5D C5D 1_555 1_555
C6D N2D 1_555 1_555
H6D C6D 1_555 1_555
H7D C6D 1_555 1_555
C7D C7 1_555 1_555
C8B O2B 1_555 1_555
C9B C8B 1_555 1_555
H8B C9B 1_555 1_555
H9B C9B 1_555 1_555
H10B C9B 1_555 1_555
C3 C6 1_555 1_555
C4 C5 1_555 1_555
O3B C8B 1_555 1_555
N2D C7D 1_555 1_555
C3D C6D 1_555 1_555
C4D C5D 1_555 1_555

#END
