
#######################################################################
#
#                 Cambridge Crystallographic Data Centre
#                                CCDC 
#
#######################################################################
#
# If this CIF has been generated from an entry in the Cambridge 
# Structural Database, then it will include bibliographic, chemical, 
# crystal, experimental, refinement or atomic coordinate data resulting 
# from the CCDC's data processing and validation procedures.
#
#######################################################################

data_HEYDUL
_symmetry_cell_setting           monoclinic
_symmetry_space_group_name_H-M   'P n'
_symmetry_Int_Tables_number      7
_space_group_name_Hall           'P -2yac'
loop_
_symmetry_equiv_pos_site_id
_symmetry_equiv_pos_as_xyz
1 x,y,z
2 1/2+x,-y,1/2+z
_cell_length_a                   9.3927(17)
_cell_length_b                   8.9618(16)
_cell_length_c                   11.080(2)
_cell_angle_alpha                90
_cell_angle_beta                 95.567(3)
_cell_angle_gamma                90
_cell_volume                     928.266
loop_
_atom_site_label
_atom_site_type_symbol
_atom_site_fract_x
_atom_site_fract_y
_atom_site_fract_z
Cd1 Cd 0.5353(3) 0.31839(3) 0.5468(3)
O1 O 0.540(2) 0.5754(3) 0.5427(17)
O2 O 0.2930(16) 0.3334(13) 0.4654(14)
O3 O 0.3748(14) 0.1105(15) 0.4866(12)
O4 O 0.7820(17) 0.3315(13) 0.6278(14)
O5 O 0.6948(15) 0.1040(13) 0.5997(11)
N1 N 0.1020(16) 0.6871(12) 0.8578(13)
N2 N 0.4189(16) 0.7937(14) 0.5209(14)
H1 H 0.4245 0.8877 0.5065
N3 N 0.6609(16) 0.7863(14) 0.5763(12)
H2 H 0.6577 0.8817 0.5844
N4 N 0.9677(14) 0.6798(11) 0.2467(9)
C1 C 0.1028(17) 0.5737(17) 0.7795(16)
H3 H 0.0630 0.4853 0.8046
C2 C 0.155(2) 0.5682(16) 0.6651(16)
H4 H 0.1506 0.4831 0.6169
C3 C 0.2112(15) 0.6989(16) 0.6320(13)
C4 C 0.219(2) 0.8262(19) 0.7061(18)
H5 H 0.2570 0.9176 0.6862
C5 C 0.160(2) 0.7953(17) 0.8128(17)
H6 H 0.1658 0.8771 0.8647
C6 C 0.2773(18) 0.7187(19) 0.5164(15)
H7 H 0.2867 0.6208 0.4808
H8 H 0.2108 0.7750 0.4616
C7 C 0.537(2) 0.7129(5) 0.547(2)
C8 C 0.7940(15) 0.7161(19) 0.5938(13)
H9 H 0.8581 0.7728 0.6504
H10 H 0.7836 0.6168 0.6267
C9 C 0.9248(16) 0.8209(12) 0.2851(14)
H11 H 0.9317 0.9065 0.2384
C10 C 0.872(2) 0.8233(18) 0.3964(18)
H12 H 0.8455 0.9166 0.4232
C11 C 0.8534(17) 0.707(2) 0.4732(16)
C12 C 0.905(2) 0.5780(18) 0.4266(18)
H13 H 0.9005 0.4924 0.4736
C13 C 0.9612(18) 0.5625(14) 0.3184(14)
H14 H 0.9950 0.4702 0.2953
C14 C 0.2714(16) 0.200(2) 0.4535(15)
C15 C 0.787(2) 0.1903(16) 0.6370(16)
C16 C 0.1425(19) 0.130(2) 0.3952(16)
H15 H 0.0985 0.0708 0.4533
H16 H 0.1670 0.0679 0.3298
H17 H 0.0770 0.2063 0.3639
C17 C 0.939(2) 0.1380(18) 0.6926(16)
H18 H 0.9436 0.1418 0.7795
H19 H 1.0106 0.2027 0.6650
H20 H 0.9557 0.0376 0.6673
Cd1A Cd 0.0353(3) 0.68161(3) 1.0468(3)
Cd1A_2 Cd 1.0353(3) 0.68161(3) 0.0468(3)
N1A N 0.6020(16) 0.3129(12) 0.3578(13)
N4A N 0.4677(14) 0.3202(11) 0.7467(9)
loop_
_geom_bond_atom_site_label_1
_geom_bond_atom_site_label_2
_geom_bond_site_symmetry_1
_geom_bond_site_symmetry_2
Cd1 O1 1_555 1_555
O1 C7 1_555 1_555
O2 Cd1 1_555 1_555
O3 Cd1 1_555 1_555
O4 Cd1 1_555 1_555
O5 Cd1 1_555 1_555
N1 C1 1_555 1_555
N2 H1 1_555 1_555
N3 H2 1_555 1_555
N4 C9 1_555 1_555
C1 H3 1_555 1_555
C2 C1 1_555 1_555
H4 C2 1_555 1_555
C3 C2 1_555 1_555
C4 C3 1_555 1_555
H5 C4 1_555 1_555
C5 N1 1_555 1_555
H6 C5 1_555 1_555
C6 N2 1_555 1_555
H7 C6 1_555 1_555
H8 C6 1_555 1_555
C7 N2 1_555 1_555
C8 N3 1_555 1_555
H9 C8 1_555 1_555
H10 C8 1_555 1_555
C9 H11 1_555 1_555
C10 C9 1_555 1_555
H12 C10 1_555 1_555
C11 C8 1_555 1_555
C12 C11 1_555 1_555
H13 C12 1_555 1_555
C13 N4 1_555 1_555
H14 C13 1_555 1_555
C14 O2 1_555 1_555
C15 O4 1_555 1_555
C16 C14 1_555 1_555
H15 C16 1_555 1_555
H16 C16 1_555 1_555
H17 C16 1_555 1_555
C17 C15 1_555 1_555
H18 C17 1_555 1_555
H19 C17 1_555 1_555
H20 C17 1_555 1_555
Cd1A N1 1_555 1_555
Cd1A_2 N4 1_555 1_555
N1A Cd1 1_555 1_555
N4A Cd1 1_555 1_555
O3 C14 1_555 1_555
O5 C15 1_555 1_555
N3 C7 1_555 1_555
C3 C6 1_555 1_555
C4 C5 1_555 1_555
C10 C11 1_555 1_555
C12 C13 1_555 1_555

#END
