
#######################################################################
#
#                 Cambridge Crystallographic Data Centre
#                                CCDC 
#
#######################################################################
#
# If this CIF has been generated from an entry in the Cambridge 
# Structural Database, then it will include bibliographic, chemical, 
# crystal, experimental, refinement or atomic coordinate data resulting 
# from the CCDC's data processing and validation procedures.
#
#######################################################################

data_HEYTIO
_symmetry_cell_setting           cubic
_symmetry_space_group_name_H-M   'P 41 3 2'
_symmetry_Int_Tables_number      213
_space_group_name_Hall           'P 4bd 2ab 3'
loop_
_symmetry_equiv_pos_site_id
_symmetry_equiv_pos_as_xyz
1 x,y,z
2 1/4-y,3/4+x,1/4+z
3 1/2+x,1/2-y,-z
4 z,x,y
5 1/2-x,-y,1/2+z
6 3/4+y,1/4+x,1/4-z
7 1/4-x,3/4+z,1/4+y
8 1/4+y,1/4-x,3/4+z
9 -x,1/2+y,1/2-z
10 1/2-z,-x,1/2+y
11 3/4-y,3/4-x,3/4-z
12 1/4+x,1/4-z,3/4+y
13 1/2+z,1/2-x,-y
14 3/4-x,3/4-z,3/4-y
15 -z,1/2+x,1/2-y
16 3/4+x,1/4+z,1/4-y
17 y,z,x
18 1/4-z,3/4+y,1/4+x
19 3/4+z,1/4+y,1/4-x
20 1/2+y,1/2-z,-x
21 3/4-z,3/4-y,3/4-x
22 -y,1/2+z,1/2-x
23 1/2-y,-z,1/2+x
24 1/4+z,1/4-y,3/4+x
_cell_length_a                   15.579(2)
_cell_length_b                   15.579(2)
_cell_length_c                   15.579(2)
_cell_angle_alpha                90
_cell_angle_beta                 90
_cell_angle_gamma                90
_cell_volume                     3781.1
loop_
_atom_site_label
_atom_site_type_symbol
_atom_site_fract_x
_atom_site_fract_y
_atom_site_fract_z
Ni1 Ni 0.8750 -0.1250 -0.1250
N1 N 0.7416(1) -0.1121(1) -0.1272(1)
C1 C 0.6852(2) -0.1757(2) -0.1315(2)
C2 C 0.5976(2) -0.1627(3) -0.1342(2)
C3 C 0.5681(2) -0.0795(3) -0.1324(2)
C4 C 0.6256(2) -0.0124(2) -0.1287(2)
C5 C 0.7129(2) -0.0303(2) -0.1261(2)
H1 H 0.7063(19) -0.2274(18) -0.1219(21)
H2 H 0.5546(19) -0.2049(20) -0.1371(18)
H3 H 0.5112(21) -0.0762(18) -0.1320(19)
H4 H 0.6085(18) 0.0416(17) -0.1263(18)
C5J C 0.7803(2) 0.0371(2) -0.1239(2)
N1J N 0.8621(1) 0.0084(1) -0.1228(1)
N1C N 0.8728(1) -0.2584(1) -0.1121(1)
C1C C 0.8685(2) -0.3148(2) -0.1757(2)
C2C C 0.8658(2) -0.4024(2) -0.1627(3)
C3C C 0.8676(2) -0.4319(2) -0.0795(3)
C4C C 0.8713(2) -0.3744(2) -0.0124(2)
C5C C 0.8739(2) -0.2871(2) -0.0303(2)
C5T C 0.8761(2) -0.2197(2) 0.0371(2)
N1T N 0.8772(1) -0.1379(1) 0.0084(1)
N1M N 1.0084(1) -0.1228(1) -0.1379(1)
C1M C 1.0648(2) -0.1185(2) -0.0743(2)
C2M C 1.1524(2) -0.1158(2) -0.0873(3)
C3M C 1.1819(2) -0.1176(2) -0.1705(3)
C4M C 1.1244(2) -0.1213(2) -0.2376(2)
C5M C 1.0371(2) -0.1239(2) -0.2197(2)
C5P C 0.9697(2) -0.1261(2) -0.2871(2)
N1P N 0.8879(1) -0.1272(1) -0.2584(1)
C1P C 0.8243(2) -0.1315(2) -0.3148(2)
C2P C 0.8373(3) -0.1342(2) -0.4024(2)
C3P C 0.9205(3) -0.1324(2) -0.4319(2)
C4P C 0.9876(2) -0.1287(2) -0.3744(2)
H4P H 1.0416(17) -0.1263(18) -0.3915(18)
H3P H 0.9238(18) -0.1320(19) -0.4888(21)
H2P H 0.7951(20) -0.1371(18) -0.4454(19)
H1P H 0.7726(18) -0.1219(21) -0.2937(19)
H4M H 1.1415(18) -0.1237(18) -0.2916(17)
H3M H 1.2388(21) -0.1180(19) -0.1738(18)
H2M H 1.1954(19) -0.1129(18) -0.0451(20)
H1M H 1.0437(19) -0.1281(21) -0.0226(18)
C1T C 0.8815(2) -0.0743(2) 0.0648(2)
C2T C 0.8842(2) -0.0873(3) 0.1524(2)
C3T C 0.8824(2) -0.1705(3) 0.1819(2)
C4T C 0.8787(2) -0.2376(2) 0.1244(2)
H4T H 0.8763(18) -0.2916(17) 0.1415(18)
H3T H 0.8820(19) -0.1738(18) 0.2388(21)
H2T H 0.8871(18) -0.0451(20) 0.1954(19)
H1T H 0.8719(21) -0.0226(18) 0.0437(19)
H4C H 0.8737(18) -0.3915(18) 0.0416(17)
H3C H 0.8680(19) -0.4888(21) -0.0762(18)
H2C H 0.8629(18) -0.4454(19) -0.2049(20)
H1C H 0.8781(21) -0.2937(19) -0.2274(18)
C1J C 0.9257(2) 0.0648(2) -0.1185(2)
C2J C 0.9127(3) 0.1524(2) -0.1158(2)
C3J C 0.8295(3) 0.1819(2) -0.1176(2)
C4J C 0.7624(2) 0.1244(2) -0.1213(2)
H4J H 0.7084(17) 0.1415(18) -0.1237(18)
H3J H 0.8262(18) 0.2388(21) -0.1180(19)
H2J H 0.9549(20) 0.1954(19) -0.1129(18)
H1J H 0.9774(18) 0.0437(19) -0.1281(21)
Mn1 Mn -0.39998(3) -0.60002(3) -0.10002(3)
O1 O -0.4136(1) -0.7375(1) -0.1152(1)
O2 O -0.6076(1) -0.9629(1) -0.3844(1)
C6 C -0.4887(2) -0.7613(2) -0.1250
C7 C -0.6250(2) -0.9398(2) -0.3102
O1I O -0.3848(1) -0.5864(1) -0.2375(1)
O1J O -0.5125(1) -0.8364(1) -0.1348(1)
Mn1J Mn -0.64998(3) -0.85002(3) -0.14998(3)
O1Q O -0.6348(1) -0.9875(1) -0.1636(1)
C6L C -0.6250 -1.0113(2) -0.2387(2)
O1L O -0.6152(1) -1.0864(1) -0.2625(1)
Mn1H Mn -0.60002(3) -1.10002(3) -0.39998(3)
O2M O -0.6424(1) -0.8656(1) -0.2871(1)
O1O O -0.6636(1) -0.8652(1) -0.0125(1)
C6O C -0.7387(2) -0.8750 0.0113(2)
O1V O -0.7625(1) -0.8848(1) 0.0864(1)
Mn1B Mn -0.89998(3) -0.89998(3) 0.10002(3)
O2L O -0.8844(1) -0.8924(1) -0.0371(1)
C7A C -0.8102(2) -0.8750(2) -0.0602
O2A O -0.7871(1) -0.8576(1) -0.1344(1)
O2R O -0.6344(1) -0.7129(1) -0.1424(1)
C7R C -0.5602 -0.6898(2) -0.1250(2)
O2V O -0.5371(1) -0.6156(1) -0.1076(1)
O1U O -0.2625(1) -0.6152(1) -0.0864(1)
O2H O -0.3924(1) -0.4629(1) -0.1156(1)
O2C O -0.3844(1) -0.6076(1) 0.0371(1)
loop_
_geom_bond_atom_site_label_1
_geom_bond_atom_site_label_2
_geom_bond_site_symmetry_1
_geom_bond_site_symmetry_2
Ni1 N1 1_555 1_555
Mn1 O1 1_555 1_555
N1 C1 1_555 1_555
C1 C2 1_555 1_555
C2 C3 1_555 1_555
C3 C4 1_555 1_555
C4 C5 1_555 1_555
C5 N1 1_555 1_555
O1 C6 1_555 1_555
O2 C7 1_555 1_555
C6 O1J 1_555 1_555
C7 C6L 1_555 1_555
H1 C1 1_555 1_555
H2 C2 1_555 1_555
H3 C3 1_555 1_555
H4 C4 1_555 1_555
C5J C5 1_555 1_555
N1J Ni1 1_555 1_555
N1C Ni1 1_555 1_555
C1C N1C 1_555 1_555
C2C C1C 1_555 1_555
C3C C2C 1_555 1_555
C4C C3C 1_555 1_555
C5C N1C 1_555 1_555
C5T C5C 1_555 1_555
N1T Ni1 1_555 1_555
N1M Ni1 1_555 1_555
C1M N1M 1_555 1_555
C2M C1M 1_555 1_555
C3M C2M 1_555 1_555
C4M C3M 1_555 1_555
C5M N1M 1_555 1_555
C5P C5M 1_555 1_555
N1P Ni1 1_555 1_555
C1P N1P 1_555 1_555
C2P C1P 1_555 1_555
C3P C2P 1_555 1_555
C4P C5P 1_555 1_555
H4P C4P 1_555 1_555
H3P C3P 1_555 1_555
H2P C2P 1_555 1_555
H1P C1P 1_555 1_555
H4M C4M 1_555 1_555
H3M C3M 1_555 1_555
H2M C2M 1_555 1_555
H1M C1M 1_555 1_555
C1T N1T 1_555 1_555
C2T C1T 1_555 1_555
C3T C2T 1_555 1_555
C4T C5T 1_555 1_555
H4T C4T 1_555 1_555
H3T C3T 1_555 1_555
H2T C2T 1_555 1_555
H1T C1T 1_555 1_555
H4C C4C 1_555 1_555
H3C C3C 1_555 1_555
H2C C2C 1_555 1_555
H1C C1C 1_555 1_555
C1J N1J 1_555 1_555
C2J C1J 1_555 1_555
C3J C2J 1_555 1_555
C4J C5J 1_555 1_555
H4J C4J 1_555 1_555
H3J C3J 1_555 1_555
H2J C2J 1_555 1_555
H1J C1J 1_555 1_555
O1I Mn1 1_555 1_555
O1J Mn1J 1_555 1_555
Mn1J O1Q 1_555 1_555
O1Q C6L 1_555 1_555
C6L O1L 1_555 1_555
O1L Mn1H 1_555 1_555
Mn1H O2 1_555 1_555
O2M C7 1_555 1_555
O1O Mn1J 1_555 1_555
C6O O1O 1_555 1_555
O1V C6O 1_555 1_555
Mn1B O1V 1_555 1_555
O2L Mn1B 1_555 1_555
C7A C6O 1_555 1_555
O2A Mn1J 1_555 1_555
O2R Mn1J 1_555 1_555
C7R C6 1_555 1_555
O2V Mn1 1_555 1_555
O1U Mn1 1_555 1_555
O2H Mn1 1_555 1_555
O2C Mn1 1_555 1_555
C5J N1J 1_555 1_555
C4C C5C 1_555 1_555
C5T N1T 1_555 1_555
C4M C5M 1_555 1_555
C5P N1P 1_555 1_555
C3P C4P 1_555 1_555
C3T C4T 1_555 1_555
C3J C4J 1_555 1_555
Mn1J O2M 1_555 1_555
O2L C7A 1_555 1_555
C7A O2A 1_555 1_555
O2R C7R 1_555 1_555
C7R O2V 1_555 1_555

#END
