
#######################################################################
#
#                 Cambridge Crystallographic Data Centre
#                                CCDC 
#
#######################################################################
#
# If this CIF has been generated from an entry in the Cambridge 
# Structural Database, then it will include bibliographic, chemical, 
# crystal, experimental, refinement or atomic coordinate data resulting 
# from the CCDC's data processing and validation procedures.
#
#######################################################################

data_HEYTUA
_symmetry_cell_setting           cubic
_symmetry_space_group_name_H-M   'P 21 3'
_symmetry_Int_Tables_number      198
_space_group_name_Hall           'P 2ac 2ab 3'
loop_
_symmetry_equiv_pos_site_id
_symmetry_equiv_pos_as_xyz
1 x,y,z
2 1/2-x,-y,1/2+z
3 1/2+x,1/2-y,-z
4 z,x,y
5 -x,1/2+y,1/2-z
6 1/2-z,-x,1/2+y
7 1/2+z,1/2-x,-y
8 -z,1/2+x,1/2-y
9 y,z,x
10 1/2+y,1/2-z,-x
11 -y,1/2+z,1/2-x
12 1/2-y,-z,1/2+x
_cell_length_a                   15.262(4)
_cell_length_b                   15.262(4)
_cell_length_c                   15.262(4)
_cell_angle_alpha                90
_cell_angle_beta                 90
_cell_angle_gamma                90
_cell_volume                     3554.96
loop_
_atom_site_label
_atom_site_type_symbol
_atom_site_fract_x
_atom_site_fract_y
_atom_site_fract_z
Fe1 Fe 0.87582(3) 0.87582(3) 0.87582(3)
N1 N 0.8764(2) 0.7469(2) 0.8843(2)
C1 C 0.8762(2) 0.7156(2) 0.9672(2)
C2 C 0.8739(3) 0.6255(3) 0.9829(3)
C3 C 0.8724(4) 0.5684(3) 0.9126(3)
C4 C 0.8717(4) 0.6007(3) 0.8301(4)
C5 C 0.8738(3) 0.6899(2) 0.8172(3)
N2 N 0.8761(2) 0.8662(2) 1.0046(2)
C6 C 0.8766(2) 0.7828(2) 1.0358(2)
C7 C 0.8773(3) 0.7656(3) 1.1251(3)
C8 C 0.8803(4) 0.8345(3) 1.1833(3)
C9 C 0.8811(4) 0.9184(3) 1.1518(3)
C10 C 0.8778(3) 0.9322(3) 1.0625(2)
H1 H 0.8811(28) 0.6082(27) 1.0333(26)
H2 H 0.8609(33) 0.5132(30) 0.9206(33)
H3 H 0.8692(33) 0.5652(29) 0.7962(30)
H4 H 0.8703(27) 0.7165(23) 0.7649(24)
H5 H 0.8831(24) 0.7100(23) 1.1488(22)
H6 H 0.8704(29) 0.8169(27) 1.2316(27)
H7 H 0.8899(30) 0.9664(30) 1.1949(30)
H8 H 0.8717(25) 0.9845(23) 1.0426(22)
N1C N 0.8843(2) 0.8764(2) 0.7469(2)
C1C C 0.9672(2) 0.8762(2) 0.7156(2)
C2C C 0.9829(3) 0.8739(3) 0.6255(3)
C3C C 0.9126(3) 0.8724(4) 0.5684(3)
C4C C 0.8301(4) 0.8717(4) 0.6007(3)
C5C C 0.8172(3) 0.8738(3) 0.6899(2)
N2C N 1.0046(2) 0.8761(2) 0.8662(2)
C6C C 1.0358(2) 0.8766(2) 0.7828(2)
C7C C 1.1251(3) 0.8773(3) 0.7656(3)
C8C C 1.1833(3) 0.8803(4) 0.8345(3)
C9C C 1.1518(3) 0.8811(4) 0.9184(3)
C10C C 1.0625(2) 0.8778(3) 0.9322(3)
H1C H 1.0333(26) 0.8811(28) 0.6082(27)
H2C H 0.9206(33) 0.8609(33) 0.5132(30)
H3C H 0.7962(30) 0.8692(33) 0.5652(29)
H4C H 0.7649(24) 0.8703(27) 0.7165(23)
H5C H 1.1488(22) 0.8831(24) 0.7100(23)
H6C H 1.2316(27) 0.8704(29) 0.8169(27)
H7C H 1.1949(30) 0.8899(30) 0.9664(30)
H8C H 1.0426(22) 0.8717(25) 0.9845(23)
N1H N 0.7469(2) 0.8843(2) 0.8764(2)
C1H C 0.7156(2) 0.9672(2) 0.8762(2)
C2H C 0.6255(3) 0.9829(3) 0.8739(3)
C3H C 0.5684(3) 0.9126(3) 0.8724(4)
C4H C 0.6007(3) 0.8301(4) 0.8717(4)
C5H C 0.6899(2) 0.8172(3) 0.8738(3)
N2H N 0.8662(2) 1.0046(2) 0.8761(2)
C6H C 0.7828(2) 1.0358(2) 0.8766(2)
C7H C 0.7656(3) 1.1251(3) 0.8773(3)
C8H C 0.8345(3) 1.1833(3) 0.8803(4)
C9H C 0.9184(3) 1.1518(3) 0.8811(4)
C10H C 0.9322(3) 1.0625(2) 0.8778(3)
H1H H 0.6082(27) 1.0333(26) 0.8811(28)
H2H H 0.5132(30) 0.9206(33) 0.8609(33)
H3H H 0.5652(29) 0.7962(30) 0.8692(33)
H4H H 0.7165(23) 0.7649(24) 0.8703(27)
H5H H 0.7100(23) 1.1488(22) 0.8831(24)
H6H H 0.8169(27) 1.2316(27) 0.8704(29)
H7H H 0.9664(30) 1.1949(30) 0.8899(30)
H8H H 0.9845(23) 1.0426(22) 0.8717(25)
Cr1 Cr 0.35627(4) 0.14373(4) 0.85627(4)
Li1 Li 0.1012(5) 0.1012(5) 1.1012(5)
O1 O 0.2417(2) 0.1139(2) 1.0871(2)
O2 O 0.1181(2) 0.1115(2) 0.9556(2)
C11 C 0.2647(2) 0.1234(3) 1.0107(2)
C12 C 0.1950(2) 0.1243(3) 0.9368(2)
O3 O 0.3438(2) 0.1332(2) 0.9850(2)
O4 O 0.2271(2) 0.1371(2) 0.8598(2)
O1F O 0.5871(2) 0.2583(2) 0.8861(2)
O2F O 0.4556(2) 0.3819(2) 0.8885(2)
C11F C 0.5107(2) 0.2353(2) 0.8766(3)
C12F C 0.4368(2) 0.3050(2) 0.8757(3)
O3F O 0.4850(2) 0.1562(2) 0.8668(2)
O4F O 0.3598(2) 0.2729(2) 0.8629(2)
O1K O 0.3861(2) -0.0871(2) 0.7417(2)
O2K O 0.3885(2) 0.0444(2) 0.6181(2)
C11K C 0.3766(3) -0.0107(2) 0.7647(2)
C12K C 0.3757(3) 0.0632(2) 0.6950(2)
O3K O 0.3668(2) 0.0150(2) 0.8438(2)
O4K O 0.3629(2) 0.1402(2) 0.7271(2)
O1C O 0.0871(2) 0.2417(2) 1.1139(2)
O1H O 0.1139(2) 0.0871(2) 1.2417(2)
O2C O -0.0444(2) 0.1181(2) 1.1115(2)
O2H O 0.1115(2) -0.0444(2) 1.1181(2)
Li1B Li 0.6012(5) 0.3988(5) 0.8988(5)
Li1A Li 0.3988(5) -0.1012(5) 0.6012(5)
loop_
_geom_bond_atom_site_label_1
_geom_bond_atom_site_label_2
_geom_bond_site_symmetry_1
_geom_bond_site_symmetry_2
Fe1 N1 1_555 1_555
N1 C1 1_555 1_555
C1 C2 1_555 1_555
C2 C3 1_555 1_555
C3 C4 1_555 1_555
C4 C5 1_555 1_555
C5 N1 1_555 1_555
N2 Fe1 1_555 1_555
C6 C1 1_555 1_555
C7 C6 1_555 1_555
C8 C7 1_555 1_555
C9 C8 1_555 1_555
C10 N2 1_555 1_555
Cr1 O3 1_555 1_555
Li1 O1 1_555 1_555
O1 C11 1_555 1_555
O2 Li1 1_555 1_555
C11 C12 1_555 1_555
C12 O2 1_555 1_555
O3 C11 1_555 1_555
O4 Cr1 1_555 1_555
H1 C2 1_555 1_555
H2 C3 1_555 1_555
H3 C4 1_555 1_555
H4 C5 1_555 1_555
H5 C7 1_555 1_555
H6 C8 1_555 1_555
H7 C9 1_555 1_555
H8 C10 1_555 1_555
N1C Fe1 1_555 1_555
C1C N1C 1_555 1_555
C2C C1C 1_555 1_555
C3C C2C 1_555 1_555
C4C C3C 1_555 1_555
C5C N1C 1_555 1_555
N2C Fe1 1_555 1_555
C6C C1C 1_555 1_555
C7C C6C 1_555 1_555
C8C C7C 1_555 1_555
C9C C8C 1_555 1_555
C10C N2C 1_555 1_555
H1C C2C 1_555 1_555
H2C C3C 1_555 1_555
H3C C4C 1_555 1_555
H4C C5C 1_555 1_555
H5C C7C 1_555 1_555
H6C C8C 1_555 1_555
H7C C9C 1_555 1_555
H8C C10C 1_555 1_555
N1H Fe1 1_555 1_555
C1H N1H 1_555 1_555
C2H C1H 1_555 1_555
C3H C2H 1_555 1_555
C4H C3H 1_555 1_555
C5H N1H 1_555 1_555
N2H Fe1 1_555 1_555
C6H C1H 1_555 1_555
C7H C6H 1_555 1_555
C8H C7H 1_555 1_555
C9H C8H 1_555 1_555
C10H N2H 1_555 1_555
H1H C2H 1_555 1_555
H2H C3H 1_555 1_555
H3H C4H 1_555 1_555
H4H C5H 1_555 1_555
H5H C7H 1_555 1_555
H6H C8H 1_555 1_555
H7H C9H 1_555 1_555
H8H C10H 1_555 1_555
O1F C11F 1_555 1_555
O2F C12F 1_555 1_555
C11F C12F 1_555 1_555
C12F O4F 1_555 1_555
O3F Cr1 1_555 1_555
O4F Cr1 1_555 1_555
O1K C11K 1_555 1_555
O2K C12K 1_555 1_555
C11K C12K 1_555 1_555
C12K O4K 1_555 1_555
O3K Cr1 1_555 1_555
O4K Cr1 1_555 1_555
O1C Li1 1_555 1_555
O1H Li1 1_555 1_555
O2C Li1 1_555 1_555
O2H Li1 1_555 1_555
Li1B O1F 1_555 1_555
Li1A O1K 1_555 1_555
N2 C6 1_555 1_555
C9 C10 1_555 1_555
C12 O4 1_555 1_555
C4C C5C 1_555 1_555
N2C C6C 1_555 1_555
C9C C10C 1_555 1_555
C4H C5H 1_555 1_555
N2H C6H 1_555 1_555
C9H C10H 1_555 1_555
O2F Li1B 1_555 1_555
C11F O3F 1_555 1_555
O2K Li1A 1_555 1_555
C11K O3K 1_555 1_555

#END
