
#######################################################################
#
#                 Cambridge Crystallographic Data Centre
#                                CCDC 
#
#######################################################################
#
# If this CIF has been generated from an entry in the Cambridge 
# Structural Database, then it will include bibliographic, chemical, 
# crystal, experimental, refinement or atomic coordinate data resulting 
# from the CCDC's data processing and validation procedures.
#
#######################################################################

data_HGTROP
_symmetry_cell_setting           triclinic
_symmetry_space_group_name_H-M   'P -1'
_symmetry_Int_Tables_number      2
_space_group_name_Hall           '-P 1'
loop_
_symmetry_equiv_pos_site_id
_symmetry_equiv_pos_as_xyz
1 x,y,z
2 -x,-y,-z
_cell_length_a                   13.759(9)
_cell_length_b                   10.972(6)
_cell_length_c                   8.750(5)
_cell_angle_alpha                108.61(3)
_cell_angle_beta                 96.18(2)
_cell_angle_gamma                92.85(2)
_cell_volume                     1239.62
loop_
_atom_site_label
_atom_site_type_symbol
_atom_site_fract_x
_atom_site_fract_y
_atom_site_fract_z
Hg1 Hg 0.12740 0.45210 0.54020
Hg2 Hg 0.37730 0.58450 0.48810
O1 O 0.13190 0.23710 0.48250
O2 O 0.26650 0.38130 0.42210
C1 C 0.21040 0.18860 0.45590
C2 C 0.28710 0.26810 0.41850
C3 C 0.37850 0.22820 0.36990
C4 C 0.42210 0.11580 0.36110
C5 C 0.38570 0.00440 0.38740
C6 C 0.29430 -0.01650 0.43550
C7 C 0.21690 0.06850 0.46180
O3 O 0.17330 0.55920 0.81010
O4 O -0.00210 0.53660 0.66640
C8 C 0.11000 0.60410 0.89620
C9 C 0.00760 0.59620 0.82410
C10 C -0.07020 0.64100 0.89990
C11 C -0.07720 0.70660 1.06090
C12 C -0.00800 0.74540 1.19220
C13 C 0.08940 0.72380 1.19290
C14 C 0.14110 0.66740 1.06900
O5 O 0.38300 0.75800 0.72030
O6 O 0.22010 0.64920 0.51840
C15 C 0.29910 0.80980 0.75520
C16 C 0.21280 0.74930 0.63930
C17 C 0.11790 0.79650 0.65520
C18 C 0.09010 0.89380 0.77050
C19 C 0.13260 0.97790 0.91540
C20 C 0.23290 0.98520 0.96350
C21 C 0.30250 0.91500 0.89320
O7 O 0.38200 0.67860 0.28350
O8 O 0.50700 0.51920 0.35430
C22 C 0.45960 0.66380 0.21700
C23 C 0.52930 0.57630 0.25420
C24 C 0.61800 0.54720 0.18770
C25 C 0.66180 0.59620 0.08240
C26 C 0.63160 0.68130 0.00270
C27 C 0.54350 0.74010 0.01630
C28 C 0.47170 0.73130 0.10450
O4A O 0.00210 0.46340 0.33360
O8A O 0.49300 0.48080 0.64570
Hg1A Hg -0.12740 0.54790 0.45980
Hg2A Hg 0.62270 0.41550 0.51190
loop_
_geom_bond_atom_site_label_1
_geom_bond_atom_site_label_2
_geom_bond_site_symmetry_1
_geom_bond_site_symmetry_2
Hg1 O1 1_555 1_555
Hg2 O2 1_555 1_555
O1 C1 1_555 1_555
O2 Hg1 1_555 1_555
C1 C2 1_555 1_555
C2 O2 1_555 1_555
C3 C2 1_555 1_555
C4 C3 1_555 1_555
C5 C4 1_555 1_555
C6 C5 1_555 1_555
C7 C1 1_555 1_555
O3 Hg1 1_555 1_555
O4 Hg1 1_555 1_555
C8 O3 1_555 1_555
C9 O4 1_555 1_555
C10 C9 1_555 1_555
C11 C10 1_555 1_555
C12 C11 1_555 1_555
C13 C12 1_555 1_555
C14 C8 1_555 1_555
O5 Hg2 1_555 1_555
O6 Hg1 1_555 1_555
C15 O5 1_555 1_555
C16 O6 1_555 1_555
C17 C16 1_555 1_555
C18 C17 1_555 1_555
C19 C18 1_555 1_555
C20 C19 1_555 1_555
C21 C15 1_555 1_555
O7 Hg2 1_555 1_555
O8 Hg2 1_555 1_555
C22 O7 1_555 1_555
C23 O8 1_555 1_555
C24 C23 1_555 1_555
C25 C24 1_555 1_555
C26 C25 1_555 1_555
C27 C26 1_555 1_555
C28 C22 1_555 1_555
O4A Hg1 1_555 1_555
O8A Hg2 1_555 1_555
Hg1A O4 1_555 1_555
Hg2A O8 1_555 1_555
Hg2 O6 1_555 1_555
C6 C7 1_555 1_555
C8 C9 1_555 1_555
C13 C14 1_555 1_555
C15 C16 1_555 1_555
C20 C21 1_555 1_555
C22 C23 1_555 1_555
C27 C28 1_555 1_555
O4A Hg1A 1_555 1_555
O8A Hg2A 1_555 1_555

#END
