
#######################################################################
#
#                 Cambridge Crystallographic Data Centre
#                                CCDC 
#
#######################################################################
#
# If this CIF has been generated from an entry in the Cambridge 
# Structural Database, then it will include bibliographic, chemical, 
# crystal, experimental, refinement or atomic coordinate data resulting 
# from the CCDC's data processing and validation procedures.
#
#######################################################################

data_HIBLOU
_symmetry_cell_setting           monoclinic
_symmetry_space_group_name_H-M   'P 21/c'
_symmetry_Int_Tables_number      14
_space_group_name_Hall           '-P 2ybc'
loop_
_symmetry_equiv_pos_site_id
_symmetry_equiv_pos_as_xyz
1 x,y,z
2 -x,1/2+y,1/2-z
3 -x,-y,-z
4 x,1/2-y,1/2+z
_cell_length_a                   19.9870(2)
_cell_length_b                   12.12000(10)
_cell_length_c                   27.2260(3)
_cell_angle_alpha                90.00
_cell_angle_beta                 100.66
_cell_angle_gamma                90.00
_cell_volume                     6481.47
loop_
_atom_site_label
_atom_site_type_symbol
_atom_site_fract_x
_atom_site_fract_y
_atom_site_fract_z
Se1 Se 0.49300(2) 0.59270(4) 0.188293(18)
Sn1 Sn 0.514365(17) 0.83592(3) 0.258791(13)
Sn2 Sn 0.365165(18) 0.57353(3) 0.089966(13)
O1 O 0.46097(17) 0.6957(3) 0.21824(13)
O2 O 0.44313(17) 0.4864(3) 0.19783(13)
O3 O 0.45828(18) 0.6217(3) 0.12689(13)
C1 C 0.4339(3) 0.8420(4) 0.30024(19)
C2 C 0.3651(3) 0.8312(5) 0.2799(2)
H1 H 0.3517 0.8179 0.2450
C3 C 0.3160(3) 0.8395(6) 0.3093(3)
H2 H 0.2692 0.8313 0.2950
C4 C 0.3357(4) 0.8600(6) 0.3603(3)
H3 H 0.3021 0.8675 0.3806
C5 C 0.4030(4) 0.8692(5) 0.3814(2)
H4 H 0.4161 0.8829 0.4162
C6 C 0.4519(3) 0.8586(5) 0.3517(2)
H5 H 0.4987 0.8627 0.3667
C7 C 0.6030(2) 0.7482(4) 0.29413(18)
C8 C 0.5973(3) 0.6439(4) 0.3137(2)
H6 H 0.5537 0.6106 0.3110
C9 C 0.6546(3) 0.5879(5) 0.3373(2)
H7 H 0.6501 0.5166 0.3508
C10 C 0.7187(3) 0.6356(5) 0.3412(3)
H8 H 0.7581 0.5972 0.3573
C11 C 0.7242(3) 0.7396(5) 0.3214(2)
H9 H 0.7677 0.7729 0.3239
C12 C 0.6671(3) 0.7948(4) 0.2982(2)
H10 H 0.6715 0.8661 0.2847
C13 C 0.5225(3) 0.9194(4) 0.19027(19)
C14 C 0.5701(3) 1.0028(4) 0.1904(2)
H11 H 0.5987 1.0236 0.2209
C15 C 0.5763(3) 1.0558(5) 0.1465(2)
H12 H 0.6095 1.1121 0.1470
C16 C 0.5342(3) 1.0273(5) 0.1015(2)
H13 H 0.5379 1.0649 0.0715
C17 C 0.4869(3) 0.9434(5) 0.1011(2)
H14 H 0.4586 0.9225 0.0705
C18 C 0.4806(3) 0.8894(4) 0.1454(2)
H15 H 0.4478 0.8324 0.1450
C19 C 0.3459(3) 0.7214(4) 0.0468(2)
C20 C 0.3151(3) 0.8072(5) 0.0669(2)
H16 H 0.3040 0.7993 0.0992
C21 C 0.3000(4) 0.9053(6) 0.0409(3)
H17 H 0.2789 0.9640 0.0555
C22 C 0.3155(3) 0.9177(5) -0.0061(3)
H18 H 0.3043 0.9841 -0.0243
C23 C 0.3470(3) 0.8340(6) -0.0261(3)
H19 H 0.3590 0.8426 -0.0580
C24 C 0.3618(3) 0.7358(6) 0.0001(2)
H20 H 0.3831 0.6775 -0.0145
C25 C 0.3858(3) 0.4273(4) 0.05170(19)
C26 C 0.4223(3) 0.4308(5) 0.0130(2)
H21 H 0.4368 0.5001 0.0025
C27 C 0.4381(4) 0.3359(6) -0.0105(3)
H22 H 0.4626 0.3401 -0.0372
C28 C 0.4184(4) 0.2367(6) 0.0047(3)
H23 H 0.4299 0.1710 -0.0108
C29 C 0.3812(4) 0.2309(5) 0.0431(3)
H24 H 0.3664 0.1613 0.0530
C30 C 0.3659(4) 0.3254(5) 0.0668(2)
H25 H 0.3416 0.3206 0.0936
C31 C 0.2888(3) 0.5565(5) 0.1338(2)
C32 C 0.2299(3) 0.4995(5) 0.1136(2)
H26 H 0.2261 0.4671 0.0815
C33 C 0.1766(3) 0.4887(6) 0.1393(3)
H27 H 0.1368 0.4490 0.1250
C34 C 0.1819(3) 0.5359(7) 0.1856(3)
H28 H 0.1455 0.5287 0.2034
C35 C 0.2400(4) 0.5941(6) 0.2067(3)
H29 H 0.2432 0.6263 0.2389
C36 C 0.2935(3) 0.6054(5) 0.1808(2)
H30 H 0.3329 0.6461 0.1950
Sn1A Sn 0.485635(17) 0.33592(3) 0.241209(13)
O2A O 0.55687(17) 0.9864(3) 0.30217(13)
Se2 Se 0.00228(2) 0.15647(4) 0.313551(18)
Sn3 Sn 0.016820(16) 0.41317(3) 0.261357(12)
Sn4 Sn 0.128287(19) 0.15407(3) 0.414352(14)
O4 O 0.05506(16) 0.2613(3) 0.30692(12)
O5 O 0.03153(17) 0.0547(3) 0.28094(13)
O6 O 0.03493(18) 0.1198(3) 0.37430(13)
C37 C 0.0271(2) 0.3263(4) 0.19494(18)
C38 C -0.0124(3) 0.3518(4) 0.1488(2)
H31 H -0.0460 0.4080 0.1465
C39 C -0.0033(3) 0.2965(5) 0.1063(2)
H32 H -0.0308 0.3148 0.0751
C40 C 0.0453(3) 0.2149(5) 0.1085(2)
H33 H 0.0513 0.1770 0.0791
C41 C 0.0857(3) 0.1886(5) 0.1548(2)
H34 H 0.1196 0.1330 0.1568
C42 C 0.0763(3) 0.2436(4) 0.19737(19)
H35 H 0.1036 0.2250 0.2287
C43 C 0.1053(2) 0.4964(4) 0.29906(18)
C44 C 0.1010(3) 0.6058(4) 0.3159(2)
H36 H 0.0585 0.6431 0.3106
C45 C 0.1596(3) 0.6582(5) 0.3404(2)
H37 H 0.1569 0.7320 0.3516
C46 C 0.2216(3) 0.6048(5) 0.3487(2)
H38 H 0.2612 0.6413 0.3659
C47 C 0.2258(3) 0.4982(5) 0.3319(2)
H39 H 0.2686 0.4615 0.3370
C48 C 0.1682(3) 0.4447(5) 0.3077(2)
H40 H 0.1716 0.3708 0.2968
C49 C -0.0673(3) 0.4081(4) 0.29910(19)
C50 C -0.1344(3) 0.4037(5) 0.2757(2)
H41 H -0.1461 0.4072 0.2403
C51 C -0.1858(3) 0.3938(7) 0.3046(3)
H42 H -0.2322 0.3908 0.2885
C52 C -0.1694(3) 0.3887(5) 0.3556(3)
H43 H -0.2043 0.3793 0.3747
C53 C -0.1035(4) 0.3969(5) 0.3789(2)
H44 H -0.0924 0.3971 0.4144
C54 C -0.0523(3) 0.4049(5) 0.3512(2)
H45 H -0.0062 0.4083 0.3679
C55 C 0.2075(3) 0.1550(5) 0.3718(2)
C56 C 0.1993(3) 0.1176(6) 0.3234(2)
H46 H 0.1571 0.0861 0.3078
C57 C 0.2524(4) 0.1256(7) 0.2973(3)
H47 H 0.2466 0.0996 0.2639
C58 C 0.3136(4) 0.1713(8) 0.3198(3)
H48 H 0.3496 0.1780 0.3016
C59 C 0.3226(4) 0.2069(9) 0.3680(3)
H49 H 0.3651 0.2373 0.3836
C60 C 0.2703(4) 0.1988(8) 0.3943(3)
H50 H 0.2770 0.2232 0.4280
C61 C 0.1172(5) 0.3072(6) 0.4489(3)
C62 C 0.1319(4) 0.4047(6) 0.4319(3)
H51 H 0.1481 0.4038 0.4013
C63 C 0.1272(4) 0.5041(6) 0.4520(2)
H52 H 0.1131 0.5694 0.4337
C64 C 0.1452(6) 0.4978(10) 0.5021(5)
H53 H 0.1530 0.5650 0.5202
C65 C 0.1531(8) 0.4028(11) 0.5284(5)
H54 H 0.1622 0.4056 0.5638
C66 C 0.1480(7) 0.3012(11) 0.5046(5)
H55 H 0.1624 0.2341 0.5213
C70 C 0.1331(3) 0.0149(5) 0.4628(2)
C71 C 0.1759(3) -0.0727(6) 0.4571(3)
H59 H 0.2049 -0.0678 0.4332
C72 C 0.1769(4) -0.1665(6) 0.4858(3)
H60 H 0.2057 -0.2263 0.4810
C73 C 0.1361(4) -0.1739(6) 0.5215(3)
H61 H 0.1378 -0.2378 0.5419
C74 C 0.0937(4) -0.0890(6) 0.5273(2)
H62 H 0.0649 -0.0947 0.5513
C75 C 0.0920(3) 0.0059(5) 0.4985(2)
H63 H 0.0625 0.0649 0.5032
Sn3A Sn -0.016820(16) -0.08683(3) 0.238643(12)
O5A O -0.03153(17) 0.5547(3) 0.21906(13)
C67? C 0.0727(7) 0.5258(11) 0.4789(5)
H56? H 0.0625 0.5982 0.4888
C68? C 0.0361(7) 0.4335(11) 0.4895(4)
H57? H 0.0002 0.4408 0.5079
C69? C 0.0531(6) 0.3302(9) 0.4726(4)
H58? H 0.0238 0.2699 0.4757
loop_
_geom_bond_atom_site_label_1
_geom_bond_atom_site_label_2
_geom_bond_site_symmetry_1
_geom_bond_site_symmetry_2
Se1 O1 1_555 1_555
Se2 O4 1_555 1_555
Sn1 O1 1_555 1_555
Sn2 O3 1_555 1_555
Sn3 O4 1_555 1_555
Sn4 O6 1_555 1_555
O2 Se1 1_555 1_555
O3 Se1 1_555 1_555
O5 Se2 1_555 1_555
O6 Se2 1_555 1_555
C1 Sn1 1_555 1_555
C2 C1 1_555 1_555
H1 C2 1_555 1_555
C3 C2 1_555 1_555
H2 C3 1_555 1_555
C4 C3 1_555 1_555
H3 C4 1_555 1_555
C5 C4 1_555 1_555
H4 C5 1_555 1_555
C6 C1 1_555 1_555
H5 C6 1_555 1_555
C7 Sn1 1_555 1_555
C8 C7 1_555 1_555
H6 C8 1_555 1_555
C9 C8 1_555 1_555
H7 C9 1_555 1_555
C10 C9 1_555 1_555
H8 C10 1_555 1_555
C11 C10 1_555 1_555
H9 C11 1_555 1_555
C12 C7 1_555 1_555
H10 C12 1_555 1_555
C13 Sn1 1_555 1_555
C14 C13 1_555 1_555
H11 C14 1_555 1_555
C15 C14 1_555 1_555
H12 C15 1_555 1_555
C16 C15 1_555 1_555
H13 C16 1_555 1_555
C17 C16 1_555 1_555
H14 C17 1_555 1_555
C18 C13 1_555 1_555
H15 C18 1_555 1_555
C19 Sn2 1_555 1_555
C20 C19 1_555 1_555
H16 C20 1_555 1_555
C21 C20 1_555 1_555
H17 C21 1_555 1_555
C22 C21 1_555 1_555
H18 C22 1_555 1_555
C23 C22 1_555 1_555
H19 C23 1_555 1_555
C24 C19 1_555 1_555
H20 C24 1_555 1_555
C25 Sn2 1_555 1_555
C26 C25 1_555 1_555
H21 C26 1_555 1_555
C27 C26 1_555 1_555
H22 C27 1_555 1_555
C28 C27 1_555 1_555
H23 C28 1_555 1_555
C29 C28 1_555 1_555
H24 C29 1_555 1_555
C30 C25 1_555 1_555
H25 C30 1_555 1_555
C31 Sn2 1_555 1_555
C32 C31 1_555 1_555
H26 C32 1_555 1_555
C33 C32 1_555 1_555
H27 C33 1_555 1_555
C34 C33 1_555 1_555
H28 C34 1_555 1_555
C35 C34 1_555 1_555
H29 C35 1_555 1_555
C36 C31 1_555 1_555
H30 C36 1_555 1_555
C37 Sn3 1_555 1_555
C38 C37 1_555 1_555
H31 C38 1_555 1_555
C39 C38 1_555 1_555
H32 C39 1_555 1_555
C40 C39 1_555 1_555
H33 C40 1_555 1_555
C41 C40 1_555 1_555
H34 C41 1_555 1_555
C42 C37 1_555 1_555
H35 C42 1_555 1_555
C43 Sn3 1_555 1_555
C44 C43 1_555 1_555
H36 C44 1_555 1_555
C45 C44 1_555 1_555
H37 C45 1_555 1_555
C46 C45 1_555 1_555
H38 C46 1_555 1_555
C47 C46 1_555 1_555
H39 C47 1_555 1_555
C48 C43 1_555 1_555
H40 C48 1_555 1_555
C49 Sn3 1_555 1_555
C50 C49 1_555 1_555
H41 C50 1_555 1_555
C51 C50 1_555 1_555
H42 C51 1_555 1_555
C52 C51 1_555 1_555
H43 C52 1_555 1_555
C53 C52 1_555 1_555
H44 C53 1_555 1_555
C54 C49 1_555 1_555
H45 C54 1_555 1_555
C55 Sn4 1_555 1_555
C56 C55 1_555 1_555
H46 C56 1_555 1_555
C57 C56 1_555 1_555
H47 C57 1_555 1_555
C58 C57 1_555 1_555
H48 C58 1_555 1_555
C59 C58 1_555 1_555
H49 C59 1_555 1_555
C60 C55 1_555 1_555
H50 C60 1_555 1_555
C61 Sn4 1_555 1_555
C62 C61 1_555 1_555
H51 C62 1_555 1_555
C63 C62 1_555 1_555
H52 C63 1_555 1_555
C64 C63 1_555 1_555
H53 C64 1_555 1_555
C65 C64 1_555 1_555
H54 C65 1_555 1_555
C66 C61 1_555 1_555
H55 C66 1_555 1_555
C70 Sn4 1_555 1_555
C71 C70 1_555 1_555
H59 C71 1_555 1_555
C72 C71 1_555 1_555
H60 C72 1_555 1_555
C73 C72 1_555 1_555
H61 C73 1_555 1_555
C74 C73 1_555 1_555
H62 C74 1_555 1_555
C75 C70 1_555 1_555
H63 C75 1_555 1_555
Sn1A O2 1_555 1_555
Sn3A O5 1_555 1_555
O2A Sn1 1_555 1_555
O5A Sn3 1_555 1_555
C5 C6 1_555 1_555
C11 C12 1_555 1_555
C17 C18 1_555 1_555
C23 C24 1_555 1_555
C29 C30 1_555 1_555
C35 C36 1_555 1_555
C41 C42 1_555 1_555
C47 C48 1_555 1_555
C53 C54 1_555 1_555
C59 C60 1_555 1_555
C65 C66 1_555 1_555
C74 C75 1_555 1_555

#END
