
#######################################################################
#
#                 Cambridge Crystallographic Data Centre
#                                CCDC 
#
#######################################################################
#
# If this CIF has been generated from an entry in the Cambridge 
# Structural Database, then it will include bibliographic, chemical, 
# crystal, experimental, refinement or atomic coordinate data resulting 
# from the CCDC's data processing and validation procedures.
#
#######################################################################

data_HIBLUA
_symmetry_cell_setting           orthorhombic
_symmetry_space_group_name_H-M   'P 21 21 21'
_symmetry_Int_Tables_number      19
_space_group_name_Hall           'P 2ac 2ab'
loop_
_symmetry_equiv_pos_site_id
_symmetry_equiv_pos_as_xyz
1 x,y,z
2 1/2-x,-y,1/2+z
3 1/2+x,1/2-y,-z
4 -x,1/2+y,1/2-z
_cell_length_a                   12.71400(10)
_cell_length_b                   15.60300(10)
_cell_length_c                   17.1800(2)
_cell_angle_alpha                90
_cell_angle_beta                 90
_cell_angle_gamma                90
_cell_volume                     3408.11
loop_
_atom_site_label
_atom_site_type_symbol
_atom_site_fract_x
_atom_site_fract_y
_atom_site_fract_z
Sn1 Sn 0.46551(2) 0.906328(16) 0.764166(15)
Sn2 Sn 0.665030(19) 0.742690(15) 0.473351(14)
Cr1 Cr 0.43040(4) 0.75337(4) 0.60530(3)
O1 O 0.4727(2) 0.79651(16) 0.68851(14)
O2 O 0.51429(19) 0.77459(15) 0.53481(14)
O3 O 0.31411(19) 0.79461(16) 0.58223(15)
O4 O 0.4196(2) 0.65132(16) 0.61557(16)
O5 O 0.4405(2) 1.02591(18) 0.84634(17)
H1 H 0.482(4) 1.064(3) 0.869(3)
C1 C 0.5893(3) 0.8613(3) 0.8358(2)
C2 C 0.6137(4) 0.7752(3) 0.8340(3)
H2 H 0.5725 0.7376 0.8030
C3 C 0.6979(4) 0.7423(3) 0.8768(3)
H3 H 0.7142 0.6829 0.8745
C4 C 0.7566(4) 0.7961(3) 0.9222(3)
H4 H 0.8126 0.7737 0.9525
C5 C 0.7350(4) 0.8827(4) 0.9241(3)
H5 H 0.7773 0.9199 0.9547
C6 C 0.6517(3) 0.9155(3) 0.8816(2)
H6 H 0.6367 0.9751 0.8836
C7 C 0.4970(3) 0.9974(2) 0.6756(2)
C8 C 0.5709(3) 1.0631(3) 0.6870(3)
H7 H 0.6076 1.0670 0.7351
C9 C 0.5906(4) 1.1218(3) 0.6288(4)
H8 H 0.6423 1.1650 0.6364
C10 C 0.5362(4) 1.1185(3) 0.5601(3)
H9 H 0.5491 1.1601 0.5208
C11 C 0.4629(4) 1.0551(3) 0.5476(3)
H10 H 0.4243 1.0534 0.5003
C12 C 0.4456(3) 0.9936(3) 0.6047(2)
H11 H 0.3978 0.9481 0.5949
C13 C 0.3071(3) 0.8758(2) 0.7937(2)
C14 C 0.2241(3) 0.8923(2) 0.7426(2)
H12 H 0.2372 0.9210 0.6948
C15 C 0.1225(3) 0.8671(2) 0.7612(3)
H13 H 0.0668 0.8772 0.7255
C16 C 0.1020(3) 0.8273(3) 0.8314(3)
H14 H 0.0323 0.8107 0.8442
C17 C 0.1826(3) 0.8118(3) 0.8824(3)
H15 H 0.1685 0.7844 0.9307
C18 C 0.2851(3) 0.8360(2) 0.8638(2)
H16 H 0.3404 0.8250 0.8996
C19 C 0.6269(3) 0.8357(2) 0.3868(2)
C20 C 0.5544(3) 0.8987(3) 0.4030(2)
H17 H 0.5253 0.9028 0.4538
C21 C 0.5232(4) 0.9567(3) 0.3453(3)
H18 H 0.4731 1.0000 0.3572
C22 C 0.5642(4) 0.9515(3) 0.2718(3)
H19 H 0.5421 0.9905 0.2326
C23 C 0.6380(3) 0.8892(2) 0.2550(2)
H20 H 0.6670 0.8855 0.2041
C24 C 0.6700(3) 0.8321(2) 0.3121(2)
H21 H 0.7218 0.7902 0.3003
C25 C 0.7456(3) 0.7825(2) 0.5761(2)
C26 C 0.7186(3) 0.8597(3) 0.6113(2)
H22 H 0.6667 0.8953 0.5882
C27 C 0.7667(3) 0.8851(3) 0.6799(2)
H23 H 0.7493 0.9386 0.7027
C28 C 0.8403(3) 0.8320(3) 0.7151(2)
H24 H 0.8715 0.8484 0.7632
C29 C 0.8683(3) 0.7553(3) 0.6803(2)
H25 H 0.9196 0.7194 0.7039
C30 C 0.8213(3) 0.7309(2) 0.6110(2)
H26 H 0.8411 0.6785 0.5870
C31 C 0.6138(3) 0.6126(2) 0.4637(2)
C32 C 0.5082(3) 0.5928(3) 0.4484(2)
H27 H 0.4579 0.6374 0.4431
C33 C 0.4772(4) 0.5078(3) 0.4412(2)
H28 H 0.4059 0.4948 0.4297
C34 C 0.5484(4) 0.4422(3) 0.4507(3)
H29 H 0.5262 0.3843 0.4460
C35 C 0.6526(4) 0.4608(2) 0.4669(3)
H30 H 0.7021 0.4157 0.4732
C36 C 0.6845(3) 0.5457(2) 0.4738(2)
H31 H 0.7558 0.5581 0.4857
C37 C 0.3532(4) 1.0824(3) 0.8238(3)
H32 H 0.3520 1.0886 0.7671
H33 H 0.3629 1.1388 0.8479
H34 H 0.2866 1.0575 0.8415
Sn2B Sn 0.165030(19) 0.757310(15) 0.526649(14)
O3B O 0.81411(19) 0.70539(16) 0.41777(15)
loop_
_geom_bond_atom_site_label_1
_geom_bond_atom_site_label_2
_geom_bond_site_symmetry_1
_geom_bond_site_symmetry_2
Sn1 O1 1_555 1_555
Sn2 O2 1_555 1_555
Cr1 O1 1_555 1_555
O2 Cr1 1_555 1_555
O3 Cr1 1_555 1_555
O4 Cr1 1_555 1_555
O5 Sn1 1_555 1_555
H1 O5 1_555 1_555
C1 Sn1 1_555 1_555
C2 C1 1_555 1_555
H2 C2 1_555 1_555
C3 C2 1_555 1_555
H3 C3 1_555 1_555
C4 C3 1_555 1_555
H4 C4 1_555 1_555
C5 C4 1_555 1_555
H5 C5 1_555 1_555
C6 C1 1_555 1_555
H6 C6 1_555 1_555
C7 Sn1 1_555 1_555
C8 C7 1_555 1_555
H7 C8 1_555 1_555
C9 C8 1_555 1_555
H8 C9 1_555 1_555
C10 C9 1_555 1_555
H9 C10 1_555 1_555
C11 C10 1_555 1_555
H10 C11 1_555 1_555
C12 C7 1_555 1_555
H11 C12 1_555 1_555
C13 Sn1 1_555 1_555
C14 C13 1_555 1_555
H12 C14 1_555 1_555
C15 C14 1_555 1_555
H13 C15 1_555 1_555
C16 C15 1_555 1_555
H14 C16 1_555 1_555
C17 C16 1_555 1_555
H15 C17 1_555 1_555
C18 C13 1_555 1_555
H16 C18 1_555 1_555
C19 Sn2 1_555 1_555
C20 C19 1_555 1_555
H17 C20 1_555 1_555
C21 C20 1_555 1_555
H18 C21 1_555 1_555
C22 C21 1_555 1_555
H19 C22 1_555 1_555
C23 C22 1_555 1_555
H20 C23 1_555 1_555
C24 C19 1_555 1_555
H21 C24 1_555 1_555
C25 Sn2 1_555 1_555
C26 C25 1_555 1_555
H22 C26 1_555 1_555
C27 C26 1_555 1_555
H23 C27 1_555 1_555
C28 C27 1_555 1_555
H24 C28 1_555 1_555
C29 C28 1_555 1_555
H25 C29 1_555 1_555
C30 C25 1_555 1_555
H26 C30 1_555 1_555
C31 Sn2 1_555 1_555
C32 C31 1_555 1_555
H27 C32 1_555 1_555
C33 C32 1_555 1_555
H28 C33 1_555 1_555
C34 C33 1_555 1_555
H29 C34 1_555 1_555
C35 C34 1_555 1_555
H30 C35 1_555 1_555
C36 C31 1_555 1_555
H31 C36 1_555 1_555
C37 O5 1_555 1_555
H32 C37 1_555 1_555
H33 C37 1_555 1_555
H34 C37 1_555 1_555
Sn2B O3 1_555 1_555
O3B Sn2 1_555 1_555
C5 C6 1_555 1_555
C11 C12 1_555 1_555
C17 C18 1_555 1_555
C23 C24 1_555 1_555
C29 C30 1_555 1_555
C35 C36 1_555 1_555

#END
