
#######################################################################
#
#                 Cambridge Crystallographic Data Centre
#                                CCDC 
#
#######################################################################
#
# If this CIF has been generated from an entry in the Cambridge 
# Structural Database, then it will include bibliographic, chemical, 
# crystal, experimental, refinement or atomic coordinate data resulting 
# from the CCDC's data processing and validation procedures.
#
#######################################################################

data_HIBQIU
_symmetry_cell_setting           triclinic
_symmetry_space_group_name_H-M   'P -1'
_symmetry_Int_Tables_number      2
_space_group_name_Hall           '-P 1'
loop_
_symmetry_equiv_pos_site_id
_symmetry_equiv_pos_as_xyz
1 x,y,z
2 -x,-y,-z
_cell_length_a                   7.1312(12)
_cell_length_b                   9.5963(16)
_cell_length_c                   12.431(2)
_cell_angle_alpha                100.546(2)
_cell_angle_beta                 98.090(2)
_cell_angle_gamma                95.025(2)
_cell_volume                     822.366
loop_
_atom_site_label
_atom_site_type_symbol
_atom_site_fract_x
_atom_site_fract_y
_atom_site_fract_z
Er1 Er 0.68023(4) 0.19078(3) 0.00037(2)
Cl1 Cl 0.74453(18) 0.01954(14) 0.19715(10)
O1 O 0.4655(5) 0.2585(4) 0.1254(3)
O2 O 0.2501(6) 0.4123(4) 0.1391(3)
O3 O 0.5269(6) 0.6501(4) 0.0930(3)
O4 O 0.3388(5) 0.7690(4) 0.1924(3)
O5 O 0.8606(6) 0.1468(4) 0.1770(3)
O6 O 0.5976(5) -0.0244(4) 0.0940(3)
O7 O 0.6519(6) 0.0544(4) 0.2942(3)
O8 O 0.8665(6) -0.0949(4) 0.2077(3)
O9 O 0.7901(6) 0.4420(4) 0.0782(4)
H1 H 0.878(6) 0.472(6) 0.133(4)
H2 H 0.702(7) 0.496(6) 0.075(5)
O10 O 1.0079(6) 0.2401(5) -0.0217(4)
H3 H 1.086(7) 0.304(6) 0.022(4)
H4 H 1.048(8) 0.202(7) -0.080(3)
O11 O 0.7921(6) -0.0239(4) -0.0994(4)
H5 H 0.706(6) -0.093(4) -0.105(6)
H6 H 0.900(4) -0.050(6) -0.108(6)
N1 N 0.8013(7) 0.4741(5) 0.5459(4)
H7 H 0.8222 0.3917 0.5596
N2 N 0.7989(7) 0.7048(5) 0.5681(4)
C1 C 0.4073(8) 0.3745(5) 0.1682(4)
C2 C 0.5329(7) 0.4693(5) 0.2668(4)
C3 C 0.5387(7) 0.6204(6) 0.2798(4)
C4 C 0.4623(7) 0.6826(6) 0.1817(4)
C5 C 0.6232(8) 0.7111(6) 0.3773(4)
H8 H 0.6249 0.8096 0.3865
C6 C 0.7056(8) 0.6470(6) 0.4612(4)
C7 C 0.8526(8) 0.5974(7) 0.6153(5)
H9 H 0.9172 0.6081 0.6873
C8 C 0.7075(8) 0.5000(6) 0.4467(4)
C9 C 0.6205(8) 0.4074(6) 0.3490(5)
H10 H 0.6216 0.3092 0.3398
Er1A Er 0.31977(4) -0.19078(3) -0.00037(2)
Er1A_2 Er 0.31977(4) 0.80922(3) -0.00037(2)
O3A O 0.4731(6) 0.3499(4) -0.0930(3)
O4A O 0.6612(5) 0.2310(4) -0.1924(3)
O6A O 0.4024(5) 0.0244(4) -0.0940(3)
O12 O 0.0122(6) 0.6320(5) 0.2586(4)
H11 H 0.113(5) 0.678(6) 0.248(7)
H12 H -0.082(6) 0.680(6) 0.259(7)
O13 O 0.7707(8) 0.9836(5) 0.6544(4)
H13 H 0.669(6) 0.992(9) 0.682(6)
H14 H 0.872(6) 1.028(9) 0.694(5)
O14 O 0.8077(11) 0.1822(6) 0.5106(5)
H15 H 0.755(15) 0.133(8) 0.448(3)
H16 H 0.802(15) 0.138(9) 0.564(5)
loop_
_geom_bond_atom_site_label_1
_geom_bond_atom_site_label_2
_geom_bond_site_symmetry_1
_geom_bond_site_symmetry_2
Er1 O1 1_555 1_555
Cl1 O5 1_555 1_555
O1 C1 1_555 1_555
O2 C1 1_555 1_555
O3 C4 1_555 1_555
O4 C4 1_555 1_555
O5 Er1 1_555 1_555
O6 Er1 1_555 1_555
O7 Cl1 1_555 1_555
O8 Cl1 1_555 1_555
O9 Er1 1_555 1_555
H1 O9 1_555 1_555
H2 O9 1_555 1_555
O10 Er1 1_555 1_555
H3 O10 1_555 1_555
H4 O10 1_555 1_555
O11 Er1 1_555 1_555
H5 O11 1_555 1_555
H6 O11 1_555 1_555
N1 H7 1_555 1_555
N2 C6 1_555 1_555
C1 C2 1_555 1_555
C2 C3 1_555 1_555
C3 C4 1_555 1_555
C5 C3 1_555 1_555
H8 C5 1_555 1_555
C6 C5 1_555 1_555
C7 N1 1_555 1_555
H9 C7 1_555 1_555
C8 N1 1_555 1_555
C9 C2 1_555 1_555
H10 C9 1_555 1_555
O12 H11 1_555 1_555
H12 O12 1_555 1_555
O13 H13 1_555 1_555
H14 O13 1_555 1_555
O14 H15 1_555 1_555
H16 O14 1_555 1_555
Er1A O6 1_555 1_555
Er1A_2 O3 1_555 1_555
O3A Er1 1_555 1_555
O4A Er1 1_555 1_555
O6A Er1 1_555 1_555
Cl1 O6 1_555 1_555
O4 Er1A_2 1_555 1_555
N2 C7 1_555 1_555
C6 C8 1_555 1_555
C8 C9 1_555 1_555
Er1A O6A 1_555 1_555

#END
