
#######################################################################
#
#                 Cambridge Crystallographic Data Centre
#                                CCDC 
#
#######################################################################
#
# If this CIF has been generated from an entry in the Cambridge 
# Structural Database, then it will include bibliographic, chemical, 
# crystal, experimental, refinement or atomic coordinate data resulting 
# from the CCDC's data processing and validation procedures.
#
#######################################################################

data_HIBSUG06
_symmetry_cell_setting           orthorhombic
_symmetry_space_group_name_H-M   'P b c a'
_symmetry_Int_Tables_number      61
_space_group_name_Hall           '-P 2ac 2ab'
loop_
_symmetry_equiv_pos_site_id
_symmetry_equiv_pos_as_xyz
1 x,y,z
2 1/2-x,-y,1/2+z
3 1/2+x,1/2-y,-z
4 -x,1/2+y,1/2-z
5 -x,-y,-z
6 1/2+x,y,1/2-z
7 1/2-x,1/2+y,z
8 x,1/2-y,1/2+z
_cell_length_a                   11.458(2)
_cell_length_b                   12.113(2)
_cell_length_c                   17.435(3)
_cell_angle_alpha                90
_cell_angle_beta                 90
_cell_angle_gamma                90
_cell_volume                     2419.82
loop_
_atom_site_label
_atom_site_type_symbol
_atom_site_fract_x
_atom_site_fract_y
_atom_site_fract_z
Cd1 Cd 0.361805(12) 0.600381(11) 0.113435(8)
O1 O 0.39262(14) 0.41284(14) 0.18783(10)
O2 O 0.53392(14) 0.51250(13) 0.13616(10)
O3 O -0.01765(14) 0.78946(14) -0.04617(10)
O4 O -0.18365(13) 0.70049(14) -0.02885(10)
N1 N 0.65220(15) 0.19147(14) 0.26789(10)
N2 N 0.16174(15) 0.58706(14) 0.10296(10)
C1 C 0.74729(18) 0.18273(18) 0.22364(12)
H1 H 0.8027 0.1296 0.2362
C2 C 0.76707(18) 0.24863(19) 0.16041(13)
H2 H 0.8329 0.2382 0.1300
C3 C 0.68723(19) 0.33028(17) 0.14317(12)
H3 H 0.7010 0.3790 0.1029
C4 C 0.58586(18) 0.33884(16) 0.18672(11)
C5 C 0.57147(17) 0.26665(16) 0.24749(12)
H4 H 0.5026 0.2703 0.2756
C6 C 0.49583(19) 0.42649(17) 0.16941(12)
C7 C -0.01735(16) 0.64116(16) 0.04195(11)
C8 C -0.07815(18) 0.71495(17) -0.01498(12)
C9 C 0.10160(17) 0.65191(16) 0.05440(12)
H5 H 0.1418 0.7066 0.0279
C10 C 0.10240(18) 0.50958(17) 0.14152(12)
H6 H 0.1432 0.4633 0.1746
C11 C -0.01677(19) 0.49557(18) 0.13428(12)
H7 H -0.0556 0.4426 0.1633
C12 C -0.07748(17) 0.56146(17) 0.08330(12)
H8 H -0.1575 0.5525 0.0768
O5 O 0.34103(15) 0.47773(15) 0.00748(10)
H9 H 0.296(2) 0.4237(19) 0.016(2)
H10 H 0.393(2) 0.467(3) -0.0261(16)
Cd1C Cd 0.638195(12) 0.100381(11) 0.386565(8)
Cd1B Cd -0.138195(12) 0.899619(11) -0.113435(8)
O3B O 0.48235(14) 0.71054(14) 0.04617(10)
N1C N 0.34780(15) 0.69147(14) 0.23211(10)
loop_
_geom_bond_atom_site_label_1
_geom_bond_atom_site_label_2
_geom_bond_site_symmetry_1
_geom_bond_site_symmetry_2
Cd1 O1 1_555 1_555
O1 C6 1_555 1_555
O2 Cd1 1_555 1_555
O3 C8 1_555 1_555
O4 C8 1_555 1_555
N1 C1 1_555 1_555
N2 Cd1 1_555 1_555
C1 H1 1_555 1_555
C2 C1 1_555 1_555
H2 C2 1_555 1_555
C3 C2 1_555 1_555
H3 C3 1_555 1_555
C4 C3 1_555 1_555
C5 N1 1_555 1_555
H4 C5 1_555 1_555
C6 O2 1_555 1_555
C7 C8 1_555 1_555
C9 N2 1_555 1_555
H5 C9 1_555 1_555
C10 N2 1_555 1_555
H6 C10 1_555 1_555
C11 C10 1_555 1_555
H7 C11 1_555 1_555
C12 C7 1_555 1_555
H8 C12 1_555 1_555
O5 Cd1 1_555 1_555
H9 O5 1_555 1_555
H10 O5 1_555 1_555
Cd1C N1 1_555 1_555
Cd1B O3 1_555 1_555
O3B Cd1 1_555 1_555
N1C Cd1 1_555 1_555
C4 C5 1_555 1_555
C4 C6 1_555 1_555
C7 C9 1_555 1_555
C11 C12 1_555 1_555

#END
