
#######################################################################
#
#                 Cambridge Crystallographic Data Centre
#                                CCDC 
#
#######################################################################
#
# If this CIF has been generated from an entry in the Cambridge 
# Structural Database, then it will include bibliographic, chemical, 
# crystal, experimental, refinement or atomic coordinate data resulting 
# from the CCDC's data processing and validation procedures.
#
#######################################################################

data_HICGOQ
_symmetry_cell_setting           trigonal
_symmetry_space_group_name_H-M   'P 3 1 m'
_symmetry_Int_Tables_number      157
_space_group_name_Hall           "P 3 -2'"
loop_
_symmetry_equiv_pos_site_id
_symmetry_equiv_pos_as_xyz
1 x,y,z
2 -y,x-y,z
3 -x+y,-x,z
4 y,x,z
5 x-y,-y,z
6 -x,-x+y,z
_cell_length_a                   9.6956(8)
_cell_length_b                   9.6956(8)
_cell_length_c                   6.0530(10)
_cell_angle_alpha                90
_cell_angle_beta                 90
_cell_angle_gamma                120
_cell_volume                     492.777
loop_
_atom_site_label
_atom_site_type_symbol
_atom_site_fract_x
_atom_site_fract_y
_atom_site_fract_z
Fe1 Fe 0.6667 0.3333 0.4000
N1 N 0.8688(2) 0.3611(2) 0.5879(3)
O1 O 0.8610(2) 0.5024(2) 0.2163(3)
C1 C 1.0000 0.4498(3) 0.5203(6)
C2 C 0.8551(4) 0.2626(4) 0.7970(7)
H1 H 0.7548 0.1857 0.8555
C3 C 1.0000 0.2933(6) 0.8961(10)
H2 H 1.0000 0.2386 1.0263
C4 C 1.0000 0.5366(3) 0.2992(6)
Fe1E Fe 1.3333 0.6666 0.4000
Fe1C Fe 0.3333 0.6667 0.4000
Fe1C_2 Fe 0.3333 -0.3333 0.4000
N1E N 1.1312(2) 0.4923(3) 0.5879(3)
N1A N 0.6389(2) 0.5077(3) 0.5879(3)
N1D N 0.5077(3) 0.6389(2) 0.5879(3)
N1B N 0.4923(3) 0.1312(2) 0.5879(3)
N1C N 0.3611(2) -0.1312(2) 0.5879(3)
N1C_2 N 1.3611(2) 0.8688(2) 0.5879(3)
N1D_2 N 1.5077(3) 0.6389(2) 0.5879(3)
O1E O 1.1390(2) 0.6414(3) 0.2163(3)
O1A O 0.4976(2) 0.3586(3) 0.2163(3)
O1D O 0.3586(3) 0.4976(2) 0.2163(3)
O1B O 0.6414(3) 0.1390(2) 0.2163(3)
O1C O 0.5024(2) -0.1390(2) 0.2163(3)
O1C_2 O 1.5024(2) 0.8610(2) 0.2163(3)
O1D_2 O 1.3586(3) 0.4976(2) 0.2163(3)
C1A C 0.5502(3) 0.5502(3) 0.5203(6)
C1B C 0.4498(3) 0.0000 0.5203(6)
C2E C 1.1449(4) 0.4075(6) 0.7970(7)
C2A C 0.7374(4) 0.5925(6) 0.7970(7)
C2D C 0.5925(6) 0.7374(4) 0.7970(7)
C2B C 0.4075(6) 0.1449(4) 0.7970(7)
C2C C 0.2626(4) -0.1449(4) 0.7970(7)
H1E H 1.2452 0.4309 0.8555
H1A H 0.8143 0.5691 0.8555
H1D H 0.5691 0.8143 0.8555
H1B H 0.4309 0.2452 0.8555
H1C H 0.1857 -0.2452 0.8555
C3A C 0.7067(6) 0.7067(6) 0.8961(10)
C3B C 0.2933(6) 0.0000 0.8961(10)
H2A H 0.7614 0.7614 1.0263
H2B H 0.2386 0.0000 1.0263
C4A C 0.4634(3) 0.4634(3) 0.2992(6)
C4B C 0.5366(3) 0.0000 0.2992(6)
O2 O 1.0000 0.0000 0.9978(18)
O3 O 1.0000 0.0000 1.423(2)
loop_
_geom_bond_atom_site_label_1
_geom_bond_atom_site_label_2
_geom_bond_site_symmetry_1
_geom_bond_site_symmetry_2
Fe1 N1 1_555 1_555
N1 C1 1_555 1_555
O1 Fe1 1_555 1_555
C1 C4 1_555 1_555
C2 N1 1_555 1_555
H1 C2 1_555 1_555
C3 C2 1_555 1_555
H2 C3 1_555 1_555
C4 O1 1_555 1_555
Fe1E N1E 1_555 1_555
Fe1C N1D 1_555 1_555
Fe1C_2 N1C 1_555 1_555
N1E C1 1_555 1_555
N1A Fe1 1_555 1_555
N1D C1A 1_555 1_555
N1B Fe1 1_555 1_555
N1C C1B 1_555 1_555
N1C_2 Fe1E 1_555 1_555
N1D_2 Fe1E 1_555 1_555
O1E C4 1_555 1_555
O1A Fe1 1_555 1_555
O1D Fe1C 1_555 1_555
O1B Fe1 1_555 1_555
O1C Fe1C_2 1_555 1_555
O1C_2 Fe1E 1_555 1_555
O1D_2 Fe1E 1_555 1_555
C1A N1A 1_555 1_555
C1B N1B 1_555 1_555
C2E C3 1_555 1_555
C2A N1A 1_555 1_555
C2D N1D 1_555 1_555
C2B N1B 1_555 1_555
C2C N1C 1_555 1_555
H1E C2E 1_555 1_555
H1A C2A 1_555 1_555
H1D C2D 1_555 1_555
H1B C2B 1_555 1_555
H1C C2C 1_555 1_555
C3A C2A 1_555 1_555
C3B C2B 1_555 1_555
H2A C3A 1_555 1_555
H2B C3B 1_555 1_555
C4A O1A 1_555 1_555
C4B O1B 1_555 1_555
Fe1E O1E 1_555 1_555
N1E C2E 1_555 1_555
O1D C4A 1_555 1_555
O1C C4B 1_555 1_555
C1A C4A 1_555 1_555
C1B C4B 1_555 1_555
C2D C3A 1_555 1_555
C2C C3B 1_555 1_555

#END
