
#######################################################################
#
#                 Cambridge Crystallographic Data Centre
#                                CCDC 
#
#######################################################################
#
# If this CIF has been generated from an entry in the Cambridge 
# Structural Database, then it will include bibliographic, chemical, 
# crystal, experimental, refinement or atomic coordinate data resulting 
# from the CCDC's data processing and validation procedures.
#
#######################################################################

data_HICJOT
_symmetry_cell_setting           monoclinic
_symmetry_space_group_name_H-M   'C c'
_symmetry_Int_Tables_number      9
_space_group_name_Hall           'C -2yc'
loop_
_symmetry_equiv_pos_site_id
_symmetry_equiv_pos_as_xyz
1 x,y,z
2 x,-y,1/2+z
3 1/2+x,1/2+y,z
4 1/2+x,1/2-y,1/2+z
_cell_length_a                   40.3640(8)
_cell_length_b                   8.3410(8)
_cell_length_c                   18.7430(10)
_cell_angle_alpha                90
_cell_angle_beta                 112.6850(10)
_cell_angle_gamma                90
_cell_volume                     5822.15
loop_
_atom_site_label
_atom_site_type_symbol
_atom_site_fract_x
_atom_site_fract_y
_atom_site_fract_z
Zn1 Zn 0.752356(10) 0.64831(6) 0.886982(19)
Zn2 Zn 0.865680(10) 1.16141(6) 1.21329(2)
Zn3 Zn 0.555960(12) 0.89067(5) 1.03330(2)
C1 C 0.65623(10) 0.6857(5) 1.0952(2)
C2 C 0.66383(11) 0.6786(5) 1.0293(2)
H1 H 0.6476 0.7203 0.9830
C3 C 0.69551(9) 0.6098(5) 1.03179(18)
C4 C 0.71965(10) 0.5441(5) 1.1006(2)
H2 H 0.7411 0.4990 1.1025
C5 C 0.71163(10) 0.5461(5) 1.16589(19)
C6 C 0.68046(9) 0.6208(5) 1.1636(2)
H3 H 0.6758 0.6273 1.2084
C7 C 0.62224(10) 0.7646(5) 1.0940(2)
C8 C 0.70439(10) 0.6154(6) 0.9602(2)
C9 C 0.73622(11) 0.4690(5) 1.2397(2)
C10 C 0.96735(10) 0.8675(5) 1.5119(2)
C11 C 0.94285(10) 0.9351(5) 1.4440(2)
H4 H 0.9496 0.9524 1.4024
C12 C 0.90860(11) 0.9767(5) 1.4379(2)
C13 C 0.89959(10) 0.9564(5) 1.5017(2)
H5 H 0.8769 0.9866 1.4983
C14 C 0.92352(10) 0.8927(5) 1.5698(2)
C15 C 0.95769(11) 0.8461(5) 1.5744(2)
H6 H 0.9739 0.8006 1.6197
C16 C 1.00340(10) 0.8162(6) 1.5138(2)
C17 C 0.88236(11) 1.0436(5) 1.3626(2)
C18 C 0.91462(10) 0.8664(5) 1.6392(2)
C19 C 0.68177(12) 1.2024(6) 0.9365(3)
C20 C 0.70610(11) 1.1310(6) 1.0021(2)
H7 H 0.7282 1.0990 1.0024
C21 C 0.69898(10) 1.1053(6) 1.0669(2)
C22 C 0.66634(12) 1.1589(6) 1.0672(3)
H8 H 0.6608 1.1445 1.1105
C23 C 0.64263(13) 1.2334(8) 1.0026(3)
H9 H 0.6210 1.2707 1.0031
C24 C 0.64952(12) 1.2548(7) 0.9378(3)
H10 H 0.6327 1.3044 0.8946
C25 C 0.68926(13) 1.2260(6) 0.8640(3)
H11 H 0.6672 1.2106 0.8190
H12 H 0.6973 1.3351 0.8627
C26 C 0.72429(10) 1.0185(6) 1.1381(2)
H13 H 0.7252 1.0755 1.1839
H14 H 0.7150 0.9118 1.1397
C27 C 0.71397(12) 0.9539(6) 0.8606(2)
H15 H 0.6935 0.8991 0.8580
C28 C 0.74976(13) 1.1467(6) 0.8626(3)
H16 H 0.7593 1.2480 0.8620
C29 C 0.76674(14) 1.0064(6) 0.8666(3)
H17 H 0.7901 0.9949 0.8695
C30 C 0.78764(11) 1.1082(6) 1.1761(2)
H18 H 0.7861 1.1926 1.2071
C31 C 0.77323(11) 0.9005(6) 1.1001(2)
H19 H 0.7606 0.8156 1.0695
C32 C 0.80746(11) 0.9428(6) 1.1142(2)
H20 H 0.8225 0.8918 1.0943
C33 C 0.55466(15) 1.6692(6) 1.2835(2)
C34 C 0.57713(14) 1.6071(6) 1.2515(2)
H21 H 0.5823 1.6670 1.2152
C35 C 0.59225(12) 1.4575(6) 1.2720(2)
C36 C 0.58455(14) 1.3691(6) 1.3259(3)
H22 H 0.5946 1.2678 1.3396
C37 C 0.56254(15) 1.4271(7) 1.3591(3)
H23 H 0.5581 1.3668 1.3962
C38 C 0.54662(15) 1.5775(8) 1.3376(3)
H24 H 0.5308 1.6165 1.3588
C39 C 0.5401(2) 1.8381(8) 1.2593(3)
H25 H 0.5199 1.8332 1.2098
H26 H 0.5586 1.9037 1.2528
C40 C 0.61610(12) 1.3922(6) 1.2339(2)
H27 H 0.6337 1.3201 1.2691
H28 H 0.6289 1.4797 1.2217
C41 C 0.59192(9) 1.1478(5) 1.1519(2)
H29 H 0.6054 1.0729 1.1883
C42 C 0.55460(14) 1.2564(5) 1.0486(3)
H30 H 0.5370 1.2688 0.9992
C43 C 0.57099(11) 1.3747(6) 1.0965(2)
H31 H 0.5670 1.4839 1.0869
C44 C 0.54931(12) 1.9870(5) 1.3806(2)
H32 H 0.5737 2.0064 1.3939
C45 C 0.49717(12) 1.9774(7) 1.3842(3)
H33 H 0.4783 1.9900 1.4004
C46 C 0.49533(16) 1.9040(8) 1.3182(4)
H34 H 0.4751 1.8568 1.2812
C47 C 0.84810(13) 0.5124(6) 1.2452(3)
H35 H 0.8259 0.4941 1.2480
C48 C 0.86408(13) 0.6582(6) 1.2512(3)
H36 H 0.8549 0.7570 1.2576
C49 C 0.89845(11) 0.4750(6) 1.2357(3)
H37 H 0.9180 0.4261 1.2300
C50 C 0.93434(13) 0.7173(6) 1.1777(3)
C51 C 0.91082(12) 0.6603(6) 1.1066(3)
H38 H 0.8867 0.6488 1.0984
C52 C 0.92156(12) 0.6206(7) 1.0483(3)
C53 C 0.95731(14) 0.6447(9) 1.0607(4)
H39 H 0.9655 0.6176 1.0223
C54 C 0.98073(16) 0.7081(10) 1.1291(4)
H40 H 1.0044 0.7279 1.1354
C55 C 0.97003(15) 0.7429(8) 1.1884(3)
H41 H 0.9863 0.7830 1.2350
C56 C 0.92266(15) 0.7513(6) 1.2433(3)
H42 H 0.9434 0.7499 1.2918
H43 H 0.9120 0.8572 1.2368
C57 C 0.89713(13) 0.5469(8) 0.9737(3)
H44 H 0.8969 0.6142 0.9313
H45 H 0.9067 0.4433 0.9680
C58 C 0.83207(11) 0.6195(6) 0.9282(2)
H46 H 0.8329 0.7043 0.8967
C59 C 0.81391(13) 0.4469(6) 0.9897(2)
H47 H 0.7991 0.3914 1.0087
C60 C 0.84816(13) 0.4142(7) 1.0062(3)
H48 H 0.8615 0.3321 1.0378
N1 N 0.74421(9) 0.8832(5) 0.86565(17)
N2 N 0.71653(9) 1.1148(5) 0.85979(19)
N3 N 0.76075(9) 1.0056(5) 1.13936(19)
N4 N 0.81641(8) 1.0728(5) 1.16225(18)
N5 N 0.59483(8) 1.3061(4) 1.16275(18)
N6 N 0.56803(8) 1.1108(4) 1.08418(18)
N7 N 0.52852(13) 1.9125(6) 1.3164(2)
N8 N 0.53164(8) 2.0297(4) 1.42278(19)
N9 N 0.86977(9) 0.3972(5) 1.23434(18)
N10 N 0.89609(10) 0.6296(5) 1.2459(2)
N11 N 0.80355(9) 0.5766(5) 0.93981(19)
N12 N 0.86004(10) 0.5253(5) 0.9675(2)
O1 O 0.61867(8) 0.7910(4) 1.15510(18)
O2 O 0.59914(7) 0.7972(4) 1.02781(17)
O3 O 0.68069(8) 0.6556(4) 0.89805(16)
O4 O 0.73682(7) 0.5863(4) 0.97073(14)
O5 O 0.72607(8) 0.4805(4) 1.29606(15)
O6 O 0.76384(8) 0.4005(5) 1.24407(16)
O7 O 1.01985(8) 0.7084(4) 1.56400(17)
O8 O 1.01519(8) 0.8748(4) 1.46824(19)
O9 O 0.89368(8) 1.0523(4) 1.30823(15)
O10 O 0.85192(8) 1.0848(5) 1.35639(17)
O11 O 0.93681(8) 0.8151(5) 1.69984(17)
O12 O 0.88169(7) 0.8985(4) 1.63021(14)
Zn1A Zn 0.752356(10) 0.35169(6) 1.386982(19)
Zn2_2 Zn 0.865680(10) 0.16141(6) 1.21329(2)
Zn2A Zn 0.865680(10) 0.83859(6) 1.71329(2)
Zn3A Zn 0.555960(12) 2.10933(5) 1.53330(2)
Zn3C Zn 1.055960(12) 0.60933(5) 1.53330(2)
N8A N 0.53164(8) 0.9703(4) 0.92278(19)
N9_2 N 0.86977(9) 1.3972(5) 1.23434(18)
O5A O 0.72607(8) 0.5195(4) 0.79606(15)
O7C O 0.51985(8) 0.7916(4) 1.06400(17)
O12A O 0.88169(7) 1.1015(4) 1.13021(14)
loop_
_geom_bond_atom_site_label_1
_geom_bond_atom_site_label_2
_geom_bond_site_symmetry_1
_geom_bond_site_symmetry_2
Zn1 N1 1_555 1_555
Zn2 N4 1_555 1_555
Zn3 N6 1_555 1_555
C1 C2 1_555 1_555
C2 H1 1_555 1_555
C3 C2 1_555 1_555
C4 C3 1_555 1_555
H2 C4 1_555 1_555
C5 C4 1_555 1_555
C6 C1 1_555 1_555
H3 C6 1_555 1_555
C7 C1 1_555 1_555
C8 C3 1_555 1_555
C9 C5 1_555 1_555
C10 C11 1_555 1_555
C11 H4 1_555 1_555
C12 C11 1_555 1_555
C13 C12 1_555 1_555
H5 C13 1_555 1_555
C14 C13 1_555 1_555
C15 C10 1_555 1_555
H6 C15 1_555 1_555
C16 C10 1_555 1_555
C17 C12 1_555 1_555
C18 C14 1_555 1_555
C19 C20 1_555 1_555
C20 H7 1_555 1_555
C21 C20 1_555 1_555
C22 C21 1_555 1_555
H8 C22 1_555 1_555
C23 C22 1_555 1_555
H9 C23 1_555 1_555
C24 C19 1_555 1_555
H10 C24 1_555 1_555
C25 C19 1_555 1_555
H11 C25 1_555 1_555
H12 C25 1_555 1_555
C26 C21 1_555 1_555
H13 C26 1_555 1_555
H14 C26 1_555 1_555
C27 H15 1_555 1_555
C28 H16 1_555 1_555
C29 C28 1_555 1_555
H17 C29 1_555 1_555
C30 H18 1_555 1_555
C31 H19 1_555 1_555
C32 C31 1_555 1_555
H20 C32 1_555 1_555
C33 C34 1_555 1_555
C34 H21 1_555 1_555
C35 C34 1_555 1_555
C36 C35 1_555 1_555
H22 C36 1_555 1_555
C37 C36 1_555 1_555
H23 C37 1_555 1_555
C38 C33 1_555 1_555
H24 C38 1_555 1_555
C39 C33 1_555 1_555
H25 C39 1_555 1_555
H26 C39 1_555 1_555
C40 C35 1_555 1_555
H27 C40 1_555 1_555
H28 C40 1_555 1_555
C41 H29 1_555 1_555
C42 H30 1_555 1_555
C43 C42 1_555 1_555
H31 C43 1_555 1_555
C44 H32 1_555 1_555
C45 H33 1_555 1_555
C46 C45 1_555 1_555
H34 C46 1_555 1_555
C47 H35 1_555 1_555
C48 C47 1_555 1_555
H36 C48 1_555 1_555
C49 H37 1_555 1_555
C50 C51 1_555 1_555
C51 H38 1_555 1_555
C52 C51 1_555 1_555
C53 C52 1_555 1_555
H39 C53 1_555 1_555
C54 C53 1_555 1_555
H40 C54 1_555 1_555
C55 C50 1_555 1_555
H41 C55 1_555 1_555
C56 C50 1_555 1_555
H42 C56 1_555 1_555
H43 C56 1_555 1_555
C57 C52 1_555 1_555
H44 C57 1_555 1_555
H45 C57 1_555 1_555
C58 H46 1_555 1_555
C59 H47 1_555 1_555
C60 C59 1_555 1_555
H48 C60 1_555 1_555
N1 C27 1_555 1_555
N2 C25 1_555 1_555
N3 C26 1_555 1_555
N4 C30 1_555 1_555
N5 C40 1_555 1_555
N6 C41 1_555 1_555
N7 C39 1_555 1_555
N8 C44 1_555 1_555
N9 C47 1_555 1_555
N10 C48 1_555 1_555
N11 Zn1 1_555 1_555
N12 C57 1_555 1_555
O1 C7 1_555 1_555
O2 Zn3 1_555 1_555
O3 C8 1_555 1_555
O4 Zn1 1_555 1_555
O5 C9 1_555 1_555
O6 C9 1_555 1_555
O7 C16 1_555 1_555
O8 C16 1_555 1_555
O9 Zn2 1_555 1_555
O10 C17 1_555 1_555
O11 C18 1_555 1_555
O12 C18 1_555 1_555
Zn1A O5 1_555 1_555
Zn2_2 N9 1_555 1_555
Zn2A O12 1_555 1_555
Zn3A N8 1_555 1_555
Zn3C O7 1_555 1_555
N8A Zn3 1_555 1_555
N9_2 Zn2 1_555 1_555
O5A Zn1 1_555 1_555
O7C Zn3 1_555 1_555
O12A Zn2 1_555 1_555
C5 C6 1_555 1_555
C7 O2 1_555 1_555
C8 O4 1_555 1_555
C14 C15 1_555 1_555
C17 O9 1_555 1_555
C23 C24 1_555 1_555
C27 N2 1_555 1_555
C28 N2 1_555 1_555
C29 N1 1_555 1_555
C30 N3 1_555 1_555
C31 N3 1_555 1_555
C32 N4 1_555 1_555
C37 C38 1_555 1_555
C41 N5 1_555 1_555
C42 N6 1_555 1_555
C43 N5 1_555 1_555
C44 N7 1_555 1_555
C45 N8 1_555 1_555
C46 N7 1_555 1_555
C49 N9 1_555 1_555
C49 N10 1_555 1_555
C54 C55 1_555 1_555
C56 N10 1_555 1_555
C58 N11 1_555 1_555
C58 N12 1_555 1_555
C59 N11 1_555 1_555
C60 N12 1_555 1_555

#END
