
#######################################################################
#
#                 Cambridge Crystallographic Data Centre
#                                CCDC 
#
#######################################################################
#
# If this CIF has been generated from an entry in the Cambridge 
# Structural Database, then it will include bibliographic, chemical, 
# crystal, experimental, refinement or atomic coordinate data resulting 
# from the CCDC's data processing and validation procedures.
#
#######################################################################

data_HICKIO
_symmetry_cell_setting           triclinic
_symmetry_space_group_name_H-M   'P -1'
_symmetry_Int_Tables_number      2
_space_group_name_Hall           '-P 1'
loop_
_symmetry_equiv_pos_site_id
_symmetry_equiv_pos_as_xyz
1 x,y,z
2 -x,-y,-z
_cell_length_a                   11.074(2)
_cell_length_b                   11.462(2)
_cell_length_c                   18.048(4)
_cell_angle_alpha                83.61(3)
_cell_angle_beta                 84.85(3)
_cell_angle_gamma                73.03(3)
_cell_volume                     2173.52
loop_
_atom_site_label
_atom_site_type_symbol
_atom_site_fract_x
_atom_site_fract_y
_atom_site_fract_z
Co1 Co -0.02918(7) 0.60431(7) 0.43302(4)
Co2 Co 0.45274(7) 0.59587(7) 0.05982(4)
Co3 Co 0.31906(7) 0.62796(7) -0.11811(4)
Co4 Co -0.08904(8) 0.36684(8) 0.40112(4)
C1 C 0.0542(5) 0.6183(5) 0.0741(3)
C2 C 0.0538(5) 0.5932(5) 0.1532(3)
H1 H 0.1260 0.5854 0.1781
C3 C -0.0552(5) 0.5805(5) 0.1922(3)
C4 C -0.1648(5) 0.5955(5) 0.1554(3)
H2 H -0.2369 0.5846 0.1823
C5 C -0.1668(5) 0.6265(5) 0.0790(3)
C6 C -0.0573(5) 0.6380(5) 0.0386(3)
H3 H -0.0586 0.6591 -0.0127
C7 C 0.1782(5) 0.6172(5) 0.0323(3)
C8 C -0.0498(5) 0.5389(5) 0.2744(3)
C9 C 0.3563(5) 0.6359(5) 0.4164(3)
C10 C 0.4605(5) 0.6377(5) 0.4538(3)
H4 H 0.4497 0.6591 0.5027
C11 C 0.5818(5) 0.6072(5) 0.4175(3)
C12 C 0.5959(5) 0.5742(5) 0.3449(3)
H5 H 0.6763 0.5516 0.3212
C13 C 0.4921(6) 0.5744(5) 0.3070(3)
C14 C 0.3741(5) 0.6046(5) 0.3417(3)
H6 H 0.3048 0.6047 0.3161
C15 C 0.2283(5) 0.6538(6) 0.4570(3)
C16 C 0.6936(5) 0.6081(6) 0.4585(3)
C17 C 0.4298(7) 0.8464(7) -0.1615(4)
H7 H 0.5119 0.7961 -0.1564
C18 C 0.2291(7) 0.9094(6) -0.1693(4)
H8 H 0.1452 0.9101 -0.1710
C19 C 0.2711(8) 1.0100(7) -0.1767(4)
H9 H 0.2223 1.0912 -0.1834
C20 C 0.9007(9) 0.8324(8) -0.3176(4)
H10 H 0.8754 0.7737 -0.2853
C21 C 0.9160(10) 1.0087(8) -0.3689(7)
H11 H 0.9045 1.0924 -0.3796
C22 C 0.9994(9) 0.9182(8) -0.4033(6)
H12 H 1.0558 0.9290 -0.4431
C23 C 0.7491(13) 1.0127(12) -0.2612(6)
H13 H 0.7612 1.0902 -0.2521
H14 H 0.7570 0.9616 -0.2143
C24 C 0.6071(10) 1.0380(9) -0.2873(6)
H15 H 0.6024 1.0779 -0.3377
H16 H 0.5895 0.9602 -0.2884
C25 C 0.5118(10) 1.1129(9) -0.2396(6)
H17 H 0.4351 1.1459 -0.2663
H18 H 0.5400 1.1814 -0.2288
C26 C 0.4815(11) 1.0469(10) -0.1677(6)
H19 H 0.5601 0.9961 -0.1477
H20 H 0.4417 1.1068 -0.1325
C27 C 0.2584(6) 0.8355(6) 0.0869(4)
H21 H 0.2119 0.7919 0.1179
C28 C 0.3090(7) 0.9862(6) 0.0198(4)
H22 H 0.3066 1.0632 -0.0038
C29 C 0.4068(7) 0.8808(6) 0.0153(4)
H23 H 0.4830 0.8741 -0.0126
C30 C -0.1905(6) 0.8598(6) 0.4705(4)
H24 H -0.1799 0.8379 0.5212
C31 C -0.1747(9) 0.8550(7) 0.3535(4)
H25 H -0.1509 0.8286 0.3061
C32 C -0.2558(9) 0.9637(7) 0.3679(5)
H26 H -0.2967 1.0253 0.3331
C33 C 0.0869(7) 1.0340(7) 0.0803(5)
H27 H 0.0906 1.1115 0.0953
H28 H 0.0457 0.9949 0.1213
C34 C 0.0101(7) 1.0574(6) 0.0131(5)
H29 H 0.0519 1.0965 -0.0276
H30 H -0.0718 1.1142 0.0245
C35 C -0.4627(12) 1.0244(13) 0.5207(10)
H31 H -0.4338 0.9646 0.5624
H32 H -0.5195 1.0963 0.5416
C36 C -0.3510(7) 1.0604(7) 0.4863(5)
H33 H -0.3791 1.1355 0.4541
H34 H -0.3048 1.0765 0.5253
C37 C 0.5112(5) 0.5339(5) 0.2292(3)
C38 C -0.2872(5) 0.6427(5) 0.0419(3)
N1 N 0.3291(5) 0.8063(5) -0.1589(3)
N2 N 0.3986(7) 0.9692(6) -0.1724(4)
N3 N 0.8509(8) 0.9530(7) -0.3148(4)
N4 N 0.9890(6) 0.8067(5) -0.3710(3)
N5 N -0.1329(5) 0.7899(5) 0.4175(3)
N6 N -0.2663(6) 0.9661(5) 0.4427(3)
N7 N 0.3746(5) 0.7865(5) 0.0585(3)
N8 N 0.2160(5) 0.9557(5) 0.0656(3)
O1 O 0.2739(4) 0.5735(4) 0.0688(2)
O2 O 0.1757(4) 0.6568(4) -0.0355(2)
O3 O -0.0067(4) 0.5968(4) 0.3147(2)
O4 O -0.0882(4) 0.4456(4) 0.2953(2)
O5 O -0.3598(4) 0.5826(4) 0.0750(2)
O6 O -0.3102(4) 0.7112(5) -0.0168(3)
O7 O 0.1431(4) 0.6393(5) 0.4210(3)
O8 O 0.2149(4) 0.6817(5) 0.5237(3)
O9 O 0.6797(4) 0.6527(5) 0.5184(3)
O10 O 0.8020(4) 0.5579(4) 0.4261(2)
O11 O 0.6107(4) 0.4479(4) 0.2165(2)
O12 O 0.4294(4) 0.5856(4) 0.1835(2)
O13 O 0.4724(4) 0.5936(4) -0.0572(2)
H35 H 0.525(6) 0.635(6) -0.0734(13)
O14 O -0.0422(4) 0.5879(4) 0.5496(2)
H36 H -0.123(7) 0.629(7) 0.569(4)
O15 O 0.1370(4) 0.6818(5) -0.1799(3)
H37 H 0.0910(17) 0.662(6) -0.1402(18)
H38 H 0.113(7) 0.7635(19) -0.184(4)
Co1A Co -0.97082(7) 1.39569(7) 0.56698(4)
Co1_2 Co 0.97082(7) 0.60431(7) 0.43302(4)
Co1A_2 Co 0.02918(7) 0.39569(7) 0.56698(4)
Co1_3 Co -1.02918(7) 0.60431(7) 0.43302(4)
Co2_2 Co -0.54726(7) 0.59587(7) 0.05982(4)
Co2A Co 0.54726(7) 0.40413(7) -0.05982(4)
Co2A_2 Co -0.45274(7) 1.40413(7) -0.05982(4)
Co2_3 Co 1.45274(7) 0.59587(7) 0.05982(4)
Co3A Co -0.31906(7) 0.37204(7) 0.11811(4)
Co3A_2 Co 0.68094(7) 0.37204(7) 0.11811(4)
Co3_2 Co 1.31906(7) 0.62796(7) -0.11811(4)
Co4A Co 0.08904(8) 0.63316(8) 0.59888(4)
Co4A_2 Co 1.08904(8) 0.63316(8) -0.40112(4)
Co4_2 Co 0.91096(8) 0.36684(8) 0.40112(4)
Co4A_3 Co -0.91096(8) 0.63316(8) 0.59888(4)
C1_2 C 1.0542(5) 0.6183(5) 0.0741(3)
C2_2 C 1.0538(5) 0.5932(5) 0.1532(3)
H1_2 H 1.1260 0.5854 0.1781
C3_2 C 0.9448(5) 0.5805(5) 0.1922(3)
C4_2 C 0.8352(5) 0.5955(5) 0.1554(3)
H2_2 H 0.7631 0.5846 0.1823
C5_2 C 0.8332(5) 0.6265(5) 0.0790(3)
C6_2 C 0.9427(5) 0.6380(5) 0.0386(3)
H3_2 H 0.9414 0.6591 -0.0127
C7_2 C 1.1782(5) 0.6172(5) 0.0323(3)
C8_2 C 0.9502(5) 0.5389(5) 0.2744(3)
C9_2 C -0.6437(5) 0.6359(5) 0.4164(3)
C10_2 C -0.5395(5) 0.6377(5) 0.4538(3)
H4_2 H -0.5503 0.6591 0.5027
C11_2 C -0.4182(5) 0.6072(5) 0.4175(3)
C12_2 C -0.4041(5) 0.5742(5) 0.3449(3)
H5_2 H -0.3237 0.5516 0.3212
C13_2 C -0.5079(6) 0.5744(5) 0.3070(3)
C14_2 C -0.6259(5) 0.6046(5) 0.3417(3)
H6_2 H -0.6952 0.6047 0.3161
C15_2 C -0.7717(5) 0.6538(6) 0.4570(3)
C16_2 C -0.3064(5) 0.6081(6) 0.4585(3)
C17A C 0.5702(7) 0.1536(7) 0.1615(4)
H7A H 0.4881 0.2039 0.1564
C18A C 0.7709(7) 0.0906(6) 0.1693(4)
H8A H 0.8548 0.0899 0.1710
C19A C 0.7289(8) -0.0100(7) 0.1767(4)
H9A H 0.7777 -0.0912 0.1834
C20A C 0.0993(9) 0.1676(8) 0.3176(4)
H10A H 0.1246 0.2263 0.2853
C21A C 0.0840(10) -0.0087(8) 0.3689(7)
H11A H 0.0955 -0.0924 0.3796
C22A C 0.0006(9) 0.0818(8) 0.4033(6)
H12A H -0.0558 0.0710 0.4431
C23A C 0.2509(13) -0.0127(12) 0.2612(6)
H13A H 0.2388 -0.0902 0.2521
H14A H 0.2430 0.0384 0.2143
C24A C 0.3929(10) -0.0380(9) 0.2873(6)
H15A H 0.3976 -0.0779 0.3377
H16A H 0.4105 0.0398 0.2884
C25A C 0.4882(10) -0.1129(9) 0.2396(6)
H17A H 0.5649 -0.1459 0.2663
H18A H 0.4600 -0.1814 0.2288
C26A C 0.5185(11) -0.0469(10) 0.1677(6)
H19A H 0.4399 0.0039 0.1477
H20A H 0.5583 -0.1068 0.1325
C27A C -0.2584(6) 1.1645(6) -0.0869(4)
H21A H -0.2119 1.2081 -0.1179
C28A C -0.3090(7) 1.0138(6) -0.0198(4)
H22A H -0.3066 0.9368 0.0038
C29A C -0.4068(7) 1.1192(6) -0.0153(4)
H23A H -0.4830 1.1259 0.0126
C30A C -0.8095(6) 1.1402(6) 0.5295(4)
H24A H -0.8201 1.1621 0.4788
C31A C -0.8253(9) 1.1450(7) 0.6465(4)
H25A H -0.8491 1.1714 0.6939
C32A C -0.7442(9) 1.0363(7) 0.6321(5)
H26A H -0.7033 0.9747 0.6669
C33A C -0.0869(7) 0.9660(7) -0.0803(5)
H27A H -0.0906 0.8885 -0.0953
H28A H -0.0457 1.0051 -0.1213
C34A C -0.0101(7) 0.9426(6) -0.0131(5)
H29A H -0.0519 0.9035 0.0276
H30A H 0.0718 0.8858 -0.0245
C35A C -0.5373(12) 0.9756(13) 0.4793(10)
H31A H -0.5662 1.0354 0.4376
H32A H -0.4805 0.9037 0.4584
C36A C -0.6490(7) 0.9396(7) 0.5137(5)
H33A H -0.6209 0.8645 0.5459
H34A H -0.6952 0.9235 0.4747
C37_2 C -0.4888(5) 0.5339(5) 0.2292(3)
C38_2 C 0.7128(5) 0.6427(5) 0.0419(3)
N1A N 0.6709(5) 0.1937(5) 0.1589(3)
N1A_2 N -0.3291(5) 0.1937(5) 0.1589(3)
N2A N 0.6014(7) 0.0308(6) 0.1724(4)
N3A N 0.1491(8) 0.0470(7) 0.3148(4)
N4A N 0.0110(6) 0.1933(5) 0.3710(3)
N4_2 N -0.0110(6) 0.8067(5) 0.6290(3)
N5A N -0.8671(5) 1.2101(5) 0.5825(3)
N6A N -0.7337(6) 1.0339(5) 0.5573(3)
N7A N -0.3746(5) 1.2135(5) -0.0585(3)
N7_2 N -0.6254(5) 0.7865(5) 0.0585(3)
N8A N -0.2160(5) 1.0443(5) -0.0656(3)
O1_2 O 1.2739(4) 0.5735(4) 0.0688(2)
O1_3 O -0.7261(4) 0.5735(4) 0.0688(2)
O2_2 O 1.1757(4) 0.6568(4) -0.0355(2)
O2A O -0.1757(4) 0.3432(4) 0.0355(2)
O3_2 O 0.9933(4) 0.5968(4) 0.3147(2)
O3A O -0.9933(4) 1.4032(4) 0.6853(2)
O4_2 O 0.9118(4) 0.4456(4) 0.2953(2)
O4A O 0.0882(4) 0.5544(4) 0.7047(2)
O5_2 O 0.6402(4) 0.5826(4) 0.0750(2)
O5A O 0.3598(4) 0.4174(4) -0.0750(2)
O6_2 O 0.6898(4) 0.7112(5) -0.0168(3)
O7_2 O -0.8569(4) 0.6393(5) 0.4210(3)
O7A O -1.1431(4) 1.3607(5) 0.5790(3)
O8_2 O -0.7851(4) 0.6817(5) 0.5237(3)
O8A O -0.2149(4) 0.3183(5) 0.4763(3)
O9_2 O -0.3203(4) 0.6527(5) 0.5184(3)
O10_2 O -0.1980(4) 0.5579(4) 0.4261(2)
O10A O -0.8020(4) 1.4421(4) 0.5739(2)
O10A_2 O 0.1980(4) 0.4421(4) 0.5739(2)
O11_2 O -0.3893(4) 0.4479(4) 0.2165(2)
O11A O 0.3893(4) 0.5521(4) -0.2165(2)
O12_2 O -0.5706(4) 0.5856(4) 0.1835(2)
O13A O 0.5276(4) 0.4064(4) 0.0572(2)
O13_2 O -0.5276(4) 0.5936(4) -0.0572(2)
O13A_2 O -0.4724(4) 0.4064(4) 0.0572(2)
H35A H 0.475(6) 0.365(6) 0.0734(13)
H35_2 H -0.475(6) 0.635(6) -0.0734(13)
H35A_2 H -0.525(6) 0.365(6) 0.0734(13)
O14A O 0.0422(4) 0.4121(4) 0.4504(2)
O14_2 O -1.0422(4) 1.5879(4) 0.5496(2)
O14A_2 O -0.9578(4) 1.4121(4) 0.4504(2)
H36A H 0.123(7) 0.371(7) 0.431(4)
H36_2 H -1.123(7) 1.629(7) 0.569(4)
H36A_2 H -0.877(7) 1.371(7) 0.431(4)
O15A O -0.1370(4) 0.3182(5) 0.1799(3)
H37A H -0.0910(17) 0.338(6) 0.1402(18)
H38A H -0.113(7) 0.2365(19) 0.184(4)
O16 O 0.5698(9) 0.7308(8) 0.6549(4)
H39 H 0.601(12) 0.712(13) 0.607(5)
H40 H 0.497(10) 0.708(14) 0.657(8)
O17 O 0.2995(10) 0.3737(8) 0.2181(6)
H41 H 0.291(16) 0.374(13) 0.2683(15)
H42 H 0.318(15) 0.456(10) 0.210(8)
O18 O -1.1567(8) 0.7297(8) 0.8568(4)
H43 H -1.233(10) 0.760(12) 0.897(6)
H44 H -1.212(11) 0.719(13) 0.826(6)
O19 O 0.3121(11) 0.7251(8) 0.6627(4)
H45 H 0.232(11) 0.722(18) 0.683(8)
H46 H 0.305(15) 0.697(16) 0.615(6)
O20 O -0.868(3) 0.768(3) 0.2484(19)
O21? O 0.052(3) 0.819(3) 0.2415(19)
loop_
_geom_bond_atom_site_label_1
_geom_bond_atom_site_label_2
_geom_bond_site_symmetry_1
_geom_bond_site_symmetry_2
Co1 N5 1_555 1_555
Co2 N7 1_555 1_555
Co3 N1 1_555 1_555
Co4 O4 1_555 1_555
C1 C2 1_555 1_555
C2 H1 1_555 1_555
C3 C2 1_555 1_555
C4 C3 1_555 1_555
H2 C4 1_555 1_555
C5 C4 1_555 1_555
C6 C1 1_555 1_555
H3 C6 1_555 1_555
C7 C1 1_555 1_555
C8 C3 1_555 1_555
C9 C10 1_555 1_555
C10 H4 1_555 1_555
C11 C10 1_555 1_555
C12 C11 1_555 1_555
H5 C12 1_555 1_555
C13 C12 1_555 1_555
C14 C9 1_555 1_555
H6 C14 1_555 1_555
C15 C9 1_555 1_555
C16 C11 1_555 1_555
C17 H7 1_555 1_555
C18 H8 1_555 1_555
C19 C18 1_555 1_555
H9 C19 1_555 1_555
C20 H10 1_555 1_555
C21 H11 1_555 1_555
C22 C21 1_555 1_555
H12 C22 1_555 1_555
C23 H13 1_555 1_555
H14 C23 1_555 1_555
C24 C23 1_555 1_555
H15 C24 1_555 1_555
H16 C24 1_555 1_555
C25 C24 1_555 1_555
H17 C25 1_555 1_555
H18 C25 1_555 1_555
C26 C25 1_555 1_555
H19 C26 1_555 1_555
H20 C26 1_555 1_555
C27 H21 1_555 1_555
C28 H22 1_555 1_555
C29 C28 1_555 1_555
H23 C29 1_555 1_555
C30 H24 1_555 1_555
C31 H25 1_555 1_555
C32 C31 1_555 1_555
H26 C32 1_555 1_555
C33 H27 1_555 1_555
H28 C33 1_555 1_555
C34 C33 1_555 1_555
H29 C34 1_555 1_555
H30 C34 1_555 1_555
C35 H31 1_555 1_555
H32 C35 1_555 1_555
C36 C35 1_555 1_555
H33 C36 1_555 1_555
H34 C36 1_555 1_555
C37 C13 1_555 1_555
C38 C5 1_555 1_555
N1 C17 1_555 1_555
N2 C17 1_555 1_555
N3 C20 1_555 1_555
N4 C20 1_555 1_555
N5 C30 1_555 1_555
N6 C30 1_555 1_555
N7 C27 1_555 1_555
N8 C27 1_555 1_555
O1 Co2 1_555 1_555
O2 Co3 1_555 1_555
O3 Co1 1_555 1_555
O4 C8 1_555 1_555
O5 C38 1_555 1_555
O6 C38 1_555 1_555
O7 Co1 1_555 1_555
O8 C15 1_555 1_555
O9 C16 1_555 1_555
O10 C16 1_555 1_555
O11 C37 1_555 1_555
O12 Co2 1_555 1_555
O13 Co2 1_555 1_555
H35 O13 1_555 1_555
O14 Co1 1_555 1_555
H36 O14 1_555 1_555
O15 Co3 1_555 1_555
H37 O15 1_555 1_555
H38 O15 1_555 1_555
O16 H39 1_555 1_555
H40 O16 1_555 1_555
O17 H41 1_555 1_555
H42 O17 1_555 1_555
O18 H43 1_555 1_555
H44 O18 1_555 1_555
O19 H45 1_555 1_555
H46 O19 1_555 1_555
Co1A N5A 1_555 1_555
Co1_2 O10 1_555 1_555
Co1A_2 O14 1_555 1_555
Co1_3 O7_2 1_555 1_555
Co2_2 O5 1_555 1_555
Co2A O13 1_555 1_555
Co2A_2 N7A 1_555 1_555
Co2_3 O1_2 1_555 1_555
Co3A O5 1_555 1_555
Co3A_2 O11 1_555 1_555
Co3_2 O2_2 1_555 1_555
Co4A O8 1_555 1_555
Co4A_2 N4 1_555 1_555
Co4_2 O10 1_555 1_555
Co4A_3 O8_2 1_555 1_555
C1_2 C2_2 1_555 1_555
C2_2 H1_2 1_555 1_555
C3_2 C2_2 1_555 1_555
C4_2 C3_2 1_555 1_555
H2_2 C4_2 1_555 1_555
C5_2 C4_2 1_555 1_555
C6_2 C1_2 1_555 1_555
H3_2 C6_2 1_555 1_555
C7_2 C1_2 1_555 1_555
C8_2 C3_2 1_555 1_555
C9_2 C10_2 1_555 1_555
C10_2 H4_2 1_555 1_555
C11_2 C10_2 1_555 1_555
C12_2 C11_2 1_555 1_555
H5_2 C12_2 1_555 1_555
C13_2 C12_2 1_555 1_555
C14_2 C9_2 1_555 1_555
H6_2 C14_2 1_555 1_555
C15_2 C9_2 1_555 1_555
C16_2 C11_2 1_555 1_555
C17A H7A 1_555 1_555
C18A H8A 1_555 1_555
C19A C18A 1_555 1_555
H9A C19A 1_555 1_555
C20A H10A 1_555 1_555
C21A H11A 1_555 1_555
C22A C21A 1_555 1_555
H12A C22A 1_555 1_555
C23A H13A 1_555 1_555
H14A C23A 1_555 1_555
C24A C23A 1_555 1_555
H15A C24A 1_555 1_555
H16A C24A 1_555 1_555
C25A C24A 1_555 1_555
H17A C25A 1_555 1_555
H18A C25A 1_555 1_555
C26A C25A 1_555 1_555
H19A C26A 1_555 1_555
H20A C26A 1_555 1_555
C27A H21A 1_555 1_555
C28A H22A 1_555 1_555
C29A C28A 1_555 1_555
H23A C29A 1_555 1_555
C30A H24A 1_555 1_555
C31A H25A 1_555 1_555
C32A C31A 1_555 1_555
H26A C32A 1_555 1_555
C33A H27A 1_555 1_555
H28A C33A 1_555 1_555
C34A C34 1_555 1_555
H29A C34A 1_555 1_555
H30A C34A 1_555 1_555
C35A C35 1_555 1_555
H31A C35A 1_555 1_555
H32A C35A 1_555 1_555
C36A C35A 1_555 1_555
H33A C36A 1_555 1_555
H34A C36A 1_555 1_555
C37_2 C13_2 1_555 1_555
C38_2 C5_2 1_555 1_555
N1A Co3A_2 1_555 1_555
N1A_2 Co3A 1_555 1_555
N2A C17A 1_555 1_555
N3A C20A 1_555 1_555
N4A Co4 1_555 1_555
N4_2 Co4A 1_555 1_555
N5A C30A 1_555 1_555
N6A C30A 1_555 1_555
N7A C27A 1_555 1_555
N7_2 Co2_2 1_555 1_555
N8A C27A 1_555 1_555
O1_2 C7_2 1_555 1_555
O1_3 Co2_2 1_555 1_555
O2_2 C7_2 1_555 1_555
O2A Co3A 1_555 1_555
O3_2 Co1_2 1_555 1_555
O3A Co1A 1_555 1_555
O4_2 Co4_2 1_555 1_555
O4A Co4A 1_555 1_555
O5_2 Co2 1_555 1_555
O5A Co3 1_555 1_555
O6_2 C38_2 1_555 1_555
O7_2 C15_2 1_555 1_555
O7A Co1A 1_555 1_555
O8_2 C15_2 1_555 1_555
O8A Co4 1_555 1_555
O9_2 C16_2 1_555 1_555
O10_2 Co1 1_555 1_555
O10A Co1A 1_555 1_555
O10A_2 Co1A_2 1_555 1_555
O11_2 Co3A 1_555 1_555
O11A Co3 1_555 1_555
O12_2 Co2_2 1_555 1_555
O13A Co2 1_555 1_555
O13_2 Co2_2 1_555 1_555
O13A_2 Co2_2 1_555 1_555
H35A O13A 1_555 1_555
H35_2 O13_2 1_555 1_555
H35A_2 O13A_2 1_555 1_555
O14A Co1 1_555 1_555
O14_2 Co1A 1_555 1_555
O14A_2 Co1A 1_555 1_555
H36A O14A 1_555 1_555
H36_2 O14_2 1_555 1_555
H36A_2 O14A_2 1_555 1_555
O15A Co3A 1_555 1_555
H37A O15A 1_555 1_555
H38A O15A 1_555 1_555
Co3 O13 1_555 1_555
Co4 O10_2 1_555 1_555
Co4 O14A 1_555 1_555
C5 C6 1_555 1_555
C7 O1 1_555 1_555
C7 O2 1_555 1_555
C8 O3 1_555 1_555
C13 C14 1_555 1_555
C15 O7 1_555 1_555
C18 N1 1_555 1_555
C19 N2 1_555 1_555
C21 N3 1_555 1_555
C22 N4 1_555 1_555
C23 N3 1_555 1_555
C26 N2 1_555 1_555
C28 N8 1_555 1_555
C29 N7 1_555 1_555
C31 N5 1_555 1_555
C32 N6 1_555 1_555
C33 N8 1_555 1_555
C36 N6 1_555 1_555
C37 O12 1_555 1_555
O14 Co4A 1_555 1_555
Co1A_2 O14A 1_555 1_555
Co2A O5A 1_555 1_555
Co2A O13A 1_555 1_555
Co3A O13A_2 1_555 1_555
Co3A_2 O5_2 1_555 1_555
Co3A_2 O13A 1_555 1_555
Co4A O10A_2 1_555 1_555
C5_2 C6_2 1_555 1_555
C8_2 O3_2 1_555 1_555
C8_2 O4_2 1_555 1_555
C13_2 C14_2 1_555 1_555
C16_2 O10_2 1_555 1_555
C17A N1A 1_555 1_555
C18A N1A 1_555 1_555
C19A N2A 1_555 1_555
C20A N4A 1_555 1_555
C21A N3A 1_555 1_555
C22A N4A 1_555 1_555
C23A N3A 1_555 1_555
C26A N2A 1_555 1_555
C28A N8A 1_555 1_555
C29A N7A 1_555 1_555
C31A N5A 1_555 1_555
C32A N6A 1_555 1_555
C33A C34A 1_555 1_555
C33A N8A 1_555 1_555
C36A N6A 1_555 1_555
C37_2 O11_2 1_555 1_555
C37_2 O12_2 1_555 1_555
C38_2 O5_2 1_555 1_555

#END
