
#######################################################################
#
#                 Cambridge Crystallographic Data Centre
#                                CCDC 
#
#######################################################################
#
# If this CIF has been generated from an entry in the Cambridge 
# Structural Database, then it will include bibliographic, chemical, 
# crystal, experimental, refinement or atomic coordinate data resulting 
# from the CCDC's data processing and validation procedures.
#
#######################################################################

data_HICKOU01
_symmetry_cell_setting           orthorhombic
_symmetry_space_group_name_H-M   'F d d 2'
_symmetry_Int_Tables_number      43
_space_group_name_Hall           'F 2 -2d'
loop_
_symmetry_equiv_pos_site_id
_symmetry_equiv_pos_as_xyz
1 x,y,z
2 -x,-y,z
3 1/4+x,1/4-y,1/4+z
4 1/4-x,1/4+y,1/4+z
5 x,1/2+y,1/2+z
6 -x,1/2-y,1/2+z
7 1/4+x,3/4-y,3/4+z
8 1/4-x,3/4+y,3/4+z
9 1/2+x,y,1/2+z
10 1/2-x,-y,1/2+z
11 3/4+x,1/4-y,3/4+z
12 3/4-x,1/4+y,3/4+z
13 1/2+x,1/2+y,z
14 1/2-x,1/2-y,z
15 3/4+x,3/4-y,1/4+z
16 3/4-x,3/4+y,1/4+z
_cell_length_a                   13.5878(3)
_cell_length_b                   37.9720(10)
_cell_length_c                   10.8210(2)
_cell_angle_alpha                90
_cell_angle_beta                 90
_cell_angle_gamma                90
_cell_volume                     5583.16
loop_
_atom_site_label
_atom_site_type_symbol
_atom_site_fract_x
_atom_site_fract_y
_atom_site_fract_z
Fe1 Fe 0.28815(4) 0.081310(14) 0.05066(5)
Cl1 Cl 0.39496(8) 0.04033(3) -0.02201(10)
Cl2 Cl 0.16814(9) 0.04468(3) 0.11287(11)
O1 O 0.1928(2) 0.12606(8) 0.0819(2)
O2 O 0.2385(2) 0.09169(7) -0.1233(2)
C7 C 0.1795(3) 0.11687(11) -0.1328(4)
O3 O 0.1403(2) 0.12759(7) -0.2306(2)
C8 C 0.1527(3) 0.13628(11) -0.0139(4)
O4 O 0.09304(19) 0.16157(7) -0.0263(3)
Fe1J Fe 0.03815(4) 0.168690(14) -0.19934(5)
O3B O 0.3903(2) 0.12241(7) 0.0194(2)
O4B O 0.34304(19) 0.08843(7) 0.2237(3)
N1 N 0.2839(3) -0.03808(11) 0.0700(4)
H1 H 0.2710 -0.0148 0.0583
C1 C 0.3699(4) -0.04025(16) 0.1581(5)
H2 H 0.3760 -0.0644 0.1866
H3 H 0.4295 -0.0344 0.1134
C2 C 0.3368(5) -0.09193(17) -0.0569(6)
H4 H 0.3535 -0.0990 -0.1395
H5 H 0.2806 -0.1051 -0.0293
H6 H 0.3915 -0.0965 -0.0030
C3 C 0.1915(4) -0.0545(2) 0.1179(6)
H7 H 0.2022 -0.0796 0.1273
H8 H 0.1776 -0.0449 0.1991
C4 C 0.3625(4) -0.01751(16) 0.2642(5)
H9 H 0.4196 -0.0205 0.3154
H10 H 0.3046 -0.0234 0.3105
H11 H 0.3585 0.0065 0.2374
C5 C 0.3131(4) -0.05315(19) -0.0553(5)
H12 H 0.2597 -0.0489 -0.1129
H13 H 0.3701 -0.0403 -0.0851
C6 C 0.1039(3) -0.04894(17) 0.0375(6)
H14 H 0.0476 -0.0601 0.0740
H15 H 0.1160 -0.0589 -0.0426
H16 H 0.0915 -0.0242 0.0292
loop_
_geom_bond_atom_site_label_1
_geom_bond_atom_site_label_2
_geom_bond_site_symmetry_1
_geom_bond_site_symmetry_2
Fe1 Cl1 1_555 1_555
Cl2 Fe1 1_555 1_555
O1 Fe1 1_555 1_555
O2 Fe1 1_555 1_555
N1 H1 1_555 1_555
C1 N1 1_555 1_555
H2 C1 1_555 1_555
H3 C1 1_555 1_555
C2 H4 1_555 1_555
H5 C2 1_555 1_555
H6 C2 1_555 1_555
C3 N1 1_555 1_555
H7 C3 1_555 1_555
H8 C3 1_555 1_555
C4 C1 1_555 1_555
H9 C4 1_555 1_555
H10 C4 1_555 1_555
H11 C4 1_555 1_555
C5 N1 1_555 1_555
H12 C5 1_555 1_555
H13 C5 1_555 1_555
C6 C3 1_555 1_555
H14 C6 1_555 1_555
H15 C6 1_555 1_555
H16 C6 1_555 1_555
C7 O2 1_555 1_555
O3 C7 1_555 1_555
C8 O1 1_555 1_555
O4 C8 1_555 1_555
Fe1J O3 1_555 1_555
O3B Fe1 1_555 1_555
O4B Fe1 1_555 1_555
C2 C5 1_555 1_555
C7 C8 1_555 1_555
O4 Fe1J 1_555 1_555

#END
