
#######################################################################
#
#                 Cambridge Crystallographic Data Centre
#                                CCDC 
#
#######################################################################
#
# If this CIF has been generated from an entry in the Cambridge 
# Structural Database, then it will include bibliographic, chemical, 
# crystal, experimental, refinement or atomic coordinate data resulting 
# from the CCDC's data processing and validation procedures.
#
#######################################################################

data_HICVAQ
_symmetry_cell_setting           monoclinic
_symmetry_space_group_name_H-M   'P 21/n'
_symmetry_Int_Tables_number      14
_space_group_name_Hall           '-P 2yn'
loop_
_symmetry_equiv_pos_site_id
_symmetry_equiv_pos_as_xyz
1 x,y,z
2 1/2-x,1/2+y,1/2-z
3 -x,-y,-z
4 1/2+x,1/2-y,1/2+z
_cell_length_a                   7.214(5)
_cell_length_b                   13.418(2)
_cell_length_c                   14.154(4)
_cell_angle_alpha                90
_cell_angle_beta                 94.00(4)
_cell_angle_gamma                90
_cell_volume                     1366.73
loop_
_atom_site_label
_atom_site_type_symbol
_atom_site_fract_x
_atom_site_fract_y
_atom_site_fract_z
Cu1 Cu -0.74337(8) -0.49352(4) 0.25977(3)
N1 N -0.5385(6) -0.6190(3) 0.3351(3)
N2 N -0.2844(5) -0.5831(3) 0.6205(3)
N3 N 0.1652(6) -0.6021(4) 0.5787(4)
N4 N 0.2046(6) -0.9192(4) 0.5180(3)
N5 N 0.0323(5) -0.9242(3) 0.2933(3)
N6 N -0.5443(5) -0.8705(3) 0.3162(3)
N7 N -0.9653(5) -0.5662(3) 0.3034(3)
N8 N -0.7830(6) -0.5808(3) 0.1444(3)
C1 C -0.1606(6) -0.7524(3) 0.4467(3)
C2 C -0.2111(6) -0.8260(3) 0.3772(3)
C3 C 0.0140(7) -0.7572(4) 0.4984(4)
C4 C -0.2881(6) -0.6745(3) 0.4622(3)
C5 C -0.4289(6) -0.6446(3) 0.3923(3)
C6 C -0.2836(6) -0.6226(3) 0.5488(3)
C7 C 0.0969(7) -0.6711(4) 0.5435(3)
C8 C 0.1187(6) -0.8465(4) 0.5081(3)
C9 C -0.0760(6) -0.8812(3) 0.3321(3)
C10 C -0.3971(6) -0.8487(3) 0.3448(3)
C11 C -0.9159(8) -0.6598(4) 0.1649(4)
C12 C -1.0590(7) -0.6197(4) 0.2233(4)
H1 H -0.923(6) -0.609(4) 0.342(3)
H2 H -1.027(6) -0.523(4) 0.324(3)
H3 H -0.839(6) -0.546(4) 0.111(3)
H4 H -0.690(6) -0.604(4) 0.139(3)
H5 H -0.974(6) -0.686(4) 0.112(3)
H6 H -0.852(6) -0.710(3) 0.196(3)
H7 H -1.123(6) -0.568(4) 0.176(3)
H8 H -1.133(6) -0.672(4) 0.244(3)
N2B N -0.7156(5) -0.4169(3) 0.3795(3)
N5A N -0.5323(5) -0.4242(3) 0.2067(3)
N6A N -0.9557(5) -0.3705(3) 0.1838(3)
Cu1B Cu -0.25663(8) -0.50648(4) 0.74023(3)
Cu1A Cu 0.24337(8) -0.99352(4) 0.24023(3)
Cu1A_2 Cu -0.75663(8) -0.99352(4) 0.24023(3)
loop_
_geom_bond_atom_site_label_1
_geom_bond_atom_site_label_2
_geom_bond_site_symmetry_1
_geom_bond_site_symmetry_2
Cu1 N1 1_555 1_555
N1 C5 1_555 1_555
N2 C6 1_555 1_555
N3 C7 1_555 1_555
N4 C8 1_555 1_555
N5 C9 1_555 1_555
N6 C10 1_555 1_555
N7 Cu1 1_555 1_555
N8 Cu1 1_555 1_555
C1 C2 1_555 1_555
C2 C9 1_555 1_555
C3 C1 1_555 1_555
C4 C1 1_555 1_555
C5 C4 1_555 1_555
C6 C4 1_555 1_555
C7 C3 1_555 1_555
C8 C3 1_555 1_555
C10 C2 1_555 1_555
C11 N8 1_555 1_555
C12 N7 1_555 1_555
H1 N7 1_555 1_555
H2 N7 1_555 1_555
H3 N8 1_555 1_555
H4 N8 1_555 1_555
H5 C11 1_555 1_555
H6 C11 1_555 1_555
H7 C12 1_555 1_555
H8 C12 1_555 1_555
N2B Cu1 1_555 1_555
N5A Cu1 1_555 1_555
N6A Cu1 1_555 1_555
Cu1B N2 1_555 1_555
Cu1A N5 1_555 1_555
Cu1A_2 N6 1_555 1_555
C11 C12 1_555 1_555

#END
