
#######################################################################
#
#                 Cambridge Crystallographic Data Centre
#                                CCDC 
#
#######################################################################
#
# If this CIF has been generated from an entry in the Cambridge 
# Structural Database, then it will include bibliographic, chemical, 
# crystal, experimental, refinement or atomic coordinate data resulting 
# from the CCDC's data processing and validation procedures.
#
#######################################################################

data_HICZUQ
_symmetry_cell_setting           orthorhombic
_symmetry_space_group_name_H-M   'P b c a'
_symmetry_Int_Tables_number      61
_space_group_name_Hall           '-P 2ac 2ab'
loop_
_symmetry_equiv_pos_site_id
_symmetry_equiv_pos_as_xyz
1 x,y,z
2 1/2-x,-y,1/2+z
3 -x,1/2+y,1/2-z
4 1/2+x,1/2-y,-z
5 -x,-y,-z
6 1/2+x,y,1/2-z
7 x,1/2-y,1/2+z
8 1/2-x,1/2+y,z
_cell_length_a                   17.9451(11)
_cell_length_b                   8.3941(5)
_cell_length_c                   19.5874(12)
_cell_angle_alpha                90
_cell_angle_beta                 90
_cell_angle_gamma                90
_cell_volume                     2950.51
loop_
_atom_site_label
_atom_site_type_symbol
_atom_site_fract_x
_atom_site_fract_y
_atom_site_fract_z
Zn1 Zn 0.211684(18) 0.74047(4) 0.491121(17)
C1 C 0.33548(14) 0.6112(3) 0.22194(12)
C2 C 0.39159(16) 0.7001(4) 0.25412(14)
H1 H 0.4398 0.6985 0.2368
C3 C 0.37572(16) 0.7896(3) 0.31121(14)
H2 H 0.4133 0.8489 0.3318
C4 C 0.30464(16) 0.7925(3) 0.33838(14)
H3 H 0.2944 0.8530 0.3771
C5 C 0.24823(15) 0.7036(3) 0.30711(13)
C6 C 0.26383(15) 0.6141(3) 0.24933(12)
H4 H 0.2261 0.5554 0.2287
C7 C 0.34941(14) 0.5187(3) 0.16001(13)
C8 C 0.30538(14) 0.4148(3) 0.12531(13)
H5 H 0.2581 0.3822 0.1388
C9 C 0.40688(15) 0.4376(4) 0.06715(14)
H6 H 0.4430 0.4258 0.0335
C10 C 0.17301(14) 0.7001(3) 0.33595(13)
C11 C 0.03493(13) 1.0671(3) 0.44419(12)
H7 H 0.0580 1.1131 0.4065
C12 C 0.07593(14) 1.0435(3) 0.50367(12)
C13 C 0.04012(13) 0.9767(3) 0.56027(12)
C14 C 0.08136(13) 0.9589(3) 0.62621(12)
C15 C 0.15780(14) 1.0848(3) 0.50168(11)
N1 N 0.15796(12) 0.7027(3) 0.40284(11)
N2 N 0.08305(12) 0.6885(3) 0.40858(11)
N3 N 0.05510(13) 0.6793(3) 0.34764(12)
N4 N 0.11015(12) 0.6851(3) 0.30038(11)
H8 H 0.1055 0.6802 0.2567
N5 N 0.34163(12) 0.3650(3) 0.06686(11)
N6 N 0.41417(12) 0.5297(3) 0.12197(11)
H9 H 0.4525 0.5864 0.1320
O1 O 0.20573(10) 0.9768(3) 0.49439(10)
O2 O 0.17674(13) 1.2288(2) 0.50101(11)
O3 O 0.13779(11) 1.0309(3) 0.63757(11)
O4 O 0.05012(11) 0.8581(3) 0.66982(9)
C11D C -0.03493(13) 0.9329(3) 0.55581(12)
H7D H -0.0580 0.8869 0.5935
C12D C -0.07593(14) 0.9565(3) 0.49633(12)
C13D C -0.04012(13) 1.0233(3) 0.43973(12)
C14D C -0.08136(13) 1.0411(3) 0.37379(12)
C15D C -0.15780(14) 0.9152(3) 0.49832(11)
O1D O -0.20573(10) 1.0232(3) 0.50561(10)
O2D O -0.17674(13) 0.7712(2) 0.49899(11)
O3D O -0.13779(11) 0.9691(3) 0.36243(11)
O4D O -0.05012(11) 1.1419(3) 0.33018(9)
Zn1D Zn -0.211684(18) 1.25953(4) 0.508879(17)
C1D C -0.33548(14) 1.3888(3) 0.77806(12)
C2D C -0.39159(16) 1.2999(4) 0.74588(14)
H1D H -0.4398 1.3015 0.7632
C3D C -0.37572(16) 1.2104(3) 0.68879(14)
H2D H -0.4133 1.1511 0.6682
C4D C -0.30464(16) 1.2075(3) 0.66162(14)
H3D H -0.2944 1.1470 0.6229
C5D C -0.24823(15) 1.2964(3) 0.69289(13)
C6D C -0.26383(15) 1.3859(3) 0.75067(12)
H4D H -0.2261 1.4446 0.7713
C7D C -0.34941(14) 1.4813(3) 0.83999(13)
C8D C -0.30538(14) 1.5852(3) 0.87469(13)
H5D H -0.2581 1.6178 0.8612
C9D C -0.40688(15) 1.5624(4) 0.93285(14)
H6D H -0.4430 1.5742 0.9665
C10D C -0.17301(14) 1.2999(3) 0.66405(13)
N1D N -0.15796(12) 1.2973(3) 0.59716(11)
N2D N -0.08305(12) 1.3115(3) 0.59142(11)
N3D N -0.05510(13) 1.3207(3) 0.65236(12)
N4D N -0.11015(12) 1.3149(3) 0.69962(11)
H8D H -0.1055 1.3198 0.7433
N5D N -0.34163(12) 1.6350(3) 0.93314(11)
N6D N -0.41417(12) 1.4703(3) 0.87803(11)
H9D H -0.4525 1.4136 0.8680
Zn1A Zn 0.288316(18) 0.25953(4) -0.008879(17)
Zn1C Zn -0.288316(18) 0.75953(4) 0.508879(17)
Zn1E Zn -0.288316(18) 1.74047(4) 1.008879(17)
Zn1G Zn 0.288316(18) 1.24047(4) 0.491121(17)
N5A N 0.15837(12) 0.6350(3) 0.56686(11)
N5E N -0.15837(12) 1.3650(3) 0.43314(11)
O2C O -0.32326(13) 1.2712(2) 0.49899(11)
O2G O 0.32326(13) 0.7288(2) 0.50101(11)
loop_
_geom_bond_atom_site_label_1
_geom_bond_atom_site_label_2
_geom_bond_site_symmetry_1
_geom_bond_site_symmetry_2
Zn1 N1 1_555 1_555
C1 C2 1_555 1_555
C2 H1 1_555 1_555
C3 C2 1_555 1_555
H2 C3 1_555 1_555
C4 C3 1_555 1_555
H3 C4 1_555 1_555
C5 C4 1_555 1_555
C6 C1 1_555 1_555
H4 C6 1_555 1_555
C7 C1 1_555 1_555
C8 C7 1_555 1_555
H5 C8 1_555 1_555
C9 H6 1_555 1_555
C10 C5 1_555 1_555
C11 H7 1_555 1_555
C12 C11 1_555 1_555
C13 C12 1_555 1_555
C14 C13 1_555 1_555
C15 C12 1_555 1_555
N1 C10 1_555 1_555
N2 N1 1_555 1_555
N3 N2 1_555 1_555
N4 C10 1_555 1_555
H8 N4 1_555 1_555
N5 C8 1_555 1_555
N6 C7 1_555 1_555
H9 N6 1_555 1_555
O1 Zn1 1_555 1_555
O2 C15 1_555 1_555
O3 C14 1_555 1_555
O4 C14 1_555 1_555
C11D C13 1_555 1_555
H7D C11D 1_555 1_555
C12D C11D 1_555 1_555
C13D C11 1_555 1_555
C14D C13D 1_555 1_555
C15D C12D 1_555 1_555
O1D C15D 1_555 1_555
O2D C15D 1_555 1_555
O3D C14D 1_555 1_555
O4D C14D 1_555 1_555
Zn1D O1D 1_555 1_555
C1D C2D 1_555 1_555
C2D H1D 1_555 1_555
C3D C2D 1_555 1_555
H2D C3D 1_555 1_555
C4D C3D 1_555 1_555
H3D C4D 1_555 1_555
C5D C4D 1_555 1_555
C6D C1D 1_555 1_555
H4D C6D 1_555 1_555
C7D C1D 1_555 1_555
C8D C7D 1_555 1_555
H5D C8D 1_555 1_555
C9D H6D 1_555 1_555
C10D C5D 1_555 1_555
N1D Zn1D 1_555 1_555
N2D N1D 1_555 1_555
N3D N2D 1_555 1_555
N4D C10D 1_555 1_555
H8D N4D 1_555 1_555
N5D C8D 1_555 1_555
N6D C7D 1_555 1_555
H9D N6D 1_555 1_555
Zn1A N5 1_555 1_555
Zn1C O2D 1_555 1_555
Zn1E N5D 1_555 1_555
Zn1G O2 1_555 1_555
N5A Zn1 1_555 1_555
N5E Zn1D 1_555 1_555
O2C Zn1D 1_555 1_555
O2G Zn1 1_555 1_555
C5 C6 1_555 1_555
C9 N5 1_555 1_555
C9 N6 1_555 1_555
C15 O1 1_555 1_555
N3 N4 1_555 1_555
C12D C13D 1_555 1_555
C5D C6D 1_555 1_555
C9D N5D 1_555 1_555
C9D N6D 1_555 1_555
C10D N1D 1_555 1_555
N3D N4D 1_555 1_555

#END
