
#######################################################################
#
#                 Cambridge Crystallographic Data Centre
#                                CCDC 
#
#######################################################################
#
# If this CIF has been generated from an entry in the Cambridge 
# Structural Database, then it will include bibliographic, chemical, 
# crystal, experimental, refinement or atomic coordinate data resulting 
# from the CCDC's data processing and validation procedures.
#
#######################################################################

data_HICZOK
_symmetry_cell_setting           monoclinic
_symmetry_space_group_name_H-M   'P 21/c'
_symmetry_Int_Tables_number      14
_space_group_name_Hall           '-P 2ybc'
loop_
_symmetry_equiv_pos_site_id
_symmetry_equiv_pos_as_xyz
1 x,y,z
2 -x,1/2+y,1/2-z
3 -x,-y,-z
4 x,1/2-y,1/2+z
_cell_length_a                   12.8475(10)
_cell_length_b                   19.5073(15)
_cell_length_c                   17.9838(13)
_cell_angle_alpha                90
_cell_angle_beta                 95.3120(10)
_cell_angle_gamma                90
_cell_volume                     4487.74
loop_
_atom_site_label
_atom_site_type_symbol
_atom_site_fract_x
_atom_site_fract_y
_atom_site_fract_z
Zn1 Zn 0.49655(3) 0.51086(2) 0.245271(19)
Zn2 Zn 0.82539(3) 0.49014(2) -0.30343(2)
Zn3 Zn 0.84687(3) 0.50887(2) 0.20194(2)
C1 C 0.4655(3) 0.66666(19) 0.15811(19)
H1 H 0.4219 0.6299 0.1660
C2 C 0.4670(3) 0.6949(2) 0.0879(2)
H2 H 0.4249 0.6761 0.0483
C3 C 0.5291(3) 0.75003(19) 0.0750(2)
H3 H 0.5284 0.7684 0.0272
C4 C 0.5936(3) 0.77864(18) 0.13410(18)
C5 C 0.5935(3) 0.74990(17) 0.20504(18)
H4 H 0.6361 0.7683 0.2447
C6 C 0.5305(3) 0.69419(17) 0.21699(17)
C7 C 0.5309(3) 0.66408(17) 0.29223(17)
C8 C 0.6569(3) 0.83928(18) 0.12371(17)
C9 C 0.7248(3) 0.87461(18) 0.17191(18)
H5 H 0.7463 0.8612 0.2205
C10 C 0.7116(3) 0.9322(2) 0.06949(19)
H6 H 0.7204 0.9655 0.0336
C11 C 0.7935(3) 0.25321(19) 0.3715(2)
H7 H 0.7958 0.2726 0.4188
C12 C 0.8531(3) 0.1962(2) 0.35971(19)
H8 H 0.8948 0.1773 0.3995
C13 C 0.8521(3) 0.16648(19) 0.28974(19)
H9 H 0.8934 0.1284 0.2823
C14 C 0.7881(3) 0.19467(18) 0.23054(18)
C15 C 0.7281(3) 0.25176(18) 0.24204(19)
H10 H 0.6859 0.2704 0.2023
C16 C 0.7298(3) 0.28195(18) 0.31278(18)
C17 C 0.7827(3) 0.16453(18) 0.15555(18)
C18 C 0.6647(3) 0.34267(18) 0.32166(18)
C19 C 0.5992(3) 0.37720(18) 0.27193(18)
H11 H 0.5839 0.3647 0.2222
C20 C 0.5992(3) 0.4314(2) 0.37583(19)
H12 H 0.5856 0.4634 0.4120
C21 C 1.1372(3) 0.24610(19) 0.1178(2)
H13 H 1.1384 0.2639 0.0700
C22 C 1.1949(3) 0.18880(19) 0.13776(19)
H14 H 1.2345 0.1682 0.1032
C23 C 1.1949(3) 0.16123(18) 0.20893(18)
H15 H 1.2341 0.1223 0.2223
C24 C 1.1354(3) 0.19263(18) 0.25997(18)
C25 C 1.0774(3) 0.25073(18) 0.23999(18)
H16 H 1.0385 0.2717 0.2747
C26 C 1.0768(3) 0.27806(18) 0.16832(18)
C27 C 1.1290(3) 0.16392(18) 0.33502(17)
C28 C 1.0158(3) 0.34007(18) 0.15051(18)
C29 C 0.9485(3) 0.37454(19) 0.19046(18)
H17 H 0.9275 0.3606 0.2362
C30 C 0.9630(3) 0.43335(19) 0.09063(18)
H18 H 0.9555 0.4674 0.0543
C31 C 0.7255(2) 0.44804(17) -0.05339(17)
H19 H 0.7561 0.4102 -0.0742
C32 C 0.7074(2) 0.50673(16) -0.09613(17)
C33 C 0.6639(2) 0.56359(17) -0.06357(17)
C34 C 0.6394(2) 0.56059(17) 0.01033(17)
H20 H 0.6119 0.5991 0.0319
C35 C 0.6551(2) 0.50132(16) 0.05199(16)
C36 C 0.6993(2) 0.44415(17) 0.02008(17)
C37 C 0.7057(3) 0.37743(18) 0.06095(17)
C38 C 0.6250(2) 0.50300(16) 0.13142(17)
C39 C 0.6416(3) 0.62683(19) -0.10859(18)
C40 C 0.7297(2) 0.50217(16) -0.17752(17)
C41 C 1.0415(2) 0.44346(17) -0.46218(17)
H21 H 1.0692 0.4052 -0.4367
C42 C 1.0263(2) 0.50336(16) -0.42266(17)
C43 C 0.9840(2) 0.56058(17) -0.46089(17)
C44 C 0.9716(3) 0.62570(18) -0.42012(18)
C45 C 1.0523(3) 0.50006(16) -0.33872(17)
N1 N 0.5471(2) 0.69794(15) 0.35631(15)
H22 H 0.5574 0.7412 0.3621
N2 N 0.5438(3) 0.65041(16) 0.41040(15)
N3 N 0.5268(3) 0.58975(16) 0.38083(15)
N4 N 0.5189(2) 0.59698(15) 0.30548(15)
N5 N 0.7571(2) 0.93307(15) 0.13817(15)
N6 N 0.6511(2) 0.87688(15) 0.05845(15)
H23 H 0.6145 0.8664 0.0175
N7 N 0.7917(2) 0.09753(15) 0.14146(14)
N8 N 0.7780(3) 0.09055(16) 0.06591(16)
N9 N 0.7616(3) 0.15099(17) 0.03701(17)
N10 N 0.7641(3) 0.19835(16) 0.09186(16)
H24 H 0.7554 0.2418 0.0865
N11 N 0.6617(3) 0.37795(16) 0.38792(16)
H25 H 0.6949 0.3670 0.4300
N12 N 0.5583(2) 0.43350(15) 0.30507(15)
N13 N 1.1182(2) 0.19955(15) 0.39649(15)
H26 H 1.1166 0.2434 0.4007
N14 N 1.1104(2) 0.15309(16) 0.45103(15)
N15 N 1.1150(2) 0.09162(15) 0.42389(15)
N16 N 1.1272(2) 0.09704(15) 0.35007(14)
N17 N 1.0225(2) 0.37795(15) 0.08672(15)
H27 H 1.0589 0.3676 0.0505
N18 N 0.9159(2) 0.43370(15) 0.15284(15)
O1 O 0.69295(18) 0.50643(13) 0.18614(13)
O2 O 0.52929(18) 0.50592(13) 0.13994(13)
O3 O 0.6541(3) 0.36650(15) 0.11233(15)
O4 O 0.7688(2) 0.33142(13) 0.03513(13)
O5 O 0.82205(18) 0.50645(13) -0.19303(13)
O6 O 0.65798(18) 0.48708(14) -0.22702(13)
O7 O 0.6611(4) 0.63102(18) -0.17176(17)
O8 O 0.5987(3) 0.67705(15) -0.07492(14)
O9 O 1.14596(18) 0.50163(13) -0.31310(12)
O10 O 0.98009(18) 0.49096(13) -0.29675(13)
O11 O 1.0143(2) 0.63589(14) -0.35879(14)
O12 O 0.9092(2) 0.67109(13) -0.45643(13)
C41B C 0.9585(2) 0.55654(17) -0.53782(17)
H21B H 0.9308 0.5948 -0.5633
C42B C 0.9737(2) 0.49664(16) -0.57734(17)
C43B C 1.0160(2) 0.43942(17) -0.53911(17)
C44B C 1.0284(3) 0.37430(18) -0.57988(18)
C45B C 0.9477(3) 0.49994(16) -0.66128(17)
O9B O 0.85404(18) 0.49837(13) -0.68690(12)
O10B O 1.01991(18) 0.50904(13) -0.70325(13)
O11B O 0.9857(2) 0.36411(14) -0.64121(14)
O12B O 1.0908(2) 0.32891(13) -0.54357(13)
Zn1B Zn 0.50345(3) 0.48914(2) -0.245271(19)
Zn2B Zn 0.17461(3) 0.50986(2) 0.30343(2)
Zn3B Zn 0.15313(3) 0.49113(2) -0.20194(2)
C1B C 0.5345(3) 0.33334(19) -0.15811(19)
H1B H 0.5781 0.3701 -0.1660
C2B C 0.5330(3) 0.3051(2) -0.0879(2)
H2B H 0.5751 0.3239 -0.0483
C3B C 0.4709(3) 0.24997(19) -0.0750(2)
H3B H 0.4716 0.2316 -0.0272
C4B C 0.4064(3) 0.22136(18) -0.13410(18)
C5B C 0.4065(3) 0.25010(17) -0.20504(18)
H4B H 0.3639 0.2317 -0.2447
C6B C 0.4695(3) 0.30581(17) -0.21699(17)
C7B C 0.4691(3) 0.33592(17) -0.29223(17)
C8B C 0.3431(3) 0.16072(18) -0.12371(17)
C9B C 0.2752(3) 0.12539(18) -0.17191(18)
H5B H 0.2537 0.1388 -0.2205
C10B C 0.2884(3) 0.0678(2) -0.06949(19)
H6B H 0.2796 0.0345 -0.0336
C11B C 0.2065(3) 0.74679(19) -0.3715(2)
H7B H 0.2042 0.7274 -0.4188
C12B C 0.1469(3) 0.8038(2) -0.35971(19)
H8B H 0.1052 0.8227 -0.3995
C13B C 0.1479(3) 0.83352(19) -0.28974(19)
H9B H 0.1066 0.8716 -0.2823
C14B C 0.2119(3) 0.80533(18) -0.23054(18)
C15B C 0.2719(3) 0.74824(18) -0.24204(19)
H10B H 0.3141 0.7296 -0.2023
C16B C 0.2702(3) 0.71805(18) -0.31278(18)
C17B C 0.2173(3) 0.83547(18) -0.15555(18)
C18B C 0.3353(3) 0.65733(18) -0.32166(18)
C19B C 0.4008(3) 0.62280(18) -0.27193(18)
H11B H 0.4161 0.6353 -0.2222
C20B C 0.4008(3) 0.5686(2) -0.37583(19)
H12B H 0.4144 0.5366 -0.4120
C21B C -0.1372(3) 0.75390(19) -0.1178(2)
H13B H -0.1384 0.7361 -0.0700
C22B C -0.1949(3) 0.81120(19) -0.13776(19)
H14B H -0.2345 0.8318 -0.1032
C23B C -0.1949(3) 0.83877(18) -0.20893(18)
H15B H -0.2341 0.8777 -0.2223
C24B C -0.1354(3) 0.80737(18) -0.25997(18)
C25B C -0.0774(3) 0.74927(18) -0.23999(18)
H16B H -0.0385 0.7283 -0.2747
C26B C -0.0768(3) 0.72194(18) -0.16832(18)
C27B C -0.1290(3) 0.83608(18) -0.33502(17)
C28B C -0.0158(3) 0.65993(18) -0.15051(18)
C29B C 0.0515(3) 0.62546(19) -0.19046(18)
H17B H 0.0725 0.6394 -0.2362
C30B C 0.0370(3) 0.56665(19) -0.09063(18)
H18B H 0.0445 0.5326 -0.0543
C31B C 0.2745(2) 0.55196(17) 0.05339(17)
H19B H 0.2439 0.5898 0.0742
C32B C 0.2926(2) 0.49327(16) 0.09613(17)
C33B C 0.3361(2) 0.43641(17) 0.06357(17)
C34B C 0.3606(2) 0.43941(17) -0.01033(17)
H20B H 0.3881 0.4009 -0.0319
C35B C 0.3449(2) 0.49868(16) -0.05199(16)
C36B C 0.3007(2) 0.55585(17) -0.02008(17)
C37B C 0.2943(3) 0.62257(18) -0.06095(17)
C38B C 0.3750(2) 0.49700(16) -0.13142(17)
C39B C 0.3584(3) 0.37317(19) 0.10859(18)
C40B C 0.2703(2) 0.49783(16) 0.17752(17)
N1B N 0.4529(2) 0.30206(15) -0.35631(15)
H22B H 0.4426 0.2588 -0.3621
N2B N 0.4562(3) 0.34959(16) -0.41040(15)
N3B N 0.4732(3) 0.41025(16) -0.38083(15)
N4B N 0.4811(2) 0.40302(15) -0.30548(15)
N5B N 0.2429(2) 0.06693(15) -0.13817(15)
N6B N 0.3489(2) 0.12312(15) -0.05845(15)
H23B H 0.3855 0.1336 -0.0175
N7B N 0.2083(2) 0.90247(15) -0.14146(14)
N8B N 0.2220(3) 0.90945(16) -0.06591(16)
N9B N 0.2384(3) 0.84901(17) -0.03701(17)
N10B N 0.2359(3) 0.80165(16) -0.09186(16)
H24B H 0.2446 0.7582 -0.0865
N11B N 0.3383(3) 0.62205(16) -0.38792(16)
H25B H 0.3051 0.6330 -0.4300
N12B N 0.4417(2) 0.56650(15) -0.30507(15)
N13B N -0.1182(2) 0.80045(15) -0.39649(15)
H26B H -0.1166 0.7566 -0.4007
N14B N -0.1104(2) 0.84691(16) -0.45103(15)
N15B N -0.1150(2) 0.90838(15) -0.42389(15)
N16B N -0.1272(2) 0.90296(15) -0.35007(14)
N17B N -0.0225(2) 0.62205(15) -0.08672(15)
H27B H -0.0589 0.6324 -0.0505
N18B N 0.0841(2) 0.56630(15) -0.15284(15)
O1B O 0.30705(18) 0.49357(13) -0.18614(13)
O2B O 0.47071(18) 0.49408(13) -0.13994(13)
O3B O 0.3459(3) 0.63350(15) -0.11233(15)
O4B O 0.2312(2) 0.66858(13) -0.03513(13)
O5B O 0.17795(18) 0.49355(13) 0.19303(13)
O6B O 0.34202(18) 0.51292(14) 0.22702(13)
O7B O 0.3389(4) 0.36898(18) 0.17176(17)
O8B O 0.4013(3) 0.32295(15) 0.07492(14)
Zn2A Zn 0.17461(3) -0.00986(2) -0.19657(2)
Zn2A_2 Zn 0.17461(3) 0.99014(2) -0.19657(2)
Zn2B_2 Zn 1.17461(3) 0.50986(2) -0.69657(2)
Zn2C Zn 0.82539(3) 0.00986(2) 0.19657(2)
Zn2C_2 Zn 0.82539(3) 1.00986(2) 0.19657(2)
Zn3_2 Zn 0.84687(3) 0.50887(2) -0.79806(2)
Zn3A Zn 1.15313(3) 0.00887(2) 0.29806(2)
Zn3B_2 Zn 1.15313(3) 0.49113(2) -0.20194(2)
Zn3C Zn -0.15313(3) 0.99113(2) -0.29806(2)
N5A N 0.2429(2) 0.43307(15) 0.36183(15)
N5C N 0.7571(2) 0.56693(15) -0.36183(15)
N7A N 0.2083(2) 0.59753(15) 0.35854(14)
N7C N 0.7917(2) 0.40247(15) -0.35854(14)
N16A N 0.8728(2) 0.59704(15) 0.14993(14)
N16C N 0.1272(2) 0.40296(15) -0.14993(14)
O9_2 O 0.14596(18) 0.50163(13) -0.31310(12)
O9B_2 O 0.85404(18) 0.49837(13) 0.31310(12)
O10B_2 O 0.01991(18) 0.50904(13) 0.29675(13)
loop_
_geom_bond_atom_site_label_1
_geom_bond_atom_site_label_2
_geom_bond_site_symmetry_1
_geom_bond_site_symmetry_2
Zn1 N4 1_555 1_555
Zn2 O5 1_555 1_555
Zn3 N18 1_555 1_555
C1 H1 1_555 1_555
C2 C1 1_555 1_555
H2 C2 1_555 1_555
C3 C2 1_555 1_555
H3 C3 1_555 1_555
C4 C3 1_555 1_555
C5 C4 1_555 1_555
H4 C5 1_555 1_555
C6 C1 1_555 1_555
C7 C6 1_555 1_555
C8 C4 1_555 1_555
C9 C8 1_555 1_555
H5 C9 1_555 1_555
C10 H6 1_555 1_555
C11 H7 1_555 1_555
C12 C11 1_555 1_555
H8 C12 1_555 1_555
C13 C12 1_555 1_555
H9 C13 1_555 1_555
C14 C13 1_555 1_555
C15 C14 1_555 1_555
H10 C15 1_555 1_555
C16 C11 1_555 1_555
C17 C14 1_555 1_555
C18 C16 1_555 1_555
C19 C18 1_555 1_555
H11 C19 1_555 1_555
C20 H12 1_555 1_555
C21 H13 1_555 1_555
C22 C21 1_555 1_555
H14 C22 1_555 1_555
C23 C22 1_555 1_555
H15 C23 1_555 1_555
C24 C23 1_555 1_555
C25 C24 1_555 1_555
H16 C25 1_555 1_555
C26 C21 1_555 1_555
C27 C24 1_555 1_555
C28 C26 1_555 1_555
C29 C28 1_555 1_555
H17 C29 1_555 1_555
C30 H18 1_555 1_555
C31 H19 1_555 1_555
C32 C31 1_555 1_555
C33 C32 1_555 1_555
C34 C33 1_555 1_555
H20 C34 1_555 1_555
C35 C34 1_555 1_555
C36 C31 1_555 1_555
C37 C36 1_555 1_555
C38 C35 1_555 1_555
C39 C33 1_555 1_555
C40 C32 1_555 1_555
C41 H21 1_555 1_555
C42 C41 1_555 1_555
C43 C42 1_555 1_555
C44 C43 1_555 1_555
C45 C42 1_555 1_555
N1 C7 1_555 1_555
H22 N1 1_555 1_555
N2 N1 1_555 1_555
N3 N2 1_555 1_555
N4 C7 1_555 1_555
N5 C9 1_555 1_555
N6 C8 1_555 1_555
H23 N6 1_555 1_555
N7 C17 1_555 1_555
N8 N7 1_555 1_555
N9 N8 1_555 1_555
N10 C17 1_555 1_555
H24 N10 1_555 1_555
N11 C18 1_555 1_555
H25 N11 1_555 1_555
N12 Zn1 1_555 1_555
N13 C27 1_555 1_555
H26 N13 1_555 1_555
N14 N13 1_555 1_555
N15 N14 1_555 1_555
N16 C27 1_555 1_555
N17 C28 1_555 1_555
H27 N17 1_555 1_555
N18 C29 1_555 1_555
O1 Zn3 1_555 1_555
O2 Zn1 1_555 1_555
O3 C37 1_555 1_555
O4 C37 1_555 1_555
O5 C40 1_555 1_555
O6 C40 1_555 1_555
O7 C39 1_555 1_555
O8 C39 1_555 1_555
O9 C45 1_555 1_555
O10 Zn2 1_555 1_555
O11 C44 1_555 1_555
O12 C44 1_555 1_555
C41B C43 1_555 1_555
H21B C41B 1_555 1_555
C42B C41B 1_555 1_555
C43B C41 1_555 1_555
C44B C43B 1_555 1_555
C45B C42B 1_555 1_555
O9B C45B 1_555 1_555
O10B C45B 1_555 1_555
O11B C44B 1_555 1_555
O12B C44B 1_555 1_555
Zn1B O6 1_555 1_555
Zn2B O5B 1_555 1_555
Zn3B N18B 1_555 1_555
C1B H1B 1_555 1_555
C2B C1B 1_555 1_555
H2B C2B 1_555 1_555
C3B C2B 1_555 1_555
H3B C3B 1_555 1_555
C4B C3B 1_555 1_555
C5B C4B 1_555 1_555
H4B C5B 1_555 1_555
C6B C1B 1_555 1_555
C7B C6B 1_555 1_555
C8B C4B 1_555 1_555
C9B C8B 1_555 1_555
H5B C9B 1_555 1_555
C10B H6B 1_555 1_555
C11B H7B 1_555 1_555
C12B C11B 1_555 1_555
H8B C12B 1_555 1_555
C13B C12B 1_555 1_555
H9B C13B 1_555 1_555
C14B C13B 1_555 1_555
C15B C14B 1_555 1_555
H10B C15B 1_555 1_555
C16B C11B 1_555 1_555
C17B C14B 1_555 1_555
C18B C16B 1_555 1_555
C19B C18B 1_555 1_555
H11B C19B 1_555 1_555
C20B H12B 1_555 1_555
C21B H13B 1_555 1_555
C22B C21B 1_555 1_555
H14B C22B 1_555 1_555
C23B C22B 1_555 1_555
H15B C23B 1_555 1_555
C24B C23B 1_555 1_555
C25B C24B 1_555 1_555
H16B C25B 1_555 1_555
C26B C21B 1_555 1_555
C27B C24B 1_555 1_555
C28B C26B 1_555 1_555
C29B C28B 1_555 1_555
H17B C29B 1_555 1_555
C30B H18B 1_555 1_555
C31B H19B 1_555 1_555
C32B C31B 1_555 1_555
C33B C32B 1_555 1_555
C34B C33B 1_555 1_555
H20B C34B 1_555 1_555
C35B C34B 1_555 1_555
C36B C31B 1_555 1_555
C37B C36B 1_555 1_555
C38B C35B 1_555 1_555
C39B C33B 1_555 1_555
C40B C32B 1_555 1_555
N1B C7B 1_555 1_555
H22B N1B 1_555 1_555
N2B N1B 1_555 1_555
N3B N2B 1_555 1_555
N4B Zn1B 1_555 1_555
N5B C9B 1_555 1_555
N6B C8B 1_555 1_555
H23B N6B 1_555 1_555
N7B C17B 1_555 1_555
N8B N7B 1_555 1_555
N9B N8B 1_555 1_555
N10B C17B 1_555 1_555
H24B N10B 1_555 1_555
N11B C18B 1_555 1_555
H25B N11B 1_555 1_555
N12B Zn1B 1_555 1_555
N13B C27B 1_555 1_555
H26B N13B 1_555 1_555
N14B N13B 1_555 1_555
N15B N14B 1_555 1_555
N16B C27B 1_555 1_555
N17B C28B 1_555 1_555
H27B N17B 1_555 1_555
N18B C29B 1_555 1_555
O1B Zn3B 1_555 1_555
O2B Zn1B 1_555 1_555
O3B C37B 1_555 1_555
O4B C37B 1_555 1_555
O5B C40B 1_555 1_555
O6B Zn1 1_555 1_555
O7B C39B 1_555 1_555
O8B C39B 1_555 1_555
Zn2A N5B 1_555 1_555
Zn2A_2 N7B 1_555 1_555
Zn2B_2 O10B 1_555 1_555
Zn2C N7 1_555 1_555
Zn2C_2 N5 1_555 1_555
Zn3_2 O9B 1_555 1_555
Zn3A N16 1_555 1_555
Zn3B_2 O9 1_555 1_555
Zn3C N16B 1_555 1_555
N5A Zn2B 1_555 1_555
N5C Zn2 1_555 1_555
N7A Zn2B 1_555 1_555
N7C Zn2 1_555 1_555
N16A Zn3 1_555 1_555
N16C Zn3B 1_555 1_555
O9_2 Zn3B 1_555 1_555
O9B_2 Zn3 1_555 1_555
O10B_2 Zn2B 1_555 1_555
C5 C6 1_555 1_555
C10 N5 1_555 1_555
C10 N6 1_555 1_555
C15 C16 1_555 1_555
C19 N12 1_555 1_555
C20 N11 1_555 1_555
C20 N12 1_555 1_555
C25 C26 1_555 1_555
C30 N17 1_555 1_555
C30 N18 1_555 1_555
C35 C36 1_555 1_555
C38 O1 1_555 1_555
C38 O2 1_555 1_555
C45 O10 1_555 1_555
N3 N4 1_555 1_555
N9 N10 1_555 1_555
N15 N16 1_555 1_555
C42B C43B 1_555 1_555
C5B C6B 1_555 1_555
C7B N4B 1_555 1_555
C10B N5B 1_555 1_555
C10B N6B 1_555 1_555
C15B C16B 1_555 1_555
C19B N12B 1_555 1_555
C20B N11B 1_555 1_555
C20B N12B 1_555 1_555
C25B C26B 1_555 1_555
C30B N17B 1_555 1_555
C30B N18B 1_555 1_555
C35B C36B 1_555 1_555
C38B O1B 1_555 1_555
C38B O2B 1_555 1_555
C40B O6B 1_555 1_555
N3B N4B 1_555 1_555
N9B N10B 1_555 1_555
N15B N16B 1_555 1_555

#END
