
#######################################################################
#
#                 Cambridge Crystallographic Data Centre
#                                CCDC 
#
#######################################################################
#
# If this CIF has been generated from an entry in the Cambridge 
# Structural Database, then it will include bibliographic, chemical, 
# crystal, experimental, refinement or atomic coordinate data resulting 
# from the CCDC's data processing and validation procedures.
#
#######################################################################

data_HIDCOM
_symmetry_cell_setting           tetragonal
_symmetry_space_group_name_H-M   'I 41/a'
_symmetry_Int_Tables_number      88
_space_group_name_Hall           '-I 4ad'
loop_
_symmetry_equiv_pos_site_id
_symmetry_equiv_pos_as_xyz
1 x,y,z
2 3/4-y,1/4+x,1/4+z
3 1/2+x,1/2+y,1/2+z
4 1/4-y,3/4+x,3/4+z
5 1/4+y,1/4-x,1/4+z
6 1/2-x,-y,1/2+z
7 3/4+y,3/4-x,3/4+z
8 -x,1/2-y,z
9 -x,-y,-z
10 1/4+y,3/4-x,3/4-z
11 1/2-x,1/2-y,1/2-z
12 3/4+y,1/4-x,1/4-z
13 3/4-y,3/4+x,3/4-z
14 1/2+x,y,1/2-z
15 1/4-y,1/4+x,1/4-z
16 x,1/2+y,-z
_cell_length_a                   14.024(5)
_cell_length_b                   14.024(5)
_cell_length_c                   16.785(5)
_cell_angle_alpha                90
_cell_angle_beta                 90
_cell_angle_gamma                90
_cell_volume                     3301.15
loop_
_atom_site_label
_atom_site_type_symbol
_atom_site_fract_x
_atom_site_fract_y
_atom_site_fract_z
O1 O -0.11582(19) 0.2677(2) 0.05611(16)
C1 C -0.1766(3) 0.2794(3) -0.0033(3)
C2 C -0.2761(3) 0.2821(3) 0.0087(3)
H1 H -0.3004 0.2769 0.0614
C3 C -0.3388(3) 0.2919(3) -0.0535(3)
H2 H -0.4053 0.2931 -0.0430
C4 C -0.3072(4) 0.3002(3) -0.1309(3)
H3 H -0.3509 0.3059 -0.1738
C5 C -0.2105(4) 0.2999(3) -0.1439(3)
H4 H -0.1871 0.3075 -0.1967
C6 C -0.1468(3) 0.2890(3) -0.0823(2)
H5 H -0.0805 0.2879 -0.0939
N1 N -0.0959(3) 0.5365(3) 0.0430(2)
C7 C -0.1455(3) 0.5367(3) 0.0951(3)
C8 C -0.2089(4) 0.5380(4) 0.1648(3)
H6 H -0.2523 0.4833 0.1625
H7 H -0.2461 0.5972 0.1649
H8 H -0.1706 0.5345 0.2136
Na1 Na 0.01454(11) 0.36798(11) 0.05797(10)
O1K O 0.0177(2) 0.36582(19) 0.19389(16)
C1K C 0.0294(3) 0.4266(3) 0.2533(3)
C2K C 0.0321(3) 0.5261(3) 0.2413(3)
H1K H 0.0269 0.5504 0.1886
C3K C 0.0419(3) 0.5888(3) 0.3035(3)
H2K H 0.0431 0.6553 0.2930
C4K C 0.0502(3) 0.5572(4) 0.3809(3)
H3K H 0.0559 0.6009 0.4238
C5K C 0.0499(3) 0.4605(4) 0.3939(3)
H4K H 0.0575 0.4371 0.4467
C6K C 0.0390(3) 0.3968(3) 0.3323(2)
H5K H 0.0379 0.3305 0.3439
O1G O 0.11582(19) 0.2323(2) 0.05611(16)
C1G C 0.1766(3) 0.2206(3) -0.0033(3)
C2G C 0.2761(3) 0.2179(3) 0.0087(3)
H1G H 0.3004 0.2231 0.0614
C3G C 0.3388(3) 0.2081(3) -0.0535(3)
H2G H 0.4053 0.2069 -0.0430
C4G C 0.3072(4) 0.1998(3) -0.1309(3)
H3G H 0.3509 0.1941 -0.1738
C5G C 0.2105(4) 0.2001(3) -0.1439(3)
H4G H 0.1871 0.1925 -0.1967
C6G C 0.1468(3) 0.2110(3) -0.0823(2)
H5G H 0.0805 0.2121 -0.0939
N1H N 0.0959(3) 0.4635(3) -0.0430(2)
Na1K Na 0.11798(11) 0.23546(11) 0.19203(10)
Na1G Na -0.01454(11) 0.13202(11) 0.05797(10)
Na1N Na -0.11798(11) 0.26454(11) 0.19203(10)
Na1H Na -0.01454(11) 0.63202(11) -0.05797(10)
O1N O -0.0177(2) 0.13418(19) 0.19389(16)
C1N C -0.0294(3) 0.0734(3) 0.2533(3)
C2N C -0.0321(3) -0.0261(3) 0.2413(3)
H1N H -0.0269 -0.0504 0.1886
C3N C -0.0419(3) -0.0888(3) 0.3035(3)
H2N H -0.0431 -0.1553 0.2930
C4N C -0.0502(3) -0.0572(4) 0.3809(3)
H3N H -0.0559 -0.1009 0.4238
C5N C -0.0499(3) 0.0395(4) 0.3939(3)
H4N H -0.0575 0.0629 0.4467
C6N C -0.0390(3) 0.1032(3) 0.3323(2)
H5N H -0.0379 0.1695 0.3439
N1K N 0.2865(3) 0.3459(3) 0.2070(2)
C7K C 0.2867(3) 0.3955(3) 0.1549(3)
C8K C 0.2880(4) 0.4589(4) 0.0852(3)
H6K H 0.2333 0.5023 0.0875
H7K H 0.3472 0.4961 0.0851
H8K H 0.2845 0.4206 0.0364
N1A N 0.2135(3) 0.1541(3) 0.2930(2)
N1G N 0.0959(3) -0.0365(3) 0.0430(2)
C7G C 0.1455(3) -0.0367(3) 0.0951(3)
C8G C 0.2089(4) -0.0380(4) 0.1648(3)
H6G H 0.2523 0.0167 0.1625
H7G H 0.2461 -0.0972 0.1649
H8G H 0.1706 -0.0345 0.2136
N1O N -0.0959(3) 0.0365(3) -0.0430(2)
N1N N -0.2865(3) 0.1541(3) 0.2070(2)
C7N C -0.2867(3) 0.1045(3) 0.1549(3)
C8N C -0.2880(4) 0.0411(4) 0.0852(3)
H6N H -0.2333 -0.0023 0.0875
H7N H -0.3472 0.0039 0.0851
H8N H -0.2845 0.0794 0.0364
N1D N -0.2135(3) 0.3459(3) 0.2930(2)
Na1A Na 0.38202(11) 0.26454(11) 0.30797(10)
Na1O Na 0.01454(11) -0.13202(11) -0.05797(10)
Na1D Na -0.38202(11) 0.23546(11) 0.30797(10)
loop_
_geom_bond_atom_site_label_1
_geom_bond_atom_site_label_2
_geom_bond_site_symmetry_1
_geom_bond_site_symmetry_2
O1 C1 1_555 1_555
C1 C2 1_555 1_555
C2 H1 1_555 1_555
C3 C2 1_555 1_555
H2 C3 1_555 1_555
C4 C3 1_555 1_555
H3 C4 1_555 1_555
C5 C4 1_555 1_555
H4 C5 1_555 1_555
C6 C1 1_555 1_555
H5 C6 1_555 1_555
N1 C7 1_555 1_555
C7 C8 1_555 1_555
C8 H6 1_555 1_555
H7 C8 1_555 1_555
H8 C8 1_555 1_555
Na1 O1 1_555 1_555
O1K Na1 1_555 1_555
C1K O1K 1_555 1_555
C2K C1K 1_555 1_555
H1K C2K 1_555 1_555
C3K C2K 1_555 1_555
H2K C3K 1_555 1_555
C4K C3K 1_555 1_555
H3K C4K 1_555 1_555
C5K C4K 1_555 1_555
H4K C5K 1_555 1_555
C6K C1K 1_555 1_555
H5K C6K 1_555 1_555
O1G Na1 1_555 1_555
C1G O1G 1_555 1_555
C2G C1G 1_555 1_555
H1G C2G 1_555 1_555
C3G C2G 1_555 1_555
H2G C3G 1_555 1_555
C4G C3G 1_555 1_555
H3G C4G 1_555 1_555
C5G C4G 1_555 1_555
H4G C5G 1_555 1_555
C6G C1G 1_555 1_555
H5G C6G 1_555 1_555
N1H Na1 1_555 1_555
Na1K O1K 1_555 1_555
Na1G O1 1_555 1_555
Na1N O1 1_555 1_555
Na1H N1 1_555 1_555
O1N Na1K 1_555 1_555
C1N O1N 1_555 1_555
C2N C1N 1_555 1_555
H1N C2N 1_555 1_555
C3N C2N 1_555 1_555
H2N C3N 1_555 1_555
C4N C3N 1_555 1_555
H3N C4N 1_555 1_555
C5N C4N 1_555 1_555
H4N C5N 1_555 1_555
C6N C1N 1_555 1_555
H5N C6N 1_555 1_555
N1K Na1K 1_555 1_555
C7K N1K 1_555 1_555
C8K C7K 1_555 1_555
H6K C8K 1_555 1_555
H7K C8K 1_555 1_555
H8K C8K 1_555 1_555
N1A Na1K 1_555 1_555
N1G Na1G 1_555 1_555
C7G N1G 1_555 1_555
C8G C7G 1_555 1_555
H6G C8G 1_555 1_555
H7G C8G 1_555 1_555
H8G C8G 1_555 1_555
N1O Na1G 1_555 1_555
N1N Na1N 1_555 1_555
C7N N1N 1_555 1_555
C8N C7N 1_555 1_555
H6N C8N 1_555 1_555
H7N C8N 1_555 1_555
H8N C8N 1_555 1_555
N1D Na1N 1_555 1_555
Na1A N1K 1_555 1_555
Na1O N1G 1_555 1_555
Na1D N1N 1_555 1_555
C5 C6 1_555 1_555
N1 Na1 1_555 1_555
O1K Na1N 1_555 1_555
C5K C6K 1_555 1_555
O1G Na1K 1_555 1_555
O1G Na1G 1_555 1_555
C5G C6G 1_555 1_555
N1H Na1H 1_555 1_555
Na1G O1N 1_555 1_555
Na1N O1N 1_555 1_555
C5N C6N 1_555 1_555
N1A Na1A 1_555 1_555
N1O Na1O 1_555 1_555
N1D Na1D 1_555 1_555

#END
