
#######################################################################
#
#                 Cambridge Crystallographic Data Centre
#                                CCDC 
#
#######################################################################
#
# If this CIF has been generated from an entry in the Cambridge 
# Structural Database, then it will include bibliographic, chemical, 
# crystal, experimental, refinement or atomic coordinate data resulting 
# from the CCDC's data processing and validation procedures.
#
#######################################################################

data_HIFFOT
_symmetry_cell_setting           monoclinic
_symmetry_space_group_name_H-M   'P 21/c'
_symmetry_Int_Tables_number      14
_space_group_name_Hall           '-P 2ybc'
loop_
_symmetry_equiv_pos_site_id
_symmetry_equiv_pos_as_xyz
1 x,y,z
2 -x,1/2+y,1/2-z
3 -x,-y,-z
4 x,1/2-y,1/2+z
_cell_length_a                   13.179(3)
_cell_length_b                   19.463(4)
_cell_length_c                   17.204(3)
_cell_angle_alpha                90
_cell_angle_beta                 103.49(3)
_cell_angle_gamma                90
_cell_volume                     4291.13
loop_
_atom_site_label
_atom_site_type_symbol
_atom_site_fract_x
_atom_site_fract_y
_atom_site_fract_z
W1 W 0.44806(3) 0.689876(16) 0.45174(2)
S1 S 0.32824(17) 0.74745(11) 0.49684(13)
S2 S 0.44974(18) 0.58707(11) 0.51130(14)
S3 S 0.36876(16) 0.66993(11) 0.31793(13)
Cu1 Cu 0.24459(8) 0.70124(5) 0.38077(6)
Cu2 Cu 0.35622(8) 0.57688(5) 0.38970(6)
B1 B 0.6883(8) 0.7657(5) 0.4929(6)
H1 H 0.768(7) 0.786(4) 0.505(5)
N1 N 0.5075(5) 0.7935(3) 0.4167(4)
N2 N 0.6101(5) 0.8111(3) 0.4368(4)
N3 N 0.5584(5) 0.7212(3) 0.5672(4)
N4 N 0.6520(5) 0.7539(4) 0.5700(4)
N5 N 0.6037(5) 0.6599(3) 0.4219(4)
N6 N 0.6934(5) 0.6966(3) 0.4508(4)
N7 N 0.1525(5) 0.6223(3) 0.4237(4)
N8 N 0.2728(5) 0.4967(3) 0.3459(4)
N9 N -0.1235(5) 0.2571(3) 0.1795(4)
C1 C 0.4557(6) 0.8458(4) 0.3730(5)
C2 C 0.5292(7) 0.8959(4) 0.3657(5)
H2 H 0.5152 0.9379 0.3383
C3 C 0.6249(7) 0.8725(4) 0.4060(5)
C4 C 0.3413(7) 0.8492(4) 0.3374(6)
H3 H 0.3209 0.8110 0.3010
H4 H 0.3248 0.8921 0.3085
H5 H 0.3038 0.8468 0.3796
C5 C 0.7289(7) 0.9051(5) 0.4165(6)
H6 H 0.7616 0.9086 0.4730
H7 H 0.7210 0.9507 0.3930
H8 H 0.7723 0.8774 0.3903
C6 C 0.5491(7) 0.7187(5) 0.6436(5)
C7 C 0.6347(8) 0.7504(5) 0.6932(5)
H9 H 0.6466 0.7557 0.7489
C8 C 0.6977(7) 0.7724(5) 0.6462(6)
C9 C 0.4587(8) 0.6873(6) 0.6710(6)
H10 H 0.4139 0.7235 0.6826
H11 H 0.4849 0.6602 0.7188
H12 H 0.4191 0.6579 0.6291
C10 C 0.7979(8) 0.8109(6) 0.6684(6)
H13 H 0.8495 0.7887 0.6449
H14 H 0.8225 0.8116 0.7261
H15 H 0.7871 0.8577 0.6486
C11 C 0.6345(7) 0.6060(4) 0.3805(5)
C12 C 0.7384(7) 0.6112(4) 0.3832(6)
H16 H 0.7777 0.5811 0.3592
C13 C 0.7753(7) 0.6683(4) 0.4275(5)
C14 C 0.5647(7) 0.5512(4) 0.3367(6)
H17 H 0.5131 0.5716 0.2933
H18 H 0.5297 0.5282 0.3731
H19 H 0.6059 0.5180 0.3152
C15 C 0.8827(7) 0.6978(5) 0.4485(7)
H20 H 0.8828 0.7420 0.4225
H21 H 0.9304 0.6669 0.4306
H22 H 0.9047 0.7036 0.5059
C16 C 0.0744(7) 0.5881(4) 0.3758(5)
H23 H 0.0593 0.5976 0.3208
C17 C 0.0152(6) 0.5399(4) 0.4028(5)
H24 H -0.0372 0.5162 0.3662
C18 C 0.0321(6) 0.5260(4) 0.4834(6)
C19 C 0.1128(7) 0.5613(5) 0.5347(6)
H25 H 0.1279 0.5534 0.5901
C20 C 0.1700(7) 0.6081(5) 0.5020(6)
H26 H 0.2247 0.6314 0.5369
C21 C 0.2139(7) 0.5018(4) 0.2720(5)
H27 H 0.2237 0.5398 0.2410
C22 C 0.1399(7) 0.4545(4) 0.2390(5)
H28 H 0.1016 0.4598 0.1859
C23 C 0.1212(7) 0.3981(4) 0.2841(5)
C24 C 0.1839(7) 0.3937(5) 0.3606(6)
H29 H 0.1759 0.3563 0.3933
C25 C 0.2570(7) 0.4425(4) 0.3894(5)
H30 H 0.2979 0.4379 0.4417
C26 C 0.0389(6) 0.3486(4) 0.2493(5)
C27 C 0.0152(7) 0.3331(5) 0.1690(5)
H31 H 0.0531 0.3544 0.1357
C28 C -0.0631(7) 0.2868(4) 0.1358(5)
H32 H -0.0743 0.2759 0.0812
C29 C -0.1029(7) 0.2709(4) 0.2581(5)
H33 H -0.1435 0.2499 0.2896
C30 C -0.0227(6) 0.3157(4) 0.2945(5)
H34 H -0.0100 0.3238 0.3498
N7B N -0.1525(5) 0.3777(3) 0.5763(4)
C16B C -0.0744(7) 0.4119(4) 0.6242(5)
H23B H -0.0593 0.4024 0.6792
C17B C -0.0152(6) 0.4601(4) 0.5972(5)
H24B H 0.0372 0.4838 0.6338
C18B C -0.0321(6) 0.4740(4) 0.5166(6)
C19B C -0.1128(7) 0.4387(5) 0.4653(6)
H25B H -0.1279 0.4466 0.4099
C20B C -0.1700(7) 0.3919(5) 0.4980(6)
H26B H -0.2247 0.3686 0.4631
W1B W -0.44806(3) 0.310124(16) 0.54826(2)
S1B S -0.32824(17) 0.25255(11) 0.50316(13)
S2B S -0.44974(18) 0.41293(11) 0.48870(14)
S3B S -0.36876(16) 0.33007(11) 0.68207(13)
Cu1B Cu -0.24459(8) 0.29876(5) 0.61923(6)
Cu2B Cu -0.35622(8) 0.42312(5) 0.61030(6)
B1B B -0.6883(8) 0.2343(5) 0.5071(6)
H1B H -0.768(7) 0.214(4) 0.495(5)
N1B N -0.5075(5) 0.2065(3) 0.5833(4)
N2B N -0.6101(5) 0.1889(3) 0.5632(4)
N3B N -0.5584(5) 0.2788(3) 0.4328(4)
N4B N -0.6520(5) 0.2461(4) 0.4300(4)
N5B N -0.6037(5) 0.3401(3) 0.5781(4)
N6B N -0.6934(5) 0.3034(3) 0.5492(4)
N8B N -0.2728(5) 0.5033(3) 0.6541(4)
N9B N 0.1235(5) 0.7429(3) 0.8205(4)
C1B C -0.4557(6) 0.1542(4) 0.6270(5)
C2B C -0.5292(7) 0.1041(4) 0.6343(5)
H2B H -0.5152 0.0621 0.6617
C3B C -0.6249(7) 0.1275(4) 0.5940(5)
C4B C -0.3413(7) 0.1508(4) 0.6626(6)
H3B H -0.3209 0.1890 0.6990
H4B H -0.3248 0.1079 0.6915
H5B H -0.3038 0.1532 0.6204
C5B C -0.7289(7) 0.0949(5) 0.5835(6)
H6B H -0.7616 0.0914 0.5270
H7B H -0.7210 0.0493 0.6070
H8B H -0.7723 0.1226 0.6097
C6B C -0.5491(7) 0.2813(5) 0.3564(5)
C7B C -0.6347(8) 0.2496(5) 0.3068(5)
H9B H -0.6466 0.2443 0.2511
C8B C -0.6977(7) 0.2276(5) 0.3538(6)
C9B C -0.4587(8) 0.3127(6) 0.3290(6)
H10B H -0.4139 0.2765 0.3174
H11B H -0.4849 0.3398 0.2812
H12B H -0.4191 0.3421 0.3709
C10B C -0.7979(8) 0.1891(6) 0.3316(6)
H13B H -0.8495 0.2113 0.3551
H14B H -0.8225 0.1884 0.2739
H15B H -0.7871 0.1423 0.3514
C11B C -0.6345(7) 0.3940(4) 0.6195(5)
C12B C -0.7384(7) 0.3888(4) 0.6168(6)
H16B H -0.7777 0.4189 0.6408
C13B C -0.7753(7) 0.3317(4) 0.5725(5)
C14B C -0.5647(7) 0.4488(4) 0.6633(6)
H17B H -0.5131 0.4284 0.7067
H18B H -0.5297 0.4718 0.6269
H19B H -0.6059 0.4820 0.6848
C15B C -0.8827(7) 0.3022(5) 0.5515(7)
H20B H -0.8828 0.2580 0.5775
H21B H -0.9304 0.3331 0.5694
H22B H -0.9047 0.2964 0.4941
C21B C -0.2139(7) 0.4982(4) 0.7280(5)
H27B H -0.2237 0.4602 0.7590
C22B C -0.1399(7) 0.5455(4) 0.7610(5)
H28B H -0.1016 0.5402 0.8141
C23B C -0.1212(7) 0.6019(4) 0.7159(5)
C24B C -0.1839(7) 0.6063(5) 0.6394(6)
H29B H -0.1759 0.6437 0.6067
C25B C -0.2570(7) 0.5575(4) 0.6106(5)
H30B H -0.2979 0.5621 0.5583
C26B C -0.0389(6) 0.6514(4) 0.7507(5)
C27B C -0.0152(7) 0.6669(5) 0.8310(5)
H31B H -0.0531 0.6456 0.8643
C28B C 0.0631(7) 0.7132(4) 0.8642(5)
H32B H 0.0743 0.7241 0.9188
C29B C 0.1029(7) 0.7291(4) 0.7419(5)
H33B H 0.1435 0.7501 0.7104
C30B C 0.0227(6) 0.6843(4) 0.7055(5)
H34B H 0.0100 0.6762 0.6502
Cu1A Cu -0.24459(8) 0.20124(5) 0.11923(6)
Cu1C Cu 0.24459(8) 0.79876(5) 0.88077(6)
N9A N 0.1235(5) 0.7571(3) 0.3205(4)
N9C N -0.1235(5) 0.2429(3) 0.6795(4)
P1 P 0.0927(2) 0.62621(14) 0.08043(16)
F1 F 0.1122(6) 0.5458(3) 0.0882(4)
F2 F 0.0764(6) 0.7071(3) 0.0713(4)
F3 F 0.1968(5) 0.6392(4) 0.1468(4)
F4 F 0.0323(6) 0.6234(4) 0.1498(4)
F5 F 0.1564(5) 0.6286(3) 0.0121(4)
F6 F -0.0108(5) 0.6146(4) 0.0144(4)
N10 N 0.1635(9) 0.9809(6) 0.2453(7)
C31 C 0.1493(10) 0.9924(6) 0.3900(7)
H35 H 0.1146 0.9521 0.4045
H36 H 0.1095 1.0331 0.3962
H37 H 0.2188 0.9959 0.4245
C32 C 0.1567(9) 0.9868(5) 0.3092(8)
N11 N 0.3869(12) 1.0541(8) 0.4074(11)
C33 C 0.5719(12) 1.0921(8) 0.4137(12)
H38 H 0.6107 1.0547 0.3970
H39 H 0.6052 1.1053 0.4681
H40 H 0.5710 1.1311 0.3784
C34 C 0.4667(13) 1.0702(8) 0.4102(10)
loop_
_geom_bond_atom_site_label_1
_geom_bond_atom_site_label_2
_geom_bond_site_symmetry_1
_geom_bond_site_symmetry_2
W1 S1 1_555 1_555
S1 Cu1 1_555 1_555
S2 W1 1_555 1_555
S3 W1 1_555 1_555
Cu1 S3 1_555 1_555
Cu2 S2 1_555 1_555
B1 H1 1_555 1_555
N1 W1 1_555 1_555
N2 B1 1_555 1_555
N3 W1 1_555 1_555
N4 B1 1_555 1_555
N5 W1 1_555 1_555
N6 B1 1_555 1_555
N7 Cu1 1_555 1_555
N8 Cu2 1_555 1_555
N9 C28 1_555 1_555
C1 N1 1_555 1_555
C2 C1 1_555 1_555
H2 C2 1_555 1_555
C3 N2 1_555 1_555
C4 C1 1_555 1_555
H3 C4 1_555 1_555
H4 C4 1_555 1_555
H5 C4 1_555 1_555
C5 C3 1_555 1_555
H6 C5 1_555 1_555
H7 C5 1_555 1_555
H8 C5 1_555 1_555
C6 N3 1_555 1_555
C7 C6 1_555 1_555
H9 C7 1_555 1_555
C8 N4 1_555 1_555
C9 C6 1_555 1_555
H10 C9 1_555 1_555
H11 C9 1_555 1_555
H12 C9 1_555 1_555
C10 C8 1_555 1_555
H13 C10 1_555 1_555
H14 C10 1_555 1_555
H15 C10 1_555 1_555
C11 N5 1_555 1_555
C12 C11 1_555 1_555
H16 C12 1_555 1_555
C13 N6 1_555 1_555
C14 C11 1_555 1_555
H17 C14 1_555 1_555
H18 C14 1_555 1_555
H19 C14 1_555 1_555
C15 C13 1_555 1_555
H20 C15 1_555 1_555
H21 C15 1_555 1_555
H22 C15 1_555 1_555
C16 N7 1_555 1_555
H23 C16 1_555 1_555
C17 C16 1_555 1_555
H24 C17 1_555 1_555
C18 C17 1_555 1_555
C19 C18 1_555 1_555
H25 C19 1_555 1_555
C20 N7 1_555 1_555
H26 C20 1_555 1_555
C21 N8 1_555 1_555
H27 C21 1_555 1_555
C22 C21 1_555 1_555
H28 C22 1_555 1_555
C23 C22 1_555 1_555
C24 C23 1_555 1_555
H29 C24 1_555 1_555
C25 N8 1_555 1_555
H30 C25 1_555 1_555
C26 C23 1_555 1_555
C27 C26 1_555 1_555
H31 C27 1_555 1_555
C28 C27 1_555 1_555
H32 C28 1_555 1_555
C29 N9 1_555 1_555
H33 C29 1_555 1_555
C30 C26 1_555 1_555
H34 C30 1_555 1_555
P1 F1 1_555 1_555
F2 P1 1_555 1_555
F3 P1 1_555 1_555
F4 P1 1_555 1_555
F5 P1 1_555 1_555
F6 P1 1_555 1_555
N10 C32 1_555 1_555
C31 H35 1_555 1_555
H36 C31 1_555 1_555
H37 C31 1_555 1_555
C32 C31 1_555 1_555
N11 C34 1_555 1_555
C33 H38 1_555 1_555
H39 C33 1_555 1_555
H40 C33 1_555 1_555
C34 C33 1_555 1_555
N7B C16B 1_555 1_555
C16B H23B 1_555 1_555
C17B C16B 1_555 1_555
H24B C17B 1_555 1_555
C18B C18 1_555 1_555
C19B C18B 1_555 1_555
H25B C19B 1_555 1_555
C20B N7B 1_555 1_555
H26B C20B 1_555 1_555
W1B S1B 1_555 1_555
S1B Cu1B 1_555 1_555
S2B W1B 1_555 1_555
S3B W1B 1_555 1_555
Cu1B N7B 1_555 1_555
Cu2B S2B 1_555 1_555
B1B H1B 1_555 1_555
N1B W1B 1_555 1_555
N2B B1B 1_555 1_555
N3B W1B 1_555 1_555
N4B B1B 1_555 1_555
N5B W1B 1_555 1_555
N6B B1B 1_555 1_555
N8B Cu2B 1_555 1_555
N9B C28B 1_555 1_555
C1B N1B 1_555 1_555
C2B C1B 1_555 1_555
H2B C2B 1_555 1_555
C3B N2B 1_555 1_555
C4B C1B 1_555 1_555
H3B C4B 1_555 1_555
H4B C4B 1_555 1_555
H5B C4B 1_555 1_555
C5B C3B 1_555 1_555
H6B C5B 1_555 1_555
H7B C5B 1_555 1_555
H8B C5B 1_555 1_555
C6B N3B 1_555 1_555
C7B C6B 1_555 1_555
H9B C7B 1_555 1_555
C8B N4B 1_555 1_555
C9B C6B 1_555 1_555
H10B C9B 1_555 1_555
H11B C9B 1_555 1_555
H12B C9B 1_555 1_555
C10B C8B 1_555 1_555
H13B C10B 1_555 1_555
H14B C10B 1_555 1_555
H15B C10B 1_555 1_555
C11B N5B 1_555 1_555
C12B C11B 1_555 1_555
H16B C12B 1_555 1_555
C13B N6B 1_555 1_555
C14B C11B 1_555 1_555
H17B C14B 1_555 1_555
H18B C14B 1_555 1_555
H19B C14B 1_555 1_555
C15B C13B 1_555 1_555
H20B C15B 1_555 1_555
H21B C15B 1_555 1_555
H22B C15B 1_555 1_555
C21B N8B 1_555 1_555
H27B C21B 1_555 1_555
C22B C21B 1_555 1_555
H28B C22B 1_555 1_555
C23B C22B 1_555 1_555
C24B C23B 1_555 1_555
H29B C24B 1_555 1_555
C25B N8B 1_555 1_555
H30B C25B 1_555 1_555
C26B C23B 1_555 1_555
C27B C26B 1_555 1_555
H31B C27B 1_555 1_555
C28B C27B 1_555 1_555
H32B C28B 1_555 1_555
C29B N9B 1_555 1_555
H33B C29B 1_555 1_555
C30B C26B 1_555 1_555
H34B C30B 1_555 1_555
Cu1A N9 1_555 1_555
Cu1C N9B 1_555 1_555
N9A Cu1 1_555 1_555
N9C Cu1B 1_555 1_555
S3 Cu2 1_555 1_555
N1 N2 1_555 1_555
N3 N4 1_555 1_555
N5 N6 1_555 1_555
C2 C3 1_555 1_555
C7 C8 1_555 1_555
C12 C13 1_555 1_555
C19 C20 1_555 1_555
C24 C25 1_555 1_555
C29 C30 1_555 1_555
C17B C18B 1_555 1_555
C19B C20B 1_555 1_555
S3B Cu1B 1_555 1_555
S3B Cu2B 1_555 1_555
N1B N2B 1_555 1_555
N3B N4B 1_555 1_555
N5B N6B 1_555 1_555
C2B C3B 1_555 1_555
C7B C8B 1_555 1_555
C12B C13B 1_555 1_555
C24B C25B 1_555 1_555
C29B C30B 1_555 1_555

#END
