
#######################################################################
#
#                 Cambridge Crystallographic Data Centre
#                                CCDC 
#
#######################################################################
#
# If this CIF has been generated from an entry in the Cambridge 
# Structural Database, then it will include bibliographic, chemical, 
# crystal, experimental, refinement or atomic coordinate data resulting 
# from the CCDC's data processing and validation procedures.
#
#######################################################################

data_HIFGIO
_symmetry_cell_setting           monoclinic
_symmetry_space_group_name_H-M   'C 2/m'
_symmetry_Int_Tables_number      12
_space_group_name_Hall           '-C 2y'
loop_
_symmetry_equiv_pos_site_id
_symmetry_equiv_pos_as_xyz
1 x,y,z
2 -x,y,-z
3 1/2+x,1/2+y,z
4 1/2-x,1/2+y,-z
5 -x,-y,-z
6 x,-y,z
7 1/2-x,1/2-y,-z
8 1/2+x,1/2-y,z
_cell_length_a                   29.411(4)
_cell_length_b                   24.104(7)
_cell_length_c                   5.966(5)
_cell_angle_alpha                90
_cell_angle_beta                 100.043(5)
_cell_angle_gamma                90
_cell_volume                     4164.63
loop_
_atom_site_label
_atom_site_type_symbol
_atom_site_fract_x
_atom_site_fract_y
_atom_site_fract_z
Zn1 Zn 0.0000 0.0000 0.5000
Zn2 Zn 0.0000 0.06012(3) 1.0000
O1 O 0.0454(4) 0.0584(5) 0.4597(10)
O2 O 0.04656(13) 0.10696(14) 0.1733(5)
O3 O 0.02831(15) 0.0000 0.8373(7)
C1 C 0.0613(2) 0.0957(3) 0.3738(9)
C2 C 0.0996(2) 0.1289(3) 0.4993(8)
C3 C 0.1191(2) 0.1700(3) 0.4016(10)
H1 H 0.1077 0.1796 0.2477
C4 C 0.1559(3) 0.1988(4) 0.5229(13)
H2 H 0.1693 0.2276 0.4472
C5 C 0.1741(2) 0.1885(3) 0.7417(9)
C6 C 0.1540(4) 0.1477(5) 0.8368(13)
H3 H 0.1666 0.1375 0.9888
C7 C 0.1162(5) 0.1196(6) 0.7279(13)
H4 H 0.1012 0.0936 0.8096
C8 C 0.2135(2) 0.2202(3) 0.8744(9)
C9 C 0.2589(3) 0.2105(4) 0.8451(15)
C10 C 0.2937(3) 0.2422(4) 0.9739(13)
H5 H 0.3245 0.2365 0.9512
C11 C 0.2712(4) 0.1764(4) 0.6411(17)
H6 H 0.3048 0.1740 0.6546
H7 H 0.2582 0.1947 0.4978
H8 H 0.2583 0.1389 0.6431
O1F O 0.4546(4) 0.4416(5) 1.5403(10)
O2F O 0.45344(13) 0.39304(14) 1.8267(5)
C1F C 0.4387(2) 0.4043(3) 1.6262(9)
C2F C 0.4004(2) 0.3711(3) 1.5007(8)
C3F C 0.3809(2) 0.3300(3) 1.5984(10)
H1F H 0.3923 0.3204 1.7523
C4F C 0.3441(3) 0.3012(4) 1.4771(13)
H2F H 0.3307 0.2724 1.5528
C5F C 0.3259(2) 0.3115(3) 1.2583(9)
C6F C 0.3460(4) 0.3523(5) 1.1632(13)
H3F H 0.3334 0.3625 1.0112
C7F C 0.3838(5) 0.3804(6) 1.2721(13)
H4F H 0.3988 0.4064 1.1904
C8F C 0.2865(2) 0.2798(3) 1.1256(9)
C9F C 0.2411(3) 0.2895(4) 1.1549(15)
C10F C 0.2063(3) 0.2578(4) 1.0261(13)
H5F H 0.1755 0.2635 1.0488
C11F C 0.2288(4) 0.3236(4) 1.3589(17)
H6F H 0.1952 0.3260 1.3454
H7F H 0.2418 0.3053 1.5022
H8F H 0.2417 0.3611 1.3569
O1A O -0.0454(4) 0.0584(5) 0.5403(10)
O2A O -0.04656(13) 0.10696(14) 0.8267(5)
O3A O -0.02831(15) 0.0000 0.1627(7)
C1A C -0.0613(2) 0.0957(3) 0.6262(9)
C2A C -0.0996(2) 0.1289(3) 0.5007(8)
C3A C -0.1191(2) 0.1700(3) 0.5984(10)
H1A H -0.1077 0.1796 0.7523
C4A C -0.1559(3) 0.1988(4) 0.4771(13)
H2A H -0.1693 0.2276 0.5528
C5A C -0.1741(2) 0.1885(3) 0.2583(9)
C6A C -0.1540(4) 0.1477(5) 0.1632(13)
H3A H -0.1666 0.1375 0.0112
C7A C -0.1162(5) 0.1196(6) 0.2721(13)
H4A H -0.1012 0.0936 0.1904
C8A C -0.2135(2) 0.2202(3) 0.1256(9)
C9A C -0.2589(3) 0.2105(4) 0.1549(15)
C10A C -0.2937(3) 0.2422(4) 0.0261(13)
H5A H -0.3245 0.2365 0.0488
C11A C -0.2712(4) 0.1764(4) 0.3589(17)
H6A H -0.3048 0.1740 0.3454
H7A H -0.2582 0.1947 0.5022
H8A H -0.2583 0.1389 0.3569
O1G O -0.4546(4) 0.4416(5) -0.5403(10)
O2G O -0.45344(13) 0.39304(14) -0.8267(5)
C1G C -0.4387(2) 0.4043(3) -0.6262(9)
C2G C -0.4004(2) 0.3711(3) -0.5007(8)
C3G C -0.3809(2) 0.3300(3) -0.5984(10)
H1G H -0.3923 0.3204 -0.7523
C4G C -0.3441(3) 0.3012(4) -0.4771(13)
H2G H -0.3307 0.2724 -0.5528
C5G C -0.3259(2) 0.3115(3) -0.2583(9)
C6G C -0.3460(4) 0.3523(5) -0.1632(13)
H3G H -0.3334 0.3625 -0.0112
C7G C -0.3838(5) 0.3804(6) -0.2721(13)
H4G H -0.3988 0.4064 -0.1904
C8G C -0.2865(2) 0.2798(3) -0.1256(9)
C9G C -0.2411(3) 0.2895(4) -0.1549(15)
C10G C -0.2063(3) 0.2578(4) -0.0261(13)
H5G H -0.1755 0.2635 -0.0488
C11G C -0.2288(4) 0.3236(4) -0.3589(17)
H6G H -0.1952 0.3260 -0.3454
H7G H -0.2418 0.3053 -0.5022
H8G H -0.2417 0.3611 -0.3569
Zn2D Zn 0.0000 -0.06012(3) 1.0000
Zn1B Zn -0.5000 0.5000 -0.5000
Zn1B_2 Zn 0.5000 0.5000 1.5000
Zn2_2 Zn 0.0000 0.06012(3) 0.0000
Zn2D_2 Zn 0.0000 -0.06012(3) 0.0000
Zn2F Zn -0.5000 0.43988(3) -1.0000
Zn2F_2 Zn 0.5000 0.43988(3) 2.0000
O1D O -0.0454(4) -0.0584(5) 0.5403(10)
O1E O 0.0454(4) -0.0584(5) 0.4597(10)
O2_2 O 0.04656(13) 0.10696(14) 1.1733(5)
O2D O -0.04656(13) -0.10696(14) 0.8267(5)
O2E O 0.04656(13) -0.10696(14) 1.1733(5)
O3A_2 O -0.02831(15) 0.0000 1.1627(7)
loop_
_geom_bond_atom_site_label_1
_geom_bond_atom_site_label_2
_geom_bond_site_symmetry_1
_geom_bond_site_symmetry_2
Zn1 O1 1_555 1_555
Zn2 O3 1_555 1_555
O1 C1 1_555 1_555
O2 C1 1_555 1_555
O3 Zn1 1_555 1_555
C1 C2 1_555 1_555
C2 C3 1_555 1_555
C3 H1 1_555 1_555
C4 C3 1_555 1_555
H2 C4 1_555 1_555
C5 C4 1_555 1_555
C6 C5 1_555 1_555
H3 C6 1_555 1_555
C7 C2 1_555 1_555
H4 C7 1_555 1_555
C8 C5 1_555 1_555
C9 C8 1_555 1_555
C10 C9 1_555 1_555
H5 C10 1_555 1_555
C11 C9 1_555 1_555
H6 C11 1_555 1_555
H7 C11 1_555 1_555
H8 C11 1_555 1_555
O1F C1F 1_555 1_555
O2F C1F 1_555 1_555
C1F C2F 1_555 1_555
C2F C3F 1_555 1_555
C3F H1F 1_555 1_555
C4F C3F 1_555 1_555
H2F C4F 1_555 1_555
C5F C4F 1_555 1_555
C6F C5F 1_555 1_555
H3F C6F 1_555 1_555
C7F C2F 1_555 1_555
H4F C7F 1_555 1_555
C8F C10 1_555 1_555
C9F C8F 1_555 1_555
C10F C8 1_555 1_555
H5F C10F 1_555 1_555
C11F C9F 1_555 1_555
H6F C11F 1_555 1_555
H7F C11F 1_555 1_555
H8F C11F 1_555 1_555
O1A Zn1 1_555 1_555
O2A Zn2 1_555 1_555
O3A Zn1 1_555 1_555
C1A O1A 1_555 1_555
C2A C1A 1_555 1_555
C3A C2A 1_555 1_555
H1A C3A 1_555 1_555
C4A C3A 1_555 1_555
H2A C4A 1_555 1_555
C5A C4A 1_555 1_555
C6A C5A 1_555 1_555
H3A C6A 1_555 1_555
C7A C2A 1_555 1_555
H4A C7A 1_555 1_555
C8A C5A 1_555 1_555
C9A C8A 1_555 1_555
C10A C9A 1_555 1_555
H5A C10A 1_555 1_555
C11A C9A 1_555 1_555
H6A C11A 1_555 1_555
H7A C11A 1_555 1_555
H8A C11A 1_555 1_555
O1G C1G 1_555 1_555
O2G C1G 1_555 1_555
C1G C2G 1_555 1_555
C2G C3G 1_555 1_555
C3G H1G 1_555 1_555
C4G C3G 1_555 1_555
H2G C4G 1_555 1_555
C5G C4G 1_555 1_555
C6G C5G 1_555 1_555
H3G C6G 1_555 1_555
C7G C2G 1_555 1_555
H4G C7G 1_555 1_555
C8G C10A 1_555 1_555
C9G C8G 1_555 1_555
C10G C8A 1_555 1_555
H5G C10G 1_555 1_555
C11G C9G 1_555 1_555
H6G C11G 1_555 1_555
H7G C11G 1_555 1_555
H8G C11G 1_555 1_555
Zn2D O3 1_555 1_555
Zn1B O1G 1_555 1_555
Zn1B_2 O1F 1_555 1_555
Zn2_2 O2 1_555 1_555
Zn2D_2 O3A 1_555 1_555
Zn2F O2G 1_555 1_555
Zn2F_2 O2F 1_555 1_555
O1D Zn1 1_555 1_555
O1E Zn1 1_555 1_555
O2_2 Zn2 1_555 1_555
O2D Zn2D 1_555 1_555
O2E Zn2D 1_555 1_555
O3A_2 Zn2 1_555 1_555
C6 C7 1_555 1_555
C5F C8F 1_555 1_555
C6F C7F 1_555 1_555
C9F C10F 1_555 1_555
O2A C1A 1_555 1_555
O3A Zn2_2 1_555 1_555
C6A C7A 1_555 1_555
C5G C8G 1_555 1_555
C6G C7G 1_555 1_555
C9G C10G 1_555 1_555
Zn2D O3A_2 1_555 1_555

#END
