
#######################################################################
#
#                 Cambridge Crystallographic Data Centre
#                                CCDC 
#
#######################################################################
#
# If this CIF has been generated from an entry in the Cambridge 
# Structural Database, then it will include bibliographic, chemical, 
# crystal, experimental, refinement or atomic coordinate data resulting 
# from the CCDC's data processing and validation procedures.
#
#######################################################################

data_HIFLIR
_symmetry_cell_setting           monoclinic
_symmetry_space_group_name_H-M   'P 2/c'
_symmetry_Int_Tables_number      13
_space_group_name_Hall           '-P 2yc'
loop_
_symmetry_equiv_pos_site_id
_symmetry_equiv_pos_as_xyz
1 x,y,z
2 -x,y,1/2-z
3 -x,-y,-z
4 x,-y,1/2+z
_cell_length_a                   18.262(4)
_cell_length_b                   12.956(7)
_cell_length_c                   26.518(20)
_cell_angle_alpha                90
_cell_angle_beta                 90.40(3)
_cell_angle_gamma                90
_cell_volume                     6274.07
loop_
_atom_site_label
_atom_site_type_symbol
_atom_site_fract_x
_atom_site_fract_y
_atom_site_fract_z
Ca1 Ca 0.12664(5) 0.01757(7) 0.63353(3)
Ca2 Ca 0.25135(6) 0.26901(7) 0.63153(4)
Ca3 Ca 0.24870(5) -0.22825(7) 0.62670(3)
Ca4 Ca 0.37295(5) 0.51360(7) 0.63474(3)
Ca5 Ca 0.0000 0.03205(10) 0.7500
Ca6 Ca 0.5000 0.53564(10) 0.7500
Ca7 Ca 0.0000 0.0000 0.5000
Ca8 Ca 0.5000 0.5000 0.5000
O1 O 0.4480(2) 0.7126(3) 0.79042(13)
O2 O 0.3952(2) 0.6181(2) 0.70789(12)
O3 O 0.3022(2) -0.2707(3) 0.70319(12)
C1 C 0.3887(3) 0.7538(4) 0.7656(2)
C2 C 0.3682(4) 0.8417(4) 0.7889(2)
H1 H 0.3298(4) 0.8851(4) 0.7798(2)
C3 C 0.4174(4) 0.8543(5) 0.8303(2)
H2 H 0.4168(4) 0.9081(5) 0.8535(2)
C4 C 0.4643(4) 0.7759(5) 0.8300(2)
H3 H 0.5022(4) 0.7658(5) 0.8531(2)
C5 C 0.3595(3) 0.6971(3) 0.7220(2)
O4 O 0.5369(3) 0.2784(4) 0.51407(14)
O5 O 0.4259(2) 0.6025(3) 0.56147(13)
O6 O 0.3715(2) -0.2701(3) 0.60216(13)
C6 C 0.5686(3) 0.2338(4) 0.4735(2)
C7 C 0.5751(4) 0.1314(5) 0.4802(3)
H4 H 0.5945(4) 0.0828(5) 0.4582(3)
C8 C 0.5451(6) 0.1146(7) 0.5299(4)
H5 H 0.5419(6) 0.0513(7) 0.5463(4)
C9 C 0.5232(5) 0.2033(9) 0.5478(3)
H6 H 0.5014(5) 0.2131(9) 0.5790(3)
C10 C 0.4079(3) 0.6962(4) 0.5661(2)
O7 O 0.1464(2) -0.3426(3) 0.70908(13)
O8 O 0.1515(2) -0.1467(3) 0.67355(12)
O9 O 0.0912(3) -0.0898(4) 0.7397(2)
C11 C 0.1159(3) -0.2651(4) 0.7359(2)
C12 C 0.0841(4) -0.3021(5) 0.7774(2)
H7 H 0.0606(4) -0.2642(5) 0.8023(2)
C13 C 0.0935(4) -0.4111(5) 0.7759(2)
H8 H 0.0764(4) -0.4588(5) 0.7992(2)
C14 C 0.1309(4) -0.4310(4) 0.7351(2)
H9 H 0.1451(4) -0.4968(4) 0.7251(2)
C15 C 0.1194(3) -0.1602(4) 0.7148(2)
O10 O 0.0573(2) 0.1936(3) 0.79627(13)
O11 O 0.0984(2) 0.1239(2) 0.70602(12)
O12 O 0.1606(2) 0.2690(3) 0.69148(13)
C16 C 0.1064(3) 0.2492(4) 0.7693(2)
C17 C 0.1321(3) 0.3256(4) 0.7986(2)
H10 H 0.1671(3) 0.3743(4) 0.7896(2)
C18 C 0.0964(4) 0.3188(5) 0.8450(2)
H11 H 0.1031(4) 0.3624(5) 0.8725(2)
C19 C 0.0518(4) 0.2394(5) 0.8424(2)
H12 H 0.0210(4) 0.2177(5) 0.8681(2)
C20 C 0.1226(3) 0.2126(4) 0.7184(2)
O13 O 0.2904(2) 0.2003(3) 0.7410(2)
O14 O 0.3307(2) 0.3706(3) 0.68799(12)
O15 O 0.4162(2) 0.4028(3) 0.7454(2)
C21 C 0.3357(3) 0.2724(4) 0.7625(2)
C22 C 0.3459(4) 0.2517(5) 0.8120(2)
H13 H 0.3737(4) 0.2889(5) 0.8352(2)
C23 C 0.3037(4) 0.1588(5) 0.8210(3)
H14 H 0.2993(4) 0.1247(5) 0.8517(3)
C24 C 0.2729(4) 0.1310(5) 0.7779(3)
H15 H 0.2436(4) 0.0730(5) 0.7734(3)
C25 C 0.3632(3) 0.3555(4) 0.7300(2)
O16 O 0.3845(2) 0.1718(2) 0.65324(14)
O17 O 0.2505(2) 0.0830(2) 0.64332(12)
O18 O 0.3017(2) -0.0723(3) 0.6449(2)
C26 C 0.3772(3) 0.0679(4) 0.6589(2)
C27 C 0.4376(3) 0.0279(5) 0.6773(3)
H16 H 0.4457(3) -0.0412(5) 0.6850(3)
C28 C 0.4884(3) 0.1101(5) 0.6831(3)
H17 H 0.5364(3) 0.1054(5) 0.6946(3)
C29 C 0.4534(3) 0.1948(5) 0.6689(2)
H18 H 0.4734(3) 0.2609(5) 0.6695(2)
C30 C 0.3046(3) 0.0233(4) 0.6483(2)
O19 O 0.1256(2) -0.3260(2) 0.59829(13)
O20 O 0.2551(2) -0.4142(2) 0.61458(13)
O21 O 0.2028(2) 0.4320(3) 0.6258(2)
C31 C 0.1274(3) -0.4299(3) 0.6098(2)
C32 C 0.0593(3) -0.4648(4) 0.6160(2)
H19 H 0.0457(3) -0.5320(4) 0.6240(2)
C33 C 0.0113(4) -0.3800(5) 0.6080(2)
H20 H -0.0395(4) -0.3806(5) 0.6098(2)
C34 C 0.0537(3) -0.2992(5) 0.5976(2)
H21 H 0.0363(3) -0.2332(5) 0.5908(2)
C35 C 0.1998(3) -0.4736(4) 0.6168(2)
O22 O 0.2447(2) -0.2554(3) 0.52281(13)
O23 O 0.1796(2) -0.1025(2) 0.57282(11)
O24 O 0.1204(2) -0.0501(3) 0.50323(12)
C36 C 0.2007(3) -0.1875(4) 0.4969(2)
C37 C 0.2012(4) -0.2097(5) 0.4477(2)
H22 H 0.1761(4) -0.1749(5) 0.4222(2)
C38 C 0.2484(4) -0.2981(5) 0.4420(2)
H23 H 0.2596(4) -0.3317(5) 0.4120(2)
C39 C 0.2722(3) -0.3217(4) 0.4873(2)
H24 H 0.3037(3) -0.3763(4) 0.4944(2)
C40 C 0.1638(3) -0.1083(3) 0.5262(2)
O25 O 0.1818(2) 0.3345(3) 0.5309(2)
O26 O 0.1397(2) 0.1707(3) 0.58567(13)
O27 O 0.0366(2) 0.1563(3) 0.5389(2)
C41 C 0.1111(3) 0.3006(4) 0.5277(2)
C42 C 0.0693(4) 0.3689(5) 0.5026(2)
H25 H 0.0194(4) 0.3644(5) 0.4957(2)
C43 C 0.1190(5) 0.4516(5) 0.4888(3)
H26 H 0.1070(5) 0.5112(5) 0.4711(3)
C44 C 0.1837(5) 0.4265(5) 0.5061(3)
H27 H 0.2257(5) 0.4662(5) 0.5019(3)
C45 C 0.0947(3) 0.2012(4) 0.5526(2)
O28 O 0.3064(2) 0.1810(2) 0.54956(12)
O29 O 0.3446(2) 0.3671(2) 0.58184(11)
O30 O 0.3939(2) 0.4065(3) 0.50758(12)
C46 C 0.3436(3) 0.2444(4) 0.5171(2)
C47 C 0.3554(4) 0.1957(5) 0.4734(2)
H28 H 0.3790(4) 0.2223(5) 0.4453(2)
C48 C 0.3247(4) 0.0955(5) 0.4784(2)
H29 H 0.3249(4) 0.0433(5) 0.4544(2)
C49 C 0.2957(4) 0.0908(4) 0.5244(2)
H30 H 0.2714(4) 0.0337(4) 0.5374(2)
C50 C 0.3631(3) 0.3469(4) 0.5370(2)
O31 O -0.1134(3) -0.1475(4) 0.5759(2)
O32 O 0.0126(2) -0.0493(3) 0.58553(12)
O33 O -0.0074(2) -0.0028(3) 0.66237(13)
C51 C -0.1013(3) -0.0894(4) 0.6190(2)
C52 C -0.1577(5) -0.0954(7) 0.6496(3)
H31 H -0.1623(5) -0.0640(7) 0.6809(3)
C53 C -0.2110(4) -0.1606(7) 0.6246(3)
H32 H -0.2567(4) -0.1798(7) 0.6368(3)
C54 C -0.1818(5) -0.1873(8) 0.5813(4)
H33 H -0.2051(5) -0.2284(8) 0.5573(4)
C55 C -0.0276(3) -0.0439(4) 0.6230(2)
O34 O 0.6432(2) 0.5420(4) 0.68233(13)
O35 O 0.5008(2) 0.4983(3) 0.65894(11)
O36 O 0.5330(2) 0.4535(3) 0.58174(12)
C56 C 0.6235(3) 0.5191(4) 0.6340(2)
C57 C 0.6815(3) 0.5311(3) 0.6040(2)
H34 H 0.6824(3) 0.5208(3) 0.5693(2)
C58 C 0.7410(3) 0.5624(3) 0.6348(2)
H35 H 0.7884(3) 0.5770(3) 0.6244(2)
C59 C 0.7151(4) 0.5666(6) 0.6816(3)
H36 H 0.7428(4) 0.5840(6) 0.7099(3)
C60 C 0.5472(3) 0.4890(4) 0.6241(2)
Ca4_2 Ca 0.37295(5) -0.48640(7) 0.63474(3)
O6_2 O 0.3715(2) 0.7299(3) 0.60216(13)
O20_2 O 0.2551(2) 0.5858(2) 0.61458(13)
Ca3_2 Ca 0.24870(5) 0.77175(7) 0.62670(3)
O9A O -0.0912(3) -0.0898(4) 0.7603(2)
O10A O -0.0573(2) 0.1936(3) 0.70373(13)
O11A O -0.0984(2) 0.1239(2) 0.79398(12)
O33A O 0.0074(2) -0.0028(3) 0.83763(13)
Ca1A Ca -0.12664(5) 0.01757(7) 0.86647(3)
O1A O 0.5520(2) 0.7126(3) 0.70958(13)
O2A O 0.6048(2) 0.6181(2) 0.79211(12)
O15A O 0.5838(2) 0.4028(3) 0.7546(2)
O35A O 0.4992(2) 0.4983(3) 0.84106(11)
Ca4A Ca 0.62705(5) 0.51360(7) 0.86526(3)
O24B O -0.1204(2) 0.0501(3) 0.49677(12)
O27B O -0.0366(2) -0.1563(3) 0.4611(2)
O32B O -0.0126(2) 0.0493(3) 0.41447(12)
O4B O 0.4631(3) 0.7216(4) 0.48593(14)
O5B O 0.5741(2) 0.3975(3) 0.43853(13)
O30B O 0.6061(2) 0.5935(3) 0.49242(12)
O36B O 0.4670(2) 0.5465(3) 0.41826(12)
C5_2 C 0.3595(3) -0.3029(3) 0.7220(2)
O3_2 O 0.3022(2) 0.7293(3) 0.70319(12)
C10_2 C 0.4079(3) -0.3038(4) 0.5661(2)
C10B C 0.5921(3) 0.3038(4) 0.4339(2)
C6B C 0.4314(3) 0.7662(4) 0.5265(2)
C35_2 C 0.1998(3) 0.5264(4) 0.6168(2)
O21_2 O 0.2028(2) -0.5680(3) 0.6258(2)
loop_
_geom_bond_atom_site_label_1
_geom_bond_atom_site_label_2
_geom_bond_site_symmetry_1
_geom_bond_site_symmetry_2
Ca1 Ca2 1_555 1_555
Ca2 Ca4 1_555 1_555
Ca3 Ca1 1_555 1_555
Ca4 Ca6 1_555 1_555
Ca5 Ca1 1_555 1_555
Ca6 O1 1_555 1_555
Ca7 O24 1_555 1_555
Ca8 O4 1_555 1_555
O1 C1 1_555 1_555
O2 Ca4 1_555 1_555
O3 Ca3 1_555 1_555
C1 C2 1_555 1_555
C2 H1 1_555 1_555
C3 C2 1_555 1_555
H2 C3 1_555 1_555
C4 O1 1_555 1_555
H3 C4 1_555 1_555
C5 O2 1_555 1_555
O4 C6 1_555 1_555
O5 Ca4 1_555 1_555
O6 Ca3 1_555 1_555
C6 C7 1_555 1_555
C7 H4 1_555 1_555
C8 C7 1_555 1_555
H5 C8 1_555 1_555
C9 O4 1_555 1_555
H6 C9 1_555 1_555
C10 O5 1_555 1_555
O7 C11 1_555 1_555
O8 Ca1 1_555 1_555
O9 Ca5 1_555 1_555
C11 C12 1_555 1_555
C12 H7 1_555 1_555
C13 C12 1_555 1_555
H8 C13 1_555 1_555
C14 O7 1_555 1_555
H9 C14 1_555 1_555
C15 O8 1_555 1_555
O10 Ca5 1_555 1_555
O11 Ca1 1_555 1_555
O12 Ca2 1_555 1_555
C16 O10 1_555 1_555
C17 C16 1_555 1_555
H10 C17 1_555 1_555
C18 C17 1_555 1_555
H11 C18 1_555 1_555
C19 O10 1_555 1_555
H12 C19 1_555 1_555
C20 O11 1_555 1_555
O13 Ca2 1_555 1_555
O14 Ca2 1_555 1_555
O15 Ca6 1_555 1_555
C21 O13 1_555 1_555
C22 C21 1_555 1_555
H13 C22 1_555 1_555
C23 C22 1_555 1_555
H14 C23 1_555 1_555
C24 O13 1_555 1_555
H15 C24 1_555 1_555
C25 O14 1_555 1_555
O16 Ca2 1_555 1_555
O17 Ca1 1_555 1_555
O18 Ca3 1_555 1_555
C26 O16 1_555 1_555
C27 C26 1_555 1_555
H16 C27 1_555 1_555
C28 C27 1_555 1_555
H17 C28 1_555 1_555
C29 O16 1_555 1_555
H18 C29 1_555 1_555
C30 O17 1_555 1_555
O19 Ca3 1_555 1_555
O20 Ca3 1_555 1_555
O21 Ca2 1_555 1_555
C31 O19 1_555 1_555
C32 C31 1_555 1_555
H19 C32 1_555 1_555
C33 C32 1_555 1_555
H20 C33 1_555 1_555
C34 O19 1_555 1_555
H21 C34 1_555 1_555
C35 O20 1_555 1_555
O22 Ca3 1_555 1_555
O23 Ca1 1_555 1_555
O24 C40 1_555 1_555
C36 O22 1_555 1_555
C37 C36 1_555 1_555
H22 C37 1_555 1_555
C38 C37 1_555 1_555
H23 C38 1_555 1_555
C39 O22 1_555 1_555
H24 C39 1_555 1_555
C40 O23 1_555 1_555
O25 Ca2 1_555 1_555
O26 Ca1 1_555 1_555
O27 Ca7 1_555 1_555
C41 O25 1_555 1_555
C42 C41 1_555 1_555
H25 C42 1_555 1_555
C43 C42 1_555 1_555
H26 C43 1_555 1_555
C44 O25 1_555 1_555
H27 C44 1_555 1_555
C45 O26 1_555 1_555
O28 Ca2 1_555 1_555
O29 Ca2 1_555 1_555
O30 Ca8 1_555 1_555
C46 O28 1_555 1_555
C47 C46 1_555 1_555
H28 C47 1_555 1_555
C48 C47 1_555 1_555
H29 C48 1_555 1_555
C49 O28 1_555 1_555
H30 C49 1_555 1_555
C50 O29 1_555 1_555
O31 C51 1_555 1_555
O32 Ca1 1_555 1_555
O33 Ca1 1_555 1_555
C51 C52 1_555 1_555
C52 H31 1_555 1_555
C53 C52 1_555 1_555
H32 C53 1_555 1_555
C54 O31 1_555 1_555
H33 C54 1_555 1_555
C55 O32 1_555 1_555
O34 C56 1_555 1_555
O35 Ca4 1_555 1_555
O36 Ca8 1_555 1_555
C56 C57 1_555 1_555
C57 H34 1_555 1_555
C58 C57 1_555 1_555
H35 C58 1_555 1_555
C59 O34 1_555 1_555
H36 C59 1_555 1_555
C60 O35 1_555 1_555
Ca4_2 Ca3 1_555 1_555
O6_2 Ca4 1_555 1_555
O20_2 Ca4 1_555 1_555
Ca3_2 Ca4 1_555 1_555
O9A Ca5 1_555 1_555
O10A Ca5 1_555 1_555
O11A Ca5 1_555 1_555
O33A Ca5 1_555 1_555
Ca1A Ca5 1_555 1_555
O1A Ca6 1_555 1_555
O2A Ca6 1_555 1_555
O15A Ca6 1_555 1_555
O35A Ca6 1_555 1_555
Ca4A Ca6 1_555 1_555
O24B Ca7 1_555 1_555
O27B Ca7 1_555 1_555
O32B Ca7 1_555 1_555
O4B Ca8 1_555 1_555
O5B Ca8 1_555 1_555
O30B Ca8 1_555 1_555
O36B Ca8 1_555 1_555
C5_2 O3 1_555 1_555
O3_2 C5 1_555 1_555
C10_2 O6 1_555 1_555
C10B C6 1_555 1_555
C6B C10 1_555 1_555
C35_2 O21 1_555 1_555
O21_2 C35 1_555 1_555
Ca2 O17 1_555 1_555
Ca2 O26 1_555 1_555
Ca3 O8 1_555 1_555
Ca3 O23 1_555 1_555
Ca4 O14 1_555 1_555
Ca4 O29 1_555 1_555
Ca5 O11 1_555 1_555
Ca5 O33 1_555 1_555
Ca6 O2 1_555 1_555
Ca6 O35 1_555 1_555
Ca7 O32 1_555 1_555
Ca8 O5 1_555 1_555
C1 C5 1_555 1_555
C3 C4 1_555 1_555
O6 Ca4_2 1_555 1_555
C8 C9 1_555 1_555
C10 O6_2 1_555 1_555
O9 C15 1_555 1_555
C11 C15 1_555 1_555
C13 C14 1_555 1_555
O12 C20 1_555 1_555
C16 C20 1_555 1_555
C18 C19 1_555 1_555
O15 C25 1_555 1_555
C21 C25 1_555 1_555
C23 C24 1_555 1_555
O18 C30 1_555 1_555
C26 C30 1_555 1_555
C28 C29 1_555 1_555
O20 Ca4_2 1_555 1_555
C31 C35 1_555 1_555
C33 C34 1_555 1_555
C36 C40 1_555 1_555
C38 C39 1_555 1_555
O27 C45 1_555 1_555
C41 C45 1_555 1_555
C43 C44 1_555 1_555
O30 C50 1_555 1_555
C46 C50 1_555 1_555
C48 C49 1_555 1_555
O33 C55 1_555 1_555
C51 C55 1_555 1_555
C53 C54 1_555 1_555
O36 C60 1_555 1_555
C56 C60 1_555 1_555
C58 C59 1_555 1_555
O6_2 Ca3_2 1_555 1_555
O20_2 Ca3_2 1_555 1_555
O20_2 C35_2 1_555 1_555
Ca3_2 O3_2 1_555 1_555
O11A Ca1A 1_555 1_555
O33A Ca1A 1_555 1_555
O2A Ca4A 1_555 1_555
O35A Ca4A 1_555 1_555
O4B C6B 1_555 1_555
O5B C10B 1_555 1_555

#END
