
#######################################################################
#
#                 Cambridge Crystallographic Data Centre
#                                CCDC 
#
#######################################################################
#
# If this CIF has been generated from an entry in the Cambridge 
# Structural Database, then it will include bibliographic, chemical, 
# crystal, experimental, refinement or atomic coordinate data resulting 
# from the CCDC's data processing and validation procedures.
#
#######################################################################

data_HIFZIG
_symmetry_cell_setting           monoclinic
_symmetry_space_group_name_H-M   'P 21/c'
_symmetry_Int_Tables_number      14
_space_group_name_Hall           '-P 2ybc'
loop_
_symmetry_equiv_pos_site_id
_symmetry_equiv_pos_as_xyz
1 x,y,z
2 -x,1/2+y,1/2-z
3 -x,-y,-z
4 x,1/2-y,1/2+z
_cell_length_a                   6.617(2)
_cell_length_b                   13.132(4)
_cell_length_c                   6.642(2)
_cell_angle_alpha                90
_cell_angle_beta                 114.23(2)
_cell_angle_gamma                90
_cell_volume                     526.309
loop_
_atom_site_label
_atom_site_type_symbol
_atom_site_fract_x
_atom_site_fract_y
_atom_site_fract_z
Cu1 Cu 0.04439(8) 0.72742(4) 0.23373(8)
Cl1 Cl 0.25679(17) 0.67673(8) 0.05449(16)
N1 N -0.1202(5) 0.6320(2) 0.3481(5)
N2 N -0.1694(5) 0.6665(2) 0.5157(5)
C1 C -0.3159(6) 0.6164(3) 0.5664(7)
H1 H -0.3557 0.6450 0.6783
C2 C -0.4171(5) 0.5248(3) 0.4683(6)
C3 C -0.3509(6) 0.4866(3) 0.3127(6)
H2 H -0.4046 0.4219 0.2443
C4 C -0.2051(6) 0.5432(3) 0.2558(6)
H3 H -0.1631 0.5169 0.1437
Cu1C Cu 0.04439(8) 0.77258(4) 0.73373(8)
Cu1C_2 Cu 0.04439(8) 0.77258(4) -0.26627(8)
Cu1A Cu -1.04439(8) 0.22742(4) 0.26627(8)
Cu1B Cu -1.04439(8) 0.27258(4) 0.76627(8)
Cl1C Cl 0.25679(17) 0.82327(8) 0.55449(16)
Cl1_2 Cl 0.25679(17) 0.67673(8) 1.05449(16)
N1B N -0.8798(5) 0.3680(2) 0.6519(5)
N1C N -0.1202(5) 0.8680(2) 0.8481(5)
N2B N -0.8306(5) 0.3335(2) 0.4843(5)
N2C N -0.1694(5) 0.8335(2) 0.0157(5)
C1B C -0.6841(6) 0.3836(3) 0.4336(7)
H1B H -0.6443 0.3550 0.3217
C2B C -0.5829(5) 0.4752(3) 0.5317(6)
C3B C -0.6491(6) 0.5134(3) 0.6873(6)
H2B H -0.5954 0.5781 0.7557
C4B C -0.7949(6) 0.4568(3) 0.7442(6)
H3B H -0.8369 0.4831 0.8563
loop_
_geom_bond_atom_site_label_1
_geom_bond_atom_site_label_2
_geom_bond_site_symmetry_1
_geom_bond_site_symmetry_2
Cu1 Cl1 1_555 1_555
Cl1 Cu1C_2 1_555 1_555
N1 Cu1 1_555 1_555
N2 N1 1_555 1_555
C1 N2 1_555 1_555
H1 C1 1_555 1_555
C2 C1 1_555 1_555
C3 C2 1_555 1_555
H2 C3 1_555 1_555
C4 N1 1_555 1_555
H3 C4 1_555 1_555
Cu1C N2 1_555 1_555
Cu1A N2B 1_555 1_555
Cu1B N1B 1_555 1_555
Cl1C Cu1 1_555 1_555
Cl1_2 Cu1C 1_555 1_555
N1B N2B 1_555 1_555
N1C Cu1C 1_555 1_555
N2B C1B 1_555 1_555
N2C Cu1 1_555 1_555
C1B H1B 1_555 1_555
C2B C2 1_555 1_555
C3B C2B 1_555 1_555
H2B C3B 1_555 1_555
C4B N1B 1_555 1_555
H3B C4B 1_555 1_555
C3 C4 1_555 1_555
Cu1C Cl1C 1_555 1_555
C1B C2B 1_555 1_555
C3B C4B 1_555 1_555

#END
