
#######################################################################
#
#                 Cambridge Crystallographic Data Centre
#                                CCDC 
#
#######################################################################
#
# If this CIF has been generated from an entry in the Cambridge 
# Structural Database, then it will include bibliographic, chemical, 
# crystal, experimental, refinement or atomic coordinate data resulting 
# from the CCDC's data processing and validation procedures.
#
#######################################################################

data_HIGQUL
_symmetry_cell_setting           monoclinic
_symmetry_space_group_name_H-M   'P 21/n'
_symmetry_Int_Tables_number      14
_space_group_name_Hall           '-P 2yn'
loop_
_symmetry_equiv_pos_site_id
_symmetry_equiv_pos_as_xyz
1 x,y,z
2 1/2-x,1/2+y,1/2-z
3 -x,-y,-z
4 1/2+x,1/2-y,1/2+z
_cell_length_a                   14.8401(2)
_cell_length_b                   3.8870(2)
_cell_length_c                   20.9156(2)
_cell_angle_alpha                90
_cell_angle_beta                 90.5320(10)
_cell_angle_gamma                90
_cell_volume                     1206.43
loop_
_atom_site_label
_atom_site_type_symbol
_atom_site_fract_x
_atom_site_fract_y
_atom_site_fract_z
Hg1 Hg 0.0000 0.0000 0.0000
Br1 Br 0.538860(14) 0.25838(6) 0.258192(9)
Cl1 Cl -0.08584(3) 0.39261(14) 0.06175(2)
N1 N 0.44423(12) -0.0112(5) 0.13752(8)
H1 H 0.4259 0.1081 0.1695
C1 C 0.28595(13) 0.0003(5) 0.11366(9)
C2 C 0.37909(12) -0.1274(6) 0.09696(9)
N2 N 0.27376(11) 0.1591(5) 0.16983(8)
C3 C 0.53769(13) -0.0611(5) 0.13390(9)
C4 C 0.59215(13) 0.0547(5) 0.18499(9)
C5 C 0.57963(13) -0.2150(5) 0.08202(9)
H2 H 0.5452 -0.2946 0.0477
C6 C 0.21550(13) -0.0564(5) 0.07066(10)
H3 H 0.2267 -0.1685 0.0323
C7 C 0.11902(13) 0.2029(6) 0.13996(9)
H4 H 0.0615 0.2767 0.1507
C8 C 0.68520(14) 0.0213(5) 0.18409(11)
H5 H 0.7201 0.1010 0.2182
C9 C 0.67287(13) -0.2500(6) 0.08141(10)
H6 H 0.7002 -0.3544 0.0466
C10 C 0.72579(13) -0.1321(6) 0.13179(11)
H7 H 0.7881 -0.1557 0.1306
N3 N 0.13158(12) 0.0485(4) 0.08386(9)
C11 C 0.18941(14) 0.2563(6) 0.18276(9)
H8 H 0.1777 0.3629 0.2216
O1 O 0.38942(10) -0.3189(5) 0.05166(8)
Br1B Br -0.538860(14) -0.25838(6) -0.258192(9)
Cl1B Cl 0.08584(3) -0.39261(14) -0.06175(2)
N1B N -0.44423(12) 0.0112(5) -0.13752(8)
H1B H -0.4259 -0.1081 -0.1695
C1B C -0.28595(13) -0.0003(5) -0.11366(9)
C2B C -0.37909(12) 0.1274(6) -0.09696(9)
N2B N -0.27376(11) -0.1591(5) -0.16983(8)
C3B C -0.53769(13) 0.0611(5) -0.13390(9)
C4B C -0.59215(13) -0.0547(5) -0.18499(9)
C5B C -0.57963(13) 0.2150(5) -0.08202(9)
H2B H -0.5452 0.2946 -0.0477
C6B C -0.21550(13) 0.0564(5) -0.07066(10)
H3B H -0.2267 0.1685 -0.0323
C7B C -0.11902(13) -0.2029(6) -0.13996(9)
H4B H -0.0615 -0.2767 -0.1507
C8B C -0.68520(14) -0.0213(5) -0.18409(11)
H5B H -0.7201 -0.1010 -0.2182
C9B C -0.67287(13) 0.2500(6) -0.08141(10)
H6B H -0.7002 0.3544 -0.0466
C10B C -0.72579(13) 0.1321(6) -0.13179(11)
H7B H -0.7881 0.1557 -0.1306
N3B N -0.13158(12) -0.0485(4) -0.08386(9)
C11B C -0.18941(14) -0.2563(6) -0.18276(9)
H8B H -0.1777 -0.3629 -0.2216
O1B O -0.38942(10) 0.3189(5) -0.05166(8)
Hg1_2 Hg 0.0000 -1.0000 0.0000
Hg1_3 Hg 0.0000 1.0000 0.0000
Cl1_2 Cl -0.08584(3) -0.60739(14) 0.06175(2)
Cl1B_2 Cl 0.08584(3) 0.60739(14) -0.06175(2)
loop_
_geom_bond_atom_site_label_1
_geom_bond_atom_site_label_2
_geom_bond_site_symmetry_1
_geom_bond_site_symmetry_2
Hg1 Cl1 1_555 1_555
Br1 C4 1_555 1_555
Cl1 Hg1_3 1_555 1_555
N1 H1 1_555 1_555
C1 C2 1_555 1_555
C2 N1 1_555 1_555
N2 C1 1_555 1_555
C3 N1 1_555 1_555
C4 C3 1_555 1_555
C5 C3 1_555 1_555
H2 C5 1_555 1_555
C6 C1 1_555 1_555
H3 C6 1_555 1_555
C7 H4 1_555 1_555
C8 C4 1_555 1_555
H5 C8 1_555 1_555
C9 C5 1_555 1_555
H6 C9 1_555 1_555
C10 C8 1_555 1_555
H7 C10 1_555 1_555
N3 Hg1 1_555 1_555
C11 N2 1_555 1_555
H8 C11 1_555 1_555
O1 C2 1_555 1_555
Br1B C4B 1_555 1_555
Cl1B Hg1 1_555 1_555
N1B H1B 1_555 1_555
C1B C2B 1_555 1_555
C2B N1B 1_555 1_555
N2B C1B 1_555 1_555
C3B N1B 1_555 1_555
C4B C3B 1_555 1_555
C5B C3B 1_555 1_555
H2B C5B 1_555 1_555
C6B C1B 1_555 1_555
H3B C6B 1_555 1_555
C7B H4B 1_555 1_555
C8B C4B 1_555 1_555
H5B C8B 1_555 1_555
C9B C5B 1_555 1_555
H6B C9B 1_555 1_555
C10B C8B 1_555 1_555
H7B C10B 1_555 1_555
N3B Hg1 1_555 1_555
C11B N2B 1_555 1_555
H8B C11B 1_555 1_555
O1B C2B 1_555 1_555
Hg1_2 Cl1B 1_555 1_555
Hg1_3 Cl1B_2 1_555 1_555
Cl1_2 Hg1 1_555 1_555
Cl1B_2 Hg1 1_555 1_555
C6 N3 1_555 1_555
C7 N3 1_555 1_555
C7 C11 1_555 1_555
C9 C10 1_555 1_555
C6B N3B 1_555 1_555
C7B N3B 1_555 1_555
C7B C11B 1_555 1_555
C9B C10B 1_555 1_555
Hg1_2 Cl1_2 1_555 1_555

#END
