
#######################################################################
#
#                 Cambridge Crystallographic Data Centre
#                                CCDC 
#
#######################################################################
#
# If this CIF has been generated from an entry in the Cambridge 
# Structural Database, then it will include bibliographic, chemical, 
# crystal, experimental, refinement or atomic coordinate data resulting 
# from the CCDC's data processing and validation procedures.
#
#######################################################################

data_HIGRAS
_symmetry_cell_setting           monoclinic
_symmetry_space_group_name_H-M   'P 21/n'
_symmetry_Int_Tables_number      14
_space_group_name_Hall           '-P 2yn'
loop_
_symmetry_equiv_pos_site_id
_symmetry_equiv_pos_as_xyz
1 x,y,z
2 1/2-x,1/2+y,1/2-z
3 -x,-y,-z
4 1/2+x,1/2-y,1/2+z
_cell_length_a                   13.5526(8)
_cell_length_b                   4.4302(3)
_cell_length_c                   22.2992(14)
_cell_angle_alpha                90
_cell_angle_beta                 90.631(5)
_cell_angle_gamma                90
_cell_volume                     1338.78
loop_
_atom_site_label
_atom_site_type_symbol
_atom_site_fract_x
_atom_site_fract_y
_atom_site_fract_z
C1 C -0.1588(5) 0.343(2) 0.2966(3)
H1 H -0.2202 0.4004 0.2814
C2 C -0.1272(5) 0.4607(19) 0.3511(3)
H2 H -0.1684 0.5917 0.3716
C3 C 0.0157(5) 0.208(2) 0.3420(3)
H3 H 0.0784 0.1594 0.3563
C4 C -0.0159(4) 0.0895(16) 0.2883(2)
C5 C 0.0507(4) -0.1303(17) 0.2560(3)
C6 C 0.0528(4) -0.4312(16) 0.1624(2)
C7 C -0.0042(4) -0.5262(17) 0.1134(3)
C8 C 0.0317(5) -0.715(2) 0.0707(3)
H4 H -0.0072 -0.7665 0.0376
C9 C 0.1265(5) -0.829(2) 0.0768(3)
H5 H 0.1515 -0.9611 0.0484
C10 C 0.1828(5) -0.743(2) 0.1254(3)
H6 H 0.2465 -0.8187 0.1296
C11 C 0.1475(4) -0.5507(17) 0.1675(3)
H7 H 0.1872 -0.4981 0.2001
N1 N -0.1044(4) 0.1531(15) 0.2654(2)
N2 N -0.0410(4) 0.3928(18) 0.3745(2)
N3 N 0.0119(3) -0.2275(15) 0.2034(2)
H8 H -0.0450 -0.1554 0.1937
O1 O 0.1273(4) -0.2083(18) 0.2784(2)
Br1 Br -0.13568(5) -0.3790(3) 0.10377(4)
Hg1 Hg 0.0000 0.5000 0.5000
I1 I 0.15355(3) 0.14649(11) 0.493851(19)
I1B I -0.15355(3) -0.14649(11) 0.506149(19)
C1B C 0.1588(5) 0.657(2) 0.7034(3)
H1B H 0.2202 0.5996 0.7186
C2B C 0.1272(5) 0.5393(19) 0.6489(3)
H2B H 0.1684 0.4083 0.6284
C3B C -0.0157(5) 0.792(2) 0.6580(3)
H3B H -0.0784 0.8406 0.6437
C4B C 0.0159(4) 0.9105(16) 0.7117(2)
C5B C -0.0507(4) 1.1303(17) 0.7440(3)
C6B C -0.0528(4) 1.4312(16) 0.8376(2)
C7B C 0.0042(4) 1.5262(17) 0.8866(3)
C8B C -0.0317(5) 1.715(2) 0.9293(3)
H4B H 0.0072 1.7665 0.9624
C9B C -0.1265(5) 1.829(2) 0.9232(3)
H5B H -0.1515 1.9611 0.9516
C10B C -0.1828(5) 1.743(2) 0.8746(3)
H6B H -0.2465 1.8187 0.8704
C11B C -0.1475(4) 1.5507(17) 0.8325(3)
H7B H -0.1872 1.4981 0.7999
N1B N 0.1044(4) 0.8469(15) 0.7346(2)
N2B N 0.0410(4) 0.6072(18) 0.6255(2)
N3B N -0.0119(3) 1.2275(15) 0.7966(2)
H8B H 0.0450 1.1554 0.8063
O1B O -0.1273(4) 1.2083(18) 0.7216(2)
Br1B Br 0.13568(5) 1.3790(3) 0.89623(4)
Hg1_2 Hg 0.0000 -0.5000 0.5000
I1_2 I 0.15355(3) 1.14649(11) 0.493851(19)
I1B_2 I -0.15355(3) 0.85351(11) 0.506149(19)
loop_
_geom_bond_atom_site_label_1
_geom_bond_atom_site_label_2
_geom_bond_site_symmetry_1
_geom_bond_site_symmetry_2
C1 H1 1_555 1_555
C2 C1 1_555 1_555
H2 C2 1_555 1_555
C3 H3 1_555 1_555
C4 C3 1_555 1_555
C5 C4 1_555 1_555
C6 C7 1_555 1_555
C7 C8 1_555 1_555
C8 H4 1_555 1_555
C9 C8 1_555 1_555
H5 C9 1_555 1_555
C10 C9 1_555 1_555
H6 C10 1_555 1_555
C11 C6 1_555 1_555
H7 C11 1_555 1_555
N1 C1 1_555 1_555
N2 C2 1_555 1_555
N3 C5 1_555 1_555
H8 N3 1_555 1_555
O1 C5 1_555 1_555
Br1 C7 1_555 1_555
Hg1 N2 1_555 1_555
I1 Hg1 1_555 1_555
I1B Hg1 1_555 1_555
C1B H1B 1_555 1_555
C2B C1B 1_555 1_555
H2B C2B 1_555 1_555
C3B H3B 1_555 1_555
C4B C3B 1_555 1_555
C5B C4B 1_555 1_555
C6B C7B 1_555 1_555
C7B C8B 1_555 1_555
C8B H4B 1_555 1_555
C9B C8B 1_555 1_555
H5B C9B 1_555 1_555
C10B C9B 1_555 1_555
H6B C10B 1_555 1_555
C11B C6B 1_555 1_555
H7B C11B 1_555 1_555
N1B C1B 1_555 1_555
N2B Hg1 1_555 1_555
N3B C5B 1_555 1_555
H8B N3B 1_555 1_555
O1B C5B 1_555 1_555
Br1B C7B 1_555 1_555
Hg1_2 I1 1_555 1_555
I1_2 Hg1 1_555 1_555
I1B_2 Hg1 1_555 1_555
C3 N2 1_555 1_555
C4 N1 1_555 1_555
C6 N3 1_555 1_555
C10 C11 1_555 1_555
I1B Hg1_2 1_555 1_555
C2B N2B 1_555 1_555
C3B N2B 1_555 1_555
C4B N1B 1_555 1_555
C6B N3B 1_555 1_555
C10B C11B 1_555 1_555

#END
