
#######################################################################
#
#                 Cambridge Crystallographic Data Centre
#                                CCDC 
#
#######################################################################
#
# If this CIF has been generated from an entry in the Cambridge 
# Structural Database, then it will include bibliographic, chemical, 
# crystal, experimental, refinement or atomic coordinate data resulting 
# from the CCDC's data processing and validation procedures.
#
#######################################################################

data_HIGWOJ
_symmetry_cell_setting           triclinic
_symmetry_space_group_name_H-M   'P -1'
_symmetry_Int_Tables_number      2
_space_group_name_Hall           '-P 1'
loop_
_symmetry_equiv_pos_site_id
_symmetry_equiv_pos_as_xyz
1 x,y,z
2 -x,-y,-z
_cell_length_a                   9.761(2)
_cell_length_b                   12.422(2)
_cell_length_c                   12.486(2)
_cell_angle_alpha                108.27(1)
_cell_angle_beta                 101.26(2)
_cell_angle_gamma                100.02(2)
_cell_volume                     1364.24
loop_
_atom_site_label
_atom_site_type_symbol
_atom_site_fract_x
_atom_site_fract_y
_atom_site_fract_z
Sn1 Sn 1.28582(2) 0.23808(2) 0.24316(2)
S1 S 0.98394(10) 0.52150(9) 0.17418(11)
S2 S 0.7536(2) 0.59011(13) 0.2885(2)
O1 O 1.1347(2) 0.3446(2) 0.2024(2)
O2 O 0.9980(3) 0.2695(2) 0.2949(2)
N1 N 0.8842(3) 0.7029(3) 0.1762(3)
C1 C 1.3384(6) 0.3335(5) 0.4231(4)
C2 C 1.1313(5) 0.0765(4) 0.1495(5)
C3 C 1.4149(5) 0.2890(5) 0.1411(5)
C4 C 1.0242(3) 0.3344(3) 0.2406(3)
C5 C 0.9153(5) 0.4014(5) 0.2154(6)
C6 C 0.8695(3) 0.6129(3) 0.2130(3)
C7 C 0.9847(7) 0.7236(6) 0.1087(8)
C8 C 0.8020(8) 0.7897(5) 0.2064(7)
Sn2 Sn 0.79145(2) 0.16842(2) 0.33868(2)
S3 S 1.38309(10) -0.15048(7) 0.35545(7)
S4 S 1.36605(11) -0.16700(8) 0.10749(8)
O3 O 1.6138(2) 0.0559(2) 0.3695(2)
O4 O 1.4638(2) 0.1423(2) 0.2928(2)
N2 N 1.3823(3) -0.3391(2) 0.1895(2)
C9 C 0.7676(5) 0.3321(4) 0.4388(4)
C10 C 0.7141(5) 0.0847(4) 0.1559(3)
C11 C 0.9448(5) 0.1096(5) 0.4349(5)
C12 C 1.4887(3) 0.0665(3) 0.3350(3)
C13 C 1.3636(4) -0.0110(3) 0.3521(3)
C14 C 1.3783(3) -0.2280(3) 0.2087(3)
C15 C 1.3876(5) -0.3905(4) 0.2796(4)
C16 C 1.3799(7) -0.4166(4) 0.0746(4)
H1 H 1.3018(62) 0.3939(53) 0.4347(48)
H2 H 1.4238(68) 0.3488(53) 0.4541(51)
H3 H 1.3108(63) 0.2799(53) 0.4564(50)
H4 H 1.0820(59) 0.0574(47) 0.2173(49)
H5 H 1.0731(65) 0.0847(52) 0.1112(52)
H6 H 1.1856(60) 0.0239(51) 0.1086(49)
H7 H 1.4417(61) 0.2272(50) 0.1009(49)
H8 H 1.3587(61) 0.3204(50) 0.0986(47)
H9 H 1.5096(69) 0.3308(53) 0.1752(51)
H10 H 0.8962(66) 0.4310(51) 0.2859(51)
H11 H 0.8445(64) 0.3474(52) 0.1532(50)
H12 H 1.0663(67) 0.7519(53) 0.1596(52)
H13 H 0.9843(59) 0.7769(51) 0.0739(48)
H14 H 1.0053(66) 0.6655(54) 0.0695(52)
H15 H 0.7056(64) 0.7430(52) 0.1692(50)
H16 H 0.7876(65) 0.8008(53) 0.2763(55)
H17 H 0.8083(68) 0.8271(56) 0.1750(54)
H18 H 0.7091(61) 0.3209(46) 0.4869(49)
H19 H 0.7231(59) 0.3698(50) 0.3885(49)
H20 H 0.8654(64) 0.3852(53) 0.4779(49)
H21 H 0.6558(68) 0.0299(55) 0.1397(52)
H22 H 0.7715(65) 0.0611(51) 0.1251(50)
H23 H 0.6492(63) 0.1199(52) 0.1243(48)
H24 H 0.9034(60) 0.0491(51) 0.4456(49)
H25 H 0.9547(68) 0.1456(55) 0.5006(53)
H26 H 1.0341(65) 0.0925(49) 0.4187(48)
H27 H 1.3430(58) 0.0313(48) 0.4287(49)
H28 H 1.2757(59) -0.0176(47) 0.2869(48)
H29 H 1.4681(62) -0.3420(49) 0.3444(50)
H30 H 1.3939(62) -0.4555(52) 0.2489(49)
H31 H 1.3008(61) -0.3663(50) 0.3213(49)
H32 H 1.2926(65) -0.4397(51) 0.0309(52)
H33 H 1.4338(63) -0.4633(53) 0.0866(49)
H34 H 1.3957(61) -0.3706(52) 0.0272(51)
O3_2 O 0.6138(2) 0.0559(2) 0.3695(2)
Sn2_2 Sn 1.79145(2) 0.16842(2) 0.33868(2)
loop_
_geom_bond_atom_site_label_1
_geom_bond_atom_site_label_2
_geom_bond_site_symmetry_1
_geom_bond_site_symmetry_2
Sn1 O1 1_555 1_555
S1 C5 1_555 1_555
S2 C6 1_555 1_555
O1 C4 1_555 1_555
O2 C4 1_555 1_555
N1 C6 1_555 1_555
C1 Sn1 1_555 1_555
C2 Sn1 1_555 1_555
C3 Sn1 1_555 1_555
C4 C5 1_555 1_555
C5 H10 1_555 1_555
C6 S1 1_555 1_555
C7 N1 1_555 1_555
C8 N1 1_555 1_555
Sn2 O2 1_555 1_555
S3 C13 1_555 1_555
S4 C14 1_555 1_555
O3 C12 1_555 1_555
O4 Sn1 1_555 1_555
N2 C14 1_555 1_555
C9 Sn2 1_555 1_555
C10 Sn2 1_555 1_555
C11 Sn2 1_555 1_555
C12 O4 1_555 1_555
C13 C12 1_555 1_555
C14 S3 1_555 1_555
C15 N2 1_555 1_555
C16 N2 1_555 1_555
H1 C1 1_555 1_555
H2 C1 1_555 1_555
H3 C1 1_555 1_555
H4 C2 1_555 1_555
H5 C2 1_555 1_555
H6 C2 1_555 1_555
H7 C3 1_555 1_555
H8 C3 1_555 1_555
H9 C3 1_555 1_555
H11 C5 1_555 1_555
H12 C7 1_555 1_555
H13 C7 1_555 1_555
H14 C7 1_555 1_555
H15 C8 1_555 1_555
H16 C8 1_555 1_555
H17 C8 1_555 1_555
H18 C9 1_555 1_555
H19 C9 1_555 1_555
H20 C9 1_555 1_555
H21 C10 1_555 1_555
H22 C10 1_555 1_555
H23 C10 1_555 1_555
H24 C11 1_555 1_555
H25 C11 1_555 1_555
H26 C11 1_555 1_555
H27 C13 1_555 1_555
H28 C13 1_555 1_555
H29 C15 1_555 1_555
H30 C15 1_555 1_555
H31 C15 1_555 1_555
H32 C16 1_555 1_555
H33 C16 1_555 1_555
H34 C16 1_555 1_555
O3_2 Sn2 1_555 1_555
Sn2_2 O3 1_555 1_555

#END
