
#######################################################################
#
#                 Cambridge Crystallographic Data Centre
#                                CCDC 
#
#######################################################################
#
# If this CIF has been generated from an entry in the Cambridge 
# Structural Database, then it will include bibliographic, chemical, 
# crystal, experimental, refinement or atomic coordinate data resulting 
# from the CCDC's data processing and validation procedures.
#
#######################################################################

data_HIGWUR
_symmetry_cell_setting           triclinic
_symmetry_space_group_name_H-M   'P -1'
_symmetry_Int_Tables_number      2
_space_group_name_Hall           '-P 1'
loop_
_symmetry_equiv_pos_site_id
_symmetry_equiv_pos_as_xyz
1 x,y,z
2 -x,-y,-z
_cell_length_a                   10.1324(8)
_cell_length_b                   10.1905(9)
_cell_length_c                   15.5442(10)
_cell_angle_alpha                96.333(2)
_cell_angle_beta                 97.155(3)
_cell_angle_gamma                114.009(3)
_cell_volume                     1431.59
loop_
_atom_site_label
_atom_site_type_symbol
_atom_site_fract_x
_atom_site_fract_y
_atom_site_fract_z
Er1 Er 0.44456(3) 0.63143(3) 0.588597(17)
C1 C 0.5345(8) 0.9202(8) 0.6644(5)
C2 C 0.5778(8) 1.4201(8) 0.6392(5)
C3 C 0.5798(8) 1.0738(8) 0.7061(5)
C4 C 0.5650(9) 1.1732(8) 0.6553(5)
H1 H 0.5244 1.1422 0.5955
C5 C 0.6106(9) 1.3189(8) 0.6933(5)
C6 C 0.6770(8) 1.3681(8) 0.7821(5)
C7 C 0.6914(8) 1.2681(8) 0.8325(5)
H2 H 0.7346 1.2997 0.8918
C8 C 0.6420(8) 1.1212(8) 0.7956(5)
C9 C 0.7377(10) 1.5261(8) 0.8271(5)
C10 C 0.8475(9) 1.6403(9) 0.7871(6)
C11 C 0.8779(10) 1.7857(9) 0.8139(7)
H3 H 0.8324 1.8117 0.8568
C12 C 0.9777(12) 1.8934(10) 0.7756(8)
H4 H 0.9958 1.9906 0.7922
C13 C 1.0481(13) 1.8575(12) 0.7147(8)
H5 H 1.1150 1.9304 0.6907
C14 C 1.0212(12) 1.7148(12) 0.6884(7)
H6 H 1.0703 1.6911 0.6469
C15 C 0.9204(9) 1.6047(10) 0.7237(6)
H7 H 0.9015 1.5078 0.7053
C16 C 0.6616(10) 1.0246(9) 0.8600(6)
C17 C 0.5283(11) 0.9146(9) 0.8843(6)
C18 C 0.5405(13) 0.8018(11) 0.9227(7)
H8 H 0.6300 0.7954 0.9316
C19 C 0.4193(15) 0.6993(14) 0.9474(8)
H9 H 0.4281 0.6249 0.9737
C20 C 0.2833(14) 0.7064(13) 0.9332(7)
H10 H 0.2009 0.6356 0.9480
C21 C 0.2742(12) 0.8203(13) 0.8970(7)
H11 H 0.1856 0.8288 0.8896
C22 C 0.3964(10) 0.9236(11) 0.8711(7)
H12 H 0.3880 0.9984 0.8450
C23 C 0.7494(8) 0.7244(8) 0.5029(5)
C24 C 0.8815(8) 0.8671(8) 0.5007(5)
C25 C 0.9040(9) 0.9925(8) 0.5572(5)
H13 H 0.8398 0.9876 0.5959
C26 C 0.9786(7) 0.8740(7) 0.4430(5)
C27 C 0.9697(8) 0.7504(8) 0.3774(5)
C28 C 0.8939(9) 0.7311(8) 0.2847(5)
C29 C 0.9567(11) 0.6977(10) 0.2167(6)
H14 H 1.0420 0.6842 0.2294
C30 C 0.8950(12) 0.6843(12) 0.1308(6)
H15 H 0.9400 0.6649 0.0856
C31 C 0.7656(12) 0.6998(11) 0.1113(6)
H16 H 0.7217 0.6877 0.0530
C32 C 0.7021(11) 0.7334(11) 0.1790(7)
H17 H 0.6154 0.7444 0.1665
C33 C 0.7676(9) 0.7506(9) 0.2656(6)
H18 H 0.7261 0.7756 0.3111
O1 O 0.5736(7) 0.8387(6) 0.7067(3)
O2 O 0.4579(8) 0.8711(6) 0.5876(4)
O3 O 0.5765(8) 1.4002(6) 0.5583(3)
O4 O 0.5471(6) 1.5159(6) 0.6779(4)
O5 O 0.7068(9) 1.5535(7) 0.8965(4)
O6 O 0.7856(8) 1.0460(8) 0.8918(5)
O7 O 0.6793(7) 0.7283(6) 0.5610(4)
O8 O 0.7293(6) 0.6159(5) 0.4466(4)
O9 O 1.0379(8) 0.6794(7) 0.3961(4)
O10 O 0.1972(7) 0.6102(8) 0.5355(5)
H19 H 0.1185 0.5408 0.5421
H20 H 0.1724 0.6667 0.5080
O11 O 0.3156(7) 0.6015(7) 0.7117(4)
H21 H 0.3316 0.6681 0.7550
H22 H 0.2250 0.5430 0.7032
C23A C 1.2506(8) 1.2756(8) 0.4971(5)
C24A C 1.1185(8) 1.1329(8) 0.4993(5)
C25A C 1.0960(9) 1.0075(8) 0.4428(5)
H13A H 1.1602 1.0124 0.4041
C26A C 1.0214(7) 1.1260(7) 0.5570(5)
C27A C 1.0303(8) 1.2496(8) 0.6226(5)
C28A C 1.1061(9) 1.2689(8) 0.7153(5)
C29A C 1.0433(11) 1.3023(10) 0.7833(6)
H14A H 0.9580 1.3158 0.7706
C30A C 1.1050(12) 1.3157(12) 0.8692(6)
H15A H 1.0600 1.3351 0.9144
C31A C 1.2344(12) 1.3002(11) 0.8887(6)
H16A H 1.2783 1.3123 0.9470
C32A C 1.2979(11) 1.2666(11) 0.8210(7)
H17A H 1.3846 1.2556 0.8335
C33A C 1.2324(9) 1.2494(9) 0.7344(6)
H18A H 1.2739 1.2244 0.6889
O7A O 1.3207(7) 1.2717(6) 0.4390(4)
O8A O 1.2707(6) 1.3841(5) 0.5534(4)
O9A O 0.9621(8) 1.3206(7) 0.6039(4)
Er1A Er 0.55544(3) 0.36857(3) 0.411403(17)
C1A C 0.4655(8) 0.0798(8) 0.3356(5)
C2A C 0.4222(8) -0.4201(8) 0.3608(5)
C3A C 0.4202(8) -0.0738(8) 0.2939(5)
C4A C 0.4350(9) -0.1732(8) 0.3447(5)
H1A H 0.4756 -0.1422 0.4045
C5A C 0.3894(9) -0.3189(8) 0.3067(5)
C6A C 0.3230(8) -0.3681(8) 0.2179(5)
C7A C 0.3086(8) -0.2681(8) 0.1675(5)
H2A H 0.2654 -0.2997 0.1082
C8A C 0.3580(8) -0.1212(8) 0.2044(5)
C9A C 0.2623(10) -0.5261(8) 0.1729(5)
C10A C 0.1525(9) -0.6403(9) 0.2129(6)
C11A C 0.1221(10) -0.7857(9) 0.1861(7)
H3A H 0.1676 -0.8117 0.1432
C12A C 0.0223(12) -0.8934(10) 0.2244(8)
H4A H 0.0042 -0.9906 0.2078
C13A C -0.0481(13) -0.8575(12) 0.2853(8)
H5A H -0.1150 -0.9304 0.3093
C14A C -0.0212(12) -0.7148(12) 0.3116(7)
H6A H -0.0703 -0.6911 0.3531
C15A C 0.0796(9) -0.6047(10) 0.2763(6)
H7A H 0.0985 -0.5078 0.2947
C16A C 0.3384(10) -0.0246(9) 0.1400(6)
C17A C 0.4717(11) 0.0854(9) 0.1157(6)
C18A C 0.4595(13) 0.1982(11) 0.0773(7)
H8A H 0.3700 0.2046 0.0684
C19A C 0.5807(15) 0.3007(14) 0.0526(8)
H9A H 0.5719 0.3751 0.0263
C20A C 0.7167(14) 0.2936(13) 0.0668(7)
H10A H 0.7991 0.3644 0.0520
C21A C 0.7258(12) 0.1797(13) 0.1030(7)
H11A H 0.8144 0.1712 0.1104
C22A C 0.6036(10) 0.0764(11) 0.1289(7)
H12A H 0.6120 0.0016 0.1550
O1A O 0.4264(7) 0.1613(6) 0.2933(3)
O2A O 0.5421(8) 0.1289(6) 0.4124(4)
O3A O 0.4235(8) -0.4002(6) 0.4417(3)
O4A O 0.4529(6) -0.5159(6) 0.3221(4)
O5A O 0.2932(9) -0.5535(7) 0.1035(4)
O6A O 0.2144(8) -0.0460(8) 0.1082(5)
O10A O 0.8028(7) 0.3898(8) 0.4645(5)
H19A H 0.8815 0.4592 0.4579
H20A H 0.8276 0.3333 0.4920
O11A O 0.6844(7) 0.3985(7) 0.2883(4)
H21A H 0.6684 0.3319 0.2450
H22A H 0.7750 0.4570 0.2968
Er1_2 Er 0.44456(3) -0.36857(3) 0.588597(17)
Er1_3 Er 0.44456(3) 1.63143(3) 0.588597(17)
Er1_4 Er 1.44456(3) 1.63143(3) 0.588597(17)
Er1A_2 Er 0.55544(3) -0.63143(3) 0.411403(17)
Er1A_3 Er 0.55544(3) 1.36857(3) 0.411403(17)
Er1A_4 Er 1.55544(3) 1.36857(3) 0.411403(17)
O3_2 O 0.5765(8) 0.4002(6) 0.5583(3)
O3A_2 O 0.4235(8) 0.5998(6) 0.4417(3)
O4_2 O 0.5471(6) 0.5159(6) 0.6779(4)
O4A_2 O 0.4529(6) 0.4841(6) 0.3221(4)
O7A_2 O 0.3207(7) 0.2717(6) 0.4390(4)
O8A_2 O 0.2707(6) 0.3841(5) 0.5534(4)
loop_
_geom_bond_atom_site_label_1
_geom_bond_atom_site_label_2
_geom_bond_site_symmetry_1
_geom_bond_site_symmetry_2
Er1 O1 1_555 1_555
C1 C3 1_555 1_555
C2 C5 1_555 1_555
C3 C4 1_555 1_555
C4 H1 1_555 1_555
C5 C4 1_555 1_555
C6 C5 1_555 1_555
C7 C6 1_555 1_555
H2 C7 1_555 1_555
C8 C3 1_555 1_555
C9 C6 1_555 1_555
C10 C9 1_555 1_555
C11 C10 1_555 1_555
H3 C11 1_555 1_555
C12 C11 1_555 1_555
H4 C12 1_555 1_555
C13 C12 1_555 1_555
H5 C13 1_555 1_555
C14 C13 1_555 1_555
H6 C14 1_555 1_555
C15 C10 1_555 1_555
H7 C15 1_555 1_555
C16 C8 1_555 1_555
C17 C16 1_555 1_555
C18 C17 1_555 1_555
H8 C18 1_555 1_555
C19 C18 1_555 1_555
H9 C19 1_555 1_555
C20 C19 1_555 1_555
H10 C20 1_555 1_555
C21 C20 1_555 1_555
H11 C21 1_555 1_555
C22 C17 1_555 1_555
H12 C22 1_555 1_555
C23 C24 1_555 1_555
C24 C25 1_555 1_555
C25 H13 1_555 1_555
C26 C24 1_555 1_555
C27 C26 1_555 1_555
C28 C27 1_555 1_555
C29 C28 1_555 1_555
H14 C29 1_555 1_555
C30 C29 1_555 1_555
H15 C30 1_555 1_555
C31 C30 1_555 1_555
H16 C31 1_555 1_555
C32 C31 1_555 1_555
H17 C32 1_555 1_555
C33 C28 1_555 1_555
H18 C33 1_555 1_555
O1 C1 1_555 1_555
O2 Er1 1_555 1_555
O3 C2 1_555 1_555
O4 C2 1_555 1_555
O5 C9 1_555 1_555
O6 C16 1_555 1_555
O7 Er1 1_555 1_555
O8 C23 1_555 1_555
O9 C27 1_555 1_555
O10 Er1 1_555 1_555
H19 O10 1_555 1_555
H20 O10 1_555 1_555
O11 Er1 1_555 1_555
H21 O11 1_555 1_555
H22 O11 1_555 1_555
C23A C24A 1_555 1_555
C24A C25A 1_555 1_555
C25A C26 1_555 1_555
H13A C25A 1_555 1_555
C26A C25 1_555 1_555
C27A C26A 1_555 1_555
C28A C27A 1_555 1_555
C29A C28A 1_555 1_555
H14A C29A 1_555 1_555
C30A C29A 1_555 1_555
H15A C30A 1_555 1_555
C31A C30A 1_555 1_555
H16A C31A 1_555 1_555
C32A C31A 1_555 1_555
H17A C32A 1_555 1_555
C33A C28A 1_555 1_555
H18A C33A 1_555 1_555
O7A C23A 1_555 1_555
O8A C23A 1_555 1_555
O9A C27A 1_555 1_555
Er1A O8 1_555 1_555
C1A C3A 1_555 1_555
C2A C5A 1_555 1_555
C3A C4A 1_555 1_555
C4A H1A 1_555 1_555
C5A C4A 1_555 1_555
C6A C5A 1_555 1_555
C7A C6A 1_555 1_555
H2A C7A 1_555 1_555
C8A C3A 1_555 1_555
C9A C6A 1_555 1_555
C10A C9A 1_555 1_555
C11A C10A 1_555 1_555
H3A C11A 1_555 1_555
C12A C11A 1_555 1_555
H4A C12A 1_555 1_555
C13A C12A 1_555 1_555
H5A C13A 1_555 1_555
C14A C13A 1_555 1_555
H6A C14A 1_555 1_555
C15A C10A 1_555 1_555
H7A C15A 1_555 1_555
C16A C8A 1_555 1_555
C17A C16A 1_555 1_555
C18A C17A 1_555 1_555
H8A C18A 1_555 1_555
C19A C18A 1_555 1_555
H9A C19A 1_555 1_555
C20A C19A 1_555 1_555
H10A C20A 1_555 1_555
C21A C20A 1_555 1_555
H11A C21A 1_555 1_555
C22A C17A 1_555 1_555
H12A C22A 1_555 1_555
O1A Er1A 1_555 1_555
O2A Er1A 1_555 1_555
O3A C2A 1_555 1_555
O4A C2A 1_555 1_555
O5A C9A 1_555 1_555
O6A C16A 1_555 1_555
O10A Er1A 1_555 1_555
H19A O10A 1_555 1_555
H20A O10A 1_555 1_555
O11A Er1A 1_555 1_555
H21A O11A 1_555 1_555
H22A O11A 1_555 1_555
Er1_2 O3A 1_555 1_555
Er1_3 O4 1_555 1_555
Er1_4 O8A 1_555 1_555
Er1A_2 O4A 1_555 1_555
Er1A_3 O3 1_555 1_555
Er1A_4 O7A 1_555 1_555
O3_2 Er1A 1_555 1_555
O3A_2 Er1 1_555 1_555
O4_2 Er1 1_555 1_555
O4A_2 Er1A 1_555 1_555
O7A_2 Er1A 1_555 1_555
O8A_2 Er1 1_555 1_555
C1 O2 1_555 1_555
C7 C8 1_555 1_555
C14 C15 1_555 1_555
C21 C22 1_555 1_555
C23 O7 1_555 1_555
C32 C33 1_555 1_555
C24A C26A 1_555 1_555
C32A C33A 1_555 1_555
C1A O1A 1_555 1_555
C1A O2A 1_555 1_555
C7A C8A 1_555 1_555
C14A C15A 1_555 1_555
C21A C22A 1_555 1_555

#END
