
#######################################################################
#
#                 Cambridge Crystallographic Data Centre
#                                CCDC 
#
#######################################################################
#
# If this CIF has been generated from an entry in the Cambridge 
# Structural Database, then it will include bibliographic, chemical, 
# crystal, experimental, refinement or atomic coordinate data resulting 
# from the CCDC's data processing and validation procedures.
#
#######################################################################

data_HIGXAY
_symmetry_cell_setting           triclinic
_symmetry_space_group_name_H-M   'P -1'
_symmetry_Int_Tables_number      2
_space_group_name_Hall           '-P 1'
loop_
_symmetry_equiv_pos_site_id
_symmetry_equiv_pos_as_xyz
1 x,y,z
2 -x,-y,-z
_cell_length_a                   10.4475(11)
_cell_length_b                   11.5142(6)
_cell_length_c                   14.0367(16)
_cell_angle_alpha                102.313(7)
_cell_angle_beta                 110.938(10)
_cell_angle_gamma                100.587(6)
_cell_volume                     1476.93
loop_
_atom_site_label
_atom_site_type_symbol
_atom_site_fract_x
_atom_site_fract_y
_atom_site_fract_z
Nd1 Nd 0.61470(2) 0.56307(2) 0.659936(17)
C1 C 0.7995(5) 0.7871(4) 0.8223(4)
C2 C 0.9029(5) 0.8997(4) 0.9129(3)
C3 C 1.1067(5) 1.0782(4) 0.9888(4)
H1 H 1.1792 1.1312 0.9818
C4 C 1.0110(5) 0.9793(4) 0.9013(3)
C5 C 1.0199(5) 0.9643(4) 0.7941(4)
C6 C 1.1351(6) 0.9150(4) 0.7767(4)
C7 C 1.2578(7) 0.9173(6) 0.8601(5)
H2 H 1.2669 0.9433 0.9303
C8 C 1.3675(8) 0.8811(6) 0.8395(6)
H3 H 1.4511 0.8855 0.8959
C9 C 1.3524(8) 0.8386(6) 0.7356(5)
H4 H 1.4258 0.8142 0.7219
C10 C 1.2324(8) 0.8324(6) 0.6542(6)
H5 H 1.2221 0.8017 0.5842
C11 C 1.1219(7) 0.8716(5) 0.6732(5)
H6 H 1.0397 0.8684 0.6160
C12 C 0.7005(5) 0.4909(4) 0.4282(3)
C13 C 0.8564(5) 0.5000(4) 0.4651(3)
C14 C 0.9268(5) 0.4795(4) 0.5617(3)
H7 H 0.8773 0.4657 0.6036
C15 C 0.9314(5) 0.5209(4) 0.4021(4)
C16 C 0.8663(5) 0.5444(5) 0.2961(4)
C17 C 0.8024(6) 0.6491(5) 0.2892(4)
C18 C 0.8188(7) 0.7367(5) 0.3792(5)
H8 H 0.8696 0.7310 0.4467
C19 C 0.7579(8) 0.8362(6) 0.3687(7)
H9 H 0.7675 0.8967 0.4284
C20 C 0.6836(8) 0.8398(7) 0.2659(6)
H10 H 0.6427 0.9043 0.2577
C21 C 0.6684(8) 0.7570(7) 0.1802(6)
H11 H 0.6176 0.7637 0.1130
C22 C 0.7273(6) 0.6593(6) 0.1884(5)
H12 H 0.7169 0.6008 0.1270
C23 C 0.4835(5) 0.7423(4) 0.4949(3)
C24 C 0.4869(5) 0.8750(4) 0.4975(3)
C25 C 0.6055(5) 0.9704(4) 0.5754(3)
H13 H 0.6766 0.9510 0.6265
C26 C 0.3805(5) 0.9064(4) 0.4217(3)
C27 C 0.2437(5) 0.8106(4) 0.3421(4)
C28 C 0.2107(5) 0.7843(4) 0.2263(4)
C29 C 0.3155(6) 0.8249(5) 0.1914(4)
H14 H 0.4059 0.8746 0.2408
C30 C 0.2849(8) 0.7913(7) 0.0841(5)
H15 H 0.3556 0.8159 0.0610
C31 C 0.1492(8) 0.7210(6) 0.0104(5)
H16 H 0.1291 0.6995 -0.0623
C32 C 0.0440(7) 0.6825(6) 0.0428(4)
H17 H -0.0474 0.6360 -0.0073
C33 C 0.0753(6) 0.7137(5) 0.1508(4)
H18 H 0.0046 0.6869 0.1732
O1 O 0.8298(4) 0.7484(3) 0.7452(3)
O2 O 0.6871(4) 0.7321(3) 0.8276(2)
O3 O 0.9384(4) 0.9978(4) 0.7275(3)
O4 O 0.6209(3) 0.4465(3) 0.3313(2)
O5 O 0.6524(3) 0.5257(3) 0.4975(2)
O6 O 0.8754(4) 0.4800(4) 0.2192(3)
O7 O 0.4274(4) 0.6618(3) 0.4050(2)
O8 O 0.5399(4) 0.7230(3) 0.5830(2)
O9 O 0.1620(4) 0.7563(3) 0.3723(3)
O10 O 0.8415(4) 0.5195(3) 0.7696(3)
H19 H 0.9311 0.5474 0.7894
H20 H 0.8203 0.4408 0.7475
O11 O 0.5931(4) 0.4602(3) 0.8002(3)
H21 H 0.5597 0.5010 0.8388
H22 H 0.5422 0.3852 0.7758
C1A C 1.2005(5) 1.2129(4) 1.1777(4)
C2A C 1.0971(5) 1.1003(4) 1.0871(3)
C3A C 0.8933(5) 0.9218(4) 1.0112(4)
H1A H 0.8208 0.8688 1.0182
C4A C 0.9890(5) 1.0207(4) 1.0987(3)
C5A C 0.9801(5) 1.0357(4) 1.2059(4)
C6A C 0.8649(6) 1.0850(4) 1.2233(4)
C7A C 0.7422(7) 1.0827(6) 1.1399(5)
H2A H 0.7331 1.0567 1.0697
C8A C 0.6325(8) 1.1189(6) 1.1605(6)
H3A H 0.5489 1.1145 1.1041
C9A C 0.6476(8) 1.1614(6) 1.2644(5)
H4A H 0.5742 1.1858 1.2781
C10A C 0.7676(8) 1.1676(6) 1.3458(6)
H5A H 0.7779 1.1983 1.4158
C11A C 0.8781(7) 1.1284(5) 1.3268(5)
H6A H 0.9603 1.1316 1.3840
O1A O 1.1702(4) 1.2516(3) 1.2548(3)
O2A O 1.3129(4) 1.2679(3) 1.1724(2)
O3A O 1.0616(4) 1.0022(4) 1.2725(3)
C12A C 1.2995(5) 0.5091(4) 0.5718(3)
C13A C 1.1436(5) 0.5000(4) 0.5349(3)
C14A C 1.0732(5) 0.5205(4) 0.4383(3)
H7A H 1.1227 0.5343 0.3964
C15A C 1.0686(5) 0.4791(4) 0.5979(4)
C16A C 1.1337(5) 0.4556(5) 0.7039(4)
C17A C 1.1976(6) 0.3509(5) 0.7108(4)
C18A C 1.1812(7) 0.2633(5) 0.6208(5)
H8A H 1.1304 0.2690 0.5533
C19A C 1.2421(8) 0.1638(6) 0.6313(7)
H9A H 1.2325 0.1033 0.5716
C20A C 1.3164(8) 0.1602(7) 0.7341(6)
H10A H 1.3573 0.0957 0.7423
C21A C 1.3316(8) 0.2430(7) 0.8198(6)
H11A H 1.3824 0.2363 0.8870
C22A C 1.2727(6) 0.3407(6) 0.8116(5)
H12A H 1.2831 0.3992 0.8730
O4A O 1.3791(3) 0.5535(3) 0.6687(2)
O5A O 1.3476(3) 0.4743(3) 0.5025(2)
O6A O 1.1246(4) 0.5200(4) 0.7808(3)
C23A C 0.5165(5) 1.2577(4) 0.5051(3)
C24A C 0.5131(5) 1.1250(4) 0.5025(3)
C25A C 0.3945(5) 1.0296(4) 0.4246(3)
H13A H 0.3234 1.0490 0.3735
C26A C 0.6195(5) 1.0936(4) 0.5783(3)
C27A C 0.7563(5) 1.1894(4) 0.6579(4)
C28A C 0.7893(5) 1.2157(4) 0.7737(4)
C29A C 0.6845(6) 1.1751(5) 0.8086(4)
H14A H 0.5941 1.1254 0.7592
C30A C 0.7151(8) 1.2087(7) 0.9159(5)
H15A H 0.6444 1.1841 0.9390
C31A C 0.8508(8) 1.2790(6) 0.9896(5)
H16A H 0.8709 1.3005 1.0623
C32A C 0.9560(7) 1.3175(6) 0.9572(4)
H17A H 1.0474 1.3640 1.0073
C33A C 0.9247(6) 1.2863(5) 0.8492(4)
H18A H 0.9954 1.3131 0.8268
O8A O 0.4601(4) 1.2770(3) 0.4170(2)
O9A O 0.8380(4) 1.2437(3) 0.6277(3)
O7A O 0.5726(4) 1.3382(3) 0.5950(2)
Nd1A Nd 0.38530(2) 0.43693(2) 0.340064(17)
O10A O 0.1585(4) 0.4805(3) 0.2304(3)
H19A H 0.0689 0.4526 0.2106
H20A H 0.1797 0.5592 0.2525
O11A O 0.4069(4) 0.5398(3) 0.1998(3)
H21A H 0.4403 0.4990 0.1612
H22A H 0.4578 0.6148 0.2242
Nd1_2 Nd 0.61470(2) 1.56307(2) 0.659936(17)
Nd1_3 Nd 1.61470(2) 0.56307(2) 0.659936(17)
Nd1A_2 Nd 0.38530(2) 1.43693(2) 0.340064(17)
Nd1A_3 Nd 1.38530(2) 0.43693(2) 0.340064(17)
Nd1A_4 Nd 1.38530(2) 1.43693(2) 1.340064(17)
O1A_2 O 0.1702(4) 0.2516(3) 0.2548(3)
O2A_2 O 0.3129(4) 0.2679(3) 0.1724(2)
O4A_2 O 0.3791(3) 0.5535(3) 0.6687(2)
O5A_2 O 0.3476(3) 0.4743(3) 0.5025(2)
O7A_2 O 0.5726(4) 0.3382(3) 0.5950(2)
O8A_2 O 0.4601(4) 0.2770(3) 0.4170(2)
O12 O 0.5024(7) 0.3609(5) 0.0855(4)
H23 H 0.4264 0.3224 0.0884
H24 H 0.5715 0.3697 0.1450
loop_
_geom_bond_atom_site_label_1
_geom_bond_atom_site_label_2
_geom_bond_site_symmetry_1
_geom_bond_site_symmetry_2
Nd1 O1 1_555 1_555
C1 C2 1_555 1_555
C2 C4 1_555 1_555
C3 H1 1_555 1_555
C4 C3 1_555 1_555
C5 C4 1_555 1_555
C6 C5 1_555 1_555
C7 C6 1_555 1_555
H2 C7 1_555 1_555
C8 C7 1_555 1_555
H3 C8 1_555 1_555
C9 C8 1_555 1_555
H4 C9 1_555 1_555
C10 C9 1_555 1_555
H5 C10 1_555 1_555
C11 C6 1_555 1_555
H6 C11 1_555 1_555
C12 C13 1_555 1_555
C13 C14 1_555 1_555
C14 H7 1_555 1_555
C15 C13 1_555 1_555
C16 C15 1_555 1_555
C17 C16 1_555 1_555
C18 C17 1_555 1_555
H8 C18 1_555 1_555
C19 C18 1_555 1_555
H9 C19 1_555 1_555
C20 C19 1_555 1_555
H10 C20 1_555 1_555
C21 C20 1_555 1_555
H11 C21 1_555 1_555
C22 C17 1_555 1_555
H12 C22 1_555 1_555
C23 C24 1_555 1_555
C24 C25 1_555 1_555
C25 H13 1_555 1_555
C26 C24 1_555 1_555
C27 C26 1_555 1_555
C28 C27 1_555 1_555
C29 C28 1_555 1_555
H14 C29 1_555 1_555
C30 C29 1_555 1_555
H15 C30 1_555 1_555
C31 C30 1_555 1_555
H16 C31 1_555 1_555
C32 C31 1_555 1_555
H17 C32 1_555 1_555
C33 C28 1_555 1_555
H18 C33 1_555 1_555
O1 C1 1_555 1_555
O2 Nd1 1_555 1_555
O3 C5 1_555 1_555
O4 C12 1_555 1_555
O5 Nd1 1_555 1_555
O6 C16 1_555 1_555
O7 C23 1_555 1_555
O8 Nd1 1_555 1_555
O9 C27 1_555 1_555
O10 Nd1 1_555 1_555
H19 O10 1_555 1_555
H20 O10 1_555 1_555
O11 Nd1 1_555 1_555
H21 O11 1_555 1_555
H22 O11 1_555 1_555
O12 H23 1_555 1_555
H24 O12 1_555 1_555
C1A C2A 1_555 1_555
C2A C3 1_555 1_555
C3A C2 1_555 1_555
H1A C3A 1_555 1_555
C4A C2A 1_555 1_555
C5A C4A 1_555 1_555
C6A C5A 1_555 1_555
C7A C6A 1_555 1_555
H2A C7A 1_555 1_555
C8A C7A 1_555 1_555
H3A C8A 1_555 1_555
C9A C8A 1_555 1_555
H4A C9A 1_555 1_555
C10A C9A 1_555 1_555
H5A C10A 1_555 1_555
C11A C6A 1_555 1_555
H6A C11A 1_555 1_555
O1A C1A 1_555 1_555
O2A C1A 1_555 1_555
O3A C5A 1_555 1_555
C12A C13A 1_555 1_555
C13A C14A 1_555 1_555
C14A C15 1_555 1_555
H7A C14A 1_555 1_555
C15A C14 1_555 1_555
C16A C15A 1_555 1_555
C17A C16A 1_555 1_555
C18A C17A 1_555 1_555
H8A C18A 1_555 1_555
C19A C18A 1_555 1_555
H9A C19A 1_555 1_555
C20A C19A 1_555 1_555
H10A C20A 1_555 1_555
C21A C20A 1_555 1_555
H11A C21A 1_555 1_555
C22A C17A 1_555 1_555
H12A C22A 1_555 1_555
O4A C12A 1_555 1_555
O5A C12A 1_555 1_555
O6A C16A 1_555 1_555
C23A C24A 1_555 1_555
C24A C25A 1_555 1_555
C25A C26 1_555 1_555
H13A C25A 1_555 1_555
C26A C25 1_555 1_555
C27A C26A 1_555 1_555
C28A C27A 1_555 1_555
C29A C28A 1_555 1_555
H14A C29A 1_555 1_555
C30A C29A 1_555 1_555
H15A C30A 1_555 1_555
C31A C30A 1_555 1_555
H16A C31A 1_555 1_555
C32A C31A 1_555 1_555
H17A C32A 1_555 1_555
C33A C28A 1_555 1_555
H18A C33A 1_555 1_555
O8A C23A 1_555 1_555
O9A C27A 1_555 1_555
O7A C23A 1_555 1_555
Nd1A O4 1_555 1_555
O10A Nd1A 1_555 1_555
H19A O10A 1_555 1_555
H20A O10A 1_555 1_555
O11A Nd1A 1_555 1_555
H21A O11A 1_555 1_555
H22A O11A 1_555 1_555
Nd1_2 O7A 1_555 1_555
Nd1_3 O4A 1_555 1_555
Nd1A_2 O8A 1_555 1_555
Nd1A_3 O5A 1_555 1_555
Nd1A_4 O1A 1_555 1_555
O1A_2 Nd1A 1_555 1_555
O2A_2 Nd1A 1_555 1_555
O4A_2 Nd1 1_555 1_555
O5A_2 Nd1 1_555 1_555
O7A_2 Nd1 1_555 1_555
O8A_2 Nd1A 1_555 1_555
C1 O2 1_555 1_555
C10 C11 1_555 1_555
C12 O5 1_555 1_555
C21 C22 1_555 1_555
C23 O8 1_555 1_555
C32 C33 1_555 1_555
O5 Nd1A 1_555 1_555
O7 Nd1A 1_555 1_555
C3A C4A 1_555 1_555
C10A C11A 1_555 1_555
O2A Nd1A_4 1_555 1_555
C13A C15A 1_555 1_555
C21A C22A 1_555 1_555
O5A Nd1_3 1_555 1_555
C24A C26A 1_555 1_555
C32A C33A 1_555 1_555
Nd1A O5A_2 1_555 1_555

#END
