
#######################################################################
#
#                 Cambridge Crystallographic Data Centre
#                                CCDC 
#
#######################################################################
#
# If this CIF has been generated from an entry in the Cambridge 
# Structural Database, then it will include bibliographic, chemical, 
# crystal, experimental, refinement or atomic coordinate data resulting 
# from the CCDC's data processing and validation procedures.
#
#######################################################################

data_HIGXEC
_symmetry_cell_setting           triclinic
_symmetry_space_group_name_H-M   'P -1'
_symmetry_Int_Tables_number      2
_space_group_name_Hall           '-P 1'
loop_
_symmetry_equiv_pos_site_id
_symmetry_equiv_pos_as_xyz
1 x,y,z
2 -x,-y,-z
_cell_length_a                   10.4130(11)
_cell_length_b                   11.4804(18)
_cell_length_c                   14.1232(19)
_cell_angle_alpha                102.540(6)
_cell_angle_beta                 111.1880(10)
_cell_angle_gamma                100.429(3)
_cell_volume                     1472.9
loop_
_atom_site_label
_atom_site_type_symbol
_atom_site_fract_x
_atom_site_fract_y
_atom_site_fract_z
Sm1 Sm 0.61423(2) 0.563373(19) 0.658870(17)
C1 C 0.7988(5) 0.7872(4) 0.8197(4)
C2 C 0.9018(5) 0.8992(4) 0.9121(4)
C3 C 1.1081(5) 1.0792(4) 0.9901(4)
H1 H 1.1812 1.1325 0.9839
C4 C 1.0109(5) 0.9794(4) 0.9013(4)
C5 C 1.0203(5) 0.9650(4) 0.7944(4)
C6 C 1.1362(6) 0.9153(5) 0.7777(5)
C7 C 1.2600(7) 0.9187(6) 0.8610(5)
H2 H 1.2702 0.9464 0.9310
C8 C 1.3691(8) 0.8810(7) 0.8401(7)
H3 H 1.4528 0.8845 0.8964
C9 C 1.3541(8) 0.8389(7) 0.7380(6)
H4 H 1.4287 0.8157 0.7251
C10 C 1.2294(8) 0.8302(7) 0.6531(7)
H5 H 1.2176 0.7968 0.5833
C11 C 1.1216(8) 0.8721(6) 0.6735(5)
H6 H 1.0395 0.8712 0.6171
C12 C 0.7006(5) 0.4918(4) 0.4300(4)
C13 C 0.8562(5) 0.5001(4) 0.4652(4)
C14 C 0.9288(5) 0.4806(4) 0.5623(4)
H7 H 0.8803 0.4680 0.6048
C15 C 0.9301(5) 0.5206(5) 0.4029(4)
C16 C 0.8643(5) 0.5424(5) 0.2962(4)
C17 C 0.8008(5) 0.6484(5) 0.2893(5)
C18 C 0.8182(7) 0.7372(6) 0.3796(6)
H8 H 0.8693 0.7303 0.4465
C19 C 0.7596(9) 0.8383(7) 0.3722(8)
H9 H 0.7707 0.8993 0.4323
C20 C 0.6820(8) 0.8409(7) 0.2660(6)
H10 H 0.6405 0.9053 0.2573
C21 C 0.6664(8) 0.7550(7) 0.1790(6)
H11 H 0.6160 0.7612 0.1117
C22 C 0.7245(6) 0.6578(6) 0.1882(6)
H12 H 0.7133 0.5980 0.1273
C23 C 0.4832(5) 0.7416(4) 0.4953(4)
C24 C 0.4875(5) 0.8755(4) 0.4977(4)
C25 C 0.6047(5) 0.9711(4) 0.5755(4)
H13 H 0.6753 0.9517 0.6272
C26 C 0.3796(5) 0.9047(4) 0.4211(4)
C27 C 0.2423(5) 0.8084(4) 0.3416(4)
C28 C 0.2091(5) 0.7818(4) 0.2257(4)
C29 C 0.0721(6) 0.7109(5) 0.1492(4)
H14 H 0.0002 0.6850 0.1707
C30 C 0.0427(7) 0.6792(6) 0.0429(5)
H15 H -0.0484 0.6301 -0.0072
C31 C 0.1469(8) 0.7193(6) 0.0093(5)
H16 H 0.1259 0.6981 -0.0631
C32 C 0.2820(8) 0.7909(8) 0.0834(6)
H17 H 0.3529 0.8172 0.0610
C33 C 0.3127(6) 0.8239(6) 0.1909(4)
H18 H 0.4033 0.8746 0.2404
O1 O 0.8289(4) 0.7484(3) 0.7430(3)
O2 O 0.6857(4) 0.7311(3) 0.8250(3)
O3 O 0.9399(4) 1.0000(4) 0.7282(3)
O4 O 0.6532(3) 0.5279(3) 0.5000(3)
O5 O 0.6189(3) 0.4482(3) 0.3332(3)
O6 O 0.8719(5) 0.4788(4) 0.2190(3)
O7 O 0.4281(4) 0.6595(3) 0.4053(3)
O8 O 0.5402(3) 0.7233(3) 0.5839(3)
O9 O 0.1614(4) 0.7538(3) 0.3715(3)
O10 O 0.8402(4) 0.5205(3) 0.7664(3)
H19 H 0.9262 0.5611 0.7802
H20 H 0.8335 0.4435 0.7402
O11 O 0.5933(4) 0.4615(4) 0.7972(3)
H21 H 0.5694 0.3841 0.7927
H22 H 0.5736 0.5002 0.8471
C1A C 1.2012(5) 1.2128(4) 1.1803(4)
C2A C 1.0982(5) 1.1008(4) 1.0879(4)
C3A C 0.8919(5) 0.9208(4) 1.0099(4)
H1A H 0.8188 0.8675 1.0161
C4A C 0.9891(5) 1.0206(4) 1.0987(4)
C5A C 0.9797(5) 1.0350(4) 1.2056(4)
C6A C 0.8638(6) 1.0847(5) 1.2223(5)
C7A C 0.7400(7) 1.0813(6) 1.1390(5)
H2A H 0.7298 1.0536 1.0690
C8A C 0.6309(8) 1.1190(7) 1.1599(7)
H3A H 0.5472 1.1155 1.1036
C9A C 0.6459(8) 1.1611(7) 1.2620(6)
H4A H 0.5713 1.1843 1.2749
C10A C 0.7706(8) 1.1698(7) 1.3469(7)
H5A H 0.7824 1.2032 1.4167
C11A C 0.8784(8) 1.1279(6) 1.3265(5)
H6A H 0.9605 1.1288 1.3829
O1A O 1.1711(4) 1.2516(3) 1.2570(3)
O2A O 1.3143(4) 1.2689(3) 1.1750(3)
O3A O 1.0601(4) 1.0000(4) 1.2718(3)
C12A C 1.2994(5) 0.5082(4) 0.5700(4)
C13A C 1.1438(5) 0.4999(4) 0.5348(4)
C14A C 1.0712(5) 0.5194(4) 0.4377(4)
H7A H 1.1197 0.5320 0.3952
C15A C 1.0699(5) 0.4794(5) 0.5971(4)
C16A C 1.1357(5) 0.4576(5) 0.7038(4)
C17A C 1.1992(5) 0.3516(5) 0.7107(5)
C18A C 1.1818(7) 0.2628(6) 0.6204(6)
H8A H 1.1307 0.2697 0.5535
C19A C 1.2404(9) 0.1617(7) 0.6278(8)
H9A H 1.2293 0.1007 0.5677
C20A C 1.3180(8) 0.1591(7) 0.7340(6)
H10A H 1.3595 0.0947 0.7427
C21A C 1.3336(8) 0.2450(7) 0.8210(6)
H11A H 1.3840 0.2388 0.8883
C22A C 1.2755(6) 0.3422(6) 0.8118(6)
H12A H 1.2867 0.4020 0.8727
O4A O 1.3468(3) 0.4721(3) 0.5000(3)
O5A O 1.3811(3) 0.5518(3) 0.6668(3)
O6A O 1.1281(5) 0.5212(4) 0.7810(3)
C23A C 0.5168(5) 1.2584(4) 0.5047(4)
C24A C 0.5125(5) 1.1245(4) 0.5023(4)
C25A C 0.3953(5) 1.0289(4) 0.4245(4)
H13A H 0.3247 1.0483 0.3728
C26A C 0.6204(5) 1.0953(4) 0.5789(4)
C27A C 0.7577(5) 1.1916(4) 0.6584(4)
C28A C 0.7909(5) 1.2182(4) 0.7743(4)
C29A C 0.9279(6) 1.2891(5) 0.8508(4)
H14A H 0.9998 1.3150 0.8293
C30A C 0.9573(7) 1.3208(6) 0.9571(5)
H15A H 1.0484 1.3699 1.0072
C31A C 0.8531(8) 1.2807(6) 0.9907(5)
H16A H 0.8741 1.3019 1.0631
C32A C 0.7180(8) 1.2091(8) 0.9166(6)
H17A H 0.6471 1.1828 0.9390
C33A C 0.6873(6) 1.1761(6) 0.8091(4)
H18A H 0.5967 1.1254 0.7596
O8A O 0.4598(3) 1.2767(3) 0.4161(3)
O9A O 0.8386(4) 1.2462(3) 0.6285(3)
O7A O 0.5719(4) 1.3405(3) 0.5947(3)
Sm1A Sm 0.38577(2) 0.436627(19) 0.341130(17)
O10A O 0.1598(4) 0.4795(3) 0.2336(3)
H19A H 0.0738 0.4389 0.2198
H20A H 0.1665 0.5565 0.2598
O11A O 0.4067(4) 0.5385(4) 0.2028(3)
H21A H 0.4306 0.6159 0.2073
H22A H 0.4264 0.4998 0.1529
Sm1_2 Sm 0.61423(2) 1.563373(19) 0.658870(17)
Sm1_3 Sm 1.61423(2) 0.563373(19) 0.658870(17)
Sm1A_2 Sm 0.38577(2) 1.436627(19) 0.341130(17)
Sm1A_3 Sm 1.38577(2) 0.436627(19) 0.341130(17)
Sm1A_4 Sm 1.38577(2) 1.436627(19) 1.341130(17)
O1A_2 O 0.1711(4) 0.2516(3) 0.2570(3)
O2A_2 O 0.3143(4) 0.2689(3) 0.1750(3)
O4A_2 O 0.3468(3) 0.4721(3) 0.5000(3)
O5A_2 O 0.3811(3) 0.5518(3) 0.6668(3)
O7A_2 O 0.5719(4) 0.3405(3) 0.5947(3)
O8A_2 O 0.4598(3) 0.2767(3) 0.4161(3)
O12 O 0.5010(7) 0.6402(6) 0.9148(5)
H23 H 0.5623 0.7006 0.9150
H24 H 0.4397 0.6055 0.8503
loop_
_geom_bond_atom_site_label_1
_geom_bond_atom_site_label_2
_geom_bond_site_symmetry_1
_geom_bond_site_symmetry_2
Sm1 O1 1_555 1_555
C1 C2 1_555 1_555
C2 C4 1_555 1_555
C3 H1 1_555 1_555
C4 C3 1_555 1_555
C5 C4 1_555 1_555
C6 C5 1_555 1_555
C7 C6 1_555 1_555
H2 C7 1_555 1_555
C8 C7 1_555 1_555
H3 C8 1_555 1_555
C9 C8 1_555 1_555
H4 C9 1_555 1_555
C10 C9 1_555 1_555
H5 C10 1_555 1_555
C11 C6 1_555 1_555
H6 C11 1_555 1_555
C12 C13 1_555 1_555
C13 C14 1_555 1_555
C14 H7 1_555 1_555
C15 C13 1_555 1_555
C16 C15 1_555 1_555
C17 C16 1_555 1_555
C18 C17 1_555 1_555
H8 C18 1_555 1_555
C19 C18 1_555 1_555
H9 C19 1_555 1_555
C20 C19 1_555 1_555
H10 C20 1_555 1_555
C21 C20 1_555 1_555
H11 C21 1_555 1_555
C22 C17 1_555 1_555
H12 C22 1_555 1_555
C23 C24 1_555 1_555
C24 C25 1_555 1_555
C25 H13 1_555 1_555
C26 C24 1_555 1_555
C27 C26 1_555 1_555
C28 C27 1_555 1_555
C29 C28 1_555 1_555
H14 C29 1_555 1_555
C30 C29 1_555 1_555
H15 C30 1_555 1_555
C31 C30 1_555 1_555
H16 C31 1_555 1_555
C32 C31 1_555 1_555
H17 C32 1_555 1_555
C33 C28 1_555 1_555
H18 C33 1_555 1_555
O1 C1 1_555 1_555
O2 Sm1 1_555 1_555
O3 C5 1_555 1_555
O4 Sm1 1_555 1_555
O5 C12 1_555 1_555
O6 C16 1_555 1_555
O7 C23 1_555 1_555
O8 Sm1 1_555 1_555
O9 C27 1_555 1_555
O10 Sm1 1_555 1_555
H19 O10 1_555 1_555
H20 O10 1_555 1_555
O11 Sm1 1_555 1_555
H21 O11 1_555 1_555
H22 O11 1_555 1_555
O12 H23 1_555 1_555
H24 O12 1_555 1_555
C1A C2A 1_555 1_555
C2A C3 1_555 1_555
C3A C2 1_555 1_555
H1A C3A 1_555 1_555
C4A C2A 1_555 1_555
C5A C4A 1_555 1_555
C6A C5A 1_555 1_555
C7A C6A 1_555 1_555
H2A C7A 1_555 1_555
C8A C7A 1_555 1_555
H3A C8A 1_555 1_555
C9A C8A 1_555 1_555
H4A C9A 1_555 1_555
C10A C9A 1_555 1_555
H5A C10A 1_555 1_555
C11A C6A 1_555 1_555
H6A C11A 1_555 1_555
O1A C1A 1_555 1_555
O2A C1A 1_555 1_555
O3A C5A 1_555 1_555
C12A C13A 1_555 1_555
C13A C14A 1_555 1_555
C14A C15 1_555 1_555
H7A C14A 1_555 1_555
C15A C14 1_555 1_555
C16A C15A 1_555 1_555
C17A C16A 1_555 1_555
C18A C17A 1_555 1_555
H8A C18A 1_555 1_555
C19A C18A 1_555 1_555
H9A C19A 1_555 1_555
C20A C19A 1_555 1_555
H10A C20A 1_555 1_555
C21A C20A 1_555 1_555
H11A C21A 1_555 1_555
C22A C17A 1_555 1_555
H12A C22A 1_555 1_555
O4A C12A 1_555 1_555
O5A C12A 1_555 1_555
O6A C16A 1_555 1_555
C23A C24A 1_555 1_555
C24A C25A 1_555 1_555
C25A C26 1_555 1_555
H13A C25A 1_555 1_555
C26A C25 1_555 1_555
C27A C26A 1_555 1_555
C28A C27A 1_555 1_555
C29A C28A 1_555 1_555
H14A C29A 1_555 1_555
C30A C29A 1_555 1_555
H15A C30A 1_555 1_555
C31A C30A 1_555 1_555
H16A C31A 1_555 1_555
C32A C31A 1_555 1_555
H17A C32A 1_555 1_555
C33A C28A 1_555 1_555
H18A C33A 1_555 1_555
O8A C23A 1_555 1_555
O9A C27A 1_555 1_555
O7A C23A 1_555 1_555
Sm1A O4 1_555 1_555
O10A Sm1A 1_555 1_555
H19A O10A 1_555 1_555
H20A O10A 1_555 1_555
O11A Sm1A 1_555 1_555
H21A O11A 1_555 1_555
H22A O11A 1_555 1_555
Sm1_2 O7A 1_555 1_555
Sm1_3 O4A 1_555 1_555
Sm1A_2 O8A 1_555 1_555
Sm1A_3 O4A 1_555 1_555
Sm1A_4 O1A 1_555 1_555
O1A_2 Sm1A 1_555 1_555
O2A_2 Sm1A 1_555 1_555
O4A_2 Sm1 1_555 1_555
O5A_2 Sm1 1_555 1_555
O7A_2 Sm1 1_555 1_555
O8A_2 Sm1A 1_555 1_555
C1 O2 1_555 1_555
C10 C11 1_555 1_555
C12 O4 1_555 1_555
C21 C22 1_555 1_555
C23 O8 1_555 1_555
C32 C33 1_555 1_555
O5 Sm1A 1_555 1_555
O7 Sm1A 1_555 1_555
C3A C4A 1_555 1_555
C10A C11A 1_555 1_555
O2A Sm1A_4 1_555 1_555
C13A C15A 1_555 1_555
C21A C22A 1_555 1_555
O5A Sm1_3 1_555 1_555
C24A C26A 1_555 1_555
C32A C33A 1_555 1_555
Sm1A O4A_2 1_555 1_555

#END
