
#######################################################################
#
#                 Cambridge Crystallographic Data Centre
#                                CCDC 
#
#######################################################################
#
# If this CIF has been generated from an entry in the Cambridge 
# Structural Database, then it will include bibliographic, chemical, 
# crystal, experimental, refinement or atomic coordinate data resulting 
# from the CCDC's data processing and validation procedures.
#
#######################################################################

data_HIGXUS
_symmetry_cell_setting           monoclinic
_symmetry_space_group_name_H-M   'P 21/c'
_symmetry_Int_Tables_number      14
_space_group_name_Hall           '-P 2ybc'
loop_
_symmetry_equiv_pos_site_id
_symmetry_equiv_pos_as_xyz
1 x,y,z
2 -x,1/2+y,1/2-z
3 -x,-y,-z
4 x,1/2-y,1/2+z
_cell_length_a                   11.9617(6)
_cell_length_b                   12.6849(5)
_cell_length_c                   19.6998(10)
_cell_angle_alpha                90
_cell_angle_beta                 107.951(3)
_cell_angle_gamma                90
_cell_volume                     2843.6
loop_
_atom_site_label
_atom_site_type_symbol
_atom_site_fract_x
_atom_site_fract_y
_atom_site_fract_z
Tb1 Tb 0.507269(19) 0.602042(16) 0.568362(11)
C1 C 0.6323(5) 0.5057(4) 0.6965(3)
C2 C 0.6964(4) 0.4543(4) 0.7660(3)
C3 C 0.6434(5) 0.3690(4) 0.7882(3)
H1 H 0.5682 0.3487 0.7610
C4 C 0.8073(4) 0.4876(4) 0.8086(3)
C5 C 0.8723(5) 0.5847(5) 0.7946(3)
C6 C 0.8200(5) 0.6909(5) 0.7989(3)
C7 C 0.7233(6) 0.7042(5) 0.8225(3)
H2 H 0.6881 0.6458 0.8360
C8 C 0.6783(7) 0.8047(6) 0.8262(4)
H3 H 0.6138 0.8134 0.8426
C9 C 0.7285(8) 0.8895(7) 0.8058(5)
H4 H 0.6967 0.9561 0.8072
C10 C 0.8242(8) 0.8793(7) 0.7834(5)
H5 H 0.8581 0.9390 0.7704
C11 C 0.8733(7) 0.7784(5) 0.7794(3)
H6 H 0.9392 0.7711 0.7642
C12 C 0.6332(5) 0.2293(4) 0.8744(3)
C13 C 0.7002(5) 0.3138(4) 0.8498(3)
C14 C 0.8131(5) 0.3434(4) 0.8905(3)
C15 C 0.8649(5) 0.4313(5) 0.8702(3)
H7 H 0.9391 0.4529 0.8983
C16 C 0.8839(5) 0.2901(5) 0.9587(3)
C17 C 0.9625(5) 0.2028(4) 0.9527(3)
C18 C 1.0428(5) 0.1625(5) 1.0146(3)
H8 H 1.0473 0.1907 1.0589
C19 C 1.1157(6) 0.0803(6) 1.0095(5)
H9 H 1.1688 0.0527 1.0505
C20 C 1.1100(7) 0.0399(6) 0.9447(4)
H10 H 1.1585 -0.0162 0.9420
C21 C 1.0333(6) 0.0807(6) 0.8827(4)
H11 H 1.0321 0.0537 0.8386
C22 C 0.9590(5) 0.1612(5) 0.8866(3)
H12 H 0.9063 0.1881 0.8451
C23 C 0.3091(6) 0.7052(6) 0.4153(4)
H13 H 0.2685 0.6453 0.4216
C24 C 0.2547(7) 0.7731(8) 0.3584(4)
H14 H 0.1798 0.7584 0.3279
C25 C 0.3134(7) 0.8601(7) 0.3489(4)
H15 H 0.2787 0.9062 0.3116
C26 C 0.4251(7) 0.8810(5) 0.3945(4)
C27 C 0.4751(5) 0.8088(4) 0.4491(3)
C28 C 0.5884(5) 0.8278(4) 0.4994(3)
C29 C 0.6502(6) 0.9206(5) 0.4924(4)
C30 C 0.5962(7) 0.9925(7) 0.4364(4)
H16 H 0.6360 1.0539 0.4321
C31 C 0.4916(7) 0.9749(7) 0.3904(4)
H17 H 0.4598 1.0239 0.3546
C32 C 0.7607(7) 0.9363(5) 0.5423(4)
H18 H 0.8037 0.9964 0.5396
C33 C 0.8056(6) 0.8648(6) 0.5945(4)
H19 H 0.8794 0.8749 0.6275
C34 C 0.7390(6) 0.7751(5) 0.5982(3)
H20 H 0.7701 0.7264 0.6344
N1 N 0.4146(4) 0.7222(4) 0.4603(2)
N2 N 0.6339(4) 0.7570(3) 0.5524(2)
O1 O 0.5251(3) 0.4862(3) 0.6682(2)
O2 O 0.6880(3) 0.5656(3) 0.66712(19)
O3 O 0.9675(4) 0.5727(4) 0.7860(3)
O4 O 0.6858(3) 0.1590(3) 0.9174(2)
O5 O 0.5225(4) 0.2360(3) 0.8530(2)
O6 O 0.8815(5) 0.3247(4) 1.0160(2)
O7 O 0.6036(3) 0.5270(3) 0.49783(19)
Tb1A Tb 0.492731(19) 0.102042(16) 0.931638(11)
Tb1B Tb 0.492731(19) 0.397958(16) 0.431638(11)
O4A O 0.3142(3) 0.6590(3) 0.5826(2)
O5A O 0.4775(4) 0.7360(3) 0.6470(2)
O7B O 0.3964(3) 0.4730(3) 0.50217(19)
loop_
_geom_bond_atom_site_label_1
_geom_bond_atom_site_label_2
_geom_bond_site_symmetry_1
_geom_bond_site_symmetry_2
Tb1 N1 1_555 1_555
C1 C2 1_555 1_555
C2 C3 1_555 1_555
C3 H1 1_555 1_555
C4 C2 1_555 1_555
C5 C4 1_555 1_555
C6 C5 1_555 1_555
C7 C6 1_555 1_555
H2 C7 1_555 1_555
C8 C7 1_555 1_555
H3 C8 1_555 1_555
C9 C8 1_555 1_555
H4 C9 1_555 1_555
C10 C9 1_555 1_555
H5 C10 1_555 1_555
C11 C6 1_555 1_555
H6 C11 1_555 1_555
C12 C13 1_555 1_555
C13 C3 1_555 1_555
C14 C13 1_555 1_555
C15 C4 1_555 1_555
H7 C15 1_555 1_555
C16 C14 1_555 1_555
C17 C16 1_555 1_555
C18 C17 1_555 1_555
H8 C18 1_555 1_555
C19 C18 1_555 1_555
H9 C19 1_555 1_555
C20 C19 1_555 1_555
H10 C20 1_555 1_555
C21 C20 1_555 1_555
H11 C21 1_555 1_555
C22 C17 1_555 1_555
H12 C22 1_555 1_555
C23 H13 1_555 1_555
C24 C23 1_555 1_555
H14 C24 1_555 1_555
C25 C24 1_555 1_555
H15 C25 1_555 1_555
C26 C25 1_555 1_555
C27 C26 1_555 1_555
C28 C27 1_555 1_555
C29 C28 1_555 1_555
C30 C29 1_555 1_555
H16 C30 1_555 1_555
C31 C26 1_555 1_555
H17 C31 1_555 1_555
C32 C29 1_555 1_555
H18 C32 1_555 1_555
C33 C32 1_555 1_555
H19 C33 1_555 1_555
C34 C33 1_555 1_555
H20 C34 1_555 1_555
N1 C23 1_555 1_555
N2 Tb1 1_555 1_555
O1 Tb1 1_555 1_555
O2 Tb1 1_555 1_555
O3 C5 1_555 1_555
O4 C12 1_555 1_555
O5 C12 1_555 1_555
O6 C16 1_555 1_555
O7 Tb1 1_555 1_555
Tb1A O4 1_555 1_555
Tb1B O7 1_555 1_555
O4A Tb1 1_555 1_555
O5A Tb1 1_555 1_555
O7B Tb1 1_555 1_555
C1 O1 1_555 1_555
C1 O2 1_555 1_555
C10 C11 1_555 1_555
C14 C15 1_555 1_555
C21 C22 1_555 1_555
C27 N1 1_555 1_555
C28 N2 1_555 1_555
C30 C31 1_555 1_555
C34 N2 1_555 1_555
O5 Tb1A 1_555 1_555
Tb1B O7B 1_555 1_555

#END
