
#######################################################################
#
#                 Cambridge Crystallographic Data Centre
#                                CCDC 
#
#######################################################################
#
# If this CIF has been generated from an entry in the Cambridge 
# Structural Database, then it will include bibliographic, chemical, 
# crystal, experimental, refinement or atomic coordinate data resulting 
# from the CCDC's data processing and validation procedures.
#
#######################################################################

data_HIGYIH
_symmetry_cell_setting           monoclinic
_symmetry_space_group_name_H-M   'P 21/c'
_symmetry_Int_Tables_number      14
_space_group_name_Hall           '-P 2ybc'
loop_
_symmetry_equiv_pos_site_id
_symmetry_equiv_pos_as_xyz
1 x,y,z
2 -x,1/2+y,1/2-z
3 -x,-y,-z
4 x,1/2-y,1/2+z
_cell_length_a                   12.0745(18)
_cell_length_b                   12.584(2)
_cell_length_c                   19.537(2)
_cell_angle_alpha                90
_cell_angle_beta                 108.000(7)
_cell_angle_gamma                90
_cell_volume                     2823.27
loop_
_atom_site_label
_atom_site_type_symbol
_atom_site_fract_x
_atom_site_fract_y
_atom_site_fract_z
Yb1 Yb 0.49100(2) 0.60100(2) 0.432972(14)
C1 C 0.3707(6) 0.5046(5) 0.3059(3)
C2 C 0.3087(6) 0.4522(5) 0.2348(3)
C3 C 0.1999(6) 0.4835(5) 0.1934(3)
C4 C 0.1433(6) 0.4259(6) 0.1318(4)
C5 C 0.1936(6) 0.3376(5) 0.1104(3)
C6 C 0.3065(6) 0.3095(5) 0.1503(3)
C7 C 0.3625(6) 0.3666(5) 0.2133(3)
H1 H 0.4370 0.3467 0.2411
C8 C 0.1348(7) 0.5810(6) 0.2074(4)
C9 C 0.1816(7) 0.6873(6) 0.2024(4)
C10 C 0.2756(7) 0.7031(6) 0.1777(4)
H2 H 0.3097 0.6448 0.1629
H3 H 0.0675 0.4458 0.1047
C11 C 0.3210(9) 0.8041(8) 0.1743(5)
H4 H 0.3845 0.8144 0.1576
C12 C 0.2687(9) 0.8867(8) 0.1964(5)
H5 H 0.3005 0.9541 0.1967
C13 C 0.1718(8) 0.8769(7) 0.2181(5)
H6 H 0.1361 0.9364 0.2301
C14 C 0.1280(8) 0.7754(7) 0.2219(4)
H7 H 0.0631 0.7663 0.2373
C15 C 0.1237(6) 0.2844(6) 0.0406(4)
C16 C 0.0411(6) 0.1988(5) 0.0468(3)
C17 C -0.0383(6) 0.1603(6) -0.0133(4)
H8 H -0.0409 0.1886 -0.0577
C18 C -0.1141(7) 0.0819(6) -0.0108(5)
H9 H -0.1683 0.0568 -0.0526
C19 C -0.1085(8) 0.0414(8) 0.0539(4)
H10 H -0.1592 -0.0132 0.0562
C20 C -0.0298(7) 0.0784(7) 0.1176(5)
H11 H -0.0294 0.0507 0.1618
C21 C 0.0472(7) 0.1565(6) 0.1136(4)
H12 H 0.1029 0.1809 0.1551
C22 C 0.3736(6) 0.2250(5) 0.1248(4)
C23 C 0.6879(7) 0.7022(6) 0.5825(4)
H13 H 0.7276 0.6419 0.5756
C24 C 0.7446(9) 0.7713(8) 0.6403(5)
H14 H 0.8194 0.7565 0.6702
C25 C 0.6885(10) 0.8568(8) 0.6503(5)
H15 H 0.7240 0.9025 0.6882
C26 C 0.5720(8) 0.8811(6) 0.6032(4)
C27 C 0.5098(8) 0.9741(7) 0.6082(4)
H16 H 0.5422 1.0227 0.6448
C28 C 0.4065(8) 0.9933(7) 0.5619(4)
H17 H 0.3699 1.0574 0.5648
C29 C 0.3486(8) 0.9183(6) 0.5068(4)
C30 C 0.2357(8) 0.9330(6) 0.4575(5)
H18 H 0.1922 0.9927 0.4607
C31 C 0.1920(7) 0.8594(6) 0.4059(4)
H19 H 0.1181 0.8674 0.3731
C32 C 0.2620(6) 0.7695(6) 0.4032(4)
H20 H 0.2315 0.7201 0.3668
C33 C 0.4117(6) 0.8258(5) 0.5002(4)
C34 C 0.5245(6) 0.8062(5) 0.5505(4)
N1 N 0.5823(5) 0.7186(5) 0.5382(3)
N2 N 0.3637(5) 0.7512(4) 0.4469(3)
O1 O 0.3147(4) 0.5625(4) 0.3359(2)
O2 O 0.4794(4) 0.4883(4) 0.3349(2)
O3 O 0.4845(4) 0.2354(4) 0.1444(3)
O4 O 0.3206(4) 0.1530(4) 0.0825(2)
O5 O 0.1270(5) 0.3183(4) -0.0156(3)
O6 O 0.0368(5) 0.5676(5) 0.2157(3)
O7 O 0.3982(4) 0.5242(3) 0.5024(2)
Yb1A Yb 0.50900(2) 0.10100(2) 0.067028(14)
Yb1B Yb 0.50900(2) 0.39900(2) 0.567028(14)
O3A O 0.5155(4) 0.7354(4) 0.3556(3)
O4A O 0.6794(4) 0.6530(4) 0.4175(2)
O7B O 0.6018(4) 0.4758(3) 0.4976(2)
loop_
_geom_bond_atom_site_label_1
_geom_bond_atom_site_label_2
_geom_bond_site_symmetry_1
_geom_bond_site_symmetry_2
Yb1 N1 1_555 1_555
C1 C2 1_555 1_555
C2 C3 1_555 1_555
C3 C4 1_555 1_555
C4 C5 1_555 1_555
C5 C6 1_555 1_555
C6 C7 1_555 1_555
C7 C2 1_555 1_555
H1 C7 1_555 1_555
C8 C3 1_555 1_555
C9 C8 1_555 1_555
C10 C9 1_555 1_555
H2 C10 1_555 1_555
H3 C4 1_555 1_555
C11 C10 1_555 1_555
H4 C11 1_555 1_555
C12 C11 1_555 1_555
H5 C12 1_555 1_555
C13 C12 1_555 1_555
H6 C13 1_555 1_555
C14 C9 1_555 1_555
H7 C14 1_555 1_555
C15 C5 1_555 1_555
C16 C15 1_555 1_555
C17 C16 1_555 1_555
H8 C17 1_555 1_555
C18 C17 1_555 1_555
H9 C18 1_555 1_555
C19 C18 1_555 1_555
H10 C19 1_555 1_555
C20 C19 1_555 1_555
H11 C20 1_555 1_555
C21 C16 1_555 1_555
H12 C21 1_555 1_555
C22 C6 1_555 1_555
C23 H13 1_555 1_555
C24 C23 1_555 1_555
H14 C24 1_555 1_555
C25 C24 1_555 1_555
H15 C25 1_555 1_555
C26 C25 1_555 1_555
C27 C26 1_555 1_555
H16 C27 1_555 1_555
C28 C27 1_555 1_555
H17 C28 1_555 1_555
C29 C28 1_555 1_555
C30 C29 1_555 1_555
H18 C30 1_555 1_555
C31 C30 1_555 1_555
H19 C31 1_555 1_555
C32 C31 1_555 1_555
H20 C32 1_555 1_555
C33 C29 1_555 1_555
C34 C26 1_555 1_555
N1 C23 1_555 1_555
N2 Yb1 1_555 1_555
O1 Yb1 1_555 1_555
O2 Yb1 1_555 1_555
O3 C22 1_555 1_555
O4 C22 1_555 1_555
O5 C15 1_555 1_555
O6 C8 1_555 1_555
O7 Yb1 1_555 1_555
Yb1A O3 1_555 1_555
Yb1B O7 1_555 1_555
O3A Yb1 1_555 1_555
O4A Yb1 1_555 1_555
O7B Yb1 1_555 1_555
C1 O1 1_555 1_555
C1 O2 1_555 1_555
C13 C14 1_555 1_555
C20 C21 1_555 1_555
C32 N2 1_555 1_555
C33 C34 1_555 1_555
C33 N2 1_555 1_555
C34 N1 1_555 1_555
O4 Yb1A 1_555 1_555
Yb1B O7B 1_555 1_555

#END
