
#######################################################################
#
#                 Cambridge Crystallographic Data Centre
#                                CCDC 
#
#######################################################################
#
# If this CIF has been generated from an entry in the Cambridge 
# Structural Database, then it will include bibliographic, chemical, 
# crystal, experimental, refinement or atomic coordinate data resulting 
# from the CCDC's data processing and validation procedures.
#
#######################################################################

data_HIGYAZ
_symmetry_cell_setting           monoclinic
_symmetry_space_group_name_H-M   'P 21/c'
_symmetry_Int_Tables_number      14
_space_group_name_Hall           '-P 2ybc'
loop_
_symmetry_equiv_pos_site_id
_symmetry_equiv_pos_as_xyz
1 x,y,z
2 -x,1/2+y,1/2-z
3 -x,-y,-z
4 x,1/2-y,1/2+z
_cell_length_a                   11.9684(6)
_cell_length_b                   12.6499(4)
_cell_length_c                   19.6347(17)
_cell_angle_alpha                90
_cell_angle_beta                 108.000(6)
_cell_angle_gamma                90
_cell_volume                     2827.18
loop_
_atom_site_label
_atom_site_type_symbol
_atom_site_fract_x
_atom_site_fract_y
_atom_site_fract_z
Dy1 Dy 0.507710(19) 0.398114(16) 0.568040(12)
C1 C 0.6321(4) 0.4935(4) 0.6959(3)
C2 C 0.6307(5) 0.7714(4) 0.8745(3)
C3 C 0.6955(4) 0.5463(4) 0.7655(3)
C4 C 0.6422(4) 0.6308(4) 0.7878(3)
H1 H 0.5668 0.6507 0.7605
C5 C 0.6987(4) 0.6873(4) 0.8503(3)
C6 C 0.8116(4) 0.6575(4) 0.8902(3)
C7 C 0.8627(4) 0.5710(4) 0.8692(3)
H2 H 0.9375 0.5507 0.8972
C8 C 0.8076(4) 0.5134(4) 0.8086(3)
C9 C 0.8718(5) 0.4171(4) 0.7937(3)
C10 C 0.8191(5) 0.3107(4) 0.7985(3)
C11 C 0.7244(5) 0.2960(5) 0.8226(3)
H3 H 0.6895 0.3542 0.8367
C12 C 0.6794(6) 0.1951(5) 0.8262(4)
H4 H 0.6153 0.1857 0.8429
C13 C 0.7309(6) 0.1105(6) 0.8049(4)
H5 H 0.7001 0.0432 0.8059
C14 C 0.8243(6) 0.1223(6) 0.7826(4)
H6 H 0.8583 0.0630 0.7692
C15 C 0.8731(6) 0.2236(5) 0.7789(3)
H7 H 0.9391 0.2314 0.7638
C16 C 0.8824(4) 0.7118(4) 0.9592(3)
C17 C 0.9620(4) 0.7983(4) 0.9529(3)
C18 C 0.9588(5) 0.8395(4) 0.8874(3)
H8 H 0.9056 0.8128 0.8458
C19 C 1.0333(5) 0.9194(5) 0.8832(4)
H9 H 1.0317 0.9464 0.8389
C20 C 1.1104(5) 0.9593(5) 0.9447(4)
H10 H 1.1595 1.0149 0.9419
C21 C 1.1160(5) 0.9192(5) 1.0091(4)
H11 H 1.1698 0.9463 1.0503
C22 C 1.0418(5) 0.8378(4) 1.0142(3)
H12 H 1.0458 0.8099 1.0587
C23 C 0.3091(5) 0.2948(5) 0.4161(3)
H13 H 0.2687 0.3551 0.4221
C24 C 0.2547(6) 0.2264(6) 0.3597(4)
H14 H 0.1794 0.2404 0.3296
C25 C 0.3141(6) 0.1388(6) 0.3497(4)
H15 H 0.2801 0.0930 0.3119
C26 C 0.4244(6) 0.1186(5) 0.3956(4)
C27 C 0.4758(5) 0.1912(4) 0.4506(3)
C28 C 0.5890(5) 0.1720(4) 0.4999(3)
C29 C 0.6507(5) 0.0807(4) 0.4931(4)
C30 C 0.5965(6) 0.0070(6) 0.4377(4)
H16 H 0.6359 -0.0551 0.4341
C31 C 0.4924(6) 0.0246(6) 0.3918(4)
H17 H 0.4611 -0.0245 0.3556
C32 C 0.7617(6) 0.0645(5) 0.5426(4)
H18 H 0.8050 0.0045 0.5397
C33 C 0.8055(5) 0.1366(5) 0.5947(4)
H19 H 0.8791 0.1266 0.6282
C34 C 0.7402(5) 0.2256(4) 0.5980(3)
H20 H 0.7724 0.2750 0.6339
N1 N 0.4147(4) 0.2782(3) 0.4612(2)
N2 N 0.6342(4) 0.2443(3) 0.5528(2)
O1 O 0.6877(3) 0.4348(3) 0.66624(18)
O2 O 0.5248(3) 0.5132(3) 0.66764(19)
O3 O 0.5207(3) 0.7640(3) 0.8540(2)
O4 O 0.6838(3) 0.8419(3) 0.9175(2)
O5 O 0.9663(3) 0.4285(3) 0.7859(2)
O6 O 0.8797(4) 0.6772(3) 1.0159(2)
O7 O 0.3969(3) 0.5263(2) 0.50205(18)
Dy1A Dy 0.492290(19) 0.898114(16) 0.931960(12)
Dy1B Dy 0.492290(19) 0.601886(16) 0.431960(12)
O3A O 0.4793(3) 0.2640(3) 0.6460(2)
O4A O 0.3162(3) 0.3419(3) 0.5825(2)
O7B O 0.6031(3) 0.4737(2) 0.49795(18)
loop_
_geom_bond_atom_site_label_1
_geom_bond_atom_site_label_2
_geom_bond_site_symmetry_1
_geom_bond_site_symmetry_2
Dy1 N1 1_555 1_555
C1 C3 1_555 1_555
C2 C5 1_555 1_555
C3 C4 1_555 1_555
C4 H1 1_555 1_555
C5 C4 1_555 1_555
C6 C5 1_555 1_555
C7 C6 1_555 1_555
H2 C7 1_555 1_555
C8 C3 1_555 1_555
C9 C8 1_555 1_555
C10 C9 1_555 1_555
C11 C10 1_555 1_555
H3 C11 1_555 1_555
C12 C11 1_555 1_555
H4 C12 1_555 1_555
C13 C12 1_555 1_555
H5 C13 1_555 1_555
C14 C13 1_555 1_555
H6 C14 1_555 1_555
C15 C10 1_555 1_555
H7 C15 1_555 1_555
C16 C6 1_555 1_555
C17 C16 1_555 1_555
C18 C17 1_555 1_555
H8 C18 1_555 1_555
C19 C18 1_555 1_555
H9 C19 1_555 1_555
C20 C19 1_555 1_555
H10 C20 1_555 1_555
C21 C20 1_555 1_555
H11 C21 1_555 1_555
C22 C17 1_555 1_555
H12 C22 1_555 1_555
C23 H13 1_555 1_555
C24 C23 1_555 1_555
H14 C24 1_555 1_555
C25 C24 1_555 1_555
H15 C25 1_555 1_555
C26 C25 1_555 1_555
C27 C26 1_555 1_555
C28 C27 1_555 1_555
C29 C28 1_555 1_555
C30 C29 1_555 1_555
H16 C30 1_555 1_555
C31 C26 1_555 1_555
H17 C31 1_555 1_555
C32 C29 1_555 1_555
H18 C32 1_555 1_555
C33 C32 1_555 1_555
H19 C33 1_555 1_555
C34 C33 1_555 1_555
H20 C34 1_555 1_555
N1 C23 1_555 1_555
N2 Dy1 1_555 1_555
O1 Dy1 1_555 1_555
O2 Dy1 1_555 1_555
O3 C2 1_555 1_555
O4 C2 1_555 1_555
O5 C9 1_555 1_555
O6 C16 1_555 1_555
O7 Dy1 1_555 1_555
Dy1A O3 1_555 1_555
Dy1B O7 1_555 1_555
O3A Dy1 1_555 1_555
O4A Dy1 1_555 1_555
O7B Dy1 1_555 1_555
C1 O1 1_555 1_555
C1 O2 1_555 1_555
C7 C8 1_555 1_555
C14 C15 1_555 1_555
C21 C22 1_555 1_555
C27 N1 1_555 1_555
C28 N2 1_555 1_555
C30 C31 1_555 1_555
C34 N2 1_555 1_555
O4 Dy1A 1_555 1_555
Dy1B O7B 1_555 1_555

#END
