
#######################################################################
#
#                 Cambridge Crystallographic Data Centre
#                                CCDC 
#
#######################################################################
#
# If this CIF has been generated from an entry in the Cambridge 
# Structural Database, then it will include bibliographic, chemical, 
# crystal, experimental, refinement or atomic coordinate data resulting 
# from the CCDC's data processing and validation procedures.
#
#######################################################################

data_HIHCEI
_symmetry_cell_setting           orthorhombic
_symmetry_space_group_name_H-M   'P b c a'
_symmetry_Int_Tables_number      61
_space_group_name_Hall           '-P 2ac 2ab'
loop_
_symmetry_equiv_pos_site_id
_symmetry_equiv_pos_as_xyz
1 x,y,z
2 1/2-x,-y,1/2+z
3 -x,1/2+y,1/2-z
4 1/2+x,1/2-y,-z
5 -x,-y,-z
6 1/2+x,y,1/2-z
7 x,1/2-y,1/2+z
8 1/2-x,1/2+y,z
_cell_length_a                   14.4058(13)
_cell_length_b                   20.5848(18)
_cell_length_c                   21.7051(19)
_cell_angle_alpha                90
_cell_angle_beta                 90
_cell_angle_gamma                90
_cell_volume                     6436.44
loop_
_atom_site_label
_atom_site_type_symbol
_atom_site_fract_x
_atom_site_fract_y
_atom_site_fract_z
Bi1 Bi 0.752029(14) -0.028318(8) 0.390385(9)
Bi2 Bi 0.530066(14) 0.105181(8) 0.500881(9)
Cd1 Cd 0.72691(3) 0.202386(19) 0.32946(2)
C1 C 0.9679(4) -0.0237(3) 0.3820(3)
C2 C 0.7364(4) 0.0925(2) 0.4929(2)
C3 C 0.9517(4) 0.0312(3) 0.4257(3)
C4 C 1.0208(4) 0.0708(3) 0.4499(3)
H1 H 1.0826 0.0640 0.4394
C5 C 0.9973(5) 0.1195(3) 0.4889(3)
H2 H 1.0432 0.1460 0.5056
C6 C 0.9052(4) 0.1299(3) 0.5039(3)
H3 H 0.8883 0.1638 0.5299
C7 C 0.8389(4) 0.0889(2) 0.4796(2)
C8 C 0.7452(4) -0.1534(2) 0.2919(3)
C9 C 0.7316(4) 0.0773(2) 0.2780(3)
C10 C 0.7371(4) 0.0151(2) 0.2422(2)
C11 C 0.7422(4) 0.0137(3) 0.1780(2)
H4 H 0.7418 0.0519 0.1551
C12 C 0.7479(4) -0.0456(3) 0.1501(3)
H5 H 0.7521 -0.0484 0.1074
C13 C 0.7473(4) -0.1016(3) 0.1858(3)
H6 H 0.7497 -0.1422 0.1670
C14 C 0.7434(4) -0.0970(2) 0.2487(2)
C15 C 0.5419(4) 0.1945(2) 0.3724(3)
C16 C 0.3036(4) 0.1129(2) 0.5037(2)
C17 C 0.3223(4) 0.1524(2) 0.4469(2)
C18 C 0.2543(4) 0.1798(2) 0.4110(2)
H7 H 0.1919 0.1751 0.4211
C19 C 0.2812(4) 0.2148(2) 0.3592(2)
H8 H 0.2368 0.2340 0.3340
C20 C 0.3739(4) 0.2208(2) 0.3455(3)
H9 H 0.3926 0.2439 0.3109
C21 C 0.4391(4) 0.1923(2) 0.3836(2)
C22 C 0.5142(4) -0.0043(2) 0.6211(3)
C23 C 0.5329(4) 0.2265(2) 0.5910(3)
C24 C 0.5162(4) 0.0615(2) 0.6529(2)
C25 C 0.5094(4) 0.0691(3) 0.7151(3)
H10 H 0.5019 0.0332 0.7406
C26 C 0.5137(4) 0.1308(3) 0.7397(3)
H11 H 0.5099 0.1369 0.7821
C27 C 0.5238(4) 0.1835(3) 0.7008(3)
H12 H 0.5272 0.2254 0.7166
C28 C 0.5288(4) 0.1726(2) 0.6381(2)
N1 N 0.8637(3) 0.04071(18) 0.44097(19)
N2 N 0.7392(3) -0.03860(17) 0.2761(2)
N3 N 0.4131(3) 0.15882(17) 0.43398(18)
N4 N 0.5262(3) 0.11259(18) 0.61459(19)
O1 O 0.8941(3) -0.05369(18) 0.36240(18)
O2 O 0.8809(3) 0.1814(2) 0.3268(2)
H13 H 0.9093 0.2082 0.3499
H14 H 0.9012 0.1513 0.3029
O3 O 0.7585(3) 0.24861(19) 0.4233(2)
H15 H 0.7467 0.2314 0.4581
H16 H 0.7838 0.2854 0.4288
O4 O 1.0459(3) -0.0390(2) 0.3683(2)
O5 O 0.7057(3) 0.13836(18) 0.52521(18)
O6 O 0.6869(3) 0.04772(17) 0.47178(17)
O7 O 0.7383(3) -0.14167(16) 0.34877(18)
O8 O 0.7527(3) -0.20861(15) 0.2688(2)
O9 O 0.7425(3) 0.07446(15) 0.33570(16)
O10 O 0.7151(3) 0.12884(16) 0.25052(18)
O11 O 0.5949(3) 0.16884(16) 0.41121(16)
O12 O 0.5705(3) 0.22202(19) 0.32497(18)
O13 O 0.3727(2) 0.09480(15) 0.53579(16)
O14 O 0.2213(3) 0.09855(18) 0.51712(18)
O15 O 0.5274(3) -0.00450(15) 0.56340(17)
O16 O 0.4999(4) -0.05227(19) 0.6523(2)
O17 O 0.5276(3) 0.21065(16) 0.53432(17)
O18 O 0.5393(3) 0.28249(16) 0.61036(18)
Bi1D Bi 0.247971(14) 0.028318(8) 0.609615(9)
Bi2D Bi 0.469934(14) -0.105181(8) 0.499119(9)
Cd1G Cd 0.77309(3) -0.297614(19) 0.32946(2)
O8G O 0.7473(3) 0.29139(15) 0.2688(2)
O13D O 0.6273(2) -0.09480(15) 0.46421(16)
O14D O 0.7787(3) -0.09855(18) 0.48288(18)
O15D O 0.4726(3) 0.00450(15) 0.43660(17)
O19 O 0.9922(4) 0.0956(3) 0.2718(2)
H17 H 1.044(3) 0.115(4) 0.270(3)
H18 H 0.979(5) 0.084(4) 0.2354(16)
loop_
_geom_bond_atom_site_label_1
_geom_bond_atom_site_label_2
_geom_bond_site_symmetry_1
_geom_bond_site_symmetry_2
Bi1 N1 1_555 1_555
Bi2 N3 1_555 1_555
Cd1 O2 1_555 1_555
C1 C3 1_555 1_555
C2 C7 1_555 1_555
C3 C4 1_555 1_555
C4 H1 1_555 1_555
C5 C4 1_555 1_555
H2 C5 1_555 1_555
C6 C5 1_555 1_555
H3 C6 1_555 1_555
C7 C6 1_555 1_555
C8 C14 1_555 1_555
C9 C10 1_555 1_555
C10 C11 1_555 1_555
C11 H4 1_555 1_555
C12 C11 1_555 1_555
H5 C12 1_555 1_555
C13 C12 1_555 1_555
H6 C13 1_555 1_555
C14 C13 1_555 1_555
C15 C21 1_555 1_555
C16 C17 1_555 1_555
C17 C18 1_555 1_555
C18 H7 1_555 1_555
C19 C18 1_555 1_555
H8 C19 1_555 1_555
C20 C19 1_555 1_555
H9 C20 1_555 1_555
C21 C20 1_555 1_555
C22 C24 1_555 1_555
C23 C28 1_555 1_555
C24 C25 1_555 1_555
C25 H10 1_555 1_555
C26 C25 1_555 1_555
H11 C26 1_555 1_555
C27 C26 1_555 1_555
H12 C27 1_555 1_555
C28 C27 1_555 1_555
N1 C3 1_555 1_555
N2 Bi1 1_555 1_555
N3 C17 1_555 1_555
N4 Bi2 1_555 1_555
O1 Bi1 1_555 1_555
O2 H13 1_555 1_555
H14 O2 1_555 1_555
O3 Cd1 1_555 1_555
H15 O3 1_555 1_555
H16 O3 1_555 1_555
O4 C1 1_555 1_555
O5 Bi2 1_555 1_555
O6 Bi1 1_555 1_555
O7 Bi1 1_555 1_555
O8 C8 1_555 1_555
O9 Bi1 1_555 1_555
O10 Cd1 1_555 1_555
O11 Bi2 1_555 1_555
O12 Cd1 1_555 1_555
O13 Bi2 1_555 1_555
O14 C16 1_555 1_555
O15 Bi2 1_555 1_555
O16 C22 1_555 1_555
O17 Bi2 1_555 1_555
O18 C23 1_555 1_555
O19 H17 1_555 1_555
H18 O19 1_555 1_555
Bi1D O13 1_555 1_555
Bi2D O15 1_555 1_555
Cd1G O8 1_555 1_555
O8G Cd1 1_555 1_555
O13D Bi1 1_555 1_555
O14D Bi1 1_555 1_555
O15D Bi2 1_555 1_555
Bi2 O6 1_555 1_555
Cd1 O9 1_555 1_555
Cd1 O11 1_555 1_555
C1 O1 1_555 1_555
C2 O5 1_555 1_555
C2 O6 1_555 1_555
C7 N1 1_555 1_555
C8 O7 1_555 1_555
C9 O9 1_555 1_555
C9 O10 1_555 1_555
C10 N2 1_555 1_555
C14 N2 1_555 1_555
C15 O11 1_555 1_555
C15 O12 1_555 1_555
C16 O13 1_555 1_555
C21 N3 1_555 1_555
C22 O15 1_555 1_555
C23 O17 1_555 1_555
C24 N4 1_555 1_555
C28 N4 1_555 1_555
O14 Bi1D 1_555 1_555
Bi2D O13D 1_555 1_555
Bi2D O15D 1_555 1_555

#END
