
#######################################################################
#
#                 Cambridge Crystallographic Data Centre
#                                CCDC 
#
#######################################################################
#
# If this CIF has been generated from an entry in the Cambridge 
# Structural Database, then it will include bibliographic, chemical, 
# crystal, experimental, refinement or atomic coordinate data resulting 
# from the CCDC's data processing and validation procedures.
#
#######################################################################

data_HIHFOV
_symmetry_cell_setting           monoclinic
_symmetry_space_group_name_H-M   'C c'
_symmetry_Int_Tables_number      9
_space_group_name_Hall           'C -2yc'
loop_
_symmetry_equiv_pos_site_id
_symmetry_equiv_pos_as_xyz
1 x,y,z
2 x,-y,1/2+z
3 1/2+x,1/2+y,z
4 1/2+x,1/2-y,1/2+z
_cell_length_a                   23.9544(6)
_cell_length_b                   9.6535(2)
_cell_length_c                   17.2072(4)
_cell_angle_alpha                90
_cell_angle_beta                 107.043(2)
_cell_angle_gamma                90
_cell_volume                     3804.32
loop_
_atom_site_label
_atom_site_type_symbol
_atom_site_fract_x
_atom_site_fract_y
_atom_site_fract_z
C1 C 1.03734(8) 0.19580(19) 0.28301(10)
H1 H 1.0071 0.1732 0.2369
C2 C 1.08837(10) 0.2666(3) 0.28115(13)
H2 H 1.0972 0.2999 0.2354
C3 C 1.12232(8) 0.2764(2) 0.36026(12)
H3 H 1.1592 0.3163 0.3787
C4 C 1.09048(7) 0.21424(17) 0.40877(10)
C5 C 1.10910(7) 0.19958(17) 0.49370(10)
C6 C 1.07804(8) 0.1377(2) 0.54185(11)
C7 C 1.09305(10) 0.1399(3) 0.62864(12)
H4 H 1.1272 0.1758 0.6638
C8 C 1.04846(11) 0.0799(3) 0.65057(12)
H5 H 1.0458 0.0676 0.7030
C9 C 1.00658(9) 0.0401(2) 0.57621(11)
H6 H 0.9714 -0.0034 0.5735
C10 C 1.16803(7) 0.25741(18) 0.53801(10)
C11 C 1.17738(8) 0.3999(2) 0.54463(12)
H7 H 1.1468 0.4603 0.5213
C12 C 1.23193(9) 0.45230(19) 0.58576(13)
H8 H 1.2376 0.5475 0.5914
C13 C 1.27785(7) 0.36317(18) 0.61837(10)
C14 C 1.26973(8) 0.22049(19) 0.61129(12)
H9 H 1.3009 0.1606 0.6327
C15 C 1.21477(8) 0.1685(2) 0.57193(12)
H10 H 1.2090 0.0731 0.5681
C16 C 1.37107(8) 0.36941(19) 0.73034(11)
H11 H 1.3656 0.2864 0.7545
C17 C 1.40765(9) 0.5601(2) 0.70530(13)
H12 H 1.4330 0.6344 0.7092
C18 C 1.35693(11) 0.5425(2) 0.64444(14)
H13 H 1.3411 0.6018 0.6009
C19 C 0.94187(8) 0.36063(18) 0.38520(12)
H14 H 0.9791 0.3850 0.3836
C20 C 0.89500(11) 0.45487(19) 0.37323(17)
H15 H 0.8959 0.5494 0.3633
C21 C 0.84807(9) 0.37953(19) 0.37909(14)
H16 H 0.8107 0.4128 0.3736
C22 C 0.86768(7) 0.23977(17) 0.39520(11)
C23 C 0.83352(7) 0.12471(16) 0.40215(10)
C24 C 0.85258(6) -0.01252(16) 0.41650(10)
C25 C 0.82066(7) -0.12372(17) 0.43890(11)
H17 H 0.7820 -0.1215 0.4394
C26 C 0.85814(8) -0.23372(18) 0.45946(12)
H18 H 0.8503 -0.3204 0.4774
C27 C 0.91151(7) -0.18797(17) 0.44774(10)
H19 H 0.9447 -0.2431 0.4571
C28 C 0.77035(7) 0.15271(17) 0.39321(10)
C29 C 0.75444(7) 0.23730(18) 0.44876(11)
H20 H 0.7831 0.2761 0.4920
C30 C 0.69585(7) 0.26403(18) 0.43990(11)
H21 H 0.6853 0.3185 0.4779
C31 C 0.65336(7) 0.20935(17) 0.37443(10)
C32 C 0.66845(8) 0.12462(19) 0.31828(11)
H22 H 0.6397 0.0879 0.2744
C33 C 0.72689(8) 0.09553(19) 0.32845(11)
H23 H 0.7372 0.0374 0.2918
C34 C 0.57347(7) 0.36616(18) 0.38193(11)
H24 H 0.5973 0.4422 0.4014
C35 C 0.49888(7) 0.23444(19) 0.33907(12)
H25 H 0.4605 0.2033 0.3236
C36 C 0.54579(8) 0.15641(19) 0.33668(12)
H26 H 0.5456 0.0649 0.3197
N1 N 1.03741(6) 0.16508(14) 0.35833(8)
N2 N 1.02347(8) 0.07221(16) 0.51117(10)
N3 N 1.33389(6) 0.41889(16) 0.66064(9)
N4 N 1.41612(7) 0.45258(15) 0.76017(10)
N5 N 0.92626(6) 0.23272(14) 0.39899(9)
N6 N 0.90884(6) -0.05776(13) 0.42191(8)
N7 N 0.59328(6) 0.24148(15) 0.36469(9)
N8 N 0.51622(6) 0.36605(15) 0.36766(9)
Ni1 Ni 0.972438(8) 0.055049(18) 0.389615(9)
N4C N 0.91612(7) 0.04742(15) 0.26017(10)
N8B N 1.01622(6) -0.13395(15) 0.36766(9)
Ni1B Ni 0.472438(8) 0.555049(18) 0.389615(9)
Ni1C Ni 1.472438(8) 0.444951(18) 0.889615(9)
C37 C 0.40350(16) 0.8730(3) 0.58983(17)
H27 H 0.4087 0.7954 0.5607
C38 C 0.44193(18) 1.0820(4) 0.6579(3)
H28 H 0.4123 1.0669 0.6845
H29 H 0.4313 1.1598 0.6219
H30 H 0.4786 1.1002 0.6980
C39 C 0.5017(2) 0.9467(5) 0.5919(3)
H31 H 0.5337 0.9404 0.6408
H32 H 0.5071 1.0256 0.5609
H33 H 0.5001 0.8641 0.5602
N9 N 0.44721(11) 0.9617(2) 0.61262(14)
O1 O 0.35643(13) 0.8854(3) 0.60433(16)
C40 C 0.0911(5) 0.2448(11) 0.0702(5)
H34 H 0.0803 0.1794 0.1052
H35 H 0.1023 0.1961 0.0285
H36 H 0.0585 0.3040 0.0456
O2 O 0.1383(3) 0.3256(6) 0.1159(4)
H37 H 0.1600 0.2776 0.1516
C41? C 0.2676(5) 0.1519(11) 0.2275(5)
H38? H 0.2957 0.2161 0.2592
H39? H 0.2838 0.0602 0.2344
H40? H 0.2332 0.1538 0.2453
O3? O 0.25305(19) 0.1889(5) 0.1458(2)
H41? H 0.2792 0.1647 0.1269
C42? C 0.1683(4) 0.1665(7) 0.1632(4)
O4? O 0.1751(4) 0.2439(7) 0.1107(4)
H42? H 0.1309 0.1376 0.1614
C43? C 0.2715(5) 0.2114(12) 0.2339(8)
H43? H 0.2809 0.2123 0.1834
H44? H 0.3033 0.1713 0.2755
H45? H 0.2649 0.3045 0.2488
C44? C 0.2048(4) 0.0293(9) 0.2859(5)
H46? H 0.1639 0.0270 0.2816
H47? H 0.2264 0.0621 0.3389
H48? H 0.2178 -0.0622 0.2779
N10? N 0.2145(3) 0.1225(6) 0.2240(4)
loop_
_geom_bond_atom_site_label_1
_geom_bond_atom_site_label_2
_geom_bond_site_symmetry_1
_geom_bond_site_symmetry_2
C1 H1 1_555 1_555
C2 C1 1_555 1_555
H2 C2 1_555 1_555
C3 C2 1_555 1_555
H3 C3 1_555 1_555
C4 C3 1_555 1_555
C5 C4 1_555 1_555
C6 C5 1_555 1_555
C7 C6 1_555 1_555
H4 C7 1_555 1_555
C8 C7 1_555 1_555
H5 C8 1_555 1_555
C9 C8 1_555 1_555
H6 C9 1_555 1_555
C10 C5 1_555 1_555
C11 C10 1_555 1_555
H7 C11 1_555 1_555
C12 C11 1_555 1_555
H8 C12 1_555 1_555
C13 C12 1_555 1_555
C14 C13 1_555 1_555
H9 C14 1_555 1_555
C15 C10 1_555 1_555
H10 C15 1_555 1_555
C16 H11 1_555 1_555
C17 H12 1_555 1_555
C18 C17 1_555 1_555
H13 C18 1_555 1_555
C19 H14 1_555 1_555
C20 C19 1_555 1_555
H15 C20 1_555 1_555
C21 C20 1_555 1_555
H16 C21 1_555 1_555
C22 C21 1_555 1_555
C23 C22 1_555 1_555
C24 C23 1_555 1_555
C25 C24 1_555 1_555
H17 C25 1_555 1_555
C26 C25 1_555 1_555
H18 C26 1_555 1_555
C27 C26 1_555 1_555
H19 C27 1_555 1_555
C28 C23 1_555 1_555
C29 C28 1_555 1_555
H20 C29 1_555 1_555
C30 C29 1_555 1_555
H21 C30 1_555 1_555
C31 C30 1_555 1_555
C32 C31 1_555 1_555
H22 C32 1_555 1_555
C33 C28 1_555 1_555
H23 C33 1_555 1_555
C34 H24 1_555 1_555
C35 H25 1_555 1_555
C36 C35 1_555 1_555
H26 C36 1_555 1_555
N1 C1 1_555 1_555
N2 C6 1_555 1_555
N3 C13 1_555 1_555
N4 C16 1_555 1_555
N5 C19 1_555 1_555
N6 C24 1_555 1_555
N7 C31 1_555 1_555
N8 C34 1_555 1_555
Ni1 N1 1_555 1_555
C37 H27 1_555 1_555
C38 H28 1_555 1_555
H29 C38 1_555 1_555
H30 C38 1_555 1_555
C39 H31 1_555 1_555
H32 C39 1_555 1_555
H33 C39 1_555 1_555
N9 C37 1_555 1_555
O1 C37 1_555 1_555
C40 H34 1_555 1_555
H35 C40 1_555 1_555
H36 C40 1_555 1_555
O2 C40 1_555 1_555
H37 O2 1_555 1_555
N4C Ni1 1_555 1_555
N8B Ni1 1_555 1_555
Ni1B N8 1_555 1_555
Ni1C N4 1_555 1_555
C4 N1 1_555 1_555
C9 N2 1_555 1_555
C14 C15 1_555 1_555
C16 N3 1_555 1_555
C17 N4 1_555 1_555
C18 N3 1_555 1_555
C22 N5 1_555 1_555
C27 N6 1_555 1_555
C32 C33 1_555 1_555
C34 N7 1_555 1_555
C35 N8 1_555 1_555
C36 N7 1_555 1_555
N2 Ni1 1_555 1_555
N5 Ni1 1_555 1_555
N6 Ni1 1_555 1_555
C38 N9 1_555 1_555
C39 N9 1_555 1_555

#END
