
#######################################################################
#
#                 Cambridge Crystallographic Data Centre
#                                CCDC 
#
#######################################################################
#
# If this CIF has been generated from an entry in the Cambridge 
# Structural Database, then it will include bibliographic, chemical, 
# crystal, experimental, refinement or atomic coordinate data resulting 
# from the CCDC's data processing and validation procedures.
#
#######################################################################

data_HIHHUC
_symmetry_cell_setting           triclinic
_symmetry_space_group_name_H-M   'P -1'
_symmetry_Int_Tables_number      2
_space_group_name_Hall           '-P 1'
loop_
_symmetry_equiv_pos_site_id
_symmetry_equiv_pos_as_xyz
1 x,y,z
2 -x,-y,-z
_cell_length_a                   8.336(2)
_cell_length_b                   8.7050(15)
_cell_length_c                   11.750(3)
_cell_angle_alpha                96.171(8)
_cell_angle_beta                 106.499(10)
_cell_angle_gamma                90.649(12)
_cell_volume                     812.009
loop_
_atom_site_label
_atom_site_type_symbol
_atom_site_fract_x
_atom_site_fract_y
_atom_site_fract_z
Pb1 Pb 0.08072(8) 1.01808(6) 0.21351(5)
Pb2 Pb 0.06525(8) 1.50686(6) 0.72164(5)
O1 O -0.0674(15) 1.2995(13) -0.1304(10)
O2 O 0.0511(15) 1.2042(13) 0.6263(11)
O3 O 0.3016(18) 1.7099(14) 0.6909(11)
O4 O 0.0944(14) 1.2584(12) 0.3718(9)
O5 O -0.0869(15) 1.2505(12) 0.1262(9)
O6 O -0.1723(17) 1.0311(12) 0.0082(10)
O7 O -0.1896(17) 1.4989(13) -0.2156(11)
O8 O 0.320(2) 1.2150(15) 0.2050(13)
O9 O 0.1704(19) 0.9977(14) 0.7095(12)
O10 O 0.1796(16) 1.4763(12) 0.4965(11)
C1 C -0.182(2) 1.3831(19) -0.1527(13)
C2 C 0.171(3) 1.1185(19) 0.6500(16)
C3 C -0.336(2) 1.3536(18) -0.1142(14)
C4 C 0.1874(19) 1.3338(15) 0.4635(13)
C5 C -0.191(2) 1.173(2) 0.0363(14)
C6 C -0.343(2) 1.2481(19) -0.0310(13)
C7 C 0.336(2) 1.2535(16) 0.5354(13)
C8 C 0.493(2) 1.279(2) 0.5200(15)
H1 H 0.5057 1.3530 0.4691
C9 C 0.327(2) 1.1454(17) 0.6142(13)
C10 C 0.477(2) 1.0733(17) 0.6703(14)
H2 H 0.4721 1.0025 0.7255
N1 N -0.6362(17) 1.3951(14) -0.1426(11)
N2 N 0.6198(18) 1.0985(16) 0.6508(12)
C11 C 0.630(2) 1.2010(19) 0.5754(14)
H3 H 0.7343 1.2199 0.5601
C12 C -0.490(2) 1.2156(17) -0.0060(14)
H4 H -0.4945 1.1453 0.0496
C13 C -0.633(2) 1.2893(19) -0.0650(16)
H5 H -0.7354 1.2635 -0.0497
C14 C -0.488(2) 1.4187(17) -0.1673(14)
H6 H -0.4881 1.4856 -0.2260
Pb1A Pb -0.08072(8) 0.98192(6) 0.78649(5)
Pb2A Pb -0.06525(8) 1.49314(6) 0.27836(5)
Pb2_2 Pb 0.06525(8) 1.50686(6) -0.27836(5)
Pb2_3 Pb -0.93475(8) 1.50686(6) -0.27836(5)
O4A O -0.0944(14) 1.7416(12) 0.6282(9)
O5A O 0.0869(15) 1.7495(12) 0.8738(9)
O7_2 O -0.1896(17) 1.4989(13) 0.7844(11)
O9A O -0.1704(19) 1.0023(14) 0.2905(12)
N1_2 N 0.3638(17) 1.3951(14) 0.8574(11)
loop_
_geom_bond_atom_site_label_1
_geom_bond_atom_site_label_2
_geom_bond_site_symmetry_1
_geom_bond_site_symmetry_2
Pb1 O4 1_555 1_555
Pb2 O2 1_555 1_555
O1 C1 1_555 1_555
O2 C2 1_555 1_555
O3 Pb2 1_555 1_555
O4 C4 1_555 1_555
O5 Pb1 1_555 1_555
O6 Pb1 1_555 1_555
O7 C1 1_555 1_555
O8 Pb1 1_555 1_555
O9 C2 1_555 1_555
O10 C4 1_555 1_555
C1 C3 1_555 1_555
C2 C9 1_555 1_555
C3 C6 1_555 1_555
C4 C7 1_555 1_555
C5 O5 1_555 1_555
C6 C5 1_555 1_555
C7 C8 1_555 1_555
C8 H1 1_555 1_555
C9 C7 1_555 1_555
C10 C9 1_555 1_555
H2 C10 1_555 1_555
N1 C13 1_555 1_555
N2 C10 1_555 1_555
C11 C8 1_555 1_555
H3 C11 1_555 1_555
C12 C6 1_555 1_555
H4 C12 1_555 1_555
C13 C12 1_555 1_555
H5 C13 1_555 1_555
C14 C3 1_555 1_555
H6 C14 1_555 1_555
Pb1A O9 1_555 1_555
Pb2A O4 1_555 1_555
Pb2_2 O7 1_555 1_555
Pb2_3 N1 1_555 1_555
O4A Pb2 1_555 1_555
O5A Pb2 1_555 1_555
O7_2 Pb2 1_555 1_555
O9A Pb1 1_555 1_555
N1_2 Pb2 1_555 1_555
O5 Pb2A 1_555 1_555
O6 C5 1_555 1_555
N1 C14 1_555 1_555
N2 C11 1_555 1_555

#END
