
#######################################################################
#
#                 Cambridge Crystallographic Data Centre
#                                CCDC 
#
#######################################################################
#
# If this CIF has been generated from an entry in the Cambridge 
# Structural Database, then it will include bibliographic, chemical, 
# crystal, experimental, refinement or atomic coordinate data resulting 
# from the CCDC's data processing and validation procedures.
#
#######################################################################

data_HIHJIS
_symmetry_cell_setting           tetragonal
_symmetry_space_group_name_H-M   'P 43 21 2'
_symmetry_Int_Tables_number      96
_space_group_name_Hall           'P 4nw 2abw'
loop_
_symmetry_equiv_pos_site_id
_symmetry_equiv_pos_as_xyz
1 x,y,z
2 -x,-y,1/2+z
3 1/2-y,1/2+x,3/4+z
4 1/2+y,1/2-x,1/4+z
5 1/2-x,1/2+y,3/4-z
6 1/2+x,1/2-y,1/4-z
7 y,x,-z
8 -y,-x,1/2-z
_cell_length_a                   16.2200(3)
_cell_length_b                   16.2200(3)
_cell_length_c                   16.5630(8)
_cell_angle_alpha                90
_cell_angle_beta                 90
_cell_angle_gamma                90
_cell_volume                     4357.53
loop_
_atom_site_label
_atom_site_type_symbol
_atom_site_fract_x
_atom_site_fract_y
_atom_site_fract_z
O2 O 0.4475(9) -0.0203(9) 0.3661(9)
C2 C 0.4017(17) -0.0410(17) 0.4349(16)
Cu1 Cu 0.41479(6) 0.25972(6) 0.33202(6)
Cl1 Cl 0.35162(17) 0.39115(16) 0.32575(17)
O3 O 0.5031(4) 0.2186(5) 0.2553(4)
O4 O 0.5226(7) 0.1324(10) 0.1555(8)
N1 N 0.3371(5) 0.1976(5) 0.4124(4)
N2 N 0.3432(4) 0.2003(4) 0.2504(4)
N3 N 0.2123(4) 0.0018(5) 0.1586(5)
N4 N 0.1419(4) 0.0912(5) 0.2339(5)
C3 C 0.3477(7) 0.1898(8) 0.4928(6)
H1 H 0.3887 0.2220 0.5189
C4 C 0.3000(8) 0.1358(10) 0.5385(7)
H2 H 0.3076 0.1311 0.5951
C5 C 0.2413(7) 0.0892(8) 0.4987(6)
H3 H 0.2099 0.0494 0.5274
O5 O 0.1043(7) 0.2385(7) 0.1761(7)
C6 C 0.2285(6) 0.1008(6) 0.4166(6)
H4 H 0.1874 0.0703 0.3888
C7 C 0.2763(5) 0.1571(5) 0.3764(5)
C8 C 0.2633(5) 0.1796(5) 0.2881(5)
H5 H 0.2271 0.2295 0.2857
C9 C 0.3303(5) 0.2481(6) 0.1766(5)
H6 H 0.3008 0.2144 0.1370
H7 H 0.3838 0.2646 0.1543
H8 H 0.2977 0.2974 0.1891
C10 C 0.4800(6) 0.1568(8) 0.2161(6)
C11 C 0.3939(5) 0.1249(5) 0.2360(5)
H9 H 0.3981 0.0954 0.2888
C12 C 0.3567(5) 0.0641(5) 0.1755(5)
H10 H 0.3654 0.0841 0.1197
H11 H 0.3833 0.0095 0.1811
C13 C 0.2680(5) 0.0575(5) 0.1927(5)
C14 C 0.2247(5) 0.1129(5) 0.2377(5)
C15 C 0.1378(6) 0.0239(6) 0.1854(6)
H12 H 0.0881 -0.0042 0.1723
C16 C 0.0732(5) 0.1376(7) 0.2609(6)
C17 C 0.0227(6) 0.1021(9) 0.3212(7)
C18 C -0.0462(7) 0.1506(11) 0.3481(9)
H13 H -0.0813 0.1305 0.3896
C19 C -0.0609(7) 0.2268(11) 0.3131(7)
H14 H -0.1058 0.2590 0.3322
C20 C -0.0152(7) 0.2559(11) 0.2551(8)
H15 H -0.0286 0.3073 0.2310
C21 C 0.0539(6) 0.2114(8) 0.2280(7)
Cu1C Cu 0.75972(6) 0.08521(6) 0.58202(6)
Cu1B Cu 0.24028(6) -0.08521(6) 0.08202(6)
Cl1C Cl 0.89115(16) 0.14838(17) 0.57575(17)
O3C O 0.7186(5) -0.0031(4) 0.5053(4)
O4C O 0.6324(10) -0.0226(7) 0.4055(8)
N1C N 0.6976(5) 0.1629(5) 0.6624(4)
N2C N 0.7003(4) 0.1568(4) 0.5004(4)
N3C N 0.5018(5) 0.2877(4) 0.4086(5)
N3A N 0.7877(4) -0.0018(5) 0.6586(5)
N4C N 0.5912(5) 0.3581(4) 0.4839(5)
C3C C 0.6898(8) 0.1523(7) 0.7428(6)
H1C H 0.7220 0.1113 0.7689
C4C C 0.6358(10) 0.2000(8) 0.7885(7)
H2C H 0.6311 0.1924 0.8451
C5C C 0.5892(8) 0.2587(7) 0.7487(6)
H3C H 0.5494 0.2901 0.7774
O5C O 0.7385(7) 0.3957(7) 0.4261(7)
C6C C 0.6008(6) 0.2715(6) 0.6666(6)
H4C H 0.5703 0.3126 0.6388
C7C C 0.6571(5) 0.2237(5) 0.6264(5)
C8C C 0.6796(5) 0.2367(5) 0.5381(5)
H5C H 0.7295 0.2729 0.5357
C9C C 0.7481(6) 0.1697(5) 0.4266(5)
H6C H 0.7144 0.1992 0.3870
H7C H 0.7646 0.1162 0.4043
H8C H 0.7974 0.2023 0.4391
C10C C 0.6568(8) 0.0200(6) 0.4661(6)
C11C C 0.6249(5) 0.1061(5) 0.4860(5)
H9C H 0.5954 0.1019 0.5388
C12C C 0.5641(5) 0.1433(5) 0.4255(5)
H10C H 0.5841 0.1346 0.3697
H11C H 0.5095 0.1167 0.4311
C13C C 0.5575(5) 0.2320(5) 0.4427(5)
C14C C 0.6129(5) 0.2753(5) 0.4877(5)
C15C C 0.5239(6) 0.3622(6) 0.4354(6)
H12C H 0.4958 0.4119 0.4223
C16C C 0.6376(7) 0.4268(5) 0.5109(6)
C17C C 0.6021(9) 0.4773(6) 0.5712(7)
C18C C 0.6506(11) 0.5462(7) 0.5981(9)
H13C H 0.6305 0.5813 0.6396
C19C C 0.7268(11) 0.5609(7) 0.5631(7)
H14C H 0.7590 0.6058 0.5822
C20C C 0.7559(11) 0.5152(7) 0.5051(8)
H15C H 0.8073 0.5286 0.4810
C21C C 0.7114(8) 0.4461(6) 0.4780(7)
O1 O 0.6807(9) 0.3193(9) 0.2500
C1 C 0.7664(17) 0.3295(16) 0.2789(15)
C1G C 0.6705(16) 0.2336(17) 0.2211(15)
O6? O 0.5258(9) 0.0983(13) 0.1822(11)
O7? O 0.0348(11) 0.0413(11) 0.3437(10)
loop_
_geom_bond_atom_site_label_1
_geom_bond_atom_site_label_2
_geom_bond_site_symmetry_1
_geom_bond_site_symmetry_2
O1 C1 1_555 1_555
O2 C2 1_555 1_555
Cu1 Cl1 1_555 1_555
O3 Cu1 1_555 1_555
O4 C10 1_555 1_555
N1 Cu1 1_555 1_555
N2 Cu1 1_555 1_555
N3 C13 1_555 1_555
N4 C14 1_555 1_555
C3 N1 1_555 1_555
H1 C3 1_555 1_555
C4 C3 1_555 1_555
H2 C4 1_555 1_555
C5 C4 1_555 1_555
H3 C5 1_555 1_555
O5 C21 1_555 1_555
C6 C5 1_555 1_555
H4 C6 1_555 1_555
C7 N1 1_555 1_555
C8 N2 1_555 1_555
H5 C8 1_555 1_555
C9 N2 1_555 1_555
H6 C9 1_555 1_555
H7 C9 1_555 1_555
H8 C9 1_555 1_555
C10 O3 1_555 1_555
C11 N2 1_555 1_555
H9 C11 1_555 1_555
C12 C11 1_555 1_555
H10 C12 1_555 1_555
H11 C12 1_555 1_555
C13 C12 1_555 1_555
C14 C8 1_555 1_555
C15 N3 1_555 1_555
H12 C15 1_555 1_555
C16 N4 1_555 1_555
C17 C16 1_555 1_555
C18 C17 1_555 1_555
H13 C18 1_555 1_555
C19 C18 1_555 1_555
H14 C19 1_555 1_555
C20 C19 1_555 1_555
H15 C20 1_555 1_555
C21 C16 1_555 1_555
C1G O1 1_555 1_555
Cu1C Cl1C 1_555 1_555
Cu1B N3 1_555 1_555
O3C Cu1C 1_555 1_555
O4C C10C 1_555 1_555
N1C Cu1C 1_555 1_555
N2C Cu1C 1_555 1_555
N3C Cu1 1_555 1_555
N3A Cu1C 1_555 1_555
N4C C14C 1_555 1_555
C3C N1C 1_555 1_555
H1C C3C 1_555 1_555
C4C C3C 1_555 1_555
H2C C4C 1_555 1_555
C5C C4C 1_555 1_555
H3C C5C 1_555 1_555
O5C C21C 1_555 1_555
C6C C5C 1_555 1_555
H4C C6C 1_555 1_555
C7C N1C 1_555 1_555
C8C N2C 1_555 1_555
H5C C8C 1_555 1_555
C9C N2C 1_555 1_555
H6C C9C 1_555 1_555
H7C C9C 1_555 1_555
H8C C9C 1_555 1_555
C10C O3C 1_555 1_555
C11C N2C 1_555 1_555
H9C C11C 1_555 1_555
C12C C11C 1_555 1_555
H10C C12C 1_555 1_555
H11C C12C 1_555 1_555
C13C N3C 1_555 1_555
C14C C8C 1_555 1_555
C15C N3C 1_555 1_555
H12C C15C 1_555 1_555
C16C N4C 1_555 1_555
C17C C16C 1_555 1_555
C18C C17C 1_555 1_555
H13C C18C 1_555 1_555
C19C C18C 1_555 1_555
H14C C19C 1_555 1_555
C20C C19C 1_555 1_555
H15C C20C 1_555 1_555
C21C C16C 1_555 1_555
N4 C15 1_555 1_555
C6 C7 1_555 1_555
C7 C8 1_555 1_555
C10 C11 1_555 1_555
C13 C14 1_555 1_555
C20 C21 1_555 1_555
N4C C15C 1_555 1_555
C6C C7C 1_555 1_555
C7C C8C 1_555 1_555
C10C C11C 1_555 1_555
C12C C13C 1_555 1_555
C13C C14C 1_555 1_555
C20C C21C 1_555 1_555

#END
