
#######################################################################
#
#                 Cambridge Crystallographic Data Centre
#                                CCDC 
#
#######################################################################
#
# If this CIF has been generated from an entry in the Cambridge 
# Structural Database, then it will include bibliographic, chemical, 
# crystal, experimental, refinement or atomic coordinate data resulting 
# from the CCDC's data processing and validation procedures.
#
#######################################################################

data_HIHRAS
_symmetry_cell_setting           monoclinic
_symmetry_space_group_name_H-M   'P 21/n'
_symmetry_Int_Tables_number      14
_space_group_name_Hall           '-P 2yn'
loop_
_symmetry_equiv_pos_site_id
_symmetry_equiv_pos_as_xyz
1 x,y,z
2 1/2-x,1/2+y,1/2-z
3 -x,-y,-z
4 1/2+x,1/2-y,1/2+z
_cell_length_a                   18.782(3)
_cell_length_b                   16.570(2)
_cell_length_c                   20.709(3)
_cell_angle_alpha                90
_cell_angle_beta                 114.562(2)
_cell_angle_gamma                90
_cell_volume                     5861.81
loop_
_atom_site_label
_atom_site_type_symbol
_atom_site_fract_x
_atom_site_fract_y
_atom_site_fract_z
Fe1 Fe 0.51531(2) 0.11763(3) 0.26059(2)
N1 N 0.45863(14) 0.06228(15) 0.32419(14)
N2 N 0.57233(15) 0.17711(16) 0.19935(14)
C1 C 0.4171(2) 0.1040(2) 0.3526(2)
H1 H 0.4070 0.1582 0.3406
C2 C 0.40343(17) -0.0084(2) 0.41809(16)
C3 C 0.3890(2) 0.0713(2) 0.39780(19)
H2 H 0.3599 0.1031 0.4151
C4 C 0.6791(2) 0.2466(2) 0.1917(2)
H3 H 0.7287 0.2688 0.2155
C5 C 0.5380(2) 0.1805(3) 0.12910(19)
H4 H 0.4886 0.1574 0.1062
C6 C 0.44672(18) -0.0505(2) 0.39031(18)
H5 H 0.4594 -0.1041 0.4032
C7 C 0.6442(2) 0.2096(2) 0.22933(19)
H6 H 0.6715 0.2066 0.2784
C8 C 0.6427(2) 0.2518(2) 0.1195(2)
C9 C 0.47190(18) -0.01449(19) 0.34348(18)
H7 H 0.4996 -0.0457 0.3244
N3 N 0.87503(14) 0.54419(15) 0.19005(13)
C10 C 0.7747(2) 0.4664(2) 0.20156(18)
H8 H 0.7587 0.4370 0.2314
N4 N 0.08922(15) -0.30321(16) 0.29232(15)
C11 C 0.72525(18) 0.47375(19) 0.13098(18)
C12 C 0.22284(19) -0.2050(2) 0.35022(18)
C13 C 0.82744(17) 0.55157(19) 0.12195(16)
H9 H 0.8446 0.5819 0.0934
C14 C 0.8469(2) 0.5013(2) 0.22864(19)
H10 H 0.8783 0.4949 0.2768
C15 C 0.0859(2) -0.2234(2) 0.2836(2)
H11 H 0.0372 -0.2001 0.2579
C16 C 0.75493(18) 0.5176(2) 0.09102(17)
H12 H 0.7252 0.5239 0.0425
C17 C 0.1596(2) -0.3333(2) 0.3320(2)
H13 H 0.1642 -0.3885 0.3406
C18 C 0.1494(2) -0.1739(2) 0.3101(2)
H14 H 0.1432 -0.1188 0.3012
C19 C 0.2262(2) -0.2862(2) 0.3610(2)
H15 H 0.2740 -0.3104 0.3882
S1 S 0.39328(8) -0.06418(10) 0.06014(8)
S2 S 0.57078(9) 0.28833(9) 0.46260(7)
N5 N 0.56344(16) 0.20370(17) 0.34435(16)
N6 N 0.46588(17) 0.02932(18) 0.18112(16)
C20 C 0.56673(19) 0.2382(2) 0.3935(2)
C21 C 0.3741(2) -0.0473(2) 0.46787(18)
H16 H 0.3695 -0.0065 0.4994
H17 H 0.4123 -0.0867 0.4967
C22 C 0.2942(2) -0.0896(2) 0.42951(19)
H18 H 0.2793 -0.1141 0.4646
H19 H 0.2549 -0.0495 0.4040
C23 C 0.43594(19) -0.0092(2) 0.1310(2)
C24 C 0.29518(19) -0.1523(2) 0.3791(2)
H20 H 0.3406 -0.1864 0.4027
H21 H 0.3009 -0.1262 0.3396
C25 C 0.64406(19) 0.4380(2) 0.09826(19)
H22 H 0.6067 0.4808 0.0756
H23 H 0.6318 0.4153 0.1356
C26 C 0.6349(3) 0.3729(3) 0.0438(2)
H24 H 0.5795 0.3617 0.0174
H25 H 0.6546 0.3934 0.0105
C27 C 0.6764(3) 0.2947(2) 0.0748(2)
H26 H 0.6734 0.2594 0.0363
H27 H 0.7313 0.3060 0.1035
C28 C 0.5703(2) 0.2158(3) 0.0883(2)
H28 H 0.5434 0.2156 0.0391
Fe1A Fe 0.98469(2) 0.61763(3) 0.23941(2)
Fe1A_2 Fe -0.01531(2) -0.38237(3) 0.23941(2)
N3A N 0.62497(14) 0.04419(15) 0.30995(13)
N4A N 0.41078(15) 0.19679(16) 0.20768(15)
Fe2 Fe 0.47005(3) 0.63432(3) 0.23850(3)
N7 N 0.36532(19) 0.70966(18) 0.18402(15)
N8 N 0.53120(18) 0.68816(18) 0.17757(17)
N9 N 0.92632(17) 1.05572(18) 0.20260(17)
N10 N 0.09168(17) 1.08121(18) 0.20046(16)
C29 C 0.2230(2) 0.7889(2) 0.1128(2)
C30 C 0.5707(3) 0.6428(2) 0.1491(2)
C31 C 0.3314(3) 0.7511(3) 0.2185(2)
H29 H 0.3564 0.7535 0.2677
C32 C 0.6053(2) 0.7569(3) 0.0976(2)
C33 C 0.0935(2) 1.0502(2) 0.0885(2)
H30 H 0.0680 1.0528 0.0392
C34 C 0.1664(2) 1.0125(2) 0.1206(2)
C35 C 0.6087(2) 0.6754(2) 0.1107(2)
H31 H 0.6368 0.6420 0.0936
C36 C 0.3280(2) 0.7086(2) 0.1147(2)
H32 H 0.3503 0.6800 0.0891
C37 C 0.9356(3) 0.9768(2) 0.1984(2)
H33 H 0.9852 0.9550 0.2234
C38 C 0.2005(2) 1.0118(2) 0.1938(2)
H34 H 0.2494 0.9882 0.2181
C39 C 0.2608(3) 0.7908(3) 0.1849(2)
H35 H 0.2393 0.8187 0.2114
C40 C 0.5636(2) 0.8027(2) 0.1256(3)
H36 H 0.5588 0.8581 0.1174
C41 C 0.0595(2) 1.0833(2) 0.1294(2)
H37 H 0.0114 1.1088 0.1065
C42 C 0.1620(2) 1.0459(2) 0.2306(2)
H38 H 0.1865 1.0444 0.2799
C43 C 0.2578(2) 0.7472(2) 0.07739(19)
H39 H 0.2344 0.7448 0.0281
C44 C 0.5291(2) 0.7674(2) 0.1655(3)
H40 H 0.5030 0.8003 0.1849
C45 C 0.8548(2) 1.0846(2) 0.1667(2)
H41 H 0.8465 1.1396 0.1691
S3 S 0.43347(6) 0.42022(7) 0.07352(6)
S4 S 0.61923(6) 0.83389(7) 0.40935(8)
N11 N 0.42354(19) 0.5428(2) 0.16009(17)
N12 N 0.5181(2) 0.7243(2) 0.31676(18)
C46 C 0.5602(2) 0.7697(2) 0.35546(19)
C47 C 0.42780(18) 0.4916(2) 0.12324(19)
C48 C 0.1473(2) 0.8330(3) 0.0740(3)
H42 H 0.1277 0.8517 0.1080
H43 H 0.1090 0.7961 0.0417
C49 C 0.6434(3) 0.7953(3) 0.0535(3)
H44 H 0.6044 0.8246 0.0141
H45 H 0.6657 0.7538 0.0345
C50 C 0.1562(3) 0.9056(4) 0.0318(2)
H46 H 0.1806 0.8874 0.0013
H47 H 0.1045 0.9257 0.0015
C51 C 0.7929(3) 1.0375(3) 0.1265(3)
H48 H 0.7433 1.0598 0.1033
C52 C 0.8045(3) 0.9559(3) 0.1205(3)
C53 C 0.8766(3) 0.9263(3) 0.1595(3)
H49 H 0.8858 0.8711 0.1598
C54 C 0.7110(3) 0.8562(5) 0.1025(3)
H50 H 0.6888 0.8944 0.1245
H51 H 0.7510 0.8257 0.1401
C55 C 0.7446(3) 0.8972(4) 0.0665(3)
H52 H 0.7054 0.9271 0.0277
H53 H 0.7708 0.8604 0.0471
C56 C 0.2040(3) 0.9742(3) 0.0773(3)
H54 H 0.2552 0.9541 0.1089
H55 H 0.2115 1.0148 0.0470
Fe2A Fe 1.02995(3) 1.13432(3) 0.26150(3)
Fe2A_2 Fe 0.02995(3) 1.13432(3) 0.26150(3)
N9A N 0.57368(17) 0.55572(18) 0.29740(17)
N10A N 0.40832(17) 0.58121(18) 0.29954(16)
loop_
_geom_bond_atom_site_label_1
_geom_bond_atom_site_label_2
_geom_bond_site_symmetry_1
_geom_bond_site_symmetry_2
Fe1 N1 1_555 1_555
N1 C1 1_555 1_555
N2 Fe1 1_555 1_555
C1 H1 1_555 1_555
C2 C3 1_555 1_555
C3 C1 1_555 1_555
H2 C3 1_555 1_555
C4 H3 1_555 1_555
C5 N2 1_555 1_555
H4 C5 1_555 1_555
C6 C2 1_555 1_555
H5 C6 1_555 1_555
C7 N2 1_555 1_555
H6 C7 1_555 1_555
C8 C4 1_555 1_555
C9 N1 1_555 1_555
H7 C9 1_555 1_555
N3 C13 1_555 1_555
C10 H8 1_555 1_555
N4 C15 1_555 1_555
C11 C10 1_555 1_555
C12 C18 1_555 1_555
C13 H9 1_555 1_555
C14 N3 1_555 1_555
H10 C14 1_555 1_555
C15 H11 1_555 1_555
C16 C11 1_555 1_555
H12 C16 1_555 1_555
C17 N4 1_555 1_555
H13 C17 1_555 1_555
C18 C15 1_555 1_555
H14 C18 1_555 1_555
C19 C12 1_555 1_555
H15 C19 1_555 1_555
S1 C23 1_555 1_555
S2 C20 1_555 1_555
N5 Fe1 1_555 1_555
N6 Fe1 1_555 1_555
C20 N5 1_555 1_555
C21 C2 1_555 1_555
H16 C21 1_555 1_555
H17 C21 1_555 1_555
C22 C21 1_555 1_555
H18 C22 1_555 1_555
H19 C22 1_555 1_555
C23 N6 1_555 1_555
C24 C12 1_555 1_555
H20 C24 1_555 1_555
H21 C24 1_555 1_555
C25 C11 1_555 1_555
H22 C25 1_555 1_555
H23 C25 1_555 1_555
C26 C25 1_555 1_555
H24 C26 1_555 1_555
H25 C26 1_555 1_555
C27 C8 1_555 1_555
H26 C27 1_555 1_555
H27 C27 1_555 1_555
C28 C5 1_555 1_555
H28 C28 1_555 1_555
Fe2 N7 1_555 1_555
N7 C31 1_555 1_555
N8 Fe2 1_555 1_555
N9 C37 1_555 1_555
N10 C41 1_555 1_555
C29 C39 1_555 1_555
C30 N8 1_555 1_555
C31 H29 1_555 1_555
C32 C35 1_555 1_555
C33 H30 1_555 1_555
C34 C33 1_555 1_555
C35 C30 1_555 1_555
H31 C35 1_555 1_555
C36 N7 1_555 1_555
H32 C36 1_555 1_555
C37 H33 1_555 1_555
C38 C34 1_555 1_555
H34 C38 1_555 1_555
C39 C31 1_555 1_555
H35 C39 1_555 1_555
C40 C32 1_555 1_555
H36 C40 1_555 1_555
C41 C33 1_555 1_555
H37 C41 1_555 1_555
C42 N10 1_555 1_555
H38 C42 1_555 1_555
C43 C29 1_555 1_555
H39 C43 1_555 1_555
C44 N8 1_555 1_555
H40 C44 1_555 1_555
C45 N9 1_555 1_555
H41 C45 1_555 1_555
S3 C47 1_555 1_555
S4 C46 1_555 1_555
N11 Fe2 1_555 1_555
N12 Fe2 1_555 1_555
C46 N12 1_555 1_555
C47 N11 1_555 1_555
C48 C29 1_555 1_555
H42 C48 1_555 1_555
H43 C48 1_555 1_555
C49 C32 1_555 1_555
H44 C49 1_555 1_555
H45 C49 1_555 1_555
C50 C48 1_555 1_555
H46 C50 1_555 1_555
H47 C50 1_555 1_555
C51 C45 1_555 1_555
H48 C51 1_555 1_555
C52 C51 1_555 1_555
C53 C37 1_555 1_555
H49 C53 1_555 1_555
C54 C49 1_555 1_555
H50 C54 1_555 1_555
H51 C54 1_555 1_555
C55 C52 1_555 1_555
H52 C55 1_555 1_555
H53 C55 1_555 1_555
C56 C34 1_555 1_555
H54 C56 1_555 1_555
H55 C56 1_555 1_555
Fe1A N3 1_555 1_555
Fe1A_2 N4 1_555 1_555
N3A Fe1 1_555 1_555
N4A Fe1 1_555 1_555
Fe2A N9 1_555 1_555
Fe2A_2 N10 1_555 1_555
N9A Fe2 1_555 1_555
N10A Fe2 1_555 1_555
C4 C7 1_555 1_555
C6 C9 1_555 1_555
C8 C28 1_555 1_555
C10 C14 1_555 1_555
C13 C16 1_555 1_555
C17 C19 1_555 1_555
C22 C24 1_555 1_555
C26 C27 1_555 1_555
C36 C43 1_555 1_555
C38 C42 1_555 1_555
C40 C44 1_555 1_555
C50 C56 1_555 1_555
C52 C53 1_555 1_555
C54 C55 1_555 1_555

#END
