
#######################################################################
#
#                 Cambridge Crystallographic Data Centre
#                                CCDC 
#
#######################################################################
#
# If this CIF has been generated from an entry in the Cambridge 
# Structural Database, then it will include bibliographic, chemical, 
# crystal, experimental, refinement or atomic coordinate data resulting 
# from the CCDC's data processing and validation procedures.
#
#######################################################################

data_HIJHEO
_symmetry_cell_setting           monoclinic
_symmetry_space_group_name_H-M   'C 2/c'
_symmetry_Int_Tables_number      15
_space_group_name_Hall           '-C 2yn'
loop_
_symmetry_equiv_pos_site_id
_symmetry_equiv_pos_as_xyz
1 x,y,z
2 1/2+x,1/2+y,z
3 -x,y,1/2-z
4 1/2-x,1/2+y,1/2-z
5 -x,-y,-z
6 1/2-x,1/2-y,-z
7 x,-y,1/2+z
8 1/2+x,1/2-y,1/2+z
_cell_length_a                   56.305(10)
_cell_length_b                   14.621(3)
_cell_length_c                   22.372(4)
_cell_angle_alpha                90
_cell_angle_beta                 110.706(4)
_cell_angle_gamma                90
_cell_volume                     17227.8
loop_
_atom_site_label
_atom_site_type_symbol
_atom_site_fract_x
_atom_site_fract_y
_atom_site_fract_z
As1 As -0.08000(3) 0.34000(12) -0.29634(9)
As2 As -0.04557(3) 0.16632(13) -0.22630(9)
As3 As -0.12615(4) -0.08694(14) -0.38638(10)
As4 As -0.15996(3) 0.08629(14) -0.45742(8)
As5 As -0.14498(4) -0.10009(14) -0.11776(10)
As6 As -0.10120(4) 0.03253(14) -0.02870(9)
As7 As -0.20702(4) 0.22358(15) -0.24479(11)
As8 As -0.16385(4) 0.35672(14) -0.15768(11)
V1 V -0.07389(5) 0.29487(19) -0.13774(13)
V2 V -0.06206(5) 0.09469(19) -0.10572(13)
V3 V -0.08776(5) -0.0879(2) -0.14806(15)
V4 V -0.13654(5) -0.13649(18) -0.25472(14)
V5 V -0.18131(6) -0.0403(2) -0.35229(15)
V6 V -0.19441(5) 0.1618(2) -0.37364(14)
V7 V -0.17159(5) 0.3438(2) -0.31980(15)
V8 V -0.12035(5) 0.39392(19) -0.22486(14)
V9 V -0.13877(5) 0.2827(2) -0.38387(14)
V10 V -0.09781(5) 0.12650(19) -0.36329(13)
V11 V -0.07740(5) -0.0281(2) -0.25904(14)
V12 V -0.11009(6) 0.2472(2) -0.08053(16)
V13 V -0.15886(5) 0.12974(19) -0.11742(14)
V14 V -0.18856(6) 0.0089(2) -0.23794(16)
Cu1 Cu -0.19888(6) -0.1681(3) -0.50185(15)
Cu2 Cu -0.02185(5) 0.4101(2) -0.14584(15)
Cu3 Cu -0.04763(8) 0.4000(3) 0.02339(19)
Cu4 Cu -0.24502(5) 0.8459(2) -0.34512(15)
O1 O -0.19583(19) 0.0580(7) -0.3199(5)
O2 O -0.05261(19) 0.2720(7) -0.2697(5)
O3 O -0.2131(2) -0.0368(10) -0.2339(7)
O4 O -0.05188(19) 0.3615(7) -0.0967(6)
O5 O -0.08779(19) 0.3434(7) -0.2258(5)
O6 O -0.10143(18) 0.2561(8) -0.3398(5)
O7 O -0.1229(2) -0.0572(8) -0.0460(6)
O8 O -0.1418(2) 0.3420(8) -0.4444(5)
O9 O -0.1222(2) 0.1214(8) -0.0742(5)
O10 O -0.16860(17) -0.0824(6) -0.2633(5)
O11 O -0.17654(18) 0.0650(8) -0.4042(5)
O12 O -0.08501(18) 0.0081(7) -0.0808(5)
O13 O -0.10633(17) 0.3375(6) -0.1406(4)
O14 O -0.13622(18) 0.3615(7) -0.3135(5)
O15 O -0.06686(18) 0.0040(7) -0.1701(5)
O16 O -0.1234(2) -0.1067(7) -0.1627(5)
O17 O -0.15515(19) 0.3669(7) -0.2280(5)
O18 O -0.10172(18) -0.1027(7) -0.2400(5)
O19 O -0.1708(2) 0.2503(8) -0.3829(5)
O20 O -0.0715(2) -0.1737(8) -0.1135(6)
O21 O -0.1166(2) 0.5025(8) -0.2168(6)
O22 O -0.1890(2) 0.4270(8) -0.3540(7)
O23 O -0.1037(2) 0.2911(10) -0.0125(6)
O24 O -0.1951(2) 0.3112(8) -0.1936(6)
O25 O -0.1397(2) -0.2466(7) -0.2586(6)
O26 O -0.2032(2) -0.1062(8) -0.3921(6)
O27 O -0.1463(2) 0.2585(8) -0.1257(6)
O28 O -0.1615(2) -0.0046(9) -0.1527(5)
O29 O -0.05886(19) 0.1903(7) -0.1669(5)
O30 O -0.0567(2) -0.0909(8) -0.2715(6)
O31 O -0.22093(19) 0.1747(8) -0.4271(6)
O32 O -0.0351(2) 0.0835(8) -0.0523(6)
O33 O -0.19269(19) 0.2474(7) -0.3027(6)
O34 O -0.14729(18) -0.0872(7) -0.3443(5)
O35 O -0.1340(2) 0.1493(7) -0.4043(5)
O36 O -0.14394(19) -0.0223(8) -0.4516(5)
O37 O -0.08029(18) 0.1998(7) -0.0855(5)
O38 O -0.10467(19) -0.0052(8) -0.3433(5)
O39 O -0.07102(18) 0.1029(7) -0.2780(5)
O40 O -0.08478(19) 0.1246(8) -0.4147(5)
O41 O -0.17244(19) 0.1344(8) -0.0673(5)
O42 O -0.1858(2) 0.1351(8) -0.2034(5)
N1 N -0.2785(3) 1.5781(11) -0.4546(8)
C1 C -0.2550(4) 1.5637(17) -0.4612(12)
H1 H -0.2476 1.6012 -0.4833
C2 C -0.2446(4) 1.4828(19) -0.4288(13)
H2 H -0.2291 1.4573 -0.4256
N2 N -0.2617(4) 1.4472(13) -0.4022(9)
C3 C -0.2827(3) 1.5061(12) -0.4181(8)
H3 H -0.2969 1.4987 -0.4064
N3 N -0.2819(3) 1.0687(9) -0.4417(7)
C4 C -0.2608(2) 1.0271(10) -0.4016(7)
H4 H -0.2447 1.0530 -0.3846
N4 N -0.2672(2) 0.9410(9) -0.3905(6)
C5 C -0.2923(3) 0.9294(9) -0.4238(7)
H5 H -0.3017 0.8766 -0.4247
C6 C -0.3014(2) 1.0084(10) -0.4554(6)
H6 H -0.3181 1.0192 -0.4818
N5 N -0.1772(3) -0.2697(9) -0.4589(6)
C7 C -0.1835(3) -0.3255(11) -0.4179(8)
H7 H -0.1974 -0.3186 -0.4053
C8 C -0.1657(3) -0.3932(10) -0.3987(8)
H8 H -0.1654 -0.4405 -0.3707
N6 N -0.1484(3) -0.3792(10) -0.4278(7)
C9 C -0.1555(3) -0.3029(11) -0.4650(7)
H9 H -0.1470 -0.2779 -0.4901
N7 N -0.0621(3) -0.3714(11) -0.2374(8)
C10 C -0.0587(3) -0.4455(10) -0.2001(8)
H10 H -0.0707 -0.4676 -0.1840
N8 N -0.0367(3) -0.4826(10) -0.1891(8)
C11 C -0.0219(3) -0.4225(14) -0.2102(11)
H11 H -0.0047 -0.4274 -0.2037
C12 C -0.0389(4) -0.3523(13) -0.2436(10)
H12 H -0.0352 -0.3033 -0.2653
N9 N -0.0012(2) 0.3126(8) -0.1237(6)
C13 C 0.0010(2) 0.2409(9) -0.0828(6)
H13 H -0.0090 0.2351 -0.0577
N10 N 0.0192(2) 0.1783(8) -0.0820(6)
C14 C 0.0304(2) 0.2061(10) -0.1214(7)
H14 H 0.0442 0.1796 -0.1287
C15 C 0.0171(3) 0.2840(9) -0.1496(6)
H15 H 0.0199 0.3148 -0.1828
N11 N 0.0060(4) -0.1828(11) -0.1191(8)
C16 C 0.0286(3) -0.2226(15) -0.0972(10)
H16 H 0.0432 -0.2024 -0.1036
N12 N 0.0267(4) -0.2961(13) -0.0647(8)
C17 C 0.0031(5) -0.3018(15) -0.0664(11)
H17 H -0.0035 -0.3470 -0.0474
C18 C -0.0097(3) -0.2318(18) -0.1001(11)
H18 H -0.0268 -0.2192 -0.1088
N13 N -0.0661(3) 0.5064(11) 0.0016(8)
C19 C -0.0878(3) 0.5214(11) -0.0516(7)
H19 H -0.0948 0.4809 -0.0853
N14 N -0.0970(3) 0.6076(12) -0.0458(9)
C20 C -0.0811(4) 0.6459(12) 0.0111(10)
H20 H -0.0829 0.7033 0.0268
C21 C -0.0620(4) 0.5833(15) 0.0404(9)
H21 H -0.0487 0.5914 0.0791
N15 N -0.1985(3) 0.6419(9) -0.2526(7)
C22 C -0.2214(3) 0.5981(9) -0.2713(8)
H22 H -0.2241 0.5375 -0.2627
C23 C -0.2397(2) 0.6589(11) -0.3048(8)
H23 H -0.2570 0.6470 -0.3231
N16 N -0.2280(3) 0.7403(8) -0.3068(7)
C24 C -0.2026(2) 0.7297(9) -0.2746(7)
H24 H -0.1903 0.7745 -0.2686
C25 C -0.2700(5) 1.2542(18) -0.3837(14)
H25 H -0.2746 1.2353 -0.3478
H26 H -0.2543 1.2230 -0.3801
C26 C -0.2894(7) 1.225(3) -0.441(2)
H27 H -0.2943 1.2765 -0.4703
H28 H -0.3041 1.2066 -0.4312
C27 C -0.2832(5) 1.1595(18) -0.4698(13)
H29 H -0.2954 1.1572 -0.5132
H30 H -0.2668 1.1733 -0.4723
C28 C -0.1276(5) -0.4267(18) -0.4200(13)
H31 H -0.1204 -0.4072 -0.4516
H32 H -0.1319 -0.4909 -0.4273
C29 C -0.1086(5) -0.4153(18) -0.3565(13)
H33 H -0.1160 -0.4405 -0.3269
H34 H -0.0945 -0.4549 -0.3545
C30 C -0.0978(5) -0.3287(18) -0.3306(13)
H35 H -0.1115 -0.2843 -0.3435
H36 H -0.0862 -0.3118 -0.3520
C31 C -0.0843(5) -0.3159(18) -0.2625(13)
H37 H -0.0794 -0.2522 -0.2546
H38 H -0.0957 -0.3299 -0.2398
C32 C 0.0274(4) 0.1052(13) -0.0415(10)
H39 H 0.0154 0.0922 -0.0201
H40 H 0.0438 0.1180 -0.0094
C33 C 0.0291(4) 0.0238(16) -0.0832(12)
H41 H 0.0400 0.0421 -0.1062
H42 H 0.0377 -0.0252 -0.0545
C34 C 0.0060(4) -0.0152(16) -0.1299(12)
H43 H -0.0002 0.0260 -0.1661
H44 H -0.0069 -0.0197 -0.1106
C35 C 0.0104(5) -0.1119(18) -0.1542(14)
H45 H -0.0008 -0.1187 -0.1984
H46 H 0.0277 -0.1158 -0.1532
C36 C -0.1197(5) 0.6433(18) -0.0916(13)
H47 H -0.1175 0.6447 -0.1327
H48 H -0.1216 0.7061 -0.0801
C37 C -0.1412(5) 0.5994(18) -0.0990(13)
H49 H -0.1395 0.5373 -0.1123
H50 H -0.1430 0.5957 -0.0575
C38 C -0.1664(4) 0.6406(15) -0.1475(11)
H51 H -0.1647 0.7066 -0.1471
H52 H -0.1801 0.6262 -0.1324
C39 C -0.1735(4) 0.6093(16) -0.2131(11)
H53 H -0.1734 0.5430 -0.2138
H54 H -0.1611 0.6308 -0.2308
C40 C -0.2645(8) 1.363(3) -0.378(2)
H55 H -0.2486 1.3617 -0.3422
H56 H -0.2769 1.3799 -0.3591
Cu1F Cu -0.19888(6) 0.1681(3) -0.00185(15)
Cu1E Cu -0.30112(6) 1.6681(3) -0.49815(15)
Cu2_2 Cu -0.02185(5) -0.5899(2) -0.14584(15)
Cu3D Cu 0.04763(8) -0.4000(3) -0.02339(19)
O41F O -0.17244(19) -0.1344(8) -0.5673(5)
N1E N -0.2215(3) -0.0781(11) -0.5454(8)
N8_2 N -0.0367(3) 0.5174(10) -0.1891(8)
N12D N -0.0267(4) 0.2961(13) 0.0647(8)
O43 O -0.1284(3) 0.1298(10) -0.2409(8)
loop_
_geom_bond_atom_site_label_1
_geom_bond_atom_site_label_2
_geom_bond_site_symmetry_1
_geom_bond_site_symmetry_2
As1 O2 1_555 1_555
As2 O2 1_555 1_555
As3 O34 1_555 1_555
As4 O11 1_555 1_555
As5 O7 1_555 1_555
As6 O7 1_555 1_555
As7 O24 1_555 1_555
As8 O17 1_555 1_555
V1 O4 1_555 1_555
V2 O12 1_555 1_555
V3 O12 1_555 1_555
V4 O10 1_555 1_555
V5 O1 1_555 1_555
V6 O1 1_555 1_555
V7 O14 1_555 1_555
V8 O5 1_555 1_555
V9 O6 1_555 1_555
V10 O6 1_555 1_555
V11 O15 1_555 1_555
V12 O9 1_555 1_555
V13 O9 1_555 1_555
V14 O1 1_555 1_555
Cu1 O26 1_555 1_555
Cu2 O4 1_555 1_555
Cu3 O4 1_555 1_555
Cu4 N4 1_555 1_555
O3 V14 1_555 1_555
O5 As1 1_555 1_555
O6 As1 1_555 1_555
O8 V9 1_555 1_555
O9 As6 1_555 1_555
O10 V5 1_555 1_555
O11 V5 1_555 1_555
O12 As6 1_555 1_555
O13 V1 1_555 1_555
O14 V8 1_555 1_555
O15 V2 1_555 1_555
O16 As5 1_555 1_555
O17 V7 1_555 1_555
O18 V3 1_555 1_555
O19 V6 1_555 1_555
O20 V3 1_555 1_555
O21 V8 1_555 1_555
O22 V7 1_555 1_555
O23 V12 1_555 1_555
O24 As8 1_555 1_555
O25 V4 1_555 1_555
O26 V5 1_555 1_555
O27 As8 1_555 1_555
O28 As5 1_555 1_555
O29 As2 1_555 1_555
O30 V11 1_555 1_555
O31 V6 1_555 1_555
O32 V2 1_555 1_555
O33 As7 1_555 1_555
O34 V4 1_555 1_555
O35 As4 1_555 1_555
O36 As3 1_555 1_555
O37 V1 1_555 1_555
O38 As3 1_555 1_555
O39 As2 1_555 1_555
O40 V10 1_555 1_555
O41 V13 1_555 1_555
O42 As7 1_555 1_555
N1 C1 1_555 1_555
C1 H1 1_555 1_555
C2 C1 1_555 1_555
H2 C2 1_555 1_555
N2 C2 1_555 1_555
C3 N1 1_555 1_555
H3 C3 1_555 1_555
N3 C4 1_555 1_555
C4 H4 1_555 1_555
N4 C4 1_555 1_555
C5 N4 1_555 1_555
H5 C5 1_555 1_555
C6 N3 1_555 1_555
H6 C6 1_555 1_555
N5 Cu1 1_555 1_555
C7 N5 1_555 1_555
H7 C7 1_555 1_555
C8 C7 1_555 1_555
H8 C8 1_555 1_555
N6 C8 1_555 1_555
C9 N5 1_555 1_555
H9 C9 1_555 1_555
N7 C10 1_555 1_555
C10 H10 1_555 1_555
N8 C10 1_555 1_555
C11 N8 1_555 1_555
H11 C11 1_555 1_555
C12 N7 1_555 1_555
H12 C12 1_555 1_555
N9 Cu2 1_555 1_555
C13 N9 1_555 1_555
H13 C13 1_555 1_555
N10 C13 1_555 1_555
C14 N10 1_555 1_555
H14 C14 1_555 1_555
C15 N9 1_555 1_555
H15 C15 1_555 1_555
N11 C16 1_555 1_555
C16 H16 1_555 1_555
N12 C16 1_555 1_555
C17 N12 1_555 1_555
H17 C17 1_555 1_555
C18 N11 1_555 1_555
H18 C18 1_555 1_555
N13 Cu3 1_555 1_555
C19 N13 1_555 1_555
H19 C19 1_555 1_555
N14 C19 1_555 1_555
C20 N14 1_555 1_555
H20 C20 1_555 1_555
C21 N13 1_555 1_555
H21 C21 1_555 1_555
N15 C22 1_555 1_555
C22 H22 1_555 1_555
C23 C22 1_555 1_555
H23 C23 1_555 1_555
N16 Cu4 1_555 1_555
C24 N15 1_555 1_555
H24 C24 1_555 1_555
C25 H25 1_555 1_555
H26 C25 1_555 1_555
C26 C25 1_555 1_555
H27 C26 1_555 1_555
H28 C26 1_555 1_555
C27 N3 1_555 1_555
H29 C27 1_555 1_555
H30 C27 1_555 1_555
C28 N6 1_555 1_555
H31 C28 1_555 1_555
H32 C28 1_555 1_555
C29 C28 1_555 1_555
H33 C29 1_555 1_555
H34 C29 1_555 1_555
C30 C29 1_555 1_555
H35 C30 1_555 1_555
H36 C30 1_555 1_555
C31 N7 1_555 1_555
H37 C31 1_555 1_555
H38 C31 1_555 1_555
C32 N10 1_555 1_555
H39 C32 1_555 1_555
H40 C32 1_555 1_555
C33 C32 1_555 1_555
H41 C33 1_555 1_555
H42 C33 1_555 1_555
C34 C33 1_555 1_555
H43 C34 1_555 1_555
H44 C34 1_555 1_555
C35 N11 1_555 1_555
H45 C35 1_555 1_555
H46 C35 1_555 1_555
C36 N14 1_555 1_555
H47 C36 1_555 1_555
H48 C36 1_555 1_555
C37 C36 1_555 1_555
H49 C37 1_555 1_555
H50 C37 1_555 1_555
C38 C37 1_555 1_555
H51 C38 1_555 1_555
H52 C38 1_555 1_555
C39 N15 1_555 1_555
H53 C39 1_555 1_555
H54 C39 1_555 1_555
C40 N2 1_555 1_555
H55 C40 1_555 1_555
H56 C40 1_555 1_555
Cu1F O41 1_555 1_555
Cu1E N1 1_555 1_555
Cu2_2 N8 1_555 1_555
Cu3D N12 1_555 1_555
O41F Cu1 1_555 1_555
N1E Cu1 1_555 1_555
N8_2 Cu2 1_555 1_555
N12D Cu3 1_555 1_555
As4 O36 1_555 1_555
V1 O5 1_555 1_555
V1 O29 1_555 1_555
V2 O29 1_555 1_555
V2 O37 1_555 1_555
V3 O15 1_555 1_555
V3 O16 1_555 1_555
V4 O16 1_555 1_555
V4 O18 1_555 1_555
V5 O34 1_555 1_555
V6 O11 1_555 1_555
V6 O33 1_555 1_555
V7 O19 1_555 1_555
V7 O33 1_555 1_555
V8 O13 1_555 1_555
V8 O17 1_555 1_555
V9 O14 1_555 1_555
V9 O19 1_555 1_555
V9 O35 1_555 1_555
V10 O35 1_555 1_555
V10 O38 1_555 1_555
V10 O39 1_555 1_555
V11 O18 1_555 1_555
V11 O38 1_555 1_555
V11 O39 1_555 1_555
V12 O13 1_555 1_555
V12 O27 1_555 1_555
V12 O37 1_555 1_555
V13 O27 1_555 1_555
V13 O28 1_555 1_555
V13 O42 1_555 1_555
V14 O10 1_555 1_555
V14 O28 1_555 1_555
V14 O42 1_555 1_555
N2 C3 1_555 1_555
C5 C6 1_555 1_555
N6 C9 1_555 1_555
C11 C12 1_555 1_555
C14 C15 1_555 1_555
C17 C18 1_555 1_555
C20 C21 1_555 1_555
C23 N16 1_555 1_555
N16 C24 1_555 1_555
C25 C40 1_555 1_555
C26 C27 1_555 1_555
C30 C31 1_555 1_555
C34 C35 1_555 1_555
C38 C39 1_555 1_555

#END
