
#######################################################################
#
#                 Cambridge Crystallographic Data Centre
#                                CCDC 
#
#######################################################################
#
# If this CIF has been generated from an entry in the Cambridge 
# Structural Database, then it will include bibliographic, chemical, 
# crystal, experimental, refinement or atomic coordinate data resulting 
# from the CCDC's data processing and validation procedures.
#
#######################################################################

data_HIJSOK
_symmetry_cell_setting           tetragonal
_symmetry_space_group_name_H-M   'P 43 21 2'
_symmetry_Int_Tables_number      96
_space_group_name_Hall           'P 4nw 2abw'
loop_
_symmetry_equiv_pos_site_id
_symmetry_equiv_pos_as_xyz
1 x,y,z
2 -x,-y,1/2+z
3 1/2-y,1/2+x,3/4+z
4 1/2+y,1/2-x,1/4+z
5 1/2-x,1/2+y,3/4-z
6 1/2+x,1/2-y,1/4-z
7 y,x,-z
8 -y,-x,1/2-z
_cell_length_a                   18.2791(6)
_cell_length_b                   18.2791(6)
_cell_length_c                   17.5839(12)
_cell_angle_alpha                90
_cell_angle_beta                 90
_cell_angle_gamma                90
_cell_volume                     5875.23
loop_
_atom_site_label
_atom_site_type_symbol
_atom_site_fract_x
_atom_site_fract_y
_atom_site_fract_z
Co1 Co 0.65928(3) 0.65928(3) 0.0000
Co2 Co 0.56646(3) 0.84633(3) 0.08471(3)
Co3 Co 0.55681(4) 0.44319(4) 0.2500
N1 N 0.5875(2) 0.7513(2) 0.14315(19)
N2 N 0.61092(19) 0.68732(19) 0.10533(19)
N3 N 0.5737(3) 0.6542(2) 0.2206(2)
N4 N 0.6477(2) 0.5564(2) 0.0572(2)
N5 N 0.6589(2) 0.4831(2) 0.0426(2)
N6 N 0.6109(2) 0.4947(2) 0.1591(2)
N7 N 0.5936(2) 0.3513(2) 0.1786(2)
N8 N 0.63106(19) 0.8218(2) -0.0126(2)
N9 N 0.6670(2) 0.7642(2) -0.0447(2)
N10 N 0.6811(2) 0.8624(2) -0.1208(2)
N11 N 0.5606(2) 0.9457(2) 0.0202(2)
N12 N 0.5337(2) 1.0144(2) 0.0291(2)
N13 N 0.60814(19) 1.01054(19) -0.0730(2)
N14 N 0.5932(2) 1.1551(2) -0.1032(2)
C1 C 0.5668(3) 0.7267(3) 0.2105(3)
H1 H 0.5487 0.7575 0.2482
C2 C 0.6015(3) 0.6334(2) 0.1537(3)
C3 C 0.6198(3) 0.5612(3) 0.1260(3)
C4 C 0.6349(3) 0.4494(3) 0.1047(3)
C5 C 0.6309(3) 0.3707(3) 0.1156(3)
C6 C 0.6618(4) 0.3184(3) 0.0688(4)
H2 H 0.6877 0.3336 0.0261
C7 C 0.6560(4) 0.2476(3) 0.0823(4)
H3 H 0.6768 0.2129 0.0502
C8 C 0.6205(4) 0.2292(4) 0.1416(5)
H4 H 0.6157 0.1796 0.1521
C9 C 0.5881(3) 0.2789(3) 0.1922(4)
H5 H 0.5630 0.2621 0.2348
C10 C 0.6971(3) 0.7906(3) -0.1083(3)
H6 H 0.7260 0.7628 -0.1408
C11 C 0.6407(2) 0.8780(3) -0.0600(2)
C12 C 0.6040(2) 0.9458(3) -0.0402(2)
C13 C 0.5635(3) 1.0508(3) -0.0286(3)
C14 C 0.5528(3) 1.1282(3) -0.0452(3)
C15 C 0.5050(4) 1.1741(4) -0.0077(4)
H7 H 0.4764 1.1552 0.0313
C16 C 0.4985(4) 1.2437(3) -0.0254(3)
H8 H 0.4675 1.2743 0.0019
C17 C 0.5366(4) 1.2683(3) -0.0821(4)
H9 H 0.5311 1.3167 -0.0972
C18 C 0.5856(3) 1.2235(3) -0.1206(3)
H10 H 0.6135 1.2431 -0.1598
O1 O 0.47397(17) 0.79937(19) 0.0306(2)
H11 H 0.4669 0.8205 -0.0121
H12 H 0.4363 0.8054 0.0587
O2 O 0.5463(3) 0.5388(2) 0.3129(2)
H13 H 0.4977 0.5511 0.3243
H14 H 0.5650 0.5803 0.2882
Co2F Co 0.84633(3) 0.56646(3) -0.08471(3)
N1F N 0.7513(2) 0.5875(2) -0.14315(19)
N2F N 0.68732(19) 0.61092(19) -0.10533(19)
N3F N 0.6542(2) 0.5737(3) -0.2206(2)
N4F N 0.5564(2) 0.6477(2) -0.0572(2)
N5F N 0.4831(2) 0.6589(2) -0.0426(2)
N6F N 0.4947(2) 0.6109(2) -0.1591(2)
N7F N 0.3513(2) 0.5936(2) -0.1786(2)
N8F N 0.8218(2) 0.63106(19) 0.0126(2)
N9F N 0.7642(2) 0.6670(2) 0.0447(2)
N10F N 0.8624(2) 0.6811(2) 0.1208(2)
N11F N 0.9457(2) 0.5606(2) -0.0202(2)
N12F N 1.0144(2) 0.5337(2) -0.0291(2)
N13F N 1.01054(19) 0.60814(19) 0.0730(2)
N14F N 1.1551(2) 0.5932(2) 0.1032(2)
C1F C 0.7267(3) 0.5668(3) -0.2105(3)
H1F H 0.7575 0.5487 -0.2482
C2F C 0.6334(2) 0.6015(3) -0.1537(3)
C3F C 0.5612(3) 0.6198(3) -0.1260(3)
C4F C 0.4494(3) 0.6349(3) -0.1047(3)
C5F C 0.3707(3) 0.6309(3) -0.1156(3)
C6F C 0.3184(3) 0.6618(4) -0.0688(4)
H2F H 0.3336 0.6877 -0.0261
C7F C 0.2476(3) 0.6560(4) -0.0823(4)
H3F H 0.2129 0.6768 -0.0502
C8F C 0.2292(4) 0.6205(4) -0.1416(5)
H4F H 0.1796 0.6157 -0.1521
C9F C 0.2789(3) 0.5881(3) -0.1922(4)
H5F H 0.2621 0.5630 -0.2348
C10F C 0.7906(3) 0.6971(3) 0.1083(3)
H6F H 0.7628 0.7260 0.1408
C11F C 0.8780(3) 0.6407(2) 0.0600(2)
C12F C 0.9458(3) 0.6040(2) 0.0402(2)
C13F C 1.0508(3) 0.5635(3) 0.0286(3)
C14F C 1.1282(3) 0.5528(3) 0.0452(3)
C15F C 1.1741(4) 0.5050(4) 0.0077(4)
H7F H 1.1552 0.4764 -0.0313
C16F C 1.2437(3) 0.4985(4) 0.0254(3)
H8F H 1.2743 0.4675 -0.0019
C17F C 1.2683(3) 0.5366(4) 0.0821(4)
H9F H 1.3167 0.5311 0.0972
C18F C 1.2235(3) 0.5856(3) 0.1206(3)
H10F H 1.2431 0.6135 0.1598
O1F O 0.79937(19) 0.47397(17) -0.0306(2)
H11F H 0.8205 0.4669 0.0121
H12F H 0.8054 0.4363 -0.0587
O2G O 0.4612(2) 0.4537(3) 0.1871(2)
H13G H 0.4489 0.5023 0.1757
H14G H 0.4197 0.4350 0.2118
Co2B Co 0.65367(3) 1.06646(3) -0.16529(3)
Co2E Co 1.06646(3) 0.65367(3) 0.16529(3)
Co3A Co 0.44319(4) 0.55681(4) -0.2500
N6G N 0.5053(2) 0.3891(2) 0.3409(2)
N7G N 0.6487(2) 0.4064(2) 0.3214(2)
N13C N 0.51054(19) 0.89186(19) 0.1770(2)
N13D N 0.89186(19) 0.51054(19) -0.1770(2)
N14C N 0.6551(2) 0.9068(2) 0.1468(2)
N14D N 0.9068(2) 0.6551(2) -0.1468(2)
O3 O 0.6353(6) 0.3647(6) 0.7500
O4 O 0.4304(6) 0.3597(6) 0.0597(5)
loop_
_geom_bond_atom_site_label_1
_geom_bond_atom_site_label_2
_geom_bond_site_symmetry_1
_geom_bond_site_symmetry_2
Co1 N2 1_555 1_555
Co2 N1 1_555 1_555
Co3 N6 1_555 1_555
N1 N2 1_555 1_555
N2 C2 1_555 1_555
N3 C1 1_555 1_555
N4 Co1 1_555 1_555
N5 N4 1_555 1_555
N6 C3 1_555 1_555
N7 Co3 1_555 1_555
N8 Co2 1_555 1_555
N9 Co1 1_555 1_555
N10 C10 1_555 1_555
N11 Co2 1_555 1_555
N12 N11 1_555 1_555
N13 C12 1_555 1_555
N14 C14 1_555 1_555
C1 N1 1_555 1_555
H1 C1 1_555 1_555
C2 N3 1_555 1_555
C3 N4 1_555 1_555
C4 N5 1_555 1_555
C5 N7 1_555 1_555
C6 C5 1_555 1_555
H2 C6 1_555 1_555
C7 C6 1_555 1_555
H3 C7 1_555 1_555
C8 C7 1_555 1_555
H4 C8 1_555 1_555
C9 N7 1_555 1_555
H5 C9 1_555 1_555
C10 N9 1_555 1_555
H6 C10 1_555 1_555
C11 N8 1_555 1_555
C12 N11 1_555 1_555
C13 N12 1_555 1_555
C14 C13 1_555 1_555
C15 C14 1_555 1_555
H7 C15 1_555 1_555
C16 C15 1_555 1_555
H8 C16 1_555 1_555
C17 C16 1_555 1_555
H9 C17 1_555 1_555
C18 N14 1_555 1_555
H10 C18 1_555 1_555
O1 Co2 1_555 1_555
H11 O1 1_555 1_555
H12 O1 1_555 1_555
O2 Co3 1_555 1_555
H13 O2 1_555 1_555
H14 O2 1_555 1_555
Co2F N1F 1_555 1_555
N1F N2F 1_555 1_555
N2F Co1 1_555 1_555
N3F C1F 1_555 1_555
N4F Co1 1_555 1_555
N5F N4F 1_555 1_555
N6F C3F 1_555 1_555
N7F C5F 1_555 1_555
N8F Co2F 1_555 1_555
N9F Co1 1_555 1_555
N10F C10F 1_555 1_555
N11F Co2F 1_555 1_555
N12F N11F 1_555 1_555
N13F C12F 1_555 1_555
N14F C14F 1_555 1_555
C1F N1F 1_555 1_555
H1F C1F 1_555 1_555
C2F N2F 1_555 1_555
C3F N4F 1_555 1_555
C4F N5F 1_555 1_555
C5F C4F 1_555 1_555
C6F C5F 1_555 1_555
H2F C6F 1_555 1_555
C7F C6F 1_555 1_555
H3F C7F 1_555 1_555
C8F C7F 1_555 1_555
H4F C8F 1_555 1_555
C9F N7F 1_555 1_555
H5F C9F 1_555 1_555
C10F N9F 1_555 1_555
H6F C10F 1_555 1_555
C11F N8F 1_555 1_555
C12F N11F 1_555 1_555
C13F N12F 1_555 1_555
C14F C13F 1_555 1_555
C15F C14F 1_555 1_555
H7F C15F 1_555 1_555
C16F C15F 1_555 1_555
H8F C16F 1_555 1_555
C17F C16F 1_555 1_555
H9F C17F 1_555 1_555
C18F N14F 1_555 1_555
H10F C18F 1_555 1_555
O1F Co2F 1_555 1_555
H11F O1F 1_555 1_555
H12F O1F 1_555 1_555
O2G Co3 1_555 1_555
H13G O2G 1_555 1_555
H14G O2G 1_555 1_555
Co2B N13 1_555 1_555
Co2E N13F 1_555 1_555
Co3A N6F 1_555 1_555
N6G Co3 1_555 1_555
N7G Co3 1_555 1_555
N13C Co2 1_555 1_555
N13D Co2F 1_555 1_555
N14C Co2 1_555 1_555
N14D Co2F 1_555 1_555
N6 C4 1_555 1_555
N8 N9 1_555 1_555
N10 C11 1_555 1_555
N13 C13 1_555 1_555
N14 Co2B 1_555 1_555
C2 C3 1_555 1_555
C4 C5 1_555 1_555
C8 C9 1_555 1_555
C11 C12 1_555 1_555
C17 C18 1_555 1_555
N3F C2F 1_555 1_555
N6F C4F 1_555 1_555
N7F Co3A 1_555 1_555
N8F N9F 1_555 1_555
N10F C11F 1_555 1_555
N13F C13F 1_555 1_555
N14F Co2E 1_555 1_555
C2F C3F 1_555 1_555
C8F C9F 1_555 1_555
C11F C12F 1_555 1_555
C17F C18F 1_555 1_555

#END
