
#######################################################################
#
#                 Cambridge Crystallographic Data Centre
#                                CCDC 
#
#######################################################################
#
# If this CIF has been generated from an entry in the Cambridge 
# Structural Database, then it will include bibliographic, chemical, 
# crystal, experimental, refinement or atomic coordinate data resulting 
# from the CCDC's data processing and validation procedures.
#
#######################################################################

data_HIKMEU
_symmetry_cell_setting           monoclinic
_symmetry_space_group_name_H-M   'P 21/c'
_symmetry_Int_Tables_number      14
_space_group_name_Hall           '-P 2ybc'
loop_
_symmetry_equiv_pos_site_id
_symmetry_equiv_pos_as_xyz
1 x,y,z
2 -x,1/2+y,1/2-z
3 -x,-y,-z
4 x,1/2-y,1/2+z
_cell_length_a                   9.6110(7)
_cell_length_b                   17.5803(14)
_cell_length_c                   10.2386(8)
_cell_angle_alpha                90
_cell_angle_beta                 99.192(3)
_cell_angle_gamma                90
_cell_volume                     1707.74
loop_
_atom_site_label
_atom_site_type_symbol
_atom_site_fract_x
_atom_site_fract_y
_atom_site_fract_z
Zn1 Zn 0.84554(3) 0.104745(17) 0.67721(3)
O2 O 1.0022(2) 0.21293(13) 0.8637(2)
O3 O 1.0378(2) 0.14681(12) 0.6884(2)
O4 O 1.5552(2) 0.07025(14) 0.7005(3)
O5 O 1.70385(18) 0.16600(11) 0.7438(2)
N1 N 0.8951(2) 0.00700(13) 0.7752(2)
N2 N 1.0351(3) -0.07689(14) 0.8862(2)
N3 N 1.2414(3) -0.12569(14) 0.7272(2)
N4 N 1.2129(2) -0.09395(13) 0.5181(2)
C1 C 1.0808(3) 0.18897(15) 0.7883(3)
C2 C 1.5834(3) 0.13472(16) 0.7411(3)
C3 C 1.2336(3) 0.20748(15) 0.8161(3)
C4 C 1.3332(2) 0.16438(15) 0.7640(2)
H1 H 1.3037 0.1222 0.7084
C5 C 1.4755(2) 0.18267(15) 0.7930(2)
C6 C 1.5165(3) 0.24572(17) 0.8721(3)
H2 H 1.6132 0.2597 0.8898
C7 C 1.4186(3) 0.28804(18) 0.9248(3)
H3 H 1.4478 0.3306 0.9794
C8 C 1.2779(3) 0.26852(17) 0.8981(3)
H4 H 1.2107 0.2971 0.9363
C9 C 1.0263(3) -0.00937(16) 0.8271(3)
H5 H 1.1046 0.0230 0.8227
C10 C 1.1662(4) -0.11404(17) 0.9455(3)
H6 H 1.1495 -0.1440 1.0234
H7 H 1.2381 -0.0749 0.9762
C11 C 1.2206(4) -0.16604(17) 0.8471(3)
H8 H 1.3112 -0.1887 0.8888
H9 H 1.1526 -0.2080 0.8233
C12 C 1.3376(3) -0.06978(19) 0.7152(3)
H10 H 1.4041 -0.0485 0.7841
C13 C 1.3189(3) -0.05095(18) 0.5858(3)
H11 H 1.3715 -0.0136 0.5477
C14 C 1.1666(3) -0.13815(16) 0.6061(3)
H12 H 1.0916 -0.1736 0.5869
C15 C 0.9008(4) -0.10627(18) 0.8708(4)
H13 H 0.8733 -0.1541 0.9017
C16 C 0.8163(3) -0.05399(19) 0.8035(3)
H14 H 0.7170 -0.0586 0.7791
Zn1_2 Zn -0.15446(3) 0.104745(17) 0.67721(3)
Zn1_3 Zn 1.84554(3) 0.104745(17) 0.67721(3)
Zn1B Zn 1.15446(3) -0.104745(17) 0.32279(3)
O2_2 O 0.0022(2) 0.21293(13) 0.8637(2)
O3_2 O 0.0378(2) 0.14681(12) 0.6884(2)
O4_2 O 0.5552(2) 0.07025(14) 0.7005(3)
O5_2 O 0.70385(18) 0.16600(11) 0.7438(2)
O5_3 O -0.29615(18) 0.16600(11) 0.7438(2)
N1B N 1.1049(2) -0.00700(13) 0.2248(2)
N1_2 N -0.1049(2) 0.00700(13) 0.7752(2)
N2B N 0.9649(3) 0.07689(14) 0.1138(2)
N3B N 0.7586(3) 0.12569(14) 0.2728(2)
N4B N 0.7871(2) 0.09395(13) 0.4819(2)
N4B_2 N -0.2129(2) 0.09395(13) 0.4819(2)
C1_2 C 0.0808(3) 0.18897(15) 0.7883(3)
C2_2 C 0.5834(3) 0.13472(16) 0.7411(3)
C3_2 C 0.2336(3) 0.20748(15) 0.8161(3)
C4_2 C 0.3332(2) 0.16438(15) 0.7640(2)
H1_2 H 0.3037 0.1222 0.7084
C5_2 C 0.4755(2) 0.18267(15) 0.7930(2)
C6_2 C 0.5165(3) 0.24572(17) 0.8721(3)
H2_2 H 0.6132 0.2597 0.8898
C7_2 C 0.4186(3) 0.28804(18) 0.9248(3)
H3_2 H 0.4478 0.3306 0.9794
C8_2 C 0.2779(3) 0.26852(17) 0.8981(3)
H4_2 H 0.2107 0.2971 0.9363
C9B C 0.9737(3) 0.00937(16) 0.1729(3)
H5B H 0.8954 -0.0230 0.1773
C10B C 0.8338(4) 0.11404(17) 0.0545(3)
H6B H 0.8505 0.1440 -0.0234
H7B H 0.7619 0.0749 0.0238
C11B C 0.7794(4) 0.16604(17) 0.1529(3)
H8B H 0.6888 0.1887 0.1112
H9B H 0.8474 0.2080 0.1767
C12B C 0.6624(3) 0.06978(19) 0.2848(3)
H10B H 0.5959 0.0485 0.2159
C13B C 0.6811(3) 0.05095(18) 0.4142(3)
H11B H 0.6285 0.0136 0.4523
C14B C 0.8334(3) 0.13815(16) 0.3939(3)
H12B H 0.9084 0.1736 0.4131
C15B C 1.0992(4) 0.10627(18) 0.1292(4)
H13B H 1.1267 0.1541 0.0983
C16B C 1.1837(3) 0.05399(19) 0.1965(3)
H14B H 1.2830 0.0586 0.2209
O1 O 1.5000 0.0000 1.0000
loop_
_geom_bond_atom_site_label_1
_geom_bond_atom_site_label_2
_geom_bond_site_symmetry_1
_geom_bond_site_symmetry_2
Zn1 O3 1_555 1_555
O2 C1 1_555 1_555
O3 C1 1_555 1_555
O4 C2 1_555 1_555
O5 C2 1_555 1_555
N1 Zn1 1_555 1_555
N2 C9 1_555 1_555
N3 C11 1_555 1_555
N4 C13 1_555 1_555
C1 C3 1_555 1_555
C2 C5 1_555 1_555
C3 C4 1_555 1_555
C4 H1 1_555 1_555
C5 C4 1_555 1_555
C6 C5 1_555 1_555
H2 C6 1_555 1_555
C7 C6 1_555 1_555
H3 C7 1_555 1_555
C8 C3 1_555 1_555
H4 C8 1_555 1_555
C9 N1 1_555 1_555
H5 C9 1_555 1_555
C10 N2 1_555 1_555
H6 C10 1_555 1_555
H7 C10 1_555 1_555
C11 C10 1_555 1_555
H8 C11 1_555 1_555
H9 C11 1_555 1_555
C12 N3 1_555 1_555
H10 C12 1_555 1_555
C13 C12 1_555 1_555
H11 C13 1_555 1_555
C14 N3 1_555 1_555
H12 C14 1_555 1_555
C15 N2 1_555 1_555
H13 C15 1_555 1_555
C16 N1 1_555 1_555
H14 C16 1_555 1_555
Zn1_2 O3_2 1_555 1_555
Zn1_3 O5 1_555 1_555
Zn1B N4 1_555 1_555
O2_2 C1_2 1_555 1_555
O3_2 C1_2 1_555 1_555
O4_2 C2_2 1_555 1_555
O5_2 Zn1 1_555 1_555
O5_3 Zn1_2 1_555 1_555
N1B Zn1B 1_555 1_555
N1_2 Zn1_2 1_555 1_555
N2B C9B 1_555 1_555
N3B C11B 1_555 1_555
N4B Zn1 1_555 1_555
N4B_2 Zn1_2 1_555 1_555
C1_2 C3_2 1_555 1_555
C2_2 O5_2 1_555 1_555
C3_2 C4_2 1_555 1_555
C4_2 H1_2 1_555 1_555
C5_2 C2_2 1_555 1_555
C6_2 C5_2 1_555 1_555
H2_2 C6_2 1_555 1_555
C7_2 C6_2 1_555 1_555
H3_2 C7_2 1_555 1_555
C8_2 C3_2 1_555 1_555
H4_2 C8_2 1_555 1_555
C9B N1B 1_555 1_555
H5B C9B 1_555 1_555
C10B N2B 1_555 1_555
H6B C10B 1_555 1_555
H7B C10B 1_555 1_555
C11B C10B 1_555 1_555
H8B C11B 1_555 1_555
H9B C11B 1_555 1_555
C12B N3B 1_555 1_555
H10B C12B 1_555 1_555
C13B N4B 1_555 1_555
H11B C13B 1_555 1_555
C14B N3B 1_555 1_555
H12B C14B 1_555 1_555
C15B N2B 1_555 1_555
H13B C15B 1_555 1_555
C16B N1B 1_555 1_555
H14B C16B 1_555 1_555
N4 C14 1_555 1_555
C7 C8 1_555 1_555
C15 C16 1_555 1_555
N4B C14B 1_555 1_555
C4_2 C5_2 1_555 1_555
C7_2 C8_2 1_555 1_555
C12B C13B 1_555 1_555
C15B C16B 1_555 1_555

#END
