
#######################################################################
#
#                 Cambridge Crystallographic Data Centre
#                                CCDC 
#
#######################################################################
#
# If this CIF has been generated from an entry in the Cambridge 
# Structural Database, then it will include bibliographic, chemical, 
# crystal, experimental, refinement or atomic coordinate data resulting 
# from the CCDC's data processing and validation procedures.
#
#######################################################################

data_HIKMUK
_symmetry_cell_setting           orthorhombic
_symmetry_space_group_name_H-M   'P n a 21'
_symmetry_Int_Tables_number      33
_space_group_name_Hall           'P 2c -2n'
loop_
_symmetry_equiv_pos_site_id
_symmetry_equiv_pos_as_xyz
1 x,y,z
2 -x,-y,1/2+z
3 1/2-x,1/2+y,1/2+z
4 1/2+x,1/2-y,z
_cell_length_a                   16.4362(9)
_cell_length_b                   10.1770(6)
_cell_length_c                   22.0839(14)
_cell_angle_alpha                90
_cell_angle_beta                 90
_cell_angle_gamma                90
_cell_volume                     3694
loop_
_atom_site_label
_atom_site_type_symbol
_atom_site_fract_x
_atom_site_fract_y
_atom_site_fract_z
Ni1 Ni 0.03463(3) 0.69939(4) 0.38972(3)
Ni2 Ni -0.55132(3) 0.82981(4) 0.09363(3)
O1 O -0.0163(2) 0.6249(3) 0.47021(15)
H1 H -0.0185 0.5426 0.4683
O2 O -0.4978(2) 0.7486(3) 0.01705(17)
H2 H -0.5051 0.6669 0.0171
O3 O 0.06894(18) 0.5232(3) 0.35108(16)
O4 O -0.57133(19) 0.6543(3) 0.13673(16)
O5 O -0.5496(2) 0.5226(3) 0.05719(18)
O6 O 0.1862(4) 0.1106(5) 0.1613(2)
O7 O -0.6647(3) 0.4479(4) 0.3247(2)
O8 O -0.6656(5) 0.2414(5) 0.3348(2)
O9 O 0.0055(3) 0.3949(3) 0.41832(17)
O10 O 0.0710(2) -0.1765(2) 0.31605(16)
O11 O 0.01984(18) -0.0891(3) 0.39885(15)
O12 O 0.1807(6) 0.3156(5) 0.1686(3)
O13 O -0.59145(19) -0.0458(3) 0.16455(14)
O14 O -0.54484(18) 0.0435(3) 0.08106(15)
N1 N 0.1633(4) 0.2084(4) 0.1869(3)
N2 N -0.4352(2) 0.8431(4) 0.12703(19)
N3 N -0.6526(3) 0.3375(4) 0.3057(2)
N4 N 0.1633(2) 0.3324(4) 0.5507(2)
N5 N 0.1457(2) 0.7156(3) 0.43156(19)
N6 N -0.3301(2) 0.8453(4) 0.1877(2)
N7 N 0.2692(2) 0.6652(4) 0.4623(2)
N8 N 0.2821(2) 0.4119(4) 0.5215(2)
N9 N -0.0792(2) 0.6747(3) 0.35121(19)
N10 N -0.1779(2) 0.6779(4) 0.2846(2)
C1 C 0.0506(2) -0.0774(4) 0.3475(2)
C2 C 0.0669(3) 0.2940(4) 0.3337(2)
C3 C 0.0455(3) 0.4136(4) 0.3713(2)
C4 C 0.0678(2) 0.0564(4) 0.3226(2)
C5 C -0.5649(2) 0.5439(4) 0.1115(2)
C6 C -0.5673(3) 0.2991(4) 0.1273(2)
H3 H -0.5486 0.2896 0.0869
C7 C 0.0487(3) 0.1685(4) 0.3558(2)
H4 H 0.0229 0.1597 0.3940
C8 C -0.6103(3) 0.2000(4) 0.2208(2)
H5 H -0.6220 0.1248 0.2448
C9 C -0.5790(2) 0.4243(4) 0.1508(2)
C10 C -0.6063(3) 0.4369(4) 0.2104(2)
H6 H -0.6146 0.5212 0.2278
C11 C -0.5823(3) 0.1871(4) 0.1618(2)
C12 C 0.1051(3) 0.3067(4) 0.2789(3)
H7 H 0.1193 0.3913 0.2640
C13 C 0.1052(3) 0.0704(4) 0.2663(2)
H8 H 0.1183 -0.0047 0.2427
C14 C -0.3690(3) 0.8801(5) 0.0952(3)
H9 H -0.3686 0.9015 0.0533
C15 C -0.6208(3) 0.3245(4) 0.2435(2)
C16 C 0.1230(3) 0.1952(4) 0.2454(2)
C17 C 0.2648(3) 0.3073(5) 0.4845(3)
H10 H 0.2976 0.2750 0.4524
C18 C 0.2198(3) 0.4229(5) 0.5595(2)
H11 H 0.2163 0.4888 0.5898
C19 C -0.4106(3) 0.8226(5) 0.1826(2)
H12 H -0.4448 0.7953 0.2149
C20 C 0.2084(3) 0.6353(4) 0.4244(2)
H13 H 0.2100 0.5654 0.3959
C21 C 0.2442(3) 0.7700(5) 0.4968(3)
H14 H 0.2739 0.8129 0.5280
C22 C -0.3035(3) 0.8820(6) 0.1319(3)
H15 H -0.2493 0.9046 0.1210
C23 C 0.1915(3) 0.2588(5) 0.5027(3)
H16 H 0.1642 0.1859 0.4851
C24 C 0.3513(3) 0.5032(6) 0.5186(3)
H17 H 0.4024 0.4520 0.5160
H18 H 0.3531 0.5555 0.5564
C25 C 0.1676(3) 0.7996(4) 0.4769(2)
H19 H 0.1345 0.8684 0.4924
C26 C 0.3464(2) 0.5949(5) 0.4654(3)
H20 H 0.3913 0.6594 0.4680
H21 H 0.3538 0.5438 0.4276
C27 C -0.5717(2) 0.0535(4) 0.1339(2)
C28 C -0.2059(3) 0.6110(6) 0.3345(3)
H22 H -0.2584 0.5737 0.3397
C29 C -0.1449(3) 0.6089(5) 0.3743(2)
H23 H -0.1467 0.5677 0.4129
C30 C -0.1019(2) 0.7140(5) 0.2974(2)
H24 H -0.0681 0.7625 0.2705
C31 C -0.2225(3) 0.7104(5) 0.2297(3)
H25 H -0.2530 0.6323 0.2155
H26 H -0.1838 0.7362 0.1975
C32 C -0.2816(3) 0.8229(5) 0.2418(3)
H27 H -0.3175 0.8004 0.2762
H28 H -0.2510 0.9035 0.2522
H29 H 0.008(4) 0.625(8) 0.500(4)
H30 H -0.511(4) 0.787(7) -0.006(4)
Ni1_2 Ni 0.03463(3) -0.30061(4) 0.38972(3)
Ni2_2 Ni -0.55132(3) -0.17019(4) 0.09363(3)
Ni2B Ni 0.05132(3) 0.32981(4) 0.59363(3)
O10_2 O 0.0710(2) 0.8235(2) 0.31605(16)
O11_2 O 0.01984(18) 0.9109(3) 0.39885(15)
O13_2 O -0.59145(19) 0.9542(3) 0.16455(14)
O14_2 O -0.54484(18) 1.0435(3) 0.08106(15)
N4B N -0.6633(2) 0.8324(4) 0.0507(2)
loop_
_geom_bond_atom_site_label_1
_geom_bond_atom_site_label_2
_geom_bond_site_symmetry_1
_geom_bond_site_symmetry_2
Ni1 O1 1_555 1_555
Ni2 O2 1_555 1_555
O1 H1 1_555 1_555
O2 H2 1_555 1_555
O3 Ni1 1_555 1_555
O4 Ni2 1_555 1_555
O5 C5 1_555 1_555
O6 N1 1_555 1_555
O7 N3 1_555 1_555
O8 N3 1_555 1_555
O9 C3 1_555 1_555
O10 C1 1_555 1_555
O11 C1 1_555 1_555
O12 N1 1_555 1_555
O13 C27 1_555 1_555
O14 C27 1_555 1_555
N1 C16 1_555 1_555
N2 Ni2 1_555 1_555
N3 C15 1_555 1_555
N4 C18 1_555 1_555
N5 Ni1 1_555 1_555
N6 C19 1_555 1_555
N7 C20 1_555 1_555
N8 C17 1_555 1_555
N9 Ni1 1_555 1_555
N10 C28 1_555 1_555
C1 C4 1_555 1_555
C2 C3 1_555 1_555
C3 O3 1_555 1_555
C4 C7 1_555 1_555
C5 O4 1_555 1_555
C6 H3 1_555 1_555
C7 C2 1_555 1_555
H4 C7 1_555 1_555
C8 H5 1_555 1_555
C9 C5 1_555 1_555
C10 C9 1_555 1_555
H6 C10 1_555 1_555
C11 C6 1_555 1_555
C12 C2 1_555 1_555
H7 C12 1_555 1_555
C13 C4 1_555 1_555
H8 C13 1_555 1_555
C14 N2 1_555 1_555
H9 C14 1_555 1_555
C15 C8 1_555 1_555
C16 C12 1_555 1_555
C17 H10 1_555 1_555
C18 N8 1_555 1_555
H11 C18 1_555 1_555
C19 N2 1_555 1_555
H12 C19 1_555 1_555
C20 N5 1_555 1_555
H13 C20 1_555 1_555
C21 N7 1_555 1_555
H14 C21 1_555 1_555
C22 N6 1_555 1_555
H15 C22 1_555 1_555
C23 N4 1_555 1_555
H16 C23 1_555 1_555
C24 N8 1_555 1_555
H17 C24 1_555 1_555
H18 C24 1_555 1_555
C25 N5 1_555 1_555
H19 C25 1_555 1_555
C26 N7 1_555 1_555
H20 C26 1_555 1_555
H21 C26 1_555 1_555
C27 C11 1_555 1_555
C28 H22 1_555 1_555
C29 N9 1_555 1_555
H23 C29 1_555 1_555
C30 N9 1_555 1_555
H24 C30 1_555 1_555
C31 N10 1_555 1_555
H25 C31 1_555 1_555
H26 C31 1_555 1_555
C32 N6 1_555 1_555
H27 C32 1_555 1_555
H28 C32 1_555 1_555
H29 O1 1_555 1_555
H30 O2 1_555 1_555
Ni1_2 O10 1_555 1_555
Ni2_2 O13 1_555 1_555
Ni2B N4 1_555 1_555
O10_2 Ni1 1_555 1_555
O11_2 Ni1 1_555 1_555
O13_2 Ni2 1_555 1_555
O14_2 Ni2 1_555 1_555
N4B Ni2 1_555 1_555
O11 Ni1_2 1_555 1_555
O14 Ni2_2 1_555 1_555
N10 C30 1_555 1_555
C6 C9 1_555 1_555
C8 C11 1_555 1_555
C10 C15 1_555 1_555
C13 C16 1_555 1_555
C14 C22 1_555 1_555
C17 C23 1_555 1_555
C21 C25 1_555 1_555
C24 C26 1_555 1_555
C28 C29 1_555 1_555
C31 C32 1_555 1_555

#END
