
#######################################################################
#
#                 Cambridge Crystallographic Data Centre
#                                CCDC 
#
#######################################################################
#
# If this CIF has been generated from an entry in the Cambridge 
# Structural Database, then it will include bibliographic, chemical, 
# crystal, experimental, refinement or atomic coordinate data resulting 
# from the CCDC's data processing and validation procedures.
#
#######################################################################

data_HILJAO
_symmetry_cell_setting           monoclinic
_symmetry_space_group_name_H-M   'P 21/c'
_symmetry_Int_Tables_number      14
_space_group_name_Hall           '-P 2ybc'
loop_
_symmetry_equiv_pos_site_id
_symmetry_equiv_pos_as_xyz
1 x,y,z
2 -x,1/2+y,1/2-z
3 -x,-y,-z
4 x,1/2-y,1/2+z
_cell_length_a                   14.343(7)
_cell_length_b                   15.873(7)
_cell_length_c                   24.558(11)
_cell_angle_alpha                90
_cell_angle_beta                 93.095(8)
_cell_angle_gamma                90
_cell_volume                     5582.88
loop_
_atom_site_label
_atom_site_type_symbol
_atom_site_fract_x
_atom_site_fract_y
_atom_site_fract_z
Ag1 Ag 0.35984(4) 1.16686(4) 0.24828(2)
Ag3 Ag 0.46644(5) 0.63626(4) 0.67498(3)
C1 C 0.3834(4) 0.8596(4) 0.4485(2)
H1 H 0.3874 0.8012 0.4482
C3 C 0.3777(4) 0.9921(3) 0.4990(2)
C5 C 0.3814(4) 0.9410(3) 0.5859(2)
C6 C 0.3740(4) 0.9926(4) 0.4019(2)
C8 C 0.3730(4) 1.0365(3) 0.4501(2)
H3 H 0.3692 1.0950 0.4500
C11 C 0.3708(4) 1.0928(4) 0.5814(2)
H5 H 0.3664 1.1428 0.5617
C13 C 0.3640(4) 1.1718(4) 0.6664(2)
C15 C 0.3764(4) 1.0159(3) 0.5552(2)
C16 C 0.3782(4) 0.9045(4) 0.4011(2)
H6 H 0.3773 0.8763 0.3679
C17 C 0.3842(4) 0.9416(4) 0.6425(2)
H7 H 0.3893 0.8919 0.6625
C19 C 0.3677(4) 1.0390(4) 0.3515(2)
C20 C 0.3826(4) 0.9036(3) 0.49733(19)
C25 C 0.3801(4) 0.7858(3) 0.5648(2)
C26 C 0.3094(4) 0.7589(4) 0.5968(2)
H11 H 0.2672 0.7975 0.6099
C30 C 0.3720(4) 1.0931(4) 0.6382(2)
C31 C 0.3636(5) 0.6162(4) 0.5893(3)
H13 H 0.3576 0.5591 0.5970
C32 C 0.3017(5) 0.6739(4) 0.6092(3)
H14 H 0.2547 0.6557 0.6310
C33 C 0.3791(4) 1.0178(4) 0.6676(2)
H15 H 0.3805 1.0197 0.7055
C35 C 0.4349(5) 0.6442(4) 0.5579(3)
H17 H 0.4772 0.6057 0.5448
C37 C 0.4434(4) 0.7290(4) 0.5458(2)
H19 H 0.4916 0.7475 0.5249
N3 N 0.3630(4) 1.0757(4) 0.3122(2)
N4 N 0.3568(4) 1.2321(4) 0.6900(2)
N6 N 0.3858(3) 0.8732(3) 0.55061(17)
O10 O 0.4031(4) 0.6906(4) 0.7537(2)
H29 H 0.3455 0.7035 0.7534
H30 H 0.4378 0.6974 0.7825
O11 O 0.6088(4) 0.7067(3) 0.6771(2)
H31 H 0.6288 0.7273 0.6480
H32 H 0.6409 0.7119 0.7071
Ag1C Ag 0.35984(4) 1.33314(4) 0.74828(2)
N4C N 0.3568(4) 1.2679(4) 0.1900(2)
Ag2 Ag 0.87939(5) -0.22331(4) 0.78401(3)
C2 C 0.8773(4) 0.0033(3) 0.49363(19)
C4 C 0.8768(4) -0.0465(4) 0.4032(2)
C7 C 0.8900(4) 0.1027(4) 0.4188(2)
H2 H 0.8947 0.1576 0.4059
C9 C 0.8877(4) 0.0862(3) 0.47402(19)
C10 C 0.8725(4) -0.0640(3) 0.4581(2)
H4 H 0.8665 -0.1189 0.4706
C12 C 0.8832(4) 0.0958(3) 0.56525(19)
C14 C 0.8754(3) 0.0096(3) 0.55215(19)
C18 C 0.8728(4) -0.0219(4) 0.6463(2)
C21 C 0.8931(4) 0.2322(3) 0.5121(2)
C22 C 0.8855(4) 0.1235(3) 0.6190(2)
H8 H 0.8900 0.1806 0.6274
C23 C 0.8810(4) 0.0641(4) 0.6592(2)
H9 H 0.8835 0.0809 0.6956
C24 C 0.8701(4) -0.0499(3) 0.5927(2)
H10 H 0.8649 -0.1070 0.5845
C27 C 0.8852(4) 0.0362(4) 0.3838(2)
H12 H 0.8874 0.0456 0.3465
C28 C 0.8687(4) -0.0834(4) 0.6890(2)
C29 C 0.8729(4) -0.1152(4) 0.3653(2)
C34 C 0.8271(4) 0.2820(4) 0.5348(3)
H16 H 0.7822 0.2581 0.5559
C36 C 0.9623(4) 0.2683(4) 0.4825(2)
H18 H 1.0095 0.2352 0.4692
C39 C 0.8281(5) 0.3678(4) 0.5259(3)
H20 H 0.7841 0.4018 0.5415
C40 C 0.8932(6) 0.4031(4) 0.4943(3)
H21 H 0.8920 0.4606 0.4872
C41 C 0.9606(5) 0.3530(4) 0.4732(3)
H22 H 1.0056 0.3772 0.4522
N1 N 0.8635(4) -0.1325(4) 0.7221(2)
N2 N 0.8705(4) -0.1697(4) 0.3351(2)
N5 N 0.8895(3) 0.1419(3) 0.51771(16)
Ag2C Ag 0.87939(5) -0.27669(4) 0.28401(3)
N2C N 0.8705(4) -0.3303(4) 0.8351(2)
C38 C 0.4516(6) 0.8878(5) 0.8847(3)
F5 F 0.5131(6) 0.8299(4) 0.8957(2)
F6 F 0.4615(5) 0.9438(4) 0.92270(19)
F7 F 0.3730(5) 0.8522(5) 0.8888(3)
O4 O 0.5558(5) 0.9672(5) 0.8219(2)
O5 O 0.4574(4) 0.8645(3) 0.78132(19)
O6 O 0.3943(6) 0.9925(5) 0.8130(3)
S1 S 0.46565(14) 0.93219(10) 0.81785(7)
F1 F 0.2399(4) 0.8800(4) 0.7396(3)
C42 C 0.1674(8) 0.8521(7) 0.7654(4)
F8 F 0.1875(6) 0.8445(5) 0.8165(3)
F9 F 0.1003(5) 0.9089(4) 0.7572(3)
O7 O 0.0529(4) 0.7282(4) 0.7670(3)
O8 O 0.2099(4) 0.6971(4) 0.7475(3)
O9 O 0.1090(6) 0.7695(4) 0.6815(2)
S3 S 0.13118(14) 0.75111(13) 0.73647(8)
C43 C 0.2721(7) 0.3804(5) 0.4646(4)
F2 F 0.3459(6) 0.3957(5) 0.4956(4)
F3 F 0.2855(6) 0.4188(3) 0.4201(3)
F4 F 0.2047(5) 0.4145(3) 0.4888(3)
O1 O 0.2475(6) 0.2355(4) 0.5050(3)
O2 O 0.1702(5) 0.2640(4) 0.4223(4)
O3 O 0.3336(4) 0.2437(3) 0.4249(3)
S2 S 0.25610(14) 0.26938(11) 0.45397(9)
C44 C 0.8046(15) 0.9858(12) 0.8325(6)
H23 H 0.7573 1.0166 0.8143
C45 C 0.8931(19) 1.0110(8) 0.8301(5)
H24 H 0.9074 1.0594 0.8110
C46 C 0.9632(10) 0.9643(15) 0.8564(8)
H25 H 1.0252 0.9813 0.8561
C47 C 0.9392(17) 0.8924(13) 0.8828(5)
H26 H 0.9854 0.8580 0.8989
C48 C 0.852(2) 0.8722(8) 0.8854(6)
H27 H 0.8367 0.8247 0.9052
C49 C 0.7830(10) 0.9173(16) 0.8606(8)
H28 H 0.7210 0.9011 0.8629
O12 O 0.0928(5) 0.3313(6) 0.3265(4)
H33 H 0.1243 0.3651 0.3080
H34 H 0.0375 0.3181 0.3155
O13 O 0.7468(5) 0.6067(5) 0.7173(3)
H35 H 0.7344 0.5567 0.7271
H36 H 0.8027 0.6247 0.7204
loop_
_geom_bond_atom_site_label_1
_geom_bond_atom_site_label_2
_geom_bond_site_symmetry_1
_geom_bond_site_symmetry_2
Ag1 N3 1_555 1_555
Ag2 N1 1_555 1_555
Ag3 C31 1_555 1_555
C1 H1 1_555 1_555
C2 C9 1_555 1_555
C3 C8 1_555 1_555
C4 C10 1_555 1_555
C5 C15 1_555 1_555
C6 C8 1_555 1_555
C7 H2 1_555 1_555
C8 H3 1_555 1_555
C9 C7 1_555 1_555
C10 C2 1_555 1_555
H4 C10 1_555 1_555
C11 H5 1_555 1_555
C12 C14 1_555 1_555
C13 C30 1_555 1_555
C14 C2 1_555 1_555
C15 C3 1_555 1_555
C16 C1 1_555 1_555
H6 C16 1_555 1_555
C17 C5 1_555 1_555
H7 C17 1_555 1_555
C18 C23 1_555 1_555
C19 C6 1_555 1_555
C20 C1 1_555 1_555
C21 C34 1_555 1_555
C22 C12 1_555 1_555
H8 C22 1_555 1_555
C23 C22 1_555 1_555
H9 C23 1_555 1_555
C24 C14 1_555 1_555
H10 C24 1_555 1_555
C25 C26 1_555 1_555
C26 H11 1_555 1_555
C27 C4 1_555 1_555
H12 C27 1_555 1_555
C28 C18 1_555 1_555
C29 C4 1_555 1_555
C30 C11 1_555 1_555
C31 H13 1_555 1_555
C32 C26 1_555 1_555
H14 C32 1_555 1_555
C33 C17 1_555 1_555
H15 C33 1_555 1_555
C34 H16 1_555 1_555
C35 C31 1_555 1_555
H17 C35 1_555 1_555
C36 C21 1_555 1_555
H18 C36 1_555 1_555
C37 C25 1_555 1_555
H19 C37 1_555 1_555
C38 F5 1_555 1_555
C39 C34 1_555 1_555
H20 C39 1_555 1_555
C40 C39 1_555 1_555
H21 C40 1_555 1_555
F1 C42 1_555 1_555
C41 C36 1_555 1_555
H22 C41 1_555 1_555
C42 F8 1_555 1_555
C43 F2 1_555 1_555
C44 H23 1_555 1_555
C45 C44 1_555 1_555
H24 C45 1_555 1_555
C46 C45 1_555 1_555
H25 C46 1_555 1_555
C47 C46 1_555 1_555
H26 C47 1_555 1_555
C48 C47 1_555 1_555
H27 C48 1_555 1_555
C49 C44 1_555 1_555
H28 C49 1_555 1_555
F3 C43 1_555 1_555
F4 C43 1_555 1_555
F6 C38 1_555 1_555
F7 C38 1_555 1_555
F9 C42 1_555 1_555
N1 C28 1_555 1_555
N2 C29 1_555 1_555
N3 C19 1_555 1_555
N4 C13 1_555 1_555
N5 C9 1_555 1_555
N6 C5 1_555 1_555
O1 S2 1_555 1_555
O2 S2 1_555 1_555
O3 S2 1_555 1_555
O4 S1 1_555 1_555
O5 S1 1_555 1_555
O6 S1 1_555 1_555
O7 S3 1_555 1_555
O8 S3 1_555 1_555
O9 S3 1_555 1_555
O10 Ag3 1_555 1_555
H29 O10 1_555 1_555
H30 O10 1_555 1_555
O11 Ag3 1_555 1_555
H31 O11 1_555 1_555
H32 O11 1_555 1_555
O12 H33 1_555 1_555
H34 O12 1_555 1_555
O13 H35 1_555 1_555
H36 O13 1_555 1_555
S1 C38 1_555 1_555
S2 C43 1_555 1_555
S3 C42 1_555 1_555
Ag1C N4 1_555 1_555
Ag2C N2 1_555 1_555
N2C Ag2 1_555 1_555
N4C Ag1 1_555 1_555
C3 C20 1_555 1_555
C6 C16 1_555 1_555
C7 C27 1_555 1_555
C11 C15 1_555 1_555
C12 N5 1_555 1_555
C18 C24 1_555 1_555
C20 N6 1_555 1_555
C21 N5 1_555 1_555
C25 N6 1_555 1_555
C30 C33 1_555 1_555
C31 C32 1_555 1_555
C35 C37 1_555 1_555
C40 C41 1_555 1_555
C48 C49 1_555 1_555

#END
