
#######################################################################
#
#                 Cambridge Crystallographic Data Centre
#                                CCDC 
#
#######################################################################
#
# If this CIF has been generated from an entry in the Cambridge 
# Structural Database, then it will include bibliographic, chemical, 
# crystal, experimental, refinement or atomic coordinate data resulting 
# from the CCDC's data processing and validation procedures.
#
#######################################################################

data_HILJIW
_symmetry_cell_setting           monoclinic
_symmetry_space_group_name_H-M   'P 21/c'
_symmetry_Int_Tables_number      14
_space_group_name_Hall           '-P 2ybc'
loop_
_symmetry_equiv_pos_site_id
_symmetry_equiv_pos_as_xyz
1 x,y,z
2 -x,1/2+y,1/2-z
3 -x,-y,-z
4 x,1/2-y,1/2+z
_cell_length_a                   10.600(17)
_cell_length_b                   11.076(18)
_cell_length_c                   15.23(2)
_cell_angle_alpha                90
_cell_angle_beta                 90.26(3)
_cell_angle_gamma                90
_cell_volume                     1788.07
loop_
_atom_site_label
_atom_site_type_symbol
_atom_site_fract_x
_atom_site_fract_y
_atom_site_fract_z
Ag1 Ag 1.24928(3) 0.86191(3) 0.20209(2)
N1 N 0.76134(19) 0.26130(19) 0.05478(14)
C1 C 0.7643(3) 0.1385(2) 0.08420(19)
N2 N 1.1141(2) 0.7371(2) 0.15542(18)
C2 C 0.9424(3) 0.3420(2) 0.14084(18)
H1 H 0.9638 0.2691 0.1673
C3 C 0.8427(2) 0.3503(2) 0.08249(18)
C4 C 0.7040(2) 0.4350(2) -0.01354(17)
C5 C 1.0510(3) 0.6582(2) 0.13912(19)
C6 C 0.6765(2) 0.3108(2) -0.00352(18)
C7 C 0.8100(2) 0.4608(2) 0.04243(16)
C8 C 0.8765(2) 0.5648(2) 0.06113(17)
H2 H 0.8553 0.6383 0.0355
C9 C 1.0083(3) 0.4450(3) 0.15809(18)
H3 H 1.0766 0.4420 0.1966
C10 C 0.9756(2) 0.5551(2) 0.11931(17)
C11 C 0.5106(3) 0.3262(3) -0.1051(2)
H4 H 0.4453 0.2918 -0.1374
C12 C 0.5798(3) 0.2553(3) -0.0489(2)
H5 H 0.5622 0.1736 -0.0417
C13 C 0.6613(3) 0.0888(3) 0.1218(2)
H6 H 0.5872 0.1331 0.1275
C14 C 0.6335(3) 0.5053(2) -0.06965(17)
H7 H 0.6505 0.5871 -0.0769
C15 C 0.8740(3) 0.0737(3) 0.0760(2)
H8 H 0.9441 0.1080 0.0493
C16 C 0.6679(4) -0.0302(3) 0.1520(2)
H9 H 0.5974 -0.0659 0.1771
C17 C 0.5367(3) 0.4497(3) -0.11474(18)
C18 C 0.8790(4) -0.0428(3) 0.1079(2)
H10 H 0.9538 -0.0863 0.1038
C19 C 0.7772(4) -0.0943(3) 0.1448(2)
H11 H 0.7814 -0.1733 0.1654
N3 N 0.3951(3) 0.5795(3) -0.21200(18)
C20 C 0.4583(3) 0.5210(3) -0.16977(19)
Ag1C Ag 0.24928(3) 0.63809(3) -0.29791(2)
N3C N 1.3951(3) 0.9205(3) 0.28800(18)
O1 O 0.1722(4) 0.1080(4) 0.1971(3)
O2 O 0.3240(4) 0.0424(3) 0.1023(2)
Cl1 Cl 0.26499(8) 0.14499(7) 0.13893(6)
O3 O 0.2119(4) 0.2193(3) 0.0734(2)
O4 O 0.3578(4) 0.2099(3) 0.1849(3)
loop_
_geom_bond_atom_site_label_1
_geom_bond_atom_site_label_2
_geom_bond_site_symmetry_1
_geom_bond_site_symmetry_2
Ag1 N2 1_555 1_555
N1 C1 1_555 1_555
C1 C13 1_555 1_555
N2 C5 1_555 1_555
C2 H1 1_555 1_555
C3 N1 1_555 1_555
C4 C6 1_555 1_555
C5 C10 1_555 1_555
C6 N1 1_555 1_555
C7 C3 1_555 1_555
C8 C7 1_555 1_555
H2 C8 1_555 1_555
C9 C2 1_555 1_555
H3 C9 1_555 1_555
C10 C8 1_555 1_555
C11 H4 1_555 1_555
C12 C6 1_555 1_555
H5 C12 1_555 1_555
C13 H6 1_555 1_555
C14 C4 1_555 1_555
H7 C14 1_555 1_555
C15 C1 1_555 1_555
H8 C15 1_555 1_555
C16 C13 1_555 1_555
H9 C16 1_555 1_555
C17 C11 1_555 1_555
C18 C15 1_555 1_555
H10 C18 1_555 1_555
C19 C16 1_555 1_555
H11 C19 1_555 1_555
N3 C20 1_555 1_555
C20 C17 1_555 1_555
O1 Cl1 1_555 1_555
O2 Cl1 1_555 1_555
Cl1 O3 1_555 1_555
O4 Cl1 1_555 1_555
Ag1C N3 1_555 1_555
N3C Ag1 1_555 1_555
C2 C3 1_555 1_555
C4 C7 1_555 1_555
C9 C10 1_555 1_555
C11 C12 1_555 1_555
C14 C17 1_555 1_555
C18 C19 1_555 1_555

#END
