
#######################################################################
#
#                 Cambridge Crystallographic Data Centre
#                                CCDC 
#
#######################################################################
#
# If this CIF has been generated from an entry in the Cambridge 
# Structural Database, then it will include bibliographic, chemical, 
# crystal, experimental, refinement or atomic coordinate data resulting 
# from the CCDC's data processing and validation procedures.
#
#######################################################################

data_HILKAP01
_symmetry_cell_setting           monoclinic
_symmetry_space_group_name_H-M   'P 21/c'
_symmetry_Int_Tables_number      14
_space_group_name_Hall           '-P 2ybc'
loop_
_symmetry_equiv_pos_site_id
_symmetry_equiv_pos_as_xyz
1 x,y,z
2 -x,1/2+y,1/2-z
3 -x,-y,-z
4 x,1/2-y,1/2+z
_cell_length_a                   6.4168(5)
_cell_length_b                   10.7939(9)
_cell_length_c                   11.1549(10)
_cell_angle_alpha                90
_cell_angle_beta                 94.733(4)
_cell_angle_gamma                90
_cell_volume                     769.979
loop_
_atom_site_label
_atom_site_type_symbol
_atom_site_fract_x
_atom_site_fract_y
_atom_site_fract_z
Mn1 Mn 0.26435(9) 0.66716(6) 0.10329(5)
O1 O 0.3007(6) 0.7266(3) 0.2899(3)
O2 O 0.2453(6) 0.4612(3) 0.1313(3)
H1 H 0.338(14) 0.437(8) 0.075(9)
H2 H 0.128(13) 0.433(7) 0.114(7)
O3 O 0.2027(5) 0.8745(3) 0.4136(3)
O4 O 0.0687(5) 1.1558(3) 0.3865(3)
O5 O 0.4115(5) 1.1328(3) 0.4154(3)
N1 N 0.2590(5) 0.8792(4) 0.1018(3)
C1 C 0.2504(6) 0.9292(4) 0.2123(4)
C2 C 0.2411(6) 1.0568(4) 0.2310(4)
C3 C 0.2382(7) 1.1339(4) 0.1303(4)
H3 H 0.2317 1.2195 0.1392
C4 C 0.2451(7) 1.0824(4) 0.0179(4)
H4 H 0.2424 1.1325 -0.0500
C5 C 0.2561(7) 0.9552(4) 0.0074(4)
H5 H 0.2617 0.9210 -0.0688
C6 C 0.2523(6) 0.8354(4) 0.3131(4)
C7 C 0.2390(6) 1.1174(4) 0.3536(4)
Mn1A Mn -0.26435(9) 1.16716(6) 0.39671(5)
Mn1A_2 Mn 0.73565(9) 1.16716(6) 0.39671(5)
Mn1C Mn 0.26435(9) 0.83284(6) 0.60329(5)
O3C O 0.2027(5) 0.6255(3) -0.0864(3)
O4A O -0.0687(5) 0.6558(3) 0.1135(3)
O5A O 0.5885(5) 0.6328(3) 0.0846(3)
loop_
_geom_bond_atom_site_label_1
_geom_bond_atom_site_label_2
_geom_bond_site_symmetry_1
_geom_bond_site_symmetry_2
Mn1 O1 1_555 1_555
O1 C6 1_555 1_555
O2 Mn1 1_555 1_555
H1 O2 1_555 1_555
H2 O2 1_555 1_555
O3 C6 1_555 1_555
O4 C7 1_555 1_555
O5 C7 1_555 1_555
N1 Mn1 1_555 1_555
C1 N1 1_555 1_555
C2 C1 1_555 1_555
C3 C2 1_555 1_555
H3 C3 1_555 1_555
C4 C3 1_555 1_555
H4 C4 1_555 1_555
C5 N1 1_555 1_555
H5 C5 1_555 1_555
C6 C1 1_555 1_555
C7 C2 1_555 1_555
Mn1A O4 1_555 1_555
Mn1A_2 O5 1_555 1_555
Mn1C O3 1_555 1_555
O3C Mn1 1_555 1_555
O4A Mn1 1_555 1_555
O5A Mn1 1_555 1_555
C4 C5 1_555 1_555

#END
