
#######################################################################
#
#                 Cambridge Crystallographic Data Centre
#                                CCDC 
#
#######################################################################
#
# If this CIF has been generated from an entry in the Cambridge 
# Structural Database, then it will include bibliographic, chemical, 
# crystal, experimental, refinement or atomic coordinate data resulting 
# from the CCDC's data processing and validation procedures.
#
#######################################################################

data_HILNUN
_symmetry_cell_setting           triclinic
_symmetry_space_group_name_H-M   'P -1'
_symmetry_Int_Tables_number      2
_space_group_name_Hall           '-P 1'
loop_
_symmetry_equiv_pos_site_id
_symmetry_equiv_pos_as_xyz
1 x,y,z
2 -x,-y,-z
_cell_length_a                   10.0780(5)
_cell_length_b                   10.1678(5)
_cell_length_c                   10.3591(5)
_cell_angle_alpha                83.1190(10)
_cell_angle_beta                 81.178(2)
_cell_angle_gamma                64.7530(10)
_cell_volume                     946.993
loop_
_atom_site_label
_atom_site_type_symbol
_atom_site_fract_x
_atom_site_fract_y
_atom_site_fract_z
Zn1 Zn 0.55426(2) 0.63819(2) 1.124167(18)
C1 C 0.9481(2) 0.6856(2) 0.71289(19)
C2 C 1.0958(2) 0.6539(3) 0.7128(2)
H1 H 1.1473 0.5964 0.7810
C3 C 1.1663(3) 0.7092(3) 0.6092(2)
H2 H 1.2666 0.6856 0.6061
C4 C 1.0879(3) 0.7986(3) 0.5114(2)
H3 H 1.1345 0.8375 0.4433
C5 C 0.9405(3) 0.8305(3) 0.5146(2)
H4 H 0.8878 0.8923 0.4488
C6 C 0.8695(3) 0.7724(3) 0.6137(2)
H5 H 0.7707 0.7914 0.6135
C7 C 0.7604(2) 0.6969(2) 0.9047(2)
C8 C 0.6860(3) 0.8576(3) 0.9130(3)
H6 H 0.6249 0.9000 0.8433
H7 H 0.7590 0.8961 0.9055
H8 H 0.6258 0.8806 0.9956
C9 C 0.9120(2) 0.4783(2) 0.8482(2)
C10 C 1.0309(3) 0.3594(3) 0.7735(3)
H9 H 1.1248 0.3579 0.7828
H10 H 1.0155 0.3755 0.6827
H11 H 1.0292 0.2677 0.8067
C11 C 0.1158(2) 0.9143(2) 0.91339(19)
H12 H 0.1934 0.8572 0.8551
C12 C 0.1311(2) 0.89987(19) 1.04586(18)
C13 C 0.0147(2) 0.9864(2) 1.13209(19)
H13 H 0.0247 0.9774 1.2209
C14 C 0.2715(2) 0.7929(2) 1.0982(2)
C15 C 0.5680(3) 0.9893(2) 1.3725(2)
H14 H 0.6141 0.9823 1.2870
C16 C 0.5228(2) 0.8828(2) 1.42870(19)
C17 C 0.4548(3) 0.8929(2) 1.5573(2)
H15 H 0.4248 0.8212 1.5959
C18 C 0.5453(2) 0.7557(2) 1.3529(2)
N1 N 0.72767(19) 0.60077(19) 0.98308(17)
N2 N 0.8236(2) 0.46152(19) 0.94722(18)
N3 N 0.87726(18) 0.62361(18) 0.81756(16)
O1 O 0.5351(3) 0.64677(19) 1.41034(18)
O2 O 0.57251(19) 0.77326(19) 1.22922(15)
O3 O 0.27449(19) 0.76000(19) 1.21630(16)
O4 O 0.38748(15) 0.74165(16) 1.01484(14)
O5 O 0.57037(17) 0.43889(15) 1.17715(14)
C11A C -0.1158(2) 1.0857(2) 1.08661(19)
H12A H -0.1934 1.1428 1.1449
C12A C -0.1311(2) 1.10013(19) 0.95414(18)
C13A C -0.0147(2) 1.0136(2) 0.86791(19)
H13A H -0.0247 1.0226 0.7791
C14A C -0.2715(2) 1.2071(2) 0.9018(2)
O3A O -0.27449(19) 1.24000(19) 0.78370(16)
O4A O -0.38748(15) 1.25835(16) 0.98516(14)
C15A C 0.4320(3) 1.0107(2) 1.6275(2)
H14A H 0.3859 1.0177 1.7130
C16A C 0.4772(2) 1.1172(2) 1.57130(19)
C17A C 0.5452(3) 1.1071(2) 1.4427(2)
H15A H 0.5752 1.1788 1.4041
C18A C 0.4547(2) 1.2443(2) 1.6471(2)
O1A O 0.4649(3) 1.35323(19) 1.58966(18)
O2A O 0.42749(19) 1.22674(19) 1.77078(15)
Zn1A Zn -0.55426(2) 1.36181(2) 0.875833(18)
C1A C -0.9481(2) 1.3144(2) 1.28711(19)
C2A C -1.0958(2) 1.3461(3) 1.2872(2)
H1A H -1.1473 1.4036 1.2190
C3A C -1.1663(3) 1.2908(3) 1.3908(2)
H2A H -1.2666 1.3144 1.3939
C4A C -1.0879(3) 1.2014(3) 1.4886(2)
H3A H -1.1345 1.1625 1.5567
C5A C -0.9405(3) 1.1695(3) 1.4854(2)
H4A H -0.8878 1.1077 1.5512
C6A C -0.8695(3) 1.2276(3) 1.3863(2)
H5A H -0.7707 1.2086 1.3865
C7A C -0.7604(2) 1.3031(2) 1.0953(2)
C8A C -0.6860(3) 1.1424(3) 1.0870(3)
H6A H -0.6249 1.1000 1.1567
H7A H -0.7590 1.1039 1.0945
H8A H -0.6258 1.1194 1.0044
C9A C -0.9120(2) 1.5217(2) 1.1518(2)
C10A C -1.0309(3) 1.6406(3) 1.2265(3)
H9A H -1.1248 1.6421 1.2172
H10A H -1.0155 1.6245 1.3173
H11A H -1.0292 1.7323 1.1933
N1A N -0.72767(19) 1.39923(19) 1.01692(17)
N2A N -0.8236(2) 1.53848(19) 1.05278(18)
N3A N -0.87726(18) 1.37639(18) 1.18244(16)
O5A O -0.57037(17) 1.56111(15) 0.82285(14)
Zn1A_2 Zn 0.44574(2) 1.36181(2) 1.875833(18)
O2A_2 O -0.57251(19) 1.22674(19) 0.77078(15)
O6 O 0.6570(2) 0.5342(2) 1.64780(17)
H16 H 0.6683 0.4501 1.6692
H17 H 0.6351 0.5610 1.5731
loop_
_geom_bond_atom_site_label_1
_geom_bond_atom_site_label_2
_geom_bond_site_symmetry_1
_geom_bond_site_symmetry_2
Zn1 N1 1_555 1_555
C1 C2 1_555 1_555
C2 H1 1_555 1_555
C3 C2 1_555 1_555
H2 C3 1_555 1_555
C4 C3 1_555 1_555
H3 C4 1_555 1_555
C5 C4 1_555 1_555
H4 C5 1_555 1_555
C6 C1 1_555 1_555
H5 C6 1_555 1_555
C7 C8 1_555 1_555
C8 H6 1_555 1_555
H7 C8 1_555 1_555
H8 C8 1_555 1_555
C9 C10 1_555 1_555
C10 H9 1_555 1_555
H10 C10 1_555 1_555
H11 C10 1_555 1_555
C11 H12 1_555 1_555
C12 C11 1_555 1_555
C13 C12 1_555 1_555
H13 C13 1_555 1_555
C14 C12 1_555 1_555
C15 H14 1_555 1_555
C16 C15 1_555 1_555
C17 C16 1_555 1_555
H15 C17 1_555 1_555
C18 C16 1_555 1_555
N1 C7 1_555 1_555
N2 C9 1_555 1_555
N3 C1 1_555 1_555
O1 C18 1_555 1_555
O2 Zn1 1_555 1_555
O3 C14 1_555 1_555
O4 Zn1 1_555 1_555
O5 Zn1 1_555 1_555
O6 H16 1_555 1_555
H17 O6 1_555 1_555
C11A C13 1_555 1_555
H12A C11A 1_555 1_555
C12A C11A 1_555 1_555
C13A C11 1_555 1_555
H13A C13A 1_555 1_555
C14A C12A 1_555 1_555
O3A C14A 1_555 1_555
O4A C14A 1_555 1_555
C15A C17 1_555 1_555
H14A C15A 1_555 1_555
C16A C15A 1_555 1_555
C17A C15 1_555 1_555
H15A C17A 1_555 1_555
C18A C16A 1_555 1_555
O1A C18A 1_555 1_555
O2A C18A 1_555 1_555
Zn1A O4A 1_555 1_555
C1A C2A 1_555 1_555
C2A H1A 1_555 1_555
C3A C2A 1_555 1_555
H2A C3A 1_555 1_555
C4A C3A 1_555 1_555
H3A C4A 1_555 1_555
C5A C4A 1_555 1_555
H4A C5A 1_555 1_555
C6A C1A 1_555 1_555
H5A C6A 1_555 1_555
C7A C8A 1_555 1_555
C8A H6A 1_555 1_555
H7A C8A 1_555 1_555
H8A C8A 1_555 1_555
C9A C10A 1_555 1_555
C10A H9A 1_555 1_555
H10A C10A 1_555 1_555
H11A C10A 1_555 1_555
N1A Zn1A 1_555 1_555
N2A C9A 1_555 1_555
N3A C1A 1_555 1_555
O5A Zn1A 1_555 1_555
Zn1A_2 O2A 1_555 1_555
O2A_2 Zn1A 1_555 1_555
C5 C6 1_555 1_555
C7 N3 1_555 1_555
C9 N3 1_555 1_555
C14 O4 1_555 1_555
C18 O2 1_555 1_555
N1 N2 1_555 1_555
C12A C13A 1_555 1_555
C16A C17A 1_555 1_555
C5A C6A 1_555 1_555
C7A N1A 1_555 1_555
C7A N3A 1_555 1_555
C9A N3A 1_555 1_555
N1A N2A 1_555 1_555

#END
