
#######################################################################
#
#                 Cambridge Crystallographic Data Centre
#                                CCDC 
#
#######################################################################
#
# If this CIF has been generated from an entry in the Cambridge 
# Structural Database, then it will include bibliographic, chemical, 
# crystal, experimental, refinement or atomic coordinate data resulting 
# from the CCDC's data processing and validation procedures.
#
#######################################################################

data_HILRIF
_symmetry_cell_setting           monoclinic
_symmetry_space_group_name_H-M   'C 2/c'
_symmetry_Int_Tables_number      15
_space_group_name_Hall           '-C 2yn'
loop_
_symmetry_equiv_pos_site_id
_symmetry_equiv_pos_as_xyz
1 x,y,z
2 -x,y,1/2-z
3 1/2+x,1/2+y,z
4 1/2-x,1/2+y,1/2-z
5 -x,-y,-z
6 x,-y,1/2+z
7 1/2-x,1/2-y,-z
8 1/2+x,1/2-y,1/2+z
_cell_length_a                   16.155(2)
_cell_length_b                   10.6695(16)
_cell_length_c                   18.098(3)
_cell_angle_alpha                90
_cell_angle_beta                 95.251(3)
_cell_angle_gamma                90
_cell_volume                     3106.38
loop_
_atom_site_label
_atom_site_type_symbol
_atom_site_fract_x
_atom_site_fract_y
_atom_site_fract_z
N3 N 0.5000 1.0957(12) 0.2500
C14 C 0.5000 0.9965(14) 0.2500
C15 C 0.4880(15) 0.8699(19) 0.2609(14)
H9 H 0.5256 0.8245 0.2309
H10 H 0.5002 0.8488 0.3112
H11 H 0.4323 0.8488 0.2436
C15A C 0.5120(15) 0.8699(19) 0.2391(14)
H9A H 0.4744 0.8245 0.2691
H10A H 0.4998 0.8488 0.1888
H11A H 0.5677 0.8488 0.2564
O4 O 0.9538(11) 0.4717(15) 0.4420(9)
Ag1 Ag 0.67130(3) 0.25951(6) 0.54759(3)
C1 C 0.5857(4) 0.4623(6) 0.4438(3)
H1 H 0.6331 0.5069 0.4610
C2 C 0.5293(4) 0.5188(5) 0.3937(3)
H2 H 0.5384 0.6002 0.3781
C3 C 0.4590(3) 0.4551(5) 0.3663(3)
C4 C 0.4479(3) 0.3363(6) 0.3936(3)
H3 H 0.4005 0.2907 0.3779
C5 C 0.5069(4) 0.2858(6) 0.4440(3)
H4 H 0.4984 0.2053 0.4615
N1 N 0.5761(3) 0.3464(5) 0.4692(2)
C6 C 0.3985(4) 0.5202(6) 0.3118(3)
O1 O 0.3949(3) 0.6344(4) 0.3121(3)
C7 C 0.2306(4) 0.4479(7) 0.1623(4)
H5 H 0.1842 0.4887 0.1395
C8 C 0.2767(4) 0.5088(6) 0.2181(4)
H6 H 0.2623 0.5892 0.2321
C9 C 0.3454(3) 0.4491(5) 0.2535(3)
C10 C 0.3643(3) 0.3317(5) 0.2296(3)
H7 H 0.4102 0.2890 0.2517
C11 C 0.3147(4) 0.2774(5) 0.1725(3)
H8 H 0.3286 0.1977 0.1568
N2 N 0.2480(3) 0.3333(5) 0.1385(3)
C12 C 0.8039(7) 0.5218(8) 0.5587(6)
C13 C 0.8234(8) 0.6465(13) 0.5877(7)
O2 O 0.7397(6) 0.4791(9) 0.5730(6)
O3 O 0.8523(8) 0.4779(10) 0.5218(6)
F1 F 0.8753(10) 0.7177(14) 0.5631(9)
F2 F 0.8438(12) 0.6347(19) 0.6615(7)
F3 F 0.7507(10) 0.710(2) 0.5823(12)
Ag1F Ag 0.82870(3) 0.24049(6) 0.45241(3)
Ag1G Ag 0.17130(3) 0.24049(6) 0.04759(3)
N2G N 0.7480(3) 0.1667(5) 0.6385(3)
F4? F 0.828(2) 0.719(3) 0.5267(16)
F5? F 0.9069(12) 0.652(3) 0.6012(15)
F6? F 0.781(2) 0.705(3) 0.6332(19)
loop_
_geom_bond_atom_site_label_1
_geom_bond_atom_site_label_2
_geom_bond_site_symmetry_1
_geom_bond_site_symmetry_2
Ag1 N1 1_555 1_555
C1 H1 1_555 1_555
C2 C1 1_555 1_555
H2 C2 1_555 1_555
C3 C2 1_555 1_555
C4 C3 1_555 1_555
H3 C4 1_555 1_555
C5 C4 1_555 1_555
H4 C5 1_555 1_555
N1 C1 1_555 1_555
C6 C3 1_555 1_555
O1 C6 1_555 1_555
C7 H5 1_555 1_555
C8 C7 1_555 1_555
H6 C8 1_555 1_555
C9 C6 1_555 1_555
C10 C9 1_555 1_555
H7 C10 1_555 1_555
C11 C10 1_555 1_555
H8 C11 1_555 1_555
N2 C7 1_555 1_555
C12 C13 1_555 1_555
C13 F1 1_555 1_555
O2 Ag1 1_555 1_555
O3 C12 1_555 1_555
F2 C13 1_555 1_555
F3 C13 1_555 1_555
N3 C14 1_555 1_555
C14 C15 1_555 1_555
C15 H10 1_555 1_555
H9 C15A 1_555 1_555
H11 C15 1_555 1_555
Ag1F Ag1 1_555 1_555
Ag1G N2 1_555 1_555
N2G Ag1 1_555 1_555
C15A C14 1_555 1_555
H9A C15 1_555 1_555
H10A C15A 1_555 1_555
H11A C15A 1_555 1_555
C5 N1 1_555 1_555
C8 C9 1_555 1_555
C11 N2 1_555 1_555
C12 O2 1_555 1_555

#END
