
#######################################################################
#
#                 Cambridge Crystallographic Data Centre
#                                CCDC 
#
#######################################################################
#
# If this CIF has been generated from an entry in the Cambridge 
# Structural Database, then it will include bibliographic, chemical, 
# crystal, experimental, refinement or atomic coordinate data resulting 
# from the CCDC's data processing and validation procedures.
#
#######################################################################

data_HIMWEH
_symmetry_cell_setting           triclinic
_symmetry_space_group_name_H-M   'P -1'
_symmetry_Int_Tables_number      2
_space_group_name_Hall           '-P 1'
loop_
_symmetry_equiv_pos_site_id
_symmetry_equiv_pos_as_xyz
1 x,y,z
2 -x,-y,-z
_cell_length_a                   8.2708(10)
_cell_length_b                   8.4303(10)
_cell_length_c                   18.159(2)
_cell_angle_alpha                87.271(2)
_cell_angle_beta                 77.0280(10)
_cell_angle_gamma                81.0630(10)
_cell_volume                     1218.74
loop_
_atom_site_label
_atom_site_type_symbol
_atom_site_fract_x
_atom_site_fract_y
_atom_site_fract_z
Pr1 Pr 0.78450(6) 0.72981(6) 0.46923(3)
Cu1 Cu 1.63964(17) 0.09946(17) -0.02026(8)
Cu2 Cu 1.39576(18) 0.35955(17) 0.01960(7)
I1 I 1.70950(9) 0.35897(8) 0.03920(4)
I2 I 1.35476(8) 0.14762(8) -0.07455(4)
S1 S 0.6109(3) 0.6836(3) 0.30785(14)
C1 C 1.0532(12) 0.4671(11) 0.2333(5)
H1 H 0.9560 0.5391 0.2504
C2 C 1.1204(12) 0.4509(13) 0.1563(6)
H2 H 1.0671 0.5136 0.1227
C3 C 1.3281(13) 0.2541(12) 0.1794(6)
H3 H 1.4219 0.1784 0.1619
C4 C 1.2667(12) 0.2641(11) 0.2557(5)
H4 H 1.3168 0.1952 0.2884
C5 C 1.1294(10) 0.3776(11) 0.2838(5)
C6 C 1.0745(11) 0.4092(12) 0.3678(5)
C7 C 0.9105(11) 1.0913(12) 0.1819(6)
H5 H 0.8222 1.1747 0.1825
C8 C 1.0368(12) 1.0607(12) 0.1180(6)
H6 H 1.0304 1.1246 0.0753
C9 C 1.1743(12) 0.8510(12) 0.1756(6)
H7 H 1.2643 0.7689 0.1739
C10 C 1.0526(12) 0.8719(11) 0.2412(6)
H8 H 1.0599 0.8042 0.2826
C11 C 0.9190(11) 0.9945(10) 0.2448(5)
C12 C 0.7813(12) 1.0236(12) 0.3160(5)
C13 C 0.5323(18) 0.5226(15) 0.2733(7)
H9 H 0.6020 0.4230 0.2799
H10 H 0.5332 0.5403 0.2206
H11 H 0.4196 0.5180 0.3009
C14 C 0.4399(13) 0.8380(13) 0.3061(6)
H12 H 0.3378 0.8030 0.3335
H13 H 0.4322 0.8623 0.2547
H14 H 0.4569 0.9324 0.3292
C15 C 0.9167(10) 1.0562(11) 0.5180(5)
N1 N 1.2623(10) 0.3459(10) 0.1281(4)
N2 N 1.1687(9) 0.9438(10) 0.1142(4)
O1 O 1.1356(9) 0.3096(9) 0.4109(4)
O2 O 0.9763(8) 0.5349(8) 0.3880(4)
O3 O 0.6746(10) 1.1456(9) 0.3204(4)
O4 O 0.7821(8) 0.9153(8) 0.3671(4)
O5 O 0.7826(7) 1.0054(7) 0.5182(4)
O6 O 0.9311(7) 1.1874(7) 0.5445(4)
O7 O 0.6988(7) 0.4668(8) 0.5257(4)
O8 O 0.4920(7) 0.8123(8) 0.5355(3)
O9 O 0.5989(7) 0.6437(8) 0.3913(3)
H15 H 0.6114 0.4361 0.5525
H16 H 0.7776 0.3892 0.5262
H17 H 0.4132 0.8477 0.5140
H18 H 0.4505 0.8154 0.5825
C15A C 1.0833(10) 0.9438(11) 0.4820(5)
O5A O 1.2174(7) 0.9946(7) 0.4818(4)
O6A O 1.0689(7) 0.8126(7) 0.4555(4)
Pr1A Pr 1.21550(6) 0.27019(6) 0.53077(3)
Cu1A Cu 0.36036(17) 0.90054(17) 1.02026(8)
Cu2A Cu 0.60424(18) 0.64045(17) 0.98040(7)
I1A I 0.29050(9) 0.64103(8) 0.96080(4)
I2A I 0.64524(8) 0.85238(8) 1.07455(4)
S1A S 1.3891(3) 0.3164(3) 0.69215(14)
C1A C 0.9468(12) 0.5329(11) 0.7667(5)
H1A H 1.0440 0.4609 0.7496
C2A C 0.8796(12) 0.5491(13) 0.8437(6)
H2A H 0.9329 0.4864 0.8773
C3A C 0.6719(13) 0.7459(12) 0.8206(6)
H3A H 0.5781 0.8216 0.8381
C4A C 0.7333(12) 0.7359(11) 0.7443(5)
H4A H 0.6832 0.8048 0.7116
C5A C 0.8706(10) 0.6224(11) 0.7162(5)
C6A C 0.9255(11) 0.5908(12) 0.6322(5)
C7A C 1.0895(11) -0.0913(12) 0.8181(6)
H5A H 1.1778 -0.1747 0.8175
C8A C 0.9632(12) -0.0607(12) 0.8820(6)
H6A H 0.9696 -0.1246 0.9247
C9A C 0.8257(12) 0.1490(12) 0.8244(6)
H7A H 0.7357 0.2311 0.8261
C10A C 0.9474(12) 0.1281(11) 0.7588(6)
H8A H 0.9401 0.1958 0.7174
C11A C 1.0810(11) 0.0055(10) 0.7552(5)
C12A C 1.2187(12) -0.0236(12) 0.6840(5)
C13A C 1.4677(18) 0.4774(15) 0.7267(7)
H9A H 1.3980 0.5770 0.7201
H10A H 1.4668 0.4597 0.7794
H11A H 1.5804 0.4820 0.6991
C14A C 1.5601(13) 0.1620(13) 0.6939(6)
H12A H 1.6622 0.1970 0.6665
H13A H 1.5678 0.1377 0.7453
H14A H 1.5431 0.0676 0.6708
N1A N 0.7377(10) 0.6541(10) 0.8719(4)
N2A N 0.8313(9) 0.0562(10) 0.8858(4)
O1A O 0.8644(9) 0.6904(9) 0.5891(4)
O2A O 1.0237(8) 0.4651(8) 0.6120(4)
O3A O 1.3254(10) -0.1456(9) 0.6796(4)
O4A O 1.2179(8) 0.0847(8) 0.6329(4)
O7A O 1.3012(7) 0.5332(8) 0.4743(4)
O8A O 1.5080(7) 0.1877(8) 0.4645(3)
O9A O 1.4011(7) 0.3563(8) 0.6087(3)
H15A H 1.3886 0.5639 0.4475
H16A H 1.2224 0.6108 0.4738
H17A H 1.5868 0.1523 0.4860
H18A H 1.5495 0.1846 0.4175
Pr1A_2 Pr 1.21550(6) 1.27019(6) 0.53077(3)
Cu1_2 Cu 0.63964(17) 0.09946(17) 0.97974(8)
Cu1_3 Cu 0.63964(17) 1.09946(17) 0.97974(8)
Cu1A_2 Cu 1.36036(17) -0.09946(17) 0.02026(8)
Cu1A_3 Cu 1.36036(17) 0.90054(17) 0.02026(8)
Cu2_2 Cu 0.39576(18) 0.35955(17) 1.01960(7)
Cu2A_2 Cu 1.60424(18) 0.64045(17) -0.01960(7)
I1_2 I 0.70950(9) 0.35897(8) 1.03920(4)
I1A_2 I 1.29050(9) 0.64103(8) -0.03920(4)
I2_2 I 0.35476(8) 1.14762(8) 0.92545(4)
I2A_2 I 1.64524(8) -0.14762(8) 0.07455(4)
N2_2 N 0.1687(9) 0.9438(10) 1.1142(4)
N2A_2 N 1.8313(9) 0.0562(10) -0.1142(4)
O5A_2 O 1.2174(7) -0.0054(7) 0.4818(4)
O6_2 O 0.9311(7) 0.1874(7) 0.5445(4)
loop_
_geom_bond_atom_site_label_1
_geom_bond_atom_site_label_2
_geom_bond_site_symmetry_1
_geom_bond_site_symmetry_2
Pr1 O2 1_555 1_555
Cu1 Cu2 1_555 1_555
Cu2 I1 1_555 1_555
I1 Cu1 1_555 1_555
I2 Cu1 1_555 1_555
S1 C13 1_555 1_555
C1 H1 1_555 1_555
C2 C1 1_555 1_555
H2 C2 1_555 1_555
C3 H3 1_555 1_555
C4 C3 1_555 1_555
H4 C4 1_555 1_555
C5 C1 1_555 1_555
C6 C5 1_555 1_555
C7 H5 1_555 1_555
C8 C7 1_555 1_555
H6 C8 1_555 1_555
C9 H7 1_555 1_555
C10 C9 1_555 1_555
H8 C10 1_555 1_555
C11 C7 1_555 1_555
C12 C11 1_555 1_555
C13 H9 1_555 1_555
H10 C13 1_555 1_555
H11 C13 1_555 1_555
C14 S1 1_555 1_555
H12 C14 1_555 1_555
H13 C14 1_555 1_555
H14 C14 1_555 1_555
C15 O5 1_555 1_555
N1 Cu2 1_555 1_555
N2 C8 1_555 1_555
O1 C6 1_555 1_555
O2 C6 1_555 1_555
O3 C12 1_555 1_555
O4 Pr1 1_555 1_555
O5 Pr1 1_555 1_555
O6 C15 1_555 1_555
O7 Pr1 1_555 1_555
O8 Pr1 1_555 1_555
O9 Pr1 1_555 1_555
H15 O7 1_555 1_555
H16 O7 1_555 1_555
H17 O8 1_555 1_555
H18 O8 1_555 1_555
C15A C15 1_555 1_555
O5A C15A 1_555 1_555
O6A Pr1 1_555 1_555
Pr1A O1 1_555 1_555
Cu1A Cu2A 1_555 1_555
Cu2A I1A 1_555 1_555
I1A Cu1A 1_555 1_555
I2A Cu1A 1_555 1_555
S1A C13A 1_555 1_555
C1A H1A 1_555 1_555
C2A C1A 1_555 1_555
H2A C2A 1_555 1_555
C3A H3A 1_555 1_555
C4A C3A 1_555 1_555
H4A C4A 1_555 1_555
C5A C1A 1_555 1_555
C6A C5A 1_555 1_555
C7A H5A 1_555 1_555
C8A C7A 1_555 1_555
H6A C8A 1_555 1_555
C9A H7A 1_555 1_555
C10A C9A 1_555 1_555
H8A C10A 1_555 1_555
C11A C7A 1_555 1_555
C12A C11A 1_555 1_555
C13A H9A 1_555 1_555
H10A C13A 1_555 1_555
H11A C13A 1_555 1_555
C14A S1A 1_555 1_555
H12A C14A 1_555 1_555
H13A C14A 1_555 1_555
H14A C14A 1_555 1_555
N1A Cu2A 1_555 1_555
N2A C8A 1_555 1_555
O1A Pr1 1_555 1_555
O2A Pr1A 1_555 1_555
O3A C12A 1_555 1_555
O4A Pr1A 1_555 1_555
O7A Pr1A 1_555 1_555
O8A Pr1A 1_555 1_555
O9A Pr1A 1_555 1_555
H15A O7A 1_555 1_555
H16A O7A 1_555 1_555
H17A O8A 1_555 1_555
H18A O8A 1_555 1_555
Pr1A_2 O6 1_555 1_555
Cu1_2 N2A 1_555 1_555
Cu1_3 I2A 1_555 1_555
Cu1A_2 I2 1_555 1_555
Cu1A_3 N2 1_555 1_555
Cu2_2 I1A 1_555 1_555
Cu2A_2 I1 1_555 1_555
I1_2 Cu2A 1_555 1_555
I1A_2 Cu2 1_555 1_555
I2_2 Cu1A 1_555 1_555
I2A_2 Cu1 1_555 1_555
N2_2 Cu1A 1_555 1_555
N2A_2 Cu1 1_555 1_555
O5A_2 Pr1A 1_555 1_555
O6_2 Pr1A 1_555 1_555
Cu2 I2 1_555 1_555
S1 O9 1_555 1_555
C2 N1 1_555 1_555
C3 N1 1_555 1_555
C4 C5 1_555 1_555
C9 N2 1_555 1_555
C10 C11 1_555 1_555
C12 O4 1_555 1_555
C15A O6A 1_555 1_555
O5A Pr1A_2 1_555 1_555
Cu2A I2A 1_555 1_555
S1A O9A 1_555 1_555
C2A N1A 1_555 1_555
C3A N1A 1_555 1_555
C4A C5A 1_555 1_555
C6A O1A 1_555 1_555
C6A O2A 1_555 1_555
C9A N2A 1_555 1_555
C10A C11A 1_555 1_555
C12A O4A 1_555 1_555
Cu1_2 Cu2_2 1_555 1_555
Cu1_2 I1_2 1_555 1_555
Cu1_3 I2_2 1_555 1_555
Cu1A_2 I2A_2 1_555 1_555
Cu1A_3 Cu2A_2 1_555 1_555
Cu1A_3 I1A_2 1_555 1_555
Cu2_2 I1_2 1_555 1_555
Cu2A_2 I1A_2 1_555 1_555

#END
