
#######################################################################
#
#                 Cambridge Crystallographic Data Centre
#                                CCDC 
#
#######################################################################
#
# If this CIF has been generated from an entry in the Cambridge 
# Structural Database, then it will include bibliographic, chemical, 
# crystal, experimental, refinement or atomic coordinate data resulting 
# from the CCDC's data processing and validation procedures.
#
#######################################################################

data_HIMYEJ
_symmetry_cell_setting           monoclinic
_symmetry_space_group_name_H-M   'P 21/c'
_symmetry_Int_Tables_number      14
_space_group_name_Hall           '-P 2ybc'
loop_
_symmetry_equiv_pos_site_id
_symmetry_equiv_pos_as_xyz
1 x,y,z
2 -x,1/2+y,1/2-z
3 -x,-y,-z
4 x,1/2-y,1/2+z
_cell_length_a                   11.2353(11)
_cell_length_b                   40.100(3)
_cell_length_c                   19.7269(14)
_cell_angle_alpha                90
_cell_angle_beta                 104.0350(10)
_cell_angle_gamma                90
_cell_volume                     8622.35
loop_
_atom_site_label
_atom_site_type_symbol
_atom_site_fract_x
_atom_site_fract_y
_atom_site_fract_z
Ag1 Ag 1.15120(5) 0.864384(13) 0.97832(3)
Ag2 Ag 0.57501(5) 0.623947(14) 0.99778(3)
N1 N 1.0618(6) 0.80925(15) 0.9702(3)
N2 N 0.6483(5) 0.67795(14) 0.9789(3)
N3 N 1.1717(6) 0.85731(17) 0.8602(3)
N4 N 1.5255(6) 0.8576(2) 0.6083(3)
P1 P 1.36900(16) 0.85671(5) 1.03734(11)
P2 P 0.98552(16) 0.89636(5) 1.00593(9)
P3 P 0.77644(17) 0.59597(5) 1.03222(10)
P4 P 0.37224(17) 0.60662(5) 0.93287(10)
C1 C 0.9694(7) 0.80231(18) 0.9150(4)
H1 H 0.9598 0.8156 0.8754
C2 C 0.8885(7) 0.77678(18) 0.9138(4)
H2 H 0.8257 0.7730 0.8742
C3 C 0.9009(6) 0.75652(16) 0.9722(4)
C4 C 0.9970(7) 0.76335(19) 1.0284(4)
H3 H 1.0100 0.7503 1.0686
C5 C 1.0730(7) 0.7894(2) 1.0247(4)
H4 H 1.1374 0.7935 1.0634
C6 C 0.6779(7) 0.68610(19) 0.9204(4)
H5 H 0.6426 0.6739 0.8804
C7 C 0.7571(7) 0.71123(17) 0.9144(4)
H6 H 0.7734 0.7160 0.8714
C8 C 0.8125(6) 0.72945(16) 0.9734(4)
C9 C 0.7815(7) 0.72115(17) 1.0355(4)
H7 H 0.8148 0.7329 1.0763
C10 C 0.7010(7) 0.69535(18) 1.0356(4)
H8 H 0.6824 0.6898 1.0777
C11 C 1.2142(7) 0.8289(2) 0.8406(4)
H9 H 1.1969 0.8093 0.8616
C12 C 1.2818(7) 0.8266(2) 0.7917(4)
H10 H 1.3085 0.8059 0.7799
C13 C 1.3097(7) 0.8551(2) 0.7603(4)
C14 C 1.2653(8) 0.8848(2) 0.7786(4)
H11 H 1.2813 0.9047 0.7580
C15 C 1.1964(8) 0.8848(2) 0.8282(4)
H12 H 1.1659 0.9050 0.8398
C16 C 1.4573(8) 0.8310(2) 0.6141(5)
H13 H 1.4561 0.8133 0.5834
C17 C 1.3882(7) 0.8282(2) 0.6632(4)
H14 H 1.3436 0.8089 0.6658
C18 C 1.3868(7) 0.8545(2) 0.7083(4)
C19 C 1.4562(8) 0.8819(2) 0.7019(4)
H15 H 1.4575 0.9001 0.7311
C20 C 1.5246(8) 0.8824(3) 0.6520(5)
H16 H 1.5720 0.9011 0.6493
C21 C 1.4481(7) 0.8296(2) 0.9888(4)
C22 C 1.5176(7) 0.8426(2) 0.9466(4)
H17 H 1.5321 0.8654 0.9475
C23 C 1.5668(8) 0.8227(3) 0.9027(5)
H18 H 1.6112 0.8321 0.8733
C24 C 1.5483(9) 0.7890(3) 0.9038(6)
H19 H 1.5806 0.7753 0.8747
C25 C 1.4848(10) 0.7753(3) 0.9459(6)
H20 H 1.4755 0.7523 0.9466
C26 C 1.4316(8) 0.7955(3) 0.9894(5)
H21 H 1.3861 0.7860 1.0179
C27 C 1.3876(7) 0.8384(2) 1.1217(4)
C28 C 1.2984(9) 0.8449(3) 1.1582(5)
H22 H 1.2310 0.8579 1.1376
C29 C 1.3083(10) 0.8321(3) 1.2253(5)
H23 H 1.2500 0.8376 1.2498
C30 C 1.4031(11) 0.8118(3) 1.2545(6)
H24 H 1.4075 0.8025 1.2982
C31 C 1.4919(11) 0.8048(3) 1.2203(6)
H25 H 1.5575 0.7912 1.2413
C32 C 1.4850(9) 0.8180(3) 1.1543(5)
H26 H 1.5464 0.8131 1.1316
C33 C 1.4578(7) 0.8945(2) 1.0514(5)
C34 C 1.5564(8) 0.8997(2) 1.1087(5)
H27 H 1.5818 0.8826 1.1409
C35 C 1.6175(9) 0.9304(3) 1.1181(6)
H28 H 1.6831 0.9337 1.1566
C36 C 1.5827(9) 0.9549(3) 1.0726(6)
H29 H 1.6229 0.9753 1.0799
C37 C 1.4892(9) 0.9504(3) 1.0154(6)
H30 H 1.4679 0.9673 0.9823
C38 C 1.4256(8) 0.9206(2) 1.0067(5)
H31 H 1.3583 0.9182 0.9688
C39 C 1.0258(7) 0.93654(19) 1.0473(4)
C40 C 1.1299(8) 0.95237(19) 1.0395(4)
H32 H 1.1803 0.9416 1.0154
C41 C 1.1620(10) 0.9835(2) 1.0661(5)
H33 H 1.2326 0.9938 1.0595
C42 C 1.0905(11) 0.9990(3) 1.1017(5)
H34 H 1.1128 1.0202 1.1198
C43 C 0.9871(10) 0.9849(2) 1.1120(5)
H35 H 0.9388 0.9963 1.1366
C44 C 0.9529(8) 0.9526(2) 1.0848(4)
H36 H 0.8828 0.9423 1.0919
C45 C 0.8579(7) 0.90686(18) 0.9325(4)
C46 C 0.8735(8) 0.9039(2) 0.8663(4)
H37 H 0.9444 0.8940 0.8593
C47 C 0.7842(9) 0.9156(2) 0.8087(4)
H38 H 0.7973 0.9143 0.7640
C48 C 0.6790(8) 0.9289(2) 0.8184(5)
H39 H 0.6199 0.9368 0.7803
C49 C 0.6591(8) 0.9307(2) 0.8836(5)
H40 H 0.5858 0.9395 0.8897
C50 C 0.7480(7) 0.9196(2) 0.9412(4)
H41 H 0.7335 0.9207 0.9856
C51 C 0.9206(6) 0.87207(19) 1.0659(4)
C52 C 0.8345(7) 0.8480(2) 1.0410(4)
H42 H 0.8017 0.8462 0.9931
C53 C 0.7961(8) 0.8265(2) 1.0852(5)
H43 H 0.7384 0.8102 1.0671
C54 C 0.8413(9) 0.8289(3) 1.1548(6)
H44 H 0.8128 0.8147 1.1845
C55 C 0.9291(10) 0.8523(3) 1.1821(5)
H45 H 0.9626 0.8533 1.2301
C56 C 0.9681(8) 0.8747(2) 1.1372(4)
H46 H 1.0254 0.8911 1.1552
C57 C 0.8340(7) 0.5788(2) 0.9614(4)
C58 C 0.7906(8) 0.5918(2) 0.8954(5)
H47 H 0.7337 0.6090 0.8890
C59 C 0.8295(10) 0.5798(3) 0.8377(6)
H48 H 0.8006 0.5889 0.7934
C60 C 0.9122(10) 0.5540(3) 0.8496(6)
H49 H 0.9349 0.5447 0.8114
C61 C 0.9619(10) 0.5415(3) 0.9126(6)
H50 H 1.0210 0.5248 0.9186
C62 C 0.9227(8) 0.5542(2) 0.9691(5)
H51 H 0.9572 0.5459 1.0135
C63 C 0.8939(6) 0.62548(18) 1.0744(4)
C64 C 0.9783(7) 0.6382(2) 1.0423(5)
H52 H 0.9828 0.6296 0.9992
C65 C 1.0570(7) 0.6632(2) 1.0717(5)
H53 H 1.1138 0.6716 1.0487
C66 C 1.0513(8) 0.6760(2) 1.1355(5)
H54 H 1.1042 0.6930 1.1558
C67 C 0.9668(8) 0.6635(2) 1.1695(5)
H55 H 0.9631 0.6718 1.2129
C68 C 0.8878(7) 0.6385(2) 1.1381(4)
H56 H 0.8297 0.6303 1.1603
C69 C 0.7889(8) 0.5629(2) 1.0954(4)
C70 C 0.8983(9) 0.5532(2) 1.1418(5)
H57 H 0.9712 0.5638 1.1403
C71 C 0.8997(12) 0.5279(3) 1.1901(5)
H58 H 0.9723 0.5216 1.2212
C72 C 0.7905(13) 0.5127(2) 1.1904(6)
H59 H 0.7912 0.4953 1.2218
C73 C 0.6836(12) 0.5214(2) 1.1482(6)
H60 H 0.6114 0.5109 1.1513
C74 C 0.6816(9) 0.5466(2) 1.0992(5)
H61 H 0.6077 0.5525 1.0687
C75 C 0.3102(7) 0.5774(2) 0.9851(4)
C76 C 0.3261(9) 0.5432(2) 0.9787(5)
H62 H 0.3596 0.5351 0.9432
C77 C 0.2919(11) 0.5211(3) 1.0255(6)
H63 H 0.2995 0.4982 1.0200
C78 C 0.2477(10) 0.5331(3) 1.0789(5)
H64 H 0.2273 0.5184 1.1108
C79 C 0.2331(9) 0.5665(3) 1.0859(5)
H65 H 0.2016 0.5743 1.1224
C80 C 0.2638(8) 0.5888(2) 1.0407(4)
H66 H 0.2539 0.6116 1.0468
C81 C 0.2587(7) 0.6397(2) 0.9131(4)
C82 C 0.1331(7) 0.6330(2) 0.8943(4)
H67 H 0.1045 0.6111 0.8919
C83 C 0.0516(9) 0.6596(3) 0.8793(5)
H68 H -0.0323 0.6554 0.8668
C84 C 0.0917(10) 0.6911(3) 0.8825(5)
H69 H 0.0357 0.7086 0.8717
C85 C 0.2137(10) 0.6977(3) 0.9013(5)
H70 H 0.2413 0.7197 0.9039
C86 C 0.2954(8) 0.6722(2) 0.9163(5)
H71 H 0.3789 0.6770 0.9293
C87 C 0.3690(7) 0.5857(2) 0.8512(4)
C88 C 0.4764(9) 0.5684(2) 0.8476(5)
H72 H 0.5436 0.5677 0.8859
C89 C 0.4798(10) 0.5521(3) 0.7844(6)
H73 H 0.5500 0.5405 0.7817
C90 C 0.3840(10) 0.5531(3) 0.7281(5)
H74 H 0.3903 0.5435 0.6862
C91 C 0.2777(10) 0.5684(2) 0.7326(5)
H75 H 0.2097 0.5681 0.6947
C92 C 0.2715(8) 0.5842(2) 0.7940(4)
H76 H 0.1982 0.5943 0.7965
Ag2C Ag 1.57501(5) 0.876053(14) 0.49778(3)
N4C N 0.5255(6) 0.6424(2) 1.1083(3)
F1 F 0.6624(11) 0.7544(3) 0.6598(4)
F2 F 0.810(3) 0.7864(8) 0.7257(12)
F3 F 0.6487(19) 0.7703(6) 0.7639(10)
F4 F 0.7877(19) 0.7340(4) 0.7563(7)
B1 B 0.730(3) 0.7624(7) 0.7241(11)
F8 F 0.2873(10) 0.9675(2) 0.8542(4)
F9 F 0.1937(8) 0.96053(19) 0.7445(5)
F10 F 0.2612(9) 1.00959(18) 0.7823(4)
F11 F 0.3823(10) 0.9671(3) 0.7732(6)
B2 B 0.2781(18) 0.9781(4) 0.7908(8)
F5? F 0.696(4) 0.7470(11) 0.7746(15)
F6? F 0.850(4) 0.7561(11) 0.7242(17)
F7? F 0.723(4) 0.7962(10) 0.731(2)
loop_
_geom_bond_atom_site_label_1
_geom_bond_atom_site_label_2
_geom_bond_site_symmetry_1
_geom_bond_site_symmetry_2
Ag1 N1 1_555 1_555
Ag2 N2 1_555 1_555
N1 C1 1_555 1_555
N2 C6 1_555 1_555
N3 Ag1 1_555 1_555
N4 C16 1_555 1_555
P1 Ag1 1_555 1_555
P2 Ag1 1_555 1_555
P3 Ag2 1_555 1_555
P4 Ag2 1_555 1_555
C1 H1 1_555 1_555
C2 C1 1_555 1_555
H2 C2 1_555 1_555
C3 C2 1_555 1_555
C4 C3 1_555 1_555
H3 C4 1_555 1_555
C5 N1 1_555 1_555
H4 C5 1_555 1_555
C6 H5 1_555 1_555
C7 C6 1_555 1_555
H6 C7 1_555 1_555
C8 C3 1_555 1_555
C9 C8 1_555 1_555
H7 C9 1_555 1_555
C10 N2 1_555 1_555
H8 C10 1_555 1_555
C11 N3 1_555 1_555
H9 C11 1_555 1_555
C12 C11 1_555 1_555
H10 C12 1_555 1_555
C13 C12 1_555 1_555
C14 C13 1_555 1_555
H11 C14 1_555 1_555
C15 N3 1_555 1_555
H12 C15 1_555 1_555
C16 H13 1_555 1_555
C17 C16 1_555 1_555
H14 C17 1_555 1_555
C18 C13 1_555 1_555
C19 C18 1_555 1_555
H15 C19 1_555 1_555
C20 N4 1_555 1_555
H16 C20 1_555 1_555
C21 P1 1_555 1_555
C22 C21 1_555 1_555
H17 C22 1_555 1_555
C23 C22 1_555 1_555
H18 C23 1_555 1_555
C24 C23 1_555 1_555
H19 C24 1_555 1_555
C25 C24 1_555 1_555
H20 C25 1_555 1_555
C26 C21 1_555 1_555
H21 C26 1_555 1_555
C27 P1 1_555 1_555
C28 C27 1_555 1_555
H22 C28 1_555 1_555
C29 C28 1_555 1_555
H23 C29 1_555 1_555
C30 C29 1_555 1_555
H24 C30 1_555 1_555
C31 C30 1_555 1_555
H25 C31 1_555 1_555
C32 C27 1_555 1_555
H26 C32 1_555 1_555
C33 P1 1_555 1_555
C34 C33 1_555 1_555
H27 C34 1_555 1_555
C35 C34 1_555 1_555
H28 C35 1_555 1_555
C36 C35 1_555 1_555
H29 C36 1_555 1_555
C37 C36 1_555 1_555
H30 C37 1_555 1_555
C38 C33 1_555 1_555
H31 C38 1_555 1_555
C39 P2 1_555 1_555
C40 C39 1_555 1_555
H32 C40 1_555 1_555
C41 C40 1_555 1_555
H33 C41 1_555 1_555
C42 C41 1_555 1_555
H34 C42 1_555 1_555
C43 C42 1_555 1_555
H35 C43 1_555 1_555
C44 C39 1_555 1_555
H36 C44 1_555 1_555
C45 P2 1_555 1_555
C46 C45 1_555 1_555
H37 C46 1_555 1_555
C47 C46 1_555 1_555
H38 C47 1_555 1_555
C48 C47 1_555 1_555
H39 C48 1_555 1_555
C49 C48 1_555 1_555
H40 C49 1_555 1_555
C50 C45 1_555 1_555
H41 C50 1_555 1_555
C51 P2 1_555 1_555
C52 C51 1_555 1_555
H42 C52 1_555 1_555
C53 C52 1_555 1_555
H43 C53 1_555 1_555
C54 C53 1_555 1_555
H44 C54 1_555 1_555
C55 C54 1_555 1_555
H45 C55 1_555 1_555
C56 C51 1_555 1_555
H46 C56 1_555 1_555
C57 P3 1_555 1_555
C58 C57 1_555 1_555
H47 C58 1_555 1_555
C59 C58 1_555 1_555
H48 C59 1_555 1_555
C60 C59 1_555 1_555
H49 C60 1_555 1_555
C61 C60 1_555 1_555
H50 C61 1_555 1_555
C62 C57 1_555 1_555
H51 C62 1_555 1_555
C63 P3 1_555 1_555
C64 C63 1_555 1_555
H52 C64 1_555 1_555
C65 C64 1_555 1_555
H53 C65 1_555 1_555
C66 C65 1_555 1_555
H54 C66 1_555 1_555
C67 C66 1_555 1_555
H55 C67 1_555 1_555
C68 C63 1_555 1_555
H56 C68 1_555 1_555
C69 P3 1_555 1_555
C70 C69 1_555 1_555
H57 C70 1_555 1_555
C71 C70 1_555 1_555
H58 C71 1_555 1_555
C72 C71 1_555 1_555
H59 C72 1_555 1_555
C73 C72 1_555 1_555
H60 C73 1_555 1_555
C74 C69 1_555 1_555
H61 C74 1_555 1_555
C75 P4 1_555 1_555
C76 C75 1_555 1_555
H62 C76 1_555 1_555
C77 C76 1_555 1_555
H63 C77 1_555 1_555
C78 C77 1_555 1_555
H64 C78 1_555 1_555
C79 C78 1_555 1_555
H65 C79 1_555 1_555
C80 C75 1_555 1_555
H66 C80 1_555 1_555
C81 P4 1_555 1_555
C82 C81 1_555 1_555
H67 C82 1_555 1_555
C83 C82 1_555 1_555
H68 C83 1_555 1_555
C84 C83 1_555 1_555
H69 C84 1_555 1_555
C85 C84 1_555 1_555
H70 C85 1_555 1_555
C86 C81 1_555 1_555
H71 C86 1_555 1_555
C87 P4 1_555 1_555
C88 C87 1_555 1_555
H72 C88 1_555 1_555
C89 C88 1_555 1_555
H73 C89 1_555 1_555
C90 C89 1_555 1_555
H74 C90 1_555 1_555
C91 C90 1_555 1_555
H75 C91 1_555 1_555
C92 C87 1_555 1_555
H76 C92 1_555 1_555
F1 B1 1_555 1_555
F2 B1 1_555 1_555
F3 B1 1_555 1_555
F4 B1 1_555 1_555
F8 B2 1_555 1_555
F9 B2 1_555 1_555
F10 B2 1_555 1_555
F11 B2 1_555 1_555
Ag2C N4 1_555 1_555
N4C Ag2 1_555 1_555
C4 C5 1_555 1_555
C7 C8 1_555 1_555
C9 C10 1_555 1_555
C14 C15 1_555 1_555
C17 C18 1_555 1_555
C19 C20 1_555 1_555
C25 C26 1_555 1_555
C31 C32 1_555 1_555
C37 C38 1_555 1_555
C43 C44 1_555 1_555
C49 C50 1_555 1_555
C55 C56 1_555 1_555
C61 C62 1_555 1_555
C67 C68 1_555 1_555
C73 C74 1_555 1_555
C79 C80 1_555 1_555
C85 C86 1_555 1_555
C91 C92 1_555 1_555

#END
