
#######################################################################
#
#                 Cambridge Crystallographic Data Centre
#                                CCDC 
#
#######################################################################
#
# If this CIF has been generated from an entry in the Cambridge 
# Structural Database, then it will include bibliographic, chemical, 
# crystal, experimental, refinement or atomic coordinate data resulting 
# from the CCDC's data processing and validation procedures.
#
#######################################################################

data_HIMYAE
_symmetry_cell_setting           monoclinic
_symmetry_space_group_name_H-M   'P 21/n'
_symmetry_Int_Tables_number      14
_space_group_name_Hall           '-P 2yn'
loop_
_symmetry_equiv_pos_site_id
_symmetry_equiv_pos_as_xyz
1 x,y,z
2 1/2-x,1/2+y,1/2-z
3 -x,-y,-z
4 1/2+x,1/2-y,1/2+z
_cell_length_a                   11.743(4)
_cell_length_b                   24.986(9)
_cell_length_c                   13.081(5)
_cell_angle_alpha                90
_cell_angle_beta                 95.387(7)
_cell_angle_gamma                90
_cell_volume                     3821.15
loop_
_atom_site_label
_atom_site_type_symbol
_atom_site_fract_x
_atom_site_fract_y
_atom_site_fract_z
Mn1 Mn 0.5000 0.5000 1.0000
Mn2 Mn 0.90041(4) 0.50792(2) 0.72198(4)
O1 O 0.4722(3) 0.22385(15) 0.9661(3)
O2 O 0.60032(19) 0.54403(9) 1.07859(18)
O3 O 0.6227(2) 0.27607(10) 0.5780(2)
O4 O 0.8584(2) 0.57913(9) 0.73082(19)
O5 O 1.2360(2) 0.73008(10) 0.8431(2)
O6 O 0.94567(19) 0.43751(9) 0.71887(18)
N1 N 0.5578(2) 0.43500(11) 1.0866(2)
N2 N 0.6252(3) 0.49021(14) 0.8843(2)
N3 N 0.7229(3) 0.49018(11) 0.8787(2)
N4 N 0.8210(3) 0.48874(13) 0.8711(2)
N5 N 0.7396(2) 0.48968(11) 0.64851(19)
N6 N 0.9653(3) 0.52403(13) 0.5671(2)
N7 N 1.0000 0.5000 0.5000
N8 N 1.0497(2) 0.52523(11) 0.8109(2)
C1 C 0.6351(3) 0.53933(15) 1.1774(3)
C2 C 0.6743(3) 0.58540(15) 1.2309(3)
H1 H 0.6699 0.6185 1.1981
C3 C 0.7189(3) 0.58200(18) 1.3309(3)
H2 H 0.7455 0.6128 1.3654
C4 C 0.7251(3) 0.53358(19) 1.3814(3)
H3 H 0.7559 0.5317 1.4495
C5 C 0.6859(3) 0.48844(16) 1.3315(3)
H4 H 0.6900 0.4558 1.3659
C6 C 0.6394(3) 0.49045(15) 1.2287(3)
C7 C 0.6070(3) 0.44117(15) 1.1786(3)
H5 H 0.6231 0.4101 1.2163
C8 C 0.5313(3) 0.38121(15) 1.0532(3)
C9 C 0.4667(4) 0.34879(18) 1.1091(3)
H6 H 0.4358 0.3622 1.1668
C10 C 0.4475(5) 0.2966(2) 1.0802(4)
H7 H 0.4025 0.2749 1.1178
C11 C 0.4935(5) 0.2764(2) 0.9975(5)
C12 C 0.5534(4) 0.3093(2) 0.9370(4)
H8 H 0.5809 0.2960 0.8777
C13 C 0.5723(3) 0.36184(17) 0.9646(3)
H9 H 0.6124 0.3842 0.9240
C14 C 0.5454(4) 0.1872(2) 0.9979(4)
H10 H 0.6203 0.1975 0.9814
H11 H 0.5244 0.1539 0.9648
H12 H 0.5457 0.1832 1.0709
C15 C 0.7675(3) 0.60585(14) 0.6928(3)
C16 C 0.7671(4) 0.66138(16) 0.7036(3)
H13 H 0.8300 0.6783 0.7380
C17 C 0.6759(4) 0.69122(16) 0.6645(4)
H14 H 0.6788 0.7283 0.6709
C18 C 0.5793(4) 0.66752(17) 0.6156(3)
H15 H 0.5176 0.6882 0.5893
C19 C 0.5765(3) 0.61334(16) 0.6066(3)
H16 H 0.5113 0.5970 0.5750
C20 C 0.6697(3) 0.58140(14) 0.6438(3)
C21 C 0.6600(3) 0.52491(14) 0.6294(2)
H17 H 0.5887 0.5121 0.6034
C22 C 0.7064(3) 0.43503(13) 0.6301(3)
C23 C 0.6150(3) 0.41354(14) 0.6735(3)
H18 H 0.5734 0.4350 0.7147
C24 C 0.5833(3) 0.36088(14) 0.6576(3)
H19 H 0.5205 0.3471 0.6871
C25 C 0.6452(3) 0.32904(14) 0.5977(3)
C26 C 0.7375(3) 0.34997(14) 0.5526(3)
H20 H 0.7789 0.3284 0.5114
C27 C 0.7681(3) 0.40294(14) 0.5690(3)
H21 H 0.8302 0.4170 0.5389
C28 C 0.5265(4) 0.25365(15) 0.6207(3)
H22 H 0.5376 0.2558 0.6943
H23 H 0.5179 0.2169 0.6003
H24 H 0.4588 0.2732 0.5965
C29 C 0.9978(3) 0.40998(15) 0.7955(3)
C30 C 0.9803(3) 0.35486(15) 0.8002(3)
H25 H 0.9286 0.3385 0.7518
C31 C 1.0386(4) 0.32453(16) 0.8755(3)
H26 H 1.0250 0.2879 0.8777
C32 C 1.1162(3) 0.34708(16) 0.9475(3)
H27 H 1.1569 0.3258 0.9966
C33 C 1.1331(3) 0.40106(15) 0.9463(3)
H28 H 1.1849 0.4166 0.9957
C34 C 1.0736(3) 0.43340(14) 0.8719(3)
C35 C 1.1003(3) 0.48934(14) 0.8693(3)
H29 H 1.1608 0.5010 0.9148
C36 C 1.0949(3) 0.57862(13) 0.8184(3)
C37 C 1.1129(3) 0.60596(13) 0.7306(3)
H30 H 1.0928 0.5903 0.6669
C38 C 1.1605(3) 0.65651(14) 0.7356(3)
H31 H 1.1728 0.6747 0.6756
C39 C 1.1899(3) 0.67988(15) 0.8300(3)
C40 C 1.1697(3) 0.65303(14) 0.9180(3)
H32 H 1.1880 0.6690 0.9816
C41 C 1.1225(3) 0.60257(14) 0.9125(3)
H33 H 1.1090 0.5846 0.9725
C42 C 1.2645(4) 0.75709(16) 0.7545(4)
H34 H 1.1970 0.7619 0.7082
H35 H 1.2967 0.7914 0.7735
H36 H 1.3194 0.7364 0.7216
Mn2B Mn 0.09959(4) 0.49208(2) 1.27802(4)
Mn2B_2 Mn 1.09959(4) 0.49208(2) 0.27802(4)
O1B O 0.5278(3) 0.77615(15) 1.0339(3)
O2B O 0.39968(19) 0.45597(9) 0.92141(18)
O3B O 0.3773(2) 0.72393(10) 1.4220(2)
O4B O 0.1416(2) 0.42087(9) 1.26918(19)
O5B O -0.2360(2) 0.26992(10) 1.1569(2)
O6B O 0.05433(19) 0.56249(9) 1.28113(18)
N1B N 0.4422(2) 0.56500(11) 0.9134(2)
N2B N 0.3748(3) 0.50979(14) 1.1157(2)
N3B N 0.2771(3) 0.50982(11) 1.1213(2)
N4B N 0.1790(3) 0.51126(13) 1.1289(2)
N5B N 0.2604(2) 0.51032(11) 1.35149(19)
N6B N 1.0347(3) 0.47597(13) 0.4329(2)
N6B_2 N 0.0347(3) 0.47597(13) 1.4329(2)
N8B N -0.0497(2) 0.47477(11) 1.1891(2)
C1B C 0.3649(3) 0.46067(15) 0.8226(3)
C2B C 0.3257(3) 0.41460(15) 0.7691(3)
H1B H 0.3301 0.3815 0.8019
C3B C 0.2811(3) 0.41800(18) 0.6691(3)
H2B H 0.2545 0.3872 0.6346
C4B C 0.2749(3) 0.46642(19) 0.6186(3)
H3B H 0.2441 0.4683 0.5505
C5B C 0.3141(3) 0.51156(16) 0.6685(3)
H4B H 0.3100 0.5442 0.6341
C6B C 0.3606(3) 0.50955(15) 0.7713(3)
C7B C 0.3930(3) 0.55883(15) 0.8214(3)
H5B H 0.3769 0.5899 0.7837
C8B C 0.4687(3) 0.61879(15) 0.9468(3)
C9B C 0.5333(4) 0.65121(18) 0.8909(3)
H6B H 0.5642 0.6378 0.8332
C10B C 0.5525(5) 0.7034(2) 0.9198(4)
H7B H 0.5975 0.7251 0.8822
C11B C 0.5065(5) 0.7236(2) 1.0025(5)
C12B C 0.4466(4) 0.6907(2) 1.0630(4)
H8B H 0.4191 0.7040 1.1223
C13B C 0.4277(3) 0.63816(17) 1.0354(3)
H9B H 0.3876 0.6158 1.0760
C14B C 0.4546(4) 0.8128(2) 1.0021(4)
H10B H 0.3797 0.8025 1.0186
H11B H 0.4756 0.8461 1.0352
H12B H 0.4543 0.8168 0.9291
C15B C 0.2325(3) 0.39415(14) 1.3072(3)
C16B C 0.2329(4) 0.33862(16) 1.2964(3)
H13B H 0.1700 0.3217 1.2620
C17B C 0.3241(4) 0.30878(16) 1.3355(4)
H14B H 0.3212 0.2717 1.3291
C18B C 0.4207(4) 0.33248(17) 1.3844(3)
H15B H 0.4824 0.3118 1.4107
C19B C 0.4235(3) 0.38666(16) 1.3934(3)
H16B H 0.4887 0.4030 1.4250
C20B C 0.3303(3) 0.41860(14) 1.3562(3)
C21B C 0.3400(3) 0.47509(14) 1.3706(2)
H17B H 0.4113 0.4879 1.3966
C22B C 0.2936(3) 0.56497(13) 1.3699(3)
C23B C 0.3850(3) 0.58646(14) 1.3265(3)
H18B H 0.4266 0.5650 1.2853
C24B C 0.4167(3) 0.63912(14) 1.3424(3)
H19B H 0.4795 0.6529 1.3129
C25B C 0.3548(3) 0.67096(14) 1.4023(3)
C26B C 0.2625(3) 0.65003(14) 1.4474(3)
H20B H 0.2211 0.6716 1.4886
C27B C 0.2319(3) 0.59706(14) 1.4310(3)
H21B H 0.1698 0.5830 1.4611
C28B C 0.4735(4) 0.74635(15) 1.3793(3)
H22B H 0.4624 0.7442 1.3057
H23B H 0.4821 0.7831 1.3997
H24B H 0.5412 0.7268 1.4035
C29B C 0.0022(3) 0.59002(15) 1.2045(3)
C30B C 0.0197(3) 0.64514(15) 1.1998(3)
H25B H 0.0714 0.6615 1.2482
C31B C -0.0386(4) 0.67547(16) 1.1245(3)
H26B H -0.0250 0.7121 1.1223
C32B C -0.1162(3) 0.65292(16) 1.0525(3)
H27B H -0.1569 0.6742 1.0034
C33B C -0.1331(3) 0.59894(15) 1.0537(3)
H28B H -0.1849 0.5834 1.0043
C34B C -0.0736(3) 0.56660(14) 1.1281(3)
C35B C -0.1003(3) 0.51066(14) 1.1307(3)
H29B H -0.1608 0.4990 1.0852
C36B C -0.0949(3) 0.42138(13) 1.1816(3)
C37B C -0.1129(3) 0.39404(13) 1.2694(3)
H30B H -0.0928 0.4097 1.3331
C38B C -0.1605(3) 0.34349(14) 1.2644(3)
H31B H -0.1728 0.3253 1.3244
C39B C -0.1899(3) 0.32012(15) 1.1700(3)
C40B C -0.1697(3) 0.34697(14) 1.0820(3)
H32B H -0.1880 0.3310 1.0184
C41B C -0.1225(3) 0.39743(14) 1.0875(3)
H33B H -0.1090 0.4154 1.0275
C42B C -0.2645(4) 0.24291(16) 1.2455(4)
H34B H -0.1970 0.2381 1.2918
H35B H -0.2967 0.2086 1.2265
H36B H -0.3194 0.2636 1.2784
loop_
_geom_bond_atom_site_label_1
_geom_bond_atom_site_label_2
_geom_bond_site_symmetry_1
_geom_bond_site_symmetry_2
Mn1 O2 1_555 1_555
Mn2 O4 1_555 1_555
O1 C11 1_555 1_555
O2 C1 1_555 1_555
O3 C25 1_555 1_555
O4 C15 1_555 1_555
O5 C39 1_555 1_555
O6 Mn2 1_555 1_555
N1 Mn1 1_555 1_555
N2 Mn1 1_555 1_555
N3 N2 1_555 1_555
N4 Mn2 1_555 1_555
N5 Mn2 1_555 1_555
N6 Mn2 1_555 1_555
N7 N6 1_555 1_555
N8 Mn2 1_555 1_555
C1 C2 1_555 1_555
C2 H1 1_555 1_555
C3 C2 1_555 1_555
H2 C3 1_555 1_555
C4 C3 1_555 1_555
H3 C4 1_555 1_555
C5 C4 1_555 1_555
H4 C5 1_555 1_555
C6 C1 1_555 1_555
C7 N1 1_555 1_555
H5 C7 1_555 1_555
C8 N1 1_555 1_555
C9 C8 1_555 1_555
H6 C9 1_555 1_555
C10 C9 1_555 1_555
H7 C10 1_555 1_555
C11 C10 1_555 1_555
C12 C11 1_555 1_555
H8 C12 1_555 1_555
C13 C8 1_555 1_555
H9 C13 1_555 1_555
C14 O1 1_555 1_555
H10 C14 1_555 1_555
H11 C14 1_555 1_555
H12 C14 1_555 1_555
C15 C16 1_555 1_555
C16 H13 1_555 1_555
C17 C16 1_555 1_555
H14 C17 1_555 1_555
C18 C17 1_555 1_555
H15 C18 1_555 1_555
C19 C18 1_555 1_555
H16 C19 1_555 1_555
C20 C15 1_555 1_555
C21 N5 1_555 1_555
H17 C21 1_555 1_555
C22 N5 1_555 1_555
C23 C22 1_555 1_555
H18 C23 1_555 1_555
C24 C23 1_555 1_555
H19 C24 1_555 1_555
C25 C24 1_555 1_555
C26 C25 1_555 1_555
H20 C26 1_555 1_555
C27 C22 1_555 1_555
H21 C27 1_555 1_555
C28 O3 1_555 1_555
H22 C28 1_555 1_555
H23 C28 1_555 1_555
H24 C28 1_555 1_555
C29 O6 1_555 1_555
C30 C29 1_555 1_555
H25 C30 1_555 1_555
C31 C30 1_555 1_555
H26 C31 1_555 1_555
C32 C31 1_555 1_555
H27 C32 1_555 1_555
C33 C32 1_555 1_555
H28 C33 1_555 1_555
C34 C29 1_555 1_555
C35 N8 1_555 1_555
H29 C35 1_555 1_555
C36 N8 1_555 1_555
C37 C36 1_555 1_555
H30 C37 1_555 1_555
C38 C37 1_555 1_555
H31 C38 1_555 1_555
C39 C38 1_555 1_555
C40 C39 1_555 1_555
H32 C40 1_555 1_555
C41 C36 1_555 1_555
H33 C41 1_555 1_555
C42 O5 1_555 1_555
H34 C42 1_555 1_555
H35 C42 1_555 1_555
H36 C42 1_555 1_555
Mn2B O4B 1_555 1_555
Mn2B_2 N6B 1_555 1_555
O1B C11B 1_555 1_555
O2B Mn1 1_555 1_555
O3B C25B 1_555 1_555
O4B C15B 1_555 1_555
O5B C39B 1_555 1_555
O6B Mn2B 1_555 1_555
N1B Mn1 1_555 1_555
N2B Mn1 1_555 1_555
N3B N2B 1_555 1_555
N4B Mn2B 1_555 1_555
N5B Mn2B 1_555 1_555
N6B N7 1_555 1_555
N6B_2 Mn2B 1_555 1_555
N8B Mn2B 1_555 1_555
C1B O2B 1_555 1_555
C2B C1B 1_555 1_555
H1B C2B 1_555 1_555
C3B C2B 1_555 1_555
H2B C3B 1_555 1_555
C4B C3B 1_555 1_555
H3B C4B 1_555 1_555
C5B C4B 1_555 1_555
H4B C5B 1_555 1_555
C6B C1B 1_555 1_555
C7B N1B 1_555 1_555
H5B C7B 1_555 1_555
C8B N1B 1_555 1_555
C9B C8B 1_555 1_555
H6B C9B 1_555 1_555
C10B C9B 1_555 1_555
H7B C10B 1_555 1_555
C11B C10B 1_555 1_555
C12B C11B 1_555 1_555
H8B C12B 1_555 1_555
C13B C8B 1_555 1_555
H9B C13B 1_555 1_555
C14B O1B 1_555 1_555
H10B C14B 1_555 1_555
H11B C14B 1_555 1_555
H12B C14B 1_555 1_555
C15B C16B 1_555 1_555
C16B H13B 1_555 1_555
C17B C16B 1_555 1_555
H14B C17B 1_555 1_555
C18B C17B 1_555 1_555
H15B C18B 1_555 1_555
C19B C18B 1_555 1_555
H16B C19B 1_555 1_555
C20B C15B 1_555 1_555
C21B N5B 1_555 1_555
H17B C21B 1_555 1_555
C22B N5B 1_555 1_555
C23B C22B 1_555 1_555
H18B C23B 1_555 1_555
C24B C23B 1_555 1_555
H19B C24B 1_555 1_555
C25B C24B 1_555 1_555
C26B C25B 1_555 1_555
H20B C26B 1_555 1_555
C27B C22B 1_555 1_555
H21B C27B 1_555 1_555
C28B O3B 1_555 1_555
H22B C28B 1_555 1_555
H23B C28B 1_555 1_555
H24B C28B 1_555 1_555
C29B O6B 1_555 1_555
C30B C29B 1_555 1_555
H25B C30B 1_555 1_555
C31B C30B 1_555 1_555
H26B C31B 1_555 1_555
C32B C31B 1_555 1_555
H27B C32B 1_555 1_555
C33B C32B 1_555 1_555
H28B C33B 1_555 1_555
C34B C29B 1_555 1_555
C35B N8B 1_555 1_555
H29B C35B 1_555 1_555
C36B N8B 1_555 1_555
C37B C36B 1_555 1_555
H30B C37B 1_555 1_555
C38B C37B 1_555 1_555
H31B C38B 1_555 1_555
C39B C38B 1_555 1_555
C40B C39B 1_555 1_555
H32B C40B 1_555 1_555
C41B C36B 1_555 1_555
H33B C41B 1_555 1_555
C42B O5B 1_555 1_555
H34B C42B 1_555 1_555
H35B C42B 1_555 1_555
H36B C42B 1_555 1_555
N3 N4 1_555 1_555
C5 C6 1_555 1_555
C6 C7 1_555 1_555
C12 C13 1_555 1_555
C19 C20 1_555 1_555
C20 C21 1_555 1_555
C26 C27 1_555 1_555
C33 C34 1_555 1_555
C34 C35 1_555 1_555
C40 C41 1_555 1_555
N3B N4B 1_555 1_555
C5B C6B 1_555 1_555
C6B C7B 1_555 1_555
C12B C13B 1_555 1_555
C19B C20B 1_555 1_555
C20B C21B 1_555 1_555
C26B C27B 1_555 1_555
C33B C34B 1_555 1_555
C34B C35B 1_555 1_555
C40B C41B 1_555 1_555

#END
