
#######################################################################
#
#                 Cambridge Crystallographic Data Centre
#                                CCDC 
#
#######################################################################
#
# If this CIF has been generated from an entry in the Cambridge 
# Structural Database, then it will include bibliographic, chemical, 
# crystal, experimental, refinement or atomic coordinate data resulting 
# from the CCDC's data processing and validation procedures.
#
#######################################################################

data_HINVAD01
_symmetry_cell_setting           hexagonal
_symmetry_space_group_name_H-M   'P 63/m'
_symmetry_Int_Tables_number      176
_space_group_name_Hall           '-P 6c'
loop_
_symmetry_equiv_pos_site_id
_symmetry_equiv_pos_as_xyz
1 x,y,z
2 -y,x-y,z
3 -x+y,-x,z
4 -x,-y,1/2+z
5 y,-x+y,1/2+z
6 x-y,x,1/2+z
7 -x,-y,-z
8 y,-x+y,-z
9 x-y,x,-z
10 x,y,1/2-z
11 -y,x-y,1/2-z
12 -x+y,-x,1/2-z
_cell_length_a                   10.5117(7)
_cell_length_b                   10.5117(7)
_cell_length_c                   23.576(2)
_cell_angle_alpha                90
_cell_angle_beta                 90
_cell_angle_gamma                120
_cell_volume                     2256.04
loop_
_atom_site_label
_atom_site_type_symbol
_atom_site_fract_x
_atom_site_fract_y
_atom_site_fract_z
Fe1 Fe 1.0000 1.0000 0.5000
N1 N 0.9551(7) 0.8137(7) 0.5525(2)
C1 C 1.0339(9) 0.7515(9) 0.5620(3)
H1 H 1.1210 0.7738 0.5428
N2 N 0.9733(8) 0.6528(7) 0.6027(3)
N3 N 0.8471(8) 0.6465(9) 0.6184(3)
N4 N 0.8391(8) 0.7484(9) 0.5887(3)
C2 C 1.0125(11) 0.5480(10) 0.6262(3)
H2 H 1.1095 0.5716 0.6120
H3 H 0.9413 0.4488 0.6132
C3 C 1.0152(9) 0.5501(9) 0.6909(3)
C4 C 1.1143(10) 0.6718(10) 0.7201(3)
H4 H 1.1828 0.7560 0.7002
C5 C 0.9163(10) 0.4277(9) 0.7208(3)
H5 H 0.8480 0.3431 0.7011
N1I N 0.9551(7) 0.8137(7) 0.9475(2)
C1I C 1.0339(9) 0.7515(9) 0.9380(3)
H1I H 1.1210 0.7738 0.9572
N2I N 0.9733(8) 0.6528(7) 0.8973(3)
N3I N 0.8471(8) 0.6465(9) 0.8816(3)
N4I N 0.8391(8) 0.7484(9) 0.9113(3)
C2I C 1.0125(11) 0.5480(10) 0.8738(3)
H2I H 1.1095 0.5716 0.8880
H3I H 0.9413 0.4488 0.8868
C3I C 1.0152(9) 0.5501(9) 0.8091(3)
C4I C 1.1143(10) 0.6718(10) 0.7799(3)
H4I H 1.1828 0.7560 0.7998
C5I C 0.9163(10) 0.4277(9) 0.7792(3)
H5I H 0.8480 0.3431 0.7989
N1A N 1.1863(7) 1.1414(10) 0.5525(2)
C1A C 1.2485(9) 1.2824(13) 0.5620(3)
H1A H 1.2262 1.3472 0.5428
N2A N 1.3472(7) 1.3205(11) 0.6027(3)
N3A N 1.3535(9) 1.2006(12) 0.6184(3)
N4A N 1.2516(9) 1.0907(12) 0.5887(3)
C2A C 1.4520(10) 1.4645(15) 0.6262(3)
H2A H 1.4284 1.5379 0.6120
H3A H 1.5512 1.4925 0.6132
C3A C 1.4499(9) 1.4651(13) 0.6909(3)
C4A C 1.3282(10) 1.4425(14) 0.7201(3)
H4A H 1.2440 1.4268 0.7002
C5A C 1.5723(9) 1.4886(13) 0.7208(3)
H5A H 1.6569 1.5049 0.7011
N1J N 1.1863(7) 1.1414(10) 0.9475(2)
C1J C 1.2485(9) 1.2824(13) 0.9380(3)
H1J H 1.2262 1.3472 0.9572
N2J N 1.3472(7) 1.3205(11) 0.8973(3)
N3J N 1.3535(9) 1.2006(12) 0.8816(3)
N4J N 1.2516(9) 1.0907(12) 0.9113(3)
C2J C 1.4520(10) 1.4645(15) 0.8738(3)
H2J H 1.4284 1.5379 0.8880
H3J H 1.5512 1.4925 0.8868
C3J C 1.4499(9) 1.4651(13) 0.8091(3)
C4J C 1.3282(10) 1.4425(14) 0.7799(3)
H4J H 1.2440 1.4268 0.7998
C5J C 1.5723(9) 1.4886(13) 0.7792(3)
H5J H 1.6569 1.5049 0.7989
N1B N 0.8586(10) 1.0449(7) 0.5525(2)
C1B C 0.7176(13) 0.9661(9) 0.5620(3)
H1B H 0.6528 0.8790 0.5428
N2B N 0.6795(11) 1.0267(8) 0.6027(3)
N3B N 0.7994(12) 1.1529(8) 0.6184(3)
N4B N 0.9093(12) 1.1609(8) 0.5887(3)
C2B C 0.5355(15) 0.9875(11) 0.6262(3)
H2B H 0.4621 0.8905 0.6120
H3B H 0.5075 1.0587 0.6132
C3B C 0.5349(13) 0.9848(9) 0.6909(3)
C4B C 0.5575(14) 0.8857(10) 0.7201(3)
H4B H 0.5732 0.8172 0.7002
C5B C 0.5114(13) 1.0837(10) 0.7208(3)
H5B H 0.4951 1.1520 0.7011
N1K N 0.8586(10) 1.0449(7) 0.9475(2)
C1K C 0.7176(13) 0.9661(9) 0.9380(3)
H1K H 0.6528 0.8790 0.9572
N2K N 0.6795(11) 1.0267(8) 0.8973(3)
N3K N 0.7994(12) 1.1529(8) 0.8816(3)
N4K N 0.9093(12) 1.1609(8) 0.9113(3)
C2K C 0.5355(15) 0.9875(11) 0.8738(3)
H2K H 0.4621 0.8905 0.8880
H3K H 0.5075 1.0587 0.8868
C3K C 0.5349(13) 0.9848(9) 0.8091(3)
C4K C 0.5575(14) 0.8857(10) 0.7799(3)
H4K H 0.5732 0.8172 0.7998
C5K C 0.5114(13) 1.0837(10) 0.7792(3)
H5K H 0.4951 1.1520 0.7989
Fe1C Fe 1.0000 1.0000 1.0000
N1F N 1.0449(7) 1.1863(7) 0.4475(2)
N1G N 0.8137(7) 0.8586(10) 0.4475(2)
N1H N 1.1414(10) 0.9551(7) 0.4475(2)
O1 O 0.8020(10) 0.4505(9) 0.4954(3)
Cl1 Cl 0.6667 0.3333 0.5075(5)
O2 O 0.6667 0.3333 0.5655(10)
O1A O 0.5495(9) 0.3515(13) 0.4954(3)
O1B O 0.6485(13) 0.1980(10) 0.4954(3)
Cl2? Cl 0.6667 0.3333 0.4871(11)
O3? O 0.6667 0.3333 0.4284(15)
loop_
_geom_bond_atom_site_label_1
_geom_bond_atom_site_label_2
_geom_bond_site_symmetry_1
_geom_bond_site_symmetry_2
Fe1 N1 1_555 1_555
N1 C1 1_555 1_555
C1 H1 1_555 1_555
N2 C1 1_555 1_555
N3 N2 1_555 1_555
N4 N1 1_555 1_555
C2 N2 1_555 1_555
H2 C2 1_555 1_555
H3 C2 1_555 1_555
C3 C2 1_555 1_555
C4 C3 1_555 1_555
H4 C4 1_555 1_555
C5 C3 1_555 1_555
H5 C5 1_555 1_555
O1 Cl1 1_555 1_555
Cl1 O2 1_555 1_555
N1I C1I 1_555 1_555
C1I H1I 1_555 1_555
N2I C1I 1_555 1_555
N3I N2I 1_555 1_555
N4I N1I 1_555 1_555
C2I N2I 1_555 1_555
H2I C2I 1_555 1_555
H3I C2I 1_555 1_555
C3I C2I 1_555 1_555
C4I C4 1_555 1_555
H4I C4I 1_555 1_555
C5I C5 1_555 1_555
H5I C5I 1_555 1_555
N1A Fe1 1_555 1_555
C1A N1A 1_555 1_555
H1A C1A 1_555 1_555
N2A C1A 1_555 1_555
N3A N2A 1_555 1_555
N4A N1A 1_555 1_555
C2A N2A 1_555 1_555
H2A C2A 1_555 1_555
H3A C2A 1_555 1_555
C3A C2A 1_555 1_555
C4A C3A 1_555 1_555
H4A C4A 1_555 1_555
C5A C3A 1_555 1_555
H5A C5A 1_555 1_555
N1J C1J 1_555 1_555
C1J H1J 1_555 1_555
N2J C1J 1_555 1_555
N3J N2J 1_555 1_555
N4J N1J 1_555 1_555
C2J N2J 1_555 1_555
H2J C2J 1_555 1_555
H3J C2J 1_555 1_555
C3J C2J 1_555 1_555
C4J C4A 1_555 1_555
H4J C4J 1_555 1_555
C5J C5A 1_555 1_555
H5J C5J 1_555 1_555
N1B Fe1 1_555 1_555
C1B N1B 1_555 1_555
H1B C1B 1_555 1_555
N2B C1B 1_555 1_555
N3B N2B 1_555 1_555
N4B N1B 1_555 1_555
C2B N2B 1_555 1_555
H2B C2B 1_555 1_555
H3B C2B 1_555 1_555
C3B C2B 1_555 1_555
C4B C3B 1_555 1_555
H4B C4B 1_555 1_555
C5B C3B 1_555 1_555
H5B C5B 1_555 1_555
N1K C1K 1_555 1_555
C1K H1K 1_555 1_555
N2K C1K 1_555 1_555
N3K N2K 1_555 1_555
N4K N1K 1_555 1_555
C2K N2K 1_555 1_555
H2K C2K 1_555 1_555
H3K C2K 1_555 1_555
C3K C2K 1_555 1_555
C4K C4B 1_555 1_555
H4K C4K 1_555 1_555
C5K C5B 1_555 1_555
H5K C5K 1_555 1_555
Fe1C N1I 1_555 1_555
N1F Fe1 1_555 1_555
N1G Fe1 1_555 1_555
N1H Fe1 1_555 1_555
O1A Cl1 1_555 1_555
O1B Cl1 1_555 1_555
N3 N4 1_555 1_555
N3I N4I 1_555 1_555
C3I C4I 1_555 1_555
C3I C5I 1_555 1_555
N3A N4A 1_555 1_555
N1J Fe1C 1_555 1_555
N3J N4J 1_555 1_555
C3J C4J 1_555 1_555
C3J C5J 1_555 1_555
N3B N4B 1_555 1_555
N1K Fe1C 1_555 1_555
N3K N4K 1_555 1_555
C3K C4K 1_555 1_555
C3K C5K 1_555 1_555

#END
