
#######################################################################
#
#                 Cambridge Crystallographic Data Centre
#                                CCDC 
#
#######################################################################
#
# If this CIF has been generated from an entry in the Cambridge 
# Structural Database, then it will include bibliographic, chemical, 
# crystal, experimental, refinement or atomic coordinate data resulting 
# from the CCDC's data processing and validation procedures.
#
#######################################################################

data_HINVIL
_symmetry_cell_setting           triclinic
_symmetry_space_group_name_H-M   'P -1'
_symmetry_Int_Tables_number      2
_space_group_name_Hall           '-P 1'
loop_
_symmetry_equiv_pos_site_id
_symmetry_equiv_pos_as_xyz
1 x,y,z
2 -x,-y,-z
_cell_length_a                   7.8608(16)
_cell_length_b                   9.0242(18)
_cell_length_c                   11.394(2)
_cell_angle_alpha                86.82(3)
_cell_angle_beta                 83.63(3)
_cell_angle_gamma                84.87(3)
_cell_volume                     799.206
loop_
_atom_site_label
_atom_site_type_symbol
_atom_site_fract_x
_atom_site_fract_y
_atom_site_fract_z
Co1 Co 1.0000 0.5000 0.0000
N1 N 1.1179(3) 0.7001(3) 0.0124(2)
N2 N 1.1752(4) 0.9119(3) 0.0789(2)
N3 N 1.4315(4) 0.8914(3) 0.2390(3)
N4 N 1.3837(4) 1.1306(3) 0.2773(2)
H1 H 1.3348 1.2197 0.2776
O1 O 0.9724(3) 0.4746(3) 0.18566(17)
O2 O 1.2439(3) 0.4095(3) 0.21736(18)
O3 O 0.7603(3) 0.6252(3) 0.01792(19)
H2 H 0.7142 0.6228 -0.0459
H3 H 0.6783 0.6047 0.0697
C1 C 1.0875(4) 0.7916(4) 0.0990(3)
H4 H 1.0133 0.7745 0.1669
C2 C 1.2302(5) 0.7679(5) -0.0693(3)
H5 H 1.2749 0.7300 -0.1416
C3 C 1.2664(5) 0.8980(5) -0.0291(3)
H6 H 1.3394 0.9650 -0.0677
C4 C 1.1769(5) 1.0312(4) 0.1591(3)
H7 H 1.0750 1.0317 0.2155
H8 H 1.1735 1.1259 0.1144
C5 C 1.3334(4) 1.0144(4) 0.2245(3)
C6 C 1.5577(4) 0.9307(4) 0.3053(3)
C7 C 1.6972(5) 0.8447(5) 0.3444(4)
H9 H 1.7189 0.7449 0.3271
C8 C 1.8018(6) 0.9121(6) 0.4096(4)
H10 H 1.8959 0.8568 0.4374
C9 C 1.7704(6) 1.0606(7) 0.4349(4)
H11 H 1.8438 1.1024 0.4798
C10 C 1.6340(6) 1.1487(5) 0.3957(4)
H12 H 1.6143 1.2489 0.4122
C11 C 1.5279(5) 1.0801(4) 0.3306(3)
C12 C 1.0900(4) 0.4514(3) 0.2507(2)
C13 C 0.8738(4) 0.4854(4) 0.4275(3)
H13 H 0.7884 0.4756 0.3788
C14 C 1.0436(4) 0.4759(3) 0.3808(2)
C15 C 1.1705(4) 0.4907(4) 0.4540(3)
H14 H 1.2854 0.4846 0.4231
O1A O 1.0276(3) 0.5254(3) 0.81434(17)
O2A O 0.7561(3) 0.5905(3) 0.78264(18)
C12A C 0.9100(4) 0.5486(3) 0.7493(2)
C13A C 1.1262(4) 0.5146(4) 0.5725(3)
H13A H 1.2116 0.5244 0.6212
C14A C 0.9564(4) 0.5241(3) 0.6192(2)
C15A C 0.8295(4) 0.5093(4) 0.5460(3)
H14A H 0.7146 0.5154 0.5769
N1A N 0.8821(3) 0.2999(3) -0.0124(2)
N2A N 0.8248(4) 0.0881(3) -0.0789(2)
N3A N 0.5685(4) 0.1086(3) -0.2390(3)
N4A N 0.6163(4) -0.1306(3) -0.2773(2)
H1A H 0.6652 -0.2197 -0.2776
O3A O 1.2397(3) 0.3748(3) -0.01792(19)
H2A H 1.2858 0.3772 0.0459
H3A H 1.3217 0.3953 -0.0697
C1A C 0.9125(4) 0.2084(4) -0.0990(3)
H4A H 0.9867 0.2255 -0.1669
C2A C 0.7698(5) 0.2321(5) 0.0693(3)
H5A H 0.7251 0.2700 0.1416
C3A C 0.7336(5) 0.1020(5) 0.0291(3)
H6A H 0.6606 0.0350 0.0677
C4A C 0.8231(5) -0.0312(4) -0.1591(3)
H7A H 0.9250 -0.0317 -0.2155
H8A H 0.8265 -0.1259 -0.1144
C5A C 0.6666(4) -0.0144(4) -0.2245(3)
C6A C 0.4423(4) 0.0693(4) -0.3053(3)
C7A C 0.3028(5) 0.1553(5) -0.3444(4)
H9A H 0.2811 0.2551 -0.3271
C8A C 0.1982(6) 0.0879(6) -0.4096(4)
H10A H 0.1041 0.1432 -0.4374
C9A C 0.2296(6) -0.0606(7) -0.4349(4)
H11A H 0.1562 -0.1024 -0.4798
C10A C 0.3660(6) -0.1487(5) -0.3957(4)
H12A H 0.3857 -0.2489 -0.4122
C11A C 0.4721(5) -0.0801(4) -0.3306(3)
Co1_2 Co 1.0000 0.5000 1.0000
O1A_2 O 1.0276(3) 0.5254(3) -0.18566(17)
O4 O 0.5188(3) 0.5869(3) 0.2028(3)
H15 H 0.4267 0.5441 0.2032
H16 H 0.4788 0.6744 0.2205
loop_
_geom_bond_atom_site_label_1
_geom_bond_atom_site_label_2
_geom_bond_site_symmetry_1
_geom_bond_site_symmetry_2
Co1 N1 1_555 1_555
N1 C1 1_555 1_555
N2 C1 1_555 1_555
N3 C5 1_555 1_555
N4 H1 1_555 1_555
O1 Co1 1_555 1_555
O2 C12 1_555 1_555
O3 Co1 1_555 1_555
H2 O3 1_555 1_555
H3 O3 1_555 1_555
C1 H4 1_555 1_555
C2 N1 1_555 1_555
H5 C2 1_555 1_555
C3 N2 1_555 1_555
H6 C3 1_555 1_555
C4 N2 1_555 1_555
H7 C4 1_555 1_555
H8 C4 1_555 1_555
C5 N4 1_555 1_555
C6 N3 1_555 1_555
C7 C6 1_555 1_555
H9 C7 1_555 1_555
C8 C7 1_555 1_555
H10 C8 1_555 1_555
C9 C8 1_555 1_555
H11 C9 1_555 1_555
C10 C9 1_555 1_555
H12 C10 1_555 1_555
C11 N4 1_555 1_555
C12 O1 1_555 1_555
C13 H13 1_555 1_555
C14 C12 1_555 1_555
C15 C14 1_555 1_555
H14 C15 1_555 1_555
O4 H15 1_555 1_555
H16 O4 1_555 1_555
O1A C12A 1_555 1_555
O2A C12A 1_555 1_555
C12A C14A 1_555 1_555
C13A C15 1_555 1_555
H13A C13A 1_555 1_555
C14A C13A 1_555 1_555
C15A C13 1_555 1_555
H14A C15A 1_555 1_555
N1A Co1 1_555 1_555
N2A C1A 1_555 1_555
N3A C5A 1_555 1_555
N4A H1A 1_555 1_555
O3A Co1 1_555 1_555
H2A O3A 1_555 1_555
H3A O3A 1_555 1_555
C1A N1A 1_555 1_555
H4A C1A 1_555 1_555
C2A N1A 1_555 1_555
H5A C2A 1_555 1_555
C3A N2A 1_555 1_555
H6A C3A 1_555 1_555
C4A N2A 1_555 1_555
H7A C4A 1_555 1_555
H8A C4A 1_555 1_555
C5A N4A 1_555 1_555
C6A N3A 1_555 1_555
C7A C6A 1_555 1_555
H9A C7A 1_555 1_555
C8A C7A 1_555 1_555
H10A C8A 1_555 1_555
C9A C8A 1_555 1_555
H11A C9A 1_555 1_555
C10A C9A 1_555 1_555
H12A C10A 1_555 1_555
C11A N4A 1_555 1_555
Co1_2 O1A 1_555 1_555
O1A_2 Co1 1_555 1_555
C2 C3 1_555 1_555
C4 C5 1_555 1_555
C6 C11 1_555 1_555
C10 C11 1_555 1_555
C13 C14 1_555 1_555
C14A C15A 1_555 1_555
C2A C3A 1_555 1_555
C4A C5A 1_555 1_555
C6A C11A 1_555 1_555
C10A C11A 1_555 1_555

#END
