
#######################################################################
#
#                 Cambridge Crystallographic Data Centre
#                                CCDC 
#
#######################################################################
#
# If this CIF has been generated from an entry in the Cambridge 
# Structural Database, then it will include bibliographic, chemical, 
# crystal, experimental, refinement or atomic coordinate data resulting 
# from the CCDC's data processing and validation procedures.
#
#######################################################################

data_HIPDEQ
_symmetry_cell_setting           tetragonal
_symmetry_space_group_name_H-M   'P 41 21 2'
_symmetry_Int_Tables_number      92
_space_group_name_Hall           'P 4abw 2nw'
loop_
_symmetry_equiv_pos_site_id
_symmetry_equiv_pos_as_xyz
1 x,y,z
2 -x,-y,1/2+z
3 1/2-y,1/2+x,1/4+z
4 1/2+y,1/2-x,3/4+z
5 1/2-x,1/2+y,1/4-z
6 1/2+x,1/2-y,3/4-z
7 y,x,-z
8 -y,-x,1/2-z
_cell_length_a                   11.1513(6)
_cell_length_b                   11.1513(6)
_cell_length_c                   19.3206(14)
_cell_angle_alpha                90
_cell_angle_beta                 90
_cell_angle_gamma                90
_cell_volume                     2402.55
loop_
_atom_site_label
_atom_site_type_symbol
_atom_site_fract_x
_atom_site_fract_y
_atom_site_fract_z
Cu1 Cu 0.85553(6) 0.35436(6) 0.01241(2)
N1 N 0.9456(3) 0.2617(4) 0.08482(18)
N2 N 1.0622(3) 0.2617(4) 0.18849(18)
O1 O 0.7044(3) 0.2328(3) 0.03249(15)
H1 H 0.7109 0.2038 0.0706
H2 H 0.6879 0.1820 0.0039
O2 O 1.0109(3) 0.4758(3) -0.00586(13)
H3 H 1.0595 0.4332 0.0024
H4 H 1.0184 0.5501 0.0150
O3 O 0.7864(3) 0.4729(3) 0.08243(15)
H5 H 0.7830 0.5606 0.0716
H6 H 0.7773 0.4608 0.1201
O4 O 0.9354(3) 0.2397(3) -0.05973(15)
H7 H 0.9219 0.2293 -0.1002
H8 H 1.0265 0.2439 -0.0528
C1 C 0.9467(4) 0.1416(5) 0.0855(2)
H11 H 0.9077 0.1000 0.0490
C2 C 1.0016(4) 0.0761(4) 0.1365(2)
H12 H 1.0011 -0.0091 0.1363
C3 C 1.0573(4) 0.1405(5) 0.1880(2)
H13 H 1.0941 0.0980 0.2250
C4 C 1.0041(4) 0.3173(4) 0.1369(2)
H14 H 1.0041 0.4025 0.1370
Cu1C Cu 0.85436(6) 0.64447(6) -0.23759(2)
Cu1B Cu 1.14564(6) 0.35553(6) 0.26241(2)
N1C N 0.7617(4) 0.5544(3) -0.16518(18)
N2C N 0.7617(4) 0.4378(3) -0.06151(18)
N2A N 0.9378(3) 0.7383(4) -0.31151(18)
O1C O 0.7328(3) 0.7956(3) -0.21751(15)
H1C H 0.7038 0.7891 -0.1794
H2C H 0.6820 0.8121 -0.2461
O2C O 0.9758(3) 0.4891(3) -0.25586(13)
H3C H 0.9332 0.4405 -0.2476
H4C H 1.0501 0.4816 -0.2350
O3C O 0.9729(3) 0.7136(3) -0.16757(15)
H5C H 1.0606 0.7170 -0.1784
H6C H 0.9608 0.7227 -0.1299
O4C O 0.7397(3) 0.5646(3) -0.30973(15)
H7C H 0.7293 0.5781 -0.3502
H8C H 0.7439 0.4735 -0.3028
C1C C 0.6416(5) 0.5533(4) -0.1645(2)
H11C H 0.6000 0.5923 -0.2010
C2C C 0.5761(4) 0.4984(4) -0.1135(2)
H12C H 0.4909 0.4989 -0.1137
C3C C 0.6405(5) 0.4427(4) -0.0620(2)
H13C H 0.5980 0.4059 -0.0250
C4C C 0.8173(4) 0.4959(4) -0.1131(2)
H14C H 0.9025 0.4959 -0.1130
Si1 Si 1.30205(13) 0.30205(13) 0.0000
F1 F 1.1767(2) 0.2746(2) -0.04774(13)
F2 F 1.3832(2) 0.2191(3) -0.05587(12)
F3 F 1.3267(3) 0.4242(3) -0.04775(13)
F1F F 1.2746(2) 0.1767(2) 0.04774(13)
F2F F 1.2191(3) 0.3832(2) 0.05587(12)
F3F F 1.4242(3) 0.3267(3) 0.04775(13)
Si2 Si 0.80458(14) 0.80458(14) 0.0000
F4 F 0.7069(3) 0.9023(2) 0.03526(12)
F5 F 0.7960(6) 0.7147(6) 0.0706(3)
F7 F 0.8868(6) 0.8208(6) 0.0719(3)
F4F F 0.9023(2) 0.7069(3) -0.03526(12)
F5F F 0.7147(6) 0.7960(6) -0.0706(3)
F7F F 0.8208(6) 0.8868(6) -0.0719(3)
O5 O 0.6741(3) 0.0795(3) -0.07596(16)
H9 H 0.7105 0.0068 -0.0774
H10 H 0.6728 0.0992 -0.1143
F6? F 0.7309(5) 0.6925(5) 0.0367(3)
F8? F 0.9243(6) 0.8705(6) 0.0345(3)
loop_
_geom_bond_atom_site_label_1
_geom_bond_atom_site_label_2
_geom_bond_site_symmetry_1
_geom_bond_site_symmetry_2
Cu1 N1 1_555 1_555
Si1 F1 1_555 1_555
F2 Si1 1_555 1_555
F3 Si1 1_555 1_555
Si2 F4 1_555 1_555
F5 Si2 1_555 1_555
F7 Si2 1_555 1_555
N1 C1 1_555 1_555
N2 C3 1_555 1_555
O1 Cu1 1_555 1_555
H1 O1 1_555 1_555
H2 O1 1_555 1_555
O2 Cu1 1_555 1_555
H3 O2 1_555 1_555
H4 O2 1_555 1_555
O3 Cu1 1_555 1_555
H5 O3 1_555 1_555
H6 O3 1_555 1_555
O4 Cu1 1_555 1_555
H7 O4 1_555 1_555
H8 O4 1_555 1_555
O5 H9 1_555 1_555
H10 O5 1_555 1_555
C1 H11 1_555 1_555
C2 C1 1_555 1_555
H12 C2 1_555 1_555
C3 C2 1_555 1_555
H13 C3 1_555 1_555
C4 N1 1_555 1_555
H14 C4 1_555 1_555
Cu1C N1C 1_555 1_555
Cu1B N2 1_555 1_555
F1F Si1 1_555 1_555
F2F Si1 1_555 1_555
F3F Si1 1_555 1_555
F4F Si2 1_555 1_555
F5F Si2 1_555 1_555
F7F Si2 1_555 1_555
N1C C1C 1_555 1_555
N2C Cu1 1_555 1_555
N2A Cu1C 1_555 1_555
O1C Cu1C 1_555 1_555
H1C O1C 1_555 1_555
H2C O1C 1_555 1_555
O2C Cu1C 1_555 1_555
H3C O2C 1_555 1_555
H4C O2C 1_555 1_555
O3C Cu1C 1_555 1_555
H5C O3C 1_555 1_555
H6C O3C 1_555 1_555
O4C Cu1C 1_555 1_555
H7C O4C 1_555 1_555
H8C O4C 1_555 1_555
C1C H11C 1_555 1_555
C2C C1C 1_555 1_555
H12C C2C 1_555 1_555
C3C N2C 1_555 1_555
H13C C3C 1_555 1_555
C4C N1C 1_555 1_555
H14C C4C 1_555 1_555
N2 C4 1_555 1_555
N2C C4C 1_555 1_555
C2C C3C 1_555 1_555

#END
