
#######################################################################
#
#                 Cambridge Crystallographic Data Centre
#                                CCDC 
#
#######################################################################
#
# If this CIF has been generated from an entry in the Cambridge 
# Structural Database, then it will include bibliographic, chemical, 
# crystal, experimental, refinement or atomic coordinate data resulting 
# from the CCDC's data processing and validation procedures.
#
#######################################################################

data_HIPGUJ
_symmetry_cell_setting           monoclinic
_symmetry_space_group_name_H-M   'P 21/c'
_symmetry_Int_Tables_number      14
_space_group_name_Hall           '-P 2ybc'
loop_
_symmetry_equiv_pos_site_id
_symmetry_equiv_pos_as_xyz
1 x,y,z
2 -x,1/2+y,1/2-z
3 -x,-y,-z
4 x,1/2-y,1/2+z
_cell_length_a                   12.355(5)
_cell_length_b                   26.521(5)
_cell_length_c                   10.605(5)
_cell_angle_alpha                90
_cell_angle_beta                 96.512(5)
_cell_angle_gamma                90
_cell_volume                     3452.49
loop_
_atom_site_label
_atom_site_type_symbol
_atom_site_fract_x
_atom_site_fract_y
_atom_site_fract_z
Nd1 Nd 0.82869(3) 0.885311(12) 0.18619(3)
O1 O 0.9933(3) 0.83607(15) 0.2279(4)
O2 O 0.8321(4) 0.90941(15) 0.4042(4)
O3 O 0.8129(3) 0.80928(15) 0.3086(4)
O4 O 0.9391(4) 0.91254(16) 0.0106(4)
O5 O 0.7121(4) 0.92828(16) 0.0248(4)
O6 O 0.8907(4) 0.97061(15) 0.2395(4)
O7 O 0.6380(3) 0.88164(16) 0.2071(4)
O8 O 0.8272(4) 0.95290(17) 0.7757(4)
N1 N 0.9033(4) 0.78018(18) 0.3398(5)
O9 O 0.3073(4) 0.8847(2) 0.2409(5)
N2 N 0.8490(4) 0.95829(18) 0.4391(5)
N3 N 0.5743(4) 0.8195(2) 0.5858(5)
N4 N 0.7058(4) 0.74891(19) 0.4414(5)
H1 H 0.7086 0.7753 0.3948
N5 N 0.4754(4) 0.8795(2) 0.3499(5)
H2 H 0.5437 0.8760 0.3435
C1 C 0.8984(5) 0.7378(2) 0.4156(6)
N6 N 0.5648(4) 0.90195(19) 0.1145(5)
C2 C 1.0922(5) 0.7650(2) 0.3216(6)
C3 C 1.0912(5) 0.7233(2) 0.4022(6)
C4 C 0.8827(5) 1.1116(2) 0.5221(6)
H3 H 0.8661 1.1242 0.5994
C5 C 0.8810(5) 0.9894(2) 0.3466(6)
C6 C 1.1890(5) 0.7785(2) 0.2745(6)
H4 H 1.1912 0.8073 0.2248
C7 C 0.9910(5) 0.7108(2) 0.4455(6)
H5 H 0.9881 0.6826 0.4972
C8 C 0.4538(5) 0.8987(2) 0.1232(7)
C9 C 0.8966(5) 1.0418(2) 0.3788(6)
N7 N 0.7662(5) 0.8937(2) 0.6266(5)
H6 H 0.7582 0.8862 0.5472
C10 C 0.4217(5) 0.9393(2) -0.0852(6)
C11 C 0.6050(5) 0.7368(2) 0.4902(6)
H7 H 0.6029 0.7008 0.5068
H8 H 0.5448 0.7447 0.4264
C12 C 0.9434(6) 1.1253(2) 0.3199(7)
H9 H 0.9702 1.1472 0.2626
C13 C 0.8341(5) 0.9749(2) 0.5609(6)
C14 C 0.8738(5) 1.0598(2) 0.4967(6)
C15 C 0.9316(5) 1.0748(2) 0.2911(6)
H10 H 0.9473 1.0629 0.2127
C16 C 0.8447(5) 1.0247(2) 0.5878(6)
H11 H 0.8326 1.0362 0.6679
C17 C 0.8083(5) 0.9384(3) 0.6621(6)
C18 C 0.5041(6) 0.9890(2) -0.2832(6)
H12 H 0.5305 1.0059 -0.3501
C19 C 0.4061(5) 0.8859(3) 0.2439(7)
C20 C 0.9955(5) 0.7960(2) 0.2924(5)
C21 C 0.3834(6) 0.9157(2) 0.0227(7)
H13 H 0.3088 0.9117 0.0248
C22 C 0.5345(5) 0.9455(2) -0.0831(6)
C23 C 0.6066(5) 0.9257(2) 0.0188(6)
C24 C 0.5751(6) 0.9718(2) -0.1831(6)
H14 H 0.6495 0.9776 -0.1814
C25 C 0.4583(6) 0.8299(3) 0.5446(6)
H15 H 0.4190 0.8305 0.6187
H16 H 0.4289 0.8025 0.4906
C26 C 0.4384(6) 0.8785(2) 0.4741(6)
H17 H 0.3608 0.8855 0.4651
H18 H 0.4745 0.9054 0.5247
C27 C 0.5905(6) 0.7651(2) 0.6107(6)
H19 H 0.5281 0.7517 0.6473
H20 H 0.6544 0.7602 0.6715
C28 C 0.3513(6) 0.9560(3) -0.1869(7)
H21 H 0.2767 0.9506 -0.1898
C29 C 0.9154(6) 1.1431(3) 0.4334(7)
H22 H 0.9190 1.1776 0.4496
C30 C 1.2796(6) 0.7502(3) 0.3004(7)
H23 H 1.3432 0.7589 0.2664
C31 C 0.6106(6) 0.8483(2) 0.7002(6)
H24 H 0.5906 0.8303 0.7737
H25 H 0.5735 0.8806 0.6963
C32 C 0.3936(6) 0.9810(3) -0.2842(7)
H26 H 0.3464 0.9927 -0.3525
C33 C 0.7334(6) 0.8573(2) 0.7165(6)
H27 H 0.7556 0.8693 0.8020
H28 H 0.7705 0.8257 0.7057
C34 C 1.2778(6) 0.7070(3) 0.3795(7)
H29 H 1.3398 0.6871 0.3964
C35 C 1.1861(5) 0.6950(2) 0.4298(6)
H30 H 1.1859 0.6674 0.4839
O11 O 0.7947(3) 0.68115(15) 0.5245(4)
C36 C 0.7940(5) 0.7210(2) 0.4657(6)
Nd1C Nd 0.82869(3) 0.614689(12) 0.68619(3)
O11C O 0.7947(3) 0.81885(15) 0.0245(4)
O10 O 1.1251(4) 0.9714(2) 0.0226(5)
loop_
_geom_bond_atom_site_label_1
_geom_bond_atom_site_label_2
_geom_bond_site_symmetry_1
_geom_bond_site_symmetry_2
Nd1 O1 1_555 1_555
O1 C20 1_555 1_555
O2 Nd1 1_555 1_555
O3 Nd1 1_555 1_555
O4 Nd1 1_555 1_555
O5 Nd1 1_555 1_555
O6 Nd1 1_555 1_555
O7 Nd1 1_555 1_555
O8 C17 1_555 1_555
N1 O3 1_555 1_555
O9 C19 1_555 1_555
N2 O2 1_555 1_555
N3 C25 1_555 1_555
N4 H1 1_555 1_555
N5 H2 1_555 1_555
C1 N1 1_555 1_555
N6 O7 1_555 1_555
C2 C3 1_555 1_555
C3 C7 1_555 1_555
C4 H3 1_555 1_555
C5 O6 1_555 1_555
C6 C2 1_555 1_555
H4 C6 1_555 1_555
C7 C1 1_555 1_555
H5 C7 1_555 1_555
C8 N6 1_555 1_555
C9 C5 1_555 1_555
N7 H6 1_555 1_555
C10 C21 1_555 1_555
C11 N4 1_555 1_555
H7 C11 1_555 1_555
H8 C11 1_555 1_555
C12 H9 1_555 1_555
C13 N2 1_555 1_555
C14 C4 1_555 1_555
C15 C9 1_555 1_555
H10 C15 1_555 1_555
C16 C13 1_555 1_555
H11 C16 1_555 1_555
C17 N7 1_555 1_555
C18 H12 1_555 1_555
C19 N5 1_555 1_555
C20 N1 1_555 1_555
C21 C8 1_555 1_555
H13 C21 1_555 1_555
C22 C10 1_555 1_555
C23 O5 1_555 1_555
C24 C18 1_555 1_555
H14 C24 1_555 1_555
C25 H15 1_555 1_555
H16 C25 1_555 1_555
C26 N5 1_555 1_555
H17 C26 1_555 1_555
H18 C26 1_555 1_555
C27 N3 1_555 1_555
H19 C27 1_555 1_555
H20 C27 1_555 1_555
C28 C10 1_555 1_555
H21 C28 1_555 1_555
C29 C4 1_555 1_555
H22 C29 1_555 1_555
C30 C6 1_555 1_555
H23 C30 1_555 1_555
C31 N3 1_555 1_555
H24 C31 1_555 1_555
H25 C31 1_555 1_555
C32 C18 1_555 1_555
H26 C32 1_555 1_555
C33 N7 1_555 1_555
H27 C33 1_555 1_555
H28 C33 1_555 1_555
C34 C30 1_555 1_555
H29 C34 1_555 1_555
C35 C3 1_555 1_555
H30 C35 1_555 1_555
O11 C36 1_555 1_555
C36 N4 1_555 1_555
Nd1C O11 1_555 1_555
O11C Nd1 1_555 1_555
N2 C5 1_555 1_555
C1 C36 1_555 1_555
N6 C23 1_555 1_555
C2 C20 1_555 1_555
C8 C19 1_555 1_555
C9 C14 1_555 1_555
C11 C27 1_555 1_555
C12 C15 1_555 1_555
C12 C29 1_555 1_555
C13 C17 1_555 1_555
C14 C16 1_555 1_555
C22 C23 1_555 1_555
C22 C24 1_555 1_555
C25 C26 1_555 1_555
C28 C32 1_555 1_555
C31 C33 1_555 1_555
C34 C35 1_555 1_555

#END
