
#######################################################################
#
#                 Cambridge Crystallographic Data Centre
#                                CCDC 
#
#######################################################################
#
# If this CIF has been generated from an entry in the Cambridge 
# Structural Database, then it will include bibliographic, chemical, 
# crystal, experimental, refinement or atomic coordinate data resulting 
# from the CCDC's data processing and validation procedures.
#
#######################################################################

data_HIPGAQ
_symmetry_cell_setting           monoclinic
_symmetry_space_group_name_H-M   'P 21/c'
_symmetry_Int_Tables_number      14
_space_group_name_Hall           '-P 2ybc'
loop_
_symmetry_equiv_pos_site_id
_symmetry_equiv_pos_as_xyz
1 x,y,z
2 -x,1/2+y,1/2-z
3 -x,-y,-z
4 x,1/2-y,1/2+z
_cell_length_a                   8.0201(12)
_cell_length_b                   19.173(3)
_cell_length_c                   7.3148(11)
_cell_angle_alpha                90
_cell_angle_beta                 93.877(3)
_cell_angle_gamma                90
_cell_volume                     1122.22
loop_
_atom_site_label
_atom_site_type_symbol
_atom_site_fract_x
_atom_site_fract_y
_atom_site_fract_z
Cu1 Cu 0.0000 0.0000 0.0000
Cu2 Cu 0.54743(14) 0.23229(6) 0.46233(15)
Br1 Br 0.75229(12) 0.23603(6) 0.73002(14)
Br2 Br -0.09315(15) -0.06096(6) 0.26469(16)
O1 O 0.3685(9) -0.0445(3) 0.1005(9)
N1 N 0.7412(10) 0.0839(4) 0.4724(11)
H1 H 0.7695 0.1193 0.5398
H2 H 0.8125 0.0514 0.4560
N2 N 0.5465(10) 0.0217(4) 0.2914(10)
H3 H 0.6229 -0.0096 0.2859
N3 N 0.1870(9) 0.1595(4) 0.3379(10)
N4 N 0.4788(9) 0.1302(4) 0.4206(9)
C1 C 0.5869(11) 0.0795(5) 0.3936(12)
C2 C 0.3242(11) 0.1176(4) 0.3367(11)
C3 C 0.3933(12) 0.0080(5) 0.1945(12)
C4 C 0.3062(11) 0.2707(4) 0.4430(12)
C5 C 0.1658(11) 0.2219(5) 0.4537(12)
H4 H 0.0624 0.2453 0.4140
H5 H 0.1581 0.2074 0.5799
N5 N 0.1123(9) 0.0692(4) 0.1613(10)
C6 C 0.0617(11) 0.1279(5) 0.2300(11)
H6 H -0.0455 0.1459 0.2086
C7 C 0.2778(12) 0.0619(4) 0.2284(11)
C8 C 0.3988(12) 0.3206(5) 0.4372(13)
H7 H 0.4697 0.3589 0.4328
Cu2B Cu -0.54743(14) -0.23229(6) -0.46233(15)
Br1B Br -0.75229(12) -0.23603(6) -0.73002(14)
Br2B Br 0.09315(15) 0.06096(6) -0.26469(16)
O1B O -0.3685(9) 0.0445(3) -0.1005(9)
N1B N -0.7412(10) -0.0839(4) -0.4724(11)
H1B H -0.7695 -0.1193 -0.5398
H2B H -0.8125 -0.0514 -0.4560
N2B N -0.5465(10) -0.0217(4) -0.2914(10)
H3B H -0.6229 0.0096 -0.2859
N3B N -0.1870(9) -0.1595(4) -0.3379(10)
N4B N -0.4788(9) -0.1302(4) -0.4206(9)
C1B C -0.5869(11) -0.0795(5) -0.3936(12)
C2B C -0.3242(11) -0.1176(4) -0.3367(11)
C3B C -0.3933(12) -0.0080(5) -0.1945(12)
C4B C -0.3062(11) -0.2707(4) -0.4430(12)
C5B C -0.1658(11) -0.2219(5) -0.4537(12)
H4B H -0.0624 -0.2453 -0.4140
H5B H -0.1581 -0.2074 -0.5799
N5B N -0.1123(9) -0.0692(4) -0.1613(10)
C6B C -0.0617(11) -0.1279(5) -0.2300(11)
H6B H 0.0455 -0.1459 -0.2086
C7B C -0.2778(12) -0.0619(4) -0.2284(11)
C8B C -0.3988(12) -0.3206(5) -0.4372(13)
H7B H -0.4697 -0.3589 -0.4328
Cu2A Cu -0.54743(14) -0.26771(6) -0.96233(15)
Cu2C Cu 0.54743(14) 0.26771(6) 0.96233(15)
Br1A Br -0.75229(12) -0.26397(6) -0.23002(14)
Br1C Br 0.75229(12) 0.26397(6) 0.23002(14)
loop_
_geom_bond_atom_site_label_1
_geom_bond_atom_site_label_2
_geom_bond_site_symmetry_1
_geom_bond_site_symmetry_2
Cu1 Br2 1_555 1_555
Cu2 Br1 1_555 1_555
Br1 Cu2C 1_555 1_555
O1 C3 1_555 1_555
N1 H1 1_555 1_555
H2 N1 1_555 1_555
N2 H3 1_555 1_555
N3 C2 1_555 1_555
N4 Cu2 1_555 1_555
C1 N1 1_555 1_555
C2 N4 1_555 1_555
C3 N2 1_555 1_555
C4 Cu2 1_555 1_555
C5 N3 1_555 1_555
H4 C5 1_555 1_555
H5 C5 1_555 1_555
N5 Cu1 1_555 1_555
C6 N3 1_555 1_555
H6 C6 1_555 1_555
C7 C2 1_555 1_555
C8 Cu2 1_555 1_555
H7 C8 1_555 1_555
Cu2B Br1B 1_555 1_555
Br1B Cu2A 1_555 1_555
Br2B Cu1 1_555 1_555
O1B C3B 1_555 1_555
N1B H1B 1_555 1_555
H2B N1B 1_555 1_555
N2B H3B 1_555 1_555
N3B C2B 1_555 1_555
N4B Cu2B 1_555 1_555
C1B N1B 1_555 1_555
C2B N4B 1_555 1_555
C3B N2B 1_555 1_555
C4B Cu2B 1_555 1_555
C5B N3B 1_555 1_555
H4B C5B 1_555 1_555
H5B C5B 1_555 1_555
N5B Cu1 1_555 1_555
C6B N3B 1_555 1_555
H6B C6B 1_555 1_555
C7B C2B 1_555 1_555
C8B Cu2B 1_555 1_555
H7B C8B 1_555 1_555
Br1A Cu2B 1_555 1_555
Br1C Cu2 1_555 1_555
N2 C1 1_555 1_555
N4 C1 1_555 1_555
C3 C7 1_555 1_555
C4 C5 1_555 1_555
C4 C8 1_555 1_555
N5 C6 1_555 1_555
N5 C7 1_555 1_555
N2B C1B 1_555 1_555
N4B C1B 1_555 1_555
C3B C7B 1_555 1_555
C4B C5B 1_555 1_555
C4B C8B 1_555 1_555
N5B C6B 1_555 1_555
N5B C7B 1_555 1_555

#END
