
#######################################################################
#
#                 Cambridge Crystallographic Data Centre
#                                CCDC 
#
#######################################################################
#
# If this CIF has been generated from an entry in the Cambridge 
# Structural Database, then it will include bibliographic, chemical, 
# crystal, experimental, refinement or atomic coordinate data resulting 
# from the CCDC's data processing and validation procedures.
#
#######################################################################

data_HIPHAQ
_symmetry_cell_setting           monoclinic
_symmetry_space_group_name_H-M   'P 21/c'
_symmetry_Int_Tables_number      14
_space_group_name_Hall           '-P 2ybc'
loop_
_symmetry_equiv_pos_site_id
_symmetry_equiv_pos_as_xyz
1 x,y,z
2 -x,1/2+y,1/2-z
3 -x,-y,-z
4 x,1/2-y,1/2+z
_cell_length_a                   12.3528(13)
_cell_length_b                   26.371(3)
_cell_length_c                   10.6066(11)
_cell_angle_alpha                90
_cell_angle_beta                 96.441(2)
_cell_angle_gamma                90
_cell_volume                     3433.35
loop_
_atom_site_label
_atom_site_type_symbol
_atom_site_fract_x
_atom_site_fract_y
_atom_site_fract_z
Sm1 Sm 0.82414(2) 0.884707(10) 0.18542(3)
O1 O 0.8066(3) 0.80913(14) 0.3069(4)
O2 O 0.7104(3) 0.92849(15) 0.0250(4)
O3 O 0.9867(3) 0.83658(14) 0.2267(3)
O4 O 0.8265(3) 0.90791(14) 0.4023(4)
O5 O 0.9358(3) 0.91133(15) 0.0122(4)
O6 O 0.6349(3) 0.88159(15) 0.2078(4)
O7 O 0.8258(4) 0.95105(16) 0.7740(4)
O8 O 0.8877(3) 0.96894(14) 0.2356(4)
N1 N 0.8981(4) 0.78045(16) 0.3396(4)
O9 O 0.3036(4) 0.88537(19) 0.2399(5)
N2 N 0.7001(4) 0.74880(18) 0.4399(5)
H1 H 0.7028 0.7755 0.3938
N3 N 0.8469(4) 0.95676(17) 0.4367(4)
N4 N 0.5627(4) 0.90218(17) 0.1147(5)
N5 N 0.4720(4) 0.87904(18) 0.3487(5)
H2 H 0.5403 0.8749 0.3426
N6 N 0.7626(4) 0.89296(18) 0.6250(5)
H3 H 0.7541 0.8856 0.5455
C1 C 0.8970(5) 1.0399(2) 0.3762(5)
C2 C 1.0862(5) 0.7235(2) 0.4019(5)
C3 C 0.8937(5) 0.73821(19) 0.4162(5)
N7 N 0.5678(4) 0.81891(17) 0.5840(5)
C4 C 1.0878(5) 0.7662(2) 0.3224(5)
C5 C 0.8788(5) 0.9879(2) 0.3452(5)
C6 C 0.8060(5) 0.9372(2) 0.6604(5)
C7 C 0.8757(5) 1.0586(2) 0.4954(6)
C8 C 0.8324(5) 0.9736(2) 0.5595(5)
C9 C 0.4219(5) 0.9387(2) -0.0854(6)
C10 C 0.9856(5) 0.7107(2) 0.4462(5)
H4 H 0.9825 0.6823 0.4977
C11 C 0.9335(5) 1.0733(2) 0.2882(6)
H5 H 0.9483 1.0614 0.2094
C12 C 0.9476(5) 1.1240(2) 0.3178(7)
H6 H 0.9742 1.1459 0.2600
C13 C 0.5985(5) 0.7358(2) 0.4880(6)
H7 H 0.5970 0.6997 0.5044
H8 H 0.5383 0.7437 0.4242
C14 C 0.4512(5) 0.8991(2) 0.1213(6)
C15 C 1.1849(5) 0.7790(2) 0.2731(6)
H9 H 1.1869 0.8074 0.2215
C16 C 0.5058(6) 0.9893(2) -0.2835(6)
H10 H 0.5326 1.0068 -0.3494
C17 C 0.8863(5) 1.1109(2) 0.5219(6)
H11 H 0.8689 1.1238 0.5988
C18 C 0.9907(5) 0.7967(2) 0.2927(5)
C19 C 0.8451(5) 1.0228(2) 0.5870(6)
H12 H 0.8338 1.0342 0.6675
C20 C 0.5841(5) 0.7642(2) 0.6083(6)
H13 H 0.5217 0.7507 0.6450
H14 H 0.6481 0.7593 0.6690
C21 C 0.3529(6) 0.9564(3) -0.1892(7)
H15 H 0.2781 0.9517 -0.1925
C22 C 0.4534(5) 0.8297(2) 0.5441(6)
H16 H 0.4145 0.8307 0.6186
H17 H 0.4231 0.8022 0.4905
C23 C 0.4028(5) 0.8857(2) 0.2419(6)
C24 C 0.6060(5) 0.9257(2) 0.0189(6)
C25 C 0.4343(5) 0.8787(2) 0.4732(6)
H18 H 0.3569 0.8861 0.4639
H19 H 0.4708 0.9058 0.5235
C26 C 1.2749(5) 0.7507(2) 0.2997(7)
H20 H 1.3385 0.7592 0.2655
C27 C 0.9223(6) 1.1424(2) 0.4335(6)
H21 H 0.9300 1.1768 0.4510
C28 C 0.3825(5) 0.9155(2) 0.0220(6)
H22 H 0.3078 0.9115 0.0235
C29 C 1.1813(5) 0.6950(2) 0.4296(6)
H23 H 1.1813 0.6670 0.4829
C30 C 0.5341(5) 0.9458(2) -0.0837(6)
C31 C 0.5758(5) 0.9717(2) -0.1838(6)
H24 H 0.6504 0.9768 -0.1823
C32 C 1.2730(5) 0.7078(2) 0.3796(6)
H25 H 1.3355 0.6883 0.3977
C33 C 0.7290(5) 0.8565(2) 0.7146(6)
H26 H 0.7521 0.8681 0.8001
H27 H 0.7648 0.8244 0.7028
C34 C 0.6055(6) 0.8483(2) 0.6997(6)
H28 H 0.5853 0.8304 0.7734
H29 H 0.5693 0.8809 0.6958
C35 C 0.3957(6) 0.9809(3) -0.2861(7)
H30 H 0.3491 0.9921 -0.3554
O11 O 0.7903(3) 0.68109(14) 0.5249(4)
C36 C 0.7889(5) 0.7209(2) 0.4647(5)
Sm1C Sm 0.82414(2) 0.615293(10) 0.68542(3)
O11C O 0.7903(3) 0.81891(14) 0.0249(4)
O10 O 1.1221(4) 0.9705(2) 0.0277(6)
loop_
_geom_bond_atom_site_label_1
_geom_bond_atom_site_label_2
_geom_bond_site_symmetry_1
_geom_bond_site_symmetry_2
Sm1 O1 1_555 1_555
O1 N1 1_555 1_555
O2 Sm1 1_555 1_555
O3 Sm1 1_555 1_555
O4 Sm1 1_555 1_555
O5 Sm1 1_555 1_555
O6 Sm1 1_555 1_555
O7 C6 1_555 1_555
O8 Sm1 1_555 1_555
N1 C3 1_555 1_555
O9 C23 1_555 1_555
N2 H1 1_555 1_555
N3 O4 1_555 1_555
N4 O6 1_555 1_555
N5 H2 1_555 1_555
N6 H3 1_555 1_555
C1 C5 1_555 1_555
C2 C4 1_555 1_555
C3 C10 1_555 1_555
N7 C20 1_555 1_555
C4 C15 1_555 1_555
C5 O8 1_555 1_555
C6 N6 1_555 1_555
C7 C1 1_555 1_555
C8 N3 1_555 1_555
C9 C21 1_555 1_555
C10 C2 1_555 1_555
H4 C10 1_555 1_555
C11 C1 1_555 1_555
H5 C11 1_555 1_555
C12 C11 1_555 1_555
H6 C12 1_555 1_555
C13 N2 1_555 1_555
H7 C13 1_555 1_555
H8 C13 1_555 1_555
C14 N4 1_555 1_555
C15 H9 1_555 1_555
C16 H10 1_555 1_555
C17 C7 1_555 1_555
H11 C17 1_555 1_555
C18 O3 1_555 1_555
C19 C7 1_555 1_555
H12 C19 1_555 1_555
C20 C13 1_555 1_555
H13 C20 1_555 1_555
H14 C20 1_555 1_555
C21 H15 1_555 1_555
C22 N7 1_555 1_555
H16 C22 1_555 1_555
H17 C22 1_555 1_555
C23 N5 1_555 1_555
C24 O2 1_555 1_555
C25 N5 1_555 1_555
H18 C25 1_555 1_555
H19 C25 1_555 1_555
C26 C15 1_555 1_555
H20 C26 1_555 1_555
C27 C12 1_555 1_555
H21 C27 1_555 1_555
C28 C9 1_555 1_555
H22 C28 1_555 1_555
C29 C2 1_555 1_555
H23 C29 1_555 1_555
C30 C9 1_555 1_555
C31 C16 1_555 1_555
H24 C31 1_555 1_555
C32 C26 1_555 1_555
H25 C32 1_555 1_555
C33 N6 1_555 1_555
H26 C33 1_555 1_555
H27 C33 1_555 1_555
C34 N7 1_555 1_555
H28 C34 1_555 1_555
H29 C34 1_555 1_555
C35 C16 1_555 1_555
H30 C35 1_555 1_555
O11 C36 1_555 1_555
C36 N2 1_555 1_555
Sm1C O11 1_555 1_555
O11C Sm1 1_555 1_555
N1 C18 1_555 1_555
N3 C5 1_555 1_555
N4 C24 1_555 1_555
C3 C36 1_555 1_555
C4 C18 1_555 1_555
C6 C8 1_555 1_555
C8 C19 1_555 1_555
C14 C23 1_555 1_555
C14 C28 1_555 1_555
C17 C27 1_555 1_555
C21 C35 1_555 1_555
C22 C25 1_555 1_555
C24 C30 1_555 1_555
C29 C32 1_555 1_555
C30 C31 1_555 1_555
C33 C34 1_555 1_555

#END
