
#######################################################################
#
#                 Cambridge Crystallographic Data Centre
#                                CCDC 
#
#######################################################################
#
# If this CIF has been generated from an entry in the Cambridge 
# Structural Database, then it will include bibliographic, chemical, 
# crystal, experimental, refinement or atomic coordinate data resulting 
# from the CCDC's data processing and validation procedures.
#
#######################################################################

data_HIPJIA
_symmetry_cell_setting           monoclinic
_symmetry_space_group_name_H-M   'P 21/c'
_symmetry_Int_Tables_number      14
_space_group_name_Hall           '-P 2ybc'
loop_
_symmetry_equiv_pos_site_id
_symmetry_equiv_pos_as_xyz
1 x,y,z
2 -x,1/2+y,1/2-z
3 -x,-y,-z
4 x,1/2-y,1/2+z
_cell_length_a                   12.3920(13)
_cell_length_b                   26.162(3)
_cell_length_c                   10.5522(12)
_cell_angle_alpha                90
_cell_angle_beta                 96.357(3)
_cell_angle_gamma                90
_cell_volume                     3399.98
loop_
_atom_site_label
_atom_site_type_symbol
_atom_site_fract_x
_atom_site_fract_y
_atom_site_fract_z
Tm1 Tm 0.81364(2) 0.882681(9) 0.68345(2)
C1 C 0.8738(5) 0.9829(2) 0.8375(6)
C2 C 0.8814(5) 1.0547(2) 0.9887(6)
O1 O 0.6313(3) 0.87998(18) 0.7083(4)
O2 O 0.8802(4) 0.96377(16) 0.7295(4)
O3 O 0.9738(3) 0.83894(14) 0.7278(4)
O4 O 0.7934(3) 0.80888(15) 0.8012(4)
N1 N 0.8853(4) 0.78148(18) 0.8383(5)
O5 O 0.8173(4) 0.90385(15) 0.8952(4)
C3 C 1.0764(5) 0.7689(2) 0.8242(6)
O6 O 0.9247(4) 0.90681(17) 0.5180(4)
O7 O 0.7094(3) 0.92725(16) 0.5267(4)
C4 C 0.8826(5) 0.7391(2) 0.9163(6)
O9 O 0.8238(4) 0.9488(2) 1.2704(5)
C5 C 0.5800(6) 0.9722(2) 0.3168(6)
H1 H 0.6546 0.9773 0.3203
N2 N 0.8412(4) 0.95280(18) 0.9306(5)
C6 C 1.0745(5) 0.7257(2) 0.9034(6)
N3 N 0.5603(4) 0.9007(2) 0.6122(5)
C7 C 0.9333(5) 1.0687(2) 0.7769(7)
H2 H 0.9455 1.0563 0.6972
C8 C 0.4239(6) 0.8787(3) 0.9686(7)
H3 H 0.3468 0.8861 0.9572
H4 H 0.4596 0.9061 1.0190
N4 N 0.4647(5) 0.8780(2) 0.8428(6)
H5 H 0.5327 0.8727 0.8382
C9 C 0.8967(5) 1.0362(2) 0.8679(6)
C10 C 0.4230(5) 0.9388(3) 0.4097(7)
C11 C 0.5108(6) 0.9906(3) 0.2143(7)
H6 H 0.5392 1.0083 0.1493
N5 N 0.6885(4) 0.74825(19) 0.9362(5)
H7 H 0.6906 0.7745 0.8874
O10 O 0.2979(4) 0.8862(2) 0.7320(6)
C12 C 0.5866(5) 0.7346(2) 0.9853(6)
H8 H 0.5853 0.6981 1.0013
H9 H 0.5262 0.7428 0.9219
C13 C 0.3812(6) 0.9152(3) 0.5144(8)
H10 H 0.3065 0.9114 0.5136
N6 N 0.5570(4) 0.8185(2) 1.0814(6)
N7 N 0.7568(5) 0.8906(2) 1.1223(5)
H11 H 0.7485 0.8828 1.0426
C14 C 0.9754(5) 0.7123(2) 0.9495(6)
H12 H 0.9737 0.6845 1.0039
C15 C 0.5966(6) 0.8482(3) 1.1965(6)
H13 H 0.5745 0.8310 1.2710
H14 H 0.5628 0.8816 1.1912
C16 C 0.6069(5) 0.9252(2) 0.5188(6)
C17 C 0.9778(5) 0.7988(2) 0.7942(6)
C18 C 0.8320(5) 0.9695(2) 1.0536(6)
C19 C 0.4483(5) 0.8981(2) 0.6165(7)
C20 C 0.8489(5) 1.0202(2) 1.0818(6)
H15 H 0.8390 1.0322 1.1627
C21 C 0.5360(5) 0.9458(2) 0.4146(6)
C22 C 0.8978(6) 1.1069(3) 1.0157(7)
H16 H 0.8846 1.1202 1.0943
C23 C 0.5739(5) 0.7628(2) 1.1054(7)
H17 H 0.6384 0.7578 1.1652
H18 H 0.5124 0.7490 1.1435
C24 C 1.2621(6) 0.7104(3) 0.8798(8)
H19 H 1.3247 0.6909 0.8972
C25 C 1.1714(5) 0.7829(2) 0.7739(7)
H20 H 1.1728 0.8118 0.7230
C26 C 1.2623(6) 0.7537(3) 0.8000(7)
H21 H 1.3254 0.7624 0.7647
C27 C 0.7186(6) 0.8547(3) 1.2136(7)
H22 H 0.7409 0.8668 1.2994
H23 H 0.7525 0.8218 1.2040
C28 C 0.8034(5) 0.9345(3) 1.1573(6)
C29 C 0.3984(6) 0.8854(3) 0.7357(8)
C30 C 0.4001(7) 0.9827(3) 0.2082(8)
H24 H 0.3550 0.9945 0.1380
C31 C 1.1718(6) 0.6975(3) 0.9304(7)
H25 H 1.1729 0.6693 0.9845
C32 C 0.3567(6) 0.9581(3) 0.3029(8)
H26 H 0.2818 0.9538 0.2978
C33 C 0.9510(6) 1.1193(3) 0.8070(8)
H27 H 0.9752 1.1412 0.7466
C34 C 0.9338(6) 1.1382(3) 0.9240(8)
H28 H 0.9466 1.1726 0.9419
C35 C 0.4420(6) 0.8292(3) 1.0413(7)
H29 H 0.4032 0.8305 1.1163
H30 H 0.4117 0.8013 0.9881
O11 O 0.7802(3) 0.68093(15) 1.0284(4)
C36 C 0.7785(5) 0.7208(2) 0.9657(6)
Tm1C Tm 0.81364(2) 0.617319(9) 1.18345(2)
O11C O 0.7802(3) 0.81907(15) 0.5284(4)
O8 O 1.1199(7) 0.9609(6) 0.5612(12)
loop_
_geom_bond_atom_site_label_1
_geom_bond_atom_site_label_2
_geom_bond_site_symmetry_1
_geom_bond_site_symmetry_2
Tm1 O1 1_555 1_555
C1 O2 1_555 1_555
C2 C9 1_555 1_555
O1 N3 1_555 1_555
O2 Tm1 1_555 1_555
O3 Tm1 1_555 1_555
O4 Tm1 1_555 1_555
N1 O4 1_555 1_555
O5 Tm1 1_555 1_555
C3 C6 1_555 1_555
O6 Tm1 1_555 1_555
O7 Tm1 1_555 1_555
C4 N1 1_555 1_555
O9 C28 1_555 1_555
C5 H1 1_555 1_555
N2 C1 1_555 1_555
C6 C14 1_555 1_555
N3 C16 1_555 1_555
C7 H2 1_555 1_555
C8 H3 1_555 1_555
H4 C8 1_555 1_555
N4 C8 1_555 1_555
H5 N4 1_555 1_555
C9 C1 1_555 1_555
C10 C13 1_555 1_555
C11 C5 1_555 1_555
H6 C11 1_555 1_555
N5 H7 1_555 1_555
O10 C29 1_555 1_555
C12 N5 1_555 1_555
H8 C12 1_555 1_555
H9 C12 1_555 1_555
C13 H10 1_555 1_555
N6 C15 1_555 1_555
N7 H11 1_555 1_555
C14 C4 1_555 1_555
H12 C14 1_555 1_555
C15 H13 1_555 1_555
H14 C15 1_555 1_555
C16 O7 1_555 1_555
C17 O3 1_555 1_555
C18 N2 1_555 1_555
C19 N3 1_555 1_555
C20 C2 1_555 1_555
H15 C20 1_555 1_555
C21 C5 1_555 1_555
C22 C2 1_555 1_555
H16 C22 1_555 1_555
C23 C12 1_555 1_555
H17 C23 1_555 1_555
H18 C23 1_555 1_555
C24 H19 1_555 1_555
C25 C3 1_555 1_555
H20 C25 1_555 1_555
C26 C24 1_555 1_555
H21 C26 1_555 1_555
C27 N7 1_555 1_555
H22 C27 1_555 1_555
H23 C27 1_555 1_555
C28 N7 1_555 1_555
C29 N4 1_555 1_555
C30 C11 1_555 1_555
H24 C30 1_555 1_555
C31 C6 1_555 1_555
H25 C31 1_555 1_555
C32 C10 1_555 1_555
H26 C32 1_555 1_555
C33 C7 1_555 1_555
H27 C33 1_555 1_555
C34 C22 1_555 1_555
H28 C34 1_555 1_555
C35 C8 1_555 1_555
H29 C35 1_555 1_555
H30 C35 1_555 1_555
O11 C36 1_555 1_555
C36 C4 1_555 1_555
Tm1C O11 1_555 1_555
O11C Tm1 1_555 1_555
N1 C17 1_555 1_555
O5 N2 1_555 1_555
C3 C17 1_555 1_555
C7 C9 1_555 1_555
C10 C21 1_555 1_555
N5 C36 1_555 1_555
C13 C19 1_555 1_555
N6 C23 1_555 1_555
N6 C35 1_555 1_555
C15 C27 1_555 1_555
C16 C21 1_555 1_555
C18 C20 1_555 1_555
C18 C28 1_555 1_555
C19 C29 1_555 1_555
C24 C31 1_555 1_555
C25 C26 1_555 1_555
C30 C32 1_555 1_555
C33 C34 1_555 1_555

#END
