
#######################################################################
#
#                 Cambridge Crystallographic Data Centre
#                                CCDC 
#
#######################################################################
#
# If this CIF has been generated from an entry in the Cambridge 
# Structural Database, then it will include bibliographic, chemical, 
# crystal, experimental, refinement or atomic coordinate data resulting 
# from the CCDC's data processing and validation procedures.
#
#######################################################################

data_HIPKEX
_symmetry_cell_setting           monoclinic
_symmetry_space_group_name_H-M   'C 2/c'
_symmetry_Int_Tables_number      15
_space_group_name_Hall           '-C 2yn'
loop_
_symmetry_equiv_pos_site_id
_symmetry_equiv_pos_as_xyz
1 x,y,z
2 1/2+x,1/2+y,z
3 -x,y,1/2-z
4 1/2-x,1/2+y,1/2-z
5 -x,-y,-z
6 1/2-x,1/2-y,-z
7 x,-y,1/2+z
8 1/2+x,1/2-y,1/2+z
_cell_length_a                   22.849(7)
_cell_length_b                   11.832(4)
_cell_length_c                   17.514(6)
_cell_angle_alpha                90
_cell_angle_beta                 108.324(5)
_cell_angle_gamma                90
_cell_volume                     4494.81
loop_
_atom_site_label
_atom_site_type_symbol
_atom_site_fract_x
_atom_site_fract_y
_atom_site_fract_z
Co1 Co 0.394646(14) 0.01679(3) 0.010484(19)
O1 O 0.33559(10) -0.1181(2) 0.05082(13)
O2 O 0.43171(11) -0.07906(18) 0.11331(12)
O3 O 0.57451(8) -0.83305(16) 0.40386(11)
O4 O 0.54036(7) -0.86863(14) 0.50428(10)
O5 O 0.37953(11) -0.43543(19) 0.35598(14)
N1 N 0.38485(9) -0.07397(17) -0.09412(12)
N2 N 0.34724(10) -0.2264(2) -0.31995(13)
H1 H 0.3750(11) -0.214(3) -0.3446(17)
N3 N 0.18729(9) -0.39222(17) -0.45947(12)
C1 C 0.34053(12) -0.1516(2) -0.11990(16)
H2 H 0.3180 -0.1711 -0.0859
C2 C 0.32617(13) -0.2042(3) -0.19299(17)
H3 H 0.2951 -0.2584 -0.2071
C3 C 0.35789(11) -0.1768(2) -0.24585(15)
C4 C 0.40520(11) -0.0972(2) -0.21919(16)
H4 H 0.4287 -0.0768 -0.2518
C5 C 0.41667(11) -0.0494(2) -0.14451(15)
H5 H 0.4484 0.0031 -0.1279
C6 C 0.24267(12) -0.4127(2) -0.46709(16)
H6 H 0.2454 -0.4662 -0.5048
C7 C 0.29575(12) -0.3596(2) -0.42265(16)
H7 H 0.3330 -0.3768 -0.4308
C8 C 0.29358(11) -0.2801(2) -0.36534(14)
C9 C 0.23598(12) -0.2547(3) -0.35969(18)
H8 H 0.2317 -0.1992 -0.3242
C10 C 0.18541(12) -0.3117(3) -0.40669(17)
H9 H 0.1472 -0.2934 -0.4016
C11 C 0.38251(13) -0.2157(2) 0.17279(15)
C12 C 0.33979(15) -0.3026(3) 0.15824(18)
H10 H 0.3109 -0.3102 0.1075
C13 C 0.33977(15) -0.3782(3) 0.2185(2)
H11 H 0.3115 -0.4374 0.2086
C14 C 0.38240(14) -0.3642(2) 0.29347(18)
C15 C 0.42458(14) -0.2780(3) 0.30939(17)
H12 H 0.4527 -0.2692 0.3606
C16 C 0.42471(13) -0.2046(2) 0.24841(16)
H13 H 0.4537 -0.1467 0.2584
C17 C 0.50049(11) -0.7052(2) 0.42442(14)
C18 C 0.50047(14) -0.6409(2) 0.35863(17)
H14 H 0.5272 -0.6594 0.3300
C19 C 0.46125(15) -0.5493(3) 0.33471(18)
H15 H 0.4614 -0.5066 0.2902
C20 C 0.42213(13) -0.5225(2) 0.37751(17)
C21 C 0.42250(13) -0.5833(2) 0.44471(16)
H16 H 0.3968 -0.5627 0.4744
C22 C 0.46142(12) -0.6754(2) 0.46759(15)
H17 H 0.4613 -0.7176 0.5124
C23 C 0.38360(15) -0.1329(2) 0.10796(16)
C24 C 0.54047(11) -0.8070(2) 0.44544(14)
Co1B Co 0.605354(14) -0.98321(3) 0.489516(19)
Co1C Co 0.105354(14) -0.48321(3) -0.510484(19)
O3B O 0.42549(8) 0.16695(16) 0.09614(11)
O4B O 0.45964(7) 0.13137(14) -0.00428(10)
N3C N 0.31271(9) 0.10778(17) -0.04053(12)
O6 O 0.2454(14) -0.454(2) -0.1790(17)
O7 O 0.273(2) -0.355(4) -0.056(3)
loop_
_geom_bond_atom_site_label_1
_geom_bond_atom_site_label_2
_geom_bond_site_symmetry_1
_geom_bond_site_symmetry_2
Co1 O1 1_555 1_555
O1 C23 1_555 1_555
O2 Co1 1_555 1_555
O3 C24 1_555 1_555
O4 C24 1_555 1_555
O5 C14 1_555 1_555
N1 Co1 1_555 1_555
N2 H1 1_555 1_555
N3 C6 1_555 1_555
C1 N1 1_555 1_555
H2 C1 1_555 1_555
C2 C1 1_555 1_555
H3 C2 1_555 1_555
C3 N2 1_555 1_555
C4 C3 1_555 1_555
H4 C4 1_555 1_555
C5 N1 1_555 1_555
H5 C5 1_555 1_555
C6 H6 1_555 1_555
C7 C6 1_555 1_555
H7 C7 1_555 1_555
C8 N2 1_555 1_555
C9 C8 1_555 1_555
H8 C9 1_555 1_555
C10 N3 1_555 1_555
H9 C10 1_555 1_555
C11 C12 1_555 1_555
C12 H10 1_555 1_555
C13 C12 1_555 1_555
H11 C13 1_555 1_555
C14 C13 1_555 1_555
C15 C14 1_555 1_555
H12 C15 1_555 1_555
C16 C11 1_555 1_555
H13 C16 1_555 1_555
C17 C18 1_555 1_555
C18 H14 1_555 1_555
C19 C18 1_555 1_555
H15 C19 1_555 1_555
C20 O5 1_555 1_555
C21 C20 1_555 1_555
H16 C21 1_555 1_555
C22 C17 1_555 1_555
H17 C22 1_555 1_555
C23 O2 1_555 1_555
C24 C17 1_555 1_555
Co1B O3 1_555 1_555
Co1C N3 1_555 1_555
O3B Co1 1_555 1_555
O4B Co1 1_555 1_555
N3C Co1 1_555 1_555
O4 Co1B 1_555 1_555
C2 C3 1_555 1_555
C4 C5 1_555 1_555
C7 C8 1_555 1_555
C9 C10 1_555 1_555
C11 C23 1_555 1_555
C15 C16 1_555 1_555
C19 C20 1_555 1_555
C21 C22 1_555 1_555

#END
