
#######################################################################
#
#                 Cambridge Crystallographic Data Centre
#                                CCDC 
#
#######################################################################
#
# If this CIF has been generated from an entry in the Cambridge 
# Structural Database, then it will include bibliographic, chemical, 
# crystal, experimental, refinement or atomic coordinate data resulting 
# from the CCDC's data processing and validation procedures.
#
#######################################################################

data_HIPMEA
_symmetry_cell_setting           triclinic
_symmetry_space_group_name_H-M   'P -1'
_symmetry_Int_Tables_number      2
_space_group_name_Hall           '-P 1'
loop_
_symmetry_equiv_pos_site_id
_symmetry_equiv_pos_as_xyz
1 x,y,z
2 -x,-y,-z
_cell_length_a                   5.9136(8)
_cell_length_b                   10.7764(15)
_cell_length_c                   13.7661(19)
_cell_angle_alpha                102.221(3)
_cell_angle_beta                 94.215(3)
_cell_angle_gamma                101.383(3)
_cell_volume                     834.425
loop_
_atom_site_label
_atom_site_type_symbol
_atom_site_fract_x
_atom_site_fract_y
_atom_site_fract_z
Er1 Er 0.39540(6) 0.25454(3) 0.51703(2)
O1 O 0.0875(8) 0.1062(4) 0.3934(3)
O2 O 0.4499(8) 0.1132(4) 0.3681(3)
O3 O -0.4528(8) -0.5441(4) -0.3669(3)
O4 O -0.2449(8) -0.3920(4) -0.4322(3)
O5 O 0.7128(8) 0.2159(4) 0.5964(3)
O6 O 1.0903(8) 0.2819(5) 0.5988(3)
O7 O 0.3002(8) 0.0622(4) 0.5739(4)
H1 H 0.1627 0.0573 0.5893
H2 H 0.4048 0.0458 0.6119
O8 O 0.7208(8) 0.3618(4) 0.4470(3)
H3 H 0.6725 0.3843 0.3950
H4 H 0.8493 0.3379 0.4440
N1 N -0.1456(12) -0.1276(6) 0.1047(5)
N2 N 0.0796(11) -0.2237(6) -0.1321(4)
N3 N 1.1735(11) 0.4645(6) 0.8990(4)
C1 C 0.2366(13) 0.0759(6) 0.3356(5)
C2 C 0.1599(13) -0.0004(6) 0.2313(5)
C3 C 0.3162(13) -0.0135(7) 0.1612(5)
H5 H 0.4733 0.0237 0.1800
C4 C 0.2422(12) -0.0791(6) 0.0672(5)
H6 H 0.3466 -0.0853 0.0200
C5 C 0.0135(13) -0.1371(7) 0.0403(5)
C6 C -0.0712(13) -0.0587(7) 0.1991(5)
H7 H -0.1794 -0.0501 0.2444
C7 C -0.0735(12) -0.2133(6) -0.0645(5)
C8 C -0.3080(12) -0.2706(6) -0.0877(5)
H8 H -0.4104 -0.2607 -0.0400
C9 C -0.3838(12) -0.3420(7) -0.1829(5)
H9 H -0.5399 -0.3831 -0.1996
C10 C -0.2332(12) -0.3547(6) -0.2552(5)
C11 C -0.0034(13) -0.2904(7) -0.2253(6)
H10 H 0.0995 -0.2940 -0.2732
C12 C -0.3193(11) -0.4353(7) -0.3576(5)
C13 C 0.9100(12) 0.2718(6) 0.6408(5)
C14 C 0.9291(12) 0.3320(6) 0.7515(5)
C15 C 0.7403(12) 0.3293(7) 0.8042(5)
H11 H 0.5942 0.2824 0.7734
C16 C 0.7679(11) 0.3954(7) 0.9014(5)
H12 H 0.6402 0.3950 0.9371
C17 C 0.9819(13) 0.4618(6) 0.9464(5)
C18 C 1.1455(12) 0.4015(7) 0.8016(5)
H13 H 1.2747 0.4045 0.7668
O5A O 1.2872(8) 0.7841(4) 1.4036(3)
O6A O 0.9097(8) 0.7181(5) 1.4012(3)
N3A N 0.8265(11) 0.5355(6) 1.1010(4)
C13A C 1.0900(12) 0.7282(6) 1.3592(5)
C14A C 1.0709(12) 0.6680(6) 1.2485(5)
C15A C 1.2597(12) 0.6707(7) 1.1958(5)
H11A H 1.4058 0.7176 1.2266
C16A C 1.2321(11) 0.6046(7) 1.0986(5)
H12A H 1.3598 0.6050 1.0629
C17A C 1.0181(13) 0.5382(6) 1.0536(5)
C18A C 0.8545(12) 0.5985(7) 1.1984(5)
H13A H 0.7253 0.5955 1.2332
Er1A Er -0.39540(6) -0.25454(3) -0.51703(2)
O1A O -0.0875(8) -0.1062(4) -0.3934(3)
O2A O -0.4499(8) -0.1132(4) -0.3681(3)
O3A O 0.4528(8) 0.5441(4) 0.3669(3)
O4A O 0.2449(8) 0.3920(4) 0.4322(3)
O7A O -0.3002(8) -0.0622(4) -0.5739(4)
H1A H -0.1627 -0.0573 -0.5893
H2A H -0.4048 -0.0458 -0.6119
O8A O -0.7208(8) -0.3618(4) -0.4470(3)
H3A H -0.6725 -0.3843 -0.3950
H4A H -0.8493 -0.3379 -0.4440
N1A N 0.1456(12) 0.1276(6) -0.1047(5)
N2A N -0.0796(11) 0.2237(6) 0.1321(4)
C1A C -0.2366(13) -0.0759(6) -0.3356(5)
C2A C -0.1599(13) 0.0004(6) -0.2313(5)
C3A C -0.3162(13) 0.0135(7) -0.1612(5)
H5A H -0.4733 -0.0237 -0.1800
C4A C -0.2422(12) 0.0791(6) -0.0672(5)
H6A H -0.3466 0.0853 -0.0200
C5A C -0.0135(13) 0.1371(7) -0.0403(5)
C6A C 0.0712(13) 0.0587(7) -0.1991(5)
H7A H 0.1794 0.0501 -0.2444
C7A C 0.0735(12) 0.2133(6) 0.0645(5)
C8A C 0.3080(12) 0.2706(6) 0.0877(5)
H8A H 0.4104 0.2607 0.0400
C9A C 0.3838(12) 0.3420(7) 0.1829(5)
H9A H 0.5399 0.3831 0.1996
C10A C 0.2332(12) 0.3547(6) 0.2552(5)
C11A C 0.0034(13) 0.2904(7) 0.2253(6)
H10A H -0.0995 0.2940 0.2732
C12A C 0.3193(11) 0.4353(7) 0.3576(5)
Er1_2 Er -0.60460(6) -0.74546(3) -0.48297(2)
Er1_3 Er 1.39540(6) 0.25454(3) 0.51703(2)
Er1A_2 Er 0.60460(6) 0.74546(3) 0.48297(2)
Er1A_3 Er 0.60460(6) 0.74546(3) 1.48297(2)
Er1A_4 Er 1.60460(6) 0.74546(3) 1.48297(2)
O3_2 O 0.5472(8) 0.4559(4) 0.6331(3)
O3A_2 O -0.5472(8) -0.4559(4) -0.6331(3)
O5A_2 O -0.7128(8) -0.2159(4) -0.5964(3)
O6_2 O 0.0903(8) 0.2819(5) 0.5988(3)
O6A_2 O -0.0903(8) -0.2819(5) -0.5988(3)
loop_
_geom_bond_atom_site_label_1
_geom_bond_atom_site_label_2
_geom_bond_site_symmetry_1
_geom_bond_site_symmetry_2
Er1 O1 1_555 1_555
O1 C1 1_555 1_555
O2 Er1 1_555 1_555
O3 C12 1_555 1_555
O4 C12 1_555 1_555
O5 Er1 1_555 1_555
O6 C13 1_555 1_555
O7 Er1 1_555 1_555
H1 O7 1_555 1_555
H2 O7 1_555 1_555
O8 Er1 1_555 1_555
H3 O8 1_555 1_555
H4 O8 1_555 1_555
N1 C5 1_555 1_555
N2 C7 1_555 1_555
N3 C17 1_555 1_555
C1 O2 1_555 1_555
C2 C1 1_555 1_555
C3 C2 1_555 1_555
H5 C3 1_555 1_555
C4 C3 1_555 1_555
H6 C4 1_555 1_555
C5 C4 1_555 1_555
C6 N1 1_555 1_555
H7 C6 1_555 1_555
C7 C5 1_555 1_555
C8 C7 1_555 1_555
H8 C8 1_555 1_555
C9 C8 1_555 1_555
H9 C9 1_555 1_555
C10 C9 1_555 1_555
C11 N2 1_555 1_555
H10 C11 1_555 1_555
C12 C10 1_555 1_555
C13 O5 1_555 1_555
C14 C13 1_555 1_555
C15 C14 1_555 1_555
H11 C15 1_555 1_555
C16 C15 1_555 1_555
H12 C16 1_555 1_555
C17 C16 1_555 1_555
C18 N3 1_555 1_555
H13 C18 1_555 1_555
O5A C13A 1_555 1_555
O6A C13A 1_555 1_555
N3A C17A 1_555 1_555
C13A C14A 1_555 1_555
C14A C15A 1_555 1_555
C15A H11A 1_555 1_555
C16A C15A 1_555 1_555
H12A C16A 1_555 1_555
C17A C17 1_555 1_555
C18A N3A 1_555 1_555
H13A C18A 1_555 1_555
Er1A O4 1_555 1_555
O1A Er1A 1_555 1_555
O2A Er1A 1_555 1_555
O3A C12A 1_555 1_555
O4A Er1 1_555 1_555
O7A Er1A 1_555 1_555
H1A O7A 1_555 1_555
H2A O7A 1_555 1_555
O8A Er1A 1_555 1_555
H3A O8A 1_555 1_555
H4A O8A 1_555 1_555
N1A C5A 1_555 1_555
N2A C7A 1_555 1_555
C1A O1A 1_555 1_555
C2A C1A 1_555 1_555
C3A C2A 1_555 1_555
H5A C3A 1_555 1_555
C4A C3A 1_555 1_555
H6A C4A 1_555 1_555
C5A C4A 1_555 1_555
C6A N1A 1_555 1_555
H7A C6A 1_555 1_555
C7A C5A 1_555 1_555
C8A C7A 1_555 1_555
H8A C8A 1_555 1_555
C9A C8A 1_555 1_555
H9A C9A 1_555 1_555
C10A C9A 1_555 1_555
C11A N2A 1_555 1_555
H10A C11A 1_555 1_555
C12A O4A 1_555 1_555
Er1_2 O3 1_555 1_555
Er1_3 O6 1_555 1_555
Er1A_2 O3A 1_555 1_555
Er1A_3 O6A 1_555 1_555
Er1A_4 O5A 1_555 1_555
O3_2 Er1 1_555 1_555
O3A_2 Er1A 1_555 1_555
O5A_2 Er1A 1_555 1_555
O6_2 Er1 1_555 1_555
O6A_2 Er1A 1_555 1_555
C2 C6 1_555 1_555
C10 C11 1_555 1_555
C14 C18 1_555 1_555
C14A C18A 1_555 1_555
C16A C17A 1_555 1_555
O2A C1A 1_555 1_555
C2A C6A 1_555 1_555
C10A C11A 1_555 1_555
C10A C12A 1_555 1_555

#END
