
#######################################################################
#
#                 Cambridge Crystallographic Data Centre
#                                CCDC 
#
#######################################################################
#
# If this CIF has been generated from an entry in the Cambridge 
# Structural Database, then it will include bibliographic, chemical, 
# crystal, experimental, refinement or atomic coordinate data resulting 
# from the CCDC's data processing and validation procedures.
#
#######################################################################

data_HIPZIR
_symmetry_cell_setting           monoclinic
_symmetry_space_group_name_H-M   'P 21/n'
_symmetry_Int_Tables_number      14
_space_group_name_Hall           '-P 2yn'
loop_
_symmetry_equiv_pos_site_id
_symmetry_equiv_pos_as_xyz
1 x,y,z
2 1/2-x,1/2+y,1/2-z
3 -x,-y,-z
4 1/2+x,1/2-y,1/2+z
_cell_length_a                   16.8058(19)
_cell_length_b                   17.638(2)
_cell_length_c                   29.047(4)
_cell_angle_alpha                90
_cell_angle_beta                 94.556(4)
_cell_angle_gamma                90
_cell_volume                     8582.93
loop_
_atom_site_label
_atom_site_type_symbol
_atom_site_fract_x
_atom_site_fract_y
_atom_site_fract_z
Cl1 Cl -0.11986(9) -0.07994(10) 0.87701(7)
Cl2 Cl -0.27669(10) 0.06577(11) 0.80461(7)
Cl3 Cl -0.35472(10) -0.11262(12) 0.88015(6)
Cl4 Cl -0.25043(13) -0.14430(15) 0.76367(9)
Cd1 Cd -0.25112(3) -0.06330(3) 0.833786(19)
Cl5 Cl 0.36249(9) -0.21942(10) 0.97172(6)
Cl6 Cl 0.11180(10) -0.20946(12) 0.96336(7)
Cl7 Cl 0.24843(11) -0.09227(12) 1.05972(6)
Cl8 Cl 0.23703(14) -0.31665(15) 1.06295(9)
Cd2 Cd 0.23771(3) -0.20460(3) 1.011173(18)
O1 O 0.3256(3) 0.3640(3) 0.8590(2)
O2 O 0.2542(3) 0.5281(4) 0.8025(3)
O3 O 0.5108(5) 0.5272(3) 0.9015(2)
O4 O 0.3217(8) 0.5004(5) 0.9179(4)
O5 O 0.0613(7) 0.4937(4) 0.8277(3)
O6 O -0.1084(11) 0.4669(11) 0.8808(7)
O7 O 0.0909(16) 0.5458(8) 0.9189(4)
O8 O 0.1534(7) 0.3435(7) 0.8641(7)
Sr1 Sr 0.39457(3) 0.49637(3) 0.84041(2)
Sr2 Sr 0.03376(9) 0.41891(7) 0.89575(4)
C1 C 0.5288(3) 0.3301(3) 0.8325(2)
C2 C 0.5883(3) 0.2101(3) 0.8345(2)
H1 H 0.6443 0.2013 0.8464
C3 C 0.5835(3) 0.2405(3) 0.7845(2)
H2 H 0.6369 0.2442 0.7725
C4 C 0.5152(3) 0.1252(3) 0.7864(2)
C5 C 0.5340(3) 0.3686(3) 0.7533(2)
H3 H 0.5796 0.3678 0.7343
H4 H 0.5318 0.4191 0.7673
C6 C 0.5183(4) 0.1839(4) 0.7104(2)
H5 H 0.5098 0.1314 0.7002
H6 H 0.5656 0.2029 0.6964
C7 C 0.3910(3) 0.3918(3) 0.7313(2)
C8 C 0.4540(3) 0.3096(3) 0.6835(2)
H7 H 0.4956 0.3213 0.6622
C9 C 0.3695(3) 0.3271(3) 0.66154(19)
H8 H 0.3705 0.3552 0.6321
C10 C 0.3804(3) 0.1970(3) 0.6742(2)
C11 C 0.2642(3) 0.4189(3) 0.6863(2)
H9 H 0.2637 0.4594 0.7094
H10 H 0.2684 0.4428 0.6561
C12 C 0.2619(3) 0.2394(3) 0.62432(19)
H11 H 0.2649 0.2709 0.5967
H12 H 0.2603 0.1863 0.6145
C13 C 0.1362(3) 0.3888(3) 0.7168(2)
C14 C 0.1580(3) 0.3341(3) 0.64635(19)
H13 H 0.1635 0.3611 0.6169
C15 C 0.0696(3) 0.3227(3) 0.65575(19)
H14 H 0.0332 0.3495 0.6327
C16 C 0.1299(3) 0.2040(3) 0.64611(18)
C17 C -0.0091(3) 0.3697(3) 0.7219(2)
H15 H -0.0010 0.4128 0.7431
H16 H -0.0499 0.3841 0.6975
C18 C -0.0152(3) 0.2024(3) 0.6550(2)
H17 H -0.0570 0.2319 0.6377
H18 H -0.0118 0.1532 0.6396
C19 C -0.0495(3) 0.3120(4) 0.7926(2)
C20 C -0.0837(3) 0.2433(3) 0.7253(2)
H19 H -0.1310 0.2619 0.7061
C21 C -0.1076(3) 0.1976(3) 0.7673(2)
H20 H -0.1643 0.1820 0.7638
C22 C -0.0203(3) 0.1270(3) 0.7265(2)
C23 C -0.1241(4) 0.2421(4) 0.8499(2)
H21 H -0.1294 0.2927 0.8631
H22 H -0.1775 0.2195 0.8458
C24 C -0.0592(3) 0.0691(3) 0.7983(2)
H23 H -0.0319 0.0254 0.7858
H24 H -0.1155 0.0555 0.7996
C25 C -0.0242(4) 0.2253(4) 0.9154(2)
C26 C -0.0717(3) 0.1156(3) 0.8802(2)
H25 H -0.1258 0.0931 0.8789
C27 C -0.0222(3) 0.0950(3) 0.9259(2)
H26 H -0.0556 0.0727 0.9490
C28 C 0.0333(3) 0.0355(3) 0.8644(2)
C29 C 0.0589(4) 0.1773(4) 0.9840(2)
H27 H 0.0591 0.2313 0.9920
H28 H 0.0339 0.1497 1.0083
C30 C 0.0814(3) -0.0100(4) 0.9414(2)
H29 H 0.0491 -0.0240 0.9668
H30 H 0.0919 -0.0564 0.9243
C31 C 0.2030(4) 0.2009(4) 0.9855(2)
C32 C 0.1645(3) 0.0760(3) 0.9968(2)
H31 H 0.1391 0.0592 1.0246
C33 C 0.2554(3) 0.0834(3) 1.0061(2)
H32 H 0.2728 0.0695 1.0383
C34 C 0.2278(3) -0.0099(3) 0.9501(2)
C35 C 0.3483(4) 0.1983(4) 1.0081(2)
H33 H 0.3717 0.1795 1.0379
H34 H 0.3406 0.2532 1.0110
C36 C 0.3690(3) 0.0031(3) 0.9793(2)
H35 H 0.3696 -0.0486 0.9671
H36 H 0.3858 0.0006 1.0124
C37 C 0.4316(4) 0.2423(4) 0.9486(2)
C38 C 0.4590(3) 0.1203(3) 0.9750(2)
H37 H 0.4851 0.1139 1.0066
C39 C 0.5194(3) 0.1415(3) 0.9404(2)
H38 H 0.5751 0.1371 0.9540
C40 C 0.4493(3) 0.0333(3) 0.9136(2)
C41 C 0.5530(3) 0.2711(3) 0.9093(2)
H39 H 0.5400 0.3226 0.9189
H40 H 0.6072 0.2596 0.9223
C42 C 0.5533(3) 0.0805(3) 0.8649(2)
H41 H 0.6091 0.0799 0.8776
H42 H 0.5422 0.0316 0.8497
N1 N 0.5516(3) 0.2691(3) 0.86028(17)
N2 N 0.5471(3) 0.3146(3) 0.78887(17)
N3 N 0.5434(3) 0.1394(3) 0.83115(17)
N4 N 0.5341(3) 0.1844(3) 0.75969(18)
N5 N 0.4605(3) 0.3565(3) 0.72319(17)
N6 N 0.3341(2) 0.3713(3) 0.69697(16)
N7 N 0.4501(3) 0.2287(3) 0.69342(17)
N8 N 0.3337(3) 0.2518(3) 0.65513(16)
N9 N 0.1895(3) 0.3776(3) 0.68542(16)
N10 N 0.0661(3) 0.3536(3) 0.70114(16)
N11 N 0.1891(2) 0.2569(2) 0.64521(15)
N12 N 0.0599(3) 0.2414(2) 0.65268(17)
N13 N -0.0374(3) 0.3054(3) 0.74700(17)
N14 N -0.0923(3) 0.2493(3) 0.80477(17)
N15 N -0.0385(3) 0.1901(3) 0.70094(16)
N16 N -0.0536(3) 0.1323(3) 0.76751(17)
N17 N -0.0747(3) 0.1963(3) 0.88182(17)
N18 N 0.0110(3) 0.1668(3) 0.94046(17)
N19 N -0.0248(3) 0.0839(3) 0.84471(17)
N20 N 0.0356(3) 0.0416(3) 0.91084(17)
N21 N 0.1399(3) 0.1521(3) 0.98302(18)
N22 N 0.2706(3) 0.1622(3) 0.99747(18)
N23 N 0.1559(3) 0.0205(3) 0.96060(17)
N24 N 0.2881(3) 0.0317(3) 0.97372(17)
N25 N 0.4047(3) 0.1839(3) 0.97250(18)
N26 N 0.4985(3) 0.2190(3) 0.92836(18)
N27 N 0.4263(3) 0.0486(3) 0.95658(17)
N28 N 0.5022(3) 0.0880(3) 0.90305(17)
O9 O 0.5005(2) 0.3896(2) 0.84623(14)
O10 O 0.3797(2) 0.4352(2) 0.76222(14)
O11 O 0.1470(2) 0.4242(2) 0.75313(15)
O12 O -0.0266(3) 0.3630(3) 0.81902(16)
O13 O -0.0102(3) 0.2929(3) 0.92323(16)
O14 O 0.1975(3) 0.2696(3) 0.97807(19)
O15 O 0.4017(3) 0.3053(2) 0.94452(16)
O16 O 0.4808(3) 0.0668(3) 0.77331(17)
O17 O 0.3648(2) 0.1293(2) 0.67316(15)
O18 O 0.1369(2) 0.1354(2) 0.64194(14)
O19 O 0.0182(2) 0.0725(2) 0.71379(14)
O20 O 0.0764(2) -0.0052(2) 0.84311(15)
O21 O 0.2374(2) -0.0632(2) 0.92435(14)
O22 O 0.4283(2) -0.0209(2) 0.89040(17)
Sr1A Sr 0.10543(3) -0.00363(3) 0.65959(2)
O18A O 0.3631(2) 0.6354(2) 0.85806(14)
O19A O 0.4818(2) 0.5725(2) 0.78621(14)
loop_
_geom_bond_atom_site_label_1
_geom_bond_atom_site_label_2
_geom_bond_site_symmetry_1
_geom_bond_site_symmetry_2
O1 Sr1 1_555 1_555
O2 Sr1 1_555 1_555
O3 Sr1 1_555 1_555
O4 Sr1 1_555 1_555
O5 Sr2 1_555 1_555
O6 Sr2 1_555 1_555
O7 Sr2 1_555 1_555
O8 Sr2 1_555 1_555
Sr1 O9 1_555 1_555
Sr2 O12 1_555 1_555
C1 N1 1_555 1_555
C2 H1 1_555 1_555
C3 C2 1_555 1_555
H2 C3 1_555 1_555
C4 N3 1_555 1_555
C5 H3 1_555 1_555
H4 C5 1_555 1_555
C6 H5 1_555 1_555
H6 C6 1_555 1_555
C7 N5 1_555 1_555
C8 H7 1_555 1_555
C9 C8 1_555 1_555
H8 C9 1_555 1_555
C10 N7 1_555 1_555
C11 H9 1_555 1_555
H10 C11 1_555 1_555
C12 H11 1_555 1_555
H12 C12 1_555 1_555
C13 N9 1_555 1_555
C14 H13 1_555 1_555
C15 C14 1_555 1_555
H14 C15 1_555 1_555
C16 N11 1_555 1_555
C17 H15 1_555 1_555
H16 C17 1_555 1_555
C18 H17 1_555 1_555
H18 C18 1_555 1_555
C19 N13 1_555 1_555
C20 H19 1_555 1_555
C21 C20 1_555 1_555
H20 C21 1_555 1_555
C22 N15 1_555 1_555
C23 H21 1_555 1_555
H22 C23 1_555 1_555
C24 H23 1_555 1_555
H24 C24 1_555 1_555
C25 N17 1_555 1_555
C26 H25 1_555 1_555
C27 C26 1_555 1_555
H26 C27 1_555 1_555
C28 N19 1_555 1_555
C29 H27 1_555 1_555
H28 C29 1_555 1_555
C30 H29 1_555 1_555
H30 C30 1_555 1_555
C31 N21 1_555 1_555
C32 H31 1_555 1_555
C33 C32 1_555 1_555
H32 C33 1_555 1_555
C34 N23 1_555 1_555
C35 H33 1_555 1_555
H34 C35 1_555 1_555
C36 H35 1_555 1_555
H36 C36 1_555 1_555
C37 N25 1_555 1_555
C38 H37 1_555 1_555
C39 C38 1_555 1_555
H38 C39 1_555 1_555
C40 N27 1_555 1_555
C41 H39 1_555 1_555
H40 C41 1_555 1_555
C42 H41 1_555 1_555
H42 C42 1_555 1_555
N1 C2 1_555 1_555
N2 C1 1_555 1_555
N3 C2 1_555 1_555
N4 C3 1_555 1_555
N5 C5 1_555 1_555
N6 C7 1_555 1_555
N7 C6 1_555 1_555
N8 C9 1_555 1_555
N9 C11 1_555 1_555
N10 C13 1_555 1_555
N11 C12 1_555 1_555
N12 C15 1_555 1_555
N13 C17 1_555 1_555
N14 C19 1_555 1_555
N15 C18 1_555 1_555
N16 C21 1_555 1_555
N17 C23 1_555 1_555
N18 C25 1_555 1_555
N19 C24 1_555 1_555
N20 C27 1_555 1_555
N21 C29 1_555 1_555
N22 C31 1_555 1_555
N23 C30 1_555 1_555
N24 C33 1_555 1_555
N25 C35 1_555 1_555
N26 C37 1_555 1_555
N27 C36 1_555 1_555
N28 C39 1_555 1_555
O9 C1 1_555 1_555
O10 Sr1 1_555 1_555
O11 C13 1_555 1_555
O12 C19 1_555 1_555
O13 Sr2 1_555 1_555
O14 C31 1_555 1_555
O15 C37 1_555 1_555
O16 C4 1_555 1_555
O17 C10 1_555 1_555
O18 C16 1_555 1_555
O19 C22 1_555 1_555
O20 C28 1_555 1_555
O21 C34 1_555 1_555
O22 C40 1_555 1_555
Cl1 Cd1 1_555 1_555
Cl2 Cd1 1_555 1_555
Cl3 Cd1 1_555 1_555
Cl4 Cd1 1_555 1_555
Cl5 Cd2 1_555 1_555
Cl6 Cd2 1_555 1_555
Cl7 Cd2 1_555 1_555
Cl8 Cd2 1_555 1_555
Sr1A O18 1_555 1_555
O18A Sr1 1_555 1_555
O19A Sr1 1_555 1_555
C3 N2 1_555 1_555
C4 N4 1_555 1_555
C5 N2 1_555 1_555
C6 N4 1_555 1_555
C7 O10 1_555 1_555
C8 N5 1_555 1_555
C8 N7 1_555 1_555
C9 N6 1_555 1_555
C10 N8 1_555 1_555
C11 N6 1_555 1_555
C12 N8 1_555 1_555
C14 N9 1_555 1_555
C14 N11 1_555 1_555
C15 N10 1_555 1_555
C16 N12 1_555 1_555
C17 N10 1_555 1_555
C18 N12 1_555 1_555
C20 N13 1_555 1_555
C20 N15 1_555 1_555
C21 N14 1_555 1_555
C22 N16 1_555 1_555
C23 N14 1_555 1_555
C24 N16 1_555 1_555
C25 O13 1_555 1_555
C26 N17 1_555 1_555
C26 N19 1_555 1_555
C27 N18 1_555 1_555
C28 N20 1_555 1_555
C29 N18 1_555 1_555
C30 N20 1_555 1_555
C32 N21 1_555 1_555
C32 N23 1_555 1_555
C33 N22 1_555 1_555
C34 N24 1_555 1_555
C35 N22 1_555 1_555
C36 N24 1_555 1_555
C38 N25 1_555 1_555
C38 N27 1_555 1_555
C39 N26 1_555 1_555
C40 N28 1_555 1_555
C41 N1 1_555 1_555
C41 N26 1_555 1_555
C42 N3 1_555 1_555
C42 N28 1_555 1_555
O19 Sr1A 1_555 1_555

#END
