
#######################################################################
#
#                 Cambridge Crystallographic Data Centre
#                                CCDC 
#
#######################################################################
#
# If this CIF has been generated from an entry in the Cambridge 
# Structural Database, then it will include bibliographic, chemical, 
# crystal, experimental, refinement or atomic coordinate data resulting 
# from the CCDC's data processing and validation procedures.
#
#######################################################################

data_HIPZAJ
_symmetry_cell_setting           monoclinic
_symmetry_space_group_name_H-M   'P 21/n'
_symmetry_Int_Tables_number      14
_space_group_name_Hall           '-P 2yn'
loop_
_symmetry_equiv_pos_site_id
_symmetry_equiv_pos_as_xyz
1 x,y,z
2 1/2-x,1/2+y,1/2-z
3 -x,-y,-z
4 1/2+x,1/2-y,1/2+z
_cell_length_a                   16.7744(15)
_cell_length_b                   17.5872(16)
_cell_length_c                   28.665(3)
_cell_angle_alpha                90
_cell_angle_beta                 94.248(3)
_cell_angle_gamma                90
_cell_volume                     8433.36
loop_
_atom_site_label
_atom_site_type_symbol
_atom_site_fract_x
_atom_site_fract_y
_atom_site_fract_z
Cl1 Cl 0.35716(6) 0.71631(6) 0.45796(3)
Cl2 Cl 0.10539(6) 0.69669(7) 0.45039(4)
Cl3 Cl 0.24714(7) 0.60033(7) 0.55351(4)
Cl4 Cl 0.22315(9) 0.82534(8) 0.54296(5)
Cd1 Cd 0.231912(17) 0.705429(18) 0.498405(10)
Cl5 Cl -0.12172(6) 0.55756(6) 0.37415(4)
Cl6 Cl -0.36012(6) 0.58809(6) 0.37446(3)
Cl7 Cl -0.27808(6) 0.40739(7) 0.30479(4)
Cl8 Cl -0.24671(10) 0.61602(10) 0.25764(7)
Cd2 Cd -0.251851(17) 0.539022(18) 0.330031(12)
O1 O 0.24901(16) -0.05731(15) 0.31514(10)
O2 O 0.4158(2) -0.03423(15) 0.36461(9)
O3 O 0.32308(18) -0.13545(17) 0.24353(10)
Mg1 Mg 0.36818(7) -0.08029(6) 0.30331(4)
C1 C 0.39051(19) 0.06960(17) 0.24457(11)
C2 C 0.37487(19) 0.13581(18) 0.17434(11)
H1 H 0.3774 0.1100 0.1438
C3 C 0.4585(2) 0.15183(19) 0.19796(12)
H2 H 0.5011 0.1351 0.1781
C4 C 0.3896(2) 0.26591(19) 0.18552(11)
C5 C 0.5299(2) 0.09813(18) 0.27265(12)
H3 H 0.5247 0.0504 0.2898
H4 H 0.5770 0.0937 0.2546
C6 C 0.5308(2) 0.2762(2) 0.21805(13)
H5 H 0.5768 0.2516 0.2052
H6 H 0.5258 0.3273 0.2046
C7 C 0.5304(2) 0.1500(2) 0.35257(13)
C8 C 0.5876(2) 0.22732(19) 0.29695(12)
H7 H 0.6406 0.2149 0.2858
C9 C 0.5954(2) 0.26629(19) 0.34593(12)
H8 H 0.6519 0.2774 0.3562
C10 C 0.5253(2) 0.3462(2) 0.29211(13)
C11 C 0.5661(2) 0.2168(2) 0.42601(13)
H9 H 0.6202 0.2328 0.4370
H10 H 0.5572 0.1661 0.4388
C12 C 0.5566(2) 0.39887(19) 0.37077(14)
H11 H 0.6121 0.4017 0.3840
H12 H 0.5448 0.4461 0.3534
C13 C 0.4450(3) 0.2469(2) 0.46636(14)
C14 C 0.5256(2) 0.34907(19) 0.44992(13)
H13 H 0.5810 0.3587 0.4628
C15 C 0.4628(2) 0.37490(19) 0.48400(13)
H14 H 0.4881 0.3884 0.5152
C16 C 0.4482(2) 0.44783(19) 0.41560(14)
C17 C 0.3534(3) 0.2990(2) 0.52087(15)
H15 H 0.3743 0.3230 0.5501
H16 H 0.3469 0.2446 0.5270
C18 C 0.3667(2) 0.4886(2) 0.47956(13)
H17 H 0.3826 0.4979 0.5126
H18 H 0.3664 0.5376 0.4634
C19 C 0.2098(3) 0.2879(2) 0.49564(15)
C20 C 0.2578(2) 0.4111(2) 0.51181(13)
H19 H 0.2741 0.4300 0.5436
C21 C 0.1658(2) 0.4132(2) 0.50126(12)
H20 H 0.1384 0.4319 0.5285
C22 C 0.2272(2) 0.49428(19) 0.44948(12)
C23 C 0.0636(3) 0.3070(2) 0.49249(15)
H21 H 0.0374 0.3358 0.5163
H22 H 0.0657 0.2536 0.5022
C24 C 0.0801(2) 0.49253(19) 0.44230(12)
H23 H 0.0893 0.5373 0.4230
H24 H 0.0482 0.5089 0.4678
C25 C -0.0173(3) 0.2517(2) 0.42590(14)
C26 C -0.0199(2) 0.3835(2) 0.43087(13)
H25 H -0.0531 0.4067 0.4542
C27 C -0.0709(2) 0.35905(19) 0.38713(12)
H26 H -0.1259 0.3797 0.3865
C28 C 0.0299(2) 0.44066(19) 0.36620(13)
C29 C -0.1170(3) 0.2273(2) 0.35931(14)
H27 H -0.1196 0.1771 0.3740
H28 H -0.1716 0.2473 0.3553
C30 C -0.0647(2) 0.39969(19) 0.30244(12)
H29 H -0.1215 0.4111 0.3046
H30 H -0.0401 0.4436 0.2882
C31 C -0.0453(2) 0.1552(2) 0.30163(15)
C32 C -0.1070(2) 0.2669(2) 0.27467(13)
H31 H -0.1646 0.2794 0.2715
C33 C -0.0813(2) 0.21892(19) 0.23263(13)
H32 H -0.1281 0.1999 0.2129
C34 C -0.0203(2) 0.33780(18) 0.23213(12)
C35 C -0.0059(2) 0.09393(19) 0.23007(13)
H33 H 0.0007 0.0504 0.2513
H34 H -0.0457 0.0799 0.2048
C36 C -0.00952(19) 0.26009(19) 0.16179(12)
H35 H -0.0049 0.3094 0.1463
H36 H -0.0506 0.2306 0.1437
C37 C 0.1387(2) 0.07219(18) 0.22616(12)
C38 C 0.07479(19) 0.13938(18) 0.16397(11)
H37 H 0.0387 0.1128 0.1404
C39 C 0.16295(19) 0.12779(17) 0.15513(11)
H38 H 0.1697 0.1029 0.1247
C40 C 0.1360(2) 0.25624(19) 0.15833(11)
C41 C 0.26880(19) 0.04072(18) 0.19502(12)
H39 H 0.2674 -0.0018 0.2171
H40 H 0.2749 0.0195 0.1639
C42 C 0.27004(19) 0.22319(18) 0.13743(11)
H41 H 0.2749 0.1925 0.1092
H42 H 0.2689 0.2768 0.1281
N1 N 0.33732(16) 0.08808(14) 0.20832(9)
N2 N 0.45949(16) 0.10819(15) 0.24050(10)
N3 N 0.33957(16) 0.21013(14) 0.16951(9)
N4 N 0.45877(17) 0.23290(15) 0.20381(10)
N5 N 0.54256(17) 0.15969(15) 0.30596(10)
N6 N 0.56089(19) 0.21213(15) 0.37617(10)
N7 N 0.54607(18) 0.28263(16) 0.26780(11)
N8 N 0.54905(17) 0.33529(15) 0.33838(10)
N9 N 0.50920(19) 0.26903(15) 0.44386(11)
N10 N 0.4112(2) 0.30841(16) 0.48607(11)
N11 N 0.50489(18) 0.39371(16) 0.40824(11)
N12 N 0.42610(18) 0.43994(16) 0.46043(11)
N13 N 0.2756(2) 0.33168(18) 0.50672(12)
N14 N 0.14459(19) 0.33514(17) 0.49009(11)
N15 N 0.28773(17) 0.45873(16) 0.47594(10)
N16 N 0.15583(17) 0.46530(16) 0.46213(10)
N17 N 0.0159(2) 0.31316(17) 0.44813(11)
N18 N -0.0697(2) 0.27690(17) 0.39036(11)
N19 N 0.03444(17) 0.43751(16) 0.41393(10)
N20 N -0.02731(16) 0.38863(15) 0.34939(10)
N21 N -0.0872(2) 0.21830(17) 0.31405(11)
N22 N -0.03609(17) 0.15757(16) 0.25535(10)
N23 N -0.05749(17) 0.33428(16) 0.27270(10)
N24 N -0.03478(17) 0.27246(16) 0.20779(10)
N25 N 0.06922(16) 0.10856(15) 0.21034(10)
N26 N 0.19345(16) 0.08170(15) 0.19433(10)
N27 N 0.06545(16) 0.22080(15) 0.16125(10)
N28 N 0.19554(16) 0.20465(14) 0.15714(10)
O4 O 0.37733(14) 0.02548(12) 0.27633(8)
O5 O 0.49933(18) 0.09608(14) 0.36983(9)
O6 O 0.4197(2) 0.18116(15) 0.46810(12)
O7 O 0.2073(2) 0.21901(16) 0.49155(12)
O8 O -0.0034(2) 0.18528(15) 0.43562(11)
O9 O -0.02112(19) 0.10468(16) 0.32870(10)
O10 O 0.14789(15) 0.03702(14) 0.26328(9)
O11 O 0.37626(15) 0.33421(13) 0.18323(9)
O12 O 0.49198(16) 0.40238(14) 0.27530(10)
O13 O 0.42272(17) 0.49499(15) 0.38776(10)
O14 O 0.23483(15) 0.54392(14) 0.42064(9)
O15 O 0.06871(15) 0.48181(14) 0.34255(9)
O16 O 0.02030(15) 0.39141(13) 0.21974(9)
O17 O 0.14542(14) 0.32603(12) 0.15600(8)
Mg1A Mg 0.13182(7) 0.41971(6) 0.19669(4)
O16A O 0.47970(15) -0.10859(13) 0.28026(9)
O17A O 0.35458(14) -0.17397(12) 0.34400(8)
loop_
_geom_bond_atom_site_label_1
_geom_bond_atom_site_label_2
_geom_bond_site_symmetry_1
_geom_bond_site_symmetry_2
O1 Mg1 1_555 1_555
O2 Mg1 1_555 1_555
O3 Mg1 1_555 1_555
Mg1 O4 1_555 1_555
C1 N1 1_555 1_555
C2 H1 1_555 1_555
C3 C2 1_555 1_555
H2 C3 1_555 1_555
C4 N3 1_555 1_555
C5 H3 1_555 1_555
H4 C5 1_555 1_555
C6 H5 1_555 1_555
H6 C6 1_555 1_555
C7 N5 1_555 1_555
C8 H7 1_555 1_555
C9 C8 1_555 1_555
H8 C9 1_555 1_555
C10 N7 1_555 1_555
C11 H9 1_555 1_555
H10 C11 1_555 1_555
C12 H11 1_555 1_555
H12 C12 1_555 1_555
C13 N9 1_555 1_555
C14 H13 1_555 1_555
C15 C14 1_555 1_555
H14 C15 1_555 1_555
C16 N11 1_555 1_555
C17 H15 1_555 1_555
H16 C17 1_555 1_555
C18 H17 1_555 1_555
H18 C18 1_555 1_555
C19 N13 1_555 1_555
C20 H19 1_555 1_555
C21 C20 1_555 1_555
H20 C21 1_555 1_555
C22 N15 1_555 1_555
C23 H21 1_555 1_555
H22 C23 1_555 1_555
C24 H23 1_555 1_555
H24 C24 1_555 1_555
C25 N17 1_555 1_555
C26 H25 1_555 1_555
C27 C26 1_555 1_555
H26 C27 1_555 1_555
C28 N19 1_555 1_555
C29 H27 1_555 1_555
H28 C29 1_555 1_555
C30 H29 1_555 1_555
H30 C30 1_555 1_555
C31 N21 1_555 1_555
C32 H31 1_555 1_555
C33 C32 1_555 1_555
H32 C33 1_555 1_555
C34 N23 1_555 1_555
C35 H33 1_555 1_555
H34 C35 1_555 1_555
C36 H35 1_555 1_555
H36 C36 1_555 1_555
C37 N25 1_555 1_555
C38 H37 1_555 1_555
C39 C38 1_555 1_555
H38 C39 1_555 1_555
C40 N27 1_555 1_555
C41 H39 1_555 1_555
H40 C41 1_555 1_555
C42 H41 1_555 1_555
H42 C42 1_555 1_555
N1 C2 1_555 1_555
N2 C1 1_555 1_555
N3 C2 1_555 1_555
N4 C3 1_555 1_555
N5 C5 1_555 1_555
N6 C7 1_555 1_555
N7 C6 1_555 1_555
N8 C9 1_555 1_555
N9 C11 1_555 1_555
N10 C13 1_555 1_555
N11 C12 1_555 1_555
N12 C15 1_555 1_555
N13 C17 1_555 1_555
N14 C19 1_555 1_555
N15 C18 1_555 1_555
N16 C21 1_555 1_555
N17 C23 1_555 1_555
N18 C25 1_555 1_555
N19 C24 1_555 1_555
N20 C27 1_555 1_555
N21 C29 1_555 1_555
N22 C31 1_555 1_555
N23 C30 1_555 1_555
N24 C33 1_555 1_555
N25 C35 1_555 1_555
N26 C37 1_555 1_555
N27 C36 1_555 1_555
N28 C39 1_555 1_555
O4 C1 1_555 1_555
O5 C7 1_555 1_555
O6 C13 1_555 1_555
O7 C19 1_555 1_555
O8 C25 1_555 1_555
O9 C31 1_555 1_555
O10 C37 1_555 1_555
O11 C4 1_555 1_555
O12 C10 1_555 1_555
O13 C16 1_555 1_555
O14 C22 1_555 1_555
O15 C28 1_555 1_555
O16 C34 1_555 1_555
O17 C40 1_555 1_555
Cl1 Cd1 1_555 1_555
Cl2 Cd1 1_555 1_555
Cl3 Cd1 1_555 1_555
Cl4 Cd1 1_555 1_555
Cl5 Cd2 1_555 1_555
Cl6 Cd2 1_555 1_555
Cl7 Cd2 1_555 1_555
Cl8 Cd2 1_555 1_555
Mg1A O16 1_555 1_555
O16A Mg1 1_555 1_555
O17A Mg1 1_555 1_555
C3 N2 1_555 1_555
C4 N4 1_555 1_555
C5 N2 1_555 1_555
C6 N4 1_555 1_555
C8 N5 1_555 1_555
C8 N7 1_555 1_555
C9 N6 1_555 1_555
C10 N8 1_555 1_555
C11 N6 1_555 1_555
C12 N8 1_555 1_555
C14 N9 1_555 1_555
C14 N11 1_555 1_555
C15 N10 1_555 1_555
C16 N12 1_555 1_555
C17 N10 1_555 1_555
C18 N12 1_555 1_555
C20 N13 1_555 1_555
C20 N15 1_555 1_555
C21 N14 1_555 1_555
C22 N16 1_555 1_555
C23 N14 1_555 1_555
C24 N16 1_555 1_555
C26 N17 1_555 1_555
C26 N19 1_555 1_555
C27 N18 1_555 1_555
C28 N20 1_555 1_555
C29 N18 1_555 1_555
C30 N20 1_555 1_555
C32 N21 1_555 1_555
C32 N23 1_555 1_555
C33 N22 1_555 1_555
C34 N24 1_555 1_555
C35 N22 1_555 1_555
C36 N24 1_555 1_555
C38 N25 1_555 1_555
C38 N27 1_555 1_555
C39 N26 1_555 1_555
C40 N28 1_555 1_555
C41 N1 1_555 1_555
C41 N26 1_555 1_555
C42 N3 1_555 1_555
C42 N28 1_555 1_555
O17 Mg1A 1_555 1_555

#END
