
#######################################################################
#
#                 Cambridge Crystallographic Data Centre
#                                CCDC 
#
#######################################################################
#
# If this CIF has been generated from an entry in the Cambridge 
# Structural Database, then it will include bibliographic, chemical, 
# crystal, experimental, refinement or atomic coordinate data resulting 
# from the CCDC's data processing and validation procedures.
#
#######################################################################

data_HIQGAQ
_symmetry_cell_setting           monoclinic
_symmetry_space_group_name_H-M   'C c'
_symmetry_Int_Tables_number      9
_space_group_name_Hall           'C -2yc'
loop_
_symmetry_equiv_pos_site_id
_symmetry_equiv_pos_as_xyz
1 x,y,z
2 x,-y,1/2+z
3 1/2+x,1/2+y,z
4 1/2+x,1/2-y,1/2+z
_cell_length_a                   10.101(5)
_cell_length_b                   10.631(6)
_cell_length_c                   15.831(7)
_cell_angle_alpha                90
_cell_angle_beta                 96.180(19)
_cell_angle_gamma                90
_cell_volume                     1690.11
loop_
_atom_site_label
_atom_site_type_symbol
_atom_site_fract_x
_atom_site_fract_y
_atom_site_fract_z
Ag1 Ag 0.404494(13) 0.904978(15) 0.914016(11)
C1 C 0.4695(2) 0.61273(18) 0.79933(12)
C2 C 0.3599(2) 0.5415(2) 0.77423(14)
H1 H 0.3126 0.5553 0.7214
C3 C 0.3183(2) 0.4473(2) 0.82799(17)
H2 H 0.2428 0.3998 0.8109
C4 C 0.3888(3) 0.4256(2) 0.9052(2)
H3 H 0.3600 0.3633 0.9403
C5 C 0.5778(2) 0.4698(2) 1.01204(13)
H4 H 0.5502 0.4054 1.0458
C6 C 0.6894(2) 0.5382(2) 1.03999(13)
C7 C 0.7290(3) 0.6356(3) 0.98737(15)
H5 H 0.8041 0.6828 1.0058
C8 C 0.6608(2) 0.6625(2) 0.91078(14)
H6 H 0.6899 0.7274 0.8780
C9 C 0.5449(2) 0.59244(18) 0.87993(14)
C10 C 0.5043(2) 0.49545(19) 0.93312(13)
C11 C 0.2410(2) 0.6798(2) 0.98876(14)
C12 C 0.1527(2) 0.73938(19) 0.85327(13)
C13 C 0.0543(2) 0.6474(2) 0.85442(14)
C14 C 0.1417(2) 0.5872(2) 0.98955(14)
C15 C 0.3439(2) 0.6982(2) 1.06260(15)
H7 H 0.4058 0.7618 1.0491
H8 H 0.3906 0.6206 1.0750
H9 H 0.3016 0.7241 1.1112
C16 C 0.1599(2) 0.8227(2) 0.77814(14)
H10 H 0.2167 0.8931 0.7940
H11 H 0.0723 0.8525 0.7584
H12 H 0.1952 0.7763 0.7337
C17 C -0.0501(2) 0.6309(2) 0.78121(16)
H13 H -0.1176 0.5747 0.7970
H14 H -0.0105 0.5964 0.7338
H15 H -0.0893 0.7110 0.7657
C18 C 0.1354(3) 0.5027(3) 1.06474(16)
H16 H 0.0556 0.4532 1.0569
H17 H 0.1352 0.5527 1.1152
H18 H 0.2115 0.4480 1.0702
N1 N 0.24569(17) 0.75411(17) 0.92050(11)
N2 N 0.05020(18) 0.57168(17) 0.92248(11)
N3 N 0.7676(2) 0.5116(2) 1.11496(13)
H19 H 0.821(3) 0.565(3) 1.136(2)
H20 H 0.730(3) 0.463(3) 1.147(2)
O1 O 0.50658(17) 0.84893(15) 0.77532(10)
O2 O 0.41660(17) 0.72625(17) 0.65422(10)
O3 O 0.64820(15) 0.70373(17) 0.70974(10)
S1 S 0.51364(5) 0.73176(5) 0.72854(3)
Ag1B Ag -0.095506(13) 0.404978(15) 0.914016(11)
N2B N 0.55020(18) 1.07168(17) 0.92248(11)
loop_
_geom_bond_atom_site_label_1
_geom_bond_atom_site_label_2
_geom_bond_site_symmetry_1
_geom_bond_site_symmetry_2
Ag1 N1 1_555 1_555
C1 C2 1_555 1_555
C2 H1 1_555 1_555
C3 C2 1_555 1_555
H2 C3 1_555 1_555
C4 C3 1_555 1_555
H3 C4 1_555 1_555
C5 H4 1_555 1_555
C6 C5 1_555 1_555
C7 C6 1_555 1_555
H5 C7 1_555 1_555
C8 C7 1_555 1_555
H6 C8 1_555 1_555
C9 C1 1_555 1_555
C10 C4 1_555 1_555
C11 C14 1_555 1_555
C12 C13 1_555 1_555
C13 C17 1_555 1_555
C14 C18 1_555 1_555
C15 C11 1_555 1_555
H7 C15 1_555 1_555
H8 C15 1_555 1_555
H9 C15 1_555 1_555
C16 C12 1_555 1_555
H10 C16 1_555 1_555
H11 C16 1_555 1_555
H12 C16 1_555 1_555
C17 H13 1_555 1_555
H14 C17 1_555 1_555
H15 C17 1_555 1_555
C18 H16 1_555 1_555
H17 C18 1_555 1_555
H18 C18 1_555 1_555
N1 C11 1_555 1_555
N2 C13 1_555 1_555
N3 C6 1_555 1_555
H19 N3 1_555 1_555
H20 N3 1_555 1_555
O1 Ag1 1_555 1_555
O2 S1 1_555 1_555
O3 S1 1_555 1_555
S1 C1 1_555 1_555
Ag1B N2 1_555 1_555
N2B Ag1 1_555 1_555
C5 C10 1_555 1_555
C8 C9 1_555 1_555
C9 C10 1_555 1_555
C12 N1 1_555 1_555
C14 N2 1_555 1_555
O1 S1 1_555 1_555

#END
