
#######################################################################
#
#                 Cambridge Crystallographic Data Centre
#                                CCDC 
#
#######################################################################
#
# If this CIF has been generated from an entry in the Cambridge 
# Structural Database, then it will include bibliographic, chemical, 
# crystal, experimental, refinement or atomic coordinate data resulting 
# from the CCDC's data processing and validation procedures.
#
#######################################################################

data_HIQGUK
_symmetry_cell_setting           monoclinic
_symmetry_space_group_name_H-M   'P 21/c'
_symmetry_Int_Tables_number      14
_space_group_name_Hall           '-P 2ybc'
loop_
_symmetry_equiv_pos_site_id
_symmetry_equiv_pos_as_xyz
1 x,y,z
2 -x,1/2+y,1/2-z
3 -x,-y,-z
4 x,1/2-y,1/2+z
_cell_length_a                   10.6144(12)
_cell_length_b                   11.2212(13)
_cell_length_c                   11.7323(14)
_cell_angle_alpha                90
_cell_angle_beta                 105.160(2)
_cell_angle_gamma                90
_cell_volume                     1348.76
loop_
_atom_site_label
_atom_site_type_symbol
_atom_site_fract_x
_atom_site_fract_y
_atom_site_fract_z
Cu1 Cu 0.36112(3) 0.75795(3) 0.17031(3)
S1 S 0.57494(8) 0.71391(8) 0.07534(6)
O1 O 0.3209(2) 0.59558(17) 0.20010(15)
O2 O 0.0453(2) 0.1542(2) -0.0731(2)
O3 O -0.0014(3) 0.2839(2) -0.2116(2)
N1 N 0.2374(2) 0.76051(18) 0.01592(19)
N2 N 0.3757(2) 0.9355(2) 0.1417(2)
N3 N 0.0476(3) 0.2569(2) -0.1091(3)
N4 N 0.4606(3) 0.7272(2) -0.1655(2)
C1 C 0.1869(2) 0.5502(2) 0.0052(2)
C2 C 0.2510(2) 0.5216(2) 0.1262(2)
C3 C 0.2321(3) 0.4050(3) 0.1644(2)
H1 H 0.2665 0.3859 0.2436
C4 C 0.1658(3) 0.3198(3) 0.0900(3)
H2 H 0.1558 0.2437 0.1179
C5 C 0.1131(2) 0.3482(2) -0.0283(2)
C6 C 0.1200(2) 0.4613(2) -0.0692(2)
H3 H 0.0795 0.4792 -0.1477
C7 C 0.1822(2) 0.6689(2) -0.0415(2)
H4 H 0.1354 0.6803 -0.1196
C8 C 0.2156(3) 0.8792(2) -0.0400(2)
H5 H 0.1386 0.9158 -0.0251
H6 H 0.2024 0.8720 -0.1247
C9 C 0.3341(3) 0.9543(3) 0.0121(2)
H7 H 0.4043 0.9323 -0.0226
H8 H 0.3138 1.0378 -0.0050
C10 C 0.2983(4) 1.0049(3) 0.2052(3)
H9 H 0.3056 1.0882 0.1894
H10 H 0.3302 0.9907 0.2885
H11 H 0.2084 0.9811 0.1793
C11 C 0.5081(3) 0.7204(2) -0.0658(2)
H12 H 0.4577(16) 0.964(3) 0.171(3)
Cu1C Cu 0.36112(3) 0.74205(3) -0.32969(3)
N4C N 0.4606(3) 0.7728(2) 0.3345(2)
loop_
_geom_bond_atom_site_label_1
_geom_bond_atom_site_label_2
_geom_bond_site_symmetry_1
_geom_bond_site_symmetry_2
Cu1 S1 1_555 1_555
S1 C11 1_555 1_555
O1 Cu1 1_555 1_555
O2 N3 1_555 1_555
O3 N3 1_555 1_555
N1 Cu1 1_555 1_555
N2 Cu1 1_555 1_555
N3 C5 1_555 1_555
N4 C11 1_555 1_555
C1 C2 1_555 1_555
C2 O1 1_555 1_555
C3 C2 1_555 1_555
H1 C3 1_555 1_555
C4 C3 1_555 1_555
H2 C4 1_555 1_555
C5 C4 1_555 1_555
C6 C1 1_555 1_555
H3 C6 1_555 1_555
C7 N1 1_555 1_555
H4 C7 1_555 1_555
C8 N1 1_555 1_555
H5 C8 1_555 1_555
H6 C8 1_555 1_555
C9 N2 1_555 1_555
H7 C9 1_555 1_555
H8 C9 1_555 1_555
C10 N2 1_555 1_555
H9 C10 1_555 1_555
H10 C10 1_555 1_555
H11 C10 1_555 1_555
H12 N2 1_555 1_555
Cu1C N4 1_555 1_555
N4C Cu1 1_555 1_555
C1 C7 1_555 1_555
C5 C6 1_555 1_555
C8 C9 1_555 1_555

#END
