
#######################################################################
#
#                 Cambridge Crystallographic Data Centre
#                                CCDC 
#
#######################################################################
#
# If this CIF has been generated from an entry in the Cambridge 
# Structural Database, then it will include bibliographic, chemical, 
# crystal, experimental, refinement or atomic coordinate data resulting 
# from the CCDC's data processing and validation procedures.
#
#######################################################################

data_HIQNEC
_symmetry_cell_setting           monoclinic
_symmetry_space_group_name_H-M   'C 2/c'
_symmetry_Int_Tables_number      15
_space_group_name_Hall           '-C 2yn'
loop_
_symmetry_equiv_pos_site_id
_symmetry_equiv_pos_as_xyz
1 x,y,z
2 -x,y,1/2-z
3 1/2+x,1/2+y,z
4 1/2-x,1/2+y,1/2-z
5 -x,-y,-z
6 x,-y,1/2+z
7 1/2-x,1/2-y,-z
8 1/2+x,1/2-y,1/2+z
_cell_length_a                   22.953(5)
_cell_length_b                   28.260(5)
_cell_length_c                   16.064(3)
_cell_angle_alpha                90
_cell_angle_beta                 125.983(5)
_cell_angle_gamma                90
_cell_volume                     8431.73
loop_
_atom_site_label
_atom_site_type_symbol
_atom_site_fract_x
_atom_site_fract_y
_atom_site_fract_z
Zn1 Zn 0.60286(3) 0.14530(3) 0.73933(5)
Zn2 Zn 0.88182(4) 0.11006(3) 0.45443(5)
C1 C 0.7690(3) 0.1531(2) 0.6301(4)
H1 H 0.7606 0.1207 0.6231
C2 C 0.8362(3) 0.1443(2) 0.5535(4)
C3 C 0.8114(3) 0.1733(2) 0.6041(4)
C4 C 0.6900(3) 0.1595(3) 0.6898(4)
C5 C 0.8260(3) 0.2212(2) 0.6188(4)
H2 H 0.8557 0.2343 0.6032
C6 C 0.7975(3) 0.2503(2) 0.6563(5)
C7 C 0.7527(3) 0.2285(2) 0.6786(5)
H3 H 0.7318 0.2470 0.7024
C8 C 0.7392(3) 0.1810(2) 0.6661(4)
C9 C 0.9241(3) 0.3191(2) 0.6940(5)
C10 C 0.9682(3) 0.3189(2) 0.8013(5)
H4 H 0.9480 0.3192 0.8373
C11 C 0.9567(3) 0.3184(2) 0.6456(5)
H5 H 0.9280 0.3175 0.5741
C12 C 0.8435(3) 0.3242(2) 0.6321(6)
H6 H 0.8320 0.3575 0.6288
H7 H 0.8224 0.3136 0.5624
C13 C 0.9914(3) 0.0116(3) 1.3698(5)
H8 H 0.9959 0.0442 1.3799
C14 C 0.7732(3) 0.0436(2) 1.0198(4)
C15 C 0.9320(3) -0.0068(3) 1.2787(5)
C16 C 0.8267(3) 0.0120(2) 1.1036(5)
H9 H 0.8240 -0.0200 1.0878
C17 C 1.0428(3) -0.0174(3) 1.4440(5)
H10 H 1.0820 -0.0039 1.5040
C18 C 0.9286(4) -0.0559(3) 1.2700(5)
H11 H 0.8894 -0.0704 1.2117
C19 C 0.7167(3) 0.1176(2) 0.9549(5)
H12 H 0.7143 0.1495 0.9672
C20 C 0.6737(4) 0.0556(3) 0.8428(5)
H13 H 0.6412 0.0435 0.7770
C21 C 0.9829(3) -0.0824(3) 1.3475(5)
H14 H 0.9804 -0.1151 1.3389
C22 C 0.7675(3) 0.0905(2) 1.0340(5)
H15 H 0.7990 0.1039 1.0988
C23 C 0.7241(3) 0.0262(3) 0.9189(5)
H16 H 0.7261 -0.0054 0.9043
C24 C 0.8779(3) 0.0247(3) 1.1988(5)
H17 H 0.8795 0.0564 1.2161
N1 N 1.0399(2) -0.0646(2) 1.4351(4)
N2 N 0.6696(3) 0.1009(2) 0.8600(4)
N3 N 0.8111(3) 0.29863(19) 0.6716(5)
H18 H 0.7996 0.3137 0.7064
O1 O 0.8785(2) 0.16332(17) 0.5349(4)
O2 O 0.8145(2) 0.10339(16) 0.5258(4)
O3 O 0.6600(2) 0.18773(18) 0.7150(4)
O4 O 0.6807(3) 0.1165(2) 0.6841(4)
O5 O 0.4774(2) 0.10648(16) -0.1420(3)
O6 O 0.5476(3) 0.16732(18) -0.0591(4)
O7 O 0.5829(2) 0.19506(16) 0.8115(4)
H19 H 0.6235 0.2065 0.8594
H20 H 0.5608 0.1887 0.8378
O8 O 0.8153(2) 0.0638(2) 0.3385(4)
O9 O 0.7788(2) 0.1371(2) 0.2946(4)
C25 C 0.5919(3) 0.0903(2) 0.0127(4)
C26 C 0.5355(3) 0.1243(2) -0.0662(4)
C27 C 0.7037(3) 0.0758(3) 0.1760(4)
C28 C 0.6351(3) 0.0109(2) 0.0615(5)
C29 C 0.7690(3) 0.0936(3) 0.2758(5)
C30 C 0.6950(3) 0.0273(3) 0.1547(4)
H21 H 0.7293 0.0061 0.2030
C31 C 0.5837(3) 0.0429(2) -0.0092(4)
H22 H 0.5435 0.0321 -0.0718
C32 C 0.6519(3) 0.1077(2) 0.1048(5)
H23 H 0.6573 0.1400 0.1186
N4 N 0.6272(3) -0.0369(2) 0.0407(4)
H24 H 0.6650 -0.0545 0.0715
C33 C 0.4547(4) -0.0542(3) -0.2213(5)
H25 H 0.4232 -0.0541 -0.2026
C34 C 0.5283(4) -0.0547(2) -0.1455(5)
C35 C 0.4279(4) -0.0538(2) -0.3225(5)
H26 H 0.3783 -0.0529 -0.3716
C36 C 0.5566(4) -0.0587(3) -0.0321(6)
H27 H 0.5221 -0.0439 -0.0239
H28 H 0.5596 -0.0919 -0.0148
O10 O 0.9529(3) 0.1389(2) 0.4300(5)
C37 C 0.9476(6) 0.2254(4) 0.4546(10)
H29 H 0.9728 0.2431 0.5177
H30 H 0.9010 0.2166 0.4361
H31 H 0.9422 0.2446 0.4011
N5 N 1.0615(6) 0.1834(4) 0.5141(8)
C38 C 0.9911(7) 0.1803(5) 0.4691(10)
C39 C 1.0963(6) 0.1339(5) 0.5270(11)
H32 H 1.1462 0.1347 0.5846
H33 H 1.0924 0.1262 0.4657
H34 H 1.0717 0.1104 0.5388
C40 C 1.1024(7) 0.2317(6) 0.5403(11)
H35 H 1.0715 0.2545 0.4884
H36 H 1.1448 0.2274 0.5426
H37 H 1.1159 0.2426 0.6060
C1A C 1.2310(3) 0.1531(2) 0.8699(4)
H1A H 1.2394 0.1207 0.8769
C2A C 1.1638(3) 0.1443(2) 0.9465(4)
C3A C 1.1886(3) 0.1733(2) 0.8959(4)
C4A C 1.3100(3) 0.1595(3) 0.8102(4)
C5A C 1.1740(3) 0.2212(2) 0.8812(4)
H2A H 1.1443 0.2343 0.8968
C6A C 1.2025(3) 0.2503(2) 0.8437(5)
C7A C 1.2473(3) 0.2285(2) 0.8214(5)
H3A H 1.2682 0.2470 0.7976
C8A C 1.2608(3) 0.1810(2) 0.8339(4)
C9A C 1.0759(3) 0.3191(2) 0.8060(5)
C10A C 1.0318(3) 0.3189(2) 0.6987(5)
H4A H 1.0520 0.3192 0.6627
C11A C 1.0433(3) 0.3184(2) 0.8544(5)
H5A H 1.0720 0.3175 0.9259
C12A C 1.1565(3) 0.3242(2) 0.8679(6)
H6A H 1.1680 0.3575 0.8712
H7A H 1.1776 0.3136 0.9376
N3A N 1.1889(3) 0.29863(19) 0.8284(5)
H18A H 1.2004 0.3137 0.7936
O1A O 1.1215(2) 0.16332(17) 0.9651(4)
O2A O 1.1855(2) 0.10339(16) 0.9742(4)
O3A O 1.3400(2) 0.18773(18) 0.7850(4)
O4A O 1.3193(3) 0.1165(2) 0.8159(4)
O5A O 0.5226(2) 0.10648(16) -0.3580(3)
O6A O 0.4524(3) 0.16732(18) -0.4409(4)
O8A O 0.1847(2) 0.0638(2) -0.8385(4)
O9A O 0.2212(2) 0.1371(2) -0.7946(4)
C25A C 0.4081(3) 0.0903(2) -0.5127(4)
C26A C 0.4645(3) 0.1243(2) -0.4338(4)
C27A C 0.2963(3) 0.0758(3) -0.6760(4)
C28A C 0.3649(3) 0.0109(2) -0.5615(5)
C29A C 0.2310(3) 0.0936(3) -0.7758(5)
C30A C 0.3050(3) 0.0273(3) -0.6547(4)
H21A H 0.2707 0.0061 -0.7030
C31A C 0.4163(3) 0.0429(2) -0.4908(4)
H22A H 0.4565 0.0321 -0.4282
C32A C 0.3481(3) 0.1077(2) -0.6048(5)
H23A H 0.3427 0.1400 -0.6186
N4A N 0.3728(3) -0.0369(2) -0.5407(4)
H24A H 0.3350 -0.0545 -0.5715
C33A C 0.5453(4) -0.0542(3) -0.2787(5)
H25A H 0.5768 -0.0541 -0.2974
C34A C 0.4717(4) -0.0547(2) -0.3545(5)
C35A C 0.5721(4) -0.0538(2) -0.1775(5)
H26A H 0.6217 -0.0529 -0.1284
C36A C 0.4434(4) -0.0587(3) -0.4679(6)
H27A H 0.4779 -0.0439 -0.4761
H28A H 0.4404 -0.0919 -0.4852
Zn2A Zn 0.11818(4) 0.11006(3) -0.95443(5)
O10A O 0.0471(3) 0.1389(2) -0.9300(5)
C37A C 0.0524(6) 0.2254(4) -0.9546(10)
H29A H 0.0272 0.2431 -1.0177
H30A H 0.0990 0.2166 -0.9361
H31A H 0.0578 0.2446 -0.9011
N5A N -0.0615(6) 0.1834(4) -1.0141(8)
C38A C 0.0089(7) 0.1803(5) -0.9691(10)
C39A C -0.0963(6) 0.1339(5) -1.0270(11)
H32A H -0.1462 0.1347 -1.0846
H33A H -0.0924 0.1262 -0.9657
H34A H -0.0717 0.1104 -1.0388
C40A C -0.1024(7) 0.2317(6) -1.0403(11)
H35A H -0.0715 0.2545 -0.9884
H36A H -0.1448 0.2274 -1.0426
H37A H -0.1159 0.2426 -1.1060
Zn1D Zn 1.39714(3) -0.14530(3) 1.26067(5)
C13D C 1.0086(3) -0.0116(3) 0.6302(5)
H8D H 1.0041 -0.0442 0.6201
C14D C 1.2268(3) -0.0436(2) 0.9802(4)
C15D C 1.0680(3) 0.0068(3) 0.7213(5)
C16D C 1.1733(3) -0.0120(2) 0.8964(5)
H9D H 1.1760 0.0200 0.9122
C17D C 0.9572(3) 0.0174(3) 0.5560(5)
H10D H 0.9180 0.0039 0.4960
C18D C 1.0714(4) 0.0559(3) 0.7300(5)
H11D H 1.1106 0.0704 0.7883
C19D C 1.2833(3) -0.1176(2) 1.0451(5)
H12D H 1.2857 -0.1495 1.0328
C20D C 1.3263(4) -0.0556(3) 1.1572(5)
H13D H 1.3588 -0.0435 1.2230
C21D C 1.0171(3) 0.0824(3) 0.6525(5)
H14D H 1.0196 0.1151 0.6611
C22D C 1.2325(3) -0.0905(2) 0.9660(5)
H15D H 1.2010 -0.1039 0.9012
C23D C 1.2759(3) -0.0262(3) 1.0811(5)
H16D H 1.2739 0.0054 1.0957
C24D C 1.1221(3) -0.0247(3) 0.8012(5)
H17D H 1.1205 -0.0564 0.7839
N1D N 0.9601(2) 0.0646(2) 0.5649(4)
N2D N 1.3304(3) -0.1009(2) 1.1400(4)
O7D O 1.4171(2) -0.19506(16) 1.1885(4)
H19D H 1.3765 -0.2065 1.1406
H20D H 1.4392 -0.1887 1.1622
Zn1_2 Zn 0.60286(3) 0.14530(3) -0.26067(5)
Zn1A Zn 0.39714(3) 0.14530(3) -0.23933(5)
Zn1A_2 Zn 1.39714(3) 0.14530(3) 0.76067(5)
Zn2A_2 Zn 1.11818(4) 0.11006(3) 1.04557(5)
Zn2D Zn 1.11818(4) -0.11006(3) 1.54557(5)
N1E N 0.0399(2) 0.0646(2) -1.0649(4)
O1A_2 O 0.1215(2) 0.16332(17) -1.0349(4)
O2A_2 O 0.1855(2) 0.10339(16) -1.0258(4)
O3D O 1.3400(2) -0.18773(18) 1.2850(4)
O4D O 1.3193(3) -0.1165(2) 1.3159(4)
O5A_2 O 0.5226(2) 0.10648(16) 0.6420(3)
O5E O 1.4774(2) -0.10648(16) 1.3580(3)
loop_
_geom_bond_atom_site_label_1
_geom_bond_atom_site_label_2
_geom_bond_site_symmetry_1
_geom_bond_site_symmetry_2
Zn1 N2 1_555 1_555
Zn2 O1 1_555 1_555
C1 H1 1_555 1_555
C2 C3 1_555 1_555
C3 C1 1_555 1_555
C4 C8 1_555 1_555
C5 C3 1_555 1_555
H2 C5 1_555 1_555
C6 C5 1_555 1_555
C7 C6 1_555 1_555
H3 C7 1_555 1_555
C8 C1 1_555 1_555
C9 C10 1_555 1_555
C10 H4 1_555 1_555
C11 C9 1_555 1_555
H5 C11 1_555 1_555
C12 C9 1_555 1_555
H6 C12 1_555 1_555
H7 C12 1_555 1_555
C13 H8 1_555 1_555
C14 C16 1_555 1_555
C15 C13 1_555 1_555
C16 H9 1_555 1_555
C17 C13 1_555 1_555
H10 C17 1_555 1_555
C18 C15 1_555 1_555
H11 C18 1_555 1_555
C19 H12 1_555 1_555
C20 H13 1_555 1_555
C21 C18 1_555 1_555
H14 C21 1_555 1_555
C22 C14 1_555 1_555
H15 C22 1_555 1_555
C23 C14 1_555 1_555
H16 C23 1_555 1_555
C24 C15 1_555 1_555
H17 C24 1_555 1_555
N1 C17 1_555 1_555
N2 C19 1_555 1_555
N3 C6 1_555 1_555
H18 N3 1_555 1_555
O1 C2 1_555 1_555
O2 Zn2 1_555 1_555
O3 Zn1 1_555 1_555
O4 Zn1 1_555 1_555
O5 C26 1_555 1_555
O6 C26 1_555 1_555
O7 Zn1 1_555 1_555
H19 O7 1_555 1_555
H20 O7 1_555 1_555
O8 Zn2 1_555 1_555
O9 Zn2 1_555 1_555
C25 C26 1_555 1_555
C27 C29 1_555 1_555
C28 C30 1_555 1_555
C29 O8 1_555 1_555
C30 C27 1_555 1_555
H21 C30 1_555 1_555
C31 C25 1_555 1_555
H22 C31 1_555 1_555
C32 C25 1_555 1_555
H23 C32 1_555 1_555
N4 C28 1_555 1_555
H24 N4 1_555 1_555
C33 H25 1_555 1_555
C34 C33 1_555 1_555
C35 C33 1_555 1_555
H26 C35 1_555 1_555
C36 N4 1_555 1_555
H27 C36 1_555 1_555
H28 C36 1_555 1_555
O10 Zn2 1_555 1_555
C37 H29 1_555 1_555
H30 C37 1_555 1_555
H31 C37 1_555 1_555
N5 C38 1_555 1_555
C38 O10 1_555 1_555
C39 N5 1_555 1_555
H32 C39 1_555 1_555
H33 C39 1_555 1_555
H34 C39 1_555 1_555
C40 N5 1_555 1_555
H35 C40 1_555 1_555
H36 C40 1_555 1_555
H37 C40 1_555 1_555
C1A H1A 1_555 1_555
C2A C3A 1_555 1_555
C3A C1A 1_555 1_555
C4A C8A 1_555 1_555
C5A C3A 1_555 1_555
H2A C5A 1_555 1_555
C6A C5A 1_555 1_555
C7A C6A 1_555 1_555
H3A C7A 1_555 1_555
C8A C1A 1_555 1_555
C9A C10A 1_555 1_555
C10A C11 1_555 1_555
H4A C10A 1_555 1_555
C11A C10 1_555 1_555
H5A C11A 1_555 1_555
C12A C9A 1_555 1_555
H6A C12A 1_555 1_555
H7A C12A 1_555 1_555
N3A C6A 1_555 1_555
H18A N3A 1_555 1_555
O1A C2A 1_555 1_555
O2A C2A 1_555 1_555
O3A C4A 1_555 1_555
O4A C4A 1_555 1_555
O5A C26A 1_555 1_555
O6A C26A 1_555 1_555
O8A C29A 1_555 1_555
O9A C29A 1_555 1_555
C25A C26A 1_555 1_555
C27A C29A 1_555 1_555
C28A C30A 1_555 1_555
C30A C27A 1_555 1_555
H21A C30A 1_555 1_555
C31A C25A 1_555 1_555
H22A C31A 1_555 1_555
C32A C25A 1_555 1_555
H23A C32A 1_555 1_555
N4A C28A 1_555 1_555
H24A N4A 1_555 1_555
C33A H25A 1_555 1_555
C34A C35 1_555 1_555
C35A C34 1_555 1_555
H26A C35A 1_555 1_555
C36A N4A 1_555 1_555
H27A C36A 1_555 1_555
H28A C36A 1_555 1_555
Zn2A O8A 1_555 1_555
O10A Zn2A 1_555 1_555
C37A H29A 1_555 1_555
H30A C37A 1_555 1_555
H31A C37A 1_555 1_555
N5A C38A 1_555 1_555
C38A O10A 1_555 1_555
C39A N5A 1_555 1_555
H32A C39A 1_555 1_555
H33A C39A 1_555 1_555
H34A C39A 1_555 1_555
C40A N5A 1_555 1_555
H35A C40A 1_555 1_555
H36A C40A 1_555 1_555
H37A C40A 1_555 1_555
Zn1D N2D 1_555 1_555
C13D H8D 1_555 1_555
C14D C16D 1_555 1_555
C15D C13D 1_555 1_555
C16D H9D 1_555 1_555
C17D C13D 1_555 1_555
H10D C17D 1_555 1_555
C18D C15D 1_555 1_555
H11D C18D 1_555 1_555
C19D H12D 1_555 1_555
C20D H13D 1_555 1_555
C21D C18D 1_555 1_555
H14D C21D 1_555 1_555
C22D C14D 1_555 1_555
H15D C22D 1_555 1_555
C23D C14D 1_555 1_555
H16D C23D 1_555 1_555
C24D C15D 1_555 1_555
H17D C24D 1_555 1_555
N1D Zn2 1_555 1_555
N2D C19D 1_555 1_555
O7D Zn1D 1_555 1_555
H19D O7D 1_555 1_555
H20D O7D 1_555 1_555
Zn1_2 O5A 1_555 1_555
Zn1A O5 1_555 1_555
Zn1A_2 O3A 1_555 1_555
Zn2A_2 O1A 1_555 1_555
Zn2D N1 1_555 1_555
N1E Zn2A 1_555 1_555
O1A_2 Zn2A 1_555 1_555
O2A_2 Zn2A 1_555 1_555
O3D Zn1D 1_555 1_555
O4D Zn1D 1_555 1_555
O5A_2 Zn1 1_555 1_555
O5E Zn1D 1_555 1_555
C2 O2 1_555 1_555
C4 O3 1_555 1_555
C4 O4 1_555 1_555
C7 C8 1_555 1_555
C12 N3 1_555 1_555
C16 C24 1_555 1_555
C19 C22 1_555 1_555
C20 C23 1_555 1_555
C20 N2 1_555 1_555
C21 N1 1_555 1_555
O9 C29 1_555 1_555
C27 C32 1_555 1_555
C28 C31 1_555 1_555
C34 C36 1_555 1_555
C37 C38 1_555 1_555
C7A C8A 1_555 1_555
C9A C11A 1_555 1_555
C12A N3A 1_555 1_555
O2A Zn2A_2 1_555 1_555
O4A Zn1A_2 1_555 1_555
O9A Zn2A 1_555 1_555
C27A C32A 1_555 1_555
C28A C31A 1_555 1_555
C33A C34A 1_555 1_555
C33A C35A 1_555 1_555
C34A C36A 1_555 1_555
C37A C38A 1_555 1_555
C16D C24D 1_555 1_555
C17D N1D 1_555 1_555
C19D C22D 1_555 1_555
C20D C23D 1_555 1_555
C20D N2D 1_555 1_555
C21D N1D 1_555 1_555

#END
