
#######################################################################
#
#                 Cambridge Crystallographic Data Centre
#                                CCDC 
#
#######################################################################
#
# If this CIF has been generated from an entry in the Cambridge 
# Structural Database, then it will include bibliographic, chemical, 
# crystal, experimental, refinement or atomic coordinate data resulting 
# from the CCDC's data processing and validation procedures.
#
#######################################################################

data_HIQRAC
_symmetry_cell_setting           cubic
_symmetry_space_group_name_H-M   'I m 3 m'
_symmetry_Int_Tables_number      229
_space_group_name_Hall           '-I 4 2 3'
loop_
_symmetry_equiv_pos_site_id
_symmetry_equiv_pos_as_xyz
1 x,y,z
2 -x,-y,z
3 -x,-z,-y
4 -x,z,y
5 -x,y,-z
6 1/2-x,1/2-y,1/2+z
7 1/2-x,1/2-z,1/2-y
8 1/2-x,1/2+z,1/2+y
9 1/2-x,1/2+y,1/2-z
10 -y,-x,-z
11 -y,-z,x
12 -y,z,-x
13 -y,x,z
14 1/2-y,1/2-x,1/2-z
15 1/2-y,1/2-z,1/2+x
16 1/2-y,1/2+z,1/2-x
17 1/2-y,1/2+x,1/2+z
18 -z,-x,y
19 -z,-y,-x
20 -z,y,x
21 -z,x,-y
22 1/2-z,1/2-x,1/2+y
23 1/2-z,1/2-y,1/2-x
24 1/2-z,1/2+y,1/2+x
25 1/2-z,1/2+x,1/2-y
26 z,-x,-y
27 z,-y,x
28 z,y,-x
29 z,x,y
30 1/2+z,1/2-x,1/2-y
31 1/2+z,1/2-y,1/2+x
32 1/2+z,1/2+y,1/2-x
33 1/2+z,1/2+x,1/2+y
34 y,-x,z
35 y,-z,-x
36 y,z,x
37 y,x,-z
38 1/2+y,1/2-x,1/2+z
39 1/2+y,1/2-z,1/2-x
40 1/2+y,1/2+z,1/2+x
41 1/2+y,1/2+x,1/2-z
42 x,-y,-z
43 x,-z,y
44 x,z,-y
45 1/2+x,1/2-y,1/2-z
46 1/2+x,1/2-z,1/2+y
47 1/2+x,1/2+z,1/2-y
48 1/2+x,1/2+y,1/2+z
49 -x,-y,-z
50 x,y,-z
51 x,z,y
52 x,-z,-y
53 x,-y,z
54 1/2+x,1/2+y,1/2-z
55 1/2+x,1/2+z,1/2+y
56 1/2+x,1/2-z,1/2-y
57 1/2+x,1/2-y,1/2+z
58 y,x,z
59 y,z,-x
60 y,-z,x
61 y,-x,-z
62 1/2+y,1/2+x,1/2+z
63 1/2+y,1/2+z,1/2-x
64 1/2+y,1/2-z,1/2+x
65 1/2+y,1/2-x,1/2-z
66 z,x,-y
67 z,y,x
68 z,-y,-x
69 z,-x,y
70 1/2+z,1/2+x,1/2-y
71 1/2+z,1/2+y,1/2+x
72 1/2+z,1/2-y,1/2-x
73 1/2+z,1/2-x,1/2+y
74 -z,x,y
75 -z,y,-x
76 -z,-y,x
77 -z,-x,-y
78 1/2-z,1/2+x,1/2+y
79 1/2-z,1/2+y,1/2-x
80 1/2-z,1/2-y,1/2+x
81 1/2-z,1/2-x,1/2-y
82 -y,x,-z
83 -y,z,x
84 -y,-z,-x
85 -y,-x,z
86 1/2-y,1/2+x,1/2-z
87 1/2-y,1/2+z,1/2+x
88 1/2-y,1/2-z,1/2-x
89 1/2-y,1/2-x,1/2+z
90 -x,y,z
91 -x,z,-y
92 -x,-z,y
93 1/2-x,1/2+y,1/2+z
94 1/2-x,1/2+z,1/2-y
95 1/2-x,1/2-z,1/2+y
96 1/2-x,1/2-y,1/2-z
_cell_length_a                   13.46169(38)
_cell_length_b                   13.46169(38)
_cell_length_c                   13.46169(38)
_cell_angle_alpha                90
_cell_angle_beta                 90
_cell_angle_gamma                90
_cell_volume                     2439.49
loop_
_atom_site_label
_atom_site_type_symbol
_atom_site_fract_x
_atom_site_fract_y
_atom_site_fract_z
Cu1 Cu 0.32734(31) 0.50000 0.50000
N1 N 0.38810(56) 0.38810(56) 0.31506(55)
C1 C 0.34775(52) 0.34775(52) 0.23
C2 C 0.36 0.36 0.12422(74)
C3 C 0.281 0.281 0.281
N1QC N 0.11190(56) 0.11190(56) 0.18494(55)
C1QC C 0.15225(52) 0.15225(52) 0.27
C2QC C 0.14 0.14 0.37578(74)
C3QC C 0.219 0.219 0.219
N1F N 0.11190(56) 0.18494(55) 0.11190(56)
C1F C 0.15225(52) 0.27 0.15225(52)
C2F C 0.14 0.37578(74) 0.14
N1BC N 0.18494(55) 0.11190(56) 0.11190(56)
C1BC C 0.27 0.15225(52) 0.15225(52)
C2BC C 0.37578(74) 0.14 0.14
N1NB N 0.31506(55) 0.38810(56) 0.38810(56)
C1NB C 0.23 0.34775(52) 0.34775(52)
C2NB C 0.12422(74) 0.36 0.36
N1IA N 0.38810(56) 0.31506(55) 0.38810(56)
C1IA C 0.34775(52) 0.23 0.34775(52)
C2IA C 0.36 0.12422(74) 0.36
Cu1QC Cu 0.17266(31) 0.00000 0.00000
N1PC N 0.11190(56) 0.18494(55) -0.11190(56)
C1PC C 0.15225(52) 0.27 -0.15225(52)
C2PC C 0.14 0.37578(74) -0.14
C3E C 0.219 0.219 -0.219
N1FB N 0.38810(56) 0.31506(55) -0.38810(56)
C1FB C 0.34775(52) 0.23 -0.34775(52)
C2FB C 0.36 0.12422(74) -0.36
C3AA C 0.281 0.281 -0.281
N1JA N 0.38810(56) 0.38810(56) -0.31506(55)
C1JA C 0.34775(52) 0.34775(52) -0.23
C2JA C 0.36 0.36 -0.12422(74)
N1AA N 0.31506(55) 0.38810(56) -0.38810(56)
C1AA C 0.23 0.34775(52) -0.34775(52)
C2AA C 0.12422(74) 0.36 -0.36
N1U N 0.18494(55) 0.11190(56) -0.11190(56)
C1U C 0.27 0.15225(52) -0.15225(52)
C2U C 0.37578(74) 0.14 -0.14
N1E N 0.11190(56) 0.11190(56) -0.18494(55)
C1E C 0.15225(52) 0.15225(52) -0.27
C2E C 0.14 0.14 -0.37578(74)
Cu1M Cu 0.00000 0.17266(31) 0.00000
Cu1EC Cu 0.50000 0.50000 -0.32734(31)
Cu1J Cu 0.50000 0.50000 0.32734(31)
Cu1CC Cu 0.50000 0.32734(31) -0.50000
Cu1CC_2 Cu 0.50000 0.32734(31) 0.50000
Cu1IC Cu 0.00000 0.00000 0.17266(31)
Cu1N Cu 0.00000 0.00000 -0.17266(31)
Cu1OA Cu 0.32734(31) 0.50000 -0.50000
N1ZB N 0.18494(55) -0.11190(56) 0.11190(56)
N1W N 0.18494(55) -0.11190(56) -0.11190(56)
N1Y N 0.31506(55) 0.61190(56) 0.61190(56)
N1PB N 0.31506(55) 0.61190(56) 0.38810(56)
N1AA_2 N 0.31506(55) 0.38810(56) 0.61190(56)
N1LA N -0.11190(56) 0.18494(55) 0.11190(56)
N1KB N -0.11190(56) 0.18494(55) -0.11190(56)
loop_
_geom_bond_atom_site_label_1
_geom_bond_atom_site_label_2
_geom_bond_site_symmetry_1
_geom_bond_site_symmetry_2
Cu1 N1NB 1_555 1_555
N1 C1 1_555 1_555
C1 C2 1_555 1_555
C3 C1 1_555 1_555
N1QC C1QC 1_555 1_555
C1QC C2QC 1_555 1_555
C3QC C3 1_555 1_555
N1F N1QC 1_555 1_555
C1F C3QC 1_555 1_555
C2F C1F 1_555 1_555
N1BC N1QC 1_555 1_555
C1BC C3QC 1_555 1_555
C2BC C1BC 1_555 1_555
N1NB N1 1_555 1_555
C1NB C3 1_555 1_555
C2NB C1NB 1_555 1_555
N1IA N1 1_555 1_555
C1IA C3 1_555 1_555
C2IA C1IA 1_555 1_555
Cu1QC N1BC 1_555 1_555
N1PC C1PC 1_555 1_555
C1PC C2PC 1_555 1_555
C3E C1PC 1_555 1_555
N1FB C1FB 1_555 1_555
C1FB C2FB 1_555 1_555
C3AA C3E 1_555 1_555
N1JA N1FB 1_555 1_555
C1JA C3AA 1_555 1_555
C2JA C1JA 1_555 1_555
N1AA N1FB 1_555 1_555
C1AA C3AA 1_555 1_555
C2AA C1AA 1_555 1_555
N1U Cu1QC 1_555 1_555
C1U C3E 1_555 1_555
C2U C1U 1_555 1_555
N1E N1PC 1_555 1_555
C1E C3E 1_555 1_555
C2E C1E 1_555 1_555
Cu1M N1F 1_555 1_555
Cu1EC N1JA 1_555 1_555
Cu1J N1 1_555 1_555
Cu1CC N1FB 1_555 1_555
Cu1CC_2 N1IA 1_555 1_555
Cu1IC N1QC 1_555 1_555
Cu1N N1E 1_555 1_555
Cu1OA N1AA 1_555 1_555
N1ZB Cu1QC 1_555 1_555
N1W Cu1QC 1_555 1_555
N1Y Cu1 1_555 1_555
N1PB Cu1 1_555 1_555
N1AA_2 Cu1 1_555 1_555
N1LA Cu1M 1_555 1_555
N1KB Cu1M 1_555 1_555
C1QC C3QC 1_555 1_555
N1F C1F 1_555 1_555
N1F N1BC 1_555 1_555
N1BC C1BC 1_555 1_555
N1NB C1NB 1_555 1_555
N1NB N1IA 1_555 1_555
N1IA C1IA 1_555 1_555
N1PC N1U 1_555 1_555
N1PC Cu1M 1_555 1_555
C1FB C3AA 1_555 1_555
N1JA C1JA 1_555 1_555
N1JA N1AA 1_555 1_555
N1AA C1AA 1_555 1_555
N1U C1U 1_555 1_555
N1U N1E 1_555 1_555
N1E C1E 1_555 1_555

#END
