
#######################################################################
#
#                 Cambridge Crystallographic Data Centre
#                                CCDC 
#
#######################################################################
#
# If this CIF has been generated from an entry in the Cambridge 
# Structural Database, then it will include bibliographic, chemical, 
# crystal, experimental, refinement or atomic coordinate data resulting 
# from the CCDC's data processing and validation procedures.
#
#######################################################################

data_HIRJOJ
_symmetry_cell_setting           triclinic
_symmetry_space_group_name_H-M   'P -1'
_symmetry_Int_Tables_number      2
_space_group_name_Hall           '-P 1'
loop_
_symmetry_equiv_pos_site_id
_symmetry_equiv_pos_as_xyz
1 x,y,z
2 -x,-y,-z
_cell_length_a                   6.9986(14)
_cell_length_b                   9.8531(19)
_cell_length_c                   10.364(2)
_cell_angle_alpha                78.344(2)
_cell_angle_beta                 85.951(2)
_cell_angle_gamma                78.298(2)
_cell_volume                     685.067
loop_
_atom_site_label
_atom_site_type_symbol
_atom_site_fract_x
_atom_site_fract_y
_atom_site_fract_z
Mg1 Mg 0.5000 0.5000 0.0000
Mg2 Mg 0.29211(15) 1.05138(11) 0.04518(10)
P1 P 0.46297(12) 0.73893(8) 0.18199(8)
P2 P 0.15259(12) 0.79033(8) -0.01999(8)
N1 N 0.2646(4) 0.5136(3) 0.5804(3)
H1 H 0.3434 0.4386 0.6159
O1 O 0.5453(3) 0.5982(2) 0.1459(2)
O2 O 0.5203(3) 0.8672(2) 0.0879(2)
O3 O 0.5060(3) 0.7358(2) 0.3246(2)
O4 O 0.2839(3) 0.6694(2) -0.0681(2)
O5 O 0.2009(3) 0.9358(2) -0.0846(2)
O6 O -0.0638(3) 0.7917(2) -0.0316(2)
O7 O 0.1348(3) 0.9202(2) 0.1882(2)
H2 H 0.0189 0.9608 0.1683
O8 O 0.2820(3) 0.3995(2) 0.1171(2)
H3 H 0.1931 0.3857 0.0699
H4 H 0.3412 0.3220 0.1478
O9 O 0.4208(3) 1.1172(2) 0.1975(2)
H5 H 0.5635 1.0879 0.1814
H6 H 0.4017 1.0575 0.2800
C1 C 0.1954(5) 0.7783(3) 0.1579(3)
C2 C 0.0775(5) 0.6759(3) 0.2441(3)
H7 H -0.0601 0.7114 0.2277
H8 H 0.1127 0.5851 0.2171
C3 C 0.1070(5) 0.6541(3) 0.3891(3)
C4 C 0.2314(5) 0.5351(4) 0.4515(3)
H9 H 0.2935 0.4683 0.4028
C5 C 0.1789(6) 0.6054(4) 0.6550(4)
H10 H 0.2062 0.5890 0.7439
C6 C 0.0498(6) 0.7244(4) 0.6001(4)
H11 H -0.0121 0.7883 0.6519
C7 C 0.0125(5) 0.7487(4) 0.4665(3)
H12 H -0.0758 0.8285 0.4290
Mg2A Mg -0.29211(15) 0.94862(11) -0.04518(10)
P1A P -0.46297(12) 1.26107(8) -0.18199(8)
P2A P -0.15259(12) 1.20967(8) 0.01999(8)
N1A N -0.2646(4) 1.4864(3) -0.5804(3)
H1A H -0.3434 1.5614 -0.6159
O1A O -0.5453(3) 1.4018(2) -0.1459(2)
O2A O -0.5203(3) 1.1328(2) -0.0879(2)
O3A O -0.5060(3) 1.2642(2) -0.3246(2)
O4A O -0.2839(3) 1.3306(2) 0.0681(2)
O5A O -0.2009(3) 1.0642(2) 0.0846(2)
O6A O 0.0638(3) 1.2083(2) 0.0316(2)
O7A O -0.1348(3) 1.0798(2) -0.1882(2)
H2A H -0.0189 1.0392 -0.1683
O9A O -0.4208(3) 0.8828(2) -0.1975(2)
H5A H -0.5635 0.9121 -0.1814
H6A H -0.4017 0.9425 -0.2800
C1A C -0.1954(5) 1.2217(3) -0.1579(3)
C2A C -0.0775(5) 1.3241(3) -0.2441(3)
H7A H 0.0601 1.2886 -0.2277
H8A H -0.1127 1.4149 -0.2171
C3A C -0.1070(5) 1.3459(3) -0.3891(3)
C4A C -0.2314(5) 1.4649(4) -0.4515(3)
H9A H -0.2935 1.5317 -0.4028
C5A C -0.1789(6) 1.3946(4) -0.6550(4)
H10A H -0.2062 1.4110 -0.7439
C6A C -0.0498(6) 1.2756(4) -0.6001(4)
H11A H 0.0121 1.2117 -0.6519
C7A C -0.0125(5) 1.2513(4) -0.4665(3)
H12A H 0.0758 1.1715 -0.4290
O8A O 0.7180(3) 0.6005(2) -0.1171(2)
H3A H 0.8069 0.6143 -0.0699
H4A H 0.6588 0.6780 -0.1478
Mg1_2 Mg -0.5000 1.5000 0.0000
Mg2_2 Mg -0.70789(15) 1.05138(11) 0.04518(10)
Mg2A_2 Mg 0.70789(15) 0.94862(11) -0.04518(10)
O1A_2 O 0.4547(3) 0.4018(2) -0.1459(2)
O2_2 O -0.4797(3) 0.8672(2) 0.0879(2)
O2A_2 O 0.4797(3) 1.1328(2) -0.0879(2)
O4A_2 O 0.7161(3) 0.3306(2) 0.0681(2)
O10 O 0.3547(5) 0.9595(3) 0.4367(3)
H13 H 0.3974 0.8761 0.4183
H14 H 0.4046 0.9610 0.5085
loop_
_geom_bond_atom_site_label_1
_geom_bond_atom_site_label_2
_geom_bond_site_symmetry_1
_geom_bond_site_symmetry_2
Mg1 O1 1_555 1_555
Mg2 O2 1_555 1_555
P1 O1 1_555 1_555
P2 O4 1_555 1_555
N1 H1 1_555 1_555
O2 P1 1_555 1_555
O3 P1 1_555 1_555
O4 Mg1 1_555 1_555
O5 Mg2 1_555 1_555
O6 P2 1_555 1_555
O7 Mg2 1_555 1_555
H2 O7 1_555 1_555
O8 Mg1 1_555 1_555
H3 O8 1_555 1_555
H4 O8 1_555 1_555
O9 Mg2 1_555 1_555
H5 O9 1_555 1_555
H6 O9 1_555 1_555
C1 P1 1_555 1_555
C2 C1 1_555 1_555
H7 C2 1_555 1_555
H8 C2 1_555 1_555
C3 C2 1_555 1_555
C4 N1 1_555 1_555
H9 C4 1_555 1_555
C5 N1 1_555 1_555
H10 C5 1_555 1_555
C6 C5 1_555 1_555
H11 C6 1_555 1_555
C7 C3 1_555 1_555
H12 C7 1_555 1_555
O10 H13 1_555 1_555
H14 O10 1_555 1_555
Mg2A O6 1_555 1_555
P1A O1A 1_555 1_555
P2A O4A 1_555 1_555
N1A H1A 1_555 1_555
O1A Mg1_2 1_555 1_555
O2A Mg2A 1_555 1_555
O3A P1A 1_555 1_555
O4A Mg1_2 1_555 1_555
O5A Mg2A 1_555 1_555
O6A Mg2 1_555 1_555
O7A Mg2A 1_555 1_555
H2A O7A 1_555 1_555
O9A Mg2A 1_555 1_555
H5A O9A 1_555 1_555
H6A O9A 1_555 1_555
C1A P1A 1_555 1_555
C2A C1A 1_555 1_555
H7A C2A 1_555 1_555
H8A C2A 1_555 1_555
C3A C2A 1_555 1_555
C4A N1A 1_555 1_555
H9A C4A 1_555 1_555
C5A N1A 1_555 1_555
H10A C5A 1_555 1_555
C6A C5A 1_555 1_555
H11A C6A 1_555 1_555
C7A C3A 1_555 1_555
H12A C7A 1_555 1_555
O8A Mg1 1_555 1_555
H3A O8A 1_555 1_555
H4A O8A 1_555 1_555
Mg2_2 O2A 1_555 1_555
Mg2A_2 O2 1_555 1_555
O1A_2 Mg1 1_555 1_555
O2_2 Mg2A 1_555 1_555
O2A_2 Mg2 1_555 1_555
O4A_2 Mg1 1_555 1_555
P2 O5 1_555 1_555
P2 C1 1_555 1_555
O7 C1 1_555 1_555
C3 C4 1_555 1_555
C6 C7 1_555 1_555
P1A O2A 1_555 1_555
P2A O5A 1_555 1_555
P2A O6A 1_555 1_555
P2A C1A 1_555 1_555
O7A C1A 1_555 1_555
C3A C4A 1_555 1_555
C6A C7A 1_555 1_555
Mg2_2 O2_2 1_555 1_555
Mg2A_2 O2A_2 1_555 1_555

#END
