
#######################################################################
#
#                 Cambridge Crystallographic Data Centre
#                                CCDC 
#
#######################################################################
#
# If this CIF has been generated from an entry in the Cambridge 
# Structural Database, then it will include bibliographic, chemical, 
# crystal, experimental, refinement or atomic coordinate data resulting 
# from the CCDC's data processing and validation procedures.
#
#######################################################################

data_HISGAT
_symmetry_cell_setting           monoclinic
_symmetry_space_group_name_H-M   'C 2/c'
_symmetry_Int_Tables_number      15
_space_group_name_Hall           '-C 2yn'
loop_
_symmetry_equiv_pos_site_id
_symmetry_equiv_pos_as_xyz
1 x,y,z
2 -x,y,1/2-z
3 1/2+x,1/2+y,z
4 1/2-x,1/2+y,1/2-z
5 -x,-y,-z
6 x,-y,1/2+z
7 1/2-x,1/2-y,-z
8 1/2+x,1/2-y,1/2+z
_cell_length_a                   25.8796(5)
_cell_length_b                   13.3553(3)
_cell_length_c                   23.3400(5)
_cell_angle_alpha                90
_cell_angle_beta                 110.2870(10)
_cell_angle_gamma                90
_cell_volume                     7566.58
loop_
_atom_site_label
_atom_site_type_symbol
_atom_site_fract_x
_atom_site_fract_y
_atom_site_fract_z
K1 K 0.0000 0.01402(10) -0.2500
K2 K -0.12006(4) 0.00881(7) -0.17960(4)
K3 K -0.12177(4) -0.00574(7) -0.43014(4)
K4 K -0.5000 -0.5000 -0.5000
K5 K -0.50256(4) -0.30890(10) -0.62927(5)
S1 S -0.23982(4) -0.00248(7) -0.34524(5)
S2 S -0.23865(4) 0.01250(7) -0.09603(5)
O1 O -0.41674(13) -0.3478(2) -0.51308(14)
O2 O 0.00108(11) 0.0473(3) -0.12479(12)
H1 H -0.0162 0.0906 -0.1117
H2 H 0.0035 0.1078 -0.1349
O3 O -0.43021(14) -0.3637(2) -0.42407(15)
O4 O -0.19762(13) -0.0028(2) -0.37196(16)
O5 O -0.22483(13) -0.0051(2) -0.27970(14)
O6 O -0.40002(15) 0.3741(3) -0.49827(15)
O7 O -0.42343(12) 0.3728(2) -0.41491(14)
O8 O -0.40353(15) -0.3598(3) -0.24773(16)
O9 O -0.42170(14) -0.3617(3) -0.16143(16)
O10 O -0.19655(12) 0.0131(2) -0.12300(16)
O11 O -0.22332(13) 0.0161(2) -0.03052(14)
O12 O -0.41368(13) 0.3618(2) -0.26174(13)
O13 O -0.42845(12) 0.3770(2) -0.17346(13)
C1 C -0.40669(17) -0.3280(3) -0.4579(2)
C2 C -0.36206(17) -0.2516(3) -0.42843(19)
C3 C -0.35882(19) -0.2083(3) -0.3731(2)
H3 H -0.3824 -0.2300 -0.3533
C4 C -0.32078(18) -0.1330(3) -0.3471(2)
H4 H -0.3194 -0.1032 -0.3106
C5 C -0.28520(16) -0.1030(3) -0.37599(18)
C6 C -0.28613(18) -0.1475(3) -0.43014(19)
H5 H -0.2612 -0.1282 -0.4487
C7 C -0.32517(17) -0.2220(3) -0.45613(19)
H6 H -0.3264 -0.2520 -0.4925
C8 C -0.28279(16) 0.1027(3) -0.37311(18)
C9 C -0.31916(18) 0.1304(3) -0.3442(2)
H7 H -0.3197 0.0967 -0.3095
C10 C -0.35475(19) 0.2097(3) -0.3683(2)
H8 H -0.3793 0.2294 -0.3493
C11 C -0.35464(16) 0.2599(3) -0.41970(18)
C12 C -0.31735(18) 0.2322(3) -0.4475(2)
H9 H -0.3167 0.2664 -0.4819
C13 C -0.28061(18) 0.1530(3) -0.42384(19)
H10 H -0.2552 0.1346 -0.4420
C14 C -0.39595(17) 0.3431(3) -0.4470(2)
C15 C -0.39678(17) -0.3313(3) -0.1953(2)
C16 C -0.35391(17) -0.2489(3) -0.16873(19)
C17 C -0.35008(19) -0.2044(3) -0.1138(2)
H11 H -0.3720 -0.2274 -0.0923
C18 C -0.31386(18) -0.1259(3) -0.0907(2)
H12 H -0.3116 -0.0957 -0.0540
C19 C -0.28121(16) -0.0931(3) -0.12264(18)
C20 C -0.28362(18) -0.1385(3) -0.17724(19)
H13 H -0.2611 -0.1166 -0.1983
C21 C -0.32005(19) -0.2167(3) -0.19952(19)
H14 H -0.3218 -0.2480 -0.2357
C22 C -0.28409(16) 0.1135(3) -0.12704(18)
C23 C -0.32084(18) 0.1405(3) -0.0986(2)
H15 H -0.3203 0.1087 -0.0629
C24 C -0.35857(18) 0.2158(3) -0.1245(2)
H16 H -0.3830 0.2355 -0.1053
C25 C -0.36051(17) 0.2624(3) -0.17832(18)
C26 C -0.32254(18) 0.2356(3) -0.20508(19)
H17 H -0.3226 0.2682 -0.2403
C27 C -0.28434(17) 0.1604(3) -0.1799(2)
H18 H -0.2592 0.1418 -0.1984
C28 C -0.40434(16) 0.3405(3) -0.20704(19)
O14 O -0.5029(4) -0.1112(6) -0.6021(5)
N1 N -0.4713(3) 0.0391(6) -0.5557(4)
C29 C -0.5084(6) -0.0268(12) -0.5958(7)
H19 H -0.5416 0.0009 -0.6206
C30 C -0.4783(6) 0.1458(9) -0.5480(7)
H20 H -0.5167 0.1626 -0.5648
H21 H -0.4644 0.1622 -0.5053
H22 H -0.4584 0.1831 -0.5689
C31 C -0.4171(5) 0.0086(11) -0.5192(7)
H23 H -0.4172 -0.0614 -0.5099
H24 H -0.3924 0.0202 -0.5411
H25 H -0.4051 0.0464 -0.4819
K2A K 0.12006(4) 0.00881(7) -0.32040(4)
K3A K 0.12177(4) -0.00574(7) -0.06986(4)
K5A K 0.50256(4) -0.30890(10) 0.12927(5)
S1A S 0.23982(4) -0.00248(7) -0.15476(5)
S2A S 0.23865(4) 0.01250(7) -0.40397(5)
O1A O 0.41674(13) -0.3478(2) 0.01308(14)
O2A O -0.00108(11) 0.0473(3) -0.37521(12)
H1A H 0.0162 0.0906 -0.3883
H2A H -0.0035 0.1078 -0.3651
O3A O 0.43021(14) -0.3637(2) -0.07593(15)
O4A O 0.19762(13) -0.0028(2) -0.12804(16)
O5A O 0.22483(13) -0.0051(2) -0.22030(14)
O6A O 0.40002(15) 0.3741(3) -0.00173(15)
O7A O 0.42343(12) 0.3728(2) -0.08509(14)
O8A O 0.40353(15) -0.3598(3) -0.25227(16)
O9A O 0.42170(14) -0.3617(3) -0.33857(16)
O10A O 0.19655(12) 0.0131(2) -0.37700(16)
O11A O 0.22332(13) 0.0161(2) -0.46948(14)
O12A O 0.41368(13) 0.3618(2) -0.23826(13)
O13A O 0.42845(12) 0.3770(2) -0.32654(13)
C1A C 0.40669(17) -0.3280(3) -0.0421(2)
C2A C 0.36206(17) -0.2516(3) -0.07157(19)
C3A C 0.35882(19) -0.2083(3) -0.1269(2)
H3A H 0.3824 -0.2300 -0.1467
C4A C 0.32078(18) -0.1330(3) -0.1529(2)
H4A H 0.3194 -0.1032 -0.1894
C5A C 0.28520(16) -0.1030(3) -0.12401(18)
C6A C 0.28613(18) -0.1475(3) -0.06986(19)
H5A H 0.2612 -0.1282 -0.0513
C7A C 0.32517(17) -0.2220(3) -0.04387(19)
H6A H 0.3264 -0.2520 -0.0075
C8A C 0.28279(16) 0.1027(3) -0.12689(18)
C9A C 0.31916(18) 0.1304(3) -0.1558(2)
H7A H 0.3197 0.0967 -0.1905
C10A C 0.35475(19) 0.2097(3) -0.1317(2)
H8A H 0.3793 0.2294 -0.1507
C11A C 0.35464(16) 0.2599(3) -0.08030(18)
C12A C 0.31735(18) 0.2322(3) -0.0525(2)
H9A H 0.3167 0.2664 -0.0181
C13A C 0.28061(18) 0.1530(3) -0.07616(19)
H10A H 0.2552 0.1346 -0.0580
C14A C 0.39595(17) 0.3431(3) -0.0530(2)
C15A C 0.39678(17) -0.3313(3) -0.3047(2)
C16A C 0.35391(17) -0.2489(3) -0.33127(19)
C17A C 0.35008(19) -0.2044(3) -0.3862(2)
H11A H 0.3720 -0.2274 -0.4077
C18A C 0.31386(18) -0.1259(3) -0.4093(2)
H12A H 0.3116 -0.0957 -0.4460
C19A C 0.28121(16) -0.0931(3) -0.37736(18)
C20A C 0.28362(18) -0.1385(3) -0.32276(19)
H13A H 0.2611 -0.1166 -0.3017
C21A C 0.32005(19) -0.2167(3) -0.30048(19)
H14A H 0.3218 -0.2480 -0.2643
C22A C 0.28409(16) 0.1135(3) -0.37296(18)
C23A C 0.32084(18) 0.1405(3) -0.4014(2)
H15A H 0.3203 0.1087 -0.4371
C24A C 0.35857(18) 0.2158(3) -0.3755(2)
H16A H 0.3830 0.2355 -0.3947
C25A C 0.36051(17) 0.2624(3) -0.32168(18)
C26A C 0.32254(18) 0.2356(3) -0.29492(19)
H17A H 0.3226 0.2682 -0.2597
C27A C 0.28434(17) 0.1604(3) -0.3201(2)
H18A H 0.2592 0.1418 -0.3016
C28A C 0.40434(16) 0.3405(3) -0.29296(19)
O14A O 0.5029(4) -0.1112(6) 0.1021(5)
N1A N 0.4713(3) 0.0391(6) 0.0557(4)
C29A C 0.5084(6) -0.0268(12) 0.0958(7)
H19A H 0.5416 0.0009 0.1206
C30A C 0.4783(6) 0.1458(9) 0.0480(7)
H20A H 0.5167 0.1626 0.0648
H21A H 0.4644 0.1622 0.0053
H22A H 0.4584 0.1831 0.0689
C31A C 0.4171(5) 0.0086(11) 0.0192(7)
H23A H 0.4172 -0.0614 0.0099
H24A H 0.3924 0.0202 0.0411
H25A H 0.4051 0.0464 -0.0181
K1B K -0.5000 -0.48598(10) -0.2500
K1B_2 K -0.5000 0.51402(10) -0.2500
K1B_3 K 0.5000 -0.48598(10) -0.2500
K1B_4 K 0.5000 0.51402(10) -0.2500
K2B K 0.37994(4) -0.49119(7) -0.17960(4)
K2B_2 K 0.37994(4) 0.50881(7) -0.17960(4)
K2C K -0.37994(4) -0.49119(7) -0.32040(4)
K2C_2 K -0.37994(4) 0.50881(7) -0.32040(4)
K3B K 0.37823(4) -0.50574(7) -0.43014(4)
K3B_2 K 0.37823(4) 0.49426(7) -0.43014(4)
K3C K -0.37823(4) -0.50574(7) -0.06986(4)
K3C_2 K -0.37823(4) 0.49426(7) -0.06986(4)
K3D K 0.12177(4) 0.00574(7) -0.56986(4)
K3E K -0.12177(4) 0.00574(7) 0.06986(4)
K3F K -0.37823(4) -0.49426(7) -0.56986(4)
K3F_2 K -0.37823(4) 0.50574(7) -0.56986(4)
K3G K 0.37823(4) -0.49426(7) 0.06986(4)
K3G_2 K 0.37823(4) 0.50574(7) 0.06986(4)
K4_2 K -0.5000 0.5000 -0.5000
K4A K 0.5000 -0.5000 0.0000
K4A_2 K 0.5000 0.5000 0.0000
K4B K 0.0000 0.0000 -0.5000
K4C K 0.0000 0.0000 0.0000
K5D K -0.49744(4) 0.30890(10) -0.37073(5)
K5D_2 K 0.50256(4) 0.30890(10) -0.37073(5)
K5E K -0.50256(4) 0.30890(10) -0.12927(5)
K5E_2 K 0.49744(4) 0.30890(10) -0.12927(5)
K5F K 0.00256(4) -0.19110(10) -0.37073(5)
K5G K -0.00256(4) -0.19110(10) -0.12927(5)
O1D O -0.58326(13) -0.6522(2) -0.48692(14)
O1F O -0.08326(13) -0.1522(2) -0.48692(14)
O1G O 0.08326(13) -0.1522(2) -0.01308(14)
O2C O -0.50108(11) -0.4527(3) -0.37521(12)
O2F O 0.49892(11) -0.5473(3) 0.12479(12)
O2G O -0.49892(11) -0.5473(3) -0.62479(12)
O3B O 0.06979(14) 0.1363(2) -0.42407(15)
O3C O -0.06979(14) 0.1363(2) -0.07593(15)
O3D O -0.56979(14) -0.6363(2) -0.57593(15)
O6_2 O -0.40002(15) -0.6259(3) -0.49827(15)
O6D O -0.59998(15) -0.3741(3) -0.50173(15)
O6F O -0.09998(15) 0.1259(3) -0.50173(15)
O6G O 0.09998(15) 0.1259(3) 0.00173(15)
O7_2 O -0.42343(12) -0.6272(2) -0.41491(14)
O7B O 0.07657(12) -0.1272(2) -0.41491(14)
O7C O -0.07657(12) -0.1272(2) -0.08509(14)
O7D O -0.57657(12) -0.3728(2) -0.58509(14)
O7E O 0.57657(12) -0.3728(2) 0.08509(14)
O8B O 0.09647(15) 0.1402(3) -0.24773(16)
O8C O -0.09647(15) 0.1402(3) -0.25227(16)
O9B O 0.07830(14) 0.1383(3) -0.16143(16)
O9C O -0.07830(14) 0.1383(3) -0.33857(16)
O11D O 0.22332(13) -0.0161(2) 0.03052(14)
O11E O -0.22332(13) -0.0161(2) -0.53052(14)
O12B O 0.08632(13) -0.1382(2) -0.26174(13)
O12C O -0.08632(13) -0.1382(2) -0.23826(13)
O12D O -0.58632(13) -0.3618(2) -0.73826(13)
O12E O 0.58632(13) -0.3618(2) 0.23826(13)
O13B O 0.07155(12) -0.1230(2) -0.17346(13)
O13C O -0.07155(12) -0.1230(2) -0.32654(13)
O13D O 0.42845(12) -0.3770(2) 0.17346(13)
O13E O -0.42845(12) -0.3770(2) -0.67346(13)
loop_
_geom_bond_atom_site_label_1
_geom_bond_atom_site_label_2
_geom_bond_site_symmetry_1
_geom_bond_site_symmetry_2
K1 O2 1_555 1_555
K2 O2 1_555 1_555
K3 O4 1_555 1_555
K4 O1 1_555 1_555
K5 O1 1_555 1_555
S1 O4 1_555 1_555
S2 O10 1_555 1_555
O1 C1 1_555 1_555
O2 H1 1_555 1_555
H2 O2 1_555 1_555
O3 K4 1_555 1_555
O5 K2 1_555 1_555
O6 C14 1_555 1_555
O7 C14 1_555 1_555
O8 C15 1_555 1_555
O9 C15 1_555 1_555
O10 K2 1_555 1_555
O11 S2 1_555 1_555
O12 C28 1_555 1_555
O13 C28 1_555 1_555
C1 O3 1_555 1_555
C2 C1 1_555 1_555
C3 C2 1_555 1_555
H3 C3 1_555 1_555
C4 C3 1_555 1_555
H4 C4 1_555 1_555
C5 S1 1_555 1_555
C6 C5 1_555 1_555
H5 C6 1_555 1_555
C7 C2 1_555 1_555
H6 C7 1_555 1_555
C8 S1 1_555 1_555
C9 C8 1_555 1_555
H7 C9 1_555 1_555
C10 C9 1_555 1_555
H8 C10 1_555 1_555
C11 C10 1_555 1_555
C12 C11 1_555 1_555
H9 C12 1_555 1_555
C13 C8 1_555 1_555
H10 C13 1_555 1_555
C14 C11 1_555 1_555
C15 C16 1_555 1_555
C16 C17 1_555 1_555
C17 H11 1_555 1_555
C18 C17 1_555 1_555
H12 C18 1_555 1_555
C19 S2 1_555 1_555
C20 C19 1_555 1_555
H13 C20 1_555 1_555
C21 C16 1_555 1_555
H14 C21 1_555 1_555
C22 S2 1_555 1_555
C23 C22 1_555 1_555
H15 C23 1_555 1_555
C24 C23 1_555 1_555
H16 C24 1_555 1_555
C25 C24 1_555 1_555
C26 C25 1_555 1_555
H17 C26 1_555 1_555
C27 C22 1_555 1_555
H18 C27 1_555 1_555
C28 C25 1_555 1_555
O14 K5 1_555 1_555
N1 C29 1_555 1_555
C29 O14 1_555 1_555
H19 C29 1_555 1_555
C30 N1 1_555 1_555
H20 C30 1_555 1_555
H21 C30 1_555 1_555
H22 C30 1_555 1_555
C31 N1 1_555 1_555
H23 C31 1_555 1_555
H24 C31 1_555 1_555
H25 C31 1_555 1_555
K2A O2A 1_555 1_555
K3A O2 1_555 1_555
K5A O1A 1_555 1_555
S1A O4A 1_555 1_555
S2A O10A 1_555 1_555
O1A C1A 1_555 1_555
O2A K1 1_555 1_555
H1A O2A 1_555 1_555
H2A O2A 1_555 1_555
O3A C1A 1_555 1_555
O4A K3A 1_555 1_555
O5A K2A 1_555 1_555
O6A C14A 1_555 1_555
O7A C14A 1_555 1_555
O8A C15A 1_555 1_555
O9A C15A 1_555 1_555
O10A K2A 1_555 1_555
O11A S2A 1_555 1_555
O12A C28A 1_555 1_555
O13A C28A 1_555 1_555
C1A C2A 1_555 1_555
C2A C3A 1_555 1_555
C3A H3A 1_555 1_555
C4A C3A 1_555 1_555
H4A C4A 1_555 1_555
C5A S1A 1_555 1_555
C6A C5A 1_555 1_555
H5A C6A 1_555 1_555
C7A C2A 1_555 1_555
H6A C7A 1_555 1_555
C8A S1A 1_555 1_555
C9A C8A 1_555 1_555
H7A C9A 1_555 1_555
C10A C9A 1_555 1_555
H8A C10A 1_555 1_555
C11A C10A 1_555 1_555
C12A C11A 1_555 1_555
H9A C12A 1_555 1_555
C13A C8A 1_555 1_555
H10A C13A 1_555 1_555
C14A C11A 1_555 1_555
C15A C16A 1_555 1_555
C16A C17A 1_555 1_555
C17A H11A 1_555 1_555
C18A C17A 1_555 1_555
H12A C18A 1_555 1_555
C19A S2A 1_555 1_555
C20A C19A 1_555 1_555
H13A C20A 1_555 1_555
C21A C16A 1_555 1_555
H14A C21A 1_555 1_555
C22A S2A 1_555 1_555
C23A C22A 1_555 1_555
H15A C23A 1_555 1_555
C24A C23A 1_555 1_555
H16A C24A 1_555 1_555
C25A C24A 1_555 1_555
C26A C25A 1_555 1_555
H17A C26A 1_555 1_555
C27A C22A 1_555 1_555
H18A C27A 1_555 1_555
C28A C25A 1_555 1_555
O14A K5A 1_555 1_555
N1A C29A 1_555 1_555
C29A O14A 1_555 1_555
H19A C29A 1_555 1_555
C30A N1A 1_555 1_555
H20A C30A 1_555 1_555
H21A C30A 1_555 1_555
H22A C30A 1_555 1_555
C31A N1A 1_555 1_555
H23A C31A 1_555 1_555
H24A C31A 1_555 1_555
H25A C31A 1_555 1_555
K1B O8 1_555 1_555
K1B_2 O12 1_555 1_555
K1B_3 O8A 1_555 1_555
K1B_4 O12A 1_555 1_555
K2B O3A 1_555 1_555
K2B_2 O7A 1_555 1_555
K2C O3 1_555 1_555
K2C_2 O7 1_555 1_555
K3B O9A 1_555 1_555
K3B_2 O13A 1_555 1_555
K3C O9 1_555 1_555
K3C_2 O13 1_555 1_555
K3D O11A 1_555 1_555
K3E O11 1_555 1_555
K3F O1 1_555 1_555
K3F_2 O6 1_555 1_555
K3G O1A 1_555 1_555
K3G_2 O6A 1_555 1_555
K4_2 O6 1_555 1_555
K4A O1A 1_555 1_555
K4A_2 O6A 1_555 1_555
K4B O2A 1_555 1_555
K4C O2 1_555 1_555
K5D O7 1_555 1_555
K5D_2 O13A 1_555 1_555
K5E O13 1_555 1_555
K5E_2 O7A 1_555 1_555
K5F O2A 1_555 1_555
K5G O2 1_555 1_555
O1D K4 1_555 1_555
O1F K3 1_555 1_555
O1G K3A 1_555 1_555
O2C K4 1_555 1_555
O2F K5A 1_555 1_555
O2G K4 1_555 1_555
O3B K2A 1_555 1_555
O3C K2 1_555 1_555
O3D K4 1_555 1_555
O6_2 K4 1_555 1_555
O6D K4 1_555 1_555
O6F K3 1_555 1_555
O6G K3A 1_555 1_555
O7_2 K4 1_555 1_555
O7B K2A 1_555 1_555
O7C K2 1_555 1_555
O7D K4 1_555 1_555
O7E K5A 1_555 1_555
O8B K1 1_555 1_555
O8C K1 1_555 1_555
O9B K1 1_555 1_555
O9C K1 1_555 1_555
O11D K3A 1_555 1_555
O11E K3 1_555 1_555
O12B K1 1_555 1_555
O12C K1 1_555 1_555
O12D K5 1_555 1_555
O12E K5A 1_555 1_555
O13B K1 1_555 1_555
O13C K1 1_555 1_555
O13D K5A 1_555 1_555
O13E K5 1_555 1_555
K2 O8C 1_555 1_555
K2 O12C 1_555 1_555
K3 O2A 1_555 1_555
K3 O9C 1_555 1_555
K3 O13C 1_555 1_555
K5 O2G 1_555 1_555
K5 O7D 1_555 1_555
S1 O5 1_555 1_555
O7 K4_2 1_555 1_555
O8 K2C 1_555 1_555
O9 K1B 1_555 1_555
O12 K2C_2 1_555 1_555
O12 K5D 1_555 1_555
O13 K1B_2 1_555 1_555
C4 C5 1_555 1_555
C6 C7 1_555 1_555
C12 C13 1_555 1_555
C18 C19 1_555 1_555
C20 C21 1_555 1_555
C26 C27 1_555 1_555
K2A O8B 1_555 1_555
K2A O12B 1_555 1_555
K3A O9B 1_555 1_555
K3A O13B 1_555 1_555
S1A O5A 1_555 1_555
O3A K4A 1_555 1_555
O7A K4A_2 1_555 1_555
O8A K2B 1_555 1_555
O9A K1B_3 1_555 1_555
O12A K2B_2 1_555 1_555
O12A K5E_2 1_555 1_555
O13A K1B_4 1_555 1_555
C4A C5A 1_555 1_555
C6A C7A 1_555 1_555
C12A C13A 1_555 1_555
C18A C19A 1_555 1_555
C20A C21A 1_555 1_555
C26A C27A 1_555 1_555
K1B O2C 1_555 1_555
K2C O2C 1_555 1_555
K2C O7_2 1_555 1_555
K3F O2G 1_555 1_555
K3F O6_2 1_555 1_555
K3F O13E 1_555 1_555
K3G O2F 1_555 1_555
K3G O13D 1_555 1_555
K4A O2F 1_555 1_555
K4A O7E 1_555 1_555
K4B O1F 1_555 1_555
K4B O3B 1_555 1_555
K4B O6F 1_555 1_555
K4B O7B 1_555 1_555
K4C O1G 1_555 1_555
K4C O3C 1_555 1_555
K4C O6G 1_555 1_555
K4C O7C 1_555 1_555
K5F O1F 1_555 1_555
K5F O7B 1_555 1_555
K5F O12B 1_555 1_555
K5F O13C 1_555 1_555
K5G O1G 1_555 1_555
K5G O7C 1_555 1_555
K5G O12C 1_555 1_555
K5G O13B 1_555 1_555

#END
