
#######################################################################
#
#                 Cambridge Crystallographic Data Centre
#                                CCDC 
#
#######################################################################
#
# If this CIF has been generated from an entry in the Cambridge 
# Structural Database, then it will include bibliographic, chemical, 
# crystal, experimental, refinement or atomic coordinate data resulting 
# from the CCDC's data processing and validation procedures.
#
#######################################################################

data_HISTEK
_symmetry_cell_setting           monoclinic
_symmetry_space_group_name_H-M   'P 21/c'
_symmetry_Int_Tables_number      14
_space_group_name_Hall           '-P 2ybc'
loop_
_symmetry_equiv_pos_site_id
_symmetry_equiv_pos_as_xyz
1 x,y,z
2 -x,1/2+y,1/2-z
3 -x,-y,-z
4 x,1/2-y,1/2+z
_cell_length_a                   23.4006(7)
_cell_length_b                   14.1988(5)
_cell_length_c                   9.9356(4)
_cell_angle_alpha                90
_cell_angle_beta                 94.468(3)
_cell_angle_gamma                90
_cell_volume                     3291.17
loop_
_atom_site_label
_atom_site_type_symbol
_atom_site_fract_x
_atom_site_fract_y
_atom_site_fract_z
C1 C 0.1161(3) 0.1721(5) 0.3544(8)
H1 H 0.0817 0.1900 0.3877
C2 C 0.2637(4) 0.2406(6) 0.0656(11)
H2 H 0.2728 0.2895 0.0042
H3 H 0.2503 0.1860 0.0154
H4 H 0.2973 0.2246 0.1226
C3 C 0.0411(3) 0.3814(5) 0.3803(7)
C4 C 0.4179(3) -0.1831(5) 0.6807(7)
H5 H 0.4069 -0.2015 0.7647
C5 C 0.0299(3) 0.3698(5) 0.5124(7)
H6 H 0.0592 0.3752 0.5807
C6 C 0.3169(2) -0.2095(4) 0.5881(6)
C7 C 0.6990(3) 0.0006(5) 0.2999(7)
H7 H 0.7311 0.0375 0.3233
C8 C 0.1456(3) 0.2339(5) 0.2803(8)
C9 C 0.1883(3) 0.0543(5) 0.3251(7)
C10 C -0.0255(3) 0.3500(5) 0.5435(7)
H8 H -0.0332 0.3411 0.6330
C11 C 0.6251(3) -0.1005(5) 0.3633(7)
C12 C 0.4276(4) -0.0622(7) 0.2070(8)
H9 H 0.4469 -0.0412 0.1307
H10 H 0.4051 -0.0116 0.2389
H11 H 0.4031 -0.1143 0.1808
C13 C 0.2062(3) -0.0453(5) 0.3318(7)
C14 C 0.4489(3) -0.1235(5) 0.4303(7)
C15 C 0.4750(3) -0.1578(5) 0.6672(7)
H12 H 0.5026 -0.1605 0.7397
C16 C 0.1381(3) 0.0821(5) 0.3797(8)
H13 H 0.1191 0.0406 0.4332
C17 C 0.3926(3) -0.1499(5) 0.4453(7)
H14 H 0.3651 -0.1467 0.3727
C18 C -0.0577(3) 0.3586(5) 0.3099(7)
H15 H -0.0873 0.3559 0.2419
C19 C 0.6707(3) -0.0437(5) 0.3995(7)
H16 H 0.6826 -0.0347 0.4901
C20 C 0.2169(3) 0.1190(5) 0.2526(7)
H17 H 0.2511 0.1013 0.2178
C21 C 0.6051(3) -0.1129(5) 0.2297(7)
H18 H 0.5735 -0.1510 0.2067
C22 C -0.0691(2) 0.3433(4) 0.4435(6)
C23 C 0.4883(3) -0.1284(5) 0.5403(7)
C24 C 0.1969(3) 0.2089(5) 0.2297(8)
C25 C -0.1293(2) 0.3173(4) 0.4750(6)
C26 C 0.3780(2) -0.1813(5) 0.5719(6)
C27 C 0.6333(3) -0.0673(5) 0.1308(7)
H19 H 0.6208 -0.0752 0.0403
C28 C -0.0024(3) 0.3777(5) 0.2783(7)
H20 H 0.0054 0.3880 0.1891
C29 C 0.6798(3) -0.0099(5) 0.1662(7)
C30 C 0.7114(3) 0.0409(5) 0.0633(6)
O1 O 0.6994(2) 0.0100(3) -0.0603(5)
H21 H 0.7199 0.0368 -0.1116
O2 O 0.30467(17) -0.2350(3) 0.7034(4)
O3 O 0.1083(2) 0.4841(3) 0.2505(6)
O4 O 0.2195(3) 0.2730(4) 0.1475(7)
O5 O 0.18104(19) -0.3772(3) 0.1707(4)
H22 H 0.1503 -0.4001 0.2038
H23 H 0.1716 -0.3584 0.0881
O6 O 0.17810(17) -0.1036(3) 0.3985(4)
O7 O 0.7445(2) 0.1047(3) 0.0896(5)
O8 O 0.24750(18) -0.0737(3) 0.2677(4)
O9 O -0.16691(17) 0.3140(3) 0.3789(4)
O10 O 0.1511(2) 0.3983(4) 0.4480(6)
O11 O 0.28176(17) -0.2051(3) 0.4880(4)
O12 O -0.13781(16) 0.2997(3) 0.5944(4)
O13 O 0.4689(2) -0.0911(4) 0.3118(5)
O14 O 0.1216(2) 0.3218(4) 0.2353(6)
O15 O 0.6321(2) -0.1688(5) 0.6075(6)
O16 O 0.54470(19) -0.0931(4) 0.5242(5)
O17 O 0.5680(2) -0.2486(3) 0.4379(6)
S1 S 0.11054(7) 0.40375(12) 0.3352(2)
S2 S 0.59252(8) -0.16503(14) 0.4915(2)
Gd1 Gd 0.220160(11) -0.245825(19) 0.30741(3)
O2C O 0.30467(17) -0.2650(3) 0.2034(4)
O7A O 0.2555(2) -0.3953(3) 0.4104(5)
O9A O 0.16691(17) -0.1860(3) 0.1211(4)
O12B O 0.13781(16) -0.2997(3) 0.4056(4)
Gd1A Gd -0.220160(11) 0.254175(19) 0.19259(3)
Gd1A_2 Gd 0.779840(11) 0.254175(19) 0.19259(3)
Gd1B Gd -0.220160(11) 0.245825(19) 0.69259(3)
Gd1C Gd 0.220160(11) -0.254175(19) 0.80741(3)
loop_
_geom_bond_atom_site_label_1
_geom_bond_atom_site_label_2
_geom_bond_site_symmetry_1
_geom_bond_site_symmetry_2
C1 H1 1_555 1_555
C2 H2 1_555 1_555
H3 C2 1_555 1_555
H4 C2 1_555 1_555
C3 C5 1_555 1_555
C4 H5 1_555 1_555
C5 H6 1_555 1_555
C6 C26 1_555 1_555
C7 H7 1_555 1_555
C8 C1 1_555 1_555
C9 C13 1_555 1_555
C10 C5 1_555 1_555
H8 C10 1_555 1_555
C11 C19 1_555 1_555
C12 H9 1_555 1_555
H10 C12 1_555 1_555
H11 C12 1_555 1_555
C13 O6 1_555 1_555
C14 C17 1_555 1_555
C15 C4 1_555 1_555
H12 C15 1_555 1_555
C16 C1 1_555 1_555
H13 C16 1_555 1_555
C17 H14 1_555 1_555
C18 H15 1_555 1_555
C19 C7 1_555 1_555
H16 C19 1_555 1_555
C20 C9 1_555 1_555
H17 C20 1_555 1_555
C21 C11 1_555 1_555
H18 C21 1_555 1_555
C22 C10 1_555 1_555
C23 C14 1_555 1_555
C24 C8 1_555 1_555
C25 C22 1_555 1_555
C26 C4 1_555 1_555
C27 C21 1_555 1_555
H19 C27 1_555 1_555
C28 C3 1_555 1_555
H20 C28 1_555 1_555
C29 C7 1_555 1_555
C30 C29 1_555 1_555
O1 C30 1_555 1_555
H21 O1 1_555 1_555
O2 C6 1_555 1_555
O3 S1 1_555 1_555
O4 C2 1_555 1_555
O5 H22 1_555 1_555
H23 O5 1_555 1_555
O6 Gd1 1_555 1_555
O7 C30 1_555 1_555
O8 C13 1_555 1_555
O9 C25 1_555 1_555
O10 S1 1_555 1_555
O11 C6 1_555 1_555
O12 C25 1_555 1_555
O13 C12 1_555 1_555
O14 C8 1_555 1_555
O15 S2 1_555 1_555
O16 C23 1_555 1_555
O17 S2 1_555 1_555
S1 C3 1_555 1_555
S2 C11 1_555 1_555
Gd1 O5 1_555 1_555
O2C Gd1 1_555 1_555
O7A Gd1 1_555 1_555
O9A Gd1 1_555 1_555
O12B Gd1 1_555 1_555
Gd1A O9 1_555 1_555
Gd1A_2 O7 1_555 1_555
Gd1B O12 1_555 1_555
Gd1C O2 1_555 1_555
C9 C16 1_555 1_555
C14 O13 1_555 1_555
C15 C23 1_555 1_555
C17 C26 1_555 1_555
C18 C22 1_555 1_555
C18 C28 1_555 1_555
C20 C24 1_555 1_555
C24 O4 1_555 1_555
C27 C29 1_555 1_555
O8 Gd1 1_555 1_555
O11 Gd1 1_555 1_555
O14 S1 1_555 1_555
O16 S2 1_555 1_555

#END
