
#######################################################################
#
#                 Cambridge Crystallographic Data Centre
#                                CCDC 
#
#######################################################################
#
# If this CIF has been generated from an entry in the Cambridge 
# Structural Database, then it will include bibliographic, chemical, 
# crystal, experimental, refinement or atomic coordinate data resulting 
# from the CCDC's data processing and validation procedures.
#
#######################################################################

data_HISVAI
_symmetry_cell_setting           monoclinic
_symmetry_space_group_name_H-M   'P 21/c'
_symmetry_Int_Tables_number      14
_space_group_name_Hall           '-P 2ybc'
loop_
_symmetry_equiv_pos_site_id
_symmetry_equiv_pos_as_xyz
1 x,y,z
2 -x,1/2+y,1/2-z
3 -x,-y,-z
4 x,1/2-y,1/2+z
_cell_length_a                   23.318(2)
_cell_length_b                   14.0046(15)
_cell_length_c                   9.8371(10)
_cell_angle_alpha                90
_cell_angle_beta                 94.552(9)
_cell_angle_gamma                90
_cell_volume                     3202.26
loop_
_atom_site_label
_atom_site_type_symbol
_atom_site_fract_x
_atom_site_fract_y
_atom_site_fract_z
C1 C 0.2066(5) 0.5447(9) 0.8340(13)
C2 C 0.1889(5) 0.4447(9) 0.8273(14)
C3 C 0.1404(5) 0.4158(9) 0.8889(13)
H1 H 0.1235 0.4557 0.9498
C4 C 0.1170(5) 0.3242(9) 0.8576(13)
H2 H 0.0816 0.3068 0.8876
C5 C 0.1466(5) 0.2619(10) 0.7837(13)
C6 C 0.1969(5) 0.2905(10) 0.7316(14)
C7 C 0.2179(5) 0.3797(9) 0.7518(13)
H3 H 0.2518 0.3975 0.7150
C8 C 0.2637(5) 0.2613(11) 0.5592(14)
H4 H 0.2679 0.2195 0.4834
H5 H 0.2991 0.2636 0.6158
H6 H 0.2541 0.3243 0.5262
C9 C 0.0382(5) 0.1150(9) 0.8819(13)
C10 C 0.0284(5) 0.1275(9) 1.0142(13)
H7 H 0.0580 0.1219 1.0829
C11 C -0.0282(5) 0.1495(9) 1.0446(12)
H8 H -0.0363 0.1596 1.1346
C12 C -0.0708(5) 0.1559(9) 0.9429(12)
C13 C -0.0588(5) 0.1383(9) 0.8092(13)
H9 H -0.0887 0.1382 0.7409
C14 C -0.0026(5) 0.1208(9) 0.7753(13)
H10 H 0.0063 0.1136 0.6854
C15 C -0.1324(5) 0.1824(9) 0.9721(13)
C16 C 0.7110(5) 1.0427(9) 0.0644(13)
C17 C 0.6794(5) 0.9883(9) 0.1645(13)
C18 C 0.6986(5) 1.0006(9) 0.2980(13)
H11 H 0.7296 1.0409 0.3208
C19 C 0.6722(5) 0.9533(8) 0.4000(13)
H12 H 0.6865 0.9589 0.4905
C20 C 0.6256(5) 0.8993(9) 0.3663(13)
C21 C 0.6036(5) 0.8871(9) 0.2307(12)
H13 H 0.5713 0.8491 0.2099
C22 C 0.6309(5) 0.9329(8) 0.1269(13)
H14 H 0.6171 0.9267 0.0360
C23 C 0.3162(5) 0.7917(9) 0.5924(12)
C24 C 0.3768(5) 0.8200(9) 0.5761(12)
C25 C 0.3935(5) 0.8502(8) 0.4507(12)
H15 H 0.3663 0.8524 0.3763
C26 C 0.4495(5) 0.8769(9) 0.4340(12)
C27 C 0.4888(5) 0.8717(9) 0.5443(13)
C28 C 0.4749(5) 0.8435(8) 0.6708(13)
H16 H 0.5025 0.8413 0.7443
C29 C 0.4176(5) 0.8180(8) 0.6860(12)
H17 H 0.4069 0.7994 0.7711
C30 C 0.4286(5) 0.9370(10) 0.2080(13)
H18 H 0.4478 0.9565 0.1298
H19 H 0.4065 0.9893 0.2390
H20 H 0.4035 0.8843 0.1838
O1 O 0.2814(3) 0.7957(6) 0.4903(7)
O2 O 0.7442(3) 1.1064(6) 0.0862(8)
O3 O 0.3038(3) 0.7639(6) 0.7080(7)
O4 O 0.1844(3) 0.8742(6) 0.6747(8)
H21 H 0.1734 0.8535 0.5957
H22 H 0.1559 0.8987 0.7111
O5 O 0.2490(3) 0.5739(6) 0.7727(8)
O6 O 0.1788(3) 0.6050(5) 0.9002(8)
O7 O 0.2171(4) 0.2253(7) 0.6399(10)
O8 O 0.1219(3) 0.1738(6) 0.7367(9)
O9 O 0.1509(3) 0.0977(7) 0.9545(9)
O10 O 0.1067(4) 0.0100(6) 0.7513(10)
O11 O -0.1696(3) 0.1854(6) 0.8700(8)
O12 O -0.1416(3) 0.2018(6) 1.0907(8)
O13 O 0.6971(3) 1.0112(6) -0.0659(8)
H23 H 0.7220 1.0280 -0.1152
O14 O 0.4704(3) 0.9085(7) 0.3144(9)
O15 O 0.5456(3) 0.9070(6) 0.5311(8)
O16 O 0.6328(3) 0.8292(7) 0.6113(9)
O17 O 0.5671(3) 0.7478(6) 0.4418(8)
S1 S 0.10919(14) 0.0921(3) 0.8380(4)
S2 S 0.59328(14) 0.8334(3) 0.4951(4)
Er1 Er 0.22137(2) 0.74532(4) 0.81085(5)
O1C O 0.2814(3) 0.7043(6) 0.9903(7)
O2B O 0.2558(3) 0.8936(6) 0.9138(8)
O11A O 0.1696(3) 0.6854(6) 0.6300(8)
O12B O 0.1416(3) 0.7982(6) 0.9093(8)
Er1A Er -0.22137(2) 0.24532(4) 0.68915(5)
Er1B Er -0.22137(2) 0.25468(4) 1.18915(5)
Er1B_2 Er 0.77863(2) 1.25468(4) 0.18915(5)
Er1C Er 0.22137(2) 0.75468(4) 0.31085(5)
loop_
_geom_bond_atom_site_label_1
_geom_bond_atom_site_label_2
_geom_bond_site_symmetry_1
_geom_bond_site_symmetry_2
C1 C2 1_555 1_555
C2 C3 1_555 1_555
C3 H1 1_555 1_555
C4 C3 1_555 1_555
H2 C4 1_555 1_555
C5 C4 1_555 1_555
C6 C5 1_555 1_555
C7 C2 1_555 1_555
H3 C7 1_555 1_555
C8 H4 1_555 1_555
H5 C8 1_555 1_555
H6 C8 1_555 1_555
C9 C10 1_555 1_555
C10 H7 1_555 1_555
C11 C10 1_555 1_555
H8 C11 1_555 1_555
C12 C11 1_555 1_555
C13 C12 1_555 1_555
H9 C13 1_555 1_555
C14 C9 1_555 1_555
H10 C14 1_555 1_555
C15 C12 1_555 1_555
C16 C17 1_555 1_555
C17 C18 1_555 1_555
C18 H11 1_555 1_555
C19 C18 1_555 1_555
H12 C19 1_555 1_555
C20 C19 1_555 1_555
C21 C20 1_555 1_555
H13 C21 1_555 1_555
C22 C17 1_555 1_555
H14 C22 1_555 1_555
C23 C24 1_555 1_555
C24 C25 1_555 1_555
C25 H15 1_555 1_555
C26 C25 1_555 1_555
C27 C26 1_555 1_555
C28 C27 1_555 1_555
H16 C28 1_555 1_555
C29 C24 1_555 1_555
H17 C29 1_555 1_555
C30 H18 1_555 1_555
H19 C30 1_555 1_555
H20 C30 1_555 1_555
O1 C23 1_555 1_555
O2 C16 1_555 1_555
O3 C23 1_555 1_555
O4 H21 1_555 1_555
H22 O4 1_555 1_555
O5 C1 1_555 1_555
O6 C1 1_555 1_555
O7 C6 1_555 1_555
O8 C5 1_555 1_555
O9 S1 1_555 1_555
O10 S1 1_555 1_555
O11 C15 1_555 1_555
O12 C15 1_555 1_555
O13 C16 1_555 1_555
H23 O13 1_555 1_555
O14 C26 1_555 1_555
O15 C27 1_555 1_555
O16 S2 1_555 1_555
O17 S2 1_555 1_555
S1 C9 1_555 1_555
S2 C20 1_555 1_555
Er1 O3 1_555 1_555
O1C Er1 1_555 1_555
O2B Er1 1_555 1_555
O11A Er1 1_555 1_555
O12B Er1 1_555 1_555
Er1A O11 1_555 1_555
Er1B O12 1_555 1_555
Er1B_2 O2 1_555 1_555
Er1C O1 1_555 1_555
C6 C7 1_555 1_555
C8 O7 1_555 1_555
C13 C14 1_555 1_555
C21 C22 1_555 1_555
C28 C29 1_555 1_555
C30 O14 1_555 1_555
O4 Er1 1_555 1_555
O5 Er1 1_555 1_555
O6 Er1 1_555 1_555
O8 S1 1_555 1_555
O15 S2 1_555 1_555

#END
