
#######################################################################
#
#                 Cambridge Crystallographic Data Centre
#                                CCDC 
#
#######################################################################
#
# If this CIF has been generated from an entry in the Cambridge 
# Structural Database, then it will include bibliographic, chemical, 
# crystal, experimental, refinement or atomic coordinate data resulting 
# from the CCDC's data processing and validation procedures.
#
#######################################################################

data_HITQOR
_symmetry_cell_setting           triclinic
_symmetry_space_group_name_H-M   'P -1'
_symmetry_Int_Tables_number      2
_space_group_name_Hall           '-P 1'
loop_
_symmetry_equiv_pos_site_id
_symmetry_equiv_pos_as_xyz
1 x,y,z
2 -x,-y,-z
_cell_length_a                   10.686(2)
_cell_length_b                   13.399(3)
_cell_length_c                   14.177(3)
_cell_angle_alpha                84.473(3)
_cell_angle_beta                 68.200(3)
_cell_angle_gamma                73.740(3)
_cell_volume                     1809.27
loop_
_atom_site_label
_atom_site_type_symbol
_atom_site_fract_x
_atom_site_fract_y
_atom_site_fract_z
I1 I 0.452621(16) 1.152886(12) 0.081863(12)
I2 I 0.329205(16) 0.646806(12) 0.515428(13)
Cu1 Cu 0.54828(3) 0.95190(2) 0.06908(2)
Cu2 Cu 0.56251(3) 0.51731(2) 0.39889(2)
N1 N 0.6342(2) 0.73231(15) 0.20718(15)
S1 S 0.75164(6) 0.88667(5) 0.10180(4)
S2 S 0.39101(6) 0.87479(5) 0.19306(4)
S3 S 0.73674(6) 0.60483(5) 0.33463(5)
C1 C 0.7466(2) 0.74688(18) 0.11849(18)
H1 H 0.7368 0.7232 0.0582
H2 H 0.8359 0.7038 0.1232
C2 C 0.5008(2) 0.74125(18) 0.20218(19)
H3 H 0.4469 0.7081 0.2634
H4 H 0.5153 0.7006 0.1426
C3 C 0.6476(3) 0.73634(18) 0.30301(18)
H5 H 0.5540 0.7607 0.3562
H6 H 0.7025 0.7859 0.3001
C4 C 0.9129(2) 0.87322(18) -0.00323(18)
C5 C 1.0390(3) 0.84817(19) 0.01429(19)
C6 C 1.1620(3) 0.8368(2) -0.0700(2)
H7 H 1.2482 0.8206 -0.0594
C7 C 1.1645(3) 0.8481(2) -0.1686(2)
C8 C 1.0379(3) 0.8744(2) -0.1831(2)
H8 H 1.0369 0.8835 -0.2501
C9 C 0.9132(3) 0.8873(2) -0.1014(2)
H9 H 0.8273 0.9059 -0.1127
C10 C 1.0453(3) 0.8342(3) 0.1192(2)
H10 H 1.1401 0.8302 0.1152
H11 H 1.0207 0.7699 0.1484
H12 H 0.9792 0.8934 0.1622
C11 C 1.3028(3) 0.8298(2) -0.2563(2)
H13 H 1.2862 0.8479 -0.3201
H14 H 1.3541 0.7564 -0.2584
H15 H 1.3578 0.8732 -0.2474
C12 C 0.3434(2) 0.92669(18) 0.31607(18)
C13 C 0.2233(2) 0.91181(17) 0.39468(18)
C14 C 0.1885(2) 0.95711(18) 0.48845(19)
H16 H 0.1077 0.9477 0.5427
C15 C 0.2660(2) 1.01528(18) 0.50632(18)
C16 C 0.3855(3) 1.02777(19) 0.42676(19)
H17 H 0.4412 1.0665 0.4375
C17 C 0.4234(2) 0.98435(19) 0.33263(19)
H18 H 0.5046 0.9938 0.2788
C18 C 0.1347(3) 0.85063(19) 0.37839(19)
H19 H 0.0527 0.8529 0.4404
H20 H 0.1893 0.7783 0.3619
H21 H 0.1043 0.8808 0.3222
C19 C 0.2213(3) 1.0679(2) 0.6073(2)
H22 H 0.1793 1.1422 0.6019
H23 H 0.3028 1.0586 0.6266
H24 H 0.1526 1.0370 0.6591
C20 C 0.7854(2) 0.63625(18) 0.43383(18)
C21 C 0.9263(3) 0.61983(19) 0.41881(19)
C22 C 0.9576(3) 0.6512(2) 0.4963(2)
H25 H 1.0529 0.6395 0.4880
C23 C 0.8558(3) 0.6988(2) 0.5850(2)
C24 C 0.7169(3) 0.7123(2) 0.59811(19)
H26 H 0.6453 0.7439 0.6587
C25 C 0.6818(3) 0.6802(2) 0.52389(19)
H27 H 0.5864 0.6882 0.5344
C26 C 1.0435(3) 0.5709(2) 0.3239(2)
H28 H 1.1333 0.5655 0.3304
H29 H 1.0366 0.6141 0.2653
H30 H 1.0368 0.5014 0.3144
C27 C 0.8947(3) 0.7379(3) 0.6641(2)
H31 H 0.8697 0.8140 0.6637
H32 H 0.9955 0.7110 0.6486
H33 H 0.8441 0.7138 0.7313
N2 N 0.5154(3) 0.47995(17) 0.28487(18)
C28 C 0.4788(3) 0.4624(2) 0.2249(2)
C29 C 0.4299(5) 0.4411(3) 0.1472(3)
H34 H 0.3857 0.3837 0.1692
H35 H 0.5094 0.4220 0.0832
H36 H 0.3618 0.5034 0.1370
I1A I 0.547379(16) 0.847114(12) -0.081863(12)
I2A I 0.670795(16) 0.353194(12) 0.484572(13)
Cu1A Cu 0.45172(3) 1.04810(2) -0.06908(2)
Cu2A Cu 0.43749(3) 0.48269(2) 0.60111(2)
N3 N 0.2177(6) 0.5161(5) 0.9927(4)
C30 C 0.1638(5) 0.5518(4) 0.9394(4)
C31 C 0.0934(4) 0.5955(3) 0.8698(3)
H37 H 0.0438 0.5476 0.8614
H38 H 0.1622 0.6066 0.8039
H39 H 0.0264 0.6621 0.8969
loop_
_geom_bond_atom_site_label_1
_geom_bond_atom_site_label_2
_geom_bond_site_symmetry_1
_geom_bond_site_symmetry_2
I1 Cu1 1_555 1_555
I2 Cu2 1_555 1_555
Cu1 S1 1_555 1_555
Cu2 S3 1_555 1_555
N1 C1 1_555 1_555
S1 C1 1_555 1_555
S2 Cu1 1_555 1_555
S3 C3 1_555 1_555
C1 H1 1_555 1_555
H2 C1 1_555 1_555
C2 N1 1_555 1_555
H3 C2 1_555 1_555
H4 C2 1_555 1_555
C3 N1 1_555 1_555
H5 C3 1_555 1_555
H6 C3 1_555 1_555
C4 S1 1_555 1_555
C5 C4 1_555 1_555
C6 C5 1_555 1_555
H7 C6 1_555 1_555
C7 C6 1_555 1_555
C8 C7 1_555 1_555
H8 C8 1_555 1_555
C9 C4 1_555 1_555
H9 C9 1_555 1_555
C10 C5 1_555 1_555
H10 C10 1_555 1_555
H11 C10 1_555 1_555
H12 C10 1_555 1_555
C11 C7 1_555 1_555
H13 C11 1_555 1_555
H14 C11 1_555 1_555
H15 C11 1_555 1_555
C12 S2 1_555 1_555
C13 C12 1_555 1_555
C14 C13 1_555 1_555
H16 C14 1_555 1_555
C15 C14 1_555 1_555
C16 C15 1_555 1_555
H17 C16 1_555 1_555
C17 C12 1_555 1_555
H18 C17 1_555 1_555
C18 C13 1_555 1_555
H19 C18 1_555 1_555
H20 C18 1_555 1_555
H21 C18 1_555 1_555
C19 C15 1_555 1_555
H22 C19 1_555 1_555
H23 C19 1_555 1_555
H24 C19 1_555 1_555
C20 S3 1_555 1_555
C21 C20 1_555 1_555
C22 C21 1_555 1_555
H25 C22 1_555 1_555
C23 C22 1_555 1_555
C24 C23 1_555 1_555
H26 C24 1_555 1_555
C25 C20 1_555 1_555
H27 C25 1_555 1_555
C26 C21 1_555 1_555
H28 C26 1_555 1_555
H29 C26 1_555 1_555
H30 C26 1_555 1_555
C27 C23 1_555 1_555
H31 C27 1_555 1_555
H32 C27 1_555 1_555
H33 C27 1_555 1_555
N2 Cu2 1_555 1_555
C28 N2 1_555 1_555
C29 C28 1_555 1_555
H34 C29 1_555 1_555
H35 C29 1_555 1_555
H36 C29 1_555 1_555
N3 C30 1_555 1_555
C30 C31 1_555 1_555
C31 H37 1_555 1_555
H38 C31 1_555 1_555
H39 C31 1_555 1_555
I1A Cu1 1_555 1_555
I2A Cu2 1_555 1_555
Cu1A I1 1_555 1_555
Cu2A I2 1_555 1_555
S2 C2 1_555 1_555
C8 C9 1_555 1_555
C16 C17 1_555 1_555
C24 C25 1_555 1_555
I1A Cu1A 1_555 1_555
I2A Cu2A 1_555 1_555

#END
