
#######################################################################
#
#                 Cambridge Crystallographic Data Centre
#                                CCDC 
#
#######################################################################
#
# If this CIF has been generated from an entry in the Cambridge 
# Structural Database, then it will include bibliographic, chemical, 
# crystal, experimental, refinement or atomic coordinate data resulting 
# from the CCDC's data processing and validation procedures.
#
#######################################################################

data_HITYIU
_symmetry_cell_setting           orthorhombic
_symmetry_space_group_name_H-M   'P b c m'
_symmetry_Int_Tables_number      57
_space_group_name_Hall           '-P 2c 2b'
loop_
_symmetry_equiv_pos_site_id
_symmetry_equiv_pos_as_xyz
1 x,y,z
2 -x,-y,1/2+z
3 x,1/2-y,-z
4 -x,1/2+y,1/2-z
5 -x,-y,-z
6 x,y,1/2-z
7 -x,1/2+y,z
8 x,1/2-y,1/2+z
_cell_length_a                   12.2612(6)
_cell_length_b                   16.8753(8)
_cell_length_c                   18.5387(9)
_cell_angle_alpha                90
_cell_angle_beta                 90
_cell_angle_gamma                90
_cell_volume                     3835.87
loop_
_atom_site_label
_atom_site_type_symbol
_atom_site_fract_x
_atom_site_fract_y
_atom_site_fract_z
Cu1 Cu 0.18446(2) -0.027631(18) 0.535645(15)
N1 N 0.32228(17) 0.03704(13) 0.52899(12)
O1 O 0.14861(19) 0.03050(12) 0.62381(10)
C1 C 0.3994(2) 0.03119(16) 0.58034(15)
H1 H 0.3876 -0.0030 0.6189
O2 O 0.25541(18) -0.13167(14) 0.60373(12)
H2 H 0.2117 -0.1672 0.6187
H3 H 0.3192 -0.1444 0.6174
N2 N 0.36253(18) 0.22752(13) 0.38278(12)
H4 H 0.3029 0.2249 0.4070
O3 O 0.0846(2) 0.13000(14) 0.55713(11)
C2 C 0.4954(2) 0.07409(17) 0.57790(15)
H5 H 0.5474 0.0685 0.6141
O4 O 0.04460(14) -0.08173(11) 0.54696(9)
H6 H 0.0126 -0.1223 0.5298
H7 H 0.0071 -0.0651 0.5824
O5 O 0.21411(16) -0.08130(11) 0.44382(9)
C3 C 0.5131(2) 0.12529(16) 0.52119(16)
H8 H 0.5779 0.1537 0.5179
O6 O 0.12565(18) 0.01285(13) 0.38369(11)
C4 C 0.4322(2) 0.13386(15) 0.46870(14)
O7 O 0.53940(17) 0.19265(14) 0.37596(13)
C5 C 0.3385(2) 0.08832(16) 0.47460(14)
H9 H 0.2848 0.0935 0.4395
C6 C 0.4491(2) 0.18732(16) 0.40542(15)
C7 C 0.3662(2) 0.27602(15) 0.31784(15)
H10 H 0.4363 0.3025 0.3151
H11 H 0.3101 0.3164 0.3206
C8 C 0.3493(4) 0.2271(2) 0.2500
H12 H 0.3999 0.1829 0.2500
H13 H 0.2758 0.2056 0.2500
C9 C 0.1055(2) 0.09859(17) 0.61689(13)
C10 C 0.07982(19) 0.14216(14) 0.68478(13)
C11 C 0.0320(3) 0.21649(17) 0.68506(18)
H14 H 0.0156 0.2416 0.6417
C12 C 0.0088(5) 0.2533(3) 0.7500
H15 H -0.0229 0.3034 0.7500
C13 C 0.1032(3) 0.1057(2) 0.7500
H16 H 0.1352 0.0558 0.7500
C14 C 0.18017(19) -0.04871(16) 0.38547(14)
C15 C 0.21374(19) -0.08789(14) 0.31537(12)
C16 C 0.2738(2) -0.15748(15) 0.31481(12)
H17 H 0.2939 -0.1810 0.3582
C17 C 0.3043(3) -0.1923(2) 0.2500
H18 H 0.3450 -0.2389 0.2500
C18 C 0.1831(2) -0.0534(2) 0.2500
H19 H 0.1420 -0.0071 0.2500
N1E N 0.32228(17) 0.03704(13) -0.02899(12)
C1E C 0.3994(2) 0.03119(16) -0.08034(15)
H1E H 0.3876 -0.0030 -0.1189
N2E N 0.36253(18) 0.22752(13) 0.11722(12)
H4E H 0.3029 0.2249 0.0930
C2E C 0.4954(2) 0.07409(17) -0.07790(15)
H5E H 0.5474 0.0685 -0.1141
C3E C 0.5131(2) 0.12529(16) -0.02119(16)
H8E H 0.5779 0.1537 -0.0179
C4E C 0.4322(2) 0.13386(15) 0.03130(14)
O7E O 0.53940(17) 0.19265(14) 0.12404(13)
C5E C 0.3385(2) 0.08832(16) 0.02540(14)
H9E H 0.2848 0.0935 0.0605
C6E C 0.4491(2) 0.18732(16) 0.09458(15)
C7E C 0.3662(2) 0.27602(15) 0.18216(15)
H10E H 0.4363 0.3025 0.1849
H11E H 0.3101 0.3164 0.1794
O1E O 0.14861(19) 0.03050(12) 0.87619(10)
O3E O 0.0846(2) 0.13000(14) 0.94287(11)
C9E C 0.1055(2) 0.09859(17) 0.88311(13)
C10E C 0.07982(19) 0.14216(14) 0.81522(13)
C11E C 0.0320(3) 0.21649(17) 0.81494(18)
H14E H 0.0156 0.2416 0.8583
O5E O 0.21411(16) -0.08130(11) 0.05618(9)
O6E O 0.12565(18) 0.01285(13) 0.11631(11)
C14E C 0.18017(19) -0.04871(16) 0.11453(14)
C15E C 0.21374(19) -0.08789(14) 0.18463(12)
C16E C 0.2738(2) -0.15748(15) 0.18519(12)
H17E H 0.2939 -0.1810 0.1418
Cu1E Cu 0.18446(2) -0.027631(18) -0.035645(15)
O2E O 0.25541(18) -0.13167(14) -0.10373(12)
H2E H 0.2117 -0.1672 -0.1187
H3E H 0.3192 -0.1444 -0.1174
O4E O 0.04460(14) -0.08173(11) -0.04696(9)
H6E H 0.0126 -0.1223 -0.0298
H7E H 0.0071 -0.0651 -0.0824
Cu1E_2 Cu 0.18446(2) -0.027631(18) 0.964355(15)
O1E_2 O 0.14861(19) 0.03050(12) -0.12381(10)
O8 O 0.2013(2) 0.2500 0.5000
H20 H 0.1898 0.2259 0.4689
H20B H 0.1898 0.2741 0.5311
O9 O -0.2012(7) 0.4026(3) 0.7500
H21 H -0.2393 0.3715 0.7134
H21E H -0.2393 0.3715 0.7866
O10 O 0.1773(7) -0.2500 0.5000
H22 H 0.1353 -0.2176 0.4637
H22B H 0.1353 -0.2824 0.5363
loop_
_geom_bond_atom_site_label_1
_geom_bond_atom_site_label_2
_geom_bond_site_symmetry_1
_geom_bond_site_symmetry_2
Cu1 N1 1_555 1_555
N1 C1 1_555 1_555
O1 Cu1 1_555 1_555
C1 H1 1_555 1_555
O2 Cu1 1_555 1_555
H2 O2 1_555 1_555
H3 O2 1_555 1_555
N2 H4 1_555 1_555
O3 C9 1_555 1_555
C2 C1 1_555 1_555
H5 C2 1_555 1_555
O4 Cu1 1_555 1_555
H6 O4 1_555 1_555
H7 O4 1_555 1_555
O5 Cu1 1_555 1_555
C3 C2 1_555 1_555
H8 C3 1_555 1_555
O6 C14 1_555 1_555
C4 C3 1_555 1_555
O7 C6 1_555 1_555
C5 N1 1_555 1_555
H9 C5 1_555 1_555
C6 N2 1_555 1_555
C7 N2 1_555 1_555
H10 C7 1_555 1_555
H11 C7 1_555 1_555
C8 C7 1_555 1_555
H12 C8 1_555 1_555
H13 C8 1_555 1_555
C9 O1 1_555 1_555
C10 C9 1_555 1_555
C11 C10 1_555 1_555
H14 C11 1_555 1_555
C12 C11 1_555 1_555
H15 C12 1_555 1_555
C13 C10 1_555 1_555
H16 C13 1_555 1_555
C14 O5 1_555 1_555
C15 C14 1_555 1_555
C16 C15 1_555 1_555
H17 C16 1_555 1_555
C17 C16 1_555 1_555
H18 C17 1_555 1_555
C18 C15 1_555 1_555
H19 C18 1_555 1_555
O8 H20 1_555 1_555
O9 H21 1_555 1_555
O10 H22 1_555 1_555
N1E C1E 1_555 1_555
C1E H1E 1_555 1_555
N2E H4E 1_555 1_555
C2E C1E 1_555 1_555
H5E C2E 1_555 1_555
C3E C2E 1_555 1_555
H8E C3E 1_555 1_555
C4E C3E 1_555 1_555
O7E C6E 1_555 1_555
C5E N1E 1_555 1_555
H9E C5E 1_555 1_555
C6E N2E 1_555 1_555
C7E C8 1_555 1_555
H10E C7E 1_555 1_555
H11E C7E 1_555 1_555
O1E C9E 1_555 1_555
O3E C9E 1_555 1_555
C9E C10E 1_555 1_555
C10E C13 1_555 1_555
C11E C12 1_555 1_555
H14E C11E 1_555 1_555
O5E C14E 1_555 1_555
O6E C14E 1_555 1_555
C14E C15E 1_555 1_555
C15E C18 1_555 1_555
C16E C17 1_555 1_555
H17E C16E 1_555 1_555
Cu1E N1E 1_555 1_555
O2E Cu1E 1_555 1_555
H2E O2E 1_555 1_555
H3E O2E 1_555 1_555
O4E Cu1E 1_555 1_555
H6E O4E 1_555 1_555
H7E O4E 1_555 1_555
Cu1E_2 O1E 1_555 1_555
O1E_2 Cu1E 1_555 1_555
H20B O8 1_555 1_555
H21E O9 1_555 1_555
H22B O10 1_555 1_555
C4 C5 1_555 1_555
C4 C6 1_555 1_555
N2E C7E 1_555 1_555
C4E C5E 1_555 1_555
C4E C6E 1_555 1_555
C10E C11E 1_555 1_555
O5E Cu1E 1_555 1_555
C15E C16E 1_555 1_555

#END
