
#######################################################################
#
#                 Cambridge Crystallographic Data Centre
#                                CCDC 
#
#######################################################################
#
# If this CIF has been generated from an entry in the Cambridge 
# Structural Database, then it will include bibliographic, chemical, 
# crystal, experimental, refinement or atomic coordinate data resulting 
# from the CCDC's data processing and validation procedures.
#
#######################################################################

data_HIWHOK
_symmetry_cell_setting           monoclinic
_symmetry_space_group_name_H-M   'P 21/c'
_symmetry_Int_Tables_number      14
_space_group_name_Hall           '-P 2ybc'
loop_
_symmetry_equiv_pos_site_id
_symmetry_equiv_pos_as_xyz
1 x,y,z
2 -x,1/2+y,1/2-z
3 -x,-y,-z
4 x,1/2-y,1/2+z
_cell_length_a                   10.456(2)
_cell_length_b                   5.550(1)
_cell_length_c                   8.669(3)
_cell_angle_alpha                90
_cell_angle_beta                 106.80(2)
_cell_angle_gamma                90
_cell_volume                     481.598
loop_
_atom_site_label
_atom_site_type_symbol
_atom_site_fract_x
_atom_site_fract_y
_atom_site_fract_z
Cu1 Cu 0.11259(3) -0.47215(5) 0.45842(4)
C1 C -0.1144(2) -0.8240(4) 0.2473(3)
N1 N -0.1074(2) -0.7084(4) 0.3586(3)
N2 N -0.2113(2) -0.2044(4) 0.5312(3)
C2 C -0.3543(3) -0.2221(5) 0.5149(4)
C3 C -0.4263(3) 0.0144(5) 0.5079(5)
H1 H -0.2012 -0.1169 0.4412
H2 H -0.1703 -0.1179 0.6273
H3 H -0.3644 -0.3100 0.6047
H4 H -0.3954 -0.3080 0.4186
H5 H -0.4175 0.1029 0.4177
H6 H -0.3858 0.1016 0.6039
C1A C 0.1144(2) -0.3240(4) 0.2527(3)
C1B C 0.1144(2) -0.1760(4) 0.7527(3)
N1B N 0.1074(2) -0.2916(4) 0.6414(3)
Cu1A Cu -0.11259(3) -0.97215(5) 0.04158(4)
Cu1C Cu 0.11259(3) -0.02785(5) 0.95842(4)
Cu1B Cu -0.11259(3) -0.52785(5) 0.54158(4)
C1C C -0.1144(2) -0.6760(4) 0.7473(3)
N2B N 0.2113(2) -0.7956(4) 0.4688(3)
H1B H 0.2012 -0.8831 0.5588
H2B H 0.1703 -0.8821 0.3727
C3B C -0.5737(3) -0.0144(5) 0.4921(5)
C2B C -0.6457(3) 0.2221(5) 0.4851(4)
N2B_2 N -0.7887(2) 0.2044(4) 0.4688(3)
H1B_2 H -0.7988 0.1169 0.5588
H2B_2 H -0.8297 0.1179 0.3727
H3B H -0.6356 0.3100 0.3953
H4B H -0.6046 0.3080 0.5814
H5B H -0.5825 -0.1029 0.5823
H6B H -0.6142 -0.1016 0.3961
Cu1_2 Cu -0.88741(3) 0.52785(5) 0.45842(4)
loop_
_geom_bond_atom_site_label_1
_geom_bond_atom_site_label_2
_geom_bond_site_symmetry_1
_geom_bond_site_symmetry_2
Cu1 N1 1_555 1_555
C1 N1 1_555 1_555
N1 Cu1B 1_555 1_555
N2 C2 1_555 1_555
C2 C3 1_555 1_555
C3 H5 1_555 1_555
H1 N2 1_555 1_555
H2 N2 1_555 1_555
H3 C2 1_555 1_555
H4 C2 1_555 1_555
H6 C3 1_555 1_555
C1A Cu1 1_555 1_555
C1B N1B 1_555 1_555
N1B Cu1 1_555 1_555
Cu1A C1 1_555 1_555
Cu1C C1B 1_555 1_555
Cu1B N2 1_555 1_555
C1C Cu1B 1_555 1_555
N2B Cu1 1_555 1_555
H1B N2B 1_555 1_555
H2B N2B 1_555 1_555
C3B C3 1_555 1_555
C2B C3B 1_555 1_555
N2B_2 C2B 1_555 1_555
H1B_2 N2B_2 1_555 1_555
H2B_2 N2B_2 1_555 1_555
H3B C2B 1_555 1_555
H4B C2B 1_555 1_555
H5B C3B 1_555 1_555
H6B C3B 1_555 1_555
Cu1_2 N2B_2 1_555 1_555
N1B Cu1B 1_555 1_555

#END
