
#######################################################################
#
#                 Cambridge Crystallographic Data Centre
#                                CCDC 
#
#######################################################################
#
# If this CIF has been generated from an entry in the Cambridge 
# Structural Database, then it will include bibliographic, chemical, 
# crystal, experimental, refinement or atomic coordinate data resulting 
# from the CCDC's data processing and validation procedures.
#
#######################################################################

data_HIWHEA
_symmetry_cell_setting           monoclinic
_symmetry_space_group_name_H-M   'C 2/c'
_symmetry_Int_Tables_number      15
_space_group_name_Hall           '-C 2yn'
loop_
_symmetry_equiv_pos_site_id
_symmetry_equiv_pos_as_xyz
1 x,y,z
2 -x,y,1/2-z
3 1/2+x,1/2+y,z
4 1/2-x,1/2+y,1/2-z
5 -x,-y,-z
6 x,-y,1/2+z
7 1/2-x,1/2-y,-z
8 1/2+x,1/2-y,1/2+z
_cell_length_a                   9.439(3)
_cell_length_b                   10.561(2)
_cell_length_c                   8.870(3)
_cell_angle_alpha                90
_cell_angle_beta                 98.32(3)
_cell_angle_gamma                90
_cell_volume                     874.902
loop_
_atom_site_label
_atom_site_type_symbol
_atom_site_fract_x
_atom_site_fract_y
_atom_site_fract_z
Cu1 Cu 0.52764(3) 0.61928(3) 0.49204(4)
C1 C 0.5010(2) 0.5300(2) 0.6862(3)
N1 N 0.6991(3) 0.7199(3) 0.4959(3)
N2 N 0.3427(2) 0.7168(2) 0.3927(2)
C2 C 0.3347(3) 0.8475(3) 0.4482(4)
C3 C 0.2042(3) 0.6530(3) 0.3943(4)
H1 H 0.3524 0.7248 0.2880
H2 H 0.4250 0.8875 0.4495
H3 H 0.2640 0.8928 0.3823
H4 H 0.1322 0.6965 0.3280
H5 H 0.2108 0.5682 0.3602
C1A C 0.4990(2) 0.5300(2) 0.8138(3)
N1F N 0.8009(3) 0.7801(3) 0.5041(3)
C3F C 0.2958(3) 0.8470(3) 0.6057(4)
N2F N 0.1573(2) 0.7832(2) 0.6073(2)
C2F C 0.1653(3) 0.6525(3) 0.5518(4)
H2F H 0.0750 0.6125 0.5505
H3F H 0.2360 0.6072 0.6177
H1F H 0.1476 0.7752 0.7120
H4F H 0.3678 0.8035 0.6720
H5F H 0.2892 0.9318 0.6398
Cu1A Cu 0.47236(3) 0.61928(3) 1.00796(4)
Cu1D Cu 0.47236(3) 0.38072(3) 0.50796(4)
C1D C 0.4990(2) 0.4700(2) 0.3138(3)
Cu1E Cu 0.52764(3) 0.38072(3) 0.99204(4)
Cu1F Cu 0.97236(3) 0.88072(3) 0.50796(4)
Cu1F_2 Cu -0.02764(3) 0.88072(3) 0.50796(4)
C1E C 0.5010(2) 0.4700(2) 1.1862(3)
N1A N 0.3009(3) 0.7199(3) 1.0041(3)
N2A N 0.6573(2) 0.7168(2) 1.1073(2)
H1A H 0.6476 0.7248 1.2120
loop_
_geom_bond_atom_site_label_1
_geom_bond_atom_site_label_2
_geom_bond_site_symmetry_1
_geom_bond_site_symmetry_2
Cu1 C1 1_555 1_555
C1 C1A 1_555 1_555
N1 Cu1 1_555 1_555
N2 Cu1 1_555 1_555
C2 N2 1_555 1_555
C3 N2 1_555 1_555
H1 N2 1_555 1_555
H2 C2 1_555 1_555
H3 C2 1_555 1_555
H4 C3 1_555 1_555
H5 C3 1_555 1_555
C1A Cu1A 1_555 1_555
N1F N1 1_555 1_555
C3F C2 1_555 1_555
N2F C3F 1_555 1_555
C2F C3 1_555 1_555
H2F C2F 1_555 1_555
H3F C2F 1_555 1_555
H1F N2F 1_555 1_555
H4F C3F 1_555 1_555
H5F C3F 1_555 1_555
Cu1A C1E 1_555 1_555
Cu1D C1 1_555 1_555
C1D Cu1 1_555 1_555
Cu1E C1A 1_555 1_555
Cu1F N1F 1_555 1_555
Cu1F_2 N2F 1_555 1_555
C1E Cu1E 1_555 1_555
N1A Cu1A 1_555 1_555
N2A Cu1A 1_555 1_555
H1A N2A 1_555 1_555
N2F C2F 1_555 1_555
Cu1D C1D 1_555 1_555

#END
