
#######################################################################
#
#                 Cambridge Crystallographic Data Centre
#                                CCDC 
#
#######################################################################
#
# If this CIF has been generated from an entry in the Cambridge 
# Structural Database, then it will include bibliographic, chemical, 
# crystal, experimental, refinement or atomic coordinate data resulting 
# from the CCDC's data processing and validation procedures.
#
#######################################################################

data_HIWXER01
_symmetry_cell_setting           monoclinic
_symmetry_space_group_name_H-M   'C 2/c'
_symmetry_Int_Tables_number      15
_space_group_name_Hall           '-C 2yn'
loop_
_symmetry_equiv_pos_site_id
_symmetry_equiv_pos_as_xyz
1 x,y,z
2 1/2+x,1/2+y,z
3 -x,y,1/2-z
4 1/2-x,1/2+y,1/2-z
5 -x,-y,-z
6 1/2-x,1/2-y,-z
7 x,-y,1/2+z
8 1/2+x,1/2-y,1/2+z
_cell_length_a                   16.0871(15)
_cell_length_b                   8.5505(8)
_cell_length_c                   14.2113(13)
_cell_angle_alpha                90
_cell_angle_beta                 111.194(2)
_cell_angle_gamma                90
_cell_volume                     1822.58
loop_
_atom_site_label
_atom_site_type_symbol
_atom_site_fract_x
_atom_site_fract_y
_atom_site_fract_z
Zn1 Zn 0.0000 0.12327(12) 0.2500
Zn2 Zn -0.22279(4) 0.06985(8) 0.13437(5)
Zn3 Zn -0.09514(4) 0.31452(9) 0.02872(5)
O1 O -0.1035(3) 0.1226(5) 0.1116(3)
O2 O -0.2998(3) 0.0663(5) -0.0112(3)
N1 N 0.1571(3) -0.0636(6) 0.2415(4)
N2 N 0.0681(3) -0.0512(7) 0.1949(4)
N3 N 0.0408(3) -0.1299(7) 0.1115(4)
N4 N 0.1116(3) -0.1976(6) 0.1001(4)
N5 N 0.3330(3) -0.0503(6) 0.3439(4)
N6 N 0.4162(3) -0.0373(6) 0.4123(4)
N7 N 0.4683(3) -0.1293(6) 0.3845(4)
N8 N 0.4220(3) -0.2064(6) 0.2986(4)
N9 N 0.2667(3) -0.2113(6) 0.1941(4)
C1 C 0.1849(4) -0.1576(7) 0.1810(4)
C2 C 0.3387(4) -0.1558(7) 0.2751(4)
Zn1A Zn 0.5000 -0.37673(12) 0.2500
Zn1A_2 Zn -0.5000 -0.37673(12) 0.2500
Zn2B Zn 0.22279(4) 0.06985(8) 0.36563(5)
Zn2A Zn 0.27721(4) -0.43015(8) 0.13437(5)
Zn2C Zn -0.27721(4) -0.43015(8) 0.36563(5)
Zn2E Zn -0.27721(4) 0.43015(8) -0.13437(5)
Zn3B Zn 0.09514(4) 0.31452(9) 0.47128(5)
Zn3E Zn -0.40486(4) 0.18548(9) -0.02872(5)
Zn3D Zn 0.09514(4) -0.31452(9) -0.02872(5)
Zn3C Zn 0.59514(4) -0.18548(9) 0.47128(5)
Zn3F Zn -0.09514(4) -0.31452(9) 0.52872(5)
Zn3A Zn -0.59514(4) -0.18548(9) 0.02872(5)
O1B O 0.1035(3) 0.1226(5) 0.3884(3)
O2E O -0.2002(3) 0.4337(5) 0.0112(3)
O2B O 0.2998(3) 0.0663(5) 0.5112(3)
O2G O 0.2002(3) 0.4337(5) 0.4888(3)
N1B N -0.1571(3) -0.0636(6) 0.2585(4)
N2B N -0.0681(3) -0.0512(7) 0.3051(4)
N3B N -0.0408(3) -0.1299(7) 0.3885(4)
N4B N -0.1116(3) -0.1976(6) 0.3999(4)
N4D N -0.1116(3) 0.1976(6) -0.1001(4)
N4F N 0.1116(3) 0.1976(6) 0.6001(4)
N5B N -0.3330(3) -0.0503(6) 0.1561(4)
N6B N -0.4162(3) -0.0373(6) 0.0877(4)
N7B N -0.4683(3) -0.1293(6) 0.1155(4)
N7C N 0.0317(3) 0.3707(6) 0.1155(4)
N7A N -0.0317(3) 0.3707(6) 0.3845(4)
N8B N -0.4220(3) -0.2064(6) 0.2014(4)
N8A N -0.0780(3) 0.2936(6) 0.2986(4)
N8C N 0.0780(3) 0.2936(6) 0.2014(4)
N9B N -0.2667(3) -0.2113(6) 0.3059(4)
N9A N -0.2333(3) 0.2887(6) 0.1941(4)
N9C N 0.2333(3) 0.2887(6) 0.3059(4)
C1B C -0.1849(4) -0.1576(7) 0.3190(4)
C2B C -0.3387(4) -0.1558(7) 0.2249(4)
O3 O -0.1543(7) -0.2161(16) 0.0432(13)
loop_
_geom_bond_atom_site_label_1
_geom_bond_atom_site_label_2
_geom_bond_site_symmetry_1
_geom_bond_site_symmetry_2
Zn1 O1 1_555 1_555
Zn2 O1 1_555 1_555
Zn3 O1 1_555 1_555
O2 Zn2 1_555 1_555
N1 N2 1_555 1_555
N2 Zn1 1_555 1_555
N3 N2 1_555 1_555
N4 N3 1_555 1_555
N5 N6 1_555 1_555
N6 N7 1_555 1_555
N7 N8 1_555 1_555
N8 C2 1_555 1_555
N9 C1 1_555 1_555
C1 N1 1_555 1_555
C2 N5 1_555 1_555
Zn1A N8 1_555 1_555
Zn1A_2 N8B 1_555 1_555
Zn2B N1 1_555 1_555
Zn2A N9 1_555 1_555
Zn2C N9B 1_555 1_555
Zn2E O2E 1_555 1_555
Zn3B O1B 1_555 1_555
Zn3E O2 1_555 1_555
Zn3D N4 1_555 1_555
Zn3C N7 1_555 1_555
Zn3F N4B 1_555 1_555
Zn3A N7B 1_555 1_555
O1B Zn1 1_555 1_555
O2E Zn3 1_555 1_555
O2B Zn2B 1_555 1_555
O2G Zn3B 1_555 1_555
N1B Zn2 1_555 1_555
N2B Zn1 1_555 1_555
N3B N2B 1_555 1_555
N4B N3B 1_555 1_555
N4D Zn3 1_555 1_555
N4F Zn3B 1_555 1_555
N5B Zn2 1_555 1_555
N6B N5B 1_555 1_555
N7B N6B 1_555 1_555
N7C Zn3 1_555 1_555
N7A Zn3B 1_555 1_555
N8B N7B 1_555 1_555
N8A Zn1 1_555 1_555
N8C Zn1 1_555 1_555
N9B C1B 1_555 1_555
N9A Zn2 1_555 1_555
N9C Zn2B 1_555 1_555
C1B N1B 1_555 1_555
C2B N5B 1_555 1_555
N4 C1 1_555 1_555
N5 Zn2B 1_555 1_555
N9 C2 1_555 1_555
Zn2B O1B 1_555 1_555
N1B N2B 1_555 1_555
N4B C1B 1_555 1_555
N7C N8C 1_555 1_555
N7A N8A 1_555 1_555
N8B C2B 1_555 1_555
N9B C2B 1_555 1_555

#END
