
#######################################################################
#
#                 Cambridge Crystallographic Data Centre
#                                CCDC 
#
#######################################################################
#
# If this CIF has been generated from an entry in the Cambridge 
# Structural Database, then it will include bibliographic, chemical, 
# crystal, experimental, refinement or atomic coordinate data resulting 
# from the CCDC's data processing and validation procedures.
#
#######################################################################

data_HIWZAP
_symmetry_cell_setting           orthorhombic
_symmetry_space_group_name_H-M   'P 21 21 21'
_symmetry_Int_Tables_number      19
_space_group_name_Hall           'P 2ac 2ab'
loop_
_symmetry_equiv_pos_site_id
_symmetry_equiv_pos_as_xyz
1 x,y,z
2 1/2-x,-y,1/2+z
3 -x,1/2+y,1/2-z
4 1/2+x,1/2-y,-z
_cell_length_a                   9.6253(7)
_cell_length_b                   9.7190(7)
_cell_length_c                   17.5108(12)
_cell_angle_alpha                90
_cell_angle_beta                 90
_cell_angle_gamma                90
_cell_volume                     1638.11
loop_
_atom_site_label
_atom_site_type_symbol
_atom_site_fract_x
_atom_site_fract_y
_atom_site_fract_z
Na1 Na 0.33848(9) 0.30548(7) 0.03647(5)
H1 H 0.105(3) 0.235(3) -0.0159(15)
N1 N 0.34301(19) 0.52911(17) -0.03301(11)
N2 N 0.1980(2) 0.4108(2) 0.14164(11)
N3 N 0.3343(2) 0.09550(18) 0.11570(10)
B1 B 0.1391(3) 0.1865(3) -0.07113(14)
H2 H 0.234(4) 0.135(3) -0.0631(19)
H3 H 0.064(4) 0.106(4) -0.0841(17)
H4 H 0.140(4) 0.254(4) -0.118(2)
C1 C 0.4561(2) 0.6064(2) -0.04132(14)
H5 H 0.5402 0.5721 -0.0235
C2 C 0.4550(3) 0.7346(3) -0.07502(15)
H6 H 0.5366 0.7850 -0.0798
C3 C 0.3307(3) 0.7865(2) -0.10144(14)
H7 H 0.3268 0.8727 -0.1244
C4 C 0.2144(3) 0.7095(3) -0.09319(16)
H8 H 0.1289 0.7424 -0.1100
C5 C 0.2245(2) 0.5803(3) -0.05929(16)
H9 H 0.1443 0.5274 -0.0548
C6 C 0.2433(3) 0.4933(2) 0.19693(16)
H10 H 0.3352 0.5229 0.1954
C7 C 0.1595(3) 0.5375(2) 0.25720(15)
H11 H 0.1951 0.5948 0.2950
C8 C 0.0250(3) 0.4953(3) 0.25966(15)
H12 H -0.0337 0.5242 0.2987
C9 C -0.0221(3) 0.4095(3) 0.20359(14)
H13 H -0.1134 0.3785 0.2040
C10 C 0.0665(3) 0.3701(3) 0.14695(14)
H14 H 0.0327 0.3108 0.1096
C11 C 0.3600(3) 0.1047(2) 0.19066(14)
H15 H 0.3676 0.1919 0.2121
C12 C 0.3758(2) -0.0076(3) 0.23800(14)
H16 H 0.3923 0.0040 0.2899
C13 C 0.3668(3) -0.1361(2) 0.20709(15)
H17 H 0.3783 -0.2137 0.2375
C14 C 0.3403(3) -0.1493(2) 0.12959(16)
H18 H 0.3327 -0.2355 0.1070
C15 C 0.3254(2) -0.0304(2) 0.08687(13)
H19 H 0.3082 -0.0393 0.0349
Na1C Na -0.16152(9) 0.19452(7) -0.03647(5)
H1C H 0.605(3) 0.265(3) 0.0159(15)
H1C_2 H -0.395(3) 0.265(3) 0.0159(15)
H2C H -0.266(4) 0.365(3) 0.0631(19)
H3C H 0.564(4) 0.394(4) 0.0841(17)
loop_
_geom_bond_atom_site_label_1
_geom_bond_atom_site_label_2
_geom_bond_site_symmetry_1
_geom_bond_site_symmetry_2
Na1 H1 1_555 1_555
H1 B1 1_555 1_555
N1 Na1 1_555 1_555
N2 Na1 1_555 1_555
N3 Na1 1_555 1_555
B1 H2 1_555 1_555
H2 Na1 1_555 1_555
H3 B1 1_555 1_555
H4 B1 1_555 1_555
C1 N1 1_555 1_555
H5 C1 1_555 1_555
C2 C1 1_555 1_555
H6 C2 1_555 1_555
C3 C2 1_555 1_555
H7 C3 1_555 1_555
C4 C3 1_555 1_555
H8 C4 1_555 1_555
C5 N1 1_555 1_555
H9 C5 1_555 1_555
C6 N2 1_555 1_555
H10 C6 1_555 1_555
C7 C6 1_555 1_555
H11 C7 1_555 1_555
C8 C7 1_555 1_555
H12 C8 1_555 1_555
C9 C8 1_555 1_555
H13 C9 1_555 1_555
C10 N2 1_555 1_555
H14 C10 1_555 1_555
C11 N3 1_555 1_555
H15 C11 1_555 1_555
C12 C11 1_555 1_555
H16 C12 1_555 1_555
C13 C12 1_555 1_555
H17 C13 1_555 1_555
C14 C13 1_555 1_555
H18 C14 1_555 1_555
C15 N3 1_555 1_555
H19 C15 1_555 1_555
Na1C H1 1_555 1_555
H1C Na1 1_555 1_555
H1C_2 Na1C 1_555 1_555
H2C Na1C 1_555 1_555
H3C Na1 1_555 1_555
H3 Na1C 1_555 1_555
C4 C5 1_555 1_555
C9 C10 1_555 1_555
C14 C15 1_555 1_555

#END
