
#######################################################################
#
#                 Cambridge Crystallographic Data Centre
#                                CCDC 
#
#######################################################################
#
# If this CIF has been generated from an entry in the Cambridge 
# Structural Database, then it will include bibliographic, chemical, 
# crystal, experimental, refinement or atomic coordinate data resulting 
# from the CCDC's data processing and validation procedures.
#
#######################################################################

data_HIXGOK
_symmetry_cell_setting           triclinic
_symmetry_space_group_name_H-M   'P -1'
_symmetry_Int_Tables_number      2
_space_group_name_Hall           '-P 1'
loop_
_symmetry_equiv_pos_site_id
_symmetry_equiv_pos_as_xyz
1 x,y,z
2 -x,-y,-z
_cell_length_a                   6.3524(13)
_cell_length_b                   10.275(2)
_cell_length_c                   10.957(2)
_cell_angle_alpha                91.31(3)
_cell_angle_beta                 99.86(3)
_cell_angle_gamma                99.73(3)
_cell_volume                     693.485
loop_
_atom_site_label
_atom_site_type_symbol
_atom_site_fract_x
_atom_site_fract_y
_atom_site_fract_z
As1 As 0.21135(11) 0.13816(8) -0.23357(7)
K1 K -0.2589(3) 0.07977(18) -0.08081(17)
N1 N 0.2789(10) -0.0059(6) -0.1600(6)
N2 N 0.1912(11) 0.2402(7) -0.0912(7)
N3 N 0.4972(9) 0.2245(6) -0.2546(6)
C1 C 0.1844(14) -0.1317(8) -0.2232(9)
H1 H 0.2057 -0.1930 -0.1567
C2 C -0.0623(14) -0.1599(10) -0.2648(11)
H2 H -0.1296 -0.1401 -0.1951
H3 H -0.1012 -0.1008 -0.3293
C3 C -0.1550(15) -0.3022(10) -0.3136(13)
H4 H -0.1507 -0.3595 -0.2445
H5 H -0.3058 -0.3075 -0.3522
C4 C -0.0339(17) -0.3505(11) -0.4057(13)
H6 H -0.0812 -0.4451 -0.4208
H7 H -0.0707 -0.3092 -0.4834
C5 C 0.2077(15) -0.3228(9) -0.3657(10)
H8 H 0.2750 -0.3409 -0.4358
H9 H 0.2482 -0.3822 -0.3018
C6 C 0.2934(13) -0.1832(9) -0.3169(10)
H10 H 0.4458 -0.1765 -0.2815
H11 H 0.2843 -0.1263 -0.3864
C7 C 0.0919(16) 0.3580(10) -0.1134(12)
H12 H -0.0330 0.3376 -0.1782
H13 H 0.1951 0.4275 -0.1378
H14 H 0.0486 0.3862 -0.0388
C8 C 0.3783(15) 0.2665(9) 0.0082(9)
H15 H 0.4361 0.1868 0.0237
H16 H 0.3353 0.2972 0.0820
H17 H 0.4872 0.3330 -0.0154
C9 C 0.5040(15) 0.3623(9) -0.2819(10)
H18 H 0.4664 0.4091 -0.2143
H19 H 0.4025 0.3687 -0.3563
H20 H 0.6476 0.4003 -0.2934
C10 C 0.5555(14) 0.1572(10) -0.3612(9)
H21 H 0.5540 0.0655 -0.3457
H22 H 0.6980 0.1976 -0.3726
H23 H 0.4524 0.1647 -0.4346
K1A K -0.7411(3) -0.07977(18) 0.08081(17)
K1A_2 K 0.2589(3) -0.07977(18) 0.08081(17)
N1_2 N -0.7211(10) -0.0059(6) -0.1600(6)
N1A N -0.2789(10) 0.0059(6) 0.1600(6)
N3_2 N -0.5028(9) 0.2245(6) -0.2546(6)
K1_2 K 0.7411(3) 0.07977(18) -0.08081(17)
N3A N -0.4972(9) -0.2245(6) 0.2546(6)
As1A As -0.21135(11) -0.13816(8) 0.23357(7)
N1A_2 N 0.7211(10) 0.0059(6) 0.1600(6)
N2A N -0.1912(11) -0.2402(7) 0.0912(7)
N3A_2 N 0.5028(9) -0.2245(6) 0.2546(6)
C1A C -0.1844(14) 0.1317(8) 0.2232(9)
C9A C -0.5040(15) -0.3623(9) 0.2819(10)
C10A C -0.5555(14) -0.1572(10) 0.3612(9)
C7A C -0.0919(16) -0.3580(10) 0.1134(12)
C8A C -0.3783(15) -0.2665(9) -0.0082(9)
H1A H -0.2057 0.1930 0.1567
C2A C 0.0623(14) 0.1599(10) 0.2648(11)
C6A C -0.2934(13) 0.1832(9) 0.3169(10)
H18A H -0.4664 -0.4091 0.2143
H19A H -0.4025 -0.3687 0.3563
H20A H -0.6476 -0.4003 0.2934
H21A H -0.5540 -0.0655 0.3457
H22A H -0.6980 -0.1976 0.3726
H23A H -0.4524 -0.1647 0.4346
H12A H 0.0330 -0.3376 0.1782
H13A H -0.1951 -0.4275 0.1378
H14A H -0.0486 -0.3862 0.0388
H15A H -0.4361 -0.1868 -0.0237
H16A H -0.3353 -0.2972 -0.0820
H17A H -0.4872 -0.3330 0.0154
H2A H 0.1296 0.1401 0.1951
H3A H 0.1012 0.1008 0.3293
C3A C 0.1550(15) 0.3022(10) 0.3136(13)
C5A C -0.2077(15) 0.3228(9) 0.3657(10)
H10A H -0.4458 0.1765 0.2815
H11A H -0.2843 0.1263 0.3864
H4A H 0.1507 0.3595 0.2445
H5A H 0.3058 0.3075 0.3522
C4A C 0.0339(17) 0.3505(11) 0.4057(13)
H8A H -0.2750 0.3409 0.4358
H9A H -0.2482 0.3822 0.3018
H6A H 0.0812 0.4451 0.4208
H7A H 0.0707 0.3092 0.4834
loop_
_geom_bond_atom_site_label_1
_geom_bond_atom_site_label_2
_geom_bond_site_symmetry_1
_geom_bond_site_symmetry_2
As1 K1 1_555 1_555
K1 N2 1_555 1_555
N1 As1 1_555 1_555
N2 As1 1_555 1_555
N3 As1 1_555 1_555
C1 N1 1_555 1_555
H1 C1 1_555 1_555
C2 C1 1_555 1_555
H2 C2 1_555 1_555
H3 C2 1_555 1_555
C3 C2 1_555 1_555
H4 C3 1_555 1_555
H5 C3 1_555 1_555
C4 C3 1_555 1_555
H6 C4 1_555 1_555
H7 C4 1_555 1_555
C5 C4 1_555 1_555
H8 C5 1_555 1_555
H9 C5 1_555 1_555
C6 C1 1_555 1_555
H10 C6 1_555 1_555
H11 C6 1_555 1_555
C7 N2 1_555 1_555
H12 C7 1_555 1_555
H13 C7 1_555 1_555
H14 C7 1_555 1_555
C8 N2 1_555 1_555
H15 C8 1_555 1_555
H16 C8 1_555 1_555
H17 C8 1_555 1_555
C9 N3 1_555 1_555
H18 C9 1_555 1_555
H19 C9 1_555 1_555
H20 C9 1_555 1_555
C10 N3 1_555 1_555
H21 C10 1_555 1_555
H22 C10 1_555 1_555
H23 C10 1_555 1_555
K1A N1_2 1_555 1_555
K1A_2 N1 1_555 1_555
N1_2 K1 1_555 1_555
N1A K1 1_555 1_555
N3_2 K1 1_555 1_555
K1_2 N1 1_555 1_555
N3A K1A 1_555 1_555
As1A K1A_2 1_555 1_555
N1A_2 K1A_2 1_555 1_555
N2A K1A_2 1_555 1_555
N3A_2 K1A_2 1_555 1_555
C1A N1A 1_555 1_555
C9A N3A 1_555 1_555
C10A N3A 1_555 1_555
C7A N2A 1_555 1_555
C8A N2A 1_555 1_555
H1A C1A 1_555 1_555
C2A C1A 1_555 1_555
C6A C1A 1_555 1_555
H18A C9A 1_555 1_555
H19A C9A 1_555 1_555
H20A C9A 1_555 1_555
H21A C10A 1_555 1_555
H22A C10A 1_555 1_555
H23A C10A 1_555 1_555
H12A C7A 1_555 1_555
H13A C7A 1_555 1_555
H14A C7A 1_555 1_555
H15A C8A 1_555 1_555
H16A C8A 1_555 1_555
H17A C8A 1_555 1_555
H2A C2A 1_555 1_555
H3A C2A 1_555 1_555
C3A C2A 1_555 1_555
C5A C6A 1_555 1_555
H10A C6A 1_555 1_555
H11A C6A 1_555 1_555
H4A C3A 1_555 1_555
H5A C3A 1_555 1_555
C4A C3A 1_555 1_555
H8A C5A 1_555 1_555
H9A C5A 1_555 1_555
H6A C4A 1_555 1_555
H7A C4A 1_555 1_555
N3 K1_2 1_555 1_555
C5 C6 1_555 1_555
K1A N1A 1_555 1_555
N1A As1A 1_555 1_555
K1_2 N1A_2 1_555 1_555
N3A As1A 1_555 1_555
As1A N2A 1_555 1_555
C5A C4A 1_555 1_555

#END
