
#######################################################################
#
#                 Cambridge Crystallographic Data Centre
#                                CCDC 
#
#######################################################################
#
# If this CIF has been generated from an entry in the Cambridge 
# Structural Database, then it will include bibliographic, chemical, 
# crystal, experimental, refinement or atomic coordinate data resulting 
# from the CCDC's data processing and validation procedures.
#
#######################################################################

data_HIXVIU
_symmetry_cell_setting           monoclinic
_symmetry_space_group_name_H-M   'P 21/c'
_symmetry_Int_Tables_number      14
_space_group_name_Hall           '-P 2ybc'
loop_
_symmetry_equiv_pos_site_id
_symmetry_equiv_pos_as_xyz
1 x,y,z
2 -x,1/2+y,1/2-z
3 -x,-y,-z
4 x,1/2-y,1/2+z
_cell_length_a                   13.9769(18)
_cell_length_b                   19.184(2)
_cell_length_c                   12.5471(16)
_cell_angle_alpha                90
_cell_angle_beta                 94.410(2)
_cell_angle_gamma                90
_cell_volume                     3354.33
loop_
_atom_site_label
_atom_site_type_symbol
_atom_site_fract_x
_atom_site_fract_y
_atom_site_fract_z
Cd1 Cd 0.194822(15) 0.084919(11) 0.203785(16)
S1 S -0.31836(6) 0.35025(4) 0.08375(9)
N1 N 0.23355(17) 0.01619(13) 0.05530(19)
N2 N 0.36344(18) 0.03734(13) 0.2253(2)
N3 N 0.10224(16) -0.01555(12) 0.25052(19)
N4 N 0.20259(17) 0.06940(12) 0.39330(18)
O1 O 0.06340(18) 0.15430(14) 0.2315(2)
O2 O 0.0340(2) 0.11038(15) 0.0722(2)
O3 O -0.30286(18) 0.39964(13) 0.1685(3)
O4 O -0.32283(18) 0.37284(14) -0.0246(3)
O5 O -0.70787(19) 0.19175(15) 0.2459(3)
O6 O -0.7333(2) 0.17331(17) 0.0742(3)
C1 C 0.1720(2) 0.00765(18) -0.0295(2)
H1 H 0.1146 0.0324 -0.0328
C2 C 0.1894(3) -0.03659(18) -0.1137(3)
H2 H 0.1437 -0.0419 -0.1710
C3 C 0.2728(3) -0.07154(18) -0.1114(3)
H3 H 0.2852 -0.1012 -0.1673
C4 C 0.3411(2) -0.06325(17) -0.0247(3)
C5 C 0.4314(3) -0.09814(19) -0.0173(3)
H4 H 0.4461 -0.1286 -0.0713
C6 C 0.4955(3) -0.08781(18) 0.0659(4)
H5 H 0.5542 -0.1109 0.0683
C7 C 0.4755(2) -0.04213(18) 0.1510(3)
C8 C 0.5418(3) -0.0287(2) 0.2384(3)
H6 H 0.6012 -0.0509 0.2438
C9 C 0.5186(3) 0.0164(2) 0.3143(3)
H7 H 0.5621 0.0262 0.3722
C10 C 0.4284(3) 0.0486(2) 0.3055(3)
H8 H 0.4135 0.0796 0.3589
C11 C 0.3869(2) -0.00731(15) 0.1480(2)
C12 C 0.3183(2) -0.01838(15) 0.0582(2)
C13 C 0.0497(2) -0.05495(17) 0.1823(3)
H9 H 0.0507 -0.0455 0.1097
C14 C -0.0073(2) -0.10995(17) 0.2133(3)
H10 H -0.0438 -0.1360 0.1626
C15 C -0.0085(2) -0.12481(16) 0.3194(3)
H11 H -0.0463 -0.1610 0.3420
C16 C 0.0476(2) -0.08535(14) 0.3938(2)
C17 C 0.0495(2) -0.09771(16) 0.5065(3)
H12 H 0.0136 -0.1341 0.5319
C18 C 0.1020(2) -0.05762(17) 0.5757(3)
H13 H 0.1030 -0.0673 0.6484
C19 C 0.1565(2) -0.00024(15) 0.5407(2)
C20 C 0.2084(2) 0.04494(18) 0.6114(3)
H14 H 0.2116 0.0367 0.6846
C21 C 0.2540(3) 0.10084(18) 0.5721(3)
H15 H 0.2879 0.1316 0.6182
C22 C 0.2494(2) 0.11154(17) 0.4629(2)
H16 H 0.2807 0.1501 0.4370
C23 C 0.15583(19) 0.01429(14) 0.4312(2)
C24 C 0.10092(19) -0.02993(14) 0.3558(2)
C25 C 0.0141(2) 0.14934(18) 0.1445(3)
C26 C -0.0742(2) 0.19543(15) 0.1304(3)
C27 C -0.1109(2) 0.22776(17) 0.2169(3)
H17 H -0.0834 0.2189 0.2855
C28 C -0.1873(2) 0.27266(18) 0.2033(3)
H18 H -0.2111 0.2942 0.2622
C29 C -0.2282(2) 0.28551(15) 0.1025(3)
C30 C -0.1947(2) 0.25266(17) 0.0152(3)
H19 H -0.2235 0.2608 -0.0529
C31 C -0.1176(2) 0.20739(18) 0.0297(3)
H20 H -0.0950 0.1849 -0.0290
C32 C -0.6871(3) 0.19946(18) 0.1527(4)
C33 C -0.5970(2) 0.23992(15) 0.1344(3)
C34 C -0.5367(2) 0.2608(2) 0.2193(3)
H21 H -0.5536 0.2520 0.2883
C35 C -0.4516(2) 0.2945(2) 0.2053(3)
H22 H -0.4115 0.3085 0.2639
C36 C -0.4272(2) 0.30688(14) 0.1031(3)
C37 C -0.4871(2) 0.28785(17) 0.0165(3)
H23 H -0.4707 0.2977 -0.0524
C38 C -0.5721(2) 0.25379(16) 0.0323(3)
H24 H -0.6126 0.2402 -0.0263
Cd1_2 Cd -0.805178(15) 0.084919(11) 0.203785(16)
O5_2 O 0.29213(19) 0.19175(15) 0.2459(3)
O6_2 O 0.2667(2) 0.17331(17) 0.0742(3)
O7 O 0.0916(3) 0.2408(2) 0.4336(5)
O8 O 0.2656(2) 0.1557(2) 0.8426(3)
loop_
_geom_bond_atom_site_label_1
_geom_bond_atom_site_label_2
_geom_bond_site_symmetry_1
_geom_bond_site_symmetry_2
Cd1 N1 1_555 1_555
S1 O3 1_555 1_555
N1 C1 1_555 1_555
N2 Cd1 1_555 1_555
N3 Cd1 1_555 1_555
N4 Cd1 1_555 1_555
O1 Cd1 1_555 1_555
O2 Cd1 1_555 1_555
O4 S1 1_555 1_555
O5 C32 1_555 1_555
O6 C32 1_555 1_555
C1 H1 1_555 1_555
C2 C1 1_555 1_555
H2 C2 1_555 1_555
C3 C2 1_555 1_555
H3 C3 1_555 1_555
C4 C3 1_555 1_555
C5 C4 1_555 1_555
H4 C5 1_555 1_555
C6 C5 1_555 1_555
H5 C6 1_555 1_555
C7 C6 1_555 1_555
C8 C7 1_555 1_555
H6 C8 1_555 1_555
C9 C8 1_555 1_555
H7 C9 1_555 1_555
C10 N2 1_555 1_555
H8 C10 1_555 1_555
C11 N2 1_555 1_555
C12 N1 1_555 1_555
C13 N3 1_555 1_555
H9 C13 1_555 1_555
C14 C13 1_555 1_555
H10 C14 1_555 1_555
C15 C14 1_555 1_555
H11 C15 1_555 1_555
C16 C15 1_555 1_555
C17 C16 1_555 1_555
H12 C17 1_555 1_555
C18 C17 1_555 1_555
H13 C18 1_555 1_555
C19 C18 1_555 1_555
C20 C19 1_555 1_555
H14 C20 1_555 1_555
C21 C20 1_555 1_555
H15 C21 1_555 1_555
C22 N4 1_555 1_555
H16 C22 1_555 1_555
C23 N4 1_555 1_555
C24 N3 1_555 1_555
C25 O1 1_555 1_555
C26 C25 1_555 1_555
C27 C26 1_555 1_555
H17 C27 1_555 1_555
C28 C27 1_555 1_555
H18 C28 1_555 1_555
C29 S1 1_555 1_555
C30 C29 1_555 1_555
H19 C30 1_555 1_555
C31 C26 1_555 1_555
H20 C31 1_555 1_555
C32 C33 1_555 1_555
C33 C34 1_555 1_555
C34 H21 1_555 1_555
C35 C34 1_555 1_555
H22 C35 1_555 1_555
C36 S1 1_555 1_555
C37 C36 1_555 1_555
H23 C37 1_555 1_555
C38 C33 1_555 1_555
H24 C38 1_555 1_555
Cd1_2 O5 1_555 1_555
O5_2 Cd1 1_555 1_555
O6_2 Cd1 1_555 1_555
O2 C25 1_555 1_555
O6 Cd1_2 1_555 1_555
C4 C12 1_555 1_555
C7 C11 1_555 1_555
C9 C10 1_555 1_555
C11 C12 1_555 1_555
C16 C24 1_555 1_555
C19 C23 1_555 1_555
C21 C22 1_555 1_555
C23 C24 1_555 1_555
C28 C29 1_555 1_555
C30 C31 1_555 1_555
C35 C36 1_555 1_555
C37 C38 1_555 1_555

#END
