
#######################################################################
#
#                 Cambridge Crystallographic Data Centre
#                                CCDC 
#
#######################################################################
#
# If this CIF has been generated from an entry in the Cambridge 
# Structural Database, then it will include bibliographic, chemical, 
# crystal, experimental, refinement or atomic coordinate data resulting 
# from the CCDC's data processing and validation procedures.
#
#######################################################################

data_HIXXUI
_symmetry_cell_setting           orthorhombic
_symmetry_space_group_name_H-M   'P c c a'
_symmetry_Int_Tables_number      54
_space_group_name_Hall           '-P 2a 2ac'
loop_
_symmetry_equiv_pos_site_id
_symmetry_equiv_pos_as_xyz
1 x,y,z
2 1/2-x,-y,z
3 -x,y,1/2-z
4 1/2+x,-y,1/2-z
5 -x,-y,-z
6 1/2+x,y,-z
7 x,-y,1/2+z
8 1/2-x,y,1/2+z
_cell_length_a                   20.0146(15)
_cell_length_b                   8.0392(8)
_cell_length_c                   13.6938(13)
_cell_angle_alpha                90
_cell_angle_beta                 90
_cell_angle_gamma                90
_cell_volume                     2203.35
loop_
_atom_site_label
_atom_site_type_symbol
_atom_site_fract_x
_atom_site_fract_y
_atom_site_fract_z
Cl1 Cl 0.0000 -0.1380(4) -0.2500
O2 O 0.0131(6) -0.0292(15) -0.1760(7)
O3 O 0.0558(4) -0.2356(11) -0.2632(9)
O2B O -0.0131(6) -0.0292(15) -0.3240(7)
O3B O -0.0558(4) -0.2356(11) -0.2368(9)
Cl2 Cl 0.2500 0.5000 -0.09807(16)
O4 O 0.2500 0.5000 0.0006(6)
O5 O 0.2812(5) 0.3781(9) -0.1465(5)
O6 O 0.1965(6) 0.3942(18) -0.0913(10)
O5A O 0.2188(5) 0.6219(9) -0.1465(5)
O6A O 0.3035(6) 0.6058(18) -0.0913(10)
Cu1 Cu 0.2500 0.0000 0.09428(6)
O1 O 0.1726(3) 0.2238(5) 0.0993(3)
H1 H 0.1979 0.3055 0.0853
H2 H 0.1320 0.2494 0.0889
N1 N 0.1774(3) -0.1665(6) 0.0904(3)
N2 N 0.1343(3) -0.0533(7) -0.0558(3)
H3 H 0.0985 -0.0036 -0.0788
N3 N 0.2500 0.0000 -0.0510(4)
N4 N 0.2500 0.0000 -0.2519(4)
C1 C 0.1708(4) -0.2841(8) 0.1604(4)
H4 H 0.2075 -0.3032 0.2029
C2 C 0.1145(5) -0.3769(11) 0.1733(5)
H5 H 0.1124 -0.4596 0.2228
C3 C 0.0593(5) -0.3474(13) 0.1117(6)
C4 C 0.0670(4) -0.2389(11) 0.0361(5)
H7 H 0.0317 -0.2212 -0.0091
C5 C 0.1265(4) -0.1555(9) 0.0261(4)
C6 C 0.1934(3) -0.0252(6) -0.1024(4)
C7 C 0.1941(3) -0.0209(7) -0.2043(4)
H8 H 0.1534 -0.0333 -0.2394
C8 C -0.0108(10) -0.409(3) 0.1228(13)
H9 H -0.0352 -0.3917 0.0616
H10 H -0.0330 -0.3478 0.1755
H11 H -0.0101 -0.5279 0.1386
Cu1F Cu 0.2500 0.0000 -0.40572(6)
O1A O 0.3274(3) -0.2238(5) 0.0993(3)
H1A H 0.3021 -0.3055 0.0853
H2A H 0.3680 -0.2494 0.0889
N1A N 0.3226(3) 0.1665(6) 0.0904(3)
N2A N 0.3657(3) 0.0533(7) -0.0558(3)
H3A H 0.4015 0.0036 -0.0788
N4F N 0.2500 0.0000 0.2481(4)
C1A C 0.3292(4) 0.2841(8) 0.1604(4)
H4A H 0.2925 0.3032 0.2029
C2A C 0.3855(5) 0.3769(11) 0.1733(5)
H5A H 0.3876 0.4596 0.2228
C3A C 0.4407(5) 0.3474(13) 0.1117(6)
C4A C 0.4330(4) 0.2389(11) 0.0361(5)
H7A H 0.4683 0.2212 -0.0091
C5A C 0.3735(4) 0.1555(9) 0.0261(4)
C6A C 0.3066(3) 0.0252(6) -0.1024(4)
C7A C 0.3059(3) 0.0209(7) -0.2043(4)
H8A H 0.3466 0.0333 -0.2394
C8A C 0.5108(10) 0.409(3) 0.1228(13)
H9A H 0.5352 0.3917 0.0616
H10A H 0.5330 0.3478 0.1755
H11A H 0.5101 0.5279 0.1386
H6? H 0.0179 -0.4017 0.1226
loop_
_geom_bond_atom_site_label_1
_geom_bond_atom_site_label_2
_geom_bond_site_symmetry_1
_geom_bond_site_symmetry_2
Cu1 O1 1_555 1_555
O1 H1 1_555 1_555
H2 O1 1_555 1_555
N1 Cu1 1_555 1_555
N2 H3 1_555 1_555
N3 Cu1 1_555 1_555
N4 C7 1_555 1_555
C1 N1 1_555 1_555
H4 C1 1_555 1_555
C2 C1 1_555 1_555
H5 C2 1_555 1_555
C3 C2 1_555 1_555
C4 C3 1_555 1_555
H7 C4 1_555 1_555
C5 N1 1_555 1_555
C6 N2 1_555 1_555
C7 C6 1_555 1_555
H8 C7 1_555 1_555
C8 C3 1_555 1_555
H9 C8 1_555 1_555
H10 C8 1_555 1_555
H11 C8 1_555 1_555
Cl1 O2 1_555 1_555
O3 Cl1 1_555 1_555
Cl2 O4 1_555 1_555
O5 Cl2 1_555 1_555
O6 Cl2 1_555 1_555
Cu1F N4 1_555 1_555
O1A Cu1 1_555 1_555
H1A O1A 1_555 1_555
H2A O1A 1_555 1_555
N1A Cu1 1_555 1_555
N2A H3A 1_555 1_555
N4F Cu1 1_555 1_555
C1A N1A 1_555 1_555
H4A C1A 1_555 1_555
C2A C1A 1_555 1_555
H5A C2A 1_555 1_555
C3A C2A 1_555 1_555
C4A C3A 1_555 1_555
H7A C4A 1_555 1_555
C5A N1A 1_555 1_555
C6A N3 1_555 1_555
C7A N4 1_555 1_555
H8A C7A 1_555 1_555
C8A C3A 1_555 1_555
H9A C8A 1_555 1_555
H10A C8A 1_555 1_555
H11A C8A 1_555 1_555
O2B Cl1 1_555 1_555
O3B Cl1 1_555 1_555
O5A Cl2 1_555 1_555
O6A Cl2 1_555 1_555
N2 C5 1_555 1_555
N3 C6 1_555 1_555
C4 C5 1_555 1_555
N2A C5A 1_555 1_555
N2A C6A 1_555 1_555
C4A C5A 1_555 1_555
C6A C7A 1_555 1_555

#END
