
#######################################################################
#
#                 Cambridge Crystallographic Data Centre
#                                CCDC 
#
#######################################################################
#
# If this CIF has been generated from an entry in the Cambridge 
# Structural Database, then it will include bibliographic, chemical, 
# crystal, experimental, refinement or atomic coordinate data resulting 
# from the CCDC's data processing and validation procedures.
#
#######################################################################

data_HIXZUL
_symmetry_cell_setting           triclinic
_symmetry_space_group_name_H-M   'P -1'
_symmetry_Int_Tables_number      2
_space_group_name_Hall           '-P 1'
loop_
_symmetry_equiv_pos_site_id
_symmetry_equiv_pos_as_xyz
1 x,y,z
2 -x,-y,-z
_cell_length_a                   5.5020(11)
_cell_length_b                   9.3340(19)
_cell_length_c                   13.333(3)
_cell_angle_alpha                99.18(3)
_cell_angle_beta                 91.75(3)
_cell_angle_gamma                98.22(3)
_cell_volume                     668.013
loop_
_atom_site_label
_atom_site_type_symbol
_atom_site_fract_x
_atom_site_fract_y
_atom_site_fract_z
Cu1 Cu 0.27425(11) 0.04018(7) 0.54437(5)
Cu2 Cu 0.88023(13) -0.24235(8) 1.14210(6)
P1 P 0.7510(2) 0.12233(14) 0.67489(10)
P2 P 0.5206(2) -0.19154(14) 0.63115(10)
C1 C 0.7007(10) -0.0502(6) 0.7288(4)
C2 C 0.5649(10) -0.0215(6) 0.8274(4)
H1 H 0.6573 0.0635 0.8705
H2 H 0.4064 0.0046 0.8098
C3 C 0.5207(10) -0.1438(6) 0.8897(4)
C4 C 0.2978(10) -0.2389(7) 0.8819(5)
H3 H 0.1763 -0.2362 0.8325
C5 C 0.2622(11) -0.3373(7) 0.9497(5)
H4 H 0.1162 -0.4025 0.9451
C6 C 0.4378(10) -0.3393(6) 1.0223(4)
H5 H 0.4060 -0.4038 1.0684
C7 C 0.6947(10) -0.1561(6) 0.9641(4)
H6 H 0.8454 -0.0953 0.9686
N1 N 0.6575(9) -0.2516(5) 1.0307(4)
O1 O 0.9031(7) 0.2449(4) 0.7508(3)
O2 O 0.8956(7) 0.0901(4) 0.5796(3)
O3 O 0.5001(7) 0.1635(4) 0.6521(3)
O4 O 0.9340(7) -0.0897(4) 0.7557(3)
H7 H 1.0162 -0.0980 0.7054
O5 O 0.4812(7) -0.3357(4) 0.6690(3)
O6 O 0.2787(7) -0.1310(4) 0.6122(3)
O7 O 0.6749(7) -0.1989(4) 0.5371(3)
H8 H 0.5919 -0.1859 0.4882
Cu1_2 Cu 1.27425(11) 0.04018(7) 0.54437(5)
Cu1A Cu 0.72575(11) -0.04018(7) 0.45563(5)
Cu2A Cu 1.11977(13) 0.24235(8) 0.85790(6)
O1A O 1.0969(7) -0.2449(4) 1.2492(3)
O2_2 O -0.1044(7) 0.0901(4) 0.5796(3)
O2A O 0.1044(7) -0.0901(4) 0.4204(3)
O7A O 0.3251(7) 0.1989(4) 0.4629(3)
C8 C -0.0438(11) -0.5289(7) 0.5476(5)
H9 H -0.1039 -0.4517 0.5933
H10 H -0.1779 -0.6094 0.5292
N2 N 0.1605(9) -0.5799(5) 0.5989(4)
H11 H 0.3029 -0.5740 0.5737
H12 H 0.1373 -0.6156 0.6540
C8A C 0.0438(11) -0.4711(7) 0.4524(5)
H9A H 0.1039 -0.5483 0.4067
H10A H 0.1779 -0.3906 0.4708
N2A N -0.1605(9) -0.4201(5) 0.4011(4)
H11A H -0.3029 -0.4260 0.4263
H12A H -0.1373 -0.3844 0.3460
O8 O 0.7574(12) -0.4642(6) 0.8014(5)
H13 H 0.8000 -0.5488 0.7865
H14 H 0.620(9) -0.510(10) 0.779(8)
loop_
_geom_bond_atom_site_label_1
_geom_bond_atom_site_label_2
_geom_bond_site_symmetry_1
_geom_bond_site_symmetry_2
Cu1 O3 1_555 1_555
Cu2 N1 1_555 1_555
P1 C1 1_555 1_555
P2 C1 1_555 1_555
C1 C2 1_555 1_555
C2 H1 1_555 1_555
H2 C2 1_555 1_555
C3 C2 1_555 1_555
C4 C3 1_555 1_555
H3 C4 1_555 1_555
C5 C4 1_555 1_555
H4 C5 1_555 1_555
C6 C5 1_555 1_555
H5 C6 1_555 1_555
C7 C3 1_555 1_555
H6 C7 1_555 1_555
N1 C6 1_555 1_555
O1 P1 1_555 1_555
O2 P1 1_555 1_555
O3 P1 1_555 1_555
O4 C1 1_555 1_555
H7 O4 1_555 1_555
O5 P2 1_555 1_555
O6 Cu1 1_555 1_555
O7 P2 1_555 1_555
H8 O7 1_555 1_555
C8 H9 1_555 1_555
H10 C8 1_555 1_555
N2 C8 1_555 1_555
H11 N2 1_555 1_555
H12 N2 1_555 1_555
O8 H13 1_555 1_555
H14 O8 1_555 1_555
Cu1_2 O2 1_555 1_555
Cu1A O2 1_555 1_555
Cu2A O1 1_555 1_555
O1A Cu2 1_555 1_555
O2_2 Cu1 1_555 1_555
O2A Cu1 1_555 1_555
O7A Cu1 1_555 1_555
C8A C8 1_555 1_555
H9A C8A 1_555 1_555
H10A C8A 1_555 1_555
N2A C8A 1_555 1_555
H11A N2A 1_555 1_555
H12A N2A 1_555 1_555
P2 O6 1_555 1_555
C7 N1 1_555 1_555
O7 Cu1A 1_555 1_555

#END
