
#######################################################################
#
#                 Cambridge Crystallographic Data Centre
#                                CCDC 
#
#######################################################################
#
# If this CIF has been generated from an entry in the Cambridge 
# Structural Database, then it will include bibliographic, chemical, 
# crystal, experimental, refinement or atomic coordinate data resulting 
# from the CCDC's data processing and validation procedures.
#
#######################################################################

data_HIYBAS
_symmetry_cell_setting           monoclinic
_symmetry_space_group_name_H-M   'P 21/c'
_symmetry_Int_Tables_number      14
_space_group_name_Hall           '-P 2ybc'
loop_
_symmetry_equiv_pos_site_id
_symmetry_equiv_pos_as_xyz
1 x,y,z
2 -x,1/2+y,1/2-z
3 -x,-y,-z
4 x,1/2-y,1/2+z
_cell_length_a                   12.900(2)
_cell_length_b                   18.135(2)
_cell_length_c                   21.822(4)
_cell_angle_alpha                90
_cell_angle_beta                 97.42(1)
_cell_angle_gamma                90
_cell_volume                     5062.32
loop_
_atom_site_label
_atom_site_type_symbol
_atom_site_fract_x
_atom_site_fract_y
_atom_site_fract_z
Sn1 Sn 0.33367(4) -0.50021(3) 0.26794(2)
S1 S 0.2237(2) -0.6319(2) 0.4540(1)
S2 S 0.1259(3) -0.7210(2) 0.3482(2)
N1 N 0.0221(7) -0.6458(5) 0.4217(4)
O1 O 0.3059(4) -0.5719(3) 0.3447(2)
O2 O 0.4346(4) -0.6512(3) 0.3400(2)
C1 C 0.3245(5) -0.5856(3) 0.2007(2)
C2 C 0.3767(4) -0.5789(3) 0.1491(3)
C3 C 0.3708(5) -0.6352(4) 0.1056(2)
C4 C 0.3127(6) -0.6982(3) 0.1137(3)
C5 C 0.2606(5) -0.7049(3) 0.1653(4)
C6 C 0.2665(5) -0.6486(4) 0.2088(3)
C7 C 0.4771(4) -0.4609(3) 0.3141(2)
C8 C 0.4816(5) -0.4372(3) 0.3750(2)
C9 C 0.5749(6) -0.4104(3) 0.4060(2)
C10 C 0.6636(5) -0.4071(3) 0.3760(4)
C11 C 0.6590(4) -0.4307(4) 0.3152(4)
C12 C 0.5658(4) -0.4576(3) 0.2842(2)
C13 C 0.1926(4) -0.4440(3) 0.2823(3)
C14 C 0.1885(5) -0.3674(3) 0.2814(3)
C15 C 0.0946(6) -0.3314(3) 0.2859(4)
C16 C 0.0048(5) -0.3721(5) 0.2912(4)
C17 C 0.0090(4) -0.4487(5) 0.2920(4)
C18 C 0.1028(5) -0.4846(3) 0.2876(4)
C19 C 0.3599(6) -0.6274(4) 0.3639(3)
C20 C 0.3286(6) -0.6652(5) 0.4199(3)
C21 C 0.119(1) -0.6662(5) 0.4066(4)
C22 C 0.025(2) -0.5881(7) 0.4682(6)
C23 C 0.019(1) -0.6247(9) 0.5312(7)
C24 C -0.072(1) -0.6775(8) 0.3903(7)
C25 C -0.108(1) -0.630(1) 0.3336(9)
Sn2 Sn 0.43686(4) -0.24303(3) 0.14580(2)
S3 S 0.0968(2) -0.3869(1) 0.0817(1)
S4 S 0.2312(3) -0.4222(2) -0.0149(2)
O3 O 0.3050(4) -0.3210(3) 0.1287(2)
O4 O 0.3574(4) -0.4110(3) 0.1944(2)
N2 N 0.0403(7) -0.3670(5) -0.0351(4)
C26 C 0.3646(4) -0.1843(2) 0.0669(2)
C27 C 0.3128(4) -0.2232(2) 0.0172(2)
C28 C 0.2635(4) -0.1855(3) -0.0339(2)
C29 C 0.2659(4) -0.1089(3) -0.0353(2)
C30 C 0.3177(5) -0.0700(2) 0.0144(3)
C31 C 0.3671(4) -0.1076(2) 0.0655(2)
C32 C 0.5486(4) -0.3253(3) 0.1337(3)
C33 C 0.6439(5) -0.3273(3) 0.1716(3)
C34 C 0.7170(4) -0.3814(4) 0.1629(3)
C35 C 0.6947(5) -0.4335(3) 0.1163(4)
C36 C 0.5995(6) -0.4315(3) 0.0784(3)
C37 C 0.5264(4) -0.3774(4) 0.0871(3)
C38 C 0.4074(4) -0.2114(3) 0.2352(2)
C39 C 0.3605(5) -0.1439(3) 0.2438(3)
C40 C 0.3375(5) -0.1239(3) 0.3020(3)
C41 C 0.3614(5) -0.1715(4) 0.3517(2)
C42 C 0.4083(5) -0.2391(3) 0.3432(2)
C43 C 0.4313(5) -0.2591(2) 0.2850(2)
C44 C 0.2951(6) -0.3842(4) 0.1509(3)
C45 C 0.2072(7) -0.4312(5) 0.1225(4)
C46 C 0.1218(6) -0.3902(3) 0.0044(4)
C47 C -0.0530(9) -0.3314(7) -0.0153(6)
C48 C -0.128(1) -0.392(1) -0.0023(8)
C49 C 0.053(1) -0.3529(8) -0.1009(5)
C50 C 0.024(2) -0.421(1) -0.1384(7)
H1 H 0.4155 -0.5367 0.1437
H2 H 0.4057 -0.6307 0.0711
H3 H 0.3088 -0.7359 0.0846
H4 H 0.2218 -0.7471 0.1707
H5 H 0.2316 -0.6531 0.2434
H6 H 0.4223 -0.4394 0.3950
H7 H 0.5779 -0.3946 0.4467
H8 H 0.7260 -0.3891 0.3968
H9 H 0.7184 -0.4286 0.2951
H10 H 0.5627 -0.4734 0.2434
H11 H 0.2486 -0.3402 0.2779
H12 H 0.0918 -0.2802 0.2853
H13 H -0.0580 -0.3480 0.2942
H14 H -0.0511 -0.4758 0.2956
H15 H 0.1056 -0.5359 0.2881
H16 H 0.3892 -0.6653 0.4513
H17 H 0.3137 -0.7163 0.4088
H18 H -0.0328 -0.5545 0.4581
H19 H 0.0899 -0.5604 0.4695
H20 H 0.0259 -0.5877 0.5630
H21 H 0.0740 -0.6602 0.5395
H22 H -0.0475 -0.6489 0.5304
H23 H -0.1253 -0.6788 0.4176
H24 H -0.0583 -0.7276 0.3778
H25 H -0.1695 -0.6522 0.3112
H26 H -0.0537 -0.6282 0.3075
H27 H -0.1240 -0.5816 0.3465
H28 H 0.3112 -0.2744 0.0182
H29 H 0.2288 -0.2115 -0.0671
H30 H 0.2329 -0.0837 -0.0695
H31 H 0.3194 -0.0187 0.0134
H32 H 0.4018 -0.0816 0.0987
H33 H 0.6588 -0.2925 0.2028
H34 H 0.7807 -0.3827 0.1882
H35 H 0.7436 -0.4697 0.1104
H36 H 0.5846 -0.4663 0.0473
H37 H 0.4627 -0.3761 0.0618
H38 H 0.3445 -0.1120 0.2105
H39 H 0.3061 -0.0787 0.3077
H40 H 0.3460 -0.1581 0.3907
H41 H 0.4243 -0.2709 0.3765
H42 H 0.4627 -0.3043 0.2793
H43 H 0.1833 -0.4604 0.1552
H44 H 0.2347 -0.4652 0.0944
H45 H -0.0856 -0.2990 -0.0475
H46 H -0.0333 -0.3023 0.0217
H47 H -0.1899 -0.3701 0.0106
H48 H -0.0955 -0.4233 0.0298
H49 H -0.1475 -0.4201 -0.0392
H50 H 0.1255 -0.3400 -0.1040
H51 H 0.0094 -0.3120 -0.1166
H52 H 0.0317 -0.4118 -0.1808
H53 H -0.0476 -0.4334 -0.1352
H54 H 0.0685 -0.4610 -0.1231
Sn2A Sn 0.56314(4) -0.74303(3) 0.35420(2)
O2A O 0.5654(4) -0.1512(3) 0.1600(2)
loop_
_geom_bond_atom_site_label_1
_geom_bond_atom_site_label_2
_geom_bond_site_symmetry_1
_geom_bond_site_symmetry_2
Sn1 O1 1_555 1_555
S1 C20 1_555 1_555
S2 C21 1_555 1_555
N1 C21 1_555 1_555
O1 C19 1_555 1_555
O2 C19 1_555 1_555
C1 Sn1 1_555 1_555
C2 C1 1_555 1_555
C3 C2 1_555 1_555
C4 C3 1_555 1_555
C5 C4 1_555 1_555
C6 C1 1_555 1_555
C7 Sn1 1_555 1_555
C8 C7 1_555 1_555
C9 C8 1_555 1_555
C10 C9 1_555 1_555
C11 C10 1_555 1_555
C12 C7 1_555 1_555
C13 Sn1 1_555 1_555
C14 C13 1_555 1_555
C15 C14 1_555 1_555
C16 C15 1_555 1_555
C17 C16 1_555 1_555
C18 C13 1_555 1_555
C19 C20 1_555 1_555
C20 H16 1_555 1_555
C21 S1 1_555 1_555
C22 N1 1_555 1_555
C23 C22 1_555 1_555
C24 N1 1_555 1_555
C25 C24 1_555 1_555
Sn2 O3 1_555 1_555
S3 C45 1_555 1_555
S4 C46 1_555 1_555
O3 C44 1_555 1_555
O4 Sn1 1_555 1_555
N2 C46 1_555 1_555
C26 Sn2 1_555 1_555
C27 C26 1_555 1_555
C28 C27 1_555 1_555
C29 C28 1_555 1_555
C30 C29 1_555 1_555
C31 C26 1_555 1_555
C32 Sn2 1_555 1_555
C33 C32 1_555 1_555
C34 C33 1_555 1_555
C35 C34 1_555 1_555
C36 C35 1_555 1_555
C37 C32 1_555 1_555
C38 Sn2 1_555 1_555
C39 C38 1_555 1_555
C40 C39 1_555 1_555
C41 C40 1_555 1_555
C42 C41 1_555 1_555
C43 C38 1_555 1_555
C44 O4 1_555 1_555
C45 C44 1_555 1_555
C46 S3 1_555 1_555
C47 N2 1_555 1_555
C48 C47 1_555 1_555
C49 N2 1_555 1_555
C50 C49 1_555 1_555
H1 C2 1_555 1_555
H2 C3 1_555 1_555
H3 C4 1_555 1_555
H4 C5 1_555 1_555
H5 C6 1_555 1_555
H6 C8 1_555 1_555
H7 C9 1_555 1_555
H8 C10 1_555 1_555
H9 C11 1_555 1_555
H10 C12 1_555 1_555
H11 C14 1_555 1_555
H12 C15 1_555 1_555
H13 C16 1_555 1_555
H14 C17 1_555 1_555
H15 C18 1_555 1_555
H17 C20 1_555 1_555
H18 C22 1_555 1_555
H19 C22 1_555 1_555
H20 C23 1_555 1_555
H21 C23 1_555 1_555
H22 C23 1_555 1_555
H23 C24 1_555 1_555
H24 C24 1_555 1_555
H25 C25 1_555 1_555
H26 C25 1_555 1_555
H27 C25 1_555 1_555
H28 C27 1_555 1_555
H29 C28 1_555 1_555
H30 C29 1_555 1_555
H31 C30 1_555 1_555
H32 C31 1_555 1_555
H33 C33 1_555 1_555
H34 C34 1_555 1_555
H35 C35 1_555 1_555
H36 C36 1_555 1_555
H37 C37 1_555 1_555
H38 C39 1_555 1_555
H39 C40 1_555 1_555
H40 C41 1_555 1_555
H41 C42 1_555 1_555
H42 C43 1_555 1_555
H43 C45 1_555 1_555
H44 C45 1_555 1_555
H45 C47 1_555 1_555
H46 C47 1_555 1_555
H47 C48 1_555 1_555
H48 C48 1_555 1_555
H49 C48 1_555 1_555
H50 C49 1_555 1_555
H51 C49 1_555 1_555
H52 C50 1_555 1_555
H53 C50 1_555 1_555
H54 C50 1_555 1_555
Sn2A O2 1_555 1_555
O2A Sn2 1_555 1_555
C5 C6 1_555 1_555
C11 C12 1_555 1_555
C17 C18 1_555 1_555
C30 C31 1_555 1_555
C36 C37 1_555 1_555
C42 C43 1_555 1_555

#END
