
#######################################################################
#
#                 Cambridge Crystallographic Data Centre
#                                CCDC 
#
#######################################################################
#
# If this CIF has been generated from an entry in the Cambridge 
# Structural Database, then it will include bibliographic, chemical, 
# crystal, experimental, refinement or atomic coordinate data resulting 
# from the CCDC's data processing and validation procedures.
#
#######################################################################

data_HIYHOO
_symmetry_cell_setting           triclinic
_symmetry_space_group_name_H-M   'P -1'
_symmetry_Int_Tables_number      2
_space_group_name_Hall           '-P 1'
loop_
_symmetry_equiv_pos_site_id
_symmetry_equiv_pos_as_xyz
1 x,y,z
2 -x,-y,-z
_cell_length_a                   12.187(3)
_cell_length_b                   12.438(3)
_cell_length_c                   12.897(3)
_cell_angle_alpha                99.384(5)
_cell_angle_beta                 110.139(4)
_cell_angle_gamma                117.336(5)
_cell_volume                     1504.73
loop_
_atom_site_label
_atom_site_type_symbol
_atom_site_fract_x
_atom_site_fract_y
_atom_site_fract_z
Ni1 Ni 0.53824(7) 0.76899(7) 0.18441(6)
S1 S 0.77286(14) 1.04794(13) 0.94893(11)
O1 O 0.5835(4) 0.8291(3) 0.3633(3)
O2 O 0.6437(4) 1.0369(3) 0.4016(3)
O3 O 0.6720(4) 1.0655(3) 0.9698(3)
O4 O 0.7965(4) 0.9520(3) 0.9811(3)
O5 O 1.3164(4) 1.6661(3) 1.1379(3)
O6 O 1.4335(4) 1.5735(3) 1.1767(3)
O7 O 0.5856(4) 0.9523(4) 0.1838(3)
H1 H 0.523(5) 0.965(6) 0.131(3)
H2 H 0.590(6) 0.971(6) 0.259(2)
N1 N 0.4785(4) 0.7081(4) 0.0041(4)
N2 N 0.3757(5) 0.6791(4) -0.1857(4)
N3 N 0.0742(4) 0.1856(4) -0.3474(4)
N4 N 0.2656(5) 0.1945(4) -0.2397(4)
C1 C 0.6247(5) 0.9406(5) 0.4302(5)
C2 C 0.6579(5) 0.9614(5) 0.5588(5)
C3 C 0.6810(6) 0.8795(5) 0.6113(5)
H3 H 0.6716 0.8066 0.5658
C4 C 0.7175(6) 0.9058(5) 0.7301(5)
H4 H 0.7372 0.8534 0.7660
C5 C 0.7247(5) 1.0111(5) 0.7964(4)
C6 C 0.6996(5) 1.0919(5) 0.7444(4)
H5 H 0.7051 1.1626 0.7892
C7 C 0.6664(5) 1.0671(5) 0.6257(5)
H6 H 0.6498 1.1214 0.5905
C8 C 0.9363(5) 1.2027(5) 1.0207(4)
C9 C 0.9388(5) 1.3168(5) 1.0462(4)
H7 H 0.8574 1.3138 1.0335
C10 C 1.0671(6) 1.4363(5) 1.0915(4)
H8 H 1.0712 1.5141 1.1091
C11 C 1.1878(6) 1.4406(5) 1.1104(4)
C12 C 1.1834(6) 1.3250(5) 1.0885(5)
H9 H 1.2656 1.3283 1.1044
C13 C 1.0578(6) 1.2052(5) 1.0434(5)
H10 H 1.0546 1.1278 1.0286
C14 C 1.3214(6) 1.5682(5) 1.1445(4)
C15 C 0.5010(6) 0.6293(5) -0.0623(5)
H11 H 0.5520 0.5945 -0.0315
C16 C 0.4377(6) 0.6101(5) -0.1790(5)
H12 H 0.4364 0.5603 -0.2421
C17 C 0.4028(5) 0.7365(5) -0.0740(4)
H13 H 0.3724 0.7892 -0.0541
C18 C 0.2842(6) 0.6810(5) -0.2942(5)
H14 H 0.3417 0.7468 -0.3169
H15 H 0.2248 0.7048 -0.2775
C19 C 0.1925(6) 0.5480(5) -0.3971(5)
C20 C 0.1981(6) 0.5373(5) -0.5043(5)
C21 C 0.1238(6) 0.4133(5) -0.5929(5)
H16 H 0.1244 0.4062 -0.6656
C22 C 0.0486(6) 0.2997(5) -0.5761(5)
C23 C 0.0412(5) 0.3109(5) -0.4696(5)
C24 C 0.1096(5) 0.4347(5) -0.3814(5)
C25 C -0.0298(6) 0.1904(5) -0.4440(5)
H17 H -0.0973 0.1912 -0.4209
H18 H -0.0804 0.1126 -0.5158
C26 C 0.0633(6) 0.1560(5) -0.2525(5)
H19 H -0.0111 0.1351 -0.2363
C27 C 0.1819(6) 0.1631(5) -0.1866(5)
H20 H 0.2032 0.1488 -0.1159
C28 C 0.1966(6) 0.2072(5) -0.3365(5)
H21 H 0.2291 0.2285 -0.3905
C29 C 0.2830(7) 0.6554(6) -0.5277(5)
H22 H 0.2711 0.6273 -0.6069
H23 H 0.3806 0.7014 -0.4702
H24 H 0.2512 0.7127 -0.5208
C30 C -0.0206(7) 0.1692(6) -0.6734(5)
H25 H -0.0029 0.1831 -0.7386
H26 H -0.1202 0.1197 -0.7013
H27 H 0.0171 0.1217 -0.6423
C31 C 0.0931(6) 0.4469(6) -0.2700(5)
H28 H 0.1681 0.4508 -0.2080
H29 H 0.0045 0.3722 -0.2874
H30 H 0.0960 0.5254 -0.2438
Ni1_2 Ni 1.53824(7) 1.76899(7) 1.18441(6)
Ni1A Ni 0.46176(7) 0.23101(7) -0.18441(6)
O5_2 O 0.3164(4) 0.6661(3) 0.1379(3)
O6_2 O 0.4335(4) 0.5735(3) 0.1767(3)
N4A N 0.7344(5) 0.8055(4) 0.2397(4)
loop_
_geom_bond_atom_site_label_1
_geom_bond_atom_site_label_2
_geom_bond_site_symmetry_1
_geom_bond_site_symmetry_2
Ni1 O1 1_555 1_555
S1 O3 1_555 1_555
O1 C1 1_555 1_555
O2 C1 1_555 1_555
O4 S1 1_555 1_555
O5 C14 1_555 1_555
O6 C14 1_555 1_555
O7 Ni1 1_555 1_555
H1 O7 1_555 1_555
H2 O7 1_555 1_555
N1 Ni1 1_555 1_555
N2 C16 1_555 1_555
N3 C25 1_555 1_555
N4 C27 1_555 1_555
C1 C2 1_555 1_555
C2 C3 1_555 1_555
C3 H3 1_555 1_555
C4 C3 1_555 1_555
H4 C4 1_555 1_555
C5 S1 1_555 1_555
C6 C5 1_555 1_555
H5 C6 1_555 1_555
C7 C2 1_555 1_555
H6 C7 1_555 1_555
C8 S1 1_555 1_555
C9 C8 1_555 1_555
H7 C9 1_555 1_555
C10 C9 1_555 1_555
H8 C10 1_555 1_555
C11 C10 1_555 1_555
C12 C11 1_555 1_555
H9 C12 1_555 1_555
C13 C8 1_555 1_555
H10 C13 1_555 1_555
C14 C11 1_555 1_555
C15 N1 1_555 1_555
H11 C15 1_555 1_555
C16 C15 1_555 1_555
H12 C16 1_555 1_555
C17 N1 1_555 1_555
H13 C17 1_555 1_555
C18 N2 1_555 1_555
H14 C18 1_555 1_555
H15 C18 1_555 1_555
C19 C18 1_555 1_555
C20 C19 1_555 1_555
C21 C20 1_555 1_555
H16 C21 1_555 1_555
C22 C21 1_555 1_555
C23 C22 1_555 1_555
C24 C19 1_555 1_555
C25 C23 1_555 1_555
H17 C25 1_555 1_555
H18 C25 1_555 1_555
C26 N3 1_555 1_555
H19 C26 1_555 1_555
C27 C26 1_555 1_555
H20 C27 1_555 1_555
C28 N3 1_555 1_555
H21 C28 1_555 1_555
C29 C20 1_555 1_555
H22 C29 1_555 1_555
H23 C29 1_555 1_555
H24 C29 1_555 1_555
C30 C22 1_555 1_555
H25 C30 1_555 1_555
H26 C30 1_555 1_555
H27 C30 1_555 1_555
C31 C24 1_555 1_555
H28 C31 1_555 1_555
H29 C31 1_555 1_555
H30 C31 1_555 1_555
Ni1_2 O5 1_555 1_555
Ni1A N4 1_555 1_555
O5_2 Ni1 1_555 1_555
O6_2 Ni1 1_555 1_555
N4A Ni1 1_555 1_555
O6 Ni1_2 1_555 1_555
N2 C17 1_555 1_555
N4 C28 1_555 1_555
C4 C5 1_555 1_555
C6 C7 1_555 1_555
C12 C13 1_555 1_555
C23 C24 1_555 1_555

#END
