
#######################################################################
#
#                 Cambridge Crystallographic Data Centre
#                                CCDC 
#
#######################################################################
#
# If this CIF has been generated from an entry in the Cambridge 
# Structural Database, then it will include bibliographic, chemical, 
# crystal, experimental, refinement or atomic coordinate data resulting 
# from the CCDC's data processing and validation procedures.
#
#######################################################################

data_HIYJEG
_symmetry_cell_setting           monoclinic
_symmetry_space_group_name_H-M   'P 21/c'
_symmetry_Int_Tables_number      14
_space_group_name_Hall           '-P 2ybc'
loop_
_symmetry_equiv_pos_site_id
_symmetry_equiv_pos_as_xyz
1 x,y,z
2 -x,1/2+y,1/2-z
3 -x,-y,-z
4 x,1/2-y,1/2+z
_cell_length_a                   12.4427(14)
_cell_length_b                   23.401(3)
_cell_length_c                   20.867(2)
_cell_angle_alpha                90
_cell_angle_beta                 104.719(2)
_cell_angle_gamma                90
_cell_volume                     5876.49
loop_
_atom_site_label
_atom_site_type_symbol
_atom_site_fract_x
_atom_site_fract_y
_atom_site_fract_z
Co1 Co 0.41626(5) 0.71940(2) 0.05537(3)
Co2 Co 0.47210(5) 0.72272(2) 0.19867(3)
N1 N 0.3350(3) 0.69980(14) -0.03927(16)
O1 O 0.3110(3) 0.78641(11) 0.06033(14)
O2 O 0.5282(3) 0.65446(12) 0.06702(15)
O3 O 0.5397(3) 0.77768(12) 0.06569(14)
O4 O 0.3198(3) 0.66918(12) 0.09863(15)
O5 O 0.3608(2) 0.78721(12) 0.17138(14)
O6 O 0.5728(3) 0.65970(12) 0.17765(14)
N2 N 0.5458(3) 0.73561(14) 0.29647(17)
O7 O 0.5888(3) 0.77909(12) 0.17627(14)
O8 O 0.3579(3) 0.66408(12) 0.20865(14)
C1 C 0.3508(4) 0.65362(17) -0.0768(2)
C2 C 0.2377(4) 0.72163(18) -0.0711(2)
C3 C 0.3056(4) 0.80485(17) 0.1158(2)
C4 C 0.5814(4) 0.63938(17) 0.1232(2)
H1 H 0.4123 0.6295 -0.0671
C5 C 0.2626(4) 0.64888(17) -0.1300(2)
N3 N 0.1919(3) 0.69268(14) -0.12604(16)
H2 H 0.2054 0.7534 -0.0567
C6 C 0.2226(3) 0.85191(16) 0.1161(2)
C7 C 0.6679(4) 0.59342(16) 0.1264(2)
H3 H 0.2522 0.6211 -0.1629
C8 C 0.0862(4) 0.70530(18) -0.1753(2)
C9 C 0.2111(4) 0.87435(17) 0.1753(2)
C10 C 0.1545(4) 0.87087(17) 0.0571(2)
C11 C 0.7413(4) 0.57913(17) 0.1856(2)
C12 C 0.6760(4) 0.56677(18) 0.0680(2)
H4 H 0.0408 0.6710 -0.1830
H5 H 0.1020 0.7159 -0.2169
C13 C 0.0213(4) 0.75304(17) -0.1535(2)
H6 H 0.2593 0.8629 0.2150
C14 C 0.1282(4) 0.91385(17) 0.1759(2)
C15 C 0.0709(4) 0.91060(17) 0.0565(2)
H7 H 0.1645 0.8570 0.0172
H8 H 0.7337 0.5957 0.2247
C16 C 0.8262(4) 0.54032(16) 0.1876(2)
C17 C 0.7590(4) 0.52733(18) 0.0693(2)
H9 H 0.6254 0.5756 0.0281
C18 C -0.0603(4) 0.74067(17) -0.1202(2)
C19 C 0.0453(4) 0.80968(18) -0.1674(2)
H10 H 0.1201 0.9289 0.2156
C20 C 0.0579(3) 0.93047(16) 0.1162(2)
H11 H 0.0250 0.9234 0.0167
H12 H 0.8765 0.5314 0.2276
C21 C 0.8350(3) 0.51502(16) 0.1292(2)
H13 H 0.7640 0.5091 0.0306
C22 C -0.1215(4) 0.78640(19) -0.1022(2)
C23 C -0.0840(4) 0.67952(18) -0.1047(2)
C24 C -0.0187(4) 0.85301(19) -0.1507(2)
C25 C 0.1353(4) 0.8239(2) -0.2006(2)
S1 S -0.05713(9) 0.97535(4) 0.11643(5)
S2 S 0.94899(9) 0.47006(4) 0.12939(5)
C26 C -0.1021(4) 0.84261(18) -0.1194(2)
C27 C -0.2092(4) 0.7751(2) -0.0661(2)
H14 H -0.1188 0.6599 -0.1450
H15 H -0.1326 0.6791 -0.0756
H16 H -0.0155 0.6607 -0.0835
H17 H -0.0048 0.8905 -0.1609
H18 H 0.1451 0.8646 -0.2007
H19 H 0.1150 0.8100 -0.2454
H20 H 0.2034 0.8061 -0.1770
O9 O -0.0294(2) 1.00704(11) 0.17729(14)
O10 O -0.0885(3) 1.00525(12) 0.05457(14)
C28 C -0.1639(3) 0.92525(16) 0.1185(2)
O11 O 0.9709(2) 0.43559(11) 0.18855(13)
O12 O 0.9290(3) 0.44215(11) 0.06643(14)
C29 C 1.0598(3) 0.51916(16) 0.1362(2)
C30 C -0.1708(5) 0.8923(2) -0.1055(3)
N4 N -0.3206(3) 0.76794(14) -0.11176(17)
H21 H -0.1901 0.7408 -0.0395
H22 H -0.2112 0.8067 -0.0363
C31 C -0.1620(4) 0.89773(17) 0.1776(2)
C32 C -0.2427(4) 0.91302(17) 0.0610(2)
C33 C 1.0678(4) 0.54845(17) 0.0796(2)
C34 C 1.1325(4) 0.52957(17) 0.1975(2)
H23 H -0.1558 0.8983 -0.0586
H24 H -0.2483 0.8840 -0.1230
H25 H -0.1520 0.9262 -0.1263
C35 C -0.4182(4) 0.76107(19) -0.0935(2)
C36 C -0.3467(4) 0.76975(17) -0.1779(2)
H26 H -0.1087 0.9069 0.2163
C37 C -0.2411(4) 0.85635(17) 0.1777(2)
C38 C -0.3205(4) 0.87080(17) 0.0615(2)
H27 H -0.2437 0.9328 0.0223
H28 H 1.0193 0.5404 0.0387
C39 C 1.1485(4) 0.58957(17) 0.0849(2)
C40 C 1.2127(4) 0.57138(17) 0.2016(2)
H29 H 1.1275 0.5090 0.2348
H30 H -0.4267 0.7584 -0.0506
C41 C -0.4994(4) 0.75896(19) -0.1503(2)
H31 H -0.2950 0.7743 -0.2029
H32 H -0.2417 0.8379 0.2171
C42 C -0.3196(4) 0.84193(17) 0.1199(2)
H33 H -0.3735 0.8618 0.0226
H34 H 1.1544 0.6094 0.0474
C43 C 1.2214(4) 0.60179(16) 0.1457(2)
H35 H 1.2615 0.5793 0.2423
H36 H -0.5746 0.7545 -0.1530
C44 C -0.4041(4) 0.79596(17) 0.1209(2)
C45 C 1.3060(4) 0.64822(17) 0.1517(2)
N2C N -0.4542(3) 0.76439(14) -0.20353(17)
Co2C Co -0.52790(5) 0.77728(2) -0.30133(3)
O7_2 O -0.4112(3) 0.77909(12) 0.17627(14)
O3_2 O -0.4603(3) 0.77768(12) 0.06569(14)
O8_2 O 1.3579(3) 0.66408(12) 0.20865(14)
O4_2 O 1.3198(3) 0.66918(12) 0.09863(15)
Co2_2 Co -0.52790(5) 0.72272(2) 0.19867(3)
Co1_2 Co -0.58374(5) 0.71940(2) 0.05537(3)
Co2_3 Co 1.47210(5) 0.72272(2) 0.19867(3)
Co1_3 Co 1.41626(5) 0.71940(2) 0.05537(3)
C46 C 0.9209(4) 0.66537(19) 0.1183(2)
H37 H 0.9894 0.6498 0.1459
H38 H 0.8691 0.6341 0.1044
O13 O 0.9425(3) 0.69198(12) 0.06159(15)
C47 C 1.0159(4) 0.73891(19) 0.0817(2)
H39 H 1.0298 0.7574 0.0429
H40 H 1.0863 0.7253 0.1091
C48 C 0.9653(4) 0.78154(18) 0.1203(2)
H41 H 1.0155 0.8136 0.1336
H42 H 0.8960 0.7960 0.0925
O14 O 0.9453(3) 0.75526(12) 0.17719(15)
C49 C 0.8724(4) 0.70820(19) 0.1577(3)
H43 H 0.8014 0.7217 0.1310
H44 H 0.8598 0.6897 0.1968
O15 O 0.5100(4) 0.5898(2) 0.4258(2)
O16 O 0.3002(3) 0.54020(16) 0.36891(19)
C50 C 0.3205(6) 0.5731(3) 0.4274(3)
H45 H 0.3434 0.5481 0.4655
H46 H 0.2523 0.5920 0.4300
C51 C 0.4079(6) 0.6167(3) 0.4295(4)
H47 H 0.3838 0.6430 0.3927
H48 H 0.4200 0.6384 0.4703
C52 C 0.4899(6) 0.5566(3) 0.3672(3)
H49 H 0.5579 0.5374 0.3648
H50 H 0.4673 0.5814 0.3289
C53 C 0.4016(6) 0.5132(3) 0.3657(3)
H51 H 0.3895 0.4911 0.3252
H52 H 0.4256 0.4873 0.4028
O17 O 0.4192(4) 0.42983(18) 0.1004(2)
O18 O 0.4690(5) 0.4554(2) 0.2350(2)
C54 C 0.4986(7) 0.4920(3) 0.1880(4)
H53 H 0.5733 0.4828 0.1852
H54 H 0.4984 0.5313 0.2028
C55 C 0.4227(6) 0.4864(3) 0.1229(3)
H55 H 0.3488 0.4981 0.1249
H56 H 0.4464 0.5113 0.0919
C56 C 0.3867(6) 0.3937(3) 0.1464(4)
H57 H 0.3844 0.3544 0.1312
H58 H 0.3127 0.4041 0.1495
C57 C 0.4645(6) 0.3983(3) 0.2119(3)
H59 H 0.4409 0.3734 0.2429
H60 H 0.5379 0.3863 0.2094
loop_
_geom_bond_atom_site_label_1
_geom_bond_atom_site_label_2
_geom_bond_site_symmetry_1
_geom_bond_site_symmetry_2
Co1 Co2 1_555 1_555
Co2 O5 1_555 1_555
N1 Co1 1_555 1_555
O1 Co1 1_555 1_555
O2 Co1 1_555 1_555
O3 Co1 1_555 1_555
O4 Co1 1_555 1_555
O5 C3 1_555 1_555
O6 Co2 1_555 1_555
N2 Co2 1_555 1_555
O7 Co2 1_555 1_555
O8 Co2 1_555 1_555
C1 N1 1_555 1_555
C2 N1 1_555 1_555
C3 O1 1_555 1_555
C4 O2 1_555 1_555
H1 C1 1_555 1_555
C5 C1 1_555 1_555
N3 C2 1_555 1_555
H2 C2 1_555 1_555
C6 C3 1_555 1_555
C7 C4 1_555 1_555
H3 C5 1_555 1_555
C8 N3 1_555 1_555
C9 C6 1_555 1_555
C10 C6 1_555 1_555
C11 C7 1_555 1_555
C12 C7 1_555 1_555
H4 C8 1_555 1_555
H5 C8 1_555 1_555
C13 C8 1_555 1_555
H6 C9 1_555 1_555
C14 C9 1_555 1_555
C15 C10 1_555 1_555
H7 C10 1_555 1_555
H8 C11 1_555 1_555
C16 C11 1_555 1_555
C17 C12 1_555 1_555
H9 C12 1_555 1_555
C18 C13 1_555 1_555
C19 C13 1_555 1_555
H10 C14 1_555 1_555
C20 C14 1_555 1_555
H11 C15 1_555 1_555
H12 C16 1_555 1_555
C21 C16 1_555 1_555
H13 C17 1_555 1_555
C22 C18 1_555 1_555
C23 C18 1_555 1_555
C24 C19 1_555 1_555
C25 C19 1_555 1_555
S1 C20 1_555 1_555
S2 C21 1_555 1_555
C26 C22 1_555 1_555
C27 C22 1_555 1_555
H14 C23 1_555 1_555
H15 C23 1_555 1_555
H16 C23 1_555 1_555
H17 C24 1_555 1_555
H18 C25 1_555 1_555
H19 C25 1_555 1_555
H20 C25 1_555 1_555
O9 S1 1_555 1_555
O10 S1 1_555 1_555
C28 S1 1_555 1_555
O11 S2 1_555 1_555
O12 S2 1_555 1_555
C29 S2 1_555 1_555
C30 C26 1_555 1_555
N4 C27 1_555 1_555
H21 C27 1_555 1_555
H22 C27 1_555 1_555
C31 C28 1_555 1_555
C32 C28 1_555 1_555
C33 C29 1_555 1_555
C34 C29 1_555 1_555
H23 C30 1_555 1_555
H24 C30 1_555 1_555
H25 C30 1_555 1_555
C35 N4 1_555 1_555
C36 N4 1_555 1_555
H26 C31 1_555 1_555
C37 C31 1_555 1_555
C38 C32 1_555 1_555
H27 C32 1_555 1_555
H28 C33 1_555 1_555
C39 C33 1_555 1_555
C40 C34 1_555 1_555
H29 C34 1_555 1_555
H30 C35 1_555 1_555
C41 C35 1_555 1_555
H31 C36 1_555 1_555
H32 C37 1_555 1_555
C42 C37 1_555 1_555
H33 C38 1_555 1_555
H34 C39 1_555 1_555
C43 C39 1_555 1_555
H35 C40 1_555 1_555
H36 C41 1_555 1_555
C44 C42 1_555 1_555
C45 C43 1_555 1_555
C46 H37 1_555 1_555
H38 C46 1_555 1_555
O13 C46 1_555 1_555
C47 O13 1_555 1_555
H39 C47 1_555 1_555
H40 C47 1_555 1_555
C48 C47 1_555 1_555
H41 C48 1_555 1_555
H42 C48 1_555 1_555
O14 C48 1_555 1_555
C49 C46 1_555 1_555
H43 C49 1_555 1_555
H44 C49 1_555 1_555
O15 C51 1_555 1_555
O16 C50 1_555 1_555
C50 H45 1_555 1_555
H46 C50 1_555 1_555
C51 C50 1_555 1_555
H47 C51 1_555 1_555
H48 C51 1_555 1_555
C52 O15 1_555 1_555
H49 C52 1_555 1_555
H50 C52 1_555 1_555
C53 O16 1_555 1_555
H51 C53 1_555 1_555
H52 C53 1_555 1_555
O17 C55 1_555 1_555
O18 C54 1_555 1_555
C54 H53 1_555 1_555
H54 C54 1_555 1_555
C55 C54 1_555 1_555
H55 C55 1_555 1_555
H56 C55 1_555 1_555
C56 O17 1_555 1_555
H57 C56 1_555 1_555
H58 C56 1_555 1_555
C57 O18 1_555 1_555
H59 C57 1_555 1_555
H60 C57 1_555 1_555
N2C C36 1_555 1_555
Co2C N2C 1_555 1_555
O7_2 C44 1_555 1_555
O3_2 C44 1_555 1_555
O8_2 C45 1_555 1_555
O4_2 C45 1_555 1_555
Co2_2 O7_2 1_555 1_555
Co1_2 O3_2 1_555 1_555
Co2_3 O8_2 1_555 1_555
Co1_3 O4_2 1_555 1_555
O6 C4 1_555 1_555
C5 N3 1_555 1_555
C15 C20 1_555 1_555
C17 C21 1_555 1_555
C24 C26 1_555 1_555
C38 C42 1_555 1_555
C40 C43 1_555 1_555
C41 N2C 1_555 1_555
O14 C49 1_555 1_555
C52 C53 1_555 1_555
C56 C57 1_555 1_555
Co2_2 Co1_2 1_555 1_555
Co2_3 Co1_3 1_555 1_555

#END
