
#######################################################################
#
#                 Cambridge Crystallographic Data Centre
#                                CCDC 
#
#######################################################################
#
# If this CIF has been generated from an entry in the Cambridge 
# Structural Database, then it will include bibliographic, chemical, 
# crystal, experimental, refinement or atomic coordinate data resulting 
# from the CCDC's data processing and validation procedures.
#
#######################################################################

data_HIYMAF
_symmetry_cell_setting           orthorhombic
_symmetry_space_group_name_H-M   'P n m a'
_symmetry_Int_Tables_number      62
_space_group_name_Hall           '-P 2ac 2n'
loop_
_symmetry_equiv_pos_site_id
_symmetry_equiv_pos_as_xyz
1 x,y,z
2 1/2-x,-y,1/2+z
3 -x,1/2+y,-z
4 1/2+x,1/2-y,1/2-z
5 -x,-y,-z
6 1/2+x,y,1/2-z
7 x,1/2-y,z
8 1/2-x,1/2+y,1/2+z
_cell_length_a                   15.2339(4)
_cell_length_b                   33.4083(10)
_cell_length_c                   14.3529(4)
_cell_angle_alpha                90
_cell_angle_beta                 90
_cell_angle_gamma                90
_cell_volume                     7304.75
loop_
_atom_site_label
_atom_site_type_symbol
_atom_site_fract_x
_atom_site_fract_y
_atom_site_fract_z
K1 K 0.78323(15) 0.04603(6) -0.18635(15)
K2 K 0.7570(2) 0.2500 -0.18571(19)
C1 C 0.5015(5) 0.0491(2) 0.0112(5)
C2 C 0.4107(5) 0.0499(2) 0.0024(5)
C3 C 0.3965(5) 0.0509(2) 0.1626(5)
C4 C 0.4877(4) 0.0508(2) 0.1719(5)
C5 C 0.5668(5) 0.0477(2) -0.0679(5)
C6 C 0.5373(5) 0.0499(2) 0.2626(5)
C7 C 0.3616(4) 0.0496(2) -0.0897(5)
C8 C 0.3316(5) 0.0500(2) 0.2426(5)
C9 C 0.5827(5) 0.14898(19) 0.0099(5)
C10 C 0.4923(5) 0.14984(19) -0.0077(5)
C11 C 0.5223(5) 0.14725(19) -0.1655(5)
C12 C 0.6114(5) 0.14751(19) -0.1468(5)
C13 C 0.6222(5) 0.1498(2) 0.1068(5)
C14 C 0.4192(5) 0.14940(19) 0.0638(5)
C15 C 0.4806(5) 0.1446(2) -0.2605(5)
C16 C 0.6824(5) 0.1472(2) -0.2201(5)
C17 C 0.4606(6) 0.2500 0.1613(7)
C18 C 0.3721(6) 0.2500 0.1368(7)
C19 C 0.4105(6) 0.2500 -0.0181(7)
C20 C 0.4979(6) 0.2500 0.0061(6)
C21 C 0.4952(7) 0.2500 0.2603(8)
C22 C 0.2971(7) 0.2500 0.2063(7)
C23 C 0.3744(6) 0.2500 -0.1179(6)
C24 C 0.5749(7) 0.2500 -0.0608(7)
Dy1 Dy 0.70211(2) 0.051008(10) 0.11248(2)
Dy2 Dy 0.30388(2) 0.150798(9) -0.12942(2)
Dy3 Dy 0.67962(3) 0.2500 0.14015(3)
K3 K 0.23375(17) 0.14316(6) 0.19134(15)
N1 N 0.5382(4) 0.05026(17) 0.0956(4)
N2 N 0.3587(4) 0.05026(18) 0.0780(4)
N3 N 0.4640(4) 0.14847(16) -0.0963(4)
N4 N 0.6406(4) 0.14782(16) -0.0582(4)
N5 N 0.5213(5) 0.2500 0.0958(5)
N6 N 0.3470(5) 0.2500 0.0477(6)
O1 O 0.6477(3) 0.04786(16) -0.0427(4)
O2 O 0.5386(4) 0.04694(19) -0.1480(4)
O3 O 0.6196(3) 0.04986(17) 0.2548(4)
O4 O 0.4947(4) 0.0488(2) 0.3355(4)
O5 O 0.3415(4) 0.08242(15) -0.1236(4)
O6 O 0.3415(4) 0.01620(15) -0.1229(4)
O7 O 0.3133(4) 0.08194(15) 0.2838(4)
O8 O 0.2938(4) 0.01817(16) 0.2583(4)
O9 O 0.3424(3) 0.15062(15) 0.0296(4)
O10 O 0.4380(4) 0.14696(18) 0.1465(4)
O11 O 0.3976(3) 0.14465(15) -0.2617(4)
O12 O 0.5296(4) 0.1425(2) -0.3296(4)
O13 O 0.6515(4) 0.11751(14) 0.1369(4)
O14 O 0.6264(3) 0.18265(14) 0.1480(4)
O15 O 0.7167(4) 0.11486(15) -0.2416(4)
O16 O 0.7053(4) 0.17962(15) -0.2541(4)
O17 O 0.6506(5) 0.2500 -0.0219(5)
O18 O 0.5594(5) 0.2500 -0.1444(5)
O19 O 0.5785(4) 0.2500 0.2675(5)
O20 O 0.4447(7) 0.2500 0.3240(7)
O21 O 0.2676(4) 0.21755(15) 0.2331(4)
O22 O 0.3597(3) 0.21670(14) -0.1537(3)
O23 O 0.8207(4) 0.0136(2) 0.0483(5)
O24 O 0.7888(4) 0.09514(18) 0.0086(4)
O25 O 0.1747(4) 0.11996(19) -0.0665(4)
O26 O 0.2063(4) 0.20092(18) -0.0532(5)
O27 O 0.7910(4) 0.20604(18) 0.0789(4)
O28 O 0.8608(6) 0.1961(2) -0.0900(5)
O29 O 0.9355(7) 0.0235(3) -0.0909(7)
O30 O 0.1791(5) 0.0711(3) 0.0728(6)
O31 O 0.1011(6) 0.1850(3) 0.1020(6)
O32 O 0.5947(8) 0.2500 -0.3346(7)
O21F O 0.2676(4) 0.28245(15) 0.2331(4)
O22F O 0.3597(3) 0.28330(14) -0.1537(3)
K1D K 0.21677(15) -0.04603(6) 0.18635(15)
C1D C 0.4985(5) -0.0491(2) -0.0112(5)
C2D C 0.5893(5) -0.0499(2) -0.0024(5)
C3D C 0.6035(5) -0.0509(2) -0.1626(5)
C4D C 0.5123(4) -0.0508(2) -0.1719(5)
C5D C 0.4332(5) -0.0477(2) 0.0679(5)
C6D C 0.4627(5) -0.0499(2) -0.2626(5)
C7D C 0.6384(4) -0.0496(2) 0.0897(5)
C8D C 0.6684(5) -0.0500(2) -0.2426(5)
C9D C 0.4173(5) -0.14898(19) -0.0099(5)
C10D C 0.5077(5) -0.14984(19) 0.0077(5)
C11D C 0.4777(5) -0.14725(19) 0.1655(5)
C12D C 0.3886(5) -0.14751(19) 0.1468(5)
C13D C 0.3778(5) -0.1498(2) -0.1068(5)
C14D C 0.5808(5) -0.14940(19) -0.0638(5)
C15D C 0.5194(5) -0.1446(2) 0.2605(5)
C16D C 0.3176(5) -0.1472(2) 0.2201(5)
Dy1D Dy 0.29789(2) -0.051008(10) -0.11248(2)
Dy2D Dy 0.69612(2) -0.150798(9) 0.12942(2)
K3D K 0.76625(17) -0.14316(6) -0.19134(15)
N1D N 0.4618(4) -0.05026(17) -0.0956(4)
N2D N 0.6413(4) -0.05026(18) -0.0780(4)
N3D N 0.5360(4) -0.14847(16) 0.0963(4)
N4D N 0.3594(4) -0.14782(16) 0.0582(4)
O1D O 0.3523(3) -0.04786(16) 0.0427(4)
O2D O 0.4614(4) -0.04694(19) 0.1480(4)
O3D O 0.3804(3) -0.04986(17) -0.2548(4)
O4D O 0.5053(4) -0.0488(2) -0.3355(4)
O5D O 0.6585(4) -0.08242(15) 0.1236(4)
O6D O 0.6585(4) -0.01620(15) 0.1229(4)
O7D O 0.6867(4) -0.08194(15) -0.2838(4)
O8D O 0.7062(4) -0.01817(16) -0.2583(4)
O9D O 0.6576(3) -0.15062(15) -0.0296(4)
O10D O 0.5620(4) -0.14696(18) -0.1465(4)
O11D O 0.6024(3) -0.14465(15) 0.2617(4)
O12D O 0.4704(4) -0.1425(2) 0.3296(4)
O13D O 0.3485(4) -0.11751(14) -0.1369(4)
O14D O 0.3736(3) -0.18265(14) -0.1480(4)
O15D O 0.2833(4) -0.11486(15) 0.2416(4)
O16D O 0.2947(4) -0.17962(15) 0.2541(4)
O23D O 0.1793(4) -0.0136(2) -0.0483(5)
O24D O 0.2112(4) -0.09514(18) -0.0086(4)
O25D O 0.8253(4) -0.11996(19) 0.0665(4)
O26D O 0.7937(4) -0.20092(18) 0.0532(5)
O29D O 0.0645(7) -0.0235(3) 0.0909(7)
O30D O 0.8209(5) -0.0711(3) -0.0728(6)
O31D O 0.8989(6) -0.1850(3) -0.1020(6)
O27F O 0.7910(4) 0.29396(18) 0.0789(4)
O28F O 0.8608(6) 0.3039(2) -0.0900(5)
K1A K 0.71677(15) -0.04603(6) 0.31365(15)
K1E K 0.28323(15) 0.04603(6) -0.31365(15)
K2B K 0.2430(2) -0.2500 0.18571(19)
K2C K 0.2570(2) 0.2500 -0.31429(19)
Dy1A Dy 0.79789(2) -0.051008(10) -0.38752(2)
Dy1E Dy 0.20211(2) 0.051008(10) 0.38752(2)
Dy2A Dy 0.19612(2) -0.150798(9) 0.37058(2)
Dy2E Dy 0.80388(2) 0.150798(9) -0.37058(2)
Dy2F Dy 0.30388(2) 0.349202(9) -0.12942(2)
Dy3B Dy 0.32038(3) -0.2500 -0.14015(3)
Dy3C Dy 0.17962(3) 0.2500 0.35985(3)
K3A K 0.26625(17) -0.14316(6) -0.30866(15)
K3E K 0.73375(17) 0.14316(6) 0.30866(15)
K3F K 0.23375(17) 0.35684(6) 0.19134(15)
O5A O 0.1585(4) -0.08242(15) 0.3764(4)
O5E O 0.8415(4) 0.08242(15) -0.3764(4)
O6A O 0.1585(4) -0.01620(15) 0.3771(4)
O6E O 0.8415(4) 0.01620(15) -0.3771(4)
O7A O 0.1867(4) -0.08194(15) -0.2162(4)
O7E O 0.8133(4) 0.08194(15) 0.2162(4)
O8A O 0.2062(4) -0.01817(16) -0.2417(4)
O8E O 0.7938(4) 0.01817(16) 0.2417(4)
O13A O 0.8485(4) -0.11751(14) -0.3631(4)
O13E O 0.1515(4) 0.11751(14) 0.3631(4)
O14A O 0.8736(3) -0.18265(14) -0.3520(4)
O14E O 0.1264(3) 0.18265(14) 0.3520(4)
O14F O 0.6264(3) 0.31735(14) 0.1480(4)
O15A O 0.7833(4) -0.11486(15) 0.2584(4)
O15E O 0.2167(4) 0.11486(15) -0.2584(4)
O16A O 0.7947(4) -0.17962(15) 0.2459(4)
O16E O 0.2053(4) 0.17962(15) -0.2459(4)
O16F O 0.7053(4) 0.32038(15) -0.2541(4)
O21C O 0.7676(4) 0.28245(15) 0.2669(4)
O21D O 0.7324(4) -0.21755(15) -0.2331(4)
O21E O 0.7676(4) 0.21755(15) 0.2669(4)
O22C O 0.8597(3) 0.28330(14) -0.3463(3)
O22D O 0.6403(3) -0.21670(14) 0.1537(3)
O22E O 0.8597(3) 0.21670(14) -0.3463(3)
O33 O 0.4760(11) 0.2500 0.5222(11)
O34 O 0.4233(9) 0.1537(3) 0.3367(7)
O35 O 0.4645(6) 0.1046(3) 0.4990(7)
O36 O 0.5994(5) 0.0488(2) 0.6653(5)
loop_
_geom_bond_atom_site_label_1
_geom_bond_atom_site_label_2
_geom_bond_site_symmetry_1
_geom_bond_site_symmetry_2
K1 O1 1_555 1_555
K2 O16 1_555 1_555
C1 C2 1_555 1_555
C2 C7 1_555 1_555
C3 C4 1_555 1_555
C4 C6 1_555 1_555
C5 C1 1_555 1_555
C6 O3 1_555 1_555
C7 O5 1_555 1_555
C8 C3 1_555 1_555
C9 C10 1_555 1_555
C10 C14 1_555 1_555
C11 C12 1_555 1_555
C12 C16 1_555 1_555
C13 C9 1_555 1_555
C14 O9 1_555 1_555
C15 C11 1_555 1_555
C16 O15 1_555 1_555
C17 C18 1_555 1_555
C18 C22 1_555 1_555
C19 C20 1_555 1_555
C20 C24 1_555 1_555
C21 C17 1_555 1_555
C22 O21 1_555 1_555
C23 C19 1_555 1_555
C24 O17 1_555 1_555
Dy1 N1 1_555 1_555
Dy2 N3 1_555 1_555
Dy3 N5 1_555 1_555
K3 O7 1_555 1_555
N1 C1 1_555 1_555
N2 C2 1_555 1_555
N3 C10 1_555 1_555
N4 C9 1_555 1_555
N5 C17 1_555 1_555
N6 C18 1_555 1_555
O1 C5 1_555 1_555
O2 C5 1_555 1_555
O3 Dy1 1_555 1_555
O4 C6 1_555 1_555
O5 Dy2 1_555 1_555
O6 C7 1_555 1_555
O7 C8 1_555 1_555
O8 C8 1_555 1_555
O9 Dy2 1_555 1_555
O10 C14 1_555 1_555
O11 C15 1_555 1_555
O12 C15 1_555 1_555
O13 C13 1_555 1_555
O14 C13 1_555 1_555
O15 K1 1_555 1_555
O16 C16 1_555 1_555
O17 K2 1_555 1_555
O18 K2 1_555 1_555
O19 C21 1_555 1_555
O20 C21 1_555 1_555
O21 K3 1_555 1_555
O22 C23 1_555 1_555
O23 Dy1 1_555 1_555
O24 K1 1_555 1_555
O25 Dy2 1_555 1_555
O26 Dy2 1_555 1_555
O27 Dy3 1_555 1_555
O28 K2 1_555 1_555
O29 K1 1_555 1_555
O30 K3 1_555 1_555
O31 K3 1_555 1_555
O32 K2 1_555 1_555
O21F C22 1_555 1_555
O22F C23 1_555 1_555
K1D O8 1_555 1_555
C1D C2D 1_555 1_555
C2D C7D 1_555 1_555
C3D C4D 1_555 1_555
C4D C6D 1_555 1_555
C5D C1D 1_555 1_555
C6D O3D 1_555 1_555
C7D O5D 1_555 1_555
C8D C3D 1_555 1_555
C9D C10D 1_555 1_555
C10D C14D 1_555 1_555
C11D C12D 1_555 1_555
C12D C16D 1_555 1_555
C13D C9D 1_555 1_555
C14D O9D 1_555 1_555
C15D C11D 1_555 1_555
C16D O15D 1_555 1_555
Dy1D O6 1_555 1_555
Dy2D N3D 1_555 1_555
K3D O7D 1_555 1_555
N1D C1D 1_555 1_555
N2D C2D 1_555 1_555
N3D C10D 1_555 1_555
N4D C9D 1_555 1_555
O1D K1D 1_555 1_555
O2D C5D 1_555 1_555
O3D Dy1D 1_555 1_555
O4D C6D 1_555 1_555
O5D Dy2D 1_555 1_555
O6D Dy1 1_555 1_555
O7D C8D 1_555 1_555
O8D K1 1_555 1_555
O9D Dy2D 1_555 1_555
O10D C14D 1_555 1_555
O11D C15D 1_555 1_555
O12D C15D 1_555 1_555
O13D C13D 1_555 1_555
O14D C13D 1_555 1_555
O15D K1D 1_555 1_555
O16D C16D 1_555 1_555
O23D Dy1D 1_555 1_555
O24D K1D 1_555 1_555
O25D Dy2D 1_555 1_555
O26D Dy2D 1_555 1_555
O29D K1D 1_555 1_555
O30D K3D 1_555 1_555
O31D K3D 1_555 1_555
O27F Dy3 1_555 1_555
O28F K2 1_555 1_555
K1A O5D 1_555 1_555
K1E O5 1_555 1_555
K2B O16D 1_555 1_555
K2C O22 1_555 1_555
Dy1A O7D 1_555 1_555
Dy1E O7 1_555 1_555
Dy2A O15D 1_555 1_555
Dy2E O15 1_555 1_555
Dy2F O22F 1_555 1_555
Dy3B O14D 1_555 1_555
Dy3C O21 1_555 1_555
K3A O13D 1_555 1_555
K3E O13 1_555 1_555
K3F O21F 1_555 1_555
O5A K1D 1_555 1_555
O5E K1 1_555 1_555
O6A K1D 1_555 1_555
O6E K1 1_555 1_555
O7A Dy1D 1_555 1_555
O7E Dy1 1_555 1_555
O8A Dy1D 1_555 1_555
O8E Dy1 1_555 1_555
O13A K3D 1_555 1_555
O13E K3 1_555 1_555
O14A K3D 1_555 1_555
O14E K3 1_555 1_555
O14F Dy3 1_555 1_555
O15A Dy2D 1_555 1_555
O15E Dy2 1_555 1_555
O16A Dy2D 1_555 1_555
O16E Dy2 1_555 1_555
O16F K2 1_555 1_555
O21C Dy3 1_555 1_555
O21D K3D 1_555 1_555
O21E Dy3 1_555 1_555
O22C K2 1_555 1_555
O22D Dy2D 1_555 1_555
O22E K2 1_555 1_555
C3 N2 1_555 1_555
C4 N1 1_555 1_555
C11 N3 1_555 1_555
C12 N4 1_555 1_555
C19 N6 1_555 1_555
C20 N5 1_555 1_555
C24 O18 1_555 1_555
Dy1 O1 1_555 1_555
Dy1 O13 1_555 1_555
Dy1 O24 1_555 1_555
Dy2 O11 1_555 1_555
Dy2 O22 1_555 1_555
Dy3 O14 1_555 1_555
Dy3 O17 1_555 1_555
Dy3 O19 1_555 1_555
K3 O9 1_555 1_555
K3 O10 1_555 1_555
O6 K1E 1_555 1_555
O8 Dy1E 1_555 1_555
O14 K3E 1_555 1_555
O16 Dy2E 1_555 1_555
O21F Dy3C 1_555 1_555
O22F K2C 1_555 1_555
C3D N2D 1_555 1_555
C4D N1D 1_555 1_555
C5D O1D 1_555 1_555
C7D O6D 1_555 1_555
C8D O8D 1_555 1_555
C11D N3D 1_555 1_555
C12D N4D 1_555 1_555
Dy1D N1D 1_555 1_555
Dy1D O1D 1_555 1_555
Dy1D O13D 1_555 1_555
Dy1D O24D 1_555 1_555
Dy2D O11D 1_555 1_555
K3D O9D 1_555 1_555
K3D O10D 1_555 1_555
O6D K1A 1_555 1_555
O8D Dy1A 1_555 1_555
O14D K3A 1_555 1_555
O16D Dy2A 1_555 1_555
K1A O8E 1_555 1_555
K1A O15A 1_555 1_555
K1E O8A 1_555 1_555
K1E O15E 1_555 1_555
K2C O16E 1_555 1_555
Dy1A O6E 1_555 1_555
Dy1A O13A 1_555 1_555
Dy1E O6A 1_555 1_555
Dy1E O13E 1_555 1_555
Dy2A O5A 1_555 1_555
Dy2E O5E 1_555 1_555
Dy2E O22E 1_555 1_555
Dy3C O14E 1_555 1_555
K3A O7A 1_555 1_555
K3E O7E 1_555 1_555
K3E O21E 1_555 1_555

#END
