
#######################################################################
#
#                 Cambridge Crystallographic Data Centre
#                                CCDC 
#
#######################################################################
#
# If this CIF has been generated from an entry in the Cambridge 
# Structural Database, then it will include bibliographic, chemical, 
# crystal, experimental, refinement or atomic coordinate data resulting 
# from the CCDC's data processing and validation procedures.
#
#######################################################################

data_HIYMIM
_symmetry_cell_setting           monoclinic
_symmetry_space_group_name_H-M   'C 2/c'
_symmetry_Int_Tables_number      15
_space_group_name_Hall           '-C 2yn'
loop_
_symmetry_equiv_pos_site_id
_symmetry_equiv_pos_as_xyz
1 x,y,z
2 1/2+x,1/2+y,z
3 -x,y,1/2-z
4 1/2-x,1/2+y,1/2-z
5 -x,-y,-z
6 1/2-x,1/2-y,-z
7 x,-y,1/2+z
8 1/2+x,1/2-y,1/2+z
_cell_length_a                   22.352(2)
_cell_length_b                   7.9064(7)
_cell_length_c                   13.5045(12)
_cell_angle_alpha                90
_cell_angle_beta                 107.921(2)
_cell_angle_gamma                90
_cell_volume                     2270.78
loop_
_atom_site_label
_atom_site_type_symbol
_atom_site_fract_x
_atom_site_fract_y
_atom_site_fract_z
Hg1 Hg 0.078953(13) 1.03267(3) 0.42996(2)
I1 I 0.074066(19) 0.85602(5) 0.59723(3)
I2 I 0.11884(2) 1.34287(6) 0.40431(4)
N1 N 0.1557(2) 0.8828(7) 0.3678(4)
N2 N 0.0325(2) 0.8499(6) 0.2762(4)
C1 C 0.1370(3) 0.7805(7) 0.2846(5)
C2 C 0.1793(3) 0.7075(10) 0.2434(6)
H1 H 0.1654 0.6378 0.1853
C3 C 0.2425(3) 0.7372(11) 0.2879(7)
H2 H 0.2717 0.6867 0.2610
C4 C 0.2619(3) 0.8427(9) 0.3728(6)
H3 H 0.3043 0.8656 0.4042
C5 C 0.2174(3) 0.9123(9) 0.4095(6)
H4 H 0.2305 0.9844 0.4666
C6 C 0.0672(3) 0.7581(7) 0.2373(5)
C7 C 0.0445(3) 0.6353(8) 0.1503(5)
H5 H -0.0007 0.6353 0.1264
H6 H 0.0594 0.5241 0.1742
H7 H 0.0600 0.6672 0.0942
Hg1D Hg -0.078953(13) 0.96733(3) 0.57004(2)
Hg1B Hg -0.078953(13) 1.03267(3) 0.07004(2)
I1D I -0.074066(19) 1.14398(5) 0.40277(3)
I2D I -0.11884(2) 0.65713(6) 0.59569(4)
N1B N -0.1557(2) 0.8828(7) 0.1322(4)
N1D N -0.1557(2) 1.1172(7) 0.6322(4)
N2B N -0.0325(2) 0.8499(6) 0.2238(4)
N2D N -0.0325(2) 1.1501(6) 0.7238(4)
C1B C -0.1370(3) 0.7805(7) 0.2154(5)
C2B C -0.1793(3) 0.7075(10) 0.2566(6)
H1B H -0.1654 0.6378 0.3147
C3B C -0.2425(3) 0.7372(11) 0.2121(7)
H2B H -0.2717 0.6867 0.2390
C4B C -0.2619(3) 0.8427(9) 0.1272(6)
H3B H -0.3043 0.8656 0.0958
C5B C -0.2174(3) 0.9123(9) 0.0905(6)
H4B H -0.2305 0.9844 0.0334
C6B C -0.0672(3) 0.7581(7) 0.2627(5)
C7B C -0.0445(3) 0.6353(8) 0.3497(5)
H5B H 0.0007 0.6353 0.3736
H6B H -0.0594 0.5241 0.3258
H7B H -0.0600 0.6672 0.4058
loop_
_geom_bond_atom_site_label_1
_geom_bond_atom_site_label_2
_geom_bond_site_symmetry_1
_geom_bond_site_symmetry_2
Hg1 I1 1_555 1_555
I1 Hg1D 1_555 1_555
I2 Hg1 1_555 1_555
N1 Hg1 1_555 1_555
N2 Hg1 1_555 1_555
C1 N1 1_555 1_555
C2 C1 1_555 1_555
H1 C2 1_555 1_555
C3 C2 1_555 1_555
H2 C3 1_555 1_555
C4 C3 1_555 1_555
H3 C4 1_555 1_555
C5 N1 1_555 1_555
H4 C5 1_555 1_555
C6 N2 1_555 1_555
C7 C6 1_555 1_555
H5 C7 1_555 1_555
H6 C7 1_555 1_555
H7 C7 1_555 1_555
Hg1D I1D 1_555 1_555
Hg1B N1B 1_555 1_555
I1D Hg1 1_555 1_555
I2D Hg1D 1_555 1_555
N1B C1B 1_555 1_555
N1D Hg1D 1_555 1_555
N2B N2 1_555 1_555
N2D Hg1D 1_555 1_555
C1B C2B 1_555 1_555
C2B H1B 1_555 1_555
C3B C2B 1_555 1_555
H2B C3B 1_555 1_555
C4B C3B 1_555 1_555
H3B C4B 1_555 1_555
C5B N1B 1_555 1_555
H4B C5B 1_555 1_555
C6B N2B 1_555 1_555
C7B C6B 1_555 1_555
H5B C7B 1_555 1_555
H6B C7B 1_555 1_555
H7B C7B 1_555 1_555
C1 C6 1_555 1_555
C4 C5 1_555 1_555
Hg1B N2B 1_555 1_555
C1B C6B 1_555 1_555
C4B C5B 1_555 1_555

#END
