
#######################################################################
#
#                 Cambridge Crystallographic Data Centre
#                                CCDC 
#
#######################################################################
#
# If this CIF has been generated from an entry in the Cambridge 
# Structural Database, then it will include bibliographic, chemical, 
# crystal, experimental, refinement or atomic coordinate data resulting 
# from the CCDC's data processing and validation procedures.
#
#######################################################################

data_HIYRAJ
_symmetry_cell_setting           monoclinic
_symmetry_space_group_name_H-M   'C 2/c'
_symmetry_Int_Tables_number      15
_space_group_name_Hall           '-C 2yn'
loop_
_symmetry_equiv_pos_site_id
_symmetry_equiv_pos_as_xyz
1 x,y,z
2 1/2+x,1/2+y,z
3 -x,y,1/2-z
4 1/2-x,1/2+y,1/2-z
5 -x,-y,-z
6 1/2-x,1/2-y,-z
7 x,-y,1/2+z
8 1/2+x,1/2-y,1/2+z
_cell_length_a                   35.781(3)
_cell_length_b                   14.930(1)
_cell_length_c                   30.711(2)
_cell_angle_alpha                90
_cell_angle_beta                 103.163(4)
_cell_angle_gamma                90
_cell_volume                     15975.1
loop_
_atom_site_label
_atom_site_type_symbol
_atom_site_fract_x
_atom_site_fract_y
_atom_site_fract_z
Zn1 Zn 0.87483 -0.09259 0.94705
Zn2 Zn 1.08095 0.62311 1.08524
Zn3 Zn 1.17914 0.14023 0.78883
I1 I 0.89093 -0.22896 0.90918
I2 I 0.86035 -0.07453 1.01359
I3 I 1.11939 0.73441 1.04244
I4 I 1.03221 0.64411 1.12927
I5 I 1.13161 0.14694 0.68892
I6 I 1.23365 0.22044 0.79953
N1 N 1.06608 0.29013 0.92341
N2 N 1.02270 0.23318 0.96782
N3 N 1.03734 0.14021 0.90295
C1 C 1.04859 0.29689 0.95694
C2 C 1.01514 0.15614 0.93531
C3 C 1.06654 0.20635 0.90411
N4 N 1.07251 0.52593 1.03426
C4 C 1.09652 0.50317 1.00725
C5 C 1.08989 0.42356 0.98141
C6 C 1.05646 0.36846 0.98382
C7 C 1.04172 0.37678 1.01999
C8 C 1.04935 0.45693 1.04442
N5 N 0.92261 -0.02493 0.94213
C9 C 0.93856 -0.02476 0.90355
C10 C 0.96646 0.03007 0.89984
C11 C 0.98326 0.08413 0.93947
C12 C 0.96353 0.09301 0.97322
C13 C 0.93661 0.02738 0.97521
N6 N 1.14202 0.16462 0.82946
C14 C 1.14566 0.23745 0.85271
C15 C 1.11983 0.25973 0.87330
C16 C 1.09097 0.19313 0.87510
C17 C 1.08135 0.13527 0.84038
C18 C 1.10600 0.12671 0.81579
N7 N 0.71949 0.05666 0.77940
N8 N 0.72691 0.17227 0.82679
N9 N 0.69141 0.19424 0.75235
C19 C 0.69251 0.10826 0.75011
C20 C 0.73918 0.10326 0.81307
C21 C 0.70416 0.22387 0.79164
N10 N 0.62325 -0.02456 0.63121
C22 C 0.62354 0.07188 0.63341
C23 C 0.64940 0.11650 0.66910
C24 C 0.66869 0.06308 0.70380
C25 C 0.67711 -0.02602 0.69370
C26 C 0.65418 -0.06348 0.65136
N11 N 0.82587 -0.05063 0.90294
C27 C 0.82060 -0.06587 0.85996
C28 C 0.79127 -0.01659 0.82846
C29 C 0.76826 0.05399 0.84604
C30 C 0.76739 0.05038 0.89228
C31 C 0.79188 -0.01573 0.91855
N12 N 0.69381 0.49640 0.80248
C32 C 0.72527 0.45888 0.82962
C33 C 0.72867 0.36908 0.83227
C34 C 0.69896 0.31445 0.79756
C35 C 0.67130 0.35788 0.76657
C36 C 0.67291 0.44577 0.76683
Zn2G Zn 0.58095 -0.12311 0.58524
Zn3A Zn 0.67914 0.64023 0.78883
N10G N 1.12325 0.52456 1.13121
N12A N 1.19381 -0.00360 0.80248
C37 C 1.10249 0.48529 0.83962
C38 C 1.07428 0.49156 0.86322
C39 C 1.04557 0.43334 0.85202
C40 C 1.04199 0.38312 0.80996
C41 C 1.07201 0.36025 0.79896
C42 C 1.10556 0.41451 0.81390
N13 N 1.13624 0.53930 0.85598
O1 O 1.14807 0.53961 0.89533
O2 O 1.15724 0.54912 0.83056
C43 C 0.69908 0.34264 0.92350
C44 C 0.70291 0.35726 0.97058
C45 C 0.74125 0.38908 0.99622
C46 C 0.76723 0.42475 0.97157
C47 C 0.75158 0.45151 0.92483
C48 C 0.72288 0.39677 0.89839
N14 N 0.66064 0.29542 0.89733
O3 O 0.63064 0.31575 0.90934
O4 O 0.66123 0.26553 0.86120
C49 C 1.00430 -0.17243 0.84385
C50 C 1.03036 -0.20679 0.81602
C51 C 1.06005 -0.25885 0.83771
C52 C 1.07004 -0.25614 0.88692
C53 C 1.03987 -0.24772 0.90916
C54 C 1.00364 -0.21377 0.88407
N15 N 0.96979 -0.13067 0.82146
O5 O 0.97334 -0.06385 0.78461
O6 O 0.94073 -0.17328 0.82007
loop_
_geom_bond_atom_site_label_1
_geom_bond_atom_site_label_2
_geom_bond_site_symmetry_1
_geom_bond_site_symmetry_2
Zn1 I1 1_555 1_555
Zn2 I3 1_555 1_555
Zn3 I5 1_555 1_555
I2 Zn1 1_555 1_555
I4 Zn2 1_555 1_555
I6 Zn3 1_555 1_555
N1 C1 1_555 1_555
N2 C1 1_555 1_555
N3 C2 1_555 1_555
C1 C6 1_555 1_555
C2 N2 1_555 1_555
C3 N1 1_555 1_555
N4 Zn2 1_555 1_555
C4 N4 1_555 1_555
C5 C4 1_555 1_555
C6 C5 1_555 1_555
C7 C6 1_555 1_555
C8 N4 1_555 1_555
N5 Zn1 1_555 1_555
C9 N5 1_555 1_555
C10 C9 1_555 1_555
C11 C2 1_555 1_555
C12 C11 1_555 1_555
C13 N5 1_555 1_555
N6 Zn3 1_555 1_555
C14 N6 1_555 1_555
C15 C14 1_555 1_555
C16 C3 1_555 1_555
C17 C16 1_555 1_555
C18 N6 1_555 1_555
N7 C19 1_555 1_555
N8 C20 1_555 1_555
N9 C19 1_555 1_555
C19 C24 1_555 1_555
C20 N7 1_555 1_555
C21 N8 1_555 1_555
N10 C22 1_555 1_555
C22 C23 1_555 1_555
C23 C24 1_555 1_555
C24 C25 1_555 1_555
C25 C26 1_555 1_555
C26 N10 1_555 1_555
N11 Zn1 1_555 1_555
C27 N11 1_555 1_555
C28 C27 1_555 1_555
C29 C20 1_555 1_555
C30 C29 1_555 1_555
C31 N11 1_555 1_555
N12 C32 1_555 1_555
C32 C33 1_555 1_555
C33 C34 1_555 1_555
C34 C21 1_555 1_555
C35 C34 1_555 1_555
C36 N12 1_555 1_555
C37 C38 1_555 1_555
C38 C39 1_555 1_555
C39 C40 1_555 1_555
C40 C41 1_555 1_555
C41 C42 1_555 1_555
C42 C37 1_555 1_555
N13 C37 1_555 1_555
O1 N13 1_555 1_555
O2 N13 1_555 1_555
C43 C44 1_555 1_555
C44 C45 1_555 1_555
C45 C46 1_555 1_555
C46 C47 1_555 1_555
C47 C48 1_555 1_555
C48 C43 1_555 1_555
N14 C43 1_555 1_555
O3 N14 1_555 1_555
O4 N14 1_555 1_555
C49 C50 1_555 1_555
C50 C51 1_555 1_555
C51 C52 1_555 1_555
C52 C53 1_555 1_555
C53 C54 1_555 1_555
C54 C49 1_555 1_555
N15 C49 1_555 1_555
O5 N15 1_555 1_555
O6 N15 1_555 1_555
Zn2G N10 1_555 1_555
Zn3A N12 1_555 1_555
N10G Zn2 1_555 1_555
N12A Zn3 1_555 1_555
N3 C3 1_555 1_555
C7 C8 1_555 1_555
C10 C11 1_555 1_555
C12 C13 1_555 1_555
C15 C16 1_555 1_555
C17 C18 1_555 1_555
N9 C21 1_555 1_555
C28 C29 1_555 1_555
C30 C31 1_555 1_555
C35 C36 1_555 1_555

#END
