
#######################################################################
#
#                 Cambridge Crystallographic Data Centre
#                                CCDC 
#
#######################################################################
#
# If this CIF has been generated from an entry in the Cambridge 
# Structural Database, then it will include bibliographic, chemical, 
# crystal, experimental, refinement or atomic coordinate data resulting 
# from the CCDC's data processing and validation procedures.
#
#######################################################################

data_HIYRIS
_symmetry_cell_setting           monoclinic
_symmetry_space_group_name_H-M   'P 21/c'
_symmetry_Int_Tables_number      14
_space_group_name_Hall           '-P 2ybc'
loop_
_symmetry_equiv_pos_site_id
_symmetry_equiv_pos_as_xyz
1 x,y,z
2 -x,1/2+y,1/2-z
3 -x,-y,-z
4 x,1/2-y,1/2+z
_cell_length_a                   7.1384(19)
_cell_length_b                   18.424(5)
_cell_length_c                   17.907(5)
_cell_angle_alpha                90
_cell_angle_beta                 90.984(3)
_cell_angle_gamma                90
_cell_volume                     2354.74
loop_
_atom_site_label
_atom_site_type_symbol
_atom_site_fract_x
_atom_site_fract_y
_atom_site_fract_z
C1 C -0.1116(8) 0.2065(3) 0.7557(3)
H1 H -0.1490 0.1739 0.7922
C2 C -0.1344(8) 0.1868(3) 0.6830(3)
H2 H -0.1841 0.1418 0.6700
C3 C -0.0816(8) 0.2357(3) 0.6290(3)
H3 H -0.1003 0.2246 0.5787
C4 C -0.0007(7) 0.3013(3) 0.6492(3)
C5 C 0.0148(8) 0.3162(3) 0.7248(3)
H4 H 0.0650 0.3606 0.7395
C6 C 0.0665(7) 0.3512(3) 0.5926(3)
C7 C 0.1822(7) 0.4492(3) 0.5405(3)
C8 C 0.1608(7) 0.3948(3) 0.4885(3)
C9 C 0.2551(9) 0.5245(4) 0.5371(4)
C10 C 0.1992(8) 0.3951(3) 0.4072(3)
C11 C 0.4941(8) 0.3120(4) 0.7001(4)
H5 H 0.5304 0.3537 0.7258
C12 C 0.5061(8) 0.3113(3) 0.6237(4)
H6 H 0.5485 0.3520 0.5983
C13 C 0.4545(8) 0.2496(4) 0.5851(3)
H7 H 0.4636 0.2476 0.5334
C14 C 0.3883(7) 0.1901(3) 0.6252(3)
C15 C 0.3789(7) 0.1961(3) 0.7018(3)
H8 H 0.3330 0.1568 0.7285
C16 C 0.3317(7) 0.1245(3) 0.5848(3)
C17 C 0.2367(7) 0.0534(3) 0.4959(3)
C18 C 0.2985(8) 0.0096(3) 0.5548(3)
C19 C 0.3181(9) -0.0700(3) 0.5648(4)
C20 C 0.1596(8) 0.0329(4) 0.4217(3)
N1 N -0.0390(7) 0.2696(2) 0.7780(3)
N2 N 0.1197(6) 0.4209(2) 0.6059(3)
H9 H 0.1236 0.4397 0.6480
N3 N 0.0905(6) 0.3341(2) 0.5216(2)
N4 N 0.4320(7) 0.2549(3) 0.7396(3)
N5 N 0.2556(6) 0.1259(2) 0.5162(3)
N6 N 0.3585(6) 0.0560(3) 0.6093(3)
H10 H 0.4046 0.0437 0.6522
O1 O 0.2592(7) 0.5621(2) 0.5944(3)
O2 O 0.3101(6) 0.5489(2) 0.4732(3)
H11 H 0.2938 0.5177 0.4410
O3 O 0.1665(6) 0.3398(2) 0.3699(2)
O4 O 0.2593(6) 0.4542(2) 0.3774(2)
O5 O 0.2567(6) -0.1103(2) 0.5102(3)
H12 H 0.2212 -0.0864 0.4731
O6 O 0.3889(7) -0.0936(2) 0.6220(3)
O7 O 0.1055(6) 0.0812(2) 0.3783(2)
O8 O 0.1547(6) -0.0346(2) 0.4057(2)
O9 O 0.3894(6) 0.2166(2) 0.3841(2)
H13 H 0.3894 0.2253 0.3327
H14 H 0.4371 0.1769 0.3948
O10 O -0.2769(6) 0.2889(2) 0.4319(3)
H15 H -0.3476 0.2767 0.3994
H16 H -0.2614 0.3326 0.4278
Pb1 Pb 0.05323(3) 0.219656(12) 0.419947(12)
N1C N -0.0390(7) 0.2304(2) 0.2780(3)
Pb1C Pb 0.05323(3) 0.280344(12) 0.919947(12)
O11 O 0.9418(7) 0.4977(3) 0.2633(2)
H17 H 0.9615 0.5154 0.2237
H18 H 1.0274 0.4737 0.2752
O12 O 0.5229(7) 0.4664(3) 0.2536(2)
H19 H 0.4656 0.5006 0.2754
H20 H 0.6344 0.4771 0.2494
loop_
_geom_bond_atom_site_label_1
_geom_bond_atom_site_label_2
_geom_bond_site_symmetry_1
_geom_bond_site_symmetry_2
C1 H1 1_555 1_555
C2 C1 1_555 1_555
H2 C2 1_555 1_555
C3 C2 1_555 1_555
H3 C3 1_555 1_555
C4 C3 1_555 1_555
C5 C4 1_555 1_555
H4 C5 1_555 1_555
C6 C4 1_555 1_555
C7 C8 1_555 1_555
C8 C10 1_555 1_555
C9 C7 1_555 1_555
C10 O3 1_555 1_555
C11 H5 1_555 1_555
C12 C11 1_555 1_555
H6 C12 1_555 1_555
C13 C12 1_555 1_555
H7 C13 1_555 1_555
C14 C13 1_555 1_555
C15 C14 1_555 1_555
H8 C15 1_555 1_555
C16 C14 1_555 1_555
C17 C18 1_555 1_555
C18 C19 1_555 1_555
C19 O5 1_555 1_555
C20 C17 1_555 1_555
N1 C1 1_555 1_555
N2 C6 1_555 1_555
H9 N2 1_555 1_555
N3 C6 1_555 1_555
N4 C11 1_555 1_555
N5 C16 1_555 1_555
N6 C16 1_555 1_555
H10 N6 1_555 1_555
O1 C9 1_555 1_555
O2 C9 1_555 1_555
H11 O2 1_555 1_555
O3 Pb1 1_555 1_555
O4 C10 1_555 1_555
O5 H12 1_555 1_555
O6 C19 1_555 1_555
O7 C20 1_555 1_555
O8 C20 1_555 1_555
O9 H13 1_555 1_555
H14 O9 1_555 1_555
O10 H15 1_555 1_555
H16 O10 1_555 1_555
Pb1 N3 1_555 1_555
O11 H17 1_555 1_555
H18 O11 1_555 1_555
O12 H19 1_555 1_555
H20 O12 1_555 1_555
N1C Pb1 1_555 1_555
Pb1C N1 1_555 1_555
C5 N1 1_555 1_555
C7 N2 1_555 1_555
C8 N3 1_555 1_555
C15 N4 1_555 1_555
C17 N5 1_555 1_555
C18 N6 1_555 1_555
N5 Pb1 1_555 1_555
O7 Pb1 1_555 1_555
O9 Pb1 1_555 1_555
O10 Pb1 1_555 1_555

#END
