
#######################################################################
#
#                 Cambridge Crystallographic Data Centre
#                                CCDC 
#
#######################################################################
#
# If this CIF has been generated from an entry in the Cambridge 
# Structural Database, then it will include bibliographic, chemical, 
# crystal, experimental, refinement or atomic coordinate data resulting 
# from the CCDC's data processing and validation procedures.
#
#######################################################################

data_HIYXUJ
_symmetry_cell_setting           monoclinic
_symmetry_space_group_name_H-M   'P 21/n'
_symmetry_Int_Tables_number      14
_space_group_name_Hall           '-P 2yn'
loop_
_symmetry_equiv_pos_site_id
_symmetry_equiv_pos_as_xyz
1 x,y,z
2 1/2-x,1/2+y,1/2-z
3 -x,-y,-z
4 1/2+x,1/2-y,1/2+z
_cell_length_a                   7.3370(6)
_cell_length_b                   8.2929(5)
_cell_length_c                   8.7631(7)
_cell_angle_alpha                90
_cell_angle_beta                 92.997(4)
_cell_angle_gamma                90
_cell_volume                     532.462
loop_
_atom_site_label
_atom_site_type_symbol
_atom_site_fract_x
_atom_site_fract_y
_atom_site_fract_z
Pb1 Pb 0.23262(5) 0.63294(5) -0.11304(5)
S1 S 0.4632(4) 0.3497(3) -0.1618(3)
O1 O 0.4608(10) 0.0788(9) 0.3402(9)
C1 C 0.3838(16) 0.2084(13) -0.0338(12)
C2 C 0.2605(14) -0.0185(12) 0.1396(13)
H1 H 0.2094 -0.0931 0.2042
C3 C 0.3950(15) 0.0939(13) 0.2046(13)
N1 N 0.4517(11) 0.2107(10) 0.1131(9)
N2 N 0.2652(11) 0.0993(10) -0.0972(10)
N3 N 0.2084(13) -0.0200(10) -0.0033(11)
Pb1B Pb 0.76738(5) 0.36706(5) 0.11304(5)
Pb1A Pb 0.26738(5) 0.13294(5) -0.38696(5)
Pb1C Pb 0.73262(5) -0.13294(5) 0.38696(5)
Pb1A_2 Pb 0.26738(5) 0.13294(5) 0.61304(5)
Pb1_2 Pb 0.23262(5) -0.36706(5) -0.11304(5)
S1B S 0.5368(4) 0.6503(3) 0.1618(3)
S1A S 0.0368(4) 0.8497(3) -0.3382(3)
O1C O -0.0392(10) 0.4212(9) -0.1598(9)
O1A O 0.0392(10) 0.5788(9) 0.1598(9)
N1B N 0.5483(11) 0.7893(10) -0.1131(9)
N2A N 0.2348(11) 0.5993(10) -0.4028(10)
N3_2 N 0.2084(13) 0.9800(10) -0.0033(11)
loop_
_geom_bond_atom_site_label_1
_geom_bond_atom_site_label_2
_geom_bond_site_symmetry_1
_geom_bond_site_symmetry_2
Pb1 S1 1_555 1_555
S1 C1 1_555 1_555
O1 C3 1_555 1_555
C1 N1 1_555 1_555
C2 H1 1_555 1_555
C3 C2 1_555 1_555
N1 C3 1_555 1_555
N2 C1 1_555 1_555
N3 C2 1_555 1_555
Pb1B S1 1_555 1_555
Pb1A S1 1_555 1_555
Pb1C O1 1_555 1_555
Pb1A_2 O1 1_555 1_555
Pb1_2 N3 1_555 1_555
S1B Pb1 1_555 1_555
S1A Pb1 1_555 1_555
O1C Pb1 1_555 1_555
O1A Pb1 1_555 1_555
N1B Pb1 1_555 1_555
N2A Pb1 1_555 1_555
N3_2 Pb1 1_555 1_555
N1 Pb1B 1_555 1_555
N2 N3 1_555 1_555
N2 Pb1A 1_555 1_555
Pb1B S1B 1_555 1_555

#END
