
#######################################################################
#
#                 Cambridge Crystallographic Data Centre
#                                CCDC 
#
#######################################################################
#
# If this CIF has been generated from an entry in the Cambridge 
# Structural Database, then it will include bibliographic, chemical, 
# crystal, experimental, refinement or atomic coordinate data resulting 
# from the CCDC's data processing and validation procedures.
#
#######################################################################

data_HIZHUT
_symmetry_cell_setting           orthorhombic
_symmetry_space_group_name_H-M   'P b c a'
_symmetry_Int_Tables_number      61
_space_group_name_Hall           '-P 2ac 2ab'
loop_
_symmetry_equiv_pos_site_id
_symmetry_equiv_pos_as_xyz
1 x,y,z
2 1/2-x,-y,1/2+z
3 1/2+x,1/2-y,-z
4 -x,1/2+y,1/2-z
5 -x,-y,-z
6 1/2+x,y,1/2-z
7 1/2-x,1/2+y,z
8 x,1/2-y,1/2+z
_cell_length_a                   17.10(2)
_cell_length_b                   16.20(4)
_cell_length_c                   20.25(4)
_cell_angle_alpha                90
_cell_angle_beta                 90
_cell_angle_gamma                90
_cell_volume                     5609.65
loop_
_atom_site_label
_atom_site_type_symbol
_atom_site_fract_x
_atom_site_fract_y
_atom_site_fract_z
La1 La 0.4222(1) 0.2000(1) 0.7008(1)
La2 La 0.0996(1) 0.3549(1) 0.7884(1)
La3 La 0.3878(1) 0.4296(1) 0.7559(1)
Cl1 Cl 0.2261(2) 0.4782(2) 0.7822(2)
C1 C 0.4689(8) 0.1932(7) 0.8585(7)
C2 C 0.4092(8) 0.2649(7) 0.8593(7)
C3 C 0.4452(8) 0.3401(7) 0.8950(7)
C4 C 0.5232(8) 0.3661(8) 0.8658(7)
C5 C 0.5795(8) 0.2935(8) 0.8657(7)
C6 C 0.5468(8) 0.2179(8) 0.8299(7)
C7 C 0.4128(8) 0.2965(7) 0.5597(6)
C8 C 0.3613(8) 0.3526(7) 0.6012(6)
C9 C 0.3864(8) 0.4429(7) 0.5932(7)
C10 C 0.4751(8) 0.4567(7) 0.6090(6)
C11 C 0.5249(8) 0.3987(8) 0.5668(7)
C12 C 0.5011(8) 0.3064(7) 0.5751(6)
O1 O 0.3814(5) 0.2855(4) 0.7945(4)
O2 O 0.5168(5) 0.4044(4) 0.8028(4)
O3 O 0.5459(5) 0.2282(5) 0.7604(4)
O4 O 0.3615(5) 0.3289(5) 0.6700(4)
O5 O 0.4923(5) 0.4505(5) 0.6778(4)
O6 O 0.5204(5) 0.2764(5) 0.6379(4)
N1 N 0.4344(7) 0.1262(6) 0.8176(5)
N2 N 0.3892(7) 0.4091(6) 0.8904(5)
N3 N 0.6523(7) 0.3198(6) 0.8340(6)
N4 N 0.3934(7) 0.2083(6) 0.5715(5)
N5 N 0.3415(7) 0.4936(6) 0.6391(6)
N6 N 0.6070(7) 0.4085(6) 0.5850(5)
O7 O 0.4137(6) 0.0498(5) 0.6671(5)
O8 O 0.2741(6) 0.1539(5) 0.7058(6)
O9 O 0.4081(6) 0.5844(5) 0.7952(5)
O10 O 0.7215(5) 0.2685(5) 0.6805(5)
H1 H 0.4763 0.1733 0.9027
H2 H 0.3649 0.2471 0.8847
H3 H 0.4523 0.3263 0.9407
H4 H 0.5447 0.4067 0.8952
H5 H 0.5904 0.2783 0.9106
H6 H 0.5824 0.1734 0.8390
H7 H 0.4041 0.3090 0.5139
H8 H 0.3087 0.3477 0.5851
H9 H 0.3759 0.4602 0.5487
H10 H 0.4878 0.5120 0.5957
H11 H 0.5189 0.4138 0.5212
H12 H 0.5297 0.2750 0.5429
H13 H 0.4659 0.0818 0.8156
H14 H 0.3873 0.1109 0.8332
H15 H 0.3417 0.3959 0.9064
H16 H 0.4074 0.4543 0.9112
H17 H 0.6731 0.3643 0.8538
H18 H 0.6876 0.2785 0.8335
H19 H 0.3430 0.1974 0.5622
H20 H 0.4244 0.1741 0.5481
H21 H 0.3534 0.5476 0.6357
H22 H 0.2899 0.4865 0.6328
H23 H 0.6386 0.3768 0.5601
H24 H 0.6225 0.4615 0.5826
La2E La 0.5996(1) 0.3549(1) 0.7116(1)
Cl1E Cl 0.7261(2) 0.4782(2) 0.7178(2)
Cl2 Cl 0.2110(3) 0.1523(2) 0.5451(2)
Cl3 Cl 0.5675(3) 0.0927(2) 0.5468(2)
O11 O 0.1759(6) 0.0073(6) 0.0599(5)
O12 O 0.7088(7) 0.2940(6) 0.0549(5)
O13 O 0.8017(8) 0.4297(7) 0.0766(6)
loop_
_geom_bond_atom_site_label_1
_geom_bond_atom_site_label_2
_geom_bond_site_symmetry_1
_geom_bond_site_symmetry_2
La1 O1 1_555 1_555
La2 Cl1 1_555 1_555
La3 Cl1 1_555 1_555
C1 C2 1_555 1_555
C2 C3 1_555 1_555
C3 C4 1_555 1_555
C4 C5 1_555 1_555
C5 C6 1_555 1_555
C6 C1 1_555 1_555
C7 C8 1_555 1_555
C8 C9 1_555 1_555
C9 C10 1_555 1_555
C10 C11 1_555 1_555
C11 C12 1_555 1_555
C12 C7 1_555 1_555
O1 La3 1_555 1_555
O2 La3 1_555 1_555
O3 La1 1_555 1_555
O4 La1 1_555 1_555
O5 La3 1_555 1_555
O6 La1 1_555 1_555
N1 La1 1_555 1_555
N2 La3 1_555 1_555
N3 C5 1_555 1_555
N4 La1 1_555 1_555
N5 La3 1_555 1_555
N6 C11 1_555 1_555
O7 La1 1_555 1_555
O8 La1 1_555 1_555
O9 La3 1_555 1_555
O10 La2E 1_555 1_555
H1 C1 1_555 1_555
H2 C2 1_555 1_555
H3 C3 1_555 1_555
H4 C4 1_555 1_555
H5 C5 1_555 1_555
H6 C6 1_555 1_555
H7 C7 1_555 1_555
H8 C8 1_555 1_555
H9 C9 1_555 1_555
H10 C10 1_555 1_555
H11 C11 1_555 1_555
H12 C12 1_555 1_555
H13 N1 1_555 1_555
H14 N1 1_555 1_555
H15 N2 1_555 1_555
H16 N2 1_555 1_555
H17 N3 1_555 1_555
H18 N3 1_555 1_555
H19 N4 1_555 1_555
H20 N4 1_555 1_555
H21 N5 1_555 1_555
H22 N5 1_555 1_555
H23 N6 1_555 1_555
H24 N6 1_555 1_555
La2E O2 1_555 1_555
Cl1E La2E 1_555 1_555
La3 O4 1_555 1_555
C1 N1 1_555 1_555
C2 O1 1_555 1_555
C3 N2 1_555 1_555
C4 O2 1_555 1_555
C6 O3 1_555 1_555
C7 N4 1_555 1_555
C8 O4 1_555 1_555
C9 N5 1_555 1_555
C10 O5 1_555 1_555
C12 O6 1_555 1_555
O3 La2E 1_555 1_555
O5 La2E 1_555 1_555
O6 La2E 1_555 1_555
N3 La2E 1_555 1_555
N6 La2E 1_555 1_555

#END
