
#######################################################################
#
#                 Cambridge Crystallographic Data Centre
#                                CCDC 
#
#######################################################################
#
# If this CIF has been generated from an entry in the Cambridge 
# Structural Database, then it will include bibliographic, chemical, 
# crystal, experimental, refinement or atomic coordinate data resulting 
# from the CCDC's data processing and validation procedures.
#
#######################################################################

data_HIZJEG
_symmetry_cell_setting           monoclinic
_symmetry_space_group_name_H-M   'C 2/c'
_symmetry_Int_Tables_number      15
_space_group_name_Hall           '-C 2yn'
loop_
_symmetry_equiv_pos_site_id
_symmetry_equiv_pos_as_xyz
1 x,y,z
2 1/2+x,1/2+y,z
3 -x,y,1/2-z
4 1/2-x,1/2+y,1/2-z
5 -x,-y,-z
6 1/2-x,1/2-y,-z
7 x,-y,1/2+z
8 1/2+x,1/2-y,1/2+z
_cell_length_a                   21.5246(4)
_cell_length_b                   10.9710(2)
_cell_length_c                   8.1377(2)
_cell_angle_alpha                90
_cell_angle_beta                 95.814(1)
_cell_angle_gamma                90
_cell_volume                     1911.8
loop_
_atom_site_label
_atom_site_type_symbol
_atom_site_fract_x
_atom_site_fract_y
_atom_site_fract_z
Pb1 Pb 0.0000 -0.048187(6) 0.2500
F1 F -0.02002(7) 0.34444(15) 0.4578(2)
F2 F 0.05165(8) 0.31164(14) 0.65467(19)
F3 F 0.07161(9) 0.42080(13) 0.4485(2)
O1 O 0.02351(6) 0.11456(11) 0.43272(16)
O2 O 0.10929(6) 0.00750(12) 0.21891(17)
C1 C 0.05945(7) 0.20494(14) 0.4058(2)
C2 C 0.11156(8) 0.20974(14) 0.3220(2)
H1 H 0.1313 0.2847 0.3148
C3 C 0.13767(7) 0.10659(14) 0.2447(2)
C4 C 0.20212(7) 0.11676(14) 0.1937(2)
C5 C 0.24211(8) 0.21387(15) 0.2441(2)
H2 H 0.2282 0.2755 0.3098
C6 C 0.30226(8) 0.21861(16) 0.1966(2)
H3 H 0.3285 0.2832 0.2307
C7 C 0.32333(8) 0.12657(16) 0.0979(2)
H4 H 0.3637 0.1293 0.0669
C8 C 0.28376(9) 0.03048(16) 0.0456(2)
H5 H 0.2976 -0.0301 -0.0219
C9 C 0.22376(8) 0.02503(15) 0.0942(2)
H6 H 0.1978 -0.0399 0.0604
C10 C 0.04069(9) 0.32255(15) 0.4896(2)
Pb1F Pb 0.0000 0.048187(6) 0.7500
Pb1F_2 Pb 0.0000 0.048187(6) -0.2500
F1F F -0.02002(7) -0.34444(15) -0.0422(2)
F2F F 0.05165(8) -0.31164(14) 0.15467(19)
F3F F 0.07161(9) -0.42080(13) -0.0515(2)
O1F O 0.02351(6) -0.11456(11) -0.06728(16)
O1D O -0.02351(6) -0.11456(11) 0.56728(16)
O1B O -0.02351(6) 0.11456(11) 0.06728(16)
O2F O 0.10929(6) -0.00750(12) -0.28109(17)
O2B O -0.10929(6) 0.00750(12) 0.28109(17)
C1F C 0.05945(7) -0.20494(14) -0.0942(2)
C2F C 0.11156(8) -0.20974(14) -0.1780(2)
H1F H 0.1313 -0.2847 -0.1852
C3F C 0.13767(7) -0.10659(14) -0.2553(2)
C4F C 0.20212(7) -0.11676(14) -0.3063(2)
C5F C 0.24211(8) -0.21387(15) -0.2559(2)
H2F H 0.2282 -0.2755 -0.1902
C6F C 0.30226(8) -0.21861(16) -0.3034(2)
H3F H 0.3285 -0.2832 -0.2693
C7F C 0.32333(8) -0.12657(16) -0.4021(2)
H4F H 0.3637 -0.1293 -0.4331
C8F C 0.28376(9) -0.03048(16) -0.4544(2)
H5F H 0.2976 0.0301 -0.5219
C9F C 0.22376(8) -0.02503(15) -0.4058(2)
H6F H 0.1978 0.0399 -0.4396
C10F C 0.04069(9) -0.32255(15) -0.0104(2)
loop_
_geom_bond_atom_site_label_1
_geom_bond_atom_site_label_2
_geom_bond_site_symmetry_1
_geom_bond_site_symmetry_2
Pb1 O1 1_555 1_555
F1 C10 1_555 1_555
F2 C10 1_555 1_555
F3 C10 1_555 1_555
O1 C1 1_555 1_555
O2 Pb1 1_555 1_555
C1 C2 1_555 1_555
C2 H1 1_555 1_555
C3 O2 1_555 1_555
C4 C3 1_555 1_555
C5 C4 1_555 1_555
H2 C5 1_555 1_555
C6 C5 1_555 1_555
H3 C6 1_555 1_555
C7 C6 1_555 1_555
H4 C7 1_555 1_555
C8 C7 1_555 1_555
H5 C8 1_555 1_555
C9 C4 1_555 1_555
H6 C9 1_555 1_555
C10 C1 1_555 1_555
Pb1F O1 1_555 1_555
Pb1F_2 O1F 1_555 1_555
F1F C10F 1_555 1_555
F2F C10F 1_555 1_555
F3F C10F 1_555 1_555
O1F Pb1 1_555 1_555
O1D Pb1 1_555 1_555
O1B Pb1 1_555 1_555
O2F Pb1F_2 1_555 1_555
O2B Pb1 1_555 1_555
C1F O1F 1_555 1_555
C2F C1F 1_555 1_555
H1F C2F 1_555 1_555
C3F O2F 1_555 1_555
C4F C3F 1_555 1_555
C5F C4F 1_555 1_555
H2F C5F 1_555 1_555
C6F C5F 1_555 1_555
H3F C6F 1_555 1_555
C7F C6F 1_555 1_555
H4F C7F 1_555 1_555
C8F C7F 1_555 1_555
H5F C8F 1_555 1_555
C9F C4F 1_555 1_555
H6F C9F 1_555 1_555
C10F C1F 1_555 1_555
C2 C3 1_555 1_555
C8 C9 1_555 1_555
Pb1F O1D 1_555 1_555
Pb1F_2 O1B 1_555 1_555
C2F C3F 1_555 1_555
C8F C9F 1_555 1_555

#END
