
#######################################################################
#
#                 Cambridge Crystallographic Data Centre
#                                CCDC 
#
#######################################################################
#
# If this CIF has been generated from an entry in the Cambridge 
# Structural Database, then it will include bibliographic, chemical, 
# crystal, experimental, refinement or atomic coordinate data resulting 
# from the CCDC's data processing and validation procedures.
#
#######################################################################

data_HIZJOR
_symmetry_cell_setting           triclinic
_symmetry_space_group_name_H-M   'P -1'
_symmetry_Int_Tables_number      2
_space_group_name_Hall           '-P 1'
loop_
_symmetry_equiv_pos_site_id
_symmetry_equiv_pos_as_xyz
1 x,y,z
2 -x,-y,-z
_cell_length_a                   9.5783(7)
_cell_length_b                   10.1593(7)
_cell_length_c                   13.0962(14)
_cell_angle_alpha                97.7380(10)
_cell_angle_beta                 100.3690(10)
_cell_angle_gamma                116.8360(10)
_cell_volume                     1084.19
loop_
_atom_site_label
_atom_site_type_symbol
_atom_site_fract_x
_atom_site_fract_y
_atom_site_fract_z
Ni1 Ni 0.23819(3) 0.12878(3) 0.72856(2)
N1 N -0.0067(2) 0.02489(19) 0.71585(14)
N2 N 0.2419(2) 0.19902(18) 0.88406(14)
N3 N 0.4837(2) 0.23822(19) 0.74503(14)
N4 N 0.7153(2) 0.38205(18) 0.71166(13)
O1 O 0.79312(18) 0.03310(15) 0.41173(11)
O2 O 0.75289(18) 0.07206(15) 0.25110(11)
O3 O 0.77425(17) 0.71118(15) 0.34300(12)
O4 O 0.8293(3) 0.5845(2) 0.21899(14)
C1 C 0.8037(2) 0.4390(2) 0.54844(16)
C2 C 0.7926(2) 0.2998(2) 0.50457(16)
H1 H 0.7957 0.2357 0.5483
C3 C 0.7769(2) 0.2575(2) 0.39645(16)
C4 C 0.7730(2) 0.3536(2) 0.33102(16)
H2 H 0.7617 0.3246 0.2583
C5 C 0.7861(2) 0.4929(2) 0.37378(16)
C6 C 0.7991(2) 0.5324(2) 0.48173(17)
H3 H 0.8049 0.6243 0.5102
C7 C 0.8326(3) 0.4927(2) 0.66715(17)
H4 H 0.9412 0.5150 0.7037
H5 H 0.8277 0.5865 0.6810
C8 C 0.5584(3) 0.3445(2) 0.69663(17)
H6 H 0.5084 0.3883 0.6568
C9 C 0.5991(3) 0.2060(3) 0.7929(2)
H7 H 0.5822 0.1347 0.8336
C10 C 0.7418(3) 0.2930(3) 0.7723(2)
H8 H 0.8390 0.2921 0.7952
C11 C 0.7734(2) 0.1119(2) 0.35069(17)
C12 C 0.7962(3) 0.6030(2) 0.30472(18)
C13 C -0.1245(3) -0.0605(3) 0.6263(2)
H9 H -0.0968 -0.0756 0.5629
C14 C -0.2864(3) -0.1272(3) 0.6247(3)
H10 H -0.3672 -0.1860 0.5612
C15 C -0.3256(3) -0.1050(4) 0.7185(3)
H11 H -0.4340 -0.1511 0.7193
C16 C -0.2054(3) -0.0148(3) 0.8118(2)
H12 H -0.2310 0.0016 0.8759
C17 C -0.0449(3) 0.0508(2) 0.80752(19)
C18 C 0.0954(3) 0.1537(2) 0.90131(18)
C19 C 0.0793(4) 0.2046(3) 0.9998(2)
H13 H -0.0232 0.1734 1.0106
C20 C 0.2166(4) 0.3017(3) 1.0812(2)
H14 H 0.2076 0.3385 1.1473
C21 C 0.3673(4) 0.3446(3) 1.0650(2)
H15 H 0.4616 0.4083 1.1199
C22 C 0.3741(3) 0.2905(3) 0.96491(19)
H16 H 0.4757 0.3189 0.9532
Ni1A Ni 0.76181(3) -0.12878(3) 0.27144(2)
Ni1A_2 Ni 0.76181(3) 0.87122(3) 0.27144(2)
O1A O 0.20688(18) -0.03310(15) 0.58827(11)
O2A O 0.24711(18) -0.07206(15) 0.74890(11)
O3A O 0.22575(17) 0.28882(15) 0.65700(12)
O5 O 0.6741(2) 0.1012(2) 0.04037(14)
H17 H 0.7100 0.1076 0.1077
H18 H 0.5828 0.1039 0.0392
O6 O 0.8828(3) 0.4190(2) 0.05929(18)
H19 H 0.8657 0.4793 0.1061
H20 H 0.8245 0.3198 0.0387
loop_
_geom_bond_atom_site_label_1
_geom_bond_atom_site_label_2
_geom_bond_site_symmetry_1
_geom_bond_site_symmetry_2
Ni1 N1 1_555 1_555
N1 C13 1_555 1_555
N2 Ni1 1_555 1_555
N3 Ni1 1_555 1_555
N4 C7 1_555 1_555
O1 C11 1_555 1_555
O2 C11 1_555 1_555
O3 C12 1_555 1_555
O4 C12 1_555 1_555
C1 C2 1_555 1_555
C2 H1 1_555 1_555
C3 C2 1_555 1_555
C4 C3 1_555 1_555
H2 C4 1_555 1_555
C5 C4 1_555 1_555
C6 C1 1_555 1_555
H3 C6 1_555 1_555
C7 C1 1_555 1_555
H4 C7 1_555 1_555
H5 C7 1_555 1_555
C8 N3 1_555 1_555
H6 C8 1_555 1_555
C9 N3 1_555 1_555
H7 C9 1_555 1_555
C10 N4 1_555 1_555
H8 C10 1_555 1_555
C11 C3 1_555 1_555
C12 C5 1_555 1_555
C13 H9 1_555 1_555
C14 C13 1_555 1_555
H10 C14 1_555 1_555
C15 C14 1_555 1_555
H11 C15 1_555 1_555
C16 C15 1_555 1_555
H12 C16 1_555 1_555
C17 N1 1_555 1_555
C18 N2 1_555 1_555
C19 C18 1_555 1_555
H13 C19 1_555 1_555
C20 C19 1_555 1_555
H14 C20 1_555 1_555
C21 C20 1_555 1_555
H15 C21 1_555 1_555
C22 N2 1_555 1_555
H16 C22 1_555 1_555
O5 H17 1_555 1_555
H18 O5 1_555 1_555
O6 H19 1_555 1_555
H20 O6 1_555 1_555
Ni1A O1 1_555 1_555
Ni1A_2 O3 1_555 1_555
O1A Ni1 1_555 1_555
O2A Ni1 1_555 1_555
O3A Ni1 1_555 1_555
N4 C8 1_555 1_555
O2 Ni1A 1_555 1_555
C5 C6 1_555 1_555
C9 C10 1_555 1_555
C16 C17 1_555 1_555
C17 C18 1_555 1_555
C21 C22 1_555 1_555

#END
