
#######################################################################
#
#                 Cambridge Crystallographic Data Centre
#                                CCDC 
#
#######################################################################
#
# If this CIF has been generated from an entry in the Cambridge 
# Structural Database, then it will include bibliographic, chemical, 
# crystal, experimental, refinement or atomic coordinate data resulting 
# from the CCDC's data processing and validation procedures.
#
#######################################################################

data_HIZJIL
_symmetry_cell_setting           triclinic
_symmetry_space_group_name_H-M   'P -1'
_symmetry_Int_Tables_number      2
_space_group_name_Hall           '-P 1'
loop_
_symmetry_equiv_pos_site_id
_symmetry_equiv_pos_as_xyz
1 x,y,z
2 -x,-y,-z
_cell_length_a                   8.753(8)
_cell_length_b                   10.165(10)
_cell_length_c                   14.819(14)
_cell_angle_alpha                96.430(15)
_cell_angle_beta                 91.546(15)
_cell_angle_gamma                110.753(14)
_cell_volume                     1222.05
loop_
_atom_site_label
_atom_site_type_symbol
_atom_site_fract_x
_atom_site_fract_y
_atom_site_fract_z
Mn1 Mn 0.76989(5) 0.23465(4) 0.24771(3)
N1 N 1.0064(3) 0.3178(2) 0.34966(15)
N2 N 0.6854(3) 0.2202(2) 0.38457(14)
N3 N 0.7362(3) 0.2475(2) 0.53465(15)
H1 H 0.7903 0.2697 0.5869
N4 N -0.0751(3) 0.2905(2) 0.13376(14)
N5 N 0.1129(2) 0.4161(2) 0.05012(14)
O1 O 0.5881(2) 0.32239(18) 0.19938(13)
O2 O 0.7978(2) 0.50009(19) 0.26754(13)
O3 O 0.6070(3) 1.0288(2) 0.17895(15)
O4 O 0.8188(3) 1.00293(19) 0.24472(15)
C1 C 0.3898(3) 0.5940(3) 0.09001(17)
C2 C 0.4535(3) 0.5025(2) 0.12686(16)
H2 H 0.4021 0.4050 0.1114
C3 C 0.5933(3) 0.5552(2) 0.18644(16)
C4 C 0.6692(3) 0.7013(2) 0.20943(16)
H3 H 0.7628 0.7374 0.2492
C5 C 0.6064(3) 0.7937(2) 0.17349(17)
C6 C 0.4667(3) 0.7388(3) 0.11412(18)
H4 H 0.4242 0.8004 0.0901
C7 C 0.2427(3) 0.5388(3) 0.02295(19)
H5 H 0.2001 0.6137 0.0172
H6 H 0.2757 0.5121 -0.0362
C8 C 0.0332(3) 0.4173(3) 0.12557(16)
H7 H 0.0517 0.4976 0.1674
C9 C -0.0632(4) 0.2042(3) 0.0582(2)
H8 H -0.1250 0.1080 0.0448
C10 C 0.0517(4) 0.2800(3) 0.0063(2)
H9 H 0.0832 0.2464 -0.0483
C11 C 0.6643(3) 0.4535(2) 0.22126(16)
C12 C 0.6839(3) 0.9522(3) 0.20037(19)
C13 C 1.1638(3) 0.3671(3) 0.3310(2)
H10 H 1.1867 0.3643 0.2701
C14 C 1.2928(4) 0.4209(3) 0.3944(2)
H11 H 1.4000 0.4545 0.3773
C15 C 1.2593(4) 0.4239(4) 0.4854(2)
H12 H 1.3433 0.4614 0.5313
C16 C 1.0958(4) 0.3691(3) 0.5061(2)
H13 H 1.0693 0.3670 0.5664
C17 C 0.9751(3) 0.3185(3) 0.43709(18)
C18 C 0.8007(3) 0.2618(2) 0.45279(16)
C19 C 0.5669(3) 0.1908(3) 0.51921(18)
C20 C 0.5389(3) 0.1741(3) 0.42427(19)
C21 C 0.3783(3) 0.1146(3) 0.3839(2)
H14 H 0.3556 0.1020 0.3212
C22 C 0.2569(4) 0.0763(3) 0.4432(2)
H15 H 0.1488 0.0357 0.4192
C23 C 0.2869(4) 0.0950(3) 0.5371(2)
H16 H 0.1993 0.0681 0.5737
C24 C 0.4432(4) 0.1522(3) 0.5766(2)
H17 H 0.4644 0.1644 0.6394
Mn1_2 Mn -0.23011(5) 0.23465(4) 0.24771(3)
Mn1_3 Mn 0.76989(5) 1.23465(4) 0.24771(3)
N4_2 N 0.9249(3) 0.2905(2) 0.13376(14)
O3_2 O 0.6070(3) 0.0288(2) 0.17895(15)
O5 O 0.3370(3) 0.0810(3) 0.1026(2)
H18 H 0.4110 0.0454 0.1063
H19 H 0.3668 0.1587 0.1382
O6 O 0.1049(2) 0.7083(2) 0.29224(13)
H20 H 0.1085 0.7816 0.2682
H21 H 0.0080 0.6476 0.2825
O7 O 0.0823(3) 0.9209(3) 0.20071(18)
H22 H 0.0235 0.9656 0.2238
H23 H 0.1574 0.9781 0.1735
loop_
_geom_bond_atom_site_label_1
_geom_bond_atom_site_label_2
_geom_bond_site_symmetry_1
_geom_bond_site_symmetry_2
Mn1 N1 1_555 1_555
N1 C13 1_555 1_555
N2 Mn1 1_555 1_555
N3 H1 1_555 1_555
N4 C8 1_555 1_555
N5 C7 1_555 1_555
O1 Mn1 1_555 1_555
O2 C11 1_555 1_555
O3 C12 1_555 1_555
O4 C12 1_555 1_555
C1 C2 1_555 1_555
C2 H2 1_555 1_555
C3 C2 1_555 1_555
C4 C3 1_555 1_555
H3 C4 1_555 1_555
C5 C4 1_555 1_555
C6 C1 1_555 1_555
H4 C6 1_555 1_555
C7 C1 1_555 1_555
H5 C7 1_555 1_555
H6 C7 1_555 1_555
C8 N5 1_555 1_555
H7 C8 1_555 1_555
C9 N4 1_555 1_555
H8 C9 1_555 1_555
C10 N5 1_555 1_555
H9 C10 1_555 1_555
C11 O1 1_555 1_555
C12 C5 1_555 1_555
C13 H10 1_555 1_555
C14 C13 1_555 1_555
H11 C14 1_555 1_555
C15 C14 1_555 1_555
H12 C15 1_555 1_555
C16 C15 1_555 1_555
H13 C16 1_555 1_555
C17 N1 1_555 1_555
C18 N2 1_555 1_555
C19 N3 1_555 1_555
C20 N2 1_555 1_555
C21 C20 1_555 1_555
H14 C21 1_555 1_555
C22 C21 1_555 1_555
H15 C22 1_555 1_555
C23 C22 1_555 1_555
H16 C23 1_555 1_555
C24 C19 1_555 1_555
H17 C24 1_555 1_555
O5 H18 1_555 1_555
H19 O5 1_555 1_555
O6 H20 1_555 1_555
H21 O6 1_555 1_555
O7 H22 1_555 1_555
H23 O7 1_555 1_555
Mn1_2 N4 1_555 1_555
Mn1_3 O3 1_555 1_555
N4_2 Mn1 1_555 1_555
O3_2 Mn1 1_555 1_555
N3 C18 1_555 1_555
C3 C11 1_555 1_555
C5 C6 1_555 1_555
C9 C10 1_555 1_555
C16 C17 1_555 1_555
C17 C18 1_555 1_555
C19 C20 1_555 1_555
C23 C24 1_555 1_555

#END
