
#######################################################################
#
#                 Cambridge Crystallographic Data Centre
#                                CCDC 
#
#######################################################################
#
# If this CIF has been generated from an entry in the Cambridge 
# Structural Database, then it will include bibliographic, chemical, 
# crystal, experimental, refinement or atomic coordinate data resulting 
# from the CCDC's data processing and validation procedures.
#
#######################################################################

data_HIZKAE
_symmetry_cell_setting           monoclinic
_symmetry_space_group_name_H-M   'P 21/c'
_symmetry_Int_Tables_number      14
_space_group_name_Hall           '-P 2ybc'
loop_
_symmetry_equiv_pos_site_id
_symmetry_equiv_pos_as_xyz
1 x,y,z
2 -x,1/2+y,1/2-z
3 -x,-y,-z
4 x,1/2-y,1/2+z
_cell_length_a                   9.9659(19)
_cell_length_b                   28.894(5)
_cell_length_c                   10.6565(14)
_cell_angle_alpha                90
_cell_angle_beta                 122.320(12)
_cell_angle_gamma                90
_cell_volume                     2593.19
loop_
_atom_site_label
_atom_site_type_symbol
_atom_site_fract_x
_atom_site_fract_y
_atom_site_fract_z
Ni1 Ni 0.19551(4) 0.886211(12) 1.19870(4)
N1 N 0.0544(3) 0.84505(9) 1.0109(3)
N2 N -0.5875(4) 0.69019(12) 0.1065(4)
N3 N 0.3482(3) 0.92178(9) 0.3940(3)
N4 N 0.4465(3) 0.95906(9) 0.6067(2)
O1 O 0.2353(2) 0.93127(7) 1.0591(2)
O2 O 0.3882(2) 0.87187(7) 1.1765(2)
O3 O 0.9941(2) 0.91829(7) 1.1590(2)
O4 O 0.9109(3) 0.86157(12) 1.2449(3)
O5 O 0.1923(3) 0.83218(8) 1.3211(2)
H1 H 0.2640 0.8286 1.4176
H2 H 0.1005 0.8378 1.3167
C1 C 0.5114(3) 0.95699(10) 0.8670(3)
C2 C 0.4074(3) 0.94520(10) 0.9099(3)
H3 H 0.3027 0.9553 0.8542
C3 C 0.4585(3) 0.91813(10) 1.0366(3)
C4 C 0.6155(4) 0.90289(11) 1.1192(3)
H4 H 0.6493 0.8840 1.2016
C5 C 0.7213(3) 0.91578(11) 1.0790(3)
C6 C 0.6702(3) 0.94367(11) 0.9551(3)
H5 H 0.7424 0.9535 0.9308
C7 C 0.4548(4) 0.98539(11) 0.7284(3)
H6 H 0.3503 0.9977 0.6950
H7 H 0.5261 1.0114 0.7525
C8 C 0.3147(3) 0.94317(11) 0.4836(3)
H8 H 0.2125 0.9468 0.4641
C9 C 0.5114(3) 0.92397(11) 0.4648(3)
H9 H 0.5704 0.9116 0.4286
C10 C 0.5726(3) 0.94687(12) 0.5955(3)
H10 H 0.6792 0.9531 0.6640
C11 C 0.3528(3) 0.90633(10) 1.0917(3)
C12 C 0.8894(4) 0.89743(12) 1.1707(3)
C13 C 0.0722(4) 0.79911(13) 1.0168(4)
H11 H 0.1428 0.7854 1.1080
C14 C -0.0089(5) 0.77131(13) 0.8944(4)
H12 H 0.0081 0.7395 0.9042
C15 C -0.1160(4) 0.78988(13) 0.7562(4)
C16 C -0.1373(5) 0.83755(14) 0.7518(4)
H13 H -0.2105 0.8519 0.6627
C17 C -0.0505(4) 0.86348(13) 0.8788(4)
H14 H -0.0655 0.8954 0.8724
C18 C -0.2054(5) 0.76010(14) 0.6234(4)
H15 H -0.1865 0.7284 0.6376
C19 C -0.3071(5) 0.77369(14) 0.4897(4)
H16 H -0.3212 0.8054 0.4738
C20 C -0.4023(4) 0.74369(13) 0.3609(4)
C21 C -0.4071(5) 0.69670(15) 0.3677(4)
H17 H -0.3482 0.6817 0.4587
C22 C -0.4998(6) 0.67121(15) 0.2392(5)
H18 H -0.5002 0.6392 0.2467
C23 C -0.5814(5) 0.73613(15) 0.1004(4)
H19 H -0.6411 0.7502 0.0078
C24 C -0.4937(5) 0.76404(14) 0.2210(4)
H20 H -0.4947 0.7960 0.2100
Ni1_2 Ni 0.19551(4) 0.886211(12) 0.19870(4)
Ni1_3 Ni 1.19551(4) 0.886211(12) 1.19870(4)
N3_2 N 0.3482(3) 0.92178(9) 1.3940(3)
O3_2 O -0.0059(2) 0.91829(7) 1.1590(2)
O6 O -0.0237(4) 0.98286(10) 0.8265(3)
H21 H 0.0607 0.9723 0.9011
H22 H -0.0040 1.0133 0.8389
O7 O 0.9617(11) 0.9641(3) 0.5604(8)
O8 O 0.9214(16) 0.8746(5) 0.5007(13)
loop_
_geom_bond_atom_site_label_1
_geom_bond_atom_site_label_2
_geom_bond_site_symmetry_1
_geom_bond_site_symmetry_2
Ni1 N1 1_555 1_555
N1 C13 1_555 1_555
N2 C22 1_555 1_555
N3 C8 1_555 1_555
N4 C7 1_555 1_555
O1 Ni1 1_555 1_555
O2 Ni1 1_555 1_555
O3 C12 1_555 1_555
O4 C12 1_555 1_555
O5 Ni1 1_555 1_555
H1 O5 1_555 1_555
H2 O5 1_555 1_555
C1 C2 1_555 1_555
C2 H3 1_555 1_555
C3 C2 1_555 1_555
C4 C3 1_555 1_555
H4 C4 1_555 1_555
C5 C4 1_555 1_555
C6 C1 1_555 1_555
H5 C6 1_555 1_555
C7 C1 1_555 1_555
H6 C7 1_555 1_555
H7 C7 1_555 1_555
C8 N4 1_555 1_555
H8 C8 1_555 1_555
C9 N3 1_555 1_555
H9 C9 1_555 1_555
C10 N4 1_555 1_555
H10 C10 1_555 1_555
C11 O1 1_555 1_555
C12 C5 1_555 1_555
C13 H11 1_555 1_555
C14 C13 1_555 1_555
H12 C14 1_555 1_555
C15 C14 1_555 1_555
C16 C15 1_555 1_555
H13 C16 1_555 1_555
C17 N1 1_555 1_555
H14 C17 1_555 1_555
C18 C15 1_555 1_555
H15 C18 1_555 1_555
C19 C18 1_555 1_555
H16 C19 1_555 1_555
C20 C19 1_555 1_555
C21 C20 1_555 1_555
H17 C21 1_555 1_555
C22 C21 1_555 1_555
H18 C22 1_555 1_555
C23 N2 1_555 1_555
H19 C23 1_555 1_555
C24 C20 1_555 1_555
H20 C24 1_555 1_555
O6 H21 1_555 1_555
H22 O6 1_555 1_555
Ni1_2 N3 1_555 1_555
Ni1_3 O3 1_555 1_555
N3_2 Ni1 1_555 1_555
O3_2 Ni1 1_555 1_555
O2 C11 1_555 1_555
C3 C11 1_555 1_555
C5 C6 1_555 1_555
C9 C10 1_555 1_555
C16 C17 1_555 1_555
C23 C24 1_555 1_555

#END
