
#######################################################################
#
#                 Cambridge Crystallographic Data Centre
#                                CCDC 
#
#######################################################################
#
# If this CIF has been generated from an entry in the Cambridge 
# Structural Database, then it will include bibliographic, chemical, 
# crystal, experimental, refinement or atomic coordinate data resulting 
# from the CCDC's data processing and validation procedures.
#
#######################################################################

data_HIZPEM
_symmetry_cell_setting           monoclinic
_symmetry_space_group_name_H-M   'P 21/c'
_symmetry_Int_Tables_number      14
_space_group_name_Hall           '-P 2ybc'
loop_
_symmetry_equiv_pos_site_id
_symmetry_equiv_pos_as_xyz
1 x,y,z
2 -x,1/2+y,1/2-z
3 -x,-y,-z
4 x,1/2-y,1/2+z
_cell_length_a                   9.2861(2)
_cell_length_b                   14.8660(3)
_cell_length_c                   20.5346(5)
_cell_angle_alpha                90
_cell_angle_beta                 93.294(1)
_cell_angle_gamma                90
_cell_volume                     2830.06
loop_
_atom_site_label
_atom_site_type_symbol
_atom_site_fract_x
_atom_site_fract_y
_atom_site_fract_z
Cd1 Cd -0.39339(3) 0.232240(17) -0.140430(13)
Br1 Br -0.58176(4) 0.10911(2) -0.14866(2)
Br2 Br -0.44720(4) 0.38934(2) -0.18500(2)
Fe1 Fe -0.47744(5) 0.28435(3) 0.07868(2)
P1 P -0.23115(9) 0.25420(5) -0.03563(5)
O1 O -0.8764(3) 0.35023(16) 0.09747(13)
N1 N -0.7447(3) 0.3708(2) 0.19166(16)
H1 H -0.6610 0.3697 0.2276
N2 N -1.2257(3) 0.3268(2) 0.29322(15)
C1 C -0.3150(3) 0.3241(2) 0.02210(17)
C2 C -0.4428(4) 0.3764(2) 0.00787(18)
H2 H -0.4936 0.3807 -0.0324
C3 C -0.4780(4) 0.4208(2) 0.06636(19)
H3 H -0.5557 0.4593 0.0709
C4 C -0.3755(4) 0.3963(2) 0.11589(19)
H4 H -0.3740 0.4159 0.1589
C5 C -0.2744(4) 0.3368(2) 0.08997(19)
H5 H -0.1958 0.3106 0.1128
C6 C -0.6696(4) 0.2582(2) 0.11622(19)
C7 C -0.5559(4) 0.2176(2) 0.1560(2)
H6 H -0.5336 0.2294 0.1999
C8 C -0.4835(4) 0.1560(2) 0.1163(2)
H7 H -0.4045 0.1206 0.1297
C9 C -0.5518(4) 0.1575(2) 0.0531(2)
H8 H -0.5257 0.1231 0.0178
C10 C -0.6661(4) 0.2199(2) 0.05243(19)
H9 H -0.7284 0.2338 0.0167
C11 C -0.7716(4) 0.3302(2) 0.13344(18)
C12 C -0.0707(3) 0.3138(2) -0.05868(17)
C13 C -0.0656(4) 0.4072(2) -0.05893(18)
H10 H -0.1423 0.4402 -0.0441
C14 C 0.0535(4) 0.4513(2) -0.0813(2)
H11 H 0.0571 0.5138 -0.0808
C15 C 0.1673(4) 0.4028(2) -0.1043(2)
H12 H 0.2473 0.4326 -0.1191
C16 C 0.1612(4) 0.3106(2) -0.1053(2)
H13 H 0.2368 0.2779 -0.1214
C17 C 0.0436(4) 0.2657(2) -0.08244(19)
H14 H 0.0410 0.2031 -0.0830
C18 C -0.1632(3) 0.1562(2) 0.00893(18)
C19 C -0.0512(4) 0.1646(2) 0.05659(19)
H15 H -0.0051 0.2196 0.0631
C20 C -0.0085(4) 0.0914(2) 0.0940(2)
H16 H 0.0660 0.0972 0.1260
C21 C -0.0768(4) 0.0089(2) 0.0841(2)
H17 H -0.0496 -0.0400 0.1103
C22 C -0.1840(4) -0.0006(2) 0.03589(19)
H18 H -0.2274 -0.0564 0.0287
C23 C -0.2280(4) 0.0724(2) -0.00230(19)
H19 H -0.3002 0.0657 -0.0352
C24 C -0.8442(4) 0.4372(2) 0.2144(2)
H20 H -0.7957 0.4720 0.2491
H21 H -0.8704 0.4782 0.1789
C25 C -0.9806(4) 0.3970(2) 0.23931(18)
C26 C -1.0927(4) 0.4519(2) 0.25649(19)
H22 H -1.0876 0.5136 0.2494
C27 C -1.2111(4) 0.4162(2) 0.28385(18)
H23 H -1.2836 0.4547 0.2963
C28 C -1.1218(4) 0.2732(3) 0.2733(2)
H24 H -1.1329 0.2114 0.2774
C29 C -0.9984(4) 0.3055(3) 0.2469(2)
H25 H -0.9277 0.2657 0.2344
Cd1C Cd -1.39339(3) 0.267760(17) 0.359570(13)
N2C N -0.2257(3) 0.1732(2) -0.20678(15)
loop_
_geom_bond_atom_site_label_1
_geom_bond_atom_site_label_2
_geom_bond_site_symmetry_1
_geom_bond_site_symmetry_2
Cd1 Br1 1_555 1_555
Br2 Cd1 1_555 1_555
Fe1 C1 1_555 1_555
P1 Cd1 1_555 1_555
O1 C11 1_555 1_555
N1 H1 1_555 1_555
N2 C27 1_555 1_555
C1 P1 1_555 1_555
C2 Fe1 1_555 1_555
H2 C2 1_555 1_555
C3 Fe1 1_555 1_555
H3 C3 1_555 1_555
C4 Fe1 1_555 1_555
H4 C4 1_555 1_555
C5 Fe1 1_555 1_555
H5 C5 1_555 1_555
C6 Fe1 1_555 1_555
C7 Fe1 1_555 1_555
H6 C7 1_555 1_555
C8 Fe1 1_555 1_555
H7 C8 1_555 1_555
C9 Fe1 1_555 1_555
H8 C9 1_555 1_555
C10 Fe1 1_555 1_555
H9 C10 1_555 1_555
C11 N1 1_555 1_555
C12 P1 1_555 1_555
C13 C12 1_555 1_555
H10 C13 1_555 1_555
C14 C13 1_555 1_555
H11 C14 1_555 1_555
C15 C14 1_555 1_555
H12 C15 1_555 1_555
C16 C15 1_555 1_555
H13 C16 1_555 1_555
C17 C12 1_555 1_555
H14 C17 1_555 1_555
C18 P1 1_555 1_555
C19 C18 1_555 1_555
H15 C19 1_555 1_555
C20 C19 1_555 1_555
H16 C20 1_555 1_555
C21 C20 1_555 1_555
H17 C21 1_555 1_555
C22 C21 1_555 1_555
H18 C22 1_555 1_555
C23 C18 1_555 1_555
H19 C23 1_555 1_555
C24 N1 1_555 1_555
H20 C24 1_555 1_555
H21 C24 1_555 1_555
C25 C24 1_555 1_555
C26 C25 1_555 1_555
H22 C26 1_555 1_555
C27 C26 1_555 1_555
H23 C27 1_555 1_555
C28 N2 1_555 1_555
H24 C28 1_555 1_555
C29 C25 1_555 1_555
H25 C29 1_555 1_555
Cd1C N2 1_555 1_555
N2C Cd1 1_555 1_555
C1 C2 1_555 1_555
C1 C5 1_555 1_555
C2 C3 1_555 1_555
C3 C4 1_555 1_555
C4 C5 1_555 1_555
C6 C7 1_555 1_555
C6 C10 1_555 1_555
C6 C11 1_555 1_555
C7 C8 1_555 1_555
C8 C9 1_555 1_555
C9 C10 1_555 1_555
C16 C17 1_555 1_555
C22 C23 1_555 1_555
C28 C29 1_555 1_555

#END
