
#######################################################################
#
#                 Cambridge Crystallographic Data Centre
#                                CCDC 
#
#######################################################################
#
# If this CIF has been generated from an entry in the Cambridge 
# Structural Database, then it will include bibliographic, chemical, 
# crystal, experimental, refinement or atomic coordinate data resulting 
# from the CCDC's data processing and validation procedures.
#
#######################################################################

data_HIZTOA
_symmetry_cell_setting           monoclinic
_symmetry_space_group_name_H-M   'C 2/c'
_symmetry_Int_Tables_number      15
_space_group_name_Hall           '-C 2yn'
loop_
_symmetry_equiv_pos_site_id
_symmetry_equiv_pos_as_xyz
1 x,y,z
2 1/2+x,1/2+y,z
3 -x,y,1/2-z
4 1/2-x,1/2+y,1/2-z
5 -x,-y,-z
6 1/2-x,1/2-y,-z
7 x,-y,1/2+z
8 1/2+x,1/2-y,1/2+z
_cell_length_a                   16.01570(10)
_cell_length_b                   14.47220(10)
_cell_length_c                   21.6977(2)
_cell_angle_alpha                90
_cell_angle_beta                 108.8040(10)
_cell_angle_gamma                90
_cell_volume                     4760.72
loop_
_atom_site_label
_atom_site_type_symbol
_atom_site_fract_x
_atom_site_fract_y
_atom_site_fract_z
Zn1 Zn 0.033746(11) 0.868844(12) 0.321376(9)
O1 O -0.06943(7) 0.78373(7) 0.29813(5)
O2 O -0.11503(7) 0.76380(7) 0.19047(5)
O3 O -0.38296(7) 0.45092(7) 0.29218(5)
O4 O -0.45351(7) 0.48353(7) 0.18821(5)
C1 C -0.19596(9) 0.68719(10) 0.24972(7)
C2 C -0.18249(9) 0.58906(10) 0.22707(7)
C3 C -0.11163(9) 0.55874(11) 0.20944(7)
H1 H -0.0653 0.6002 0.2101
C4 C -0.10838(10) 0.46700(11) 0.19067(8)
H2 H -0.0590 0.4454 0.1797
C5 C -0.17722(10) 0.40721(11) 0.18801(7)
H3 H -0.1751 0.3449 0.1749
C6 C -0.24924(10) 0.43843(10) 0.20447(7)
H4 H -0.2970 0.3979 0.2017
C7 C -0.25134(9) 0.52878(10) 0.22490(7)
C8 C -0.32604(9) 0.57358(10) 0.24507(7)
C9 C -0.28224(10) 0.61640(10) 0.31288(8)
C10 C -0.31075(10) 0.60652(11) 0.36677(8)
H5 H -0.3609 0.5694 0.3638
C11 C -0.26607(12) 0.65077(11) 0.42483(8)
H6 H -0.2859 0.6443 0.4614
C12 C -0.19257(11) 0.70431(12) 0.42940(8)
H7 H -0.1606 0.7324 0.4697
C13 C -0.16541(10) 0.71713(11) 0.37510(8)
H8 H -0.1158 0.7550 0.3783
C14 C -0.21061(10) 0.67475(10) 0.31642(7)
C15 C -0.28689(9) 0.71900(11) 0.20341(7)
C16 C -0.35643(10) 0.65834(11) 0.20076(7)
C17 C -0.44194(10) 0.68085(11) 0.16434(8)
H9 H -0.4890 0.6401 0.1630
C18 C -0.45887(11) 0.76350(12) 0.12958(9)
H10 H -0.5175 0.7788 0.1041
C19 C -0.39027(11) 0.82358(12) 0.13203(9)
H11 H -0.4021 0.8799 0.1083
C20 C -0.30447(10) 0.80144(11) 0.16904(8)
H12 H -0.2577 0.8428 0.1708
C21 C -0.12059(9) 0.75047(10) 0.24622(7)
C22 C -0.39474(9) 0.49825(10) 0.24159(7)
O5 O 0.08803(7) 0.88034(7) 0.41694(5)
N1 N 0.21108(9) 0.91729(11) 0.49979(7)
C23 C 0.16923(11) 0.89702(12) 0.43877(8)
H13 H 0.2022 0.8948 0.4094
C24 C 0.16320(13) 0.92320(14) 0.54716(8)
H14 H 0.2044 0.9114 0.5915
H15 H 0.1166 0.8753 0.5372
C25 C 0.12170(13) 1.01794(15) 0.54508(9)
H16 H 0.1681 1.0651 0.5571
H17 H 0.0884 1.0198 0.5758
H18 H 0.0818 1.0302 0.5010
C26 C 0.30680(12) 0.93708(14) 0.52109(9)
H19 H 0.3207 0.9852 0.5553
H20 H 0.3229 0.9614 0.4838
C27 C 0.36029(15) 0.85218(16) 0.54713(11)
H21 H 0.3441 0.8277 0.5838
H22 H 0.4231 0.8680 0.5618
H23 H 0.3486 0.8054 0.5127
Zn1B Zn -0.033746(11) 0.868844(12) 0.178624(9)
Zn1A Zn -0.466254(11) 0.368844(12) 0.321376(9)
Zn1C Zn -0.533746(11) 0.368844(12) 0.178624(9)
O2B O 0.11503(7) 0.76380(7) 0.30953(5)
O3A O 0.11704(7) 0.95092(7) 0.29218(5)
O4C O -0.04649(7) 0.98353(7) 0.31179(5)
loop_
_geom_bond_atom_site_label_1
_geom_bond_atom_site_label_2
_geom_bond_site_symmetry_1
_geom_bond_site_symmetry_2
Zn1 O1 1_555 1_555
O1 C21 1_555 1_555
O2 C21 1_555 1_555
O3 C22 1_555 1_555
O4 C22 1_555 1_555
C1 C2 1_555 1_555
C2 C3 1_555 1_555
C3 H1 1_555 1_555
C4 C3 1_555 1_555
H2 C4 1_555 1_555
C5 C4 1_555 1_555
H3 C5 1_555 1_555
C6 C5 1_555 1_555
H4 C6 1_555 1_555
C7 C2 1_555 1_555
C8 C7 1_555 1_555
C9 C8 1_555 1_555
C10 C9 1_555 1_555
H5 C10 1_555 1_555
C11 C10 1_555 1_555
H6 C11 1_555 1_555
C12 C11 1_555 1_555
H7 C12 1_555 1_555
C13 C12 1_555 1_555
H8 C13 1_555 1_555
C14 C1 1_555 1_555
C15 C1 1_555 1_555
C16 C8 1_555 1_555
C17 C16 1_555 1_555
H9 C17 1_555 1_555
C18 C17 1_555 1_555
H10 C18 1_555 1_555
C19 C18 1_555 1_555
H11 C19 1_555 1_555
C20 C15 1_555 1_555
H12 C20 1_555 1_555
C21 C1 1_555 1_555
C22 C8 1_555 1_555
O5 Zn1 1_555 1_555
N1 C23 1_555 1_555
C23 O5 1_555 1_555
H13 C23 1_555 1_555
C24 N1 1_555 1_555
H14 C24 1_555 1_555
H15 C24 1_555 1_555
C25 C24 1_555 1_555
H16 C25 1_555 1_555
H17 C25 1_555 1_555
H18 C25 1_555 1_555
C26 N1 1_555 1_555
H19 C26 1_555 1_555
H20 C26 1_555 1_555
C27 C26 1_555 1_555
H21 C27 1_555 1_555
H22 C27 1_555 1_555
H23 C27 1_555 1_555
Zn1B O2 1_555 1_555
Zn1A O3 1_555 1_555
Zn1C O4 1_555 1_555
O2B Zn1 1_555 1_555
O3A Zn1 1_555 1_555
O4C Zn1 1_555 1_555
C6 C7 1_555 1_555
C9 C14 1_555 1_555
C13 C14 1_555 1_555
C15 C16 1_555 1_555
C19 C20 1_555 1_555

#END
