
#######################################################################
#
#                 Cambridge Crystallographic Data Centre
#                                CCDC 
#
#######################################################################
#
# If this CIF has been generated from an entry in the Cambridge 
# Structural Database, then it will include bibliographic, chemical, 
# crystal, experimental, refinement or atomic coordinate data resulting 
# from the CCDC's data processing and validation procedures.
#
#######################################################################

data_HOBNIW
_symmetry_cell_setting           monoclinic
_symmetry_space_group_name_H-M   'P 21/c'
_symmetry_Int_Tables_number      14
_space_group_name_Hall           '-P 2ybc'
loop_
_symmetry_equiv_pos_site_id
_symmetry_equiv_pos_as_xyz
1 x,y,z
2 -x,1/2+y,1/2-z
3 -x,-y,-z
4 x,1/2-y,1/2+z
_cell_length_a                   19.091(4)
_cell_length_b                   7.1020(14)
_cell_length_c                   19.518(4)
_cell_angle_alpha                90
_cell_angle_beta                 104.49(3)
_cell_angle_gamma                90
_cell_volume                     2562.16
loop_
_atom_site_label
_atom_site_type_symbol
_atom_site_fract_x
_atom_site_fract_y
_atom_site_fract_z
In1 In 0.830439(15) 0.32485(4) 0.083901(14)
In2 In 0.643522(15) 0.49160(4) 0.319578(13)
I1 I 0.724477(14) 0.21424(4) 0.201607(13)
I2 I 0.788963(14) 0.81410(4) 0.048115(14)
I3 I 0.657590(13) 0.27369(4) -0.017210(13)
I4 I 0.566856(14) 0.04466(4) 0.280531(13)
I5 I 0.583964(14) 0.64787(4) 0.128231(13)
I6 I 0.525995(13) 0.66392(3) 0.430174(12)
O1 O 0.79725(16) 0.3542(4) 0.17852(15)
O2 O 0.85162(15) 0.6346(4) 0.09378(15)
O3 O 0.83894(17) 1.0137(4) 0.09511(17)
O4 O 0.73922(15) 0.4225(4) 0.00472(16)
O5 O 0.72372(16) 0.3596(5) 0.27775(15)
O6 O 0.68859(15) 0.1144(4) -0.07634(14)
O7 O 0.55608(16) 0.2978(4) 0.29206(16)
O8 O 0.59586(17) 0.6402(5) 0.22426(15)
O9 O 0.56407(16) 0.6683(4) 0.35291(15)
O10 O 0.72317(17) 0.7101(4) 0.34645(16)
H1 H 0.702(3) 0.825(5) 0.340(4)
H2 H 0.763(2) 0.717(9) 0.381(3)
O11 O 0.7787(2) 0.0275(5) 0.24678(19)
O12 O 0.81864(17) 0.8273(5) -0.03160(16)
O13 O 0.6865(2) 0.1240(5) 0.05842(16)
O14 O 0.65028(17) 0.0239(4) 0.34749(18)
O15 O 0.59922(18) 0.0542(5) 0.20120(17)
O16 O 0.63359(19) 0.4445(5) 0.11219(18)
O17 O 0.49594(17) 0.5370(4) 0.10375(16)
O18 O 0.54018(17) 0.4153(4) 0.45323(16)
O19 O 0.59690(17) 0.7725(5) 0.49572(15)
N1 N 0.94882(19) 0.3040(5) 0.13922(18)
N2 N 0.88907(19) 0.2946(5) -0.00209(18)
C1 C 0.9758(3) 0.3163(8) 0.2094(2)
H5 H 0.9446 0.3419 0.2380
C2 C 1.0487(3) 0.2918(10) 0.2406(3)
H6 H 1.0664 0.3045 0.2893
C3 C 1.0951(3) 0.2484(9) 0.1986(3)
H7 H 1.1441 0.2281 0.2185
C4 C 1.0668(3) 0.2362(8) 0.1266(3)
H8 H 1.0967 0.2068 0.0972
C5 C 0.9934(2) 0.2676(6) 0.0978(2)
C6 C 0.9612(2) 0.2661(6) 0.0201(2)
C7 C 1.0030(3) 0.2406(9) -0.0272(3)
H9 H 1.0526 0.2205 -0.0114
C8 C 0.9696(3) 0.2456(10) -0.0995(3)
H10 H 0.9969 0.2302 -0.1324
C9 C 0.8963(3) 0.2732(9) -0.1217(3)
H11 H 0.8732 0.2755 -0.1696
C10 C 0.8572(3) 0.2974(8) -0.0714(2)
H12 H 0.8075 0.3162 -0.0862
In1_2 In 0.830439(15) 1.32485(4) 0.083901(14)
In2C In 0.643522(15) 0.00840(4) -0.180422(13)
O3_2 O 0.83894(17) 0.0137(4) 0.09511(17)
O6C O 0.68859(15) 0.3856(4) 0.42366(14)
O20 O 0.7320(2) 0.7385(5) 0.1624(2)
H3 H 0.756(4) 0.631(5) 0.180(3)
H4 H 0.748(4) 0.828(7) 0.197(3)
loop_
_geom_bond_atom_site_label_1
_geom_bond_atom_site_label_2
_geom_bond_site_symmetry_1
_geom_bond_site_symmetry_2
In1 O1 1_555 1_555
In2 O5 1_555 1_555
I1 O1 1_555 1_555
I2 O2 1_555 1_555
I3 O4 1_555 1_555
I4 O7 1_555 1_555
I5 O8 1_555 1_555
I6 O9 1_555 1_555
O2 In1 1_555 1_555
O3 I2 1_555 1_555
O4 In1 1_555 1_555
O5 I1 1_555 1_555
O6 I3 1_555 1_555
O7 In2 1_555 1_555
O8 In2 1_555 1_555
O9 In2 1_555 1_555
O10 In2 1_555 1_555
H1 O10 1_555 1_555
H2 O10 1_555 1_555
O11 I1 1_555 1_555
O12 I2 1_555 1_555
O13 I3 1_555 1_555
O14 I4 1_555 1_555
O15 I4 1_555 1_555
O16 I5 1_555 1_555
O17 I5 1_555 1_555
O18 I6 1_555 1_555
O19 I6 1_555 1_555
O20 H3 1_555 1_555
H4 O20 1_555 1_555
N1 In1 1_555 1_555
N2 In1 1_555 1_555
C1 N1 1_555 1_555
H5 C1 1_555 1_555
C2 C1 1_555 1_555
H6 C2 1_555 1_555
C3 C2 1_555 1_555
H7 C3 1_555 1_555
C4 C3 1_555 1_555
H8 C4 1_555 1_555
C5 N1 1_555 1_555
C6 N2 1_555 1_555
C7 C6 1_555 1_555
H9 C7 1_555 1_555
C8 C7 1_555 1_555
H10 C8 1_555 1_555
C9 C8 1_555 1_555
H11 C9 1_555 1_555
C10 N2 1_555 1_555
H12 C10 1_555 1_555
In1_2 O3 1_555 1_555
In2C O6 1_555 1_555
O3_2 In1 1_555 1_555
O6C In2 1_555 1_555
C4 C5 1_555 1_555
C5 C6 1_555 1_555
C9 C10 1_555 1_555

#END
