
#######################################################################
#
#                 Cambridge Crystallographic Data Centre
#                                CCDC 
#
#######################################################################
#
# If this CIF has been generated from an entry in the Cambridge 
# Structural Database, then it will include bibliographic, chemical, 
# crystal, experimental, refinement or atomic coordinate data resulting 
# from the CCDC's data processing and validation procedures.
#
#######################################################################

data_HOBSIB
_symmetry_cell_setting           orthorhombic
_symmetry_space_group_name_H-M   'P n a 21'
_symmetry_Int_Tables_number      33
_space_group_name_Hall           'P 2c -2n'
loop_
_symmetry_equiv_pos_site_id
_symmetry_equiv_pos_as_xyz
1 x,y,z
2 -x,-y,1/2+z
3 1/2+x,1/2-y,z
4 1/2-x,1/2+y,1/2+z
_cell_length_a                   10.7227(2)
_cell_length_b                   21.1177(4)
_cell_length_c                   11.8048(1)
_cell_angle_alpha                90
_cell_angle_beta                 90
_cell_angle_gamma                90
_cell_volume                     2673.06
loop_
_atom_site_label
_atom_site_type_symbol
_atom_site_fract_x
_atom_site_fract_y
_atom_site_fract_z
Re1 Re 0.68013(3) -0.461450(17) -0.41296(3)
Re2 Re 0.63546(4) -0.41923(2) -0.04820(3)
Re3 Re 0.58993(4) -0.62520(2) -0.18743(4)
Nd1 Nd 0.34604(4) -0.48345(2) -0.24879(4)
O1 O 0.5366(7) -0.4460(4) -0.3501(6)
O2 O 0.6645(7) -0.4728(4) -0.5560(6)
O3 O 0.7433(7) -0.5276(4) -0.3566(7)
O4 O 0.7799(7) -0.3995(4) -0.3956(7)
O5 O 0.4986(7) -0.4298(4) -0.1205(6)
O6 O 0.6543(8) -0.4719(4) 0.0585(6)
O7 O 0.6390(15) -0.3469(5) 0.0060(12)
O8 O 0.7546(9) -0.4273(7) -0.1393(9)
O9 O 0.4913(8) -0.5698(4) -0.2426(8)
O10 O 0.5124(9) -0.6714(4) -0.0910(8)
O11 O 0.6483(15) -0.6703(6) -0.2875(12)
O12 O 0.7104(13) -0.5898(10) -0.1208(12)
N1 N 0.1143(7) -0.4658(4) -0.3255(6)
N2 N 0.2038(8) -0.4040(5) -0.1248(7)
N3 N 0.3019(7) -0.3718(4) -0.3422(7)
N4 N 0.1917(8) -0.5836(4) -0.2431(8)
C1 C 0.0309(10) -0.4467(5) -0.2310(9)
H1 H -0.0471 -0.4314 -0.2624
H2 H 0.0123 -0.4836 -0.1853
C2 C 0.1131(10) -0.4177(5) -0.4160(10)
H3 H 0.0278 -0.4039 -0.4279
H4 H 0.1416 -0.4372 -0.4858
C3 C 0.0634(9) -0.5248(5) -0.3739(8)
H5 H 0.1030 -0.5329 -0.4463
H6 H -0.0253 -0.5195 -0.3872
C4 C 0.0839(9) -0.3971(5) -0.1572(8)
C5 C 0.0153(11) -0.3451(6) -0.1210(11)
H7 H -0.0668 -0.3405 -0.1451
C6 C 0.0666(12) -0.3003(5) -0.0498(12)
H8 H 0.0210 -0.2652 -0.0263
C7 C 0.1856(13) -0.3094(6) -0.0155(9)
H9 H 0.2223 -0.2804 0.0335
C8 C 0.2524(11) -0.3601(5) -0.0516(10)
H10 H 0.3337 -0.3653 -0.0257
C9 C 0.1912(10) -0.3616(5) -0.3927(8)
C10 C 0.1533(11) -0.3019(6) -0.4227(12)
H11 H 0.0769 -0.2958 -0.4583
C11 C 0.2295(15) -0.2515(6) -0.3995(12)
H12 H 0.2046 -0.2108 -0.4192
C12 C 0.3426(13) -0.2609(6) -0.3472(12)
H13 H 0.3947 -0.2273 -0.3287
C13 C 0.3741(11) -0.3219(6) -0.3242(9)
H14 H 0.4526 -0.3292 -0.2933
C14 C 0.0834(9) -0.5806(5) -0.2973(9)
C15 C -0.0090(12) -0.6274(6) -0.2829(11)
H15 H -0.0871 -0.6232 -0.3165
C16 C 0.0196(13) -0.6793(7) -0.2179(11)
H16 H -0.0384 -0.7117 -0.2097
C17 C 0.1313(13) -0.6835(6) -0.1659(12)
H17 H 0.1510 -0.7182 -0.1207
C18 C 0.2151(12) -0.6352(5) -0.1816(11)
H18 H 0.2929 -0.6387 -0.1474
Nd1A Nd 0.65396(4) -0.51655(2) -0.74879(4)
Nd1A_2 Nd 0.65396(4) -0.51655(2) 0.25121(4)
O2A O 0.3355(7) -0.5272(4) -0.0560(6)
O6A O 0.3457(8) -0.5281(4) -0.4415(6)
loop_
_geom_bond_atom_site_label_1
_geom_bond_atom_site_label_2
_geom_bond_site_symmetry_1
_geom_bond_site_symmetry_2
Re1 O1 1_555 1_555
Re2 O5 1_555 1_555
Re3 O9 1_555 1_555
Nd1 O1 1_555 1_555
O2 Re1 1_555 1_555
O3 Re1 1_555 1_555
O4 Re1 1_555 1_555
O5 Nd1 1_555 1_555
O6 Re2 1_555 1_555
O7 Re2 1_555 1_555
O8 Re2 1_555 1_555
O9 Nd1 1_555 1_555
O10 Re3 1_555 1_555
O11 Re3 1_555 1_555
O12 Re3 1_555 1_555
N1 Nd1 1_555 1_555
N2 Nd1 1_555 1_555
N3 Nd1 1_555 1_555
N4 Nd1 1_555 1_555
C1 N1 1_555 1_555
H1 C1 1_555 1_555
H2 C1 1_555 1_555
C2 N1 1_555 1_555
H3 C2 1_555 1_555
H4 C2 1_555 1_555
C3 N1 1_555 1_555
H5 C3 1_555 1_555
H6 C3 1_555 1_555
C4 N2 1_555 1_555
C5 C4 1_555 1_555
H7 C5 1_555 1_555
C6 C5 1_555 1_555
H8 C6 1_555 1_555
C7 C6 1_555 1_555
H9 C7 1_555 1_555
C8 N2 1_555 1_555
H10 C8 1_555 1_555
C9 N3 1_555 1_555
C10 C9 1_555 1_555
H11 C10 1_555 1_555
C11 C10 1_555 1_555
H12 C11 1_555 1_555
C12 C11 1_555 1_555
H13 C12 1_555 1_555
C13 N3 1_555 1_555
H14 C13 1_555 1_555
C14 N4 1_555 1_555
C15 C14 1_555 1_555
H15 C15 1_555 1_555
C16 C15 1_555 1_555
H16 C16 1_555 1_555
C17 C16 1_555 1_555
H17 C17 1_555 1_555
C18 N4 1_555 1_555
H18 C18 1_555 1_555
Nd1A O2 1_555 1_555
Nd1A_2 O6 1_555 1_555
O2A Nd1 1_555 1_555
O6A Nd1 1_555 1_555
C1 C4 1_555 1_555
C2 C9 1_555 1_555
C3 C14 1_555 1_555
C7 C8 1_555 1_555
C12 C13 1_555 1_555
C17 C18 1_555 1_555

#END
