
#######################################################################
#
#                 Cambridge Crystallographic Data Centre
#                                CCDC 
#
#######################################################################
#
# If this CIF has been generated from an entry in the Cambridge 
# Structural Database, then it will include bibliographic, chemical, 
# crystal, experimental, refinement or atomic coordinate data resulting 
# from the CCDC's data processing and validation procedures.
#
#######################################################################

data_HOBVUP
_symmetry_cell_setting           triclinic
_symmetry_space_group_name_H-M   'P -1'
_symmetry_Int_Tables_number      2
_space_group_name_Hall           '-P 1'
loop_
_symmetry_equiv_pos_site_id
_symmetry_equiv_pos_as_xyz
1 x,y,z
2 -x,-y,-z
_cell_length_a                   10.384(2)
_cell_length_b                   12.773(3)
_cell_length_c                   9.984(2)
_cell_angle_alpha                98.24(2)
_cell_angle_beta                 110.72(1)
_cell_angle_gamma                83.75(2)
_cell_volume                     1223.37
loop_
_atom_site_label
_atom_site_type_symbol
_atom_site_fract_x
_atom_site_fract_y
_atom_site_fract_z
Cu1 Cu -0.46108(4) 0.28746(4) 0.02719(5)
S1 S -0.45841(9) 0.13818(7) 0.1641(1)
S2 S -0.28490(9) -0.05172(8) 0.1136(1)
N1 N -0.2743(3) 0.3384(2) 0.1285(3)
N2 N 0.5380(3) 0.2962(3) 0.4640(4)
N3 N -0.3700(3) -0.3711(2) -0.0253(3)
N4 N -0.4664(3) 0.2104(2) -0.1613(3)
C1 C -0.1575(4) 0.3392(3) 0.1781(4)
C2 C -0.0086(3) 0.3328(3) 0.2361(3)
C3 C 0.0626(3) 0.2483(3) 0.1810(4)
C4 C 0.2044(3) 0.2424(3) 0.2421(4)
C5 C 0.2724(3) 0.3168(3) 0.3547(4)
C6 C 0.2013(3) 0.4011(3) 0.4099(4)
C7 C 0.0598(3) 0.4083(3) 0.3466(4)
C8 C 0.4211(4) 0.3058(3) 0.4167(4)
C9 C -0.0128(4) 0.1665(3) 0.0616(4)
C10 C 0.2747(4) 0.4771(3) 0.5359(4)
C11 C -0.4461(3) 0.0180(3) 0.0564(4)
C12 C -0.2129(4) 0.0397(3) 0.2619(4)
C13 C -0.2894(4) 0.1243(3) 0.2856(4)
C14 C -0.4751(3) 0.1508(3) -0.2599(4)
C15 C -0.4865(3) 0.0729(3) -0.3831(4)
C16 C -0.3668(3) 0.0218(3) -0.4007(4)
C17 C -0.6171(3) 0.0527(3) -0.4802(4)
C18 C -0.2258(4) 0.0460(4) -0.2943(5)
C19 C -0.2641(3) -0.4092(3) -0.0182(4)
C20 C -0.1288(3) -0.4568(3) -0.0107(3)
C21 C -0.1190(3) -0.5498(3) -0.0999(3)
C22 C 0.0135(3) -0.5920(3) -0.0869(4)
C23 C -0.2436(4) -0.6022(3) -0.2058(4)
H1 H 0.2544 0.1790 0.2046
H2 H 0.0008 0.4753 0.3689
H3 H -0.1101 0.1824 0.0320
H4 H 0.0156 0.1640 -0.0199
H5 H 0.0062 0.0971 0.0939
H6 H 0.3729 0.4599 0.5665
H7 H 0.2583 0.5480 0.5117
H8 H 0.2455 0.4735 0.6157
H9 H -0.1220 0.0243 0.3138
H10 H -0.2656 0.1882 0.3593
H11 H -0.7031 0.0930 -0.4592
H12 H -0.1556 0.0038 -0.3227
H13 H -0.2171 0.0306 -0.2002
H14 H -0.2099 0.1189 -0.2886
H15 H 0.0321 -0.6642 -0.1400
H16 H -0.2978 -0.5555 -0.2741
H17 H -0.3006 -0.6219 -0.1568
H18 H -0.2172 -0.6653 -0.2570
C11A C -0.5539(3) -0.0180(3) -0.0564(4)
S1A S -0.54159(9) -0.13818(7) -0.1641(1)
Cu1A Cu -0.53892(4) -0.28746(4) -0.02719(5)
N1A N -0.7257(3) -0.3384(2) -0.1285(3)
C1A C -0.8425(4) -0.3392(3) -0.1781(4)
C2A C -0.9914(3) -0.3328(3) -0.2361(3)
C3A C -1.0626(3) -0.2483(3) -0.1810(4)
C4A C -1.2044(3) -0.2424(3) -0.2421(4)
C5A C -1.2724(3) -0.3168(3) -0.3547(4)
C6A C -1.2013(3) -0.4011(3) -0.4099(4)
C7A C -1.0598(3) -0.4083(3) -0.3466(4)
H2A H -1.0008 -0.4753 -0.3689
C10A C -1.2747(4) -0.4771(3) -0.5359(4)
H6A H -1.3729 -0.4599 -0.5665
H7A H -1.2583 -0.5480 -0.5117
H8A H -1.2455 -0.4735 -0.6157
C8A C -1.4211(4) -0.3058(3) -0.4167(4)
N2A N -1.5380(3) -0.2962(3) -0.4640(4)
H1A H -1.2544 -0.1790 -0.2046
C9A C -0.9872(4) -0.1665(3) -0.0616(4)
H3A H -0.8899 -0.1824 -0.0320
H4A H -1.0156 -0.1640 0.0199
H5A H -1.0062 -0.0971 -0.0939
N3A N -0.6300(3) 0.3711(2) 0.0253(3)
C20A C 0.1288(3) -0.5432(3) 0.0107(3)
C19A C 0.2641(3) -0.5908(3) 0.0182(4)
N3A_2 N 0.3700(3) -0.6289(2) 0.0253(3)
Cu1_2 Cu 0.53892(4) -0.71254(4) 0.02719(5)
Cu1A_2 Cu -0.53892(4) -0.28746(4) -1.02719(5)
N4A N -0.5336(3) -0.2104(2) -0.8387(3)
C14A C -0.5249(3) -0.1508(3) -0.7401(4)
C15A C -0.5135(3) -0.0729(3) -0.6169(4)
C16A C -0.6332(3) -0.0218(3) -0.5993(4)
C18A C -0.7742(4) -0.0460(4) -0.7057(5)
H12A H -0.8444 -0.0038 -0.6773
H13A H -0.7829 -0.0306 -0.7998
H14A H -0.7901 -0.1189 -0.7114
C17A C -0.3829(3) -0.0527(3) -0.5198(4)
H11A H -0.2969 -0.0930 -0.5408
C21A C 0.1190(3) -0.4502(3) 0.0999(3)
C22A C -0.0135(3) -0.4080(3) 0.0869(4)
H15A H -0.0321 -0.3358 0.1400
N4A_2 N -0.5336(3) -0.2104(2) 0.1613(3)
C13A C -0.7106(4) -0.1243(3) -0.2856(4)
C12A C -0.7871(4) -0.0397(3) -0.2619(4)
S2A S -0.71510(9) 0.05172(8) -0.1136(1)
H9A H -0.8780 -0.0243 -0.3138
H10A H -0.7344 -0.1882 -0.3593
C23A C 0.2436(4) -0.3978(3) 0.2058(4)
H16A H 0.2978 -0.4445 0.2741
H17A H 0.3006 -0.3781 0.1568
H18A H 0.2172 -0.3347 0.2570
Cl1 Cl -0.95277(9) 0.22886(7) -0.4017(1)
O1 O -0.9755(3) 0.1790(2) -0.2934(3)
O2 O -0.9388(3) 0.1524(3) -0.5138(3)
O3 O -1.0669(4) 0.3009(3) -0.4592(4)
O4 O -0.8308(4) 0.2828(3) -0.3386(4)
loop_
_geom_bond_atom_site_label_1
_geom_bond_atom_site_label_2
_geom_bond_site_symmetry_1
_geom_bond_site_symmetry_2
Cu1 S1 1_555 1_555
Cl1 O1 1_555 1_555
S1 C11 1_555 1_555
S2 C11 1_555 1_555
O2 Cl1 1_555 1_555
O3 Cl1 1_555 1_555
O4 Cl1 1_555 1_555
N1 Cu1 1_555 1_555
N2 C8 1_555 1_555
N3 C19 1_555 1_555
N4 Cu1 1_555 1_555
C1 N1 1_555 1_555
C2 C1 1_555 1_555
C3 C2 1_555 1_555
C4 C3 1_555 1_555
C5 C4 1_555 1_555
C6 C5 1_555 1_555
C7 C2 1_555 1_555
C8 C5 1_555 1_555
C9 C3 1_555 1_555
C10 C6 1_555 1_555
C11 C11A 1_555 1_555
C12 S2 1_555 1_555
C13 S1 1_555 1_555
C14 N4 1_555 1_555
C15 C14 1_555 1_555
C16 C15 1_555 1_555
C17 C15 1_555 1_555
C18 C16 1_555 1_555
C19 C20 1_555 1_555
C20 C21 1_555 1_555
C21 C22 1_555 1_555
C22 H15 1_555 1_555
C23 C21 1_555 1_555
H1 C4 1_555 1_555
H2 C7 1_555 1_555
H3 C9 1_555 1_555
H4 C9 1_555 1_555
H5 C9 1_555 1_555
H6 C10 1_555 1_555
H7 C10 1_555 1_555
H8 C10 1_555 1_555
H9 C12 1_555 1_555
H10 C13 1_555 1_555
H11 C17 1_555 1_555
H12 C18 1_555 1_555
H13 C18 1_555 1_555
H14 C18 1_555 1_555
H16 C23 1_555 1_555
H17 C23 1_555 1_555
H18 C23 1_555 1_555
C11A S1A 1_555 1_555
S1A Cu1A 1_555 1_555
Cu1A N3 1_555 1_555
N1A Cu1A 1_555 1_555
C1A N1A 1_555 1_555
C2A C1A 1_555 1_555
C3A C2A 1_555 1_555
C4A C3A 1_555 1_555
C5A C4A 1_555 1_555
C6A C5A 1_555 1_555
C7A C2A 1_555 1_555
H2A C7A 1_555 1_555
C10A C6A 1_555 1_555
H6A C10A 1_555 1_555
H7A C10A 1_555 1_555
H8A C10A 1_555 1_555
C8A C5A 1_555 1_555
N2A C8A 1_555 1_555
H1A C4A 1_555 1_555
C9A C3A 1_555 1_555
H3A C9A 1_555 1_555
H4A C9A 1_555 1_555
H5A C9A 1_555 1_555
N3A Cu1 1_555 1_555
C20A C22 1_555 1_555
C19A C20A 1_555 1_555
N3A_2 C19A 1_555 1_555
Cu1_2 N3A_2 1_555 1_555
Cu1A_2 N4A 1_555 1_555
N4A C14A 1_555 1_555
C14A C15A 1_555 1_555
C15A C16A 1_555 1_555
C16A C17 1_555 1_555
C18A C16A 1_555 1_555
H12A C18A 1_555 1_555
H13A C18A 1_555 1_555
H14A C18A 1_555 1_555
C17A C16 1_555 1_555
H11A C17A 1_555 1_555
C21A C20A 1_555 1_555
C22A C20 1_555 1_555
H15A C22A 1_555 1_555
N4A_2 Cu1A 1_555 1_555
C13A S1A 1_555 1_555
C12A C13A 1_555 1_555
S2A C11A 1_555 1_555
H9A C12A 1_555 1_555
H10A C13A 1_555 1_555
C23A C21A 1_555 1_555
H16A C23A 1_555 1_555
H17A C23A 1_555 1_555
H18A C23A 1_555 1_555
C6 C7 1_555 1_555
C12 C13 1_555 1_555
C6A C7A 1_555 1_555
C15A C17A 1_555 1_555
C21A C22A 1_555 1_555
C12A S2A 1_555 1_555

#END
