
#######################################################################
#
#                 Cambridge Crystallographic Data Centre
#                                CCDC 
#
#######################################################################
#
# If this CIF has been generated from an entry in the Cambridge 
# Structural Database, then it will include bibliographic, chemical, 
# crystal, experimental, refinement or atomic coordinate data resulting 
# from the CCDC's data processing and validation procedures.
#
#######################################################################

data_HOBXUR01
_symmetry_cell_setting           triclinic
_symmetry_space_group_name_H-M   'P -1'
_symmetry_Int_Tables_number      2
_space_group_name_Hall           '-P 1'
loop_
_symmetry_equiv_pos_site_id
_symmetry_equiv_pos_as_xyz
1 x,y,z
2 -x,-y,-z
_cell_length_a                   12.527(3)
_cell_length_b                   15.383(2)
_cell_length_c                   9.740(1)
_cell_angle_alpha                96.55(1)
_cell_angle_beta                 91.95(2)
_cell_angle_gamma                70.50(2)
_cell_volume                     1757.7
loop_
_atom_site_label
_atom_site_type_symbol
_atom_site_fract_x
_atom_site_fract_y
_atom_site_fract_z
Au1 Au 0.0201(2) -0.1400(2) -0.2538(2)
Au2 Au 0.0829(3) -0.3484(2) -0.2760(2)
S1 S -0.0960(15) -0.1301(13) -0.0667(16)
S2 S 0.2454(19) -0.3493(12) -0.1727(19)
P1 P 0.1179(11) -0.1342(10) -0.4423(13)
P2 P -0.0721(16) -0.3571(9) -0.3770(15)
C1 C 0.047(4) -0.029(3) -0.524(4)
C2 C -0.052(5) -0.470(5) -0.487(7)
C3 C -0.206(4) -0.024(3) -0.090(7)
C4 C -0.195(3) 0.061(4) -0.084(5)
C5 C -0.289(4) 0.132(3) -0.101(4)
C6 C -0.396(4) 0.124(3) -0.116(7)
C7 C -0.411(3) 0.046(4) -0.118(5)
C8 C -0.320(4) -0.033(3) -0.105(4)
C9 C 0.253(3) -0.141(4) -0.416(5)
C10 C 0.332(4) -0.140(4) -0.523(3)
C11 C 0.438(4) -0.138(2) -0.504(4)
C12 C 0.479(3) -0.123(4) -0.369(5)
C13 C 0.405(4) -0.117(4) -0.258(3)
C14 C 0.296(4) -0.131(2) -0.284(4)
C15 C 0.136(6) -0.224(3) -0.585(4)
C16 C 0.206(4) -0.313(4) -0.567(5)
C17 C 0.212(4) -0.391(3) -0.672(6)
C18 C 0.156(6) -0.375(3) -0.797(4)
C19 C 0.084(4) -0.288(4) -0.812(5)
C20 C 0.081(4) -0.205(2) -0.705(6)
C21 C 0.350(14) -0.450(7) -0.212(19)
C22 C 0.449(17) -0.467(11) -0.124(9)
C23 C 0.550(10) -0.555(14) -0.157(17)
C24 C 0.516(15) -0.637(6) -0.263(18)
C25 C 0.417(16) -0.613(12) -0.326(8)
C26 C 0.340(9) -0.522(13) -0.289(16)
C27 C -0.150(4) -0.276(5) -0.493(7)
C28 C -0.206(6) -0.190(5) -0.439(4)
C29 C -0.258(7) -0.109(3) -0.517(8)
C30 C -0.254(4) -0.142(5) -0.668(7)
C31 C -0.196(7) -0.230(5) -0.726(4)
C32 C -0.148(7) -0.295(3) -0.634(8)
C33 C -0.177(9) -0.346(4) -0.261(10)
C34 C -0.286(11) -0.343(10) -0.292(11)
C35 C -0.368(8) -0.336(11) -0.184(17)
C36 C -0.293(9) -0.367(4) -0.058(9)
C37 C -0.212(11) -0.376(10) -0.016(10)
C38 C -0.123(8) -0.361(11) -0.131(16)
C1A C -0.047(4) 0.029(3) -0.476(4)
P1A P -0.1179(11) 0.1342(10) -0.5577(13)
C9A C -0.253(3) 0.141(4) -0.584(5)
C10A C -0.332(4) 0.140(4) -0.477(3)
C11A C -0.438(4) 0.138(2) -0.496(4)
C12A C -0.479(3) 0.123(4) -0.631(5)
C13A C -0.405(4) 0.117(4) -0.742(3)
C14A C -0.296(4) 0.131(2) -0.716(4)
C15A C -0.136(6) 0.224(3) -0.415(4)
C16A C -0.206(4) 0.313(4) -0.433(5)
C17A C -0.212(4) 0.391(3) -0.328(6)
C18A C -0.156(6) 0.375(3) -0.203(4)
C19A C -0.084(4) 0.288(4) -0.188(5)
C20A C -0.081(4) 0.205(2) -0.295(6)
C2A C 0.052(5) -0.530(5) -0.513(7)
P2A P 0.0721(16) -0.6429(9) -0.6230(15)
C27A C 0.150(4) -0.724(5) -0.507(7)
C28A C 0.206(6) -0.810(5) -0.561(4)
C29A C 0.258(7) -0.891(3) -0.483(8)
C30A C 0.254(4) -0.858(5) -0.332(7)
C31A C 0.196(7) -0.770(5) -0.274(4)
C32A C 0.148(7) -0.705(3) -0.366(8)
C33A C 0.177(9) -0.654(4) -0.739(10)
C34A C 0.286(11) -0.657(10) -0.708(11)
C35A C 0.368(8) -0.664(11) -0.816(17)
C36A C 0.293(9) -0.633(4) -0.942(9)
C37A C 0.212(11) -0.624(10) -0.984(10)
C38A C 0.123(8) -0.639(11) -0.869(16)
Au1A Au -0.0201(2) 0.1400(2) -0.7462(2)
S1A S 0.0960(15) 0.1301(13) -0.9333(16)
C3A C 0.206(4) 0.024(3) -0.910(7)
C4A C 0.195(3) -0.061(4) -0.916(5)
C5A C 0.289(4) -0.132(3) -0.899(4)
C6A C 0.396(4) -0.124(3) -0.884(7)
C7A C 0.411(3) -0.046(4) -0.882(5)
C8A C 0.320(4) 0.033(3) -0.895(4)
Au2A Au -0.0829(3) -0.6516(2) -0.7240(2)
S2A S -0.2454(19) -0.6507(12) -0.8273(19)
C21A C -0.350(14) -0.550(7) -0.788(19)
C22A C -0.449(17) -0.533(11) -0.876(9)
C23A C -0.550(10) -0.445(14) -0.843(17)
C24A C -0.516(15) -0.363(6) -0.737(18)
C25A C -0.417(16) -0.387(12) -0.674(8)
C26A C -0.340(9) -0.478(13) -0.711(16)
Au2A_2 Au -0.0829(3) 0.3484(2) -0.7240(2)
Au1A_2 Au -0.0201(2) -0.8600(2) -0.7462(2)
loop_
_geom_bond_atom_site_label_1
_geom_bond_atom_site_label_2
_geom_bond_site_symmetry_1
_geom_bond_site_symmetry_2
Au1 Au2 1_555 1_555
Au2 S2 1_555 1_555
S1 Au1 1_555 1_555
S2 C21 1_555 1_555
P1 Au1 1_555 1_555
P2 Au2 1_555 1_555
C1 P1 1_555 1_555
C2 P2 1_555 1_555
C3 S1 1_555 1_555
C4 C3 1_555 1_555
C5 C4 1_555 1_555
C6 C5 1_555 1_555
C7 C6 1_555 1_555
C8 C3 1_555 1_555
C9 P1 1_555 1_555
C10 C9 1_555 1_555
C11 C10 1_555 1_555
C12 C11 1_555 1_555
C13 C12 1_555 1_555
C14 C9 1_555 1_555
C15 P1 1_555 1_555
C16 C15 1_555 1_555
C17 C16 1_555 1_555
C18 C17 1_555 1_555
C19 C18 1_555 1_555
C20 C15 1_555 1_555
C21 C22 1_555 1_555
C22 C23 1_555 1_555
C23 C24 1_555 1_555
C24 C25 1_555 1_555
C25 C26 1_555 1_555
C26 C21 1_555 1_555
C27 P2 1_555 1_555
C28 C27 1_555 1_555
C29 C28 1_555 1_555
C30 C29 1_555 1_555
C31 C30 1_555 1_555
C32 C27 1_555 1_555
C33 P2 1_555 1_555
C34 C33 1_555 1_555
C35 C34 1_555 1_555
C36 C35 1_555 1_555
C37 C36 1_555 1_555
C38 C33 1_555 1_555
C1A C1 1_555 1_555
P1A C1A 1_555 1_555
C9A P1A 1_555 1_555
C10A C9A 1_555 1_555
C11A C10A 1_555 1_555
C12A C11A 1_555 1_555
C13A C12A 1_555 1_555
C14A C9A 1_555 1_555
C15A P1A 1_555 1_555
C16A C15A 1_555 1_555
C17A C16A 1_555 1_555
C18A C17A 1_555 1_555
C19A C18A 1_555 1_555
C20A C15A 1_555 1_555
C2A C2 1_555 1_555
P2A C2A 1_555 1_555
C27A P2A 1_555 1_555
C28A C27A 1_555 1_555
C29A C28A 1_555 1_555
C30A C29A 1_555 1_555
C31A C30A 1_555 1_555
C32A C27A 1_555 1_555
C33A P2A 1_555 1_555
C34A C33A 1_555 1_555
C35A C34A 1_555 1_555
C36A C35A 1_555 1_555
C37A C36A 1_555 1_555
C38A C33A 1_555 1_555
Au1A P1A 1_555 1_555
S1A Au1A 1_555 1_555
C3A S1A 1_555 1_555
C4A C3A 1_555 1_555
C5A C4A 1_555 1_555
C6A C5A 1_555 1_555
C7A C6A 1_555 1_555
C8A C3A 1_555 1_555
Au2A P2A 1_555 1_555
S2A Au2A 1_555 1_555
C21A S2A 1_555 1_555
C22A C21A 1_555 1_555
C23A C22A 1_555 1_555
C24A C23A 1_555 1_555
C25A C24A 1_555 1_555
C26A C21A 1_555 1_555
Au2A_2 Au1A 1_555 1_555
Au1A_2 Au2A 1_555 1_555
C7 C8 1_555 1_555
C13 C14 1_555 1_555
C19 C20 1_555 1_555
C31 C32 1_555 1_555
C37 C38 1_555 1_555
C13A C14A 1_555 1_555
C19A C20A 1_555 1_555
C31A C32A 1_555 1_555
C37A C38A 1_555 1_555
C7A C8A 1_555 1_555
C25A C26A 1_555 1_555

#END
