
#######################################################################
#
#                 Cambridge Crystallographic Data Centre
#                                CCDC 
#
#######################################################################
#
# If this CIF has been generated from an entry in the Cambridge 
# Structural Database, then it will include bibliographic, chemical, 
# crystal, experimental, refinement or atomic coordinate data resulting 
# from the CCDC's data processing and validation procedures.
#
#######################################################################

data_HOCHAI
_symmetry_cell_setting           monoclinic
_symmetry_space_group_name_H-M   'C c'
_symmetry_Int_Tables_number      9
_space_group_name_Hall           'C -2yc'
loop_
_symmetry_equiv_pos_site_id
_symmetry_equiv_pos_as_xyz
1 x,y,z
2 x,-y,1/2+z
3 1/2+x,1/2+y,z
4 1/2+x,1/2-y,1/2+z
_cell_length_a                   24.3033(7)
_cell_length_b                   25.0251(4)
_cell_length_c                   18.2807(5)
_cell_angle_alpha                90
_cell_angle_beta                 130.6780(10)
_cell_angle_gamma                90
_cell_volume                     8431.86
loop_
_atom_site_label
_atom_site_type_symbol
_atom_site_fract_x
_atom_site_fract_y
_atom_site_fract_z
Cu1 Cu 0.3774(2) 0.0186(2) 0.0329(3)
O1 O 0.2966(11) 0.0230(9) -0.1060(13)
O2 O 0.4457(10) 0.0785(8) 0.0712(15)
N1 N 0.3438(14) -0.0515(10) 0.0297(20)
N2 N 0.4529(17) -0.0101(12) 0.1573(21)
C1 C 0.2559(22) -0.0164(15) -0.1378(28)
C2 C 0.2811(21) -0.0627(15) -0.0617(27)
C3 C 0.5061(25) 0.0739(18) 0.1612(33)
C4 C 0.5060(23) 0.0257(17) 0.2015(29)
O3 O 0.5585(15) 0.1079(10) 0.2068(20)
O4 O 0.5743(12) 0.0206(8) 0.2907(16)
O5 O 0.1962(11) -0.0252(8) -0.2177(14)
O6 O 0.2401(11) -0.1041(8) -0.0897(13)
C5 C 0.3835(20) -0.0837(15) 0.1137(27)
C6 C 0.3552(20) -0.1296(15) 0.1155(26)
H1 H 0.311(12) -0.1454(79) 0.065(16)
C7 C 0.4086(24) -0.1491(17) 0.2147(32)
H2 H 0.401(11) -0.1810(88) 0.233(14)
C8 C 0.4735(25) -0.1174(20) 0.2836(33)
H3 H 0.511(12) -0.1279(80) 0.347(17)
C9 C 0.4727(36) -0.0744(32) 0.2478(57)
H4 H 0.508(12) -0.0514(86) 0.297(16)
C10 C 0.4430(19) -0.0543(16) 0.1751(28)
Cu2 Cu 0.8846(2) -0.0292(2) 0.5641(3)
O7 O 0.8094(12) -0.0016(10) 0.5661(16)
O8 O 0.9574(12) -0.0691(9) 0.6848(13)
N3 N 0.8333(14) 0.0128(10) 0.4506(18)
N4 N 0.9506(15) -0.0447(11) 0.5405(19)
C11 C 0.7587(22) 0.0296(14) 0.4936(26)
C12 C 0.7704(19) 0.0305(12) 0.4211(23)
C13 C 1.0160(17) -0.0785(10) 0.6933(21)
C14 C 1.0107(20) -0.0680(12) 0.6089(23)
O9 O 1.0730(10) -0.0987(7) 0.7685(13)
O10 O 1.0626(9) -0.0788(7) 0.6134(11)
O11 O 0.7117(13) 0.0497(10) 0.4852(16)
O12 O 0.7275(10) 0.0632(8) 0.3506(14)
C15 C 0.8636(14) 0.0132(10) 0.4033(19)
C16 C 0.8321(18) 0.0412(13) 0.3198(24)
H5 H 0.793(12) 0.0642(82) 0.289(15)
C17 C 0.8660(38) 0.0302(25) 0.2919(42)
H6 H 0.845(12) 0.0447(80) 0.232(16)
C18 C 0.9280(27) 0.0014(18) 0.3308(34)
H7 H 0.950(11) 0.0017(79) 0.304(14)
C19 C 0.9565(20) -0.0288(15) 0.4143(26)
H8 H 0.996(12) -0.0514(84) 0.443(14)
C20 C 0.9214(15) -0.0227(11) 0.4524(22)
Cu3 Cu 0.6951(2) 0.2418(2) 0.5906(3)
O13 O 0.7197(12) 0.2216(8) 0.5121(16)
O14 O 0.7362(10) 0.3116(8) 0.6511(14)
N5 N 0.6340(14) 0.1812(8) 0.5284(16)
N6 N 0.6493(14) 0.2473(10) 0.6465(17)
C21 C 0.6900(19) 0.1805(15) 0.4546(27)
C22 C 0.6321(16) 0.1628(12) 0.4639(22)
C23 C 0.7080(17) 0.3323(15) 0.6829(24)
C24 C 0.6555(17) 0.2912(14) 0.6867(23)
O15 O 0.7251(10) 0.3746(8) 0.7244(14)
O16 O 0.6296(10) 0.3086(8) 0.7196(14)
O17 O 0.6912(10) 0.1651(9) 0.3988(15)
O18 O 0.5921(9) 0.1217(9) 0.4057(15)
C25 C 0.5927(16) 0.1699(12) 0.5565(21)
C26 C 0.5468(19) 0.1272(15) 0.5290(25)
H9 H 0.538(11) 0.1032(82) 0.483(15)
C27 C 0.5134(16) 0.1194(13) 0.5697(22)
H10 H 0.484(12) 0.0899(85) 0.553(14)
C28 C 0.5247(20) 0.1542(15) 0.6304(26)
H11 H 0.499(11) 0.1500(76) 0.652(14)
C29 C 0.5708(18) 0.1965(14) 0.6654(25)
H12 H 0.579(11) 0.2192(81) 0.712(16)
C30 C 0.6040(16) 0.2038(12) 0.6290(21)
Mn1 Mn 0.6402(2) 0.0895(2) 0.3477(4)
Mn2 Mn 0.1530(2) -0.1060(2) -0.2438(3)
Mn2B Mn 0.6530(2) 0.3940(2) 0.7562(3)
O9_2 O 0.0730(10) -0.0987(7) -0.2315(13)
O10_2 O 0.0626(9) -0.0788(7) -0.3866(11)
O15B O 0.2251(10) -0.1254(8) -0.2756(14)
O16B O 0.1296(10) -0.1914(8) -0.2804(14)
Mn2_2 Mn 1.1530(2) -0.1060(2) 0.7562(3)
N7 N 0.6678(17) -0.0231(9) 0.1576(17)
C31 C 0.7120(21) -0.0473(17) 0.1485(27)
H13 H 0.714(11) -0.0363(78) 0.102(15)
C32 C 0.7501(17) -0.0842(13) 0.2027(22)
H14 H 0.781(11) -0.1009(80) 0.196(14)
C33 C 0.7493(14) -0.1023(10) 0.2742(19)
C34 C 0.7011(17) -0.0789(12) 0.2777(22)
H15 H 0.696(12) -0.0902(82) 0.321(15)
C35 C 0.6647(20) -0.0426(15) 0.2218(29)
H16 H 0.631(11) -0.0271(79) 0.225(14)
C36 C 0.7912(17) -0.1438(13) 0.3305(23)
N8 N 0.8255(11) -0.1837(8) 0.3185(17)
C37 C 0.8791(22) -0.2140(16) 0.4108(27)
C38 C 0.8498(22) -0.2077(16) 0.4662(28)
N9 N 0.8125(14) -0.1547(10) 0.4219(19)
O19 O 0.8067(12) -0.1238(10) 0.4692(15)
O20 O 0.8106(11) -0.1918(8) 0.2401(15)
C39 C 0.6297(34) 0.0176(25) 0.1091(41)
H17 H 0.663(12) 0.0446(82) 0.120(14)
H18 H 0.610(11) 0.0308(82) 0.138(15)
C40 C 0.5699(43) 0.0156(37) 0.0061(48)
H19 H 0.531(12) 0.0368(83) -0.010(14)
H20 H 0.554(11) -0.0208(88) -0.013(14)
H21 H 0.585(11) 0.0294(79) -0.027(15)
C41 C 0.7894(24) -0.2460(18) 0.4403(32)
H22 H 0.773(11) -0.2352(77) 0.474(14)
H23 H 0.808(11) -0.2817(87) 0.459(14)
H24 H 0.749(12) -0.2447(78) 0.372(16)
C42 C 0.9082(33) -0.2081(23) 0.5860(45)
H25 H 0.884(11) -0.1978(79) 0.609(14)
H26 H 0.947(12) -0.1834(84) 0.610(14)
H27 H 0.928(11) -0.2434(89) 0.609(15)
C43 C 0.8827(28) -0.2790(20) 0.3907(36)
H28 H 0.928(13) -0.2862(79) 0.406(15)
H29 H 0.843(12) -0.2873(80) 0.324(16)
H30 H 0.879(11) -0.3006(82) 0.431(15)
C44 C 0.9511(25) -0.1892(18) 0.4533(32)
H31 H 0.948(11) -0.1732(80) 0.403(15)
H32 H 0.988(12) -0.2163(83) 0.485(15)
H33 H 0.963(11) -0.1623(82) 0.499(15)
N10 N 0.1748(18) -0.0061(16) 0.0398(28)
C45 C 0.1474(27) -0.0167(17) -0.0500(36)
H34 H 0.152(11) -0.0509(89) -0.065(14)
C46 C 0.1160(19) 0.0172(13) -0.1135(24)
H35 H 0.103(11) 0.0098(77) -0.173(16)
C47 C 0.0997(14) 0.0681(10) -0.0965(18)
C48 C 0.1258(18) 0.0770(13) -0.0073(23)
H36 H 0.119(11) 0.1102(86) 0.008(13)
C49 C 0.1582(27) 0.0430(19) 0.0539(29)
H37 H 0.173(12) 0.0505(77) 0.114(16)
C50 C 0.0595(19) 0.1030(13) -0.1704(25)
N11 N 0.0135(14) 0.0945(11) -0.2702(19)
C51 C -0.0299(23) 0.1428(15) -0.3245(26)
C52 C 0.0146(31) 0.1904(16) -0.2531(30)
N12 N 0.0535(14) 0.1582(10) -0.1624(20)
O21 O 0.0822(15) 0.1846(11) -0.0864(18)
O22 O 0.0027(17) 0.0489(11) -0.3058(20)
C53 C 0.2041(51) -0.0385(28) 0.1077(51)
H38 H 0.244(11) -0.0551(81) 0.117(14)
H39 H 0.169(11) -0.0664(85) 0.088(14)
C54 C 0.2326(24) -0.0183(17) 0.2038(28)
H40 H 0.269(11) -0.0422(79) 0.254(15)
H41 H 0.194(12) -0.0163(78) 0.205(14)
H42 H 0.253(11) 0.0166(87) 0.215(14)
C55 C 0.0608(63) 0.1951(41) -0.2601(71)
H43 H 0.038(12) 0.1997(86) -0.327(17)
H44 H 0.091(12) 0.1637(85) -0.235(15)
H45 H 0.090(12) 0.2258(91) -0.224(15)
C56 C -0.0087(36) 0.2302(30) -0.2356(46)
H46 H -0.061(13) 0.2318(79) -0.284(16)
H47 H 0.012(11) 0.2627(89) -0.237(14)
H48 H 0.005(12) 0.2258(81) -0.173(17)
C57 C -0.0294(72) 0.1352(51) -0.397(11)
H49 H -0.067(11) 0.1108(87) -0.443(16)
H50 H 0.017(12) 0.1207(85) -0.372(15)
H51 H -0.037(11) 0.1687(88) -0.428(16)
C58 C -0.0958(38) 0.1391(23) -0.3408(43)
H52 H -0.089(11) 0.1556(80) -0.288(16)
H53 H -0.108(11) 0.1022(88) -0.345(14)
H54 H -0.134(12) 0.1570(81) -0.400(15)
S2 S 0.3024(14) 0.1045(11) 0.1009(19)
O23 O 0.3123(18) 0.0619(13) 0.0629(24)
C59 C 0.3882(44) 0.1336(31) 0.2018(58)
C61 C 0.2761(46) 0.1448(35) -0.0213(67)
O24 O 0.5388(40) -0.2971(30) 0.4163(53)
O23B O -0.1877(18) 0.5619(13) 0.0629(24)
S2B S -0.1976(14) 0.6045(11) 0.1009(19)
C59B C -0.1118(44) 0.6336(31) 0.2018(58)
C61B C -0.2239(46) 0.6448(35) -0.0213(67)
O23B_2 O 0.8123(18) 0.5619(13) 1.0629(24)
S2B_2 S 0.8024(14) 0.6045(11) 1.1009(19)
C59B_2 C 0.8882(44) 0.6336(31) 1.2018(58)
C61B_2 C 0.7761(46) 0.6448(35) 0.9787(67)
O23_2 O 1.3123(18) 0.0619(13) 1.0629(24)
S2_2 S 1.3024(14) 0.1045(11) 1.1009(19)
C59_2 C 1.3882(44) 0.1336(31) 1.2018(58)
C61_2 C 1.2761(46) 0.1448(35) 0.9787(67)
S1? S 0.2822(14) 0.1239(11) 0.0366(22)
C60? C 0.3317(61) 0.1551(42) 0.0851(79)
loop_
_geom_bond_atom_site_label_1
_geom_bond_atom_site_label_2
_geom_bond_site_symmetry_1
_geom_bond_site_symmetry_2
Cu1 O1 1_555 1_555
O1 C1 1_555 1_555
O2 Cu1 1_555 1_555
N1 Cu1 1_555 1_555
N2 Cu1 1_555 1_555
C1 C2 1_555 1_555
C2 N1 1_555 1_555
C3 O2 1_555 1_555
C4 N2 1_555 1_555
O3 C3 1_555 1_555
O4 C4 1_555 1_555
O5 C1 1_555 1_555
O6 C2 1_555 1_555
C5 N1 1_555 1_555
C6 C5 1_555 1_555
H1 C6 1_555 1_555
C7 C6 1_555 1_555
H2 C7 1_555 1_555
C8 C7 1_555 1_555
H3 C8 1_555 1_555
C9 C8 1_555 1_555
H4 C9 1_555 1_555
C10 N2 1_555 1_555
Cu2 O7 1_555 1_555
O7 C11 1_555 1_555
O8 Cu2 1_555 1_555
N3 Cu2 1_555 1_555
N4 Cu2 1_555 1_555
C11 C12 1_555 1_555
C12 N3 1_555 1_555
C13 O8 1_555 1_555
C14 N4 1_555 1_555
O9 C13 1_555 1_555
O10 C14 1_555 1_555
O11 C11 1_555 1_555
O12 C12 1_555 1_555
C15 N3 1_555 1_555
C16 C15 1_555 1_555
H5 C16 1_555 1_555
C17 C16 1_555 1_555
H6 C17 1_555 1_555
C18 C17 1_555 1_555
H7 C18 1_555 1_555
C19 C18 1_555 1_555
H8 C19 1_555 1_555
C20 N4 1_555 1_555
Cu3 O13 1_555 1_555
O13 C21 1_555 1_555
O14 Cu3 1_555 1_555
N5 Cu3 1_555 1_555
N6 Cu3 1_555 1_555
C21 C22 1_555 1_555
C22 N5 1_555 1_555
C23 O14 1_555 1_555
C24 N6 1_555 1_555
O15 C23 1_555 1_555
O16 C24 1_555 1_555
O17 C21 1_555 1_555
O18 C22 1_555 1_555
C25 N5 1_555 1_555
C26 C25 1_555 1_555
H9 C26 1_555 1_555
C27 C26 1_555 1_555
H10 C27 1_555 1_555
C28 C27 1_555 1_555
H11 C28 1_555 1_555
C29 C28 1_555 1_555
H12 C29 1_555 1_555
C30 N6 1_555 1_555
Mn1 O3 1_555 1_555
Mn2 O5 1_555 1_555
N7 C31 1_555 1_555
C31 H13 1_555 1_555
C32 C31 1_555 1_555
H14 C32 1_555 1_555
C33 C32 1_555 1_555
C34 C33 1_555 1_555
H15 C34 1_555 1_555
C35 N7 1_555 1_555
H16 C35 1_555 1_555
C36 C33 1_555 1_555
N8 C36 1_555 1_555
C37 N8 1_555 1_555
C38 C37 1_555 1_555
N9 C36 1_555 1_555
O19 N9 1_555 1_555
O20 N8 1_555 1_555
C39 N7 1_555 1_555
H17 C39 1_555 1_555
H18 C39 1_555 1_555
C40 C39 1_555 1_555
H19 C40 1_555 1_555
H20 C40 1_555 1_555
H21 C40 1_555 1_555
C41 C38 1_555 1_555
H22 C41 1_555 1_555
H23 C41 1_555 1_555
H24 C41 1_555 1_555
C42 C38 1_555 1_555
H25 C42 1_555 1_555
H26 C42 1_555 1_555
H27 C42 1_555 1_555
C43 C37 1_555 1_555
H28 C43 1_555 1_555
H29 C43 1_555 1_555
H30 C43 1_555 1_555
C44 C37 1_555 1_555
H31 C44 1_555 1_555
H32 C44 1_555 1_555
H33 C44 1_555 1_555
N10 C45 1_555 1_555
C45 H34 1_555 1_555
C46 C45 1_555 1_555
H35 C46 1_555 1_555
C47 C46 1_555 1_555
C48 C47 1_555 1_555
H36 C48 1_555 1_555
C49 N10 1_555 1_555
H37 C49 1_555 1_555
C50 C47 1_555 1_555
N11 C50 1_555 1_555
C51 N11 1_555 1_555
C52 C51 1_555 1_555
N12 C50 1_555 1_555
O21 N12 1_555 1_555
O22 N11 1_555 1_555
C53 N10 1_555 1_555
H38 C53 1_555 1_555
H39 C53 1_555 1_555
C54 C53 1_555 1_555
H40 C54 1_555 1_555
H41 C54 1_555 1_555
H42 C54 1_555 1_555
C55 C52 1_555 1_555
H43 C55 1_555 1_555
H44 C55 1_555 1_555
H45 C55 1_555 1_555
C56 C52 1_555 1_555
H46 C56 1_555 1_555
H47 C56 1_555 1_555
H48 C56 1_555 1_555
C57 C51 1_555 1_555
H49 C57 1_555 1_555
H50 C57 1_555 1_555
H51 C57 1_555 1_555
C58 C51 1_555 1_555
H52 C58 1_555 1_555
H53 C58 1_555 1_555
H54 C58 1_555 1_555
S2 O23 1_555 1_555
C59 S2 1_555 1_555
C61 S2 1_555 1_555
Mn2B O15 1_555 1_555
O23B S2B 1_555 1_555
S2B C59B 1_555 1_555
C61B S2B 1_555 1_555
O23B_2 S2B_2 1_555 1_555
S2B_2 C59B_2 1_555 1_555
C61B_2 S2B_2 1_555 1_555
O9_2 Mn2 1_555 1_555
O10_2 Mn2 1_555 1_555
O15B Mn2 1_555 1_555
O16B Mn2 1_555 1_555
Mn2_2 O9 1_555 1_555
O23_2 S2_2 1_555 1_555
S2_2 C59_2 1_555 1_555
C61_2 S2_2 1_555 1_555
C3 C4 1_555 1_555
O4 Mn1 1_555 1_555
O6 Mn2 1_555 1_555
C5 C10 1_555 1_555
C9 C10 1_555 1_555
C13 C14 1_555 1_555
O10 Mn2_2 1_555 1_555
O11 Mn1 1_555 1_555
O12 Mn1 1_555 1_555
C15 C20 1_555 1_555
C19 C20 1_555 1_555
C23 C24 1_555 1_555
O16 Mn2B 1_555 1_555
O17 Mn1 1_555 1_555
O18 Mn1 1_555 1_555
C25 C30 1_555 1_555
C29 C30 1_555 1_555
C34 C35 1_555 1_555
C38 N9 1_555 1_555
C48 C49 1_555 1_555
C52 N12 1_555 1_555

#END
