
#######################################################################
#
#                 Cambridge Crystallographic Data Centre
#                                CCDC 
#
#######################################################################
#
# If this CIF has been generated from an entry in the Cambridge 
# Structural Database, then it will include bibliographic, chemical, 
# crystal, experimental, refinement or atomic coordinate data resulting 
# from the CCDC's data processing and validation procedures.
#
#######################################################################

data_HOCHEM
_symmetry_cell_setting           monoclinic
_symmetry_space_group_name_H-M   'C c'
_symmetry_Int_Tables_number      9
_space_group_name_Hall           'C -2yc'
loop_
_symmetry_equiv_pos_site_id
_symmetry_equiv_pos_as_xyz
1 x,y,z
2 x,-y,1/2+z
3 1/2+x,1/2+y,z
4 1/2+x,1/2-y,1/2+z
_cell_length_a                   24.646(3)
_cell_length_b                   24.854(3)
_cell_length_c                   18.181(2)
_cell_angle_alpha                90
_cell_angle_beta                 131.506(2)
_cell_angle_gamma                90
_cell_volume                     8340.2
loop_
_atom_site_label
_atom_site_type_symbol
_atom_site_fract_x
_atom_site_fract_y
_atom_site_fract_z
Cu1 Cu 0.2338(3) 0.2681(2) 0.7697(3)
O1 O 0.1720(14) 0.2759(12) 0.6218(19)
O2 O 0.2070(14) 0.3326(9) 0.8080(17)
N1 N 0.2494(17) 0.1997(12) 0.7535(25)
N2 N 0.2836(17) 0.2391(14) 0.9007(23)
C1 C 0.1839(25) 0.2364(21) 0.5939(40)
C2 C 0.2250(23) 0.1904(18) 0.6632(34)
C3 C 0.2350(20) 0.3270(16) 0.8987(33)
C4 C 0.2740(21) 0.2760(16) 0.9526(32)
O3 O 0.2347(15) 0.3602(11) 0.9460(19)
O4 O 0.3032(13) 0.2674(9) 1.0393(16)
O5 O 0.1593(12) 0.2262(8) 0.5105(16)
O6 O 0.2329(13) 0.1408(10) 0.6337(16)
C5 C 0.2913(22) 0.1639(18) 0.8252(30)
C6 C 0.3278(20) 0.1166(15) 0.8527(28)
H1 H 0.3224(20) 0.1000(15) 0.8023(28)
C7 C 0.3685(24) 0.0896(19) 0.9340(34)
H2 H 0.3873(24) 0.0559(19) 0.9394(34)
C8 C 0.3833(23) 0.1180(18) 1.0214(33)
H3 H 0.4124(23) 0.1016(18) 1.0827(33)
C9 C 0.3539(24) 0.1666(20) 1.0082(39)
H4 H 0.3648(24) 0.1854(20) 1.0608(39)
C10 C 0.3065(22) 0.1882(18) 0.9128(33)
Cu2 Cu 0.2544(2) 0.2237(2) 1.3010(3)
O7 O 0.3371(13) 0.2466(12) 1.3163(20)
O8 O 0.2996(12) 0.1848(9) 1.4227(14)
N3 N 0.1981(15) 0.2666(10) 1.1860(19)
N4 N 0.1639(14) 0.2110(10) 1.2640(20)
C11 C 0.3063(21) 0.2770(15) 1.2342(28)
C12 C 0.2287(24) 0.2849(16) 1.1585(34)
C13 C 0.2461(21) 0.1752(14) 1.4262(29)
C14 C 0.1725(20) 0.1857(13) 1.3386(25)
O9 O 0.2653(12) 0.1561(9) 1.5090(14)
O10 O 0.1231(12) 0.1741(9) 1.3393(14)
O11 O 0.3517(14) 0.2975(11) 1.2329(16)
O12 O 0.2048(13) 0.3158(12) 1.0799(18)
C15 C 0.1250(20) 0.2641(14) 1.1344(26)
C16 C 0.0667(18) 0.2909(13) 1.0481(25)
H5 H 0.0775(18) 0.3121(13) 1.0170(25)
C17 C -0.0047(24) 0.2887(16) 1.0055(33)
H6 H -0.0399(24) 0.3082(16) 0.9488(33)
C18 C -0.0223(25) 0.2588(15) 1.0462(31)
H7 H -0.0690(25) 0.2603(15) 1.0234(31)
C19 C 0.0279(24) 0.2255(17) 1.1221(31)
H8 H 0.0115(24) 0.1976(17) 1.1372(31)
C20 C 0.1038(19) 0.2308(13) 1.1796(26)
Cu3 Cu 0.4709(3) 0.4953(2) 1.3144(3)
O13 O 0.3736(14) 0.4754(11) 1.2444(17)
O14 O 0.4902(12) 0.5659(8) 1.3775(15)
N5 N 0.4685(13) 0.4350(10) 1.2517(17)
N6 N 0.5663(14) 0.5042(11) 1.3700(19)
C21 C 0.3446(23) 0.4314(16) 1.1879(28)
C22 C 0.4035(18) 0.4098(14) 1.1925(24)
C23 C 0.5524(22) 0.5820(17) 1.4111(27)
C24 C 0.6032(20) 0.5473(14) 1.4108(24)
O15 O 0.5709(14) 0.6279(10) 1.4441(18)
O16 O 0.6595(11) 0.5653(8) 1.4451(13)
O17 O 0.2904(12) 0.4104(10) 1.1391(17)
O18 O 0.3921(12) 0.3659(8) 1.1439(15)
C25 C 0.5357(19) 0.4216(14) 1.2785(25)
C26 C 0.5520(23) 0.3759(16) 1.2441(31)
H9 H 0.5175(23) 0.3513(16) 1.1970(31)
C27 C 0.6253(18) 0.3738(13) 1.2904(23)
H10 H 0.6392(18) 0.3443(13) 1.2748(23)
C28 C 0.6797(23) 0.4098(15) 1.3565(28)
H11 H 0.7262(23) 0.4054(15) 1.3794(28)
C29 C 0.6642(19) 0.4506(14) 1.3863(25)
H12 H 0.7022(19) 0.4731(14) 1.4339(25)
C30 C 0.5925(18) 0.4635(13) 1.3511(24)
Co1 Co 0.2930(3) 0.3371(2) 1.0926(3)
Co2 Co 0.1702(3) 0.1466(2) 0.4817(3)
Co2B Co 0.6702(3) 0.6466(2) 1.4817(3)
O9_2 O 0.2653(12) 0.1561(9) 0.5090(14)
O10_2 O 0.1231(12) 0.1741(9) 0.3393(14)
O15B O 0.0709(14) 0.1279(10) 0.4441(18)
O16B O 0.1595(11) 0.0653(8) 0.4451(13)
Co2_2 Co 0.1702(3) 0.1466(2) 1.4817(3)
N7 N 0.0674(17) 0.7633(12) 0.3741(22)
C31 C 0.0143(22) 0.7851(15) 0.3644(27)
H13 H -0.0323(22) 0.7708(15) 0.3205(27)
C32 C 0.0295(18) 0.8306(12) 0.4222(23)
H14 H -0.0078(18) 0.8481(12) 0.4131(23)
C33 C 0.0976(19) 0.8483(13) 0.4897(25)
C34 C 0.1506(18) 0.8211(13) 0.4974(24)
H15 H 0.1990(18) 0.8305(13) 0.5475(24)
C35 C 0.1348(21) 0.7830(15) 0.4367(27)
H16 H 0.1701(21) 0.7695(15) 0.4369(27)
C36 C 0.1140(22) 0.8897(15) 0.5598(28)
N8 N 0.0711(18) 0.9290(12) 0.5421(23)
C37 C 0.1086(26) 0.9615(19) 0.6460(35)
C38 C 0.1896(27) 0.9548(18) 0.6955(37)
N9 N 0.1832(19) 0.8977(13) 0.6445(25)
O19 O 0.2362(15) 0.8654(12) 0.6925(16)
O20 O 0.0066(13) 0.9400(10) 0.4690(17)
C39 C 0.0444(25) 0.7187(17) 0.3039(33)
H17 H 0.0821(25) 0.6916(17) 0.3371(33)
H18 H 0.0011(25) 0.7022(17) 0.2851(33)
C40 C 0.0307(27) 0.7343(19) 0.2218(36)
H19 H 0.0165(27) 0.7036(19) 0.1804(36)
H20 H 0.0735(27) 0.7501(19) 0.2394(36)
H21 H -0.0078(27) 0.7603(19) 0.1871(36)
C41 C 0.2245(23) 0.9896(16) 0.6670(33)
H22 H 0.2740(23) 0.9789(16) 0.7047(33)
H23 H 0.2229(23) 1.0268(16) 0.6801(33)
H24 H 0.1985(23) 0.9851(16) 0.5983(33)
C42 C 0.2422(23) 0.9511(16) 0.8099(30)
H25 H 0.2909(23) 0.9460(16) 0.8363(30)
H26 H 0.2286(23) 0.9212(16) 0.8281(30)
H27 H 0.2395(23) 0.9837(16) 0.8356(30)
C43 C 0.0869(24) 1.0221(16) 0.6167(33)
H28 H 0.0374(24) 1.0270(16) 0.5869(33)
H29 H 0.0923(24) 1.0322(16) 0.5709(33)
H30 H 0.1177(24) 1.0442(16) 0.6743(33)
C44 C 0.0756(24) 0.9332(18) 0.6841(33)
H31 H 0.0255(24) 0.9432(18) 0.6439(33)
H32 H 0.1015(24) 0.9439(18) 0.7507(33)
H33 H 0.0791(24) 0.8949(18) 0.6812(33)
N10 N 0.4373(19) 0.7665(14) 0.2714(26)
C45 C 0.4775(23) 0.7161(15) 0.2903(32)
H34 H 0.5243(23) 0.7107(15) 0.3496(32)
C46 C 0.4450(18) 0.6796(14) 0.2209(25)
H35 H 0.4700(18) 0.6482(14) 0.2322(25)
C47 C 0.3782(19) 0.6855(13) 0.1355(25)
C48 C 0.3375(21) 0.7349(15) 0.1167(28)
H36 H 0.2897(21) 0.7401(15) 0.0592(28)
C49 C 0.3712(22) 0.7686(17) 0.1821(31)
H37 H 0.3469(22) 0.8010(17) 0.1673(31)
C50 C 0.3488(24) 0.6469(17) 0.0546(35)
N11 N 0.2886(21) 0.6494(18) -0.0449(31)
C51 C 0.2916(32) 0.6009(23) -0.0925(44)
C52 C 0.3250(29) 0.5624(23) -0.0159(41)
N12 N 0.3724(20) 0.5914(16) 0.0764(29)
O21 O 0.4230(24) 0.5694(13) 0.1552(27)
O22 O 0.2674(19) 0.6942(13) -0.0789(23)
C53 C 0.4699(31) 0.8006(23) 0.3569(39)
H38 H 0.4360(31) 0.8298(23) 0.3349(39)
H39 H 0.5124(31) 0.8166(23) 0.3728(39)
C54 C 0.4951(30) 0.7796(21) 0.4610(37)
H40 H 0.5146(30) 0.8092(21) 0.5060(37)
H41 H 0.5315(30) 0.7522(21) 0.4883(37)
H42 H 0.4540(30) 0.7650(21) 0.4497(37)
C55 C 0.2638(30) 0.5401(21) -0.0162(42)
H43 H 0.2394(30) 0.5698(21) -0.0152(42)
H44 H 0.2859(30) 0.5181(21) 0.0408(42)
H45 H 0.2295(30) 0.5191(21) -0.0744(42)
C56 C 0.3494(27) 0.5185(19) -0.0167(37)
H46 H 0.3679(27) 0.4982(19) 0.0406(37)
H47 H 0.3876(27) 0.5251(19) -0.0171(37)
H48 H 0.3113(27) 0.4986(19) -0.0745(37)
C57 C 0.3460(27) 0.6067(20) -0.1140(40)
H49 H 0.3948(27) 0.6117(20) -0.0530(40)
H50 H 0.3319(27) 0.6372(20) -0.1558(40)
H51 H 0.3435(27) 0.5747(20) -0.1457(40)
C58 C 0.2200(33) 0.5941(25) -0.1603(48)
H52 H 0.1993(33) 0.6210(25) -0.2103(48)
H53 H 0.1997(33) 0.5972(25) -0.1301(48)
H54 H 0.2095(33) 0.5590(25) -0.1891(48)
S1 S 0.3704(11) 0.3549(8) 0.8256(15)
O23 O 0.3255(15) 0.3022(12) 0.7939(21)
C59 C 0.4081(34) 0.3648(25) 0.9568(44)
H55 H 0.4470(34) 0.3398(25) 1.0000(44)
H56 H 0.3704(34) 0.3585(25) 0.9583(44)
H57 H 0.4259(34) 0.4009(25) 0.9780(44)
C60 C 0.3108(28) 0.3936(20) 0.7581(38)
H58 H 0.2918(28) 0.3879(20) 0.6925(38)
H59 H 0.3289(28) 0.4297(20) 0.7784(38)
H60 H 0.2730(28) 0.3882(20) 0.7597(38)
O25 O -0.1044(37) 0.3516(26) -0.2462(50)
O23B O 0.8255(15) 0.8022(12) 0.7939(21)
S1B S 0.8704(11) 0.8549(8) 0.8256(15)
C59B C 0.9081(34) 0.8648(25) 0.9568(44)
H55B H 0.9470(34) 0.8398(25) 1.0000(44)
H56B H 0.8704(34) 0.8585(25) 0.9583(44)
H57B H 0.9259(34) 0.9009(25) 0.9780(44)
C60B C 0.8108(28) 0.8936(20) 0.7581(38)
H58B H 0.7918(28) 0.8879(20) 0.6925(38)
H59B H 0.8289(28) 0.9297(20) 0.7784(38)
H60B H 0.7730(28) 0.8882(20) 0.7597(38)
O23B_2 O 0.8255(15) 0.8022(12) 1.7939(21)
S1B_2 S 0.8704(11) 0.8549(8) 1.8256(15)
C59B_2 C 0.9081(34) 0.8648(25) 1.9568(44)
H55B_2 H 0.9470(34) 0.8398(25) 2.0000(44)
H56B_2 H 0.8704(34) 0.8585(25) 1.9583(44)
H57B_2 H 0.9259(34) 0.9009(25) 1.9780(44)
C60B_2 C 0.8108(28) 0.8936(20) 1.7581(38)
H58B_2 H 0.7918(28) 0.8879(20) 1.6925(38)
H59B_2 H 0.8289(28) 0.9297(20) 1.7784(38)
H60B_2 H 0.7730(28) 0.8882(20) 1.7597(38)
O23_2 O 0.3255(15) 0.3022(12) 1.7939(21)
S1_2 S 0.3704(11) 0.3549(8) 1.8256(15)
C59_2 C 0.4081(34) 0.3648(25) 1.9568(44)
H55_2 H 0.4470(34) 0.3398(25) 2.0000(44)
H56_2 H 0.3704(34) 0.3585(25) 1.9583(44)
H57_2 H 0.4259(34) 0.4009(25) 1.9780(44)
C60_2 C 0.3108(28) 0.3936(20) 1.7581(38)
H58_2 H 0.2918(28) 0.3879(20) 1.6925(38)
H59_2 H 0.3289(28) 0.4297(20) 1.7784(38)
H60_2 H 0.2730(28) 0.3882(20) 1.7597(38)
S2? S 0.4290(45) 0.9270(31) 0.1625(60)
O24? O 0.3547(58) 0.9576(43) 0.1016(76)
S3? S 0.1329(59) 0.4460(42) 0.0114(86)
loop_
_geom_bond_atom_site_label_1
_geom_bond_atom_site_label_2
_geom_bond_site_symmetry_1
_geom_bond_site_symmetry_2
Cu1 O1 1_555 1_555
O1 C1 1_555 1_555
O2 Cu1 1_555 1_555
N1 Cu1 1_555 1_555
N2 Cu1 1_555 1_555
C1 C2 1_555 1_555
C2 N1 1_555 1_555
C3 O2 1_555 1_555
C4 N2 1_555 1_555
O3 C3 1_555 1_555
O4 C4 1_555 1_555
O5 C1 1_555 1_555
O6 C2 1_555 1_555
C5 N1 1_555 1_555
C6 C5 1_555 1_555
H1 C6 1_555 1_555
C7 C6 1_555 1_555
H2 C7 1_555 1_555
C8 C7 1_555 1_555
H3 C8 1_555 1_555
C9 C8 1_555 1_555
H4 C9 1_555 1_555
C10 N2 1_555 1_555
Cu2 O7 1_555 1_555
O7 C11 1_555 1_555
O8 Cu2 1_555 1_555
N3 Cu2 1_555 1_555
N4 Cu2 1_555 1_555
C11 C12 1_555 1_555
C12 N3 1_555 1_555
C13 O8 1_555 1_555
C14 N4 1_555 1_555
O9 C13 1_555 1_555
O10 C14 1_555 1_555
O11 C11 1_555 1_555
O12 C12 1_555 1_555
C15 N3 1_555 1_555
C16 C15 1_555 1_555
H5 C16 1_555 1_555
C17 C16 1_555 1_555
H6 C17 1_555 1_555
C18 C17 1_555 1_555
H7 C18 1_555 1_555
C19 C18 1_555 1_555
H8 C19 1_555 1_555
C20 N4 1_555 1_555
Cu3 O13 1_555 1_555
O13 C21 1_555 1_555
O14 Cu3 1_555 1_555
N5 Cu3 1_555 1_555
N6 Cu3 1_555 1_555
C21 C22 1_555 1_555
C22 N5 1_555 1_555
C23 O14 1_555 1_555
C24 N6 1_555 1_555
O15 C23 1_555 1_555
O16 C24 1_555 1_555
O17 C21 1_555 1_555
O18 C22 1_555 1_555
C25 N5 1_555 1_555
C26 C25 1_555 1_555
H9 C26 1_555 1_555
C27 C26 1_555 1_555
H10 C27 1_555 1_555
C28 C27 1_555 1_555
H11 C28 1_555 1_555
C29 C28 1_555 1_555
H12 C29 1_555 1_555
C30 N6 1_555 1_555
Co1 O3 1_555 1_555
Co2 O5 1_555 1_555
N7 C31 1_555 1_555
C31 H13 1_555 1_555
C32 C31 1_555 1_555
H14 C32 1_555 1_555
C33 C32 1_555 1_555
C34 C33 1_555 1_555
H15 C34 1_555 1_555
C35 N7 1_555 1_555
H16 C35 1_555 1_555
C36 C33 1_555 1_555
N8 C36 1_555 1_555
C37 N8 1_555 1_555
C38 C37 1_555 1_555
N9 C36 1_555 1_555
O19 N9 1_555 1_555
O20 N8 1_555 1_555
C39 N7 1_555 1_555
H17 C39 1_555 1_555
H18 C39 1_555 1_555
C40 C39 1_555 1_555
H19 C40 1_555 1_555
H20 C40 1_555 1_555
H21 C40 1_555 1_555
C41 C38 1_555 1_555
H22 C41 1_555 1_555
H23 C41 1_555 1_555
H24 C41 1_555 1_555
C42 C38 1_555 1_555
H25 C42 1_555 1_555
H26 C42 1_555 1_555
H27 C42 1_555 1_555
C43 C37 1_555 1_555
H28 C43 1_555 1_555
H29 C43 1_555 1_555
H30 C43 1_555 1_555
C44 C37 1_555 1_555
H31 C44 1_555 1_555
H32 C44 1_555 1_555
H33 C44 1_555 1_555
N10 C45 1_555 1_555
C45 H34 1_555 1_555
C46 C45 1_555 1_555
H35 C46 1_555 1_555
C47 C46 1_555 1_555
C48 C47 1_555 1_555
H36 C48 1_555 1_555
C49 N10 1_555 1_555
H37 C49 1_555 1_555
C50 C47 1_555 1_555
N11 C50 1_555 1_555
C51 N11 1_555 1_555
C52 C51 1_555 1_555
N12 C50 1_555 1_555
O21 N12 1_555 1_555
O22 N11 1_555 1_555
C53 N10 1_555 1_555
H38 C53 1_555 1_555
H39 C53 1_555 1_555
C54 C53 1_555 1_555
H40 C54 1_555 1_555
H41 C54 1_555 1_555
H42 C54 1_555 1_555
C55 C52 1_555 1_555
H43 C55 1_555 1_555
H44 C55 1_555 1_555
H45 C55 1_555 1_555
C56 C52 1_555 1_555
H46 C56 1_555 1_555
H47 C56 1_555 1_555
H48 C56 1_555 1_555
C57 C51 1_555 1_555
H49 C57 1_555 1_555
H50 C57 1_555 1_555
H51 C57 1_555 1_555
C58 C51 1_555 1_555
H52 C58 1_555 1_555
H53 C58 1_555 1_555
H54 C58 1_555 1_555
S1 O23 1_555 1_555
C59 S1 1_555 1_555
H55 C59 1_555 1_555
H56 C59 1_555 1_555
H57 C59 1_555 1_555
C60 S1 1_555 1_555
H58 C60 1_555 1_555
H59 C60 1_555 1_555
H60 C60 1_555 1_555
Co2B O15 1_555 1_555
O23B S1B 1_555 1_555
S1B C59B 1_555 1_555
C59B H55B 1_555 1_555
H56B C59B 1_555 1_555
H57B C59B 1_555 1_555
C60B S1B 1_555 1_555
H58B C60B 1_555 1_555
H59B C60B 1_555 1_555
H60B C60B 1_555 1_555
O23B_2 S1B_2 1_555 1_555
S1B_2 C59B_2 1_555 1_555
C59B_2 H55B_2 1_555 1_555
H56B_2 C59B_2 1_555 1_555
H57B_2 C59B_2 1_555 1_555
C60B_2 S1B_2 1_555 1_555
H58B_2 C60B_2 1_555 1_555
H59B_2 C60B_2 1_555 1_555
H60B_2 C60B_2 1_555 1_555
O9_2 Co2 1_555 1_555
O10_2 Co2 1_555 1_555
O15B Co2 1_555 1_555
O16B Co2 1_555 1_555
Co2_2 O9 1_555 1_555
O23_2 S1_2 1_555 1_555
S1_2 C59_2 1_555 1_555
C59_2 H55_2 1_555 1_555
H56_2 C59_2 1_555 1_555
H57_2 C59_2 1_555 1_555
C60_2 S1_2 1_555 1_555
H58_2 C60_2 1_555 1_555
H59_2 C60_2 1_555 1_555
H60_2 C60_2 1_555 1_555
C3 C4 1_555 1_555
O4 Co1 1_555 1_555
O6 Co2 1_555 1_555
C5 C10 1_555 1_555
C9 C10 1_555 1_555
C13 C14 1_555 1_555
O10 Co2_2 1_555 1_555
O11 Co1 1_555 1_555
O12 Co1 1_555 1_555
C15 C20 1_555 1_555
C19 C20 1_555 1_555
C23 C24 1_555 1_555
O16 Co2B 1_555 1_555
O17 Co1 1_555 1_555
O18 Co1 1_555 1_555
C25 C30 1_555 1_555
C29 C30 1_555 1_555
C34 C35 1_555 1_555
C38 N9 1_555 1_555
C48 C49 1_555 1_555
C52 N12 1_555 1_555

#END
