
#######################################################################
#
#                 Cambridge Crystallographic Data Centre
#                                CCDC 
#
#######################################################################
#
# If this CIF has been generated from an entry in the Cambridge 
# Structural Database, then it will include bibliographic, chemical, 
# crystal, experimental, refinement or atomic coordinate data resulting 
# from the CCDC's data processing and validation procedures.
#
#######################################################################

data_HOCMUI
_symmetry_cell_setting           triclinic
_symmetry_space_group_name_H-M   'P -1'
_symmetry_Int_Tables_number      2
_space_group_name_Hall           '-P 1'
loop_
_symmetry_equiv_pos_site_id
_symmetry_equiv_pos_as_xyz
1 x,y,z
2 -x,-y,-z
_cell_length_a                   11.403(6)
_cell_length_b                   12.906(7)
_cell_length_c                   16.753(9)
_cell_angle_alpha                108.649(4)
_cell_angle_beta                 98.837(4)
_cell_angle_gamma                107.549(4)
_cell_volume                     2140.31
loop_
_atom_site_label
_atom_site_type_symbol
_atom_site_fract_x
_atom_site_fract_y
_atom_site_fract_z
K1 K 0.83530(6) 0.44279(6) 0.55543(5)
S1 S 0.88268(6) 0.14509(6) 0.23512(5)
S2 S 0.65482(6) 0.41682(6) 0.12351(5)
S3 S 0.62598(6) 0.17488(6) 0.49178(5)
S4 S 0.37496(6) 0.41859(6) 0.36414(5)
O1 O 0.9832(3) 0.4879(3) 0.7128(2)
O2 O 0.9542(3) 0.6080(3) 0.4986(2)
O3 O 0.77787(19) 0.34132(18) 0.25865(12)
O4 O 0.60193(19) 0.37387(18) 0.44367(12)
O5 O 0.79347(19) 0.26835(18) 0.38631(12)
O6 O 0.60238(19) 0.41209(19) 0.29670(12)
C1 C 0.4996(2) 0.3931(2) 0.23403(19)
C2 C 0.3653(2) 0.0974(2) 0.42489(18)
C3 C 0.7545(2) 0.2693(2) 0.17524(19)
C4 C 0.4877(2) 0.2857(2) 0.42317(17)
C5 C 0.7414(2) 0.1487(2) 0.35540(19)
C6 C 0.6351(2) -0.1012(2) 0.2951(2)
C7 C 0.6616(2) 0.0922(2) 0.39711(19)
C8 C 0.2499(2) 0.1000(2) 0.38572(18)
C9 C 0.7042(2) 0.1155(2) -0.0035(2)
C10 C 0.6109(2) -0.0300(2) 0.36677(19)
C11 C 0.3722(2) 0.2897(2) 0.38305(18)
C12 C 0.4830(2) 0.1875(2) 0.44278(18)
C13 C 0.2569(2) 0.1976(2) 0.36456(19)
C14 C 0.7911(2) 0.1714(2) 0.1531(2)
C15 C 0.2764(2) 0.3680(2) 0.1910(2)
C16 C 0.3834(2) 0.3854(2) 0.25370(19)
C17 C 0.5050(2) 0.3830(2) 0.14902(19)
C18 C 0.6687(2) 0.2124(2) 0.0182(2)
C19 C 0.7677(2) 0.0776(2) 0.2833(2)
C20 C 0.7657(2) 0.0970(2) 0.0657(2)
C21 C 0.1204(2) 0.0034(2) 0.3678(2)
C22 C 0.6923(2) 0.2882(2) 0.1048(2)
C23 C 0.3967(2) 0.3649(2) 0.0870(2)
C24 C 0.2802(2) 0.3568(2) 0.1057(2)
C25 C 0.1336(3) -0.0909(3) 0.4021(2)
C26 C 0.6743(3) 0.0324(2) -0.0998(2)
C27 C 0.7147(2) -0.0442(2) 0.2541(2)
C28 C 0.0531(3) -0.0575(3) 0.2689(2)
C29 C 0.0348(3) 0.0583(3) 0.4144(2)
C30 C 0.5846(3) -0.2360(2) 0.2660(2)
C31 C 0.4593(5) -0.2826(3) 0.2875(3)
C32 C 0.1638(3) 0.3415(4) 0.0376(2)
C33 C 0.7625(5) -0.0350(4) -0.1114(2)
C34 C 0.6899(4) 0.1021(4) -0.1586(2)
C35 C 0.5360(4) -0.0524(5) -0.1290(3)
C36 C 0.6848(5) -0.2670(4) 0.3141(4)
C37 C 0.5595(5) -0.2976(3) 0.1685(2)
C38 C 0.1543(5) 0.2636(10) -0.0505(3)
C39 C 0.8725(4) 0.6388(3) 0.4493(3)
C40 C 0.9935(4) 0.4202(4) 0.7627(3)
C41 C 0.0420(3) 0.3046(5) 0.0615(3)
C42 C 0.1834(5) 0.4660(7) 0.0362(5)
H1 H 0.3640 0.0321 0.4398
H2 H 0.5576 -0.0659 0.3964
H3 H 0.1801 0.2015 0.3367
H4 H 0.1989 0.3634 0.2065
H5 H 0.6262 0.2277 -0.0276
H6 H 0.7910 0.0311 0.0534
H7 H 0.4024 0.3577 0.0297
H8 H 0.7335 -0.0904 0.2047
H9 H 0.1456 -0.1532 0.3562
H10 H 0.0558 -0.1248 0.4179
H11 H 0.2076 -0.0549 0.4538
H12 H -0.0004 -0.0167 0.2524
H13 H -0.0006 -0.1396 0.2551
H14 H 0.1175 -0.0555 0.2362
H15 H 0.0486 0.0589 0.4738
H16 H -0.0550 0.0113 0.3814
H17 H 0.0561 0.1393 0.4177
H18 H 0.4780 -0.2833 0.3464
H19 H 0.4081 -0.3629 0.2448
H20 H 0.4113 -0.2315 0.2858
H21 H 0.8390 0.0107 -0.1230
H22 H 0.7183 -0.1113 -0.1609
H23 H 0.7877 -0.0479 -0.0579
H24 H 0.6082 0.1080 -0.1799
H25 H 0.7164 0.0614 -0.2086
H26 H 0.7551 0.1814 -0.1252
H27 H 0.5331 -0.1222 -0.1166
H28 H 0.5000 -0.0761 -0.1920
H29 H 0.4858 -0.0141 -0.0965
H30 H 0.7449 -0.2789 0.2793
H31 H 0.6428 -0.3396 0.3224
H32 H 0.7315 -0.2027 0.3713
H33 H 0.4710 -0.3138 0.1390
H34 H 0.5730 -0.3720 0.1558
H35 H 0.6182 -0.2470 0.1472
H36 H 0.1995 0.3077 -0.0817
H37 H 0.0639 0.2212 -0.0836
H38 H 0.1925 0.2070 -0.0444
H39 H 0.8474 0.5854 0.3876
H40 H 0.9155 0.7200 0.4551
H41 H 0.7961 0.6326 0.4704
H42 H 0.9361 0.4253 0.8005
H43 H 1.0818 0.4498 0.7991
H44 H 0.9689 0.3377 0.7232
H45 H 0.0029 0.2183 0.0375
H46 H -0.0167 0.3359 0.0372
H47 H 0.0596 0.3352 0.1255
H48 H 0.1449 0.5068 0.0782
H49 H 0.1426 0.4567 -0.0229
H50 H 0.2752 0.5124 0.0520
H51 H 0.7877 0.2907 0.3411
H52 H 0.6605 0.3899 0.2746
H53 H 0.9053 0.5439 0.4422
H54 H 0.5957 0.3995 0.4134
H55 H 1.053(5) 0.538(4) 0.717(3)
K1A K 0.16470(6) 0.55721(6) 0.44457(5)
K1A_2 K 1.16470(6) 0.55721(6) 0.44457(5)
S4A S 0.62504(6) 0.58141(6) 0.63586(5)
O2A O 1.0458(3) 0.3920(3) 0.5014(2)
H53A H 1.0947 0.4561 0.5578
loop_
_geom_bond_atom_site_label_1
_geom_bond_atom_site_label_2
_geom_bond_site_symmetry_1
_geom_bond_site_symmetry_2
K1 S3 1_555 1_555
S1 C14 1_555 1_555
S2 C17 1_555 1_555
S3 C7 1_555 1_555
S4 C11 1_555 1_555
O1 K1 1_555 1_555
O2 K1 1_555 1_555
O3 C3 1_555 1_555
O4 K1 1_555 1_555
O5 K1 1_555 1_555
O6 C1 1_555 1_555
C1 C16 1_555 1_555
C2 C8 1_555 1_555
C3 C14 1_555 1_555
C4 O4 1_555 1_555
C5 O5 1_555 1_555
C6 C10 1_555 1_555
C7 C5 1_555 1_555
C8 C13 1_555 1_555
C9 C18 1_555 1_555
C10 C7 1_555 1_555
C11 C4 1_555 1_555
C12 S3 1_555 1_555
C13 C11 1_555 1_555
C14 C20 1_555 1_555
C15 C16 1_555 1_555
C16 S4 1_555 1_555
C17 C1 1_555 1_555
C18 C22 1_555 1_555
C19 S1 1_555 1_555
C20 C9 1_555 1_555
C21 C8 1_555 1_555
C22 S2 1_555 1_555
C23 C17 1_555 1_555
C24 C15 1_555 1_555
C25 C21 1_555 1_555
C26 C9 1_555 1_555
C27 C6 1_555 1_555
C28 C21 1_555 1_555
C29 C21 1_555 1_555
C30 C6 1_555 1_555
C31 C30 1_555 1_555
C32 C24 1_555 1_555
C33 C26 1_555 1_555
C34 C26 1_555 1_555
C35 C26 1_555 1_555
C36 C30 1_555 1_555
C37 C30 1_555 1_555
C38 C32 1_555 1_555
C39 O2 1_555 1_555
C40 O1 1_555 1_555
C41 C32 1_555 1_555
C42 C32 1_555 1_555
H1 C2 1_555 1_555
H2 C10 1_555 1_555
H3 C13 1_555 1_555
H4 C15 1_555 1_555
H5 C18 1_555 1_555
H6 C20 1_555 1_555
H7 C23 1_555 1_555
H8 C27 1_555 1_555
H9 C25 1_555 1_555
H10 C25 1_555 1_555
H11 C25 1_555 1_555
H12 C28 1_555 1_555
H13 C28 1_555 1_555
H14 C28 1_555 1_555
H15 C29 1_555 1_555
H16 C29 1_555 1_555
H17 C29 1_555 1_555
H18 C31 1_555 1_555
H19 C31 1_555 1_555
H20 C31 1_555 1_555
H21 C33 1_555 1_555
H22 C33 1_555 1_555
H23 C33 1_555 1_555
H24 C34 1_555 1_555
H25 C34 1_555 1_555
H26 C34 1_555 1_555
H27 C35 1_555 1_555
H28 C35 1_555 1_555
H29 C35 1_555 1_555
H30 C36 1_555 1_555
H31 C36 1_555 1_555
H32 C36 1_555 1_555
H33 C37 1_555 1_555
H34 C37 1_555 1_555
H35 C37 1_555 1_555
H36 C38 1_555 1_555
H37 C38 1_555 1_555
H38 C38 1_555 1_555
H39 C39 1_555 1_555
H40 C39 1_555 1_555
H41 C39 1_555 1_555
H42 C40 1_555 1_555
H43 C40 1_555 1_555
H44 C40 1_555 1_555
H45 C41 1_555 1_555
H46 C41 1_555 1_555
H47 C41 1_555 1_555
H48 C42 1_555 1_555
H49 C42 1_555 1_555
H50 C42 1_555 1_555
H51 O5 1_555 1_555
H52 O6 1_555 1_555
H53 O2 1_555 1_555
H54 O4 1_555 1_555
H55 O1 1_555 1_555
K1A S4 1_555 1_555
K1A_2 O2 1_555 1_555
S4A K1 1_555 1_555
O2A K1 1_555 1_555
H53A O2A 1_555 1_555
C2 C12 1_555 1_555
C3 C22 1_555 1_555
C4 C12 1_555 1_555
C5 C19 1_555 1_555
C19 C27 1_555 1_555
C23 C24 1_555 1_555
K1A_2 O2A 1_555 1_555

#END
