
#######################################################################
#
#                 Cambridge Crystallographic Data Centre
#                                CCDC 
#
#######################################################################
#
# If this CIF has been generated from an entry in the Cambridge 
# Structural Database, then it will include bibliographic, chemical, 
# crystal, experimental, refinement or atomic coordinate data resulting 
# from the CCDC's data processing and validation procedures.
#
#######################################################################

data_HODPUN
_symmetry_cell_setting           monoclinic
_symmetry_space_group_name_H-M   'C 2/c'
_symmetry_Int_Tables_number      15
_space_group_name_Hall           '-C 2yn'
loop_
_symmetry_equiv_pos_site_id
_symmetry_equiv_pos_as_xyz
1 x,y,z
2 -x,y,1/2-z
3 1/2+x,1/2+y,z
4 1/2-x,1/2+y,1/2-z
5 -x,-y,-z
6 x,-y,1/2+z
7 1/2-x,1/2-y,-z
8 1/2+x,1/2-y,1/2+z
_cell_length_a                   19.719(3)
_cell_length_b                   9.0200(12)
_cell_length_c                   16.077(2)
_cell_angle_alpha                90
_cell_angle_beta                 105.865(2)
_cell_angle_gamma                90
_cell_volume                     2750.62
loop_
_atom_site_label
_atom_site_type_symbol
_atom_site_fract_x
_atom_site_fract_y
_atom_site_fract_z
Cu1 Cu 0.2500 0.7500 0.5000
O1 O 0.34689(11) 0.7301(3) 0.49404(17)
O2 O 0.31319(13) 0.4985(3) 0.4969(2)
O3 O 0.0717(3) 0.4778(5) 0.1315(2)
N1 N 0.21563(14) 0.7368(4) 0.37113(19)
N2 N 0.07542(18) 0.3929(4) 0.2622(2)
H1 H 0.0903 0.4095 0.3169
C1 C 0.2402(2) 0.8206(5) 0.3189(3)
H2 H 0.2736 0.8927 0.3427
C2 C 0.2183(3) 0.8052(6) 0.2303(3)
H3 H 0.2361 0.8666 0.1948
C3 C 0.1698(2) 0.6978(5) 0.1955(3)
H4 H 0.1546 0.6849 0.1359
C4 C 0.14376(18) 0.6097(4) 0.2484(2)
C5 C 0.16766(18) 0.6351(4) 0.3359(2)
H5 H 0.1492 0.5777 0.3725
C6 C 0.0933(2) 0.4878(4) 0.2096(3)
C7 C 0.03277(19) 0.2608(5) 0.2339(2)
H6 H 0.0178 0.2603 0.1705
C8 C 0.0768(2) 0.1229(5) 0.2641(3)
H7 H 0.0943 0.1245 0.3267
H8 H 0.1172 0.1233 0.2406
C9 C 0.0345(2) -0.0182(5) 0.2361(3)
H9 H 0.0628 -0.1032 0.2614
H10 H 0.0233 -0.0275 0.1737
C10 C 0.35852(17) 0.5921(4) 0.4959(2)
C11 C 0.43183(16) 0.5446(4) 0.4973(2)
C12 C 0.48283(16) 0.6495(4) 0.4982(2)
H11 H 0.4717 0.7498 0.4974
C13 C 0.44882(16) 0.3944(4) 0.4996(2)
H12 H 0.4146 0.3235 0.4997
O1D O 0.65311(11) 0.2699(3) 0.50596(17)
O2D O 0.68681(13) 0.5015(3) 0.5031(2)
C10D C 0.64148(17) 0.4079(4) 0.5041(2)
C11D C 0.56817(16) 0.4554(4) 0.5027(2)
C12D C 0.51717(16) 0.3505(4) 0.5018(2)
H11D H 0.5283 0.2502 0.5026
C13D C 0.55118(16) 0.6056(4) 0.5004(2)
H12D H 0.5854 0.6765 0.5003
O3A O -0.0717(3) 0.4778(5) 0.3685(2)
N1A N -0.21563(14) 0.7368(4) 0.12887(19)
N2A N -0.07542(18) 0.3929(4) 0.2378(2)
H1A H -0.0903 0.4095 0.1831
C1A C -0.2402(2) 0.8206(5) 0.1811(3)
H2A H -0.2736 0.8927 0.1573
C2A C -0.2183(3) 0.8052(6) 0.2697(3)
H3A H -0.2361 0.8666 0.3052
C3A C -0.1698(2) 0.6978(5) 0.3045(3)
H4A H -0.1546 0.6849 0.3641
C4A C -0.14376(18) 0.6097(4) 0.2516(2)
C5A C -0.16766(18) 0.6351(4) 0.1641(2)
H5A H -0.1492 0.5777 0.1275
C6A C -0.0933(2) 0.4878(4) 0.2904(3)
C7A C -0.03277(19) 0.2608(5) 0.2661(2)
H6A H -0.0178 0.2603 0.3295
C8A C -0.0768(2) 0.1229(5) 0.2359(3)
H7A H -0.0943 0.1245 0.1733
H8A H -0.1172 0.1233 0.2594
C9A C -0.0345(2) -0.0182(5) 0.2639(3)
H9A H -0.0628 -0.1032 0.2386
H10A H -0.0233 -0.0275 0.3263
Cu1A Cu -0.2500 0.7500 0.0000
Cu1B Cu 0.7500 0.2500 0.5000
O1F O 0.15311(11) 0.7699(3) 0.50596(17)
O2F O 0.18681(13) 1.0015(3) 0.5031(2)
N1F N 0.28437(14) 0.7632(4) 0.62887(19)
loop_
_geom_bond_atom_site_label_1
_geom_bond_atom_site_label_2
_geom_bond_site_symmetry_1
_geom_bond_site_symmetry_2
Cu1 O1 1_555 1_555
O1 C10 1_555 1_555
O2 Cu1 1_555 1_555
O3 C6 1_555 1_555
N1 Cu1 1_555 1_555
N2 H1 1_555 1_555
C1 N1 1_555 1_555
H2 C1 1_555 1_555
C2 C1 1_555 1_555
H3 C2 1_555 1_555
C3 C2 1_555 1_555
H4 C3 1_555 1_555
C4 C3 1_555 1_555
C5 N1 1_555 1_555
H5 C5 1_555 1_555
C6 N2 1_555 1_555
C7 N2 1_555 1_555
H6 C7 1_555 1_555
C8 C7 1_555 1_555
H7 C8 1_555 1_555
H8 C8 1_555 1_555
C9 C8 1_555 1_555
H9 C9 1_555 1_555
H10 C9 1_555 1_555
C10 O2 1_555 1_555
C11 C10 1_555 1_555
C12 C11 1_555 1_555
H11 C12 1_555 1_555
C13 C11 1_555 1_555
H12 C13 1_555 1_555
O1D C10D 1_555 1_555
O2D C10D 1_555 1_555
C10D C11D 1_555 1_555
C11D C12D 1_555 1_555
C12D C13 1_555 1_555
H11D C12D 1_555 1_555
C13D C12 1_555 1_555
H12D C13D 1_555 1_555
O3A C6A 1_555 1_555
N1A C1A 1_555 1_555
N2A H1A 1_555 1_555
C1A H2A 1_555 1_555
C2A C1A 1_555 1_555
H3A C2A 1_555 1_555
C3A C2A 1_555 1_555
H4A C3A 1_555 1_555
C4A C3A 1_555 1_555
C5A N1A 1_555 1_555
H5A C5A 1_555 1_555
C6A N2A 1_555 1_555
C7A C7 1_555 1_555
H6A C7A 1_555 1_555
C8A C7A 1_555 1_555
H7A C8A 1_555 1_555
H8A C8A 1_555 1_555
C9A C9 1_555 1_555
H9A C9A 1_555 1_555
H10A C9A 1_555 1_555
Cu1A N1A 1_555 1_555
Cu1B O1D 1_555 1_555
O1F Cu1 1_555 1_555
O2F Cu1 1_555 1_555
N1F Cu1 1_555 1_555
C4 C5 1_555 1_555
C4 C6 1_555 1_555
O2D Cu1B 1_555 1_555
C11D C13D 1_555 1_555
N2A C7A 1_555 1_555
C4A C5A 1_555 1_555
C4A C6A 1_555 1_555
C8A C9A 1_555 1_555

#END
