
#######################################################################
#
#                 Cambridge Crystallographic Data Centre
#                                CCDC 
#
#######################################################################
#
# If this CIF has been generated from an entry in the Cambridge 
# Structural Database, then it will include bibliographic, chemical, 
# crystal, experimental, refinement or atomic coordinate data resulting 
# from the CCDC's data processing and validation procedures.
#
#######################################################################

data_HODQIC
_symmetry_cell_setting           monoclinic
_symmetry_space_group_name_H-M   'C 2/c'
_symmetry_Int_Tables_number      15
_space_group_name_Hall           '-C 2yn'
loop_
_symmetry_equiv_pos_site_id
_symmetry_equiv_pos_as_xyz
1 x,y,z
2 -x,y,1/2-z
3 1/2+x,1/2+y,z
4 1/2-x,1/2+y,1/2-z
5 -x,-y,-z
6 x,-y,1/2+z
7 1/2-x,1/2-y,-z
8 1/2+x,1/2-y,1/2+z
_cell_length_a                   15.746(4)
_cell_length_b                   10.962(3)
_cell_length_c                   22.411(5)
_cell_angle_alpha                90
_cell_angle_beta                 109.335(4)
_cell_angle_gamma                90
_cell_volume                     3650.13
loop_
_atom_site_label
_atom_site_type_symbol
_atom_site_fract_x
_atom_site_fract_y
_atom_site_fract_z
Zn1 Zn -0.157791(16) -0.09543(2) -0.153468(12)
Cl1 Cl 0.17217(4) 0.23302(7) -0.07496(3)
S1 S 0.01722(3) 0.03445(5) -0.14806(3)
O1 O -0.20043(14) 0.51769(18) -0.25286(10)
O2 O -0.23318(11) 0.33042(16) -0.29007(8)
O3 O 0.09512(11) -0.00021(18) -0.16471(9)
O4 O 0.02371(11) 0.01906(16) -0.08246(7)
N1 N -0.07106(13) -0.02849(18) -0.18978(9)
H1 H -0.0819 -0.0339 -0.2299
N2 N -0.19385(12) 0.03126(17) -0.09773(9)
N3 N -0.10319(12) -0.24216(16) -0.09229(9)
C1 C -0.09119(15) 0.3637(2) -0.21219(10)
C2 C -0.02369(16) 0.4449(2) -0.18079(11)
H2 H -0.0331 0.5283 -0.1873
C3 C 0.05756(16) 0.4029(2) -0.13982(11)
H3 H 0.1030 0.4576 -0.1193
C4 C 0.07054(14) 0.2789(2) -0.12960(10)
C5 C 0.00434(14) 0.1952(2) -0.16152(10)
C6 C -0.07622(14) 0.2396(2) -0.20317(10)
H4 H -0.1208 0.1851 -0.2253
C7 C -0.18083(16) 0.4098(2) -0.25448(11)
C8 C -0.18291(17) 0.0080(2) -0.03727(11)
H5 H -0.1597 -0.0675 -0.0208
C9 C -0.20436(17) 0.0908(2) 0.00224(12)
H6 H -0.1953 0.0704 0.0442
C10 C -0.23931(14) 0.2039(2) -0.02067(11)
C11 C -0.2523(2) 0.2269(2) -0.08448(12)
H7 H -0.2769 0.3008 -0.1024
C12 C -0.22895(19) 0.1406(2) -0.12073(12)
H8 H -0.2377 0.1583 -0.1629
C13 C -0.13792(16) -0.3536(2) -0.10623(11)
H9 H -0.1897 -0.3634 -0.1411
C14 C -0.10005(17) -0.4552(2) -0.07099(12)
H10 H -0.1270 -0.5311 -0.0823
C15 C -0.02240(14) -0.44564(19) -0.01888(10)
C16 C 0.01069(17) -0.3285(2) -0.00332(13)
H11 H 0.0610 -0.3159 0.0323
C17 C -0.03045(17) -0.2304(2) -0.04031(13)
H12 H -0.0067 -0.1529 -0.0287
N2F N -0.30615(12) 0.46874(17) 0.09773(9)
C8F C -0.31709(17) 0.4920(2) 0.03727(11)
H5F H -0.3403 0.5675 0.0208
C9F C -0.29564(17) 0.4092(2) -0.00224(12)
H6F H -0.3047 0.4296 -0.0442
C10F C -0.26069(14) 0.2961(2) 0.02067(11)
C11F C -0.2477(2) 0.2731(2) 0.08448(12)
H7F H -0.2231 0.1992 0.1024
C12F C -0.27105(19) 0.3594(2) 0.12073(12)
H8F H -0.2623 0.3417 0.1629
N3D N 0.10319(12) -0.75784(16) 0.09229(9)
C13D C 0.13792(16) -0.6464(2) 0.10623(11)
H9D H 0.1897 -0.6366 0.1411
C14D C 0.10005(17) -0.5448(2) 0.07099(12)
H10D H 0.1270 -0.4689 0.0823
C15D C 0.02240(14) -0.55436(19) 0.01888(10)
C16D C -0.01069(17) -0.6715(2) 0.00332(13)
H11D H -0.0610 -0.6841 -0.0323
C17D C 0.03045(17) -0.7696(2) 0.04031(13)
H12D H 0.0067 -0.8471 0.0287
Zn1D Zn 0.157791(16) -0.90457(2) 0.153468(12)
Cl1D Cl -0.17217(4) -1.23302(7) 0.07496(3)
S1D S -0.01722(3) -1.03445(5) 0.14806(3)
O1D O 0.20043(14) -1.51769(18) 0.25286(10)
O2D O 0.23318(11) -1.33042(16) 0.29007(8)
O3D O -0.09512(11) -0.99979(18) 0.16471(9)
O4D O -0.02371(11) -1.01906(16) 0.08246(7)
N1D N 0.07106(13) -0.97151(18) 0.18978(9)
H1D H 0.0819 -0.9661 0.2299
C1D C 0.09119(15) -1.3637(2) 0.21219(10)
C2D C 0.02369(16) -1.4449(2) 0.18079(11)
H2D H 0.0331 -1.5283 0.1873
C3D C -0.05756(16) -1.4029(2) 0.13982(11)
H3D H -0.1030 -1.4576 0.1193
C4D C -0.07054(14) -1.2789(2) 0.12960(10)
C5D C -0.00434(14) -1.1952(2) 0.16152(10)
C6D C 0.07622(14) -1.2396(2) 0.20317(10)
H4D H 0.1208 -1.1851 0.2253
C7D C 0.18083(16) -1.4098(2) 0.25448(11)
Zn1C Zn -0.342209(16) 0.40457(2) -0.346532(12)
Zn1F Zn -0.342209(16) 0.59543(2) 0.153468(12)
Zn1G Zn 0.342209(16) -1.40457(2) 0.346532(12)
O2C O -0.26682(11) -0.16958(16) -0.20993(8)
O2G O 0.26682(11) -0.83042(16) 0.20993(8)
N2D N 0.19385(12) -1.03126(17) 0.09773(9)
O5 O -0.4356(9) 0.2120(11) -0.2125(10)
O6? O -0.3783(17) 0.240(2) -0.2526(16)
loop_
_geom_bond_atom_site_label_1
_geom_bond_atom_site_label_2
_geom_bond_site_symmetry_1
_geom_bond_site_symmetry_2
Zn1 N1 1_555 1_555
Cl1 C4 1_555 1_555
S1 O3 1_555 1_555
O1 C7 1_555 1_555
O2 C7 1_555 1_555
O4 S1 1_555 1_555
N1 S1 1_555 1_555
H1 N1 1_555 1_555
N2 Zn1 1_555 1_555
N3 Zn1 1_555 1_555
C1 C2 1_555 1_555
C2 H2 1_555 1_555
C3 C2 1_555 1_555
H3 C3 1_555 1_555
C4 C3 1_555 1_555
C5 S1 1_555 1_555
C6 C1 1_555 1_555
H4 C6 1_555 1_555
C7 C1 1_555 1_555
C8 N2 1_555 1_555
H5 C8 1_555 1_555
C9 C8 1_555 1_555
H6 C9 1_555 1_555
C10 C9 1_555 1_555
C11 C10 1_555 1_555
H7 C11 1_555 1_555
C12 N2 1_555 1_555
H8 C12 1_555 1_555
C13 N3 1_555 1_555
H9 C13 1_555 1_555
C14 C13 1_555 1_555
H10 C14 1_555 1_555
C15 C14 1_555 1_555
C16 C15 1_555 1_555
H11 C16 1_555 1_555
C17 N3 1_555 1_555
H12 C17 1_555 1_555
N2F C8F 1_555 1_555
C8F H5F 1_555 1_555
C9F C8F 1_555 1_555
H6F C9F 1_555 1_555
C10F C10 1_555 1_555
C11F C10F 1_555 1_555
H7F C11F 1_555 1_555
C12F N2F 1_555 1_555
H8F C12F 1_555 1_555
N3D C13D 1_555 1_555
C13D H9D 1_555 1_555
C14D C13D 1_555 1_555
H10D C14D 1_555 1_555
C15D C15 1_555 1_555
C16D C15D 1_555 1_555
H11D C16D 1_555 1_555
C17D N3D 1_555 1_555
H12D C17D 1_555 1_555
Zn1D N3D 1_555 1_555
Cl1D C4D 1_555 1_555
S1D O3D 1_555 1_555
O1D C7D 1_555 1_555
O2D C7D 1_555 1_555
O4D S1D 1_555 1_555
N1D Zn1D 1_555 1_555
H1D N1D 1_555 1_555
C1D C2D 1_555 1_555
C2D H2D 1_555 1_555
C3D C2D 1_555 1_555
H3D C3D 1_555 1_555
C4D C3D 1_555 1_555
C5D S1D 1_555 1_555
C6D C1D 1_555 1_555
H4D C6D 1_555 1_555
C7D C1D 1_555 1_555
Zn1C O2 1_555 1_555
Zn1F N2F 1_555 1_555
Zn1G O2D 1_555 1_555
O2C Zn1 1_555 1_555
O2G Zn1D 1_555 1_555
N2D Zn1D 1_555 1_555
C4 C5 1_555 1_555
C5 C6 1_555 1_555
C11 C12 1_555 1_555
C16 C17 1_555 1_555
C9F C10F 1_555 1_555
C11F C12F 1_555 1_555
C14D C15D 1_555 1_555
C16D C17D 1_555 1_555
S1D N1D 1_555 1_555
C4D C5D 1_555 1_555
C5D C6D 1_555 1_555

#END
