
#######################################################################
#
#                 Cambridge Crystallographic Data Centre
#                                CCDC 
#
#######################################################################
#
# If this CIF has been generated from an entry in the Cambridge 
# Structural Database, then it will include bibliographic, chemical, 
# crystal, experimental, refinement or atomic coordinate data resulting 
# from the CCDC's data processing and validation procedures.
#
#######################################################################

data_HODQAU
_symmetry_cell_setting           triclinic
_symmetry_space_group_name_H-M   'P -1'
_symmetry_Int_Tables_number      2
_space_group_name_Hall           '-P 1'
loop_
_symmetry_equiv_pos_site_id
_symmetry_equiv_pos_as_xyz
1 x,y,z
2 -x,-y,-z
_cell_length_a                   9.3074(5)
_cell_length_b                   11.8484(6)
_cell_length_c                   13.2041(6)
_cell_angle_alpha                108.8050(10)
_cell_angle_beta                 97.7350(10)
_cell_angle_gamma                112.4420(10)
_cell_volume                     1217.51
loop_
_atom_site_label
_atom_site_type_symbol
_atom_site_fract_x
_atom_site_fract_y
_atom_site_fract_z
Zn1 Zn 0.63547(2) 0.20816(2) 0.212534(17)
N1 N 0.73992(19) 0.30846(16) 0.38209(13)
O1 O 0.6207(2) 0.30047(16) 0.11849(13)
C1 C 0.7045(2) 0.4049(2) 0.44100(17)
H1 H 0.6286 0.4223 0.4039
O2 O 0.4869(2) 0.37892(18) 0.22476(14)
C2 C 0.7763(3) 0.4787(2) 0.55394(18)
H2 H 0.7508 0.5459 0.5925
N2 N 0.58729(19) -0.05198(16) 0.81365(13)
O3 O 0.73527(17) 0.09465(14) 0.15064(12)
N3 N 1.1191(2) 0.25980(17) 0.56261(14)
H3 H 1.0871 0.2230 0.4906
C3 C 0.8874(3) 0.4515(2) 0.60951(17)
H4 H 0.9363 0.4995 0.6863
C4 C 0.9255(2) 0.35247(19) 0.55026(16)
O4 O 0.9598(2) 0.27997(16) 0.19348(16)
N4 N 1.0744(2) 0.12753(17) 0.71351(14)
H5 H 1.0809 0.2045 0.7511
O5 O 1.0781(2) 0.37360(16) 0.71946(12)
C5 C 0.8503(2) 0.28361(19) 0.43593(16)
H6 H 0.8767 0.2182 0.3951
O6 O 0.94495(17) -0.09416(14) 0.66993(12)
C6 C 1.0474(2) 0.32833(19) 0.61684(16)
C7 C 1.2518(2) 0.2457(2) 0.62328(16)
H7 H 1.3096 0.3245 0.6945
C8 C 1.3714(3) 0.2419(3) 0.5556(2)
H8 H 1.4171 0.3249 0.5459
H9 H 1.3136 0.1693 0.4819
C9 C 1.5092(3) 0.2224(3) 0.6117(2)
H10 H 1.5764 0.2125 0.5626
H11 H 1.5768 0.3009 0.6805
C10 C 1.4441(3) 0.1003(3) 0.6379(2)
H12 H 1.5339 0.0930 0.6771
H13 H 1.3852 0.0205 0.5687
C11 C 1.3311(3) 0.1106(2) 0.71010(19)
H14 H 1.3908 0.1887 0.7803
H15 H 1.2903 0.0321 0.7267
C12 C 1.1887(2) 0.1213(2) 0.64863(16)
H16 H 1.1308 0.0422 0.5776
C13 C 0.9605(2) 0.0199(2) 0.71742(15)
C14 C 0.8448(2) 0.0442(2) 0.78079(16)
C15 C 0.7008(2) -0.06404(19) 0.76414(15)
H17 H 0.6818 -0.1490 0.7165
C16 C 0.7604(3) 0.1817(2) 0.90873(19)
H18 H 0.7792 0.2649 0.9598
C17 C 0.6189(2) 0.0708(2) 0.88585(16)
H19 H 0.5419 0.0803 0.9213
C18 C 0.8746(3) 0.1697(2) 0.85578(18)
H20 H 0.9707 0.2447 0.8700
C19 C 0.5438(3) 0.3698(2) 0.14537(18)
C20 C 0.5223(3) 0.4382(2) 0.07060(17)
C21 C 0.6222(3) 0.4617(2) 0.0031(2)
H21 H 0.7052 0.4364 0.0051
C22 C 0.6002(3) 0.5224(2) -0.0672(2)
H22 H 0.6677 0.5368 -0.1123
C23 C 0.8789(2) 0.1582(2) 0.14537(16)
C24 C 0.9418(2) 0.07486(19) 0.07177(15)
C25 C 0.8470(2) -0.06228(19) 0.01123(16)
H23 H 0.7444 -0.1042 0.0189
C26 C 0.9043(2) -0.13614(19) -0.05994(16)
H24 H 0.8399 -0.2277 -0.1005
O1A O 0.3793(2) 0.69953(16) -0.11849(13)
O2A O 0.5131(2) 0.62108(18) -0.22476(14)
C19A C 0.4562(3) 0.6302(2) -0.14537(18)
C20A C 0.4777(3) 0.5618(2) -0.07060(17)
C21A C 0.3778(3) 0.5383(2) -0.0031(2)
H21A H 0.2948 0.5636 -0.0051
C22A C 0.3998(3) 0.4776(2) 0.0672(2)
H22A H 0.3323 0.4632 0.1123
O3A O 1.26473(17) -0.09465(14) -0.15064(12)
O4A O 1.0402(2) -0.27997(16) -0.19348(16)
C23A C 1.1211(2) -0.1582(2) -0.14537(16)
C24A C 1.0582(2) -0.07486(19) -0.07177(15)
C25A C 1.1530(2) 0.06228(19) -0.01123(16)
H23A H 1.2556 0.1042 -0.0189
C26A C 1.0957(2) 0.13614(19) 0.05994(16)
H24A H 1.1601 0.2277 0.1005
Zn1A Zn 0.36453(2) -0.20816(2) 0.787466(17)
N1A N 0.26008(19) -0.30846(16) 0.61791(13)
C1A C 0.2955(2) -0.4049(2) 0.55900(17)
H1A H 0.3714 -0.4223 0.5961
C2A C 0.2237(3) -0.4787(2) 0.44606(18)
H2A H 0.2492 -0.5459 0.4075
N2A N 0.41271(19) 0.05198(16) 0.18635(13)
N3A N -0.1191(2) -0.25980(17) 0.43739(14)
H3A H -0.0871 -0.2230 0.5094
C3A C 0.1126(3) -0.4515(2) 0.39049(17)
H4A H 0.0637 -0.4995 0.3137
C4A C 0.0745(2) -0.35247(19) 0.44974(16)
N4A N -0.0744(2) -0.12753(17) 0.28649(14)
H5A H -0.0809 -0.2045 0.2489
O5A O -0.0781(2) -0.37360(16) 0.28054(12)
C5A C 0.1497(2) -0.28361(19) 0.56407(16)
H6A H 0.1233 -0.2182 0.6049
O6A O 0.05505(17) 0.09416(14) 0.33007(12)
C6A C -0.0474(2) -0.32833(19) 0.38316(16)
C7A C -0.2518(2) -0.2457(2) 0.37672(16)
H7A H -0.3096 -0.3245 0.3055
C8A C -0.3714(3) -0.2419(3) 0.4444(2)
H8A H -0.4171 -0.3249 0.4541
H9A H -0.3136 -0.1693 0.5181
C9A C -0.5092(3) -0.2224(3) 0.3883(2)
H10A H -0.5764 -0.2125 0.4374
H11A H -0.5768 -0.3009 0.3195
C10A C -0.4441(3) -0.1003(3) 0.3621(2)
H12A H -0.5339 -0.0930 0.3229
H13A H -0.3852 -0.0205 0.4313
C11A C -0.3311(3) -0.1106(2) 0.28990(19)
H14A H -0.3908 -0.1887 0.2197
H15A H -0.2903 -0.0321 0.2733
C12A C -0.1887(2) -0.1213(2) 0.35137(16)
H16A H -0.1308 -0.0422 0.4224
C13A C 0.0395(2) -0.0199(2) 0.28258(15)
C14A C 0.1552(2) -0.0442(2) 0.21921(16)
C15A C 0.2992(2) 0.06404(19) 0.23586(15)
H17A H 0.3182 0.1490 0.2835
C16A C 0.2396(3) -0.1817(2) 0.09127(19)
H18A H 0.2208 -0.2649 0.0402
C17A C 0.3811(2) -0.0708(2) 0.11415(16)
H19A H 0.4581 -0.0803 0.0787
C18A C 0.1254(3) -0.1697(2) 0.14422(18)
H20A H 0.0293 -0.2447 0.1300
Zn1A_2 Zn 0.36453(2) 0.79184(2) -0.212534(17)
Zn1A_3 Zn 1.36453(2) -0.20816(2) -0.212534(17)
O1A_2 O 0.3793(2) -0.30047(16) 0.88151(13)
O3A_2 O 0.26473(17) -0.09465(14) 0.84936(12)
O7 O 0.9495(4) 0.5040(3) 0.8956(2)
H25 H 0.9996 0.4740 0.8534
H26 H 0.9689 0.5716 0.8800
loop_
_geom_bond_atom_site_label_1
_geom_bond_atom_site_label_2
_geom_bond_site_symmetry_1
_geom_bond_site_symmetry_2
Zn1 N1 1_555 1_555
N1 C1 1_555 1_555
O1 Zn1 1_555 1_555
C1 H1 1_555 1_555
O2 C19 1_555 1_555
C2 C1 1_555 1_555
H2 C2 1_555 1_555
N2 C15 1_555 1_555
O3 Zn1 1_555 1_555
N3 H3 1_555 1_555
C3 C2 1_555 1_555
H4 C3 1_555 1_555
C4 C3 1_555 1_555
O4 C23 1_555 1_555
N4 H5 1_555 1_555
O5 C6 1_555 1_555
C5 N1 1_555 1_555
H6 C5 1_555 1_555
O6 C13 1_555 1_555
C6 N3 1_555 1_555
C7 N3 1_555 1_555
H7 C7 1_555 1_555
C8 C7 1_555 1_555
H8 C8 1_555 1_555
H9 C8 1_555 1_555
C9 C8 1_555 1_555
H10 C9 1_555 1_555
H11 C9 1_555 1_555
C10 C9 1_555 1_555
H12 C10 1_555 1_555
H13 C10 1_555 1_555
C11 C10 1_555 1_555
H14 C11 1_555 1_555
H15 C11 1_555 1_555
C12 N4 1_555 1_555
H16 C12 1_555 1_555
C13 N4 1_555 1_555
C14 C13 1_555 1_555
C15 C14 1_555 1_555
H17 C15 1_555 1_555
C16 H18 1_555 1_555
C17 N2 1_555 1_555
H19 C17 1_555 1_555
C18 C14 1_555 1_555
H20 C18 1_555 1_555
C19 O1 1_555 1_555
C20 C19 1_555 1_555
C21 C20 1_555 1_555
H21 C21 1_555 1_555
C22 C21 1_555 1_555
H22 C22 1_555 1_555
C23 O3 1_555 1_555
C24 C23 1_555 1_555
C25 C24 1_555 1_555
H23 C25 1_555 1_555
C26 C25 1_555 1_555
H24 C26 1_555 1_555
O7 H25 1_555 1_555
H26 O7 1_555 1_555
O1A C19A 1_555 1_555
O2A C19A 1_555 1_555
C19A C20A 1_555 1_555
C20A C22 1_555 1_555
C21A C20A 1_555 1_555
H21A C21A 1_555 1_555
C22A C20 1_555 1_555
H22A C22A 1_555 1_555
O3A C23A 1_555 1_555
O4A C23A 1_555 1_555
C23A C24A 1_555 1_555
C24A C26 1_555 1_555
C25A C24A 1_555 1_555
H23A C25A 1_555 1_555
C26A C24 1_555 1_555
H24A C26A 1_555 1_555
Zn1A N2 1_555 1_555
N1A Zn1A 1_555 1_555
C1A N1A 1_555 1_555
H1A C1A 1_555 1_555
C2A C1A 1_555 1_555
H2A C2A 1_555 1_555
N2A Zn1 1_555 1_555
N3A H3A 1_555 1_555
C3A C2A 1_555 1_555
H4A C3A 1_555 1_555
C4A C3A 1_555 1_555
N4A H5A 1_555 1_555
O5A C6A 1_555 1_555
C5A N1A 1_555 1_555
H6A C5A 1_555 1_555
O6A C13A 1_555 1_555
C6A N3A 1_555 1_555
C7A N3A 1_555 1_555
H7A C7A 1_555 1_555
C8A C7A 1_555 1_555
H8A C8A 1_555 1_555
H9A C8A 1_555 1_555
C9A C8A 1_555 1_555
H10A C9A 1_555 1_555
H11A C9A 1_555 1_555
C10A C9A 1_555 1_555
H12A C10A 1_555 1_555
H13A C10A 1_555 1_555
C11A C10A 1_555 1_555
H14A C11A 1_555 1_555
H15A C11A 1_555 1_555
C12A N4A 1_555 1_555
H16A C12A 1_555 1_555
C13A N4A 1_555 1_555
C14A C13A 1_555 1_555
C15A N2A 1_555 1_555
H17A C15A 1_555 1_555
C16A H18A 1_555 1_555
C17A N2A 1_555 1_555
H19A C17A 1_555 1_555
C18A C14A 1_555 1_555
H20A C18A 1_555 1_555
Zn1A_2 O1A 1_555 1_555
Zn1A_3 O3A 1_555 1_555
O1A_2 Zn1A 1_555 1_555
O3A_2 Zn1A 1_555 1_555
C4 C5 1_555 1_555
C4 C6 1_555 1_555
C7 C12 1_555 1_555
C11 C12 1_555 1_555
C16 C17 1_555 1_555
C16 C18 1_555 1_555
C21A C22A 1_555 1_555
C25A C26A 1_555 1_555
C4A C5A 1_555 1_555
C4A C6A 1_555 1_555
C7A C12A 1_555 1_555
C11A C12A 1_555 1_555
C14A C15A 1_555 1_555
C16A C17A 1_555 1_555
C16A C18A 1_555 1_555

#END
