
#######################################################################
#
#                 Cambridge Crystallographic Data Centre
#                                CCDC 
#
#######################################################################
#
# If this CIF has been generated from an entry in the Cambridge 
# Structural Database, then it will include bibliographic, chemical, 
# crystal, experimental, refinement or atomic coordinate data resulting 
# from the CCDC's data processing and validation procedures.
#
#######################################################################

data_HODZAB
_symmetry_cell_setting           monoclinic
_symmetry_space_group_name_H-M   'P 21/n'
_symmetry_Int_Tables_number      14
_space_group_name_Hall           '-P 2yn'
loop_
_symmetry_equiv_pos_site_id
_symmetry_equiv_pos_as_xyz
1 x,y,z
2 1/2-x,1/2+y,1/2-z
3 -x,-y,-z
4 1/2+x,1/2-y,1/2+z
_cell_length_a                   13.093(2)
_cell_length_b                   8.836(1)
_cell_length_c                   14.724(1)
_cell_angle_alpha                90
_cell_angle_beta                 92.913(8)
_cell_angle_gamma                90
_cell_volume                     1701.21
loop_
_atom_site_label
_atom_site_type_symbol
_atom_site_fract_x
_atom_site_fract_y
_atom_site_fract_z
Zn1 Zn 0.18573(2) 0.15310(3) 0.24701(2)
S1 S 0.05153(6) 0.12893(11) 0.34839(5)
O1 O -0.3014(2) -0.1492(3) 0.3742(2)
O2 O 0.2038(2) 0.3787(2) 0.23473(14)
O3 O 0.1861(2) 0.6066(2) 0.17827(14)
N1 N 0.2609(2) 0.1247(3) 0.1189(2)
N2 N 0.0890(2) 0.0086(2) 0.16872(14)
N3 N -0.0011(2) -0.0451(3) 0.1995(2)
N4 N -0.1154(2) -0.0373(3) 0.3107(2)
C1 C 0.3484(3) 0.1892(4) 0.0972(2)
C2 C 0.3973(3) 0.1510(5) 0.0205(3)
C3 C 0.3541(3) 0.0424(5) -0.0363(3)
C4 C 0.2626(3) -0.0248(4) -0.0148(2)
C5 C 0.2170(2) 0.0200(3) 0.0643(2)
C6 C 0.1192(2) -0.0440(3) 0.0930(2)
C7 C 0.0638(2) -0.1610(3) 0.0368(2)
C8 C -0.0230(2) 0.0074(3) 0.2798(2)
C9 C -0.1749(3) -0.1511(5) 0.2590(3)
C10 C -0.2862(3) -0.1391(6) 0.2796(3)
C11 C -0.2468(3) -0.0315(6) 0.4210(3)
C12 C -0.1343(3) -0.0422(6) 0.4074(2)
C13 C 0.1558(2) 0.4728(3) 0.1868(2)
C14 C 0.0557(3) 0.4289(5) 0.1367(4)
H1 H 0.3767(26) 0.2680(41) 0.1438(24)
H2 H 0.4596(32) 0.2076(50) 0.0091(30)
H3 H 0.3877(30) 0.0114(48) -0.0826(31)
H4 H 0.2319(26) -0.1037(42) -0.0541(24)
H5 H -0.0024 -0.1238 0.0193
H6 H 0.1003 -0.1826 -0.0154
H7 H 0.0574 -0.2504 0.0721
H8 H -0.1670(42) -0.1286(59) 0.2008(40)
H9 H -0.1575(33) -0.2513(55) 0.2864(30)
H10 H -0.3144(33) -0.0298(68) 0.2609(35)
H11 H -0.3217(34) -0.2345(59) 0.2503(30)
H12 H -0.2744(36) 0.0738(61) 0.3903(36)
H13 H -0.2552(29) -0.0470(49) 0.4841(31)
H14 H -0.1072(30) 0.0401(50) 0.4352(30)
H15 H -0.1122(30) -0.1463(43) 0.4316(28)
H16 H 0.0200 0.5046 0.0995
H17 H 0.0200 0.3525 0.1575
H18 H 0.1000 0.4048 0.1196
O3A O 0.3139(2) 0.1066(2) 0.32173(14)
Zn1A Zn 0.31427(2) 0.65310(3) 0.25299(2)
loop_
_geom_bond_atom_site_label_1
_geom_bond_atom_site_label_2
_geom_bond_site_symmetry_1
_geom_bond_site_symmetry_2
Zn1 S1 1_555 1_555
S1 C8 1_555 1_555
O1 C10 1_555 1_555
O2 Zn1 1_555 1_555
O3 C13 1_555 1_555
N1 Zn1 1_555 1_555
N2 Zn1 1_555 1_555
N3 N2 1_555 1_555
N4 C8 1_555 1_555
C1 N1 1_555 1_555
C2 C1 1_555 1_555
C3 C2 1_555 1_555
C4 C3 1_555 1_555
C5 N1 1_555 1_555
C6 N2 1_555 1_555
C7 C6 1_555 1_555
C8 N3 1_555 1_555
C9 N4 1_555 1_555
C10 C9 1_555 1_555
C11 O1 1_555 1_555
C12 N4 1_555 1_555
C13 O2 1_555 1_555
C14 C13 1_555 1_555
H1 C1 1_555 1_555
H2 C2 1_555 1_555
H3 C3 1_555 1_555
H4 C4 1_555 1_555
H5 C7 1_555 1_555
H6 C7 1_555 1_555
H7 C7 1_555 1_555
H8 C9 1_555 1_555
H9 C9 1_555 1_555
H10 C10 1_555 1_555
H11 C10 1_555 1_555
H12 C11 1_555 1_555
H13 C11 1_555 1_555
H14 C12 1_555 1_555
H15 C12 1_555 1_555
H16 C14 1_555 1_555
H17 C14 1_555 1_555
H18 C14 1_555 1_555
O3A Zn1 1_555 1_555
Zn1A O3 1_555 1_555
C4 C5 1_555 1_555
C5 C6 1_555 1_555
C11 C12 1_555 1_555

#END
