
#######################################################################
#
#                 Cambridge Crystallographic Data Centre
#                                CCDC 
#
#######################################################################
#
# If this CIF has been generated from an entry in the Cambridge 
# Structural Database, then it will include bibliographic, chemical, 
# crystal, experimental, refinement or atomic coordinate data resulting 
# from the CCDC's data processing and validation procedures.
#
#######################################################################

data_HOFBAH
_symmetry_cell_setting           triclinic
_symmetry_space_group_name_H-M   'P -1'
_symmetry_Int_Tables_number      2
_space_group_name_Hall           '-P 1'
loop_
_symmetry_equiv_pos_site_id
_symmetry_equiv_pos_as_xyz
1 x,y,z
2 -x,-y,-z
_cell_length_a                   11.737(3)
_cell_length_b                   14.064(4)
_cell_length_c                   16.775(4)
_cell_angle_alpha                66.90(2)
_cell_angle_beta                 76.09(3)
_cell_angle_gamma                75.58(3)
_cell_volume                     2434.93
loop_
_atom_site_label
_atom_site_type_symbol
_atom_site_fract_x
_atom_site_fract_y
_atom_site_fract_z
Au1 Au 0.37297(4) 0.51341(3) 0.52425(3)
S1 S 0.3823(3) 0.3513(2) 0.6348(2)
S2 S 0.6520(3) 0.3177(2) 0.5750(2)
C1 C 0.5233(9) 0.2849(9) 0.6368(7)
C2 C 0.5307(10) 0.1774(9) 0.7037(7)
C3 C 0.5147(10) 0.0939(9) 0.6833(8)
C4 C 0.5111(12) -0.0018(9) 0.7469(10)
H1 H 0.4973 -0.0561 0.7340
C5 C 0.5282(12) -0.0201(9) 0.8328(8)
C6 C 0.5477(13) 0.0591(10) 0.8506(9)
H2 H 0.5608 0.0466 0.9066
C7 C 0.5487(12) 0.1604(10) 0.7869(8)
C8 C 0.5022(12) 0.1119(10) 0.5908(9)
H3 H 0.4946 0.0472 0.5874
H4 H 0.5714 0.1365 0.5511
H5 H 0.4325 0.1634 0.5750
C9 C 0.5221(17) -0.1289(11) 0.9018(10)
H6 H 0.5739 -0.1431 0.9431
H7 H 0.5468 -0.1803 0.8739
H8 H 0.4418 -0.1320 0.9321
C10 C 0.5701(15) 0.2442(10) 0.8121(9)
H9 H 0.6393 0.2717 0.7748
H10 H 0.5828 0.2154 0.8721
H11 H 0.5021 0.2996 0.8056
Au2 Au 0.10952(4) 0.52113(4) 0.50767(3)
S3 S 0.1586(3) 0.5948(3) 0.3578(2)
S4 S -0.0718(3) 0.5441(3) 0.3420(2)
C11 C 0.0582(10) 0.5877(9) 0.3039(7)
C12 C 0.0944(10) 0.6248(9) 0.2081(7)
C13 C 0.0798(11) 0.7332(11) 0.1621(8)
C14 C 0.1168(13) 0.7670(12) 0.0703(9)
H12 H 0.1098 0.8386 0.0384
C15 C 0.1629(13) 0.6978(12) 0.0265(8)
C16 C 0.1744(11) 0.5928(13) 0.0737(8)
H13 H 0.2048 0.5461 0.0439
C17 C 0.1424(10) 0.5522(10) 0.1657(8)
C18 C 0.0324(16) 0.8157(12) 0.2041(10)
H14 H -0.0297 0.7926 0.2525
H15 H 0.0010 0.8803 0.1616
H16 H 0.0957 0.8265 0.2249
C19 C 0.1973(16) 0.7364(15) -0.0722(9)
H17 H 0.1907 0.8113 -0.0944
H18 H 0.1452 0.7173 -0.0974
H19 H 0.2780 0.7050 -0.0875
C20 C 0.1639(13) 0.4364(10) 0.2139(9)
H20 H 0.2229 0.4190 0.2507
H21 H 0.1917 0.4008 0.1726
H22 H 0.0910 0.4150 0.2496
Au1A Au 0.62703(4) 0.48659(3) 0.47575(3)
S2A S 0.3480(3) 0.6823(2) 0.4250(2)
Au2A Au -0.10952(4) 0.47887(4) 0.49233(3)
S4A S 0.0718(3) 0.4559(3) 0.6580(2)
Au3 Au 0.39469(5) 0.19643(4) 0.36385(4)
Au4 Au 0.31565(4) 0.35457(4) 0.43925(3)
S5 S 0.1712(3) 0.2638(3) 0.5402(2)
S6 S 0.2642(3) 0.0929(3) 0.4602(3)
S7 S 0.5333(4) 0.2805(3) 0.2569(3)
S8 S 0.4566(3) 0.4492(3) 0.3397(2)
C21 C 0.1745(10) 0.1505(10) 0.5283(8)
C22 C 0.0859(11) 0.0865(9) 0.5902(8)
C23 C -0.0275(11) 0.1024(10) 0.5682(8)
C24 C -0.1091(11) 0.0395(11) 0.6240(9)
H23 H -0.1841 0.0496 0.6098
C25 C -0.0780(12) -0.0404(11) 0.7030(9)
C26 C 0.0318(12) -0.0540(11) 0.7225(9)
H24 H 0.0529 -0.1074 0.7737
C27 C 0.1118(11) 0.0082(11) 0.6693(9)
C28 C -0.0597(12) 0.1832(11) 0.4824(9)
H25 H -0.0102 0.1638 0.4347
H26 H -0.0476 0.2505 0.4772
H27 H -0.1418 0.1867 0.4806
C29 C -0.1653(15) -0.1149(15) 0.7594(11)
H28 H -0.1222 -0.1807 0.7927
H29 H -0.2073 -0.1261 0.7222
H30 H -0.2212 -0.0846 0.7988
C30 C 0.2346(14) -0.0088(14) 0.6979(11)
H31 H 0.2357 -0.0615 0.7554
H32 H 0.2464 0.0558 0.6988
H33 H 0.2971 -0.0313 0.6570
C31 C 0.5369(10) 0.3954(9) 0.2663(8)
C32 C 0.6231(10) 0.4563(9) 0.1983(7)
C33 C 0.5871(10) 0.5310(9) 0.1204(8)
C34 C 0.6733(12) 0.5845(10) 0.0586(8)
H34 H 0.6518 0.6312 0.0050
C35 C 0.7889(11) 0.5730(10) 0.0712(9)
C36 C 0.8199(11) 0.4986(11) 0.1486(9)
H35 H 0.8982 0.4866 0.1575
C37 C 0.7404(10) 0.4398(10) 0.2150(8)
C38 C 0.4628(12) 0.5492(11) 0.1030(9)
H36 H 0.4078 0.5754 0.1453
H37 H 0.4443 0.4843 0.1075
H38 H 0.4565 0.5996 0.0450
C39 C 0.8786(13) 0.6338(13) 0.0011(10)
H39 H 0.9507 0.6205 0.0240
H40 H 0.8465 0.7075 -0.0166
H41 H 0.8954 0.6120 -0.0487
C40 C 0.7842(13) 0.3600(11) 0.2954(9)
H42 H 0.8693 0.3521 0.2876
H43 H 0.7625 0.2941 0.3062
H44 H 0.7491 0.3823 0.3445
C41 C 0.2177(19) 0.1264(18) 0.9271(16)
S9 S 0.2384(6) 0.2149(7) 0.8458(5)
S10 S 0.1846(10) 0.0453(7) 1.0211(7)
loop_
_geom_bond_atom_site_label_1
_geom_bond_atom_site_label_2
_geom_bond_site_symmetry_1
_geom_bond_site_symmetry_2
Au1 S1 1_555 1_555
S1 C1 1_555 1_555
S2 C1 1_555 1_555
C1 C2 1_555 1_555
C2 C3 1_555 1_555
C3 C4 1_555 1_555
C4 H1 1_555 1_555
C5 C4 1_555 1_555
C6 C5 1_555 1_555
H2 C6 1_555 1_555
C7 C2 1_555 1_555
C8 C3 1_555 1_555
H3 C8 1_555 1_555
H4 C8 1_555 1_555
H5 C8 1_555 1_555
C9 C5 1_555 1_555
H6 C9 1_555 1_555
H7 C9 1_555 1_555
H8 C9 1_555 1_555
C10 C7 1_555 1_555
H9 C10 1_555 1_555
H10 C10 1_555 1_555
H11 C10 1_555 1_555
Au2 Au1 1_555 1_555
S3 Au2 1_555 1_555
S4 C11 1_555 1_555
C11 S3 1_555 1_555
C12 C11 1_555 1_555
C13 C12 1_555 1_555
C14 C13 1_555 1_555
H12 C14 1_555 1_555
C15 C14 1_555 1_555
C16 C15 1_555 1_555
H13 C16 1_555 1_555
C17 C12 1_555 1_555
C18 C13 1_555 1_555
H14 C18 1_555 1_555
H15 C18 1_555 1_555
H16 C18 1_555 1_555
C19 C15 1_555 1_555
H17 C19 1_555 1_555
H18 C19 1_555 1_555
H19 C19 1_555 1_555
C20 C17 1_555 1_555
H20 C20 1_555 1_555
H21 C20 1_555 1_555
H22 C20 1_555 1_555
Au3 Au4 1_555 1_555
Au4 S5 1_555 1_555
S5 C21 1_555 1_555
S6 Au3 1_555 1_555
S7 Au3 1_555 1_555
S8 Au4 1_555 1_555
C21 S6 1_555 1_555
C22 C21 1_555 1_555
C23 C22 1_555 1_555
C24 C23 1_555 1_555
H23 C24 1_555 1_555
C25 C24 1_555 1_555
C26 C25 1_555 1_555
H24 C26 1_555 1_555
C27 C22 1_555 1_555
C28 C23 1_555 1_555
H25 C28 1_555 1_555
H26 C28 1_555 1_555
H27 C28 1_555 1_555
C29 C25 1_555 1_555
H28 C29 1_555 1_555
H29 C29 1_555 1_555
H30 C29 1_555 1_555
C30 C27 1_555 1_555
H31 C30 1_555 1_555
H32 C30 1_555 1_555
H33 C30 1_555 1_555
C31 S7 1_555 1_555
C32 C31 1_555 1_555
C33 C32 1_555 1_555
C34 C33 1_555 1_555
H34 C34 1_555 1_555
C35 C34 1_555 1_555
C36 C35 1_555 1_555
H35 C36 1_555 1_555
C37 C32 1_555 1_555
C38 C33 1_555 1_555
H36 C38 1_555 1_555
H37 C38 1_555 1_555
H38 C38 1_555 1_555
C39 C35 1_555 1_555
H39 C39 1_555 1_555
H40 C39 1_555 1_555
H41 C39 1_555 1_555
C40 C37 1_555 1_555
H42 C40 1_555 1_555
H43 C40 1_555 1_555
H44 C40 1_555 1_555
C41 S9 1_555 1_555
S10 C41 1_555 1_555
Au1A Au1 1_555 1_555
S2A Au1 1_555 1_555
Au2A Au2 1_555 1_555
S4A Au2 1_555 1_555
S2 Au1A 1_555 1_555
C6 C7 1_555 1_555
S4 Au2A 1_555 1_555
C16 C17 1_555 1_555
S8 C31 1_555 1_555
C26 C27 1_555 1_555
C36 C37 1_555 1_555

#END
