
#######################################################################
#
#                 Cambridge Crystallographic Data Centre
#                                CCDC 
#
#######################################################################
#
# If this CIF has been generated from an entry in the Cambridge 
# Structural Database, then it will include bibliographic, chemical, 
# crystal, experimental, refinement or atomic coordinate data resulting 
# from the CCDC's data processing and validation procedures.
#
#######################################################################

data_HOFXOP
_symmetry_cell_setting           rhombohedral
_symmetry_space_group_name_H-M   'R -3'
_symmetry_Int_Tables_number      148
_space_group_name_Hall           '-R 3'
loop_
_symmetry_equiv_pos_site_id
_symmetry_equiv_pos_as_xyz
1 x,y,z
2 -y,x-y,z
3 -x+y,-x,z
4 2/3+x,1/3+y,1/3+z
5 2/3-y,1/3+x-y,1/3+z
6 2/3-x+y,1/3-x,1/3+z
7 1/3+x,2/3+y,2/3+z
8 2/3+y,1/3-x+y,1/3-z
9 2/3+x-y,1/3+x,1/3-z
10 -x,-y,-z
11 y,-x+y,-z
12 x-y,x,-z
13 1/3-x,2/3-y,2/3-z
14 1/3+y,2/3-x+y,2/3-z
15 1/3+x-y,2/3+x,2/3-z
16 2/3-x,1/3-y,1/3-z
17 1/3-y,2/3+x-y,2/3+z
18 1/3-x+y,2/3-x,2/3+z
_cell_length_a                   15.234(4)
_cell_length_b                   15.234(4)
_cell_length_c                   19.425(11)
_cell_angle_alpha                90
_cell_angle_beta                 90
_cell_angle_gamma                120.00
_cell_volume                     3904.09
loop_
_atom_site_label
_atom_site_type_symbol
_atom_site_fract_x
_atom_site_fract_y
_atom_site_fract_z
Ag1 Ag 0.6666 0.3334 0.25782(3)
O1 O 0.5837(2) 0.16768(16) 0.26480(13)
N1 N 0.5346(2) 0.0161(2) 0.34258(18)
C1 C 0.5469(2) 0.1080(2) 0.2129(2)
C2 C 0.4987(2) 0.0195(3) 0.4639(2)
H1 H 0.4632 -0.0922 0.5370
H2 H 0.5706 0.0017 0.5469
C3 C 0.5508(2) 0.1406(3) 0.1459(2)
H3 H 0.5851 0.2122 0.1373
C4 C 0.4934(3) -0.0383(3) 0.2897(2)
H4 H 0.5402 0.1106 0.7052
C5 C 0.4531(3) -0.0654(3) 0.1685(3)
H5 H 0.4192 -0.1375 0.1754
C6 C 0.4959(3) 0.0007(3) 0.2240(2)
C7 C 0.5351(3) -0.0234(3) 0.4108(2)
H6 H 0.5035 0.0961 0.5887
H7 H 0.3958 0.0028 0.5781
C8 C 0.5089(3) 0.0756(4) 0.0933(2)
H8 H 0.5109 0.0999 0.0474
C9 C 0.4601(3) -0.0295(4) 0.1051(2)
H9 H 0.5685 0.0750 0.9332
H10 H 0.4294 -0.1274 0.6837
Ag1L Ag 0.6667 0.3333 0.40885(3)
C2I C 0.5013(2) -0.0195(3) 0.5361(2)
C7I C 0.4649(3) 0.0234(3) 0.5892(2)
N1I N 0.4654(2) -0.0161(2) 0.65742(18)
C4I C 0.5066(3) 0.0383(3) 0.7103(2)
C6I C 0.5041(3) -0.0007(3) 0.7760(2)
C1I C 0.4531(2) -0.1080(2) 0.7871(2)
O1I O 0.4163(2) -0.16768(16) 0.73520(13)
Ag1I Ag 0.3334 -0.3334 0.74218(3)
C3I C 0.4492(2) -0.1406(3) 0.8541(2)
H3I H 0.4149 -0.2122 0.8627
C8I C 0.4911(3) -0.0756(4) 0.9067(2)
H8I H 0.4891 -0.0999 0.9526
C9I C 0.5399(3) 0.0295(4) 0.8949(2)
C5I C 0.5469(3) 0.0654(3) 0.8315(3)
H5I H 0.5808 0.1375 0.8246
H1I H 0.5368 0.0922 0.4630
H2I H 0.4294 -0.0017 0.4531
H6I H 0.4965 -0.0961 0.4113
H7I H 0.6042 -0.0028 0.4219
H4I H 0.4598 -0.1106 0.2948
H9I H 0.4315 -0.0750 0.0668
H10I H 0.5706 0.1274 0.3163
O1A O 0.83232(16) 0.41602(26) 0.26480(13)
C1A C 0.8920(2) 0.4389(3) 0.2129(2)
C3A C 0.8594(3) 0.4102(4) 0.1459(2)
H3A H 0.7878 0.3729 0.1373
C8A C 0.9244(4) 0.4333(5) 0.0933(2)
H8A H 0.9001 0.4110 0.0474
C9A C 1.0295(4) 0.4896(5) 0.1051(2)
C5A C 1.0654(3) 0.5185(4) 0.1685(3)
H5A H 1.1375 0.5567 0.1754
C6A C 0.9993(3) 0.4952(4) 0.2240(2)
C4A C 1.0383(3) 0.5317(4) 0.2897(2)
N1A N 0.9839(2) 0.5185(3) 0.34258(18)
C7A C 1.0234(3) 0.5585(4) 0.4108(2)
C2A C 0.9805(3) 0.4792(4) 0.4639(2)
H6J H 1.0961 0.5926 0.4113
H7J H 1.0028 0.6070 0.4219
H4J H 1.1106 0.5704 0.2948
H9J H 1.0750 0.5065 0.0668
H10J H 0.8726 0.4432 0.3163
O1B O 0.58398(26) 0.4163(2) 0.26480(13)
C1B C 0.5611(3) 0.4531(2) 0.2129(2)
C3B C 0.5898(4) 0.4492(2) 0.1459(2)
H3B H 0.6271 0.4149 0.1373
C8B C 0.5667(5) 0.4911(3) 0.0933(2)
H8B H 0.5890 0.4891 0.0474
C9B C 0.5104(5) 0.5399(3) 0.1051(2)
C5B C 0.4815(4) 0.5469(3) 0.1685(3)
H5B H 0.4433 0.5808 0.1754
C6B C 0.5048(4) 0.5041(3) 0.2240(2)
C4B C 0.4683(4) 0.5066(3) 0.2897(2)
N1B N 0.4815(3) 0.4654(2) 0.34258(18)
C7B C 0.4415(4) 0.4649(3) 0.4108(2)
C2B C 0.5208(4) 0.5013(2) 0.4639(2)
H6K H 0.4074 0.5035 0.4113
H7K H 0.3930 0.3958 0.4219
H4K H 0.4296 0.5402 0.2948
H9K H 0.4935 0.5685 0.0668
H10K H 0.5568 0.4294 0.3163
C2J C 1.0195(3) 0.5208(4) 0.5361(2)
H1J H 0.9078 0.4446 0.4630
H2J H 1.0017 0.4311 0.4531
C2K C 0.4792(4) 0.4987(2) 0.5361(2)
H1K H 0.5554 0.4632 0.4630
H2K H 0.5689 0.5706 0.4531
H1A H 1.0922 0.5554 0.5370
H2A H 0.9983 0.5689 0.5469
C7J C 0.9766(3) 0.4415(4) 0.5892(2)
H1B H 0.4446 0.5368 0.5370
H2B H 0.4311 0.4294 0.5469
C7K C 0.5585(4) 0.5351(3) 0.5892(2)
N1J N 1.0161(2) 0.4815(3) 0.65742(18)
H6A H 0.9039 0.4074 0.5887
H7A H 0.9972 0.3930 0.5781
N1K N 0.5185(3) 0.5346(2) 0.65742(18)
H6B H 0.5926 0.4965 0.5887
H7B H 0.6070 0.6042 0.5781
C4J C 0.9617(3) 0.4683(4) 0.7103(2)
C4K C 0.5317(4) 0.4934(3) 0.7103(2)
H4A H 0.8894 0.4296 0.7052
C6J C 1.0007(3) 0.5048(4) 0.7760(2)
H4B H 0.5704 0.4598 0.7052
C6K C 0.4952(4) 0.4959(3) 0.7760(2)
C1J C 1.1080(2) 0.5611(3) 0.7871(2)
C5J C 0.9346(3) 0.4815(4) 0.8315(3)
C1K C 0.4389(3) 0.5469(2) 0.7871(2)
C5K C 0.5185(4) 0.4531(3) 0.8315(3)
O1J O 1.16768(16) 0.58398(26) 0.73520(13)
C3J C 1.1406(3) 0.5898(4) 0.8541(2)
H5J H 0.8625 0.4433 0.8246
C9J C 0.9705(4) 0.5104(5) 0.8949(2)
O1K O 0.41602(26) 0.5837(2) 0.73520(13)
C3K C 0.4102(4) 0.5508(2) 0.8541(2)
H5K H 0.5567 0.4192 0.8246
C9K C 0.4896(5) 0.4601(3) 0.8949(2)
Ag1I_2 Ag 1.3334 0.6666 0.74218(3)
H10A H 1.1274 0.5568 0.6837
H3J H 1.2122 0.6271 0.8627
C8J C 1.0756(4) 0.5667(5) 0.9067(2)
H9A H 0.9250 0.4935 0.9332
Ag1I_3 Ag 0.3334 0.6666 0.74218(3)
H10B H 0.4432 0.5706 0.6837
H3K H 0.3729 0.5851 0.8627
C8K C 0.4333(5) 0.5089(3) 0.9067(2)
H9B H 0.5065 0.4315 0.9332
H8J H 1.0999 0.5890 0.9526
Ag1C Ag 0.3333 0.6667 0.59115(3)
O1I_2 O 0.4163(2) 0.83232(16) 0.73520(13)
O1J_2 O 0.16768(16) 0.58398(26) 0.73520(13)
H8K H 0.4110 0.5109 0.9526
H10_2 H 0.4294 0.8726 0.6837
H10A_2 H 0.1274 0.5568 0.6837
N2 N 0.3333 0.6667 0.0254(3)
O2 O 0.2478(4) 0.6277(6) 0.0469(5)
O2A O 0.3723(6) 0.6201(7) 0.0469(5)
O2B O 0.3799(7) 0.7522(4) 0.0469(5)
O3? O 0.2560(5) 0.6298(8) -0.0045(5)
loop_
_geom_bond_atom_site_label_1
_geom_bond_atom_site_label_2
_geom_bond_site_symmetry_1
_geom_bond_site_symmetry_2
Ag1 O1 1_555 1_555
O1 C1 1_555 1_555
N1 C4 1_555 1_555
C1 C3 1_555 1_555
C2 C7 1_555 1_555
H1 C2I 1_555 1_555
H2 C2I 1_555 1_555
C3 H3 1_555 1_555
C4 C6 1_555 1_555
H4 C4I 1_555 1_555
C5 H5 1_555 1_555
C6 C1 1_555 1_555
C7 N1 1_555 1_555
H6 C7I 1_555 1_555
H7 C7I 1_555 1_555
C8 C3 1_555 1_555
H8 C8 1_555 1_555
C9 C5 1_555 1_555
H9 C9I 1_555 1_555
N2 O2 1_555 1_555
H10 O1I 1_555 1_555
Ag1L Ag1 1_555 1_555
C2I C2 1_555 1_555
C7I C2I 1_555 1_555
N1I C7I 1_555 1_555
C4I N1I 1_555 1_555
C6I C4I 1_555 1_555
C1I C6I 1_555 1_555
O1I C1I 1_555 1_555
Ag1I O1I 1_555 1_555
C3I C1I 1_555 1_555
H3I C3I 1_555 1_555
C8I C3I 1_555 1_555
H8I C8I 1_555 1_555
C9I C8I 1_555 1_555
C5I C6I 1_555 1_555
H5I C5I 1_555 1_555
H1I C2 1_555 1_555
H2I C2 1_555 1_555
H6I C7 1_555 1_555
H7I C7 1_555 1_555
H4I C4 1_555 1_555
H9I C9 1_555 1_555
H10I O1 1_555 1_555
O1A Ag1 1_555 1_555
C1A O1A 1_555 1_555
C3A C1A 1_555 1_555
H3A C3A 1_555 1_555
C8A C3A 1_555 1_555
H8A C8A 1_555 1_555
C9A C8A 1_555 1_555
C5A C9A 1_555 1_555
H5A C5A 1_555 1_555
C6A C1A 1_555 1_555
C4A C6A 1_555 1_555
N1A C4A 1_555 1_555
C7A N1A 1_555 1_555
C2A C7A 1_555 1_555
H6J C7A 1_555 1_555
H7J C7A 1_555 1_555
H4J C4A 1_555 1_555
H9J C9A 1_555 1_555
H10J O1A 1_555 1_555
O1B Ag1 1_555 1_555
C1B O1B 1_555 1_555
C3B C1B 1_555 1_555
H3B C3B 1_555 1_555
C8B C3B 1_555 1_555
H8B C8B 1_555 1_555
C9B C8B 1_555 1_555
C5B C9B 1_555 1_555
H5B C5B 1_555 1_555
C6B C1B 1_555 1_555
C4B C6B 1_555 1_555
N1B C4B 1_555 1_555
C7B N1B 1_555 1_555
C2B C7B 1_555 1_555
H6K C7B 1_555 1_555
H7K C7B 1_555 1_555
H4K C4B 1_555 1_555
H9K C9B 1_555 1_555
H10K O1B 1_555 1_555
O2A N2 1_555 1_555
O2B N2 1_555 1_555
C2J C2A 1_555 1_555
H1J C2A 1_555 1_555
H2J C2A 1_555 1_555
C2K C2B 1_555 1_555
H1K C2B 1_555 1_555
H2K C2B 1_555 1_555
H1A C2J 1_555 1_555
H2A C2J 1_555 1_555
C7J C2J 1_555 1_555
H1B C2K 1_555 1_555
H2B C2K 1_555 1_555
C7K C2K 1_555 1_555
N1J C7J 1_555 1_555
H6A C7J 1_555 1_555
H7A C7J 1_555 1_555
N1K C7K 1_555 1_555
H6B C7K 1_555 1_555
H7B C7K 1_555 1_555
C4J N1J 1_555 1_555
C4K N1K 1_555 1_555
H4A C4J 1_555 1_555
C6J C4J 1_555 1_555
H4B C4K 1_555 1_555
C6K C4K 1_555 1_555
C1J C6J 1_555 1_555
C5J C6J 1_555 1_555
C1K C6K 1_555 1_555
C5K C6K 1_555 1_555
O1J C1J 1_555 1_555
C3J C1J 1_555 1_555
H5J C5J 1_555 1_555
C9J C5J 1_555 1_555
O1K C1K 1_555 1_555
C3K C1K 1_555 1_555
H5K C5K 1_555 1_555
C9K C5K 1_555 1_555
Ag1I_2 O1J 1_555 1_555
H10A O1J 1_555 1_555
H3J C3J 1_555 1_555
C8J C3J 1_555 1_555
H9A C9J 1_555 1_555
Ag1I_3 O1K 1_555 1_555
H10B O1K 1_555 1_555
H3K C3K 1_555 1_555
C8K C3K 1_555 1_555
H9B C9K 1_555 1_555
H8J C8J 1_555 1_555
Ag1C Ag1I_3 1_555 1_555
O1I_2 Ag1I_3 1_555 1_555
O1J_2 Ag1I_3 1_555 1_555
H8K C8K 1_555 1_555
H10_2 O1I_2 1_555 1_555
H10A_2 O1J_2 1_555 1_555
C5 C6 1_555 1_555
C8 C9 1_555 1_555
C9I C5I 1_555 1_555
C5A C6A 1_555 1_555
C5B C6B 1_555 1_555
C9J C8J 1_555 1_555
C9K C8K 1_555 1_555

#END
