
#######################################################################
#
#                 Cambridge Crystallographic Data Centre
#                                CCDC 
#
#######################################################################
#
# If this CIF has been generated from an entry in the Cambridge 
# Structural Database, then it will include bibliographic, chemical, 
# crystal, experimental, refinement or atomic coordinate data resulting 
# from the CCDC's data processing and validation procedures.
#
#######################################################################

data_HOGDEN
_symmetry_cell_setting           orthorhombic
_symmetry_space_group_name_H-M   'P b c n'
_symmetry_Int_Tables_number      60
_space_group_name_Hall           '-P 2n 2ab'
loop_
_symmetry_equiv_pos_site_id
_symmetry_equiv_pos_as_xyz
1 x,y,z
2 1/2-x,1/2-y,1/2+z
3 -x,y,1/2-z
4 1/2+x,1/2-y,-z
5 -x,-y,-z
6 1/2+x,1/2+y,1/2-z
7 x,-y,1/2+z
8 1/2-x,1/2+y,z
_cell_length_a                   12.341(4)
_cell_length_b                   15.192(5)
_cell_length_c                   15.167(5)
_cell_angle_alpha                90
_cell_angle_beta                 90
_cell_angle_gamma                90
_cell_volume                     2843.58
loop_
_atom_site_label
_atom_site_type_symbol
_atom_site_fract_x
_atom_site_fract_y
_atom_site_fract_z
Ni1 Ni 0.82078(4) 0.29682(3) 1.07600(3)
O1 O 0.9637(2) 0.20843(17) 1.06919(18)
O2 O 0.7966(2) 0.16363(18) 1.08688(19)
O3 O 0.8224(2) 0.31925(18) 0.92717(18)
O4 O 0.8710(2) 0.41500(17) 1.02764(17)
N1 N 0.8407(3) -0.1780(2) 1.0903(2)
N2 N 0.8525(3) 0.6774(2) 0.7061(2)
N3 N 1.0120(3) -0.2060(2) 1.1308(2)
N4 N 0.8671(3) 0.7081(2) 0.8491(2)
C1 C 0.8970(3) 0.1467(3) 1.0832(2)
C2 C 0.9349(3) 0.0548(2) 1.0981(2)
C3 C 1.0423(3) 0.0366(3) 1.1231(3)
H1 H 1.0908 0.0830 1.1293
C4 C 1.0777(3) -0.0479(3) 1.1388(3)
H2 H 1.1481 -0.0595 1.1573
C5 C 1.0027(3) -0.1151(2) 1.1254(2)
C6 C 0.9138(3) -0.2381(3) 1.1084(3)
H3 H 0.8991 -0.2981 1.1060
C7 C 0.8958(3) -0.0979(2) 1.1002(2)
C8 C 0.8611(3) -0.0128(3) 1.0868(3)
H4 H 0.7899 -0.0011 1.0705
C9 C 0.8519(3) 0.3959(3) 0.9484(3)
C10 C 0.8610(3) 0.4672(3) 0.8799(3)
C11 C 0.8702(3) 0.5528(3) 0.9073(2)
H5 H 0.8781 0.5669 0.9666
C12 C 0.8672(3) 0.6179(3) 0.8430(3)
C13 C 0.8577(4) 0.7390(3) 0.7659(3)
H6 H 0.8552 0.7987 0.7524
C14 C 0.8575(3) 0.5982(3) 0.7537(3)
C15 C 0.8537(3) 0.5112(3) 0.7262(3)
H7 H 0.8513 0.4968 0.6666
C16 C 0.8537(3) 0.4471(3) 0.7897(3)
H8 H 0.8486 0.3885 0.7726
Ni1G Ni 0.67922(4) -0.20318(3) 1.07600(3)
Ni1F Ni 0.82078(4) 0.70318(3) 0.57600(3)
N1G N 0.6593(3) 0.3220(2) 1.0903(2)
N2F N 0.8525(3) 0.3226(2) 1.2061(2)
loop_
_geom_bond_atom_site_label_1
_geom_bond_atom_site_label_2
_geom_bond_site_symmetry_1
_geom_bond_site_symmetry_2
Ni1 O1 1_555 1_555
O1 C1 1_555 1_555
O2 Ni1 1_555 1_555
O3 Ni1 1_555 1_555
O4 Ni1 1_555 1_555
N1 C6 1_555 1_555
N2 C13 1_555 1_555
N3 C5 1_555 1_555
N4 C12 1_555 1_555
C1 O2 1_555 1_555
C2 C1 1_555 1_555
C3 C2 1_555 1_555
H1 C3 1_555 1_555
C4 C3 1_555 1_555
H2 C4 1_555 1_555
C5 C4 1_555 1_555
C6 N3 1_555 1_555
H3 C6 1_555 1_555
C7 N1 1_555 1_555
C8 C2 1_555 1_555
H4 C8 1_555 1_555
C9 O3 1_555 1_555
C10 C9 1_555 1_555
C11 C10 1_555 1_555
H5 C11 1_555 1_555
C12 C11 1_555 1_555
C13 N4 1_555 1_555
H6 C13 1_555 1_555
C14 N2 1_555 1_555
C15 C14 1_555 1_555
H7 C15 1_555 1_555
C16 C10 1_555 1_555
H8 C16 1_555 1_555
Ni1G N1 1_555 1_555
Ni1F N2 1_555 1_555
N1G Ni1 1_555 1_555
N2F Ni1 1_555 1_555
O4 C9 1_555 1_555
C5 C7 1_555 1_555
C7 C8 1_555 1_555
C12 C14 1_555 1_555
C15 C16 1_555 1_555

#END
