
#######################################################################
#
#                 Cambridge Crystallographic Data Centre
#                                CCDC 
#
#######################################################################
#
# If this CIF has been generated from an entry in the Cambridge 
# Structural Database, then it will include bibliographic, chemical, 
# crystal, experimental, refinement or atomic coordinate data resulting 
# from the CCDC's data processing and validation procedures.
#
#######################################################################

data_HOGTEE
_symmetry_cell_setting           monoclinic
_symmetry_space_group_name_H-M   'P 2/c'
_symmetry_Int_Tables_number      13
_space_group_name_Hall           '-P 2yc'
loop_
_symmetry_equiv_pos_site_id
_symmetry_equiv_pos_as_xyz
1 x,y,z
2 -x,y,1/2-z
3 -x,-y,-z
4 x,-y,1/2+z
_cell_length_a                   30.934(3)
_cell_length_b                   15.0277(13)
_cell_length_c                   17.1118(18)
_cell_angle_alpha                90
_cell_angle_beta                 98.8370(10)
_cell_angle_gamma                90
_cell_volume                     7860.28
loop_
_atom_site_label
_atom_site_type_symbol
_atom_site_fract_x
_atom_site_fract_y
_atom_site_fract_z
Cu1 Cu 1.05454(2) 0.26443(4) 0.47837(3)
Cu2 Cu 0.45409(2) 0.25685(5) 0.51466(3)
Cu3 Cu 0.75606(2) 0.17584(4) 0.51482(3)
N1 N 1.03967(17) 0.3752(3) 0.5354(2)
N2 N 1.00229(16) 0.3782(3) 0.5672(2)
H1 H 0.9825 0.3375 0.5605
N3 N 1.10939(14) 0.2544(3) 0.5583(2)
N4 N 1.14947(14) 0.2609(3) 0.5369(2)
H2 H 1.1541 0.2648 0.4888
N5 N 1.05856(13) 0.1361(3) 0.4403(2)
N6 N 1.05803(13) 0.1255(3) 0.3610(2)
H3 H 1.0569 0.1691 0.3283
N7 N 0.46664(18) 0.3731(3) 0.4656(2)
N8 N 0.50403(17) 0.3836(3) 0.4346(3)
H4 H 0.5254 0.3463 0.4417
N9 N 0.40342(14) 0.2434(3) 0.4268(2)
N10 N 0.36170(15) 0.2428(3) 0.4404(2)
H5 H 0.3543 0.2407 0.4868
N11 N 0.44951(14) 0.1276(3) 0.5482(3)
N12 N 0.44985(14) 0.1154(4) 0.6272(3)
H6 H 0.4541 0.1577 0.6613
N13 N 0.71587(14) 0.0897(3) 0.4410(2)
N14 N 0.71394(13) 0.0936(3) 0.3606(2)
H7 H 0.7251 0.1360 0.3366
N15 N 0.79245(14) 0.0798(3) 0.5926(2)
N16 N 0.79325(13) 0.0858(3) 0.6719(2)
H8 H 0.7831 0.1309 0.6942
N17 N 0.7698(2) 0.3050(4) 0.5348(3)
N18 N 0.7390(2) 0.3659(5) 0.5125(3)
H9 H 0.7122 0.3545 0.4930
O1 O 0.99879(10) 0.2714(2) 0.40482(16)
O2 O 0.96359(10) 0.2236(2) 0.50181(18)
O3 O 0.80409(10) 0.1734(2) 0.44781(18)
O4 O 0.76611(11) 0.2359(2) 0.34002(19)
O5 O 0.91593(11) 0.3067(2) 0.13002(17)
O6 O 0.84256(12) 0.3002(3) 0.11390(19)
O7 O 0.50805(11) 0.2636(2) 0.59469(17)
O8 O 0.54932(11) 0.2332(3) 0.50200(19)
O9 O 0.70732(10) 0.1900(2) 0.57523(18)
O10 O 0.74068(11) 0.2244(2) 0.69780(19)
O11 O 0.58003(12) 0.2918(2) 0.87988(17)
O12 O 0.65054(12) 0.2558(3) 0.90824(19)
C1 C 1.1051(2) 0.4703(4) 0.5388(3)
H10 H 1.1277 0.4479 0.5788
H11 H 1.1082 0.5335 0.5343
H12 H 1.1076 0.4427 0.4890
C2 C 1.0613(2) 0.4494(5) 0.5610(3)
C3 C 1.0364(3) 0.4975(4) 0.6072(3)
H13 H 1.0440 0.5518 0.6315
C4 C 0.9995(2) 0.4520(5) 0.6105(3)
C5 C 0.9600(2) 0.4705(4) 0.6514(3)
H14 H 0.9626 0.4372 0.6998
H15 H 0.9338 0.4530 0.6173
H16 H 0.9587 0.5329 0.6628
C6 C 1.07836(18) 0.2454(4) 0.6837(3)
H17 H 1.0700 0.3044 0.6968
H18 H 1.0872 0.2122 0.7315
H19 H 1.0540 0.2163 0.6525
C7 C 1.11594(19) 0.2505(4) 0.6373(3)
C8 C 1.16042(19) 0.2546(4) 0.6643(3)
H20 H 1.1735 0.2534 0.7170
C9 C 1.18157(19) 0.2607(4) 0.6009(3)
C10 C 1.22838(19) 0.2667(5) 0.5925(3)
H21 H 1.2311 0.2709 0.5375
H22 H 1.2434 0.2146 0.6148
H23 H 1.2410 0.3186 0.6197
C11 C 1.0596(2) 0.0351(4) 0.5536(3)
H24 H 1.0892 0.0362 0.5806
H25 H 1.0471 -0.0224 0.5596
H26 H 1.0428 0.0797 0.5756
C12 C 1.05929(18) 0.0536(5) 0.4687(3)
C13 C 1.06012(19) -0.0066(4) 0.4071(4)
H27 H 1.0610 -0.0682 0.4119
C14 C 1.05939(19) 0.0394(5) 0.3395(4)
C15 C 1.0603(2) 0.0151(4) 0.2537(3)
H28 H 1.0416 0.0549 0.2200
H29 H 1.0501 -0.0449 0.2444
H30 H 1.0896 0.0200 0.2425
C16 C 0.3973(2) 0.4571(4) 0.4610(3)
H31 H 0.3763 0.4310 0.4203
H32 H 0.3914 0.5196 0.4648
H33 H 0.3954 0.4289 0.5106
C17 C 0.4427(2) 0.4445(5) 0.4408(4)
C18 C 0.4653(3) 0.4975(5) 0.3943(4)
H34 H 0.4554 0.5503 0.3696
C19 C 0.5043(3) 0.4587(5) 0.3915(4)
C20 C 0.5420(2) 0.4832(4) 0.3501(3)
H35 H 0.5370 0.4598 0.2972
H36 H 0.5685 0.4586 0.3783
H37 H 0.5444 0.5468 0.3481
C21 C 0.44117(19) 0.2492(4) 0.3077(3)
H38 H 0.4496 0.3098 0.3009
H39 H 0.4350 0.2207 0.2570
H40 H 0.4646 0.2183 0.3400
C22 C 0.4011(2) 0.2469(4) 0.3470(3)
C23 C 0.3572(2) 0.2478(4) 0.3132(3)
H41 H 0.3465 0.2495 0.2594
C24 C 0.3328(2) 0.2459(4) 0.3725(3)
C25 C 0.28439(19) 0.2490(5) 0.3735(3)
H42 H 0.2790 0.2515 0.4272
H43 H 0.2709 0.1967 0.3483
H44 H 0.2723 0.3009 0.3456
C26 C 0.4404(2) 0.0312(4) 0.4292(3)
H45 H 0.4629 0.0643 0.4094
H46 H 0.4123 0.0498 0.4023
H47 H 0.4443 -0.0311 0.4203
C27 C 0.4429(2) 0.0480(5) 0.5163(4)
C28 C 0.4392(2) -0.0155(5) 0.5758(4)
H48 H 0.4352 -0.0764 0.5685
C29 C 0.4427(2) 0.0293(5) 0.6464(4)
C30 C 0.4389(2) 0.0037(4) 0.7301(3)
H49 H 0.4271 0.0528 0.7559
H50 H 0.4674 -0.0112 0.7579
H51 H 0.4199 -0.0468 0.7297
C31 C 0.68847(19) -0.0157(4) 0.5346(3)
H52 H 0.7163 -0.0334 0.5631
H53 H 0.6686 -0.0651 0.5310
H54 H 0.6769 0.0326 0.5618
C32 C 0.69402(18) 0.0137(4) 0.4532(3)
C33 C 0.67975(18) -0.0270(4) 0.3818(3)
H55 H 0.6641 -0.0799 0.3745
C34 C 0.69278(18) 0.0243(4) 0.3236(3)
C35 C 0.68705(19) 0.0161(4) 0.2344(3)
H56 H 0.6656 0.0583 0.2110
H57 H 0.6775 -0.0430 0.2191
H58 H 0.7144 0.0279 0.2166
C36 C 0.8159(2) -0.0329(4) 0.5022(3)
H59 H 0.7881 -0.0523 0.4750
H60 H 0.8362 -0.0818 0.5069
H61 H 0.8268 0.0144 0.4729
C37 C 0.81081(19) 0.0001(4) 0.5837(3)
C38 C 0.82329(18) -0.0417(4) 0.6568(3)
H62 H 0.8370 -0.0967 0.6659
C39 C 0.81119(18) 0.0154(4) 0.7124(3)
C40 C 0.81562(19) 0.0109(4) 0.7997(3)
H63 H 0.7976 0.0557 0.8182
H64 H 0.8456 0.0208 0.8223
H65 H 0.8066 -0.0468 0.8152
C41 C 0.8474(3) 0.3009(6) 0.5949(4)
H66 H 0.8714 0.3213 0.5698
H67 H 0.8426 0.2387 0.5843
H68 H 0.8543 0.3101 0.6509
C42 C 0.8078(3) 0.3509(8) 0.5637(5)
C43 C 0.7985(5) 0.4404(10) 0.5590(6)
H69 H 0.8180 0.4860 0.5761
C44 C 0.7568(5) 0.4511(8) 0.5259(6)
C45 C 0.7255(4) 0.5297(6) 0.5066(6)
H70 H 0.7241 0.5634 0.5538
H71 H 0.6968 0.5078 0.4859
H72 H 0.7359 0.5671 0.4679
C46 C 0.96445(17) 0.2467(4) 0.4314(3)
C47 C 0.80141(18) 0.2135(3) 0.3825(3)
C48 C 0.8795(2) 0.2972(4) 0.1551(3)
C49 C 0.92207(15) 0.2478(3) 0.3744(3)
C50 C 0.88350(16) 0.2264(3) 0.4013(3)
H73 H 0.8842 0.2077 0.4533
C51 C 0.84330(16) 0.2326(3) 0.3512(3)
C52 C 0.84302(15) 0.2575(3) 0.2728(3)
H74 H 0.8164 0.2614 0.2392
C53 C 0.88128(16) 0.2768(3) 0.2433(3)
C54 C 0.92063(16) 0.2724(3) 0.2955(3)
H75 H 0.9466 0.2862 0.2772
C55 C 0.54434(17) 0.2475(4) 0.5726(3)
C56 C 0.70720(19) 0.2148(3) 0.6460(3)
C57 C 0.61601(19) 0.2705(4) 0.8609(3)
C58 C 0.58441(16) 0.2460(3) 0.6363(3)
C59 C 0.62527(17) 0.2310(3) 0.6143(3)
H76 H 0.6275 0.2214 0.5614
C60 C 0.66290(16) 0.2303(3) 0.6705(3)
C61 C 0.65930(16) 0.2427(3) 0.7498(3)
H77 H 0.6844 0.2409 0.7875
C62 C 0.61888(16) 0.2576(3) 0.7739(2)
C63 C 0.58136(16) 0.2600(3) 0.7163(3)
H78 H 0.5542 0.2708 0.7314
Cu1A Cu 0.94546(2) 0.26443(4) 0.02163(3)
Cu2A Cu 0.54591(2) 0.25685(5) 0.98534(3)
O5A O 1.08407(11) 0.3067(2) 0.36998(17)
O11A O 0.41997(12) 0.2918(2) 0.62012(17)
N19 N 0.7416(3) 0.4137(5) 0.3002(3)
H79 H 0.7574 0.3693 0.3191
N20 N 0.6973(3) 0.4171(5) 0.2991(4)
C64 C 0.8061(3) 0.4945(5) 0.2655(5)
H80 H 0.8223 0.4635 0.3096
H81 H 0.8143 0.5561 0.2677
H82 H 0.8123 0.4689 0.2171
C65 C 0.7582(3) 0.4866(7) 0.2688(5)
C66 C 0.7233(4) 0.5382(6) 0.2449(4)
H83 H 0.7238 0.5933 0.2203
C67 C 0.6866(3) 0.4958(7) 0.2627(5)
C68 C 0.6387(3) 0.5201(5) 0.2508(4)
H84 H 0.6214 0.4675 0.2384
H85 H 0.6327 0.5618 0.2080
H86 H 0.6316 0.5464 0.2983
loop_
_geom_bond_atom_site_label_1
_geom_bond_atom_site_label_2
_geom_bond_site_symmetry_1
_geom_bond_site_symmetry_2
Cu1 N1 1_555 1_555
Cu2 N7 1_555 1_555
Cu3 N13 1_555 1_555
N1 N2 1_555 1_555
N2 H1 1_555 1_555
N3 Cu1 1_555 1_555
N4 N3 1_555 1_555
H2 N4 1_555 1_555
N5 Cu1 1_555 1_555
N6 N5 1_555 1_555
H3 N6 1_555 1_555
N7 N8 1_555 1_555
N8 H4 1_555 1_555
N9 Cu2 1_555 1_555
N10 N9 1_555 1_555
H5 N10 1_555 1_555
N11 Cu2 1_555 1_555
N12 N11 1_555 1_555
H6 N12 1_555 1_555
N13 N14 1_555 1_555
N14 H7 1_555 1_555
N15 Cu3 1_555 1_555
N16 N15 1_555 1_555
H8 N16 1_555 1_555
N17 Cu3 1_555 1_555
N18 N17 1_555 1_555
H9 N18 1_555 1_555
O1 Cu1 1_555 1_555
O2 C46 1_555 1_555
O3 Cu3 1_555 1_555
O4 C47 1_555 1_555
O5 C48 1_555 1_555
O6 C48 1_555 1_555
O7 Cu2 1_555 1_555
O8 C55 1_555 1_555
O9 Cu3 1_555 1_555
O10 C56 1_555 1_555
O11 C57 1_555 1_555
O12 C57 1_555 1_555
C1 H10 1_555 1_555
H11 C1 1_555 1_555
H12 C1 1_555 1_555
C2 N1 1_555 1_555
C3 C2 1_555 1_555
H13 C3 1_555 1_555
C4 N2 1_555 1_555
C5 C4 1_555 1_555
H14 C5 1_555 1_555
H15 C5 1_555 1_555
H16 C5 1_555 1_555
C6 H17 1_555 1_555
H18 C6 1_555 1_555
H19 C6 1_555 1_555
C7 N3 1_555 1_555
C8 C7 1_555 1_555
H20 C8 1_555 1_555
C9 N4 1_555 1_555
C10 C9 1_555 1_555
H21 C10 1_555 1_555
H22 C10 1_555 1_555
H23 C10 1_555 1_555
C11 H24 1_555 1_555
H25 C11 1_555 1_555
H26 C11 1_555 1_555
C12 N5 1_555 1_555
C13 C12 1_555 1_555
H27 C13 1_555 1_555
C14 N6 1_555 1_555
C15 C14 1_555 1_555
H28 C15 1_555 1_555
H29 C15 1_555 1_555
H30 C15 1_555 1_555
C16 H31 1_555 1_555
H32 C16 1_555 1_555
H33 C16 1_555 1_555
C17 N7 1_555 1_555
C18 C17 1_555 1_555
H34 C18 1_555 1_555
C19 N8 1_555 1_555
C20 C19 1_555 1_555
H35 C20 1_555 1_555
H36 C20 1_555 1_555
H37 C20 1_555 1_555
C21 H38 1_555 1_555
H39 C21 1_555 1_555
H40 C21 1_555 1_555
C22 N9 1_555 1_555
C23 C22 1_555 1_555
H41 C23 1_555 1_555
C24 N10 1_555 1_555
C25 C24 1_555 1_555
H42 C25 1_555 1_555
H43 C25 1_555 1_555
H44 C25 1_555 1_555
C26 H45 1_555 1_555
H46 C26 1_555 1_555
H47 C26 1_555 1_555
C27 N11 1_555 1_555
C28 C27 1_555 1_555
H48 C28 1_555 1_555
C29 N12 1_555 1_555
C30 C29 1_555 1_555
H49 C30 1_555 1_555
H50 C30 1_555 1_555
H51 C30 1_555 1_555
C31 H52 1_555 1_555
H53 C31 1_555 1_555
H54 C31 1_555 1_555
C32 N13 1_555 1_555
C33 C32 1_555 1_555
H55 C33 1_555 1_555
C34 N14 1_555 1_555
C35 C34 1_555 1_555
H56 C35 1_555 1_555
H57 C35 1_555 1_555
H58 C35 1_555 1_555
C36 H59 1_555 1_555
H60 C36 1_555 1_555
H61 C36 1_555 1_555
C37 N15 1_555 1_555
C38 C37 1_555 1_555
H62 C38 1_555 1_555
C39 N16 1_555 1_555
C40 C39 1_555 1_555
H63 C40 1_555 1_555
H64 C40 1_555 1_555
H65 C40 1_555 1_555
C41 H66 1_555 1_555
H67 C41 1_555 1_555
H68 C41 1_555 1_555
C42 N17 1_555 1_555
C43 C42 1_555 1_555
H69 C43 1_555 1_555
C44 N18 1_555 1_555
C45 C44 1_555 1_555
H70 C45 1_555 1_555
H71 C45 1_555 1_555
H72 C45 1_555 1_555
C46 O1 1_555 1_555
C47 O3 1_555 1_555
C48 C53 1_555 1_555
C49 C46 1_555 1_555
C50 C49 1_555 1_555
H73 C50 1_555 1_555
C51 C47 1_555 1_555
C52 C51 1_555 1_555
H74 C52 1_555 1_555
C53 C52 1_555 1_555
C54 C49 1_555 1_555
H75 C54 1_555 1_555
C55 O7 1_555 1_555
C56 O9 1_555 1_555
C57 C62 1_555 1_555
C58 C55 1_555 1_555
C59 C58 1_555 1_555
H76 C59 1_555 1_555
C60 C56 1_555 1_555
C61 C60 1_555 1_555
H77 C61 1_555 1_555
C62 C61 1_555 1_555
C63 C58 1_555 1_555
H78 C63 1_555 1_555
N19 H79 1_555 1_555
N20 N19 1_555 1_555
C64 H80 1_555 1_555
H81 C64 1_555 1_555
H82 C64 1_555 1_555
C65 N19 1_555 1_555
C66 C65 1_555 1_555
H83 C66 1_555 1_555
C67 N20 1_555 1_555
C68 C67 1_555 1_555
H84 C68 1_555 1_555
H85 C68 1_555 1_555
H86 C68 1_555 1_555
Cu1A O5 1_555 1_555
Cu2A O11 1_555 1_555
O5A Cu1 1_555 1_555
O11A Cu2 1_555 1_555
C1 C2 1_555 1_555
C3 C4 1_555 1_555
C6 C7 1_555 1_555
C8 C9 1_555 1_555
C11 C12 1_555 1_555
C13 C14 1_555 1_555
C16 C17 1_555 1_555
C18 C19 1_555 1_555
C21 C22 1_555 1_555
C23 C24 1_555 1_555
C26 C27 1_555 1_555
C28 C29 1_555 1_555
C31 C32 1_555 1_555
C33 C34 1_555 1_555
C36 C37 1_555 1_555
C38 C39 1_555 1_555
C41 C42 1_555 1_555
C43 C44 1_555 1_555
C50 C51 1_555 1_555
C53 C54 1_555 1_555
C59 C60 1_555 1_555
C62 C63 1_555 1_555
C64 C65 1_555 1_555
C66 C67 1_555 1_555

#END
