
#######################################################################
#
#                 Cambridge Crystallographic Data Centre
#                                CCDC 
#
#######################################################################
#
# If this CIF has been generated from an entry in the Cambridge 
# Structural Database, then it will include bibliographic, chemical, 
# crystal, experimental, refinement or atomic coordinate data resulting 
# from the CCDC's data processing and validation procedures.
#
#######################################################################

data_HOGVAA
_symmetry_cell_setting           monoclinic
_symmetry_space_group_name_H-M   'C 2/c'
_symmetry_Int_Tables_number      15
_space_group_name_Hall           '-C 2yn'
loop_
_symmetry_equiv_pos_site_id
_symmetry_equiv_pos_as_xyz
1 x,y,z
2 -x,y,1/2-z
3 1/2+x,1/2+y,z
4 1/2-x,1/2+y,1/2-z
5 -x,-y,-z
6 x,-y,1/2+z
7 1/2-x,1/2-y,-z
8 1/2+x,1/2-y,1/2+z
_cell_length_a                   11.4854(10)
_cell_length_b                   7.1605(7)
_cell_length_c                   20.5852(19)
_cell_angle_alpha                90
_cell_angle_beta                 96.189(2)
_cell_angle_gamma                90
_cell_volume                     1683.08
loop_
_atom_site_label
_atom_site_type_symbol
_atom_site_fract_x
_atom_site_fract_y
_atom_site_fract_z
Co1 Co 0.0000 -0.1315(1) 0.2500
O1 O 0.4088(1) -0.3694(2) 0.6581(1)
O2 O 0.2452(2) -0.2184(3) 0.6783(1)
O3 O -0.1612(2) -0.1372(2) 0.2925(1)
N1 N 0.0000 -0.4373(4) 0.2500
N2 N 0.0000 -0.8294(4) 0.2500
C1 C 0.3130(2) -0.2853(3) 0.6400(1)
C2 C 0.2799(2) -0.2666(3) 0.5673(1)
C3 C 0.3570(2) -0.3288(3) 0.5239(1)
C4 C 0.1723(2) -0.1884(4) 0.5429(1)
C5 C 0.0099(2) -0.5375(4) 0.3058(1)
C6 C 0.0118(2) -0.7302(4) 0.3057(1)
H1 H -0.2000 -0.0278 0.3038
H2 H -0.2219 -0.1833 0.2583
H3 H 0.4302 -0.3834 0.5402
H4 H 0.1188 -0.1468 0.5721
H5 H -0.0157 -0.4734 0.1536
H6 H -0.0217 -0.7947 0.1537
C4F C 0.3277(2) -0.3116(4) 0.4571(1)
C2F C 0.2201(2) -0.2334(3) 0.4327(1)
C1F C 0.1870(2) -0.2147(3) 0.3600(1)
O1F O 0.0912(1) -0.1306(2) 0.3419(1)
Co1F Co 0.5000 -0.3685(1) 0.7500
O1G O -0.0912(1) -0.1306(2) 0.1581(1)
O3A O 0.1612(2) -0.1372(2) 0.2075(1)
H1A H 0.2000 -0.0278 0.1962
H2A H 0.2219 -0.1833 0.2417
Co1_2 Co 0.0000 -1.1315(1) 0.2500
C6A C -0.0118(2) -0.7302(4) 0.1943(1)
C5A C -0.0099(2) -0.5375(4) 0.1942(1)
H6A H 0.0217 -0.7947 0.3463
H5A H 0.0157 -0.4734 0.3464
N2_2 N 0.0000 0.1706(4) 0.2500
O2F O 0.2548(2) -0.2816(3) 0.3217(1)
C3F C 0.1430(2) -0.1712(3) 0.4761(1)
H4F H 0.3812 -0.3532 0.4279
H3F H 0.0698 -0.1166 0.4598
N3 N 0.3468(2) 0.1945(4) 0.5439(1)
C7 C 0.3462(3) 0.1791(4) 0.4792(2)
C8 C 0.2489(3) 0.2661(4) 0.5635(1)
H7 H 0.4134 0.1288 0.4621
H8 H 0.2444 0.2802 0.6091
C8F C 0.2511(3) 0.2339(4) 0.4365(1)
N3F N 0.1532(2) 0.3055(4) 0.4561(1)
C7F C 0.1538(3) 0.3209(4) 0.5208(2)
H7F H 0.0866 0.3712 0.5379
H8F H 0.2556 0.2198 0.3909
loop_
_geom_bond_atom_site_label_1
_geom_bond_atom_site_label_2
_geom_bond_site_symmetry_1
_geom_bond_site_symmetry_2
Co1 O3 1_555 1_555
O1 C1 1_555 1_555
O2 C1 1_555 1_555
O3 H1 1_555 1_555
N1 Co1 1_555 1_555
N2 C6 1_555 1_555
N3 C7 1_555 1_555
C1 C2 1_555 1_555
C2 C3 1_555 1_555
C3 H3 1_555 1_555
C4 C2 1_555 1_555
C5 N1 1_555 1_555
C6 C5 1_555 1_555
C7 H7 1_555 1_555
C8 N3 1_555 1_555
H2 O3 1_555 1_555
H4 C4 1_555 1_555
H5 C5A 1_555 1_555
H6 C6A 1_555 1_555
H8 C8 1_555 1_555
C4F C3 1_555 1_555
C2F C4F 1_555 1_555
C1F C2F 1_555 1_555
O1F Co1 1_555 1_555
Co1F O1 1_555 1_555
O1G Co1 1_555 1_555
O3A Co1 1_555 1_555
H1A O3A 1_555 1_555
H2A O3A 1_555 1_555
Co1_2 N2 1_555 1_555
C6A N2 1_555 1_555
C5A N1 1_555 1_555
H6A C6 1_555 1_555
H5A C5 1_555 1_555
N2_2 Co1 1_555 1_555
O2F C1F 1_555 1_555
C3F C4 1_555 1_555
H4F C4F 1_555 1_555
C8F C7 1_555 1_555
N3F C8F 1_555 1_555
C7F C8 1_555 1_555
H7F C7F 1_555 1_555
H8F C8F 1_555 1_555
H3F C3F 1_555 1_555
C2F C3F 1_555 1_555
C1F O1F 1_555 1_555
C6A C5A 1_555 1_555
N3F C7F 1_555 1_555

#END
