
#######################################################################
#
#                 Cambridge Crystallographic Data Centre
#                                CCDC 
#
#######################################################################
#
# If this CIF has been generated from an entry in the Cambridge 
# Structural Database, then it will include bibliographic, chemical, 
# crystal, experimental, refinement or atomic coordinate data resulting 
# from the CCDC's data processing and validation procedures.
#
#######################################################################

data_HOGWIL
_symmetry_cell_setting           monoclinic
_symmetry_space_group_name_H-M   'P 21/c'
_symmetry_Int_Tables_number      14
_space_group_name_Hall           '-P 2ybc'
loop_
_symmetry_equiv_pos_site_id
_symmetry_equiv_pos_as_xyz
1 x,y,z
2 -x,1/2+y,1/2-z
3 -x,-y,-z
4 x,1/2-y,1/2+z
_cell_length_a                   6.0210(5)
_cell_length_b                   14.6702(12)
_cell_length_c                   10.1601(9)
_cell_angle_alpha                90
_cell_angle_beta                 100.072(2)
_cell_angle_gamma                90
_cell_volume                     883.604
loop_
_atom_site_label
_atom_site_type_symbol
_atom_site_fract_x
_atom_site_fract_y
_atom_site_fract_z
Cu1 Cu 0.0000 0.5000 0.0000
N1 N 0.0890(6) 0.3766(3) -0.0408(4)
N2 N 0.2463(6) 0.3639(3) -0.1198(4)
H1 H 0.3306 0.4064 -0.1423
O1 O 0.0867(6) 0.4799(2) 0.1954(3)
O2 O 0.4053(6) 0.5181(2) 0.1349(3)
C1 C -0.1827(9) 0.2850(4) 0.0524(5)
H2 H -0.1164 0.2660 0.1410
H3 H -0.2886 0.2397 0.0124
H4 H -0.2594 0.3420 0.0569
C2 C -0.0018(8) 0.2962(3) -0.0300(4)
C3 C 0.0965(9) 0.2328(4) -0.1029(5)
H5 H 0.0611 0.1711 -0.1122
C4 C 0.2536(9) 0.2775(4) -0.1580(5)
C5 C 0.4109(10) 0.2473(4) -0.2463(5)
H6 H 0.4614 0.2992 -0.2904
H7 H 0.3349 0.2056 -0.3119
H8 H 0.5384 0.2175 -0.1938
C6 C 0.2924(8) 0.4997(3) 0.2208(4)
C7 C 0.4014(8) 0.4999(3) 0.3662(4)
C8 C 0.2753(8) 0.5162(3) 0.4634(5)
H9 H 0.1217 0.5275 0.4387
C9 C 0.6297(8) 0.4838(3) 0.4027(4)
H10 H 0.7183 0.4730 0.3379
O1B O 0.9133(6) 0.5201(2) 0.8046(3)
O2B O 0.5947(6) 0.4819(2) 0.8651(3)
C6B C 0.7076(8) 0.5003(3) 0.7792(4)
C7B C 0.5986(8) 0.5001(3) 0.6338(4)
C8B C 0.7247(8) 0.4838(3) 0.5366(5)
H9B H 0.8783 0.4725 0.5613
C9B C 0.3703(8) 0.5162(3) 0.5973(4)
H10B H 0.2817 0.5270 0.6621
N1B N -0.0890(6) 0.6234(3) 0.0408(4)
N2B N -0.2463(6) 0.6361(3) 0.1198(4)
H1B H -0.3306 0.5936 0.1423
C1B C 0.1827(9) 0.7150(4) -0.0524(5)
H2B H 0.1164 0.7340 -0.1410
H3B H 0.2886 0.7603 -0.0124
H4B H 0.2594 0.6580 -0.0569
C2B C 0.0018(8) 0.7038(3) 0.0300(4)
C3B C -0.0965(9) 0.7672(4) 0.1029(5)
H5B H -0.0611 0.8289 0.1122
C4B C -0.2536(9) 0.7225(4) 0.1580(5)
C5B C -0.4109(10) 0.7527(4) 0.2463(5)
H6B H -0.4614 0.7008 0.2904
H7B H -0.3349 0.7944 0.3119
H8B H -0.5384 0.7825 0.1938
Cu1_2 Cu 1.0000 0.5000 1.0000
O1B_2 O -0.0867(6) 0.5201(2) -0.1954(3)
O2B_2 O -0.4053(6) 0.4819(2) -0.1349(3)
loop_
_geom_bond_atom_site_label_1
_geom_bond_atom_site_label_2
_geom_bond_site_symmetry_1
_geom_bond_site_symmetry_2
Cu1 N1 1_555 1_555
N1 N2 1_555 1_555
N2 H1 1_555 1_555
O1 Cu1 1_555 1_555
O2 Cu1 1_555 1_555
C1 H2 1_555 1_555
H3 C1 1_555 1_555
H4 C1 1_555 1_555
C2 N1 1_555 1_555
C3 C2 1_555 1_555
H5 C3 1_555 1_555
C4 N2 1_555 1_555
C5 C4 1_555 1_555
H6 C5 1_555 1_555
H7 C5 1_555 1_555
H8 C5 1_555 1_555
C6 O1 1_555 1_555
C7 C6 1_555 1_555
C8 C7 1_555 1_555
H9 C8 1_555 1_555
C9 C7 1_555 1_555
H10 C9 1_555 1_555
O1B C6B 1_555 1_555
O2B C6B 1_555 1_555
C6B C7B 1_555 1_555
C7B C8B 1_555 1_555
C8B C9 1_555 1_555
H9B C8B 1_555 1_555
C9B C8 1_555 1_555
H10B C9B 1_555 1_555
N1B Cu1 1_555 1_555
N2B N1B 1_555 1_555
H1B N2B 1_555 1_555
C1B H2B 1_555 1_555
H3B C1B 1_555 1_555
H4B C1B 1_555 1_555
C2B N1B 1_555 1_555
C3B C2B 1_555 1_555
H5B C3B 1_555 1_555
C4B N2B 1_555 1_555
C5B C4B 1_555 1_555
H6B C5B 1_555 1_555
H7B C5B 1_555 1_555
H8B C5B 1_555 1_555
Cu1_2 O1B 1_555 1_555
O1B_2 Cu1 1_555 1_555
O2B_2 Cu1 1_555 1_555
O2 C6 1_555 1_555
C1 C2 1_555 1_555
C3 C4 1_555 1_555
O2B Cu1_2 1_555 1_555
C7B C9B 1_555 1_555
C1B C2B 1_555 1_555
C3B C4B 1_555 1_555

#END
