
#######################################################################
#
#                 Cambridge Crystallographic Data Centre
#                                CCDC 
#
#######################################################################
#
# If this CIF has been generated from an entry in the Cambridge 
# Structural Database, then it will include bibliographic, chemical, 
# crystal, experimental, refinement or atomic coordinate data resulting 
# from the CCDC's data processing and validation procedures.
#
#######################################################################

data_HOHBEN
_symmetry_cell_setting           monoclinic
_symmetry_space_group_name_H-M   'P 21/c'
_symmetry_Int_Tables_number      14
_space_group_name_Hall           '-P 2ybc'
loop_
_symmetry_equiv_pos_site_id
_symmetry_equiv_pos_as_xyz
1 x,y,z
2 -x,1/2+y,1/2-z
3 -x,-y,-z
4 x,1/2-y,1/2+z
_cell_length_a                   9.345(9)
_cell_length_b                   6.916(4)
_cell_length_c                   14.615(9)
_cell_angle_alpha                90
_cell_angle_beta                 104.44(5)
_cell_angle_gamma                90
_cell_volume                     914.728
loop_
_atom_site_label
_atom_site_type_symbol
_atom_site_fract_x
_atom_site_fract_y
_atom_site_fract_z
Fe1 Fe 0.39173(4) -0.31614(5) 0.52139(2)
O1 O 0.3562(2) -0.2057(2) 0.38187(13)
O2 O 0.31174(19) 0.0160(3) 0.26779(12)
O3 O 0.4801(2) -0.4697(3) 0.65029(12)
H1 H 0.4431 -0.5942 0.6595
H2 H 0.5563 -0.4133 0.6983
O4 O 0.2501(2) 0.4719(2) 0.46803(13)
O5 O 0.39576(19) 0.2187(3) 0.45817(12)
N1 N -0.2684(2) 0.1351(3) 0.40685(13)
N2 N -0.2458(2) -0.1394(3) 0.33116(14)
H3 H -0.2705 -0.2497 0.3014
C1 C 0.1350(3) 0.1774(3) 0.41224(17)
C2 C -0.1219(2) 0.1187(3) 0.39842(15)
C3 C -0.1091(2) -0.0547(3) 0.35147(15)
C4 C 0.2705(3) 0.2988(3) 0.44812(17)
C5 C 0.2835(2) -0.0651(3) 0.33790(15)
C6 C 0.1451(2) 0.0004(3) 0.36520(15)
C7 C -0.3356(3) -0.0218(4) 0.36529(16)
H4 H -0.4370 -0.0490 0.3600
C8 C 0.0007(3) 0.2366(3) 0.42884(16)
H5 H -0.0064 0.3551 0.4603
C9 C 0.0232(3) -0.1176(3) 0.33400(16)
H6 H 0.0294 -0.2360 0.3022
Fe1_2 Fe 0.39173(4) 0.68386(5) 0.52139(2)
Fe1B Fe -0.39173(4) 0.31614(5) 0.47861(2)
Fe1B_2 Fe 0.60827(4) 0.31614(5) 0.47861(2)
O4_2 O 0.2501(2) -0.5281(2) 0.46803(13)
O5B O 0.60424(19) -0.2187(3) 0.54183(12)
N1B N 0.2684(2) -0.1351(3) 0.59315(13)
loop_
_geom_bond_atom_site_label_1
_geom_bond_atom_site_label_2
_geom_bond_site_symmetry_1
_geom_bond_site_symmetry_2
Fe1 O1 1_555 1_555
O1 C5 1_555 1_555
O2 C5 1_555 1_555
O3 Fe1 1_555 1_555
H1 O3 1_555 1_555
H2 O3 1_555 1_555
O4 C4 1_555 1_555
O5 C4 1_555 1_555
N1 C2 1_555 1_555
N2 H3 1_555 1_555
C1 C4 1_555 1_555
C2 C3 1_555 1_555
C3 N2 1_555 1_555
C5 C6 1_555 1_555
C6 C1 1_555 1_555
C7 N1 1_555 1_555
H4 C7 1_555 1_555
C8 C1 1_555 1_555
H5 C8 1_555 1_555
C9 C3 1_555 1_555
H6 C9 1_555 1_555
Fe1_2 O4 1_555 1_555
Fe1B N1 1_555 1_555
Fe1B_2 O5 1_555 1_555
O4_2 Fe1 1_555 1_555
O5B Fe1 1_555 1_555
N1B Fe1 1_555 1_555
N2 C7 1_555 1_555
C2 C8 1_555 1_555
C6 C9 1_555 1_555

#END
