
#######################################################################
#
#                 Cambridge Crystallographic Data Centre
#                                CCDC 
#
#######################################################################
#
# If this CIF has been generated from an entry in the Cambridge 
# Structural Database, then it will include bibliographic, chemical, 
# crystal, experimental, refinement or atomic coordinate data resulting 
# from the CCDC's data processing and validation procedures.
#
#######################################################################

data_HOHBIR
_symmetry_cell_setting           monoclinic
_symmetry_space_group_name_H-M   'P 21/n'
_symmetry_Int_Tables_number      14
_space_group_name_Hall           '-P 2yn'
loop_
_symmetry_equiv_pos_site_id
_symmetry_equiv_pos_as_xyz
1 x,y,z
2 1/2-x,1/2+y,1/2-z
3 -x,-y,-z
4 1/2+x,1/2-y,1/2+z
_cell_length_a                   10.1761(9)
_cell_length_b                   5.9639(5)
_cell_length_c                   13.3111(14)
_cell_angle_alpha                90
_cell_angle_beta                 96.591(6)
_cell_angle_gamma                90
_cell_volume                     802.501
loop_
_atom_site_label
_atom_site_type_symbol
_atom_site_fract_x
_atom_site_fract_y
_atom_site_fract_z
Fe1 Fe 0.75253(4) 0.21778(6) 0.82831(3)
O1 O 0.42406(18) 0.1288(3) 1.28385(14)
O2 O 0.3891(2) -0.0072(3) 1.12696(15)
O3 O 0.35183(18) 0.5683(3) 1.27666(14)
N1 N 0.7650(2) 0.4076(4) 0.96214(17)
N2 N 0.8106(2) 0.7169(4) 1.05259(18)
H1 H 0.8470 0.8426 1.0712
C1 C 0.5586(3) 0.5035(4) 1.20986(19)
C2 C 0.7155(2) 0.6057(4) 1.0994(2)
C3 C 0.5968(3) 0.2541(5) 1.0709(2)
C4 C 0.6525(3) 0.6563(5) 1.1838(2)
C5 C 0.4423(2) 0.1304(4) 1.1912(2)
C6 C 0.5330(3) 0.3025(4) 1.1549(2)
C7 C 0.6874(3) 0.4097(5) 1.04241(19)
C8 C 0.8357(3) 0.5944(5) 0.9736(2)
O4 O 0.53958(19) 0.5953(3) 1.38105(14)
C9 C 0.4822(3) 0.5597(4) 1.2966(2)
H2 H 0.579(3) 0.140(5) 1.037(2)
H3 H 0.674(4) 0.790(6) 1.221(3)
H4 H 0.879(4) 0.627(7) 0.941(3)
Fe1B Fe 0.24747(4) -0.21778(6) 1.17169(3)
Fe1B_2 Fe 0.24747(4) 0.78222(6) 1.17169(3)
Fe1C Fe 0.25253(4) 0.28222(6) 1.32831(3)
O1C O 0.92406(18) 0.3712(3) 0.78385(14)
O2B O 0.6109(2) 0.0072(3) 0.87304(15)
O3B O 0.64817(18) 0.4317(3) 0.72334(14)
O3C O 0.85183(18) -0.0683(3) 0.77666(14)
loop_
_geom_bond_atom_site_label_1
_geom_bond_atom_site_label_2
_geom_bond_site_symmetry_1
_geom_bond_site_symmetry_2
Fe1 N1 1_555 1_555
O1 C5 1_555 1_555
O2 C5 1_555 1_555
O3 C9 1_555 1_555
N1 C7 1_555 1_555
N2 H1 1_555 1_555
C1 C4 1_555 1_555
C2 N2 1_555 1_555
C3 C6 1_555 1_555
C4 C2 1_555 1_555
C5 C6 1_555 1_555
C6 C1 1_555 1_555
C7 C2 1_555 1_555
C8 N1 1_555 1_555
O4 C9 1_555 1_555
C9 C1 1_555 1_555
H2 C3 1_555 1_555
H3 C4 1_555 1_555
H4 C8 1_555 1_555
Fe1B O2 1_555 1_555
Fe1B_2 O3 1_555 1_555
Fe1C O1 1_555 1_555
O1C Fe1 1_555 1_555
O2B Fe1 1_555 1_555
O3B Fe1 1_555 1_555
O3C Fe1 1_555 1_555
O3 Fe1C 1_555 1_555
N2 C8 1_555 1_555
C3 C7 1_555 1_555

#END
