
#######################################################################
#
#                 Cambridge Crystallographic Data Centre
#                                CCDC 
#
#######################################################################
#
# If this CIF has been generated from an entry in the Cambridge 
# Structural Database, then it will include bibliographic, chemical, 
# crystal, experimental, refinement or atomic coordinate data resulting 
# from the CCDC's data processing and validation procedures.
#
#######################################################################

data_HOHBUD
_symmetry_cell_setting           monoclinic
_symmetry_space_group_name_H-M   'P 21/c'
_symmetry_Int_Tables_number      14
_space_group_name_Hall           '-P 2ybc'
loop_
_symmetry_equiv_pos_site_id
_symmetry_equiv_pos_as_xyz
1 x,y,z
2 -x,1/2+y,1/2-z
3 -x,-y,-z
4 x,1/2-y,1/2+z
_cell_length_a                   10.996(4)
_cell_length_b                   10.359(4)
_cell_length_c                   7.723(3)
_cell_angle_alpha                90
_cell_angle_beta                 102.018(6)
_cell_angle_gamma                90
_cell_volume                     860.427
loop_
_atom_site_label
_atom_site_type_symbol
_atom_site_fract_x
_atom_site_fract_y
_atom_site_fract_z
Fe1 Fe 0.30352(4) 0.42918(3) 0.84941(5)
O1 O 0.14527(19) 1.09477(18) 0.7654(3)
O2 O 0.54578(17) 0.90644(17) 0.7810(2)
O3 O 0.41188(18) 1.03413(18) 0.6064(3)
O4 O 0.15594(18) 1.06691(17) 0.4839(2)
O5 O 0.35448(19) 0.23408(17) 0.9196(3)
H1 H 0.4283 0.2089 0.9846
H2 H 0.2966 0.1858 0.8783
O6 O 0.16267(18) 0.36248(18) 0.6313(2)
H3 H 0.0964 0.3142 0.6413
H4 H 0.1786 0.3877 0.5378
N1 N 0.2662(2) 0.6292(2) 0.7643(3)
C1 C 0.1680(2) 1.0276(3) 0.6422(3)
C2 C 0.2078(2) 0.8886(3) 0.6841(3)
C3 C 0.1147(3) 0.7988(3) 0.6938(3)
H5 H 0.0318 0.8242 0.6747
C4 C 0.1476(3) 0.6713(3) 0.7325(3)
H6 H 0.0849 0.6119 0.7367
C5 C 0.3555(3) 0.7167(2) 0.7561(3)
H7 H 0.4377 0.6889 0.7780
C6 C 0.3311(2) 0.8467(2) 0.7165(3)
C7 C 0.4369(3) 0.9355(2) 0.7009(3)
Fe1A Fe 0.69648(4) 0.92918(3) 0.65059(5)
Fe1C Fe 0.30352(4) 1.07082(3) 0.34941(5)
O2A O 0.45422(17) 0.40644(17) 0.7190(2)
O3C O 0.41188(18) 0.46587(18) 1.1064(3)
O4C O 0.15594(18) 0.43309(17) 0.9839(2)
loop_
_geom_bond_atom_site_label_1
_geom_bond_atom_site_label_2
_geom_bond_site_symmetry_1
_geom_bond_site_symmetry_2
Fe1 O5 1_555 1_555
O1 C1 1_555 1_555
O2 C7 1_555 1_555
O3 C7 1_555 1_555
O4 C1 1_555 1_555
O5 H1 1_555 1_555
H2 O5 1_555 1_555
O6 Fe1 1_555 1_555
H3 O6 1_555 1_555
H4 O6 1_555 1_555
N1 Fe1 1_555 1_555
C1 C2 1_555 1_555
C2 C3 1_555 1_555
C3 H5 1_555 1_555
C4 N1 1_555 1_555
H6 C4 1_555 1_555
C5 N1 1_555 1_555
H7 C5 1_555 1_555
C6 C2 1_555 1_555
C7 C6 1_555 1_555
Fe1A O2 1_555 1_555
Fe1C O3 1_555 1_555
O2A Fe1 1_555 1_555
O3C Fe1 1_555 1_555
O4C Fe1 1_555 1_555
O4 Fe1C 1_555 1_555
C3 C4 1_555 1_555
C5 C6 1_555 1_555

#END
