
#######################################################################
#
#                 Cambridge Crystallographic Data Centre
#                                CCDC 
#
#######################################################################
#
# If this CIF has been generated from an entry in the Cambridge 
# Structural Database, then it will include bibliographic, chemical, 
# crystal, experimental, refinement or atomic coordinate data resulting 
# from the CCDC's data processing and validation procedures.
#
#######################################################################

data_HOHDAL
_symmetry_cell_setting           monoclinic
_symmetry_space_group_name_H-M   'P 21/n'
_symmetry_Int_Tables_number      14
_space_group_name_Hall           '-P 2yn'
loop_
_symmetry_equiv_pos_site_id
_symmetry_equiv_pos_as_xyz
1 x,y,z
2 1/2-x,1/2+y,1/2-z
3 -x,-y,-z
4 1/2+x,1/2-y,1/2+z
_cell_length_a                   8.7929(7)
_cell_length_b                   13.7425(11)
_cell_length_c                   14.3194(11)
_cell_angle_alpha                90
_cell_angle_beta                 99.284(5)
_cell_angle_gamma                90
_cell_volume                     1707.64
loop_
_atom_site_label
_atom_site_type_symbol
_atom_site_fract_x
_atom_site_fract_y
_atom_site_fract_z
Zn1 Zn 0.81245(7) 0.25304(5) 0.66578(4)
N1 N 0.6218(6) 0.1768(4) 0.7039(4)
N2 N 0.8541(6) 0.2616(4) 0.8217(3)
N3 N 1.0372(5) 0.3092(4) 0.6954(4)
O1 O 0.9586(5) 0.0797(3) 0.6797(3)
O2 O 0.8453(5) 0.1658(3) 0.5579(3)
O3 O 0.6724(5) 0.3592(4) 0.6144(3)
O4 O 0.7927(7) 0.4118(5) 0.5048(5)
C1 C 0.5527(6) 0.4749(4) 0.5142(4)
C2 C 0.6873(7) 0.4105(5) 0.5508(5)
C3 C 0.9775(7) 0.0268(5) 0.5268(4)
C4 C 0.9245(7) 0.0939(5) 0.5939(5)
C5 C 1.1126(8) 0.3474(5) 0.6310(5)
H1 H 1.0625 0.3516 0.5687
C6 C 1.2624(8) 0.3813(5) 0.6524(6)
H2 H 1.3136 0.4059 0.6056
C7 C 1.3324(9) 0.3772(6) 0.7446(7)
H3 H 1.4323 0.4004 0.762
C8 C 1.2547(8) 0.3388(6) 0.8104(6)
H4 H 1.3012 0.3367 0.8735
C9 C 1.1079(7) 0.3028(5) 0.7848(5)
C10 C 1.0218(7) 0.2527(6) 0.8515(4)
H5 H 1.05 0.1844 0.855
H6 H 1.0502 0.2805 0.9141
C11 C 0.7995(9) 0.3569(6) 0.8480(5)
H7 H 0.8129 0.362 0.9157
H8 H 0.6923 0.3639 0.8222
H9 H 0.8575 0.4072 0.8232
C12 C 0.7691(9) 0.1803(7) 0.8566(5)
H10 H 0.750 0.1953 0.9199
H11 H 0.8321 0.122 0.8604
C13 C 0.6195(8) 0.1611(5) 0.7942(5)
C14 C 0.4912(11) 0.1214(6) 0.8252(7)
H12 H 0.4925 0.1094 0.8892
C15 C 0.3663(11) 0.1007(6) 0.7624(8)
H13 H 0.2794 0.0755 0.7831
C16 C 0.3646(9) 0.1159(6) 0.6695(7)
H14 H 0.2786 0.1007 0.6251
C17 C 0.4953(9) 0.1547(6) 0.6430(5)
H15 H 0.4954 0.1663 0.579
O1B O 1.0414(5) -0.0797(3) 0.3203(3)
O2B O 1.1547(5) -0.1658(3) 0.4421(3)
C3B C 1.0225(7) -0.0268(5) 0.4732(4)
C4B C 1.0755(7) -0.0939(5) 0.4061(5)
O3B O 0.3276(5) 0.6408(4) 0.3856(3)
O4B O 0.2073(7) 0.5882(5) 0.4952(5)
C1B C 0.4473(6) 0.5251(4) 0.4858(4)
C2B C 0.3127(7) 0.5895(5) 0.4492(5)
Zn1B Zn 0.18755(7) 0.74696(5) 0.33422(4)
N1B N 0.3782(6) 0.8232(4) 0.2961(4)
N2B N 0.1459(6) 0.7384(4) 0.1783(3)
N3B N -0.0372(5) 0.6908(4) 0.3046(4)
C5B C -0.1126(8) 0.6526(5) 0.3690(5)
H1B H -0.0625 0.6484 0.4313
C6B C -0.2624(8) 0.6187(5) 0.3476(6)
H2B H -0.3136 0.5941 0.3944
C7B C -0.3324(9) 0.6228(6) 0.2554(7)
H3B H -0.4323 0.5996 0.238
C8B C -0.2547(8) 0.6612(6) 0.1896(6)
H4B H -0.3012 0.6633 0.1265
C9B C -0.1079(7) 0.6972(5) 0.2152(5)
C10B C -0.0218(7) 0.7473(6) 0.1485(4)
H5B H -0.05 0.8156 0.145
H6B H -0.0502 0.7195 0.0859
C11B C 0.2005(9) 0.6431(6) 0.1520(5)
H7B H 0.1871 0.638 0.0843
H8B H 0.3077 0.6361 0.1778
H9B H 0.1425 0.5928 0.1768
C12B C 0.2309(9) 0.8197(7) 0.1434(5)
H10B H 0.250 0.8047 0.0801
H11B H 0.1679 0.878 0.1396
C13B C 0.3805(8) 0.8389(5) 0.2058(5)
C14B C 0.5088(11) 0.8786(6) 0.1748(7)
H12B H 0.5075 0.8906 0.1108
C15B C 0.6337(11) 0.8993(6) 0.2376(8)
H13B H 0.7206 0.9245 0.2169
C16B C 0.6354(9) 0.8841(6) 0.3305(7)
H14B H 0.7214 0.8993 0.3749
C17B C 0.5047(9) 0.8453(6) 0.3570(5)
H15B H 0.5046 0.8337 0.421
Zn1B_2 Zn 1.18755(7) -0.25304(5) 0.33422(4)
O2B_2 O 0.1547(5) 0.8342(3) 0.4421(3)
loop_
_geom_bond_atom_site_label_1
_geom_bond_atom_site_label_2
_geom_bond_site_symmetry_1
_geom_bond_site_symmetry_2
Zn1 N1 1_555 1_555
N1 C13 1_555 1_555
N2 Zn1 1_555 1_555
N3 Zn1 1_555 1_555
O1 C4 1_555 1_555
O2 Zn1 1_555 1_555
O3 Zn1 1_555 1_555
O4 C2 1_555 1_555
C1 C2 1_555 1_555
C2 O3 1_555 1_555
C3 C4 1_555 1_555
C4 O2 1_555 1_555
C5 N3 1_555 1_555
H1 C5 1_555 1_555
C6 C5 1_555 1_555
H2 C6 1_555 1_555
C7 C6 1_555 1_555
H3 C7 1_555 1_555
C8 C7 1_555 1_555
H4 C8 1_555 1_555
C9 N3 1_555 1_555
C10 N2 1_555 1_555
H5 C10 1_555 1_555
H6 C10 1_555 1_555
C11 N2 1_555 1_555
H7 C11 1_555 1_555
H8 C11 1_555 1_555
H9 C11 1_555 1_555
C12 N2 1_555 1_555
H10 C12 1_555 1_555
H11 C12 1_555 1_555
C13 C12 1_555 1_555
C14 C13 1_555 1_555
H12 C14 1_555 1_555
C15 C14 1_555 1_555
H13 C15 1_555 1_555
C16 C15 1_555 1_555
H14 C16 1_555 1_555
C17 N1 1_555 1_555
H15 C17 1_555 1_555
O1B C4B 1_555 1_555
O2B C4B 1_555 1_555
C3B C3 1_555 1_555
C4B C3B 1_555 1_555
O3B C2B 1_555 1_555
O4B C2B 1_555 1_555
C1B C1 1_555 1_555
C2B C1B 1_555 1_555
Zn1B O3B 1_555 1_555
N1B Zn1B 1_555 1_555
N2B Zn1B 1_555 1_555
N3B Zn1B 1_555 1_555
C5B N3B 1_555 1_555
H1B C5B 1_555 1_555
C6B C5B 1_555 1_555
H2B C6B 1_555 1_555
C7B C6B 1_555 1_555
H3B C7B 1_555 1_555
C8B C7B 1_555 1_555
H4B C8B 1_555 1_555
C9B N3B 1_555 1_555
C10B N2B 1_555 1_555
H5B C10B 1_555 1_555
H6B C10B 1_555 1_555
C11B N2B 1_555 1_555
H7B C11B 1_555 1_555
H8B C11B 1_555 1_555
H9B C11B 1_555 1_555
C12B N2B 1_555 1_555
H10B C12B 1_555 1_555
H11B C12B 1_555 1_555
C13B N1B 1_555 1_555
C14B C13B 1_555 1_555
H12B C14B 1_555 1_555
C15B C14B 1_555 1_555
H13B C15B 1_555 1_555
C16B C15B 1_555 1_555
H14B C16B 1_555 1_555
C17B N1B 1_555 1_555
H15B C17B 1_555 1_555
Zn1B_2 O2B 1_555 1_555
O2B_2 Zn1B 1_555 1_555
C8 C9 1_555 1_555
C9 C10 1_555 1_555
C16 C17 1_555 1_555
C8B C9B 1_555 1_555
C9B C10B 1_555 1_555
C12B C13B 1_555 1_555
C16B C17B 1_555 1_555

#END
