
#######################################################################
#
#                 Cambridge Crystallographic Data Centre
#                                CCDC 
#
#######################################################################
#
# If this CIF has been generated from an entry in the Cambridge 
# Structural Database, then it will include bibliographic, chemical, 
# crystal, experimental, refinement or atomic coordinate data resulting 
# from the CCDC's data processing and validation procedures.
#
#######################################################################

data_HOHDIT
_symmetry_cell_setting           orthorhombic
_symmetry_space_group_name_H-M   'P b c a'
_symmetry_Int_Tables_number      61
_space_group_name_Hall           '-P 2ac 2ab'
loop_
_symmetry_equiv_pos_site_id
_symmetry_equiv_pos_as_xyz
1 x,y,z
2 1/2+x,1/2-y,-z
3 -x,1/2+y,1/2-z
4 1/2-x,-y,1/2+z
5 -x,-y,-z
6 1/2-x,1/2+y,z
7 x,1/2-y,1/2+z
8 1/2+x,y,1/2-z
_cell_length_a                   13.330(2)
_cell_length_b                   13.669(3)
_cell_length_c                   22.655(4)
_cell_angle_alpha                90
_cell_angle_beta                 90
_cell_angle_gamma                90
_cell_volume                     4127.92
loop_
_atom_site_label
_atom_site_type_symbol
_atom_site_fract_x
_atom_site_fract_y
_atom_site_fract_z
Zn1 Zn 0.49127(3) 0.18792(3) 0.395375(18)
N1 N 0.5786(2) 0.2224(2) 0.32516(14)
N2 N 0.6457(2) 0.0981(2) 0.41566(14)
N3 N 0.5360(2) 0.2399(2) 0.47635(13)
O1 O 0.38776(19) 0.08649(18) 0.41014(13)
O2 O 0.3875(2) 0.0799(2) 0.31263(15)
O3 O 0.01911(19) -0.0772(2) 0.37152(14)
O4 O 0.11954(18) -0.20769(18) 0.37975(11)
C1 C 0.3531(3) 0.0580(3) 0.3608(2)
C2 C 0.2650(3) -0.0071(3) 0.36421(17)
C3 C 0.1918(3) -0.0560(3) 0.36615(18)
C4 C 0.1016(3) -0.1169(3) 0.37233(16)
C5 C 0.6769(3) 0.2047(3) 0.32780(17)
C6 C 0.7399(3) 0.2259(3) 0.28110(19)
H1 H 0.8082 0.213 0.2838
C7 C 0.7008(4) 0.2658(3) 0.2310(2)
H2 H 0.7421 0.2798 0.199
C8 C 0.5993(4) 0.2853(3) 0.2283(2)
H3 H 0.5712 0.3138 0.1949
C9 C 0.5407(3) 0.2615(3) 0.27613(17)
H4 H 0.472 0.2731 0.2742
C10 C 0.7163(3) 0.1644(3) 0.38498(17)
H5 H 0.7781 0.1292 0.3772
H6 H 0.7323 0.2186 0.411
C11 C 0.6599(3) 0.1098(3) 0.47979(17)
H7 H 0.7311 0.1088 0.4885
H8 H 0.6294 0.0545 0.4998
C12 C 0.6156(3) 0.2025(3) 0.50388(17)
C13 C 0.4901(3) 0.3175(3) 0.50123(18)
H9 H 0.4339 0.3436 0.4827
C14 C 0.5224(4) 0.3591(3) 0.5523(2)
H10 H 0.4884 0.4123 0.5683
C15 C 0.6050(4) 0.3222(3) 0.5798(2)
H11 H 0.6284 0.35 0.6146
C16 C 0.6530(3) 0.2437(4) 0.55520(19)
H12 H 0.7103 0.2182 0.5728
C17 C 0.6605(3) -0.0088(3) 0.3969(2)
C18 C 0.6500(4) -0.0144(3) 0.3300(2)
H13 H 0.7049 0.0194 0.3118
H14 H 0.5879 0.0154 0.3182
H15 H 0.6505 -0.0817 0.3178
C19 C 0.5781(3) -0.0714(3) 0.4251(2)
H16 H 0.5137 -0.0441 0.4157
H17 H 0.5869 -0.0723 0.4671
H18 H 0.5821 -0.1369 0.41
C20 C 0.7630(3) -0.0492(3) 0.4158(2)
H19 H 0.7698 -0.1154 0.4023
H20 H 0.7681 -0.0476 0.4581
H21 H 0.8153 -0.0097 0.399
Zn1E Zn 0.00873(3) -0.31208(3) 0.395375(18)
O4E O 0.38046(18) 0.29231(18) 0.37975(11)
O5 O 0.9338(3) 0.0797(3) 0.30947(15)
H22 H 0.9233 0.0777 0.2725
H23 H 0.9554 0.0325 0.3303
loop_
_geom_bond_atom_site_label_1
_geom_bond_atom_site_label_2
_geom_bond_site_symmetry_1
_geom_bond_site_symmetry_2
Zn1 N1 1_555 1_555
N1 C5 1_555 1_555
N2 Zn1 1_555 1_555
N3 Zn1 1_555 1_555
O1 Zn1 1_555 1_555
O2 C1 1_555 1_555
O3 C4 1_555 1_555
O4 C4 1_555 1_555
C1 O1 1_555 1_555
C2 C1 1_555 1_555
C3 C2 1_555 1_555
C4 C3 1_555 1_555
C5 C6 1_555 1_555
C6 H1 1_555 1_555
C7 C6 1_555 1_555
H2 C7 1_555 1_555
C8 C7 1_555 1_555
H3 C8 1_555 1_555
C9 N1 1_555 1_555
H4 C9 1_555 1_555
C10 N2 1_555 1_555
H5 C10 1_555 1_555
H6 C10 1_555 1_555
C11 N2 1_555 1_555
H7 C11 1_555 1_555
H8 C11 1_555 1_555
C12 N3 1_555 1_555
C13 N3 1_555 1_555
H9 C13 1_555 1_555
C14 C13 1_555 1_555
H10 C14 1_555 1_555
C15 C14 1_555 1_555
H11 C15 1_555 1_555
C16 C12 1_555 1_555
H12 C16 1_555 1_555
C17 N2 1_555 1_555
C18 C17 1_555 1_555
H13 C18 1_555 1_555
H14 C18 1_555 1_555
H15 C18 1_555 1_555
C19 C17 1_555 1_555
H16 C19 1_555 1_555
H17 C19 1_555 1_555
H18 C19 1_555 1_555
C20 C17 1_555 1_555
H19 C20 1_555 1_555
H20 C20 1_555 1_555
H21 C20 1_555 1_555
O5 H22 1_555 1_555
H23 O5 1_555 1_555
Zn1E O4 1_555 1_555
O4E Zn1 1_555 1_555
C5 C10 1_555 1_555
C8 C9 1_555 1_555
C11 C12 1_555 1_555
C15 C16 1_555 1_555

#END
