
#######################################################################
#
#                 Cambridge Crystallographic Data Centre
#                                CCDC 
#
#######################################################################
#
# If this CIF has been generated from an entry in the Cambridge 
# Structural Database, then it will include bibliographic, chemical, 
# crystal, experimental, refinement or atomic coordinate data resulting 
# from the CCDC's data processing and validation procedures.
#
#######################################################################

data_HOHJEV
_symmetry_cell_setting           monoclinic
_symmetry_space_group_name_H-M   'P 21/c'
_symmetry_Int_Tables_number      14
_space_group_name_Hall           '-P 2ybc'
loop_
_symmetry_equiv_pos_site_id
_symmetry_equiv_pos_as_xyz
1 x,y,z
2 -x,1/2+y,1/2-z
3 -x,-y,-z
4 x,1/2-y,1/2+z
_cell_length_a                   13.1248(17)
_cell_length_b                   12.8915(16)
_cell_length_c                   19.096(3)
_cell_angle_alpha                90
_cell_angle_beta                 90.331(6)
_cell_angle_gamma                90
_cell_volume                     3230.96
loop_
_atom_site_label
_atom_site_type_symbol
_atom_site_fract_x
_atom_site_fract_y
_atom_site_fract_z
Cu1 Cu 0.79647(8) 0.20196(8) 0.75017(5)
O1 O 0.9172(4) 0.0735(4) 0.7496(3)
N1 N 0.7138(5) 0.1284(5) 0.6748(3)
N2 N 0.8555(6) 0.2936(5) 0.6743(3)
N3 N 0.7091(5) 0.1443(6) 0.8269(3)
N4 N 0.8739(5) 0.2834(4) 0.8244(3)
C1 C 0.9244(7) 0.2345(6) 0.8753(4)
H1 H 0.9288 0.1610 0.8740
C2 C 0.7603(7) 0.0833(7) 0.6223(4)
H2 H 0.8325 0.0787 0.6230
C3 C 0.8686(6) 0.3880(6) 0.8267(4)
H3 H 0.8358 0.4236 0.7893
C4 C 0.6135(6) 0.1373(7) 0.6727(4)
H4 H 0.5793 0.1703 0.7104
C5 C 0.6311(9) 0.0040(11) 0.8866(6)
H5 H 0.6205 -0.0688 0.8893
C6 C 0.6930(8) 0.0416(8) 0.8345(5)
H6 H 0.7248 -0.0056 0.8033
C7 C 0.7079(7) 0.0426(8) 0.5665(4)
H7 H 0.7453 0.0114 0.5296
C8 C 0.7963(9) 0.3423(7) 0.6296(5)
H8 H 0.7246 0.3348 0.6340
C9 C 0.5841(9) 0.0661(14) 0.9349(6)
C10 C 0.9548(9) 0.3041(7) 0.6673(5)
H9 H 1.0000 0.2694 0.6986
C11 C 0.9938(9) 0.3669(8) 0.6134(6)
H10 H 1.0656 0.3727 0.6093
C12 C 0.9339(14) 0.4205(8) 0.5663(5)
C13 C 0.6045(6) 0.0451(7) 0.5618(4)
C14 C 0.6638(9) 0.2054(9) 0.8731(5)
H11 H 0.6752 0.2779 0.8693
C15 C 0.6027(11) 0.1723(14) 0.9253(6)
H12 H 0.5721 0.2214 0.9557
C16 C 0.975(2) 0.4828(11) 0.5135(7)
H13 H 0.9148 0.5037 0.4896
C17 C 0.9072(6) 0.4429(6) 0.8792(4)
H14 H 0.8973 0.5158 0.8798
C18 C 0.9632(6) 0.3954(5) 0.9348(3)
C19 C 1.0046(6) 0.4504(6) 0.9916(3)
H15 H 1.0454 0.4105 1.0228
C20 C 0.9699(7) 0.2867(6) 0.9293(4)
H16 H 1.0068 0.2489 0.9638
C21 C 0.5497(7) 0.0021(8) 0.5055(4)
H17 H 0.5902 -0.0288 0.4701
C22 C 0.5577(7) 0.1000(8) 0.6171(4)
H18 H 0.4862 0.1112 0.6158
C23 C 0.8337(14) 0.4043(9) 0.5763(5)
H19 H 0.7865 0.4368 0.5455
C24 C 0.5219(11) 0.024(2) 0.9871(7)
H20 H 0.5243 0.0791 1.0198
N1B N 0.2862(5) -0.1284(5) 0.3252(3)
C2B C 0.2397(7) -0.0833(7) 0.3777(4)
H2B H 0.1675 -0.0787 0.3770
C4B C 0.3865(6) -0.1373(7) 0.3273(4)
H4B H 0.4207 -0.1703 0.2896
C7B C 0.2921(7) -0.0426(8) 0.4335(4)
H7B H 0.2547 -0.0114 0.4704
C13B C 0.3955(6) -0.0451(7) 0.4382(4)
C21B C 0.4503(7) -0.0021(8) 0.4945(4)
H17B H 0.4098 0.0288 0.5299
C22B C 0.4423(7) -0.1000(8) 0.3829(4)
H18B H 0.5138 -0.1112 0.3842
N2B N 1.1445(6) 0.7064(5) 0.3257(3)
C8B C 1.2037(9) 0.6577(7) 0.3704(5)
H8B H 1.2754 0.6652 0.3660
C10B C 1.0452(9) 0.6959(7) 0.3327(5)
H9B H 1.0000 0.7306 0.3014
C11B C 1.0062(9) 0.6331(8) 0.3866(6)
H10B H 0.9344 0.6273 0.3907
C12B C 1.0661(14) 0.5795(8) 0.4337(5)
C16B C 1.025(2) 0.5172(11) 0.4865(7)
H13B H 1.0852 0.4963 0.5104
C23B C 1.1663(14) 0.5957(9) 0.4237(5)
H19B H 1.2135 0.5632 0.4545
N3B N 0.2909(5) -0.1443(6) 1.1731(3)
C5B C 0.3689(9) -0.0040(11) 1.1134(6)
H5B H 0.3795 0.0688 1.1107
C6B C 0.3070(8) -0.0416(8) 1.1655(5)
H6B H 0.2752 0.0056 1.1967
C9B C 0.4159(9) -0.0661(14) 1.0651(6)
C14B C 0.3362(9) -0.2054(9) 1.1269(5)
H11B H 0.3248 -0.2779 1.1307
C15B C 0.3973(11) -0.1723(14) 1.0747(6)
H12B H 0.4279 -0.2214 1.0443
C24B C 0.4781(11) -0.024(2) 1.0129(7)
H20B H 0.4757 -0.0791 0.9802
N4B N 1.1261(5) 0.7166(4) 1.1756(3)
C1B C 1.0756(7) 0.7655(6) 1.1247(4)
H1B H 1.0712 0.8390 1.1260
C3B C 1.1314(6) 0.6120(6) 1.1733(4)
H3B H 1.1642 0.5764 1.2107
C17B C 1.0928(6) 0.5571(6) 1.1208(4)
H14B H 1.1027 0.4842 1.1202
C18B C 1.0368(6) 0.6046(5) 1.0652(3)
C19B C 0.9954(6) 0.5496(6) 1.0084(3)
H15B H 0.9546 0.5895 0.9772
C20B C 1.0301(7) 0.7133(6) 1.0707(4)
H16B H 0.9932 0.7511 1.0362
Cu1B Cu 0.20353(8) -0.20196(8) 0.24983(5)
O1B O 0.0828(4) -0.0735(4) 0.2504(3)
Cu1B_2 Cu 0.20353(8) -0.20196(8) 1.24983(5)
Cu1B_3 Cu 1.20353(8) 0.79804(8) 0.24983(5)
Cu1B_4 Cu 1.20353(8) 0.79804(8) 1.24983(5)
N2B_2 N 0.1445(6) -0.2936(5) 0.3257(3)
N3B_2 N 0.2909(5) -0.1443(6) 0.1731(3)
N4B_2 N 0.1261(5) -0.2834(4) 0.1756(3)
F1 F 0.2095(8) 0.1907(11) 0.0245(7)
F2 F 0.3592(5) 0.2556(9) 0.0544(9)
B1 B 0.2576(5) 0.2617(8) 0.0648(6)
F3 F 0.2247(10) 0.3577(9) 0.0475(14)
F4 F 0.2371(13) 0.2431(19) 0.1330(6)
F5 F 0.5631(9) 0.5007(6) 0.7280(7)
F6 F 0.6495(4) 0.3571(4) 0.7484(3)
F7 F 0.4891(6) 0.3689(11) 0.7801(11)
F8 F 0.6230(14) 0.4681(13) 0.8336(7)
B2 B 0.5786(6) 0.4232(7) 0.7759(4)
loop_
_geom_bond_atom_site_label_1
_geom_bond_atom_site_label_2
_geom_bond_site_symmetry_1
_geom_bond_site_symmetry_2
Cu1 O1 1_555 1_555
N1 Cu1 1_555 1_555
N2 Cu1 1_555 1_555
N3 Cu1 1_555 1_555
N4 Cu1 1_555 1_555
C1 N4 1_555 1_555
H1 C1 1_555 1_555
C2 N1 1_555 1_555
H2 C2 1_555 1_555
C3 N4 1_555 1_555
H3 C3 1_555 1_555
C4 N1 1_555 1_555
H4 C4 1_555 1_555
C5 H5 1_555 1_555
C6 N3 1_555 1_555
H6 C6 1_555 1_555
C7 C2 1_555 1_555
H7 C7 1_555 1_555
C8 N2 1_555 1_555
H8 C8 1_555 1_555
C9 C5 1_555 1_555
C10 N2 1_555 1_555
H9 C10 1_555 1_555
C11 C10 1_555 1_555
H10 C11 1_555 1_555
C12 C11 1_555 1_555
C13 C7 1_555 1_555
C14 N3 1_555 1_555
H11 C14 1_555 1_555
C15 C9 1_555 1_555
H12 C15 1_555 1_555
C16 C12 1_555 1_555
H13 C16 1_555 1_555
C17 C3 1_555 1_555
H14 C17 1_555 1_555
C18 C17 1_555 1_555
C19 C18 1_555 1_555
H15 C19 1_555 1_555
C20 C1 1_555 1_555
H16 C20 1_555 1_555
C21 C13 1_555 1_555
H17 C21 1_555 1_555
C22 C4 1_555 1_555
H18 C22 1_555 1_555
C23 C8 1_555 1_555
H19 C23 1_555 1_555
C24 C9 1_555 1_555
H20 C24 1_555 1_555
F1 B1 1_555 1_555
F2 B1 1_555 1_555
B1 F3 1_555 1_555
F4 B1 1_555 1_555
F5 B2 1_555 1_555
F6 B2 1_555 1_555
F7 B2 1_555 1_555
F8 B2 1_555 1_555
N1B C2B 1_555 1_555
C2B H2B 1_555 1_555
C4B N1B 1_555 1_555
H4B C4B 1_555 1_555
C7B C2B 1_555 1_555
H7B C7B 1_555 1_555
C13B C7B 1_555 1_555
C21B C21 1_555 1_555
H17B C21B 1_555 1_555
C22B C4B 1_555 1_555
H18B C22B 1_555 1_555
N2B C8B 1_555 1_555
C8B H8B 1_555 1_555
C10B N2B 1_555 1_555
H9B C10B 1_555 1_555
C11B C10B 1_555 1_555
H10B C11B 1_555 1_555
C12B C11B 1_555 1_555
C16B C16 1_555 1_555
H13B C16B 1_555 1_555
C23B C8B 1_555 1_555
H19B C23B 1_555 1_555
N3B C6B 1_555 1_555
C5B H5B 1_555 1_555
C6B C5B 1_555 1_555
H6B C6B 1_555 1_555
C9B C5B 1_555 1_555
C14B N3B 1_555 1_555
H11B C14B 1_555 1_555
C15B C9B 1_555 1_555
H12B C15B 1_555 1_555
C24B C24 1_555 1_555
H20B C24B 1_555 1_555
N4B C1B 1_555 1_555
C1B H1B 1_555 1_555
C3B N4B 1_555 1_555
H3B C3B 1_555 1_555
C17B C3B 1_555 1_555
H14B C17B 1_555 1_555
C18B C17B 1_555 1_555
C19B C19 1_555 1_555
H15B C19B 1_555 1_555
C20B C1B 1_555 1_555
H16B C20B 1_555 1_555
Cu1B N1B 1_555 1_555
O1B Cu1B 1_555 1_555
Cu1B_2 N3B 1_555 1_555
Cu1B_3 N2B 1_555 1_555
Cu1B_4 N4B 1_555 1_555
N2B_2 Cu1B 1_555 1_555
N3B_2 Cu1B 1_555 1_555
N4B_2 Cu1B 1_555 1_555
C5 C6 1_555 1_555
C12 C23 1_555 1_555
C13 C22 1_555 1_555
C14 C15 1_555 1_555
C18 C20 1_555 1_555
C13B C21B 1_555 1_555
C13B C22B 1_555 1_555
C12B C16B 1_555 1_555
C12B C23B 1_555 1_555
C9B C24B 1_555 1_555
C14B C15B 1_555 1_555
C18B C19B 1_555 1_555
C18B C20B 1_555 1_555

#END
