
#######################################################################
#
#                 Cambridge Crystallographic Data Centre
#                                CCDC 
#
#######################################################################
#
# If this CIF has been generated from an entry in the Cambridge 
# Structural Database, then it will include bibliographic, chemical, 
# crystal, experimental, refinement or atomic coordinate data resulting 
# from the CCDC's data processing and validation procedures.
#
#######################################################################

data_HOHKAS
_symmetry_cell_setting           triclinic
_symmetry_space_group_name_H-M   'P -1'
_symmetry_Int_Tables_number      2
_space_group_name_Hall           '-P 1'
loop_
_symmetry_equiv_pos_site_id
_symmetry_equiv_pos_as_xyz
1 x,y,z
2 -x,-y,-z
_cell_length_a                   19.977(3)
_cell_length_b                   19.987(3)
_cell_length_c                   21.754(3)
_cell_angle_alpha                90.221(2)
_cell_angle_beta                 107.2420(10)
_cell_angle_gamma                114.610(2)
_cell_volume                     7460.58
loop_
_atom_site_label
_atom_site_type_symbol
_atom_site_fract_x
_atom_site_fract_y
_atom_site_fract_z
Dy1 Dy 1.265104(13) 0.100716(12) 0.208341(11)
Dy2 Dy 0.787886(14) 0.600976(13) 0.235728(11)
Dy3 Dy 0.498521(13) 0.831606(13) 0.203337(11)
Cu1 Cu 1.04954(4) 0.35426(4) 0.28941(3)
O1 O 1.2323(2) 0.08091(18) 0.09435(17)
O2 O 1.3431(2) 0.21244(18) 0.18039(17)
O3 O 1.2824(2) 0.00961(18) 0.27237(17)
O4 O 1.1512(2) -0.00869(18) 0.16769(17)
O5 O 1.3594(2) 0.16775(18) 0.30667(16)
O6 O 1.1980(2) 0.09181(18) 0.28268(16)
O7 O 1.19510(19) 0.17085(18) 0.17422(16)
O8 O 1.0367(2) 0.22984(19) 0.26018(17)
O9 O 1.4031(2) 0.37673(19) 0.44543(17)
O10 O 1.1133(2) 0.38750(19) 0.23368(17)
O11 O 1.1385(2) 0.39730(19) 0.36837(17)
O12 O 0.9575(2) 0.33554(19) 0.21571(18)
O13 O 0.9895(2) 0.30023(18) 0.34347(17)
O14 O 1.0554(2) 0.47679(19) 0.32143(18)
O15 O 0.7341(2) 0.2966(2) 0.38495(18)
O16 O 0.8646(2) 0.54837(18) 0.21288(17)
O17 O 0.7081(2) 0.4953(2) 0.15772(17)
O18 O 0.8032(2) 0.6379(2) 0.13558(18)
O19 O 0.8904(2) 0.71974(19) 0.26968(18)
O20 O 0.7572(2) 0.66173(19) 0.30860(17)
O21 O 0.7102(2) 0.50964(19) 0.28339(17)
O22 O 0.8707(2) 0.59878(19) 0.33747(18)
O23 O 0.6857(2) 0.63105(18) 0.17374(17)
O24 O 0.5422(2) 0.73979(18) 0.22630(17)
O25 O 0.9044(2) 0.9743(2) 0.28501(19)
O26 O 0.5263(2) 0.80413(19) 0.11126(17)
O27 O 0.6114(2) 0.93306(18) 0.20156(17)
O28 O 0.5853(2) 0.8689(2) 0.31228(17)
O29 O 0.4282(2) 0.76773(19) 0.27082(17)
O30 O 0.3785(2) 0.73870(19) 0.13941(17)
O31 O 0.4447(2) 0.88693(19) 0.11975(17)
O32 O 0.47546(19) 0.92052(18) 0.25566(16)
O33 O 0.36257(19) 1.07850(18) 0.18228(17)
O34 O 0.1178(2) 0.72673(19) 0.08957(17)
N1 N 1.1353(2) 0.1766(2) 0.18131(19)
N2 N 1.0608(2) 0.2046(2) 0.2210(2)
N3 N 1.0205(3) 0.5121(2) 0.2874(2)
N4 N 0.9308(2) 0.5454(2) 0.2361(2)
N5 N 0.6288(2) 0.6407(2) 0.1815(2)
N6 N 0.5614(2) 0.6925(2) 0.2054(2)
N7 N 0.4653(2) 0.9797(2) 0.2448(2)
N8 N 0.4131(2) 1.0538(2) 0.2091(2)
F1 F 1.4763(2) 0.1731(2) 0.42830(17)
F2 F 1.48610(19) 0.27614(19) 0.39330(17)
F3 F 1.43935(18) 0.24277(17) 0.47118(15)
F4 F 1.1378(3) 0.0099(2) 0.3822(3)
F5 F 1.1711(2) 0.1168(2) 0.42983(18)
F6 F 1.0911(2) 0.0821(3) 0.33536(19)
F7 F 1.2710(3) -0.0490(2) 0.39240(17)
F8 F 1.34168(19) -0.07289(18) 0.34726(17)
F9 F 1.2282(2) -0.15607(19) 0.33756(19)
F10 F 1.0133(2) -0.19004(17) 0.15776(19)
F11 F 1.0314(2) -0.12364(19) 0.08227(16)
F12 F 0.99094(18) -0.09401(18) 0.15384(17)
F13 F 1.2100(3) 0.0208(2) -0.02441(18)
F14 F 1.2360(2) 0.1244(2) -0.05955(16)
F15 F 1.1320(2) 0.0714(2) -0.03505(18)
F16 F 1.3990(2) 0.34659(17) 0.08101(17)
F17 F 1.3783(2) 0.35990(17) 0.1699(2)
F18 F 1.4701(2) 0.33111(18) 0.1687(2)
F19 F 1.3331(2) 0.5181(2) 0.44290(17)
F20 F 1.2511(2) 0.44377(18) 0.48327(15)
F21 F 1.2393(2) 0.53978(19) 0.45032(17)
F22 F 1.3007(2) 0.4789(2) 0.22312(18)
F23 F 1.2044(2) 0.38242(19) 0.16354(18)
F24 F 1.1988(2) 0.4865(2) 0.16174(18)
F25 F 0.8321(2) 0.2548(2) 0.10086(16)
F26 F 0.75397(18) 0.25357(18) 0.15119(18)
F27 F 0.83681(19) 0.35727(17) 0.13715(16)
F28 F 0.8097(2) 0.1813(3) 0.35511(19)
F29 F 0.9111(3) 0.1626(2) 0.3816(2)
F30 F 0.91084(19) 0.25334(17) 0.43016(15)
F31 F 0.7882(3) 0.7134(3) 0.0333(3)
F32 F 0.7656(3) 0.6227(3) -0.0311(2)
F33 F 0.8765(2) 0.6812(3) 0.0420(2)
F34 F 0.6221(3) 0.3812(2) 0.00872(18)
F35 F 0.6722(3) 0.3560(2) 0.0997(2)
F36 F 0.5751(3) 0.3785(2) 0.0826(2)
F37 F 0.9946(2) 0.6073(2) 0.43498(19)
F38 F 0.9253(2) 0.5555(2) 0.49366(18)
F39 F 0.9430(3) 0.6649(2) 0.4736(2)
F40 F 0.6047(2) 0.37957(19) 0.30302(17)
F41 F 0.6567(2) 0.4099(2) 0.40572(18)
F42 F 0.5997(3) 0.4705(2) 0.3506(2)
F43 F 0.6863(2) 0.71120(19) 0.37233(17)
F44 F 0.7602(2) 0.6749(2) 0.44183(18)
F45 F 0.7952(2) 0.7909(2) 0.43719(19)
F46 F 1.0281(2) 0.86720(19) 0.39206(18)
F47 F 1.0463(2) 0.79264(19) 0.3356(2)
F48 F 1.0049(2) 0.8689(2) 0.28922(19)
F49 F 0.3482(3) 0.6457(2) 0.3210(2)
F50 F 0.3863(2) 0.7134(3) 0.41235(19)
F51 F 0.3121(2) 0.7310(2) 0.3275(2)
F52 F 0.6955(3) 0.9685(3) 0.4111(2)
F53 F 0.6379(2) 0.9195(2) 0.47676(18)
F54 F 0.6923(3) 0.8672(3) 0.4408(2)
F55 F 0.2767(2) 0.60318(18) 0.0589(2)
F56 F 0.2225(2) 0.63972(18) 0.11153(19)
F57 F 0.2022(2) 0.6527(2) 0.0120(2)
F58 F 0.4316(2) 0.9236(2) -0.01325(18)
F59 F 0.4086(2) 0.98496(18) 0.05184(16)
F60 F 0.3137(2) 0.8992(2) -0.02148(17)
F61 F 0.6916(2) 1.08376(17) 0.16597(17)
F62 F 0.75309(19) 1.04573(17) 0.24465(16)
F63 F 0.7675(2) 1.0400(2) 0.1512(2)
F64 F 0.5882(2) 0.85097(19) -0.02391(16)
F65 F 0.4733(2) 0.7795(2) -0.02157(16)
F66 F 0.5677(2) 0.74835(18) 0.01546(17)
C1 C 1.2695(3) -0.0833(3) 0.3400(3)
C2 C 1.2362(3) -0.0527(3) 0.2789(3)
C3 C 1.1591(3) -0.0954(3) 0.2401(2)
H1 H 1.1310 -0.1418 0.2504
C4 C 1.1232(3) -0.0706(3) 0.1868(3)
C5 C 1.0392(3) -0.1203(3) 0.1454(3)
C6 C 1.2067(3) 0.0847(3) -0.0172(3)
C7 C 1.2489(3) 0.1238(3) 0.0534(3)
C8 C 1.2981(3) 0.1992(3) 0.0648(3)
H2 H 1.3022 0.2253 0.0297
C9 C 1.3416(3) 0.2365(3) 0.1277(3)
C10 C 1.3982(3) 0.3194(3) 0.1362(3)
C11 C 1.4411(3) 0.2181(3) 0.4144(3)
C12 C 1.3593(3) 0.1754(3) 0.3638(2)
C13 C 1.2959(3) 0.1481(3) 0.3862(3)
H3 H 1.3042 0.1561 0.4305
C14 C 1.2205(3) 0.1089(3) 0.3436(2)
C15 C 1.1546(3) 0.0787(3) 0.3730(3)
C16 C 1.5148(4) 0.4664(4) 0.5965(4)
H4 H 1.4861 0.4917 0.6007
H5 H 1.5666 0.4838 0.6227
C17 C 1.4837(3) 0.4089(3) 0.5556(3)
H6 H 1.5141 0.3849 0.5526
C18 C 1.4017(3) 0.3764(3) 0.5115(3)
H7 H 1.3735 0.3260 0.5188
H8 H 1.3760 0.4057 0.5195
C19 C 1.2617(3) 0.3070(3) 0.4036(2)
H9 H 1.2568 0.3117 0.4444
C20 C 1.1959(3) 0.2673(3) 0.3495(2)
H10 H 1.1469 0.2460 0.3542
C21 C 1.2031(3) 0.2592(3) 0.2885(2)
C22 C 1.2771(3) 0.2939(3) 0.2817(2)
H11 H 1.2824 0.2899 0.2409
C23 C 1.3417(3) 0.3338(3) 0.3346(2)
H12 H 1.3904 0.3571 0.3294
C24 C 1.3349(3) 0.3396(3) 0.3957(2)
C25 C 1.1355(3) 0.2147(3) 0.2323(2)
C26 C 1.0041(3) 0.1485(3) 0.1615(2)
C27 C 0.9680(3) 0.0746(3) 0.1859(3)
H13 H 1.0083 0.0607 0.2086
H14 H 0.9313 0.0369 0.1496
H15 H 0.9419 0.0798 0.2149
C28 C 0.9420(3) 0.1732(3) 0.1263(3)
H16 H 0.9103 0.1705 0.1527
H17 H 0.9099 0.1411 0.0856
H18 H 0.9666 0.2234 0.1183
C29 C 1.0763(3) 0.2123(3) 0.0811(3)
H19 H 1.0838 0.2576 0.1035
H20 H 1.0324 0.1970 0.0419
H21 H 1.1221 0.2203 0.0705
C30 C 1.0611(3) 0.1515(3) 0.1250(2)
C31 C 1.0423(3) 0.0780(3) 0.0882(3)
H22 H 1.0822 0.0844 0.0697
H23 H 0.9930 0.0610 0.0541
H24 H 1.0397 0.0419 0.1176
C32 C 1.2234(3) 0.4451(3) 0.2002(3)
C33 C 1.1861(3) 0.4279(3) 0.2543(3)
C34 C 1.2340(3) 0.4598(3) 0.3175(2)
H25 H 1.2860 0.4926 0.3254
C35 C 1.2053(3) 0.4431(3) 0.3695(3)
C36 C 1.2581(3) 0.4869(3) 0.4372(3)
C37 C 0.8868(3) 0.2141(3) 0.3730(3)
C38 C 0.9174(3) 0.2612(3) 0.3231(3)
C39 C 0.8640(3) 0.2548(3) 0.2623(3)
H26 H 0.8114 0.2237 0.2537
C40 C 0.8882(3) 0.2941(3) 0.2147(3)
C41 C 0.8267(3) 0.2894(3) 0.1506(3)
C42 C 0.6818(5) 0.1897(4) 0.5006(4)
H27 H 0.7230 0.1766 0.5130
H28 H 0.6363 0.1618 0.5099
C43 C 0.6878(4) 0.2465(3) 0.4706(3)
H29 H 0.6457 0.2582 0.4588
C44 C 0.7585(3) 0.2946(3) 0.4536(3)
H30 H 0.7825 0.3444 0.4774
H31 H 0.7963 0.2743 0.4650
C45 C 0.7889(3) 0.3459(3) 0.3612(3)
C46 C 0.8686(3) 0.3832(3) 0.3962(3)
H32 H 0.8875 0.3756 0.4387
C47 C 0.9189(3) 0.4313(3) 0.3676(3)
H33 H 0.9720 0.4550 0.3906
C48 C 0.8912(3) 0.4449(3) 0.3043(3)
C49 C 0.8117(3) 0.4079(3) 0.2695(3)
H34 H 0.7928 0.4169 0.2275
C50 C 0.7611(3) 0.3577(3) 0.2972(3)
H35 H 0.7084 0.3317 0.2732
C51 C 0.9454(3) 0.4992(3) 0.2767(3)
C52 C 1.1225(3) 0.5696(3) 0.2358(3)
H36 H 1.1647 0.5703 0.2718
H37 H 1.1425 0.6090 0.2116
H38 H 1.0974 0.5227 0.2080
C53 C 1.0638(3) 0.5807(3) 0.2612(3)
C54 C 1.1048(4) 0.6447(3) 0.3182(3)
H39 H 1.0665 0.6507 0.3329
H40 H 1.1343 0.6899 0.3042
H41 H 1.1392 0.6335 0.3533
C55 C 0.9944(3) 0.5844(3) 0.2079(3)
C56 C 1.0027(3) 0.6627(3) 0.1988(3)
H42 H 0.9557 0.6599 0.1678
H43 H 1.0457 0.6884 0.1833
H44 H 1.0121 0.6892 0.2397
C57 C 0.9710(4) 0.5374(3) 0.1431(3)
H45 H 0.9702 0.4898 0.1507
H46 H 1.0081 0.5623 0.1213
H47 H 0.9202 0.5306 0.1165
C58 C 0.9316(4) 0.5995(3) 0.4484(3)
C59 C 0.8592(3) 0.5694(3) 0.3869(3)
C60 C 0.7889(3) 0.5180(3) 0.3919(3)
H48 H 0.7879 0.5002 0.4313
C61 C 0.7199(3) 0.4925(3) 0.3396(3)
C62 C 0.6443(3) 0.4370(3) 0.3497(3)
C63 C 0.6411(3) 0.3981(3) 0.0717(3)
C64 C 0.6952(3) 0.4806(3) 0.0981(3)
C65 C 0.7237(3) 0.5288(3) 0.0564(3)
H49 H 0.7087 0.5109 0.0126
C66 C 0.7743(3) 0.6037(3) 0.0791(3)
C67 C 0.8005(4) 0.6535(3) 0.0288(3)
C68 C 0.9999(3) 0.8249(3) 0.3349(3)
C69 C 0.9153(3) 0.7654(3) 0.3200(3)
C70 C 0.8756(3) 0.7688(3) 0.3618(3)
H50 H 0.9008 0.8066 0.3972
C71 C 0.7995(3) 0.7176(3) 0.3522(3)
C72 C 0.7604(3) 0.7244(3) 0.4016(3)
C73 C 0.9057(4) 0.9975(4) 0.4465(4)
H51 H 0.8695 1.0169 0.4402
H52 H 0.9196 0.9787 0.4848
C74 C 0.9370(3) 0.9968(3) 0.4016(3)
H53 H 0.9730 0.9771 0.4093
C75 C 0.9184(3) 1.0254(3) 0.3395(3)
H54 H 0.8726 1.0337 0.3336
H55 H 0.9614 1.0728 0.3410
C76 C 0.8358(3) 0.9112(3) 0.2661(3)
C77 C 0.7768(3) 0.8949(3) 0.2932(3)
H56 H 0.7822 0.9287 0.3259
C78 C 0.7106(3) 0.8289(3) 0.2717(3)
H57 H 0.6713 0.8182 0.2900
C79 C 0.7017(3) 0.7775(3) 0.2223(3)
C80 C 0.7603(3) 0.7946(3) 0.1943(3)
H58 H 0.7546 0.7611 0.1612
C81 C 0.8265(3) 0.8611(3) 0.2158(3)
H59 H 0.8652 0.8726 0.1967
C82 C 0.6324(3) 0.7064(3) 0.2031(3)
C83 C 0.5097(4) 0.5874(3) 0.2602(3)
H60 H 0.5620 0.5963 0.2846
H61 H 0.4757 0.5354 0.2552
H62 H 0.4931 0.6157 0.2828
C84 C 0.5071(3) 0.6111(3) 0.1930(3)
C85 C 0.4250(3) 0.5983(3) 0.1531(3)
H63 H 0.4047 0.6194 0.1785
H64 H 0.3921 0.5459 0.1408
H65 H 0.4263 0.6216 0.1146
C86 C 0.5200(4) 0.5772(4) 0.0839(3)
H66 H 0.5222 0.6246 0.0735
H67 H 0.4673 0.5395 0.0656
H68 H 0.5532 0.5657 0.0661
C87 C 0.5472(3) 0.5802(3) 0.1577(3)
C88 C 0.5474(4) 0.5071(3) 0.1759(4)
H69 H 0.5723 0.4916 0.1510
H70 H 0.4947 0.4700 0.1666
H71 H 0.5754 0.5135 0.2214
C89 C 0.5492(3) 0.8053(3) 0.0120(3)
C90 C 0.5682(3) 0.8433(3) 0.0801(3)
C91 C 0.6280(3) 0.9156(3) 0.1001(3)
H72 H 0.6557 0.9387 0.0725
C92 C 0.6460(3) 0.9531(3) 0.1607(3)
C93 C 0.7158(3) 1.0307(3) 0.1811(3)
C94 C 0.6512(3) 0.9047(3) 0.4240(3)
C95 C 0.5770(3) 0.8597(3) 0.3666(3)
C96 C 0.5100(3) 0.8134(3) 0.3809(3)
H73 H 0.5111 0.8123 0.4239
C97 C 0.4416(3) 0.7690(3) 0.3306(3)
C98 C 0.3717(3) 0.7140(3) 0.3488(3)
C99 C 0.2562(3) 0.6566(3) 0.0657(3)
C100 C 0.3275(3) 0.7336(3) 0.0871(3)
C101 C 0.3279(3) 0.7887(3) 0.0482(3)
H74 H 0.2884 0.7772 0.0086
C102 C 0.3870(3) 0.8610(3) 0.0681(3)
C103 C 0.3851(3) 0.9180(3) 0.0210(3)
C104 C -0.0065(5) 0.6082(4) -0.0524(4)
H75 H 0.0218 0.6281 -0.0803
H76 H -0.0461 0.5599 -0.0633
C105 C 0.0089(3) 0.6468(3) 0.0005(3)
H77 H -0.0210 0.6245 0.0268
C106 C 0.0695(3) 0.7237(3) 0.0245(3)
H78 H 0.1009 0.7393 -0.0038
H79 H 0.0454 0.7570 0.0247
C107 C 0.1826(3) 0.7915(3) 0.1163(3)
C108 C 0.2357(3) 0.7890(3) 0.1742(2)
H80 H 0.2239 0.7454 0.1927
C109 C 0.3050(3) 0.8502(3) 0.2040(2)
H81 H 0.3401 0.8473 0.2418
C110 C 0.3236(3) 0.9172(3) 0.1778(2)
C111 C 0.2693(3) 0.9202(3) 0.1212(2)
H82 H 0.2797 0.9645 0.1040
C112 C 0.2007(3) 0.8582(3) 0.0909(3)
H83 H 0.1659 0.8609 0.0527
C113 C 0.3979(3) 0.9814(3) 0.2095(2)
C114 C 0.5254(3) 1.0553(3) 0.2820(3)
C115 C 0.5133(4) 1.0593(3) 0.3475(3)
H84 H 0.4620 1.0551 0.3409
H85 H 0.5513 1.1060 0.3737
H86 H 0.5191 1.0193 0.3692
C116 C 0.6074(3) 1.0645(3) 0.2907(3)
H87 H 0.6176 1.0292 0.3170
H88 H 0.6445 1.1140 0.3116
H89 H 0.6118 1.0562 0.2488
C117 C 0.5291(3) 1.1167(3) 0.1785(3)
H90 H 0.5230 1.0701 0.1598
H91 H 0.5833 1.1514 0.1930
H92 H 0.5001 1.1361 0.1464
C118 C 0.4989(3) 1.1050(3) 0.2363(3)
C119 C 0.5129(3) 1.1784(3) 0.2705(3)
H93 H 0.4945 1.2056 0.2390
H94 H 0.5676 1.2071 0.2928
H95 H 0.4853 1.1688 0.3014
Dy1_2 Dy 0.265104(13) 1.100716(12) 0.208341(11)
O33_2 O 1.36257(19) 0.07850(18) 0.18228(17)
loop_
_geom_bond_atom_site_label_1
_geom_bond_atom_site_label_2
_geom_bond_site_symmetry_1
_geom_bond_site_symmetry_2
Dy1 O1 1_555 1_555
Dy2 O16 1_555 1_555
Dy3 O24 1_555 1_555
Cu1 O8 1_555 1_555
O1 C7 1_555 1_555
O2 Dy1 1_555 1_555
O3 Dy1 1_555 1_555
O4 Dy1 1_555 1_555
O5 Dy1 1_555 1_555
O6 Dy1 1_555 1_555
O7 Dy1 1_555 1_555
O8 N2 1_555 1_555
O9 C18 1_555 1_555
O10 Cu1 1_555 1_555
O11 Cu1 1_555 1_555
O12 Cu1 1_555 1_555
O13 Cu1 1_555 1_555
O14 Cu1 1_555 1_555
O15 C44 1_555 1_555
O16 N4 1_555 1_555
O17 Dy2 1_555 1_555
O18 Dy2 1_555 1_555
O19 Dy2 1_555 1_555
O20 Dy2 1_555 1_555
O21 Dy2 1_555 1_555
O22 Dy2 1_555 1_555
O23 Dy2 1_555 1_555
O24 N6 1_555 1_555
O25 C75 1_555 1_555
O26 Dy3 1_555 1_555
O27 Dy3 1_555 1_555
O28 Dy3 1_555 1_555
O29 Dy3 1_555 1_555
O30 Dy3 1_555 1_555
O31 Dy3 1_555 1_555
O32 Dy3 1_555 1_555
O33 N8 1_555 1_555
O34 C106 1_555 1_555
N1 O7 1_555 1_555
N2 C25 1_555 1_555
N3 O14 1_555 1_555
N4 C51 1_555 1_555
N5 O23 1_555 1_555
N6 C82 1_555 1_555
N7 O32 1_555 1_555
N8 C113 1_555 1_555
F1 C11 1_555 1_555
F2 C11 1_555 1_555
F3 C11 1_555 1_555
F4 C15 1_555 1_555
F5 C15 1_555 1_555
F6 C15 1_555 1_555
F7 C1 1_555 1_555
F8 C1 1_555 1_555
F9 C1 1_555 1_555
F10 C5 1_555 1_555
F11 C5 1_555 1_555
F12 C5 1_555 1_555
F13 C6 1_555 1_555
F14 C6 1_555 1_555
F15 C6 1_555 1_555
F16 C10 1_555 1_555
F17 C10 1_555 1_555
F18 C10 1_555 1_555
F19 C36 1_555 1_555
F20 C36 1_555 1_555
F21 C36 1_555 1_555
F22 C32 1_555 1_555
F23 C32 1_555 1_555
F24 C32 1_555 1_555
F25 C41 1_555 1_555
F26 C41 1_555 1_555
F27 C41 1_555 1_555
F28 C37 1_555 1_555
F29 C37 1_555 1_555
F30 C37 1_555 1_555
F31 C67 1_555 1_555
F32 C67 1_555 1_555
F33 C67 1_555 1_555
F34 C63 1_555 1_555
F35 C63 1_555 1_555
F36 C63 1_555 1_555
F37 C58 1_555 1_555
F38 C58 1_555 1_555
F39 C58 1_555 1_555
F40 C62 1_555 1_555
F41 C62 1_555 1_555
F42 C62 1_555 1_555
F43 C72 1_555 1_555
F44 C72 1_555 1_555
F45 C72 1_555 1_555
F46 C68 1_555 1_555
F47 C68 1_555 1_555
F48 C68 1_555 1_555
F49 C98 1_555 1_555
F50 C98 1_555 1_555
F51 C98 1_555 1_555
F52 C94 1_555 1_555
F53 C94 1_555 1_555
F54 C94 1_555 1_555
F55 C99 1_555 1_555
F56 C99 1_555 1_555
F57 C99 1_555 1_555
F58 C103 1_555 1_555
F59 C103 1_555 1_555
F60 C103 1_555 1_555
F61 C93 1_555 1_555
F62 C93 1_555 1_555
F63 C93 1_555 1_555
F64 C89 1_555 1_555
F65 C89 1_555 1_555
F66 C89 1_555 1_555
C1 C2 1_555 1_555
C2 O3 1_555 1_555
C3 C2 1_555 1_555
H1 C3 1_555 1_555
C4 O4 1_555 1_555
C5 C4 1_555 1_555
C6 C7 1_555 1_555
C7 C8 1_555 1_555
C8 H2 1_555 1_555
C9 O2 1_555 1_555
C10 C9 1_555 1_555
C11 C12 1_555 1_555
C12 O5 1_555 1_555
C13 C12 1_555 1_555
H3 C13 1_555 1_555
C14 O6 1_555 1_555
C15 C14 1_555 1_555
C16 H4 1_555 1_555
H5 C16 1_555 1_555
C17 C16 1_555 1_555
H6 C17 1_555 1_555
C18 C17 1_555 1_555
H7 C18 1_555 1_555
H8 C18 1_555 1_555
C19 H9 1_555 1_555
C20 C19 1_555 1_555
H10 C20 1_555 1_555
C21 C20 1_555 1_555
C22 C21 1_555 1_555
H11 C22 1_555 1_555
C23 C22 1_555 1_555
H12 C23 1_555 1_555
C24 O9 1_555 1_555
C25 N1 1_555 1_555
C26 N2 1_555 1_555
C27 C26 1_555 1_555
H13 C27 1_555 1_555
H14 C27 1_555 1_555
H15 C27 1_555 1_555
C28 C26 1_555 1_555
H16 C28 1_555 1_555
H17 C28 1_555 1_555
H18 C28 1_555 1_555
C29 H19 1_555 1_555
H20 C29 1_555 1_555
H21 C29 1_555 1_555
C30 N1 1_555 1_555
C31 C30 1_555 1_555
H22 C31 1_555 1_555
H23 C31 1_555 1_555
H24 C31 1_555 1_555
C32 C33 1_555 1_555
C33 O10 1_555 1_555
C34 C33 1_555 1_555
H25 C34 1_555 1_555
C35 O11 1_555 1_555
C36 C35 1_555 1_555
C37 C38 1_555 1_555
C38 O13 1_555 1_555
C39 C38 1_555 1_555
H26 C39 1_555 1_555
C40 O12 1_555 1_555
C41 C40 1_555 1_555
C42 H27 1_555 1_555
H28 C42 1_555 1_555
C43 C42 1_555 1_555
H29 C43 1_555 1_555
C44 C43 1_555 1_555
H30 C44 1_555 1_555
H31 C44 1_555 1_555
C45 O15 1_555 1_555
C46 C45 1_555 1_555
H32 C46 1_555 1_555
C47 C46 1_555 1_555
H33 C47 1_555 1_555
C48 C47 1_555 1_555
C49 C48 1_555 1_555
H34 C49 1_555 1_555
C50 C45 1_555 1_555
H35 C50 1_555 1_555
C51 N3 1_555 1_555
C52 H36 1_555 1_555
H37 C52 1_555 1_555
H38 C52 1_555 1_555
C53 N3 1_555 1_555
C54 C53 1_555 1_555
H39 C54 1_555 1_555
H40 C54 1_555 1_555
H41 C54 1_555 1_555
C55 N4 1_555 1_555
C56 C55 1_555 1_555
H42 C56 1_555 1_555
H43 C56 1_555 1_555
H44 C56 1_555 1_555
C57 C55 1_555 1_555
H45 C57 1_555 1_555
H46 C57 1_555 1_555
H47 C57 1_555 1_555
C58 C59 1_555 1_555
C59 O22 1_555 1_555
C60 C59 1_555 1_555
H48 C60 1_555 1_555
C61 O21 1_555 1_555
C62 C61 1_555 1_555
C63 C64 1_555 1_555
C64 O17 1_555 1_555
C65 C64 1_555 1_555
H49 C65 1_555 1_555
C66 O18 1_555 1_555
C67 C66 1_555 1_555
C68 C69 1_555 1_555
C69 O19 1_555 1_555
C70 C69 1_555 1_555
H50 C70 1_555 1_555
C71 O20 1_555 1_555
C72 C71 1_555 1_555
C73 H51 1_555 1_555
H52 C73 1_555 1_555
C74 C73 1_555 1_555
H53 C74 1_555 1_555
C75 C74 1_555 1_555
H54 C75 1_555 1_555
H55 C75 1_555 1_555
C76 O25 1_555 1_555
C77 C76 1_555 1_555
H56 C77 1_555 1_555
C78 C77 1_555 1_555
H57 C78 1_555 1_555
C79 C78 1_555 1_555
C80 C79 1_555 1_555
H58 C80 1_555 1_555
C81 C76 1_555 1_555
H59 C81 1_555 1_555
C82 N5 1_555 1_555
C83 H60 1_555 1_555
H61 C83 1_555 1_555
H62 C83 1_555 1_555
C84 N6 1_555 1_555
C85 C84 1_555 1_555
H63 C85 1_555 1_555
H64 C85 1_555 1_555
H65 C85 1_555 1_555
C86 H66 1_555 1_555
H67 C86 1_555 1_555
H68 C86 1_555 1_555
C87 N5 1_555 1_555
C88 C87 1_555 1_555
H69 C88 1_555 1_555
H70 C88 1_555 1_555
H71 C88 1_555 1_555
C89 C90 1_555 1_555
C90 O26 1_555 1_555
C91 C90 1_555 1_555
H72 C91 1_555 1_555
C92 O27 1_555 1_555
C93 C92 1_555 1_555
C94 C95 1_555 1_555
C95 O28 1_555 1_555
C96 C95 1_555 1_555
H73 C96 1_555 1_555
C97 O29 1_555 1_555
C98 C97 1_555 1_555
C99 C100 1_555 1_555
C100 O30 1_555 1_555
C101 C100 1_555 1_555
H74 C101 1_555 1_555
C102 O31 1_555 1_555
C103 C102 1_555 1_555
C104 H75 1_555 1_555
H76 C104 1_555 1_555
C105 C104 1_555 1_555
H77 C105 1_555 1_555
C106 C105 1_555 1_555
H78 C106 1_555 1_555
H79 C106 1_555 1_555
C107 O34 1_555 1_555
C108 C107 1_555 1_555
H80 C108 1_555 1_555
C109 C108 1_555 1_555
H81 C109 1_555 1_555
C110 C109 1_555 1_555
C111 C110 1_555 1_555
H82 C111 1_555 1_555
C112 C107 1_555 1_555
H83 C112 1_555 1_555
C113 N7 1_555 1_555
C114 N7 1_555 1_555
C115 C114 1_555 1_555
H84 C115 1_555 1_555
H85 C115 1_555 1_555
H86 C115 1_555 1_555
C116 C114 1_555 1_555
H87 C116 1_555 1_555
H88 C116 1_555 1_555
H89 C116 1_555 1_555
C117 H90 1_555 1_555
H91 C117 1_555 1_555
H92 C117 1_555 1_555
C118 N8 1_555 1_555
C119 C118 1_555 1_555
H93 C119 1_555 1_555
H94 C119 1_555 1_555
H95 C119 1_555 1_555
Dy1_2 O33 1_555 1_555
O33_2 Dy1 1_555 1_555
C3 C4 1_555 1_555
C8 C9 1_555 1_555
C13 C14 1_555 1_555
C19 C24 1_555 1_555
C21 C25 1_555 1_555
C23 C24 1_555 1_555
C26 C30 1_555 1_555
C29 C30 1_555 1_555
C34 C35 1_555 1_555
C39 C40 1_555 1_555
C48 C51 1_555 1_555
C49 C50 1_555 1_555
C52 C53 1_555 1_555
C53 C55 1_555 1_555
C60 C61 1_555 1_555
C65 C66 1_555 1_555
C70 C71 1_555 1_555
C79 C82 1_555 1_555
C80 C81 1_555 1_555
C83 C84 1_555 1_555
C84 C87 1_555 1_555
C86 C87 1_555 1_555
C91 C92 1_555 1_555
C96 C97 1_555 1_555
C101 C102 1_555 1_555
C110 C113 1_555 1_555
C111 C112 1_555 1_555
C114 C118 1_555 1_555
C117 C118 1_555 1_555

#END
