
#######################################################################
#
#                 Cambridge Crystallographic Data Centre
#                                CCDC 
#
#######################################################################
#
# If this CIF has been generated from an entry in the Cambridge 
# Structural Database, then it will include bibliographic, chemical, 
# crystal, experimental, refinement or atomic coordinate data resulting 
# from the CCDC's data processing and validation procedures.
#
#######################################################################

data_HOHLOH
_symmetry_cell_setting           triclinic
_symmetry_space_group_name_H-M   'P -1'
_symmetry_Int_Tables_number      2
_space_group_name_Hall           '-P 1'
loop_
_symmetry_equiv_pos_site_id
_symmetry_equiv_pos_as_xyz
1 x,y,z
2 -x,-y,-z
_cell_length_a                   20.008(4)
_cell_length_b                   20.113(4)
_cell_length_c                   22.020(4)
_cell_angle_alpha                107.44(3)
_cell_angle_beta                 91.79(3)
_cell_angle_gamma                114.56(3)
_cell_volume                     7564.13
loop_
_atom_site_label
_atom_site_type_symbol
_atom_site_fract_x
_atom_site_fract_y
_atom_site_fract_z
Tb1 Tb -0.104812(17) 0.231373(17) 0.291249(15)
Tb2 Tb 0.163913(17) -0.003495(17) 0.295639(15)
Tb3 Tb 0.392973(17) -0.292524(17) 0.267774(15)
Cu1 Cu -0.35464(5) 0.45295(4) 0.21529(4)
O1 O -0.3026(2) 0.5167(2) 0.1657(2)
O2 O -0.3355(2) 0.5423(2) 0.2919(2)
O3 O -0.3885(2) 0.3842(2) 0.2654(2)
O4 O -0.3992(2) 0.3684(2) 0.1338(2)
O5 O -0.2318(2) 0.4630(2) 0.2407(2)
O6 O -0.1772(2) 0.2992(2) 0.3207(2)
O7 O -0.2160(2) 0.1534(2) 0.3176(2)
O8 O -0.0842(2) 0.2671(2) 0.4055(2)
O9 O -0.0980(2) 0.2961(2) 0.2159(2)
O10 O -0.1752(2) 0.1356(2) 0.1920(2)
O11 O -0.0138(2) 0.2138(2) 0.2298(2)
O12 O 0.0058(2) 0.3461(2) 0.3330(2)
O13 O -0.0785(2) 0.1383(2) 0.3205(2)
O14 O 0.0762(2) 0.0249(2) 0.2461(2)
O15 O 0.1231(2) -0.0896(2) 0.1862(2)
O16 O 0.2263(2) 0.0670(2) 0.2303(2)
O17 O 0.1129(2) 0.0519(2) 0.3800(2)
O18 O 0.2609(2) 0.1164(2) 0.3610(2)
O19 O 0.0615(2) -0.1159(2) 0.2967(2)
O20 O 0.1949(3) -0.0318(3) 0.3860(2)
O21 O 0.2532(2) -0.0498(2) 0.2696(2)
O22 O 0.3646(2) -0.1883(2) 0.3269(2)
O23 O 0.3288(2) -0.2667(2) 0.1924(2)
O24 O 0.2733(2) -0.3952(2) 0.2342(2)
O25 O 0.5002(2) -0.2090(2) 0.3469(2)
O26 O 0.3598(2) -0.3038(3) 0.3682(2)
O27 O 0.3917(3) -0.3791(3) 0.1672(2)
O28 O 0.4825(2) -0.2183(2) 0.2187(2)
O29 O 0.4500(2) -0.3645(2) 0.2929(2)
O30 O 0.5184(2) -0.5555(2) 0.1860(2)
O31 O 0.6948(3) -0.2398(3) 0.1221(2)
O32 O 0.2749(2) 0.3838(2) 0.4131(2)
O33 O -0.3910(3) 0.1054(3) 0.0427(2)
O34 O 0.0211(2) -0.4120(2) 0.2151(2)
N1 N 0.4840(3) -0.5212(3) 0.2187(3)
N2 N 0.4521(3) -0.4311(3) 0.2698(3)
N3 N 0.3544(3) -0.1331(3) 0.3168(3)
N4 N 0.3018(3) -0.0675(3) 0.2908(2)
N5 N 0.0171(3) 0.0351(3) 0.2571(3)
N6 N -0.0549(3) 0.0877(3) 0.2939(3)
N7 N -0.1804(3) 0.3605(3) 0.3155(2)
N8 N -0.2068(3) 0.4370(3) 0.2781(3)
F1 F -0.2551(2) 0.7449(2) 0.36295(19)
F2 F -0.2608(3) 0.6621(2) 0.40857(19)
F3 F -0.3610(2) 0.6610(2) 0.36947(19)
F4 F -0.1592(2) 0.6122(3) 0.1395(2)
F5 F -0.1976(2) 0.6997(2) 0.15586(19)
F6 F -0.2585(2) 0.5893(2) 0.08010(18)
F7 F -0.5409(3) 0.2791(4) 0.0480(2)
F8 F -0.4486(3) 0.2627(3) 0.0162(2)
F9 F -0.5272(4) 0.1792(3) 0.0494(2)
F10 F -0.4892(3) 0.2939(4) 0.3301(3)
F11 F -0.4862(3) 0.1940(3) 0.2640(3)
F12 F -0.3878(2) 0.2849(3) 0.3268(2)
F13 F -0.3642(2) 0.1165(3) 0.3246(3)
F14 F -0.3350(2) 0.0277(2) 0.3301(3)
F15 F -0.3495(2) 0.1003(3) 0.4140(2)
F16 F -0.1257(3) 0.2672(3) 0.5577(2)
F17 F -0.0235(3) 0.2866(3) 0.5246(2)
F18 F -0.0672(3) 0.3689(3) 0.5334(2)
F19 F 0.0914(2) 0.5059(2) 0.3478(2)
F20 F 0.1223(2) 0.4674(2) 0.41971(19)
F21 F 0.1878(2) 0.4843(2) 0.3454(2)
F22 F 0.0425(3) 0.2235(3) 0.1117(2)
F23 F 0.1507(2) 0.2688(2) 0.1673(2)
F24 F 0.0687(2) 0.1557(2) 0.1577(2)
F25 F -0.1250(2) 0.3207(2) 0.0701(2)
F26 F -0.0856(3) 0.4027(2) 0.1660(2)
F27 F -0.0167(2) 0.3523(3) 0.1187(3)
F28 F -0.2546(2) 0.0541(2) 0.0284(2)
F29 F -0.2898(3) 0.0115(2) 0.1057(2)
F30 F -0.1890(3) 0.0147(3) 0.0730(2)
F31 F 0.3582(2) 0.2765(3) 0.3928(3)
F32 F 0.3548(3) 0.2895(3) 0.4908(3)
F33 F 0.3991(2) 0.2182(2) 0.4349(3)
F34 F 0.2616(3) 0.1817(3) 0.1739(2)
F35 F 0.3499(3) 0.1498(3) 0.1859(3)
F36 F 0.2837(3) 0.1083(3) 0.0920(2)
F37 F 0.2246(2) 0.0226(2) 0.5175(2)
F38 F 0.1527(2) -0.0912(3) 0.5195(2)
F39 F 0.2540(2) -0.0719(3) 0.4806(2)
F40 F -0.0459(3) -0.2682(3) 0.3486(3)
F41 F -0.0870(2) -0.1921(2) 0.3303(2)
F42 F -0.0527(2) -0.2576(2) 0.2545(2)
F43 F 0.0877(4) -0.1489(3) 0.0198(2)
F44 F 0.1081(5) -0.2090(4) 0.0717(4)
F45 F 0.0198(4) -0.1884(5) 0.0795(3)
F46 F 0.0186(2) 0.0922(3) 0.4479(2)
F47 F 0.1077(2) 0.1842(3) 0.5224(2)
F48 F 0.0793(3) 0.0656(3) 0.5103(2)
F49 F 0.3795(3) -0.2641(4) 0.5338(2)
F50 F 0.2878(4) -0.2879(4) 0.4699(3)
F51 F 0.3219(4) -0.3740(3) 0.4616(3)
F52 F 0.6188(3) -0.1191(3) 0.4962(2)
F53 F 0.6179(3) -0.0737(3) 0.4218(3)
F54 F 0.6419(2) -0.1701(3) 0.4063(3)
F55 F 0.1233(2) -0.5121(2) 0.2122(2)
F56 F 0.1236(2) -0.5386(2) 0.1112(2)
F57 F 0.1997(2) -0.5527(2) 0.1704(2)
F58 F 0.1946(2) -0.3104(2) 0.0644(2)
F59 F 0.2794(2) -0.2002(2) 0.1248(2)
F60 F 0.3096(3) -0.2793(3) 0.0572(2)
F61 F 0.5195(3) -0.1146(3) 0.1464(3)
F62 F 0.6107(2) -0.1134(2) 0.2003(2)
F63 F 0.5815(2) -0.1722(3) 0.0977(2)
F64 F 0.4256(3) -0.4398(3) 0.0107(2)
F65 F 0.3836(3) -0.5049(2) 0.0726(2)
F66 F 0.3181(3) -0.4607(3) 0.0349(3)
C1 C 0.7688(5) -0.2185(5) -0.0274(4)
H1 H 0.7234 -0.2330 -0.0551
H2 H 0.7810 -0.2615 -0.0378
H3 H 0.8086 -0.1748 -0.0336
C2 C 0.7586(5) -0.1969(5) 0.0418(4)
H4 H 0.7442 -0.1548 0.0517
H5 H 0.8055 -0.1785 0.0699
C3 C 0.6995(4) -0.2655(4) 0.0546(3)
H6 H 0.6517 -0.2833 0.0279
H7 H 0.7130 -0.3082 0.0446
C4 C 0.6468(4) -0.2932(4) 0.1453(3)
C5 C 0.6086(4) -0.3725(4) 0.1111(3)
H8 H 0.6151 -0.3924 0.0690
C6 C 0.5609(4) -0.4217(4) 0.1393(3)
H9 H 0.5358 -0.4748 0.1161
C7 C 0.5499(4) -0.3931(4) 0.2020(3)
C8 C 0.5874(3) -0.3135(4) 0.2361(3)
H10 H 0.5797 -0.2935 0.2776
C9 C 0.6360(4) -0.2642(4) 0.2084(3)
H11 H 0.6618 -0.2112 0.2319
C10 C 0.4973(4) -0.4461(4) 0.2294(3)
C11 C 0.4281(4) -0.6217(4) 0.2695(4)
H12 H 0.4240 -0.6649 0.2332
H13 H 0.3909 -0.6401 0.2948
H14 H 0.4768 -0.5971 0.2957
C12 C 0.4161(4) -0.5636(4) 0.2457(4)
C13 C 0.3497(4) -0.6064(4) 0.1876(4)
H15 H 0.3432 -0.5688 0.1728
H16 H 0.3049 -0.6355 0.2012
H17 H 0.3600 -0.6411 0.1531
C14 C 0.4641(4) -0.4691(4) 0.3627(3)
H18 H 0.5124 -0.4652 0.3553
H19 H 0.4419 -0.5068 0.3834
H20 H 0.4693 -0.4194 0.3899
C15 C 0.4139(4) -0.4946(4) 0.2974(3)
C16 C 0.3366(4) -0.5027(4) 0.3069(3)
H21 H 0.3407 -0.4557 0.3385
H22 H 0.3114 -0.5457 0.3216
H23 H 0.3086 -0.5118 0.2666
C17 C 0.1677(4) -0.5072(4) 0.1688(4)
C18 C 0.2255(4) -0.4237(4) 0.1828(3)
C19 C 0.2213(4) -0.3864(4) 0.1398(3)
H24 H 0.1827 -0.4132 0.1042
C20 C 0.2720(4) -0.3113(4) 0.1482(3)
C21 C 0.2630(4) -0.2750(4) 0.0983(3)
C22 C 0.3858(5) -0.4446(5) 0.0580(4)
C23 C 0.4184(4) -0.3702(4) 0.1181(3)
C24 C 0.4700(4) -0.3016(4) 0.1112(3)
H25 H 0.4857 -0.3026 0.0718
C25 C 0.4981(4) -0.2315(4) 0.1631(3)
C26 C 0.5525(4) -0.1575(4) 0.1512(4)
C27 C 0.3462(5) -0.3005(5) 0.4727(4)
C28 C 0.3946(4) -0.2735(4) 0.4247(3)
C29 C 0.4697(4) -0.2228(4) 0.4477(3)
H26 H 0.4891 -0.2074 0.4913
C30 C 0.5165(4) -0.1947(4) 0.4065(3)
C31 C 0.6001(4) -0.1387(4) 0.4333(4)
C32 C -0.0809(5) -0.4856(5) 0.0428(4)
H27 H -0.0695 -0.5086 0.0020
H28 H -0.0873 -0.4410 0.0423
H29 H -0.1261 -0.5230 0.0498
C33 C -0.0167(4) -0.4604(4) 0.0973(3)
H30 H -0.0073 -0.5045 0.0953
H31 H 0.0283 -0.4203 0.0915
C34 C -0.0352(4) -0.4295(4) 0.1622(3)
H32 H -0.0401 -0.3827 0.1653
H33 H -0.0829 -0.4678 0.1659
C35 C 0.0832(3) -0.3436(4) 0.2332(3)
C36 C 0.1349(3) -0.3301(4) 0.2840(3)
H34 H 0.1245 -0.3671 0.3040
C37 C 0.2017(4) -0.2630(4) 0.3059(3)
H35 H 0.2360 -0.2553 0.3399
C38 C 0.2170(3) -0.2064(3) 0.2761(3)
C39 C 0.1630(3) -0.2189(4) 0.2268(3)
H36 H 0.1716 -0.1806 0.2086
C40 C 0.0977(4) -0.2865(4) 0.2045(3)
H37 H 0.0632 -0.2944 0.1706
C41 C 0.2880(4) -0.1382(3) 0.2947(3)
C42 C 0.4879(4) -0.0532(4) 0.3205(5)
H38 H 0.5047 -0.0773 0.3450
H39 H 0.5254 -0.0009 0.3291
H40 H 0.4789 -0.0823 0.2751
C43 C 0.4165(4) -0.0519(4) 0.3395(4)
C44 C 0.4223(5) -0.0206(4) 0.4115(4)
H41 H 0.3778 -0.0156 0.4212
H42 H 0.4648 0.0295 0.4291
H43 H 0.4280 -0.0557 0.4303
C45 C 0.4031(4) -0.0212(4) 0.2341(4)
H44 H 0.3946 -0.0737 0.2118
H45 H 0.4546 0.0136 0.2376
H46 H 0.3721 -0.0082 0.2104
C46 C 0.3839(4) -0.0135(4) 0.3023(3)
C47 C 0.3992(4) 0.0690(4) 0.3391(3)
H47 H 0.3804 0.0887 0.3116
H48 H 0.4521 0.1006 0.3532
H49 H 0.3749 0.0703 0.3761
C48 C 0.1965(4) -0.0529(4) 0.4852(3)
C49 C 0.1566(4) -0.0729(4) 0.4164(3)
C50 C 0.0837(4) -0.1314(4) 0.3967(3)
H50 H 0.0619 -0.1585 0.4239
C51 C 0.0433(4) -0.1497(4) 0.3371(3)
C52 C -0.0361(4) -0.2180(4) 0.3184(4)
C53 C 0.3448(4) 0.2382(4) 0.4341(3)
C54 C 0.2675(4) 0.1680(4) 0.4127(3)
C55 C 0.2138(4) 0.1691(4) 0.4506(3)
H51 H 0.2266 0.2100 0.4895
C56 C 0.1414(4) 0.1103(4) 0.4314(3)
C57 C 0.0861(4) 0.1135(4) 0.4781(3)
C58 C 0.2809(5) 0.1227(5) 0.1538(4)
C59 C 0.2264(4) 0.0527(4) 0.1710(3)
C60 C 0.1842(4) -0.0158(4) 0.1206(3)
H52 H 0.1880 -0.0178 0.0782
C61 C 0.1356(4) -0.0825(4) 0.1327(3)
C62 C 0.0894(5) -0.1572(5) 0.0742(4)
C63 C 0.3911(7) 0.5281(8) 0.5620(6)
H53 H 0.3742 0.5677 0.5725
H54 H 0.4447 0.5521 0.5723
H55 H 0.3705 0.4945 0.5865
C64 C 0.3690(7) 0.4868(8) 0.4992(7)
H56 H 0.3933 0.4530 0.4880
H57 H 0.3859 0.5223 0.4752
C65 C 0.2817(4) 0.4350(4) 0.4764(3)
H58 H 0.2609 0.4061 0.5049
H59 H 0.2566 0.4669 0.4752
C66 C 0.2096(4) 0.3180(4) 0.3866(3)
C67 C 0.2109(4) 0.2646(4) 0.3293(3)
H60 H 0.2539 0.2763 0.3110
C68 C 0.1488(3) 0.1948(4) 0.3000(3)
H61 H 0.1508 0.1589 0.2628
C69 C 0.0828(3) 0.1767(3) 0.3250(3)
C70 C 0.0815(4) 0.2310(4) 0.3811(3)
H62 H 0.0379 0.2199 0.3985
C71 C 0.1441(4) 0.3016(4) 0.4117(3)
H63 H 0.1421 0.3376 0.4488
C72 C 0.0176(4) 0.1024(3) 0.2936(3)
C73 C -0.0640(4) -0.0099(4) 0.1554(3)
H64 H -0.0544 0.0432 0.1638
H65 H -0.1130 -0.0440 0.1300
H66 H -0.0275 -0.0201 0.1321
C74 C -0.0591(4) -0.0242(4) 0.2200(3)
C75 C -0.0694(4) -0.1062(4) 0.2088(4)
H67 H -0.0372 -0.1173 0.1802
H68 H -0.1204 -0.1425 0.1898
H69 H -0.0570 -0.1108 0.2494
C76 C -0.1816(4) -0.0128(4) 0.2332(4)
H70 H -0.2066 0.0066 0.2653
H71 H -0.2114 -0.0677 0.2115
H72 H -0.1743 0.0135 0.2023
C77 C -0.1070(4) 0.0016(4) 0.2654(3)
C78 C -0.1154(4) -0.0286(4) 0.3227(4)
H73 H -0.0676 -0.0208 0.3413
H74 H -0.1493 -0.0832 0.3076
H75 H -0.1347 -0.0008 0.3548
C79 C 0.1185(4) 0.4582(4) 0.3568(4)
C80 C 0.0675(4) 0.3738(4) 0.3149(3)
C81 C 0.0918(4) 0.3376(4) 0.2629(3)
H76 H 0.1383 0.3655 0.2539
C82 C 0.0485(4) 0.2604(4) 0.2236(3)
C83 C 0.0779(4) 0.2270(4) 0.1641(3)
C84 C -0.0850(4) 0.3382(4) 0.1274(3)
C85 C -0.1164(3) 0.2730(4) 0.1558(3)
C86 C -0.1582(4) 0.1975(4) 0.1140(3)
H77 H -0.1688 0.1886 0.0700
C87 C -0.2307(4) 0.0527(4) 0.0846(3)
C88 C -0.1849(4) 0.1352(4) 0.1357(3)
C89 C -0.3235(4) 0.0999(4) 0.3600(4)
C90 C -0.2403(4) 0.1564(4) 0.3700(3)
C91 C -0.2015(4) 0.2004(4) 0.4329(3)
H78 H -0.2265 0.1965 0.4675
C92 C -0.1251(4) 0.2506(4) 0.4444(3)
C93 C -0.0860(4) 0.2934(4) 0.5160(3)
C94 C -0.4135(6) -0.0235(5) -0.0779(4)
H79 H -0.4462 -0.0709 -0.1119
H80 H -0.4097 -0.0339 -0.0385
H81 H -0.3649 -0.0028 -0.0892
C95 C -0.4445(4) 0.0350(4) -0.0685(3)
H82 H -0.4919 0.0155 -0.0540
H83 H -0.4537 0.0407 -0.1098
C96 C -0.3924(4) 0.1138(4) -0.0200(3)
H84 H -0.3426 0.1311 -0.0305
H85 H -0.4101 0.1519 -0.0203
C97 C -0.3488(3) 0.1702(4) 0.0949(3)
C98 C -0.3428(3) 0.1599(4) 0.1534(3)
H86 H -0.3678 0.1102 0.1556
C99 C -0.3008(3) 0.2215(3) 0.2089(3)
H87 H -0.2971 0.2131 0.2479
C100 C -0.2635(3) 0.2971(3) 0.2066(3)
C101 C -0.2697(3) 0.3068(4) 0.1468(3)
H88 H -0.2450 0.3563 0.1442
C102 C -0.3116(3) 0.2449(3) 0.0918(3)
H89 H -0.3153 0.2528 0.0525
C103 C -0.2179(3) 0.3620(3) 0.2646(3)
C104 C -0.2147(4) 0.4180(4) 0.4147(3)
H90 H -0.2594 0.4125 0.3920
H91 H -0.1982 0.4609 0.4547
H92 H -0.2246 0.3710 0.4233
C105 C -0.1534(4) 0.4332(4) 0.3728(3)
C106 C -0.0799(4) 0.4512(4) 0.4111(3)
H93 H -0.0871 0.4105 0.4282
H94 H -0.0627 0.4999 0.4460
H95 H -0.0436 0.4545 0.3832
C107 C -0.1720(4) 0.5553(4) 0.3754(3)
H96 H -0.1678 0.5884 0.3507
H97 H -0.1395 0.5858 0.4167
H98 H -0.2226 0.5314 0.3818
C108 C -0.1495(4) 0.4921(3) 0.3390(3)
C109 C -0.0753(4) 0.5279(4) 0.3171(3)
H99 H -0.0644 0.4873 0.2911
H100 H -0.0364 0.5604 0.3543
H101 H -0.0785 0.5587 0.2922
C110 C -0.4919(5) 0.2547(5) 0.0603(4)
C111 C -0.4479(4) 0.3023(4) 0.1292(3)
C112 C -0.4652(4) 0.2697(4) 0.1773(3)
H102 H -0.5005 0.2181 0.1662
C113 C -0.4316(4) 0.3120(4) 0.2410(3)
C114 C -0.4495(4) 0.2710(4) 0.2911(4)
C115 C -0.2206(4) 0.6227(4) 0.1401(3)
C116 C -0.2659(4) 0.5890(4) 0.1873(3)
C117 C -0.2594(4) 0.6395(4) 0.2489(3)
H103 H -0.2295 0.6926 0.2593
C118 C -0.2959(4) 0.6129(4) 0.2943(3)
C119 C -0.2928(4) 0.6710(4) 0.3591(3)
Cu1_2 Cu 0.64536(5) -0.54705(4) 0.21529(4)
O30_2 O -0.4816(2) 0.4445(2) 0.1860(2)
loop_
_geom_bond_atom_site_label_1
_geom_bond_atom_site_label_2
_geom_bond_site_symmetry_1
_geom_bond_site_symmetry_2
Tb1 O6 1_555 1_555
Tb2 O14 1_555 1_555
Tb3 O22 1_555 1_555
Cu1 O1 1_555 1_555
O1 C116 1_555 1_555
O2 Cu1 1_555 1_555
O3 Cu1 1_555 1_555
O4 Cu1 1_555 1_555
O5 Cu1 1_555 1_555
O6 N7 1_555 1_555
O7 Tb1 1_555 1_555
O8 Tb1 1_555 1_555
O9 Tb1 1_555 1_555
O10 Tb1 1_555 1_555
O11 Tb1 1_555 1_555
O12 Tb1 1_555 1_555
O13 Tb1 1_555 1_555
O14 N5 1_555 1_555
O15 Tb2 1_555 1_555
O16 Tb2 1_555 1_555
O17 Tb2 1_555 1_555
O18 Tb2 1_555 1_555
O19 Tb2 1_555 1_555
O20 Tb2 1_555 1_555
O21 Tb2 1_555 1_555
O22 N3 1_555 1_555
O23 Tb3 1_555 1_555
O24 Tb3 1_555 1_555
O25 Tb3 1_555 1_555
O26 Tb3 1_555 1_555
O27 Tb3 1_555 1_555
O28 Tb3 1_555 1_555
O29 Tb3 1_555 1_555
O30 N1 1_555 1_555
O31 C3 1_555 1_555
O32 C65 1_555 1_555
O33 C96 1_555 1_555
O34 C34 1_555 1_555
N1 C10 1_555 1_555
N2 O29 1_555 1_555
N3 C41 1_555 1_555
N4 O21 1_555 1_555
N5 C72 1_555 1_555
N6 O13 1_555 1_555
N7 C103 1_555 1_555
N8 O5 1_555 1_555
F1 C119 1_555 1_555
F2 C119 1_555 1_555
F3 C119 1_555 1_555
F4 C115 1_555 1_555
F5 C115 1_555 1_555
F6 C115 1_555 1_555
F7 C110 1_555 1_555
F8 C110 1_555 1_555
F9 C110 1_555 1_555
F10 C114 1_555 1_555
F11 C114 1_555 1_555
F12 C114 1_555 1_555
F13 C89 1_555 1_555
F14 C89 1_555 1_555
F15 C89 1_555 1_555
F16 C93 1_555 1_555
F17 C93 1_555 1_555
F18 C93 1_555 1_555
F19 C79 1_555 1_555
F20 C79 1_555 1_555
F21 C79 1_555 1_555
F22 C83 1_555 1_555
F23 C83 1_555 1_555
F24 C83 1_555 1_555
F25 C84 1_555 1_555
F26 C84 1_555 1_555
F27 C84 1_555 1_555
F28 C87 1_555 1_555
F29 C87 1_555 1_555
F30 C87 1_555 1_555
F31 C53 1_555 1_555
F32 C53 1_555 1_555
F33 C53 1_555 1_555
F34 C58 1_555 1_555
F35 C58 1_555 1_555
F36 C58 1_555 1_555
F37 C48 1_555 1_555
F38 C48 1_555 1_555
F39 C48 1_555 1_555
F40 C52 1_555 1_555
F41 C52 1_555 1_555
F42 C52 1_555 1_555
F43 C62 1_555 1_555
F44 C62 1_555 1_555
F45 C62 1_555 1_555
F46 C57 1_555 1_555
F47 C57 1_555 1_555
F48 C57 1_555 1_555
F49 C27 1_555 1_555
F50 C27 1_555 1_555
F51 C27 1_555 1_555
F52 C31 1_555 1_555
F53 C31 1_555 1_555
F54 C31 1_555 1_555
F55 C17 1_555 1_555
F56 C17 1_555 1_555
F57 C17 1_555 1_555
F58 C21 1_555 1_555
F59 C21 1_555 1_555
F60 C21 1_555 1_555
F61 C26 1_555 1_555
F62 C26 1_555 1_555
F63 C26 1_555 1_555
F64 C22 1_555 1_555
F65 C22 1_555 1_555
F66 C22 1_555 1_555
C1 H1 1_555 1_555
H2 C1 1_555 1_555
H3 C1 1_555 1_555
C2 C1 1_555 1_555
H4 C2 1_555 1_555
H5 C2 1_555 1_555
C3 C2 1_555 1_555
H6 C3 1_555 1_555
H7 C3 1_555 1_555
C4 O31 1_555 1_555
C5 C4 1_555 1_555
H8 C5 1_555 1_555
C6 C5 1_555 1_555
H9 C6 1_555 1_555
C7 C6 1_555 1_555
C8 C7 1_555 1_555
H10 C8 1_555 1_555
C9 C4 1_555 1_555
H11 C9 1_555 1_555
C10 N2 1_555 1_555
C11 H12 1_555 1_555
H13 C11 1_555 1_555
H14 C11 1_555 1_555
C12 N1 1_555 1_555
C13 C12 1_555 1_555
H15 C13 1_555 1_555
H16 C13 1_555 1_555
H17 C13 1_555 1_555
C14 H18 1_555 1_555
H19 C14 1_555 1_555
H20 C14 1_555 1_555
C15 N2 1_555 1_555
C16 C15 1_555 1_555
H21 C16 1_555 1_555
H22 C16 1_555 1_555
H23 C16 1_555 1_555
C17 C18 1_555 1_555
C18 O24 1_555 1_555
C19 C18 1_555 1_555
H24 C19 1_555 1_555
C20 O23 1_555 1_555
C21 C20 1_555 1_555
C22 C23 1_555 1_555
C23 O27 1_555 1_555
C24 C23 1_555 1_555
H25 C24 1_555 1_555
C25 O28 1_555 1_555
C26 C25 1_555 1_555
C27 C28 1_555 1_555
C28 O26 1_555 1_555
C29 C28 1_555 1_555
H26 C29 1_555 1_555
C30 O25 1_555 1_555
C31 C30 1_555 1_555
C32 H27 1_555 1_555
H28 C32 1_555 1_555
H29 C32 1_555 1_555
C33 C32 1_555 1_555
H30 C33 1_555 1_555
H31 C33 1_555 1_555
C34 C33 1_555 1_555
H32 C34 1_555 1_555
H33 C34 1_555 1_555
C35 O34 1_555 1_555
C36 C35 1_555 1_555
H34 C36 1_555 1_555
C37 C36 1_555 1_555
H35 C37 1_555 1_555
C38 C37 1_555 1_555
C39 C38 1_555 1_555
H36 C39 1_555 1_555
C40 C35 1_555 1_555
H37 C40 1_555 1_555
C41 N4 1_555 1_555
C42 H38 1_555 1_555
H39 C42 1_555 1_555
H40 C42 1_555 1_555
C43 N3 1_555 1_555
C44 C43 1_555 1_555
H41 C44 1_555 1_555
H42 C44 1_555 1_555
H43 C44 1_555 1_555
C45 H44 1_555 1_555
H45 C45 1_555 1_555
H46 C45 1_555 1_555
C46 N4 1_555 1_555
C47 C46 1_555 1_555
H47 C47 1_555 1_555
H48 C47 1_555 1_555
H49 C47 1_555 1_555
C48 C49 1_555 1_555
C49 O20 1_555 1_555
C50 C49 1_555 1_555
H50 C50 1_555 1_555
C51 O19 1_555 1_555
C52 C51 1_555 1_555
C53 C54 1_555 1_555
C54 O18 1_555 1_555
C55 C54 1_555 1_555
H51 C55 1_555 1_555
C56 O17 1_555 1_555
C57 C56 1_555 1_555
C58 C59 1_555 1_555
C59 O16 1_555 1_555
C60 C59 1_555 1_555
H52 C60 1_555 1_555
C61 O15 1_555 1_555
C62 C61 1_555 1_555
C63 H53 1_555 1_555
H54 C63 1_555 1_555
H55 C63 1_555 1_555
C64 C63 1_555 1_555
H56 C64 1_555 1_555
H57 C64 1_555 1_555
C65 C64 1_555 1_555
H58 C65 1_555 1_555
H59 C65 1_555 1_555
C66 O32 1_555 1_555
C67 C66 1_555 1_555
H60 C67 1_555 1_555
C68 C67 1_555 1_555
H61 C68 1_555 1_555
C69 C68 1_555 1_555
C70 C69 1_555 1_555
H62 C70 1_555 1_555
C71 C66 1_555 1_555
H63 C71 1_555 1_555
C72 N6 1_555 1_555
C73 H64 1_555 1_555
H65 C73 1_555 1_555
H66 C73 1_555 1_555
C74 N5 1_555 1_555
C75 C74 1_555 1_555
H67 C75 1_555 1_555
H68 C75 1_555 1_555
H69 C75 1_555 1_555
C76 H70 1_555 1_555
H71 C76 1_555 1_555
H72 C76 1_555 1_555
C77 N6 1_555 1_555
C78 C77 1_555 1_555
H73 C78 1_555 1_555
H74 C78 1_555 1_555
H75 C78 1_555 1_555
C79 C80 1_555 1_555
C80 O12 1_555 1_555
C81 C80 1_555 1_555
H76 C81 1_555 1_555
C82 O11 1_555 1_555
C83 C82 1_555 1_555
C84 C85 1_555 1_555
C85 O9 1_555 1_555
C86 C85 1_555 1_555
H77 C86 1_555 1_555
C87 C88 1_555 1_555
C88 O10 1_555 1_555
C89 C90 1_555 1_555
C90 O7 1_555 1_555
C91 C90 1_555 1_555
H78 C91 1_555 1_555
C92 O8 1_555 1_555
C93 C92 1_555 1_555
C94 H79 1_555 1_555
H80 C94 1_555 1_555
H81 C94 1_555 1_555
C95 C94 1_555 1_555
H82 C95 1_555 1_555
H83 C95 1_555 1_555
C96 C95 1_555 1_555
H84 C96 1_555 1_555
H85 C96 1_555 1_555
C97 O33 1_555 1_555
C98 C97 1_555 1_555
H86 C98 1_555 1_555
C99 C98 1_555 1_555
H87 C99 1_555 1_555
C100 C99 1_555 1_555
C101 C100 1_555 1_555
H88 C101 1_555 1_555
C102 C97 1_555 1_555
H89 C102 1_555 1_555
C103 N8 1_555 1_555
C104 H90 1_555 1_555
H91 C104 1_555 1_555
H92 C104 1_555 1_555
C105 N7 1_555 1_555
C106 C105 1_555 1_555
H93 C106 1_555 1_555
H94 C106 1_555 1_555
H95 C106 1_555 1_555
C107 H96 1_555 1_555
H97 C107 1_555 1_555
H98 C107 1_555 1_555
C108 N8 1_555 1_555
C109 C108 1_555 1_555
H99 C109 1_555 1_555
H100 C109 1_555 1_555
H101 C109 1_555 1_555
C110 C111 1_555 1_555
C111 O4 1_555 1_555
C112 C111 1_555 1_555
H102 C112 1_555 1_555
C113 O3 1_555 1_555
C114 C113 1_555 1_555
C115 C116 1_555 1_555
C116 C117 1_555 1_555
C117 H103 1_555 1_555
C118 O2 1_555 1_555
C119 C118 1_555 1_555
Cu1_2 O30 1_555 1_555
O30_2 Cu1 1_555 1_555
C7 C10 1_555 1_555
C8 C9 1_555 1_555
C11 C12 1_555 1_555
C12 C15 1_555 1_555
C14 C15 1_555 1_555
C19 C20 1_555 1_555
C24 C25 1_555 1_555
C29 C30 1_555 1_555
C38 C41 1_555 1_555
C39 C40 1_555 1_555
C42 C43 1_555 1_555
C43 C46 1_555 1_555
C45 C46 1_555 1_555
C50 C51 1_555 1_555
C55 C56 1_555 1_555
C60 C61 1_555 1_555
C69 C72 1_555 1_555
C70 C71 1_555 1_555
C73 C74 1_555 1_555
C74 C77 1_555 1_555
C76 C77 1_555 1_555
C81 C82 1_555 1_555
C86 C88 1_555 1_555
C91 C92 1_555 1_555
C100 C103 1_555 1_555
C101 C102 1_555 1_555
C104 C105 1_555 1_555
C105 C108 1_555 1_555
C107 C108 1_555 1_555
C112 C113 1_555 1_555
C117 C118 1_555 1_555

#END
