
#######################################################################
#
#                 Cambridge Crystallographic Data Centre
#                                CCDC 
#
#######################################################################
#
# If this CIF has been generated from an entry in the Cambridge 
# Structural Database, then it will include bibliographic, chemical, 
# crystal, experimental, refinement or atomic coordinate data resulting 
# from the CCDC's data processing and validation procedures.
#
#######################################################################

data_HOJJIB
_symmetry_cell_setting           triclinic
_symmetry_space_group_name_H-M   'P -1'
_symmetry_Int_Tables_number      2
_space_group_name_Hall           '-P 1'
loop_
_symmetry_equiv_pos_site_id
_symmetry_equiv_pos_as_xyz
1 x,y,z
2 -x,-y,-z
_cell_length_a                   8.94780(10)
_cell_length_b                   10.8170(2)
_cell_length_c                   11.9761(2)
_cell_angle_alpha                86.4960(10)
_cell_angle_beta                 68.4330(11)
_cell_angle_gamma                66.5540(10)
_cell_volume                     984.053
loop_
_atom_site_label
_atom_site_type_symbol
_atom_site_fract_x
_atom_site_fract_y
_atom_site_fract_z
C1 C 0.9087(3) 0.7617(3) 0.5914(2)
C2 C 0.9558(4) 0.6787(3) 0.4893(3)
H1 H 0.8883 0.6318 0.4894
C3 C 1.1010(4) 0.6651(3) 0.3884(3)
H2 H 1.1316 0.6094 0.3205
C4 C 1.2025(3) 0.7355(3) 0.3883(2)
C5 C 1.1588(3) 0.8173(2) 0.4911(2)
C6 C 1.0099(3) 0.8298(3) 0.5924(2)
H3 H 0.9787 0.8845 0.6611
C7 C 1.2735(3) 0.8853(3) 0.4964(2)
C8 C -0.0381(3) 0.8037(3) 0.9645(2)
H4 H -0.0547 0.7793 0.8983
C9 C -0.1739(3) 0.8349(3) 1.0759(2)
C10 C -0.3439(4) 0.8286(3) 1.0913(3)
H5 H -0.4218 0.8534 1.1744
H6 H -0.3229 0.7382 1.0676
H7 H -0.3963 0.8902 1.0419
C11 C -0.0012(3) 0.8769(3) 1.1560(2)
H8 H 0.0145 0.9029 1.2220
C12 C 0.1372(3) 0.8431(3) 1.0446(2)
C13 C 0.3097(4) 0.8452(3) 1.0292(3)
H9 H 0.3877 0.8191 0.9463
H10 H 0.3601 0.7829 1.0791
H11 H 0.2920 0.9349 1.0524
C14 C 0.3697(3) 0.4911(3) 0.5993(2)
C15 C 0.5619(3) 0.5900(3) 0.5084(2)
H12 H 0.6074 0.6527 0.5121
C16 C 0.2242(4) 0.4798(3) 0.7067(2)
H13 H 0.1940 0.5433 0.7722
H14 H 0.2619 0.3896 0.7304
H15 H 0.1233 0.4993 0.6864
N1 N 0.1169(3) 0.8071(2) 0.94776(19)
N2 N -0.1562(3) 0.8737(2) 1.1726(2)
N3 N 0.4339(3) 0.5817(2) 0.60649(18)
O1 O 0.5812(3) 0.7993(2) 0.68195(19)
O2 O 0.7752(3) 0.6402(2) 0.7680(2)
O3 O 0.6946(3) 0.8803(3) 0.80397(19)
O4 O 1.3431(3) 0.7207(2) 0.28685(18)
H16 H 1.3898 0.7690 0.2959
O5 O 1.4059(3) 0.8712(2) 0.40002(17)
O6 O 1.2364(3) 0.9468(2) 0.59301(18)
S1 S 0.72597(8) 0.77204(7) 0.72290(6)
Ag1 Ag 0.34309(3) 0.72197(3) 0.77336(2)
Ag2 Ag 1.40154(3) 1.03560(2) 0.63349(2)
C14A C 0.6303(3) 0.5089(3) 0.4007(2)
C15A C 0.4381(3) 0.4100(3) 0.4916(2)
H12A H 0.3926 0.3473 0.4879
C16A C 0.7758(4) 0.5202(3) 0.2933(2)
H13A H 0.8060 0.4567 0.2278
H14A H 0.7381 0.6104 0.2696
H15A H 0.8767 0.5007 0.3136
N3A N 0.5661(3) 0.4183(2) 0.39351(18)
C1A C 0.0913(3) 0.2383(3) 0.4086(2)
C2A C 0.0442(4) 0.3213(3) 0.5107(3)
H1A H 0.1117 0.3682 0.5106
C3A C -0.1010(4) 0.3349(3) 0.6116(3)
H2A H -0.1316 0.3906 0.6795
C4A C -0.2025(3) 0.2645(3) 0.6117(2)
C5A C -0.1588(3) 0.1827(2) 0.5089(2)
C6A C -0.0099(3) 0.1702(3) 0.4076(2)
H3A H 0.0213 0.1155 0.3389
C7A C -0.2735(3) 0.1147(3) 0.5036(2)
C8A C 1.0381(3) 0.1963(3) 0.0355(2)
H4A H 1.0547 0.2207 0.1017
C9A C 1.1739(3) 0.1651(3) -0.0759(2)
C10A C 1.3439(4) 0.1714(3) -0.0913(3)
H5A H 1.4218 0.1466 -0.1744
H6A H 1.3229 0.2618 -0.0676
H7A H 1.3963 0.1098 -0.0419
C11A C 1.0012(3) 0.1231(3) -0.1560(2)
H8A H 0.9855 0.0971 -0.2220
C12A C 0.8628(3) 0.1569(3) -0.0446(2)
C13A C 0.6903(4) 0.1548(3) -0.0292(3)
H9A H 0.6123 0.1809 0.0537
H10A H 0.6399 0.2171 -0.0791
H11A H 0.7080 0.0651 -0.0524
N1A N 0.8831(3) 0.1929(2) 0.05224(19)
N2A N 1.1562(3) 0.1263(2) -0.1726(2)
O1A O 0.4188(3) 0.2007(2) 0.31805(19)
O2A O 0.2248(3) 0.3598(2) 0.2320(2)
O3A O 0.3054(3) 0.1197(3) 0.19603(19)
O4A O -0.3431(3) 0.2793(2) 0.71315(18)
H16A H -0.3898 0.2310 0.7041
O5A O -0.4059(3) 0.1288(2) 0.59998(17)
O6A O -0.2364(3) 0.0532(2) 0.40699(18)
S1A S 0.27403(8) 0.22796(7) 0.27710(6)
Ag1A Ag 0.65691(3) 0.27803(3) 0.22664(2)
Ag2A Ag -0.40154(3) -0.03560(2) 0.36651(2)
N2_2 N -0.1562(3) -0.1263(2) 0.1726(2)
N2A_2 N 1.1562(3) 1.1263(2) 0.8274(2)
O1_2 O 1.5812(3) 0.7993(2) 0.68195(19)
O1A_2 O -0.5812(3) 0.2007(2) 0.31805(19)
O5_2 O -0.5941(3) -0.1288(2) 0.40002(17)
O5A_2 O 1.5941(3) 1.1288(2) 0.59998(17)
Ag2_2 Ag -0.59846(3) 0.03560(2) 0.63349(2)
Ag2_3 Ag 0.40154(3) 1.03560(2) 0.63349(2)
Ag2_4 Ag 1.40154(3) 0.03560(2) -0.36651(2)
Ag2A_2 Ag -0.40154(3) 0.96440(2) 1.36651(2)
Ag2A_3 Ag 0.59846(3) -0.03560(2) 0.36651(2)
Ag2A_4 Ag 1.59846(3) 0.96440(2) 0.36651(2)
O7 O 0.8780(4) 0.4936(4) 0.9535(3)
H17 H 0.861(7) 0.532(6) 0.891(4)
H18 H 0.777(4) 0.491(7) 0.988(5)
O8 O 0.4481(4) 0.5052(3) 0.9010(3)
H19 H 0.542(4) 0.522(5) 0.879(4)
H20 H 0.501(6) 0.436(4) 0.847(4)
loop_
_geom_bond_atom_site_label_1
_geom_bond_atom_site_label_2
_geom_bond_site_symmetry_1
_geom_bond_site_symmetry_2
C1 C2 1_555 1_555
C2 H1 1_555 1_555
C3 C2 1_555 1_555
H2 C3 1_555 1_555
C4 C3 1_555 1_555
C5 C4 1_555 1_555
C6 C1 1_555 1_555
H3 C6 1_555 1_555
C7 C5 1_555 1_555
C8 H4 1_555 1_555
C9 C8 1_555 1_555
C10 C9 1_555 1_555
H5 C10 1_555 1_555
H6 C10 1_555 1_555
H7 C10 1_555 1_555
C11 H8 1_555 1_555
C12 C11 1_555 1_555
C13 C12 1_555 1_555
H9 C13 1_555 1_555
H10 C13 1_555 1_555
H11 C13 1_555 1_555
C14 C16 1_555 1_555
C15 H12 1_555 1_555
C16 H13 1_555 1_555
H14 C16 1_555 1_555
H15 C16 1_555 1_555
N1 C8 1_555 1_555
N2 C9 1_555 1_555
N3 C14 1_555 1_555
O1 S1 1_555 1_555
O2 S1 1_555 1_555
O3 S1 1_555 1_555
O4 C4 1_555 1_555
H16 O4 1_555 1_555
O5 C7 1_555 1_555
O6 C7 1_555 1_555
S1 C1 1_555 1_555
Ag1 N1 1_555 1_555
Ag2 O6 1_555 1_555
O7 H17 1_555 1_555
H18 O7 1_555 1_555
O8 H19 1_555 1_555
H20 O8 1_555 1_555
C14A C15 1_555 1_555
C15A C14 1_555 1_555
H12A C15A 1_555 1_555
C16A C14A 1_555 1_555
H13A C16A 1_555 1_555
H14A C16A 1_555 1_555
H15A C16A 1_555 1_555
N3A C14A 1_555 1_555
C1A C2A 1_555 1_555
C2A H1A 1_555 1_555
C3A C2A 1_555 1_555
H2A C3A 1_555 1_555
C4A C3A 1_555 1_555
C5A C4A 1_555 1_555
C6A C1A 1_555 1_555
H3A C6A 1_555 1_555
C7A C5A 1_555 1_555
C8A H4A 1_555 1_555
C9A C8A 1_555 1_555
C10A C9A 1_555 1_555
H5A C10A 1_555 1_555
H6A C10A 1_555 1_555
H7A C10A 1_555 1_555
C11A H8A 1_555 1_555
C12A C11A 1_555 1_555
C13A C12A 1_555 1_555
H9A C13A 1_555 1_555
H10A C13A 1_555 1_555
H11A C13A 1_555 1_555
N1A C8A 1_555 1_555
N2A C9A 1_555 1_555
O1A S1A 1_555 1_555
O2A S1A 1_555 1_555
O3A S1A 1_555 1_555
O4A C4A 1_555 1_555
H16A O4A 1_555 1_555
O5A C7A 1_555 1_555
O6A C7A 1_555 1_555
S1A C1A 1_555 1_555
Ag1A N3A 1_555 1_555
Ag2A O6A 1_555 1_555
N2_2 Ag2A 1_555 1_555
N2A_2 Ag2 1_555 1_555
O1_2 Ag2 1_555 1_555
O1A_2 Ag2A 1_555 1_555
O5_2 Ag2A 1_555 1_555
O5A_2 Ag2 1_555 1_555
Ag2_2 O5A 1_555 1_555
Ag2_3 O1 1_555 1_555
Ag2_4 N2A 1_555 1_555
Ag2A_2 N2 1_555 1_555
Ag2A_3 O1A 1_555 1_555
Ag2A_4 O5 1_555 1_555
C5 C6 1_555 1_555
C11 N2 1_555 1_555
C12 N1 1_555 1_555
C15 N3 1_555 1_555
N3 Ag1 1_555 1_555
O1 Ag1 1_555 1_555
C15A N3A 1_555 1_555
C5A C6A 1_555 1_555
C11A N2A 1_555 1_555
C12A N1A 1_555 1_555
N1A Ag1A 1_555 1_555
O1A Ag1A 1_555 1_555

#END
