
#######################################################################
#
#                 Cambridge Crystallographic Data Centre
#                                CCDC 
#
#######################################################################
#
# If this CIF has been generated from an entry in the Cambridge 
# Structural Database, then it will include bibliographic, chemical, 
# crystal, experimental, refinement or atomic coordinate data resulting 
# from the CCDC's data processing and validation procedures.
#
#######################################################################

data_HOJKUN
_symmetry_cell_setting           monoclinic
_symmetry_space_group_name_H-M   'P 21/c'
_symmetry_Int_Tables_number      14
_space_group_name_Hall           '-P 2ybc'
loop_
_symmetry_equiv_pos_site_id
_symmetry_equiv_pos_as_xyz
1 x,y,z
2 -x,1/2+y,1/2-z
3 -x,-y,-z
4 x,1/2-y,1/2+z
_cell_length_a                   14.3100(17)
_cell_length_b                   29.265(3)
_cell_length_c                   11.0730(13)
_cell_angle_alpha                90
_cell_angle_beta                 104.228(2)
_cell_angle_gamma                90
_cell_volume                     4494.93
loop_
_atom_site_label
_atom_site_type_symbol
_atom_site_fract_x
_atom_site_fract_y
_atom_site_fract_z
Zn1 Zn 0.43166(5) 0.52375(2) 0.20584(7)
Zn2 Zn 0.64904(5) 0.47358(2) 0.37364(6)
Zn3 Zn 0.20658(6) 0.49440(3) 0.05610(7)
Zn4 Zn 0.62607(6) 0.50368(3) 0.10923(7)
O1 O 0.7164(3) 0.53174(15) 0.4179(4)
O2 O 0.5476(3) 0.48140(13) 0.2226(4)
O3 O 0.3429(3) 0.48669(14) 0.0509(4)
O4 O 0.5103(3) 0.55580(13) 0.0756(4)
O5 O 0.5423(4) 0.76749(14) 0.2249(4)
O6 O 0.3830(3) 0.95618(14) -0.0254(4)
C1 C 0.5436(5) 0.6881(2) 0.2450(6)
H1 H 0.5565 0.6924 0.3307
N1 N -0.0096(5) 0.5072(3) -0.2669(7)
C2 C 0.8018(6) 0.6333(3) 0.2931(9)
H2 H 0.7847 0.6270 0.2082
O7 O 0.1906(3) 0.54536(15) 0.1646(4)
C3 C 0.4750(5) 0.88780(19) 0.0237(5)
O8 O 0.1271(5) 0.74290(17) 0.3605(6)
O9 O 0.3370(3) 0.57538(14) 0.1817(4)
C4 C 0.2203(5) 0.6215(2) 0.2346(6)
O10 O 0.4977(3) 0.94254(14) -0.1240(4)
C5 C 0.5662(5) 0.8690(2) 0.0416(6)
H3 H 0.6131 0.8837 0.0107
C6 C 0.5363(5) 0.6446(2) 0.1971(6)
H4 H 0.5431 0.6196 0.2504
C7 C 0.2293(5) 0.8710(2) 0.2973(6)
O11 O 0.2594(3) 0.92944(16) 0.1656(4)
C8 C 0.5166(5) 0.5916(2) 0.0118(6)
O12 O 0.7167(3) 0.54838(17) 0.2212(5)
C9 C 0.5321(5) 0.72509(19) 0.1675(6)
C10 C 0.5078(6) 0.6758(2) -0.0071(6)
H5 H 0.4968 0.6717 -0.0927
C11 C 0.0568(6) 0.4842(3) -0.1827(8)
H6 H 0.0680 0.4530 -0.1860
O13 O 0.2986(4) 0.94219(17) 0.3722(4)
C12 C 0.8083(5) 0.6121(2) 0.5039(8)
H7 H 0.7944 0.5917 0.5615
O14 O 0.5275(6) 0.58994(16) -0.0952(5)
C13 C 0.7911(6) 0.7733(3) 0.4256(9)
H8 H 0.7465 0.7496 0.4151
O15 O 0.3706(4) 0.47647(17) 0.3092(5)
O16 O 0.8400(4) 0.93231(19) 0.4362(6)
C14 C 0.4060(5) 0.8647(2) 0.0679(6)
H9 H 0.3442 0.8768 0.0547
C15 C 0.5189(4) 0.63773(19) 0.0692(5)
C16 C 0.1609(6) 0.7035(2) 0.3171(7)
C17 C 0.7345(5) 0.5573(2) 0.3341(7)
C18 C 0.1782(6) 0.8455(3) 0.1993(7)
H10 H 0.1656 0.8574 0.1191
C19 C 0.8876(6) 0.7647(3) 0.4702(8)
O17 O 0.9257(5) 0.72200(19) 0.5067(8)
C20 C 0.4522(5) 0.9317(2) -0.0466(5)
C21 C 0.5191(6) 0.8066(2) 0.1511(6)
C22 C 0.2650(5) 0.9178(2) 0.2783(7)
O18 O 0.7260(8) 0.9060(2) 0.2913(9)
C23 C 0.2519(5) 0.5778(2) 0.1910(6)
C24 C 0.5872(6) 0.8283(2) 0.1059(6)
H11 H 0.6484 0.8157 0.1181
C25 C 0.2518(5) 0.6999(2) 0.3005(7)
H12 H 0.2937 0.7247 0.3157
C26 C 0.1274(6) 0.6268(3) 0.2504(9)
H13 H 0.0840 0.6026 0.2329
C27 C 0.2808(5) 0.6584(2) 0.2603(6)
H14 H 0.3432 0.6556 0.2506
C28 C 0.4275(6) 0.8242(2) 0.1313(6)
H15 H 0.3805 0.8088 0.1604
C29 C -0.0740(6) 0.4897(4) -0.3813(8)
H16 H -0.0880 0.4579 -0.3683
H17 H -0.1344 0.5063 -0.3962
C30 C -0.0038(9) 0.5517(5) -0.2300(10)
H18 H -0.0409 0.5760 -0.2698
C31 C 0.0658(8) 0.5534(4) -0.1253(9)
H19 H 0.0853 0.5798 -0.0794
C32 C 0.7831(5) 0.6016(2) 0.3782(7)
C33 C 0.8543(6) 0.6531(3) 0.5439(9)
H20 H 0.8724 0.6601 0.6284
C34 C 0.5126(6) 0.7197(2) 0.0405(6)
H21 H 0.5030 0.7449 -0.0122
C35 C 0.2491(6) 0.8527(3) 0.4169(7)
H22 H 0.2845 0.8695 0.4840
C36 C 0.8258(6) 0.8525(2) 0.4132(7)
N2 N 0.1041(5) 0.5115(3) -0.0949(6)
C37 C 0.1653(6) 0.7854(2) 0.3370(8)
C38 C 0.2161(6) 0.8094(3) 0.4362(8)
H23 H 0.2286 0.7970 0.5159
C39 C 0.7938(7) 0.9007(3) 0.3774(8)
C40 C 0.8465(6) 0.6745(3) 0.3368(11)
H24 H 0.8580 0.6960 0.2803
C41 C 0.1446(6) 0.8018(3) 0.2177(8)
H25 H 0.1096 0.7845 0.1513
C42 C 0.0996(6) 0.6678(2) 0.2919(10)
H26 H 0.0375 0.6709 0.3027
C43 C 0.8729(6) 0.6835(3) 0.4580(12)
C44 C 0.7611(6) 0.8177(3) 0.3964(8)
H27 H 0.6959 0.8238 0.3650
C45 C 0.9532(6) 0.7990(3) 0.4877(10)
H28 H 1.0185 0.7928 0.5174
C46 C -0.0391(8) 0.4926(6) -0.4875(10)
H29 H -0.0439 0.4615 -0.5183
H30 H -0.0893 0.5093 -0.5456
C47 C 0.9220(6) 0.8435(3) 0.4609(9)
H31 H 0.9664 0.8674 0.4753
H32 H 0.356(5) 0.4586(7) 0.064(6)
H33 H 0.515(3) 0.4607(13) 0.177(4)
H34 H 0.321(2) 0.4614(17) 0.273(4)
H35 H 0.361(3) 0.4885(17) 0.375(3)
Zn1C Zn 0.43166(5) 0.97625(2) 0.70584(7)
Zn1C_2 Zn 0.43166(5) 0.97625(2) -0.29416(7)
Zn1A Zn 0.56834(5) 0.02375(2) 0.29416(7)
Zn1B Zn 0.56834(5) 0.47625(2) -0.20584(7)
Zn2A Zn 0.35096(5) 0.97358(2) 0.12636(6)
Zn2B Zn 0.35096(5) 0.52642(2) 0.62636(6)
Zn2A_2 Zn 0.35096(5) -0.02642(2) 0.12636(6)
Zn2C Zn 0.64904(5) 1.02642(2) 0.87364(6)
Zn3B Zn 0.79342(6) 0.50560(3) -0.05610(7)
Zn3A Zn 0.79342(6) 0.99440(3) 0.44390(7)
Zn3B_2 Zn -0.20658(6) 0.50560(3) -1.05610(7)
Zn3A_2 Zn 0.79342(6) -0.00560(3) 0.44390(7)
Zn4B Zn 0.37393(6) 0.49632(3) -0.10923(7)
Zn4A Zn 0.37393(6) 1.00368(3) 0.39077(7)
Zn4C Zn 0.62607(6) 0.99632(3) 0.60923(7)
Zn4A_2 Zn 0.37393(6) 0.00368(3) 0.39077(7)
O1A O 0.2836(3) 0.03174(15) 0.0821(4)
O1A_2 O 0.2836(3) 1.03174(15) 0.0821(4)
O2C O 0.5476(3) 1.01860(13) 0.7226(4)
O2A O 0.4524(3) 0.98140(13) 0.2774(4)
O2B O 0.4524(3) 0.51860(13) -0.2226(4)
O3B O 0.6571(3) 0.51331(14) -0.0509(4)
O3C O 0.3429(3) 1.01331(14) 0.5509(4)
O4C O 0.5103(3) 0.94420(13) 0.5756(4)
O4B O 0.4897(3) 0.44420(13) -0.0756(4)
O5C O 0.5423(4) 0.73251(14) 0.7249(4)
O6C O 0.3830(3) 0.54382(14) 0.4746(4)
O6A O 0.6170(3) 0.45618(14) 0.5254(4)
C1C C 0.5436(5) 0.8119(2) 0.7450(6)
H1C H 0.5565 0.8076 0.8307
N1B N 0.0096(5) 0.4928(3) -0.7331(7)
C2A C 0.1982(6) 0.1333(3) 0.2069(9)
H2A H 0.2153 0.1270 0.2918
O7A O 0.8094(3) 0.04536(15) 0.3354(4)
O7B O 0.8094(3) 0.45464(15) -0.1646(4)
C3C C 0.4750(5) 0.61220(19) 0.5237(5)
O8A O 0.8729(5) 0.24290(17) 0.1395(6)
O9A O 0.6630(3) 0.07538(14) 0.3183(4)
O9C O 0.3370(3) 0.92462(14) 0.6817(4)
C4A C 0.7797(5) 0.1215(2) 0.2654(6)
O10C O 0.4977(3) 0.55746(14) 0.3760(4)
O10_2 O 0.4977(3) 0.94254(14) 0.8760(4)
C5C C 0.5662(5) 0.6310(2) 0.5416(6)
H3C H 0.6131 0.6163 0.5107
C6C C 0.5363(5) 0.8554(2) 0.6971(6)
H4C H 0.5431 0.8804 0.7504
C7A C 0.7707(5) 0.3710(2) 0.2027(6)
O11A O 0.7406(3) 0.42944(16) 0.3344(4)
C8C C 0.5166(5) 0.9084(2) 0.5118(6)
O12A O 0.2833(3) 0.04838(17) 0.2788(5)
O12B O 0.2833(3) 0.45162(17) -0.2212(5)
C9C C 0.5321(5) 0.77491(19) 0.6675(6)
C10C C 0.5078(6) 0.8242(2) 0.4929(6)
H5C H 0.4968 0.8283 0.4073
C11B C -0.0568(6) 0.5158(3) -0.8173(8)
H6B H -0.0680 0.5470 -0.8140
O13A O 0.7014(4) 0.44219(17) 0.1278(4)
O13C O 0.2986(4) 0.55781(17) -0.1278(4)
C12A C 0.1917(5) 0.1121(2) -0.0039(8)
H7A H 0.2056 0.0917 -0.0615
O14C O 0.5275(6) 0.91006(16) 0.4048(5)
C13A C 0.2089(6) 0.2733(3) 0.0744(9)
H8A H 0.2535 0.2496 0.0849
O15C O 0.3706(4) 1.02353(17) 0.8092(5)
O16A O 0.1600(4) 0.43231(19) 0.0638(6)
O16C O 0.8400(4) 0.56769(19) -0.0638(6)
C14C C 0.4060(5) 0.6353(2) 0.5679(6)
H9C H 0.3442 0.6232 0.5547
C15C C 0.5189(4) 0.86227(19) 0.5692(5)
C16A C 0.8391(6) 0.2035(2) 0.1829(7)
C17A C 0.2655(5) 0.0573(2) 0.1659(7)
C18A C 0.8218(6) 0.3455(3) 0.3007(7)
H10A H 0.8344 0.3574 0.3809
C19A C 0.1124(6) 0.2647(3) 0.0298(8)
O17A O 0.0743(5) 0.22200(19) -0.0067(8)
C20C C 0.4522(5) 0.5683(2) 0.4534(5)
C21C C 0.5191(6) 0.6934(2) 0.6511(6)
C22A C 0.7350(5) 0.4178(2) 0.2217(7)
O18A O 0.2740(8) 0.4060(2) 0.2087(9)
C23A C 0.7481(5) 0.0778(2) 0.3090(6)
C24C C 0.5872(6) 0.6717(2) 0.6059(6)
H11C H 0.6484 0.6843 0.6181
C25A C 0.7482(5) 0.1999(2) 0.1995(7)
H12A H 0.7063 0.2247 0.1843
C26A C 0.8726(6) 0.1268(3) 0.2496(9)
H13A H 0.9160 0.1026 0.2671
C27A C 0.7192(5) 0.1584(2) 0.2397(6)
H14A H 0.6568 0.1556 0.2494
C28C C 0.4275(6) 0.6758(2) 0.6313(6)
H15C H 0.3805 0.6912 0.6604
C29B C 0.0740(6) 0.5103(4) -0.6187(8)
H16B H 0.0880 0.5421 -0.6317
H17B H 0.1344 0.4937 -0.6038
C30B C 0.0038(9) 0.4483(5) -0.7700(10)
H18B H 0.0409 0.4240 -0.7302
C31B C -0.0658(8) 0.4466(4) -0.8747(9)
H19B H -0.0853 0.4202 -0.9206
C32A C 0.2169(5) 0.1016(2) 0.1218(7)
C33A C 0.1457(6) 0.1531(3) -0.0439(9)
H20A H 0.1276 0.1601 -0.1284
C34C C 0.5126(6) 0.7803(2) 0.5405(6)
H21C H 0.5030 0.7551 0.4878
C35A C 0.7509(6) 0.3527(3) 0.0831(7)
H22A H 0.7155 0.3695 0.0160
C36A C 0.1742(6) 0.3525(2) 0.0868(7)
N2B N -0.1041(5) 0.4885(3) -0.9051(6)
N2B_2 N 0.8959(5) 0.4885(3) 0.0949(6)
C37A C 0.8347(6) 0.2854(2) 0.1630(8)
C38A C 0.7839(6) 0.3094(3) 0.0638(8)
H23A H 0.7714 0.2970 -0.0159
C39A C 0.2062(7) 0.4007(3) 0.1226(8)
C40A C 0.1535(6) 0.1745(3) 0.1632(11)
H24A H 0.1420 0.1960 0.2197
C41A C 0.8554(6) 0.3018(3) 0.2823(8)
H25A H 0.8904 0.2845 0.3487
C42A C 0.9004(6) 0.1678(2) 0.2081(10)
H26A H 0.9625 0.1709 0.1973
C43A C 0.1271(6) 0.1835(3) 0.0420(12)
C44A C 0.2389(6) 0.3177(3) 0.1036(8)
H27A H 0.3041 0.3238 0.1350
C45A C 0.0468(6) 0.2990(3) 0.0123(10)
H28A H -0.0185 0.2928 -0.0174
C46B C 0.0391(8) 0.5074(6) -0.5125(10)
H29B H 0.0439 0.5385 -0.4817
H30B H 0.0893 0.4907 -0.4544
C47A C 0.0780(6) 0.3435(3) 0.0391(9)
H31A H 0.0336 0.3674 0.0247
H32B H 0.644(5) 0.5414(7) -0.064(6)
H32C H 0.356(5) 1.0414(7) 0.564(6)
H33C H 0.515(3) 1.0393(13) 0.677(4)
H33A H 0.485(3) 0.9607(13) 0.323(4)
H33B H 0.485(3) 0.5393(13) -0.177(4)
H34C H 0.321(2) 1.0386(17) 0.773(4)
H35C H 0.361(3) 1.0115(17) 0.875(3)
loop_
_geom_bond_atom_site_label_1
_geom_bond_atom_site_label_2
_geom_bond_site_symmetry_1
_geom_bond_site_symmetry_2
Zn1 O2 1_555 1_555
Zn2 O1 1_555 1_555
Zn3 O3 1_555 1_555
Zn4 O2 1_555 1_555
O1 C17 1_555 1_555
O2 Zn2 1_555 1_555
O3 Zn1 1_555 1_555
O4 Zn1 1_555 1_555
O5 C9 1_555 1_555
O6 C20 1_555 1_555
C1 H1 1_555 1_555
N1 C11 1_555 1_555
C2 H2 1_555 1_555
O7 Zn3 1_555 1_555
C3 C5 1_555 1_555
O8 C16 1_555 1_555
O9 Zn1 1_555 1_555
C4 C23 1_555 1_555
O10 C20 1_555 1_555
C5 H3 1_555 1_555
C6 C1 1_555 1_555
H4 C6 1_555 1_555
C7 C18 1_555 1_555
O11 C22 1_555 1_555
C8 O4 1_555 1_555
O12 Zn4 1_555 1_555
C9 C1 1_555 1_555
C10 H5 1_555 1_555
C11 H6 1_555 1_555
O13 C22 1_555 1_555
C12 H7 1_555 1_555
O14 C8 1_555 1_555
C13 H8 1_555 1_555
O15 Zn1 1_555 1_555
O16 C39 1_555 1_555
C14 C3 1_555 1_555
H9 C14 1_555 1_555
C15 C6 1_555 1_555
C16 C25 1_555 1_555
C17 O12 1_555 1_555
C18 H10 1_555 1_555
C19 C13 1_555 1_555
O17 C19 1_555 1_555
C20 C3 1_555 1_555
C21 O5 1_555 1_555
C22 C7 1_555 1_555
O18 C39 1_555 1_555
C23 O7 1_555 1_555
C24 C5 1_555 1_555
H11 C24 1_555 1_555
C25 H12 1_555 1_555
C26 C4 1_555 1_555
H13 C26 1_555 1_555
C27 C4 1_555 1_555
H14 C27 1_555 1_555
C28 C14 1_555 1_555
H15 C28 1_555 1_555
C29 N1 1_555 1_555
H16 C29 1_555 1_555
H17 C29 1_555 1_555
C30 N1 1_555 1_555
H18 C30 1_555 1_555
C31 C30 1_555 1_555
H19 C31 1_555 1_555
C32 C2 1_555 1_555
C33 C12 1_555 1_555
H20 C33 1_555 1_555
C34 C9 1_555 1_555
H21 C34 1_555 1_555
C35 C7 1_555 1_555
H22 C35 1_555 1_555
C36 C39 1_555 1_555
N2 Zn3 1_555 1_555
C37 O8 1_555 1_555
C38 C35 1_555 1_555
H23 C38 1_555 1_555
C40 C2 1_555 1_555
H24 C40 1_555 1_555
C41 C18 1_555 1_555
H25 C41 1_555 1_555
C42 C16 1_555 1_555
H26 C42 1_555 1_555
C43 O17 1_555 1_555
C44 C13 1_555 1_555
H27 C44 1_555 1_555
C45 C19 1_555 1_555
H28 C45 1_555 1_555
C46 C29 1_555 1_555
H29 C46 1_555 1_555
H30 C46 1_555 1_555
C47 C36 1_555 1_555
H31 C47 1_555 1_555
H32 O3 1_555 1_555
H33 O2 1_555 1_555
H34 O15 1_555 1_555
H35 O15 1_555 1_555
Zn1C O2C 1_555 1_555
Zn1C_2 O10 1_555 1_555
Zn1A O9A 1_555 1_555
Zn1B O2B 1_555 1_555
Zn2A O6 1_555 1_555
Zn2B O6C 1_555 1_555
Zn2A_2 O1A 1_555 1_555
Zn2C O2C 1_555 1_555
Zn3B O3B 1_555 1_555
Zn3A O16 1_555 1_555
Zn3B_2 N2B 1_555 1_555
Zn3A_2 O7A 1_555 1_555
Zn4B O3 1_555 1_555
Zn4A O13 1_555 1_555
Zn4C O2C 1_555 1_555
Zn4A_2 O12A 1_555 1_555
O1A C17A 1_555 1_555
O1A_2 Zn2A 1_555 1_555
O2C H33C 1_555 1_555
O2A Zn2A 1_555 1_555
O2B Zn4B 1_555 1_555
O3B Zn4 1_555 1_555
O3C Zn1C 1_555 1_555
O4C Zn1C 1_555 1_555
O4B Zn1B 1_555 1_555
O5C C9C 1_555 1_555
O6C C20C 1_555 1_555
O6A Zn2 1_555 1_555
C1C H1C 1_555 1_555
N1B C11B 1_555 1_555
C2A H2A 1_555 1_555
O7A C23A 1_555 1_555
O7B Zn3B 1_555 1_555
C3C C5C 1_555 1_555
O8A C16A 1_555 1_555
O9A C23A 1_555 1_555
O9C Zn1C 1_555 1_555
C4A C23A 1_555 1_555
O10C Zn1 1_555 1_555
O10_2 Zn1C 1_555 1_555
C5C H3C 1_555 1_555
C6C C1C 1_555 1_555
H4C C6C 1_555 1_555
C7A C18A 1_555 1_555
O11A Zn2 1_555 1_555
C8C O4C 1_555 1_555
O12A C17A 1_555 1_555
O12B Zn4B 1_555 1_555
C9C C1C 1_555 1_555
C10C H5C 1_555 1_555
C11B H6B 1_555 1_555
O13A Zn4 1_555 1_555
O13C Zn4B 1_555 1_555
C12A H7A 1_555 1_555
O14C C8C 1_555 1_555
C13A H8A 1_555 1_555
O15C Zn1C 1_555 1_555
O16A Zn3 1_555 1_555
O16C Zn3B 1_555 1_555
C14C C3C 1_555 1_555
H9C C14C 1_555 1_555
C15C C6C 1_555 1_555
C16A C25A 1_555 1_555
C17A C32A 1_555 1_555
C18A H10A 1_555 1_555
C19A C13A 1_555 1_555
O17A C19A 1_555 1_555
C20C C3C 1_555 1_555
C21C O5C 1_555 1_555
C22A C7A 1_555 1_555
O18A C39A 1_555 1_555
C24C C5C 1_555 1_555
H11C C24C 1_555 1_555
C25A H12A 1_555 1_555
C26A C4A 1_555 1_555
H13A C26A 1_555 1_555
C27A C4A 1_555 1_555
H14A C27A 1_555 1_555
C28C C14C 1_555 1_555
H15C C28C 1_555 1_555
C29B N1B 1_555 1_555
H16B C29B 1_555 1_555
H17B C29B 1_555 1_555
C30B N1B 1_555 1_555
H18B C30B 1_555 1_555
C31B C30B 1_555 1_555
H19B C31B 1_555 1_555
C32A C2A 1_555 1_555
C33A C12A 1_555 1_555
H20A C33A 1_555 1_555
C34C C9C 1_555 1_555
H21C C34C 1_555 1_555
C35A C7A 1_555 1_555
H22A C35A 1_555 1_555
C36A C39A 1_555 1_555
N2B C11B 1_555 1_555
N2B_2 Zn3B 1_555 1_555
C37A O8A 1_555 1_555
C38A C35A 1_555 1_555
H23A C38A 1_555 1_555
C39A O16A 1_555 1_555
C40A C2A 1_555 1_555
H24A C40A 1_555 1_555
C41A C18A 1_555 1_555
H25A C41A 1_555 1_555
C42A C16A 1_555 1_555
H26A C42A 1_555 1_555
C43A O17A 1_555 1_555
C44A C13A 1_555 1_555
H27A C44A 1_555 1_555
C45A C19A 1_555 1_555
H28A C45A 1_555 1_555
C46B C46 1_555 1_555
H29B C46B 1_555 1_555
H30B C46B 1_555 1_555
C47A C36A 1_555 1_555
H31A C47A 1_555 1_555
H32B O3B 1_555 1_555
H32C O3C 1_555 1_555
H33A O2A 1_555 1_555
H33B O2B 1_555 1_555
H34C O15C 1_555 1_555
H35C O15C 1_555 1_555
Zn4 O4 1_555 1_555
O9 C23 1_555 1_555
O11 Zn2A 1_555 1_555
C8 C15 1_555 1_555
C10 C15 1_555 1_555
C10 C34 1_555 1_555
C11 N2 1_555 1_555
C12 C32 1_555 1_555
C17 C32 1_555 1_555
C21 C24 1_555 1_555
C21 C28 1_555 1_555
C25 C27 1_555 1_555
C26 C42 1_555 1_555
C31 N2 1_555 1_555
C33 C43 1_555 1_555
C36 C44 1_555 1_555
C37 C38 1_555 1_555
C37 C41 1_555 1_555
C40 C43 1_555 1_555
C45 C47 1_555 1_555
Zn1B O3B 1_555 1_555
Zn4B O4B 1_555 1_555
Zn4A O2A 1_555 1_555
Zn4A O3C 1_555 1_555
Zn4C O4C 1_555 1_555
O10C C20C 1_555 1_555
O11A C22A 1_555 1_555
C8C C15C 1_555 1_555
C10C C15C 1_555 1_555
C10C C34C 1_555 1_555
O13A C22A 1_555 1_555
C12A C32A 1_555 1_555
C21C C24C 1_555 1_555
C21C C28C 1_555 1_555
C25A C27A 1_555 1_555
C26A C42A 1_555 1_555
C29B C46B 1_555 1_555
C31B N2B 1_555 1_555
C33A C43A 1_555 1_555
C36A C44A 1_555 1_555
C37A C38A 1_555 1_555
C37A C41A 1_555 1_555
C40A C43A 1_555 1_555
C45A C47A 1_555 1_555

#END
