
#######################################################################
#
#                 Cambridge Crystallographic Data Centre
#                                CCDC 
#
#######################################################################
#
# If this CIF has been generated from an entry in the Cambridge 
# Structural Database, then it will include bibliographic, chemical, 
# crystal, experimental, refinement or atomic coordinate data resulting 
# from the CCDC's data processing and validation procedures.
#
#######################################################################

data_HOKZAJ
_symmetry_cell_setting           triclinic
_symmetry_space_group_name_H-M   'P -1'
_symmetry_Int_Tables_number      2
_space_group_name_Hall           '-P 1'
loop_
_symmetry_equiv_pos_site_id
_symmetry_equiv_pos_as_xyz
1 x,y,z
2 -x,-y,-z
_cell_length_a                   4.3754(12)
_cell_length_b                   12.059(3)
_cell_length_c                   12.187(3)
_cell_angle_alpha                86.483(3)
_cell_angle_beta                 82.026(3)
_cell_angle_gamma                88.972(3)
_cell_volume                     635.576
loop_
_atom_site_label
_atom_site_type_symbol
_atom_site_fract_x
_atom_site_fract_y
_atom_site_fract_z
K1 K 0.21508(12) 0.37961(4) 0.08604(4)
F1 F 0.1062(3) 0.19861(11) -0.07888(12)
O1 O 0.4643(4) 0.17914(13) 0.17309(14)
O2 O 0.1215(4) 0.32784(13) 0.31561(13)
F2 F 0.0779(4) 0.08601(11) -0.26195(13)
F3 F -0.2838(4) 0.16151(12) -0.41762(12)
F4 F -0.6063(3) 0.35572(11) -0.38791(11)
F5 F -0.5800(3) 0.47081(11) -0.20600(11)
O3 O -0.2272(4) 0.39349(13) -0.04550(13)
C1 C -0.0760(5) 0.23855(19) -0.1544(2)
C2 C -0.0897(6) 0.18031(19) -0.2469(2)
C3 C -0.2690(6) 0.21845(19) -0.32630(19)
C4 C -0.4314(5) 0.3168(2) -0.31095(19)
C5 C -0.4153(5) 0.37403(18) -0.21776(19)
C6 C -0.2381(5) 0.33929(18) -0.13287(18)
C7 C 0.4812(7) 0.0903(2) 0.1009(2)
H1 H 0.5961 0.0279 0.1315
H2 H 0.5871 0.1153 0.0277
H3 H 0.2722 0.0664 0.0940
C8 C 0.3145(6) 0.14562(19) 0.2815(2)
H4 H 0.4258 0.0814 0.3123
H5 H 0.1005 0.1227 0.2772
C9 C 0.3109(6) 0.2405(2) 0.3552(2)
H6 H 0.2278 0.2158 0.4324
H7 H 0.5234 0.2675 0.3547
C10 C 0.0692(6) 0.4121(2) 0.3924(2)
H8 H -0.0473 0.3815 0.4618
H9 H -0.0489 0.4732 0.3612
H10 H 0.2676 0.4399 0.4072
K1_2 K -0.78492(12) 0.37961(4) 0.08604(4)
K1A K -0.21508(12) 0.62039(4) -0.08604(4)
O3_2 O 0.7728(4) 0.39349(13) -0.04550(13)
O3A O 0.2272(4) 0.60651(13) 0.04550(13)
loop_
_geom_bond_atom_site_label_1
_geom_bond_atom_site_label_2
_geom_bond_site_symmetry_1
_geom_bond_site_symmetry_2
K1 O1 1_555 1_555
F1 C1 1_555 1_555
O1 C7 1_555 1_555
O2 K1 1_555 1_555
F2 C2 1_555 1_555
F3 C3 1_555 1_555
F4 C4 1_555 1_555
F5 C5 1_555 1_555
O3 K1 1_555 1_555
C1 C2 1_555 1_555
C2 C3 1_555 1_555
C3 C4 1_555 1_555
C4 C5 1_555 1_555
C5 C6 1_555 1_555
C6 O3 1_555 1_555
C7 H1 1_555 1_555
H2 C7 1_555 1_555
H3 C7 1_555 1_555
C8 O1 1_555 1_555
H4 C8 1_555 1_555
H5 C8 1_555 1_555
C9 O2 1_555 1_555
H6 C9 1_555 1_555
H7 C9 1_555 1_555
C10 O2 1_555 1_555
H8 C10 1_555 1_555
H9 C10 1_555 1_555
H10 C10 1_555 1_555
K1_2 O3 1_555 1_555
K1A O3 1_555 1_555
O3_2 K1 1_555 1_555
O3A K1 1_555 1_555
C1 C6 1_555 1_555
C8 C9 1_555 1_555
K1A O3A 1_555 1_555

#END
