
#######################################################################
#
#                 Cambridge Crystallographic Data Centre
#                                CCDC 
#
#######################################################################
#
# If this CIF has been generated from an entry in the Cambridge 
# Structural Database, then it will include bibliographic, chemical, 
# crystal, experimental, refinement or atomic coordinate data resulting 
# from the CCDC's data processing and validation procedures.
#
#######################################################################

data_HOLQIK
_symmetry_cell_setting           cubic
_symmetry_space_group_name_H-M   'P a -3'
_symmetry_Int_Tables_number      205
_space_group_name_Hall           '-P 2ac 2ab 3'
loop_
_symmetry_equiv_pos_site_id
_symmetry_equiv_pos_as_xyz
1 x,y,z
2 z,x,y
3 y,z,x
4 1/2-y,-z,1/2+x
5 1/2+z,1/2-x,-y
6 -y,1/2+z,1/2-x
7 1/2-z,-x,1/2+y
8 -z,1/2+x,1/2-y
9 1/2+y,1/2-z,-x
10 1/2+x,1/2-y,-z
11 -x,1/2+y,1/2-z
12 1/2-x,-y,1/2+z
13 -x,-y,-z
14 -z,-x,-y
15 -y,-z,-x
16 1/2+y,z,1/2-x
17 1/2-z,1/2+x,y
18 y,1/2-z,1/2+x
19 1/2+z,x,1/2-y
20 z,1/2-x,1/2+y
21 1/2-y,1/2+z,x
22 1/2-x,1/2+y,z
23 x,1/2-y,1/2+z
24 1/2+x,y,1/2-z
_cell_length_a                   25.3840(10)
_cell_length_b                   25.3840(10)
_cell_length_c                   25.3840(10)
_cell_angle_alpha                90
_cell_angle_beta                 90
_cell_angle_gamma                90
_cell_volume                     16356.1
loop_
_atom_site_label
_atom_site_type_symbol
_atom_site_fract_x
_atom_site_fract_y
_atom_site_fract_z
O1 O 0.2180(2) 0.2180(2) 0.2180(2)
O2 O 0.1831(4) 0.1889(4) 0.0980(4)
O3 O 0.1878(3) 0.2298(4) -0.1723(4)
O4 O 0.2368(4) 0.3021(5) -0.1560(4)
O5 O 0.2662(5) 0.2451(4) 0.1032(5)
C1 C 0.1836(6) 0.1964(6) -0.0100(6)
H1 H 0.1618 0.1710 0.0049
C2 C 0.2510(10) 0.2722(11) 0.0032(10)
H2 H 0.2708 0.2940 0.0250
C3 C 0.2118(5) 0.2609(5) -0.1440(5)
C4 C 0.2204(7) 0.2287(7) 0.0212(8)
C5 C 0.2219(8) 0.2227(8) 0.0806(7)
C6 C 0.2130(6) 0.2464(5) -0.0845(6)
C7 C 0.2473(7) 0.2780(8) -0.0546(7)
H3 H 0.2681 0.3031 -0.0715
C8 C 0.1846(6) 0.2073(6) -0.0634(6)
N1 N 0.1583(8) 0.1679(8) -0.0935(8)
H4 H 0.1439 0.1832 -0.1201
O6 O 0.1676(15) 0.088(2) -0.0563(16)
C9 C 0.0975(8) 0.1172(12) -0.1766(12)
H5 H 0.1036 0.1533 -0.1779
C10 C 0.1181(8) 0.0922(14) -0.1353(11)
C11 C 0.121(2) 0.0406(18) -0.119(3)
H6 H 0.1382 0.0258 -0.0898
Cl1 Cl 0.0450(13) 0.0091(11) -0.2652(11)
C12 C 0.0683(11) 0.0968(18) -0.2177(14)
H7 H 0.0519 0.1116 -0.2469
C13 C 0.0922(19) 0.018(4) -0.157(2)
H8 H 0.0852 -0.0175 -0.1554
C14 C 0.0725(15) 0.047(2) -0.199(2)
C15 C 0.1471(10) 0.1160(12) -0.0967(14)
Zn1 Zn 0.17336(5) 0.17336(5) 0.17336(5)
Zn2 Zn 0.25066(5) 0.17647(5) 0.27217(5)
O2A O 0.0980(4) 0.1831(4) 0.1889(4)
O3A O -0.1723(4) 0.1878(3) 0.2298(4)
O4A O -0.1560(4) 0.2368(4) 0.3021(5)
O5A O 0.1032(5) 0.2662(5) 0.2451(4)
C1A C -0.0100(6) 0.1836(6) 0.1964(6)
H1A H 0.0049 0.1618 0.1710
C2A C 0.0032(10) 0.2510(10) 0.2722(11)
H2A H 0.0250 0.2708 0.2940
C3A C -0.1440(5) 0.2118(5) 0.2609(5)
C4A C 0.0212(8) 0.2204(7) 0.2287(7)
C5A C 0.0806(7) 0.2219(8) 0.2227(8)
C6A C -0.0845(6) 0.2130(6) 0.2464(5)
C7A C -0.0546(7) 0.2473(7) 0.2780(8)
H3A H -0.0715 0.2681 0.3031
C8A C -0.0634(6) 0.1846(6) 0.2073(6)
N1A N -0.0935(8) 0.1583(8) 0.1679(8)
H4A H -0.1201 0.1439 0.1832
O6A O -0.0563(16) 0.1676(15) 0.088(2)
C9A C -0.1766(12) 0.0975(8) 0.1172(12)
H5A H -0.1779 0.1036 0.1533
C10A C -0.1353(11) 0.1181(8) 0.0922(14)
C11A C -0.119(3) 0.121(2) 0.0406(18)
H6A H -0.0898 0.1382 0.0258
Cl1A Cl -0.2652(11) 0.0450(13) 0.0091(11)
C12A C -0.2177(14) 0.0683(11) 0.0968(18)
H7A H -0.2469 0.0519 0.1116
C13A C -0.157(2) 0.0922(19) 0.018(4)
H8A H -0.1554 0.0852 -0.0175
C14A C -0.199(2) 0.0725(15) 0.047(2)
C15A C -0.0967(14) 0.1471(10) 0.1160(12)
Zn2A Zn 0.27217(5) 0.25066(5) 0.17647(5)
O2B O 0.1889(4) 0.0980(4) 0.1831(4)
O3B O 0.2298(4) -0.1723(4) 0.1878(3)
O4B O 0.3021(5) -0.1560(4) 0.2368(4)
O5B O 0.2451(4) 0.1032(5) 0.2662(5)
C1B C 0.1964(6) -0.0100(6) 0.1836(6)
H1B H 0.1710 0.0049 0.1618
C2B C 0.2722(11) 0.0032(10) 0.2510(10)
H2B H 0.2940 0.0250 0.2708
C3B C 0.2609(5) -0.1440(5) 0.2118(5)
C4B C 0.2287(7) 0.0212(8) 0.2204(7)
C5B C 0.2227(8) 0.0806(7) 0.2219(8)
C6B C 0.2464(5) -0.0845(6) 0.2130(6)
C7B C 0.2780(8) -0.0546(7) 0.2473(7)
H3B H 0.3031 -0.0715 0.2681
C8B C 0.2073(6) -0.0634(6) 0.1846(6)
N1B N 0.1679(8) -0.0935(8) 0.1583(8)
H4B H 0.1832 -0.1201 0.1439
O6B O 0.088(2) -0.0563(16) 0.1676(15)
C9B C 0.1172(12) -0.1766(12) 0.0975(8)
H5B H 0.1533 -0.1779 0.1036
C10B C 0.0922(14) -0.1353(11) 0.1181(8)
C11B C 0.0406(18) -0.119(3) 0.121(2)
H6B H 0.0258 -0.0898 0.1382
Cl1B Cl 0.0091(11) -0.2652(11) 0.0450(13)
C12B C 0.0968(18) -0.2177(14) 0.0683(11)
H7B H 0.1116 -0.2469 0.0519
C13B C 0.018(4) -0.157(2) 0.0922(19)
H8B H -0.0175 -0.1554 0.0852
C14B C 0.047(2) -0.199(2) 0.0725(15)
C15B C 0.1160(12) -0.0967(14) 0.1471(10)
Zn2B Zn 0.17647(5) 0.27217(5) 0.25066(5)
O3R O 0.3277(4) 0.1878(3) 0.2702(4)
O3T O 0.2702(4) 0.3277(4) 0.1878(3)
O3V O 0.1878(3) 0.2702(4) 0.3277(4)
O4R O 0.3440(4) 0.2368(4) 0.1979(5)
O4T O 0.1979(5) 0.3440(4) 0.2368(4)
O4V O 0.2368(4) 0.1979(5) 0.3440(4)
Zn2P Zn 0.22783(5) -0.24934(5) 0.17647(5)
Zn2Q Zn 0.17647(5) 0.22783(5) -0.24934(5)
Zn2R Zn -0.22783(5) 0.25066(5) 0.32353(5)
Zn2T Zn 0.32353(5) -0.22783(5) 0.25066(5)
Zn2V Zn 0.25066(5) 0.32353(5) -0.22783(5)
Zn2W Zn -0.24934(5) 0.17647(5) 0.22783(5)
loop_
_geom_bond_atom_site_label_1
_geom_bond_atom_site_label_2
_geom_bond_site_symmetry_1
_geom_bond_site_symmetry_2
O1 Zn1 1_555 1_555
O2 C5 1_555 1_555
O3 C3 1_555 1_555
O4 C3 1_555 1_555
O5 C5 1_555 1_555
C1 H1 1_555 1_555
C2 H2 1_555 1_555
C3 C6 1_555 1_555
C4 C1 1_555 1_555
C5 C4 1_555 1_555
C6 C7 1_555 1_555
C7 C2 1_555 1_555
H3 C7 1_555 1_555
C8 C1 1_555 1_555
N1 C8 1_555 1_555
H4 N1 1_555 1_555
O6 C15 1_555 1_555
C9 H5 1_555 1_555
C10 C9 1_555 1_555
C11 C10 1_555 1_555
H6 C11 1_555 1_555
Cl1 C14 1_555 1_555
C12 C9 1_555 1_555
H7 C12 1_555 1_555
C13 C11 1_555 1_555
H8 C13 1_555 1_555
C14 C12 1_555 1_555
C15 N1 1_555 1_555
Zn1 O2 1_555 1_555
Zn2 O1 1_555 1_555
O2A Zn1 1_555 1_555
O3A C3A 1_555 1_555
O4A C3A 1_555 1_555
O5A C5A 1_555 1_555
C1A H1A 1_555 1_555
C2A H2A 1_555 1_555
C3A C6A 1_555 1_555
C4A C1A 1_555 1_555
C5A O2A 1_555 1_555
C6A C7A 1_555 1_555
C7A C2A 1_555 1_555
H3A C7A 1_555 1_555
C8A C1A 1_555 1_555
N1A C8A 1_555 1_555
H4A N1A 1_555 1_555
O6A C15A 1_555 1_555
C9A H5A 1_555 1_555
C10A C9A 1_555 1_555
C11A C10A 1_555 1_555
H6A C11A 1_555 1_555
Cl1A C14A 1_555 1_555
C12A C9A 1_555 1_555
H7A C12A 1_555 1_555
C13A C11A 1_555 1_555
H8A C13A 1_555 1_555
C14A C12A 1_555 1_555
C15A N1A 1_555 1_555
Zn2A O1 1_555 1_555
O2B Zn1 1_555 1_555
O3B C3B 1_555 1_555
O4B C3B 1_555 1_555
O5B Zn2 1_555 1_555
C1B H1B 1_555 1_555
C2B H2B 1_555 1_555
C3B C6B 1_555 1_555
C4B C1B 1_555 1_555
C5B O2B 1_555 1_555
C6B C7B 1_555 1_555
C7B C2B 1_555 1_555
H3B C7B 1_555 1_555
C8B C1B 1_555 1_555
N1B C8B 1_555 1_555
H4B N1B 1_555 1_555
O6B C15B 1_555 1_555
C9B H5B 1_555 1_555
C10B C9B 1_555 1_555
C11B C10B 1_555 1_555
H6B C11B 1_555 1_555
Cl1B C14B 1_555 1_555
C12B C9B 1_555 1_555
H7B C12B 1_555 1_555
C13B C11B 1_555 1_555
H8B C13B 1_555 1_555
C14B C12B 1_555 1_555
C15B N1B 1_555 1_555
Zn2B O1 1_555 1_555
O3R Zn2 1_555 1_555
O3T Zn2A 1_555 1_555
O3V Zn2B 1_555 1_555
O4R Zn2A 1_555 1_555
O4T Zn2B 1_555 1_555
O4V Zn2 1_555 1_555
Zn2P O3B 1_555 1_555
Zn2Q O3 1_555 1_555
Zn2R O4A 1_555 1_555
Zn2T O4B 1_555 1_555
Zn2V O4 1_555 1_555
Zn2W O3A 1_555 1_555
O5 Zn2A 1_555 1_555
C2 C4 1_555 1_555
C6 C8 1_555 1_555
C10 C15 1_555 1_555
C13 C14 1_555 1_555
O5A Zn2B 1_555 1_555
C2A C4A 1_555 1_555
C4A C5A 1_555 1_555
C6A C8A 1_555 1_555
C10A C15A 1_555 1_555
C13A C14A 1_555 1_555
O5B C5B 1_555 1_555
C2B C4B 1_555 1_555
C4B C5B 1_555 1_555
C6B C8B 1_555 1_555
C10B C15B 1_555 1_555
C13B C14B 1_555 1_555

#END
