
#######################################################################
#
#                 Cambridge Crystallographic Data Centre
#                                CCDC 
#
#######################################################################
#
# If this CIF has been generated from an entry in the Cambridge 
# Structural Database, then it will include bibliographic, chemical, 
# crystal, experimental, refinement or atomic coordinate data resulting 
# from the CCDC's data processing and validation procedures.
#
#######################################################################

data_HOLRIL
_symmetry_cell_setting           triclinic
_symmetry_space_group_name_H-M   'P -1'
_symmetry_Int_Tables_number      2
_space_group_name_Hall           '-P 1'
loop_
_symmetry_equiv_pos_site_id
_symmetry_equiv_pos_as_xyz
1 x,y,z
2 -x,-y,-z
_cell_length_a                   13.0336(9)
_cell_length_b                   13.2483(9)
_cell_length_c                   16.6020(11)
_cell_angle_alpha                79.807(5)
_cell_angle_beta                 86.092(5)
_cell_angle_gamma                73.575(6)
_cell_volume                     2705.83
loop_
_atom_site_label
_atom_site_type_symbol
_atom_site_fract_x
_atom_site_fract_y
_atom_site_fract_z
Co1 Co 0.00000 0.00000 0.50000
Co2 Co 0.47129(6) 0.12132(6) 0.02184(5)
P1 P 0.57031(12) -0.07738(12) 0.16880(9)
O1 O 0.3180(3) 0.1276(3) 0.0599(2)
O2 O 0.4983(3) 0.1737(3) 0.1264(2)
O3 O 0.5328(3) -0.0466(3) 0.0806(2)
O4 O 0.6183(3) 0.1366(3) -0.0198(2)
O5 O 0.4163(4) 0.2818(3) -0.0269(3)
O6 O -0.0465(3) -0.1085(4) 0.4495(3)
O7 O 0.0486(4) -0.1139(4) 0.5996(3)
O8 O 0.1638(3) -0.0691(4) 0.4582(3)
N1 N 0.4872(4) -0.0165(4) 0.2341(3)
H1 H 0.4834 0.0497 0.2319
C1 C 0.4181(5) -0.0592(5) 0.2958(3)
H2 H 0.4527 -0.1347 0.3154
C2 C 0.5914(5) -0.2157(5) 0.2073(3)
C3 C 0.5146(5) -0.2656(5) 0.1963(4)
H3 H 0.4554 -0.2286 0.1644
C4 C 0.6932(5) -0.0439(5) 0.1747(3)
C5 C 0.3325(5) -0.0369(6) 0.4376(4)
C6 C 0.3100(5) -0.0480(6) 0.2640(3)
H4 H 0.3193 -0.0839 0.2168
H5 H 0.2762 0.0271 0.2455
C7 C 0.6678(5) 0.1938(5) 0.0061(4)
N2 N 0.2362(4) -0.0525(4) 0.4042(3)
C8 C 0.2350(5) -0.0923(6) 0.3252(4)
C9 C 0.4008(5) 0.0023(6) 0.3674(3)
H6 H 0.47 -0.0027 0.3884
H7 H 0.367 0.0769 0.3474
C10 C 0.5643(6) 0.2271(5) 0.1292(4)
C11 C 0.2419(6) 0.2105(6) 0.0581(4)
C12 C 0.7203(6) -0.0145(6) 0.2448(4)
H8 H 0.6739 -0.0104 0.29
C13 C 0.2943(6) 0.0489(8) 0.4925(4)
H9 H 0.2547 0.1144 0.4606
H10 H 0.3551 0.0601 0.5155
H11 H 0.2492 0.026 0.5359
C14 C 0.3292(7) 0.3424(6) -0.0106(4)
C15 C 0.1204(5) -0.0515(7) 0.2939(4)
H12 H 0.0736 -0.0796 0.333
H13 H 0.1176 -0.0742 0.2426
H14 H 0.0982 0.0251 0.2866
C16 C 0.6472(6) 0.2400(5) 0.0761(4)
H15 H 0.6903 0.2808 0.0875
C17 C 0.2389(7) 0.3159(6) 0.0259(5)
H16 H 0.1754 0.3694 0.0288
F1 F 0.8144(5) 0.1301(5) -0.0793(4)
F2 F 0.7256(5) 0.2862(6) -0.1119(4)
F3 F 0.8289(4) 0.2461(5) -0.0144(3)
C18 C 0.5255(7) -0.3709(6) 0.2328(5)
H17 H 0.4742 -0.4046 0.225
C19 C 0.7613(7) 0.2131(8) -0.0496(5)
C20 C 0.6774(7) -0.2735(6) 0.2551(5)
H18 H 0.7301 -0.2415 0.2632
C21 C 0.8608(6) -0.0267(7) 0.1122(6)
H19 H 0.9087 -0.0317 0.068
C22 C 0.7635(5) -0.0510(6) 0.1089(4)
H20 H 0.7464 -0.0719 0.0621
F4 F 0.4615(6) 0.3646(5) 0.1947(4)
F5 F 0.5284(6) 0.2210(5) 0.2716(3)
F6 F 0.1294(4) 0.0982(5) 0.0958(4)
F7 F -0.0189(7) -0.2546(6) 0.3454(4)
F8 F 0.6206(5) 0.3234(5) 0.2182(3)
F9 F -0.1599(6) -0.2397(5) 0.4098(5)
F10 F -0.0358(7) -0.3708(5) 0.4449(4)
F11 F 0.0531(5) 0.2643(6) 0.0706(5)
C23 C -0.0238(6) -0.2063(6) 0.4756(5)
F12 F 0.1355(5) 0.1964(5) 0.1759(4)
C24 C -0.0574(9) -0.2692(8) 0.4190(7)
C25 C 0.5442(8) 0.2822(8) 0.2048(5)
C26 C 0.3949(6) -0.1401(8) 0.4885(4)
H21 H 0.3493 -0.1632 0.5314
H22 H 0.4551 -0.1286 0.512
H23 H 0.4196 -0.1938 0.4543
C27 C 0.1397(7) 0.1913(9) 0.0957(7)
C28 C 0.2696(7) -0.2151(6) 0.3431(5)
H24 H 0.2206 -0.2398 0.3822
H25 H 0.3403 -0.2395 0.365
H26 H 0.2695 -0.2426 0.2934
C29 C 0.8181(7) 0.0091(7) 0.2468(6)
H27 H 0.8372 0.0282 0.2937
C30 C 0.0283(7) -0.2617(6) 0.5460(5)
H28 H 0.0415 -0.3355 0.5569
F13 F 0.4057(7) 0.4818(4) -0.0675(5)
C31 C 0.8843(7) 0.0042(8) 0.1812(7)
H29 H 0.9479 0.0223 0.1828
C32 C 0.0618(5) -0.2111(6) 0.6011(4)
C33 C 0.3226(10) 0.4601(7) -0.0341(8)
C34 C 0.1255(11) -0.2807(9) 0.6751(8)
C35 C 0.6871(9) -0.3757(7) 0.2907(6)
H30 H 0.7461 -0.4128 0.3227
C36 C 0.6118(9) -0.4246(7) 0.2802(6)
H31 H 0.619 -0.4948 0.3052
F14 F 0.1022(7) -0.2403(6) 0.7419(4)
F15 F 0.1174(9) -0.3758(6) 0.6905(6)
F16 F 0.2245(7) -0.2886(9) 0.6639(6)
F17 F 0.2970(12) 0.5096(5) 0.0220(6)
F18 F 0.2553(9) 0.5054(6) -0.0872(9)
Co2A Co -0.47129(6) -0.12132(6) 0.97816(5)
P1A P -0.57031(12) 0.07738(12) 0.83120(9)
O1A O -0.3180(3) -0.1276(3) 0.9401(2)
O2A O -0.4983(3) -0.1737(3) 0.8736(2)
O3A O -0.5328(3) 0.0466(3) 0.9194(2)
O4A O -0.6183(3) -0.1366(3) 1.0198(2)
O5A O -0.4163(4) -0.2818(3) 1.0269(3)
O6A O 0.0465(3) 0.1085(4) 0.5505(3)
O7A O -0.0486(4) 0.1139(4) 0.4004(3)
O8A O -0.1638(3) 0.0691(4) 0.5418(3)
N1A N -0.4872(4) 0.0165(4) 0.7659(3)
H1A H -0.4834 -0.0497 0.7681
C1A C -0.4181(5) 0.0592(5) 0.7042(3)
H2A H -0.4527 0.1347 0.6846
C2A C -0.5914(5) 0.2157(5) 0.7927(3)
C3A C -0.5146(5) 0.2656(5) 0.8037(4)
H3A H -0.4554 0.2286 0.8356
C4A C -0.6932(5) 0.0439(5) 0.8253(3)
C5A C -0.3325(5) 0.0369(6) 0.5624(4)
C6A C -0.3100(5) 0.0480(6) 0.7360(3)
H4A H -0.3193 0.0839 0.7832
H5A H -0.2762 -0.0271 0.7545
C7A C -0.6678(5) -0.1938(5) 0.9939(4)
N2A N -0.2362(4) 0.0525(4) 0.5958(3)
C8A C -0.2350(5) 0.0923(6) 0.6748(4)
C9A C -0.4008(5) -0.0023(6) 0.6326(3)
H6A H -0.47 0.0027 0.6116
H7A H -0.367 -0.0769 0.6526
C10A C -0.5643(6) -0.2271(5) 0.8708(4)
C11A C -0.2419(6) -0.2105(6) 0.9419(4)
C12A C -0.7203(6) 0.0145(6) 0.7552(4)
H8A H -0.6739 0.0104 0.71
C13A C -0.2943(6) -0.0489(8) 0.5075(4)
H9A H -0.2547 -0.1144 0.5394
H10A H -0.3551 -0.0601 0.4845
H11A H -0.2492 -0.026 0.4641
C14A C -0.3292(7) -0.3424(6) 1.0106(4)
C15A C -0.1204(5) 0.0515(7) 0.7061(4)
H12A H -0.0736 0.0796 0.667
H13A H -0.1176 0.0742 0.7574
H14A H -0.0982 -0.0251 0.7134
C16A C -0.6472(6) -0.2400(5) 0.9239(4)
H15A H -0.6903 -0.2808 0.9125
C17A C -0.2389(7) -0.3159(6) 0.9741(5)
H16A H -0.1754 -0.3694 0.9712
F1A F -0.8144(5) -0.1301(5) 1.0793(4)
F2A F -0.7256(5) -0.2862(6) 1.1119(4)
F3A F -0.8289(4) -0.2461(5) 1.0144(3)
C18A C -0.5255(7) 0.3709(6) 0.7672(5)
H17A H -0.4742 0.4046 0.775
C19A C -0.7613(7) -0.2131(8) 1.0496(5)
C20A C -0.6774(7) 0.2735(6) 0.7449(5)
H18A H -0.7301 0.2415 0.7368
C21A C -0.8608(6) 0.0267(7) 0.8878(6)
H19A H -0.9087 0.0317 0.932
C22A C -0.7635(5) 0.0510(6) 0.8911(4)
H20A H -0.7464 0.0719 0.9379
F4A F -0.4615(6) -0.3646(5) 0.8053(4)
F5A F -0.5284(6) -0.2210(5) 0.7284(3)
F6A F -0.1294(4) -0.0982(5) 0.9042(4)
F7A F 0.0189(7) 0.2546(6) 0.6546(4)
F8A F -0.6206(5) -0.3234(5) 0.7818(3)
F9A F 0.1599(6) 0.2397(5) 0.5902(5)
F10A F 0.0358(7) 0.3708(5) 0.5551(4)
F11A F -0.0531(5) -0.2643(6) 0.9294(5)
C23A C 0.0238(6) 0.2063(6) 0.5244(5)
F12A F -0.1355(5) -0.1964(5) 0.8241(4)
C24A C 0.0574(9) 0.2692(8) 0.5810(7)
C25A C -0.5442(8) -0.2822(8) 0.7952(5)
C26A C -0.3949(6) 0.1401(8) 0.5115(4)
H21A H -0.3493 0.1632 0.4686
H22A H -0.4551 0.1286 0.488
H23A H -0.4196 0.1938 0.5457
C27A C -0.1397(7) -0.1913(9) 0.9043(7)
C28A C -0.2696(7) 0.2151(6) 0.6569(5)
H24A H -0.2206 0.2398 0.6178
H25A H -0.3403 0.2395 0.635
H26A H -0.2695 0.2426 0.7066
C29A C -0.8181(7) -0.0091(7) 0.7532(6)
H27A H -0.8372 -0.0282 0.7063
C30A C -0.0283(7) 0.2617(6) 0.4540(5)
H28A H -0.0415 0.3355 0.4431
F13A F -0.4057(7) -0.4818(4) 1.0675(5)
C31A C -0.8843(7) -0.0042(8) 0.8188(7)
H29A H -0.9479 -0.0223 0.8172
C32A C -0.0618(5) 0.2111(6) 0.3989(4)
C33A C -0.3226(10) -0.4601(7) 1.0341(8)
C34A C -0.1255(11) 0.2807(9) 0.3249(8)
C35A C -0.6871(9) 0.3757(7) 0.7093(6)
H30A H -0.7461 0.4128 0.6773
C36A C -0.6118(9) 0.4246(7) 0.7198(6)
H31A H -0.619 0.4948 0.6948
F14A F -0.1022(7) 0.2403(6) 0.2581(4)
F15A F -0.1174(9) 0.3758(6) 0.3095(6)
F16A F -0.2245(7) 0.2886(9) 0.3361(6)
F17A F -0.2970(12) -0.5096(5) 0.9780(6)
F18A F -0.2553(9) -0.5054(6) 1.0872(9)
Co2_2 Co -0.52871(6) 0.12132(6) 1.02184(5)
Co2A_2 Co 0.52871(6) -0.12132(6) -0.02184(5)
O3_2 O -0.4672(3) -0.0466(3) 1.0806(2)
O3A_2 O 0.4672(3) 0.0466(3) -0.0806(2)
C37 C 0.1527(16) 0.4977(17) 0.2406(11)
H32 H 0.1603 0.5678 0.2431
H33 H 0.1962 0.4715 0.1949
C38 C 0.265(2) 0.4707(16) 0.3546(14)
H34 H 0.223 0.5367 0.3719
H35 H 0.3159 0.488 0.313
C39 C 0.323(2) 0.3991(18) 0.4254(16)
H36 H 0.2729 0.3765 0.4652
H37 H 0.3708 0.336 0.4074
C40 C 0.0037(18) 0.5898(17) 0.1551(13)
H38 H -0.0666 0.5876 0.1431
H39 H 0.0504 0.5764 0.1086
H40 H 0.0003 0.6588 0.1674
C41 C 0.1927(19) 0.4239(16) 0.3184(15)
H41 H 0.1334 0.4175 0.3557
H42 H 0.231 0.3535 0.3069
C42 C 0.383(2) 0.450(2) 0.4618(16)
H43 H 0.415 0.4046 0.5104
H44 H 0.3368 0.5154 0.4759
H45 H 0.4378 0.4657 0.4242
C43 C 0.0459(18) 0.506(2) 0.2271(16)
H46 H 0.0033 0.5244 0.2755
H47 H 0.0395 0.4382 0.2179
loop_
_geom_bond_atom_site_label_1
_geom_bond_atom_site_label_2
_geom_bond_site_symmetry_1
_geom_bond_site_symmetry_2
Co1 O6 1_555 1_555
Co2 O1 1_555 1_555
P1 O3 1_555 1_555
O1 C11 1_555 1_555
O2 Co2 1_555 1_555
O3 Co2 1_555 1_555
O4 Co2 1_555 1_555
O5 Co2 1_555 1_555
O6 C23 1_555 1_555
O7 Co1 1_555 1_555
O8 Co1 1_555 1_555
N1 P1 1_555 1_555
H1 N1 1_555 1_555
C1 N1 1_555 1_555
H2 C1 1_555 1_555
C2 P1 1_555 1_555
C3 C2 1_555 1_555
H3 C3 1_555 1_555
C4 P1 1_555 1_555
C5 N2 1_555 1_555
C6 C1 1_555 1_555
H4 C6 1_555 1_555
H5 C6 1_555 1_555
C7 O4 1_555 1_555
N2 O8 1_555 1_555
C8 C6 1_555 1_555
C9 C1 1_555 1_555
H6 C9 1_555 1_555
H7 C9 1_555 1_555
C10 O2 1_555 1_555
C11 C17 1_555 1_555
C12 C4 1_555 1_555
H8 C12 1_555 1_555
C13 C5 1_555 1_555
H9 C13 1_555 1_555
H10 C13 1_555 1_555
H11 C13 1_555 1_555
C14 O5 1_555 1_555
C15 C8 1_555 1_555
H12 C15 1_555 1_555
H13 C15 1_555 1_555
H14 C15 1_555 1_555
C16 C7 1_555 1_555
H15 C16 1_555 1_555
C17 C14 1_555 1_555
H16 C17 1_555 1_555
F1 C19 1_555 1_555
F2 C19 1_555 1_555
F3 C19 1_555 1_555
C18 C3 1_555 1_555
H17 C18 1_555 1_555
C19 C7 1_555 1_555
C20 C2 1_555 1_555
H18 C20 1_555 1_555
C21 H19 1_555 1_555
C22 C4 1_555 1_555
H20 C22 1_555 1_555
F4 C25 1_555 1_555
F5 C25 1_555 1_555
F6 C27 1_555 1_555
F7 C24 1_555 1_555
F8 C25 1_555 1_555
F9 C24 1_555 1_555
F10 C24 1_555 1_555
F11 C27 1_555 1_555
C23 C24 1_555 1_555
F12 C27 1_555 1_555
C25 C10 1_555 1_555
C26 C5 1_555 1_555
H21 C26 1_555 1_555
H22 C26 1_555 1_555
H23 C26 1_555 1_555
C27 C11 1_555 1_555
C28 C8 1_555 1_555
H24 C28 1_555 1_555
H25 C28 1_555 1_555
H26 C28 1_555 1_555
C29 C12 1_555 1_555
H27 C29 1_555 1_555
C30 C23 1_555 1_555
H28 C30 1_555 1_555
F13 C33 1_555 1_555
C31 C21 1_555 1_555
H29 C31 1_555 1_555
C32 O7 1_555 1_555
C33 C14 1_555 1_555
C34 C32 1_555 1_555
C35 C20 1_555 1_555
H30 C35 1_555 1_555
C36 C18 1_555 1_555
H31 C36 1_555 1_555
F14 C34 1_555 1_555
F15 C34 1_555 1_555
F16 C34 1_555 1_555
F17 C33 1_555 1_555
F18 C33 1_555 1_555
C37 H32 1_555 1_555
H33 C37 1_555 1_555
C38 H34 1_555 1_555
H35 C38 1_555 1_555
C39 C38 1_555 1_555
H36 C39 1_555 1_555
H37 C39 1_555 1_555
C40 H38 1_555 1_555
H39 C40 1_555 1_555
H40 C40 1_555 1_555
C41 C37 1_555 1_555
H41 C41 1_555 1_555
H42 C41 1_555 1_555
C42 C39 1_555 1_555
H43 C42 1_555 1_555
H44 C42 1_555 1_555
H45 C42 1_555 1_555
C43 C37 1_555 1_555
H46 C43 1_555 1_555
H47 C43 1_555 1_555
Co2A O1A 1_555 1_555
P1A O3A 1_555 1_555
O1A C11A 1_555 1_555
O2A Co2A 1_555 1_555
O3A Co2A 1_555 1_555
O4A Co2A 1_555 1_555
O5A Co2A 1_555 1_555
O6A Co1 1_555 1_555
O7A Co1 1_555 1_555
O8A Co1 1_555 1_555
N1A P1A 1_555 1_555
H1A N1A 1_555 1_555
C1A N1A 1_555 1_555
H2A C1A 1_555 1_555
C2A P1A 1_555 1_555
C3A C2A 1_555 1_555
H3A C3A 1_555 1_555
C4A P1A 1_555 1_555
C5A N2A 1_555 1_555
C6A C1A 1_555 1_555
H4A C6A 1_555 1_555
H5A C6A 1_555 1_555
C7A O4A 1_555 1_555
N2A O8A 1_555 1_555
C8A C6A 1_555 1_555
C9A C1A 1_555 1_555
H6A C9A 1_555 1_555
H7A C9A 1_555 1_555
C10A O2A 1_555 1_555
C11A C17A 1_555 1_555
C12A C4A 1_555 1_555
H8A C12A 1_555 1_555
C13A C5A 1_555 1_555
H9A C13A 1_555 1_555
H10A C13A 1_555 1_555
H11A C13A 1_555 1_555
C14A O5A 1_555 1_555
C15A C8A 1_555 1_555
H12A C15A 1_555 1_555
H13A C15A 1_555 1_555
H14A C15A 1_555 1_555
C16A C7A 1_555 1_555
H15A C16A 1_555 1_555
C17A C14A 1_555 1_555
H16A C17A 1_555 1_555
F1A C19A 1_555 1_555
F2A C19A 1_555 1_555
F3A C19A 1_555 1_555
C18A C3A 1_555 1_555
H17A C18A 1_555 1_555
C19A C7A 1_555 1_555
C20A C2A 1_555 1_555
H18A C20A 1_555 1_555
C21A H19A 1_555 1_555
C22A C4A 1_555 1_555
H20A C22A 1_555 1_555
F4A C25A 1_555 1_555
F5A C25A 1_555 1_555
F6A C27A 1_555 1_555
F7A C24A 1_555 1_555
F8A C25A 1_555 1_555
F9A C24A 1_555 1_555
F10A C24A 1_555 1_555
F11A C27A 1_555 1_555
C23A O6A 1_555 1_555
F12A C27A 1_555 1_555
C24A C23A 1_555 1_555
C25A C10A 1_555 1_555
C26A C5A 1_555 1_555
H21A C26A 1_555 1_555
H22A C26A 1_555 1_555
H23A C26A 1_555 1_555
C27A C11A 1_555 1_555
C28A C8A 1_555 1_555
H24A C28A 1_555 1_555
H25A C28A 1_555 1_555
H26A C28A 1_555 1_555
C29A C12A 1_555 1_555
H27A C29A 1_555 1_555
C30A C23A 1_555 1_555
H28A C30A 1_555 1_555
F13A C33A 1_555 1_555
C31A C21A 1_555 1_555
H29A C31A 1_555 1_555
C32A O7A 1_555 1_555
C33A C14A 1_555 1_555
C34A C32A 1_555 1_555
C35A C20A 1_555 1_555
H30A C35A 1_555 1_555
C36A C18A 1_555 1_555
H31A C36A 1_555 1_555
F14A C34A 1_555 1_555
F15A C34A 1_555 1_555
F16A C34A 1_555 1_555
F17A C33A 1_555 1_555
F18A C33A 1_555 1_555
Co2_2 O3A 1_555 1_555
Co2A_2 O3 1_555 1_555
O3_2 Co2A 1_555 1_555
O3A_2 Co2 1_555 1_555
C5 C9 1_555 1_555
N2 C8 1_555 1_555
C10 C16 1_555 1_555
C21 C22 1_555 1_555
C29 C31 1_555 1_555
C30 C32 1_555 1_555
C35 C36 1_555 1_555
C38 C41 1_555 1_555
C40 C43 1_555 1_555
C5A C9A 1_555 1_555
N2A C8A 1_555 1_555
C10A C16A 1_555 1_555
C21A C22A 1_555 1_555
C29A C31A 1_555 1_555
C30A C32A 1_555 1_555
C35A C36A 1_555 1_555
Co2_2 O3_2 1_555 1_555
Co2A_2 O3A_2 1_555 1_555

#END
