
#######################################################################
#
#                 Cambridge Crystallographic Data Centre
#                                CCDC 
#
#######################################################################
#
# If this CIF has been generated from an entry in the Cambridge 
# Structural Database, then it will include bibliographic, chemical, 
# crystal, experimental, refinement or atomic coordinate data resulting 
# from the CCDC's data processing and validation procedures.
#
#######################################################################

data_HOMDAQ
_symmetry_cell_setting           monoclinic
_symmetry_space_group_name_H-M   'C 2/c'
_symmetry_Int_Tables_number      15
_space_group_name_Hall           '-C 2yn'
loop_
_symmetry_equiv_pos_site_id
_symmetry_equiv_pos_as_xyz
1 x,y,z
2 -x,y,1/2-z
3 1/2+x,1/2+y,z
4 1/2-x,1/2+y,1/2-z
5 -x,-y,-z
6 x,-y,1/2+z
7 1/2-x,1/2-y,-z
8 1/2+x,1/2-y,1/2+z
_cell_length_a                   16.2019(11)
_cell_length_b                   11.9882(8)
_cell_length_c                   28.7687(19)
_cell_angle_alpha                90
_cell_angle_beta                 97.3360(10)
_cell_angle_gamma                90
_cell_volume                     5542.05
loop_
_atom_site_label
_atom_site_type_symbol
_atom_site_fract_x
_atom_site_fract_y
_atom_site_fract_z
Ni1 Ni -0.134980(16) 0.50620(2) -0.018741(9)
O1 O -0.07924(9) 0.65004(13) -0.03095(6)
N1 N -0.13064(11) 0.47041(16) -0.08966(7)
C1 C -0.09689(17) 0.3799(2) -0.10675(9)
H1 H -0.0804 0.3213 -0.0865
O2 O 0.23439(9) 1.06830(12) -0.03821(5)
N2 N -0.13957(11) 0.44382(16) -0.45020(6)
C2 C -0.08571(19) 0.3701(2) -0.15318(10)
H2 H -0.0626 0.3055 -0.1639
O3 O 0.05097(9) 0.61911(13) 0.00071(6)
N3 N -0.13654(13) 0.67442(17) -0.23230(6)
H3 H -0.0972 0.6314 -0.2389
C3 C -0.10888(17) 0.4565(2) -0.18368(9)
H4 H -0.1003 0.4520 -0.2150
O4 O 0.26489(9) 0.89783(12) -0.01399(5)
N4 N -0.14388(13) 0.66879(17) -0.33569(7)
H5 H -0.1834 0.6764 -0.3585
C4 C -0.14514(15) 0.5501(2) -0.16687(8)
O5 O -0.23426(13) 0.70538(17) -0.18454(7)
C5 C -0.15531(14) 0.5525(2) -0.11996(8)
H6 H -0.1807 0.6148 -0.1087
C6 C -0.17613(17) 0.6498(2) -0.19565(8)
O6 O -0.06006(12) 0.54182(17) -0.29453(6)
C7 C -0.15811(17) 0.7725(2) -0.26129(8)
H7 H -0.2188 0.7750 -0.2690
C8 C -0.13014(19) 0.8782(2) -0.23448(9)
H8 H -0.0705 0.8749 -0.2251
H9 H -0.1570 0.8822 -0.2063
C9 C -0.1509(2) 0.9830(2) -0.26370(11)
H10 H -0.2109 0.9916 -0.2697
H11 H -0.1285 1.0477 -0.2462
C10 C -0.1159(2) 0.9776(2) -0.30939(12)
H12 H -0.0557 0.9826 -0.3035
H13 H -0.1359 1.0410 -0.3285
C11 C -0.1400(2) 0.8708(2) -0.33608(10)
H14 H -0.1108 0.8674 -0.3635
H15 H -0.1992 0.8724 -0.3469
C12 C -0.12006(17) 0.7660(2) -0.30665(8)
H16 H -0.0595 0.7633 -0.2984
C13 C -0.10872(16) 0.5681(2) -0.32964(8)
C14 C -0.13084(16) 0.4858(2) -0.36831(8)
C15 C -0.15295(19) 0.3774(2) -0.35920(10)
H17 H -0.1567 0.3544 -0.3287
C16 C -0.16944(19) 0.3037(2) -0.39610(10)
H18 H -0.1853 0.2307 -0.3908
C17 C -0.16210(16) 0.3395(2) -0.44079(9)
H19 H -0.1732 0.2894 -0.4655
C18 C -0.12439(15) 0.5151(2) -0.41436(8)
H20 H -0.1088 0.5877 -0.4206
C19 C -0.00502(13) 0.67816(17) -0.02044(7)
C20 C 0.01786(12) 0.79411(17) -0.03468(7)
C21 C -0.04119(13) 0.86424(19) -0.05892(8)
H21 H -0.0957 0.8394 -0.0661
C22 C -0.02014(14) 0.97084(19) -0.07257(9)
C23 C -0.08464(17) 1.0454(2) -0.09979(12)
H22 H -0.1319 1.0015 -0.1122
H23 H -0.0610 1.0804 -0.1250
H24 H -0.1019 1.1017 -0.0793
C24 C 0.06186(14) 1.00712(18) -0.06119(8)
H25 H 0.0765 1.0789 -0.0692
C25 C 0.12178(12) 0.93707(17) -0.03798(7)
C26 C 0.21118(13) 0.97160(17) -0.02949(7)
C27 C 0.09937(12) 0.83062(17) -0.02470(7)
H26 H 0.1394 0.7837 -0.0090
Ni1B Ni 0.365020(16) 1.00620(2) -0.018741(9)
Ni1D Ni 0.134980(16) 0.49380(2) 0.018741(9)
Ni1E Ni -0.134980(16) 0.49380(2) -0.518741(9)
O2B O -0.26561(9) 0.56830(12) -0.03821(5)
N2E N -0.13957(11) 0.55618(16) 0.04980(6)
O3D O -0.05097(9) 0.38089(13) -0.00071(6)
O4B O -0.23511(9) 0.39783(12) -0.01399(5)
O7 O -0.24588(11) 0.20855(15) -0.07651(6)
H27 H -0.2386 0.2695 -0.0614
H28 H -0.2511 0.1866 -0.0489
loop_
_geom_bond_atom_site_label_1
_geom_bond_atom_site_label_2
_geom_bond_site_symmetry_1
_geom_bond_site_symmetry_2
Ni1 O1 1_555 1_555
O1 C19 1_555 1_555
N1 Ni1 1_555 1_555
C1 N1 1_555 1_555
H1 C1 1_555 1_555
O2 C26 1_555 1_555
N2 C17 1_555 1_555
C2 C1 1_555 1_555
H2 C2 1_555 1_555
O3 C19 1_555 1_555
N3 H3 1_555 1_555
C3 C2 1_555 1_555
H4 C3 1_555 1_555
O4 C26 1_555 1_555
N4 H5 1_555 1_555
C4 C3 1_555 1_555
O5 C6 1_555 1_555
C5 N1 1_555 1_555
H6 C5 1_555 1_555
C6 N3 1_555 1_555
O6 C13 1_555 1_555
C7 N3 1_555 1_555
H7 C7 1_555 1_555
C8 C7 1_555 1_555
H8 C8 1_555 1_555
H9 C8 1_555 1_555
C9 C8 1_555 1_555
H10 C9 1_555 1_555
H11 C9 1_555 1_555
C10 C9 1_555 1_555
H12 C10 1_555 1_555
H13 C10 1_555 1_555
C11 C10 1_555 1_555
H14 C11 1_555 1_555
H15 C11 1_555 1_555
C12 N4 1_555 1_555
H16 C12 1_555 1_555
C13 N4 1_555 1_555
C14 C13 1_555 1_555
C15 C14 1_555 1_555
H17 C15 1_555 1_555
C16 C15 1_555 1_555
H18 C16 1_555 1_555
C17 C16 1_555 1_555
H19 C17 1_555 1_555
C18 N2 1_555 1_555
H20 C18 1_555 1_555
C19 C20 1_555 1_555
C20 C21 1_555 1_555
C21 H21 1_555 1_555
C22 C21 1_555 1_555
C23 C22 1_555 1_555
H22 C23 1_555 1_555
H23 C23 1_555 1_555
H24 C23 1_555 1_555
C24 C22 1_555 1_555
H25 C24 1_555 1_555
C25 C24 1_555 1_555
C26 C25 1_555 1_555
C27 C20 1_555 1_555
H26 C27 1_555 1_555
O7 H27 1_555 1_555
H28 O7 1_555 1_555
Ni1B O2 1_555 1_555
Ni1D O3 1_555 1_555
Ni1E N2 1_555 1_555
O2B Ni1 1_555 1_555
N2E Ni1 1_555 1_555
O3D Ni1 1_555 1_555
O4B Ni1 1_555 1_555
O4 Ni1B 1_555 1_555
C4 C5 1_555 1_555
C4 C6 1_555 1_555
C7 C12 1_555 1_555
C11 C12 1_555 1_555
C14 C18 1_555 1_555
C25 C27 1_555 1_555

#END
