
#######################################################################
#
#                 Cambridge Crystallographic Data Centre
#                                CCDC 
#
#######################################################################
#
# If this CIF has been generated from an entry in the Cambridge 
# Structural Database, then it will include bibliographic, chemical, 
# crystal, experimental, refinement or atomic coordinate data resulting 
# from the CCDC's data processing and validation procedures.
#
#######################################################################

data_HOMDIY
_symmetry_cell_setting           monoclinic
_symmetry_space_group_name_H-M   'P 21/n'
_symmetry_Int_Tables_number      14
_space_group_name_Hall           '-P 2yn'
loop_
_symmetry_equiv_pos_site_id
_symmetry_equiv_pos_as_xyz
1 x,y,z
2 1/2-x,1/2+y,1/2-z
3 -x,-y,-z
4 1/2+x,1/2-y,1/2+z
_cell_length_a                   9.9209(5)
_cell_length_b                   17.8362(9)
_cell_length_c                   16.5509(9)
_cell_angle_alpha                90
_cell_angle_beta                 105.6270(10)
_cell_angle_gamma                90
_cell_volume                     2820.44
loop_
_atom_site_label
_atom_site_type_symbol
_atom_site_fract_x
_atom_site_fract_y
_atom_site_fract_z
Cu1 Cu 0.07964(3) -0.033103(17) -0.221166(18)
O1 O 0.24443(17) 0.01102(10) -0.24380(11)
N1 N 0.1143(2) 0.02065(12) -0.10854(13)
C1 C 0.0176(3) 0.05915(14) -0.08316(16)
H1 H -0.0747 0.0574 -0.1158
O2 O 0.1347(2) -0.14279(12) -0.14557(13)
H2 H 0.0700 -0.1736 -0.1443
H3 H 0.2100 -0.1676 -0.1392
O3 O 0.87716(17) -0.02262(10) -0.24096(11)
N2 N 0.4532(2) 0.40356(12) -0.17245(13)
C2 C 0.0485(3) 0.10139(14) -0.01073(15)
H4 H -0.0223 0.1272 0.0046
O4 O 0.42725(19) -0.05457(11) -0.16989(12)
N3 N 0.3552(2) 0.16655(12) 0.15133(13)
H5 H 0.4118 0.1364 0.1364
C3 C 0.1843(3) 0.10546(14) 0.03904(15)
O5 O 0.89942(18) 0.05981(11) -0.33784(13)
N4 N 0.5137(2) 0.29395(12) 0.12010(13)
H6 H 0.4696 0.3358 0.1171
C4 C 0.2825(3) 0.06162(19) 0.01536(18)
H7 H 0.3742 0.0599 0.0488
O6 O 0.1275(2) 0.19763(12) 0.12957(14)
C5 C 0.2443(3) 0.02088(18) -0.05727(18)
H8 H 0.3121 -0.0081 -0.0718
O7 O 0.6061(2) 0.20911(12) 0.04933(12)
C6 C 0.2203(3) 0.15987(14) 0.11200(16)
C7 C 0.4168(3) 0.22035(15) 0.21758(15)
H9 H 0.3496 0.2608 0.2168
C8 C 0.4527(4) 0.18232(18) 0.30313(17)
H10 H 0.5088 0.1381 0.3015
H11 H 0.3671 0.1663 0.3156
C9 C 0.5333(4) 0.2346(2) 0.37280(19)
H12 H 0.4737 0.2763 0.3785
H13 H 0.5587 0.2076 0.4256
C10 C 0.6631(3) 0.26404(18) 0.35384(18)
H14 H 0.7263 0.2227 0.3530
H15 H 0.7103 0.2984 0.3978
C11 C 0.6289(3) 0.30418(16) 0.27008(17)
H16 H 0.7150 0.3205 0.2584
H17 H 0.5732 0.3483 0.2727
C12 C 0.5487(3) 0.25327(14) 0.19957(15)
H18 H 0.6102 0.2115 0.1948
C13 C 0.5469(3) 0.26925(15) 0.05220(16)
C14 C 0.5099(3) 0.31869(14) -0.02512(15)
C15 C 0.4431(3) 0.38729(16) -0.03052(17)
H19 H 0.4163 0.4061 0.0152
C16 C 0.4166(3) 0.42766(15) -0.10451(17)
H20 H 0.3713 0.4736 -0.1073
C17 C 0.5190(3) 0.33780(17) -0.16666(17)
H21 H 0.5468 0.3206 -0.2128
C18 C 0.5478(3) 0.29419(16) -0.09506(17)
H22 H 0.5928 0.2483 -0.0940
C19 C 0.3722(2) -0.00899(14) -0.22539(16)
C20 C 0.4565(3) 0.02685(14) -0.27849(17)
C21 C 0.3915(3) 0.0719(2) -0.3455(2)
H23 H 0.2963 0.0818 -0.3558
C22 C 0.4648(3) 0.1027(3) -0.3977(3)
C23 C 0.3903(5) 0.1510(5) -0.4716(4)
H24 H 0.2935 0.1558 -0.4727
H25 H 0.3976 0.1281 -0.5228
H26 H 0.4328 0.1998 -0.4662
C24 C 0.6072(3) 0.0870(2) -0.3813(2)
H27 H 0.6578 0.1068 -0.4161
C25 C 0.6742(3) 0.04263(15) -0.31468(18)
C26 C 0.5987(2) 0.01277(14) -0.26277(16)
H28 H 0.6437 -0.0168 -0.2172
C27 C 0.8283(3) 0.02631(14) -0.29835(16)
Cu1_2 Cu 1.07964(3) -0.033103(17) -0.221166(18)
Cu1A Cu 0.42036(3) 0.466897(17) -0.278834(18)
O3_2 O -0.12284(17) -0.02262(10) -0.24096(11)
N2A N 0.0468(2) -0.09644(12) -0.32755(13)
O5_2 O -0.10058(18) 0.05981(11) -0.33784(13)
loop_
_geom_bond_atom_site_label_1
_geom_bond_atom_site_label_2
_geom_bond_site_symmetry_1
_geom_bond_site_symmetry_2
Cu1 O1 1_555 1_555
O1 C19 1_555 1_555
N1 Cu1 1_555 1_555
C1 N1 1_555 1_555
H1 C1 1_555 1_555
O2 Cu1 1_555 1_555
H2 O2 1_555 1_555
H3 O2 1_555 1_555
O3 C27 1_555 1_555
N2 C16 1_555 1_555
C2 C1 1_555 1_555
H4 C2 1_555 1_555
O4 C19 1_555 1_555
N3 H5 1_555 1_555
C3 C2 1_555 1_555
O5 C27 1_555 1_555
N4 H6 1_555 1_555
C4 C3 1_555 1_555
H7 C4 1_555 1_555
O6 C6 1_555 1_555
C5 N1 1_555 1_555
H8 C5 1_555 1_555
O7 C13 1_555 1_555
C6 N3 1_555 1_555
C7 N3 1_555 1_555
H9 C7 1_555 1_555
C8 C7 1_555 1_555
H10 C8 1_555 1_555
H11 C8 1_555 1_555
C9 C8 1_555 1_555
H12 C9 1_555 1_555
H13 C9 1_555 1_555
C10 C9 1_555 1_555
H14 C10 1_555 1_555
H15 C10 1_555 1_555
C11 C10 1_555 1_555
H16 C11 1_555 1_555
H17 C11 1_555 1_555
C12 N4 1_555 1_555
H18 C12 1_555 1_555
C13 N4 1_555 1_555
C14 C13 1_555 1_555
C15 C14 1_555 1_555
H19 C15 1_555 1_555
C16 C15 1_555 1_555
H20 C16 1_555 1_555
C17 N2 1_555 1_555
H21 C17 1_555 1_555
C18 C14 1_555 1_555
H22 C18 1_555 1_555
C19 C20 1_555 1_555
C20 C21 1_555 1_555
C21 H23 1_555 1_555
C22 C21 1_555 1_555
C23 C22 1_555 1_555
H24 C23 1_555 1_555
H25 C23 1_555 1_555
H26 C23 1_555 1_555
C24 C22 1_555 1_555
H27 C24 1_555 1_555
C25 C24 1_555 1_555
C26 C20 1_555 1_555
H28 C26 1_555 1_555
C27 C25 1_555 1_555
Cu1_2 O3 1_555 1_555
Cu1A N2 1_555 1_555
O3_2 Cu1 1_555 1_555
N2A Cu1 1_555 1_555
O5_2 Cu1 1_555 1_555
C3 C6 1_555 1_555
O5 Cu1_2 1_555 1_555
C4 C5 1_555 1_555
C7 C12 1_555 1_555
C11 C12 1_555 1_555
C17 C18 1_555 1_555
C25 C26 1_555 1_555

#END
