
#######################################################################
#
#                 Cambridge Crystallographic Data Centre
#                                CCDC 
#
#######################################################################
#
# If this CIF has been generated from an entry in the Cambridge 
# Structural Database, then it will include bibliographic, chemical, 
# crystal, experimental, refinement or atomic coordinate data resulting 
# from the CCDC's data processing and validation procedures.
#
#######################################################################

data_HOMFEW
_symmetry_cell_setting           triclinic
_symmetry_space_group_name_H-M   'P -1'
_symmetry_Int_Tables_number      2
_space_group_name_Hall           '-P 1'
loop_
_symmetry_equiv_pos_site_id
_symmetry_equiv_pos_as_xyz
1 x,y,z
2 -x,-y,-z
_cell_length_a                   10.0196(8)
_cell_length_b                   10.7663(8)
_cell_length_c                   13.4025(10)
_cell_angle_alpha                106.301(2)
_cell_angle_beta                 95.549(2)
_cell_angle_gamma                108.2990(10)
_cell_volume                     1290.11
loop_
_atom_site_label
_atom_site_type_symbol
_atom_site_fract_x
_atom_site_fract_y
_atom_site_fract_z
Zn1 Zn 0.40764(3) 0.15698(3) 0.56726(3)
O1 O 0.2858(2) 0.2135(2) 0.43695(17)
N1 N 0.4093(3) 0.0840(3) 0.6997(2)
C1 C 0.3176(4) 0.1108(4) 0.7621(3)
H1 H 0.2734 0.1716 0.7519
N2 N 0.5014(3) 0.6219(3) 1.3233(2)
O2 O 0.2002(2) 0.1613(2) 0.57015(17)
C2 C 0.2858(4) 0.0533(5) 0.8401(3)
H2 H 0.2214 0.0750 0.8811
O3 O -0.3362(2) 0.0494(2) 0.54292(15)
N3 N 0.2310(3) -0.0756(3) 1.0001(2)
H3 H 0.1919 -0.0200 0.9867
C3 C 0.3502(3) -0.0372(3) 0.8571(2)
O4 O -0.4069(2) 0.2168(2) 0.51771(18)
N4 N 0.2160(3) 0.1058(2) 1.2039(2)
H4 H 0.2646 0.1315 1.2673
C4 C 0.4463(4) -0.0615(3) 0.7960(2)
H5 H 0.4932 -0.1206 0.8058
O5 O 0.3865(3) -0.1839(3) 0.9521(2)
C5 C 0.4744(3) 0.0014(3) 0.7195(2)
H6 H 0.5423 -0.0152 0.6801
O6 O 0.1692(3) 0.1717(2) 1.06216(18)
C6 C 0.3230(4) -0.1065(4) 0.9414(3)
C7 C 0.1915(3) -0.1295(3) 1.0861(2)
H7 H 0.2794 -0.1219 1.1304
C8 C 0.0933(4) -0.2818(3) 1.0427(3)
H8 H 0.1437 -0.3367 1.0039
H9 H 0.0094 -0.2922 0.9938
C9 C 0.0457(4) -0.3349(3) 1.1328(3)
H10 H -0.0182 -0.4309 1.1035
H11 H 0.1289 -0.3303 1.1792
C10 C -0.0299(4) -0.2497(3) 1.1954(3)
H12 H -0.0576 -0.2833 1.2531
H13 H -0.1164 -0.2589 1.1500
C11 C 0.0677(3) -0.0973(3) 1.2404(2)
H14 H 0.0157 -0.0436 1.2784
H15 H 0.1498 -0.0876 1.2907
C12 C 0.1202(3) -0.0400(3) 1.1540(2)
H16 H 0.0366 -0.0423 1.1079
C13 C 0.2305(3) 0.1997(3) 1.1542(2)
C14 C 0.3277(3) 0.3455(3) 1.2154(2)
C15 C 0.4335(3) 0.3816(3) 1.3036(3)
H17 H 0.4480 0.3139 1.3289
C16 C 0.5172(3) 0.5193(3) 1.3536(3)
H18 H 0.5890 0.5414 1.4119
C17 C 0.4007(4) 0.5853(3) 1.2369(3)
H19 H 0.3893 0.6548 1.2123
C18 C 0.3129(4) 0.4505(3) 1.1821(3)
H20 H 0.2437 0.4308 1.1228
C19 C 0.1883(3) 0.1987(3) 0.4903(2)
C20 C 0.0570(3) 0.2302(3) 0.4608(2)
C21 C -0.0667(3) 0.1772(3) 0.4978(2)
H21 H -0.0699 0.1177 0.5369
C22 C -0.1848(3) 0.2131(3) 0.4764(2)
C23 C -0.3185(3) 0.1551(3) 0.5152(2)
C24 C -0.1792(3) 0.3012(3) 0.4170(2)
H22 H -0.2579 0.3269 0.4043
C25 C -0.0595(3) 0.3515(3) 0.3761(3)
C26 C 0.0591(3) 0.3148(3) 0.3990(2)
H23 H 0.1407 0.3475 0.3725
C27 C -0.0559(4) 0.4439(4) 0.3089(3)
H24 H -0.1455 0.4585 0.3013
H25 H -0.0407 0.4004 0.2401
H26 H 0.0209 0.5313 0.3426
Zn1_2 Zn -0.59236(3) 0.15698(3) 0.56726(3)
Zn1A Zn -0.40764(3) -0.15698(3) 0.43274(3)
Zn1A_2 Zn 0.59236(3) 0.84302(3) 1.43274(3)
N2A N 0.4986(3) 0.3781(3) 0.6767(2)
O3A O 0.3362(2) -0.0494(2) 0.45708(15)
O4_2 O 0.5931(2) 0.2168(2) 0.51771(18)
loop_
_geom_bond_atom_site_label_1
_geom_bond_atom_site_label_2
_geom_bond_site_symmetry_1
_geom_bond_site_symmetry_2
Zn1 O1 1_555 1_555
O1 C19 1_555 1_555
N1 Zn1 1_555 1_555
C1 N1 1_555 1_555
H1 C1 1_555 1_555
N2 C16 1_555 1_555
O2 Zn1 1_555 1_555
C2 C1 1_555 1_555
H2 C2 1_555 1_555
O3 C23 1_555 1_555
N3 H3 1_555 1_555
C3 C2 1_555 1_555
O4 C23 1_555 1_555
N4 H4 1_555 1_555
C4 C3 1_555 1_555
H5 C4 1_555 1_555
O5 C6 1_555 1_555
C5 N1 1_555 1_555
H6 C5 1_555 1_555
O6 C13 1_555 1_555
C6 N3 1_555 1_555
C7 N3 1_555 1_555
H7 C7 1_555 1_555
C8 C7 1_555 1_555
H8 C8 1_555 1_555
H9 C8 1_555 1_555
C9 C8 1_555 1_555
H10 C9 1_555 1_555
H11 C9 1_555 1_555
C10 C9 1_555 1_555
H12 C10 1_555 1_555
H13 C10 1_555 1_555
C11 C10 1_555 1_555
H14 C11 1_555 1_555
H15 C11 1_555 1_555
C12 N4 1_555 1_555
H16 C12 1_555 1_555
C13 N4 1_555 1_555
C14 C13 1_555 1_555
C15 C14 1_555 1_555
H17 C15 1_555 1_555
C16 C15 1_555 1_555
H18 C16 1_555 1_555
C17 N2 1_555 1_555
H19 C17 1_555 1_555
C18 C14 1_555 1_555
H20 C18 1_555 1_555
C19 O2 1_555 1_555
C20 C19 1_555 1_555
C21 C20 1_555 1_555
H21 C21 1_555 1_555
C22 C21 1_555 1_555
C23 C22 1_555 1_555
C24 C22 1_555 1_555
H22 C24 1_555 1_555
C25 C24 1_555 1_555
C26 C20 1_555 1_555
H23 C26 1_555 1_555
C27 C25 1_555 1_555
H24 C27 1_555 1_555
H25 C27 1_555 1_555
H26 C27 1_555 1_555
Zn1_2 O4 1_555 1_555
Zn1A O3 1_555 1_555
Zn1A_2 N2 1_555 1_555
N2A Zn1 1_555 1_555
O3A Zn1 1_555 1_555
O4_2 Zn1 1_555 1_555
C3 C6 1_555 1_555
C4 C5 1_555 1_555
C7 C12 1_555 1_555
C11 C12 1_555 1_555
C17 C18 1_555 1_555
C25 C26 1_555 1_555

#END
