
#######################################################################
#
#                 Cambridge Crystallographic Data Centre
#                                CCDC 
#
#######################################################################
#
# If this CIF has been generated from an entry in the Cambridge 
# Structural Database, then it will include bibliographic, chemical, 
# crystal, experimental, refinement or atomic coordinate data resulting 
# from the CCDC's data processing and validation procedures.
#
#######################################################################

data_HOMJEA
_symmetry_cell_setting           monoclinic
_symmetry_space_group_name_H-M   'P 21/c'
_symmetry_Int_Tables_number      14
_space_group_name_Hall           '-P 2ybc'
loop_
_symmetry_equiv_pos_site_id
_symmetry_equiv_pos_as_xyz
1 x,y,z
2 -x,1/2+y,1/2-z
3 -x,-y,-z
4 x,1/2-y,1/2+z
_cell_length_a                   9.2252(11)
_cell_length_b                   14.1477(16)
_cell_length_c                   10.5134(12)
_cell_angle_alpha                90
_cell_angle_beta                 95.770(2)
_cell_angle_gamma                90
_cell_volume                     1365.21
loop_
_atom_site_label
_atom_site_type_symbol
_atom_site_fract_x
_atom_site_fract_y
_atom_site_fract_z
Tb1 Tb 0.124585(16) 0.133813(11) 0.471255(14)
C1 C 0.5069(4) 0.1331(2) 0.5340(3)
H1 H 0.4964 0.0835 0.4756
C2 C 0.6463(4) 0.1582(2) 0.5838(3)
C3 C 0.7757(4) 0.1003(3) 0.5522(3)
C4 C 0.6624(4) 0.2331(3) 0.6678(3)
H2 H 0.7546 0.2548 0.6981
C5 C 0.5382(4) 0.2755(3) 0.7065(3)
H3 H 0.5459 0.3239 0.7666
C6 C 0.4028(4) 0.2445(2) 0.6541(3)
C7 C 0.2623(4) 0.2836(2) 0.6945(3)
C8 C 0.1097(4) 0.0037(3) 0.7331(3)
C9 C 0.1708(4) -0.0134(2) 0.8685(3)
C10 C 0.2844(4) 0.0402(3) 0.9259(3)
H4 H 0.3264 0.0874 0.8801
C11 C 0.3344(5) 0.0232(3) 1.0504(4)
H5 H 0.4126 0.0572 1.0900
N1 N 0.1583(4) -0.0982(3) 1.0636(3)
C12 C 0.1121(4) -0.0820(3) 0.9411(4)
H6 H 0.0366 -0.1189 0.9028
N2 N 0.3864(3) 0.1765(2) 0.5654(3)
C13 C 0.2667(5) -0.0454(3) 1.1159(4)
H7 H 0.2988 -0.0552 1.2015
O1 O 0.0173(3) -0.05287(19) 0.6827(2)
O2 O 0.7535(3) 0.01337(17) 0.5386(2)
O3 O 0.8931(3) 0.14342(18) 0.5464(2)
O4 O 0.1485(2) 0.26342(17) 0.6239(2)
O5 O 0.2689(3) 0.33074(17) 0.7958(2)
O6 O 0.1583(3) 0.07408(19) 0.6797(2)
O7 O 0.0109(3) 0.26311(18) 0.3529(2)
Tb1_2 Tb 1.124585(16) 0.133813(11) 0.471255(14)
Tb1B Tb -0.124585(16) -0.133813(11) 0.528745(14)
Tb1B_2 Tb 0.875415(16) -0.133813(11) 0.528745(14)
Tb1C Tb 0.124585(16) 0.366187(11) 0.971255(14)
O1B O -0.0173(3) 0.05287(19) 0.3173(2)
O2B O 0.2465(3) -0.01337(17) 0.4614(2)
O3_2 O -0.1069(3) 0.14342(18) 0.5464(2)
O5C O 0.2689(3) 0.16926(17) 0.2958(2)
loop_
_geom_bond_atom_site_label_1
_geom_bond_atom_site_label_2
_geom_bond_site_symmetry_1
_geom_bond_site_symmetry_2
Tb1 N2 1_555 1_555
C1 H1 1_555 1_555
C2 C1 1_555 1_555
C3 C2 1_555 1_555
C4 C2 1_555 1_555
H2 C4 1_555 1_555
C5 C4 1_555 1_555
H3 C5 1_555 1_555
C6 C5 1_555 1_555
C7 C6 1_555 1_555
C8 C9 1_555 1_555
C9 C10 1_555 1_555
C10 H4 1_555 1_555
C11 C10 1_555 1_555
H5 C11 1_555 1_555
N1 C12 1_555 1_555
C12 C9 1_555 1_555
H6 C12 1_555 1_555
N2 C1 1_555 1_555
C13 C11 1_555 1_555
H7 C13 1_555 1_555
O1 C8 1_555 1_555
O2 C3 1_555 1_555
O3 C3 1_555 1_555
O4 Tb1 1_555 1_555
O5 C7 1_555 1_555
O6 Tb1 1_555 1_555
O7 Tb1 1_555 1_555
Tb1_2 O3 1_555 1_555
Tb1B O1 1_555 1_555
Tb1B_2 O2 1_555 1_555
Tb1C O5 1_555 1_555
O1B Tb1 1_555 1_555
O2B Tb1 1_555 1_555
O3_2 Tb1 1_555 1_555
O5C Tb1 1_555 1_555
C6 N2 1_555 1_555
C7 O4 1_555 1_555
C8 O6 1_555 1_555
N1 C13 1_555 1_555

#END
