
#######################################################################
#
#                 Cambridge Crystallographic Data Centre
#                                CCDC 
#
#######################################################################
#
# If this CIF has been generated from an entry in the Cambridge 
# Structural Database, then it will include bibliographic, chemical, 
# crystal, experimental, refinement or atomic coordinate data resulting 
# from the CCDC's data processing and validation procedures.
#
#######################################################################

data_HOMQEH
_symmetry_cell_setting           monoclinic
_symmetry_space_group_name_H-M   'C 2/c'
_symmetry_Int_Tables_number      15
_space_group_name_Hall           '-C 2yn'
loop_
_symmetry_equiv_pos_site_id
_symmetry_equiv_pos_as_xyz
1 x,y,z
2 -x,y,1/2-z
3 1/2+x,1/2+y,z
4 1/2-x,1/2+y,1/2-z
5 -x,-y,-z
6 x,-y,1/2+z
7 1/2-x,1/2-y,-z
8 1/2+x,1/2-y,1/2+z
_cell_length_a                   14.391(5)
_cell_length_b                   13.036(5)
_cell_length_c                   27.379(5)
_cell_angle_alpha                90
_cell_angle_beta                 94.908(5)
_cell_angle_gamma                90
_cell_volume                     5117.5
loop_
_atom_site_label
_atom_site_type_symbol
_atom_site_fract_x
_atom_site_fract_y
_atom_site_fract_z
Cd1 Cd 1.607295(19) -0.10618(2) 0.617664(11)
O1 O 1.6326(3) 0.0558(4) 0.67385(15)
O2 O 1.6800(2) 0.0074(3) 0.56452(13)
O3 O 1.6393(3) -0.2339(4) 0.56114(17)
O4 O 1.5365(3) -0.2508(4) 0.65406(16)
O5 O 1.6026(3) -0.0642(4) 0.7199(3)
O6 O 1.5178(4) -0.2083(5) 0.5157(2)
O7 O 1.6233(5) 0.0852(6) 0.7478(2)
O8 O 1.6104(3) -0.3279(4) 0.49895(15)
N1 N 1.4675(2) -0.0329(3) 0.60211(14)
N2 N 1.3352(2) 0.0455(3) 0.61287(14)
N3 N 0.8949(2) -0.2161(3) 0.64187(13)
N4 N 0.7544(2) -0.1496(3) 0.64442(13)
N5 N 1.6195(3) 0.0265(3) 0.71540(16)
N6 N 1.7767(3) 0.1441(3) 0.55985(15)
N7 N 1.5894(3) -0.2562(3) 0.52500(14)
N8 N 1.4250(3) -0.3307(3) 0.69279(16)
C1 C 1.4116(3) -0.0011(3) 0.63494(16)
H1 H 1.4232 -0.0097 0.6686
C2 C 1.4246(3) -0.0053(4) 0.55757(18)
H2 H 1.4480 -0.0182 0.5275
C3 C 1.3429(3) 0.0434(4) 0.56345(18)
H3 H 1.3010 0.0700 0.5389
C4 C 1.2538(3) 0.0782(3) 0.6370(2)
H4 H 1.2273 0.1392 0.6210
H5 H 1.2722 0.0949 0.6709
C5 C 1.1815(2) -0.0065(3) 0.63448(16)
C6 C 1.1167(3) -0.0137(3) 0.59401(16)
H6 H 1.1157 0.0353 0.5693
C7 C 1.0539(3) -0.0938(3) 0.59052(17)
H7 H 1.0106 -0.0981 0.5633
C8 C 1.0540(2) -0.1674(3) 0.62652(16)
C9 C 1.1196(3) -0.1604(4) 0.66681(17)
H8 H 1.1208 -0.2100 0.6913
C10 C 1.1825(3) -0.0810(4) 0.67087(18)
H9 H 1.2258 -0.0771 0.6980
C11 C 0.9818(3) -0.2514(3) 0.62318(19)
H10 H 0.9696 -0.2727 0.5893
H11 H 1.0055 -0.3102 0.6421
C12 C 0.8198(3) -0.1781(3) 0.61585(15)
H12 H 0.8141 -0.1724 0.5819
C13 C 0.7921(3) -0.1697(4) 0.69107(16)
H13 H 0.7624 -0.1570 0.7193
C14 C 0.8776(3) -0.2101(4) 0.69046(17)
H14 H 0.9172 -0.2301 0.7174
C15 C 1.4759(4) -0.2497(5) 0.6807(2)
H15 H 1.4622 -0.1869 0.6945
C16 C 1.3522(4) -0.3161(6) 0.7253(3)
H16 H 1.3211 -0.3802 0.7297
H17 H 1.3080 -0.2669 0.7113
H18 H 1.3789 -0.2916 0.7564
C17 C 1.4376(5) -0.4308(5) 0.6740(3)
H19 H 1.3933 -0.4767 0.6867
H20 H 1.4997 -0.4541 0.6838
H21 H 1.4282 -0.4293 0.6389
C18 C 1.6996(4) 0.0981(4) 0.5720(2)
H22 H 1.6570 0.1378 0.5873
C19 C 1.7945(5) 0.2524(5) 0.5699(2)
H23 H 1.8532 0.2714 0.5584
H24 H 1.7964 0.2643 0.6046
H25 H 1.7456 0.2928 0.5535
C20 C 1.8465(4) 0.0869(5) 0.5362(3)
H26 H 1.8970 0.1317 0.5299
H27 H 1.8192 0.0591 0.5059
H28 H 1.8696 0.0321 0.5573
Cd1_2 Cd 0.607295(19) -0.10618(2) 0.617664(11)
N4_2 N 1.7544(2) -0.1496(3) 0.64442(13)
loop_
_geom_bond_atom_site_label_1
_geom_bond_atom_site_label_2
_geom_bond_site_symmetry_1
_geom_bond_site_symmetry_2
Cd1 O1 1_555 1_555
O1 N5 1_555 1_555
O2 Cd1 1_555 1_555
O3 Cd1 1_555 1_555
O4 Cd1 1_555 1_555
O5 N5 1_555 1_555
O6 N7 1_555 1_555
O7 N5 1_555 1_555
O8 N7 1_555 1_555
N1 Cd1 1_555 1_555
N2 C1 1_555 1_555
N3 C11 1_555 1_555
N4 C12 1_555 1_555
N6 C18 1_555 1_555
N7 O3 1_555 1_555
N8 C15 1_555 1_555
C1 N1 1_555 1_555
H1 C1 1_555 1_555
C2 N1 1_555 1_555
H2 C2 1_555 1_555
C3 N2 1_555 1_555
H3 C3 1_555 1_555
C4 N2 1_555 1_555
H4 C4 1_555 1_555
H5 C4 1_555 1_555
C5 C4 1_555 1_555
C6 C5 1_555 1_555
H6 C6 1_555 1_555
C7 C6 1_555 1_555
H7 C7 1_555 1_555
C8 C7 1_555 1_555
C9 C8 1_555 1_555
H8 C9 1_555 1_555
C10 C5 1_555 1_555
H9 C10 1_555 1_555
C11 C8 1_555 1_555
H10 C11 1_555 1_555
H11 C11 1_555 1_555
C12 N3 1_555 1_555
H12 C12 1_555 1_555
C13 N4 1_555 1_555
H13 C13 1_555 1_555
C14 N3 1_555 1_555
H14 C14 1_555 1_555
C15 O4 1_555 1_555
H15 C15 1_555 1_555
C16 N8 1_555 1_555
H16 C16 1_555 1_555
H17 C16 1_555 1_555
H18 C16 1_555 1_555
C17 N8 1_555 1_555
H19 C17 1_555 1_555
H20 C17 1_555 1_555
H21 C17 1_555 1_555
C18 O2 1_555 1_555
H22 C18 1_555 1_555
C19 N6 1_555 1_555
H23 C19 1_555 1_555
H24 C19 1_555 1_555
H25 C19 1_555 1_555
C20 N6 1_555 1_555
H26 C20 1_555 1_555
H27 C20 1_555 1_555
H28 C20 1_555 1_555
Cd1_2 N4 1_555 1_555
N4_2 Cd1 1_555 1_555
C2 C3 1_555 1_555
C9 C10 1_555 1_555
C13 C14 1_555 1_555

#END
