
#######################################################################
#
#                 Cambridge Crystallographic Data Centre
#                                CCDC 
#
#######################################################################
#
# If this CIF has been generated from an entry in the Cambridge 
# Structural Database, then it will include bibliographic, chemical, 
# crystal, experimental, refinement or atomic coordinate data resulting 
# from the CCDC's data processing and validation procedures.
#
#######################################################################

data_HOMQUW
_symmetry_cell_setting           monoclinic
_symmetry_space_group_name_H-M   'P 21/n'
_symmetry_Int_Tables_number      14
_space_group_name_Hall           '-P 2yn'
loop_
_symmetry_equiv_pos_site_id
_symmetry_equiv_pos_as_xyz
1 x,y,z
2 1/2-x,1/2+y,1/2-z
3 -x,-y,-z
4 1/2+x,1/2-y,1/2+z
_cell_length_a                   14.5861(5)
_cell_length_b                   27.3532(9)
_cell_length_c                   16.4118(5)
_cell_angle_alpha                90
_cell_angle_beta                 90.35
_cell_angle_gamma                90
_cell_volume                     6547.8
loop_
_atom_site_label
_atom_site_type_symbol
_atom_site_fract_x
_atom_site_fract_y
_atom_site_fract_z
Si1 Si 0.7610(3) 0.12670(17) -0.2061(3)
W1 W 0.88490(5) 0.05422(3) -0.34430(5)
W2 W 1.00096(5) 0.13862(3) -0.23171(5)
W3 W 0.85909(5) 0.17562(3) -0.38460(5)
W4 W 0.90462(5) 0.08708(3) -0.04555(4)
W5 W 0.52142(5) 0.11352(3) -0.19163(5)
W6 W 0.67653(7) 0.07514(3) -0.02378(6)
W7 W 0.63703(6) 0.03993(3) -0.32241(6)
W8 W 0.87361(6) 0.21675(3) -0.09114(5)
W9 W 0.73150(5) 0.25350(3) -0.24284(5)
W10 W 0.61174(6) 0.16030(3) -0.36407(5)
W11 W 0.64418(6) 0.20527(3) -0.06945(5)
W12 W 0.79163(6) 0.00237(3) -0.15538(6)
O1 O 0.7796(9) 0.0879(5) -0.1308(8)
O2 O 0.6667(8) 0.1143(5) -0.2522(7)
O3 O 0.8455(9) 0.1244(5) -0.2681(7)
O4 O 0.7548(9) 0.1815(5) -0.1662(8)
O5 O 0.5823(10) 0.0790(6) -0.1049(9)
O6 O 0.9918(12) 0.0798(6) 0.0238(10)
O7 O 0.6486(10) 0.2562(6) -0.1510(9)
O8 O 0.5325(10) 0.0555(5) -0.2559(10)
O9 O 0.6914(9) 0.0100(6) -0.2274(10)
O10 O 0.5529(10) 0.1850(6) -0.4436(10)
O11 O 0.7150(11) 0.3106(5) -0.2800(11)
O12 O 0.9539(9) 0.1929(5) -0.1714(9)
O13 O 1.1156(10) 0.1469(6) -0.2237(10)
O14 O 0.9435(10) 0.2514(5) -0.0337(10)
O15 O 0.8175(9) 0.2270(5) -0.3150(10)
O16 O 0.8309(9) 0.2664(6) -0.1676(9)
O17 O 0.7585(10) 0.0462(5) -0.3614(9)
O18 O 0.4117(10) 0.1105(6) -0.1607(11)
O19 O 0.8901(10) 0.0217(5) -0.0825(9)
O20 O 0.6688(11) 0.1443(5) -0.0185(8)
O21 O 0.6032(13) 0.0929(5) -0.3918(9)
O22 O 0.9347(11) 0.0118(6) -0.4038(9)
O23 O 0.8833(10) 0.1096(5) -0.4168(8)
O24 O 0.8871(10) 0.1553(5) -0.0373(8)
O25 O 0.9948(10) 0.0814(5) -0.2955(8)
O26 O 0.8893(13) 0.2050(7) -0.4688(10)
O27 O 0.5128(11) 0.1509(5) -0.2879(9)
O28 O 0.6199(11) 0.0594(6) 0.0610(10)
O29 O 0.7620(10) 0.2285(6) -0.0315(9)
O30 O 0.6427(9) 0.2163(6) -0.3005(10)
O31 O 0.5739(10) 0.2325(5) -0.0011(9)
O32 O 0.5596(9) 0.1720(5) -0.1375(8)
O33 O 0.8048(11) -0.0588(5) -0.1506(10)
O34 O 0.9756(9) 0.1008(5) -0.1381(8)
O35 O 0.7991(11) 0.0788(5) 0.0221(10)
O36 O 0.8686(10) 0.0211(5) -0.2420(9)
O37 O 0.9741(10) 0.1764(5) -0.3291(10)
O38 O 0.5934(12) -0.0074(6) -0.3736(12)
O39 O 0.7097(10) 0.0110(5) -0.0644(9)
O40 O 0.7311(9) 0.1603(6) -0.4015(10)
Cu1 Cu -0.1313(2) -0.13344(14) -0.45637(18)
Cu2 Cu -0.22014(18) 0.04550(9) -0.67514(16)
Cu3 Cu 0.3449(2) 0.07307(14) -0.03227(19)
Cu4 Cu 0.53793(19) 0.29164(11) -0.40760(17)
N1 N -0.2369(14) -0.0602(7) -0.4921(12)
N2 N -0.2517(13) -0.0043(7) -0.5902(12)
C1 C -0.3910(18) -0.0939(9) -0.4916(16)
H1 H -0.4197 -0.0788 -0.4447
H2 H -0.4379 -0.0982 -0.5331
C2 C -0.3553(16) -0.1434(8) -0.4671(14)
H3 H -0.4065 -0.1647 -0.4544
H4 H -0.3180 -0.1402 -0.4182
C3 C -0.3296(16) -0.1881(8) -0.5977(14)
H5 H -0.3911 -0.1930 -0.6103
C4 C -0.1862(17) -0.1892(9) -0.6001(13)
H6 H -0.1265 -0.1952 -0.6168
C5 C -0.0466(15) -0.1009(8) -0.3061(13)
H7 H -0.0986 -0.1075 -0.2755
C6 C 0.0474(15) -0.0934(8) -0.4029(14)
H8 H 0.0726 -0.0941 -0.4548
C7 C 0.0502(13) -0.0665(6) -0.1942(11)
H9 H 0.0010 -0.0773 -0.1590
H10 H 0.1065 -0.0819 -0.1758
C8 C 0.0602(14) -0.0107(8) -0.1877(14)
H11 H 0.0176 0.0016 -0.1474
H12 H 0.0449 0.0041 -0.2397
C9 C 0.1811(14) 0.0310(7) -0.1052(11)
H13 H 0.1421 0.0440 -0.0662
C10 C 0.2966(14) 0.0145(7) -0.1755(12)
H14 H 0.3568 0.0128 -0.1938
C11 C -0.4109(17) 0.1984(9) -0.8000(16)
H15 H -0.3801 0.1930 -0.8514
H16 H -0.3948 0.2310 -0.7815
C12 C -0.5103(17) 0.1968(9) -0.8146(16)
H17 H -0.5270 0.2238 -0.8502
H18 H -0.5414 0.2017 -0.7632
C13 C -0.5710(16) 0.1463(9) -0.9279(15)
H19 H -0.5758 0.1714 -0.9660
C14 C -0.5729(16) 0.0776(9) -0.8691(14)
H20 H -0.5804 0.0443 -0.8602
C15 C 0.3650(15) 0.3108(8) -0.3278(14)
H21 H 0.3439 0.3299 -0.3710
C16 C 0.4517(12) 0.2640(8) -0.2561(11)
H22 H 0.4993 0.2443 -0.2375
C17 C 0.3425(14) 0.2520(10) -0.1406(12)
H23 H 0.3938 0.2373 -0.1117
H24 H 0.3168 0.2773 -0.1061
C18 C 0.2708(14) 0.2137(7) -0.1579(10)
H25 H 0.2997 0.1852 -0.1819
H26 H 0.2267 0.2264 -0.1969
C19 C 0.1990(15) 0.1623(9) 0.0242(13)
H27 H 0.2049 0.1414 0.0686
C20 C 0.1505(12) 0.2198(7) -0.0497(11)
H28 H 0.1185 0.2465 -0.0708
C21 C -0.1947(18) -0.0272(8) -0.5359(13)
H29 H -0.1325 -0.0202 -0.5306
C22 C -0.3300(17) -0.0282(9) -0.5806(15)
H30 H -0.3835 -0.0227 -0.6103
N3 N -0.3205(13) -0.0606(7) -0.5230(12)
N4 N -0.3004(11) -0.1658(6) -0.5316(10)
N5 N -0.2626(13) -0.2025(7) -0.6432(11)
N6 N -0.2083(11) -0.1663(6) -0.5303(9)
N7 N -0.0376(12) -0.1098(7) -0.3862(10)
N8 N 0.0904(10) -0.0766(6) -0.3396(10)
N9 N 0.0306(12) -0.0814(6) -0.2776(10)
N10 N 0.1549(11) 0.0030(6) -0.1641(10)
N11 N 0.2264(11) -0.0069(6) -0.2142(10)
N12 N 0.2721(12) 0.0391(6) -0.1071(10)
N13 N -0.3119(9) 0.1020(5) -0.6839(8)
C23 C -0.3370(11) 0.1330(5) -0.6260(8)
H31 H -0.3283 0.1288 -0.5703
N14 N -0.3769(10) 0.1710(5) -0.6617(8)
N15 N -0.3764(10) 0.1635(5) -0.7415(8)
C24 C -0.3362(10) 0.1209(5) -0.7552(8)
H32 H -0.3267 0.1067 -0.8060
N16 N -0.5434(13) 0.1509(7) -0.8515(11)
N17 N -0.5432(14) 0.1080(7) -0.8120(12)
N18 N -0.5911(13) 0.0988(7) -0.9404(11)
N19 N 0.4484(11) 0.2878(6) -0.3277(10)
N20 N 0.3174(13) 0.3034(7) -0.2604(12)
N21 N 0.3749(10) 0.2739(6) -0.2170(9)
N22 N 0.2230(10) 0.1992(6) -0.0828(9)
N23 N 0.2549(14) 0.1613(7) -0.0371(11)
N24 N 0.1309(11) 0.1964(6) 0.0184(10)
O14C O 0.4435(10) 0.2486(5) -0.5337(10)
Cu2B Cu 0.22014(18) -0.04550(9) -0.32486(16)
Cu3_2 Cu -0.6551(2) 0.07307(14) -1.03227(19)
Cu4C Cu 0.03793(19) 0.20836(11) 0.09240(17)
Cu4C_2 Cu 1.03793(19) 0.20836(11) 0.09240(17)
N8B N -0.0904(10) 0.0766(6) -0.6604(10)
N11B N -0.2264(11) 0.0069(6) -0.7858(10)
N18_2 N 0.4089(13) 0.0988(7) 0.0596(11)
N24C N 0.6309(11) 0.3036(6) -0.4816(10)
loop_
_geom_bond_atom_site_label_1
_geom_bond_atom_site_label_2
_geom_bond_site_symmetry_1
_geom_bond_site_symmetry_2
Si1 O1 1_555 1_555
W1 O3 1_555 1_555
W2 O3 1_555 1_555
W3 O3 1_555 1_555
W4 O1 1_555 1_555
W5 O2 1_555 1_555
W6 O1 1_555 1_555
W7 O2 1_555 1_555
W8 O4 1_555 1_555
W9 O4 1_555 1_555
W10 O2 1_555 1_555
W11 O4 1_555 1_555
W12 O1 1_555 1_555
O2 Si1 1_555 1_555
O3 Si1 1_555 1_555
O4 Si1 1_555 1_555
O5 W5 1_555 1_555
O6 W4 1_555 1_555
O7 W9 1_555 1_555
O8 W5 1_555 1_555
O9 W7 1_555 1_555
O10 W10 1_555 1_555
O11 W9 1_555 1_555
O12 W2 1_555 1_555
O13 W2 1_555 1_555
O14 W8 1_555 1_555
O15 W3 1_555 1_555
O16 W8 1_555 1_555
O17 W1 1_555 1_555
O18 W5 1_555 1_555
O19 W4 1_555 1_555
O20 W6 1_555 1_555
O21 W7 1_555 1_555
O22 W1 1_555 1_555
O23 W1 1_555 1_555
O24 W4 1_555 1_555
O25 W1 1_555 1_555
O26 W3 1_555 1_555
O27 W5 1_555 1_555
O28 W6 1_555 1_555
O29 W8 1_555 1_555
O30 W9 1_555 1_555
O31 W11 1_555 1_555
O32 W5 1_555 1_555
O33 W12 1_555 1_555
O34 W2 1_555 1_555
O35 W4 1_555 1_555
O36 W1 1_555 1_555
O37 W2 1_555 1_555
O38 W7 1_555 1_555
O39 W6 1_555 1_555
O40 W3 1_555 1_555
Cu1 N1 1_555 1_555
Cu2 N2 1_555 1_555
Cu3 O18 1_555 1_555
Cu4 N19 1_555 1_555
N1 C21 1_555 1_555
N2 C21 1_555 1_555
C1 H1 1_555 1_555
H2 C1 1_555 1_555
C2 C1 1_555 1_555
H3 C2 1_555 1_555
H4 C2 1_555 1_555
C3 H5 1_555 1_555
C4 H6 1_555 1_555
C5 H7 1_555 1_555
C6 H8 1_555 1_555
C7 H9 1_555 1_555
H10 C7 1_555 1_555
C8 C7 1_555 1_555
H11 C8 1_555 1_555
H12 C8 1_555 1_555
C9 H13 1_555 1_555
C10 H14 1_555 1_555
C11 H15 1_555 1_555
H16 C11 1_555 1_555
C12 C11 1_555 1_555
H17 C12 1_555 1_555
H18 C12 1_555 1_555
C13 H19 1_555 1_555
C14 H20 1_555 1_555
C15 H21 1_555 1_555
C16 H22 1_555 1_555
C17 H23 1_555 1_555
H24 C17 1_555 1_555
C18 C17 1_555 1_555
H25 C18 1_555 1_555
H26 C18 1_555 1_555
C19 H27 1_555 1_555
C20 H28 1_555 1_555
C21 H29 1_555 1_555
C22 N2 1_555 1_555
H30 C22 1_555 1_555
N3 N1 1_555 1_555
N4 C2 1_555 1_555
N5 C3 1_555 1_555
N6 Cu1 1_555 1_555
N7 Cu1 1_555 1_555
N8 C6 1_555 1_555
N9 C5 1_555 1_555
N10 C8 1_555 1_555
N11 C10 1_555 1_555
N12 Cu3 1_555 1_555
N13 Cu2 1_555 1_555
C23 N13 1_555 1_555
H31 C23 1_555 1_555
N14 C23 1_555 1_555
N15 C11 1_555 1_555
C24 N13 1_555 1_555
H32 C24 1_555 1_555
N16 C12 1_555 1_555
N17 C14 1_555 1_555
N18 C13 1_555 1_555
N19 C15 1_555 1_555
N20 C15 1_555 1_555
N21 C16 1_555 1_555
N22 C18 1_555 1_555
N23 Cu3 1_555 1_555
N24 C19 1_555 1_555
O14C Cu4 1_555 1_555
Cu2B N8 1_555 1_555
Cu3_2 N18 1_555 1_555
Cu4C N24 1_555 1_555
Cu4C_2 O14 1_555 1_555
N8B Cu2 1_555 1_555
N11B Cu2 1_555 1_555
N18_2 Cu3 1_555 1_555
N24C Cu4 1_555 1_555
W2 O25 1_555 1_555
W3 O23 1_555 1_555
W3 O37 1_555 1_555
W4 O34 1_555 1_555
W6 O5 1_555 1_555
W6 O35 1_555 1_555
W7 O8 1_555 1_555
W7 O17 1_555 1_555
W8 O12 1_555 1_555
W8 O24 1_555 1_555
W9 O15 1_555 1_555
W9 O16 1_555 1_555
W10 O21 1_555 1_555
W10 O27 1_555 1_555
W10 O30 1_555 1_555
W10 O40 1_555 1_555
W11 O7 1_555 1_555
W11 O20 1_555 1_555
W11 O29 1_555 1_555
W11 O32 1_555 1_555
W12 O9 1_555 1_555
W12 O19 1_555 1_555
W12 O36 1_555 1_555
W12 O39 1_555 1_555
C1 N3 1_555 1_555
C3 N4 1_555 1_555
C4 N5 1_555 1_555
C4 N6 1_555 1_555
C5 N7 1_555 1_555
C6 N7 1_555 1_555
C7 N9 1_555 1_555
C9 N10 1_555 1_555
C9 N12 1_555 1_555
C10 N12 1_555 1_555
C13 N16 1_555 1_555
C14 N18 1_555 1_555
C16 N19 1_555 1_555
C17 N21 1_555 1_555
C19 N23 1_555 1_555
C20 N22 1_555 1_555
C20 N24 1_555 1_555
C22 N3 1_555 1_555
N4 N6 1_555 1_555
N8 N9 1_555 1_555
N10 N11 1_555 1_555
N11 Cu2B 1_555 1_555
N14 N15 1_555 1_555
N15 C24 1_555 1_555
N16 N17 1_555 1_555
N20 N21 1_555 1_555
N22 N23 1_555 1_555

#END
