
#######################################################################
#
#                 Cambridge Crystallographic Data Centre
#                                CCDC 
#
#######################################################################
#
# If this CIF has been generated from an entry in the Cambridge 
# Structural Database, then it will include bibliographic, chemical, 
# crystal, experimental, refinement or atomic coordinate data resulting 
# from the CCDC's data processing and validation procedures.
#
#######################################################################

data_HOMTIM01
_symmetry_cell_setting           monoclinic
_symmetry_space_group_name_H-M   'P 21/c'
_symmetry_Int_Tables_number      14
_space_group_name_Hall           '-P 2ybc'
loop_
_symmetry_equiv_pos_site_id
_symmetry_equiv_pos_as_xyz
1 x,y,z
2 -x,1/2+y,1/2-z
3 -x,-y,-z
4 x,1/2-y,1/2+z
_cell_length_a                   11.392(5)
_cell_length_b                   15.232(5)
_cell_length_c                   8.634(5)
_cell_angle_alpha                90
_cell_angle_beta                 104.852(5)
_cell_angle_gamma                90
_cell_volume                     1448.14
loop_
_atom_site_label
_atom_site_type_symbol
_atom_site_fract_x
_atom_site_fract_y
_atom_site_fract_z
Co1 Co 0.0000 0.0000 0.0000
O1 O 0.1847(3) -0.0207(4) -0.2404(5)
O2 O 0.1831(3) -0.0001(3) 0.0143(4)
O3 O -0.0421(4) -0.0001(5) -0.2429(5)
N1 N 0.0003(5) -0.1371(4) 0.0053(8)
C1 C -0.0886(7) -0.1831(6) -0.0891(14)
H2 H -0.1542 -0.1529 -0.1589
C2 C -0.0882(9) -0.2736(7) -0.0885(17)
H3 H -0.1527 -0.3052 -0.1576
C3 C 0.0067(10) -0.3182(7) 0.0132(17)
H4 H 0.0090 -0.3806 0.0148
C4 C 0.0968(9) -0.2702(8) 0.1108(15)
H5 H 0.1638 -0.2986 0.1813
C5 C 0.0897(7) -0.1806(6) 0.1061(12)
H6 H 0.1512 -0.1479 0.1779
C6 C 0.2357(4) -0.0092(4) -0.0948(6)
C7 C 0.3726(4) -0.0042(4) -0.0459(6)
C8 C 0.4339(4) 0.0259(4) 0.1056(6)
H7 H 0.3887 0.0441 0.1785
C9 C 0.4409(4) -0.0298(4) -0.1516(6)
H8 H 0.4008 -0.0499 -0.2559
H14 H 0.022(7) -0.020(4) -0.260(9)
H15 H -0.095(10) -0.013(6) -0.315(12)
Co1_2 Co 1.0000 0.0000 0.0000
O1B O 0.8153(3) 0.0207(4) 0.2404(5)
O2B O 0.8169(3) 0.0001(3) -0.0143(4)
O2B_2 O -0.1831(3) 0.0001(3) -0.0143(4)
O3B O 0.0421(4) 0.0001(5) 0.2429(5)
N1B N -0.0003(5) 0.1371(4) -0.0053(8)
C1B C 0.0886(7) 0.1831(6) 0.0891(14)
H2B H 0.1542 0.1529 0.1589
C2B C 0.0882(9) 0.2736(7) 0.0885(17)
H3B H 0.1527 0.3052 0.1576
C3B C -0.0067(10) 0.3182(7) -0.0132(17)
H4B H -0.0090 0.3806 -0.0148
C4B C -0.0968(9) 0.2702(8) -0.1108(15)
H5B H -0.1638 0.2986 -0.1813
C5B C -0.0897(7) 0.1806(6) -0.1061(12)
H6B H -0.1512 0.1479 -0.1779
C6B C 0.7643(4) 0.0092(4) 0.0948(6)
C7B C 0.6274(4) 0.0042(4) 0.0459(6)
C8B C 0.5661(4) -0.0259(4) -0.1056(6)
H7B H 0.6113 -0.0441 -0.1785
C9B C 0.5591(4) 0.0298(4) 0.1516(6)
H8B H 0.5992 0.0499 0.2559
H14B H -0.022(7) 0.020(4) 0.260(9)
H15B H 0.095(10) 0.013(6) 0.315(12)
O4 O -0.2337(4) -0.0279(6) -0.4747(6)
H1 H -0.2330 0.0378 -0.4738
H16 H -0.223(9) -0.041(7) -0.571(13)
N2 N -0.4293(9) -0.1375(5) -0.4973(8)
C10 C -0.4004(10) -0.2256(10) -0.4270(12)
H9 H -0.3186 -0.2450 -0.3920
C11 C -0.4942(7) -0.2790(5) -0.4133(9)
H10 H -0.4734 -0.3351 -0.3660
C12 C -0.6116(9) -0.2593(7) -0.4603(12)
H11 H -0.6739 -0.2991 -0.4519
C13 C -0.6333(12) -0.1813(6) -0.5183(10)
H12 H -0.7158 -0.1634 -0.5513
C14 C -0.5492(9) -0.1233(6) -0.5359(9)
H13 H -0.5770 -0.0675 -0.5794
loop_
_geom_bond_atom_site_label_1
_geom_bond_atom_site_label_2
_geom_bond_site_symmetry_1
_geom_bond_site_symmetry_2
Co1 O2 1_555 1_555
O1 C6 1_555 1_555
O2 C6 1_555 1_555
O3 Co1 1_555 1_555
O4 H1 1_555 1_555
N1 Co1 1_555 1_555
N2 C10 1_555 1_555
C1 N1 1_555 1_555
H2 C1 1_555 1_555
C2 C1 1_555 1_555
H3 C2 1_555 1_555
C3 C2 1_555 1_555
H4 C3 1_555 1_555
C4 C3 1_555 1_555
H5 C4 1_555 1_555
C5 N1 1_555 1_555
H6 C5 1_555 1_555
C6 C7 1_555 1_555
C7 C8 1_555 1_555
C8 H7 1_555 1_555
C9 C7 1_555 1_555
H8 C9 1_555 1_555
C10 H9 1_555 1_555
C11 C10 1_555 1_555
H10 C11 1_555 1_555
C12 C11 1_555 1_555
H11 C12 1_555 1_555
C13 C12 1_555 1_555
H12 C13 1_555 1_555
C14 N2 1_555 1_555
H13 C14 1_555 1_555
H14 O3 1_555 1_555
H15 O3 1_555 1_555
H16 O4 1_555 1_555
Co1_2 O2B 1_555 1_555
O1B C6B 1_555 1_555
O2B C6B 1_555 1_555
O2B_2 Co1 1_555 1_555
O3B Co1 1_555 1_555
N1B Co1 1_555 1_555
C1B N1B 1_555 1_555
H2B C1B 1_555 1_555
C2B C1B 1_555 1_555
H3B C2B 1_555 1_555
C3B C2B 1_555 1_555
H4B C3B 1_555 1_555
C4B C3B 1_555 1_555
H5B C4B 1_555 1_555
C5B N1B 1_555 1_555
H6B C5B 1_555 1_555
C6B C7B 1_555 1_555
C7B C8B 1_555 1_555
C8B C9 1_555 1_555
H7B C8B 1_555 1_555
C9B C8 1_555 1_555
H8B C9B 1_555 1_555
H14B O3B 1_555 1_555
H15B O3B 1_555 1_555
C4 C5 1_555 1_555
C13 C14 1_555 1_555
C4B C5B 1_555 1_555
C7B C9B 1_555 1_555

#END
