
#######################################################################
#
#                 Cambridge Crystallographic Data Centre
#                                CCDC 
#
#######################################################################
#
# If this CIF has been generated from an entry in the Cambridge 
# Structural Database, then it will include bibliographic, chemical, 
# crystal, experimental, refinement or atomic coordinate data resulting 
# from the CCDC's data processing and validation procedures.
#
#######################################################################

data_HOMTAE
_symmetry_cell_setting           triclinic
_symmetry_space_group_name_H-M   'P -1'
_symmetry_Int_Tables_number      2
_space_group_name_Hall           '-P 1'
loop_
_symmetry_equiv_pos_site_id
_symmetry_equiv_pos_as_xyz
1 x,y,z
2 -x,-y,-z
_cell_length_a                   8.2675(6)
_cell_length_b                   9.1598(7)
_cell_length_c                   11.4274(9)
_cell_angle_alpha                82.612(1)
_cell_angle_beta                 88.950(1)
_cell_angle_gamma                65.081(1)
_cell_volume                     777.684
loop_
_atom_site_label
_atom_site_type_symbol
_atom_site_fract_x
_atom_site_fract_y
_atom_site_fract_z
Co1 Co 0.0000 0.0000 0.0000
O1 O 0.0226(2) -0.0235(2) -0.1789(1)
O2 O -0.1760(2) -0.1179(2) -0.2231(1)
O3 O 0.2228(2) 0.0580(2) -0.0026(1)
N1 N 0.1789(2) -0.2523(2) 0.0479(1)
C1 C 0.3092(3) -0.2947(2) 0.1310(2)
C2 C 0.4219(3) -0.4544(2) 0.1712(2)
C3 C 0.4009(3) -0.5803(2) 0.1276(2)
C4 C 0.2685(3) -0.5360(2) 0.0400(2)
C5 C 0.1627(3) -0.3734(2) 0.0025(2)
C6 C 0.5142(3) -0.7555(3) 0.1735(2)
C7 C -0.0647(3) -0.0606(2) -0.2501(2)
C8 C -0.0304(3) -0.0300(2) -0.3801(2)
C9 C 0.0936(3) 0.0312(2) -0.4143(2)
C10 C -0.1239(3) -0.0614(2) -0.4670(2)
H1 H 0.2193 0.1047 0.0615
H2 H 0.2358 0.1231 -0.0583
H3 H 0.3247(3) -0.2110(2) 0.1637(2)
H4 H 0.5139(3) -0.4780(2) 0.2289(2)
H5 H 0.2505(3) -0.6174(2) 0.0056(2)
H6 H 0.0743(3) -0.3465(2) -0.0585(2)
H7 H 0.4478(3) -0.7956(3) 0.2308(2)
H8 H 0.6239(3) -0.7650(3) 0.2119(2)
H9 H 0.5447(3) -0.8199(3) 0.1076(2)
H10 H 0.1583(3) 0.0526(2) -0.3560(2)
H11 H -0.2086(3) -0.1037(2) -0.4447(2)
C10A C 0.1239(3) 0.0614(2) -0.5330(2)
C8A C 0.0304(3) 0.0300(2) -0.6199(2)
C7A C 0.0647(3) 0.0606(2) -0.7499(2)
O1A O -0.0226(2) 0.0235(2) -0.8211(1)
Co1A Co 0.0000 0.0000 -1.0000
O2A O 0.1760(2) 0.1179(2) -0.7769(1)
C9A C -0.0936(3) -0.0312(2) -0.5857(2)
H11A H 0.2086(3) 0.1037(2) -0.5553(2)
O1A_2 O -0.0226(2) 0.0235(2) 0.1789(1)
O3A O -0.2228(2) -0.0580(2) 0.0026(1)
H1A H -0.2193 -0.1047 -0.0615
H2A H -0.2358 -0.1231 0.0583
N1A N -0.1789(2) 0.2523(2) -0.0479(1)
C1A C -0.3092(3) 0.2947(2) -0.1310(2)
C2A C -0.4219(3) 0.4544(2) -0.1712(2)
C3A C -0.4009(3) 0.5803(2) -0.1276(2)
C4A C -0.2685(3) 0.5360(2) -0.0400(2)
C5A C -0.1627(3) 0.3734(2) -0.0025(2)
H6A H -0.0743(3) 0.3465(2) 0.0585(2)
H5A H -0.2505(3) 0.6174(2) -0.0056(2)
C6A C -0.5142(3) 0.7555(3) -0.1735(2)
H7A H -0.4478(3) 0.7956(3) -0.2308(2)
H8A H -0.6239(3) 0.7650(3) -0.2119(2)
H9A H -0.5447(3) 0.8199(3) -0.1076(2)
H4A H -0.5139(3) 0.4780(2) -0.2289(2)
H3A H -0.3247(3) 0.2110(2) -0.1637(2)
H10A H -0.1583(3) -0.0526(2) -0.6440(2)
N2 N 0.2438(3) 0.2629(3) -0.2039(2)
C11 C 0.3823(4) 0.1899(3) -0.2697(3)
C12 C 0.4039(4) 0.2578(4) -0.3803(3)
C13 C 0.2793(4) 0.4081(4) -0.4275(2)
C14 C 0.1379(4) 0.4842(3) -0.3588(3)
C15 C 0.1247(3) 0.4079(3) -0.2502(2)
C16 C 0.2970(6) 0.4861(7) -0.5483(3)
H12 H 0.4706(4) 0.0859(3) -0.2388(3)
H13 H 0.5050(4) 0.2006(4) -0.4238(3)
H14 H 0.0494(4) 0.5896(3) -0.3866(3)
H15 H 0.0240(3) 0.4623(3) -0.2055(2)
H16 H 0.2123(6) 0.4800(7) -0.6042(3)
H17 H 0.4189(6) 0.4289(7) -0.5741(3)
H18 H 0.2715(6) 0.6001(7) -0.5453(3)
loop_
_geom_bond_atom_site_label_1
_geom_bond_atom_site_label_2
_geom_bond_site_symmetry_1
_geom_bond_site_symmetry_2
Co1 O1 1_555 1_555
O1 C7 1_555 1_555
O2 C7 1_555 1_555
O3 Co1 1_555 1_555
N1 Co1 1_555 1_555
N2 C11 1_555 1_555
C1 N1 1_555 1_555
C2 C1 1_555 1_555
C3 C2 1_555 1_555
C4 C3 1_555 1_555
C5 N1 1_555 1_555
C6 C3 1_555 1_555
C7 C8 1_555 1_555
C8 C9 1_555 1_555
C9 H10 1_555 1_555
C10 C8 1_555 1_555
C11 C12 1_555 1_555
C12 C13 1_555 1_555
C13 C14 1_555 1_555
C14 C15 1_555 1_555
C15 N2 1_555 1_555
C16 C13 1_555 1_555
H1 O3 1_555 1_555
H2 O3 1_555 1_555
H3 C1 1_555 1_555
H4 C2 1_555 1_555
H5 C4 1_555 1_555
H6 C5 1_555 1_555
H7 C6 1_555 1_555
H8 C6 1_555 1_555
H9 C6 1_555 1_555
H11 C10 1_555 1_555
H12 C11 1_555 1_555
H13 C12 1_555 1_555
H14 C14 1_555 1_555
H15 C15 1_555 1_555
H16 C16 1_555 1_555
H17 C16 1_555 1_555
H18 C16 1_555 1_555
C10A C9 1_555 1_555
C8A C10A 1_555 1_555
C7A C8A 1_555 1_555
O1A C7A 1_555 1_555
Co1A O1A 1_555 1_555
O2A C7A 1_555 1_555
C9A C10 1_555 1_555
H11A C10A 1_555 1_555
O1A_2 Co1 1_555 1_555
O3A Co1 1_555 1_555
H1A O3A 1_555 1_555
H2A O3A 1_555 1_555
N1A Co1 1_555 1_555
C1A N1A 1_555 1_555
C2A C1A 1_555 1_555
C3A C2A 1_555 1_555
C4A C3A 1_555 1_555
C5A N1A 1_555 1_555
H6A C5A 1_555 1_555
H5A C4A 1_555 1_555
C6A C3A 1_555 1_555
H7A C6A 1_555 1_555
H8A C6A 1_555 1_555
H9A C6A 1_555 1_555
H4A C2A 1_555 1_555
H3A C1A 1_555 1_555
H10A C9A 1_555 1_555
C4 C5 1_555 1_555
C8A C9A 1_555 1_555
C4A C5A 1_555 1_555

#END
