
#######################################################################
#
#                 Cambridge Crystallographic Data Centre
#                                CCDC 
#
#######################################################################
#
# If this CIF has been generated from an entry in the Cambridge 
# Structural Database, then it will include bibliographic, chemical, 
# crystal, experimental, refinement or atomic coordinate data resulting 
# from the CCDC's data processing and validation procedures.
#
#######################################################################

data_HOMVEL
_symmetry_cell_setting           orthorhombic
_symmetry_space_group_name_H-M   'P c 21 b'
_symmetry_Int_Tables_number      29
_space_group_name_Hall           'P -2bc -2c'
loop_
_symmetry_equiv_pos_site_id
_symmetry_equiv_pos_as_xyz
1 x,y,z
2 -x,1/2+y,-z
3 -x,y,1/2+z
4 x,1/2+y,1/2-z
_cell_length_a                   11.8256(3)
_cell_length_b                   17.5321(5)
_cell_length_c                   23.7164(7)
_cell_angle_alpha                90
_cell_angle_beta                 90
_cell_angle_gamma                90
_cell_volume                     4917.06
loop_
_atom_site_label
_atom_site_type_symbol
_atom_site_fract_x
_atom_site_fract_y
_atom_site_fract_z
Cd1 Cd 0.25029(4) 0.93117(4) 0.872694(12)
N1 N 1.6540(3) 1.0141(2) 0.42936(18)
N2 N 1.5202(3) 1.0656(2) 0.48206(16)
N3 N 1.0616(4) 1.0403(3) 0.6234(2)
N4 N 0.9581(3) 1.0479(3) 0.65043(18)
N5 N 0.4455(3) 1.0370(2) 0.73520(17)
N6 N 0.3143(3) 0.9986(2) 0.79532(18)
N7 N 0.1827(3) 0.8680(2) 0.95127(18)
N8 N 0.0538(3) 0.8295(2) 1.01247(18)
N9 N -0.4641(3) 0.7928(3) 1.09410(18)
N10 N -0.5679(3) 0.8024(2) 1.12108(18)
N11 N -1.0255(3) 0.7944(2) 1.26355(18)
N12 N -1.1592(3) 0.8468(2) 1.31534(18)
C1 C 1.5555(4) 1.0020(3) 0.4535(2)
H1 H 1.5144 0.9556 0.4513
C2 C 1.6840(4) 1.0885(3) 0.4428(2)
H2 H 1.7516 1.1132 0.4312
C3 C 1.6018(4) 1.1206(3) 0.4750(2)
H3 H 1.6009 1.1710 0.4898
C4 C 1.4156(4) 1.0744(3) 0.5122(2)
C5 C 1.3616(4) 1.0114(3) 0.5350(2)
H4 H 1.3941 0.9622 0.5310
C6 C 1.2619(4) 1.0200(3) 0.5633(2)
H5 H 1.2246 0.9760 0.5774
C7 C 1.2134(4) 1.0910(3) 0.5719(2)
C8 C 1.2687(4) 1.1526(3) 0.5486(2)
H6 H 1.2371 1.2020 0.5529
C9 C 1.3696(4) 1.1444(3) 0.5190(3)
H7 H 1.4061 1.1879 0.5036
C10 C 1.1027(4) 1.1006(3) 0.6010(2)
C11 C 1.0462(5) 1.1771(3) 0.6007(3)
H8 H 0.9743 1.1739 0.6211
H9 H 1.0320 1.1928 0.5616
H10 H 1.0953 1.2146 0.6191
C12 C 0.8717(5) 1.0165(4) 0.5590(2)
H11 H 0.9502 1.0161 0.5458
H12 H 0.8292 1.0558 0.5386
H13 H 0.8373 0.9666 0.5521
C13 C 0.8692(4) 1.0337(3) 0.6212(2)
C14 C 0.7579(4) 1.0378(3) 0.6509(2)
C15 C 0.6580(4) 1.0481(3) 0.6216(2)
H14 H 0.6597 1.0542 0.5818
C16 C 0.5558(4) 1.0495(4) 0.6498(2)
H15 H 0.4875 1.0571 0.6294
C17 C 0.5528(4) 1.0399(3) 0.7070(2)
C18 C 0.6514(4) 1.0285(3) 0.7373(2)
H16 H 0.6483 1.0206 0.7769
C19 C 0.7547(4) 1.0287(2) 0.7099(2)
H17 H 0.8228 1.0228 0.7306
C20 C 0.4227(4) 0.9944(3) 0.7814(2)
H18 H 0.4774 0.9652 0.8013
C21 C 0.2658(5) 1.0458(3) 0.7560(2)
H19 H 0.1881 1.0594 0.7550
C22 C 0.3458(4) 1.0706(3) 0.7183(2)
H20 H 0.3348 1.1039 0.6871
C23 C 0.0728(4) 0.8628(3) 0.9620(2)
H21 H 0.0150 0.8803 0.9374
C24 C 0.2373(4) 0.8362(3) 0.9974(2)
H22 H 0.3168 0.8323 1.0022
C25 C 0.1574(4) 0.8117(3) 1.0347(2)
H23 H 0.1711 0.7868 1.0696
C26 C -0.0554(4) 0.8218(3) 1.0381(2)
C27 C -0.0626(5) 0.8281(3) 1.0962(2)
H24 H 0.0041 0.8332 1.1183
C28 C -0.1672(4) 0.8268(3) 1.1219(2)
H25 H -0.1719 0.8311 1.1618
C29 C -0.2649(4) 0.8193(3) 1.0910(2)
C30 C -0.2578(5) 0.8115(3) 1.0327(2)
H26 H -0.3244 0.8054 1.0108
C31 C -0.1537(4) 0.8126(3) 1.0072(2)
H27 H -0.1490 0.8069 0.9674
C32 C -0.3786(4) 0.8227(3) 1.1194(2)
C33 C -0.3884(5) 0.8604(4) 1.1764(3)
H28 H -0.4667 0.8569 1.1896
H29 H -0.3664 0.9141 1.1733
H30 H -0.3383 0.8345 1.2032
C34 C -0.5460(5) 0.6721(3) 1.1562(3)
H31 H -0.4749 0.6735 1.1349
H32 H -0.5938 0.6309 1.1417
H33 H -0.5298 0.6632 1.1961
C35 C -0.6070(4) 0.7475(3) 1.1495(2)
C36 C -0.7164(4) 0.7594(3) 1.1784(2)
C37 C -0.7615(4) 0.8316(3) 1.1828(2)
H34 H -0.7222 0.8737 1.1670
C38 C -0.8648(4) 0.8434(3) 1.2105(2)
H35 H -0.8973 0.8929 1.2119
C39 C -0.9186(4) 0.7824(3) 1.2356(2)
C40 C -0.8739(4) 0.7103(3) 1.2330(2)
H36 H -0.9114 0.6686 1.2505
C41 C -0.7729(4) 0.6991(3) 1.2043(2)
H37 H -0.7416 0.6493 1.2024
C42 C -1.0554(4) 0.8536(3) 1.2968(2)
H38 H -1.0070 0.8952 1.3057
C43 C -1.1197(4) 0.7462(3) 1.2607(2)
H39 H -1.1256 0.6997 1.2403
C44 C -1.2000(4) 0.7791(3) 1.2927(2)
H40 H -1.2737 0.7590 1.2988
C45 C 0.6232(7) 0.8185(5) 0.8509(4)
S1 S 0.49085(12) 0.79891(9) 0.88246(6)
O1 O 0.4222(3) 0.8602(2) 0.86540(18)
O2 O 0.4552(4) 0.7257(3) 0.8574(2)
O3 O 0.5143(4) 0.7972(3) 0.94112(15)
F1 F 0.6986(4) 0.7624(3) 0.8600(3)
F2 F 0.6634(4) 0.8847(3) 0.8688(3)
F3 F 0.6146(5) 0.8237(4) 0.7951(2)
C46 C -0.0783(5) 1.0789(4) 0.9205(3)
S2 S 0.00515(12) 1.05737(9) 0.85980(6)
O4 O 0.0581(4) 1.1277(2) 0.8457(2)
O5 O -0.0728(4) 1.0269(3) 0.81933(19)
O6 O 0.0814(3) 0.9988(2) 0.88222(17)
F4 F -0.1640(3) 1.1264(3) 0.90861(17)
F5 F -0.1246(4) 1.0171(3) 0.9428(2)
F6 F -0.0194(4) 1.1111(3) 0.96064(16)
Cd1B Cd 1.74971(4) 0.93117(4) 0.372694(12)
Cd1B_2 Cd -1.25029(4) 0.93117(4) 1.372694(12)
N1B N 0.3460(3) 1.0141(2) 0.92936(18)
N12B N 0.1592(3) 0.8468(2) 0.81534(18)
loop_
_geom_bond_atom_site_label_1
_geom_bond_atom_site_label_2
_geom_bond_site_symmetry_1
_geom_bond_site_symmetry_2
Cd1 N6 1_555 1_555
N1 C1 1_555 1_555
N2 C1 1_555 1_555
N3 N4 1_555 1_555
N4 C13 1_555 1_555
N5 C17 1_555 1_555
N6 C20 1_555 1_555
N7 Cd1 1_555 1_555
N8 C23 1_555 1_555
N9 N10 1_555 1_555
N10 C35 1_555 1_555
N11 C39 1_555 1_555
N12 C42 1_555 1_555
C1 H1 1_555 1_555
C2 N1 1_555 1_555
H2 C2 1_555 1_555
C3 N2 1_555 1_555
H3 C3 1_555 1_555
C4 N2 1_555 1_555
C5 C4 1_555 1_555
H4 C5 1_555 1_555
C6 C5 1_555 1_555
H5 C6 1_555 1_555
C7 C6 1_555 1_555
C8 C7 1_555 1_555
H6 C8 1_555 1_555
C9 C4 1_555 1_555
H7 C9 1_555 1_555
C10 N3 1_555 1_555
C11 C10 1_555 1_555
H8 C11 1_555 1_555
H9 C11 1_555 1_555
H10 C11 1_555 1_555
C12 H11 1_555 1_555
H12 C12 1_555 1_555
H13 C12 1_555 1_555
C13 C12 1_555 1_555
C14 C13 1_555 1_555
C15 C14 1_555 1_555
H14 C15 1_555 1_555
C16 C15 1_555 1_555
H15 C16 1_555 1_555
C17 C16 1_555 1_555
C18 C17 1_555 1_555
H16 C18 1_555 1_555
C19 C14 1_555 1_555
H17 C19 1_555 1_555
C20 N5 1_555 1_555
H18 C20 1_555 1_555
C21 N6 1_555 1_555
H19 C21 1_555 1_555
C22 N5 1_555 1_555
H20 C22 1_555 1_555
C23 N7 1_555 1_555
H21 C23 1_555 1_555
C24 N7 1_555 1_555
H22 C24 1_555 1_555
C25 N8 1_555 1_555
H23 C25 1_555 1_555
C26 N8 1_555 1_555
C27 C26 1_555 1_555
H24 C27 1_555 1_555
C28 C27 1_555 1_555
H25 C28 1_555 1_555
C29 C28 1_555 1_555
C30 C29 1_555 1_555
H26 C30 1_555 1_555
C31 C26 1_555 1_555
H27 C31 1_555 1_555
C32 N9 1_555 1_555
C33 C32 1_555 1_555
H28 C33 1_555 1_555
H29 C33 1_555 1_555
H30 C33 1_555 1_555
C34 H31 1_555 1_555
H32 C34 1_555 1_555
H33 C34 1_555 1_555
C35 C34 1_555 1_555
C36 C35 1_555 1_555
C37 C36 1_555 1_555
H34 C37 1_555 1_555
C38 C37 1_555 1_555
H35 C38 1_555 1_555
C39 C38 1_555 1_555
C40 C39 1_555 1_555
H36 C40 1_555 1_555
C41 C36 1_555 1_555
H37 C41 1_555 1_555
C42 N11 1_555 1_555
H38 C42 1_555 1_555
C43 N11 1_555 1_555
H39 C43 1_555 1_555
C44 N12 1_555 1_555
H40 C44 1_555 1_555
C45 S1 1_555 1_555
S1 O1 1_555 1_555
O1 Cd1 1_555 1_555
O2 S1 1_555 1_555
O3 S1 1_555 1_555
F1 C45 1_555 1_555
F2 C45 1_555 1_555
F3 C45 1_555 1_555
C46 S2 1_555 1_555
S2 O4 1_555 1_555
O5 S2 1_555 1_555
O6 Cd1 1_555 1_555
F4 C46 1_555 1_555
F5 C46 1_555 1_555
F6 C46 1_555 1_555
Cd1B N1 1_555 1_555
Cd1B_2 N12 1_555 1_555
N1B Cd1 1_555 1_555
N12B Cd1 1_555 1_555
C2 C3 1_555 1_555
C7 C10 1_555 1_555
C8 C9 1_555 1_555
C18 C19 1_555 1_555
C21 C22 1_555 1_555
C24 C25 1_555 1_555
C29 C32 1_555 1_555
C30 C31 1_555 1_555
C40 C41 1_555 1_555
C43 C44 1_555 1_555
S2 O6 1_555 1_555

#END
