
#######################################################################
#
#                 Cambridge Crystallographic Data Centre
#                                CCDC 
#
#######################################################################
#
# If this CIF has been generated from an entry in the Cambridge 
# Structural Database, then it will include bibliographic, chemical, 
# crystal, experimental, refinement or atomic coordinate data resulting 
# from the CCDC's data processing and validation procedures.
#
#######################################################################

data_HOMVAI
_symmetry_cell_setting           orthorhombic
_symmetry_space_group_name_H-M   'P c a 21'
_symmetry_Int_Tables_number      29
_space_group_name_Hall           'P 2c -2ac'
loop_
_symmetry_equiv_pos_site_id
_symmetry_equiv_pos_as_xyz
1 x,y,z
2 -x,-y,1/2+z
3 1/2-x,y,1/2+z
4 1/2+x,-y,z
_cell_length_a                   11.2447(2)
_cell_length_b                   8.09320(10)
_cell_length_c                   30.0999(5)
_cell_angle_alpha                90
_cell_angle_beta                 90
_cell_angle_gamma                90
_cell_volume                     2739.26
loop_
_atom_site_label
_atom_site_type_symbol
_atom_site_fract_x
_atom_site_fract_y
_atom_site_fract_z
Ba1 Ba 0.48344(3) 0.72004(3) 0.53480(2)
Ba2 Ba 0.86932(3) 0.79290(3) 0.50036(2)
O1 O 0.4757(4) 0.9295(6) 0.45640(17)
O2 O 0.2657(4) 0.8971(5) 0.52292(16)
O3 O 0.5107(4) 0.9644(6) 0.06635(17)
O4 O 0.6437(4) 0.7893(6) 0.4672(2)
O5 O 0.3621(4) 0.5479(5) 0.4671(2)
O6 O 0.5742(4) 0.4049(5) 0.52693(16)
O7 O 0.8515(4) 0.5364(6) 0.57092(19)
O8 O 0.7057(4) 0.7214(5) 0.56928(19)
O9 O 0.6482(4) 0.4866(8) 0.76818(17)
O10 O 1.0159(4) 0.3191(7) 0.9226(2)
C1 C 0.5729(5) 0.8700(7) 0.4421(2)
C2 C 0.5261(5) 0.9069(7) 0.1434(2)
C3 C 0.7685(5) 0.6141(7) 0.5892(2)
C4 C 0.7406(5) 0.5828(7) 0.6373(2)
C5 C 0.8038(5) 0.4653(8) 0.6608(2)
H1 H 0.8642 0.4069 0.6467
C6 C 0.7784(6) 0.4332(9) 0.7053(2)
H2 H 0.8220 0.3550 0.7210
C7 C 0.6878(5) 0.5191(9) 0.7256(2)
C8 C 0.7220(5) 0.4260(9) 0.8013(2)
C9 C 0.6652(5) 0.3310(8) 0.8331(2)
H3 H 0.5871 0.2970 0.8288
C10 C 0.7254(6) 0.2873(7) 0.8710(2)
H4 H 0.6871 0.2256 0.8928
C11 C 0.8441(5) 0.3350(7) 0.8772(2)
C12 C 0.9008(5) 0.4189(8) 0.8434(2)
H5 H 0.9808 0.4452 0.8465
C13 C 0.8421(6) 0.4647(10) 0.8053(2)
H6 H 0.8818 0.5203 0.7827
C14 C 0.6244(6) 0.6391(9) 0.7030(2)
H7 H 0.5644 0.6979 0.7173
C15 C 0.6513(6) 0.6705(9) 0.6589(2)
H8 H 0.6092 0.7512 0.6435
C16 C 0.6048(5) 0.8870(7) 0.3940(2)
C17 C 0.5317(5) 0.9703(8) 0.3642(2)
H9 H 0.4611 1.0164 0.3743
C18 C 0.5615(6) 0.9867(9) 0.3195(2)
H10 H 0.5111 1.0410 0.2999
C19 C 0.6700(6) 0.9187(10) 0.3049(2)
O11 O 0.7128(4) 0.9411(9) 0.26237(18)
C20 C 0.6431(5) 0.9300(9) 0.2247(2)
C21 C 0.6859(6) 1.0138(9) 0.1884(2)
H11 H 0.7538 1.0786 0.1912
C22 C 0.6294(5) 1.0030(8) 0.1481(2)
H12 H 0.6597 1.0597 0.1238
C23 C 0.4855(5) 0.8193(9) 0.1799(2)
H13 H 0.4190 0.7518 0.1769
C24 C 0.5419(6) 0.8299(9) 0.2209(2)
H14 H 0.5130 0.7719 0.2453
C25 C 0.7442(6) 0.8375(10) 0.3340(3)
H15 H 0.8159 0.7940 0.3240
C26 C 0.7123(6) 0.8205(9) 0.3780(3)
H16 H 0.7626 0.7645 0.3974
O12 O 0.3691(4) 0.8097(7) 0.0969(2)
O13 O 0.8390(5) 0.2674(6) 0.95314(19)
C27 C 0.4643(5) 0.8930(7) 0.0996(2)
C28 C 0.9042(6) 0.3022(7) 0.9200(2)
Ba1A Ba 0.51656(3) 1.27996(3) 0.03480(2)
Ba1C Ba 0.98344(3) 0.27996(3) 0.53480(2)
Ba2A Ba 1.13068(3) 0.20710(3) 1.00036(2)
Ba2B Ba 0.63068(3) 0.79290(3) 0.00036(2)
Ba2C Ba 0.36932(3) 0.20710(3) 0.50036(2)
Ba2C_2 Ba 0.36932(3) 1.20710(3) 0.50036(2)
O1C O 0.9757(4) 1.0705(6) 0.45640(17)
O2C O 0.7657(4) 1.1029(5) 0.52292(16)
O3A O 0.4893(4) 1.0356(6) 0.56635(17)
O3B O 0.9893(4) 0.9644(6) 0.56635(17)
O5C O 0.8621(4) 0.4521(5) 0.4671(2)
O6C O 1.0742(4) 0.5951(5) 0.52693(16)
O7C O 0.3515(4) 0.4636(6) 0.57092(19)
O10A O 0.9841(4) 0.6809(7) 0.4226(2)
loop_
_geom_bond_atom_site_label_1
_geom_bond_atom_site_label_2
_geom_bond_site_symmetry_1
_geom_bond_site_symmetry_2
Ba1 O1 1_555 1_555
Ba2 O4 1_555 1_555
O1 C1 1_555 1_555
O2 Ba1 1_555 1_555
O3 C27 1_555 1_555
O4 Ba1 1_555 1_555
O5 Ba1 1_555 1_555
O6 Ba1 1_555 1_555
O7 Ba2 1_555 1_555
O8 Ba1 1_555 1_555
O9 C7 1_555 1_555
O10 C28 1_555 1_555
C1 O4 1_555 1_555
C2 C22 1_555 1_555
C3 O7 1_555 1_555
C4 C3 1_555 1_555
C5 C4 1_555 1_555
H1 C5 1_555 1_555
C6 C5 1_555 1_555
H2 C6 1_555 1_555
C7 C6 1_555 1_555
C8 O9 1_555 1_555
C9 C8 1_555 1_555
H3 C9 1_555 1_555
C10 C9 1_555 1_555
H4 C10 1_555 1_555
C11 C10 1_555 1_555
C12 C11 1_555 1_555
H5 C12 1_555 1_555
C13 C8 1_555 1_555
H6 C13 1_555 1_555
C14 C7 1_555 1_555
H7 C14 1_555 1_555
C15 C4 1_555 1_555
H8 C15 1_555 1_555
C16 C1 1_555 1_555
C17 C16 1_555 1_555
H9 C17 1_555 1_555
C18 C17 1_555 1_555
H10 C18 1_555 1_555
C19 C18 1_555 1_555
O11 C19 1_555 1_555
C20 O11 1_555 1_555
C21 C20 1_555 1_555
H11 C21 1_555 1_555
C22 C21 1_555 1_555
H12 C22 1_555 1_555
C23 C2 1_555 1_555
H13 C23 1_555 1_555
C24 C20 1_555 1_555
H14 C24 1_555 1_555
C25 C19 1_555 1_555
H15 C25 1_555 1_555
C26 C16 1_555 1_555
H16 C26 1_555 1_555
O12 C27 1_555 1_555
O13 C28 1_555 1_555
C27 C2 1_555 1_555
C28 C11 1_555 1_555
Ba1A O3 1_555 1_555
Ba1C O7 1_555 1_555
Ba2A O10 1_555 1_555
Ba2B O3 1_555 1_555
Ba2C O5 1_555 1_555
Ba2C_2 O1 1_555 1_555
O1C Ba2 1_555 1_555
O2C Ba2 1_555 1_555
O3A Ba1 1_555 1_555
O3B Ba2 1_555 1_555
O5C Ba2 1_555 1_555
O6C Ba2 1_555 1_555
O7C Ba1 1_555 1_555
O10A Ba2 1_555 1_555
Ba2 O8 1_555 1_555
O2 Ba2C_2 1_555 1_555
O6 Ba2C 1_555 1_555
O8 C3 1_555 1_555
C12 C13 1_555 1_555
C14 C15 1_555 1_555
C23 C24 1_555 1_555
C25 C26 1_555 1_555
Ba1C O5C 1_555 1_555
Ba1C O6C 1_555 1_555
Ba2C O7C 1_555 1_555
Ba2C_2 O3A 1_555 1_555

#END
