
#######################################################################
#
#                 Cambridge Crystallographic Data Centre
#                                CCDC 
#
#######################################################################
#
# If this CIF has been generated from an entry in the Cambridge 
# Structural Database, then it will include bibliographic, chemical, 
# crystal, experimental, refinement or atomic coordinate data resulting 
# from the CCDC's data processing and validation procedures.
#
#######################################################################

data_HOMVIP
_symmetry_cell_setting           orthorhombic
_symmetry_space_group_name_H-M   'P c a 21'
_symmetry_Int_Tables_number      29
_space_group_name_Hall           'P 2c -2ac'
loop_
_symmetry_equiv_pos_site_id
_symmetry_equiv_pos_as_xyz
1 x,y,z
2 -x,-y,1/2+z
3 1/2+x,-y,z
4 1/2-x,y,1/2+z
_cell_length_a                   23.823
_cell_length_b                   11.723
_cell_length_c                   17.431
_cell_angle_alpha                90
_cell_angle_beta                 90
_cell_angle_gamma                90
_cell_volume                     4868.08
loop_
_atom_site_label
_atom_site_type_symbol
_atom_site_fract_x
_atom_site_fract_y
_atom_site_fract_z
Mn1 Mn 0.371718(17) 0.25029(4) 0.28656(3)
S1 S 0.38183(3) 0.01503(8) 0.41746(5)
S2 S 0.35855(3) 0.48808(7) 0.16135(5)
N1 N 0.26336(10) 0.4715(2) 0.42286(15)
O1 O 0.37906(9) 0.40920(18) 0.22000(14)
N2 N -0.02006(10) -1.0233(2) 0.15402(14)
N3 N 0.23566(10) 0.0594(2) 0.18221(16)
O2 O 0.36580(9) 0.08964(19) 0.35564(14)
C1 C 0.01044(12) -0.9174(2) 0.14578(18)
N4 N 0.11966(11) 0.9322(2) 0.41565(15)
N5 N 0.00962(10) 1.5574(2) 0.38795(15)
C2 C 0.03620(13) 1.4473(3) 0.39651(17)
N6 N -0.05166(10) 1.6861(2) 0.34823(15)
C3 C -0.04039(12) 1.5753(3) 0.35394(18)
H1 H -0.0645 1.5164 0.3363
C4 C 0.23475(11) 0.5794(2) 0.43498(18)
C5 C -0.04840(12) -1.0578(3) 0.21668(18)
H2 H -0.0502 -1.0162 0.2634
C6 C 0.21005(12) 0.6346(3) 0.37322(18)
H3 H 0.2124 0.6028 0.3232
N7 N 0.14968(11) -0.4573(2) 0.17056(17)
C7 C 0.29650(13) 0.4443(3) 0.36325(19)
H4 H 0.3048 0.4938 0.3216
C8 C 0.03211(14) -0.8623(3) 0.20883(18)
H5 H 0.0273 -0.8940 0.2586
N8 N -0.07347(10) -1.1570(2) 0.20503(15)
C9 C 0.23685(12) -0.1475(3) 0.18865(18)
H6 H 0.2763 -0.1448 0.1960
C10 C 0.12071(13) -0.3677(3) 0.18406(17)
N9 N 0.31610(10) 0.3389(2) 0.37033(15)
N10 N 0.29633(10) 0.1898(2) 0.22044(16)
C11 C 0.23275(13) 0.6240(3) 0.50762(18)
H7 H 0.2507 0.5865 0.5492
C12 C 0.28185(12) 0.0806(3) 0.22332(19)
H8 H 0.3019 0.0242 0.2513
C13 C 0.20688(13) -0.0480(2) 0.17848(18)
C14 C 0.14836(12) 0.8938(3) 0.47129(18)
C15 C 0.17804(12) 0.7824(3) 0.45860(18)
C16 C 0.15055(13) -0.2567(3) 0.18066(17)
C17 C 0.01822(16) -0.8722(3) 0.07384(19)
H9 H 0.0029 -0.9093 0.0302
C18 C -0.06063(14) -1.1880(3) 0.13023(18)
C19 C 0.00490(13) 1.3485(3) 0.40540(17)
H10 H -0.0348 1.3528 0.4102
C20 C 0.18208(14) 0.7360(3) 0.38519(19)
H11 H 0.1654 0.7746 0.3430
C21 C 0.09422(14) 1.4412(3) 0.3910(2)
H12 H 0.1159 1.5089 0.3863
C22 C 0.20897(13) -0.2522(3) 0.18806(17)
H13 H 0.2298 -0.3209 0.1927
F1 F 0.29122(12) -0.1003(3) 0.3912(3)
C23 C 0.20383(14) 0.7255(3) 0.51899(18)
H14 H 0.2016 0.7568 0.5692
C24 C 0.21871(15) 0.1630(3) 0.1509(2)
H15 H 0.1873 0.1762 0.1184
C25 C 0.1560(2) 0.9533(3) 0.5469(2)
H16 H 0.1342 1.0241 0.5472
H17 H 0.1958 0.9712 0.5544
H18 H 0.1431 0.9035 0.5884
F2 F 0.40859(10) 0.6608(2) 0.09619(18)
C26 C -0.02754(14) -1.1054(3) 0.09854(19)
H19 H -0.0126 -1.1048 0.0480
C27 C -0.00564(13) 1.7409(3) 0.37972(19)
H20 H -0.0011 1.8213 0.3832
C28 C 0.12216(13) -0.1535(3) 0.1698(2)
H21 H 0.0826 -0.1548 0.1634
C29 C 0.29348(13) 0.2976(3) 0.43719(19)
H22 H 0.2996 0.2230 0.4569
O3 O 0.35823(14) 0.0479(3) 0.49013(17)
O4 O 0.43982(10) -0.0153(2) 0.41584(17)
C30 C 0.03208(13) 1.6626(3) 0.40483(19)
H23 H 0.0670 1.6775 0.4292
F3 F 0.43965(15) 0.6193(3) 0.2068(2)
O5 O 0.34708(13) 0.4362(2) 0.08930(15)
C31 C 0.26137(13) 0.3780(3) 0.4710(2)
H24 H 0.2415 0.3717 0.5181
O6 O 0.31748(11) 0.5662(2) 0.18908(16)
C32 C 0.05869(15) -0.3679(3) 0.2014(2)
H25 H 0.0448 -0.4465 0.2017
H26 H 0.0388 -0.3241 0.1619
H27 H 0.0522 -0.3330 0.2517
C33 C 0.41989(16) 0.5758(3) 0.1438(3)
C34 C 0.25608(15) 0.2406(3) 0.1762(2)
H28 H 0.2546 0.3198 0.1649
F4 F 0.36304(17) -0.1531(3) 0.3249(2)
C35 C 0.3462(2) -0.1164(4) 0.3947(3)
C36 C 0.14936(13) -0.0507(3) 0.1679(2)
H29 H 0.1290 0.0179 0.1595
F5 F 0.35657(17) -0.1961(3) 0.4468(3)
C37 C 0.12025(14) 1.3356(3) 0.3925(2)
H30 H 0.1600 1.3313 0.3882
C38 C 0.08912(13) 1.2358(3) 0.40001(19)
C39 C 0.11832(12) 1.1231(3) 0.39619(18)
C40 C 0.03142(13) 1.2437(3) 0.40726(17)
H31 H 0.0098 1.1763 0.4136
N11 N 0.09291(11) 1.0375(2) 0.42503(16)
C41 C 0.17457(15) 1.1149(3) 0.3588(3)
H32 H 0.1880 1.0360 0.3613
H33 H 0.1716 1.1386 0.3051
H34 H 0.2011 1.1649 0.3856
C42 C 0.06088(15) -0.7611(3) 0.1999(2)
H35 H 0.0745 -0.7221 0.2439
C43 C 0.07031(12) -0.7150(2) 0.12703(18)
C44 C 0.10003(12) -0.6042(3) 0.11812(19)
C45 C 0.04867(16) -0.7718(3) 0.06537(19)
H36 H 0.0546 -0.7419 0.0154
N12 N 0.12173(12) -0.5614(2) 0.17845(17)
C46 C 0.10010(16) -0.5468(3) 0.0410(2)
H37 H 0.1211 -0.4750 0.0442
H38 H 0.1179 -0.5970 0.0031
H39 H 0.0614 -0.5310 0.0253
F6 F 0.46067(10) 0.5149(3) 0.1128(2)
Mn1B Mn -0.128282(17) -1.25029(4) 0.28656(3)
Mn1B_2 Mn -0.128282(17) 1.74971(4) 0.28656(3)
N6B N 0.44834(10) 0.3139(2) 0.34823(15)
N8B N 0.42653(10) 0.1570(2) 0.20503(15)
loop_
_geom_bond_atom_site_label_1
_geom_bond_atom_site_label_2
_geom_bond_site_symmetry_1
_geom_bond_site_symmetry_2
Mn1 O1 1_555 1_555
S1 O2 1_555 1_555
S2 O1 1_555 1_555
N1 C4 1_555 1_555
N2 C1 1_555 1_555
N3 C12 1_555 1_555
O2 Mn1 1_555 1_555
C1 C8 1_555 1_555
N4 C14 1_555 1_555
N5 C2 1_555 1_555
C2 C19 1_555 1_555
N6 C3 1_555 1_555
C3 N5 1_555 1_555
H1 C3 1_555 1_555
C4 C6 1_555 1_555
C5 N2 1_555 1_555
H2 C5 1_555 1_555
C6 H3 1_555 1_555
N7 C10 1_555 1_555
C7 N1 1_555 1_555
H4 C7 1_555 1_555
C8 H5 1_555 1_555
N8 C5 1_555 1_555
C9 H6 1_555 1_555
C10 C16 1_555 1_555
N9 Mn1 1_555 1_555
N10 Mn1 1_555 1_555
C11 C4 1_555 1_555
H7 C11 1_555 1_555
C12 N10 1_555 1_555
H8 C12 1_555 1_555
C13 N3 1_555 1_555
C14 C15 1_555 1_555
C15 C20 1_555 1_555
C16 C22 1_555 1_555
C17 C1 1_555 1_555
H9 C17 1_555 1_555
C18 N8 1_555 1_555
C19 H10 1_555 1_555
C20 C6 1_555 1_555
H11 C20 1_555 1_555
C21 C2 1_555 1_555
H12 C21 1_555 1_555
C22 C9 1_555 1_555
H13 C22 1_555 1_555
F1 C35 1_555 1_555
C23 C11 1_555 1_555
H14 C23 1_555 1_555
C24 N3 1_555 1_555
H15 C24 1_555 1_555
C25 C14 1_555 1_555
H16 C25 1_555 1_555
H17 C25 1_555 1_555
H18 C25 1_555 1_555
F2 C33 1_555 1_555
C26 N2 1_555 1_555
H19 C26 1_555 1_555
C27 N6 1_555 1_555
H20 C27 1_555 1_555
C28 C16 1_555 1_555
H21 C28 1_555 1_555
C29 N9 1_555 1_555
H22 C29 1_555 1_555
O3 S1 1_555 1_555
O4 S1 1_555 1_555
C30 N5 1_555 1_555
H23 C30 1_555 1_555
F3 C33 1_555 1_555
O5 S2 1_555 1_555
C31 N1 1_555 1_555
H24 C31 1_555 1_555
O6 S2 1_555 1_555
C32 C10 1_555 1_555
H25 C32 1_555 1_555
H26 C32 1_555 1_555
H27 C32 1_555 1_555
C33 S2 1_555 1_555
C34 N10 1_555 1_555
H28 C34 1_555 1_555
F4 C35 1_555 1_555
C35 S1 1_555 1_555
C36 C13 1_555 1_555
H29 C36 1_555 1_555
F5 C35 1_555 1_555
C37 C21 1_555 1_555
H30 C37 1_555 1_555
C38 C37 1_555 1_555
C39 C38 1_555 1_555
C40 C19 1_555 1_555
H31 C40 1_555 1_555
N11 N4 1_555 1_555
C41 C39 1_555 1_555
H32 C41 1_555 1_555
H33 C41 1_555 1_555
H34 C41 1_555 1_555
C42 C8 1_555 1_555
H35 C42 1_555 1_555
C43 C42 1_555 1_555
C44 C43 1_555 1_555
C45 C17 1_555 1_555
H36 C45 1_555 1_555
N12 N7 1_555 1_555
C46 C44 1_555 1_555
H37 C46 1_555 1_555
H38 C46 1_555 1_555
H39 C46 1_555 1_555
F6 C33 1_555 1_555
Mn1B N8 1_555 1_555
Mn1B_2 N6 1_555 1_555
N6B Mn1 1_555 1_555
N8B Mn1 1_555 1_555
C7 N9 1_555 1_555
C9 C13 1_555 1_555
C15 C23 1_555 1_555
C18 C26 1_555 1_555
C24 C34 1_555 1_555
C27 C30 1_555 1_555
C28 C36 1_555 1_555
C29 C31 1_555 1_555
C38 C40 1_555 1_555
C39 N11 1_555 1_555
C43 C45 1_555 1_555
C44 N12 1_555 1_555

#END
