
#######################################################################
#
#                 Cambridge Crystallographic Data Centre
#                                CCDC 
#
#######################################################################
#
# If this CIF has been generated from an entry in the Cambridge 
# Structural Database, then it will include bibliographic, chemical, 
# crystal, experimental, refinement or atomic coordinate data resulting 
# from the CCDC's data processing and validation procedures.
#
#######################################################################

data_HONDEV
_symmetry_cell_setting           monoclinic
_symmetry_space_group_name_H-M   'P 2/c'
_symmetry_Int_Tables_number      13
_space_group_name_Hall           '-P 2yc'
loop_
_symmetry_equiv_pos_site_id
_symmetry_equiv_pos_as_xyz
1 x,y,z
2 -x,y,1/2-z
3 -x,-y,-z
4 x,-y,1/2+z
_cell_length_a                   28.1637(9)
_cell_length_b                   6.4411(2)
_cell_length_c                   24.8679(8)
_cell_angle_alpha                90
_cell_angle_beta                 115.445(2)
_cell_angle_gamma                90
_cell_volume                     4073.57
loop_
_atom_site_label
_atom_site_type_symbol
_atom_site_fract_x
_atom_site_fract_y
_atom_site_fract_z
S1 S 0.42411(3) 0.42022(14) 0.39919(3)
S2 S 1.09333(3) 0.34684(14) 0.62768(3)
Mg1 Mg 0.77774(3) -0.12110(15) 0.43822(4)
Mg2 Mg 0.75701(3) 0.37763(14) 0.48502(4)
Mg3 Mg 0.73607(3) -0.12183(15) 0.53295(4)
O1 O 0.77832(7) 0.0727(3) 0.50411(8)
H1 H 0.8080 0.1001 0.5327
O2 O 0.73521(7) -0.3162(3) 0.46690(8)
H2 H 0.7011 -0.3366 0.4420
O3 O 0.77491(8) -0.3294(3) 0.37116(8)
H3 H 0.8060 -0.3574 0.3759
H4 H 0.7594 -0.4403 0.3733
O4 O 0.85126(7) 0.7589(3) 0.49582(9)
O5 O 0.29047(8) 0.0034(3) 0.12789(9)
O6 O 0.82269(8) 0.0845(3) 0.41144(10)
H5 H 0.8516 0.0274 0.4170
H6 H 0.8286 0.1956 0.4317
O7 O 1.20915(7) 0.4133(3) 0.92163(8)
O8 O 0.83192(7) 0.4206(3) 0.48873(8)
O9 O 0.27676(7) 0.3400(3) 0.10712(8)
O10 O 0.68278(7) 0.3374(3) 0.48434(9)
O11 O 1.19486(8) 0.7513(3) 0.90220(9)
O12 O 0.66260(7) 0.0009(3) 0.47927(10)
O13 O 0.69354(8) -0.3344(3) 0.55992(9)
H7 H 0.6644 -0.2807 0.5552
H8 H 0.6879 -0.4442 0.5391
O14 O 0.74205(9) 0.0845(3) 0.60195(9)
H9 H 0.7695 0.1595 0.6157
O15 O 0.42114(8) 0.6411(4) 0.40289(10)
O16 O 0.40429(8) 0.2906(4) 0.43209(9)
O17 O 1.09685(8) 0.1245(4) 0.62387(10)
O18 O 1.12041(8) 0.4771(4) 0.60281(9)
C1 C 0.65081(10) 0.1896(5) 0.47380(12)
C2 C 0.70737(18) 0.1159(7) 0.6283(2)
H10 H 0.6981 -0.0189 0.6384
H11 H 0.6754 0.1776 0.5987
C3 C 0.59389(10) 0.2453(5) 0.45395(12)
C4 C 0.72572(19) 0.2432(9) 0.6807(2)
H12 H 0.6989 0.2529 0.6947
H13 H 0.7338 0.3795 0.6714
H14 H 0.7568 0.1824 0.7111
C5 C 0.55886(11) 0.1000(5) 0.45668(14)
H15 H 0.5704 -0.0340 0.4697
C6 C 0.50685(11) 0.1521(5) 0.44021(14)
H16 H 0.4834 0.0548 0.4425
C7 C 0.49045(10) 0.3498(5) 0.42051(12)
C8 C 0.52445(12) 0.4973(5) 0.41739(15)
H17 H 0.5127 0.6309 0.4042
C9 C 0.57652(12) 0.4436(5) 0.43421(15)
H18 H 0.5999 0.5417 0.4322
C10 C 0.39055(10) 0.3473(5) 0.32322(12)
C11 C 0.37327(12) 0.1469(5) 0.30861(13)
H19 H 0.3808 0.0469 0.3381
C12 C 0.34461(12) 0.0965(5) 0.24954(13)
H20 H 0.3332 -0.0393 0.2390
C13 C 0.33274(11) 0.2453(5) 0.20583(12)
C14 C 0.35169(13) 0.4422(5) 0.22103(14)
H21 H 0.3446 0.5414 0.1914
C15 C 0.38142(13) 0.4961(6) 0.28027(14)
H22 H 0.3948 0.6296 0.2906
C16 C 0.29754(10) 0.1910(5) 0.14194(12)
C17 C 0.86343(10) 0.5712(5) 0.50497(11)
C18 C 0.92144(10) 0.5186(5) 0.53769(12)
C19 C 0.95920(11) 0.6655(5) 0.54453(13)
H23 H 0.9490 0.7995 0.5303
C20 C 1.01197(11) 0.6159(5) 0.57234(14)
H24 H 1.0374 0.7145 0.5764
C21 C 1.02627(10) 0.4160(5) 0.59406(12)
C22 C 0.98903(12) 0.2683(6) 0.58857(16)
H25 H 0.9990 0.1355 0.6040
C23 C 0.93647(12) 0.3217(6) 0.55960(15)
H26 H 0.9109 0.2228 0.5549
C24 C 1.11678(11) 0.4153(5) 0.70337(12)
C25 C 1.13858(13) 0.6097(5) 0.72103(14)
H27 H 1.1389 0.7055 0.6932
C26 C 1.15995(13) 0.6593(5) 0.78086(13)
H28 H 1.1741 0.7906 0.7934
C27 C 1.16042(11) 0.5149(5) 0.82236(12)
C28 C 1.13770(13) 0.3229(6) 0.80375(14)
H29 H 1.1375 0.2268 0.8316
C29 C 1.11509(13) 0.2723(6) 0.74371(14)
H30 H 1.0991 0.1440 0.7309
C30 C 1.18972(10) 0.5655(5) 0.88740(12)
Mg1_2 Mg 0.77774(3) 0.87890(15) 0.43822(4)
Mg1A Mg 0.22226(3) -0.12110(15) 0.06178(4)
Mg2_2 Mg 0.75701(3) -0.62237(14) 0.48502(4)
Mg2A Mg 0.24299(3) 0.37763(14) 0.01498(4)
Mg2A_2 Mg 1.24299(3) 0.37763(14) 1.01498(4)
Mg3A Mg 1.26393(3) 0.87817(15) 0.96705(4)
O2_2 O 0.73521(7) 0.6838(3) 0.46690(8)
O4_2 O 0.85126(7) -0.2411(3) 0.49582(9)
O5A O 0.70953(8) 0.0034(3) 0.37211(9)
O7A O 0.79085(7) 0.4133(3) 0.57837(8)
O9A O 0.72324(7) 0.3400(3) 0.39288(8)
O11A O 0.80514(8) -0.2487(3) 0.59780(9)
O19 O 0.9031(4) -0.0742(12) 0.6304(5)
H31 H 0.8796 -0.0795 0.6433
H32 H 0.9304 -0.1334 0.6561
O20 O 0.6120(5) -0.1831(16) 0.3613(5)
H33 H 0.6119 -0.1815 0.3955
H34 H 0.5836 -0.1273 0.3367
O21 O 1.0000 0.790(4) 0.7500
H35 H 1.0155 0.7092 0.7358
H35A H 0.9845 0.7092 0.7642
O22 O 0.5041(11) 0.008(3) 0.2774(6)
H36 H 0.4802 -0.0774 0.2750
H37 H 0.4964 0.1257 0.2868
O22A O 0.4959(11) 0.008(3) 0.2226(6)
H36A H 0.5198 -0.0774 0.2250
H37A H 0.5036 0.1257 0.2132
loop_
_geom_bond_atom_site_label_1
_geom_bond_atom_site_label_2
_geom_bond_site_symmetry_1
_geom_bond_site_symmetry_2
S1 O15 1_555 1_555
S2 O17 1_555 1_555
Mg1 O1 1_555 1_555
Mg2 O1 1_555 1_555
Mg3 O1 1_555 1_555
O1 H1 1_555 1_555
O2 Mg1 1_555 1_555
H2 O2 1_555 1_555
O3 Mg1 1_555 1_555
H3 O3 1_555 1_555
H4 O3 1_555 1_555
O4 C17 1_555 1_555
O5 C16 1_555 1_555
O6 Mg1 1_555 1_555
H5 O6 1_555 1_555
H6 O6 1_555 1_555
O7 C30 1_555 1_555
O8 Mg2 1_555 1_555
O9 C16 1_555 1_555
O10 Mg2 1_555 1_555
O11 C30 1_555 1_555
O12 Mg3 1_555 1_555
O13 Mg3 1_555 1_555
H7 O13 1_555 1_555
H8 O13 1_555 1_555
O14 Mg3 1_555 1_555
H9 O14 1_555 1_555
O16 S1 1_555 1_555
O18 S2 1_555 1_555
C1 O10 1_555 1_555
C2 O14 1_555 1_555
H10 C2 1_555 1_555
H11 C2 1_555 1_555
C3 C1 1_555 1_555
C4 C2 1_555 1_555
H12 C4 1_555 1_555
H13 C4 1_555 1_555
H14 C4 1_555 1_555
C5 C3 1_555 1_555
H15 C5 1_555 1_555
C6 C5 1_555 1_555
H16 C6 1_555 1_555
C7 S1 1_555 1_555
C8 C7 1_555 1_555
H17 C8 1_555 1_555
C9 C3 1_555 1_555
H18 C9 1_555 1_555
C10 S1 1_555 1_555
C11 C10 1_555 1_555
H19 C11 1_555 1_555
C12 C11 1_555 1_555
H20 C12 1_555 1_555
C13 C12 1_555 1_555
C14 C13 1_555 1_555
H21 C14 1_555 1_555
C15 C10 1_555 1_555
H22 C15 1_555 1_555
C16 C13 1_555 1_555
C17 O8 1_555 1_555
C18 C17 1_555 1_555
C19 C18 1_555 1_555
H23 C19 1_555 1_555
C20 C19 1_555 1_555
H24 C20 1_555 1_555
C21 S2 1_555 1_555
C22 C21 1_555 1_555
H25 C22 1_555 1_555
C23 C18 1_555 1_555
H26 C23 1_555 1_555
C24 S2 1_555 1_555
C25 C24 1_555 1_555
H27 C25 1_555 1_555
C26 C25 1_555 1_555
H28 C26 1_555 1_555
C27 C26 1_555 1_555
C28 C27 1_555 1_555
H29 C28 1_555 1_555
C29 C24 1_555 1_555
H30 C29 1_555 1_555
C30 C27 1_555 1_555
O19 H31 1_555 1_555
H32 O19 1_555 1_555
O20 H33 1_555 1_555
H34 O20 1_555 1_555
O21 H35 1_555 1_555
O22 H36 1_555 1_555
H37 O22 1_555 1_555
Mg1_2 O4 1_555 1_555
Mg1A O5 1_555 1_555
Mg2_2 O2 1_555 1_555
Mg2A O9 1_555 1_555
Mg2A_2 O7 1_555 1_555
Mg3A O11 1_555 1_555
O2_2 Mg2 1_555 1_555
O4_2 Mg1 1_555 1_555
O5A Mg1 1_555 1_555
O7A Mg2 1_555 1_555
O9A Mg2 1_555 1_555
O11A Mg3 1_555 1_555
H35A O21 1_555 1_555
O22A H36A 1_555 1_555
H37A O22A 1_555 1_555
Mg3 O2 1_555 1_555
O12 C1 1_555 1_555
C6 C7 1_555 1_555
C8 C9 1_555 1_555
C14 C15 1_555 1_555
C20 C21 1_555 1_555
C22 C23 1_555 1_555
C28 C29 1_555 1_555
Mg1_2 O2_2 1_555 1_555

#END
