
#######################################################################
#
#                 Cambridge Crystallographic Data Centre
#                                CCDC 
#
#######################################################################
#
# If this CIF has been generated from an entry in the Cambridge 
# Structural Database, then it will include bibliographic, chemical, 
# crystal, experimental, refinement or atomic coordinate data resulting 
# from the CCDC's data processing and validation procedures.
#
#######################################################################

data_HONGUO
_symmetry_cell_setting           monoclinic
_symmetry_space_group_name_H-M   'P 21/c'
_symmetry_Int_Tables_number      14
_space_group_name_Hall           '-P 2ybc'
loop_
_symmetry_equiv_pos_site_id
_symmetry_equiv_pos_as_xyz
1 x,y,z
2 -x,1/2+y,1/2-z
3 -x,-y,-z
4 x,1/2-y,1/2+z
_cell_length_a                   8.8893(18)
_cell_length_b                   11.968(2)
_cell_length_c                   9.2194(18)
_cell_angle_alpha                90
_cell_angle_beta                 93.72(3)
_cell_angle_gamma                90
_cell_volume                     978.759
loop_
_atom_site_label
_atom_site_type_symbol
_atom_site_fract_x
_atom_site_fract_y
_atom_site_fract_z
C1 C 0.2695(3) 0.1600(2) 0.8672(3)
C2 C 0.1262(4) 0.1685(3) 0.9176(4)
C3 C 0.0159(4) 0.0970(4) 0.8608(4)
C4 C 0.0498(4) 0.0197(3) 0.7569(4)
C5 C 0.1944(3) 0.0177(2) 0.7096(3)
C6 C 0.2419(3) -0.0597(3) 0.5921(3)
C7 C 0.4026(3) 0.2291(2) 0.9228(3)
Cl1 Cl 0.66000(9) -0.03653(7) 0.80085(9)
H1 H 0.106(4) 0.222(3) 0.987(4)
H2 H -0.075(4) 0.106(3) 0.888(4)
H3 H -0.020(4) -0.028(3) 0.720(4)
In1 In 0.52536(2) 0.103116(16) 0.66231(2)
N1 N 0.3011(3) 0.08689(18) 0.7644(2)
O1 O 0.1552(3) -0.1358(3) 0.5523(4)
O2 O 0.5226(2) 0.21848(17) 0.8613(2)
O3 O 0.3695(2) -0.03904(15) 0.5425(2)
O4 O 0.3802(2) 0.29102(16) 1.0299(2)
O5 O 0.7070(3) 0.2294(2) 0.6506(3)
H4 H 0.758(7) 0.247(6) 0.722(5)
H5 H 0.752(6) 0.215(4) 0.591(5)
In1B In 0.47464(2) -0.103116(16) 0.33769(2)
In1C In 0.52536(2) 0.396884(16) 1.16231(2)
O3B O 0.6305(2) 0.03904(15) 0.4575(2)
O4C O 0.3802(2) 0.20898(16) 0.5299(2)
loop_
_geom_bond_atom_site_label_1
_geom_bond_atom_site_label_2
_geom_bond_site_symmetry_1
_geom_bond_site_symmetry_2
C1 C2 1_555 1_555
C2 C3 1_555 1_555
C3 C4 1_555 1_555
C4 C5 1_555 1_555
C5 C6 1_555 1_555
C6 O1 1_555 1_555
C7 C1 1_555 1_555
Cl1 In1 1_555 1_555
H1 C2 1_555 1_555
H2 C3 1_555 1_555
H3 C4 1_555 1_555
In1 N1 1_555 1_555
N1 C1 1_555 1_555
O2 C7 1_555 1_555
O3 C6 1_555 1_555
O4 C7 1_555 1_555
O5 In1 1_555 1_555
H4 O5 1_555 1_555
H5 O5 1_555 1_555
In1B O3 1_555 1_555
In1C O4 1_555 1_555
O3B In1 1_555 1_555
O4C In1 1_555 1_555
C5 N1 1_555 1_555
In1 O2 1_555 1_555
In1 O3 1_555 1_555
In1B O3B 1_555 1_555

#END
