
#######################################################################
#
#                 Cambridge Crystallographic Data Centre
#                                CCDC 
#
#######################################################################
#
# If this CIF has been generated from an entry in the Cambridge 
# Structural Database, then it will include bibliographic, chemical, 
# crystal, experimental, refinement or atomic coordinate data resulting 
# from the CCDC's data processing and validation procedures.
#
#######################################################################

data_HONRUY
_symmetry_cell_setting           triclinic
_symmetry_space_group_name_H-M   'P -1'
_symmetry_Int_Tables_number      2
_space_group_name_Hall           '-P 1'
loop_
_symmetry_equiv_pos_site_id
_symmetry_equiv_pos_as_xyz
1 x,y,z
2 -x,-y,-z
_cell_length_a                   8.6728(17)
_cell_length_b                   8.7479(17)
_cell_length_c                   13.418(3)
_cell_angle_alpha                91.98(3)
_cell_angle_beta                 93.34(3)
_cell_angle_gamma                98.97(3)
_cell_volume                     1002.87
loop_
_atom_site_label
_atom_site_type_symbol
_atom_site_fract_x
_atom_site_fract_y
_atom_site_fract_z
C1 C 0.5970(4) 0.8461(4) 1.0517(2)
H1 H 0.6521 0.8657 0.9948
C2 C 0.5772(4) 0.9531(4) 1.1218(2)
H2 H 0.6158 1.0586 1.1230
C3 C 0.4614(4) 0.7273(4) 1.1622(3)
H3 H 0.4055 0.6502 1.1977
C4 C 0.4369(4) 0.9420(4) 1.2830(2)
H4 H 0.3531 0.8687 1.3073
H5 H 0.3956 1.0363 1.2685
C5 C 0.5691(4) 0.9779(4) 1.3639(2)
C6 C 0.6391(5) 0.8563(5) 1.3995(3)
H6 H 0.6058 0.7565 1.3724
C7 C 0.7578(5) 0.8814(7) 1.4745(3)
H7 H 0.8042 0.7992 1.4974
C8 C 0.8048(5) 1.0237(7) 1.5134(3)
H8 H 0.8845 1.0406 1.5638
C9 C 0.7378(5) 1.1463(6) 1.4805(3)
H9 H 0.7729 1.2448 1.5091
C10 C 0.6186(4) 1.1263(4) 1.4052(2)
N1 N 0.5234(3) 0.7030(3) 1.07657(19)
N2 N 0.4895(3) 0.8770(3) 1.1908(2)
O5 O 0.2329(3) 0.4383(3) 1.0542(2)
Cu1 Cu 0.5000 0.5000 1.0000
N3 N 0.5969(3) 1.3173(3) 1.2749(2)
C15 C 0.5479(5) 1.2643(4) 1.3734(2)
H16 H 0.4348 1.2379 1.3704
H17 H 0.5783 1.3484 1.4231
C16 C 0.5020(4) 1.3517(4) 1.1996(2)
H18 H 0.3937 1.3408 1.2007
C17 C 0.7469(5) 1.3478(5) 1.2456(3)
H19 H 0.8380 1.3354 1.2824
N4 N 0.5818(3) 1.4030(3) 1.12394(19)
C18 C 0.7352(4) 1.3998(4) 1.1522(3)
H20 H 0.8190 1.4291 1.1130
H21 H 0.183(4) 0.506(3) 1.077(3)
H22 H 0.182(4) 0.350(2) 1.060(3)
C1_2 C 0.5970(4) -0.1539(4) 1.0517(2)
H1_2 H 0.6521 -0.1343 0.9948
C2_2 C 0.5772(4) -0.0469(4) 1.1218(2)
H2_2 H 0.6158 0.0586 1.1230
C3_2 C 0.4614(4) -0.2727(4) 1.1622(3)
H3_2 H 0.4055 -0.3498 1.1977
C4_2 C 0.4369(4) -0.0580(4) 1.2830(2)
H4_2 H 0.3531 -0.1313 1.3073
H5_2 H 0.3956 0.0363 1.2685
C5_2 C 0.5691(4) -0.0221(4) 1.3639(2)
C6_2 C 0.6391(5) -0.1437(5) 1.3995(3)
H6_2 H 0.6058 -0.2435 1.3724
C7_2 C 0.7578(5) -0.1186(7) 1.4745(3)
H7_2 H 0.8042 -0.2008 1.4974
C8_2 C 0.8048(5) 0.0237(7) 1.5134(3)
H8_2 H 0.8845 0.0406 1.5638
C9_2 C 0.7378(5) 0.1463(6) 1.4805(3)
H9_2 H 0.7729 0.2448 1.5091
C10_2 C 0.6186(4) 0.1263(4) 1.4052(2)
N1_2 N 0.5234(3) -0.2970(3) 1.07657(19)
N1A N 0.4766(3) 0.2970(3) 0.92343(19)
N2_2 N 0.4895(3) -0.1230(3) 1.1908(2)
O5A O 0.7671(3) 0.5617(3) 0.9458(2)
Cu1_2 Cu 0.5000 1.5000 1.0000
Cu1_3 Cu 0.5000 -0.5000 1.0000
N3_2 N 0.5969(3) 0.3173(3) 1.2749(2)
C15_2 C 0.5479(5) 0.2643(4) 1.3734(2)
H16_2 H 0.4348 0.2379 1.3704
H17_2 H 0.5783 0.3484 1.4231
C16_2 C 0.5020(4) 0.3517(4) 1.1996(2)
H18_2 H 0.3937 0.3408 1.2007
C17_2 C 0.7469(5) 0.3478(5) 1.2456(3)
H19_2 H 0.8380 0.3354 1.2824
N4_2 N 0.5818(3) 0.4030(3) 1.12394(19)
N4A N 0.4182(3) 0.5970(3) 0.87606(19)
C18_2 C 0.7352(4) 0.3998(4) 1.1522(3)
H20_2 H 0.8190 0.4291 1.1130
H21A H 0.817(4) 0.494(3) 0.923(3)
H22A H 0.818(4) 0.650(2) 0.940(3)
C11 C 0.0433(5) 0.7642(4) 1.1357(3)
C12 C -0.0527(4) 0.8389(4) 1.2058(3)
H10 H -0.1336 0.7737 1.2325
C13 C -0.0364(4) 0.9862(4) 1.2342(3)
H11 H -0.1063 1.0126 1.2794
C14 C 0.0797(4) 1.1152(4) 1.2030(3)
O1 O 0.0699(4) 0.8198(3) 1.0516(2)
O2 O 0.0913(4) 0.6468(3) 1.1635(2)
O3 O 0.1076(3) 1.1268(3) 1.11159(19)
O4 O 0.1484(3) 1.2061(3) 1.26856(19)
Cu2 Cu 0.0000 1.0000 1.0000
C11A C -0.0433(5) 1.2358(4) 0.8643(3)
C12A C 0.0527(4) 1.1611(4) 0.7942(3)
H10A H 0.1336 1.2263 0.7675
C13A C 0.0364(4) 1.0138(4) 0.7658(3)
H11A H 0.1063 0.9874 0.7206
C14A C -0.0797(4) 0.8848(4) 0.7970(3)
O1A O -0.0699(4) 1.1802(3) 0.9484(2)
O2A O -0.0913(4) 1.3532(3) 0.8365(2)
O3A O -0.1076(3) 0.8732(3) 0.88841(19)
O4A O -0.1484(3) 0.7939(3) 0.73144(19)
O6 O 0.1704(7) 0.5158(5) 1.3415(3)
H12 H 0.113(8) 0.559(7) 1.301(5)
H13 H 0.166(9) 0.422(3) 1.324(5)
O7 O 0.8891(18) 0.5375(11) 1.4586(7)
H14 H 0.86(2) 0.536(19) 1.518(7)
H15 H 0.92(3) 0.449(11) 1.443(12)
loop_
_geom_bond_atom_site_label_1
_geom_bond_atom_site_label_2
_geom_bond_site_symmetry_1
_geom_bond_site_symmetry_2
C1 H1 1_555 1_555
C2 C1 1_555 1_555
H2 C2 1_555 1_555
C3 H3 1_555 1_555
C4 H4 1_555 1_555
H5 C4 1_555 1_555
C5 C4 1_555 1_555
C6 C5 1_555 1_555
H6 C6 1_555 1_555
C7 C6 1_555 1_555
H7 C7 1_555 1_555
C8 C7 1_555 1_555
H8 C8 1_555 1_555
C9 C8 1_555 1_555
H9 C9 1_555 1_555
C10 C5 1_555 1_555
C11 C12 1_555 1_555
C12 H10 1_555 1_555
C13 C12 1_555 1_555
H11 C13 1_555 1_555
C14 C13 1_555 1_555
N1 C1 1_555 1_555
N2 C2 1_555 1_555
O1 C11 1_555 1_555
O2 C11 1_555 1_555
O3 C14 1_555 1_555
O4 C14 1_555 1_555
O5 Cu1 1_555 1_555
O6 H12 1_555 1_555
H13 O6 1_555 1_555
O7 H14 1_555 1_555
H15 O7 1_555 1_555
Cu1 N1 1_555 1_555
Cu2 O1 1_555 1_555
N3 C15 1_555 1_555
C15 C10 1_555 1_555
H16 C15 1_555 1_555
H17 C15 1_555 1_555
C16 N3 1_555 1_555
H18 C16 1_555 1_555
C17 N3 1_555 1_555
H19 C17 1_555 1_555
N4 C16 1_555 1_555
C18 C17 1_555 1_555
H20 C18 1_555 1_555
H21 O5 1_555 1_555
H22 O5 1_555 1_555
C1_2 H1_2 1_555 1_555
C2_2 C1_2 1_555 1_555
H2_2 C2_2 1_555 1_555
C3_2 H3_2 1_555 1_555
C4_2 H4_2 1_555 1_555
H5_2 C4_2 1_555 1_555
C5_2 C4_2 1_555 1_555
C6_2 C5_2 1_555 1_555
H6_2 C6_2 1_555 1_555
C7_2 C6_2 1_555 1_555
H7_2 C7_2 1_555 1_555
C8_2 C7_2 1_555 1_555
H8_2 C8_2 1_555 1_555
C9_2 C8_2 1_555 1_555
H9_2 C9_2 1_555 1_555
C10_2 C5_2 1_555 1_555
C11A C12A 1_555 1_555
C12A H10A 1_555 1_555
C13A C12A 1_555 1_555
H11A C13A 1_555 1_555
C14A C13A 1_555 1_555
N1_2 C1_2 1_555 1_555
N1A Cu1 1_555 1_555
N2_2 C2_2 1_555 1_555
O1A Cu2 1_555 1_555
O2A C11A 1_555 1_555
O3A Cu2 1_555 1_555
O4A C14A 1_555 1_555
O5A Cu1 1_555 1_555
Cu1_2 N4 1_555 1_555
Cu1_3 N1_2 1_555 1_555
N3_2 C15_2 1_555 1_555
C15_2 C10_2 1_555 1_555
H16_2 C15_2 1_555 1_555
H17_2 C15_2 1_555 1_555
C16_2 N3_2 1_555 1_555
H18_2 C16_2 1_555 1_555
C17_2 N3_2 1_555 1_555
H19_2 C17_2 1_555 1_555
N4_2 Cu1 1_555 1_555
N4A Cu1 1_555 1_555
C18_2 C17_2 1_555 1_555
H20_2 C18_2 1_555 1_555
H21A O5A 1_555 1_555
H22A O5A 1_555 1_555
C3 N1 1_555 1_555
C3 N2 1_555 1_555
C4 N2 1_555 1_555
C9 C10 1_555 1_555
O3 Cu2 1_555 1_555
N4 C18 1_555 1_555
C3_2 N1_2 1_555 1_555
C3_2 N2_2 1_555 1_555
C4_2 N2_2 1_555 1_555
C9_2 C10_2 1_555 1_555
C11A O1A 1_555 1_555
C14A O3A 1_555 1_555
C16_2 N4_2 1_555 1_555
N4_2 C18_2 1_555 1_555

#END
