
#######################################################################
#
#                 Cambridge Crystallographic Data Centre
#                                CCDC 
#
#######################################################################
#
# If this CIF has been generated from an entry in the Cambridge 
# Structural Database, then it will include bibliographic, chemical, 
# crystal, experimental, refinement or atomic coordinate data resulting 
# from the CCDC's data processing and validation procedures.
#
#######################################################################

data_HONXEP
_symmetry_cell_setting           triclinic
_symmetry_space_group_name_H-M   'P -1'
_symmetry_Int_Tables_number      2
_space_group_name_Hall           '-P 1'
loop_
_symmetry_equiv_pos_site_id
_symmetry_equiv_pos_as_xyz
1 x,y,z
2 -x,-y,-z
_cell_length_a                   13.284(2)
_cell_length_b                   16.042(2)
_cell_length_c                   20.257(3)
_cell_angle_alpha                103.398(2)
_cell_angle_beta                 90.050(2)
_cell_angle_gamma                93.631(3)
_cell_volume                     4190.35
loop_
_atom_site_label
_atom_site_type_symbol
_atom_site_fract_x
_atom_site_fract_y
_atom_site_fract_z
Cu1 Cu 0.71272(5) 0.85099(4) 0.43977(3)
Cu2 Cu 0.71507(5) 0.65301(4) 0.56382(3)
Cu3 Cu 0.70572(5) 0.84763(5) 0.94021(3)
Cu4 Cu 0.68510(6) 0.65142(5) 1.06416(3)
O1 O 0.7051(3) 0.8515(3) 0.34040(18)
O2 O 0.6877(4) 0.9859(3) 0.3948(2)
O3 O 0.7273(4) 0.7956(3) 0.0855(2)
O4 O 0.7029(3) 0.9042(3) 0.0369(2)
O5 O 0.7428(3) 0.7971(3) 0.5903(2)
O6 O 0.7091(3) 0.9017(3) 0.53816(19)
O7 O 0.6949(3) 0.8509(3) 0.84170(19)
O8 O 0.7017(5) 0.9870(3) 0.8971(2)
O9 O 0.7022(3) 0.6507(2) 0.66164(19)
O10 O 0.7026(4) 0.5151(3) 0.6058(2)
O11 O 0.7201(3) 0.7066(3) 0.9161(2)
O12 O 0.6810(3) 0.5985(3) 0.96627(19)
O13 O 0.6754(3) 0.6538(3) 1.1640(2)
O14 O 0.6335(4) 0.5196(3) 1.1099(2)
O15 O 0.7296(3) 0.7096(3) 1.4183(2)
O16 O 0.7127(3) 0.5978(3) 1.4666(2)
C1 C 0.6633(5) 0.9515(4) 0.2761(3)
C2 C 0.6865(4) 0.8984(4) 0.2137(3)
H1 H 0.7128 0.8443 0.2123
C3 C 0.6714 0.9242 0.1543
C4 C 0.6297 1.0021 0.1563
H2 H 0.6204 1.0203 0.1155
C5 C 0.6012 1.0539 0.2180
H3 H 0.5692 1.1054 0.2190
C6 C 0.6198 1.0296 0.2770
H4 H 0.6033 1.0658 0.3192
C7 C 0.6852 0.9285 0.3416
C8 C 0.7014 0.8680 0.0868
C9 C 0.6871 0.9279 0.6567
C10 C 0.6987 0.9019 0.7175
H5 H 0.7217 0.8469 0.7170
C11 C 0.6768 0.9561 0.7773
C12 C 0.6430 1.0365 0.7798
H6 H 0.6302 1.0737 0.8224
C13 C 0.6275 1.0633 0.7186
H7 H 0.6017 1.1175 0.7195
C14 C 0.6508 1.0085 0.6571
H8 H 0.6422 1.0256 0.6157
C15 C 0.7149 0.8689 0.5895
C16 C 0.6915 0.9307 0.8436
C17 C 0.6735 0.5418 0.7243
C18 C 0.6872 0.6000 0.7876
H9 H 0.7063 0.6588 0.7902
C19 C 0.6720 0.5697 0.8471
C20 C 0.6402 0.4866 0.8431
H10 H 0.6282 0.4676 0.8836
C21 C 0.6243 0.4272 0.7789
H11 H 0.6019 0.3691 0.7763
C22 C 0.6426 0.4566 0.7200
H12 H 0.6337 0.4180 0.6768
C23 C 0.6946 0.5699 0.6588
C24 C 0.6917 0.6314 0.9152
C25 C 0.6379 0.5490 1.2297
C26 C 0.6723 0.6049 1.2910
H13 H 0.6983 0.6617 1.2918
C27 C 0.6673 0.5746 1.3509
C28 C 0.6270 0.4935 1.3501
H14 H 0.6239 0.4744 1.3911
C29 C 0.5903 0.4383 1.2892
H15 H 0.5619 0.3823 1.2887
C30 C 0.5968 0.4683 1.2284
H16 H 0.5725 0.4320 1.1868
C31 C 0.6497 0.5764 1.1623
C32 C 0.7056 0.6337 1.4163
N1 N 0.5598 0.8340 0.4382
N2 N -0.1381 0.8661 0.4433
N3 N 0.5645 0.6658 0.5615
N4 N -0.1362 0.6528 0.5721
N5 N 0.5533 0.8322 0.9390
N6 N -0.1453 0.8573 0.9372
N7 N 0.5346 0.6684 1.0621
N8 N -0.1667 0.6379 1.0650
C33 C 0.5114 0.7788 0.3860
H17 H 0.5494 0.7421 0.3530
C34 C 0.4082 0.7743 0.3795
H18 H 0.3757 0.7353 0.3419
C35 C 0.3504 0.8270 0.4283
C36 C 0.4016 0.8815 0.4824
H19 H 0.3660 0.9179 0.5170
C37 C 0.5050 0.8821 0.4852
H20 H 0.5394 0.9190 0.5231
C38 C 0.2376 0.8236 0.4176
H21 H 0.2080 0.7673 0.4227
H22 H 0.2232 0.8281 0.3706
C39 C 0.1866 0.8952 0.4673
H23 H 0.2048 0.8937 0.5144
H24 H 0.2117 0.9516 0.4598
C40 C -0.0807 0.9174 0.4106
H25 H -0.1140 0.9470 0.3822
C41 C 0.0234 0.9286 0.4166
H26 H 0.0602 0.9647 0.3927
C42 C 0.0741 0.8857 0.4588
C43 C 0.0153 0.8364 0.4924
H27 H 0.0461 0.8076 0.5224
C44 C -0.0876 0.8281 0.4833
H28 H -0.1252 0.7926 0.5074
C45 C 0.5031 0.6203 0.5117
H29 H 0.5309 0.5783 0.4767
C46 C 0.4010 0.6319 0.5092
H30 H 0.3601 0.5991 0.4727
C47 C 0.3587 0.6920 0.5605
C48 C 0.4237 0.7389 0.6126
H31 H 0.3987 0.7811 0.6487
C49 C 0.5238 0.7228 0.6104
H32 H 0.5667 0.7544 0.6463
C50 C 0.2485 0.7055 0.5594
H33 H 0.2231 0.6911 0.5119
H34 H 0.2375 0.7666 0.5793
C51 C 0.1907 0.6492 0.5997
H35 H 0.2088 0.6696 0.6485
H36 H 0.2102 0.5893 0.5846
C52 C -0.0774 0.6119 0.5228
H37 H -0.1086 0.5836 0.4806
C53 C 0.0281 0.6084 0.5297
H38 H 0.0656 0.5768 0.4935
C54 C 0.0767 0.6516 0.5902
C55 C 0.0191 0.6988 0.6411
H39 H 0.0498 0.7315 0.6821
C56 C -0.0868 0.6969 0.6303
H40 H -0.1259 0.7283 0.6657
C57 C 0.5058 0.7739 0.8881
H41 H 0.5446 0.7387 0.8547
C58 C 0.4011 0.7642 0.8833
H42 H 0.3690 0.7230 0.8468
C59 C 0.3436 0.8150 0.9322
C60 C 0.3931 0.8741 0.9828
H43 H 0.3563 0.9110 1.0164
C61 C 0.4964 0.8797 0.9850
H44 H 0.5294 0.9201 1.0216
C62 C 0.2299 0.8082 0.9292
H45 H 0.2080 0.7592 0.8914
H46 H 0.2053 0.7943 0.9717
C63 C 0.1813 0.8819 0.9203
H47 H 0.1980 0.8919 0.8750
H48 H 0.2081 0.9328 0.9548
C64 C -0.0962 0.8365 0.8811
H49 H -0.1362 0.8143 0.8413
C65 C 0.0064 0.8422 0.8718
H50 H 0.0334 0.8245 0.8277
C66 C 0.0684 0.8733 0.9261
C67 C 0.0218 0.8857 0.9904
H51 H 0.0581 0.8908 1.0317
C68 C -0.0874 0.8898 0.9869
H52 H -0.1183 0.9206 1.0266
C69 C 0.4747 0.6207 1.0138
H53 H 0.5041 0.5821 0.9773
C70 C 0.3728 0.6246 1.0143
H54 H 0.3321 0.5905 0.9782
C71 C 0.3282 0.6802 1.0695
C72 C 0.3918 0.7313 1.1176
H55 H 0.3649 0.7711 1.1545
C73 C 0.4933 0.7254 1.1127
H56 H 0.5363 0.7624 1.1459
C74 C 0.2147 0.6838 1.0754
H57 H 0.1985 0.7013 1.1242
H58 H 0.1937 0.7294 1.0538
C75 C 0.1544 0.6053 1.0459
H59 H 0.1744 0.5590 1.0672
H60 H 0.1685 0.5877 0.9968
C76 C -0.1089 0.6717 1.0229
H61 H -0.1402 0.7042 0.9960
C77 C -0.0059 0.6626 1.0156
H62 H 0.0311 0.6878 0.9843
C78 C 0.0424 0.6155 1.0552
C79 C -0.0141 0.5826 1.0990
H63 H 0.0162 0.5514 1.1274
C80 C -0.1207 0.5943 1.1030
H64 H -0.1594 0.5699 1.1340
Cu1_2 Cu -0.28728(5) 0.85099(4) 0.43977(3)
Cu1_3 Cu 0.71272(5) 0.85099(4) 1.43977(3)
Cu2_2 Cu -0.28493(5) 0.65301(4) 0.56382(3)
Cu2_3 Cu 0.71507(5) 0.65301(4) 1.56382(3)
Cu3_2 Cu -0.29428(5) 0.84763(5) 0.94021(3)
Cu3_3 Cu 0.70572(5) 0.84763(5) -0.05979(3)
Cu4_2 Cu -0.31490(6) 0.65142(5) 1.06416(3)
Cu4_3 Cu 0.68510(6) 0.65142(5) 0.06416(3)
O3_2 O 0.7273(4) 0.7956(3) 1.0855(2)
O4_2 O 0.7029(3) 0.9042(3) 1.0369(2)
O15_2 O 0.7296(3) 0.7096(3) 0.4183(2)
O16_2 O 0.7127(3) 0.5978(3) 0.4666(2)
N2_2 N 0.8619 0.8661 0.4433
N4_2 N 0.8638 0.6528 0.5721
N6_2 N 0.8547 0.8573 0.9372
N8_2 N 0.8333 0.6379 1.0650
N9 N 1.0712 0.6267 0.8573
N10 N 1.0169 0.2078 0.7636
C81 C 0.9758 0.6146 0.8336
H65 H 0.9250 0.6437 0.8610
C82 C 0.9471 0.5606 0.7700
H66 H 0.8781 0.5505 0.7565
C83 C 1.0202 0.5235 0.7285
C84 C 1.1199 0.5371 0.7498
H67 H 1.1724 0.5128 0.7213
C85 C 1.1411 0.5887 0.8160
H68 H 1.2092 0.5966 0.8318
C86 C 0.9931 0.4706 0.6573
H69 H 0.9637 0.5081 0.6308
H70 H 1.0554 0.4492 0.6345
C87 C 0.9208 0.3970 0.6573
H71 H 0.9038 0.3673 0.6097
H72 H 0.8579 0.4188 0.6790
C88 C 0.9166 0.2260 0.7699
H73 H 0.8692 0.1984 0.7942
C89 C 0.8898 0.2974 0.7325
H74 H 0.8242 0.3183 0.7355
C90 C 0.9618 0.3284 0.6960
C91 C 1.0517 0.3076 0.6879
H75 H 1.0968 0.3302 0.6591
C92 C 1.0794 0.2498 0.7241
H76 H 1.1483 0.2370 0.7222
loop_
_geom_bond_atom_site_label_1
_geom_bond_atom_site_label_2
_geom_bond_site_symmetry_1
_geom_bond_site_symmetry_2
Cu1 O1 1_555 1_555
Cu2 O5 1_555 1_555
Cu3 O7 1_555 1_555
Cu4 O12 1_555 1_555
O1 C7 1_555 1_555
O2 Cu1 1_555 1_555
O3 C8 1_555 1_555
O4 C8 1_555 1_555
O5 C15 1_555 1_555
O6 Cu1 1_555 1_555
O7 C16 1_555 1_555
O8 Cu3 1_555 1_555
O9 Cu2 1_555 1_555
O10 Cu2 1_555 1_555
O11 Cu3 1_555 1_555
O12 C24 1_555 1_555
O13 Cu4 1_555 1_555
O14 Cu4 1_555 1_555
O15 C32 1_555 1_555
O16 C32 1_555 1_555
C1 C2 1_555 1_555
C2 H1 1_555 1_555
C3 C2 1_555 1_555
C4 C3 1_555 1_555
H2 C4 1_555 1_555
C5 C4 1_555 1_555
H3 C5 1_555 1_555
C6 C1 1_555 1_555
H4 C6 1_555 1_555
C7 O2 1_555 1_555
C8 C3 1_555 1_555
C9 C10 1_555 1_555
C10 H5 1_555 1_555
C11 C10 1_555 1_555
C12 C11 1_555 1_555
H6 C12 1_555 1_555
C13 C12 1_555 1_555
H7 C13 1_555 1_555
C14 C9 1_555 1_555
H8 C14 1_555 1_555
C15 O6 1_555 1_555
C16 O8 1_555 1_555
C17 C18 1_555 1_555
C18 H9 1_555 1_555
C19 C18 1_555 1_555
C20 C19 1_555 1_555
H10 C20 1_555 1_555
C21 C20 1_555 1_555
H11 C21 1_555 1_555
C22 C17 1_555 1_555
H12 C22 1_555 1_555
C23 O9 1_555 1_555
C24 O11 1_555 1_555
C25 C26 1_555 1_555
C26 H13 1_555 1_555
C27 C26 1_555 1_555
C28 C27 1_555 1_555
H14 C28 1_555 1_555
C29 C28 1_555 1_555
H15 C29 1_555 1_555
C30 C25 1_555 1_555
H16 C30 1_555 1_555
C31 O13 1_555 1_555
C32 C27 1_555 1_555
N1 Cu1 1_555 1_555
N2 C40 1_555 1_555
N3 Cu2 1_555 1_555
N4 C52 1_555 1_555
N5 Cu3 1_555 1_555
N6 C64 1_555 1_555
N7 Cu4 1_555 1_555
N8 C76 1_555 1_555
C33 N1 1_555 1_555
H17 C33 1_555 1_555
C34 C33 1_555 1_555
H18 C34 1_555 1_555
C35 C34 1_555 1_555
C36 C35 1_555 1_555
H19 C36 1_555 1_555
C37 N1 1_555 1_555
H20 C37 1_555 1_555
C38 C35 1_555 1_555
H21 C38 1_555 1_555
H22 C38 1_555 1_555
C39 C38 1_555 1_555
H23 C39 1_555 1_555
H24 C39 1_555 1_555
C40 H25 1_555 1_555
C41 C40 1_555 1_555
H26 C41 1_555 1_555
C42 C39 1_555 1_555
C43 C42 1_555 1_555
H27 C43 1_555 1_555
C44 N2 1_555 1_555
H28 C44 1_555 1_555
C45 N3 1_555 1_555
H29 C45 1_555 1_555
C46 C45 1_555 1_555
H30 C46 1_555 1_555
C47 C46 1_555 1_555
C48 C47 1_555 1_555
H31 C48 1_555 1_555
C49 N3 1_555 1_555
H32 C49 1_555 1_555
C50 C47 1_555 1_555
H33 C50 1_555 1_555
H34 C50 1_555 1_555
C51 C50 1_555 1_555
H35 C51 1_555 1_555
H36 C51 1_555 1_555
C52 H37 1_555 1_555
C53 C52 1_555 1_555
H38 C53 1_555 1_555
C54 C51 1_555 1_555
C55 C54 1_555 1_555
H39 C55 1_555 1_555
C56 N4 1_555 1_555
H40 C56 1_555 1_555
C57 N5 1_555 1_555
H41 C57 1_555 1_555
C58 C57 1_555 1_555
H42 C58 1_555 1_555
C59 C58 1_555 1_555
C60 C59 1_555 1_555
H43 C60 1_555 1_555
C61 N5 1_555 1_555
H44 C61 1_555 1_555
C62 C59 1_555 1_555
H45 C62 1_555 1_555
H46 C62 1_555 1_555
C63 C62 1_555 1_555
H47 C63 1_555 1_555
H48 C63 1_555 1_555
C64 H49 1_555 1_555
C65 C64 1_555 1_555
H50 C65 1_555 1_555
C66 C63 1_555 1_555
C67 C66 1_555 1_555
H51 C67 1_555 1_555
C68 N6 1_555 1_555
H52 C68 1_555 1_555
C69 N7 1_555 1_555
H53 C69 1_555 1_555
C70 C69 1_555 1_555
H54 C70 1_555 1_555
C71 C70 1_555 1_555
C72 C71 1_555 1_555
H55 C72 1_555 1_555
C73 N7 1_555 1_555
H56 C73 1_555 1_555
C74 C71 1_555 1_555
H57 C74 1_555 1_555
H58 C74 1_555 1_555
C75 C74 1_555 1_555
H59 C75 1_555 1_555
H60 C75 1_555 1_555
C76 H61 1_555 1_555
C77 C76 1_555 1_555
H62 C77 1_555 1_555
C78 C75 1_555 1_555
C79 C78 1_555 1_555
H63 C79 1_555 1_555
C80 N8 1_555 1_555
H64 C80 1_555 1_555
N9 C81 1_555 1_555
N10 C88 1_555 1_555
C81 H65 1_555 1_555
C82 C81 1_555 1_555
H66 C82 1_555 1_555
C83 C82 1_555 1_555
C84 C83 1_555 1_555
H67 C84 1_555 1_555
C85 N9 1_555 1_555
H68 C85 1_555 1_555
C86 C83 1_555 1_555
H69 C86 1_555 1_555
H70 C86 1_555 1_555
C87 C86 1_555 1_555
H71 C87 1_555 1_555
H72 C87 1_555 1_555
C88 H73 1_555 1_555
C89 C88 1_555 1_555
H74 C89 1_555 1_555
C90 C87 1_555 1_555
C91 C90 1_555 1_555
H75 C91 1_555 1_555
C92 N10 1_555 1_555
H76 C92 1_555 1_555
Cu1_2 N2 1_555 1_555
Cu1_3 O15 1_555 1_555
Cu2_2 N4 1_555 1_555
Cu2_3 O16 1_555 1_555
Cu3_2 N6 1_555 1_555
Cu3_3 O4 1_555 1_555
Cu4_2 N8 1_555 1_555
Cu4_3 O3 1_555 1_555
O3_2 Cu4 1_555 1_555
O4_2 Cu3 1_555 1_555
O15_2 Cu1 1_555 1_555
O16_2 Cu2 1_555 1_555
N2_2 Cu1 1_555 1_555
N4_2 Cu2 1_555 1_555
N6_2 Cu3 1_555 1_555
N8_2 Cu4 1_555 1_555
O10 C23 1_555 1_555
O14 C31 1_555 1_555
C1 C7 1_555 1_555
C5 C6 1_555 1_555
C9 C15 1_555 1_555
C11 C16 1_555 1_555
C13 C14 1_555 1_555
C17 C23 1_555 1_555
C19 C24 1_555 1_555
C21 C22 1_555 1_555
C25 C31 1_555 1_555
C29 C30 1_555 1_555
C36 C37 1_555 1_555
C41 C42 1_555 1_555
C43 C44 1_555 1_555
C48 C49 1_555 1_555
C53 C54 1_555 1_555
C55 C56 1_555 1_555
C60 C61 1_555 1_555
C65 C66 1_555 1_555
C67 C68 1_555 1_555
C72 C73 1_555 1_555
C77 C78 1_555 1_555
C79 C80 1_555 1_555
C84 C85 1_555 1_555
C89 C90 1_555 1_555
C91 C92 1_555 1_555

#END
