
#######################################################################
#
#                 Cambridge Crystallographic Data Centre
#                                CCDC 
#
#######################################################################
#
# If this CIF has been generated from an entry in the Cambridge 
# Structural Database, then it will include bibliographic, chemical, 
# crystal, experimental, refinement or atomic coordinate data resulting 
# from the CCDC's data processing and validation procedures.
#
#######################################################################

data_HOPDOH
_symmetry_cell_setting           rhombohedral
_symmetry_space_group_name_H-M   'R -3 c'
_symmetry_Int_Tables_number      167
_space_group_name_Hall           '-R 3 2"c'
loop_
_symmetry_equiv_pos_site_id
_symmetry_equiv_pos_as_xyz
1 x,y,z
2 -y,x-y,z
3 -x+y,-x,z
4 y,x,1/2-z
5 -x,-x+y,1/2-z
6 x-y,-y,1/2-z
7 2/3+x,1/3+y,1/3+z
8 2/3-y,1/3+x-y,1/3+z
9 2/3-x+y,1/3-x,1/3+z
10 2/3+y,1/3+x,5/6-z
11 2/3-x,1/3-x+y,5/6-z
12 2/3+x-y,1/3-y,5/6-z
13 1/3+x,2/3+y,2/3+z
14 1/3-y,2/3+x-y,2/3+z
15 1/3-x+y,2/3-x,2/3+z
16 1/3+y,2/3+x,1/6-z
17 1/3-x,2/3-x+y,1/6-z
18 1/3+x-y,2/3-y,1/6-z
19 -x,-y,-z
20 y,-x+y,-z
21 x-y,x,-z
22 -y,-x,1/2+z
23 x,x-y,1/2+z
24 -x+y,y,1/2+z
25 1/3-x,2/3-y,2/3-z
26 1/3+y,2/3-x+y,2/3-z
27 1/3+x-y,2/3+x,2/3-z
28 1/3-y,2/3-x,1/6+z
29 1/3+x,2/3+x-y,1/6+z
30 1/3-x+y,2/3+y,1/6+z
31 2/3-x,1/3-y,1/3-z
32 2/3+y,1/3-x+y,1/3-z
33 2/3+x-y,1/3+x,1/3-z
34 2/3-y,1/3-x,5/6+z
35 2/3+x,1/3+x-y,5/6+z
36 2/3-x+y,1/3+y,5/6+z
_cell_length_a                   18.772(3)
_cell_length_b                   18.772(3)
_cell_length_c                   84.147(17)
_cell_angle_alpha                90
_cell_angle_beta                 90
_cell_angle_gamma                120
_cell_volume                     25679.7
loop_
_atom_site_label
_atom_site_type_symbol
_atom_site_fract_x
_atom_site_fract_y
_atom_site_fract_z
O1 O 0.102(3) 0.468(3) 0.9051(3)
Zn1 Zn 0.66312(4) 0.03141(4) 1.008906(8)
O2 O 0.7011(3) 0.1166(2) 0.99274(5)
O3 O 0.7886(3) 0.0768(3) 0.98400(6)
O4 O 0.8482(7) 0.3634(6) 0.93554(11)
O5 O 1.2407(3) 0.8802(3) 0.85447(6)
O6 O 1.3240(3) 0.8648(3) 0.87043(7)
O7 O 0.9848(4) 0.6057(5) 0.90059(9)
O8 O 0.8431(8) 0.4516(6) 0.90760(11)
N1 N 0.5970(3) -0.0769(3) 0.99800(6)
N2 N 0.4910(3) -0.1954(3) 0.99128(6)
N3 N 0.7579(3) 0.0385(3) 1.02127(6)
N4 N 0.8706(3) 0.0331(3) 1.02616(6)
C1 C 0.4107(3) -0.2656(3) 0.99127(7)
C2 C 0.4019(3) -0.3432(3) 0.99141(7)
H1 H 0.4478 -0.3498 0.9916
C3 C 0.5186(4) -0.1282(4) 1.00027(8)
H2 H 0.4859 -0.1190 1.0073
C4 C 0.8091(4) 0.0142(4) 1.01581(8)
H3 H 0.8031 -0.0122 1.0061
C5 C 0.5567(4) -0.1866(4) 0.98239(8)
H4 H 0.5566 -0.2237 0.9751
C6 C 0.9364(4) 0.0165(4) 1.02467(7)
C7 C 0.7881(4) 0.0731(4) 1.03582(9)
H5 H 0.7647 0.0954 1.0425
C8 C 1.1822(4) 0.7833(4) 0.87494(8)
C9 C 0.6211(4) -0.1127(4) 0.98651(8)
H6 H 0.6737 -0.0895 0.9822
C10 C 0.7578(4) 0.1215(4) 0.98358(8)
C11 C 0.8567(5) 0.0701(5) 1.03904(9)
H7 H 0.8886 0.0892 1.0482
C12 C 0.9190(4) -0.0648(4) 1.02471(7)
H8 H 0.8648 -0.1080 1.0248
C13 C 0.8489(5) 0.2011(5) 0.96069(9)
H9 H 0.8768 0.1722 0.9619
C14 C 1.0367(5) 0.7128(5) 0.88093(9)
H10 H 0.9849 0.7064 0.8792
C15 C 0.7847(4) 0.1861(4) 0.97085(8)
C16 C 1.1054(5) 0.7720(4) 0.87271(9)
H11 H 1.0985 0.8052 0.8654
C17 C 1.1902(6) 0.7343(7) 0.88553(14)
H12 H 1.2424 0.7420 0.8875
C18 C 1.2541(5) 0.8475(4) 0.86625(10)
C19 C 0.9043(6) 0.5891(5) 0.89815(11)
H13 H 0.8864 0.5680 0.8875
H14 H 0.9016 0.6391 0.8994
C20 C 1.0476(5) 0.6649(6) 0.89155(11)
C21 C 0.7707(7) 0.2894(6) 0.95728(12)
H15 H 0.7440 0.3195 0.9560
C22 C 0.8506(6) 0.5270(6) 0.91007(12)
H16 H 0.8731 0.5463 0.9206
H17 H 0.7965 0.5216 0.9097
C23 C 0.7468(5) 0.2311(5) 0.96915(9)
H18 H 0.7044 0.2225 0.9760
C24 C 0.8338(8) 0.3022(7) 0.94749(13)
C25 C 0.8713(7) 0.2581(7) 0.94888(12)
H19 H 0.9127 0.2663 0.9418
C26 C 1.1233(6) 0.6720(8) 0.89376(14)
H20 H 1.1299 0.6366 0.9005
C27 C 0.9110(11) 0.3828(9) 0.92609(19)
H21 H 0.9012 0.3354 0.9198
H22 H 0.9606 0.4003 0.9323
C28 C 0.9215(13) 0.4533(11) 0.9151(2)
H23 H 0.9568 0.4565 0.9064
H24 H 0.9513 0.5042 0.9210
N1A N 0.0769(3) -0.3261(4) 0.99800(6)
N2A N 0.1954(3) -0.3136(4) 0.99128(6)
C1A C 0.2656(3) -0.3237(4) 0.99127(7)
C2A C 0.3432(3) -0.2549(4) 0.99141(7)
H1A H 0.3498 -0.2024 0.9916
C3A C 0.1282(4) -0.3532(6) 1.00027(8)
H2A H 0.1190 -0.3951 1.0073
C5A C 0.1866(4) -0.2567(6) 0.98239(8)
H4A H 0.2237 -0.2197 0.9751
C9A C 0.1127(4) -0.2662(6) 0.98651(8)
H6A H 0.0895 -0.2368 0.9822
N1B N 0.3261(4) -0.5970(3) 0.99800(6)
N2B N 0.3136(4) -0.4910(3) 0.99128(6)
C1B C 0.3237(4) -0.4107(3) 0.99127(7)
C2B C 0.2549(4) -0.4019(3) 0.99141(7)
H1B H 0.2024 -0.4478 0.9916
C3B C 0.3532(6) -0.5186(4) 1.00027(8)
H2B H 0.3951 -0.4859 1.0073
C5B C 0.2567(6) -0.5567(4) 0.98239(8)
H4B H 0.2197 -0.5566 0.9751
C9B C 0.2662(6) -0.6211(4) 0.98651(8)
H6B H 0.2368 -0.6737 0.9822
N3A N 0.9615(3) -0.2806(4) 1.02127(6)
N4A N 0.9669(3) -0.1625(4) 1.02616(6)
C4A C 0.9858(4) -0.2051(6) 1.01581(8)
H3A H 1.0122 -0.1847 1.0061
C6A C 0.9835(4) -0.0801(6) 1.02467(7)
C7A C 0.9269(4) -0.2850(6) 1.03582(9)
H5A H 0.9046 -0.3307 1.0425
C11A C 0.9299(5) -0.2134(7) 1.03904(9)
H7A H 0.9108 -0.2006 1.0482
C12A C 1.0648(4) -0.0162(6) 1.02471(7)
H8A H 1.1080 -0.0272 1.0248
N3B N 1.2806(4) 0.2421(3) 1.02127(6)
N4B N 1.1625(4) 0.1294(3) 1.02616(6)
C4B C 1.2051(6) 0.1909(4) 1.01581(8)
H3B H 1.1847 0.1969 1.0061
C6B C 1.0801(6) 0.0636(4) 1.02467(7)
C7B C 1.2850(6) 0.2119(4) 1.03582(9)
H5B H 1.3307 0.2353 1.0425
C11B C 1.2134(7) 0.1433(5) 1.03904(9)
H7B H 1.2006 0.1114 1.0482
C12B C 1.0162(6) 0.0810(4) 1.02471(7)
H8B H 1.0272 0.1352 1.0248
Zn1A Zn -0.03141(4) -0.36829(6) 1.008906(8)
O2A O -0.1166(2) -0.4155(4) 0.99274(5)
O3A O -0.0768(3) -0.2882(4) 0.98400(6)
O4A O -0.3634(6) -0.5152(9) 0.93554(11)
O5A O -0.8802(3) -0.6395(4) 0.85447(6)
O6A O -0.8648(3) -0.5408(4) 0.87043(7)
O7A O -0.6057(5) -0.6209(6) 0.90059(9)
O8A O -0.4516(6) -0.6085(10) 0.90760(11)
C8A C -0.7833(4) -0.6011(6) 0.87494(8)
C10A C -0.1215(4) -0.3637(6) 0.98358(8)
C13A C -0.2011(5) -0.3522(7) 0.96069(9)
H9A H -0.1722 -0.2954 0.9619
C14A C -0.7128(5) -0.6761(7) 0.88093(9)
H10A H -0.7064 -0.7215 0.8792
C15A C -0.1861(4) -0.4014(6) 0.97085(8)
C16A C -0.7720(4) -0.6666(6) 0.87271(9)
H11A H -0.8052 -0.7067 0.8654
C17A C -0.7343(7) -0.5441(9) 0.88553(14)
H12A H -0.7420 -0.4996 0.8875
C18A C -0.8475(4) -0.5934(6) 0.86625(10)
C19A C -0.5891(5) -0.6848(8) 0.89815(11)
H13A H -0.5680 -0.6816 0.8875
H14A H -0.6391 -0.7375 0.8994
C20A C -0.6649(6) -0.6173(8) 0.89155(11)
C21A C -0.2894(6) -0.5187(9) 0.95728(12)
H15A H -0.3195 -0.5755 0.9560
C22A C -0.5270(6) -0.6764(8) 0.91007(12)
H16A H -0.5463 -0.6732 0.9206
H17A H -0.5216 -0.7251 0.9097
C23A C -0.2311(5) -0.4843(7) 0.96915(9)
H18A H -0.2225 -0.5181 0.9760
C24A C -0.3022(7) -0.4684(11) 0.94749(13)
C25A C -0.2581(7) -0.3868(10) 0.94888(12)
H19A H -0.2663 -0.3536 0.9418
C26A C -0.6720(8) -0.5487(10) 0.89376(14)
H20A H -0.6366 -0.5067 0.9005
C27A C -0.3828(9) -0.4718(14) 0.92609(19)
H21A H -0.3354 -0.4342 0.9198
H22A H -0.4003 -0.4397 0.9323
C28A C -0.4533(11) -0.5318(17) 0.9151(2)
H23A H -0.4565 -0.4997 0.9064
H24A H -0.5042 -0.5529 0.9210
Zn1B Zn 0.36829(6) -0.66312(4) 1.008906(8)
O2B O 0.4155(4) -0.7011(3) 0.99274(5)
O3B O 0.2882(4) -0.7886(3) 0.98400(6)
O4B O 0.5152(9) -0.8482(7) 0.93554(11)
O5B O 0.6395(4) -1.2407(3) 0.85447(6)
O6B O 0.5408(4) -1.3240(3) 0.87043(7)
O7B O 0.6209(6) -0.9848(4) 0.90059(9)
O8B O 0.6085(10) -0.8431(8) 0.90760(11)
C8B C 0.6011(6) -1.1822(4) 0.87494(8)
C10B C 0.3637(6) -0.7578(4) 0.98358(8)
C13B C 0.3522(7) -0.8489(5) 0.96069(9)
H9B H 0.2954 -0.8768 0.9619
C14B C 0.6761(7) -1.0367(5) 0.88093(9)
H10B H 0.7215 -0.9849 0.8792
C15B C 0.4014(6) -0.7847(4) 0.97085(8)
C16B C 0.6666(6) -1.1054(5) 0.87271(9)
H11B H 0.7067 -1.0985 0.8654
C17B C 0.5441(9) -1.1902(6) 0.88553(14)
H12B H 0.4996 -1.2424 0.8875
C18B C 0.5934(6) -1.2541(5) 0.86625(10)
C19B C 0.6848(8) -0.9043(6) 0.89815(11)
H13B H 0.6816 -0.8864 0.8875
H14B H 0.7375 -0.9016 0.8994
C20B C 0.6173(8) -1.0476(5) 0.89155(11)
C21B C 0.5187(9) -0.7707(7) 0.95728(12)
H15B H 0.5755 -0.7440 0.9560
C22B C 0.6764(8) -0.8506(6) 0.91007(12)
H16B H 0.6732 -0.8731 0.9206
H17B H 0.7251 -0.7965 0.9097
C23B C 0.4843(7) -0.7468(5) 0.96915(9)
H18B H 0.5181 -0.7044 0.9760
C24B C 0.4684(11) -0.8338(8) 0.94749(13)
C25B C 0.3868(10) -0.8713(7) 0.94888(12)
H19B H 0.3536 -0.9127 0.9418
C26B C 0.5487(10) -1.1233(6) 0.89376(14)
H20B H 0.5067 -1.1299 0.9005
C27B C 0.4718(14) -0.9110(11) 0.92609(19)
H21B H 0.4342 -0.9012 0.9198
H22B H 0.4397 -0.9606 0.9323
C28B C 0.5318(17) -0.9215(13) 0.9151(2)
H23B H 0.4997 -0.9568 0.9064
H24B H 0.5529 -0.9513 0.9210
Zn1A_2 Zn 0.96859(4) -0.36829(6) 1.008906(8)
Zn1B_2 Zn 1.36829(6) 0.33688(4) 1.008906(8)
Zn1GA Zn 0.63526(4) -1.32979(4) 0.842239(8)
Zn1HA Zn 1.32979(4) 0.96504(6) 0.842239(8)
Zn1IA Zn -0.96504(6) -0.63526(4) 0.842239(8)
O5AA O 0.4531(3) -0.5740(3) 1.02114(6)
O5BA O 0.5740(3) 0.0272(4) 1.02114(6)
O5CA O -0.0272(4) -0.4531(3) 1.02114(6)
N3A_2 N -0.0385(3) -0.2806(4) 1.02127(6)
N3B_2 N 0.2806(4) -0.7579(3) 1.02127(6)
loop_
_geom_bond_atom_site_label_1
_geom_bond_atom_site_label_2
_geom_bond_site_symmetry_1
_geom_bond_site_symmetry_2
Zn1 O2 1_555 1_555
O2 C10 1_555 1_555
O3 C10 1_555 1_555
O4 C24 1_555 1_555
O5 C18 1_555 1_555
O6 C18 1_555 1_555
O7 C19 1_555 1_555
O8 C22 1_555 1_555
N1 Zn1 1_555 1_555
N2 C1 1_555 1_555
N3 Zn1 1_555 1_555
N4 C4 1_555 1_555
C1 C2 1_555 1_555
C2 H1 1_555 1_555
C3 N1 1_555 1_555
H2 C3 1_555 1_555
C4 N3 1_555 1_555
H3 C4 1_555 1_555
C5 N2 1_555 1_555
H4 C5 1_555 1_555
C6 N4 1_555 1_555
C7 N3 1_555 1_555
H5 C7 1_555 1_555
C8 C16 1_555 1_555
C9 N1 1_555 1_555
H6 C9 1_555 1_555
C10 C15 1_555 1_555
C11 N4 1_555 1_555
H7 C11 1_555 1_555
C12 C6 1_555 1_555
H8 C12 1_555 1_555
C13 H9 1_555 1_555
C14 H10 1_555 1_555
C15 C13 1_555 1_555
C16 C14 1_555 1_555
H11 C16 1_555 1_555
C17 C8 1_555 1_555
H12 C17 1_555 1_555
C18 C8 1_555 1_555
C19 H13 1_555 1_555
H14 C19 1_555 1_555
C20 O7 1_555 1_555
C21 H15 1_555 1_555
C22 C19 1_555 1_555
H16 C22 1_555 1_555
H17 C22 1_555 1_555
C23 C15 1_555 1_555
H18 C23 1_555 1_555
C24 C21 1_555 1_555
C25 C13 1_555 1_555
H19 C25 1_555 1_555
C26 C17 1_555 1_555
H20 C26 1_555 1_555
C27 O4 1_555 1_555
H21 C27 1_555 1_555
H22 C27 1_555 1_555
C28 O8 1_555 1_555
H23 C28 1_555 1_555
H24 C28 1_555 1_555
N1A C3A 1_555 1_555
N2A C1A 1_555 1_555
C1A C2A 1_555 1_555
C2A C1 1_555 1_555
H1A C2A 1_555 1_555
C3A N2A 1_555 1_555
H2A C3A 1_555 1_555
C5A N2A 1_555 1_555
H4A C5A 1_555 1_555
C9A N1A 1_555 1_555
H6A C9A 1_555 1_555
N1B C3B 1_555 1_555
N2B C1B 1_555 1_555
C1B C2 1_555 1_555
C2B C1A 1_555 1_555
H1B C2B 1_555 1_555
C3B N2B 1_555 1_555
H2B C3B 1_555 1_555
C5B N2B 1_555 1_555
H4B C5B 1_555 1_555
C9B N1B 1_555 1_555
H6B C9B 1_555 1_555
N3A C4A 1_555 1_555
N4A C4A 1_555 1_555
C4A H3A 1_555 1_555
C6A C12 1_555 1_555
C7A N3A 1_555 1_555
H5A C7A 1_555 1_555
C11A N4A 1_555 1_555
H7A C11A 1_555 1_555
C12A C6A 1_555 1_555
H8A C12A 1_555 1_555
N3B C4B 1_555 1_555
N4B C4B 1_555 1_555
C4B H3B 1_555 1_555
C6B C12A 1_555 1_555
C7B N3B 1_555 1_555
H5B C7B 1_555 1_555
C11B N4B 1_555 1_555
H7B C11B 1_555 1_555
C12B C6 1_555 1_555
H8B C12B 1_555 1_555
Zn1A N1A 1_555 1_555
O2A Zn1A 1_555 1_555
O3A C10A 1_555 1_555
O4A C24A 1_555 1_555
O5A C18A 1_555 1_555
O6A C18A 1_555 1_555
O7A C19A 1_555 1_555
O8A C22A 1_555 1_555
C8A C16A 1_555 1_555
C10A O2A 1_555 1_555
C13A H9A 1_555 1_555
C14A H10A 1_555 1_555
C15A C10A 1_555 1_555
C16A C14A 1_555 1_555
H11A C16A 1_555 1_555
C17A C8A 1_555 1_555
H12A C17A 1_555 1_555
C18A C8A 1_555 1_555
C19A H13A 1_555 1_555
H14A C19A 1_555 1_555
C20A O7A 1_555 1_555
C21A H15A 1_555 1_555
C22A C19A 1_555 1_555
H16A C22A 1_555 1_555
H17A C22A 1_555 1_555
C23A C15A 1_555 1_555
H18A C23A 1_555 1_555
C24A C21A 1_555 1_555
C25A C13A 1_555 1_555
H19A C25A 1_555 1_555
C26A C17A 1_555 1_555
H20A C26A 1_555 1_555
C27A O4A 1_555 1_555
H21A C27A 1_555 1_555
H22A C27A 1_555 1_555
C28A O8A 1_555 1_555
H23A C28A 1_555 1_555
H24A C28A 1_555 1_555
Zn1B N1B 1_555 1_555
O2B Zn1B 1_555 1_555
O3B C10B 1_555 1_555
O4B C24B 1_555 1_555
O5B C18B 1_555 1_555
O6B C18B 1_555 1_555
O7B C19B 1_555 1_555
O8B C22B 1_555 1_555
C8B C16B 1_555 1_555
C10B O2B 1_555 1_555
C13B H9B 1_555 1_555
C14B H10B 1_555 1_555
C15B C10B 1_555 1_555
C16B C14B 1_555 1_555
H11B C16B 1_555 1_555
C17B C8B 1_555 1_555
H12B C17B 1_555 1_555
C18B C8B 1_555 1_555
C19B H13B 1_555 1_555
H14B C19B 1_555 1_555
C20B O7B 1_555 1_555
C21B H15B 1_555 1_555
C22B C19B 1_555 1_555
H16B C22B 1_555 1_555
H17B C22B 1_555 1_555
C23B C15B 1_555 1_555
H18B C23B 1_555 1_555
C24B C21B 1_555 1_555
C25B C13B 1_555 1_555
H19B C25B 1_555 1_555
C26B C17B 1_555 1_555
H20B C26B 1_555 1_555
C27B O4B 1_555 1_555
H21B C27B 1_555 1_555
H22B C27B 1_555 1_555
C28B O8B 1_555 1_555
H23B C28B 1_555 1_555
H24B C28B 1_555 1_555
Zn1A_2 N3A 1_555 1_555
Zn1B_2 N3B 1_555 1_555
Zn1GA O5B 1_555 1_555
Zn1HA O5 1_555 1_555
Zn1IA O5A 1_555 1_555
O5AA Zn1B 1_555 1_555
O5BA Zn1 1_555 1_555
O5CA Zn1A 1_555 1_555
N3A_2 Zn1A 1_555 1_555
N3B_2 Zn1B 1_555 1_555
N2 C3 1_555 1_555
C5 C9 1_555 1_555
C7 C11 1_555 1_555
C14 C20 1_555 1_555
C20 C26 1_555 1_555
C21 C23 1_555 1_555
C24 C25 1_555 1_555
C27 C28 1_555 1_555
C5A C9A 1_555 1_555
C1B C2B 1_555 1_555
C5B C9B 1_555 1_555
N4A C6A 1_555 1_555
C7A C11A 1_555 1_555
N4B C6B 1_555 1_555
C6B C12B 1_555 1_555
C7B C11B 1_555 1_555
C13A C15A 1_555 1_555
C14A C20A 1_555 1_555
C20A C26A 1_555 1_555
C21A C23A 1_555 1_555
C24A C25A 1_555 1_555
C27A C28A 1_555 1_555
C13B C15B 1_555 1_555
C14B C20B 1_555 1_555
C20B C26B 1_555 1_555
C21B C23B 1_555 1_555
C24B C25B 1_555 1_555
C27B C28B 1_555 1_555

#END
