
#######################################################################
#
#                 Cambridge Crystallographic Data Centre
#                                CCDC 
#
#######################################################################
#
# If this CIF has been generated from an entry in the Cambridge 
# Structural Database, then it will include bibliographic, chemical, 
# crystal, experimental, refinement or atomic coordinate data resulting 
# from the CCDC's data processing and validation procedures.
#
#######################################################################

data_HOPNAD
_symmetry_cell_setting           monoclinic
_symmetry_space_group_name_H-M   'P 2/n'
_symmetry_Int_Tables_number      13
_space_group_name_Hall           '-P 2yac'
loop_
_symmetry_equiv_pos_site_id
_symmetry_equiv_pos_as_xyz
1 x,y,z
2 1/2-x,y,1/2-z
3 -x,-y,-z
4 1/2+x,-y,1/2+z
_cell_length_a                   14.1033(4)
_cell_length_b                   10.0988(4)
_cell_length_c                   15.4061(5)
_cell_angle_alpha                90
_cell_angle_beta                 110.0030(10)
_cell_angle_gamma                90
_cell_volume                     2061.87
loop_
_atom_site_label
_atom_site_type_symbol
_atom_site_fract_x
_atom_site_fract_y
_atom_site_fract_z
Eu1 Eu 0.7500 0.142602(17) 0.2500
Eu2 Eu 0.2500 -0.339721(18) 0.2500
O1 O 0.75313(17) 0.2758(2) 0.38733(17)
H1 H 0.721(3) 0.3592(19) 0.370(3)
H2 H 0.8181(13) 0.283(4) 0.4326(18)
O2 O 0.4101(2) -0.4149(3) 0.3582(2)
H3 H 0.446(3) -0.367(4) 0.4132(18)
H4 H 0.423(3) -0.5028(19) 0.383(3)
O3 O 0.1758(2) -0.2649(3) 0.3618(2)
H5 H 0.151(3) -0.325(3) 0.397(3)
H6 H 0.180(4) -0.1711(13) 0.372(3)
S1 S 1.20709(6) 0.03459(8) 0.44165(6)
N1 N 1.04157(18) 0.1766(2) 0.35503(18)
H7 H 1.0081 0.1092 0.3627
C1 C 1.1434(2) 0.1679(3) 0.3868(2)
N2 N 1.19168(19) 0.2768(2) 0.3732(2)
H8 H 1.2565 0.2744 0.3930
C2 C 1.1462(2) 0.3925(3) 0.3301(2)
O4 O 1.20506(18) 0.4811(2) 0.3226(2)
C3 C 1.0415(2) 0.3956(3) 0.2996(2)
H9 H 1.0075 0.4716 0.2713
C4 C 0.9870(2) 0.2867(3) 0.3108(2)
O5 O 0.89233(15) 0.2772(2) 0.28441(17)
S2 S 0.44692(6) 0.28355(8) 0.44858(7)
N3 N 0.55738(18) 0.1243(2) 0.38179(19)
H10 H 0.6021 0.1859 0.3961
C5 C 0.4724(2) 0.1439(3) 0.4017(2)
N4 N 0.40644(18) 0.0424(2) 0.3801(2)
H11 H 0.3519 0.0514 0.3927
C6 C 0.4192(2) -0.0758(3) 0.3390(2)
O6 O 0.34805(19) -0.1581(2) 0.3245(2)
C7 C 0.5063(2) -0.0904(3) 0.3178(2)
H12 H 0.5171 -0.1673 0.2893
C8 C 0.5777(2) 0.0102(3) 0.3394(2)
O7 O 0.65978(16) 0.0100(2) 0.32380(17)
S3 S 0.69946(7) -0.40696(9) 0.36926(9)
N5 N 0.80457(18) -0.1915(2) 0.36705(19)
H13 H 0.7465 -0.1570 0.3384
C9 C 0.8069(2) -0.3220(3) 0.3895(2)
N6 N 0.90002(18) -0.3739(2) 0.4300(2)
H14 H 0.9042 -0.4566 0.4442
C10 C 0.9894(2) -0.3028(3) 0.4502(2)
O8 O 1.07068(16) -0.3659(2) 0.48508(18)
C11 C 0.9813(2) -0.1680(3) 0.4297(2)
H15 H 1.0394 -0.1165 0.4453
C12 C 0.8884(2) -0.1095(3) 0.3867(2)
O9 O 0.87418(15) 0.01141(19) 0.36390(16)
O2A O 0.0899(2) -0.4149(3) 0.1418(2)
H3A H 0.054(3) -0.367(4) 0.0868(18)
H4A H 0.077(3) -0.5028(19) 0.117(3)
O3A O 0.3242(2) -0.2649(3) 0.1382(2)
H5A H 0.349(3) -0.325(3) 0.103(3)
H6A H 0.320(4) -0.1711(13) 0.128(3)
S2A S 0.05308(6) 0.28355(8) 0.05142(7)
N3A N -0.05738(18) 0.1243(2) 0.11821(19)
H10A H -0.1021 0.1859 0.1039
C5A C 0.0276(2) 0.1439(3) 0.0983(2)
N4A N 0.09356(18) 0.0424(2) 0.1199(2)
H11A H 0.1481 0.0514 0.1073
C6A C 0.0808(2) -0.0758(3) 0.1610(2)
O6A O 0.15195(19) -0.1581(2) 0.1755(2)
C7A C -0.0063(2) -0.0904(3) 0.1822(2)
H12A H -0.0171 -0.1673 0.2107
C8A C -0.0777(2) 0.0102(3) 0.1606(2)
O7A O -0.15978(16) 0.0100(2) 0.17620(17)
S1A S 0.29291(6) 0.03459(8) 0.05835(6)
N1A N 0.45843(18) 0.1766(2) 0.14497(18)
H7A H 0.4919 0.1092 0.1373
C1A C 0.3566(2) 0.1679(3) 0.1132(2)
N2A N 0.30832(19) 0.2768(2) 0.1268(2)
H8A H 0.2435 0.2744 0.1070
C2A C 0.3538(2) 0.3925(3) 0.1699(2)
O4A O 0.29494(18) 0.4811(2) 0.1774(2)
C3A C 0.4585(2) 0.3956(3) 0.2004(2)
H9A H 0.4925 0.4716 0.2287
C4A C 0.5130(2) 0.2867(3) 0.1892(2)
O5A O 0.60767(15) 0.2772(2) 0.21559(17)
S3A S 0.80054(7) -0.40696(9) 0.13074(9)
N5A N 0.69543(18) -0.1915(2) 0.13295(19)
H13A H 0.7535 -0.1570 0.1616
C9A C 0.6931(2) -0.3220(3) 0.1105(2)
N6A N 0.59998(18) -0.3739(2) 0.0700(2)
H14A H 0.5958 -0.4566 0.0558
C10A C 0.5106(2) -0.3028(3) 0.0498(2)
O8A O 0.42932(16) -0.3659(2) 0.01492(18)
C11A C 0.5187(2) -0.1680(3) 0.0703(2)
H15A H 0.4606 -0.1165 0.0547
C12A C 0.6116(2) -0.1095(3) 0.1133(2)
O9A O 0.62582(15) 0.01141(19) 0.13610(16)
O1A O 0.74687(17) 0.2758(2) 0.11267(17)
H1A H 0.779(3) 0.3592(19) 0.130(3)
H2A H 0.6819(13) 0.283(4) 0.0674(18)
Eu1_2 Eu -0.2500 0.142602(17) 0.2500
Eu2_2 Eu 0.2500 0.660279(18) 0.2500
Eu2_3 Eu 1.2500 0.660279(18) 0.2500
O4_2 O 0.20506(18) -0.5189(2) 0.3226(2)
O4A_2 O 0.29494(18) -0.5189(2) 0.1774(2)
O7A_2 O 0.84022(16) 0.0100(2) 0.17620(17)
loop_
_geom_bond_atom_site_label_1
_geom_bond_atom_site_label_2
_geom_bond_site_symmetry_1
_geom_bond_site_symmetry_2
Eu1 O1 1_555 1_555
Eu2 O2 1_555 1_555
O1 H1 1_555 1_555
H2 O1 1_555 1_555
O2 H3 1_555 1_555
H4 O2 1_555 1_555
O3 Eu2 1_555 1_555
H5 O3 1_555 1_555
H6 O3 1_555 1_555
S1 C1 1_555 1_555
N1 H7 1_555 1_555
C1 N1 1_555 1_555
N2 C1 1_555 1_555
H8 N2 1_555 1_555
C2 N2 1_555 1_555
O4 C2 1_555 1_555
C3 C2 1_555 1_555
H9 C3 1_555 1_555
C4 N1 1_555 1_555
O5 Eu1 1_555 1_555
S2 C5 1_555 1_555
N3 H10 1_555 1_555
C5 N3 1_555 1_555
N4 C5 1_555 1_555
H11 N4 1_555 1_555
C6 N4 1_555 1_555
O6 Eu2 1_555 1_555
C7 C6 1_555 1_555
H12 C7 1_555 1_555
C8 N3 1_555 1_555
O7 Eu1 1_555 1_555
S3 C9 1_555 1_555
N5 H13 1_555 1_555
C9 N5 1_555 1_555
N6 C9 1_555 1_555
H14 N6 1_555 1_555
C10 N6 1_555 1_555
O8 C10 1_555 1_555
C11 C10 1_555 1_555
H15 C11 1_555 1_555
C12 N5 1_555 1_555
O9 Eu1 1_555 1_555
O2A Eu2 1_555 1_555
H3A O2A 1_555 1_555
H4A O2A 1_555 1_555
O3A Eu2 1_555 1_555
H5A O3A 1_555 1_555
H6A O3A 1_555 1_555
S2A C5A 1_555 1_555
N3A H10A 1_555 1_555
C5A N3A 1_555 1_555
N4A C5A 1_555 1_555
H11A N4A 1_555 1_555
C6A N4A 1_555 1_555
O6A Eu2 1_555 1_555
C7A C6A 1_555 1_555
H12A C7A 1_555 1_555
C8A N3A 1_555 1_555
O7A C8A 1_555 1_555
S1A C1A 1_555 1_555
N1A H7A 1_555 1_555
C1A N1A 1_555 1_555
N2A C1A 1_555 1_555
H8A N2A 1_555 1_555
C2A N2A 1_555 1_555
O4A C2A 1_555 1_555
C3A C2A 1_555 1_555
H9A C3A 1_555 1_555
C4A N1A 1_555 1_555
O5A Eu1 1_555 1_555
S3A C9A 1_555 1_555
N5A H13A 1_555 1_555
C9A N5A 1_555 1_555
N6A C9A 1_555 1_555
H14A N6A 1_555 1_555
C10A N6A 1_555 1_555
O8A C10A 1_555 1_555
C11A C10A 1_555 1_555
H15A C11A 1_555 1_555
C12A N5A 1_555 1_555
O9A Eu1 1_555 1_555
O1A Eu1 1_555 1_555
H1A O1A 1_555 1_555
H2A O1A 1_555 1_555
Eu1_2 O7A 1_555 1_555
Eu2_2 O4A 1_555 1_555
Eu2_3 O4 1_555 1_555
O4_2 Eu2 1_555 1_555
O4A_2 Eu2 1_555 1_555
O7A_2 Eu1 1_555 1_555
C3 C4 1_555 1_555
C4 O5 1_555 1_555
C6 O6 1_555 1_555
C7 C8 1_555 1_555
C8 O7 1_555 1_555
C11 C12 1_555 1_555
C12 O9 1_555 1_555
C6A O6A 1_555 1_555
C7A C8A 1_555 1_555
C3A C4A 1_555 1_555
C4A O5A 1_555 1_555
C11A C12A 1_555 1_555
C12A O9A 1_555 1_555

#END
