
#######################################################################
#
#                 Cambridge Crystallographic Data Centre
#                                CCDC 
#
#######################################################################
#
# If this CIF has been generated from an entry in the Cambridge 
# Structural Database, then it will include bibliographic, chemical, 
# crystal, experimental, refinement or atomic coordinate data resulting 
# from the CCDC's data processing and validation procedures.
#
#######################################################################

data_HOPTUC
_symmetry_cell_setting           triclinic
_symmetry_space_group_name_H-M   'P -1'
_symmetry_Int_Tables_number      2
_space_group_name_Hall           '-P 1'
loop_
_symmetry_equiv_pos_site_id
_symmetry_equiv_pos_as_xyz
1 x,y,z
2 -x,-y,-z
_cell_length_a                   11.9043(14)
_cell_length_b                   14.5166(17)
_cell_length_c                   19.116(2)
_cell_angle_alpha                77.967(2)
_cell_angle_beta                 73.248(2)
_cell_angle_gamma                79.207(2)
_cell_volume                     3065.08
loop_
_atom_site_label
_atom_site_type_symbol
_atom_site_fract_x
_atom_site_fract_y
_atom_site_fract_z
Zn1 Zn 0.97928(3) 0.97163(2) 0.081828(19)
O1 O 0.8744(2) 0.89009(15) 0.05850(14)
O2 O 0.9020(2) 0.93539(16) -0.06321(14)
O3 O 0.8662(2) 1.09173(15) 0.05972(14)
O4 O 0.8891(2) 1.13748(16) -0.06248(14)
O5 O 0.9254(2) 0.96018(17) 0.19141(12)
H1 H 0.873(2) 1.0092(16) 0.2157(17)
H2 H 0.898(3) 0.9041(13) 0.2236(15)
C1 C 0.8652(3) 0.8819(2) -0.0042(2)
C2 C 0.8067(3) 0.8011(2) -0.0067(2)
C3 C 0.8355(3) 0.7638(3) -0.0719(2)
H3 H 0.8881 0.7912 -0.1140
C4 C 0.7856(4) 0.6858(3) -0.0743(3)
H4 H 0.8070 0.6598 -0.1176
C5 C 0.7057(4) 0.6471(3) -0.0138(3)
H5 H 0.6721 0.5952 -0.0160
C6 C 0.6748(4) 0.6842(3) 0.0500(3)
H6 H 0.6186 0.6586 0.0908
C7 C 0.7264(3) 0.7597(2) 0.0549(2)
H7 H 0.7073 0.7827 0.0993
C8 C 0.8448(3) 1.1482(2) 0.0041(2)
C9 C 0.7609(3) 1.2366(2) 0.02004(19)
C10 C 0.7088(3) 1.2920(3) -0.0336(2)
H8 H 0.7256 1.2742 -0.0799
C11 C 0.6317(4) 1.3738(3) -0.0185(3)
H9 H 0.5962 1.4107 -0.0544
C12 C 0.6081(4) 1.4000(3) 0.0498(3)
H10 H 0.5571 1.4553 0.0599
C13 C 0.6597(4) 1.3447(3) 0.1039(3)
H11 H 0.6425 1.3623 0.1503
C14 C 0.7364(3) 1.2638(2) 0.0885(2)
H12 H 0.7720 1.2271 0.1244
Zn1A Zn 1.02072(3) 1.02837(2) -0.081828(19)
O1A O 1.1256(2) 1.10991(15) -0.05850(14)
O2A O 1.0980(2) 1.06461(16) 0.06321(14)
O3A O 1.1338(2) 0.90827(15) -0.05972(14)
O4A O 1.1109(2) 0.86252(16) 0.06248(14)
O5A O 1.0746(2) 1.03982(17) -0.19141(12)
H1A H 1.127(2) 0.9908(16) -0.2157(17)
H2A H 1.102(3) 1.0959(13) -0.2236(15)
C1A C 1.1348(3) 1.1181(2) 0.0042(2)
C2A C 1.1933(3) 1.1989(2) 0.0067(2)
C3A C 1.1645(3) 1.2362(3) 0.0719(2)
H3A H 1.1119 1.2088 0.1140
C4A C 1.2144(4) 1.3142(3) 0.0743(3)
H4A H 1.1930 1.3402 0.1176
C5A C 1.2943(4) 1.3529(3) 0.0138(3)
H5A H 1.3279 1.4048 0.0160
C6A C 1.3252(4) 1.3158(3) -0.0500(3)
H6A H 1.3814 1.3414 -0.0908
C7A C 1.2736(3) 1.2403(2) -0.0549(2)
H7A H 1.2927 1.2173 -0.0993
C8A C 1.1552(3) 0.8518(2) -0.0041(2)
C9A C 1.2391(3) 0.7634(2) -0.02004(19)
C10A C 1.2912(3) 0.7080(3) 0.0336(2)
H8A H 1.2744 0.7258 0.0799
C11A C 1.3683(4) 0.6262(3) 0.0185(3)
H9A H 1.4038 0.5893 0.0544
C12A C 1.3919(4) 0.6000(3) -0.0498(3)
H10A H 1.4429 0.5447 -0.0599
C13A C 1.3403(4) 0.6553(3) -0.1039(3)
H11A H 1.3575 0.6377 -0.1503
C14A C 1.2636(3) 0.7362(2) -0.0885(2)
H12A H 1.2280 0.7729 -0.1244
Zn2 Zn 0.52599(3) 1.17654(3) 0.28913(2)
Zn3 Zn 0.28475(3) 0.33637(3) 0.68417(2)
N1 N 0.5325(2) 1.12660(18) 0.19593(14)
N2 N 0.4825(2) 1.06378(18) 0.37172(14)
N3 N 0.1765(2) 0.37931(18) 0.77903(14)
N4 N 0.3236(3) 0.46381(19) 0.61585(15)
O6 O 0.6649(2) 1.22788(16) 0.29071(13)
O7 O 0.7672(2) 1.08953(17) 0.26743(14)
O8 O 0.3996(2) 1.28209(18) 0.28188(15)
O9 O 0.3752(2) 1.29341(19) 0.39796(16)
O10 O 0.2071(2) 0.29829(16) 0.61895(13)
O11 O 0.1343(3) 0.19330(18) 0.71336(14)
O12 O 0.4171(2) 0.24079(18) 0.69728(14)
O13 O 0.4643(3) 0.3481(2) 0.74558(17)
C15 C 0.7611(3) 1.1713(2) 0.27923(17)
C16 C 0.8710(3) 1.2066(2) 0.28112(18)
C17 C 0.8694(4) 1.2993(3) 0.2869(3)
H13 H 0.7995 1.3414 0.2900
C18 C 0.9722(5) 1.3304(4) 0.2879(3)
H14 H 0.9702 1.3934 0.2920
C19 C 1.0754(4) 1.2708(4) 0.2832(3)
H15 H 1.1440 1.2922 0.2836
C20 C 1.0758(4) 1.1815(4) 0.2779(3)
H16 H 1.1465 1.1403 0.2741
C21 C 0.9749(4) 1.1466(3) 0.2777(3)
H17 H 0.9780 1.0828 0.2753
C22 C 0.3562(3) 1.3241(3) 0.3368(2)
C23 C 0.2750(3) 1.4158(3) 0.3245(2)
C24 C 0.2587(4) 1.4551(3) 0.2553(3)
H18 H 0.3002 1.4251 0.2151
C25 C 0.1838(6) 1.5367(4) 0.2443(4)
H19 H 0.1747 1.5622 0.1971
C26 C 0.1223(6) 1.5806(5) 0.3031(5)
H20 H 0.0715 1.6366 0.2956
C27 C 0.1337(6) 1.5445(5) 0.3719(5)
H21 H 0.0903 1.5751 0.4115
C28 C 0.2117(4) 1.4601(4) 0.3838(3)
H22 H 0.2202 1.4348 0.4312
C29 C 0.4658(3) 1.1734(2) 0.15006(19)
H23 H 0.4153 1.2280 0.1626
C30 C 0.4688(3) 1.1445(3) 0.0859(2)
H24 H 0.4206 1.1792 0.0562
C31 C 0.5427(3) 1.0641(3) 0.06478(19)
C32 C 0.6096(3) 1.0153(3) 0.1123(2)
H25 H 0.6596 0.9599 0.1013
C33 C 0.6024(3) 1.0487(2) 0.17609(19)
H26 H 0.6491 1.0147 0.2069
C34 C 0.5472(3) 1.0316(3) -0.0066(2)
H27 H 0.5349 1.0866 -0.0436
H28 H 0.6247 0.9969 -0.0251
C35 C 0.1466(3) 0.2306(2) 0.64805(18)
C36 C 0.0889(3) 0.1981(3) 0.59938(19)
C37 C 0.1186(4) 0.2293(3) 0.5242(2)
H29 H 0.1759 0.2697 0.5030
C38 C 0.0617(5) 0.1994(4) 0.4798(3)
H30 H 0.0818 0.2198 0.4289
C39 C -0.0224(5) 0.1412(5) 0.5104(4)
H31 H -0.0610 0.1226 0.4808
C40 C -0.0495(6) 0.1107(5) 0.5839(4)
H32 H -0.1069 0.0703 0.6047
C41 C 0.0049(5) 0.1373(4) 0.6286(3)
H33 H -0.0148 0.1143 0.6791
C42 C 0.4819(3) 0.2680(3) 0.73003(19)
C43 C 0.5814(3) 0.1967(3) 0.74915(18)
C44 C 0.6551(4) 0.2192(3) 0.7847(3)
H34 H 0.6461 0.2805 0.7948
C45 C 0.7439(4) 0.1502(4) 0.8057(3)
H35 H 0.7934 0.1656 0.8300
C46 C 0.7576(4) 0.0609(4) 0.7907(3)
H36 H 0.8161 0.0149 0.8051
C47 C 0.6852(4) 0.0386(3) 0.7544(3)
H37 H 0.6952 -0.0225 0.7437
C48 C 0.5983(4) 0.1055(3) 0.7336(2)
H38 H 0.5500 0.0895 0.7088
C49 C 0.0921(3) 0.3315(2) 0.82515(18)
H39 H 0.0771 0.2775 0.8123
C50 C 0.0257(3) 0.3591(2) 0.89147(19)
H40 H -0.0339 0.3245 0.9216
C51 C 0.0470(3) 0.4377(2) 0.91350(18)
C52 C 0.1354(3) 0.4859(2) 0.8652(2)
H41 H 0.1527 0.5399 0.8768
C53 C 0.1982(3) 0.4550(2) 0.7999(2)
H42 H 0.2584 0.4883 0.7688
C54 C -0.0211(3) 0.4628(2) 0.9874(2)
H43 H -0.1029 0.4838 0.9862
H44 H -0.0198 0.4055 1.0241
C55 C 0.5610(3) 0.9863(2) 0.38454(19)
H45 H 0.6404 0.9877 0.3595
C56 C 0.5293(3) 0.9063(2) 0.43252(19)
H46 H 0.5868 0.8547 0.4397
C57 C 0.4132(3) 0.9013(2) 0.47037(18)
C58 C 0.3323(3) 0.9811(3) 0.4585(2)
H47 H 0.2527 0.9811 0.4834
C59 C 0.3698(3) 1.0603(2) 0.4097(2)
H48 H 0.3143 1.1135 0.4030
C60 C 0.3743(4) 0.8109(2) 0.5210(2)
H49 H 0.4237 0.7892 0.5552
H50 H 0.2931 0.8242 0.5496
C61 C 0.3835(4) 0.7336(3) 0.4762(2)
H51 H 0.3264 0.7522 0.4467
H52 H 0.4620 0.7267 0.4426
C62 C 0.3610(4) 0.6389(3) 0.52536(19)
C63 C 0.4386(4) 0.5909(3) 0.5666(2)
H53 H 0.5053 0.6171 0.5646
C64 C 0.4178(3) 0.5051(3) 0.6104(2)
H54 H 0.4715 0.4743 0.6376
C65 C 0.2503(4) 0.5095(3) 0.5752(2)
H55 H 0.1851 0.4813 0.5771
C66 C 0.2652(4) 0.5957(3) 0.5305(2)
H56 H 0.2105 0.6249 0.5037
Zn2A Zn 0.47401(3) 0.82346(3) -0.28913(2)
Zn3A Zn -0.28475(3) 0.66363(3) 1.31583(2)
Zn3A_2 Zn 0.71525(3) 1.66363(3) -0.68417(2)
N1A N 0.4675(2) 0.87340(18) -0.19593(14)
N2A N 0.5175(2) 0.93622(18) -0.37172(14)
N3A N -0.1765(2) 0.62069(18) 1.22097(14)
N4A N 0.6764(3) 1.53619(19) -0.61585(15)
N4A_2 N -0.3236(3) 0.53619(19) 1.38415(15)
O6A O 0.3351(2) 0.77212(16) -0.29071(13)
O7A O 0.2328(2) 0.91047(17) -0.26743(14)
O8A O 0.6004(2) 0.71791(18) -0.28188(15)
O9A O 0.6248(2) 0.70659(19) -0.39796(16)
O10A O -0.2071(2) 0.70171(16) 1.38105(13)
O11A O -0.1343(3) 0.80670(18) 1.28664(14)
O12A O -0.4171(2) 0.75921(18) 1.30272(14)
O13A O -0.4643(3) 0.6519(2) 1.25442(17)
C15A C 0.2389(3) 0.8287(2) -0.27923(17)
C16A C 0.1290(3) 0.7934(2) -0.28112(18)
C17A C 0.1306(4) 0.7007(3) -0.2869(3)
H13A H 0.2005 0.6586 -0.2900
C18A C 0.0278(5) 0.6696(4) -0.2879(3)
H14A H 0.0298 0.6066 -0.2920
C19A C -0.0754(4) 0.7292(4) -0.2832(3)
H15A H -0.1440 0.7078 -0.2836
C20A C -0.0758(4) 0.8185(4) -0.2779(3)
H16A H -0.1465 0.8597 -0.2741
C21A C 0.0251(4) 0.8534(3) -0.2777(3)
H17A H 0.0220 0.9172 -0.2753
C22A C 0.6438(3) 0.6759(3) -0.3368(2)
C23A C 0.7250(3) 0.5842(3) -0.3245(2)
C24A C 0.7413(4) 0.5449(3) -0.2553(3)
H18A H 0.6998 0.5749 -0.2151
C25A C 0.8162(6) 0.4633(4) -0.2443(4)
H19A H 0.8253 0.4378 -0.1971
C26A C 0.8777(6) 0.4194(5) -0.3031(5)
H20A H 0.9285 0.3634 -0.2956
C27A C 0.8663(6) 0.4555(5) -0.3719(5)
H21A H 0.9097 0.4249 -0.4115
C28A C 0.7883(4) 0.5399(4) -0.3838(3)
H22A H 0.7798 0.5652 -0.4312
C29A C 0.5342(3) 0.8266(2) -0.15006(19)
H23A H 0.5847 0.7720 -0.1626
C30A C 0.5312(3) 0.8555(3) -0.0859(2)
H24A H 0.5794 0.8208 -0.0562
C31A C 0.4573(3) 0.9359(3) -0.06478(19)
C32A C 0.3904(3) 0.9847(3) -0.1123(2)
H25A H 0.3404 1.0401 -0.1013
C33A C 0.3976(3) 0.9513(2) -0.17609(19)
H26A H 0.3509 0.9853 -0.2069
C34A C 0.4528(3) 0.9684(3) 0.0066(2)
H27A H 0.4651 0.9134 0.0436
H28A H 0.3753 1.0031 0.0251
C35A C -0.1466(3) 0.7694(2) 1.35195(18)
C36A C -0.0889(3) 0.8019(3) 1.40062(19)
C37A C -0.1186(4) 0.7707(3) 1.4758(2)
H29A H -0.1759 0.7303 1.4970
C38A C -0.0617(5) 0.8006(4) 1.5202(3)
H30A H -0.0818 0.7802 1.5711
C39A C 0.0224(5) 0.8588(5) 1.4896(4)
H31A H 0.0610 0.8774 1.5192
C40A C 0.0495(6) 0.8893(5) 1.4161(4)
H32A H 0.1069 0.9297 1.3953
C41A C -0.0049(5) 0.8627(4) 1.3714(3)
H33A H 0.0148 0.8857 1.3209
C42A C -0.4819(3) 0.7320(3) 1.26997(19)
C43A C -0.5814(3) 0.8033(3) 1.25085(18)
C44A C -0.6551(4) 0.7808(3) 1.2153(3)
H34A H -0.6461 0.7195 1.2052
C45A C -0.7439(4) 0.8498(4) 1.1943(3)
H35A H -0.7934 0.8344 1.1700
C46A C -0.7576(4) 0.9391(4) 1.2093(3)
H36A H -0.8161 0.9851 1.1949
C47A C -0.6852(4) 0.9614(3) 1.2456(3)
H37A H -0.6952 1.0225 1.2563
C48A C -0.5983(4) 0.8945(3) 1.2664(2)
H38A H -0.5500 0.9105 1.2912
C49A C -0.0921(3) 0.6685(2) 1.17485(18)
H39A H -0.0771 0.7225 1.1877
C50A C -0.0257(3) 0.6409(2) 1.10853(19)
H40A H 0.0339 0.6755 1.0784
C51A C -0.0470(3) 0.5623(2) 1.08650(18)
C52A C -0.1354(3) 0.5141(2) 1.1348(2)
H41A H -0.1527 0.4601 1.1232
C53A C -0.1982(3) 0.5450(2) 1.2001(2)
H42A H -0.2584 0.5117 1.2312
C54A C 0.0211(3) 0.5372(2) 1.0126(2)
H43A H 0.1029 0.5162 1.0138
H44A H 0.0198 0.5945 0.9759
C55A C 0.4390(3) 1.0137(2) -0.38454(19)
H45A H 0.3596 1.0123 -0.3595
C56A C 0.4707(3) 1.0937(2) -0.43252(19)
H46A H 0.4132 1.1453 -0.4397
C57A C 0.5868(3) 1.0987(2) -0.47037(18)
C58A C 0.6677(3) 1.0189(3) -0.4585(2)
H47A H 0.7473 1.0189 -0.4834
C59A C 0.6302(3) 0.9397(2) -0.4097(2)
H48A H 0.6857 0.8865 -0.4030
C60A C 0.6257(4) 1.1891(2) -0.5210(2)
H49A H 0.5763 1.2108 -0.5552
H50A H 0.7069 1.1758 -0.5496
C61A C 0.6165(4) 1.2664(3) -0.4762(2)
H51A H 0.6736 1.2478 -0.4467
H52A H 0.5380 1.2733 -0.4426
C62A C 0.6390(4) 1.3611(3) -0.52536(19)
C63A C 0.5614(4) 1.4091(3) -0.5666(2)
H53A H 0.4947 1.3829 -0.5646
C64A C 0.5822(3) 1.4949(3) -0.6104(2)
H54A H 0.5285 1.5257 -0.6376
C65A C 0.7497(4) 1.4905(3) -0.5752(2)
H55A H 0.8149 1.5187 -0.5771
C66A C 0.7348(4) 1.4043(3) -0.5305(2)
H56A H 0.7895 1.3751 -0.5037
loop_
_geom_bond_atom_site_label_1
_geom_bond_atom_site_label_2
_geom_bond_site_symmetry_1
_geom_bond_site_symmetry_2
Zn1 O1 1_555 1_555
Zn2 N1 1_555 1_555
Zn3 N3 1_555 1_555
N1 C29 1_555 1_555
N2 Zn2 1_555 1_555
N3 C49 1_555 1_555
N4 Zn3 1_555 1_555
O1 C1 1_555 1_555
O2 C1 1_555 1_555
O3 Zn1 1_555 1_555
O4 C8 1_555 1_555
O5 Zn1 1_555 1_555
H1 O5 1_555 1_555
H2 O5 1_555 1_555
O6 Zn2 1_555 1_555
O7 C15 1_555 1_555
O8 Zn2 1_555 1_555
O9 C22 1_555 1_555
O10 Zn3 1_555 1_555
O11 C35 1_555 1_555
O12 Zn3 1_555 1_555
O13 C42 1_555 1_555
C1 C2 1_555 1_555
C2 C3 1_555 1_555
C3 H3 1_555 1_555
C4 C3 1_555 1_555
H4 C4 1_555 1_555
C5 C4 1_555 1_555
H5 C5 1_555 1_555
C6 C5 1_555 1_555
H6 C6 1_555 1_555
C7 C2 1_555 1_555
H7 C7 1_555 1_555
C8 O3 1_555 1_555
C9 C8 1_555 1_555
C10 C9 1_555 1_555
H8 C10 1_555 1_555
C11 C10 1_555 1_555
H9 C11 1_555 1_555
C12 C11 1_555 1_555
H10 C12 1_555 1_555
C13 C12 1_555 1_555
H11 C13 1_555 1_555
C14 C9 1_555 1_555
H12 C14 1_555 1_555
C15 O6 1_555 1_555
C16 C15 1_555 1_555
C17 C16 1_555 1_555
H13 C17 1_555 1_555
C18 C17 1_555 1_555
H14 C18 1_555 1_555
C19 C18 1_555 1_555
H15 C19 1_555 1_555
C20 C19 1_555 1_555
H16 C20 1_555 1_555
C21 C16 1_555 1_555
H17 C21 1_555 1_555
C22 O8 1_555 1_555
C23 C22 1_555 1_555
C24 C23 1_555 1_555
H18 C24 1_555 1_555
C25 C24 1_555 1_555
H19 C25 1_555 1_555
C26 C25 1_555 1_555
H20 C26 1_555 1_555
C27 C26 1_555 1_555
H21 C27 1_555 1_555
C28 C23 1_555 1_555
H22 C28 1_555 1_555
C29 H23 1_555 1_555
C30 C29 1_555 1_555
H24 C30 1_555 1_555
C31 C30 1_555 1_555
C32 C31 1_555 1_555
H25 C32 1_555 1_555
C33 N1 1_555 1_555
H26 C33 1_555 1_555
C34 C31 1_555 1_555
H27 C34 1_555 1_555
H28 C34 1_555 1_555
C35 O10 1_555 1_555
C36 C35 1_555 1_555
C37 C36 1_555 1_555
H29 C37 1_555 1_555
C38 C37 1_555 1_555
H30 C38 1_555 1_555
C39 C38 1_555 1_555
H31 C39 1_555 1_555
C40 C39 1_555 1_555
H32 C40 1_555 1_555
C41 C36 1_555 1_555
H33 C41 1_555 1_555
C42 O12 1_555 1_555
C43 C42 1_555 1_555
C44 C43 1_555 1_555
H34 C44 1_555 1_555
C45 C44 1_555 1_555
H35 C45 1_555 1_555
C46 C45 1_555 1_555
H36 C46 1_555 1_555
C47 C46 1_555 1_555
H37 C47 1_555 1_555
C48 C43 1_555 1_555
H38 C48 1_555 1_555
C49 H39 1_555 1_555
C50 C49 1_555 1_555
H40 C50 1_555 1_555
C51 C50 1_555 1_555
C52 C51 1_555 1_555
H41 C52 1_555 1_555
C53 N3 1_555 1_555
H42 C53 1_555 1_555
C54 C51 1_555 1_555
H43 C54 1_555 1_555
H44 C54 1_555 1_555
C55 N2 1_555 1_555
H45 C55 1_555 1_555
C56 C55 1_555 1_555
H46 C56 1_555 1_555
C57 C56 1_555 1_555
C58 C57 1_555 1_555
H47 C58 1_555 1_555
C59 N2 1_555 1_555
H48 C59 1_555 1_555
C60 C57 1_555 1_555
H49 C60 1_555 1_555
H50 C60 1_555 1_555
C61 C60 1_555 1_555
H51 C61 1_555 1_555
H52 C61 1_555 1_555
C62 C61 1_555 1_555
C63 C62 1_555 1_555
H53 C63 1_555 1_555
C64 N4 1_555 1_555
H54 C64 1_555 1_555
C65 N4 1_555 1_555
H55 C65 1_555 1_555
C66 C62 1_555 1_555
H56 C66 1_555 1_555
Zn1A O2 1_555 1_555
Zn2A N1A 1_555 1_555
Zn3A N3A 1_555 1_555
Zn3A_2 N4A 1_555 1_555
N1A C29A 1_555 1_555
N2A Zn2A 1_555 1_555
N3A C49A 1_555 1_555
N4A C64A 1_555 1_555
N4A_2 Zn3A 1_555 1_555
O1A Zn1A 1_555 1_555
O2A Zn1 1_555 1_555
O3A Zn1A 1_555 1_555
O4A Zn1 1_555 1_555
O5A Zn1A 1_555 1_555
H1A O5A 1_555 1_555
H2A O5A 1_555 1_555
O6A Zn2A 1_555 1_555
O7A C15A 1_555 1_555
O8A Zn2A 1_555 1_555
O9A C22A 1_555 1_555
O10A Zn3A 1_555 1_555
O11A C35A 1_555 1_555
O12A Zn3A 1_555 1_555
O13A C42A 1_555 1_555
C1A O1A 1_555 1_555
C2A C1A 1_555 1_555
C3A C2A 1_555 1_555
H3A C3A 1_555 1_555
C4A C3A 1_555 1_555
H4A C4A 1_555 1_555
C5A C4A 1_555 1_555
H5A C5A 1_555 1_555
C6A C5A 1_555 1_555
H6A C6A 1_555 1_555
C7A C2A 1_555 1_555
H7A C7A 1_555 1_555
C8A O3A 1_555 1_555
C9A C8A 1_555 1_555
C10A C9A 1_555 1_555
H8A C10A 1_555 1_555
C11A C10A 1_555 1_555
H9A C11A 1_555 1_555
C12A C11A 1_555 1_555
H10A C12A 1_555 1_555
C13A C12A 1_555 1_555
H11A C13A 1_555 1_555
C14A C9A 1_555 1_555
H12A C14A 1_555 1_555
C15A O6A 1_555 1_555
C16A C15A 1_555 1_555
C17A C16A 1_555 1_555
H13A C17A 1_555 1_555
C18A C17A 1_555 1_555
H14A C18A 1_555 1_555
C19A C18A 1_555 1_555
H15A C19A 1_555 1_555
C20A C19A 1_555 1_555
H16A C20A 1_555 1_555
C21A C16A 1_555 1_555
H17A C21A 1_555 1_555
C22A O8A 1_555 1_555
C23A C22A 1_555 1_555
C24A C23A 1_555 1_555
H18A C24A 1_555 1_555
C25A C24A 1_555 1_555
H19A C25A 1_555 1_555
C26A C25A 1_555 1_555
H20A C26A 1_555 1_555
C27A C26A 1_555 1_555
H21A C27A 1_555 1_555
C28A C23A 1_555 1_555
H22A C28A 1_555 1_555
C29A H23A 1_555 1_555
C30A C29A 1_555 1_555
H24A C30A 1_555 1_555
C31A C30A 1_555 1_555
C32A C31A 1_555 1_555
H25A C32A 1_555 1_555
C33A N1A 1_555 1_555
H26A C33A 1_555 1_555
C34A C34 1_555 1_555
H27A C34A 1_555 1_555
H28A C34A 1_555 1_555
C35A O10A 1_555 1_555
C36A C35A 1_555 1_555
C37A C36A 1_555 1_555
H29A C37A 1_555 1_555
C38A C37A 1_555 1_555
H30A C38A 1_555 1_555
C39A C38A 1_555 1_555
H31A C39A 1_555 1_555
C40A C39A 1_555 1_555
H32A C40A 1_555 1_555
C41A C36A 1_555 1_555
H33A C41A 1_555 1_555
C42A O12A 1_555 1_555
C43A C42A 1_555 1_555
C44A C43A 1_555 1_555
H34A C44A 1_555 1_555
C45A C44A 1_555 1_555
H35A C45A 1_555 1_555
C46A C45A 1_555 1_555
H36A C46A 1_555 1_555
C47A C46A 1_555 1_555
H37A C47A 1_555 1_555
C48A C43A 1_555 1_555
H38A C48A 1_555 1_555
C49A H39A 1_555 1_555
C50A C49A 1_555 1_555
H40A C50A 1_555 1_555
C51A C50A 1_555 1_555
C52A C51A 1_555 1_555
H41A C52A 1_555 1_555
C53A N3A 1_555 1_555
H42A C53A 1_555 1_555
C54A C54 1_555 1_555
H43A C54A 1_555 1_555
H44A C54A 1_555 1_555
C55A N2A 1_555 1_555
H45A C55A 1_555 1_555
C56A C55A 1_555 1_555
H46A C56A 1_555 1_555
C57A C56A 1_555 1_555
C58A C57A 1_555 1_555
H47A C58A 1_555 1_555
C59A N2A 1_555 1_555
H48A C59A 1_555 1_555
C60A C57A 1_555 1_555
H49A C60A 1_555 1_555
H50A C60A 1_555 1_555
C61A C60A 1_555 1_555
H51A C61A 1_555 1_555
H52A C61A 1_555 1_555
C62A C61A 1_555 1_555
C63A C62A 1_555 1_555
H53A C63A 1_555 1_555
C64A C63A 1_555 1_555
H54A C64A 1_555 1_555
C65A N4A 1_555 1_555
H55A C65A 1_555 1_555
C66A C62A 1_555 1_555
H56A C66A 1_555 1_555
O4 Zn1A 1_555 1_555
C6 C7 1_555 1_555
C13 C14 1_555 1_555
C20 C21 1_555 1_555
C27 C28 1_555 1_555
C32 C33 1_555 1_555
C40 C41 1_555 1_555
C47 C48 1_555 1_555
C52 C53 1_555 1_555
C58 C59 1_555 1_555
C63 C64 1_555 1_555
C65 C66 1_555 1_555
O2A C1A 1_555 1_555
O4A C8A 1_555 1_555
C6A C7A 1_555 1_555
C13A C14A 1_555 1_555
C20A C21A 1_555 1_555
C27A C28A 1_555 1_555
C31A C34A 1_555 1_555
C32A C33A 1_555 1_555
C40A C41A 1_555 1_555
C47A C48A 1_555 1_555
C51A C54A 1_555 1_555
C52A C53A 1_555 1_555
C58A C59A 1_555 1_555
C65A C66A 1_555 1_555

#END
