
#######################################################################
#
#                 Cambridge Crystallographic Data Centre
#                                CCDC 
#
#######################################################################
#
# If this CIF has been generated from an entry in the Cambridge 
# Structural Database, then it will include bibliographic, chemical, 
# crystal, experimental, refinement or atomic coordinate data resulting 
# from the CCDC's data processing and validation procedures.
#
#######################################################################

data_HOPVAK
_symmetry_cell_setting           triclinic
_symmetry_space_group_name_H-M   'P -1'
_symmetry_Int_Tables_number      2
_space_group_name_Hall           '-P 1'
loop_
_symmetry_equiv_pos_site_id
_symmetry_equiv_pos_as_xyz
1 x,y,z
2 -x,-y,-z
_cell_length_a                   10.2901(8)
_cell_length_b                   11.0667(8)
_cell_length_c                   13.1179(10)
_cell_angle_alpha                76.1630(10)
_cell_angle_beta                 67.4350(10)
_cell_angle_gamma                64.9150(10)
_cell_volume                     1244.13
loop_
_atom_site_label
_atom_site_type_symbol
_atom_site_fract_x
_atom_site_fract_y
_atom_site_fract_z
Zn1 Zn 0.29498(3) 0.03562(2) 0.28214(2)
Zn2 Zn 0.0000 0.0000 0.5000
N1 N 0.5025(2) 0.03543(19) 0.18013(16)
C1 C 0.5599(3) 0.1145(3) 0.1957(2)
H1 H 0.5031 0.1692 0.2536
C2 C 0.7002(3) 0.1194(3) 0.1297(2)
H2 H 0.7358 0.1758 0.1443
C3 C 0.7867(3) 0.0408(3) 0.04285(19)
C4 C 0.7262(3) -0.0397(3) 0.02637(19)
H3 H 0.7797 -0.0935 -0.0322
C5 C 0.5869(3) -0.0410(3) 0.09600(19)
H4 H 0.5500 -0.0979 0.0837
C6 C 0.9409(3) 0.0421(3) -0.0287(2)
H5 H 0.9370 0.1336 -0.0446
H6 H 0.9698 0.0071 -0.0986
O1 O 0.29951(18) 0.10294(17) 0.40576(13)
O2 O 0.11365(17) 0.06750(16) 0.55402(12)
C7 C 0.2216(2) 0.1070(2) 0.50722(18)
C8 C 0.2621(2) 0.1684(2) 0.57519(19)
C9 C 0.1614(3) 0.2089(3) 0.6783(2)
H7 H 0.0718 0.1929 0.7073
C10 C 0.1948(4) 0.2730(3) 0.7376(3)
H8 H 0.1256 0.3033 0.8054
C11 C 0.3297(4) 0.2924(3) 0.6968(3)
H9 H 0.3525 0.3345 0.7376
C12 C 0.4300(4) 0.2500(3) 0.5970(3)
H10 H 0.5215 0.2628 0.5702
C13 C 0.3980(3) 0.1885(3) 0.5348(2)
H11 H 0.4670 0.1606 0.4662
O3 O 0.14097(18) 0.17742(17) 0.22133(13)
O4 O -0.03900(18) 0.16396(16) 0.38091(13)
C14 C 0.0036(2) 0.2077(2) 0.28275(18)
C15 C -0.1147(3) 0.3035(2) 0.23135(19)
C16 C -0.2668(3) 0.3352(3) 0.2923(2)
H12 H -0.2949 0.2988 0.3653
C17 C -0.3778(3) 0.4210(3) 0.2450(3)
H13 H -0.4797 0.4419 0.2862
C18 C -0.3363(4) 0.4742(3) 0.1378(3)
H14 H -0.4105 0.5315 0.1061
C19 C -0.1867(4) 0.4442(3) 0.0766(3)
H15 H -0.1596 0.4815 0.0038
C20 C -0.0748(3) 0.3578(3) 0.1233(2)
H16 H 0.0269 0.3367 0.0814
O5 O 0.3164(2) -0.13328(18) 0.20023(15)
O6 O 0.21119(17) -0.11363(15) 0.37703(13)
C21 C 0.2529(2) -0.1778(2) 0.29376(19)
C22 C 0.2309(2) -0.3059(2) 0.30906(19)
C23 C 0.2518(3) -0.3618(2) 0.2176(2)
H17 H 0.2783 -0.3188 0.1470
C24 C 0.2329(4) -0.4824(3) 0.2321(3)
H18 H 0.2452 -0.5202 0.1712
C25 C 0.1957(4) -0.5460(3) 0.3373(3)
H19 H 0.1830 -0.6268 0.3470
C26 C 0.1774(3) -0.4917(3) 0.4267(3)
H20 H 0.1546 -0.5365 0.4970
C27 C 0.1925(3) -0.3707(2) 0.4138(2)
H21 H 0.1769 -0.3326 0.4754
Zn1A Zn -0.29498(3) -0.03562(2) 0.71786(2)
Zn1A_2 Zn 1.70502(3) -0.03562(2) -0.28214(2)
N1A N 1.4975(2) -0.03543(19) -0.18013(16)
N1A_2 N -0.5025(2) -0.03543(19) 0.81987(16)
C1A C 1.4401(3) -0.1145(3) -0.1957(2)
H1A H 1.4969 -0.1692 -0.2536
C2A C 1.2998(3) -0.1194(3) -0.1297(2)
H2A H 1.2642 -0.1758 -0.1443
C3A C 1.2133(3) -0.0408(3) -0.04285(19)
C4A C 1.2738(3) 0.0397(3) -0.02637(19)
H3A H 1.2203 0.0935 0.0322
C5A C 1.4131(3) 0.0410(3) -0.09600(19)
H4A H 1.4500 0.0979 -0.0837
C6A C 1.0591(3) -0.0421(3) 0.0287(2)
H5A H 1.0630 -0.1336 0.0446
H6A H 1.0302 -0.0071 0.0986
O1A O -0.29951(18) -0.10294(17) 0.59424(13)
O2A O -0.11365(17) -0.06750(16) 0.44598(12)
C7A C -0.2216(2) -0.1070(2) 0.49278(18)
C8A C -0.2621(2) -0.1684(2) 0.42481(19)
C9A C -0.1614(3) -0.2089(3) 0.3217(2)
H7A H -0.0718 -0.1929 0.2927
C10A C -0.1948(4) -0.2730(3) 0.2624(3)
H8A H -0.1256 -0.3033 0.1946
C11A C -0.3297(4) -0.2924(3) 0.3032(3)
H9A H -0.3525 -0.3345 0.2624
C12A C -0.4300(4) -0.2500(3) 0.4030(3)
H10A H -0.5215 -0.2628 0.4298
C13A C -0.3980(3) -0.1885(3) 0.4652(2)
H11A H -0.4670 -0.1606 0.5338
O3A O -0.14097(18) -0.17742(17) 0.77867(13)
O4A O 0.03900(18) -0.16396(16) 0.61909(13)
C14A C -0.0036(2) -0.2077(2) 0.71725(18)
C15A C 0.1147(3) -0.3035(2) 0.76865(19)
C16A C 0.2668(3) -0.3352(3) 0.7077(2)
H12A H 0.2949 -0.2988 0.6347
C17A C 0.3778(3) -0.4210(3) 0.7550(3)
H13A H 0.4797 -0.4419 0.7138
C18A C 0.3363(4) -0.4742(3) 0.8622(3)
H14A H 0.4105 -0.5315 0.8939
C19A C 0.1867(4) -0.4442(3) 0.9234(3)
H15A H 0.1596 -0.4815 0.9962
C20A C 0.0748(3) -0.3578(3) 0.8767(2)
H16A H -0.0269 -0.3367 0.9186
O5A O -0.3164(2) 0.13328(18) 0.79977(15)
O6A O -0.21119(17) 0.11363(15) 0.62297(13)
C21A C -0.2529(2) 0.1778(2) 0.70624(19)
C22A C -0.2309(2) 0.3059(2) 0.69094(19)
C23A C -0.2518(3) 0.3618(2) 0.7824(2)
H17A H -0.2783 0.3188 0.8530
C24A C -0.2329(4) 0.4824(3) 0.7679(3)
H18A H -0.2452 0.5202 0.8288
C25A C -0.1957(4) 0.5460(3) 0.6627(3)
H19A H -0.1830 0.6268 0.6530
C26A C -0.1774(3) 0.4917(3) 0.5733(3)
H20A H -0.1546 0.5365 0.5030
C27A C -0.1925(3) 0.3707(2) 0.5862(2)
H21A H -0.1769 0.3326 0.5246
loop_
_geom_bond_atom_site_label_1
_geom_bond_atom_site_label_2
_geom_bond_site_symmetry_1
_geom_bond_site_symmetry_2
Zn1 N1 1_555 1_555
Zn2 O2 1_555 1_555
N1 C1 1_555 1_555
C1 H1 1_555 1_555
C2 C1 1_555 1_555
H2 C2 1_555 1_555
C3 C2 1_555 1_555
C4 C3 1_555 1_555
H3 C4 1_555 1_555
C5 N1 1_555 1_555
H4 C5 1_555 1_555
C6 C3 1_555 1_555
H5 C6 1_555 1_555
H6 C6 1_555 1_555
O1 Zn1 1_555 1_555
O2 C7 1_555 1_555
C7 O1 1_555 1_555
C8 C7 1_555 1_555
C9 C8 1_555 1_555
H7 C9 1_555 1_555
C10 C9 1_555 1_555
H8 C10 1_555 1_555
C11 C10 1_555 1_555
H9 C11 1_555 1_555
C12 C11 1_555 1_555
H10 C12 1_555 1_555
C13 C8 1_555 1_555
H11 C13 1_555 1_555
O3 Zn1 1_555 1_555
O4 Zn2 1_555 1_555
C14 O3 1_555 1_555
C15 C14 1_555 1_555
C16 C15 1_555 1_555
H12 C16 1_555 1_555
C17 C16 1_555 1_555
H13 C17 1_555 1_555
C18 C17 1_555 1_555
H14 C18 1_555 1_555
C19 C18 1_555 1_555
H15 C19 1_555 1_555
C20 C15 1_555 1_555
H16 C20 1_555 1_555
O5 Zn1 1_555 1_555
O6 Zn1 1_555 1_555
C21 O5 1_555 1_555
C22 C21 1_555 1_555
C23 C22 1_555 1_555
H17 C23 1_555 1_555
C24 C23 1_555 1_555
H18 C24 1_555 1_555
C25 C24 1_555 1_555
H19 C25 1_555 1_555
C26 C25 1_555 1_555
H20 C26 1_555 1_555
C27 C22 1_555 1_555
H21 C27 1_555 1_555
Zn1A N1A_2 1_555 1_555
Zn1A_2 N1A 1_555 1_555
N1A C1A 1_555 1_555
C1A H1A 1_555 1_555
C2A C1A 1_555 1_555
H2A C2A 1_555 1_555
C3A C2A 1_555 1_555
C4A C3A 1_555 1_555
H3A C4A 1_555 1_555
C5A N1A 1_555 1_555
H4A C5A 1_555 1_555
C6A C6 1_555 1_555
H5A C6A 1_555 1_555
H6A C6A 1_555 1_555
O1A Zn1A 1_555 1_555
O2A Zn2 1_555 1_555
C7A O1A 1_555 1_555
C8A C7A 1_555 1_555
C9A C8A 1_555 1_555
H7A C9A 1_555 1_555
C10A C9A 1_555 1_555
H8A C10A 1_555 1_555
C11A C10A 1_555 1_555
H9A C11A 1_555 1_555
C12A C11A 1_555 1_555
H10A C12A 1_555 1_555
C13A C8A 1_555 1_555
H11A C13A 1_555 1_555
O3A Zn1A 1_555 1_555
O4A Zn2 1_555 1_555
C14A O3A 1_555 1_555
C15A C14A 1_555 1_555
C16A C15A 1_555 1_555
H12A C16A 1_555 1_555
C17A C16A 1_555 1_555
H13A C17A 1_555 1_555
C18A C17A 1_555 1_555
H14A C18A 1_555 1_555
C19A C18A 1_555 1_555
H15A C19A 1_555 1_555
C20A C15A 1_555 1_555
H16A C20A 1_555 1_555
O5A Zn1A 1_555 1_555
O6A Zn2 1_555 1_555
C21A O5A 1_555 1_555
C22A C21A 1_555 1_555
C23A C22A 1_555 1_555
H17A C23A 1_555 1_555
C24A C23A 1_555 1_555
H18A C24A 1_555 1_555
C25A C24A 1_555 1_555
H19A C25A 1_555 1_555
C26A C25A 1_555 1_555
H20A C26A 1_555 1_555
C27A C22A 1_555 1_555
H21A C27A 1_555 1_555
Zn2 O6 1_555 1_555
C4 C5 1_555 1_555
C12 C13 1_555 1_555
O4 C14 1_555 1_555
C19 C20 1_555 1_555
O6 C21 1_555 1_555
C26 C27 1_555 1_555
Zn1A O6A 1_555 1_555
C3A C6A 1_555 1_555
C4A C5A 1_555 1_555
O2A C7A 1_555 1_555
C12A C13A 1_555 1_555
O4A C14A 1_555 1_555
C19A C20A 1_555 1_555
O6A C21A 1_555 1_555
C26A C27A 1_555 1_555

#END
