
#######################################################################
#
#                 Cambridge Crystallographic Data Centre
#                                CCDC 
#
#######################################################################
#
# If this CIF has been generated from an entry in the Cambridge 
# Structural Database, then it will include bibliographic, chemical, 
# crystal, experimental, refinement or atomic coordinate data resulting 
# from the CCDC's data processing and validation procedures.
#
#######################################################################

data_HOPXAM
_symmetry_cell_setting           triclinic
_symmetry_space_group_name_H-M   'P -1'
_symmetry_Int_Tables_number      2
_space_group_name_Hall           '-P 1'
loop_
_symmetry_equiv_pos_site_id
_symmetry_equiv_pos_as_xyz
1 x,y,z
2 -x,-y,-z
_cell_length_a                   9.0826(11)
_cell_length_b                   10.1697(12)
_cell_length_c                   10.5345(15)
_cell_angle_alpha                103.392(11)
_cell_angle_beta                 113.643(12)
_cell_angle_gamma                100.673(10)
_cell_volume                     823.829
loop_
_atom_site_label
_atom_site_type_symbol
_atom_site_fract_x
_atom_site_fract_y
_atom_site_fract_z
Zn1 Zn 0.41551(2) 0.17854(2) 0.34038(2)
O1 O 0.52414(17) 0.29049(14) 0.55955(13)
O2 O 0.60965(15) 0.09330(13) 0.38658(14)
O3 O 0.81482(16) 0.28208(13) 0.57289(15)
O4 O 0.44289(15) 0.23984(12) 0.17940(13)
O5 O 0.50374(17) 0.45235(13) 0.33734(13)
N1 N 0.17726(19) 0.21781(16) 0.30055(16)
N2 N 0.23877(19) -0.02532(16) 0.22494(16)
C1 C 0.1554(2) 0.3433(2) 0.3475(2)
H1 H 0.2504 0.4232 0.4051
C2 C -0.0024(3) 0.3592(2) 0.3140(2)
H2 H -0.0134 0.4479 0.3482
C3 C -0.1434(3) 0.2405(2) 0.2285(2)
H3 H -0.2511 0.2480 0.2045
C4 C -0.1225(2) 0.1106(2) 0.1791(2)
H4 H -0.2161 0.0297 0.1205
C5 C 0.0399(2) 0.10218(19) 0.21777(19)
C6 C 0.0747(2) -0.03366(19) 0.17241(19)
C7 C -0.0517(2) -0.1622(2) 0.0821(2)
H5 H -0.1649 -0.1665 0.0453
C8 C -0.0079(3) -0.2833(2) 0.0474(2)
H6 H -0.0914 -0.3702 -0.0130
C9 C 0.1601(3) -0.2748(2) 0.1027(2)
H7 H 0.1921 -0.3555 0.0811
C10 C 0.2799(2) -0.14403(19) 0.1907(2)
H8 H 0.3937 -0.1377 0.2278
C11 C 0.7623(2) 0.15850(18) 0.48503(19)
C12 C 0.8857(2) 0.07621(18) 0.49324(18)
C13 C 1.0589(2) 0.14566(18) 0.57524(19)
H9 H 1.0988 0.2431 0.6260
C14 C 0.8281(2) -0.06980(19) 0.4187(2)
H10 H 0.7124 -0.1169 0.3642
C15 C 0.4797(2) 0.37448(18) 0.21601(18)
C16 C 0.4920(2) 0.43924(18) 0.10446(18)
C17 C 0.4695(2) 0.35490(18) -0.0307(2)
H11 H 0.4492 0.2573 -0.0517
C18 C 0.5229(2) 0.58489(18) 0.1338(2)
H12 H 0.5385 0.6425 0.2238
H13 H 0.516(3) 0.371(3) 0.589(3)
H14 H 0.636(4) 0.306(3) 0.586(3)
Zn1A Zn 1.58449(2) -0.17854(2) 0.65962(2)
Zn1A_2 Zn 0.58449(2) 0.82146(2) -0.34038(2)
O1A O 1.47586(17) -0.29049(14) 0.44045(13)
O2A O 1.39035(15) -0.09330(13) 0.61342(14)
O3A O 1.18518(16) -0.28208(13) 0.42711(15)
O4A O 0.55711(15) 0.76016(12) -0.17940(13)
O4A_2 O 1.55711(15) -0.23984(12) 0.82060(13)
O5A O 0.49626(17) 0.54765(13) -0.33734(13)
N1A N 1.82274(19) -0.21781(16) 0.69945(16)
N2A N 1.76123(19) 0.02532(16) 0.77506(16)
C1A C 1.8446(2) -0.3433(2) 0.6525(2)
H1A H 1.7496 -0.4232 0.5949
C2A C 2.0024(3) -0.3592(2) 0.6860(2)
H2A H 2.0134 -0.4479 0.6518
C3A C 2.1434(3) -0.2405(2) 0.7715(2)
H3A H 2.2511 -0.2480 0.7955
C4A C 2.1225(2) -0.1106(2) 0.8209(2)
H4A H 2.2161 -0.0297 0.8795
C5A C 1.9601(2) -0.10218(19) 0.78223(19)
C6A C 1.9253(2) 0.03366(19) 0.82759(19)
C7A C 2.0517(2) 0.1622(2) 0.9179(2)
H5A H 2.1649 0.1665 0.9547
C8A C 2.0079(3) 0.2833(2) 0.9526(2)
H6A H 2.0914 0.3702 1.0130
C9A C 1.8399(3) 0.2748(2) 0.8973(2)
H7A H 1.8079 0.3555 0.9189
C10A C 1.7201(2) 0.14403(19) 0.8093(2)
H8A H 1.6063 0.1377 0.7722
C11A C 1.2377(2) -0.15850(18) 0.51497(19)
C12A C 1.1143(2) -0.07621(18) 0.50676(18)
C13A C 0.9411(2) -0.14566(18) 0.42476(19)
H9A H 0.9012 -0.2431 0.3740
C14A C 1.1719(2) 0.06980(19) 0.5813(2)
H10A H 1.2876 0.1169 0.6358
C15A C 0.5203(2) 0.62552(18) -0.21601(18)
C16A C 0.5080(2) 0.56076(18) -0.10446(18)
C17A C 0.5305(2) 0.64510(18) 0.0307(2)
H11A H 0.5508 0.7427 0.0517
C18A C 0.4771(2) 0.41511(18) -0.1338(2)
H12A H 0.4615 0.3575 -0.2238
H13A H 1.484(3) -0.371(3) 0.411(3)
H14A H 1.364(4) -0.306(3) 0.414(3)
loop_
_geom_bond_atom_site_label_1
_geom_bond_atom_site_label_2
_geom_bond_site_symmetry_1
_geom_bond_site_symmetry_2
Zn1 O1 1_555 1_555
O1 H13 1_555 1_555
O2 Zn1 1_555 1_555
O3 C11 1_555 1_555
O4 Zn1 1_555 1_555
O5 C15 1_555 1_555
N1 Zn1 1_555 1_555
N2 Zn1 1_555 1_555
C1 N1 1_555 1_555
H1 C1 1_555 1_555
C2 C1 1_555 1_555
H2 C2 1_555 1_555
C3 C2 1_555 1_555
H3 C3 1_555 1_555
C4 C3 1_555 1_555
H4 C4 1_555 1_555
C5 N1 1_555 1_555
C6 N2 1_555 1_555
C7 C6 1_555 1_555
H5 C7 1_555 1_555
C8 C7 1_555 1_555
H6 C8 1_555 1_555
C9 C8 1_555 1_555
H7 C9 1_555 1_555
C10 N2 1_555 1_555
H8 C10 1_555 1_555
C11 O2 1_555 1_555
C12 C11 1_555 1_555
C13 C12 1_555 1_555
H9 C13 1_555 1_555
C14 C12 1_555 1_555
H10 C14 1_555 1_555
C15 O4 1_555 1_555
C16 C15 1_555 1_555
C17 C16 1_555 1_555
H11 C17 1_555 1_555
C18 C16 1_555 1_555
H12 C18 1_555 1_555
H14 O1 1_555 1_555
Zn1A O1A 1_555 1_555
Zn1A_2 O4A 1_555 1_555
O1A H13A 1_555 1_555
O2A Zn1A 1_555 1_555
O3A C11A 1_555 1_555
O4A C15A 1_555 1_555
O4A_2 Zn1A 1_555 1_555
O5A C15A 1_555 1_555
N1A Zn1A 1_555 1_555
N2A Zn1A 1_555 1_555
C1A N1A 1_555 1_555
H1A C1A 1_555 1_555
C2A C1A 1_555 1_555
H2A C2A 1_555 1_555
C3A C2A 1_555 1_555
H3A C3A 1_555 1_555
C4A C3A 1_555 1_555
H4A C4A 1_555 1_555
C5A N1A 1_555 1_555
C6A N2A 1_555 1_555
C7A C6A 1_555 1_555
H5A C7A 1_555 1_555
C8A C7A 1_555 1_555
H6A C8A 1_555 1_555
C9A C8A 1_555 1_555
H7A C9A 1_555 1_555
C10A N2A 1_555 1_555
H8A C10A 1_555 1_555
C11A O2A 1_555 1_555
C12A C11A 1_555 1_555
C13A C14 1_555 1_555
H9A C13A 1_555 1_555
C14A C13 1_555 1_555
H10A C14A 1_555 1_555
C15A C16A 1_555 1_555
C16A C17A 1_555 1_555
C17A C18 1_555 1_555
H11A C17A 1_555 1_555
C18A C17 1_555 1_555
H12A C18A 1_555 1_555
H14A O1A 1_555 1_555
C4 C5 1_555 1_555
C5 C6 1_555 1_555
C9 C10 1_555 1_555
C4A C5A 1_555 1_555
C5A C6A 1_555 1_555
C9A C10A 1_555 1_555
C12A C13A 1_555 1_555
C12A C14A 1_555 1_555
C16A C18A 1_555 1_555

#END
