
#######################################################################
#
#                 Cambridge Crystallographic Data Centre
#                                CCDC 
#
#######################################################################
#
# If this CIF has been generated from an entry in the Cambridge 
# Structural Database, then it will include bibliographic, chemical, 
# crystal, experimental, refinement or atomic coordinate data resulting 
# from the CCDC's data processing and validation procedures.
#
#######################################################################

data_HOPXOA
_symmetry_cell_setting           monoclinic
_symmetry_space_group_name_H-M   'C 2/c'
_symmetry_Int_Tables_number      15
_space_group_name_Hall           '-C 2yn'
loop_
_symmetry_equiv_pos_site_id
_symmetry_equiv_pos_as_xyz
1 x,y,z
2 -x,y,1/2-z
3 1/2+x,1/2+y,z
4 1/2-x,1/2+y,1/2-z
5 -x,-y,-z
6 x,-y,1/2+z
7 1/2-x,1/2-y,-z
8 1/2+x,1/2-y,1/2+z
_cell_length_a                   28.919(2)
_cell_length_b                   14.0004(10)
_cell_length_c                   21.2565(15)
_cell_angle_alpha                90
_cell_angle_beta                 108.4110(10)
_cell_angle_gamma                90
_cell_volume                     8165.77
loop_
_atom_site_label
_atom_site_type_symbol
_atom_site_fract_x
_atom_site_fract_y
_atom_site_fract_z
Cd1 Cd 0.126914(12) 0.14567(2) 0.444591(18)
O1 O -0.21245(16) 0.6842(3) 0.0905(3)
O2 O -0.09025(15) -0.3828(3) -0.0478(2)
O3 O 0.07590(14) 0.0449(3) 0.4855(2)
O4 O 0.06272(19) -0.0347(3) 0.5625(2)
O5 O 0.1196(2) 0.0666(4) 0.5865(3)
O6 O 0.16458(13) 0.2547(3) 0.3894(2)
O7 O 0.23238(14) 0.3241(3) 0.3962(2)
O8 O 0.23170(18) 0.1870(4) 0.4348(4)
N1 N 0.05639(13) 0.2358(3) 0.3960(2)
N2 N -0.06479(15) 0.4779(3) 0.2693(2)
N3 N -0.19121(19) 1.0446(3) -0.0063(4)
H1 H -0.215(3) 1.078(6) 0.006(4)
H2 H -0.202(3) 1.062(6) -0.041(5)
N4 N 0.10644(15) 0.0466(3) 0.3511(2)
N5 N 0.02680(14) -0.1952(3) 0.1769(2)
N6 N -0.15626(19) -0.7553(3) -0.0406(2)
H3 H -0.185(2) -0.757(4) -0.049(3)
H4 H -0.1558(18) -0.793(4) -0.085(3)
N7 N 0.0856(2) 0.0253(4) 0.5447(3)
N8 N 0.20991(15) 0.2561(3) 0.4063(2)
C1 C 0.0123(2) 0.1983(4) 0.3807(3)
H5 H 0.0092 0.1353 0.3927
C2 C -0.02944(19) 0.2484(4) 0.3474(3)
H6 H -0.0598 0.2197 0.3385
C3 C -0.02586(18) 0.3402(3) 0.3276(3)
C4 C 0.01996(18) 0.3797(4) 0.3437(3)
H7 H 0.0241 0.4423 0.3318
C5 C 0.05938(18) 0.3252(4) 0.3775(3)
H8 H 0.0901 0.3529 0.3881
C6 C -0.06956(19) 0.3941(4) 0.2868(3)
H9 H -0.1002 0.3656 0.2745
C7 C -0.10474(18) 0.5283(3) 0.2241(3)
C8 C -0.1464(2) 0.4863(4) 0.1834(3)
H10 H -0.1509 0.4209 0.1863
C9 C -0.1814(2) 0.5397(4) 0.1387(3)
H11 H -0.2092 0.5103 0.1109
C10 C -0.1755(2) 0.6357(4) 0.1350(3)
C11 C -0.1346(2) 0.6792(4) 0.1753(4)
H12 H -0.1303 0.7447 0.1728
C12 C -0.0992(2) 0.6239(4) 0.2203(4)
H13 H -0.0714 0.6532 0.2482
C13 C -0.2037(2) 0.7749(4) 0.0692(4)
C14 C -0.1780(2) 0.7859(4) 0.0268(4)
H14 H -0.1626 0.7336 0.0153
C15 C -0.1745(2) 0.8752(4) 0.0000(4)
H15 H -0.1582 0.8828 -0.0310
C16 C -0.19564(17) 0.9516(3) 0.0203(3)
C17 C -0.2206(2) 0.9400(4) 0.0642(3)
H16 H -0.2350 0.9923 0.0775
C18 C -0.2245(2) 0.8506(5) 0.0890(4)
H17 H -0.2415 0.8424 0.1193
C19 C 0.08632(18) -0.0393(3) 0.3522(3)
H18 H 0.0848 -0.0624 0.3925
C20 C 0.06801(18) -0.0944(4) 0.2971(3)
H19 H 0.0539 -0.1531 0.3004
C21 C 0.07027(18) -0.0641(3) 0.2374(3)
C22 C 0.0939(3) 0.0216(4) 0.2363(3)
H20 H 0.0978 0.0440 0.1971
C23 C 0.1115(2) 0.0732(4) 0.2942(3)
H21 H 0.1279 0.1300 0.2930
C24 C 0.0468(2) -0.1183(4) 0.1758(3)
H22 H 0.0473 -0.0935 0.1354
C25 C -0.00100(17) -0.2414(3) 0.1178(3)
C26 C -0.0131(2) -0.3356(4) 0.1231(3)
H23 H -0.0016 -0.3663 0.1639
C27 C -0.0421(2) -0.3853(4) 0.0685(3)
H24 H -0.0490 -0.4496 0.0724
C28 C -0.06063(19) -0.3400(4) 0.0095(3)
C29 C -0.0496(2) -0.2458(4) 0.0034(3)
H25 H -0.0624 -0.2150 -0.0372
C30 C -0.01999(19) -0.1969(4) 0.0568(3)
H26 H -0.0126 -0.1332 0.0521
C31 C -0.10551(19) -0.4763(3) -0.0424(3)
C32 C -0.1434(2) -0.4939(4) -0.0193(3)
H27 H -0.1580 -0.4439 -0.0038
C33 C -0.16009(19) -0.5860(4) -0.0188(3)
H28 H -0.1860 -0.5980 -0.0029
C34 C -0.13888(17) -0.6595(3) -0.0415(3)
C35 C -0.1005(2) -0.6414(4) -0.0642(3)
H29 H -0.0855 -0.6915 -0.0791
C36 C -0.0839(2) -0.5498(4) -0.0651(3)
H30 H -0.0581 -0.5377 -0.0812
Cd1A Cd -0.126914(12) 1.14567(2) 0.055409(18)
Cd1A_2 Cd -0.126914(12) -0.85433(2) 0.055409(18)
N3A N 0.19121(19) 0.0446(3) 0.5063(4)
H1A H 0.215(3) 0.078(6) 0.494(4)
H2A H 0.202(3) 0.062(6) 0.541(5)
N6A N 0.15626(19) 0.2447(3) 0.5406(2)
H3A H 0.185(2) 0.243(4) 0.549(3)
H4A H 0.1558(18) 0.207(4) 0.585(3)
loop_
_geom_bond_atom_site_label_1
_geom_bond_atom_site_label_2
_geom_bond_site_symmetry_1
_geom_bond_site_symmetry_2
Cd1 O3 1_555 1_555
O1 C10 1_555 1_555
O2 C28 1_555 1_555
O3 N7 1_555 1_555
O4 N7 1_555 1_555
O5 N7 1_555 1_555
O6 Cd1 1_555 1_555
O7 N8 1_555 1_555
O8 N8 1_555 1_555
N1 Cd1 1_555 1_555
N2 C6 1_555 1_555
N3 H1 1_555 1_555
H2 N3 1_555 1_555
N4 Cd1 1_555 1_555
N5 C24 1_555 1_555
N6 H3 1_555 1_555
H4 N6 1_555 1_555
N8 O6 1_555 1_555
C1 N1 1_555 1_555
H5 C1 1_555 1_555
C2 C1 1_555 1_555
H6 C2 1_555 1_555
C3 C2 1_555 1_555
C4 C3 1_555 1_555
H7 C4 1_555 1_555
C5 N1 1_555 1_555
H8 C5 1_555 1_555
C6 C3 1_555 1_555
H9 C6 1_555 1_555
C7 N2 1_555 1_555
C8 C7 1_555 1_555
H10 C8 1_555 1_555
C9 C8 1_555 1_555
H11 C9 1_555 1_555
C10 C9 1_555 1_555
C11 C10 1_555 1_555
H12 C11 1_555 1_555
C12 C7 1_555 1_555
H13 C12 1_555 1_555
C13 O1 1_555 1_555
C14 C13 1_555 1_555
H14 C14 1_555 1_555
C15 C14 1_555 1_555
H15 C15 1_555 1_555
C16 N3 1_555 1_555
C17 C16 1_555 1_555
H16 C17 1_555 1_555
C18 C13 1_555 1_555
H17 C18 1_555 1_555
C19 N4 1_555 1_555
H18 C19 1_555 1_555
C20 C19 1_555 1_555
H19 C20 1_555 1_555
C21 C20 1_555 1_555
C22 C21 1_555 1_555
H20 C22 1_555 1_555
C23 N4 1_555 1_555
H21 C23 1_555 1_555
C24 C21 1_555 1_555
H22 C24 1_555 1_555
C25 N5 1_555 1_555
C26 C25 1_555 1_555
H23 C26 1_555 1_555
C27 C26 1_555 1_555
H24 C27 1_555 1_555
C28 C27 1_555 1_555
C29 C28 1_555 1_555
H25 C29 1_555 1_555
C30 C25 1_555 1_555
H26 C30 1_555 1_555
C31 O2 1_555 1_555
C32 C31 1_555 1_555
H27 C32 1_555 1_555
C33 C32 1_555 1_555
H28 C33 1_555 1_555
C34 N6 1_555 1_555
C35 C34 1_555 1_555
H29 C35 1_555 1_555
C36 C31 1_555 1_555
H30 C36 1_555 1_555
Cd1A N3 1_555 1_555
Cd1A_2 N6 1_555 1_555
N3A Cd1 1_555 1_555
H1A N3A 1_555 1_555
H2A N3A 1_555 1_555
N6A Cd1 1_555 1_555
H3A N6A 1_555 1_555
H4A N6A 1_555 1_555
C4 C5 1_555 1_555
C11 C12 1_555 1_555
C15 C16 1_555 1_555
C17 C18 1_555 1_555
C22 C23 1_555 1_555
C29 C30 1_555 1_555
C33 C34 1_555 1_555
C35 C36 1_555 1_555

#END
