
#######################################################################
#
#                 Cambridge Crystallographic Data Centre
#                                CCDC 
#
#######################################################################
#
# If this CIF has been generated from an entry in the Cambridge 
# Structural Database, then it will include bibliographic, chemical, 
# crystal, experimental, refinement or atomic coordinate data resulting 
# from the CCDC's data processing and validation procedures.
#
#######################################################################

data_HOPZUI
_symmetry_cell_setting           orthorhombic
_symmetry_space_group_name_H-M   'P b c n'
_symmetry_Int_Tables_number      60
_space_group_name_Hall           '-P 2n 2ab'
loop_
_symmetry_equiv_pos_site_id
_symmetry_equiv_pos_as_xyz
1 x,y,z
2 1/2-x,1/2-y,1/2+z
3 -x,y,1/2-z
4 1/2+x,1/2-y,-z
5 -x,-y,-z
6 1/2+x,1/2+y,1/2-z
7 x,-y,1/2+z
8 1/2-x,1/2+y,z
_cell_length_a                   15.412(3)
_cell_length_b                   8.2158(17)
_cell_length_c                   23.273(5)
_cell_angle_alpha                90
_cell_angle_beta                 90
_cell_angle_gamma                90
_cell_volume                     2946.87
loop_
_atom_site_label
_atom_site_type_symbol
_atom_site_fract_x
_atom_site_fract_y
_atom_site_fract_z
Ni1 Ni -0.287070(19) 0.22275(4) -0.609770(13)
O1 O -0.29240(11) -0.0250(2) -0.60026(7)
O2 O -0.33944(11) -0.2692(2) -0.57988(7)
O3 O -0.54314(13) 0.2991(3) -0.66219(10)
O4 O -0.40529(11) 0.2932(2) -0.63572(7)
N1 N -0.32499(13) 0.2733(3) -0.52560(8)
N2 N -0.25913(14) 0.3109(2) -0.19309(8)
N3 N -0.36398(14) 0.4235(3) -0.35542(9)
H1 H -0.4028(15) 0.501(3) -0.3535(12)
C1 C -0.37793(15) 0.3969(3) -0.51127(10)
H2 H -0.4076 0.4524 -0.5412
C2 C -0.39142(16) 0.4474(3) -0.45563(10)
H3 H -0.4296 0.5355 -0.4479
C3 C -0.34849(15) 0.3679(3) -0.41032(10)
C4 C -0.29594(16) 0.2358(3) -0.42481(11)
H4 H -0.2670 0.1754 -0.3957
C5 C -0.28645(17) 0.1938(3) -0.48192(11)
H5 H -0.2505 0.1034 -0.4909
C6 C -0.21343(17) 0.2830(3) -0.24137(11)
H6 H -0.1568 0.2386 -0.2373
C7 C -0.24282(17) 0.3141(3) -0.29652(10)
H7 H -0.2072 0.2919 -0.3289
C8 C -0.32588(16) 0.3789(3) -0.30358(10)
C9 C -0.37276(16) 0.4110(3) -0.25351(11)
H8 H -0.4292 0.4568 -0.2562
C10 C -0.33854(16) 0.3775(3) -0.20060(11)
H9 H -0.3722 0.4022 -0.1675
C11 C -0.35274(15) -0.1186(3) -0.58255(10)
C12 C -0.44139(16) -0.0539(3) -0.56743(11)
H10 H -0.4362 0.0598 -0.5538
H11 H -0.4665 -0.1199 -0.5359
C13 C -0.50154(17) -0.0598(3) -0.61961(13)
H12 H -0.5064 -0.1740 -0.6328
H13 H -0.5601 -0.0236 -0.6077
C14 C -0.47163(17) 0.0452(3) -0.66989(12)
H14 H -0.4119 0.0135 -0.6808
H15 H -0.5099 0.0252 -0.7033
C15 C -0.47322(16) 0.2252(3) -0.65514(10)
Ni1G Ni -0.212930(19) -0.27725(4) -0.609770(13)
Ni1A Ni -0.212930(19) 0.27725(4) -0.109770(13)
O2G O -0.16056(11) 0.2308(2) -0.57988(7)
N2A N -0.24087(14) 0.1891(2) -0.69309(8)
loop_
_geom_bond_atom_site_label_1
_geom_bond_atom_site_label_2
_geom_bond_site_symmetry_1
_geom_bond_site_symmetry_2
Ni1 O1 1_555 1_555
O1 C11 1_555 1_555
O2 C11 1_555 1_555
O3 C15 1_555 1_555
O4 Ni1 1_555 1_555
N1 Ni1 1_555 1_555
N2 C6 1_555 1_555
N3 H1 1_555 1_555
C1 N1 1_555 1_555
H2 C1 1_555 1_555
C2 C1 1_555 1_555
H3 C2 1_555 1_555
C3 N3 1_555 1_555
C4 C3 1_555 1_555
H4 C4 1_555 1_555
C5 N1 1_555 1_555
H5 C5 1_555 1_555
C6 H6 1_555 1_555
C7 C6 1_555 1_555
H7 C7 1_555 1_555
C8 N3 1_555 1_555
C9 C8 1_555 1_555
H8 C9 1_555 1_555
C10 N2 1_555 1_555
H9 C10 1_555 1_555
C11 C12 1_555 1_555
C12 H10 1_555 1_555
H11 C12 1_555 1_555
C13 C12 1_555 1_555
H12 C13 1_555 1_555
H13 C13 1_555 1_555
C14 C13 1_555 1_555
H14 C14 1_555 1_555
H15 C14 1_555 1_555
C15 O4 1_555 1_555
Ni1G O2 1_555 1_555
Ni1A N2 1_555 1_555
O2G Ni1 1_555 1_555
N2A Ni1 1_555 1_555
C2 C3 1_555 1_555
C4 C5 1_555 1_555
C7 C8 1_555 1_555
C9 C10 1_555 1_555
C14 C15 1_555 1_555

#END
