
#######################################################################
#
#                 Cambridge Crystallographic Data Centre
#                                CCDC 
#
#######################################################################
#
# If this CIF has been generated from an entry in the Cambridge 
# Structural Database, then it will include bibliographic, chemical, 
# crystal, experimental, refinement or atomic coordinate data resulting 
# from the CCDC's data processing and validation procedures.
#
#######################################################################

data_HOQCIA
_symmetry_cell_setting           triclinic
_symmetry_space_group_name_H-M   'P -1'
_symmetry_Int_Tables_number      2
_space_group_name_Hall           '-P 1'
loop_
_symmetry_equiv_pos_site_id
_symmetry_equiv_pos_as_xyz
1 x,y,z
2 -x,-y,-z
_cell_length_a                   11.153(2)
_cell_length_b                   12.329(3)
_cell_length_c                   12.651(3)
_cell_angle_alpha                109.04(3)
_cell_angle_beta                 97.19(3)
_cell_angle_gamma                99.83(3)
_cell_volume                     1589.43
loop_
_atom_site_label
_atom_site_type_symbol
_atom_site_fract_x
_atom_site_fract_y
_atom_site_fract_z
Sm1 Sm 0.890742(13) 0.651851(13) 0.618223(13)
N1 N 0.9087(3) 0.8683(3) 0.6202(3)
N2 N 1.0143(3) 0.8281(3) 0.8064(3)
C1 C 0.8462(4) 0.8909(4) 0.5366(4)
H1 H 0.7943 0.8280 0.4766
C2 C 0.8545(5) 1.0049(5) 0.5340(5)
H2 H 0.8072 1.0170 0.4747
C3 C 0.9323(5) 1.0968(4) 0.6190(5)
H3 H 0.9406 1.1725 0.6174
C4 C 1.0001(4) 1.0778(4) 0.7094(4)
C5 C 1.0828(5) 1.1712(4) 0.8026(5)
H4 H 1.0978 1.2471 0.8010
C6 C 1.1386(5) 1.1513(4) 0.8910(5)
H5 H 1.1937 1.2132 0.9494
C7 C 1.1154(4) 1.0354(3) 0.8987(4)
C8 C 1.1587(4) 1.0130(4) 0.9970(4)
H6 H 1.2081 1.0736 1.0605
C9 C 1.1280(4) 0.9024(4) 0.9986(4)
H7 H 1.1536 0.8874 1.0643
C10 C 1.0574(3) 0.8108(3) 0.9008(3)
H8 H 1.0400 0.7348 0.9021
C11 C 1.0398(3) 0.9394(3) 0.8047(3)
C12 C 0.9821(3) 0.9612(3) 0.7078(3)
O1 O 1.0896(2) 0.6677(3) 0.5825(2)
O2 O 1.1951(3) 0.5476(2) 0.4863(2)
C13 C 1.1894(3) 0.6391(3) 0.5633(3)
C14 C 1.3093(3) 0.7224(3) 0.6389(3)
C15 C 1.3235(3) 0.8407(3) 0.6215(4)
H9 H 1.3289 0.8292 0.5428
H10 H 1.2512 0.8724 0.6373
C16 C 1.4244(3) 0.6724(3) 0.6131(3)
H11 H 1.4306 0.6590 0.5343
H12 H 1.4162 0.5975 0.6243
C17 C 1.3012(3) 0.7426(4) 0.7640(3)
H13 H 1.2916 0.6682 0.7763
H14 H 1.2292 0.7743 0.7814
C18 C 1.4308(4) 0.9461(4) 0.8242(5)
H15 H 1.5042 1.0017 0.8748
H16 H 1.3592 0.9783 0.8417
C19 C 1.4405(4) 0.9281(3) 0.7006(4)
H17 H 1.4486 1.0035 0.6888
C20 C 1.5551(3) 0.8775(3) 0.6744(4)
H18 H 1.6293 0.9324 0.7242
H19 H 1.5626 0.8666 0.5962
C21 C 1.5425(3) 0.7591(3) 0.6923(3)
C22 C 1.5310(3) 0.7778(4) 0.8166(3)
H20 H 1.6053 0.8314 0.8677
H21 H 1.5226 0.7033 0.8286
C23 C 1.4185(4) 0.8285(5) 0.8429(3)
H22 H 1.4122 0.8407 0.9223
C24 C 1.6584(3) 0.7135(3) 0.6663(3)
O3 O 1.7410(2) 0.7182(3) 0.7450(2)
O4 O 1.6742(2) 0.6740(3) 0.5642(2)
O5 O 0.9926(3) 0.3915(3) 0.7316(3)
O6 O 0.9406(2) 0.5600(2) 0.7437(2)
C25 C 0.9261(3) 0.4618(3) 0.7597(3)
C26 C 0.8174(3) 0.4327(3) 0.8164(3)
C27 C 0.8195(5) 0.3238(5) 0.8486(6)
H23 H 0.8957 0.3368 0.9018
H24 H 0.8164 0.2565 0.7811
C28 C 0.8171(4) 0.5379(4) 0.9217(3)
H25 H 0.8144 0.6065 0.9007
H26 H 0.8926 0.5556 0.9774
C29 C 0.6973(3) 0.4071(4) 0.7296(3)
H27 H 0.6959 0.3403 0.6621
H28 H 0.6943 0.4748 0.7070
C30 C 0.5841(4) 0.3801(4) 0.7823(3)
C31 C 0.5875(4) 0.4841(5) 0.8870(4)
H29 H 0.5158 0.4678 0.9201
H30 H 0.5839 0.5526 0.8660
C32 C 0.7042(4) 0.5099(5) 0.9738(4)
H31 H 0.7044 0.5781 1.0410
C33 C 0.7066(5) 0.2990(5) 0.9038(5)
H32 H 0.7095 0.2304 0.9263
C34 C 0.7088(4) 0.4049(6) 1.0087(4)
H33 H 0.6382 0.3884 1.0431
H34 H 0.7839 0.4211 1.0644
C35 C 0.5890(5) 0.2721(4) 0.8158(5)
H35 H 0.5168 0.2530 0.8474
H36 H 0.5887 0.2050 0.7491
C36 C 0.4637(5) 0.3710(6) 0.6924(6)
O7 O 0.3909(5) 0.4349(5) 0.7207(5)
H37 H 0.3180 0.4160 0.6810
O8 O 0.4530(4) 0.2878(6) 0.6041(4)
O9 O 0.8551(3) 0.6299(3) 0.4149(2)
H38 H 0.9199 0.6256 0.3912
H39 H 0.7938 0.6034 0.3806
Sm1A Sm 1.109258(13) 0.348149(13) 0.381777(13)
Sm1_2 Sm 1.890742(13) 0.651851(13) 0.618223(13)
O2A O 0.8049(3) 0.4524(2) 0.5137(2)
O3_2 O 0.7410(2) 0.7182(3) 0.7450(2)
O4_2 O 0.6742(2) 0.6740(3) 0.5642(2)
loop_
_geom_bond_atom_site_label_1
_geom_bond_atom_site_label_2
_geom_bond_site_symmetry_1
_geom_bond_site_symmetry_2
Sm1 N1 1_555 1_555
N1 C1 1_555 1_555
N2 Sm1 1_555 1_555
C1 H1 1_555 1_555
C2 C1 1_555 1_555
H2 C2 1_555 1_555
C3 C2 1_555 1_555
H3 C3 1_555 1_555
C4 C3 1_555 1_555
C5 C4 1_555 1_555
H4 C5 1_555 1_555
C6 C5 1_555 1_555
H5 C6 1_555 1_555
C7 C6 1_555 1_555
C8 C7 1_555 1_555
H6 C8 1_555 1_555
C9 C8 1_555 1_555
H7 C9 1_555 1_555
C10 N2 1_555 1_555
H8 C10 1_555 1_555
C11 N2 1_555 1_555
C12 N1 1_555 1_555
O1 Sm1 1_555 1_555
O2 C13 1_555 1_555
C13 O1 1_555 1_555
C14 C13 1_555 1_555
C15 C14 1_555 1_555
H9 C15 1_555 1_555
H10 C15 1_555 1_555
C16 C14 1_555 1_555
H11 C16 1_555 1_555
H12 C16 1_555 1_555
C17 C14 1_555 1_555
H13 C17 1_555 1_555
H14 C17 1_555 1_555
C18 H15 1_555 1_555
H16 C18 1_555 1_555
C19 C15 1_555 1_555
H17 C19 1_555 1_555
C20 C19 1_555 1_555
H18 C20 1_555 1_555
H19 C20 1_555 1_555
C21 C16 1_555 1_555
C22 C21 1_555 1_555
H20 C22 1_555 1_555
H21 C22 1_555 1_555
C23 C17 1_555 1_555
H22 C23 1_555 1_555
C24 C21 1_555 1_555
O3 C24 1_555 1_555
O4 C24 1_555 1_555
O5 C25 1_555 1_555
O6 Sm1 1_555 1_555
C25 O6 1_555 1_555
C26 C25 1_555 1_555
C27 C26 1_555 1_555
H23 C27 1_555 1_555
H24 C27 1_555 1_555
C28 C26 1_555 1_555
H25 C28 1_555 1_555
H26 C28 1_555 1_555
C29 C26 1_555 1_555
H27 C29 1_555 1_555
H28 C29 1_555 1_555
C30 C29 1_555 1_555
C31 C30 1_555 1_555
H29 C31 1_555 1_555
H30 C31 1_555 1_555
C32 C28 1_555 1_555
H31 C32 1_555 1_555
C33 C27 1_555 1_555
H32 C33 1_555 1_555
C34 C32 1_555 1_555
H33 C34 1_555 1_555
H34 C34 1_555 1_555
C35 C30 1_555 1_555
H35 C35 1_555 1_555
H36 C35 1_555 1_555
C36 C30 1_555 1_555
O7 C36 1_555 1_555
H37 O7 1_555 1_555
O8 C36 1_555 1_555
O9 Sm1 1_555 1_555
H38 O9 1_555 1_555
H39 O9 1_555 1_555
Sm1A O2 1_555 1_555
Sm1_2 O3 1_555 1_555
O2A Sm1 1_555 1_555
O3_2 Sm1 1_555 1_555
O4_2 Sm1 1_555 1_555
C4 C12 1_555 1_555
C7 C11 1_555 1_555
C9 C10 1_555 1_555
C11 C12 1_555 1_555
C18 C19 1_555 1_555
C18 C23 1_555 1_555
C20 C21 1_555 1_555
C22 C23 1_555 1_555
O4 Sm1_2 1_555 1_555
C31 C32 1_555 1_555
C33 C34 1_555 1_555
C33 C35 1_555 1_555

#END
