
#######################################################################
#
#                 Cambridge Crystallographic Data Centre
#                                CCDC 
#
#######################################################################
#
# If this CIF has been generated from an entry in the Cambridge 
# Structural Database, then it will include bibliographic, chemical, 
# crystal, experimental, refinement or atomic coordinate data resulting 
# from the CCDC's data processing and validation procedures.
#
#######################################################################

data_HOQDEX
_symmetry_cell_setting           triclinic
_symmetry_space_group_name_H-M   'P -1'
_symmetry_Int_Tables_number      2
_space_group_name_Hall           '-P 1'
loop_
_symmetry_equiv_pos_site_id
_symmetry_equiv_pos_as_xyz
1 x,y,z
2 -x,-y,-z
_cell_length_a                   5.2596(11)
_cell_length_b                   6.8649(14)
_cell_length_c                   9.3289(19)
_cell_angle_alpha                101.78(3)
_cell_angle_beta                 102.03(3)
_cell_angle_gamma                104.52(3)
_cell_volume                     306.998
loop_
_atom_site_label
_atom_site_type_symbol
_atom_site_fract_x
_atom_site_fract_y
_atom_site_fract_z
In1 In 0.11898(7) 0.04193(5) 0.32855(4)
Se1 Se 0.51554(10) 0.32097(8) 0.64038(5)
O1 O -0.0565(8) 0.2985(6) 0.3373(5)
O2 O 0.5279(7) 0.2711(6) 0.4572(4)
O3 O -0.2021(7) -0.1277(6) 0.0999(4)
O4 O -0.2825(8) -0.1588(6) -0.1486(4)
O5 O 0.7369(8) 0.2161(6) 0.7255(4)
O6 O 0.2041(7) 0.1344(7) 0.5917(4)
C1 C -0.1400(10) -0.0824(8) -0.0138(6)
H1 H -0.165(19) 0.295(15) 0.384(11)
H2 H -0.126(12) 0.321(9) 0.243(7)
In1A In -0.11898(7) -0.04193(5) -0.32855(4)
In1_2 In -0.88102(7) 0.04193(5) -0.67145(4)
In1_3 In 0.11898(7) 0.04193(5) -0.67145(4)
In1A_2 In -0.11898(7) -0.04193(5) 0.67145(4)
In1A_3 In 0.88102(7) -0.04193(5) 0.67145(4)
Se1A Se -0.51554(10) -0.32097(8) -0.64038(5)
O1A O 0.0565(8) -0.2985(6) -0.3373(5)
O2A O -0.5279(7) -0.2711(6) -0.4572(4)
O3A O 0.2021(7) 0.1277(6) -0.0999(4)
O4A O 0.2825(8) 0.1588(6) 0.1486(4)
O5A O -0.7369(8) -0.2161(6) -0.7255(4)
O5_2 O -0.2631(8) 0.2161(6) -0.2745(4)
O5A_2 O 0.2631(8) -0.2161(6) 0.2745(4)
O6A O -0.2041(7) -0.1344(7) -0.5917(4)
O6_2 O 0.2041(7) 0.1344(7) -0.4083(4)
O6A_2 O -0.2041(7) -0.1344(7) 0.4083(4)
C1A C 0.1400(10) 0.0824(8) 0.0138(6)
H1A H 0.165(19) -0.295(15) -0.384(11)
H2A H 0.126(12) -0.321(9) -0.243(7)
O7 O -0.7970(12) -0.3878(11) -0.0726(6)
H3 H -0.63(2) -0.324(15) -0.025(11)
H4 H -0.807(18) -0.487(14) -0.063(10)
loop_
_geom_bond_atom_site_label_1
_geom_bond_atom_site_label_2
_geom_bond_site_symmetry_1
_geom_bond_site_symmetry_2
In1 O1 1_555 1_555
Se1 O2 1_555 1_555
O1 H1 1_555 1_555
O2 In1 1_555 1_555
O3 In1 1_555 1_555
O4 C1 1_555 1_555
O5 Se1 1_555 1_555
O6 In1 1_555 1_555
O7 H3 1_555 1_555
C1 O3 1_555 1_555
H2 O1 1_555 1_555
H4 O7 1_555 1_555
In1A O4 1_555 1_555
In1_2 O5A 1_555 1_555
In1_3 O6A 1_555 1_555
In1A_2 O6 1_555 1_555
In1A_3 O5 1_555 1_555
Se1A O2A 1_555 1_555
O1A In1A 1_555 1_555
O2A In1A 1_555 1_555
O3A In1A 1_555 1_555
O4A In1 1_555 1_555
O5A Se1A 1_555 1_555
O5_2 In1A 1_555 1_555
O5A_2 In1 1_555 1_555
O6A In1A 1_555 1_555
O6_2 In1A 1_555 1_555
O6A_2 In1 1_555 1_555
C1A C1 1_555 1_555
H1A O1A 1_555 1_555
H2A O1A 1_555 1_555
Se1 O6 1_555 1_555
In1_3 O6_2 1_555 1_555
In1A_2 O6A_2 1_555 1_555
Se1A O6A 1_555 1_555
O3A C1A 1_555 1_555
O4A C1A 1_555 1_555

#END
