
#######################################################################
#
#                 Cambridge Crystallographic Data Centre
#                                CCDC 
#
#######################################################################
#
# If this CIF has been generated from an entry in the Cambridge 
# Structural Database, then it will include bibliographic, chemical, 
# crystal, experimental, refinement or atomic coordinate data resulting 
# from the CCDC's data processing and validation procedures.
#
#######################################################################

data_HOQDAT
_symmetry_cell_setting           triclinic
_symmetry_space_group_name_H-M   'P -1'
_symmetry_Int_Tables_number      2
_space_group_name_Hall           '-P 1'
loop_
_symmetry_equiv_pos_site_id
_symmetry_equiv_pos_as_xyz
1 x,y,z
2 -x,-y,-z
_cell_length_a                   12.805(3)
_cell_length_b                   18.094(4)
_cell_length_c                   26.128(5)
_cell_angle_alpha                80.69(3)
_cell_angle_beta                 86.39(3)
_cell_angle_gamma                84.09(3)
_cell_volume                     5935.58
loop_
_atom_site_label
_atom_site_type_symbol
_atom_site_fract_x
_atom_site_fract_y
_atom_site_fract_z
Er1 Er 1.09709(4) 0.19267(3) -0.04376(2)
Er2 Er 1.07802(5) -0.31146(3) -0.03929(2)
Er3 Er 1.19500(5) -0.28494(3) 0.09668(2)
N1 N 1.2119(9) -0.2825(6) 0.1924(4)
N2 N 1.3769(9) -0.2761(6) 0.1225(4)
O1 O 1.2229(9) 0.1314(5) -0.0973(4)
O2 O 1.2003(8) 0.0775(5) -0.0169(4)
O3 O 1.2176(8) -0.2442(6) -0.0478(4)
O4 O 1.2817(9) -0.2207(6) 0.0237(4)
O5 O 1.1415(10) -0.1709(6) 0.1109(5)
O6 O 1.0023(8) -0.1103(5) 0.0726(4)
O7 O 1.0308(9) 0.1717(5) 0.0394(4)
O8 O 0.9924(10) 0.2218(5) 0.1086(4)
O9 O 1.2591(8) 0.6061(5) 0.0733(4)
O10 O 1.1489(10) 0.5880(6) 0.0137(5)
O11 O 1.2331(8) 0.2524(6) -0.0150(5)
O12 O 1.0886(8) 0.3192(5) 0.0013(4)
O13 O 1.0261(8) 0.6017(6) -0.0879(4)
O14 O 1.1859(9) 0.6334(6) -0.1022(5)
O15 O 0.9421(8) 0.3468(5) -0.1351(4)
O16 O 1.0916(8) 0.2779(5) -0.1146(4)
O17 O 0.9277(7) 0.2552(6) -0.0359(3)
C1 C 1.3210(15) -0.1405(8) -0.1128(6)
H1 H 1.2498 -0.1413 -0.1232
H2 H 1.3615 -0.1860 -0.1204
C2 C 1.4342(11) -0.1361(7) -0.0390(7)
H3 H 1.4345 -0.1336 -0.0022
H4 H 1.4768 -0.1813 -0.0457
C3 C 1.3192(10) -0.1387(7) -0.0549(5)
C4 C 1.4787(15) -0.0721(10) -0.1275(8)
H5 H 1.5108 -0.0296 -0.1476
H6 H 1.5198 -0.1178 -0.1345
C5 C 1.4800(12) -0.0672(9) -0.0702(8)
H7 H 1.5524 -0.0656 -0.0606
C6 C 1.3690(16) -0.0720(8) -0.1439(6)
H8 H 1.3702 -0.0751 -0.1811
C7 C 1.3015(13) -0.0005(7) -0.1331(5)
H9 H 1.3306 0.0435 -0.1528
H10 H 1.2305 -0.0014 -0.1437
C8 C 1.4132(11) 0.0030(7) -0.0584(7)
H11 H 1.4437 0.0473 -0.0768
H12 H 1.4127 0.0049 -0.0215
C9 C 1.2543(10) -0.0664(7) -0.0436(5)
H13 H 1.2542 -0.0639 -0.0068
H14 H 1.1822 -0.0673 -0.0527
C10 C 1.2999(10) 0.0035(7) -0.0748(5)
C11 C 1.2376(10) 0.0748(7) -0.0620(5)
C12 C 1.2689(10) -0.2054(7) -0.0249(5)
C13 C 1.2330(15) 0.0242(9) 0.1558(9)
H15 H 1.3087 0.0268 0.1578
C14 C 1.0696(18) 0.0084(8) 0.2066(6)
H16 H 1.0384 0.0018 0.2421
C15 C 1.185(2) 0.0131(10) 0.2086(8)
H17 H 1.2171 -0.0329 0.2282
H18 H 1.1972 0.0547 0.2260
C16 C 1.2162(12) -0.0422(8) 0.1289(7)
H19 H 1.2501 -0.0357 0.0945
H20 H 1.2477 -0.0883 0.1485
C17 C 1.0445(14) -0.0573(7) 0.1796(5)
H21 H 0.9691 -0.0567 0.1772
H22 H 1.0702 -0.1050 0.1994
C18 C 1.0159(15) 0.0820(7) 0.1750(5)
H23 H 1.0251 0.1248 0.1917
H24 H 0.9411 0.0780 0.1739
C19 C 1.1864(14) 0.0965(8) 0.1243(7)
H25 H 1.1985 0.1390 0.1409
H26 H 1.2202 0.1032 0.0898
C20 C 1.0649(11) 0.0934(7) 0.1203(5)
C21 C 1.0984(10) -0.0476(6) 0.1249(5)
C22 C 1.0497(11) 0.0258(6) 0.0936(5)
H27 H 0.9753 0.0226 0.0905
H28 H 1.0826 0.0328 0.0589
C23 C 1.0800(12) -0.1136(7) 0.0995(5)
C24 C 1.0252(11) 0.1661(7) 0.0886(5)
C25 C 1.2366(13) 0.3212(8) 0.0901(6)
H29 H 1.1631 0.3238 0.1018
H30 H 1.2651 0.2689 0.0962
C26 C 1.2466(11) 0.3519(7) 0.0325(6)
C27 C 1.3634(10) 0.3478(8) 0.0153(7)
H31 H 1.3711 0.3675 -0.0214
H32 H 1.3930 0.2958 0.0205
C28 C 1.4227(14) 0.3929(9) 0.0462(9)
H33 H 1.4973 0.3892 0.0351
C29 C 1.4105(16) 0.3601(9) 0.1041(8)
H34 H 1.4498 0.3870 0.1245
H35 H 1.4378 0.3076 0.1096
C30 C 1.2967(15) 0.3674(8) 0.1207(6)
H36 H 1.2893 0.3470 0.1577
C31 C 1.2519(13) 0.4491(8) 0.1129(6)
H37 H 1.1785 0.4529 0.1248
H38 H 1.2897 0.4775 0.1329
C32 C 1.3773(11) 0.4763(8) 0.0365(7)
H39 H 1.3840 0.4961 -0.0002
H40 H 1.4158 0.5058 0.0553
C33 C 1.2624(10) 0.4815(6) 0.0548(5)
C34 C 1.2018(9) 0.4362(6) 0.0235(5)
H41 H 1.1278 0.4404 0.0343
H42 H 1.2083 0.4564 -0.0132
C35 C 1.2200(11) 0.5646(7) 0.0467(5)
C36 C 1.1877(12) 0.3061(7) 0.0035(6)
C37 C 1.0663(16) 0.4367(9) -0.2125(5)
H43 H 0.9915 0.4519 -0.2108
H44 H 1.0791 0.3990 -0.2352
C38 C 1.1024(11) 0.4030(7) -0.1578(5)
C39 C 1.2225(15) 0.3791(9) -0.1603(8)
H45 H 1.2381 0.3407 -0.1824
H46 H 1.2460 0.3587 -0.1259
C40 C 1.2792(14) 0.4493(11) -0.1826(9)
H47 H 1.3549 0.4344 -0.1850
C41 C 1.2434(18) 0.4800(12) -0.2364(8)
H48 H 1.2818 0.5225 -0.2511
H49 H 1.2579 0.4416 -0.2586
C42 C 1.126(2) 0.5046(9) -0.2343(6)
H50 H 1.1028 0.5261 -0.2691
C43 C 1.2594(12) 0.5072(9) -0.1465(7)
H51 H 1.2834 0.4860 -0.1123
H52 H 1.2975 0.5506 -0.1596
C44 C 1.1054(15) 0.5635(8) -0.1978(6)
H53 H 1.0311 0.5805 -0.1965
H54 H 1.1437 0.6065 -0.2113
C45 C 1.1394(11) 0.5313(7) -0.1432(5)
C46 C 1.0800(10) 0.4640(7) -0.1223(5)
H55 H 1.1013 0.4434 -0.0875
H56 H 1.0052 0.4794 -0.1205
C47 C 1.1194(11) 0.5926(7) -0.1090(5)
C48 C 1.0413(11) 0.3378(7) -0.1347(5)
C49 C 1.4611(11) -0.2767(7) 0.0911(5)
H57 H 1.4562 -0.2974 0.0611
C50 C 1.5495(17) -0.2520(13) 0.0968(8)
H58 H 1.6017 -0.2495 0.0704
C51 C 1.5640(13) -0.2293(11) 0.1432(8)
H59 H 1.6279 -0.2129 0.1493
C52 C 1.4890(18) -0.2074(13) 0.2310(8)
H60 H 1.5509 -0.1901 0.2392
C53 C 1.4080(16) -0.2100(10) 0.2649(7)
H61 H 1.4142 -0.1951 0.2970
C54 C 1.2239(15) -0.2395(9) 0.2881(6)
H62 H 1.2287 -0.2251 0.3204
C55 C 1.1328(16) -0.2638(11) 0.2763(7)
H63 H 1.0745 -0.2664 0.2994
C56 C 1.1325(14) -0.2851(9) 0.2262(6)
H64 H 1.0713 -0.3021 0.2169
C57 C 1.4817(13) -0.2310(8) 0.1816(6)
C58 C 1.3876(11) -0.2538(7) 0.1688(5)
C59 C 1.3093(13) -0.2356(7) 0.2533(6)
C60 C 1.2999(11) -0.2572(7) 0.2054(5)
H129 H 0.929(7) 0.190(5) -0.034(4)
Er1A Er 0.90291(4) -0.19267(3) 0.04376(2)
Er2A Er 0.92198(5) 0.31146(3) 0.03929(2)
Er2_2 Er 1.07802(5) 0.68854(3) -0.03929(2)
Er3_2 Er 1.19500(5) 0.71506(3) 0.09668(2)
Er3A Er 0.80500(5) 0.28494(3) -0.09668(2)
O6A O 0.9977(8) 0.1103(5) -0.0726(4)
O8A O 1.0076(10) -0.2218(5) -0.1086(4)
O9_2 O 1.2591(8) -0.3939(5) 0.0733(4)
O10_2 O 1.1489(10) -0.4120(6) 0.0137(5)
O12A O 0.9114(8) -0.3192(5) -0.0013(4)
O13_2 O 1.0261(8) -0.3983(6) -0.0879(4)
O14_2 O 1.1859(9) -0.3666(6) -0.1022(5)
O15A O 1.0579(8) -0.3468(5) 0.1351(4)
O17A O 1.0723(7) -0.2552(6) 0.0359(3)
H129A H 1.071(7) -0.190(5) 0.034(4)
Er4 Er 0.42041(4) 0.20481(3) 0.46072(2)
Er5 Er 0.71471(4) 0.25564(3) 0.40379(2)
Er6 Er 0.42630(4) -0.29820(3) 0.45583(2)
N3 N 0.7744(9) 0.2559(6) 0.3119(4)
N4 N 0.9071(9) 0.2594(6) 0.3868(5)
O18 O 0.6582(10) 0.1538(5) 0.3832(4)
O19 O 0.5288(8) 0.1096(5) 0.4320(4)
O20 O 0.5155(8) -0.1733(5) 0.4578(3)
O21 O 0.4962(8) -0.2143(5) 0.3863(4)
O22 O 0.2213(9) -0.1753(6) 0.5262(4)
O23 O 0.2790(7) -0.2200(5) 0.4553(4)
O24 O 0.3128(8) 0.1051(5) 0.4856(3)
O25 O 0.3132(8) 0.1594(5) 0.4049(4)
O26 O 0.4891(7) 0.6062(5) 0.4073(4)
O27 O 0.3297(8) 0.6588(5) 0.3933(4)
O28 O 0.5796(8) 0.3301(5) 0.3602(4)
O29 O 0.4223(8) 0.2897(6) 0.3885(4)
O30 O 0.2533(8) 0.6389(5) 0.5705(4)
O31 O 0.3551(8) 0.6025(5) 0.5067(4)
O32 O 0.2677(8) 0.2780(6) 0.4907(4)
O33 O 0.4110(6) 0.3208(5) 0.5101(4)
O34 O 0.5782(8) 0.2595(7) 0.4624(4)
C61 C 0.740(2) -0.0473(11) 0.2967(9)
H65 H 0.7789 -0.0072 0.2785
H66 H 0.7575 -0.0916 0.2803
C62 C 0.7674(14) -0.0644(9) 0.3539(9)
H67 H 0.8426 -0.0808 0.3559
C63 C 0.6234(17) -0.0240(8) 0.2939(6)
H68 H 0.6052 -0.0129 0.2574
C64 C 0.7439(11) 0.0044(8) 0.3785(7)
H69 H 0.7836 0.0442 0.3601
H70 H 0.7647 -0.0060 0.4142
C65 C 0.5585(16) -0.0841(8) 0.3218(5)
H71 H 0.5713 -0.1288 0.3054
H72 H 0.4845 -0.0667 0.3198
C66 C 0.7040(12) -0.1282(8) 0.3818(7)
H73 H 0.7205 -0.1727 0.3655
H74 H 0.7227 -0.1407 0.4178
C67 C 0.5970(16) 0.0487(8) 0.3194(5)
H75 H 0.6365 0.0888 0.3013
H76 H 0.5227 0.0652 0.3174
C68 C 0.5875(10) -0.1033(6) 0.3791(5)
C69 C 0.6270(10) 0.0297(6) 0.3770(5)
C70 C 0.5633(10) -0.0321(6) 0.4052(5)
H77 H 0.4889 -0.0155 0.4038
H78 H 0.5809 -0.0436 0.4413
C71 C 0.6018(10) 0.1020(6) 0.3995(5)
C72 C 0.5276(10) -0.1665(7) 0.4090(5)
C73 C 0.1111(10) 0.0637(7) 0.4369(6)
H79 H 0.0878 0.1118 0.4168
H80 H 0.0991 0.0678 0.4734
C74 C 0.2470(12) 0.0389(7) 0.3677(5)
H81 H 0.2248 0.0869 0.3472
H82 H 0.3210 0.0266 0.3594
C75 C 0.2310(10) 0.0446(7) 0.4249(5)
C76 C 0.0674(13) -0.0018(9) 0.3658(7)
H83 H 0.0454 0.0462 0.3453
H84 H 0.0263 -0.0395 0.3566
C77 C 0.0480(10) 0.0033(8) 0.4237(6)
H85 H -0.0269 0.0166 0.4310
C78 C 0.1825(13) -0.0227(8) 0.3542(5)
H86 H 0.1940 -0.0263 0.3172
C79 C 0.2184(13) -0.0979(7) 0.3863(5)
H87 H 0.1791 -0.1369 0.3777
H88 H 0.2923 -0.1110 0.3784
C80 C 0.2633(9) -0.0324(7) 0.4585(5)
H89 H 0.2497 -0.0286 0.4950
H90 H 0.3379 -0.0460 0.4528
C81 C 0.2010(10) -0.0930(7) 0.4441(5)
C82 C 0.0827(10) -0.0732(7) 0.4559(5)
H91 H 0.0700 -0.0707 0.4926
H92 H 0.0426 -0.1117 0.4472
C83 C 0.2366(10) -0.1676(7) 0.4773(5)
C84 C 0.2895(9) 0.1063(6) 0.4398(5)
C85 C 0.3140(18) 0.5126(10) 0.2553(7)
H93 H 0.3065 0.4773 0.2319
H94 H 0.2814 0.5614 0.2403
C86 C 0.4310(16) 0.5177(8) 0.2624(6)
H95 H 0.4660 0.5342 0.2287
C87 C 0.2598(13) 0.4866(8) 0.3079(7)
H96 H 0.1851 0.4837 0.3034
C88 C 0.2717(12) 0.5440(8) 0.3443(7)
H97 H 0.2367 0.5285 0.3777
H98 H 0.2388 0.5929 0.3296
C89 C 0.4813(13) 0.4409(8) 0.2857(5)
H99 H 0.4755 0.4051 0.2624
H100 H 0.5553 0.4439 0.2902
C90 C 0.4417(13) 0.5740(8) 0.2985(6)
H101 H 0.5155 0.5775 0.3030
H102 H 0.4108 0.6232 0.2833
C91 C 0.3092(11) 0.4100(7) 0.3320(6)
H103 H 0.2748 0.3945 0.3656
H104 H 0.3004 0.3731 0.3099
C92 C 0.4265(11) 0.4145(7) 0.3383(5)
C93 C 0.3863(10) 0.5496(7) 0.3514(5)
C94 C 0.4394(10) 0.4715(6) 0.3749(5)
H105 H 0.4069 0.4551 0.4088
H106 H 0.5134 0.4749 0.3790
C95 C 0.4023(11) 0.6076(7) 0.3864(5)
C96 C 0.4825(10) 0.3392(7) 0.3629(5)
C97 C 0.1355(10) 0.3950(7) 0.5252(6)
H107 H 0.1314 0.4135 0.4883
H108 H 0.1031 0.3481 0.5327
C98 C 0.2489(10) 0.3818(7) 0.5394(5)
C99 C 0.2573(11) 0.3530(7) 0.5974(5)
H109 H 0.3306 0.3450 0.6060
H110 H 0.2268 0.3055 0.6063
C100 C 0.1994(12) 0.4107(8) 0.6275(6)
H111 H 0.2046 0.3922 0.6648
C101 C 0.0847(12) 0.4224(8) 0.6148(7)
H112 H 0.0531 0.3752 0.6235
H113 H 0.0474 0.4582 0.6350
C102 C 0.0768(11) 0.4524(8) 0.5562(6)
H114 H 0.0028 0.4603 0.5474
C103 C 0.2510(12) 0.4848(7) 0.6144(5)
H115 H 0.3243 0.4763 0.6229
H116 H 0.2162 0.5212 0.6348
C104 C 0.2426(10) 0.5153(6) 0.5567(5)
C105 C 0.1255(10) 0.5267(7) 0.5446(6)
H117 H 0.1181 0.5478 0.5083
H118 H 0.0889 0.5619 0.5655
C106 C 0.2999(10) 0.4576(6) 0.5251(5)
H119 H 0.2946 0.4760 0.4883
H120 H 0.3737 0.4499 0.5328
C107 C 0.2889(10) 0.5902(7) 0.5432(5)
C108 C 0.3101(10) 0.3245(7) 0.5099(5)
C109 C 0.7082(13) 0.2513(8) 0.2752(6)
H121 H 0.6366 0.2526 0.2841
C110 C 0.7417(16) 0.2448(9) 0.2249(6)
H122 H 0.6929 0.2427 0.2003
C111 C 0.8453(15) 0.2413(9) 0.2112(6)
H123 H 0.8682 0.2357 0.1774
C112 C 1.0261(16) 0.2526(10) 0.2364(8)
H124 H 1.0519 0.2531 0.2023
C113 C 1.0928(16) 0.2580(10) 0.2732(9)
H125 H 1.1643 0.2585 0.2645
C114 C 1.1180(12) 0.2699(9) 0.3659(8)
H126 H 1.1899 0.2733 0.3602
C115 C 1.0725(14) 0.2715(9) 0.4130(8)
H127 H 1.1121 0.2758 0.4408
C116 C 0.9760(13) 0.2673(8) 0.4190(7)
H128 H 0.9488 0.2703 0.4526
C117 C 0.9189(11) 0.2463(8) 0.2482(6)
C118 C 0.8777(10) 0.2534(7) 0.2986(5)
C119 C 1.0560(12) 0.2629(8) 0.3252(7)
C120 C 0.9490(11) 0.2588(7) 0.3389(6)
H130 H 0.618(13) 0.285(9) 0.471(6)
Er4A Er 0.57959(4) -0.20481(3) 0.53928(2)
Er5A Er 0.28529(4) -0.25564(3) 0.59621(2)
Er5A_2 Er 0.28529(4) 0.74436(3) 0.59621(2)
Er6_2 Er 0.42630(4) 0.70180(3) 0.45583(2)
Er6A Er 0.57370(4) 0.29820(3) 0.54417(2)
O20A O 0.4845(8) 0.1733(5) 0.5422(3)
O22A O 0.7787(9) 0.1753(6) 0.4738(4)
O26_2 O 0.4891(7) -0.3938(5) 0.4073(4)
O27_2 O 0.3297(8) -0.3412(5) 0.3933(4)
O30A O 0.7467(8) 0.3611(5) 0.4295(4)
O31_2 O 0.3551(8) -0.3975(5) 0.5067(4)
O33A O 0.5890(6) -0.3208(5) 0.4899(4)
O34A O 0.4218(8) -0.2595(7) 0.5376(4)
H130A H 0.382(13) -0.285(9) 0.529(6)
loop_
_geom_bond_atom_site_label_1
_geom_bond_atom_site_label_2
_geom_bond_site_symmetry_1
_geom_bond_site_symmetry_2
Er1 O1 1_555 1_555
Er2 O3 1_555 1_555
Er3 N1 1_555 1_555
Er4 O19 1_555 1_555
Er5 N3 1_555 1_555
Er6 O21 1_555 1_555
N1 C56 1_555 1_555
N2 Er3 1_555 1_555
N3 C109 1_555 1_555
N4 Er5 1_555 1_555
O1 C11 1_555 1_555
O2 Er1 1_555 1_555
O3 C12 1_555 1_555
O4 Er3 1_555 1_555
O5 Er3 1_555 1_555
O6 C23 1_555 1_555
O7 Er1 1_555 1_555
O8 C24 1_555 1_555
O9 C35 1_555 1_555
O10 C35 1_555 1_555
O11 Er1 1_555 1_555
O12 C36 1_555 1_555
O13 C47 1_555 1_555
O14 C47 1_555 1_555
O15 C48 1_555 1_555
O16 Er1 1_555 1_555
O17 Er1 1_555 1_555
O18 Er5 1_555 1_555
O19 C71 1_555 1_555
O20 C72 1_555 1_555
O21 C72 1_555 1_555
O22 C83 1_555 1_555
O23 Er6 1_555 1_555
O24 Er4 1_555 1_555
O25 Er4 1_555 1_555
O26 C95 1_555 1_555
O27 C95 1_555 1_555
O28 Er5 1_555 1_555
O29 Er4 1_555 1_555
O30 C107 1_555 1_555
O31 C107 1_555 1_555
O32 Er4 1_555 1_555
O33 Er4 1_555 1_555
O34 Er4 1_555 1_555
C1 H1 1_555 1_555
H2 C1 1_555 1_555
C2 H3 1_555 1_555
H4 C2 1_555 1_555
C3 C1 1_555 1_555
C4 H5 1_555 1_555
H6 C4 1_555 1_555
C5 C2 1_555 1_555
H7 C5 1_555 1_555
C6 C1 1_555 1_555
H8 C6 1_555 1_555
C7 C6 1_555 1_555
H9 C7 1_555 1_555
H10 C7 1_555 1_555
C8 C5 1_555 1_555
H11 C8 1_555 1_555
H12 C8 1_555 1_555
C9 C3 1_555 1_555
H13 C9 1_555 1_555
H14 C9 1_555 1_555
C10 C7 1_555 1_555
C11 O2 1_555 1_555
C12 O4 1_555 1_555
C13 H15 1_555 1_555
C14 H16 1_555 1_555
C15 C13 1_555 1_555
H17 C15 1_555 1_555
H18 C15 1_555 1_555
C16 C13 1_555 1_555
H19 C16 1_555 1_555
H20 C16 1_555 1_555
C17 C14 1_555 1_555
H21 C17 1_555 1_555
H22 C17 1_555 1_555
C18 C14 1_555 1_555
H23 C18 1_555 1_555
H24 C18 1_555 1_555
C19 C13 1_555 1_555
H25 C19 1_555 1_555
H26 C19 1_555 1_555
C20 C18 1_555 1_555
C21 C16 1_555 1_555
C22 C20 1_555 1_555
H27 C22 1_555 1_555
H28 C22 1_555 1_555
C23 O5 1_555 1_555
C24 O7 1_555 1_555
C25 H29 1_555 1_555
H30 C25 1_555 1_555
C26 C25 1_555 1_555
C27 C26 1_555 1_555
H31 C27 1_555 1_555
H32 C27 1_555 1_555
C28 C27 1_555 1_555
H33 C28 1_555 1_555
C29 C28 1_555 1_555
H34 C29 1_555 1_555
H35 C29 1_555 1_555
C30 C25 1_555 1_555
H36 C30 1_555 1_555
C31 C30 1_555 1_555
H37 C31 1_555 1_555
H38 C31 1_555 1_555
C32 C28 1_555 1_555
H39 C32 1_555 1_555
H40 C32 1_555 1_555
C33 C31 1_555 1_555
C34 C26 1_555 1_555
H41 C34 1_555 1_555
H42 C34 1_555 1_555
C35 C33 1_555 1_555
C36 O11 1_555 1_555
C37 H43 1_555 1_555
H44 C37 1_555 1_555
C38 C37 1_555 1_555
C39 C38 1_555 1_555
H45 C39 1_555 1_555
H46 C39 1_555 1_555
C40 C39 1_555 1_555
H47 C40 1_555 1_555
C41 C40 1_555 1_555
H48 C41 1_555 1_555
H49 C41 1_555 1_555
C42 C37 1_555 1_555
H50 C42 1_555 1_555
C43 C40 1_555 1_555
H51 C43 1_555 1_555
H52 C43 1_555 1_555
C44 C42 1_555 1_555
H53 C44 1_555 1_555
H54 C44 1_555 1_555
C45 C43 1_555 1_555
C46 C38 1_555 1_555
H55 C46 1_555 1_555
H56 C46 1_555 1_555
C47 C45 1_555 1_555
C48 O16 1_555 1_555
C49 N2 1_555 1_555
H57 C49 1_555 1_555
C50 C49 1_555 1_555
H58 C50 1_555 1_555
C51 C50 1_555 1_555
H59 C51 1_555 1_555
C52 H60 1_555 1_555
C53 C52 1_555 1_555
H61 C53 1_555 1_555
C54 H62 1_555 1_555
C55 C54 1_555 1_555
H63 C55 1_555 1_555
C56 C55 1_555 1_555
H64 C56 1_555 1_555
C57 C51 1_555 1_555
C58 N2 1_555 1_555
C59 C53 1_555 1_555
C60 N1 1_555 1_555
C61 H65 1_555 1_555
H66 C61 1_555 1_555
C62 C61 1_555 1_555
H67 C62 1_555 1_555
C63 C61 1_555 1_555
H68 C63 1_555 1_555
C64 C62 1_555 1_555
H69 C64 1_555 1_555
H70 C64 1_555 1_555
C65 C63 1_555 1_555
H71 C65 1_555 1_555
H72 C65 1_555 1_555
C66 C62 1_555 1_555
H73 C66 1_555 1_555
H74 C66 1_555 1_555
C67 C63 1_555 1_555
H75 C67 1_555 1_555
H76 C67 1_555 1_555
C68 C65 1_555 1_555
C69 C64 1_555 1_555
C70 C68 1_555 1_555
H77 C70 1_555 1_555
H78 C70 1_555 1_555
C71 O18 1_555 1_555
C72 C68 1_555 1_555
C73 H79 1_555 1_555
H80 C73 1_555 1_555
C74 H81 1_555 1_555
H82 C74 1_555 1_555
C75 C73 1_555 1_555
C76 H83 1_555 1_555
H84 C76 1_555 1_555
C77 C73 1_555 1_555
H85 C77 1_555 1_555
C78 C74 1_555 1_555
H86 C78 1_555 1_555
C79 C78 1_555 1_555
H87 C79 1_555 1_555
H88 C79 1_555 1_555
C80 C75 1_555 1_555
H89 C80 1_555 1_555
H90 C80 1_555 1_555
C81 C79 1_555 1_555
C82 C77 1_555 1_555
H91 C82 1_555 1_555
H92 C82 1_555 1_555
C83 O23 1_555 1_555
C84 O24 1_555 1_555
C85 H93 1_555 1_555
H94 C85 1_555 1_555
C86 C85 1_555 1_555
H95 C86 1_555 1_555
C87 C85 1_555 1_555
H96 C87 1_555 1_555
C88 C87 1_555 1_555
H97 C88 1_555 1_555
H98 C88 1_555 1_555
C89 C86 1_555 1_555
H99 C89 1_555 1_555
H100 C89 1_555 1_555
C90 C86 1_555 1_555
H101 C90 1_555 1_555
H102 C90 1_555 1_555
C91 C87 1_555 1_555
H103 C91 1_555 1_555
H104 C91 1_555 1_555
C92 C89 1_555 1_555
C93 C88 1_555 1_555
C94 C92 1_555 1_555
H105 C94 1_555 1_555
H106 C94 1_555 1_555
C95 C93 1_555 1_555
C96 O28 1_555 1_555
C97 H107 1_555 1_555
H108 C97 1_555 1_555
C98 C97 1_555 1_555
C99 C98 1_555 1_555
H109 C99 1_555 1_555
H110 C99 1_555 1_555
C100 C99 1_555 1_555
H111 C100 1_555 1_555
C101 C100 1_555 1_555
H112 C101 1_555 1_555
H113 C101 1_555 1_555
C102 C97 1_555 1_555
H114 C102 1_555 1_555
C103 C100 1_555 1_555
H115 C103 1_555 1_555
H116 C103 1_555 1_555
C104 C103 1_555 1_555
C105 C102 1_555 1_555
H117 C105 1_555 1_555
H118 C105 1_555 1_555
C106 C98 1_555 1_555
H119 C106 1_555 1_555
H120 C106 1_555 1_555
C107 C104 1_555 1_555
C108 O32 1_555 1_555
C109 H121 1_555 1_555
C110 C109 1_555 1_555
H122 C110 1_555 1_555
C111 C110 1_555 1_555
H123 C111 1_555 1_555
C112 H124 1_555 1_555
C113 C112 1_555 1_555
H125 C113 1_555 1_555
C114 H126 1_555 1_555
C115 C114 1_555 1_555
H127 C115 1_555 1_555
C116 N4 1_555 1_555
H128 C116 1_555 1_555
C117 C111 1_555 1_555
C118 N3 1_555 1_555
C119 C113 1_555 1_555
C120 N4 1_555 1_555
H129 O17 1_555 1_555
H130 O34 1_555 1_555
Er1A O6 1_555 1_555
Er2A O8 1_555 1_555
Er2_2 O10 1_555 1_555
Er3_2 O9 1_555 1_555
Er3A O15 1_555 1_555
Er4A O20 1_555 1_555
Er5A O22 1_555 1_555
Er5A_2 O30 1_555 1_555
Er6_2 O26 1_555 1_555
Er6A O33 1_555 1_555
O6A Er1 1_555 1_555
O8A Er2 1_555 1_555
O9_2 Er3 1_555 1_555
O10_2 Er2 1_555 1_555
O12A Er2 1_555 1_555
O13_2 Er2 1_555 1_555
O14_2 Er2 1_555 1_555
O15A Er3 1_555 1_555
O17A Er2 1_555 1_555
O20A Er4 1_555 1_555
O22A Er5 1_555 1_555
O26_2 Er6 1_555 1_555
O27_2 Er6 1_555 1_555
O30A Er5 1_555 1_555
O31_2 Er6 1_555 1_555
O33A Er6 1_555 1_555
O34A Er6 1_555 1_555
H129A O17A 1_555 1_555
H130A O34A 1_555 1_555
Er3 O17A 1_555 1_555
Er5 O34 1_555 1_555
O12 Er2A 1_555 1_555
O13 Er2_2 1_555 1_555
O14 Er2_2 1_555 1_555
O17 Er2A 1_555 1_555
O17 Er3A 1_555 1_555
O25 C84 1_555 1_555
O27 Er6_2 1_555 1_555
O29 C96 1_555 1_555
O31 Er6_2 1_555 1_555
O33 C108 1_555 1_555
O34 Er6A 1_555 1_555
C2 C3 1_555 1_555
C3 C12 1_555 1_555
C4 C5 1_555 1_555
C4 C6 1_555 1_555
C8 C10 1_555 1_555
C9 C10 1_555 1_555
C10 C11 1_555 1_555
C14 C15 1_555 1_555
C17 C21 1_555 1_555
C19 C20 1_555 1_555
C20 C24 1_555 1_555
C21 C22 1_555 1_555
C21 C23 1_555 1_555
C26 C36 1_555 1_555
C29 C30 1_555 1_555
C32 C33 1_555 1_555
C33 C34 1_555 1_555
C38 C48 1_555 1_555
C41 C42 1_555 1_555
C44 C45 1_555 1_555
C45 C46 1_555 1_555
C52 C57 1_555 1_555
C54 C59 1_555 1_555
C57 C58 1_555 1_555
C58 C60 1_555 1_555
C59 C60 1_555 1_555
C66 C68 1_555 1_555
C67 C69 1_555 1_555
C69 C70 1_555 1_555
C69 C71 1_555 1_555
C74 C75 1_555 1_555
C75 C84 1_555 1_555
C76 C77 1_555 1_555
C76 C78 1_555 1_555
C80 C81 1_555 1_555
C81 C82 1_555 1_555
C81 C83 1_555 1_555
C90 C93 1_555 1_555
C91 C92 1_555 1_555
C92 C96 1_555 1_555
C93 C94 1_555 1_555
C98 C108 1_555 1_555
C101 C102 1_555 1_555
C104 C105 1_555 1_555
C104 C106 1_555 1_555
C112 C117 1_555 1_555
C114 C119 1_555 1_555
C115 C116 1_555 1_555
C117 C118 1_555 1_555
C118 C120 1_555 1_555
C119 C120 1_555 1_555
Er1A O17A 1_555 1_555
Er4A O33A 1_555 1_555
Er4A O34A 1_555 1_555
Er5A O34A 1_555 1_555

#END
