
#######################################################################
#
#                 Cambridge Crystallographic Data Centre
#                                CCDC 
#
#######################################################################
#
# If this CIF has been generated from an entry in the Cambridge 
# Structural Database, then it will include bibliographic, chemical, 
# crystal, experimental, refinement or atomic coordinate data resulting 
# from the CCDC's data processing and validation procedures.
#
#######################################################################

data_HORBOG
_symmetry_cell_setting           triclinic
_symmetry_space_group_name_H-M   'P -1'
_symmetry_Int_Tables_number      2
_space_group_name_Hall           '-P 1'
loop_
_symmetry_equiv_pos_site_id
_symmetry_equiv_pos_as_xyz
1 x,y,z
2 -x,-y,-z
_cell_length_a                   7.6548(14)
_cell_length_b                   8.0148(15)
_cell_length_c                   10.3204(19)
_cell_angle_alpha                96.937(2)
_cell_angle_beta                 99.715(2)
_cell_angle_gamma                93.231(2)
_cell_volume                     617.617
loop_
_atom_site_label
_atom_site_type_symbol
_atom_site_fract_x
_atom_site_fract_y
_atom_site_fract_z
Cu1 Cu 0.5000 0.0000 0.5000
Cu2 Cu 0.54086(6) 0.37667(5) 0.36761(4)
C1 C 0.0384(6) -0.2967(5) -0.2570(4)
H1 H -0.0147 -0.3655 -0.3370
C2 C 0.0935(6) -0.1305(5) -0.2578(4)
H2 H 0.0759 -0.0820 -0.3381
C3 C 0.1750(5) -0.0345(5) -0.1399(4)
H3 H 0.2157 0.0804 -0.1369
C4 C 0.1941(5) -0.1127(4) -0.0281(3)
N1 N 0.1390(5) -0.2717(4) -0.0224(3)
C5 C 0.3235(5) -0.0991(4) 0.2113(3)
H4 H 0.3023 -0.2156 0.2173
C6 C 0.3341(5) 0.1399(4) 0.1341(3)
H5 H 0.3218 0.2238 0.0763
C7 C 0.0617(7) -0.3615(5) -0.1379(5)
H6 H 0.0208 -0.4756 -0.1378
N2 N 0.2798(4) -0.0256(3) 0.0993(3)
N3 N 0.4061(4) 0.1663(3) 0.2599(3)
N4 N 0.3979(4) 0.0127(3) 0.3080(3)
N5 N 0.3667(4) -0.2178(3) 0.5068(3)
N6 N 0.2219(5) -0.2554(4) 0.4382(3)
N7 N 0.0833(5) -0.2928(5) 0.3725(5)
N8 N 0.3017(5) 0.4414(4) 0.5234(3)
N9 N 0.2790(4) 0.3009(4) 0.5510(3)
N10 N 0.2580(5) 0.1635(4) 0.5695(4)
N11 N 0.4460(5) 0.5035(4) 0.2260(3)
N12 N 0.5364(5) 0.5783(4) 0.1655(3)
N13 N 0.6126(7) 0.6545(5) 0.1034(4)
Cu2A Cu 0.45914(6) -0.37667(5) 0.63239(4)
Cu2A_2 Cu 0.45914(6) 0.62333(5) 0.63239(4)
Cu2_2 Cu 0.54086(6) -0.62333(5) 0.36761(4)
C1A C 0.9616(6) 0.2967(5) 1.2570(4)
H1A H 1.0147 0.3655 1.3370
C2A C 0.9065(6) 0.1305(5) 1.2578(4)
H2A H 0.9241 0.0820 1.3381
C3A C 0.8250(5) 0.0345(5) 1.1399(4)
H3A H 0.7843 -0.0804 1.1369
C4A C 0.8059(5) 0.1127(4) 1.0281(3)
N1A N 0.8610(5) 0.2717(4) 1.0224(3)
C5A C 0.6765(5) 0.0991(4) 0.7887(3)
H4A H 0.6977 0.2156 0.7827
C6A C 0.6659(5) -0.1399(4) 0.8659(3)
H5A H 0.6782 -0.2238 0.9237
C7A C 0.9383(7) 0.3615(5) 1.1379(5)
H6A H 0.9792 0.4756 1.1378
N2A N 0.7202(4) 0.0256(3) 0.9007(3)
N3A N 0.5939(4) -0.1663(3) 0.7401(3)
N4A N 0.6021(4) -0.0127(3) 0.6920(3)
N5A N 0.6333(4) 0.2178(3) 0.4932(3)
N6A N 0.7781(5) 0.2554(4) 0.5618(3)
N7A N 0.9167(5) 0.2928(5) 0.6275(5)
N8A N 0.6983(5) -0.4414(4) 0.4766(3)
N8A_2 N 0.6983(5) 0.5586(4) 0.4766(3)
N8_2 N 0.3017(5) -0.5586(4) 0.5234(3)
N9A N 0.7210(4) -0.3009(4) 0.4490(3)
N10A N 0.7420(5) -0.1635(4) 0.4305(4)
N11A N 0.5540(5) -0.5035(4) 0.7740(3)
N12A N 0.4636(5) -0.5783(4) 0.8345(3)
N13A N 0.3874(7) -0.6545(5) 0.8966(4)
loop_
_geom_bond_atom_site_label_1
_geom_bond_atom_site_label_2
_geom_bond_site_symmetry_1
_geom_bond_site_symmetry_2
Cu1 N4 1_555 1_555
Cu2 N3 1_555 1_555
C1 H1 1_555 1_555
C2 C1 1_555 1_555
H2 C2 1_555 1_555
C3 C2 1_555 1_555
H3 C3 1_555 1_555
C4 C3 1_555 1_555
N1 C4 1_555 1_555
C5 H4 1_555 1_555
C6 H5 1_555 1_555
C7 C1 1_555 1_555
H6 C7 1_555 1_555
N2 C4 1_555 1_555
N3 C6 1_555 1_555
N4 C5 1_555 1_555
N5 Cu1 1_555 1_555
N6 N5 1_555 1_555
N7 N6 1_555 1_555
N8 N9 1_555 1_555
N9 N10 1_555 1_555
N10 Cu1 1_555 1_555
N11 Cu2 1_555 1_555
N12 N11 1_555 1_555
N13 N12 1_555 1_555
Cu2A N5 1_555 1_555
Cu2A_2 N8 1_555 1_555
Cu2_2 N8A 1_555 1_555
C1A H1A 1_555 1_555
C2A C1A 1_555 1_555
H2A C2A 1_555 1_555
C3A C2A 1_555 1_555
H3A C3A 1_555 1_555
C4A C3A 1_555 1_555
N1A C4A 1_555 1_555
C5A H4A 1_555 1_555
C6A H5A 1_555 1_555
C7A C1A 1_555 1_555
H6A C7A 1_555 1_555
N2A C4A 1_555 1_555
N3A Cu2A 1_555 1_555
N4A Cu1 1_555 1_555
N5A Cu1 1_555 1_555
N6A N5A 1_555 1_555
N7A N6A 1_555 1_555
N8A N9A 1_555 1_555
N8A_2 Cu2 1_555 1_555
N8_2 Cu2A 1_555 1_555
N9A N10A 1_555 1_555
N10A Cu1 1_555 1_555
N11A Cu2A 1_555 1_555
N12A N11A 1_555 1_555
N13A N12A 1_555 1_555
Cu2 N5A 1_555 1_555
N1 C7 1_555 1_555
C5 N2 1_555 1_555
C6 N2 1_555 1_555
N3 N4 1_555 1_555
N1A C7A 1_555 1_555
C5A N2A 1_555 1_555
C5A N4A 1_555 1_555
C6A N2A 1_555 1_555
C6A N3A 1_555 1_555
N3A N4A 1_555 1_555

#END
