
#######################################################################
#
#                 Cambridge Crystallographic Data Centre
#                                CCDC 
#
#######################################################################
#
# If this CIF has been generated from an entry in the Cambridge 
# Structural Database, then it will include bibliographic, chemical, 
# crystal, experimental, refinement or atomic coordinate data resulting 
# from the CCDC's data processing and validation procedures.
#
#######################################################################

data_HORCEX
_symmetry_cell_setting           monoclinic
_symmetry_space_group_name_H-M   'P 21/m'
_symmetry_Int_Tables_number      11
_space_group_name_Hall           '-P 2yb'
loop_
_symmetry_equiv_pos_site_id
_symmetry_equiv_pos_as_xyz
1 x,y,z
2 -x,1/2+y,-z
3 -x,-y,-z
4 x,1/2-y,z
_cell_length_a                   9.571(4)
_cell_length_b                   6.751(2)
_cell_length_c                   11.093(4)
_cell_angle_alpha                90
_cell_angle_beta                 113.300(5)
_cell_angle_gamma                90
_cell_volume                     658.307
loop_
_atom_site_label
_atom_site_type_symbol
_atom_site_fract_x
_atom_site_fract_y
_atom_site_fract_z
Eu1 Eu 0.38518(3) 0.7500 0.23011(3)
O1 O 0.2424(5) 0.7500 -0.0031(5)
O2 O 0.0296(6) 0.7500 -0.1830(6)
O3 O -0.2970(4) 0.9141(5) -0.2196(4)
O4 O 0.2816(6) 0.7500 0.3988(5)
O5 O 0.0903(6) 0.7500 0.4666(6)
N1 N 0.0964(7) 0.7500 0.1519(7)
N2 N -0.2158(7) 0.7500 0.0650(7)
C1 C 0.0984(7) 0.7500 -0.0639(7)
C2 C 0.0092(8) 0.7500 0.0234(7)
C3 C -0.1496(8) 0.7500 -0.0204(8)
C4 C -0.2562(7) 0.7500 -0.1649(8)
C5 C -0.1268(8) 0.7500 0.1915(10)
H1 H -0.1715 0.7500 0.2522
C6 C 0.0323(8) 0.7500 0.2376(7)
C7 C 0.1434(10) 0.7500 0.3813(8)
O6 O 0.5765(4) 0.5520(6) 0.4049(4)
H2 H 0.5507 0.4344 0.4143
H3 H 0.6263 0.5926 0.4828
O7 O 0.5331(5) 0.5422(7) 0.1369(5)
H4 H 0.5737 0.5912 0.0880
H5 H 0.6030 0.4668 0.1872
Eu1A Eu -0.38518(3) 0.2500 -0.23011(3)
Eu1A_2 Eu -0.38518(3) 1.2500 -0.23011(3)
O3C O -0.2970(4) 0.5859(5) -0.2196(4)
O3A O 0.2970(4) 0.4141(5) 0.2196(4)
O3B O 0.2970(4) 1.0859(5) 0.2196(4)
O6C O 0.5765(4) 0.9480(6) 0.4049(4)
H2C H 0.5507 1.0656 0.4143
H3C H 0.6263 0.9074 0.4828
O7C O 0.5331(5) 0.9578(7) 0.1369(5)
H4C H 0.5737 0.9088 0.0880
H5C H 0.6030 1.0332 0.1872
O8 O 0.7312(6) 1.2500 0.2679(6)
H6 H 0.7777 1.2500 0.3510
H7 H 0.8000 1.2500 0.2375
O9 O 0.8408(7) 0.7500 0.5457(7)
H8 H 0.9072 0.7500 0.5127
H9 H 0.8928 0.7500 0.6280
loop_
_geom_bond_atom_site_label_1
_geom_bond_atom_site_label_2
_geom_bond_site_symmetry_1
_geom_bond_site_symmetry_2
Eu1 O1 1_555 1_555
O1 C1 1_555 1_555
O2 C1 1_555 1_555
O3 C4 1_555 1_555
O4 Eu1 1_555 1_555
O5 C7 1_555 1_555
N1 Eu1 1_555 1_555
N2 C3 1_555 1_555
C1 C2 1_555 1_555
C2 N1 1_555 1_555
C3 C2 1_555 1_555
C4 C3 1_555 1_555
C5 N2 1_555 1_555
H1 C5 1_555 1_555
C6 N1 1_555 1_555
C7 O4 1_555 1_555
O6 Eu1 1_555 1_555
H2 O6 1_555 1_555
H3 O6 1_555 1_555
O7 Eu1 1_555 1_555
H4 O7 1_555 1_555
H5 O7 1_555 1_555
O8 H6 1_555 1_555
H7 O8 1_555 1_555
O9 H8 1_555 1_555
H9 O9 1_555 1_555
Eu1A O3C 1_555 1_555
Eu1A_2 O3 1_555 1_555
O3C C4 1_555 1_555
O3A Eu1 1_555 1_555
O3B Eu1 1_555 1_555
O6C Eu1 1_555 1_555
H2C O6C 1_555 1_555
H3C O6C 1_555 1_555
O7C Eu1 1_555 1_555
H4C O7C 1_555 1_555
H5C O7C 1_555 1_555
C5 C6 1_555 1_555
C6 C7 1_555 1_555

#END
