
#######################################################################
#
#                 Cambridge Crystallographic Data Centre
#                                CCDC 
#
#######################################################################
#
# If this CIF has been generated from an entry in the Cambridge 
# Structural Database, then it will include bibliographic, chemical, 
# crystal, experimental, refinement or atomic coordinate data resulting 
# from the CCDC's data processing and validation procedures.
#
#######################################################################

data_HORCUN
_symmetry_cell_setting           orthorhombic
_symmetry_space_group_name_H-M   'P n m a'
_symmetry_Int_Tables_number      62
_space_group_name_Hall           '-P 2ac 2n'
loop_
_symmetry_equiv_pos_site_id
_symmetry_equiv_pos_as_xyz
1 x,y,z
2 1/2-x,-y,1/2+z
3 1/2+x,1/2-y,1/2-z
4 -x,1/2+y,-z
5 -x,-y,-z
6 1/2+x,y,1/2-z
7 1/2-x,1/2+y,1/2+z
8 x,1/2-y,z
_cell_length_a                   9.5384(8)
_cell_length_b                   6.5495(6)
_cell_length_c                   17.1693(15)
_cell_angle_alpha                90
_cell_angle_beta                 90
_cell_angle_gamma                90
_cell_volume                     1072.6
loop_
_atom_site_label
_atom_site_type_symbol
_atom_site_fract_x
_atom_site_fract_y
_atom_site_fract_z
Er1 Er 0.216620(16) 0.2500 0.379645(9)
O1 O 0.2537(3) 0.2500 0.51299(18)
O2 O 0.3900(3) 0.2500 0.61918(16)
O3 O 0.7131(2) 0.0816(4) 0.63078(14)
O4 O 0.5950(3) 0.2500 0.22986(19)
O5 O 0.3782(3) 0.2500 0.27557(18)
N1 N 0.4635(3) 0.2500 0.41943(19)
N2 N 0.7414(4) 0.2500 0.4616(2)
C1 C 0.3709(4) 0.2500 0.5489(2)
C2 C 0.4979(4) 0.2500 0.4946(2)
C3 C 0.6403(4) 0.2500 0.5160(2)
C4 C 0.6916(4) 0.2500 0.5994(3)
C5 C 0.7027(4) 0.2500 0.3866(3)
H1 H 0.7711 0.2500 0.3481
C6 C 0.5622(4) 0.2500 0.3655(2)
C7 C 0.5082(4) 0.2500 0.2833(2)
O6 O 0.0215(2) 0.0380(4) 0.41777(15)
H2 H 0.0432 -0.0712 0.4416
H3 H -0.0674 0.0421 0.4142
Er1C Er 0.783380(16) -0.2500 0.620355(9)
Er1B Er 0.716620(16) 0.2500 0.120355(9)
Er1C_2 Er 0.783380(16) 0.7500 0.620355(9)
O3G O 0.7131(2) 0.4184(4) 0.63078(14)
O3C O 0.2869(2) 0.5816(4) 0.36922(14)
O3D O 0.2869(2) -0.0816(4) 0.36922(14)
O4B O 0.0950(3) 0.2500 0.27014(19)
O6G O 0.0215(2) 0.4620(4) 0.41777(15)
H2G H 0.0432 0.5712 0.4416
H3G H -0.0674 0.4579 0.4142
O7 O 0.1146(4) 0.2500 0.6803(2)
H4 H 0.1832 0.2500 0.6487
H5 H 0.0332 0.2500 0.6601
loop_
_geom_bond_atom_site_label_1
_geom_bond_atom_site_label_2
_geom_bond_site_symmetry_1
_geom_bond_site_symmetry_2
Er1 O1 1_555 1_555
O1 C1 1_555 1_555
O2 C1 1_555 1_555
O3 C4 1_555 1_555
O4 C7 1_555 1_555
O5 Er1 1_555 1_555
N1 Er1 1_555 1_555
N2 C3 1_555 1_555
C1 C2 1_555 1_555
C2 N1 1_555 1_555
C3 C2 1_555 1_555
C4 C3 1_555 1_555
C5 N2 1_555 1_555
H1 C5 1_555 1_555
C6 N1 1_555 1_555
C7 O5 1_555 1_555
O6 Er1 1_555 1_555
H2 O6 1_555 1_555
H3 O6 1_555 1_555
O7 H4 1_555 1_555
H5 O7 1_555 1_555
Er1C O3 1_555 1_555
Er1B O4 1_555 1_555
Er1C_2 O3G 1_555 1_555
O3G C4 1_555 1_555
O3C Er1 1_555 1_555
O3D Er1 1_555 1_555
O4B Er1 1_555 1_555
O6G Er1 1_555 1_555
H2G O6G 1_555 1_555
H3G O6G 1_555 1_555
C5 C6 1_555 1_555
C6 C7 1_555 1_555

#END
