
#######################################################################
#
#                 Cambridge Crystallographic Data Centre
#                                CCDC 
#
#######################################################################
#
# If this CIF has been generated from an entry in the Cambridge 
# Structural Database, then it will include bibliographic, chemical, 
# crystal, experimental, refinement or atomic coordinate data resulting 
# from the CCDC's data processing and validation procedures.
#
#######################################################################

data_HORHUS
_symmetry_cell_setting           triclinic
_symmetry_space_group_name_H-M   'P -1'
_symmetry_Int_Tables_number      2
_space_group_name_Hall           '-P 1'
loop_
_symmetry_equiv_pos_site_id
_symmetry_equiv_pos_as_xyz
1 x,y,z
2 -x,-y,-z
_cell_length_a                   12.839(3)
_cell_length_b                   14.410(4)
_cell_length_c                   15.128(4)
_cell_angle_alpha                80.422(11)
_cell_angle_beta                 69.344(10)
_cell_angle_gamma                65.301(11)
_cell_volume                     2378.73
loop_
_atom_site_label
_atom_site_type_symbol
_atom_site_fract_x
_atom_site_fract_y
_atom_site_fract_z
Cd1 Cd 0.732703(13) 0.253375(11) 0.260525(11)
Cd2 Cd 0.213514(13) 0.236220(12) 0.275568(12)
S1 S 0.41033(5) 0.30071(4) 0.35253(4)
S2 S 1.06033(4) 0.18677(4) 0.18996(4)
O1 O 0.19214(15) 0.19490(14) 0.43217(12)
H1 H 0.221(2) 0.131(2) 0.437(2)
H2 H 0.245(2) 0.214(2) 0.4430(19)
O4 O 0.54071(15) 0.24542(14) 0.31210(16)
O5 O 0.38188(17) 0.40485(14) 0.37343(14)
O6 O 0.3625(2) 0.24781(17) 0.43818(13)
O7 O 0.35215(14) 0.30128(13) 0.28314(11)
O8 O 1.07974(14) 0.15979(13) 0.28425(11)
O9 O 1.13521(14) 0.24568(13) 0.13827(12)
O10 O 0.93198(13) 0.25123(13) 0.20361(12)
O11 O 1.09749(15) 0.09368(13) 0.14058(13)
N1 N 0.53530(16) 0.55394(14) 0.15017(13)
N2 N 0.65362(17) 0.41892(14) 0.20933(14)
N3 N 0.26059(15) 0.84410(13) 0.00781(12)
N4 N 0.24217(16) 0.80500(14) -0.11841(13)
N5 N -0.08293(16) 0.94142(14) 0.36240(13)
N6 N -0.19712(16) 1.08575(14) 0.31083(13)
N7 N 0.22320(15) 0.65027(13) 0.49481(12)
N8 N 0.27224(16) 0.69035(15) 0.60394(13)
N9 N -0.10012(16) 0.52068(14) 0.35550(14)
N10 N 0.07756(17) 0.39559(15) 0.30664(15)
N11 N -0.57973(16) 0.82955(15) 0.41031(13)
N12 N -0.71504(18) 0.98716(17) 0.43571(16)
N13 N -0.43660(15) 1.00123(14) 0.13465(13)
N14 N -0.62194(16) 1.11030(14) 0.19651(14)
N15 N 0.03731(17) 0.68178(17) 0.05997(15)
N16 N 0.1982(2) 0.5519(2) 0.07724(19)
C1 C 0.32836(18) 0.68582(16) 0.18529(15)
C2 C 0.26829(18) 0.79000(16) 0.16976(15)
C3 C 0.16437(18) 0.84590(17) 0.23941(15)
H7 H 0.1220 0.9162 0.2274
C4 C 0.12041(18) 0.80229(17) 0.32605(15)
C5 C 0.18295(18) 0.69916(16) 0.34342(15)
C6 C 0.28411(19) 0.64226(16) 0.27180(15)
H8 H 0.3242 0.5712 0.2826
C7 C 0.43795(19) 0.61756(18) 0.11166(16)
H9 H 0.4143 0.5732 0.0860
H10 H 0.4674 0.6605 0.0589
C8 C 0.5640(2) 0.45464(17) 0.17374(17)
H11 H 0.5246 0.4150 0.1658
C9 C 0.6828(2) 0.5001(2) 0.2080(2)
H12 H 0.7455 0.4976 0.2291
C10 C 0.6104(2) 0.58402(19) 0.17273(19)
H13 H 0.6113 0.6505 0.1651
C11 C 0.31128(19) 0.84600(16) 0.07989(14)
H14 H 0.2880 0.9178 0.0944
H15 H 0.4006 0.8142 0.0547
C12 C 0.31591(19) 0.78836(17) -0.07023(15)
H16 H 0.3983 0.7425 -0.0885
C13 C 0.13322(19) 0.87510(18) -0.06793(16)
H17 H 0.0616 0.9018 -0.0852
C14 C 0.14305(19) 0.90043(18) 0.00992(16)
H18 H 0.0814 0.9475 0.0566
C15 C 0.01096(19) 0.86950(18) 0.40089(16)
H19 H -0.0227 0.8257 0.4498
H20 H 0.0366 0.9079 0.4318
C16 C -0.10399(19) 1.03995(17) 0.34269(16)
H21 H -0.0577 1.0731 0.3506
C17 C -0.2377(2) 1.01092(19) 0.31154(17)
H22 H -0.3050 1.0208 0.2929
C18 C -0.1681(2) 0.92206(18) 0.34236(17)
H23 H -0.1761 0.8584 0.3490
C19 C 0.15243(19) 0.64686(16) 0.43842(15)
H24 H 0.0652 0.6810 0.4727
H25 H 0.1696 0.5748 0.4293
C20 C 0.18354(19) 0.70738(17) 0.57045(15)
H26 H 0.1025 0.7539 0.5965
C21 C 0.37262(19) 0.61878(17) 0.54665(16)
H27 H 0.4508 0.5912 0.5535
C22 C 0.34402(19) 0.59316(17) 0.47873(16)
H28 H 0.3968 0.5454 0.4300
C23 C -0.24654(19) 0.67682(17) 0.30378(16)
C24 C -0.36217(18) 0.75446(17) 0.32075(15)
C25 C -0.37935(19) 0.83824(17) 0.26043(16)
H29 H -0.4575 0.8915 0.2726
C26 C -0.28601(19) 0.84748(17) 0.18227(16)
C27 C -0.17127(19) 0.76874(17) 0.16423(16)
C28 C -0.15380(19) 0.68531(17) 0.22567(16)
H30 H -0.0756 0.6322 0.2139
C29 C -0.22769(19) 0.58641(17) 0.37176(17)
H31 H -0.2637 0.6115 0.4372
H32 H -0.2704 0.5456 0.3655
C30 C -0.0356(2) 0.43373(17) 0.30690(17)
H33 H -0.0672 0.4037 0.2768
C31 C 0.0853(2) 0.4628(2) 0.3562(2)
H34 H 0.1565 0.4560 0.3674
C32 C -0.0236(2) 0.53990(19) 0.3867(2)
H35 H -0.0432 0.5964 0.4227
C33 C -0.46562(19) 0.74329(19) 0.40295(17)
H36 H -0.4742 0.6801 0.3957
H37 H -0.4464 0.7361 0.4622
C34 C -0.6194(2) 0.9165(2) 0.45496(17)
H38 H -0.5830 0.9261 0.4957
C35 C -0.7361(2) 0.94193(19) 0.37425(18)
H39 H -0.7992 0.9741 0.3469
C36 C -0.6535(2) 0.84454(19) 0.35835(18)
H40 H -0.6481 0.7966 0.3191
C37 C -0.30793(18) 0.94094(17) 0.11821(17)
H41 H -0.2703 0.9838 0.1290
H42 H -0.2691 0.9196 0.0516
C38 C -0.50743(19) 1.08498(17) 0.18745(16)
H43 H -0.4789 1.1209 0.2144
C39 C -0.6242(2) 1.03895(18) 0.14813(17)
H44 H -0.6951 1.0379 0.1424
C40 C -0.5103(2) 0.97015(18) 0.10978(17)
H45 H -0.4864 0.9127 0.0734
C41 C -0.0678(2) 0.7776(2) 0.08023(19)
H46 H -0.0954 0.8004 0.0240
H47 H -0.0444 0.8302 0.0928
C42 C 0.1271(2) 0.6467(2) 0.0981(2)
H48 H 0.1375 0.6865 0.1359
C43 C 0.1496(3) 0.5241(3) 0.0239(2)
H49 H 0.1809 0.4583 -0.0016
C44 C 0.0510(3) 0.6035(3) 0.0126(2)
H50 H 0.0012 0.6043 -0.0217
Cd1A Cd 0.267297(13) 0.746625(11) -0.260525(11)
Cd1_2 Cd -0.267297(13) 1.253375(11) 0.260525(11)
Cd1A_2 Cd 0.267297(13) 0.746625(11) 0.739475(11)
Cd2_2 Cd 1.213514(13) 0.236220(12) 0.275568(12)
Cd2_3 Cd -0.786486(13) 1.236220(12) 0.275568(12)
O8_2 O 0.07974(14) 0.15979(13) 0.28425(11)
O9_2 O 0.13521(14) 0.24568(13) 0.13827(12)
N4A N 0.75783(16) 0.19500(14) 0.11841(13)
N6_2 N 0.80288(16) 0.08575(14) 0.31083(13)
N8A N 0.72776(16) 0.30965(15) 0.39606(13)
N14_2 N 0.37806(16) 0.11030(14) 0.19651(14)
O2 O 0.38890(16) 0.37713(16) 0.10459(14)
H3 H 0.333(3) 0.432(2) 0.104(2)
H4 H 0.374(3) 0.361(2) 0.157(2)
O3 O 0.3547(2) 0.25002(17) 0.00084(15)
H5 H 0.293(3) 0.244(3) 0.031(2)
H6 H 0.364(3) 0.288(3) 0.032(2)
loop_
_geom_bond_atom_site_label_1
_geom_bond_atom_site_label_2
_geom_bond_site_symmetry_1
_geom_bond_site_symmetry_2
Cd1 O4 1_555 1_555
Cd2 O1 1_555 1_555
S1 O4 1_555 1_555
S2 O8 1_555 1_555
O1 H1 1_555 1_555
H2 O1 1_555 1_555
O2 H3 1_555 1_555
H4 O2 1_555 1_555
O3 H5 1_555 1_555
H6 O3 1_555 1_555
O5 S1 1_555 1_555
O6 S1 1_555 1_555
O7 Cd2 1_555 1_555
O8 Cd2_2 1_555 1_555
O9 S2 1_555 1_555
O10 Cd1 1_555 1_555
O11 S2 1_555 1_555
N1 C7 1_555 1_555
N2 Cd1 1_555 1_555
N3 C11 1_555 1_555
N4 C12 1_555 1_555
N5 C15 1_555 1_555
N6 C16 1_555 1_555
N7 C19 1_555 1_555
N8 C20 1_555 1_555
N9 C29 1_555 1_555
N10 Cd2 1_555 1_555
N11 C33 1_555 1_555
N12 C34 1_555 1_555
N13 C37 1_555 1_555
N14 C38 1_555 1_555
N15 C41 1_555 1_555
N16 C42 1_555 1_555
C1 C2 1_555 1_555
C2 C3 1_555 1_555
C3 H7 1_555 1_555
C4 C3 1_555 1_555
C5 C4 1_555 1_555
C6 C1 1_555 1_555
H8 C6 1_555 1_555
C7 C1 1_555 1_555
H9 C7 1_555 1_555
H10 C7 1_555 1_555
C8 N1 1_555 1_555
H11 C8 1_555 1_555
C9 N2 1_555 1_555
H12 C9 1_555 1_555
C10 N1 1_555 1_555
H13 C10 1_555 1_555
C11 C2 1_555 1_555
H14 C11 1_555 1_555
H15 C11 1_555 1_555
C12 N3 1_555 1_555
H16 C12 1_555 1_555
C13 N4 1_555 1_555
H17 C13 1_555 1_555
C14 N3 1_555 1_555
H18 C14 1_555 1_555
C15 C4 1_555 1_555
H19 C15 1_555 1_555
H20 C15 1_555 1_555
C16 N5 1_555 1_555
H21 C16 1_555 1_555
C17 N6 1_555 1_555
H22 C17 1_555 1_555
C18 N5 1_555 1_555
H23 C18 1_555 1_555
C19 C5 1_555 1_555
H24 C19 1_555 1_555
H25 C19 1_555 1_555
C20 N7 1_555 1_555
H26 C20 1_555 1_555
C21 N8 1_555 1_555
H27 C21 1_555 1_555
C22 N7 1_555 1_555
H28 C22 1_555 1_555
C23 C24 1_555 1_555
C24 C25 1_555 1_555
C25 H29 1_555 1_555
C26 C25 1_555 1_555
C27 C26 1_555 1_555
C28 C23 1_555 1_555
H30 C28 1_555 1_555
C29 C23 1_555 1_555
H31 C29 1_555 1_555
H32 C29 1_555 1_555
C30 N9 1_555 1_555
H33 C30 1_555 1_555
C31 N10 1_555 1_555
H34 C31 1_555 1_555
C32 N9 1_555 1_555
H35 C32 1_555 1_555
C33 C24 1_555 1_555
H36 C33 1_555 1_555
H37 C33 1_555 1_555
C34 N11 1_555 1_555
H38 C34 1_555 1_555
C35 N12 1_555 1_555
H39 C35 1_555 1_555
C36 N11 1_555 1_555
H40 C36 1_555 1_555
C37 C26 1_555 1_555
H41 C37 1_555 1_555
H42 C37 1_555 1_555
C38 N13 1_555 1_555
H43 C38 1_555 1_555
C39 N14 1_555 1_555
H44 C39 1_555 1_555
C40 N13 1_555 1_555
H45 C40 1_555 1_555
C41 C27 1_555 1_555
H46 C41 1_555 1_555
H47 C41 1_555 1_555
C42 N15 1_555 1_555
H48 C42 1_555 1_555
C43 N16 1_555 1_555
H49 C43 1_555 1_555
C44 N15 1_555 1_555
H50 C44 1_555 1_555
Cd1A N4 1_555 1_555
Cd1_2 N6 1_555 1_555
Cd1A_2 N8 1_555 1_555
Cd2_2 O9 1_555 1_555
Cd2_3 N14 1_555 1_555
O8_2 Cd2 1_555 1_555
O9_2 Cd2 1_555 1_555
N4A Cd1 1_555 1_555
N6_2 Cd1 1_555 1_555
N8A Cd1 1_555 1_555
N14_2 Cd2 1_555 1_555
S1 O7 1_555 1_555
S2 O10 1_555 1_555
N2 C8 1_555 1_555
N10 C30 1_555 1_555
C5 C6 1_555 1_555
C9 C10 1_555 1_555
C13 C14 1_555 1_555
C17 C18 1_555 1_555
C21 C22 1_555 1_555
C27 C28 1_555 1_555
C31 C32 1_555 1_555
C35 C36 1_555 1_555
C39 C40 1_555 1_555
C43 C44 1_555 1_555

#END
