
#######################################################################
#
#                 Cambridge Crystallographic Data Centre
#                                CCDC 
#
#######################################################################
#
# If this CIF has been generated from an entry in the Cambridge 
# Structural Database, then it will include bibliographic, chemical, 
# crystal, experimental, refinement or atomic coordinate data resulting 
# from the CCDC's data processing and validation procedures.
#
#######################################################################

data_HORJAA
_symmetry_cell_setting           tetragonal
_symmetry_space_group_name_H-M   'P 43 21 2'
_symmetry_Int_Tables_number      96
_space_group_name_Hall           'P 4nw 2abw'
loop_
_symmetry_equiv_pos_site_id
_symmetry_equiv_pos_as_xyz
1 x,y,z
2 -x,-y,1/2+z
3 1/2-y,1/2+x,3/4+z
4 1/2+y,1/2-x,1/4+z
5 y,x,-z
6 -y,-x,1/2-z
7 1/2-x,1/2+y,3/4-z
8 1/2+x,1/2-y,1/4-z
_cell_length_a                   10.116(2)
_cell_length_b                   10.116(2)
_cell_length_c                   31.186(5)
_cell_angle_alpha                90
_cell_angle_beta                 90
_cell_angle_gamma                90
_cell_volume                     3191.37
loop_
_atom_site_label
_atom_site_type_symbol
_atom_site_fract_x
_atom_site_fract_y
_atom_site_fract_z
Cd1 Cd 0.149888(18) 0.310551(18) 0.068252(6)
S1 S 0.45874(6) 0.15155(7) 0.081786(18)
O1 O 0.2759(2) 0.2759(2) 0.0000
H1 H 0.348(3) 0.270(3) 0.0090(10)
O2 O -0.0140(2) 0.4122(3) 0.02625(7)
H2 H -0.005(4) 0.425(3) 0.0010(11)
H3 H -0.086(4) 0.404(4) 0.0317(11)
O5 O 0.33370(18) 0.20358(18) 0.10099(5)
O6 O 0.5610(2) 0.1428(2) 0.11501(6)
O7 O 0.50271(19) 0.2419(2) 0.04751(6)
O8 O 0.43531(19) 0.01970(19) 0.06374(6)
N1 N 0.4278(2) 0.6417(2) 0.06686(7)
N2 N 0.2629(2) 0.5001(2) 0.06593(7)
N3 N 0.8923(2) 0.9651(2) 0.07283(7)
N4 N 1.0447(2) 1.1181(2) 0.06626(7)
C1 C 0.6438(3) 0.7144(2) 0.03546(7)
C2 C 0.7427(2) 0.8104(3) 0.03567(7)
C3 C 0.8237(2) 0.8237(2) 0.0000
H8 H 0.8901 0.8901 0.0000
C4 C 0.6313(2) 0.6313(2) 0.0000
H9 H 0.5649 0.5649 0.0000
C5 C 0.5595(3) 0.6970(3) 0.07511(8)
H10 H 0.6066 0.6383 0.0954
H11 H 0.5490 0.7841 0.0892
C6 C 0.3887(3) 0.5178(3) 0.07565(8)
H12 H 0.4444 0.4514 0.0874
C7 C 0.2204(3) 0.6188(3) 0.04951(8)
H13 H 0.1338 0.6362 0.0392
C8 C 0.3207(3) 0.7070(3) 0.05020(9)
H14 H 0.3176 0.7964 0.0410
C9 C 0.7630(3) 0.8994(3) 0.07425(8)
H15 H 0.6924 0.9671 0.0750
H16 H 0.7565 0.8462 0.1008
C10 C 0.9167(3) 1.0941(3) 0.06719(8)
H17 H 0.8502 1.1598 0.0642
C11 C 1.1050(3) 0.9971(3) 0.07126(9)
H18 H 1.1978 0.9829 0.0719
C12 C 1.0124(3) 0.9016(3) 0.07512(8)
H19 H 1.0271 0.8095 0.0787
Cd1G Cd -0.350112(18) 0.189449(18) 0.181748(6)
Cd1D Cd 0.310551(18) 0.149888(18) -0.068252(6)
Cd1G_2 Cd 0.649888(18) 0.189449(18) 0.181748(6)
Cd1_2 Cd 1.149888(18) 1.310551(18) 0.068252(6)
Cd1D_2 Cd 1.310551(18) 1.149888(18) -0.068252(6)
S1G S -0.04126(6) 0.34845(7) 0.168214(18)
O1C O -0.2241(2) 0.2241(2) 0.2500
H1D H 0.270(3) 0.348(3) -0.0090(10)
H1G H -0.152(3) 0.230(3) 0.2410(10)
H1C H -0.230(3) 0.152(3) 0.2590(10)
O2G O -0.5140(2) 0.0878(3) 0.22375(7)
H2G H -0.505(4) 0.075(3) 0.2490(11)
H3G H -0.586(4) 0.096(4) 0.2183(11)
O5G O -0.16630(18) 0.29642(18) 0.14901(5)
O6G O 0.0610(2) 0.3572(2) 0.13499(6)
O6_2 O -0.4390(2) 0.1428(2) 0.11501(6)
O7G O 0.00271(19) 0.2581(2) 0.20249(6)
O8G O -0.06469(19) 0.48030(19) 0.18626(6)
N1D N 0.6417(2) 0.4278(2) -0.06686(7)
N2D N 0.5001(2) 0.2629(2) -0.06593(7)
N2G N -0.2371(2) -0.0001(2) 0.18407(7)
N3D N 0.9651(2) 0.8923(2) -0.07283(7)
N4D N 1.1181(2) 1.0447(2) -0.06626(7)
N4_2 N 0.0447(2) 0.1181(2) 0.06626(7)
N4G N -0.4553(2) 0.3819(2) 0.18374(7)
C1D C 0.7144(2) 0.6438(3) -0.03546(7)
C2D C 0.8104(3) 0.7427(2) -0.03567(7)
C5D C 0.6970(3) 0.5595(3) -0.07511(8)
H10D H 0.6383 0.6066 -0.0954
H11D H 0.7841 0.5490 -0.0892
C6D C 0.5178(3) 0.3887(3) -0.07565(8)
H12D H 0.4514 0.4444 -0.0874
C7D C 0.6188(3) 0.2204(3) -0.04951(8)
H13D H 0.6362 0.1338 -0.0392
C8D C 0.7070(3) 0.3207(3) -0.05020(9)
H14D H 0.7964 0.3176 -0.0410
C9D C 0.8994(3) 0.7630(3) -0.07425(8)
H15D H 0.9671 0.6924 -0.0750
H16D H 0.8462 0.7565 -0.1008
C10D C 1.0941(3) 0.9167(3) -0.06719(8)
H17D H 1.1598 0.8502 -0.0642
C11D C 0.9971(3) 1.1050(3) -0.07126(9)
H18D H 0.9829 1.1978 -0.0719
C12D C 0.9016(3) 1.0124(3) -0.07512(8)
H19D H 0.8095 1.0271 -0.0787
O3 O 0.7418(2) 0.3820(2) 0.06667(7)
H4 H 0.671(2) 0.342(3) 0.0593(10)
H5 H 0.759(3) 0.357(3) 0.0922(7)
O4 O 0.8837(3) 0.6240(3) 0.10412(10)
H6 H 0.909(4) 0.582(4) 0.1292(9)
H7 H 0.852(5) 0.569(4) 0.0837(11)
loop_
_geom_bond_atom_site_label_1
_geom_bond_atom_site_label_2
_geom_bond_site_symmetry_1
_geom_bond_site_symmetry_2
Cd1 O1 1_555 1_555
S1 O5 1_555 1_555
O1 H1 1_555 1_555
O2 Cd1 1_555 1_555
H2 O2 1_555 1_555
H3 O2 1_555 1_555
O3 H4 1_555 1_555
H5 O3 1_555 1_555
O4 H6 1_555 1_555
H7 O4 1_555 1_555
O5 Cd1 1_555 1_555
O6 S1 1_555 1_555
O7 S1 1_555 1_555
O8 S1 1_555 1_555
N1 C5 1_555 1_555
N2 Cd1 1_555 1_555
N3 C9 1_555 1_555
N4 C10 1_555 1_555
C1 C2 1_555 1_555
C2 C3 1_555 1_555
C3 H8 1_555 1_555
C4 C1 1_555 1_555
H9 C4 1_555 1_555
C5 C1 1_555 1_555
H10 C5 1_555 1_555
H11 C5 1_555 1_555
C6 N1 1_555 1_555
H12 C6 1_555 1_555
C7 N2 1_555 1_555
H13 C7 1_555 1_555
C8 N1 1_555 1_555
H14 C8 1_555 1_555
C9 C2 1_555 1_555
H15 C9 1_555 1_555
H16 C9 1_555 1_555
C10 N3 1_555 1_555
H17 C10 1_555 1_555
C11 N4 1_555 1_555
H18 C11 1_555 1_555
C12 N3 1_555 1_555
H19 C12 1_555 1_555
Cd1G O1C 1_555 1_555
Cd1D O1 1_555 1_555
Cd1G_2 O6 1_555 1_555
Cd1_2 N4 1_555 1_555
Cd1D_2 N4D 1_555 1_555
S1G O5G 1_555 1_555
O1C H1G 1_555 1_555
H1D O1 1_555 1_555
H1C O1C 1_555 1_555
O2G Cd1G 1_555 1_555
H2G O2G 1_555 1_555
H3G O2G 1_555 1_555
O5G Cd1G 1_555 1_555
O6G Cd1 1_555 1_555
O6_2 Cd1G 1_555 1_555
O7G S1G 1_555 1_555
O8G S1G 1_555 1_555
N1D C5D 1_555 1_555
N2D Cd1D 1_555 1_555
N2G Cd1G 1_555 1_555
N3D C9D 1_555 1_555
N4D C10D 1_555 1_555
N4_2 Cd1 1_555 1_555
N4G Cd1G 1_555 1_555
C1D C4 1_555 1_555
C2D C3 1_555 1_555
C5D C1D 1_555 1_555
H10D C5D 1_555 1_555
H11D C5D 1_555 1_555
C6D N1D 1_555 1_555
H12D C6D 1_555 1_555
C7D N2D 1_555 1_555
H13D C7D 1_555 1_555
C8D N1D 1_555 1_555
H14D C8D 1_555 1_555
C9D C2D 1_555 1_555
H15D C9D 1_555 1_555
H16D C9D 1_555 1_555
C10D N3D 1_555 1_555
H17D C10D 1_555 1_555
C11D N4D 1_555 1_555
H18D C11D 1_555 1_555
C12D N3D 1_555 1_555
H19D C12D 1_555 1_555
N2 C6 1_555 1_555
C7 C8 1_555 1_555
C11 C12 1_555 1_555
S1G O6G 1_555 1_555
N2D C6D 1_555 1_555
C1D C2D 1_555 1_555
C7D C8D 1_555 1_555
C11D C12D 1_555 1_555

#END
