
#######################################################################
#
#                 Cambridge Crystallographic Data Centre
#                                CCDC 
#
#######################################################################
#
# If this CIF has been generated from an entry in the Cambridge 
# Structural Database, then it will include bibliographic, chemical, 
# crystal, experimental, refinement or atomic coordinate data resulting 
# from the CCDC's data processing and validation procedures.
#
#######################################################################

data_HORTIS
_symmetry_cell_setting           monoclinic
_symmetry_space_group_name_H-M   'P 21/c'
_symmetry_Int_Tables_number      14
_space_group_name_Hall           '-P 2ybc'
loop_
_symmetry_equiv_pos_site_id
_symmetry_equiv_pos_as_xyz
1 x,y,z
2 -x,1/2+y,1/2-z
3 -x,-y,-z
4 x,1/2-y,1/2+z
_cell_length_a                   7.49680(10)
_cell_length_b                   14.7124(3)
_cell_length_c                   11.0920(2)
_cell_angle_alpha                90
_cell_angle_beta                 91.6835(8)
_cell_angle_gamma                90
_cell_volume                     1222.87
loop_
_atom_site_label
_atom_site_type_symbol
_atom_site_fract_x
_atom_site_fract_y
_atom_site_fract_z
Ni1 Ni 0.05488(4) 0.10875(2) 0.51178(3)
O1 O 0.0748(2) 0.07735(13) 0.69501(16)
C1 C 0.1344(3) 0.12585(18) 0.7812(2)
O2 O 0.2033(3) 0.20332(13) 0.77246(17)
C2 C 0.1315(3) 0.08204(17) 0.9054(2)
C3 C 0.2879(4) 0.08674(18) 0.9725(2)
H1 H 0.3789 0.1275 0.9492
C4 C 0.3155(4) 0.03181(18) 1.0759(2)
H2 H 0.4240 0.0369 1.1218
C5 C 0.1877(3) -0.02886(18) 1.1110(2)
C6 C -0.0146(3) 0.02833(17) 0.9475(2)
C7 C 0.2479(3) -0.10116(18) 1.1996(2)
O3 O 0.2088(3) -0.18251(13) 1.17441(17)
O4 O 0.3442(3) -0.07764(13) 1.29042(17)
O5 O -0.1754(2) 0.02245(13) 0.51533(16)
H3 H -0.2584 0.0458 0.4571
H4 H -0.2305 0.0441 0.5856
O6 O 0.2985(3) 0.17362(17) 0.5033(2)
H5 H 0.3835 0.1340 0.4686
H6 H 0.2857 0.2282 0.4577
O7 O -0.0873(3) 0.22558(17) 0.5536(2)
H7 H -0.1276 0.2698 0.4962
H8 H -0.0173 0.2586 0.6119
O8 O 0.0044(3) 0.12160(16) 0.3254(2)
H9 H 0.1085 0.1321 0.2803
H10 H -0.0405 0.0674 0.2887
Ni1B Ni -0.05488(4) -0.10875(2) 1.48822(3)
Ni1B_2 Ni -0.05488(4) -0.10875(2) 0.48822(3)
O1B O -0.0748(2) -0.07735(13) 1.30499(16)
C1B C -0.1344(3) -0.12585(18) 1.2188(2)
O2B O -0.2033(3) -0.20332(13) 1.22754(17)
C2B C -0.1315(3) -0.08204(17) 1.0946(2)
C3B C -0.2879(4) -0.08674(18) 1.0275(2)
H1B H -0.3789 -0.1275 1.0508
C4B C -0.3155(4) -0.03181(18) 0.9241(2)
H2B H -0.4240 -0.0369 0.8782
C5B C -0.1877(3) 0.02886(18) 0.8890(2)
C6B C 0.0146(3) -0.02833(17) 1.0525(2)
C7B C -0.2479(3) 0.10116(18) 0.8004(2)
O3B O -0.2088(3) 0.18251(13) 0.82559(17)
O4B O -0.3442(3) 0.07764(13) 0.70958(17)
O5B O 0.1754(2) -0.02245(13) 1.48467(16)
O5_2 O -0.1754(2) 0.02245(13) 1.51533(16)
O5B_2 O 0.1754(2) -0.02245(13) 0.48467(16)
H3_2 H -0.2584 0.0458 1.4571
H3B H 0.2584 -0.0458 1.5429
H3B_2 H 0.2584 -0.0458 0.5429
H4_2 H -0.2305 0.0441 1.5856
H4B H 0.2305 -0.0441 1.4144
H4B_2 H 0.2305 -0.0441 0.4144
O6B O -0.2985(3) -0.17362(17) 1.4967(2)
H5B H -0.3835 -0.1340 1.5314
H6B H -0.2857 -0.2282 1.5423
O7B O 0.0873(3) -0.22558(17) 1.4464(2)
H7B H 0.1276 -0.2698 1.5038
H8B H 0.0173 -0.2586 1.3881
O8B O -0.0044(3) -0.12160(16) 1.6746(2)
H9B H -0.1085 -0.1321 1.7197
H10B H 0.0405 -0.0674 1.7113
O9 O 0.4746(3) -0.21022(14) 0.77414(19)
H11 H 0.3880 -0.2514 0.7424
H12 H 0.5900 -0.2285 0.7515
O10 O 0.5711(3) 0.05819(15) 0.35628(19)
H13 H 0.5003 0.0125 0.3182
H14 H 0.5477 0.1101 0.3076
loop_
_geom_bond_atom_site_label_1
_geom_bond_atom_site_label_2
_geom_bond_site_symmetry_1
_geom_bond_site_symmetry_2
Ni1 O1 1_555 1_555
O1 C1 1_555 1_555
C1 O2 1_555 1_555
C2 C1 1_555 1_555
C3 C2 1_555 1_555
H1 C3 1_555 1_555
C4 C3 1_555 1_555
H2 C4 1_555 1_555
C5 C4 1_555 1_555
C6 C2 1_555 1_555
C7 C5 1_555 1_555
O3 C7 1_555 1_555
O4 C7 1_555 1_555
O5 Ni1 1_555 1_555
H3 O5 1_555 1_555
H4 O5 1_555 1_555
O6 Ni1 1_555 1_555
H5 O6 1_555 1_555
H6 O6 1_555 1_555
O7 Ni1 1_555 1_555
H7 O7 1_555 1_555
H8 O7 1_555 1_555
O8 Ni1 1_555 1_555
H9 O8 1_555 1_555
H10 O8 1_555 1_555
O9 H11 1_555 1_555
H12 O9 1_555 1_555
O10 H13 1_555 1_555
H14 O10 1_555 1_555
Ni1B O1B 1_555 1_555
Ni1B_2 O5 1_555 1_555
O1B C1B 1_555 1_555
C1B O2B 1_555 1_555
C2B C1B 1_555 1_555
C3B C2B 1_555 1_555
H1B C3B 1_555 1_555
C4B C3B 1_555 1_555
H2B C4B 1_555 1_555
C5B C6 1_555 1_555
C6B C5 1_555 1_555
C7B C5B 1_555 1_555
O3B C7B 1_555 1_555
O4B C7B 1_555 1_555
O5B Ni1B 1_555 1_555
O5_2 Ni1B 1_555 1_555
O5B_2 Ni1 1_555 1_555
H3_2 O5_2 1_555 1_555
H3B O5B 1_555 1_555
H3B_2 O5B_2 1_555 1_555
H4_2 O5_2 1_555 1_555
H4B O5B 1_555 1_555
H4B_2 O5B_2 1_555 1_555
O6B Ni1B 1_555 1_555
H5B O6B 1_555 1_555
H6B O6B 1_555 1_555
O7B Ni1B 1_555 1_555
H7B O7B 1_555 1_555
H8B O7B 1_555 1_555
O8B Ni1B 1_555 1_555
H9B O8B 1_555 1_555
H10B O8B 1_555 1_555
C6 C6B 1_555 1_555
Ni1B_2 O5B_2 1_555 1_555
C2B C6B 1_555 1_555
C4B C5B 1_555 1_555

#END
