
#######################################################################
#
#                 Cambridge Crystallographic Data Centre
#                                CCDC 
#
#######################################################################
#
# If this CIF has been generated from an entry in the Cambridge 
# Structural Database, then it will include bibliographic, chemical, 
# crystal, experimental, refinement or atomic coordinate data resulting 
# from the CCDC's data processing and validation procedures.
#
#######################################################################

data_HORVUF
_symmetry_cell_setting           orthorhombic
_symmetry_space_group_name_H-M   'P b c a'
_symmetry_Int_Tables_number      61
_space_group_name_Hall           '-P 2ac 2ab'
loop_
_symmetry_equiv_pos_site_id
_symmetry_equiv_pos_as_xyz
1 x,y,z
2 1/2+x,y,1/2-z
3 x,1/2-y,1/2+z
4 1/2-x,1/2+y,z
5 -x,-y,-z
6 1/2-x,-y,1/2+z
7 -x,1/2+y,1/2-z
8 1/2+x,1/2-y,-z
_cell_length_a                   16.096(3)
_cell_length_b                   6.5180(13)
_cell_length_c                   18.010(4)
_cell_angle_alpha                90
_cell_angle_beta                 90
_cell_angle_gamma                90
_cell_volume                     1889.5
loop_
_atom_site_label
_atom_site_type_symbol
_atom_site_fract_x
_atom_site_fract_y
_atom_site_fract_z
Br1 Br 0.10151(3) -0.86769(7) 0.38326(2)
Br2 Br 0.17753(2) -0.35329(7) 0.50551(3)
Br3 Br 0.16961(3) -0.36713(7) 0.27057(3)
Cu1 Cu 0.11794(4) -0.49057(11) 0.39256(3)
Cu2 Cu 0.18893(4) -0.98912(10) 0.28046(4)
Cu3 Cu 0.17711(4) -0.98147(10) 0.49534(4)
N1 N -0.0050(2) -0.3892(7) 0.3854(2)
C1 C -0.0510(3) -0.4522(9) 0.3288(3)
H1 H -0.0279 -0.5528 0.2967
N2 N -0.1276(2) -0.3847(7) 0.3136(2)
C2 C -0.1580(3) -0.2488(7) 0.3623(2)
H2 H -0.2127 -0.1991 0.3541
N3 N -0.1170(2) -0.1775(6) 0.4218(2)
C3 C -0.0403(3) -0.2521(8) 0.4304(2)
H3 H -0.0087 -0.2042 0.4715
Cu3_2 Cu 0.17711(4) 0.01853(10) 0.49534(4)
Cu3C Cu 0.32289(4) -0.48147(10) 0.49534(4)
Cu2_2 Cu 0.18893(4) 0.01088(10) 0.28046(4)
Cu2C Cu 0.31107(4) -0.48912(10) 0.28046(4)
Br3_2 Br 0.16961(3) -1.36713(7) 0.27057(3)
Br3C Br 0.33039(3) -0.86713(7) 0.27057(3)
Br2_2 Br 0.17753(2) -1.35329(7) 0.50551(3)
Br2C Br 0.32247(2) -0.85329(7) 0.50551(3)
Cu2F Cu -0.18893(4) -0.48912(10) 0.21954(4)
N2F N 0.1276(2) -0.8847(7) 0.1864(2)
N3D N 0.1170(2) -0.8225(6) 0.5782(2)
Cu3D Cu -0.17711(4) -0.01853(10) 0.50466(4)
loop_
_geom_bond_atom_site_label_1
_geom_bond_atom_site_label_2
_geom_bond_site_symmetry_1
_geom_bond_site_symmetry_2
Br1 Cu1 1_555 1_555
Br2 Cu1 1_555 1_555
Br3 Cu1 1_555 1_555
Cu1 N1 1_555 1_555
Cu2 Br1 1_555 1_555
Cu3 Br1 1_555 1_555
N1 C1 1_555 1_555
C1 H1 1_555 1_555
N2 C1 1_555 1_555
C2 N2 1_555 1_555
H2 C2 1_555 1_555
N3 C2 1_555 1_555
C3 N1 1_555 1_555
H3 C3 1_555 1_555
Cu3_2 Br2 1_555 1_555
Cu3C Br2 1_555 1_555
Cu2_2 Br3 1_555 1_555
Cu2C Br3 1_555 1_555
Br3_2 Cu2 1_555 1_555
Br3C Cu2 1_555 1_555
Br2_2 Cu3 1_555 1_555
Br2C Cu3 1_555 1_555
Cu2F N2 1_555 1_555
N2F Cu2 1_555 1_555
N3D Cu3 1_555 1_555
Cu3D N3 1_555 1_555
N3 C3 1_555 1_555
Cu3C Br2C 1_555 1_555
Cu2C Br3C 1_555 1_555

#END
