
#######################################################################
#
#                 Cambridge Crystallographic Data Centre
#                                CCDC 
#
#######################################################################
#
# If this CIF has been generated from an entry in the Cambridge 
# Structural Database, then it will include bibliographic, chemical, 
# crystal, experimental, refinement or atomic coordinate data resulting 
# from the CCDC's data processing and validation procedures.
#
#######################################################################

data_HORYOE01
_symmetry_cell_setting           monoclinic
_symmetry_space_group_name_H-M   'C 2/c'
_symmetry_Int_Tables_number      15
_space_group_name_Hall           '-C 2yn'
loop_
_symmetry_equiv_pos_site_id
_symmetry_equiv_pos_as_xyz
1 x,y,z
2 -x,y,1/2-z
3 1/2+x,1/2+y,z
4 1/2-x,1/2+y,1/2-z
5 -x,-y,-z
6 x,-y,1/2+z
7 1/2-x,1/2-y,-z
8 1/2+x,1/2-y,1/2+z
_cell_length_a                   18.996(15)
_cell_length_b                   11.612(9)
_cell_length_c                   15.472(12)
_cell_angle_alpha                90
_cell_angle_beta                 110.803(9)
_cell_angle_gamma                90
_cell_volume                     3190.34
loop_
_atom_site_label
_atom_site_type_symbol
_atom_site_fract_x
_atom_site_fract_y
_atom_site_fract_z
O1 O 0.77098(11) 1.07039(16) 0.47999(12)
O2 O 0.70152(12) 1.02982(17) 0.33567(13)
C1 C 0.72185(15) 1.0076(2) 0.42150(18)
Ni1 Ni 0.774310(19) 0.83257(3) 0.85984(2)
C2 C 0.69801(16) 0.7427(2) 0.66805(17)
C3 C 0.67728(14) 0.7733(2) 0.56664(17)
C4 C 0.62537(15) 0.7069(2) 0.49720(18)
H1 H 0.6046 0.6415 0.5134
C5 C 0.60432(14) 0.7378(2) 0.40352(17)
C6 C 0.63582(15) 0.8379(2) 0.38180(18)
H2 H 0.6219 0.8604 0.3203
C7 C 0.68783(14) 0.9048(2) 0.45042(17)
C8 C 0.70915(15) 0.8717(2) 0.54335(17)
H3 H 0.7443 0.9149 0.5893
C9 C 0.55024(15) 0.6690(2) 0.32645(18)
C10 C 0.54983(17) 0.5481(2) 0.32594(19)
H4 H 0.5825 0.5074 0.3759
C11 C 0.5000 0.4890(4) 0.2500
H5 H 0.5000 0.4089 0.2500
C12 C 0.5000 0.7273(3) 0.2500
H6 H 0.5000 0.8074 0.2500
C13 C 0.9107(2) 0.7231(3) 0.9947(2)
H7 H 0.9106 0.7889 1.0290
C14 C 0.9672(2) 0.6436(3) 1.0311(2)
H8 H 1.0038 0.6559 1.0891
C15 C 0.96987(16) 0.5446(2) 0.98122(19)
C16 C 0.91291(17) 0.5326(2) 0.8943(2)
H9 H 0.9124 0.4687 0.8578
C17 C 0.85781(17) 0.6152(3) 0.8631(2)
H10 H 0.8203 0.6049 0.8055
N1 N 0.85541(14) 0.7102(2) 0.91166(16)
O3 O 0.75164(11) 0.79887(17) 0.72450(13)
O4 O 0.66046(15) 0.66613(18) 0.69005(14)
O5 O 0.86265(13) 0.94146(19) 0.85630(16)
H11 H 0.8844 0.9115 0.8248
O6 O 0.69108(13) 0.71925(19) 0.86823(14)
H12 H 0.6719 0.6858 0.8187
H13 H 0.708(2) 0.673(3) 0.9117(16)
H14 H 0.854(2) 1.0107(17) 0.845(3)
O1A O 0.22902(11) 1.07039(16) 0.02001(12)
O2A O 0.29848(12) 1.02982(17) 0.16433(13)
C1A C 0.27815(15) 1.0076(2) 0.07850(18)
C2A C 0.30199(16) 0.7427(2) -0.16805(17)
C3A C 0.32272(14) 0.7733(2) -0.06664(17)
C4A C 0.37463(15) 0.7069(2) 0.00280(18)
H1A H 0.3954 0.6415 -0.0134
C5A C 0.39568(14) 0.7378(2) 0.09648(17)
C6A C 0.36418(15) 0.8379(2) 0.11820(18)
H2A H 0.3781 0.8604 0.1797
C7A C 0.31217(14) 0.9048(2) 0.04958(17)
C8A C 0.29085(15) 0.8717(2) -0.04335(17)
H3A H 0.2557 0.9149 -0.0893
C9A C 0.44976(15) 0.6690(2) 0.17355(18)
C10A C 0.45017(17) 0.5481(2) 0.17406(19)
H4A H 0.4175 0.5074 0.1241
O3A O 0.24836(11) 0.79887(17) -0.22450(13)
O4A O 0.33954(15) 0.66613(18) -0.19005(14)
C13D C 1.0893(2) 0.2769(3) 1.0053(2)
H7D H 1.0894 0.2111 0.9710
C14D C 1.0328(2) 0.3564(3) 0.9689(2)
H8D H 0.9962 0.3441 0.9109
C15D C 1.03013(16) 0.4554(2) 1.01878(19)
C16D C 1.08709(17) 0.4674(2) 1.1057(2)
H9D H 1.0876 0.5313 1.1422
C17D C 1.14219(17) 0.3848(3) 1.1369(2)
H10D H 1.1797 0.3951 1.1945
N1D N 1.14459(14) 0.2898(2) 1.08834(16)
Ni1A Ni 0.225690(19) 0.83257(3) -0.35984(2)
O5A O 0.13735(13) 0.94146(19) -0.35630(16)
H11A H 0.1156 0.9115 -0.3248
O6A O 0.30892(13) 0.71925(19) -0.36823(14)
H12A H 0.3281 0.6858 -0.3187
H13A H 0.292(2) 0.673(3) -0.4117(16)
H14A H 0.146(2) 1.0107(17) -0.345(3)
O1D O 0.22902(11) 0.92961(16) -0.47999(12)
O1E O 0.77098(11) 0.92961(16) 0.97999(12)
O2D O 0.29848(12) 0.97018(17) -0.33567(13)
O2E O 0.70152(12) 0.97018(17) 0.83567(13)
Ni1D Ni 0.225690(19) 1.16743(3) 0.14016(2)
Ni1D_2 Ni 1.225690(19) 0.16743(3) 1.14016(2)
Ni1E Ni 0.774310(19) 1.16743(3) 0.35984(2)
N1A N 0.14459(14) 0.7102(2) -0.41166(16)
loop_
_geom_bond_atom_site_label_1
_geom_bond_atom_site_label_2
_geom_bond_site_symmetry_1
_geom_bond_site_symmetry_2
O1 C1 1_555 1_555
O2 C1 1_555 1_555
C1 C7 1_555 1_555
Ni1 N1 1_555 1_555
C2 C3 1_555 1_555
C3 C4 1_555 1_555
C4 H1 1_555 1_555
C5 C4 1_555 1_555
C6 C5 1_555 1_555
H2 C6 1_555 1_555
C7 C6 1_555 1_555
C8 C3 1_555 1_555
H3 C8 1_555 1_555
C9 C5 1_555 1_555
C10 C9 1_555 1_555
H4 C10 1_555 1_555
C11 C10 1_555 1_555
H5 C11 1_555 1_555
C12 C9 1_555 1_555
H6 C12 1_555 1_555
C13 H7 1_555 1_555
C14 C13 1_555 1_555
H8 C14 1_555 1_555
C15 C14 1_555 1_555
C16 C15 1_555 1_555
H9 C16 1_555 1_555
C17 C16 1_555 1_555
H10 C17 1_555 1_555
N1 C13 1_555 1_555
O3 Ni1 1_555 1_555
O4 C2 1_555 1_555
O5 Ni1 1_555 1_555
H11 O5 1_555 1_555
O6 Ni1 1_555 1_555
H12 O6 1_555 1_555
H13 O6 1_555 1_555
H14 O5 1_555 1_555
O1A C1A 1_555 1_555
O2A C1A 1_555 1_555
C1A C7A 1_555 1_555
C2A C3A 1_555 1_555
C3A C4A 1_555 1_555
C4A H1A 1_555 1_555
C5A C4A 1_555 1_555
C6A C5A 1_555 1_555
H2A C6A 1_555 1_555
C7A C6A 1_555 1_555
C8A C3A 1_555 1_555
H3A C8A 1_555 1_555
C9A C12 1_555 1_555
C10A C11 1_555 1_555
H4A C10A 1_555 1_555
O3A C2A 1_555 1_555
O4A C2A 1_555 1_555
C13D H7D 1_555 1_555
C14D C13D 1_555 1_555
H8D C14D 1_555 1_555
C15D C15 1_555 1_555
C16D C15D 1_555 1_555
H9D C16D 1_555 1_555
C17D C16D 1_555 1_555
H10D C17D 1_555 1_555
N1D C13D 1_555 1_555
Ni1A O3A 1_555 1_555
O5A Ni1A 1_555 1_555
H11A O5A 1_555 1_555
O6A Ni1A 1_555 1_555
H12A O6A 1_555 1_555
H13A O6A 1_555 1_555
H14A O5A 1_555 1_555
O1D Ni1A 1_555 1_555
O1E Ni1 1_555 1_555
O2D Ni1A 1_555 1_555
O2E Ni1 1_555 1_555
Ni1D O1A 1_555 1_555
Ni1D_2 N1D 1_555 1_555
Ni1E O1 1_555 1_555
N1A Ni1A 1_555 1_555
O2 Ni1E 1_555 1_555
C2 O3 1_555 1_555
C7 C8 1_555 1_555
C17 N1 1_555 1_555
O2A Ni1D 1_555 1_555
C5A C9A 1_555 1_555
C7A C8A 1_555 1_555
C9A C10A 1_555 1_555
C14D C15D 1_555 1_555
C17D N1D 1_555 1_555

#END
