
#######################################################################
#
#                 Cambridge Crystallographic Data Centre
#                                CCDC 
#
#######################################################################
#
# If this CIF has been generated from an entry in the Cambridge 
# Structural Database, then it will include bibliographic, chemical, 
# crystal, experimental, refinement or atomic coordinate data resulting 
# from the CCDC's data processing and validation procedures.
#
#######################################################################

data_HORYIY01
_symmetry_cell_setting           monoclinic
_symmetry_space_group_name_H-M   'C 2/c'
_symmetry_Int_Tables_number      15
_space_group_name_Hall           '-C 2yn'
loop_
_symmetry_equiv_pos_site_id
_symmetry_equiv_pos_as_xyz
1 x,y,z
2 -x,y,1/2-z
3 1/2+x,1/2+y,z
4 1/2-x,1/2+y,1/2-z
5 -x,-y,-z
6 x,-y,1/2+z
7 1/2-x,1/2-y,-z
8 1/2+x,1/2-y,1/2+z
_cell_length_a                   18.900(11)
_cell_length_b                   11.642(6)
_cell_length_c                   15.455(9)
_cell_angle_alpha                90
_cell_angle_beta                 110.896(7)
_cell_angle_gamma                90
_cell_volume                     3176.96
loop_
_atom_site_label
_atom_site_type_symbol
_atom_site_fract_x
_atom_site_fract_y
_atom_site_fract_z
O1 O 0.25101(10) 0.20202(15) -0.22281(11)
C1 C 0.30415(13) 0.25874(19) -0.16620(15)
Co1 Co 0.226962(17) -0.16694(3) 0.14127(2)
C2 C 0.27995(13) -0.0052(2) 0.07836(16)
C3 C 0.31343(12) 0.09750(19) 0.04983(15)
C4 C 0.29282(12) 0.1306(2) -0.04221(15)
H1 H 0.2578 0.0873 -0.0884
C5 C 0.32435(12) 0.22798(19) -0.06540(14)
C6 C 0.37567(12) 0.29447(19) 0.00388(15)
H2 H 0.3964 0.3600 -0.0120
C7 C 0.39612(12) 0.26330(19) 0.09699(15)
C8 C 0.36470(13) 0.16399(18) 0.11811(15)
H3 H 0.3784 0.1416 0.1797
C9 C 0.44979(12) 0.33145(18) 0.17392(16)
C10 C 0.45033(14) 0.4512(2) 0.17444(16)
H4 H 0.4175 0.4917 0.1243
C11 C 0.5000 0.5100(3) 0.2500
H5 H 0.5000 0.5899 0.2500
C12 C 0.5000 0.2740(3) 0.2500
H6 H 0.5000 0.1941 0.2500
C13 C 0.14129(14) -0.3844(2) 0.13667(17)
H7 H 0.1788 -0.3941 0.1946
C14 C 0.08617(14) -0.4666(2) 0.10533(17)
H8 H 0.0865 -0.5299 0.1422
C15 C 0.02978(13) -0.4558(2) 0.01864(16)
C16 C 0.03253(18) -0.3581(3) -0.0314(2)
H9 H -0.0043 -0.3461 -0.0895
C17 C 0.08922(18) -0.2792(3) 0.0045(2)
H10 H 0.0899 -0.2147 -0.0306
N1 N 0.14364(12) -0.29065(18) 0.08763(14)
O2 O 0.30016(11) -0.02834(16) 0.16337(11)
O3 O 0.23098(10) -0.06744(15) 0.01979(11)
O4 O 0.34096(13) 0.33539(16) -0.18822(12)
O5 O 0.31085(11) -0.28590(16) 0.13246(12)
H11 H 0.2909 -0.3331 0.0917
O6 O 0.13615(11) -0.05801(17) 0.14365(15)
H12 H 0.1521 0.0074 0.1579
H13 H 0.3211(18) -0.314(3) 0.1851(12)
H14 H 0.106(2) -0.077(3) 0.168(3)
O1A O 0.74899(10) 0.20202(15) 0.72281(11)
C1A C 0.69585(13) 0.25874(19) 0.66620(15)
C2A C 0.72005(13) -0.0052(2) 0.42164(16)
C3A C 0.68657(12) 0.09750(19) 0.45017(15)
C4A C 0.70718(12) 0.1306(2) 0.54221(15)
H1A H 0.7422 0.0873 0.5884
C5A C 0.67565(12) 0.22798(19) 0.56540(14)
C6A C 0.62433(12) 0.29447(19) 0.49612(15)
H2A H 0.6036 0.3600 0.5120
C7A C 0.60388(12) 0.26330(19) 0.40301(15)
C8A C 0.63530(13) 0.16399(18) 0.38189(15)
H3A H 0.6216 0.1416 0.3203
C9A C 0.55021(12) 0.33145(18) 0.32608(16)
C10A C 0.54967(14) 0.4512(2) 0.32556(16)
H4A H 0.5825 0.4917 0.3757
O2A O 0.69984(11) -0.02834(16) 0.33663(11)
O3A O 0.76902(10) -0.06744(15) 0.48021(11)
O4A O 0.65904(13) 0.33539(16) 0.68822(12)
C13D C -0.14129(14) -0.6156(2) -0.13667(17)
H7D H -0.1788 -0.6059 -0.1946
C14D C -0.08617(14) -0.5334(2) -0.10533(17)
H8D H -0.0865 -0.4701 -0.1422
C15D C -0.02978(13) -0.5442(2) -0.01864(16)
C16D C -0.03253(18) -0.6419(3) 0.0314(2)
H9D H 0.0043 -0.6539 0.0895
C17D C -0.08922(18) -0.7208(3) -0.0045(2)
H10D H -0.0899 -0.7853 0.0306
N1D N -0.14364(12) -0.70935(18) -0.08763(14)
Co1A Co 0.773038(17) -0.16694(3) 0.35873(2)
O5A O 0.68915(11) -0.28590(16) 0.36754(12)
H11A H 0.7091 -0.3331 0.4083
O6A O 0.86385(11) -0.05801(17) 0.35635(15)
H12A H 0.8479 0.0074 0.3421
H13A H 0.6789(18) -0.314(3) 0.3149(12)
H14A H 0.894(2) -0.077(3) 0.332(3)
O1D O 0.74899(10) -0.20202(15) 0.22281(11)
O1E O 0.25101(10) -0.20202(15) 0.27719(11)
Co1D Co -0.226962(17) -0.83306(3) -0.14127(2)
Co1D_2 Co 0.773038(17) 0.16694(3) 0.85873(2)
Co1E Co 0.226962(17) 0.16694(3) -0.35873(2)
N1A N 0.85636(12) -0.29065(18) 0.41237(14)
loop_
_geom_bond_atom_site_label_1
_geom_bond_atom_site_label_2
_geom_bond_site_symmetry_1
_geom_bond_site_symmetry_2
O1 C1 1_555 1_555
C1 C5 1_555 1_555
Co1 N1 1_555 1_555
C2 C3 1_555 1_555
C3 C4 1_555 1_555
C4 H1 1_555 1_555
C5 C4 1_555 1_555
C6 C5 1_555 1_555
H2 C6 1_555 1_555
C7 C6 1_555 1_555
C8 C3 1_555 1_555
H3 C8 1_555 1_555
C9 C7 1_555 1_555
C10 C9 1_555 1_555
H4 C10 1_555 1_555
C11 C10 1_555 1_555
H5 C11 1_555 1_555
C12 C9 1_555 1_555
H6 C12 1_555 1_555
C13 H7 1_555 1_555
C14 C13 1_555 1_555
H8 C14 1_555 1_555
C15 C14 1_555 1_555
C16 C15 1_555 1_555
H9 C16 1_555 1_555
C17 C16 1_555 1_555
H10 C17 1_555 1_555
N1 C13 1_555 1_555
O2 Co1 1_555 1_555
O3 Co1 1_555 1_555
O4 C1 1_555 1_555
O5 Co1 1_555 1_555
H11 O5 1_555 1_555
O6 Co1 1_555 1_555
H12 O6 1_555 1_555
H13 O5 1_555 1_555
H14 O6 1_555 1_555
O1A C1A 1_555 1_555
C1A C5A 1_555 1_555
C2A C3A 1_555 1_555
C3A C4A 1_555 1_555
C4A H1A 1_555 1_555
C5A C4A 1_555 1_555
C6A C5A 1_555 1_555
H2A C6A 1_555 1_555
C7A C6A 1_555 1_555
C8A C3A 1_555 1_555
H3A C8A 1_555 1_555
C9A C12 1_555 1_555
C10A C11 1_555 1_555
H4A C10A 1_555 1_555
O2A C2A 1_555 1_555
O3A C2A 1_555 1_555
O4A C1A 1_555 1_555
C13D H7D 1_555 1_555
C14D C13D 1_555 1_555
H8D C14D 1_555 1_555
C15D C15 1_555 1_555
C16D C15D 1_555 1_555
H9D C16D 1_555 1_555
C17D C16D 1_555 1_555
H10D C17D 1_555 1_555
N1D C13D 1_555 1_555
Co1A O2A 1_555 1_555
O5A Co1A 1_555 1_555
H11A O5A 1_555 1_555
O6A Co1A 1_555 1_555
H12A O6A 1_555 1_555
H13A O5A 1_555 1_555
H14A O6A 1_555 1_555
O1D Co1A 1_555 1_555
O1E Co1 1_555 1_555
Co1D N1D 1_555 1_555
Co1D_2 O1A 1_555 1_555
Co1E O1 1_555 1_555
N1A Co1A 1_555 1_555
C2 O2 1_555 1_555
C2 O3 1_555 1_555
C7 C8 1_555 1_555
C17 N1 1_555 1_555
C7A C8A 1_555 1_555
C7A C9A 1_555 1_555
C9A C10A 1_555 1_555
O3A Co1A 1_555 1_555
C14D C15D 1_555 1_555
C17D N1D 1_555 1_555

#END
