
#######################################################################
#
#                 Cambridge Crystallographic Data Centre
#                                CCDC 
#
#######################################################################
#
# If this CIF has been generated from an entry in the Cambridge 
# Structural Database, then it will include bibliographic, chemical, 
# crystal, experimental, refinement or atomic coordinate data resulting 
# from the CCDC's data processing and validation procedures.
#
#######################################################################

data_HORYIY
_symmetry_cell_setting           monoclinic
_symmetry_space_group_name_H-M   'C 2/c'
_symmetry_Int_Tables_number      15
_space_group_name_Hall           '-C 2yn'
loop_
_symmetry_equiv_pos_site_id
_symmetry_equiv_pos_as_xyz
1 x,y,z
2 -x,y,1/2-z
3 1/2+x,1/2+y,z
4 1/2-x,1/2+y,1/2-z
5 -x,-y,-z
6 x,-y,1/2+z
7 1/2-x,1/2-y,-z
8 1/2+x,1/2-y,1/2+z
_cell_length_a                   18.905(4)
_cell_length_b                   11.646(2)
_cell_length_c                   15.432(3)
_cell_angle_alpha                90
_cell_angle_beta                 110.81(3)
_cell_angle_gamma                90
_cell_volume                     3175.98
loop_
_atom_site_label
_atom_site_type_symbol
_atom_site_fract_x
_atom_site_fract_y
_atom_site_fract_z
Co1 Co 0.22684(3) 0.33325(5) 0.14118(4)
O1 O 0.25091(18) 0.2979(3) 0.2772(2)
O2 O 0.3411(2) 0.1648(3) 0.3120(2)
O3 O 0.23101(18) 0.5675(3) 0.5194(2)
O4 O 0.3002(2) 0.5280(3) 0.6635(2)
O5 O 0.1360(2) 0.4430(3) 0.1435(3)
O6 O 0.31053(19) 0.2136(3) 0.1329(2)
N1 N 0.1435(2) 0.2091(3) 0.0874(3)
C1 C 0.3044(3) 0.2414(4) 0.3337(3)
C2 C 0.3241(2) 0.2718(4) 0.4343(3)
C3 C 0.2927(2) 0.3698(4) 0.4573(3)
H1 H 0.2580 0.4135 0.4111
C4 C 0.3136(2) 0.4019(4) 0.5497(3)
C5 C 0.2802(2) 0.5057(4) 0.5784(3)
C6 C 0.3643(2) 0.3360(4) 0.6180(3)
H2 H 0.3778 0.3586 0.6796
C7 C 0.3959(2) 0.2359(4) 0.5969(3)
C8 C 0.3756(2) 0.2062(4) 0.5040(3)
H3 H 0.3967 0.1411 0.4880
C9 C 0.4494(2) 0.1683(4) 0.6737(3)
C10 C 0.5000 0.2257(5) 0.7500
H4 H 0.5000 0.3056 0.7500
C11 C 0.4506(3) 0.0490(4) 0.6745(3)
H5 H 0.4182 0.0082 0.6242
C12 C 0.5000 -0.0094(6) 0.7500
H6 H 0.5000 -0.0893 0.7500
C13 C 0.1412(3) 0.1159(4) 0.1361(3)
H7 H 0.1790 0.1058 0.1938
C14 C 0.0858(3) 0.0341(4) 0.1052(3)
H8 H 0.0859 -0.0286 0.1425
C15 C 0.0296(2) 0.0445(4) 0.0184(3)
C16 C 0.0331(3) 0.1416(5) -0.0317(4)
H9 H -0.0031 0.1531 -0.0904
C17 C 0.0891(3) 0.2202(5) 0.0042(4)
H10 H 0.0895 0.2850 -0.0308
O1A O 0.74909(18) 0.2979(3) 1.2228(2)
O2A O 0.6589(2) 0.1648(3) 1.1880(2)
O3A O 0.76899(18) 0.5675(3) 0.9806(2)
O4A O 0.6998(2) 0.5280(3) 0.8365(2)
C1A C 0.6956(3) 0.2414(4) 1.1663(3)
C2A C 0.6759(2) 0.2718(4) 1.0657(3)
C3A C 0.7073(2) 0.3698(4) 1.0427(3)
H1A H 0.7420 0.4135 1.0889
C4A C 0.6864(2) 0.4019(4) 0.9503(3)
C5A C 0.7198(2) 0.5057(4) 0.9216(3)
C6A C 0.6357(2) 0.3360(4) 0.8820(3)
H2A H 0.6222 0.3586 0.8204
C7A C 0.6041(2) 0.2359(4) 0.9031(3)
C8A C 0.6244(2) 0.2062(4) 0.9960(3)
H3A H 0.6033 0.1411 1.0120
C9A C 0.5506(2) 0.1683(4) 0.8263(3)
C11A C 0.5494(3) 0.0490(4) 0.8255(3)
H5A H 0.5818 0.0082 0.8758
N1D N -0.1435(2) -0.2091(3) -0.0874(3)
C13D C -0.1412(3) -0.1159(4) -0.1361(3)
H7D H -0.1790 -0.1058 -0.1938
C14D C -0.0858(3) -0.0341(4) -0.1052(3)
H8D H -0.0859 0.0286 -0.1425
C15D C -0.0296(2) -0.0445(4) -0.0184(3)
C16D C -0.0331(3) -0.1416(5) 0.0317(4)
H9D H 0.0031 -0.1531 0.0904
C17D C -0.0891(3) -0.2202(5) -0.0042(4)
H10D H -0.0895 -0.2850 0.0308
Co1A Co 0.77316(3) 0.33325(5) 1.35882(4)
O5A O 0.8640(2) 0.4430(3) 1.3565(3)
O6A O 0.68947(19) 0.2136(3) 1.3671(2)
Co1D Co -0.22684(3) -0.33325(5) -0.14118(4)
Co1D_2 Co 0.77316(3) 0.66675(5) 0.85882(4)
Co1E Co 0.22684(3) 0.66675(5) 0.64118(4)
O3D O 0.76899(18) 0.4325(3) 1.4806(2)
O3E O 0.23101(18) 0.4325(3) 0.0194(2)
O4D O 0.6998(2) 0.4720(3) 1.3365(2)
O4E O 0.3002(2) 0.4720(3) 0.1635(2)
N1A N 0.8565(2) 0.2091(3) 1.4126(3)
loop_
_geom_bond_atom_site_label_1
_geom_bond_atom_site_label_2
_geom_bond_site_symmetry_1
_geom_bond_site_symmetry_2
Co1 O1 1_555 1_555
O1 C1 1_555 1_555
O2 C1 1_555 1_555
O3 C5 1_555 1_555
O4 C5 1_555 1_555
O5 Co1 1_555 1_555
O6 Co1 1_555 1_555
N1 Co1 1_555 1_555
C1 C2 1_555 1_555
C2 C3 1_555 1_555
C3 H1 1_555 1_555
C4 C3 1_555 1_555
C5 C4 1_555 1_555
C6 C4 1_555 1_555
H2 C6 1_555 1_555
C7 C6 1_555 1_555
C8 C2 1_555 1_555
H3 C8 1_555 1_555
C9 C7 1_555 1_555
C10 C9 1_555 1_555
H4 C10 1_555 1_555
C11 C9 1_555 1_555
H5 C11 1_555 1_555
C12 C11 1_555 1_555
H6 C12 1_555 1_555
C13 N1 1_555 1_555
H7 C13 1_555 1_555
C14 C13 1_555 1_555
H8 C14 1_555 1_555
C15 C14 1_555 1_555
C16 C15 1_555 1_555
H9 C16 1_555 1_555
C17 N1 1_555 1_555
H10 C17 1_555 1_555
O1A C1A 1_555 1_555
O2A C1A 1_555 1_555
O3A C5A 1_555 1_555
O4A C5A 1_555 1_555
C1A C2A 1_555 1_555
C2A C3A 1_555 1_555
C3A H1A 1_555 1_555
C4A C3A 1_555 1_555
C5A C4A 1_555 1_555
C6A C4A 1_555 1_555
H2A C6A 1_555 1_555
C7A C6A 1_555 1_555
C8A C2A 1_555 1_555
H3A C8A 1_555 1_555
C9A C10 1_555 1_555
C11A C12 1_555 1_555
H5A C11A 1_555 1_555
N1D C13D 1_555 1_555
C13D H7D 1_555 1_555
C14D C13D 1_555 1_555
H8D C14D 1_555 1_555
C15D C15 1_555 1_555
C16D C15D 1_555 1_555
H9D C16D 1_555 1_555
C17D N1D 1_555 1_555
H10D C17D 1_555 1_555
Co1A O1A 1_555 1_555
O5A Co1A 1_555 1_555
O6A Co1A 1_555 1_555
Co1D N1D 1_555 1_555
Co1D_2 O3A 1_555 1_555
Co1E O3 1_555 1_555
O3D Co1A 1_555 1_555
O3E Co1 1_555 1_555
O4D Co1A 1_555 1_555
O4E Co1 1_555 1_555
N1A Co1A 1_555 1_555
O4 Co1E 1_555 1_555
C7 C8 1_555 1_555
C16 C17 1_555 1_555
O4A Co1D_2 1_555 1_555
C7A C8A 1_555 1_555
C7A C9A 1_555 1_555
C9A C11A 1_555 1_555
C14D C15D 1_555 1_555
C16D C17D 1_555 1_555

#END
