
#######################################################################
#
#                 Cambridge Crystallographic Data Centre
#                                CCDC 
#
#######################################################################
#
# If this CIF has been generated from an entry in the Cambridge 
# Structural Database, then it will include bibliographic, chemical, 
# crystal, experimental, refinement or atomic coordinate data resulting 
# from the CCDC's data processing and validation procedures.
#
#######################################################################

data_HORZAR
_symmetry_cell_setting           monoclinic
_symmetry_space_group_name_H-M   'C 2/c'
_symmetry_Int_Tables_number      15
_space_group_name_Hall           '-C 2yn'
loop_
_symmetry_equiv_pos_site_id
_symmetry_equiv_pos_as_xyz
1 x,y,z
2 -x,y,1/2-z
3 1/2+x,1/2+y,z
4 1/2-x,1/2+y,1/2-z
5 -x,-y,-z
6 x,-y,1/2+z
7 1/2-x,1/2-y,-z
8 1/2+x,1/2-y,1/2+z
_cell_length_a                   28.507(6)
_cell_length_b                   10.687(2)
_cell_length_c                   18.199(4)
_cell_angle_alpha                90
_cell_angle_beta                 97.48(3)
_cell_angle_gamma                90
_cell_volume                     5497.22
loop_
_atom_site_label
_atom_site_type_symbol
_atom_site_fract_x
_atom_site_fract_y
_atom_site_fract_z
Mn1 Mn 0.036300(14) 0.31186(4) -0.15332(2)
O1 O 0.09791(7) 0.2715(2) -0.05625(10)
O2 O 0.04496(7) 0.4169(2) -0.04942(10)
O3 O 0.03141(7) 0.6179(2) 0.19293(11)
O4 O 0.07811(7) 0.5575(2) 0.29247(10)
O5 O 0.15522(9) -0.0790(2) 0.43463(12)
H1 H 0.1398 -0.1375 0.4481
O6 O 0.17761(9) -0.0544(3) 0.55552(13)
O7 O 0.35040(8) 0.0396(3) 0.60397(12)
H2 H 0.3773 0.0372 0.6264
O8 O 0.38086(10) 0.1878(3) 0.53878(16)
N1 N 0.06181(8) 0.1307(2) -0.19944(12)
N2 N -0.00671(8) 0.1587(2) -0.11044(13)
C1 C 0.08034(10) 0.3576(3) -0.02086(14)
C2 C 0.10155(10) 0.3870(2) 0.05731(14)
C3 C 0.07603(10) 0.4597(2) 0.10127(14)
H3 H 0.0477 0.4963 0.0810
C4 C 0.09298(9) 0.4777(2) 0.17554(14)
C5 C 0.06544(10) 0.5549(3) 0.22317(15)
C6 C 0.13628(10) 0.4255(2) 0.20462(14)
H4 H 0.1477 0.4386 0.2543
C7 C 0.16281(9) 0.3545(2) 0.16113(14)
C8 C 0.14480(10) 0.3355(3) 0.08711(14)
H5 H 0.1619 0.2879 0.0571
C9 C 0.20867(10) 0.2990(3) 0.19401(15)
C10 C 0.21437(10) 0.2586(3) 0.26752(14)
H6 H 0.1894 0.2677 0.2953
C11 C 0.25641(10) 0.2048(3) 0.30036(16)
C12 C 0.29356(10) 0.1944(3) 0.25843(17)
H7 H 0.3222 0.1605 0.2798
C13 C 0.28866(11) 0.2337(3) 0.18533(17)
H8 H 0.3139 0.2261 0.1579
C14 C 0.24623(10) 0.2843(3) 0.15319(16)
H9 H 0.2428 0.3086 0.1037
C15 C 0.25973(10) 0.1542(3) 0.37698(16)
C16 C 0.22152(10) 0.0893(3) 0.39919(16)
H10 H 0.1941 0.0794 0.3659
C17 C 0.22344(10) 0.0393(3) 0.46964(16)
C18 C 0.18352(11) -0.0343(3) 0.49216(17)
C19 C 0.26431(11) 0.0514(3) 0.51923(16)
H11 H 0.2657 0.0183 0.5667
C20 C 0.30313(10) 0.1128(3) 0.49812(16)
C21 C 0.30062(10) 0.1655(3) 0.42761(16)
H12 H 0.3265 0.2086 0.4142
C22 C 0.34903(12) 0.1204(3) 0.54807(17)
C23 C 0.09626(11) 0.1166(3) -0.24092(17)
H13 H 0.1098 0.1880 -0.2584
C24 C 0.11331(13) -0.0003(4) -0.2598(2)
H14 H 0.1376 -0.0065 -0.2891
C25 C 0.09346(14) -0.1046(4) -0.2342(2)
H15 H 0.1044 -0.1832 -0.2460
C26 C 0.05708(12) -0.0952(3) -0.19066(19)
C27 C 0.04236(10) 0.0257(3) -0.17335(16)
C28 C 0.03379(15) -0.2008(3) -0.1619(2)
H16 H 0.0437 -0.2813 -0.1716
C29 C -0.00179(16) -0.1856(4) -0.1215(2)
H17 H -0.0166 -0.2558 -0.1049
C30 C -0.01746(13) -0.0650(3) -0.10345(18)
C31 C 0.00520(11) 0.0414(3) -0.12786(15)
C32 C -0.05461(14) -0.0431(4) -0.0611(2)
H18 H -0.0709 -0.1105 -0.0444
C33 C -0.06690(13) 0.0758(4) -0.0444(2)
H19 H -0.0916 0.0907 -0.0168
C34 C -0.04150(11) 0.1739(3) -0.06979(16)
H20 H -0.0494 0.2550 -0.0575
Mn1D Mn -0.036300(14) 0.68814(4) 0.15332(2)
Mn1E Mn 0.036300(14) 0.68814(4) 0.34668(2)
O3D O -0.03141(7) 0.3821(2) -0.19293(11)
O4E O 0.07811(7) 0.4425(2) -0.20753(10)
loop_
_geom_bond_atom_site_label_1
_geom_bond_atom_site_label_2
_geom_bond_site_symmetry_1
_geom_bond_site_symmetry_2
Mn1 O1 1_555 1_555
O1 C1 1_555 1_555
O2 Mn1 1_555 1_555
O3 C5 1_555 1_555
O4 C5 1_555 1_555
O5 H1 1_555 1_555
O6 C18 1_555 1_555
O7 H2 1_555 1_555
O8 C22 1_555 1_555
N1 Mn1 1_555 1_555
N2 Mn1 1_555 1_555
C1 O2 1_555 1_555
C2 C1 1_555 1_555
C3 C2 1_555 1_555
H3 C3 1_555 1_555
C4 C3 1_555 1_555
C5 C4 1_555 1_555
C6 C4 1_555 1_555
H4 C6 1_555 1_555
C7 C6 1_555 1_555
C8 C2 1_555 1_555
H5 C8 1_555 1_555
C9 C7 1_555 1_555
C10 C9 1_555 1_555
H6 C10 1_555 1_555
C11 C10 1_555 1_555
C12 C11 1_555 1_555
H7 C12 1_555 1_555
C13 C12 1_555 1_555
H8 C13 1_555 1_555
C14 C9 1_555 1_555
H9 C14 1_555 1_555
C15 C11 1_555 1_555
C16 C15 1_555 1_555
H10 C16 1_555 1_555
C17 C16 1_555 1_555
C18 O5 1_555 1_555
C19 C17 1_555 1_555
H11 C19 1_555 1_555
C20 C19 1_555 1_555
C21 C15 1_555 1_555
H12 C21 1_555 1_555
C22 O7 1_555 1_555
C23 N1 1_555 1_555
H13 C23 1_555 1_555
C24 C23 1_555 1_555
H14 C24 1_555 1_555
C25 C24 1_555 1_555
H15 C25 1_555 1_555
C26 C25 1_555 1_555
C27 N1 1_555 1_555
C28 C26 1_555 1_555
H16 C28 1_555 1_555
C29 C28 1_555 1_555
H17 C29 1_555 1_555
C30 C29 1_555 1_555
C31 N2 1_555 1_555
C32 C30 1_555 1_555
H18 C32 1_555 1_555
C33 C32 1_555 1_555
H19 C33 1_555 1_555
C34 N2 1_555 1_555
H20 C34 1_555 1_555
Mn1D O3 1_555 1_555
Mn1E O4 1_555 1_555
O3D Mn1 1_555 1_555
O4E Mn1 1_555 1_555
C7 C8 1_555 1_555
C13 C14 1_555 1_555
C17 C18 1_555 1_555
C20 C21 1_555 1_555
C20 C22 1_555 1_555
C26 C27 1_555 1_555
C27 C31 1_555 1_555
C30 C31 1_555 1_555
C33 C34 1_555 1_555

#END
