
#######################################################################
#
#                 Cambridge Crystallographic Data Centre
#                                CCDC 
#
#######################################################################
#
# If this CIF has been generated from an entry in the Cambridge 
# Structural Database, then it will include bibliographic, chemical, 
# crystal, experimental, refinement or atomic coordinate data resulting 
# from the CCDC's data processing and validation procedures.
#
#######################################################################

data_HOSDAW
_symmetry_cell_setting           monoclinic
_symmetry_space_group_name_H-M   'C 2/c'
_symmetry_Int_Tables_number      15
_space_group_name_Hall           '-C 2yn'
loop_
_symmetry_equiv_pos_site_id
_symmetry_equiv_pos_as_xyz
1 x,y,z
2 -x,y,1/2-z
3 1/2+x,1/2+y,z
4 1/2-x,1/2+y,1/2-z
5 -x,-y,-z
6 x,-y,1/2+z
7 1/2-x,1/2-y,-z
8 1/2+x,1/2-y,1/2+z
_cell_length_a                   14.1043(4)
_cell_length_b                   20.3070(5)
_cell_length_c                   19.7227(6)
_cell_angle_alpha                90
_cell_angle_beta                 96.420(3)
_cell_angle_gamma                90
_cell_volume                     5613.47
loop_
_atom_site_label
_atom_site_type_symbol
_atom_site_fract_x
_atom_site_fract_y
_atom_site_fract_z
Cd1 Cd 0.0000 0.28656(2) 0.2500
Cd2 Cd 0.13984(2) 0.296424(16) 0.453884(16)
Cl1 Cl 0.08789(13) -0.04428(7) 0.34755(10)
S1 S -0.11742(8) 0.18061(6) 0.34474(6)
S2 S 0.27692(8) 0.18818(6) 0.37680(6)
O1 O -0.1198(2) 0.23424(18) 0.29521(18)
O2 O 0.0313(2) 0.2370(2) 0.50340(18)
H1 H 0.0080 0.2520 0.5382
H2 H 0.0139 0.1994 0.4874
O3 O -0.1880(3) 0.13058(19) 0.3261(2)
O4 O -0.1225(3) 0.2060(2) 0.41373(18)
O5 O 0.3502(2) 0.13925(19) 0.3933(2)
O6 O 0.2908(3) 0.2304(2) 0.32060(18)
O7 O 0.2652(2) 0.22735(16) 0.43899(16)
O8 O 0.0766(2) 0.24578(14) 0.35494(14)
N1 N 0.2299(3) 0.39190(19) 0.45141(19)
N2 N 0.0363(3) 0.38249(19) 0.42821(18)
N3 N 0.0975(3) 0.3785(2) 0.26233(19)
C1 C -0.0044(3) 0.1420(2) 0.3460(2)
C2 C 0.0795(3) 0.1809(2) 0.3536(2)
C3 C 0.1669(3) 0.1454(2) 0.3601(2)
C4 C 0.1692(4) 0.0774(2) 0.3571(3)
H3 H 0.2274 0.0555 0.3610
C5 C 0.0849(4) 0.0422(2) 0.3485(3)
C6 C -0.0018(4) 0.0739(2) 0.3430(2)
H4 H -0.0582 0.0498 0.3373
C7 C 0.3244(4) 0.3965(3) 0.4609(3)
H5 H 0.3600 0.3580 0.4659
C8 C 0.3723(4) 0.4563(3) 0.4637(3)
H6 H 0.4386 0.4574 0.4709
C9 C 0.3214(4) 0.5133(3) 0.4559(3)
H7 H 0.3528 0.5536 0.4577
C10 C 0.2210(4) 0.5109(2) 0.4451(2)
C11 C 0.1778(4) 0.4482(2) 0.4432(2)
C12 C 0.1616(5) 0.5683(3) 0.4339(3)
H8 H 0.1897 0.6098 0.4354
C13 C 0.0662(5) 0.5632(2) 0.4214(2)
H9 H 0.0296 0.6012 0.4144
C14 C 0.0750(3) 0.4432(2) 0.4301(2)
C15 C 0.0203(4) 0.5007(2) 0.4189(2)
C16 C -0.0788(4) 0.4930(3) 0.4053(2)
H10 H -0.1180 0.5298 0.3983
C17 C -0.1172(4) 0.4320(3) 0.4023(2)
H11 H -0.1827 0.4265 0.3924
C18 C -0.0577(3) 0.3769(3) 0.4143(2)
H12 H -0.0850 0.3351 0.4124
C19 C 0.1920(4) 0.3775(3) 0.2735(3)
H13 H 0.2232 0.3371 0.2779
C20 C 0.2462(6) 0.4351(4) 0.2789(3)
H14 H 0.3124 0.4331 0.2861
C21 C 0.2011(7) 0.4944(4) 0.2735(3)
H15 H 0.2368 0.5330 0.2773
C22 C 0.1010(7) 0.4978(3) 0.2624(3)
C23 C 0.0512(4) 0.4374(2) 0.2562(2)
C24 C 0.0464(6) 0.5585(3) 0.2552(4)
H16 H 0.0786 0.5985 0.2580
N3A N -0.0975(3) 0.3785(2) 0.23767(19)
C19A C -0.1920(4) 0.3775(3) 0.2265(3)
H13A H -0.2232 0.3371 0.2221
C20A C -0.2462(6) 0.4351(4) 0.2211(3)
H14A H -0.3124 0.4331 0.2139
C21A C -0.2011(7) 0.4944(4) 0.2265(3)
H15A H -0.2368 0.5330 0.2227
C22A C -0.1010(7) 0.4978(3) 0.2376(3)
C23A C -0.0512(4) 0.4374(2) 0.2438(2)
C24A C -0.0464(6) 0.5585(3) 0.2448(4)
H16A H -0.0786 0.5985 0.2420
Cd2A Cd -0.13984(2) 0.296424(16) 0.046116(16)
Cl1A Cl -0.08789(13) -0.04428(7) 0.15245(10)
S1A S 0.11742(8) 0.18061(6) 0.15526(6)
S2A S -0.27692(8) 0.18818(6) 0.12320(6)
O1A O 0.1198(2) 0.23424(18) 0.20479(18)
O2A O -0.0313(2) 0.2370(2) -0.00340(18)
H1A H -0.0080 0.2520 -0.0382
H2A H -0.0139 0.1994 0.0126
O3A O 0.1880(3) 0.13058(19) 0.1739(2)
O4A O 0.1225(3) 0.2060(2) 0.08627(18)
O5A O -0.3502(2) 0.13925(19) 0.1067(2)
O6A O -0.2908(3) 0.2304(2) 0.17940(18)
O7A O -0.2652(2) 0.22735(16) 0.06101(16)
O8A O -0.0766(2) 0.24578(14) 0.14506(14)
N1A N -0.2299(3) 0.39190(19) 0.04859(19)
N2A N -0.0363(3) 0.38249(19) 0.07179(18)
C1A C 0.0044(3) 0.1420(2) 0.1540(2)
C2A C -0.0795(3) 0.1809(2) 0.1464(2)
C3A C -0.1669(3) 0.1454(2) 0.1399(2)
C4A C -0.1692(4) 0.0774(2) 0.1429(3)
H3A H -0.2274 0.0555 0.1390
C5A C -0.0849(4) 0.0422(2) 0.1515(3)
C6A C 0.0018(4) 0.0739(2) 0.1570(2)
H4A H 0.0582 0.0498 0.1627
C7A C -0.3244(4) 0.3965(3) 0.0391(3)
H5A H -0.3600 0.3580 0.0341
C8A C -0.3723(4) 0.4563(3) 0.0363(3)
H6A H -0.4386 0.4574 0.0291
C9A C -0.3214(4) 0.5133(3) 0.0441(3)
H7A H -0.3528 0.5536 0.0423
C10A C -0.2210(4) 0.5109(2) 0.0549(2)
C11A C -0.1778(4) 0.4482(2) 0.0568(2)
C12A C -0.1616(5) 0.5683(3) 0.0661(3)
H8A H -0.1897 0.6098 0.0646
C13A C -0.0662(5) 0.5632(2) 0.0786(2)
H9A H -0.0296 0.6012 0.0856
C14A C -0.0750(3) 0.4432(2) 0.0699(2)
C15A C -0.0203(4) 0.5007(2) 0.0811(2)
C16A C 0.0788(4) 0.4930(3) 0.0947(2)
H10A H 0.1180 0.5298 0.1017
C17A C 0.1172(4) 0.4320(3) 0.0977(2)
H11A H 0.1827 0.4265 0.1076
C18A C 0.0577(3) 0.3769(3) 0.0857(2)
H12A H 0.0850 0.3351 0.0876
Cd2F Cd 0.36016(2) 0.203576(16) 0.546116(16)
Cd2G Cd -0.36016(2) 0.203576(16) -0.046116(16)
O7F O 0.2348(2) 0.27265(16) 0.56101(16)
O7G O -0.2348(2) 0.27265(16) -0.06101(16)
O9 O -0.1320(10) 0.2620(11) 0.6903(6)
H17 H -0.1731 0.2900 0.6738
H18 H -0.1409 0.2554 0.7316
O10 O 0.0028(9) 0.2240(6) 0.6344(4)
H19 H -0.0394 0.2401 0.6572
H20 H 0.0570 0.2390 0.6504
loop_
_geom_bond_atom_site_label_1
_geom_bond_atom_site_label_2
_geom_bond_site_symmetry_1
_geom_bond_site_symmetry_2
Cd1 O1 1_555 1_555
Cd2 O2 1_555 1_555
Cl1 C5 1_555 1_555
S1 O1 1_555 1_555
S2 O5 1_555 1_555
O2 H1 1_555 1_555
H2 O2 1_555 1_555
O3 S1 1_555 1_555
O4 S1 1_555 1_555
O6 S2 1_555 1_555
O7 Cd2 1_555 1_555
O8 Cd1 1_555 1_555
N1 Cd2 1_555 1_555
N2 Cd2 1_555 1_555
N3 Cd1 1_555 1_555
C1 S1 1_555 1_555
C2 O8 1_555 1_555
C3 S2 1_555 1_555
C4 C3 1_555 1_555
H3 C4 1_555 1_555
C5 C4 1_555 1_555
C6 C1 1_555 1_555
H4 C6 1_555 1_555
C7 N1 1_555 1_555
H5 C7 1_555 1_555
C8 C7 1_555 1_555
H6 C8 1_555 1_555
C9 C8 1_555 1_555
H7 C9 1_555 1_555
C10 C9 1_555 1_555
C11 N1 1_555 1_555
C12 C10 1_555 1_555
H8 C12 1_555 1_555
C13 C12 1_555 1_555
H9 C13 1_555 1_555
C14 N2 1_555 1_555
C15 C13 1_555 1_555
C16 C15 1_555 1_555
H10 C16 1_555 1_555
C17 C16 1_555 1_555
H11 C17 1_555 1_555
C18 N2 1_555 1_555
H12 C18 1_555 1_555
C19 N3 1_555 1_555
H13 C19 1_555 1_555
C20 C19 1_555 1_555
H14 C20 1_555 1_555
C21 C20 1_555 1_555
H15 C21 1_555 1_555
C22 C21 1_555 1_555
C23 N3 1_555 1_555
C24 C22 1_555 1_555
H16 C24 1_555 1_555
O9 H17 1_555 1_555
H18 O9 1_555 1_555
O10 H19 1_555 1_555
H20 O10 1_555 1_555
N3A Cd1 1_555 1_555
C19A N3A 1_555 1_555
H13A C19A 1_555 1_555
C20A C19A 1_555 1_555
H14A C20A 1_555 1_555
C21A C20A 1_555 1_555
H15A C21A 1_555 1_555
C22A C21A 1_555 1_555
C23A C23 1_555 1_555
C24A C24 1_555 1_555
H16A C24A 1_555 1_555
Cd2A O2A 1_555 1_555
Cl1A C5A 1_555 1_555
S1A O1A 1_555 1_555
S2A O5A 1_555 1_555
O1A Cd1 1_555 1_555
O2A H1A 1_555 1_555
H2A O2A 1_555 1_555
O3A S1A 1_555 1_555
O4A S1A 1_555 1_555
O6A S2A 1_555 1_555
O7A Cd2A 1_555 1_555
O8A Cd1 1_555 1_555
N1A Cd2A 1_555 1_555
N2A Cd2A 1_555 1_555
C1A S1A 1_555 1_555
C2A O8A 1_555 1_555
C3A S2A 1_555 1_555
C4A C3A 1_555 1_555
H3A C4A 1_555 1_555
C5A C4A 1_555 1_555
C6A C1A 1_555 1_555
H4A C6A 1_555 1_555
C7A N1A 1_555 1_555
H5A C7A 1_555 1_555
C8A C7A 1_555 1_555
H6A C8A 1_555 1_555
C9A C8A 1_555 1_555
H7A C9A 1_555 1_555
C10A C9A 1_555 1_555
C11A N1A 1_555 1_555
C12A C10A 1_555 1_555
H8A C12A 1_555 1_555
C13A C12A 1_555 1_555
H9A C13A 1_555 1_555
C14A N2A 1_555 1_555
C15A C13A 1_555 1_555
C16A C15A 1_555 1_555
H10A C16A 1_555 1_555
C17A C16A 1_555 1_555
H11A C17A 1_555 1_555
C18A N2A 1_555 1_555
H12A C18A 1_555 1_555
Cd2F O7 1_555 1_555
Cd2G O7A 1_555 1_555
O7F Cd2 1_555 1_555
O7G Cd2A 1_555 1_555
Cd2 O8 1_555 1_555
S2 O7 1_555 1_555
C1 C2 1_555 1_555
C2 C3 1_555 1_555
C5 C6 1_555 1_555
C10 C11 1_555 1_555
C11 C14 1_555 1_555
C14 C15 1_555 1_555
C17 C18 1_555 1_555
C22 C23 1_555 1_555
N3A C23A 1_555 1_555
C22A C23A 1_555 1_555
C22A C24A 1_555 1_555
Cd2A O8A 1_555 1_555
S2A O7A 1_555 1_555
C1A C2A 1_555 1_555
C2A C3A 1_555 1_555
C5A C6A 1_555 1_555
C10A C11A 1_555 1_555
C11A C14A 1_555 1_555
C14A C15A 1_555 1_555
C17A C18A 1_555 1_555
Cd2F O7F 1_555 1_555
Cd2G O7G 1_555 1_555

#END
