
#######################################################################
#
#                 Cambridge Crystallographic Data Centre
#                                CCDC 
#
#######################################################################
#
# If this CIF has been generated from an entry in the Cambridge 
# Structural Database, then it will include bibliographic, chemical, 
# crystal, experimental, refinement or atomic coordinate data resulting 
# from the CCDC's data processing and validation procedures.
#
#######################################################################

data_HOSPUC
_symmetry_cell_setting           monoclinic
_symmetry_space_group_name_H-M   'P 21/c'
_symmetry_Int_Tables_number      14
_space_group_name_Hall           '-P 2ybc'
loop_
_symmetry_equiv_pos_site_id
_symmetry_equiv_pos_as_xyz
1 x,y,z
2 -x,1/2+y,1/2-z
3 -x,-y,-z
4 x,1/2-y,1/2+z
_cell_length_a                   15.817(2)
_cell_length_b                   7.9884(10)
_cell_length_c                   22.855(3)
_cell_angle_alpha                90
_cell_angle_beta                 101.604(15)
_cell_angle_gamma                90
_cell_volume                     2828.76
loop_
_atom_site_label
_atom_site_type_symbol
_atom_site_fract_x
_atom_site_fract_y
_atom_site_fract_z
Hg1 Hg 0.19494(3) 0.34844(7) 0.35267(2)
I1 I 0.21414(8) 0.58421(17) 0.43233(5)
O1 O 0.0788(6) 0.4604(15) 0.2704(5)
N1 N 0.1490(6) 0.2997(14) 0.2091(5)
N2 N -0.0961(6) 0.6303(16) 0.1281(5)
N3 N 0.2039(6) 0.2502(14) 0.2616(5)
N4 N 0.3086(6) 0.1284(15) 0.3631(5)
C1 C 0.0894(7) 0.4024(16) 0.2226(6)
C2 C -0.0365(8) 0.5748(19) 0.1735(6)
H1 H -0.0361 0.6181 0.2114
C3 C 0.2648(8) 0.1478(17) 0.2567(6)
H2 H 0.2713 0.1145 0.2189
C4 C -0.0410(10) 0.444(2) 0.0629(6)
H3 H -0.0440 0.4008 0.0247
C5 C -0.0983(9) 0.562(2) 0.0747(6)
H4 H -0.1415 0.5974 0.0433
C6 C 0.4414(9) -0.0926(19) 0.3557(8)
H5 H 0.4869 -0.1640 0.3530
C7 C 0.0254(7) 0.4555(18) 0.1676(6)
C8 C 0.0214(9) 0.3908(19) 0.1108(6)
H6 H 0.0614 0.3106 0.1047
C9 C 0.3881(8) -0.0300(19) 0.3050(8)
H7 H 0.3961 -0.0647 0.2676
C10 C 0.3232(8) 0.0834(17) 0.3086(6)
C11 C 0.3588(9) 0.068(2) 0.4117(8)
H8 H 0.3498 0.1032 0.4488
C12 C 0.4250(10) -0.046(3) 0.4097(10)
H9 H 0.4575 -0.0900 0.4448
Hg1A Hg -0.19494(3) 0.84844(7) 0.14733(2)
N2A N 0.0961(6) 0.1303(16) 0.3719(5)
Hg2 Hg 0.30501(3) 0.49119(7) 0.15291(2)
I2 I 0.28186(7) 0.26510(16) 0.06943(5)
O2 O 0.4230(6) 0.3913(14) 0.2325(4)
N5 N 0.3527(6) 0.5422(14) 0.2963(5)
N6 N 0.2981(6) 0.5943(14) 0.2443(5)
N7 N 0.1952(6) 0.7151(15) 0.1431(6)
C13 C 0.4126(7) 0.4410(16) 0.2829(6)
C14 C 0.1794(7) 0.7612(15) 0.1964(6)
N8 N 0.6001(6) 0.2080(15) 0.3716(4)
C15 C 0.4827(9) 0.448(2) 0.3927(6)
H10 H 0.4436 0.5289 0.3999
C16 C 0.2374(8) 0.6962(17) 0.2495(6)
H11 H 0.2303 0.7289 0.2872
C17 C 0.5388(7) 0.2697(17) 0.3287(5)
H12 H 0.5365 0.2305 0.2901
C18 C 0.4798(7) 0.3841(16) 0.3365(6)
C19 C 0.0811(9) 0.894(2) 0.0969(8)
H13 H 0.0493 0.9352 0.0612
C20 C 0.1134(9) 0.8751(18) 0.2011(7)
H14 H 0.1036 0.9052 0.2385
C21 C 0.0630(9) 0.942(2) 0.1501(9)
H15 H 0.0188 1.0176 0.1520
C22 C 0.1467(10) 0.783(2) 0.0971(7)
H16 H 0.1577 0.7527 0.0600
C23 C 0.6020(9) 0.266(2) 0.4260(6)
H17 H 0.6430 0.2238 0.4574
C24 C 0.5467(11) 0.386(2) 0.4383(7)
H18 H 0.5519 0.4267 0.4771
Hg2A Hg 0.69499(3) -0.00881(7) 0.34709(2)
N8A N 0.3999(6) 0.7080(15) 0.1284(4)
loop_
_geom_bond_atom_site_label_1
_geom_bond_atom_site_label_2
_geom_bond_site_symmetry_1
_geom_bond_site_symmetry_2
Hg1 I1 1_555 1_555
O1 Hg1 1_555 1_555
N1 N3 1_555 1_555
N2 C2 1_555 1_555
N3 Hg1 1_555 1_555
N4 Hg1 1_555 1_555
C1 O1 1_555 1_555
C2 H1 1_555 1_555
C3 N3 1_555 1_555
H2 C3 1_555 1_555
C4 H3 1_555 1_555
C5 N2 1_555 1_555
H4 C5 1_555 1_555
C6 H5 1_555 1_555
C7 C1 1_555 1_555
C8 C4 1_555 1_555
H6 C8 1_555 1_555
C9 C6 1_555 1_555
H7 C9 1_555 1_555
C10 N4 1_555 1_555
C11 N4 1_555 1_555
H8 C11 1_555 1_555
C12 C6 1_555 1_555
H9 C12 1_555 1_555
Hg2 I2 1_555 1_555
O2 Hg2 1_555 1_555
N5 N6 1_555 1_555
N6 Hg2 1_555 1_555
N7 Hg2 1_555 1_555
C13 O2 1_555 1_555
C14 N7 1_555 1_555
N8 C17 1_555 1_555
C15 H10 1_555 1_555
C16 N6 1_555 1_555
H11 C16 1_555 1_555
C17 H12 1_555 1_555
C18 C13 1_555 1_555
C19 H13 1_555 1_555
C20 C14 1_555 1_555
H14 C20 1_555 1_555
C21 C19 1_555 1_555
H15 C21 1_555 1_555
C22 N7 1_555 1_555
H16 C22 1_555 1_555
C23 N8 1_555 1_555
H17 C23 1_555 1_555
C24 C15 1_555 1_555
H18 C24 1_555 1_555
Hg1A N2 1_555 1_555
N2A Hg1 1_555 1_555
Hg2A N8 1_555 1_555
N8A Hg2 1_555 1_555
N1 C1 1_555 1_555
C2 C7 1_555 1_555
C3 C10 1_555 1_555
C4 C5 1_555 1_555
C7 C8 1_555 1_555
C9 C10 1_555 1_555
C11 C12 1_555 1_555
N5 C13 1_555 1_555
C14 C16 1_555 1_555
C15 C18 1_555 1_555
C17 C18 1_555 1_555
C19 C22 1_555 1_555
C20 C21 1_555 1_555
C23 C24 1_555 1_555

#END
