
#######################################################################
#
#                 Cambridge Crystallographic Data Centre
#                                CCDC 
#
#######################################################################
#
# If this CIF has been generated from an entry in the Cambridge 
# Structural Database, then it will include bibliographic, chemical, 
# crystal, experimental, refinement or atomic coordinate data resulting 
# from the CCDC's data processing and validation procedures.
#
#######################################################################

data_HOSQOW
_symmetry_cell_setting           orthorhombic
_symmetry_space_group_name_H-M   'P c c n'
_symmetry_Int_Tables_number      56
_space_group_name_Hall           '-P 2ab 2ac'
loop_
_symmetry_equiv_pos_site_id
_symmetry_equiv_pos_as_xyz
1 x,y,z
2 1/2-x,1/2-y,z
3 -x,1/2+y,1/2-z
4 1/2+x,-y,1/2-z
5 -x,-y,-z
6 1/2+x,1/2+y,-z
7 x,1/2-y,1/2+z
8 1/2-x,y,1/2+z
_cell_length_a                   10.718(2)
_cell_length_b                   23.638(5)
_cell_length_c                   9.0726(18)
_cell_angle_alpha                90
_cell_angle_beta                 90
_cell_angle_gamma                90
_cell_volume                     2298.56
loop_
_atom_site_label
_atom_site_type_symbol
_atom_site_fract_x
_atom_site_fract_y
_atom_site_fract_z
Co1 Co 0.5000 0.5000 0.0000
C1 C 0.50924(15) 0.62852(7) 0.64285(18)
C2 C 0.37038(16) 0.64210(7) 0.61757(18)
H1 H 0.3213 0.6077 0.6246
H2 H 0.3413 0.6683 0.6924
C3 C 0.35442(17) 0.66835(9) 0.46523(19)
H3 H 0.2660 0.6770 0.4490
C4 C 0.39899(16) 0.62682(8) 0.34654(18)
H4 H 0.3497 0.5924 0.3511
H5 H 0.3878 0.6435 0.2498
C5 C 0.53696(15) 0.61264(7) 0.37055(16)
C6 C 0.55413(17) 0.58683(7) 0.52439(16)
H6 H 0.6415 0.5780 0.5403
H7 H 0.5069 0.5519 0.5315
C7 C 0.4296(2) 0.72253(8) 0.4553(2)
H8 H 0.4012 0.7490 0.5297
H9 H 0.4176 0.7398 0.3593
C8 C 0.56719(19) 0.70952(7) 0.47855(19)
H10 H 0.6155 0.7446 0.4718
C9 C 0.58580(17) 0.68311(7) 0.63123(18)
H11 H 0.5594 0.7096 0.7068
H12 H 0.6735 0.6748 0.6465
C10 C 0.61268(16) 0.66778(7) 0.36080(18)
H13 H 0.7005 0.6597 0.3758
H14 H 0.6028 0.6844 0.2637
C11 C 0.58484(15) 0.57136(7) 0.25371(16)
O1 O 0.52461(12) 0.56998(5) 0.13165(12)
O2 O 0.67854(12) 0.54217(6) 0.27703(13)
C12 C 0.51789(16) 0.60130(7) 0.79318(18)
O3 O 0.51926(19) 0.63717(6) 0.90404(15)
H15 H 0.5154 0.6209 0.9823
O4 O 0.51779(12) 0.55044(5) 0.80980(13)
O5 O 0.69310(12) 0.48644(6) 0.00823(12)
H16 H 0.7197 0.5019 0.0807
H17 H 0.7333 0.5010 -0.0575
Co1_2 Co 0.5000 0.5000 1.0000
Co1_3 Co 0.5000 0.5000 -1.0000
C1D C 0.49076(15) 0.37148(7) -0.64285(18)
C2D C 0.62962(16) 0.35790(7) -0.61757(18)
H1D H 0.6787 0.3923 -0.6246
H2D H 0.6587 0.3317 -0.6924
C3D C 0.64558(17) 0.33165(9) -0.46523(19)
H3D H 0.7340 0.3230 -0.4490
C4D C 0.60101(16) 0.37318(8) -0.34654(18)
H4D H 0.6503 0.4076 -0.3511
H5D H 0.6122 0.3565 -0.2498
C5D C 0.46304(15) 0.38736(7) -0.37055(16)
C6D C 0.44587(17) 0.41317(7) -0.52439(16)
H6D H 0.3585 0.4220 -0.5403
H7D H 0.4931 0.4481 -0.5315
C7D C 0.5704(2) 0.27747(8) -0.4553(2)
H8D H 0.5988 0.2510 -0.5297
H9D H 0.5824 0.2602 -0.3593
C8D C 0.43281(19) 0.29048(7) -0.47855(19)
H10D H 0.3845 0.2554 -0.4718
C9D C 0.41420(17) 0.31689(7) -0.63123(18)
H11D H 0.4406 0.2904 -0.7068
H12D H 0.3265 0.3252 -0.6465
C10D C 0.38732(16) 0.33222(7) -0.36080(18)
H13D H 0.2995 0.3403 -0.3758
H14D H 0.3972 0.3156 -0.2637
C11D C 0.41516(15) 0.42864(7) -0.25371(16)
O1D O 0.47539(12) 0.43002(5) -0.13165(12)
O2D O 0.32146(12) 0.45783(6) -0.27703(13)
C12D C 0.48211(16) 0.39870(7) -0.79318(18)
O3D O 0.48074(19) 0.36283(6) -0.90404(15)
H15D H 0.4846 0.3791 -0.9823
O4D O 0.48221(12) 0.44956(5) -0.80980(13)
O4_2 O 0.51779(12) 0.55044(5) -0.19020(13)
O4D_2 O 0.48221(12) 0.44956(5) 0.19020(13)
O5D O 0.30690(12) 0.51356(6) -0.00823(12)
H16D H 0.2803 0.4981 -0.0807
H17D H 0.2667 0.4990 0.0575
loop_
_geom_bond_atom_site_label_1
_geom_bond_atom_site_label_2
_geom_bond_site_symmetry_1
_geom_bond_site_symmetry_2
Co1 O1 1_555 1_555
C1 C2 1_555 1_555
C2 H1 1_555 1_555
H2 C2 1_555 1_555
C3 C2 1_555 1_555
H3 C3 1_555 1_555
C4 C3 1_555 1_555
H4 C4 1_555 1_555
H5 C4 1_555 1_555
C5 C4 1_555 1_555
C6 C1 1_555 1_555
H6 C6 1_555 1_555
H7 C6 1_555 1_555
C7 C3 1_555 1_555
H8 C7 1_555 1_555
H9 C7 1_555 1_555
C8 C7 1_555 1_555
H10 C8 1_555 1_555
C9 C1 1_555 1_555
H11 C9 1_555 1_555
H12 C9 1_555 1_555
C10 C5 1_555 1_555
H13 C10 1_555 1_555
H14 C10 1_555 1_555
C11 C5 1_555 1_555
O1 C11 1_555 1_555
O2 C11 1_555 1_555
C12 C1 1_555 1_555
O3 C12 1_555 1_555
H15 O3 1_555 1_555
O4 C12 1_555 1_555
O5 Co1 1_555 1_555
H16 O5 1_555 1_555
H17 O5 1_555 1_555
Co1_2 O4 1_555 1_555
Co1_3 O4D 1_555 1_555
C1D C2D 1_555 1_555
C2D H1D 1_555 1_555
H2D C2D 1_555 1_555
C3D C2D 1_555 1_555
H3D C3D 1_555 1_555
C4D C3D 1_555 1_555
H4D C4D 1_555 1_555
H5D C4D 1_555 1_555
C5D C4D 1_555 1_555
C6D C1D 1_555 1_555
H6D C6D 1_555 1_555
H7D C6D 1_555 1_555
C7D C3D 1_555 1_555
H8D C7D 1_555 1_555
H9D C7D 1_555 1_555
C8D C7D 1_555 1_555
H10D C8D 1_555 1_555
C9D C1D 1_555 1_555
H11D C9D 1_555 1_555
H12D C9D 1_555 1_555
C10D C5D 1_555 1_555
H13D C10D 1_555 1_555
H14D C10D 1_555 1_555
C11D C5D 1_555 1_555
O1D Co1 1_555 1_555
O2D C11D 1_555 1_555
C12D C1D 1_555 1_555
O3D C12D 1_555 1_555
H15D O3D 1_555 1_555
O4D C12D 1_555 1_555
O4_2 Co1 1_555 1_555
O4D_2 Co1 1_555 1_555
O5D Co1 1_555 1_555
H16D O5D 1_555 1_555
H17D O5D 1_555 1_555
C5 C6 1_555 1_555
C8 C9 1_555 1_555
C8 C10 1_555 1_555
C5D C6D 1_555 1_555
C8D C9D 1_555 1_555
C8D C10D 1_555 1_555
C11D O1D 1_555 1_555

#END
