
#######################################################################
#
#                 Cambridge Crystallographic Data Centre
#                                CCDC 
#
#######################################################################
#
# If this CIF has been generated from an entry in the Cambridge 
# Structural Database, then it will include bibliographic, chemical, 
# crystal, experimental, refinement or atomic coordinate data resulting 
# from the CCDC's data processing and validation procedures.
#
#######################################################################

data_HOSSIS
_symmetry_cell_setting           monoclinic
_symmetry_space_group_name_H-M   'P 21/c'
_symmetry_Int_Tables_number      14
_space_group_name_Hall           '-P 2ybc'
loop_
_symmetry_equiv_pos_site_id
_symmetry_equiv_pos_as_xyz
1 x,y,z
2 -x,1/2+y,1/2-z
3 -x,-y,-z
4 x,1/2-y,1/2+z
_cell_length_a                   12.1053(6)
_cell_length_b                   20.7190(10)
_cell_length_c                   8.5973(4)
_cell_angle_alpha                90
_cell_angle_beta                 92.2560(10)
_cell_angle_gamma                90
_cell_volume                     2154.62
loop_
_atom_site_label
_atom_site_type_symbol
_atom_site_fract_x
_atom_site_fract_y
_atom_site_fract_z
Ag1 Ag 0.60132(3) 0.147912(17) 0.59553(4)
S1 S 0.40490(8) 0.10911(5) 0.59796(11)
S2 S -0.20353(9) 0.11318(6) 0.59401(12)
O1 O 0.5747(3) 0.16475(16) 0.8814(4)
O2 O 0.5492(4) 0.2420(2) 1.0367(7)
O3 O 0.6861(4) 0.2458(2) 0.9036(6)
N1 N 0.6032(3) 0.2176(2) 0.9376(4)
C1 C 0.3798(4) 0.1476(2) 0.2840(5)
H1 H 0.4608 0.1544 0.2867
H2 H 0.3442 0.1886 0.3135
C2 C 0.3396(4) 0.1280(2) 0.1194(5)
H3 H 0.2579 0.1249 0.1154
H4 H 0.3608 0.1618 0.0449
C3 C 0.3879(4) 0.0640(2) 0.0714(5)
H5 H 0.4691 0.0682 0.0658
H6 H 0.3577 0.0522 -0.0335
C4 C 0.3611(4) 0.0111(2) 0.1862(5)
H7 H 0.3976 -0.0295 0.1561
H8 H 0.2802 0.0036 0.1834
C5 C 0.4004(4) 0.0300(2) 0.3512(5)
H9 H 0.4821 0.0330 0.3564
H10 H 0.3784 -0.0040 0.4250
C6 C 0.3511(3) 0.09466(19) 0.3992(4)
H11 H 0.2688 0.0903 0.4004
C7 C 0.3416(3) 0.1852(2) 0.6496(5)
H12 H 0.3716 0.1986 0.7534
H13 H 0.3629 0.2185 0.5737
C8 C 0.2171(3) 0.1830(2) 0.6532(4)
C9 C 0.1638(4) 0.1424(2) 0.7516(5)
H14 H 0.2063 0.1134 0.8153
C10 C 0.0497(4) 0.1424(2) 0.7606(5)
H15 H 0.0150 0.1137 0.8297
C11 C -0.0144(3) 0.1847(2) 0.6682(5)
C12 C 0.0387(4) 0.2255(2) 0.5700(5)
H16 H -0.0035 0.2547 0.5068
C13 C 0.1531(3) 0.2248(2) 0.5610(5)
H17 H 0.1878 0.2531 0.4913
C14 C -0.1381(3) 0.1853(2) 0.6764(5)
H18 H -0.1676 0.2237 0.6200
H19 H -0.1579 0.1894 0.7867
C15 C -0.1609(4) 0.1157(2) 0.3921(5)
H20 H -0.1399 0.1611 0.3665
C16 C -0.0612(4) 0.0726(3) 0.3729(5)
H21 H -0.0793 0.0282 0.4058
H22 H 0.0009 0.0884 0.4410
C17 C -0.0258(4) 0.0716(3) 0.2038(6)
H23 H -0.0005 0.1151 0.1737
H24 H 0.0365 0.0411 0.1935
C18 C -0.1225(4) 0.0509(3) 0.0960(5)
H25 H -0.0999 0.0524 -0.0133
H26 H -0.1433 0.0059 0.1200
C19 C -0.2211(4) 0.0948(2) 0.1153(5)
H27 H -0.2018 0.1392 0.0838
H28 H -0.2834 0.0798 0.0464
C20 C -0.2563(4) 0.0952(3) 0.2821(5)
H29 H -0.2815 0.0515 0.3110
H30 H -0.3191 0.1253 0.2924
Ag1_2 Ag -0.39868(3) 0.147912(17) 0.59553(4)
Ag1C Ag 0.60132(3) 0.352088(17) 1.09553(4)
S2_2 S 0.79647(9) 0.11318(6) 0.59401(12)
O2C O 0.5492(4) 0.2580(2) 0.5367(7)
loop_
_geom_bond_atom_site_label_1
_geom_bond_atom_site_label_2
_geom_bond_site_symmetry_1
_geom_bond_site_symmetry_2
Ag1 S1 1_555 1_555
S1 C6 1_555 1_555
S2 C14 1_555 1_555
O1 Ag1 1_555 1_555
O2 N1 1_555 1_555
O3 N1 1_555 1_555
N1 O1 1_555 1_555
C1 H1 1_555 1_555
H2 C1 1_555 1_555
C2 C1 1_555 1_555
H3 C2 1_555 1_555
H4 C2 1_555 1_555
C3 C2 1_555 1_555
H5 C3 1_555 1_555
H6 C3 1_555 1_555
C4 C3 1_555 1_555
H7 C4 1_555 1_555
H8 C4 1_555 1_555
C5 C4 1_555 1_555
H9 C5 1_555 1_555
H10 C5 1_555 1_555
C6 C1 1_555 1_555
H11 C6 1_555 1_555
C7 S1 1_555 1_555
H12 C7 1_555 1_555
H13 C7 1_555 1_555
C8 C7 1_555 1_555
C9 C8 1_555 1_555
H14 C9 1_555 1_555
C10 C9 1_555 1_555
H15 C10 1_555 1_555
C11 C10 1_555 1_555
C12 C11 1_555 1_555
H16 C12 1_555 1_555
C13 C8 1_555 1_555
H17 C13 1_555 1_555
C14 C11 1_555 1_555
H18 C14 1_555 1_555
H19 C14 1_555 1_555
C15 S2 1_555 1_555
H20 C15 1_555 1_555
C16 C15 1_555 1_555
H21 C16 1_555 1_555
H22 C16 1_555 1_555
C17 C16 1_555 1_555
H23 C17 1_555 1_555
H24 C17 1_555 1_555
C18 C17 1_555 1_555
H25 C18 1_555 1_555
H26 C18 1_555 1_555
C19 C18 1_555 1_555
H27 C19 1_555 1_555
H28 C19 1_555 1_555
C20 C15 1_555 1_555
H29 C20 1_555 1_555
H30 C20 1_555 1_555
Ag1_2 S2 1_555 1_555
Ag1C O2 1_555 1_555
S2_2 Ag1 1_555 1_555
O2C Ag1 1_555 1_555
C5 C6 1_555 1_555
C12 C13 1_555 1_555
C19 C20 1_555 1_555

#END
