
#######################################################################
#
#                 Cambridge Crystallographic Data Centre
#                                CCDC 
#
#######################################################################
#
# If this CIF has been generated from an entry in the Cambridge 
# Structural Database, then it will include bibliographic, chemical, 
# crystal, experimental, refinement or atomic coordinate data resulting 
# from the CCDC's data processing and validation procedures.
#
#######################################################################

data_HOSSUF
_symmetry_cell_setting           tetragonal
_symmetry_space_group_name_H-M   'I 41 2 2'
_symmetry_Int_Tables_number      98
_space_group_name_Hall           'I 4bw 2bw'
loop_
_symmetry_equiv_pos_site_id
_symmetry_equiv_pos_as_xyz
1 x,y,z
2 1/2-x,1/2-y,1/2+z
3 -y,1/2+x,1/4+z
4 1/2+y,-x,3/4+z
5 1/2-x,y,3/4-z
6 x,1/2-y,1/4-z
7 1/2+y,1/2+x,1/2-z
8 -y,-x,-z
9 1/2+x,1/2+y,1/2+z
10 -x,-y,z
11 1/2-y,x,3/4+z
12 y,1/2-x,1/4+z
13 -x,1/2+y,1/4-z
14 1/2+x,-y,3/4-z
15 y,x,-z
16 1/2-y,1/2-x,1/2-z
_cell_length_a                   15.9669(7)
_cell_length_b                   15.9669(7)
_cell_length_c                   16.9298(13)
_cell_angle_alpha                90
_cell_angle_beta                 90
_cell_angle_gamma                90
_cell_volume                     4316.12
loop_
_atom_site_label
_atom_site_type_symbol
_atom_site_fract_x
_atom_site_fract_y
_atom_site_fract_z
N1 N 0.84684(12) 0.34684(12) 0.2500
Co1 Co 0.938612(18) 0.438612(18) 0.2500
C1 C 0.7063(2) 0.3033(2) 0.2756(2)
H1 H 0.6531 0.3175 0.2935
C2 C 0.72279(15) 0.22279(15) 0.2500
C3 C 0.9352(2) 0.6828(2) 0.47012(18)
H2 H 0.9870 0.6979 0.4494
C4 C 0.92360(19) 0.57514(18) 0.36366(14)
O1 O 0.98852(15) 0.60742(14) 0.33351(13)
C5 C 0.65701(17) 0.15701(17) 0.2500
C6 C 0.8136(2) 0.5965(2) 0.46710(19)
H3 H 0.7828 0.5531 0.4447
O2 O 0.88554(15) 0.51233(14) 0.33784(13)
C7 C 0.8267(2) 0.7042(2) 0.56506(18)
C8 C 0.89102(19) 0.6175(2) 0.43589(16)
C9 C 0.9041(2) 0.7257(3) 0.5343(2)
H4 H 0.9349 0.7690 0.5568
C10 C 0.76937(19) 0.36262(19) 0.2743(2)
H5 H 0.7568 0.4165 0.2913
N2 N 0.7873(2) 0.7500 0.6250
C11 C 0.5433(2) 0.0852(2) 0.3143(2)
H6 H 0.5094 0.0787 0.3585
C12 C 0.53312(16) 0.03312(16) 0.2500
C13 C 0.7819(2) 0.6394(2) 0.53118(19)
H7 H 0.7299 0.6246 0.5518
C14 C 0.6041(2) 0.1473(2) 0.3131(2)
H8 H 0.6091 0.1831 0.3561
C1F C 0.8033(2) 0.2063(2) 0.2244(2)
H1F H 0.8175 0.1531 0.2065
C10F C 0.86262(19) 0.26937(19) 0.2257(2)
H5F H 0.9165 0.2568 0.2087
C11F C 0.5852(2) 0.0433(2) 0.1857(2)
H6F H 0.5787 0.0094 0.1415
C14F C 0.6473(2) 0.1041(2) 0.1869(2)
H8F H 0.6831 0.1091 0.1439
N1I N 0.15316(12) -0.34684(12) 0.2500
C1I C 0.2937(2) -0.3033(2) 0.2756(2)
H1I H 0.3469 -0.3175 0.2935
C2I C 0.27721(15) -0.22279(15) 0.2500
C5I C 0.34299(17) -0.15701(17) 0.2500
C10I C 0.23063(19) -0.36262(19) 0.2743(2)
H5I H 0.2432 -0.4165 0.2913
C11I C 0.4567(2) -0.0852(2) 0.3143(2)
H6I H 0.4906 -0.0787 0.3585
C12I C 0.46688(16) -0.03312(16) 0.2500
C14I C 0.3959(2) -0.1473(2) 0.3131(2)
H8I H 0.3909 -0.1831 0.3561
C1O C 0.1967(2) -0.2063(2) 0.2244(2)
H1O H 0.1825 -0.1531 0.2065
C10O C 0.13738(19) -0.26937(19) 0.2257(2)
H5O H 0.0835 -0.2568 0.2087
C11O C 0.4148(2) -0.0433(2) 0.1857(2)
H6O H 0.4213 -0.0094 0.1415
C14O C 0.3527(2) -0.1041(2) 0.1869(2)
H8O H 0.3169 -0.1091 0.1439
C3E C 0.9352(2) 0.8172(2) 0.77988(18)
H2E H 0.9870 0.8021 0.8006
C4E C 0.92360(19) 0.92486(18) 0.88634(14)
O1E O 0.98852(15) 0.89258(14) 0.91649(13)
C6E C 0.8136(2) 0.9035(2) 0.78290(19)
H3E H 0.7828 0.9469 0.8053
O2E O 0.88554(15) 0.98767(14) 0.91216(13)
C7E C 0.8267(2) 0.7958(2) 0.68494(18)
C8E C 0.89102(19) 0.8825(2) 0.81411(16)
C9E C 0.9041(2) 0.7743(3) 0.7157(2)
H4E H 0.9349 0.7310 0.6932
C13E C 0.7819(2) 0.8606(2) 0.71882(19)
H7E H 0.7299 0.8754 0.6982
Co1C Co 0.938612(18) 1.061388(18) 1.0000
C3F C 1.1828(2) 0.4352(2) 0.02988(18)
H2F H 1.1979 0.4870 0.0506
C4F C 1.07514(18) 0.42360(19) 0.13634(14)
O1F O 1.10742(14) 0.48852(15) 0.16649(13)
C6F C 1.0965(2) 0.3136(2) 0.03290(19)
H3F H 1.0531 0.2828 0.0553
O2F O 1.01233(14) 0.38554(15) 0.16216(13)
C7F C 1.2042(2) 0.3267(2) -0.06506(18)
C8F C 1.1175(2) 0.39102(19) 0.06411(16)
C9F C 1.2257(3) 0.4041(2) -0.0343(2)
H4F H 1.2690 0.4349 -0.0568
N2B N 1.2500 0.2873(2) -0.1250
C13F C 1.1394(2) 0.2819(2) -0.03118(19)
H7F H 1.1246 0.2299 -0.0518
C3B C 1.3172(2) 0.4352(2) -0.27988(18)
H2B H 1.3021 0.4870 -0.3006
C4B C 1.42486(18) 0.42360(19) -0.38634(14)
O1B O 1.39258(14) 0.48852(15) -0.41649(13)
C6B C 1.4035(2) 0.3136(2) -0.28290(19)
H3B H 1.4469 0.2828 -0.3053
O2B O 1.48767(14) 0.38554(15) -0.41216(13)
C7B C 1.2958(2) 0.3267(2) -0.18494(18)
C8B C 1.3825(2) 0.39102(19) -0.31411(16)
C9B C 1.2743(3) 0.4041(2) -0.2157(2)
H4B H 1.2310 0.4349 -0.1932
C13B C 1.3606(2) 0.2819(2) -0.21882(19)
H7B H 1.3754 0.2299 -0.1982
N1C N 0.84684(12) 1.15316(12) 1.0000
Co1B Co 1.561388(18) 0.438612(18) -0.5000
Co1I Co 0.061388(18) -0.438612(18) 0.2500
Co1I_2 Co 1.061388(18) 0.561388(18) 0.2500
Co1J Co 1.061388(18) 0.938612(18) 1.0000
Co1K Co 1.438612(18) 0.561388(18) -0.5000
O1I O 1.01148(15) 0.39258(14) 0.33351(13)
O1J O 0.89258(14) 0.98852(15) 1.08351(13)
O1L O 1.01148(15) 1.10742(14) 0.91649(13)
O1O O 0.89258(14) 0.51148(15) 0.16649(13)
O2C O 1.01233(14) 1.11446(15) 1.08784(13)
loop_
_geom_bond_atom_site_label_1
_geom_bond_atom_site_label_2
_geom_bond_site_symmetry_1
_geom_bond_site_symmetry_2
N1 Co1 1_555 1_555
Co1 O2 1_555 1_555
C1 H1 1_555 1_555
C2 C1 1_555 1_555
C3 H2 1_555 1_555
C4 O1 1_555 1_555
O1 Co1I_2 1_555 1_555
C5 C2 1_555 1_555
C6 H3 1_555 1_555
O2 C4 1_555 1_555
C7 C9 1_555 1_555
C8 C3 1_555 1_555
C9 C3 1_555 1_555
H4 C9 1_555 1_555
C10 N1 1_555 1_555
H5 C10 1_555 1_555
N2 C7 1_555 1_555
C11 H6 1_555 1_555
C12 C11 1_555 1_555
C13 C6 1_555 1_555
H7 C13 1_555 1_555
C14 C5 1_555 1_555
H8 C14 1_555 1_555
C1F C2 1_555 1_555
H1F C1F 1_555 1_555
C10F N1 1_555 1_555
H5F C10F 1_555 1_555
C11F C12 1_555 1_555
H6F C11F 1_555 1_555
C14F C5 1_555 1_555
H8F C14F 1_555 1_555
N1I C10I 1_555 1_555
C1I H1I 1_555 1_555
C2I C1I 1_555 1_555
C5I C2I 1_555 1_555
C10I C1I 1_555 1_555
H5I C10I 1_555 1_555
C11I H6I 1_555 1_555
C12I C12 1_555 1_555
C14I C5I 1_555 1_555
H8I C14I 1_555 1_555
C1O C2I 1_555 1_555
H1O C1O 1_555 1_555
C10O N1I 1_555 1_555
H5O C10O 1_555 1_555
C11O C12I 1_555 1_555
H6O C11O 1_555 1_555
C14O C5I 1_555 1_555
H8O C14O 1_555 1_555
C3E H2E 1_555 1_555
C4E O1E 1_555 1_555
O1E Co1J 1_555 1_555
C6E H3E 1_555 1_555
O2E C4E 1_555 1_555
C7E N2 1_555 1_555
C8E C3E 1_555 1_555
C9E C3E 1_555 1_555
H4E C9E 1_555 1_555
C13E C6E 1_555 1_555
H7E C13E 1_555 1_555
Co1C O2E 1_555 1_555
C3F H2F 1_555 1_555
C4F O1F 1_555 1_555
O1F Co1I_2 1_555 1_555
C6F H3F 1_555 1_555
O2F Co1 1_555 1_555
C7F C9F 1_555 1_555
C8F C3F 1_555 1_555
C9F C3F 1_555 1_555
H4F C9F 1_555 1_555
N2B C7F 1_555 1_555
C13F C6F 1_555 1_555
H7F C13F 1_555 1_555
C3B H2B 1_555 1_555
C4B O1B 1_555 1_555
O1B Co1K 1_555 1_555
C6B H3B 1_555 1_555
O2B C4B 1_555 1_555
C7B N2B 1_555 1_555
C8B C3B 1_555 1_555
C9B C3B 1_555 1_555
H4B C9B 1_555 1_555
C13B C6B 1_555 1_555
H7B C13B 1_555 1_555
N1C Co1C 1_555 1_555
Co1B O2B 1_555 1_555
Co1I N1I 1_555 1_555
Co1I_2 Co1 1_555 1_555
Co1J Co1C 1_555 1_555
Co1K Co1B 1_555 1_555
O1I Co1 1_555 1_555
O1J Co1C 1_555 1_555
O1L Co1C 1_555 1_555
O1O Co1 1_555 1_555
O2C Co1C 1_555 1_555
C1 C10 1_555 1_555
C4 C8 1_555 1_555
C6 C8 1_555 1_555
C7 C13 1_555 1_555
C11 C14 1_555 1_555
C1F C10F 1_555 1_555
C11F C14F 1_555 1_555
C11I C12I 1_555 1_555
C11I C14I 1_555 1_555
C1O C10O 1_555 1_555
C11O C14O 1_555 1_555
C4E C8E 1_555 1_555
C6E C8E 1_555 1_555
C7E C9E 1_555 1_555
C7E C13E 1_555 1_555
C4F O2F 1_555 1_555
C4F C8F 1_555 1_555
C6F C8F 1_555 1_555
C7F C13F 1_555 1_555
C4B C8B 1_555 1_555
C6B C8B 1_555 1_555
C7B C9B 1_555 1_555
C7B C13B 1_555 1_555

#END
