
#######################################################################
#
#                 Cambridge Crystallographic Data Centre
#                                CCDC 
#
#######################################################################
#
# If this CIF has been generated from an entry in the Cambridge 
# Structural Database, then it will include bibliographic, chemical, 
# crystal, experimental, refinement or atomic coordinate data resulting 
# from the CCDC's data processing and validation procedures.
#
#######################################################################

data_HOSSOY
_symmetry_cell_setting           monoclinic
_symmetry_space_group_name_H-M   'P 21/c'
_symmetry_Int_Tables_number      14
_space_group_name_Hall           '-P 2ybc'
loop_
_symmetry_equiv_pos_site_id
_symmetry_equiv_pos_as_xyz
1 x,y,z
2 -x,1/2+y,1/2-z
3 -x,-y,-z
4 x,1/2-y,1/2+z
_cell_length_a                   21.5103(12)
_cell_length_b                   8.7883(5)
_cell_length_c                   9.9195(5)
_cell_angle_alpha                90
_cell_angle_beta                 101.746(4)
_cell_angle_gamma                90
_cell_volume                     1835.91
loop_
_atom_site_label
_atom_site_type_symbol
_atom_site_fract_x
_atom_site_fract_y
_atom_site_fract_z
C1 C 0.18470(7) -0.78476(17) 0.48486(14)
C2 C 0.11109(7) -0.85879(17) 0.61210(15)
C3 C 0.06225(7) -0.77637(19) 0.52815(15)
H1 H 0.0717 -0.7132 0.4599
C4 C -0.00005(7) -0.78755(19) 0.54535(16)
H2 H -0.0323 -0.7327 0.4893
C5 C -0.01325(7) -0.8821(2) 0.64786(16)
C6 C 0.03397(8) -0.96827(18) 0.73088(16)
H3 H 0.0239 -1.0325 0.7978
C7 C 0.09602(7) -0.95722(17) 0.71271(15)
H4 H 0.1278 -1.015 0.7671
C8 C 0.31962(7) -0.74093(18) 0.03158(14)
C9 C 0.39374(7) -0.82569(17) -0.09007(15)
C10 C 0.41040(7) -0.94717(18) -0.16746(15)
H5 H 0.3799 -1.0178 -0.2068
C11 C 0.47252(7) -0.96186(19) -0.18520(15)
H6 H 0.4839 -1.0419 -0.2366
C12 C 0.51748(8) -0.8551(2) -0.12503(16)
C13 C 0.50288(7) -0.7369(2) -0.04369(16)
H7 H 0.534 -0.6688 -0.0018
C14 C 0.44059(7) -0.72297(19) -0.02651(15)
H8 H 0.4299 -0.6448 0.0277
C15 C 0.23643(8) -0.31919(18) 0.20530(16)
H9 H 0.2162 -0.3531 0.1187
C16 C 0.27640(9) -0.1086(2) 0.35538(18)
H10 H 0.2471 -0.0456 0.3914
H11 H 0.2907 -0.1899 0.4187
H12 H 0.3121 -0.0486 0.3431
C17 C 0.22428(9) -0.0640(2) 0.11151(18)
H13 H 0.195 0.0073 0.1375
H14 H 0.2605 -0.0104 0.0928
H15 H 0.2038 -0.118 0.0305
N1 N 0.19773(6) -0.73209(16) 0.38708(13)
N2 N 0.17467(6) -0.84608(14) 0.59891(13)
N3 N -0.07813(7) -0.8905(2) 0.67009(16)
N4 N 0.30602(6) -0.68183(17) 0.12639(13)
N5 N 0.32972(6) -0.80866(16) -0.07860(12)
N6 N 0.58231(7) -0.8682(2) -0.14866(15)
N7 N 0.24485(6) -0.17167(16) 0.22334(14)
Cu1 Cu 0.252430(8) -0.657900(19) 0.263490(17)
O1 O -0.11924(6) -0.8137(2) 0.59671(16)
O2 O -0.08874(8) -0.9731(2) 0.7622(2)
O3 O 0.61904(7) -0.7620(2) -0.11248(16)
O4 O 0.59667(7) -0.9839(2) -0.20522(16)
O5 O 0.25389(6) -0.41676(13) 0.29693(11)
N2C N 0.17467(6) -0.65392(14) 0.09891(13)
N5C N 0.32972(6) -0.69134(16) 0.42140(12)
Cu1C Cu 0.252430(8) -0.842100(19) 0.763490(17)
Cu1C_2 Cu 0.252430(8) -0.842100(19) -0.236510(17)
loop_
_geom_bond_atom_site_label_1
_geom_bond_atom_site_label_2
_geom_bond_site_symmetry_1
_geom_bond_site_symmetry_2
C1 N1 1_555 1_555
C2 C3 1_555 1_555
C3 H1 1_555 1_555
C4 C3 1_555 1_555
H2 C4 1_555 1_555
C5 C4 1_555 1_555
C6 C5 1_555 1_555
H3 C6 1_555 1_555
C7 C2 1_555 1_555
H4 C7 1_555 1_555
C8 N4 1_555 1_555
C9 C10 1_555 1_555
C10 H5 1_555 1_555
C11 C10 1_555 1_555
H6 C11 1_555 1_555
C12 C11 1_555 1_555
C13 C12 1_555 1_555
H7 C13 1_555 1_555
C14 C9 1_555 1_555
H8 C14 1_555 1_555
C15 H9 1_555 1_555
C16 H10 1_555 1_555
H11 C16 1_555 1_555
H12 C16 1_555 1_555
C17 H13 1_555 1_555
H14 C17 1_555 1_555
H15 C17 1_555 1_555
N1 Cu1 1_555 1_555
N2 C1 1_555 1_555
N3 C5 1_555 1_555
N4 Cu1 1_555 1_555
N5 C8 1_555 1_555
N6 C12 1_555 1_555
N7 C15 1_555 1_555
Cu1 O5 1_555 1_555
O1 N3 1_555 1_555
O2 N3 1_555 1_555
O3 N6 1_555 1_555
O4 N6 1_555 1_555
O5 C15 1_555 1_555
N2C Cu1 1_555 1_555
N5C Cu1 1_555 1_555
Cu1C N2 1_555 1_555
Cu1C_2 N5 1_555 1_555
C2 N2 1_555 1_555
C6 C7 1_555 1_555
C9 N5 1_555 1_555
C13 C14 1_555 1_555
C16 N7 1_555 1_555
C17 N7 1_555 1_555

#END
