
#######################################################################
#
#                 Cambridge Crystallographic Data Centre
#                                CCDC 
#
#######################################################################
#
# If this CIF has been generated from an entry in the Cambridge 
# Structural Database, then it will include bibliographic, chemical, 
# crystal, experimental, refinement or atomic coordinate data resulting 
# from the CCDC's data processing and validation procedures.
#
#######################################################################

data_HOSXAO
_symmetry_cell_setting           monoclinic
_symmetry_space_group_name_H-M   'C 2/c'
_symmetry_Int_Tables_number      15
_space_group_name_Hall           '-C 2yn'
loop_
_symmetry_equiv_pos_site_id
_symmetry_equiv_pos_as_xyz
1 x,y,z
2 -x,y,1/2-z
3 1/2+x,1/2+y,z
4 1/2-x,1/2+y,1/2-z
5 -x,-y,-z
6 x,-y,1/2+z
7 1/2-x,1/2-y,-z
8 1/2+x,1/2-y,1/2+z
_cell_length_a                   20.846(2)
_cell_length_b                   12.460(1)
_cell_length_c                   37.365(4)
_cell_angle_alpha                90
_cell_angle_beta                 102.17(1)
_cell_angle_gamma                90
_cell_volume                     9487.12
loop_
_atom_site_label
_atom_site_type_symbol
_atom_site_fract_x
_atom_site_fract_y
_atom_site_fract_z
Eu1 Eu 0.3797(1) 0.9330(1) 0.0399(1)
Eu2 Eu 0.3828(1) 0.6219(1) 0.1708(1)
Na1 Na 0.5000 1.0000 0.0000
Na2 Na 0.5000 0.6199(5) 0.2500
B1 B 0.3705(4) 0.7727(8) 0.1034(2)
O1 O 0.3250(3) 0.8573(5) 0.0864(1)
C1 C 0.2738(5) 0.8889(10) 0.1038(3)
O2 O 0.4170(3) 0.7796(5) 0.0793(2)
C2 C 0.4733(5) 0.7123(11) 0.0860(3)
O3 O 0.3410(3) 0.6686(5) 0.1068(1)
C3 C 0.3076(7) 0.6130(10) 0.0750(3)
O4 O 0.3993(3) 0.7917(5) 0.1424(2)
C4 C 0.4381(7) 0.8838(11) 0.1529(3)
O5 O 0.3833(3) 1.0540(5) -0.0063(2)
C5 C 0.3457(4) 1.1214(8) -0.0273(2)
C6 C 0.3710(5) 1.1862(9) -0.0525(3)
C7 C 0.3337(6) 1.2574(9) -0.0749(3)
C8 C 0.2679(6) 1.2712(10) -0.0743(3)
C9 C 0.2411(5) 1.2121(9) -0.0512(3)
C10 C 0.2774(4) 1.1346(7) -0.0267(2)
C11 C 0.2464(4) 1.0770(8) -0.0031(3)
O6 O 0.2698(3) 1.0091(5) 0.0199(2)
O7 O 0.4460(3) 0.8446(5) 0.0059(2)
C12 C 0.4475(4) 0.7527(8) -0.0103(2)
C13 C 0.5041(4) 0.7150(9) -0.0213(3)
C14 C 0.5069(5) 0.6170(11) -0.0359(3)
C15 C 0.4535(6) 0.5480(10) -0.0422(3)
C16 C 0.3954(5) 0.5810(8) -0.0341(3)
C17 C 0.3908(4) 0.6833(7) -0.0183(2)
C18 C 0.3291(4) 0.7159(8) -0.0120(2)
O8 O 0.3152(3) 0.7997(5) 0.0023(2)
O9 O 0.4842(3) 1.0017(6) 0.0615(2)
C19 C 0.5157(4) 1.0593(8) 0.0887(2)
C20 C 0.5848(5) 1.0646(10) 0.0960(3)
C21 C 0.6191(6) 1.1204(12) 0.1258(4)
C22 C 0.5878(6) 1.1734(10) 0.1490(3)
C23 C 0.5218(6) 1.1770(9) 0.1419(3)
C24 C 0.4837(5) 1.1201(7) 0.1118(3)
C25 C 0.4140(5) 1.1285(9) 0.1057(3)
O10 O 0.3734(3) 1.0818(6) 0.0826(2)
O11 O 0.3971(3) 0.4949(7) 0.2159(2)
C26 C 0.3833(5) 0.3933(10) 0.2164(3)
C27 C 0.4153(6) 0.3262(12) 0.2458(3)
C28 C 0.4045(9) 0.2182(13) 0.2467(5)
C29 C 0.3624(9) 0.1662(14) 0.2188(5)
C30 C 0.3278(8) 0.2294(12) 0.1915(5)
C31 C 0.3370(6) 0.3405(10) 0.1888(3)
C32 C 0.2941(5) 0.3965(9) 0.1592(3)
O12 O 0.2967(4) 0.4928(7) 0.1520(2)
O13 O 0.4080(3) 0.7328(6) 0.2220(2)
C33 C 0.3790(4) 0.8033(8) 0.2389(2)
C34 C 0.4165(5) 0.8674(9) 0.2669(3)
C35 C 0.3879(6) 0.9366(10) 0.2867(3)
C36 C 0.3199(7) 0.9507(10) 0.2792(3)
C37 C 0.2825(5) 0.8944(11) 0.2526(3)
C38 C 0.3104(4) 0.8209(8) 0.2310(3)
C39 C 0.2674(4) 0.7633(10) 0.2032(3)
O14 O 0.2800(3) 0.6981(7) 0.1807(2)
O15 O 0.4965(3) 0.6185(5) 0.1862(2)
C40 C 0.5469(4) 0.5758(8) 0.1766(2)
C41 C 0.6112(5) 0.6057(11) 0.1928(4)
C42 C 0.6649(6) 0.5638(13) 0.1835(4)
C43 C 0.6582(7) 0.4847(13) 0.1559(4)
C44 C 0.5984(7) 0.4530(12) 0.1392(4)
C45 C 0.5407(5) 0.4944(9) 0.1495(3)
C46 C 0.4786(6) 0.4545(8) 0.1311(3)
O16 O 0.4234(4) 0.4807(6) 0.1349(2)
H1 H 0.2385(5) 0.8382(10) 0.0981(3)
H2 H 0.2584(5) 0.9592(10) 0.0957(3)
H3 H 0.2897(5) 0.8917(10) 0.1296(3)
H4 H 0.4932(5) 0.7111(11) 0.1114(3)
H5 H 0.5046(5) 0.7361(11) 0.0723(3)
H6 H 0.4593(5) 0.6412(11) 0.0780(3)
H7 H 0.2769(7) 0.6614(10) 0.0607(3)
H8 H 0.2848(7) 0.5523(10) 0.0821(3)
H9 H 0.3378(7) 0.5874(10) 0.0610(3)
H10 H 0.4619(7) 0.9033(11) 0.1346(3)
H11 H 0.4681(7) 0.8728(11) 0.1756(3)
H12 H 0.4088(7) 0.9408(11) 0.1559(3)
H13 H 0.4150(5) 1.1791(9) -0.0535(3)
H14 H 0.3523(6) 1.2978(9) -0.0910(3)
H15 H 0.2427(6) 1.3209(10) -0.0897(3)
H16 H 0.1969(5) 1.2219(9) -0.0510(3)
H17 H 0.2021(4) 1.0918(8) -0.0051(3)
H18 H 0.5408(4) 0.7593(9) -0.0182(3)
H19 H 0.5458(5) 0.5947(11) -0.0421(3)
H20 H 0.4570(6) 0.4799(10) -0.0518(3)
H21 H 0.3589(5) 0.5361(8) -0.0389(3)
H22 H 0.2946(4) 0.6682(8) -0.0195(2)
H23 H 0.6076(5) 1.0298(10) 0.0805(3)
H24 H 0.6647(6) 1.1220(12) 0.1301(4)
H25 H 0.6119(6) 1.2070(10) 0.1698(3)
H26 H 0.5007(6) 1.2174(9) 0.1569(3)
H27 H 0.3976(5) 1.1747(9) 0.1211(3)
H28 H 0.4447(6) 0.3575(12) 0.2653(3)
H29 H 0.4263(9) 0.1786(13) 0.2667(5)
H30 H 0.3576(9) 0.0920(14) 0.2185(5)
H31 H 0.2962(8) 0.1967(12) 0.1736(5)
H32 H 0.2616(5) 0.3562(9) 0.1442(3)
H33 H 0.4620(5) 0.8619(9) 0.2718(3)
H34 H 0.4139(6) 0.9752(10) 0.3057(3)
H35 H 0.3009(7) 0.9993(10) 0.2928(3)
H36 H 0.2372(5) 0.9033(11) 0.2479(3)
H37 H 0.2230(4) 0.7764(10) 0.2016(3)
H38 H 0.6171(5) 0.6577(11) 0.2111(4)
H39 H 0.7064(6) 0.5869(13) 0.1953(4)
H40 H 0.6952(7) 0.4552(13) 0.1494(4)
H41 H 0.5939(7) 0.4028(12) 0.1205(4)
H42 H 0.4797(6) 0.4014(8) 0.1138(3)
O5D O 0.6167(3) 0.9460(5) 0.0063(2)
Eu1D Eu 0.6203(1) 1.0670(1) -0.0399(1)
O1D O 0.6750(3) 1.1427(5) -0.0864(1)
B1D B 0.6295(4) 1.2273(8) -0.1034(2)
O2D O 0.5830(3) 1.2204(5) -0.0793(2)
O6D O 0.7302(3) 0.9909(5) -0.0199(2)
C11D C 0.7536(4) 0.9230(8) 0.0031(3)
C10D C 0.7226(4) 0.8654(7) 0.0267(2)
C5D C 0.6543(4) 0.8786(8) 0.0273(2)
C6D C 0.6290(5) 0.8138(9) 0.0525(3)
C7D C 0.6663(6) 0.7426(9) 0.0749(3)
C8D C 0.7321(6) 0.7288(10) 0.0743(3)
C9D C 0.7589(5) 0.7879(9) 0.0512(3)
H16D H 0.8031(5) 0.7781(9) 0.0510(3)
H15D H 0.7573(6) 0.6791(10) 0.0897(3)
H14D H 0.6477(6) 0.7022(9) 0.0910(3)
H13D H 0.5850(5) 0.8209(9) 0.0535(3)
H17D H 0.7979(4) 0.9082(8) 0.0051(3)
O7D O 0.5540(3) 1.1554(5) -0.0059(2)
O9D O 0.5158(3) 0.9983(6) -0.0615(2)
O8D O 0.6848(3) 1.2003(5) -0.0023(2)
C18D C 0.6709(4) 1.2841(8) 0.0120(2)
C17D C 0.6092(4) 1.3167(7) 0.0183(2)
C12D C 0.5525(4) 1.2473(8) 0.0103(2)
C13D C 0.4959(4) 1.2850(9) 0.0213(3)
C14D C 0.4931(5) 1.3830(11) 0.0359(3)
C15D C 0.5465(6) 1.4520(10) 0.0422(3)
C16D C 0.6046(5) 1.4190(8) 0.0341(3)
H21D H 0.6411(5) 1.4639(8) 0.0389(3)
H20D H 0.5430(6) 1.5201(10) 0.0518(3)
H19D H 0.4542(5) 1.4053(11) 0.0421(3)
H18D H 0.4592(4) 1.2407(9) 0.0182(3)
H22D H 0.7054(4) 1.3318(8) 0.0195(2)
O10D O 0.6266(3) 0.9182(6) -0.0826(2)
C25D C 0.5860(5) 0.8715(9) -0.1057(3)
C24D C 0.5163(5) 0.8799(7) -0.1118(3)
C19D C 0.4843(4) 0.9407(8) -0.0887(2)
C20D C 0.4152(5) 0.9354(10) -0.0960(3)
C21D C 0.3809(6) 0.8796(12) -0.1258(4)
C22D C 0.4122(6) 0.8266(10) -0.1490(3)
C23D C 0.4782(6) 0.8230(9) -0.1419(3)
H26D H 0.4993(6) 0.7826(9) -0.1569(3)
H25D H 0.3881(6) 0.7930(10) -0.1698(3)
H24D H 0.3353(6) 0.8780(12) -0.1301(4)
H23D H 0.3924(5) 0.9702(10) -0.0805(3)
H27D H 0.6024(5) 0.8253(9) -0.1211(3)
C2D C 0.5267(5) 1.2877(11) -0.0860(3)
H4D H 0.5068(5) 1.2889(11) -0.1114(3)
H5D H 0.4954(5) 1.2639(11) -0.0723(3)
H6D H 0.5407(5) 1.3588(11) -0.0780(3)
O3D O 0.6590(3) 1.3314(5) -0.1068(1)
Eu2D Eu 0.6172(1) 1.3781(1) -0.1708(1)
O4D O 0.6007(3) 1.2083(5) -0.1424(2)
C4D C 0.5619(7) 1.1162(11) -0.1529(3)
H10D H 0.5381(7) 1.0967(11) -0.1346(3)
H11D H 0.5319(7) 1.1272(11) -0.1756(3)
H12D H 0.5912(7) 1.0592(11) -0.1559(3)
O11D O 0.6029(3) 1.5051(7) -0.2159(2)
Na2D Na 0.5000 1.3801(5) -0.2500
O13D O 0.5920(3) 1.2672(6) -0.2220(2)
O12D O 0.7033(4) 1.5072(7) -0.1520(2)
C32D C 0.7059(5) 1.6035(9) -0.1592(3)
C31D C 0.6630(6) 1.6595(10) -0.1888(3)
C26D C 0.6167(5) 1.6067(10) -0.2164(3)
C27D C 0.5847(6) 1.6738(12) -0.2458(3)
C28D C 0.5955(9) 1.7818(13) -0.2467(5)
C29D C 0.6376(9) 1.8338(14) -0.2188(5)
C30D C 0.6722(8) 1.7706(12) -0.1915(5)
H31D H 0.7038(8) 1.8033(12) -0.1736(5)
H30D H 0.6424(9) 1.9080(14) -0.2185(5)
H29D H 0.5737(9) 1.8214(13) -0.2667(5)
H28D H 0.5553(6) 1.6425(12) -0.2653(3)
H32D H 0.7384(5) 1.6438(9) -0.1442(3)
O14D O 0.7200(3) 1.3019(7) -0.1807(2)
C39D C 0.7326(4) 1.2367(10) -0.2032(3)
C38D C 0.6896(4) 1.1791(8) -0.2310(3)
C33D C 0.6210(4) 1.1967(8) -0.2389(2)
C34D C 0.5835(5) 1.1326(9) -0.2669(3)
C35D C 0.6121(6) 1.0634(10) -0.2867(3)
C36D C 0.6801(7) 1.0493(10) -0.2792(3)
C37D C 0.7175(5) 1.1056(11) -0.2526(3)
H36D H 0.7628(5) 1.0967(11) -0.2479(3)
H35D H 0.6991(7) 1.0007(10) -0.2928(3)
H34D H 0.5861(6) 1.0248(10) -0.3057(3)
H33D H 0.5380(5) 1.1381(9) -0.2718(3)
H37D H 0.7770(4) 1.2236(10) -0.2016(3)
O15D O 0.5035(3) 1.3815(5) -0.1862(2)
C40D C 0.4531(4) 1.4242(8) -0.1766(2)
C41D C 0.3888(5) 1.3943(11) -0.1928(4)
C42D C 0.3351(6) 1.4362(13) -0.1835(4)
C43D C 0.3418(7) 1.5153(13) -0.1559(4)
C44D C 0.4016(7) 1.5470(12) -0.1392(4)
C45D C 0.4593(5) 1.5056(9) -0.1495(3)
C46D C 0.5214(6) 1.5455(8) -0.1311(3)
O16D O 0.5766(4) 1.5193(6) -0.1349(2)
H42D H 0.5203(6) 1.5986(8) -0.1138(3)
H41D H 0.4061(7) 1.5972(12) -0.1205(4)
H40D H 0.3048(7) 1.5448(13) -0.1494(4)
H39D H 0.2936(6) 1.4131(13) -0.1953(4)
H38D H 0.3829(5) 1.3423(11) -0.2111(4)
C3D C 0.6924(7) 1.3870(10) -0.0750(3)
H7D H 0.7231(7) 1.3386(10) -0.0607(3)
H8D H 0.7152(7) 1.4477(10) -0.0821(3)
H9D H 0.6622(7) 1.4126(10) -0.0610(3)
C1D C 0.7262(5) 1.1111(10) -0.1038(3)
H1D H 0.7615(5) 1.1618(10) -0.0981(3)
H2D H 0.7416(5) 1.0408(10) -0.0957(3)
H3D H 0.7103(5) 1.1083(10) -0.1296(3)
O11A O 0.6029(3) 0.4949(7) 0.2841(2)
O13A O 0.5920(3) 0.7328(6) 0.2780(2)
O15A O 0.5035(3) 0.6185(5) 0.3138(2)
loop_
_geom_bond_atom_site_label_1
_geom_bond_atom_site_label_2
_geom_bond_site_symmetry_1
_geom_bond_site_symmetry_2
Eu1 O1 1_555 1_555
Eu2 O3 1_555 1_555
Na1 O5 1_555 1_555
Na2 O11 1_555 1_555
B1 O1 1_555 1_555
O1 C1 1_555 1_555
C1 H1 1_555 1_555
O2 Eu1 1_555 1_555
C2 O2 1_555 1_555
O3 B1 1_555 1_555
C3 O3 1_555 1_555
O4 Eu2 1_555 1_555
C4 O4 1_555 1_555
O5 Eu1 1_555 1_555
C5 O5 1_555 1_555
C6 C5 1_555 1_555
C7 C6 1_555 1_555
C8 C7 1_555 1_555
C9 C8 1_555 1_555
C10 C5 1_555 1_555
C11 C10 1_555 1_555
O6 Eu1 1_555 1_555
O7 Eu1 1_555 1_555
C12 O7 1_555 1_555
C13 C12 1_555 1_555
C14 C13 1_555 1_555
C15 C14 1_555 1_555
C16 C15 1_555 1_555
C17 C12 1_555 1_555
C18 C17 1_555 1_555
O8 Eu1 1_555 1_555
O9 Eu1 1_555 1_555
C19 O9 1_555 1_555
C20 C19 1_555 1_555
C21 C20 1_555 1_555
C22 C21 1_555 1_555
C23 C22 1_555 1_555
C24 C19 1_555 1_555
C25 C24 1_555 1_555
O10 Eu1 1_555 1_555
O11 Eu2 1_555 1_555
C26 O11 1_555 1_555
C27 C26 1_555 1_555
C28 C27 1_555 1_555
C29 C28 1_555 1_555
C30 C29 1_555 1_555
C31 C26 1_555 1_555
C32 C31 1_555 1_555
O12 Eu2 1_555 1_555
O13 Eu2 1_555 1_555
C33 O13 1_555 1_555
C34 C33 1_555 1_555
C35 C34 1_555 1_555
C36 C35 1_555 1_555
C37 C36 1_555 1_555
C38 C33 1_555 1_555
C39 C38 1_555 1_555
O14 Eu2 1_555 1_555
O15 Eu2 1_555 1_555
C40 O15 1_555 1_555
C41 C40 1_555 1_555
C42 C41 1_555 1_555
C43 C42 1_555 1_555
C44 C43 1_555 1_555
C45 C40 1_555 1_555
C46 C45 1_555 1_555
O16 Eu2 1_555 1_555
H2 C1 1_555 1_555
H3 C1 1_555 1_555
H4 C2 1_555 1_555
H5 C2 1_555 1_555
H6 C2 1_555 1_555
H7 C3 1_555 1_555
H8 C3 1_555 1_555
H9 C3 1_555 1_555
H10 C4 1_555 1_555
H11 C4 1_555 1_555
H12 C4 1_555 1_555
H13 C6 1_555 1_555
H14 C7 1_555 1_555
H15 C8 1_555 1_555
H16 C9 1_555 1_555
H17 C11 1_555 1_555
H18 C13 1_555 1_555
H19 C14 1_555 1_555
H20 C15 1_555 1_555
H21 C16 1_555 1_555
H22 C18 1_555 1_555
H23 C20 1_555 1_555
H24 C21 1_555 1_555
H25 C22 1_555 1_555
H26 C23 1_555 1_555
H27 C25 1_555 1_555
H28 C27 1_555 1_555
H29 C28 1_555 1_555
H30 C29 1_555 1_555
H31 C30 1_555 1_555
H32 C32 1_555 1_555
H33 C34 1_555 1_555
H34 C35 1_555 1_555
H35 C36 1_555 1_555
H36 C37 1_555 1_555
H37 C39 1_555 1_555
H38 C41 1_555 1_555
H39 C42 1_555 1_555
H40 C43 1_555 1_555
H41 C44 1_555 1_555
H42 C46 1_555 1_555
O5D Na1 1_555 1_555
Eu1D O5D 1_555 1_555
O1D Eu1D 1_555 1_555
B1D O1D 1_555 1_555
O2D Eu1D 1_555 1_555
O6D Eu1D 1_555 1_555
C11D O6D 1_555 1_555
C10D C11D 1_555 1_555
C5D O5D 1_555 1_555
C6D C5D 1_555 1_555
C7D C6D 1_555 1_555
C8D C7D 1_555 1_555
C9D C10D 1_555 1_555
H16D C9D 1_555 1_555
H15D C8D 1_555 1_555
H14D C7D 1_555 1_555
H13D C6D 1_555 1_555
H17D C11D 1_555 1_555
O7D Na1 1_555 1_555
O9D Na1 1_555 1_555
O8D Eu1D 1_555 1_555
C18D O8D 1_555 1_555
C17D C18D 1_555 1_555
C12D O7D 1_555 1_555
C13D C12D 1_555 1_555
C14D C13D 1_555 1_555
C15D C14D 1_555 1_555
C16D C17D 1_555 1_555
H21D C16D 1_555 1_555
H20D C15D 1_555 1_555
H19D C14D 1_555 1_555
H18D C13D 1_555 1_555
H22D C18D 1_555 1_555
O10D Eu1D 1_555 1_555
C25D O10D 1_555 1_555
C24D C25D 1_555 1_555
C19D O9D 1_555 1_555
C20D C19D 1_555 1_555
C21D C20D 1_555 1_555
C22D C21D 1_555 1_555
C23D C24D 1_555 1_555
H26D C23D 1_555 1_555
H25D C22D 1_555 1_555
H24D C21D 1_555 1_555
H23D C20D 1_555 1_555
H27D C25D 1_555 1_555
C2D O2D 1_555 1_555
H4D C2D 1_555 1_555
H5D C2D 1_555 1_555
H6D C2D 1_555 1_555
O3D B1D 1_555 1_555
Eu2D O3D 1_555 1_555
O4D B1D 1_555 1_555
C4D O4D 1_555 1_555
H10D C4D 1_555 1_555
H11D C4D 1_555 1_555
H12D C4D 1_555 1_555
O11D Eu2D 1_555 1_555
Na2D O11D 1_555 1_555
O13D Eu2D 1_555 1_555
O12D Eu2D 1_555 1_555
C32D O12D 1_555 1_555
C31D C32D 1_555 1_555
C26D O11D 1_555 1_555
C27D C26D 1_555 1_555
C28D C27D 1_555 1_555
C29D C28D 1_555 1_555
C30D C31D 1_555 1_555
H31D C30D 1_555 1_555
H30D C29D 1_555 1_555
H29D C28D 1_555 1_555
H28D C27D 1_555 1_555
H32D C32D 1_555 1_555
O14D Eu2D 1_555 1_555
C39D O14D 1_555 1_555
C38D C39D 1_555 1_555
C33D O13D 1_555 1_555
C34D C33D 1_555 1_555
C35D C34D 1_555 1_555
C36D C35D 1_555 1_555
C37D C38D 1_555 1_555
H36D C37D 1_555 1_555
H35D C36D 1_555 1_555
H34D C35D 1_555 1_555
H33D C34D 1_555 1_555
H37D C39D 1_555 1_555
O15D Eu2D 1_555 1_555
C40D O15D 1_555 1_555
C41D C40D 1_555 1_555
C42D C41D 1_555 1_555
C43D C42D 1_555 1_555
C44D C43D 1_555 1_555
C45D C40D 1_555 1_555
C46D C45D 1_555 1_555
O16D Eu2D 1_555 1_555
H42D C46D 1_555 1_555
H41D C44D 1_555 1_555
H40D C43D 1_555 1_555
H39D C42D 1_555 1_555
H38D C41D 1_555 1_555
C3D O3D 1_555 1_555
H7D C3D 1_555 1_555
H8D C3D 1_555 1_555
H9D C3D 1_555 1_555
C1D O1D 1_555 1_555
H1D C1D 1_555 1_555
H2D C1D 1_555 1_555
H3D C1D 1_555 1_555
O11A Na2 1_555 1_555
O13A Na2 1_555 1_555
O15A Na2 1_555 1_555
Na1 O7 1_555 1_555
Na1 O9 1_555 1_555
Na2 O13 1_555 1_555
Na2 O15 1_555 1_555
B1 O2 1_555 1_555
B1 O4 1_555 1_555
C9 C10 1_555 1_555
C11 O6 1_555 1_555
C16 C17 1_555 1_555
C18 O8 1_555 1_555
C23 C24 1_555 1_555
C25 O10 1_555 1_555
C30 C31 1_555 1_555
C32 O12 1_555 1_555
C37 C38 1_555 1_555
C39 O14 1_555 1_555
C44 C45 1_555 1_555
C46 O16 1_555 1_555
Eu1D O7D 1_555 1_555
Eu1D O9D 1_555 1_555
B1D O2D 1_555 1_555
C10D C5D 1_555 1_555
C8D C9D 1_555 1_555
C17D C12D 1_555 1_555
C15D C16D 1_555 1_555
C24D C19D 1_555 1_555
C22D C23D 1_555 1_555
Eu2D O4D 1_555 1_555
Na2D O13D 1_555 1_555
Na2D O15D 1_555 1_555
C31D C26D 1_555 1_555
C29D C30D 1_555 1_555
C38D C33D 1_555 1_555
C36D C37D 1_555 1_555
C44D C45D 1_555 1_555
C46D O16D 1_555 1_555

#END
