
#######################################################################
#
#                 Cambridge Crystallographic Data Centre
#                                CCDC 
#
#######################################################################
#
# If this CIF has been generated from an entry in the Cambridge 
# Structural Database, then it will include bibliographic, chemical, 
# crystal, experimental, refinement or atomic coordinate data resulting 
# from the CCDC's data processing and validation procedures.
#
#######################################################################

data_HOSXES
_symmetry_cell_setting           monoclinic
_symmetry_space_group_name_H-M   'C 2/c'
_symmetry_Int_Tables_number      15
_space_group_name_Hall           '-C 2yn'
loop_
_symmetry_equiv_pos_site_id
_symmetry_equiv_pos_as_xyz
1 x,y,z
2 -x,y,1/2-z
3 1/2+x,1/2+y,z
4 1/2-x,1/2+y,1/2-z
5 -x,-y,-z
6 x,-y,1/2+z
7 1/2-x,1/2-y,-z
8 1/2+x,1/2-y,1/2+z
_cell_length_a                   20.884(2)
_cell_length_b                   12.454(1)
_cell_length_c                   37.663(5)
_cell_angle_alpha                90
_cell_angle_beta                 102.09(2)
_cell_angle_gamma                90
_cell_volume                     9578.47
loop_
_atom_site_label
_atom_site_type_symbol
_atom_site_fract_x
_atom_site_fract_y
_atom_site_fract_z
Nd1 Nd 0.3792(1) 0.9340(1) 0.0400(1)
Nd2 Nd 0.3821(1) 0.6168(1) 0.1711(1)
Na1 Na 0.5000 1.0000 0.0000
Na2 Na 0.5000 0.6152(6) 0.2500
B1 B 0.3694(5) 0.7699(9) 0.1036(2)
O1 O 0.3237(3) 0.8554(5) 0.0868(2)
C1 C 0.2736(5) 0.8859(10) 0.1043(3)
O2 O 0.4166(3) 0.7773(6) 0.0798(2)
C2 C 0.4723(6) 0.7086(11) 0.0862(4)
O3 O 0.3405(3) 0.6663(5) 0.1068(1)
C3 C 0.3059(7) 0.6130(10) 0.0750(3)
O4 O 0.3989(3) 0.7890(6) 0.1423(2)
C4 C 0.4360(7) 0.8832(11) 0.1532(3)
O5 O 0.3832(3) 1.0550(6) -0.0066(2)
C5 C 0.3454(4) 1.1253(8) -0.0282(2)
C6 C 0.3723(5) 1.1865(9) -0.0527(3)
C7 C 0.3337(6) 1.2585(10) -0.0751(3)
C8 C 0.2682(6) 1.2741(10) -0.0749(3)
C9 C 0.2415(5) 1.2133(9) -0.0517(3)
C10 C 0.2778(4) 1.1389(7) -0.0280(2)
C11 C 0.2460(4) 1.0827(8) -0.0034(3)
O6 O 0.2693(3) 1.0132(6) 0.0190(2)
O7 O 0.4467(3) 0.8428(5) 0.0059(2)
C12 C 0.4467(4) 0.7521(8) -0.0102(2)
C13 C 0.5043(5) 0.7147(9) -0.0210(3)
C14 C 0.5071(5) 0.6166(11) -0.0362(3)
C15 C 0.4537(6) 0.5465(9) -0.0429(3)
C16 C 0.3957(5) 0.5829(9) -0.0348(3)
C17 C 0.3913(5) 0.6819(8) -0.0184(2)
C18 C 0.3294(4) 0.7138(8) -0.0121(2)
O8 O 0.3150(3) 0.7974(6) 0.0020(2)
O9 O 0.4850(3) 1.0050(6) 0.0611(2)
C19 C 0.5173(5) 1.0602(8) 0.0885(2)
C20 C 0.5862(5) 1.0639(11) 0.0954(3)
C21 C 0.6204(6) 1.1162(11) 0.1252(4)
C22 C 0.5910(7) 1.1699(11) 0.1489(4)
C23 C 0.5242(6) 1.1742(10) 0.1426(3)
C24 C 0.4856(5) 1.1191(8) 0.1127(3)
C25 C 0.4165(5) 1.1298(9) 0.1067(3)
O10 O 0.3746(3) 1.0846(6) 0.0836(2)
O11 O 0.3960(4) 0.4849(7) 0.2162(2)
C26 C 0.3825(5) 0.3835(10) 0.2170(3)
C27 C 0.4160(7) 0.3160(12) 0.2457(3)
C28 C 0.4031(9) 0.2084(12) 0.2457(5)
C29 C 0.3621(10) 0.1597(13) 0.2180(5)
C30 C 0.3255(8) 0.2201(11) 0.1904(4)
C31 C 0.3366(6) 0.3329(10) 0.1893(3)
C32 C 0.2944(6) 0.3891(11) 0.1600(3)
O12 O 0.2959(4) 0.4825(7) 0.1524(2)
O13 O 0.4077(3) 0.7282(6) 0.2223(2)
C33 C 0.3796(4) 0.7999(8) 0.2397(2)
C34 C 0.4171(5) 0.8621(10) 0.2679(3)
C35 C 0.3886(6) 0.9320(10) 0.2872(3)
C36 C 0.3216(7) 0.9473(11) 0.2814(3)
C37 C 0.2841(5) 0.8912(10) 0.2542(3)
C38 C 0.3104(4) 0.8184(9) 0.2325(3)
C39 C 0.2666(4) 0.7581(11) 0.2053(3)
O14 O 0.2790(3) 0.6953(8) 0.1831(2)
O15 O 0.4971(3) 0.6104(6) 0.1874(2)
C40 C 0.5482(4) 0.5672(9) 0.1775(2)
C41 C 0.6122(5) 0.5981(10) 0.1947(4)
C42 C 0.6658(6) 0.5564(14) 0.1844(5)
C43 C 0.6598(7) 0.4813(14) 0.1572(4)
C44 C 0.5989(7) 0.4479(11) 0.1400(4)
C45 C 0.5413(5) 0.4910(8) 0.1494(2)
C46 C 0.4800(6) 0.4490(9) 0.1315(3)
O16 O 0.4249(4) 0.4742(6) 0.1346(2)
H1 H 0.2383(5) 0.8351(10) 0.0985(3)
H2 H 0.2582(5) 0.9561(10) 0.0961(3)
H3 H 0.2895(5) 0.8886(10) 0.1301(3)
H4 H 0.4922(6) 0.7074(11) 0.1116(4)
H5 H 0.5036(6) 0.7323(11) 0.0725(4)
H6 H 0.4583(6) 0.6375(11) 0.0782(4)
H7 H 0.2752(7) 0.6614(10) 0.0606(3)
H8 H 0.2830(7) 0.5523(10) 0.0820(3)
H9 H 0.3361(7) 0.5873(10) 0.0609(3)
H10 H 0.4598(7) 0.9026(11) 0.1349(3)
H11 H 0.4660(7) 0.8722(11) 0.1759(3)
H12 H 0.4066(7) 0.9402(11) 0.1562(3)
H13 H 0.4161(5) 1.1783(9) -0.0538(3)
H14 H 0.3525(6) 1.2986(10) -0.0911(3)
H15 H 0.2433(6) 1.3243(10) -0.0902(3)
H16 H 0.1973(5) 1.2216(9) -0.0516(3)
H17 H 0.2024(4) 1.1006(8) -0.0045(3)
H18 H 0.5409(5) 0.7590(9) -0.0177(3)
H19 H 0.5460(5) 0.5950(11) -0.0423(3)
H20 H 0.4569(6) 0.4783(9) -0.0523(3)
H21 H 0.3586(5) 0.5399(9) -0.0405(3)
H22 H 0.2952(4) 0.6655(8) -0.0196(2)
H23 H 0.6085(5) 1.0304(11) 0.0795(3)
H24 H 0.6659(6) 1.1152(11) 0.1295(4)
H25 H 0.6161(7) 1.2033(11) 0.1692(4)
H26 H 0.5039(6) 1.2138(10) 0.1580(3)
H27 H 0.4009(5) 1.1769(9) 0.1220(3)
H28 H 0.4469(7) 0.3457(12) 0.2645(3)
H29 H 0.4234(9) 0.1674(12) 0.2655(5)
H30 H 0.3584(10) 0.0853(13) 0.2176(5)
H31 H 0.2939(8) 0.1876(11) 0.1726(4)
H32 H 0.2622(6) 0.3482(11) 0.1452(3)
H33 H 0.4624(5) 0.8549(10) 0.2733(3)
H34 H 0.4153(6) 0.9719(10) 0.3053(3)
H35 H 0.3032(7) 0.9943(11) 0.2957(3)
H36 H 0.2390(5) 0.9014(10) 0.2494(3)
H37 H 0.2223(4) 0.7690(11) 0.2045(3)
H38 H 0.6179(5) 0.6480(10) 0.2135(4)
H39 H 0.7073(6) 0.5792(14) 0.1960(5)
H40 H 0.6969(7) 0.4535(14) 0.1505(4)
H41 H 0.5948(7) 0.3961(11) 0.1219(4)
H42 H 0.4819(6) 0.3940(9) 0.1151(3)
O5D O 0.6168(3) 0.9450(6) 0.0066(2)
Nd1D Nd 0.6208(1) 1.0660(1) -0.0400(1)
O1D O 0.6763(3) 1.1446(5) -0.0868(2)
B1D B 0.6306(5) 1.2301(9) -0.1036(2)
O2D O 0.5834(3) 1.2227(6) -0.0798(2)
O6D O 0.7307(3) 0.9868(6) -0.0190(2)
C11D C 0.7540(4) 0.9173(8) 0.0034(3)
C10D C 0.7222(4) 0.8611(7) 0.0280(2)
C5D C 0.6546(4) 0.8747(8) 0.0282(2)
C6D C 0.6277(5) 0.8135(9) 0.0527(3)
C7D C 0.6663(6) 0.7415(10) 0.0751(3)
C8D C 0.7318(6) 0.7259(10) 0.0749(3)
C9D C 0.7585(5) 0.7867(9) 0.0517(3)
H16D H 0.8027(5) 0.7784(9) 0.0516(3)
H15D H 0.7567(6) 0.6757(10) 0.0902(3)
H14D H 0.6475(6) 0.7014(10) 0.0911(3)
H13D H 0.5839(5) 0.8217(9) 0.0538(3)
H17D H 0.7976(4) 0.8994(8) 0.0045(3)
O7D O 0.5533(3) 1.1572(5) -0.0059(2)
O9D O 0.5150(3) 0.9950(6) -0.0611(2)
O8D O 0.6850(3) 1.2026(6) -0.0020(2)
C18D C 0.6706(4) 1.2862(8) 0.0121(2)
C17D C 0.6087(5) 1.3181(8) 0.0184(2)
C12D C 0.5533(4) 1.2479(8) 0.0102(2)
C13D C 0.4957(5) 1.2853(9) 0.0210(3)
C14D C 0.4929(5) 1.3834(11) 0.0362(3)
C15D C 0.5463(6) 1.4535(9) 0.0429(3)
C16D C 0.6043(5) 1.4171(9) 0.0348(3)
H21D H 0.6414(5) 1.4601(9) 0.0405(3)
H20D H 0.5431(6) 1.5217(9) 0.0523(3)
H19D H 0.4540(5) 1.4050(11) 0.0423(3)
H18D H 0.4591(5) 1.2410(9) 0.0177(3)
H22D H 0.7048(4) 1.3345(8) 0.0196(2)
O10D O 0.6254(3) 0.9154(6) -0.0836(2)
C25D C 0.5835(5) 0.8702(9) -0.1067(3)
C24D C 0.5144(5) 0.8809(8) -0.1127(3)
C19D C 0.4827(5) 0.9398(8) -0.0885(2)
C20D C 0.4138(5) 0.9361(11) -0.0954(3)
C21D C 0.3796(6) 0.8838(11) -0.1252(4)
C22D C 0.4090(7) 0.8301(11) -0.1489(4)
C23D C 0.4758(6) 0.8258(10) -0.1426(3)
H26D H 0.4961(6) 0.7862(10) -0.1580(3)
H25D H 0.3839(7) 0.7967(11) -0.1692(4)
H24D H 0.3341(6) 0.8848(11) -0.1295(4)
H23D H 0.3915(5) 0.9696(11) -0.0795(3)
H27D H 0.5991(5) 0.8231(9) -0.1220(3)
C2D C 0.5277(6) 1.2914(11) -0.0862(4)
H4D H 0.5078(6) 1.2926(11) -0.1116(4)
H5D H 0.4964(6) 1.2677(11) -0.0725(4)
H6D H 0.5417(6) 1.3625(11) -0.0782(4)
O3D O 0.6595(3) 1.3337(5) -0.1068(1)
Nd2D Nd 0.6179(1) 1.3832(1) -0.1711(1)
O4D O 0.6011(3) 1.2110(6) -0.1423(2)
C4D C 0.5640(7) 1.1168(11) -0.1532(3)
H10D H 0.5402(7) 1.0974(11) -0.1349(3)
H11D H 0.5340(7) 1.1278(11) -0.1759(3)
H12D H 0.5934(7) 1.0598(11) -0.1562(3)
O11D O 0.6040(4) 1.5151(7) -0.2162(2)
Na2D Na 0.5000 1.3848(6) -0.2500
O13D O 0.5923(3) 1.2718(6) -0.2223(2)
O12D O 0.7041(4) 1.5175(7) -0.1524(2)
C32D C 0.7056(6) 1.6109(11) -0.1600(3)
C31D C 0.6634(6) 1.6671(10) -0.1893(3)
C26D C 0.6175(5) 1.6165(10) -0.2170(3)
C27D C 0.5840(7) 1.6840(12) -0.2457(3)
C28D C 0.5969(9) 1.7916(12) -0.2457(5)
C29D C 0.6379(10) 1.8403(13) -0.2180(5)
C30D C 0.6745(8) 1.7799(11) -0.1904(4)
H31D H 0.7061(8) 1.8124(11) -0.1726(4)
H30D H 0.6416(10) 1.9147(13) -0.2176(5)
H29D H 0.5766(9) 1.8326(12) -0.2655(5)
H28D H 0.5531(7) 1.6543(12) -0.2645(3)
H32D H 0.7378(6) 1.6518(11) -0.1452(3)
O14D O 0.7210(3) 1.3047(8) -0.1831(2)
C39D C 0.7334(4) 1.2419(11) -0.2053(3)
C38D C 0.6896(4) 1.1816(9) -0.2325(3)
C33D C 0.6204(4) 1.2001(8) -0.2397(2)
C34D C 0.5829(5) 1.1379(10) -0.2679(3)
C35D C 0.6114(6) 1.0680(10) -0.2872(3)
C36D C 0.6784(7) 1.0527(11) -0.2814(3)
C37D C 0.7159(5) 1.1088(10) -0.2542(3)
H36D H 0.7610(5) 1.0986(10) -0.2494(3)
H35D H 0.6968(7) 1.0057(11) -0.2957(3)
H34D H 0.5847(6) 1.0281(10) -0.3053(3)
H33D H 0.5376(5) 1.1451(10) -0.2733(3)
H37D H 0.7777(4) 1.2310(11) -0.2045(3)
O15D O 0.5029(3) 1.3896(6) -0.1874(2)
C40D C 0.4518(4) 1.4328(9) -0.1775(2)
C41D C 0.3878(5) 1.4019(10) -0.1947(4)
C42D C 0.3342(6) 1.4436(14) -0.1844(5)
C43D C 0.3402(7) 1.5187(14) -0.1572(4)
C44D C 0.4011(7) 1.5521(11) -0.1400(4)
C45D C 0.4587(5) 1.5090(8) -0.1494(2)
C46D C 0.5200(6) 1.5510(9) -0.1315(3)
O16D O 0.5751(4) 1.5258(6) -0.1346(2)
H42D H 0.5181(6) 1.6060(9) -0.1151(3)
H41D H 0.4052(7) 1.6039(11) -0.1219(4)
H40D H 0.3031(7) 1.5465(14) -0.1505(4)
H39D H 0.2927(6) 1.4208(14) -0.1960(5)
H38D H 0.3821(5) 1.3520(10) -0.2135(4)
C3D C 0.6941(7) 1.3870(10) -0.0750(3)
H7D H 0.7248(7) 1.3386(10) -0.0606(3)
H8D H 0.7170(7) 1.4477(10) -0.0820(3)
H9D H 0.6639(7) 1.4127(10) -0.0609(3)
C1D C 0.7264(5) 1.1141(10) -0.1043(3)
H1D H 0.7617(5) 1.1649(10) -0.0985(3)
H2D H 0.7418(5) 1.0439(10) -0.0961(3)
H3D H 0.7105(5) 1.1114(10) -0.1301(3)
O11A O 0.6040(4) 0.4849(7) 0.2838(2)
O13A O 0.5923(3) 0.7282(6) 0.2777(2)
O15A O 0.5029(3) 0.6104(6) 0.3126(2)
loop_
_geom_bond_atom_site_label_1
_geom_bond_atom_site_label_2
_geom_bond_site_symmetry_1
_geom_bond_site_symmetry_2
Nd1 O1 1_555 1_555
Nd2 O3 1_555 1_555
Na1 O5 1_555 1_555
Na2 O11 1_555 1_555
B1 O1 1_555 1_555
O1 C1 1_555 1_555
C1 H1 1_555 1_555
O2 Nd1 1_555 1_555
C2 O2 1_555 1_555
O3 B1 1_555 1_555
C3 O3 1_555 1_555
O4 Nd2 1_555 1_555
C4 O4 1_555 1_555
O5 Nd1 1_555 1_555
C5 O5 1_555 1_555
C6 C5 1_555 1_555
C7 C6 1_555 1_555
C8 C7 1_555 1_555
C9 C8 1_555 1_555
C10 C5 1_555 1_555
C11 C10 1_555 1_555
O6 Nd1 1_555 1_555
O7 Nd1 1_555 1_555
C12 O7 1_555 1_555
C13 C12 1_555 1_555
C14 C13 1_555 1_555
C15 C14 1_555 1_555
C16 C15 1_555 1_555
C17 C12 1_555 1_555
C18 C17 1_555 1_555
O8 Nd1 1_555 1_555
O9 Nd1 1_555 1_555
C19 O9 1_555 1_555
C20 C19 1_555 1_555
C21 C20 1_555 1_555
C22 C21 1_555 1_555
C23 C22 1_555 1_555
C24 C19 1_555 1_555
C25 C24 1_555 1_555
O10 Nd1 1_555 1_555
O11 Nd2 1_555 1_555
C26 O11 1_555 1_555
C27 C26 1_555 1_555
C28 C27 1_555 1_555
C29 C28 1_555 1_555
C30 C29 1_555 1_555
C31 C26 1_555 1_555
C32 C31 1_555 1_555
O12 Nd2 1_555 1_555
O13 Nd2 1_555 1_555
C33 O13 1_555 1_555
C34 C33 1_555 1_555
C35 C34 1_555 1_555
C36 C35 1_555 1_555
C37 C36 1_555 1_555
C38 C33 1_555 1_555
C39 C38 1_555 1_555
O14 Nd2 1_555 1_555
O15 Nd2 1_555 1_555
C40 O15 1_555 1_555
C41 C40 1_555 1_555
C42 C41 1_555 1_555
C43 C42 1_555 1_555
C44 C43 1_555 1_555
C45 C40 1_555 1_555
C46 C45 1_555 1_555
O16 Nd2 1_555 1_555
H2 C1 1_555 1_555
H3 C1 1_555 1_555
H4 C2 1_555 1_555
H5 C2 1_555 1_555
H6 C2 1_555 1_555
H7 C3 1_555 1_555
H8 C3 1_555 1_555
H9 C3 1_555 1_555
H10 C4 1_555 1_555
H11 C4 1_555 1_555
H12 C4 1_555 1_555
H13 C6 1_555 1_555
H14 C7 1_555 1_555
H15 C8 1_555 1_555
H16 C9 1_555 1_555
H17 C11 1_555 1_555
H18 C13 1_555 1_555
H19 C14 1_555 1_555
H20 C15 1_555 1_555
H21 C16 1_555 1_555
H22 C18 1_555 1_555
H23 C20 1_555 1_555
H24 C21 1_555 1_555
H25 C22 1_555 1_555
H26 C23 1_555 1_555
H27 C25 1_555 1_555
H28 C27 1_555 1_555
H29 C28 1_555 1_555
H30 C29 1_555 1_555
H31 C30 1_555 1_555
H32 C32 1_555 1_555
H33 C34 1_555 1_555
H34 C35 1_555 1_555
H35 C36 1_555 1_555
H36 C37 1_555 1_555
H37 C39 1_555 1_555
H38 C41 1_555 1_555
H39 C42 1_555 1_555
H40 C43 1_555 1_555
H41 C44 1_555 1_555
H42 C46 1_555 1_555
O5D Na1 1_555 1_555
Nd1D O5D 1_555 1_555
O1D Nd1D 1_555 1_555
B1D O1D 1_555 1_555
O2D Nd1D 1_555 1_555
O6D Nd1D 1_555 1_555
C11D O6D 1_555 1_555
C10D C11D 1_555 1_555
C5D O5D 1_555 1_555
C6D C5D 1_555 1_555
C7D C6D 1_555 1_555
C8D C7D 1_555 1_555
C9D C10D 1_555 1_555
H16D C9D 1_555 1_555
H15D C8D 1_555 1_555
H14D C7D 1_555 1_555
H13D C6D 1_555 1_555
H17D C11D 1_555 1_555
O7D Na1 1_555 1_555
O9D Na1 1_555 1_555
O8D Nd1D 1_555 1_555
C18D O8D 1_555 1_555
C17D C18D 1_555 1_555
C12D O7D 1_555 1_555
C13D C12D 1_555 1_555
C14D C13D 1_555 1_555
C15D C14D 1_555 1_555
C16D C17D 1_555 1_555
H21D C16D 1_555 1_555
H20D C15D 1_555 1_555
H19D C14D 1_555 1_555
H18D C13D 1_555 1_555
H22D C18D 1_555 1_555
O10D Nd1D 1_555 1_555
C25D O10D 1_555 1_555
C24D C25D 1_555 1_555
C19D O9D 1_555 1_555
C20D C19D 1_555 1_555
C21D C20D 1_555 1_555
C22D C21D 1_555 1_555
C23D C24D 1_555 1_555
H26D C23D 1_555 1_555
H25D C22D 1_555 1_555
H24D C21D 1_555 1_555
H23D C20D 1_555 1_555
H27D C25D 1_555 1_555
C2D O2D 1_555 1_555
H4D C2D 1_555 1_555
H5D C2D 1_555 1_555
H6D C2D 1_555 1_555
O3D B1D 1_555 1_555
Nd2D O3D 1_555 1_555
O4D B1D 1_555 1_555
C4D O4D 1_555 1_555
H10D C4D 1_555 1_555
H11D C4D 1_555 1_555
H12D C4D 1_555 1_555
O11D Nd2D 1_555 1_555
Na2D O11D 1_555 1_555
O13D Nd2D 1_555 1_555
O12D Nd2D 1_555 1_555
C32D O12D 1_555 1_555
C31D C32D 1_555 1_555
C26D O11D 1_555 1_555
C27D C26D 1_555 1_555
C28D C27D 1_555 1_555
C29D C28D 1_555 1_555
C30D C31D 1_555 1_555
H31D C30D 1_555 1_555
H30D C29D 1_555 1_555
H29D C28D 1_555 1_555
H28D C27D 1_555 1_555
H32D C32D 1_555 1_555
O14D Nd2D 1_555 1_555
C39D O14D 1_555 1_555
C38D C39D 1_555 1_555
C33D O13D 1_555 1_555
C34D C33D 1_555 1_555
C35D C34D 1_555 1_555
C36D C35D 1_555 1_555
C37D C38D 1_555 1_555
H36D C37D 1_555 1_555
H35D C36D 1_555 1_555
H34D C35D 1_555 1_555
H33D C34D 1_555 1_555
H37D C39D 1_555 1_555
O15D Nd2D 1_555 1_555
C40D O15D 1_555 1_555
C41D C40D 1_555 1_555
C42D C41D 1_555 1_555
C43D C42D 1_555 1_555
C44D C43D 1_555 1_555
C45D C40D 1_555 1_555
C46D C45D 1_555 1_555
O16D Nd2D 1_555 1_555
H42D C46D 1_555 1_555
H41D C44D 1_555 1_555
H40D C43D 1_555 1_555
H39D C42D 1_555 1_555
H38D C41D 1_555 1_555
C3D O3D 1_555 1_555
H7D C3D 1_555 1_555
H8D C3D 1_555 1_555
H9D C3D 1_555 1_555
C1D O1D 1_555 1_555
H1D C1D 1_555 1_555
H2D C1D 1_555 1_555
H3D C1D 1_555 1_555
O11A Na2 1_555 1_555
O13A Na2 1_555 1_555
O15A Na2 1_555 1_555
Na1 O7 1_555 1_555
Na1 O9 1_555 1_555
Na2 O13 1_555 1_555
Na2 O15 1_555 1_555
B1 O2 1_555 1_555
B1 O4 1_555 1_555
C9 C10 1_555 1_555
C11 O6 1_555 1_555
C16 C17 1_555 1_555
C18 O8 1_555 1_555
C23 C24 1_555 1_555
C25 O10 1_555 1_555
C30 C31 1_555 1_555
C32 O12 1_555 1_555
C37 C38 1_555 1_555
C39 O14 1_555 1_555
C44 C45 1_555 1_555
C46 O16 1_555 1_555
Nd1D O7D 1_555 1_555
Nd1D O9D 1_555 1_555
B1D O2D 1_555 1_555
C10D C5D 1_555 1_555
C8D C9D 1_555 1_555
C17D C12D 1_555 1_555
C15D C16D 1_555 1_555
C24D C19D 1_555 1_555
C22D C23D 1_555 1_555
Nd2D O4D 1_555 1_555
Na2D O13D 1_555 1_555
Na2D O15D 1_555 1_555
C31D C26D 1_555 1_555
C29D C30D 1_555 1_555
C38D C33D 1_555 1_555
C36D C37D 1_555 1_555
C44D C45D 1_555 1_555
C46D O16D 1_555 1_555

#END
