
#######################################################################
#
#                 Cambridge Crystallographic Data Centre
#                                CCDC 
#
#######################################################################
#
# If this CIF has been generated from an entry in the Cambridge 
# Structural Database, then it will include bibliographic, chemical, 
# crystal, experimental, refinement or atomic coordinate data resulting 
# from the CCDC's data processing and validation procedures.
#
#######################################################################

data_HOTBOJ
_symmetry_cell_setting           monoclinic
_symmetry_space_group_name_H-M   'P 21/c'
_symmetry_Int_Tables_number      14
_space_group_name_Hall           '-P 2ybc'
loop_
_symmetry_equiv_pos_site_id
_symmetry_equiv_pos_as_xyz
1 x,y,z
2 -x,1/2+y,1/2-z
3 -x,-y,-z
4 x,1/2-y,1/2+z
_cell_length_a                   8.1811(4)
_cell_length_b                   7.7210(3)
_cell_length_c                   29.8371(17)
_cell_angle_alpha                90
_cell_angle_beta                 93.637(4)
_cell_angle_gamma                90
_cell_volume                     1880.9
loop_
_atom_site_label
_atom_site_type_symbol
_atom_site_fract_x
_atom_site_fract_y
_atom_site_fract_z
C1 C -0.1097(14) 0.4662(15) 0.1379(4)
H1 H -0.1263 0.4209 0.1662
C2 C -0.2322(13) 0.4521(14) 0.1046(4)
H2 H -0.3300 0.3991 0.1112
C3 C -0.0747(11) 0.5899(13) 0.0563(3)
H3 H -0.0581 0.6358 0.0281
C4 C 0.0486(12) 0.6050(12) 0.0898(3)
C5 C 0.2088(11) 0.6949(12) 0.0812(3)
C6 C 0.4704(11) 0.7820(11) 0.1217(3)
C7 C 0.5554(11) 0.7769(13) 0.1632(4)
H4 H 0.5050 0.7264 0.1871
C8 C 0.7798(11) 0.9188(11) 0.1363(3)
C9 C 0.9423(11) 0.9846(12) 0.1440(3)
H5 H 0.9983 0.9770 0.1720
C10 C 1.0129(12) 1.0605(14) 0.1076(3)
H6 H 1.1180 1.1061 0.1120
C11 C 0.9342(14) 1.0714(14) 0.0654(3)
H7 H 0.9879 1.1213 0.0420
C12 C 0.7773(15) 1.0093(13) 0.0574(4)
H8 H 0.7237 1.0185 0.0291
C13 C 0.6984(11) 0.9301(11) 0.0938(3)
C14 C 0.5408(11) 0.8620(11) 0.0863(3)
H9 H 0.4848 0.8704 0.0583
N1 N 0.0325(10) 0.5429(12) 0.1311(3)
N2 N -0.2165(11) 0.5120(11) 0.0627(3)
N3 N 0.3120(9) 0.7073(12) 0.1182(3)
H10 H 0.2774 0.6649 0.1425
N4 N 0.7041(9) 0.8402(10) 0.1707(3)
O1 O 0.2345(10) 0.7486(11) 0.0442(3)
Hg1 Hg 0.82849(5) 0.81437(7) 0.245092(15)
I1 I 0.60209(11) 0.73909(15) 0.30134(3)
I2 I 1.14492(8) 0.71534(9) 0.24429(2)
Hg1A Hg 1.17151(5) 0.31437(7) 0.254908(15)
I2A I 0.85508(8) 1.21534(9) 0.25571(2)
Hg2 Hg -0.5000 0.5000 0.0000
I3 I -0.63567(8) 0.27443(9) 0.04947(3)
I3B I -0.36433(8) 0.72557(9) -0.04947(3)
loop_
_geom_bond_atom_site_label_1
_geom_bond_atom_site_label_2
_geom_bond_site_symmetry_1
_geom_bond_site_symmetry_2
C1 H1 1_555 1_555
C2 C1 1_555 1_555
H2 C2 1_555 1_555
C3 H3 1_555 1_555
C4 C3 1_555 1_555
C5 C4 1_555 1_555
C6 C7 1_555 1_555
C7 H4 1_555 1_555
C8 C9 1_555 1_555
C9 H5 1_555 1_555
C10 C9 1_555 1_555
H6 C10 1_555 1_555
C11 C10 1_555 1_555
H7 C11 1_555 1_555
C12 C11 1_555 1_555
H8 C12 1_555 1_555
C13 C8 1_555 1_555
C14 C6 1_555 1_555
H9 C14 1_555 1_555
N1 C1 1_555 1_555
N2 C2 1_555 1_555
N3 C5 1_555 1_555
H10 N3 1_555 1_555
N4 C7 1_555 1_555
O1 C5 1_555 1_555
Hg1 N4 1_555 1_555
I1 Hg1 1_555 1_555
I2 Hg1 1_555 1_555
Hg2 I3 1_555 1_555
Hg1A I2 1_555 1_555
I2A Hg1 1_555 1_555
I3B Hg2 1_555 1_555
C3 N2 1_555 1_555
C4 N1 1_555 1_555
C6 N3 1_555 1_555
C8 N4 1_555 1_555
C12 C13 1_555 1_555
C13 C14 1_555 1_555

#END
