
#######################################################################
#
#                 Cambridge Crystallographic Data Centre
#                                CCDC 
#
#######################################################################
#
# If this CIF has been generated from an entry in the Cambridge 
# Structural Database, then it will include bibliographic, chemical, 
# crystal, experimental, refinement or atomic coordinate data resulting 
# from the CCDC's data processing and validation procedures.
#
#######################################################################

data_HOTDIF
_symmetry_cell_setting           monoclinic
_symmetry_space_group_name_H-M   'P 21/n'
_symmetry_Int_Tables_number      14
_space_group_name_Hall           '-P 2yn'
loop_
_symmetry_equiv_pos_site_id
_symmetry_equiv_pos_as_xyz
1 x,y,z
2 1/2-x,1/2+y,1/2-z
3 -x,-y,-z
4 1/2+x,1/2-y,1/2+z
_cell_length_a                   7.0501(12)
_cell_length_b                   8.2312(11)
_cell_length_c                   30.203(2)
_cell_angle_alpha                90
_cell_angle_beta                 94.8000(10)
_cell_angle_gamma                90
_cell_volume                     1746.56
loop_
_atom_site_label
_atom_site_type_symbol
_atom_site_fract_x
_atom_site_fract_y
_atom_site_fract_z
Mn1 Mn 0.18355(19) 0.63530(18) 0.67875(4)
N1 N 0.5163(11) 1.0118(10) 0.7778(2)
N2 N 0.7281(11) 0.9432(10) 0.7318(3)
H1 H 0.8365 0.9290 0.7213
N3 N 0.2518(12) 0.4060(10) 0.6401(2)
N4 N 0.1893(15) -0.4072(13) 0.4226(3)
O1 O 0.1138(9) 0.8686(8) 0.70770(19)
O2 O 0.1364(9) 1.0374(8) 0.7645(2)
O3 O 0.4084(10) 0.7544(8) 0.64941(19)
O4 O 0.6872(9) 0.8750(10) 0.6433(2)
O5 O -0.0317(10) 0.6785(8) 0.6237(2)
H2 H -0.1217 0.7410 0.6300
H3 H -0.0798 0.5967 0.6097
C1 C 0.2087(12) 0.9464(10) 0.7364(3)
C2 C 0.4229(12) 0.9482(11) 0.7403(3)
C3 C 0.5550(13) 0.9062(11) 0.7101(3)
C4 C 0.5469(14) 0.8383(11) 0.6642(3)
C5 C 0.7028(15) 1.0042(13) 0.7715(3)
H4 H 0.8005 1.0372 0.7922
C6 C 0.2049(17) 0.2553(13) 0.6536(3)
H5 H 0.1679 0.2420 0.6822
C7 C 0.2100(18) 0.1247(14) 0.6272(3)
H6 H 0.1811 0.0231 0.6383
C8 C 0.2577(14) 0.1379(12) 0.5834(3)
C9 C 0.3169(15) 0.2911(15) 0.5712(4)
H7 H 0.3632 0.3063 0.5436
C10 C 0.3077(15) 0.4204(12) 0.5996(3)
H8 H 0.3423 0.5227 0.5899
C11 C 0.2497(16) -0.0046(13) 0.5543(3)
H9 H 0.2369 -0.1053 0.5677
C12 C 0.2590(15) -0.0036(14) 0.5111(4)
H10 H 0.2803 0.0963 0.4980
C13 C 0.186(2) -0.4270(16) 0.4656(4)
H11 H 0.1696 -0.5316 0.4763
C14 C 0.207(2) -0.2995(15) 0.4966(4)
H12 H 0.1995 -0.3195 0.5267
C15 C 0.2390(16) -0.1442(15) 0.4816(3)
C16 C 0.2455(16) -0.1244(15) 0.4360(4)
H13 H 0.2663 -0.0226 0.4240
C17 C 0.2202(17) -0.2602(16) 0.4088(4)
H14 H 0.2258 -0.2450 0.3785
Mn1A Mn 0.31645(19) 1.13530(18) 0.82125(4)
N1A N -0.0163(11) 0.5118(10) 0.7222(2)
O2A O 0.3636(9) 0.5374(8) 0.7355(2)
loop_
_geom_bond_atom_site_label_1
_geom_bond_atom_site_label_2
_geom_bond_site_symmetry_1
_geom_bond_site_symmetry_2
Mn1 N3 1_555 1_555
N1 C2 1_555 1_555
N2 H1 1_555 1_555
N3 C6 1_555 1_555
N4 C13 1_555 1_555
O1 Mn1 1_555 1_555
O2 C1 1_555 1_555
O3 Mn1 1_555 1_555
O4 C4 1_555 1_555
O5 Mn1 1_555 1_555
H2 O5 1_555 1_555
H3 O5 1_555 1_555
C1 O1 1_555 1_555
C2 C1 1_555 1_555
C3 N2 1_555 1_555
C4 O3 1_555 1_555
C5 N1 1_555 1_555
H4 C5 1_555 1_555
C6 H5 1_555 1_555
C7 C6 1_555 1_555
H6 C7 1_555 1_555
C8 C7 1_555 1_555
C9 C8 1_555 1_555
H7 C9 1_555 1_555
C10 N3 1_555 1_555
H8 C10 1_555 1_555
C11 C8 1_555 1_555
H9 C11 1_555 1_555
C12 C11 1_555 1_555
H10 C12 1_555 1_555
C13 H11 1_555 1_555
C14 C13 1_555 1_555
H12 C14 1_555 1_555
C15 C12 1_555 1_555
C16 C15 1_555 1_555
H13 C16 1_555 1_555
C17 N4 1_555 1_555
H14 C17 1_555 1_555
Mn1A N1 1_555 1_555
N1A Mn1 1_555 1_555
O2A Mn1 1_555 1_555
N2 C5 1_555 1_555
O2 Mn1A 1_555 1_555
C2 C3 1_555 1_555
C3 C4 1_555 1_555
C9 C10 1_555 1_555
C14 C15 1_555 1_555
C16 C17 1_555 1_555

#END
