
#######################################################################
#
#                 Cambridge Crystallographic Data Centre
#                                CCDC 
#
#######################################################################
#
# If this CIF has been generated from an entry in the Cambridge 
# Structural Database, then it will include bibliographic, chemical, 
# crystal, experimental, refinement or atomic coordinate data resulting 
# from the CCDC's data processing and validation procedures.
#
#######################################################################

data_HOTDEB
_symmetry_cell_setting           monoclinic
_symmetry_space_group_name_H-M   'P 21/c'
_symmetry_Int_Tables_number      14
_space_group_name_Hall           '-P 2ybc'
loop_
_symmetry_equiv_pos_site_id
_symmetry_equiv_pos_as_xyz
1 x,y,z
2 -x,1/2+y,1/2-z
3 -x,-y,-z
4 x,1/2-y,1/2+z
_cell_length_a                   10.0294(5)
_cell_length_b                   9.1471(4)
_cell_length_c                   7.5722(4)
_cell_angle_alpha                90
_cell_angle_beta                 97.637(2)
_cell_angle_gamma                90
_cell_volume                     688.511
loop_
_atom_site_label
_atom_site_type_symbol
_atom_site_fract_x
_atom_site_fract_y
_atom_site_fract_z
Fe1 Fe 0.76269(2) 0.74420(2) 0.22025(3)
Fe2 Fe 1.0000 0.5000 0.0000
F1 F 0.77017(11) 0.68563(12) 0.47291(13)
F2 F 0.62647(12) 0.88234(12) 0.23696(17)
F3 F 0.89897(11) 0.88990(12) 0.29248(15)
F4 F 0.63722(11) 0.59326(12) 0.15483(16)
F5 F 0.90328(11) 0.60698(12) 0.19117(15)
C1 C 1.32480(18) 0.7854(2) -0.0749(2)
C2 C 1.1366(2) 0.8082(2) 0.0378(3)
H1 H 1.0637 0.8507 0.0823
N1 N 1.15283(16) 0.66853(17) 0.0197(2)
N2 N 1.43483(18) 0.8145(2) -0.1444(3)
H2 H 1.4819 0.7444 -0.1799
H3 H 1.4599 0.9037 -0.1546
N3 N 1.27281(15) 0.65459(17) -0.0501(2)
H4 H 1.3087 0.5728 -0.0740
N4 N 1.24005(17) 0.88424(17) -0.0168(2)
H5 H 1.2499 0.9776 -0.0148
Fe1B Fe 1.23731(2) 0.25580(2) -0.22025(3)
F1B F 1.22983(11) 0.31437(12) -0.47291(13)
F2B F 1.37353(12) 0.11766(12) -0.23696(17)
F3B F 1.10103(11) 0.11010(12) -0.29248(15)
F4B F 1.36278(11) 0.40674(12) -0.15483(16)
F5B F 1.09672(11) 0.39302(12) -0.19117(15)
C1B C 0.67520(18) 0.2146(2) 0.0749(2)
C2B C 0.8634(2) 0.1918(2) -0.0378(3)
H1B H 0.9363 0.1493 -0.0823
N1B N 0.84717(16) 0.33147(17) -0.0197(2)
N2B N 0.56517(18) 0.1855(2) 0.1444(3)
H2B H 0.5181 0.2556 0.1799
H3B H 0.5401 0.0963 0.1546
N3B N 0.72719(15) 0.34541(17) 0.0501(2)
H4B H 0.6913 0.4272 0.0740
N4B N 0.75995(17) 0.11576(17) 0.0168(2)
H5B H 0.7501 0.0224 0.0148
Fe1A Fe 1.23731(2) 0.24420(2) -0.72025(3)
Fe1C Fe 0.76269(2) 0.75580(2) 0.72025(3)
Fe2A Fe 1.0000 0.0000 -0.5000
Fe2A_2 Fe 1.0000 1.0000 0.5000
F1A F 1.22983(11) 0.18563(12) 0.02709(13)
F1C F 0.77017(11) 0.81437(12) -0.02709(13)
F3A F 1.10103(11) 0.38990(12) 0.20752(15)
F3C F 0.89897(11) 0.61010(12) -0.20752(15)
loop_
_geom_bond_atom_site_label_1
_geom_bond_atom_site_label_2
_geom_bond_site_symmetry_1
_geom_bond_site_symmetry_2
Fe1 F1 1_555 1_555
Fe2 F5 1_555 1_555
F1 Fe1C 1_555 1_555
F2 Fe1 1_555 1_555
F3 Fe1 1_555 1_555
F4 Fe1 1_555 1_555
F5 Fe1 1_555 1_555
C1 N2 1_555 1_555
C2 H1 1_555 1_555
N1 Fe2 1_555 1_555
N2 H2 1_555 1_555
H3 N2 1_555 1_555
N3 C1 1_555 1_555
H4 N3 1_555 1_555
N4 C1 1_555 1_555
H5 N4 1_555 1_555
Fe1B F1B 1_555 1_555
F1B Fe1A 1_555 1_555
F2B Fe1B 1_555 1_555
F3B Fe1B 1_555 1_555
F4B Fe1B 1_555 1_555
F5B Fe2 1_555 1_555
C1B N2B 1_555 1_555
C2B H1B 1_555 1_555
N1B Fe2 1_555 1_555
N2B H2B 1_555 1_555
H3B N2B 1_555 1_555
N3B C1B 1_555 1_555
H4B N3B 1_555 1_555
N4B C1B 1_555 1_555
H5B N4B 1_555 1_555
Fe2A F3B 1_555 1_555
Fe2A_2 F3 1_555 1_555
F1A Fe1B 1_555 1_555
F1C Fe1 1_555 1_555
F3A Fe2 1_555 1_555
F3C Fe2 1_555 1_555
C2 N1 1_555 1_555
C2 N4 1_555 1_555
N1 N3 1_555 1_555
Fe1B F5B 1_555 1_555
C2B N1B 1_555 1_555
C2B N4B 1_555 1_555
N1B N3B 1_555 1_555

#END
