
#######################################################################
#
#                 Cambridge Crystallographic Data Centre
#                                CCDC 
#
#######################################################################
#
# If this CIF has been generated from an entry in the Cambridge 
# Structural Database, then it will include bibliographic, chemical, 
# crystal, experimental, refinement or atomic coordinate data resulting 
# from the CCDC's data processing and validation procedures.
#
#######################################################################

data_HOTNOU
_symmetry_cell_setting           orthorhombic
_symmetry_space_group_name_H-M   'C m c m'
_symmetry_Int_Tables_number      63
_space_group_name_Hall           '-C 2n 2'
loop_
_symmetry_equiv_pos_site_id
_symmetry_equiv_pos_as_xyz
1 x,y,z
2 1/2+x,1/2+y,z
3 -x,-y,1/2+z
4 -x,y,1/2-z
5 x,-y,-z
6 1/2-x,1/2-y,1/2+z
7 1/2-x,1/2+y,1/2-z
8 1/2+x,1/2-y,-z
9 -x,-y,-z
10 1/2-x,1/2-y,-z
11 x,y,1/2-z
12 x,-y,1/2+z
13 -x,y,z
14 1/2+x,1/2+y,1/2-z
15 1/2+x,1/2-y,1/2+z
16 1/2-x,1/2+y,z
_cell_length_a                   18.3090(17)
_cell_length_b                   22.8309(16)
_cell_length_c                   7.1798(11)
_cell_angle_alpha                90
_cell_angle_beta                 90
_cell_angle_gamma                90
_cell_volume                     3001.24
loop_
_atom_site_label
_atom_site_type_symbol
_atom_site_fract_x
_atom_site_fract_y
_atom_site_fract_z
O5 O 0.9002(5) 0.4270(4) 0.6672(18)
H2 H 0.9230 0.4051 0.7500
H3 H 0.9251 0.4288 0.5675
O5J O 0.9002(5) 0.4270(4) 0.8328(18)
O6 O 0.6050(6) 0.4273(4) 0.683(2)
H4 H 0.5752 0.4159 0.5994
O6J O 0.6050(6) 0.4273(4) 0.817(2)
Ag1 Ag 0.76160(5) 0.42501(3) 0.7500
N1 N 0.7612(4) 0.3299(3) 0.7500
N2 N 0.7541(4) 0.5197(3) 0.7500
C8 C 0.8219(5) 0.2973(4) 0.7500
H5 H 0.8667 0.3164 0.7500
C9 C 0.8215(4) 0.2376(3) 0.7500
H6 H 0.8655 0.2173 0.7500
C10 C 0.7567(4) 0.2070(4) 0.7500
C11 C 0.6930(4) 0.2410(3) 0.7500
H7 H 0.6476 0.2229 0.7500
C12 C 0.6974(5) 0.3008(4) 0.7500
H8 H 0.6543 0.3223 0.7500
C13 C 0.8117(5) 0.5532(4) 0.7500
H9 H 0.8571 0.5349 0.7500
C14 C 0.8107(5) 0.6131(4) 0.7500
H10 H 0.8546 0.6336 0.7500
C15 C 0.7529(4) 0.1430(4) 0.7500
C16 C 0.8140(5) 0.1085(4) 0.7500
H11 H 0.8600 0.1259 0.7500
C17 C 0.6918(5) 0.5485(4) 0.7500
H12 H 0.6488 0.5268 0.7500
Ag1F Ag 0.73840(5) -0.07499(3) 0.7500
Ag1F_2 Ag 0.73840(5) 0.92501(3) 0.7500
N1F N 0.7388(4) 0.8299(3) 0.7500
N2F N 0.7459(4) 0.0197(3) 0.7500
C8F C 0.6781(5) 0.7973(4) 0.7500
H5F H 0.6333 0.8164 0.7500
C9F C 0.6785(4) 0.7376(3) 0.7500
H6F H 0.6345 0.7173 0.7500
C10F C 0.7433(4) 0.7070(4) 0.7500
C11F C 0.8070(4) 0.7410(3) 0.7500
H7F H 0.8524 0.7229 0.7500
C12F C 0.8026(5) 0.8008(4) 0.7500
H8F H 0.8457 0.8223 0.7500
C13F C 0.6883(5) 0.0532(4) 0.7500
H9F H 0.6429 0.0349 0.7500
C14F C 0.6893(5) 0.1131(4) 0.7500
H10F H 0.6454 0.1336 0.7500
C15F C 0.7471(4) 0.6430(4) 0.7500
C16F C 0.6860(5) 0.6085(4) 0.7500
H11F H 0.6400 0.6259 0.7500
C17F C 0.8082(5) 0.0485(4) 0.7500
H12F H 0.8512 0.0268 0.7500
O1C O 0.5000 0.8535(5) 0.8444(17)
O3C O 0.5000 0.6710(5) 0.8123(19)
O1 O 0.5000 0.8535(5) 0.6556(17)
O2 O 0.5000 0.9154(5) 0.404(2)
O3 O 0.5000 0.6710(5) 0.6877(19)
O4 O 0.5000 0.6123(6) 0.451(2)
C1 C 0.5000 0.8647(7) 0.480(3)
C2 C 0.5000 0.8157(3) 0.3443(12)
C3 C 0.5000 0.7634(4) 0.4421(14)
H1 H 0.5000 0.7638 0.5716
C4 C 0.5000 0.7110(4) 0.3476(18)
C5 C 0.5000 0.6652(8) 0.505(3)
C6 C 0.5000 0.9740(5) 0.422(2)
C7 C 0.5000 0.5691(7) 0.607(3)
O1C_2 O 0.5000 0.8535(5) -0.1556(17)
O2C O 0.5000 0.9154(5) 0.096(2)
O3C_2 O 0.5000 0.6710(5) -0.1877(19)
O4C O 0.5000 0.6123(6) 0.049(2)
C1C C 0.5000 0.8647(7) 0.020(3)
C2C C 0.5000 0.8157(3) 0.1557(12)
C3C C 0.5000 0.7634(4) 0.0579(14)
C4C C 0.5000 0.7110(4) 0.1524(18)
C5C C 0.5000 0.6652(8) -0.005(3)
C6C C 0.5000 0.9740(5) 0.078(2)
C7C C 0.5000 0.5691(7) -0.107(3)
H13? H 0.5000 0.8511 0.4086
H14? H 0.5000 0.6758 0.4128
H15? H 0.4815 0.9842 0.5432
H16? H 0.4695 0.9911 0.3282
H17? H 0.5489 0.9885 0.4093
H18? H 0.5067 0.5305 0.5571
H19? H 0.4542 0.5710 0.6718
H20? H 0.5391 0.5780 0.6914
loop_
_geom_bond_atom_site_label_1
_geom_bond_atom_site_label_2
_geom_bond_site_symmetry_1
_geom_bond_site_symmetry_2
O1 C1 1_555 1_555
O2 C1 1_555 1_555
O3 C5 1_555 1_555
O4 C5 1_555 1_555
C1 C2 1_555 1_555
C2 C3 1_555 1_555
C3 H1 1_555 1_555
C4 C3 1_555 1_555
C5 C4 1_555 1_555
C6 O2 1_555 1_555
C7 O4 1_555 1_555
O5 H2 1_555 1_555
H2 O5J 1_555 1_555
H3 O5 1_555 1_555
O6 H4 1_555 1_555
Ag1 N1 1_555 1_555
N1 C8 1_555 1_555
N2 Ag1 1_555 1_555
C8 H5 1_555 1_555
C9 C8 1_555 1_555
H6 C9 1_555 1_555
C10 C9 1_555 1_555
C11 C10 1_555 1_555
H7 C11 1_555 1_555
C12 N1 1_555 1_555
H8 C12 1_555 1_555
C13 N2 1_555 1_555
H9 C13 1_555 1_555
C14 C13 1_555 1_555
H10 C14 1_555 1_555
C15 C10 1_555 1_555
C16 C15 1_555 1_555
H11 C16 1_555 1_555
C17 N2 1_555 1_555
H12 C17 1_555 1_555
O1C_2 C1C 1_555 1_555
O2C C1C 1_555 1_555
O3C_2 C5C 1_555 1_555
O4C C5C 1_555 1_555
C1C C2C 1_555 1_555
C2C C2 1_555 1_555
C3C C2C 1_555 1_555
C4C C4 1_555 1_555
C5C C4C 1_555 1_555
C6C O2C 1_555 1_555
C7C O4C 1_555 1_555
O5J O5 1_555 1_555
O6J O6 1_555 1_555
Ag1F N2F 1_555 1_555
Ag1F_2 N1F 1_555 1_555
N1F C8F 1_555 1_555
N2F C13F 1_555 1_555
C8F H5F 1_555 1_555
C9F C8F 1_555 1_555
H6F C9F 1_555 1_555
C10F C9F 1_555 1_555
C11F C10F 1_555 1_555
H7F C11F 1_555 1_555
C12F N1F 1_555 1_555
H8F C12F 1_555 1_555
C13F H9F 1_555 1_555
C14F C15 1_555 1_555
H10F C14F 1_555 1_555
C15F C14 1_555 1_555
C16F C17 1_555 1_555
H11F C16F 1_555 1_555
C17F C16 1_555 1_555
H12F C17F 1_555 1_555
C11 C12 1_555 1_555
C3C C4C 1_555 1_555
N2F C17F 1_555 1_555
C10F C15F 1_555 1_555
C11F C12F 1_555 1_555
C13F C14F 1_555 1_555
C15F C16F 1_555 1_555

#END
