
#######################################################################
#
#                 Cambridge Crystallographic Data Centre
#                                CCDC 
#
#######################################################################
#
# If this CIF has been generated from an entry in the Cambridge 
# Structural Database, then it will include bibliographic, chemical, 
# crystal, experimental, refinement or atomic coordinate data resulting 
# from the CCDC's data processing and validation procedures.
#
#######################################################################

data_HOTREO01
_symmetry_cell_setting           triclinic
_symmetry_space_group_name_H-M   'P -1'
_symmetry_Int_Tables_number      2
_space_group_name_Hall           '-P 1'
loop_
_symmetry_equiv_pos_site_id
_symmetry_equiv_pos_as_xyz
1 x,y,z
2 -x,-y,-z
_cell_length_a                   6.8948(5)
_cell_length_b                   10.7098(7)
_cell_length_c                   12.4332(8)
_cell_angle_alpha                82.1120(10)
_cell_angle_beta                 80.4950(10)
_cell_angle_gamma                72.9560(10)
_cell_volume                     861.868
loop_
_atom_site_label
_atom_site_type_symbol
_atom_site_fract_x
_atom_site_fract_y
_atom_site_fract_z
Cu1 Cu 0.74769(3) 0.281087(16) 0.212428(13)
O1 O 1.07567(18) 0.22111(12) 0.24714(10)
O2 O 0.61957(16) 0.33398(10) 0.36013(8)
O3 O 0.34913(16) 0.35346(10) 0.27742(9)
O4 O 0.72871(17) 0.10085(10) 0.25229(9)
O5 O 0.95006(19) 0.03409(12) 0.37482(10)
N1 N 0.72974(19) 0.46860(12) 0.15494(10)
N2 N 0.79334(19) 0.26266(12) 0.05057(10)
C1 C 0.4252(2) 0.36748(14) 0.35771(12)
C2 C 0.7834(2) 0.37580(14) -0.01467(12)
C3 C 0.5933(2) -0.05948(15) 0.49863(13)
H1 H 0.5510 -0.1366 0.5311
H2 H 0.6890 -0.0472 0.5426
C4 C 0.7019(3) -0.08279(15) 0.38175(13)
H3 H 0.8048 -0.1670 0.3831
H4 H 0.6031 -0.0855 0.3355
C5 C 0.6900(2) 0.56921(15) 0.21638(13)
H5 H 0.6825 0.5519 0.2921
C6 C 0.7434(2) 0.49349(14) 0.04486(12)
C7 C 0.6600(3) 0.69776(16) 0.17093(14)
H6 H 0.6315 0.7656 0.2155
C8 C 0.2918(2) 0.42887(15) 0.45686(12)
H7 H 0.3290 0.5069 0.4664
H8 H 0.3202 0.3677 0.5213
C9 C 0.8454(2) 0.14849(16) -0.10870(13)
H9 H 0.8665 0.0700 -0.1388
C10 C 0.8033(2) 0.02473(14) 0.33363(12)
C11 C 0.6729(2) 0.72411(15) 0.05804(14)
H10 H 0.6532 0.8098 0.0258
C12 C 0.8231(2) 0.15161(15) 0.00378(13)
H11 H 0.8289 0.0739 0.0485
C13 C 0.0633(2) 0.46628(15) 0.45004(12)
H12 H 0.0234 0.3880 0.4447
H13 H 0.0343 0.5248 0.3843
C14 C 0.8356(2) 0.26432(16) -0.17574(13)
H14 H 0.8495 0.2647 -0.2515
C15 C 0.7158(2) 0.62035(15) -0.00621(13)
H15 H 0.7259 0.6355 -0.0821
C16 C 0.8048(2) 0.37975(16) -0.12809(12)
H16 H 0.7987 0.4585 -0.1714
H19 H 1.058(4) 0.164(3) 0.293(2)
H20 H 1.133(4) 0.262(3) 0.266(2)
Cu1A Cu -0.74769(3) 0.718913(16) 0.787572(13)
Cu1A_2 Cu 0.25231(3) -0.281087(16) 0.787572(13)
O1A O -1.07567(18) 0.77889(12) 0.75286(10)
O2A O -0.61957(16) 0.66602(10) 0.63987(8)
O3A O -0.34913(16) 0.64654(10) 0.72258(9)
O4A O 0.27129(17) -0.10085(10) 0.74771(9)
O4A_2 O -0.72871(17) 0.89915(10) 0.74771(9)
O5A O 0.04994(19) -0.03409(12) 0.62518(10)
N1A N -0.72974(19) 0.53140(12) 0.84506(10)
N2A N -0.79334(19) 0.73734(12) 0.94943(10)
C1A C -0.4252(2) 0.63252(14) 0.64229(12)
C2A C -0.7834(2) 0.62420(14) 1.01467(12)
C3A C 0.4067(2) 0.05948(15) 0.50137(13)
H1A H 0.4490 0.1366 0.4689
H2A H 0.3110 0.0472 0.4574
C4A C 0.2981(3) 0.08279(15) 0.61825(13)
H3A H 0.1952 0.1670 0.6169
H4A H 0.3969 0.0855 0.6645
C5A C -0.6900(2) 0.43079(15) 0.78362(13)
H5A H -0.6825 0.4481 0.7079
C6A C -0.7434(2) 0.50651(14) 0.95514(12)
C7A C -0.6600(3) 0.30224(16) 0.82907(14)
H6A H -0.6315 0.2344 0.7845
C8A C -0.2918(2) 0.57113(15) 0.54314(12)
H7A H -0.3290 0.4931 0.5336
H8A H -0.3202 0.6323 0.4787
C9A C -0.8454(2) 0.85151(16) 1.10870(13)
H9A H -0.8665 0.9300 1.1388
C10A C 0.1967(2) -0.02473(14) 0.66637(12)
C11A C -0.6729(2) 0.27589(15) 0.94196(14)
H10A H -0.6532 0.1902 0.9742
C12A C -0.8231(2) 0.84839(15) 0.99622(13)
H11A H -0.8289 0.9261 0.9515
C13A C -0.0633(2) 0.53372(15) 0.54996(12)
H12A H -0.0234 0.6120 0.5553
H13A H -0.0343 0.4752 0.6157
C14A C -0.8356(2) 0.73568(16) 1.17574(13)
H14A H -0.8495 0.7353 1.2515
C15A C -0.7158(2) 0.37965(15) 1.00621(13)
H15A H -0.7259 0.3645 1.0821
C16A C -0.8048(2) 0.62025(16) 1.12809(12)
H16A H -0.7987 0.5415 1.1714
H19A H -1.058(4) 0.836(3) 0.707(2)
H20A H -1.133(4) 0.738(3) 0.734(2)
O6 O 0.7685(2) 0.22369(15) 0.57220(12)
H17 H 0.744(4) 0.244(2) 0.511(2)
H18 H 0.838(5) 0.156(3) 0.571(2)
O7 O 0.4372(2) 0.04219(15) 0.14848(12)
H21 H 0.553(7) 0.066(4) 0.186(3)
H22 H 0.300(5) 0.101(3) 0.184(3)
loop_
_geom_bond_atom_site_label_1
_geom_bond_atom_site_label_2
_geom_bond_site_symmetry_1
_geom_bond_site_symmetry_2
Cu1 O1 1_555 1_555
O1 H19 1_555 1_555
O2 Cu1 1_555 1_555
O3 C1 1_555 1_555
O4 Cu1 1_555 1_555
O5 C10 1_555 1_555
N1 Cu1 1_555 1_555
N2 Cu1 1_555 1_555
C1 O2 1_555 1_555
C2 N2 1_555 1_555
C3 H1 1_555 1_555
H2 C3 1_555 1_555
C4 C3 1_555 1_555
H3 C4 1_555 1_555
H4 C4 1_555 1_555
C5 N1 1_555 1_555
H5 C5 1_555 1_555
C6 N1 1_555 1_555
C7 C5 1_555 1_555
H6 C7 1_555 1_555
C8 C1 1_555 1_555
H7 C8 1_555 1_555
H8 C8 1_555 1_555
C9 H9 1_555 1_555
C10 O4 1_555 1_555
C11 C7 1_555 1_555
H10 C11 1_555 1_555
C12 N2 1_555 1_555
H11 C12 1_555 1_555
C13 C8 1_555 1_555
H12 C13 1_555 1_555
H13 C13 1_555 1_555
C14 C9 1_555 1_555
H14 C14 1_555 1_555
C15 C6 1_555 1_555
H15 C15 1_555 1_555
C16 C2 1_555 1_555
H16 C16 1_555 1_555
O6 H17 1_555 1_555
O7 H21 1_555 1_555
H18 O6 1_555 1_555
H20 O1 1_555 1_555
H22 O7 1_555 1_555
Cu1A O1A 1_555 1_555
Cu1A_2 O4A 1_555 1_555
O1A H19A 1_555 1_555
O2A Cu1A 1_555 1_555
O3A C1A 1_555 1_555
O4A C10A 1_555 1_555
O4A_2 Cu1A 1_555 1_555
O5A C10A 1_555 1_555
N1A Cu1A 1_555 1_555
N2A Cu1A 1_555 1_555
C1A O2A 1_555 1_555
C2A N2A 1_555 1_555
C3A C3 1_555 1_555
H1A C3A 1_555 1_555
H2A C3A 1_555 1_555
C4A C3A 1_555 1_555
H3A C4A 1_555 1_555
H4A C4A 1_555 1_555
C5A N1A 1_555 1_555
H5A C5A 1_555 1_555
C6A N1A 1_555 1_555
C7A C5A 1_555 1_555
H6A C7A 1_555 1_555
C8A C1A 1_555 1_555
H7A C8A 1_555 1_555
H8A C8A 1_555 1_555
C9A H9A 1_555 1_555
C10A C4A 1_555 1_555
C11A C7A 1_555 1_555
H10A C11A 1_555 1_555
C12A N2A 1_555 1_555
H11A C12A 1_555 1_555
C13A C13 1_555 1_555
H12A C13A 1_555 1_555
H13A C13A 1_555 1_555
C14A C9A 1_555 1_555
H14A C14A 1_555 1_555
C15A C6A 1_555 1_555
H15A C15A 1_555 1_555
C16A C2A 1_555 1_555
H16A C16A 1_555 1_555
H20A O1A 1_555 1_555
C2 C6 1_555 1_555
C4 C10 1_555 1_555
C9 C12 1_555 1_555
C11 C15 1_555 1_555
C14 C16 1_555 1_555
C2A C6A 1_555 1_555
C8A C13A 1_555 1_555
C9A C12A 1_555 1_555
C11A C15A 1_555 1_555
C14A C16A 1_555 1_555

#END
