
#######################################################################
#
#                 Cambridge Crystallographic Data Centre
#                                CCDC 
#
#######################################################################
#
# If this CIF has been generated from an entry in the Cambridge 
# Structural Database, then it will include bibliographic, chemical, 
# crystal, experimental, refinement or atomic coordinate data resulting 
# from the CCDC's data processing and validation procedures.
#
#######################################################################

data_HOTVUI
_symmetry_cell_setting           orthorhombic
_symmetry_space_group_name_H-M   'P b c a'
_symmetry_Int_Tables_number      61
_space_group_name_Hall           '-P 2ac 2ab'
loop_
_symmetry_equiv_pos_site_id
_symmetry_equiv_pos_as_xyz
1 x,y,z
2 1/2-x,-y,1/2+z
3 -x,1/2+y,1/2-z
4 1/2+x,1/2-y,-z
5 -x,-y,-z
6 1/2+x,y,1/2-z
7 x,1/2-y,1/2+z
8 1/2-x,1/2+y,z
_cell_length_a                   11.91940(12)
_cell_length_b                   8.91440(10)
_cell_length_c                   15.1025(2)
_cell_angle_alpha                90
_cell_angle_beta                 90
_cell_angle_gamma                90
_cell_volume                     1604.71
loop_
_atom_site_label
_atom_site_type_symbol
_atom_site_fract_x
_atom_site_fract_y
_atom_site_fract_z
Co1 Co 0.5000 0.0000 0.5000
O1 O 0.48429(8) 0.22411(11) 0.46937(8)
O2 O 0.31332(9) 0.29025(13) 0.51336(9)
O3 O 0.66057(9) 0.00025(13) 0.44230(7)
N1 N 0.56896(10) 0.06625(13) 0.62869(8)
C1 C 0.66394(15) 0.00772(19) 0.66023(12)
C2 C 0.71108(19) 0.0527(3) 0.73941(15)
C3 C 0.65912(19) 0.1626(2) 0.78804(13)
C4 C 0.56120(19) 0.2228(2) 0.75664(12)
C5 C 0.51921(15) 0.17250(19) 0.67730(11)
C6 C 0.41096(12) 0.32055(15) 0.48731(9)
C7 C 0.44537(15) 0.48303(17) 0.47666(15)
H1 H 0.6991(16) -0.071(2) 0.6259(12)
H2 H 0.782(3) 0.013(3) 0.7605(19)
H3 H 0.689(2) 0.192(3) 0.8410(17)
H4 H 0.5199(17) 0.294(3) 0.7890(17)
H5 H 0.4532(16) 0.209(2) 0.6561(13)
H6 H 0.7050(18) 0.067(2) 0.4557(13)
H7 H 0.6838(17) -0.088(3) 0.4535(14)
H8 H 0.388(2) 0.552(3) 0.4912(13)
H9 H 0.451(3) 0.503(2) 0.4086(19)
Co1_2 Co 0.5000 1.0000 0.5000
O1D O 0.51571(8) 0.77589(11) 0.53063(8)
O1D_2 O 0.51571(8) -0.22411(11) 0.53063(8)
O2D O 0.68668(9) 0.70975(13) 0.48664(9)
O3D O 0.33943(9) -0.00025(13) 0.55770(7)
N1D N 0.43104(10) -0.06625(13) 0.37131(8)
C1D C 0.33606(15) -0.00772(19) 0.33977(12)
C2D C 0.28892(19) -0.0527(3) 0.26059(15)
C3D C 0.34088(19) -0.1626(2) 0.21196(13)
C4D C 0.43880(19) -0.2228(2) 0.24336(12)
C5D C 0.48079(15) -0.17250(19) 0.32270(11)
C6D C 0.58904(12) 0.67945(15) 0.51269(9)
C7D C 0.55463(15) 0.51697(17) 0.52334(15)
H1D H 0.3009(16) 0.071(2) 0.3741(12)
H2D H 0.218(3) -0.013(3) 0.2395(19)
H3D H 0.311(2) -0.192(3) 0.1590(17)
H4D H 0.4801(17) -0.294(3) 0.2110(17)
H5D H 0.5468(16) -0.209(2) 0.3439(13)
H6D H 0.2950(18) -0.067(2) 0.5443(13)
H7D H 0.3162(17) 0.088(3) 0.5465(14)
H8D H 0.612(2) 0.448(3) 0.5088(13)
H9D H 0.549(3) 0.497(2) 0.5914(19)
loop_
_geom_bond_atom_site_label_1
_geom_bond_atom_site_label_2
_geom_bond_site_symmetry_1
_geom_bond_site_symmetry_2
Co1 O1 1_555 1_555
O1 C6 1_555 1_555
O2 C6 1_555 1_555
O3 Co1 1_555 1_555
N1 Co1 1_555 1_555
C1 N1 1_555 1_555
C2 C1 1_555 1_555
C3 C2 1_555 1_555
C4 C3 1_555 1_555
C5 N1 1_555 1_555
C6 C7 1_555 1_555
C7 H8 1_555 1_555
H1 C1 1_555 1_555
H2 C2 1_555 1_555
H3 C3 1_555 1_555
H4 C4 1_555 1_555
H5 C5 1_555 1_555
H6 O3 1_555 1_555
H7 O3 1_555 1_555
H9 C7 1_555 1_555
Co1_2 O1D 1_555 1_555
O1D C6D 1_555 1_555
O1D_2 Co1 1_555 1_555
O2D C6D 1_555 1_555
O3D Co1 1_555 1_555
N1D Co1 1_555 1_555
C1D N1D 1_555 1_555
C2D C1D 1_555 1_555
C3D C2D 1_555 1_555
C4D C3D 1_555 1_555
C5D N1D 1_555 1_555
C6D C7D 1_555 1_555
C7D C7 1_555 1_555
H1D C1D 1_555 1_555
H2D C2D 1_555 1_555
H3D C3D 1_555 1_555
H4D C4D 1_555 1_555
H5D C5D 1_555 1_555
H6D O3D 1_555 1_555
H7D O3D 1_555 1_555
H8D C7D 1_555 1_555
H9D C7D 1_555 1_555
C4 C5 1_555 1_555
C4D C5D 1_555 1_555

#END
