
#######################################################################
#
#                 Cambridge Crystallographic Data Centre
#                                CCDC 
#
#######################################################################
#
# If this CIF has been generated from an entry in the Cambridge 
# Structural Database, then it will include bibliographic, chemical, 
# crystal, experimental, refinement or atomic coordinate data resulting 
# from the CCDC's data processing and validation procedures.
#
#######################################################################

data_HOVBOL
_symmetry_cell_setting           monoclinic
_symmetry_space_group_name_H-M   'C 2/c'
_symmetry_Int_Tables_number      15
_space_group_name_Hall           '-C 2yn'
loop_
_symmetry_equiv_pos_site_id
_symmetry_equiv_pos_as_xyz
1 x,y,z
2 -x,y,1/2-z
3 1/2+x,1/2+y,z
4 1/2-x,1/2+y,1/2-z
5 -x,-y,-z
6 x,-y,1/2+z
7 1/2-x,1/2-y,-z
8 1/2+x,1/2-y,1/2+z
_cell_length_a                   26.777(3)
_cell_length_b                   7.666(2)
_cell_length_c                   26.595(3)
_cell_angle_alpha                90
_cell_angle_beta                 109.101(2)
_cell_angle_gamma                90
_cell_volume                     5158.65
loop_
_atom_site_label
_atom_site_type_symbol
_atom_site_fract_x
_atom_site_fract_y
_atom_site_fract_z
Zn1 Zn 0.0000 1.01101(5) 0.2500
Zn2 Zn -0.201497(11) 0.05652(4) -0.006427(12)
O1 O -0.01442(8) 0.8809(3) 0.18406(8)
O2 O -0.08892(9) 0.8170(3) 0.19921(9)
O3 O -0.19452(7) 0.3189(2) -0.00144(7)
O4 O -0.22428(7) 0.4965(3) 0.04855(8)
O5 O 0.13913(11) -0.0456(4) 0.03491(15)
O6 O 0.17190(9) 0.2043(4) 0.02862(11)
N1 N 0.05326(8) 1.1955(3) 0.24517(9)
N2 N 0.11377(9) 1.3493(3) 0.22586(9)
N3 N 0.27059(9) 1.4830(3) 0.13361(9)
N4 N 0.30585(9) 1.5116(3) 0.07047(9)
C1 C -0.05808(11) 0.7981(3) 0.17404(11)
C2 C -0.06988(10) 0.6664(3) 0.12991(10)
C3 C -0.12150(10) 0.6132(3) 0.10355(10)
H1 H -0.1493 0.6653 0.1116
C4 C -0.13166(10) 0.4831(3) 0.06550(10)
C5 C -0.18735(9) 0.4277(3) 0.03550(10)
C6 C -0.08973(10) 0.3996(3) 0.05502(10)
H2 H -0.0966 0.3093 0.0303
C7 C -0.03786(10) 0.4502(3) 0.08115(11)
C8 C -0.02871(10) 0.5865(4) 0.11758(11)
H3 H 0.0057 0.6250 0.1341
C9 C 0.00737(10) 0.3608(4) 0.07084(11)
C10 C 0.00845(12) 0.1805(4) 0.06660(14)
H4 H -0.0190 0.1133 0.0704
C11 C 0.05112(12) 0.1007(5) 0.05655(16)
H5 H 0.0517 -0.0200 0.0533
C12 C 0.09246(11) 0.1986(5) 0.05142(12)
C13 C 0.09200(11) 0.3760(5) 0.05673(12)
H6 H 0.1201 0.4423 0.0540
C14 C 0.13818(13) 0.1159(5) 0.03733(14)
C15 C 0.08209(10) 1.2070(3) 0.21386(11)
H7 H 0.0809 1.1280 0.1870
C16 C 0.10425(12) 1.4310(4) 0.26771(12)
H8 H 0.1203 1.5321 0.2849
C17 C 0.06708(11) 1.3356(4) 0.27891(12)
H9 H 0.0529 1.3609 0.3056
C18 C 0.15385(10) 1.3908(4) 0.20274(11)
C19 C 0.18537(11) 1.2544(4) 0.19700(11)
H10 H 0.1799 1.1437 0.2085
C20 C 0.22532(11) 1.2782(4) 0.17434(11)
C21 C 0.23134(11) 1.4460(4) 0.15850(11)
C22 C 0.20017(11) 1.5829(4) 0.16424(12)
H11 H 0.2058 1.6934 0.1527
C23 C 0.16022(11) 1.5597(4) 0.18703(12)
C24 C 0.12683(14) 1.7147(4) 0.19134(15)
H12 H 0.0923 1.6753 0.1896
H13 H 0.1238 1.7939 0.1625
H14 H 0.1432 1.7731 0.2246
C25 C 0.25848(14) 1.1272(5) 0.16827(14)
H15 H 0.2442 1.0806 0.1329
H16 H 0.2584 1.0384 0.1937
H17 H 0.2941 1.1660 0.1743
C26 C 0.26648(11) 1.4429(4) 0.08331(11)
H18 H 0.2395 1.3759 0.0606
C27 C 0.33656(11) 1.5983(5) 0.11484(12)
H19 H 0.3675 1.6585 0.1176
C28 C 0.31500(13) 1.5831(5) 0.15386(13)
H20 H 0.3278 1.6310 0.1878
C29 C 0.04967(11) 0.4568(4) 0.06615(12)
H21 H 0.0495 0.5775 0.0694
Zn2A Zn 0.201497(11) 0.05652(4) 0.506427(12)
O1A O 0.01442(8) 0.8809(3) 0.31594(8)
O2A O 0.08892(9) 0.8170(3) 0.30079(9)
O3A O 0.19452(7) 0.3189(2) 0.50144(7)
O4A O 0.22428(7) 0.4965(3) 0.45145(8)
O5A O -0.13913(11) -0.0456(4) 0.46509(15)
O6A O -0.17190(9) 0.2043(4) 0.47138(11)
N1A N -0.05326(8) 1.1955(3) 0.25483(9)
N2A N -0.11377(9) 1.3493(3) 0.27414(9)
N3A N -0.27059(9) 1.4830(3) 0.36639(9)
N4A N -0.30585(9) 1.5116(3) 0.42953(9)
C1A C 0.05808(11) 0.7981(3) 0.32596(11)
C2A C 0.06988(10) 0.6664(3) 0.37009(10)
C3A C 0.12150(10) 0.6132(3) 0.39645(10)
H1A H 0.1493 0.6653 0.3884
C4A C 0.13166(10) 0.4831(3) 0.43450(10)
C5A C 0.18735(9) 0.4277(3) 0.46450(10)
C6A C 0.08973(10) 0.3996(3) 0.44498(10)
H2A H 0.0966 0.3093 0.4697
C7A C 0.03786(10) 0.4502(3) 0.41885(11)
C8A C 0.02871(10) 0.5865(4) 0.38242(11)
H3A H -0.0057 0.6250 0.3659
C9A C -0.00737(10) 0.3608(4) 0.42916(11)
C10A C -0.00845(12) 0.1805(4) 0.43340(14)
H4A H 0.0190 0.1133 0.4296
C11A C -0.05112(12) 0.1007(5) 0.44345(16)
H5A H -0.0517 -0.0200 0.4467
C12A C -0.09246(11) 0.1986(5) 0.44858(12)
C13A C -0.09200(11) 0.3760(5) 0.44327(12)
H6A H -0.1201 0.4423 0.4460
C14A C -0.13818(13) 0.1159(5) 0.46267(14)
C15A C -0.08209(10) 1.2070(3) 0.28614(11)
H7A H -0.0809 1.1280 0.3130
C16A C -0.10425(12) 1.4310(4) 0.23229(12)
H8A H -0.1203 1.5321 0.2151
C17A C -0.06708(11) 1.3356(4) 0.22109(12)
H9A H -0.0529 1.3609 0.1944
C18A C -0.15385(10) 1.3908(4) 0.29726(11)
C19A C -0.18537(11) 1.2544(4) 0.30300(11)
H10A H -0.1799 1.1437 0.2915
C20A C -0.22532(11) 1.2782(4) 0.32566(11)
C21A C -0.23134(11) 1.4460(4) 0.34150(11)
C22A C -0.20017(11) 1.5829(4) 0.33576(12)
H11A H -0.2058 1.6934 0.3473
C23A C -0.16022(11) 1.5597(4) 0.31297(12)
C24A C -0.12683(14) 1.7147(4) 0.30866(15)
H12A H -0.0923 1.6753 0.3104
H13A H -0.1238 1.7939 0.3375
H14A H -0.1432 1.7731 0.2754
C25A C -0.25848(14) 1.1272(5) 0.33173(14)
H15A H -0.2442 1.0806 0.3671
H16A H -0.2584 1.0384 0.3063
H17A H -0.2941 1.1660 0.3257
C26A C -0.26648(11) 1.4429(4) 0.41669(11)
H18A H -0.2395 1.3759 0.4394
C27A C -0.33656(11) 1.5983(5) 0.38516(12)
H19A H -0.3675 1.6585 0.3824
C28A C -0.31500(13) 1.5831(5) 0.34614(13)
H20A H -0.3278 1.6310 0.3122
C29A C -0.04967(11) 0.4568(4) 0.43385(12)
H21A H -0.0495 0.5775 0.4306
Zn2B Zn 0.298503(11) 1.55652(4) -0.006427(12)
Zn2C Zn -0.298503(11) 1.55652(4) 0.506427(12)
Zn2D Zn 0.201497(11) -0.05652(4) 0.006427(12)
Zn2E Zn -0.201497(11) -0.05652(4) 0.493573(12)
Zn2F Zn -0.298503(11) 0.44348(4) 0.006427(12)
Zn2G Zn 0.298503(11) 0.44348(4) 0.493573(12)
O4F O -0.27572(7) 0.0035(3) -0.04855(8)
O4G O 0.27572(7) 0.0035(3) 0.54855(8)
O5D O -0.13913(11) 0.0456(4) -0.03491(15)
O5E O 0.13913(11) 0.0456(4) 0.53491(15)
O6D O -0.17190(9) -0.2043(4) -0.02862(11)
O6E O 0.17190(9) -0.2043(4) 0.52862(11)
N4B N -0.19415(9) 0.0116(3) 0.07047(9)
N4C N 0.19415(9) 0.0116(3) 0.42953(9)
loop_
_geom_bond_atom_site_label_1
_geom_bond_atom_site_label_2
_geom_bond_site_symmetry_1
_geom_bond_site_symmetry_2
Zn1 O1 1_555 1_555
Zn2 O3 1_555 1_555
O1 C1 1_555 1_555
O2 C1 1_555 1_555
O3 C5 1_555 1_555
O4 C5 1_555 1_555
O5 C14 1_555 1_555
O6 C14 1_555 1_555
N1 Zn1 1_555 1_555
N2 C15 1_555 1_555
N3 C21 1_555 1_555
N4 C26 1_555 1_555
C1 C2 1_555 1_555
C2 C3 1_555 1_555
C3 H1 1_555 1_555
C4 C3 1_555 1_555
C5 C4 1_555 1_555
C6 C4 1_555 1_555
H2 C6 1_555 1_555
C7 C6 1_555 1_555
C8 C2 1_555 1_555
H3 C8 1_555 1_555
C9 C7 1_555 1_555
C10 C9 1_555 1_555
H4 C10 1_555 1_555
C11 C10 1_555 1_555
H5 C11 1_555 1_555
C12 C11 1_555 1_555
C13 C12 1_555 1_555
H6 C13 1_555 1_555
C14 C12 1_555 1_555
C15 N1 1_555 1_555
H7 C15 1_555 1_555
C16 N2 1_555 1_555
H8 C16 1_555 1_555
C17 N1 1_555 1_555
H9 C17 1_555 1_555
C18 N2 1_555 1_555
C19 C18 1_555 1_555
H10 C19 1_555 1_555
C20 C19 1_555 1_555
C21 C20 1_555 1_555
C22 C21 1_555 1_555
H11 C22 1_555 1_555
C23 C18 1_555 1_555
C24 C23 1_555 1_555
H12 C24 1_555 1_555
H13 C24 1_555 1_555
H14 C24 1_555 1_555
C25 C20 1_555 1_555
H15 C25 1_555 1_555
H16 C25 1_555 1_555
H17 C25 1_555 1_555
C26 N3 1_555 1_555
H18 C26 1_555 1_555
C27 N4 1_555 1_555
H19 C27 1_555 1_555
C28 N3 1_555 1_555
H20 C28 1_555 1_555
C29 C9 1_555 1_555
H21 C29 1_555 1_555
Zn2A O3A 1_555 1_555
O1A Zn1 1_555 1_555
O2A C1A 1_555 1_555
O3A C5A 1_555 1_555
O4A C5A 1_555 1_555
O5A C14A 1_555 1_555
O6A C14A 1_555 1_555
N1A Zn1 1_555 1_555
N2A C15A 1_555 1_555
N3A C21A 1_555 1_555
N4A C26A 1_555 1_555
C1A O1A 1_555 1_555
C2A C1A 1_555 1_555
C3A C2A 1_555 1_555
H1A C3A 1_555 1_555
C4A C3A 1_555 1_555
C5A C4A 1_555 1_555
C6A C4A 1_555 1_555
H2A C6A 1_555 1_555
C7A C6A 1_555 1_555
C8A C2A 1_555 1_555
H3A C8A 1_555 1_555
C9A C7A 1_555 1_555
C10A C9A 1_555 1_555
H4A C10A 1_555 1_555
C11A C10A 1_555 1_555
H5A C11A 1_555 1_555
C12A C11A 1_555 1_555
C13A C12A 1_555 1_555
H6A C13A 1_555 1_555
C14A C12A 1_555 1_555
C15A N1A 1_555 1_555
H7A C15A 1_555 1_555
C16A N2A 1_555 1_555
H8A C16A 1_555 1_555
C17A N1A 1_555 1_555
H9A C17A 1_555 1_555
C18A N2A 1_555 1_555
C19A C18A 1_555 1_555
H10A C19A 1_555 1_555
C20A C19A 1_555 1_555
C21A C20A 1_555 1_555
C22A C21A 1_555 1_555
H11A C22A 1_555 1_555
C23A C18A 1_555 1_555
C24A C23A 1_555 1_555
H12A C24A 1_555 1_555
H13A C24A 1_555 1_555
H14A C24A 1_555 1_555
C25A C20A 1_555 1_555
H15A C25A 1_555 1_555
H16A C25A 1_555 1_555
H17A C25A 1_555 1_555
C26A N3A 1_555 1_555
H18A C26A 1_555 1_555
C27A N4A 1_555 1_555
H19A C27A 1_555 1_555
C28A N3A 1_555 1_555
H20A C28A 1_555 1_555
C29A C9A 1_555 1_555
H21A C29A 1_555 1_555
Zn2B N4 1_555 1_555
Zn2C N4A 1_555 1_555
Zn2D O5 1_555 1_555
Zn2E O5A 1_555 1_555
Zn2F O4 1_555 1_555
Zn2G O4A 1_555 1_555
O4F Zn2 1_555 1_555
O4G Zn2A 1_555 1_555
O5D Zn2 1_555 1_555
O5E Zn2A 1_555 1_555
O6D Zn2 1_555 1_555
O6E Zn2A 1_555 1_555
N4B Zn2 1_555 1_555
N4C Zn2A 1_555 1_555
O6 Zn2D 1_555 1_555
C7 C8 1_555 1_555
C13 C29 1_555 1_555
C16 C17 1_555 1_555
C22 C23 1_555 1_555
C27 C28 1_555 1_555
O6A Zn2E 1_555 1_555
C7A C8A 1_555 1_555
C13A C29A 1_555 1_555
C16A C17A 1_555 1_555
C22A C23A 1_555 1_555
C27A C28A 1_555 1_555

#END
