
#######################################################################
#
#                 Cambridge Crystallographic Data Centre
#                                CCDC 
#
#######################################################################
#
# If this CIF has been generated from an entry in the Cambridge 
# Structural Database, then it will include bibliographic, chemical, 
# crystal, experimental, refinement or atomic coordinate data resulting 
# from the CCDC's data processing and validation procedures.
#
#######################################################################

data_HOVFII
_symmetry_cell_setting           orthorhombic
_symmetry_space_group_name_H-M   'P b c a'
_symmetry_Int_Tables_number      61
_space_group_name_Hall           '-P 2ac 2ab'
loop_
_symmetry_equiv_pos_site_id
_symmetry_equiv_pos_as_xyz
1 x,y,z
2 1/2-x,-y,1/2+z
3 -x,1/2+y,1/2-z
4 1/2+x,1/2-y,-z
5 -x,-y,-z
6 1/2+x,y,1/2-z
7 x,1/2-y,1/2+z
8 1/2-x,1/2+y,z
_cell_length_a                   7.9988(6)
_cell_length_b                   15.8290(11)
_cell_length_c                   17.9580(13)
_cell_angle_alpha                90
_cell_angle_beta                 90
_cell_angle_gamma                90
_cell_volume                     2273.72
loop_
_atom_site_label
_atom_site_type_symbol
_atom_site_fract_x
_atom_site_fract_y
_atom_site_fract_z
C1 C 0.8877(5) 0.5931(3) 0.1675(2)
C2 C 0.7999(5) 0.5347(2) 0.1149(2)
C3 C 0.6898(6) 0.4751(3) 0.1419(2)
H1 H 0.6678 0.4727 0.1927
C4 C 0.6117(5) 0.4189(2) 0.0943(2)
H2 H 0.5378 0.3788 0.1129
C5 C 0.6442(4) 0.4228(2) 0.0190(2)
C6 C 0.7517(5) 0.4830(3) -0.0093(2)
H3 H 0.7716 0.4863 -0.0602
C7 C 0.8295(5) 0.5386(3) 0.0392(2)
H4 H 0.9026 0.5791 0.0205
C8 C 0.4666(7) 0.2955(3) -0.0108(2)
H5 H 0.4438 0.2764 0.0371
C9 C 0.4113(6) 0.2616(3) -0.0748(2)
H6 H 0.3424 0.2145 -0.0784
C10 C 0.5625(4) 0.3671(2) -0.10469(19)
H7 H 0.6196 0.4073 -0.1326
Cd1 Cd 0.40211(4) 0.301630(18) -0.253350(12)
N1 N 0.5639(4) 0.3642(2) -0.02992(16)
N2 N 0.4713(4) 0.30670(19) -0.13378(16)
N3 N 0.1891(5) 0.1685(2) -0.2989(2)
O1 O 1.0203(4) 0.6273(2) 0.14647(17)
O2 O 0.8280(4) 0.6056(2) 0.23160(15)
O3 O 0.3102(4) 0.1959(2) -0.3355(2)
O4 O 0.1588(5) 0.2069(2) -0.23817(18)
O5 O 0.1014(6) 0.1089(3) -0.3203(3)
Cd1A Cd 1.09789(4) 0.698370(18) 0.246650(12)
Cd1D Cd 0.59789(4) 0.698370(18) 0.253350(12)
Cd1E Cd -0.09789(4) 0.301630(18) -0.246650(12)
O1A O 0.4797(4) 0.3727(2) -0.35353(17)
O2A O 0.6720(4) 0.3944(2) -0.26840(15)
O2D O 0.1720(4) 0.3944(2) -0.23160(15)
O4E O 0.6588(5) 0.2069(2) -0.26183(18)
loop_
_geom_bond_atom_site_label_1
_geom_bond_atom_site_label_2
_geom_bond_site_symmetry_1
_geom_bond_site_symmetry_2
C1 C2 1_555 1_555
C2 C3 1_555 1_555
C3 H1 1_555 1_555
C4 C3 1_555 1_555
H2 C4 1_555 1_555
C5 C4 1_555 1_555
C6 C5 1_555 1_555
H3 C6 1_555 1_555
C7 C2 1_555 1_555
H4 C7 1_555 1_555
C8 H5 1_555 1_555
C9 C8 1_555 1_555
H6 C9 1_555 1_555
C10 H7 1_555 1_555
Cd1 N2 1_555 1_555
N1 C5 1_555 1_555
N2 C9 1_555 1_555
N3 O3 1_555 1_555
O1 C1 1_555 1_555
O2 C1 1_555 1_555
O3 Cd1 1_555 1_555
O4 Cd1 1_555 1_555
O5 N3 1_555 1_555
Cd1A O1 1_555 1_555
Cd1D O2 1_555 1_555
Cd1E O4 1_555 1_555
O1A Cd1 1_555 1_555
O2A Cd1 1_555 1_555
O2D Cd1 1_555 1_555
O4E Cd1 1_555 1_555
C6 C7 1_555 1_555
C8 N1 1_555 1_555
C10 N1 1_555 1_555
C10 N2 1_555 1_555
N3 O4 1_555 1_555
O2 Cd1A 1_555 1_555
Cd1E O2D 1_555 1_555

#END
