
#######################################################################
#
#                 Cambridge Crystallographic Data Centre
#                                CCDC 
#
#######################################################################
#
# If this CIF has been generated from an entry in the Cambridge 
# Structural Database, then it will include bibliographic, chemical, 
# crystal, experimental, refinement or atomic coordinate data resulting 
# from the CCDC's data processing and validation procedures.
#
#######################################################################

data_HOVPUF
_symmetry_cell_setting           orthorhombic
_symmetry_space_group_name_H-M   'P b a n'
_symmetry_Int_Tables_number      50
_space_group_name_Hall           '-P 2ab 2b'
loop_
_symmetry_equiv_pos_site_id
_symmetry_equiv_pos_as_xyz
1 x,y,z
2 1/2-x,1/2-y,z
3 x,1/2-y,-z
4 1/2-x,y,-z
5 -x,-y,-z
6 1/2+x,1/2+y,-z
7 -x,1/2+y,z
8 1/2+x,-y,z
_cell_length_a                   8.161(3)
_cell_length_b                   13.577(3)
_cell_length_c                   11.437(4)
_cell_angle_alpha                90
_cell_angle_beta                 90
_cell_angle_gamma                90
_cell_volume                     1267.24
loop_
_atom_site_label
_atom_site_type_symbol
_atom_site_fract_x
_atom_site_fract_y
_atom_site_fract_z
Cl1 Cl 0.2500 0.2500 0.21573(16)
Co1 Co 0.7500 0.2500 0.0000
O1 O 0.4912(7) 0.2500 0.0000
H1 H 0.435(8) 0.252(6) -0.054(5)
N1 N 0.7474(5) 0.3599(3) 0.1345(3)
C1 C 0.5794(6) 0.4737(4) 0.3962(4)
C2 C 0.5200(7) 0.4024(4) 0.4714(4)
H2 H 0.5338 0.3349 0.4523
C3 C 0.4410(7) 0.4277(4) 0.5741(5)
H3 H 0.4005 0.3777 0.6244
C4 C 0.6546(6) 0.3574(4) 0.2312(4)
H4 H 0.5928 0.3021 0.2564
C5 C 0.8125(7) 0.4505(4) 0.1328(4)
H5 H 0.8867 0.4735 0.0749
C6 C 0.6614(5) 0.4450(3) 0.2879(4)
H6 H 0.7850 0.5718 0.2403
N2 N 0.7591(7) 0.5049(4) 0.2242(4)
H1B H 0.435(8) 0.248(6) 0.054(5)
N1D N 0.2526(5) 0.6401(3) 0.8655(3)
C1D C 0.4206(6) 0.5263(4) 0.6038(4)
C2D C 0.4800(7) 0.5976(4) 0.5286(4)
H2D H 0.4662 0.6651 0.5477
C3D C 0.5590(7) 0.5723(4) 0.4259(5)
H3D H 0.5995 0.6223 0.3756
C4D C 0.3454(6) 0.6426(4) 0.7688(4)
H4D H 0.4072 0.6979 0.7436
C5D C 0.1875(7) 0.5495(4) 0.8672(4)
H5D H 0.1133 0.5265 0.9251
C6D C 0.3386(5) 0.5550(3) 0.7121(4)
H6D H 0.2150 0.4282 0.7597
N2D N 0.2409(7) 0.4951(4) 0.7758(4)
O1A O 1.0088(7) 0.2500 0.0000
H1A H 1.065(8) 0.248(6) -0.054(5)
N1A N 0.7526(5) 0.1401(3) 0.1345(3)
C1A C 0.9206(6) 0.0263(4) 0.3962(4)
C2A C 0.9800(7) 0.0976(4) 0.4714(4)
H2A H 0.9662 0.1651 0.4523
C3A C 1.0590(7) 0.0723(4) 0.5741(5)
H3A H 1.0995 0.1223 0.6244
C4A C 0.8454(6) 0.1426(4) 0.2312(4)
H4A H 0.9072 0.1979 0.2564
C5A C 0.6875(7) 0.0495(4) 0.1328(4)
H5A H 0.6133 0.0265 0.0749
C6A C 0.8386(5) 0.0550(3) 0.2879(4)
H6A H 0.7150 -0.0718 0.2403
N2A N 0.7409(7) -0.0049(4) 0.2242(4)
H1C H 1.065(8) 0.252(6) 0.054(5)
N1E N 1.2474(5) -0.1401(3) 0.8655(3)
C1E C 1.0794(6) -0.0263(4) 0.6038(4)
C2E C 1.0200(7) -0.0976(4) 0.5286(4)
H2E H 1.0338 -0.1651 0.5477
C3E C 0.9410(7) -0.0723(4) 0.4259(5)
H3E H 0.9005 -0.1223 0.3756
C4E C 1.1546(6) -0.1426(4) 0.7688(4)
H4E H 1.0928 -0.1979 0.7436
C5E C 1.3125(7) -0.0495(4) 0.8672(4)
H5E H 1.3867 -0.0265 0.9251
C6E C 1.1614(5) -0.0550(3) 0.7121(4)
H6E H 1.2850 0.0718 0.7597
N2E N 1.2591(7) 0.0049(4) 0.7758(4)
Co1F Co 0.2500 0.7500 1.0000
Co1F_2 Co 1.2500 -0.2500 1.0000
N1B N 0.7474(5) 0.1401(3) -0.1345(3)
N1C N 0.7526(5) 0.3599(3) -0.1345(3)
C7? C 0.7591(7) 0.5049(4) 0.2242(4)
N3? N 0.6614(5) 0.4450(3) 0.2879(4)
loop_
_geom_bond_atom_site_label_1
_geom_bond_atom_site_label_2
_geom_bond_site_symmetry_1
_geom_bond_site_symmetry_2
Co1 O1 1_555 1_555
O1 H1 1_555 1_555
N1 Co1 1_555 1_555
C1 C2 1_555 1_555
C2 H2 1_555 1_555
C3 C2 1_555 1_555
H3 C3 1_555 1_555
C4 N1 1_555 1_555
H4 C4 1_555 1_555
C5 N1 1_555 1_555
H5 C5 1_555 1_555
C6 C1 1_555 1_555
H6 N2 1_555 1_555
N2 C5 1_555 1_555
H1B O1 1_555 1_555
N1D C4D 1_555 1_555
C1D C3 1_555 1_555
C2D C1D 1_555 1_555
H2D C2D 1_555 1_555
C3D C1 1_555 1_555
H3D C3D 1_555 1_555
C4D H4D 1_555 1_555
C5D N1D 1_555 1_555
H5D C5D 1_555 1_555
C6D C1D 1_555 1_555
H6D N2D 1_555 1_555
N2D C5D 1_555 1_555
O1A Co1 1_555 1_555
H1A O1A 1_555 1_555
N1A Co1 1_555 1_555
C1A C2A 1_555 1_555
C2A H2A 1_555 1_555
C3A C2A 1_555 1_555
H3A C3A 1_555 1_555
C4A N1A 1_555 1_555
H4A C4A 1_555 1_555
C5A N1A 1_555 1_555
H5A C5A 1_555 1_555
C6A C1A 1_555 1_555
H6A N2A 1_555 1_555
N2A C5A 1_555 1_555
H1C O1A 1_555 1_555
N1E C4E 1_555 1_555
C1E C3A 1_555 1_555
C2E C1E 1_555 1_555
H2E C2E 1_555 1_555
C3E C1A 1_555 1_555
H3E C3E 1_555 1_555
C4E H4E 1_555 1_555
C5E N1E 1_555 1_555
H5E C5E 1_555 1_555
C6E C1E 1_555 1_555
H6E N2E 1_555 1_555
N2E C5E 1_555 1_555
Co1F N1D 1_555 1_555
Co1F_2 N1E 1_555 1_555
N1B Co1 1_555 1_555
N1C Co1 1_555 1_555
C4 C6 1_555 1_555
C6 N2 1_555 1_555
C2D C3D 1_555 1_555
C4D C6D 1_555 1_555
C6D N2D 1_555 1_555
C4A C6A 1_555 1_555
C6A N2A 1_555 1_555
C2E C3E 1_555 1_555
C4E C6E 1_555 1_555
C6E N2E 1_555 1_555

#END
