
#######################################################################
#
#                 Cambridge Crystallographic Data Centre
#                                CCDC 
#
#######################################################################
#
# If this CIF has been generated from an entry in the Cambridge 
# Structural Database, then it will include bibliographic, chemical, 
# crystal, experimental, refinement or atomic coordinate data resulting 
# from the CCDC's data processing and validation procedures.
#
#######################################################################

data_HOVQOY
_symmetry_cell_setting           monoclinic
_symmetry_space_group_name_H-M   'P 21/c'
_symmetry_Int_Tables_number      14
_space_group_name_Hall           '-P 2ybc'
loop_
_symmetry_equiv_pos_site_id
_symmetry_equiv_pos_as_xyz
1 x,y,z
2 x,1/2-y,1/2+z
3 -x,-y,-z
4 -x,1/2+y,1/2-z
_cell_length_a                   7.9424(6)
_cell_length_b                   8.9306(6)
_cell_length_c                   12.3017(8)
_cell_angle_alpha                90
_cell_angle_beta                 101.445(6)
_cell_angle_gamma                90
_cell_volume                     855.214
loop_
_atom_site_label
_atom_site_type_symbol
_atom_site_fract_x
_atom_site_fract_y
_atom_site_fract_z
Cu1 Cu 0.21273(2) 0.55274(2) 0.565584(14)
O1 O 0.02923(15) 0.43216(14) 0.60700(10)
N1 N 0.0564(2) 0.3985(2) 0.71054(15)
O2 O 0.1879(2) 0.4521(2) 0.76374(12)
O3 O 0.33745(13) 0.37495(12) 0.52268(9)
C1 C 0.47793(19) 0.41711(15) 0.49766(12)
N2 N 0.40301(16) 0.66203(14) 0.53179(10)
C2 C 0.4004(2) 0.82394(17) 0.54007(13)
H1 H 0.3571 0.8678 0.4678
H2 H 0.5154 0.8618 0.5677
C3 C 0.28234(19) 0.86417(16) 0.62060(12)
C4 C 0.2274(3) 1.02778(19) 0.6049(2)
H3 H 0.1714 1.0440 0.5292
H4 H 0.3268 1.0911 0.6226
H5 H 0.1496 1.0512 0.6530
C5 C 0.3724(2) 0.8334(2) 0.73940(14)
H6 H 0.4056 0.7300 0.7468
H7 H 0.2958 0.8554 0.7886
H8 H 0.4727 0.8955 0.7578
N3 N 0.13138(16) 0.76115(14) 0.59532(11)
H9 H 0.0566 0.7945 0.5355
H10 H 0.0774 0.7587 0.6531
Cu1B Cu -0.21273(2) 0.44726(2) 0.434416(14)
O1B O -0.02923(15) 0.56784(14) 0.39300(10)
C1B C 0.52207(19) 0.58289(15) 0.50234(12)
O3B O 0.66255(13) 0.62505(12) 0.47732(9)
Cu1B_2 Cu 0.78727(2) 0.44726(2) 0.434416(14)
O1B_2 O 0.97077(15) 0.56784(14) 0.39300(10)
O1_2 O 1.02923(15) 0.43216(14) 0.60700(10)
O2B O 0.8121(2) 0.5479(2) 0.23626(12)
N1B N 0.9436(2) 0.6015(2) 0.28946(15)
Cu1_2 Cu 1.21273(2) 0.55274(2) 0.565584(14)
N2B N 0.59699(16) 0.33797(14) 0.46821(10)
C2B C 0.5996(2) 0.17606(17) 0.45993(13)
H1B H 0.6429 0.1322 0.5322
H2B H 0.4846 0.1382 0.4323
C3B C 0.71766(19) 0.13583(16) 0.37940(12)
C4B C 0.7726(3) -0.02778(19) 0.3951(2)
H3B H 0.8286 -0.0440 0.4708
H4B H 0.6732 -0.0911 0.3774
H5B H 0.8504 -0.0512 0.3470
C5B C 0.6276(2) 0.1666(2) 0.26060(14)
H6B H 0.5944 0.2700 0.2532
H7B H 0.7042 0.1446 0.2114
H8B H 0.5273 0.1045 0.2422
N3B N 0.86862(16) 0.23885(14) 0.40468(11)
H9B H 0.9434 0.2055 0.4645
H10B H 0.9226 0.2413 0.3469
loop_
_geom_bond_atom_site_label_1
_geom_bond_atom_site_label_2
_geom_bond_site_symmetry_1
_geom_bond_site_symmetry_2
Cu1 O1 1_555 1_555
O1 N1 1_555 1_555
N1 O2 1_555 1_555
O2 Cu1 1_555 1_555
O3 Cu1 1_555 1_555
C1 O3 1_555 1_555
N2 Cu1 1_555 1_555
C2 N2 1_555 1_555
H1 C2 1_555 1_555
H2 C2 1_555 1_555
C3 C2 1_555 1_555
C4 C3 1_555 1_555
H3 C4 1_555 1_555
H4 C4 1_555 1_555
H5 C4 1_555 1_555
C5 C3 1_555 1_555
H6 C5 1_555 1_555
H7 C5 1_555 1_555
H8 C5 1_555 1_555
N3 Cu1 1_555 1_555
H9 N3 1_555 1_555
H10 N3 1_555 1_555
Cu1B O1 1_555 1_555
O1B Cu1 1_555 1_555
C1B C1 1_555 1_555
O3B C1B 1_555 1_555
Cu1B_2 O3B 1_555 1_555
O1B_2 Cu1B_2 1_555 1_555
O1_2 Cu1B_2 1_555 1_555
O2B Cu1B_2 1_555 1_555
N1B O1B_2 1_555 1_555
Cu1_2 O1B_2 1_555 1_555
N2B C1 1_555 1_555
C2B N2B 1_555 1_555
H1B C2B 1_555 1_555
H2B C2B 1_555 1_555
C3B C2B 1_555 1_555
C4B C3B 1_555 1_555
H3B C4B 1_555 1_555
H4B C4B 1_555 1_555
H5B C4B 1_555 1_555
C5B C3B 1_555 1_555
H6B C5B 1_555 1_555
H7B C5B 1_555 1_555
H8B C5B 1_555 1_555
N3B Cu1B_2 1_555 1_555
H9B N3B 1_555 1_555
H10B N3B 1_555 1_555
N2 C1B 1_555 1_555
C3 N3 1_555 1_555
Cu1B O1B 1_555 1_555
Cu1B_2 N2B 1_555 1_555
O1_2 Cu1_2 1_555 1_555
O2B N1B 1_555 1_555
C3B N3B 1_555 1_555

#END
