
#######################################################################
#
#                 Cambridge Crystallographic Data Centre
#                                CCDC 
#
#######################################################################
#
# If this CIF has been generated from an entry in the Cambridge 
# Structural Database, then it will include bibliographic, chemical, 
# crystal, experimental, refinement or atomic coordinate data resulting 
# from the CCDC's data processing and validation procedures.
#
#######################################################################

data_HOVQOA
_symmetry_cell_setting           monoclinic
_symmetry_space_group_name_H-M   'C 2/c'
_symmetry_Int_Tables_number      15
_space_group_name_Hall           '-C 2yn'
loop_
_symmetry_equiv_pos_site_id
_symmetry_equiv_pos_as_xyz
1 x,y,z
2 -x,y,1/2-z
3 1/2+x,1/2+y,z
4 1/2-x,1/2+y,1/2-z
5 -x,-y,-z
6 x,-y,1/2+z
7 1/2-x,1/2-y,-z
8 1/2+x,1/2-y,1/2+z
_cell_length_a                   14.5925(16)
_cell_length_b                   17.5765(19)
_cell_length_c                   11.8133(13)
_cell_angle_alpha                90
_cell_angle_beta                 119.787(2)
_cell_angle_gamma                90
_cell_volume                     2629.61
loop_
_atom_site_label
_atom_site_type_symbol
_atom_site_fract_x
_atom_site_fract_y
_atom_site_fract_z
Cu1 Cu 0.20323(4) -0.00911(3) 0.81538(5)
Cu2 Cu 0.0000 0.27027(3) 0.2500
O1 O 0.2943(3) -0.13689(17) 0.8530(3)
O2 O 0.3525(4) -0.2022(2) 0.7434(4)
O3 O 0.3565(4) -0.1910(2) 0.5396(4)
H1 H 0.359(5) -0.189(4) 0.623(3)
O4 O 0.3009(3) -0.11480(18) 0.3706(3)
N1 N 0.2025(3) -0.02949(17) 0.6574(3)
N2 N 0.2028(3) -0.01978(17) 0.4691(3)
N3 N 0.0205(3) 0.18953(17) 0.3851(3)
C1 C 0.1692(3) 0.0112(2) 0.5470(3)
C2 C 0.2584(3) -0.0893(2) 0.6494(4)
C3 C 0.2591(3) -0.0831(2) 0.5332(4)
C4 C 0.0851(3) 0.1295(2) 0.4172(4)
H2 H 0.1212 0.1215 0.3719
C5 C 0.1007(3) 0.0787(2) 0.5148(3)
C6 C 0.0482(3) 0.0932(2) 0.5840(4)
H3 H 0.0567 0.0607 0.6507
C7 C -0.0158(3) 0.1554(2) 0.5535(4)
H4 H -0.0500 0.1660 0.6003
C8 C -0.0294(4) 0.2019(2) 0.4536(4)
H5 H -0.0745 0.2435 0.4322
C9 C 0.3056(4) -0.1460(2) 0.7569(4)
C10 C 0.3077(4) -0.1324(2) 0.4751(5)
N4 N 0.0183(3) 0.35675(19) 0.3737(3)
H6 H -0.0392 0.3599 0.3831
H7 H 0.0747 0.3477 0.4526
C11 C 0.0331(5) 0.4289(3) 0.3213(5)
H8 H 0.1072 0.4327 0.3437
C12 C 0.0074(9) 0.4957(5) 0.3828(11)
H9 H 0.0531 0.4945 0.4756
H10 H -0.0647 0.4921 0.3629
H11 H 0.0176 0.5424 0.3486
O5 O 0.1962(3) 0.2848(2) 0.3350(4)
H12 H 0.225(4) 0.323(2) 0.300(6)
H13 H 0.235(4) 0.2370(18) 0.358(6)
N4A N -0.0183(3) 0.35675(19) 0.1263(3)
H6A H 0.0392 0.3599 0.1169
H7A H -0.0747 0.3477 0.0474
C11A C -0.0331(5) 0.4289(3) 0.1787(5)
H8A H -0.1072 0.4327 0.1563
C12A C -0.0074(9) 0.4957(5) 0.1172(11)
H9A H -0.0531 0.4945 0.0244
H10A H 0.0647 0.4921 0.1371
H11A H -0.0176 0.5424 0.1514
Cu1A Cu -0.20323(4) -0.00911(3) -0.31538(5)
O1A O -0.2943(3) -0.13689(17) -0.3530(3)
O2A O -0.3525(4) -0.2022(2) -0.2434(4)
O3A O -0.3565(4) -0.1910(2) -0.0396(4)
H1A H -0.359(5) -0.189(4) -0.123(3)
O4A O -0.3009(3) -0.11480(18) 0.1294(3)
N1A N -0.2025(3) -0.02949(17) -0.1574(3)
N2A N -0.2028(3) -0.01978(17) 0.0309(3)
N3A N -0.0205(3) 0.18953(17) 0.1149(3)
C1A C -0.1692(3) 0.0112(2) -0.0470(3)
C2A C -0.2584(3) -0.0893(2) -0.1494(4)
C3A C -0.2591(3) -0.0831(2) -0.0332(4)
C4A C -0.0851(3) 0.1295(2) 0.0828(4)
H2A H -0.1212 0.1215 0.1281
C5A C -0.1007(3) 0.0787(2) -0.0148(3)
C6A C -0.0482(3) 0.0932(2) -0.0840(4)
H3A H -0.0567 0.0607 -0.1507
C7A C 0.0158(3) 0.1554(2) -0.0535(4)
H4A H 0.0500 0.1660 -0.1003
C8A C 0.0294(4) 0.2019(2) 0.0464(4)
H5A H 0.0745 0.2435 0.0678
C9A C -0.3056(4) -0.1460(2) -0.2569(4)
C10A C -0.3077(4) -0.1324(2) 0.0249(5)
O5A O -0.1962(3) 0.2848(2) 0.1650(4)
H12A H -0.225(4) 0.323(2) 0.200(6)
H13A H -0.235(4) 0.2370(18) 0.142(6)
Cu1D Cu -0.20323(4) 0.00911(3) 0.18462(5)
Cu1E Cu 0.20323(4) 0.00911(3) 0.31538(5)
O4D O -0.3009(3) 0.11480(18) -0.3706(3)
O4E O 0.3009(3) 0.11480(18) 0.8706(3)
N2D N -0.2028(3) 0.01978(17) -0.4691(3)
N2E N 0.2028(3) 0.01978(17) 0.9691(3)
loop_
_geom_bond_atom_site_label_1
_geom_bond_atom_site_label_2
_geom_bond_site_symmetry_1
_geom_bond_site_symmetry_2
Cu1 O1 1_555 1_555
Cu2 N3 1_555 1_555
O1 C9 1_555 1_555
O2 C9 1_555 1_555
O3 H1 1_555 1_555
O4 C10 1_555 1_555
N1 Cu1 1_555 1_555
N2 C1 1_555 1_555
N3 C4 1_555 1_555
C1 N1 1_555 1_555
C2 N1 1_555 1_555
C3 N2 1_555 1_555
C4 H2 1_555 1_555
C5 C1 1_555 1_555
C6 C5 1_555 1_555
H3 C6 1_555 1_555
C7 C6 1_555 1_555
H4 C7 1_555 1_555
C8 N3 1_555 1_555
H5 C8 1_555 1_555
C9 C2 1_555 1_555
C10 O3 1_555 1_555
N4 Cu2 1_555 1_555
H6 N4 1_555 1_555
H7 N4 1_555 1_555
C11 N4 1_555 1_555
H8 C11 1_555 1_555
C12 C11 1_555 1_555
H9 C12 1_555 1_555
H10 C12 1_555 1_555
H11 C12 1_555 1_555
O5 Cu2 1_555 1_555
H12 O5 1_555 1_555
H13 O5 1_555 1_555
N4A Cu2 1_555 1_555
H6A N4A 1_555 1_555
H7A N4A 1_555 1_555
C11A C11 1_555 1_555
H8A C11A 1_555 1_555
C12A C11A 1_555 1_555
H9A C12A 1_555 1_555
H10A C12A 1_555 1_555
H11A C12A 1_555 1_555
Cu1A O1A 1_555 1_555
O1A C9A 1_555 1_555
O2A C9A 1_555 1_555
O3A H1A 1_555 1_555
O4A C10A 1_555 1_555
N1A Cu1A 1_555 1_555
N2A C1A 1_555 1_555
N3A Cu2 1_555 1_555
C1A N1A 1_555 1_555
C2A N1A 1_555 1_555
C3A N2A 1_555 1_555
C4A N3A 1_555 1_555
H2A C4A 1_555 1_555
C5A C1A 1_555 1_555
C6A C5A 1_555 1_555
H3A C6A 1_555 1_555
C7A C6A 1_555 1_555
H4A C7A 1_555 1_555
C8A N3A 1_555 1_555
H5A C8A 1_555 1_555
C9A C2A 1_555 1_555
C10A O3A 1_555 1_555
O5A Cu2 1_555 1_555
H12A O5A 1_555 1_555
H13A O5A 1_555 1_555
Cu1D O4A 1_555 1_555
Cu1E O4 1_555 1_555
O4D Cu1A 1_555 1_555
O4E Cu1 1_555 1_555
N2D Cu1A 1_555 1_555
N2E Cu1 1_555 1_555
N2 Cu1E 1_555 1_555
C2 C3 1_555 1_555
C3 C10 1_555 1_555
C4 C5 1_555 1_555
C7 C8 1_555 1_555
N4A C11A 1_555 1_555
N2A Cu1D 1_555 1_555
C2A C3A 1_555 1_555
C3A C10A 1_555 1_555
C4A C5A 1_555 1_555
C7A C8A 1_555 1_555

#END
