
#######################################################################
#
#                 Cambridge Crystallographic Data Centre
#                                CCDC 
#
#######################################################################
#
# If this CIF has been generated from an entry in the Cambridge 
# Structural Database, then it will include bibliographic, chemical, 
# crystal, experimental, refinement or atomic coordinate data resulting 
# from the CCDC's data processing and validation procedures.
#
#######################################################################

data_HOVVIZ
_symmetry_cell_setting           monoclinic
_symmetry_space_group_name_H-M   'P 21/c'
_symmetry_Int_Tables_number      14
_space_group_name_Hall           '-P 2ybc'
loop_
_symmetry_equiv_pos_site_id
_symmetry_equiv_pos_as_xyz
1 x,y,z
2 -x,1/2+y,1/2-z
3 -x,-y,-z
4 x,1/2-y,1/2+z
_cell_length_a                   14.9130(18)
_cell_length_b                   15.4330(19)
_cell_length_c                   7.2754(9)
_cell_angle_alpha                90
_cell_angle_beta                 95.207(2)
_cell_angle_gamma                90
_cell_volume                     1667.54
loop_
_atom_site_label
_atom_site_type_symbol
_atom_site_fract_x
_atom_site_fract_y
_atom_site_fract_z
Cl1 Cl 0.11989(5) 0.21099(5) 0.22197(12)
Cu1 Cu 0.18832(3) 0.31295(2) 0.40565(6)
N1 N 0.29809(17) 0.24464(18) 0.4935(4)
C1 C 0.3070(2) 0.1591(2) 0.4994(5)
H1 H 0.2572 0.1240 0.4555
C2 C 0.3878(3) 0.1184(2) 0.5685(5)
H2 H 0.3917 0.0570 0.5715
C3 C 0.4598(3) 0.1672(2) 0.6307(5)
H3 H 0.5145 0.1400 0.6766
C4 C 0.4533(2) 0.2590(2) 0.6270(5)
C5 C 0.5250(2) 0.3152(2) 0.6869(5)
H4 H 0.5819 0.2920 0.7312
C6 C 0.5120(2) 0.4031(2) 0.6809(5)
H5 H 0.5606 0.4405 0.7209
C7 C 0.4286(2) 0.4392(2) 0.6168(5)
H6 H 0.4209 0.5003 0.6163
C8 C 0.3581(2) 0.3864(2) 0.5548(4)
C9 C 0.3702(2) 0.2947(2) 0.5587(4)
N2 N 0.27117(17) 0.41043(16) 0.4840(4)
C10 C 0.2386(2) 0.48774(19) 0.4628(4)
H7 H 0.2715 0.5388 0.4972
C11 C 0.1472(2) 0.48799(19) 0.3815(5)
N3 N 0.10811(18) 0.41200(17) 0.3322(4)
N4 N 0.09061(18) 0.55437(17) 0.3358(4)
C12 C 0.0121(2) 0.5196(2) 0.2562(5)
H8 H -0.0404 0.5504 0.2111
C13 C 0.0241(2) 0.4311(2) 0.2540(5)
H9 H -0.0192 0.3900 0.2056
C14 C 0.1082(2) 0.64704(19) 0.3699(5)
H10 H 0.1718 0.6595 0.3570
H11 H 0.0942 0.6618 0.4952
H12 H 0.0704 0.6816 0.2803
Cl1C Cl 0.11989(5) 0.28901(5) 0.72197(12)
Cu1C Cu 0.18832(3) 0.18705(2) -0.09435(6)
P1 P 0.74598(6) 0.38556(5) 0.07494(14)
F1 F 0.83742(16) 0.34164(16) 0.0269(4)
F2 F 0.79786(19) 0.47330(16) 0.1327(5)
F3 F 0.65427(18) 0.43152(17) 0.1227(4)
F4 F 0.69220(17) 0.29928(16) 0.0209(4)
F5 F 0.7617(3) 0.35236(19) 0.2809(4)
F6 F 0.72703(17) 0.41899(18) -0.1323(3)
loop_
_geom_bond_atom_site_label_1
_geom_bond_atom_site_label_2
_geom_bond_site_symmetry_1
_geom_bond_site_symmetry_2
Cl1 Cu1 1_555 1_555
Cu1 N1 1_555 1_555
N1 C1 1_555 1_555
C1 H1 1_555 1_555
C2 C1 1_555 1_555
H2 C2 1_555 1_555
C3 C2 1_555 1_555
H3 C3 1_555 1_555
C4 C3 1_555 1_555
C5 C4 1_555 1_555
H4 C5 1_555 1_555
C6 C5 1_555 1_555
H5 C6 1_555 1_555
C7 C6 1_555 1_555
H6 C7 1_555 1_555
C8 C7 1_555 1_555
C9 N1 1_555 1_555
N2 Cu1 1_555 1_555
C10 N2 1_555 1_555
H7 C10 1_555 1_555
C11 C10 1_555 1_555
N3 Cu1 1_555 1_555
N4 C11 1_555 1_555
C12 N4 1_555 1_555
H8 C12 1_555 1_555
C13 N3 1_555 1_555
H9 C13 1_555 1_555
C14 N4 1_555 1_555
H10 C14 1_555 1_555
H11 C14 1_555 1_555
H12 C14 1_555 1_555
P1 F1 1_555 1_555
F2 P1 1_555 1_555
F3 P1 1_555 1_555
F4 P1 1_555 1_555
F5 P1 1_555 1_555
F6 P1 1_555 1_555
Cl1C Cu1 1_555 1_555
Cu1C Cl1 1_555 1_555
C4 C9 1_555 1_555
C8 C9 1_555 1_555
C8 N2 1_555 1_555
C11 N3 1_555 1_555
C12 C13 1_555 1_555

#END
