
#######################################################################
#
#                 Cambridge Crystallographic Data Centre
#                                CCDC 
#
#######################################################################
#
# If this CIF has been generated from an entry in the Cambridge 
# Structural Database, then it will include bibliographic, chemical, 
# crystal, experimental, refinement or atomic coordinate data resulting 
# from the CCDC's data processing and validation procedures.
#
#######################################################################

data_HOWQOA
_symmetry_cell_setting           monoclinic
_symmetry_space_group_name_H-M   'P 21/c'
_symmetry_Int_Tables_number      14
_space_group_name_Hall           '-P 2ybc'
loop_
_symmetry_equiv_pos_site_id
_symmetry_equiv_pos_as_xyz
1 x,y,z
2 -x,1/2+y,1/2-z
3 -x,-y,-z
4 x,1/2-y,1/2+z
_cell_length_a                   21.632(4)
_cell_length_b                   14.084(3)
_cell_length_c                   25.794(5)
_cell_angle_alpha                90
_cell_angle_beta                 106.27(3)
_cell_angle_gamma                90
_cell_volume                     7543.81
loop_
_atom_site_label
_atom_site_type_symbol
_atom_site_fract_x
_atom_site_fract_y
_atom_site_fract_z
Zn1 Zn 0.38990(3) 1.12846(4) 0.28844(2)
Zn2 Zn 0.11861(3) 1.62281(4) 0.22630(2)
Zn3 Zn 0.42450(3) 1.62833(4) 0.39930(3)
Zn4 Zn 0.08379(3) 1.14230(4) 0.12371(3)
N1 N 0.4551(2) 1.2521(3) 0.29124(18)
N2 N 0.3295(2) 1.0029(3) 0.28688(18)
N3 N 0.0603(2) 1.7430(3) 0.22454(19)
N4 N 0.1793(2) 1.5033(3) 0.24492(18)
N5 N 0.4318(2) 1.1022(3) 0.37107(17)
N6 N 0.1499(2) 1.4030(3) 0.5854(2)
N7 N 0.3661(2) 1.5919(3) 0.4489(2)
N8 N 0.6029(3) 1.7101(4) 0.5017(2)
O1 O 0.4344(2) 1.4937(3) 0.37683(18)
O2 O 0.4741(2) 1.5828(3) 0.3256(2)
O3 O 0.6091(2) 1.5245(3) 0.32027(18)
O4 O 0.54859(17) 1.5459(3) 0.23594(16)
O5 O 0.4081(2) 0.7671(3) 0.37676(18)
O6 O 0.3348(2) 0.6733(3) 0.32742(17)
O7 O 0.1973(2) 0.7285(3) 0.3209(2)
O8 O 0.19517(18) 0.7133(3) 0.23498(18)
O9 O 0.0463(3) 1.9520(3) 0.1065(2)
O10 O 0.05061(19) 2.0579(3) 0.17013(16)
O11 O -0.0839(2) 2.0241(3) 0.1807(2)
O12 O -0.04383(19) 2.0373(3) 0.26912(18)
O13 O 0.11119(18) 1.2673(3) 0.15598(15)
O14 O 0.17843(18) 1.1717(2) 0.21224(16)
O15 O 0.2993(3) 1.2161(4) 0.3306(2)
O16 O 0.31856(19) 1.2168(3) 0.2507(2)
O17 O 0.5075(2) 1.6511(3) 0.45731(17)
O18 O 0.10778(18) 1.6122(3) 0.14465(15)
O19 O 0.0044(2) 1.1773(3) 0.06583(17)
C1 C 0.4471(3) 1.3317(4) 0.3166(2)
H1 H 0.4181 1.3305 0.3373
C2 C 0.4792(2) 1.4159(4) 0.3142(2)
C3 C 0.4621(3) 1.5046(4) 0.3404(2)
C4 C 0.5240(2) 1.4189(4) 0.2845(2)
C5 C 0.5642(3) 1.5046(4) 0.2809(2)
C6 C 0.5322(3) 1.3357(4) 0.2585(2)
H2 H 0.5615 1.3344 0.2381
C7 C 0.4977(3) 1.2549(4) 0.2622(2)
H3 H 0.5043 1.2005 0.2440
C8 C 0.3550(3) 0.9235(4) 0.3119(2)
H4 H 0.3984 0.9246 0.3311
C9 C 0.3218(3) 0.8391(4) 0.3113(2)
C10 C 0.3568(3) 0.7541(4) 0.3398(2)
C11 C 0.2565(2) 0.8373(4) 0.2833(2)
C12 C 0.2136(3) 0.7518(4) 0.2806(3)
C13 C 0.2295(3) 0.9200(4) 0.2577(3)
H5 H 0.186(3) 0.917(4) 0.238(2)
C14 C 0.2672(3) 1.0004(4) 0.2600(2)
H6 H 0.2482 1.0548 0.2420
C15 C 0.0623(3) 1.8142(4) 0.1907(2)
H7 H 0.0867 1.8055 0.1666
C16 C 0.0305(3) 1.8997(4) 0.1890(2)
C17 C 0.0428(3) 1.9752(4) 0.1517(3)
C18 C -0.0063(3) 1.9128(4) 0.2248(2)
C19 C -0.0476(3) 2.0002(4) 0.2245(3)
C20 C -0.0078(3) 1.8394(4) 0.2605(3)
H8 H -0.031(3) 1.845(4) 0.287(2)
C21 C 0.0256(3) 1.7570(4) 0.2590(2)
H9 H 0.0238 1.7087 0.2832
C22 C 0.1585(2) 1.4225(4) 0.2184(2)
H10 H 0.1199 1.4245 0.1910
C23 C 0.1901(2) 1.3367(4) 0.2288(2)
C24 C 0.1589(2) 1.2515(4) 0.1975(2)
C25 C 0.2487(3) 1.3335(4) 0.2690(2)
C26 C 0.2909(3) 1.2470(4) 0.2845(3)
C27 C 0.2707(3) 1.4178(4) 0.2963(2)
H11 H 0.3096 1.4187 0.3233
C28 C 0.2352(3) 1.4995(4) 0.2833(2)
H12 H 0.2508 1.5548 0.3022
C29 C 0.4943(3) 1.0832(5) 0.3888(3)
H13 H 0.5201 1.0970 0.3664
C30 C 0.5228(3) 1.0440(6) 0.4386(3)
H14 H 0.5669 1.0320 0.4492
C31 C 0.4856(3) 1.0224(4) 0.4730(2)
C32 C 0.4207(3) 1.0421(5) 0.4546(2)
H15 H 0.3937 1.0288 0.4761
C33 C 0.3962(3) 1.0816(4) 0.4042(2)
H16 H 0.3523 1.0946 0.3927
C34 C 0.2137(3) 1.3985(4) 0.6079(3)
H17 H 0.2292 1.3707 0.6418
C35 C 0.2570(3) 1.4333(5) 0.5827(3)
H18 H 0.3009 1.4287 0.5999
C36 C 0.2370(3) 1.4749(4) 0.5326(2)
C37 C 0.2823(3) 1.5148(4) 0.5043(2)
C38 C 0.3490(3) 1.5167(5) 0.5269(3)
H19 H 0.3669 1.4925 0.5614
C39 C 0.3882(3) 1.5542(5) 0.4983(3)
H20 H 0.4325 1.5534 0.5141
C40 C 0.3023(3) 1.5925(5) 0.4281(3)
H21 H 0.2854 1.6198 0.3942
C41 C 0.2601(3) 1.5551(5) 0.4537(3)
H22 H 0.2161 1.5570 0.4367
C42 C 0.1708(3) 1.4798(5) 0.5096(3)
H23 H 0.1543 1.5073 0.4757
C43 C 0.1296(3) 1.4440(5) 0.5367(3)
H24 H 0.0855 1.4485 0.5205
C44 C 0.5656(4) 1.7358(6) 0.4047(3)
H25 H 0.5878 1.6902 0.3889
H26 H 0.5901 1.7935 0.4120
H27 H 0.5241 1.7487 0.3802
C45 C 0.5574(3) 1.6968(4) 0.4567(3)
C46 C 0.6647(3) 1.7566(6) 0.5050(4)
H28 H 0.6908 1.7152 0.4903
H29 H 0.6866 1.7703 0.5420
H30 H 0.6571 1.8147 0.4847
C47 C 0.5943(4) 1.6743(6) 0.5521(3)
H31 H 0.5514 1.6879 0.5536
H32 H 0.6248 1.7044 0.5820
H33 H 0.6012 1.6069 0.5541
Zn1A Zn 0.61010(3) 0.62846(4) 0.21156(2)
Zn1A_2 Zn 0.61010(3) 1.62846(4) 0.21156(2)
Zn1B Zn 0.61010(3) 0.87154(4) 0.71156(2)
Zn1_2 Zn 0.38990(3) 2.12846(4) 0.28844(2)
Zn2_2 Zn 0.11861(3) 0.62281(4) 0.22630(2)
Zn2A Zn -0.11861(3) 2.12281(4) 0.27370(2)
Zn2A_2 Zn -0.11861(3) 1.12281(4) 0.27370(2)
Zn2A_3 Zn 0.88139(3) 1.12281(4) 0.27370(2)
Zn3A Zn 0.57550(3) 1.12833(4) 0.10070(3)
Zn3_2 Zn 0.42450(3) 0.62833(4) 0.39930(3)
Zn3C Zn 0.42450(3) 0.87167(4) -0.10070(3)
Zn4C Zn 0.08379(3) 1.35770(4) 0.62371(3)
Zn4_2 Zn 0.08379(3) 2.14230(4) 0.12371(3)
Zn4A Zn -0.08379(3) 1.64230(4) 0.37629(3)
Zn4A_2 Zn 0.91621(3) 0.64230(4) 0.37629(3)
N1A N 0.5449(2) 0.7521(3) 0.20876(18)
N2_2 N 0.3295(2) 2.0029(3) 0.28688(18)
N2A N 0.6705(2) 0.5029(3) 0.21312(18)
N3A N -0.0603(2) 1.2430(3) 0.27546(19)
N3_2 N 0.0603(2) 0.7430(3) 0.22454(19)
N4A N 0.8207(2) 1.0033(3) 0.25508(18)
N4_2 N 0.1793(2) 0.5033(3) 0.24492(18)
N5B N 0.5682(2) 0.8978(3) 0.62893(17)
N5A N 0.5682(2) 0.6022(3) 0.12893(17)
N6C N 0.1499(2) 1.0970(3) 0.0854(2)
N7C N 0.3661(2) 0.9081(3) -0.0511(2)
N7A N 0.6339(2) 1.0919(3) 0.0511(2)
N8A N 0.3971(3) 1.2101(4) -0.0017(2)
O1A O 0.5656(2) 0.9937(3) 0.12317(18)
O2A O 0.5259(2) 1.0828(3) 0.1744(2)
O3A O 0.3909(2) 1.0245(3) 0.17973(18)
O4A O 0.45141(17) 1.0459(3) 0.26406(16)
O4_2 O 0.54859(17) 0.5459(3) 0.23594(16)
O5_2 O 0.4081(2) 1.7671(3) 0.37676(18)
O5A O 0.5919(2) 1.2671(3) 0.12324(18)
O6_2 O 0.3348(2) 1.6733(3) 0.32742(17)
O7_2 O 0.1973(2) 1.7285(3) 0.3209(2)
O8_2 O 0.19517(18) 1.7133(3) 0.23498(18)
O9A O -0.0463(3) 1.4520(3) 0.3935(2)
O10A O -0.05061(19) 1.5579(3) 0.32987(16)
O10_2 O 0.05061(19) 1.0579(3) 0.17013(16)
O10C O 0.05061(19) 1.4421(3) 0.67013(16)
O11A O 0.0839(2) 1.5241(3) 0.3193(2)
O12A O 0.04383(19) 1.5373(3) 0.23088(18)
O12A_2 O 0.04383(19) 0.5373(3) 0.23088(18)
O13A O 0.88881(18) 0.7673(3) 0.34402(15)
O13C O 0.11119(18) 1.2327(3) 0.65598(15)
O14A O 0.82157(18) 0.6717(2) 0.28776(16)
O15A O 0.7007(3) 0.7161(4) 0.1694(2)
O16A O 0.68144(19) 0.7168(3) 0.2493(2)
O17A O 0.4925(2) 1.1511(3) 0.04269(17)
O18_2 O 0.10778(18) 0.6122(3) 0.14465(15)
O19C O 0.0044(2) 1.3227(3) 0.56583(17)
C1A C 0.5529(3) 0.8317(4) 0.1834(2)
H1A H 0.5819 0.8305 0.1627
C2A C 0.5208(2) 0.9159(4) 0.1858(2)
C3A C 0.5379(3) 1.0046(4) 0.1596(2)
C4A C 0.4760(2) 0.9189(4) 0.2155(2)
C5A C 0.4358(3) 1.0046(4) 0.2191(2)
C6A C 0.4678(3) 0.8357(4) 0.2415(2)
H2A H 0.4385 0.8344 0.2619
C7A C 0.5023(3) 0.7549(4) 0.2378(2)
H3A H 0.4957 0.7005 0.2560
C8_2 C 0.3550(3) 1.9235(4) 0.3119(2)
H4_2 H 0.3984 1.9246 0.3311
C9_2 C 0.3218(3) 1.8391(4) 0.3113(2)
C10_2 C 0.3568(3) 1.7541(4) 0.3398(2)
C11_2 C 0.2565(2) 1.8373(4) 0.2833(2)
C12_2 C 0.2136(3) 1.7518(4) 0.2806(3)
C13_2 C 0.2295(3) 1.9200(4) 0.2577(3)
H5_2 H 0.186(3) 1.917(4) 0.238(2)
C14_2 C 0.2672(3) 2.0004(4) 0.2600(2)
H6_2 H 0.2482 2.0548 0.2420
C15A C -0.0623(3) 1.3142(4) 0.3093(2)
H7A H -0.0867 1.3055 0.3334
C16A C -0.0305(3) 1.3997(4) 0.3110(2)
C17A C -0.0428(3) 1.4752(4) 0.3483(3)
C18A C 0.0063(3) 1.4128(4) 0.2752(2)
C19A C 0.0476(3) 1.5002(4) 0.2755(3)
C20A C 0.0078(3) 1.3394(4) 0.2395(3)
H8A H 0.031(3) 1.345(4) 0.213(2)
C21A C -0.0256(3) 1.2570(4) 0.2410(2)
H9A H -0.0238 1.2087 0.2168
C22A C 0.8415(2) 0.9225(4) 0.2816(2)
H10A H 0.8801 0.9245 0.3090
C23A C 0.8099(2) 0.8367(4) 0.2712(2)
C24A C 0.8411(2) 0.7515(4) 0.3025(2)
C25A C 0.7513(3) 0.8335(4) 0.2310(2)
C26A C 0.7091(3) 0.7470(4) 0.2155(3)
C27A C 0.7293(3) 0.9178(4) 0.2037(2)
H11A H 0.6904 0.9187 0.1767
C28A C 0.7648(3) 0.9995(4) 0.2167(2)
H12A H 0.7492 1.0548 0.1978
C29B C 0.5057(3) 0.9168(5) 0.6112(3)
H13B H 0.4799 0.9030 0.6336
C30B C 0.4772(3) 0.9560(6) 0.5614(3)
H14B H 0.4331 0.9680 0.5508
C31B C 0.5144(3) 0.9776(4) 0.5270(2)
C32B C 0.5793(3) 0.9579(5) 0.5454(2)
H15B H 0.6063 0.9712 0.5239
C33B C 0.6038(3) 0.9184(4) 0.5958(2)
H16B H 0.6477 0.9054 0.6073
C34C C 0.2137(3) 1.1015(4) 0.1079(3)
H17C H 0.2292 1.1293 0.1418
C35C C 0.2570(3) 1.0667(5) 0.0827(3)
H18C H 0.3009 1.0713 0.0999
C36C C 0.2370(3) 1.0251(4) 0.0326(2)
C37C C 0.2823(3) 0.9852(4) 0.0043(2)
C38C C 0.3490(3) 0.9833(5) 0.0269(3)
H19C H 0.3669 1.0075 0.0614
C39C C 0.3882(3) 0.9458(5) -0.0017(3)
H20C H 0.4325 0.9466 0.0141
C40C C 0.3023(3) 0.9075(5) -0.0719(3)
H21C H 0.2854 0.8802 -0.1058
C41C C 0.2601(3) 0.9449(5) -0.0463(3)
H22C H 0.2161 0.9430 -0.0633
C42C C 0.1708(3) 1.0202(5) 0.0096(3)
H23C H 0.1543 0.9927 -0.0243
C43C C 0.1296(3) 1.0560(5) 0.0367(3)
H24C H 0.0855 1.0515 0.0205
C44A C 0.4344(4) 1.2358(6) 0.0953(3)
H25A H 0.4122 1.1902 0.1111
H26A H 0.4099 1.2935 0.0880
H27A H 0.4759 1.2487 0.1198
C45A C 0.4426(3) 1.1968(4) 0.0433(3)
C46A C 0.3353(3) 1.2566(6) -0.0050(4)
H28A H 0.3092 1.2152 0.0097
H29A H 0.3134 1.2703 -0.0420
H30A H 0.3429 1.3147 0.0153
C47A C 0.4057(4) 1.1743(6) -0.0521(3)
H31A H 0.4486 1.1879 -0.0536
H32A H 0.3752 1.2044 -0.0820
H33A H 0.3988 1.1069 -0.0541
N9 N 0.3059(6) 0.4851(9) 0.1643(5)
O20 O 0.2056(3) 0.5194(5) 0.1227(2)
C48 C 0.2553(5) 0.3625(7) 0.1155(4)
H34 H 0.2705 0.3619 0.0839
H35 H 0.2122 0.3381 0.1065
H36 H 0.2829 0.3235 0.1430
C49 C 0.2561(7) 0.4766(10) 0.1388(5)
C50 C 0.3668(4) 0.4297(8) 0.1772(4)
H37 H 0.3600 0.3685 0.1911
H38 H 0.3996 0.4631 0.2038
H39 H 0.3803 0.4216 0.1450
C51 C 0.3087(6) 0.5907(6) 0.1878(5)
H40 H 0.3378 0.6282 0.1741
H41 H 0.3236 0.5888 0.2265
H42 H 0.2665 0.6185 0.1767
N10 N 0.0614(4) -0.0131(6) 0.4498(3)
O21 O 0.0048(2) 0.1182(4) 0.4301(2)
C52 C 0.0834(4) 0.1068(6) 0.5186(3)
H43 H 0.0891 0.0568 0.5448
H44 H 0.0584 0.1569 0.5279
H45 H 0.1248 0.1310 0.5182
C53 C 0.0480(5) 0.0674(7) 0.4619(4)
C54 C 0.1113(4) -0.0755(7) 0.4887(4)
H46 H 0.1304 -0.1178 0.4685
H47 H 0.0906 -0.1117 0.5107
H48 H 0.1440 -0.0361 0.5114
C55 C 0.0306(4) -0.0512(7) 0.3955(3)
H49 H -0.0042 -0.0925 0.3970
H50 H 0.0618 -0.0863 0.3831
H51 H 0.0143 0.0002 0.3711
N11 N 0.1553(5) 0.1782(11) 0.3884(5)
O22 O 0.2169(3) 0.1130(5) 0.4613(3)
C56 C 0.1981(7) 0.0276(11) 0.3782(5)
H52 H 0.1672 0.0310 0.3433
H53 H 0.1913 -0.0297 0.3961
H54 H 0.2408 0.0275 0.3740
C57 C 0.1901(6) 0.1121(10) 0.4115(7)
C58 C 0.1223(7) 0.1729(13) 0.3291(6)
H55 H 0.1365 0.2247 0.3110
H56 H 0.0766 0.1769 0.3232
H57 H 0.1329 0.1139 0.3150
C59 C 0.1488(7) 0.2622(11) 0.4202(7)
H58 H 0.1705 0.2512 0.4576
H59 H 0.1040 0.2744 0.4161
H60 H 0.1677 0.3162 0.4076
N12 N 0.2604(7) 0.7889(8) 0.0894(5)
O23 O 0.2699(5) 0.7122(6) 0.0225(3)
C60 C 0.3671(5) 0.7645(9) 0.0938(5)
H61 H 0.3782 0.8250 0.1109
H62 H 0.3878 0.7574 0.0656
H63 H 0.3812 0.7149 0.1200
C61 C 0.2952(9) 0.7584(11) 0.0700(8)
C62 C 0.2815(6) 0.8364(7) 0.1458(4)
H64 H 0.3266 0.8250 0.1619
H65 H 0.2573 0.8100 0.1683
H66 H 0.2738 0.9035 0.1420
C63 C 0.1860(5) 0.7791(7) 0.0657(5)
H67 H 0.1761 0.7600 0.0286
H68 H 0.1659 0.8390 0.0682
H69 H 0.1703 0.7321 0.0858
O24 O 0.1838(3) 0.7836(5) 0.4167(3)
O25 O 0.0095(3) 0.8037(4) 0.03836(19)
O26 O 0.3107(3) 0.5123(4) 0.0225(3)
O27 O 0.8992(2) 0.1361(4) 0.0917(2)
loop_
_geom_bond_atom_site_label_1
_geom_bond_atom_site_label_2
_geom_bond_site_symmetry_1
_geom_bond_site_symmetry_2
Zn1 N1 1_555 1_555
Zn2 N3 1_555 1_555
Zn3 N7 1_555 1_555
Zn4 O13 1_555 1_555
N1 C1 1_555 1_555
N2 Zn1 1_555 1_555
N3 C15 1_555 1_555
N4 Zn2 1_555 1_555
N5 Zn1 1_555 1_555
N6 C34 1_555 1_555
N7 C39 1_555 1_555
N8 C45 1_555 1_555
N9 C49 1_555 1_555
N10 C53 1_555 1_555
N11 C57 1_555 1_555
N12 C61 1_555 1_555
O1 Zn3 1_555 1_555
O2 C3 1_555 1_555
O3 C5 1_555 1_555
O4 C5 1_555 1_555
O5 C10 1_555 1_555
O6 C10 1_555 1_555
O7 C12 1_555 1_555
O8 C12 1_555 1_555
O9 C17 1_555 1_555
O10 C17 1_555 1_555
O11 C19 1_555 1_555
O12 C19 1_555 1_555
O13 C24 1_555 1_555
O14 C24 1_555 1_555
O15 C26 1_555 1_555
O16 Zn1 1_555 1_555
O17 Zn3 1_555 1_555
O18 Zn2 1_555 1_555
O19 Zn4 1_555 1_555
O20 C49 1_555 1_555
O21 C53 1_555 1_555
O22 C57 1_555 1_555
O23 C61 1_555 1_555
C1 H1 1_555 1_555
C2 C1 1_555 1_555
C3 O1 1_555 1_555
C4 C2 1_555 1_555
C5 C4 1_555 1_555
C6 C4 1_555 1_555
H2 C6 1_555 1_555
C7 N1 1_555 1_555
H3 C7 1_555 1_555
C8 N2 1_555 1_555
H4 C8 1_555 1_555
C9 C8 1_555 1_555
C10 C9 1_555 1_555
C11 C9 1_555 1_555
C12 C11 1_555 1_555
C13 C11 1_555 1_555
H5 C13 1_555 1_555
C14 N2 1_555 1_555
H6 C14 1_555 1_555
C15 H7 1_555 1_555
C16 C15 1_555 1_555
C17 C16 1_555 1_555
C18 C16 1_555 1_555
C19 C18 1_555 1_555
C20 C18 1_555 1_555
H8 C20 1_555 1_555
C21 N3 1_555 1_555
H9 C21 1_555 1_555
C22 N4 1_555 1_555
H10 C22 1_555 1_555
C23 C22 1_555 1_555
C24 C23 1_555 1_555
C25 C23 1_555 1_555
C26 O16 1_555 1_555
C27 C25 1_555 1_555
H11 C27 1_555 1_555
C28 N4 1_555 1_555
H12 C28 1_555 1_555
C29 N5 1_555 1_555
H13 C29 1_555 1_555
C30 C29 1_555 1_555
H14 C30 1_555 1_555
C31 C30 1_555 1_555
C32 C31 1_555 1_555
H15 C32 1_555 1_555
C33 N5 1_555 1_555
H16 C33 1_555 1_555
C34 H17 1_555 1_555
C35 C34 1_555 1_555
H18 C35 1_555 1_555
C36 C35 1_555 1_555
C37 C36 1_555 1_555
C38 C37 1_555 1_555
H19 C38 1_555 1_555
C39 C38 1_555 1_555
H20 C39 1_555 1_555
C40 N7 1_555 1_555
H21 C40 1_555 1_555
C41 C37 1_555 1_555
H22 C41 1_555 1_555
C42 C36 1_555 1_555
H23 C42 1_555 1_555
C43 N6 1_555 1_555
H24 C43 1_555 1_555
C44 H25 1_555 1_555
H26 C44 1_555 1_555
H27 C44 1_555 1_555
C45 O17 1_555 1_555
C46 N8 1_555 1_555
H28 C46 1_555 1_555
H29 C46 1_555 1_555
H30 C46 1_555 1_555
C47 N8 1_555 1_555
H31 C47 1_555 1_555
H32 C47 1_555 1_555
H33 C47 1_555 1_555
C48 H34 1_555 1_555
H35 C48 1_555 1_555
H36 C48 1_555 1_555
C49 C48 1_555 1_555
C50 N9 1_555 1_555
H37 C50 1_555 1_555
H38 C50 1_555 1_555
H39 C50 1_555 1_555
C51 N9 1_555 1_555
H40 C51 1_555 1_555
H41 C51 1_555 1_555
H42 C51 1_555 1_555
C52 H43 1_555 1_555
H44 C52 1_555 1_555
H45 C52 1_555 1_555
C53 C52 1_555 1_555
C54 N10 1_555 1_555
H46 C54 1_555 1_555
H47 C54 1_555 1_555
H48 C54 1_555 1_555
C55 N10 1_555 1_555
H49 C55 1_555 1_555
H50 C55 1_555 1_555
H51 C55 1_555 1_555
C56 H52 1_555 1_555
H53 C56 1_555 1_555
H54 C56 1_555 1_555
C57 C56 1_555 1_555
C58 N11 1_555 1_555
H55 C58 1_555 1_555
H56 C58 1_555 1_555
H57 C58 1_555 1_555
C59 N11 1_555 1_555
H58 C59 1_555 1_555
H59 C59 1_555 1_555
H60 C59 1_555 1_555
C60 H61 1_555 1_555
H62 C60 1_555 1_555
H63 C60 1_555 1_555
C61 C60 1_555 1_555
C62 N12 1_555 1_555
H64 C62 1_555 1_555
H65 C62 1_555 1_555
H66 C62 1_555 1_555
C63 N12 1_555 1_555
H67 C63 1_555 1_555
H68 C63 1_555 1_555
H69 C63 1_555 1_555
Zn1A N1A 1_555 1_555
Zn1A_2 O4 1_555 1_555
Zn1B N5B 1_555 1_555
Zn1_2 N2_2 1_555 1_555
Zn2_2 O8 1_555 1_555
Zn2A O12 1_555 1_555
Zn2A_2 N3A 1_555 1_555
Zn2A_3 N4A 1_555 1_555
Zn3A N7A 1_555 1_555
Zn3_2 O5 1_555 1_555
Zn3C N7C 1_555 1_555
Zn4C N6 1_555 1_555
Zn4_2 O10 1_555 1_555
Zn4A O10A 1_555 1_555
Zn4A_2 O13A 1_555 1_555
N1A C1A 1_555 1_555
N2_2 C8_2 1_555 1_555
N2A Zn1A 1_555 1_555
N3A C15A 1_555 1_555
N3_2 Zn2_2 1_555 1_555
N4A C22A 1_555 1_555
N4_2 Zn2_2 1_555 1_555
N5B C29B 1_555 1_555
N5A Zn1A 1_555 1_555
N6C Zn4 1_555 1_555
N7C C39C 1_555 1_555
N8A C45A 1_555 1_555
O1A Zn3A 1_555 1_555
O2A C3A 1_555 1_555
O3A C5A 1_555 1_555
O4A Zn1 1_555 1_555
O4_2 Zn1A 1_555 1_555
O5_2 Zn3 1_555 1_555
O5A Zn3A 1_555 1_555
O6_2 C10_2 1_555 1_555
O7_2 C12_2 1_555 1_555
O8_2 Zn2 1_555 1_555
O9A C17A 1_555 1_555
O10A C17A 1_555 1_555
O10_2 Zn4 1_555 1_555
O10C Zn4C 1_555 1_555
O11A C19A 1_555 1_555
O12A Zn2 1_555 1_555
O12A_2 Zn2_2 1_555 1_555
O13A C24A 1_555 1_555
O13C Zn4C 1_555 1_555
O14A C24A 1_555 1_555
O15A C26A 1_555 1_555
O16A Zn1A 1_555 1_555
O17A Zn3A 1_555 1_555
O18_2 Zn2_2 1_555 1_555
O19C Zn4C 1_555 1_555
C1A H1A 1_555 1_555
C2A C1A 1_555 1_555
C3A O1A 1_555 1_555
C4A C2A 1_555 1_555
C5A O4A 1_555 1_555
C6A C4A 1_555 1_555
H2A C6A 1_555 1_555
C7A N1A 1_555 1_555
H3A C7A 1_555 1_555
C8_2 H4_2 1_555 1_555
C9_2 C8_2 1_555 1_555
C10_2 O5_2 1_555 1_555
C11_2 C9_2 1_555 1_555
C12_2 O8_2 1_555 1_555
C13_2 C11_2 1_555 1_555
H5_2 C13_2 1_555 1_555
C14_2 N2_2 1_555 1_555
H6_2 C14_2 1_555 1_555
C15A H7A 1_555 1_555
C16A C15A 1_555 1_555
C17A C16A 1_555 1_555
C18A C16A 1_555 1_555
C19A O12A 1_555 1_555
C20A C18A 1_555 1_555
H8A C20A 1_555 1_555
C21A N3A 1_555 1_555
H9A C21A 1_555 1_555
C22A H10A 1_555 1_555
C23A C22A 1_555 1_555
C24A C23A 1_555 1_555
C25A C23A 1_555 1_555
C26A O16A 1_555 1_555
C27A C25A 1_555 1_555
H11A C27A 1_555 1_555
C28A N4A 1_555 1_555
H12A C28A 1_555 1_555
C29B H13B 1_555 1_555
C30B C29B 1_555 1_555
H14B C30B 1_555 1_555
C31B C31 1_555 1_555
C32B C31B 1_555 1_555
H15B C32B 1_555 1_555
C33B N5B 1_555 1_555
H16B C33B 1_555 1_555
C34C N6C 1_555 1_555
H17C C34C 1_555 1_555
C35C C34C 1_555 1_555
H18C C35C 1_555 1_555
C36C C35C 1_555 1_555
C37C C36C 1_555 1_555
C38C C37C 1_555 1_555
H19C C38C 1_555 1_555
C39C C38C 1_555 1_555
H20C C39C 1_555 1_555
C40C N7C 1_555 1_555
H21C C40C 1_555 1_555
C41C C37C 1_555 1_555
H22C C41C 1_555 1_555
C42C C36C 1_555 1_555
H23C C42C 1_555 1_555
C43C N6C 1_555 1_555
H24C C43C 1_555 1_555
C44A H25A 1_555 1_555
H26A C44A 1_555 1_555
H27A C44A 1_555 1_555
C45A O17A 1_555 1_555
C46A N8A 1_555 1_555
H28A C46A 1_555 1_555
H29A C46A 1_555 1_555
H30A C46A 1_555 1_555
C47A N8A 1_555 1_555
H31A C47A 1_555 1_555
H32A C47A 1_555 1_555
H33A C47A 1_555 1_555
C2 C3 1_555 1_555
C6 C7 1_555 1_555
C13 C14 1_555 1_555
C20 C21 1_555 1_555
C25 C26 1_555 1_555
C27 C28 1_555 1_555
C32 C33 1_555 1_555
C40 C41 1_555 1_555
C42 C43 1_555 1_555
C44 C45 1_555 1_555
C2A C3A 1_555 1_555
C4A C5A 1_555 1_555
C6A C7A 1_555 1_555
C9_2 C10_2 1_555 1_555
C11_2 C12_2 1_555 1_555
C13_2 C14_2 1_555 1_555
C18A C19A 1_555 1_555
C20A C21A 1_555 1_555
C25A C26A 1_555 1_555
C27A C28A 1_555 1_555
C30B C31B 1_555 1_555
C32B C33B 1_555 1_555
C40C C41C 1_555 1_555
C42C C43C 1_555 1_555
C44A C45A 1_555 1_555

#END
