
#######################################################################
#
#                 Cambridge Crystallographic Data Centre
#                                CCDC 
#
#######################################################################
#
# If this CIF has been generated from an entry in the Cambridge 
# Structural Database, then it will include bibliographic, chemical, 
# crystal, experimental, refinement or atomic coordinate data resulting 
# from the CCDC's data processing and validation procedures.
#
#######################################################################

data_HOWRUI
_symmetry_cell_setting           monoclinic
_symmetry_space_group_name_H-M   'C 2'
_symmetry_Int_Tables_number      5
_space_group_name_Hall           'C 2y'
loop_
_symmetry_equiv_pos_site_id
_symmetry_equiv_pos_as_xyz
1 x,y,z
2 -x,y,-z
3 1/2+x,1/2+y,z
4 1/2-x,1/2+y,-z
_cell_length_a                   21.7630(6)
_cell_length_b                   11.0749(4)
_cell_length_c                   19.5074(5)
_cell_angle_alpha                90
_cell_angle_beta                 92.760(3)
_cell_angle_gamma                90
_cell_volume                     4696.28
loop_
_atom_site_label
_atom_site_type_symbol
_atom_site_fract_x
_atom_site_fract_y
_atom_site_fract_z
Cu1 Cu -0.01913(2) 0.52672(6) 0.56235(3)
Cu2 Cu 0.19792(2) -0.10111(5) 0.80516(3)
Cu3 Cu 0.12186(3) 0.06512(5) 0.85030(3)
O1 O -0.23759(15) -0.4900(4) 0.84284(18)
O2 O 0.07968(15) 0.4116(4) 0.47841(16)
O3 O 0.04032(15) 0.3976(4) 0.58190(17)
O4 O 0.11908(15) -0.1744(4) 0.77267(18)
C1 C 0.1713(2) 0.0838(5) 0.7122(2)
O5 O 0.45145(17) 0.1428(4) 0.42163(19)
O6 O 0.20085(16) -0.0137(3) 0.71815(17)
O7 O 0.05479(16) -0.0313(4) 0.80935(19)
O8 O -0.11840(16) -0.0386(3) 1.06787(16)
C2 C -0.1529(2) -0.1300(5) 1.0609(2)
O9 O 0.42631(16) 0.1572(4) 0.53136(19)
O10 O 0.13910(17) 0.1310(4) 0.75717(17)
O11 O -0.30220(16) -0.3630(4) 0.89060(19)
C3 C 0.4203(2) 0.1829(5) 0.4684(3)
C4 C -0.1419(2) -0.3240(6) 0.8720(2)
H1 H -0.1390 -0.3681 0.8317
O12 O -0.18898(16) -0.1681(4) 1.10300(17)
C5 C 0.0794(2) 0.3732(5) 0.5387(3)
C6 C -0.1489(2) -0.1987(5) 0.9944(2)
C7 C -0.0924(2) -0.2547(5) 0.8963(3)
C8 C -0.2498(2) -0.3993(5) 0.8783(2)
C9 C -0.0351(2) -0.2502(6) 0.8565(3)
C10 C 0.2303(2) 0.2036(6) 0.5445(3)
N1 N -0.04028(19) -0.2035(5) 0.7928(2)
N2 N 0.3206(2) 0.2817(4) 0.4925(2)
C11 C -0.1968(2) -0.3281(5) 0.9079(2)
C12 C 0.1281(2) 0.2298(5) 0.6252(2)
H2 H 0.0947 0.2404 0.6525
O13 O -0.05514(17) 0.5216(5) 0.66618(17)
C13 C 0.0670(2) -0.1297(5) 0.7812(2)
C14 C 0.1755(2) 0.1524(5) 0.6457(2)
C15 C 0.1831(2) 0.2806(5) 0.5235(3)
H3 H 0.1858 0.3247 0.4832
C16 C -0.1996(2) -0.2647(5) 0.9688(2)
H4 H -0.2355 -0.2660 0.9928
C17 C 0.0118(2) -0.2007(6) 0.7491(3)
H5 H 0.0242 -0.2829 0.7374
C18 C 0.2835(2) 0.1869(6) 0.5001(3)
O14 O 0.26126(19) -0.2463(4) 0.7799(2)
C19 C 0.2256(2) 0.1372(5) 0.6053(3)
H6 H 0.2564 0.0826 0.6185
C20 C 0.1312(2) 0.2923(5) 0.5628(3)
C21 C -0.0955(2) -0.1930(5) 0.9576(2)
H7 H -0.0620 -0.1478 0.9744
O15 O 0.01393(18) -0.2868(5) 0.8808(2)
O16 O 0.29186(19) 0.0918(5) 0.4696(3)
O17 O 0.0716(2) 0.2228(4) 0.8750(3)
C22 C 0.3718(3) 0.2759(6) 0.4460(3)
H8 H 0.3561 0.2586 0.3991
C23 C -0.0137(3) -0.1344(7) 0.6850(3)
H9 H 0.0177 -0.0840 0.6659
H10 H -0.0287 -0.1912 0.6502
C24 C 0.3221(3) 0.3912(7) 0.5346(4)
H11 H 0.3201 0.3717 0.5829
H12 H 0.2884 0.4447 0.5213
C25 C 0.3990(3) 0.4034(7) 0.4499(4)
H13 H 0.4431 0.4014 0.4452
H14 H 0.3805 0.4545 0.4141
C26 C -0.0660(3) -0.0578(8) 0.7104(3)
H15 H -0.0506 0.0170 0.7305
H16 H -0.0957 -0.0390 0.6732
C27 C -0.0943(3) -0.1360(7) 0.7633(3)
H17 H -0.1132 -0.0877 0.7980
H18 H -0.1248 -0.1903 0.7425
C28 C 0.3836(3) 0.4479(7) 0.5197(4)
H19 H 0.3806 0.5353 0.5200
H20 H 0.4150 0.4235 0.5538
C29 C -0.0246(4) 0.4623(10) 0.7214(4)
H21 H -0.0318 0.5048 0.7638
H22 H 0.0194 0.4620 0.7151
C30 C -0.1187(4) 0.5091(13) 0.6720(4)
H23 H -0.1300 0.5586 0.7104
H24 H -0.1385 0.5443 0.6311
O18 O -0.1136(5) 0.3329(11) 0.7315(5)
C31 C -0.1438(5) 0.4001(19) 0.6804(7)
H25 H -0.1432 0.3560 0.6375
H26 H -0.1865 0.4101 0.6916
C32 C -0.0480(8) 0.3321(12) 0.7262(6)
H27 H -0.0373 0.2873 0.6857
H28 H -0.0286 0.2927 0.7661
Cu1A Cu 0.01913(2) 0.52672(6) 0.43765(3)
Cu1B Cu 0.48087(2) 0.02672(6) 0.56235(3)
Cu1C Cu 0.51913(2) 0.02672(6) 0.43765(3)
Cu2A Cu -0.19792(2) -0.10111(5) 1.19484(3)
Cu2B Cu -0.30208(2) -0.60111(5) 0.80516(3)
Cu3A Cu -0.12186(3) 0.06512(5) 1.14970(3)
Cu3B Cu -0.37814(3) -0.43488(5) 0.85030(3)
O1B O 0.26241(15) 0.0100(4) 0.84284(18)
O2A O -0.07968(15) 0.4116(4) 0.52159(16)
O5C O 0.04855(17) 0.6428(4) 0.57837(19)
O8A O 0.11840(16) -0.0386(3) 0.93213(16)
O9B O -0.07369(16) 0.6572(4) 0.53136(19)
O11B O 0.19780(16) 0.1370(4) 0.89060(19)
O12A O 0.18898(16) -0.1681(4) 0.89700(17)
O19 O 0.0000 -0.4384(7) 1.0000
O20 O 0.2359(3) 0.5119(7) 0.8255(5)
O21 O 0.1132(3) 0.4498(7) 0.8188(5)
C33 C 0.1369(4) 0.5253(11) 0.8709(6)
H29 H 0.1142 0.5129 0.9118
H30 H 0.1314 0.6088 0.8568
C34 C 0.2033(5) 0.5025(14) 0.8873(6)
H31 H 0.2192 0.5612 0.9206
H32 H 0.2089 0.4225 0.9069
C35 C 0.1453(5) 0.4642(12) 0.7569(7)
H33 H 0.1415 0.5464 0.7400
H34 H 0.1291 0.4097 0.7216
C36 C 0.2135(5) 0.4340(10) 0.7764(7)
H35 H 0.2166 0.3518 0.7934
H36 H 0.2377 0.4401 0.7360
O22 O 0.4534(3) -0.2648(8) 0.9098(5)
O23 O 0.3294(3) -0.2821(8) 0.9168(5)
C37 C 0.4228(5) -0.3660(10) 0.8926(9)
H37 H 0.4487 -0.4344 0.9056
H38 H 0.4164 -0.3678 0.8431
C38 C 0.3630(5) -0.1814(13) 0.9551(7)
H39 H 0.3377 -0.1093 0.9551
H40 H 0.3724 -0.2050 1.0024
C39 C 0.3666(4) -0.3813(12) 0.9212(6)
H41 H 0.3454 -0.4484 0.8986
H42 H 0.3735 -0.4026 0.9692
C40 C 0.4203(6) -0.1576(11) 0.9199(8)
H43 H 0.4104 -0.1201 0.8758
H44 H 0.4458 -0.1019 0.9471
O24 O 0.2910(9) -0.399(2) 0.6574(7)
loop_
_geom_bond_atom_site_label_1
_geom_bond_atom_site_label_2
_geom_bond_site_symmetry_1
_geom_bond_site_symmetry_2
Cu1 O3 1_555 1_555
Cu2 Cu3 1_555 1_555
Cu3 O7 1_555 1_555
O1 C8 1_555 1_555
O2 C5 1_555 1_555
O3 C5 1_555 1_555
O4 Cu2 1_555 1_555
C1 O6 1_555 1_555
O5 C3 1_555 1_555
O6 Cu2 1_555 1_555
O7 C13 1_555 1_555
O8 C2 1_555 1_555
C2 O12 1_555 1_555
O9 C3 1_555 1_555
O10 Cu3 1_555 1_555
O11 C8 1_555 1_555
C3 C22 1_555 1_555
C4 H1 1_555 1_555
O12 Cu2A 1_555 1_555
C5 C20 1_555 1_555
C6 C2 1_555 1_555
C7 C4 1_555 1_555
C8 C11 1_555 1_555
C9 C7 1_555 1_555
C10 C15 1_555 1_555
N1 C9 1_555 1_555
N2 C18 1_555 1_555
C11 C4 1_555 1_555
C12 H2 1_555 1_555
O13 Cu1 1_555 1_555
C13 O4 1_555 1_555
C14 C1 1_555 1_555
C15 H3 1_555 1_555
C16 C6 1_555 1_555
H4 C16 1_555 1_555
C17 N1 1_555 1_555
H5 C17 1_555 1_555
C18 C10 1_555 1_555
O14 Cu2 1_555 1_555
C19 C10 1_555 1_555
H6 C19 1_555 1_555
C20 C12 1_555 1_555
C21 C6 1_555 1_555
H7 C21 1_555 1_555
O15 C9 1_555 1_555
O16 C18 1_555 1_555
O17 Cu3 1_555 1_555
C22 N2 1_555 1_555
H8 C22 1_555 1_555
C23 C17 1_555 1_555
H9 C23 1_555 1_555
H10 C23 1_555 1_555
C24 N2 1_555 1_555
H11 C24 1_555 1_555
H12 C24 1_555 1_555
C25 C22 1_555 1_555
H13 C25 1_555 1_555
H14 C25 1_555 1_555
C26 C23 1_555 1_555
H15 C26 1_555 1_555
H16 C26 1_555 1_555
C27 N1 1_555 1_555
H17 C27 1_555 1_555
H18 C27 1_555 1_555
C28 C24 1_555 1_555
H19 C28 1_555 1_555
H20 C28 1_555 1_555
C29 O13 1_555 1_555
H21 C29 1_555 1_555
H22 C29 1_555 1_555
C30 O13 1_555 1_555
H23 C30 1_555 1_555
H24 C30 1_555 1_555
O18 C31 1_555 1_555
C31 C30 1_555 1_555
H25 C31 1_555 1_555
H26 C31 1_555 1_555
C32 C29 1_555 1_555
H27 C32 1_555 1_555
H28 C32 1_555 1_555
O20 C34 1_555 1_555
O21 C33 1_555 1_555
C33 H29 1_555 1_555
H30 C33 1_555 1_555
C34 C33 1_555 1_555
H31 C34 1_555 1_555
H32 C34 1_555 1_555
C35 O21 1_555 1_555
H33 C35 1_555 1_555
H34 C35 1_555 1_555
C36 O20 1_555 1_555
H35 C36 1_555 1_555
H36 C36 1_555 1_555
O22 C37 1_555 1_555
O23 C38 1_555 1_555
C37 H37 1_555 1_555
H38 C37 1_555 1_555
C38 H39 1_555 1_555
H40 C38 1_555 1_555
C39 O23 1_555 1_555
H41 C39 1_555 1_555
H42 C39 1_555 1_555
C40 O22 1_555 1_555
H43 C40 1_555 1_555
H44 C40 1_555 1_555
Cu1A Cu1 1_555 1_555
Cu1B O9 1_555 1_555
Cu1C O5 1_555 1_555
Cu2A Cu3A 1_555 1_555
Cu2B O1 1_555 1_555
Cu3A O8 1_555 1_555
Cu3B O11 1_555 1_555
O1B Cu2 1_555 1_555
O2A Cu1 1_555 1_555
O5C Cu1 1_555 1_555
O8A Cu3 1_555 1_555
O9B Cu1 1_555 1_555
O11B Cu3 1_555 1_555
O12A Cu2 1_555 1_555
O2 Cu1A 1_555 1_555
C1 O10 1_555 1_555
C7 C21 1_555 1_555
C11 C16 1_555 1_555
C12 C14 1_555 1_555
C13 C17 1_555 1_555
C14 C19 1_555 1_555
C15 C20 1_555 1_555
C25 C28 1_555 1_555
C26 C27 1_555 1_555
O18 C32 1_555 1_555
C35 C36 1_555 1_555
C37 C39 1_555 1_555
C38 C40 1_555 1_555
Cu1B Cu1C 1_555 1_555
Cu2B Cu3B 1_555 1_555

#END
