
#######################################################################
#
#                 Cambridge Crystallographic Data Centre
#                                CCDC 
#
#######################################################################
#
# If this CIF has been generated from an entry in the Cambridge 
# Structural Database, then it will include bibliographic, chemical, 
# crystal, experimental, refinement or atomic coordinate data resulting 
# from the CCDC's data processing and validation procedures.
#
#######################################################################

data_HOWVAR
_symmetry_cell_setting           monoclinic
_symmetry_space_group_name_H-M   'P 21/c'
_symmetry_Int_Tables_number      14
_space_group_name_Hall           '-P 2ybc'
loop_
_symmetry_equiv_pos_site_id
_symmetry_equiv_pos_as_xyz
1 x,y,z
2 -x,1/2+y,1/2-z
3 -x,-y,-z
4 x,1/2-y,1/2+z
_cell_length_a                   14.5705(2)
_cell_length_b                   25.2421(4)
_cell_length_c                   16.0875(2)
_cell_angle_alpha                90
_cell_angle_beta                 107.1402(6)
_cell_angle_gamma                90
_cell_volume                     5654.03
loop_
_atom_site_label
_atom_site_type_symbol
_atom_site_fract_x
_atom_site_fract_y
_atom_site_fract_z
Zn1 Zn -0.22370(4) 0.28185(2) 0.30396(3)
Zn2 Zn 0.15199(3) 0.02243(2) -0.32757(3)
P1 P 0.18690(8) 0.23442(5) 0.81270(7)
P2 P -0.25061(8) 0.00994(5) -0.02445(7)
C1 C -0.2356(3) 0.07234(17) 0.0329(3)
C2 C -0.2385(3) -0.04333(18) 0.0501(3)
H1 H -0.2854 -0.0392 0.0826
H2 H -0.1734 -0.0433 0.0907
H3 H -0.2500 -0.0769 0.0181
C3 C -0.1969(3) 0.07357(19) 0.1223(3)
H4 H -0.1746 0.0419 0.1537
C4 C 0.1504(3) 0.17075(17) 0.8393(3)
H5 H 0.0828 0.1721 0.8382
H6 H 0.1901 0.1605 0.8976
H7 H 0.1583 0.1447 0.7968
C5 C -0.1910(3) 0.1215(2) 0.1655(3)
H8 H -0.1623 0.1228 0.2267
C6 C -0.2261(3) 0.16737(19) 0.1211(3)
C7 C -0.2626(3) 0.1649(2) 0.0316(3)
H9 H -0.2848 0.1966 0.0002
C8 C -0.2678(3) 0.11871(19) -0.0128(3)
H10 H -0.2932 0.1181 -0.0744
C9 C -0.2310(4) 0.2184(2) 0.1689(4)
C10 C -0.1677(3) 0.00369(18) -0.0874(3)
C11 C -0.1800(4) -0.0364(2) -0.1475(4)
H11 H -0.2262 -0.0632 -0.1492
C12 C -0.1267(4) -0.0385(2) -0.2051(4)
H12 H -0.1373 -0.0659 -0.2474
C13 C -0.0567(3) 0.00028(18) -0.2007(3)
C14 C -0.0424(3) 0.03869(17) -0.1384(3)
H13 H 0.0065 0.0643 -0.1341
C15 C -0.0968(3) 0.04131(19) -0.0815(3)
H14 H -0.0859 0.0685 -0.0388
C16 C -0.0054(3) 0.0019(2) -0.2685(3)
C17 C -0.3682(3) 0.00910(18) -0.1023(3)
C18 C -0.4456(3) -0.0119(2) -0.0808(3)
H15 H -0.4364 -0.0294 -0.0267
C19 C -0.5365(3) -0.0072(2) -0.1385(3)
H16 H -0.5899 -0.0207 -0.1228
C20 C -0.5512(3) 0.0164(2) -0.2178(3)
C21 C -0.4730(4) 0.0353(3) -0.2405(3)
H17 H -0.4821 0.0506 -0.2962
C22 C -0.3830(3) 0.0321(2) -0.1838(3)
H18 H -0.3300 0.0457 -0.2000
C23 C -0.6517(4) 0.0219(3) -0.2790(4)
C24 C 0.1136(3) 0.25662(17) 0.7074(2)
C25 C 0.0202(3) 0.23839(19) 0.6752(3)
H19 H -0.0054 0.2145 0.7083
C26 C -0.0352(3) 0.25523(19) 0.5946(3)
H20 H -0.0994 0.2428 0.5724
C27 C 0.0006(3) 0.28983(17) 0.5454(3)
C28 C 0.0923(3) 0.30976(17) 0.5800(3)
H21 H 0.1165 0.3355 0.5488
C29 C 0.1488(3) 0.29209(18) 0.6602(3)
H22 H 0.2128 0.3047 0.6827
C30 C -0.0592(3) 0.30580(17) 0.4541(3)
C31 C 0.3113(3) 0.23142(17) 0.8159(3)
C32 C 0.3491(3) 0.1854(2) 0.7912(3)
H23 H 0.3094 0.1552 0.7730
C33 C 0.4444(3) 0.1837(2) 0.7931(3)
H24 H 0.4699 0.1522 0.7764
C34 C 0.5029(3) 0.2273(2) 0.8191(3)
C35 C 0.4660(4) 0.2719(2) 0.8432(4)
H25 H 0.5063 0.3018 0.8615
C36 C 0.3702(3) 0.2749(2) 0.8418(3)
H26 H 0.3455 0.3067 0.8585
C37 C 0.6080(4) 0.2262(3) 0.8201(4)
C38 C 0.1729(3) 0.28116(17) 0.8919(3)
C39 C 0.2175(4) 0.27221(19) 0.9782(3)
H27 H 0.2553 0.2412 0.9954
C40 C 0.2081(3) 0.30792(19) 1.0408(3)
H28 H 0.2399 0.3014 1.1006
C41 C 0.1528(3) 0.35267(17) 1.0166(3)
C42 C 0.1077(3) 0.36195(19) 0.9296(3)
H29 H 0.0702 0.3931 0.9126
C43 C 0.1164(3) 0.32669(19) 0.8672(3)
H30 H 0.0842 0.3332 0.8076
C44 C 0.1469(3) 0.3920(2) 1.0859(3)
O1 O -0.2766(4) 0.25581(19) 0.1293(3)
O2 O -0.1883(3) 0.21927(15) 0.2480(3)
O3 O -0.0440(3) -0.01679(17) -0.3425(3)
O4 O 0.0743(2) 0.02602(11) -0.24749(18)
O5 O -0.6617(3) 0.0283(3) -0.3568(3)
O6 O -0.7176(2) 0.01943(13) -0.2453(2)
O7 O -0.1358(2) 0.27972(13) 0.42390(18)
O8 O -0.0287(2) 0.34101(13) 0.4172(2)
O9 O 0.6585(3) 0.2649(2) 0.8466(4)
O10 O 0.6395(3) 0.1865(2) 0.7942(3)
O11 O 0.1722(2) 0.37796(13) 1.1624(2)
O12 O 0.1174(2) 0.43824(13) 1.06070(18)
O13 O -0.1622(2) 0.34540(14) 0.2646(2)
N1 N 0.1311(3) -0.10727(17) -0.4847(3)
O14 O 0.1487(3) -0.05164(14) -0.3729(2)
C45 C 0.1825(7) -0.1487(3) -0.4298(5)
H31 H 0.2023 -0.1366 -0.3692
H32 H 0.2395 -0.1580 -0.4472
H33 H 0.1410 -0.1798 -0.4354
C46 C 0.0929(5) -0.1174(3) -0.5767(4)
H34 H 0.0640 -0.0849 -0.6065
H35 H 0.0439 -0.1452 -0.5865
H36 H 0.1448 -0.1290 -0.5997
C47 C 0.1188(3) -0.0617(2) -0.4509(3)
H37 H 0.0847 -0.0348 -0.4889
Zn1C Zn 0.77630(4) 0.21815(2) 0.80396(3)
Zn2_2 Zn -0.84801(3) 0.02243(2) -0.32757(3)
Zn2C Zn 0.15199(3) 0.47757(2) 1.17243(3)
O6_2 O 0.2824(2) 0.01943(13) -0.2453(2)
O9C O -0.3415(3) 0.2351(2) 0.3466(4)
O10C O -0.3605(3) 0.3135(2) 0.2942(3)
O12C O 0.1174(2) 0.06176(13) -0.43930(18)
O15 O 0.3100(3) 0.35051(18) 0.5615(3)
N2 N 0.4722(3) 0.3478(2) 0.6149(4)
C48 C 0.3844(4) 0.3551(3) 0.6212(5)
H38 H 0.3788 0.3647 0.6766
C49 C 0.5586(4) 0.3548(3) 0.6884(5)
H39 H 0.5402 0.3609 0.7415
H40 H 0.5950 0.3853 0.6775
H41 H 0.5984 0.3229 0.6954
C50 C 0.4848(6) 0.3345(6) 0.5322(7)
H42 H 0.4217 0.3310 0.4888
H43 H 0.5195 0.3008 0.5370
H44 H 0.5216 0.3625 0.5144
O16 O 0.2420(4) 0.4890(2) 0.9424(3)
O17 O 0.2755(4) 0.57646(19) 0.8315(3)
loop_
_geom_bond_atom_site_label_1
_geom_bond_atom_site_label_2
_geom_bond_site_symmetry_1
_geom_bond_site_symmetry_2
Zn1 O2 1_555 1_555
Zn2 O4 1_555 1_555
P1 C4 1_555 1_555
P2 C1 1_555 1_555
C1 C3 1_555 1_555
C2 P2 1_555 1_555
H1 C2 1_555 1_555
H2 C2 1_555 1_555
H3 C2 1_555 1_555
C3 H4 1_555 1_555
C4 H5 1_555 1_555
H6 C4 1_555 1_555
H7 C4 1_555 1_555
C5 C3 1_555 1_555
H8 C5 1_555 1_555
C6 C5 1_555 1_555
C7 C6 1_555 1_555
H9 C7 1_555 1_555
C8 C1 1_555 1_555
H10 C8 1_555 1_555
C9 C6 1_555 1_555
C10 P2 1_555 1_555
C11 C10 1_555 1_555
H11 C11 1_555 1_555
C12 C11 1_555 1_555
H12 C12 1_555 1_555
C13 C12 1_555 1_555
C14 C13 1_555 1_555
H13 C14 1_555 1_555
C15 C10 1_555 1_555
H14 C15 1_555 1_555
C16 C13 1_555 1_555
C17 P2 1_555 1_555
C18 C17 1_555 1_555
H15 C18 1_555 1_555
C19 C18 1_555 1_555
H16 C19 1_555 1_555
C20 C19 1_555 1_555
C21 C20 1_555 1_555
H17 C21 1_555 1_555
C22 C17 1_555 1_555
H18 C22 1_555 1_555
C23 C20 1_555 1_555
C24 P1 1_555 1_555
C25 C24 1_555 1_555
H19 C25 1_555 1_555
C26 C25 1_555 1_555
H20 C26 1_555 1_555
C27 C26 1_555 1_555
C28 C27 1_555 1_555
H21 C28 1_555 1_555
C29 C24 1_555 1_555
H22 C29 1_555 1_555
C30 C27 1_555 1_555
C31 P1 1_555 1_555
C32 C31 1_555 1_555
H23 C32 1_555 1_555
C33 C32 1_555 1_555
H24 C33 1_555 1_555
C34 C33 1_555 1_555
C35 C34 1_555 1_555
H25 C35 1_555 1_555
C36 C31 1_555 1_555
H26 C36 1_555 1_555
C37 C34 1_555 1_555
C38 P1 1_555 1_555
C39 C38 1_555 1_555
H27 C39 1_555 1_555
C40 C39 1_555 1_555
H28 C40 1_555 1_555
C41 C40 1_555 1_555
C42 C41 1_555 1_555
H29 C42 1_555 1_555
C43 C38 1_555 1_555
H30 C43 1_555 1_555
C44 C41 1_555 1_555
O1 C9 1_555 1_555
O2 C9 1_555 1_555
O3 C16 1_555 1_555
O4 C16 1_555 1_555
O5 C23 1_555 1_555
O6 C23 1_555 1_555
O7 Zn1 1_555 1_555
O8 C30 1_555 1_555
O9 C37 1_555 1_555
O10 C37 1_555 1_555
O11 C44 1_555 1_555
O12 C44 1_555 1_555
O13 Zn1 1_555 1_555
N1 C45 1_555 1_555
O14 Zn2 1_555 1_555
C45 H31 1_555 1_555
H32 C45 1_555 1_555
H33 C45 1_555 1_555
C46 N1 1_555 1_555
H34 C46 1_555 1_555
H35 C46 1_555 1_555
H36 C46 1_555 1_555
C47 N1 1_555 1_555
H37 C47 1_555 1_555
O15 C48 1_555 1_555
N2 C48 1_555 1_555
C48 H38 1_555 1_555
C49 N2 1_555 1_555
H39 C49 1_555 1_555
H40 C49 1_555 1_555
H41 C49 1_555 1_555
C50 N2 1_555 1_555
H42 C50 1_555 1_555
H43 C50 1_555 1_555
H44 C50 1_555 1_555
Zn1C O9 1_555 1_555
Zn2_2 O6 1_555 1_555
Zn2C O12 1_555 1_555
O6_2 Zn2 1_555 1_555
O9C Zn1 1_555 1_555
O10C Zn1 1_555 1_555
O12C Zn2 1_555 1_555
C7 C8 1_555 1_555
C14 C15 1_555 1_555
C21 C22 1_555 1_555
C28 C29 1_555 1_555
C30 O7 1_555 1_555
C35 C36 1_555 1_555
C42 C43 1_555 1_555
O10 Zn1C 1_555 1_555
O14 C47 1_555 1_555

#END
