
#######################################################################
#
#                 Cambridge Crystallographic Data Centre
#                                CCDC 
#
#######################################################################
#
# If this CIF has been generated from an entry in the Cambridge 
# Structural Database, then it will include bibliographic, chemical, 
# crystal, experimental, refinement or atomic coordinate data resulting 
# from the CCDC's data processing and validation procedures.
#
#######################################################################

data_HOXHOS
_symmetry_cell_setting           triclinic
_symmetry_space_group_name_H-M   'P -1'
_symmetry_Int_Tables_number      2
_space_group_name_Hall           '-P 1'
loop_
_symmetry_equiv_pos_site_id
_symmetry_equiv_pos_as_xyz
1 x,y,z
2 -x,-y,-z
_cell_length_a                   10.861(2)
_cell_length_b                   11.820(2)
_cell_length_c                   13.243(3)
_cell_angle_alpha                104.79(3)
_cell_angle_beta                 102.91(3)
_cell_angle_gamma                114.80(3)
_cell_volume                     1382.35
loop_
_atom_site_label
_atom_site_type_symbol
_atom_site_fract_x
_atom_site_fract_y
_atom_site_fract_z
P1 P -0.5000 -0.5000 0.5000
Mo1 Mo -0.23045(12) -0.25109(11) 0.76665(8)
Mo2 Mo -0.63195(11) -0.27971(11) 0.45879(9)
Mo3 Mo -0.87645(10) -0.60701(11) 0.44067(8)
Mo4 Mo -0.60140(10) -0.34281(12) 0.70628(8)
Mo5 Mo -0.74498(12) -0.82832(11) 0.47689(9)
Mo6 Mo -0.48202(12) -0.57328(12) 0.74437(8)
Cu1 Cu -0.00102(17) 0.0893(2) 0.8552(2)
N1 N 0.1724(10) 0.0913(12) 0.8514(9)
N2 N 0.8338(10) 0.1055(11) 0.8619(10)
O1 O -0.5992(14) -0.4487(14) 0.5225(12)
O2 O -0.5118(14) -0.6047(16) 0.5490(10)
O3 O -0.4722(13) -0.4437(12) 0.6247(9)
O4 O -0.3373(13) -0.3771(13) 0.5638(9)
O5 O -0.1231(18) -0.3144(14) 0.7024(9)
O6 O -0.5828(11) -0.4762(12) 0.7563(13)
O7 O -1.0492(9) -0.6531(11) 0.4134(8)
O8 O -0.6200(10) -0.3463(11) 0.3173(8)
O9 O -0.2051(17) -0.1429(15) 0.6783(10)
O10 O -0.4712(12) -0.6067(12) 0.8564(8)
O11 O -0.3050(10) -0.4027(10) 0.8023(11)
O12 O -0.8677(19) -0.7459(16) 0.4793(10)
O13 O -0.8073(11) -0.4393(10) 0.4166(7)
O14 O -0.6034(10) -0.2508(10) 0.6131(7)
O15 O -0.7870(11) -0.4938(10) 0.5970(8)
O16 O -0.4228(10) -0.1670(13) 0.5148(9)
O17 O -0.6879(13) -0.1738(11) 0.4391(9)
O18 O -0.8615(11) -0.9819(10) 0.4662(10)
O19 O -0.3952(9) -0.2366(11) 0.7720(11)
O20 O -0.1052(9) -0.1347(9) 0.8897(7)
O21 O -0.6546(11) -0.2756(11) 0.8004(8)
O22 O -0.6583(11) -0.7264(14) 0.6392(9)
C1 C 0.4240(12) 0.1701(14) 0.9456(9)
H1 H 0.5074 0.2241 1.0113
C2 C 0.4307(10) 0.0897(11) 0.8535(8)
C3 C 0.1770(12) 0.0132(14) 0.7580(12)
H2 H 0.0938 -0.0394 0.6921
C4 C 0.6690(13) 0.1118(15) 0.9545(10)
H3 H 0.6487 0.1203 1.0197
C5 C 0.2998(14) 0.1732(16) 0.9437(11)
H4 H 0.3017 0.2323 1.0065
C6 C 0.7993(12) 0.1176(15) 0.9546(11)
H5 H 0.8652 0.1302 1.0207
C7 C 0.3050(11) 0.0114(13) 0.7605(11)
H6 H 0.3045 -0.0450 0.6967
C8 C 0.6068(11) 0.0831(12) 0.7638(9)
H7 H 0.5438 0.0734 0.6976
C9 C 0.5681(11) 0.0929(11) 0.8557(10)
C10 C 0.7356(12) 0.0869(12) 0.7658(10)
H8 H 0.7561 0.0767 0.7006
Mo1A Mo -0.76955(12) -0.74891(11) 0.23335(8)
Mo2A Mo -0.36805(11) -0.72029(11) 0.54121(9)
Mo3A Mo -0.12355(10) -0.39299(11) 0.55933(8)
Mo4A Mo -0.39860(10) -0.65719(12) 0.29372(8)
Mo5A Mo -0.25502(12) -0.17168(11) 0.52311(9)
Mo6A Mo -0.51798(12) -0.42672(12) 0.25563(8)
Cu1_2 Cu -1.00102(17) 0.0893(2) 0.8552(2)
Cu1_3 Cu 0.99898(17) 0.0893(2) 0.8552(2)
Cu1A Cu -0.99898(17) -1.0893(2) 0.1448(2)
N1_2 N -0.8276(10) 0.0913(12) 0.8514(9)
N2_2 N -0.1662(10) 0.1055(11) 0.8619(10)
N2_3 N -1.1662(10) 0.1055(11) 0.8619(10)
O1A O -0.4008(14) -0.5513(14) 0.4775(12)
O2A O -0.4882(14) -0.3953(16) 0.4510(10)
O3A O -0.5278(13) -0.5563(12) 0.3753(9)
O4A O -0.6627(13) -0.6229(13) 0.4362(9)
O5A O -0.8769(18) -0.6856(14) 0.2976(9)
O6A O -0.4172(11) -0.5238(12) 0.2437(13)
O7A O 0.0492(9) -0.3469(11) 0.5866(8)
O8A O -0.3800(10) -0.6537(11) 0.6827(8)
O9A O -0.7949(17) -0.8571(15) 0.3217(10)
O9_2 O -1.2051(17) -0.1429(15) 0.6783(10)
O10A O -0.5288(12) -0.3933(12) 0.1436(8)
O11A O -0.6950(10) -0.5973(10) 0.1977(11)
O12A O -0.1323(19) -0.2541(16) 0.5207(10)
O13A O -0.1927(11) -0.5607(10) 0.5834(7)
O14A O -0.3966(10) -0.7492(10) 0.3869(7)
O15A O -0.2130(11) -0.5062(10) 0.4030(8)
O16A O -0.5772(10) -0.8330(13) 0.4852(9)
O17A O -0.3121(13) -0.8262(11) 0.5609(9)
O18A O -0.1385(11) -0.0181(10) 0.5338(10)
O19A O -0.6048(9) -0.7634(11) 0.2280(11)
O20A O -0.8948(9) -0.8653(9) 0.1103(7)
O20_2 O -1.1052(9) -0.1347(9) 0.8897(7)
O21A O -0.3454(11) -0.7244(11) 0.1996(8)
O22A O -0.3417(11) -0.2736(14) 0.3608(9)
C1_2 C -0.5760(12) 0.1701(14) 0.9456(9)
H1_2 H -0.4926 0.2241 1.0113
C2_2 C -0.5693(10) 0.0897(11) 0.8535(8)
C3_2 C -0.8230(12) 0.0132(14) 0.7580(12)
H2_2 H -0.9062 -0.0394 0.6921
C4_2 C -0.3310(13) 0.1118(15) 0.9545(10)
H3_2 H -0.3513 0.1203 1.0197
C5_2 C -0.7002(14) 0.1732(16) 0.9437(11)
H4_2 H -0.6983 0.2323 1.0065
C6_2 C -0.2007(12) 0.1176(15) 0.9546(11)
H5_2 H -0.1348 0.1302 1.0207
C7_2 C -0.6950(11) 0.0114(13) 0.7605(11)
H6_2 H -0.6955 -0.0450 0.6967
C8_2 C -0.3932(11) 0.0831(12) 0.7638(9)
H7_2 H -0.4562 0.0734 0.6976
C9_2 C -0.4319(11) 0.0929(11) 0.8557(10)
C10_2 C -0.2644(12) 0.0869(12) 0.7658(10)
H8_2 H -0.2439 0.0767 0.7006
loop_
_geom_bond_atom_site_label_1
_geom_bond_atom_site_label_2
_geom_bond_site_symmetry_1
_geom_bond_site_symmetry_2
P1 O1 1_555 1_555
Mo1 O3 1_555 1_555
Mo2 O1 1_555 1_555
Mo3 O1 1_555 1_555
Mo4 O1 1_555 1_555
Mo5 O2 1_555 1_555
Mo6 O2 1_555 1_555
Cu1 N1 1_555 1_555
N1 C3 1_555 1_555
N2 C6 1_555 1_555
O1 O3 1_555 1_555
O2 P1 1_555 1_555
O3 P1 1_555 1_555
O4 P1 1_555 1_555
O5 Mo1 1_555 1_555
O6 Mo4 1_555 1_555
O7 Mo3 1_555 1_555
O8 Mo2 1_555 1_555
O9 Mo1 1_555 1_555
O10 Mo6 1_555 1_555
O11 Mo1 1_555 1_555
O12 Mo3 1_555 1_555
O13 Mo2 1_555 1_555
O14 Mo2 1_555 1_555
O15 Mo3 1_555 1_555
O16 Mo2 1_555 1_555
O17 Mo2 1_555 1_555
O18 Mo5 1_555 1_555
O19 Mo1 1_555 1_555
O20 Mo1 1_555 1_555
O21 Mo4 1_555 1_555
O22 Mo5 1_555 1_555
C1 H1 1_555 1_555
C2 C1 1_555 1_555
C3 H2 1_555 1_555
C4 H3 1_555 1_555
C5 N1 1_555 1_555
H4 C5 1_555 1_555
C6 C4 1_555 1_555
H5 C6 1_555 1_555
C7 C2 1_555 1_555
H6 C7 1_555 1_555
C8 H7 1_555 1_555
C9 C2 1_555 1_555
C10 N2 1_555 1_555
H8 C10 1_555 1_555
Mo1A O3A 1_555 1_555
Mo2A O2 1_555 1_555
Mo3A O4 1_555 1_555
Mo4A O1A 1_555 1_555
Mo5A O4 1_555 1_555
Mo6A O8 1_555 1_555
Cu1_2 N1_2 1_555 1_555
Cu1_3 N2 1_555 1_555
Cu1A O9A 1_555 1_555
N1_2 C3_2 1_555 1_555
N2_2 Cu1 1_555 1_555
N2_3 Cu1_2 1_555 1_555
O1A P1 1_555 1_555
O2A P1 1_555 1_555
O3A P1 1_555 1_555
O4A P1 1_555 1_555
O5A Mo3 1_555 1_555
O6A Mo4A 1_555 1_555
O7A Mo3A 1_555 1_555
O8A Mo6 1_555 1_555
O9A Mo5 1_555 1_555
O9_2 Cu1_2 1_555 1_555
O10A Mo6A 1_555 1_555
O11A Mo1A 1_555 1_555
O12A Mo3A 1_555 1_555
O13A Mo2A 1_555 1_555
O14A Mo2A 1_555 1_555
O15A Mo3A 1_555 1_555
O16A Mo5 1_555 1_555
O17A Mo2A 1_555 1_555
O18A Mo5A 1_555 1_555
O19A Mo1A 1_555 1_555
O20A Mo1A 1_555 1_555
O20_2 Cu1_2 1_555 1_555
O21A Mo4A 1_555 1_555
O22A Mo5A 1_555 1_555
C1_2 H1_2 1_555 1_555
C2_2 C1_2 1_555 1_555
C3_2 H2_2 1_555 1_555
C4_2 H3_2 1_555 1_555
C5_2 N1_2 1_555 1_555
H4_2 C5_2 1_555 1_555
C6_2 N2_2 1_555 1_555
H5_2 C6_2 1_555 1_555
C7_2 C2_2 1_555 1_555
H6_2 C7_2 1_555 1_555
C8_2 H7_2 1_555 1_555
C9_2 C2_2 1_555 1_555
C10_2 N2_2 1_555 1_555
H8_2 C10_2 1_555 1_555
Mo1 O4 1_555 1_555
Mo2 O2A 1_555 1_555
Mo3 O13 1_555 1_555
Mo3 O4A 1_555 1_555
Mo4 O3 1_555 1_555
Mo4 O14 1_555 1_555
Mo4 O15 1_555 1_555
Mo4 O19 1_555 1_555
Mo5 O12 1_555 1_555
Mo5 O4A 1_555 1_555
Mo6 O3 1_555 1_555
Mo6 O6 1_555 1_555
Mo6 O11 1_555 1_555
Mo6 O22 1_555 1_555
Cu1 O9 1_555 1_555
Cu1 O20 1_555 1_555
O1 O2A 1_555 1_555
O1 O4A 1_555 1_555
O2 O3 1_555 1_555
O2 O1A 1_555 1_555
O2 O4A 1_555 1_555
O3 O4 1_555 1_555
O4 O1A 1_555 1_555
O4 O2A 1_555 1_555
O5 Mo3A 1_555 1_555
O9 Mo5A 1_555 1_555
O16 Mo5A 1_555 1_555
C1 C5 1_555 1_555
C3 C7 1_555 1_555
C4 C9 1_555 1_555
C8 C9 1_555 1_555
C8 C10 1_555 1_555
Mo1A O4A 1_555 1_555
Mo1A O5A 1_555 1_555
Mo1A O9A 1_555 1_555
Mo2A O1A 1_555 1_555
Mo2A O8A 1_555 1_555
Mo2A O16A 1_555 1_555
Mo3A O1A 1_555 1_555
Mo3A O13A 1_555 1_555
Mo4A O3A 1_555 1_555
Mo4A O14A 1_555 1_555
Mo4A O15A 1_555 1_555
Mo4A O19A 1_555 1_555
Mo5A O2A 1_555 1_555
Mo5A O12A 1_555 1_555
Mo6A O2A 1_555 1_555
Mo6A O3A 1_555 1_555
Mo6A O6A 1_555 1_555
Mo6A O11A 1_555 1_555
Mo6A O22A 1_555 1_555
Cu1A O20A 1_555 1_555
O1A O3A 1_555 1_555
O2A O3A 1_555 1_555
O3A O4A 1_555 1_555
C1_2 C5_2 1_555 1_555
C3_2 C7_2 1_555 1_555
C4_2 C6_2 1_555 1_555
C4_2 C9_2 1_555 1_555
C8_2 C9_2 1_555 1_555
C8_2 C10_2 1_555 1_555

#END
