
#######################################################################
#
#                 Cambridge Crystallographic Data Centre
#                                CCDC 
#
#######################################################################
#
# If this CIF has been generated from an entry in the Cambridge 
# Structural Database, then it will include bibliographic, chemical, 
# crystal, experimental, refinement or atomic coordinate data resulting 
# from the CCDC's data processing and validation procedures.
#
#######################################################################

data_HOXJIO
_symmetry_cell_setting           triclinic
_symmetry_space_group_name_H-M   'P -1'
_symmetry_Int_Tables_number      2
_space_group_name_Hall           '-P 1'
loop_
_symmetry_equiv_pos_site_id
_symmetry_equiv_pos_as_xyz
1 x,y,z
2 -x,-y,-z
_cell_length_a                   13.0479(9)
_cell_length_b                   19.1477(14)
_cell_length_c                   19.9355(14)
_cell_angle_alpha                73.2160(10)
_cell_angle_beta                 84.3200(10)
_cell_angle_gamma                73.0120(10)
_cell_volume                     4559.81
loop_
_atom_site_label
_atom_site_type_symbol
_atom_site_fract_x
_atom_site_fract_y
_atom_site_fract_z
C62 C 0.9204(8) 0.4703(6) 0.0993(5)
C63 C 0.9843(8) 0.4222(5) 0.0631(5)
H49 H 1.0563 0.3954 0.0761
C64 C 0.9369(8) 0.4141(6) 0.0043(6)
H50 H 0.9785 0.3834 -0.0240
C65 C 0.8303(8) 0.4515(6) -0.0104(5)
H51 H 0.7974 0.4445 -0.0475
C66 C 0.7703(8) 0.5002(6) 0.0295(5)
H52 H 0.6972 0.5258 0.0189
C67 C 0.8156(7) 0.5108(5) 0.0825(5)
H53 H 0.7761 0.5455 0.1078
N1 N 0.9648(8) 0.4807(7) 0.1582(5)
O1 O 1.0570(8) 0.4388(6) 0.1772(5)
O2 O 0.9138(8) 0.5291(6) 0.1869(5)
C74 C 0.0926(7) 0.8003(6) 0.8611(6)
C75 C 0.0443(9) 0.7490(5) 0.8498(6)
H59 H 0.0843 0.6976 0.8552
C76 C -0.0626(9) 0.7728(8) 0.8307(7)
H60 H -0.0957 0.7377 0.8230
C77 C -0.1212(7) 0.8480(10) 0.8229(7)
H61 H -0.1943 0.8643 0.8098
C78 C -0.0729(10) 0.8993(7) 0.8341(7)
H62 H -0.1129 0.9507 0.8287
C79 C 0.0340(10) 0.8755(6) 0.8532(7)
H63 H 0.0671 0.9106 0.8609
N3 N 0.2029(8) 0.7740(5) 0.8850(5)
O5 O 0.2497(12) 0.7061(7) 0.8923(9)
O6 O 0.2375(12) 0.8195(8) 0.9005(10)
Ag1 Ag 0.30363(4) 0.48574(2) 0.21046(3)
Ag2 Ag 0.27339(6) -0.17215(5) 0.52047(3)
Ag3 Ag 0.01943(11) -0.01942(8) 0.47613(8)
C1 C 0.4079(4) 0.1889(3) 0.0425(3)
C2 C 0.4386(4) 0.2170(3) -0.0280(3)
C3 C 0.4337(4) 0.1772(3) -0.0755(3)
H1 H 0.4517 0.1969 -0.1232
C4 C 0.4039(4) 0.1099(3) -0.0565(3)
C5 C 0.3899(4) 0.0722(3) -0.1081(3)
C6 C 0.4083(4) 0.1001(3) -0.1800(3)
H2 H 0.4387 0.1416 -0.1952
C7 C 0.3846(4) 0.0704(3) -0.2299(3)
C8 C 0.3369(4) 0.0097(3) -0.2082(3)
C9 C 0.3243(4) -0.0210(3) -0.1376(3)
H3 H 0.2961 -0.0635 -0.1230
C10 C 0.3507(4) 0.0069(3) -0.0859(3)
C11 C 0.3312(4) -0.0261(3) -0.0113(2)
C12 C 0.2998(4) -0.0932(3) 0.0129(2)
H4 H 0.2940 -0.1190 -0.0200
C13 C 0.2769(4) -0.1234(3) 0.0826(3)
C14 C 0.2862(4) -0.0853(3) 0.1320(2)
C15 C 0.3228(4) -0.0210(3) 0.1084(2)
H5 H 0.3324 0.0032 0.1418
C16 C 0.3464(4) 0.0100(3) 0.0376(2)
C17 C 0.3806(4) 0.0790(3) 0.0152(3)
C18 C 0.3831(4) 0.1208(3) 0.0619(3)
H6 H 0.3666 0.1008 0.1099
C19 C 0.3879(4) 0.2310(3) 0.0967(3)
C20 C 0.3222(5) 0.3056(3) 0.0830(3)
H7 H 0.2964 0.3313 0.0370
C21 C 0.2939(5) 0.3430(3) 0.1348(3)
H8 H 0.2491 0.3937 0.1245
C22 C 0.3320(5) 0.3051(3) 0.2021(3)
C23 C 0.3990(5) 0.2322(3) 0.2167(3)
H9 H 0.4265 0.2072 0.2625
C24 C 0.4262(5) 0.1952(3) 0.1635(3)
H10 H 0.4717 0.1448 0.1737
C25 C 0.3817(10) 0.3078(5) 0.3358(5)
H11 H 0.3970 0.2526 0.3456
H12 H 0.3532 0.3231 0.3783
H13 H 0.4479 0.3227 0.3208
C26 C 0.4716(4) 0.2894(3) -0.0515(3)
C27 C 0.5464(5) 0.3000(4) -0.0118(3)
H14 H 0.5784 0.2607 0.0278
C28 C 0.5727(5) 0.3680(4) -0.0310(3)
H15 H 0.6220 0.3757 -0.0038
C29 C 0.5282(5) 0.4247(3) -0.0893(3)
C30 C 0.4609(5) 0.4133(3) -0.1310(3)
H16 H 0.4344 0.4509 -0.1730
C31 C 0.4317(5) 0.3456(3) -0.1110(3)
H17 H 0.3832 0.3381 -0.1390
C32 C 0.4457(7) 0.5851(5) -0.1473(6)
H18 H 0.4403 0.5832 -0.1954
H19 H 0.4516 0.6351 -0.1480
H20 H 0.3815 0.5762 -0.1204
C33 C 0.4177(5) 0.0997(4) -0.3044(3)
C34 C 0.3994(5) 0.1749(4) -0.3380(3)
H21 H 0.3630 0.2108 -0.3131
C35 C 0.4307(6) 0.2009(4) -0.4052(4)
H22 H 0.4155 0.2539 -0.4269
C36 C 0.4862(6) 0.1484(5) -0.4426(3)
C37 C 0.5061(6) 0.0725(5) -0.4099(3)
H23 H 0.5444 0.0364 -0.4340
C38 C 0.4712(5) 0.0488(4) -0.3428(3)
H24 H 0.4836 -0.0041 -0.3214
C39 C 0.5348(7) 0.1120(6) -0.5704(4)
H25 H 0.5880 0.0648 -0.5480
H26 H 0.5534 0.1287 -0.6202
H27 H 0.4637 0.1033 -0.5656
C40 C 0.2898(4) -0.0169(3) -0.2584(3)
C41 C 0.2249(5) 0.0347(4) -0.3120(3)
H28 H 0.2143 0.0875 -0.3189
C42 C 0.1746(6) 0.0102(4) -0.3559(3)
H29 H 0.1289 0.0457 -0.3920
C43 C 0.1929(5) -0.0666(4) -0.3458(3)
C44 C 0.2584(5) -0.1197(4) -0.2934(3)
H30 H 0.2710 -0.1724 -0.2880
C45 C 0.3057(5) -0.0947(4) -0.2485(3)
H31 H 0.3488 -0.1304 -0.2112
C46 C 0.0702(7) -0.1654(6) -0.3422(4)
H32 H 0.1257 -0.2054 -0.3125
H33 H 0.0346 -0.1880 -0.3679
H34 H 0.0173 -0.1390 -0.3128
C47 C 0.2466(4) -0.1956(3) 0.1044(3)
C48 C 0.1687(4) -0.2056(3) 0.0685(3)
H35 H 0.1379 -0.1674 0.0279
C49 C 0.1355(4) -0.2716(3) 0.0919(3)
H36 H 0.0805 -0.2776 0.0680
C50 C 0.1815(4) -0.3275(3) 0.1486(3)
C51 C 0.2625(5) -0.3201(3) 0.1836(3)
H37 H 0.2957 -0.3600 0.2224
C52 C 0.2948(4) -0.2544(3) 0.1617(3)
H38 H 0.3501 -0.2490 0.1859
C53 C 0.0668(8) -0.3995(6) 0.2599(6)
H39 H 0.1197 -0.4057 0.2944
H40 H 0.0280 -0.4381 0.2776
H41 H 0.0161 -0.3489 0.2520
C54 C 0.2505(4) -0.1053(3) 0.2071(3)
C55 C 0.1511(4) -0.1204(4) 0.2257(3)
H42 H 0.1081 -0.1219 0.1907
C56 C 0.1157(5) -0.1328(4) 0.2935(3)
H43 H 0.0487 -0.1439 0.3054
C57 C 0.1764(6) -0.1295(4) 0.3459(3)
C58 C 0.2758(5) -0.1156(4) 0.3283(3)
H44 H 0.3192 -0.1148 0.3634
C59 C 0.3110(5) -0.1031(3) 0.2591(3)
H45 H 0.3783 -0.0927 0.2471
C60 C 0.0671(9) -0.2096(6) 0.4491(5)
H46 H 0.0146 -0.1973 0.4125
H47 H 0.0306 -0.2144 0.4949
H48 H 0.1208 -0.2577 0.4490
C61 C 0.2194(14) -0.3914(9) 0.6951(8)
F1 F 0.1215(8) -0.3467(6) 0.7108(6)
F2 F 0.2593(9) -0.4408(6) 0.7593(5)
F3 F 0.1958(9) -0.4365(5) 0.6609(5)
O7 O -0.1016(5) -0.0988(5) 0.5330(3)
O8 O -0.2600(7) 0.0078(6) 0.5301(4)
O9 O -0.2793(7) -0.1135(9) 0.5287(5)
S1 S -0.21277(19) -0.07159(17) 0.55067(12)
C80 C -0.2264(9) -0.1026(7) 0.6420(6)
F4 F -0.1713(9) -0.0652(5) 0.6695(5)
F5 F -0.3272(5) -0.0888(5) 0.6633(4)
F6 F -0.1782(5) -0.1756(4) 0.6700(3)
O10 O 0.2508(7) -0.2977(5) 0.5853(4)
O11 O 0.4030(8) -0.3991(6) 0.6462(6)
O12 O 0.3212(9) -0.2950(5) 0.6930(5)
O13 O 0.3979(10) 0.4996(5) 0.3015(5)
H64 H 0.352(9) 0.524(10) 0.326(8)
H65 H 0.454(7) 0.495(10) 0.324(8)
S2 S 0.28522(15) 0.35328(9) 0.26781(8)
S3 S 0.56449(15) 0.51169(9) -0.10653(9)
S4 S 0.53353(17) 0.18477(13) -0.52842(9)
S5 S 0.13116(15) -0.09815(13) -0.40382(8)
S6 S 0.13408(14) -0.41012(9) 0.17886(10)
S7 S 0.12887(19) -0.13898(17) 0.43294(9)
S8 S 0.3082(3) -0.34101(19) 0.65305(15)
Ag1A Ag 0.69637(4) 0.51426(2) -0.21046(3)
Ag1_2 Ag 0.30363(4) -0.51426(2) 0.21046(3)
Ag1_3 Ag 0.30363(4) -0.51426(2) 1.21046(3)
Ag1_4 Ag 0.30363(4) 0.48574(2) 1.21046(3)
Ag1A_2 Ag 0.69637(4) 0.51426(2) 0.78954(3)
Ag2A Ag 0.72661(6) 0.17215(5) -0.52047(3)
Ag2_2 Ag 0.27339(6) -0.17215(5) -0.47953(3)
Ag2A_2 Ag 0.72661(6) 0.17215(5) 0.47953(3)
Ag2_3 Ag 0.27339(6) -0.17215(5) 1.52047(3)
Ag3A Ag -0.01943(11) 0.01942(8) 0.52387(8)
Ag3_2 Ag 0.01943(11) -0.01942(8) -0.52387(8)
Ag3A_2 Ag -0.01943(11) 0.01942(8) -0.47613(8)
Ag3_3 Ag 0.01943(11) -0.01942(8) 1.47613(8)
C1_2 C 0.4079(4) 0.1889(3) 1.0425(3)
C2_2 C 0.4386(4) 0.2170(3) 0.9720(3)
C3_2 C 0.4337(4) 0.1772(3) 0.9245(3)
H1_2 H 0.4517 0.1969 0.8768
C4_2 C 0.4039(4) 0.1099(3) 0.9435(3)
C5_2 C 0.3899(4) 0.0722(3) 0.8919(3)
C6_2 C 0.4083(4) 0.1001(3) 0.8200(3)
H2_2 H 0.4387 0.1416 0.8048
C7_2 C 0.3846(4) 0.0704(3) 0.7701(3)
C8_2 C 0.3369(4) 0.0097(3) 0.7918(3)
C9_2 C 0.3243(4) -0.0210(3) 0.8624(3)
H3_2 H 0.2961 -0.0635 0.8770
C10_2 C 0.3507(4) 0.0069(3) 0.9141(3)
C11_2 C 0.3312(4) -0.0261(3) 0.9887(2)
C12_2 C 0.2998(4) -0.0932(3) 1.0129(2)
H4_2 H 0.2940 -0.1190 0.9800
C13_2 C 0.2769(4) -0.1234(3) 1.0826(3)
C14_2 C 0.2862(4) -0.0853(3) 1.1320(2)
C15_2 C 0.3228(4) -0.0210(3) 1.1084(2)
H5_2 H 0.3324 0.0032 1.1418
C16_2 C 0.3464(4) 0.0100(3) 1.0376(2)
C17_2 C 0.3806(4) 0.0790(3) 1.0152(3)
C18_2 C 0.3831(4) 0.1208(3) 1.0619(3)
H6_2 H 0.3666 0.1008 1.1099
C19_2 C 0.3879(4) 0.2310(3) 1.0967(3)
C20_2 C 0.3222(5) 0.3056(3) 1.0830(3)
H7_2 H 0.2964 0.3313 1.0370
C21_2 C 0.2939(5) 0.3430(3) 1.1348(3)
H8_2 H 0.2491 0.3937 1.1245
C22_2 C 0.3320(5) 0.3051(3) 1.2021(3)
C23_2 C 0.3990(5) 0.2322(3) 1.2167(3)
H9_2 H 0.4265 0.2072 1.2625
C24_2 C 0.4262(5) 0.1952(3) 1.1635(3)
H10_2 H 0.4717 0.1448 1.1737
C25_2 C 0.3817(10) 0.3078(5) 1.3358(5)
C26_2 C 0.4716(4) 0.2894(3) 0.9485(3)
C27_2 C 0.5464(5) 0.3000(4) 0.9882(3)
H14_2 H 0.5784 0.2607 1.0278
C28_2 C 0.5727(5) 0.3680(4) 0.9690(3)
H15_2 H 0.6220 0.3757 0.9962
C29_2 C 0.5282(5) 0.4247(3) 0.9107(3)
C30_2 C 0.4609(5) 0.4133(3) 0.8690(3)
H16_2 H 0.4344 0.4509 0.8270
C31_2 C 0.4317(5) 0.3456(3) 0.8890(3)
H17_2 H 0.3832 0.3381 0.8610
C32_2 C 0.4457(7) 0.5851(5) 0.8527(6)
C33_2 C 0.4177(5) 0.0997(4) 0.6956(3)
C34_2 C 0.3994(5) 0.1749(4) 0.6620(3)
H21_2 H 0.3630 0.2108 0.6869
C35_2 C 0.4307(6) 0.2009(4) 0.5948(4)
H22_2 H 0.4155 0.2539 0.5731
C36_2 C 0.4862(6) 0.1484(5) 0.5574(3)
C37_2 C 0.5061(6) 0.0725(5) 0.5901(3)
H23_2 H 0.5444 0.0364 0.5660
C38_2 C 0.4712(5) 0.0488(4) 0.6572(3)
H24_2 H 0.4836 -0.0041 0.6786
C39_2 C 0.5348(7) 0.1120(6) 0.4296(4)
C40_2 C 0.2898(4) -0.0169(3) 0.7416(3)
C41_2 C 0.2249(5) 0.0347(4) 0.6880(3)
H28_2 H 0.2143 0.0875 0.6811
C42_2 C 0.1746(6) 0.0102(4) 0.6441(3)
H29_2 H 0.1289 0.0457 0.6080
C43_2 C 0.1929(5) -0.0666(4) 0.6542(3)
C44_2 C 0.2584(5) -0.1197(4) 0.7066(3)
H30_2 H 0.2710 -0.1724 0.7120
C45_2 C 0.3057(5) -0.0947(4) 0.7515(3)
H31_2 H 0.3488 -0.1304 0.7888
C46_2 C 0.0702(7) -0.1654(6) 0.6578(4)
C47_2 C 0.2466(4) -0.1956(3) 1.1044(3)
C48_2 C 0.1687(4) -0.2056(3) 1.0685(3)
H35_2 H 0.1379 -0.1674 1.0279
C49_2 C 0.1355(4) -0.2716(3) 1.0919(3)
H36_2 H 0.0805 -0.2776 1.0680
C50_2 C 0.1815(4) -0.3275(3) 1.1486(3)
C51_2 C 0.2625(5) -0.3201(3) 1.1836(3)
H37_2 H 0.2957 -0.3600 1.2224
C52_2 C 0.2948(4) -0.2544(3) 1.1617(3)
H38_2 H 0.3501 -0.2490 1.1859
C53_2 C 0.0668(8) -0.3995(6) 1.2599(6)
C54_2 C 0.2505(4) -0.1053(3) 1.2071(3)
C55_2 C 0.1511(4) -0.1204(4) 1.2257(3)
H42_2 H 0.1081 -0.1219 1.1907
C56_2 C 0.1157(5) -0.1328(4) 1.2935(3)
H43_2 H 0.0487 -0.1439 1.3054
C57_2 C 0.1764(6) -0.1295(4) 1.3459(3)
C58_2 C 0.2758(5) -0.1156(4) 1.3283(3)
H44_2 H 0.3192 -0.1148 1.3634
C59_2 C 0.3110(5) -0.1031(3) 1.2591(3)
H45_2 H 0.3783 -0.0927 1.2471
C60_2 C 0.0671(9) -0.2096(6) 1.4491(5)
C61_2 C 0.2194(14) -0.3914(9) -0.3049(8)
F1_2 F 0.1215(8) -0.3467(6) -0.2892(6)
F2_2 F 0.2593(9) -0.4408(6) -0.2407(5)
F3_2 F 0.1958(9) -0.4365(5) -0.3391(5)
O7A O 0.1016(5) 0.0988(5) 0.4670(3)
O8A O 0.2600(7) -0.0078(6) 0.4699(4)
O9A O 0.2793(7) 0.1135(9) 0.4713(5)
S1A S 0.21277(19) 0.07159(17) 0.44933(12)
C80A C 0.2264(9) 0.1026(7) 0.3580(6)
F4A F 0.1713(9) 0.0652(5) 0.3305(5)
F5A F 0.3272(5) 0.0888(5) 0.3367(4)
F6A F 0.1782(5) 0.1756(4) 0.3300(3)
O10_2 O 0.2508(7) -0.2977(5) -0.4147(4)
O11_2 O 0.4030(8) -0.3991(6) -0.3538(6)
O12_2 O 0.3212(9) -0.2950(5) -0.3070(5)
O13_2 O 0.3979(10) 0.4996(5) 1.3015(5)
H64_2 H 0.352(9) 0.524(10) 1.326(8)
H65_2 H 0.454(7) 0.495(10) 1.324(8)
S2_2 S 0.28522(15) 0.35328(9) 1.26781(8)
S3A S 0.43551(15) 0.48831(9) 0.10653(9)
S3_2 S 0.56449(15) 0.51169(9) 0.89347(9)
S3A_2 S 0.43551(15) 0.48831(9) 1.10653(9)
S4A S 0.46647(17) -0.18477(13) 0.52842(9)
S4A_2 S 0.46647(17) -0.18477(13) -0.47158(9)
S4_2 S 0.53353(17) 0.18477(13) 0.47158(9)
S5_2 S 0.13116(15) -0.09815(13) 0.59618(8)
S5A S -0.13116(15) 0.09815(13) 0.40382(8)
S6_2 S 0.13408(14) 0.58988(9) 0.17886(10)
S6_3 S 0.13408(14) -0.41012(9) 1.17886(10)
S6_4 S 0.13408(14) 0.58988(9) 1.17886(10)
S7_2 S 0.12887(19) -0.13898(17) -0.56706(9)
S7_3 S 0.12887(19) -0.13898(17) 1.43294(9)
S7A S -0.12887(19) 0.13898(17) 0.56706(9)
S8_2 S 0.3082(3) -0.34101(19) -0.34695(15)
C68? C 0.0643(19) 0.8015(18) 0.8701(18)
C69? C -0.012(2) 0.7651(17) 0.8653(18)
H54? H 0.0014 0.7121 0.8862
C70? C -0.106(2) 0.806(2) 0.830(2)
H55? H -0.1582 0.7816 0.8267
C71? C -0.125(2) 0.884(2) 0.7993(18)
H56? H -0.1901 0.9122 0.7751
C72? C -0.049(3) 0.9203(16) 0.8040(19)
H57? H -0.0624 0.9733 0.7831
C73? C 0.045(3) 0.8791(18) 0.839(2)
H58? H 0.0972 0.9039 0.8427
N2? N 0.173(2) 0.7649(16) 0.8969(15)
O3? O 0.186(3) 0.6962(17) 0.920(2)
O4? O 0.238(3) 0.799(2) 0.898(3)
loop_
_geom_bond_atom_site_label_1
_geom_bond_atom_site_label_2
_geom_bond_site_symmetry_1
_geom_bond_site_symmetry_2
Ag1 O13 1_555 1_555
Ag2 O10 1_555 1_555
Ag3 O7 1_555 1_555
C1 C2 1_555 1_555
C2 C3 1_555 1_555
C3 H1 1_555 1_555
C4 C3 1_555 1_555
C5 C4 1_555 1_555
C6 C5 1_555 1_555
H2 C6 1_555 1_555
C7 C6 1_555 1_555
C8 C7 1_555 1_555
C9 C8 1_555 1_555
H3 C9 1_555 1_555
C10 C5 1_555 1_555
C11 C10 1_555 1_555
C12 C11 1_555 1_555
H4 C12 1_555 1_555
C13 C12 1_555 1_555
C14 C13 1_555 1_555
C15 C14 1_555 1_555
H5 C15 1_555 1_555
C16 C11 1_555 1_555
C17 C4 1_555 1_555
C18 C1 1_555 1_555
H6 C18 1_555 1_555
C19 C1 1_555 1_555
C20 C19 1_555 1_555
H7 C20 1_555 1_555
C21 C20 1_555 1_555
H8 C21 1_555 1_555
C22 C21 1_555 1_555
C23 C22 1_555 1_555
H9 C23 1_555 1_555
C24 C19 1_555 1_555
H10 C24 1_555 1_555
C25 H11 1_555 1_555
H12 C25 1_555 1_555
H13 C25 1_555 1_555
C26 C2 1_555 1_555
C27 C26 1_555 1_555
H14 C27 1_555 1_555
C28 C27 1_555 1_555
H15 C28 1_555 1_555
C29 C28 1_555 1_555
C30 C29 1_555 1_555
H16 C30 1_555 1_555
C31 C26 1_555 1_555
H17 C31 1_555 1_555
C32 H18 1_555 1_555
H19 C32 1_555 1_555
H20 C32 1_555 1_555
C33 C7 1_555 1_555
C34 C33 1_555 1_555
H21 C34 1_555 1_555
C35 C34 1_555 1_555
H22 C35 1_555 1_555
C36 C35 1_555 1_555
C37 C36 1_555 1_555
H23 C37 1_555 1_555
C38 C33 1_555 1_555
H24 C38 1_555 1_555
C39 H25 1_555 1_555
H26 C39 1_555 1_555
H27 C39 1_555 1_555
C40 C8 1_555 1_555
C41 C40 1_555 1_555
H28 C41 1_555 1_555
C42 C41 1_555 1_555
H29 C42 1_555 1_555
C43 C42 1_555 1_555
C44 C43 1_555 1_555
H30 C44 1_555 1_555
C45 C40 1_555 1_555
H31 C45 1_555 1_555
C46 H32 1_555 1_555
H33 C46 1_555 1_555
H34 C46 1_555 1_555
C47 C13 1_555 1_555
C48 C47 1_555 1_555
H35 C48 1_555 1_555
C49 C48 1_555 1_555
H36 C49 1_555 1_555
C50 C49 1_555 1_555
C51 C50 1_555 1_555
H37 C51 1_555 1_555
C52 C47 1_555 1_555
H38 C52 1_555 1_555
C53 H39 1_555 1_555
H40 C53 1_555 1_555
H41 C53 1_555 1_555
C54 C14 1_555 1_555
C55 C54 1_555 1_555
H42 C55 1_555 1_555
C56 C55 1_555 1_555
H43 C56 1_555 1_555
C57 C56 1_555 1_555
C58 C57 1_555 1_555
H44 C58 1_555 1_555
C59 C54 1_555 1_555
H45 C59 1_555 1_555
C60 H46 1_555 1_555
H47 C60 1_555 1_555
H48 C60 1_555 1_555
C61 F1 1_555 1_555
C62 C63 1_555 1_555
C63 H49 1_555 1_555
C64 C63 1_555 1_555
H50 C64 1_555 1_555
C65 C64 1_555 1_555
H51 C65 1_555 1_555
C66 C65 1_555 1_555
H52 C66 1_555 1_555
C67 C62 1_555 1_555
H53 C67 1_555 1_555
N1 C62 1_555 1_555
O1 N1 1_555 1_555
O2 N1 1_555 1_555
C74 C75 1_555 1_555
C75 H59 1_555 1_555
C76 C75 1_555 1_555
H60 C76 1_555 1_555
C77 C76 1_555 1_555
H61 C77 1_555 1_555
C78 C77 1_555 1_555
H62 C78 1_555 1_555
C79 C74 1_555 1_555
H63 C79 1_555 1_555
N3 C74 1_555 1_555
O5 N3 1_555 1_555
O6 N3 1_555 1_555
F2 C61 1_555 1_555
F3 C61 1_555 1_555
O7 S1 1_555 1_555
O8 S1 1_555 1_555
O9 S1 1_555 1_555
S1 C80 1_555 1_555
C80 F4 1_555 1_555
F5 C80 1_555 1_555
F6 C80 1_555 1_555
O10 S8 1_555 1_555
O11 S8 1_555 1_555
O12 S8 1_555 1_555
O13 H64 1_555 1_555
H65 O13 1_555 1_555
S2 Ag1 1_555 1_555
S3 C29 1_555 1_555
S4 C36 1_555 1_555
S5 C43 1_555 1_555
S6 C50 1_555 1_555
S7 Ag2 1_555 1_555
S8 C61 1_555 1_555
Ag1A S3 1_555 1_555
Ag1_2 S6 1_555 1_555
Ag1_3 S6_3 1_555 1_555
Ag1_4 O13_2 1_555 1_555
Ag1A_2 S3_2 1_555 1_555
Ag2A S4 1_555 1_555
Ag2_2 S5 1_555 1_555
Ag2A_2 S4_2 1_555 1_555
Ag2_3 S7_3 1_555 1_555
Ag3A Ag3 1_555 1_555
Ag3_2 S5 1_555 1_555
Ag3A_2 S5 1_555 1_555
Ag3_3 S7_3 1_555 1_555
C1_2 C2_2 1_555 1_555
C2_2 C3_2 1_555 1_555
C3_2 H1_2 1_555 1_555
C4_2 C3_2 1_555 1_555
C5_2 C4_2 1_555 1_555
C6_2 C5_2 1_555 1_555
H2_2 C6_2 1_555 1_555
C7_2 C6_2 1_555 1_555
C8_2 C7_2 1_555 1_555
C9_2 C8_2 1_555 1_555
H3_2 C9_2 1_555 1_555
C10_2 C5_2 1_555 1_555
C11_2 C10_2 1_555 1_555
C12_2 C11_2 1_555 1_555
H4_2 C12_2 1_555 1_555
C13_2 C12_2 1_555 1_555
C14_2 C13_2 1_555 1_555
C15_2 C14_2 1_555 1_555
H5_2 C15_2 1_555 1_555
C16_2 C11_2 1_555 1_555
C17_2 C4_2 1_555 1_555
C18_2 C1_2 1_555 1_555
H6_2 C18_2 1_555 1_555
C19_2 C1_2 1_555 1_555
C20_2 C19_2 1_555 1_555
H7_2 C20_2 1_555 1_555
C21_2 C20_2 1_555 1_555
H8_2 C21_2 1_555 1_555
C22_2 C21_2 1_555 1_555
C23_2 C22_2 1_555 1_555
H9_2 C23_2 1_555 1_555
C24_2 C19_2 1_555 1_555
H10_2 C24_2 1_555 1_555
C25_2 S2_2 1_555 1_555
C26_2 C2_2 1_555 1_555
C27_2 C26_2 1_555 1_555
H14_2 C27_2 1_555 1_555
C28_2 C27_2 1_555 1_555
H15_2 C28_2 1_555 1_555
C29_2 C28_2 1_555 1_555
C30_2 C29_2 1_555 1_555
H16_2 C30_2 1_555 1_555
C31_2 C26_2 1_555 1_555
H17_2 C31_2 1_555 1_555
C32_2 S3_2 1_555 1_555
C33_2 C7_2 1_555 1_555
C34_2 C33_2 1_555 1_555
H21_2 C34_2 1_555 1_555
C35_2 C34_2 1_555 1_555
H22_2 C35_2 1_555 1_555
C36_2 C35_2 1_555 1_555
C37_2 C36_2 1_555 1_555
H23_2 C37_2 1_555 1_555
C38_2 C33_2 1_555 1_555
H24_2 C38_2 1_555 1_555
C39_2 S4_2 1_555 1_555
C40_2 C8_2 1_555 1_555
C41_2 C40_2 1_555 1_555
H28_2 C41_2 1_555 1_555
C42_2 C41_2 1_555 1_555
H29_2 C42_2 1_555 1_555
C43_2 C42_2 1_555 1_555
C44_2 C43_2 1_555 1_555
H30_2 C44_2 1_555 1_555
C45_2 C40_2 1_555 1_555
H31_2 C45_2 1_555 1_555
C46_2 S5_2 1_555 1_555
C47_2 C13_2 1_555 1_555
C48_2 C47_2 1_555 1_555
H35_2 C48_2 1_555 1_555
C49_2 C48_2 1_555 1_555
H36_2 C49_2 1_555 1_555
C50_2 C49_2 1_555 1_555
C51_2 C50_2 1_555 1_555
H37_2 C51_2 1_555 1_555
C52_2 C47_2 1_555 1_555
H38_2 C52_2 1_555 1_555
C53_2 S6_3 1_555 1_555
C54_2 C14_2 1_555 1_555
C55_2 C54_2 1_555 1_555
H42_2 C55_2 1_555 1_555
C56_2 C55_2 1_555 1_555
H43_2 C56_2 1_555 1_555
C57_2 C56_2 1_555 1_555
C58_2 C57_2 1_555 1_555
H44_2 C58_2 1_555 1_555
C59_2 C54_2 1_555 1_555
H45_2 C59_2 1_555 1_555
C60_2 S7_3 1_555 1_555
C61_2 F1_2 1_555 1_555
F2_2 C61_2 1_555 1_555
F3_2 C61_2 1_555 1_555
O7A Ag3 1_555 1_555
O8A S1A 1_555 1_555
O9A S1A 1_555 1_555
S1A O7A 1_555 1_555
C80A S1A 1_555 1_555
F4A C80A 1_555 1_555
F5A C80A 1_555 1_555
F6A C80A 1_555 1_555
O10_2 Ag2_2 1_555 1_555
O11_2 S8_2 1_555 1_555
O12_2 S8_2 1_555 1_555
O13_2 H64_2 1_555 1_555
H65_2 O13_2 1_555 1_555
S2_2 Ag1_4 1_555 1_555
S3A Ag1 1_555 1_555
S3_2 C29_2 1_555 1_555
S3A_2 Ag1_4 1_555 1_555
S4A Ag2 1_555 1_555
S4A_2 Ag2_2 1_555 1_555
S4_2 C36_2 1_555 1_555
S5_2 Ag2 1_555 1_555
S5A Ag3 1_555 1_555
S6_2 Ag1 1_555 1_555
S6_3 C50_2 1_555 1_555
S6_4 Ag1_4 1_555 1_555
S7_2 Ag2_2 1_555 1_555
S7_3 C57_2 1_555 1_555
S7A Ag3A 1_555 1_555
S8_2 C61_2 1_555 1_555
Ag3 S7 1_555 1_555
Ag3 S5_2 1_555 1_555
C9 C10 1_555 1_555
C15 C16 1_555 1_555
C16 C17 1_555 1_555
C17 C18 1_555 1_555
C22 S2 1_555 1_555
C23 C24 1_555 1_555
C25 S2 1_555 1_555
C30 C31 1_555 1_555
C32 S3 1_555 1_555
C37 C38 1_555 1_555
C39 S4 1_555 1_555
C44 C45 1_555 1_555
C46 S5 1_555 1_555
C51 C52 1_555 1_555
C53 S6 1_555 1_555
C57 S7 1_555 1_555
C58 C59 1_555 1_555
C60 S7 1_555 1_555
C66 C67 1_555 1_555
C78 C79 1_555 1_555
O7 Ag3A 1_555 1_555
Ag3A O7A 1_555 1_555
Ag3A S5_2 1_555 1_555
Ag3A S5A 1_555 1_555
Ag3_2 Ag3A_2 1_555 1_555
C9_2 C10_2 1_555 1_555
C15_2 C16_2 1_555 1_555
C16_2 C17_2 1_555 1_555
C17_2 C18_2 1_555 1_555
C22_2 S2_2 1_555 1_555
C23_2 C24_2 1_555 1_555
C30_2 C31_2 1_555 1_555
C37_2 C38_2 1_555 1_555
C43_2 S5_2 1_555 1_555
C44_2 C45_2 1_555 1_555
C51_2 C52_2 1_555 1_555
C58_2 C59_2 1_555 1_555
O10_2 S8_2 1_555 1_555

#END
