
#######################################################################
#
#                 Cambridge Crystallographic Data Centre
#                                CCDC 
#
#######################################################################
#
# If this CIF has been generated from an entry in the Cambridge 
# Structural Database, then it will include bibliographic, chemical, 
# crystal, experimental, refinement or atomic coordinate data resulting 
# from the CCDC's data processing and validation procedures.
#
#######################################################################

data_HOXKIP
_symmetry_cell_setting           monoclinic
_symmetry_space_group_name_H-M   'P 21/n'
_symmetry_Int_Tables_number      14
_space_group_name_Hall           '-P 2yn'
loop_
_symmetry_equiv_pos_site_id
_symmetry_equiv_pos_as_xyz
1 x,y,z
2 1/2-x,1/2+y,1/2-z
3 -x,-y,-z
4 1/2+x,1/2-y,1/2+z
_cell_length_a                   17.219(5)
_cell_length_b                   10.692(3)
_cell_length_c                   17.855(6)
_cell_angle_alpha                90
_cell_angle_beta                 104.852(5)
_cell_angle_gamma                90
_cell_volume                     3177.38
loop_
_atom_site_label
_atom_site_type_symbol
_atom_site_fract_x
_atom_site_fract_y
_atom_site_fract_z
Eu1 Eu 0.07571(3) 1.13013(5) -0.51574(3)
Eu2 Eu -0.11061(3) 1.42707(5) -0.98566(3)
S1 S -0.14139(17) 1.2379(3) -0.75143(18)
S2 S -0.02021(17) 0.6872(3) -0.73956(18)
S3 S 0.09384(15) 1.2226(3) -0.75091(17)
O1 O -0.0522(4) 1.1620(7) -0.5957(5)
O2 O -0.1445(4) 1.0237(7) -0.5754(4)
O3 O -0.1830(4) 1.3582(9) -0.9042(5)
O4 O -0.3050(4) 1.2733(7) -0.9477(4)
O5 O 0.0467(4) 0.6899(7) -0.9308(4)
O6 O -0.0460(4) 0.5765(7) -0.8929(4)
O7 O 0.0199(3) 0.9335(7) -0.5730(4)
O8 O -0.0344(4) 0.7508(7) -0.5826(4)
O9 O -0.0106(4) 1.3138(7) -0.8943(4)
O10 O 0.0813(4) 1.4214(8) -0.9345(4)
O11 O 0.2831(4) 1.1204(8) -0.5900(4)
O12 O 0.1540(4) 1.0958(6) -0.6010(4)
C1 C -0.1180(7) 1.1082(11) -0.6138(7)
C2 C -0.1731(6) 1.1364(12) -0.6920(7)
C3 C -0.2496(7) 1.0959(12) -0.7212(6)
H1 H -0.2783 1.0448 -0.6958
C4 C -0.2782(7) 1.1445(12) -0.7970(7)
H2 H -0.3294 1.1257 -0.8272
C5 C -0.2277(6) 1.2197(11) -0.8237(6)
C6 C -0.2404(7) 1.2913(11) -0.8966(7)
C7 C 0.0041(6) 0.6632(10) -0.8848(6)
C8 C 0.0147(6) 0.7385(10) -0.8126(6)
C9 C 0.0516(6) 0.8539(12) -0.7951(6)
H3 H 0.0736 0.8985 -0.8294
C10 C 0.0527(6) 0.8962(10) -0.7221(6)
H4 H 0.0766 0.9709 -0.7014
C11 C 0.0150(6) 0.8170(11) -0.6839(6)
C12 C 0.0019(6) 0.8332(11) -0.6092(6)
C13 C 0.0604(7) 1.3443(11) -0.8875(7)
C14 C 0.1225(6) 1.3021(11) -0.8219(6)
C15 C 0.2031(7) 1.3094(12) -0.8083(7)
H5 H 0.2292 1.3506 -0.8408
C16 C 0.2440(6) 1.2474(12) -0.7390(8)
H6 H 0.2995 1.2406 -0.7218
C17 C 0.1901(5) 1.1976(11) -0.6998(6)
C18 C 0.2097(6) 1.1358(12) -0.6249(6)
O13 O -0.2149(4) 1.5881(6) -0.9802(5)
C19 C -0.2095(15) 1.7191(11) -0.9655(16)
O14 O 0.0762(4) 1.3405(7) -0.5693(4)
C20 C 0.0118(8) 1.4237(17) -0.6007(13)
O15 O -0.1357(7) 1.1633(11) -0.9983(8)
C21 C -0.0925(11) 1.0608(16) -0.9580(12)
Eu1B Eu -0.07571(3) 0.86987(5) -0.48426(3)
Eu1C Eu -0.42429(3) 1.36987(5) -1.01574(3)
Eu2B Eu 0.11061(3) 0.57293(5) -1.01434(3)
Eu2_2 Eu -0.11061(3) 0.42707(5) -0.98566(3)
Eu2B_2 Eu 0.11061(3) 1.57293(5) -1.01434(3)
Eu2C Eu 0.38939(3) 1.07293(5) -0.48566(3)
O2B O 0.1445(4) 0.9763(7) -0.4246(4)
O4C O 0.1950(4) 1.2267(7) -0.4477(4)
O5B O -0.0467(4) 1.3101(7) -1.0692(4)
O6_2 O -0.0460(4) 1.5765(7) -0.8929(4)
O7B O -0.0199(3) 1.0665(7) -0.4270(4)
O8B O 0.0344(4) 1.2492(7) -0.4174(4)
O10B O -0.0813(4) 1.5786(8) -1.0655(4)
O11C O -0.2169(4) 1.3796(8) -1.0900(4)
O16 O 0.2169(7) 0.4554(11) -0.5647(7)
C22 C 0.2153(12) 0.5343(18) -0.6286(10)
loop_
_geom_bond_atom_site_label_1
_geom_bond_atom_site_label_2
_geom_bond_site_symmetry_1
_geom_bond_site_symmetry_2
Eu1 O1 1_555 1_555
Eu2 O3 1_555 1_555
S1 C2 1_555 1_555
S2 C8 1_555 1_555
S3 C14 1_555 1_555
O1 C1 1_555 1_555
O2 C1 1_555 1_555
O3 C6 1_555 1_555
O4 C6 1_555 1_555
O5 C7 1_555 1_555
O6 C7 1_555 1_555
O7 Eu1 1_555 1_555
O8 C12 1_555 1_555
O9 Eu2 1_555 1_555
O10 C13 1_555 1_555
O11 C18 1_555 1_555
O12 Eu1 1_555 1_555
C1 C2 1_555 1_555
C2 C3 1_555 1_555
C3 H1 1_555 1_555
C4 C3 1_555 1_555
H2 C4 1_555 1_555
C5 S1 1_555 1_555
C6 C5 1_555 1_555
C7 C8 1_555 1_555
C8 C9 1_555 1_555
C9 H3 1_555 1_555
C10 C9 1_555 1_555
H4 C10 1_555 1_555
C11 S2 1_555 1_555
C12 O7 1_555 1_555
C13 O9 1_555 1_555
C14 C13 1_555 1_555
C15 C14 1_555 1_555
H5 C15 1_555 1_555
C16 C15 1_555 1_555
H6 C16 1_555 1_555
C17 S3 1_555 1_555
C18 O12 1_555 1_555
O13 Eu2 1_555 1_555
C19 O13 1_555 1_555
O14 Eu1 1_555 1_555
C20 O14 1_555 1_555
O15 Eu2 1_555 1_555
C21 O15 1_555 1_555
O16 C22 1_555 1_555
Eu1B O2 1_555 1_555
Eu1C O4 1_555 1_555
Eu2B O5 1_555 1_555
Eu2_2 O6 1_555 1_555
Eu2B_2 O10 1_555 1_555
Eu2C O11 1_555 1_555
O2B Eu1 1_555 1_555
O4C Eu1 1_555 1_555
O5B Eu2 1_555 1_555
O6_2 Eu2 1_555 1_555
O7B Eu1 1_555 1_555
O8B Eu1 1_555 1_555
O10B Eu2 1_555 1_555
O11C Eu2 1_555 1_555
O7 Eu1B 1_555 1_555
O8 Eu1B 1_555 1_555
C4 C5 1_555 1_555
C10 C11 1_555 1_555
C11 C12 1_555 1_555
C16 C17 1_555 1_555
C17 C18 1_555 1_555
Eu1B O7B 1_555 1_555

#END
