
#######################################################################
#
#                 Cambridge Crystallographic Data Centre
#                                CCDC 
#
#######################################################################
#
# If this CIF has been generated from an entry in the Cambridge 
# Structural Database, then it will include bibliographic, chemical, 
# crystal, experimental, refinement or atomic coordinate data resulting 
# from the CCDC's data processing and validation procedures.
#
#######################################################################

data_HOXNEO
_symmetry_cell_setting           monoclinic
_symmetry_space_group_name_H-M   'C 2'
_symmetry_Int_Tables_number      5
_space_group_name_Hall           'C 2y'
loop_
_symmetry_equiv_pos_site_id
_symmetry_equiv_pos_as_xyz
1 x,y,z
2 -x,y,-z
3 1/2+x,1/2+y,z
4 1/2-x,1/2+y,-z
_cell_length_a                   15.611(3)
_cell_length_b                   29.312(6)
_cell_length_c                   18.931(4)
_cell_angle_alpha                90
_cell_angle_beta                 103.05(3)
_cell_angle_gamma                90
_cell_volume                     8438.9
loop_
_atom_site_label
_atom_site_type_symbol
_atom_site_fract_x
_atom_site_fract_y
_atom_site_fract_z
Zn1 Zn -0.35504(6) 0.64149(2) 0.80858(4)
Zn2 Zn -0.34378(6) 0.26809(2) 1.31022(4)
O1 O -0.4369(4) 0.68739(17) 0.8317(3)
O2 O -0.4346(3) 0.61813(17) 0.7182(3)
O3 O -0.4164(4) 0.28695(17) 1.2150(3)
O4 O -0.4276(4) 0.22704(18) 1.3397(3)
N1 N -0.2508(5) 0.6187(2) 0.7661(3)
N2 N -0.2508(4) 0.6804(2) 0.8686(3)
N3 N -0.2382(4) 0.2991(2) 1.2787(3)
N4 N -0.2425(4) 0.2218(2) 1.3526(3)
N5 N -0.3590(4) 0.32047(15) 0.3839(3)
C1 C -0.3659(5) 0.31024(13) 0.4541(3)
H1 H -0.3644 0.2800 0.4693
C2 C -0.3749(5) 0.34516(18) 0.5015(2)
H2 H -0.3794 0.3383 0.5485
C3 C -0.3771(5) 0.39032(16) 0.4788(3)
C4 C -0.3703(6) 0.40056(13) 0.4086(3)
H3 H -0.3717 0.4308 0.3934
C5 C -0.3612(6) 0.36564(17) 0.3611(2)
H4 H -0.3567 0.3725 0.3141
C6 C -0.3840(6) 0.4283(3) 0.5275(5)
C7 C -0.3876(6) 0.4607(3) 0.5625(5)
C8 C -0.4021(3) 0.50267(14) 0.6020(3)
C9 C -0.4860(3) 0.51883(16) 0.6011(3)
H5 H -0.5350 0.5035 0.5746
C10 C -0.4968(3) 0.55792(17) 0.6398(3)
C11 C -0.4236(3) 0.58084(14) 0.6794(3)
C12 C -0.3396(3) 0.56468(17) 0.6803(3)
C13 C -0.3289(3) 0.52559(18) 0.6416(3)
H6 H -0.2727 0.5148 0.6422
C14 C -0.5923(5) 0.5765(3) 0.6308(5)
C15 C -0.6648(6) 0.5454(3) 0.5847(6)
H7 H -0.7214 0.5590 0.5817
H8 H -0.6630 0.5159 0.6072
H9 H -0.6545 0.5421 0.5368
C16 C -0.5974(7) 0.6236(3) 0.5949(5)
H10 H -0.6560 0.6354 0.5886
H11 H -0.5827 0.6209 0.5485
H12 H -0.5567 0.6439 0.6252
C17 C -0.6165(7) 0.5817(4) 0.7053(5)
H13 H -0.6757 0.5928 0.6982
H14 H -0.5770 0.6030 0.7346
H15 H -0.6119 0.5526 0.7291
C18 C -0.2561(6) 0.5863(3) 0.7202(4)
H16 H -0.2039 0.5753 0.7110
C19 C -0.1640(5) 0.6407(3) 0.7965(4)
H17 H -0.1603 0.6677 0.7667
C20 C -0.0825(6) 0.6120(3) 0.7971(5)
H18 H -0.0845 0.5845 0.8252
H19 H -0.0818 0.6030 0.7479
C21 C -0.0014(5) 0.6378(3) 0.8287(4)
H20 H 0.0033 0.6636 0.7978
H21 H 0.0493 0.6183 0.8305
C22 C -0.0003(6) 0.6551(3) 0.9051(4)
H22 H 0.0527 0.6726 0.9233
H23 H -0.0005 0.6293 0.9373
C23 C -0.0832(5) 0.6856(3) 0.9034(4)
H24 H -0.0842 0.6955 0.9521
H25 H -0.0812 0.7125 0.8738
C24 C -0.1652(5) 0.6576(3) 0.8715(4)
H26 H -0.1634 0.6306 0.9023
C25 C -0.2563(5) 0.7211(2) 0.8905(4)
H27 H -0.2039 0.7366 0.9086
C26 C -0.3389(3) 0.74604(16) 0.8897(3)
C27 C -0.4223(3) 0.72702(13) 0.8685(3)
C28 C -0.4956(3) 0.75173(17) 0.8764(3)
C29 C -0.4855(3) 0.79547(17) 0.9054(3)
H28 H -0.5345 0.8120 0.9107
C30 C -0.4020(4) 0.81450(13) 0.9266(3)
C31 C -0.3288(3) 0.78978(16) 0.9188(3)
H29 H -0.2729 0.8025 0.9330
C32 C -0.5897(5) 0.7304(3) 0.8599(5)
C33 C -0.5902(7) 0.6854(4) 0.9042(6)
H30 H -0.6481 0.6725 0.8930
H31 H -0.5734 0.6921 0.9551
H32 H -0.5493 0.6641 0.8918
C34 C -0.6200(6) 0.7185(4) 0.7792(4)
H33 H -0.6207 0.7456 0.7506
H34 H -0.6781 0.7057 0.7701
H35 H -0.5802 0.6967 0.7662
C35 C -0.6583(6) 0.7629(4) 0.8783(6)
H36 H -0.6594 0.7906 0.8511
H37 H -0.6434 0.7697 0.9292
H38 H -0.7152 0.7487 0.8660
C36 C -0.3894(6) 0.8629(3) 0.9525(5)
C37 C -0.3815(7) 0.9019(3) 0.9716(6)
C38 C -0.3723(6) 0.9483(2) 0.9943(5)
C39 C -0.3294(6) 0.9598(3) 1.0646(5)
H39 H -0.3029 0.9371 1.0967
C40 C -0.3260(6) 1.0050(3) 1.0871(5)
H40 H -0.2973 1.0126 1.1342
N6 N -0.3655(6) 1.0388(2) 1.0393(7)
C41 C -0.4084(7) 1.0274(3) 0.9689(6)
H41 H -0.4349 1.0500 0.9369
C42 C -0.4118(6) 0.9822(4) 0.9464(4)
H42 H -0.4405 0.9745 0.8993
C43 C -0.3846(6) 0.4795(3) 1.0241(5)
N7 N -0.3712(4) 0.58952(15) 0.8816(3)
C44 C -0.3359(5) 0.59450(15) 0.9555(3)
H43 H -0.3093 0.6218 0.9734
C45 C -0.3404(5) 0.5586(2) 1.0026(2)
H44 H -0.3168 0.5620 1.0520
C46 C -0.3801(4) 0.51782(17) 0.9758(3)
C47 C -0.4154(5) 0.51284(16) 0.9020(3)
H45 H -0.4420 0.4855 0.8841
C48 C -0.4109(5) 0.54869(19) 0.8549(2)
H46 H -0.4345 0.5454 0.8055
C49 C -0.3864(6) 0.4445(3) 1.0574(5)
C50 C -0.3910(4) 0.40312(14) 1.0991(3)
C51 C -0.3168(3) 0.38283(17) 1.1421(3)
H47 H -0.2615 0.3953 1.1442
C52 C -0.3254(3) 0.34394(16) 1.1820(3)
C53 C -0.4081(3) 0.32534(13) 1.1788(2)
C54 C -0.4822(3) 0.34563(16) 1.1357(3)
C55 C -0.4737(3) 0.38452(16) 1.0959(3)
H48 H -0.5233 0.3981 1.0671
C56 C -0.5765(5) 0.3265(3) 1.1326(4)
C57 C -0.6482(6) 0.3551(3) 1.0829(5)
H49 H -0.7049 0.3423 1.0826
H50 H -0.6386 0.3549 1.0346
H51 H -0.6457 0.3859 1.1005
C58 C -0.5854(6) 0.2773(3) 1.1014(5)
H52 H -0.6436 0.2660 1.0999
H53 H -0.5430 0.2578 1.1317
H54 H -0.5752 0.2776 1.0532
C59 C -0.5973(6) 0.3268(4) 1.2094(5)
H55 H -0.6554 0.3150 1.2063
H56 H -0.5940 0.3575 1.2275
H57 H -0.5553 0.3081 1.2416
C60 C -0.2416(5) 0.3276(3) 1.2280(4)
H58 H -0.1891 0.3388 1.2194
C61 C -0.1541(5) 0.2867(2) 1.3296(4)
H59 H -0.1548 0.3004 1.3767
C62 C -0.0673(5) 0.3022(3) 1.3089(5)
H60 H -0.0631 0.2886 1.2631
H61 H -0.0669 0.3351 1.3036
C63 C 0.0106(6) 0.2871(3) 1.3689(5)
H62 H 0.0650 0.2955 1.3556
H63 H 0.0086 0.3031 1.4134
C64 C 0.0102(5) 0.2365(3) 1.3820(4)
H64 H 0.0201 0.2208 1.3395
H65 H 0.0585 0.2290 1.4224
C65 C -0.0739(6) 0.2196(3) 1.3982(5)
H66 H -0.0795 0.2313 1.4449
H67 H -0.0725 0.1865 1.4009
C66 C -0.1540(5) 0.2348(2) 1.3391(4)
H68 H -0.1487 0.2209 1.2932
C67 C -0.2540(5) 0.1834(3) 1.3796(4)
H69 H -0.2045 0.1651 1.3944
C68 C -0.3388(3) 0.16454(16) 1.3899(3)
C69 C -0.4205(3) 0.18571(13) 1.3717(3)
C70 C -0.4948(3) 0.16303(18) 1.3823(3)
C71 C -0.4874(3) 0.11919(18) 1.4110(3)
H70 H -0.5372 0.1040 1.4180
C72 C -0.4057(4) 0.09802(14) 1.4292(3)
C73 C -0.3314(3) 0.12070(17) 1.4187(3)
H71 H -0.2767 0.1065 1.4308
C74 C -0.5866(5) 0.1868(3) 1.3664(4)
C75 C -0.5823(7) 0.2306(3) 1.4110(5)
H72 H -0.5365 0.2499 1.4015
H73 H -0.5701 0.2231 1.4617
H74 H -0.6376 0.2462 1.3979
C76 C -0.6167(6) 0.1999(3) 1.2843(4)
H75 H -0.5733 0.2193 1.2711
H76 H -0.6719 0.2157 1.2762
H77 H -0.6232 0.1727 1.2553
C77 C -0.6608(6) 0.1559(3) 1.3841(6)
H78 H -0.6453 0.1471 1.4342
H79 H -0.6676 0.1292 1.3542
H80 H -0.7151 0.1726 1.3749
C78 C -0.3794(6) -0.0373(2) 1.4943(5)
C79 C -0.3653(7) -0.0721(3) 1.4484(5)
H81 H -0.3603 -0.0654 1.4015
C80 C -0.3588(7) -0.1170(2) 1.4726(6)
H82 H -0.3493 -0.1404 1.4419
N8 N -0.3663(8) -0.1271(3) 1.5427(7)
C81 C -0.3803(10) -0.0923(4) 1.5886(6)
H83 H -0.3854 -0.0990 1.6355
C82 C -0.3869(9) -0.0473(3) 1.5644(6)
H84 H -0.3963 -0.0240 1.5951
C83 C -0.3965(6) 0.0498(3) 1.4569(6)
C90 C -0.3886(7) 0.0132(4) 1.4776(8)
Zn2_2 Zn -0.34378(6) 0.26809(2) 0.31022(4)
N5_2 N -0.3590(4) 0.32047(15) 1.3839(3)
C84 C -0.7656(13) 0.4919(15) 0.7694(12)
H85 H -0.7068 0.4844 0.7874
C85 C -0.795(2) 0.5361(12) 0.7765(10)
H86 H -0.7551 0.5583 0.7992
C86 C -0.882(3) 0.5473(8) 0.7497(14)
H87 H -0.9018 0.5769 0.7544
C87 C -0.9413(13) 0.5142(15) 0.7157(12)
H88 H -1.0001 0.5217 0.6978
C88 C -0.912(2) 0.4700(12) 0.7087(11)
H89 H -0.9519 0.4478 0.6860
C89 C -0.825(3) 0.4588(9) 0.7355(15)
H90 H -0.8052 0.4292 0.7308
C91 C -0.7085(12) 0.9239(13) 0.7219(9)
H91 H -0.7669 0.9320 0.7039
C92 C -0.643(2) 0.9569(7) 0.7310(11)
H92 H -0.6576 0.9871 0.7191
C93 C -0.5557(19) 0.9447(10) 0.7579(11)
H93 H -0.5119 0.9668 0.7640
C94 C -0.5338(12) 0.8996(12) 0.7757(9)
H94 H -0.4754 0.8914 0.7937
C95 C -0.599(2) 0.8665(7) 0.7666(11)
H95 H -0.5847 0.8363 0.7785
C96 C -0.6866(18) 0.8787(10) 0.7397(11)
H96 H -0.7305 0.8566 0.7336
loop_
_geom_bond_atom_site_label_1
_geom_bond_atom_site_label_2
_geom_bond_site_symmetry_1
_geom_bond_site_symmetry_2
Zn1 O1 1_555 1_555
Zn2 O3 1_555 1_555
O1 C27 1_555 1_555
O2 Zn1 1_555 1_555
O3 C53 1_555 1_555
O4 Zn2 1_555 1_555
N1 Zn1 1_555 1_555
N2 Zn1 1_555 1_555
N3 Zn2 1_555 1_555
N4 Zn2 1_555 1_555
N5 C1 1_555 1_555
C1 H1 1_555 1_555
C2 C1 1_555 1_555
H2 C2 1_555 1_555
C3 C2 1_555 1_555
C4 C3 1_555 1_555
H3 C4 1_555 1_555
C5 N5 1_555 1_555
H4 C5 1_555 1_555
C6 C3 1_555 1_555
C7 C6 1_555 1_555
C8 C7 1_555 1_555
C9 C8 1_555 1_555
H5 C9 1_555 1_555
C10 C9 1_555 1_555
C11 O2 1_555 1_555
C12 C11 1_555 1_555
C13 C8 1_555 1_555
H6 C13 1_555 1_555
C14 C10 1_555 1_555
C15 C14 1_555 1_555
H7 C15 1_555 1_555
H8 C15 1_555 1_555
H9 C15 1_555 1_555
C16 C14 1_555 1_555
H10 C16 1_555 1_555
H11 C16 1_555 1_555
H12 C16 1_555 1_555
C17 C14 1_555 1_555
H13 C17 1_555 1_555
H14 C17 1_555 1_555
H15 C17 1_555 1_555
C18 N1 1_555 1_555
H16 C18 1_555 1_555
C19 N1 1_555 1_555
H17 C19 1_555 1_555
C20 C19 1_555 1_555
H18 C20 1_555 1_555
H19 C20 1_555 1_555
C21 C20 1_555 1_555
H20 C21 1_555 1_555
H21 C21 1_555 1_555
C22 C21 1_555 1_555
H22 C22 1_555 1_555
H23 C22 1_555 1_555
C23 C22 1_555 1_555
H24 C23 1_555 1_555
H25 C23 1_555 1_555
C24 N2 1_555 1_555
H26 C24 1_555 1_555
C25 N2 1_555 1_555
H27 C25 1_555 1_555
C26 C25 1_555 1_555
C27 C26 1_555 1_555
C28 C27 1_555 1_555
C29 C28 1_555 1_555
H28 C29 1_555 1_555
C30 C29 1_555 1_555
C31 C26 1_555 1_555
H29 C31 1_555 1_555
C32 C28 1_555 1_555
C33 C32 1_555 1_555
H30 C33 1_555 1_555
H31 C33 1_555 1_555
H32 C33 1_555 1_555
C34 C32 1_555 1_555
H33 C34 1_555 1_555
H34 C34 1_555 1_555
H35 C34 1_555 1_555
C35 C32 1_555 1_555
H36 C35 1_555 1_555
H37 C35 1_555 1_555
H38 C35 1_555 1_555
C36 C30 1_555 1_555
C37 C36 1_555 1_555
C38 C37 1_555 1_555
C39 C38 1_555 1_555
H39 C39 1_555 1_555
C40 C39 1_555 1_555
H40 C40 1_555 1_555
N6 C40 1_555 1_555
C41 N6 1_555 1_555
H41 C41 1_555 1_555
C42 C38 1_555 1_555
H42 C42 1_555 1_555
C43 C46 1_555 1_555
N7 Zn1 1_555 1_555
C44 N7 1_555 1_555
H43 C44 1_555 1_555
C45 C44 1_555 1_555
H44 C45 1_555 1_555
C46 C45 1_555 1_555
C47 C46 1_555 1_555
H45 C47 1_555 1_555
C48 N7 1_555 1_555
H46 C48 1_555 1_555
C49 C43 1_555 1_555
C50 C49 1_555 1_555
C51 C50 1_555 1_555
H47 C51 1_555 1_555
C52 C51 1_555 1_555
C53 C52 1_555 1_555
C54 C53 1_555 1_555
C55 C50 1_555 1_555
H48 C55 1_555 1_555
C56 C54 1_555 1_555
C57 C56 1_555 1_555
H49 C57 1_555 1_555
H50 C57 1_555 1_555
H51 C57 1_555 1_555
C58 C56 1_555 1_555
H52 C58 1_555 1_555
H53 C58 1_555 1_555
H54 C58 1_555 1_555
C59 C56 1_555 1_555
H55 C59 1_555 1_555
H56 C59 1_555 1_555
H57 C59 1_555 1_555
C60 N3 1_555 1_555
H58 C60 1_555 1_555
C61 N3 1_555 1_555
H59 C61 1_555 1_555
C62 C61 1_555 1_555
H60 C62 1_555 1_555
H61 C62 1_555 1_555
C63 C62 1_555 1_555
H62 C63 1_555 1_555
H63 C63 1_555 1_555
C64 C63 1_555 1_555
H64 C64 1_555 1_555
H65 C64 1_555 1_555
C65 C64 1_555 1_555
H66 C65 1_555 1_555
H67 C65 1_555 1_555
C66 N4 1_555 1_555
H68 C66 1_555 1_555
C67 N4 1_555 1_555
H69 C67 1_555 1_555
C68 C67 1_555 1_555
C69 O4 1_555 1_555
C70 C69 1_555 1_555
C71 C70 1_555 1_555
H70 C71 1_555 1_555
C72 C71 1_555 1_555
C73 C68 1_555 1_555
H71 C73 1_555 1_555
C74 C70 1_555 1_555
C75 C74 1_555 1_555
H72 C75 1_555 1_555
H73 C75 1_555 1_555
H74 C75 1_555 1_555
C76 C74 1_555 1_555
H75 C76 1_555 1_555
H76 C76 1_555 1_555
H77 C76 1_555 1_555
C77 C74 1_555 1_555
H78 C77 1_555 1_555
H79 C77 1_555 1_555
H80 C77 1_555 1_555
C78 C79 1_555 1_555
C79 H81 1_555 1_555
C80 C79 1_555 1_555
H82 C80 1_555 1_555
N8 C80 1_555 1_555
C81 N8 1_555 1_555
H83 C81 1_555 1_555
C82 C78 1_555 1_555
H84 C82 1_555 1_555
C83 C72 1_555 1_555
C84 H85 1_555 1_555
C85 C84 1_555 1_555
H86 C85 1_555 1_555
C86 C85 1_555 1_555
H87 C86 1_555 1_555
C87 C86 1_555 1_555
H88 C87 1_555 1_555
C88 C87 1_555 1_555
H89 C88 1_555 1_555
C89 C84 1_555 1_555
H90 C89 1_555 1_555
C90 C78 1_555 1_555
C91 H91 1_555 1_555
C92 C91 1_555 1_555
H92 C92 1_555 1_555
C93 C92 1_555 1_555
H93 C93 1_555 1_555
C94 C93 1_555 1_555
H94 C94 1_555 1_555
C95 C94 1_555 1_555
H95 C95 1_555 1_555
C96 C91 1_555 1_555
H96 C96 1_555 1_555
Zn2_2 N5 1_555 1_555
N5_2 Zn2 1_555 1_555
C4 C5 1_555 1_555
C10 C11 1_555 1_555
C12 C13 1_555 1_555
C12 C18 1_555 1_555
C19 C24 1_555 1_555
C23 C24 1_555 1_555
C30 C31 1_555 1_555
C41 C42 1_555 1_555
C47 C48 1_555 1_555
C52 C60 1_555 1_555
C54 C55 1_555 1_555
C61 C66 1_555 1_555
C65 C66 1_555 1_555
C68 C69 1_555 1_555
C72 C73 1_555 1_555
C81 C82 1_555 1_555
C83 C90 1_555 1_555
C88 C89 1_555 1_555
C95 C96 1_555 1_555

#END
