
#######################################################################
#
#                 Cambridge Crystallographic Data Centre
#                                CCDC 
#
#######################################################################
#
# If this CIF has been generated from an entry in the Cambridge 
# Structural Database, then it will include bibliographic, chemical, 
# crystal, experimental, refinement or atomic coordinate data resulting 
# from the CCDC's data processing and validation procedures.
#
#######################################################################

data_HOXNEO01
_symmetry_cell_setting           monoclinic
_symmetry_space_group_name_H-M   'C 2'
_symmetry_Int_Tables_number      5
_space_group_name_Hall           'C 2y'
loop_
_symmetry_equiv_pos_site_id
_symmetry_equiv_pos_as_xyz
1 x,y,z
2 -x,y,-z
3 1/2+x,1/2+y,z
4 1/2-x,1/2+y,-z
_cell_length_a                   14.4846(14)
_cell_length_b                   25.908(3)
_cell_length_c                   22.624(2)
_cell_angle_alpha                90
_cell_angle_beta                 92.096(2)
_cell_angle_gamma                90
_cell_volume                     8484.36
loop_
_atom_site_label
_atom_site_type_symbol
_atom_site_fract_x
_atom_site_fract_y
_atom_site_fract_z
Zn1 Zn 0.64629(7) 0.24201(3) 0.17385(4)
Zn2 Zn 0.64557(7) -0.11440(3) -0.32590(4)
O1 O 0.5589(5) 0.2955(3) 0.1391(3)
O2 O 0.5630(4) 0.2128(2) 0.2314(2)
O3 O 0.5616(5) -0.0804(3) -0.2711(3)
O4 O 0.5582(4) -0.1687(2) -0.3565(3)
N1 N 0.7568(5) 0.2052(3) 0.2203(3)
N2 N 0.7544(5) 0.2945(3) 0.1623(3)
N3 N 0.7526(5) -0.1623(3) -0.3508(3)
N4 N 0.7553(5) -0.0873(3) -0.2705(3)
N5 N 0.6396(4) -0.0601(2) 0.60421(18)
C1 C 0.6466(5) -0.0073(2) 0.61420(18)
H1 H 0.6550 0.0052 0.6526
C2 C 0.6411(6) 0.02692(17) 0.5669(3)
H2 H 0.6459 0.0623 0.5735
C3 C 0.6286(5) 0.0083(2) 0.5095(2)
C4 C 0.6216(5) -0.0445(2) 0.49951(17)
H3 H 0.6132 -0.0570 0.4611
C5 C 0.6271(5) -0.07871(17) 0.5469(2)
H4 H 0.6223 -0.1140 0.5402
C6 C 0.6192(8) 0.0441(4) 0.4603(4)
C7 C 0.6098(8) 0.0708(4) 0.4178(4)
C8 C 0.5988(5) 0.10697(18) 0.3660(2)
C9 C 0.5107(4) 0.1231(2) 0.3480(3)
H5 H 0.4594 0.1106 0.3670
C10 C 0.4992(3) 0.1580(2) 0.3017(3)
C11 C 0.5758(4) 0.1767(2) 0.2733(2)
C12 C 0.6640(3) 0.1606(2) 0.2913(2)
C13 C 0.6754(3) 0.1257(2) 0.3377(2)
H6 H 0.7344 0.1149 0.3497
C14 C 0.3996(7) 0.1732(4) 0.2803(4)
C15 C 0.3894(7) 0.2320(4) 0.2936(5)
H7 H 0.4325 0.2512 0.2711
H8 H 0.4016 0.2381 0.3350
H9 H 0.3276 0.2429 0.2830
C16 C 0.3815(7) 0.1616(5) 0.2141(5)
H10 H 0.3870 0.1251 0.2074
H11 H 0.4259 0.1796 0.1914
H12 H 0.3204 0.1728 0.2024
C17 C 0.3249(8) 0.1440(5) 0.3160(5)
H13 H 0.3288 0.1076 0.3083
H14 H 0.2645 0.1562 0.3039
H15 H 0.3355 0.1502 0.3575
C18 C 0.7507(6) 0.1750(3) 0.2647(3)
H16 H 0.8051 0.1613 0.2811
C19 C 0.8443(5) 0.2193(3) 0.1958(3)
H17 H 0.8431 0.2053 0.1555
C20 C 0.9308(7) 0.2003(4) 0.2247(4)
H18 H 0.9294 0.1629 0.2261
H19 H 0.9354 0.2130 0.2650
C21 C 1.0165(6) 0.2178(3) 0.1915(4)
H20 H 1.0719 0.2076 0.2139
H21 H 1.0169 0.2007 0.1534
C22 C 1.0170(7) 0.2757(4) 0.1825(5)
H22 H 1.0675 0.2966 0.1923
C23 C 0.9271(7) 0.2961(4) 0.1558(5)
H23 H 0.9205 0.2845 0.1151
H24 H 0.9292 0.3335 0.1555
C24 C 0.8440(5) 0.2787(3) 0.1890(3)
H25 H 0.8492 0.2937 0.2287
C25 C 0.7445(7) 0.3394(4) 0.1406(4)
H26 H 0.7978 0.3593 0.1390
C26 C 0.6590(4) 0.3635(2) 0.1179(3)
C27 C 0.5707(5) 0.3431(2) 0.1212(2)
C28 C 0.4944(4) 0.3723(3) 0.1028(3)
C29 C 0.5065(5) 0.4219(3) 0.0811(3)
H27 H 0.4555 0.4414 0.0688
C30 C 0.5949(6) 0.44235(19) 0.0778(3)
C31 C 0.6712(4) 0.4132(3) 0.0962(3)
H28 H 0.7303 0.4268 0.0940
C32 C 0.3935(7) 0.3508(4) 0.0986(4)
C33 C 0.3864(9) 0.3078(5) 0.0522(5)
H29 H 0.4039 0.3212 0.0146
H30 H 0.3240 0.2954 0.0490
H31 H 0.4269 0.2800 0.0638
C34 C 0.3222(7) 0.3918(6) 0.0813(5)
H32 H 0.3389 0.4080 0.0450
H33 H 0.3204 0.4174 0.1120
H34 H 0.2625 0.3761 0.0761
C35 C 0.3650(8) 0.3261(6) 0.1574(5)
H35 H 0.3029 0.3134 0.1530
H36 H 0.3684 0.3516 0.1882
H37 H 0.4060 0.2981 0.1674
C36 C 0.6075(8) 0.4954(6) 0.0575(5)
C37 C 0.6173(9) 0.5416(6) 0.0418(5)
C38 C 0.6312(9) 0.5945(4) 0.0291(9)
C39 C 0.6074(10) 0.6078(5) -0.0290(8)
H38 H 0.5903 0.5822 -0.0562
C40 C 0.6092(9) 0.6592(6) -0.0466(6)
H39 H 0.5932 0.6680 -0.0854
N6 N 0.6347(8) 0.6973(4) -0.0060(8)
C41 C 0.6585(10) 0.6841(6) 0.0521(7)
H40 H 0.6755 0.7096 0.0793
C42 C 0.6567(9) 0.6327(7) 0.0697(6)
H41 H 0.6726 0.6238 0.1086
N7 N 0.6445(7) -0.5697(3) -0.5098(7)
C43 C 0.6640(8) -0.5565(2) -0.4512(6)
H42 H 0.6817 -0.5818 -0.4239
C44 C 0.6569(7) -0.5054(3) -0.4332(4)
H43 H 0.6699 -0.4965 -0.3940
C45 C 0.6304(5) -0.4675(3) -0.4739(3)
C46 C 0.6109(6) -0.4808(4) -0.5326(4)
H44 H 0.5932 -0.4555 -0.5599
C47 C 0.6180(6) -0.5319(5) -0.5506(5)
H45 H 0.6050 -0.5408 -0.5898
C48 C 0.6252(8) -0.4132(5) -0.4562(5)
C49 C 0.6131(8) -0.3699(4) -0.4439(5)
C50 C 0.5975(5) -0.31613(17) -0.4224(2)
C51 C 0.5091(4) -0.2959(2) -0.4185(3)
H46 H 0.4580 -0.3157 -0.4299
C52 C 0.4971(3) -0.2460(3) -0.3975(2)
C53 C 0.5735(4) -0.21633(18) -0.3805(2)
C54 C 0.6620(3) -0.2366(2) -0.3844(2)
C55 C 0.6739(3) -0.2865(2) -0.4053(3)
H47 H 0.7331 -0.3001 -0.4079
C56 C 0.3971(7) -0.2239(4) -0.3968(4)
C57 C 0.3692(8) -0.2085(5) -0.3338(5)
H48 H 0.3713 -0.2384 -0.3087
H49 H 0.3077 -0.1946 -0.3354
H50 H 0.4114 -0.1829 -0.3182
C58 C 0.3227(8) -0.2634(5) -0.4191(5)
H51 H 0.3206 -0.2917 -0.3919
H52 H 0.3383 -0.2759 -0.4574
H53 H 0.2635 -0.2468 -0.4218
C59 C 0.3935(9) -0.1789(5) -0.4414(6)
H54 H 0.4381 -0.1532 -0.4295
H55 H 0.3328 -0.1639 -0.4426
H56 H 0.4072 -0.1916 -0.4800
C60 C 0.7472(7) -0.2082(4) -0.3704(3)
H57 H 0.8025 -0.2253 -0.3764
C61 C 0.8436(5) -0.1360(3) -0.3407(3)
H58 H 0.8443 -0.1071 -0.3687
C62 C 0.9306(7) -0.1673(5) -0.3511(5)
H59 H 0.9279 -0.1814 -0.3909
H60 H 0.9348 -0.1958 -0.3234
C63 C 1.0153(8) -0.1327(4) -0.3430(5)
H61 H 1.0708 -0.1527 -0.3490
H62 H 1.0125 -0.1051 -0.3719
C64 C 1.0185(6) -0.1103(4) -0.2814(4)
H63 H 1.0718 -0.0878 -0.2769
H64 H 1.0261 -0.1381 -0.2529
C65 C 0.9310(6) -0.0794(4) -0.2675(4)
H65 H 0.9341 -0.0686 -0.2264
H66 H 0.9274 -0.0487 -0.2920
C66 C 0.8460(5) -0.1121(3) -0.2790(3)
H67 H 0.8504 -0.1408 -0.2509
C67 C 0.7467(7) -0.0533(4) -0.2301(4)
H68 H 0.8014 -0.0429 -0.2110
C68 C 0.6640(4) -0.0289(2) -0.2099(2)
C69 C 0.5763(4) -0.0435(2) -0.2305(2)
C70 C 0.4986(3) -0.0222(2) -0.2056(3)
C71 C 0.5087(4) 0.0136(2) -0.1601(3)
H69 H 0.4568 0.0278 -0.1435
C72 C 0.5965(5) 0.02818(19) -0.1395(2)
C73 C 0.6741(4) 0.0069(2) -0.1644(2)
H70 H 0.7329 0.0167 -0.1506
C74 C 0.3986(8) -0.0365(4) -0.2269(4)
C75 C 0.3780(8) -0.0946(4) -0.2137(5)
H71 H 0.3162 -0.1027 -0.2273
H72 H 0.3844 -0.1006 -0.1719
H73 H 0.4209 -0.1159 -0.2339
C76 C 0.3880(10) -0.0274(6) -0.2933(5)
H74 H 0.3266 -0.0365 -0.3067
H75 H 0.4319 -0.0482 -0.3133
H76 H 0.3989 0.0084 -0.3016
C77 C 0.3254(8) -0.0045(5) -0.1951(6)
H77 H 0.2648 -0.0147 -0.2092
H78 H 0.3344 0.0315 -0.2031
H79 H 0.3315 -0.0104 -0.1533
C78 C 0.6106(7) 0.0608(4) -0.0882(4)
C79 C 0.6169(7) 0.0900(4) -0.0478(4)
C80 C 0.6258(5) 0.1259(2) 0.0033(2)
C81 C 0.6418(6) 0.10512(16) 0.0594(3)
H80 H 0.6480 0.0696 0.0641
C82 C 0.6488(5) 0.1374(2) 0.10838(19)
H81 H 0.6595 0.1235 0.1459
N8 N 0.6396(5) 0.19050(19) 0.1013(2)
C83 C 0.6236(6) 0.21125(17) 0.0452(3)
H82 H 0.6175 0.2468 0.0405
C84 C 0.6167(6) 0.1789(2) -0.00380(18)
H83 H 0.6059 0.1928 -0.0413
Zn2_2 Zn 0.64557(7) -0.11440(3) 0.67410(4)
N5_2 N 0.6396(4) -0.0601(2) -0.39579(18)
C85 C 0.1006(5) 0.0763(3) 0.2395(4)
H84 H 0.1601 0.0848 0.2287
C86 C 0.0385(5) 0.0552(3) 0.1979(3)
H85 H 0.0564 0.0496 0.1593
C87 C -0.0504(5) 0.0425(3) 0.2139(3)
H86 H -0.0920 0.0283 0.1861
C88 C -0.0771(5) 0.0508(3) 0.2715(3)
H87 H -0.1366 0.0423 0.2822
C89 C -0.0150(6) 0.0719(3) 0.3131(3)
H88 H -0.0328 0.0775 0.3516
C90 C 0.0739(6) 0.0846(3) 0.2971(4)
H89 H 0.1155 0.0987 0.3249
C91 C 0.5000 0.1886(8) 0.5000
H90 H 0.5000 0.1528 0.5000
C92 C 0.5780(10) 0.2176(6) 0.5034(6)
H91 H 0.6347 0.2007 0.5051
C93 C 0.5774(10) 0.2698(5) 0.5045(5)
H92 H 0.6335 0.2871 0.5085
C94 C 0.5000 0.2977(8) 0.5000
H93 H 0.5000 0.3336 0.5000
C92A C 0.4220(10) 0.2176(6) 0.4966(6)
H91A H 0.3653 0.2007 0.4949
C93A C 0.4226(10) 0.2698(5) 0.4955(5)
H92A H 0.3665 0.2871 0.4915
C95 C 0.5000 0.8477(11) 1.0000
H94 H 0.5000 0.8118 1.0000
C96 C 0.5789(13) 0.8749(6) 1.0002(6)
H95 H 0.6345 0.8569 1.0018
C97 C 0.5818(11) 0.9263(6) 0.9982(6)
H96 H 0.6373 0.9441 0.9957
C98 C 0.5000 0.9510(12) 1.0000
H97 H 0.5000 0.9869 1.0000
C96A C 0.4211(13) 0.8749(6) 0.9998(6)
H95A H 0.3655 0.8569 0.9982
C97A C 0.4182(11) 0.9263(6) 1.0018(6)
H96A H 0.3627 0.9441 1.0043
loop_
_geom_bond_atom_site_label_1
_geom_bond_atom_site_label_2
_geom_bond_site_symmetry_1
_geom_bond_site_symmetry_2
Zn1 O1 1_555 1_555
Zn2 O3 1_555 1_555
O1 C27 1_555 1_555
O2 Zn1 1_555 1_555
O3 C69 1_555 1_555
O4 Zn2 1_555 1_555
N1 Zn1 1_555 1_555
N2 Zn1 1_555 1_555
N3 Zn2 1_555 1_555
N4 Zn2 1_555 1_555
N5 C1 1_555 1_555
C1 H1 1_555 1_555
C2 C1 1_555 1_555
H2 C2 1_555 1_555
C3 C2 1_555 1_555
C4 C3 1_555 1_555
H3 C4 1_555 1_555
C5 N5 1_555 1_555
H4 C5 1_555 1_555
C6 C3 1_555 1_555
C7 C6 1_555 1_555
C8 C7 1_555 1_555
C9 C8 1_555 1_555
H5 C9 1_555 1_555
C10 C9 1_555 1_555
C11 O2 1_555 1_555
C12 C11 1_555 1_555
C13 C8 1_555 1_555
H6 C13 1_555 1_555
C14 C10 1_555 1_555
C15 C14 1_555 1_555
H7 C15 1_555 1_555
H8 C15 1_555 1_555
H9 C15 1_555 1_555
C16 C14 1_555 1_555
H10 C16 1_555 1_555
H11 C16 1_555 1_555
H12 C16 1_555 1_555
C17 C14 1_555 1_555
H13 C17 1_555 1_555
H14 C17 1_555 1_555
H15 C17 1_555 1_555
C18 N1 1_555 1_555
H16 C18 1_555 1_555
C19 N1 1_555 1_555
H17 C19 1_555 1_555
C20 C19 1_555 1_555
H18 C20 1_555 1_555
H19 C20 1_555 1_555
C21 C20 1_555 1_555
H20 C21 1_555 1_555
H21 C21 1_555 1_555
C22 C21 1_555 1_555
H22 C22 1_555 1_555
C23 C22 1_555 1_555
H23 C23 1_555 1_555
H24 C23 1_555 1_555
C24 N2 1_555 1_555
H25 C24 1_555 1_555
C25 N2 1_555 1_555
H26 C25 1_555 1_555
C26 C25 1_555 1_555
C27 C26 1_555 1_555
C28 C27 1_555 1_555
C29 C28 1_555 1_555
H27 C29 1_555 1_555
C30 C29 1_555 1_555
C31 C26 1_555 1_555
H28 C31 1_555 1_555
C32 C28 1_555 1_555
C33 C32 1_555 1_555
H29 C33 1_555 1_555
H30 C33 1_555 1_555
H31 C33 1_555 1_555
C34 C32 1_555 1_555
H32 C34 1_555 1_555
H33 C34 1_555 1_555
H34 C34 1_555 1_555
C35 C32 1_555 1_555
H35 C35 1_555 1_555
H36 C35 1_555 1_555
H37 C35 1_555 1_555
C36 C30 1_555 1_555
C37 C36 1_555 1_555
C38 C37 1_555 1_555
C39 C38 1_555 1_555
H38 C39 1_555 1_555
C40 C39 1_555 1_555
H39 C40 1_555 1_555
N6 C40 1_555 1_555
C41 N6 1_555 1_555
H40 C41 1_555 1_555
C42 C38 1_555 1_555
H41 C42 1_555 1_555
N7 C43 1_555 1_555
C43 H42 1_555 1_555
C44 C43 1_555 1_555
H43 C44 1_555 1_555
C45 C44 1_555 1_555
C46 C45 1_555 1_555
H44 C46 1_555 1_555
C47 N7 1_555 1_555
H45 C47 1_555 1_555
C48 C45 1_555 1_555
C49 C48 1_555 1_555
C50 C49 1_555 1_555
C51 C50 1_555 1_555
H46 C51 1_555 1_555
C52 C51 1_555 1_555
C53 O4 1_555 1_555
C54 C53 1_555 1_555
C55 C50 1_555 1_555
H47 C55 1_555 1_555
C56 C52 1_555 1_555
C57 C56 1_555 1_555
H48 C57 1_555 1_555
H49 C57 1_555 1_555
H50 C57 1_555 1_555
C58 C56 1_555 1_555
H51 C58 1_555 1_555
H52 C58 1_555 1_555
H53 C58 1_555 1_555
C59 C56 1_555 1_555
H54 C59 1_555 1_555
H55 C59 1_555 1_555
H56 C59 1_555 1_555
C60 N3 1_555 1_555
H57 C60 1_555 1_555
C61 N3 1_555 1_555
H58 C61 1_555 1_555
C62 C61 1_555 1_555
H59 C62 1_555 1_555
H60 C62 1_555 1_555
C63 C62 1_555 1_555
H61 C63 1_555 1_555
H62 C63 1_555 1_555
C64 C63 1_555 1_555
H63 C64 1_555 1_555
H64 C64 1_555 1_555
C65 C64 1_555 1_555
H65 C65 1_555 1_555
H66 C65 1_555 1_555
C66 N4 1_555 1_555
H67 C66 1_555 1_555
C67 N4 1_555 1_555
H68 C67 1_555 1_555
C68 C67 1_555 1_555
C69 C68 1_555 1_555
C70 C69 1_555 1_555
C71 C70 1_555 1_555
H69 C71 1_555 1_555
C72 C71 1_555 1_555
C73 C68 1_555 1_555
H70 C73 1_555 1_555
C74 C70 1_555 1_555
C75 C74 1_555 1_555
H71 C75 1_555 1_555
H72 C75 1_555 1_555
H73 C75 1_555 1_555
C76 C74 1_555 1_555
H74 C76 1_555 1_555
H75 C76 1_555 1_555
H76 C76 1_555 1_555
C77 C74 1_555 1_555
H77 C77 1_555 1_555
H78 C77 1_555 1_555
H79 C77 1_555 1_555
C78 C72 1_555 1_555
C79 C78 1_555 1_555
C80 C79 1_555 1_555
C81 C80 1_555 1_555
H80 C81 1_555 1_555
C82 C81 1_555 1_555
H81 C82 1_555 1_555
N8 Zn1 1_555 1_555
C83 N8 1_555 1_555
H82 C83 1_555 1_555
C84 C80 1_555 1_555
H83 C84 1_555 1_555
C85 H84 1_555 1_555
C86 C85 1_555 1_555
H85 C86 1_555 1_555
C87 C86 1_555 1_555
H86 C87 1_555 1_555
C88 C87 1_555 1_555
H87 C88 1_555 1_555
C89 C88 1_555 1_555
H88 C89 1_555 1_555
C90 C85 1_555 1_555
H89 C90 1_555 1_555
C91 H90 1_555 1_555
C92 C91 1_555 1_555
H91 C92 1_555 1_555
C93 C92 1_555 1_555
H92 C93 1_555 1_555
C94 C93 1_555 1_555
H93 C94 1_555 1_555
C95 H94 1_555 1_555
C96 C95 1_555 1_555
H95 C96 1_555 1_555
C97 C96 1_555 1_555
H96 C97 1_555 1_555
C98 C97 1_555 1_555
H97 C98 1_555 1_555
Zn2_2 N5 1_555 1_555
N5_2 Zn2 1_555 1_555
C92A C91 1_555 1_555
H91A C92A 1_555 1_555
C93A C94 1_555 1_555
H92A C93A 1_555 1_555
C96A C95 1_555 1_555
H95A C96A 1_555 1_555
C97A C98 1_555 1_555
H96A C97A 1_555 1_555
C4 C5 1_555 1_555
C10 C11 1_555 1_555
C12 C13 1_555 1_555
C12 C18 1_555 1_555
C19 C24 1_555 1_555
C23 C24 1_555 1_555
C30 C31 1_555 1_555
C41 C42 1_555 1_555
C46 C47 1_555 1_555
C52 C53 1_555 1_555
C54 C55 1_555 1_555
C54 C60 1_555 1_555
C61 C66 1_555 1_555
C65 C66 1_555 1_555
C72 C73 1_555 1_555
C82 N8 1_555 1_555
C83 C84 1_555 1_555
C89 C90 1_555 1_555
C92A C93A 1_555 1_555
C96A C97A 1_555 1_555

#END
