
#######################################################################
#
#                 Cambridge Crystallographic Data Centre
#                                CCDC 
#
#######################################################################
#
# If this CIF has been generated from an entry in the Cambridge 
# Structural Database, then it will include bibliographic, chemical, 
# crystal, experimental, refinement or atomic coordinate data resulting 
# from the CCDC's data processing and validation procedures.
#
#######################################################################

data_HOXQIU
_symmetry_cell_setting           monoclinic
_symmetry_space_group_name_H-M   'P 21/a'
_symmetry_Int_Tables_number      14
_space_group_name_Hall           '-P 2yab'
loop_
_symmetry_equiv_pos_site_id
_symmetry_equiv_pos_as_xyz
1 x,y,z
2 1/2+x,1/2-y,z
3 -x,-y,-z
4 1/2-x,1/2+y,-z
_cell_length_a                   10.974(3)
_cell_length_b                   8.575(5)
_cell_length_c                   14.898(5)
_cell_angle_alpha                90
_cell_angle_beta                 91.33(3)
_cell_angle_gamma                90
_cell_volume                     1401.55
loop_
_atom_site_label
_atom_site_type_symbol
_atom_site_fract_x
_atom_site_fract_y
_atom_site_fract_z
S1 S 0.28864(19) 0.9578(3) -0.22415(16)
O1 O 0.0272(5) 0.4142(7) -0.3648(4)
O2 O 0.0886(5) 0.4534(8) -0.1627(4)
N1 N 0.0938(6) 0.7727(8) -0.2537(4)
C1 C 0.2024(7) 0.8126(9) -0.2730(6)
C2 C 0.2592(7) 0.7225(11) -0.3484(6)
C3 C 0.0366(7) 0.8622(11) -0.1818(6)
C4 C -0.0719(9) 0.3516(13) -0.4176(7)
C5 C -0.0441(11) 0.1893(15) -0.4329(12)
C6 C 0.0772(10) 0.1618(12) -0.4114(7)
C7 C 0.1243(9) 0.3104(14) -0.3734(8)
C8 C 0.0349(10) 0.3212(12) -0.1203(10)
C9 C 0.1162(13) 0.2700(15) -0.0487(8)
C10 C 0.2208(10) 0.3716(16) -0.0493(8)
C11 C 0.2005(9) 0.4808(14) -0.1198(8)
Li1 Li 0.0083(11) 0.5611(19) -0.2631(9)
H1 H 0.2638 0.6156 -0.3324
H2 H 0.2107 0.7346 -0.4014
H3 H 0.3388 0.7616 -0.3579
H4 H 0.0851 0.8536 -0.1284
H5 H 0.0305 0.9683 -0.1991
H6 H -0.0423 0.8214 -0.1718
H7 H -0.1458 0.3613 -0.3862
H8 H -0.0790 0.4057 -0.4732
H9 H -0.0936 0.1264 -0.3961
H10 H -0.0594 0.1647 -0.4941
H11 H 0.0850 0.0805 -0.3684
H12 H 0.1206 0.1349 -0.4636
H13 H 0.1828 0.3536 -0.4119
H14 H 0.1608 0.2917 -0.3158
H15 H -0.0416 0.3505 -0.0964
H16 H 0.0229 0.2403 -0.1628
H17 H 0.0769 0.2773 0.0072
H18 H 0.1402 0.1654 -0.0589
H19 H 0.2289 0.4244 0.0062
H20 H 0.2920 0.3128 -0.0602
H21 H 0.2632 0.4712 -0.1624
H22 H 0.2010 0.5833 -0.0959
Li1A Li 0.5083(11) 0.9389(19) -0.2631(9)
S1A S -0.21136(19) 0.5422(3) -0.22415(16)
loop_
_geom_bond_atom_site_label_1
_geom_bond_atom_site_label_2
_geom_bond_site_symmetry_1
_geom_bond_site_symmetry_2
S1 C1 1_555 1_555
O1 C4 1_555 1_555
O2 C8 1_555 1_555
N1 C1 1_555 1_555
C1 C2 1_555 1_555
C2 H1 1_555 1_555
C3 N1 1_555 1_555
C4 C5 1_555 1_555
C5 C6 1_555 1_555
C6 C7 1_555 1_555
C7 O1 1_555 1_555
C8 C9 1_555 1_555
C9 C10 1_555 1_555
C10 C11 1_555 1_555
C11 O2 1_555 1_555
Li1 O1 1_555 1_555
H2 C2 1_555 1_555
H3 C2 1_555 1_555
H4 C3 1_555 1_555
H5 C3 1_555 1_555
H6 C3 1_555 1_555
H7 C4 1_555 1_555
H8 C4 1_555 1_555
H9 C5 1_555 1_555
H10 C5 1_555 1_555
H11 C6 1_555 1_555
H12 C6 1_555 1_555
H13 C7 1_555 1_555
H14 C7 1_555 1_555
H15 C8 1_555 1_555
H16 C8 1_555 1_555
H17 C9 1_555 1_555
H18 C9 1_555 1_555
H19 C10 1_555 1_555
H20 C10 1_555 1_555
H21 C11 1_555 1_555
H22 C11 1_555 1_555
Li1A S1 1_555 1_555
S1A Li1 1_555 1_555
O2 Li1 1_555 1_555
N1 Li1 1_555 1_555

#END
