
#######################################################################
#
#                 Cambridge Crystallographic Data Centre
#                                CCDC 
#
#######################################################################
#
# If this CIF has been generated from an entry in the Cambridge 
# Structural Database, then it will include bibliographic, chemical, 
# crystal, experimental, refinement or atomic coordinate data resulting 
# from the CCDC's data processing and validation procedures.
#
#######################################################################

data_HOXQEQ
_symmetry_cell_setting           monoclinic
_symmetry_space_group_name_H-M   'P 21/a'
_symmetry_Int_Tables_number      14
_space_group_name_Hall           '-P 2yab'
loop_
_symmetry_equiv_pos_site_id
_symmetry_equiv_pos_as_xyz
1 x,y,z
2 1/2+x,1/2-y,z
3 -x,-y,-z
4 1/2-x,1/2+y,-z
_cell_length_a                   9.129(2)
_cell_length_b                   11.099(2)
_cell_length_c                   12.537(2)
_cell_angle_alpha                90
_cell_angle_beta                 94.14(2)
_cell_angle_gamma                90
_cell_volume                     1266.97
loop_
_atom_site_label
_atom_site_type_symbol
_atom_site_fract_x
_atom_site_fract_y
_atom_site_fract_z
S1 S 0.5945(1) 0.2308(1) 0.1896(1)
O1 O 0.8345(3) 0.4164(3) 0.0323(3)
N1 N 0.7191(4) 0.4169(3) 0.2824(3)
C1 C 0.7504(5) 0.5204(5) 0.3553(4)
C2 C 0.6304(5) 0.6157(5) 0.3472(4)
C3 C 0.8894(6) 0.5776(5) 0.3179(5)
C4 C 0.7842(5) 0.4787(5) 0.4708(4)
C5 C 0.6095(5) 0.3465(5) 0.2846(4)
C6 C 0.4883(5) 0.3476(5) 0.3612(4)
C7 C 0.7137(7) 0.4948(6) 0.0017(5)
C8 C 0.6502(7) 0.4497(6) -0.1013(6)
C9 C 0.7727(7) 0.3913(7) -0.1506(5)
C10 C 0.8813(6) 0.3630(6) -0.0626(5)
Li1 Li 0.8382(8) 0.3397(8) 0.1686(7)
H1 H 0.6547 0.6787 0.3970
H2 H 0.6214 0.6483 0.2770
H3 H 0.5394 0.5808 0.3631
H4 H 0.9665 0.5198 0.3210
H5 H 0.8720 0.6058 0.2467
H6 H 0.9177 0.6437 0.3635
H7 H 0.7026 0.4354 0.4941
H8 H 0.8682 0.4277 0.4745
H9 H 0.8031 0.5468 0.5155
H10 H 0.4378 0.4221 0.3558
H11 H 0.4219 0.2834 0.3440
H12 H 0.5305 0.3372 0.4324
H13 H 0.6427 0.4912 0.0536
H14 H 0.7469 0.5748 -0.0051
H15 H 0.5740 0.3931 -0.0917
H16 H 0.6125 0.5140 -0.1450
H17 H 0.7405 0.3189 -0.1861
H18 H 0.8136 0.4435 -0.2001
H19 H 0.9741 0.3947 -0.0777
H20 H 0.8886 0.2781 -0.0537
Li1A Li 0.3382(8) 0.1603(8) 0.1686(7)
S1A S 1.0945(1) 0.2692(1) 0.1896(1)
loop_
_geom_bond_atom_site_label_1
_geom_bond_atom_site_label_2
_geom_bond_site_symmetry_1
_geom_bond_site_symmetry_2
S1 C5 1_555 1_555
O1 C7 1_555 1_555
N1 C1 1_555 1_555
C1 C2 1_555 1_555
C2 H1 1_555 1_555
C3 C1 1_555 1_555
C4 C1 1_555 1_555
C5 N1 1_555 1_555
C6 C5 1_555 1_555
C7 C8 1_555 1_555
C8 C9 1_555 1_555
C9 C10 1_555 1_555
C10 O1 1_555 1_555
Li1 S1 1_555 1_555
H2 C2 1_555 1_555
H3 C2 1_555 1_555
H4 C3 1_555 1_555
H5 C3 1_555 1_555
H6 C3 1_555 1_555
H7 C4 1_555 1_555
H8 C4 1_555 1_555
H9 C4 1_555 1_555
H10 C6 1_555 1_555
H11 C6 1_555 1_555
H12 C6 1_555 1_555
H13 C7 1_555 1_555
H14 C7 1_555 1_555
H15 C8 1_555 1_555
H16 C8 1_555 1_555
H17 C9 1_555 1_555
H18 C9 1_555 1_555
H19 C10 1_555 1_555
H20 C10 1_555 1_555
Li1A S1 1_555 1_555
S1A Li1 1_555 1_555
O1 Li1 1_555 1_555
N1 Li1 1_555 1_555

#END
