
#######################################################################
#
#                 Cambridge Crystallographic Data Centre
#                                CCDC 
#
#######################################################################
#
# If this CIF has been generated from an entry in the Cambridge 
# Structural Database, then it will include bibliographic, chemical, 
# crystal, experimental, refinement or atomic coordinate data resulting 
# from the CCDC's data processing and validation procedures.
#
#######################################################################

data_HOXSOC
_symmetry_cell_setting           monoclinic
_symmetry_space_group_name_H-M   'P 21/c'
_symmetry_Int_Tables_number      14
_space_group_name_Hall           '-P 2ybc'
loop_
_symmetry_equiv_pos_site_id
_symmetry_equiv_pos_as_xyz
1 x,y,z
2 x,1/2-y,1/2+z
3 -x,-y,-z
4 -x,1/2+y,1/2-z
_cell_length_a                   11.590(3)
_cell_length_b                   20.555(4)
_cell_length_c                   16.158(3)
_cell_angle_alpha                90
_cell_angle_beta                 103.865(5)
_cell_angle_gamma                90
_cell_volume                     3737.2
loop_
_atom_site_label
_atom_site_type_symbol
_atom_site_fract_x
_atom_site_fract_y
_atom_site_fract_z
Cu1 Cu 0.03670(3) 0.087951(15) 0.51259(2)
Cu2 Cu -0.48185(3) -0.176070(16) 0.16203(2)
Cu3 Cu -0.37740(3) 0.053860(16) 0.20728(2)
Cu4 Cu -0.43827(3) 0.289950(16) 0.15538(2)
Cu5 Cu -0.74285(3) 0.415580(17) -0.03900(2)
Cu6 Cu -1.02444(3) 0.525340(18) -0.26548(2)
Cu7 Cu -0.12139(3) 0.475210(15) 0.38375(2)
Cu8 Cu -0.03237(3) 0.323420(15) 0.47287(2)
N1 N -0.1920(2) 0.39889(10) 0.33268(14)
N2 N -0.1594(2) 0.33690(10) 0.36515(14)
N3 N -0.3020(2) 0.32708(10) 0.24542(14)
N4 N 0.1022(2) -0.04530(10) 0.57010(14)
N5 N 0.2406(2) -0.03321(11) 0.69193(15)
N6 N 0.1291(2) 0.02023(10) 0.58131(14)
N7 N -0.4016(2) -0.25794(12) 0.22122(14)
N8 N -0.5776(2) -0.24387(11) 0.08123(14)
N9 N -1.1615(2) 0.52614(12) -0.36910(15)
N10 N -1.0569(2) 0.62499(12) -0.27071(14)
C1 C 0.0037(2) 0.23363(11) 0.49437(15)
N11 N 0.0245(2) 0.17835(13) 0.50412(17)
C2 C -0.4648(2) -0.08646(14) 0.17437(17)
N12 N -0.4478(2) -0.03097(11) 0.18270(15)
C3 C -0.3981(2) 0.14161(14) 0.17541(16)
N13 N -0.4109(2) 0.19704(11) 0.16289(15)
C4 C -0.5577(2) 0.34225(13) 0.08796(16)
N14 N -0.6307(2) 0.37302(12) 0.04293(16)
C5 C -0.8408(2) 0.45592(14) -0.13109(16)
N15 N -0.9098(3) 0.48075(14) -0.18532(18)
C6 C -0.0653(2) 0.55404(11) 0.43074(15)
N16 N -0.0267(2) 0.60080(13) 0.46595(17)
C7 C -0.2761(2) 0.39023(13) 0.26225(18)
H1 H -0.3134 0.4242 0.2280
C8 C -0.2267(2) 0.29672(13) 0.31096(16)
H2 H -0.2230 0.2517 0.3171
C9 C 0.1709(2) -0.07429(13) 0.63724(17)
H3 H 0.1709 -0.1190 0.6458
C10 C 0.2111(2) 0.02472(13) 0.65401(17)
H4 H 0.2448 0.0639 0.6765
C11 C -0.3139(3) -0.26366(16) 0.29088(18)
H5 H -0.2836 -0.2262 0.3206
C12 C -0.2653(3) -0.32445(18) 0.3214(2)
H6 H -0.2034 -0.3269 0.3700
C13 C -0.3099(3) -0.37932(17) 0.2789(2)
H7 H -0.2778 -0.4196 0.2983
C14 C -0.4044(3) -0.37577(15) 0.2058(2)
C15 C -0.4608(3) -0.43118(15) 0.1589(2)
H8 H -0.4330 -0.4727 0.1760
C16 C -0.5536(3) -0.42440(15) 0.0905(2)
H9 H -0.5892 -0.4612 0.0620
C17 C -0.5981(3) -0.36087(15) 0.0609(2)
C18 C -0.6930(3) -0.35042(16) -0.0102(2)
H10 H -0.7328 -0.3855 -0.0406
C19 C -0.7262(3) -0.28806(17) -0.0344(2)
H11 H -0.7883 -0.2804 -0.0818
C20 C -0.6665(3) -0.23612(15) 0.01249(18)
H12 H -0.6898 -0.1940 -0.0051
C21 C -0.5436(2) -0.30603(14) 0.10463(18)
C22 C -0.4467(2) -0.31332(14) 0.17904(17)
C23 C -1.2168(3) 0.47624(15) -0.41512(19)
H13 H -1.1912 0.4342 -0.3991
C24 C -1.3124(3) 0.48471(16) -0.4870(2)
H14 H -1.3489 0.4488 -0.5173
C25 C -1.3511(3) 0.54657(16) -0.51169(18)
H15 H -1.4138 0.5527 -0.5591
C26 C -1.2954(2) 0.60053(15) -0.46492(17)
C27 C -1.3287(3) 0.66673(16) -0.48587(18)
H16 H -1.3919 0.6755 -0.5321
C28 C -1.2701(3) 0.71663(15) -0.43984(18)
H17 H -1.2915 0.7592 -0.4563
C29 C -1.1747(3) 0.70502(14) -0.36541(18)
C30 C -1.1128(3) 0.75492(16) -0.3135(2)
H18 H -1.1292 0.7983 -0.3280
C31 C -1.0277(3) 0.73883(16) -0.2410(2)
H19 H -0.9873 0.7712 -0.2054
C32 C -1.0030(3) 0.67315(16) -0.22156(19)
H20 H -0.9462 0.6628 -0.1721
C33 C -1.1415(2) 0.64060(14) -0.34172(17)
C34 C -1.2012(2) 0.58722(14) -0.39366(17)
N6B N -0.1291(2) -0.02023(10) 0.41869(14)
N4B N -0.1022(2) 0.04530(10) 0.42990(14)
N16B N 0.0267(2) 0.39920(13) 0.53405(17)
N5B N -0.2406(2) 0.03321(11) 0.30807(15)
Cu1B Cu -0.03670(3) -0.087951(15) 0.48741(2)
Cu8B Cu 0.03237(3) 0.676580(15) 0.52713(2)
Cu3B Cu 0.37740(3) -0.053860(16) 0.79272(2)
loop_
_geom_bond_atom_site_label_1
_geom_bond_atom_site_label_2
_geom_bond_site_symmetry_1
_geom_bond_site_symmetry_2
Cu1 N6 1_555 1_555
Cu2 N7 1_555 1_555
Cu3 N12 1_555 1_555
Cu4 N3 1_555 1_555
Cu5 N14 1_555 1_555
Cu6 N9 1_555 1_555
Cu7 N1 1_555 1_555
Cu8 N2 1_555 1_555
N1 N2 1_555 1_555
N2 C8 1_555 1_555
N3 C7 1_555 1_555
N4 N6 1_555 1_555
N5 C9 1_555 1_555
N6 C10 1_555 1_555
N7 C11 1_555 1_555
N8 Cu2 1_555 1_555
N9 C23 1_555 1_555
N10 Cu6 1_555 1_555
C1 Cu8 1_555 1_555
N11 Cu1 1_555 1_555
C2 Cu2 1_555 1_555
N12 C2 1_555 1_555
C3 Cu3 1_555 1_555
N13 Cu4 1_555 1_555
C4 Cu4 1_555 1_555
N14 C4 1_555 1_555
C5 Cu5 1_555 1_555
N15 Cu6 1_555 1_555
C6 Cu7 1_555 1_555
N16 C6 1_555 1_555
C7 N1 1_555 1_555
H1 C7 1_555 1_555
C8 N3 1_555 1_555
H2 C8 1_555 1_555
C9 N4 1_555 1_555
H3 C9 1_555 1_555
C10 N5 1_555 1_555
H4 C10 1_555 1_555
C11 H5 1_555 1_555
C12 C11 1_555 1_555
H6 C12 1_555 1_555
C13 C12 1_555 1_555
H7 C13 1_555 1_555
C14 C13 1_555 1_555
C15 C14 1_555 1_555
H8 C15 1_555 1_555
C16 C15 1_555 1_555
H9 C16 1_555 1_555
C17 C16 1_555 1_555
C18 C17 1_555 1_555
H10 C18 1_555 1_555
C19 C18 1_555 1_555
H11 C19 1_555 1_555
C20 N8 1_555 1_555
H12 C20 1_555 1_555
C21 N8 1_555 1_555
C22 N7 1_555 1_555
C23 H13 1_555 1_555
C24 C23 1_555 1_555
H14 C24 1_555 1_555
C25 C24 1_555 1_555
H15 C25 1_555 1_555
C26 C25 1_555 1_555
C27 C26 1_555 1_555
H16 C27 1_555 1_555
C28 C27 1_555 1_555
H17 C28 1_555 1_555
C29 C28 1_555 1_555
C30 C29 1_555 1_555
H18 C30 1_555 1_555
C31 C30 1_555 1_555
H19 C31 1_555 1_555
C32 N10 1_555 1_555
H20 C32 1_555 1_555
C33 N10 1_555 1_555
C34 N9 1_555 1_555
N6B N4B 1_555 1_555
N4B Cu1 1_555 1_555
N16B Cu8 1_555 1_555
N5B Cu3 1_555 1_555
Cu1B N4 1_555 1_555
Cu8B N16 1_555 1_555
Cu3B N5 1_555 1_555
C1 N11 1_555 1_555
C3 N13 1_555 1_555
C5 N15 1_555 1_555
C14 C22 1_555 1_555
C17 C21 1_555 1_555
C19 C20 1_555 1_555
C21 C22 1_555 1_555
C26 C34 1_555 1_555
C29 C33 1_555 1_555
C31 C32 1_555 1_555
C33 C34 1_555 1_555
N6B Cu1B 1_555 1_555

#END
