
#######################################################################
#
#                 Cambridge Crystallographic Data Centre
#                                CCDC 
#
#######################################################################
#
# If this CIF has been generated from an entry in the Cambridge 
# Structural Database, then it will include bibliographic, chemical, 
# crystal, experimental, refinement or atomic coordinate data resulting 
# from the CCDC's data processing and validation procedures.
#
#######################################################################

data_HOXSAO
_symmetry_cell_setting           triclinic
_symmetry_space_group_name_H-M   'P -1'
_symmetry_Int_Tables_number      2
_space_group_name_Hall           '-P 1'
loop_
_symmetry_equiv_pos_site_id
_symmetry_equiv_pos_as_xyz
1 x,y,z
2 -x,-y,-z
_cell_length_a                   9.1183(5)
_cell_length_b                   9.9838(6)
_cell_length_c                   12.7545(8)
_cell_angle_alpha                94.2060(10)
_cell_angle_beta                 90.4920(10)
_cell_angle_gamma                112.5340(10)
_cell_volume                     1068.72
loop_
_atom_site_label
_atom_site_type_symbol
_atom_site_fract_x
_atom_site_fract_y
_atom_site_fract_z
Cu1 Cu -0.5000 0.0000 -0.5000
Cu2 Cu -0.43673(6) 0.24993(6) -0.15198(4)
Cu3 Cu -0.81425(6) 0.36698(6) 0.07679(4)
Cu4 Cu -1.09322(6) 0.39354(6) 0.27217(4)
Cu5 Cu -0.5000 0.5000 0.5000
Cu6 Cu -1.61346(6) 0.20377(6) 0.42598(4)
N1 N -0.2648(4) 0.3020(4) -0.0411(3)
N2 N -1.0387(4) 0.3388(4) 0.0452(3)
N3 N -1.1418(4) 0.3595(4) 0.1174(3)
N4 N -0.7615(4) 0.4389(4) 0.2281(3)
N5 N -0.8636(4) 0.4603(4) 0.3007(3)
N6 N -0.6367(4) 0.4950(4) 0.3855(3)
C1 C -0.4600(5) 0.0982(4) -0.3685(3)
N7 N -0.4456(5) 0.1578(5) -0.2864(3)
C2 C -0.6017(5) 0.2920(5) -0.0789(3)
N8 N -0.6836(5) 0.3201(5) -0.0200(3)
C3 C -1.2782(4) 0.3318(4) 0.3518(3)
N9 N -1.4030(5) 0.2793(4) 0.3859(3)
C4 C -0.1153(5) 0.3053(5) -0.0464(3)
H1 H -0.0716 0.2858 -0.1085
C5 C -0.2731(5) 0.3368(5) 0.0618(3)
H2 H -0.3630 0.3443 0.0911
C6 C -0.6281(5) 0.4613(5) 0.2819(3)
H3 H -0.5385 0.4545 0.2516
C7 C -0.7841(5) 0.4947(4) 0.3928(3)
H4 H -0.8255 0.5161 0.4553
N10 N -1.8101(4) 0.1135(4) 0.3226(3)
N11 N -1.7843(4) 0.2032(4) 0.5249(3)
C8 C -1.8129(6) 0.0666(5) 0.2217(4)
H5 H -1.7212 0.0603 0.1945
C9 C -1.9471(6) 0.0269(5) 0.1557(4)
H6 H -1.9445 -0.0039 0.0854
C10 C -2.0840(6) 0.0336(5) 0.1954(4)
H7 H -2.1755 0.0065 0.1526
C11 C -2.0834(6) 0.0823(5) 0.3019(4)
H8 H -2.1741 0.0885 0.3308
C12 C -1.9433(5) 0.1211(4) 0.3631(3)
C13 C -1.9279(5) 0.1740(4) 0.4768(3)
C14 C -2.0519(5) 0.1936(5) 0.5306(4)
H9 H -2.1498 0.1723 0.4966
C15 C -2.0260(5) 0.2457(5) 0.6363(4)
H10 H -2.1066 0.2602 0.6737
C16 C -1.8790(6) 0.2759(5) 0.6853(4)
H11 H -1.8593 0.3109 0.7557
C17 C -1.7618(5) 0.2527(5) 0.6267(3)
H12 H -1.6635 0.2724 0.6596
N2_2 N -0.0387(4) 0.3388(4) 0.0452(3)
Cu3_2 Cu 0.18575(6) 0.36698(6) 0.07679(4)
N4_2 N 0.2385(4) 0.4389(4) 0.2281(3)
N5_2 N 0.1364(4) 0.4603(4) 0.3007(3)
Cu4_2 Cu -0.09322(6) 0.39354(6) 0.27217(4)
N3_2 N -0.1418(4) 0.3595(4) 0.1174(3)
C3_2 C -0.2782(4) 0.3318(4) 0.3518(3)
N9_2 N -0.4030(5) 0.2793(4) 0.3859(3)
Cu6_2 Cu -0.61346(6) 0.20377(6) 0.42598(4)
N10_2 N -0.8101(4) 0.1135(4) 0.3226(3)
C8_2 C -0.8129(6) 0.0666(5) 0.2217(4)
H5_2 H -0.7212 0.0603 0.1945
C9_2 C -0.9471(6) 0.0269(5) 0.1557(4)
H6_2 H -0.9445 -0.0039 0.0854
C10_2 C -1.0840(6) 0.0336(5) 0.1954(4)
H7_2 H -1.1755 0.0065 0.1526
C11_2 C -1.0834(6) 0.0823(5) 0.3019(4)
H8_2 H -1.1741 0.0885 0.3308
C12_2 C -0.9433(5) 0.1211(4) 0.3631(3)
C13_2 C -0.9279(5) 0.1740(4) 0.4768(3)
N11_2 N -0.7843(4) 0.2032(4) 0.5249(3)
C17_2 C -0.7618(5) 0.2527(5) 0.6267(3)
C16_2 C -0.8790(6) 0.2759(5) 0.6853(4)
C15_2 C -1.0260(5) 0.2457(5) 0.6363(4)
C14_2 C -1.0519(5) 0.1936(5) 0.5306(4)
H9_2 H -1.1498 0.1723 0.4966
H10_2 H -1.1066 0.2602 0.6737
H11_2 H -0.8593 0.3109 0.7557
H12_2 H -0.6635 0.2724 0.6596
N8_2 N 0.3164(5) 0.3201(5) -0.0200(3)
C2_2 C 0.3983(5) 0.2920(5) -0.0789(3)
Cu2_2 Cu 0.56327(6) 0.24993(6) -0.15198(4)
C1A C -0.5400(5) -0.0982(4) -0.6315(3)
N6A N -0.3633(4) 0.5050(4) 0.6145(3)
C4_2 C -1.1153(5) 0.3053(5) -0.0464(3)
C5_2 C -1.2731(5) 0.3368(5) 0.0618(3)
C6A C -0.3719(5) 0.5387(5) 0.7181(3)
C7A C -0.2159(5) 0.5053(4) 0.6072(3)
N1_2 N -1.2648(4) 0.3020(4) -0.0411(3)
H1_2 H -1.0716 0.2858 -0.1085
H2_2 H -1.3630 0.3443 0.0911
N4A N -0.2385(4) 0.5611(4) 0.7719(3)
H3A H -0.4615 0.5455 0.7484
N5A N -0.1364(4) 0.5397(4) 0.6993(3)
H4A H -0.1745 0.4839 0.5447
Cu2_3 Cu -1.43673(6) 0.24993(6) -0.15198(4)
Cu3A Cu -0.18575(6) 0.63302(6) 0.92321(4)
Cu4A Cu 0.09322(6) 0.60646(6) 0.72783(4)
N7_2 N -1.4456(5) 0.1578(5) -0.2864(3)
C2_3 C -1.6017(5) 0.2920(5) -0.0789(3)
C1_2 C -1.4600(5) 0.0982(4) -0.3685(3)
Cu1_2 Cu -1.5000 0.0000 -0.5000
loop_
_geom_bond_atom_site_label_1
_geom_bond_atom_site_label_2
_geom_bond_site_symmetry_1
_geom_bond_site_symmetry_2
Cu1 C1 1_555 1_555
Cu2 N1 1_555 1_555
Cu3 N2 1_555 1_555
Cu4 N3 1_555 1_555
Cu5 N6 1_555 1_555
Cu6 N9 1_555 1_555
N1 C4 1_555 1_555
N2 N3 1_555 1_555
N3 C5_2 1_555 1_555
N4 Cu3 1_555 1_555
N5 Cu4 1_555 1_555
N6 C6 1_555 1_555
C1 N7 1_555 1_555
N7 Cu2 1_555 1_555
C2 Cu2 1_555 1_555
N8 Cu3 1_555 1_555
C3 Cu4 1_555 1_555
N9 C3 1_555 1_555
C4 H1 1_555 1_555
C5 N1 1_555 1_555
H2 C5 1_555 1_555
C6 N4 1_555 1_555
H3 C6 1_555 1_555
C7 N5 1_555 1_555
H4 C7 1_555 1_555
N10 Cu6 1_555 1_555
N11 Cu6 1_555 1_555
C8 N10 1_555 1_555
H5 C8 1_555 1_555
C9 C8 1_555 1_555
H6 C9 1_555 1_555
C10 C9 1_555 1_555
H7 C10 1_555 1_555
C11 C10 1_555 1_555
H8 C11 1_555 1_555
C12 N10 1_555 1_555
C13 N11 1_555 1_555
C14 C13 1_555 1_555
H9 C14 1_555 1_555
C15 C14 1_555 1_555
H10 C15 1_555 1_555
C16 C15 1_555 1_555
H11 C16 1_555 1_555
C17 N11 1_555 1_555
H12 C17 1_555 1_555
N2_2 C4 1_555 1_555
Cu3_2 N2_2 1_555 1_555
N4_2 Cu3_2 1_555 1_555
N5_2 N4_2 1_555 1_555
Cu4_2 N5_2 1_555 1_555
N3_2 C5 1_555 1_555
C3_2 Cu4_2 1_555 1_555
N9_2 C3_2 1_555 1_555
Cu6_2 N9_2 1_555 1_555
N10_2 Cu6_2 1_555 1_555
C8_2 N10_2 1_555 1_555
H5_2 C8_2 1_555 1_555
C9_2 C8_2 1_555 1_555
H6_2 C9_2 1_555 1_555
C10_2 C9_2 1_555 1_555
H7_2 C10_2 1_555 1_555
C11_2 C10_2 1_555 1_555
H8_2 C11_2 1_555 1_555
C12_2 N10_2 1_555 1_555
C13_2 C12_2 1_555 1_555
N11_2 Cu6_2 1_555 1_555
C17_2 N11_2 1_555 1_555
C16_2 C17_2 1_555 1_555
C15_2 C16_2 1_555 1_555
C14_2 C13_2 1_555 1_555
H9_2 C14_2 1_555 1_555
H10_2 C15_2 1_555 1_555
H11_2 C16_2 1_555 1_555
H12_2 C17_2 1_555 1_555
N8_2 Cu3_2 1_555 1_555
C2_2 N8_2 1_555 1_555
Cu2_2 C2_2 1_555 1_555
C1A Cu1 1_555 1_555
N6A Cu5 1_555 1_555
C4_2 N2 1_555 1_555
C5_2 N1_2 1_555 1_555
C6A N6A 1_555 1_555
C7A N6A 1_555 1_555
N1_2 C4_2 1_555 1_555
H1_2 C4_2 1_555 1_555
H2_2 C5_2 1_555 1_555
N4A C6A 1_555 1_555
H3A C6A 1_555 1_555
N5A C7A 1_555 1_555
H4A C7A 1_555 1_555
Cu2_3 N1_2 1_555 1_555
Cu3A N4A 1_555 1_555
Cu4A N5A 1_555 1_555
N7_2 Cu2_3 1_555 1_555
C2_3 Cu2_3 1_555 1_555
C1_2 N7_2 1_555 1_555
Cu1_2 C1_2 1_555 1_555
N4 N5 1_555 1_555
N6 C7 1_555 1_555
C2 N8 1_555 1_555
C11 C12 1_555 1_555
C12 C13 1_555 1_555
C16 C17 1_555 1_555
N2_2 N3_2 1_555 1_555
Cu4_2 N3_2 1_555 1_555
C11_2 C12_2 1_555 1_555
C13_2 N11_2 1_555 1_555
C15_2 C14_2 1_555 1_555
N4A N5A 1_555 1_555

#END
