
#######################################################################
#
#                 Cambridge Crystallographic Data Centre
#                                CCDC 
#
#######################################################################
#
# If this CIF has been generated from an entry in the Cambridge 
# Structural Database, then it will include bibliographic, chemical, 
# crystal, experimental, refinement or atomic coordinate data resulting 
# from the CCDC's data processing and validation procedures.
#
#######################################################################

data_HOXSES
_symmetry_cell_setting           monoclinic
_symmetry_space_group_name_H-M   'P 21/c'
_symmetry_Int_Tables_number      14
_space_group_name_Hall           '-P 2ybc'
loop_
_symmetry_equiv_pos_site_id
_symmetry_equiv_pos_as_xyz
1 x,y,z
2 x,1/2-y,1/2+z
3 -x,-y,-z
4 -x,1/2+y,1/2-z
_cell_length_a                   9.75820(10)
_cell_length_b                   17.1622(2)
_cell_length_c                   9.901
_cell_angle_alpha                90
_cell_angle_beta                 106.8690(10)
_cell_angle_gamma                90
_cell_volume                     1586.79
loop_
_atom_site_label
_atom_site_type_symbol
_atom_site_fract_x
_atom_site_fract_y
_atom_site_fract_z
Cu1 Cu 0.37686(3) 0.082150(16) -0.01601(3)
Cu2 Cu -0.07569(3) 0.217760(17) -0.06299(3)
Cu3 Cu -0.44290(3) 0.421480(16) -0.18299(3)
N1 N 0.5804(2) 0.09442(11) 0.0067(2)
N2 N 0.67568(19) 0.03226(11) 0.02253(19)
N3 N -0.2089(2) 0.14181(11) -0.0030(2)
N4 N -0.6489(2) 0.43949(11) -0.18665(19)
N5 N -0.4410(2) 0.54057(11) -0.17122(19)
C1 C -0.1988(2) 0.30620(12) -0.1198(2)
N6 N -0.2925(2) 0.35004(13) -0.1490(2)
C2 C 0.1067(2) 0.17838(13) -0.0533(2)
N7 N 0.2140(2) 0.14637(12) -0.0407(2)
C3 C 0.6540(2) 0.15729(14) -0.0080(2)
C4 C -0.2024(2) 0.06365(14) 0.0161(2)
C5 C -0.7495(3) 0.38476(15) -0.1936(3)
C6 C -0.8869(3) 0.40155(16) -0.1897(3)
C7 C -0.9223(3) 0.47891(17) -0.1772(3)
C8 C -0.8197(3) 0.53658(15) -0.1678(2)
C9 C -0.6837(2) 0.51530(13) -0.1735(2)
C10 C -0.5663(2) 0.57264(13) -0.1656(2)
C11 C -0.5814(3) 0.65305(14) -0.1539(2)
C12 C -0.4651(3) 0.70126(14) -0.1470(2)
C13 C -0.3367(3) 0.66838(15) -0.1526(3)
C14 C -0.3293(3) 0.58812(14) -0.1652(2)
H1 H 0.611(3) 0.2075(15) -0.027(3)
H2 H -0.252(3) 0.6984(16) -0.140(3)
H3 H -0.673(3) 0.6767(16) -0.150(3)
H4 H -0.243(3) 0.5627(15) -0.175(3)
H5 H -0.841(3) 0.5905(17) -0.158(3)
H6 H -0.471(3) 0.7570(19) -0.136(3)
H7 H -0.957(3) 0.362(2) -0.203(3)
H8 H -0.120(3) 0.0344(18) 0.022(3)
H9 H -1.010(4) 0.4942(19) -0.174(3)
H10 H -0.723(4) 0.337(2) -0.201(4)
N2B N 0.32432(19) -0.03226(11) -0.02253(19)
Cu1B Cu 0.62314(3) -0.082150(16) 0.01601(3)
N1B N 0.4196(2) -0.09442(11) -0.0067(2)
C3_2 C -0.3460(2) 0.15729(14) -0.0080(2)
N1_2 N -0.4196(2) 0.09442(11) 0.0067(2)
Cu1_2 Cu -0.62314(3) 0.082150(16) -0.01601(3)
N2_2 N -0.32432(19) 0.03226(11) 0.02253(19)
H1_2 H -0.389(3) 0.2075(15) -0.027(3)
Cu1B_2 Cu -0.37686(3) -0.082150(16) 0.01601(3)
N1B_2 N -0.5804(2) -0.09442(11) -0.0067(2)
C4_2 C 0.7976(2) 0.06365(14) 0.0161(2)
N3_2 N 0.7911(2) 0.14181(11) -0.0030(2)
Cu2_2 Cu 0.92431(3) 0.217760(17) -0.06299(3)
H8_2 H 0.880(3) 0.0344(18) 0.022(3)
C1_2 C 0.8012(2) 0.30620(12) -0.1198(2)
C2_2 C 1.1067(2) 0.17838(13) -0.0533(2)
N6_2 N 0.7075(2) 0.35004(13) -0.1490(2)
N7_2 N 1.2140(2) 0.14637(12) -0.0407(2)
Cu3_2 Cu 0.55710(3) 0.421480(16) -0.18299(3)
Cu1_3 Cu 1.37686(3) 0.082150(16) -0.01601(3)
N4_2 N 0.3511(2) 0.43949(11) -0.18665(19)
N5_2 N 0.5590(2) 0.54057(11) -0.17122(19)
C5_2 C 0.2505(3) 0.38476(15) -0.1936(3)
C9_2 C 0.3163(2) 0.51530(13) -0.1735(2)
C10_2 C 0.4337(2) 0.57264(13) -0.1656(2)
C14_2 C 0.6707(3) 0.58812(14) -0.1652(2)
C6_2 C 0.1131(3) 0.40155(16) -0.1897(3)
H10_2 H 0.277(4) 0.337(2) -0.201(4)
C8_2 C 0.1803(3) 0.53658(15) -0.1678(2)
C11_2 C 0.4186(3) 0.65305(14) -0.1539(2)
C13_2 C 0.6633(3) 0.66838(15) -0.1526(3)
H4_2 H 0.757(3) 0.5627(15) -0.175(3)
C7_2 C 0.0777(3) 0.47891(17) -0.1772(3)
H7_2 H 0.043(3) 0.362(2) -0.203(3)
H5_2 H 0.159(3) 0.5905(17) -0.158(3)
C12_2 C 0.5349(3) 0.70126(14) -0.1470(2)
H3_2 H 0.327(3) 0.6767(16) -0.150(3)
H2_2 H 0.748(3) 0.6984(16) -0.140(3)
H9_2 H -0.010(4) 0.4942(19) -0.174(3)
H6_2 H 0.529(3) 0.7570(19) -0.136(3)
N2B_2 N -0.67568(19) -0.03226(11) -0.02253(19)
N7_3 N -0.7860(2) 0.14637(12) -0.0407(2)
loop_
_geom_bond_atom_site_label_1
_geom_bond_atom_site_label_2
_geom_bond_site_symmetry_1
_geom_bond_site_symmetry_2
Cu1 N1 1_555 1_555
Cu2 N3 1_555 1_555
Cu3 N4 1_555 1_555
N1 N2 1_555 1_555
N2 Cu1B 1_555 1_555
N3 C4 1_555 1_555
N4 C5 1_555 1_555
N5 Cu3 1_555 1_555
C1 Cu2 1_555 1_555
N6 Cu3 1_555 1_555
C2 Cu2 1_555 1_555
N7 Cu1 1_555 1_555
C3 N1 1_555 1_555
C4 H8 1_555 1_555
C5 C6 1_555 1_555
C6 C7 1_555 1_555
C7 C8 1_555 1_555
C8 C9 1_555 1_555
C9 N4 1_555 1_555
C10 N5 1_555 1_555
C11 C10 1_555 1_555
C12 C11 1_555 1_555
C13 C12 1_555 1_555
C14 N5 1_555 1_555
H1 C3 1_555 1_555
H2 C13 1_555 1_555
H3 C11 1_555 1_555
H4 C14 1_555 1_555
H5 C8 1_555 1_555
H6 C12 1_555 1_555
H7 C6 1_555 1_555
H9 C7 1_555 1_555
H10 C5 1_555 1_555
N2B Cu1 1_555 1_555
Cu1B N1B 1_555 1_555
N1B N2B 1_555 1_555
C3_2 N3 1_555 1_555
N1_2 C3_2 1_555 1_555
Cu1_2 N1_2 1_555 1_555
N2_2 C4 1_555 1_555
H1_2 C3_2 1_555 1_555
Cu1B_2 N2_2 1_555 1_555
N1B_2 Cu1B_2 1_555 1_555
C4_2 N2 1_555 1_555
N3_2 C3 1_555 1_555
Cu2_2 N3_2 1_555 1_555
H8_2 C4_2 1_555 1_555
C1_2 Cu2_2 1_555 1_555
C2_2 Cu2_2 1_555 1_555
N6_2 C1_2 1_555 1_555
N7_2 C2_2 1_555 1_555
Cu3_2 N6_2 1_555 1_555
Cu1_3 N7_2 1_555 1_555
N4_2 Cu3_2 1_555 1_555
N5_2 Cu3_2 1_555 1_555
C5_2 N4_2 1_555 1_555
C9_2 N4_2 1_555 1_555
C10_2 N5_2 1_555 1_555
C14_2 N5_2 1_555 1_555
C6_2 C5_2 1_555 1_555
H10_2 C5_2 1_555 1_555
C8_2 C9_2 1_555 1_555
C11_2 C10_2 1_555 1_555
C13_2 C14_2 1_555 1_555
H4_2 C14_2 1_555 1_555
C7_2 C6_2 1_555 1_555
H7_2 C6_2 1_555 1_555
H5_2 C8_2 1_555 1_555
C12_2 C11_2 1_555 1_555
H3_2 C11_2 1_555 1_555
H2_2 C13_2 1_555 1_555
H9_2 C7_2 1_555 1_555
H6_2 C12_2 1_555 1_555
N2B_2 Cu1_2 1_555 1_555
N7_3 Cu1_2 1_555 1_555
C1 N6 1_555 1_555
C2 N7 1_555 1_555
C9 C10 1_555 1_555
C13 C14 1_555 1_555
N1_2 N2_2 1_555 1_555
N1B_2 N2B_2 1_555 1_555
C4_2 N3_2 1_555 1_555
C9_2 C10_2 1_555 1_555
C8_2 C7_2 1_555 1_555
C13_2 C12_2 1_555 1_555

#END
