
#######################################################################
#
#                 Cambridge Crystallographic Data Centre
#                                CCDC 
#
#######################################################################
#
# If this CIF has been generated from an entry in the Cambridge 
# Structural Database, then it will include bibliographic, chemical, 
# crystal, experimental, refinement or atomic coordinate data resulting 
# from the CCDC's data processing and validation procedures.
#
#######################################################################

data_HOXSEU
_symmetry_cell_setting           orthorhombic
_symmetry_space_group_name_H-M   'P 21 21 21'
_symmetry_Int_Tables_number      19
_space_group_name_Hall           'P 2ac 2ab'
loop_
_symmetry_equiv_pos_site_id
_symmetry_equiv_pos_as_xyz
1 x,y,z
2 1/2-x,-y,1/2+z
3 -x,1/2+y,1/2-z
4 1/2+x,1/2-y,-z
_cell_length_a                   6.5855(13)
_cell_length_b                   12.449(3)
_cell_length_c                   14.021(3)
_cell_angle_alpha                90
_cell_angle_beta                 90
_cell_angle_gamma                90
_cell_volume                     1149.48
loop_
_atom_site_label
_atom_site_type_symbol
_atom_site_fract_x
_atom_site_fract_y
_atom_site_fract_z
Ho1 Ho 0.09941(9) 0.35053(4) 0.27528(4)
O1 O 0.1112(18) 0.4196(6) 0.4288(6)
O2 O 0.0881(18) 0.4012(7) 0.5860(6)
O3 O 0.2751(15) 0.2151(7) 0.7098(7)
O4 O -0.0625(13) 0.1999(6) 0.7106(6)
O5 O 0.2322(16) -0.1465(8) 0.4544(7)
O6 O -0.0743(16) -0.1245(6) 0.3868(6)
O7 O 0.1325(15) -0.0070(7) 0.2413(7)
O8 O 0.1223(14) 0.1696(6) 0.2165(6)
O9 O 0.2966(16) 0.5094(7) 0.2521(6)
H1 H 0.3899 0.5253 0.2916
H2 H 0.2738 0.5499 0.2045
N1 N 0.109(2) 0.2122(7) 0.3983(7)
C1 C 0.096(2) 0.3625(10) 0.5059(9)
C2 C 0.106(2) 0.2427(10) 0.4917(9)
C3 C 0.100(2) 0.1677(9) 0.5637(9)
C4 C 0.102(2) 0.0615(10) 0.5407(8)
H3 H 0.1086 0.0100 0.5887
C5 C 0.096(2) 0.0298(9) 0.4460(9)
C6 C 0.103(2) 0.1070(9) 0.3771(9)
C7 C 0.1201(19) 0.0871(9) 0.2698(9)
C8 C 0.100(2) 0.1983(9) 0.6721(8)
C9 C 0.087(3) -0.0924(10) 0.4253(9)
K1 K 0.0936(6) 0.6397(2) 0.4709(2)
O10 O 0.4564(16) 0.6652(8) 0.3686(7)
H4 H 0.4913 0.6200 0.3267
H5 H 0.5303 0.7191 0.3797
Ho1B Ho -0.09941(9) -0.14947(4) 0.22472(4)
Ho1C Ho -0.40059(9) 0.14947(4) 0.72472(4)
Ho1C_2 Ho 0.59941(9) 0.14947(4) 0.72472(4)
O3C O -0.2249(15) 0.2849(7) 0.2902(7)
O4C O 0.4375(13) 0.3001(6) 0.2894(6)
O5_2 O 0.2322(16) 0.8535(8) 0.4544(7)
O5C O -0.2678(16) 0.6465(8) 0.5456(7)
O6_2 O -0.0743(16) 0.8755(6) 0.3868(6)
O6B O 0.0743(16) 0.3755(6) 0.1132(6)
O6C O 0.4257(16) 0.6245(6) 0.6132(6)
O7B O -0.1325(15) 0.4930(7) 0.2587(7)
O8B O -0.1223(14) 0.6696(6) 0.2835(6)
K1_2 K 0.0936(6) -0.3603(2) 0.4709(2)
K1B K -0.0936(6) 0.1397(2) 0.0291(2)
K1C K -0.4064(6) -0.1397(2) 0.5291(2)
K1C_2 K 0.5936(6) -0.1397(2) 0.5291(2)
loop_
_geom_bond_atom_site_label_1
_geom_bond_atom_site_label_2
_geom_bond_site_symmetry_1
_geom_bond_site_symmetry_2
Ho1 O1 1_555 1_555
O1 C1 1_555 1_555
O2 C1 1_555 1_555
O3 C8 1_555 1_555
O4 C8 1_555 1_555
O5 C9 1_555 1_555
O6 C9 1_555 1_555
O7 C7 1_555 1_555
O8 Ho1 1_555 1_555
O9 Ho1 1_555 1_555
H1 O9 1_555 1_555
H2 O9 1_555 1_555
N1 Ho1 1_555 1_555
C1 C2 1_555 1_555
C2 N1 1_555 1_555
C3 C2 1_555 1_555
C4 C3 1_555 1_555
H3 C4 1_555 1_555
C5 C4 1_555 1_555
C6 N1 1_555 1_555
C7 O8 1_555 1_555
C8 C3 1_555 1_555
C9 C5 1_555 1_555
K1 O1 1_555 1_555
O10 K1 1_555 1_555
H4 O10 1_555 1_555
H5 O10 1_555 1_555
Ho1B O6 1_555 1_555
Ho1C O4 1_555 1_555
Ho1C_2 O3 1_555 1_555
O3C Ho1 1_555 1_555
O4C Ho1 1_555 1_555
O5_2 K1 1_555 1_555
O5C K1 1_555 1_555
O6_2 K1 1_555 1_555
O6B Ho1 1_555 1_555
O6C K1 1_555 1_555
O7B Ho1 1_555 1_555
O8B K1 1_555 1_555
K1_2 O5 1_555 1_555
K1B O8 1_555 1_555
K1C O6 1_555 1_555
K1C_2 O5 1_555 1_555
O2 K1 1_555 1_555
O6 K1_2 1_555 1_555
O7 Ho1B 1_555 1_555
C5 C6 1_555 1_555
C6 C7 1_555 1_555
O6B K1B 1_555 1_555

#END
