
#######################################################################
#
#                 Cambridge Crystallographic Data Centre
#                                CCDC 
#
#######################################################################
#
# If this CIF has been generated from an entry in the Cambridge 
# Structural Database, then it will include bibliographic, chemical, 
# crystal, experimental, refinement or atomic coordinate data resulting 
# from the CCDC's data processing and validation procedures.
#
#######################################################################

data_HOXTEV
_symmetry_cell_setting           monoclinic
_symmetry_space_group_name_H-M   'C 2/c'
_symmetry_Int_Tables_number      15
_space_group_name_Hall           '-C 2yn'
loop_
_symmetry_equiv_pos_site_id
_symmetry_equiv_pos_as_xyz
1 x,y,z
2 -x,y,1/2-z
3 1/2+x,1/2+y,z
4 1/2-x,1/2+y,1/2-z
5 -x,-y,-z
6 x,-y,1/2+z
7 1/2-x,1/2-y,-z
8 1/2+x,1/2-y,1/2+z
_cell_length_a                   15.787(3)
_cell_length_b                   11.488(2)
_cell_length_c                   11.586(2)
_cell_angle_alpha                90
_cell_angle_beta                 99.217(2)
_cell_angle_gamma                90
_cell_volume                     2074.12
loop_
_atom_site_label
_atom_site_type_symbol
_atom_site_fract_x
_atom_site_fract_y
_atom_site_fract_z
Pd1 Pd 0.2500 0.2500 0.0000
Zn1 Zn 0.0000 0.26360(2) 0.2500
O1 O 0.0000 0.43649(15) 0.2500
H1 H 0.0421 0.4829 0.2667
N1 N 0.11639(10) 0.26701(13) 0.17166(15)
N2 N 0.36202(12) 0.07362(16) 0.16435(17)
N3 N -0.07695(9) 0.21628(13) 0.08293(12)
N4 N 0.0000 0.08116(16) 0.2500
C1 C 0.16675(11) 0.26215(14) 0.11160(16)
C2 C 0.32100(11) 0.13739(15) 0.10480(16)
C3 C -0.11575(12) 0.29009(18) 0.00254(16)
H2 H -0.1048 0.3710 0.0129
C4 C -0.17145(15) 0.25352(19) -0.09556(19)
H3 H -0.1982 0.3082 -0.1512
C5 C -0.18699(14) 0.1372(2) -0.11039(18)
H4 H -0.2256 0.1099 -0.1762
C6 C -0.14632(13) 0.05990(19) -0.02933(17)
H5 H -0.1557 -0.0214 -0.0395
C7 C -0.09152(10) 0.10145(15) 0.06719(15)
C8 C -0.04523(10) 0.02471(14) 0.16003(15)
C9 C -0.04618(12) -0.09611(16) 0.15775(18)
H6 H -0.0781 -0.1369 0.0938
C10 C 0.0000 -0.1556(2) 0.2500
H7 H 0.0000 -0.2383 0.2500
H1A H -0.0421 0.4829 0.2333
N3A N 0.07695(9) 0.21628(13) 0.41707(12)
C3A C 0.11575(12) 0.29009(18) 0.49746(16)
H2A H 0.1048 0.3710 0.4871
C4A C 0.17145(15) 0.25352(19) 0.59556(19)
H3A H 0.1982 0.3082 0.6512
C5A C 0.18699(14) 0.1372(2) 0.61039(18)
H4A H 0.2256 0.1099 0.6762
C6A C 0.14632(13) 0.05990(19) 0.52933(17)
H5A H 0.1557 -0.0214 0.5395
C7A C 0.09152(10) 0.10145(15) 0.43281(15)
C8A C 0.04523(10) 0.02471(14) 0.33997(15)
C9A C 0.04618(12) -0.09611(16) 0.34225(18)
H6A H 0.0781 -0.1369 0.4062
N1A N -0.11639(10) 0.26701(13) 0.32834(15)
C1A C -0.16675(11) 0.26215(14) 0.38840(16)
N2F N 0.13798(12) 0.42638(16) -0.16435(17)
C2F C 0.17900(11) 0.36261(15) -0.10480(16)
Pd1A Pd -0.2500 0.2500 0.5000
C1F C 0.33325(11) 0.23785(14) -0.11160(16)
loop_
_geom_bond_atom_site_label_1
_geom_bond_atom_site_label_2
_geom_bond_site_symmetry_1
_geom_bond_site_symmetry_2
Pd1 C1 1_555 1_555
Zn1 O1 1_555 1_555
O1 H1 1_555 1_555
N1 Zn1 1_555 1_555
N2 C2 1_555 1_555
N3 Zn1 1_555 1_555
N4 Zn1 1_555 1_555
C1 N1 1_555 1_555
C2 Pd1 1_555 1_555
C3 N3 1_555 1_555
H2 C3 1_555 1_555
C4 C3 1_555 1_555
H3 C4 1_555 1_555
C5 C4 1_555 1_555
H4 C5 1_555 1_555
C6 C5 1_555 1_555
H5 C6 1_555 1_555
C7 N3 1_555 1_555
C8 N4 1_555 1_555
C9 C8 1_555 1_555
H6 C9 1_555 1_555
C10 C9 1_555 1_555
H7 C10 1_555 1_555
H1A O1 1_555 1_555
N3A Zn1 1_555 1_555
C3A N3A 1_555 1_555
H2A C3A 1_555 1_555
C4A C3A 1_555 1_555
H3A C4A 1_555 1_555
C5A C4A 1_555 1_555
H4A C5A 1_555 1_555
C6A C5A 1_555 1_555
H5A C6A 1_555 1_555
C7A N3A 1_555 1_555
C8A N4 1_555 1_555
C9A C10 1_555 1_555
H6A C9A 1_555 1_555
N1A Zn1 1_555 1_555
C1A N1A 1_555 1_555
N2F C2F 1_555 1_555
C2F Pd1 1_555 1_555
Pd1A C1A 1_555 1_555
C1F Pd1 1_555 1_555
C6 C7 1_555 1_555
C7 C8 1_555 1_555
C6A C7A 1_555 1_555
C7A C8A 1_555 1_555
C8A C9A 1_555 1_555

#END
