
#######################################################################
#
#                 Cambridge Crystallographic Data Centre
#                                CCDC 
#
#######################################################################
#
# If this CIF has been generated from an entry in the Cambridge 
# Structural Database, then it will include bibliographic, chemical, 
# crystal, experimental, refinement or atomic coordinate data resulting 
# from the CCDC's data processing and validation procedures.
#
#######################################################################

data_HOXTIZ
_symmetry_cell_setting           monoclinic
_symmetry_space_group_name_H-M   'C 2/c'
_symmetry_Int_Tables_number      15
_space_group_name_Hall           '-C 2yn'
loop_
_symmetry_equiv_pos_site_id
_symmetry_equiv_pos_as_xyz
1 x,y,z
2 -x,y,1/2-z
3 1/2+x,1/2+y,z
4 1/2-x,1/2+y,1/2-z
5 -x,-y,-z
6 x,-y,1/2+z
7 1/2-x,1/2-y,-z
8 1/2+x,1/2-y,1/2+z
_cell_length_a                   15.7639(16)
_cell_length_b                   11.5145(11)
_cell_length_c                   11.5204(11)
_cell_angle_alpha                90
_cell_angle_beta                 99.4620(10)
_cell_angle_gamma                90
_cell_volume                     2062.66
loop_
_atom_site_label
_atom_site_type_symbol
_atom_site_fract_x
_atom_site_fract_y
_atom_site_fract_z
Pt1 Pt 0.2500 0.2500 0.5000
Zn1 Zn 0.5000 0.23766(2) 0.2500
N1 N 0.38378(11) 0.23366(14) 0.32747(16)
C1 C 0.33333(12) 0.23824(15) 0.38861(18)
N2 N 0.36134(12) 0.07160(16) 0.66550(17)
C2 C 0.32073(12) 0.13682(17) 0.60489(18)
N3 N 0.42287(10) 0.28467(14) 0.08180(14)
C3 C 0.38335(13) 0.21036(19) 0.00066(18)
H1 H 0.3944 0.1296 0.0112
N4 N 0.5000 0.41979(18) 0.2500
C4 C 0.32717(15) 0.24675(18) -0.09784(19)
H2 H 0.3000 0.1921 -0.1537
C5 C 0.31153(14) 0.3636(2) -0.11308(19)
H3 H 0.2726 0.3908 -0.1793
C6 C 0.35274(13) 0.44130(19) -0.03140(19)
H4 H 0.3432 0.5224 -0.0415
C7 C 0.40825(12) 0.39938(16) 0.06571(17)
C8 C 0.45469(12) 0.47623(16) 0.15927(17)
C9 C 0.45361(13) 0.59683(17) 0.15642(19)
H5 H 0.4217 0.6373 0.0917
C10 C 0.5000 0.6567(2) 0.2500
H6 H 0.5000 0.7392 0.2500
O1 O 0.5000 0.06502(17) 0.2500
H7 H 0.4568 0.0215 0.2280
N3A N 0.57713(10) 0.28467(14) 0.41820(14)
C3A C 0.61665(13) 0.21036(19) 0.49934(18)
H1A H 0.6056 0.1296 0.4888
C4A C 0.67283(15) 0.24675(18) 0.59784(19)
H2A H 0.7000 0.1921 0.6537
C5A C 0.68847(14) 0.3636(2) 0.61308(19)
H3A H 0.7274 0.3908 0.6793
C6A C 0.64726(13) 0.44130(19) 0.53140(19)
H4A H 0.6568 0.5224 0.5415
C7A C 0.59175(12) 0.39938(16) 0.43429(17)
C8A C 0.54531(12) 0.47623(16) 0.34073(17)
C9A C 0.54639(13) 0.59683(17) 0.34358(19)
H5A H 0.5783 0.6373 0.4083
H7A H 0.5432 0.0215 0.2720
N1A N 0.61622(11) 0.23366(14) 0.17253(16)
C1A C 0.66667(12) 0.23824(15) 0.11139(18)
N2F N 0.13866(12) 0.42840(16) 0.33450(17)
C2F C 0.17927(12) 0.36318(17) 0.39511(18)
Pt1A Pt 0.7500 0.2500 0.0000
C1F C 0.16667(12) 0.26176(15) 0.61139(18)
loop_
_geom_bond_atom_site_label_1
_geom_bond_atom_site_label_2
_geom_bond_site_symmetry_1
_geom_bond_site_symmetry_2
Pt1 C1 1_555 1_555
Zn1 N1 1_555 1_555
N1 C1 1_555 1_555
N2 C2 1_555 1_555
C2 Pt1 1_555 1_555
N3 Zn1 1_555 1_555
C3 N3 1_555 1_555
H1 C3 1_555 1_555
N4 Zn1 1_555 1_555
C4 C3 1_555 1_555
H2 C4 1_555 1_555
C5 C4 1_555 1_555
H3 C5 1_555 1_555
C6 C5 1_555 1_555
H4 C6 1_555 1_555
C7 N3 1_555 1_555
C8 N4 1_555 1_555
C9 C8 1_555 1_555
H5 C9 1_555 1_555
C10 C9 1_555 1_555
H6 C10 1_555 1_555
O1 Zn1 1_555 1_555
H7 O1 1_555 1_555
N3A Zn1 1_555 1_555
C3A N3A 1_555 1_555
H1A C3A 1_555 1_555
C4A C3A 1_555 1_555
H2A C4A 1_555 1_555
C5A C4A 1_555 1_555
H3A C5A 1_555 1_555
C6A C5A 1_555 1_555
H4A C6A 1_555 1_555
C7A N3A 1_555 1_555
C8A N4 1_555 1_555
C9A C10 1_555 1_555
H5A C9A 1_555 1_555
H7A O1 1_555 1_555
N1A Zn1 1_555 1_555
C1A N1A 1_555 1_555
N2F C2F 1_555 1_555
C2F Pt1 1_555 1_555
Pt1A C1A 1_555 1_555
C1F Pt1 1_555 1_555
C6 C7 1_555 1_555
C7 C8 1_555 1_555
C6A C7A 1_555 1_555
C7A C8A 1_555 1_555
C8A C9A 1_555 1_555

#END
