
#######################################################################
#
#                 Cambridge Crystallographic Data Centre
#                                CCDC 
#
#######################################################################
#
# If this CIF has been generated from an entry in the Cambridge 
# Structural Database, then it will include bibliographic, chemical, 
# crystal, experimental, refinement or atomic coordinate data resulting 
# from the CCDC's data processing and validation procedures.
#
#######################################################################

data_HOXVAS
_symmetry_cell_setting           monoclinic
_symmetry_space_group_name_H-M   'P 21/c'
_symmetry_Int_Tables_number      14
_space_group_name_Hall           '-P 2ybc'
loop_
_symmetry_equiv_pos_site_id
_symmetry_equiv_pos_as_xyz
1 x,y,z
2 -x,1/2+y,1/2-z
3 -x,-y,-z
4 x,1/2-y,1/2+z
_cell_length_a                   3.6767(6)
_cell_length_b                   20.469(4)
_cell_length_c                   9.6223(13)
_cell_angle_alpha                90
_cell_angle_beta                 97.355(13)
_cell_angle_gamma                90
_cell_volume                     718.2
loop_
_atom_site_label
_atom_site_type_symbol
_atom_site_fract_x
_atom_site_fract_y
_atom_site_fract_z
Na1 Na 0.83399(13) 0.12260(2) 0.30678(5)
O1 O 0.3596(2) 0.19284(4) 0.34562(9)
H1 H 0.3148 0.2317 0.3114
H2 H 0.3560 0.1942 0.4335
N1 N 1.1131(3) 0.18257(5) 0.74371(10)
N2 N 1.1172(3) 0.17105(5) 0.60797(10)
N3 N 0.9755(3) 0.11295(5) 0.57064(10)
N4 N 0.8593(4) 0.12095(6) 1.05477(12)
N5 N 0.6006(3) -0.02907(5) 0.69477(11)
C1 C 0.8780(3) 0.08555(6) 0.68834(12)
C2 C 0.9647(3) 0.12938(6) 0.79713(12)
C3 C 0.7217(3) 0.02205(6) 0.69075(12)
C4 C 0.9075(4) 0.12495(6) 0.94032(13)
Na1_2 Na -0.16601(13) 0.12260(2) 0.30678(5)
Na1_3 Na 0.83399(13) 0.12260(2) 1.30678(5)
Na1B Na 0.16601(13) -0.12260(2) 0.69322(5)
Na1B_2 Na 1.16601(13) -0.12260(2) 0.69322(5)
O1_2 O 1.3596(2) 0.19284(4) 0.34562(9)
H1_2 H 1.3148 0.2317 0.3114
H2_2 H 1.3560 0.1942 0.4335
N4_2 N 0.8593(4) 0.12095(6) 0.05477(12)
N5B N 0.3994(3) 0.02907(5) 0.30523(11)
N5B_2 N 1.3994(3) 0.02907(5) 0.30523(11)
loop_
_geom_bond_atom_site_label_1
_geom_bond_atom_site_label_2
_geom_bond_site_symmetry_1
_geom_bond_site_symmetry_2
Na1 O1 1_555 1_555
O1 H1 1_555 1_555
H2 O1 1_555 1_555
N1 N2 1_555 1_555
N2 N3 1_555 1_555
N3 Na1 1_555 1_555
N4 C4 1_555 1_555
N5 C3 1_555 1_555
C1 N3 1_555 1_555
C2 N1 1_555 1_555
C3 C1 1_555 1_555
C4 C2 1_555 1_555
Na1_2 O1 1_555 1_555
Na1_3 N4 1_555 1_555
Na1B N5 1_555 1_555
Na1B_2 N5 1_555 1_555
O1_2 Na1 1_555 1_555
H1_2 O1_2 1_555 1_555
H2_2 O1_2 1_555 1_555
N4_2 Na1 1_555 1_555
N5B Na1 1_555 1_555
N5B_2 Na1 1_555 1_555
C1 C2 1_555 1_555
Na1_2 N5B 1_555 1_555

#END
