
#######################################################################
#
#                 Cambridge Crystallographic Data Centre
#                                CCDC 
#
#######################################################################
#
# If this CIF has been generated from an entry in the Cambridge 
# Structural Database, then it will include bibliographic, chemical, 
# crystal, experimental, refinement or atomic coordinate data resulting 
# from the CCDC's data processing and validation procedures.
#
#######################################################################

data_HOXXAV
_symmetry_cell_setting           monoclinic
_symmetry_space_group_name_H-M   'P 21/n'
_symmetry_Int_Tables_number      14
_space_group_name_Hall           '-P 2yn'
loop_
_symmetry_equiv_pos_site_id
_symmetry_equiv_pos_as_xyz
1 x,y,z
2 1/2-x,1/2+y,1/2-z
3 -x,-y,-z
4 1/2+x,1/2-y,1/2+z
_cell_length_a                   11.2010(5)
_cell_length_b                   16.0326(6)
_cell_length_c                   15.7935(7)
_cell_angle_alpha                90
_cell_angle_beta                 96.715(4)
_cell_angle_gamma                90
_cell_volume                     2816.76
loop_
_atom_site_label
_atom_site_type_symbol
_atom_site_fract_x
_atom_site_fract_y
_atom_site_fract_z
Ni1 Ni 0.0000 0.5000 0.0000
Ni2 Ni 0.5000 0.5000 0.0000
N1 N 0.1391(3) 0.5566(2) -0.05086(18)
C1 C 0.2329(3) 0.5818(2) -0.0600(2)
S1 S 0.36804(8) 0.61759(7) -0.07052(6)
N2 N 0.3578(3) 0.4377(2) 0.0377(2)
C2 C 0.2635(3) 0.4145(2) 0.0490(2)
S2 S 0.12961(8) 0.38247(7) 0.06572(6)
N3 N 0.0361(3) 0.5741(2) 0.11157(18)
C3 C 0.1466(3) 0.5996(3) 0.1415(2)
H1 H 0.2112 0.5795 0.1156
C4 C 0.1697(4) 0.6544(3) 0.2089(2)
H2 H 0.2482 0.6712 0.2265
C5 C 0.0759(4) 0.6842(3) 0.2503(2)
C6 C -0.0378(4) 0.6550(3) 0.2213(2)
H3 H -0.1033 0.6715 0.2483
C7 C -0.0543(3) 0.6020(3) 0.1532(2)
H4 H -0.1320 0.5843 0.1347
C8 C 0.0972(5) 0.7439(3) 0.3245(3)
H5 H 0.0331 0.7850 0.3198
H6 H 0.1721 0.7733 0.3209
C9 C 0.1028(4) 0.7017(3) 0.4113(3)
H7 H 0.1036 0.7445 0.4549
H8 H 0.0304 0.6689 0.4131
C10 C 0.2109(4) 0.6455(4) 0.4329(3)
H9 H 0.2059 0.5993 0.3931
H10 H 0.2833 0.6767 0.4259
C11 C 0.2203(4) 0.6117(3) 0.5220(3)
C12 C 0.2790(4) 0.6548(4) 0.5892(3)
H11 H 0.3160 0.7053 0.5793
C13 C 0.2841(5) 0.6245(4) 0.6719(3)
H12 H 0.3251 0.6544 0.7166
C14 C 0.2300(6) 0.5518(5) 0.6879(4)
H13 H 0.2329 0.5319 0.7434
C15 C 0.1712(6) 0.5079(4) 0.6220(4)
H14 H 0.1331 0.4582 0.6326
C16 C 0.1679(5) 0.5369(4) 0.5393(3)
H15 H 0.1297 0.5054 0.4947
N4 N 0.5221(3) 0.5651(2) 0.1181(2)
C17 C 0.5701(4) 0.6411(3) 0.1259(3)
H16 H 0.5942 0.6659 0.0775
C18 C 0.5862(5) 0.6852(3) 0.2006(3)
H17 H 0.6249 0.7366 0.2027
C19 C 0.5456(5) 0.6535(3) 0.2717(3)
C20 C 0.4993(5) 0.5738(3) 0.2651(3)
H18 H 0.4747 0.5478 0.3129
C21 C 0.4894(4) 0.5326(3) 0.1889(2)
H19 H 0.4579 0.4789 0.1866
C22 C 0.5496(6) 0.7040(4) 0.3537(3)
H20 H 0.5848 0.7582 0.3450
H21 H 0.4682 0.7130 0.3669
C23 C 0.6173(7) 0.6639(4) 0.4242(4)
H22 H 0.6994 0.6572 0.4113
H23 H 0.5845 0.6085 0.4302
C24 C 0.6198(5) 0.7099(3) 0.5108(3)
H24 H 0.6431 0.7676 0.5042
H25 H 0.5402 0.7092 0.5292
C25 C 0.7074(5) 0.6684(3) 0.5768(3)
C26 C 0.8299(5) 0.6785(3) 0.5755(3)
H26 H 0.8574 0.7128 0.5345
C27 C 0.9122(5) 0.6387(4) 0.6337(4)
H27 H 0.9941 0.6464 0.6316
C28 C 0.8741(6) 0.5884(4) 0.6938(4)
H28 H 0.9294 0.5611 0.7329
C29 C 0.7535(6) 0.5780(4) 0.6967(3)
H29 H 0.7272 0.5444 0.7388
C30 C 0.6702(5) 0.6164(3) 0.6382(3)
H30 H 0.5886 0.6073 0.6402
N1B N -0.1391(3) 0.4434(2) 0.05086(18)
C1B C -0.2329(3) 0.4182(2) 0.0600(2)
S1B S -0.36804(8) 0.38241(7) 0.07052(6)
N2B N -0.3578(3) 0.5623(2) -0.0377(2)
C2B C -0.2635(3) 0.5855(2) -0.0490(2)
S2B S -0.12961(8) 0.61753(7) -0.06572(6)
N3B N -0.0361(3) 0.4259(2) -0.11157(18)
C3B C -0.1466(3) 0.4004(3) -0.1415(2)
H1B H -0.2112 0.4205 -0.1156
C4B C -0.1697(4) 0.3456(3) -0.2089(2)
H2B H -0.2482 0.3288 -0.2265
C5B C -0.0759(4) 0.3158(3) -0.2503(2)
C6B C 0.0378(4) 0.3450(3) -0.2213(2)
H3B H 0.1033 0.3285 -0.2483
C7B C 0.0543(3) 0.3980(3) -0.1532(2)
H4B H 0.1320 0.4157 -0.1347
C8B C -0.0972(5) 0.2561(3) -0.3245(3)
H5B H -0.0331 0.2150 -0.3198
H6B H -0.1721 0.2267 -0.3209
C9B C -0.1028(4) 0.2983(3) -0.4113(3)
H7B H -0.1036 0.2555 -0.4549
H8B H -0.0304 0.3311 -0.4131
C10B C -0.2109(4) 0.3545(4) -0.4329(3)
H9B H -0.2059 0.4007 -0.3931
H10B H -0.2833 0.3233 -0.4259
C11B C -0.2203(4) 0.3883(3) -0.5220(3)
C12B C -0.2790(4) 0.3452(4) -0.5892(3)
H11B H -0.3160 0.2947 -0.5793
C13B C -0.2841(5) 0.3755(4) -0.6719(3)
H12B H -0.3251 0.3456 -0.7166
C14B C -0.2300(6) 0.4482(5) -0.6879(4)
H13B H -0.2329 0.4681 -0.7434
C15B C -0.1712(6) 0.4921(4) -0.6220(4)
H14B H -0.1331 0.5418 -0.6326
C16B C -0.1679(5) 0.4631(4) -0.5393(3)
H15B H -0.1297 0.4946 -0.4947
N4B N 0.4779(3) 0.4349(2) -0.1181(2)
C17B C 0.4299(4) 0.3589(3) -0.1259(3)
H16B H 0.4058 0.3341 -0.0775
C18B C 0.4138(5) 0.3148(3) -0.2006(3)
H17B H 0.3751 0.2634 -0.2027
C19B C 0.4544(5) 0.3465(3) -0.2717(3)
C20B C 0.5007(5) 0.4262(3) -0.2651(3)
H18B H 0.5253 0.4522 -0.3129
C21B C 0.5106(4) 0.4674(3) -0.1889(2)
H19B H 0.5421 0.5211 -0.1866
C22B C 0.4504(6) 0.2960(4) -0.3537(3)
H20B H 0.4152 0.2418 -0.3450
H21B H 0.5318 0.2870 -0.3669
C23B C 0.3827(7) 0.3361(4) -0.4242(4)
H22B H 0.3006 0.3428 -0.4113
H23B H 0.4155 0.3915 -0.4302
C24B C 0.3802(5) 0.2901(3) -0.5108(3)
H24B H 0.3569 0.2324 -0.5042
H25B H 0.4598 0.2908 -0.5292
C25B C 0.2926(5) 0.3316(3) -0.5768(3)
C26B C 0.1701(5) 0.3215(3) -0.5755(3)
H26B H 0.1426 0.2872 -0.5345
C27B C 0.0878(5) 0.3613(4) -0.6337(4)
H27B H 0.0059 0.3536 -0.6316
C28B C 0.1259(6) 0.4116(4) -0.6938(4)
H28B H 0.0706 0.4389 -0.7329
C29B C 0.2465(6) 0.4220(4) -0.6967(3)
H29B H 0.2728 0.4556 -0.7388
C30B C 0.3298(5) 0.3836(3) -0.6382(3)
H30B H 0.4114 0.3927 -0.6402
Ni2_2 Ni -0.5000 0.5000 0.0000
S1B_2 S 0.63196(8) 0.38241(7) 0.07052(6)
N2B_2 N 0.6422(3) 0.5623(2) -0.0377(2)
loop_
_geom_bond_atom_site_label_1
_geom_bond_atom_site_label_2
_geom_bond_site_symmetry_1
_geom_bond_site_symmetry_2
Ni1 N1 1_555 1_555
Ni2 S1 1_555 1_555
N1 C1 1_555 1_555
C1 S1 1_555 1_555
N2 Ni2 1_555 1_555
C2 N2 1_555 1_555
S2 Ni1 1_555 1_555
N3 Ni1 1_555 1_555
C3 N3 1_555 1_555
H1 C3 1_555 1_555
C4 C3 1_555 1_555
H2 C4 1_555 1_555
C5 C4 1_555 1_555
C6 C5 1_555 1_555
H3 C6 1_555 1_555
C7 N3 1_555 1_555
H4 C7 1_555 1_555
C8 C5 1_555 1_555
H5 C8 1_555 1_555
H6 C8 1_555 1_555
C9 C8 1_555 1_555
H7 C9 1_555 1_555
H8 C9 1_555 1_555
C10 C9 1_555 1_555
H9 C10 1_555 1_555
H10 C10 1_555 1_555
C11 C10 1_555 1_555
C12 C11 1_555 1_555
H11 C12 1_555 1_555
C13 C12 1_555 1_555
H12 C13 1_555 1_555
C14 C13 1_555 1_555
H13 C14 1_555 1_555
C15 C14 1_555 1_555
H14 C15 1_555 1_555
C16 C11 1_555 1_555
H15 C16 1_555 1_555
N4 Ni2 1_555 1_555
C17 N4 1_555 1_555
H16 C17 1_555 1_555
C18 C17 1_555 1_555
H17 C18 1_555 1_555
C19 C18 1_555 1_555
C20 C19 1_555 1_555
H18 C20 1_555 1_555
C21 N4 1_555 1_555
H19 C21 1_555 1_555
C22 C19 1_555 1_555
H20 C22 1_555 1_555
H21 C22 1_555 1_555
C23 C22 1_555 1_555
H22 C23 1_555 1_555
H23 C23 1_555 1_555
C24 C23 1_555 1_555
H24 C24 1_555 1_555
H25 C24 1_555 1_555
C25 C24 1_555 1_555
C26 C25 1_555 1_555
H26 C26 1_555 1_555
C27 C26 1_555 1_555
H27 C27 1_555 1_555
C28 C27 1_555 1_555
H28 C28 1_555 1_555
C29 C28 1_555 1_555
H29 C29 1_555 1_555
C30 C25 1_555 1_555
H30 C30 1_555 1_555
N1B Ni1 1_555 1_555
C1B N1B 1_555 1_555
S1B C1B 1_555 1_555
N2B C2B 1_555 1_555
C2B S2B 1_555 1_555
S2B Ni1 1_555 1_555
N3B Ni1 1_555 1_555
C3B N3B 1_555 1_555
H1B C3B 1_555 1_555
C4B C3B 1_555 1_555
H2B C4B 1_555 1_555
C5B C4B 1_555 1_555
C6B C5B 1_555 1_555
H3B C6B 1_555 1_555
C7B N3B 1_555 1_555
H4B C7B 1_555 1_555
C8B C5B 1_555 1_555
H5B C8B 1_555 1_555
H6B C8B 1_555 1_555
C9B C8B 1_555 1_555
H7B C9B 1_555 1_555
H8B C9B 1_555 1_555
C10B C9B 1_555 1_555
H9B C10B 1_555 1_555
H10B C10B 1_555 1_555
C11B C10B 1_555 1_555
C12B C11B 1_555 1_555
H11B C12B 1_555 1_555
C13B C12B 1_555 1_555
H12B C13B 1_555 1_555
C14B C13B 1_555 1_555
H13B C14B 1_555 1_555
C15B C14B 1_555 1_555
H14B C15B 1_555 1_555
C16B C11B 1_555 1_555
H15B C16B 1_555 1_555
N4B Ni2 1_555 1_555
C17B N4B 1_555 1_555
H16B C17B 1_555 1_555
C18B C17B 1_555 1_555
H17B C18B 1_555 1_555
C19B C18B 1_555 1_555
C20B C19B 1_555 1_555
H18B C20B 1_555 1_555
C21B N4B 1_555 1_555
H19B C21B 1_555 1_555
C22B C19B 1_555 1_555
H20B C22B 1_555 1_555
H21B C22B 1_555 1_555
C23B C22B 1_555 1_555
H22B C23B 1_555 1_555
H23B C23B 1_555 1_555
C24B C23B 1_555 1_555
H24B C24B 1_555 1_555
H25B C24B 1_555 1_555
C25B C24B 1_555 1_555
C26B C25B 1_555 1_555
H26B C26B 1_555 1_555
C27B C26B 1_555 1_555
H27B C27B 1_555 1_555
C28B C27B 1_555 1_555
H28B C28B 1_555 1_555
C29B C28B 1_555 1_555
H29B C29B 1_555 1_555
C30B C25B 1_555 1_555
H30B C30B 1_555 1_555
Ni2_2 S1B 1_555 1_555
S1B_2 Ni2 1_555 1_555
N2B_2 Ni2 1_555 1_555
C2 S2 1_555 1_555
C6 C7 1_555 1_555
C15 C16 1_555 1_555
C20 C21 1_555 1_555
C29 C30 1_555 1_555
N2B Ni2_2 1_555 1_555
C6B C7B 1_555 1_555
C15B C16B 1_555 1_555
C20B C21B 1_555 1_555
C29B C30B 1_555 1_555

#END
