
#######################################################################
#
#                 Cambridge Crystallographic Data Centre
#                                CCDC 
#
#######################################################################
#
# If this CIF has been generated from an entry in the Cambridge 
# Structural Database, then it will include bibliographic, chemical, 
# crystal, experimental, refinement or atomic coordinate data resulting 
# from the CCDC's data processing and validation procedures.
#
#######################################################################

data_HOYCOP02
_symmetry_cell_setting           orthorhombic
_symmetry_space_group_name_H-M   'P b c a'
_symmetry_Int_Tables_number      61
_space_group_name_Hall           '-P 2ac 2ab'
loop_
_symmetry_equiv_pos_site_id
_symmetry_equiv_pos_as_xyz
1 x,y,z
2 1/2-x,-y,1/2+z
3 1/2+x,1/2-y,-z
4 -x,1/2+y,1/2-z
5 -x,-y,-z
6 1/2+x,y,1/2-z
7 1/2-x,1/2+y,z
8 x,1/2-y,1/2+z
_cell_length_a                   10.7699(2)
_cell_length_b                   6.8526(2)
_cell_length_c                   35.0934(8)
_cell_angle_alpha                90
_cell_angle_beta                 90
_cell_angle_gamma                90
_cell_volume                     2589.96
loop_
_atom_site_label
_atom_site_type_symbol
_atom_site_fract_x
_atom_site_fract_y
_atom_site_fract_z
O1 O 0.29091(17) 0.2224(3) 0.08202(5)
O2 O 0.46868(18) 0.7188(3) 0.25438(5)
O3 O 0.13885(17) 0.1129(3) 0.04583(5)
O4 O 0.50295(17) 0.2813(3) 0.03706(5)
O5 O 0.63191(17) 0.6240(3) 0.02955(5)
O6 O 0.49469(18) 0.2252(3) 0.15613(5)
C1 C 0.4308(3) 0.3717(4) 0.16224(7)
H1 H 0.4166 0.4071 0.1880
C2 C 0.6477(2) 0.6306(4) 0.06502(7)
H2 H 0.7155 0.7083 0.0734
C3 C 0.2381(2) 0.2009(4) 0.05013(7)
H3 H 0.2611 0.2963 0.0297
C4 C 0.5552(2) 0.1126(4) 0.03952(8)
H4 H 0.5985 0.0641 0.0179
O7 O 0.41550(18) 0.9159(3) 0.20693(5)
C5 C 0.7064(3) 0.7168(4) 0.17082(7)
H5 H 0.7251 0.6347 0.1498
C6 C 0.3919(3) 0.7867(4) 0.23123(7)
H6 H 0.3096 0.7370 0.2321
O8 O 0.38287(18) 0.4784(3) 0.13668(5)
O9 O 0.58647(17) 0.5489(3) 0.09088(5)
O10 O 0.62557(18) 0.8464(3) 0.16607(5)
O11 O 0.76399(17) 0.6877(3) 0.20110(5)
O12 O 0.5519(2) 0.0129(3) 0.06787(7)
K1 K 0.40498(6) 0.88056(8) 0.125632(16)
Cu1 Cu 0.43824(3) 0.38868(4) 0.085832(8)
Cu2 Cu 0.57940(3) 1.04260(5) 0.203997(8)
Cu3 Cu 0.5000 0.5000 0.0000
O1D O 0.70909(17) 0.7776(3) -0.08202(5)
O2D O 0.53132(18) 0.2812(3) -0.25438(5)
O3D O 0.86115(17) 0.8871(3) -0.04583(5)
O4D O 0.49705(17) 0.7187(3) -0.03706(5)
O5D O 0.36809(17) 0.3760(3) -0.02955(5)
O6D O 0.50531(18) 0.7748(3) -0.15613(5)
C1D C 0.5692(3) 0.6283(4) -0.16224(7)
H1D H 0.5834 0.5929 -0.1880
C2D C 0.3523(2) 0.3694(4) -0.06502(7)
H2D H 0.2845 0.2917 -0.0734
C3D C 0.7619(2) 0.7991(4) -0.05013(7)
H3D H 0.7389 0.7037 -0.0297
C4D C 0.4448(2) 0.8874(4) -0.03952(8)
H4D H 0.4015 0.9359 -0.0179
O7D O 0.58450(18) 0.0841(3) -0.20693(5)
C5D C 0.2936(3) 0.2832(4) -0.17082(7)
H5D H 0.2749 0.3653 -0.1498
C6D C 0.6081(3) 0.2133(4) -0.23123(7)
H6D H 0.6904 0.2630 -0.2321
O8D O 0.61713(18) 0.5216(3) -0.13668(5)
O9D O 0.41353(17) 0.4511(3) -0.09088(5)
O10D O 0.37443(18) 0.1536(3) -0.16607(5)
O11D O 0.23601(17) 0.3123(3) -0.20110(5)
O12D O 0.4481(2) 0.9871(3) -0.06787(7)
K1D K 0.59502(6) 0.11944(8) -0.125632(16)
Cu1D Cu 0.56176(3) 0.61132(4) -0.085832(8)
Cu2D Cu 0.42060(3) -0.04260(5) -0.203997(8)
O1_2 O 0.29091(17) 1.2224(3) 0.08202(5)
O1B O 0.79091(17) 0.2776(3) -0.08202(5)
O1D_2 O 0.70909(17) -0.2224(3) -0.08202(5)
O1F O 0.20909(17) 0.7224(3) 0.08202(5)
O2C O 0.53132(18) 1.2188(3) 0.24562(5)
O2G O 0.46868(18) -0.2188(3) -0.24562(5)
O3B O 0.63885(17) 0.3871(3) -0.04583(5)
O3F O 0.36115(17) 0.6129(3) 0.04583(5)
O6_2 O 0.49469(18) 1.2252(3) 0.15613(5)
O6D_2 O 0.50531(18) -0.2252(3) -0.15613(5)
O8B O 0.88287(18) 0.0216(3) -0.13668(5)
O8F O 0.11713(18) 0.9784(3) 0.13668(5)
O11B O 0.26399(17) -0.1877(3) -0.20110(5)
O11F O 0.73601(17) 1.1877(3) 0.20110(5)
O12_2 O 0.5519(2) 1.0129(3) 0.06787(7)
O12D_2 O 0.4481(2) -0.0129(3) -0.06787(7)
K1_2 K 0.40498(6) -0.11944(8) 0.125632(16)
K1B K 0.90498(6) 0.61944(8) -0.125632(16)
K1D_2 K 0.59502(6) 1.11944(8) -0.125632(16)
K1F K 0.09502(6) 0.38056(8) 0.125632(16)
Cu1B Cu 0.93824(3) 1.11132(4) -0.085832(8)
Cu1F Cu 0.06176(3) -0.11132(4) 0.085832(8)
Cu2_2 Cu 0.57940(3) 0.04260(5) 0.203997(8)
Cu2B Cu 0.07940(3) 0.45740(5) -0.203997(8)
Cu2C Cu 0.42060(3) 0.54260(5) 0.296003(8)
Cu2D_2 Cu 0.42060(3) 0.95740(5) -0.203997(8)
Cu2F Cu 0.92060(3) 0.54260(5) 0.203997(8)
Cu2G Cu 0.57940(3) 0.45740(5) -0.296003(8)
Cu3B Cu 0.0000 0.0000 0.0000
Cu3B_2 Cu 1.0000 1.0000 0.0000
loop_
_geom_bond_atom_site_label_1
_geom_bond_atom_site_label_2
_geom_bond_site_symmetry_1
_geom_bond_site_symmetry_2
O1 C3 1_555 1_555
O2 C6 1_555 1_555
O3 C3 1_555 1_555
O4 C4 1_555 1_555
O5 C2 1_555 1_555
O6 C1 1_555 1_555
C1 H1 1_555 1_555
C2 H2 1_555 1_555
C3 H3 1_555 1_555
C4 H4 1_555 1_555
O7 C6 1_555 1_555
C5 H5 1_555 1_555
C6 H6 1_555 1_555
O8 C1 1_555 1_555
O9 C2 1_555 1_555
O10 C5 1_555 1_555
O11 C5 1_555 1_555
O12 C4 1_555 1_555
K1 O7 1_555 1_555
Cu1 O1 1_555 1_555
Cu2 O7 1_555 1_555
Cu3 O4 1_555 1_555
O1D C3D 1_555 1_555
O2D C6D 1_555 1_555
O3D C3D 1_555 1_555
O4D Cu3 1_555 1_555
O5D Cu3 1_555 1_555
O6D C1D 1_555 1_555
C1D H1D 1_555 1_555
C2D O5D 1_555 1_555
H2D C2D 1_555 1_555
C3D H3D 1_555 1_555
C4D O4D 1_555 1_555
H4D C4D 1_555 1_555
O7D C6D 1_555 1_555
C5D H5D 1_555 1_555
C6D H6D 1_555 1_555
O8D C1D 1_555 1_555
O9D C2D 1_555 1_555
O10D C5D 1_555 1_555
O11D C5D 1_555 1_555
O12D C4D 1_555 1_555
K1D O7D 1_555 1_555
Cu1D O1D 1_555 1_555
Cu2D O7D 1_555 1_555
O1_2 K1 1_555 1_555
O1B K1D 1_555 1_555
O1D_2 K1D 1_555 1_555
O1F K1 1_555 1_555
O2C Cu2 1_555 1_555
O2G Cu2D 1_555 1_555
O3B Cu3 1_555 1_555
O3F K1 1_555 1_555
O6_2 K1 1_555 1_555
O6D_2 K1D 1_555 1_555
O8B K1D 1_555 1_555
O8F K1 1_555 1_555
O11B Cu2D 1_555 1_555
O11F Cu2 1_555 1_555
O12_2 K1 1_555 1_555
O12D_2 K1D 1_555 1_555
K1_2 O1 1_555 1_555
K1B O1D 1_555 1_555
K1D_2 O1D 1_555 1_555
K1F O1 1_555 1_555
Cu1B O3D 1_555 1_555
Cu1F O3 1_555 1_555
Cu2_2 O6 1_555 1_555
Cu2B O11D 1_555 1_555
Cu2C O2 1_555 1_555
Cu2D_2 O6D 1_555 1_555
Cu2F O11 1_555 1_555
Cu2G O2D 1_555 1_555
Cu3B O3 1_555 1_555
Cu3B_2 O3D 1_555 1_555
O3 K1F 1_555 1_555
O4 Cu1 1_555 1_555
O5 Cu3 1_555 1_555
O6 Cu1 1_555 1_555
O6 K1_2 1_555 1_555
O8 K1 1_555 1_555
O8 Cu1 1_555 1_555
O8 K1F 1_555 1_555
O9 K1 1_555 1_555
O9 Cu1 1_555 1_555
O10 K1 1_555 1_555
O10 Cu2 1_555 1_555
O12 K1_2 1_555 1_555
Cu1 O3F 1_555 1_555
Cu2 O6_2 1_555 1_555
Cu3 O3F 1_555 1_555
O3D K1B 1_555 1_555
O4D Cu1D 1_555 1_555
O6D Cu1D 1_555 1_555
O6D K1D_2 1_555 1_555
O8D K1D 1_555 1_555
O8D Cu1D 1_555 1_555
O8D K1B 1_555 1_555
O9D K1D 1_555 1_555
O9D Cu1D 1_555 1_555
O10D K1D 1_555 1_555
O10D Cu2D 1_555 1_555
O12D K1D_2 1_555 1_555
K1D O3B 1_555 1_555
Cu1D O3B 1_555 1_555
Cu2D O6D_2 1_555 1_555
O1B K1B 1_555 1_555
O1F K1F 1_555 1_555

#END
