
#######################################################################
#
#                 Cambridge Crystallographic Data Centre
#                                CCDC 
#
#######################################################################
#
# If this CIF has been generated from an entry in the Cambridge 
# Structural Database, then it will include bibliographic, chemical, 
# crystal, experimental, refinement or atomic coordinate data resulting 
# from the CCDC's data processing and validation procedures.
#
#######################################################################

data_HOYCOP01
_symmetry_cell_setting           orthorhombic
_symmetry_space_group_name_H-M   'P b c a'
_symmetry_Int_Tables_number      61
_space_group_name_Hall           '-P 2ac 2ab'
loop_
_symmetry_equiv_pos_site_id
_symmetry_equiv_pos_as_xyz
1 x,y,z
2 1/2-x,-y,1/2+z
3 1/2+x,1/2-y,-z
4 -x,1/2+y,1/2-z
5 -x,-y,-z
6 1/2+x,y,1/2-z
7 1/2-x,1/2+y,z
8 x,1/2-y,1/2+z
_cell_length_a                   10.7535(3)
_cell_length_b                   6.8410(2)
_cell_length_c                   35.0680(9)
_cell_angle_alpha                90
_cell_angle_beta                 90
_cell_angle_gamma                90
_cell_volume                     2579.77
loop_
_atom_site_label
_atom_site_type_symbol
_atom_site_fract_x
_atom_site_fract_y
_atom_site_fract_z
O1 O 0.13846(18) 0.1124(3) 0.04592(5)
O2 O 0.46880(19) 0.7184(3) 0.25427(5)
O3 O 0.50327(17) 0.2818(3) 0.03704(5)
O4 O 0.63237(18) 0.6240(3) 0.02946(5)
C1 C 0.4305(3) 0.3714(4) 0.16227(8)
H1 H 0.4155 0.4056 0.1881
O5 O 0.49531(18) 0.2252(3) 0.15608(5)
O6 O 0.41458(18) 0.9159(3) 0.20678(5)
C2 C 0.6483(3) 0.6306(4) 0.06507(8)
H2 H 0.7160 0.7089 0.0734
C3 C 0.2383(2) 0.2009(4) 0.05033(7)
H3 H 0.2614 0.2966 0.0300
C4 C 0.5554(3) 0.1112(4) 0.03970(8)
H4 H 0.5989 0.0624 0.0181
O7 O 0.62495(19) 0.8454(3) 0.16595(5)
C5 C 0.7063(3) 0.7154(4) 0.17078(8)
H5 H 0.7255 0.6336 0.1497
C6 C 0.3912(3) 0.7863(4) 0.23113(8)
H6 H 0.3089 0.7362 0.2321
O8 O 0.38288(19) 0.4784(3) 0.13681(5)
O9 O 0.58726(18) 0.5482(3) 0.09098(5)
O10 O 0.76367(17) 0.6859(3) 0.20119(5)
O11 O 0.29131(18) 0.2221(3) 0.08208(5)
O12 O 0.5516(2) 0.0112(3) 0.06793(6)
K1 K 0.40455(6) 0.88071(9) 0.125688(16)
Cu1 Cu 0.43861(3) 0.38851(5) 0.085902(8)
Cu2 Cu 0.57919(3) 1.04175(5) 0.203995(9)
Cu3 Cu 0.5000 0.5000 0.0000
O1D O 0.86154(18) 0.8876(3) -0.04592(5)
O2D O 0.53120(19) 0.2816(3) -0.25427(5)
O3D O 0.49673(17) 0.7182(3) -0.03704(5)
O4D O 0.36763(18) 0.3760(3) -0.02946(5)
C1D C 0.5695(3) 0.6286(4) -0.16227(8)
H1D H 0.5845 0.5944 -0.1881
O5D O 0.50469(18) 0.7748(3) -0.15608(5)
O6D O 0.58542(18) 0.0841(3) -0.20678(5)
C2D C 0.3517(3) 0.3694(4) -0.06507(8)
H2D H 0.2840 0.2911 -0.0734
C3D C 0.7617(2) 0.7991(4) -0.05033(7)
H3D H 0.7386 0.7034 -0.0300
C4D C 0.4446(3) 0.8888(4) -0.03970(8)
H4D H 0.4011 0.9376 -0.0181
O7D O 0.37505(19) 0.1546(3) -0.16595(5)
C5D C 0.2937(3) 0.2846(4) -0.17078(8)
H5D H 0.2745 0.3664 -0.1497
C6D C 0.6088(3) 0.2137(4) -0.23113(8)
H6D H 0.6911 0.2638 -0.2321
O8D O 0.61712(19) 0.5216(3) -0.13681(5)
O9D O 0.41274(18) 0.4518(3) -0.09098(5)
O10D O 0.23633(17) 0.3141(3) -0.20119(5)
O11D O 0.70869(18) 0.7779(3) -0.08208(5)
O12D O 0.4484(2) 0.9888(3) -0.06793(6)
K1D K 0.59545(6) 0.11929(9) -0.125688(16)
Cu1D Cu 0.56139(3) 0.61149(5) -0.085902(8)
Cu2D Cu 0.42081(3) -0.04175(5) -0.203995(9)
O1B O 0.63846(18) 0.3876(3) -0.04592(5)
O1F O 0.36154(18) 0.6124(3) 0.04592(5)
O2C O 0.53120(19) 1.2184(3) 0.24573(5)
O2G O 0.46880(19) -0.2184(3) -0.24573(5)
O5_2 O 0.49531(18) 1.2252(3) 0.15608(5)
O5D_2 O 0.50469(18) -0.2252(3) -0.15608(5)
O8B O 0.88288(19) 0.0216(3) -0.13681(5)
O8F O 0.11712(19) 0.9784(3) 0.13681(5)
O10B O 0.26367(17) -0.1859(3) -0.20119(5)
O10F O 0.73633(17) 1.1859(3) 0.20119(5)
O11_2 O 0.29131(18) 1.2221(3) 0.08208(5)
O11B O 0.79131(18) 0.2779(3) -0.08208(5)
O11D_2 O 0.70869(18) -0.2221(3) -0.08208(5)
O11F O 0.20869(18) 0.7221(3) 0.08208(5)
O12_2 O 0.5516(2) 1.0112(3) 0.06793(6)
O12D_2 O 0.4484(2) -0.0112(3) -0.06793(6)
K1_2 K 0.40455(6) -0.11929(9) 0.125688(16)
K1B K 0.90455(6) 0.61929(9) -0.125688(16)
K1D_2 K 0.59545(6) 1.11929(9) -0.125688(16)
K1F K 0.09545(6) 0.38071(9) 0.125688(16)
Cu1B Cu 0.93861(3) 1.11149(5) -0.085902(8)
Cu1F Cu 0.06139(3) -0.11149(5) 0.085902(8)
Cu2_2 Cu 0.57919(3) 0.04175(5) 0.203995(9)
Cu2B Cu 0.07919(3) 0.45825(5) -0.203995(9)
Cu2C Cu 0.42081(3) 0.54175(5) 0.296005(9)
Cu2D_2 Cu 0.42081(3) 0.95825(5) -0.203995(9)
Cu2F Cu 0.92081(3) 0.54175(5) 0.203995(9)
Cu2G Cu 0.57919(3) 0.45825(5) -0.296005(9)
Cu3B Cu 0.0000 0.0000 0.0000
Cu3B_2 Cu 1.0000 1.0000 0.0000
loop_
_geom_bond_atom_site_label_1
_geom_bond_atom_site_label_2
_geom_bond_site_symmetry_1
_geom_bond_site_symmetry_2
O1 C3 1_555 1_555
O2 C6 1_555 1_555
O3 C4 1_555 1_555
O4 C2 1_555 1_555
C1 H1 1_555 1_555
O5 C1 1_555 1_555
O6 C6 1_555 1_555
C2 H2 1_555 1_555
C3 H3 1_555 1_555
C4 H4 1_555 1_555
O7 C5 1_555 1_555
C5 H5 1_555 1_555
C6 H6 1_555 1_555
O8 C1 1_555 1_555
O9 C2 1_555 1_555
O10 C5 1_555 1_555
O11 C3 1_555 1_555
O12 C4 1_555 1_555
K1 O6 1_555 1_555
Cu1 O3 1_555 1_555
Cu2 O6 1_555 1_555
Cu3 O3 1_555 1_555
O1D C3D 1_555 1_555
O2D C6D 1_555 1_555
O3D Cu3 1_555 1_555
O4D Cu3 1_555 1_555
C1D H1D 1_555 1_555
O5D C1D 1_555 1_555
O6D C6D 1_555 1_555
C2D O4D 1_555 1_555
H2D C2D 1_555 1_555
C3D H3D 1_555 1_555
C4D O3D 1_555 1_555
H4D C4D 1_555 1_555
O7D C5D 1_555 1_555
C5D H5D 1_555 1_555
C6D H6D 1_555 1_555
O8D C1D 1_555 1_555
O9D C2D 1_555 1_555
O10D C5D 1_555 1_555
O11D C3D 1_555 1_555
O12D C4D 1_555 1_555
K1D O6D 1_555 1_555
Cu1D O3D 1_555 1_555
Cu2D O6D 1_555 1_555
O1B Cu3 1_555 1_555
O1F K1 1_555 1_555
O2C Cu2 1_555 1_555
O2G Cu2D 1_555 1_555
O5_2 K1 1_555 1_555
O5D_2 K1D 1_555 1_555
O8B K1D 1_555 1_555
O8F K1 1_555 1_555
O10B Cu2D 1_555 1_555
O10F Cu2 1_555 1_555
O11_2 K1 1_555 1_555
O11B K1D 1_555 1_555
O11D_2 K1D 1_555 1_555
O11F K1 1_555 1_555
O12_2 K1 1_555 1_555
O12D_2 K1D 1_555 1_555
K1_2 O5 1_555 1_555
K1B O1D 1_555 1_555
K1D_2 O5D 1_555 1_555
K1F O1 1_555 1_555
Cu1B O1D 1_555 1_555
Cu1F O1 1_555 1_555
Cu2_2 O5 1_555 1_555
Cu2B O10D 1_555 1_555
Cu2C O2 1_555 1_555
Cu2D_2 O5D 1_555 1_555
Cu2F O10 1_555 1_555
Cu2G O2D 1_555 1_555
Cu3B O1 1_555 1_555
Cu3B_2 O1D 1_555 1_555
O4 Cu3 1_555 1_555
O5 Cu1 1_555 1_555
O7 K1 1_555 1_555
O7 Cu2 1_555 1_555
O8 K1 1_555 1_555
O8 Cu1 1_555 1_555
O8 K1F 1_555 1_555
O9 K1 1_555 1_555
O9 Cu1 1_555 1_555
O11 Cu1 1_555 1_555
O11 K1_2 1_555 1_555
O11 K1F 1_555 1_555
O12 K1_2 1_555 1_555
Cu1 O1F 1_555 1_555
Cu2 O5_2 1_555 1_555
Cu3 O1F 1_555 1_555
O5D Cu1D 1_555 1_555
O7D K1D 1_555 1_555
O7D Cu2D 1_555 1_555
O8D K1D 1_555 1_555
O8D Cu1D 1_555 1_555
O8D K1B 1_555 1_555
O9D K1D 1_555 1_555
O9D Cu1D 1_555 1_555
O11D Cu1D 1_555 1_555
O11D K1B 1_555 1_555
O11D K1D_2 1_555 1_555
O12D K1D_2 1_555 1_555
K1D O1B 1_555 1_555
Cu1D O1B 1_555 1_555
Cu2D O5D_2 1_555 1_555
O11B K1B 1_555 1_555
O11F K1F 1_555 1_555

#END
