
#######################################################################
#
#                 Cambridge Crystallographic Data Centre
#                                CCDC 
#
#######################################################################
#
# If this CIF has been generated from an entry in the Cambridge 
# Structural Database, then it will include bibliographic, chemical, 
# crystal, experimental, refinement or atomic coordinate data resulting 
# from the CCDC's data processing and validation procedures.
#
#######################################################################

data_HOYDIJ
_symmetry_cell_setting           monoclinic
_symmetry_space_group_name_H-M   'P 2/c'
_symmetry_Int_Tables_number      13
_space_group_name_Hall           '-P 2yc'
loop_
_symmetry_equiv_pos_site_id
_symmetry_equiv_pos_as_xyz
1 x,y,z
2 -x,y,1/2-z
3 -x,-y,-z
4 x,-y,1/2+z
_cell_length_a                   15.869(2)
_cell_length_b                   7.6384(10)
_cell_length_c                   8.0579(10)
_cell_angle_alpha                90
_cell_angle_beta                 102.303(3)
_cell_angle_gamma                90
_cell_volume                     954.297
loop_
_atom_site_label
_atom_site_type_symbol
_atom_site_fract_x
_atom_site_fract_y
_atom_site_fract_z
K1 K 0.0000 -0.40743(13) 0.2500
P1 P -0.11957(5) -0.19807(10) 0.50445(9)
O1 O -0.10347(12) -0.1644(3) 0.6995(2)
H1 H -0.1017 -0.0734 0.7297
O2 O -0.05420(12) -0.1004(3) 0.4246(2)
O3 O -0.11473(12) -0.3916(3) 0.4827(2)
O4 O -0.22292(14) 0.3565(3) 0.4162(3)
H2 H -0.1938 0.4268 0.4559
O5 O -0.49197(14) -0.2865(3) 0.0304(3)
O6 O -0.12992(12) 0.1783(3) 0.5796(2)
O7 O -0.39942(15) -0.4906(3) 0.1511(3)
H3 H -0.4338 -0.5757 0.0889
C1 C -0.22613(17) -0.1200(4) 0.4021(3)
C2 C -0.25201(18) 0.0567(4) 0.3893(3)
C3 C -0.33377(18) 0.1025(4) 0.2942(4)
H4 H -0.3510 0.2218 0.2871
C4 C -0.38928(19) -0.0227(4) 0.2113(4)
H5 H -0.4445 0.0099 0.1474
C5 C -0.36438(18) -0.1958(4) 0.2214(4)
C6 C -0.28379(18) -0.2439(4) 0.3169(4)
H6 H -0.2679 -0.3640 0.3239
C7 C -0.19498(18) 0.2019(4) 0.4711(4)
C8 C -0.42432(19) -0.3283(4) 0.1257(4)
H7 H 0.0000 0.0000 0.5000
K1B K 0.0000 -0.59257(13) 0.7500
K1B_2 K 0.0000 0.40743(13) 0.7500
K1_2 K 0.0000 0.59257(13) 0.2500
P1B P 0.11957(5) 0.19807(10) 0.49555(9)
O1B O 0.10347(12) 0.1644(3) 0.3005(2)
H1B H 0.1017 0.0734 0.2703
O2B O 0.05420(12) 0.1004(3) 0.5754(2)
O2A O 0.05420(12) -0.1004(3) 0.0754(2)
O3B O 0.11473(12) 0.3916(3) 0.5173(2)
O3B_2 O 0.11473(12) -0.6084(3) 0.5173(2)
O3C O -0.11473(12) -0.6084(3) -0.0173(2)
O3A O 0.11473(12) -0.3916(3) 0.0173(2)
O4B O 0.22292(14) -0.3565(3) 0.5838(3)
H2B H 0.1938 -0.4268 0.5441
O5B O 0.49197(14) 0.2865(3) 0.9696(3)
O6B O 0.12992(12) -0.1783(3) 0.4204(2)
O6C O -0.12992(12) -0.1783(3) 0.0796(2)
O7B O 0.39942(15) 0.4906(3) 0.8489(3)
H3B H 0.4338 0.5757 0.9111
C1B C 0.22613(17) 0.1200(4) 0.5979(3)
C2B C 0.25201(18) -0.0567(4) 0.6107(3)
C3B C 0.33377(18) -0.1025(4) 0.7058(4)
H4B H 0.3510 -0.2218 0.7129
C4B C 0.38928(19) 0.0227(4) 0.7887(4)
H5B H 0.4445 -0.0099 0.8526
C5B C 0.36438(18) 0.1958(4) 0.7786(4)
C6B C 0.28379(18) 0.2439(4) 0.6831(4)
H6B H 0.2679 0.3640 0.6761
C7B C 0.19498(18) -0.2019(4) 0.5289(4)
C8B C 0.42432(19) 0.3283(4) 0.8743(4)
loop_
_geom_bond_atom_site_label_1
_geom_bond_atom_site_label_2
_geom_bond_site_symmetry_1
_geom_bond_site_symmetry_2
K1 O2 1_555 1_555
P1 O1 1_555 1_555
O1 H1 1_555 1_555
O2 P1 1_555 1_555
O3 K1 1_555 1_555
O4 H2 1_555 1_555
O5 C8 1_555 1_555
O6 C7 1_555 1_555
O7 H3 1_555 1_555
C1 P1 1_555 1_555
C2 C1 1_555 1_555
C3 C2 1_555 1_555
H4 C3 1_555 1_555
C4 C3 1_555 1_555
H5 C4 1_555 1_555
C5 C4 1_555 1_555
C6 C1 1_555 1_555
H6 C6 1_555 1_555
C7 O4 1_555 1_555
C8 O7 1_555 1_555
H7 O2 1_555 1_555
K1B O3 1_555 1_555
K1B_2 O6 1_555 1_555
K1_2 O3B 1_555 1_555
P1B O1B 1_555 1_555
O1B H1B 1_555 1_555
O2B H7 1_555 1_555
O2A K1 1_555 1_555
O3B K1B_2 1_555 1_555
O3B_2 K1 1_555 1_555
O3C K1 1_555 1_555
O3A K1 1_555 1_555
O4B H2B 1_555 1_555
O5B C8B 1_555 1_555
O6B K1 1_555 1_555
O6C K1 1_555 1_555
O7B H3B 1_555 1_555
C1B P1B 1_555 1_555
C2B C1B 1_555 1_555
C3B C2B 1_555 1_555
H4B C3B 1_555 1_555
C4B C3B 1_555 1_555
H5B C4B 1_555 1_555
C5B C4B 1_555 1_555
C6B C1B 1_555 1_555
H6B C6B 1_555 1_555
C7B O4B 1_555 1_555
C8B O7B 1_555 1_555
P1 O3 1_555 1_555
C2 C7 1_555 1_555
C5 C6 1_555 1_555
C5 C8 1_555 1_555
K1B O3B_2 1_555 1_555
K1B_2 O2B 1_555 1_555
P1B O2B 1_555 1_555
P1B O3B 1_555 1_555
O6B C7B 1_555 1_555
C2B C7B 1_555 1_555
C5B C6B 1_555 1_555
C5B C8B 1_555 1_555

#END
