
#######################################################################
#
#                 Cambridge Crystallographic Data Centre
#                                CCDC 
#
#######################################################################
#
# If this CIF has been generated from an entry in the Cambridge 
# Structural Database, then it will include bibliographic, chemical, 
# crystal, experimental, refinement or atomic coordinate data resulting 
# from the CCDC's data processing and validation procedures.
#
#######################################################################

data_HOYJOU
_symmetry_cell_setting           monoclinic
_symmetry_space_group_name_H-M   'P 21/n'
_symmetry_Int_Tables_number      14
_space_group_name_Hall           '-P 2yn'
loop_
_symmetry_equiv_pos_site_id
_symmetry_equiv_pos_as_xyz
1 x,y,z
2 1/2+x,1/2-y,1/2+z
3 -x,-y,-z
4 1/2-x,1/2+y,1/2-z
_cell_length_a                   17.768(7)
_cell_length_b                   7.368(4)
_cell_length_c                   21.404(8)
_cell_angle_alpha                90
_cell_angle_beta                 92.780(18)
_cell_angle_gamma                90
_cell_volume                     2798.8
loop_
_atom_site_label
_atom_site_type_symbol
_atom_site_fract_x
_atom_site_fract_y
_atom_site_fract_z
Mn1 Mn 0.0000 -0.5000 0.0000
N1 N -0.03486(19) -0.4649(5) 0.10027(14)
N2 N -0.17125(19) -0.4772(6) 0.30664(14)
N3 N -0.0603(2) -0.3821(5) 0.33771(16)
N7 N 0.14945(19) -0.9970(7) 0.03473(18)
N8 N 0.0858(2) -0.7062(6) 0.02934(18)
N9 N 0.0864(2) -1.2874(6) 0.01417(19)
O1 O -0.22491(16) -0.5456(5) 0.27268(13)
O2 O 0.0082(2) -0.3319(5) 0.33963(14)
C1 C -0.1065(2) -0.4379(6) 0.11390(19)
H1 H -0.1423 -0.4282 0.0809
C2 C -0.1306(2) -0.4237(6) 0.17355(18)
H2 H -0.1812 -0.4040 0.1803
C3 C -0.0786(2) -0.4389(5) 0.22376(17)
C4 C -0.0036(2) -0.4642(6) 0.21037(17)
H3 H 0.0335 -0.4734 0.2424
C5 C 0.0145(2) -0.4753(6) 0.14879(18)
H4 H 0.0650 -0.4912 0.1405
C6 C -0.1022(2) -0.4302(6) 0.28791(18)
C7 C -0.1798(2) -0.4258(7) 0.37411(19)
C8 C -0.0981(2) -0.4131(7) 0.39775(19)
C9 C -0.2210(3) -0.2417(8) 0.3722(2)
H5 H -0.1931 -0.1564 0.3485
H6 H -0.2252 -0.1972 0.4140
H7 H -0.2705 -0.2569 0.3527
C10 C -0.2286(3) -0.5651(8) 0.4050(2)
H8 H -0.2802 -0.5481 0.3910
H9 H -0.2239 -0.5505 0.4496
H10 H -0.2126 -0.6849 0.3940
C11 C -0.0779(3) -0.2646(8) 0.4439(2)
H11 H -0.0242 -0.2482 0.4464
H12 H -0.0947 -0.2975 0.4843
H13 H -0.1018 -0.1536 0.4304
C12 C -0.0668(3) -0.5960(8) 0.4231(2)
H14 H -0.0727 -0.6869 0.3911
H15 H -0.0940 -0.6319 0.4588
H16 H -0.0144 -0.5827 0.4351
C25 C 0.1126(3) -0.8455(8) 0.0305(2)
C26 C 0.1136(3) -1.1505(8) 0.0237(2)
N1B N 0.03486(19) -0.5351(5) -0.10027(14)
C1B C 0.1065(2) -0.5621(6) -0.11390(19)
H1B H 0.1423 -0.5718 -0.0809
C2B C 0.1306(2) -0.5763(6) -0.17355(18)
H2B H 0.1812 -0.5960 -0.1803
C3B C 0.0786(2) -0.5611(5) -0.22376(17)
C4B C 0.0036(2) -0.5358(6) -0.21037(17)
H3B H -0.0335 -0.5266 -0.2424
C5B C -0.0145(2) -0.5247(6) -0.14879(18)
H4B H -0.0650 -0.5088 -0.1405
C6B C 0.1022(2) -0.5698(6) -0.28791(18)
N2B N 0.17125(19) -0.5228(6) -0.30664(14)
O1B O 0.22491(16) -0.4544(5) -0.27268(13)
C7B C 0.1798(2) -0.5742(7) -0.37411(19)
C8B C 0.0981(2) -0.5869(7) -0.39775(19)
N3B N 0.0603(2) -0.6179(5) -0.33771(16)
O2B O -0.0082(2) -0.6681(5) -0.33963(14)
C11B C 0.0779(3) -0.7354(8) -0.4439(2)
H11B H 0.0242 -0.7518 -0.4464
H12B H 0.0947 -0.7025 -0.4843
H13B H 0.1018 -0.8464 -0.4304
C12B C 0.0668(3) -0.4040(8) -0.4231(2)
H14B H 0.0727 -0.3131 -0.3911
H15B H 0.0940 -0.3681 -0.4588
H16B H 0.0144 -0.4173 -0.4351
C9B C 0.2210(3) -0.7583(8) -0.3722(2)
H5B H 0.1931 -0.8436 -0.3485
H6B H 0.2252 -0.8028 -0.4140
H7B H 0.2705 -0.7431 -0.3527
C10B C 0.2286(3) -0.4349(8) -0.4050(2)
H8B H 0.2802 -0.4519 -0.3910
H9B H 0.2239 -0.4495 -0.4496
H10B H 0.2126 -0.3151 -0.3940
N9_2 N 0.0864(2) -0.2874(6) 0.01417(19)
Mn1_2 Mn 0.0000 -1.5000 0.0000
N8B N -0.0858(2) -1.2938(6) -0.02934(18)
C25B C -0.1126(3) -1.1545(8) -0.0305(2)
N7B N -0.14945(19) -1.0030(7) -0.03473(18)
C26B C -0.1136(3) -0.8495(8) -0.0237(2)
N9B N -0.0864(2) -0.7126(6) -0.01417(19)
N8B_2 N -0.0858(2) -0.2938(6) -0.02934(18)
N4 N -0.0898(2) 0.0842(6) 0.1706(2)
N5 N 0.11108(19) 0.0106(6) 0.35277(16)
N6 N 0.15733(19) -0.1487(5) 0.27800(16)
O3 O 0.0688(2) 0.1165(6) 0.38320(17)
O4 O 0.16644(18) -0.2211(5) 0.22526(15)
C13 C -0.0920(3) 0.0902(7) 0.2322(3)
H17 H -0.1378 0.1204 0.2487
C14 C -0.0322(2) 0.0556(6) 0.2741(2)
H18 H -0.0377 0.0638 0.3170
C15 C 0.0368(2) 0.0079(7) 0.25019(19)
C16 C 0.0409(2) 0.0041(7) 0.18611(19)
H19 H 0.0860 -0.0244 0.1680
C17 C -0.0227(3) 0.0431(7) 0.1491(2)
H20 H -0.0185 0.0406 0.1060
C18 C 0.1008(2) -0.0389(6) 0.29281(19)
C19 C 0.1834(2) -0.0571(6) 0.38300(19)
C20 C 0.2083(2) -0.1967(6) 0.33405(18)
C21 C 0.2343(3) 0.1070(7) 0.3920(2)
H21 H 0.2486 0.1502 0.3519
H22 H 0.2786 0.0736 0.4168
H23 H 0.2079 0.2012 0.4129
C22 C 0.1669(3) -0.1379(7) 0.4462(2)
H24 H 0.1533 -0.0427 0.4742
H25 H 0.2109 -0.1993 0.4632
H26 H 0.1260 -0.2227 0.4412
C23 C 0.1917(3) -0.3942(6) 0.3490(2)
H27 H 0.1402 -0.4058 0.3599
H28 H 0.2243 -0.4334 0.3835
H29 H 0.2002 -0.4679 0.3130
C24 C 0.2895(2) -0.1799(7) 0.3157(2)
H30 H 0.2980 -0.2606 0.2815
H31 H 0.3227 -0.2112 0.3508
H32 H 0.2992 -0.0573 0.3032
loop_
_geom_bond_atom_site_label_1
_geom_bond_atom_site_label_2
_geom_bond_site_symmetry_1
_geom_bond_site_symmetry_2
Mn1 N1 1_555 1_555
N1 C1 1_555 1_555
N2 O1 1_555 1_555
N3 O2 1_555 1_555
N4 C13 1_555 1_555
N5 O3 1_555 1_555
N6 O4 1_555 1_555
N7 C25 1_555 1_555
N8 Mn1 1_555 1_555
N9 C26 1_555 1_555
C1 H1 1_555 1_555
C2 C1 1_555 1_555
H2 C2 1_555 1_555
C3 C2 1_555 1_555
C4 C3 1_555 1_555
H3 C4 1_555 1_555
C5 N1 1_555 1_555
H4 C5 1_555 1_555
C6 N2 1_555 1_555
C7 N2 1_555 1_555
C8 N3 1_555 1_555
C9 C7 1_555 1_555
H5 C9 1_555 1_555
H6 C9 1_555 1_555
H7 C9 1_555 1_555
C10 C7 1_555 1_555
H8 C10 1_555 1_555
H9 C10 1_555 1_555
H10 C10 1_555 1_555
C11 C8 1_555 1_555
H11 C11 1_555 1_555
H12 C11 1_555 1_555
H13 C11 1_555 1_555
C12 C8 1_555 1_555
H14 C12 1_555 1_555
H15 C12 1_555 1_555
H16 C12 1_555 1_555
C13 H17 1_555 1_555
C14 C13 1_555 1_555
H18 C14 1_555 1_555
C15 C14 1_555 1_555
C16 C15 1_555 1_555
H19 C16 1_555 1_555
C17 N4 1_555 1_555
H20 C17 1_555 1_555
C18 N5 1_555 1_555
C19 N5 1_555 1_555
C20 N6 1_555 1_555
C21 C19 1_555 1_555
H21 C21 1_555 1_555
H22 C21 1_555 1_555
H23 C21 1_555 1_555
C22 C19 1_555 1_555
H24 C22 1_555 1_555
H25 C22 1_555 1_555
H26 C22 1_555 1_555
C23 C20 1_555 1_555
H27 C23 1_555 1_555
H28 C23 1_555 1_555
H29 C23 1_555 1_555
C24 C20 1_555 1_555
H30 C24 1_555 1_555
H31 C24 1_555 1_555
H32 C24 1_555 1_555
C25 N8 1_555 1_555
C26 N7 1_555 1_555
N1B Mn1 1_555 1_555
C1B N1B 1_555 1_555
H1B C1B 1_555 1_555
C2B C1B 1_555 1_555
H2B C2B 1_555 1_555
C3B C2B 1_555 1_555
C4B C3B 1_555 1_555
H3B C4B 1_555 1_555
C5B N1B 1_555 1_555
H4B C5B 1_555 1_555
C6B C3B 1_555 1_555
N2B C6B 1_555 1_555
O1B N2B 1_555 1_555
C7B N2B 1_555 1_555
C8B C7B 1_555 1_555
N3B C6B 1_555 1_555
O2B N3B 1_555 1_555
C11B C8B 1_555 1_555
H11B C11B 1_555 1_555
H12B C11B 1_555 1_555
H13B C11B 1_555 1_555
C12B C8B 1_555 1_555
H14B C12B 1_555 1_555
H15B C12B 1_555 1_555
H16B C12B 1_555 1_555
C9B C7B 1_555 1_555
H5B C9B 1_555 1_555
H6B C9B 1_555 1_555
H7B C9B 1_555 1_555
C10B C7B 1_555 1_555
H8B C10B 1_555 1_555
H9B C10B 1_555 1_555
H10B C10B 1_555 1_555
N9_2 Mn1 1_555 1_555
Mn1_2 N9 1_555 1_555
N8B Mn1_2 1_555 1_555
C25B N8B 1_555 1_555
N7B C25B 1_555 1_555
C26B N7B 1_555 1_555
N9B Mn1 1_555 1_555
N8B_2 Mn1 1_555 1_555
N3 C6 1_555 1_555
N6 C18 1_555 1_555
C3 C6 1_555 1_555
C4 C5 1_555 1_555
C7 C8 1_555 1_555
C15 C18 1_555 1_555
C16 C17 1_555 1_555
C19 C20 1_555 1_555
C4B C5B 1_555 1_555
C8B N3B 1_555 1_555
C26B N9B 1_555 1_555

#END
