
#######################################################################
#
#                 Cambridge Crystallographic Data Centre
#                                CCDC 
#
#######################################################################
#
# If this CIF has been generated from an entry in the Cambridge 
# Structural Database, then it will include bibliographic, chemical, 
# crystal, experimental, refinement or atomic coordinate data resulting 
# from the CCDC's data processing and validation procedures.
#
#######################################################################

data_HOYLEO
_symmetry_cell_setting           triclinic
_symmetry_space_group_name_H-M   'P -1'
_symmetry_Int_Tables_number      2
_space_group_name_Hall           '-P 1'
loop_
_symmetry_equiv_pos_site_id
_symmetry_equiv_pos_as_xyz
1 x,y,z
2 -x,-y,-z
_cell_length_a                   7.7233(11)
_cell_length_b                   12.3827(17)
_cell_length_c                   12.4646(17)
_cell_angle_alpha                68.448(2)
_cell_angle_beta                 78.217(3)
_cell_angle_gamma                81.382(3)
_cell_volume                     1081.68
loop_
_atom_site_label
_atom_site_type_symbol
_atom_site_fract_x
_atom_site_fract_y
_atom_site_fract_z
Cu1 Cu 0.5000 0.5000 1.0000
Cu2 Cu 0.47337(9) 0.27447(5) 1.22538(5)
Cu3 Cu 0.64588(9) 0.26606(5) 0.98153(5)
Cu4 Cu 0.67508(9) 0.49560(5) 0.74824(5)
S1 S 1.08596(18) 0.32261(12) 0.85428(12)
O1 O 1.2246(6) 0.3904(3) 0.4051(3)
O2 O 1.3297(5) 0.2175(3) 0.3846(3)
O3 O 1.3691(5) -0.1296(3) 0.7317(3)
O4 O 1.2492(5) -0.1218(3) 0.9107(3)
O5 O 0.9038(5) 0.3705(3) 0.8520(3)
O6 O 1.2116(6) 0.4100(4) 0.8031(4)
O7 O 1.1116(6) 0.2450(4) 0.9719(4)
O8 O 0.3072(5) 0.4059(3) 1.1680(3)
H1 H 0.1990 0.3924 1.1790
O9 O 0.6375(5) 0.3553(3) 1.0826(3)
H2 H 0.7391 0.3529 1.1001
O10 O 0.4865(5) 0.5894(3) 1.1068(3)
H3 H 0.5903 0.5962 1.1153
O11 O 0.6159(6) 0.3831(4) 1.3066(4)
H4 H 0.7193 0.3936 1.2667
H5 H 0.6284 0.3469 1.3775
O12 O 0.3727(5) 0.1918(3) 1.1061(3)
H6 H 0.2779 0.2253 1.0799
H7 H 0.3721 0.1180 1.1332
N1 N 0.6608(7) 0.0293(3) 0.7963(5)
C1 C 0.6478(8) 0.0799(5) 0.8807(4)
H8 H 0.6353 0.0336 0.9594
N2 N 0.6536(8) 0.1996(5) 0.8476(4)
C2 C 0.6724(5) 0.2687(3) 0.7299(4)
C3 C 0.6854(4) 0.2182(4) 0.6455(3)
C4 C 0.6796(5) 0.0985(4) 0.6786(4)
N3 N 0.7025(7) 0.3053(6) 0.5387(6)
C5 C 0.6991(8) 0.4001(6) 0.5639(6)
H9 H 0.7084 0.4735 0.5065
N4 N 0.6809(7) 0.3831(5) 0.6791(6)
N5 N 0.6911(8) 0.0418(7) 0.6030(7)
H10 H 0.7029 0.0800 0.5291
H11 H 0.6867 -0.0326 0.6288
C6 C 1.2123(7) 0.2219(5) 0.5737(5)
C7 C 1.2489(7) 0.1015(4) 0.6244(5)
H12 H 1.2894 0.0570 0.5768
C8 C 1.2253(7) 0.0476(4) 0.7453(5)
C9 C 1.1645(7) 0.1149(4) 0.8171(5)
H13 H 1.1450 0.0796 0.8981
C10 C 1.1340(7) 0.2340(4) 0.7662(5)
C11 C 1.1538(7) 0.2876(4) 0.6451(5)
H14 H 1.1278 0.3676 0.6122
C12 C 1.2567(8) 0.2811(5) 0.4432(5)
C13 C 1.2840(7) -0.0796(4) 0.8009(5)
Cu2A Cu 0.52663(9) 0.72553(5) 0.77462(5)
Cu3A Cu 0.35412(9) 0.73394(5) 1.01847(5)
Cu4A Cu 0.32492(9) 0.50440(5) 1.25176(5)
S1A S -0.08596(18) 0.67739(12) 1.14572(12)
O1A O -0.2246(6) 0.6096(3) 1.5949(3)
O2A O -0.3297(5) 0.7825(3) 1.6154(3)
O3A O -0.3691(5) 1.1296(3) 1.2683(3)
O4A O -0.2492(5) 1.1218(3) 1.0893(3)
O5A O 0.0962(5) 0.6295(3) 1.1480(3)
O6A O -0.2116(6) 0.5900(4) 1.1969(4)
O7A O -0.1116(6) 0.7550(4) 1.0281(4)
O8A O 0.6928(5) 0.5941(3) 0.8320(3)
H1A H 0.8010 0.6076 0.8210
O9A O 0.3625(5) 0.6447(3) 0.9174(3)
H2A H 0.2609 0.6471 0.8999
O10A O 0.5135(5) 0.4106(3) 0.8932(3)
H3A H 0.4097 0.4038 0.8847
O11A O 0.3841(6) 0.6169(4) 0.6934(4)
H4A H 0.2807 0.6064 0.7333
H5A H 0.3716 0.6531 0.6225
O12A O 0.6273(5) 0.8082(3) 0.8939(3)
H6A H 0.7221 0.7747 0.9201
H7A H 0.6279 0.8820 0.8668
N1A N 0.3392(7) 0.9707(3) 1.2037(5)
C1A C 0.3522(8) 0.9201(5) 1.1193(4)
H8A H 0.3647 0.9664 1.0406
N2A N 0.3464(8) 0.8004(5) 1.1524(4)
C2A C 0.3276(5) 0.7313(3) 1.2701(4)
C3A C 0.3146(4) 0.7818(4) 1.3545(3)
C4A C 0.3204(5) 0.9015(4) 1.3214(4)
N3A N 0.2975(7) 0.6947(6) 1.4613(6)
C5A C 0.3009(8) 0.5999(6) 1.4361(6)
H9A H 0.2916 0.5265 1.4935
N4A N 0.3191(7) 0.6169(5) 1.3209(6)
N5A N 0.3089(8) 0.9582(7) 1.3970(7)
H10A H 0.2971 0.9200 1.4709
H11A H 0.3133 1.0326 1.3712
C6A C -0.2123(7) 0.7781(5) 1.4263(5)
C7A C -0.2489(7) 0.8985(4) 1.3756(5)
H12A H -0.2894 0.9430 1.4232
C8A C -0.2253(7) 0.9524(4) 1.2547(5)
C9A C -0.1645(7) 0.8851(4) 1.1829(5)
H13A H -0.1450 0.9204 1.1019
C10A C -0.1340(7) 0.7660(4) 1.2338(5)
C11A C -0.1538(7) 0.7124(4) 1.3549(5)
H14A H -0.1278 0.6324 1.3878
C12A C -0.2567(8) 0.7189(5) 1.5568(5)
C13A C -0.2840(7) 1.0796(4) 1.1991(5)
Cu2_2 Cu -0.52663(9) 1.27447(5) 1.22538(5)
Cu2_3 Cu 1.47337(9) 0.27447(5) 0.22538(5)
Cu2A_2 Cu -0.47337(9) 0.72553(5) 1.77462(5)
Cu2A_3 Cu 1.52663(9) -0.27447(5) 0.77462(5)
Cu3_2 Cu -0.35412(9) 1.26606(5) 0.98153(5)
Cu3A_2 Cu 1.35412(9) -0.26606(5) 1.01847(5)
Cu4_2 Cu -0.32492(9) 0.49560(5) 1.74824(5)
Cu4A_2 Cu 1.32492(9) 0.50440(5) 0.25176(5)
O1_2 O 0.2246(6) 0.3904(3) 1.4051(3)
O1A_2 O 0.7754(6) 0.6096(3) 0.5949(3)
O2_2 O 0.3297(5) 0.2175(3) 1.3846(3)
O2A_2 O 0.6703(5) 0.7825(3) 0.6154(3)
O3_2 O 0.3691(5) 0.8704(3) 0.7317(3)
O3A_2 O 0.6309(5) 0.1296(3) 1.2683(3)
O4_2 O 0.2492(5) 0.8782(3) 0.9107(3)
O4A_2 O 0.7508(5) 0.1218(3) 1.0893(3)
O14 O 0.9667(10) 0.332(2) 0.1532(16)
O15 O 0.950(3) 0.178(2) 0.3788(16)
N6? N 0.6609(7) 0.3055(6) 0.5194(4)
C14? C 0.6566(9) 0.3915(4) 0.5670(5)
H15? H 0.6522 0.4696 0.5193
N7? N 0.6589(9) 0.3608(4) 0.6858(6)
C15? C 0.6655(6) 0.2441(5) 0.7569(4)
C16? C 0.6698(5) 0.1581(4) 0.7094(4)
C17? C 0.6675(6) 0.1888(5) 0.5906(5)
N8? N 0.6758(8) 0.0529(6) 0.7985(7)
C18? C 0.6749(9) 0.0808(7) 0.8910(6)
H16? H 0.6783 0.0252 0.9651
N9? N 0.6686(8) 0.1964(7) 0.8703(6)
N10? N 0.6713(9) 0.1118(8) 0.5373(9)
H17? H 0.6754 0.0384 0.5770
H18? H 0.6696 0.1358 0.4634
O13? O 0.973(3) 0.396(4) 0.101(4)
loop_
_geom_bond_atom_site_label_1
_geom_bond_atom_site_label_2
_geom_bond_site_symmetry_1
_geom_bond_site_symmetry_2
Cu1 O8 1_555 1_555
Cu2 O8 1_555 1_555
Cu3 O5 1_555 1_555
Cu4 O5 1_555 1_555
S1 O5 1_555 1_555
O1 C12 1_555 1_555
O2 C12 1_555 1_555
O3 C13 1_555 1_555
O4 C13 1_555 1_555
O6 S1 1_555 1_555
O7 S1 1_555 1_555
O8 H1 1_555 1_555
O9 Cu1 1_555 1_555
H2 O9 1_555 1_555
O10 Cu1 1_555 1_555
H3 O10 1_555 1_555
O11 Cu2 1_555 1_555
H4 O11 1_555 1_555
H5 O11 1_555 1_555
O12 Cu2 1_555 1_555
H6 O12 1_555 1_555
H7 O12 1_555 1_555
N1 C1 1_555 1_555
C1 H8 1_555 1_555
N2 Cu3 1_555 1_555
C2 N2 1_555 1_555
C3 C2 1_555 1_555
C4 N1 1_555 1_555
N3 C3 1_555 1_555
C5 N3 1_555 1_555
H9 C5 1_555 1_555
N4 Cu4 1_555 1_555
N5 C4 1_555 1_555
H10 N5 1_555 1_555
H11 N5 1_555 1_555
C6 C7 1_555 1_555
C7 H12 1_555 1_555
C8 C7 1_555 1_555
C9 C8 1_555 1_555
H13 C9 1_555 1_555
C10 S1 1_555 1_555
C11 C6 1_555 1_555
H14 C11 1_555 1_555
C12 C6 1_555 1_555
C13 C8 1_555 1_555
Cu2A O8A 1_555 1_555
Cu3A O10 1_555 1_555
Cu4A O8 1_555 1_555
S1A O5A 1_555 1_555
O1A C12A 1_555 1_555
O2A C12A 1_555 1_555
O3A C13A 1_555 1_555
O4A C13A 1_555 1_555
O5A Cu3A 1_555 1_555
O6A S1A 1_555 1_555
O7A S1A 1_555 1_555
O8A Cu1 1_555 1_555
H1A O8A 1_555 1_555
O9A Cu1 1_555 1_555
H2A O9A 1_555 1_555
O10A Cu1 1_555 1_555
H3A O10A 1_555 1_555
O11A Cu4 1_555 1_555
H4A O11A 1_555 1_555
H5A O11A 1_555 1_555
O12A Cu2A 1_555 1_555
H6A O12A 1_555 1_555
H7A O12A 1_555 1_555
N1A C1A 1_555 1_555
C1A H8A 1_555 1_555
N2A Cu3A 1_555 1_555
C2A N2A 1_555 1_555
C3A C2A 1_555 1_555
C4A N1A 1_555 1_555
N3A C3A 1_555 1_555
C5A N3A 1_555 1_555
H9A C5A 1_555 1_555
N4A Cu4A 1_555 1_555
N5A C4A 1_555 1_555
H10A N5A 1_555 1_555
H11A N5A 1_555 1_555
C6A C7A 1_555 1_555
C7A H12A 1_555 1_555
C8A C7A 1_555 1_555
C9A C8A 1_555 1_555
H13A C9A 1_555 1_555
C10A S1A 1_555 1_555
C11A C6A 1_555 1_555
H14A C11A 1_555 1_555
C12A C6A 1_555 1_555
C13A C8A 1_555 1_555
Cu2_2 O3A 1_555 1_555
Cu2_3 O2 1_555 1_555
Cu2A_2 O2A 1_555 1_555
Cu2A_3 O3 1_555 1_555
Cu3_2 O4A 1_555 1_555
Cu3A_2 O4 1_555 1_555
Cu4_2 O1A 1_555 1_555
Cu4A_2 O1 1_555 1_555
O1_2 Cu4A 1_555 1_555
O1A_2 Cu4 1_555 1_555
O2_2 Cu2 1_555 1_555
O2A_2 Cu2A 1_555 1_555
O3_2 Cu2A 1_555 1_555
O3A_2 Cu2 1_555 1_555
O4_2 Cu3A 1_555 1_555
O4A_2 Cu3 1_555 1_555
Cu2 O9 1_555 1_555
Cu3 O9 1_555 1_555
Cu3 O12 1_555 1_555
Cu3 O10A 1_555 1_555
Cu4 O8A 1_555 1_555
Cu4 O10A 1_555 1_555
O10 Cu4A 1_555 1_555
O11 Cu4A 1_555 1_555
C1 N2 1_555 1_555
C2 N4 1_555 1_555
C3 C4 1_555 1_555
C5 N4 1_555 1_555
C9 C10 1_555 1_555
C10 C11 1_555 1_555
Cu2A O9A 1_555 1_555
Cu2A O11A 1_555 1_555
Cu3A O9A 1_555 1_555
Cu3A O12A 1_555 1_555
Cu4A O5A 1_555 1_555
C1A N2A 1_555 1_555
C2A N4A 1_555 1_555
C3A C4A 1_555 1_555
C5A N4A 1_555 1_555
C9A C10A 1_555 1_555
C10A C11A 1_555 1_555

#END
