
#######################################################################
#
#                 Cambridge Crystallographic Data Centre
#                                CCDC 
#
#######################################################################
#
# If this CIF has been generated from an entry in the Cambridge 
# Structural Database, then it will include bibliographic, chemical, 
# crystal, experimental, refinement or atomic coordinate data resulting 
# from the CCDC's data processing and validation procedures.
#
#######################################################################

data_HOYLIS
_symmetry_cell_setting           triclinic
_symmetry_space_group_name_H-M   'P -1'
_symmetry_Int_Tables_number      2
_space_group_name_Hall           '-P 1'
loop_
_symmetry_equiv_pos_site_id
_symmetry_equiv_pos_as_xyz
1 x,y,z
2 -x,-y,-z
_cell_length_a                   3.9779(2)
_cell_length_b                   18.8497(7)
_cell_length_c                   19.0199(8)
_cell_angle_alpha                104.225(3)
_cell_angle_beta                 91.415(3)
_cell_angle_gamma                94.296(3)
_cell_volume                     1377.17
loop_
_atom_site_label
_atom_site_type_symbol
_atom_site_fract_x
_atom_site_fract_y
_atom_site_fract_z
Hg1 Hg 1.1788(2) 0.42067(5) -0.44082(5)
Br1 Br 1.5460(5) 0.34066(13) -0.52315(12)
Br2 Br 0.8555(6) 0.52440(13) -0.38069(13)
N1 N 1.102(4) 0.3447(10) -0.3552(9)
C1 C 1.208(4) 0.2772(11) -0.3716(10)
H1 H 1.3030 0.2593 -0.4172
C2 C 1.182(4) 0.2330(11) -0.3237(11)
H2 H 1.2580 0.1851 -0.3362
C3 C 1.044(4) 0.2593(11) -0.2576(11)
C4 C 0.935(4) 0.3287(11) -0.2405(11)
H3 H 0.8386 0.3476 -0.1952
C5 C 0.968(4) 0.3704(12) -0.2911(11)
H4 H 0.8934 0.4184 -0.2799
C6 C 1.024(5) 0.2123(12) -0.2055(12)
H5 H 1.1450 0.1698 -0.2129
N2 N 0.835(5) 0.2301(11) -0.1488(10)
C7 C 0.796(4) 0.1832(12) -0.1023(12)
C8 C 0.668(4) 0.2163(14) -0.0341(13)
H6 H 0.6062 0.2653 -0.0255
C9 C 0.629(5) 0.1795(15) 0.0205(15)
H7 H 0.5420 0.2020 0.0660
C10 C 0.722(5) 0.1083(15) 0.0051(14)
F1 F 0.674(4) 0.0699(9) 0.0559(8)
C11 C 0.850(5) 0.0726(13) -0.0611(12)
H8 H 0.9110 0.0236 -0.0696
C12 C 0.885(4) 0.1129(14) -0.1148(14)
H9 H 0.9713 0.0905 -0.1603
Hg1_2 Hg 0.1788(2) 0.42067(5) -0.44082(5)
Hg1_3 Hg 2.1788(2) 0.42067(5) -0.44082(5)
Br1_2 Br 0.5460(5) 0.34066(13) -0.52315(12)
Br2_2 Br 1.8555(6) 0.52440(13) -0.38069(13)
Hg2 Hg 1.1744(2) 0.96625(5) -0.39622(5)
Br3 Br 0.7446(5) 0.90422(12) -0.49270(12)
Br4 Br 1.5946(5) 1.05681(12) -0.31591(12)
N3 N 1.185(4) 0.8740(9) -0.3274(8)
C13 C 1.368(4) 0.8837(11) -0.2647(10)
H10 H 1.4733 0.9312 -0.2429
C14 C 1.412(4) 0.8285(11) -0.2304(11)
H11 H 1.5429 0.8377 -0.1862
C15 C 1.259(4) 0.7593(11) -0.2623(10)
C16 C 1.070(4) 0.7485(11) -0.3263(10)
H12 H 0.9625 0.7014 -0.3489
C17 C 1.039(4) 0.8067(11) -0.3573(11)
H13 H 0.9094 0.7987 -0.4015
C18 C 1.303(6) 0.6937(14) -0.2320(13)
H14 H 1.1600 0.6497 -0.2491
N4 N 1.529(5) 0.6979(11) -0.1840(10)
C19 C 1.580(4) 0.6354(13) -0.1562(11)
C20 C 1.756(4) 0.6470(14) -0.0884(12)
H15 H 1.8404 0.6954 -0.0637
C21 C 1.808(4) 0.5907(13) -0.0577(12)
H16 H 1.9270 0.5990 -0.0121
C22 C 1.681(5) 0.5198(15) -0.0954(13)
F2 F 1.730(4) 0.4639(8) -0.0640(9)
C23 C 1.510(5) 0.5043(14) -0.1607(12)
H17 H 1.4279 0.4555 -0.1845
C24 C 1.458(4) 0.5629(13) -0.1913(12)
H18 H 1.3387 0.5537 -0.2370
Hg2_2 Hg 0.1744(2) 0.96625(5) -0.39622(5)
Hg2_3 Hg 2.1744(2) 0.96625(5) -0.39622(5)
Br3_2 Br 1.7446(5) 0.90422(12) -0.49270(12)
Br4_2 Br 0.5946(5) 1.05681(12) -0.31591(12)
loop_
_geom_bond_atom_site_label_1
_geom_bond_atom_site_label_2
_geom_bond_site_symmetry_1
_geom_bond_site_symmetry_2
Hg1 Br1 1_555 1_555
Br1 Hg1_3 1_555 1_555
Br2 Hg1 1_555 1_555
N1 Hg1 1_555 1_555
C1 N1 1_555 1_555
H1 C1 1_555 1_555
C2 C1 1_555 1_555
H2 C2 1_555 1_555
C3 C2 1_555 1_555
C4 C3 1_555 1_555
H3 C4 1_555 1_555
C5 N1 1_555 1_555
H4 C5 1_555 1_555
C6 C3 1_555 1_555
H5 C6 1_555 1_555
N2 C6 1_555 1_555
C7 N2 1_555 1_555
C8 C7 1_555 1_555
H6 C8 1_555 1_555
C9 C8 1_555 1_555
H7 C9 1_555 1_555
C10 C9 1_555 1_555
F1 C10 1_555 1_555
C11 C10 1_555 1_555
H8 C11 1_555 1_555
C12 C7 1_555 1_555
H9 C12 1_555 1_555
Hg2 Br3 1_555 1_555
Br3 Hg2_2 1_555 1_555
Br4 Hg2 1_555 1_555
N3 Hg2 1_555 1_555
C13 N3 1_555 1_555
H10 C13 1_555 1_555
C14 C13 1_555 1_555
H11 C14 1_555 1_555
C15 C14 1_555 1_555
C16 C15 1_555 1_555
H12 C16 1_555 1_555
C17 N3 1_555 1_555
H13 C17 1_555 1_555
C18 C15 1_555 1_555
H14 C18 1_555 1_555
N4 C18 1_555 1_555
C19 N4 1_555 1_555
C20 C19 1_555 1_555
H15 C20 1_555 1_555
C21 C20 1_555 1_555
H16 C21 1_555 1_555
C22 C21 1_555 1_555
F2 C22 1_555 1_555
C23 C22 1_555 1_555
H17 C23 1_555 1_555
C24 C19 1_555 1_555
H18 C24 1_555 1_555
Hg1_2 Br2 1_555 1_555
Hg1_3 Br2_2 1_555 1_555
Br1_2 Hg1 1_555 1_555
Br2_2 Hg1 1_555 1_555
Hg2_2 Br4_2 1_555 1_555
Hg2_3 Br4 1_555 1_555
Br3_2 Hg2 1_555 1_555
Br4_2 Hg2 1_555 1_555
C4 C5 1_555 1_555
C11 C12 1_555 1_555
C16 C17 1_555 1_555
C23 C24 1_555 1_555
Hg1_2 Br1_2 1_555 1_555
Hg2_3 Br3_2 1_555 1_555

#END
