
#######################################################################
#
#                 Cambridge Crystallographic Data Centre
#                                CCDC 
#
#######################################################################
#
# If this CIF has been generated from an entry in the Cambridge 
# Structural Database, then it will include bibliographic, chemical, 
# crystal, experimental, refinement or atomic coordinate data resulting 
# from the CCDC's data processing and validation procedures.
#
#######################################################################

data_HOYMUF
_symmetry_cell_setting           monoclinic
_symmetry_space_group_name_H-M   'P 21/c'
_symmetry_Int_Tables_number      14
_space_group_name_Hall           '-P 2ybc'
loop_
_symmetry_equiv_pos_site_id
_symmetry_equiv_pos_as_xyz
1 x,y,z
2 -x,1/2+y,1/2-z
3 -x,-y,-z
4 x,1/2-y,1/2+z
_cell_length_a                   4.2727(2)
_cell_length_b                   24.0248(8)
_cell_length_c                   15.4948(5)
_cell_angle_alpha                90
_cell_angle_beta                 95.495(3)
_cell_angle_gamma                90
_cell_volume                     1583.24
loop_
_atom_site_label
_atom_site_type_symbol
_atom_site_fract_x
_atom_site_fract_y
_atom_site_fract_z
N1 N 0.734(3) 0.1907(6) 1.0768(8)
Hg1 Hg 0.71096(15) 0.25283(2) 1.19823(4)
I1 I 0.3032(3) 0.32885(4) 1.13617(7)
I2 I 1.0900(2) 0.20337(4) 1.31798(6)
C1 C 0.600(4) 0.2031(7) 0.9986(11)
H1 H 0.4807 0.2364 0.9912
C2 C 0.626(4) 0.1699(7) 0.9278(11)
H2 H 0.5180 0.1797 0.8735
C3 C 0.809(4) 0.1223(7) 0.9350(10)
C4 C 0.952(4) 0.1096(6) 1.0182(11)
H3 H 1.0772 0.0771 1.0275
C5 C 0.908(4) 0.1447(7) 1.0855(11)
H4 H 1.0071 0.1358 1.1413
C6 C 0.862(4) 0.0884(6) 0.8594(10)
H5 H 0.7353 0.0947 0.8065
N2 N 1.069(3) 0.0510(5) 0.8623(8)
C7 C 1.130(4) 0.0194(7) 0.7875(11)
C8 C 1.328(4) -0.0251(7) 0.8036(9)
H6 H 1.4130 -0.0333 0.8611
C9 C 1.405(4) -0.0583(7) 0.7341(11)
H7 H 1.5345 -0.0902 0.7446
C10 C 1.290(4) -0.0444(7) 0.6497(10)
I3 I 1.4170(2) -0.09022(4) 0.54431(6)
C11 C 1.090(4) 0.0014(6) 0.6350(10)
H8 H 1.0106 0.0109 0.5775
C12 C 1.009(4) 0.0325(7) 0.7037(11)
H9 H 0.8703 0.0632 0.6938
Hg1_2 Hg -0.28904(15) 0.25283(2) 1.19823(4)
I1_2 I 1.3032(3) 0.32885(4) 1.13617(7)
loop_
_geom_bond_atom_site_label_1
_geom_bond_atom_site_label_2
_geom_bond_site_symmetry_1
_geom_bond_site_symmetry_2
N1 Hg1 1_555 1_555
Hg1 I1 1_555 1_555
I1 Hg1_2 1_555 1_555
I2 Hg1 1_555 1_555
C1 N1 1_555 1_555
H1 C1 1_555 1_555
C2 C1 1_555 1_555
H2 C2 1_555 1_555
C3 C2 1_555 1_555
C4 C3 1_555 1_555
H3 C4 1_555 1_555
C5 N1 1_555 1_555
H4 C5 1_555 1_555
C6 C3 1_555 1_555
H5 C6 1_555 1_555
N2 C6 1_555 1_555
C7 N2 1_555 1_555
C8 C7 1_555 1_555
H6 C8 1_555 1_555
C9 C8 1_555 1_555
H7 C9 1_555 1_555
C10 C9 1_555 1_555
I3 C10 1_555 1_555
C11 C10 1_555 1_555
H8 C11 1_555 1_555
C12 C7 1_555 1_555
H9 C12 1_555 1_555
I1_2 Hg1 1_555 1_555
C4 C5 1_555 1_555
C11 C12 1_555 1_555

#END
