
#######################################################################
#
#                 Cambridge Crystallographic Data Centre
#                                CCDC 
#
#######################################################################
#
# If this CIF has been generated from an entry in the Cambridge 
# Structural Database, then it will include bibliographic, chemical, 
# crystal, experimental, refinement or atomic coordinate data resulting 
# from the CCDC's data processing and validation procedures.
#
#######################################################################

data_HOYMUD02
_symmetry_cell_setting           orthorhombic
_symmetry_space_group_name_H-M   'F d d 2'
_symmetry_Int_Tables_number      43
_space_group_name_Hall           'F 2 -2d'
loop_
_symmetry_equiv_pos_site_id
_symmetry_equiv_pos_as_xyz
1 x,y,z
2 -x,-y,z
3 1/4+x,1/4-y,1/4+z
4 1/4-x,1/4+y,1/4+z
5 x,1/2+y,1/2+z
6 -x,1/2-y,1/2+z
7 1/4+x,3/4-y,3/4+z
8 1/4-x,3/4+y,3/4+z
9 1/2+x,y,1/2+z
10 1/2-x,-y,1/2+z
11 3/4+x,1/4-y,3/4+z
12 3/4-x,1/4+y,3/4+z
13 1/2+x,1/2+y,z
14 1/2-x,1/2-y,z
15 3/4+x,3/4-y,1/4+z
16 3/4-x,3/4+y,1/4+z
_cell_length_a                   12.586(6)
_cell_length_b                   18.997(14)
_cell_length_c                   8.143(6)
_cell_angle_alpha                90
_cell_angle_beta                 90
_cell_angle_gamma                90
_cell_volume                     1946.96
loop_
_atom_site_label
_atom_site_type_symbol
_atom_site_fract_x
_atom_site_fract_y
_atom_site_fract_z
Cu1 Cu -0.81258(3) -1.100847(13) -0.17406(5)
S1 S -0.75395(4) -1.12359(2) -0.44313(7)
N1 N -0.76549(17) -1.18820(10) -0.0392(3)
N2 N -0.71876(19) -0.98918(11) -0.5777(3)
C1 C -0.7648(2) -1.18861(13) 0.1251(3)
H1 H -0.7745 -1.1466 0.1818
C2 C -0.7500 -1.2500 0.2118(5)
H2 H -0.7500 -1.2500 0.3260
C3 C -0.7500 -1.2500 -0.1136(4)
H3 H -0.7500 -1.2500 -0.2278
C4 C -0.73402(19) -1.04355(13) -0.5212(3)
Cu1I Cu -0.68742(3) -0.899153(13) 0.32594(5)
Cu1F Cu -0.56258(3) -1.149153(13) -0.42406(5)
Cu1I_2 Cu -0.68742(3) -0.899153(13) -0.67406(5)
Cu1M Cu -0.68742(3) -1.399153(13) -0.17406(5)
Cu1C Cu -0.93742(3) -0.850847(13) 0.07594(5)
S1I S -0.74605(4) -0.87641(2) 0.05687(7)
S1N S -1.00395(4) -1.12641(2) -0.19313(7)
S1K S -0.49605(4) -0.87359(2) 0.30687(7)
N1M N -0.73451(17) -1.31180(10) -0.0392(3)
N1I N -0.73451(17) -0.81180(10) 0.4608(3)
N2I N -0.78124(19) -1.01082(11) -0.0777(3)
N2_2 N -0.71876(19) -0.98918(11) 0.4223(3)
C1M C -0.7352(2) -1.31139(13) 0.1251(3)
H1M H -0.7255 -1.3534 0.1818
C4I C -0.76598(19) -0.95645(13) -0.0212(3)
loop_
_geom_bond_atom_site_label_1
_geom_bond_atom_site_label_2
_geom_bond_site_symmetry_1
_geom_bond_site_symmetry_2
Cu1 S1 1_555 1_555
S1 C4 1_555 1_555
N1 Cu1 1_555 1_555
N2 C4 1_555 1_555
C1 N1 1_555 1_555
H1 C1 1_555 1_555
C2 C1 1_555 1_555
H2 C2 1_555 1_555
C3 N1 1_555 1_555
H3 C3 1_555 1_555
Cu1I S1I 1_555 1_555
Cu1F S1 1_555 1_555
Cu1I_2 N2 1_555 1_555
Cu1M N1M 1_555 1_555
Cu1C S1I 1_555 1_555
S1I C4I 1_555 1_555
S1N Cu1 1_555 1_555
S1K Cu1I 1_555 1_555
N1M C3 1_555 1_555
N1I Cu1I 1_555 1_555
N2I Cu1 1_555 1_555
N2_2 Cu1I 1_555 1_555
C1M C2 1_555 1_555
H1M C1M 1_555 1_555
C4I N2I 1_555 1_555
N1M C1M 1_555 1_555

#END
