
#######################################################################
#
#                 Cambridge Crystallographic Data Centre
#                                CCDC 
#
#######################################################################
#
# If this CIF has been generated from an entry in the Cambridge 
# Structural Database, then it will include bibliographic, chemical, 
# crystal, experimental, refinement or atomic coordinate data resulting 
# from the CCDC's data processing and validation procedures.
#
#######################################################################

data_HOYMOZ
_symmetry_cell_setting           orthorhombic
_symmetry_space_group_name_H-M   'P n a 21'
_symmetry_Int_Tables_number      33
_space_group_name_Hall           'P 2c -2n'
loop_
_symmetry_equiv_pos_site_id
_symmetry_equiv_pos_as_xyz
1 x,y,z
2 -x,-y,1/2+z
3 1/2-x,1/2+y,1/2+z
4 1/2+x,1/2-y,z
_cell_length_a                   16.3554(7)
_cell_length_b                   22.6143(7)
_cell_length_c                   4.2385(2)
_cell_angle_alpha                90
_cell_angle_beta                 90
_cell_angle_gamma                90
_cell_volume                     1567.68
loop_
_atom_site_label
_atom_site_type_symbol
_atom_site_fract_x
_atom_site_fract_y
_atom_site_fract_z
N1 N 0.5441(5) -0.2096(4) 0.046(2)
Hg1 Hg 0.48129(3) -0.11223(2) 0.06229(13)
I1 I 0.34252(5) -0.13486(3) 0.35774(19)
I2 I 0.57907(4) -0.05967(3) -0.35242(16)
C1 C 0.6134(7) -0.2200(5) -0.100(3)
H1 H 0.6430 -0.1870 -0.1792
C2 C 0.6467(7) -0.2762(5) -0.148(3)
H2 H 0.6958 -0.2812 -0.2642
C3 C 0.6059(7) -0.3248(5) -0.019(2)
C4 C 0.5325(7) -0.3131(5) 0.138(3)
H3 H 0.5014 -0.3448 0.2223
C5 C 0.5048(7) -0.2559(5) 0.171(3)
H4 H 0.4560 -0.2491 0.2873
C6 C 0.6358(7) -0.3858(5) -0.067(3)
H5 H 0.6824 -0.3921 -0.1971
N2 N 0.6026(5) -0.4285(4) 0.055(2)
C7 C 0.6318(7) -0.4871(5) 0.004(3)
C8 C 0.6997(6) -0.5017(5) -0.186(3)
H6 H 0.7305 -0.4712 -0.2841
C9 C 0.7216(7) -0.5600(5) -0.231(3)
H7 H 0.7666 -0.5704 -0.3617
C10 C 0.6752(7) -0.6033(5) -0.077(3)
Br1 Br 0.70418(7) -0.68430(5) -0.1492(3)
C11 C 0.6093(6) -0.5909(5) 0.110(3)
H8 H 0.5795 -0.6214 0.2134
C12 C 0.5881(7) -0.5319(5) 0.143(3)
H9 H 0.5415 -0.5221 0.2669
Hg1_2 Hg 0.48129(3) -0.11223(2) -0.93771(13)
I2_2 I 0.57907(4) -0.05967(3) 0.64758(16)
loop_
_geom_bond_atom_site_label_1
_geom_bond_atom_site_label_2
_geom_bond_site_symmetry_1
_geom_bond_site_symmetry_2
N1 Hg1 1_555 1_555
Hg1 I1 1_555 1_555
I2 Hg1 1_555 1_555
C1 N1 1_555 1_555
H1 C1 1_555 1_555
C2 C1 1_555 1_555
H2 C2 1_555 1_555
C3 C2 1_555 1_555
C4 C3 1_555 1_555
H3 C4 1_555 1_555
C5 N1 1_555 1_555
H4 C5 1_555 1_555
C6 C3 1_555 1_555
H5 C6 1_555 1_555
N2 C6 1_555 1_555
C7 N2 1_555 1_555
C8 C7 1_555 1_555
H6 C8 1_555 1_555
C9 C8 1_555 1_555
H7 C9 1_555 1_555
C10 C9 1_555 1_555
Br1 C10 1_555 1_555
C11 C10 1_555 1_555
H8 C11 1_555 1_555
C12 C7 1_555 1_555
H9 C12 1_555 1_555
Hg1_2 I2 1_555 1_555
I2_2 Hg1 1_555 1_555
C4 C5 1_555 1_555
C11 C12 1_555 1_555

#END
