
#######################################################################
#
#                 Cambridge Crystallographic Data Centre
#                                CCDC 
#
#######################################################################
#
# If this CIF has been generated from an entry in the Cambridge 
# Structural Database, then it will include bibliographic, chemical, 
# crystal, experimental, refinement or atomic coordinate data resulting 
# from the CCDC's data processing and validation procedures.
#
#######################################################################

data_HOYQIX
_symmetry_cell_setting           rhombohedral
_symmetry_space_group_name_H-M   'R -3'
_symmetry_Int_Tables_number      148
_space_group_name_Hall           '-R 3'
loop_
_symmetry_equiv_pos_site_id
_symmetry_equiv_pos_as_xyz
1 x,y,z
2 -y,x-y,z
3 -x+y,-x,z
4 2/3+x,1/3+y,1/3+z
5 2/3-y,1/3+x-y,1/3+z
6 2/3-x+y,1/3-x,1/3+z
7 1/3+x,2/3+y,2/3+z
8 1/3-y,2/3+x-y,2/3+z
9 1/3-x+y,2/3-x,2/3+z
10 -x,-y,-z
11 y,-x+y,-z
12 x-y,x,-z
13 1/3-x,2/3-y,2/3-z
14 1/3+y,2/3-x+y,2/3-z
15 1/3+x-y,2/3+x,2/3-z
16 2/3-x,1/3-y,1/3-z
17 2/3+y,1/3-x+y,1/3-z
18 2/3+x-y,1/3+x,1/3-z
_cell_length_a                   30.0000(16)
_cell_length_b                   30.0000(16)
_cell_length_c                   16.0000(2)
_cell_angle_alpha                90
_cell_angle_beta                 90
_cell_angle_gamma                120
_cell_volume                     12470.8
loop_
_atom_site_label
_atom_site_type_symbol
_atom_site_fract_x
_atom_site_fract_y
_atom_site_fract_z
Cu1 Cu 0.176280(13) 0.382123(14) -0.15274(2)
O1 O 0.13525(9) 0.35140(9) -0.04660(13)
O2 O 0.11687(10) 0.26917(9) -0.07311(14)
O3 O -0.01437(16) 0.12479(12) 0.1081(3)
O4 O -0.06291(9) 0.14250(9) 0.19375(15)
O5 O -0.01844(10) 0.42690(9) 0.44459(15)
O6 O 0.06314(9) 0.49094(9) 0.42013(15)
C1 C 0.11403(12) 0.30333(13) -0.02915(18)
C2 C 0.08126(12) 0.28508(12) 0.05094(19)
C3 C 0.04917(13) 0.23173(13) 0.0650(2)
H1 H 0.0508 0.2082 0.0292
C4 C 0.01468(13) 0.21402(12) 0.1331(2)
C5 C 0.01394(13) 0.25043(12) 0.19028(19)
H2 H -0.0084 0.2387 0.2357
C6 C 0.04658(12) 0.30372(12) 0.17857(19)
C7 C 0.08034(12) 0.32075(12) 0.10853(19)
H3 H 0.1022 0.3558 0.1003
C8 C -0.02364(15) 0.15629(14) 0.1462(3)
C9 C 0.04289(13) 0.34088(13) 0.2384(2)
C10 C -0.00553(14) 0.32831(14) 0.2724(2)
H4 H -0.0345 0.2973 0.2581
C11 C -0.01049(15) 0.36252(14) 0.3283(2)
H5 H -0.0427 0.3538 0.3496
C12 C 0.03264(13) 0.40913(13) 0.35149(19)
C13 C 0.08080(15) 0.42217(14) 0.3171(2)
H6 H 0.1096 0.4533 0.3315
C14 C 0.08599(14) 0.38831(15) 0.2607(2)
H7 H 0.1181 0.3976 0.2384
C15 C 0.02546(14) 0.44531(13) 0.41021(19)
Cu1E Cu -0.127490(19) 0.157053(13) 0.18059(2)
Cu1G Cu -0.048790(14) 0.460824(19) 0.51393(2)
Cu1P Cu 0.048790(14) 0.539176(19) 0.48607(2)
Cu1L Cu 0.157053(13) 0.284544(14) -0.18059(2)
O2L O 0.21646(10) 0.39750(9) -0.26022(14)
O4G O 0.19083(9) 0.46126(13) -0.13958(15)
O5E O 0.11201(13) 0.35177(10) -0.22208(15)
O6Q O 0.23887(13) 0.39647(9) -0.08680(15)
loop_
_geom_bond_atom_site_label_1
_geom_bond_atom_site_label_2
_geom_bond_site_symmetry_1
_geom_bond_site_symmetry_2
Cu1 O1 1_555 1_555
O1 C1 1_555 1_555
O2 C1 1_555 1_555
O3 C8 1_555 1_555
O4 C8 1_555 1_555
O5 C15 1_555 1_555
O6 C15 1_555 1_555
C1 C2 1_555 1_555
C2 C3 1_555 1_555
C3 H1 1_555 1_555
C4 C3 1_555 1_555
C5 C4 1_555 1_555
H2 C5 1_555 1_555
C6 C5 1_555 1_555
C7 C2 1_555 1_555
H3 C7 1_555 1_555
C8 C4 1_555 1_555
C9 C6 1_555 1_555
C10 C9 1_555 1_555
H4 C10 1_555 1_555
C11 C10 1_555 1_555
H5 C11 1_555 1_555
C12 C11 1_555 1_555
C13 C12 1_555 1_555
H6 C13 1_555 1_555
C14 C9 1_555 1_555
H7 C14 1_555 1_555
C15 C12 1_555 1_555
Cu1E O4 1_555 1_555
Cu1G O5 1_555 1_555
Cu1P O6 1_555 1_555
Cu1L Cu1 1_555 1_555
O2L Cu1 1_555 1_555
O4G Cu1 1_555 1_555
O5E Cu1 1_555 1_555
O6Q Cu1 1_555 1_555
O2 Cu1L 1_555 1_555
C6 C7 1_555 1_555
C13 C14 1_555 1_555
Cu1G Cu1P 1_555 1_555

#END
