
#######################################################################
#
#                 Cambridge Crystallographic Data Centre
#                                CCDC 
#
#######################################################################
#
# If this CIF has been generated from an entry in the Cambridge 
# Structural Database, then it will include bibliographic, chemical, 
# crystal, experimental, refinement or atomic coordinate data resulting 
# from the CCDC's data processing and validation procedures.
#
#######################################################################

data_HOYXEZ
_symmetry_cell_setting           triclinic
_symmetry_space_group_name_H-M   'P -1'
_symmetry_Int_Tables_number      2
_space_group_name_Hall           '-P 1'
loop_
_symmetry_equiv_pos_site_id
_symmetry_equiv_pos_as_xyz
1 x,y,z
2 -x,-y,-z
_cell_length_a                   8.1479(5)
_cell_length_b                   13.1042(8)
_cell_length_c                   18.1233(12)
_cell_angle_alpha                90.134(5)
_cell_angle_beta                 99.765(5)
_cell_angle_gamma                104.181(5)
_cell_volume                     1846.96
loop_
_atom_site_label
_atom_site_type_symbol
_atom_site_fract_x
_atom_site_fract_y
_atom_site_fract_z
N1 N 0.20513(14) -0.07899(8) 0.42314(6)
H1 H 0.2236 -0.0805 0.3767
N2 N 0.27932(14) 0.00518(8) 0.46840(6)
C1 C 0.09647(17) -0.16584(10) 0.45033(7)
C2 C 0.03244(17) -0.26207(10) 0.40840(8)
S1 S 0.06747(4) -0.28685(2) 0.315759(18)
O1 O -0.10261(14) -0.31498(11) 0.27063(6)
O2 O 0.17794(17) -0.19053(8) 0.29539(6)
O3 O 0.14749(15) -0.37448(9) 0.32177(6)
C3 C -0.07003(18) -0.34673(10) 0.43951(8)
H2 H -0.1107 -0.4117 0.4111
C4 C -0.11575(18) -0.34124(11) 0.50956(8)
C5 C -0.2285(2) -0.43411(12) 0.54011(9)
H3 H -0.2619 -0.4935 0.5032
H4 H -0.3318 -0.4153 0.5506
H5 H -0.1654 -0.4541 0.5865
C6 C -0.05199(17) -0.24310(11) 0.54868(8)
Cl1 Cl -0.10530(4) -0.22738(3) 0.636744(19)
C7 C 0.05074(17) -0.15709(10) 0.52086(8)
H6 H 0.0903 -0.0922 0.5494
C8 C 0.38104(17) 0.08488(10) 0.44246(7)
C9 C 0.42560(17) 0.09699(10) 0.36708(7)
O4 O 0.38209(13) 0.03244(7) 0.31365(5)
N3 N 0.52994(15) 0.19786(9) 0.37048(6)
N4 N 0.55559(15) 0.24935(9) 0.44178(6)
C10 C 0.46907(17) 0.18362(10) 0.48347(8)
C11 C 0.46591(19) 0.21245(11) 0.56252(8)
H7 H 0.5412 0.2829 0.5762
H8 H 0.5063 0.1612 0.5956
H9 H 0.3482 0.2122 0.5679
C12 C 0.59883(17) 0.25518(10) 0.31182(7)
C13 C 0.52121(17) 0.22746(10) 0.23780(7)
H10 H 0.4243 0.1689 0.2261
C14 C 0.58757(17) 0.28679(10) 0.18087(7)
S2 S 0.48027(4) 0.25034(2) 0.087161(18)
O5 O 0.53662(15) 0.15857(7) 0.06617(6)
O6 O 0.54198(13) 0.33916(7) 0.04209(5)
O7 O 0.29874(13) 0.22793(9) 0.08923(6)
C15 C 0.72861(17) 0.37296(10) 0.19700(8)
H11 H 0.7726 0.4129 0.1578
C16 C 0.80425(17) 0.39964(10) 0.27144(8)
H12 H 0.9006 0.4586 0.2831
C17 C 0.74125(17) 0.34156(10) 0.32903(8)
H13 H 0.7944 0.3603 0.3797
Ca1 Ca 0.5000 0.0000 0.0000
Ca2 Ca 0.5000 0.5000 0.0000
O8 O 0.79542(13) 0.03686(8) 0.01883(6)
C18 C 0.92169(19) 0.04889(12) 0.07032(9)
H14 H 0.9928 0.1183 0.0810
N5 N 0.96504(16) -0.02624(10) 0.11123(7)
C19 C 1.1200(2) -0.00658(16) 0.16736(12)
H15 H 1.2063 -0.0356 0.1489
H16 H 1.0934 -0.0404 0.2136
H17 H 1.1652 0.0695 0.1776
C20 C 0.8731(2) -0.13714(12) 0.09459(10)
H18 H 0.7527 -0.1417 0.0728
H19 H 0.8782 -0.1755 0.1409
H20 H 0.9268 -0.1683 0.0589
O9 O 0.51786(13) -0.06538(7) 0.11988(5)
C21 C 0.61063(18) -0.02255(11) 0.17863(8)
H21 H 0.6549 0.0517 0.1802
N6 N 0.65205(15) -0.07317(9) 0.23916(6)
C22 C 0.7593(2) -0.01713(13) 0.30634(9)
H22 H 0.7967 0.0579 0.2969
H23 H 0.8601 -0.0457 0.3202
H24 H 0.6933 -0.0257 0.3474
C23 C 0.5807(2) -0.18619(11) 0.24202(9)
H25 H 0.4792 -0.1988 0.2662
H26 H 0.6672 -0.2179 0.2708
H27 H 0.5478 -0.2180 0.1910
O10 O 0.41319(13) 0.52141(8) 0.11269(6)
C24 C 0.48527(18) 0.54202(10) 0.17886(8)
H28 H 0.5995 0.5851 0.1885
N7 N 0.41158(15) 0.50722(9) 0.23661(7)
C25 C 0.2386(2) 0.43748(13) 0.22386(9)
H29 H 0.1542 0.4790 0.2095
H30 H 0.2171 0.4015 0.2699
H31 H 0.2285 0.3851 0.1836
C26 C 0.4973(2) 0.53733(12) 0.31343(8)
H32 H 0.6121 0.5832 0.3135
H33 H 0.5076 0.4740 0.3406
H34 H 0.4299 0.5751 0.3380
O11 O 0.77525(13) 0.56605(8) 0.06282(6)
C27 C 0.92133(19) 0.61735(11) 0.09213(8)
H35 H 0.9443 0.6296 0.1450
N8 N 1.04673(15) 0.65600(9) 0.05487(7)
C28 C 1.2114(2) 0.72099(13) 0.09251(11)
H36 H 1.2124 0.7244 0.1466
H37 H 1.2287 0.7922 0.0737
H38 H 1.3040 0.6901 0.0826
C29 C 1.0203(2) 0.64251(13) -0.02645(9)
H39 H 0.9141 0.5882 -0.0440
H40 H 1.1177 0.6210 -0.0411
H41 H 1.0112 0.7093 -0.0490
N1A N 0.79487(14) 0.07899(8) -0.42314(6)
H1A H 0.7764 0.0805 -0.3767
N2A N 0.72068(14) -0.00518(8) -0.46840(6)
C1A C 0.90353(17) 0.16584(10) -0.45033(7)
C2A C 0.96756(17) 0.26207(10) -0.40840(8)
S1A S 0.93253(4) 0.28685(2) -0.315759(18)
O1A O 1.10261(14) 0.31498(11) -0.27063(6)
O2A O 0.82206(17) 0.19053(8) -0.29539(6)
O3A O 0.85251(15) 0.37448(9) -0.32177(6)
C3A C 1.07003(18) 0.34673(10) -0.43951(8)
H2A H 1.1107 0.4117 -0.4111
C4A C 1.11575(18) 0.34124(11) -0.50956(8)
C5A C 1.2285(2) 0.43411(12) -0.54011(9)
H3A H 1.2619 0.4935 -0.5032
H4A H 1.3318 0.4153 -0.5506
H5A H 1.1654 0.4541 -0.5865
C6A C 1.05199(17) 0.24310(11) -0.54868(8)
Cl1A Cl 1.10530(4) 0.22738(3) -0.636744(19)
C7A C 0.94926(17) 0.15709(10) -0.52086(8)
H6A H 0.9097 0.0922 -0.5494
C8A C 0.61896(17) -0.08488(10) -0.44246(7)
C9A C 0.57440(17) -0.09699(10) -0.36708(7)
O4A O 0.61791(13) -0.03244(7) -0.31365(5)
N3A N 0.47006(15) -0.19786(9) -0.37048(6)
N4A N 0.44441(15) -0.24935(9) -0.44178(6)
C10A C 0.53093(17) -0.18362(10) -0.48347(8)
C11A C 0.53409(19) -0.21245(11) -0.56252(8)
H7A H 0.4588 -0.2829 -0.5762
H8A H 0.4937 -0.1612 -0.5956
H9A H 0.6518 -0.2122 -0.5679
C12A C 0.40117(17) -0.25518(10) -0.31182(7)
C13A C 0.47879(17) -0.22746(10) -0.23780(7)
H10A H 0.5757 -0.1689 -0.2261
C14A C 0.41243(17) -0.28679(10) -0.18087(7)
S2A S 0.51973(4) -0.25034(2) -0.087161(18)
O5A O 0.46338(15) -0.15857(7) -0.06617(6)
O6A O 0.45802(13) -0.33916(7) -0.04209(5)
O6A_2 O 0.45802(13) 0.66084(7) -0.04209(5)
O7A O 0.70126(13) -0.22793(9) -0.08923(6)
C15A C 0.27139(17) -0.37296(10) -0.19700(8)
H11A H 0.2274 -0.4129 -0.1578
C16A C 0.19575(17) -0.39964(10) -0.27144(8)
H12A H 0.0994 -0.4586 -0.2831
C17A C 0.25875(17) -0.34156(10) -0.32903(8)
H13A H 0.2056 -0.3603 -0.3797
Ca2_2 Ca 0.5000 -0.5000 0.0000
O8A O 0.20458(13) -0.03686(8) -0.01883(6)
C18A C 0.07831(19) -0.04889(12) -0.07032(9)
H14A H 0.0072 -0.1183 -0.0810
N5A N 0.03496(16) 0.02624(10) -0.11123(7)
C19A C -0.1200(2) 0.00658(16) -0.16736(12)
H15A H -0.2063 0.0356 -0.1489
H16A H -0.0934 0.0404 -0.2136
H17A H -0.1652 -0.0695 -0.1776
C20A C 0.1269(2) 0.13714(12) -0.09459(10)
H18A H 0.2473 0.1417 -0.0728
H19A H 0.1218 0.1755 -0.1409
H20A H 0.0732 0.1683 -0.0589
O9A O 0.48214(13) 0.06538(7) -0.11988(5)
C21A C 0.38937(18) 0.02255(11) -0.17863(8)
H21A H 0.3451 -0.0517 -0.1802
N6A N 0.34795(15) 0.07317(9) -0.23916(6)
C22A C 0.2407(2) 0.01713(13) -0.30634(9)
H22A H 0.2033 -0.0579 -0.2969
H23A H 0.1399 0.0457 -0.3202
H24A H 0.3067 0.0257 -0.3474
C23A C 0.4193(2) 0.18619(11) -0.24202(9)
H25A H 0.5208 0.1988 -0.2662
H26A H 0.3328 0.2179 -0.2708
H27A H 0.4522 0.2180 -0.1910
O10A O 0.58681(13) 0.47859(8) -0.11269(6)
C24A C 0.51473(18) 0.45798(10) -0.17886(8)
H28A H 0.4005 0.4149 -0.1885
N7A N 0.58842(15) 0.49278(9) -0.23661(7)
C25A C 0.7614(2) 0.56252(13) -0.22386(9)
H29A H 0.8458 0.5210 -0.2095
H30A H 0.7829 0.5985 -0.2699
H31A H 0.7715 0.6149 -0.1836
C26A C 0.5027(2) 0.46267(12) -0.31343(8)
H32A H 0.3879 0.4168 -0.3135
H33A H 0.4924 0.5260 -0.3406
H34A H 0.5701 0.4249 -0.3380
O11A O 0.22475(13) 0.43395(8) -0.06282(6)
C27A C 0.07867(19) 0.38265(11) -0.09213(8)
H35A H 0.0557 0.3704 -0.1450
N8A N -0.04673(15) 0.34400(9) -0.05487(7)
C28A C -0.2114(2) 0.27901(13) -0.09251(11)
H36A H -0.2124 0.2756 -0.1466
H37A H -0.2287 0.2078 -0.0737
H38A H -0.3040 0.3099 -0.0826
C29A C -0.0203(2) 0.35749(13) 0.02645(9)
H39A H 0.0859 0.4118 0.0440
H40A H -0.1177 0.3790 0.0411
H41A H -0.0112 0.2907 0.0490
loop_
_geom_bond_atom_site_label_1
_geom_bond_atom_site_label_2
_geom_bond_site_symmetry_1
_geom_bond_site_symmetry_2
N1 H1 1_555 1_555
N2 N1 1_555 1_555
C1 N1 1_555 1_555
C2 C1 1_555 1_555
S1 C2 1_555 1_555
O1 S1 1_555 1_555
O2 S1 1_555 1_555
O3 S1 1_555 1_555
C3 C2 1_555 1_555
H2 C3 1_555 1_555
C4 C3 1_555 1_555
C5 C4 1_555 1_555
H3 C5 1_555 1_555
H4 C5 1_555 1_555
H5 C5 1_555 1_555
C6 C4 1_555 1_555
Cl1 C6 1_555 1_555
C7 C1 1_555 1_555
H6 C7 1_555 1_555
C8 N2 1_555 1_555
C9 C8 1_555 1_555
O4 C9 1_555 1_555
N3 C9 1_555 1_555
N4 N3 1_555 1_555
C10 C8 1_555 1_555
C11 C10 1_555 1_555
H7 C11 1_555 1_555
H8 C11 1_555 1_555
H9 C11 1_555 1_555
C12 N3 1_555 1_555
C13 C12 1_555 1_555
H10 C13 1_555 1_555
C14 C13 1_555 1_555
S2 C14 1_555 1_555
O5 S2 1_555 1_555
O6 S2 1_555 1_555
O7 S2 1_555 1_555
C15 C14 1_555 1_555
H11 C15 1_555 1_555
C16 C15 1_555 1_555
H12 C16 1_555 1_555
C17 C12 1_555 1_555
H13 C17 1_555 1_555
Ca1 O5 1_555 1_555
Ca2 O6 1_555 1_555
O8 Ca1 1_555 1_555
C18 O8 1_555 1_555
H14 C18 1_555 1_555
N5 C18 1_555 1_555
C19 N5 1_555 1_555
H15 C19 1_555 1_555
H16 C19 1_555 1_555
H17 C19 1_555 1_555
C20 N5 1_555 1_555
H18 C20 1_555 1_555
H19 C20 1_555 1_555
H20 C20 1_555 1_555
O9 Ca1 1_555 1_555
C21 O9 1_555 1_555
H21 C21 1_555 1_555
N6 C21 1_555 1_555
C22 N6 1_555 1_555
H22 C22 1_555 1_555
H23 C22 1_555 1_555
H24 C22 1_555 1_555
C23 N6 1_555 1_555
H25 C23 1_555 1_555
H26 C23 1_555 1_555
H27 C23 1_555 1_555
O10 Ca2 1_555 1_555
C24 O10 1_555 1_555
H28 C24 1_555 1_555
N7 C24 1_555 1_555
C25 N7 1_555 1_555
H29 C25 1_555 1_555
H30 C25 1_555 1_555
H31 C25 1_555 1_555
C26 N7 1_555 1_555
H32 C26 1_555 1_555
H33 C26 1_555 1_555
H34 C26 1_555 1_555
O11 Ca2 1_555 1_555
C27 O11 1_555 1_555
H35 C27 1_555 1_555
N8 C27 1_555 1_555
C28 N8 1_555 1_555
H36 C28 1_555 1_555
H37 C28 1_555 1_555
H38 C28 1_555 1_555
C29 N8 1_555 1_555
H39 C29 1_555 1_555
H40 C29 1_555 1_555
H41 C29 1_555 1_555
N1A H1A 1_555 1_555
N2A N1A 1_555 1_555
C1A N1A 1_555 1_555
C2A C1A 1_555 1_555
S1A C2A 1_555 1_555
O1A S1A 1_555 1_555
O2A S1A 1_555 1_555
O3A S1A 1_555 1_555
C3A C2A 1_555 1_555
H2A C3A 1_555 1_555
C4A C3A 1_555 1_555
C5A C4A 1_555 1_555
H3A C5A 1_555 1_555
H4A C5A 1_555 1_555
H5A C5A 1_555 1_555
C6A C4A 1_555 1_555
Cl1A C6A 1_555 1_555
C7A C1A 1_555 1_555
H6A C7A 1_555 1_555
C8A N2A 1_555 1_555
C9A C8A 1_555 1_555
O4A C9A 1_555 1_555
N3A C9A 1_555 1_555
N4A N3A 1_555 1_555
C10A C8A 1_555 1_555
C11A C10A 1_555 1_555
H7A C11A 1_555 1_555
H8A C11A 1_555 1_555
H9A C11A 1_555 1_555
C12A N3A 1_555 1_555
C13A C12A 1_555 1_555
H10A C13A 1_555 1_555
C14A C13A 1_555 1_555
S2A C14A 1_555 1_555
O5A Ca1 1_555 1_555
O6A S2A 1_555 1_555
O6A_2 Ca2 1_555 1_555
O7A S2A 1_555 1_555
C15A C14A 1_555 1_555
H11A C15A 1_555 1_555
C16A C15A 1_555 1_555
H12A C16A 1_555 1_555
C17A C12A 1_555 1_555
H13A C17A 1_555 1_555
Ca2_2 O6A 1_555 1_555
O8A Ca1 1_555 1_555
C18A O8A 1_555 1_555
H14A C18A 1_555 1_555
N5A C18A 1_555 1_555
C19A N5A 1_555 1_555
H15A C19A 1_555 1_555
H16A C19A 1_555 1_555
H17A C19A 1_555 1_555
C20A N5A 1_555 1_555
H18A C20A 1_555 1_555
H19A C20A 1_555 1_555
H20A C20A 1_555 1_555
O9A Ca1 1_555 1_555
C21A O9A 1_555 1_555
H21A C21A 1_555 1_555
N6A C21A 1_555 1_555
C22A N6A 1_555 1_555
H22A C22A 1_555 1_555
H23A C22A 1_555 1_555
H24A C22A 1_555 1_555
C23A N6A 1_555 1_555
H25A C23A 1_555 1_555
H26A C23A 1_555 1_555
H27A C23A 1_555 1_555
O10A Ca2 1_555 1_555
C24A O10A 1_555 1_555
H28A C24A 1_555 1_555
N7A C24A 1_555 1_555
C25A N7A 1_555 1_555
H29A C25A 1_555 1_555
H30A C25A 1_555 1_555
H31A C25A 1_555 1_555
C26A N7A 1_555 1_555
H32A C26A 1_555 1_555
H33A C26A 1_555 1_555
H34A C26A 1_555 1_555
O11A Ca2 1_555 1_555
C27A O11A 1_555 1_555
H35A C27A 1_555 1_555
N8A C27A 1_555 1_555
C28A N8A 1_555 1_555
H36A C28A 1_555 1_555
H37A C28A 1_555 1_555
H38A C28A 1_555 1_555
C29A N8A 1_555 1_555
H39A C29A 1_555 1_555
H40A C29A 1_555 1_555
H41A C29A 1_555 1_555
C6 C7 1_555 1_555
N4 C10 1_555 1_555
C16 C17 1_555 1_555
C6A C7A 1_555 1_555
N4A C10A 1_555 1_555
S2A O5A 1_555 1_555
C16A C17A 1_555 1_555

#END
