
#######################################################################
#
#                 Cambridge Crystallographic Data Centre
#                                CCDC 
#
#######################################################################
#
# If this CIF has been generated from an entry in the Cambridge 
# Structural Database, then it will include bibliographic, chemical, 
# crystal, experimental, refinement or atomic coordinate data resulting 
# from the CCDC's data processing and validation procedures.
#
#######################################################################

data_HOYZIG
_symmetry_cell_setting           triclinic
_symmetry_space_group_name_H-M   'P -1'
_symmetry_Int_Tables_number      2
_space_group_name_Hall           '-P 1'
loop_
_symmetry_equiv_pos_site_id
_symmetry_equiv_pos_as_xyz
1 x,y,z
2 -x,-y,-z
_cell_length_a                   8.0457(19)
_cell_length_b                   10.061(2)
_cell_length_c                   12.783(3)
_cell_angle_alpha                81.511(4)
_cell_angle_beta                 89.548(4)
_cell_angle_gamma                74.687(4)
_cell_volume                     986.561
loop_
_atom_site_label
_atom_site_type_symbol
_atom_site_fract_x
_atom_site_fract_y
_atom_site_fract_z
Ag1 Ag 0.48520(4) 1.01159(3) 0.76202(2)
Ag2 Ag 0.53840(4) 0.56571(3) 0.39090(2)
N1 N 0.8745(4) 0.9956(3) 1.1255(2)
N2 N 0.1434(3) 0.9996(3) 0.3817(2)
N3 N 0.1820(4) 0.8121(3) 0.2911(2)
H1 H 0.1022 0.8639 0.2447
H2 H 0.2328 0.7254 0.2833
N4 N 0.3512(4) 0.7799(3) 0.4425(2)
O1 O 0.2378(3) 1.4297(3) 0.4977(2)
O2 O 0.6809(4) 0.7078(3) 1.2248(2)
C1 C 0.8116(4) 0.9530(3) 1.0438(2)
N5 N 0.7018(4) 1.2268(3) 1.0514(2)
N6 N 0.8417(4) 0.8196(3) 1.0220(2)
N7 N 0.3231(4) 1.0394(3) 0.6258(2)
C2 C 0.3120(4) 0.9593(3) 0.5466(2)
C3 C 0.1923(4) 1.0402(3) 0.4684(2)
C4 C 0.2265(4) 0.8655(3) 0.3744(2)
O3 O 0.6980(4) 0.4825(3) 1.2391(2)
N8 N 0.1319(4) 1.1677(3) 0.5004(2)
N9 N 0.6631(4) 0.9559(3) 0.8927(2)
C5 C 0.6998(4) 1.0376(4) 0.9633(2)
C6 C 0.8139(4) 1.1344(4) 1.1245(3)
C7 C 0.6476(5) 1.1787(4) 0.9701(3)
H3 H 0.5730 1.2412 0.9166
N10 N 0.8686(5) 1.1903(3) 1.2032(2)
H4 H 0.9413 1.1365 1.2528
H5 H 0.8315 1.2804 1.2048
C8 C 0.9524(5) 0.6913(4) 1.0826(3)
H6 H 0.9907 0.7131 1.1499
H7 H 1.0564 0.6580 1.0418
C9 C 0.8628(5) 0.5749(4) 1.1071(3)
H8 H 0.9520 0.4853 1.1252
H9 H 0.7997 0.5697 1.0423
C10 C 0.7364(4) 0.5910(4) 1.1971(2)
C11 C 0.7493(5) 0.8283(4) 0.9303(3)
H10 H 0.7480 0.7498 0.8975
C12 C 0.2238(4) 1.4348(3) 0.4003(3)
O4 O 0.3074(4) 1.4914(3) 0.3324(2)
C13 C 0.0924(5) 1.3695(4) 0.3579(3)
H11 H 0.0012 1.4443 0.3166
H12 H 0.1504 1.3056 0.3089
C14 C 0.3925(4) 0.8262(3) 0.5296(2)
H13 H 0.4771 0.7669 0.5793
C15 C 0.0083(4) 1.2893(3) 0.4422(3)
H14 H -0.0478 1.3519 0.4925
H15 H -0.0824 1.2583 0.4085
C16 C 0.2142(4) 1.1601(3) 0.5947(2)
H16 H 0.1942 1.2355 0.6340
Ag2_2 Ag 0.53840(4) 0.56571(3) 1.39090(2)
Ag2_3 Ag 0.53840(4) 1.56571(3) 0.39090(2)
Ag2A Ag 0.46160(4) 0.43429(3) 0.60910(2)
Ag2A_2 Ag 0.46160(4) 1.43429(3) 0.60910(2)
O1A O 0.7622(3) 0.5703(3) 0.5023(2)
O3_2 O 0.6980(4) 0.4825(3) 0.2391(2)
O4_2 O 0.3074(4) 0.4914(3) 0.3324(2)
O5 O 0.6330(6) 0.5731(5) 0.8721(3)
H17 H 0.5352 0.5772 0.9027
H18 H 0.6151 0.6275 0.8114
loop_
_geom_bond_atom_site_label_1
_geom_bond_atom_site_label_2
_geom_bond_site_symmetry_1
_geom_bond_site_symmetry_2
Ag1 N7 1_555 1_555
Ag2 N4 1_555 1_555
N1 C1 1_555 1_555
N2 C3 1_555 1_555
N3 H1 1_555 1_555
H2 N3 1_555 1_555
N4 C4 1_555 1_555
O1 C12 1_555 1_555
O2 C10 1_555 1_555
C1 N6 1_555 1_555
N5 C6 1_555 1_555
N6 C8 1_555 1_555
N7 C2 1_555 1_555
C2 C3 1_555 1_555
C3 N8 1_555 1_555
C4 N2 1_555 1_555
O3 C10 1_555 1_555
N8 C15 1_555 1_555
N9 Ag1 1_555 1_555
C5 C1 1_555 1_555
C6 N1 1_555 1_555
C7 N5 1_555 1_555
H3 C7 1_555 1_555
N10 C6 1_555 1_555
H4 N10 1_555 1_555
H5 N10 1_555 1_555
C8 H6 1_555 1_555
H7 C8 1_555 1_555
C9 C8 1_555 1_555
H8 C9 1_555 1_555
H9 C9 1_555 1_555
C10 C9 1_555 1_555
C11 N6 1_555 1_555
H10 C11 1_555 1_555
C12 O4 1_555 1_555
O4 Ag2_3 1_555 1_555
C13 C12 1_555 1_555
H11 C13 1_555 1_555
H12 C13 1_555 1_555
C14 N4 1_555 1_555
H13 C14 1_555 1_555
C15 C13 1_555 1_555
H14 C15 1_555 1_555
H15 C15 1_555 1_555
C16 N7 1_555 1_555
H16 C16 1_555 1_555
O5 H17 1_555 1_555
H18 O5 1_555 1_555
Ag2_2 O3 1_555 1_555
Ag2_3 Ag2A_2 1_555 1_555
Ag2A Ag2 1_555 1_555
Ag2A_2 O1 1_555 1_555
O1A Ag2 1_555 1_555
O3_2 Ag2 1_555 1_555
O4_2 Ag2 1_555 1_555
N3 C4 1_555 1_555
C2 C14 1_555 1_555
N8 C16 1_555 1_555
N9 C5 1_555 1_555
N9 C11 1_555 1_555
C5 C7 1_555 1_555

#END
