
#######################################################################
#
#                 Cambridge Crystallographic Data Centre
#                                CCDC 
#
#######################################################################
#
# If this CIF has been generated from an entry in the Cambridge 
# Structural Database, then it will include bibliographic, chemical, 
# crystal, experimental, refinement or atomic coordinate data resulting 
# from the CCDC's data processing and validation procedures.
#
#######################################################################

data_HOYZOK
_symmetry_cell_setting           monoclinic
_symmetry_space_group_name_H-M   'P 21/c'
_symmetry_Int_Tables_number      14
_space_group_name_Hall           '-P 2ybc'
loop_
_symmetry_equiv_pos_site_id
_symmetry_equiv_pos_as_xyz
1 x,y,z
2 -x,1/2+y,1/2-z
3 -x,-y,-z
4 x,1/2-y,1/2+z
_cell_length_a                   7.922(1)
_cell_length_b                   16.266(4)
_cell_length_c                   10.163(2)
_cell_angle_alpha                90
_cell_angle_beta                 93.83(1)
_cell_angle_gamma                90
_cell_volume                     1306.67
loop_
_atom_site_label
_atom_site_type_symbol
_atom_site_fract_x
_atom_site_fract_y
_atom_site_fract_z
Cu1 Cu 1.0000 0.0000 1.0000
F1 F 1.376(1) -0.236(1) 1.064(1)
F2 F 1.262(1) -0.2211(8) 1.234(1)
F3 F 1.185(2) -0.3106(7) 1.106(2)
F4 F 0.737(2) -0.1784(8) 0.680(1)
F5 F 0.739(2) -0.2762(7) 0.799(2)
F6 F 0.586(2) -0.1820(9) 0.816(2)
O1 O 1.1443(9) -0.1027(5) 1.0728(6)
O2 O 0.8447(8) -0.0824(5) 0.8857(6)
N1 N 1.1515(8) 0.0129(5) 0.8499(6)
C1 C 1.319(1) 0.0085(9) 0.8694(8)
C2 C 1.428(1) 0.0165(8) 0.772(1)
C3 C 1.369(1) 0.0304(5) 0.646(1)
C4 C 1.489(1) 0.0399(6) 0.5372(9)
C5 C 1.197(1) 0.0351(6) 0.6242(9)
C6 C 1.094(1) 0.0262(5) 0.7269(8)
C7 C 1.237(2) -0.236(1) 1.110(2)
C8 C 1.113(1) -0.1754(8) 1.045(1)
C9 C 0.982(2) -0.2039(7) 0.959(1)
C10 C 0.863(1) -0.1586(9) 0.888(1)
C11 C 0.742(3) -0.205(1) 0.796(2)
H1 H 1.3655 -0.0028 0.9563
H2 H 1.5466 0.0119 0.7926
H3 H 1.5926 0.0636 0.5725
H4 H 1.4383 0.0823 0.4750
H5 H 1.1489 0.0455 0.5369
H6 H 0.9738 0.0292 0.7081
H7 H 0.9767 -0.2625 0.9468
O1B O 0.8557(9) 0.1027(5) 0.9272(6)
C8B C 0.887(1) 0.1754(8) 0.955(1)
C7B C 0.763(2) 0.236(1) 0.890(2)
F1B F 0.624(1) 0.236(1) 0.936(1)
F2B F 0.738(1) 0.2211(8) 0.766(1)
F3B F 0.815(2) 0.3106(7) 0.894(2)
C9B C 1.018(2) 0.2039(7) 1.041(1)
C10B C 1.137(1) 0.1586(9) 1.112(1)
O2B O 1.1553(8) 0.0824(5) 1.1143(6)
C4B C 1.511(1) -0.0399(6) 0.4628(9)
C3B C 1.631(1) -0.0304(5) 0.354(1)
C2B C 1.572(1) -0.0165(8) 0.228(1)
C1B C 1.681(1) -0.0085(9) 0.1306(8)
N1B N 1.8485(8) -0.0129(5) 0.1501(6)
Cu1B Cu 2.0000 0.0000 0.0000
C6B C 1.906(1) -0.0262(5) 0.2731(8)
C5B C 1.803(1) -0.0351(6) 0.3758(9)
H5B H 1.8511 -0.0455 0.4631
H6B H 2.0262 -0.0292 0.2919
H1B H 1.6345 0.0028 0.0437
H2B H 1.4534 -0.0119 0.2074
H3B H 1.4074 -0.0636 0.4275
H4B H 1.5617 -0.0823 0.5250
N1B_2 N 0.8485(8) -0.0129(5) 1.1501(6)
C11B C 1.258(3) 0.205(1) 1.204(2)
F4B F 1.263(2) 0.1784(8) 1.320(1)
F5B F 1.261(2) 0.2762(7) 1.201(2)
F6B F 1.414(2) 0.1820(9) 1.184(2)
H7B H 1.0233 0.2625 1.0532
loop_
_geom_bond_atom_site_label_1
_geom_bond_atom_site_label_2
_geom_bond_site_symmetry_1
_geom_bond_site_symmetry_2
Cu1 O1 1_555 1_555
F1 C7 1_555 1_555
F2 C7 1_555 1_555
F3 C7 1_555 1_555
F4 C11 1_555 1_555
F5 C11 1_555 1_555
F6 C11 1_555 1_555
O1 C8 1_555 1_555
O2 Cu1 1_555 1_555
N1 Cu1 1_555 1_555
C1 N1 1_555 1_555
C2 C1 1_555 1_555
C3 C2 1_555 1_555
C4 C3 1_555 1_555
C5 C3 1_555 1_555
C6 N1 1_555 1_555
C7 C8 1_555 1_555
C8 C9 1_555 1_555
C9 C10 1_555 1_555
C10 O2 1_555 1_555
C11 C10 1_555 1_555
H1 C1 1_555 1_555
H2 C2 1_555 1_555
H3 C4 1_555 1_555
H4 C4 1_555 1_555
H5 C5 1_555 1_555
H6 C6 1_555 1_555
H7 C9 1_555 1_555
O1B Cu1 1_555 1_555
C8B O1B 1_555 1_555
C7B C8B 1_555 1_555
F1B C7B 1_555 1_555
F2B C7B 1_555 1_555
F3B C7B 1_555 1_555
C9B C8B 1_555 1_555
C10B C9B 1_555 1_555
O2B Cu1 1_555 1_555
C4B C4 1_555 1_555
C3B C4B 1_555 1_555
C2B C3B 1_555 1_555
C1B C2B 1_555 1_555
N1B C1B 1_555 1_555
Cu1B N1B 1_555 1_555
C6B N1B 1_555 1_555
C5B C3B 1_555 1_555
H5B C5B 1_555 1_555
H6B C6B 1_555 1_555
H1B C1B 1_555 1_555
H2B C2B 1_555 1_555
H3B C4B 1_555 1_555
H4B C4B 1_555 1_555
N1B_2 Cu1 1_555 1_555
C11B C10B 1_555 1_555
F4B C11B 1_555 1_555
F5B C11B 1_555 1_555
F6B C11B 1_555 1_555
H7B C9B 1_555 1_555
C5 C6 1_555 1_555
C10B O2B 1_555 1_555
C6B C5B 1_555 1_555

#END
