
#######################################################################
#
#                 Cambridge Crystallographic Data Centre
#                                CCDC 
#
#######################################################################
#
# If this CIF has been generated from an entry in the Cambridge 
# Structural Database, then it will include bibliographic, chemical, 
# crystal, experimental, refinement or atomic coordinate data resulting 
# from the CCDC's data processing and validation procedures.
#
#######################################################################

data_HOZBOP
_symmetry_cell_setting           triclinic
_symmetry_space_group_name_H-M   'P -1'
_symmetry_Int_Tables_number      2
_space_group_name_Hall           '-P 1'
loop_
_symmetry_equiv_pos_site_id
_symmetry_equiv_pos_as_xyz
1 x,y,z
2 -x,-y,-z
_cell_length_a                   9.772(5)
_cell_length_b                   11.071(5)
_cell_length_c                   12.865(5)
_cell_angle_alpha                106.417(5)
_cell_angle_beta                 90.094(5)
_cell_angle_gamma                90.033(5)
_cell_volume                     1335.06
loop_
_atom_site_label
_atom_site_type_symbol
_atom_site_fract_x
_atom_site_fract_y
_atom_site_fract_z
Cd1 Cd 0.66534(4) 0.38728(4) 0.63270(3)
Cd2 Cd 0.16515(4) 0.11272(4) 0.86716(3)
O1 O 0.4968(4) 0.2081(4) 0.5773(3)
O2 O 0.9970(4) 0.2913(4) 0.9233(3)
N1 N 0.2225(4) 0.0820(4) 0.5202(3)
N2 N 0.3228(5) 0.2738(5) 1.1053(4)
H1 H 0.3530 0.2936 1.1708
H2 H 0.2427 0.2411 1.0907
N3 N -0.1769(5) 0.2259(5) 0.3941(4)
H3 H -0.2575 0.2574 0.4080
H4 H -0.1460 0.2068 0.3289
N4 N 0.7229(4) 0.4185(4) 0.9797(3)
O3 O 0.5469(4) 0.3250(4) 0.4693(3)
O4 O 1.0465(4) 0.1747(4) 1.0304(4)
N5 N 0.3491(4) 0.2626(4) 0.9231(4)
N6 N -0.1512(4) 0.2377(4) 0.5764(4)
N7 N 0.5253(4) 0.3454(4) 1.0557(3)
N8 N 0.1546(4) 0.1212(4) 0.6927(3)
N9 N 0.0258(4) 0.1547(4) 0.4441(3)
N10 N 0.6543(4) 0.3786(4) 0.8072(3)
O5 O 0.7862(5) 0.5239(5) 0.5609(4)
C1 C 0.4012(5) 0.2939(5) 1.0255(4)
C2 C -0.0991(5) 0.2065(5) 0.4745(4)
C3 C 0.0954(5) 0.1334(4) 0.5249(4)
C4 C 0.5955(5) 0.3669(5) 0.9751(4)
O6 O 0.5088(6) 0.5540(6) 0.6844(4)
H5 H 0.4825 0.5620 0.7490
H6 H 0.4402 0.5386 0.6420
O7 O 0.0080(6) -0.0544(6) 0.8152(4)
H7 H -0.0185 -0.0625 0.7506
H8 H -0.0605 -0.0391 0.8575
C5 C 0.5516(5) 0.3421(5) 0.8677(4)
C6 C 0.0521(5) 0.1579(5) 0.6329(4)
C7 C 0.3141(5) 0.0515(5) 0.4263(4)
H9 H 0.2628 0.0064 0.3624
H10 H 0.3859 -0.0038 0.4377
C8 C -0.0732(5) 0.2123(5) 0.6563(4)
H11 H -0.1060 0.2324 0.7269
C9 C 0.8140(5) 0.4489(5) 1.0734(4)
H12 H 0.7628 0.4941 1.1370
H13 H 0.8860 0.5041 1.0621
C10 C 0.8783(5) 0.3329(5) 1.0942(4)
H14 H 0.9248 0.3582 1.1637
H15 H 0.8058 0.2751 1.0994
C11 C 0.3787(5) 0.1675(5) 0.4059(4)
H16 H 0.4249 0.1423 0.3364
H17 H 0.3063 0.2254 0.4006
C12 C 0.4254(5) 0.2860(5) 0.8441(4)
H18 H 0.3928 0.2640 0.7733
C13 C 0.2525(5) 0.0768(5) 0.6224(4)
H19 H 0.3343 0.0448 0.6406
C14 C 0.7524(5) 0.4230(5) 0.8774(4)
H20 H 0.8342 0.4546 0.8590
N11 N 0.8806(11) 0.5546(9) 0.6273(7)
C15 C 0.9789(5) 0.2636(5) 1.0095(4)
C16 C 0.4794(5) 0.2365(5) 0.4902(4)
O8 O 0.9004(8) 0.5188(6) 0.7082(5)
O9 O 0.2845(5) -0.0244(5) 0.9382(5)
O10 O 0.4024(10) -0.0185(7) 0.7916(5)
O11 O 0.958(4) 0.619(3) 0.615(3)
O12 O 0.452(2) -0.126(2) 0.874(2)
N12 N 0.380(3) -0.052(3) 0.872(3)
Cd1_2 Cd -0.33466(4) 0.38728(4) 0.63270(3)
Cd2_2 Cd 1.16515(4) 0.11272(4) 0.86716(3)
O2_2 O -0.0030(4) 0.2913(4) 0.9233(3)
O4_2 O 0.0465(4) 0.1747(4) 1.0304(4)
N6_2 N 0.8488(4) 0.2377(4) 0.5764(4)
O13 O 0.2813(8) 0.9375(8) 0.1457(6)
H21 H 0.2430 0.9388 0.0866
H22 H 0.3500 0.9866 0.1574
O14 O 0.7795(9) 0.5634(8) 0.3541(6)
H23 H 0.7393 0.5140 0.3841
H24 H 0.8567 0.5326 0.3301
loop_
_geom_bond_atom_site_label_1
_geom_bond_atom_site_label_2
_geom_bond_site_symmetry_1
_geom_bond_site_symmetry_2
Cd1 O1 1_555 1_555
Cd2 N5 1_555 1_555
O1 C16 1_555 1_555
O2 C15 1_555 1_555
N1 C3 1_555 1_555
N2 H1 1_555 1_555
H2 N2 1_555 1_555
N3 H3 1_555 1_555
H4 N3 1_555 1_555
N4 C4 1_555 1_555
O3 Cd1 1_555 1_555
O4 C15 1_555 1_555
N5 C1 1_555 1_555
N6 C2 1_555 1_555
N7 C1 1_555 1_555
N8 Cd2 1_555 1_555
N9 C2 1_555 1_555
N10 Cd1 1_555 1_555
O5 Cd1 1_555 1_555
C1 N2 1_555 1_555
C2 N3 1_555 1_555
C3 N9 1_555 1_555
C4 N7 1_555 1_555
O6 Cd1 1_555 1_555
H5 O6 1_555 1_555
H6 O6 1_555 1_555
O7 Cd2 1_555 1_555
H7 O7 1_555 1_555
H8 O7 1_555 1_555
C5 N10 1_555 1_555
C6 N8 1_555 1_555
C7 N1 1_555 1_555
H9 C7 1_555 1_555
H10 C7 1_555 1_555
C8 N6 1_555 1_555
H11 C8 1_555 1_555
C9 N4 1_555 1_555
H12 C9 1_555 1_555
H13 C9 1_555 1_555
C10 C9 1_555 1_555
H14 C10 1_555 1_555
H15 C10 1_555 1_555
C11 C7 1_555 1_555
H16 C11 1_555 1_555
H17 C11 1_555 1_555
C12 N5 1_555 1_555
H18 C12 1_555 1_555
C13 N1 1_555 1_555
H19 C13 1_555 1_555
C14 N4 1_555 1_555
H20 C14 1_555 1_555
N11 O5 1_555 1_555
C15 C10 1_555 1_555
C16 O3 1_555 1_555
O8 Cd1 1_555 1_555
O9 Cd2 1_555 1_555
O10 Cd2 1_555 1_555
O11 N11 1_555 1_555
O12 N12 1_555 1_555
N12 O9 1_555 1_555
O13 H21 1_555 1_555
H22 O13 1_555 1_555
O14 H23 1_555 1_555
H24 O14 1_555 1_555
Cd1_2 N6 1_555 1_555
Cd2_2 O2 1_555 1_555
O2_2 Cd2 1_555 1_555
O4_2 Cd2 1_555 1_555
N6_2 Cd1 1_555 1_555
O4 Cd2_2 1_555 1_555
N8 C13 1_555 1_555
N10 C14 1_555 1_555
C3 C6 1_555 1_555
C4 C5 1_555 1_555
C5 C12 1_555 1_555
C6 C8 1_555 1_555
C11 C16 1_555 1_555
N11 O8 1_555 1_555
O10 N12 1_555 1_555

#END
