
#######################################################################
#
#                 Cambridge Crystallographic Data Centre
#                                CCDC 
#
#######################################################################
#
# If this CIF has been generated from an entry in the Cambridge 
# Structural Database, then it will include bibliographic, chemical, 
# crystal, experimental, refinement or atomic coordinate data resulting 
# from the CCDC's data processing and validation procedures.
#
#######################################################################

data_HOZHOU
_symmetry_cell_setting           monoclinic
_symmetry_space_group_name_H-M   'P 21/c'
_symmetry_Int_Tables_number      14
_space_group_name_Hall           '-P 2ybc'
loop_
_symmetry_equiv_pos_site_id
_symmetry_equiv_pos_as_xyz
1 x,y,z
2 -x,1/2+y,1/2-z
3 -x,-y,-z
4 x,1/2-y,1/2+z
_cell_length_a                   23.6296(7)
_cell_length_b                   15.6979(4)
_cell_length_c                   21.0807(6)
_cell_angle_alpha                90
_cell_angle_beta                 109.138(2)
_cell_angle_gamma                90
_cell_volume                     7387.4
loop_
_atom_site_label
_atom_site_type_symbol
_atom_site_fract_x
_atom_site_fract_y
_atom_site_fract_z
W1 W 0.645237(16) 0.69952(2) 0.322595(17)
C1 C 0.5872(4) 0.6087(6) 0.3475(4)
N1 N 0.5541(4) 0.5617(5) 0.3601(3)
C2 C 0.5841(4) 0.7679(5) 0.3597(4)
N2 N 0.5513(4) 0.8033(4) 0.3810(3)
C3 C 0.6099(4) 0.8002(6) 0.2508(4)
N3 N 0.5920(3) 0.8548(4) 0.2124(3)
C4 C 0.6966(4) 0.8126(6) 0.3644(5)
N4 N 0.7215(4) 0.8739(6) 0.3849(4)
C5 C 0.7085(5) 0.7097(6) 0.2711(5)
N5 N 0.7445(5) 0.7134(7) 0.2436(5)
C6 C 0.6881(5) 0.5764(6) 0.3282(5)
N6 N 0.7103(5) 0.5089(7) 0.3318(6)
C7 C 0.5918(4) 0.6427(5) 0.2296(5)
N7 N 0.5636(4) 0.6164(5) 0.1788(4)
C8 C 0.6909(5) 0.6765(6) 0.4282(5)
N8 N 0.7141(4) 0.6659(6) 0.4842(4)
Mn1 Mn 0.48089(6) 0.45796(8) 0.33556(6)
C9 C 0.5808(4) 0.3427(5) 0.3592(4)
C10 C 0.6245(4) 0.2911(6) 0.4045(4)
H1 H 0.6207 0.2781 0.4469
C11 C 0.6723(5) 0.2592(6) 0.3890(5)
H2 H 0.7014 0.2254 0.4209
C12 C 0.6781(4) 0.2762(6) 0.3266(4)
C13 C 0.6358(4) 0.3236(6) 0.2805(4)
H3 H 0.6393 0.3334 0.2375
C14 C 0.5872(4) 0.3580(5) 0.2959(4)
C15 C 0.5427(4) 0.4072(5) 0.2431(4)
H4 H 0.5480 0.4103 0.2003
C16 C 0.4535(4) 0.4883(5) 0.1926(4)
H5 H 0.4190 0.4501 0.1721
H6 H 0.4719 0.5032 0.1581
C17 C 0.4331(4) 0.5683(6) 0.2192(4)
H7 H 0.4642 0.6130 0.2279
H8 H 0.3957 0.5903 0.1862
C18 C 0.3770(4) 0.5694(5) 0.2956(4)
H9 H 0.3489 0.6035 0.2628
C19 C 0.3635(4) 0.5510(5) 0.3572(4)
C20 C 0.3095(4) 0.5807(5) 0.3621(5)
H10 H 0.2812 0.6077 0.3247
C21 C 0.2971(4) 0.5708(6) 0.4213(5)
C22 C 0.3396(4) 0.5329(6) 0.4773(5)
H11 H 0.3314 0.5270 0.5183
C23 C 0.3931(4) 0.5046(5) 0.4725(4)
H12 H 0.4217 0.4799 0.5108
C24 C 0.4068(4) 0.5109(5) 0.4128(4)
N9 N 0.4979(3) 0.4458(4) 0.2502(3)
N10 N 0.4227(3) 0.5441(4) 0.2818(3)
O1 O 0.5362(3) 0.3738(4) 0.3782(3)
O2 O 0.4578(3) 0.4801(4) 0.4116(3)
Br1 Br 0.74544(5) 0.23418(7) 0.30633(5)
Br2 Br 0.22234(5) 0.60718(8) 0.42597(6)
Mn2 Mn 0.51854(6) 0.85873(8) 0.46530(6)
C25 C 0.6281(4) 0.9554(5) 0.4923(4)
C26 C 0.6566(4) 1.0283(5) 0.4774(4)
H13 H 0.6331 1.0738 0.4527
C27 C 0.7179(4) 1.0339(5) 0.4982(4)
H14 H 0.7366 1.0829 0.4875
C28 C 0.7527(4) 0.9677(6) 0.5350(4)
C29 C 0.7274(4) 0.8968(5) 0.5509(4)
H15 H 0.7520 0.8524 0.5761
C30 C 0.6649(4) 0.8890(5) 0.5301(4)
C31 C 0.6403(4) 0.8123(5) 0.5483(4)
H16 H 0.6676 0.7729 0.5766
C32 C 0.5614(4) 0.7149(5) 0.5509(4)
H17 H 0.5464 0.7277 0.5886
H18 H 0.5941 0.6726 0.5665
C33 C 0.5113(4) 0.6802(5) 0.4917(4)
H19 H 0.5277 0.6540 0.4587
H20 H 0.4883 0.6365 0.5067
C34 C 0.4168(4) 0.7478(5) 0.4414(4)
H21 H 0.3999 0.6949 0.4476
C35 C 0.3746(4) 0.8159(5) 0.4088(4)
C36 C 0.3125(4) 0.7996(6) 0.3908(4)
H22 H 0.2989 0.7473 0.4033
C37 C 0.2720(4) 0.8589(6) 0.3554(5)
C38 C 0.2921(4) 0.9348(6) 0.3391(4)
H23 H 0.2637 0.9758 0.3146
C39 C 0.3506(4) 0.9533(6) 0.3567(4)
H24 H 0.3627 1.0069 0.3446
C40 C 0.3940(4) 0.8955(5) 0.3925(4)
N11 N 0.5835(3) 0.7927(4) 0.5289(3)
N12 N 0.4730(3) 0.7524(4) 0.4618(3)
Br3 Br 0.83725(4) 0.97812(7) 0.55873(5)
Br4 Br 0.18920(5) 0.83344(7) 0.33105(6)
O3 O 0.5689(3) 0.9533(3) 0.4719(3)
O4 O 0.4518(3) 0.9146(3) 0.4068(3)
O5 O 0.4859(3) 0.8956(4) 0.5487(3)
N3A N 0.4080(3) 0.3548(4) 0.2876(3)
Mn1A Mn 0.51911(6) 0.95796(8) 0.16444(6)
Mn3 Mn 0.03415(6) 0.33657(9) 0.02686(7)
C41 C 0.0166(4) 0.3844(6) 0.1505(5)
C42 C -0.0176(5) 0.4308(7) 0.1823(5)
H25 H -0.0557 0.4524 0.1563
C43 C 0.0034(5) 0.4451(7) 0.2503(5)
H26 H -0.0203 0.4762 0.2710
C44 C 0.0585(5) 0.4147(6) 0.2887(5)
C45 C 0.0927(5) 0.3685(6) 0.2602(5)
H27 H 0.1305 0.3471 0.2874
C46 C 0.0725(4) 0.3525(6) 0.1909(4)
C47 C 0.1104(4) 0.3017(6) 0.1638(5)
H28 H 0.1454 0.2775 0.1949
C48 C 0.1409(5) 0.2336(7) 0.0789(5)
H29 H 0.1242 0.1754 0.0691
H30 H 0.1805 0.2297 0.1144
C49 C 0.1477(4) 0.2718(6) 0.0173(5)
H31 H 0.1642 0.2295 -0.0068
H32 H 0.1748 0.3216 0.0287
C50 C 0.0713(4) 0.2980(6) -0.0901(5)
H33 H 0.1004 0.2791 -0.1092
C51 C 0.0141(4) 0.3241(6) -0.1354(5)
C52 C 0.0048(4) 0.3106(6) -0.2050(5)
H34 H 0.0357 0.2868 -0.2189
C53 C -0.0489(4) 0.3321(6) -0.2515(4)
C54 C -0.0949(5) 0.3674(7) -0.2312(5)
H35 H -0.1325 0.3811 -0.2635
C55 C -0.0849(4) 0.3819(6) -0.1640(5)
H36 H -0.1160 0.4069 -0.1509
C56 C -0.0317(4) 0.3615(6) -0.1150(5)
N13 N 0.1006(4) 0.2870(5) 0.1022(4)
N14 N 0.0863(3) 0.2982(5) -0.0248(4)
Br5 Br 0.08673(6) 0.43377(7) 0.38316(5)
Br6 Br -0.06181(5) 0.31357(7) -0.34369(5)
O6 O -0.0073(3) 0.3702(4) 0.0850(3)
O7 O -0.0247(3) 0.3796(4) -0.0515(3)
O8 O 0.0806(3) 0.4642(4) 0.0445(3)
O9 O -0.0113(3) 0.2094(4) 0.0073(3)
C57 C 0.2152(6) 0.4793(9) 0.1972(6)
H37 H 0.2471 0.5197 0.2195
H38 H 0.2303 0.4210 0.2074
H39 H 0.1812 0.4879 0.2135
O10 O 0.1962(4) 0.4928(5) 0.1261(4)
H40 H 0.2069 0.4513 0.1076
C58 C 0.2542(8) 0.3753(11) 0.3517(9)
H41 H 0.2931 0.3897 0.3848
H42 H 0.2273 0.4244 0.3451
H43 H 0.2598 0.3605 0.3089
O11 O 0.2277(5) 0.3015(6) 0.3762(4)
H44 H 0.2486 0.2903 0.4160
C59 C 0.1392(6) 0.0956(8) 0.2584(7)
H45 H 0.1731 0.0851 0.2423
H46 H 0.1029 0.1052 0.2201
H47 H 0.1335 0.0461 0.2840
O12 O 0.1518(5) 0.1716(7) 0.3021(5)
H48 H 0.1848 0.1927 0.3035
C60 C 0.1699(8) 0.9925(12) 0.0525(8)
O13 O 0.1880(4) 0.9189(5) 0.0956(4)
C61 C 0.1526(5) 0.7065(7) 0.0052(6)
H49 H 0.1889 0.7140 -0.0070
H50 H 0.1230 0.6741 -0.0299
H51 H 0.1626 0.6755 0.0479
O14 O 0.1289(4) 0.7869(5) 0.0122(5)
H52 H 0.1271 0.7918 0.0512
O15 O 0.0254(8) 0.0566(12) 0.0521(13)
O16 O 0.0956(8) 0.9158(17) 0.1508(7)
loop_
_geom_bond_atom_site_label_1
_geom_bond_atom_site_label_2
_geom_bond_site_symmetry_1
_geom_bond_site_symmetry_2
W1 C1 1_555 1_555
C1 N1 1_555 1_555
N1 Mn1 1_555 1_555
C2 W1 1_555 1_555
N2 C2 1_555 1_555
C3 W1 1_555 1_555
N3 C3 1_555 1_555
C4 W1 1_555 1_555
N4 C4 1_555 1_555
C5 W1 1_555 1_555
N5 C5 1_555 1_555
C6 W1 1_555 1_555
N6 C6 1_555 1_555
C7 W1 1_555 1_555
N7 C7 1_555 1_555
C8 W1 1_555 1_555
N8 C8 1_555 1_555
Mn1 N9 1_555 1_555
C9 C10 1_555 1_555
C10 H1 1_555 1_555
C11 C10 1_555 1_555
H2 C11 1_555 1_555
C12 C11 1_555 1_555
C13 C12 1_555 1_555
H3 C13 1_555 1_555
C14 C9 1_555 1_555
C15 C14 1_555 1_555
H4 C15 1_555 1_555
C16 H5 1_555 1_555
H6 C16 1_555 1_555
C17 C16 1_555 1_555
H7 C17 1_555 1_555
H8 C17 1_555 1_555
C18 H9 1_555 1_555
C19 C18 1_555 1_555
C20 C19 1_555 1_555
H10 C20 1_555 1_555
C21 C20 1_555 1_555
C22 C21 1_555 1_555
H11 C22 1_555 1_555
C23 C22 1_555 1_555
H12 C23 1_555 1_555
C24 C19 1_555 1_555
N9 C15 1_555 1_555
N10 Mn1 1_555 1_555
O1 Mn1 1_555 1_555
O2 Mn1 1_555 1_555
Br1 C12 1_555 1_555
Br2 C21 1_555 1_555
Mn2 N2 1_555 1_555
C25 C26 1_555 1_555
C26 H13 1_555 1_555
C27 C26 1_555 1_555
H14 C27 1_555 1_555
C28 C27 1_555 1_555
C29 C28 1_555 1_555
H15 C29 1_555 1_555
C30 C25 1_555 1_555
C31 C30 1_555 1_555
H16 C31 1_555 1_555
C32 H17 1_555 1_555
H18 C32 1_555 1_555
C33 C32 1_555 1_555
H19 C33 1_555 1_555
H20 C33 1_555 1_555
C34 H21 1_555 1_555
C35 C34 1_555 1_555
C36 C35 1_555 1_555
H22 C36 1_555 1_555
C37 C36 1_555 1_555
C38 C37 1_555 1_555
H23 C38 1_555 1_555
C39 C38 1_555 1_555
H24 C39 1_555 1_555
C40 C35 1_555 1_555
N11 Mn2 1_555 1_555
N12 Mn2 1_555 1_555
Br3 C28 1_555 1_555
Br4 C37 1_555 1_555
O3 Mn2 1_555 1_555
O4 Mn2 1_555 1_555
O5 Mn2 1_555 1_555
Mn3 N13 1_555 1_555
C41 C42 1_555 1_555
C42 H25 1_555 1_555
C43 C42 1_555 1_555
H26 C43 1_555 1_555
C44 C43 1_555 1_555
C45 C44 1_555 1_555
H27 C45 1_555 1_555
C46 C41 1_555 1_555
C47 C46 1_555 1_555
H28 C47 1_555 1_555
C48 H29 1_555 1_555
H30 C48 1_555 1_555
C49 C48 1_555 1_555
H31 C49 1_555 1_555
H32 C49 1_555 1_555
C50 H33 1_555 1_555
C51 C50 1_555 1_555
C52 C51 1_555 1_555
H34 C52 1_555 1_555
C53 C52 1_555 1_555
C54 C53 1_555 1_555
H35 C54 1_555 1_555
C55 C54 1_555 1_555
H36 C55 1_555 1_555
C56 C51 1_555 1_555
N13 C47 1_555 1_555
N14 Mn3 1_555 1_555
Br5 C44 1_555 1_555
Br6 C53 1_555 1_555
O6 Mn3 1_555 1_555
O7 Mn3 1_555 1_555
O8 Mn3 1_555 1_555
O9 Mn3 1_555 1_555
C57 H37 1_555 1_555
H38 C57 1_555 1_555
H39 C57 1_555 1_555
O10 C57 1_555 1_555
H40 O10 1_555 1_555
C58 H41 1_555 1_555
H42 C58 1_555 1_555
H43 C58 1_555 1_555
O11 C58 1_555 1_555
H44 O11 1_555 1_555
C59 H45 1_555 1_555
H46 C59 1_555 1_555
H47 C59 1_555 1_555
O12 C59 1_555 1_555
H48 O12 1_555 1_555
C60 O13 1_555 1_555
C61 H49 1_555 1_555
H50 C61 1_555 1_555
H51 C61 1_555 1_555
O14 C61 1_555 1_555
H52 O14 1_555 1_555
N3A Mn1 1_555 1_555
Mn1A N3 1_555 1_555
C9 O1 1_555 1_555
C13 C14 1_555 1_555
C16 N9 1_555 1_555
C17 N10 1_555 1_555
C18 N10 1_555 1_555
C23 C24 1_555 1_555
C24 O2 1_555 1_555
C25 O3 1_555 1_555
C29 C30 1_555 1_555
C31 N11 1_555 1_555
C32 N11 1_555 1_555
C33 N12 1_555 1_555
C34 N12 1_555 1_555
C39 C40 1_555 1_555
C40 O4 1_555 1_555
C41 O6 1_555 1_555
C45 C46 1_555 1_555
C48 N13 1_555 1_555
C49 N14 1_555 1_555
C50 N14 1_555 1_555
C55 C56 1_555 1_555
C56 O7 1_555 1_555

#END
