
#######################################################################
#
#                 Cambridge Crystallographic Data Centre
#                                CCDC 
#
#######################################################################
#
# If this CIF has been generated from an entry in the Cambridge 
# Structural Database, then it will include bibliographic, chemical, 
# crystal, experimental, refinement or atomic coordinate data resulting 
# from the CCDC's data processing and validation procedures.
#
#######################################################################

data_HOZMOA
_symmetry_cell_setting           triclinic
_symmetry_space_group_name_H-M   'P -1'
_symmetry_Int_Tables_number      2
_space_group_name_Hall           '-P 1'
loop_
_symmetry_equiv_pos_site_id
_symmetry_equiv_pos_as_xyz
1 x,y,z
2 -x,-y,-z
_cell_length_a                   17.0180(5)
_cell_length_b                   17.8705(7)
_cell_length_c                   20.8120(7)
_cell_angle_alpha                65.116(3)
_cell_angle_beta                 83.339(3)
_cell_angle_gamma                69.993(3)
_cell_volume                     5392.33
loop_
_atom_site_label
_atom_site_type_symbol
_atom_site_fract_x
_atom_site_fract_y
_atom_site_fract_z
Cu1 Cu -0.01959(2) -0.22616(2) 1.231498(17)
Cu2 Cu 0.32369(3) 0.08331(2) 0.899543(17)
Cu3 Cu 0.69514(3) 0.41904(3) 0.593603(18)
O1 O -0.10516(13) -0.28465(13) 1.25298(10)
O2 O 0.23704(13) 0.02676(13) 0.91287(10)
O3 O -0.11381(14) -0.08305(12) 1.19091(9)
O4 O 0.08441(14) -0.19774(14) 1.22102(10)
N1 N -0.02290(16) -0.24090(16) 1.33319(11)
O5 O 0.42401(14) 0.11623(15) 0.89280(10)
N2 N 0.30476(16) 0.07900(15) 0.99860(11)
N3 N -0.00652(15) -0.22235(15) 1.13159(11)
N4 N 0.34583(17) 0.08119(16) 0.80272(12)
N5 N 0.68663(18) 0.42846(17) 0.68744(12)
O6 O 0.59655(17) 0.38192(16) 0.61505(11)
O7 O 0.21528(14) 0.22326(14) 0.86009(11)
H1 H 0.2358 0.2615 0.8524
N6 N 0.39164(17) 0.00072(16) 0.59112(12)
O8 O 0.25180(15) 0.03276(15) 0.59991(12)
N7 N 0.69981(18) 0.41384(16) 0.49856(12)
O9 O 0.00342(16) -0.40473(15) 1.29121(11)
O10 O 0.34859(16) -0.08450(15) 0.96560(13)
O11 O 0.58441(17) 0.40683(18) 0.27341(12)
N8 N -0.08485(18) -0.20631(16) 1.56574(12)
N9 N 0.10075(18) -0.30465(17) 0.92323(12)
O12 O 0.79167(16) 0.47083(16) 0.89919(12)
N10 N 0.72506(19) 0.37163(17) 0.27091(12)
N11 N 0.23789(19) 0.12479(17) 1.22641(12)
O13 O 0.22786(16) -0.29451(15) 0.93308(11)
O14 O -0.21835(18) -0.5224(2) 1.56075(13)
N12 N 0.65265(18) 0.49479(17) 0.90679(12)
O15 O 0.37713(17) 0.10092(18) 1.22843(12)
O16 O -0.21915(16) -0.20119(16) 1.56268(11)
O17 O 0.04908(16) -0.20914(17) 1.56279(13)
O18 O 0.53237(16) -0.03447(17) 0.58977(13)
O19 O 0.51240(17) 0.52042(17) 0.90978(13)
O20 O -0.3362(3) -0.4206(2) 1.51894(17)
O21 O -0.02584(17) -0.3210(2) 0.92735(13)
O22 O 0.86603(16) 0.33573(17) 0.27076(12)
O23 O 0.09921(17) 0.14836(16) 1.22181(12)
O24 O 0.81158(17) 0.26524(17) 0.64280(12)
O25 O 0.35605(18) 0.25774(19) 0.84823(17)
O26 O 0.03289(18) -0.05721(18) 1.15179(14)
C1 C 0.2277(2) -0.4156(2) 0.91358(13)
C2 C 0.7366(2) 0.2247(2) 0.24714(14)
C3 C -0.0256(2) -0.1491(2) 1.07243(15)
H2 H -0.0536 -0.0965 1.0763
C4 C 0.1782(2) -0.4624(2) 0.90775(13)
O27 O 0.6672(2) 0.2418(2) 0.65151(18)
C5 C 0.6298(2) 0.6459(2) 0.92817(13)
C6 C 0.3843(2) 0.0838(2) 0.59445(15)
H3 H 0.3374 0.1296 0.5641
H4 H 0.4345 0.0986 0.5760
C7 C 0.3719(2) 0.08130(19) 0.66793(15)
C8 C -0.1385(2) -0.0533(2) 1.58991(14)
C9 C 0.0906(2) -0.4328(2) 0.91364(15)
C10 C -0.1976(2) -0.0897(2) 1.58474(13)
C11 C 0.6733(2) 0.42174(19) 0.82427(15)
C12 C 0.7181(2) 0.4499(2) 0.28120(15)
H5 H 0.6690 0.4968 0.2551
H6 H 0.7667 0.4677 0.2620
C13 C 0.4770(2) -0.1320(2) 0.57673(14)
C14 C 0.7789(2) 0.3826(2) 0.40532(15)
H7 H 0.8292 0.3538 0.3905
C15 C 0.7106(2) 0.5962(2) 0.91809(14)
C16 C 0.2281(2) 0.1155(2) 1.01793(15)
H8 H 0.1852 0.1483 0.9835
C17 C 0.0235(2) -0.3129(2) 1.38443(15)
H9 H 0.0633 -0.3550 1.3720
C18 C 0.2104(2) 0.1061(2) 1.08695(15)
H10 H 0.1566 0.1323 1.0985
C19 C 0.7120(2) 0.4355(2) 0.35797(15)
C20 C 0.8101(2) 0.2389(2) 0.25558(15)
C21 C 0.4035(2) -0.1487(2) 0.57208(13)
C22 C 0.3244(2) -0.0942(2) 0.58033(14)
C23 C -0.0529(2) -0.0929(2) 1.58350(15)
C24 C 0.4178(2) 0.0320(2) 0.78750(16)
H11 H 0.4593 -0.0029 0.8229
C25 C -0.1706(2) -0.1688(2) 1.57076(14)
C26 C -0.0769(2) -0.18122(19) 1.35316(15)
H12 H -0.1090 -0.1294 1.3182
C27 C 0.1883(2) -0.3354(2) 0.92441(14)
C28 C 0.2070(2) 0.2737(2) 1.25225(14)
C29 C 0.6661(2) 0.4126(2) 0.90035(15)
H13 H 0.6199 0.3912 0.9214
H14 H 0.7168 0.3695 0.9269
C30 C 0.7706(2) 0.37295(19) 0.47516(15)
H15 H 0.8159 0.3367 0.5068
C31 C -0.0059(2) -0.1477(2) 1.00617(15)
H16 H -0.0211 -0.0950 0.9664
C32 C 0.3652(2) 0.0334(2) 1.04812(15)
H17 H 0.4187 0.0083 1.0353
C33 C 0.3174(2) -0.0165(2) 0.59167(15)
C34 C 0.4330(2) 0.0310(2) 0.72104(16)
H18 H 0.4842 -0.0036 0.7122
C35 C 0.6583(2) 0.2815(2) 0.25050(15)
C36 C -0.0724(2) -0.3675(2) 1.28474(15)
C37 C 0.5371(3) 0.7667(2) 0.95389(17)
H19 H 0.5287 0.8160 0.9623
C38 C -0.1663(3) 0.0236(2) 1.60270(15)
C39 C 0.0324(2) -0.29553(19) 1.12381(14)
H20 H 0.0450 -0.3476 1.1642
C40 C 0.2735(2) 0.0574(2) 1.13854(15)
C41 C 0.0355(2) -0.2228(2) 0.99854(14)
C42 C 0.1396(2) 0.2510(2) 1.24276(15)
C43 C -0.0876(2) -0.19187(19) 1.42235(14)
H21 H -0.1260 -0.1478 1.4334
C44 C 0.5601(2) 0.6212(2) 0.92715(15)
C45 C 0.2192(2) -0.1127(2) 0.97711(18)
H22 H 0.1630 -0.0789 0.9569
H23 H 0.2411 -0.1589 0.9606
C46 C 0.3130(2) -0.4465(2) 0.90914(14)
H24 H 0.3456 -0.4163 0.9134
C47 C 0.8053(2) 0.3175(2) 0.26629(15)
C48 C 0.2175(3) -0.5390(2) 0.89729(15)
C49 C -0.0552(2) -0.2857(2) 1.55301(15)
H25 H -0.0957 -0.3165 1.5705
H26 H -0.0029 -0.3234 1.5794
C50 C 0.7234(2) 0.5170(2) 0.90713(15)
C51 C 0.4710(2) -0.0536(2) 0.58667(15)
C52 C -0.0420(2) -0.26750(19) 1.47521(14)
C53 C 0.4092(3) -0.2223(2) 0.55938(15)
C54 C 0.6179(2) 0.7198(2) 0.94195(15)
C55 C 0.5707(2) 0.5434(2) 0.91364(15)
C56 C 0.2874(2) 0.1292(2) 0.75188(16)
H27 H 0.2367 0.1635 0.7618
C57 C 0.0157(2) -0.3284(2) 1.45520(15)
H28 H 0.0494 -0.3800 1.4893
C58 C 0.2530(2) -0.1121(2) 0.57720(15)
H29 H 0.2014 -0.0767 0.5846
C59 C 0.2904(2) 0.2228(2) 1.24889(15)
C60 C 0.0552(2) -0.2992(2) 1.05971(15)
H30 H 0.0837 -0.3525 1.0572
C61 C -0.0237(2) -0.1726(2) 1.57011(15)
C62 C 0.4817(3) 0.6688(2) 0.93910(17)
H31 H 0.4356 0.6527 0.9376
C63 C 0.4883(3) -0.2765(2) 0.55218(18)
H32 H 0.4930 -0.3243 0.5428
C64 C -0.1340(3) -0.4182(2) 1.31542(18)
H33 H -0.1722 -0.4029 1.2773
H34 H -0.1025 -0.4798 1.3308
C65 C 0.8870(3) 0.1806(2) 0.25385(16)
H35 H 0.9352 0.1905 0.2601
C66 C 0.2732(2) -0.0540(2) 0.95014(17)
C67 C 0.0602(2) -0.2198(2) 0.92602(15)
H36 H 0.0104 -0.1896 0.8952
H37 H 0.0978 -0.1857 0.9073
C68 C 0.3335(3) -0.2361(2) 0.55409(17)
H38 H 0.3360 -0.2830 0.5442
C69 C 0.6507(2) 0.3574(2) 0.26573(15)
C70 C 0.3513(2) -0.5227(2) 0.89834(15)
H39 H 0.4091 -0.5425 0.8949
C71 C 0.6144(2) 0.4626(2) 0.71193(17)
H40 H 0.5670 0.4892 0.6822
C72 C 0.5532(2) -0.1872(2) 0.57087(16)
H41 H 0.6017 -0.1763 0.5749
C73 C 0.6899(3) 0.7415(2) 0.94494(16)
H42 H 0.6837 0.7895 0.9545
C74 C 0.0595(2) 0.3012(2) 1.24547(17)
H43 H 0.0152 0.2855 1.2390
C75 C 0.3048(3) -0.5680(2) 0.89278(15)
H44 H 0.3311 -0.6189 0.8859
C76 C 0.6386(2) 0.4751(2) 0.38350(16)
H45 H 0.5917 0.5103 0.3535
C77 C 0.2982(2) 0.1306(2) 0.68443(16)
H46 H 0.2551 0.1652 0.6503
C78 C 0.1552(2) 0.1723(2) 1.22954(15)
C79 C 0.7781(2) 0.6206(2) 0.92028(14)
H47 H 0.8314 0.5885 0.9125
C80 C 0.2564(2) 0.0439(2) 1.21508(15)
H48 H 0.2093 0.0223 1.2301
H49 H 0.3048 -0.0002 1.2445
C81 C 0.1914(3) 0.3490(2) 1.26526(16)
C82 C 0.0491(2) -0.3509(3) 0.92220(16)
C83 C 0.3524(2) 0.0213(2) 1.11822(15)
H50 H 0.3966 -0.0110 1.1514
C84 C 0.8227(3) 0.0928(2) 0.23394(17)
H51 H 0.8275 0.0435 0.2268
C85 C 0.6054(2) 0.4610(2) 0.77893(16)
H52 H 0.5532 0.4867 0.7933
C86 C 0.5585(3) -0.2598(3) 0.55884(18)
H53 H 0.6108 -0.2973 0.5553
C87 C 0.3068(2) 0.1467(2) 1.23390(15)
C88 C -0.2807(2) -0.0510(2) 1.59105(15)
H54 H -0.3193 -0.0753 1.5872
C89 C 0.7666(3) 0.6943(2) 0.93428(16)
H55 H 0.8126 0.7104 0.9361
C90 C 0.7438(3) 0.1499(2) 0.23528(16)
C91 C 0.4713(3) 0.7409(2) 0.95337(18)
H56 H 0.4183 0.7718 0.9627
C92 C 0.0044(3) -0.0570(3) 1.58887(17)
H57 H 0.0611 -0.0832 1.5847
C93 C 0.0914(3) -0.1239(3) 1.18015(17)
C94 C -0.3082(3) 0.0249(3) 1.60322(16)
H58 H -0.3650 0.0508 1.6075
C95 C 0.5028(2) 0.2132(2) 0.85574(17)
H59 H 0.5484 0.1583 0.8728
H60 H 0.5047 0.2455 0.8828
C96 C 0.6353(2) 0.4621(2) 0.45398(16)
H61 H 0.5851 0.4886 0.4706
C97 C -0.2530(3) 0.0610(2) 1.60880(16)
H62 H -0.2723 0.1116 1.6168
C98 C 0.7528(2) 0.3927(2) 0.73118(17)
H63 H 0.8048 0.3699 0.7149
C99 C 0.4199(2) 0.1957(3) 0.86661(18)
C100 C 0.1067(3) 0.3993(2) 1.26726(17)
H64 H 0.0948 0.4495 1.2752
C101 C 0.7486(2) 0.3877(2) 0.79917(17)
H65 H 0.7968 0.3611 0.8279
C102 C 0.0442(3) -0.4799(3) 0.91012(18)
H66 H -0.0135 -0.4613 0.9150
C103 C 0.2576(3) -0.1838(2) 0.56291(16)
H67 H 0.2091 -0.1952 0.5596
C104 C 0.1815(2) -0.1220(3) 1.16731(18)
H68 H 0.1885 -0.0809 1.1834
H69 H 0.2197 -0.1793 1.1954
C105 C 0.1667(3) -0.5850(3) 0.89261(18)
H70 H 0.1913 -0.6355 0.8849
C106 C 0.3387(3) 0.3201(3) 1.2723(2)
H71 H 0.3831 0.3354 1.2791
C107 C 0.6016(3) 0.3039(3) 0.63751(19)
C108 C 0.8937(3) 0.1073(2) 0.24293(18)
H72 H 0.9461 0.0684 0.2417
C109 C 0.3549(3) 0.2457(3) 1.25917(17)
H73 H 0.4098 0.2118 1.2574
C110 C -0.0231(3) 0.0192(3) 1.6006(2)
H74 H 0.0158 0.0434 1.6041
C111 C 0.5873(3) 0.2657(3) 0.24164(17)
H75 H 0.5347 0.3033 0.2446
C112 C 0.6701(3) 0.1377(3) 0.2255(2)
H76 H 0.6735 0.0897 0.2168
C113 C 0.5200(2) 0.2829(2) 0.65174(18)
H77 H 0.4734 0.3370 0.6354
H78 H 0.5180 0.2505 0.6249
C114 C 0.2149(3) -0.1519(3) 1.0547(2)
H79 H 0.1690 -0.1755 1.0664
H80 H 0.2660 -0.2008 1.0731
C115 C -0.1058(4) 0.0588(3) 1.60696(19)
H81 H -0.1224 0.1099 1.6142
C116 C 0.2597(3) 0.3696(3) 1.27541(18)
H82 H 0.2504 0.4186 1.2845
C117 C 0.0834(4) -0.5566(3) 0.8992(2)
H83 H 0.0513 -0.5882 0.8964
C118 C 0.5136(3) 0.2656(3) 0.7774(2)
H84 H 0.4705 0.3222 0.7630
H85 H 0.5670 0.2754 0.7731
C119 C -0.2615(4) -0.4433(4) 1.5225(3)
C120 C -0.1717(3) -0.3845(3) 1.4232(2)
H86 H -0.1240 -0.3683 1.4172
C121 C 0.0434(3) 0.3755(3) 1.25786(18)
H87 H -0.0116 0.4091 1.2597
C122 C 0.2041(3) -0.0971(3) 1.0921(2)
H88 H 0.1618 -0.0422 1.0654
H89 H 0.2561 -0.0846 1.0882
C123 C 0.5108(3) 0.2311(3) 0.7284(2)
H90 H 0.4578 0.2204 0.7332
H91 H 0.5545 0.1749 0.7423
C124 C 0.5942(3) 0.1934(3) 0.2283(2)
H92 H 0.5462 0.1837 0.2213
C125 C -0.1823(5) -0.4065(4) 1.3726(3)
H93 H -0.2329 -0.4167 1.3750
C126 C -0.2145(5) -0.3795(4) 1.4837(3)
H94 H -0.2542 -0.3210 1.4700
H95 H -0.1742 -0.3867 1.5170
Cu3_2 Cu -0.30486(3) -0.58096(3) 1.593603(18)
O14_2 O 0.78165(18) 0.4776(2) 0.56075(13)
O20_2 O 0.6638(3) 0.5794(2) 0.51894(17)
loop_
_geom_bond_atom_site_label_1
_geom_bond_atom_site_label_2
_geom_bond_site_symmetry_1
_geom_bond_site_symmetry_2
Cu1 O1 1_555 1_555
Cu2 O2 1_555 1_555
Cu3 N5 1_555 1_555
O1 C36 1_555 1_555
O2 C66 1_555 1_555
O3 Cu1 1_555 1_555
O4 Cu1 1_555 1_555
N1 Cu1 1_555 1_555
O5 Cu2 1_555 1_555
N2 Cu2 1_555 1_555
N3 Cu1 1_555 1_555
N4 Cu2 1_555 1_555
N5 C71 1_555 1_555
O6 Cu3 1_555 1_555
O7 Cu2 1_555 1_555
H1 O7 1_555 1_555
N6 C6 1_555 1_555
O8 C33 1_555 1_555
N7 Cu3 1_555 1_555
O9 Cu1 1_555 1_555
O10 Cu2 1_555 1_555
O11 C69 1_555 1_555
N8 C25 1_555 1_555
N9 C27 1_555 1_555
O12 C50 1_555 1_555
N10 C12 1_555 1_555
N11 C78 1_555 1_555
O13 C27 1_555 1_555
O14 C119 1_555 1_555
N12 C29 1_555 1_555
O15 C87 1_555 1_555
O16 C25 1_555 1_555
O17 C61 1_555 1_555
O18 C51 1_555 1_555
O19 C55 1_555 1_555
O20 C119 1_555 1_555
O21 C82 1_555 1_555
O22 C47 1_555 1_555
O23 C78 1_555 1_555
O24 Cu3 1_555 1_555
O25 C99 1_555 1_555
O26 C93 1_555 1_555
C1 C4 1_555 1_555
C2 C20 1_555 1_555
C3 N3 1_555 1_555
H2 C3 1_555 1_555
C4 C9 1_555 1_555
O27 C107 1_555 1_555
C5 C15 1_555 1_555
C6 H3 1_555 1_555
H4 C6 1_555 1_555
C7 C6 1_555 1_555
C8 C10 1_555 1_555
C9 C82 1_555 1_555
C10 C25 1_555 1_555
C11 C29 1_555 1_555
C12 H5 1_555 1_555
H6 C12 1_555 1_555
C13 C21 1_555 1_555
C14 H7 1_555 1_555
C15 C50 1_555 1_555
C16 N2 1_555 1_555
H8 C16 1_555 1_555
C17 N1 1_555 1_555
H9 C17 1_555 1_555
C18 C16 1_555 1_555
H10 C18 1_555 1_555
C19 C12 1_555 1_555
C20 C47 1_555 1_555
C21 C22 1_555 1_555
C22 C33 1_555 1_555
C23 C8 1_555 1_555
C24 N4 1_555 1_555
H11 C24 1_555 1_555
C26 N1 1_555 1_555
H12 C26 1_555 1_555
C27 C1 1_555 1_555
C28 C42 1_555 1_555
C29 H13 1_555 1_555
H14 C29 1_555 1_555
C30 N7 1_555 1_555
H15 C30 1_555 1_555
C31 C3 1_555 1_555
H16 C31 1_555 1_555
C32 N2 1_555 1_555
H17 C32 1_555 1_555
C33 N6 1_555 1_555
C34 C7 1_555 1_555
H18 C34 1_555 1_555
C35 C2 1_555 1_555
C36 O9 1_555 1_555
C37 H19 1_555 1_555
C38 C8 1_555 1_555
C39 N3 1_555 1_555
H20 C39 1_555 1_555
C40 C18 1_555 1_555
C41 C31 1_555 1_555
C42 C74 1_555 1_555
C43 C26 1_555 1_555
H21 C43 1_555 1_555
C44 C5 1_555 1_555
C45 H22 1_555 1_555
H23 C45 1_555 1_555
C46 C1 1_555 1_555
H24 C46 1_555 1_555
C47 N10 1_555 1_555
C48 C4 1_555 1_555
C49 N8 1_555 1_555
H25 C49 1_555 1_555
H26 C49 1_555 1_555
C50 N12 1_555 1_555
C51 N6 1_555 1_555
C52 C43 1_555 1_555
C53 C21 1_555 1_555
C54 C5 1_555 1_555
C55 N12 1_555 1_555
C56 N4 1_555 1_555
H27 C56 1_555 1_555
C57 C17 1_555 1_555
H28 C57 1_555 1_555
C58 C22 1_555 1_555
H29 C58 1_555 1_555
C59 C28 1_555 1_555
C60 C39 1_555 1_555
H30 C60 1_555 1_555
C61 N8 1_555 1_555
C62 C44 1_555 1_555
H31 C62 1_555 1_555
C63 C53 1_555 1_555
H32 C63 1_555 1_555
C64 C36 1_555 1_555
H33 C64 1_555 1_555
H34 C64 1_555 1_555
C65 C20 1_555 1_555
H35 C65 1_555 1_555
C66 O10 1_555 1_555
C67 N9 1_555 1_555
H36 C67 1_555 1_555
H37 C67 1_555 1_555
C68 C53 1_555 1_555
H38 C68 1_555 1_555
C69 N10 1_555 1_555
C70 C46 1_555 1_555
H39 C70 1_555 1_555
C71 H40 1_555 1_555
C72 C13 1_555 1_555
H41 C72 1_555 1_555
C73 C54 1_555 1_555
H42 C73 1_555 1_555
C74 H43 1_555 1_555
C75 C48 1_555 1_555
H44 C75 1_555 1_555
C76 C19 1_555 1_555
H45 C76 1_555 1_555
C77 C7 1_555 1_555
H46 C77 1_555 1_555
C78 C42 1_555 1_555
C79 C15 1_555 1_555
H47 C79 1_555 1_555
C80 N11 1_555 1_555
H48 C80 1_555 1_555
H49 C80 1_555 1_555
C81 C28 1_555 1_555
C82 N9 1_555 1_555
C83 C32 1_555 1_555
H50 C83 1_555 1_555
C84 H51 1_555 1_555
C85 C11 1_555 1_555
H52 C85 1_555 1_555
C86 C63 1_555 1_555
H53 C86 1_555 1_555
C87 N11 1_555 1_555
C88 C10 1_555 1_555
H54 C88 1_555 1_555
C89 C73 1_555 1_555
H55 C89 1_555 1_555
C90 C2 1_555 1_555
C91 C37 1_555 1_555
H56 C91 1_555 1_555
C92 C23 1_555 1_555
H57 C92 1_555 1_555
C93 O4 1_555 1_555
C94 C88 1_555 1_555
H58 C94 1_555 1_555
C95 H59 1_555 1_555
H60 C95 1_555 1_555
C96 N7 1_555 1_555
H61 C96 1_555 1_555
C97 C38 1_555 1_555
H62 C97 1_555 1_555
C98 N5 1_555 1_555
H63 C98 1_555 1_555
C99 O5 1_555 1_555
C100 C81 1_555 1_555
H64 C100 1_555 1_555
C101 C11 1_555 1_555
H65 C101 1_555 1_555
C102 C9 1_555 1_555
H66 C102 1_555 1_555
C103 C58 1_555 1_555
H67 C103 1_555 1_555
C104 C93 1_555 1_555
H68 C104 1_555 1_555
H69 C104 1_555 1_555
C105 C48 1_555 1_555
H70 C105 1_555 1_555
C106 H71 1_555 1_555
C107 O6 1_555 1_555
C108 C65 1_555 1_555
H72 C108 1_555 1_555
C109 C59 1_555 1_555
H73 C109 1_555 1_555
C110 C92 1_555 1_555
H74 C110 1_555 1_555
C111 C35 1_555 1_555
H75 C111 1_555 1_555
C112 C90 1_555 1_555
H76 C112 1_555 1_555
C113 C107 1_555 1_555
H77 C113 1_555 1_555
H78 C113 1_555 1_555
C114 C45 1_555 1_555
H79 C114 1_555 1_555
H80 C114 1_555 1_555
C115 C38 1_555 1_555
H81 C115 1_555 1_555
C116 C81 1_555 1_555
H82 C116 1_555 1_555
C117 C102 1_555 1_555
H83 C117 1_555 1_555
C118 C95 1_555 1_555
H84 C118 1_555 1_555
H85 C118 1_555 1_555
C119 C126 1_555 1_555
C120 H86 1_555 1_555
C121 C74 1_555 1_555
H87 C121 1_555 1_555
C122 C104 1_555 1_555
H88 C122 1_555 1_555
H89 C122 1_555 1_555
C123 C113 1_555 1_555
H90 C123 1_555 1_555
H91 C123 1_555 1_555
C124 C111 1_555 1_555
H92 C124 1_555 1_555
C125 C64 1_555 1_555
H93 C125 1_555 1_555
C126 C120 1_555 1_555
H94 C126 1_555 1_555
H95 C126 1_555 1_555
Cu3_2 O14 1_555 1_555
O14_2 Cu3 1_555 1_555
O20_2 Cu3 1_555 1_555
O20 Cu3_2 1_555 1_555
C13 C51 1_555 1_555
C14 C19 1_555 1_555
C14 C30 1_555 1_555
C23 C61 1_555 1_555
C24 C34 1_555 1_555
C35 C69 1_555 1_555
C37 C54 1_555 1_555
C40 C80 1_555 1_555
C40 C83 1_555 1_555
C41 C60 1_555 1_555
C41 C67 1_555 1_555
C44 C55 1_555 1_555
C45 C66 1_555 1_555
C49 C52 1_555 1_555
C52 C57 1_555 1_555
C56 C77 1_555 1_555
C59 C87 1_555 1_555
C62 C91 1_555 1_555
C68 C103 1_555 1_555
C70 C75 1_555 1_555
C71 C85 1_555 1_555
C72 C86 1_555 1_555
C76 C96 1_555 1_555
C79 C89 1_555 1_555
C84 C90 1_555 1_555
C84 C108 1_555 1_555
C94 C97 1_555 1_555
C95 C99 1_555 1_555
C98 C101 1_555 1_555
C100 C121 1_555 1_555
C105 C117 1_555 1_555
C106 C109 1_555 1_555
C106 C116 1_555 1_555
C110 C115 1_555 1_555
C112 C124 1_555 1_555
C114 C122 1_555 1_555
C118 C123 1_555 1_555
C120 C125 1_555 1_555

#END
