
#######################################################################
#
#                 Cambridge Crystallographic Data Centre
#                                CCDC 
#
#######################################################################
#
# If this CIF has been generated from an entry in the Cambridge 
# Structural Database, then it will include bibliographic, chemical, 
# crystal, experimental, refinement or atomic coordinate data resulting 
# from the CCDC's data processing and validation procedures.
#
#######################################################################

data_HUBJUK
_symmetry_cell_setting           monoclinic
_symmetry_space_group_name_H-M   'C 2/c'
_symmetry_Int_Tables_number      15
_space_group_name_Hall           '-C 2yn'
loop_
_symmetry_equiv_pos_site_id
_symmetry_equiv_pos_as_xyz
1 x,y,z
2 -x,y,1/2-z
3 1/2+x,1/2+y,z
4 1/2-x,1/2+y,1/2-z
5 -x,-y,-z
6 x,-y,1/2+z
7 1/2-x,1/2-y,-z
8 1/2+x,1/2-y,1/2+z
_cell_length_a                   24.5238(9)
_cell_length_b                   6.4965(2)
_cell_length_c                   15.3842(5)
_cell_angle_alpha                90
_cell_angle_beta                 108.4100(10)
_cell_angle_gamma                90
_cell_volume                     2325.55
loop_
_atom_site_label
_atom_site_type_symbol
_atom_site_fract_x
_atom_site_fract_y
_atom_site_fract_z
Mn1 Mn 0.255613(10) 0.27488(3) 0.755656(13)
C1 C 0.28346(7) 0.0064(2) 0.92967(10)
C2 C 0.31925(8) -0.0375(3) 1.02856(11)
H1 H 0.2943 -0.0380 1.0665
H2 H 0.3362 -0.1734 1.0320
C3 C 0.41709(8) 0.0825(3) 1.05489(12)
H3 H 0.4233 -0.0350 1.0248
C4 C 0.35552(7) 0.2849(3) 1.10647(11)
H4 H 0.3194 0.3068 1.1125
C5 C 0.39792(7) 0.4270(3) 1.14030(11)
H5 H 0.3904 0.5444 1.1691
C6 C 0.46061(8) 0.2200(3) 1.08843(13)
H6 H 0.4964 0.1943 1.0819
C7 C 0.45204(7) 0.3983(3) 1.13219(10)
C8 C 0.50013(8) 0.5502(3) 1.16673(13)
H7 H 0.4989 0.6449 1.1174
H8 H 0.5362 0.4760 1.1815
C9 C 0.5000 0.6751(5) 1.2500
N1 N 0.36524(6) 0.1149(2) 1.06490(8)
N2 N 0.31000(6) 0.01400(18) 0.74002(9)
N3 N 0.36036(6) 0.0095(2) 0.77902(11)
N4 N 0.40879(8) 0.0038(3) 0.81538(19)
N5 N 0.18420(6) 0.03618(19) 0.70720(9)
N6 N 0.14724(6) 0.0658(2) 0.63558(9)
N7 N 0.11136(7) 0.0978(3) 0.56761(11)
O1 O 0.28108(5) 0.18728(17) 0.90103(7)
O2 O 0.25860(5) -0.14735(17) 0.88706(7)
H9 H 0.5349(8) 0.763(3) 1.2674(13)
Mn1A Mn 0.744387(10) 0.27488(3) 1.744344(13)
Mn1B Mn 0.755613(10) -0.22512(3) 1.755656(13)
Mn1C Mn 0.244387(10) -0.22512(3) 0.744344(13)
C1A C 0.71654(7) 0.0064(2) 1.57033(10)
C2A C 0.68075(8) -0.0375(3) 1.47144(11)
H1A H 0.7057 -0.0380 1.4335
H2A H 0.6638 -0.1734 1.4680
C3A C 0.58291(8) 0.0825(3) 1.44511(12)
H3A H 0.5767 -0.0350 1.4752
C4A C 0.64448(7) 0.2849(3) 1.39353(11)
H4A H 0.6806 0.3068 1.3875
C5A C 0.60208(7) 0.4270(3) 1.35970(11)
H5A H 0.6096 0.5444 1.3309
C6A C 0.53939(8) 0.2200(3) 1.41157(13)
H6A H 0.5036 0.1943 1.4181
C7A C 0.54796(7) 0.3983(3) 1.36781(10)
C8A C 0.49987(8) 0.5502(3) 1.33327(13)
H7A H 0.5011 0.6449 1.3826
H8A H 0.4638 0.4760 1.3185
N1A N 0.63476(6) 0.1149(2) 1.43510(8)
N2A N 0.69000(6) 0.01400(18) 1.75998(9)
N2B N 0.81000(6) 0.51400(18) 1.74002(9)
N2C N 0.19000(6) 0.51400(18) 0.75998(9)
N3A N 0.63964(6) 0.0095(2) 1.72098(11)
N4A N 0.59121(8) 0.0038(3) 1.68462(19)
N5A N 0.81580(6) 0.03618(19) 1.79280(9)
N5B N 0.68420(6) 0.53618(19) 1.70720(9)
N5C N 0.31580(6) 0.53618(19) 0.79280(9)
N6A N 0.85276(6) 0.0658(2) 1.86442(9)
N7A N 0.88864(7) 0.0978(3) 1.93239(11)
O1A O 0.71892(5) 0.18728(17) 1.59897(7)
O2A O 0.74140(5) -0.14735(17) 1.61294(7)
O2B O 0.75860(5) 0.35265(17) 1.88706(7)
O2C O 0.24140(5) 0.35265(17) 0.61294(7)
H9A H 0.4651(8) 0.763(3) 1.2326(13)
loop_
_geom_bond_atom_site_label_1
_geom_bond_atom_site_label_2
_geom_bond_site_symmetry_1
_geom_bond_site_symmetry_2
Mn1 N2 1_555 1_555
C1 C2 1_555 1_555
C2 H1 1_555 1_555
H2 C2 1_555 1_555
C3 H3 1_555 1_555
C4 H4 1_555 1_555
C5 C4 1_555 1_555
H5 C5 1_555 1_555
C6 C3 1_555 1_555
H6 C6 1_555 1_555
C7 C5 1_555 1_555
C8 C7 1_555 1_555
H7 C8 1_555 1_555
H8 C8 1_555 1_555
C9 C8 1_555 1_555
N1 C2 1_555 1_555
N2 N3 1_555 1_555
N3 N4 1_555 1_555
N5 Mn1 1_555 1_555
N6 N5 1_555 1_555
N7 N6 1_555 1_555
O1 Mn1 1_555 1_555
O2 C1 1_555 1_555
H9 C9 1_555 1_555
Mn1A N2A 1_555 1_555
Mn1B N2A 1_555 1_555
Mn1C N2 1_555 1_555
C1A C2A 1_555 1_555
C2A H1A 1_555 1_555
H2A C2A 1_555 1_555
C3A H3A 1_555 1_555
C4A H4A 1_555 1_555
C5A C4A 1_555 1_555
H5A C5A 1_555 1_555
C6A C3A 1_555 1_555
H6A C6A 1_555 1_555
C7A C5A 1_555 1_555
C8A C9 1_555 1_555
H7A C8A 1_555 1_555
H8A C8A 1_555 1_555
N1A C2A 1_555 1_555
N2A N3A 1_555 1_555
N2B Mn1A 1_555 1_555
N2C Mn1 1_555 1_555
N3A N4A 1_555 1_555
N5A Mn1A 1_555 1_555
N5B Mn1A 1_555 1_555
N5C Mn1 1_555 1_555
N6A N5A 1_555 1_555
N7A N6A 1_555 1_555
O1A Mn1A 1_555 1_555
O2A Mn1B 1_555 1_555
O2B Mn1A 1_555 1_555
O2C Mn1 1_555 1_555
H9A C9 1_555 1_555
C1 O1 1_555 1_555
C3 N1 1_555 1_555
C4 N1 1_555 1_555
C6 C7 1_555 1_555
N5 Mn1C 1_555 1_555
O2 Mn1C 1_555 1_555
Mn1B N5A 1_555 1_555
C1A O1A 1_555 1_555
C1A O2A 1_555 1_555
C3A N1A 1_555 1_555
C4A N1A 1_555 1_555
C6A C7A 1_555 1_555
C7A C8A 1_555 1_555

#END
