
#######################################################################
#
#                 Cambridge Crystallographic Data Centre
#                                CCDC 
#
#######################################################################
#
# If this CIF has been generated from an entry in the Cambridge 
# Structural Database, then it will include bibliographic, chemical, 
# crystal, experimental, refinement or atomic coordinate data resulting 
# from the CCDC's data processing and validation procedures.
#
#######################################################################

data_HUBQIE
_symmetry_cell_setting           monoclinic
_symmetry_space_group_name_H-M   'P 21/n'
_symmetry_Int_Tables_number      14
_space_group_name_Hall           '-P 2yn'
loop_
_symmetry_equiv_pos_site_id
_symmetry_equiv_pos_as_xyz
1 x,y,z
2 1/2+x,1/2-y,1/2+z
3 -x,-y,-z
4 1/2-x,1/2+y,1/2-z
_cell_length_a                   8.8230(10)
_cell_length_b                   13.977(3)
_cell_length_c                   8.9430(10)
_cell_angle_alpha                90.000(10)
_cell_angle_beta                 116.950(10)
_cell_angle_gamma                90.000(10)
_cell_volume                     983.076
loop_
_atom_site_label
_atom_site_type_symbol
_atom_site_fract_x
_atom_site_fract_y
_atom_site_fract_z
Co1 Co 0.5000 0.0000 0.0000
Cl1 Cl 0.48873(8) 0.11041(4) 0.20590(7)
O1 O -0.1403(2) -0.11909(11) -0.4251(2)
N1 N 0.2304(2) 0.02285(13) -0.1570(2)
N2 N -0.0481(2) -0.37263(13) -0.3669(2)
C1 C 0.1557(3) 0.10852(17) -0.1773(3)
H1 H 0.2223 0.1608 -0.1209
C2 C -0.0153(3) 0.12261(18) -0.2783(4)
H2 H -0.0620 0.1835 -0.2901
C3 C -0.1167(3) 0.04601(18) -0.3617(3)
H3 H -0.2323 0.0539 -0.4315
C4 C -0.0414(3) -0.04232(17) -0.3384(3)
C5 C 0.1313(3) -0.05133(17) -0.2384(3)
H4 H 0.1809 -0.1113 -0.2272
C6 C -0.0834(3) -0.28394(17) -0.4326(3)
H5 H -0.0975 -0.2743 -0.5411
C7 C -0.0994(3) -0.20705(16) -0.3448(3)
C8 C -0.0809(3) -0.21890(19) -0.1841(3)
H6 H -0.0941 -0.1678 -0.1245
C9 C -0.0426(3) -0.30859(19) -0.1159(3)
H7 H -0.0269 -0.3194 -0.0072
C10 C -0.0273(3) -0.38336(17) -0.2106(3)
H8 H -0.0013 -0.4439 -0.1625
Cl1B Cl 0.51127(8) -0.11041(4) -0.20590(7)
O1B O 1.1403(2) 0.11909(11) 0.4251(2)
N1B N 0.7696(2) -0.02285(13) 0.1570(2)
N2B N 1.0481(2) 0.37263(13) 0.3669(2)
C1B C 0.8443(3) -0.10852(17) 0.1773(3)
H1B H 0.7777 -0.1608 0.1209
C2B C 1.0153(3) -0.12261(18) 0.2783(4)
H2B H 1.0620 -0.1835 0.2901
C3B C 1.1167(3) -0.04601(18) 0.3617(3)
H3B H 1.2323 -0.0539 0.4315
C4B C 1.0414(3) 0.04232(17) 0.3384(3)
C5B C 0.8687(3) 0.05133(17) 0.2384(3)
H4B H 0.8191 0.1113 0.2272
C6B C 1.0834(3) 0.28394(17) 0.4326(3)
H5B H 1.0975 0.2743 0.5411
C7B C 1.0994(3) 0.20705(16) 0.3448(3)
C8B C 1.0809(3) 0.21890(19) 0.1841(3)
H6B H 1.0941 0.1678 0.1245
C9B C 1.0426(3) 0.30859(19) 0.1159(3)
H7B H 1.0269 0.3194 0.0072
C10B C 1.0273(3) 0.38336(17) 0.2106(3)
H8B H 1.0013 0.4439 0.1625
N2A N 0.4519(2) -0.12737(13) 0.1331(2)
N2C N 0.5481(2) 0.12737(13) -0.1331(2)
Co1A Co 0.0000 -0.5000 -0.5000
Co1A_2 Co 1.0000 0.5000 0.5000
loop_
_geom_bond_atom_site_label_1
_geom_bond_atom_site_label_2
_geom_bond_site_symmetry_1
_geom_bond_site_symmetry_2
Co1 Cl1 1_555 1_555
O1 C4 1_555 1_555
N1 Co1 1_555 1_555
N2 C6 1_555 1_555
C1 N1 1_555 1_555
H1 C1 1_555 1_555
C2 C1 1_555 1_555
H2 C2 1_555 1_555
C3 C2 1_555 1_555
H3 C3 1_555 1_555
C4 C3 1_555 1_555
C5 N1 1_555 1_555
H4 C5 1_555 1_555
C6 H5 1_555 1_555
C7 O1 1_555 1_555
C8 C7 1_555 1_555
H6 C8 1_555 1_555
C9 C8 1_555 1_555
H7 C9 1_555 1_555
C10 N2 1_555 1_555
H8 C10 1_555 1_555
Cl1B Co1 1_555 1_555
O1B C4B 1_555 1_555
N1B Co1 1_555 1_555
N2B C6B 1_555 1_555
C1B N1B 1_555 1_555
H1B C1B 1_555 1_555
C2B C1B 1_555 1_555
H2B C2B 1_555 1_555
C3B C2B 1_555 1_555
H3B C3B 1_555 1_555
C4B C3B 1_555 1_555
C5B N1B 1_555 1_555
H4B C5B 1_555 1_555
C6B H5B 1_555 1_555
C7B O1B 1_555 1_555
C8B C7B 1_555 1_555
H6B C8B 1_555 1_555
C9B C8B 1_555 1_555
H7B C9B 1_555 1_555
C10B N2B 1_555 1_555
H8B C10B 1_555 1_555
N2A Co1 1_555 1_555
N2C Co1 1_555 1_555
Co1A N2 1_555 1_555
Co1A_2 N2B 1_555 1_555
C4 C5 1_555 1_555
C6 C7 1_555 1_555
C9 C10 1_555 1_555
C4B C5B 1_555 1_555
C6B C7B 1_555 1_555
C9B C10B 1_555 1_555

#END
