
#######################################################################
#
#                 Cambridge Crystallographic Data Centre
#                                CCDC 
#
#######################################################################
#
# If this CIF has been generated from an entry in the Cambridge 
# Structural Database, then it will include bibliographic, chemical, 
# crystal, experimental, refinement or atomic coordinate data resulting 
# from the CCDC's data processing and validation procedures.
#
#######################################################################

data_HUBSUU
_symmetry_cell_setting           monoclinic
_symmetry_space_group_name_H-M   'P 21/n'
_symmetry_Int_Tables_number      14
_space_group_name_Hall           '-P 2yn'
loop_
_symmetry_equiv_pos_site_id
_symmetry_equiv_pos_as_xyz
1 x,y,z
2 1/2-x,1/2+y,1/2-z
3 -x,-y,-z
4 1/2+x,1/2-y,1/2+z
_cell_length_a                   7.4542(14)
_cell_length_b                   14.572(3)
_cell_length_c                   11.632(2)
_cell_angle_alpha                90
_cell_angle_beta                 103.675(3)
_cell_angle_gamma                90
_cell_volume                     1227.68
loop_
_atom_site_label
_atom_site_type_symbol
_atom_site_fract_x
_atom_site_fract_y
_atom_site_fract_z
Mn1 Mn 0.0000 0.5000 0.0000
S1 S 0.62082(9) 0.62414(5) 0.48397(5)
O1 O 0.2337(3) 0.41824(14) -0.02913(16)
O2 O 0.2356(3) 0.27007(13) -0.00904(17)
O3 O 0.4065(3) 0.35381(14) 0.12733(18)
N1 N 0.2154(3) 0.59634(15) 0.10497(18)
N2 N 0.4525(3) 0.63152(14) 0.25151(18)
N3 N 0.9512(3) 0.60807(14) 0.64182(17)
N4 N 1.0079(3) 0.57133(14) 0.83176(17)
N5 N 0.2918(3) 0.34748(15) 0.02797(19)
C1 C 0.3869(4) 0.57455(19) 0.1578(2)
H1 H 0.4551 0.5260 0.1340
C2 C 0.1694(4) 0.67036(18) 0.1670(2)
H2 H 0.0538 0.7012 0.1486
C3 C 0.3126(4) 0.69223(19) 0.2572(2)
H3 H 0.3165 0.7399 0.3135
C4 C 0.6232(4) 0.62497(17) 0.3355(2)
C5 C 0.7951(4) 0.61837(18) 0.3170(2)
H4 H 0.8211 0.6183 0.2409
C6 C 0.9327(4) 0.61156(18) 0.4250(2)
H5 H 1.0612 0.6067 0.4294
C7 C 0.8588(4) 0.61282(17) 0.5206(2)
C8 C 0.8886(4) 0.56488(17) 0.7279(2)
H6 H 0.7734 0.5339 0.7153
C9 C 1.1233(4) 0.64349(18) 0.6937(2)
H7 H 1.2027 0.6768 0.6559
C10 C 1.1553(4) 0.62097(18) 0.8097(2)
H8 H 1.2634 0.6369 0.8679
S1B S -0.62082(9) 0.37586(5) -0.48397(5)
O1B O -0.2337(3) 0.58176(14) 0.02913(16)
O2B O -0.2356(3) 0.72993(13) 0.00904(17)
O3B O -0.4065(3) 0.64619(14) -0.12733(18)
N1B N -0.2154(3) 0.40366(15) -0.10497(18)
N2B N -0.4525(3) 0.36848(14) -0.25151(18)
N3B N -0.9512(3) 0.39193(14) -0.64182(17)
N4B N -1.0079(3) 0.42867(14) -0.83176(17)
N5B N -0.2918(3) 0.65252(15) -0.02797(19)
C1B C -0.3869(4) 0.42545(19) -0.1578(2)
H1B H -0.4551 0.4740 -0.1340
C2B C -0.1694(4) 0.32964(18) -0.1670(2)
H2B H -0.0538 0.2988 -0.1486
C3B C -0.3126(4) 0.30777(19) -0.2572(2)
H3B H -0.3165 0.2601 -0.3135
C4B C -0.6232(4) 0.37503(17) -0.3355(2)
C5B C -0.7951(4) 0.38163(18) -0.3170(2)
H4B H -0.8211 0.3817 -0.2409
C6B C -0.9327(4) 0.38844(18) -0.4250(2)
H5B H -1.0612 0.3933 -0.4294
C7B C -0.8588(4) 0.38718(17) -0.5206(2)
C8B C -0.8886(4) 0.43512(17) -0.7279(2)
H6B H -0.7734 0.4661 -0.7153
C9B C -1.1233(4) 0.35651(18) -0.6937(2)
H7B H -1.2027 0.3232 -0.6559
C10B C -1.1553(4) 0.37903(18) -0.8097(2)
H8B H -1.2634 0.3631 -0.8679
Mn1_2 Mn -1.0000 0.5000 -1.0000
Mn1_3 Mn 1.0000 0.5000 1.0000
N4_2 N 0.0079(3) 0.57133(14) -0.16824(17)
N4B_2 N -0.0079(3) 0.42867(14) 0.16824(17)
loop_
_geom_bond_atom_site_label_1
_geom_bond_atom_site_label_2
_geom_bond_site_symmetry_1
_geom_bond_site_symmetry_2
Mn1 O1 1_555 1_555
S1 C4 1_555 1_555
O1 N5 1_555 1_555
O2 N5 1_555 1_555
O3 N5 1_555 1_555
N1 Mn1 1_555 1_555
N2 C1 1_555 1_555
N3 C7 1_555 1_555
N4 C8 1_555 1_555
C1 N1 1_555 1_555
H1 C1 1_555 1_555
C2 N1 1_555 1_555
H2 C2 1_555 1_555
C3 N2 1_555 1_555
H3 C3 1_555 1_555
C4 N2 1_555 1_555
C5 C4 1_555 1_555
H4 C5 1_555 1_555
C6 C5 1_555 1_555
H5 C6 1_555 1_555
C7 S1 1_555 1_555
C8 N3 1_555 1_555
H6 C8 1_555 1_555
C9 N3 1_555 1_555
H7 C9 1_555 1_555
C10 N4 1_555 1_555
H8 C10 1_555 1_555
S1B C4B 1_555 1_555
O1B Mn1 1_555 1_555
O2B N5B 1_555 1_555
O3B N5B 1_555 1_555
N1B Mn1 1_555 1_555
N2B C1B 1_555 1_555
N3B C7B 1_555 1_555
N4B C8B 1_555 1_555
N5B O1B 1_555 1_555
C1B N1B 1_555 1_555
H1B C1B 1_555 1_555
C2B N1B 1_555 1_555
H2B C2B 1_555 1_555
C3B N2B 1_555 1_555
H3B C3B 1_555 1_555
C4B N2B 1_555 1_555
C5B C4B 1_555 1_555
H4B C5B 1_555 1_555
C6B C5B 1_555 1_555
H5B C6B 1_555 1_555
C7B S1B 1_555 1_555
C8B N3B 1_555 1_555
H6B C8B 1_555 1_555
C9B N3B 1_555 1_555
H7B C9B 1_555 1_555
C10B N4B 1_555 1_555
H8B C10B 1_555 1_555
Mn1_2 N4B 1_555 1_555
Mn1_3 N4 1_555 1_555
N4_2 Mn1 1_555 1_555
N4B_2 Mn1 1_555 1_555
C2 C3 1_555 1_555
C6 C7 1_555 1_555
C9 C10 1_555 1_555
C2B C3B 1_555 1_555
C6B C7B 1_555 1_555
C9B C10B 1_555 1_555

#END
