
#######################################################################
#
#                 Cambridge Crystallographic Data Centre
#                                CCDC 
#
#######################################################################
#
# If this CIF has been generated from an entry in the Cambridge 
# Structural Database, then it will include bibliographic, chemical, 
# crystal, experimental, refinement or atomic coordinate data resulting 
# from the CCDC's data processing and validation procedures.
#
#######################################################################

data_HUBTAB
_symmetry_cell_setting           monoclinic
_symmetry_space_group_name_H-M   'P 21/n'
_symmetry_Int_Tables_number      14
_space_group_name_Hall           '-P 2yn'
loop_
_symmetry_equiv_pos_site_id
_symmetry_equiv_pos_as_xyz
1 x,y,z
2 1/2-x,1/2+y,1/2-z
3 -x,-y,-z
4 1/2+x,1/2-y,1/2+z
_cell_length_a                   7.5625(14)
_cell_length_b                   15.768(3)
_cell_length_c                   22.103(4)
_cell_angle_alpha                90
_cell_angle_beta                 93.242(4)
_cell_angle_gamma                90
_cell_volume                     2631.47
loop_
_atom_site_label
_atom_site_type_symbol
_atom_site_fract_x
_atom_site_fract_y
_atom_site_fract_z
Mn1 Mn 0.48789(5) 0.24630(2) 0.242144(18)
S1 S 0.24090(9) 0.12026(4) 0.49513(3)
S2 S 0.21628(10) 0.36793(4) 0.49125(3)
O1 O 0.7280(3) 0.24693(11) 0.29565(9)
O2 O 0.7766(3) 0.32880(12) 0.37653(8)
O3 O 0.2506(3) 0.23406(12) 0.18546(9)
O4 O 0.2704(3) 0.24676(10) 0.08551(9)
N1 N 0.3864(3) 0.14233(13) 0.30393(9)
N2 N 0.3067(3) 0.06684(13) 0.38198(9)
N3 N 0.1871(3) 0.06910(13) 0.60937(9)
N4 N 0.0975(3) 0.14750(13) 0.68436(9)
N5 N 0.3389(3) 0.34286(13) 0.29604(9)
N6 N 0.2501(3) 0.41453(13) 0.37453(9)
N7 N 0.2044(3) 0.42427(13) 0.60627(9)
N8 N 0.1199(3) 0.35352(13) 0.68574(9)
C1 C 0.3984(3) 0.13523(15) 0.36363(11)
H1 H 0.4627 0.1730 0.3901
C2 C 0.2837(4) 0.07494(16) 0.28325(12)
H2 H 0.2527 0.0633 0.2418
C3 C 0.2333(4) 0.02772(16) 0.33055(11)
H3 H 0.1623 -0.0220 0.3287
C4 C 0.2810(3) 0.04272(16) 0.44243(11)
C5 C 0.2782(3) -0.03676(16) 0.46608(11)
H4 H 0.2997 -0.0868 0.4437
C6 C 0.2393(4) -0.03638(16) 0.52831(11)
H5 H 0.2306 -0.0861 0.5522
C7 C 0.2163(3) 0.04280(16) 0.54944(11)
C8 C 0.0868(3) 0.13611(15) 0.62584(11)
H6 H 0.0176 0.1703 0.5981
C9 C 0.2664(4) 0.03592(17) 0.66221(11)
H7 H 0.3443 -0.0113 0.6658
C10 C 0.2101(4) 0.08480(16) 0.70770(12)
H8 H 0.2430 0.0772 0.7495
C11 C 0.3794(4) 0.36489(16) 0.35252(11)
H9 H 0.4846 0.3484 0.3750
C12 C 0.1752(4) 0.37883(16) 0.28113(11)
H10 H 0.1122 0.3737 0.2429
C13 C 0.1182(4) 0.42236(17) 0.32905(11)
H11 H 0.0096 0.4522 0.3310
C14 C 0.2448(3) 0.44245(16) 0.43557(11)
C15 C 0.2571(4) 0.52255(16) 0.45763(11)
H12 H 0.2747 0.5712 0.4333
C16 C 0.2405(4) 0.52553(17) 0.52158(11)
H13 H 0.2448 0.5762 0.5449
C17 C 0.2180(3) 0.44759(16) 0.54477(11)
C18 C 0.0901(4) 0.36610(16) 0.62738(11)
H14 H 0.0003 0.3382 0.6030
C19 C 0.3140(4) 0.44967(17) 0.65481(11)
H15 H 0.4076 0.4898 0.6544
C20 C 0.2611(4) 0.40575(16) 0.70317(12)
H16 H 0.3131 0.4101 0.7432
C21 C 0.8144(4) 0.26757(16) 0.34310(12)
C22 C 0.9776(4) 0.2160(2) 0.36030(13)
H17 H 0.9434 0.1572 0.3680
H18 H 1.0374 0.2398 0.3969
H19 H 1.0582 0.2174 0.3271
C23 C 0.1839(4) 0.24556(14) 0.13255(13)
C24 C -0.0135(4) 0.26070(17) 0.12577(14)
H20 H -0.0690 0.2403 0.1620
H21 H -0.0631 0.2301 0.0902
H22 H -0.0364 0.3215 0.1207
Mn1C Mn -0.01211(5) 0.25370(2) 0.742144(18)
N4C N 0.5975(3) 0.35250(13) 0.18436(9)
N8C N 0.6199(3) 0.14648(13) 0.18574(9)
O5 O 0.1245(3) 0.26325(14) 0.96857(10)
H23 H 0.187(5) 0.232(2) 0.9468(16)
H24 H 0.159(5) 0.255(2) 1.0054(10)
loop_
_geom_bond_atom_site_label_1
_geom_bond_atom_site_label_2
_geom_bond_site_symmetry_1
_geom_bond_site_symmetry_2
Mn1 O1 1_555 1_555
S1 C4 1_555 1_555
S2 C14 1_555 1_555
O1 C21 1_555 1_555
O2 C21 1_555 1_555
O3 Mn1 1_555 1_555
O4 C23 1_555 1_555
N1 Mn1 1_555 1_555
N2 C1 1_555 1_555
N3 C7 1_555 1_555
N4 C8 1_555 1_555
N5 Mn1 1_555 1_555
N6 C11 1_555 1_555
N7 C17 1_555 1_555
N8 C18 1_555 1_555
C1 N1 1_555 1_555
H1 C1 1_555 1_555
C2 N1 1_555 1_555
H2 C2 1_555 1_555
C3 N2 1_555 1_555
H3 C3 1_555 1_555
C4 N2 1_555 1_555
C5 C4 1_555 1_555
H4 C5 1_555 1_555
C6 C5 1_555 1_555
H5 C6 1_555 1_555
C7 S1 1_555 1_555
C8 N3 1_555 1_555
H6 C8 1_555 1_555
C9 N3 1_555 1_555
H7 C9 1_555 1_555
C10 N4 1_555 1_555
H8 C10 1_555 1_555
C11 N5 1_555 1_555
H9 C11 1_555 1_555
C12 N5 1_555 1_555
H10 C12 1_555 1_555
C13 N6 1_555 1_555
H11 C13 1_555 1_555
C14 N6 1_555 1_555
C15 C14 1_555 1_555
H12 C15 1_555 1_555
C16 C15 1_555 1_555
H13 C16 1_555 1_555
C17 S2 1_555 1_555
C18 N7 1_555 1_555
H14 C18 1_555 1_555
C19 N7 1_555 1_555
H15 C19 1_555 1_555
C20 N8 1_555 1_555
H16 C20 1_555 1_555
C21 C22 1_555 1_555
C22 H17 1_555 1_555
H18 C22 1_555 1_555
H19 C22 1_555 1_555
C23 O3 1_555 1_555
C24 C23 1_555 1_555
H20 C24 1_555 1_555
H21 C24 1_555 1_555
H22 C24 1_555 1_555
O5 H23 1_555 1_555
H24 O5 1_555 1_555
Mn1C N4 1_555 1_555
N4C Mn1 1_555 1_555
N8C Mn1 1_555 1_555
N8 Mn1C 1_555 1_555
C2 C3 1_555 1_555
C6 C7 1_555 1_555
C9 C10 1_555 1_555
C12 C13 1_555 1_555
C16 C17 1_555 1_555
C19 C20 1_555 1_555

#END
