
#######################################################################
#
#                 Cambridge Crystallographic Data Centre
#                                CCDC 
#
#######################################################################
#
# If this CIF has been generated from an entry in the Cambridge 
# Structural Database, then it will include bibliographic, chemical, 
# crystal, experimental, refinement or atomic coordinate data resulting 
# from the CCDC's data processing and validation procedures.
#
#######################################################################

data_HUCBOY
_symmetry_cell_setting           monoclinic
_symmetry_space_group_name_H-M   'P 21/n'
_symmetry_Int_Tables_number      14
_space_group_name_Hall           '-P 2yn'
loop_
_symmetry_equiv_pos_site_id
_symmetry_equiv_pos_as_xyz
1 x,y,z
2 1/2-x,1/2+y,1/2-z
3 -x,-y,-z
4 1/2+x,1/2-y,1/2+z
_cell_length_a                   10.1798(4)
_cell_length_b                   14.1930(6)
_cell_length_c                   17.2866(7)
_cell_angle_alpha                90
_cell_angle_beta                 92.4570(10)
_cell_angle_gamma                90
_cell_volume                     2495.3
loop_
_atom_site_label
_atom_site_type_symbol
_atom_site_fract_x
_atom_site_fract_y
_atom_site_fract_z
Co1 Co -0.094021(19) 0.089529(13) 0.068413(11)
O1 O -0.02527(12) -0.04482(7) 0.08792(7)
N1 N -0.25752(13) 0.03009(9) -0.00121(8)
C1 C -0.30582(16) 0.06756(11) -0.06810(10)
H1 H -0.2761 0.1267 -0.0826
O2 O 0.04213(12) -0.16844(8) 0.02389(6)
N2 N -0.92194(12) -0.85424(9) 0.12945(8)
C2 C -0.39703(18) 0.02241(13) -0.11587(11)
H2 H -0.4285 0.0511 -0.1614
O3 O -0.27537(13) -0.30089(9) 0.38755(6)
N3 N -0.53705(14) -0.24279(9) -0.01514(9)
H3 H -0.5937 -0.2104 -0.0422
C3 C -0.44192(17) -0.06636(13) -0.09569(11)
H4 H -0.5039 -0.0979 -0.1271
O4 O -0.32102(14) -0.42152(8) 0.31492(8)
N4 N -0.70354(14) -0.60020(9) 0.08164(8)
H5 H -0.7196 -0.6402 0.0451
C4 C -0.39219(15) -0.10653(11) -0.02782(9)
C5 C -0.30174(15) -0.05521(11) 0.01757(9)
H6 H -0.2701 -0.0819 0.0638
O5 O -0.32787(12) -0.24741(8) 0.03457(8)
O6 O -0.70439(18) -0.58078(9) 0.21205(8)
C6 C -0.41743(16) -0.20493(11) -0.00035(10)
C7 C -0.57546(16) -0.33363(11) 0.01146(10)
C8 C -0.5379(2) -0.36632(13) 0.08433(11)
H7 H -0.4856 -0.3289 0.1174
C9 C -0.57766(19) -0.45444(13) 0.10856(11)
H8 H -0.5510 -0.4764 0.1574
C10 C -0.65718(15) -0.50983(11) 0.05996(9)
C11 C -0.69304(18) -0.47755(12) -0.01290(11)
H9 H -0.7448 -0.5150 -0.0462
C12 C -0.65264(19) -0.38985(13) -0.03686(12)
H10 H -0.6778 -0.3685 -0.0862
C13 C -0.72450(17) -0.62877(11) 0.15441(10)
C14 C -0.77519(16) -0.72749(11) 0.16331(9)
C15 C -0.72367(18) -0.77883(12) 0.22594(11)
H11 H -0.6596 -0.7528 0.2594
C16 C -0.76914(19) -0.86893(13) 0.23757(11)
H12 H -0.7333 -0.9059 0.2776
C17 C -0.86852(17) -0.90334(11) 0.18899(10)
H13 H -0.9001 -0.9637 0.1980
C18 C -0.87343(15) -0.76760(10) 0.11639(9)
H14 H -0.9073 -0.7335 0.0742
C19 C -0.01277(14) -0.13223(10) 0.08030(8)
C20 C -0.06761(14) -0.19531(10) 0.14239(8)
C21 C -0.13503(17) -0.15003(11) 0.19867(9)
H15 H -0.1388 -0.0846 0.1985
C22 C -0.19836(17) -0.20004(11) 0.25648(9)
H16 H -0.2436 -0.1670 0.2934
C23 C -0.19494(15) -0.29629(10) 0.25967(8)
C24 C -0.26785(15) -0.34314(11) 0.32393(9)
C25 C -0.12390(14) -0.34738(10) 0.20379(8)
C26 C -0.11184(16) -0.44705(11) 0.20716(9)
H17 H -0.1535 -0.4801 0.2456
C27 C -0.04025(17) -0.49514(11) 0.15510(10)
H18 H -0.0335 -0.5604 0.1582
C28 C 0.02301(17) -0.44614(12) 0.09705(10)
H19 H 0.0713 -0.4793 0.0616
C29 C 0.01478(16) -0.35020(11) 0.09170(9)
H20 H 0.0581 -0.3194 0.0528
C30 C -0.05846(14) -0.29652(10) 0.14423(8)
Co1_2 Co -1.094021(19) -0.910471(13) 0.068413(11)
Co1A Co -0.405979(19) -0.410471(13) 0.431587(11)
Co1B Co 0.094021(19) -0.089529(13) -0.068413(11)
O2B O -0.04213(12) 0.16844(8) -0.02389(6)
N2_2 N 0.07806(12) 0.14576(9) 0.12945(8)
O3A O -0.22463(13) 0.19911(9) 0.11245(6)
O4A O -0.17898(14) 0.07848(8) 0.18508(8)
loop_
_geom_bond_atom_site_label_1
_geom_bond_atom_site_label_2
_geom_bond_site_symmetry_1
_geom_bond_site_symmetry_2
Co1 O1 1_555 1_555
O1 C19 1_555 1_555
N1 Co1 1_555 1_555
C1 N1 1_555 1_555
H1 C1 1_555 1_555
O2 C19 1_555 1_555
N2 C17 1_555 1_555
C2 C1 1_555 1_555
H2 C2 1_555 1_555
O3 C24 1_555 1_555
N3 H3 1_555 1_555
C3 C2 1_555 1_555
H4 C3 1_555 1_555
O4 C24 1_555 1_555
N4 H5 1_555 1_555
C4 C3 1_555 1_555
C5 N1 1_555 1_555
H6 C5 1_555 1_555
O5 C6 1_555 1_555
O6 C13 1_555 1_555
C6 N3 1_555 1_555
C7 N3 1_555 1_555
C8 C7 1_555 1_555
H7 C8 1_555 1_555
C9 C8 1_555 1_555
H8 C9 1_555 1_555
C10 N4 1_555 1_555
C11 C10 1_555 1_555
H9 C11 1_555 1_555
C12 C7 1_555 1_555
H10 C12 1_555 1_555
C13 N4 1_555 1_555
C14 C13 1_555 1_555
C15 C14 1_555 1_555
H11 C15 1_555 1_555
C16 C15 1_555 1_555
H12 C16 1_555 1_555
C17 C16 1_555 1_555
H13 C17 1_555 1_555
C18 N2 1_555 1_555
H14 C18 1_555 1_555
C19 C20 1_555 1_555
C20 C21 1_555 1_555
C21 H15 1_555 1_555
C22 C21 1_555 1_555
H16 C22 1_555 1_555
C23 C22 1_555 1_555
C24 C23 1_555 1_555
C25 C23 1_555 1_555
C26 C25 1_555 1_555
H17 C26 1_555 1_555
C27 C26 1_555 1_555
H18 C27 1_555 1_555
C28 C27 1_555 1_555
H19 C28 1_555 1_555
C29 C28 1_555 1_555
H20 C29 1_555 1_555
C30 C20 1_555 1_555
Co1_2 N2 1_555 1_555
Co1A O3 1_555 1_555
Co1B O2 1_555 1_555
O2B Co1 1_555 1_555
N2_2 Co1 1_555 1_555
O3A Co1 1_555 1_555
O4A Co1 1_555 1_555
O4 Co1A 1_555 1_555
C4 C5 1_555 1_555
C4 C6 1_555 1_555
C9 C10 1_555 1_555
C11 C12 1_555 1_555
C14 C18 1_555 1_555
C25 C30 1_555 1_555
C29 C30 1_555 1_555

#END
