
#######################################################################
#
#                 Cambridge Crystallographic Data Centre
#                                CCDC 
#
#######################################################################
#
# If this CIF has been generated from an entry in the Cambridge 
# Structural Database, then it will include bibliographic, chemical, 
# crystal, experimental, refinement or atomic coordinate data resulting 
# from the CCDC's data processing and validation procedures.
#
#######################################################################

data_HUCHOE
_symmetry_cell_setting           tetragonal
_symmetry_space_group_name_H-M   'P -4 21 c'
_symmetry_Int_Tables_number      114
_space_group_name_Hall           'P -4 2n'
loop_
_symmetry_equiv_pos_site_id
_symmetry_equiv_pos_as_xyz
1 x,y,z
2 -x,-y,z
3 y,-x,-z
4 -y,x,-z
5 1/2-x,1/2+y,1/2-z
6 1/2+x,1/2-y,1/2-z
7 1/2-y,1/2-x,1/2+z
8 1/2+y,1/2+x,1/2+z
_cell_length_a                   16.7034(5)
_cell_length_b                   16.7034(5)
_cell_length_c                   26.1793(15)
_cell_angle_alpha                90
_cell_angle_beta                 90
_cell_angle_gamma                90
_cell_volume                     7304.12
loop_
_atom_site_label
_atom_site_type_symbol
_atom_site_fract_x
_atom_site_fract_y
_atom_site_fract_z
C1 C 0.1933(8) 0.3864(6) 1.1230(5)
H1 H 0.2341 0.4279 1.1178
H2 H 0.2080 0.3534 1.1525
H3 H 0.1413 0.4117 1.1293
C2 C 0.1861(7) 0.3763(6) 1.0323(4)
C3 C 0.1969(9) 0.4570(7) 1.0275(5)
H4 H 0.2084 0.4897 1.0563
C4 C 0.1903(14) 0.4899(8) 0.9779(6)
H5 H 0.1975 0.5459 0.9734
C5 C 0.1745(9) 0.4456(7) 0.9383(5)
H6 H 0.1699 0.4708 0.9059
C6 C 0.1643(6) 0.3633(6) 0.9410(4)
C7 C 0.1705(5) 0.3269(5) 0.9900(4)
C8 C 0.1462(6) 0.3197(6) 0.8949(4)
H7 H 0.1396 0.3505 0.8646
C9 C 0.1181(6) 0.2071(6) 0.8428(4)
C10 C 0.0978(7) 0.2462(7) 0.7989(4)
H8 H 0.0985 0.3031 0.7980
C11 C 0.0760(8) 0.2034(8) 0.7555(4)
H9 H 0.0619 0.2305 0.7249
C12 C 0.0753(8) 0.1187(9) 0.7578(5)
H10 H 0.0587 0.0887 0.7288
C13 C 0.0973(6) 0.0812(7) 0.7995(4)
H11 H 0.0981 0.0243 0.7996
C14 C 0.1199(5) 0.1230(6) 0.8444(3)
C15 C 0.1982(8) -0.2797(7) 0.8181(5)
H12 H 0.1577 -0.2801 0.7910
H13 H 0.1800 -0.3130 0.8467
H14 H 0.2487 -0.3011 0.8048
C16 C 0.2271(6) -0.1396(8) 0.7990(4)
C17 C 0.2210(7) -0.1525(9) 0.7466(4)
H15 H 0.2042 -0.2024 0.7330
C18 C 0.2412(8) -0.0874(10) 0.7149(5)
H16 H 0.2350 -0.0927 0.6790
C19 C 0.2686(8) -0.0192(10) 0.7338(4)
H17 H 0.2858 0.0215 0.7109
C20 C 0.2728(6) -0.0056(8) 0.7865(4)
C21 C 0.2498(5) -0.0669(6) 0.8198(4)
C22 C 0.3045(6) 0.0713(7) 0.8022(4)
H18 H 0.3227 0.1063 0.7760
C23 C 0.3419(6) 0.1715(6) 0.8617(4)
C24 C 0.3923(6) 0.2163(7) 0.8315(4)
H19 H 0.4095 0.1972 0.7991
C25 C 0.4181(7) 0.2926(7) 0.8505(5)
H20 H 0.4522 0.3251 0.8301
C26 C 0.3953(6) 0.3179(7) 0.8952(5)
H21 H 0.4125 0.3695 0.9059
C27 C 0.3470(5) 0.2735(6) 0.9282(5)
H22 H 0.3339 0.2932 0.9612
C28 C 0.3182(5) 0.1994(6) 0.9117(4)
C29 C 0.1694(4) 0.0139(5) 1.0046(3)
Dy1 Dy 0.15080(2) 0.18353(2) 1.075017(17)
N1 N 0.1383(4) 0.2457(4) 0.8906(3)
N2 N 0.3101(5) 0.0961(5) 0.8488(3)
C30 C 0.3957(11) 0.0100(13) 0.9800(4)
Ni1 Ni 0.14900(6) 0.16545(6) 0.94641(4)
Ni2 Ni 0.25786(6) 0.04307(7) 0.90813(4)
O1 O 0.1883(4) 0.3365(4) 1.0778(3)
O2 O 0.1614(4) 0.2504(4) 0.9988(2)
O3 O 0.1403(3) 0.0832(4) 0.8880(2)
O4 O 0.2103(4) -0.1989(4) 0.8355(3)
O5 O 0.2463(4) -0.0613(4) 0.8703(2)
O6 O 0.2738(3) 0.1526(4) 0.9411(2)
O7 O 0.1611(3) 0.0901(3) 1.0078(2)
O8 O 0.1540(4) -0.0285(3) 1.0441(2)
O9 O 0.1961(3) -0.0173(3) 0.9630(2)
O10 O 0.3693(4) 0.0038(4) 0.9354(2)
O11 O 0.3643(12) 0.0322(12) 1.0211(6)
O12 O 0.4661(9) -0.0054(12) 0.9959(7)
O13 O 0.2919(4) 0.1890(5) 1.0487(3)
O14 O 0.2266(5) 0.0706(4) 1.1126(3)
O15 O 0.0642(4) 0.0796(3) 1.1070(2)
Dy1B Dy 0.18353(2) -0.15080(2) 0.924983(17)
Ni1B Ni 0.16545(6) -0.14900(6) 1.05359(4)
O4C O 0.1989(4) 0.2103(4) 1.1645(3)
O5C O 0.0613(4) 0.2463(4) 1.1297(2)
O8C O 0.0285(3) 0.1540(4) 0.9559(2)
O9C O 0.0173(3) 0.1961(3) 1.0370(2)
O16 O 0.5000 0.0000 0.7103(8)
O17 O 0.5000 0.0000 0.8717(6)
O18 O 0.4284(16) 0.3799(16) 0.1025(11)
O19 O 0.3856(10) 0.0677(14) 0.1138(13)
C30A C 0.6043(11) -0.0100(13) 0.9800(4)
O10A O 0.6307(4) -0.0038(4) 0.9354(2)
O11A O 0.6357(12) -0.0322(12) 1.0211(6)
O12A O 0.5339(9) 0.0054(12) 0.9959(7)
C1A C 0.8067(8) -0.3864(6) 1.1230(5)
H1A H 0.7659 -0.4279 1.1178
H2A H 0.7920 -0.3534 1.1525
H3A H 0.8587 -0.4117 1.1293
C2A C 0.8139(7) -0.3763(6) 1.0323(4)
C3A C 0.8031(9) -0.4570(7) 1.0275(5)
H4A H 0.7916 -0.4897 1.0563
C4A C 0.8097(14) -0.4899(8) 0.9779(6)
H5A H 0.8025 -0.5459 0.9734
C5A C 0.8255(9) -0.4456(7) 0.9383(5)
H6A H 0.8301 -0.4708 0.9059
C6A C 0.8357(6) -0.3633(6) 0.9410(4)
C7A C 0.8295(5) -0.3269(5) 0.9900(4)
C8A C 0.8538(6) -0.3197(6) 0.8949(4)
H7A H 0.8604 -0.3505 0.8646
C9A C 0.8819(6) -0.2071(6) 0.8428(4)
C10A C 0.9022(7) -0.2462(7) 0.7989(4)
H8A H 0.9015 -0.3031 0.7980
C11A C 0.9240(8) -0.2034(8) 0.7555(4)
H9A H 0.9381 -0.2305 0.7249
C12A C 0.9247(8) -0.1187(9) 0.7578(5)
H10A H 0.9413 -0.0887 0.7288
C13A C 0.9027(6) -0.0812(7) 0.7995(4)
H11A H 0.9019 -0.0243 0.7996
C14A C 0.8801(5) -0.1230(6) 0.8444(3)
C15A C 0.8018(8) 0.2797(7) 0.8181(5)
H12A H 0.8423 0.2801 0.7910
H13A H 0.8200 0.3130 0.8467
H14A H 0.7513 0.3011 0.8048
C16A C 0.7729(6) 0.1396(8) 0.7990(4)
C17A C 0.7790(7) 0.1525(9) 0.7466(4)
H15A H 0.7958 0.2024 0.7330
C18A C 0.7588(8) 0.0874(10) 0.7149(5)
H16A H 0.7650 0.0927 0.6790
C19A C 0.7314(8) 0.0192(10) 0.7338(4)
H17A H 0.7142 -0.0215 0.7109
C20A C 0.7272(6) 0.0056(8) 0.7865(4)
C21A C 0.7502(5) 0.0669(6) 0.8198(4)
C22A C 0.6955(6) -0.0713(7) 0.8022(4)
H18A H 0.6773 -0.1063 0.7760
C23A C 0.6581(6) -0.1715(6) 0.8617(4)
C24A C 0.6077(6) -0.2163(7) 0.8315(4)
H19A H 0.5905 -0.1972 0.7991
C25A C 0.5819(7) -0.2926(7) 0.8505(5)
H20A H 0.5478 -0.3251 0.8301
C26A C 0.6047(6) -0.3179(7) 0.8952(5)
H21A H 0.5875 -0.3695 0.9059
C27A C 0.6530(5) -0.2735(6) 0.9282(5)
H22A H 0.6661 -0.2932 0.9612
C28A C 0.6818(5) -0.1994(6) 0.9117(4)
C29A C 0.8306(4) -0.0139(5) 1.0046(3)
Dy1A Dy 0.84920(2) -0.18353(2) 1.075017(17)
N1A N 0.8617(4) -0.2457(4) 0.8906(3)
N2A N 0.6899(5) -0.0961(5) 0.8488(3)
Ni1A Ni 0.85100(6) -0.16545(6) 0.94641(4)
Ni2A Ni 0.74214(6) -0.04307(7) 0.90813(4)
O1A O 0.8117(4) -0.3365(4) 1.0778(3)
O2A O 0.8386(4) -0.2504(4) 0.9988(2)
O3A O 0.8597(3) -0.0832(4) 0.8880(2)
O4A O 0.7897(4) 0.1989(4) 0.8355(3)
O5A O 0.7537(4) 0.0613(4) 0.8703(2)
O6A O 0.7262(3) -0.1526(4) 0.9411(2)
O7A O 0.8389(3) -0.0901(3) 1.0078(2)
O8A O 0.8460(4) 0.0285(3) 1.0441(2)
O9A O 0.8039(3) 0.0173(3) 0.9630(2)
O13A O 0.7081(4) -0.1890(5) 1.0487(3)
O14A O 0.7734(5) -0.0706(4) 1.1126(3)
O15A O 0.9358(4) -0.0796(3) 1.1070(2)
Dy1C Dy 0.81647(2) 0.15080(2) 0.924983(17)
Ni1C Ni 0.83455(6) 0.14900(6) 1.05359(4)
O4B O 0.8011(4) -0.2103(4) 1.1645(3)
O5B O 0.9387(4) -0.2463(4) 1.1297(2)
O8B O 0.9715(3) -0.1540(4) 0.9559(2)
O9B O 0.9827(3) -0.1961(3) 1.0370(2)
loop_
_geom_bond_atom_site_label_1
_geom_bond_atom_site_label_2
_geom_bond_site_symmetry_1
_geom_bond_site_symmetry_2
C1 H1 1_555 1_555
H2 C1 1_555 1_555
H3 C1 1_555 1_555
C2 C3 1_555 1_555
C3 H4 1_555 1_555
C4 C3 1_555 1_555
H5 C4 1_555 1_555
C5 C4 1_555 1_555
H6 C5 1_555 1_555
C6 C5 1_555 1_555
C7 C2 1_555 1_555
C8 C6 1_555 1_555
H7 C8 1_555 1_555
C9 C10 1_555 1_555
C10 H8 1_555 1_555
C11 C10 1_555 1_555
H9 C11 1_555 1_555
C12 C11 1_555 1_555
H10 C12 1_555 1_555
C13 C12 1_555 1_555
H11 C13 1_555 1_555
C14 C9 1_555 1_555
C15 H12 1_555 1_555
H13 C15 1_555 1_555
H14 C15 1_555 1_555
C16 C17 1_555 1_555
C17 H15 1_555 1_555
C18 C17 1_555 1_555
H16 C18 1_555 1_555
C19 C18 1_555 1_555
H17 C19 1_555 1_555
C20 C19 1_555 1_555
C21 C16 1_555 1_555
C22 C20 1_555 1_555
H18 C22 1_555 1_555
C23 C24 1_555 1_555
C24 H19 1_555 1_555
C25 C24 1_555 1_555
H20 C25 1_555 1_555
C26 C25 1_555 1_555
H21 C26 1_555 1_555
C27 C26 1_555 1_555
H22 C27 1_555 1_555
C28 C23 1_555 1_555
C29 O7 1_555 1_555
Dy1 O1 1_555 1_555
N1 C8 1_555 1_555
N2 C22 1_555 1_555
C30 O10 1_555 1_555
Ni1 N1 1_555 1_555
Ni2 N2 1_555 1_555
O1 C1 1_555 1_555
O2 C7 1_555 1_555
O3 C14 1_555 1_555
O4 C15 1_555 1_555
O5 C21 1_555 1_555
O6 C28 1_555 1_555
O7 Dy1 1_555 1_555
O8 C29 1_555 1_555
O9 C29 1_555 1_555
O10 Ni2 1_555 1_555
O11 C30 1_555 1_555
O12 C30 1_555 1_555
O13 Dy1 1_555 1_555
O14 Dy1 1_555 1_555
O15 Dy1 1_555 1_555
Dy1B O4 1_555 1_555
Ni1B O8 1_555 1_555
O4C Dy1 1_555 1_555
O5C Dy1 1_555 1_555
O8C Ni1 1_555 1_555
O9C Dy1 1_555 1_555
C30A O10A 1_555 1_555
O10A Ni2A 1_555 1_555
O11A C30A 1_555 1_555
O12A C30A 1_555 1_555
C1A H1A 1_555 1_555
H2A C1A 1_555 1_555
H3A C1A 1_555 1_555
C2A C3A 1_555 1_555
C3A H4A 1_555 1_555
C4A C3A 1_555 1_555
H5A C4A 1_555 1_555
C5A C4A 1_555 1_555
H6A C5A 1_555 1_555
C6A C5A 1_555 1_555
C7A C2A 1_555 1_555
C8A C6A 1_555 1_555
H7A C8A 1_555 1_555
C9A C10A 1_555 1_555
C10A H8A 1_555 1_555
C11A C10A 1_555 1_555
H9A C11A 1_555 1_555
C12A C11A 1_555 1_555
H10A C12A 1_555 1_555
C13A C12A 1_555 1_555
H11A C13A 1_555 1_555
C14A C9A 1_555 1_555
C15A H12A 1_555 1_555
H13A C15A 1_555 1_555
H14A C15A 1_555 1_555
C16A C17A 1_555 1_555
C17A H15A 1_555 1_555
C18A C17A 1_555 1_555
H16A C18A 1_555 1_555
C19A C18A 1_555 1_555
H17A C19A 1_555 1_555
C20A C19A 1_555 1_555
C21A C16A 1_555 1_555
C22A C20A 1_555 1_555
H18A C22A 1_555 1_555
C23A C24A 1_555 1_555
C24A H19A 1_555 1_555
C25A C24A 1_555 1_555
H20A C25A 1_555 1_555
C26A C25A 1_555 1_555
H21A C26A 1_555 1_555
C27A C26A 1_555 1_555
H22A C27A 1_555 1_555
C28A C23A 1_555 1_555
C29A O7A 1_555 1_555
Dy1A O1A 1_555 1_555
N1A C8A 1_555 1_555
N2A C22A 1_555 1_555
Ni1A N1A 1_555 1_555
Ni2A N2A 1_555 1_555
O1A C1A 1_555 1_555
O2A C7A 1_555 1_555
O3A C14A 1_555 1_555
O4A C15A 1_555 1_555
O5A C21A 1_555 1_555
O6A C28A 1_555 1_555
O7A Dy1A 1_555 1_555
O8A C29A 1_555 1_555
O9A C29A 1_555 1_555
O13A Dy1A 1_555 1_555
O14A Dy1A 1_555 1_555
O15A Dy1A 1_555 1_555
Dy1C O4A 1_555 1_555
Ni1C O8A 1_555 1_555
O4B Dy1A 1_555 1_555
O5B Dy1A 1_555 1_555
O8B Ni1A 1_555 1_555
O9B Dy1A 1_555 1_555
C2 O1 1_555 1_555
C6 C7 1_555 1_555
C9 N1 1_555 1_555
C13 C14 1_555 1_555
C16 O4 1_555 1_555
C20 C21 1_555 1_555
C23 N2 1_555 1_555
C27 C28 1_555 1_555
Dy1 O2 1_555 1_555
Ni1 O2 1_555 1_555
Ni1 O3 1_555 1_555
Ni1 O6 1_555 1_555
Ni1 O7 1_555 1_555
Ni2 O3 1_555 1_555
Ni2 O5 1_555 1_555
Ni2 O6 1_555 1_555
Ni2 O9 1_555 1_555
O5 Dy1B 1_555 1_555
O9 Dy1B 1_555 1_555
C2A O1A 1_555 1_555
C6A C7A 1_555 1_555
C9A N1A 1_555 1_555
C13A C14A 1_555 1_555
C16A O4A 1_555 1_555
C20A C21A 1_555 1_555
C23A N2A 1_555 1_555
C27A C28A 1_555 1_555
Dy1A O2A 1_555 1_555
Ni1A O2A 1_555 1_555
Ni1A O3A 1_555 1_555
Ni1A O6A 1_555 1_555
Ni1A O7A 1_555 1_555
Ni2A O3A 1_555 1_555
Ni2A O5A 1_555 1_555
Ni2A O6A 1_555 1_555
Ni2A O9A 1_555 1_555
O5A Dy1C 1_555 1_555
O9A Dy1C 1_555 1_555

#END
