
#######################################################################
#
#                 Cambridge Crystallographic Data Centre
#                                CCDC 
#
#######################################################################
#
# If this CIF has been generated from an entry in the Cambridge 
# Structural Database, then it will include bibliographic, chemical, 
# crystal, experimental, refinement or atomic coordinate data resulting 
# from the CCDC's data processing and validation procedures.
#
#######################################################################

data_HUCJOG
_symmetry_cell_setting           triclinic
_symmetry_space_group_name_H-M   'P -1'
_symmetry_Int_Tables_number      2
_space_group_name_Hall           '-P 1'
loop_
_symmetry_equiv_pos_site_id
_symmetry_equiv_pos_as_xyz
1 x,y,z
2 -x,-y,-z
_cell_length_a                   5.5839(12)
_cell_length_b                   12.097(3)
_cell_length_c                   14.595(3)
_cell_angle_alpha                107.883(11)
_cell_angle_beta                 100.455(11)
_cell_angle_gamma                97.851(12)
_cell_volume                     902.97
loop_
_atom_site_label
_atom_site_type_symbol
_atom_site_fract_x
_atom_site_fract_y
_atom_site_fract_z
Mn1 Mn 0.5000 0.0000 0.0000
O1 O 1.1648(10) 0.4183(5) 0.5454(4)
O2 O 0.7580(9) 0.0714(4) 0.5494(4)
O3 O 0.7557(7) -0.1191(4) -0.0414(3)
H1 H 0.8825 -0.0989 0.0032
O4 O 0.2461(6) -0.1428(3) 0.0151(3)
O5 O 0.4617(8) -0.2853(3) -0.0181(4)
N1 N 0.7002(9) 0.0590(4) 0.1649(4)
N2 N 0.9504(10) 0.2458(5) 0.5444(4)
C1 C 0.6138(12) 0.1313(6) 0.2345(5)
H2 H 0.4690 0.1562 0.2145
C2 C 0.7256(12) 0.1712(6) 0.3340(5)
H3 H 0.6553 0.2213 0.3789
C3 C 0.9394(11) 0.1378(5) 0.3673(5)
C4 C 1.0290(12) 0.0625(6) 0.2964(5)
H4 H 1.1724 0.0358 0.3149
C5 C 0.9081(12) 0.0268(6) 0.1985(5)
H5 H 0.9755 -0.0233 0.1525
C6 C 1.0807(12) 0.1787(6) 0.4740(5)
H6 H 1.1135 0.1098 0.4910
H7 H 1.2399 0.2281 0.4813
C7 C 1.0134(13) 0.3690(6) 0.5778(5)
C8 C 0.8890(13) 0.4329(6) 0.6525(5)
C9 C 0.9401(15) 0.5534(6) 0.6863(6)
H8 H 1.0565 0.5949 0.6641
C10 C 0.8160(18) 0.6152(7) 0.7551(6)
H9 H 0.8512 0.6978 0.7789
C11 C 0.6454(16) 0.5545(8) 0.7866(6)
H10 H 0.5631 0.5962 0.8316
C12 C 0.5911(13) 0.4316(7) 0.7531(5)
C13 C 0.7144(12) 0.3686(6) 0.6853(5)
C14 C 0.4170(14) 0.3652(8) 0.7853(5)
H11 H 0.3321 0.4053 0.8299
C15 C 0.3702(14) 0.2458(9) 0.7533(6)
H12 H 0.2566 0.2043 0.7765
C16 C 0.4936(13) 0.1846(7) 0.6849(6)
H13 H 0.4605 0.1021 0.6621
C17 C 0.6638(12) 0.2455(6) 0.6510(5)
C18 C 0.7875(12) 0.1785(6) 0.5796(5)
C19 C 0.0890(10) -0.3291(5) 0.0308(5)
H14 H -0.0760 -0.3177 0.0063
H15 H 0.1185 -0.3068 0.1023
C20 C 0.0963(11) -0.4604(5) -0.0129(5)
H16 H 0.0667 -0.4830 -0.0844
H17 H 0.2606 -0.4722 0.0118
C21 C 0.2791(10) -0.2472(5) 0.0059(4)
H18 H 0.681(11) -0.183(3) -0.037(5)
O4A O -0.2461(6) -0.8572(3) -0.0151(3)
O5A O -0.4617(8) -0.7147(3) 0.0181(4)
C19A C -0.0890(10) -0.6709(5) -0.0308(5)
H14A H 0.0760 -0.6823 -0.0063
H15A H -0.1185 -0.6932 -0.1023
C20A C -0.0963(11) -0.5396(5) 0.0129(5)
H16A H -0.0667 -0.5170 0.0844
H17A H -0.2606 -0.5278 -0.0118
C21A C -0.2791(10) -0.7528(5) -0.0059(4)
O1A O -0.1648(10) -0.4183(5) -0.5454(4)
O2A O 0.2420(9) -0.0714(4) -0.5494(4)
N1A N 0.2998(9) -0.0590(4) -0.1649(4)
N2A N 0.0496(10) -0.2458(5) -0.5444(4)
C1A C 0.3862(12) -0.1313(6) -0.2345(5)
H2A H 0.5310 -0.1562 -0.2145
C2A C 0.2744(12) -0.1712(6) -0.3340(5)
H3A H 0.3447 -0.2213 -0.3789
C3A C 0.0606(11) -0.1378(5) -0.3673(5)
C4A C -0.0290(12) -0.0625(6) -0.2964(5)
H4A H -0.1724 -0.0358 -0.3149
C5A C 0.0919(12) -0.0268(6) -0.1985(5)
H5A H 0.0245 0.0233 -0.1525
C6A C -0.0807(12) -0.1787(6) -0.4740(5)
H6A H -0.1135 -0.1098 -0.4910
H7A H -0.2399 -0.2281 -0.4813
C7A C -0.0134(13) -0.3690(6) -0.5778(5)
C8A C 0.1110(13) -0.4329(6) -0.6525(5)
C9A C 0.0599(15) -0.5534(6) -0.6863(6)
H8A H -0.0565 -0.5949 -0.6641
C10A C 0.1840(18) -0.6152(7) -0.7551(6)
H9A H 0.1488 -0.6978 -0.7789
C11A C 0.3546(16) -0.5545(8) -0.7866(6)
H10A H 0.4369 -0.5962 -0.8316
C12A C 0.4089(13) -0.4316(7) -0.7531(5)
C13A C 0.2856(12) -0.3686(6) -0.6853(5)
C14A C 0.5830(14) -0.3652(8) -0.7853(5)
H11A H 0.6679 -0.4053 -0.8299
C15A C 0.6298(14) -0.2458(9) -0.7533(6)
H12A H 0.7434 -0.2043 -0.7765
C16A C 0.5064(13) -0.1846(7) -0.6849(6)
H13A H 0.5395 -0.1021 -0.6621
C17A C 0.3362(12) -0.2455(6) -0.6510(5)
C18A C 0.2125(12) -0.1785(6) -0.5796(5)
O3A O 0.2443(7) 0.1191(4) 0.0414(3)
H1A H 0.1175 0.0989 -0.0032
H18A H 0.319(11) 0.183(3) 0.037(5)
Mn1_2 Mn -0.5000 -1.0000 0.0000
O4A_2 O 0.7539(6) 0.1428(3) -0.0151(3)
O6 O 0.521(3) 0.3843(12) 0.4485(11)
loop_
_geom_bond_atom_site_label_1
_geom_bond_atom_site_label_2
_geom_bond_site_symmetry_1
_geom_bond_site_symmetry_2
Mn1 O3 1_555 1_555
O1 C7 1_555 1_555
O2 C18 1_555 1_555
O3 H1 1_555 1_555
O4 Mn1 1_555 1_555
O5 C21 1_555 1_555
N1 Mn1 1_555 1_555
N2 C6 1_555 1_555
C1 N1 1_555 1_555
H2 C1 1_555 1_555
C2 C1 1_555 1_555
H3 C2 1_555 1_555
C3 C2 1_555 1_555
C4 C3 1_555 1_555
H4 C4 1_555 1_555
C5 N1 1_555 1_555
H5 C5 1_555 1_555
C6 C3 1_555 1_555
H6 C6 1_555 1_555
H7 C6 1_555 1_555
C7 N2 1_555 1_555
C8 C7 1_555 1_555
C9 C8 1_555 1_555
H8 C9 1_555 1_555
C10 C9 1_555 1_555
H9 C10 1_555 1_555
C11 C10 1_555 1_555
H10 C11 1_555 1_555
C12 C11 1_555 1_555
C13 C8 1_555 1_555
C14 C12 1_555 1_555
H11 C14 1_555 1_555
C15 C14 1_555 1_555
H12 C15 1_555 1_555
C16 C15 1_555 1_555
H13 C16 1_555 1_555
C17 C13 1_555 1_555
C18 N2 1_555 1_555
C19 H14 1_555 1_555
H15 C19 1_555 1_555
C20 C19 1_555 1_555
H16 C20 1_555 1_555
H17 C20 1_555 1_555
C21 O4 1_555 1_555
H18 O3 1_555 1_555
O4A C21A 1_555 1_555
O5A C21A 1_555 1_555
C19A H14A 1_555 1_555
H15A C19A 1_555 1_555
C20A C20 1_555 1_555
H16A C20A 1_555 1_555
H17A C20A 1_555 1_555
C21A C19A 1_555 1_555
O1A C7A 1_555 1_555
O2A C18A 1_555 1_555
N1A Mn1 1_555 1_555
N2A C6A 1_555 1_555
C1A N1A 1_555 1_555
H2A C1A 1_555 1_555
C2A C1A 1_555 1_555
H3A C2A 1_555 1_555
C3A C2A 1_555 1_555
C4A C3A 1_555 1_555
H4A C4A 1_555 1_555
C5A N1A 1_555 1_555
H5A C5A 1_555 1_555
C6A C3A 1_555 1_555
H6A C6A 1_555 1_555
H7A C6A 1_555 1_555
C7A N2A 1_555 1_555
C8A C7A 1_555 1_555
C9A C8A 1_555 1_555
H8A C9A 1_555 1_555
C10A C9A 1_555 1_555
H9A C10A 1_555 1_555
C11A C10A 1_555 1_555
H10A C11A 1_555 1_555
C12A C11A 1_555 1_555
C13A C8A 1_555 1_555
C14A C12A 1_555 1_555
H11A C14A 1_555 1_555
C15A C14A 1_555 1_555
H12A C15A 1_555 1_555
C16A C15A 1_555 1_555
H13A C16A 1_555 1_555
C17A C13A 1_555 1_555
C18A N2A 1_555 1_555
O3A Mn1 1_555 1_555
H1A O3A 1_555 1_555
H18A O3A 1_555 1_555
Mn1_2 O4A 1_555 1_555
O4A_2 Mn1 1_555 1_555
C4 C5 1_555 1_555
C12 C13 1_555 1_555
C16 C17 1_555 1_555
C17 C18 1_555 1_555
C19 C21 1_555 1_555
C19A C20A 1_555 1_555
C4A C5A 1_555 1_555
C12A C13A 1_555 1_555
C16A C17A 1_555 1_555
C17A C18A 1_555 1_555

#END
