
#######################################################################
#
#                 Cambridge Crystallographic Data Centre
#                                CCDC 
#
#######################################################################
#
# If this CIF has been generated from an entry in the Cambridge 
# Structural Database, then it will include bibliographic, chemical, 
# crystal, experimental, refinement or atomic coordinate data resulting 
# from the CCDC's data processing and validation procedures.
#
#######################################################################

data_HUCKEW
_symmetry_cell_setting           triclinic
_symmetry_space_group_name_H-M   'P -1'
_symmetry_Int_Tables_number      2
_space_group_name_Hall           '-P 1'
loop_
_symmetry_equiv_pos_site_id
_symmetry_equiv_pos_as_xyz
1 x,y,z
2 -x,-y,-z
_cell_length_a                   8.4972(3)
_cell_length_b                   10.2676(4)
_cell_length_c                   12.6508(4)
_cell_angle_alpha                72.661(3)
_cell_angle_beta                 74.859(3)
_cell_angle_gamma                70.588(3)
_cell_volume                     977.433
loop_
_atom_site_label
_atom_site_type_symbol
_atom_site_fract_x
_atom_site_fract_y
_atom_site_fract_z
Mn1 Mn 1.27969(5) 0.49235(4) 0.24918(3)
Mn2 Mn 0.59087(5) 0.85545(4) 0.26515(3)
C1 C 0.7656(3) 0.5490(3) 0.4552(2)
C2 C 0.7464(4) 0.4128(3) 0.4991(2)
H1 H 0.6522 0.3986 0.5534
C3 C 0.8660(4) 0.2984(3) 0.4627(3)
H2 H 0.8522 0.2074 0.4900
C4 C 1.0063(4) 0.3234(3) 0.3846(3)
H3 H 1.0883 0.2469 0.3604
C5 C 0.9105(3) 0.5653(3) 0.3738(2)
C6 C 0.9532(3) 0.7047(3) 0.3163(2)
C7 C 0.6300(3) 0.6661(3) 0.5036(2)
C8 C 1.2344(5) 0.6470(3) -0.1599(3)
H4 H 1.2322 0.6728 -0.2366
C9 C 1.3034(4) 0.5069(3) -0.1091(2)
C10 C 1.3014(3) 0.4728(3) 0.0062(2)
C11 C 1.1694(6) 0.7478(4) -0.0978(3)
H5 H 1.1259 0.8428 -0.1317
C12 C 1.1699(5) 0.7052(3) 0.0170(3)
H6 H 1.1226 0.7727 0.0600
C13 C 1.3785(4) 0.3243(3) 0.0709(2)
C14 C 1.3882(4) 0.4007(3) -0.1817(2)
C15 C 0.1882(8) 0.9931(7) 0.2423(7)
H7 H 0.1739 1.0126 0.1650
H8 H 0.2214 1.0725 0.2473
C16 C 0.0088(13) 1.0105(12) 0.3108(9)
H9 H -0.0615 1.1033 0.2827
H10 H 0.0118 0.9994 0.3884
H11 H -0.0368 0.9399 0.3044
N1 N 1.0296(3) 0.4528(2) 0.34232(19)
N2 N 1.2358(3) 0.5708(2) 0.06771(19)
O1 O 0.5328(3) 0.7618(2) 0.44223(16)
O2 O 0.6140(3) 0.6560(2) 0.60686(16)
O3 O 0.8368(3) 0.8183(2) 0.31103(17)
O4 O 0.3290(3) 0.8821(3) 0.2514(3)
O5 O 1.1066(2) 0.6962(2) 0.27672(16)
O6 O 0.5052(4) 1.0585(2) 0.3092(2)
O7 O 1.4375(3) 0.2271(2) 0.02105(17)
O8 O 1.3777(3) 0.3112(2) 0.17400(15)
O10 O 1.3037(3) 0.3305(2) -0.19511(16)
O11 O 1.5393(3) 0.3966(2) -0.22933(17)
O12 O 0.6507(4) 0.9652(3) 0.0894(2)
H12 H 0.316(3) 0.806(3) 0.253(4)
H13 H 0.502(6) 1.1229(18) 0.2557(19)
H16 H 0.444(5) 1.058(3) 0.367(2)
H17 H 0.575(4) 1.039(3) 0.070(3)
H18 H 0.735(4) 0.957(5) 0.034(3)
Mn1A Mn 0.72031(5) 0.50765(4) 0.75082(3)
Mn1A_2 Mn 1.72031(5) 0.50765(4) -0.24918(3)
Mn2A Mn 1.40913(5) 0.14455(4) -0.26515(3)
O2A O 1.3860(3) 0.3440(2) 0.39314(16)
O10A O 0.6963(3) 0.6695(2) 0.19511(16)
O11A O 1.4607(3) 0.6034(2) 0.22933(17)
O9 O 0.2771(5) 0.9922(4) 0.5189(3)
H14 H 0.224(6) 1.047(3) 0.561(3)
H15 H 0.312(6) 0.911(3) 0.565(3)
loop_
_geom_bond_atom_site_label_1
_geom_bond_atom_site_label_2
_geom_bond_site_symmetry_1
_geom_bond_site_symmetry_2
Mn1 N1 1_555 1_555
Mn2 O1 1_555 1_555
C1 C2 1_555 1_555
C2 H1 1_555 1_555
C3 C2 1_555 1_555
H2 C3 1_555 1_555
C4 C3 1_555 1_555
H3 C4 1_555 1_555
C5 C1 1_555 1_555
C6 C5 1_555 1_555
C7 C1 1_555 1_555
C8 H4 1_555 1_555
C9 C8 1_555 1_555
C10 C9 1_555 1_555
C11 C8 1_555 1_555
H5 C11 1_555 1_555
C12 C11 1_555 1_555
H6 C12 1_555 1_555
C13 C10 1_555 1_555
C14 C9 1_555 1_555
C15 H7 1_555 1_555
H8 C15 1_555 1_555
C16 C15 1_555 1_555
H9 C16 1_555 1_555
H10 C16 1_555 1_555
H11 C16 1_555 1_555
N1 C4 1_555 1_555
N2 Mn1 1_555 1_555
O1 C7 1_555 1_555
O2 C7 1_555 1_555
O3 Mn2 1_555 1_555
O4 Mn2 1_555 1_555
O5 Mn1 1_555 1_555
O6 Mn2 1_555 1_555
O7 C13 1_555 1_555
O8 Mn1 1_555 1_555
O9 H14 1_555 1_555
O10 C14 1_555 1_555
O11 C14 1_555 1_555
O12 Mn2 1_555 1_555
H12 O4 1_555 1_555
H13 O6 1_555 1_555
H15 O9 1_555 1_555
H16 O6 1_555 1_555
H17 O12 1_555 1_555
H18 O12 1_555 1_555
Mn1A O2 1_555 1_555
Mn1A_2 O11 1_555 1_555
Mn2A O10 1_555 1_555
O2A Mn1 1_555 1_555
O10A Mn2 1_555 1_555
O11A Mn1 1_555 1_555
C5 N1 1_555 1_555
C6 O3 1_555 1_555
C6 O5 1_555 1_555
C10 N2 1_555 1_555
C12 N2 1_555 1_555
C13 O8 1_555 1_555
C15 O4 1_555 1_555

#END
