
#######################################################################
#
#                 Cambridge Crystallographic Data Centre
#                                CCDC 
#
#######################################################################
#
# If this CIF has been generated from an entry in the Cambridge 
# Structural Database, then it will include bibliographic, chemical, 
# crystal, experimental, refinement or atomic coordinate data resulting 
# from the CCDC's data processing and validation procedures.
#
#######################################################################

data_HUCPAY
_symmetry_cell_setting           monoclinic
_symmetry_space_group_name_H-M   'C 2/c'
_symmetry_Int_Tables_number      15
_space_group_name_Hall           '-C 2yn'
loop_
_symmetry_equiv_pos_site_id
_symmetry_equiv_pos_as_xyz
1 x,y,z
2 -x,y,1/2-z
3 1/2+x,1/2+y,z
4 1/2-x,1/2+y,1/2-z
5 -x,-y,-z
6 x,-y,1/2+z
7 1/2-x,1/2-y,-z
8 1/2+x,1/2-y,1/2+z
_cell_length_a                   15.780(3)
_cell_length_b                   12.868(2)
_cell_length_c                   13.790(2)
_cell_angle_alpha                90
_cell_angle_beta                 108.727(3)
_cell_angle_gamma                90
_cell_volume                     2651.91
loop_
_atom_site_label
_atom_site_type_symbol
_atom_site_fract_x
_atom_site_fract_y
_atom_site_fract_z
Ni1 Ni 0.2500 -0.2500 0.5000
Ni2 Ni 0.5000 0.00745(5) 0.2500
O1 O 0.59558(16) -0.00237(19) 0.39271(17)
H1 H 0.6244 0.0484 0.4054
H2 H 0.5813 -0.0104 0.4360
O2 O 0.13119(16) -0.25742(19) 0.38673(18)
H3 H 0.1341 -0.2926 0.3413
H4 H 0.1048 -0.2050 0.3815
O3 O 0.26879(17) 0.59370(19) 0.47236(18)
O4 O 0.39666(18) 0.5589(2) 0.5971(2)
O5 O 0.42399(16) 0.12680(18) 0.28192(18)
O6 O 0.44091(19) 0.0777(2) 0.4405(2)
O7 O 0.25020(19) 0.4155(2) 0.6138(2)
N1 N 0.4222(2) -0.1041(2) 0.2950(2)
N2 N 0.3184(2) -0.2060(2) 0.3976(2)
C1 C 0.4529(3) -0.1837(3) 0.3568(3)
H5 H 0.5111 -0.2063 0.3669
C2 C 0.4024(3) -0.2346(3) 0.4072(3)
H6 H 0.4274 -0.2907 0.4493
C3 C 0.3352(3) -0.0797(3) 0.2783(3)
H7 H 0.3089 -0.0277 0.2314
C4 C 0.2847(3) -0.1299(3) 0.3291(3)
H8 H 0.2252 -0.1105 0.3156
C5 C 0.3341(3) 0.5356(3) 0.5183(3)
C6 C 0.3418(2) 0.4319(3) 0.4703(3)
C7 C 0.3971(2) 0.4261(3) 0.4107(3)
H9 H 0.4231 0.4864 0.3960
C8 C 0.4145(2) 0.3324(3) 0.3727(3)
H10 H 0.4534 0.3305 0.3344
C9 C 0.2984(2) 0.3417(3) 0.4852(3)
C10 C 0.2434(3) 0.3439(3) 0.5550(3)
C11 C 0.3131(2) 0.2475(3) 0.4423(3)
C12 C 0.3757(2) 0.2413(3) 0.3898(3)
C13 C 0.4145(3) 0.1393(3) 0.3684(3)
O3F O 0.23121(17) -0.09370(19) 0.52764(18)
O4F O 0.10334(18) -0.0589(2) 0.4029(2)
O5F O 0.07601(16) 0.37320(18) 0.71808(18)
O6F O 0.05909(19) 0.4223(2) 0.5595(2)
O7F O 0.24980(19) 0.0845(2) 0.3862(2)
C5F C 0.1659(3) -0.0356(3) 0.4817(3)
C6F C 0.1582(2) 0.0681(3) 0.5297(3)
C7F C 0.1029(2) 0.0739(3) 0.5893(3)
H9F H 0.0769 0.0136 0.6040
C8F C 0.0855(2) 0.1676(3) 0.6273(3)
H10F H 0.0466 0.1695 0.6656
C9F C 0.2016(2) 0.1583(3) 0.5148(3)
C10F C 0.2566(3) 0.1561(3) 0.4450(3)
C11F C 0.1869(2) 0.2525(3) 0.5577(3)
C12F C 0.1243(2) 0.2587(3) 0.6102(3)
C13F C 0.0855(3) 0.3607(3) 0.6316(3)
O1A O 0.40442(16) -0.00237(19) 0.10729(17)
H1A H 0.3756 0.0484 0.0946
H2A H 0.4187 -0.0104 0.0640
N1A N 0.5778(2) -0.1041(2) 0.2050(2)
N2A N 0.6816(2) -0.2060(2) 0.1024(2)
C1A C 0.5471(3) -0.1837(3) 0.1432(3)
H5A H 0.4889 -0.2063 0.1331
C2A C 0.5976(3) -0.2346(3) 0.0928(3)
H6A H 0.5726 -0.2907 0.0507
C3A C 0.6648(3) -0.0797(3) 0.2217(3)
H7A H 0.6911 -0.0277 0.2686
C4A C 0.7153(3) -0.1299(3) 0.1709(3)
H8A H 0.7748 -0.1105 0.1844
O2F O 0.36881(16) -0.24258(19) 0.61327(18)
H3F H 0.3659 -0.2074 0.6587
H4F H 0.3952 -0.2950 0.6185
Ni1_2 Ni 0.2500 0.7500 0.5000
Ni1A Ni 0.7500 -0.2500 0.0000
Ni2F Ni 0.0000 0.49255(5) 0.7500
O3_2 O 0.26879(17) -0.40630(19) 0.47236(18)
O5A O 0.57601(16) 0.12680(18) 0.21808(18)
N2F N 0.1816(2) -0.2940(2) 0.6024(2)
O8 O 1.0000 0.0946(4) 0.2500
H11 H 0.9697 0.0596 0.2051
H11A H 1.0303 0.0596 0.2949
loop_
_geom_bond_atom_site_label_1
_geom_bond_atom_site_label_2
_geom_bond_site_symmetry_1
_geom_bond_site_symmetry_2
Ni1 O2 1_555 1_555
Ni2 O1 1_555 1_555
O1 H1 1_555 1_555
H2 O1 1_555 1_555
O2 H3 1_555 1_555
H4 O2 1_555 1_555
O3 C5 1_555 1_555
O4 C5 1_555 1_555
O5 Ni2 1_555 1_555
O6 C13 1_555 1_555
O7 C10 1_555 1_555
N1 Ni2 1_555 1_555
N2 Ni1 1_555 1_555
C1 N1 1_555 1_555
H5 C1 1_555 1_555
C2 N2 1_555 1_555
H6 C2 1_555 1_555
C3 N1 1_555 1_555
H7 C3 1_555 1_555
C4 N2 1_555 1_555
H8 C4 1_555 1_555
C5 C6 1_555 1_555
C6 C7 1_555 1_555
C7 H9 1_555 1_555
C8 C7 1_555 1_555
H10 C8 1_555 1_555
C9 C6 1_555 1_555
C10 C9 1_555 1_555
C11 C9 1_555 1_555
C12 C8 1_555 1_555
C13 O5 1_555 1_555
O8 H11 1_555 1_555
O3F Ni1 1_555 1_555
O4F C5F 1_555 1_555
O5F C13F 1_555 1_555
O6F C13F 1_555 1_555
O7F C10F 1_555 1_555
C5F O3F 1_555 1_555
C6F C5F 1_555 1_555
C7F C6F 1_555 1_555
H9F C7F 1_555 1_555
C8F C7F 1_555 1_555
H10F C8F 1_555 1_555
C9F C6F 1_555 1_555
C10F C11 1_555 1_555
C11F C10 1_555 1_555
C12F C8F 1_555 1_555
C13F C12F 1_555 1_555
O1A Ni2 1_555 1_555
H1A O1A 1_555 1_555
H2A O1A 1_555 1_555
N1A Ni2 1_555 1_555
N2A C2A 1_555 1_555
C1A N1A 1_555 1_555
H5A C1A 1_555 1_555
C2A C1A 1_555 1_555
H6A C2A 1_555 1_555
C3A N1A 1_555 1_555
H7A C3A 1_555 1_555
C4A N2A 1_555 1_555
H8A C4A 1_555 1_555
O2F Ni1 1_555 1_555
H3F O2F 1_555 1_555
H4F O2F 1_555 1_555
Ni1_2 O3 1_555 1_555
Ni1A N2A 1_555 1_555
Ni2F O5F 1_555 1_555
O3_2 Ni1 1_555 1_555
O5A Ni2 1_555 1_555
N2F Ni1 1_555 1_555
H11A O8 1_555 1_555
C1 C2 1_555 1_555
C3 C4 1_555 1_555
C11 C12 1_555 1_555
C12 C13 1_555 1_555
C9F C10F 1_555 1_555
C9F C11F 1_555 1_555
C11F C12F 1_555 1_555
C3A C4A 1_555 1_555

#END
