
#######################################################################
#
#                 Cambridge Crystallographic Data Centre
#                                CCDC 
#
#######################################################################
#
# If this CIF has been generated from an entry in the Cambridge 
# Structural Database, then it will include bibliographic, chemical, 
# crystal, experimental, refinement or atomic coordinate data resulting 
# from the CCDC's data processing and validation procedures.
#
#######################################################################

data_HUCVAE
_symmetry_cell_setting           triclinic
_symmetry_space_group_name_H-M   'P 1'
_symmetry_Int_Tables_number      1
_space_group_name_Hall           'P 1'
loop_
_symmetry_equiv_pos_site_id
_symmetry_equiv_pos_as_xyz
1 x,y,z
_cell_length_a                   8.5422(3)
_cell_length_b                   9.9173(4)
_cell_length_c                   16.6816(7)
_cell_angle_alpha                88.534(3)
_cell_angle_beta                 77.551(3)
_cell_angle_gamma                84.358(3)
_cell_volume                     1373.27
loop_
_atom_site_label
_atom_site_type_symbol
_atom_site_fract_x
_atom_site_fract_y
_atom_site_fract_z
Co1 Co 0.30633(5) 0.62526(4) 0.24783(3)
N1 N 0.1160(4) 0.5405(3) 0.3004(2)
C1 C 0.0808(5) 0.4113(5) 0.2948(3)
O1 O 0.1599(4) 0.3251(3) 0.2482(2)
N2 N -0.0646(4) 0.3775(4) 0.3453(2)
H1 H -0.0887 0.2958 0.3425
C2 C -0.1703(6) 0.4627(5) 0.3982(3)
O2 O -0.2990(5) 0.4165(4) 0.4350(3)
C3 C -0.1232(6) 0.5931(4) 0.4055(3)
H2 H -0.1848 0.6547 0.4435
C4 C 0.0152(5) 0.6258(4) 0.3552(3)
C5 C 0.0641(5) 0.7674(4) 0.3520(3)
O3 O 0.1861(4) 0.7870(3) 0.29393(18)
O4 O -0.0099(4) 0.8547(3) 0.3998(2)
N3 N 0.4909(4) 0.7305(3) 0.2168(2)
C6 C 0.5530(5) 0.7903(4) 0.1439(2)
O5 O 0.5079(4) 0.7740(3) 0.08002(17)
N4 N 0.6748(4) 0.8715(3) 0.1435(2)
H3 H 0.7171 0.9058 0.0970
C7 C 0.7362(5) 0.9040(4) 0.2096(3)
O6 O 0.8441(4) 0.9825(3) 0.20054(19)
C8 C 0.6663(5) 0.8390(5) 0.2846(3)
H4 H 0.7000 0.8534 0.3328
C9 C 0.5511(5) 0.7569(4) 0.2835(2)
C10 C 0.4796(5) 0.6771(4) 0.3581(2)
O7 O 0.3774(4) 0.5974(3) 0.34715(17)
O8 O 0.5244(4) 0.6852(4) 0.42228(18)
N5 N 0.2343(4) 0.6388(3) 0.1474(2)
N6 N 0.4311(4) 0.4668(3) 0.1991(2)
C11 C 0.1316(6) 0.7380(5) 0.1280(3)
H5 H 0.0912 0.8084 0.1647
C12 C 0.0842(7) 0.7371(6) 0.0529(4)
H6 H 0.0111 0.8055 0.0399
C13 C 0.1472(7) 0.6334(7) -0.0019(3)
H7 H 0.1183 0.6320 -0.0525
C14 C 0.2520(7) 0.5333(6) 0.0191(3)
H8 H 0.2945 0.4627 -0.0171
C15 C 0.2953(6) 0.5365(5) 0.0941(3)
C16 C 0.4076(6) 0.4374(5) 0.1241(3)
C17 C 0.4848(7) 0.3214(5) 0.0835(3)
H9 H 0.4688 0.3017 0.0318
C18 C 0.5843(7) 0.2366(5) 0.1197(4)
H10 H 0.6370 0.1585 0.0928
C19 C 0.6067(7) 0.2667(5) 0.1960(4)
H11 H 0.6737 0.2089 0.2215
C20 C 0.5279(6) 0.3844(5) 0.2347(3)
H12 H 0.5434 0.4058 0.2862
Cu1 Cu 0.50016(7) 0.49995(6) 0.50008(4)
O9 O 0.6019(4) 0.6160(4) 0.57111(18)
N7 N 0.3979(5) 0.3271(4) 0.4909(2)
N8 N 0.2771(4) 0.5597(4) 0.5544(2)
C21 C 0.4724(7) 0.2109(5) 0.4575(3)
H13 H 0.5822 0.2055 0.4347
C22 C 0.3896(9) 0.0987(6) 0.4559(5)
H14 H 0.4430 0.0193 0.4310
C23 C 0.2326(9) 0.1046(7) 0.4902(5)
H15 H 0.1763 0.0293 0.4891
C24 C 0.1532(7) 0.2238(6) 0.5277(4)
H16 H 0.0443 0.2295 0.5526
C25 C 0.2421(6) 0.3333(5) 0.5267(3)
C26 C 0.1715(6) 0.4637(5) 0.5636(3)
C27 C 0.0112(6) 0.4938(7) 0.6054(4)
H17 H -0.0615 0.4284 0.6122
C28 C -0.0351(7) 0.6200(8) 0.6355(4)
H18 H -0.1402 0.6410 0.6645
C29 C 0.0702(7) 0.7167(7) 0.6239(4)
H19 H 0.0366 0.8043 0.6431
C30 C 0.2270(6) 0.6831(5) 0.5835(3)
H20 H 0.2996 0.7487 0.5764
O2_2 O 0.7010(5) 0.4165(4) 0.4350(3)
Cu1_2 Cu -0.49984(7) 0.49995(6) 0.50008(4)
Co2 Co 0.00347(5) 0.14461(4) 0.82239(3)
N9 N -0.1742(4) 0.0339(3) 0.85282(19)
C31 C -0.2395(5) -0.0188(4) 0.9270(2)
O10 O -0.1982(4) 0.0021(3) 0.99167(17)
N10 N -0.3670(4) -0.0967(3) 0.9295(2)
H21 H -0.4126 -0.1252 0.9772
C32 C -0.4286(5) -0.1335(4) 0.8644(3)
O11 O -0.5386(4) -0.2065(3) 0.8775(2)
C33 C -0.3520(5) -0.0781(4) 0.7875(3)
H22 H -0.3843 -0.0967 0.7394
C34 C -0.2319(5) 0.0017(4) 0.7858(2)
C35 C -0.1512(5) 0.0691(4) 0.7084(2)
O12 O -0.0574(4) 0.1583(3) 0.71978(17)
O13 O -0.1757(4) 0.0416(3) 0.64164(17)
N11 N 0.1908(4) 0.2384(3) 0.7736(2)
C36 C 0.2194(5) 0.3681(4) 0.7825(3)
O14 O 0.1272(4) 0.4513(3) 0.8288(2)
N12 N 0.3617(4) 0.4074(3) 0.7370(2)
H23 H 0.3774 0.4912 0.7407
C37 C 0.4794(5) 0.3298(4) 0.6873(3)
O15 O 0.6058(4) 0.3777(3) 0.6515(3)
C38 C 0.4432(5) 0.1921(4) 0.6802(3)
H24 H 0.5154 0.1306 0.6463
C39 C 0.3035(5) 0.1552(4) 0.7234(2)
C40 C 0.2607(5) 0.0117(4) 0.7244(3)
O16 O 0.1376(3) -0.0135(3) 0.78037(18)
O17 O 0.3435(4) -0.0729(3) 0.67646(18)
N13 N 0.0675(4) 0.1415(4) 0.9253(2)
N14 N -0.1319(4) 0.3013(3) 0.8671(2)
C41 C 0.1741(5) 0.0497(5) 0.9503(3)
H25 H 0.2241 -0.0204 0.9151
C42 C 0.2112(6) 0.0564(6) 1.0257(3)
H26 H 0.2855 -0.0079 1.0415
C43 C 0.1377(7) 0.1584(6) 1.0771(3)
H27 H 0.1615 0.1639 1.1287
C44 C 0.0285(7) 0.2536(5) 1.0533(3)
H28 H -0.0220 0.3235 1.0886
C45 C -0.0055(5) 0.2443(4) 0.9764(3)
C46 C -0.1152(5) 0.3357(4) 0.9419(3)
C47 C -0.2024(6) 0.4526(5) 0.9791(3)
H29 H -0.1926 0.4773 1.0311
C48 C -0.3032(6) 0.5313(5) 0.9382(3)
H30 H -0.3607 0.6100 0.9621
C49 C -0.3173(6) 0.4931(5) 0.8638(4)
H31 H -0.3860 0.5447 0.8362
C50 C -0.2300(6) 0.3775(5) 0.8282(3)
H32 H -0.2396 0.3522 0.7764
O18 O -0.1279(6) 0.1097(4) 0.3410(3)
H33 H -0.127(8) 0.068(6) 0.308(3)
O19 O 0.4181(6) 0.6755(3) 0.7426(2)
H34 H 0.403(6) 0.691(5) 0.794(2)
H35 H 0.382(6) 0.747(4) 0.719(3)
O20 O 0.7060(7) 0.8656(5) 0.5427(3)
O21 O -0.0154(5) 0.7310(4) 0.8382(3)
H36 H 0.043(7) 0.644(5) 0.829(4)
H37 H 0.065(7) 0.785(6) 0.809(3)
O22 O 0.3202(6) 1.0435(5) 0.2365(3)
H38 H 0.250(9) 1.105(8) 0.266(4)
loop_
_geom_bond_atom_site_label_1
_geom_bond_atom_site_label_2
_geom_bond_site_symmetry_1
_geom_bond_site_symmetry_2
Co1 N1 1_555 1_555
N1 C1 1_555 1_555
C1 O1 1_555 1_555
N2 C1 1_555 1_555
H1 N2 1_555 1_555
C2 N2 1_555 1_555
O2 C2 1_555 1_555
C3 C2 1_555 1_555
H2 C3 1_555 1_555
C4 N1 1_555 1_555
C5 C4 1_555 1_555
O3 Co1 1_555 1_555
O4 C5 1_555 1_555
N3 Co1 1_555 1_555
C6 N3 1_555 1_555
O5 C6 1_555 1_555
N4 C6 1_555 1_555
H3 N4 1_555 1_555
C7 N4 1_555 1_555
O6 C7 1_555 1_555
C8 C7 1_555 1_555
H4 C8 1_555 1_555
C9 N3 1_555 1_555
C10 C9 1_555 1_555
O7 Co1 1_555 1_555
O8 C10 1_555 1_555
N5 Co1 1_555 1_555
N6 Co1 1_555 1_555
C11 N5 1_555 1_555
H5 C11 1_555 1_555
C12 C11 1_555 1_555
H6 C12 1_555 1_555
C13 C12 1_555 1_555
H7 C13 1_555 1_555
C14 C13 1_555 1_555
H8 C14 1_555 1_555
C15 N5 1_555 1_555
C16 N6 1_555 1_555
C17 C16 1_555 1_555
H9 C17 1_555 1_555
C18 C17 1_555 1_555
H10 C18 1_555 1_555
C19 C18 1_555 1_555
H11 C19 1_555 1_555
C20 N6 1_555 1_555
H12 C20 1_555 1_555
Cu1 O8 1_555 1_555
O9 Cu1 1_555 1_555
N7 Cu1 1_555 1_555
N8 Cu1 1_555 1_555
C21 N7 1_555 1_555
H13 C21 1_555 1_555
C22 C21 1_555 1_555
H14 C22 1_555 1_555
C23 C22 1_555 1_555
H15 C23 1_555 1_555
C24 C23 1_555 1_555
H16 C24 1_555 1_555
C25 N7 1_555 1_555
C26 N8 1_555 1_555
C27 C26 1_555 1_555
H17 C27 1_555 1_555
C28 C27 1_555 1_555
H18 C28 1_555 1_555
C29 C28 1_555 1_555
H19 C29 1_555 1_555
C30 N8 1_555 1_555
H20 C30 1_555 1_555
Co2 N9 1_555 1_555
N9 C31 1_555 1_555
C31 O10 1_555 1_555
N10 C31 1_555 1_555
H21 N10 1_555 1_555
C32 N10 1_555 1_555
O11 C32 1_555 1_555
C33 C32 1_555 1_555
H22 C33 1_555 1_555
C34 N9 1_555 1_555
C35 C34 1_555 1_555
O12 Co2 1_555 1_555
O13 C35 1_555 1_555
N11 Co2 1_555 1_555
C36 N11 1_555 1_555
O14 C36 1_555 1_555
N12 C36 1_555 1_555
H23 N12 1_555 1_555
C37 N12 1_555 1_555
O15 C37 1_555 1_555
C38 C37 1_555 1_555
H24 C38 1_555 1_555
C39 N11 1_555 1_555
C40 C39 1_555 1_555
O16 Co2 1_555 1_555
O17 C40 1_555 1_555
N13 Co2 1_555 1_555
N14 Co2 1_555 1_555
C41 N13 1_555 1_555
H25 C41 1_555 1_555
C42 C41 1_555 1_555
H26 C42 1_555 1_555
C43 C42 1_555 1_555
H27 C43 1_555 1_555
C44 C43 1_555 1_555
H28 C44 1_555 1_555
C45 N13 1_555 1_555
C46 N14 1_555 1_555
C47 C46 1_555 1_555
H29 C47 1_555 1_555
C48 C47 1_555 1_555
H30 C48 1_555 1_555
C49 C48 1_555 1_555
H31 C49 1_555 1_555
C50 N14 1_555 1_555
H32 C50 1_555 1_555
O18 H33 1_555 1_555
O19 H34 1_555 1_555
H35 O19 1_555 1_555
O21 H36 1_555 1_555
H37 O21 1_555 1_555
O22 H38 1_555 1_555
O2_2 Cu1 1_555 1_555
Cu1_2 O2 1_555 1_555
C3 C4 1_555 1_555
C5 O3 1_555 1_555
C8 C9 1_555 1_555
C10 O7 1_555 1_555
C14 C15 1_555 1_555
C15 C16 1_555 1_555
C19 C20 1_555 1_555
C24 C25 1_555 1_555
C25 C26 1_555 1_555
C29 C30 1_555 1_555
C33 C34 1_555 1_555
C35 O12 1_555 1_555
C38 C39 1_555 1_555
C40 O16 1_555 1_555
C44 C45 1_555 1_555
C45 C46 1_555 1_555
C49 C50 1_555 1_555

#END
