
#######################################################################
#
#                 Cambridge Crystallographic Data Centre
#                                CCDC 
#
#######################################################################
#
# If this CIF has been generated from an entry in the Cambridge 
# Structural Database, then it will include bibliographic, chemical, 
# crystal, experimental, refinement or atomic coordinate data resulting 
# from the CCDC's data processing and validation procedures.
#
#######################################################################

data_HUCXEK
_symmetry_cell_setting           monoclinic
_symmetry_space_group_name_H-M   'P 21/n'
_symmetry_Int_Tables_number      14
_space_group_name_Hall           '-P 2yn'
loop_
_symmetry_equiv_pos_site_id
_symmetry_equiv_pos_as_xyz
1 x,y,z
2 1/2-x,1/2+y,1/2-z
3 -x,-y,-z
4 1/2+x,1/2-y,1/2+z
_cell_length_a                   16.2538(5)
_cell_length_b                   8.7093(3)
_cell_length_c                   20.8595(6)
_cell_angle_alpha                90
_cell_angle_beta                 94.891(3)
_cell_angle_gamma                90
_cell_volume                     2942.1
loop_
_atom_site_label
_atom_site_type_symbol
_atom_site_fract_x
_atom_site_fract_y
_atom_site_fract_z
Tb1 Tb 0.242390(16) 0.22123(4) 0.712416(13)
O1 O 0.1259(3) 0.3573(5) 0.6622(2)
O2 O 0.3693(3) 0.3201(6) 0.7484(2)
O3 O 1.1792(3) 0.5384(5) 0.8395(2)
O4 O 1.1784(3) 0.2997(5) 0.8016(2)
O5 O 0.3632(3) 0.5439(5) 0.7989(2)
O6 O 0.2120(2) 0.5330(5) 0.70467(19)
O7 O 0.2784(3) 0.3218(6) 0.6131(2)
N1 N -0.0148(4) 0.9341(7) 0.4991(3)
N2 N 0.7548(5) 0.4578(10) 0.8402(4)
N3 N 0.7856(5) 0.3605(11) 0.8121(4)
N4 N 0.3514(7) 0.2767(12) 0.5300(5)
C1 C 0.1517(4) 0.4925(7) 0.6657(3)
C2 C 0.1106(4) 0.6089(8) 0.6205(3)
C3 C 0.1487(4) 0.7490(8) 0.6104(3)
H1 H 0.2006 0.7697 0.6309
C4 C 0.1096(4) 0.8576(9) 0.5698(3)
H2 H 0.1354 0.9508 0.5632
C5 C 0.0321(4) 0.8277(9) 0.5391(3)
C6 C -0.0039(5) 0.6845(9) 0.5468(4)
H3 H -0.0546 0.6623 0.5247
C7 C 0.0344(4) 0.5755(9) 0.5867(3)
H4 H 0.0099 0.4800 0.5911
C8 C 0.4014(4) 0.4312(8) 0.7798(3)
C9 C 0.4931(4) 0.4263(9) 0.7966(3)
C10 C 0.5319(5) 0.5379(10) 0.8367(4)
H5 H 0.4999 0.6126 0.8545
C11 C 0.6160(5) 0.5403(12) 0.8506(4)
H6 H 0.6407 0.6155 0.8774
C12 C 0.6626(6) 0.4298(14) 0.8241(5)
C13 C 0.6260(6) 0.3122(14) 0.7858(6)
H7 H 0.6582 0.2360 0.7692
C14 C 0.5397(5) 0.3115(11) 0.7729(5)
H8 H 0.5142 0.2332 0.7483
C15 C 1.1433(4) 0.4149(8) 0.8224(3)
C16 C 1.0509(4) 0.4071(9) 0.8262(3)
C17 C 1.0092(5) 0.5161(10) 0.8588(4)
H9 H 1.0378 0.5943 0.8815
C18 C 0.9223(5) 0.5069(11) 0.8573(4)
H10 H 0.8936 0.5790 0.8796
C19 C 0.8800(6) 0.3940(13) 0.8237(4)
C20 C 0.9218(5) 0.2860(15) 0.7927(5)
H11 H 0.8925 0.2082 0.7704
C21 C 1.0074(5) 0.2888(11) 0.7935(4)
H12 H 1.0353 0.2130 0.7725
C22 C 0.3382(6) 0.3357(13) 0.5801(5)
C23 C 0.4125(7) 0.4500(12) 0.6052(5)
H13 H 0.3985 0.5015 0.6435
H14 H 0.4209 0.5245 0.5725
H15 H 0.4622 0.3917 0.6146
C24 C 0.4216(7) 0.2870(13) 0.4910(5)
H16 H 0.4120 0.3674 0.4598
H17 H 0.4282 0.1911 0.4694
H18 H 0.4708 0.3092 0.5183
C25 C 0.2760(9) 0.1752(16) 0.5063(5)
H19 H 0.2863 0.0709 0.5194
H20 H 0.2677 0.1800 0.4602
H21 H 0.2275 0.2122 0.5246
O1B O -0.1259(3) 1.6427(5) 0.3378(2)
N1B N 0.0148(4) 1.0659(7) 0.5009(3)
C1B C -0.1517(4) 1.5075(7) 0.3343(3)
C2B C -0.1106(4) 1.3911(8) 0.3795(3)
C3B C -0.1487(4) 1.2510(8) 0.3896(3)
H1B H -0.2006 1.2303 0.3691
C4B C -0.1096(4) 1.1424(9) 0.4302(3)
H2B H -0.1354 1.0492 0.4368
C5B C -0.0321(4) 1.1723(9) 0.4609(3)
C6B C 0.0039(5) 1.3155(9) 0.4532(4)
H3B H 0.0546 1.3377 0.4753
C7B C -0.0344(4) 1.4245(9) 0.4133(3)
H4B H -0.0099 1.5200 0.4089
O6B O -0.2120(2) 1.4670(5) 0.29533(19)
Tb1B Tb -0.242390(16) 1.77877(4) 0.287584(13)
O2B O -0.3693(3) 1.6799(6) 0.2516(2)
O3B O -1.1792(3) 1.4616(5) 0.1605(2)
O4B O -1.1784(3) 1.7003(5) 0.1984(2)
O5B O -0.3632(3) 1.4561(5) 0.2011(2)
O7B O -0.2784(3) 1.6782(6) 0.3869(2)
N2B N -0.7548(5) 1.5422(10) 0.1598(4)
N3B N -0.7856(5) 1.6395(11) 0.1879(4)
N4B N -0.3514(7) 1.7233(12) 0.4700(5)
C8B C -0.4014(4) 1.5688(8) 0.2202(3)
C9B C -0.4931(4) 1.5737(9) 0.2034(3)
C10B C -0.5319(5) 1.4621(10) 0.1633(4)
H5B H -0.4999 1.3874 0.1455
C11B C -0.6160(5) 1.4597(12) 0.1494(4)
H6B H -0.6407 1.3845 0.1226
C12B C -0.6626(6) 1.5702(14) 0.1759(5)
C13B C -0.6260(6) 1.6878(14) 0.2142(6)
H7B H -0.6582 1.7640 0.2308
C14B C -0.5397(5) 1.6885(11) 0.2271(5)
H8B H -0.5142 1.7668 0.2517
C15B C -1.1433(4) 1.5851(8) 0.1776(3)
C16B C -1.0509(4) 1.5929(9) 0.1738(3)
C17B C -1.0092(5) 1.4839(10) 0.1412(4)
H9B H -1.0378 1.4057 0.1185
C18B C -0.9223(5) 1.4931(11) 0.1427(4)
H10B H -0.8936 1.4210 0.1204
C19B C -0.8800(6) 1.6060(13) 0.1763(4)
C20B C -0.9218(5) 1.7140(15) 0.2073(5)
H11B H -0.8925 1.7918 0.2296
C21B C -1.0074(5) 1.7112(11) 0.2065(4)
H12B H -1.0353 1.7870 0.2275
C22B C -0.3382(6) 1.6643(13) 0.4199(5)
C23B C -0.4125(7) 1.5500(12) 0.3948(5)
H13B H -0.3985 1.4985 0.3565
H14B H -0.4209 1.4755 0.4275
H15B H -0.4622 1.6083 0.3854
C24B C -0.4216(7) 1.7130(13) 0.5090(5)
H16B H -0.4120 1.6326 0.5402
H17B H -0.4282 1.8089 0.5306
H18B H -0.4708 1.6908 0.4817
C25B C -0.2760(9) 1.8248(16) 0.4937(5)
H19B H -0.2863 1.9291 0.4806
H20B H -0.2677 1.8200 0.5398
H21B H -0.2275 1.7878 0.4754
Tb1_2 Tb 1.242390(16) 0.22123(4) 0.712416(13)
Tb1A Tb 0.257610(16) 0.72123(4) 0.787584(13)
Tb1A_2 Tb 1.257610(16) 0.72123(4) 0.787584(13)
Tb1B_2 Tb -1.242390(16) 1.77877(4) 0.287584(13)
Tb1C Tb -1.257610(16) 1.27877(4) 0.212416(13)
Tb1C_2 Tb -0.257610(16) 1.27877(4) 0.212416(13)
O3A O 0.3208(3) 0.0384(5) 0.6605(2)
O3C O -0.3208(3) 1.9616(5) 0.3395(2)
O4_2 O 0.1784(3) 0.2997(5) 0.8016(2)
O4B_2 O -0.1784(3) 1.7003(5) 0.1984(2)
O5A O 0.1368(3) 0.0439(5) 0.7011(2)
O5C O -0.1368(3) 1.9561(5) 0.2989(2)
O6A O 0.2880(2) 0.0330(5) 0.79533(19)
O6C O -0.2880(2) 1.9670(5) 0.20467(19)
O8 O 0.3924(6) 0.6645(14) 0.4343(6)
N5 N 0.2642(7) 0.5919(14) 0.4185(5)
C26 C 0.3279(8) 0.6601(17) 0.4507(6)
C27 C 0.3105(11) 0.733(2) 0.5161(10)
H22 H 0.3605 0.7340 0.5442
H23 H 0.2694 0.6732 0.5353
H24 H 0.2908 0.8359 0.5092
C28 C 0.1839(9) 0.576(2) 0.4446(10)
H25 H 0.1914 0.5361 0.4875
H26 H 0.1497 0.5078 0.4179
H27 H 0.1578 0.6752 0.4454
C29 C 0.2789(13) 0.533(3) 0.3562(10)
H28 H 0.3311 0.5707 0.3443
H29 H 0.2357 0.5671 0.3252
H30 H 0.2798 0.4232 0.3575
loop_
_geom_bond_atom_site_label_1
_geom_bond_atom_site_label_2
_geom_bond_site_symmetry_1
_geom_bond_site_symmetry_2
Tb1 O1 1_555 1_555
O1 C1 1_555 1_555
O2 Tb1 1_555 1_555
O3 C15 1_555 1_555
O4 C15 1_555 1_555
O5 C8 1_555 1_555
O6 Tb1 1_555 1_555
O7 Tb1 1_555 1_555
N1 C5 1_555 1_555
N2 N3 1_555 1_555
N3 C19 1_555 1_555
N4 C22 1_555 1_555
C1 O6 1_555 1_555
C2 C1 1_555 1_555
C3 C2 1_555 1_555
H1 C3 1_555 1_555
C4 C3 1_555 1_555
H2 C4 1_555 1_555
C5 C4 1_555 1_555
C6 C5 1_555 1_555
H3 C6 1_555 1_555
C7 C2 1_555 1_555
H4 C7 1_555 1_555
C8 O2 1_555 1_555
C9 C8 1_555 1_555
C10 C9 1_555 1_555
H5 C10 1_555 1_555
C11 C10 1_555 1_555
H6 C11 1_555 1_555
C12 N2 1_555 1_555
C13 C12 1_555 1_555
H7 C13 1_555 1_555
C14 C9 1_555 1_555
H8 C14 1_555 1_555
C15 C16 1_555 1_555
C16 C17 1_555 1_555
C17 H9 1_555 1_555
C18 C17 1_555 1_555
H10 C18 1_555 1_555
C19 C18 1_555 1_555
C20 C19 1_555 1_555
H11 C20 1_555 1_555
C21 C16 1_555 1_555
H12 C21 1_555 1_555
C22 O7 1_555 1_555
C23 C22 1_555 1_555
H13 C23 1_555 1_555
H14 C23 1_555 1_555
H15 C23 1_555 1_555
C24 N4 1_555 1_555
H16 C24 1_555 1_555
H17 C24 1_555 1_555
H18 C24 1_555 1_555
C25 N4 1_555 1_555
H19 C25 1_555 1_555
H20 C25 1_555 1_555
H21 C25 1_555 1_555
O8 C26 1_555 1_555
N5 C26 1_555 1_555
C26 C27 1_555 1_555
C27 H22 1_555 1_555
H23 C27 1_555 1_555
H24 C27 1_555 1_555
C28 N5 1_555 1_555
H25 C28 1_555 1_555
H26 C28 1_555 1_555
H27 C28 1_555 1_555
C29 N5 1_555 1_555
H28 C29 1_555 1_555
H29 C29 1_555 1_555
H30 C29 1_555 1_555
O1B C1B 1_555 1_555
N1B N1 1_555 1_555
C1B C2B 1_555 1_555
C2B C3B 1_555 1_555
C3B H1B 1_555 1_555
C4B C3B 1_555 1_555
H2B C4B 1_555 1_555
C5B N1B 1_555 1_555
C6B C5B 1_555 1_555
H3B C6B 1_555 1_555
C7B C2B 1_555 1_555
H4B C7B 1_555 1_555
O6B C1B 1_555 1_555
Tb1B O1B 1_555 1_555
O2B Tb1B 1_555 1_555
O3B C15B 1_555 1_555
O4B C15B 1_555 1_555
O5B C8B 1_555 1_555
O7B Tb1B 1_555 1_555
N2B N3B 1_555 1_555
N3B C19B 1_555 1_555
N4B C22B 1_555 1_555
C8B O2B 1_555 1_555
C9B C8B 1_555 1_555
C10B C9B 1_555 1_555
H5B C10B 1_555 1_555
C11B C10B 1_555 1_555
H6B C11B 1_555 1_555
C12B N2B 1_555 1_555
C13B C12B 1_555 1_555
H7B C13B 1_555 1_555
C14B C9B 1_555 1_555
H8B C14B 1_555 1_555
C15B C16B 1_555 1_555
C16B C17B 1_555 1_555
C17B H9B 1_555 1_555
C18B C17B 1_555 1_555
H10B C18B 1_555 1_555
C19B C18B 1_555 1_555
C20B C19B 1_555 1_555
H11B C20B 1_555 1_555
C21B C16B 1_555 1_555
H12B C21B 1_555 1_555
C22B O7B 1_555 1_555
C23B C22B 1_555 1_555
H13B C23B 1_555 1_555
H14B C23B 1_555 1_555
H15B C23B 1_555 1_555
C24B N4B 1_555 1_555
H16B C24B 1_555 1_555
H17B C24B 1_555 1_555
H18B C24B 1_555 1_555
C25B N4B 1_555 1_555
H19B C25B 1_555 1_555
H20B C25B 1_555 1_555
H21B C25B 1_555 1_555
Tb1_2 O4 1_555 1_555
Tb1A O5 1_555 1_555
Tb1A_2 O3 1_555 1_555
Tb1B_2 O4B 1_555 1_555
Tb1C O3B 1_555 1_555
Tb1C_2 O6B 1_555 1_555
O3A Tb1 1_555 1_555
O3C Tb1B 1_555 1_555
O4_2 Tb1 1_555 1_555
O4B_2 Tb1B 1_555 1_555
O5A Tb1 1_555 1_555
O5C Tb1B 1_555 1_555
O6A Tb1 1_555 1_555
O6C Tb1B 1_555 1_555
O6 Tb1A 1_555 1_555
C6 C7 1_555 1_555
C11 C12 1_555 1_555
C13 C14 1_555 1_555
C20 C21 1_555 1_555
C4B C5B 1_555 1_555
C6B C7B 1_555 1_555
O6B Tb1B 1_555 1_555
O5B Tb1C_2 1_555 1_555
C11B C12B 1_555 1_555
C13B C14B 1_555 1_555
C20B C21B 1_555 1_555

#END
