
#######################################################################
#
#                 Cambridge Crystallographic Data Centre
#                                CCDC 
#
#######################################################################
#
# If this CIF has been generated from an entry in the Cambridge 
# Structural Database, then it will include bibliographic, chemical, 
# crystal, experimental, refinement or atomic coordinate data resulting 
# from the CCDC's data processing and validation procedures.
#
#######################################################################

data_HUCXOU
_symmetry_cell_setting           monoclinic
_symmetry_space_group_name_H-M   'P 21/n'
_symmetry_Int_Tables_number      14
_space_group_name_Hall           '-P 2yn'
loop_
_symmetry_equiv_pos_site_id
_symmetry_equiv_pos_as_xyz
1 x,y,z
2 1/2-x,1/2+y,1/2-z
3 -x,-y,-z
4 1/2+x,1/2-y,1/2+z
_cell_length_a                   16.1925(5)
_cell_length_b                   8.6926(3)
_cell_length_c                   20.8815(6)
_cell_angle_alpha                90
_cell_angle_beta                 94.797(3)
_cell_angle_gamma                90
_cell_volume                     2928.88
loop_
_atom_site_label
_atom_site_type_symbol
_atom_site_fract_x
_atom_site_fract_y
_atom_site_fract_z
Ho1 Ho 0.242991(17) 0.22276(3) 0.712917(13)
O1 O 0.1287(3) 0.3598(5) 0.6630(2)
O2 O 0.3672(3) 0.3246(5) 0.7491(2)
O3 O 1.1783(3) 0.5415(5) 0.8379(2)
O4 O 1.1788(3) 0.3021(5) 0.8003(2)
O5 O 0.3619(3) 0.5482(5) 0.7997(2)
O6 O 0.2138(3) 0.5369(5) 0.7052(2)
O7 O 0.2792(3) 0.3212(6) 0.6146(2)
N1 N -0.0143(4) 0.9331(6) 0.4991(3)
N2 N 0.7550(5) 0.4588(9) 0.8410(4)
N3 N 0.7839(5) 0.3605(10) 0.8113(4)
N4 N 0.3518(6) 0.2772(10) 0.5309(4)
C1 C 0.1534(4) 0.4954(7) 0.6663(3)
C2 C 0.1120(4) 0.6110(7) 0.6205(3)
C3 C 0.1493(4) 0.7518(7) 0.6100(3)
H1 H 0.2014 0.7730 0.6302
C4 C 0.1102(4) 0.8602(7) 0.5701(3)
H2 H 0.1352 0.9548 0.5640
C5 C 0.0329(5) 0.8265(8) 0.5391(3)
C6 C -0.0030(5) 0.6843(8) 0.5466(4)
H3 H -0.0533 0.6605 0.5241
C7 C 0.0359(5) 0.5772(8) 0.5878(3)
H4 H 0.0111 0.4823 0.5936
C8 C 0.4000(4) 0.4341(7) 0.7811(3)
C9 C 0.4913(4) 0.4282(8) 0.7984(3)
C10 C 0.5306(5) 0.5411(9) 0.8375(4)
H5 H 0.4993 0.6185 0.8544
C11 C 0.6147(5) 0.5393(11) 0.8511(4)
H6 H 0.6398 0.6129 0.8786
C12 C 0.6612(7) 0.4319(12) 0.8252(5)
C13 C 0.6244(5) 0.3142(11) 0.7874(5)
H7 H 0.6569 0.2370 0.7716
C14 C 0.5383(5) 0.3127(10) 0.7734(5)
H8 H 0.5130 0.2357 0.7477
C15 C 1.1429(4) 0.4184(7) 0.8211(3)
C16 C 1.0514(4) 0.4078(8) 0.8254(3)
C17 C 1.0084(5) 0.5163(9) 0.8585(4)
H9 H 1.0368 0.5945 0.8813
C18 C 0.9213(6) 0.5067(10) 0.8570(4)
H10 H 0.8925 0.5784 0.8795
C19 C 0.8790(6) 0.3937(12) 0.8231(4)
C20 C 0.9221(6) 0.2849(11) 0.7917(5)
H11 H 0.8934 0.2056 0.7697
C21 C 1.0072(6) 0.2911(11) 0.7922(4)
H12 H 1.0353 0.2171 0.7703
C22 C 0.3389(6) 0.3358(11) 0.5808(4)
C23 C 0.4120(7) 0.4517(12) 0.6064(5)
H13 H 0.3953 0.5080 0.6427
H14 H 0.4230 0.5222 0.5728
H15 H 0.4612 0.3938 0.6189
C24 C 0.4219(8) 0.2879(13) 0.4917(5)
H16 H 0.4096 0.3611 0.4578
H17 H 0.4321 0.1890 0.4734
H18 H 0.4702 0.3205 0.5180
C25 C 0.2768(9) 0.1741(17) 0.5086(5)
H19 H 0.2906 0.0683 0.5172
H20 H 0.2632 0.1879 0.4634
H21 H 0.2301 0.2023 0.5315
O1B O -0.1287(3) 1.6402(5) 0.3370(2)
N1B N 0.0143(4) 1.0669(6) 0.5009(3)
C1B C -0.1534(4) 1.5046(7) 0.3337(3)
C2B C -0.1120(4) 1.3890(7) 0.3795(3)
C3B C -0.1493(4) 1.2482(7) 0.3900(3)
H1B H -0.2014 1.2270 0.3698
C4B C -0.1102(4) 1.1398(7) 0.4299(3)
H2B H -0.1352 1.0452 0.4360
C5B C -0.0329(5) 1.1735(8) 0.4609(3)
C6B C 0.0030(5) 1.3157(8) 0.4534(4)
H3B H 0.0533 1.3395 0.4759
C7B C -0.0359(5) 1.4228(8) 0.4122(3)
H4B H -0.0111 1.5177 0.4064
O6B O -0.2138(3) 1.4631(5) 0.2948(2)
Ho1B Ho -0.242991(17) 1.77724(3) 0.287083(13)
O2B O -0.3672(3) 1.6754(5) 0.2509(2)
O3B O -1.1783(3) 1.4585(5) 0.1621(2)
O4B O -1.1788(3) 1.6979(5) 0.1997(2)
O5B O -0.3619(3) 1.4518(5) 0.2003(2)
O7B O -0.2792(3) 1.6788(6) 0.3854(2)
N2B N -0.7550(5) 1.5412(9) 0.1590(4)
N3B N -0.7839(5) 1.6395(10) 0.1887(4)
N4B N -0.3518(6) 1.7228(10) 0.4691(4)
C8B C -0.4000(4) 1.5659(7) 0.2189(3)
C9B C -0.4913(4) 1.5718(8) 0.2016(3)
C10B C -0.5306(5) 1.4589(9) 0.1625(4)
H5B H -0.4993 1.3815 0.1456
C11B C -0.6147(5) 1.4607(11) 0.1489(4)
H6B H -0.6398 1.3871 0.1214
C12B C -0.6612(7) 1.5681(12) 0.1748(5)
C13B C -0.6244(5) 1.6858(11) 0.2126(5)
H7B H -0.6569 1.7630 0.2284
C14B C -0.5383(5) 1.6873(10) 0.2266(5)
H8B H -0.5130 1.7643 0.2523
C15B C -1.1429(4) 1.5816(7) 0.1789(3)
C16B C -1.0514(4) 1.5922(8) 0.1746(3)
C17B C -1.0084(5) 1.4837(9) 0.1415(4)
H9B H -1.0368 1.4055 0.1187
C18B C -0.9213(6) 1.4933(10) 0.1430(4)
H10B H -0.8925 1.4216 0.1205
C19B C -0.8790(6) 1.6063(12) 0.1769(4)
C20B C -0.9221(6) 1.7151(11) 0.2083(5)
H11B H -0.8934 1.7944 0.2303
C21B C -1.0072(6) 1.7089(11) 0.2078(4)
H12B H -1.0353 1.7829 0.2297
C22B C -0.3389(6) 1.6642(11) 0.4192(4)
C23B C -0.4120(7) 1.5483(12) 0.3936(5)
H13B H -0.3953 1.4920 0.3573
H14B H -0.4230 1.4778 0.4272
H15B H -0.4612 1.6062 0.3811
C24B C -0.4219(8) 1.7121(13) 0.5083(5)
H16B H -0.4096 1.6389 0.5422
H17B H -0.4321 1.8110 0.5266
H18B H -0.4702 1.6795 0.4820
C25B C -0.2768(9) 1.8259(17) 0.4914(5)
H19B H -0.2906 1.9317 0.4828
H20B H -0.2632 1.8121 0.5366
H21B H -0.2301 1.7977 0.4685
Ho1_2 Ho 1.242991(17) 0.22276(3) 0.712917(13)
Ho1A Ho 0.257009(17) 0.72276(3) 0.787083(13)
Ho1A_2 Ho 1.257009(17) 0.72276(3) 0.787083(13)
Ho1B_2 Ho -1.242991(17) 1.77724(3) 0.287083(13)
Ho1C Ho -1.257009(17) 1.27724(3) 0.212917(13)
Ho1C_2 Ho -0.257009(17) 1.27724(3) 0.212917(13)
O3A O 0.3217(3) 0.0415(5) 0.6621(2)
O3C O -0.3217(3) 1.9585(5) 0.3379(2)
O4_2 O 0.1788(3) 0.3021(5) 0.8003(2)
O4B_2 O -0.1788(3) 1.6979(5) 0.1997(2)
O5A O 0.1381(3) 0.0482(5) 0.7003(2)
O5C O -0.1381(3) 1.9518(5) 0.2997(2)
O6A O 0.2862(3) 0.0369(5) 0.7948(2)
O6C O -0.2862(3) 1.9631(5) 0.2052(2)
O8 O 0.3926(7) 0.6656(12) 0.4339(6)
N5 N 0.2647(7) 0.5930(13) 0.4182(5)
C26 C 0.3294(9) 0.6601(15) 0.4496(6)
C27 C 0.3108(13) 0.732(2) 0.5147(9)
H22 H 0.3601 0.7301 0.5437
H23 H 0.2679 0.6742 0.5328
H24 H 0.2929 0.8365 0.5081
C28 C 0.1849(10) 0.5768(18) 0.4443(11)
H25 H 0.1911 0.5148 0.4824
H26 H 0.1465 0.5284 0.4131
H27 H 0.1644 0.6766 0.4547
C29 C 0.2792(13) 0.531(3) 0.3555(9)
H28 H 0.3236 0.5869 0.3383
H29 H 0.2297 0.5420 0.3270
H30 H 0.2937 0.4246 0.3596
loop_
_geom_bond_atom_site_label_1
_geom_bond_atom_site_label_2
_geom_bond_site_symmetry_1
_geom_bond_site_symmetry_2
Ho1 O1 1_555 1_555
O1 C1 1_555 1_555
O2 Ho1 1_555 1_555
O3 C15 1_555 1_555
O4 C15 1_555 1_555
O5 C8 1_555 1_555
O6 Ho1 1_555 1_555
O7 Ho1 1_555 1_555
N1 C5 1_555 1_555
N2 N3 1_555 1_555
N3 C19 1_555 1_555
N4 C22 1_555 1_555
C1 O6 1_555 1_555
C2 C1 1_555 1_555
C3 C2 1_555 1_555
H1 C3 1_555 1_555
C4 C3 1_555 1_555
H2 C4 1_555 1_555
C5 C4 1_555 1_555
C6 C5 1_555 1_555
H3 C6 1_555 1_555
C7 C2 1_555 1_555
H4 C7 1_555 1_555
C8 O2 1_555 1_555
C9 C8 1_555 1_555
C10 C9 1_555 1_555
H5 C10 1_555 1_555
C11 C10 1_555 1_555
H6 C11 1_555 1_555
C12 N2 1_555 1_555
C13 C12 1_555 1_555
H7 C13 1_555 1_555
C14 C9 1_555 1_555
H8 C14 1_555 1_555
C15 C16 1_555 1_555
C16 C17 1_555 1_555
C17 H9 1_555 1_555
C18 C17 1_555 1_555
H10 C18 1_555 1_555
C19 C18 1_555 1_555
C20 C19 1_555 1_555
H11 C20 1_555 1_555
C21 C16 1_555 1_555
H12 C21 1_555 1_555
C22 O7 1_555 1_555
C23 C22 1_555 1_555
H13 C23 1_555 1_555
H14 C23 1_555 1_555
H15 C23 1_555 1_555
C24 N4 1_555 1_555
H16 C24 1_555 1_555
H17 C24 1_555 1_555
H18 C24 1_555 1_555
C25 N4 1_555 1_555
H19 C25 1_555 1_555
H20 C25 1_555 1_555
H21 C25 1_555 1_555
O8 C26 1_555 1_555
N5 C26 1_555 1_555
C26 C27 1_555 1_555
C27 H22 1_555 1_555
H23 C27 1_555 1_555
H24 C27 1_555 1_555
C28 N5 1_555 1_555
H25 C28 1_555 1_555
H26 C28 1_555 1_555
H27 C28 1_555 1_555
C29 N5 1_555 1_555
H28 C29 1_555 1_555
H29 C29 1_555 1_555
H30 C29 1_555 1_555
O1B C1B 1_555 1_555
N1B N1 1_555 1_555
C1B C2B 1_555 1_555
C2B C3B 1_555 1_555
C3B H1B 1_555 1_555
C4B C3B 1_555 1_555
H2B C4B 1_555 1_555
C5B N1B 1_555 1_555
C6B C5B 1_555 1_555
H3B C6B 1_555 1_555
C7B C2B 1_555 1_555
H4B C7B 1_555 1_555
O6B C1B 1_555 1_555
Ho1B O1B 1_555 1_555
O2B Ho1B 1_555 1_555
O3B C15B 1_555 1_555
O4B C15B 1_555 1_555
O5B C8B 1_555 1_555
O7B Ho1B 1_555 1_555
N2B N3B 1_555 1_555
N3B C19B 1_555 1_555
N4B C22B 1_555 1_555
C8B O2B 1_555 1_555
C9B C8B 1_555 1_555
C10B C9B 1_555 1_555
H5B C10B 1_555 1_555
C11B C10B 1_555 1_555
H6B C11B 1_555 1_555
C12B N2B 1_555 1_555
C13B C12B 1_555 1_555
H7B C13B 1_555 1_555
C14B C9B 1_555 1_555
H8B C14B 1_555 1_555
C15B C16B 1_555 1_555
C16B C17B 1_555 1_555
C17B H9B 1_555 1_555
C18B C17B 1_555 1_555
H10B C18B 1_555 1_555
C19B C18B 1_555 1_555
C20B C19B 1_555 1_555
H11B C20B 1_555 1_555
C21B C16B 1_555 1_555
H12B C21B 1_555 1_555
C22B O7B 1_555 1_555
C23B C22B 1_555 1_555
H13B C23B 1_555 1_555
H14B C23B 1_555 1_555
H15B C23B 1_555 1_555
C24B N4B 1_555 1_555
H16B C24B 1_555 1_555
H17B C24B 1_555 1_555
H18B C24B 1_555 1_555
C25B N4B 1_555 1_555
H19B C25B 1_555 1_555
H20B C25B 1_555 1_555
H21B C25B 1_555 1_555
Ho1_2 O4 1_555 1_555
Ho1A O5 1_555 1_555
Ho1A_2 O3 1_555 1_555
Ho1B_2 O4B 1_555 1_555
Ho1C O3B 1_555 1_555
Ho1C_2 O6B 1_555 1_555
O3A Ho1 1_555 1_555
O3C Ho1B 1_555 1_555
O4_2 Ho1 1_555 1_555
O4B_2 Ho1B 1_555 1_555
O5A Ho1 1_555 1_555
O5C Ho1B 1_555 1_555
O6A Ho1 1_555 1_555
O6C Ho1B 1_555 1_555
O6 Ho1A 1_555 1_555
C6 C7 1_555 1_555
C11 C12 1_555 1_555
C13 C14 1_555 1_555
C20 C21 1_555 1_555
C4B C5B 1_555 1_555
C6B C7B 1_555 1_555
O6B Ho1B 1_555 1_555
O5B Ho1C_2 1_555 1_555
C11B C12B 1_555 1_555
C13B C14B 1_555 1_555
C20B C21B 1_555 1_555

#END
