
#######################################################################
#
#                 Cambridge Crystallographic Data Centre
#                                CCDC 
#
#######################################################################
#
# If this CIF has been generated from an entry in the Cambridge 
# Structural Database, then it will include bibliographic, chemical, 
# crystal, experimental, refinement or atomic coordinate data resulting 
# from the CCDC's data processing and validation procedures.
#
#######################################################################

data_HUDKIC
_symmetry_cell_setting           monoclinic
_symmetry_space_group_name_H-M   'P 21/c'
_symmetry_Int_Tables_number      14
_space_group_name_Hall           '-P 2ybc'
loop_
_symmetry_equiv_pos_site_id
_symmetry_equiv_pos_as_xyz
1 x,y,z
2 -x,1/2+y,1/2-z
3 -x,-y,-z
4 x,1/2-y,1/2+z
_cell_length_a                   8.5179(6)
_cell_length_b                   15.1779(7)
_cell_length_c                   12.2602(10)
_cell_angle_alpha                90
_cell_angle_beta                 92.219(3)
_cell_angle_gamma                90
_cell_volume                     1583.86
loop_
_atom_site_label
_atom_site_type_symbol
_atom_site_fract_x
_atom_site_fract_y
_atom_site_fract_z
C1 C 0.6032(4) 0.4836(2) 0.8013(3)
C2 C 0.4995(4) 0.5549(2) 0.7988(3)
C3 C 0.3585(4) 0.5493(3) 0.8499(3)
H1 H 0.2902 0.5971 0.8489
C4 C 0.3193(5) 0.4721(3) 0.9027(4)
H2 H 0.2232 0.4677 0.9359
C5 C 0.4211(5) 0.4026(3) 0.9063(4)
H3 H 0.3942 0.3512 0.9424
C6 C 0.5640(5) 0.4080(2) 0.8567(3)
H4 H 0.6335 0.3607 0.8606
C7 C 1.0022(4) 0.7683(2) 0.6163(3)
C8 C 0.8190(4) 0.4220(2) 0.7149(2)
H5 H 0.7731 0.3668 0.7214
C9 C 0.9721(4) 0.4319(2) 0.6666(2)
C10 C 1.0600(5) 0.3617(3) 0.6320(3)
H6 H 1.0235 0.3043 0.6389
C11 C 1.2034(5) 0.3782(3) 0.5870(3)
H7 H 1.2658 0.3319 0.5641
C12 C 1.2522(5) 0.4640(3) 0.5767(3)
H8 H 1.3474 0.4767 0.5455
C13 C 1.1585(4) 0.5310(3) 0.6130(3)
H9 H 1.1921 0.5889 0.6057
C14 C 1.0075(4) 0.8651(2) 0.4769(3)
N1 N 0.7497(3) 0.49107(16) 0.7481(2)
N2 N 1.0215(3) 0.51563(18) 0.6583(2)
N3 N 0.9786(4) 0.7033(2) 0.6602(2)
N4 N 1.0353(4) 0.8451(2) 0.5790(2)
N5 N 0.9856(4) 0.8903(2) 0.3902(2)
O1 O 0.7027(3) 0.67793(16) 0.7730(2)
O2 O 0.5415(4) 0.6342(2) 0.6167(2)
O3 O 0.4296(4) 0.71795(19) 0.7629(3)
S1 S 0.54349(11) 0.65445(6) 0.73138(7)
Cu1 Cu 0.87830(5) 0.60209(2) 0.72753(3)
N5C N 0.9856(4) 0.6097(2) 0.8902(2)
Cu1C Cu 0.87830(5) 0.89791(2) 0.22753(3)
O4 O 0.3134(5) 0.7092(3) 0.4623(3)
H10 H 0.371(4) 0.737(2) 0.413(2)
H11 H 0.383(4) 0.691(2) 0.516(2)
loop_
_geom_bond_atom_site_label_1
_geom_bond_atom_site_label_2
_geom_bond_site_symmetry_1
_geom_bond_site_symmetry_2
C1 C2 1_555 1_555
C2 C3 1_555 1_555
C3 H1 1_555 1_555
C4 C3 1_555 1_555
H2 C4 1_555 1_555
C5 C4 1_555 1_555
H3 C5 1_555 1_555
C6 C1 1_555 1_555
H4 C6 1_555 1_555
C7 N3 1_555 1_555
C8 H5 1_555 1_555
C9 C8 1_555 1_555
C10 C9 1_555 1_555
H6 C10 1_555 1_555
C11 C10 1_555 1_555
H7 C11 1_555 1_555
C12 C11 1_555 1_555
H8 C12 1_555 1_555
C13 C12 1_555 1_555
H9 C13 1_555 1_555
C14 N4 1_555 1_555
N1 C1 1_555 1_555
N2 C9 1_555 1_555
N3 Cu1 1_555 1_555
N4 C7 1_555 1_555
N5 C14 1_555 1_555
O1 S1 1_555 1_555
O2 S1 1_555 1_555
O3 S1 1_555 1_555
S1 C2 1_555 1_555
Cu1 N1 1_555 1_555
O4 H10 1_555 1_555
H11 O4 1_555 1_555
N5C Cu1 1_555 1_555
Cu1C N5 1_555 1_555
C5 C6 1_555 1_555
C8 N1 1_555 1_555
C13 N2 1_555 1_555
N2 Cu1 1_555 1_555
O1 Cu1 1_555 1_555

#END
