
#######################################################################
#
#                 Cambridge Crystallographic Data Centre
#                                CCDC 
#
#######################################################################
#
# If this CIF has been generated from an entry in the Cambridge 
# Structural Database, then it will include bibliographic, chemical, 
# crystal, experimental, refinement or atomic coordinate data resulting 
# from the CCDC's data processing and validation procedures.
#
#######################################################################

data_HUFMAY
_symmetry_cell_setting           monoclinic
_symmetry_space_group_name_H-M   'I 2/a'
_symmetry_Int_Tables_number      15
_space_group_name_Hall           '-I 2ya'
loop_
_symmetry_equiv_pos_site_id
_symmetry_equiv_pos_as_xyz
1 x,y,z
2 1/2-x,y,-z
3 1/2+x,1/2+y,1/2+z
4 -x,1/2+y,1/2-z
5 -x,-y,-z
6 1/2+x,-y,z
7 1/2-x,1/2-y,1/2-z
8 x,1/2-y,1/2+z
_cell_length_a                   9.3605(7)
_cell_length_b                   9.6918(7)
_cell_length_c                   11.0752(7)
_cell_angle_alpha                90
_cell_angle_beta                 108.566(5)
_cell_angle_gamma                90
_cell_volume                     952.454
loop_
_atom_site_label
_atom_site_type_symbol
_atom_site_fract_x
_atom_site_fract_y
_atom_site_fract_z
C1 C 0.3905(2) 0.1059(2) 0.20266(19)
C2 C 0.4493(2) 0.0519(2) 0.0994(2)
C3 C 0.5155(2) 0.1367(2) 0.0315(2)
C4 C 0.5638(2) 0.0870(2) -0.0657(2)
O1 O 0.30265(19) 0.20984(19) 0.16828(15)
O2 O 0.4279(2) 0.0494(2) 0.30594(17)
F1 F 0.53573(17) 0.27093(14) 0.06136(14)
F2 F 0.63013(16) 0.17566(14) -0.12436(14)
Cs1 Cs 0.2500 0.48440(2) 0.0000
C1D C 0.6095(2) -0.1059(2) -0.20266(19)
C2D C 0.5507(2) -0.0519(2) -0.0994(2)
C3D C 0.4845(2) -0.1367(2) -0.0315(2)
C4D C 0.4362(2) -0.0870(2) 0.0657(2)
O1D O 0.69735(19) -0.20984(19) -0.16828(15)
F1D F 0.46427(17) -0.27093(14) -0.06136(14)
O2D O 0.5721(2) -0.0494(2) -0.30594(17)
F2D F 0.36987(16) -0.17566(14) 0.12436(14)
O1A O 0.19735(19) 0.20984(19) -0.16828(15)
O2B O -0.0721(2) 0.5494(2) -0.19406(17)
O2C O 0.5721(2) 0.5494(2) 0.19406(17)
O2F O 0.0721(2) 0.4506(2) 0.19406(17)
O2G O 0.4279(2) 0.4506(2) -0.19406(17)
F1A F -0.03573(17) 0.27093(14) -0.06136(14)
F1D_2 F 0.46427(17) 0.72907(14) -0.06136(14)
F1E F 0.03573(17) 0.72907(14) 0.06136(14)
F2D_2 F 0.36987(16) 0.82434(14) 0.12436(14)
F2E F 0.13013(16) 0.82434(14) -0.12436(14)
Cs1_2 Cs 0.2500 -0.51560(2) 0.0000
Cs1B Cs 0.7500 -0.01560(2) -0.5000
Cs1B_2 Cs 0.7500 -0.01560(2) 0.5000
Cs1D Cs 0.7500 -0.48440(2) 0.0000
Cs1D_2 Cs 0.7500 0.51560(2) 0.0000
Cs1F Cs 0.2500 0.01560(2) -0.5000
Cs1F_2 Cs 0.2500 0.01560(2) 0.5000
loop_
_geom_bond_atom_site_label_1
_geom_bond_atom_site_label_2
_geom_bond_site_symmetry_1
_geom_bond_site_symmetry_2
C1 C2 1_555 1_555
C2 C3 1_555 1_555
C3 C4 1_555 1_555
C4 F2 1_555 1_555
O1 C1 1_555 1_555
O2 C1 1_555 1_555
F1 C3 1_555 1_555
F2 Cs1D_2 1_555 1_555
Cs1 O1 1_555 1_555
C1D C2D 1_555 1_555
C2D C4 1_555 1_555
C3D C2D 1_555 1_555
C4D C2 1_555 1_555
O1D C1D 1_555 1_555
F1D C3D 1_555 1_555
O2D C1D 1_555 1_555
F2D C4D 1_555 1_555
O1A Cs1 1_555 1_555
O2B Cs1 1_555 1_555
O2C Cs1 1_555 1_555
O2F Cs1 1_555 1_555
O2G Cs1 1_555 1_555
F1A Cs1 1_555 1_555
F1D_2 Cs1 1_555 1_555
F1E Cs1 1_555 1_555
F2D_2 Cs1 1_555 1_555
F2E Cs1 1_555 1_555
Cs1_2 F1D 1_555 1_555
Cs1B O2D 1_555 1_555
Cs1B_2 O2 1_555 1_555
Cs1D O1D 1_555 1_555
Cs1D_2 F1 1_555 1_555
Cs1F O2D 1_555 1_555
Cs1F_2 O2 1_555 1_555
F1 Cs1 1_555 1_555
C3D C4D 1_555 1_555
F1D Cs1D 1_555 1_555
F2D Cs1_2 1_555 1_555
O2C Cs1D_2 1_555 1_555
O2G Cs1D_2 1_555 1_555
F1D_2 Cs1D_2 1_555 1_555

#END
