
#######################################################################
#
#                 Cambridge Crystallographic Data Centre
#                                CCDC 
#
#######################################################################
#
# If this CIF has been generated from an entry in the Cambridge 
# Structural Database, then it will include bibliographic, chemical, 
# crystal, experimental, refinement or atomic coordinate data resulting 
# from the CCDC's data processing and validation procedures.
#
#######################################################################

data_HUGQUV
_symmetry_cell_setting           triclinic
_symmetry_space_group_name_H-M   'P -1'
_symmetry_Int_Tables_number      2
_space_group_name_Hall           '-P 1'
loop_
_symmetry_equiv_pos_site_id
_symmetry_equiv_pos_as_xyz
1 x,y,z
2 -x,-y,-z
_cell_length_a                   11.752
_cell_length_b                   12.689
_cell_length_c                   20.672
_cell_angle_alpha                95.78
_cell_angle_beta                 100.71
_cell_angle_gamma                116.87
_cell_volume                     2641.24
loop_
_atom_site_label
_atom_site_type_symbol
_atom_site_fract_x
_atom_site_fract_y
_atom_site_fract_z
Ag1 Ag 0.45711(3) 0.22665(3) 0.775777(18)
O1 O 0.8626(3) 0.7944(2) 1.08535(15)
O2 O 1.1304(3) 0.8501(3) 0.88822(17)
O3 O 0.1332(4) -0.3395(4) 0.44284(19)
O4 O -0.2272(3) -0.3797(3) 0.58743(15)
N1 N 0.5303(3) 0.3782(3) 0.86506(18)
N2 N 0.6438(3) 0.5637(3) 0.93085(16)
N3 N 1.2012(3) 0.8471(3) 1.15949(17)
N4 N 1.3584(4) 0.8059(3) 1.2083(2)
N5 N 0.2670(3) 0.0492(3) 0.7363(2)
N6 N 0.1082(3) -0.1370(3) 0.68517(17)
N7 N -0.3627(3) -0.3796(3) 0.41015(17)
N8 N -0.4298(4) -0.3119(4) 0.32383(18)
C1 C 0.5803(4) 0.4954(4) 0.8679(2)
C2 C 0.5616(4) 0.3678(4) 0.9313(2)
C3 C 0.5313(4) 0.2650(4) 0.9585(3)
C4 C 0.5687(5) 0.2822(5) 1.0273(3)
C5 C 0.6367(5) 0.3967(5) 1.0690(2)
C6 C 0.6698(4) 0.5005(4) 1.0430(2)
C7 C 0.6305(4) 0.4831(4) 0.9732(2)
C8 C 0.7064(4) 0.6951(4) 0.9513(2)
C9 C 0.8568(4) 0.7578(3) 0.9685(2)
C10 C 0.9248(4) 0.7719(4) 0.9189(2)
C11 C 1.0629(4) 0.8300(3) 0.9385(2)
C12 C 1.1354(4) 0.8768(3) 1.0048(2)
C13 C 1.0668(4) 0.8635(3) 1.0549(2)
C14 C 0.9290(4) 0.8056(3) 1.0365(2)
C15 C 0.8548(5) 0.7282(5) 0.8442(3)
C16 C 1.1631(8) 0.7571(7) 0.8696(3)
C17 C 1.2843(5) 0.9428(5) 1.0213(3)
C18 C 0.8361(5) 0.8922(4) 1.1015(2)
C19 C 1.1406(4) 0.9161(3) 1.1292(2)
C20 C 1.3322(4) 0.8816(4) 1.1778(2)
C21 C 1.2356(4) 0.7160(4) 1.2111(2)
C22 C 1.2065(5) 0.6157(4) 1.2397(2)
C23 C 1.0763(6) 0.5433(5) 1.2363(3)
C24 C 0.9759(5) 0.5677(5) 1.2066(3)
C25 C 1.0054(4) 0.6669(4) 1.1773(2)
C26 C 1.1365(4) 0.7404(3) 1.18086(19)
C27 C 0.2368(4) -0.0636(4) 0.7182(2)
C28 C 0.1480(4) 0.0515(4) 0.7156(2)
C29 C 0.1205(5) 0.1467(4) 0.7241(3)
C30 C -0.0054(6) 0.1229(5) 0.7006(3)
C31 C -0.1053(5) 0.0071(5) 0.6695(3)
C32 C -0.0825(4) -0.0903(4) 0.6603(3)
C33 C 0.0485(4) -0.0631(4) 0.6847(2)
C34 C 0.0423(4) -0.2683(4) 0.6616(2)
C35 C -0.0010(4) -0.3099(3) 0.5853(2)
C36 C 0.0907(4) -0.2996(4) 0.5484(2)
C37 C 0.0443(5) -0.3428(4) 0.4791(2)
C38 C -0.0870(4) -0.3928(4) 0.4444(2)
C39 C -0.1797(4) -0.4026(3) 0.4813(2)
C40 C -0.1350(4) -0.3648(3) 0.5510(2)
C41 C 0.2365(5) -0.2456(5) 0.5814(3)
C42 C 0.1915(7) -0.2319(7) 0.4182(4)
C43 C -0.1269(5) -0.4380(5) 0.3697(3)
C44 C -0.2773(5) -0.4931(5) 0.6088(3)
C45 C -0.3249(4) -0.4591(4) 0.4466(2)
C46 C -0.3936(4) -0.3896(4) 0.3425(2)
C47 C -0.4238(4) -0.2467(4) 0.3831(2)
C48 C -0.4539(5) -0.1517(5) 0.3927(3)
C49 C -0.4434(7) -0.1059(7) 0.4573(3)
C50 C -0.4058(7) -0.1512(7) 0.5119(3)
C51 C -0.3737(5) -0.2412(5) 0.5035(2)
C52 C -0.3809(4) -0.2874(4) 0.4376(2)
H1 H 0.5738 0.5316 0.8265
H2 H 0.4814 0.1810 0.9278
H3 H 0.5488 0.2077 1.0476
H4 H 0.6625 0.4039 1.1192
H5 H 0.7185 0.5841 1.0738
H6 H 0.6790 0.7162 0.9920
H7 H 0.6743 0.7275 0.9136
H8 H 0.9200 0.7455 0.8164
H9 H 0.8007 0.7693 0.8310
H10 H 0.7929 0.6381 0.8336
H11 H 1.2111 0.7755 0.8325
H12 H 1.2218 0.7507 0.9088
H13 H 1.0809 0.6763 0.8516
H14 H 1.3250 0.9711 1.0711
H15 H 1.3164 1.0149 0.9995
H16 H 1.3175 0.8875 1.0033
H17 H 0.7870 0.8782 1.1380
H18 H 0.9205 0.9708 1.1186
H19 H 0.7800 0.8989 1.0610
H20 H 1.2120 1.0014 1.1336
H21 H 1.0765 0.9184 1.1547
H22 H 1.4025 0.9579 1.1679
H23 H 1.2785 0.5960 1.2614
H24 H 1.0502 0.4682 1.2561
H25 H 0.8794 0.5102 1.2052
H26 H 0.9334 0.6854 1.1546
H27 H 0.3038 -0.0938 0.7265
H28 H 0.1937 0.2329 0.7461
H29 H -0.0297 0.1905 0.7075
H30 H -0.1991 -0.0067 0.6521
H31 H -0.1552 -0.1752 0.6379
H32 H -0.0395 -0.3064 0.6801
H33 H 0.1029 -0.3000 0.6816
H34 H 0.2857 -0.2468 0.5457
H35 H 0.2533 -0.2922 0.6145
H36 H 0.2737 -0.1593 0.6046
H37 H 0.2558 -0.2334 0.3928
H38 H 0.2411 -0.1590 0.4571
H39 H 0.1219 -0.2215 0.3877
H40 H -0.2253 -0.4725 0.3517
H41 H -0.1032 -0.5030 0.3581
H42 H -0.0812 -0.3702 0.3469
H43 H -0.3441 -0.5012 0.6351
H44 H -0.2044 -0.5013 0.6378
H45 H -0.3230 -0.5628 0.5682
H46 H -0.3753 -0.4805 0.4823
H47 H -0.3518 -0.5356 0.4143
H48 H -0.3901 -0.4535 0.3092
H49 H -0.4864 -0.1221 0.3531
H50 H -0.4630 -0.0351 0.4661
H51 H -0.3990 -0.1129 0.5593
H52 H -0.3461 -0.2758 0.5425
N4A N 0.6416(4) 0.1941(3) 0.7917(2)
N8A N 0.4298(4) 0.3119(4) 0.67617(18)
Ag1A Ag 1.54289(3) 0.77335(3) 1.224223(18)
Ag1A_2 Ag -0.45711(3) -0.22665(3) 0.224223(18)
O5 O 0.5431(6) -0.1796(4) 0.8349(2)
O6 O 0.4508(6) -0.3774(4) 0.7706(2)
O7 O 0.3417(6) -0.2641(6) 0.7460(3)
C53 C 0.5582(5) -0.2028(5) 0.7145(3)
S1 S 0.46344(11) -0.26037(9) 0.77356(5)
F1 F 0.6769(5) -0.173(1) 0.7367(4)
F2 F 0.5642(8) -0.0979(4) 0.7036(3)
F3 F 0.5047(5) -0.2691(4) 0.65331(19)
O8 O 0.944(3) 0.030(2) 0.4883(15)
O9 O 0.071(3) 0.524(3) 0.0335(17)
loop_
_geom_bond_atom_site_label_1
_geom_bond_atom_site_label_2
_geom_bond_site_symmetry_1
_geom_bond_site_symmetry_2
Ag1 N1 1_555 1_555
O1 C14 1_555 1_555
O2 C11 1_555 1_555
O3 C37 1_555 1_555
O4 C40 1_555 1_555
O5 S1 1_555 1_555
O6 S1 1_555 1_555
O7 S1 1_555 1_555
N1 C1 1_555 1_555
N2 C1 1_555 1_555
N3 C19 1_555 1_555
N4 C20 1_555 1_555
N5 Ag1 1_555 1_555
N6 C27 1_555 1_555
N7 C45 1_555 1_555
N8 C46 1_555 1_555
C1 H1 1_555 1_555
C2 N1 1_555 1_555
C3 C2 1_555 1_555
C4 C3 1_555 1_555
C5 C4 1_555 1_555
C6 C5 1_555 1_555
C7 N2 1_555 1_555
C8 N2 1_555 1_555
C9 C8 1_555 1_555
C10 C9 1_555 1_555
C11 C10 1_555 1_555
C12 C11 1_555 1_555
C13 C12 1_555 1_555
C14 C9 1_555 1_555
C15 C10 1_555 1_555
C16 O2 1_555 1_555
C17 C12 1_555 1_555
C18 O1 1_555 1_555
C19 C13 1_555 1_555
C20 N3 1_555 1_555
C21 N4 1_555 1_555
C22 C21 1_555 1_555
C23 C22 1_555 1_555
C24 C23 1_555 1_555
C25 C24 1_555 1_555
C26 N3 1_555 1_555
C27 N5 1_555 1_555
C28 N5 1_555 1_555
C29 C28 1_555 1_555
C30 C29 1_555 1_555
C31 C30 1_555 1_555
C32 C31 1_555 1_555
C33 N6 1_555 1_555
C34 N6 1_555 1_555
C35 C34 1_555 1_555
C36 C35 1_555 1_555
C37 C36 1_555 1_555
C38 C37 1_555 1_555
C39 C38 1_555 1_555
C40 C35 1_555 1_555
C41 C36 1_555 1_555
C42 O3 1_555 1_555
C43 C38 1_555 1_555
C44 O4 1_555 1_555
C45 C39 1_555 1_555
C46 N7 1_555 1_555
C47 N8 1_555 1_555
C48 C47 1_555 1_555
C49 C48 1_555 1_555
C50 C49 1_555 1_555
C51 C50 1_555 1_555
C52 N7 1_555 1_555
C53 S1 1_555 1_555
F1 C53 1_555 1_555
F2 C53 1_555 1_555
F3 C53 1_555 1_555
H2 C3 1_555 1_555
H3 C4 1_555 1_555
H4 C5 1_555 1_555
H5 C6 1_555 1_555
H6 C8 1_555 1_555
H7 C8 1_555 1_555
H8 C15 1_555 1_555
H9 C15 1_555 1_555
H10 C15 1_555 1_555
H11 C16 1_555 1_555
H12 C16 1_555 1_555
H13 C16 1_555 1_555
H14 C17 1_555 1_555
H15 C17 1_555 1_555
H16 C17 1_555 1_555
H17 C18 1_555 1_555
H18 C18 1_555 1_555
H19 C18 1_555 1_555
H20 C19 1_555 1_555
H21 C19 1_555 1_555
H22 C20 1_555 1_555
H23 C22 1_555 1_555
H24 C23 1_555 1_555
H25 C24 1_555 1_555
H26 C25 1_555 1_555
H27 C27 1_555 1_555
H28 C29 1_555 1_555
H29 C30 1_555 1_555
H30 C31 1_555 1_555
H31 C32 1_555 1_555
H32 C34 1_555 1_555
H33 C34 1_555 1_555
H34 C41 1_555 1_555
H35 C41 1_555 1_555
H36 C41 1_555 1_555
H37 C42 1_555 1_555
H38 C42 1_555 1_555
H39 C42 1_555 1_555
H40 C43 1_555 1_555
H41 C43 1_555 1_555
H42 C43 1_555 1_555
H43 C44 1_555 1_555
H44 C44 1_555 1_555
H45 C44 1_555 1_555
H46 C45 1_555 1_555
H47 C45 1_555 1_555
H48 C46 1_555 1_555
H49 C48 1_555 1_555
H50 C49 1_555 1_555
H51 C50 1_555 1_555
H52 C51 1_555 1_555
N4A Ag1 1_555 1_555
N8A Ag1 1_555 1_555
Ag1A N4 1_555 1_555
Ag1A_2 N8 1_555 1_555
C2 C7 1_555 1_555
C6 C7 1_555 1_555
C13 C14 1_555 1_555
C21 C26 1_555 1_555
C25 C26 1_555 1_555
C28 C33 1_555 1_555
C32 C33 1_555 1_555
C39 C40 1_555 1_555
C47 C52 1_555 1_555
C51 C52 1_555 1_555

#END
