
#######################################################################
#
#                 Cambridge Crystallographic Data Centre
#                                CCDC 
#
#######################################################################
#
# If this CIF has been generated from an entry in the Cambridge 
# Structural Database, then it will include bibliographic, chemical, 
# crystal, experimental, refinement or atomic coordinate data resulting 
# from the CCDC's data processing and validation procedures.
#
#######################################################################

data_HUGVAH
_symmetry_cell_setting           monoclinic
_symmetry_space_group_name_H-M   'P 21/c'
_symmetry_Int_Tables_number      14
_space_group_name_Hall           '-P 2ybc'
loop_
_symmetry_equiv_pos_site_id
_symmetry_equiv_pos_as_xyz
1 x,y,z
2 -x,1/2+y,1/2-z
3 -x,-y,-z
4 x,1/2-y,1/2+z
_cell_length_a                   7.943(2)
_cell_length_b                   14.358(2)
_cell_length_c                   9.8740(3)
_cell_angle_alpha                90
_cell_angle_beta                 97.682(8)
_cell_angle_gamma                90
_cell_volume                     1115.98
loop_
_atom_site_label
_atom_site_type_symbol
_atom_site_fract_x
_atom_site_fract_y
_atom_site_fract_z
Ga1 Ga 0.10264(4) 0.16927(2) 0.25421(3)
Ga2 Ga 0.50696(4) 0.21787(2) 0.27783(3)
C1 C 0.2161(4) 0.2676(2) 0.3761(3)
C2 C 0.2990(4) 0.2471(2) 0.5073(3)
H1 H 0.3135 0.1836 0.5331
C3 C 0.3623(4) 0.31629(19) 0.6037(3)
C4 C 0.3362(4) 0.4096(2) 0.5630(3)
H2 H 0.3769 0.4579 0.6246
C5 C 0.2515(4) 0.43291(19) 0.4336(3)
H3 H 0.2327 0.4964 0.4090
C6 C 0.1951(4) 0.3630(2) 0.3417(3)
H4 H 0.1411 0.3796 0.2533
C7 C -0.0777(4) 0.2064(2) 0.1088(3)
H5 H -0.0595 0.1759 0.0231
H6 H -0.0754 0.2741 0.0970
H7 H -0.1882 0.1876 0.1336
C8 C 0.1146(4) 0.0418(2) 0.3283(3)
H8 H 0.0214 0.0321 0.3826
H9 H 0.2235 0.0329 0.3865
H10 H 0.1049 -0.0031 0.2529
C9 C 0.6061(4) 0.3428(2) 0.2940(3)
H11 H 0.7262 0.3395 0.2813
H12 H 0.5455 0.3834 0.2240
H13 H 0.5962 0.3680 0.3848
C10 C 0.6027(4) 0.1108(2) 0.3878(3)
H14 H 0.6535 0.1326 0.4781
H15 H 0.5121 0.0661 0.3982
H16 H 0.6899 0.0806 0.3417
Ga1C Ga 0.10264(4) 0.33073(2) 0.75421(3)
Ga2C Ga 0.50696(4) 0.28213(2) 0.77783(3)
C3C C 0.3623(4) 0.18371(19) 0.1037(3)
loop_
_geom_bond_atom_site_label_1
_geom_bond_atom_site_label_2
_geom_bond_site_symmetry_1
_geom_bond_site_symmetry_2
Ga1 C1 1_555 1_555
Ga2 C1 1_555 1_555
C1 C2 1_555 1_555
C2 H1 1_555 1_555
C3 C2 1_555 1_555
C4 C3 1_555 1_555
H2 C4 1_555 1_555
C5 C4 1_555 1_555
H3 C5 1_555 1_555
C6 C1 1_555 1_555
H4 C6 1_555 1_555
C7 Ga1 1_555 1_555
H5 C7 1_555 1_555
H6 C7 1_555 1_555
H7 C7 1_555 1_555
C8 Ga1 1_555 1_555
H8 C8 1_555 1_555
H9 C8 1_555 1_555
H10 C8 1_555 1_555
C9 Ga2 1_555 1_555
H11 C9 1_555 1_555
H12 C9 1_555 1_555
H13 C9 1_555 1_555
C10 Ga2 1_555 1_555
H14 C10 1_555 1_555
H15 C10 1_555 1_555
H16 C10 1_555 1_555
Ga1C C3 1_555 1_555
Ga2C C3 1_555 1_555
C3C Ga1 1_555 1_555
Ga2 C3C 1_555 1_555
C5 C6 1_555 1_555

#END
