
#######################################################################
#
#                 Cambridge Crystallographic Data Centre
#                                CCDC 
#
#######################################################################
#
# If this CIF has been generated from an entry in the Cambridge 
# Structural Database, then it will include bibliographic, chemical, 
# crystal, experimental, refinement or atomic coordinate data resulting 
# from the CCDC's data processing and validation procedures.
#
#######################################################################

data_HUGZIU
_symmetry_cell_setting           triclinic
_symmetry_space_group_name_H-M   'P -1'
_symmetry_Int_Tables_number      2
_space_group_name_Hall           '-P 1'
loop_
_symmetry_equiv_pos_site_id
_symmetry_equiv_pos_as_xyz
1 x,y,z
2 -x,-y,-z
_cell_length_a                   8.9389(6)
_cell_length_b                   9.7242(7)
_cell_length_c                   10.2340(8)
_cell_angle_alpha                74.40(2)
_cell_angle_beta                 75.22(2)
_cell_angle_gamma                88.30(2)
_cell_volume                     827.733
loop_
_atom_site_label
_atom_site_type_symbol
_atom_site_fract_x
_atom_site_fract_y
_atom_site_fract_z
Ag1 Ag 0.39314(2) 1.11366(2) 0.07078(2)
O1 O 0.45035(14) 0.95226(12) 0.30298(12)
N1 N 0.22574(14) 0.95609(13) 0.06870(14)
N2 N -0.46079(14) 0.28171(13) 0.08617(14)
S1 S 0.48111(4) 0.80049(4) 0.33159(4)
C1 C 0.20299(17) 0.95508(16) -0.05566(17)
C2 C 0.13991(17) 0.86369(16) 0.18511(17)
C3 C 0.62896(17) 0.77651(16) 0.42282(15)
O2 O 0.35034(13) 0.70872(13) 0.42370(12)
H1 H 0.264(2) 1.018(2) -0.135(2)
C4 C 0.09464(17) 0.86298(15) -0.06872(17)
C5 C 0.02880(17) 0.76857(16) 0.18189(17)
H2 H 0.155(2) 0.8639(19) 0.271(2)
C6 C 0.67533(17) 0.63883(17) 0.47357(16)
C7 C 0.69782(18) 0.89282(17) 0.44387(16)
C8 C 0.00742(16) 0.76840(15) 0.05153(16)
H3 H 0.084(2) 0.8664(19) -0.167(2)
H4 H -0.032(2) 0.706(2) 0.266(2)
H5 H 0.629(2) 0.560(2) 0.461(2)
C9 C 0.79187(18) 0.61796(18) 0.54385(17)
H6 H 0.664(2) 0.985(2) 0.413(2)
C10 C 0.81441(18) 0.87054(18) 0.51433(17)
N3 N -0.10300(15) 0.67708(14) 0.03042(14)
C11 C 0.86407(18) 0.73344(18) 0.56366(16)
H7 H 0.822(2) 0.521(2) 0.580(2)
H8 H 0.860(2) 0.948(2) 0.530(2)
N4 N -0.15184(14) 0.57276(13) 0.13411(14)
C12 C 0.9926(2) 0.7114(2) 0.6375(2)
C13 C -0.25899(16) 0.47889(15) 0.11193(16)
H9 H 1.006(3) 0.606(3) 0.676(3)
H10 H 0.966(3) 0.740(3) 0.716(3)
H11 H 1.081(3) 0.757(3) 0.580(3)
C14 C -0.27536(17) 0.47903(15) -0.02026(16)
C15 C -0.34364(17) 0.37974(16) 0.23012(16)
H12 H -0.217(2) 0.548(2) -0.109(2)
C16 C -0.37733(17) 0.37809(16) -0.02773(17)
C17 C -0.44434(17) 0.28368(16) 0.21310(17)
H13 H -0.335(2) 0.374(2) 0.324(2)
H14 H -0.388(2) 0.3760(19) -0.112(2)
H15 H -0.502(2) 0.221(2) 0.286(2)
O3 O 0.54783(13) 0.75776(13) 0.20361(12)
Ag1_2 Ag -0.60686(2) 0.11366(2) 0.07078(2)
Ag1A Ag 0.60686(2) 0.88634(2) -0.07078(2)
N2_2 N 0.53921(14) 1.28171(13) 0.08617(14)
O3A O 0.45217(13) 1.24224(13) -0.20361(12)
loop_
_geom_bond_atom_site_label_1
_geom_bond_atom_site_label_2
_geom_bond_site_symmetry_1
_geom_bond_site_symmetry_2
Ag1 O1 1_555 1_555
O1 S1 1_555 1_555
N1 Ag1 1_555 1_555
N2 C16 1_555 1_555
S1 C3 1_555 1_555
C1 N1 1_555 1_555
C2 N1 1_555 1_555
C3 C6 1_555 1_555
O2 S1 1_555 1_555
H1 C1 1_555 1_555
C4 C1 1_555 1_555
C5 C2 1_555 1_555
H2 C2 1_555 1_555
C6 H5 1_555 1_555
C7 C3 1_555 1_555
C8 C4 1_555 1_555
H3 C4 1_555 1_555
H4 C5 1_555 1_555
C9 C6 1_555 1_555
H6 C7 1_555 1_555
C10 C7 1_555 1_555
N3 C8 1_555 1_555
C11 C9 1_555 1_555
H7 C9 1_555 1_555
H8 C10 1_555 1_555
N4 N3 1_555 1_555
C12 C11 1_555 1_555
C13 N4 1_555 1_555
H9 C12 1_555 1_555
H10 C12 1_555 1_555
H11 C12 1_555 1_555
C14 C13 1_555 1_555
C15 C13 1_555 1_555
H12 C14 1_555 1_555
C16 C14 1_555 1_555
C17 N2 1_555 1_555
H13 C15 1_555 1_555
H14 C16 1_555 1_555
H15 C17 1_555 1_555
O3 S1 1_555 1_555
Ag1_2 N2 1_555 1_555
Ag1A O3 1_555 1_555
N2_2 Ag1 1_555 1_555
O3A Ag1 1_555 1_555
C5 C8 1_555 1_555
C10 C11 1_555 1_555
C15 C17 1_555 1_555

#END
