
#######################################################################
#
#                 Cambridge Crystallographic Data Centre
#                                CCDC 
#
#######################################################################
#
# If this CIF has been generated from an entry in the Cambridge 
# Structural Database, then it will include bibliographic, chemical, 
# crystal, experimental, refinement or atomic coordinate data resulting 
# from the CCDC's data processing and validation procedures.
#
#######################################################################

data_HUHGUN
_symmetry_cell_setting           monoclinic
_symmetry_space_group_name_H-M   'P c'
_symmetry_Int_Tables_number      7
_space_group_name_Hall           'P -2yc'
loop_
_symmetry_equiv_pos_site_id
_symmetry_equiv_pos_as_xyz
1 x,y,z
2 x,-y,1/2+z
_cell_length_a                   10.813(2)
_cell_length_b                   7.5621(15)
_cell_length_c                   10.064(2)
_cell_angle_alpha                90
_cell_angle_beta                 112.47(3)
_cell_angle_gamma                90
_cell_volume                     760.447
loop_
_atom_site_label
_atom_site_type_symbol
_atom_site_fract_x
_atom_site_fract_y
_atom_site_fract_z
Zn1 Zn 1.16698(7) 0.81559(10) 0.08347(8)
Zn2 Zn 0.58266(8) 0.76838(11) -0.28401(8)
C1 C 1.1449(7) 0.7939(9) 0.4732(7)
C2 C 1.1287(7) 0.6941(9) 0.5927(8)
H1 H 1.0723 0.5922 0.5527
H2 H 1.0823 0.7689 0.6369
C3 C 1.2602(7) 0.6299(9) 0.7105(7)
H3 H 1.3124 0.7322 0.7581
H4 H 1.2388 0.5640 0.7817
C4 C 1.3429(7) 0.5169(9) 0.6569(7)
C5 C 0.8586(8) 0.7227(11) -0.0545(9)
C6 C 0.8108(9) 0.7330(11) 0.0670(9)
H5 H 0.8812 0.6899 0.1538
H6 H 0.7344 0.6551 0.0460
C7 C 0.7713(9) 0.9167(12) 0.0953(8)
H7 H 0.7798 0.9225 0.1947
H8 H 0.8345 1.0003 0.0839
C8 C 0.6322(8) 0.9749(11) 0.0010(8)
N1 N 1.1531(6) 0.8526(7) 0.2720(6)
N2 N 1.1704(7) 1.0041(10) 0.3417(8)
N3 N 1.1651(6) 0.9728(7) 0.4696(6)
N4 N 1.1371(6) 0.7151(7) 0.3504(6)
N5 N 1.3100(6) 0.3551(7) 0.5983(6)
N6 N 1.4149(6) 0.2973(8) 0.5657(7)
N7 N 1.5072(7) 0.4221(8) 0.5995(7)
N8 N 1.4624(6) 0.5589(8) 0.6598(6)
N9 N 0.9838(7) 0.7177(8) -0.0459(7)
N10 N 0.9754(7) 0.6867(8) -0.1828(7)
N11 N 0.8508(6) 0.6794(8) -0.2694(7)
N12 N 0.7743(7) 0.7005(7) -0.1925(7)
N13 N 0.5616(6) 0.9312(8) -0.1362(7)
N14 N 0.4487(6) 1.0306(8) -0.1846(6)
N15 N 0.4502(6) 1.1322(8) -0.0808(7)
N16 N 0.5653(6) 1.1024(9) 0.0373(7)
Zn1A Zn 1.16698(7) 1.18441(10) 0.58347(8)
Zn1A_2 Zn 1.16698(7) 0.18441(10) 0.58347(8)
Zn2_2 Zn 1.58266(8) 0.76838(11) 0.71599(8)
Zn2A Zn 0.58266(8) 1.23162(11) 0.21599(8)
N3A N 1.1651(6) 1.0272(7) -0.0304(6)
N5A N 1.3100(6) 0.6449(7) 0.0983(6)
N8_2 N 0.4624(6) 0.5589(8) -0.3402(6)
N16A N 0.5653(6) 0.8976(9) -0.4627(7)
O1 O 0.7859(11) 1.2738(16) -0.0964(11)
H9 H 0.7206 1.3425 -0.1394
H10 H 0.8117 1.2997 -0.0077
loop_
_geom_bond_atom_site_label_1
_geom_bond_atom_site_label_2
_geom_bond_site_symmetry_1
_geom_bond_site_symmetry_2
Zn1 N1 1_555 1_555
Zn2 N12 1_555 1_555
C1 C2 1_555 1_555
C2 H1 1_555 1_555
H2 C2 1_555 1_555
C3 C2 1_555 1_555
H3 C3 1_555 1_555
H4 C3 1_555 1_555
C4 C3 1_555 1_555
C5 C6 1_555 1_555
C6 H5 1_555 1_555
H6 C6 1_555 1_555
C7 C6 1_555 1_555
H7 C7 1_555 1_555
H8 C7 1_555 1_555
C8 C7 1_555 1_555
N1 N2 1_555 1_555
N2 N3 1_555 1_555
N3 C1 1_555 1_555
N4 C1 1_555 1_555
N5 C4 1_555 1_555
N6 N5 1_555 1_555
N7 N6 1_555 1_555
N8 C4 1_555 1_555
N9 Zn1 1_555 1_555
N10 N9 1_555 1_555
N11 N10 1_555 1_555
N12 C5 1_555 1_555
N13 Zn2 1_555 1_555
N14 N13 1_555 1_555
N15 N14 1_555 1_555
N16 C8 1_555 1_555
O1 H9 1_555 1_555
H10 O1 1_555 1_555
Zn1A N3 1_555 1_555
Zn1A_2 N5 1_555 1_555
Zn2_2 N8 1_555 1_555
Zn2A N16 1_555 1_555
N3A Zn1 1_555 1_555
N5A Zn1 1_555 1_555
N8_2 Zn2 1_555 1_555
N16A Zn2 1_555 1_555
C5 N9 1_555 1_555
C8 N13 1_555 1_555
N1 N4 1_555 1_555
N7 N8 1_555 1_555
N11 N12 1_555 1_555
N15 N16 1_555 1_555

#END
