
#######################################################################
#
#                 Cambridge Crystallographic Data Centre
#                                CCDC 
#
#######################################################################
#
# If this CIF has been generated from an entry in the Cambridge 
# Structural Database, then it will include bibliographic, chemical, 
# crystal, experimental, refinement or atomic coordinate data resulting 
# from the CCDC's data processing and validation procedures.
#
#######################################################################

data_HUHJOL
_symmetry_cell_setting           triclinic
_symmetry_space_group_name_H-M   'P -1'
_symmetry_Int_Tables_number      2
_space_group_name_Hall           '-P 1'
loop_
_symmetry_equiv_pos_site_id
_symmetry_equiv_pos_as_xyz
1 x,y,z
2 -x,-y,-z
_cell_length_a                   12.8432(4)
_cell_length_b                   19.5607(6)
_cell_length_c                   25.6910(8)
_cell_angle_alpha                79.224(2)
_cell_angle_beta                 78.864(2)
_cell_angle_gamma                71.244(2)
_cell_volume                     5941.93
loop_
_atom_site_label
_atom_site_type_symbol
_atom_site_fract_x
_atom_site_fract_y
_atom_site_fract_z
Mn1 Mn 0.68964(9) 0.37490(6) 0.38288(4)
Mn2 Mn 0.74210(8) 0.45115(6) 0.26276(4)
Mn3 Mn 0.65876(9) 0.31032(6) 0.27985(4)
Mn4 Mn 0.50547(9) 0.46495(6) 0.24321(5)
Mn5 Mn 0.53006(8) 0.52976(6) 0.33825(4)
Mn6 Mn 0.44389(9) 0.39025(6) 0.35793(4)
Na1 Na 0.9140(2) 0.28803(15) 0.30370(12)
Na2 Na 0.4478(2) 0.45384(15) 0.46699(10)
Na3 Na 0.5784(3) 0.62490(16) 0.21315(12)
O1 O 0.5890(4) 0.4262(3) 0.30647(19)
C1 C 0.7811(5) 0.5267(4) 0.3646(3)
C2 C 0.6871(5) 0.5179(4) 0.4102(3)
H1 H 0.7204 0.4887 0.4420
H2 H 0.6429 0.5667 0.4200
O2 O 0.6135(3) 0.4835(2) 0.39691(17)
C3 C 0.7348(6) 0.5745(4) 0.3158(3)
H3 H 0.6911 0.6232 0.3258
H4 H 0.7974 0.5808 0.2881
O3 O 0.6643(4) 0.5460(3) 0.29297(19)
C4 C 0.8590(5) 0.4523(4) 0.3499(3)
H5 H 0.9222 0.4606 0.3233
H6 H 0.8894 0.4229 0.3823
O4 O 0.8060(4) 0.4114(2) 0.32828(18)
C5 C 0.8517(6) 0.5670(4) 0.3831(3)
H7 H 0.9005 0.5823 0.3514
H8 H 0.8006 0.6117 0.3969
C6 C 0.9237(7) 0.5240(5) 0.4257(3)
H9 H 0.8770 0.5078 0.4574
H10 H 0.9615 0.5550 0.4355
H11 H 0.9792 0.4815 0.4117
C7 C 0.7244(7) 0.3869(4) 0.1512(3)
C8 C 0.6213(7) 0.3602(5) 0.1672(3)
H12 H 0.5656 0.3886 0.1435
H13 H 0.6423 0.3085 0.1617
O5 O 0.5710(4) 0.3669(3) 0.22251(19)
C9 C 0.8144(6) 0.3439(4) 0.1863(3)
H14 H 0.8365 0.2918 0.1817
H15 H 0.8806 0.3613 0.1738
O6 O 0.7803(4) 0.3504(3) 0.24246(19)
C10 C 0.6957(7) 0.4691(4) 0.1539(3)
H16 H 0.7638 0.4843 0.1412
H17 H 0.6412 0.4961 0.1292
O7 O 0.6513(4) 0.4889(3) 0.20581(18)
C11 C 0.7762(9) 0.3708(6) 0.0929(3)
H18 H 0.8470 0.3832 0.0838
H19 H 0.7939 0.3179 0.0920
C12 C 0.7036(13) 0.4114(8) 0.0499(5)
H20 H 0.6996 0.4631 0.0444
H21 H 0.6287 0.4065 0.0612
H22 H 0.7357 0.3909 0.0163
C13 C 0.6046(7) 0.2205(4) 0.4038(3)
C14 C 0.7225(6) 0.2189(4) 0.3787(3)
H23 H 0.7682 0.2100 0.4076
H24 H 0.7541 0.1777 0.3575
O8 O 0.7302(4) 0.2844(3) 0.34475(19)
C15 C 0.5543(6) 0.2808(4) 0.4405(3)
H25 H 0.4806 0.2772 0.4588
H26 H 0.6024 0.2715 0.4685
O9 O 0.5414(4) 0.3537(3) 0.41374(19)
C16 C 0.5325(7) 0.2307(4) 0.3616(3)
H27 H 0.5634 0.1893 0.3406
H28 H 0.4573 0.2297 0.3795
O10 O 0.5229(4) 0.2970(3) 0.3260(2)
C17 C 0.6075(7) 0.1476(4) 0.4412(3)
H29 H 0.6357 0.1487 0.4741
H30 H 0.5303 0.1452 0.4517
C18 C 0.6783(9) 0.0772(5) 0.4177(4)
H31 H 0.6620 0.0797 0.3816
H32 H 0.6607 0.0352 0.4406
H33 H 0.7573 0.0721 0.4161
C19 C 0.2634(6) 0.5549(4) 0.3198(3)
C20 C 0.3360(6) 0.5966(4) 0.2809(3)
H34 H 0.3116 0.6073 0.2452
H35 H 0.3245 0.6436 0.2935
O11 O 0.4535(4) 0.5573(3) 0.27557(19)
C21 C 0.2948(6) 0.5388(4) 0.3744(3)
H36 H 0.2854 0.5855 0.3872
H37 H 0.2430 0.5150 0.3987
O12 O 0.4064(4) 0.4931(3) 0.37795(19)
C22 C 0.2706(6) 0.4848(5) 0.2981(4)
H38 H 0.2174 0.4616 0.3218
H39 H 0.2470 0.4985 0.2622
O13 O 0.3771(4) 0.4330(3) 0.2942(2)
C23 C 0.1405(6) 0.6029(5) 0.3198(4)
H40 H 0.1241 0.6133 0.2826
H41 H 0.0921 0.5741 0.3410
C24 C 0.1089(7) 0.6749(5) 0.3418(4)
H42 H 0.1240 0.6657 0.3789
H43 H 0.0296 0.6997 0.3409
H44 H 0.1526 0.7056 0.3200
C25 C 0.9820(6) 0.4334(4) 0.2218(3)
O14 O 1.0078(4) 0.3701(3) 0.2414(2)
O15 O 0.8802(4) 0.4749(3) 0.2206(2)
C26 C 1.0663(8) 0.4714(5) 0.1952(4)
H45 H 1.1403 0.4407 0.2027
H46 H 1.0488 0.5178 0.2091
H47 H 1.0652 0.4806 0.1565
C27 C 0.8546(6) 0.3032(4) 0.4537(3)
O16 O 0.9098(4) 0.2788(3) 0.4136(2)
O17 O 0.7540(4) 0.3450(3) 0.4556(2)
C28 C 0.9012(8) 0.2851(6) 0.5055(3)
H48 H 0.8606 0.2560 0.5317
H49 H 0.8933 0.3303 0.5193
H50 H 0.9800 0.2574 0.4996
C29 C 0.8182(5) 0.1760(4) 0.2400(3)
O18 O 0.8876(4) 0.1816(3) 0.2662(2)
O19 O 0.7154(4) 0.2124(3) 0.24634(18)
C30 C 0.8578(6) 0.1271(4) 0.1969(3)
H51 H 0.9216 0.1383 0.1733
H52 H 0.7977 0.1350 0.1761
H53 H 0.8800 0.0761 0.2134
C31 C 0.2722(7) 0.3705(5) 0.4518(4)
O20 O 0.3054(5) 0.4008(3) 0.4800(2)
O21 O 0.3121(4) 0.3623(3) 0.4027(2)
C32 C 0.1761(9) 0.3399(7) 0.4734(5)
H54 H 0.1452 0.3525 0.5095
H55 H 0.2020 0.2868 0.4747
H56 H 0.1185 0.3606 0.4500
C33 C 0.4575(6) 0.6908(4) 0.3441(3)
O22 O 0.4896(5) 0.7011(3) 0.2958(2)
O23 O 0.4637(4) 0.6273(3) 0.37045(19)
C34 C 0.4130(9) 0.7536(5) 0.3763(4)
H57 H 0.4746 0.7700 0.3813
H58 H 0.3755 0.7379 0.4114
H59 H 0.3600 0.7938 0.3573
C35 C 0.4143(8) 0.5640(7) 0.1535(4)
O24 O 0.4604(6) 0.6104(4) 0.1566(2)
O25 O 0.4233(5) 0.5026(4) 0.1837(3)
C36 C 0.3435(13) 0.5798(9) 0.1087(6)
H60 H 0.2647 0.5917 0.1240
H61 H 0.3636 0.5368 0.0904
H62 H 0.3567 0.6211 0.0831
O26 O 0.4157(4) 0.5782(3) 0.47680(19)
H63 H 0.4315 0.5968 0.4453
H64 H 0.3684 0.6118 0.4920
O27 O 0.7684(5) 0.6131(3) 0.1721(2)
H65 H 0.8249 0.5811 0.1822
H66 H 0.7723 0.6435 0.1901
Mn7 Mn 1.23412(8) 0.05706(6) 0.15445(4)
Mn8 Mn 1.29866(8) -0.03654(6) 0.26136(4)
Mn9 Mn 1.31171(8) 0.11885(6) 0.24138(4)
Mn10 Mn 1.53172(8) -0.01376(6) 0.24411(4)
Mn11 Mn 1.45700(8) -0.07717(6) 0.15663(4)
Mn12 Mn 1.47560(8) 0.08855(6) 0.13268(4)
Na4 Na 1.0588(2) 0.10401(15) 0.27771(11)
Na5 Na 1.3776(2) 0.02656(15) 0.03759(10)
Na6 Na 1.5528(3) -0.20419(18) 0.25453(12)
Na7 Na 1.5839(2) 0.15558(16) 0.21968(11)
O28 O 1.3754(4) 0.0191(3) 0.20465(18)
C37 C 1.2088(6) -0.1144(4) 0.1748(3)
C38 C 1.2594(6) -0.0853(4) 0.1203(3)
H67 H 1.3100 -0.1268 0.1023
H68 H 1.1993 -0.0598 0.0982
O29 O 1.3206(4) -0.0356(3) 0.12262(18)
C39 C 1.1240(6) -0.0519(4) 0.2028(3)
H69 H 1.0648 -0.0270 0.1802
H70 H 1.0890 -0.0730 0.2371
O30 O 1.1696(4) 0.0013(3) 0.2134(2)
C40 C 1.2978(6) -0.1587(4) 0.2095(3)
H71 H 1.2609 -0.1766 0.2445
H72 H 1.3443 -0.2019 0.1922
O31 O 1.3693(4) -0.1200(3) 0.21877(19)
C41 C 1.1417(7) -0.1643(5) 0.1666(4)
H73 H 1.1035 -0.1793 0.2022
H74 H 1.0832 -0.1340 0.1448
C42 C 1.1977(14) -0.2275(9) 0.1426(7)
H75 H 1.2167 -0.2141 0.1040
H76 H 1.1498 -0.2592 0.1487
H77 H 1.2659 -0.2534 0.1583
C43 C 1.3757(6) 0.0233(4) 0.3631(3)
C44 C 1.4423(6) 0.0744(4) 0.3314(3)
H78 H 1.4061 0.1238 0.3416
H79 H 1.5178 0.0573 0.3418
O32 O 1.4518(4) 0.0785(3) 0.27518(18)
C45 C 1.2575(6) 0.0487(4) 0.3511(3)
H80 H 1.2179 0.0144 0.3722
H81 H 1.2201 0.0970 0.3633
O33 O 1.2473(4) 0.0544(3) 0.29540(17)
C46 C 1.4316(6) -0.0549(4) 0.3518(3)
H82 H 1.5059 -0.0719 0.3634
H83 H 1.3874 -0.0860 0.3736
O34 O 1.4442(4) -0.0645(3) 0.29649(17)
C47 C 1.3710(6) 0.0226(4) 0.4237(3)
H84 H 1.3309 -0.0123 0.4431
H85 H 1.4481 0.0034 0.4321
C48 C 1.3166(10) 0.0950(7) 0.4464(4)
H86 H 1.3533 0.1311 0.4270
H87 H 1.3239 0.0878 0.4845
H88 H 1.2377 0.1125 0.4422
C49 C 1.2321(6) 0.2334(4) 0.1295(3)
C50 C 1.2728(6) 0.1843(4) 0.0857(3)
H89 H 1.2091 0.1883 0.0677
H90 H 1.3276 0.2023 0.0587
O35 O 1.3230(4) 0.1089(2) 0.10396(18)
C51 C 1.3269(6) 0.2351(4) 0.1556(3)
H91 H 1.3802 0.2533 0.1277
H92 H 1.2971 0.2704 0.1817
O36 O 1.3860(4) 0.1664(3) 0.18253(18)
C52 C 1.1444(6) 0.2095(4) 0.1711(3)
H93 H 1.1150 0.2448 0.1973
H94 H 1.0820 0.2110 0.1531
O37 O 1.1844(4) 0.1381(2) 0.19925(18)
C53 C 1.1736(7) 0.3113(4) 0.1042(3)
H95 H 1.1147 0.3085 0.0856
H96 H 1.1365 0.3409 0.1336
C54 C 1.2456(13) 0.3519(7) 0.0647(5)
H97 H 1.2728 0.3800 0.0839
H98 H 1.2015 0.3851 0.0380
H99 H 1.3089 0.3168 0.0467
C55 C 1.7177(5) -0.0579(4) 0.1320(3)
C56 C 1.7051(5) 0.0094(4) 0.1574(3)
H100 H 1.7583 -0.0041 0.1835
H101 H 1.7259 0.0466 0.1291
O38 O 1.5951(4) 0.0416(2) 0.18434(18)
C57 C 1.6890(5) -0.1174(4) 0.1740(3)
H102 H 1.7018 -0.1611 0.1566
H103 H 1.7400 -0.1308 0.2011
O39 O 1.5760(4) -0.0974(3) 0.20082(18)
C58 C 1.6433(5) -0.0385(4) 0.0873(3)
H104 H 1.6656 -0.0011 0.0598
H105 H 1.6584 -0.0825 0.0699
O40 O 1.5270(4) -0.0124(3) 0.10394(17)
C59 C 1.8400(6) -0.0846(4) 0.1080(3)
H106 H 1.8548 -0.0484 0.0772
H107 H 1.8859 -0.0857 0.1352
C60 C 1.8774(13) -0.1562(12) 0.0898(7)
H108 H 1.8633 -0.1928 0.1197
H109 H 1.9571 -0.1685 0.0765
H110 H 1.8367 -0.1551 0.0609
C61 C 1.1171(6) -0.0685(4) 0.3383(3)
O41 O 1.0562(4) -0.0063(3) 0.3313(2)
O42 O 1.2212(4) -0.0904(3) 0.3156(2)
C62 C 1.0804(8) -0.1275(5) 0.3742(4)
H111 H 1.1267 -0.1468 0.4029
H112 H 1.0876 -0.1667 0.3536
H113 H 1.0026 -0.1083 0.3898
C63 C 1.1069(7) 0.0868(5) 0.0630(3)
O43 O 1.1901(4) 0.0659(3) 0.0304(2)
O44 O 1.1049(4) 0.0862(3) 0.11271(19)
C64 C 0.9917(8) 0.1122(11) 0.0450(4)
H114 H 0.9665 0.1656 0.0382
H115 H 0.9390 0.0950 0.0732
H116 H 0.9959 0.0923 0.0121
C65 C 1.1623(6) 0.2314(4) 0.3082(3)
O45 O 1.2595(4) 0.2064(3) 0.2821(2)
O46 O 1.0848(4) 0.2064(3) 0.30955(19)
C66 C 1.1505(7) 0.2926(5) 0.3386(4)
H117 H 1.1436 0.3379 0.3138
H118 H 1.2162 0.2816 0.3564
H119 H 1.0840 0.2982 0.3656
C67 C 1.6101(6) 0.1838(4) 0.0779(3)
O47 O 1.5532(4) 0.1449(3) 0.06886(19)
O48 O 1.6233(4) 0.1900(3) 0.1225(2)
C68 C 1.6628(10) 0.2225(6) 0.0291(4)
H120 H 1.6073 0.2669 0.0160
H121 H 1.6914 0.1905 0.0011
H122 H 1.7241 0.2354 0.0382
C69 C 1.5591(6) -0.2296(4) 0.1270(3)
O49 O 1.5615(4) -0.2534(3) 0.17493(19)
O50 O 1.5216(4) -0.1615(3) 0.10912(18)
C70 C 1.6014(9) -0.2804(5) 0.0846(3)
H123 H 1.6065 -0.2518 0.0491
H124 H 1.5500 -0.3090 0.0869
H125 H 1.6750 -0.3134 0.0906
C71 C 1.7242(6) -0.0137(5) 0.2923(3)
O51 O 1.6645(4) -0.0522(3) 0.28416(19)
O52 O 1.6991(4) 0.0533(3) 0.2791(2)
C72 C 1.8237(7) -0.0545(6) 0.3171(5)
H126 H 1.8661 -0.0960 0.2979
H127 H 1.8018 -0.0722 0.3546
H128 H 1.8698 -0.0225 0.3154
O53 O 1.7897(10) -0.2825(4) 0.2249(4)
C73 C 1.8756(12) -0.2987(6) 0.2390(5)
O54 O 1.8854(11) -0.2686(8) 0.2725(7)
C74 C 1.9610(11) -0.3356(8) 0.2150(6)
H129 H 2.0178 -0.3101 0.2080
H130 H 1.9459 -0.3434 0.1810
H131 H 1.9878 -0.3827 0.2369
O55 O 1.4432(4) 0.2584(3) 0.2443(2)
H132 H 1.4610 0.2818 0.2636
H133 H 1.3821 0.2512 0.2578
O56 O 1.6652(5) -0.1999(4) 0.3144(3)
H134 H 1.6623 -0.1559 0.3045
H135 H 1.7271 -0.2321 0.3101
O57 O 1.5083(4) 0.0863(2) -0.01047(17)
H136 H 1.5347 0.1009 0.0111
H137 H 1.4922 0.1210 -0.0350
Na2A Na 0.5522(2) 0.54616(15) 0.53301(10)
Na3_2 Na 1.5784(3) -0.37510(16) 0.21315(12)
O19_2 O 1.7154(4) 0.2124(3) 0.24634(18)
O22_2 O 1.4896(5) -0.2989(3) 0.2958(2)
O26A O 0.5843(4) 0.4218(3) 0.52320(19)
Na5A Na 1.6224(2) -0.02656(15) -0.03759(10)
Na6_2 Na 0.5528(3) 0.79581(18) 0.25453(12)
Na7_2 Na 0.5839(2) 0.15558(16) 0.21968(11)
O49_2 O 0.5615(4) 0.7466(3) 0.17493(19)
O57A O 1.4917(4) -0.0863(2) 0.01047(17)
C75 C 0.9929(9) 0.0945(6) 0.4394(5)
H138 H 1.0640 0.0823 0.4529
H139 H 0.9766 0.1437 0.4194
H140 H 0.9974 0.0594 0.4158
C76 C 0.9063(8) 0.0918(6) 0.4836(4)
N1 N 0.8384(8) 0.0886(6) 0.5176(4)
C77 C 0.653(3) 0.787(3) 0.4367(10)
H141 H 0.6074 0.7893 0.4719
H142 H 0.6758 0.7369 0.4281
H143 H 0.6109 0.8201 0.4095
C78 C 0.752(4) 0.808(4) 0.438(2)
N2 N 0.807(3) 0.842(2) 0.458(2)
O58 O 1.3516(13) 0.3912(8) 0.1621(7)
H144 H 1.3765 0.3549 0.1843
H145 H 1.3729 0.4248 0.1683
loop_
_geom_bond_atom_site_label_1
_geom_bond_atom_site_label_2
_geom_bond_site_symmetry_1
_geom_bond_site_symmetry_2
Mn1 O1 1_555 1_555
Mn2 O1 1_555 1_555
Mn3 O1 1_555 1_555
Mn4 O1 1_555 1_555
Mn5 O1 1_555 1_555
Mn6 O1 1_555 1_555
Na1 O4 1_555 1_555
Na2 O2 1_555 1_555
Na3 O3 1_555 1_555
C1 C2 1_555 1_555
C2 H1 1_555 1_555
H2 C2 1_555 1_555
O2 Mn1 1_555 1_555
C3 C1 1_555 1_555
H3 C3 1_555 1_555
H4 C3 1_555 1_555
O3 Mn2 1_555 1_555
C4 C1 1_555 1_555
H5 C4 1_555 1_555
H6 C4 1_555 1_555
O4 Mn1 1_555 1_555
C5 C1 1_555 1_555
H7 C5 1_555 1_555
H8 C5 1_555 1_555
C6 C5 1_555 1_555
H9 C6 1_555 1_555
H10 C6 1_555 1_555
H11 C6 1_555 1_555
C7 C8 1_555 1_555
C8 H12 1_555 1_555
H13 C8 1_555 1_555
O5 Mn3 1_555 1_555
C9 C7 1_555 1_555
H14 C9 1_555 1_555
H15 C9 1_555 1_555
O6 Mn2 1_555 1_555
C10 C7 1_555 1_555
H16 C10 1_555 1_555
H17 C10 1_555 1_555
O7 Mn2 1_555 1_555
C11 C7 1_555 1_555
H18 C11 1_555 1_555
H19 C11 1_555 1_555
C12 C11 1_555 1_555
H20 C12 1_555 1_555
H21 C12 1_555 1_555
H22 C12 1_555 1_555
C13 C14 1_555 1_555
C14 H23 1_555 1_555
H24 C14 1_555 1_555
O8 Mn1 1_555 1_555
C15 C13 1_555 1_555
H25 C15 1_555 1_555
H26 C15 1_555 1_555
O9 Mn1 1_555 1_555
C16 C13 1_555 1_555
H27 C16 1_555 1_555
H28 C16 1_555 1_555
O10 Mn3 1_555 1_555
C17 C13 1_555 1_555
H29 C17 1_555 1_555
H30 C17 1_555 1_555
C18 C17 1_555 1_555
H31 C18 1_555 1_555
H32 C18 1_555 1_555
H33 C18 1_555 1_555
C19 C20 1_555 1_555
C20 H34 1_555 1_555
H35 C20 1_555 1_555
O11 Mn4 1_555 1_555
C21 C19 1_555 1_555
H36 C21 1_555 1_555
H37 C21 1_555 1_555
O12 Mn5 1_555 1_555
C22 C19 1_555 1_555
H38 C22 1_555 1_555
H39 C22 1_555 1_555
O13 Mn4 1_555 1_555
C23 C19 1_555 1_555
H40 C23 1_555 1_555
H41 C23 1_555 1_555
C24 C23 1_555 1_555
H42 C24 1_555 1_555
H43 C24 1_555 1_555
H44 C24 1_555 1_555
C25 O14 1_555 1_555
O14 Na1 1_555 1_555
O15 Mn2 1_555 1_555
C26 C25 1_555 1_555
H45 C26 1_555 1_555
H46 C26 1_555 1_555
H47 C26 1_555 1_555
C27 O16 1_555 1_555
O16 Na1 1_555 1_555
O17 Mn1 1_555 1_555
C28 C27 1_555 1_555
H48 C28 1_555 1_555
H49 C28 1_555 1_555
H50 C28 1_555 1_555
C29 O18 1_555 1_555
O18 Na1 1_555 1_555
O19 Mn3 1_555 1_555
C30 C29 1_555 1_555
H51 C30 1_555 1_555
H52 C30 1_555 1_555
H53 C30 1_555 1_555
C31 O20 1_555 1_555
O20 Na2 1_555 1_555
O21 Mn6 1_555 1_555
C32 C31 1_555 1_555
H54 C32 1_555 1_555
H55 C32 1_555 1_555
H56 C32 1_555 1_555
C33 O22 1_555 1_555
O22 Na3 1_555 1_555
O23 Mn5 1_555 1_555
C34 C33 1_555 1_555
H57 C34 1_555 1_555
H58 C34 1_555 1_555
H59 C34 1_555 1_555
C35 O24 1_555 1_555
O24 Na3 1_555 1_555
O25 Mn4 1_555 1_555
C36 C35 1_555 1_555
H60 C36 1_555 1_555
H61 C36 1_555 1_555
H62 C36 1_555 1_555
O26 Na2 1_555 1_555
H63 O26 1_555 1_555
H64 O26 1_555 1_555
O27 Na3 1_555 1_555
H65 O27 1_555 1_555
H66 O27 1_555 1_555
Mn7 O28 1_555 1_555
Mn8 O28 1_555 1_555
Mn9 O28 1_555 1_555
Mn10 O28 1_555 1_555
Mn11 O28 1_555 1_555
Mn12 O28 1_555 1_555
Na4 O18 1_555 1_555
Na5 O29 1_555 1_555
Na6 O31 1_555 1_555
Na7 O32 1_555 1_555
C37 C38 1_555 1_555
C38 H67 1_555 1_555
H68 C38 1_555 1_555
O29 Mn7 1_555 1_555
C39 C37 1_555 1_555
H69 C39 1_555 1_555
H70 C39 1_555 1_555
O30 Mn7 1_555 1_555
C40 C37 1_555 1_555
H71 C40 1_555 1_555
H72 C40 1_555 1_555
O31 Mn8 1_555 1_555
C41 C37 1_555 1_555
H73 C41 1_555 1_555
H74 C41 1_555 1_555
C42 C41 1_555 1_555
H75 C42 1_555 1_555
H76 C42 1_555 1_555
H77 C42 1_555 1_555
C43 C44 1_555 1_555
C44 H78 1_555 1_555
H79 C44 1_555 1_555
O32 Mn9 1_555 1_555
C45 C43 1_555 1_555
H80 C45 1_555 1_555
H81 C45 1_555 1_555
O33 Mn8 1_555 1_555
C46 C43 1_555 1_555
H82 C46 1_555 1_555
H83 C46 1_555 1_555
O34 Mn8 1_555 1_555
C47 C43 1_555 1_555
H84 C47 1_555 1_555
H85 C47 1_555 1_555
C48 C47 1_555 1_555
H86 C48 1_555 1_555
H87 C48 1_555 1_555
H88 C48 1_555 1_555
C49 C50 1_555 1_555
C50 H89 1_555 1_555
H90 C50 1_555 1_555
O35 Mn7 1_555 1_555
C51 C49 1_555 1_555
H91 C51 1_555 1_555
H92 C51 1_555 1_555
O36 Mn9 1_555 1_555
C52 C49 1_555 1_555
H93 C52 1_555 1_555
H94 C52 1_555 1_555
O37 Mn7 1_555 1_555
C53 C49 1_555 1_555
H95 C53 1_555 1_555
H96 C53 1_555 1_555
C54 C53 1_555 1_555
H97 C54 1_555 1_555
H98 C54 1_555 1_555
H99 C54 1_555 1_555
C55 C56 1_555 1_555
C56 H100 1_555 1_555
H101 C56 1_555 1_555
O38 Mn10 1_555 1_555
C57 C55 1_555 1_555
H102 C57 1_555 1_555
H103 C57 1_555 1_555
O39 Mn10 1_555 1_555
C58 C55 1_555 1_555
H104 C58 1_555 1_555
H105 C58 1_555 1_555
O40 Mn11 1_555 1_555
C59 C55 1_555 1_555
H106 C59 1_555 1_555
H107 C59 1_555 1_555
C60 C59 1_555 1_555
H108 C60 1_555 1_555
H109 C60 1_555 1_555
H110 C60 1_555 1_555
C61 O41 1_555 1_555
O41 Na4 1_555 1_555
O42 Mn8 1_555 1_555
C62 C61 1_555 1_555
H111 C62 1_555 1_555
H112 C62 1_555 1_555
H113 C62 1_555 1_555
C63 O43 1_555 1_555
O43 Na5 1_555 1_555
O44 Mn7 1_555 1_555
C64 C63 1_555 1_555
H114 C64 1_555 1_555
H115 C64 1_555 1_555
H116 C64 1_555 1_555
C65 O45 1_555 1_555
O45 Mn9 1_555 1_555
O46 Na1 1_555 1_555
C66 C65 1_555 1_555
H117 C66 1_555 1_555
H118 C66 1_555 1_555
H119 C66 1_555 1_555
C67 O47 1_555 1_555
O47 Mn12 1_555 1_555
O48 Na7 1_555 1_555
C68 C67 1_555 1_555
H120 C68 1_555 1_555
H121 C68 1_555 1_555
H122 C68 1_555 1_555
C69 O49 1_555 1_555
O49 Na6 1_555 1_555
O50 Mn11 1_555 1_555
C70 C69 1_555 1_555
H123 C70 1_555 1_555
H124 C70 1_555 1_555
H125 C70 1_555 1_555
C71 O51 1_555 1_555
O51 Mn10 1_555 1_555
O52 Na7 1_555 1_555
C72 C71 1_555 1_555
H126 C72 1_555 1_555
H127 C72 1_555 1_555
H128 C72 1_555 1_555
O53 Na6 1_555 1_555
C73 O53 1_555 1_555
O54 C73 1_555 1_555
C74 C73 1_555 1_555
H129 C74 1_555 1_555
H130 C74 1_555 1_555
H131 C74 1_555 1_555
O55 Na7 1_555 1_555
H132 O55 1_555 1_555
H133 O55 1_555 1_555
O56 Na6 1_555 1_555
H134 O56 1_555 1_555
H135 O56 1_555 1_555
O57 Na5 1_555 1_555
H136 O57 1_555 1_555
H137 O57 1_555 1_555
C75 H138 1_555 1_555
H139 C75 1_555 1_555
H140 C75 1_555 1_555
C76 C75 1_555 1_555
N1 C76 1_555 1_555
C77 H141 1_555 1_555
H142 C77 1_555 1_555
H143 C77 1_555 1_555
C78 C77 1_555 1_555
N2 C78 1_555 1_555
O58 H144 1_555 1_555
H145 O58 1_555 1_555
Na2A O26 1_555 1_555
Na3_2 O49 1_555 1_555
O19_2 Na7 1_555 1_555
O22_2 Na6 1_555 1_555
O26A Na2 1_555 1_555
Na5A O57 1_555 1_555
Na6_2 O22 1_555 1_555
Na7_2 O19 1_555 1_555
O49_2 Na3 1_555 1_555
O57A Na5 1_555 1_555
Mn2 O4 1_555 1_555
Mn3 O6 1_555 1_555
Mn3 O8 1_555 1_555
Mn4 O5 1_555 1_555
Mn4 O7 1_555 1_555
Mn5 O2 1_555 1_555
Mn5 O3 1_555 1_555
Mn5 O11 1_555 1_555
Mn6 O9 1_555 1_555
Mn6 O10 1_555 1_555
Mn6 O12 1_555 1_555
Mn6 O13 1_555 1_555
Na1 O6 1_555 1_555
Na1 O8 1_555 1_555
Na2 O9 1_555 1_555
Na2 O12 1_555 1_555
Na3 O7 1_555 1_555
Na3 O11 1_555 1_555
C2 O2 1_555 1_555
C3 O3 1_555 1_555
C4 O4 1_555 1_555
C8 O5 1_555 1_555
C9 O6 1_555 1_555
C10 O7 1_555 1_555
C14 O8 1_555 1_555
C15 O9 1_555 1_555
C16 O10 1_555 1_555
C20 O11 1_555 1_555
C21 O12 1_555 1_555
C22 O13 1_555 1_555
C25 O15 1_555 1_555
C27 O17 1_555 1_555
C29 O19 1_555 1_555
C31 O21 1_555 1_555
C33 O23 1_555 1_555
C35 O25 1_555 1_555
Mn8 O30 1_555 1_555
Mn9 O33 1_555 1_555
Mn9 O37 1_555 1_555
Mn10 O32 1_555 1_555
Mn10 O34 1_555 1_555
Mn11 O29 1_555 1_555
Mn11 O31 1_555 1_555
Mn11 O39 1_555 1_555
Mn12 O35 1_555 1_555
Mn12 O36 1_555 1_555
Mn12 O38 1_555 1_555
Mn12 O40 1_555 1_555
Na4 O30 1_555 1_555
Na4 O33 1_555 1_555
Na4 O37 1_555 1_555
Na4 O46 1_555 1_555
Na5 O35 1_555 1_555
Na5 O40 1_555 1_555
Na6 O34 1_555 1_555
Na6 O39 1_555 1_555
Na7 O36 1_555 1_555
Na7 O38 1_555 1_555
C38 O29 1_555 1_555
C39 O30 1_555 1_555
C40 O31 1_555 1_555
C44 O32 1_555 1_555
C45 O33 1_555 1_555
C46 O34 1_555 1_555
C50 O35 1_555 1_555
C51 O36 1_555 1_555
C52 O37 1_555 1_555
C56 O38 1_555 1_555
C57 O39 1_555 1_555
C58 O40 1_555 1_555
C61 O42 1_555 1_555
C63 O44 1_555 1_555
C65 O46 1_555 1_555
C67 O48 1_555 1_555
C69 O50 1_555 1_555
C71 O52 1_555 1_555
Na2A O26A 1_555 1_555
Na3_2 O22_2 1_555 1_555
Na5A O57A 1_555 1_555
Na6_2 O49_2 1_555 1_555

#END
