
#######################################################################
#
#                 Cambridge Crystallographic Data Centre
#                                CCDC 
#
#######################################################################
#
# If this CIF has been generated from an entry in the Cambridge 
# Structural Database, then it will include bibliographic, chemical, 
# crystal, experimental, refinement or atomic coordinate data resulting 
# from the CCDC's data processing and validation procedures.
#
#######################################################################

data_HUHLOL
_symmetry_cell_setting           monoclinic
_symmetry_space_group_name_H-M   'P 21/c'
_symmetry_Int_Tables_number      14
_space_group_name_Hall           '-P 2ybc'
loop_
_symmetry_equiv_pos_site_id
_symmetry_equiv_pos_as_xyz
1 x,y,z
2 x,1/2-y,1/2+z
3 -x,-y,-z
4 -x,1/2+y,1/2-z
_cell_length_a                   23.604(3)
_cell_length_b                   19.772(2)
_cell_length_c                   19.185(2)
_cell_angle_alpha                90
_cell_angle_beta                 90.503(2)
_cell_angle_gamma                90
_cell_volume                     8953.26
loop_
_atom_site_label
_atom_site_type_symbol
_atom_site_fract_x
_atom_site_fract_y
_atom_site_fract_z
Ce1 Ce 0.166049(13) 0.275015(16) 0.366247(17)
Ce2 Ce -0.118130(14) 0.281790(17) 0.292220(19)
Ce3 Ce -0.332970(13) 0.231750(16) 0.123900(17)
Ce4 Ce 0.386088(14) 0.251477(16) 0.535905(19)
N1 N 0.1730(2) 0.4082(2) 0.3675(3)
N2 N 0.15111(19) 0.3376(2) 0.4899(3)
N3 N 0.08220(19) 0.2215(2) 0.4424(3)
N4 N 0.1560(2) 0.1420(2) 0.3645(3)
N5 N 0.2416(2) 0.2068(2) 0.2891(3)
N6 N 0.18780(19) 0.3354(2) 0.2421(3)
N7 N -0.32380(19) 0.0992(2) 0.1152(3)
N8 N -0.34637(19) 0.1614(2) 0.2437(3)
N9 N -0.41562(19) 0.2804(2) 0.2051(2)
N10 N -0.3419(2) 0.3638(2) 0.1341(3)
N11 N -0.2578(2) 0.3054(2) 0.0509(3)
N12 N -0.31053(19) 0.1807(2) -0.0029(3)
O1 O 0.21505(16) 0.22795(19) 0.4788(2)
O2 O 0.28387(16) 0.2673(2) 0.5496(2)
O3 O 0.06812(16) 0.32733(18) 0.3576(2)
O4 O -0.02104(17) 0.3003(2) 0.3323(2)
O5 O 0.27055(16) 0.30363(18) 0.3784(2)
O6 O 0.34728(17) 0.2491(2) 0.4182(2)
O7 O 0.11006(17) 0.23911(19) 0.2547(2)
O8 O 0.05402(17) 0.2845(2) 0.1722(2)
O9 O -0.28067(16) 0.27096(18) 0.2390(2)
O10 O -0.21393(16) 0.22718(19) 0.3102(2)
O11 O -0.43399(16) 0.18244(19) 0.1119(2)
O12 O -0.52024(17) 0.2196(2) 0.0825(2)
O13 O -0.22919(16) 0.20127(19) 0.1300(2)
O14 O -0.15396(17) 0.2530(2) 0.1778(2)
O15 O -0.39124(16) 0.27311(19) 0.0145(2)
O16 O -0.44700(17) 0.2293(2) -0.0690(2)
O17 O 0.36767(18) 0.12777(19) 0.5147(2)
O18 O 0.46084(17) 0.20228(19) 0.4577(2)
O19 O 0.40407(18) 0.3644(2) 0.4813(2)
O20 O 0.38080(19) 0.1883(2) 0.6471(2)
O21 O 0.37495(18) 0.3397(2) 0.6328(2)
O22 O -0.11373(18) 0.2490(2) 0.4231(2)
O23 O -0.11805(19) 0.3840(2) 0.3762(2)
O24 O -0.20143(17) 0.36614(19) 0.2659(2)
O25 O -0.07545(18) 0.3857(2) 0.2292(2)
O26 O -0.10954(18) 0.1537(2) 0.3091(3)
O27 O -0.04500(17) 0.2280(2) 0.2125(2)
C1 C 0.1916(2) 0.4410(3) 0.3111(3)
C2 C 0.1870(3) 0.5107(3) 0.3045(4)
H1 H 0.1989 0.5326 0.2631
C3 C 0.1649(3) 0.5478(3) 0.3592(4)
H2 H 0.1621 0.5957 0.3563
C4 C 0.1472(3) 0.5141(3) 0.4180(4)
H3 H 0.1323 0.5385 0.4564
C5 C 0.1512(3) 0.4440(3) 0.4205(4)
C6 C 0.1261(3) 0.4055(3) 0.4813(3)
H4 H 0.1324 0.4318 0.5246
H5 H 0.0847 0.4010 0.4740
C7 C 0.1149(2) 0.2967(3) 0.5385(3)
H6 H 0.1384 0.2609 0.5603
H7 H 0.1008 0.3265 0.5761
C8 C 0.0656(2) 0.2648(3) 0.5022(3)
H8 H 0.0445 0.2370 0.5361
H9 H 0.0398 0.3008 0.4852
C9 C 0.0965(3) 0.1522(3) 0.4672(3)
H10 H 0.0615 0.1294 0.4826
H11 H 0.1224 0.1556 0.5079
C10 C 0.1240(3) 0.1104(3) 0.4122(3)
C11 C 0.1188(3) 0.0405(3) 0.4132(4)
H12 H 0.0950 0.0191 0.4464
C12 C 0.1486(3) 0.0020(3) 0.3653(4)
H13 H 0.1460 -0.0460 0.3656
C13 C 0.1824(3) 0.0351(3) 0.3165(4)
H14 H 0.2038 0.0099 0.2838
C14 C 0.1841(3) 0.1044(3) 0.3166(3)
C15 C 0.2166(3) 0.1430(3) 0.2620(3)
H15 H 0.2474 0.1140 0.2440
H16 H 0.1909 0.1537 0.2225
C16 C 0.2649(2) 0.2488(3) 0.2319(3)
H17 H 0.2837 0.2189 0.1978
H18 H 0.2940 0.2797 0.2514
C17 C 0.2203(2) 0.2903(3) 0.1943(3)
H19 H 0.2389 0.3184 0.1584
H20 H 0.1936 0.2594 0.1702
C18 C 0.2194(3) 0.3987(3) 0.2553(3)
H21 H 0.2215 0.4251 0.2116
H22 H 0.2586 0.3875 0.2701
C19 C 0.2086(2) 0.3415(3) 0.5198(3)
H23 H 0.2065 0.3558 0.5692
H24 H 0.2308 0.3759 0.4942
C20 C 0.2385(2) 0.2736(3) 0.5155(3)
C21 C 0.0345(2) 0.2189(3) 0.3920(3)
H25 H -0.0006 0.2054 0.4164
H26 H 0.0424 0.1846 0.3557
C22 C 0.0262(2) 0.2871(3) 0.3585(3)
C23 C 0.2883(2) 0.1914(3) 0.3380(3)
H27 H 0.3219 0.1763 0.3117
H28 H 0.2769 0.1543 0.3695
C24 C 0.3034(2) 0.2536(3) 0.3808(3)
C25 C 0.1322(2) 0.3494(3) 0.2113(3)
H29 H 0.1368 0.3647 0.1625
H30 H 0.1134 0.3860 0.2376
C26 C 0.0959(2) 0.2859(3) 0.2128(3)
C27 C -0.3013(3) 0.0705(3) 0.0579(3)
C28 C -0.2986(3) 0.0013(3) 0.0505(4)
H31 H -0.2842 -0.0181 0.0089
C29 C -0.3171(3) -0.0399(3) 0.1042(4)
H32 H -0.3148 -0.0877 0.1004
C30 C -0.3385(3) -0.0106(3) 0.1626(4)
H33 H -0.3507 -0.0378 0.2004
C31 C -0.3423(3) 0.0597(3) 0.1664(4)
C32 C -0.3700(3) 0.0939(3) 0.2281(3)
H34 H -0.3653 0.0647 0.2697
H35 H -0.4111 0.0984 0.2186
C33 C -0.3823(2) 0.1978(3) 0.2952(3)
H36 H -0.3958 0.1653 0.3305
H37 H -0.3591 0.2324 0.3194
C34 C -0.4330(2) 0.2317(3) 0.2604(3)
H38 H -0.4551 0.2561 0.2962
H39 H -0.4578 0.1967 0.2395
C35 C -0.3993(3) 0.3451(3) 0.2376(3)
H40 H -0.4335 0.3672 0.2564
H41 H -0.3731 0.3361 0.2771
C36 C -0.3710(3) 0.3925(3) 0.1870(3)
C37 C -0.3723(3) 0.4622(3) 0.1964(4)
H42 H -0.3934 0.4816 0.2332
C38 C -0.3424(3) 0.5025(3) 0.1513(4)
H43 H -0.3424 0.5502 0.1575
C39 C -0.3125(3) 0.4746(3) 0.0979(4)
H44 H -0.2919 0.5025 0.0667
C40 C -0.3127(3) 0.4054(3) 0.0899(3)
C41 C -0.2828(3) 0.3716(3) 0.0307(3)
H45 H -0.2524 0.4017 0.0139
H46 H -0.3101 0.3645 -0.0081
C42 C -0.2356(2) 0.2691(3) -0.0107(3)
H47 H -0.2190 0.3023 -0.0433
H48 H -0.2050 0.2381 0.0045
C43 C -0.2806(2) 0.2290(3) -0.0486(3)
H49 H -0.2628 0.2037 -0.0872
H50 H -0.3085 0.2607 -0.0693
C44 C -0.2766(3) 0.1174(3) 0.0035(3)
H51 H -0.2759 0.0941 -0.0422
H52 H -0.2371 0.1289 0.0165
C45 C -0.2889(2) 0.1554(3) 0.2727(3)
H53 H -0.2909 0.1367 0.3205
H54 H -0.2669 0.1233 0.2439
C46 C -0.2586(2) 0.2230(3) 0.2749(3)
C47 C -0.4646(2) 0.2888(3) 0.1572(3)
H55 H -0.4990 0.2986 0.1846
H56 H -0.4578 0.3276 0.1258
C48 C -0.4740(2) 0.2251(3) 0.1140(3)
C49 C -0.2102(2) 0.3162(3) 0.1006(3)
H57 H -0.1762 0.3314 0.0750
H58 H -0.2204 0.3519 0.1344
C50 C -0.1970(2) 0.2519(3) 0.1388(3)
C51 C -0.3663(2) 0.1658(3) -0.0343(3)
H59 H -0.3616 0.1534 -0.0839
H60 H -0.3838 0.1271 -0.0099
C52 C -0.4045(2) 0.2274(3) -0.0288(3)
O12A O 0.47976(17) 0.2804(2) 0.5825(2)
Ce4A Ce -0.613912(14) 0.248523(16) 0.035905(19)
O28 O 0.5592(2) 0.0973(2) 0.5035(3)
N13 N 0.2023(3) 0.5163(3) 0.1015(3)
O31 O 0.1659(2) 0.4727(3) 0.0896(3)
O35 O 0.2522(2) 0.5032(3) 0.0912(4)
O36 O 0.1903(3) 0.5728(3) 0.1236(4)
N14 N 0.5416(2) -0.1049(3) 0.7115(3)
O30 O 0.5121(2) -0.0607(3) 0.6816(3)
O33 O 0.5402(2) -0.1091(2) 0.7768(3)
O48 O 0.5711(2) -0.1444(2) 0.6763(3)
O29 O 0.6582(2) 0.0267(3) 0.8605(3)
N15 N 0.7032(3) -0.0037(3) 0.8547(3)
O32 O 0.7471(3) 0.0241(3) 0.8317(4)
O34 O 0.7080(2) -0.0633(3) 0.8730(3)
O37 O 0.25841(18) 0.1012(2) 0.4914(3)
O38 O 0.47472(18) 0.3557(2) 0.3676(2)
O39 O -0.00961(19) 0.3848(2) 0.1075(2)
O40 O 0.53584(19) 0.4490(2) 0.5779(3)
O41 O 0.44988(19) 0.0436(2) 0.4571(3)
O42 O 0.4112(2) 0.2251(2) 0.7741(3)
O43 O 0.06583(19) 0.1162(2) 0.2082(2)
O44 O 0.42677(19) 0.4863(2) 0.5446(3)
O45 O 0.4798(2) 0.0243(2) 0.7994(3)
O46 O 0.8582(2) -0.0187(2) 0.8557(3)
O47 O 0.0513(2) 0.5067(2) 0.0905(3)
O49 O 0.0256(2) 0.5574(2) 0.2201(3)
O50 O 0.9186(2) 0.3695(2) 0.9906(3)
O51 O 0.9572(2) 0.1157(3) 0.9902(3)
N16 N 0.9499(4) 0.1408(5) 1.0474(5)
O53 O 0.9786(4) 0.1269(5) 1.0974(4)
O54 O 0.9110(5) 0.1829(5) 1.0523(6)
O52 O 0.6310(3) 0.0451(3) 0.3994(3)
O55 O 0.0170(2) 0.4513(2) 0.3138(3)
O56 O 0.4103(4) 0.0624(3) 0.6760(4)
O57 O 1.0140(6) 0.0078(8) 1.0741(7)
loop_
_geom_bond_atom_site_label_1
_geom_bond_atom_site_label_2
_geom_bond_site_symmetry_1
_geom_bond_site_symmetry_2
Ce1 N1 1_555 1_555
Ce2 O4 1_555 1_555
Ce3 N7 1_555 1_555
Ce4 O2 1_555 1_555
N1 C1 1_555 1_555
N2 Ce1 1_555 1_555
N3 Ce1 1_555 1_555
N4 Ce1 1_555 1_555
N5 Ce1 1_555 1_555
N6 Ce1 1_555 1_555
N7 C27 1_555 1_555
N8 Ce3 1_555 1_555
N9 Ce3 1_555 1_555
N10 Ce3 1_555 1_555
N11 Ce3 1_555 1_555
N12 Ce3 1_555 1_555
O1 Ce1 1_555 1_555
O2 C20 1_555 1_555
O3 Ce1 1_555 1_555
O4 C22 1_555 1_555
O5 Ce1 1_555 1_555
O6 Ce4 1_555 1_555
O7 Ce1 1_555 1_555
O8 C26 1_555 1_555
O9 Ce3 1_555 1_555
O10 Ce2 1_555 1_555
O11 Ce3 1_555 1_555
O12 C48 1_555 1_555
O13 Ce3 1_555 1_555
O14 Ce2 1_555 1_555
O15 Ce3 1_555 1_555
O16 C52 1_555 1_555
O17 Ce4 1_555 1_555
O18 Ce4 1_555 1_555
O19 Ce4 1_555 1_555
O20 Ce4 1_555 1_555
O21 Ce4 1_555 1_555
O22 Ce2 1_555 1_555
O23 Ce2 1_555 1_555
O24 Ce2 1_555 1_555
O25 Ce2 1_555 1_555
O26 Ce2 1_555 1_555
O27 Ce2 1_555 1_555
C1 C2 1_555 1_555
C2 H1 1_555 1_555
C3 C2 1_555 1_555
H2 C3 1_555 1_555
C4 C3 1_555 1_555
H3 C4 1_555 1_555
C5 N1 1_555 1_555
C6 N2 1_555 1_555
H4 C6 1_555 1_555
H5 C6 1_555 1_555
C7 N2 1_555 1_555
H6 C7 1_555 1_555
H7 C7 1_555 1_555
C8 N3 1_555 1_555
H8 C8 1_555 1_555
H9 C8 1_555 1_555
C9 N3 1_555 1_555
H10 C9 1_555 1_555
H11 C9 1_555 1_555
C10 N4 1_555 1_555
C11 C10 1_555 1_555
H12 C11 1_555 1_555
C12 C11 1_555 1_555
H13 C12 1_555 1_555
C13 C12 1_555 1_555
H14 C13 1_555 1_555
C14 N4 1_555 1_555
C15 N5 1_555 1_555
H15 C15 1_555 1_555
H16 C15 1_555 1_555
C16 N5 1_555 1_555
H17 C16 1_555 1_555
H18 C16 1_555 1_555
C17 N6 1_555 1_555
H19 C17 1_555 1_555
H20 C17 1_555 1_555
C18 N6 1_555 1_555
H21 C18 1_555 1_555
H22 C18 1_555 1_555
C19 N2 1_555 1_555
H23 C19 1_555 1_555
H24 C19 1_555 1_555
C20 O1 1_555 1_555
C21 N3 1_555 1_555
H25 C21 1_555 1_555
H26 C21 1_555 1_555
C22 O3 1_555 1_555
C23 N5 1_555 1_555
H27 C23 1_555 1_555
H28 C23 1_555 1_555
C24 O5 1_555 1_555
C25 N6 1_555 1_555
H29 C25 1_555 1_555
H30 C25 1_555 1_555
C26 O7 1_555 1_555
C27 C28 1_555 1_555
C28 H31 1_555 1_555
C29 C28 1_555 1_555
H32 C29 1_555 1_555
C30 C29 1_555 1_555
H33 C30 1_555 1_555
C31 N7 1_555 1_555
C32 N8 1_555 1_555
H34 C32 1_555 1_555
H35 C32 1_555 1_555
C33 N8 1_555 1_555
H36 C33 1_555 1_555
H37 C33 1_555 1_555
C34 N9 1_555 1_555
H38 C34 1_555 1_555
H39 C34 1_555 1_555
C35 N9 1_555 1_555
H40 C35 1_555 1_555
H41 C35 1_555 1_555
C36 N10 1_555 1_555
C37 C36 1_555 1_555
H42 C37 1_555 1_555
C38 C37 1_555 1_555
H43 C38 1_555 1_555
C39 C38 1_555 1_555
H44 C39 1_555 1_555
C40 N10 1_555 1_555
C41 N11 1_555 1_555
H45 C41 1_555 1_555
H46 C41 1_555 1_555
C42 N11 1_555 1_555
H47 C42 1_555 1_555
H48 C42 1_555 1_555
C43 N12 1_555 1_555
H49 C43 1_555 1_555
H50 C43 1_555 1_555
C44 N12 1_555 1_555
H51 C44 1_555 1_555
H52 C44 1_555 1_555
C45 N8 1_555 1_555
H53 C45 1_555 1_555
H54 C45 1_555 1_555
C46 O9 1_555 1_555
C47 N9 1_555 1_555
H55 C47 1_555 1_555
H56 C47 1_555 1_555
C48 O11 1_555 1_555
C49 N11 1_555 1_555
H57 C49 1_555 1_555
H58 C49 1_555 1_555
C50 O13 1_555 1_555
C51 N12 1_555 1_555
H59 C51 1_555 1_555
H60 C51 1_555 1_555
C52 O15 1_555 1_555
N13 O31 1_555 1_555
N14 O30 1_555 1_555
O29 N15 1_555 1_555
N15 O32 1_555 1_555
O33 N14 1_555 1_555
O34 N15 1_555 1_555
O35 N13 1_555 1_555
O36 N13 1_555 1_555
O48 N14 1_555 1_555
O51 N16 1_555 1_555
N16 O53 1_555 1_555
O54 N16 1_555 1_555
O12A Ce4 1_555 1_555
Ce4A O12 1_555 1_555
O6 C24 1_555 1_555
O10 C46 1_555 1_555
O14 C50 1_555 1_555
C1 C18 1_555 1_555
C4 C5 1_555 1_555
C5 C6 1_555 1_555
C7 C8 1_555 1_555
C9 C10 1_555 1_555
C13 C14 1_555 1_555
C14 C15 1_555 1_555
C16 C17 1_555 1_555
C19 C20 1_555 1_555
C21 C22 1_555 1_555
C23 C24 1_555 1_555
C25 C26 1_555 1_555
C27 C44 1_555 1_555
C30 C31 1_555 1_555
C31 C32 1_555 1_555
C33 C34 1_555 1_555
C35 C36 1_555 1_555
C39 C40 1_555 1_555
C40 C41 1_555 1_555
C42 C43 1_555 1_555
C45 C46 1_555 1_555
C47 C48 1_555 1_555
C49 C50 1_555 1_555
C51 C52 1_555 1_555

#END
