
#######################################################################
#
#                 Cambridge Crystallographic Data Centre
#                                CCDC 
#
#######################################################################
#
# If this CIF has been generated from an entry in the Cambridge 
# Structural Database, then it will include bibliographic, chemical, 
# crystal, experimental, refinement or atomic coordinate data resulting 
# from the CCDC's data processing and validation procedures.
#
#######################################################################

data_HUHWIS
_symmetry_cell_setting           triclinic
_symmetry_space_group_name_H-M   'P -1'
_symmetry_Int_Tables_number      2
_space_group_name_Hall           '-P 1'
loop_
_symmetry_equiv_pos_site_id
_symmetry_equiv_pos_as_xyz
1 x,y,z
2 -x,-y,-z
_cell_length_a                   13.1304(7)
_cell_length_b                   16.5224(9)
_cell_length_c                   19.2845(10)
_cell_angle_alpha                83.670(3)
_cell_angle_beta                 82.840(3)
_cell_angle_gamma                70.242(3)
_cell_volume                     3896.28
loop_
_atom_site_label
_atom_site_type_symbol
_atom_site_fract_x
_atom_site_fract_y
_atom_site_fract_z
Cd1 Cd 0.01615(2) 0.843095(19) 0.162866(14)
Cd2 Cd -0.00368(2) 0.680131(19) 0.838690(14)
N1 N 0.1653(3) 0.8533(2) 0.08915(18)
N2 N 0.5307(3) 0.8780(2) 0.00081(18)
N3 N 0.8821(3) 0.8588(2) 0.08826(18)
N4 N -0.0675(3) 0.7762(2) 0.25634(19)
N5 N -0.1223(3) 0.6302(2) 0.49418(18)
N6 N -0.0816(3) 0.6535(2) 0.74420(18)
N7 N -0.1532(3) 0.6805(2) 0.91510(19)
N8 N -0.5089(3) 0.6350(2) 0.99545(18)
N9 N -0.8723(3) 0.6696(2) 0.91187(19)
N10 N -0.1275(3) 1.0271(2) 0.1705(2)
N11 N 0.1209(4) 0.6566(3) 0.1616(3)
N12 N -0.0349(3) 0.8535(2) 0.77556(18)
N13 N 0.1391(3) 0.5094(3) 0.8142(2)
O1 O 0.0978(3) 0.8959(2) 0.24666(18)
O2 O 0.5232(3) 1.0807(2) -0.42271(17)
O3 O -0.2025(3) 1.0953(2) 0.17440(19)
O4 O -0.2392(3) 0.1720(2) 0.43187(18)
O5 O -0.0467(3) 1.0174(3) 0.12515(18)
O6 O 0.1503(3) 0.6998(2) 0.1999(2)
O7 O -0.5742(3) 0.4639(3) 1.4233(2)
O8 O 0.0554(3) 0.6963(2) 0.1169(2)
O9 O -0.1286(3) 0.9630(2) 0.21221(17)
O10 O 0.1544(3) 0.5763(2) 0.1694(3)
O11 O 0.0610(3) 0.5226(2) 0.86224(17)
O12 O 0.1504(3) 0.5744(2) 0.77707(18)
O13 O 0.2022(3) 0.4361(2) 0.8058(2)
O14 O -0.1168(3) 0.8426(2) 0.81023(17)
O15 O 0.0511(3) 0.7887(2) 0.77067(17)
O16 O -0.0345(4) 0.9229(2) 0.74553(19)
C1 C 0.1927(5) 0.8632(4) 0.2822(3)
C2 C 0.2665(4) 0.8120(3) 0.1066(2)
C3 C 0.3580(3) 0.8213(3) 0.0689(2)
C4 C 0.3490(3) 0.8749(3) 0.0071(2)
C5 C 0.4445(3) 0.8885(3) -0.0346(2)
C6 C 0.6171(3) 0.8946(3) -0.0346(2)
C7 C 0.7101(3) 0.8809(3) 0.0071(2)
C8 C 0.8149(3) 0.8710(3) -0.0233(2)
C9 C 0.8976(3) 0.8591(3) 0.0184(2)
C10 C 0.7807(3) 0.8686(3) 0.1176(2)
C11 C 0.6944(3) 0.8782(3) 0.0800(2)
C12 C 0.6192(3) 0.9255(3) -0.1050(2)
C13 C 0.5310(3) 0.9354(3) -0.1428(2)
C14 C 0.4435(3) 0.9136(3) -0.1061(2)
C15 C 0.5277(3) 0.9723(3) -0.2169(2)
C16 C 0.6221(4) 0.9757(3) -0.2580(2)
C17 C 0.6170(4) 1.0126(3) -0.3259(2)
C18 C 0.5185(4) 1.0467(3) -0.3551(2)
C19 C 0.4236(4) 1.1165(3) -0.4561(2)
C20 C 0.4547(4) 1.1431(3) -0.5311(2)
C21 C 0.3560(4) 1.1833(4) -0.5722(3)
C22 C 0.3859(5) 1.2022(4) -0.6503(3)
C23 C 0.4349(5) 1.2724(4) -0.6668(3)
C24 C 0.4568(8) 1.2909(6) -0.7459(4)
C25 C 0.4232(4) 1.0434(3) -0.3149(2)
C26 C 0.4297(4) 1.0056(3) -0.2468(2)
C27 C 0.2431(3) 0.9171(3) -0.0119(2)
C28 C 0.1557(3) 0.9057(3) 0.0297(2)
C29 C -0.0471(4) 0.7825(3) 0.3219(2)
C30 C -0.0682(4) 0.7311(3) 0.3792(2)
C31 C -0.1148(4) 0.6701(3) 0.3704(2)
C32 C -0.1390(4) 0.6633(3) 0.3034(2)
C33 C -0.1132(4) 0.7164(3) 0.2482(2)
C34 C -0.1318(3) 0.6096(3) 0.4310(2)
C35 C -0.1284(3) 0.5739(3) 0.5493(2)
C36 C -0.1158(3) 0.6005(3) 0.6183(2)
C37 C -0.1164(4) 0.5504(3) 0.6812(2)
C38 C -0.0992(4) 0.5791(3) 0.7420(2)
C39 C -0.2475(4) 0.6945(3) 0.8875(2)
C40 C -0.3355(4) 0.6782(3) 0.9238(2)
C41 C -0.3311(3) 0.6459(3) 0.9936(2)
C42 C -0.4236(3) 0.6221(3) 1.0324(2)
C43 C -0.5935(3) 0.6131(3) 1.0271(2)
C44 C -0.5959(3) 0.5781(3) 1.0963(2)
C45 C -0.5099(3) 0.5669(3) 1.1359(2)
C46 C -0.4219(3) 0.5896(3) 1.1021(2)
C47 C -0.5165(4) 0.5359(3) 1.2110(2)
C48 C -0.6197(4) 0.5581(4) 1.2495(3)
C49 C -0.6335(5) 0.5335(4) 1.3188(3)
C50 C -0.5479(5) 0.4851(4) 1.3522(3)
C51 C -0.4987(5) 0.4031(4) 1.4624(3)
C52 C -0.5531(6) 0.3808(4) 1.5307(3)
C53 C -0.4898(5) 0.3221(4) 1.5844(3)
C54 C -0.5493(5) 0.3048(3) 1.6515(3)
C55 C -0.4875(6) 0.2525(5) 1.7094(3)
C56 C -0.5506(6) 0.2334(4) 1.7744(3)
C57 C -0.4446(5) 0.4605(4) 1.3194(3)
C58 C -0.4282(4) 0.4880(3) 1.2460(3)
C59 C -0.6887(4) 0.6312(3) 0.9862(2)
C60 C -0.7609(4) 0.5856(3) 1.0017(2)
C61 C -0.8497(4) 0.6062(3) 0.9637(2)
C62 C -0.8019(4) 0.7140(3) 0.8974(3)
C63 C -0.7102(4) 0.6961(3) 0.9326(3)
C64 C -0.2360(4) 0.6364(3) 1.0242(2)
C65 C -0.1503(4) 0.6536(3) 0.9835(2)
C66 C -0.0824(4) 0.7024(3) 0.6840(2)
C67 C -0.0986(4) 0.6788(3) 0.6212(2)
C68 C -0.1427(3) 0.4959(3) 0.5422(2)
C69 C -0.1557(3) 0.4745(3) 0.4762(2)
C70 C -0.1501(3) 0.5344(3) 0.4201(2)
C71 C -0.1737(3) 0.3935(3) 0.4647(2)
C72 C -0.1717(4) 0.3704(3) 0.3968(2)
C73 C -0.1911(4) 0.2969(3) 0.3831(3)
C74 C -0.2143(4) 0.2436(3) 0.4389(3)
C75 C -0.2303(4) 0.1457(3) 0.3614(3)
C76 C -0.2543(4) 0.0623(3) 0.3660(3)
C77 C -0.1689(4) -0.0153(3) 0.3985(3)
C78 C -0.1613(4) -0.0154(3) 0.4765(3)
C79 C -0.0813(5) -0.0979(4) 0.5064(3)
C80 C -0.0708(5) -0.0948(4) 0.5835(3)
C81 C -0.2152(4) 0.2642(3) 0.5074(2)
C82 C -0.1949(4) 0.3375(3) 0.5195(2)
H1 H 0.2754 0.7739 0.1478
H2 H 0.4275 0.7913 0.0847
H3 H 0.8296 0.8726 -0.0728
H4 H 0.9690 0.8506 -0.0036
H5 H 0.7679 0.8690 0.1672
H6 H 0.6248 0.8830 0.1035
H7 H 0.6803 0.9398 -0.1271
H8 H 0.3835 0.9159 -0.1301
H9 H 0.6903 0.9524 -0.2389
H10 H 0.6818 1.0146 -0.3530
H11 H 0.3762 1.1652 -0.4331
H12 H 0.3887 1.0744 -0.4549
H13 H 0.4912 1.1839 -0.5311
H14 H 0.5020 1.0936 -0.5531
H15 H 0.3126 1.2360 -0.5529
H16 H 0.3154 1.1448 -0.5678
H17 H 0.3216 1.2180 -0.6736
H18 H 0.4366 1.1508 -0.6677
H19 H 0.3864 1.3235 -0.6476
H20 H 0.5017 1.2556 -0.6462
H21 H 0.4878 1.3357 -0.7541
H22 H 0.3904 1.3081 -0.7670
H23 H 0.5057 1.2402 -0.7656
H24 H 0.3550 1.0668 -0.3339
H25 H 0.3652 1.0025 -0.2199
H26 H 0.2320 0.9538 -0.0538
H27 H 0.0849 0.9363 0.0161
H28 H -0.0164 0.8251 0.3290
H29 H -0.0509 0.7376 0.4242
H30 H -0.1727 0.6229 0.2957
H31 H -0.1284 0.7105 0.2025
H32 H -0.1285 0.4968 0.6823
H33 H -0.0999 0.5438 0.7844
H34 H -0.2531 0.7169 0.8401
H35 H -0.3998 0.6889 0.9014
H36 H -0.6566 0.5618 1.1165
H37 H -0.3608 0.5829 1.1267
H38 H -0.6817 0.5915 1.2262
H39 H -0.7040 0.5507 1.3432
H40 H -0.4441 0.4258 1.4705
H41 H -0.4664 0.3527 1.4374
H42 H -0.5906 0.4336 1.5515
H43 H -0.6042 0.3558 1.5201
H44 H -0.4375 0.3459 1.5949
H45 H -0.4538 0.2684 1.5648
H46 H -0.5910 0.3592 1.6685
H47 H -0.5967 0.2761 1.6412
H48 H -0.4427 0.2823 1.7216
H49 H -0.4432 0.1989 1.6921
H50 H -0.5022 0.1997 1.8074
H51 H -0.5949 0.2859 1.7935
H52 H -0.5954 0.2025 1.7640
H53 H -0.3848 0.4260 1.3443
H54 H -0.3571 0.4731 1.2224
H55 H -0.7495 0.5408 1.0382
H56 H -0.8978 0.5737 0.9747
H57 H -0.8159 0.7595 0.8616
H58 H -0.6620 0.7283 0.9200
H59 H -0.2305 0.6183 1.0725
H60 H -0.0861 0.6460 1.0050
H61 H -0.0712 0.7562 0.6847
H62 H -0.0982 0.7157 0.5799
H63 H -0.1438 0.4570 0.5821
H64 H -0.1590 0.5235 0.3743
H65 H -0.1562 0.4069 0.3583
H66 H -0.1887 0.2832 0.3362
H67 H -0.2812 0.1888 0.3346
H68 H -0.1589 0.1376 0.3397
H69 H -0.3217 0.0698 0.3934
H70 H -0.2602 0.0502 0.3199
H71 H -0.1848 -0.0655 0.3911
H72 H -0.1001 -0.0179 0.3749
H73 H -0.2312 -0.0085 0.5004
H74 H -0.1390 0.0316 0.4840
H75 H -0.1055 -0.1447 0.5011
H76 H -0.0121 -0.1064 0.4811
H77 H -0.0201 -0.1475 0.6001
H78 H -0.1396 -0.0867 0.6094
H79 H -0.0462 -0.0484 0.5894
H80 H -0.2298 0.2272 0.5458
H81 H -0.1955 0.3503 0.5664
H82 H 0.1952 0.9052 0.3113
H83 H 0.2548 0.8502 0.2490
H84 H 0.1920 0.8123 0.3101
H85 H 0.1043 0.9448 0.2241
Cd1_2 Cd 1.01615(2) 0.843095(19) 0.162866(14)
Cd2_2 Cd -1.00368(2) 0.680131(19) 0.838690(14)
N3_2 N -0.1179(3) 0.8588(2) 0.08826(18)
N9_2 N 0.1277(3) 0.6696(2) 0.91187(19)
loop_
_geom_bond_atom_site_label_1
_geom_bond_atom_site_label_2
_geom_bond_site_symmetry_1
_geom_bond_site_symmetry_2
Cd1 N1 1_555 1_555
Cd2 N6 1_555 1_555
N1 C2 1_555 1_555
N2 C5 1_555 1_555
N3 C9 1_555 1_555
N4 Cd1 1_555 1_555
N5 C34 1_555 1_555
N6 C38 1_555 1_555
N7 Cd2 1_555 1_555
N8 C42 1_555 1_555
N9 C61 1_555 1_555
N10 O3 1_555 1_555
N11 O6 1_555 1_555
N12 O14 1_555 1_555
N13 O11 1_555 1_555
O1 Cd1 1_555 1_555
O2 C18 1_555 1_555
O4 C74 1_555 1_555
O5 Cd1 1_555 1_555
O6 Cd1 1_555 1_555
O7 C50 1_555 1_555
O8 Cd1 1_555 1_555
O9 Cd1 1_555 1_555
O10 N11 1_555 1_555
O11 Cd2 1_555 1_555
O12 Cd2 1_555 1_555
O13 N13 1_555 1_555
O14 Cd2 1_555 1_555
O15 Cd2 1_555 1_555
O16 N12 1_555 1_555
C1 O1 1_555 1_555
C2 C3 1_555 1_555
C3 C4 1_555 1_555
C4 C5 1_555 1_555
C5 C14 1_555 1_555
C6 N2 1_555 1_555
C7 C6 1_555 1_555
C8 C7 1_555 1_555
C9 C8 1_555 1_555
C10 N3 1_555 1_555
C11 C7 1_555 1_555
C12 C6 1_555 1_555
C13 C12 1_555 1_555
C14 C13 1_555 1_555
C15 C13 1_555 1_555
C16 C15 1_555 1_555
C17 C16 1_555 1_555
C18 C17 1_555 1_555
C19 O2 1_555 1_555
C20 C19 1_555 1_555
C21 C20 1_555 1_555
C22 C21 1_555 1_555
C23 C22 1_555 1_555
C24 C23 1_555 1_555
C25 C18 1_555 1_555
C26 C15 1_555 1_555
C27 C4 1_555 1_555
C28 N1 1_555 1_555
C29 N4 1_555 1_555
C30 C29 1_555 1_555
C31 C30 1_555 1_555
C32 C31 1_555 1_555
C33 N4 1_555 1_555
C34 C31 1_555 1_555
C35 N5 1_555 1_555
C36 C35 1_555 1_555
C37 C36 1_555 1_555
C38 C37 1_555 1_555
C39 N7 1_555 1_555
C40 C39 1_555 1_555
C41 C40 1_555 1_555
C42 C41 1_555 1_555
C43 N8 1_555 1_555
C44 C43 1_555 1_555
C45 C44 1_555 1_555
C46 C42 1_555 1_555
C47 C45 1_555 1_555
C48 C47 1_555 1_555
C49 C48 1_555 1_555
C50 C49 1_555 1_555
C51 O7 1_555 1_555
C52 C51 1_555 1_555
C53 C52 1_555 1_555
C54 C53 1_555 1_555
C55 C54 1_555 1_555
C56 C55 1_555 1_555
C57 C50 1_555 1_555
C58 C47 1_555 1_555
C59 C43 1_555 1_555
C60 C59 1_555 1_555
C61 C60 1_555 1_555
C62 N9 1_555 1_555
C63 C59 1_555 1_555
C64 C41 1_555 1_555
C65 N7 1_555 1_555
C66 N6 1_555 1_555
C67 C36 1_555 1_555
C68 C35 1_555 1_555
C69 C68 1_555 1_555
C70 C34 1_555 1_555
C71 C69 1_555 1_555
C72 C71 1_555 1_555
C73 C72 1_555 1_555
C74 C73 1_555 1_555
C75 O4 1_555 1_555
C76 C75 1_555 1_555
C77 C76 1_555 1_555
C78 C77 1_555 1_555
C79 C78 1_555 1_555
C80 C79 1_555 1_555
C81 C74 1_555 1_555
C82 C71 1_555 1_555
H1 C2 1_555 1_555
H2 C3 1_555 1_555
H3 C8 1_555 1_555
H4 C9 1_555 1_555
H5 C10 1_555 1_555
H6 C11 1_555 1_555
H7 C12 1_555 1_555
H8 C14 1_555 1_555
H9 C16 1_555 1_555
H10 C17 1_555 1_555
H11 C19 1_555 1_555
H12 C19 1_555 1_555
H13 C20 1_555 1_555
H14 C20 1_555 1_555
H15 C21 1_555 1_555
H16 C21 1_555 1_555
H17 C22 1_555 1_555
H18 C22 1_555 1_555
H19 C23 1_555 1_555
H20 C23 1_555 1_555
H21 C24 1_555 1_555
H22 C24 1_555 1_555
H23 C24 1_555 1_555
H24 C25 1_555 1_555
H25 C26 1_555 1_555
H26 C27 1_555 1_555
H27 C28 1_555 1_555
H28 C29 1_555 1_555
H29 C30 1_555 1_555
H30 C32 1_555 1_555
H31 C33 1_555 1_555
H32 C37 1_555 1_555
H33 C38 1_555 1_555
H34 C39 1_555 1_555
H35 C40 1_555 1_555
H36 C44 1_555 1_555
H37 C46 1_555 1_555
H38 C48 1_555 1_555
H39 C49 1_555 1_555
H40 C51 1_555 1_555
H41 C51 1_555 1_555
H42 C52 1_555 1_555
H43 C52 1_555 1_555
H44 C53 1_555 1_555
H45 C53 1_555 1_555
H46 C54 1_555 1_555
H47 C54 1_555 1_555
H48 C55 1_555 1_555
H49 C55 1_555 1_555
H50 C56 1_555 1_555
H51 C56 1_555 1_555
H52 C56 1_555 1_555
H53 C57 1_555 1_555
H54 C58 1_555 1_555
H55 C60 1_555 1_555
H56 C61 1_555 1_555
H57 C62 1_555 1_555
H58 C63 1_555 1_555
H59 C64 1_555 1_555
H60 C65 1_555 1_555
H61 C66 1_555 1_555
H62 C67 1_555 1_555
H63 C68 1_555 1_555
H64 C70 1_555 1_555
H65 C72 1_555 1_555
H66 C73 1_555 1_555
H67 C75 1_555 1_555
H68 C75 1_555 1_555
H69 C76 1_555 1_555
H70 C76 1_555 1_555
H71 C77 1_555 1_555
H72 C77 1_555 1_555
H73 C78 1_555 1_555
H74 C78 1_555 1_555
H75 C79 1_555 1_555
H76 C79 1_555 1_555
H77 C80 1_555 1_555
H78 C80 1_555 1_555
H79 C80 1_555 1_555
H80 C81 1_555 1_555
H81 C82 1_555 1_555
H82 C1 1_555 1_555
H83 C1 1_555 1_555
H84 C1 1_555 1_555
H85 O1 1_555 1_555
Cd1_2 N3 1_555 1_555
Cd2_2 N9 1_555 1_555
N3_2 Cd1 1_555 1_555
N9_2 Cd2 1_555 1_555
N10 O5 1_555 1_555
N10 O9 1_555 1_555
N11 O8 1_555 1_555
N12 O15 1_555 1_555
N13 O12 1_555 1_555
C10 C11 1_555 1_555
C25 C26 1_555 1_555
C27 C28 1_555 1_555
C32 C33 1_555 1_555
C45 C46 1_555 1_555
C57 C58 1_555 1_555
C62 C63 1_555 1_555
C64 C65 1_555 1_555
C66 C67 1_555 1_555
C69 C70 1_555 1_555
C81 C82 1_555 1_555

#END
