
#######################################################################
#
#                 Cambridge Crystallographic Data Centre
#                                CCDC 
#
#######################################################################
#
# If this CIF has been generated from an entry in the Cambridge 
# Structural Database, then it will include bibliographic, chemical, 
# crystal, experimental, refinement or atomic coordinate data resulting 
# from the CCDC's data processing and validation procedures.
#
#######################################################################

data_HUJGUP
_symmetry_cell_setting           orthorhombic
_symmetry_space_group_name_H-M   'P n a 21'
_symmetry_Int_Tables_number      33
_space_group_name_Hall           'P 2c -2n'
loop_
_symmetry_equiv_pos_site_id
_symmetry_equiv_pos_as_xyz
1 x,y,z
2 -x,-y,1/2+z
3 1/2+x,1/2-y,z
4 1/2-x,1/2+y,1/2+z
_cell_length_a                   14.149(2)
_cell_length_b                   10.5466(14)
_cell_length_c                   7.9595(10)
_cell_angle_alpha                90
_cell_angle_beta                 90
_cell_angle_gamma                90
_cell_volume                     1187.75
loop_
_atom_site_label
_atom_site_type_symbol
_atom_site_fract_x
_atom_site_fract_y
_atom_site_fract_z
Sn1 Sn 0.98957(3) 0.25419(4) 0.5028(3)
N1 N 0.6923(5) 0.3515(7) -0.0704(9)
H1 H 0.6827 0.4274 -0.1060
O1 O 0.8857(6) 0.2923(6) 0.3093(9)
O2 O 0.8269(4) 0.1011(5) 0.3534(9)
O3 O 0.6034(4) 0.2804(5) -0.2840(7)
C1 C 0.8294(6) 0.2013(8) 0.2724(11)
C2 C 0.7489(5) 0.3362(8) 0.0634(11)
H2 H 0.7771 0.4067 0.1125
C3 C 0.7653(6) 0.2201(8) 0.1275(13)
C4 C 0.7197(6) 0.1148(7) 0.0503(12)
H3 H 0.7274 0.0336 0.0937
C5 C 0.6649(7) 0.1340(8) -0.0869(12)
H4 H 0.6367 0.0647 -0.1391
C6 C 0.6498(7) 0.2559(8) -0.1524(12)
C7 C 1.0591(7) 0.4276(8) 0.4508(13)
H5 H 1.0359 0.4922 0.5252
H6 H 1.0470 0.4520 0.3366
H7 H 1.1259 0.4173 0.4671
C8 C 1.0519(7) 0.0918(9) 0.3919(15)
H8 H 1.0163 0.0178 0.4223
H9 H 1.1158 0.0831 0.4312
H10 H 1.0520 0.1010 0.2719
C9 C 0.8912(12) 0.2491(7) 0.7061(14)
H11 H 0.9239 0.2651 0.8097
H12 H 0.8619 0.1671 0.7107
H13 H 0.8437 0.3128 0.6894
Sn1B Sn 0.48957(3) 0.24581(4) -0.4972(3)
O3B O 1.1034(4) 0.2196(5) 0.7160(7)
loop_
_geom_bond_atom_site_label_1
_geom_bond_atom_site_label_2
_geom_bond_site_symmetry_1
_geom_bond_site_symmetry_2
Sn1 O1 1_555 1_555
N1 H1 1_555 1_555
O1 C1 1_555 1_555
O2 C1 1_555 1_555
O3 C6 1_555 1_555
C1 C3 1_555 1_555
C2 N1 1_555 1_555
H2 C2 1_555 1_555
C3 C2 1_555 1_555
C4 C3 1_555 1_555
H3 C4 1_555 1_555
C5 C4 1_555 1_555
H4 C5 1_555 1_555
C6 N1 1_555 1_555
C7 Sn1 1_555 1_555
H5 C7 1_555 1_555
H6 C7 1_555 1_555
H7 C7 1_555 1_555
C8 Sn1 1_555 1_555
H8 C8 1_555 1_555
H9 C8 1_555 1_555
H10 C8 1_555 1_555
C9 Sn1 1_555 1_555
H11 C9 1_555 1_555
H12 C9 1_555 1_555
H13 C9 1_555 1_555
Sn1B O3 1_555 1_555
O3B Sn1 1_555 1_555
C5 C6 1_555 1_555

#END
