
#######################################################################
#
#                 Cambridge Crystallographic Data Centre
#                                CCDC 
#
#######################################################################
#
# If this CIF has been generated from an entry in the Cambridge 
# Structural Database, then it will include bibliographic, chemical, 
# crystal, experimental, refinement or atomic coordinate data resulting 
# from the CCDC's data processing and validation procedures.
#
#######################################################################

data_HUJJEC
_symmetry_cell_setting           monoclinic
_symmetry_space_group_name_H-M   'P 21/n'
_symmetry_Int_Tables_number      14
_space_group_name_Hall           '-P 2yn'
loop_
_symmetry_equiv_pos_site_id
_symmetry_equiv_pos_as_xyz
1 x,y,z
2 1/2-x,1/2+y,1/2-z
3 -x,-y,-z
4 1/2+x,1/2-y,1/2+z
_cell_length_a                   10.4698(11)
_cell_length_b                   16.1420(14)
_cell_length_c                   16.1310(15)
_cell_angle_alpha                90
_cell_angle_beta                 105.5740(10)
_cell_angle_gamma                90
_cell_volume                     2626.1
loop_
_atom_site_label
_atom_site_type_symbol
_atom_site_fract_x
_atom_site_fract_y
_atom_site_fract_z
Sn1 Sn 0.31983(3) 0.536141(17) 0.754152(19)
N1 N 0.6609(3) 0.3490(2) 0.7864(2)
H1 H 0.7097 0.3927 0.7925
O1 O 0.3152(2) 0.13954(17) 0.76820(17)
O2 O 0.4750(3) 0.06352(18) 0.7381(2)
O3 O 0.4883(3) 0.43053(19) 0.7833(2)
C1 C 0.4314(4) 0.1301(3) 0.7560(3)
C2 C 0.5291(4) 0.3588(3) 0.7786(3)
C3 C 0.4554(4) 0.2843(3) 0.7685(3)
H3 H 0.3651 0.2870 0.7640
C4 C 0.5113(4) 0.2092(3) 0.7652(3)
C5 C 0.6488(4) 0.2038(3) 0.7743(3)
H4 H 0.6896 0.1528 0.7729
C6 C 0.7195(4) 0.2748(3) 0.7851(3)
H5 H 0.8104 0.2725 0.7917
C7 C 0.2061(4) 0.4632(3) 0.6495(3)
H6 H 0.2329 0.4057 0.6589
H7 H 0.1131 0.4667 0.6483
C8 C 0.2224(4) 0.4903(3) 0.5653(3)
C9 C 0.1458(5) 0.5539(4) 0.5212(4)
H8 H 0.0834 0.5784 0.5450
C10 C 0.1582(7) 0.5829(5) 0.4426(5)
H9 H 0.1064 0.6264 0.4142
C11 C 0.2481(9) 0.5456(6) 0.4091(5)
H10 H 0.2567 0.5632 0.3560
C12 C 0.3239(8) 0.4852(6) 0.4490(5)
H11 H 0.3846 0.4609 0.4236
C13 C 0.3149(6) 0.4565(4) 0.5295(4)
H12 H 0.3713 0.4150 0.5581
C14 C 0.4780(4) 0.6080(3) 0.7296(3)
H13 H 0.5419 0.6185 0.7844
H14 H 0.5221 0.5740 0.6960
C15 C 0.4458(4) 0.6889(3) 0.6844(3)
C16 C 0.4249(4) 0.6952(3) 0.5968(3)
H15 H 0.4265 0.6472 0.5651
C17 C 0.4019(5) 0.7696(4) 0.5544(4)
H16 H 0.3881 0.7719 0.4950
C18 C 0.3992(5) 0.8406(4) 0.6003(4)
H17 H 0.3850 0.8915 0.5724
C19 C 0.4175(5) 0.8364(3) 0.6872(4)
H18 H 0.4148 0.8846 0.7183
C20 C 0.4399(4) 0.7618(3) 0.7291(3)
H19 H 0.4512 0.7599 0.7882
C21 C 0.3312(5) 0.5244(3) 0.8887(3)
H20 H 0.2501 0.4992 0.8948
H21 H 0.4043 0.4880 0.9155
C22 C 0.3504(5) 0.6051(3) 0.9338(3)
C23 C 0.2457(5) 0.6492(4) 0.9482(3)
H22 H 0.1612 0.6262 0.9325
C24 C 0.2642(7) 0.7277(4) 0.9858(4)
H23 H 0.1923 0.7573 0.9939
C25 C 0.3865(8) 0.7601(4) 1.0102(3)
H24 H 0.3979 0.8127 1.0345
C26 C 0.4932(6) 0.7187(4) 1.0006(3)
H25 H 0.5775 0.7416 1.0197
C27 C 0.4752(5) 0.6410(4) 0.9616(3)
H26 H 0.5485 0.6125 0.9540
Sn1A Sn 0.18017(3) 0.036141(17) 0.745848(19)
O1A O 0.1848(2) 0.63954(17) 0.73180(17)
O4 O 0.1815(3) 0.5058(2) 0.1854(2)
H2 H 0.1214 0.4874 0.2039
C28 C 0.1738(6) 0.4715(4) 0.1062(3)
H27 H 0.2380 0.4973 0.0819
H28 H 0.0865 0.4801 0.0689
H29 H 0.1916 0.4132 0.1127
loop_
_geom_bond_atom_site_label_1
_geom_bond_atom_site_label_2
_geom_bond_site_symmetry_1
_geom_bond_site_symmetry_2
Sn1 O3 1_555 1_555
N1 H1 1_555 1_555
O1 C1 1_555 1_555
O2 C1 1_555 1_555
O3 C2 1_555 1_555
O4 H2 1_555 1_555
C1 C4 1_555 1_555
C2 N1 1_555 1_555
C3 C2 1_555 1_555
H3 C3 1_555 1_555
C4 C3 1_555 1_555
C5 C4 1_555 1_555
H4 C5 1_555 1_555
C6 N1 1_555 1_555
H5 C6 1_555 1_555
C7 Sn1 1_555 1_555
H6 C7 1_555 1_555
H7 C7 1_555 1_555
C8 C7 1_555 1_555
C9 C8 1_555 1_555
H8 C9 1_555 1_555
C10 C9 1_555 1_555
H9 C10 1_555 1_555
C11 C10 1_555 1_555
H10 C11 1_555 1_555
C12 C11 1_555 1_555
H11 C12 1_555 1_555
C13 C8 1_555 1_555
H12 C13 1_555 1_555
C14 Sn1 1_555 1_555
H13 C14 1_555 1_555
H14 C14 1_555 1_555
C15 C14 1_555 1_555
C16 C15 1_555 1_555
H15 C16 1_555 1_555
C17 C16 1_555 1_555
H16 C17 1_555 1_555
C18 C17 1_555 1_555
H17 C18 1_555 1_555
C19 C18 1_555 1_555
H18 C19 1_555 1_555
C20 C15 1_555 1_555
H19 C20 1_555 1_555
C21 Sn1 1_555 1_555
H20 C21 1_555 1_555
H21 C21 1_555 1_555
C22 C21 1_555 1_555
C23 C22 1_555 1_555
H22 C23 1_555 1_555
C24 C23 1_555 1_555
H23 C24 1_555 1_555
C25 C24 1_555 1_555
H24 C25 1_555 1_555
C26 C25 1_555 1_555
H25 C26 1_555 1_555
C27 C22 1_555 1_555
H26 C27 1_555 1_555
C28 O4 1_555 1_555
H27 C28 1_555 1_555
H28 C28 1_555 1_555
H29 C28 1_555 1_555
Sn1A O1 1_555 1_555
O1A Sn1 1_555 1_555
C5 C6 1_555 1_555
C12 C13 1_555 1_555
C19 C20 1_555 1_555
C26 C27 1_555 1_555

#END
