
#######################################################################
#
#                 Cambridge Crystallographic Data Centre
#                                CCDC 
#
#######################################################################
#
# If this CIF has been generated from an entry in the Cambridge 
# Structural Database, then it will include bibliographic, chemical, 
# crystal, experimental, refinement or atomic coordinate data resulting 
# from the CCDC's data processing and validation procedures.
#
#######################################################################

data_HUJSUA
_symmetry_cell_setting           monoclinic
_symmetry_space_group_name_H-M   'C c'
_symmetry_Int_Tables_number      9
_space_group_name_Hall           'C -2yc'
loop_
_symmetry_equiv_pos_site_id
_symmetry_equiv_pos_as_xyz
1 x,y,z
2 x,-y,1/2+z
3 1/2+x,1/2+y,z
4 1/2+x,1/2-y,1/2+z
_cell_length_a                   13.9835(14)
_cell_length_b                   13.2844(13)
_cell_length_c                   7.4968(10)
_cell_angle_alpha                90
_cell_angle_beta                 114.503(5)
_cell_angle_gamma                90
_cell_volume                     1267.2
loop_
_atom_site_label
_atom_site_type_symbol
_atom_site_fract_x
_atom_site_fract_y
_atom_site_fract_z
Cu1 Cu 0.07029(3) 0.26609(3) 0.03044(4)
S1 S -0.08945(7) 0.35684(7) -0.45409(12)
O1 O 0.1131(2) 0.1975(2) -0.1656(4)
O2 O -0.0086(2) 0.3387(2) 0.1613(4)
O3 O 0.2199(3) 0.1994(3) 0.2805(5)
O4 O -0.1885(2) 0.3292(2) -0.6204(4)
O5 O -0.0010(2) 0.3100(2) -0.4836(4)
O6 O -0.0892(2) 0.3206(2) -0.2694(4)
O7 O -0.0778(3) 0.4665(2) -0.4530(6)
N1 N -0.0019(3) 0.1418(2) 0.0471(5)
N2 N 0.0303(3) 0.0475(2) 0.0376(5)
H1 H 0.0892(45) 0.0378(40) 0.0315(85)
N3 N -0.3511(3) -0.1111(2) 0.0264(5)
N4 N -0.3823(3) -0.0150(2) 0.0221(5)
H2 H -0.4403(49) -0.0036(36) 0.0152(91)
C1 C -0.0960(3) 0.1328(3) 0.0494(6)
H3 H -0.1382(3) 0.1882(3) 0.0574(6)
C2 C -0.1248(3) 0.0308(3) 0.0394(5)
C3 C -0.0408(3) -0.0199(3) 0.0327(6)
H4 H -0.0348(3) -0.0916(3) 0.0257(6)
C4 C -0.2537(3) -0.1068(3) 0.0338(6)
H5 H -0.2103(3) -0.1640(3) 0.0403(6)
C5 C -0.2238(3) -0.0063(3) 0.0337(5)
C6 C -0.3076(3) 0.0491(3) 0.0270(7)
H6 H -0.3114(3) 0.1212(3) 0.0282(7)
H7 H -0.0081(41) 0.3242(39) 0.2943(79)
H8 H 0.2144(39) 0.1569(39) 0.3636(78)
H9 H 0.0857(62) 0.2260(62) -0.253(12)
H10 H 0.2720(48) 0.1878(44) 0.2886(82)
H11 H 0.1827(50) 0.1929(44) -0.1247(81)
H13 H -0.0301(55) 0.3916(61) 0.113(11)
N3B N 0.1489(3) 0.3889(2) 0.0264(5)
Cu1B Cu -0.42971(3) -0.23391(3) 0.03044(4)
O8 O -0.2764(3) 0.5442(3) -0.4515(5)
H12 H -0.2330(45) 0.5120(48) -0.4626(86)
H14 H -0.2595(54) 0.5776(61) -0.357(11)
loop_
_geom_bond_atom_site_label_1
_geom_bond_atom_site_label_2
_geom_bond_site_symmetry_1
_geom_bond_site_symmetry_2
Cu1 O1 1_555 1_555
S1 O4 1_555 1_555
O1 H9 1_555 1_555
O2 Cu1 1_555 1_555
O3 Cu1 1_555 1_555
O5 S1 1_555 1_555
O6 Cu1 1_555 1_555
O7 S1 1_555 1_555
O8 H12 1_555 1_555
N1 Cu1 1_555 1_555
N2 N1 1_555 1_555
H1 N2 1_555 1_555
N3 N4 1_555 1_555
N4 H2 1_555 1_555
C1 N1 1_555 1_555
H3 C1 1_555 1_555
C2 C1 1_555 1_555
C3 N2 1_555 1_555
H4 C3 1_555 1_555
C4 N3 1_555 1_555
H5 C4 1_555 1_555
C5 C2 1_555 1_555
C6 N4 1_555 1_555
H6 C6 1_555 1_555
H7 O2 1_555 1_555
H8 O3 1_555 1_555
H10 O3 1_555 1_555
H11 O1 1_555 1_555
H13 O2 1_555 1_555
H14 O8 1_555 1_555
N3B Cu1 1_555 1_555
Cu1B N3 1_555 1_555
S1 O6 1_555 1_555
C2 C3 1_555 1_555
C4 C5 1_555 1_555
C5 C6 1_555 1_555

#END
