
#######################################################################
#
#                 Cambridge Crystallographic Data Centre
#                                CCDC 
#
#######################################################################
#
# If this CIF has been generated from an entry in the Cambridge 
# Structural Database, then it will include bibliographic, chemical, 
# crystal, experimental, refinement or atomic coordinate data resulting 
# from the CCDC's data processing and validation procedures.
#
#######################################################################

data_HUJZIW
_symmetry_cell_setting           triclinic
_symmetry_space_group_name_H-M   'P -1'
_symmetry_Int_Tables_number      2
_space_group_name_Hall           '-P 1'
loop_
_symmetry_equiv_pos_site_id
_symmetry_equiv_pos_as_xyz
1 x,y,z
2 -x,-y,-z
_cell_length_a                   7.7836(5)
_cell_length_b                   9.2785(5)
_cell_length_c                   15.0997(8)
_cell_angle_alpha                90.643(4)
_cell_angle_beta                 91.384(5)
_cell_angle_gamma                106.395(5)
_cell_volume                     1045.67
loop_
_atom_site_label
_atom_site_type_symbol
_atom_site_fract_x
_atom_site_fract_y
_atom_site_fract_z
C1 C 0.8679(4) 0.6903(3) 0.00422(16)
C2 C 0.9535(4) 0.7473(3) -0.07205(19)
H1 H 1.0241 0.8463 -0.0749
C3 C 0.9287(5) 0.6491(4) -0.1442(2)
H2 H 0.9818 0.6834 -0.1975
C4 C 0.8267(5) 0.5012(4) -0.1386(2)
H3 H 0.8135 0.4376 -0.1879
C5 C 0.7442(5) 0.4463(3) -0.06142(19)
H4 H 0.6764 0.3465 -0.0580
C6 C 0.7649(3) 0.5435(3) 0.01114(16)
C7 C 0.6827(4) 0.5135(3) 0.09969(17)
C8 C 0.1395(4) 0.3127(3) 0.50660(16)
C9 C 0.0385(4) 0.2615(3) 0.57963(18)
H5 H -0.0258 0.1611 0.5848
C10 C 0.0379(5) 0.3673(4) 0.64496(19)
H6 H -0.0274 0.3374 0.6957
C11 C 0.1326(5) 0.5169(4) 0.63614(19)
H7 H 0.1300 0.5855 0.6811
C12 C 0.2309(4) 0.5661(3) 0.56185(18)
H8 H 0.2932 0.6668 0.5559
C13 C 0.2338(3) 0.4612(3) 0.49665(15)
C14 C 0.3319(3) 0.4849(3) 0.41188(16)
C15 C 0.4233(5) 0.0508(3) 0.1004(2)
H9 H 0.5519 0.0848 0.1016
H10 H 0.3765 0.1115 0.0608
H11 H 0.3840 -0.0522 0.0804
C16 C 0.4120(4) -0.0375(3) 0.2512(2)
H12 H 0.4042 -0.1324 0.2214
H13 H 0.3297 -0.0576 0.2998
C17 C 0.6002(4) 0.0296(3) 0.28759(19)
H14 H 0.6815 0.0580 0.2390
H15 H 0.6057 0.1194 0.3224
N1 N 0.7236(3) 0.6361(2) 0.15299(13)
N2 N 0.3116(3) 0.3568(2) 0.36490(13)
N3 N 0.3592(3) 0.0632(2) 0.18890(15)
H16 H 0.2377 0.0288 0.1836
N4 N 0.6561(4) -0.0794(2) 0.34352(16)
H17 H 0.5927 -0.0915 0.3933
H18 H 0.7723 -0.0401 0.3594
O1 O 0.5865(3) 0.3893(2) 0.11912(14)
O2 O 1.0312(3) 0.8177(2) 0.15190(16)
O3 O 0.7787(4) 0.8990(2) 0.09726(15)
O4 O 0.4208(3) 0.61028(19) 0.38933(14)
O5 O 0.0239(4) 0.1492(3) 0.36133(16)
O6 O 0.2810(4) 0.1097(2) 0.44110(15)
S1 S 0.85970(9) 0.77958(6) 0.10685(4)
S2 S 0.18284(10) 0.21245(6) 0.41416(4)
Ag1 Ag 0.42001(3) 0.31371(2) 0.239114(13)
Ag2 Ag 0.62079(3) 0.68629(2) 0.278368(13)
N4_2 N 0.6561(4) 0.9206(2) 0.34352(16)
Ag2_2 Ag 0.62079(3) -0.31371(2) 0.278368(13)
loop_
_geom_bond_atom_site_label_1
_geom_bond_atom_site_label_2
_geom_bond_site_symmetry_1
_geom_bond_site_symmetry_2
C1 C2 1_555 1_555
C2 H1 1_555 1_555
C3 C2 1_555 1_555
H2 C3 1_555 1_555
C4 C3 1_555 1_555
H3 C4 1_555 1_555
C5 C4 1_555 1_555
H4 C5 1_555 1_555
C6 C1 1_555 1_555
C7 C6 1_555 1_555
C8 C9 1_555 1_555
C9 H5 1_555 1_555
C10 C9 1_555 1_555
H6 C10 1_555 1_555
C11 C10 1_555 1_555
H7 C11 1_555 1_555
C12 C11 1_555 1_555
H8 C12 1_555 1_555
C13 C8 1_555 1_555
C14 C13 1_555 1_555
C15 H9 1_555 1_555
H10 C15 1_555 1_555
H11 C15 1_555 1_555
C16 H12 1_555 1_555
H13 C16 1_555 1_555
C17 C16 1_555 1_555
H14 C17 1_555 1_555
H15 C17 1_555 1_555
N1 C7 1_555 1_555
N2 C14 1_555 1_555
N3 C15 1_555 1_555
H16 N3 1_555 1_555
N4 C17 1_555 1_555
H17 N4 1_555 1_555
H18 N4 1_555 1_555
O1 C7 1_555 1_555
O2 S1 1_555 1_555
O3 S1 1_555 1_555
O4 C14 1_555 1_555
O5 S2 1_555 1_555
O6 S2 1_555 1_555
S1 C1 1_555 1_555
S2 C8 1_555 1_555
Ag1 N2 1_555 1_555
Ag2 N1 1_555 1_555
N4_2 Ag2 1_555 1_555
Ag2_2 N4 1_555 1_555
C5 C6 1_555 1_555
C12 C13 1_555 1_555
C16 N3 1_555 1_555
N1 S1 1_555 1_555
N2 S2 1_555 1_555
N3 Ag1 1_555 1_555
O1 Ag1 1_555 1_555
O4 Ag2 1_555 1_555
Ag1 Ag2 1_555 1_555

#END
