
#######################################################################
#
#                 Cambridge Crystallographic Data Centre
#                                CCDC 
#
#######################################################################
#
# If this CIF has been generated from an entry in the Cambridge 
# Structural Database, then it will include bibliographic, chemical, 
# crystal, experimental, refinement or atomic coordinate data resulting 
# from the CCDC's data processing and validation procedures.
#
#######################################################################

data_HUKDUO
_symmetry_cell_setting           monoclinic
_symmetry_space_group_name_H-M   'P 21/c'
_symmetry_Int_Tables_number      14
_space_group_name_Hall           '-P 2ybc'
loop_
_symmetry_equiv_pos_site_id
_symmetry_equiv_pos_as_xyz
1 x,y,z
2 -x,1/2+y,1/2-z
3 -x,-y,-z
4 x,1/2-y,1/2+z
_cell_length_a                   9.0138(12)
_cell_length_b                   17.945(2)
_cell_length_c                   14.1406(19)
_cell_angle_alpha                90
_cell_angle_beta                 105.705(2)
_cell_angle_gamma                90
_cell_volume                     2201.89
loop_
_atom_site_label
_atom_site_type_symbol
_atom_site_fract_x
_atom_site_fract_y
_atom_site_fract_z
Tb1 Tb 0.19483(3) 1.07687(2) 0.51165(2)
O1 O 0.0401(5) 1.0687(2) 0.3467(3)
O2 O 0.2800(5) 1.1008(3) 0.3618(3)
C1 C 0.1068(7) 0.8181(3) 0.3052(4)
C2 C 0.1448(7) 1.0897(3) 0.3090(5)
C3 C -0.0567(7) 0.9895(3) 0.1574(4)
C4 C 0.1052(7) 1.1061(3) 0.2010(4)
C5 C 0.1939(6) 0.8382(3) 0.4002(4)
C6 C 0.0458(7) 0.9413(3) 0.2171(4)
H1 H 0.1475 0.9560 0.2438
C7 C -0.0584(8) 1.0910(3) 0.0334(5)
H2 H -0.1299 1.0637 -0.0135
C8 C -0.0037(8) 1.0638(3) 0.1293(5)
C9 C -0.0008(7) 0.8711(3) 0.2377(5)
C10 C -0.2045(8) 0.9641(4) 0.1151(5)
H3 H -0.2751 0.9957 0.0738
C11 C 0.1298(9) 0.7488(3) 0.2657(6)
H4 H 0.0731 0.7353 0.2028
C12 C -0.1499(8) 0.8495(4) 0.1883(5)
H5 H -0.1802 0.8008 0.1954
C13 C 0.3259(8) 0.7199(4) 0.4139(6)
C14 C 0.2391(8) 0.7006(4) 0.3225(5)
H6 H 0.2533 0.6540 0.2974
C15 C 0.3023(7) 0.7891(3) 0.4526(5)
H7 H 0.3611 0.8022 0.5152
N1 N -0.2491(7) 0.8948(3) 0.1322(4)
O3 O 0.5023(8) 0.6799(4) 0.5597(5)
H8 H 0.5651 0.6476 0.5847
O4 O 0.4814(9) 0.6114(4) 0.4246(6)
C16 C 0.4444(9) 0.6652(5) 0.4696(6)
C17 C 0.1060(8) 1.1996(3) 0.0769(5)
C18 C 0.1617(7) 1.1715(3) 0.1707(5)
H9 H 0.2398 1.1971 0.2152
C19 C -0.0059(9) 1.1588(4) 0.0087(4)
H10 H -0.0457 1.1776 -0.0543
O5 O 0.1096(7) 1.2974(3) -0.0369(3)
O6 O 0.2313(6) 1.3157(3) 0.1199(3)
C20 C 0.1528(8) 1.2745(3) 0.0501(4)
C21 C 0.1702(6) 0.9125(3) 0.4428(4)
O7 O 0.2826(5) 0.9575(2) 0.4641(3)
O8 O 0.0445(5) 0.9296(2) 0.4575(4)
O9 O 0.2301(5) 1.0071(3) 0.6569(3)
H11 H 0.3291 0.9833 0.6722
H12 H 0.1508 0.9700 0.6477
O10 O 0.4577(5) 1.0830(3) 0.5819(4)
H13 H 0.4843 1.1321 0.6082
H14 H 0.5106 1.0729 0.5329
Tb1B Tb -0.19483(3) 0.92313(2) 0.48835(2)
Tb1C Tb 0.19483(3) 1.42313(2) 0.01165(2)
O5C O 0.1096(7) 1.2026(3) 0.4631(3)
O6C O 0.2313(6) 1.1843(3) 0.6199(3)
O8B O -0.0445(5) 1.0704(2) 0.5425(4)
O11 O 0.4829(11) 0.9256(7) 0.7282(10)
O12 O 0.5888(13) 0.1129(11) 0.7676(10)
loop_
_geom_bond_atom_site_label_1
_geom_bond_atom_site_label_2
_geom_bond_site_symmetry_1
_geom_bond_site_symmetry_2
Tb1 O1 1_555 1_555
O1 C2 1_555 1_555
O2 Tb1 1_555 1_555
C1 C5 1_555 1_555
C2 O2 1_555 1_555
C3 C6 1_555 1_555
C4 C2 1_555 1_555
C5 C15 1_555 1_555
C6 H1 1_555 1_555
C7 H2 1_555 1_555
C8 C3 1_555 1_555
C9 C1 1_555 1_555
C10 C3 1_555 1_555
H3 C10 1_555 1_555
C11 C1 1_555 1_555
H4 C11 1_555 1_555
C12 C9 1_555 1_555
H5 C12 1_555 1_555
C13 C14 1_555 1_555
C14 C11 1_555 1_555
H6 C14 1_555 1_555
C15 C13 1_555 1_555
H7 C15 1_555 1_555
N1 C10 1_555 1_555
O3 H8 1_555 1_555
O4 C16 1_555 1_555
C16 C13 1_555 1_555
C17 C18 1_555 1_555
C18 C4 1_555 1_555
H9 C18 1_555 1_555
C19 C7 1_555 1_555
H10 C19 1_555 1_555
O5 C20 1_555 1_555
O6 C20 1_555 1_555
C20 C17 1_555 1_555
C21 C5 1_555 1_555
O7 Tb1 1_555 1_555
O8 C21 1_555 1_555
O9 Tb1 1_555 1_555
H11 O9 1_555 1_555
H12 O9 1_555 1_555
O10 Tb1 1_555 1_555
H13 O10 1_555 1_555
H14 O10 1_555 1_555
Tb1B O8 1_555 1_555
Tb1C O5 1_555 1_555
O5C Tb1 1_555 1_555
O6C Tb1 1_555 1_555
O8B Tb1 1_555 1_555
C4 C8 1_555 1_555
C6 C9 1_555 1_555
C7 C8 1_555 1_555
C12 N1 1_555 1_555
O3 C16 1_555 1_555
C17 C19 1_555 1_555
O6 Tb1C 1_555 1_555
C21 O7 1_555 1_555

#END
