
#######################################################################
#
#                 Cambridge Crystallographic Data Centre
#                                CCDC 
#
#######################################################################
#
# If this CIF has been generated from an entry in the Cambridge 
# Structural Database, then it will include bibliographic, chemical, 
# crystal, experimental, refinement or atomic coordinate data resulting 
# from the CCDC's data processing and validation procedures.
#
#######################################################################

data_HUKRAG
_symmetry_cell_setting           triclinic
_symmetry_space_group_name_H-M   'P -1'
_symmetry_Int_Tables_number      2
_space_group_name_Hall           '-P 1'
loop_
_symmetry_equiv_pos_site_id
_symmetry_equiv_pos_as_xyz
1 x,y,z
2 -x,-y,-z
_cell_length_a                   7.9175(4)
_cell_length_b                   11.4710(10)
_cell_length_c                   12.4593(6)
_cell_angle_alpha                69.374(6)
_cell_angle_beta                 82.965(5)
_cell_angle_gamma                80.397(6)
_cell_volume                     1041.71
loop_
_atom_site_label
_atom_site_type_symbol
_atom_site_fract_x
_atom_site_fract_y
_atom_site_fract_z
Cd1 Cd 0.0000 0.0000 0.0000
N1 N 0.2257(2) -0.1249(2) -0.0626(2)
N2 N 0.4050(2) -0.1830(2) -0.18976(15)
N3 N 0.1728(2) 0.1635(2) -0.0761(2)
N4 N 0.2325(3) 0.3576(2) -0.1356(2)
N5 N 0.1223(3) -0.0916(2) 0.1836(2)
N6 N 0.1492(2) -0.2495(2) 0.3474(2)
C1 C 0.2394(3) -0.1607(2) -0.1533(2)
H1 H 0.1466(3) -0.1693(2) -0.1877(2)
C2 C 0.3916(3) -0.1251(2) -0.0402(2)
H2 H 0.4227(3) -0.1044(2) 0.0198(2)
C3 C 0.5030(3) -0.1598(2) -0.1184(2)
H3 H 0.6221(3) -0.1665(2) -0.1228(2)
C4 C 0.4671(3) -0.2171(2) -0.2918(2)
H4 H 0.3881(3) -0.2668(2) -0.3038(2)
H5 H 0.5779(3) -0.2686(2) -0.2786(2)
C5 C 0.4843(3) -0.1034(2) -0.3987(2)
C6 C 0.3478(3) -0.0086(3) -0.4334(2)
H6 H 0.2442(3) -0.0137(3) -0.3889(2)
C7 C 0.6364(3) -0.0929(3) -0.4673(2)
H7 H 0.7294(3) -0.1555(3) -0.4460(2)
C8 C 0.1501(3) 0.2699(2) -0.0546(2)
H8 H 0.0851(3) 0.2825(2) 0.0088(2)
C9 C 0.2751(4) 0.1852(3) -0.1767(2)
H9 H 0.3126(4) 0.1268(3) -0.2136(2)
C10 C 0.3131(4) 0.3044(3) -0.2140(2)
H10 H 0.3804(4) 0.3425(3) -0.2797(2)
C11 C 0.2389(4) 0.4849(2) -0.1371(3)
H11 H 0.1278(4) 0.5170(2) -0.1088(3)
H12 H 0.2603(4) 0.5387(2) -0.2159(3)
C12 C 0.3745(3) 0.4922(2) -0.0659(2)
C13 C 0.5474(3) 0.4754(3) -0.1008(3)
H13 H 0.5803(3) 0.4588(3) -0.1688(3)
C14 C 0.3293(3) 0.5167(3) 0.0356(3)
H14 H 0.2139(3) 0.5281(3) 0.0602(3)
C15 C 0.1375(3) -0.2143(2) 0.2334(2)
H15 H 0.1399(3) -0.2703(2) 0.1943(2)
C16 C 0.1266(3) -0.0449(2) 0.2705(2)
H16 H 0.1203(3) 0.0397(2) 0.2612(2)
C17 C 0.1414(4) -0.1412(2) 0.3720(2)
H17 H 0.1454(4) -0.1349(2) 0.4440(2)
C18 C 0.1577(3) -0.3781(2) 0.4294(2)
H18 H 0.1104(3) -0.4293(2) 0.3960(2)
H19 H 0.0862(3) -0.3772(2) 0.4982(2)
C19 C 0.3373(3) -0.4389(2) 0.4632(2)
C20 C 0.3969(3) -0.5580(2) 0.4592(2)
H20 H 0.3281(3) -0.5982(2) 0.4320(2)
C21 C 0.4427(3) -0.3819(2) 0.5050(2)
H21 H 0.4052(3) -0.3022(2) 0.5090(2)
C7A C 0.3636(3) 0.0929(3) -0.5327(2)
C5A C 0.5157(3) 0.1034(2) -0.6013(2)
C4A C 0.5329(3) 0.2171(2) -0.7082(2)
N2A N 0.5950(2) 0.1830(2) -0.81024(15)
C1A C 0.7606(3) 0.1607(2) -0.8467(2)
N1A N 0.7743(2) 0.1249(2) -0.9374(2)
C2A C 0.6084(3) 0.1251(2) -0.9598(2)
H2A H 0.5773(3) 0.1044(2) -1.0198(2)
C3A C 0.4970(3) 0.1598(2) -0.8816(2)
H3A H 0.3779(3) 0.1665(2) -0.8772(2)
H1A H 0.8534(3) 0.1693(2) -0.8123(2)
H4A H 0.6119(3) 0.2668(2) -0.6962(2)
H5A H 0.4221(3) 0.2686(2) -0.7214(2)
C6A C 0.6522(3) 0.0086(3) -0.5666(2)
H6A H 0.7558(3) 0.0137(3) -0.6111(2)
H7A H 0.2706(3) 0.1555(3) -0.5540(2)
C14A C 0.6707(3) 0.4833(3) -0.0356(3)
C12A C 0.6255(3) 0.5078(2) 0.0659(2)
C11A C 0.7611(4) 0.5151(2) 0.1371(3)
N4A N 0.7675(3) 0.6424(2) 0.1356(2)
C8A C 0.8499(3) 0.7301(2) 0.0546(2)
N3A N 0.8272(2) 0.8365(2) 0.0761(2)
C9A C 0.7249(4) 0.8148(3) 0.1767(2)
H9A H 0.6874(4) 0.8732(3) 0.2136(2)
C10A C 0.6869(4) 0.6956(3) 0.2140(2)
H10A H 0.6196(4) 0.6575(3) 0.2797(2)
H8A H 0.9149(3) 0.7175(2) -0.0088(2)
H11A H 0.8722(4) 0.4830(2) 0.1088(3)
H12A H 0.7397(4) 0.4613(2) 0.2159(3)
C13A C 0.4526(3) 0.5246(3) 0.1008(3)
H13A H 0.4197(3) 0.5412(3) 0.1688(3)
H14A H 0.7861(3) 0.4719(3) -0.0602(3)
C21A C 0.5573(3) -0.6181(2) 0.4950(2)
C19A C 0.6627(3) -0.5611(2) 0.5368(2)
C18A C 0.8423(3) -0.6219(2) 0.5706(2)
N6A N 0.8508(2) -0.7505(2) 0.6526(2)
C15A C 0.8625(3) -0.7857(2) 0.7666(2)
N5A N 0.8777(3) -0.9084(2) 0.8164(2)
C16A C 0.8734(3) -0.9551(2) 0.7295(2)
H16A H 0.8797(3) -1.0397(2) 0.7388(2)
C17A C 0.8586(4) -0.8588(2) 0.6280(2)
H17A H 0.8546(4) -0.8651(2) 0.5560(2)
H15A H 0.8601(3) -0.7297(2) 0.8057(2)
H18A H 0.8896(3) -0.5707(2) 0.6040(2)
H19A H 0.9138(3) -0.6228(2) 0.5018(2)
C20A C 0.6031(3) -0.4420(2) 0.5408(2)
H20A H 0.6719(3) -0.4018(2) 0.5680(2)
H21A H 0.5948(3) -0.6978(2) 0.4910(2)
N1A_2 N -0.2257(2) 0.1249(2) 0.0626(2)
N3A_2 N -0.1728(2) -0.1635(2) 0.0761(2)
N5A_2 N -0.1223(3) 0.0916(2) -0.1836(2)
Cd1_2 Cd 1.0000 0.0000 -1.0000
Cd1_3 Cd 1.0000 1.0000 0.0000
Cd1_4 Cd 1.0000 -1.0000 1.0000
N7 N 0.0411(2) 0.3077(2) 0.2873(2)
O1 O 0.1020(3) 0.2819(2) 0.2006(2)
O2 O -0.0745(3) 0.2498(3) 0.3488(2)
O3 O 0.0942(3) 0.3899(3) 0.3113(2)
loop_
_geom_bond_atom_site_label_1
_geom_bond_atom_site_label_2
_geom_bond_site_symmetry_1
_geom_bond_site_symmetry_2
Cd1 N1 1_555 1_555
N1 C1 1_555 1_555
N2 C1 1_555 1_555
N3 Cd1 1_555 1_555
N4 C8 1_555 1_555
N5 Cd1 1_555 1_555
N6 C15 1_555 1_555
C1 H1 1_555 1_555
C2 N1 1_555 1_555
H2 C2 1_555 1_555
C3 N2 1_555 1_555
H3 C3 1_555 1_555
C4 N2 1_555 1_555
H4 C4 1_555 1_555
H5 C4 1_555 1_555
C5 C4 1_555 1_555
C6 C5 1_555 1_555
H6 C6 1_555 1_555
C7 C5 1_555 1_555
H7 C7 1_555 1_555
C8 N3 1_555 1_555
H8 C8 1_555 1_555
C9 N3 1_555 1_555
H9 C9 1_555 1_555
C10 N4 1_555 1_555
H10 C10 1_555 1_555
C11 N4 1_555 1_555
H11 C11 1_555 1_555
H12 C11 1_555 1_555
C12 C11 1_555 1_555
C13 C12 1_555 1_555
H13 C13 1_555 1_555
C14 C12 1_555 1_555
H14 C14 1_555 1_555
C15 N5 1_555 1_555
H15 C15 1_555 1_555
C16 N5 1_555 1_555
H16 C16 1_555 1_555
C17 N6 1_555 1_555
H17 C17 1_555 1_555
C18 N6 1_555 1_555
H18 C18 1_555 1_555
H19 C18 1_555 1_555
C19 C18 1_555 1_555
C20 C19 1_555 1_555
H20 C20 1_555 1_555
C21 C19 1_555 1_555
H21 C21 1_555 1_555
N7 O1 1_555 1_555
O2 N7 1_555 1_555
O3 N7 1_555 1_555
C7A C6 1_555 1_555
C5A C7A 1_555 1_555
C4A C5A 1_555 1_555
N2A C4A 1_555 1_555
C1A N2A 1_555 1_555
N1A C1A 1_555 1_555
C2A N1A 1_555 1_555
H2A C2A 1_555 1_555
C3A N2A 1_555 1_555
H3A C3A 1_555 1_555
H1A C1A 1_555 1_555
H4A C4A 1_555 1_555
H5A C4A 1_555 1_555
C6A C7 1_555 1_555
H6A C6A 1_555 1_555
H7A C7A 1_555 1_555
C14A C13 1_555 1_555
C12A C14A 1_555 1_555
C11A C12A 1_555 1_555
N4A C11A 1_555 1_555
C8A N4A 1_555 1_555
N3A C8A 1_555 1_555
C9A N3A 1_555 1_555
H9A C9A 1_555 1_555
C10A N4A 1_555 1_555
H10A C10A 1_555 1_555
H8A C8A 1_555 1_555
H11A C11A 1_555 1_555
H12A C11A 1_555 1_555
C13A C14 1_555 1_555
H13A C13A 1_555 1_555
H14A C14A 1_555 1_555
C21A C20 1_555 1_555
C19A C21A 1_555 1_555
C18A C19A 1_555 1_555
N6A C18A 1_555 1_555
C15A N6A 1_555 1_555
N5A C15A 1_555 1_555
C16A N5A 1_555 1_555
H16A C16A 1_555 1_555
C17A N6A 1_555 1_555
H17A C17A 1_555 1_555
H15A C15A 1_555 1_555
H18A C18A 1_555 1_555
H19A C18A 1_555 1_555
C20A C21 1_555 1_555
H20A C20A 1_555 1_555
H21A C21A 1_555 1_555
N1A_2 Cd1 1_555 1_555
N3A_2 Cd1 1_555 1_555
N5A_2 Cd1 1_555 1_555
Cd1_2 N1A 1_555 1_555
Cd1_3 N3A 1_555 1_555
Cd1_4 N5A 1_555 1_555
C2 C3 1_555 1_555
C9 C10 1_555 1_555
C16 C17 1_555 1_555
C5A C6A 1_555 1_555
C2A C3A 1_555 1_555
C12A C13A 1_555 1_555
C9A C10A 1_555 1_555
C19A C20A 1_555 1_555
C16A C17A 1_555 1_555

#END
