
#######################################################################
#
#                 Cambridge Crystallographic Data Centre
#                                CCDC 
#
#######################################################################
#
# If this CIF has been generated from an entry in the Cambridge 
# Structural Database, then it will include bibliographic, chemical, 
# crystal, experimental, refinement or atomic coordinate data resulting 
# from the CCDC's data processing and validation procedures.
#
#######################################################################

data_HUKWUG
_symmetry_cell_setting           monoclinic
_symmetry_space_group_name_H-M   'P 21/n'
_symmetry_Int_Tables_number      14
_space_group_name_Hall           '-P 2yn'
loop_
_symmetry_equiv_pos_site_id
_symmetry_equiv_pos_as_xyz
1 x,y,z
2 1/2-x,1/2+y,1/2-z
3 -x,-y,-z
4 1/2+x,1/2-y,1/2+z
_cell_length_a                   13.0052(10)
_cell_length_b                   13.4784(9)
_cell_length_c                   13.478
_cell_angle_alpha                90
_cell_angle_beta                 90.00(4)
_cell_angle_gamma                90
_cell_volume                     2362.55
loop_
_atom_site_label
_atom_site_type_symbol
_atom_site_fract_x
_atom_site_fract_y
_atom_site_fract_z
Cu1 Cu 0.58415(4) 0.23799(4) 0.95843(4)
Cu2 Cu 0.45026(4) 0.23785(4) 0.54902(4)
S1 S 0.58164(10) 0.10273(8) 0.84801(8)
C1 C 0.4196(3) 0.3826(3) 0.9674(3)
N1 N 0.5589(2) 0.3522(2) 0.5284(2)
C2 C 0.6310(3) 0.3311(3) 0.4597(2)
N2 N 0.4592(2) 0.2331(2) 1.0539(2)
C3 C 0.7146(3) 0.3935(3) 0.4392(3)
N3 N 0.5434(2) 0.1768(2) 0.4348(2)
N4 N 0.5017(3) 0.1840(2) 0.6756(2)
C4 C 0.3966(3) 0.3124(3) 1.0446(3)
C5 C 0.7197(3) 0.2472(3) 1.0046(3)
N5 N 0.8062(4) 0.2515(2) 1.0227(3)
C6 C 0.2513(3) 0.4162(3) 1.0923(3)
H1 H 0.1949 0.4269 1.1334
C7 C 0.5238(3) 0.4279(3) 0.8390(3)
H2 H 0.5803 0.4156 0.7985
C8 C 0.5363(3) 0.0908(3) 0.3878(3)
H3 H 0.4835 0.0478 0.4055
C9 C 0.3572(3) 0.4668(3) 0.9553(3)
C10 C 0.7745(3) 0.2830(3) 0.3132(3)
H4 H 0.8204 0.2693 0.2621
C11 C 0.6209(3) 0.2393(3) 0.4085(2)
C12 C 0.7869(3) 0.3657(3) 0.3650(3)
H5 H 0.8435 0.4060 0.3527
N6 N 0.5024(2) 0.3628(2) 0.9100(2)
C13 C 0.6931(3) 0.2134(3) 0.3326(3)
C14 C 0.2723(3) 0.4825(3) 1.0201(3)
H6 H 0.2313 0.5386 1.0126
C15 C 0.7215(4) 0.4816(3) 0.4935(4)
H7 H 0.7757 0.5252 0.4819
C16 C 0.3542(4) 0.1800(3) 1.1905(4)
H8 H 0.3404 0.1323 1.2386
C17 C 0.5675(3) 0.4372(3) 0.5779(3)
H9 H 0.5171 0.4533 0.6242
C18 C 0.4675(3) 0.5124(3) 0.8219(3)
H10 H 0.4861 0.5553 0.7709
C19 C 0.4382(4) 0.1684(3) 1.1265(4)
H11 H 0.4810 0.1137 1.1348
C20 C 0.3843(3) 0.5334(3) 0.8796(3)
H12 H 0.3461 0.5908 0.8690
C21 C 0.3124(3) 0.3307(3) 1.1072(3)
C22 C 0.6040(4) 0.0617(3) 0.3134(3)
H13 H 0.5966 0.0000 0.2833
C23 C 0.2934(4) 0.2603(4) 1.1822(4)
H14 H 0.2389 0.2693 1.2259
C24 C 0.6788(3) 0.1221(3) 0.2856(3)
H15 H 0.7224 0.1036 0.2341
C25 C 0.6494(4) 0.5041(3) 0.5633(3)
H16 H 0.6541 0.5621 0.6004
C26 C 0.5341(3) 0.1529(3) 0.7481(3)
Cu2C Cu 0.95026(4) 0.26215(4) 1.04902(4)
N5C N 0.3062(4) 0.2485(2) 0.5227(3)
loop_
_geom_bond_atom_site_label_1
_geom_bond_atom_site_label_2
_geom_bond_site_symmetry_1
_geom_bond_site_symmetry_2
Cu1 S1 1_555 1_555
Cu2 N1 1_555 1_555
S1 C26 1_555 1_555
C1 C4 1_555 1_555
N1 C2 1_555 1_555
C2 C3 1_555 1_555
N2 Cu1 1_555 1_555
C3 C12 1_555 1_555
N3 Cu2 1_555 1_555
N4 Cu2 1_555 1_555
C4 N2 1_555 1_555
C5 Cu1 1_555 1_555
N5 C5 1_555 1_555
C6 H1 1_555 1_555
C7 H2 1_555 1_555
C8 N3 1_555 1_555
H3 C8 1_555 1_555
C9 C1 1_555 1_555
C10 H4 1_555 1_555
C11 C2 1_555 1_555
C12 C10 1_555 1_555
H5 C12 1_555 1_555
N6 Cu1 1_555 1_555
C13 C10 1_555 1_555
C14 C6 1_555 1_555
H6 C14 1_555 1_555
C15 C3 1_555 1_555
H7 C15 1_555 1_555
C16 H8 1_555 1_555
C17 N1 1_555 1_555
H9 C17 1_555 1_555
C18 C7 1_555 1_555
H10 C18 1_555 1_555
C19 N2 1_555 1_555
H11 C19 1_555 1_555
C20 C9 1_555 1_555
H12 C20 1_555 1_555
C21 C4 1_555 1_555
C22 C8 1_555 1_555
H13 C22 1_555 1_555
C23 C16 1_555 1_555
H14 C23 1_555 1_555
C24 C13 1_555 1_555
H15 C24 1_555 1_555
C25 C15 1_555 1_555
H16 C25 1_555 1_555
C26 N4 1_555 1_555
Cu2C N5 1_555 1_555
N5C Cu2 1_555 1_555
C1 N6 1_555 1_555
N3 C11 1_555 1_555
C6 C21 1_555 1_555
C7 N6 1_555 1_555
C9 C14 1_555 1_555
C11 C13 1_555 1_555
C16 C19 1_555 1_555
C17 C25 1_555 1_555
C18 C20 1_555 1_555
C21 C23 1_555 1_555
C22 C24 1_555 1_555

#END
