
#######################################################################
#
#                 Cambridge Crystallographic Data Centre
#                                CCDC 
#
#######################################################################
#
# If this CIF has been generated from an entry in the Cambridge 
# Structural Database, then it will include bibliographic, chemical, 
# crystal, experimental, refinement or atomic coordinate data resulting 
# from the CCDC's data processing and validation procedures.
#
#######################################################################

data_HUKYET
_symmetry_cell_setting           orthorhombic
_symmetry_space_group_name_H-M   'P b c a'
_symmetry_Int_Tables_number      61
_space_group_name_Hall           '-P 2ac 2ab'
loop_
_symmetry_equiv_pos_site_id
_symmetry_equiv_pos_as_xyz
1 x,y,z
2 1/2-x,-y,1/2+z
3 -x,1/2+y,1/2-z
4 1/2+x,1/2-y,-z
5 -x,-y,-z
6 1/2+x,y,1/2-z
7 x,1/2-y,1/2+z
8 1/2-x,1/2+y,z
_cell_length_a                   10.5585(2)
_cell_length_b                   14.3946(3)
_cell_length_c                   17.4888(3)
_cell_angle_alpha                90
_cell_angle_beta                 90
_cell_angle_gamma                90
_cell_volume                     2658.04
loop_
_atom_site_label
_atom_site_type_symbol
_atom_site_fract_x
_atom_site_fract_y
_atom_site_fract_z
Zn1 Zn 0.562200(19) 0.371056(15) 0.436912(12)
C1 C 0.38784(18) 0.26454(13) 0.32992(11)
C2 C 0.3930(2) 0.15604(16) 0.41323(13)
H1 H 0.4075 0.1238 0.4585
C3 C 0.3369(2) 0.12002(15) 0.35024(13)
H2 H 0.3063 0.0599 0.3443
C4 C 0.40640(18) 0.35662(14) 0.29890(11)
C5 C 0.4707(2) 0.49848(15) 0.29509(12)
H3 H 0.5112 0.5537 0.3078
C6 C 0.3967(2) 0.48537(15) 0.23286(13)
H4 H 0.3773 0.5290 0.1954
C7 C 0.11703(19) 0.34537(15) 0.38710(12)
H5 H 0.0840 0.3593 0.3392
C8 C 0.08657(18) 0.26130(15) 0.42020(12)
H6 H 0.0378 0.2186 0.3933
C9 C 0.19951(16) 0.30286(12) 0.52622(10)
C10 C 0.23378(17) 0.27945(13) 0.60803(10)
C11 C 0.23646(17) 0.38470(12) 0.49005(11)
C12 C 0.33737(17) 0.44856(12) 0.52264(10)
N1 N 0.33401(16) 0.18976(11) 0.29718(10)
H7 H 0.3036 0.1865 0.2516
N2 N 0.42557(16) 0.24727(12) 0.40045(10)
N3 N 0.35585(16) 0.39493(12) 0.23603(10)
H8 H 0.3069 0.3678 0.2037
N4 N 0.47692(16) 0.41764(12) 0.33663(9)
N5 N 0.12654(13) 0.24077(10) 0.49061(9)
N6 N 0.19207(15) 0.40758(12) 0.42112(10)
O1 O 0.44687(11) 0.41590(9) 0.52496(7)
O2 O 0.30457(12) 0.52833(9) 0.54225(8)
O3 O 0.28492(15) 0.34068(10) 0.64680(8)
O4 O 0.20508(13) 0.19898(9) 0.63049(8)
Zn1C Zn 0.062200(19) 0.128944(15) 0.563088(12)
Zn1D Zn 0.437800(19) 0.628944(15) 0.563088(12)
N5C N 0.62654(13) 0.25923(10) 0.50939(9)
O2D O 0.69543(12) 0.47167(9) 0.45775(8)
O4C O 0.70508(13) 0.30102(9) 0.36951(8)
loop_
_geom_bond_atom_site_label_1
_geom_bond_atom_site_label_2
_geom_bond_site_symmetry_1
_geom_bond_site_symmetry_2
Zn1 N2 1_555 1_555
C1 C4 1_555 1_555
C2 H1 1_555 1_555
C3 C2 1_555 1_555
H2 C3 1_555 1_555
C4 N3 1_555 1_555
C5 H3 1_555 1_555
C6 C5 1_555 1_555
H4 C6 1_555 1_555
C7 H5 1_555 1_555
C8 C7 1_555 1_555
H6 C8 1_555 1_555
C9 C10 1_555 1_555
C10 O3 1_555 1_555
C11 C9 1_555 1_555
C12 C11 1_555 1_555
N1 C1 1_555 1_555
H7 N1 1_555 1_555
N2 C1 1_555 1_555
N3 C6 1_555 1_555
H8 N3 1_555 1_555
N4 Zn1 1_555 1_555
N5 C8 1_555 1_555
N6 C7 1_555 1_555
O1 Zn1 1_555 1_555
O2 C12 1_555 1_555
O4 C10 1_555 1_555
Zn1C N5 1_555 1_555
Zn1D O2 1_555 1_555
N5C Zn1 1_555 1_555
O2D Zn1 1_555 1_555
O4C Zn1 1_555 1_555
C2 N2 1_555 1_555
C3 N1 1_555 1_555
C4 N4 1_555 1_555
C5 N4 1_555 1_555
C9 N5 1_555 1_555
C11 N6 1_555 1_555
C12 O1 1_555 1_555
O4 Zn1C 1_555 1_555

#END
