
#######################################################################
#
#                 Cambridge Crystallographic Data Centre
#                                CCDC 
#
#######################################################################
#
# If this CIF has been generated from an entry in the Cambridge 
# Structural Database, then it will include bibliographic, chemical, 
# crystal, experimental, refinement or atomic coordinate data resulting 
# from the CCDC's data processing and validation procedures.
#
#######################################################################

data_HUKZES
_symmetry_cell_setting           cubic
_symmetry_space_group_name_H-M   'P n -3 n'
_symmetry_Int_Tables_number      222
_space_group_name_Hall           '-P 4a 2bc 3'
loop_
_symmetry_equiv_pos_site_id
_symmetry_equiv_pos_as_xyz
1 x,y,z
2 z,x,y
3 y,z,x
4 y,x,1/2-z
5 y,1/2-x,z
6 1/2-y,x,z
7 x,z,1/2-y
8 1/2-x,z,y
9 x,1/2-z,y
10 z,y,1/2-x
11 z,1/2-y,x
12 1/2-z,y,x
13 1/2+x,1/2+y,-z
14 1/2+x,-y,1/2+z
15 -x,1/2+y,1/2+z
16 -z,1/2+x,1/2+y
17 1/2+z,1/2+x,-y
18 1/2+z,-x,1/2+y
19 1/2+y,-z,1/2+x
20 -y,1/2+z,1/2+x
21 1/2+y,1/2+z,-x
22 1/2+y,1/2+x,1/2+z
23 1/2+x,1/2+z,1/2+y
24 1/2+z,1/2+y,1/2+x
25 -x,-y,-z
26 -z,-x,-y
27 -y,-z,-x
28 -y,-x,1/2+z
29 -y,1/2+x,-z
30 1/2+y,-x,-z
31 -x,-z,1/2+y
32 1/2+x,-z,-y
33 -x,1/2+z,-y
34 -z,-y,1/2+x
35 -z,1/2+y,-x
36 1/2+z,-y,-x
37 1/2-x,1/2-y,z
38 1/2-x,y,1/2-z
39 x,1/2-y,1/2-z
40 z,1/2-x,1/2-y
41 1/2-z,1/2-x,y
42 1/2-z,x,1/2-y
43 1/2-y,z,1/2-x
44 y,1/2-z,1/2-x
45 1/2-y,1/2-z,x
46 1/2-y,1/2-x,1/2-z
47 1/2-x,1/2-z,1/2-y
48 1/2-z,1/2-y,1/2-x
_cell_length_a                   16.5527(8)
_cell_length_b                   16.5527(8)
_cell_length_c                   16.5527(8)
_cell_angle_alpha                90
_cell_angle_beta                 90
_cell_angle_gamma                90
_cell_volume                     4535.31
loop_
_atom_site_label
_atom_site_type_symbol
_atom_site_fract_x
_atom_site_fract_y
_atom_site_fract_z
Mn1 Mn 0.498174(14) 0.498174(14) 0.2500
C1 C 0.30833(10) 0.48233(11) 0.22723(10)
O1 O 0.37797(8) 0.48637(9) 0.19862(8)
C2 C 0.50060(11) 0.69129(11) 0.22832(12)
O2 O 0.50295(9) 0.62095(8) 0.20098(8)
O3 O 0.45951(9) 0.53810(9) 0.36679(9)
H1 H 0.4126 0.5195 0.3793
H2 H 0.4690 0.5877 0.3790
C1I C 0.22723(10) 0.48233(11) 0.19167(10)
C1KA C 0.19167(10) 0.48233(11) 0.27277(10)
C1K C 0.27277(10) 0.48233(11) 0.30833(10)
O1K O 0.30138(8) 0.48637(9) 0.37797(8)
O1KA O 0.12203(8) 0.48637(9) 0.30138(8)
O1I O 0.19862(8) 0.48637(9) 0.12203(8)
C2DA C 0.49940(11) 0.77168(12) 0.19129(11)
C2LA C 0.50060(11) 0.80871(11) 0.27168(12)
C2FA C 0.49940(11) 0.72832(12) 0.30871(11)
O2FA O 0.49705(9) 0.70098(8) 0.37905(8)
O2LA O 0.50295(9) 0.87905(8) 0.29902(8)
O2DA O 0.49705(9) 0.79902(8) 0.12095(8)
O3C O 0.53810(9) 0.45951(9) 0.13321(9)
H1C H 0.5195 0.4126 0.1207
H2C H 0.5877 0.4690 0.1210
Mn1K Mn 0.2500 0.498174(14) 0.498174(14)
O3K O 0.13321(9) 0.53810(9) 0.45951(9)
H1K H 0.1207 0.5195 0.4126
H2K H 0.1210 0.5877 0.4690
O3A O 0.36679(9) 0.45951(9) 0.53810(9)
H1A H 0.3793 0.4126 0.5195
H2A H 0.3790 0.4690 0.5877
O1C O 0.48637(9) 0.37797(8) 0.30138(8)
O2C O 0.62095(8) 0.50295(9) 0.29902(8)
Mn1E Mn 0.001826(14) 0.498174(14) 0.2500
Mn1I Mn 0.2500 0.498174(14) 0.001826(14)
Mn1Z Mn 0.501826(14) 0.7500 0.501826(14)
Mn1D Mn 0.498174(14) 1.001826(14) 0.2500
Mn1S Mn 0.501826(14) 0.7500 -0.001826(14)
O1A O 0.19862(8) 0.37797(8) 0.48637(9)
O2A O 0.20098(8) 0.50295(9) 0.62095(8)
O2K O 0.29902(8) 0.62095(8) 0.50295(9)
O4 O 0.2500 0.6703(13) 0.2500
O5? O 0.7016(11) 0.7039(11) 0.2082(8)
loop_
_geom_bond_atom_site_label_1
_geom_bond_atom_site_label_2
_geom_bond_site_symmetry_1
_geom_bond_site_symmetry_2
Mn1 O1 1_555 1_555
C1 O1 1_555 1_555
C2 O2 1_555 1_555
O2 Mn1 1_555 1_555
O3 Mn1 1_555 1_555
H1 O3 1_555 1_555
H2 O3 1_555 1_555
C1I C1 1_555 1_555
C1KA C1I 1_555 1_555
C1K C1 1_555 1_555
O1K C1K 1_555 1_555
O1KA C1KA 1_555 1_555
O1I C1I 1_555 1_555
C2DA C2 1_555 1_555
C2LA C2DA 1_555 1_555
C2FA C2 1_555 1_555
O2FA C2FA 1_555 1_555
O2LA C2LA 1_555 1_555
O2DA C2DA 1_555 1_555
O3C Mn1 1_555 1_555
H1C O3C 1_555 1_555
H2C O3C 1_555 1_555
Mn1K O1K 1_555 1_555
O3K Mn1K 1_555 1_555
H1K O3K 1_555 1_555
H2K O3K 1_555 1_555
O3A Mn1K 1_555 1_555
H1A O3A 1_555 1_555
H2A O3A 1_555 1_555
O1C Mn1 1_555 1_555
O2C Mn1 1_555 1_555
Mn1E O1KA 1_555 1_555
Mn1I O1I 1_555 1_555
Mn1Z O2FA 1_555 1_555
Mn1D O2LA 1_555 1_555
Mn1S O2DA 1_555 1_555
O1A Mn1K 1_555 1_555
O2A Mn1K 1_555 1_555
O2K Mn1K 1_555 1_555
C1KA C1K 1_555 1_555
C2LA C2FA 1_555 1_555

#END
