
#######################################################################
#
#                 Cambridge Crystallographic Data Centre
#                                CCDC 
#
#######################################################################
#
# If this CIF has been generated from an entry in the Cambridge 
# Structural Database, then it will include bibliographic, chemical, 
# crystal, experimental, refinement or atomic coordinate data resulting 
# from the CCDC's data processing and validation procedures.
#
#######################################################################

data_HULBAT
_symmetry_cell_setting           monoclinic
_symmetry_space_group_name_H-M   'P 21/c'
_symmetry_Int_Tables_number      14
_space_group_name_Hall           '-P 2ybc'
loop_
_symmetry_equiv_pos_site_id
_symmetry_equiv_pos_as_xyz
1 x,y,z
2 -x,1/2+y,1/2-z
3 -x,-y,-z
4 x,1/2-y,1/2+z
_cell_length_a                   16.1138(7)
_cell_length_b                   14.7294(6)
_cell_length_c                   8.2117(3)
_cell_angle_alpha                90
_cell_angle_beta                 96.7920(10)
_cell_angle_gamma                90
_cell_volume                     1935.34
loop_
_atom_site_label
_atom_site_type_symbol
_atom_site_fract_x
_atom_site_fract_y
_atom_site_fract_z
Gd1 Gd 0.050214(12) 0.116954(15) 0.06210(3)
C1 C 0.1684(3) 0.2504(4) -0.1482(6)
C2 C 0.2520(3) 0.2560(4) -0.0438(6)
C3 C 0.2862(3) 0.3406(4) -0.0083(7)
H1 H 0.2587 0.3920 -0.0527
C4 C 0.3605(3) 0.3497(4) 0.0922(7)
H2 H 0.3830 0.4071 0.1146
C5 C 0.2937(3) 0.1788(4) 0.0217(6)
H3 H 0.2713 0.1214 -0.0020
C6 C 0.3686(3) 0.1878(4) 0.1221(6)
H4 H 0.3967 0.1363 0.1643
C7 C 0.4023(3) 0.2733(4) 0.1604(6)
C8 C 0.4796(3) 0.2836(4) 0.2727(6)
C9 C 0.5898(3) 0.2621(4) 0.4349(6)
C10 C 0.6608(3) 0.2181(4) 0.5367(6)
C11 C 0.6565(3) 0.1261(4) 0.5733(7)
H5 H 0.6092 0.0928 0.5347
C12 C 0.7229(3) 0.0842(4) 0.6679(6)
H6 H 0.7204 0.0226 0.6913
C13 C 0.7303(3) 0.2675(4) 0.5971(7)
H7 H 0.7326 0.3292 0.5737
C14 C 0.7970(3) 0.2268(4) 0.6922(7)
H8 H 0.8438 0.2607 0.7319
C15 C 0.7930(3) 0.1344(4) 0.7273(6)
C16 C 0.8657(3) 0.0874(4) 0.8264(7)
C17 C -0.0660(3) 0.0424(4) 0.2673(6)
C18 C -0.1326(4) 0.0092(5) 0.3656(9)
H9 H -0.1080 -0.0297 0.4519
H10 H -0.1739 -0.0240 0.2957
H11 H -0.1585 0.0601 0.4123
O1 O 0.12530(19) 0.1785(2) -0.1360(4)
O2 O 0.14696(19) 0.3156(3) -0.2393(4)
O3 O 0.8628(2) 0.0022(3) 0.8323(5)
O4 O 0.9236(2) 0.1362(3) 0.8922(5)
O5 O -0.0286(3) 0.1166(3) 0.3034(5)
O6 O -0.0465(2) -0.0026(3) 0.1470(4)
O7 O 0.0107(2) 0.2753(3) 0.0758(4)
H12 H 0.0320 0.3176 0.0078
H13 H -0.0258 0.2937 0.1491
N1 N 0.5293(2) 0.2173(3) 0.3382(5)
N2 N 0.5088(3) 0.3646(3) 0.3266(5)
N3 N 0.5798(2) 0.3518(3) 0.4341(5)
H14 H 0.6104 0.3921 0.4881
Gd1_2 Gd 1.050214(12) 0.116954(15) 1.06210(3)
Gd1B Gd -0.050214(12) -0.116954(15) -0.06210(3)
Gd1B_2 Gd 0.949786(12) -0.116954(15) 0.93790(3)
Gd1C Gd 0.050214(12) 0.383046(15) -0.43790(3)
O2C O 0.14696(19) 0.1844(3) 0.2607(4)
O3B O 0.1372(2) -0.0022(3) 0.1677(5)
O4_2 O -0.0764(2) 0.1362(3) -0.1078(5)
O6B O 0.0465(2) 0.0026(3) -0.1470(4)
O8 O 0.4465(3) 0.5386(3) 0.2917(5)
loop_
_geom_bond_atom_site_label_1
_geom_bond_atom_site_label_2
_geom_bond_site_symmetry_1
_geom_bond_site_symmetry_2
Gd1 O1 1_555 1_555
C1 C2 1_555 1_555
C2 C3 1_555 1_555
C3 H1 1_555 1_555
C4 C3 1_555 1_555
H2 C4 1_555 1_555
C5 C2 1_555 1_555
H3 C5 1_555 1_555
C6 C5 1_555 1_555
H4 C6 1_555 1_555
C7 C4 1_555 1_555
C8 C7 1_555 1_555
C9 C10 1_555 1_555
C10 C11 1_555 1_555
C11 H5 1_555 1_555
C12 C11 1_555 1_555
H6 C12 1_555 1_555
C13 C10 1_555 1_555
H7 C13 1_555 1_555
C14 C13 1_555 1_555
H8 C14 1_555 1_555
C15 C12 1_555 1_555
C16 C15 1_555 1_555
C17 C18 1_555 1_555
C18 H9 1_555 1_555
H10 C18 1_555 1_555
H11 C18 1_555 1_555
O1 C1 1_555 1_555
O2 C1 1_555 1_555
O3 C16 1_555 1_555
O4 C16 1_555 1_555
O5 Gd1 1_555 1_555
O6 Gd1 1_555 1_555
O7 Gd1 1_555 1_555
H12 O7 1_555 1_555
H13 O7 1_555 1_555
N1 C8 1_555 1_555
N2 C8 1_555 1_555
N3 C9 1_555 1_555
H14 N3 1_555 1_555
Gd1_2 O4 1_555 1_555
Gd1B O6 1_555 1_555
Gd1B_2 O3 1_555 1_555
Gd1C O2 1_555 1_555
O2C Gd1 1_555 1_555
O3B Gd1 1_555 1_555
O4_2 Gd1 1_555 1_555
O6B Gd1 1_555 1_555
C6 C7 1_555 1_555
C9 N1 1_555 1_555
C14 C15 1_555 1_555
C17 O5 1_555 1_555
C17 O6 1_555 1_555
N2 N3 1_555 1_555
Gd1B O6B 1_555 1_555

#END
