
#######################################################################
#
#                 Cambridge Crystallographic Data Centre
#                                CCDC 
#
#######################################################################
#
# If this CIF has been generated from an entry in the Cambridge 
# Structural Database, then it will include bibliographic, chemical, 
# crystal, experimental, refinement or atomic coordinate data resulting 
# from the CCDC's data processing and validation procedures.
#
#######################################################################

data_HULGAY
_symmetry_cell_setting           orthorhombic
_symmetry_space_group_name_H-M   'P n a 21'
_symmetry_Int_Tables_number      33
_space_group_name_Hall           'P 2c -2n'
loop_
_symmetry_equiv_pos_site_id
_symmetry_equiv_pos_as_xyz
1 x,y,z
2 -x,-y,1/2+z
3 1/2+x,1/2-y,z
4 1/2-x,1/2+y,1/2+z
_cell_length_a                   16.7386(11)
_cell_length_b                   9.3648(6)
_cell_length_c                   13.7816(9)
_cell_angle_alpha                90
_cell_angle_beta                 90
_cell_angle_gamma                90
_cell_volume                     2160.32
loop_
_atom_site_label
_atom_site_type_symbol
_atom_site_fract_x
_atom_site_fract_y
_atom_site_fract_z
I1 I -0.04028(2) 0.70673(4) 0.50000(3)
I2 I 0.27910(2) 0.97137(5) 0.59898(3)
I3 I 0.12020(3) 1.10570(5) 0.21732(3)
Zn1 Zn 0.10484(4) 0.67478(8) 0.79659(5)
O1 O 0.1041(3) 0.8274(5) 0.6960(3)
O2 O 0.1435(4) 0.6391(6) 0.6150(4)
O3 O 0.3082(3) 1.0482(5) 0.3353(3)
O4 O 0.2539(3) 1.2354(6) 0.4077(4)
N1 N -0.0135(3) 0.9103(6) 0.3156(4)
H1 H -0.0536 0.8574 0.3308
H2 H -0.0143 0.9594 0.2629
N2 N 0.0037(3) 0.5520(6) 0.7890(4)
N3 N -0.1106(3) 0.4967(7) 0.8581(4)
H3 H -0.163(5) 0.495(8) 0.901(5)
N4 N -0.0568(4) 0.7340(7) 1.0129(4)
H4 H -0.107(4) 0.699(8) 1.039(6)
N5 N 0.0484(3) 0.7531(6) 0.9184(4)
C1 C 0.1235(3) 0.7644(7) 0.6191(5)
C2 C 0.1211(3) 0.8518(7) 0.5252(4)
C3 C 0.1839(3) 0.9436(6) 0.5009(4)
C4 C 0.1836(3) 1.0138(6) 0.4135(4)
C5 C 0.1189(4) 1.0000(7) 0.3518(4)
C6 C 0.0521(3) 0.9163(6) 0.3758(4)
C7 C 0.0570(4) 0.8390(7) 0.4626(4)
C8 C 0.2538(4) 1.1102(7) 0.3833(4)
C9 C -0.0319(5) 0.4439(8) 0.7365(5)
H5 H -0.0113 0.4011 0.6810
C10 C -0.1028(4) 0.4109(8) 0.7803(6)
H6 H -0.1390 0.3417 0.7601
C11 C -0.0471(4) 0.5812(7) 0.8617(4)
C12 C -0.0211(4) 0.6879(7) 0.9314(5)
C13 C -0.0065(5) 0.8305(9) 1.0544(5)
H7 H -0.0154 0.8799 1.1119
C14 C 0.0583(4) 0.8416(7) 0.9970(6)
H8 H 0.1024 0.8995 1.0086
Zn1C Zn 0.39516(4) 1.17478(8) 0.29659(5)
O3C O 0.1918(3) 0.5482(5) 0.8353(3)
O5 O 0.3144(4) 0.7517(7) 0.2900(5)
H9 H 0.3070 0.7361 0.2302
H10 H 0.2908 0.8278 0.3071
O6 O 0.7342(4) 0.4510(10) 0.9265(7)
H11 H 0.7290 0.3652 0.9050
H12 H 0.7145 0.5124 0.8862
O7 O 0.7994(3) 0.6432(6) 0.0890(5)
H13 H 0.7868 0.5560 0.0998
H14 H 0.7701 0.6738 0.0424
loop_
_geom_bond_atom_site_label_1
_geom_bond_atom_site_label_2
_geom_bond_site_symmetry_1
_geom_bond_site_symmetry_2
I1 C7 1_555 1_555
I2 C3 1_555 1_555
I3 C5 1_555 1_555
Zn1 O1 1_555 1_555
O1 C1 1_555 1_555
O2 C1 1_555 1_555
O3 C8 1_555 1_555
O4 C8 1_555 1_555
N1 H1 1_555 1_555
H2 N1 1_555 1_555
N2 Zn1 1_555 1_555
N3 H3 1_555 1_555
N4 H4 1_555 1_555
N5 Zn1 1_555 1_555
C1 C2 1_555 1_555
C2 C3 1_555 1_555
C3 C4 1_555 1_555
C4 C5 1_555 1_555
C5 C6 1_555 1_555
C6 N1 1_555 1_555
C7 C2 1_555 1_555
C8 C4 1_555 1_555
C9 N2 1_555 1_555
H5 C9 1_555 1_555
C10 N3 1_555 1_555
H6 C10 1_555 1_555
C11 N2 1_555 1_555
C12 N4 1_555 1_555
C13 N4 1_555 1_555
H7 C13 1_555 1_555
C14 N5 1_555 1_555
H8 C14 1_555 1_555
O5 H9 1_555 1_555
H10 O5 1_555 1_555
O6 H11 1_555 1_555
H12 O6 1_555 1_555
O7 H13 1_555 1_555
H14 O7 1_555 1_555
Zn1C O3 1_555 1_555
O3C Zn1 1_555 1_555
N3 C11 1_555 1_555
N5 C12 1_555 1_555
C6 C7 1_555 1_555
C9 C10 1_555 1_555
C11 C12 1_555 1_555
C13 C14 1_555 1_555

#END
