
#######################################################################
#
#                 Cambridge Crystallographic Data Centre
#                                CCDC 
#
#######################################################################
#
# If this CIF has been generated from an entry in the Cambridge 
# Structural Database, then it will include bibliographic, chemical, 
# crystal, experimental, refinement or atomic coordinate data resulting 
# from the CCDC's data processing and validation procedures.
#
#######################################################################

data_HULHIG01
_symmetry_cell_setting           monoclinic
_symmetry_space_group_name_H-M   'C 2/c'
_symmetry_Int_Tables_number      15
_space_group_name_Hall           '-C 2yn'
loop_
_symmetry_equiv_pos_site_id
_symmetry_equiv_pos_as_xyz
1 x,y,z
2 -x,y,1/2-z
3 1/2+x,1/2+y,z
4 1/2-x,1/2+y,1/2-z
5 -x,-y,-z
6 x,-y,1/2+z
7 1/2-x,1/2-y,-z
8 1/2+x,1/2-y,1/2+z
_cell_length_a                   21.3842(14)
_cell_length_b                   14.5223(9)
_cell_length_c                   13.3503(8)
_cell_angle_alpha                90
_cell_angle_beta                 91.6820(10)
_cell_angle_gamma                90
_cell_volume                     4144.12
loop_
_atom_site_label
_atom_site_type_symbol
_atom_site_fract_x
_atom_site_fract_y
_atom_site_fract_z
Cl1 Cl -0.76920(4) 0.34257(7) 0.32764(7)
O1 O -0.7533(2) 0.3794(4) 0.4231(3)
O2 O -0.71651(19) 0.3164(3) 0.2739(4)
O3 O -0.8116(2) 0.2696(3) 0.3363(4)
O4 O -0.7996(3) 0.4145(4) 0.2719(4)
Cl2 Cl -0.40542(6) 0.11217(8) 0.47231(8)
O5 O -0.3974(2) 0.1123(3) 0.5773(3)
O6 O -0.37922(19) 0.0318(3) 0.4324(3)
O7 O -0.3715(5) 0.1868(4) 0.4336(4)
O8 O -0.4674(3) 0.1197(7) 0.4426(5)
Ag1 Ag -0.501055(15) 0.40975(2) 0.36849(2)
N1 N -0.57470(16) 0.5267(2) 0.3773(2)
N2 N -0.40427(14) 0.4568(2) 0.3748(2)
N3 N -0.56042(14) 0.2860(2) 0.3698(2)
N4 N -0.55739(16) 0.6181(2) 0.3830(3)
C1 C -0.6348(2) 0.5249(3) 0.3608(3)
N5 N -0.38725(15) 0.5488(2) 0.3753(2)
C2 C -0.35459(19) 0.4091(2) 0.3976(3)
N6 N -0.58446(15) 0.2645(2) 0.4616(2)
C3 C -0.58221(18) 0.2261(3) 0.3053(3)
Ag2 Ag -0.454502(16) 0.67042(2) 0.38614(2)
C4 C -0.6079(2) 0.6667(3) 0.3713(3)
N7 N -0.65755(17) 0.6113(2) 0.3570(2)
H1 H -0.6587 0.4718 0.3529
C5 C -0.32771(19) 0.5518(3) 0.3976(3)
N8 N -0.30546(14) 0.4658(2) 0.4122(2)
H2 H -0.3532 0.3453 0.4031
C6 C -0.6201(2) 0.1922(3) 0.4471(3)
N9 N -0.61993(16) 0.1664(2) 0.3516(2)
H3 H -0.5731 0.2247 0.2376
N10 N -0.47527(15) 0.7935(2) 0.2846(2)
H4 H -0.6095 0.7306 0.3727
N11 N -0.7216(2) 0.6353(4) 0.3397(4)
H5 H -0.3040 0.6054 0.4026
N12 N -0.24563(19) 0.4359(3) 0.4443(4)
H6 H -0.6424 0.1630 0.4967
N13 N -0.6561(2) 0.0926(3) 0.3131(3)
C7 C -0.4615(2) 0.8795(3) 0.3027(4)
H7 H -0.738(3) 0.642(4) 0.409(5)
H8 H -0.735(4) 0.674(6) 0.307(6)
H9 H -0.225(2) 0.434(3) 0.398(4)
H10 H -0.233(3) 0.474(4) 0.485(4)
H11 H -0.6798 0.0619 0.3520
H12 H -0.6546 0.0783 0.2507
N14 N -0.5000 0.9344(3) 0.2500
H13 H -0.4294 0.8995 0.3460
N15 N -0.5199(4) 1.0299(5) 0.2731(8)
H14 H -0.5052 1.0582 0.3289
H15 H -0.5466 1.0595 0.2309
N10A N -0.52473(15) 0.7935(2) 0.2154(2)
C7A C -0.5385(2) 0.8795(3) 0.1973(4)
H13A H -0.5706 0.8995 0.1540
N15A N -0.4801(4) 1.0299(5) 0.2269(8)
H14A H -0.4948 1.0582 0.1711
H15A H -0.4534 1.0595 0.2691
Ag1A Ag -0.498945(15) 0.40975(2) 0.13151(2)
N1A N -0.42530(16) 0.5267(2) 0.1227(2)
N2A N -0.59573(14) 0.4568(2) 0.1252(2)
N3A N -0.43958(14) 0.2860(2) 0.1302(2)
N4A N -0.44261(16) 0.6181(2) 0.1170(3)
C1A C -0.3652(2) 0.5249(3) 0.1392(3)
N5A N -0.61275(15) 0.5488(2) 0.1247(2)
C2A C -0.64541(19) 0.4091(2) 0.1024(3)
N6A N -0.41554(15) 0.2645(2) 0.0384(2)
C3A C -0.41779(18) 0.2261(3) 0.1947(3)
Ag2A Ag -0.545498(16) 0.67042(2) 0.11386(2)
C4A C -0.3921(2) 0.6667(3) 0.1287(3)
N7A N -0.34245(17) 0.6113(2) 0.1430(2)
H1A H -0.3413 0.4718 0.1471
C5A C -0.67229(19) 0.5518(3) 0.1024(3)
N8A N -0.69454(14) 0.4658(2) 0.0878(2)
H2A H -0.6468 0.3453 0.0969
C6A C -0.3799(2) 0.1922(3) 0.0529(3)
N9A N -0.38007(16) 0.1664(2) 0.1484(2)
H3A H -0.4269 0.2247 0.2624
H4A H -0.3905 0.7306 0.1273
N11A N -0.2784(2) 0.6353(4) 0.1603(4)
H5A H -0.6960 0.6054 0.0974
N12A N -0.75437(19) 0.4359(3) 0.0557(4)
H6A H -0.3576 0.1630 0.0033
N13A N -0.3439(2) 0.0926(3) 0.1869(3)
H7A H -0.262(3) 0.642(4) 0.091(5)
H8A H -0.265(4) 0.674(6) 0.193(6)
H9A H -0.775(2) 0.434(3) 0.102(4)
H10A H -0.767(3) 0.474(4) 0.015(4)
H11A H -0.3202 0.0619 0.1480
H12A H -0.3454 0.0783 0.2493
N6D N -0.41554(15) 0.7355(2) 0.5384(2)
N6E N -0.58446(15) 0.7355(2) -0.0384(2)
Ag2D Ag -0.545498(16) 0.32958(2) 0.61386(2)
Ag2E Ag -0.454502(16) 0.32958(2) -0.11386(2)
loop_
_geom_bond_atom_site_label_1
_geom_bond_atom_site_label_2
_geom_bond_site_symmetry_1
_geom_bond_site_symmetry_2
Ag1 N1 1_555 1_555
N1 N4 1_555 1_555
N2 Ag1 1_555 1_555
N3 Ag1 1_555 1_555
N4 Ag2 1_555 1_555
C1 N1 1_555 1_555
N5 N2 1_555 1_555
C2 N2 1_555 1_555
N6 N3 1_555 1_555
C3 N3 1_555 1_555
Ag2 N5 1_555 1_555
C4 N4 1_555 1_555
N7 C1 1_555 1_555
H1 C1 1_555 1_555
C5 N5 1_555 1_555
N8 C2 1_555 1_555
H2 C2 1_555 1_555
C6 N6 1_555 1_555
N9 C3 1_555 1_555
H3 C3 1_555 1_555
N10 Ag2 1_555 1_555
H4 C4 1_555 1_555
N11 N7 1_555 1_555
H5 C5 1_555 1_555
N12 N8 1_555 1_555
H6 C6 1_555 1_555
N13 N9 1_555 1_555
C7 N10 1_555 1_555
H7 N11 1_555 1_555
H8 N11 1_555 1_555
H9 N12 1_555 1_555
H10 N12 1_555 1_555
H11 N13 1_555 1_555
H12 N13 1_555 1_555
N14 C7 1_555 1_555
H13 C7 1_555 1_555
N15 N14 1_555 1_555
H14 N15 1_555 1_555
H15 N15 1_555 1_555
Cl1 O1 1_555 1_555
O2 Cl1 1_555 1_555
O3 Cl1 1_555 1_555
O4 Cl1 1_555 1_555
Cl2 O5 1_555 1_555
O6 Cl2 1_555 1_555
O7 Cl2 1_555 1_555
O8 Cl2 1_555 1_555
N10A N10 1_555 1_555
C7A N14 1_555 1_555
H13A C7A 1_555 1_555
N15A N14 1_555 1_555
H14A N15A 1_555 1_555
H15A N15A 1_555 1_555
Ag1A Ag1 1_555 1_555
N1A Ag1A 1_555 1_555
N2A Ag1A 1_555 1_555
N3A Ag1A 1_555 1_555
N4A N1A 1_555 1_555
C1A N1A 1_555 1_555
N5A N2A 1_555 1_555
C2A N2A 1_555 1_555
N6A N3A 1_555 1_555
C3A N3A 1_555 1_555
Ag2A N10A 1_555 1_555
C4A N4A 1_555 1_555
N7A C1A 1_555 1_555
H1A C1A 1_555 1_555
C5A N5A 1_555 1_555
N8A C2A 1_555 1_555
H2A C2A 1_555 1_555
C6A N6A 1_555 1_555
N9A C3A 1_555 1_555
H3A C3A 1_555 1_555
H4A C4A 1_555 1_555
N11A N7A 1_555 1_555
H5A C5A 1_555 1_555
N12A N8A 1_555 1_555
H6A C6A 1_555 1_555
N13A N9A 1_555 1_555
H7A N11A 1_555 1_555
H8A N11A 1_555 1_555
H9A N12A 1_555 1_555
H10A N12A 1_555 1_555
H11A N13A 1_555 1_555
H12A N13A 1_555 1_555
N6D Ag2 1_555 1_555
N6E Ag2A 1_555 1_555
Ag2D N6 1_555 1_555
Ag2E N6A 1_555 1_555
C4 N7 1_555 1_555
C5 N8 1_555 1_555
C6 N9 1_555 1_555
N15 N15A 1_555 1_555
N10A C7A 1_555 1_555
N4A Ag2A 1_555 1_555
N5A Ag2A 1_555 1_555
C4A N7A 1_555 1_555
C5A N8A 1_555 1_555
C6A N9A 1_555 1_555

#END
