
#######################################################################
#
#                 Cambridge Crystallographic Data Centre
#                                CCDC 
#
#######################################################################
#
# If this CIF has been generated from an entry in the Cambridge 
# Structural Database, then it will include bibliographic, chemical, 
# crystal, experimental, refinement or atomic coordinate data resulting 
# from the CCDC's data processing and validation procedures.
#
#######################################################################

data_HULLUX
_symmetry_cell_setting           monoclinic
_symmetry_space_group_name_H-M   'P 21/n'
_symmetry_Int_Tables_number      14
_space_group_name_Hall           '-P 2yn'
loop_
_symmetry_equiv_pos_site_id
_symmetry_equiv_pos_as_xyz
1 x,y,z
2 1/2-x,1/2+y,1/2-z
3 -x,-y,-z
4 1/2+x,1/2-y,1/2+z
_cell_length_a                   13.1071(8)
_cell_length_b                   13.8977(9)
_cell_length_c                   22.5679(15)
_cell_angle_alpha                90
_cell_angle_beta                 91.4780(10)
_cell_angle_gamma                90
_cell_volume                     4109.57
loop_
_atom_site_label
_atom_site_type_symbol
_atom_site_fract_x
_atom_site_fract_y
_atom_site_fract_z
Pb1 Pb 0.212541(12) 0.198542(11) 0.080472(6)
Cl1 Cl 0.58118(13) 0.81638(10) -0.34657(6)
N1 N 0.3787(3) 0.2875(2) 0.04006(16)
O1 O 0.0511(3) 0.2841(2) 0.13166(15)
O2 O 0.2075(3) 0.3389(3) 0.15012(15)
N2 N 0.1853(3) 0.3414(3) 0.00849(16)
N3 N 0.0534(3) 0.1376(3) -0.00025(16)
C1 C 0.0730(3) 0.4074(3) 0.20457(16)
C2 C 0.0741(3) 0.0830(3) -0.04773(18)
N4 N 0.2517(3) 0.0864(3) -0.01594(16)
O3 O 0.2647(2) 0.5622(3) 0.32202(15)
C3 C 0.3668(3) 0.3505(3) -0.00565(16)
C4 C 0.4508(3) 0.3894(3) -0.03497(17)
C5 C -0.0311(3) 0.4219(3) 0.20787(17)
H1 H -0.0769 0.3842 0.1834
N5 N 0.1326(3) -0.1035(3) -0.18844(15)
C6 C 0.4284(3) 0.4542(3) -0.08316(18)
C7 C 0.1263(3) -0.0432(3) -0.14073(18)
C8 C 0.1708(3) 0.5716(3) 0.32728(19)
C9 C 0.3760(3) -0.0142(4) -0.0609(2)
H2 H 0.4428 -0.0366 -0.0609
C10 C 0.1408(3) 0.4575(3) 0.24241(18)
O4 O 0.1317(2) 0.6200(3) 0.36741(15)
C11 C -0.0026(3) 0.0516(3) -0.08830(19)
C12 C 0.1128(4) 0.3379(3) 0.15916(18)
C13 C 0.1807(3) 0.0526(3) -0.05482(18)
N6 N 0.4916(3) 0.5032(2) -0.12023(15)
H3 H 0.5602 0.5007 -0.1200
C14 C 0.5602(4) 0.3010(3) 0.0315(2)
H4 H 0.6246 0.2830 0.0456
C15 C 0.2626(3) 0.3787(3) -0.02281(17)
N7 N 0.3320(3) 0.5451(3) -0.14601(16)
C16 C 0.0380(3) -0.1087(3) -0.21077(18)
C17 C 0.2056(3) -0.0125(3) -0.09987(18)
C18 C 0.6056(4) 0.7049(4) -0.2498(2)
H5 H 0.6768 0.7206 -0.2511
C19 C 0.1435(4) 0.4712(4) -0.0821(2)
H6 H 0.1289 0.5149 -0.1142
N8 N -0.0274(3) -0.0532(3) -0.17967(15)
H7 H -0.0945 -0.0455 -0.1876
C20 C 0.3463(4) 0.0536(4) -0.0196(2)
H8 H 0.3973 0.0785 0.0076
C21 C 0.4290(3) 0.5565(3) -0.15759(18)
C22 C -0.0034(3) 0.5390(3) 0.28485(18)
C23 C 0.1004(3) 0.5208(3) 0.28325(16)
C24 C 0.2448(3) 0.4446(3) -0.06887(19)
C25 C 0.5695(4) 0.6448(4) -0.2064(2)
H9 H 0.6150 0.6206 -0.1778
C26 C 0.4675(4) 0.6196(3) -0.20423(19)
C27 C 0.3054(3) -0.0474(3) -0.1017(2)
H10 H 0.3238 -0.0935 -0.1312
C28 C 0.4726(3) 0.2648(3) 0.05757(19)
H11 H 0.4809 0.2223 0.0891
C29 C 0.0276(3) -0.0106(3) -0.13500(18)
C30 C 0.3311(3) 0.4809(3) -0.09913(18)
C31 C -0.0708(3) 0.4897(3) 0.24680(19)
C32 C 0.0068(3) -0.1670(3) -0.26221(19)
C33 C 0.0911(3) 0.3702(3) -0.0039(2)
H12 H 0.0369 0.3453 0.0195
C34 C 0.5374(4) 0.7400(3) -0.2918(2)
C35 C 0.0670(4) 0.4348(4) -0.0496(2)
H13 H -0.0026 0.4530 -0.0577
C36 C -0.1043(3) 0.0805(3) -0.0784(2)
H14 H -0.1583 0.0615 -0.1054
C37 C 0.5497(3) 0.3634(3) -0.01519(19)
H15 H 0.6068 0.3882 -0.0335
C38 C -0.0525(4) -0.2857(3) -0.3550(2)
C39 C -0.0949(4) -0.1748(4) -0.2800(2)
H16 H -0.1440 -0.1394 -0.2604
C40 C -0.1244(4) -0.2344(4) -0.3264(2)
H17 H -0.1949 -0.2398 -0.3385
N9 N -0.1755(3) 0.5049(4) 0.2481(2)
H18 H -0.2175 0.4702 0.2243
H19 H -0.2013 0.5488 0.2729
C41 C -0.0436(4) 0.1621(3) 0.0080(2)
H20 H -0.0585 0.2005 0.0420
C42 C 0.0780(4) -0.2189(4) -0.2932(2)
H21 H 0.1487 -0.2139 -0.2813
C43 C 0.0497(4) -0.2775(4) -0.3394(2)
H22 H 0.0986 -0.3114 -0.3600
C44 C -0.1238(3) 0.1360(3) -0.0299(2)
H23 H -0.1922 0.1564 -0.0223
C45 C 0.4364(5) 0.7168(4) -0.2910(3)
H24 H 0.3900 0.7418 -0.3208
C46 C 0.4010(4) 0.6567(4) -0.2465(2)
H25 H 0.3297 0.6414 -0.2447
Cl2 Cl -0.09175(12) -0.36275(10) -0.41241(6)
Pb1A Pb 0.287459(12) 0.698542(11) 0.419528(6)
O3A O 0.2353(2) 0.0622(3) 0.17798(15)
O4A O 0.3683(2) 0.1200(3) 0.13259(15)
O5 O 0.2914(3) 0.5108(3) 0.11210(18)
H26 H 0.2306 0.5466 0.1199
H27 H 0.2869 0.4478 0.1293
O6 O 0.2098(6) 0.7167(4) -0.1086(3)
H28 H 0.2367 0.7772 -0.0948
H29 H 0.1634 0.7275 -0.1415
O7 O -0.1949(10) 0.3631(11) -0.0264(8)
H30 H -0.1346 0.3446 -0.0468
H31 H -0.2424 0.3105 -0.0268
loop_
_geom_bond_atom_site_label_1
_geom_bond_atom_site_label_2
_geom_bond_site_symmetry_1
_geom_bond_site_symmetry_2
Pb1 N1 1_555 1_555
Cl1 C34 1_555 1_555
N1 C3 1_555 1_555
O1 Pb1 1_555 1_555
O2 Pb1 1_555 1_555
N2 Pb1 1_555 1_555
N3 Pb1 1_555 1_555
C1 C5 1_555 1_555
C2 N3 1_555 1_555
N4 Pb1 1_555 1_555
O3 C8 1_555 1_555
C3 C4 1_555 1_555
C4 C6 1_555 1_555
C5 H1 1_555 1_555
N5 C7 1_555 1_555
C6 N6 1_555 1_555
C7 C17 1_555 1_555
C8 O4 1_555 1_555
C9 H2 1_555 1_555
C10 C1 1_555 1_555
O4 Pb1A 1_555 1_555
C11 C2 1_555 1_555
C12 O1 1_555 1_555
C13 C2 1_555 1_555
N6 H3 1_555 1_555
C14 H4 1_555 1_555
C15 N2 1_555 1_555
N7 C21 1_555 1_555
C16 N5 1_555 1_555
C17 C13 1_555 1_555
C18 H5 1_555 1_555
C19 H6 1_555 1_555
N8 C16 1_555 1_555
H7 N8 1_555 1_555
C20 N4 1_555 1_555
H8 C20 1_555 1_555
C21 N6 1_555 1_555
C22 C23 1_555 1_555
C23 C8 1_555 1_555
C24 C15 1_555 1_555
C25 C18 1_555 1_555
H9 C25 1_555 1_555
C26 C21 1_555 1_555
C27 C9 1_555 1_555
H10 C27 1_555 1_555
C28 N1 1_555 1_555
H11 C28 1_555 1_555
C29 C7 1_555 1_555
C30 C6 1_555 1_555
C31 C5 1_555 1_555
C32 C16 1_555 1_555
C33 N2 1_555 1_555
H12 C33 1_555 1_555
C34 C18 1_555 1_555
C35 C19 1_555 1_555
H13 C35 1_555 1_555
C36 C11 1_555 1_555
H14 C36 1_555 1_555
C37 C4 1_555 1_555
H15 C37 1_555 1_555
C38 C40 1_555 1_555
C39 C32 1_555 1_555
H16 C39 1_555 1_555
C40 C39 1_555 1_555
H17 C40 1_555 1_555
N9 C31 1_555 1_555
H18 N9 1_555 1_555
H19 N9 1_555 1_555
C41 N3 1_555 1_555
H20 C41 1_555 1_555
C42 C32 1_555 1_555
H21 C42 1_555 1_555
C43 C38 1_555 1_555
H22 C43 1_555 1_555
C44 C36 1_555 1_555
H23 C44 1_555 1_555
C45 C34 1_555 1_555
H24 C45 1_555 1_555
C46 C26 1_555 1_555
H25 C46 1_555 1_555
Cl2 C38 1_555 1_555
O5 H26 1_555 1_555
H27 O5 1_555 1_555
O6 H28 1_555 1_555
H29 O6 1_555 1_555
O7 H30 1_555 1_555
H31 O7 1_555 1_555
Pb1A O3 1_555 1_555
O3A Pb1 1_555 1_555
O4A Pb1 1_555 1_555
O2 C12 1_555 1_555
C1 C12 1_555 1_555
N4 C13 1_555 1_555
C3 C15 1_555 1_555
C9 C20 1_555 1_555
C10 C23 1_555 1_555
C11 C29 1_555 1_555
C14 C28 1_555 1_555
C14 C37 1_555 1_555
N7 C30 1_555 1_555
C17 C27 1_555 1_555
C19 C24 1_555 1_555
N8 C29 1_555 1_555
C22 C31 1_555 1_555
C24 C30 1_555 1_555
C25 C26 1_555 1_555
C33 C35 1_555 1_555
C41 C44 1_555 1_555
C42 C43 1_555 1_555
C45 C46 1_555 1_555

#END
