
#######################################################################
#
#                 Cambridge Crystallographic Data Centre
#                                CCDC 
#
#######################################################################
#
# If this CIF has been generated from an entry in the Cambridge 
# Structural Database, then it will include bibliographic, chemical, 
# crystal, experimental, refinement or atomic coordinate data resulting 
# from the CCDC's data processing and validation procedures.
#
#######################################################################

data_HULMAE
_symmetry_cell_setting           triclinic
_symmetry_space_group_name_H-M   'P -1'
_symmetry_Int_Tables_number      2
_space_group_name_Hall           '-P 1'
loop_
_symmetry_equiv_pos_site_id
_symmetry_equiv_pos_as_xyz
1 x,y,z
2 -x,-y,-z
_cell_length_a                   13.502(5)
_cell_length_b                   16.342(5)
_cell_length_c                   16.902(5)
_cell_angle_alpha                90.323(5)
_cell_angle_beta                 107.835(5)
_cell_angle_gamma                97.185(5)
_cell_volume                     3518.5
loop_
_atom_site_label
_atom_site_type_symbol
_atom_site_fract_x
_atom_site_fract_y
_atom_site_fract_z
W1 W 1.009320(17) 0.751384(11) 0.196333(12)
Mn1 Mn 1.02430(6) 0.91286(4) 0.05180(4)
Mn2 Mn 0.98402(6) 0.56528(4) 0.07098(5)
O1 O 1.1140(3) 0.7927(2) 0.2841(2)
O2 O 0.9703(3) 0.8335(2) 0.1295(2)
O3 O 1.0501(3) 0.6729(2) 0.1430(2)
O4 O 1.0808(3) 0.5699(2) 0.0088(2)
O5 O 0.9050(3) 0.7072(2) 0.2298(2)
C1 C 0.9339(5) 0.4918(3) 0.2127(3)
H1 H 0.8811 0.4533 0.2284
H2 H 0.9645 0.5353 0.2577
O6 O 0.9371(3) 0.9945(2) 0.0591(2)
O7 O 0.8810(3) 0.6125(2) -0.0109(2)
O8 O 1.1457(3) 0.9676(2) 0.1300(2)
N1 N 0.9106(3) 0.8597(2) -0.0460(3)
C2 C 1.2354(4) 0.5547(3) 0.1254(3)
C3 C 0.7809(4) 0.6128(3) -0.0192(3)
N2 N 1.1073(3) 0.8367(2) 0.0157(3)
N3 N 0.8841(4) 0.5295(3) 0.1330(3)
C4 C 1.1851(4) 0.5867(3) 0.0473(3)
N4 N 1.0762(4) 0.4994(3) 0.1546(3)
C5 C 0.7714(4) 0.9105(3) -0.0065(3)
C6 C 0.8125(4) 0.8621(3) -0.0595(3)
H3 H 0.7640 0.8311 -0.1061
C7 C 1.2792(4) 0.8947(3) 0.1050(3)
C8 C 1.2451(4) 0.9561(3) 0.1467(3)
C9 C 1.1758(5) 0.5045(3) 0.1698(3)
H4 H 1.2133 0.4730 0.2133
C10 C 0.7307(4) 0.5781(3) 0.0376(3)
C11 C 0.7865(4) 0.5392(3) 0.1116(3)
H5 H 0.7478 0.5192 0.1476
C12 C 0.6625(5) 0.8961(3) -0.0185(4)
H6 H 0.6199 0.8541 -0.0576
C13 C 1.3445(5) 0.5706(4) 0.1594(4)
H7 H 1.3779 0.5473 0.2106
C14 C 1.2073(4) 0.8397(3) 0.0400(3)
H8 H 1.2366 0.8026 0.0128
C15 C 1.2479(4) 0.6338(3) 0.0075(4)
H9 H 1.2164 0.6543 -0.0455
C16 C 1.4603(5) 0.9392(4) 0.1861(4)
H10 H 1.5327 0.9337 0.1995
C17 C 1.0409(4) 0.7738(3) -0.0502(3)
H11 H 1.0145 0.7250 -0.0245
H12 H 1.0824 0.7556 -0.0846
C18 C 0.7876(4) 1.0212(3) 0.0937(3)
H13 H 0.8293 1.0643 0.1319
C19 C 1.3212(4) 1.0077(4) 0.2087(3)
H14 H 1.3001 1.0490 0.2375
C20 C 0.6802(5) 1.0054(3) 0.0822(3)
H15 H 0.6496 1.0377 0.1129
C21 C 0.7187(5) 0.6483(3) -0.0911(4)
H16 H 0.7504 0.6724 -0.1300
C22 C 1.3875(5) 0.8888(4) 0.1256(4)
H17 H 1.4103 0.8487 0.0966
C23 C 0.8345(4) 0.9743(3) 0.0495(3)
C24 C 0.9502(4) 0.8148(3) -0.1032(3)
H18 H 0.9742 0.8535 -0.1405
H19 H 0.8942 0.7728 -0.1378
C25 C 1.3553(5) 0.6508(4) 0.0443(4)
H20 H 1.3959 0.6848 0.0171
C26 C 1.4270(5) 0.9990(4) 0.2283(4)
H21 H 1.4773 1.0340 0.2708
C27 C 0.6171(4) 0.9428(4) 0.0263(4)
H22 H 0.5440 0.9322 0.0189
C28 C 1.4050(5) 0.6192(4) 0.1204(4)
H23 H 1.4789 0.6308 0.1449
C29 C 0.6223(5) 0.5787(4) 0.0212(4)
H24 H 0.5890 0.5548 0.0592
C30 C 0.5631(5) 0.6134(4) -0.0494(4)
H25 H 0.4899 0.6136 -0.0598
C31 C 1.0193(5) 0.4458(3) 0.2004(3)
H26 H 1.0677 0.4336 0.2549
H27 H 0.9880 0.3930 0.1683
C32 C 0.6124(5) 0.6478(4) -0.1047(4)
H28 H 0.5721 0.6717 -0.1531
Mn1A Mn 0.97570(6) 1.08714(4) -0.05180(4)
Mn2A Mn 1.01598(6) 0.43472(4) -0.07098(5)
O4A O 0.9192(3) 0.4301(2) -0.0088(2)
O6A O 1.0629(3) 1.0055(2) -0.0591(2)
W2 W 1.004844(16) 0.753764(11) 0.690004(12)
Mn3 Mn 0.98982(6) 0.58783(4) 0.54829(5)
Mn4 Mn 0.94985(6) 0.93612(4) 0.55643(5)
O9 O 1.1036(3) 0.8044(2) 0.7763(2)
O10 O 1.0502(3) 0.6656(2) 0.6545(2)
O11 O 0.9718(3) 0.8238(2) 0.6084(2)
O12 O 0.8747(3) 0.5359(2) 0.5778(2)
O13 O 0.8929(3) 0.7215(2) 0.7196(2)
O14 O 1.0559(3) 0.9331(2) 0.5018(2)
O15 O 1.0763(3) 0.5026(2) 0.5859(2)
O16 O 0.8359(3) 0.8936(2) 0.4638(2)
N5 N 0.9044(4) 0.6678(3) 0.4791(3)
N6 N 1.0936(4) 0.6371(2) 0.4956(3)
N7 N 1.0590(4) 0.9917(3) 0.6548(3)
C33 C 1.1806(4) 0.5183(3) 0.6176(3)
N8 N 0.8560(4) 0.9668(3) 0.6193(3)
C34 C 0.7810(5) 0.5588(3) 0.5643(3)
C35 C 0.8084(5) 0.6753(3) 0.4736(3)
C36 C 1.0186(5) 1.0457(3) 0.7047(3)
H29 H 1.0115 1.1003 0.6800
H30 H 1.0669 1.0539 0.7624
C37 C 1.2410(4) 0.5841(3) 0.5914(3)
C38 C 1.1547(4) 0.9785(3) 0.6781(3)
H31 H 1.1989 1.0014 0.7307
C39 C 0.6921(5) 0.9180(4) 0.5128(4)
C40 C 0.9115(5) 1.0021(4) 0.7043(3)
H32 H 0.9205 0.9577 0.7445
H33 H 0.8707 1.0418 0.7203
C41 C 1.2001(3) 0.9298(2) 0.6282(2)
C42 C 1.2983(3) 0.9056(2) 0.6677(2)
H34 H 1.3312 0.9182 0.7255
C43 C 1.3480(3) 0.8631(2) 0.6222(2)
H35 H 1.4148 0.8467 0.6491
C44 C 1.2995(3) 0.8446(2) 0.5373(2)
H36 H 1.3333 0.8157 0.5064
C45 C 1.2013(3) 0.8688(2) 0.4978(2)
H37 H 1.1684 0.8563 0.4400
C46 C 1.1516(3) 0.9114(2) 0.54322(19)
C47 C 0.7100(5) 0.5127(4) 0.5985(4)
H38 H 0.7312 0.4666 0.6302
C48 C 0.7544(5) 0.9560(4) 0.5912(4)
H39 H 0.7181 0.9752 0.6261
C49 C 0.6650(5) 0.8496(4) 0.3785(4)
H40 H 0.6923 0.8285 0.3382
C50 C 1.2332(5) 0.4659(3) 0.6772(3)
H41 H 1.1945 0.4206 0.6942
C51 C 0.7456(5) 0.6256(4) 0.5152(4)
C52 C 1.4013(5) 0.5468(4) 0.6877(4)
H42 H 1.4751 0.5576 0.7129
C53 C 0.9603(5) 0.7223(3) 0.4360(4)
H43 H 0.9917 0.7740 0.4702
H44 H 0.9114 0.7367 0.3827
C54 C 0.6114(5) 0.5327(5) 0.5871(4)
H45 H 0.5658 0.5011 0.6120
C55 C 1.0461(5) 0.6796(3) 0.4196(3)
H46 H 1.0161 0.6393 0.3716
H47 H 1.0993 0.7204 0.4073
C56 C 0.7343(5) 0.8881(3) 0.4527(4)
C57 C 1.3425(5) 0.4804(4) 0.7116(4)
H48 H 1.3773 0.4446 0.7517
C58 C 1.1927(4) 0.6332(3) 0.5229(3)
H49 H 1.2368 0.6644 0.4965
C59 C 0.5771(6) 0.5988(5) 0.5395(5)
H50 H 0.5083 0.6121 0.5315
C60 C 0.6436(5) 0.6450(5) 0.5039(4)
H51 H 0.6203 0.6902 0.4715
C61 C 0.5803(5) 0.9097(5) 0.4930(5)
H52 H 0.5506 0.9310 0.5316
C62 C 0.5157(6) 0.8723(5) 0.4208(5)
H53 H 0.4417 0.8666 0.4094
C63 C 1.3502(5) 0.5966(4) 0.6268(4)
H54 H 1.3902 0.6402 0.6086
C64 C 0.5588(5) 0.8422(4) 0.3635(5)
H55 H 0.5134 0.8158 0.3128
Mn3A Mn 1.01018(6) 0.41217(4) 0.45171(5)
Mn4A Mn 1.05015(6) 1.06388(4) 0.44357(5)
O14A O 0.9441(3) 1.0669(2) 0.4982(2)
O15A O 0.9237(3) 0.4974(2) 0.4141(2)
C65 C 0.2912(4) 0.7347(3) 0.3724(3)
O17 O 0.3197(8) 0.6974(5) 0.3078(6)
O18 O 0.6992(4) 0.7118(4) 0.2148(4)
C66 C 0.6697(7) 0.7737(5) 0.1562(5)
O19 O 0.7363(4) 0.8034(4) 0.7347(4)
C67 C 0.6334(6) 0.7662(5) 0.6915(5)
O20 O 0.2979(6) 0.7753(4) 0.8665(4)
C68 C 0.3223(9) 0.7179(7) 0.8118(7)
loop_
_geom_bond_atom_site_label_1
_geom_bond_atom_site_label_2
_geom_bond_site_symmetry_1
_geom_bond_site_symmetry_2
W1 O1 1_555 1_555
Mn1 O2 1_555 1_555
Mn2 O3 1_555 1_555
O2 W1 1_555 1_555
O3 W1 1_555 1_555
O4 Mn2 1_555 1_555
O5 W1 1_555 1_555
C1 H1 1_555 1_555
H2 C1 1_555 1_555
O6 Mn1 1_555 1_555
O7 Mn2 1_555 1_555
O8 Mn1 1_555 1_555
N1 Mn1 1_555 1_555
C2 C4 1_555 1_555
C3 O7 1_555 1_555
N2 Mn1 1_555 1_555
N3 Mn2 1_555 1_555
C4 O4 1_555 1_555
N4 Mn2 1_555 1_555
C5 C6 1_555 1_555
C6 N1 1_555 1_555
H3 C6 1_555 1_555
C7 C8 1_555 1_555
C8 O8 1_555 1_555
C9 C2 1_555 1_555
H4 C9 1_555 1_555
C10 C3 1_555 1_555
C11 N3 1_555 1_555
H5 C11 1_555 1_555
C12 C5 1_555 1_555
H6 C12 1_555 1_555
C13 C2 1_555 1_555
H7 C13 1_555 1_555
C14 N2 1_555 1_555
H8 C14 1_555 1_555
C15 C4 1_555 1_555
H9 C15 1_555 1_555
C16 H10 1_555 1_555
C17 N2 1_555 1_555
H11 C17 1_555 1_555
H12 C17 1_555 1_555
C18 H13 1_555 1_555
C19 C8 1_555 1_555
H14 C19 1_555 1_555
C20 C18 1_555 1_555
H15 C20 1_555 1_555
C21 C3 1_555 1_555
H16 C21 1_555 1_555
C22 C7 1_555 1_555
H17 C22 1_555 1_555
C23 O6 1_555 1_555
C24 N1 1_555 1_555
H18 C24 1_555 1_555
H19 C24 1_555 1_555
C25 C15 1_555 1_555
H20 C25 1_555 1_555
C26 C16 1_555 1_555
H21 C26 1_555 1_555
C27 C12 1_555 1_555
H22 C27 1_555 1_555
C28 C13 1_555 1_555
H23 C28 1_555 1_555
C29 C10 1_555 1_555
H24 C29 1_555 1_555
C30 C29 1_555 1_555
H25 C30 1_555 1_555
C31 C1 1_555 1_555
H26 C31 1_555 1_555
H27 C31 1_555 1_555
C32 C21 1_555 1_555
H28 C32 1_555 1_555
W2 O9 1_555 1_555
Mn3 O10 1_555 1_555
Mn4 O11 1_555 1_555
O10 W2 1_555 1_555
O11 W2 1_555 1_555
O12 Mn3 1_555 1_555
O13 W2 1_555 1_555
O14 Mn4 1_555 1_555
O15 Mn3 1_555 1_555
O16 Mn4 1_555 1_555
N5 Mn3 1_555 1_555
N6 Mn3 1_555 1_555
N7 Mn4 1_555 1_555
C33 O15 1_555 1_555
N8 Mn4 1_555 1_555
C34 O12 1_555 1_555
C35 N5 1_555 1_555
C36 N7 1_555 1_555
H29 C36 1_555 1_555
H30 C36 1_555 1_555
C37 C33 1_555 1_555
C38 N7 1_555 1_555
H31 C38 1_555 1_555
C39 C48 1_555 1_555
C40 N8 1_555 1_555
H32 C40 1_555 1_555
H33 C40 1_555 1_555
C41 C38 1_555 1_555
C42 C41 1_555 1_555
H34 C42 1_555 1_555
C43 C42 1_555 1_555
H35 C43 1_555 1_555
C44 C43 1_555 1_555
H36 C44 1_555 1_555
C45 C44 1_555 1_555
H37 C45 1_555 1_555
C46 O14 1_555 1_555
C47 C34 1_555 1_555
H38 C47 1_555 1_555
C48 N8 1_555 1_555
H39 C48 1_555 1_555
C49 H40 1_555 1_555
C50 C33 1_555 1_555
H41 C50 1_555 1_555
C51 C34 1_555 1_555
C52 H42 1_555 1_555
C53 N5 1_555 1_555
H43 C53 1_555 1_555
H44 C53 1_555 1_555
C54 C47 1_555 1_555
H45 C54 1_555 1_555
C55 N6 1_555 1_555
H46 C55 1_555 1_555
H47 C55 1_555 1_555
C56 O16 1_555 1_555
C57 C50 1_555 1_555
H48 C57 1_555 1_555
C58 N6 1_555 1_555
H49 C58 1_555 1_555
C59 C54 1_555 1_555
H50 C59 1_555 1_555
C60 C51 1_555 1_555
H51 C60 1_555 1_555
C61 C39 1_555 1_555
H52 C61 1_555 1_555
C62 C61 1_555 1_555
H53 C62 1_555 1_555
C63 C37 1_555 1_555
H54 C63 1_555 1_555
C64 C49 1_555 1_555
H55 C64 1_555 1_555
C65 O17 1_555 1_555
O18 C66 1_555 1_555
O19 C67 1_555 1_555
O20 C68 1_555 1_555
Mn1A O6 1_555 1_555
Mn2A O4 1_555 1_555
O4A Mn2 1_555 1_555
O6A Mn1 1_555 1_555
Mn3A O15 1_555 1_555
Mn4A O14 1_555 1_555
O14A Mn4 1_555 1_555
O15A Mn3 1_555 1_555
C1 N3 1_555 1_555
N4 C9 1_555 1_555
N4 C31 1_555 1_555
C5 C23 1_555 1_555
C7 C14 1_555 1_555
C10 C11 1_555 1_555
C16 C22 1_555 1_555
C17 C24 1_555 1_555
C18 C23 1_555 1_555
C19 C26 1_555 1_555
C20 C27 1_555 1_555
C25 C28 1_555 1_555
C30 C32 1_555 1_555
C35 C51 1_555 1_555
C36 C40 1_555 1_555
C37 C58 1_555 1_555
C39 C56 1_555 1_555
C41 C46 1_555 1_555
C45 C46 1_555 1_555
C49 C56 1_555 1_555
C52 C57 1_555 1_555
C52 C63 1_555 1_555
C53 C55 1_555 1_555
C59 C60 1_555 1_555
C62 C64 1_555 1_555
Mn1A O6A 1_555 1_555
Mn2A O4A 1_555 1_555
Mn3A O15A 1_555 1_555
Mn4A O14A 1_555 1_555

#END
