
#######################################################################
#
#                 Cambridge Crystallographic Data Centre
#                                CCDC 
#
#######################################################################
#
# If this CIF has been generated from an entry in the Cambridge 
# Structural Database, then it will include bibliographic, chemical, 
# crystal, experimental, refinement or atomic coordinate data resulting 
# from the CCDC's data processing and validation procedures.
#
#######################################################################

data_HULQAH
_symmetry_cell_setting           monoclinic
_symmetry_space_group_name_H-M   'C 2/c'
_symmetry_Int_Tables_number      15
_space_group_name_Hall           '-C 2yn'
loop_
_symmetry_equiv_pos_site_id
_symmetry_equiv_pos_as_xyz
1 x,y,z
2 -x,y,1/2-z
3 1/2+x,1/2+y,z
4 1/2-x,1/2+y,1/2-z
5 -x,-y,-z
6 x,-y,1/2+z
7 1/2-x,1/2-y,-z
8 1/2+x,1/2-y,1/2+z
_cell_length_a                   15.589(5)
_cell_length_b                   12.446(5)
_cell_length_c                   12.271(4)
_cell_angle_alpha                90
_cell_angle_beta                 95.007(17)
_cell_angle_gamma                90
_cell_volume                     2371.74
loop_
_atom_site_label
_atom_site_type_symbol
_atom_site_fract_x
_atom_site_fract_y
_atom_site_fract_z
O6 O 0.4683(9) 0.0482(12) 0.7120(16)
H4 H 0.467(16) -0.015(6) 0.736(16)
O6A O 0.5317(9) 0.0482(12) 0.7880(16)
H4A H 0.533(16) -0.015(6) 0.764(16)
Nd1 Nd 1.0000 1.06601(2) 0.2500
O1 O 1.05454(19) 1.1561(2) 0.0870(2)
O2 O 1.0964(2) 1.2343(3) 0.2430(2)
O3 O 1.3485(2) 1.4901(3) 0.2415(3)
O4 O 1.3808(2) 1.5600(2) 0.0851(3)
O5 O 0.9855(3) 0.9096(3) 0.3792(3)
H1 H 1.009(4) 0.908(6) 0.441(3)
H2 H 0.953(4) 0.858(4) 0.374(6)
N1 N 1.1738(3) 1.3903(4) -0.2054(3)
H6 H 1.1460 1.4545 -0.2204
N2 N 1.0629(6) 1.4302(7) -0.4227(8)
N3 N 1.1019(7) 1.3470(9) -0.5661(7)
H7 H 1.1098 1.3325 -0.6347
C1 C 1.1867(3) 1.3808(4) -0.0915(3)
C2 C 1.1377(3) 1.3102(3) -0.0337(3)
H8 H 1.0966 1.2646 -0.0722
C3 C 1.1488(2) 1.3064(3) 0.0805(3)
C4 C 1.2102(2) 1.3715(3) 0.1380(3)
H9 H 1.2175 1.3693 0.2157
C5 C 1.2610(3) 1.4400(3) 0.0799(4)
C6 C 1.2487(3) 1.4454(3) -0.0332(4)
H10 H 1.2826 1.4933 -0.0718
C7 C 1.1274(6) 1.3093(7) -0.2685(7)
H11 H 1.0706 1.2986 -0.2398
H12 H 1.1594 1.2406 -0.2605
C8 C 1.1142(8) 1.3378(9) -0.3869(7)
C9 C 1.1345(7) 1.2863(9) -0.4732(8)
H13 H 1.1654 1.2205 -0.4741
C10 C 1.0556(9) 1.4326(9) -0.5300(12)
H14 H 1.0243 1.4840 -0.5747
C11 C 1.0970(2) 1.2283(3) 0.1406(3)
C12 C 1.3338(2) 1.5014(3) 0.1387(3)
Nd1B Nd 1.5000 1.56601(2) 0.2500
Nd1B_2 Nd 0.5000 1.56601(2) 0.2500
O1A O 0.94546(19) 1.1561(2) 0.4130(2)
O2A O 0.9036(2) 1.2343(3) 0.2570(2)
O3A O 0.6515(2) 1.4901(3) 0.2585(3)
O3B O 0.8485(2) 0.9901(3) 0.2415(3)
O3C O 1.1515(2) 0.9901(3) 0.2585(3)
O4A O 0.6192(2) 1.5600(2) 0.4149(3)
O4B O 0.8808(2) 1.0600(2) 0.0851(3)
O4C O 1.1192(2) 1.0600(2) 0.4149(3)
O5A O 1.0145(3) 0.9096(3) 0.1208(3)
H1A H 0.991(4) 0.908(6) 0.059(3)
H2A H 1.047(4) 0.858(4) 0.126(6)
N1A N 0.8262(3) 1.3903(4) 0.7054(3)
H6A H 0.8540 1.4545 0.7204
N2A N 0.9371(6) 1.4302(7) 0.9227(8)
N3A N 0.8981(7) 1.3470(9) 1.0661(7)
H7A H 0.8902 1.3325 1.1347
C1A C 0.8133(3) 1.3808(4) 0.5915(3)
C2A C 0.8623(3) 1.3102(3) 0.5337(3)
H8A H 0.9034 1.2646 0.5722
C3A C 0.8512(2) 1.3064(3) 0.4195(3)
C4A C 0.7898(2) 1.3715(3) 0.3620(3)
H9A H 0.7825 1.3693 0.2843
C5A C 0.7390(3) 1.4400(3) 0.4201(4)
C6A C 0.7513(3) 1.4454(3) 0.5332(4)
H10A H 0.7174 1.4933 0.5718
C7A C 0.8726(6) 1.3093(7) 0.7685(7)
H11A H 0.9294 1.2986 0.7398
H12A H 0.8406 1.2406 0.7605
C8A C 0.8858(8) 1.3378(9) 0.8869(7)
C9A C 0.8655(7) 1.2863(9) 0.9732(8)
H13A H 0.8346 1.2205 0.9741
C10A C 0.9444(9) 1.4326(9) 1.0300(12)
H14A H 0.9757 1.4840 1.0747
C11A C 0.9030(2) 1.2283(3) 0.3594(3)
C12A C 0.6662(2) 1.5014(3) 0.3613(3)
H3? H 0.468(14) 0.103(9) 0.750(15)
H5? H 0.7273 0.8958 -0.2313
loop_
_geom_bond_atom_site_label_1
_geom_bond_atom_site_label_2
_geom_bond_site_symmetry_1
_geom_bond_site_symmetry_2
Nd1 O1 1_555 1_555
O1 C11 1_555 1_555
O2 Nd1 1_555 1_555
O3 C12 1_555 1_555
O4 C12 1_555 1_555
O5 Nd1 1_555 1_555
H1 O5 1_555 1_555
H2 O5 1_555 1_555
O6 H4 1_555 1_555
N1 H6 1_555 1_555
N2 C8 1_555 1_555
N3 H7 1_555 1_555
C1 N1 1_555 1_555
C2 C1 1_555 1_555
H8 C2 1_555 1_555
C3 C2 1_555 1_555
C4 C3 1_555 1_555
H9 C4 1_555 1_555
C5 C4 1_555 1_555
C6 C1 1_555 1_555
H10 C6 1_555 1_555
C7 N1 1_555 1_555
H11 C7 1_555 1_555
H12 C7 1_555 1_555
C8 C7 1_555 1_555
C9 N3 1_555 1_555
H13 C9 1_555 1_555
C10 N2 1_555 1_555
H14 C10 1_555 1_555
C11 O2 1_555 1_555
C12 C5 1_555 1_555
Nd1B O3 1_555 1_555
Nd1B_2 O3A 1_555 1_555
O1A Nd1 1_555 1_555
O2A Nd1 1_555 1_555
O3A C12A 1_555 1_555
O3B Nd1 1_555 1_555
O3C Nd1 1_555 1_555
O4A Nd1B_2 1_555 1_555
O4B Nd1 1_555 1_555
O4C Nd1 1_555 1_555
O5A Nd1 1_555 1_555
H1A O5A 1_555 1_555
H2A O5A 1_555 1_555
O6A O6 1_555 1_555
H4A O6A 1_555 1_555
N1A H6A 1_555 1_555
N2A C8A 1_555 1_555
N3A H7A 1_555 1_555
C1A N1A 1_555 1_555
C2A C1A 1_555 1_555
H8A C2A 1_555 1_555
C3A C2A 1_555 1_555
C4A C3A 1_555 1_555
H9A C4A 1_555 1_555
C5A C4A 1_555 1_555
C6A C1A 1_555 1_555
H10A C6A 1_555 1_555
C7A N1A 1_555 1_555
H11A C7A 1_555 1_555
H12A C7A 1_555 1_555
C8A C7A 1_555 1_555
C9A N3A 1_555 1_555
H13A C9A 1_555 1_555
C10A N2A 1_555 1_555
H14A C10A 1_555 1_555
C11A O1A 1_555 1_555
C12A O4A 1_555 1_555
O4 Nd1B 1_555 1_555
N3 C10 1_555 1_555
C3 C11 1_555 1_555
C5 C6 1_555 1_555
C8 C9 1_555 1_555
O2A C11A 1_555 1_555
N3A C10A 1_555 1_555
C3A C11A 1_555 1_555
C5A C6A 1_555 1_555
C5A C12A 1_555 1_555
C8A C9A 1_555 1_555

#END
