
#######################################################################
#
#                 Cambridge Crystallographic Data Centre
#                                CCDC 
#
#######################################################################
#
# If this CIF has been generated from an entry in the Cambridge 
# Structural Database, then it will include bibliographic, chemical, 
# crystal, experimental, refinement or atomic coordinate data resulting 
# from the CCDC's data processing and validation procedures.
#
#######################################################################

data_HULREM
_symmetry_cell_setting           triclinic
_symmetry_space_group_name_H-M   'P -1'
_symmetry_Int_Tables_number      2
_space_group_name_Hall           '-P 1'
loop_
_symmetry_equiv_pos_site_id
_symmetry_equiv_pos_as_xyz
1 x,y,z
2 -x,-y,-z
_cell_length_a                   13.8520(14)
_cell_length_b                   14.2530(18)
_cell_length_c                   16.919(2)
_cell_angle_alpha                68.3100(10)
_cell_angle_beta                 73.855(2)
_cell_angle_gamma                69.3490(10)
_cell_volume                     2862.19
loop_
_atom_site_label
_atom_site_type_symbol
_atom_site_fract_x
_atom_site_fract_y
_atom_site_fract_z
Cu3 Cu 0.1113(2) 0.5396(3) 0.95820(18)
N5 N 0.1146(18) 0.7002(18) 0.5199(17)
N6 N 0.0964(13) 0.6077(15) 0.8412(12)
N7 N 0.1393(17) 0.2994(18) 1.3907(15)
N8 N 0.1384(14) 0.4560(14) 1.0709(12)
C21 C 0.108(2) 0.759(2) 0.5717(18)
C22 C 0.101(2) 0.866(2) 0.5353(18)
H17 H 0.0967 0.9055 0.5699
C23 C 0.102(2) 0.913(2) 0.447(2)
H18 H 0.0984 0.9840 0.4227
C24 C 0.109(2) 0.854(2) 0.3953(19)
H19 H 0.1101 0.8851 0.3363
C25 C 0.116(2) 0.747(2) 0.432(2)
H20 H 0.1203 0.7076 0.3971
C26 C 0.0666(16) 0.7169(19) 0.8099(15)
H21 H 0.0455 0.7566 0.8478
C27 C 0.0684(17) 0.7667(19) 0.7219(16)
H22 H 0.0484 0.8397 0.7009
C28 C 0.0999(19) 0.707(2) 0.6652(17)
C29 C 0.1297(19) 0.598(2) 0.6965(17)
H23 H 0.1508 0.5584 0.6586
C30 C 0.1279(17) 0.5484(19) 0.7845(15)
H24 H 0.1479 0.4753 0.8055
C31 C 0.185(2) 0.257(2) 1.3227(18)
C32 C 0.239(2) 0.151(2) 1.3390(19)
H25 H 0.2691 0.1222 1.2935
C33 C 0.247(2) 0.087(2) 1.423(2)
H26 H 0.2825 0.0159 1.4342
C34 C 0.201(2) 0.129(2) 1.491(2)
H27 H 0.2064 0.0868 1.5478
C35 C 0.147(2) 0.236(2) 1.4750(19)
H28 H 0.1169 0.2641 1.5206
C36 C 0.1219(19) 0.500(2) 1.1361(16)
H29 H 0.1011 0.5727 1.1242
C37 C 0.1363(19) 0.4354(19) 1.2191(16)
H30 H 0.1252 0.4649 1.2627
C38 C 0.1674(19) 0.3267(19) 1.2370(16)
C39 C 0.1839(18) 0.2827(19) 1.1718(16)
H31 H 0.2047 0.2100 1.1838
C40 C 0.1694(18) 0.3473(19) 1.0888(16)
H32 H 0.1805 0.3178 1.0452
Cu4 Cu 1.0000 -0.5000 0.5000
N9 N 0.506(3) -0.293(2) 0.410(2)
N10 N 0.878(3) -0.435(3) 0.432(3)
C41 C 0.589(4) -0.251(3) 0.363(3)
C42 C 0.570(4) -0.152(4) 0.303(3)
H33 H 0.6257 -0.1241 0.2716
C43 C 0.404(3) -0.236(3) 0.397(3)
H34 H 0.3487 -0.2635 0.4282
C44 C 0.386(3) -0.136(3) 0.336(3)
H35 H 0.3177 -0.0980 0.3273
C45 C 0.469(3) -0.095(3) 0.289(3)
H36 H 0.4562 -0.0283 0.2489
C46 C 0.785(3) -0.452(3) 0.484(3)
H37 H 0.7862 -0.5060 0.5367
C47 C 0.690(3) -0.390(3) 0.459(3)
H38 H 0.6273 -0.4011 0.4935
C48 C 0.687(4) -0.309(3) 0.381(3)
C49 C 0.780(3) -0.292(3) 0.328(3)
H39 H 0.7790 -0.2385 0.2761
C50 C 0.876(3) -0.355(3) 0.354(3)
H40 H 0.9379 -0.3435 0.3193
N9A N 1.494(3) -0.707(2) 0.590(2)
N10A N 1.122(3) -0.565(3) 0.568(3)
C41A C 1.411(4) -0.749(3) 0.637(3)
C42A C 1.430(4) -0.848(4) 0.697(3)
H33A H 1.3743 -0.8759 0.7284
C43A C 1.596(3) -0.764(3) 0.603(3)
H34A H 1.6513 -0.7365 0.5718
C44A C 1.614(3) -0.864(3) 0.664(3)
H35A H 1.6823 -0.9020 0.6727
C45A C 1.531(3) -0.905(3) 0.711(3)
H36A H 1.5438 -0.9717 0.7511
C46A C 1.215(3) -0.548(3) 0.516(3)
H37A H 1.2138 -0.4940 0.4633
C47A C 1.310(3) -0.610(3) 0.541(3)
H38A H 1.3727 -0.5989 0.5065
C48A C 1.313(4) -0.691(3) 0.619(3)
C49A C 1.220(3) -0.708(3) 0.672(3)
H39A H 1.2210 -0.7615 0.7239
C50A C 1.124(3) -0.645(3) 0.646(3)
H40A H 1.0621 -0.6565 0.6807
W1 W 0.10986(8) 0.98910(7) 0.78722(6)
W2 W 0.18753(7) 0.77091(7) 0.96559(6)
W3 W 0.08358(7) 0.78214(7) 1.17772(6)
W4 W 0.26352(7) 0.99896(7) 0.91778(6)
W5 W 0.15153(7) 1.01663(6) 1.12873(6)
W6 W 0.07472(7) 1.22983(6) 0.94829(6)
V1 V 0.0000 1.0000 1.0000
Cu1 Cu 0.3625(2) 0.5127(2) 0.92749(19)
Cu2 Cu 0.5000 0.0000 1.0000
N1 N 0.3684(14) 0.5379(14) 0.8076(13)
N2 N 0.483(2) 0.1439(16) 0.9322(17)
N3 N 0.5640(17) 0.1417(18) 1.2928(16)
N4 N 0.4065(13) 0.4318(14) 1.0352(13)
O1 O 0.111(2) 0.958(2) 0.9366(18)
O2 O 0.027(2) 0.9630(19) 1.1002(17)
O5 O 0.2165(12) 1.0184(11) 0.8159(10)
O6 O 0.1617(12) 0.8467(11) 0.8513(10)
O7 O 0.1821(11) 0.7454(12) 1.0830(10)
O8 O 0.2716(12) 0.8558(11) 0.9524(10)
O9 O 0.1593(11) 0.8724(10) 1.1665(10)
O10 O 0.2578(12) 0.9852(11) 1.0322(10)
O11 O 0.1145(11) 1.1565(11) 1.0590(9)
O12 O 0.1989(12) 1.1468(11) 0.8998(9)
O13 O 0.0359(12) 1.1337(11) 0.7638(11)
O14 O -0.0190(11) 0.9585(11) 0.8031(11)
O15 O 0.0644(11) 0.7308(12) 0.9907(10)
O16 O -0.0174(10) 0.7417(12) 1.1497(9)
O17 O 0.1580(11) 0.9812(11) 0.6901(9)
O18 O 0.2747(11) 0.6613(11) 0.9479(9)
O19 O 0.1199(11) 0.6806(11) 1.2621(9)
O20 O 0.3890(11) 0.9951(11) 0.8810(10)
O21 O 0.2221(12) 1.0229(11) 1.1911(10)
O22 O 0.1082(11) 1.3415(10) 0.9254(9)
C1 C 0.420(2) 0.4576(19) 0.7700(18)
C2 C 0.4407(19) 0.481(2) 0.6806(18)
H1 H 0.4750 0.4273 0.6554
C3 C 0.4105(19) 0.585(2) 0.6289(18)
H2 H 0.4245 0.6001 0.5692
C4 C 0.3592(18) 0.665(2) 0.6666(18)
H3 H 0.3390 0.7340 0.6320
C5 C 0.3381(18) 0.6414(19) 0.7559(17)
H4 H 0.3038 0.6951 0.7811
C6 C 0.381(2) 0.208(2) 0.9351(19)
H5 H 0.3265 0.1806 0.9720
C7 C 0.359(2) 0.312(2) 0.8829(19)
H6 H 0.2902 0.3542 0.8849
C8 C 0.440(2) 0.352(2) 0.8279(18)
C9 C 0.542(2) 0.288(2) 0.8250(19)
H7 H 0.5966 0.3152 0.7881
C10 C 0.564(3) 0.184(2) 0.877(2)
H8 H 0.6329 0.1416 0.8751
C11 C 0.4854(19) 0.2363(19) 1.2788(18)
C12 C 0.4254(18) 0.2723(19) 1.3481(17)
H9 H 0.3728 0.3356 1.3387
C13 C 0.444(2) 0.214(2) 1.431(2)
H10 H 0.4040 0.2378 1.4778
C14 C 0.5227(19) 0.119(2) 1.4454(19)
H11 H 0.5351 0.0798 1.5012
C15 C 0.583(2) 0.083(2) 1.376(2)
H12 H 0.6352 0.0197 1.3854
C16 C 0.4596(18) 0.3257(18) 1.0488(17)
H13 H 0.4781 0.2967 1.0039
C17 C 0.4852(17) 0.2631(19) 1.1296(16)
H14 H 0.5207 0.1922 1.1387
C18 C 0.4576(17) 0.3066(19) 1.1967(17)
C19 C 0.4045(17) 0.4127(19) 1.1831(17)
H15 H 0.3861 0.4418 1.2280
C20 C 0.3790(17) 0.4752(18) 1.1023(17)
H16 H 0.3434 0.5462 1.0932
W1A W -0.10986(8) 1.01090(7) 1.21278(6)
W2A W -0.18753(7) 1.22909(7) 1.03441(6)
W3A W -0.08358(7) 1.21786(7) 0.82228(6)
W4A W -0.26352(7) 1.00104(7) 1.08222(6)
W5A W -0.15153(7) 0.98337(6) 0.87127(6)
W6A W -0.07472(7) 0.77017(6) 1.05171(6)
Cu1A Cu -0.3625(2) 1.4873(2) 1.07251(19)
Cu2_2 Cu -0.5000 2.0000 1.0000
N1A N -0.3684(14) 1.4621(14) 1.1924(13)
N2A N -0.483(2) 1.8561(16) 1.0678(17)
N2A_2 N 0.517(2) -0.1439(16) 1.0678(17)
N3A N -0.5640(17) 1.8583(18) 0.7072(16)
N4A N -0.4065(13) 1.5682(14) 0.9648(13)
O1A O -0.111(2) 1.042(2) 1.0634(18)
O2A O -0.027(2) 1.0370(19) 0.8998(17)
O5A O -0.2165(12) 0.9816(11) 1.1841(10)
O6A O -0.1617(12) 1.1533(11) 1.1487(10)
O7A O -0.1821(11) 1.2546(12) 0.9170(10)
O8A O -0.2716(12) 1.1442(11) 1.0476(10)
O9A O -0.1593(11) 1.1276(10) 0.8335(10)
O10A O -0.2578(12) 1.0148(11) 0.9678(10)
O11A O -0.1145(11) 0.8435(11) 0.9410(9)
O12A O -0.1989(12) 0.8532(11) 1.1002(9)
O13A O -0.0359(12) 0.8663(11) 1.2362(11)
O14A O 0.0190(11) 1.0415(11) 1.1969(11)
O15A O -0.0644(11) 1.2692(12) 1.0093(10)
O16A O 0.0174(10) 1.2583(12) 0.8503(9)
O17A O -0.1580(11) 1.0188(11) 1.3099(9)
O18A O -0.2747(11) 1.3387(11) 1.0521(9)
O19A O -0.1199(11) 1.3194(11) 0.7379(9)
O20A O -0.3890(11) 1.0049(11) 1.1190(10)
O21A O -0.2221(12) 0.9771(11) 0.8089(10)
O22A O -0.1082(11) 0.6585(10) 1.0746(9)
C1A C -0.420(2) 1.5424(19) 1.2300(18)
C2A C -0.4407(19) 1.519(2) 1.3194(18)
H1A H -0.4750 1.5727 1.3446
C3A C -0.4105(19) 1.415(2) 1.3711(18)
H2A H -0.4245 1.3999 1.4308
C4A C -0.3592(18) 1.335(2) 1.3334(18)
H3A H -0.3390 1.2660 1.3680
C5A C -0.3381(18) 1.3586(19) 1.2441(17)
H4A H -0.3038 1.3049 1.2189
C6A C -0.381(2) 1.792(2) 1.0649(19)
H5A H -0.3265 1.8194 1.0280
C7A C -0.359(2) 1.688(2) 1.1171(19)
H6A H -0.2902 1.6458 1.1151
C8A C -0.440(2) 1.648(2) 1.1721(18)
C9A C -0.542(2) 1.712(2) 1.1750(19)
H7A H -0.5966 1.6848 1.2119
C10A C -0.564(3) 1.816(2) 1.123(2)
H8A H -0.6329 1.8584 1.1249
C11A C -0.4854(19) 1.7637(19) 0.7212(18)
C12A C -0.4254(18) 1.7277(19) 0.6519(17)
H9A H -0.3728 1.6644 0.6613
C13A C -0.444(2) 1.786(2) 0.569(2)
H10A H -0.4040 1.7622 0.5222
C14A C -0.5227(19) 1.881(2) 0.5546(19)
H11A H -0.5351 1.9202 0.4988
C15A C -0.583(2) 1.917(2) 0.624(2)
H12A H -0.6352 1.9803 0.6146
C16A C -0.4596(18) 1.6743(18) 0.9512(17)
H13A H -0.4781 1.7033 0.9961
C17A C -0.4852(17) 1.7369(19) 0.8704(16)
H14A H -0.5207 1.8078 0.8613
C18A C -0.4576(17) 1.6934(19) 0.8033(17)
C19A C -0.4045(17) 1.5873(19) 0.8169(17)
H15A H -0.3861 1.5582 0.7720
C20A C -0.3790(17) 1.5248(18) 0.8977(17)
H16A H -0.3434 1.4538 0.9068
O3? O 0.0338(19) 0.8709(19) 1.0363(17)
O4? O -0.0893(18) 0.9496(18) 1.0039(16)
loop_
_geom_bond_atom_site_label_1
_geom_bond_atom_site_label_2
_geom_bond_site_symmetry_1
_geom_bond_site_symmetry_2
W1 O1 1_555 1_555
W2 O1 1_555 1_555
W3 O2 1_555 1_555
W4 O1 1_555 1_555
W5 O2 1_555 1_555
W6 O11 1_555 1_555
V1 O1 1_555 1_555
Cu1 N1 1_555 1_555
Cu2 N2 1_555 1_555
Cu3 N6 1_555 1_555
Cu4 N10 1_555 1_555
N1 C1 1_555 1_555
N2 C6 1_555 1_555
N3 C11 1_555 1_555
N4 Cu1 1_555 1_555
N5 C21 1_555 1_555
N6 C26 1_555 1_555
N7 C31 1_555 1_555
N8 Cu3 1_555 1_555
N9 C41 1_555 1_555
N10 C46 1_555 1_555
O2 V1 1_555 1_555
O5 W1 1_555 1_555
O6 W1 1_555 1_555
O7 W2 1_555 1_555
O8 W2 1_555 1_555
O9 W3 1_555 1_555
O10 W4 1_555 1_555
O11 W5 1_555 1_555
O12 W4 1_555 1_555
O13 W1 1_555 1_555
O14 W1 1_555 1_555
O15 W2 1_555 1_555
O16 W3 1_555 1_555
O17 W1 1_555 1_555
O18 W2 1_555 1_555
O19 W3 1_555 1_555
O20 W4 1_555 1_555
O21 W5 1_555 1_555
O22 W6 1_555 1_555
C1 C2 1_555 1_555
C2 H1 1_555 1_555
C3 C2 1_555 1_555
H2 C3 1_555 1_555
C4 C3 1_555 1_555
H3 C4 1_555 1_555
C5 N1 1_555 1_555
H4 C5 1_555 1_555
C6 H5 1_555 1_555
C7 C6 1_555 1_555
H6 C7 1_555 1_555
C8 C1 1_555 1_555
C9 C8 1_555 1_555
H7 C9 1_555 1_555
C10 N2 1_555 1_555
H8 C10 1_555 1_555
C11 C12 1_555 1_555
C12 H9 1_555 1_555
C13 C12 1_555 1_555
H10 C13 1_555 1_555
C14 C13 1_555 1_555
H11 C14 1_555 1_555
C15 N3 1_555 1_555
H12 C15 1_555 1_555
C16 N4 1_555 1_555
H13 C16 1_555 1_555
C17 C16 1_555 1_555
H14 C17 1_555 1_555
C18 C11 1_555 1_555
C19 C18 1_555 1_555
H15 C19 1_555 1_555
C20 N4 1_555 1_555
H16 C20 1_555 1_555
C21 C22 1_555 1_555
C22 H17 1_555 1_555
C23 C22 1_555 1_555
H18 C23 1_555 1_555
C24 C23 1_555 1_555
H19 C24 1_555 1_555
C25 N5 1_555 1_555
H20 C25 1_555 1_555
C26 H21 1_555 1_555
C27 C26 1_555 1_555
H22 C27 1_555 1_555
C28 C21 1_555 1_555
C29 C28 1_555 1_555
H23 C29 1_555 1_555
C30 N6 1_555 1_555
H24 C30 1_555 1_555
C31 C32 1_555 1_555
C32 H25 1_555 1_555
C33 C32 1_555 1_555
H26 C33 1_555 1_555
C34 C33 1_555 1_555
H27 C34 1_555 1_555
C35 N7 1_555 1_555
H28 C35 1_555 1_555
C36 N8 1_555 1_555
H29 C36 1_555 1_555
C37 C36 1_555 1_555
H30 C37 1_555 1_555
C38 C31 1_555 1_555
C39 C38 1_555 1_555
H31 C39 1_555 1_555
C40 N8 1_555 1_555
H32 C40 1_555 1_555
C41 C42 1_555 1_555
C42 H33 1_555 1_555
C43 N9 1_555 1_555
H34 C43 1_555 1_555
C44 C43 1_555 1_555
H35 C44 1_555 1_555
C45 C42 1_555 1_555
H36 C45 1_555 1_555
C46 H37 1_555 1_555
C47 C46 1_555 1_555
H38 C47 1_555 1_555
C48 C41 1_555 1_555
C49 C48 1_555 1_555
H39 C49 1_555 1_555
C50 N10 1_555 1_555
H40 C50 1_555 1_555
W1A O2 1_555 1_555
W2A O1A 1_555 1_555
W3A O13 1_555 1_555
W4A O1A 1_555 1_555
W5A O14 1_555 1_555
W6A O15 1_555 1_555
Cu1A N1A 1_555 1_555
Cu2_2 N2A 1_555 1_555
N1A C1A 1_555 1_555
N2A C6A 1_555 1_555
N2A_2 Cu2 1_555 1_555
N3A C11A 1_555 1_555
N4A Cu1A 1_555 1_555
N9A C41A 1_555 1_555
N10A Cu4 1_555 1_555
O1A V1 1_555 1_555
O2A W1 1_555 1_555
O5A W1A 1_555 1_555
O6A W1A 1_555 1_555
O7A W2A 1_555 1_555
O8A W2A 1_555 1_555
O9A W3A 1_555 1_555
O10A W4A 1_555 1_555
O11A W5A 1_555 1_555
O12A W4A 1_555 1_555
O13A W3 1_555 1_555
O14A W5 1_555 1_555
O15A W6 1_555 1_555
O16A W6 1_555 1_555
O17A W1A 1_555 1_555
O18A W2A 1_555 1_555
O19A W3A 1_555 1_555
O20A W4A 1_555 1_555
O21A W5A 1_555 1_555
O22A W6A 1_555 1_555
C1A C2A 1_555 1_555
C2A H1A 1_555 1_555
C3A C2A 1_555 1_555
H2A C3A 1_555 1_555
C4A C3A 1_555 1_555
H3A C4A 1_555 1_555
C5A N1A 1_555 1_555
H4A C5A 1_555 1_555
C6A H5A 1_555 1_555
C7A C6A 1_555 1_555
H6A C7A 1_555 1_555
C8A C1A 1_555 1_555
C9A C8A 1_555 1_555
H7A C9A 1_555 1_555
C10A N2A 1_555 1_555
H8A C10A 1_555 1_555
C11A C12A 1_555 1_555
C12A H9A 1_555 1_555
C13A C12A 1_555 1_555
H10A C13A 1_555 1_555
C14A C13A 1_555 1_555
H11A C14A 1_555 1_555
C15A N3A 1_555 1_555
H12A C15A 1_555 1_555
C16A N4A 1_555 1_555
H13A C16A 1_555 1_555
C17A C16A 1_555 1_555
H14A C17A 1_555 1_555
C18A C11A 1_555 1_555
C19A C18A 1_555 1_555
H15A C19A 1_555 1_555
C20A N4A 1_555 1_555
H16A C20A 1_555 1_555
C41A C42A 1_555 1_555
C42A H33A 1_555 1_555
C43A N9A 1_555 1_555
H34A C43A 1_555 1_555
C44A C43A 1_555 1_555
H35A C44A 1_555 1_555
C45A C42A 1_555 1_555
H36A C45A 1_555 1_555
C46A N10A 1_555 1_555
H37A C46A 1_555 1_555
C47A C46A 1_555 1_555
H38A C47A 1_555 1_555
C48A C41A 1_555 1_555
C49A C48A 1_555 1_555
H39A C49A 1_555 1_555
C50A N10A 1_555 1_555
H40A C50A 1_555 1_555
W2 O6 1_555 1_555
W3 O7 1_555 1_555
W4 O5 1_555 1_555
W4 O8 1_555 1_555
W5 O9 1_555 1_555
W5 O10 1_555 1_555
W6 O12 1_555 1_555
V1 O2A 1_555 1_555
Cu1 O18 1_555 1_555
O16 W6A 1_555 1_555
C4 C5 1_555 1_555
C7 C8 1_555 1_555
C9 C10 1_555 1_555
C14 C15 1_555 1_555
C17 C18 1_555 1_555
C19 C20 1_555 1_555
C24 C25 1_555 1_555
C27 C28 1_555 1_555
C29 C30 1_555 1_555
C34 C35 1_555 1_555
C37 C38 1_555 1_555
C39 C40 1_555 1_555
C44 C45 1_555 1_555
C47 C48 1_555 1_555
C49 C50 1_555 1_555
W1A O1A 1_555 1_555
W1A O13A 1_555 1_555
W1A O14A 1_555 1_555
W2A O6A 1_555 1_555
W2A O15A 1_555 1_555
W3A O2A 1_555 1_555
W3A O7A 1_555 1_555
W3A O16A 1_555 1_555
W4A O5A 1_555 1_555
W4A O8A 1_555 1_555
W5A O2A 1_555 1_555
W5A O9A 1_555 1_555
W5A O10A 1_555 1_555
W6A O11A 1_555 1_555
W6A O12A 1_555 1_555
Cu1A O18A 1_555 1_555
C4A C5A 1_555 1_555
C7A C8A 1_555 1_555
C9A C10A 1_555 1_555
C14A C15A 1_555 1_555
C17A C18A 1_555 1_555
C19A C20A 1_555 1_555
C44A C45A 1_555 1_555
C47A C48A 1_555 1_555
C49A C50A 1_555 1_555

#END
