
#######################################################################
#
#                 Cambridge Crystallographic Data Centre
#                                CCDC 
#
#######################################################################
#
# If this CIF has been generated from an entry in the Cambridge 
# Structural Database, then it will include bibliographic, chemical, 
# crystal, experimental, refinement or atomic coordinate data resulting 
# from the CCDC's data processing and validation procedures.
#
#######################################################################

data_HUMBIA
_symmetry_cell_setting           triclinic
_symmetry_space_group_name_H-M   'P 1'
_symmetry_Int_Tables_number      1
_space_group_name_Hall           'P 1'
loop_
_symmetry_equiv_pos_site_id
_symmetry_equiv_pos_as_xyz
1 x,y,z
_cell_length_a                   9.8088(3)
_cell_length_b                   10.6080(3)
_cell_length_c                   12.0502(4)
_cell_angle_alpha                93.500(2)
_cell_angle_beta                 110.936(2)
_cell_angle_gamma                114.273(2)
_cell_volume                     1035.21
loop_
_atom_site_label
_atom_site_type_symbol
_atom_site_fract_x
_atom_site_fract_y
_atom_site_fract_z
Cd1 Cd 0.4220 0.0047 0.4997
O1 O 0.2618(3) 0.1236(3) 0.4693(3)
H1 H 0.183(4) 0.109(5) 0.4015(18)
H2 H 0.242(5) 0.149(5) 0.528(2)
O2 O 0.5781(4) -0.1135(3) 0.5175(3)
H3 H 0.547(6) -0.184(3) 0.461(2)
H4 H 0.616(6) -0.131(4) 0.5867(17)
N1 N 0.2218(4) -0.1874(4) 0.5343(3)
N2 N 0.2929(4) -0.0879(4) 1.2850(3)
C1 C 0.0771(5) -0.1917(5) 0.5223(4)
H5 H 0.0402 -0.1343 0.4751
C2 C -0.0189(5) -0.2754(5) 0.5754(4)
H6 H -0.1193 -0.2746 0.5646
C3 C 0.0316(5) -0.3610(4) 0.6448(4)
C4 C 0.1762(5) -0.3598(4) 0.6540(4)
H7 H 0.2140 -0.4182 0.6992
C5 C 0.2664(5) -0.2746(4) 0.5980(4)
H8 H 0.3645 -0.2775 0.6046
C6 C -0.0624(5) -0.4450(5) 0.7136(4)
H9 H -0.0813 -0.5447 0.6957
H10 H -0.1712 -0.4467 0.6844
C7 C 0.0305(5) -0.3813(4) 0.8529(3)
H11 H -0.0346 -0.4414 0.8935
H12 H 0.1371 -0.3840 0.8822
C8 C 0.0633(4) -0.2278(3) 0.8909(3)
H13 H 0.1367 -0.1653 0.8567
H14 H -0.0419 -0.2229 0.8571
C9 C 0.3805(4) -0.0776(4) 1.2201(3)
H15 H 0.4966 -0.0394 1.2630
C10 C 0.3115(4) -0.1197(4) 1.0936(3)
H16 H 0.3795 -0.1102 1.0516
C11 C 0.1424(4) -0.1759(3) 1.0285(3)
C12 C 0.0505(4) -0.1880(3) 1.0949(3)
H17 H -0.0660 -0.2279 1.0539
C13 C 0.1288(4) -0.1417(3) 1.2219(3)
H18 H 0.0639 -0.1483 1.2660
N3 N 0.5398(4) 0.1171(4) 0.7113(3)
N4 N 0.6233(4) 0.1973(4) 1.4660(3)
C14 C 0.5513(4) 0.0513(3) 0.8031(3)
H19 H 0.5270 -0.0460 0.7855
C15 C 0.5967(4) 0.1173(4) 0.9225(3)
H20 H 0.6041 0.0657 0.9843
C16 C 0.6313(3) 0.2585(3) 0.9516(3)
C17 C 0.6242(3) 0.3290(3) 0.8577(3)
H21 H 0.6509 0.4271 0.8737
C18 C 0.5782(3) 0.2558(3) 0.7409(3)
H22 H 0.5734 0.3059 0.6781
C19 C 0.6740(4) 0.3332(4) 1.0786(3)
H23 H 0.6046 0.2663 1.1131
H24 H 0.6487 0.4144 1.0737
C20 C 0.8573(4) 0.3887(5) 1.1654(4)
H25 H 0.8812 0.3069 1.1745
H26 H 0.9269 0.4512 1.1287
C21 C 0.9014(5) 0.4726(5) 1.2926(4)
H27 H 1.0213 0.5122 1.3430
H28 H 0.8760 0.5535 1.2831
C22 C 0.7509(5) 0.1884(5) 1.4567(4)
H29 H 0.7773 0.1169 1.4866
C23 C 0.8463(5) 0.2780(5) 1.4057(4)
H30 H 0.9375 0.2686 1.4034
C24 C 0.8095(5) 0.3819(5) 1.3578(4)
C25 C 0.6814(5) 0.3946(4) 1.3731(4)
H31 H 0.6554 0.4679 1.3473
C26 C 0.5917(5) 0.3013(4) 1.4254(4)
H32 H 0.5034 0.3115 1.4330
N2_2 N 0.2929(4) -0.0879(4) 0.2850(3)
N4_2 N 0.6233(4) 0.1973(4) 0.4660(3)
Cd1_2 Cd 0.4220 0.0047 1.4997
N5 N 0.4421(3) 0.6472(3) 0.3384(3)
N6 N 0.1758(3) 0.2016(3) -0.3557(3)
C27 C 0.4710(4) 0.6321(3) 0.2393(3)
H33 H 0.5405 0.7151 0.2228
C28 C 0.4045(4) 0.5013(3) 0.1594(3)
H34 H 0.4288 0.4961 0.0902
C29 C 0.3024(4) 0.3780(3) 0.1806(3)
C30 C 0.2694(4) 0.3949(4) 0.2810(3)
H35 H 0.1967 0.3144 0.2977
C31 C 0.3424(4) 0.5293(4) 0.3577(3)
H36 H 0.3198 0.5374 0.4274
C32 C 0.2260(4) 0.2321(3) 0.0980(3)
H37 H 0.2371 0.1640 0.1488
H38 H 0.2862 0.2356 0.0466
C33 C 0.0419(4) 0.1787(3) 0.0144(3)
H39 H -0.0064 0.0783 -0.0303
H40 H -0.0167 0.1812 0.0658
C34 C 0.0153(3) 0.2677(3) -0.0779(3)
H41 H -0.1035 0.2411 -0.1177
H42 H 0.0757 0.3697 -0.0341
C35 C 0.0457(5) 0.0981(4) -0.3461(4)
H43 H -0.0114 0.0076 -0.4024
C36 C -0.0087(4) 0.1174(4) -0.2581(3)
H44 H -0.1014 0.0414 -0.2551
C37 C 0.0725(3) 0.2477(3) -0.1749(3)
C38 C 0.2066(4) 0.3542(3) -0.1844(3)
H45 H 0.2657 0.4457 -0.1293
C39 C 0.2539(4) 0.3265(4) -0.2746(3)
H46 H 0.3471 0.4006 -0.2788
N7 N -0.1543(3) -0.0132(3) 0.2509(3)
O3 O -0.0179(3) 0.0847(3) 0.2691(2)
O4 O -0.1587(4) -0.0958(6) 0.3156(5)
O5 O -0.2834(3) -0.0250(3) 0.1696(2)
N8 N -0.3649(4) -0.3129(4) -0.2645(3)
O6 O -0.4231(6) -0.3966(5) -0.3604(4)
O7 O -0.3194(3) -0.1835(3) -0.2541(3)
O8 O -0.3566(5) -0.3593(4) -0.1706(4)
O9 O -0.4988(5) -0.2764(5) -0.0327(4)
H47 H -0.433(4) -0.302(4) -0.050(2)
H48 H -0.434(3) -0.202(3) 0.029(3)
loop_
_geom_bond_atom_site_label_1
_geom_bond_atom_site_label_2
_geom_bond_site_symmetry_1
_geom_bond_site_symmetry_2
Cd1 O1 1_555 1_555
O1 H1 1_555 1_555
H2 O1 1_555 1_555
O2 Cd1 1_555 1_555
H3 O2 1_555 1_555
H4 O2 1_555 1_555
N1 Cd1 1_555 1_555
N2 C9 1_555 1_555
C1 N1 1_555 1_555
H5 C1 1_555 1_555
C2 C1 1_555 1_555
H6 C2 1_555 1_555
C3 C2 1_555 1_555
C4 C3 1_555 1_555
H7 C4 1_555 1_555
C5 N1 1_555 1_555
H8 C5 1_555 1_555
C6 C3 1_555 1_555
H9 C6 1_555 1_555
H10 C6 1_555 1_555
C7 C6 1_555 1_555
H11 C7 1_555 1_555
H12 C7 1_555 1_555
C8 C7 1_555 1_555
H13 C8 1_555 1_555
H14 C8 1_555 1_555
C9 H15 1_555 1_555
C10 C9 1_555 1_555
H16 C10 1_555 1_555
C11 C8 1_555 1_555
C12 C11 1_555 1_555
H17 C12 1_555 1_555
C13 N2 1_555 1_555
H18 C13 1_555 1_555
N3 Cd1 1_555 1_555
N4 C22 1_555 1_555
C14 N3 1_555 1_555
H19 C14 1_555 1_555
C15 C14 1_555 1_555
H20 C15 1_555 1_555
C16 C15 1_555 1_555
C17 C16 1_555 1_555
H21 C17 1_555 1_555
C18 N3 1_555 1_555
H22 C18 1_555 1_555
C19 C16 1_555 1_555
H23 C19 1_555 1_555
H24 C19 1_555 1_555
C20 C19 1_555 1_555
H25 C20 1_555 1_555
H26 C20 1_555 1_555
C21 C20 1_555 1_555
H27 C21 1_555 1_555
H28 C21 1_555 1_555
C22 H29 1_555 1_555
C23 C22 1_555 1_555
H30 C23 1_555 1_555
C24 C21 1_555 1_555
C25 C24 1_555 1_555
H31 C25 1_555 1_555
C26 N4 1_555 1_555
H32 C26 1_555 1_555
N5 C27 1_555 1_555
N6 C35 1_555 1_555
C27 H33 1_555 1_555
C28 C27 1_555 1_555
H34 C28 1_555 1_555
C29 C28 1_555 1_555
C30 C29 1_555 1_555
H35 C30 1_555 1_555
C31 N5 1_555 1_555
H36 C31 1_555 1_555
C32 C29 1_555 1_555
H37 C32 1_555 1_555
H38 C32 1_555 1_555
C33 C32 1_555 1_555
H39 C33 1_555 1_555
H40 C33 1_555 1_555
C34 C33 1_555 1_555
H41 C34 1_555 1_555
H42 C34 1_555 1_555
C35 H43 1_555 1_555
C36 C35 1_555 1_555
H44 C36 1_555 1_555
C37 C34 1_555 1_555
C38 C37 1_555 1_555
H45 C38 1_555 1_555
C39 N6 1_555 1_555
H46 C39 1_555 1_555
N7 O3 1_555 1_555
O4 N7 1_555 1_555
O5 N7 1_555 1_555
N8 O6 1_555 1_555
O7 N8 1_555 1_555
O8 N8 1_555 1_555
O9 H47 1_555 1_555
H48 O9 1_555 1_555
N2_2 Cd1 1_555 1_555
N4_2 Cd1 1_555 1_555
Cd1_2 N2 1_555 1_555
C4 C5 1_555 1_555
C10 C11 1_555 1_555
C12 C13 1_555 1_555
N4 Cd1_2 1_555 1_555
C17 C18 1_555 1_555
C23 C24 1_555 1_555
C25 C26 1_555 1_555
C30 C31 1_555 1_555
C36 C37 1_555 1_555
C38 C39 1_555 1_555

#END
