
#######################################################################
#
#                 Cambridge Crystallographic Data Centre
#                                CCDC 
#
#######################################################################
#
# If this CIF has been generated from an entry in the Cambridge 
# Structural Database, then it will include bibliographic, chemical, 
# crystal, experimental, refinement or atomic coordinate data resulting 
# from the CCDC's data processing and validation procedures.
#
#######################################################################

data_HUMPIP
_symmetry_cell_setting           monoclinic
_symmetry_space_group_name_H-M   'C 2/c'
_symmetry_Int_Tables_number      15
_space_group_name_Hall           '-C 2yn'
loop_
_symmetry_equiv_pos_site_id
_symmetry_equiv_pos_as_xyz
1 x,y,z
2 -x,y,1/2-z
3 1/2+x,1/2+y,z
4 1/2-x,1/2+y,1/2-z
5 -x,-y,-z
6 x,-y,1/2+z
7 1/2-x,1/2-y,-z
8 1/2+x,1/2-y,1/2+z
_cell_length_a                   12.8739(5)
_cell_length_b                   13.9513(3)
_cell_length_c                   7.0192(3)
_cell_angle_alpha                90
_cell_angle_beta                 41.444(3)
_cell_angle_gamma                90
_cell_volume                     834.443
loop_
_atom_site_label
_atom_site_type_symbol
_atom_site_fract_x
_atom_site_fract_y
_atom_site_fract_z
H1 H 0.039(3) 0.1207(18) 0.800(6)
Cl1 Cl 0.39218(5) 0.16829(3) 0.19033(9)
O1 O 0.00000 0.08711(12) 0.75000
O2 O 0.24242(15) 0.05943(8) 0.0772(3)
O3 O 0.36582(15) 0.37353(9) 0.0973(3)
C1 C 0.25170(19) 0.14883(12) 0.0422(3)
C2 C 0.31330(19) 0.21278(12) 0.0889(3)
C3 C 0.31412(19) 0.31216(12) 0.0559(3)
Li1 Li 0.1814(4) 0.0062(2) 0.4162(7)
H1A H -0.039(3) 0.1207(18) 0.700(6)
Cl1F Cl 0.10782(5) 0.33171(3) -0.19033(9)
O2F O 0.25758(15) 0.44057(8) -0.0772(3)
O2E O 0.24242(15) -0.05943(8) 0.5772(3)
O2A O -0.24242(15) 0.05943(8) 1.4228(3)
O2D O -0.24242(15) -0.05943(8) 0.9228(3)
O3F O 0.13418(15) 0.12647(9) -0.0973(3)
O3C O 0.13418(15) -0.12647(9) 0.4027(3)
O3B O -0.13418(15) -0.12647(9) 1.0973(3)
C1F C 0.24830(19) 0.35117(12) -0.0422(3)
C2F C 0.18670(19) 0.28722(12) -0.0889(3)
C3F C 0.18588(19) 0.18784(12) -0.0559(3)
Li1F Li 0.3186(4) 0.4938(2) -0.4162(7)
Li1A Li -0.1814(4) 0.0062(2) 1.0838(7)
Li1E Li 0.1814(4) -0.0062(2) -0.0838(7)
Li1C Li 0.3186(4) 0.5062(2) 0.0838(7)
loop_
_geom_bond_atom_site_label_1
_geom_bond_atom_site_label_2
_geom_bond_site_symmetry_1
_geom_bond_site_symmetry_2
H1 O1 1_555 1_555
Cl1 C2 1_555 1_555
O1 Li1 1_555 1_555
O2 C1 1_555 1_555
O3 C3 1_555 1_555
C1 C2 1_555 1_555
C2 C3 1_555 1_555
C3 C1F 1_555 1_555
Li1 O2 1_555 1_555
H1A O1 1_555 1_555
Cl1F C2F 1_555 1_555
O2F C1F 1_555 1_555
O2E Li1 1_555 1_555
O2A Li1A 1_555 1_555
O2D Li1A 1_555 1_555
O3F C3F 1_555 1_555
O3C Li1 1_555 1_555
O3B Li1A 1_555 1_555
C1F C2F 1_555 1_555
C2F C3F 1_555 1_555
C3F C1 1_555 1_555
Li1F O2F 1_555 1_555
Li1A O1 1_555 1_555
Li1E O2 1_555 1_555
Li1C O3 1_555 1_555
O2F Li1C 1_555 1_555
O3F Li1E 1_555 1_555

#END
