
#######################################################################
#
#                 Cambridge Crystallographic Data Centre
#                                CCDC 
#
#######################################################################
#
# If this CIF has been generated from an entry in the Cambridge 
# Structural Database, then it will include bibliographic, chemical, 
# crystal, experimental, refinement or atomic coordinate data resulting 
# from the CCDC's data processing and validation procedures.
#
#######################################################################

data_HUNFED
_symmetry_cell_setting           monoclinic
_symmetry_space_group_name_H-M   'P 2/n'
_symmetry_Int_Tables_number      13
_space_group_name_Hall           '-P 2yac'
loop_
_symmetry_equiv_pos_site_id
_symmetry_equiv_pos_as_xyz
1 x,y,z
2 1/2-x,y,1/2-z
3 -x,-y,-z
4 1/2+x,-y,1/2+z
_cell_length_a                   12.382(3)
_cell_length_b                   9.697(2)
_cell_length_c                   25.365(6)
_cell_angle_alpha                90
_cell_angle_beta                 92.003(4)
_cell_angle_gamma                90
_cell_volume                     3043.67
loop_
_atom_site_label
_atom_site_type_symbol
_atom_site_fract_x
_atom_site_fract_y
_atom_site_fract_z
Ag1 Ag -0.10681(7) 1.08248(8) 0.98125(3)
Ag2 Ag -0.03613(8) 0.63055(9) 0.46977(3)
V1 V -0.54255(13) 0.35100(16) 0.42939(6)
V2 V -0.30957(14) 0.44313(16) 0.48689(6)
C1 C -0.0306(11) 0.4398(12) 0.3704(5)
H1 H -0.1046 0.4320 0.3746
C2 C 0.0137(10) 0.3644(13) 0.3316(5)
H2 H -0.0297 0.3090 0.3097
C3 C 0.1238(10) 0.3708(10) 0.3251(5)
C4 C 0.1825(11) 0.2847(11) 0.2855(5)
H3 H 0.1303 0.2330 0.2641
H4 H 0.2291 0.2192 0.3042
C5 C 0.1812(9) 0.4553(10) 0.3590(4)
H5 H 0.2558 0.4609 0.3566
C6 C 0.1321(10) 0.5307(10) 0.3961(4)
H6 H 0.1737 0.5891 0.4176
C7 C 0.2500 0.3731(17) 0.2500
H7 H 0.2028 0.4319 0.2285
C8 C -0.1389(10) 0.8161(12) 0.5489(4)
H8 H -0.1992 0.7639 0.5389
C9 C -0.1516(9) 0.9212(12) 0.5836(4)
H9 H -0.2186 0.9362 0.5980
C10 C -0.0647(10) 1.0067(10) 0.5978(4)
C11 C 0.0325(10) 0.9728(11) 0.5775(4)
H10 H 0.0936 1.0247 0.5864
C12 C 0.0401(9) 0.8627(12) 0.5439(4)
H11 H 0.1074 0.8409 0.5310
C13 C -0.0767(11) 1.1277(11) 0.6341(4)
H12 H -0.1445 1.1741 0.6255
H13 H -0.0186 1.1926 0.6285
C14 C -0.0747(10) 1.0857(10) 0.6927(4)
H14 H -0.1349 1.0243 0.6988
H15 H -0.0085 1.0356 0.7011
C15 C -0.0816(11) 1.2076(10) 0.7288(4)
H16 H -0.1468 1.2586 0.7193
H17 H -0.0207 1.2677 0.7226
C16 C -0.0826(9) 1.1758(10) 0.7871(4)
C17 C -0.0776(9) 1.0446(10) 0.8068(4)
H18 H -0.0724 0.9697 0.7841
C18 C -0.0804(8) 1.0239(10) 0.8611(4)
H19 H -0.0753 0.9341 0.8738
C19 C -0.0946(9) 1.2528(10) 0.8772(4)
H20 H -0.1006 1.3255 0.9008
C20 C -0.0909(9) 1.2818(10) 0.8244(4)
H21 H -0.0940 1.3730 0.8132
C21 C -0.1723(9) 0.8534(11) 1.0602(4)
H22 H -0.1599 0.7980 1.0311
C22 C -0.1986(9) 0.7913(11) 1.1065(4)
H23 H -0.2064 0.6960 1.1078
C23 C -0.2138(9) 0.8697(11) 1.1514(4)
C24 C -0.1792(8) 1.0681(11) 1.0973(4)
H24 H -0.1726 1.1633 1.0945
C25 C -0.2048(9) 1.0115(11) 1.1452(4)
H25 H -0.2162 1.0692 1.1738
C26 C -0.2353(11) 0.7965(11) 1.2021(4)
H26 H -0.1757 0.7340 1.2100
H27 H -0.2999 0.7409 1.1969
C27 C -0.2500 0.8896(15) 1.2500
H28 H -0.3129 0.9481 1.2443
N1 N 0.0241(8) 0.5239(9) 0.4028(3)
N2 N -0.0456(7) 0.7845(9) 0.5288(3)
N3 N -0.0901(7) 1.1257(8) 0.8959(3)
N4 N -0.1636(7) 0.9897(9) 1.0550(3)
O1 O -0.5419(6) 0.2024(7) 0.4575(3)
O2 O -0.5727(6) 0.3325(7) 0.3676(3)
O3 O -0.6339(6) 0.4661(8) 0.4599(3)
O4 O -0.4078(6) 0.4226(8) 0.4327(3)
O5 O -0.2663(6) 0.2969(7) 0.5071(3)
O6 O -0.2114(7) 0.5310(9) 0.4644(3)
H7A H 0.2972 0.4319 0.2715
H28A H -0.1871 0.9481 1.2557
C1A C 0.5306(11) 0.4398(12) 0.1296(5)
H1A H 0.6046 0.4320 0.1254
C2A C 0.4863(10) 0.3644(13) 0.1684(5)
H2A H 0.5297 0.3090 0.1903
C3A C 0.3762(10) 0.3708(10) 0.1749(5)
C4A C 0.3175(11) 0.2847(11) 0.2145(5)
H3A H 0.3697 0.2330 0.2359
H4A H 0.2709 0.2192 0.1958
C5A C 0.3188(9) 0.4553(10) 0.1410(4)
H5A H 0.2442 0.4609 0.1434
C6A C 0.3679(10) 0.5307(10) 0.1039(4)
H6A H 0.3263 0.5891 0.0824
N1A N 0.4759(8) 0.5239(9) 0.0972(3)
C21A C -0.3277(9) 0.8534(11) 1.4398(4)
H22A H -0.3401 0.7980 1.4689
C22A C -0.3014(9) 0.7913(11) 1.3935(4)
H23A H -0.2936 0.6960 1.3922
C23A C -0.2862(9) 0.8697(11) 1.3486(4)
C24A C -0.3208(8) 1.0681(11) 1.4027(4)
H24A H -0.3274 1.1633 1.4055
C25A C -0.2952(9) 1.0115(11) 1.3548(4)
H25A H -0.2838 1.0692 1.3262
C26A C -0.2647(11) 0.7965(11) 1.2979(4)
H26A H -0.3243 0.7340 1.2900
H27A H -0.2001 0.7409 1.3031
N4A N -0.3364(7) 0.9897(9) 1.4450(3)
Ag1A Ag -0.39319(7) 1.08248(8) 1.51875(3)
Ag2A Ag -0.46387(8) 0.63055(9) 2.03023(3)
V1A V 0.04255(13) 0.35100(16) 2.07061(6)
V2A V -0.19043(14) 0.44313(16) 2.01311(6)
C8A C -0.3611(10) 0.8161(12) 1.9511(4)
H8A H -0.3008 0.7639 1.9611
C9A C -0.3484(9) 0.9212(12) 1.9164(4)
H9A H -0.2814 0.9362 1.9020
C10A C -0.4353(10) 1.0067(10) 1.9022(4)
C11A C -0.5325(10) 0.9728(11) 1.9225(4)
H10A H -0.5936 1.0247 1.9136
C12A C -0.5401(9) 0.8627(12) 1.9561(4)
H11A H -0.6074 0.8409 1.9690
C13A C -0.4233(11) 1.1277(11) 1.8659(4)
H12A H -0.3555 1.1741 1.8745
H13A H -0.4814 1.1926 1.8715
C14A C -0.4253(10) 1.0857(10) 1.8073(4)
H14A H -0.3651 1.0243 1.8012
H15A H -0.4915 1.0356 1.7989
C15A C -0.4184(11) 1.2076(10) 1.7712(4)
H16A H -0.3532 1.2586 1.7807
H17A H -0.4793 1.2677 1.7774
C16A C -0.4174(9) 1.1758(10) 1.7129(4)
C17A C -0.4224(9) 1.0446(10) 1.6932(4)
H18A H -0.4276 0.9697 1.7159
C18A C -0.4196(8) 1.0239(10) 1.6389(4)
H19A H -0.4247 0.9341 1.6262
C19A C -0.4054(9) 1.2528(10) 1.6228(4)
H20A H -0.3994 1.3255 1.5992
C20A C -0.4091(9) 1.2818(10) 1.6756(4)
H21A H -0.4060 1.3730 1.6868
N2A N -0.4544(7) 0.7845(9) 1.9712(3)
N3A N -0.4099(7) 1.1257(8) 1.6041(3)
O1A O 0.0419(6) 0.2024(7) 2.0425(3)
O2A O 0.0727(6) 0.3325(7) 2.1324(3)
O3A O 0.1339(6) 0.4661(8) 2.0401(3)
O4A O -0.0922(6) 0.4226(8) 2.0673(3)
O5A O -0.2337(6) 0.2969(7) 1.9929(3)
O6A O -0.2886(7) 0.5310(9) 2.0356(3)
Ag1_2 Ag -0.10681(7) 0.08248(8) 1.98125(3)
Ag1A_2 Ag -0.39319(7) 0.08248(8) 0.51875(3)
Ag1B Ag 0.10681(7) 0.91752(8) 1.01875(3)
Ag1C Ag -0.60681(7) 0.91752(8) 1.48125(3)
Ag2A_2 Ag 0.53613(8) 0.63055(9) 0.03023(3)
Ag2B Ag 0.03613(8) 0.36945(9) 0.53023(3)
Ag2C Ag -0.53613(8) 0.36945(9) 1.96977(3)
V2B V -0.69043(14) 0.55687(16) 0.51311(6)
V2C V 0.19043(14) 0.55687(16) 1.98689(6)
N1A_2 N -0.5241(8) 0.5239(9) 2.0972(3)
O1_2 O -0.5419(6) 1.2024(7) 1.4575(3)
O1A_2 O 0.0419(6) 1.2024(7) 1.0425(3)
O3B O -0.3661(6) 0.5339(8) 0.5401(3)
O3C O -0.1339(6) 0.5339(8) 1.9599(3)
O5_2 O -0.2663(6) 1.2969(7) 1.5071(3)
O5A_2 O -0.2337(6) 1.2969(7) 0.9929(3)
O7 O 0.7500 0.2696(18) 0.2500
O8 O 0.6347(14) 0.4219(14) 0.3226(5)
H29? H 0.2028 0.4319 0.2285
H30? H -0.3129 0.9481 1.2443
loop_
_geom_bond_atom_site_label_1
_geom_bond_atom_site_label_2
_geom_bond_site_symmetry_1
_geom_bond_site_symmetry_2
Ag1 N3 1_555 1_555
Ag2 N1 1_555 1_555
V1 O1 1_555 1_555
V2 O4 1_555 1_555
C1 H1 1_555 1_555
C2 C1 1_555 1_555
H2 C2 1_555 1_555
C3 C2 1_555 1_555
C4 C3 1_555 1_555
H3 C4 1_555 1_555
H4 C4 1_555 1_555
C5 C3 1_555 1_555
H5 C5 1_555 1_555
C6 C5 1_555 1_555
H6 C6 1_555 1_555
C7 C4 1_555 1_555
H7 C7 1_555 1_555
C8 H8 1_555 1_555
C9 C8 1_555 1_555
H9 C9 1_555 1_555
C10 C9 1_555 1_555
C11 C10 1_555 1_555
H10 C11 1_555 1_555
C12 C11 1_555 1_555
H11 C12 1_555 1_555
C13 C10 1_555 1_555
H12 C13 1_555 1_555
H13 C13 1_555 1_555
C14 C13 1_555 1_555
H14 C14 1_555 1_555
H15 C14 1_555 1_555
C15 C14 1_555 1_555
H16 C15 1_555 1_555
H17 C15 1_555 1_555
C16 C15 1_555 1_555
C17 C16 1_555 1_555
H18 C17 1_555 1_555
C18 C17 1_555 1_555
H19 C18 1_555 1_555
C19 H20 1_555 1_555
C20 C16 1_555 1_555
H21 C20 1_555 1_555
C21 H22 1_555 1_555
C22 C21 1_555 1_555
H23 C22 1_555 1_555
C23 C22 1_555 1_555
C24 H24 1_555 1_555
C25 C23 1_555 1_555
H25 C25 1_555 1_555
C26 C23 1_555 1_555
H26 C26 1_555 1_555
H27 C26 1_555 1_555
C27 C26 1_555 1_555
H28 C27 1_555 1_555
N1 C1 1_555 1_555
N2 Ag2 1_555 1_555
N3 C18 1_555 1_555
N4 Ag1 1_555 1_555
O1 Ag1A_2 1_555 1_555
O2 V1 1_555 1_555
O3 V1 1_555 1_555
O4 V1 1_555 1_555
O5 V2 1_555 1_555
O6 Ag2 1_555 1_555
H7A C7 1_555 1_555
H28A C27 1_555 1_555
C1A H1A 1_555 1_555
C2A C1A 1_555 1_555
H2A C2A 1_555 1_555
C3A C2A 1_555 1_555
C4A C7 1_555 1_555
H3A C4A 1_555 1_555
H4A C4A 1_555 1_555
C5A C3A 1_555 1_555
H5A C5A 1_555 1_555
C6A C5A 1_555 1_555
H6A C6A 1_555 1_555
N1A C1A 1_555 1_555
C21A H22A 1_555 1_555
C22A C21A 1_555 1_555
H23A C22A 1_555 1_555
C23A C22A 1_555 1_555
C24A H24A 1_555 1_555
C25A C23A 1_555 1_555
H25A C25A 1_555 1_555
C26A C27 1_555 1_555
H26A C26A 1_555 1_555
H27A C26A 1_555 1_555
N4A C21A 1_555 1_555
Ag1A N4A 1_555 1_555
Ag2A N2A 1_555 1_555
V1A O1A 1_555 1_555
V2A O4A 1_555 1_555
C8A H8A 1_555 1_555
C9A C8A 1_555 1_555
H9A C9A 1_555 1_555
C10A C9A 1_555 1_555
C11A C10A 1_555 1_555
H10A C11A 1_555 1_555
C12A C11A 1_555 1_555
H11A C12A 1_555 1_555
C13A C10A 1_555 1_555
H12A C13A 1_555 1_555
H13A C13A 1_555 1_555
C14A C13A 1_555 1_555
H14A C14A 1_555 1_555
H15A C14A 1_555 1_555
C15A C14A 1_555 1_555
H16A C15A 1_555 1_555
H17A C15A 1_555 1_555
C16A C15A 1_555 1_555
C17A C16A 1_555 1_555
H18A C17A 1_555 1_555
C18A C17A 1_555 1_555
H19A C18A 1_555 1_555
C19A H20A 1_555 1_555
C20A C16A 1_555 1_555
H21A C20A 1_555 1_555
N2A C8A 1_555 1_555
N3A Ag1A 1_555 1_555
O1A Ag1_2 1_555 1_555
O2A V1A 1_555 1_555
O3A V1A 1_555 1_555
O4A V1A 1_555 1_555
O5A V2A 1_555 1_555
O6A Ag2A 1_555 1_555
Ag1_2 O5A 1_555 1_555
Ag1A_2 O5 1_555 1_555
Ag1B Ag1 1_555 1_555
Ag1C Ag1A 1_555 1_555
Ag2A_2 N1A 1_555 1_555
Ag2B Ag2 1_555 1_555
Ag2C Ag2A 1_555 1_555
V2B O3 1_555 1_555
V2C O3A 1_555 1_555
N1A_2 Ag2A 1_555 1_555
O1_2 Ag1A 1_555 1_555
O1A_2 Ag1 1_555 1_555
O3B V2 1_555 1_555
O3C V2A 1_555 1_555
O5_2 Ag1A 1_555 1_555
O5A_2 Ag1 1_555 1_555
V2 O6 1_555 1_555
C6 N1 1_555 1_555
C8 N2 1_555 1_555
C12 N2 1_555 1_555
C19 C20 1_555 1_555
C19 N3 1_555 1_555
C21 N4 1_555 1_555
C24 C25 1_555 1_555
C24 N4 1_555 1_555
C3A C4A 1_555 1_555
C6A N1A 1_555 1_555
C23A C26A 1_555 1_555
C24A C25A 1_555 1_555
C24A N4A 1_555 1_555
V2A O6A 1_555 1_555
C12A N2A 1_555 1_555
C18A N3A 1_555 1_555
C19A C20A 1_555 1_555
C19A N3A 1_555 1_555

#END
