
#######################################################################
#
#                 Cambridge Crystallographic Data Centre
#                                CCDC 
#
#######################################################################
#
# If this CIF has been generated from an entry in the Cambridge 
# Structural Database, then it will include bibliographic, chemical, 
# crystal, experimental, refinement or atomic coordinate data resulting 
# from the CCDC's data processing and validation procedures.
#
#######################################################################

data_HUPCIG
_symmetry_cell_setting           monoclinic
_symmetry_space_group_name_H-M   'P 21/n'
_symmetry_Int_Tables_number      14
_space_group_name_Hall           '-P 2yn'
loop_
_symmetry_equiv_pos_site_id
_symmetry_equiv_pos_as_xyz
1 x,y,z
2 1/2-x,1/2+y,1/2-z
3 -x,-y,-z
4 1/2+x,1/2-y,1/2+z
_cell_length_a                   7.1244(3)
_cell_length_b                   13.0983(5)
_cell_length_c                   12.7399(5)
_cell_angle_alpha                90
_cell_angle_beta                 90.137(2)
_cell_angle_gamma                90
_cell_volume                     1188.85
loop_
_atom_site_label
_atom_site_type_symbol
_atom_site_fract_x
_atom_site_fract_y
_atom_site_fract_z
C1 C 0.3113(3) 0.02708(19) -0.59835(18)
H1 H 0.3537(3) 0.06089(19) -0.65794(18)
C2 C 0.2854(3) 0.07752(17) -0.50369(17)
C3 C 0.2261(3) 0.02617(17) -0.41368(17)
C4 C 0.1437(3) 0.0890(2) -0.22805(17)
H2 H 0.0425(3) 0.0395(2) -0.22869(17)
H3 H 0.0911(3) 0.1540(2) -0.20627(17)
C5 C 0.2086(3) -0.12721(19) -0.5090(2)
H4 H 0.1812(3) -0.19652(19) -0.5132(2)
C6 C 0.2634(3) 0.18896(17) -0.37486(17)
H5 H 0.2664(3) 0.25002(17) -0.33764(17)
C7 C 0.2707(4) -0.0762(2) -0.5993(2)
H6 H 0.2848(4) -0.1127(2) -0.6614(2)
C8 C 0.3561(3) 0.26502(16) -0.54400(17)
H7 H 0.3584(3) 0.24162(16) -0.61622(17)
H8 H 0.4811(3) 0.28873(16) -0.52612(17)
C9 C 0.2887(3) 0.05593(17) -0.14722(18)
C10 C 0.1869(3) -0.07779(19) -0.4142(2)
H9 H 0.1482(3) -0.11206(19) -0.3541(2)
C11 C 0.2188(3) 0.35365(17) -0.53465(17)
N1 N 0.3068(3) 0.17961(14) -0.47573(14)
N2 N 0.2154(3) 0.09972(15) -0.33449(14)
N3 N -0.3673(3) 0.32309(16) -0.29722(16)
O1 O 0.4222(2) 0.00098(14) -0.17650(13)
O2 O 0.0852(2) 0.34508(13) -0.47083(14)
O3 O 0.2562(3) 0.42919(13) -0.59092(14)
O4 O 0.2536(2) 0.08602(15) -0.05564(13)
O5 O -0.4258(3) 0.26164(16) -0.22943(15)
O6 O -0.4823(3) 0.37666(17) -0.34588(19)
O7 O -0.1958(3) 0.33002(17) -0.31413(17)
Cu1 Cu -0.10268(4) 0.448061(19) -0.428802(19)
O1A O 0.0778(2) 0.50098(14) -0.32350(13)
O3B O -0.2562(3) 0.57081(13) -0.40908(14)
O4C O -0.2464(2) 0.41398(15) -0.55564(13)
Cu1A Cu 0.60268(4) -0.051939(19) -0.071198(19)
Cu1B Cu 0.10268(4) 0.551939(19) -0.571198(19)
Cu1C Cu 0.39732(4) 0.051939(19) 0.071198(19)
loop_
_geom_bond_atom_site_label_1
_geom_bond_atom_site_label_2
_geom_bond_site_symmetry_1
_geom_bond_site_symmetry_2
C1 H1 1_555 1_555
C2 C1 1_555 1_555
C3 C2 1_555 1_555
C4 H2 1_555 1_555
H3 C4 1_555 1_555
C5 H4 1_555 1_555
C6 H5 1_555 1_555
C7 C1 1_555 1_555
H6 C7 1_555 1_555
C8 H7 1_555 1_555
H8 C8 1_555 1_555
C9 C4 1_555 1_555
C10 C3 1_555 1_555
H9 C10 1_555 1_555
C11 C8 1_555 1_555
N1 C2 1_555 1_555
N2 C3 1_555 1_555
N3 O5 1_555 1_555
O1 C9 1_555 1_555
O2 C11 1_555 1_555
O3 C11 1_555 1_555
O4 C9 1_555 1_555
O6 N3 1_555 1_555
O7 N3 1_555 1_555
Cu1 O2 1_555 1_555
O1A Cu1 1_555 1_555
O3B Cu1 1_555 1_555
O4C Cu1 1_555 1_555
Cu1A O1 1_555 1_555
Cu1B O3 1_555 1_555
Cu1C O4 1_555 1_555
C4 N2 1_555 1_555
C5 C7 1_555 1_555
C5 C10 1_555 1_555
C6 N1 1_555 1_555
C6 N2 1_555 1_555
C8 N1 1_555 1_555
O7 Cu1 1_555 1_555
Cu1 Cu1B 1_555 1_555
Cu1A Cu1C 1_555 1_555

#END
