
#######################################################################
#
#                 Cambridge Crystallographic Data Centre
#                                CCDC 
#
#######################################################################
#
# If this CIF has been generated from an entry in the Cambridge 
# Structural Database, then it will include bibliographic, chemical, 
# crystal, experimental, refinement or atomic coordinate data resulting 
# from the CCDC's data processing and validation procedures.
#
#######################################################################

data_HUPNEN
_symmetry_cell_setting           orthorhombic
_symmetry_space_group_name_H-M   'C m c 21'
_symmetry_Int_Tables_number      36
_space_group_name_Hall           'C 2n -2'
loop_
_symmetry_equiv_pos_site_id
_symmetry_equiv_pos_as_xyz
1 x,y,z
2 -x,y,z
3 -x,-y,1/2+z
4 x,-y,1/2+z
5 1/2+x,1/2+y,z
6 1/2-x,1/2+y,z
7 1/2-x,1/2-y,1/2+z
8 1/2+x,1/2-y,1/2+z
_cell_length_a                   25.531(2)
_cell_length_b                   9.5351(8)
_cell_length_c                   6.9330(4)
_cell_angle_alpha                90
_cell_angle_beta                 90
_cell_angle_gamma                90
_cell_volume                     1687.77
loop_
_atom_site_label
_atom_site_type_symbol
_atom_site_fract_x
_atom_site_fract_y
_atom_site_fract_z
Ca1 Ca 0.5000 0.05825(7) 0.36175(11)
O1 O 0.44205(8) 0.06089(19) 0.0668(3)
O2 O 0.43213(9) 0.2334(2) 0.2748(4)
O3 O 0.5000 0.1724(3) 0.6855(5)
C1 C 0.41769(12) 0.1682(3) 0.1275(5)
C2 C 0.37045(12) 0.2146(3) 0.0171(5)
C3 C 0.35274(13) 0.1367(4) -0.1381(7)
H1 H 0.3695 0.0533 -0.1704
C4 C 0.31036(16) 0.1818(5) -0.2452(8)
H2 H 0.2988 0.1289 -0.3495
C5 C 0.28529(14) 0.3044(4) -0.1984(7)
H3 H 0.2567 0.3340 -0.2707
C6 C 0.30222(15) 0.3831(4) -0.0461(7)
H4 H 0.2855 0.4669 -0.0160
C7 C 0.34453(12) 0.3375(3) 0.0639(6)
H5 H 0.3555 0.3900 0.1695
C8 C 0.44725(16) 0.4090(3) 0.6588(6)
H6 H 0.4146 0.3721 0.7051
H7 H 0.4493 0.3964 0.5217
H8 H 0.4494 0.5071 0.6889
S1 S 0.5000 0.31863(10) 0.77164(16)
C8A C 0.55275(16) 0.4090(3) 0.6588(6)
H6A H 0.5854 0.3721 0.7051
H7A H 0.5507 0.3964 0.5217
H8A H 0.5506 0.5071 0.6889
O1A O 0.55795(8) 0.06089(19) 0.0668(3)
O2A O 0.56787(9) 0.2334(2) 0.2748(4)
C1A C 0.58231(12) 0.1682(3) 0.1275(5)
C2A C 0.62955(12) 0.2146(3) 0.0171(5)
C3A C 0.64726(13) 0.1367(4) -0.1381(7)
H1A H 0.6305 0.0533 -0.1704
C4A C 0.68964(16) 0.1818(5) -0.2452(8)
H2A H 0.7012 0.1289 -0.3495
C5A C 0.71471(14) 0.3044(4) -0.1984(7)
H3A H 0.7433 0.3340 -0.2707
C6A C 0.69778(15) 0.3831(4) -0.0461(7)
H4A H 0.7145 0.4669 -0.0160
C7A C 0.65547(12) 0.3375(3) 0.0639(6)
H5A H 0.6445 0.3900 0.1695
Ca1B Ca 0.5000 -0.05825(7) -0.13825(11)
Ca1B_2 Ca 0.5000 -0.05825(7) 0.86175(11)
O1B O 0.55795(8) -0.06089(19) 0.5668(3)
O1C O 0.44205(8) -0.06089(19) 0.5668(3)
O3B O 0.5000 -0.1724(3) 0.1855(5)
loop_
_geom_bond_atom_site_label_1
_geom_bond_atom_site_label_2
_geom_bond_site_symmetry_1
_geom_bond_site_symmetry_2
Ca1 O1 1_555 1_555
O1 C1 1_555 1_555
O2 Ca1 1_555 1_555
O3 Ca1 1_555 1_555
C1 O2 1_555 1_555
C2 C1 1_555 1_555
C3 C2 1_555 1_555
H1 C3 1_555 1_555
C4 C3 1_555 1_555
H2 C4 1_555 1_555
C5 C4 1_555 1_555
H3 C5 1_555 1_555
C6 C5 1_555 1_555
H4 C6 1_555 1_555
C7 C2 1_555 1_555
H5 C7 1_555 1_555
C8 H6 1_555 1_555
H7 C8 1_555 1_555
H8 C8 1_555 1_555
S1 O3 1_555 1_555
C8A S1 1_555 1_555
H6A C8A 1_555 1_555
H7A C8A 1_555 1_555
H8A C8A 1_555 1_555
O1A Ca1 1_555 1_555
O2A Ca1 1_555 1_555
C1A O1A 1_555 1_555
C2A C1A 1_555 1_555
C3A C2A 1_555 1_555
H1A C3A 1_555 1_555
C4A C3A 1_555 1_555
H2A C4A 1_555 1_555
C5A C4A 1_555 1_555
H3A C5A 1_555 1_555
C6A C5A 1_555 1_555
H4A C6A 1_555 1_555
C7A C2A 1_555 1_555
H5A C7A 1_555 1_555
Ca1B O1 1_555 1_555
Ca1B_2 O3 1_555 1_555
O1B Ca1 1_555 1_555
O1C Ca1 1_555 1_555
O3B Ca1 1_555 1_555
C6 C7 1_555 1_555
C8 S1 1_555 1_555
O1A Ca1B 1_555 1_555
O2A C1A 1_555 1_555
C6A C7A 1_555 1_555
Ca1B O3B 1_555 1_555
Ca1B_2 O1B 1_555 1_555
Ca1B_2 O1C 1_555 1_555

#END
