
#######################################################################
#
#                 Cambridge Crystallographic Data Centre
#                                CCDC 
#
#######################################################################
#
# If this CIF has been generated from an entry in the Cambridge 
# Structural Database, then it will include bibliographic, chemical, 
# crystal, experimental, refinement or atomic coordinate data resulting 
# from the CCDC's data processing and validation procedures.
#
#######################################################################

data_HUPRAM
_symmetry_cell_setting           monoclinic
_symmetry_space_group_name_H-M   'P 21/c'
_symmetry_Int_Tables_number      14
_space_group_name_Hall           '-P 2ybc'
loop_
_symmetry_equiv_pos_site_id
_symmetry_equiv_pos_as_xyz
1 x,y,z
2 -x,1/2+y,1/2-z
3 -x,-y,-z
4 x,1/2-y,1/2+z
_cell_length_a                   18.5011(2)
_cell_length_b                   8.9487(1)
_cell_length_c                   20.1879(2)
_cell_angle_alpha                90
_cell_angle_beta                 104.0489(8)
_cell_angle_gamma                90
_cell_volume                     3242.35
loop_
_atom_site_label
_atom_site_type_symbol
_atom_site_fract_x
_atom_site_fract_y
_atom_site_fract_z
Sn1 Sn 0.117770(10) 0.47473(2) -0.139081(8)
O1 O 0.11200(11) 0.6365(2) -0.06283(9)
O2 O 0.20678(12) 0.7597(2) -0.08768(10)
O3 O 0.11214(12) 1.2100(2) 0.26532(9)
N1 N 0.12251(13) 1.1917(3) 0.13665(11)
H1 H 0.112(2) 1.156(5) 0.1696(19)
C1 C 0.15794(15) 0.7479(3) -0.05631(12)
C2 C 0.14712(14) 0.8680(3) -0.00758(12)
C3 C 0.19580(15) 0.9892(3) 0.00608(13)
H2 H 0.2348 0.9968 -0.0169
C4 C 0.18846(15) 1.0987(3) 0.05239(13)
H3 H 0.2228 1.1795 0.0617
C5 C 0.13044(15) 1.0902(3) 0.08536(12)
C6 C 0.08088(15) 0.9710(3) 0.07137(13)
H4 H 0.0409 0.9651 0.0931
C7 C 0.08971(15) 0.8602(3) 0.02556(13)
H5 H 0.0561 0.7783 0.0169
C8 C 0.1428(2) 1.4249(4) 0.07962(17)
H6 H 0.1948 1.4155 0.0770
H7 H 0.1309 1.5306 0.0841
H8 H 0.1100 1.3840 0.0380
C9 C 0.13155(15) 1.3404(3) 0.14021(13)
C10 C 0.12775(16) 1.4170(3) 0.19871(14)
H9 H 0.1303 1.5230 0.1978
C11 C 0.12036(15) 1.3489(3) 0.25972(14)
C12 C 0.1223(2) 1.4485(3) 0.32037(16)
H10 H 0.0734 1.4473 0.3312
H11 H 0.1344 1.5508 0.3096
H12 H 0.1602 1.4121 0.3598
C13 C 0.03284(17) 0.3486(4) -0.11081(15)
H13 H 0.0555 0.2688 -0.0793
H14 H 0.0001 0.3046 -0.1517
H15 H 0.0036 0.4141 -0.0883
C14 C 0.22888(17) 0.3990(4) -0.10157(18)
H16 H 0.2531 0.3902 -0.1395
H17 H 0.2285 0.3011 -0.0798
H18 H 0.2564 0.4705 -0.0680
C15 C 0.08615(18) 0.6198(3) -0.22402(14)
H19 H 0.1308 0.6578 -0.2363
H20 H 0.0576 0.7037 -0.2123
H21 H 0.0554 0.5651 -0.2628
Sn1C Sn 0.117770(10) 1.02527(2) 0.360919(8)
O3C O 0.11214(12) 0.2900(2) -0.23468(9)
Sn2 Sn 0.372157(10) -0.05401(2) 0.191137(8)
O4 O 0.38553(11) 0.0976(2) 0.27508(9)
O5 O 0.30090(11) 0.2411(2) 0.20576(9)
O6 O 0.36341(13) 0.7182(2) 0.59237(9)
N2 N 0.38657(13) 0.6576(2) 0.47195(11)
H22 H 0.379(2) 0.616(5) 0.5038(19)
C16 C 0.34582(14) 0.2185(3) 0.26065(13)
C17 C 0.35809(14) 0.3335(3) 0.31683(12)
C18 C 0.40724(15) 0.3090(3) 0.37994(13)
H23 H 0.4345 0.2182 0.3883
C19 C 0.41648(15) 0.4170(3) 0.43072(13)
H24 H 0.4496 0.3994 0.4739
C20 C 0.37755(15) 0.5504(3) 0.41855(12)
C21 C 0.32798(16) 0.5756(3) 0.35558(13)
H25 H 0.3007 0.6664 0.3472
C22 C 0.31886(15) 0.4668(3) 0.30527(13)
H26 H 0.2852 0.4839 0.2623
C23 C 0.4173(2) 0.8659(4) 0.40538(17)
H27 H 0.4428 0.7884 0.3853
H28 H 0.4505 0.9519 0.4184
H29 H 0.3722 0.8974 0.3719
C24 C 0.39664(16) 0.8047(3) 0.46742(13)
C25 C 0.39221(17) 0.9005(3) 0.52031(13)
H30 H 0.4029 1.0033 0.5158
C26 C 0.37287(17) 0.8539(3) 0.58010(13)
C27 C 0.3625(3) 0.9692(4) 0.63078(19)
H31 H 0.3188 0.9438 0.6478
H32 H 0.3552 1.0674 0.6087
H33 H 0.4068 0.9718 0.6690
C28 C 0.46241(17) -0.1891(4) 0.24442(15)
H34 H 0.4430 -0.2739 0.2654
H35 H 0.4954 -0.1294 0.2800
H36 H 0.4904 -0.2260 0.2123
C29 C 0.40193(17) 0.0937(3) 0.11965(14)
H37 H 0.3596 0.1055 0.0800
H38 H 0.4445 0.0524 0.1048
H39 H 0.4155 0.1912 0.1412
C30 C 0.26490(16) -0.1312(3) 0.19487(15)
H40 H 0.2386 -0.0523 0.2133
H41 H 0.2699 -0.2195 0.2243
H42 H 0.2366 -0.1574 0.1487
Sn2C Sn 0.372157(10) 0.55401(2) 0.691137(8)
O6C O 0.36341(13) -0.2182(2) 0.09237(9)
loop_
_geom_bond_atom_site_label_1
_geom_bond_atom_site_label_2
_geom_bond_site_symmetry_1
_geom_bond_site_symmetry_2
Sn1 O1 1_555 1_555
O1 C1 1_555 1_555
O2 C1 1_555 1_555
O3 C11 1_555 1_555
N1 H1 1_555 1_555
C1 C2 1_555 1_555
C2 C3 1_555 1_555
C3 H2 1_555 1_555
C4 C3 1_555 1_555
H3 C4 1_555 1_555
C5 N1 1_555 1_555
C6 C5 1_555 1_555
H4 C6 1_555 1_555
C7 C2 1_555 1_555
H5 C7 1_555 1_555
C8 H6 1_555 1_555
H7 C8 1_555 1_555
H8 C8 1_555 1_555
C9 N1 1_555 1_555
C10 C9 1_555 1_555
H9 C10 1_555 1_555
C11 C10 1_555 1_555
C12 C11 1_555 1_555
H10 C12 1_555 1_555
H11 C12 1_555 1_555
H12 C12 1_555 1_555
C13 Sn1 1_555 1_555
H13 C13 1_555 1_555
H14 C13 1_555 1_555
H15 C13 1_555 1_555
C14 Sn1 1_555 1_555
H16 C14 1_555 1_555
H17 C14 1_555 1_555
H18 C14 1_555 1_555
C15 Sn1 1_555 1_555
H19 C15 1_555 1_555
H20 C15 1_555 1_555
H21 C15 1_555 1_555
Sn2 O4 1_555 1_555
O4 C16 1_555 1_555
O5 C16 1_555 1_555
O6 C26 1_555 1_555
N2 H22 1_555 1_555
C16 C17 1_555 1_555
C17 C18 1_555 1_555
C18 H23 1_555 1_555
C19 C18 1_555 1_555
H24 C19 1_555 1_555
C20 N2 1_555 1_555
C21 C20 1_555 1_555
H25 C21 1_555 1_555
C22 C17 1_555 1_555
H26 C22 1_555 1_555
C23 H27 1_555 1_555
H28 C23 1_555 1_555
H29 C23 1_555 1_555
C24 N2 1_555 1_555
C25 C24 1_555 1_555
H30 C25 1_555 1_555
C26 C25 1_555 1_555
C27 C26 1_555 1_555
H31 C27 1_555 1_555
H32 C27 1_555 1_555
H33 C27 1_555 1_555
C28 Sn2 1_555 1_555
H34 C28 1_555 1_555
H35 C28 1_555 1_555
H36 C28 1_555 1_555
C29 Sn2 1_555 1_555
H37 C29 1_555 1_555
H38 C29 1_555 1_555
H39 C29 1_555 1_555
C30 Sn2 1_555 1_555
H40 C30 1_555 1_555
H41 C30 1_555 1_555
H42 C30 1_555 1_555
Sn1C O3 1_555 1_555
O3C Sn1 1_555 1_555
Sn2C O6 1_555 1_555
O6C Sn2 1_555 1_555
C4 C5 1_555 1_555
C6 C7 1_555 1_555
C8 C9 1_555 1_555
C19 C20 1_555 1_555
C21 C22 1_555 1_555
C23 C24 1_555 1_555

#END
