
#######################################################################
#
#                 Cambridge Crystallographic Data Centre
#                                CCDC 
#
#######################################################################
#
# If this CIF has been generated from an entry in the Cambridge 
# Structural Database, then it will include bibliographic, chemical, 
# crystal, experimental, refinement or atomic coordinate data resulting 
# from the CCDC's data processing and validation procedures.
#
#######################################################################

data_HUPRUF01
_symmetry_cell_setting           orthorhombic
_symmetry_space_group_name_H-M   'P b c m'
_symmetry_Int_Tables_number      57
_space_group_name_Hall           '-P 2c 2b'
loop_
_symmetry_equiv_pos_site_id
_symmetry_equiv_pos_as_xyz
1 x,y,z
2 -x,-y,1/2+z
3 -x,1/2+y,1/2-z
4 x,1/2-y,-z
5 -x,-y,-z
6 x,y,1/2-z
7 x,1/2-y,1/2+z
8 -x,1/2+y,z
_cell_length_a                   6.3449(5)
_cell_length_b                   10.4301(7)
_cell_length_c                   6.6211(5)
_cell_angle_alpha                90
_cell_angle_beta                 90
_cell_angle_gamma                90
_cell_volume                     438.171
loop_
_atom_site_label
_atom_site_type_symbol
_atom_site_fract_x
_atom_site_fract_y
_atom_site_fract_z
Zn1 Zn 0.75017(4) 0.78001(3) -1.7500
O1 O 0.8995(3) 0.7500 -1.5000
H1 H 1.0408 0.7500 -1.5000
N1 N 0.6376(3) 0.95961(19) -1.7500
N2 N 0.7833(3) 1.0553(3) -1.7500
N3 N 0.6873(4) 1.1639(2) -1.7500
N4 N 0.4755(3) 1.14444(19) -1.7500
N5 N 0.2635(3) 0.9572(3) -1.7500
H2 H 0.2584 0.8748 -1.7500
H3 H 0.1487 1.0011 -1.7500
C1 C 0.4490(4) 1.0169(2) -1.7500
Zn1F Zn 0.75017(4) 0.71999(3) -1.2500
Zn1G Zn 0.24983(4) 1.28001(3) -1.7500
O1E O 0.8995(3) 0.7500 -2.0000
H1E H 1.0408 0.7500 -2.0000
N4G N 0.5245(3) 0.64444(19) -1.7500
loop_
_geom_bond_atom_site_label_1
_geom_bond_atom_site_label_2
_geom_bond_site_symmetry_1
_geom_bond_site_symmetry_2
Zn1 O1 1_555 1_555
O1 H1 1_555 1_555
N1 Zn1 1_555 1_555
N2 N1 1_555 1_555
N3 N2 1_555 1_555
N4 N3 1_555 1_555
N5 H2 1_555 1_555
H3 N5 1_555 1_555
C1 N1 1_555 1_555
Zn1F O1 1_555 1_555
Zn1G N4 1_555 1_555
O1E Zn1 1_555 1_555
H1E O1E 1_555 1_555
N4G Zn1 1_555 1_555
N4 C1 1_555 1_555
N5 C1 1_555 1_555

#END
