
#######################################################################
#
#                 Cambridge Crystallographic Data Centre
#                                CCDC 
#
#######################################################################
#
# If this CIF has been generated from an entry in the Cambridge 
# Structural Database, then it will include bibliographic, chemical, 
# crystal, experimental, refinement or atomic coordinate data resulting 
# from the CCDC's data processing and validation procedures.
#
#######################################################################

data_HUPREQ
_symmetry_cell_setting           orthorhombic
_symmetry_space_group_name_H-M   'P b c a'
_symmetry_Int_Tables_number      61
_space_group_name_Hall           '-P 2ac 2ab'
loop_
_symmetry_equiv_pos_site_id
_symmetry_equiv_pos_as_xyz
1 x,y,z
2 1/2+x,1/2-y,-z
3 -x,1/2+y,1/2-z
4 1/2-x,-y,1/2+z
5 -x,-y,-z
6 1/2-x,1/2+y,z
7 x,1/2-y,1/2+z
8 1/2+x,y,1/2-z
_cell_length_a                   16.3971(2)
_cell_length_b                   17.1164(3)
_cell_length_c                   18.1996(2)
_cell_angle_alpha                90
_cell_angle_beta                 90
_cell_angle_gamma                90
_cell_volume                     5107.89
loop_
_atom_site_label
_atom_site_type_symbol
_atom_site_fract_x
_atom_site_fract_y
_atom_site_fract_z
Sn1 Sn 0.080716(9) 0.025049(9) 0.247360(8)
O1 O 0.18074(10) -0.00545(10) 0.31342(9)
O2 O 0.11126(12) -0.11238(11) 0.34233(11)
O3 O 0.52577(11) -0.08632(10) 0.64264(10)
N1 N 0.43071(12) -0.15441(13) 0.54088(11)
H1 H 0.4579(19) -0.1155(18) 0.5597(16)
C1 C 0.17209(14) -0.07171(14) 0.34795(12)
C2 C 0.24214(14) -0.09499(13) 0.39550(11)
C3 C 0.31385(15) -0.05186(14) 0.39862(12)
H2 H 0.3196 -0.0065 0.3690
C4 C 0.37694(14) -0.07425(14) 0.44446(12)
H3 H 0.4263 -0.0452 0.4451
C5 C 0.36823(14) -0.13949(14) 0.48981(12)
C6 C 0.29650(15) -0.18317(15) 0.48655(13)
H4 H 0.2901 -0.2278 0.5170
C7 C 0.23487(15) -0.16151(14) 0.43916(13)
H5 H 0.1868 -0.1924 0.4362
C8 C 0.46056(16) -0.22253(14) 0.56671(13)
C9 C 0.52139(16) -0.22219(15) 0.61868(13)
H6 H 0.5437 -0.2712 0.6327
C10 C 0.55339(15) -0.15456(15) 0.65301(13)
C11 C 0.62355(19) -0.16546(19) 0.70502(17)
H7 H 0.6694 -0.1327 0.6894
H8 H 0.6403 -0.2204 0.7049
H9 H 0.6067 -0.1504 0.7547
C12 C 0.43025(19) -0.29858(17) 0.53651(18)
H10 H 0.3793 -0.3130 0.5612
H11 H 0.4712 -0.3393 0.5450
H12 H 0.4204 -0.2932 0.4836
C13 C 0.09005(13) -0.06198(14) 0.16449(12)
C14 C 0.12690(16) -0.04575(15) 0.09727(13)
H13 H 0.1461 0.0056 0.0875
C15 C 0.13602(17) -0.10366(16) 0.04428(14)
H14 H 0.1616 -0.0919 -0.0012
C16 C 0.10793(17) -0.17802(16) 0.05797(14)
H15 H 0.1144 -0.2177 0.0220
C17 C 0.07055(16) -0.19481(16) 0.12374(15)
H16 H 0.0507 -0.2461 0.1326
C18 C 0.06149(15) -0.13760(15) 0.17738(14)
H17 H 0.0359 -0.1500 0.2227
C19 C -0.01900(14) 0.02096(14) 0.32159(12)
C20 C -0.09274(16) -0.01269(15) 0.30207(14)
H18 H -0.0991 -0.0339 0.2542
C21 C -0.15736(16) -0.01606(17) 0.35111(16)
H19 H -0.2073 -0.0397 0.3367
C22 C -0.14928(18) 0.01482(17) 0.42077(15)
H20 H -0.1938 0.0132 0.4542
C23 C -0.07643(18) 0.0479(2) 0.44155(16)
H21 H -0.0705 0.0690 0.4895
C24 C -0.01130(17) 0.05060(19) 0.39248(15)
H22 H 0.0390 0.0729 0.4076
C25 C 0.13167(14) 0.13819(13) 0.23390(13)
C26 C 0.10526(19) 0.19771(17) 0.28079(19)
H23 H 0.0623 0.1875 0.3145
C27 C 0.1404(2) 0.27134(18) 0.2791(2)
H24 H 0.1219 0.3109 0.3117
C28 C 0.2017(2) 0.28674(17) 0.2303(2)
H25 H 0.2260 0.3371 0.2291
C29 C 0.22849(19) 0.22934(19) 0.18282(16)
H26 H 0.2705 0.2406 0.1485
C30 C 0.19396(16) 0.15465(16) 0.18506(14)
H27 H 0.2134 0.1151 0.1529
Sn1C Sn 0.419284(9) -0.025049(9) 0.747360(8)
O3C O -0.02577(11) 0.08632(10) 0.14264(10)
loop_
_geom_bond_atom_site_label_1
_geom_bond_atom_site_label_2
_geom_bond_site_symmetry_1
_geom_bond_site_symmetry_2
Sn1 O1 1_555 1_555
O1 C1 1_555 1_555
O2 C1 1_555 1_555
O3 C10 1_555 1_555
N1 H1 1_555 1_555
C1 C2 1_555 1_555
C2 C3 1_555 1_555
C3 H2 1_555 1_555
C4 C3 1_555 1_555
H3 C4 1_555 1_555
C5 N1 1_555 1_555
C6 C5 1_555 1_555
H4 C6 1_555 1_555
C7 C2 1_555 1_555
H5 C7 1_555 1_555
C8 N1 1_555 1_555
C9 C8 1_555 1_555
H6 C9 1_555 1_555
C10 C9 1_555 1_555
C11 C10 1_555 1_555
H7 C11 1_555 1_555
H8 C11 1_555 1_555
H9 C11 1_555 1_555
C12 C8 1_555 1_555
H10 C12 1_555 1_555
H11 C12 1_555 1_555
H12 C12 1_555 1_555
C13 Sn1 1_555 1_555
C14 C13 1_555 1_555
H13 C14 1_555 1_555
C15 C14 1_555 1_555
H14 C15 1_555 1_555
C16 C15 1_555 1_555
H15 C16 1_555 1_555
C17 C16 1_555 1_555
H16 C17 1_555 1_555
C18 C13 1_555 1_555
H17 C18 1_555 1_555
C19 Sn1 1_555 1_555
C20 C19 1_555 1_555
H18 C20 1_555 1_555
C21 C20 1_555 1_555
H19 C21 1_555 1_555
C22 C21 1_555 1_555
H20 C22 1_555 1_555
C23 C22 1_555 1_555
H21 C23 1_555 1_555
C24 C19 1_555 1_555
H22 C24 1_555 1_555
C25 Sn1 1_555 1_555
C26 C25 1_555 1_555
H23 C26 1_555 1_555
C27 C26 1_555 1_555
H24 C27 1_555 1_555
C28 C27 1_555 1_555
H25 C28 1_555 1_555
C29 C28 1_555 1_555
H26 C29 1_555 1_555
C30 C25 1_555 1_555
H27 C30 1_555 1_555
Sn1C O3 1_555 1_555
O3C Sn1 1_555 1_555
C4 C5 1_555 1_555
C6 C7 1_555 1_555
C17 C18 1_555 1_555
C23 C24 1_555 1_555
C29 C30 1_555 1_555

#END
