
#######################################################################
#
#                 Cambridge Crystallographic Data Centre
#                                CCDC 
#
#######################################################################
#
# If this CIF has been generated from an entry in the Cambridge 
# Structural Database, then it will include bibliographic, chemical, 
# crystal, experimental, refinement or atomic coordinate data resulting 
# from the CCDC's data processing and validation procedures.
#
#######################################################################

data_HUPZAV
_symmetry_cell_setting           triclinic
_symmetry_space_group_name_H-M   'P -1'
_symmetry_Int_Tables_number      2
_space_group_name_Hall           '-P 1'
loop_
_symmetry_equiv_pos_site_id
_symmetry_equiv_pos_as_xyz
1 x,y,z
2 -x,-y,-z
_cell_length_a                   5.2226(11)
_cell_length_b                   8.0640(17)
_cell_length_c                   24.515(5)
_cell_angle_alpha                96.418(3)
_cell_angle_beta                 93.293(2)
_cell_angle_gamma                104.748(2)
_cell_volume                     988.207
loop_
_atom_site_label
_atom_site_type_symbol
_atom_site_fract_x
_atom_site_fract_y
_atom_site_fract_z
Ag1 Ag 0.78102(10) 0.35296(8) 0.53088(3)
Ag2 Ag 0.26696(10) 0.33759(8) -0.03230(2)
C1 C 0.3977(10) 0.3667(9) 0.5523(3)
C2 C -0.1332(10) 0.3344(9) -0.0539(3)
C3 C 0.3254(14) 0.0664(10) 0.4415(3)
H1 H 0.2683 0.0334 0.4749
C4 C 0.1524(14) 0.0018(9) 0.3943(3)
H2 H -0.0135 -0.0741 0.3958
C5 C 0.2364(12) 0.0546(8) 0.3450(2)
C6 C 0.4870(13) 0.1662(9) 0.3449(3)
H3 H 0.5483 0.2049 0.3125
C7 C 0.6419(14) 0.2178(10) 0.3939(3)
H4 H 0.8118 0.2899 0.3935
C8 C 0.0526(12) -0.0053(8) 0.2934(2)
C9 C -0.3329(12) -0.1685(8) 0.2493(2)
C10 C -0.0447(12) 0.0109(7) 0.2041(2)
C11 C 0.0292(13) 0.0864(8) 0.1527(3)
C12 C -0.1537(13) 0.0492(9) 0.1073(2)
H5 H -0.3241 -0.0213 0.1085
C13 C -0.0771(14) 0.1196(9) 0.0598(3)
H6 H -0.2008 0.0939 0.0292
C14 C 0.3349(14) 0.2568(10) 0.0997(3)
H7 H 0.5035 0.3283 0.0975
C15 C 0.2781(13) 0.1933(9) 0.1486(3)
H8 H 0.4057 0.2219 0.1786
C16 C -0.5894(12) -0.3017(8) 0.2496(3)
C17 C -0.7690(14) -0.3518(9) 0.2034(3)
H9 H -0.7329 -0.3024 0.1712
C18 C -1.0021(15) -0.4762(11) 0.2058(3)
H10 H -1.1214 -0.5070 0.1745
C19 C -0.8951(17) -0.5085(11) 0.2925(4)
H11 H -0.9348 -0.5642 0.3234
C20 C -0.6552(14) -0.3823(10) 0.2958(3)
H12 H -0.5421 -0.3528 0.3281
N1 N 0.1852(15) 0.3665(9) 0.5470(3)
N2 N -0.3425(15) 0.3379(9) -0.0496(3)
N3 N 0.5655(11) 0.1715(8) 0.4421(2)
N4 N -0.1761(10) -0.1243(7) 0.2960(2)
N5 N -0.2812(10) -0.1044(7) 0.2023(2)
N6 N 0.1324(11) 0.0646(7) 0.2485(2)
N7 N 0.1617(11) 0.2213(8) 0.0554(2)
N8 N -1.0699(13) -0.5554(9) 0.2494(3)
Ag1_2 Ag -0.21898(10) 0.35296(8) 0.53088(3)
Ag2_2 Ag -0.73304(10) 0.33759(8) -0.03230(2)
N1_2 N 1.1852(15) 0.3665(9) 0.5470(3)
N2_2 N 0.6575(15) 0.3379(9) -0.0496(3)
loop_
_geom_bond_atom_site_label_1
_geom_bond_atom_site_label_2
_geom_bond_site_symmetry_1
_geom_bond_site_symmetry_2
Ag1 C1 1_555 1_555
Ag2 C2 1_555 1_555
C1 N1 1_555 1_555
C2 N2 1_555 1_555
C3 H1 1_555 1_555
C4 C3 1_555 1_555
H2 C4 1_555 1_555
C5 C4 1_555 1_555
C6 C5 1_555 1_555
H3 C6 1_555 1_555
C7 C6 1_555 1_555
H4 C7 1_555 1_555
C8 C5 1_555 1_555
C9 C16 1_555 1_555
C10 C11 1_555 1_555
C11 C12 1_555 1_555
C12 H5 1_555 1_555
C13 C12 1_555 1_555
H6 C13 1_555 1_555
C14 H7 1_555 1_555
C15 C11 1_555 1_555
H8 C15 1_555 1_555
C16 C17 1_555 1_555
C17 H9 1_555 1_555
C18 C17 1_555 1_555
H10 C18 1_555 1_555
C19 H11 1_555 1_555
C20 C16 1_555 1_555
H12 C20 1_555 1_555
N1 Ag1_2 1_555 1_555
N2 Ag2_2 1_555 1_555
N3 Ag1 1_555 1_555
N4 C8 1_555 1_555
N5 C9 1_555 1_555
N6 C8 1_555 1_555
N7 Ag2 1_555 1_555
N8 C18 1_555 1_555
N1_2 Ag1 1_555 1_555
N2_2 Ag2 1_555 1_555
C3 N3 1_555 1_555
C7 N3 1_555 1_555
C9 N4 1_555 1_555
C10 N5 1_555 1_555
C10 N6 1_555 1_555
C13 N7 1_555 1_555
C14 C15 1_555 1_555
C14 N7 1_555 1_555
C19 C20 1_555 1_555
C19 N8 1_555 1_555

#END
