
#######################################################################
#
#                 Cambridge Crystallographic Data Centre
#                                CCDC 
#
#######################################################################
#
# If this CIF has been generated from an entry in the Cambridge 
# Structural Database, then it will include bibliographic, chemical, 
# crystal, experimental, refinement or atomic coordinate data resulting 
# from the CCDC's data processing and validation procedures.
#
#######################################################################

data_HUPZID
_symmetry_cell_setting           monoclinic
_symmetry_space_group_name_H-M   'P 21/c'
_symmetry_Int_Tables_number      14
_space_group_name_Hall           '-P 2ybc'
loop_
_symmetry_equiv_pos_site_id
_symmetry_equiv_pos_as_xyz
1 x,y,z
2 -x,1/2+y,1/2-z
3 -x,-y,-z
4 x,1/2-y,1/2+z
_cell_length_a                   12.4538(12)
_cell_length_b                   5.1522(5)
_cell_length_c                   13.1489(12)
_cell_angle_alpha                90
_cell_angle_beta                 109.1790(10)
_cell_angle_gamma                90
_cell_volume                     796.865
loop_
_atom_site_label
_atom_site_type_symbol
_atom_site_fract_x
_atom_site_fract_y
_atom_site_fract_z
Ag1 Ag 0.47708(3) 0.07909(7) 0.12324(3)
C1 C 0.4092(3) 0.6835(7) 0.1149(3)
C2 C 0.7045(3) -0.3029(8) 0.1894(3)
H1 H 0.6640 -0.4185 0.2172
C3 C 0.7442(3) 0.0248(8) 0.1153(3)
H2 H 0.7411 0.1832 0.0806
C4 C 0.9443(3) -0.1003(8) 0.1308(3)
H3 H 1.0021 -0.0994 0.2014
H4 H 0.9466 0.0666 0.0974
C5 C 0.9716(3) -0.3107(7) 0.0635(3)
C6 C 0.8896(3) -0.4153(8) -0.0257(3)
H5 H 0.8148 -0.3584 -0.0439
C7 C 1.0827(3) -0.3969(8) 0.0883(3)
H6 H 1.1391 -0.3280 0.1474
N1 N 0.4242(3) 0.4713(10) 0.1159(3)
N2 N 0.6606(3) -0.0742(6) 0.1437(3)
N3 N 0.8088(3) -0.3484(6) 0.1912(3)
N4 N 0.8333(2) -0.1335(6) 0.1433(2)
C2B C 1.2955(3) -0.6971(8) -0.1894(3)
H1B H 1.3360 -0.5815 -0.2172
C3B C 1.2558(3) -1.0248(8) -0.1153(3)
H2B H 1.2589 -1.1832 -0.0806
C4B C 1.0557(3) -0.8997(8) -0.1308(3)
H3B H 0.9979 -0.9006 -0.2014
H4B H 1.0534 -1.0666 -0.0974
C5B C 1.0284(3) -0.6893(7) -0.0635(3)
C6B C 1.1104(3) -0.5847(8) 0.0257(3)
H5B H 1.1852 -0.6416 0.0439
C7B C 0.9173(3) -0.6031(8) -0.0883(3)
H6B H 0.8609 -0.6720 -0.1474
N2B N 1.3394(3) -0.9258(6) -0.1437(3)
N3B N 1.1912(3) -0.6516(6) -0.1912(3)
N4B N 1.1667(2) -0.8665(6) -0.1433(2)
Ag1B Ag 1.52292(3) -1.07909(7) -0.12324(3)
C1B C 1.5908(3) -1.6835(7) -0.1149(3)
N1B N 1.5758(3) -1.4713(10) -0.1159(3)
Ag1_2 Ag 0.47708(3) 1.07909(7) 0.12324(3)
Ag1B_2 Ag 1.52292(3) -2.07909(7) -0.12324(3)
C1_2 C 0.4092(3) -0.3165(7) 0.1149(3)
C1B_2 C 1.5908(3) -0.6835(7) -0.1149(3)
loop_
_geom_bond_atom_site_label_1
_geom_bond_atom_site_label_2
_geom_bond_site_symmetry_1
_geom_bond_site_symmetry_2
Ag1 N1 1_555 1_555
C1 N1 1_555 1_555
C2 H1 1_555 1_555
C3 H2 1_555 1_555
C4 H3 1_555 1_555
H4 C4 1_555 1_555
C5 C4 1_555 1_555
C6 C5 1_555 1_555
H5 C6 1_555 1_555
C7 C5 1_555 1_555
H6 C7 1_555 1_555
N2 Ag1 1_555 1_555
N3 C2 1_555 1_555
N4 C3 1_555 1_555
C2B H1B 1_555 1_555
C3B H2B 1_555 1_555
C4B H3B 1_555 1_555
H4B C4B 1_555 1_555
C5B C4B 1_555 1_555
C6B C7 1_555 1_555
H5B C6B 1_555 1_555
C7B C6 1_555 1_555
H6B C7B 1_555 1_555
N2B C2B 1_555 1_555
N3B C2B 1_555 1_555
N4B C3B 1_555 1_555
Ag1B N2B 1_555 1_555
C1B N1B 1_555 1_555
N1B Ag1B 1_555 1_555
Ag1_2 C1 1_555 1_555
Ag1B_2 C1B 1_555 1_555
C1_2 Ag1 1_555 1_555
C1B_2 Ag1B 1_555 1_555
C2 N2 1_555 1_555
C3 N2 1_555 1_555
C4 N4 1_555 1_555
N3 N4 1_555 1_555
C3B N2B 1_555 1_555
C4B N4B 1_555 1_555
C5B C6B 1_555 1_555
C5B C7B 1_555 1_555
N3B N4B 1_555 1_555

#END
