
#######################################################################
#
#                 Cambridge Crystallographic Data Centre
#                                CCDC 
#
#######################################################################
#
# If this CIF has been generated from an entry in the Cambridge 
# Structural Database, then it will include bibliographic, chemical, 
# crystal, experimental, refinement or atomic coordinate data resulting 
# from the CCDC's data processing and validation procedures.
#
#######################################################################

data_HUSGUY
_symmetry_cell_setting           orthorhombic
_symmetry_space_group_name_H-M   'P 21 21 21'
_symmetry_Int_Tables_number      19
_space_group_name_Hall           'P 2ac 2ab'
loop_
_symmetry_equiv_pos_site_id
_symmetry_equiv_pos_as_xyz
1 x,y,z
2 1/2-x,-y,1/2+z
3 1/2+x,1/2-y,-z
4 -x,1/2+y,1/2-z
_cell_length_a                   6.0675(3)
_cell_length_b                   6.9454(3)
_cell_length_c                   19.8525(8)
_cell_angle_alpha                90
_cell_angle_beta                 90
_cell_angle_gamma                90
_cell_volume                     836.608
loop_
_atom_site_label
_atom_site_type_symbol
_atom_site_fract_x
_atom_site_fract_y
_atom_site_fract_z
C1 C 0.738(5) 0.459(3) 0.3334(9)
C2 C 0.559(4) 0.389(4) 0.2987(10)
H1 H 0.4281 0.3588 0.3207
C3 C 0.582(4) 0.365(4) 0.2294(9)
H2 H 0.4689 0.3039 0.2062
C4 C 0.930(4) 0.487(4) 0.2311(9)
H3 H 1.0590 0.5161 0.2079
C5 C 0.927(4) 0.511(3) 0.2993(10)
H4 H 1.0487 0.5597 0.3221
C6 C 0.729(5) 0.490(3) 0.4120(8)
N1 N 0.752(3) 0.423(2) 0.1955(6)
Br1 Br 0.2714(7) 0.4759(3) 0.07643(9)
O1 O 0.551(5) 0.503(3) 0.4352(8)
O2 O 0.915(5) 0.513(3) 0.4424(10)
Pb1 Pb 0.77186(11) 0.38675(9) 0.05350(3)
O3 O 0.773(3) 0.7227(17) 0.0721(7)
H5 H 0.62(3) 0.76(3) 0.055(15)
H6 H 0.87(3) 0.83(3) 0.058(15)
Br1_2 Br 1.2714(7) 0.4759(3) 0.07643(9)
O1A O 0.949(5) 0.497(3) -0.0648(8)
O2A O 0.585(5) 0.487(3) -0.0576(10)
Pb1_2 Pb -0.22814(11) 0.38675(9) 0.05350(3)
Pb1A Pb 0.72814(11) 0.61325(9) 0.55350(3)
loop_
_geom_bond_atom_site_label_1
_geom_bond_atom_site_label_2
_geom_bond_site_symmetry_1
_geom_bond_site_symmetry_2
C1 C2 1_555 1_555
C2 H1 1_555 1_555
C3 C2 1_555 1_555
H2 C3 1_555 1_555
C4 H3 1_555 1_555
C5 C1 1_555 1_555
H4 C5 1_555 1_555
C6 C1 1_555 1_555
N1 C3 1_555 1_555
Br1 Pb1 1_555 1_555
O1 C6 1_555 1_555
O2 C6 1_555 1_555
Pb1 N1 1_555 1_555
O3 Pb1 1_555 1_555
H5 O3 1_555 1_555
H6 O3 1_555 1_555
Br1_2 Pb1 1_555 1_555
O1A Pb1 1_555 1_555
O2A Pb1 1_555 1_555
Pb1_2 Br1 1_555 1_555
Pb1A O1 1_555 1_555
C4 C5 1_555 1_555
C4 N1 1_555 1_555
O2 Pb1A 1_555 1_555

#END
