
#######################################################################
#
#                 Cambridge Crystallographic Data Centre
#                                CCDC 
#
#######################################################################
#
# If this CIF has been generated from an entry in the Cambridge 
# Structural Database, then it will include bibliographic, chemical, 
# crystal, experimental, refinement or atomic coordinate data resulting 
# from the CCDC's data processing and validation procedures.
#
#######################################################################

data_HUSGUX
_symmetry_cell_setting           monoclinic
_symmetry_space_group_name_H-M   'C 2/c'
_symmetry_Int_Tables_number      15
_space_group_name_Hall           '-C 2yn'
loop_
_symmetry_equiv_pos_site_id
_symmetry_equiv_pos_as_xyz
1 x,y,z
2 x,-y,1/2+z
3 1/2+x,1/2+y,z
4 1/2+x,1/2-y,1/2+z
5 -x,-y,-z
6 -x,y,1/2-z
7 1/2-x,1/2-y,-z
8 1/2-x,1/2+y,1/2-z
_cell_length_a                   14.539(3)
_cell_length_b                   12.620(2)
_cell_length_c                   12.114(3)
_cell_angle_alpha                90
_cell_angle_beta                 103.400(10)
_cell_angle_gamma                90
_cell_volume                     2162.19
loop_
_atom_site_label
_atom_site_type_symbol
_atom_site_fract_x
_atom_site_fract_y
_atom_site_fract_z
Mo1 Mo 1.0000 0.26664(3) 1.2500
Mn1 Mn 0.76225(4) 0.48868(4) 1.44438(5)
N1 N 0.6952(2) 0.3273(2) 1.3777(3)
C1 C 0.6421(3) 0.3108(3) 1.2727(4)
H1 H 0.6243 0.3684 1.2245
C2 C 0.6133(3) 0.2110(4) 1.2349(4)
H2 H 0.5789 0.1995 1.1610
C3 C 0.6372(3) 0.1288(3) 1.3102(4)
H3 H 0.6159 0.0610 1.2873
N2 N 0.6900(2) 0.1424(2) 1.4150(3)
C4 C 0.7186(3) 0.2419(3) 1.4432(3)
O1 O 0.6527(2) 0.5134(2) 1.5427(3)
H4 H 0.623(3) 0.4476(19) 1.551(5)
H5 H 0.600(2) 0.558(3) 1.512(5)
N3 N 0.8723(2) 0.4315(3) 1.3633(3)
C5 C 0.9162(3) 0.3753(3) 1.3228(3)
N4 N 1.1724(2) 0.0891(3) 1.3149(3)
C6 C 1.1133(3) 0.1515(3) 1.2878(3)
N5 N 0.8483(2) 0.3928(3) 1.0479(3)
C7 C 0.8988(3) 0.3473(3) 1.1171(3)
C8 C 1.0105(3) 0.1960(3) 1.0909(3)
N6 N 1.0149(3) 0.1600(3) 1.0043(3)
C4F C 0.7814(3) 0.2581(3) 1.5568(3)
N1F N 0.8048(2) 0.1727(2) 1.6223(3)
C1F C 0.8579(3) 0.1892(3) 1.7273(4)
H1F H 0.8757 0.1316 1.7755
C2F C 0.8867(3) 0.2890(4) 1.7651(4)
H2F H 0.9211 0.3005 1.8390
C3F C 0.8628(3) 0.3712(3) 1.6898(4)
H3F H 0.8841 0.4390 1.7127
N2F N 0.8100(2) 0.3576(2) 1.5850(3)
N3E N 1.1277(2) 0.4315(3) 1.1367(3)
C5E C 1.0838(3) 0.3753(3) 1.1772(3)
N4E N 0.8276(2) 0.0891(3) 1.1851(3)
C6E C 0.8867(3) 0.1515(3) 1.2122(3)
N5E N 1.1517(2) 0.3928(3) 1.4521(3)
C7E C 1.1012(3) 0.3473(3) 1.3829(3)
C8E C 0.9895(3) 0.1960(3) 1.4091(3)
N6E N 0.9851(3) 0.1600(3) 1.4957(3)
Mn1E Mn 1.23775(4) 0.48868(4) 1.05562(5)
O1E O 1.3473(2) 0.5134(2) 0.9573(3)
H4E H 1.377(3) 0.4476(19) 0.949(5)
H5E H 1.400(2) 0.558(3) 0.988(5)
N4B N 0.6724(2) 0.5891(3) 1.3149(3)
N5A N 0.8483(2) 0.6072(3) 1.5479(3)
Mn1F Mn 0.73775(4) 0.01132(4) 1.55562(5)
Mn1B Mn 1.26225(4) -0.01132(4) 1.44438(5)
Mn1A Mn 0.76225(4) 0.51132(4) 0.94438(5)
Mn1G Mn 0.73775(4) -0.01132(4) 1.05562(5)
Mn1D Mn 1.23775(4) 0.51132(4) 1.55562(5)
N1E N 1.3048(2) 0.3273(2) 1.1223(3)
N2C N 1.1900(2) 0.3576(2) 0.9150(3)
N4G N 1.3276(2) 0.5891(3) 1.1851(3)
N5D N 1.1517(2) 0.6072(3) 0.9521(3)
loop_
_geom_bond_atom_site_label_1
_geom_bond_atom_site_label_2
_geom_bond_site_symmetry_1
_geom_bond_site_symmetry_2
Mo1 C5 1_555 1_555
Mn1 N1 1_555 1_555
N1 C1 1_555 1_555
C1 H1 1_555 1_555
C2 C1 1_555 1_555
H2 C2 1_555 1_555
C3 C2 1_555 1_555
H3 C3 1_555 1_555
N2 C3 1_555 1_555
C4 N1 1_555 1_555
O1 Mn1 1_555 1_555
H4 O1 1_555 1_555
H5 O1 1_555 1_555
N3 Mn1 1_555 1_555
C5 N3 1_555 1_555
N4 C6 1_555 1_555
C6 Mo1 1_555 1_555
N5 C7 1_555 1_555
C7 Mo1 1_555 1_555
C8 Mo1 1_555 1_555
N6 C8 1_555 1_555
C4F C4 1_555 1_555
N1F C4F 1_555 1_555
C1F N1F 1_555 1_555
H1F C1F 1_555 1_555
C2F C1F 1_555 1_555
H2F C2F 1_555 1_555
C3F C2F 1_555 1_555
H3F C3F 1_555 1_555
N2F Mn1 1_555 1_555
N3E C5E 1_555 1_555
C5E Mo1 1_555 1_555
N4E C6E 1_555 1_555
C6E Mo1 1_555 1_555
N5E C7E 1_555 1_555
C7E Mo1 1_555 1_555
C8E Mo1 1_555 1_555
N6E C8E 1_555 1_555
Mn1E N3E 1_555 1_555
O1E Mn1E 1_555 1_555
H4E O1E 1_555 1_555
H5E O1E 1_555 1_555
N4B Mn1 1_555 1_555
N5A Mn1 1_555 1_555
Mn1F N2 1_555 1_555
Mn1B N4 1_555 1_555
Mn1A N5 1_555 1_555
Mn1G N4E 1_555 1_555
Mn1D N5E 1_555 1_555
N1E Mn1E 1_555 1_555
N2C Mn1E 1_555 1_555
N4G Mn1E 1_555 1_555
N5D Mn1E 1_555 1_555
N2 C4 1_555 1_555
C4F N2F 1_555 1_555
N1F Mn1F 1_555 1_555
C3F N2F 1_555 1_555

#END
