
#######################################################################
#
#                 Cambridge Crystallographic Data Centre
#                                CCDC 
#
#######################################################################
#
# If this CIF has been generated from an entry in the Cambridge 
# Structural Database, then it will include bibliographic, chemical, 
# crystal, experimental, refinement or atomic coordinate data resulting 
# from the CCDC's data processing and validation procedures.
#
#######################################################################

data_HUTHOU
_symmetry_cell_setting           triclinic
_symmetry_space_group_name_H-M   'P -1'
_symmetry_Int_Tables_number      2
_space_group_name_Hall           '-P 1'
loop_
_symmetry_equiv_pos_site_id
_symmetry_equiv_pos_as_xyz
1 x,y,z
2 -x,-y,-z
_cell_length_a                   10.096(2)
_cell_length_b                   12.572(3)
_cell_length_c                   15.349(3)
_cell_angle_alpha                100.99(3)
_cell_angle_beta                 99.51(3)
_cell_angle_gamma                90.38(3)
_cell_volume                     1884.73
loop_
_atom_site_label
_atom_site_type_symbol
_atom_site_fract_x
_atom_site_fract_y
_atom_site_fract_z
C1 C -0.6202(5) -0.0581(4) 0.1551(4)
H1 H -0.6640 -0.1132 0.1745
N1 N -0.6961(4) 0.0052(4) 0.1071(3)
P1 P -0.01300(12) 0.02726(10) 0.23498(8)
S1 S 0.02789(13) 0.17399(11) 0.01552(9)
Ag1 Ag 0.07643(4) 0.00071(3) 0.09542(2)
C2 C -0.4810(5) -0.0472(4) 0.1776(3)
H2 H -0.4334 -0.0925 0.2129
N2 N -0.2785(4) 0.0501(4) 0.1693(3)
H3 H -0.2421 0.0976 0.1450
C3 C -0.4131(4) 0.0312(4) 0.1476(3)
C4 C -0.4916(5) 0.0952(4) 0.0946(3)
H4 H -0.4503 0.1485 0.0717
C5 C -0.6272(5) 0.0795(4) 0.0768(3)
H6 H -0.6769 0.1232 0.0410
N5 N -0.1894(5) 0.2454(4) 0.1037(3)
C6 C -0.1918(5) -0.0040(4) 0.2302(3)
H7 H -0.2089 -0.0825 0.2113
H8 H -0.2141 0.0174 0.2907
C7 C 0.0559(4) -0.0642(4) 0.3078(3)
C8 C 0.0936(6) -0.0337(5) 0.4011(4)
H9 H 0.0864 0.0387 0.4295
C9 C 0.1414(7) -0.1092(5) 0.4516(4)
H10 H 0.1659 -0.0874 0.5144
C10 C 0.1541(6) -0.2149(5) 0.4127(4)
H11 H 0.1863 -0.2655 0.4482
C11 C 0.1190(6) -0.2462(5) 0.3208(4)
H12 H 0.1276 -0.3187 0.2932
C12 C 0.0713(6) -0.1718(4) 0.2689(4)
H13 H 0.0489 -0.1942 0.2061
C13 C 0.0209(5) 0.1607(4) 0.3054(3)
C14 C 0.1520(6) 0.2051(5) 0.3188(4)
H14 H 0.2178 0.1665 0.2906
C15 C 0.1846(6) 0.3059(5) 0.3734(4)
H15 H 0.2734 0.3344 0.3837
C16 C 0.0872(6) 0.3654(5) 0.4132(4)
H16 H 0.1100 0.4338 0.4502
C17 C -0.0409(6) 0.3243(5) 0.3984(4)
H17 H -0.1070 0.3650 0.4246
C18 C -0.0751(5) 0.2224(4) 0.3448(4)
H18 H -0.1643 0.1949 0.3351
C37 C -0.1012(5) 0.2147(4) 0.0673(4)
N1_2 N 0.3039(4) 0.0052(4) 0.1071(3)
S1A S -0.02789(13) -0.17399(11) -0.01552(9)
Ag1_2 Ag -0.92357(4) 0.00071(3) 0.09542(2)
Ag1A Ag -0.07643(4) -0.00071(3) -0.09542(2)
P2 P 0.36493(12) 0.48174(10) 0.76340(8)
S2 S 0.51724(13) 0.32727(10) 0.97538(9)
Ag2 Ag 0.52435(4) 0.51040(3) 0.90325(2)
N3 N -0.2547(4) 0.5040(4) 0.8887(3)
N4 N 0.1317(4) 0.4568(3) 0.8279(3)
H5 H 0.1801 0.4095 0.8520
N6 N 0.2531(5) 0.2585(4) 0.8876(3)
C19 C -0.2011(5) 0.5645(4) 0.8405(4)
H19 H -0.2536 0.6193 0.8204
C20 C -0.0744(5) 0.5537(4) 0.8175(3)
H20 H -0.0439 0.5977 0.7812
C21 C 0.0068(5) 0.4753(4) 0.8498(3)
C22 C -0.0450(5) 0.4129(4) 0.9022(3)
H21 H 0.0076 0.3601 0.9257
C23 C -0.1729(5) 0.4280(4) 0.9201(3)
H22 H -0.2061 0.3842 0.9556
C24 C 0.1878(5) 0.5120(4) 0.7667(3)
H23 H 0.1804 0.5904 0.7855
H24 H 0.1354 0.4900 0.7060
C25 C 0.3653(5) 0.3468(4) 0.6954(3)
C26 C 0.2496(6) 0.2871(5) 0.6495(4)
H25 H 0.1650 0.3170 0.6526
C27 C 0.2580(7) 0.1839(6) 0.5994(4)
H26 H 0.1787 0.1442 0.5699
C28 C 0.3796(8) 0.1391(5) 0.5923(4)
H27 H 0.3844 0.0701 0.5565
C29 C 0.4958(7) 0.1967(5) 0.6386(4)
H28 H 0.5798 0.1661 0.6347
C30 C 0.4890(6) 0.2995(4) 0.6909(4)
H29 H 0.5682 0.3370 0.7233
C31 C 0.3969(5) 0.5713(4) 0.6876(3)
C32 C 0.3811(5) 0.5395(5) 0.5942(3)
H30 H 0.3550 0.4673 0.5671
C33 C 0.4033(6) 0.6127(5) 0.5410(4)
H31 H 0.3920 0.5898 0.4781
C34 C 0.4416(6) 0.7181(5) 0.5787(4)
H32 H 0.4561 0.7675 0.5421
C35 C 0.4589(6) 0.7519(5) 0.6723(4)
H33 H 0.4854 0.8241 0.6991
C36 C 0.4366(6) 0.6776(5) 0.7252(4)
H34 H 0.4488 0.7004 0.7881
C38 C 0.3601(6) 0.2884(4) 0.9240(4)
S2A S 0.48276(13) 0.67273(10) 1.02462(9)
Ag2A Ag 0.47565(4) 0.48960(3) 1.09675(2)
Ag2_2 Ag -0.47565(4) 0.51040(3) 0.90325(2)
N3_2 N 0.7453(4) 0.5040(4) 0.8887(3)
loop_
_geom_bond_atom_site_label_1
_geom_bond_atom_site_label_2
_geom_bond_site_symmetry_1
_geom_bond_site_symmetry_2
C1 H1 1_555 1_555
N1 C1 1_555 1_555
P1 Ag1 1_555 1_555
S1 Ag1 1_555 1_555
Ag1 N1_2 1_555 1_555
C2 C1 1_555 1_555
H2 C2 1_555 1_555
N2 H3 1_555 1_555
P2 Ag2 1_555 1_555
S2 Ag2 1_555 1_555
Ag2 S2A 1_555 1_555
C3 C2 1_555 1_555
N3 C19 1_555 1_555
C4 C3 1_555 1_555
H4 C4 1_555 1_555
N4 H5 1_555 1_555
C5 N1 1_555 1_555
H6 C5 1_555 1_555
N5 C37 1_555 1_555
C6 P1 1_555 1_555
H7 C6 1_555 1_555
H8 C6 1_555 1_555
N6 C38 1_555 1_555
C7 P1 1_555 1_555
C8 C7 1_555 1_555
H9 C8 1_555 1_555
C9 C8 1_555 1_555
H10 C9 1_555 1_555
C10 C9 1_555 1_555
H11 C10 1_555 1_555
C11 C10 1_555 1_555
H12 C11 1_555 1_555
C12 C7 1_555 1_555
H13 C12 1_555 1_555
C13 P1 1_555 1_555
C14 C13 1_555 1_555
H14 C14 1_555 1_555
C15 C14 1_555 1_555
H15 C15 1_555 1_555
C16 C15 1_555 1_555
H16 C16 1_555 1_555
C17 C16 1_555 1_555
H17 C17 1_555 1_555
C18 C13 1_555 1_555
H18 C18 1_555 1_555
C19 H19 1_555 1_555
C20 C19 1_555 1_555
H20 C20 1_555 1_555
C21 N4 1_555 1_555
C22 C21 1_555 1_555
H21 C22 1_555 1_555
C23 N3 1_555 1_555
H22 C23 1_555 1_555
C24 P2 1_555 1_555
H23 C24 1_555 1_555
H24 C24 1_555 1_555
C25 P2 1_555 1_555
C26 C25 1_555 1_555
H25 C26 1_555 1_555
C27 C26 1_555 1_555
H26 C27 1_555 1_555
C28 C27 1_555 1_555
H27 C28 1_555 1_555
C29 C28 1_555 1_555
H28 C29 1_555 1_555
C30 C25 1_555 1_555
H29 C30 1_555 1_555
C31 P2 1_555 1_555
C32 C31 1_555 1_555
H30 C32 1_555 1_555
C33 C32 1_555 1_555
H31 C33 1_555 1_555
C34 C33 1_555 1_555
H32 C34 1_555 1_555
C35 C34 1_555 1_555
H33 C35 1_555 1_555
C36 C31 1_555 1_555
H34 C36 1_555 1_555
C37 S1 1_555 1_555
C38 S2 1_555 1_555
S1A Ag1 1_555 1_555
Ag1_2 N1 1_555 1_555
Ag1A S1 1_555 1_555
S2A Ag2A 1_555 1_555
Ag2A S2 1_555 1_555
Ag2_2 N3 1_555 1_555
N3_2 Ag2 1_555 1_555
N2 C3 1_555 1_555
N2 C6 1_555 1_555
C4 C5 1_555 1_555
N4 C24 1_555 1_555
C11 C12 1_555 1_555
C17 C18 1_555 1_555
C20 C21 1_555 1_555
C22 C23 1_555 1_555
C29 C30 1_555 1_555
C35 C36 1_555 1_555
S1A Ag1A 1_555 1_555

#END
