
#######################################################################
#
#                 Cambridge Crystallographic Data Centre
#                                CCDC 
#
#######################################################################
#
# If this CIF has been generated from an entry in the Cambridge 
# Structural Database, then it will include bibliographic, chemical, 
# crystal, experimental, refinement or atomic coordinate data resulting 
# from the CCDC's data processing and validation procedures.
#
#######################################################################

data_HUTJEM01
_symmetry_cell_setting           orthorhombic
_symmetry_space_group_name_H-M   'P b c a'
_symmetry_Int_Tables_number      61
_space_group_name_Hall           '-P 2ac 2ab'
loop_
_symmetry_equiv_pos_site_id
_symmetry_equiv_pos_as_xyz
1 x,y,z
2 1/2-x,-y,1/2+z
3 1/2+x,1/2-y,-z
4 -x,1/2+y,1/2-z
5 -x,-y,-z
6 1/2+x,y,1/2-z
7 1/2-x,1/2+y,z
8 x,1/2-y,1/2+z
_cell_length_a                   10.5468(8)
_cell_length_b                   7.5683(7)
_cell_length_c                   24.711(2)
_cell_angle_alpha                90
_cell_angle_beta                 90
_cell_angle_gamma                90
_cell_volume                     1972.47
loop_
_atom_site_label
_atom_site_type_symbol
_atom_site_fract_x
_atom_site_fract_y
_atom_site_fract_z
In1 In 0.313221(11) 0.531870(18) 0.573577(6)
S1 S 0.27004(4) 0.79024(7) 0.63958(2)
C1 C 0.18245(19) 0.5616(3) 0.50623(10)
H1 H 0.1588 0.4471 0.4929
H2 H 0.2227 0.6275 0.4778
H3 H 0.1081 0.6235 0.5182
C2 C 0.51399(18) 0.4781(3) 0.57828(12)
H4 H 0.5606 0.5833 0.5697
H5 H 0.5356 0.3866 0.5530
H6 H 0.5351 0.4403 0.6143
C3 C 0.42897(18) 0.8360(3) 0.66220(9)
C4 C 0.4726(2) 0.7445(3) 0.70722(11)
H7 H 0.4195 0.6649 0.7248
C5 C 0.5957(2) 0.7714(4) 0.72625(13)
H8 H 0.6244 0.7096 0.7564
C6 C 0.6753(2) 0.8899(4) 0.70025(13)
H9 H 0.7575 0.9071 0.7128
C7 C 0.6319(2) 0.9829(3) 0.65545(12)
H10 H 0.6851 1.0631 0.6382
C8 C 0.50846(19) 0.9563(3) 0.63618(11)
H11 H 0.4796 1.0186 0.6062
In1F In 0.186779(11) 1.031870(18) 0.573577(6)
S1F S 0.22996(4) 0.29024(7) 0.63958(2)
loop_
_geom_bond_atom_site_label_1
_geom_bond_atom_site_label_2
_geom_bond_site_symmetry_1
_geom_bond_site_symmetry_2
In1 S1 1_555 1_555
S1 C3 1_555 1_555
C1 In1 1_555 1_555
H1 C1 1_555 1_555
H2 C1 1_555 1_555
H3 C1 1_555 1_555
C2 In1 1_555 1_555
H4 C2 1_555 1_555
H5 C2 1_555 1_555
H6 C2 1_555 1_555
C3 C4 1_555 1_555
C4 H7 1_555 1_555
C5 C4 1_555 1_555
H8 C5 1_555 1_555
C6 C5 1_555 1_555
H9 C6 1_555 1_555
C7 C6 1_555 1_555
H10 C7 1_555 1_555
C8 C3 1_555 1_555
H11 C8 1_555 1_555
In1F S1 1_555 1_555
S1F In1 1_555 1_555
C7 C8 1_555 1_555

#END
