
#######################################################################
#
#                 Cambridge Crystallographic Data Centre
#                                CCDC 
#
#######################################################################
#
# If this CIF has been generated from an entry in the Cambridge 
# Structural Database, then it will include bibliographic, chemical, 
# crystal, experimental, refinement or atomic coordinate data resulting 
# from the CCDC's data processing and validation procedures.
#
#######################################################################

data_HUTJIQ
_symmetry_cell_setting           monoclinic
_symmetry_space_group_name_H-M   'P 21/c'
_symmetry_Int_Tables_number      14
_space_group_name_Hall           '-P 2ybc'
loop_
_symmetry_equiv_pos_site_id
_symmetry_equiv_pos_as_xyz
1 x,y,z
2 -x,1/2+y,1/2-z
3 -x,-y,-z
4 x,1/2-y,1/2+z
_cell_length_a                   13.1942(13)
_cell_length_b                   8.9451(9)
_cell_length_c                   17.4003(17)
_cell_angle_alpha                90
_cell_angle_beta                 91.973(1)
_cell_angle_gamma                90
_cell_volume                     2052.43
loop_
_atom_site_label
_atom_site_type_symbol
_atom_site_fract_x
_atom_site_fract_y
_atom_site_fract_z
In1 In 0.474618(10) 0.701753(15) 0.179279(7)
S1 S 0.56876(3) 0.47861(5) 0.24223(2)
C1 C 0.58740(18) 0.8244(3) 0.12020(13)
H1 H 0.6196 0.7587 0.0831
H2 H 0.6388 0.8617 0.1574
H3 H 0.5555 0.9090 0.0930
C2 C 0.32050(15) 0.6250(2) 0.17277(12)
H4 H 0.2750 0.7082 0.1840
H5 H 0.3116 0.5450 0.2104
H6 H 0.3045 0.5869 0.1210
C3 C 0.69766(13) 0.5355(2) 0.22808(10)
C4 C 0.74712(14) 0.6310(2) 0.28302(10)
C5 C 0.83311(15) 0.7082(2) 0.26032(11)
H7 H 0.8646 0.7761 0.2957
C6 C 0.87488(14) 0.6908(2) 0.18863(11)
C7 C 0.83138(14) 0.5837(2) 0.14035(10)
H8 H 0.8623 0.5645 0.0928
C8 C 0.74477(14) 0.5025(2) 0.15755(10)
C9 C 0.71521(14) 0.6516(2) 0.36802(10)
C10 C 0.70986(17) 0.4989(2) 0.40789(11)
H9 H 0.7752 0.4476 0.4043
H10 H 0.6565 0.4383 0.3827
H11 H 0.6945 0.5131 0.4621
C11 C 0.61308(16) 0.7331(2) 0.37491(11)
H12 H 0.6047 0.7636 0.4284
H13 H 0.5576 0.6659 0.3589
H14 H 0.6119 0.8218 0.3418
C12 C 0.79402(17) 0.7436(3) 0.41509(11)
H15 H 0.7743 0.7482 0.4688
H16 H 0.7972 0.8451 0.3941
H17 H 0.8607 0.6961 0.4123
C13 C 0.96397(16) 0.7882(2) 0.16430(12)
C14 C 0.9208(2) 0.9373(4) 0.1355(2)
H18 H 0.8857 0.9870 0.1772
H19 H 0.8728 0.9194 0.0923
H20 H 0.9761 1.0011 0.1186
C15 C 1.0384(2) 0.8184(4) 0.23063(15)
H21 H 1.0634 0.7233 0.2518
H22 H 1.0044 0.8745 0.2707
H23 H 1.0955 0.8770 0.2123
C16 C 1.0214(3) 0.7173(4) 0.0995(2)
H24 H 1.0772 0.7830 0.0854
H25 H 0.9752 0.7028 0.0547
H26 H 1.0487 0.6204 0.1164
C17 C 0.70849(14) 0.3817(2) 0.09842(10)
C18 C 0.79109(17) 0.3485(3) 0.04000(12)
H27 H 0.8544 0.3216 0.0677
H28 H 0.8021 0.4375 0.0085
H29 H 0.7691 0.2654 0.0068
C19 C 0.68897(17) 0.2310(2) 0.13769(12)
H30 H 0.6308 0.2404 0.1709
H31 H 0.7491 0.2018 0.1687
H32 H 0.6745 0.1546 0.0985
C20 C 0.61339(16) 0.4307(2) 0.05132(11)
H33 H 0.5955 0.3537 0.0132
H34 H 0.6271 0.5251 0.0250
H35 H 0.5569 0.4446 0.0858
In1A In 0.525382(10) 0.201753(15) 0.320721(7)
S1A S 0.43124(3) 0.97861(5) 0.25777(2)
loop_
_geom_bond_atom_site_label_1
_geom_bond_atom_site_label_2
_geom_bond_site_symmetry_1
_geom_bond_site_symmetry_2
In1 S1 1_555 1_555
S1 C3 1_555 1_555
C1 In1 1_555 1_555
H1 C1 1_555 1_555
H2 C1 1_555 1_555
H3 C1 1_555 1_555
C2 In1 1_555 1_555
H4 C2 1_555 1_555
H5 C2 1_555 1_555
H6 C2 1_555 1_555
C3 C4 1_555 1_555
C4 C5 1_555 1_555
C5 H7 1_555 1_555
C6 C5 1_555 1_555
C7 C6 1_555 1_555
H8 C7 1_555 1_555
C8 C3 1_555 1_555
C9 C4 1_555 1_555
C10 C9 1_555 1_555
H9 C10 1_555 1_555
H10 C10 1_555 1_555
H11 C10 1_555 1_555
C11 C9 1_555 1_555
H12 C11 1_555 1_555
H13 C11 1_555 1_555
H14 C11 1_555 1_555
C12 C9 1_555 1_555
H15 C12 1_555 1_555
H16 C12 1_555 1_555
H17 C12 1_555 1_555
C13 C6 1_555 1_555
C14 C13 1_555 1_555
H18 C14 1_555 1_555
H19 C14 1_555 1_555
H20 C14 1_555 1_555
C15 C13 1_555 1_555
H21 C15 1_555 1_555
H22 C15 1_555 1_555
H23 C15 1_555 1_555
C16 C13 1_555 1_555
H24 C16 1_555 1_555
H25 C16 1_555 1_555
H26 C16 1_555 1_555
C17 C8 1_555 1_555
C18 C17 1_555 1_555
H27 C18 1_555 1_555
H28 C18 1_555 1_555
H29 C18 1_555 1_555
C19 C17 1_555 1_555
H30 C19 1_555 1_555
H31 C19 1_555 1_555
H32 C19 1_555 1_555
C20 C17 1_555 1_555
H33 C20 1_555 1_555
H34 C20 1_555 1_555
H35 C20 1_555 1_555
In1A S1 1_555 1_555
S1A In1 1_555 1_555
C7 C8 1_555 1_555

#END
