
#######################################################################
#
#                 Cambridge Crystallographic Data Centre
#                                CCDC 
#
#######################################################################
#
# If this CIF has been generated from an entry in the Cambridge 
# Structural Database, then it will include bibliographic, chemical, 
# crystal, experimental, refinement or atomic coordinate data resulting 
# from the CCDC's data processing and validation procedures.
#
#######################################################################

data_HUTREU
_symmetry_cell_setting           monoclinic
_symmetry_space_group_name_H-M   'C 2/c'
_symmetry_Int_Tables_number      15
_space_group_name_Hall           '-C 2yn'
loop_
_symmetry_equiv_pos_site_id
_symmetry_equiv_pos_as_xyz
1 x,y,z
2 -x,y,1/2-z
3 1/2+x,1/2+y,z
4 1/2-x,1/2+y,1/2-z
5 -x,-y,-z
6 x,-y,1/2+z
7 1/2-x,1/2-y,-z
8 1/2+x,1/2-y,1/2+z
_cell_length_a                   8.0280(12)
_cell_length_b                   10.3957(15)
_cell_length_c                   20.766(3)
_cell_angle_alpha                90
_cell_angle_beta                 99.657(2)
_cell_angle_gamma                90
_cell_volume                     1708.5
loop_
_atom_site_label
_atom_site_type_symbol
_atom_site_fract_x
_atom_site_fract_y
_atom_site_fract_z
Nd1 Nd 0.5000 0.54379(3) 0.2500
Ag1 Ag 1.0000 0.62071(4) 0.2500
C1 C 0.8460(5) 0.4876(4) 0.36385(17)
C2 C 0.7294(5) 0.5486(4) 0.40544(18)
C3 C 0.7741(5) 0.5589(4) 0.47222(19)
H1 H 0.8772 0.5270 0.4933
C4 C 0.6633(5) 0.6173(4) 0.50758(18)
C5 C 0.5073(5) 0.6605(4) 0.47505(19)
H2 H 0.4310 0.7011 0.4974
C6 C 0.4698(5) 0.6406(4) 0.40803(19)
C7 C 0.2992(5) 0.6716(4) 0.36860(18)
N1 N 0.5802(4) 0.5886(3) 0.37333(15)
O1 O 0.7869(3) 0.4768(3) 0.30285(12)
O2 O 0.9863(4) 0.4516(3) 0.39002(14)
O3 O 0.7033(4) 0.6318(3) 0.57304(13)
H3 H 0.7977 0.6022 0.5858
O4 O 0.1952(4) 0.7318(3) 0.39413(14)
O5 O 0.2752(4) 0.6287(3) 0.30968(13)
O6 O 0.4411(4) 0.3422(3) 0.31211(13)
H4 H 0.3829 0.3687 0.3418
H5 H 0.5306 0.3034 0.3372
O7 O 0.5000 0.7836(5) 0.2500
H6 H 0.5732 0.8280 0.2347
Ag1_2 Ag 0.0000 0.62071(4) 0.2500
Ag1B Ag 0.5000 0.12071(4) 0.2500
C1A C 0.1540(5) 0.4876(4) 0.13615(17)
C2A C 0.2706(5) 0.5486(4) 0.09456(18)
C3A C 0.2259(5) 0.5589(4) 0.02778(19)
H1A H 0.1228 0.5270 0.0067
C4A C 0.3367(5) 0.6173(4) -0.00758(18)
C5A C 0.4927(5) 0.6605(4) 0.02495(19)
H2A H 0.5690 0.7011 0.0026
C6A C 0.5302(5) 0.6406(4) 0.09197(19)
C7A C 0.7008(5) 0.6716(4) 0.13140(18)
N1A N 0.4198(4) 0.5886(3) 0.12667(15)
O1A O 0.2131(3) 0.4768(3) 0.19715(12)
O1A_2 O 1.2131(3) 0.4768(3) 0.19715(12)
O2A O 0.0137(4) 0.4516(3) 0.10998(14)
O3A O 0.2967(4) 0.6318(3) -0.07304(13)
H3A H 0.2023 0.6022 -0.0858
O4A O 0.8048(4) 0.7318(3) 0.10587(14)
O5A O 0.7248(4) 0.6287(3) 0.19032(13)
O5_2 O 1.2752(4) 0.6287(3) 0.30968(13)
O6A O 0.5589(4) 0.3422(3) 0.18789(13)
O6B O 0.9411(4) 0.8422(3) 0.31211(13)
O6C O 1.0589(4) 0.8422(3) 0.18789(13)
H4A H 0.6171 0.3687 0.1582
H4B H 0.8829 0.8687 0.3418
H4C H 1.1171 0.8687 0.1582
H5A H 0.4694 0.3034 0.1628
H5B H 1.0306 0.8034 0.3372
H5C H 0.9694 0.8034 0.1628
H6A H 0.4268 0.8280 0.2653
loop_
_geom_bond_atom_site_label_1
_geom_bond_atom_site_label_2
_geom_bond_site_symmetry_1
_geom_bond_site_symmetry_2
Nd1 N1 1_555 1_555
Ag1 O1 1_555 1_555
C1 C2 1_555 1_555
C2 C3 1_555 1_555
C3 H1 1_555 1_555
C4 C3 1_555 1_555
C5 C4 1_555 1_555
H2 C5 1_555 1_555
C6 C5 1_555 1_555
C7 C6 1_555 1_555
N1 C2 1_555 1_555
O1 Nd1 1_555 1_555
O2 C1 1_555 1_555
O3 C4 1_555 1_555
H3 O3 1_555 1_555
O4 C7 1_555 1_555
O5 Nd1 1_555 1_555
O6 Nd1 1_555 1_555
H4 O6 1_555 1_555
H5 O6 1_555 1_555
O7 Nd1 1_555 1_555
H6 O7 1_555 1_555
Ag1_2 O5 1_555 1_555
Ag1B O6 1_555 1_555
C1A C2A 1_555 1_555
C2A C3A 1_555 1_555
C3A H1A 1_555 1_555
C4A C3A 1_555 1_555
C5A C4A 1_555 1_555
H2A C5A 1_555 1_555
C6A C5A 1_555 1_555
C7A C6A 1_555 1_555
N1A Nd1 1_555 1_555
O1A Nd1 1_555 1_555
O1A_2 Ag1 1_555 1_555
O2A C1A 1_555 1_555
O3A C4A 1_555 1_555
H3A O3A 1_555 1_555
O4A C7A 1_555 1_555
O5A Nd1 1_555 1_555
O5_2 Ag1 1_555 1_555
O6A Nd1 1_555 1_555
O6B Ag1 1_555 1_555
O6C Ag1 1_555 1_555
H4A O6A 1_555 1_555
H4B O6B 1_555 1_555
H4C O6C 1_555 1_555
H5A O6A 1_555 1_555
H5B O6B 1_555 1_555
H5C O6C 1_555 1_555
H6A O7 1_555 1_555
Ag1 O5A 1_555 1_555
C1 O1 1_555 1_555
C6 N1 1_555 1_555
C7 O5 1_555 1_555
Ag1_2 O1A 1_555 1_555
Ag1B O6A 1_555 1_555
C1A O1A 1_555 1_555
C2A N1A 1_555 1_555
C6A N1A 1_555 1_555
C7A O5A 1_555 1_555

#END
