
#######################################################################
#
#                 Cambridge Crystallographic Data Centre
#                                CCDC 
#
#######################################################################
#
# If this CIF has been generated from an entry in the Cambridge 
# Structural Database, then it will include bibliographic, chemical, 
# crystal, experimental, refinement or atomic coordinate data resulting 
# from the CCDC's data processing and validation procedures.
#
#######################################################################

data_HUTSAR
_symmetry_cell_setting           orthorhombic
_symmetry_space_group_name_H-M   'P n n a'
_symmetry_Int_Tables_number      52
_space_group_name_Hall           '-P 2a 2bc'
loop_
_symmetry_equiv_pos_site_id
_symmetry_equiv_pos_as_xyz
1 x,y,z
2 1/2-x,-y,z
3 1/2-x,1/2+y,1/2-z
4 x,1/2-y,1/2-z
5 -x,-y,-z
6 1/2+x,y,-z
7 1/2+x,1/2-y,1/2+z
8 -x,1/2+y,1/2+z
_cell_length_a                   8.2405(11)
_cell_length_b                   14.5013(19)
_cell_length_c                   13.8205(17)
_cell_angle_alpha                90
_cell_angle_beta                 90
_cell_angle_gamma                90
_cell_volume                     1651.52
loop_
_atom_site_label
_atom_site_type_symbol
_atom_site_fract_x
_atom_site_fract_y
_atom_site_fract_z
Tb1 Tb 0.02755(4) -0.2500 0.2500
Ag1 Ag 0.44473(6) -0.48780(4) 0.18112(3)
Ag2 Ag -0.2500 -0.5000 0.05099(5)
O1 O 0.2282(5) -0.3677(3) 0.2586(3)
O2 O 0.4154(5) -0.4476(3) 0.3409(3)
O3 O 0.3191(4) -0.3381(2) 0.6859(2)
O4 O -0.0699(5) -0.0969(3) 0.5320(2)
O5 O -0.0462(4) -0.1382(2) 0.3783(2)
O6 O 0.7500 0.0000 0.2751(4)
H1 H 0.7589 -0.0536 0.2417
N1 N 0.1422(5) -0.2766(3) 0.4142(3)
C1 C 0.3015(6) -0.3916(4) 0.3367(4)
C2 C 0.2442(6) -0.3468(3) 0.4278(4)
C3 C 0.3021(6) -0.3725(4) 0.5180(3)
H2 H 0.3715 -0.4227 0.5242
C4 C 0.2548(6) -0.3217(3) 0.6003(3)
C5 C 0.1445(6) -0.2484(3) 0.5855(4)
H3 H 0.1061 -0.2143 0.6376
C6 C 0.0944(6) -0.2282(3) 0.4925(4)
C7 C -0.0152(6) -0.1490(4) 0.4672(4)
Tb1E Tb 0.52755(4) -0.2500 0.7500
Tb1E_2 Tb 0.52755(4) -0.2500 -0.2500
Ag1C Ag 0.44473(6) -0.01220(4) 0.31888(3)
Ag1B Ag 0.05527(6) 0.01220(4) 0.31888(3)
Ag1A Ag 0.05527(6) -0.51220(4) 0.18112(3)
Ag1F Ag -0.05527(6) -0.01220(4) 0.68112(3)
Ag1E Ag -0.05527(6) -0.48780(4) -0.18112(3)
Ag1B_2 Ag 1.05527(6) 0.01220(4) 0.31888(3)
Ag2B Ag -0.2500 0.0000 0.44901(5)
Ag2B_2 Ag 0.7500 0.0000 0.44901(5)
O1C O 0.2282(5) -0.1323(3) 0.2414(3)
O1A O 0.2718(5) -0.6323(3) 0.2586(3)
O1B O 0.2718(5) 0.1323(3) 0.2414(3)
O2C O 0.4154(5) -0.0524(3) 0.1591(3)
O3C O 0.3191(4) -0.1619(2) -0.1859(2)
O3E O -0.1809(4) -0.3381(2) 0.3141(2)
O3F O -0.1809(4) -0.1619(2) 0.1859(2)
O4C O -0.0699(5) -0.4031(3) -0.0320(2)
O4F O 0.4301(5) -0.4031(3) 0.0320(2)
O4E O 0.4301(5) -0.0969(3) 0.4680(2)
O4B O -0.4301(5) -0.5969(3) -0.0320(2)
O5C O -0.0462(4) -0.3618(2) 0.1217(2)
O5B O 0.5462(4) -0.6382(2) 0.1217(2)
O5A O 0.5462(4) 0.1382(2) 0.3783(2)
O5B_2 O -0.4538(4) -0.6382(2) 0.1217(2)
O6B O 0.7500 -0.5000 0.2249(4)
O6B_2 O -0.2500 -0.5000 0.2249(4)
H1B H 0.7411 -0.5536 0.2583
H1C H 0.7589 -0.4464 0.2583
H1A H 0.7411 0.0536 0.2417
H1B_2 H -0.2589 -0.5536 0.2583
H1C_2 H -0.2411 -0.4464 0.2583
N1C N 0.1422(5) -0.2234(3) 0.0858(3)
C1C C 0.3015(6) -0.1084(4) 0.1633(4)
C2C C 0.2442(6) -0.1532(3) 0.0722(4)
C3C C 0.3021(6) -0.1275(4) -0.0180(3)
H2C H 0.3715 -0.0773 -0.0242
C4C C 0.2548(6) -0.1783(3) -0.1003(3)
C5C C 0.1445(6) -0.2516(3) -0.0855(4)
H3C H 0.1061 -0.2857 -0.1376
C6C C 0.0944(6) -0.2718(3) 0.0075(4)
C7C C -0.0152(6) -0.3510(4) 0.0328(4)
loop_
_geom_bond_atom_site_label_1
_geom_bond_atom_site_label_2
_geom_bond_site_symmetry_1
_geom_bond_site_symmetry_2
Tb1 O1 1_555 1_555
Ag1 O1 1_555 1_555
Ag2 O4C 1_555 1_555
O1 C1 1_555 1_555
O2 Ag1 1_555 1_555
O3 C4 1_555 1_555
O4 C7 1_555 1_555
O5 Tb1 1_555 1_555
O6 H1 1_555 1_555
N1 Tb1 1_555 1_555
C1 O2 1_555 1_555
C2 N1 1_555 1_555
C3 C2 1_555 1_555
H2 C3 1_555 1_555
C4 C3 1_555 1_555
C5 C4 1_555 1_555
H3 C5 1_555 1_555
C6 N1 1_555 1_555
C7 O5 1_555 1_555
Tb1E O3 1_555 1_555
Tb1E_2 O3C 1_555 1_555
Ag1C O6 1_555 1_555
Ag1B O5 1_555 1_555
Ag1A O1 1_555 1_555
Ag1F O4 1_555 1_555
Ag1E O4C 1_555 1_555
Ag1B_2 O6 1_555 1_555
Ag2B O4 1_555 1_555
Ag2B_2 O6 1_555 1_555
O1C Tb1 1_555 1_555
O1A Ag1 1_555 1_555
O1B Ag1C 1_555 1_555
O2C Ag1C 1_555 1_555
O3C C4C 1_555 1_555
O3E Tb1 1_555 1_555
O3F Tb1 1_555 1_555
O4C C7C 1_555 1_555
O4F Ag1 1_555 1_555
O4E Ag1C 1_555 1_555
O4B Ag2 1_555 1_555
O5C Tb1 1_555 1_555
O5B Ag1 1_555 1_555
O5A Ag1C 1_555 1_555
O5B_2 Ag2 1_555 1_555
O6B Ag1 1_555 1_555
O6B_2 Ag2 1_555 1_555
H1B O6B 1_555 1_555
H1C O6B 1_555 1_555
H1A O6 1_555 1_555
H1B_2 O6B_2 1_555 1_555
H1C_2 O6B_2 1_555 1_555
N1C Tb1 1_555 1_555
C1C O1C 1_555 1_555
C2C N1C 1_555 1_555
C3C C2C 1_555 1_555
H2C C3C 1_555 1_555
C4C C3C 1_555 1_555
C5C C4C 1_555 1_555
H3C C5C 1_555 1_555
C6C N1C 1_555 1_555
C7C O5C 1_555 1_555
Ag2 O5C 1_555 1_555
O5 Ag2B 1_555 1_555
C1 C2 1_555 1_555
C5 C6 1_555 1_555
C6 C7 1_555 1_555
Ag1C O1C 1_555 1_555
Ag1B O1C 1_555 1_555
Ag1B O1B 1_555 1_555
Ag1A O1A 1_555 1_555
Ag1A O5C 1_555 1_555
Ag1A O6B_2 1_555 1_555
Ag2B_2 O5A 1_555 1_555
O2C C1C 1_555 1_555
C1C C2C 1_555 1_555
C5C C6C 1_555 1_555
C6C C7C 1_555 1_555

#END
