
#######################################################################
#
#                 Cambridge Crystallographic Data Centre
#                                CCDC 
#
#######################################################################
#
# If this CIF has been generated from an entry in the Cambridge 
# Structural Database, then it will include bibliographic, chemical, 
# crystal, experimental, refinement or atomic coordinate data resulting 
# from the CCDC's data processing and validation procedures.
#
#######################################################################

data_HUTTEW
_symmetry_cell_setting           monoclinic
_symmetry_space_group_name_H-M   'P 21/c'
_symmetry_Int_Tables_number      14
_space_group_name_Hall           '-P 2ybc'
loop_
_symmetry_equiv_pos_site_id
_symmetry_equiv_pos_as_xyz
1 x,y,z
2 -x,1/2+y,1/2-z
3 -x,-y,-z
4 x,1/2-y,1/2+z
_cell_length_a                   26.240(3)
_cell_length_b                   11.9953(13)
_cell_length_c                   13.383(2)
_cell_angle_alpha                90
_cell_angle_beta                 93.196(2)
_cell_angle_gamma                90
_cell_volume                     4205.84
loop_
_atom_site_label
_atom_site_type_symbol
_atom_site_fract_x
_atom_site_fract_y
_atom_site_fract_z
Zn1 Zn 0.232401(14) 0.13256(3) 0.09650(3)
Zn2 Zn -0.265080(14) -0.01150(3) -0.36210(3)
F1 F 0.11547(7) -0.17647(15) -0.42193(13)
F2 F 0.04646(7) -0.22813(15) -0.50215(12)
F3 F 0.05354(7) -0.06043(16) -0.44548(13)
F4 F 0.01534(7) -0.38236(14) -0.38114(13)
F5 F 0.09450(7) -0.36856(15) -0.33299(13)
F6 F 0.03694(7) -0.36649(14) -0.22433(13)
F7 F 0.54549(7) 0.23572(17) -0.02512(13)
F8 F 0.55184(7) 0.06743(17) 0.03045(13)
F9 F 0.61522(7) 0.17994(16) 0.04992(13)
F10 F 0.54117(7) 0.37315(15) 0.25372(14)
F11 F 0.51452(7) 0.38803(15) 0.09997(14)
F12 F 0.59481(7) 0.37677(16) 0.13745(14)
O1 O 0.15717(8) 0.14434(18) -0.00211(15)
O2 O 0.20751(8) -0.00275(17) 0.01456(14)
O3 O -0.18927(8) -0.06335(16) -0.21505(15)
O4 O -0.20124(8) -0.09321(16) -0.37889(15)
O5 O 0.30290(8) 0.07843(17) 0.13731(16)
O6 O 0.32201(8) 0.08265(17) 0.30201(16)
O7 O 0.66703(8) -0.13508(19) 0.46162(16)
O8 O 0.70607(8) 0.02452(17) 0.50504(14)
O9 O 0.26234(9) 0.21791(17) -0.02644(17)
H1 H 0.2830(9) 0.2661(19) -0.002(2)
H2 H 0.2406(9) 0.252(2) -0.064(2)
N1 N 0.22914(10) 0.2867(2) 0.16929(18)
N2 N 0.25463(9) 0.8530(2) 0.31001(18)
C1 C 0.16795(12) 0.0461(3) -0.0235(2)
C2 C 0.13423(11) -0.0192(3) -0.0966(2)
C3 C 0.09761(12) 0.0336(3) -0.1584(2)
H3 H 0.0923 0.1116 -0.1524
C4 C 0.06859(12) -0.0274(3) -0.2293(2)
H4 H 0.0435 0.0096 -0.2711
C5 C 0.07561(11) -0.1418(3) -0.2400(2)
C6 C 0.11199(12) -0.1946(3) -0.1768(2)
H5 H 0.1173 -0.2727 -0.1824
C7 C 0.14063(11) -0.1334(3) -0.1057(2)
H6 H 0.1651 -0.1705 -0.0625
C8 C 0.04311(12) -0.2029(3) -0.3232(2)
C9 C 0.06418(12) -0.1671(3) -0.4237(2)
C10 C 0.04779(12) -0.3315(3) -0.3152(2)
C11 C -0.01408(12) -0.1738(2) -0.3185(2)
C12 C -0.03553(12) -0.1674(2) -0.2259(2)
H7 H -0.0146 -0.1801 -0.1668
C13 C -0.08668(12) -0.1430(3) -0.2178(2)
H8 H -0.1004 -0.1385 -0.1537
C14 C -0.11829(11) -0.1250(2) -0.3040(2)
C15 C -0.09679(12) -0.1327(3) -0.3962(2)
H9 H -0.1177 -0.1204 -0.4554
C16 C -0.04599(12) -0.1576(3) -0.4040(2)
H10 H -0.0326 -0.1637 -0.4682
C17 C -0.17255(12) -0.0927(2) -0.2963(2)
C18 C 0.33315(13) 0.0926(3) 0.2123(2)
C19 C 0.38713(12) 0.1243(3) 0.1960(2)
C20 C 0.42170(12) 0.1428(3) 0.2768(2)
H11 H 0.4108 0.1367 0.3431
C21 C 0.47156(12) 0.1699(2) 0.2614(2)
H12 H 0.4947 0.1823 0.3175
C22 C 0.48891(12) 0.1794(3) 0.1653(2)
C23 C 0.45367(12) 0.1644(3) 0.0844(2)
H13 H 0.4642 0.1732 0.0181
C24 C 0.40352(12) 0.1367(3) 0.0999(2)
H14 H 0.3800 0.1262 0.0441
C25 C 0.54532(12) 0.2092(3) 0.1539(2)
C26 C 0.56417(13) 0.1730(3) 0.0513(3)
C27 C 0.54916(13) 0.3376(3) 0.1614(3)
C28 C 0.57984(12) 0.1490(3) 0.2339(2)
C29 C 0.61804(11) 0.2024(3) 0.2923(2)
H15 H 0.6240 0.2798 0.2834
C30 C 0.64737(11) 0.1431(3) 0.3634(2)
H16 H 0.6730 0.1810 0.4032
C31 C 0.64029(11) 0.0298(3) 0.3778(2)
C32 C 0.60260(12) -0.0235(3) 0.3186(2)
H17 H 0.5973 -0.1013 0.3265
C33 C 0.57267(12) 0.0351(3) 0.2483(2)
H18 H 0.5468 -0.0028 0.2092
C34 C 0.67294(12) -0.0330(3) 0.4540(2)
C35 C 0.19613(13) 0.3626(3) 0.1319(2)
H19 H 0.1701 0.3394 0.0842
C36 C 0.19834(12) 0.4733(3) 0.1595(2)
H20 H 0.1740 0.5246 0.1314
C37 C 0.23606(12) 0.5094(3) 0.2283(2)
C38 C 0.26845(13) 0.4293(3) 0.2702(2)
H21 H 0.2936 0.4491 0.3210
C39 C 0.26403(13) 0.3212(3) 0.2381(2)
H22 H 0.2873 0.2678 0.2666
C40 C 0.24220(11) 0.6286(3) 0.2561(2)
C41 C 0.22881(12) 0.7148(3) 0.1901(2)
H23 H 0.2152 0.6976 0.1247
C42 C 0.23512(11) 0.8249(3) 0.2185(2)
H24 H 0.2254 0.8822 0.1722
C43 C 0.26288(12) 0.6586(3) 0.3495(2)
H25 H 0.2732 0.6028 0.3968
C44 C 0.26851(12) 0.7695(3) 0.3735(2)
H26 H 0.2829 0.7884 0.4381
Zn1B Zn -0.232401(14) -0.13256(3) -0.09650(3)
Zn2B Zn 0.265080(14) 0.01150(3) 0.36210(3)
Zn2_2 Zn 0.734920(14) -0.01150(3) 0.63790(3)
Zn2B_2 Zn 0.265080(14) 1.01150(3) 0.36210(3)
O3B O 0.18927(8) 0.06335(16) 0.21505(15)
O6B O -0.32201(8) -0.08265(17) -0.30201(16)
O8_2 O -0.29393(8) 0.02452(17) -0.49496(14)
N2B N -0.25463(9) 0.1470(2) -0.31001(18)
loop_
_geom_bond_atom_site_label_1
_geom_bond_atom_site_label_2
_geom_bond_site_symmetry_1
_geom_bond_site_symmetry_2
Zn1 O1 1_555 1_555
Zn2 O4 1_555 1_555
F1 C9 1_555 1_555
F2 C9 1_555 1_555
F3 C9 1_555 1_555
F4 C10 1_555 1_555
F5 C10 1_555 1_555
F6 C10 1_555 1_555
F7 C26 1_555 1_555
F8 C26 1_555 1_555
F9 C26 1_555 1_555
F10 C27 1_555 1_555
F11 C27 1_555 1_555
F12 C27 1_555 1_555
O1 C1 1_555 1_555
O2 Zn1 1_555 1_555
O3 C17 1_555 1_555
O4 C17 1_555 1_555
O5 Zn1 1_555 1_555
O6 C18 1_555 1_555
O7 C34 1_555 1_555
O8 C34 1_555 1_555
O9 Zn1 1_555 1_555
H1 O9 1_555 1_555
H2 O9 1_555 1_555
N1 Zn1 1_555 1_555
N2 C42 1_555 1_555
C1 O2 1_555 1_555
C2 C1 1_555 1_555
C3 C2 1_555 1_555
H3 C3 1_555 1_555
C4 C3 1_555 1_555
H4 C4 1_555 1_555
C5 C4 1_555 1_555
C6 C5 1_555 1_555
H5 C6 1_555 1_555
C7 C2 1_555 1_555
H6 C7 1_555 1_555
C8 C5 1_555 1_555
C9 C8 1_555 1_555
C10 C8 1_555 1_555
C11 C8 1_555 1_555
C12 C11 1_555 1_555
H7 C12 1_555 1_555
C13 C12 1_555 1_555
H8 C13 1_555 1_555
C14 C13 1_555 1_555
C15 C14 1_555 1_555
H9 C15 1_555 1_555
C16 C11 1_555 1_555
H10 C16 1_555 1_555
C17 C14 1_555 1_555
C18 O5 1_555 1_555
C19 C18 1_555 1_555
C20 C19 1_555 1_555
H11 C20 1_555 1_555
C21 C20 1_555 1_555
H12 C21 1_555 1_555
C22 C21 1_555 1_555
C23 C22 1_555 1_555
H13 C23 1_555 1_555
C24 C19 1_555 1_555
H14 C24 1_555 1_555
C25 C22 1_555 1_555
C26 C25 1_555 1_555
C27 C25 1_555 1_555
C28 C25 1_555 1_555
C29 C28 1_555 1_555
H15 C29 1_555 1_555
C30 C29 1_555 1_555
H16 C30 1_555 1_555
C31 C30 1_555 1_555
C32 C31 1_555 1_555
H17 C32 1_555 1_555
C33 C28 1_555 1_555
H18 C33 1_555 1_555
C34 C31 1_555 1_555
C35 N1 1_555 1_555
H19 C35 1_555 1_555
C36 C35 1_555 1_555
H20 C36 1_555 1_555
C37 C36 1_555 1_555
C38 C37 1_555 1_555
H21 C38 1_555 1_555
C39 N1 1_555 1_555
H22 C39 1_555 1_555
C40 C37 1_555 1_555
C41 C40 1_555 1_555
H23 C41 1_555 1_555
C42 C41 1_555 1_555
H24 C42 1_555 1_555
C43 C40 1_555 1_555
H25 C43 1_555 1_555
C44 N2 1_555 1_555
H26 C44 1_555 1_555
Zn1B O3 1_555 1_555
Zn2B O6 1_555 1_555
Zn2_2 O8 1_555 1_555
Zn2B_2 N2 1_555 1_555
O3B Zn1 1_555 1_555
O6B Zn2 1_555 1_555
O8_2 Zn2 1_555 1_555
N2B Zn2 1_555 1_555
C6 C7 1_555 1_555
C15 C16 1_555 1_555
C23 C24 1_555 1_555
C32 C33 1_555 1_555
C38 C39 1_555 1_555
C43 C44 1_555 1_555

#END
