
#######################################################################
#
#                 Cambridge Crystallographic Data Centre
#                                CCDC 
#
#######################################################################
#
# If this CIF has been generated from an entry in the Cambridge 
# Structural Database, then it will include bibliographic, chemical, 
# crystal, experimental, refinement or atomic coordinate data resulting 
# from the CCDC's data processing and validation procedures.
#
#######################################################################

data_HUTWUP02
_symmetry_cell_setting           orthorhombic
_symmetry_space_group_name_H-M   'P n m a'
_symmetry_Int_Tables_number      62
_space_group_name_Hall           '-P 2ac 2n'
loop_
_symmetry_equiv_pos_site_id
_symmetry_equiv_pos_as_xyz
1 x,y,z
2 1/2-x,-y,1/2+z
3 -x,1/2+y,-z
4 1/2+x,1/2-y,1/2-z
5 -x,-y,-z
6 1/2+x,y,1/2-z
7 x,1/2-y,z
8 1/2-x,1/2+y,1/2+z
_cell_length_a                   7.992(4)
_cell_length_b                   6.582(3)
_cell_length_c                   12.050(6)
_cell_angle_alpha                90
_cell_angle_beta                 90
_cell_angle_gamma                90
_cell_volume                     633.87
loop_
_atom_site_label
_atom_site_type_symbol
_atom_site_fract_x
_atom_site_fract_y
_atom_site_fract_z
Cu1 Cu 0.05820(9) 0.2500 0.34408(5)
N1 N 0.0417(3) -0.0381(4) 0.3718(2)
C1 C -0.0950(5) -0.1455(6) 0.3435(3)
H1 H -0.1920 -0.0767 0.3234
C2 C 0.1732(4) -0.1454(5) 0.4075(3)
H2 H 0.2673 -0.0767 0.4331
O1 O 0.4423(4) 0.2500 0.4906(3)
O2 O 0.3692(5) 0.2500 0.3181(3)
O3 O 0.6298(5) 0.2500 0.3608(3)
N2 N 0.4803(5) 0.2500 0.3921(4)
N1F N 0.0417(3) -0.4619(4) 0.3718(2)
C1F C -0.0950(5) -0.3545(6) 0.3435(3)
H1F H -0.1920 -0.4233 0.3234
C2F C 0.1732(4) -0.3546(5) 0.4075(3)
H2F H 0.2673 -0.4233 0.4331
Cu1_2 Cu 0.05820(9) -0.7500 0.34408(5)
Cu1C Cu 0.55820(9) 0.2500 0.15592(5)
N1F_2 N 0.0417(3) 0.5381(4) 0.3718(2)
O2C O -0.1308(5) 0.2500 0.1819(3)
O3C O 0.1298(5) 0.2500 0.1392(3)
loop_
_geom_bond_atom_site_label_1
_geom_bond_atom_site_label_2
_geom_bond_site_symmetry_1
_geom_bond_site_symmetry_2
Cu1 N1 1_555 1_555
N1 C1 1_555 1_555
C1 H1 1_555 1_555
C2 N1 1_555 1_555
H2 C2 1_555 1_555
O1 N2 1_555 1_555
O2 Cu1 1_555 1_555
O3 N2 1_555 1_555
N2 O2 1_555 1_555
N1F C1F 1_555 1_555
C1F C1 1_555 1_555
H1F C1F 1_555 1_555
C2F C2 1_555 1_555
H2F C2F 1_555 1_555
Cu1_2 N1F 1_555 1_555
Cu1C O2 1_555 1_555
N1F_2 Cu1 1_555 1_555
O2C Cu1 1_555 1_555
O3C Cu1 1_555 1_555
O3 Cu1C 1_555 1_555
N1F C2F 1_555 1_555

#END
