
#######################################################################
#
#                 Cambridge Crystallographic Data Centre
#                                CCDC 
#
#######################################################################
#
# If this CIF has been generated from an entry in the Cambridge 
# Structural Database, then it will include bibliographic, chemical, 
# crystal, experimental, refinement or atomic coordinate data resulting 
# from the CCDC's data processing and validation procedures.
#
#######################################################################

data_HUTYOK
_symmetry_cell_setting           monoclinic
_symmetry_space_group_name_H-M   'C 2/c'
_symmetry_Int_Tables_number      15
_space_group_name_Hall           '-C 2yn'
loop_
_symmetry_equiv_pos_site_id
_symmetry_equiv_pos_as_xyz
1 x,y,z
2 1/2+x,1/2+y,z
3 x,-y,1/2+z
4 1/2+x,1/2-y,1/2+z
5 -x,-y,-z
6 1/2-x,1/2-y,-z
7 -x,y,1/2-z
8 1/2-x,1/2+y,1/2-z
_cell_length_a                   16.373(3)
_cell_length_b                   5.4262(11)
_cell_length_c                   10.755(2)
_cell_angle_alpha                90
_cell_angle_beta                 97.89(3)
_cell_angle_gamma                90
_cell_volume                     946.463
loop_
_atom_site_label
_atom_site_type_symbol
_atom_site_fract_x
_atom_site_fract_y
_atom_site_fract_z
Zn1 Zn 0.0000 0.14005(13) 0.2500
O1 O -0.0768(2) -0.0966(7) 0.3186(3)
O2 O 0.09291(19) 0.4452(6) 0.2855(3)
O3 O 0.0600(2) 0.2115(7) 0.4338(3)
C1 C 0.1007(2) 0.3882(8) 0.3985(4)
C2 C 0.1581(3) 0.5296(11) 0.4961(4)
H1 H 0.1249 0.6336 0.5427
H2 H 0.1864 0.4120 0.5548
C3 C 0.2218(3) 0.6884(9) 0.4473(4)
H3 H 0.1944 0.8139 0.3924
H4 H 0.2546 0.5879 0.3982
H5 H -0.083(3) -0.227(10) 0.287(5)
H6 H -0.074(3) -0.139(9) 0.391(5)
C3E C 0.2782(3) 0.8116(9) 0.5527(4)
C2E C 0.3419(3) 0.9704(11) 0.5039(4)
C1E C 0.3993(2) 1.1118(8) 0.6015(4)
O2E O 0.40709(19) 1.0548(6) 0.7145(3)
O3E O 0.4400(2) 1.2885(7) 0.5662(3)
H1E H 0.3751 0.8664 0.4573
H2E H 0.3136 1.0880 0.4452
H3E H 0.3056 0.6861 0.6076
H4E H 0.2454 0.9121 0.6018
O1F O 0.0768(2) -0.0966(7) 0.1814(3)
H5F H 0.083(3) -0.227(10) 0.213(5)
H6F H 0.074(3) -0.139(9) 0.109(5)
O2F O -0.09291(19) 0.4452(6) 0.2145(3)
O3F O -0.0600(2) 0.2115(7) 0.0662(3)
Zn1C Zn 0.5000 1.35995(13) 0.7500
loop_
_geom_bond_atom_site_label_1
_geom_bond_atom_site_label_2
_geom_bond_site_symmetry_1
_geom_bond_site_symmetry_2
Zn1 O1 1_555 1_555
O1 H5 1_555 1_555
O2 Zn1 1_555 1_555
O3 Zn1 1_555 1_555
C1 O2 1_555 1_555
C2 C1 1_555 1_555
H1 C2 1_555 1_555
H2 C2 1_555 1_555
C3 C2 1_555 1_555
H3 C3 1_555 1_555
H4 C3 1_555 1_555
H6 O1 1_555 1_555
C3E C3 1_555 1_555
C2E C3E 1_555 1_555
C1E C2E 1_555 1_555
O2E C1E 1_555 1_555
O3E C1E 1_555 1_555
H1E C2E 1_555 1_555
H2E C2E 1_555 1_555
H3E C3E 1_555 1_555
H4E C3E 1_555 1_555
O1F Zn1 1_555 1_555
H5F O1F 1_555 1_555
H6F O1F 1_555 1_555
O2F Zn1 1_555 1_555
O3F Zn1 1_555 1_555
Zn1C O2E 1_555 1_555
O3 C1 1_555 1_555
O3E Zn1C 1_555 1_555

#END
