
#######################################################################
#
#                 Cambridge Crystallographic Data Centre
#                                CCDC 
#
#######################################################################
#
# If this CIF has been generated from an entry in the Cambridge 
# Structural Database, then it will include bibliographic, chemical, 
# crystal, experimental, refinement or atomic coordinate data resulting 
# from the CCDC's data processing and validation procedures.
#
#######################################################################

data_HUTZAX
_symmetry_cell_setting           monoclinic
_symmetry_space_group_name_H-M   'P 21/n'
_symmetry_Int_Tables_number      14
_space_group_name_Hall           '-P 2yn'
loop_
_symmetry_equiv_pos_site_id
_symmetry_equiv_pos_as_xyz
1 x,y,z
2 1/2+x,1/2-y,1/2+z
3 -x,-y,-z
4 1/2-x,1/2+y,1/2-z
_cell_length_a                   7.355(3)
_cell_length_b                   16.034(5)
_cell_length_c                   10.575(8)
_cell_angle_alpha                90
_cell_angle_beta                 102.64(2)
_cell_angle_gamma                90
_cell_volume                     1216.89
loop_
_atom_site_label
_atom_site_type_symbol
_atom_site_fract_x
_atom_site_fract_y
_atom_site_fract_z
Zn1 Zn 0.26482(7) 0.03761(3) 0.54940(5)
O1 O 0.4419(4) 0.13125(19) 0.5639(3)
O2 O 0.5811(4) 0.06464(19) 0.4267(3)
O3 O 1.4089(5) 0.5298(2) 0.1187(3)
O4 O 1.6508(4) 0.4464(2) 0.1972(3)
O5 O 1.1443(5) 0.3672(2) 0.5997(3)
C1 C 0.5759(6) 0.1239(2) 0.5071(4)
C2 C 0.7286(5) 0.1855(3) 0.5319(4)
C3 C 0.8405(6) 0.1967(3) 0.4415(4)
H1 H 0.8210 0.1619 0.3658
C4 C 0.9790(6) 0.2566(3) 0.4609(4)
H2 H 1.0544 0.2642 0.3983
C5 C 1.0081(6) 0.3063(3) 0.5715(4)
C6 C 0.9025(6) 0.2948(3) 0.6643(4)
H3 H 0.9268 0.3277 0.7421
C7 C 0.7617(6) 0.2355(3) 0.6434(4)
H4 H 0.6868 0.2281 0.7064
C8 C 1.2282(6) 0.3939(3) 0.4981(4)
C9 C 1.1311(6) 0.4449(3) 0.4017(4)
H5 H 1.0040 0.4597 0.3997
C10 C 1.2203(6) 0.4744(3) 0.3071(4)
H6 H 1.1561 0.5113 0.2407
C11 C 1.4053(5) 0.4505(2) 0.3091(4)
C12 C 1.4931(6) 0.4771(3) 0.2013(4)
C13 C 1.4997(6) 0.3983(3) 0.4078(4)
H7 H 1.6252 0.3813 0.4090
C14 C 1.4110(7) 0.3710(3) 0.5047(4)
H8 H 1.4764 0.3368 0.5745
O2B O 0.4189(4) -0.06464(19) 0.5733(3)
O3C O 0.0911(5) 0.0298(2) 0.3813(3)
O4A O 0.1508(4) 0.0536(2) 0.6972(3)
Zn1B Zn 0.73518(7) -0.03761(3) 0.45060(5)
Zn1C Zn 1.23518(7) 0.53761(3) -0.04940(5)
Zn1A Zn 1.76482(7) 0.46239(3) 0.04940(5)
loop_
_geom_bond_atom_site_label_1
_geom_bond_atom_site_label_2
_geom_bond_site_symmetry_1
_geom_bond_site_symmetry_2
Zn1 O1 1_555 1_555
O1 C1 1_555 1_555
O2 C1 1_555 1_555
O3 C12 1_555 1_555
O4 C12 1_555 1_555
O5 C5 1_555 1_555
C1 C2 1_555 1_555
C2 C3 1_555 1_555
C3 H1 1_555 1_555
C4 C3 1_555 1_555
H2 C4 1_555 1_555
C5 C4 1_555 1_555
C6 C5 1_555 1_555
H3 C6 1_555 1_555
C7 C2 1_555 1_555
H4 C7 1_555 1_555
C8 O5 1_555 1_555
C9 C8 1_555 1_555
H5 C9 1_555 1_555
C10 C9 1_555 1_555
H6 C10 1_555 1_555
C11 C10 1_555 1_555
C12 C11 1_555 1_555
C13 C11 1_555 1_555
H7 C13 1_555 1_555
C14 C8 1_555 1_555
H8 C14 1_555 1_555
O2B Zn1 1_555 1_555
O3C Zn1 1_555 1_555
O4A Zn1 1_555 1_555
Zn1B O2 1_555 1_555
Zn1C O3 1_555 1_555
Zn1A O4 1_555 1_555
C6 C7 1_555 1_555
C13 C14 1_555 1_555

#END
