
#######################################################################
#
#                 Cambridge Crystallographic Data Centre
#                                CCDC 
#
#######################################################################
#
# If this CIF has been generated from an entry in the Cambridge 
# Structural Database, then it will include bibliographic, chemical, 
# crystal, experimental, refinement or atomic coordinate data resulting 
# from the CCDC's data processing and validation procedures.
#
#######################################################################

data_HUVMOB
_symmetry_cell_setting           monoclinic
_symmetry_space_group_name_H-M   'P 21/c'
_symmetry_Int_Tables_number      14
_space_group_name_Hall           '-P 2ybc'
loop_
_symmetry_equiv_pos_site_id
_symmetry_equiv_pos_as_xyz
1 x,y,z
2 -x,1/2+y,1/2-z
3 -x,-y,-z
4 x,1/2-y,1/2+z
_cell_length_a                   15.9478(15)
_cell_length_b                   12.4854(11)
_cell_length_c                   27.192(3)
_cell_angle_alpha                90
_cell_angle_beta                 102.890(6)
_cell_angle_gamma                90
_cell_volume                     5277.89
loop_
_atom_site_label
_atom_site_type_symbol
_atom_site_fract_x
_atom_site_fract_y
_atom_site_fract_z
Cr1 Cr 0.7505 0.8761(1) 0.2557
K1 K 0.2500(1) 0.8842(1) 0.2484
Mn1 Mn 0.425 0.7237 0.2308
Mn2 Mn 1.0731 1.0293 0.2695
O1 O 0.7415(4) 0.8655(4) 0.3626(2)
O2 O 0.4139(2) 0.7969(2) 0.2892(1)
O3 O 0.3689(2) 0.9209(3) 0.3543(1)
O4 O 0.3580(2) 0.8261(2) 0.1891(1)
O5 O 0.2959(2) 1.0079(2) 0.1544(1)
O6 O 1.1422(2) 0.9273(2) 0.3102(1)
O7 O 1.2071(2) 0.7466(3) 0.3446(1)
O8 O 1.0816(2) 0.9577(2) 0.2104(1)
O9 O 1.1308(2) 0.8381(3) 0.1441(1)
N1 N 0.5510(3) 0.8048(3) 0.2264(2)
N2 N 0.9488(3) 0.9472(3) 0.2765(2)
N3 N 0.7009(3) 1.1226(3) 0.2626(2)
N4 N 0.8033(3) 0.6288(3) 0.2402(2)
N5 N 0.7490(6) 0.8874(5) 0.1393(2)
N6 N 0.7482(3) 0.8666(4) 0.3196(2)
N7 N 0.4928(3) 0.6084(3) 0.2698(2)
N8 N 0.4316(2) 0.6326(3) 0.1724(2)
N9 N 1.0698(2) 1.1212(3) 0.3282(2)
N10 N 1.0039(2) 1.1452(3) 0.2318(2)
C1 C 0.6212(3) 0.8320(4) 0.2350(2)
C2 C 0.8787(3) 0.9195(3) 0.2693(2)
C3 C 0.7182(3) 1.0358(4) 0.2574(2)
C4 C 0.7820(3) 0.7160(4) 0.2464(2)
C5 C 0.7499(4) 0.8863(4) 0.1818(2)
C6 C 0.5009(3) 0.5913(5) 0.3166(2)
H1 H 0.5280 0.5283 0.3297
C7 C 0.4714(3) 0.6617(5) 0.3508(2)
C8 C 0.4310(3) 0.7604(4) 0.3360(2)
C9 C 0.4093(3) 0.8280(5) 0.3733(2)
C10 C 0.4278(5) 0.7982(7) 0.4230(2)
H2 H 0.4149 0.8443 0.4471
C11 C 0.4657(5) 0.6999(9) 0.4378(3)
H3 H 0.4774 0.6805 0.4716
C12 C 0.4863(5) 0.6302(7) 0.4026(3)
H4 H 0.5097 0.5634 0.4126
C13 C 0.3614(5) 1.0032(6) 0.3898(3)
H5 H 0.3260 0.9782 0.4117
H6 H 0.3356 1.0656 0.3719
H7 H 0.4174 1.0211 0.4094
C14 C 0.4103(3) 0.6614(4) 0.1260(2)
H8 H 0.4181 0.6119 0.1018
C15 C 0.3752(3) 0.7644(4) 0.1083(2)
C16 C 0.3515(3) 0.8401(3) 0.1406(2)
C17 C 0.3178(3) 0.9393(4) 0.1200(2)
C18 C 0.3082(4) 0.9602(5) 0.0698(2)
H9 H 0.2860 1.0256 0.0565
C19 C 0.3321(5) 0.8818(6) 0.0380(2)
H10 H 0.3267 0.8963 0.0039
C20 C 0.3623(5) 0.7879(5) 0.0565(2)
H11 H 0.3752 0.7361 0.0348
C21 C 0.2721(4) 1.1146(4) 0.1383(2)
H12 H 0.3144 1.1440 0.1219
H13 H 0.2689 1.1578 0.1670
H14 H 0.2171 1.1138 0.1151
C22 C 0.5306(4) 0.5368(4) 0.2363(2)
H15 H 0.5829 0.5682 0.2301
H16 H 0.5446 0.4676 0.2523
C23 C 0.4657(4) 0.5240(4) 0.1880(2)
H17 H 0.4196 0.4772 0.1926
H18 H 0.4922 0.4932 0.1624
C24 C 1.0953(4) 1.0939(4) 0.3741(2)
H19 H 1.0890 1.1441 0.3983
C25 C 1.1329(3) 0.9924(4) 0.3923(2)
C26 C 1.1527(3) 0.9143(4) 0.3590(2)
C27 C 1.1896(3) 0.8151(4) 0.3795(2)
C28 C 1.2048(4) 0.7964(6) 0.4303(2)
H20 H 1.2276 0.7310 0.4431
C29 C 1.1863(5) 0.8744(7) 0.4629(2)
H21 H 1.1979 0.8614 0.4974
C30 C 1.1511(5) 0.9699(6) 0.4444(2)
H22 H 1.1389 1.0211 0.4666
C31 C 1.2325(4) 0.6399(5) 0.3600(3)
H23 H 1.2853 0.6417 0.3851
H24 H 1.2407 0.5996 0.3313
H25 H 1.1885 0.6067 0.3737
C32 C 0.9956(3) 1.1631(4) 0.1852(2)
H26 H 0.9672 1.2258 0.1725
C33 C 1.0260(3) 1.0956(5) 0.1500(2)
C34 C 1.0656(3) 0.9961(4) 0.1643(2)
C35 C 1.0917(3) 0.9319(5) 0.1271(2)
C36 C 1.0762(4) 0.9690(6) 0.0775(2)
H27 H 1.0929 0.9273 0.0530
C37 C 1.0371(5) 1.0651(7) 0.0643(3)
H28 H 1.0264 1.0873 0.0309
C38 C 1.0136(4) 1.1291(6) 0.0996(2)
H29 H 0.9891 1.1957 0.0902
C39 C 1.1403(4) 0.7568(6) 0.1081(3)
H30 H 1.0845 0.7316 0.0910
H31 H 1.1732 0.6982 0.1254
H32 H 1.1695 0.7865 0.0840
C40 C 1.0361(3) 1.2292(4) 0.3135(2)
H33 H 1.0817 1.2757 0.3078
H34 H 1.0114 1.2603 0.3397
C41 C 0.9672(3) 1.2152(4) 0.2648(2)
H35 H 0.9159 1.1831 0.2721
H36 H 0.9520 1.2841 0.2488
K1_2 K 1.2500(1) 0.8842(1) 0.2484
Mn1A Mn 0.575 1.2237 0.2692
Mn2A Mn 0.9269 0.5293 0.2305
O6_2 O 0.1422(2) 0.9273(2) 0.3102(1)
O8_2 O 0.0816(2) 0.9577(2) 0.2104(1)
N3A N 0.2991(3) 0.6226(3) 0.2374(2)
N4A N 1.1967(3) 1.1288(3) 0.2598(2)
N11 N 0.9666(11) 0.8277(14) 0.5040(6)
C42 C 0.9494(11) 0.8773(13) 0.4662(6)
C43 C 0.9238(11) 0.9548(16) 0.4229(6)
H37 H 0.8770 0.9252 0.3982
H38 H 0.9719 0.9671 0.4078
H39 H 0.9061 1.0213 0.4352
N12 N 0.6823(12) 0.8189(14) 0.4720(7)
C44 C 0.6460(11) 0.9029(14) 0.4715(6)
C45 C 0.5936(10) 0.9999(12) 0.4745(4)
H40 H 0.5460 1.0023 0.4458
H41 H 0.6285 1.0626 0.4749
H42 H 0.5724 0.9974 0.5049
loop_
_geom_bond_atom_site_label_1
_geom_bond_atom_site_label_2
_geom_bond_site_symmetry_1
_geom_bond_site_symmetry_2
Cr1 N6 1_555 1_555
K1 O2 1_555 1_555
Mn1 O2 1_555 1_555
Mn2 O6 1_555 1_555
O1 N6 1_555 1_555
O2 C8 1_555 1_555
O3 C9 1_555 1_555
O4 K1 1_555 1_555
O5 C17 1_555 1_555
O6 C26 1_555 1_555
O7 C27 1_555 1_555
O8 Mn2 1_555 1_555
O9 C35 1_555 1_555
N1 Mn1 1_555 1_555
N2 Mn2 1_555 1_555
N3 C3 1_555 1_555
N4 C4 1_555 1_555
N5 C5 1_555 1_555
N7 Mn1 1_555 1_555
N8 Mn1 1_555 1_555
N9 Mn2 1_555 1_555
N10 Mn2 1_555 1_555
N11 C42 1_555 1_555
N12 C44 1_555 1_555
C1 Cr1 1_555 1_555
C2 Cr1 1_555 1_555
C3 Cr1 1_555 1_555
C4 Cr1 1_555 1_555
C5 Cr1 1_555 1_555
C6 N7 1_555 1_555
H1 C6 1_555 1_555
C7 C6 1_555 1_555
C8 C7 1_555 1_555
C9 C8 1_555 1_555
C10 C9 1_555 1_555
H2 C10 1_555 1_555
C11 C10 1_555 1_555
H3 C11 1_555 1_555
C12 C7 1_555 1_555
H4 C12 1_555 1_555
C13 O3 1_555 1_555
H5 C13 1_555 1_555
H6 C13 1_555 1_555
H7 C13 1_555 1_555
C14 N8 1_555 1_555
H8 C14 1_555 1_555
C15 C14 1_555 1_555
C16 O4 1_555 1_555
C17 C16 1_555 1_555
C18 C17 1_555 1_555
H9 C18 1_555 1_555
C19 C18 1_555 1_555
H10 C19 1_555 1_555
C20 C15 1_555 1_555
H11 C20 1_555 1_555
C21 O5 1_555 1_555
H12 C21 1_555 1_555
H13 C21 1_555 1_555
H14 C21 1_555 1_555
C22 N7 1_555 1_555
H15 C22 1_555 1_555
H16 C22 1_555 1_555
C23 N8 1_555 1_555
H17 C23 1_555 1_555
H18 C23 1_555 1_555
C24 N9 1_555 1_555
H19 C24 1_555 1_555
C25 C24 1_555 1_555
C26 C25 1_555 1_555
C27 C26 1_555 1_555
C28 C27 1_555 1_555
H20 C28 1_555 1_555
C29 C28 1_555 1_555
H21 C29 1_555 1_555
C30 C25 1_555 1_555
H22 C30 1_555 1_555
C31 O7 1_555 1_555
H23 C31 1_555 1_555
H24 C31 1_555 1_555
H25 C31 1_555 1_555
C32 N10 1_555 1_555
H26 C32 1_555 1_555
C33 C32 1_555 1_555
C34 O8 1_555 1_555
C35 C34 1_555 1_555
C36 C35 1_555 1_555
H27 C36 1_555 1_555
C37 C36 1_555 1_555
H28 C37 1_555 1_555
C38 C33 1_555 1_555
H29 C38 1_555 1_555
C39 O9 1_555 1_555
H30 C39 1_555 1_555
H31 C39 1_555 1_555
H32 C39 1_555 1_555
C40 N9 1_555 1_555
H33 C40 1_555 1_555
H34 C40 1_555 1_555
C41 N10 1_555 1_555
H35 C41 1_555 1_555
H36 C41 1_555 1_555
C42 C43 1_555 1_555
C43 H37 1_555 1_555
H38 C43 1_555 1_555
H39 C43 1_555 1_555
C44 C45 1_555 1_555
C45 H40 1_555 1_555
H41 C45 1_555 1_555
H42 C45 1_555 1_555
K1_2 O6 1_555 1_555
Mn1A N3 1_555 1_555
Mn2A N4 1_555 1_555
O6_2 K1 1_555 1_555
O8_2 K1 1_555 1_555
N3A Mn1 1_555 1_555
N4A Mn2 1_555 1_555
Mn1 O4 1_555 1_555
O8 K1_2 1_555 1_555
N1 C1 1_555 1_555
N2 C2 1_555 1_555
C11 C12 1_555 1_555
C15 C16 1_555 1_555
C19 C20 1_555 1_555
C22 C23 1_555 1_555
C29 C30 1_555 1_555
C33 C34 1_555 1_555
C37 C38 1_555 1_555
C40 C41 1_555 1_555

#END
