
#######################################################################
#
#                 Cambridge Crystallographic Data Centre
#                                CCDC 
#
#######################################################################
#
# If this CIF has been generated from an entry in the Cambridge 
# Structural Database, then it will include bibliographic, chemical, 
# crystal, experimental, refinement or atomic coordinate data resulting 
# from the CCDC's data processing and validation procedures.
#
#######################################################################

data_HUVWUQ
_symmetry_cell_setting           triclinic
_symmetry_space_group_name_H-M   'P -1'
_symmetry_Int_Tables_number      2
_space_group_name_Hall           '-P 1'
loop_
_symmetry_equiv_pos_site_id
_symmetry_equiv_pos_as_xyz
1 x,y,z
2 -x,-y,-z
_cell_length_a                   7.605(2)
_cell_length_b                   12.972(4)
_cell_length_c                   18.773(6)
_cell_angle_alpha                109.778(5)
_cell_angle_beta                 91.657(5)
_cell_angle_gamma                103.951(5)
_cell_volume                     1678.91
loop_
_atom_site_label
_atom_site_type_symbol
_atom_site_fract_x
_atom_site_fract_y
_atom_site_fract_z
Nd1 Nd -0.19021(3) 0.04755(2) 0.088189(13)
Nd2 Nd 0.13168(3) 0.03155(2) 0.266225(14)
O1 O -0.1458(4) -0.0703(3) 0.15931(19)
O2 O -0.1663(5) -0.1291(4) 0.2561(2)
O3 O -0.4802(5) -0.0173(3) 0.1284(2)
O4 O -0.7512(4) -0.0879(3) 0.15872(19)
O5 O -0.0905(5) 0.1339(3) 0.3100(2)
O6 O -0.2085(5) 0.1742(3) 0.21481(19)
O7 O -0.5322(4) 0.1085(3) 0.3049(2)
O8 O -0.6979(4) 0.2331(3) 0.3336(2)
O9 O 0.1419(4) 0.1276(3) 0.16840(19)
O10 O 0.0503(4) 0.2364(3) 0.1157(2)
O11 O 0.3295(4) 0.1250(3) 0.02357(19)
O12 O 0.6279(4) 0.1407(3) 0.04267(19)
N1 N 0.1678(6) 0.0703(4) 0.4160(2)
N2 N 0.1962(6) -0.1313(4) 0.3140(3)
C1 C -0.2302(6) -0.1347(5) 0.1928(3)
C2 C -0.3991(7) -0.2283(4) 0.1502(3)
C3 C -0.3915(7) -0.3388(5) 0.1394(3)
H1 H -0.2898 -0.3499 0.1614
C4 C -0.5318(8) -0.4325(5) 0.0967(4)
H2 H -0.5227 -0.5056 0.0891
C5 C -0.6854(8) -0.4163(5) 0.0655(3)
H3 H -0.7779 -0.4787 0.0351
C6 C -0.7015(7) -0.3079(5) 0.0793(3)
H4 H -0.8083 -0.2983 0.0603
C7 C -0.5603(6) -0.2114(5) 0.1215(3)
C8 C -0.5956(6) -0.0970(4) 0.1373(3)
C9 C -0.1683(6) 0.1919(4) 0.2837(3)
C10 C -0.2033(6) 0.2980(5) 0.3407(3)
C11 C -0.0534(7) 0.3922(5) 0.3704(3)
H5 H 0.0615 0.3862 0.3571
C12 C -0.0727(8) 0.4947(6) 0.4196(3)
H6 H 0.0281 0.5576 0.4379
C13 C -0.2411(8) 0.5035(5) 0.4413(3)
H7 H -0.2536 0.5716 0.4757
C14 C -0.3926(7) 0.4105(5) 0.4120(3)
H8 H -0.5068 0.4172 0.4261
C15 C -0.3750(7) 0.3071(4) 0.3616(3)
C16 C -0.5436(6) 0.2098(5) 0.3315(3)
C17 C 0.1737(6) 0.2160(4) 0.1503(3)
C18 C 0.3597(6) 0.2989(4) 0.1710(3)
C19 C 0.3853(8) 0.4002(5) 0.2328(3)
H9 H 0.2874 0.4151 0.2593
C20 C 0.5549(8) 0.4792(5) 0.2554(3)
H10 H 0.5700 0.5468 0.2965
C21 C 0.7012(7) 0.4570(5) 0.2164(3)
H11 H 0.8153 0.5092 0.2317
C22 C 0.6777(7) 0.3575(5) 0.1550(3)
H12 H 0.7771 0.3432 0.1294
C23 C 0.5075(7) 0.2776(4) 0.1302(3)
C24 C 0.4866(6) 0.1729(4) 0.0606(3)
C25 C 0.1499(7) 0.1679(5) 0.4658(3)
H13 H 0.1133 0.2184 0.4472
C26 C 0.1840(8) 0.1973(6) 0.5451(3)
H14 H 0.1716 0.2665 0.5780
C27 C 0.2354(8) 0.1239(6) 0.5737(3)
H15 H 0.2569 0.1424 0.6261
C28 C 0.2554(7) 0.0209(6) 0.5237(3)
C29 C 0.3054(8) -0.0643(7) 0.5477(4)
H16 H 0.3317 -0.0488 0.5995
C30 C 0.3153(8) -0.1644(7) 0.4980(4)
H17 H 0.3450 -0.2172 0.5162
C31 C 0.2806(7) -0.1917(6) 0.4167(4)
C32 C 0.2868(9) -0.2947(7) 0.3632(4)
H18 H 0.3206 -0.3487 0.3789
C33 C 0.2433(9) -0.3165(6) 0.2877(4)
H19 H 0.2441 -0.3861 0.2515
C34 C 0.1971(8) -0.2321(5) 0.2651(4)
H20 H 0.1660 -0.2482 0.2135
C35 C 0.2334(7) -0.1103(5) 0.3904(3)
C36 C 0.2187(7) -0.0043(5) 0.4438(3)
O13 O -0.0544(4) 0.0714(3) -0.03446(18)
O11A O -0.3295(4) -0.1250(3) -0.02357(19)
O12_2 O -0.3721(4) 0.1407(3) 0.04267(19)
O13A O 0.0544(4) -0.0714(3) 0.03446(18)
O4_2 O 0.2488(4) -0.0879(3) 0.15872(19)
O7_2 O 0.4678(4) 0.1085(3) 0.3049(2)
O8_2 O 0.3021(4) 0.2331(3) 0.3336(2)
Nd2_2 Nd -0.86832(3) 0.03155(2) 0.266225(14)
Nd1A Nd 0.19021(3) -0.04755(2) -0.088189(13)
Nd1_2 Nd 0.80979(3) 0.04755(2) 0.088189(13)
O14 O 0.1241(8) 0.2983(5) 0.9933(3)
loop_
_geom_bond_atom_site_label_1
_geom_bond_atom_site_label_2
_geom_bond_site_symmetry_1
_geom_bond_site_symmetry_2
Nd1 O1 1_555 1_555
Nd2 O1 1_555 1_555
O1 C1 1_555 1_555
O2 Nd2 1_555 1_555
O3 Nd1 1_555 1_555
O4 C8 1_555 1_555
O5 Nd2 1_555 1_555
O6 Nd1 1_555 1_555
O7 C16 1_555 1_555
O8 C16 1_555 1_555
O9 Nd1 1_555 1_555
O10 Nd1 1_555 1_555
O11 C24 1_555 1_555
O12 C24 1_555 1_555
N1 Nd2 1_555 1_555
N2 Nd2 1_555 1_555
C1 O2 1_555 1_555
C2 C1 1_555 1_555
C3 C2 1_555 1_555
H1 C3 1_555 1_555
C4 C3 1_555 1_555
H2 C4 1_555 1_555
C5 C4 1_555 1_555
H3 C5 1_555 1_555
C6 C5 1_555 1_555
H4 C6 1_555 1_555
C7 C2 1_555 1_555
C8 O3 1_555 1_555
C9 O5 1_555 1_555
C10 C9 1_555 1_555
C11 C10 1_555 1_555
H5 C11 1_555 1_555
C12 C11 1_555 1_555
H6 C12 1_555 1_555
C13 C12 1_555 1_555
H7 C13 1_555 1_555
C14 C13 1_555 1_555
H8 C14 1_555 1_555
C15 C10 1_555 1_555
C16 C15 1_555 1_555
C17 O9 1_555 1_555
C18 C17 1_555 1_555
C19 C18 1_555 1_555
H9 C19 1_555 1_555
C20 C19 1_555 1_555
H10 C20 1_555 1_555
C21 C20 1_555 1_555
H11 C21 1_555 1_555
C22 C21 1_555 1_555
H12 C22 1_555 1_555
C23 C18 1_555 1_555
C24 C23 1_555 1_555
C25 N1 1_555 1_555
H13 C25 1_555 1_555
C26 C25 1_555 1_555
H14 C26 1_555 1_555
C27 C26 1_555 1_555
H15 C27 1_555 1_555
C28 C27 1_555 1_555
C29 C28 1_555 1_555
H16 C29 1_555 1_555
C30 C29 1_555 1_555
H17 C30 1_555 1_555
C31 C30 1_555 1_555
C32 C31 1_555 1_555
H18 C32 1_555 1_555
C33 C32 1_555 1_555
H19 C33 1_555 1_555
C34 N2 1_555 1_555
H20 C34 1_555 1_555
C35 N2 1_555 1_555
C36 N1 1_555 1_555
O13 Nd1 1_555 1_555
O11A Nd1 1_555 1_555
O12_2 Nd1 1_555 1_555
O13A Nd1 1_555 1_555
O4_2 Nd2 1_555 1_555
O7_2 Nd2 1_555 1_555
O8_2 Nd2 1_555 1_555
Nd2_2 O4 1_555 1_555
Nd1A O11 1_555 1_555
Nd1_2 O12 1_555 1_555
Nd2 O9 1_555 1_555
O6 C9 1_555 1_555
O7 Nd2_2 1_555 1_555
O8 Nd2_2 1_555 1_555
O10 C17 1_555 1_555
C6 C7 1_555 1_555
C7 C8 1_555 1_555
C14 C15 1_555 1_555
C22 C23 1_555 1_555
C28 C36 1_555 1_555
C31 C35 1_555 1_555
C33 C34 1_555 1_555
C35 C36 1_555 1_555
O13 Nd1A 1_555 1_555
O13A Nd1A 1_555 1_555

#END
