
#######################################################################
#
#                 Cambridge Crystallographic Data Centre
#                                CCDC 
#
#######################################################################
#
# If this CIF has been generated from an entry in the Cambridge 
# Structural Database, then it will include bibliographic, chemical, 
# crystal, experimental, refinement or atomic coordinate data resulting 
# from the CCDC's data processing and validation procedures.
#
#######################################################################

data_HUWCIM
_symmetry_cell_setting           monoclinic
_symmetry_space_group_name_H-M   'C 2/c'
_symmetry_Int_Tables_number      15
_space_group_name_Hall           '-C 2yn'
loop_
_symmetry_equiv_pos_site_id
_symmetry_equiv_pos_as_xyz
1 x,y,z
2 -x,y,1/2-z
3 1/2+x,1/2+y,z
4 1/2-x,1/2+y,1/2-z
5 -x,-y,-z
6 x,-y,1/2+z
7 1/2-x,1/2-y,-z
8 1/2+x,1/2-y,1/2+z
_cell_length_a                   25.2811(9)
_cell_length_b                   15.6042(5)
_cell_length_c                   15.2652(5)
_cell_angle_alpha                90
_cell_angle_beta                 117.421(2)
_cell_angle_gamma                90
_cell_volume                     5345.4
loop_
_atom_site_label
_atom_site_type_symbol
_atom_site_fract_x
_atom_site_fract_y
_atom_site_fract_z
Re1 Re 0.09097(2) 0.82060(3) 0.58580(4)
Re2 Re 0.20603(2) 0.92991(3) 0.90080(3)
Re3 Re 0.36930(2) 1.02241(3) 0.88942(3)
Ag1 Ag 0.36611(4) 0.96816(6) 0.63671(7)
Ag2 Ag 0.29714(4) 1.16502(5) 0.64800(6)
Ag3 Ag 0.23615(4) 0.96073(5) 0.65305(6)
O1 O 0.1397(3) 0.8740(5) 0.5557(6)
O2 O 0.1313(4) 0.7510(6) 0.6808(7)
O3 O 0.0398(3) 0.7645(6) 0.4858(7)
O4 O 0.0533(4) 0.8915(6) 0.6230(8)
O5 O 0.2234(4) 0.8231(5) 0.9162(6)
O6 O 0.2555(4) 0.9859(5) 1.0033(6)
O7 O 0.1359(4) 0.9439(6) 0.8883(7)
O8 O 0.2087(5) 0.9669(7) 0.7973(7)
O9 O 0.3262(6) 1.0457(7) 0.7699(9)
O10 O 0.4413(8) 1.0373(12) 0.9234(15)
O11 O 0.3499(8) 1.0961(10) 0.9546(11)
O12 O 0.3542(5) 0.9210(5) 0.9158(6)
N1 N 0.2819(4) 0.8361(6) 0.6504(6)
N2 N 0.3312(4) 0.8408(6) 0.6380(7)
N3 N 0.4101(4) 1.0888(6) 0.6394(6)
N4 N 0.3828(4) 1.1630(6) 0.6400(7)
N5 N 0.2040(4) 1.1592(5) 0.6259(6)
N6 N 0.1807(4) 1.0823(5) 0.6277(6)
C1 C 0.3544(6) 0.7700(8) 0.6227(9)
H1 H 0.3891 0.7743 0.6160
C2 C 0.3297(6) 0.6901(8) 0.6163(9)
H2 H 0.3467 0.6418 0.6039
C3 C 0.2804(6) 0.6836(7) 0.6284(9)
H3 H 0.2627 0.6308 0.6260
C4 C 0.2568(5) 0.7596(7) 0.6446(9)
H4 H 0.2223 0.7567 0.6517
C5 C 0.4596(5) 1.0908(8) 0.6312(8)
H5 H 0.4775 1.0394 0.6290
C6 C 0.4861(6) 1.1673(9) 0.6258(10)
H6 H 0.5216 1.1670 0.6213
C7 C 0.4601(5) 1.2411(9) 0.6271(11)
H7 H 0.4763 1.2936 0.6230
C8 C 0.4071(6) 1.2357(8) 0.6351(10)
H8 H 0.3883 1.2864 0.6370
C9 C 0.1728(5) 1.2285(7) 0.6182(8)
H9 H 0.1890 1.2812 0.6152
C10 C 0.1171(5) 1.2274(8) 0.6142(9)
H10 H 0.0964 1.2778 0.6098
C11 C 0.0940(6) 1.1497(8) 0.6171(10)
H11 H 0.0569 1.1451 0.6156
C12 C 0.1264(5) 1.0788(7) 0.6222(8)
H12 H 0.1101 1.0253 0.6219
Re1C Re 0.40903(2) 1.32060(3) 0.91420(4)
Re2C Re 0.29397(2) 1.42991(3) 0.59920(3)
Re3C Re 0.13070(2) 0.52241(3) 0.61058(3)
Ag1C Ag 0.13389(4) 0.46816(6) 0.86329(7)
Ag2C Ag 0.20286(4) 0.66502(5) 0.85200(6)
Ag3C Ag 0.26385(4) 1.46073(5) 0.84695(6)
Ag3C_2 Ag 0.26385(4) 0.46073(5) 0.84695(6)
O1C O 0.3603(3) 1.3740(5) 0.9443(6)
O2C O 0.3687(4) 1.2510(6) 0.8192(7)
O3C O 0.4602(3) 1.2645(6) 1.0142(7)
O4C O 0.4467(4) 1.3915(6) 0.8770(8)
O5C O 0.2766(4) 1.3231(5) 0.5838(6)
O6C O 0.2445(4) 1.4859(5) 0.4967(6)
O7C O 0.3641(4) 1.4439(6) 0.6117(7)
O8C O 0.2913(5) 1.4669(7) 0.7027(7)
O9C O 0.1738(6) 0.5457(7) 0.7301(9)
O9C_2 O 0.1738(6) 1.5457(7) 0.7301(9)
O10C O 0.0587(8) 0.5373(12) 0.5766(15)
O11C O 0.1501(8) 0.5961(10) 0.5454(11)
O12C O 0.1458(5) 0.4210(5) 0.5842(6)
N1C N 0.2181(4) 0.3361(6) 0.8496(6)
N1C_2 N 0.2181(4) 1.3361(6) 0.8496(6)
N2C N 0.1688(4) 0.3408(6) 0.8620(7)
N3C N 0.0899(4) 0.5888(6) 0.8606(6)
N4C N 0.1172(4) 0.6630(6) 0.8600(7)
N5C N 0.2960(4) 0.6592(5) 0.8741(6)
N6C N 0.3193(4) 0.5823(5) 0.8723(6)
N6C_2 N 0.3193(4) 1.5823(5) 0.8723(6)
C1C C 0.1456(6) 0.2700(8) 0.8773(9)
H1C H 0.1109 0.2743 0.8840
C2C C 0.1703(6) 0.1901(8) 0.8837(9)
H2C H 0.1533 0.1418 0.8961
C3C C 0.2196(6) 0.1836(7) 0.8716(9)
H3C H 0.2373 0.1308 0.8740
C4C C 0.2432(5) 0.2596(7) 0.8554(9)
H4C H 0.2777 0.2567 0.8483
C5C C 0.0404(5) 0.5908(8) 0.8688(8)
H5C H 0.0225 0.5394 0.8710
C6C C 0.0139(6) 0.6673(9) 0.8742(10)
H6C H -0.0216 0.6670 0.8787
C7C C 0.0399(5) 0.7411(9) 0.8729(11)
H7C H 0.0237 0.7936 0.8770
C8C C 0.0929(6) 0.7357(8) 0.8649(10)
H8C H 0.1117 0.7864 0.8630
C9C C 0.3272(5) 0.7285(7) 0.8818(8)
H9C H 0.3110 0.7812 0.8848
C10C C 0.3829(5) 0.7274(8) 0.8858(9)
H10C H 0.4036 0.7778 0.8902
C11C C 0.4060(6) 0.6497(8) 0.8829(10)
H11C H 0.4431 0.6451 0.8844
C12C C 0.3736(5) 0.5788(7) 0.8778(8)
H12C H 0.3899 0.5253 0.8781
O13 O 0.9686(5) 0.0227(7) 0.5998(9)
H13 H 0.9800 -0.0078 0.6554
H14 H 0.9447 -0.0123 0.5443
O14 O 0.0000 0.1651(18) 0.7500
H15 H 0.023(7) 0.128(8) 0.801(9)
H15A H -0.023(7) 0.128(8) 0.699(9)
loop_
_geom_bond_atom_site_label_1
_geom_bond_atom_site_label_2
_geom_bond_site_symmetry_1
_geom_bond_site_symmetry_2
Re1 O1 1_555 1_555
Re2 O5 1_555 1_555
Re3 O9 1_555 1_555
Ag1 N2 1_555 1_555
Ag2 O9 1_555 1_555
Ag3 O1 1_555 1_555
O2 Re1 1_555 1_555
O3 Re1 1_555 1_555
O4 Re1 1_555 1_555
O5 Ag2C 1_555 1_555
O6 Re2 1_555 1_555
O7 Re2 1_555 1_555
O8 Re2 1_555 1_555
O9 Ag3 1_555 1_555
O10 Re3 1_555 1_555
O11 Re3 1_555 1_555
O12 Re3 1_555 1_555
N1 Ag3 1_555 1_555
N2 N1 1_555 1_555
N3 Ag1 1_555 1_555
N4 Ag2 1_555 1_555
N5 Ag2 1_555 1_555
N6 Ag3 1_555 1_555
C1 N2 1_555 1_555
H1 C1 1_555 1_555
C2 C1 1_555 1_555
H2 C2 1_555 1_555
C3 C2 1_555 1_555
H3 C3 1_555 1_555
C4 N1 1_555 1_555
H4 C4 1_555 1_555
C5 N3 1_555 1_555
H5 C5 1_555 1_555
C6 C5 1_555 1_555
H6 C6 1_555 1_555
C7 C6 1_555 1_555
H7 C7 1_555 1_555
C8 N4 1_555 1_555
H8 C8 1_555 1_555
C9 N5 1_555 1_555
H9 C9 1_555 1_555
C10 C9 1_555 1_555
H10 C10 1_555 1_555
C11 C10 1_555 1_555
H11 C11 1_555 1_555
C12 N6 1_555 1_555
H12 C12 1_555 1_555
O13 H13 1_555 1_555
H14 O13 1_555 1_555
O14 H15 1_555 1_555
Re1C O1C 1_555 1_555
Re2C O5C 1_555 1_555
Re3C O9C 1_555 1_555
Ag1C N2C 1_555 1_555
Ag2C O9C 1_555 1_555
Ag3C O1C 1_555 1_555
Ag3C_2 O9C 1_555 1_555
O2C Re1C 1_555 1_555
O3C Re1C 1_555 1_555
O4C Re1C 1_555 1_555
O5C Ag2 1_555 1_555
O6C Re2C 1_555 1_555
O7C Re2C 1_555 1_555
O8C Re2C 1_555 1_555
O9C_2 Ag3C 1_555 1_555
O10C Re3C 1_555 1_555
O11C Re3C 1_555 1_555
O12C Re3C 1_555 1_555
N1C Ag3C_2 1_555 1_555
N1C_2 Ag3C 1_555 1_555
N2C N1C 1_555 1_555
N3C Ag1C 1_555 1_555
N4C Ag2C 1_555 1_555
N5C Ag2C 1_555 1_555
N6C Ag3C_2 1_555 1_555
N6C_2 Ag3C 1_555 1_555
C1C N2C 1_555 1_555
H1C C1C 1_555 1_555
C2C C1C 1_555 1_555
H2C C2C 1_555 1_555
C3C C2C 1_555 1_555
H3C C3C 1_555 1_555
C4C N1C 1_555 1_555
H4C C4C 1_555 1_555
C5C N3C 1_555 1_555
H5C C5C 1_555 1_555
C6C C5C 1_555 1_555
H6C C6C 1_555 1_555
C7C C6C 1_555 1_555
H7C C7C 1_555 1_555
C8C N4C 1_555 1_555
H8C C8C 1_555 1_555
C9C N5C 1_555 1_555
H9C C9C 1_555 1_555
C10C C9C 1_555 1_555
H10C C10C 1_555 1_555
C11C C10C 1_555 1_555
H11C C11C 1_555 1_555
C12C N6C 1_555 1_555
H12C C12C 1_555 1_555
H15A O14 1_555 1_555
Ag3 O8 1_555 1_555
N3 N4 1_555 1_555
N5 N6 1_555 1_555
C3 C4 1_555 1_555
C7 C8 1_555 1_555
C11 C12 1_555 1_555
Ag3C O8C 1_555 1_555
N3C N4C 1_555 1_555
N5C N6C 1_555 1_555
C3C C4C 1_555 1_555
C7C C8C 1_555 1_555
C11C C12C 1_555 1_555

#END
