
#######################################################################
#
#                 Cambridge Crystallographic Data Centre
#                                CCDC 
#
#######################################################################
#
# If this CIF has been generated from an entry in the Cambridge 
# Structural Database, then it will include bibliographic, chemical, 
# crystal, experimental, refinement or atomic coordinate data resulting 
# from the CCDC's data processing and validation procedures.
#
#######################################################################

data_HUWCUY
_symmetry_cell_setting           orthorhombic
_symmetry_space_group_name_H-M   'P c a 21'
_symmetry_Int_Tables_number      29
_space_group_name_Hall           'P 2c -2ac'
loop_
_symmetry_equiv_pos_site_id
_symmetry_equiv_pos_as_xyz
1 x,y,z
2 1/2-x,y,1/2+z
3 1/2+x,-y,z
4 -x,-y,1/2+z
_cell_length_a                   22.4400(7)
_cell_length_b                   5.2048(2)
_cell_length_c                   13.8475(4)
_cell_angle_alpha                90
_cell_angle_beta                 90
_cell_angle_gamma                90
_cell_volume                     1617.33
loop_
_atom_site_label
_atom_site_type_symbol
_atom_site_fract_x
_atom_site_fract_y
_atom_site_fract_z
Ag1 Ag 0.413335(10) 0.42424(4) 0.081981(18)
Ag2 Ag 0.364283(9) 0.07984(3) 0.580772(18)
O1 O 0.46390(11) 0.7369(5) 0.19613(16)
O2 O 0.46917(10) 0.8260(4) 0.35449(19)
O3 O 0.46106(11) 0.7297(4) -0.03307(17)
O4 O 0.46824(9) 0.8097(4) -0.1915(2)
O5 O 0.47193(10) -0.1089(4) 0.5799(2)
H1 H 0.4843 -0.0056 0.5358
H2 H 0.4955 -0.0690 0.6331
N1 N 0.38657(11) 0.3377(5) 0.23539(18)
N2 N 0.36375(11) 0.2207(5) 0.42875(19)
N3 N 0.38626(10) 0.3238(5) -0.07192(17)
N4 N 0.36291(10) 0.2041(5) -0.26439(18)
C1 C 0.41055(10) 0.4772(5) 0.3081(3)
C2 C 0.39943(13) 0.4196(5) 0.4047(2)
H3 H 0.4171 0.5211 0.4540
C3 C 0.33781(14) 0.0913(6) 0.3561(3)
H4 H 0.3111 -0.0449 0.3709
C4 C 0.34868(13) 0.1499(6) 0.2610(2)
H5 H 0.3288 0.0550 0.2120
C5 C 0.45107(11) 0.6964(5) 0.2806(2)
C6 C 0.40922(12) 0.4625(5) -0.1432(3)
C7 C 0.39740(12) 0.4057(5) -0.2400(2)
H6 H 0.4139 0.5108 -0.2893
C8 C 0.33867(12) 0.0689(5) -0.1933(3)
H7 H 0.3130 -0.0704 -0.2085
C9 C 0.35020(13) 0.1273(6) -0.0966(2)
H8 H 0.3323 0.0266 -0.0473
C10 C 0.44917(12) 0.6836(5) -0.1179(2)
Re1 Re 0.248197(4) -0.428631(15) 0.553109(14)
O6 O 0.31546(11) -0.3265(4) 0.6002(2)
O7 O 0.18885(12) -0.2806(5) 0.6087(2)
O8 O 0.24196(9) -0.7564(4) 0.5698(2)
O9 O 0.24509(11) -0.3592(6) 0.4316(2)
Ag2_2 Ag 0.364283(9) 0.07984(3) -0.419228(18)
N4_2 N 0.36291(10) 0.2041(5) 0.73561(18)
loop_
_geom_bond_atom_site_label_1
_geom_bond_atom_site_label_2
_geom_bond_site_symmetry_1
_geom_bond_site_symmetry_2
Ag1 O1 1_555 1_555
Ag2 O5 1_555 1_555
O1 C5 1_555 1_555
O2 C5 1_555 1_555
O3 Ag1 1_555 1_555
O4 C10 1_555 1_555
O5 H1 1_555 1_555
H2 O5 1_555 1_555
N1 Ag1 1_555 1_555
N2 Ag2 1_555 1_555
N3 Ag1 1_555 1_555
N4 C7 1_555 1_555
C1 N1 1_555 1_555
C2 N2 1_555 1_555
H3 C2 1_555 1_555
C3 N2 1_555 1_555
H4 C3 1_555 1_555
C4 N1 1_555 1_555
H5 C4 1_555 1_555
C5 C1 1_555 1_555
C6 N3 1_555 1_555
C7 C6 1_555 1_555
H6 C7 1_555 1_555
C8 N4 1_555 1_555
H7 C8 1_555 1_555
C9 N3 1_555 1_555
H8 C9 1_555 1_555
C10 O3 1_555 1_555
Re1 O6 1_555 1_555
O6 Ag2 1_555 1_555
O7 Re1 1_555 1_555
O8 Re1 1_555 1_555
O9 Re1 1_555 1_555
Ag2_2 N4 1_555 1_555
N4_2 Ag2 1_555 1_555
C1 C2 1_555 1_555
C3 C4 1_555 1_555
C6 C10 1_555 1_555
C8 C9 1_555 1_555

#END
