
#######################################################################
#
#                 Cambridge Crystallographic Data Centre
#                                CCDC 
#
#######################################################################
#
# If this CIF has been generated from an entry in the Cambridge 
# Structural Database, then it will include bibliographic, chemical, 
# crystal, experimental, refinement or atomic coordinate data resulting 
# from the CCDC's data processing and validation procedures.
#
#######################################################################

data_HUWCEH
_symmetry_cell_setting           orthorhombic
_symmetry_space_group_name_H-M   'P c a 21'
_symmetry_Int_Tables_number      29
_space_group_name_Hall           'P 2c -2ac'
loop_
_symmetry_equiv_pos_site_id
_symmetry_equiv_pos_as_xyz
1 x,y,z
2 -x,-y,1/2+z
3 1/2-x,y,1/2+z
4 1/2+x,-y,z
_cell_length_a                   21.752(10)
_cell_length_b                   3.876(2)
_cell_length_c                   9.511(5)
_cell_angle_alpha                90
_cell_angle_beta                 90
_cell_angle_gamma                90
_cell_volume                     801.88
loop_
_atom_site_label
_atom_site_type_symbol
_atom_site_fract_x
_atom_site_fract_y
_atom_site_fract_z
Br1 Br 0.138352(12) -0.17537(5) -0.2635
Cu1 Cu 0.18065(2) 0.31001(8) -0.13012(5)
N1 N 0.27267(11) 0.3430(6) -0.2015(3)
N2 N 0.32755(11) 0.3507(5) -0.4188(3)
C1 C 0.28040(13) 0.2818(7) -0.3416(3)
C2 C 0.31899(12) 0.4957(7) -0.1360(3)
C3 C 0.3741(1) 0.5828(8) -0.2069(3)
C4 C 0.4241(2) 0.7267(8) -0.1364(4)
C5 C 0.4776(2) 0.8040(7) -0.2120(4)
C6 C 0.47979(13) 0.7196(8) -0.3579(4)
C7 C 0.43159(13) 0.5760(8) -0.4272(3)
C8 C 0.37753(13) 0.5049(6) -0.3528(3)
H1 H 0.2463 0.1763 -0.3884
H2 H 0.3156 0.5508 -0.0393
H3 H 0.4231 0.7749 -0.0368
H4 H 0.5118 0.9148 -0.1667
H5 H 0.5179 0.7581 -0.4061
H6 H 0.4322 0.5360 -0.5255
Cu1_2 Cu 0.18065(2) -0.68999(8) -0.13012(5)
Br1_2 Br 0.138352(12) 0.82463(5) -0.2635
N2B N 0.17245(11) 0.3507(5) 0.0812(3)
Cu1B Cu 0.31935(2) 0.31001(8) -0.63012(5)
loop_
_geom_bond_atom_site_label_1
_geom_bond_atom_site_label_2
_geom_bond_site_symmetry_1
_geom_bond_site_symmetry_2
Br1 Cu1 1_555 1_555
Cu1 N1 1_555 1_555
N1 C1 1_555 1_555
N2 C1 1_555 1_555
C1 H1 1_555 1_555
C2 N1 1_555 1_555
C3 C2 1_555 1_555
C4 C3 1_555 1_555
C5 C4 1_555 1_555
C6 C5 1_555 1_555
C7 C6 1_555 1_555
C8 N2 1_555 1_555
H2 C2 1_555 1_555
H3 C4 1_555 1_555
H4 C5 1_555 1_555
H5 C6 1_555 1_555
H6 C7 1_555 1_555
Cu1_2 Br1 1_555 1_555
Br1_2 Cu1 1_555 1_555
N2B Cu1 1_555 1_555
Cu1B N2 1_555 1_555
C3 C8 1_555 1_555
C7 C8 1_555 1_555

#END
