
#######################################################################
#
#                 Cambridge Crystallographic Data Centre
#                                CCDC 
#
#######################################################################
#
# If this CIF has been generated from an entry in the Cambridge 
# Structural Database, then it will include bibliographic, chemical, 
# crystal, experimental, refinement or atomic coordinate data resulting 
# from the CCDC's data processing and validation procedures.
#
#######################################################################

data_HUWSOH
_symmetry_cell_setting           monoclinic
_symmetry_space_group_name_H-M   'P 21/c'
_symmetry_Int_Tables_number      14
_space_group_name_Hall           '-P 2ybc'
loop_
_symmetry_equiv_pos_site_id
_symmetry_equiv_pos_as_xyz
1 x,y,z
2 -x,1/2+y,1/2-z
3 -x,-y,-z
4 x,1/2-y,1/2+z
_cell_length_a                   14.507(2)
_cell_length_b                   10.3955(10)
_cell_length_c                   17.784(2)
_cell_angle_alpha                90
_cell_angle_beta                 98.064(8)
_cell_angle_gamma                90
_cell_volume                     2655.44
loop_
_atom_site_label
_atom_site_type_symbol
_atom_site_fract_x
_atom_site_fract_y
_atom_site_fract_z
Cu1 Cu 0.51889(6) 0.59109(9) 0.13333(5)
Cl1 Cl 0.65295(14) 0.6342(3) 0.06222(11)
C1 C 0.9607(4) 0.4439(6) 0.4314(3)
C2 C 0.9720(4) 0.3706(6) 0.4981(3)
C3 C 0.9875(4) 0.5734(6) 0.4329(3)
C4 C 0.9228(4) 0.3810(6) 0.3560(4)
H1 H 0.9617(4) 0.4061(6) 0.3184(4)
H2 H 0.9278(4) 0.2884(6) 0.3620(4)
N1 N 0.8250(4) 0.4137(5) 0.3269(3)
C5 C 0.7952(5) 0.4000(6) 0.2510(4)
H3 H 0.8361(5) 0.3663(6) 0.2203(4)
C6 C 0.7095(5) 0.4333(7) 0.2193(4)
H4 H 0.6914(5) 0.4194(7) 0.1677(4)
C7 C 0.6456(4) 0.4900(6) 0.2638(4)
O1 O 0.5663(3) 0.5384(5) 0.2366(3)
C8 C 0.6752(5) 0.4921(6) 0.3431(4)
H5 H 0.6339(5) 0.5179(6) 0.3757(4)
C9 C 0.7637(4) 0.4568(6) 0.3723(3)
H6 H 0.7824(4) 0.4624(6) 0.4244(3)
C10 C 0.9444(4) 0.2279(6) 0.4956(4)
H7 H 0.9705(4) 0.1859(6) 0.4546(4)
H8 H 0.9707(4) 0.1871(6) 0.5428(4)
N2 N 0.8418(3) 0.2097(5) 0.4841(3)
C11 C 0.7887(4) 0.2551(6) 0.5363(3)
H9 H 0.8176(4) 0.2993(6) 0.5786(3)
C12 C 0.6967(4) 0.2374(7) 0.5281(4)
H10 H 0.6633(4) 0.2707(7) 0.5646(4)
C13 C 0.7048(5) 0.1241(7) 0.4121(4)
H11 H 0.6773(5) 0.0811(7) 0.3689(4)
C14 C 0.6479(4) 0.1691(6) 0.4651(3)
O2 O 0.5598(3) 0.1526(5) 0.4578(3)
C15 C 0.7992(5) 0.1422(6) 0.4229(4)
H12 H 0.8348(5) 0.1082(6) 0.3881(4)
C16 C 0.9726(4) 0.6530(6) 0.3608(3)
H13 H 1.0176(4) 0.7224(6) 0.3650(3)
H14 H 0.9837(4) 0.5993(6) 0.3183(3)
N3 N 0.8783(3) 0.7077(5) 0.3450(3)
C17 C 0.8335(4) 0.7555(6) 0.4013(3)
H15 H 0.8639(4) 0.7541(6) 0.4509(3)
C18 C 0.7468(5) 0.8045(6) 0.3880(4)
H16 H 0.7186(5) 0.8355(6) 0.4282(4)
C19 C 0.6982(5) 0.8092(6) 0.3128(4)
O3 O 0.6132(3) 0.8466(6) 0.2986(3)
C20 C 0.7503(4) 0.7694(6) 0.2540(4)
H17 H 0.7245(4) 0.7781(6) 0.2033(4)
C21 C 0.8362(4) 0.7197(6) 0.2716(3)
H18 H 0.8680(4) 0.6926(6) 0.2325(3)
O4 O 0.5012(4) 0.4085(5) 0.1052(3)
H19 H 0.4923(64) 0.3993(56) 0.0544(5)
H20 H 0.4439(28) 0.3827(58) 0.1126(57)
O5 O 0.5045(4) 0.7635(6) 0.1759(3)
H21 H 0.5145(56) 0.8251(38) 0.1424(27)
H22 H 0.5540(38) 0.7844(66) 0.2101(45)
C3B C 1.0125(4) 0.4266(6) 0.5671(3)
C1B C 1.0393(4) 0.5561(6) 0.5686(3)
C2B C 1.0280(4) 0.6294(6) 0.5019(3)
C10B C 1.0556(4) 0.7721(6) 0.5044(4)
H7B H 1.0295(4) 0.8141(6) 0.5454(4)
H8B H 1.0293(4) 0.8129(6) 0.4572(4)
N2B N 1.1582(3) 0.7903(5) 0.5159(3)
C11B C 1.2113(4) 0.7449(6) 0.4637(3)
H9B H 1.1824(4) 0.7007(6) 0.4214(3)
C12B C 1.3033(4) 0.7626(7) 0.4719(4)
H10B H 1.3367(4) 0.7293(7) 0.4354(4)
C14B C 1.3521(4) 0.8309(6) 0.5349(3)
C13B C 1.2952(5) 0.8759(7) 0.5879(4)
H11B H 1.3227(5) 0.9189(7) 0.6311(4)
C15B C 1.2008(5) 0.8578(6) 0.5771(4)
H12B H 1.1652(5) 0.8918(6) 0.6119(4)
O2B O 1.4402(3) 0.8474(5) 0.5422(3)
C4B C 1.0772(4) 0.6190(6) 0.6440(4)
H1B H 1.0383(4) 0.5939(6) 0.6816(4)
H2B H 1.0722(4) 0.7116(6) 0.6380(4)
N1B N 1.1750(4) 0.5863(5) 0.6731(3)
C5B C 1.2048(5) 0.6000(6) 0.7490(4)
H3B H 1.1639(5) 0.6337(6) 0.7797(4)
C6B C 1.2905(5) 0.5667(7) 0.7807(4)
H4B H 1.3086(5) 0.5806(7) 0.8323(4)
C7B C 1.3544(4) 0.5100(6) 0.7362(4)
O1B O 1.4337(3) 0.4616(5) 0.7634(3)
C8B C 1.3248(5) 0.5079(6) 0.6569(4)
H5B H 1.3661(5) 0.4821(6) 0.6243(4)
C9B C 1.2363(4) 0.5432(6) 0.6277(3)
H6B H 1.2176(4) 0.5376(6) 0.5756(3)
C16B C 1.0274(4) 0.3470(6) 0.6392(3)
H13B H 0.9824(4) 0.2776(6) 0.6350(3)
H14B H 1.0163(4) 0.4007(6) 0.6817(3)
N3B N 1.1217(3) 0.2923(5) 0.6550(3)
C17B C 1.1665(4) 0.2445(6) 0.5987(3)
H15B H 1.1361(4) 0.2459(6) 0.5491(3)
C18B C 1.2532(5) 0.1955(6) 0.6120(4)
H16B H 1.2814(5) 0.1645(6) 0.5718(4)
C19B C 1.3018(5) 0.1908(6) 0.6872(4)
O3B O 1.3868(3) 0.1534(6) 0.7014(3)
C20B C 1.2497(4) 0.2306(6) 0.7460(4)
H17B H 1.2755(4) 0.2219(6) 0.7967(4)
C21B C 1.1638(4) 0.2803(6) 0.7284(3)
H18B H 1.1320(4) 0.3074(6) 0.7675(3)
Cu1B Cu 1.48111(6) 0.40891(9) 0.86667(5)
Cl1B Cl 1.34705(14) 0.3658(3) 0.93778(11)
O4B O 1.4988(4) 0.5915(5) 0.8948(3)
H19B H 1.5077(64) 0.6007(56) 0.9456(5)
H20B H 1.5561(28) 0.6173(58) 0.8874(57)
O5B O 1.4955(4) 0.2365(6) 0.8241(3)
H21B H 1.4855(56) 0.1749(38) 0.8576(27)
H22B H 1.4460(38) 0.2156(66) 0.7899(45)
O2A O 0.4402(3) 0.6526(5) 0.0422(3)
Cu1A Cu 0.48111(6) 0.09109(9) 0.36667(5)
Cu1C Cu 1.51889(6) 0.90891(9) 0.63333(5)
O2C O 1.5598(3) 0.3474(5) 0.9578(3)
Br1 Br 0.01186(7) 0.49998(9) 0.17340(6)
O6 O 0.7871(7) 0.9166(8) 0.0638(4)
O7 O 0.5792(10) 0.9243(13) 0.0450(10)
O8 O 0.8591(8) 0.6845(15) 0.0809(6)
O9 O 0.3799(9) 0.6189(12) 0.2968(7)
O10 O 0.1870(6) 0.5854(8) 0.3050(5)
O11? O 0.5406(20) 0.9536(29) 0.0757(15)
O12? O 0.8520(33) 0.5857(48) 0.0594(27)
loop_
_geom_bond_atom_site_label_1
_geom_bond_atom_site_label_2
_geom_bond_site_symmetry_1
_geom_bond_site_symmetry_2
Cu1 Cl1 1_555 1_555
C1 C2 1_555 1_555
C2 C10 1_555 1_555
C3 C1 1_555 1_555
C4 C1 1_555 1_555
H1 C4 1_555 1_555
H2 C4 1_555 1_555
N1 C4 1_555 1_555
C5 N1 1_555 1_555
H3 C5 1_555 1_555
C6 C5 1_555 1_555
H4 C6 1_555 1_555
C7 C6 1_555 1_555
O1 Cu1 1_555 1_555
C8 C7 1_555 1_555
H5 C8 1_555 1_555
C9 N1 1_555 1_555
H6 C9 1_555 1_555
C10 H7 1_555 1_555
H8 C10 1_555 1_555
N2 C10 1_555 1_555
C11 N2 1_555 1_555
H9 C11 1_555 1_555
C12 C11 1_555 1_555
H10 C12 1_555 1_555
C13 H11 1_555 1_555
C14 C12 1_555 1_555
O2 C14 1_555 1_555
C15 N2 1_555 1_555
H12 C15 1_555 1_555
C16 C3 1_555 1_555
H13 C16 1_555 1_555
H14 C16 1_555 1_555
N3 C16 1_555 1_555
C17 N3 1_555 1_555
H15 C17 1_555 1_555
C18 C17 1_555 1_555
H16 C18 1_555 1_555
C19 C18 1_555 1_555
O3 C19 1_555 1_555
C20 C19 1_555 1_555
H17 C20 1_555 1_555
C21 N3 1_555 1_555
H18 C21 1_555 1_555
O4 Cu1 1_555 1_555
H19 O4 1_555 1_555
H20 O4 1_555 1_555
O5 Cu1 1_555 1_555
H21 O5 1_555 1_555
H22 O5 1_555 1_555
C3B C2 1_555 1_555
C1B C3B 1_555 1_555
C2B C3 1_555 1_555
C10B C2B 1_555 1_555
H7B C10B 1_555 1_555
H8B C10B 1_555 1_555
N2B C10B 1_555 1_555
C11B N2B 1_555 1_555
H9B C11B 1_555 1_555
C12B C11B 1_555 1_555
H10B C12B 1_555 1_555
C14B C12B 1_555 1_555
C13B C14B 1_555 1_555
H11B C13B 1_555 1_555
C15B N2B 1_555 1_555
H12B C15B 1_555 1_555
O2B C14B 1_555 1_555
C4B C1B 1_555 1_555
H1B C4B 1_555 1_555
H2B C4B 1_555 1_555
N1B C4B 1_555 1_555
C5B N1B 1_555 1_555
H3B C5B 1_555 1_555
C6B C5B 1_555 1_555
H4B C6B 1_555 1_555
C7B C6B 1_555 1_555
O1B C7B 1_555 1_555
C8B C7B 1_555 1_555
H5B C8B 1_555 1_555
C9B N1B 1_555 1_555
H6B C9B 1_555 1_555
C16B C3B 1_555 1_555
H13B C16B 1_555 1_555
H14B C16B 1_555 1_555
N3B C16B 1_555 1_555
C17B N3B 1_555 1_555
H15B C17B 1_555 1_555
C18B C17B 1_555 1_555
H16B C18B 1_555 1_555
C19B C18B 1_555 1_555
O3B C19B 1_555 1_555
C20B C19B 1_555 1_555
H17B C20B 1_555 1_555
C21B N3B 1_555 1_555
H18B C21B 1_555 1_555
Cu1B O1B 1_555 1_555
Cl1B Cu1B 1_555 1_555
O4B Cu1B 1_555 1_555
H19B O4B 1_555 1_555
H20B O4B 1_555 1_555
O5B Cu1B 1_555 1_555
H21B O5B 1_555 1_555
H22B O5B 1_555 1_555
O2A Cu1 1_555 1_555
Cu1A O2 1_555 1_555
Cu1C O2B 1_555 1_555
O2C Cu1B 1_555 1_555
C7 O1 1_555 1_555
C8 C9 1_555 1_555
C13 C14 1_555 1_555
C13 C15 1_555 1_555
C20 C21 1_555 1_555
C1B C2B 1_555 1_555
C13B C15B 1_555 1_555
C8B C9B 1_555 1_555
C20B C21B 1_555 1_555

#END
