
#######################################################################
#
#                 Cambridge Crystallographic Data Centre
#                                CCDC 
#
#######################################################################
#
# If this CIF has been generated from an entry in the Cambridge 
# Structural Database, then it will include bibliographic, chemical, 
# crystal, experimental, refinement or atomic coordinate data resulting 
# from the CCDC's data processing and validation procedures.
#
#######################################################################

data_HUWSIB
_symmetry_cell_setting           triclinic
_symmetry_space_group_name_H-M   'P -1'
_symmetry_Int_Tables_number      2
_space_group_name_Hall           '-P 1'
loop_
_symmetry_equiv_pos_site_id
_symmetry_equiv_pos_as_xyz
1 x,y,z
2 -x,-y,-z
_cell_length_a                   9.7426(7)
_cell_length_b                   14.6448(13)
_cell_length_c                   18.502(2)
_cell_angle_alpha                100.428(7)
_cell_angle_beta                 90.176(7)
_cell_angle_gamma                94.226(9)
_cell_volume                     2588.81
loop_
_atom_site_label
_atom_site_type_symbol
_atom_site_fract_x
_atom_site_fract_y
_atom_site_fract_z
Cu1 Cu 0.67030(8) 0.02885(4) 0.69446(4)
O1 O 0.4894(5) 0.0057(3) 0.7342(3)
H1 H 0.4181(60) 0.0411(52) 0.7324(55)
H2 H 0.4872(98) -0.0075(60) 0.7798(19)
O2 O 0.7634(11) 0.0910(4) 0.8091(4)
H3 H 0.809(10) 0.0608(69) 0.8388(52)
H4 H 0.792(13) 0.1505(28) 0.8278(65)
O3 O 0.8431(4) 0.0462(3) 0.6439(2)
H5 H 0.9167(57) 0.0231(60) 0.6615(50)
H6 H 0.8389(54) 0.0267(34) 0.5949(5)
C1 C 0.8732(4) -0.4620(3) 0.5121(2)
C2 C 0.9516(5) -0.4449(3) 0.4521(2)
C3 C 0.9209(5) -0.5171(3) 0.5599(2)
C4 C 0.7339(5) -0.4225(3) 0.5237(3)
H7 H 0.6716(5) -0.4669(3) 0.5428(3)
H8 H 0.6971(5) -0.4148(3) 0.4766(3)
N1 N 0.7387(4) -0.3309(2) 0.5754(2)
C5 C 0.6368(5) -0.2739(3) 0.5698(3)
H9 H 0.5693(5) -0.2920(3) 0.5333(3)
C6 C 0.6311(6) -0.1912(4) 0.6162(3)
H10 H 0.5616(6) -0.1529(4) 0.6101(3)
C7 C 0.7275(5) -0.1630(3) 0.6729(3)
O4 O 0.7289(4) -0.0848(2) 0.7188(2)
C8 C 0.8303(6) -0.2245(3) 0.6792(3)
H11 H 0.8958(6) -0.2097(3) 0.7169(3)
C9 C 0.8328(5) -0.3059(3) 0.6296(3)
H12 H 0.9022(5) -0.3451(3) 0.6337(3)
C10 C 0.8954(5) -0.3922(3) 0.3964(3)
H13 H 0.8095(5) -0.4244(3) 0.3761(3)
H14 H 0.9598(5) -0.3934(3) 0.3564(3)
N2 N 0.8709(4) -0.2944(3) 0.4260(2)
C11 C 0.9582(5) -0.2395(3) 0.4754(3)
H15 H 1.0336(5) -0.2649(3) 0.4929(3)
C12 C 0.9382(6) -0.1475(4) 0.5003(3)
H16 H 1.0016(6) -0.1113(4) 0.5332(3)
O5 O 0.7979(5) -0.0231(3) 0.5018(3)
C13 C 0.8231(6) -0.1067(4) 0.4768(3)
C14 C 0.7370(6) -0.1658(4) 0.4222(3)
H17 H 0.6633(6) -0.1417(4) 0.4019(3)
C15 C 0.7616(6) -0.2568(4) 0.3995(3)
H18 H 0.7023(6) -0.2942(4) 0.3651(3)
C16 C 0.8377(5) -0.5299(3) 0.6277(3)
H19 H 0.8955(5) -0.5085(3) 0.6711(3)
H20 H 0.7609(5) -0.4909(3) 0.6310(3)
N3 N 0.7843(4) -0.6258(3) 0.6280(2)
C17 C 0.7134(5) -0.6775(3) 0.5701(3)
H21 H 0.7061(5) -0.6538(3) 0.5270(3)
C18 C 0.6522(6) -0.7633(3) 0.5730(3)
H22 H 0.6042(6) -0.7973(3) 0.5321(3)
C19 C 0.6614(5) -0.8010(3) 0.6386(3)
O6 O 0.5995(4) -0.8808(2) 0.6427(2)
C20 C 0.7375(6) -0.7460(4) 0.6963(3)
H23 H 0.7496(6) -0.7687(4) 0.7396(3)
C21 C 0.7945(5) -0.6601(4) 0.6911(3)
H24 H 0.8414(5) -0.6240(4) 0.7315(3)
C3A C 1.0791(5) -0.4829(3) 0.4401(2)
C1A C 1.1268(4) -0.5380(3) 0.4879(2)
C2A C 1.0484(5) -0.5551(3) 0.5479(2)
C10A C 1.1046(5) -0.6078(3) 0.6036(3)
H13A H 1.1905(5) -0.5756(3) 0.6239(3)
H14A H 1.0402(5) -0.6066(3) 0.6436(3)
N2A N 1.1291(4) -0.7056(3) 0.5740(2)
C11A C 1.0418(5) -0.7605(3) 0.5246(3)
H15A H 0.9664(5) -0.7351(3) 0.5071(3)
C12A C 1.0618(6) -0.8525(4) 0.4997(3)
H16A H 0.9984(6) -0.8887(4) 0.4668(3)
C13A C 1.1769(6) -0.8933(4) 0.5232(3)
O5A O 1.2021(5) -0.9769(3) 0.4982(3)
C14A C 1.2630(6) -0.8342(4) 0.5778(3)
H17A H 1.3367(6) -0.8583(4) 0.5981(3)
C15A C 1.2384(6) -0.7432(4) 0.6005(3)
H18A H 1.2977(6) -0.7058(4) 0.6349(3)
C4A C 1.2661(5) -0.5775(3) 0.4763(3)
H7A H 1.3284(5) -0.5331(3) 0.4572(3)
H8A H 1.3029(5) -0.5852(3) 0.5234(3)
N1A N 1.2613(4) -0.6691(2) 0.4246(2)
C5A C 1.3632(5) -0.7261(3) 0.4302(3)
H9A H 1.4307(5) -0.7080(3) 0.4667(3)
C6A C 1.3689(6) -0.8088(4) 0.3838(3)
H10A H 1.4384(6) -0.8471(4) 0.3899(3)
C7A C 1.2725(5) -0.8370(3) 0.3271(3)
O4A O 1.2711(4) -0.9152(2) 0.2812(2)
C8A C 1.1697(6) -0.7755(3) 0.3208(3)
H11A H 1.1042(6) -0.7903(3) 0.2831(3)
C9A C 1.1672(5) -0.6941(3) 0.3704(3)
H12A H 1.0978(5) -0.6549(3) 0.3663(3)
C16A C 1.1623(5) -0.4701(3) 0.3723(3)
H19A H 1.1045(5) -0.4915(3) 0.3289(3)
H20A H 1.2391(5) -0.5091(3) 0.3690(3)
N3A N 1.2157(4) -0.3742(3) 0.3720(2)
C17A C 1.2866(5) -0.3225(3) 0.4299(3)
H21A H 1.2939(5) -0.3462(3) 0.4730(3)
C18A C 1.3478(6) -0.2367(3) 0.4270(3)
H22A H 1.3958(6) -0.2027(3) 0.4679(3)
C19A C 1.3386(5) -0.1990(3) 0.3614(3)
O6A O 1.4005(4) -0.1192(2) 0.3573(2)
C20A C 1.2625(6) -0.2540(4) 0.3037(3)
H23A H 1.2504(6) -0.2313(4) 0.2604(3)
C21A C 1.2055(5) -0.3399(4) 0.3089(3)
H24A H 1.1586(5) -0.3760(4) 0.2685(3)
Cu1A Cu 1.32970(8) -1.02885(4) 0.30554(4)
O1A O 1.5106(5) -1.0057(3) 0.2658(3)
H1A H 1.5819(60) -1.0411(52) 0.2676(55)
H2A H 1.5128(98) -0.9925(60) 0.2202(19)
O2A O 1.2366(11) -1.0910(4) 0.1909(4)
H3A H 1.191(10) -1.0608(69) 0.1612(52)
H4A H 1.208(13) -1.1505(28) 0.1722(65)
O3A O 1.1569(4) -1.0462(3) 0.3561(2)
H5A H 1.0833(57) -1.0231(60) 0.3385(50)
H6A H 1.1611(54) -1.0267(34) 0.4051(5)
O6_2 O 0.5995(4) 0.1192(2) 0.6427(2)
Cu1_2 Cu 0.67030(8) -0.97115(4) 0.69446(4)
Cu1A_2 Cu 1.32970(8) -0.02885(4) 0.30554(4)
O6A_2 O 1.4005(4) -1.1192(2) 0.3573(2)
C22 C 0.4033(5) 0.4855(3) 0.9418(2)
C23 C 0.3775(4) 0.4453(3) 1.0048(2)
C24 C 0.5261(5) 0.5398(3) 0.9377(2)
C25 C 0.2968(5) 0.4700(3) 0.8801(3)
H25 H 0.2075(5) 0.4840(3) 0.9005(3)
H26 H 0.3202(5) 0.5124(3) 0.8466(3)
N4 N 0.2884(4) 0.3731(3) 0.8390(2)
C26 C 0.4057(5) 0.3334(3) 0.8146(3)
H27 H 0.4896(5) 0.3688(3) 0.8216(3)
C27 C 0.4023(5) 0.2433(3) 0.7804(3)
H28 H 0.4842(5) 0.2178(3) 0.7649(3)
O7 O 0.2739(4) 0.1013(2) 0.7397(2)
C28 C 0.2774(5) 0.1870(3) 0.7675(3)
C29 C 0.1567(5) 0.2339(3) 0.7900(3)
H29 H 0.0704(5) 0.2021(3) 0.7809(3)
C30 C 0.1666(5) 0.3234(3) 0.8242(3)
H30 H 0.0862(5) 0.3520(3) 0.8381(3)
C31 C 0.2404(5) 0.3917(3) 1.0114(3)
H31 H 0.2096(5) 0.4078(3) 1.0616(3)
H32 H 0.1736(5) 0.4118(3) 0.9798(3)
N5 N 0.2421(4) 0.2880(2) 0.9919(2)
C32 C 0.3540(5) 0.2454(3) 0.9645(3)
H33 H 0.4349(5) 0.2813(3) 0.9592(3)
C33 C 0.3512(6) 0.1513(3) 0.9443(3)
H34 H 0.4295(6) 0.1238(3) 0.9253(3)
C34 C 0.2313(6) 0.0955(3) 0.9521(3)
O8 O 0.2217(5) 0.0044(2) 0.9320(3)
C35 C 0.1175(6) 0.1417(4) 0.9824(4)
H35 H 0.0362(6) 0.1073(4) 0.9896(4)
C36 C 0.1252(5) 0.2362(3) 1.0011(3)
H36 H 0.0486(5) 0.2656(3) 1.0206(3)
C37 C 0.5588(5) 0.5801(3) 0.8689(3)
H37 H 0.5076(5) 0.5424(3) 0.8276(3)
H38 H 0.6560(5) 0.5762(3) 0.8588(3)
N6 N 0.5252(4) 0.6789(3) 0.8746(2)
C38 C 0.4035(5) 0.7083(3) 0.9007(3)
H39 H 0.3408(5) 0.6667(3) 0.9181(3)
C39 C 0.3703(6) 0.7974(3) 0.9021(3)
H40 H 0.2866(6) 0.8159(3) 0.9213(3)
O9 O 0.4329(5) 0.9463(3) 0.8728(3)
C40 C 0.4606(6) 0.8608(4) 0.8751(3)
C41 C 0.5879(6) 0.8288(4) 0.8494(3)
H41 H 0.6529(6) 0.8693(4) 0.8324(3)
C42 C 0.6158(6) 0.7402(3) 0.8493(3)
H42 H 0.6997(6) 0.7204(3) 0.8313(3)
C24A C 0.4739(5) 0.4602(3) 1.0623(2)
C22A C 0.5967(5) 0.5145(3) 1.0582(2)
C23A C 0.6225(4) 0.5547(3) 0.9952(2)
C31A C 0.7596(5) 0.6083(3) 0.9886(3)
H31A H 0.7904(5) 0.5922(3) 0.9384(3)
H32A H 0.8264(5) 0.5882(3) 1.0202(3)
N5A N 0.7579(4) 0.7120(2) 1.0081(2)
C32A C 0.6460(5) 0.7546(3) 1.0355(3)
H33A H 0.5651(5) 0.7187(3) 1.0408(3)
C33A C 0.6488(6) 0.8487(3) 1.0557(3)
H34A H 0.5705(6) 0.8762(3) 1.0747(3)
C34A C 0.7687(6) 0.9045(3) 1.0479(3)
O8A O 0.7783(5) 0.9956(2) 1.0680(3)
C35A C 0.8825(6) 0.8583(4) 1.0176(4)
H35A H 0.9638(6) 0.8927(4) 1.0104(4)
C36A C 0.8748(5) 0.7638(3) 0.9989(3)
H36A H 0.9514(5) 0.7344(3) 0.9794(3)
C25A C 0.7032(5) 0.5300(3) 1.1199(3)
H25A H 0.7925(5) 0.5160(3) 1.0995(3)
H26A H 0.6798(5) 0.4876(3) 1.1534(3)
N4A N 0.7116(4) 0.6269(3) 1.1610(2)
C26A C 0.5943(5) 0.6666(3) 1.1854(3)
H27A H 0.5104(5) 0.6312(3) 1.1784(3)
C27A C 0.5977(5) 0.7567(3) 1.2196(3)
H28A H 0.5158(5) 0.7822(3) 1.2351(3)
C28A C 0.7226(5) 0.8130(3) 1.2325(3)
O7A O 0.7261(4) 0.8987(2) 1.2603(2)
C29A C 0.8433(5) 0.7661(3) 1.2100(3)
H29A H 0.9296(5) 0.7979(3) 1.2191(3)
C30A C 0.8334(5) 0.6766(3) 1.1758(3)
H30A H 0.9138(5) 0.6480(3) 1.1619(3)
C37A C 0.4412(5) 0.4199(3) 1.1311(3)
H37A H 0.4924(5) 0.4576(3) 1.1724(3)
H38A H 0.3440(5) 0.4238(3) 1.1412(3)
N6A N 0.4748(4) 0.3211(3) 1.1254(2)
C38A C 0.5965(5) 0.2917(3) 1.0993(3)
H39A H 0.6592(5) 0.3333(3) 1.0819(3)
C39A C 0.6297(6) 0.2026(3) 1.0979(3)
H40A H 0.7134(6) 0.1841(3) 1.0787(3)
C40A C 0.5394(6) 0.1392(4) 1.1249(3)
O9A O 0.5671(5) 0.0537(3) 1.1272(3)
C41A C 0.4121(6) 0.1712(4) 1.1506(3)
H41A H 0.3471(6) 0.1307(4) 1.1676(3)
C42A C 0.3842(6) 0.2598(3) 1.1507(3)
H42A H 0.3003(6) 0.2796(3) 1.1687(3)
Cl1 Cl 0.45138(15) 0.53081(12) 0.66305(8)
O10 O 0.3698(16) 0.5786(9) 0.6155(8)
O11 O 0.5677(21) 0.5847(16) 0.6928(12)
O12 O 0.3614(10) 0.4967(10) 0.7141(5)
O13 O 0.4929(8) 0.4475(5) 0.6157(5)
Cl2 Cl 0.78944(14) 0.34447(10) 0.91223(8)
O14 O 0.8884(17) 0.4051(13) 0.9587(11)
O15 O 0.8676(20) 0.2761(16) 0.8667(12)
O16 O 0.7430(16) 0.4039(15) 0.8585(9)
O17 O 0.6734(24) 0.3240(14) 0.9400(18)
Cl3 Cl 1.01732(15) 0.60648(12) 0.80321(9)
O18 O 1.0587(10) 0.6361(9) 0.7352(6)
O19 O 0.8805(16) 0.6166(17) 0.8103(14)
O20 O 1.1039(15) 0.6491(8) 0.8598(8)
O21 O 1.0461(10) 0.5118(6) 0.7809(5)
O22 O 0.0586(5) -0.0246(4) 0.6990(4)
O23 O 0.4162(11) 0.9524(5) 0.5575(6)
O24 O 0.9538(12) 0.9587(7) 0.8452(6)
O25 O 0.2139(15) 0.8368(13) 0.6162(9)
O26? O 0.4149(20) 0.5651(14) 0.6014(12)
O27? O 0.5717(37) 0.5911(23) 0.6974(22)
O28? O 0.3483(25) 0.5447(14) 0.7139(13)
O29? O 0.4842(38) 0.4432(12) 0.6693(21)
O30? O 0.8354(18) 0.3872(15) 0.9825(9)
O31? O 0.8779(36) 0.2763(26) 0.8868(20)
O32? O 0.7629(32) 0.4111(11) 0.8710(13)
O33? O 0.6585(27) 0.2886(16) 0.9234(16)
O34? O 1.0771(35) 0.6850(22) 0.7798(19)
O35? O 0.8669(26) 0.6104(14) 0.8008(13)
O36? O 1.0615(18) 0.6220(12) 0.8791(10)
O37? O 1.0270(65) 0.4965(40) 0.7831(34)
O38? O 0.3127(25) 0.9042(16) 0.5879(13)
O39? O 1.0484(65) 0.8900(42) 0.8370(33)
O40? O 0.1790(20) 0.6953(13) 0.5994(10)
loop_
_geom_bond_atom_site_label_1
_geom_bond_atom_site_label_2
_geom_bond_site_symmetry_1
_geom_bond_site_symmetry_2
Cu1 O1 1_555 1_555
O1 H1 1_555 1_555
H2 O1 1_555 1_555
O2 Cu1 1_555 1_555
H3 O2 1_555 1_555
H4 O2 1_555 1_555
O3 Cu1 1_555 1_555
H5 O3 1_555 1_555
H6 O3 1_555 1_555
C1 C2 1_555 1_555
C2 C10 1_555 1_555
C3 C1 1_555 1_555
C4 C1 1_555 1_555
H7 C4 1_555 1_555
H8 C4 1_555 1_555
N1 C4 1_555 1_555
C5 N1 1_555 1_555
H9 C5 1_555 1_555
C6 C5 1_555 1_555
H10 C6 1_555 1_555
C7 C6 1_555 1_555
O4 Cu1 1_555 1_555
C8 C7 1_555 1_555
H11 C8 1_555 1_555
C9 N1 1_555 1_555
H12 C9 1_555 1_555
C10 H13 1_555 1_555
H14 C10 1_555 1_555
N2 C10 1_555 1_555
C11 N2 1_555 1_555
H15 C11 1_555 1_555
C12 C11 1_555 1_555
H16 C12 1_555 1_555
O5 C13 1_555 1_555
C13 C12 1_555 1_555
C14 C13 1_555 1_555
H17 C14 1_555 1_555
C15 N2 1_555 1_555
H18 C15 1_555 1_555
C16 C3 1_555 1_555
H19 C16 1_555 1_555
H20 C16 1_555 1_555
N3 C16 1_555 1_555
C17 N3 1_555 1_555
H21 C17 1_555 1_555
C18 C17 1_555 1_555
H22 C18 1_555 1_555
C19 C18 1_555 1_555
O6 C19 1_555 1_555
C20 C19 1_555 1_555
H23 C20 1_555 1_555
C21 N3 1_555 1_555
H24 C21 1_555 1_555
C22 C23 1_555 1_555
C23 C31 1_555 1_555
C24 C22 1_555 1_555
C25 C22 1_555 1_555
H25 C25 1_555 1_555
H26 C25 1_555 1_555
N4 C25 1_555 1_555
C26 N4 1_555 1_555
H27 C26 1_555 1_555
C27 C26 1_555 1_555
H28 C27 1_555 1_555
O7 C28 1_555 1_555
C28 C27 1_555 1_555
C29 C28 1_555 1_555
H29 C29 1_555 1_555
C30 N4 1_555 1_555
H30 C30 1_555 1_555
C31 H31 1_555 1_555
H32 C31 1_555 1_555
N5 C31 1_555 1_555
C32 N5 1_555 1_555
H33 C32 1_555 1_555
C33 C32 1_555 1_555
H34 C33 1_555 1_555
C34 C33 1_555 1_555
O8 C34 1_555 1_555
C35 C34 1_555 1_555
H35 C35 1_555 1_555
C36 N5 1_555 1_555
H36 C36 1_555 1_555
C37 C24 1_555 1_555
H37 C37 1_555 1_555
H38 C37 1_555 1_555
N6 C37 1_555 1_555
C38 N6 1_555 1_555
H39 C38 1_555 1_555
C39 C38 1_555 1_555
H40 C39 1_555 1_555
O9 C40 1_555 1_555
C40 C39 1_555 1_555
C41 C40 1_555 1_555
H41 C41 1_555 1_555
C42 N6 1_555 1_555
H42 C42 1_555 1_555
Cl1 O10 1_555 1_555
O11 Cl1 1_555 1_555
O12 Cl1 1_555 1_555
O13 Cl1 1_555 1_555
Cl2 O14 1_555 1_555
O15 Cl2 1_555 1_555
O16 Cl2 1_555 1_555
O17 Cl2 1_555 1_555
Cl3 O18 1_555 1_555
O19 Cl3 1_555 1_555
O20 Cl3 1_555 1_555
O21 Cl3 1_555 1_555
C3A C2 1_555 1_555
C1A C3A 1_555 1_555
C2A C3 1_555 1_555
C10A C2A 1_555 1_555
H13A C10A 1_555 1_555
H14A C10A 1_555 1_555
N2A C10A 1_555 1_555
C11A N2A 1_555 1_555
H15A C11A 1_555 1_555
C12A C11A 1_555 1_555
H16A C12A 1_555 1_555
C13A C12A 1_555 1_555
O5A C13A 1_555 1_555
C14A C13A 1_555 1_555
H17A C14A 1_555 1_555
C15A N2A 1_555 1_555
H18A C15A 1_555 1_555
C4A C1A 1_555 1_555
H7A C4A 1_555 1_555
H8A C4A 1_555 1_555
N1A C4A 1_555 1_555
C5A N1A 1_555 1_555
H9A C5A 1_555 1_555
C6A C5A 1_555 1_555
H10A C6A 1_555 1_555
C7A C6A 1_555 1_555
O4A C7A 1_555 1_555
C8A C7A 1_555 1_555
H11A C8A 1_555 1_555
C9A N1A 1_555 1_555
H12A C9A 1_555 1_555
C16A C3A 1_555 1_555
H19A C16A 1_555 1_555
H20A C16A 1_555 1_555
N3A C16A 1_555 1_555
C17A N3A 1_555 1_555
H21A C17A 1_555 1_555
C18A C17A 1_555 1_555
H22A C18A 1_555 1_555
C19A C18A 1_555 1_555
O6A C19A 1_555 1_555
C20A C19A 1_555 1_555
H23A C20A 1_555 1_555
C21A N3A 1_555 1_555
H24A C21A 1_555 1_555
Cu1A O4A 1_555 1_555
O1A Cu1A 1_555 1_555
H1A O1A 1_555 1_555
H2A O1A 1_555 1_555
O2A Cu1A 1_555 1_555
H3A O2A 1_555 1_555
H4A O2A 1_555 1_555
O3A Cu1A 1_555 1_555
H5A O3A 1_555 1_555
H6A O3A 1_555 1_555
O6_2 Cu1 1_555 1_555
Cu1_2 O6 1_555 1_555
Cu1A_2 O6A 1_555 1_555
O6A_2 Cu1A 1_555 1_555
C24A C23 1_555 1_555
C22A C24A 1_555 1_555
C23A C24 1_555 1_555
C31A C23A 1_555 1_555
H31A C31A 1_555 1_555
H32A C31A 1_555 1_555
N5A C31A 1_555 1_555
C32A N5A 1_555 1_555
H33A C32A 1_555 1_555
C33A C32A 1_555 1_555
H34A C33A 1_555 1_555
C34A C33A 1_555 1_555
O8A C34A 1_555 1_555
C35A C34A 1_555 1_555
H35A C35A 1_555 1_555
C36A N5A 1_555 1_555
H36A C36A 1_555 1_555
C25A C22A 1_555 1_555
H25A C25A 1_555 1_555
H26A C25A 1_555 1_555
N4A C25A 1_555 1_555
C26A N4A 1_555 1_555
H27A C26A 1_555 1_555
C27A C26A 1_555 1_555
H28A C27A 1_555 1_555
C28A C27A 1_555 1_555
O7A C28A 1_555 1_555
C29A C28A 1_555 1_555
H29A C29A 1_555 1_555
C30A N4A 1_555 1_555
H30A C30A 1_555 1_555
C37A C24A 1_555 1_555
H37A C37A 1_555 1_555
H38A C37A 1_555 1_555
N6A C37A 1_555 1_555
C38A N6A 1_555 1_555
H39A C38A 1_555 1_555
C39A C38A 1_555 1_555
H40A C39A 1_555 1_555
C40A C39A 1_555 1_555
O9A C40A 1_555 1_555
C41A C40A 1_555 1_555
H41A C41A 1_555 1_555
C42A N6A 1_555 1_555
H42A C42A 1_555 1_555
C7 O4 1_555 1_555
C8 C9 1_555 1_555
C14 C15 1_555 1_555
C20 C21 1_555 1_555
C29 C30 1_555 1_555
C35 C36 1_555 1_555
C41 C42 1_555 1_555
C1A C2A 1_555 1_555
C14A C15A 1_555 1_555
C8A C9A 1_555 1_555
C20A C21A 1_555 1_555
C22A C23A 1_555 1_555
C35A C36A 1_555 1_555
C29A C30A 1_555 1_555
C41A C42A 1_555 1_555

#END
