
#######################################################################
#
#                 Cambridge Crystallographic Data Centre
#                                CCDC 
#
#######################################################################
#
# If this CIF has been generated from an entry in the Cambridge 
# Structural Database, then it will include bibliographic, chemical, 
# crystal, experimental, refinement or atomic coordinate data resulting 
# from the CCDC's data processing and validation procedures.
#
#######################################################################

data_HUXDIN
_symmetry_cell_setting           orthorhombic
_symmetry_space_group_name_H-M   'P n 21 a'
_symmetry_Int_Tables_number      33
_space_group_name_Hall           'P -2ac -2n'
loop_
_symmetry_equiv_pos_site_id
_symmetry_equiv_pos_as_xyz
1 x,y,z
2 -x,1/2+y,-z
3 1/2-x,1/2+y,1/2+z
4 1/2+x,y,1/2-z
_cell_length_a                   10.451(2)
_cell_length_b                   9.450(2)
_cell_length_c                   24.193(6)
_cell_angle_alpha                90
_cell_angle_beta                 90
_cell_angle_gamma                90
_cell_volume                     2389.35
loop_
_atom_site_label
_atom_site_type_symbol
_atom_site_fract_x
_atom_site_fract_y
_atom_site_fract_z
B1 B 0.7430(15) 0.1965(17) 0.3556(6)
F1 F 0.7347(16) 0.1220(18) 0.4038(6)
F2 F 0.6395(15) 0.1655(19) 0.3240(7)
F3 F 0.8495(15) 0.1621(19) 0.3278(7)
F4 F 0.7402(16) 0.3369(15) 0.3672(7)
B2 B 0.7128(15) 0.1450(17) 0.6366(7)
F5 F 0.7098(17) 0.2375(19) 0.5933(7)
F6 F 0.6507(17) 0.203(2) 0.6800(7)
F7 F 0.6523(16) 0.0235(17) 0.6215(7)
F8 F 0.8349(14) 0.117(2) 0.6497(7)
Ag1 Ag 0.51045(9) 0.4288(3) 0.21340(6)
Ag2 Ag 1.01077(13) -0.0694(3) 0.12943(6)
O1 O 0.959(3) 0.033(3) 0.0358(11)
C1 C 0.7766(13) 0.2814(15) 0.2102(5)
C2 C 0.8742(17) 0.1885(15) 0.2013(6)
H1 H 0.9547 0.2050 0.2163
C3 C 0.6369(17) 0.1453(15) 0.1587(6)
H2 H 0.5569 0.1291 0.1432
C4 C 0.7331(15) 0.0508(19) 0.1503(7)
H3 H 0.7160 -0.0310 0.1303
C5 C 0.7473(12) 0.5947(14) 0.2899(5)
C6 C 0.6543(17) 0.6857(15) 0.3011(6)
H4 H 0.5746 0.6743 0.2846
C7 C 0.892(2) 0.7115(18) 0.3477(7)
H5 H 0.9729 0.7206 0.3637
C8 C 0.7959(15) 0.804(2) 0.3586(8)
H6 H 0.8129 0.8782 0.3828
N1 N 0.6572(11) 0.2644(14) 0.1900(5)
N2 N 0.8521(14) 0.0711(16) 0.1699(6)
N3 N 0.7158(10) 0.4702(10) 0.2612(4)
N4 N 0.8077(11) 0.3936(12) 0.2483(5)
N5 N 0.8643(10) 0.6057(12) 0.3122(5)
N6 N 0.6738(11) 0.7954(13) 0.3363(5)
N4C N 0.3077(11) 0.3936(12) 0.2517(5)
N5C N 0.3643(10) 0.6057(12) 0.1878(5)
N6C N 1.1738(11) -0.2046(13) 0.1637(5)
Ag1C Ag 1.01045(9) 0.4288(3) 0.28660(6)
Ag2C Ag 0.51077(13) 0.9306(3) 0.37057(6)
loop_
_geom_bond_atom_site_label_1
_geom_bond_atom_site_label_2
_geom_bond_site_symmetry_1
_geom_bond_site_symmetry_2
Ag1 N1 1_555 1_555
Ag2 O1 1_555 1_555
C1 C2 1_555 1_555
C2 H1 1_555 1_555
C3 H2 1_555 1_555
C4 C3 1_555 1_555
H3 C4 1_555 1_555
C5 C6 1_555 1_555
C6 H4 1_555 1_555
C7 H5 1_555 1_555
C8 C7 1_555 1_555
H6 C8 1_555 1_555
N1 C1 1_555 1_555
N2 Ag2 1_555 1_555
N3 Ag1 1_555 1_555
N4 C1 1_555 1_555
N5 C5 1_555 1_555
N6 C6 1_555 1_555
B1 F1 1_555 1_555
F2 B1 1_555 1_555
F3 B1 1_555 1_555
F4 B1 1_555 1_555
B2 F5 1_555 1_555
F6 B2 1_555 1_555
F7 B2 1_555 1_555
F8 B2 1_555 1_555
N4C Ag1 1_555 1_555
N5C Ag1 1_555 1_555
N6C Ag2 1_555 1_555
Ag1C N4 1_555 1_555
Ag2C N6 1_555 1_555
C2 N2 1_555 1_555
C3 N1 1_555 1_555
C4 N2 1_555 1_555
C5 N3 1_555 1_555
C7 N5 1_555 1_555
C8 N6 1_555 1_555
N3 N4 1_555 1_555
N5 Ag1C 1_555 1_555

#END
