
#######################################################################
#
#                 Cambridge Crystallographic Data Centre
#                                CCDC 
#
#######################################################################
#
# If this CIF has been generated from an entry in the Cambridge 
# Structural Database, then it will include bibliographic, chemical, 
# crystal, experimental, refinement or atomic coordinate data resulting 
# from the CCDC's data processing and validation procedures.
#
#######################################################################

data_HUXTUP
_symmetry_cell_setting           monoclinic
_symmetry_space_group_name_H-M   'P 21/n'
_symmetry_Int_Tables_number      14
_space_group_name_Hall           '-P 2yn'
loop_
_symmetry_equiv_pos_site_id
_symmetry_equiv_pos_as_xyz
1 x,y,z
2 1/2-x,1/2+y,1/2-z
3 -x,-y,-z
4 1/2+x,1/2-y,1/2+z
_cell_length_a                   12.620(2)
_cell_length_b                   11.1416(18)
_cell_length_c                   19.315(3)
_cell_angle_alpha                90
_cell_angle_beta                 101.883(2)
_cell_angle_gamma                90
_cell_volume                     2657.62
loop_
_atom_site_label
_atom_site_type_symbol
_atom_site_fract_x
_atom_site_fract_y
_atom_site_fract_z
Zn1 Zn 0.70281(8) 0.19333(8) 0.22814(5)
O1 O 0.7319(5) 0.3905(5) 0.2414(3)
O2 O 0.5678(5) 0.2457(5) 0.1659(3)
O3 O 0.8518(5) 0.5262(5) 0.2940(3)
N1 N 0.7476(6) 0.1965(6) 0.3357(4)
N2 N 0.8485(6) 0.2503(6) 0.3587(4)
N3 N 0.8519(5) 0.1976(6) 0.2027(3)
N4 N 0.9288(5) 0.2494(6) 0.2557(4)
C1 C 0.9840(10) 0.3051(12) 0.4672(7)
H1 H 1.0201 0.3421 0.4322
H2 H 1.0313 0.2435 0.4935
H3 H 0.9687 0.3666 0.5000
C2 C 0.8776(8) 0.2472(10) 0.4293(6)
C3 C 0.7980(8) 0.1889(10) 0.4532(6)
H4 H 0.7965 0.1724 0.5013
C4 C 0.7193(7) 0.1579(8) 0.3948(5)
C5 C 0.6112(8) 0.0970(9) 0.3947(5)
C6 C 0.6315(9) -0.0387(10) 0.3997(6)
H5 H 0.6564 -0.0662 0.3576
H6 H 0.5641 -0.0802 0.4027
H7 H 0.6869 -0.0565 0.4420
C7 C 0.5736(9) 0.1363(10) 0.4621(6)
H8 H 0.6290 0.1151 0.5037
H9 H 0.5056 0.0956 0.4645
H10 H 0.5622 0.2234 0.4610
C8 C 0.5264(8) 0.1288(10) 0.3312(5)
H11 H 0.5502 0.1035 0.2883
H12 H 0.5149 0.2159 0.3300
H13 H 0.4586 0.0880 0.3339
C9 C 1.1268(8) 0.2883(10) 0.2894(6)
H14 H 1.1068 0.3259 0.3307
H15 H 1.1614 0.3479 0.2640
H16 H 1.1773 0.2222 0.3049
C10 C 1.0275(7) 0.2409(8) 0.2414(5)
C11 C 1.0173(7) 0.1812(8) 0.1789(5)
H17 H 1.0740 0.1609 0.1554
C12 C 0.9085(7) 0.1559(7) 0.1561(4)
C13 C 0.8565(7) 0.0916(8) 0.0874(5)
C14 C 0.8771(8) -0.0419(8) 0.0990(5)
H18 H 0.8417 -0.0702 0.1366
H19 H 0.9552 -0.0564 0.1128
H20 H 0.8479 -0.0854 0.0551
C15 C 0.9140(8) 0.1335(9) 0.0288(5)
H21 H 0.9022 0.2198 0.0208
H22 H 0.8846 0.0899 -0.0150
H23 H 0.9918 0.1176 0.0432
C16 C 0.7367(7) 0.1195(8) 0.0638(5)
H24 H 0.7268 0.2062 0.0569
H25 H 0.6980 0.0923 0.1000
H26 H 0.7079 0.0779 0.0191
C17 C 0.8945(7) 0.3202(8) 0.3105(5)
H27 H 0.9610 0.3588 0.3387
C18 C 0.8165(7) 0.4237(8) 0.2784(4)
O3A O 0.6482(5) 0.0262(5) 0.2060(3)
Zn1A Zn 0.79719(8) 0.69333(8) 0.27186(5)
Cl1 Cl 0.30102(19) 0.1205(2) 0.13694(13)
O4 O 0.2168(7) 0.0692(16) 0.0938(7)
O5 O 0.2957(7) 0.1042(9) 0.2061(4)
O6 O 0.4015(5) 0.0814(6) 0.1235(4)
O7 O 0.2913(13) 0.2425(13) 0.1228(9)
loop_
_geom_bond_atom_site_label_1
_geom_bond_atom_site_label_2
_geom_bond_site_symmetry_1
_geom_bond_site_symmetry_2
Zn1 O1 1_555 1_555
Cl1 O4 1_555 1_555
O1 C18 1_555 1_555
O2 Zn1 1_555 1_555
O3 C18 1_555 1_555
O5 Cl1 1_555 1_555
O6 Cl1 1_555 1_555
O7 Cl1 1_555 1_555
N1 Zn1 1_555 1_555
N2 N1 1_555 1_555
N3 Zn1 1_555 1_555
N4 N3 1_555 1_555
C1 H1 1_555 1_555
H2 C1 1_555 1_555
H3 C1 1_555 1_555
C2 N2 1_555 1_555
C3 C2 1_555 1_555
H4 C3 1_555 1_555
C4 N1 1_555 1_555
C5 C4 1_555 1_555
C6 C5 1_555 1_555
H5 C6 1_555 1_555
H6 C6 1_555 1_555
H7 C6 1_555 1_555
C7 C5 1_555 1_555
H8 C7 1_555 1_555
H9 C7 1_555 1_555
H10 C7 1_555 1_555
C8 C5 1_555 1_555
H11 C8 1_555 1_555
H12 C8 1_555 1_555
H13 C8 1_555 1_555
C9 H14 1_555 1_555
H15 C9 1_555 1_555
H16 C9 1_555 1_555
C10 N4 1_555 1_555
C11 C10 1_555 1_555
H17 C11 1_555 1_555
C12 N3 1_555 1_555
C13 C12 1_555 1_555
C14 C13 1_555 1_555
H18 C14 1_555 1_555
H19 C14 1_555 1_555
H20 C14 1_555 1_555
C15 C13 1_555 1_555
H21 C15 1_555 1_555
H22 C15 1_555 1_555
H23 C15 1_555 1_555
C16 C13 1_555 1_555
H24 C16 1_555 1_555
H25 C16 1_555 1_555
H26 C16 1_555 1_555
C17 N2 1_555 1_555
H27 C17 1_555 1_555
C18 C17 1_555 1_555
O3A Zn1 1_555 1_555
Zn1A O3 1_555 1_555
N4 C17 1_555 1_555
C1 C2 1_555 1_555
C3 C4 1_555 1_555
C9 C10 1_555 1_555
C11 C12 1_555 1_555

#END
