
#######################################################################
#
#                 Cambridge Crystallographic Data Centre
#                                CCDC 
#
#######################################################################
#
# If this CIF has been generated from an entry in the Cambridge 
# Structural Database, then it will include bibliographic, chemical, 
# crystal, experimental, refinement or atomic coordinate data resulting 
# from the CCDC's data processing and validation procedures.
#
#######################################################################

data_HUYJOA
_symmetry_cell_setting           tetragonal
_symmetry_space_group_name_H-M   'P 43 2 2'
_symmetry_Int_Tables_number      95
_space_group_name_Hall           'P 4cw 2c'
loop_
_symmetry_equiv_pos_site_id
_symmetry_equiv_pos_as_xyz
1 x,y,z
2 -y,x,3/4+z
3 -x,-y,1/2+z
4 y,-x,1/4+z
5 -x,y,-z
6 y,x,1/4-z
7 x,-y,1/2-z
8 -y,-x,3/4-z
_cell_length_a                   16.3116(14)
_cell_length_b                   16.3116(14)
_cell_length_c                   30.060(3)
_cell_angle_alpha                90
_cell_angle_beta                 90
_cell_angle_gamma                90
_cell_volume                     7998.01
loop_
_atom_site_label
_atom_site_type_symbol
_atom_site_fract_x
_atom_site_fract_y
_atom_site_fract_z
C36 C 0.2426(18) 0.9719(19) 0.2169(9)
O12 O 0.4200(17) 0.9111(17) 0.2133(10)
C37 C 0.3263(19) 0.923(3) 0.2174(18)
C1 C 0.3844(5) 0.6326(5) 0.1087(3)
C2 C 0.3134(5) 0.6844(5) 0.1203(3)
C3 C 0.2558(5) 0.6622(5) 0.1523(3)
H1 H 0.2620 0.6124 0.1670
C4 C 0.1902(5) 0.7112(5) 0.1630(3)
C5 C 0.1314(6) 0.6874(7) 0.1991(3)
C6 C 0.1827(5) 0.7858(5) 0.1418(3)
H2 H 0.1395 0.8203 0.1494
C7 C 0.2372(5) 0.8101(5) 0.1099(3)
C8 C 0.2272(6) 0.8922(6) 0.0870(4)
C9 C 0.3036(5) 0.7587(5) 0.0992(3)
H3 H 0.3411 0.7750 0.0776
C10 C 0.3218(7) 0.4187(8) 0.0758(4)
H4 H 0.2970 0.4530 0.0966
C11 C 0.2730(8) 0.3800(10) 0.0461(5)
H5 H 0.2180 0.3940 0.0437
C12 C 0.3062(9) 0.3188(9) 0.0192(4)
H6 H 0.2739 0.2888 -0.0004
C13 C 0.3879(7) 0.3052(7) 0.0230(3)
H7 H 0.4122 0.2640 0.0061
C14 C 0.4353(6) 0.3514(6) 0.0515(3)
H8 H 0.4913 0.3413 0.0529
C15 C -0.1384(6) 0.6137(5) 0.2264(3)
H9 H -0.1382 0.6013 0.2566
C16 C -0.1922(6) 0.5709(6) 0.1999(4)
H10 H -0.2265 0.5311 0.2119
C17 C -0.1940(7) 0.5886(8) 0.1551(4)
H11 H -0.2289 0.5608 0.1358
C18 C -0.1417(9) 0.6493(9) 0.1399(4)
H12 H -0.1410 0.6642 0.1100
C19 C -0.0908(7) 0.6872(8) 0.1700(4)
H13 H -0.0560 0.7277 0.1593
C20 C -0.1386(8) 0.8605(8) 0.2254(4)
H14 H -0.1755 0.8233 0.2375
C21 C -0.1676(9) 0.9280(9) 0.2041(5)
H15 H -0.2239 0.9360 0.2019
C22 C -0.1170(9) 0.9826(13) 0.1865(4)
H16 H -0.1380 1.0284 0.1720
C23 C -0.0338(8) 0.9719(10) 0.1895(4)
H17 H 0.0025 1.0099 0.1775
C24 C -0.0062(6) 0.9029(7) 0.2111(4)
H18 H 0.0502 0.8950 0.2130
C25 C 0.6174(9) 0.5530(10) 0.0695(5)
C27 C 0.6353(8) 0.5803(9) 0.0223(4)
C28 C 0.7260(11) 0.5827(13) 0.0331(7)
C29 C 0.7699(18) 0.6392(14) 0.0012(9)
C30 C 0.0157(7) 0.5692(8) 0.3124(4)
C31 C 0.0833(8) 0.5452(9) 0.3455(4)
C32 C 0.0502(11) 0.4752(11) 0.3748(7)
C33 C 0.042(2) 0.528(3) 0.4168(11)
C34 C 0.1364(13) 0.7817(9) 0.3163(7)
C35 C 0.1752(15) 0.8385(17) 0.3505(2)
N1 N 0.4032(5) 0.4109(5) 0.0773(3)
N2 N -0.0873(5) 0.6707(5) 0.2127(3)
N3 N -0.0554(5) 0.8459(5) 0.2296(3)
O1 O 0.3872(3) 0.5625(3) 0.1281(2)
O2 O 0.4375(4) 0.6592(4) 0.0818(2)
O3 O 0.1377(4) 0.6152(4) 0.2162(2)
O4 O 0.0792(4) 0.7396(4) 0.2114(2)
O5 O 0.2688(4) 0.9006(4) 0.0520(2)
O6 O 0.1760(5) 0.9405(5) 0.1014(3)
O7 O 0.5364(4) 0.5383(4) 0.0761(2)
H19 H 0.520(7) 0.585(3) 0.069(4)
O8 O 0.0372(4) 0.6287(4) 0.2813(2)
H20 H 0.0851 0.6219 0.2737
O9 O 0.0622(4) 0.8111(4) 0.2987(2)
H21 H 0.0280 0.8142 0.3186
O10 O 0.8547(14) 0.6192(11) 0.0193(6)
O11 O 0.075(2) 0.452(2) 0.4320(10)
Ni1 Ni 0.47366(7) 0.47366(7) 0.1250
Ni2 Ni -0.01022(7) 0.73653(7) 0.25589(4)
C35G C 0.1615(17) 0.8248(15) 0.3995(2)
C34G C 0.2183(9) 0.8636(13) 0.4337(7)
O9G O 0.1889(4) 0.9378(4) 0.4513(2)
H21G H 0.1858 0.9720 0.4314
C10E C 0.4187(8) 0.3218(7) 0.1742(4)
H4E H 0.4530 0.2970 0.1534
C11E C 0.3800(10) 0.2730(8) 0.2039(5)
H5E H 0.3940 0.2180 0.2063
C12E C 0.3188(9) 0.3062(9) 0.2308(4)
H6E H 0.2888 0.2739 0.2504
C13E C 0.3052(7) 0.3879(7) 0.2270(3)
H7E H 0.2640 0.4122 0.2439
C14E C 0.3514(6) 0.4353(6) 0.1985(3)
H8E H 0.3413 0.4913 0.1971
N1E N 0.4109(5) 0.4032(5) 0.1727(3)
C1E C 0.6326(5) 0.3844(5) 0.1413(3)
C2E C 0.6844(5) 0.3134(5) 0.1297(3)
C3E C 0.6622(5) 0.2558(5) 0.0977(3)
H1E H 0.6124 0.2620 0.0830
C4E C 0.7112(5) 0.1902(5) 0.0870(3)
C5E C 0.6874(7) 0.1314(6) 0.0509(3)
C6E C 0.7858(5) 0.1827(5) 0.1082(3)
H2E H 0.8203 0.1395 0.1006
C7E C 0.8101(5) 0.2372(5) 0.1401(3)
C8E C 0.8922(6) 0.2272(6) 0.1630(4)
C9E C 0.7587(5) 0.3036(5) 0.1508(3)
H3E H 0.7750 0.3411 0.1724
O1E O 0.5625(3) 0.3872(3) 0.1219(2)
O2E O 0.6592(4) 0.4375(4) 0.1682(2)
O3E O 0.6152(4) 0.1377(4) 0.0338(2)
O4E O 0.7396(4) 0.0792(4) 0.0386(2)
O5E O 0.9006(4) 0.2688(4) 0.1980(2)
O6E O 0.9405(5) 0.1760(5) 0.1486(3)
C25E C 0.5530(10) 0.6174(9) 0.1805(5)
C27E C 0.5803(9) 0.6353(8) 0.2277(4)
C28E C 0.5827(13) 0.7260(11) 0.2169(7)
C29E C 0.6392(14) 0.7699(18) 0.2488(9)
O7E O 0.5383(4) 0.5364(4) 0.1739(2)
H19E H 0.585(3) 0.520(7) 0.181(4)
O10E O 0.6192(11) 0.8547(14) 0.2307(6)
Ni2E Ni 0.73653(7) -0.01022(7) -0.00589(4)
C15E C 0.6137(5) -0.1384(6) 0.0236(3)
H9E H 0.6013 -0.1382 -0.0066
C16E C 0.5709(6) -0.1922(6) 0.0501(4)
H10E H 0.5311 -0.2265 0.0381
C17E C 0.5886(8) -0.1940(7) 0.0949(4)
H11E H 0.5608 -0.2289 0.1142
C18E C 0.6493(9) -0.1417(9) 0.1101(4)
H12E H 0.6642 -0.1410 0.1400
C19E C 0.6872(8) -0.0908(7) 0.0800(4)
H13E H 0.7277 -0.0560 0.0907
N2E N 0.6707(5) -0.0873(5) 0.0373(3)
C20E C 0.8605(8) -0.1386(8) 0.0246(4)
H14E H 0.8233 -0.1755 0.0125
C21E C 0.9280(9) -0.1676(9) 0.0459(5)
H15E H 0.9360 -0.2239 0.0481
C22E C 0.9826(13) -0.1170(9) 0.0635(4)
H16E H 1.0284 -0.1380 0.0780
C23E C 0.9719(10) -0.0338(8) 0.0605(4)
H17E H 1.0099 0.0025 0.0725
C24E C 0.9029(7) -0.0062(6) 0.0389(4)
H18E H 0.8950 0.0502 0.0370
N3E N 0.8459(5) -0.0554(5) 0.0204(3)
C30E C 0.5692(8) 0.0157(7) -0.0624(4)
C31E C 0.5452(9) 0.0833(8) -0.0955(4)
C32E C 0.4752(11) 0.0502(11) -0.1248(7)
C33E C 0.528(3) 0.042(2) -0.1668(11)
O8E O 0.6287(4) 0.0372(4) -0.0313(2)
H20E H 0.6219 0.0851 -0.0237
O11E O 0.452(2) 0.075(2) -0.1820(10)
Ni2A Ni 0.26347(7) 0.98978(7) 0.00589(4)
O5C O -0.0994(4) 0.7312(4) 0.3020(2)
Ni2G Ni 0.26347(7) 1.01022(7) 0.49411(4)
Ni2F Ni 0.98978(7) 0.26347(7) 0.24411(4)
O5D O 0.7312(4) -0.0994(4) -0.0520(2)
O9E O 0.8111(4) 0.0622(4) -0.0487(2)
H21E H 0.8142 0.0280 -0.0686
C26? C 0.5711(13) 0.5154(13) 0.0364(6)
loop_
_geom_bond_atom_site_label_1
_geom_bond_atom_site_label_2
_geom_bond_site_symmetry_1
_geom_bond_site_symmetry_2
C1 C2 1_555 1_555
C2 C3 1_555 1_555
C3 H1 1_555 1_555
C4 C3 1_555 1_555
C5 C4 1_555 1_555
C6 C4 1_555 1_555
H2 C6 1_555 1_555
C7 C6 1_555 1_555
C8 C7 1_555 1_555
C9 C2 1_555 1_555
H3 C9 1_555 1_555
C10 H4 1_555 1_555
C11 C10 1_555 1_555
H5 C11 1_555 1_555
C12 C11 1_555 1_555
H6 C12 1_555 1_555
C13 C12 1_555 1_555
H7 C13 1_555 1_555
C14 C13 1_555 1_555
H8 C14 1_555 1_555
C15 H9 1_555 1_555
C16 C15 1_555 1_555
H10 C16 1_555 1_555
C17 C16 1_555 1_555
H11 C17 1_555 1_555
C18 C17 1_555 1_555
H12 C18 1_555 1_555
C19 C18 1_555 1_555
H13 C19 1_555 1_555
C20 H14 1_555 1_555
C21 C20 1_555 1_555
H15 C21 1_555 1_555
C22 C21 1_555 1_555
H16 C22 1_555 1_555
C23 C22 1_555 1_555
H17 C23 1_555 1_555
C24 C23 1_555 1_555
H18 C24 1_555 1_555
C25 C27 1_555 1_555
C27 C28 1_555 1_555
C28 C29 1_555 1_555
C29 O10 1_555 1_555
C30 C31 1_555 1_555
C31 C32 1_555 1_555
C32 C33 1_555 1_555
C33 O11 1_555 1_555
C34 C35 1_555 1_555
C35 C35G 1_555 1_555
N1 C10 1_555 1_555
N2 C15 1_555 1_555
N3 C20 1_555 1_555
O1 C1 1_555 1_555
O2 C1 1_555 1_555
O3 C5 1_555 1_555
O4 C5 1_555 1_555
O5 C8 1_555 1_555
O6 C8 1_555 1_555
O7 C25 1_555 1_555
H19 O7 1_555 1_555
O8 C30 1_555 1_555
H20 O8 1_555 1_555
O9 C34 1_555 1_555
H21 O9 1_555 1_555
Ni1 N1 1_555 1_555
Ni2 N2 1_555 1_555
C36 C37 1_555 1_555
O12 C37 1_555 1_555
C35G C34G 1_555 1_555
C34G O9G 1_555 1_555
O9G H21G 1_555 1_555
C10E H4E 1_555 1_555
C11E C10E 1_555 1_555
H5E C11E 1_555 1_555
C12E C11E 1_555 1_555
H6E C12E 1_555 1_555
C13E C12E 1_555 1_555
H7E C13E 1_555 1_555
C14E C13E 1_555 1_555
H8E C14E 1_555 1_555
N1E Ni1 1_555 1_555
C1E C2E 1_555 1_555
C2E C3E 1_555 1_555
C3E H1E 1_555 1_555
C4E C3E 1_555 1_555
C5E C4E 1_555 1_555
C6E C4E 1_555 1_555
H2E C6E 1_555 1_555
C7E C6E 1_555 1_555
C8E C7E 1_555 1_555
C9E C2E 1_555 1_555
H3E C9E 1_555 1_555
O1E Ni1 1_555 1_555
O2E C1E 1_555 1_555
O3E C5E 1_555 1_555
O4E C5E 1_555 1_555
O5E C8E 1_555 1_555
O6E C8E 1_555 1_555
C25E C27E 1_555 1_555
C27E C28E 1_555 1_555
C28E C29E 1_555 1_555
C29E O10E 1_555 1_555
O7E Ni1 1_555 1_555
H19E O7E 1_555 1_555
Ni2E O4E 1_555 1_555
C15E H9E 1_555 1_555
C16E C15E 1_555 1_555
H10E C16E 1_555 1_555
C17E C16E 1_555 1_555
H11E C17E 1_555 1_555
C18E C17E 1_555 1_555
H12E C18E 1_555 1_555
C19E C18E 1_555 1_555
H13E C19E 1_555 1_555
N2E Ni2E 1_555 1_555
C20E H14E 1_555 1_555
C21E C20E 1_555 1_555
H15E C21E 1_555 1_555
C22E C21E 1_555 1_555
H16E C22E 1_555 1_555
C23E C22E 1_555 1_555
H17E C23E 1_555 1_555
C24E C23E 1_555 1_555
H18E C24E 1_555 1_555
N3E Ni2E 1_555 1_555
C30E C31E 1_555 1_555
C31E C32E 1_555 1_555
C32E C33E 1_555 1_555
C33E O11E 1_555 1_555
O8E Ni2E 1_555 1_555
H20E O8E 1_555 1_555
Ni2A O5 1_555 1_555
O5C Ni2 1_555 1_555
Ni2G O9G 1_555 1_555
Ni2F O5E 1_555 1_555
O5D Ni2E 1_555 1_555
O9E Ni2E 1_555 1_555
H21E O9E 1_555 1_555
C7 C9 1_555 1_555
C14 N1 1_555 1_555
C19 N2 1_555 1_555
C24 N3 1_555 1_555
N3 Ni2 1_555 1_555
O1 Ni1 1_555 1_555
O4 Ni2 1_555 1_555
O7 Ni1 1_555 1_555
O8 Ni2 1_555 1_555
O9 Ni2 1_555 1_555
C10E N1E 1_555 1_555
C14E N1E 1_555 1_555
C1E O1E 1_555 1_555
C7E C9E 1_555 1_555
C25E O7E 1_555 1_555
C15E N2E 1_555 1_555
C19E N2E 1_555 1_555
C20E N3E 1_555 1_555
C24E N3E 1_555 1_555
C30E O8E 1_555 1_555

#END
