
#######################################################################
#
#                 Cambridge Crystallographic Data Centre
#                                CCDC 
#
#######################################################################
#
# If this CIF has been generated from an entry in the Cambridge 
# Structural Database, then it will include bibliographic, chemical, 
# crystal, experimental, refinement or atomic coordinate data resulting 
# from the CCDC's data processing and validation procedures.
#
#######################################################################

data_HUYKAO
_symmetry_cell_setting           monoclinic
_symmetry_space_group_name_H-M   'P 21/n'
_symmetry_Int_Tables_number      14
_space_group_name_Hall           '-P 2yn'
loop_
_symmetry_equiv_pos_site_id
_symmetry_equiv_pos_as_xyz
1 x,y,z
2 1/2-x,1/2+y,1/2-z
3 -x,-y,-z
4 1/2+x,1/2-y,1/2+z
_cell_length_a                   15.3229(17)
_cell_length_b                   6.7753(8)
_cell_length_c                   17.463(2)
_cell_angle_alpha                90
_cell_angle_beta                 95.689(5)
_cell_angle_gamma                90
_cell_volume                     1804.03
loop_
_atom_site_label
_atom_site_type_symbol
_atom_site_fract_x
_atom_site_fract_y
_atom_site_fract_z
Co1 Co 0.49510(2) 0.04477(6) 0.89184(2)
N1 N 0.42182(14) 0.1136(3) 0.96486(13)
N2 N 0.42509(14) 0.0820(3) 1.03977(13)
N3 N 0.30143(14) 0.2480(3) 1.00540(13)
N4 N 0.42045(15) 0.0372(3) 1.17702(13)
N5 N 0.59605(14) -0.1799(3) 1.17210(13)
C1 C 0.34752(17) 0.2111(4) 0.94464(16)
C2 C 0.35354(17) 0.1644(4) 1.06385(15)
C3 C 0.35218(17) 0.1348(4) 1.14778(15)
C4 C 0.27735(18) 0.2059(5) 1.18813(17)
H1 H 0.2963 0.2225 1.2430
H2 H 0.2568 0.3327 1.1662
H3 H 0.2296 0.1093 1.1818
C5 C 0.43296(18) -0.0335(5) 1.25734(16)
H4 H 0.4035 0.0587 1.2905
H5 H 0.4049 -0.1644 1.2605
C6 C 0.53001(18) -0.0500(4) 1.28752(16)
H6 H 0.5335 -0.0703 1.3439
H7 H 0.5583 0.0783 1.2787
C7 C 0.58413(18) -0.2115(4) 1.25379(15)
H8 H 0.5548 -0.3402 1.2594
H9 H 0.6425 -0.2178 1.2836
C8 C 0.33691(18) 0.2460(4) 0.86037(16)
C9 C 0.25653(19) 0.3381(5) 0.82152(17)
H10 H 0.2720 0.4189 0.7783
H11 H 0.2292 0.4216 0.8582
H12 H 0.2153 0.2347 0.8023
S1 S 0.42536(5) -0.25392(11) 0.86305(4)
C10 C 0.32572(19) -0.2155(4) 0.89051(17)
N6 N 0.25588(17) -0.1890(4) 0.90852(16)
S2 S 0.56382(5) 0.34704(11) 0.91086(4)
C11 C 0.6696(2) 0.2971(4) 0.90366(17)
N7 N 0.74280(17) 0.2672(4) 0.89777(16)
Na1 Na 0.14036(7) -0.21293(17) 0.99382(7)
Cl1 Cl -0.03012(5) 0.04733(11) 0.88475(4)
O1 O 0.05791(15) -0.0290(4) 0.89480(13)
O2 O -0.06014(14) 0.0545(3) 0.80445(12)
O3 O -0.08752(15) -0.0755(3) 0.92494(13)
O4 O -0.03053(13) 0.2438(3) 0.91727(12)
O5 O 0.13223(16) -0.5462(3) 0.97358(14)
H13 H 0.172(3) -0.613(6) 0.993(2)
H14 H 0.094(2) -0.626(6) 0.971(2)
Co1B Co 0.50490(2) -0.04477(6) 1.10816(2)
N1B N 0.57818(14) -0.1136(3) 1.03514(13)
N2B N 0.57491(14) -0.0820(3) 0.96023(13)
N3B N 0.69857(14) -0.2480(3) 0.99460(13)
N4B N 0.57955(15) -0.0372(3) 0.82298(13)
N5B N 0.40395(14) 0.1799(3) 0.82790(13)
C1B C 0.65248(17) -0.2111(4) 1.05536(16)
C2B C 0.64646(17) -0.1644(4) 0.93615(15)
C3B C 0.64782(17) -0.1348(4) 0.85222(15)
C4B C 0.72265(18) -0.2059(5) 0.81187(17)
H1B H 0.7037 -0.2225 0.7570
H2B H 0.7432 -0.3327 0.8338
H3B H 0.7704 -0.1093 0.8182
C5B C 0.56704(18) 0.0335(5) 0.74266(16)
H4B H 0.5965 -0.0587 0.7095
H5B H 0.5951 0.1644 0.7395
C6B C 0.46999(18) 0.0500(4) 0.71248(16)
H6B H 0.4665 0.0703 0.6561
H7B H 0.4417 -0.0783 0.7213
C7B C 0.41587(18) 0.2115(4) 0.74621(15)
H8B H 0.4452 0.3402 0.7406
H9B H 0.3575 0.2178 0.7164
C8B C 0.66309(18) -0.2460(4) 1.13963(16)
C9B C 0.74347(19) -0.3381(5) 1.17848(17)
H10B H 0.7280 -0.4189 1.2217
H11B H 0.7708 -0.4216 1.1418
H12B H 0.7847 -0.2347 1.1977
S1B S 0.57464(5) 0.25392(11) 1.13695(4)
C10B C 0.67428(19) 0.2155(4) 1.10949(17)
N6B N 0.74412(17) 0.1890(4) 1.09148(16)
S2B S 0.43618(5) -0.34704(11) 1.08914(4)
C11B C 0.3304(2) -0.2971(4) 1.09634(17)
N7B N 0.25720(17) -0.2672(4) 1.10223(16)
Na1B Na 0.85964(7) 0.21293(17) 1.00618(7)
Na1B_2 Na -0.14036(7) 0.21293(17) 1.00618(7)
Cl1B Cl 0.03012(5) -0.04733(11) 1.11525(4)
O1B O -0.05791(15) 0.0290(4) 1.10520(13)
O1B_2 O 0.94209(15) 0.0290(4) 1.10520(13)
O2B O 0.06014(14) -0.0545(3) 1.19555(12)
O3B O 0.08752(15) 0.0755(3) 1.07506(13)
O3_2 O 0.91248(15) -0.0755(3) 0.92494(13)
O4B O 0.03053(13) -0.2438(3) 1.08273(12)
O4_2 O 0.96947(13) 0.2438(3) 0.91727(12)
O5B O 0.86777(16) 0.5462(3) 1.02642(14)
H13B H 0.828(3) 0.613(6) 1.007(2)
H14B H 0.906(2) 0.626(6) 1.029(2)
loop_
_geom_bond_atom_site_label_1
_geom_bond_atom_site_label_2
_geom_bond_site_symmetry_1
_geom_bond_site_symmetry_2
Co1 N1 1_555 1_555
N1 N2 1_555 1_555
N2 C2 1_555 1_555
N3 C1 1_555 1_555
N4 C3 1_555 1_555
N5 C7 1_555 1_555
C1 N1 1_555 1_555
C2 N3 1_555 1_555
C3 C2 1_555 1_555
C4 C3 1_555 1_555
H1 C4 1_555 1_555
H2 C4 1_555 1_555
H3 C4 1_555 1_555
C5 N4 1_555 1_555
H4 C5 1_555 1_555
H5 C5 1_555 1_555
C6 C5 1_555 1_555
H6 C6 1_555 1_555
H7 C6 1_555 1_555
C7 C6 1_555 1_555
H8 C7 1_555 1_555
H9 C7 1_555 1_555
C8 C1 1_555 1_555
C9 C8 1_555 1_555
H10 C9 1_555 1_555
H11 C9 1_555 1_555
H12 C9 1_555 1_555
S1 Co1 1_555 1_555
C10 S1 1_555 1_555
N6 C10 1_555 1_555
S2 Co1 1_555 1_555
C11 S2 1_555 1_555
N7 C11 1_555 1_555
Na1 N6 1_555 1_555
Cl1 O1 1_555 1_555
O1 Na1 1_555 1_555
O2 Cl1 1_555 1_555
O3 Cl1 1_555 1_555
O4 Cl1 1_555 1_555
O5 Na1 1_555 1_555
H13 O5 1_555 1_555
H14 O5 1_555 1_555
Co1B N2 1_555 1_555
N1B Co1B 1_555 1_555
N2B Co1 1_555 1_555
N3B C1B 1_555 1_555
N4B Co1 1_555 1_555
N5B Co1 1_555 1_555
C1B N1B 1_555 1_555
C2B N2B 1_555 1_555
C3B N4B 1_555 1_555
C4B C3B 1_555 1_555
H1B C4B 1_555 1_555
H2B C4B 1_555 1_555
H3B C4B 1_555 1_555
C5B N4B 1_555 1_555
H4B C5B 1_555 1_555
H5B C5B 1_555 1_555
C6B C5B 1_555 1_555
H6B C6B 1_555 1_555
H7B C6B 1_555 1_555
C7B N5B 1_555 1_555
H8B C7B 1_555 1_555
H9B C7B 1_555 1_555
C8B N5 1_555 1_555
C9B C8B 1_555 1_555
H10B C9B 1_555 1_555
H11B C9B 1_555 1_555
H12B C9B 1_555 1_555
S1B Co1B 1_555 1_555
C10B S1B 1_555 1_555
N6B C10B 1_555 1_555
S2B Co1B 1_555 1_555
C11B S2B 1_555 1_555
N7B Na1 1_555 1_555
Na1B N7 1_555 1_555
Na1B_2 O3 1_555 1_555
Cl1B O1B 1_555 1_555
O1B Na1B_2 1_555 1_555
O1B_2 Na1B 1_555 1_555
O2B Cl1B 1_555 1_555
O3B Na1 1_555 1_555
O3_2 Na1B 1_555 1_555
O4B Na1 1_555 1_555
O4_2 Na1B 1_555 1_555
O5B Na1B 1_555 1_555
H13B O5B 1_555 1_555
H14B O5B 1_555 1_555
N4 Co1B 1_555 1_555
N5 Co1B 1_555 1_555
C8 N5B 1_555 1_555
O4 Na1B_2 1_555 1_555
N1B N2B 1_555 1_555
N3B C2B 1_555 1_555
C1B C8B 1_555 1_555
C2B C3B 1_555 1_555
C6B C7B 1_555 1_555
N6B Na1B 1_555 1_555
C11B N7B 1_555 1_555
Cl1B O3B 1_555 1_555
Cl1B O4B 1_555 1_555

#END
