
#######################################################################
#
#                 Cambridge Crystallographic Data Centre
#                                CCDC 
#
#######################################################################
#
# If this CIF has been generated from an entry in the Cambridge 
# Structural Database, then it will include bibliographic, chemical, 
# crystal, experimental, refinement or atomic coordinate data resulting 
# from the CCDC's data processing and validation procedures.
#
#######################################################################

data_HUYLAO
_symmetry_cell_setting           orthorhombic
_symmetry_space_group_name_H-M   'P 21 21 21'
_symmetry_Int_Tables_number      19
_space_group_name_Hall           'P 2ac 2ab'
loop_
_symmetry_equiv_pos_site_id
_symmetry_equiv_pos_as_xyz
1 x,y,z
2 1/2-x,-y,1/2+z
3 -x,1/2+y,1/2-z
4 1/2+x,1/2-y,-z
_cell_length_a                   11.015(2)
_cell_length_b                   12.6134(14)
_cell_length_c                   13.7652(9)
_cell_angle_alpha                90
_cell_angle_beta                 90
_cell_angle_gamma                90
_cell_volume                     1912.49
loop_
_atom_site_label
_atom_site_type_symbol
_atom_site_fract_x
_atom_site_fract_y
_atom_site_fract_z
Mn1 Mn 0.02459(6) 0.93290(6) 0.62316(5)
S1 S -0.2399(2) 1.23122(12) 0.60085(13)
N1 N -0.2369(3) 0.9307(3) 0.7016(3)
O1 O -0.1283(3) 0.8984(3) 0.7185(3)
N2 N -0.0724(4) 1.0931(3) 0.6196(3)
O2 O -0.4485(4) 1.1112(4) 0.6348(5)
C1 C -0.2681(4) 1.0240(4) 0.6646(3)
C2 C -0.3432(5) 0.8624(4) 0.7274(4)
N3 N -0.3908(4) 1.0305(4) 0.6641(4)
C3 C -0.0194(7) 1.1835(4) 0.5871(4)
H1 H 0.0636(7) 1.1888(4) 0.5756(4)
C4 C -0.1898(5) 1.1064(4) 0.6312(4)
C5 C -0.4502(4) 0.9299(5) 0.6967(5)
C6 C -0.5358(10) 0.9590(8) 0.7762(11)
H2 H -0.4908(10) 0.9866(8) 0.8303(11)
H3 H -0.5801(10) 0.8972(8) 0.7962(11)
H4 H -0.5915(10) 1.0119(8) 0.7532(11)
C7 C -0.0964(7) 1.2649(5) 0.5729(5)
H5 H -0.0732(7) 1.3314(5) 0.5504(5)
N4 N 0.1039(5) 0.7776(5) 0.6409(4)
C8 C -0.3354(9) 0.8492(12) 0.8386(7)
H6 H -0.3449(9) 0.9171(12) 0.8692(7)
H7 H -0.2578(9) 0.8199(12) 0.8556(7)
H8 H -0.3986(9) 0.8024(12) 0.8602(7)
C9 C -0.5144(14) 0.8859(10) 0.6089(11)
H9 H -0.4557(14) 0.8684(10) 0.5598(11)
H10 H -0.5698(14) 0.9380(10) 0.5839(11)
H11 H -0.5585(14) 0.8233(10) 0.6269(11)
C10 C -0.3289(8) 0.7596(6) 0.6768(11)
H12 H -0.2588(8) 0.7234(6) 0.7017(11)
H13 H -0.3189(8) 0.7717(6) 0.6084(11)
H14 H -0.3998(8) 0.7169(6) 0.6875(11)
C11 C 0.2373(5) 0.9772(5) 0.4652(4)
N5 N 0.1616(5) 0.9846(5) 0.5183(4)
N6 N 0.3356(5) 0.9636(6) 0.4154(4)
C12 C 0.3498(5) 0.9865(5) 0.3253(4)
N7 N 0.3745(4) 1.0039(5) 0.2473(4)
C13 C 0.3336(5) 0.6332(4) 0.5567(4)
N8 N 0.4011(4) 0.6140(4) 0.4969(3)
N9 N 0.2627(6) 0.6461(5) 0.6306(4)
C14 C 0.1784(6) 0.7171(5) 0.6314(4)
N7A N 0.1255(4) 0.9961(5) 0.7473(4)
N8C N -0.0989(4) 0.8860(4) 0.5031(3)
Mn1A Mn 0.47541(6) 1.06710(6) 0.12316(5)
Mn1C Mn 0.52459(6) 0.56710(6) 0.37684(5)
loop_
_geom_bond_atom_site_label_1
_geom_bond_atom_site_label_2
_geom_bond_site_symmetry_1
_geom_bond_site_symmetry_2
Mn1 O1 1_555 1_555
S1 C4 1_555 1_555
N1 O1 1_555 1_555
N2 Mn1 1_555 1_555
O2 N3 1_555 1_555
C1 N1 1_555 1_555
C2 N1 1_555 1_555
N3 C1 1_555 1_555
C3 N2 1_555 1_555
H1 C3 1_555 1_555
C4 N2 1_555 1_555
C5 C2 1_555 1_555
C6 C5 1_555 1_555
H2 C6 1_555 1_555
H3 C6 1_555 1_555
H4 C6 1_555 1_555
C7 S1 1_555 1_555
H5 C7 1_555 1_555
N4 Mn1 1_555 1_555
C8 C2 1_555 1_555
H6 C8 1_555 1_555
H7 C8 1_555 1_555
H8 C8 1_555 1_555
C9 C5 1_555 1_555
H9 C9 1_555 1_555
H10 C9 1_555 1_555
H11 C9 1_555 1_555
C10 C2 1_555 1_555
H12 C10 1_555 1_555
H13 C10 1_555 1_555
H14 C10 1_555 1_555
C11 N5 1_555 1_555
N5 Mn1 1_555 1_555
N6 C11 1_555 1_555
C12 N6 1_555 1_555
N7 C12 1_555 1_555
C13 N8 1_555 1_555
N8 Mn1C 1_555 1_555
N9 C13 1_555 1_555
C14 N4 1_555 1_555
N7A Mn1 1_555 1_555
N8C Mn1 1_555 1_555
Mn1A N7 1_555 1_555
C1 C4 1_555 1_555
N3 C5 1_555 1_555
C3 C7 1_555 1_555
N9 C14 1_555 1_555

#END
