
#######################################################################
#
#                 Cambridge Crystallographic Data Centre
#                                CCDC 
#
#######################################################################
#
# If this CIF has been generated from an entry in the Cambridge 
# Structural Database, then it will include bibliographic, chemical, 
# crystal, experimental, refinement or atomic coordinate data resulting 
# from the CCDC's data processing and validation procedures.
#
#######################################################################

data_HUZFUE
_symmetry_cell_setting           monoclinic
_symmetry_space_group_name_H-M   'P 21/n'
_symmetry_Int_Tables_number      14
_space_group_name_Hall           '-P 2yn'
loop_
_symmetry_equiv_pos_site_id
_symmetry_equiv_pos_as_xyz
1 x,y,z
2 1/2-x,1/2+y,1/2-z
3 -x,-y,-z
4 1/2+x,1/2-y,1/2+z
_cell_length_a                   13.7370(2)
_cell_length_b                   7.9310(4)
_cell_length_c                   24.0220(7)
_cell_angle_alpha                90
_cell_angle_beta                 105.959(1)
_cell_angle_gamma                90
_cell_volume                     2516.28
loop_
_atom_site_label
_atom_site_type_symbol
_atom_site_fract_x
_atom_site_fract_y
_atom_site_fract_z
Cd1 Cd 0.365379(16) 0.05446(3) 0.387155(9)
Cd2 Cd -0.449820(16) -0.40783(3) 0.701650(9)
C1 C -0.1893(2) -0.3764(4) 0.62657(12)
C2 C -0.1762(2) -0.4819(4) 0.58267(14)
H1 H -0.2111 -0.5836 0.5753
C3 C -0.1114(2) -0.4360(4) 0.55009(15)
H2 H -0.1050 -0.5042 0.5198
C4 C -0.0566(2) -0.2888(4) 0.56288(13)
C5 C -0.0650(2) -0.1863(4) 0.60766(12)
H3 H -0.0255 -0.0896 0.6167
C6 C -0.1327(2) -0.2278(4) 0.63928(12)
C7 C -0.1376(2) -0.1072(4) 0.68681(12)
C8 C -0.2679(2) -0.4269(4) 0.65660(12)
C9 C 0.3115(2) -0.1538(4) 0.58136(12)
C10 C 0.2614(2) -0.2194(4) 0.61940(13)
H4 H 0.2986 -0.2430 0.6572
C11 C 0.1589(2) -0.2509(4) 0.60364(13)
H5 H 0.1276 -0.2978 0.6298
C12 C 0.1040(2) -0.2109(4) 0.54808(13)
C13 C 0.1507(2) -0.1430(4) 0.50916(13)
H6 H 0.1123 -0.1154 0.4720
C14 C 0.2551(2) -0.1152(3) 0.52512(12)
C15 C 0.2987(2) -0.0462(4) 0.47832(12)
C16 C 0.4242(2) -0.1320(4) 0.60185(14)
C17 C -0.7314(2) -0.6994(4) 0.61792(13)
C18 C -0.8274(3) -0.7536(5) 0.61811(17)
H7 H -0.8688 -0.8119 0.5869
C19 C -0.8582(3) -0.7179(6) 0.66570(19)
H8 H -0.9221 -0.7525 0.6672
C20 C -0.7959(3) -0.6298(6) 0.71271(17)
H9 H -0.8198 -0.6079 0.7446
C21 C -0.7006(3) -0.5746(5) 0.71332(15)
H10 H -0.6597 -0.5167 0.7448
C22 C -0.6688(2) -0.6098(4) 0.66434(13)
C23 C -0.5876(2) -0.6361(4) 0.59880(13)
C24 C -0.5114(2) -0.6282(4) 0.56560(13)
H11 H -0.4472 -0.5917 0.5911
H12 H -0.5020 -0.7402 0.5517
C25 C -0.5419(2) -0.5091(4) 0.51461(14)
H13 H -0.5576 -0.3995 0.5278
H14 H -0.6023 -0.5516 0.4869
N1 N -0.57894(19) -0.5700(3) 0.65088(11)
N2 N -0.67730(19) -0.7126(3) 0.57750(11)
H15 H -0.6976 -0.7615 0.5444
O1 O 0.31587(17) -0.1488(3) 0.44231(10)
O2 O 0.30984(16) 0.1106(3) 0.47453(9)
O3 O 0.00192(15) -0.2429(3) 0.52608(9)
O4 O 0.3953(2) -0.1458(4) 0.32404(13)
O5 O -0.26638(18) -0.5673(3) 0.67812(11)
O6 O -0.4276(2) -0.2152(3) 0.77413(12)
O7 O -0.33793(17) -0.3204(3) 0.65632(10)
O8 O -0.21289(17) -0.0179(4) 0.68228(12)
O9 O -0.05995(17) -0.0995(3) 0.72873(10)
O10 O 0.47002(16) -0.0807(3) 0.56689(10)
O11 O 0.46853(16) -0.1665(3) 0.65427(10)
H16 H 0.394(4) -0.096(6) 0.2924(11)
H17 H 0.354(3) -0.227(5) 0.316(2)
H18 H -0.3639(6) -0.202(6) 0.787(2)
H19 H -0.454(3) -0.122(3) 0.759(2)
Cd1B Cd -0.365379(16) -0.05446(3) 0.612845(9)
Cd1B_2 Cd 0.634621(16) -0.05446(3) 0.612845(9)
Cd1_2 Cd -0.634621(16) 0.05446(3) 0.387155(9)
Cd2B Cd 0.449820(16) 0.40783(3) 0.298350(9)
Cd2A Cd -0.050180(16) 0.09217(3) 0.798350(9)
Cd2_2 Cd 0.550180(16) -0.40783(3) 0.701650(9)
Cd2B_2 Cd -0.550180(16) -0.59217(3) 0.298350(9)
Cd2C Cd 0.050180(16) -0.09217(3) 0.201650(9)
Cd2B_3 Cd -0.550180(16) 0.40783(3) 0.298350(9)
C1B C 0.1893(2) 0.3764(4) 0.37343(12)
C2B C 0.1762(2) 0.4819(4) 0.41733(14)
H1B H 0.2111 0.5836 0.4247
C3B C 0.1114(2) 0.4360(4) 0.44991(15)
H2B H 0.1050 0.5042 0.4802
C4B C 0.0566(2) 0.2888(4) 0.43712(13)
C5B C 0.0650(2) 0.1863(4) 0.39234(12)
H3B H 0.0255 0.0896 0.3833
C6B C 0.1327(2) 0.2278(4) 0.36072(12)
C7B C 0.1376(2) 0.1072(4) 0.31319(12)
C8B C 0.2679(2) 0.4269(4) 0.34340(12)
C9B C -0.3115(2) 0.1538(4) 0.41864(12)
C10B C -0.2614(2) 0.2194(4) 0.38060(13)
H4B H -0.2986 0.2430 0.3428
C11B C -0.1589(2) 0.2509(4) 0.39636(13)
H5B H -0.1276 0.2978 0.3702
C12B C -0.1040(2) 0.2109(4) 0.45192(13)
C13B C -0.1507(2) 0.1430(4) 0.49084(13)
H6B H -0.1123 0.1154 0.5280
C14B C -0.2551(2) 0.1152(3) 0.47488(12)
C15B C -0.2987(2) 0.0462(4) 0.52168(12)
C16B C -0.4242(2) 0.1320(4) 0.39815(14)
C17B C -0.2686(2) -0.3006(4) 0.38208(13)
C18B C -0.1726(3) -0.2464(5) 0.38189(17)
H7B H -0.1312 -0.1881 0.4131
C19B C -0.1418(3) -0.2821(6) 0.33430(19)
H8B H -0.0779 -0.2475 0.3328
C20B C -0.2041(3) -0.3702(6) 0.28729(17)
H9B H -0.1802 -0.3921 0.2554
C21B C -0.2994(3) -0.4254(5) 0.28668(15)
H10B H -0.3403 -0.4833 0.2552
C22B C -0.3312(2) -0.3902(4) 0.33566(13)
C23B C -0.4124(2) -0.3639(4) 0.40120(13)
C24B C -0.4886(2) -0.3718(4) 0.43440(13)
H11B H -0.5528 -0.4083 0.4089
H12B H -0.4980 -0.2598 0.4483
C25B C -0.4581(2) -0.4909(4) 0.48539(14)
H13B H -0.4424 -0.6005 0.4722
H14B H -0.3977 -0.4484 0.5131
N1B N -0.42106(19) -0.4300(3) 0.34912(11)
N1B_2 N 0.57894(19) 0.5700(3) 0.34912(11)
N2B N -0.32270(19) -0.2874(3) 0.42250(11)
H15B H -0.3024 -0.2385 0.4556
O1B O -0.31587(17) 0.1488(3) 0.55769(10)
O2B O -0.30984(16) -0.1106(3) 0.52547(9)
O3B O -0.00192(15) 0.2429(3) 0.47392(9)
O4B O -0.3953(2) 0.1458(4) 0.67596(13)
O5B O 0.26638(18) 0.5673(3) 0.32188(11)
O6B O 0.4276(2) 0.2152(3) 0.22587(12)
O7B O 0.33793(17) 0.3204(3) 0.34368(10)
O8B O 0.21289(17) 0.0179(4) 0.31772(12)
O9B O 0.05995(17) 0.0995(3) 0.27127(10)
O9A O -0.44005(17) -0.5995(3) 0.77127(10)
O9C O 0.44005(17) 0.5995(3) 0.22873(10)
O10B O -0.47002(16) 0.0807(3) 0.43311(10)
O10B_2 O 0.52998(16) 0.0807(3) 0.43311(10)
O10_2 O -0.52998(16) -0.0807(3) 0.56689(10)
O11B O -0.46853(16) 0.1665(3) 0.34573(10)
O11_2 O -0.53147(16) -0.1665(3) 0.65427(10)
O11B_2 O 0.53147(16) 0.1665(3) 0.34573(10)
H16B H -0.394(4) 0.096(6) 0.7076(11)
H17B H -0.354(3) 0.227(5) 0.684(2)
H18B H 0.3639(6) 0.202(6) 0.213(2)
H19B H 0.454(3) 0.122(3) 0.241(2)
O12 O -0.0289(3) 0.4107(4) 0.24505(18)
H20 H -0.009(4) 0.309(3) 0.250(2)
H21 H -0.061(4) 0.433(6) 0.270(2)
loop_
_geom_bond_atom_site_label_1
_geom_bond_atom_site_label_2
_geom_bond_site_symmetry_1
_geom_bond_site_symmetry_2
Cd1 O1 1_555 1_555
Cd2 N1 1_555 1_555
C1 C2 1_555 1_555
C2 H1 1_555 1_555
C3 C2 1_555 1_555
H2 C3 1_555 1_555
C4 C3 1_555 1_555
C5 C4 1_555 1_555
H3 C5 1_555 1_555
C6 C1 1_555 1_555
C7 C6 1_555 1_555
C8 C1 1_555 1_555
C9 C10 1_555 1_555
C10 H4 1_555 1_555
C11 C10 1_555 1_555
H5 C11 1_555 1_555
C12 C11 1_555 1_555
C13 C12 1_555 1_555
H6 C13 1_555 1_555
C14 C9 1_555 1_555
C15 C14 1_555 1_555
C16 C9 1_555 1_555
C17 C18 1_555 1_555
C18 H7 1_555 1_555
C19 C18 1_555 1_555
H8 C19 1_555 1_555
C20 C19 1_555 1_555
H9 C20 1_555 1_555
C21 C20 1_555 1_555
H10 C21 1_555 1_555
C22 C17 1_555 1_555
C23 C24 1_555 1_555
C24 H11 1_555 1_555
H12 C24 1_555 1_555
C25 C24 1_555 1_555
H13 C25 1_555 1_555
H14 C25 1_555 1_555
N1 C22 1_555 1_555
N2 C17 1_555 1_555
H15 N2 1_555 1_555
O1 C15 1_555 1_555
O2 Cd1 1_555 1_555
O3 C4 1_555 1_555
O4 Cd1 1_555 1_555
O5 C8 1_555 1_555
O6 Cd2 1_555 1_555
O7 Cd2 1_555 1_555
O8 C7 1_555 1_555
O9 C7 1_555 1_555
O10 C16 1_555 1_555
O11 C16 1_555 1_555
O12 H20 1_555 1_555
H16 O4 1_555 1_555
H17 O4 1_555 1_555
H18 O6 1_555 1_555
H19 O6 1_555 1_555
H21 O12 1_555 1_555
Cd1B O7 1_555 1_555
Cd1B_2 O10 1_555 1_555
Cd1_2 O10B 1_555 1_555
Cd2B N1B_2 1_555 1_555
Cd2A O9 1_555 1_555
Cd2_2 O11 1_555 1_555
Cd2B_2 N1B 1_555 1_555
Cd2C O9B 1_555 1_555
Cd2B_3 O11B 1_555 1_555
C1B C2B 1_555 1_555
C2B H1B 1_555 1_555
C3B C2B 1_555 1_555
H2B C3B 1_555 1_555
C4B C3B 1_555 1_555
C5B C4B 1_555 1_555
H3B C5B 1_555 1_555
C6B C1B 1_555 1_555
C7B C6B 1_555 1_555
C8B C1B 1_555 1_555
C9B C10B 1_555 1_555
C10B H4B 1_555 1_555
C11B C10B 1_555 1_555
H5B C11B 1_555 1_555
C12B C11B 1_555 1_555
C13B C12B 1_555 1_555
H6B C13B 1_555 1_555
C14B C9B 1_555 1_555
C15B C14B 1_555 1_555
C16B C9B 1_555 1_555
C17B C18B 1_555 1_555
C18B H7B 1_555 1_555
C19B C18B 1_555 1_555
H8B C19B 1_555 1_555
C20B C19B 1_555 1_555
H9B C20B 1_555 1_555
C21B C20B 1_555 1_555
H10B C21B 1_555 1_555
C22B C17B 1_555 1_555
C23B C24B 1_555 1_555
C24B H11B 1_555 1_555
H12B C24B 1_555 1_555
C25B C25 1_555 1_555
H13B C25B 1_555 1_555
H14B C25B 1_555 1_555
N1B C22B 1_555 1_555
N2B C17B 1_555 1_555
H15B N2B 1_555 1_555
O1B Cd1B 1_555 1_555
O2B Cd1B 1_555 1_555
O3B C4B 1_555 1_555
O4B Cd1B 1_555 1_555
O5B C8B 1_555 1_555
O6B Cd2B 1_555 1_555
O7B Cd1 1_555 1_555
O8B Cd1 1_555 1_555
O9B C7B 1_555 1_555
O9A Cd2 1_555 1_555
O9C Cd2B 1_555 1_555
O10B C16B 1_555 1_555
O10B_2 Cd1 1_555 1_555
O10_2 Cd1B 1_555 1_555
O11B C16B 1_555 1_555
O11_2 Cd2 1_555 1_555
O11B_2 Cd2B 1_555 1_555
H16B O4B 1_555 1_555
H17B O4B 1_555 1_555
H18B O6B 1_555 1_555
H19B O6B 1_555 1_555
C5 C6 1_555 1_555
C8 O7 1_555 1_555
C12 O3 1_555 1_555
C13 C14 1_555 1_555
C15 O2 1_555 1_555
C21 C22 1_555 1_555
C23 N1 1_555 1_555
C23 N2 1_555 1_555
O8 Cd1B 1_555 1_555
Cd2B O7B 1_555 1_555
C5B C6B 1_555 1_555
C7B O8B 1_555 1_555
C8B O7B 1_555 1_555
C12B O3B 1_555 1_555
C13B C14B 1_555 1_555
C15B O1B 1_555 1_555
C15B O2B 1_555 1_555
C21B C22B 1_555 1_555
C23B N1B 1_555 1_555
C23B N2B 1_555 1_555
C24B C25B 1_555 1_555

#END
