
#######################################################################
#
#                 Cambridge Crystallographic Data Centre
#                                CCDC 
#
#######################################################################
#
# If this CIF has been generated from an entry in the Cambridge 
# Structural Database, then it will include bibliographic, chemical, 
# crystal, experimental, refinement or atomic coordinate data resulting 
# from the CCDC's data processing and validation procedures.
#
#######################################################################

data_HUZGIT
_symmetry_cell_setting           monoclinic
_symmetry_space_group_name_H-M   'P 21/n'
_symmetry_Int_Tables_number      14
_space_group_name_Hall           '-P 2yn'
loop_
_symmetry_equiv_pos_site_id
_symmetry_equiv_pos_as_xyz
1 x,y,z
2 1/2-x,1/2+y,1/2-z
3 -x,-y,-z
4 1/2+x,1/2-y,1/2+z
_cell_length_a                   8.0970(6)
_cell_length_b                   20.4110(15)
_cell_length_c                   19.5330(16)
_cell_angle_alpha                90
_cell_angle_beta                 99.436(2)
_cell_angle_gamma                90
_cell_volume                     3184.5
loop_
_atom_site_label
_atom_site_type_symbol
_atom_site_fract_x
_atom_site_fract_y
_atom_site_fract_z
Cd1 Cd 0.83910(3) 0.251368(13) 0.209892(11)
C1 C 0.5603(4) 0.36417(18) 0.19189(19)
H1 H 0.4797 0.3904 0.2115
H2 H 0.5258 0.3629 0.1419
C2 C 0.7292(4) 0.39483(18) 0.20861(16)
C3 C 0.9942(4) 0.40923(19) 0.24166(17)
C4 C 1.1636(4) 0.4034(2) 0.26921(18)
H3 H 1.2093 0.3639 0.2867
C5 C 1.2603(5) 0.4590(2) 0.26928(19)
H4 H 1.3733 0.4568 0.2881
C6 C 1.1947(5) 0.5176(2) 0.2423(2)
H5 H 1.2652 0.5536 0.2428
C7 C 1.0271(5) 0.5243(2) 0.21449(19)
H6 H 0.9826 0.5636 0.1956
C8 C 0.9300(4) 0.46884(19) 0.21659(17)
C9 C 0.6421(5) 0.50656(19) 0.16072(19)
H7 H 0.6495 0.5458 0.1891
H8 H 0.5295 0.4893 0.1577
C10 C 0.6709(4) 0.52492(19) 0.08899(19)
C11 C 0.7560(5) 0.4875(2) 0.0487(2)
H9 H 0.8048 0.4483 0.0657
C12 C 0.7698(6) 0.5081(3) -0.0179(2)
H10 H 0.8310 0.4824 -0.0441
C13 C 0.6170(6) 0.5991(3) -0.0061(3)
H11 H 0.5674 0.6378 -0.0243
C14 C 0.6012(5) 0.5824(2) 0.0605(2)
H12 H 0.5435 0.6099 0.0864
C15 C 0.4264(4) 0.25613(17) 0.18414(18)
H13 H 0.3764 0.2770 0.1411
H14 H 0.3404 0.2516 0.2131
C16 C 0.4888(4) 0.19026(18) 0.16888(15)
C17 C 0.6509(4) 0.10799(19) 0.15829(16)
C18 C 0.7850(5) 0.0650(2) 0.15981(19)
H15 H 0.8922 0.0762 0.1815
C19 C 0.7526(6) 0.0050(2) 0.1279(2)
H16 H 0.8403 -0.0242 0.1269
C20 C 0.5908(6) -0.0128(2) 0.0969(2)
H17 H 0.5723 -0.0543 0.0777
C21 C 0.4587(5) 0.0299(2) 0.09424(19)
H18 H 0.3515 0.0186 0.0726
C22 C 0.4921(4) 0.09016(19) 0.12515(17)
C23 C 0.2113(4) 0.14764(19) 0.10622(16)
H19 H 0.1659 0.1859 0.1260
H20 H 0.1565 0.1094 0.1216
C24 C 0.1694(4) 0.15185(18) 0.02822(17)
C25 C 0.2796(4) 0.17456(19) -0.01300(18)
H21 H 0.3870 0.1875 0.0067
C26 C 0.2284(5) 0.1779(2) -0.0844(2)
H22 H 0.3050 0.1927 -0.1116
C27 C -0.0277(5) 0.1397(2) -0.0752(2)
H23 H -0.1353 0.1278 -0.0958
C28 C 0.0122(4) 0.13380(19) -0.00436(19)
H24 H -0.0661 0.1178 0.0213
C29 C 0.8117(5) 0.2789(2) 0.06568(18)
C30 C 0.8376(4) 0.29433(17) -0.00723(15)
C31 C 0.9912(4) 0.31306(19) -0.02164(18)
H25 H 1.0812 0.3169 0.0144
C32 C 1.0143(5) 0.3262(2) -0.08873(19)
H26 H 1.1190 0.3387 -0.0978
C33 C 0.7045(4) 0.28895(17) -0.06128(15)
H27 H 0.6000 0.2765 -0.0519
C34 C 0.7244(4) 0.30174(16) -0.12907(15)
C35 C 0.8794(4) 0.32061(18) -0.14271(16)
H28 H 0.8938 0.3296 -0.1880
C36 C 0.5796(4) 0.29250(17) -0.18725(16)
N1 N 0.8657(3) 0.36289(14) 0.23619(14)
N2 N 0.7597(3) 0.45846(15) 0.19480(14)
N3 N 0.6455(3) 0.17061(15) 0.18573(14)
N4 N 0.3908(3) 0.14358(14) 0.13319(13)
N5 N 0.0752(5) 0.16097(18) -0.11622(16)
N6 N 0.6990(5) 0.5632(3) -0.0461(2)
O1 O 0.9398(3) 0.26725(13) 0.11046(11)
O2 O 0.6674(4) 0.27890(17) 0.07859(13)
O3 O 0.4411(3) 0.27661(16) -0.17307(12)
O4 O 0.6023(3) 0.29978(15) -0.24792(11)
N7 N 0.5625(3) 0.29748(15) 0.21983(14)
H29 H 0.549(4) 0.3017(17) 0.2608(17)
Cd1C Cd 0.33910(3) 0.248632(13) -0.290108(11)
O3C O 0.9411(3) 0.22339(16) 0.32693(12)
O4C O 1.1023(3) 0.20022(15) 0.25208(11)
loop_
_geom_bond_atom_site_label_1
_geom_bond_atom_site_label_2
_geom_bond_site_symmetry_1
_geom_bond_site_symmetry_2
Cd1 N1 1_555 1_555
C1 H1 1_555 1_555
H2 C1 1_555 1_555
C2 C1 1_555 1_555
C3 C4 1_555 1_555
C4 H3 1_555 1_555
C5 C4 1_555 1_555
H4 C5 1_555 1_555
C6 C5 1_555 1_555
H5 C6 1_555 1_555
C7 C6 1_555 1_555
H6 C7 1_555 1_555
C8 C3 1_555 1_555
C9 H7 1_555 1_555
H8 C9 1_555 1_555
C10 C9 1_555 1_555
C11 C10 1_555 1_555
H9 C11 1_555 1_555
C12 C11 1_555 1_555
H10 C12 1_555 1_555
C13 H11 1_555 1_555
C14 C10 1_555 1_555
H12 C14 1_555 1_555
C15 H13 1_555 1_555
H14 C15 1_555 1_555
C16 C15 1_555 1_555
C17 C18 1_555 1_555
C18 H15 1_555 1_555
C19 C18 1_555 1_555
H16 C19 1_555 1_555
C20 C19 1_555 1_555
H17 C20 1_555 1_555
C21 C20 1_555 1_555
H18 C21 1_555 1_555
C22 C17 1_555 1_555
C23 H19 1_555 1_555
H20 C23 1_555 1_555
C24 C23 1_555 1_555
C25 C24 1_555 1_555
H21 C25 1_555 1_555
C26 C25 1_555 1_555
H22 C26 1_555 1_555
C27 H23 1_555 1_555
C28 C24 1_555 1_555
H24 C28 1_555 1_555
C29 C30 1_555 1_555
C30 C31 1_555 1_555
C31 H25 1_555 1_555
C32 C31 1_555 1_555
H26 C32 1_555 1_555
C33 C30 1_555 1_555
H27 C33 1_555 1_555
C34 C33 1_555 1_555
C35 C32 1_555 1_555
H28 C35 1_555 1_555
C36 C34 1_555 1_555
N1 C2 1_555 1_555
N2 C2 1_555 1_555
N3 Cd1 1_555 1_555
N4 C16 1_555 1_555
N5 C26 1_555 1_555
N6 C12 1_555 1_555
O1 Cd1 1_555 1_555
O2 C29 1_555 1_555
O3 C36 1_555 1_555
O4 C36 1_555 1_555
N7 Cd1 1_555 1_555
H29 N7 1_555 1_555
Cd1C O3 1_555 1_555
O3C Cd1 1_555 1_555
O4C Cd1 1_555 1_555
C1 N7 1_555 1_555
C3 N1 1_555 1_555
C7 C8 1_555 1_555
C8 N2 1_555 1_555
C9 N2 1_555 1_555
C13 C14 1_555 1_555
C13 N6 1_555 1_555
C15 N7 1_555 1_555
C16 N3 1_555 1_555
C17 N3 1_555 1_555
C21 C22 1_555 1_555
C22 N4 1_555 1_555
C23 N4 1_555 1_555
C27 C28 1_555 1_555
C27 N5 1_555 1_555
C29 O1 1_555 1_555
C34 C35 1_555 1_555
O4 Cd1C 1_555 1_555

#END
