
#######################################################################
#
#                 Cambridge Crystallographic Data Centre
#                                CCDC 
#
#######################################################################
#
# If this CIF has been generated from an entry in the Cambridge 
# Structural Database, then it will include bibliographic, chemical, 
# crystal, experimental, refinement or atomic coordinate data resulting 
# from the CCDC's data processing and validation procedures.
#
#######################################################################

data_HUZGEP
_symmetry_cell_setting           monoclinic
_symmetry_space_group_name_H-M   'C 2'
_symmetry_Int_Tables_number      5
_space_group_name_Hall           'C 2y'
loop_
_symmetry_equiv_pos_site_id
_symmetry_equiv_pos_as_xyz
1 x,y,z
2 -x,y,-z
3 1/2+x,1/2+y,z
4 1/2-x,1/2+y,-z
_cell_length_a                   11.218(2)
_cell_length_b                   15.927(3)
_cell_length_c                   12.965(3)
_cell_angle_alpha                90
_cell_angle_beta                 111.176(3)
_cell_angle_gamma                90
_cell_volume                     2160.03
loop_
_atom_site_label
_atom_site_type_symbol
_atom_site_fract_x
_atom_site_fract_y
_atom_site_fract_z
Zn1 Zn 0.21723(6) -0.4374(5) 0.65900(5)
C1 C 0.2901(6) -0.5437(7) 0.8628(5)
C2 C 0.3224(7) -0.4769(7) 0.9387(6)
H1 H 0.3152 -0.4214 0.9151
C3 C 0.3650(7) -0.4968(8) 1.0491(6)
H2 H 0.3884 -0.4538 1.1011
C4 C 0.3742(8) -0.5801(8) 1.0852(7)
H3 H 0.4019 -0.5910 1.1607
C5 C 0.3438(8) -0.6453(8) 1.0133(6)
H4 H 0.3512 -0.7007 1.0376
C6 C 0.3007(6) -0.6251(7) 0.9006(6)
C7 C 0.2297(6) -0.6221(6) 0.7167(6)
C8 C 0.1757(7) -0.6520(6) 0.6018(6)
H5 H 0.2054 -0.7086 0.5973
H6 H 0.2042 -0.6161 0.5548
C9 C 0.0312(7) -0.6510(7) 0.5623(6)
H7 H 0.0025 -0.6999 0.5915
H8 H 0.0040 -0.6015 0.5914
C10 C 0.2639(6) -0.7663(6) 0.8016(7)
H9 H 0.3149 -0.7878 0.8741
H10 H 0.3047 -0.7833 0.7505
C11 C 0.1324(6) -0.8048(6) 0.7656(6)
C12 C 0.0407(6) -0.7771(6) 0.8083(6)
H11 H 0.0596 -0.7335 0.8594
C13 C -0.0759(6) -0.8147(6) 0.7743(6)
H12 H -0.1368 -0.7945 0.8013
C14 C -0.0200(6) -0.9068(7) 0.6634(6)
H13 H -0.0406 -0.9513 0.6134
C15 C 0.0991(7) -0.8710(7) 0.6935(7)
H14 H 0.1579 -0.8920 0.6647
C16 C -0.1442(6) -0.4192(6) 0.5721(5)
C17 C -0.1009(6) -0.4626(6) 0.6844(5)
C18 C 0.0608(6) -0.3483(7) 0.7682(6)
C19 C -0.0111(5) -0.4257(7) 0.7775(4)
C20 C 0.0142(6) -0.4607(6) 0.8808(5)
H15 H 0.0687 -0.4330 0.9432
C21 C -0.0406(6) -0.5369(7) 0.8929(5)
C22 C -0.1270(6) -0.5739(6) 0.7989(6)
H16 H -0.1643 -0.6248 0.8052
C23 C -0.1588(6) -0.5373(6) 0.6972(5)
H17 H -0.2196 -0.5625 0.6360
C24 C 0.0000 -0.5830(8) 1.0000
N1 N 0.2443(5) -0.5430(6) 0.7490(4)
N2 N 0.2623(5) -0.6741(6) 0.8064(5)
N3 N -0.1075(5) -0.8795(6) 0.7039(4)
O1 O 0.1285(5) -0.3519(6) 0.7075(4)
O2 O 0.0564(7) -0.2849(6) 0.8209(6)
O3 O -0.1646(6) -0.3457(6) 0.5659(4)
O4 O -0.1574(6) -0.4696(6) 0.4934(4)
O5 O 0.0000 -0.6585(7) 1.0000
Zn1A Zn -0.21723(6) -0.4374(5) 0.34100(5)
Zn1B Zn -0.28277(6) -0.9374(5) 0.65900(5)
Zn1C Zn 0.28277(6) -0.9374(5) 0.34100(5)
Zn1_2 Zn 0.21723(6) -0.4374(5) 1.65900(5)
Zn1A_2 Zn -0.21723(6) -0.4374(5) 1.34100(5)
C1A C -0.2901(6) -0.5437(7) 0.1372(5)
C2A C -0.3224(7) -0.4769(7) 0.0613(6)
H1A H -0.3152 -0.4214 0.0849
C3A C -0.3650(7) -0.4968(8) -0.0491(6)
H2A H -0.3884 -0.4538 -0.1011
C4A C -0.3742(8) -0.5801(8) -0.0852(7)
H3A H -0.4019 -0.5910 -0.1607
C5A C -0.3438(8) -0.6453(8) -0.0133(6)
H4A H -0.3512 -0.7007 -0.0376
C6A C -0.3007(6) -0.6251(7) 0.0994(6)
C7A C -0.2297(6) -0.6221(6) 0.2833(6)
C8A C -0.1757(7) -0.6520(6) 0.3982(6)
H5A H -0.2054 -0.7086 0.4027
H6A H -0.2042 -0.6161 0.4452
C9A C -0.0312(7) -0.6510(7) 0.4377(6)
H7A H -0.0025 -0.6999 0.4085
H8A H -0.0040 -0.6015 0.4086
C10A C -0.2639(6) -0.7663(6) 0.1984(7)
H9A H -0.3149 -0.7878 0.1259
H10A H -0.3047 -0.7833 0.2495
C11A C -0.1324(6) -0.8048(6) 0.2344(6)
C12A C -0.0407(6) -0.7771(6) 0.1917(6)
H11A H -0.0596 -0.7335 0.1406
C13A C 0.0759(6) -0.8147(6) 0.2257(6)
H12A H 0.1368 -0.7945 0.1987
C14A C 0.0200(6) -0.9068(7) 0.3366(6)
H13A H 0.0406 -0.9513 0.3866
C15A C -0.0991(7) -0.8710(7) 0.3065(7)
H14A H -0.1579 -0.8920 0.3353
C16A C 0.1442(6) -0.4192(6) 1.4279(5)
C17A C 0.1009(6) -0.4626(6) 1.3156(5)
C18A C -0.0608(6) -0.3483(7) 1.2318(6)
C19A C 0.0111(5) -0.4257(7) 1.2225(4)
C20A C -0.0142(6) -0.4607(6) 1.1192(5)
H15A H -0.0687 -0.4330 1.0568
C21A C 0.0406(6) -0.5369(7) 1.1071(5)
C22A C 0.1270(6) -0.5739(6) 1.2011(6)
H16A H 0.1643 -0.6248 1.1948
C23A C 0.1588(6) -0.5373(6) 1.3028(5)
H17A H 0.2196 -0.5625 1.3640
N1A N -0.2443(5) -0.5430(6) 0.2510(4)
N2A N -0.2623(5) -0.6741(6) 0.1936(5)
N3A N 0.1075(5) -0.8795(6) 0.2961(4)
N3B N 0.3925(5) -0.3795(6) 0.7039(4)
N3C N -0.3925(5) -0.3795(6) 0.2961(4)
O1A O -0.1285(5) -0.3519(6) 1.2925(4)
O1A_2 O -0.1285(5) -0.3519(6) 0.2925(4)
O2A O -0.0564(7) -0.2849(6) 1.1791(6)
O3A O 0.1646(6) -0.3457(6) 1.4341(4)
O4A O 0.1574(6) -0.4696(6) 1.5066(4)
O4A_2 O 0.1574(6) -0.4696(6) 0.5066(4)
O6 O 0.3269(9) 0.2905(7) 0.4169(9)
H18 H 0.388(13) 0.274(18) 0.398(16)
H19 H 0.358(19) 0.281(19) 0.486(5)
O7 O 0.5000 -0.5703(4) 0.5000
H20 H 0.504(9) -0.5613(11) 0.437(3)
H20A H 0.496(9) -0.5613(11) 0.563(3)
H21? H 0.5000 -0.6237(4) 0.5000
loop_
_geom_bond_atom_site_label_1
_geom_bond_atom_site_label_2
_geom_bond_site_symmetry_1
_geom_bond_site_symmetry_2
Zn1 N1 1_555 1_555
C1 C2 1_555 1_555
C2 H1 1_555 1_555
C3 C2 1_555 1_555
H2 C3 1_555 1_555
C4 C3 1_555 1_555
H3 C4 1_555 1_555
C5 C4 1_555 1_555
H4 C5 1_555 1_555
C6 C1 1_555 1_555
C7 C8 1_555 1_555
C8 H5 1_555 1_555
H6 C8 1_555 1_555
C9 C8 1_555 1_555
H7 C9 1_555 1_555
H8 C9 1_555 1_555
C10 H9 1_555 1_555
H10 C10 1_555 1_555
C11 C10 1_555 1_555
C12 C11 1_555 1_555
H11 C12 1_555 1_555
C13 C12 1_555 1_555
H12 C13 1_555 1_555
C14 H13 1_555 1_555
C15 C11 1_555 1_555
H14 C15 1_555 1_555
C16 C17 1_555 1_555
C17 C19 1_555 1_555
C18 C19 1_555 1_555
C19 C20 1_555 1_555
C20 H15 1_555 1_555
C21 C20 1_555 1_555
C22 C21 1_555 1_555
H16 C22 1_555 1_555
C23 C17 1_555 1_555
H17 C23 1_555 1_555
C24 C21 1_555 1_555
N1 C1 1_555 1_555
N2 C6 1_555 1_555
N3 C13 1_555 1_555
O1 Zn1 1_555 1_555
O2 C18 1_555 1_555
O3 C16 1_555 1_555
O4 C16 1_555 1_555
O5 C24 1_555 1_555
O6 H18 1_555 1_555
O7 H20 1_555 1_555
H19 O6 1_555 1_555
Zn1A O4 1_555 1_555
Zn1B N3 1_555 1_555
Zn1C N3A 1_555 1_555
Zn1_2 O4A 1_555 1_555
Zn1A_2 O1A 1_555 1_555
C1A C2A 1_555 1_555
C2A H1A 1_555 1_555
C3A C2A 1_555 1_555
H2A C3A 1_555 1_555
C4A C3A 1_555 1_555
H3A C4A 1_555 1_555
C5A C4A 1_555 1_555
H4A C5A 1_555 1_555
C6A C1A 1_555 1_555
C7A C8A 1_555 1_555
C8A H5A 1_555 1_555
H6A C8A 1_555 1_555
C9A C9 1_555 1_555
H7A C9A 1_555 1_555
H8A C9A 1_555 1_555
C10A H9A 1_555 1_555
H10A C10A 1_555 1_555
C11A C10A 1_555 1_555
C12A C11A 1_555 1_555
H11A C12A 1_555 1_555
C13A C12A 1_555 1_555
H12A C13A 1_555 1_555
C14A H13A 1_555 1_555
C15A C11A 1_555 1_555
H14A C15A 1_555 1_555
C16A C17A 1_555 1_555
C17A C19A 1_555 1_555
C18A C19A 1_555 1_555
C19A C20A 1_555 1_555
C20A H15A 1_555 1_555
C21A C24 1_555 1_555
C22A C21A 1_555 1_555
H16A C22A 1_555 1_555
C23A C17A 1_555 1_555
H17A C23A 1_555 1_555
N1A Zn1A 1_555 1_555
N2A C6A 1_555 1_555
N3A C13A 1_555 1_555
N3B Zn1 1_555 1_555
N3C Zn1A 1_555 1_555
O1A C18A 1_555 1_555
O1A_2 Zn1A 1_555 1_555
O2A C18A 1_555 1_555
O3A C16A 1_555 1_555
O4A C16A 1_555 1_555
O4A_2 Zn1 1_555 1_555
H20A O7 1_555 1_555
C5 C6 1_555 1_555
C7 N1 1_555 1_555
C7 N2 1_555 1_555
C10 N2 1_555 1_555
C14 C15 1_555 1_555
C14 N3 1_555 1_555
C18 O1 1_555 1_555
C22 C23 1_555 1_555
C1A N1A 1_555 1_555
C5A C6A 1_555 1_555
C7A N1A 1_555 1_555
C7A N2A 1_555 1_555
C8A C9A 1_555 1_555
C10A N2A 1_555 1_555
C14A C15A 1_555 1_555
C14A N3A 1_555 1_555
C20A C21A 1_555 1_555
C22A C23A 1_555 1_555

#END
