
#######################################################################
#
#                 Cambridge Crystallographic Data Centre
#                                CCDC 
#
#######################################################################
#
# If this CIF has been generated from an entry in the Cambridge 
# Structural Database, then it will include bibliographic, chemical, 
# crystal, experimental, refinement or atomic coordinate data resulting 
# from the CCDC's data processing and validation procedures.
#
#######################################################################

data_HUZGOZ
_symmetry_cell_setting           monoclinic
_symmetry_space_group_name_H-M   'C 2/c'
_symmetry_Int_Tables_number      15
_space_group_name_Hall           '-C 2yn'
loop_
_symmetry_equiv_pos_site_id
_symmetry_equiv_pos_as_xyz
1 x,y,z
2 -x,y,1/2-z
3 1/2+x,1/2+y,z
4 1/2-x,1/2+y,1/2-z
5 -x,-y,-z
6 x,-y,1/2+z
7 1/2-x,1/2-y,-z
8 1/2+x,1/2-y,1/2+z
_cell_length_a                   16.8292(8)
_cell_length_b                   14.5542(8)
_cell_length_c                   16.0123(9)
_cell_angle_alpha                90
_cell_angle_beta                 114.432(1)
_cell_angle_gamma                90
_cell_volume                     3570.78
loop_
_atom_site_label
_atom_site_type_symbol
_atom_site_fract_x
_atom_site_fract_y
_atom_site_fract_z
Cd1 Cd 0.5000 -0.19495(3) 0.2500
C1 C 0.3615(3) -0.0717(3) 0.0818(3)
C2 C 0.2891(3) -0.1359(3) 0.0684(3)
H1 H 0.2343 -0.1025 0.0432
H2 H 0.2964 -0.1607 0.1273
C3 C 0.2852(3) -0.2149(3) 0.0039(4)
H3 H 0.2733 -0.1905 -0.0564
H4 H 0.3415 -0.2454 0.0266
C4 C 0.4909(3) -0.0118(3) 0.1288(3)
C5 C 0.5795(3) 0.0076(4) 0.1715(4)
H5 H 0.6185 -0.0321 0.2145
C6 C 0.6066(4) 0.0887(5) 0.1468(5)
H6 H 0.6656 0.1038 0.1740
C7 C 0.5498(5) 0.1474(5) 0.0838(5)
H7 H 0.5708 0.2021 0.0706
C8 C 0.4339(3) 0.0474(3) 0.0637(3)
C9 C 0.4616(4) 0.1275(4) 0.0392(4)
H8 H 0.4231 0.1665 -0.0051
C10 C 0.2709(4) 0.0480(4) -0.0290(4)
H9 H 0.2352 0.0004 -0.0697
H10 H 0.2827 0.0939 -0.0662
C11 C 0.2207(4) 0.0919(4) 0.0195(4)
C12 C 0.2607(4) 0.1529(5) 0.0909(4)
H11 H 0.3190 0.1681 0.1079
C13 C 0.2166(4) 0.1913(4) 0.1371(4)
H12 H 0.2449 0.2319 0.1851
C14 C 0.1287(4) 0.1693(4) 0.1120(4)
C15 C 0.0880(4) 0.1117(4) 0.0394(5)
H13 H 0.0289 0.0990 0.0204
C16 C 0.1331(4) 0.0723(5) -0.0063(5)
H14 H 0.1046 0.0322 -0.0548
C17 C 0.0803(4) 0.2113(4) 0.1617(5)
N1 N 0.4438(2) -0.0867(2) 0.1392(3)
N2 N 0.3531(3) 0.0078(3) 0.0344(3)
O1 O 0.1204(3) 0.2684(3) 0.2250(3)
O2 O 0.0026(3) 0.1913(3) 0.1399(4)
Cd1B Cd 0.0000 0.30505(3) 0.2500
Cd1F Cd 0.0000 -0.30505(3) -0.2500
Cd1D Cd 0.5000 -0.80505(3) -0.2500
C1F C 0.1385(3) -0.4283(3) -0.0818(3)
C2F C 0.2109(3) -0.3641(3) -0.0684(3)
H1F H 0.2657 -0.3975 -0.0432
H2F H 0.2036 -0.3393 -0.1273
C3F C 0.2148(3) -0.2851(3) -0.0039(4)
H3F H 0.2267 -0.3095 0.0564
H4F H 0.1585 -0.2546 -0.0266
C4F C 0.0091(3) -0.4882(3) -0.1288(3)
C5F C -0.0795(3) -0.5076(4) -0.1715(4)
H5F H -0.1185 -0.4679 -0.2145
C6F C -0.1066(4) -0.5887(5) -0.1468(5)
H6F H -0.1656 -0.6038 -0.1740
C7F C -0.0498(5) -0.6474(5) -0.0838(5)
H7F H -0.0708 -0.7021 -0.0706
C8F C 0.0661(3) -0.5474(3) -0.0637(3)
C9F C 0.0384(4) -0.6275(4) -0.0392(4)
H8F H 0.0769 -0.6665 0.0051
C10F C 0.2291(4) -0.5480(4) 0.0290(4)
H9F H 0.2648 -0.5004 0.0697
H10F H 0.2173 -0.5939 0.0662
C11F C 0.2793(4) -0.5919(4) -0.0195(4)
C12F C 0.2393(4) -0.6529(5) -0.0909(4)
H11F H 0.1810 -0.6681 -0.1079
C13F C 0.2834(4) -0.6913(4) -0.1371(4)
H12F H 0.2551 -0.7319 -0.1851
C14F C 0.3713(4) -0.6693(4) -0.1120(4)
C15F C 0.4120(4) -0.6117(4) -0.0394(5)
H13F H 0.4711 -0.5990 -0.0204
C16F C 0.3669(4) -0.5723(5) 0.0063(5)
H14F H 0.3954 -0.5322 0.0548
C17F C 0.4197(4) -0.7113(4) -0.1617(5)
N1F N 0.0562(2) -0.4133(2) -0.1392(3)
N1A N 0.5562(2) -0.0867(2) 0.3608(3)
N2F N 0.1469(3) -0.5078(3) -0.0344(3)
O1F O 0.3796(3) -0.7684(3) -0.2250(3)
O1B O 0.6204(3) -0.2316(3) 0.2250(3)
O1C O 0.3796(3) -0.2316(3) 0.2750(3)
O2F O 0.4974(3) -0.6913(3) -0.1399(4)
O2B O 0.5026(3) -0.3087(3) 0.1399(4)
O2C O 0.4974(3) -0.3087(3) 0.3601(4)
loop_
_geom_bond_atom_site_label_1
_geom_bond_atom_site_label_2
_geom_bond_site_symmetry_1
_geom_bond_site_symmetry_2
Cd1 N1 1_555 1_555
C1 C2 1_555 1_555
C2 H1 1_555 1_555
H2 C2 1_555 1_555
C3 C2 1_555 1_555
H3 C3 1_555 1_555
H4 C3 1_555 1_555
C4 C5 1_555 1_555
C5 H5 1_555 1_555
C6 C5 1_555 1_555
H6 C6 1_555 1_555
C7 C6 1_555 1_555
H7 C7 1_555 1_555
C8 C4 1_555 1_555
C9 C7 1_555 1_555
H8 C9 1_555 1_555
C10 H9 1_555 1_555
H10 C10 1_555 1_555
C11 C10 1_555 1_555
C12 C11 1_555 1_555
H11 C12 1_555 1_555
C13 C12 1_555 1_555
H12 C13 1_555 1_555
C14 C13 1_555 1_555
C15 C14 1_555 1_555
H13 C15 1_555 1_555
C16 C11 1_555 1_555
H14 C16 1_555 1_555
C17 C14 1_555 1_555
N1 C1 1_555 1_555
N2 C1 1_555 1_555
O1 C17 1_555 1_555
O2 C17 1_555 1_555
Cd1B O1 1_555 1_555
Cd1F N1F 1_555 1_555
Cd1D O1F 1_555 1_555
C1F C2F 1_555 1_555
C2F H1F 1_555 1_555
H2F C2F 1_555 1_555
C3F C3 1_555 1_555
H3F C3F 1_555 1_555
H4F C3F 1_555 1_555
C4F C5F 1_555 1_555
C5F H5F 1_555 1_555
C6F C5F 1_555 1_555
H6F C6F 1_555 1_555
C7F C6F 1_555 1_555
H7F C7F 1_555 1_555
C8F C4F 1_555 1_555
C9F C7F 1_555 1_555
H8F C9F 1_555 1_555
C10F H9F 1_555 1_555
H10F C10F 1_555 1_555
C11F C10F 1_555 1_555
C12F C11F 1_555 1_555
H11F C12F 1_555 1_555
C13F C12F 1_555 1_555
H12F C13F 1_555 1_555
C14F C13F 1_555 1_555
C15F C14F 1_555 1_555
H13F C15F 1_555 1_555
C16F C11F 1_555 1_555
H14F C16F 1_555 1_555
C17F C14F 1_555 1_555
N1F C1F 1_555 1_555
N1A Cd1 1_555 1_555
N2F C1F 1_555 1_555
O1F C17F 1_555 1_555
O1B Cd1 1_555 1_555
O1C Cd1 1_555 1_555
O2F Cd1D 1_555 1_555
O2B Cd1 1_555 1_555
O2C Cd1 1_555 1_555
C4 N1 1_555 1_555
C8 C9 1_555 1_555
C8 N2 1_555 1_555
C10 N2 1_555 1_555
C15 C16 1_555 1_555
O2 Cd1B 1_555 1_555
C2F C3F 1_555 1_555
C4F N1F 1_555 1_555
C8F C9F 1_555 1_555
C8F N2F 1_555 1_555
C10F N2F 1_555 1_555
C15F C16F 1_555 1_555
C17F O2F 1_555 1_555

#END
