
#######################################################################
#
#                 Cambridge Crystallographic Data Centre
#                                CCDC 
#
#######################################################################
#
# If this CIF has been generated from an entry in the Cambridge 
# Structural Database, then it will include bibliographic, chemical, 
# crystal, experimental, refinement or atomic coordinate data resulting 
# from the CCDC's data processing and validation procedures.
#
#######################################################################

data_HUZHAM
_symmetry_cell_setting           monoclinic
_symmetry_space_group_name_H-M   'C 2/c'
_symmetry_Int_Tables_number      15
_space_group_name_Hall           '-C 2yn'
loop_
_symmetry_equiv_pos_site_id
_symmetry_equiv_pos_as_xyz
1 x,y,z
2 -x,y,1/2-z
3 1/2+x,1/2+y,z
4 1/2-x,1/2+y,1/2-z
5 -x,-y,-z
6 x,-y,1/2+z
7 1/2-x,1/2-y,-z
8 1/2+x,1/2-y,1/2+z
_cell_length_a                   11.1050(13)
_cell_length_b                   10.179(3)
_cell_length_c                   17.959(3)
_cell_angle_alpha                90
_cell_angle_beta                 92.532(3)
_cell_angle_gamma                90
_cell_volume                     2028.06
loop_
_atom_site_label
_atom_site_type_symbol
_atom_site_fract_x
_atom_site_fract_y
_atom_site_fract_z
Zn1 Zn 0.5000 0.25023(6) 0.2500
C1 C 0.4140(4) -0.0341(4) 0.2039(2)
C2 C 0.3389(4) 0.0680(4) 0.1651(2)
C3 C 0.1970(4) 0.1587(5) 0.0922(2)
C4 C 0.1041(5) 0.1904(6) 0.0405(3)
H1 H 0.0612 0.1256 0.0143
C5 C 0.0787(6) 0.3206(7) 0.0300(3)
H2 H 0.0166 0.3455 -0.0034
C6 C 0.1456(5) 0.4170(5) 0.0693(3)
H3 H 0.1274 0.5049 0.0601
C7 C 0.2370(5) 0.3874(5) 0.1207(3)
H4 H 0.2797 0.4528 0.1466
C8 C 0.2623(4) 0.2553(5) 0.1321(2)
C9 C 0.2160(4) -0.0912(5) 0.0865(3)
H5 H 0.2899 -0.1393 0.0790
H6 H 0.1738 -0.0828 0.0382
C10 C 0.1382(5) -0.1719(5) 0.1371(3)
N1 N 0.5000 0.0336(7) 0.2500
N2 N 0.3502(3) 0.1952(4) 0.17795(19)
N3 N 0.2475(3) 0.0401(4) 0.11361(19)
O1 O 0.0886(3) -0.1156(3) 0.18882(18)
O2 O 0.1318(4) -0.2891(4) 0.1227(3)
Zn1B Zn 0.0000 -0.24977(6) 0.2500
Zn1B_2 Zn 1.0000 -0.24977(6) 0.2500
C1A C 0.5860(4) -0.0341(4) 0.2961(2)
C2A C 0.6611(4) 0.0680(4) 0.3349(2)
C3A C 0.8030(4) 0.1587(5) 0.4078(2)
C4A C 0.8959(5) 0.1904(6) 0.4595(3)
H1A H 0.9388 0.1256 0.4857
C5A C 0.9213(6) 0.3206(7) 0.4700(3)
H2A H 0.9834 0.3455 0.5034
C6A C 0.8544(5) 0.4170(5) 0.4307(3)
H3A H 0.8726 0.5049 0.4399
C7A C 0.7630(5) 0.3874(5) 0.3793(3)
H4A H 0.7203 0.4528 0.3534
C8A C 0.7377(4) 0.2553(5) 0.3679(2)
C9A C 0.7840(4) -0.0912(5) 0.4135(3)
H5A H 0.7101 -0.1393 0.4210
H6A H 0.8262 -0.0828 0.4618
C10A C 0.8618(5) -0.1719(5) 0.3629(3)
N2A N 0.6498(3) 0.1952(4) 0.32205(19)
N3A N 0.7525(3) 0.0401(4) 0.38639(19)
O1A O 0.9114(3) -0.1156(3) 0.31118(18)
O1B O 0.5886(3) 0.3844(3) 0.18882(18)
O1C O 0.4114(3) 0.3844(3) 0.31118(18)
O2A O 0.8682(4) -0.2891(4) 0.3773(3)
O3 O 0.5000 0.6443(14) 0.2500
H7 H 0.5585(15) 0.638(3) 0.2828(10)
H7A H 0.4415(15) 0.638(3) 0.2172(10)
loop_
_geom_bond_atom_site_label_1
_geom_bond_atom_site_label_2
_geom_bond_site_symmetry_1
_geom_bond_site_symmetry_2
Zn1 N1 1_555 1_555
C1 C2 1_555 1_555
C2 N2 1_555 1_555
C3 C4 1_555 1_555
C4 H1 1_555 1_555
C5 C4 1_555 1_555
H2 C5 1_555 1_555
C6 C5 1_555 1_555
H3 C6 1_555 1_555
C7 C6 1_555 1_555
H4 C7 1_555 1_555
C8 C3 1_555 1_555
C9 H5 1_555 1_555
H6 C9 1_555 1_555
C10 C9 1_555 1_555
N1 C1 1_555 1_555
N2 Zn1 1_555 1_555
N3 C2 1_555 1_555
O1 C10 1_555 1_555
O2 C10 1_555 1_555
O3 H7 1_555 1_555
Zn1B O1 1_555 1_555
Zn1B_2 O1A 1_555 1_555
C1A N1 1_555 1_555
C2A C1A 1_555 1_555
C3A C4A 1_555 1_555
C4A H1A 1_555 1_555
C5A C4A 1_555 1_555
H2A C5A 1_555 1_555
C6A C5A 1_555 1_555
H3A C6A 1_555 1_555
C7A C6A 1_555 1_555
H4A C7A 1_555 1_555
C8A C3A 1_555 1_555
C9A H5A 1_555 1_555
H6A C9A 1_555 1_555
C10A C9A 1_555 1_555
N2A Zn1 1_555 1_555
N3A C2A 1_555 1_555
O1A C10A 1_555 1_555
O1B Zn1 1_555 1_555
O1C Zn1 1_555 1_555
O2A C10A 1_555 1_555
H7A O3 1_555 1_555
C3 N3 1_555 1_555
C7 C8 1_555 1_555
C8 N2 1_555 1_555
C9 N3 1_555 1_555
C2A N2A 1_555 1_555
C3A N3A 1_555 1_555
C7A C8A 1_555 1_555
C8A N2A 1_555 1_555
C9A N3A 1_555 1_555

#END
