
#######################################################################
#
#                 Cambridge Crystallographic Data Centre
#                                CCDC 
#
#######################################################################
#
# If this CIF has been generated from an entry in the Cambridge 
# Structural Database, then it will include bibliographic, chemical, 
# crystal, experimental, refinement or atomic coordinate data resulting 
# from the CCDC's data processing and validation procedures.
#
#######################################################################

data_HUZHEQ
_symmetry_cell_setting           triclinic
_symmetry_space_group_name_H-M   'P -1'
_symmetry_Int_Tables_number      2
_space_group_name_Hall           '-P 1'
loop_
_symmetry_equiv_pos_site_id
_symmetry_equiv_pos_as_xyz
1 x,y,z
2 -x,-y,-z
_cell_length_a                   7.8327(9)
_cell_length_b                   11.1022(13)
_cell_length_c                   14.8550(17)
_cell_angle_alpha                73.002(2)
_cell_angle_beta                 77.365(2)
_cell_angle_gamma                71.665(2)
_cell_volume                     1161.15
loop_
_atom_site_label
_atom_site_type_symbol
_atom_site_fract_x
_atom_site_fract_y
_atom_site_fract_z
H1 H 0.246(18) 0.838(13) 0.371(3)
H2 H 0.283(15) 0.801(10) 0.266(5)
O11 O 0.2613(7) 0.8325(5) 0.3139(4)
H3 H -0.594(17) -0.580(12) 0.592(5)
H4 H -0.567(11) -0.573(9) 0.705(4)
H5 H -0.440(9) -1.139(6) 1.099(3)
H6 H -0.559(7) -1.127(7) 1.193(4)
Co1 Co -0.41105(8) -0.91713(6) 1.14355(4)
Co2 Co -0.86226(8) -0.37720(6) 0.65455(4)
O1 O -0.3436(4) -1.0046(3) 1.2722(2)
O2 O -0.6939(4) -0.8398(3) 1.1663(2)
O3 O -0.4600(6) -1.1013(4) 1.1509(3)
O4 O -0.5634(4) -0.8161(4) 1.0190(2)
O5 O -0.9429(5) -0.4813(3) 0.7809(2)
O6 O -0.6647(4) -1.3006(3) 1.6710(2)
O7 O -0.6241(6) -0.5527(5) 0.6501(4)
O8 O -0.7143(4) -1.2578(4) 1.5240(2)
O9 O -1.2434(5) -0.4521(3) 0.8046(2)
O10 O -0.0798(5) -0.9931(4) 1.2970(2)
N1 N -0.1678(5) -0.9731(4) 1.0553(3)
N2 N -1.3688(5) -0.7286(4) 1.1413(3)
N3 N -0.9465(5) -0.4509(4) 0.5617(3)
N4 N -0.0741(5) -1.1983(4) 1.6539(3)
C1 C -1.0724(6) -0.5894(4) 0.9284(3)
C2 C -1.2277(6) -0.6121(4) 0.9903(3)
H7 H -1.3416 -0.5716 0.9709
C3 C -1.2130(6) -0.6942(4) 1.0800(3)
C4 C -1.0424(5) -0.7543(4) 1.1089(3)
H8 H -1.0315 -0.8089 1.1694
C5 C -0.8883(6) -0.7322(4) 1.0469(3)
C6 C -0.9024(6) -0.6512(4) 0.9571(3)
H9 H -0.7984 -0.6379 0.9158
C7 C -0.7057(6) -0.7988(4) 1.0792(3)
C8 C -1.0911(6) -0.4994(4) 0.8310(3)
C9 C -0.2668(6) -1.0935(4) 1.4271(3)
C10 C -0.4212(6) -1.1394(4) 1.4561(3)
H10 H -0.4962 -1.1292 1.4122
C11 C -0.4624(6) -1.2008(4) 1.5510(3)
C12 C -0.3500(6) -1.2149(4) 1.6163(3)
H11 H -0.3789 -1.2540 1.6801
C13 C -0.1953(6) -1.1708(4) 1.5866(3)
C14 C -0.1536(6) -1.1101(4) 1.4923(3)
H12 H -0.0497 -1.0804 1.4725
C15 C -0.2247(6) -1.0247(4) 1.3245(3)
C16 C -0.6240(6) -1.2545(5) 1.5830(3)
C17 C -0.1426(6) -0.9120(5) 0.9637(3)
H13 H -0.2401 -0.8499 0.9363
C18 C -0.8501(7) -0.4597(5) 0.4769(3)
H14 H -0.7449 -0.4316 0.4586
C19 C -1.0980(7) -0.4910(5) 0.5839(3)
H15 H -1.1698 -0.4852 0.6421
C20 C -0.0238(6) -1.0615(5) 1.0913(3)
H16 H -0.0365 -1.1061 1.1549
H17 H -1.367(6) -0.730(5) 1.187(3)
H18 H -0.010(9) -1.141(6) 1.638(4)
H19 H -1.484(9) -0.659(6) 1.128(4)
H20 H -0.126(7) -1.196(5) 1.706(4)
H3_2 H 0.406(17) -0.580(12) 0.592(5)
H4_2 H 0.433(11) -0.573(9) 0.705(4)
H5_2 H 0.560(9) -1.139(6) 1.099(3)
H6_2 H 0.441(7) -1.127(7) 1.193(4)
Co1_2 Co 0.58895(8) -0.91713(6) 1.14355(4)
Co1_3 Co -1.41105(8) -0.91713(6) 1.14355(4)
Co1A Co 0.41105(8) -1.08287(6) 0.85645(4)
Co1_4 Co -0.41105(8) 0.08287(6) 0.14355(4)
Co2_2 Co 0.13774(8) -0.37720(6) 0.65455(4)
Co2_3 Co -0.86226(8) -1.37720(6) 1.65455(4)
Co2_4 Co 0.13774(8) -1.37720(6) 1.65455(4)
Co2A Co -1.13774(8) -0.62280(6) 0.34545(4)
O1_2 O -0.3436(4) -0.0046(3) 0.2722(2)
O1_3 O 0.6564(4) -1.0046(3) 1.2722(2)
O2_2 O 0.3061(4) -0.8398(3) 1.1663(2)
O3_2 O 0.5400(6) -1.1013(4) 1.1509(3)
O4_2 O 0.4366(4) -0.8161(4) 1.0190(2)
O5_2 O 0.0571(5) -0.4813(3) 0.7809(2)
O6_2 O -0.6647(4) -0.3006(3) 0.6710(2)
O6_3 O 0.3353(4) -0.3006(3) 0.6710(2)
O7_2 O 0.3759(6) -0.5527(5) 0.6501(4)
O8_2 O -0.7143(4) -0.2578(4) 0.5240(2)
O8_3 O 0.2857(4) -0.2578(4) 0.5240(2)
O9_2 O -0.2434(5) -0.4521(3) 0.8046(2)
O10_2 O -0.0798(5) 0.0069(4) 0.2970(2)
N1A N 0.1678(5) -1.0269(4) 0.9447(3)
N1_2 N 0.8322(5) -0.9731(4) 1.0553(3)
N2_2 N -0.3688(5) -0.7286(4) 1.1413(3)
N2_3 N 0.6312(5) -0.7286(4) 1.1413(3)
N3A N -1.0535(5) -0.5491(4) 0.4383(3)
N3_2 N 0.0535(5) -0.4509(4) 0.5617(3)
N4_2 N -0.0741(5) -0.1983(4) 0.6539(3)
N4_3 N -1.0741(5) -0.1983(4) 0.6539(3)
C1_2 C -0.0724(6) -0.5894(4) 0.9284(3)
C2_2 C -0.2277(6) -0.6121(4) 0.9903(3)
H7_2 H -0.3416 -0.5716 0.9709
C3_2 C -0.2130(6) -0.6942(4) 1.0800(3)
C4_2 C -0.0424(5) -0.7543(4) 1.1089(3)
H8_2 H -0.0315 -0.8089 1.1694
C5_2 C 0.1117(6) -0.7322(4) 1.0469(3)
C6_2 C 0.0976(6) -0.6512(4) 0.9571(3)
H9_2 H 0.2016 -0.6379 0.9158
C7_2 C 0.2943(6) -0.7988(4) 1.0792(3)
C8_2 C -0.0911(6) -0.4994(4) 0.8310(3)
C9_2 C -0.2668(6) -0.0935(4) 0.4271(3)
C10_2 C -0.4212(6) -0.1394(4) 0.4561(3)
H10_2 H -0.4962 -0.1292 0.4122
C11_2 C -0.4624(6) -0.2008(4) 0.5510(3)
C12_2 C -0.3500(6) -0.2149(4) 0.6163(3)
H11_2 H -0.3789 -0.2540 0.6801
C13_2 C -0.1953(6) -0.1708(4) 0.5866(3)
C14_2 C -0.1536(6) -0.1101(4) 0.4923(3)
H12_2 H -0.0497 -0.0804 0.4725
C15_2 C -0.2247(6) -0.0247(4) 0.3245(3)
C16_2 C -0.6240(6) -0.2545(5) 0.5830(3)
C17A C 0.1426(6) -1.0880(5) 1.0363(3)
H13A H 0.2401 -1.1501 1.0637
C18A C -1.1499(7) -0.5403(5) 0.5231(3)
H14A H -1.2551 -0.5684 0.5414
C19A C -0.9020(7) -0.5090(5) 0.4161(3)
H15A H -0.8302 -0.5148 0.3579
C20A C 0.0238(6) -0.9385(5) 0.9087(3)
H16A H 0.0365 -0.8939 0.8451
H17_2 H -0.367(6) -0.730(5) 1.187(3)
H17_3 H 0.633(6) -0.730(5) 1.187(3)
H18_2 H -0.010(9) -0.141(6) 0.638(4)
H18_3 H -1.010(9) -0.141(6) 0.638(4)
H19_2 H -0.484(9) -0.659(6) 1.128(4)
H19_3 H 0.516(9) -0.659(6) 1.128(4)
H20_2 H -0.126(7) -0.196(5) 0.706(4)
H20_3 H -1.126(7) -0.196(5) 0.706(4)
O12 O 0.5866(8) 0.3695(6) 0.7912(4)
O13 O 0.196(3) -0.723(2) 0.7256(16)
loop_
_geom_bond_atom_site_label_1
_geom_bond_atom_site_label_2
_geom_bond_site_symmetry_1
_geom_bond_site_symmetry_2
H1 O11 1_555 1_555
H2 O11 1_555 1_555
H3 O7 1_555 1_555
H4 O7 1_555 1_555
H5 O3 1_555 1_555
H6 O3 1_555 1_555
Co1 O1 1_555 1_555
Co2 O5 1_555 1_555
O1 C15 1_555 1_555
O2 Co1 1_555 1_555
O3 Co1 1_555 1_555
O4 Co1 1_555 1_555
O5 C8 1_555 1_555
O6 C16 1_555 1_555
O7 Co2 1_555 1_555
O8 C16 1_555 1_555
O9 C8 1_555 1_555
O10 C15 1_555 1_555
N1 Co1 1_555 1_555
N2 C3 1_555 1_555
N3 Co2 1_555 1_555
N4 C13 1_555 1_555
C1 C2 1_555 1_555
C2 H7 1_555 1_555
C3 C2 1_555 1_555
C4 C3 1_555 1_555
H8 C4 1_555 1_555
C5 C4 1_555 1_555
C6 C1 1_555 1_555
H9 C6 1_555 1_555
C7 O2 1_555 1_555
C8 C1 1_555 1_555
C9 C10 1_555 1_555
C10 H10 1_555 1_555
C11 C10 1_555 1_555
C12 C11 1_555 1_555
H11 C12 1_555 1_555
C13 C12 1_555 1_555
C14 C9 1_555 1_555
H12 C14 1_555 1_555
C15 C9 1_555 1_555
C16 C11 1_555 1_555
C17 N1 1_555 1_555
H13 C17 1_555 1_555
C18 N3 1_555 1_555
H14 C18 1_555 1_555
C19 N3 1_555 1_555
H15 C19 1_555 1_555
C20 N1 1_555 1_555
H16 C20 1_555 1_555
H17 N2 1_555 1_555
H18 N4 1_555 1_555
H19 N2 1_555 1_555
H20 N4 1_555 1_555
H3_2 O7_2 1_555 1_555
H4_2 O7_2 1_555 1_555
H5_2 O3_2 1_555 1_555
H6_2 O3_2 1_555 1_555
Co1_2 O1_3 1_555 1_555
Co1_3 N2 1_555 1_555
Co1A N1A 1_555 1_555
Co1_4 O1_2 1_555 1_555
Co2_2 O5_2 1_555 1_555
Co2_3 O6 1_555 1_555
Co2_4 N4 1_555 1_555
Co2A N3A 1_555 1_555
O1_2 C15_2 1_555 1_555
O2_2 Co1_2 1_555 1_555
O3_2 Co1_2 1_555 1_555
O4_2 Co1_2 1_555 1_555
O5_2 C8_2 1_555 1_555
O6_2 Co2 1_555 1_555
O6_3 Co2_2 1_555 1_555
O7_2 Co2_2 1_555 1_555
O8_2 Co2 1_555 1_555
O8_3 Co2_2 1_555 1_555
O9_2 C8_2 1_555 1_555
O10_2 C15_2 1_555 1_555
N1A C17A 1_555 1_555
N1_2 Co1_2 1_555 1_555
N2_2 Co1 1_555 1_555
N2_3 Co1_2 1_555 1_555
N3A C18A 1_555 1_555
N3_2 Co2_2 1_555 1_555
N4_2 Co2_2 1_555 1_555
N4_3 Co2 1_555 1_555
C1_2 C2_2 1_555 1_555
C2_2 H7_2 1_555 1_555
C3_2 N2_2 1_555 1_555
C4_2 C3_2 1_555 1_555
H8_2 C4_2 1_555 1_555
C5_2 C4_2 1_555 1_555
C6_2 C1_2 1_555 1_555
H9_2 C6_2 1_555 1_555
C7_2 O2_2 1_555 1_555
C8_2 C1_2 1_555 1_555
C9_2 C10_2 1_555 1_555
C10_2 H10_2 1_555 1_555
C11_2 C10_2 1_555 1_555
C12_2 C11_2 1_555 1_555
H11_2 C12_2 1_555 1_555
C13_2 N4_2 1_555 1_555
C14_2 C9_2 1_555 1_555
H12_2 C14_2 1_555 1_555
C15_2 C9_2 1_555 1_555
C16_2 O6_2 1_555 1_555
C17A C20 1_555 1_555
H13A C17A 1_555 1_555
C18A C19 1_555 1_555
H14A C18A 1_555 1_555
C19A C18 1_555 1_555
H15A C19A 1_555 1_555
C20A C17 1_555 1_555
H16A C20A 1_555 1_555
H17_2 N2_2 1_555 1_555
H17_3 N2_3 1_555 1_555
H18_2 N4_2 1_555 1_555
H18_3 N4_3 1_555 1_555
H19_2 N2_2 1_555 1_555
H19_3 N2_3 1_555 1_555
H20_2 N4_2 1_555 1_555
H20_3 N4_3 1_555 1_555
O4 C7 1_555 1_555
O8 Co2_3 1_555 1_555
C5 C6 1_555 1_555
C5 C7 1_555 1_555
C13 C14 1_555 1_555
O4_2 C7_2 1_555 1_555
O8_2 C16_2 1_555 1_555
N1A C20A 1_555 1_555
N3A C19A 1_555 1_555
C2_2 C3_2 1_555 1_555
C5_2 C6_2 1_555 1_555
C5_2 C7_2 1_555 1_555
C11_2 C16_2 1_555 1_555
C12_2 C13_2 1_555 1_555
C13_2 C14_2 1_555 1_555

#END
