
#######################################################################
#
#                 Cambridge Crystallographic Data Centre
#                                CCDC 
#
#######################################################################
#
# If this CIF has been generated from an entry in the Cambridge 
# Structural Database, then it will include bibliographic, chemical, 
# crystal, experimental, refinement or atomic coordinate data resulting 
# from the CCDC's data processing and validation procedures.
#
#######################################################################

data_HUZHOA
_symmetry_cell_setting           triclinic
_symmetry_space_group_name_H-M   'P -1'
_symmetry_Int_Tables_number      2
_space_group_name_Hall           '-P 1'
loop_
_symmetry_equiv_pos_site_id
_symmetry_equiv_pos_as_xyz
1 x,y,z
2 -x,-y,-z
_cell_length_a                   7.815(2)
_cell_length_b                   11.152(4)
_cell_length_c                   14.854(5)
_cell_angle_alpha                73.305(18)
_cell_angle_beta                 76.746(18)
_cell_angle_gamma                71.886(18)
_cell_volume                     1164.54
loop_
_atom_site_label
_atom_site_type_symbol
_atom_site_fract_x
_atom_site_fract_y
_atom_site_fract_z
Co1 Co 0.0885(3) 1.08400(19) 0.64371(11)
Co2 Co -0.3864(3) 0.6290(2) 1.15876(12)
O1 O 0.1488(17) 0.9950(11) 0.7734(6)
O2 O -0.1947(13) 1.1590(10) 0.6668(6)
O3 O 0.033(2) 0.8976(12) 0.6459(9)
O4 O -0.0633(14) 1.1866(11) 0.5209(6)
O5 O -0.2353(18) 0.7515(12) 1.0229(7)
O6 O -0.1593(14) 0.6713(12) 1.1650(7)
O7 O -0.4428(17) 1.5080(10) 0.2807(7)
O8 O 0.3966(18) 1.0245(13) 0.8008(7)
O9 O -0.7371(18) 1.5508(11) 0.3064(7)
N1 N 0.3314(16) 1.0317(11) 0.5557(7)
N2 N -0.8681(17) 1.2739(11) 0.6442(8)
H1 H -0.9736 1.3042 0.6263
H2 H -0.8562 1.2238 0.6997
N3 N -0.4400(18) 0.5463(12) 1.0638(7)
N4 N 0.4179(16) 0.8054(11) 1.1541(6)
H3 H 0.3978 0.7606 1.2113
H4 H 0.5108 0.8371 1.1363
C1 C 0.223(2) 0.9060(13) 0.9282(8)
C2 C 0.072(2) 0.8560(13) 0.9571(8)
H5 H -0.0029 0.8661 0.9137
C3 C 0.0337(19) 0.7915(12) 1.0501(9)
C4 C 0.148(2) 0.7772(13) 1.1158(9)
H6 H 0.1212 0.7332 1.1786
C5 C 0.297(2) 0.8271(14) 1.0886(9)
C6 C 0.334(2) 0.8934(13) 0.9921(8)
H7 H 0.4338 0.9283 0.9720
C7 C 0.262(3) 0.9821(14) 0.8258(9)
C8 C -0.134(2) 0.7365(14) 1.0807(11)
C9 C -0.386(2) 1.2665(11) 0.5489(8)
C10 C -0.400(2) 1.3488(13) 0.4558(8)
H8 H -0.2956 1.3629 0.4139
C11 C -0.571(2) 1.4073(12) 0.4290(8)
C12 C -0.727(2) 1.3876(13) 0.4912(9)
H9 H -0.8417 1.4278 0.4729
C13 C -0.711(2) 1.3071(13) 0.5808(9)
C14 C -0.5388(19) 1.2507(14) 0.6081(9)
H10 H -0.5298 1.2004 0.6697
C15 C -0.204(2) 1.2041(15) 0.5788(9)
C16 C -0.582(2) 1.4980(13) 0.3317(9)
C17 C -0.381(3) 0.565(2) 0.9697(11)
H11 H -0.3008 0.6176 0.9439
C18 C -0.572(3) 0.485(2) 1.0896(11)
H12 H -0.6343 0.4764 1.1516
C19 C 0.479(2) 0.9447(14) 0.5895(9)
H13 H 0.4676 0.9037 0.6538
C20 C 0.360(2) 1.0854(14) 0.4644(9)
H14 H 0.2644 1.1470 0.4365
Co1_2 Co 1.0885(3) 1.08400(19) 0.64371(11)
Co1_3 Co -0.9115(3) 1.08400(19) 0.64371(11)
Co1A Co 0.9115(3) 0.91600(19) 0.35629(11)
Co2_2 Co -0.3864(3) 1.6290(2) 0.15876(12)
Co2_3 Co 0.6136(3) 0.6290(2) 1.15876(12)
Co2A Co -0.6136(3) 0.3710(2) 0.84124(12)
Co2_4 Co 0.6136(3) 1.6290(2) 0.15876(12)
Co2_5 Co -1.3864(3) 0.6290(2) 1.15876(12)
O1_2 O -0.8512(17) 0.9950(11) 0.7734(6)
O1_3 O 1.1488(17) 0.9950(11) 0.7734(6)
O2_2 O 0.8053(13) 1.1590(10) 0.6668(6)
O3_2 O 1.033(2) 0.8976(12) 0.6459(9)
O4_2 O 0.9367(14) 1.1866(11) 0.5209(6)
O5_2 O -1.2353(18) 0.7515(12) 1.0229(7)
O5_3 O -0.2353(18) 1.7515(12) 0.0229(7)
O6_2 O -1.1593(14) 0.6713(12) 1.1650(7)
O6_3 O -0.1593(14) 1.6713(12) 0.1650(7)
O7_2 O 0.5572(17) 1.5080(10) 0.2807(7)
O7_3 O -0.4428(17) 0.5080(10) 1.2807(7)
O8_2 O -0.6034(18) 1.0245(13) 0.8008(7)
O9_2 O 0.2629(18) 1.5508(11) 0.3064(7)
N1A N 0.6686(16) 0.9683(11) 0.4443(7)
N1_2 N 1.3314(16) 1.0317(11) 0.5557(7)
N2_2 N 0.1319(17) 1.2739(11) 0.6442(8)
N2_3 N 1.1319(17) 1.2739(11) 0.6442(8)
H1_2 H 0.0264 1.3042 0.6263
H1_3 H 1.0264 1.3042 0.6263
H2_2 H 0.1438 1.2238 0.6997
H2_3 H 1.1438 1.2238 0.6997
N3A N -0.5600(18) 0.4537(12) 0.9362(7)
N3_2 N -0.4400(18) 1.5463(12) 0.0638(7)
N4_2 N -0.5821(16) 0.8054(11) 1.1541(6)
N4_3 N -0.5821(16) 1.8054(11) 0.1541(6)
H3_2 H -0.6022 0.7606 1.2113
H3_3 H -0.6022 1.7606 0.2113
H4_2 H -0.4892 0.8371 1.1363
H4_3 H -0.4892 1.8371 0.1363
C1_2 C -0.777(2) 0.9060(13) 0.9282(8)
C2_2 C -0.928(2) 0.8560(13) 0.9571(8)
H5_2 H -1.0029 0.8661 0.9137
C3_2 C -0.9663(19) 0.7915(12) 1.0501(9)
C4_2 C -0.852(2) 0.7772(13) 1.1158(9)
H6_2 H -0.8788 0.7332 1.1786
C5_2 C -0.703(2) 0.8271(14) 1.0886(9)
C6_2 C -0.666(2) 0.8934(13) 0.9921(8)
H7_2 H -0.5662 0.9283 0.9720
C7_2 C -0.738(3) 0.9821(14) 0.8258(9)
C8_2 C -1.134(2) 0.7365(14) 1.0807(11)
C9_2 C 0.614(2) 1.2665(11) 0.5489(8)
C10_2 C 0.600(2) 1.3488(13) 0.4558(8)
H8_2 H 0.7044 1.3629 0.4139
C11_2 C 0.429(2) 1.4073(12) 0.4290(8)
C12_2 C 0.273(2) 1.3876(13) 0.4912(9)
H9_2 H 0.1583 1.4278 0.4729
C13_2 C 0.289(2) 1.3071(13) 0.5808(9)
C14_2 C 0.4612(19) 1.2507(14) 0.6081(9)
H10_2 H 0.4702 1.2004 0.6697
C15_2 C 0.796(2) 1.2041(15) 0.5788(9)
C16_2 C 0.418(2) 1.4980(13) 0.3317(9)
C17A C -0.619(3) 0.435(2) 1.0303(11)
H11A H -0.6992 0.3824 1.0561
C18A C -0.428(3) 0.515(2) 0.9104(11)
H12A H -0.3657 0.5236 0.8484
C19A C 0.521(2) 1.0553(14) 0.4105(9)
H13A H 0.5324 1.0963 0.3462
C20A C 0.640(2) 0.9146(14) 0.5356(9)
H14A H 0.7356 0.8530 0.5635
O10 O 0.749(3) 0.839(2) 0.8003(16)
loop_
_geom_bond_atom_site_label_1
_geom_bond_atom_site_label_2
_geom_bond_site_symmetry_1
_geom_bond_site_symmetry_2
Co1 O1 1_555 1_555
Co2 O5 1_555 1_555
O1 C7 1_555 1_555
O2 Co1 1_555 1_555
O3 Co1 1_555 1_555
O4 Co1 1_555 1_555
O5 C8 1_555 1_555
O6 Co2 1_555 1_555
O7 C16 1_555 1_555
O8 C7 1_555 1_555
O9 C16 1_555 1_555
N1 Co1 1_555 1_555
N2 H1 1_555 1_555
H2 N2 1_555 1_555
N3 Co2 1_555 1_555
N4 H3 1_555 1_555
H4 N4 1_555 1_555
C1 C2 1_555 1_555
C2 H5 1_555 1_555
C3 C2 1_555 1_555
C4 C3 1_555 1_555
H6 C4 1_555 1_555
C5 N4 1_555 1_555
C6 C1 1_555 1_555
H7 C6 1_555 1_555
C7 C1 1_555 1_555
C8 O6 1_555 1_555
C9 C10 1_555 1_555
C10 H8 1_555 1_555
C11 C10 1_555 1_555
C12 C11 1_555 1_555
H9 C12 1_555 1_555
C13 N2 1_555 1_555
C14 C9 1_555 1_555
H10 C14 1_555 1_555
C15 O2 1_555 1_555
C16 C11 1_555 1_555
C17 N3 1_555 1_555
H11 C17 1_555 1_555
C18 N3 1_555 1_555
H12 C18 1_555 1_555
C19 N1 1_555 1_555
H13 C19 1_555 1_555
C20 N1 1_555 1_555
H14 C20 1_555 1_555
Co1_2 O1_3 1_555 1_555
Co1_3 N2 1_555 1_555
Co1A N1A 1_555 1_555
Co2_2 O7 1_555 1_555
Co2_3 N4 1_555 1_555
Co2A N3A 1_555 1_555
Co2_4 O7_2 1_555 1_555
Co2_5 O5_2 1_555 1_555
O1_2 Co1_3 1_555 1_555
O2_2 Co1_2 1_555 1_555
O3_2 Co1_2 1_555 1_555
O4_2 Co1_2 1_555 1_555
O5_2 C8_2 1_555 1_555
O5_3 Co2_2 1_555 1_555
O6_2 Co2_5 1_555 1_555
O6_3 Co2_2 1_555 1_555
O7_2 C16_2 1_555 1_555
O7_3 Co2 1_555 1_555
O8_2 C7_2 1_555 1_555
O9_2 C16_2 1_555 1_555
N1A C19A 1_555 1_555
N1_2 Co1_2 1_555 1_555
N2_2 Co1 1_555 1_555
N2_3 Co1_2 1_555 1_555
H1_2 N2_2 1_555 1_555
H1_3 N2_3 1_555 1_555
H2_2 N2_2 1_555 1_555
H2_3 N2_3 1_555 1_555
N3A C17A 1_555 1_555
N3_2 Co2_2 1_555 1_555
N4_2 Co2 1_555 1_555
N4_3 Co2_2 1_555 1_555
H3_2 N4_2 1_555 1_555
H3_3 N4_3 1_555 1_555
H4_2 N4_2 1_555 1_555
H4_3 N4_3 1_555 1_555
C1_2 C2_2 1_555 1_555
C2_2 H5_2 1_555 1_555
C3_2 C2_2 1_555 1_555
C4_2 C3_2 1_555 1_555
H6_2 C4_2 1_555 1_555
C5_2 N4_2 1_555 1_555
C6_2 C1_2 1_555 1_555
H7_2 C6_2 1_555 1_555
C7_2 O1_2 1_555 1_555
C8_2 O6_2 1_555 1_555
C9_2 C10_2 1_555 1_555
C10_2 H8_2 1_555 1_555
C11_2 C10_2 1_555 1_555
C12_2 C11_2 1_555 1_555
H9_2 C12_2 1_555 1_555
C13_2 N2_2 1_555 1_555
C14_2 C9_2 1_555 1_555
H10_2 C14_2 1_555 1_555
C15_2 O2_2 1_555 1_555
C16_2 C11_2 1_555 1_555
C17A C18 1_555 1_555
H11A C17A 1_555 1_555
C18A C17 1_555 1_555
H12A C18A 1_555 1_555
C19A C20 1_555 1_555
H13A C19A 1_555 1_555
C20A C19 1_555 1_555
H14A C20A 1_555 1_555
O4 C15 1_555 1_555
C3 C8 1_555 1_555
C4 C5 1_555 1_555
C5 C6 1_555 1_555
C9 C15 1_555 1_555
C12 C13 1_555 1_555
C13 C14 1_555 1_555
O4_2 C15_2 1_555 1_555
N1A C20A 1_555 1_555
N3A C18A 1_555 1_555
C1_2 C7_2 1_555 1_555
C3_2 C8_2 1_555 1_555
C4_2 C5_2 1_555 1_555
C5_2 C6_2 1_555 1_555
C9_2 C15_2 1_555 1_555
C12_2 C13_2 1_555 1_555
C13_2 C14_2 1_555 1_555

#END
