
#######################################################################
#
#                 Cambridge Crystallographic Data Centre
#                                CCDC 
#
#######################################################################
#
# If this CIF has been generated from an entry in the Cambridge 
# Structural Database, then it will include bibliographic, chemical, 
# crystal, experimental, refinement or atomic coordinate data resulting 
# from the CCDC's data processing and validation procedures.
#
#######################################################################

data_HUZJES
_symmetry_cell_setting           triclinic
_symmetry_space_group_name_H-M   'P -1'
_symmetry_Int_Tables_number      2
_space_group_name_Hall           '-P 1'
loop_
_symmetry_equiv_pos_site_id
_symmetry_equiv_pos_as_xyz
1 x,y,z
2 -x,-y,-z
_cell_length_a                   7.926(7)
_cell_length_b                   11.097(9)
_cell_length_c                   14.993(12)
_cell_angle_alpha                72.330(10)
_cell_angle_beta                 76.514(10)
_cell_angle_gamma                71.279(11)
_cell_volume                     1176.46
loop_
_atom_site_label
_atom_site_type_symbol
_atom_site_fract_x
_atom_site_fract_y
_atom_site_fract_z
N1 N 0.4223(8) -0.1942(6) 0.1497(4)
H1 H 0.4045 -0.2395 0.2071
H2 H 0.5140 -0.1625 0.1305
Ni1 Ni 0.08997(12) 0.08926(10) -0.36053(6)
Ni2 Ni -0.37428(13) 0.63095(10) -0.85003(7)
O1 O 0.1468(7) -0.0151(5) -0.2299(3)
O2 O -0.1934(6) 0.1610(5) -0.3295(3)
O3 O 0.0343(9) -0.0947(6) -0.3598(5)
O4 O -0.0603(7) 0.1881(6) -0.4773(4)
O5 O -0.4286(7) 0.5094(6) -0.7285(4)
O6 O -0.1575(7) -0.3233(6) 0.1783(4)
O7 O -0.2157(7) -0.2730(6) 0.0347(4)
O8 O 0.3829(8) 0.0308(7) -0.2009(4)
O9 O -0.7313(8) 0.5510(6) -0.6999(4)
N2 N 0.3327(8) 0.0313(6) -0.4429(4)
N3 N -0.8664(8) 0.2721(6) -0.3589(4)
H3 H -0.8549 0.2188 -0.3041
H4 H -0.9708 0.3053 -0.3768
N4 N -0.4518(8) -0.4476(6) 0.0615(4)
C1 C 0.2185(9) -0.0950(7) -0.0730(5)
C2 C 0.0715(9) -0.1488(7) -0.0402(5)
H5 H -0.0044 -0.1409 -0.0817
C3 C 0.0390(9) -0.2141(7) 0.0546(5)
C4 C 0.1516(9) -0.2233(7) 0.1176(5)
H6 H 0.1275 -0.2646 0.1813
C5 C 0.2980(9) -0.1714(7) 0.0853(5)
C6 C 0.3355(10) -0.1095(7) -0.0098(5)
H7 H 0.4368 -0.0779 -0.0318
C7 C 0.2550(11) -0.0208(8) -0.1759(5)
C8 C -0.1186(10) -0.2724(8) 0.0910(5)
C9 C -0.5656(10) 0.4097(7) -0.5757(5)
C10 C -0.3958(10) 0.3492(7) -0.5450(5)
H8 H -0.2913 0.3609 -0.5861
C11 C -0.3855(9) 0.2705(7) -0.4510(5)
C12 C -0.5411(10) 0.2502(7) -0.3901(5)
H9 H -0.5337 0.1994 -0.3283
C13 C -0.7090(9) 0.3063(7) -0.4216(5)
C14 C -0.7180(10) 0.3848(7) -0.5143(5)
H10 H -0.8294 0.4213 -0.5353
C15 C -0.5792(11) 0.4981(7) -0.6756(5)
C16 C -0.2038(9) 0.2042(7) -0.4180(5)
C17 C -0.3833(13) -0.4304(9) -0.0292(6)
H11 H -0.2979 -0.3829 -0.0528
C18 C -0.5680(13) -0.5211(9) 0.0901(6)
H12 H -0.6176 -0.5400 0.1537
C19 C 0.3541(10) 0.0812(8) -0.5363(6)
H13 H 0.2551 0.1383 -0.5642
C20 C 0.4793(11) -0.0505(9) -0.4060(6)
H14 H 0.4703 -0.0875 -0.3411
N1_2 N -0.5777(8) 0.8058(6) -0.8503(4)
N1_3 N -0.5777(8) -0.1942(6) 0.1497(4)
H1_2 H -0.5955 0.7605 -0.7929
H1_3 H -0.5955 -0.2395 0.2071
H2_2 H -0.4860 0.8375 -0.8695
H2_3 H -0.4860 -0.1625 0.1305
Ni1_2 Ni 1.08997(12) 0.08926(10) -0.36053(6)
Ni1_3 Ni -0.91003(12) 0.08926(10) -0.36053(6)
Ni1A Ni 0.91003(12) -0.08926(10) -0.63947(6)
Ni2_2 Ni 0.62572(13) -0.36905(10) 0.14997(7)
Ni2_3 Ni -0.37428(13) -0.36905(10) 0.14997(7)
Ni2_4 Ni 0.62572(13) 0.63095(10) -0.85003(7)
Ni2A Ni -0.62572(13) -0.63095(10) -0.14997(7)
Ni2_5 Ni -1.37428(13) -0.36905(10) 0.14997(7)
O1_2 O 1.1468(7) -0.0151(5) -0.2299(3)
O1_3 O -0.8532(7) -0.0151(5) -0.2299(3)
O2_2 O 0.8066(6) 0.1610(5) -0.3295(3)
O3_2 O 1.0343(9) -0.0947(6) -0.3598(5)
O4_2 O 0.9397(7) 0.1881(6) -0.4773(4)
O5_2 O 0.5714(7) 0.5094(6) -0.7285(4)
O5_3 O -0.4286(7) -0.4906(6) 0.2715(4)
O6_2 O -0.1575(7) 0.6767(6) -0.8217(4)
O6_3 O -1.1575(7) -0.3233(6) 0.1783(4)
O7_2 O -0.2157(7) 0.7270(6) -0.9653(4)
O7_3 O -1.2157(7) -0.2730(6) 0.0347(4)
O8_2 O -0.6171(8) 0.0308(7) -0.2009(4)
O9_2 O 0.2687(8) 0.5510(6) -0.6999(4)
N2A N 0.6673(8) -0.0313(6) -0.5571(4)
N2_2 N 1.3327(8) 0.0313(6) -0.4429(4)
N3_2 N 0.1336(8) 0.2721(6) -0.3589(4)
N3_3 N 1.1336(8) 0.2721(6) -0.3589(4)
H3_2 H 0.1451 0.2188 -0.3041
H3_3 H 1.1451 0.2188 -0.3041
H4_2 H 0.0292 0.3053 -0.3768
H4_3 H 1.0292 0.3053 -0.3768
N4_2 N -0.4518(8) 0.5524(6) -0.9385(4)
N4A N -0.5482(8) -0.5524(6) -0.0615(4)
C1_2 C -0.7815(9) -0.0950(7) -0.0730(5)
C2_2 C -0.9285(9) -0.1488(7) -0.0402(5)
H5_2 H -1.0044 -0.1409 -0.0817
C3_2 C -0.9610(9) -0.2141(7) 0.0546(5)
C4_2 C -0.8484(9) -0.2233(7) 0.1176(5)
H6_2 H -0.8725 -0.2646 0.1813
C5_2 C -0.7020(9) -0.1714(7) 0.0853(5)
C6_2 C -0.6645(10) -0.1095(7) -0.0098(5)
H7_2 H -0.5632 -0.0779 -0.0318
C7_2 C -0.7450(11) -0.0208(8) -0.1759(5)
C8_2 C -1.1186(10) -0.2724(8) 0.0910(5)
C9_2 C 0.4344(10) 0.4097(7) -0.5757(5)
C10_2 C 0.6042(10) 0.3492(7) -0.5450(5)
H8_2 H 0.7087 0.3609 -0.5861
C11_2 C 0.6145(9) 0.2705(7) -0.4510(5)
C12_2 C 0.4589(10) 0.2502(7) -0.3901(5)
H9_2 H 0.4663 0.1994 -0.3283
C13_2 C 0.2910(9) 0.3063(7) -0.4216(5)
C14_2 C 0.2820(10) 0.3848(7) -0.5143(5)
H10_2 H 0.1706 0.4213 -0.5353
C15_2 C 0.4208(11) 0.4981(7) -0.6756(5)
C16_2 C 0.7962(9) 0.2042(7) -0.4180(5)
C17A C -0.6167(13) -0.5696(9) 0.0292(6)
H11A H -0.7021 -0.6171 0.0528
C18A C -0.4320(13) -0.4789(9) -0.0901(6)
H12A H -0.3824 -0.4600 -0.1537
C19A C 0.6459(10) -0.0812(8) -0.4637(6)
H13A H 0.7449 -0.1383 -0.4358
C20A C 0.5207(11) 0.0505(9) -0.5940(6)
H14A H 0.5297 0.0875 -0.6589
loop_
_geom_bond_atom_site_label_1
_geom_bond_atom_site_label_2
_geom_bond_site_symmetry_1
_geom_bond_site_symmetry_2
N1 H1 1_555 1_555
H2 N1 1_555 1_555
Ni1 O1 1_555 1_555
Ni2 O5 1_555 1_555
O1 C7 1_555 1_555
O2 Ni1 1_555 1_555
O3 Ni1 1_555 1_555
O4 Ni1 1_555 1_555
O5 C15 1_555 1_555
O6 C8 1_555 1_555
O7 C8 1_555 1_555
O8 C7 1_555 1_555
O9 C15 1_555 1_555
N2 Ni1 1_555 1_555
N3 H3 1_555 1_555
H4 N3 1_555 1_555
N4 C17 1_555 1_555
C1 C2 1_555 1_555
C2 H5 1_555 1_555
C3 C2 1_555 1_555
C4 C3 1_555 1_555
H6 C4 1_555 1_555
C5 N1 1_555 1_555
C6 C1 1_555 1_555
H7 C6 1_555 1_555
C7 C1 1_555 1_555
C8 C3 1_555 1_555
C9 C10 1_555 1_555
C10 H8 1_555 1_555
C11 C10 1_555 1_555
C12 C11 1_555 1_555
H9 C12 1_555 1_555
C13 N3 1_555 1_555
C14 C9 1_555 1_555
H10 C14 1_555 1_555
C15 C9 1_555 1_555
C16 O2 1_555 1_555
C17 H11 1_555 1_555
C18 N4 1_555 1_555
H12 C18 1_555 1_555
C19 N2 1_555 1_555
H13 C19 1_555 1_555
C20 N2 1_555 1_555
H14 C20 1_555 1_555
N1_2 Ni2 1_555 1_555
N1_3 H1_3 1_555 1_555
H1_2 N1_2 1_555 1_555
H2_2 N1_2 1_555 1_555
H2_3 N1_3 1_555 1_555
Ni1_2 O1_2 1_555 1_555
Ni1_3 N3 1_555 1_555
Ni1A N2A 1_555 1_555
Ni2_2 N1 1_555 1_555
Ni2_3 O6 1_555 1_555
Ni2_4 O5_2 1_555 1_555
Ni2A N4A 1_555 1_555
Ni2_5 O6_3 1_555 1_555
O1_3 Ni1_3 1_555 1_555
O2_2 Ni1_2 1_555 1_555
O3_2 Ni1_2 1_555 1_555
O4_2 Ni1_2 1_555 1_555
O5_2 C15_2 1_555 1_555
O5_3 Ni2_3 1_555 1_555
O6_2 Ni2 1_555 1_555
O6_3 C8_2 1_555 1_555
O7_2 Ni2 1_555 1_555
O7_3 Ni2_5 1_555 1_555
O8_2 C7_2 1_555 1_555
O9_2 C15_2 1_555 1_555
N2A C19A 1_555 1_555
N2_2 Ni1_2 1_555 1_555
N3_2 Ni1 1_555 1_555
N3_3 Ni1_2 1_555 1_555
H3_2 N3_2 1_555 1_555
H3_3 N3_3 1_555 1_555
H4_2 N3_2 1_555 1_555
H4_3 N3_3 1_555 1_555
N4_2 Ni2 1_555 1_555
N4A C17A 1_555 1_555
C1_2 C2_2 1_555 1_555
C2_2 H5_2 1_555 1_555
C3_2 C2_2 1_555 1_555
C4_2 C3_2 1_555 1_555
H6_2 C4_2 1_555 1_555
C5_2 N1_3 1_555 1_555
C6_2 C1_2 1_555 1_555
H7_2 C6_2 1_555 1_555
C7_2 O1_3 1_555 1_555
C8_2 O7_3 1_555 1_555
C9_2 C10_2 1_555 1_555
C10_2 H8_2 1_555 1_555
C11_2 C10_2 1_555 1_555
C12_2 C11_2 1_555 1_555
H9_2 C12_2 1_555 1_555
C13_2 N3_2 1_555 1_555
C14_2 C9_2 1_555 1_555
H10_2 C14_2 1_555 1_555
C15_2 C9_2 1_555 1_555
C16_2 O2_2 1_555 1_555
C17A C18 1_555 1_555
H11A C17A 1_555 1_555
C18A C17 1_555 1_555
H12A C18A 1_555 1_555
C19A C20 1_555 1_555
H13A C19A 1_555 1_555
C20A C19 1_555 1_555
H14A C20A 1_555 1_555
O4 C16 1_555 1_555
O7 Ni2_3 1_555 1_555
N4 Ni2_3 1_555 1_555
C4 C5 1_555 1_555
C5 C6 1_555 1_555
C11 C16 1_555 1_555
C12 C13 1_555 1_555
C13 C14 1_555 1_555
N1_3 Ni2_3 1_555 1_555
O4_2 C16_2 1_555 1_555
N2A C20A 1_555 1_555
N4A C18A 1_555 1_555
C1_2 C7_2 1_555 1_555
C3_2 C8_2 1_555 1_555
C4_2 C5_2 1_555 1_555
C5_2 C6_2 1_555 1_555
C11_2 C16_2 1_555 1_555
C12_2 C13_2 1_555 1_555
C13_2 C14_2 1_555 1_555

#END
