
#######################################################################
#
#                 Cambridge Crystallographic Data Centre
#                                CCDC 
#
#######################################################################
#
# If this CIF has been generated from an entry in the Cambridge 
# Structural Database, then it will include bibliographic, chemical, 
# crystal, experimental, refinement or atomic coordinate data resulting 
# from the CCDC's data processing and validation procedures.
#
#######################################################################

data_HUZNIA
_symmetry_cell_setting           triclinic
_symmetry_space_group_name_H-M   'P -1'
_symmetry_Int_Tables_number      2
_space_group_name_Hall           '-P 1'
loop_
_symmetry_equiv_pos_site_id
_symmetry_equiv_pos_as_xyz
1 x,y,z
2 -x,-y,-z
_cell_length_a                   8.3210(17)
_cell_length_b                   10.561(2)
_cell_length_c                   12.470(3)
_cell_angle_alpha                108.65(3)
_cell_angle_beta                 100.27(3)
_cell_angle_gamma                108.03(3)
_cell_volume                     939.396
loop_
_atom_site_label
_atom_site_type_symbol
_atom_site_fract_x
_atom_site_fract_y
_atom_site_fract_z
N1 N 1.0470(2) 0.3869(2) 1.33931(16)
C1 C 1.2075(3) 0.2604(3) 1.2437(2)
H1 H 1.3110 0.2431 1.2480
C2 C 0.9113(3) 0.3167(2) 1.23844(19)
H2 H 0.8092 0.3357 1.2368
C3 C 1.0657(3) 0.1851(3) 1.1403(2)
H3 H 1.0706 0.1145 1.0749
C4 C 0.9158(3) 0.2170(2) 1.13613(19)
Co1 Co 0.0000 0.0000 0.5000
Co2 Co 0.0000 0.5000 0.5000
O1 O 0.19339(19) 0.45410(15) 0.59869(13)
O2 O 0.23645(19) 0.01097(17) 0.46163(14)
O3 O 0.4531(2) 0.13054(19) 0.40560(14)
O4 O 0.1968(2) 0.69863(18) 0.53635(17)
H4 H 0.1512 0.7511 0.5193
O5 O 0.0653(2) 0.21421(16) 0.52590(14)
N2 N 0.6104(3) 0.0377(2) 0.84674(17)
N3 N 0.1180(2) 0.0656(2) 0.68838(15)
N4 N 0.6202(2) 0.1844(2) 1.01943(16)
C5 C 0.3688(3) 0.3347(2) 0.65234(18)
C6 C 0.4492(3) 0.2426(2) 0.60252(18)
N5 N 0.7669(3) 0.0628(2) 0.92333(16)
C7 C 0.3711(3) 0.1200(2) 0.47956(18)
C8 C 0.3574(3) 0.1174(2) 0.85452(19)
C9 C 0.1965(3) 0.3335(2) 0.58719(18)
C10 C 0.2669(3) 0.0526(2) 0.73417(19)
H5 H 0.3115 -0.0025 0.6829
C11 C 0.6895(3) 0.3556(3) 0.7864(2)
H6 H 0.7962 0.3621 0.8311
C12 C 0.5262(3) 0.1108(2) 0.90547(19)
C13 C 1.1945(3) 0.3606(3) 1.3397(2)
H7 H 1.2921 0.4126 1.4080
C14 C 0.6119(3) 0.2567(3) 0.6699(2)
H8 H 0.6686 0.1986 0.6356
C15 C 0.7654(3) 0.1515(2) 1.02536(19)
C16 C 0.0548(3) 0.1439(3) 0.7632(2)
H9 H -0.0489 0.1535 0.7323
C17 C 0.4516(3) 0.4365(3) 0.7691(2)
H10 H 0.4005 0.5001 0.8023
C18 C 0.2900(3) 0.1980(3) 0.9307(2)
H11 H 0.3478 0.2428 1.0122
C19 C 0.1366(3) 0.2110(3) 0.8844(2)
H12 H 0.0885 0.2643 0.9340
C20 C 0.6085(3) 0.4451(3) 0.8369(2)
H13 H 0.6592 0.5107 0.9160
H14 H 0.587(4) -0.011(3) 0.769(3)
H15 H 0.304(5) 0.735(4) 0.544(3)
N1A N -1.0470(2) -0.3869(2) -0.33931(16)
N1_2 N 0.0470(2) 0.3869(2) 0.33931(16)
N1A_2 N -0.0470(2) 0.6131(2) 0.66069(16)
C1A C -1.2075(3) -0.2604(3) -0.2437(2)
H1A H -1.3110 -0.2431 -0.2480
C2A C -0.9113(3) -0.3167(2) -0.23844(19)
H2A H -0.8092 -0.3357 -0.2368
C3A C -1.0657(3) -0.1851(3) -0.1403(2)
H3A H -1.0706 -0.1145 -0.0749
C4A C -0.9158(3) -0.2170(2) -0.13613(19)
Co2_2 Co -1.0000 -0.5000 -0.5000
Co2_3 Co 0.0000 -0.5000 0.5000
Co2_4 Co 1.0000 0.5000 1.5000
O1A O -0.19339(19) -0.45410(15) 0.40131(13)
O1A_2 O -0.19339(19) 0.54590(15) 0.40131(13)
O2A O -0.23645(19) -0.01097(17) 0.53837(14)
O3A O -0.4531(2) -0.13054(19) 0.59440(14)
O4A O -0.1968(2) 0.30137(18) 0.46365(17)
H4A H -0.1512 0.2489 0.4807
O5A O -0.0653(2) -0.21421(16) 0.47410(14)
N2A N -0.6104(3) -0.0377(2) 0.15326(17)
N3A N -0.1180(2) -0.0656(2) 0.31162(15)
N4A N -0.6202(2) -0.1844(2) -0.01943(16)
C5A C -0.3688(3) -0.3347(2) 0.34766(18)
C6A C -0.4492(3) -0.2426(2) 0.39748(18)
N5A N -0.7669(3) -0.0628(2) 0.07667(16)
C7A C -0.3711(3) -0.1200(2) 0.52044(18)
C8A C -0.3574(3) -0.1174(2) 0.14548(19)
C9A C -0.1965(3) -0.3335(2) 0.41281(18)
C10A C -0.2669(3) -0.0526(2) 0.26583(19)
H5A H -0.3115 0.0025 0.3171
C11A C -0.6895(3) -0.3556(3) 0.2136(2)
H6A H -0.7962 -0.3621 0.1689
C12A C -0.5262(3) -0.1108(2) 0.09453(19)
C13A C -1.1945(3) -0.3606(3) -0.3397(2)
H7A H -1.2921 -0.4126 -0.4080
C14A C -0.6119(3) -0.2567(3) 0.3301(2)
H8A H -0.6686 -0.1986 0.3644
C15A C -0.7654(3) -0.1515(2) -0.02536(19)
C16A C -0.0548(3) -0.1439(3) 0.2368(2)
H9A H 0.0489 -0.1535 0.2677
C17A C -0.4516(3) -0.4365(3) 0.2309(2)
H10A H -0.4005 -0.5001 0.1977
C18A C -0.2900(3) -0.1980(3) 0.0693(2)
H11A H -0.3478 -0.2428 -0.0122
C19A C -0.1366(3) -0.2110(3) 0.1156(2)
H12A H -0.0885 -0.2643 0.0660
C20A C -0.6085(3) -0.4451(3) 0.1631(2)
H13A H -0.6592 -0.5107 0.0840
H14A H -0.587(4) 0.011(3) 0.231(3)
H15A H -0.304(5) 0.265(4) 0.456(3)
loop_
_geom_bond_atom_site_label_1
_geom_bond_atom_site_label_2
_geom_bond_site_symmetry_1
_geom_bond_site_symmetry_2
N1 C2 1_555 1_555
C1 H1 1_555 1_555
C2 H2 1_555 1_555
C3 C1 1_555 1_555
H3 C3 1_555 1_555
C4 C2 1_555 1_555
Co1 O2 1_555 1_555
Co2 O1 1_555 1_555
O1 C9 1_555 1_555
O2 C7 1_555 1_555
O3 C7 1_555 1_555
O4 Co2 1_555 1_555
H4 O4 1_555 1_555
O5 Co1 1_555 1_555
N2 N5 1_555 1_555
N3 Co1 1_555 1_555
N4 C12 1_555 1_555
C5 C6 1_555 1_555
C6 C7 1_555 1_555
N5 C15 1_555 1_555
C8 C10 1_555 1_555
C9 O5 1_555 1_555
C10 N3 1_555 1_555
H5 C10 1_555 1_555
C11 H6 1_555 1_555
C12 N2 1_555 1_555
C13 N1 1_555 1_555
H7 C13 1_555 1_555
C14 C6 1_555 1_555
H8 C14 1_555 1_555
C15 C4 1_555 1_555
C16 N3 1_555 1_555
H9 C16 1_555 1_555
C17 C5 1_555 1_555
H10 C17 1_555 1_555
C18 C8 1_555 1_555
H11 C18 1_555 1_555
C19 C16 1_555 1_555
H12 C19 1_555 1_555
C20 C11 1_555 1_555
H13 C20 1_555 1_555
H14 N2 1_555 1_555
H15 O4 1_555 1_555
N1A C2A 1_555 1_555
N1_2 Co2 1_555 1_555
N1A_2 Co2 1_555 1_555
C1A H1A 1_555 1_555
C2A H2A 1_555 1_555
C3A C1A 1_555 1_555
H3A C3A 1_555 1_555
C4A C2A 1_555 1_555
Co2_2 N1A 1_555 1_555
Co2_3 O1A 1_555 1_555
Co2_4 N1 1_555 1_555
O1A C9A 1_555 1_555
O1A_2 Co2 1_555 1_555
O2A Co1 1_555 1_555
O3A C7A 1_555 1_555
O4A Co2 1_555 1_555
H4A O4A 1_555 1_555
O5A Co1 1_555 1_555
N2A N5A 1_555 1_555
N3A Co1 1_555 1_555
N4A C12A 1_555 1_555
C5A C6A 1_555 1_555
C6A C7A 1_555 1_555
N5A C15A 1_555 1_555
C7A O2A 1_555 1_555
C8A C10A 1_555 1_555
C9A O5A 1_555 1_555
C10A N3A 1_555 1_555
H5A C10A 1_555 1_555
C11A H6A 1_555 1_555
C12A N2A 1_555 1_555
C13A N1A 1_555 1_555
H7A C13A 1_555 1_555
C14A C6A 1_555 1_555
H8A C14A 1_555 1_555
C15A C4A 1_555 1_555
C16A N3A 1_555 1_555
H9A C16A 1_555 1_555
C17A C5A 1_555 1_555
H10A C17A 1_555 1_555
C18A C8A 1_555 1_555
H11A C18A 1_555 1_555
C19A C16A 1_555 1_555
H12A C19A 1_555 1_555
C20A C11A 1_555 1_555
H13A C20A 1_555 1_555
H14A N2A 1_555 1_555
H15A O4A 1_555 1_555
C1 C13 1_555 1_555
C3 C4 1_555 1_555
N4 C15 1_555 1_555
C5 C9 1_555 1_555
C8 C12 1_555 1_555
C11 C14 1_555 1_555
C17 C20 1_555 1_555
C18 C19 1_555 1_555
C1A C13A 1_555 1_555
C3A C4A 1_555 1_555
N4A C15A 1_555 1_555
C5A C9A 1_555 1_555
C8A C12A 1_555 1_555
C11A C14A 1_555 1_555
C17A C20A 1_555 1_555
C18A C19A 1_555 1_555

#END
