
#######################################################################
#
#                 Cambridge Crystallographic Data Centre
#                                CCDC 
#
#######################################################################
#
# If this CIF has been generated from an entry in the Cambridge 
# Structural Database, then it will include bibliographic, chemical, 
# crystal, experimental, refinement or atomic coordinate data resulting 
# from the CCDC's data processing and validation procedures.
#
#######################################################################

data_HUZNOG
_symmetry_cell_setting           triclinic
_symmetry_space_group_name_H-M   'P -1'
_symmetry_Int_Tables_number      2
_space_group_name_Hall           '-P 1'
loop_
_symmetry_equiv_pos_site_id
_symmetry_equiv_pos_as_xyz
1 x,y,z
2 -x,-y,-z
_cell_length_a                   8.1510(16)
_cell_length_b                   10.740(2)
_cell_length_c                   12.808(3)
_cell_angle_alpha                105.81(3)
_cell_angle_beta                 95.87(3)
_cell_angle_gamma                111.27(3)
_cell_volume                     979.717
loop_
_atom_site_label
_atom_site_type_symbol
_atom_site_fract_x
_atom_site_fract_y
_atom_site_fract_z
Co1 Co 0.5000 0.5000 0.5000
Co2 Co 0.0000 0.0000 0.5000
Cl1 Cl -0.5298(4) 0.0164(4) 0.2227(3)
O1 O 0.4570(7) 0.6537(5) 0.4322(4)
O2 O 0.1736(6) 0.1790(5) 0.4608(4)
O3 O 0.2800(6) 0.3417(5) 0.3807(4)
O4 O -0.2174(7) 0.0425(5) 0.4602(4)
N1 N 0.6711(8) 0.4769(5) 0.3821(4)
N2 N 1.1834(9) 0.4686(7) 0.1808(5)
N3 N 0.9459(8) 0.3620(6) 0.0433(5)
O5 O -0.2574(8) 0.2342(6) 0.4558(5)
C1 C 0.0022(10) 0.1551(7) 0.2894(6)
C2 C 1.0050(10) 0.4273(7) 0.1532(6)
C3 C 1.0894(11) 0.2942(8) -0.1083(6)
C4 C 0.1648(10) 0.2273(7) 0.3850(5)
N4 N 1.2479(9) 0.4292(7) 0.0889(5)
C5 C 1.0995(11) 0.3667(7) 0.0096(6)
C6 C 1.2370(12) 0.2852(8) -0.1487(6)
H1 H 1.3516 0.3289 -0.1020
N5 N 1.0509(9) 0.1442(6) -0.3315(5)
C7 C -0.1745(10) 0.1156(7) 0.3044(6)
C8 C 0.8899(11) 0.4465(7) 0.2307(6)
C9 C 0.9604(10) 0.5146(8) 0.3426(6)
H2 H 1.0845 0.5521 0.3705
C10 C 0.7056(12) 0.3929(8) 0.1941(6)
H3 H 0.6516 0.3464 0.1188
C11 C 1.2113(11) 0.2099(8) -0.2599(6)
H4 H 1.3117 0.2047 -0.2862
C12 C -0.2189(10) 0.1328(7) 0.4167(7)
C13 C 0.9271(11) 0.2308(8) -0.1826(6)
H5 H 0.8251 0.2368 -0.1592
C14 C 0.8479(10) 0.5273(7) 0.4131(6)
H6 H 0.9003 0.5750 0.4885
C15 C 0.6026(11) 0.4097(8) 0.2715(6)
H7 H 0.4780 0.3723 0.2460
C16 C 0.0383(12) 0.1347(8) 0.1816(6)
H8 H 0.1563 0.1610 0.1722
C17 C 0.9129(11) 0.1589(8) -0.2906(6)
H9 H 0.8000 0.1176 -0.3389
C18 C -0.1069(14) 0.0742(9) 0.0902(7)
H10 H -0.0857 0.0599 0.0188
C19 C -0.2800(14) 0.0358(9) 0.1044(7)
H11 H -0.3761 -0.0054 0.0427
C20 C -0.3122(11) 0.0578(8) 0.2091(8)
H12 H 0.5710 0.6968 0.4543
H13 H 1.2470 0.5131 0.2427
H14 H 0.4095 0.7069 0.4670
Co1_2 Co -0.5000 -0.5000 0.5000
Co2_2 Co 0.0000 1.0000 1.5000
Co2_3 Co 1.0000 0.0000 -0.5000
Cl1A Cl 0.5298(4) -0.0164(4) 0.7773(3)
O1A O 0.5430(7) 0.3463(5) 0.5678(4)
O2A O -0.1736(6) -0.1790(5) 0.5392(4)
O3A O -0.2800(6) -0.3417(5) 0.6193(4)
O3A_2 O 0.7200(6) 0.6583(5) 0.6193(4)
O4A O 0.2174(7) -0.0425(5) 0.5398(4)
N1A N 0.3289(8) 0.5231(5) 0.6179(4)
N2A N -0.1834(9) 0.5314(7) 0.8192(5)
N3A N 0.0541(8) 0.6380(6) 0.9567(5)
O5A O 0.2574(8) -0.2342(6) 0.5442(5)
C1A C -0.0022(10) -0.1551(7) 0.7106(6)
C2A C -0.0050(10) 0.5727(7) 0.8468(6)
C3A C -0.0894(11) 0.7058(8) 1.1083(6)
C4A C -0.1648(10) -0.2273(7) 0.6150(5)
N4A N -0.2479(9) 0.5708(7) 0.9111(5)
C5A C -0.0995(11) 0.6333(7) 0.9904(6)
C6A C -0.2370(12) 0.7148(8) 1.1487(6)
H1A H -0.3516 0.6711 1.1020
N5A N -0.0509(9) 0.8558(6) 1.3315(5)
N5_2 N 0.0509(9) 0.1442(6) 0.6685(5)
N5A_2 N -0.0509(9) -0.1442(6) 0.3315(5)
C7A C 0.1745(10) -0.1156(7) 0.6956(6)
C8A C 0.1101(11) 0.5535(7) 0.7693(6)
C9A C 0.0396(10) 0.4854(8) 0.6574(6)
H2A H -0.0845 0.4479 0.6295
C10A C 0.2944(12) 0.6071(8) 0.8059(6)
H3A H 0.3484 0.6536 0.8812
C11A C -0.2113(11) 0.7901(8) 1.2599(6)
H4A H -0.3117 0.7953 1.2862
C12A C 0.2189(10) -0.1328(7) 0.5833(7)
C13A C 0.0729(11) 0.7692(8) 1.1826(6)
H5A H 0.1749 0.7632 1.1592
C14A C 0.1521(10) 0.4727(7) 0.5869(6)
H6A H 0.0997 0.4250 0.5115
C15A C 0.3974(11) 0.5903(8) 0.7285(6)
H7A H 0.5220 0.6277 0.7540
C16A C -0.0383(12) -0.1347(8) 0.8184(6)
H8A H -0.1563 -0.1610 0.8278
C17A C 0.0871(11) 0.8411(8) 1.2906(6)
H9A H 0.2000 0.8824 1.3389
C18A C 0.1069(14) -0.0742(9) 0.9098(7)
H10A H 0.0857 -0.0599 0.9812
C19A C 0.2800(14) -0.0358(9) 0.8956(7)
H11A H 0.3761 0.0054 0.9573
C20A C 0.3122(11) -0.0578(8) 0.7909(8)
H12A H 0.4290 0.3032 0.5457
H13A H -0.2470 0.4869 0.7573
H14A H 0.5905 0.2931 0.5330
loop_
_geom_bond_atom_site_label_1
_geom_bond_atom_site_label_2
_geom_bond_site_symmetry_1
_geom_bond_site_symmetry_2
Co1 O1 1_555 1_555
Co2 O2 1_555 1_555
Cl1 C20 1_555 1_555
O1 H12 1_555 1_555
O2 C4 1_555 1_555
O3 Co1 1_555 1_555
O4 Co2 1_555 1_555
N1 Co1 1_555 1_555
N2 C2 1_555 1_555
N3 C2 1_555 1_555
O5 C12 1_555 1_555
C1 C4 1_555 1_555
C2 C8 1_555 1_555
C3 C5 1_555 1_555
C4 O3 1_555 1_555
N4 N2 1_555 1_555
C5 N3 1_555 1_555
C6 C3 1_555 1_555
H1 C6 1_555 1_555
N5 C11 1_555 1_555
C7 C1 1_555 1_555
C8 C9 1_555 1_555
C9 H2 1_555 1_555
C10 C8 1_555 1_555
H3 C10 1_555 1_555
C11 C6 1_555 1_555
H4 C11 1_555 1_555
C12 O4 1_555 1_555
C13 C3 1_555 1_555
H5 C13 1_555 1_555
C14 N1 1_555 1_555
H6 C14 1_555 1_555
C15 N1 1_555 1_555
H7 C15 1_555 1_555
C16 C1 1_555 1_555
H8 C16 1_555 1_555
C17 N5 1_555 1_555
H9 C17 1_555 1_555
C18 C16 1_555 1_555
H10 C18 1_555 1_555
C19 C18 1_555 1_555
H11 C19 1_555 1_555
C20 C7 1_555 1_555
H13 N2 1_555 1_555
H14 O1 1_555 1_555
Co1_2 O3A 1_555 1_555
Co2_2 N5A 1_555 1_555
Co2_3 N5 1_555 1_555
Cl1A C20A 1_555 1_555
O1A Co1 1_555 1_555
O2A Co2 1_555 1_555
O3A C4A 1_555 1_555
O3A_2 Co1 1_555 1_555
O4A Co2 1_555 1_555
N1A Co1 1_555 1_555
N2A C2A 1_555 1_555
N3A C2A 1_555 1_555
O5A C12A 1_555 1_555
C1A C4A 1_555 1_555
C2A C8A 1_555 1_555
C3A C5A 1_555 1_555
C4A O2A 1_555 1_555
N4A N2A 1_555 1_555
C5A N3A 1_555 1_555
C6A C3A 1_555 1_555
H1A C6A 1_555 1_555
N5A C11A 1_555 1_555
N5_2 Co2 1_555 1_555
N5A_2 Co2 1_555 1_555
C7A C1A 1_555 1_555
C8A C9A 1_555 1_555
C9A H2A 1_555 1_555
C10A C8A 1_555 1_555
H3A C10A 1_555 1_555
C11A C6A 1_555 1_555
H4A C11A 1_555 1_555
C12A O4A 1_555 1_555
C13A C3A 1_555 1_555
H5A C13A 1_555 1_555
C14A N1A 1_555 1_555
H6A C14A 1_555 1_555
C15A N1A 1_555 1_555
H7A C15A 1_555 1_555
C16A C1A 1_555 1_555
H8A C16A 1_555 1_555
C17A N5A 1_555 1_555
H9A C17A 1_555 1_555
C18A C16A 1_555 1_555
H10A C18A 1_555 1_555
C19A C18A 1_555 1_555
H11A C19A 1_555 1_555
C20A C7A 1_555 1_555
H12A O1A 1_555 1_555
H13A N2A 1_555 1_555
H14A O1A 1_555 1_555
N4 C5 1_555 1_555
C7 C12 1_555 1_555
C9 C14 1_555 1_555
C10 C15 1_555 1_555
C13 C17 1_555 1_555
C19 C20 1_555 1_555
N4A C5A 1_555 1_555
C7A C12A 1_555 1_555
C9A C14A 1_555 1_555
C10A C15A 1_555 1_555
C13A C17A 1_555 1_555
C19A C20A 1_555 1_555

#END
