
#######################################################################
#
#                 Cambridge Crystallographic Data Centre
#                                CCDC 
#
#######################################################################
#
# If this CIF has been generated from an entry in the Cambridge 
# Structural Database, then it will include bibliographic, chemical, 
# crystal, experimental, refinement or atomic coordinate data resulting 
# from the CCDC's data processing and validation procedures.
#
#######################################################################

data_HUZNUM
_symmetry_cell_setting           monoclinic
_symmetry_space_group_name_H-M   'P 21/n'
_symmetry_Int_Tables_number      14
_space_group_name_Hall           '-P 2yn'
loop_
_symmetry_equiv_pos_site_id
_symmetry_equiv_pos_as_xyz
1 x,y,z
2 1/2-x,1/2+y,1/2-z
3 -x,-y,-z
4 1/2+x,1/2-y,1/2+z
_cell_length_a                   7.7030(15)
_cell_length_b                   19.216(4)
_cell_length_c                   12.647(3)
_cell_angle_alpha                90
_cell_angle_beta                 97.33(3)
_cell_angle_gamma                90
_cell_volume                     1856.72
loop_
_atom_site_label
_atom_site_type_symbol
_atom_site_fract_x
_atom_site_fract_y
_atom_site_fract_z
N1 N 1.0443(5) 0.0259(2) 0.8177(3)
C1 C 1.0476(6) -0.0330(3) 0.7615(4)
H1 H 1.1151 -0.0697 0.7919
C2 C 0.9568(6) -0.0427(3) 0.6610(4)
H2 H 0.9631 -0.0848 0.6257
C3 C 0.8563(6) 0.0114(3) 0.6139(4)
O1 O 0.7326(4) 0.04392(16) -0.0091(3)
O2 O 0.9833(4) 0.10343(17) 0.0077(3)
C4 C 0.8186(7) 0.0993(3) 0.0000(3)
Co1 Co 0.19404(9) 0.05286(3) -0.02974(5)
Cl1 Cl 0.2906(2) 0.26225(10) -0.12386(15)
O3 O 0.5499(5) 0.1275(2) -0.2224(3)
N2 N 0.3202(5) 0.0939(2) 0.1188(3)
N3 N 0.6224(5) -0.0300(2) 0.3653(3)
N4 N 0.6695(5) 0.0633(2) 0.4623(3)
C5 C 0.5627(6) 0.1785(3) -0.0544(4)
C6 C 0.4220(6) 0.0556(3) 0.1905(4)
H3 H 0.4564 0.0115 0.1710
N5 N 0.7282(5) -0.0516(2) 0.4535(3)
C7 C 0.4820(7) 0.1286(3) -0.1396(4)
C8 C 0.7518(6) 0.0068(3) 0.5085(4)
C9 C 0.8539(6) 0.0729(3) 0.6703(4)
H4 H 0.7885 0.1106 0.6413
C10 C 0.4781(6) 0.0796(3) 0.2930(4)
C11 C 0.5882(6) 0.0380(3) 0.3722(4)
C12 C 0.9495(7) 0.0779(3) 0.7703(4)
H5 H 0.9477 0.1199 0.8065
O4 O 0.3533(5) 0.0924(2) -0.1229(3)
C13 C 0.4833(7) 0.2427(3) -0.0433(4)
C14 C 0.4281(7) 0.1454(3) 0.3205(4)
H6 H 0.4615 0.1623 0.3889
C15 C 0.5563(8) 0.2924(3) 0.0281(5)
H7 H 0.5006 0.3350 0.0336
C16 C 0.2789(7) 0.1582(3) 0.1462(4)
H8 H 0.2134 0.1859 0.0955
C17 C 0.7109(9) 0.2786(3) 0.0905(5)
H9 H 0.7595 0.3112 0.1399
C18 C 0.7223(6) 0.1663(2) 0.0083(4)
C19 C 0.7936(7) 0.2166(3) 0.0797(4)
H10 H 0.9000 0.2078 0.1211
C20 C 0.3287(7) 0.1857(3) 0.2463(4)
H11 H 0.2957 0.2305 0.2631
H12 H 0.582(6) -0.059(3) 0.317(4)
N1B N -0.0443(5) -0.0259(2) -0.8177(3)
N1_2 N 0.0443(5) 0.0259(2) -0.1823(3)
N1B_2 N 0.9557(5) -0.0259(2) 0.1823(3)
C1B C -0.0476(6) 0.0330(3) -0.7615(4)
H1B H -0.1151 0.0697 -0.7919
C2B C 0.0432(6) 0.0427(3) -0.6610(4)
H2B H 0.0369 0.0848 -0.6257
C3B C 0.1437(6) -0.0114(3) -0.6139(4)
O1B O 0.2674(4) -0.04392(16) 0.0091(3)
O2B O 0.0167(4) -0.10343(17) -0.0077(3)
O2_2 O -0.0167(4) 0.10343(17) 0.0077(3)
O2B_2 O 1.0167(4) -0.10343(17) -0.0077(3)
C4B C 0.1814(7) -0.0993(3) 0.0000(3)
Co1B Co 0.80596(9) -0.05286(3) 0.02974(5)
Co1_2 Co 1.19404(9) 0.05286(3) -0.02974(5)
Co1_3 Co 1.19404(9) 0.05286(3) 0.97026(5)
Co1B_2 Co -0.19404(9) -0.05286(3) -0.97026(5)
Co1B_3 Co -0.19404(9) -0.05286(3) 0.02974(5)
Cl1B Cl 0.7094(2) -0.26225(10) 0.12386(15)
O3B O 0.4501(5) -0.1275(2) 0.2224(3)
N2B N 0.6798(5) -0.0939(2) -0.1188(3)
N3B N 0.3776(5) 0.0300(2) -0.3653(3)
N4B N 0.3305(5) -0.0633(2) -0.4623(3)
C5B C 0.4373(6) -0.1785(3) 0.0544(4)
C6B C 0.5780(6) -0.0556(3) -0.1905(4)
H3B H 0.5436 -0.0115 -0.1710
N5B N 0.2718(5) 0.0516(2) -0.4535(3)
C7B C 0.5180(7) -0.1286(3) 0.1396(4)
C8B C 0.2482(6) -0.0068(3) -0.5085(4)
C9B C 0.1461(6) -0.0729(3) -0.6703(4)
H4B H 0.2115 -0.1106 -0.6413
C10B C 0.5219(6) -0.0796(3) -0.2930(4)
C11B C 0.4118(6) -0.0380(3) -0.3722(4)
C12B C 0.0505(7) -0.0779(3) -0.7703(4)
H5B H 0.0523 -0.1199 -0.8065
O4B O 0.6467(5) -0.0924(2) 0.1229(3)
C13B C 0.5167(7) -0.2427(3) 0.0433(4)
C14B C 0.5719(7) -0.1454(3) -0.3205(4)
H6B H 0.5385 -0.1623 -0.3889
C15B C 0.4437(8) -0.2924(3) -0.0281(5)
H7B H 0.4994 -0.3350 -0.0336
C16B C 0.7211(7) -0.1582(3) -0.1462(4)
H8B H 0.7866 -0.1859 -0.0955
C17B C 0.2891(9) -0.2786(3) -0.0905(5)
H9B H 0.2405 -0.3112 -0.1399
C18B C 0.2777(6) -0.1663(2) -0.0083(4)
C19B C 0.2064(7) -0.2166(3) -0.0797(4)
H10B H 0.1000 -0.2078 -0.1211
C20B C 0.6713(7) -0.1857(3) -0.2463(4)
H11B H 0.7043 -0.2305 -0.2631
H12B H 0.418(6) 0.059(3) -0.317(4)
loop_
_geom_bond_atom_site_label_1
_geom_bond_atom_site_label_2
_geom_bond_site_symmetry_1
_geom_bond_site_symmetry_2
N1 C1 1_555 1_555
C1 H1 1_555 1_555
C2 C1 1_555 1_555
H2 C2 1_555 1_555
C3 C2 1_555 1_555
O1 C4 1_555 1_555
O2 C4 1_555 1_555
C4 C18 1_555 1_555
Co1 N2 1_555 1_555
Cl1 C13 1_555 1_555
O3 C7 1_555 1_555
N2 C6 1_555 1_555
N3 N5 1_555 1_555
N4 C8 1_555 1_555
C5 C7 1_555 1_555
C6 H3 1_555 1_555
N5 C8 1_555 1_555
C7 O4 1_555 1_555
C8 C3 1_555 1_555
C9 C3 1_555 1_555
H4 C9 1_555 1_555
C10 C6 1_555 1_555
C11 N3 1_555 1_555
C12 N1 1_555 1_555
H5 C12 1_555 1_555
O4 Co1 1_555 1_555
C13 C5 1_555 1_555
C14 C10 1_555 1_555
H6 C14 1_555 1_555
C15 C13 1_555 1_555
H7 C15 1_555 1_555
C16 N2 1_555 1_555
H8 C16 1_555 1_555
C17 C15 1_555 1_555
H9 C17 1_555 1_555
C18 C5 1_555 1_555
C19 C17 1_555 1_555
H10 C19 1_555 1_555
C20 C14 1_555 1_555
H11 C20 1_555 1_555
H12 N3 1_555 1_555
N1B C1B 1_555 1_555
N1_2 Co1 1_555 1_555
N1B_2 Co1B 1_555 1_555
C1B H1B 1_555 1_555
C2B C1B 1_555 1_555
H2B C2B 1_555 1_555
C3B C2B 1_555 1_555
O1B Co1 1_555 1_555
O2B C4B 1_555 1_555
O2_2 Co1 1_555 1_555
O2B_2 Co1B 1_555 1_555
C4B O1B 1_555 1_555
Co1B O1 1_555 1_555
Co1_2 O2 1_555 1_555
Co1_3 N1 1_555 1_555
Co1B_2 N1B 1_555 1_555
Co1B_3 O2B 1_555 1_555
Cl1B C13B 1_555 1_555
O3B C7B 1_555 1_555
N2B Co1B 1_555 1_555
N3B N5B 1_555 1_555
N4B C8B 1_555 1_555
C5B C7B 1_555 1_555
C6B N2B 1_555 1_555
H3B C6B 1_555 1_555
N5B C8B 1_555 1_555
C7B O4B 1_555 1_555
C8B C3B 1_555 1_555
C9B C3B 1_555 1_555
H4B C9B 1_555 1_555
C10B C6B 1_555 1_555
C11B N3B 1_555 1_555
C12B N1B 1_555 1_555
H5B C12B 1_555 1_555
O4B Co1B 1_555 1_555
C13B C5B 1_555 1_555
C14B C10B 1_555 1_555
H6B C14B 1_555 1_555
C15B C13B 1_555 1_555
H7B C15B 1_555 1_555
C16B N2B 1_555 1_555
H8B C16B 1_555 1_555
C17B C15B 1_555 1_555
H9B C17B 1_555 1_555
C18B C4B 1_555 1_555
C19B C17B 1_555 1_555
H10B C19B 1_555 1_555
C20B C14B 1_555 1_555
H11B C20B 1_555 1_555
H12B N3B 1_555 1_555
N4 C11 1_555 1_555
C9 C12 1_555 1_555
C10 C11 1_555 1_555
C16 C20 1_555 1_555
C18 C19 1_555 1_555
N4B C11B 1_555 1_555
C5B C18B 1_555 1_555
C9B C12B 1_555 1_555
C10B C11B 1_555 1_555
C16B C20B 1_555 1_555
C18B C19B 1_555 1_555

#END
