
#######################################################################
#
#                 Cambridge Crystallographic Data Centre
#                                CCDC 
#
#######################################################################
#
# If this CIF has been generated from an entry in the Cambridge 
# Structural Database, then it will include bibliographic, chemical, 
# crystal, experimental, refinement or atomic coordinate data resulting 
# from the CCDC's data processing and validation procedures.
#
#######################################################################

data_HUZPUO
_symmetry_cell_setting           triclinic
_symmetry_space_group_name_H-M   'P -1'
_symmetry_Int_Tables_number      2
_space_group_name_Hall           '-P 1'
loop_
_symmetry_equiv_pos_site_id
_symmetry_equiv_pos_as_xyz
1 x,y,z
2 -x,-y,-z
_cell_length_a                   8.3620(17)
_cell_length_b                   8.7390(17)
_cell_length_c                   11.440(2)
_cell_angle_alpha                73.68(3)
_cell_angle_beta                 83.72(3)
_cell_angle_gamma                78.61(3)
_cell_volume                     785.208
loop_
_atom_site_label
_atom_site_type_symbol
_atom_site_fract_x
_atom_site_fract_y
_atom_site_fract_z
H1 H 0.184(4) 0.479(4) 0.139(3)
H2 H -0.057(4) 0.181(4) 0.701(3)
Co1 Co 0.0000 0.5000 0.5000
O1 O -0.0059(3) 0.4885(3) 0.32141(18)
O2 O -0.2654(3) 0.5198(3) 0.27675(19)
O3 O 0.2453(3) 0.5299(3) 0.4493(2)
N1 N 0.0760(3) 0.2419(3) 0.5478(2)
N2 N 0.4276(3) 0.0598(3) 0.3046(2)
N3 N 0.4395(3) -0.1968(3) 0.4220(2)
N4 N 0.5431(3) -0.1917(3) 0.3214(2)
N5 N 0.7759(4) 0.1022(5) -0.0991(3)
C1 C -0.1137(4) 0.5013(3) 0.2498(3)
C2 C -0.0556(4) 0.4966(4) 0.1210(3)
C3 C -0.1644(4) 0.5073(4) 0.0341(3)
C4 C 0.1094(4) 0.4893(5) 0.0846(3)
C5 C 0.0217(4) 0.1402(4) 0.6477(3)
C6 C 0.0750(4) -0.0244(4) 0.6756(3)
C7 C 0.1915(4) -0.0892(4) 0.5989(3)
C8 C 0.2502(4) 0.0143(4) 0.4951(3)
C9 C 0.1871(4) 0.1785(4) 0.4723(3)
C10 C 0.3726(4) -0.0426(4) 0.4074(3)
C11 C 0.5332(4) -0.0393(4) 0.2516(3)
C12 C 0.6212(4) 0.0099(4) 0.1329(3)
C13 C 0.5783(5) 0.1624(4) 0.0559(3)
C14 C 0.6588(5) 0.2019(5) -0.0573(3)
C15 C 0.8161(5) -0.0431(6) -0.0240(4)
C16 C 0.7442(4) -0.0943(4) 0.0907(3)
H3 H 0.0332 -0.0881 0.7445
H4 H 0.2234 0.2454 0.4061
H5 H -0.2766 0.5190 0.0544
H6 H 0.2264 -0.1967 0.6147
H7 H 0.4954 0.2354 0.0864
H8 H 0.6012 -0.2814 0.3084
H9 H 0.3082 0.4980 0.3985
H11 H 0.8979 -0.1159 -0.0521
H12 H 0.7822 -0.1918 0.1394
H14 H 0.6284 0.3102 -0.1135
H15 H 0.2913 0.5787 0.4794
H1A H -0.184(4) 0.521(4) -0.139(3)
H2A H 0.057(4) 0.819(4) 0.299(3)
Co1_2 Co 0.0000 0.5000 -0.5000
O1A O 0.0059(3) 0.5115(3) -0.32141(18)
O1A_2 O 0.0059(3) 0.5115(3) 0.67859(18)
O2A O 0.2654(3) 0.4802(3) -0.27675(19)
O3A O -0.2453(3) 0.4701(3) 0.5507(2)
N1A N -0.0760(3) 0.7581(3) 0.4522(2)
N2A N -0.4276(3) 0.9402(3) 0.6954(2)
N3A N -0.4395(3) 1.1968(3) 0.5780(2)
N4A N -0.5431(3) 1.1917(3) 0.6786(2)
N5A N -0.7759(4) 0.8978(5) 1.0991(3)
C1A C 0.1137(4) 0.4987(3) -0.2498(3)
C2A C 0.0556(4) 0.5034(4) -0.1210(3)
C3A C 0.1644(4) 0.4927(4) -0.0341(3)
C4A C -0.1094(4) 0.5107(5) -0.0846(3)
C5A C -0.0217(4) 0.8598(4) 0.3523(3)
C6A C -0.0750(4) 1.0244(4) 0.3244(3)
C7A C -0.1915(4) 1.0892(4) 0.4011(3)
C8A C -0.2502(4) 0.9857(4) 0.5049(3)
C9A C -0.1871(4) 0.8215(4) 0.5277(3)
C10A C -0.3726(4) 1.0426(4) 0.5926(3)
C11A C -0.5332(4) 1.0393(4) 0.7484(3)
C12A C -0.6212(4) 0.9901(4) 0.8671(3)
C13A C -0.5783(5) 0.8376(4) 0.9441(3)
C14A C -0.6588(5) 0.7981(5) 1.0573(3)
C15A C -0.8161(5) 1.0431(6) 1.0240(4)
C16A C -0.7442(4) 1.0943(4) 0.9093(3)
H3A H -0.0332 1.0881 0.2555
H4A H -0.2234 0.7546 0.5939
H5A H 0.2766 0.4810 -0.0544
H6A H -0.2264 1.1967 0.3853
H7A H -0.4954 0.7646 0.9136
H8A H -0.6012 1.2814 0.6916
H9A H -0.3082 0.5020 0.6015
H11A H -0.8979 1.1159 1.0521
H12A H -0.7822 1.1918 0.8606
H14A H -0.6284 0.6898 1.1135
H15A H -0.2913 0.4213 0.5206
O4 O 0.4442(3) 0.4131(3) 0.2669(2)
H10 H 0.5388 0.4261 0.2669
H13 H 0.4482 0.2969 0.2824
loop_
_geom_bond_atom_site_label_1
_geom_bond_atom_site_label_2
_geom_bond_site_symmetry_1
_geom_bond_site_symmetry_2
H1 C4 1_555 1_555
H2 C5 1_555 1_555
Co1 O1 1_555 1_555
O1 C1 1_555 1_555
O2 C1 1_555 1_555
O3 Co1 1_555 1_555
O4 H10 1_555 1_555
N1 Co1 1_555 1_555
N2 C10 1_555 1_555
N3 N4 1_555 1_555
N4 C11 1_555 1_555
N5 C14 1_555 1_555
C1 C2 1_555 1_555
C2 C3 1_555 1_555
C3 H5 1_555 1_555
C4 C2 1_555 1_555
C5 N1 1_555 1_555
C6 C5 1_555 1_555
C7 C6 1_555 1_555
C8 C7 1_555 1_555
C9 N1 1_555 1_555
C10 N3 1_555 1_555
C11 N2 1_555 1_555
C12 C11 1_555 1_555
C13 C12 1_555 1_555
C14 C13 1_555 1_555
C15 N5 1_555 1_555
C16 C12 1_555 1_555
H3 C6 1_555 1_555
H4 C9 1_555 1_555
H6 C7 1_555 1_555
H7 C13 1_555 1_555
H8 N4 1_555 1_555
H9 O3 1_555 1_555
H11 C15 1_555 1_555
H12 C16 1_555 1_555
H13 O4 1_555 1_555
H14 C14 1_555 1_555
H15 O3 1_555 1_555
H1A C4A 1_555 1_555
H2A C5A 1_555 1_555
Co1_2 O1A 1_555 1_555
O1A C1A 1_555 1_555
O1A_2 Co1 1_555 1_555
O2A C1A 1_555 1_555
O3A Co1 1_555 1_555
N1A Co1 1_555 1_555
N2A C10A 1_555 1_555
N3A N4A 1_555 1_555
N4A C11A 1_555 1_555
N5A C14A 1_555 1_555
C1A C2A 1_555 1_555
C2A C3A 1_555 1_555
C3A C4 1_555 1_555
C4A C3 1_555 1_555
C5A N1A 1_555 1_555
C6A C5A 1_555 1_555
C7A C6A 1_555 1_555
C8A C7A 1_555 1_555
C9A N1A 1_555 1_555
C10A N3A 1_555 1_555
C11A N2A 1_555 1_555
C12A C11A 1_555 1_555
C13A C12A 1_555 1_555
C14A C13A 1_555 1_555
C15A N5A 1_555 1_555
C16A C12A 1_555 1_555
H3A C6A 1_555 1_555
H4A C9A 1_555 1_555
H5A C3A 1_555 1_555
H6A C7A 1_555 1_555
H7A C13A 1_555 1_555
H8A N4A 1_555 1_555
H9A O3A 1_555 1_555
H11A C15A 1_555 1_555
H12A C16A 1_555 1_555
H14A C14A 1_555 1_555
H15A O3A 1_555 1_555
C8 C9 1_555 1_555
C8 C10 1_555 1_555
C15 C16 1_555 1_555
C2A C4A 1_555 1_555
C8A C9A 1_555 1_555
C8A C10A 1_555 1_555
C15A C16A 1_555 1_555

#END
