
#######################################################################
#
#                 Cambridge Crystallographic Data Centre
#                                CCDC 
#
#######################################################################
#
# If this CIF has been generated from an entry in the Cambridge 
# Structural Database, then it will include bibliographic, chemical, 
# crystal, experimental, refinement or atomic coordinate data resulting 
# from the CCDC's data processing and validation procedures.
#
#######################################################################

data_HUZPEY
_symmetry_cell_setting           monoclinic
_symmetry_space_group_name_H-M   'P 21/n'
_symmetry_Int_Tables_number      14
_space_group_name_Hall           '-P 2yn'
loop_
_symmetry_equiv_pos_site_id
_symmetry_equiv_pos_as_xyz
1 x,y,z
2 1/2-x,1/2+y,1/2-z
3 -x,-y,-z
4 1/2+x,1/2-y,1/2+z
_cell_length_a                   12.345(3)
_cell_length_b                   12.155(2)
_cell_length_c                   13.603(3)
_cell_angle_alpha                90
_cell_angle_beta                 95.20(3)
_cell_angle_gamma                90
_cell_volume                     2032.78
loop_
_atom_site_label
_atom_site_type_symbol
_atom_site_fract_x
_atom_site_fract_y
_atom_site_fract_z
O1 O 0.53733(19) 1.40463(18) 0.60083(17)
O2 O 0.4283(2) 1.33301(18) 0.47800(17)
C1 C 0.4875(3) 1.3269(3) 0.5575(2)
C2 C 0.4995(3) 1.2148(3) 0.6035(2)
N1 N 1.2844(2) 0.5278(2) 0.5108(2)
C3 C 1.2561(3) 0.4728(4) 0.5895(3)
C4 C 1.2580(3) 0.6347(3) 0.5060(3)
C5 C 1.2035(4) 0.5196(4) 0.6632(3)
C6 C 1.1786(4) 0.6303(4) 0.6575(3)
C7 C 1.2063(3) 0.6901(3) 0.5765(3)
Co1 Co 0.86995(4) 1.04018(4) 0.89629(3)
N2 N 0.9540(2) 1.0974(2) 0.7730(2)
O3 O 0.73860(19) 0.97344(19) 0.79053(17)
O4 O 0.73460(19) 1.14352(19) 0.84186(17)
C8 C 1.1202(3) 0.9631(3) 0.5971(3)
C9 C 1.0083(3) 1.0258(3) 0.7224(3)
C10 C 1.0643(3) 1.0537(3) 0.6423(3)
N3 N 1.1258(3) 0.8616(3) 0.6323(2)
C11 C 0.6954(3) 1.0679(3) 0.7869(2)
C12 C 0.5997(3) 1.0899(3) 0.7139(2)
N4 N 1.1707(3) 0.9686(3) 0.5141(2)
C13 C 0.5814(3) 1.1949(3) 0.6777(3)
N5 N 1.2120(3) 0.8684(3) 0.4930(2)
C14 C 0.4471(3) 1.0249(3) 0.6083(3)
C15 C 0.5324(3) 1.0050(3) 0.6788(3)
C16 C 0.4316(3) 1.1299(3) 0.5699(3)
C17 C 1.1823(3) 0.8077(3) 0.5668(3)
C18 C 1.0619(4) 1.1613(4) 0.6122(3)
C19 C 1.0042(4) 1.2358(4) 0.6630(4)
C20 C 0.9517(4) 1.2011(3) 0.7420(3)
H1 H 1.006(3) 0.955(3) 0.743(2)
H2 H 1.275(3) 0.673(3) 0.451(3)
H3 H 0.626(3) 1.252(3) 0.701(2)
H4 H 1.095(3) 1.182(3) 0.556(3)
H5 H 1.182(3) 1.022(3) 0.480(3)
H6 H 1.273(3) 0.401(3) 0.590(3)
H7 H 0.402(3) 0.965(3) 0.585(3)
H8 H 0.377(3) 1.142(3) 0.517(3)
H9 H 1.184(3) 0.477(3) 0.718(3)
H10 H 0.545(3) 0.937(3) 0.700(2)
H11 H 1.145(3) 0.666(3) 0.708(3)
H12 H 1.001(3) 1.308(3) 0.642(3)
H13 H 0.914(3) 1.250(3) 0.777(3)
O1A O 0.96267(19) 0.90463(18) 0.89917(17)
O2C O 0.9283(2) 1.16699(18) 0.97800(17)
N1C N 0.7844(2) 0.9722(2) 1.0108(2)
Co1A Co 0.63005(4) 1.54018(4) 0.60371(3)
Co1C Co 0.36995(4) 1.45982(4) 0.39629(3)
Co1C_2 Co 1.36995(4) 0.45982(4) 0.39629(3)
O5 O 0.7918(3) 0.8673(3) 0.6178(2)
H14 H 0.784(4) 0.898(4) 0.669(4)
H15 H 0.795(5) 0.799(5) 0.629(4)
loop_
_geom_bond_atom_site_label_1
_geom_bond_atom_site_label_2
_geom_bond_site_symmetry_1
_geom_bond_site_symmetry_2
O1 C1 1_555 1_555
O2 C1 1_555 1_555
C1 C2 1_555 1_555
C2 C13 1_555 1_555
N1 C3 1_555 1_555
C3 C5 1_555 1_555
C4 N1 1_555 1_555
C5 C6 1_555 1_555
C6 C7 1_555 1_555
C7 C4 1_555 1_555
Co1 N2 1_555 1_555
N2 C9 1_555 1_555
O3 Co1 1_555 1_555
O4 Co1 1_555 1_555
C8 C10 1_555 1_555
C9 C10 1_555 1_555
C10 C18 1_555 1_555
N3 C8 1_555 1_555
C11 O3 1_555 1_555
C12 C11 1_555 1_555
N4 C8 1_555 1_555
C13 C12 1_555 1_555
N5 N4 1_555 1_555
C14 C15 1_555 1_555
C15 C12 1_555 1_555
C16 C2 1_555 1_555
C17 C7 1_555 1_555
C18 C19 1_555 1_555
C19 C20 1_555 1_555
C20 N2 1_555 1_555
O5 H14 1_555 1_555
H1 C9 1_555 1_555
H2 C4 1_555 1_555
H3 C13 1_555 1_555
H4 C18 1_555 1_555
H5 N4 1_555 1_555
H6 C3 1_555 1_555
H7 C14 1_555 1_555
H8 C16 1_555 1_555
H9 C5 1_555 1_555
H10 C15 1_555 1_555
H11 C6 1_555 1_555
H12 C19 1_555 1_555
H13 C20 1_555 1_555
H15 O5 1_555 1_555
O1A Co1 1_555 1_555
O2C Co1 1_555 1_555
N1C Co1 1_555 1_555
Co1A O1 1_555 1_555
Co1C O2 1_555 1_555
Co1C_2 N1 1_555 1_555
O4 C11 1_555 1_555
N3 C17 1_555 1_555
N5 C17 1_555 1_555
C14 C16 1_555 1_555

#END
