
#######################################################################
#
#                 Cambridge Crystallographic Data Centre
#                                CCDC 
#
#######################################################################
#
# If this CIF has been generated from an entry in the Cambridge 
# Structural Database, then it will include bibliographic, chemical, 
# crystal, experimental, refinement or atomic coordinate data resulting 
# from the CCDC's data processing and validation procedures.
#
#######################################################################

data_HXTPSN01
_symmetry_cell_setting           orthorhombic
_symmetry_space_group_name_H-M   'P 21 21 21'
_symmetry_Int_Tables_number      19
_space_group_name_Hall           'P 2ac 2ab'
loop_
_symmetry_equiv_pos_site_id
_symmetry_equiv_pos_as_xyz
1 x,y,z
2 1/2-x,-y,1/2+z
3 -x,1/2+y,1/2-z
4 1/2+x,1/2-y,-z
_cell_length_a                   8.2573(2)
_cell_length_b                   10.2229(2)
_cell_length_c                   17.6996(5)
_cell_angle_alpha                90
_cell_angle_beta                 90
_cell_angle_gamma                90
_cell_volume                     1494.09
loop_
_atom_site_label
_atom_site_type_symbol
_atom_site_fract_x
_atom_site_fract_y
_atom_site_fract_z
Sn1 Sn 0.565990(18) 0.247677(16) 0.003450(8)
C1 C 0.6051(3) 0.1461(3) 0.10708(16)
C2 C 0.7054(4) 0.0355(3) 0.10904(18)
C3 C 0.7341(4) -0.0293(3) 0.1767(2)
C4 C 0.6675(4) 0.0145(4) 0.2428(2)
C5 C 0.5652(4) 0.1226(3) 0.24182(18)
C6 C 0.5352(4) 0.1866(3) 0.17407(17)
C7 C 0.4913(3) -0.0019(3) -0.08508(18)
C8 C 0.4901(3) 0.1339(3) -0.09059(16)
C9 C 0.4456(4) 0.1906(3) -0.15902(16)
C10 C 0.3999(4) 0.1134(4) -0.21958(18)
C11 C 0.3995(4) -0.0221(4) -0.2130(2)
C12 C 0.4458(4) -0.0788(3) -0.14645(19)
C13 C 0.6261(3) 0.4483(3) -0.01089(17)
C14 C 0.5807(4) 0.5435(3) 0.04118(19)
C15 C 0.6265(4) 0.6737(3) 0.0318(3)
C16 C 0.7172(4) 0.7099(3) -0.0299(3)
C17 C 0.7619(4) 0.6170(3) -0.0827(2)
C18 C 0.7174(4) 0.4865(3) -0.07307(18)
O1 O 0.3191(2) 0.30112(18) 0.03424(12)
H1 H 0.7540 0.0047 0.0638
H2 H 0.8008 -0.1051 0.1771
H3 H 0.6910 -0.0286 0.2891
H4 H 0.5161 0.1524 0.2872
H5 H 0.4649 0.2602 0.1737
H6 H 0.5233 -0.0424 -0.0391
H7 H 0.4467 0.2831 -0.1642
H8 H 0.3687 0.1531 -0.2659
H9 H 0.3672 -0.0750 -0.2544
H10 H 0.4470 -0.1714 -0.1421
H11 H 0.5176 0.5194 0.0838
H12 H 0.5949 0.7374 0.0680
H13 H 0.7491 0.7985 -0.0362
H14 H 0.8232 0.6422 -0.1257
H15 H 0.7498 0.4231 -0.1093
H16 H 0.3274 0.3731 0.0630
Sn1C Sn 0.065990(18) 0.252323(16) -0.003450(8)
O1C O 0.8191(2) 0.19888(18) -0.03424(12)
H16C H 0.8274 0.1269 -0.0630
loop_
_geom_bond_atom_site_label_1
_geom_bond_atom_site_label_2
_geom_bond_site_symmetry_1
_geom_bond_site_symmetry_2
Sn1 C1 1_555 1_555
C1 C2 1_555 1_555
C2 C3 1_555 1_555
C3 C4 1_555 1_555
C4 C5 1_555 1_555
C5 C6 1_555 1_555
C6 C1 1_555 1_555
C7 C8 1_555 1_555
C8 Sn1 1_555 1_555
C9 C8 1_555 1_555
C10 C9 1_555 1_555
C11 C10 1_555 1_555
C12 C7 1_555 1_555
C13 Sn1 1_555 1_555
C14 C13 1_555 1_555
C15 C14 1_555 1_555
C16 C15 1_555 1_555
C17 C16 1_555 1_555
C18 C13 1_555 1_555
O1 Sn1 1_555 1_555
H1 C2 1_555 1_555
H2 C3 1_555 1_555
H3 C4 1_555 1_555
H4 C5 1_555 1_555
H5 C6 1_555 1_555
H6 C7 1_555 1_555
H7 C9 1_555 1_555
H8 C10 1_555 1_555
H9 C11 1_555 1_555
H10 C12 1_555 1_555
H11 C14 1_555 1_555
H12 C15 1_555 1_555
H13 C16 1_555 1_555
H14 C17 1_555 1_555
H15 C18 1_555 1_555
H16 O1 1_555 1_555
Sn1C O1 1_555 1_555
O1C Sn1 1_555 1_555
H16C O1C 1_555 1_555
C11 C12 1_555 1_555
C17 C18 1_555 1_555

#END
