
#######################################################################
#
#                 Cambridge Crystallographic Data Centre
#                                CCDC 
#
#######################################################################
#
# If this CIF has been generated from an entry in the Cambridge 
# Structural Database, then it will include bibliographic, chemical, 
# crystal, experimental, refinement or atomic coordinate data resulting 
# from the CCDC's data processing and validation procedures.
#
#######################################################################

data_IBAGOI01
_symmetry_cell_setting           triclinic
_symmetry_space_group_name_H-M   'P -1'
_symmetry_Int_Tables_number      2
_space_group_name_Hall           '-P 1'
loop_
_symmetry_equiv_pos_site_id
_symmetry_equiv_pos_as_xyz
1 x,y,z
2 -x,-y,-z
_cell_length_a                   7.0768(11)
_cell_length_b                   9.8376(16)
_cell_length_c                   10.4609(16)
_cell_angle_alpha                71.941(3)
_cell_angle_beta                 73.078(3)
_cell_angle_gamma                74.502(3)
_cell_volume                     649.759
loop_
_atom_site_label
_atom_site_type_symbol
_atom_site_fract_x
_atom_site_fract_y
_atom_site_fract_z
Cu1 Cu 0.39709(19) -0.42638(13) -0.14720(12)
O1 O 0.3056(10) -0.2353(7) -0.1116(6)
O2 O 0.2789(11) -0.5165(7) 0.0450(7)
H1 H 0.226(16) -0.588(8) 0.071(11)
H2 H 0.199(14) -0.445(8) 0.065(12)
O3 O 0.0760(11) -0.2710(7) 0.0866(7)
O4 O -0.1599(11) -0.2166(8) -0.1696(8)
O5 O 0.0587(12) -0.1395(8) -0.3520(7)
O6 O 0.0924(11) -0.3716(7) -0.2488(8)
N1 N 0.4985(11) -0.6100(8) -0.2106(8)
N2 N 0.5628(11) -0.3456(8) -0.3328(7)
N3 N -0.0012(13) -0.2429(9) -0.2579(8)
C1 C 0.4664(15) -0.7432(11) -0.1422(10)
H3 H 0.3757 -0.7550 -0.0569
C2 C 0.5621(14) -0.8661(11) -0.1922(10)
H4 H 0.5421 -0.9585 -0.1389
C3 C 0.6859(15) -0.8479(12) -0.3213(11)
H5 H 0.7486 -0.9279 -0.3580
C4 C 0.7172(14) -0.7112(11) -0.3964(9)
H6 H 0.7994 -0.6972 -0.4849
C5 C 0.6239(13) -0.5930(10) -0.3381(9)
C6 C 0.6561(13) -0.4416(10) -0.4093(9)
C7 C 0.7740(15) -0.4007(11) -0.5417(10)
H7 H 0.8354 -0.4685 -0.5939
C8 C 0.7977(15) -0.2595(12) -0.5935(11)
H8 H 0.8740 -0.2299 -0.6824
C9 C 0.7093(15) -0.1607(11) -0.5149(10)
H9 H 0.7292 -0.0651 -0.5476
C10 C 0.5885(15) -0.2080(10) -0.3843(9)
H10 H 0.5238 -0.1412 -0.3315
C11 C 0.1580(14) -0.1878(10) -0.0226(9)
C12 C 0.0850(15) -0.0264(10) -0.0543(10)
H11 H 0.0421 0.0047 -0.1406
H12 H 0.1968 0.0198 -0.0676
Cu1A Cu -0.39709(19) 0.42638(13) 0.14720(12)
Cu1A_2 Cu 0.60291(19) -0.57362(13) 0.14720(12)
O1A O -0.3056(10) 0.2353(7) 0.1116(6)
O2A O 0.7211(11) -0.4835(7) -0.0450(7)
O2_2 O -0.7211(11) 0.4835(7) 0.0450(7)
O2A_2 O -0.2789(11) 0.5165(7) -0.0450(7)
H1A H 0.774(16) -0.412(8) -0.071(11)
H1_2 H -0.774(16) 0.412(8) 0.071(11)
H1A_2 H -0.226(16) 0.588(8) -0.071(11)
H2A H 0.801(14) -0.555(8) -0.065(12)
H2_2 H -0.801(14) 0.555(8) 0.065(12)
H2A_2 H -0.199(14) 0.445(8) -0.065(12)
O3A O -0.0760(11) 0.2710(7) -0.0866(7)
O4A O 0.1599(11) 0.2166(8) 0.1696(8)
O5A O -0.0587(12) 0.1395(8) 0.3520(7)
O6A O -0.0924(11) 0.3716(7) 0.2488(8)
N1A N -0.4985(11) 0.6100(8) 0.2106(8)
N2A N -0.5628(11) 0.3456(8) 0.3328(7)
N3A N 0.0012(13) 0.2429(9) 0.2579(8)
C1A C -0.4664(15) 0.7432(11) 0.1422(10)
H3A H -0.3757 0.7550 0.0569
C2A C -0.5621(14) 0.8661(11) 0.1922(10)
H4A H -0.5421 0.9585 0.1389
C3A C -0.6859(15) 0.8479(12) 0.3213(11)
H5A H -0.7486 0.9279 0.3580
C4A C -0.7172(14) 0.7112(11) 0.3964(9)
H6A H -0.7994 0.6972 0.4849
C5A C -0.6239(13) 0.5930(10) 0.3381(9)
C6A C -0.6561(13) 0.4416(10) 0.4093(9)
C7A C -0.7740(15) 0.4007(11) 0.5417(10)
H7A H -0.8354 0.4685 0.5939
C8A C -0.7977(15) 0.2595(12) 0.5935(11)
H8A H -0.8740 0.2299 0.6824
C9A C -0.7093(15) 0.1607(11) 0.5149(10)
H9A H -0.7292 0.0651 0.5476
C10A C -0.5885(15) 0.2080(10) 0.3843(9)
H10A H -0.5238 0.1412 0.3315
C11A C -0.1580(14) 0.1878(10) 0.0226(9)
C12A C -0.0850(15) 0.0264(10) 0.0543(10)
H11A H -0.0421 -0.0047 0.1406
H12A H -0.1968 -0.0198 0.0676
loop_
_geom_bond_atom_site_label_1
_geom_bond_atom_site_label_2
_geom_bond_site_symmetry_1
_geom_bond_site_symmetry_2
Cu1 O1 1_555 1_555
O1 C11 1_555 1_555
O2 Cu1 1_555 1_555
H1 O2 1_555 1_555
H2 O2 1_555 1_555
O3 C11 1_555 1_555
O4 N3 1_555 1_555
O5 N3 1_555 1_555
O6 Cu1 1_555 1_555
N1 Cu1 1_555 1_555
N2 Cu1 1_555 1_555
N3 O6 1_555 1_555
C1 N1 1_555 1_555
H3 C1 1_555 1_555
C2 C1 1_555 1_555
H4 C2 1_555 1_555
C3 C2 1_555 1_555
H5 C3 1_555 1_555
C4 C3 1_555 1_555
H6 C4 1_555 1_555
C5 N1 1_555 1_555
C6 N2 1_555 1_555
C7 C6 1_555 1_555
H7 C7 1_555 1_555
C8 C7 1_555 1_555
H8 C8 1_555 1_555
C9 C8 1_555 1_555
H9 C9 1_555 1_555
C10 N2 1_555 1_555
H10 C10 1_555 1_555
C11 C12 1_555 1_555
C12 H11 1_555 1_555
H12 C12 1_555 1_555
Cu1A O1A 1_555 1_555
Cu1A_2 O2 1_555 1_555
O1A C11A 1_555 1_555
O2A Cu1 1_555 1_555
O2_2 Cu1A 1_555 1_555
O2A_2 Cu1A 1_555 1_555
H1A O2A 1_555 1_555
H1_2 O2_2 1_555 1_555
H1A_2 O2A_2 1_555 1_555
H2A O2A 1_555 1_555
H2_2 O2_2 1_555 1_555
H2A_2 O2A_2 1_555 1_555
O3A C11A 1_555 1_555
O4A N3A 1_555 1_555
O5A N3A 1_555 1_555
O6A Cu1A 1_555 1_555
N1A Cu1A 1_555 1_555
N2A Cu1A 1_555 1_555
N3A O6A 1_555 1_555
C1A N1A 1_555 1_555
H3A C1A 1_555 1_555
C2A C1A 1_555 1_555
H4A C2A 1_555 1_555
C3A C2A 1_555 1_555
H5A C3A 1_555 1_555
C4A C3A 1_555 1_555
H6A C4A 1_555 1_555
C5A N1A 1_555 1_555
C6A N2A 1_555 1_555
C7A C6A 1_555 1_555
H7A C7A 1_555 1_555
C8A C7A 1_555 1_555
H8A C8A 1_555 1_555
C9A C8A 1_555 1_555
H9A C9A 1_555 1_555
C10A N2A 1_555 1_555
H10A C10A 1_555 1_555
C11A C12A 1_555 1_555
C12A C12 1_555 1_555
H11A C12A 1_555 1_555
H12A C12A 1_555 1_555
C4 C5 1_555 1_555
C5 C6 1_555 1_555
C9 C10 1_555 1_555
Cu1A_2 O2A 1_555 1_555
C4A C5A 1_555 1_555
C5A C6A 1_555 1_555
C9A C10A 1_555 1_555

#END
