
#######################################################################
#
#                 Cambridge Crystallographic Data Centre
#                                CCDC 
#
#######################################################################
#
# If this CIF has been generated from an entry in the Cambridge 
# Structural Database, then it will include bibliographic, chemical, 
# crystal, experimental, refinement or atomic coordinate data resulting 
# from the CCDC's data processing and validation procedures.
#
#######################################################################

data_IBAHAV
_symmetry_cell_setting           monoclinic
_symmetry_space_group_name_H-M   'P 21/c'
_symmetry_Int_Tables_number      14
_space_group_name_Hall           '-P 2ybc'
loop_
_symmetry_equiv_pos_site_id
_symmetry_equiv_pos_as_xyz
1 x,y,z
2 x,1/2-y,1/2+z
3 -x,-y,-z
4 -x,1/2+y,1/2-z
_cell_length_a                   16.947(4)
_cell_length_b                   12.566(3)
_cell_length_c                   14.539(4)
_cell_angle_alpha                90
_cell_angle_beta                 108.46(2)
_cell_angle_gamma                90
_cell_volume                     2936.85
loop_
_atom_site_label
_atom_site_type_symbol
_atom_site_fract_x
_atom_site_fract_y
_atom_site_fract_z
Cu1 Cu 0.09544(4) 0.95529(4) 0.51099(4)
Cu2 Cu 0.18699(4) 0.96450(5) 0.36209(5)
N1 N 0.1596(3) 1.0736(3) 0.5924(3)
N2 N 0.1898(3) 0.8708(3) 0.5956(3)
N3 N 0.2768(3) 1.0611(3) 0.4393(3)
N4 N 0.2778(3) 0.8563(3) 0.4150(3)
O1 O 0.0493(2) 0.8352(3) 0.4250(2)
O2 O -0.0157(2) 0.5524(2) 0.0763(2)
O3 O 0.1052(2) 0.8565(3) 0.3056(3)
O4 O -0.1011(2) 0.5777(3) 0.1634(2)
C1 C 0.1382(4) 1.1760(4) 0.5874(4)
H1 H 0.0872 1.1967 0.5443
C2 C 0.1902(4) 1.2528(5) 0.6450(5)
H2 H 0.1738 1.3238 0.6400
C3 C 0.2651(4) 1.2239(6) 0.7086(5)
H3 H 0.3003 1.2743 0.7476
C4 C 0.2874(4) 1.1185(5) 0.7139(4)
H4 H 0.3382 1.0967 0.7568
C5 C 0.2343(3) 1.0452(4) 0.6555(4)
C6 C 0.2518(3) 0.9293(4) 0.6555(4)
C7 C 0.3258(4) 0.8824(6) 0.7072(4)
H5 H 0.3682 0.9235 0.7480
C8 C 0.3371(4) 0.7761(6) 0.6989(5)
H6 H 0.3870 0.7438 0.7337
C9 C 0.2728(4) 0.7169(5) 0.6375(5)
H7 H 0.2792 0.6442 0.6299
C10 C 0.2011(4) 0.7657(4) 0.5891(4)
H8 H 0.1577 0.7251 0.5496
C11 C 0.2700(4) 1.1673(4) 0.4448(4)
H9 H 0.2210 1.2001 0.4081
C12 C 0.3330(4) 1.2287(5) 0.5027(5)
H10 H 0.3272 1.3020 0.5064
C13 C 0.4053(4) 1.1781(6) 0.5554(5)
H11 H 0.4487 1.2175 0.5964
C14 C 0.4142(4) 1.0696(5) 0.5480(5)
H12 H 0.4634 1.0356 0.5825
C15 C 0.3487(3) 1.0131(5) 0.4885(4)
C16 C 0.3492(3) 0.8968(5) 0.4748(4)
C17 C 0.4167(4) 0.8320(6) 0.5189(5)
H13 H 0.4658 0.8606 0.5600
C18 C 0.4095(4) 0.7217(6) 0.5003(5)
H14 H 0.4539 0.6765 0.5291
C19 C 0.3371(4) 0.6825(5) 0.4397(5)
H15 H 0.3313 0.6100 0.4264
C20 C 0.2722(4) 0.7508(4) 0.3981(4)
H16 H 0.2227 0.7232 0.3569
C21 C 0.0558(3) 0.8133(4) 0.3432(4)
C22 C -0.0012(3) 0.7258(4) 0.2865(4)
H17 H -0.0005 0.6672 0.3301
H18 H -0.0576 0.7531 0.2634
C23 C 0.0216(3) 0.6836(4) 0.2005(4)
H19 H 0.0217 0.7423 0.1572
H20 H 0.0777 0.6552 0.2236
C24 C -0.0361(3) 0.5983(4) 0.1441(3)
O21 O 0.2086(3) 0.9988(4) 0.2258(3)
H21 H 0.1603 0.9901 0.1729
H22 H 0.2550 0.9857 0.2058
O2A O -0.0157(2) 0.9476(2) 0.5763(2)
O2C O 0.0157(2) 1.0524(2) 0.4237(2)
O4C O 0.1011(2) 1.0777(3) 0.3366(2)
Cu1A Cu 0.09544(4) 0.54471(4) 0.01099(4)
Cu1C Cu -0.09544(4) 0.45529(4) -0.01099(4)
Cu2C Cu -0.18699(4) 0.46450(5) 0.13791(5)
Cl1 Cl 0.14153(14) 0.46361(14) 0.38836(17)
O9 O 0.0969(8) 0.4591(8) 0.2859(7)
O10 O 0.1126(11) 0.3829(9) 0.4322(9)
O11 O 0.1404(7) 0.5637(6) 0.4233(8)
O12 O 0.2268(7) 0.4357(12) 0.3957(11)
Cl2 Cl 0.42900(11) 0.46915(14) 0.70757(15)
O17 O 0.3606(5) 0.4671(8) 0.6237(6)
O18 O 0.3989(5) 0.4968(10) 0.7857(6)
O19 O 0.4867(5) 0.5480(6) 0.7041(7)
O20 O 0.4692(4) 0.3719(5) 0.7274(7)
O22 O 0.0728(6) 0.5607(10) 0.5856(7)
H23 H 0.0693 0.5014 0.5456
H24 H 0.0205 0.5739 0.5921
O5? O 0.0558(8) 0.4664(16) 0.3460(18)
O6? O 0.1830(13) 0.5147(17) 0.3352(15)
O7? O 0.1680(14) 0.3641(12) 0.4169(19)
O8? O 0.1557(14) 0.5238(17) 0.4774(13)
O13? O 0.4414(16) 0.3946(18) 0.7796(15)
O14? O 0.3442(10) 0.472(2) 0.6526(19)
O15? O 0.4705(13) 0.434(2) 0.6417(16)
O16? O 0.4571(16) 0.5683(13) 0.740(2)
loop_
_geom_bond_atom_site_label_1
_geom_bond_atom_site_label_2
_geom_bond_site_symmetry_1
_geom_bond_site_symmetry_2
Cu1 N1 1_555 1_555
Cu2 N3 1_555 1_555
N1 C1 1_555 1_555
N2 Cu1 1_555 1_555
N3 C11 1_555 1_555
N4 Cu2 1_555 1_555
O1 Cu1 1_555 1_555
O2 C24 1_555 1_555
O3 Cu2 1_555 1_555
O4 C24 1_555 1_555
C1 H1 1_555 1_555
C2 C1 1_555 1_555
H2 C2 1_555 1_555
C3 C2 1_555 1_555
H3 C3 1_555 1_555
C4 C3 1_555 1_555
H4 C4 1_555 1_555
C5 N1 1_555 1_555
C6 N2 1_555 1_555
C7 C6 1_555 1_555
H5 C7 1_555 1_555
C8 C7 1_555 1_555
H6 C8 1_555 1_555
C9 C8 1_555 1_555
H7 C9 1_555 1_555
C10 N2 1_555 1_555
H8 C10 1_555 1_555
C11 H9 1_555 1_555
C12 C11 1_555 1_555
H10 C12 1_555 1_555
C13 C12 1_555 1_555
H11 C13 1_555 1_555
C14 C13 1_555 1_555
H12 C14 1_555 1_555
C15 N3 1_555 1_555
C16 N4 1_555 1_555
C17 C16 1_555 1_555
H13 C17 1_555 1_555
C18 C17 1_555 1_555
H14 C18 1_555 1_555
C19 C18 1_555 1_555
H15 C19 1_555 1_555
C20 N4 1_555 1_555
H16 C20 1_555 1_555
C21 O1 1_555 1_555
C22 C21 1_555 1_555
H17 C22 1_555 1_555
H18 C22 1_555 1_555
C23 C22 1_555 1_555
H19 C23 1_555 1_555
H20 C23 1_555 1_555
C24 C23 1_555 1_555
Cl1 O9 1_555 1_555
O10 Cl1 1_555 1_555
O11 Cl1 1_555 1_555
O12 Cl1 1_555 1_555
Cl2 O17 1_555 1_555
O18 Cl2 1_555 1_555
O19 Cl2 1_555 1_555
O20 Cl2 1_555 1_555
O21 Cu2 1_555 1_555
H21 O21 1_555 1_555
H22 O21 1_555 1_555
O22 H23 1_555 1_555
H24 O22 1_555 1_555
O2A Cu1 1_555 1_555
O2C Cu1 1_555 1_555
O4C Cu2 1_555 1_555
Cu1A O2 1_555 1_555
Cu1C O2 1_555 1_555
Cu2C O4 1_555 1_555
O3 C21 1_555 1_555
C4 C5 1_555 1_555
C5 C6 1_555 1_555
C9 C10 1_555 1_555
C14 C15 1_555 1_555
C15 C16 1_555 1_555
C19 C20 1_555 1_555

#END
