
#######################################################################
#
#                 Cambridge Crystallographic Data Centre
#                                CCDC 
#
#######################################################################
#
# If this CIF has been generated from an entry in the Cambridge 
# Structural Database, then it will include bibliographic, chemical, 
# crystal, experimental, refinement or atomic coordinate data resulting 
# from the CCDC's data processing and validation procedures.
#
#######################################################################

data_IBEKOR
_symmetry_cell_setting           monoclinic
_symmetry_space_group_name_H-M   'C 2/c'
_symmetry_Int_Tables_number      15
_space_group_name_Hall           '-C 2yn'
loop_
_symmetry_equiv_pos_site_id
_symmetry_equiv_pos_as_xyz
1 x,y,z
2 -x,y,1/2-z
3 1/2+x,1/2+y,z
4 1/2-x,1/2+y,1/2-z
5 -x,-y,-z
6 x,-y,1/2+z
7 1/2-x,1/2-y,-z
8 1/2+x,1/2-y,1/2+z
_cell_length_a                   24.704(3)
_cell_length_b                   13.2419(15)
_cell_length_c                   13.9711(16)
_cell_angle_alpha                90
_cell_angle_beta                 113.2100(10)
_cell_angle_gamma                90
_cell_volume                     4200.44
loop_
_atom_site_label
_atom_site_type_symbol
_atom_site_fract_x
_atom_site_fract_y
_atom_site_fract_z
Cd1 Cd 0.65629(2) 0.33284(4) 0.55078(4)
O1 O 0.6782(2) 0.3401(3) 0.4061(4)
C1 C 0.6526(4) 0.5806(7) 0.5588(6)
H1 H 0.6445 0.5689 0.6175
N1 N 0.6588(3) 0.5009(5) 0.5047(4)
O2 O 0.7411(3) 0.6612(5) 0.3122(5)
O3 O 0.6458(3) 0.6417(4) 0.2034(4)
O4 O 0.7529(3) 0.2993(5) 0.6360(4)
O5 O 0.6946(2) 0.4387(4) 0.2924(4)
N2 N 0.6285(3) 0.1625(5) 0.5190(5)
N3 N 0.5535(3) 0.3182(5) 0.4433(5)
C2 C 0.6656(3) 0.0865(7) 0.5569(6)
H2 H 0.7046 0.1003 0.5995
C3 C 0.6695(3) 0.5177(5) 0.4189(5)
C4 C 0.4369(4) 0.2872(9) 0.3109(7)
H3 H 0.3977 0.2775 0.2671
C5 C 0.5510(4) 0.0414(7) 0.4307(6)
C6 C 0.5908(4) -0.0358(7) 0.4715(6)
H4 H 0.5787 -0.1025 0.4558
C7 C 0.4587(4) 0.3824(9) 0.3364(7)
H5 H 0.4346 0.4380 0.3090
C8 C 0.4727(3) 0.2069(8) 0.3496(6)
C9 C 0.5322(3) 0.2243(6) 0.4162(5)
C10 C 0.5171(4) 0.3963(7) 0.4034(6)
H6 H 0.5314 0.4616 0.4210
C11 C 0.5718(3) 0.1413(6) 0.4564(5)
N4 N 0.4707(4) -0.0747(7) 0.3453(6)
C12 C 0.6737(4) 0.6148(6) 0.3855(6)
C13 C 0.6477(4) -0.0152(7) 0.5346(6)
H7 H 0.6745 -0.0674 0.5626
C14 C 0.4895(3) 0.0240(7) 0.3650(6)
C15 C 0.6814(3) 0.4251(5) 0.3673(5)
C16 C 0.6881(4) 0.6402(6) 0.2919(6)
C17 C 0.6577(5) 0.6791(7) 0.5312(7)
H8 H 0.6540 0.7328 0.5711
N5 N 0.3928(3) 0.0882(7) 0.2655(5)
C18 C 0.4516(4) 0.1031(8) 0.3260(6)
C19 C 0.4141(4) -0.0849(10) 0.2865(7)
H9 H 0.3996 -0.1503 0.2702
C20 C 0.3763(5) -0.0097(9) 0.2488(7)
C21 C 0.6684(6) 0.6953(7) 0.4438(7)
H10 H 0.6721 0.7609 0.4234
C22 C 0.3104(5) -0.0316(9) 0.1860(9)
H11 H 0.2895 0.0309 0.1644
H12 H 0.2948 -0.0683 0.2288
H13 H 0.3058 -0.0712 0.1257
H14 H 0.767(5) 0.307(7) 0.704(7)
H15 H 0.776(4) 0.256(7) 0.628(8)
Cd1E Cd 0.65629(2) 0.66716(4) 0.05078(4)
O3E O 0.6458(3) 0.3583(4) 0.7034(4)
O6 O 0.4801(7) 0.6569(10) 0.3331(11)
loop_
_geom_bond_atom_site_label_1
_geom_bond_atom_site_label_2
_geom_bond_site_symmetry_1
_geom_bond_site_symmetry_2
Cd1 O1 1_555 1_555
O1 C15 1_555 1_555
C1 H1 1_555 1_555
N1 Cd1 1_555 1_555
O2 C16 1_555 1_555
O3 C16 1_555 1_555
O4 Cd1 1_555 1_555
O5 C15 1_555 1_555
N2 Cd1 1_555 1_555
N3 Cd1 1_555 1_555
C2 N2 1_555 1_555
H2 C2 1_555 1_555
C3 N1 1_555 1_555
C4 H3 1_555 1_555
C5 C6 1_555 1_555
C6 H4 1_555 1_555
C7 C4 1_555 1_555
H5 C7 1_555 1_555
C8 C4 1_555 1_555
C9 N3 1_555 1_555
C10 N3 1_555 1_555
H6 C10 1_555 1_555
C11 N2 1_555 1_555
N4 C14 1_555 1_555
C12 C3 1_555 1_555
C13 C2 1_555 1_555
H7 C13 1_555 1_555
C14 C5 1_555 1_555
C15 C3 1_555 1_555
C16 C12 1_555 1_555
C17 C1 1_555 1_555
H8 C17 1_555 1_555
N5 C18 1_555 1_555
C18 C8 1_555 1_555
C19 N4 1_555 1_555
H9 C19 1_555 1_555
C20 N5 1_555 1_555
C21 C12 1_555 1_555
H10 C21 1_555 1_555
C22 C20 1_555 1_555
H11 C22 1_555 1_555
H12 C22 1_555 1_555
H13 C22 1_555 1_555
H14 O4 1_555 1_555
H15 O4 1_555 1_555
Cd1E O3 1_555 1_555
O3E Cd1 1_555 1_555
C1 N1 1_555 1_555
C5 C11 1_555 1_555
C6 C13 1_555 1_555
C7 C10 1_555 1_555
C8 C9 1_555 1_555
C9 C11 1_555 1_555
C14 C18 1_555 1_555
C17 C21 1_555 1_555
C19 C20 1_555 1_555

#END
