
#######################################################################
#
#                 Cambridge Crystallographic Data Centre
#                                CCDC 
#
#######################################################################
#
# If this CIF has been generated from an entry in the Cambridge 
# Structural Database, then it will include bibliographic, chemical, 
# crystal, experimental, refinement or atomic coordinate data resulting 
# from the CCDC's data processing and validation procedures.
#
#######################################################################

data_IBELIL01
_symmetry_cell_setting           monoclinic
_symmetry_space_group_name_H-M   'P 21/c'
_symmetry_Int_Tables_number      14
_space_group_name_Hall           '-P 2ybc'
loop_
_symmetry_equiv_pos_site_id
_symmetry_equiv_pos_as_xyz
1 x,y,z
2 x,1/2-y,1/2+z
3 -x,-y,-z
4 -x,1/2+y,1/2-z
_cell_length_a                   17.839(1)
_cell_length_b                   16.506(1)
_cell_length_c                   16.308(1)
_cell_angle_alpha                90
_cell_angle_beta                 104.908(1)
_cell_angle_gamma                90
_cell_volume                     4640.27
loop_
_atom_site_label
_atom_site_type_symbol
_atom_site_fract_x
_atom_site_fract_y
_atom_site_fract_z
Cu1 Cu -0.09529(4) 0.20031(4) 0.34210(4)
O1 O -0.1696(2) 0.1441(2) 0.2548(2)
C1 C -0.2208(5) 0.0759(4) 0.1294(4)
F1 F -0.2788(3) 0.0496(4) 0.1526(3)
F2 F -0.2387(5) 0.1351(3) 0.0812(3)
F3 F -0.2018(3) 0.0162(3) 0.0825(3)
C2 C -0.1512(3) 0.0958(3) 0.2051(3)
C3 C -0.0796(4) 0.0616(3) 0.2110(3)
H1 H -0.0730 0.0279 0.1678
C4 C -0.0174(3) 0.0765(3) 0.2798(3)
C5 C 0.0596(4) 0.0363(4) 0.2833(4)
F4 F 0.0551(3) -0.0226(3) 0.2294(3)
F5 F 0.0907(2) 0.0065(3) 0.3582(3)
F6 F 0.1088(2) 0.0897(3) 0.2668(3)
O2 O -0.0161(2) 0.1214(2) 0.3412(2)
O3 O -0.1710(2) 0.2844(2) 0.3364(2)
C6 C -0.2233(5) 0.4113(4) 0.3455(5)
F7 F -0.2074(3) 0.4840(3) 0.3841(3)
F8 F -0.2428(3) 0.4239(3) 0.2656(3)
F9 F -0.2843(3) 0.3850(3) 0.3683(4)
C7 C -0.1565(4) 0.3523(3) 0.3749(3)
C8 C -0.0909(4) 0.3744(3) 0.4313(4)
H2 H -0.0880 0.4261 0.4545
C9 C -0.0288(4) 0.3253(3) 0.4560(3)
C10 C 0.0424(5) 0.3567(5) 0.5193(5)
F10 F 0.0860(3) 0.3061(3) 0.5624(3)
F11 F 0.0269(4) 0.4164(4) 0.5654(4)
F12 F 0.0837(3) 0.4010(4) 0.4791(4)
O4 O -0.0215(2) 0.2537(2) 0.4330(2)
Cu2 Cu -0.34007(4) -0.13028(4) 0.34750(4)
O5 O -0.4462(2) -0.1629(3) 0.3751(3)
C11 C -0.5642(6) -0.2247(7) 0.3588(13)
F13 F -0.5760(5) -0.2015(7) 0.4203(8)
F14 F -0.6317(5) -0.2207(6) 0.2932(7)
F15 F -0.5516(4) -0.2977(5) 0.3547(7)
C12 C -0.5034(5) -0.1698(4) 0.3209(5)
C13 C -0.5211(5) -0.1440(6) 0.2366(6)
H3 H -0.5704 -0.1527 0.2013
C14 C -0.4618(7) -0.1030(6) 0.2038(5)
C15 C -0.4920(11) -0.0682(12) 0.1168(9)
F16 F -0.5555(5) -0.0926(8) 0.0726(5)
F17 F -0.4855(10) 0.0052(8) 0.1158(6)
F18 F -0.4446(7) -0.0828(9) 0.0701(5)
O6 O -0.3958(3) -0.0849(3) 0.2411(3)
O7 O -0.3401(2) -0.2352(3) 0.2886(3)
C16 C -0.3588(8) -0.3681(6) 0.2531(14)
F19 F -0.4170(7) -0.3642(5) 0.2062(8)
F20 F -0.3032(5) -0.3909(4) 0.2310(5)
F21 F -0.3692(6) -0.4322(5) 0.2978(6)
C17 C -0.3330(4) -0.2980(6) 0.3243(6)
C18 C -0.3043(6) -0.3138(5) 0.4097(6)
H4 H -0.2971 -0.3671 0.4287
C19 C -0.2852(7) -0.2477(6) 0.4697(6)
C20 C -0.2473(12) -0.2741(9) 0.5553(6)
F22 F -0.1847(8) -0.2395(7) 0.5875(6)
F23 F -0.2762(12) -0.2424(13) 0.6087(8)
F24 F -0.2483(7) -0.3428(5) 0.5774(6)
O8 O -0.2827(2) -0.1777(3) 0.4514(2)
O9 O -0.14134(19) 0.10771(19) 0.4503(2)
N1 N -0.2059(2) 0.0712(2) 0.4387(2)
C21 C -0.2737(3) 0.1034(3) 0.4640(4)
C22 C -0.2618(9) 0.0700(18) 0.5593(5)
H5 H -0.2571 0.0120 0.5594
H6 H -0.3056 0.0849 0.5799
H7 H -0.2155 0.0930 0.5953
C23 C -0.2814(6) 0.1880(5) 0.4551(13)
H8 H -0.2868 0.2026 0.3968
H9 H -0.2361 0.2138 0.4901
H10 H -0.3264 0.2055 0.4721
C24 C -0.3363(4) 0.0474(4) 0.4169(6)
C25 C -0.3736(7) 0.0984(9) 0.3210(7)
H11 H -0.4147 0.0669 0.2856
H12 H -0.3332 0.1060 0.2926
H13 H -0.3934 0.1501 0.3321
C26 C -0.4080(5) 0.0307(6) 0.4295(9)
H14 H -0.4017 0.0011 0.4815
H15 H -0.4374 -0.0013 0.3831
H16 H -0.4349 0.0805 0.4327
N2 N -0.2949(2) -0.0206(2) 0.3888(3)
C27 C -0.2230(3) -0.0031(3) 0.3995(3)
C28 C -0.1642(2) -0.0534(2) 0.3749(2)
C29 C -0.1828(3) -0.0927(3) 0.2971(3)
H17 H -0.2322 -0.0868 0.2610
C30 C -0.1300(3) -0.1396(3) 0.2735(3)
H18 H -0.1433 -0.1663 0.2215
C31 C -0.0557(3) -0.1480(3) 0.3267(3)
C32 C 0.0001(3) -0.1948(3) 0.2992(4)
N3 N 0.0442(4) -0.2311(3) 0.2734(4)
C33 C -0.0381(3) -0.1118(3) 0.4051(3)
H19 H 0.0107 -0.1189 0.4421
C34 C -0.0926(3) -0.0651(3) 0.4291(3)
H20 H -0.0807 -0.0412 0.4826
N3C N -0.0442(4) 0.2689(3) 0.2266(4)
Cu1C Cu 0.09529(4) -0.29969(4) 0.15790(4)
loop_
_geom_bond_atom_site_label_1
_geom_bond_atom_site_label_2
_geom_bond_site_symmetry_1
_geom_bond_site_symmetry_2
Cu1 O1 1_555 1_555
O1 C2 1_555 1_555
C1 F1 1_555 1_555
F2 C1 1_555 1_555
F3 C1 1_555 1_555
C2 C1 1_555 1_555
C3 C2 1_555 1_555
H1 C3 1_555 1_555
C4 C3 1_555 1_555
C5 C4 1_555 1_555
F4 C5 1_555 1_555
F5 C5 1_555 1_555
F6 C5 1_555 1_555
O2 Cu1 1_555 1_555
O3 Cu1 1_555 1_555
C6 F7 1_555 1_555
F8 C6 1_555 1_555
F9 C6 1_555 1_555
C7 O3 1_555 1_555
C8 C7 1_555 1_555
H2 C8 1_555 1_555
C9 C8 1_555 1_555
C10 C9 1_555 1_555
F10 C10 1_555 1_555
F11 C10 1_555 1_555
F12 C10 1_555 1_555
O4 Cu1 1_555 1_555
Cu2 O5 1_555 1_555
O5 C12 1_555 1_555
C11 F13 1_555 1_555
F14 C11 1_555 1_555
F15 C11 1_555 1_555
C12 C11 1_555 1_555
C13 C12 1_555 1_555
H3 C13 1_555 1_555
C14 C13 1_555 1_555
C15 C14 1_555 1_555
F16 C15 1_555 1_555
F17 C15 1_555 1_555
F18 C15 1_555 1_555
O6 Cu2 1_555 1_555
O7 Cu2 1_555 1_555
C16 F19 1_555 1_555
F20 C16 1_555 1_555
F21 C16 1_555 1_555
C17 O7 1_555 1_555
C18 C17 1_555 1_555
H4 C18 1_555 1_555
C19 C18 1_555 1_555
C20 C19 1_555 1_555
F22 C20 1_555 1_555
F23 C20 1_555 1_555
F24 C20 1_555 1_555
O8 Cu2 1_555 1_555
O9 Cu1 1_555 1_555
N1 O9 1_555 1_555
C21 N1 1_555 1_555
C22 C21 1_555 1_555
H5 C22 1_555 1_555
H6 C22 1_555 1_555
H7 C22 1_555 1_555
C23 C21 1_555 1_555
H8 C23 1_555 1_555
H9 C23 1_555 1_555
H10 C23 1_555 1_555
C24 C21 1_555 1_555
C25 C24 1_555 1_555
H11 C25 1_555 1_555
H12 C25 1_555 1_555
H13 C25 1_555 1_555
C26 C24 1_555 1_555
H14 C26 1_555 1_555
H15 C26 1_555 1_555
H16 C26 1_555 1_555
N2 Cu2 1_555 1_555
C27 N1 1_555 1_555
C28 C27 1_555 1_555
C29 C28 1_555 1_555
H17 C29 1_555 1_555
C30 C29 1_555 1_555
H18 C30 1_555 1_555
C31 C30 1_555 1_555
C32 C31 1_555 1_555
N3 C32 1_555 1_555
C33 C31 1_555 1_555
H19 C33 1_555 1_555
C34 C28 1_555 1_555
H20 C34 1_555 1_555
N3C Cu1 1_555 1_555
Cu1C N3 1_555 1_555
C4 O2 1_555 1_555
C6 C7 1_555 1_555
C9 O4 1_555 1_555
C14 O6 1_555 1_555
C16 C17 1_555 1_555
C19 O8 1_555 1_555
C24 N2 1_555 1_555
N2 C27 1_555 1_555
C33 C34 1_555 1_555

#END
