
#######################################################################
#
#                 Cambridge Crystallographic Data Centre
#                                CCDC 
#
#######################################################################
#
# If this CIF has been generated from an entry in the Cambridge 
# Structural Database, then it will include bibliographic, chemical, 
# crystal, experimental, refinement or atomic coordinate data resulting 
# from the CCDC's data processing and validation procedures.
#
#######################################################################

data_IBICUR
_symmetry_cell_setting           monoclinic
_symmetry_space_group_name_H-M   'P 21/c'
_symmetry_Int_Tables_number      14
_space_group_name_Hall           '-P 2ybc'
loop_
_symmetry_equiv_pos_site_id
_symmetry_equiv_pos_as_xyz
1 x,y,z
2 x,1/2-y,1/2+z
3 -x,-y,-z
4 -x,1/2+y,1/2-z
_cell_length_a                   10.9910(10)
_cell_length_b                   24.342(4)
_cell_length_c                   12.352(2)
_cell_angle_alpha                90
_cell_angle_beta                 112.810(10)
_cell_angle_gamma                90
_cell_volume                     3046.25
loop_
_atom_site_label
_atom_site_type_symbol
_atom_site_fract_x
_atom_site_fract_y
_atom_site_fract_z
O11 O 0.6749(6) 0.1693(3) 0.7031(7)
H61 H 0.6744(6) 0.1479(3) 0.7470(7)
H62 H 0.5953(6) 0.1781(3) 0.6784(7)
O12 O 0.2967(4) 0.1099(2) 0.6043(4)
H63 H 0.2549(4) 0.1053(2) 0.5422(4)
H64 H 0.3243(4) 0.1402(2) 0.6179(4)
O13 O 0.1251(5) 0.2378(2) 0.4419(5)
H65 H 0.1119(5) 0.2098(2) 0.4306(5)
H66 H 0.1676(5) 0.2404(2) 0.5035(5)
O14 O -0.1039(7) 0.2989(3) 0.4038(6)
H67 H -0.1783(7) 0.3047(3) 0.3480(6)
H68 H -0.0883(7) 0.3053(3) 0.4768(6)
Zn1 Zn 0.44065(14) 0.51597(6) 0.97852(13)
Zn2 Zn 0.23585(7) 0.33987(3) 0.75670(7)
Zn3 Zn -0.0130(2) 0.47926(7) 0.95493(13)
O1 O 0.3681(10) 0.4406(4) 0.8838(9)
O3 O 0.3217(5) 0.4026(2) 0.7150(4)
O4 O 0.1300(5) 0.3756(2) 0.8582(4)
O5 O -0.0425(5) 0.4307(2) 0.8238(4)
O6 O 0.2759(5) 0.2719(2) 0.6700(4)
O7 O 0.4237(5) 0.2085(2) 0.6833(5)
O8 O -0.1915(9) 0.4671(4) 0.9809(9)
O10 O 0.2791(5) 0.5709(2) 0.9074(5)
N1 N 0.5179(6) 0.5177(2) 0.8667(5)
H1 H 0.5167(6) 0.5528(2) 0.8430(5)
N2 N 0.0415(6) 0.3333(3) 0.6494(6)
H5 H 0.0344(6) 0.3333(3) 0.5743(6)
H6 H 0.0109(6) 0.3009(3) 0.6631(6)
N3 N 0.3732(6) 0.2987(2) 0.8937(5)
H7 H 0.4235(6) 0.3231(2) 0.9471(5)
H8 H 0.3319(6) 0.2775(2) 0.9286(5)
N4 N 0.0480(6) 0.4436(2) 1.1008(6)
H9 H 0.1078(6) 0.4184(2) 1.1006(6)
C1 C 0.3888(6) 0.4357(3) 0.7945(6)
C2 C 0.4548(7) 0.4834(3) 0.7601(6)
C3 C 0.5582(9) 0.4603(4) 0.7184(9)
H13 H 0.5168(9) 0.4335(4) 0.6569(9)
H14 H 0.6258(9) 0.4415(4) 0.7832(9)
C4 C 0.6238(14) 0.5057(6) 0.6710(12)
H18 H 0.6880(14) 0.4893(6) 0.6459(12)
H19 H 0.6665(14) 0.5319(6) 0.7320(12)
H20 H 0.5576(14) 0.5239(6) 0.6057(12)
C6 C 0.3524(9) 0.5168(4) 0.6644(7)
H24 H 0.3948(9) 0.5470(4) 0.6429(7)
H25 H 0.2884(9) 0.5307(4) 0.6927(7)
H26 H 0.3091(9) 0.4940(4) 0.5970(7)
C7 C 0.0201(7) 0.3958(3) 0.7929(6)
C8 C -0.0412(7) 0.3770(3) 0.6642(7)
C9 C -0.1796(10) 0.3610(6) 0.6304(11)
H29 H -0.2159(10) 0.3493(6) 0.5490(11)
H30 H -0.2305(10) 0.3922(6) 0.6382(11)
C10 C -0.1885(13) 0.3156(6) 0.7068(11)
H31 H -0.2792(13) 0.3052(6) 0.6846(11)
H32 H -0.1533(13) 0.3276(6) 0.7872(11)
H33 H -0.1387(13) 0.2847(6) 0.6983(11)
C11 C -0.0346(11) 0.4281(4) 0.5829(7)
H34 H 0.0557(11) 0.4391(4) 0.6041(7)
H35 H -0.0842(11) 0.4584(4) 0.5943(7)
H36 H -0.0712(11) 0.4173(4) 0.5018(7)
C12 C 0.3803(7) 0.2457(3) 0.7255(7)
C13 C 0.4590(7) 0.2637(3) 0.8538(7)
C14 C 0.5147(12) 0.2159(5) 0.9326(9)
H37 H 0.5730(12) 0.1959(5) 0.9044(9)
H38 H 0.5677(12) 0.2295(5) 1.0105(9)
C15 C 0.4166(15) 0.1775(5) 0.9419(12)
H39 H 0.4607(15) 0.1481(5) 0.9941(12)
H40 H 0.3650(15) 0.1628(5) 0.8657(12)
H41 H 0.3597(15) 0.1965(5) 0.9720(12)
C16 C 0.5765(8) 0.2991(4) 0.8529(9)
H42 H 0.5431(8) 0.3303(4) 0.8025(9)
H43 H 0.6307(8) 0.2774(4) 0.8244(9)
H44 H 0.6280(8) 0.3114(4) 0.9312(9)
C17 C 0.1819(7) 0.5558(3) 0.9284(7)
C18 C -0.0495(7) 0.4156(3) 1.1356(6)
C19 C -0.0107(8) 0.4210(4) 1.2664(7)
H45 H -0.0090(8) 0.4598(4) 1.2849(7)
H46 H -0.0795(8) 0.4042(4) 1.2862(7)
C20 C 0.1188(14) 0.3965(6) 1.3443(13)
H50 H 0.1325(14) 0.4025(6) 1.4250(13)
H51 H 0.1888(14) 0.4135(6) 1.3282(13)
H52 H 0.1182(14) 0.3577(6) 1.3295(13)
C22 C -0.0635(11) 0.3563(4) 1.0954(9)
H56 H -0.0881(11) 0.3550(4) 1.0119(9)
H57 H -0.1302(11) 0.3387(4) 1.1151(9)
H58 H 0.0192(11) 0.3377(4) 1.1337(9)
Zn1B Zn 0.55935(14) 0.48403(6) 1.02148(13)
O1B O 0.6319(10) 0.5594(4) 1.1162(9)
N1B N 0.4821(6) 0.4823(2) 1.1333(5)
Zn3B Zn 0.0130(2) 0.52074(7) 1.04507(13)
O8B O 0.1915(9) 0.5329(4) 1.0191(9)
N4B N -0.0480(6) 0.5564(2) 0.8992(6)
C17B C -0.1819(7) 0.4442(3) 1.0716(7)
C18B C 0.0495(7) 0.5844(3) 0.8644(6)
O2? O 0.4308(9) 0.4227(4) 0.9078(8)
O9? O -0.1798(9) 0.4938(4) 1.0261(9)
H2? H 0.6029(6) 0.5075(2) 0.9022(5)
H3? H 0.4651(6) 0.5468(2) 0.8607(5)
H4? H 0.5939(6) 0.5306(2) 0.8652(5)
H10? H 0.0905(6) 0.4686(2) 1.1565(6)
H11? H 0.0590(6) 0.4236(2) 1.0440(6)
H12? H 0.1253(6) 0.4433(2) 1.1634(6)
H15? H 0.6012(14) 0.4900(6) 0.6962(12)
H16? H 0.5161(14) 0.4367(6) 0.6520(12)
H17? H 0.6224(14) 0.4397(6) 0.7808(12)
C5? C 0.4368(23) 0.5598(10) 0.6217(20)
H21? H 0.3778(23) 0.5826(10) 0.5605(20)
H22? H 0.4933(23) 0.5399(10) 0.5926(20)
H23? H 0.4896(23) 0.5823(10) 0.6868(20)
H27? H 0.2951(7) 0.5361(3) 0.6948(6)
H28? H 0.2989(7) 0.4934(3) 0.6000(6)
H47? H -0.0032(14) 0.4592(6) 1.2875(13)
H48? H 0.0725(14) 0.4031(6) 1.3067(13)
H49? H -0.0769(14) 0.4041(6) 1.2882(13)
C21? C 0.0225(35) 0.3238(15) 1.1351(33)
H53? H -0.0062(35) 0.2889(15) 1.0979(33)
H54? H 0.0448(35) 0.3204(15) 1.2180(33)
H55? H 0.0985(35) 0.3359(15) 1.1215(33)
H59? H -0.1395(6) 0.3416(3) 1.1070(7)
H60? H -0.0862(6) 0.3570(3) 1.0113(7)
loop_
_geom_bond_atom_site_label_1
_geom_bond_atom_site_label_2
_geom_bond_site_symmetry_1
_geom_bond_site_symmetry_2
Zn1 O1 1_555 1_555
Zn2 O3 1_555 1_555
Zn3 O5 1_555 1_555
O1 C1 1_555 1_555
O3 C1 1_555 1_555
O4 Zn2 1_555 1_555
O5 C7 1_555 1_555
O6 Zn2 1_555 1_555
O7 C12 1_555 1_555
O8 Zn3 1_555 1_555
O10 Zn1 1_555 1_555
N1 Zn1 1_555 1_555
H1 N1 1_555 1_555
N2 Zn2 1_555 1_555
H5 N2 1_555 1_555
H6 N2 1_555 1_555
N3 Zn2 1_555 1_555
H7 N3 1_555 1_555
H8 N3 1_555 1_555
N4 Zn3 1_555 1_555
H9 N4 1_555 1_555
C1 C2 1_555 1_555
C2 N1 1_555 1_555
C3 C2 1_555 1_555
H13 C3 1_555 1_555
H14 C3 1_555 1_555
C4 C3 1_555 1_555
H18 C4 1_555 1_555
H19 C4 1_555 1_555
H20 C4 1_555 1_555
C6 C2 1_555 1_555
H24 C6 1_555 1_555
H25 C6 1_555 1_555
H26 C6 1_555 1_555
C7 O4 1_555 1_555
C8 N2 1_555 1_555
C9 C8 1_555 1_555
H29 C9 1_555 1_555
H30 C9 1_555 1_555
C10 C9 1_555 1_555
H31 C10 1_555 1_555
H32 C10 1_555 1_555
H33 C10 1_555 1_555
C11 C8 1_555 1_555
H34 C11 1_555 1_555
H35 C11 1_555 1_555
H36 C11 1_555 1_555
C12 O6 1_555 1_555
C13 N3 1_555 1_555
C14 C13 1_555 1_555
H37 C14 1_555 1_555
H38 C14 1_555 1_555
C15 C14 1_555 1_555
H39 C15 1_555 1_555
H40 C15 1_555 1_555
H41 C15 1_555 1_555
C16 C13 1_555 1_555
H42 C16 1_555 1_555
H43 C16 1_555 1_555
H44 C16 1_555 1_555
C17 O10 1_555 1_555
C18 N4 1_555 1_555
C19 C18 1_555 1_555
H45 C19 1_555 1_555
H46 C19 1_555 1_555
C20 C19 1_555 1_555
H50 C20 1_555 1_555
H51 C20 1_555 1_555
H52 C20 1_555 1_555
C22 C18 1_555 1_555
H56 C22 1_555 1_555
H57 C22 1_555 1_555
H58 C22 1_555 1_555
O11 H61 1_555 1_555
H62 O11 1_555 1_555
O12 H63 1_555 1_555
H64 O12 1_555 1_555
O13 H65 1_555 1_555
H66 O13 1_555 1_555
O14 H67 1_555 1_555
H68 O14 1_555 1_555
Zn1B Zn1 1_555 1_555
O1B Zn1 1_555 1_555
N1B Zn1 1_555 1_555
Zn3B Zn3 1_555 1_555
O8B Zn3 1_555 1_555
N4B Zn3 1_555 1_555
C17B O8 1_555 1_555
C18B C17 1_555 1_555
O1 Zn1B 1_555 1_555
O8 Zn3B 1_555 1_555
N1 Zn1B 1_555 1_555
N4 Zn3B 1_555 1_555
C7 C8 1_555 1_555
C12 C13 1_555 1_555
C17 O8B 1_555 1_555
C18 C17B 1_555 1_555
Zn1B O1B 1_555 1_555
Zn1B N1B 1_555 1_555
Zn3B O8B 1_555 1_555
Zn3B N4B 1_555 1_555
N4B C18B 1_555 1_555

#END
