
#######################################################################
#
#                 Cambridge Crystallographic Data Centre
#                                CCDC 
#
#######################################################################
#
# If this CIF has been generated from an entry in the Cambridge 
# Structural Database, then it will include bibliographic, chemical, 
# crystal, experimental, refinement or atomic coordinate data resulting 
# from the CCDC's data processing and validation procedures.
#
#######################################################################

data_IBIDUU
_symmetry_cell_setting           monoclinic
_symmetry_space_group_name_H-M   'C 2/m'
_symmetry_Int_Tables_number      12
_space_group_name_Hall           '-C 2y'
loop_
_symmetry_equiv_pos_site_id
_symmetry_equiv_pos_as_xyz
1 x,y,z
2 -x,y,-z
3 1/2+x,1/2+y,z
4 1/2-x,1/2+y,-z
5 -x,-y,-z
6 x,-y,z
7 1/2-x,1/2-y,-z
8 1/2+x,1/2-y,z
_cell_length_a                   23.055(6)
_cell_length_b                   10.464(2)
_cell_length_c                   16.667(4)
_cell_angle_alpha                90
_cell_angle_beta                 117.976(2)
_cell_angle_gamma                90
_cell_volume                     3551.01
loop_
_atom_site_label
_atom_site_type_symbol
_atom_site_fract_x
_atom_site_fract_y
_atom_site_fract_z
Cl2 Cl 0.6154(5) 0.5000 0.9003(7)
O1 O 0.4161(2) -0.5000 0.2881(3)
O2 O 0.6523(2) -0.5000 0.5745(3)
O3 O 0.5000 -0.3496(5) 0.5000
Cl1 Cl 0.60620(11) -0.5000 0.25305(17)
Ba1 Ba 0.552123(15) -0.5000 0.39640(2)
C1 C 0.66364(18) -0.1857(4) 0.4602(3)
C2 C 0.6908(2) 0.0000 0.4059(4)
H1 H 0.7212 0.0000 0.3793
C3 C 0.7284(3) 0.0000 0.5109(4)
H2 H 0.7765 0.0000 0.5339
C4 C 0.73335(18) -0.1682(4) 0.6260(3)
H3 H 0.7807 -0.1510 0.6575
H4 H 0.7274 -0.2611 0.6223
C5 C 0.66312(18) -0.1840(4) 0.7010(3)
C6 C 0.7284(2) 0.0000 0.7322(4)
H5 H 0.7768 0.0000 0.7694
C7 C 0.6928(3) 0.0000 0.7920(4)
H6 H 0.7243 0.0000 0.8576
C8 C 0.62459(18) -0.1715(4) 0.8168(3)
H7 H 0.6549 -0.1601 0.8816
H8 H 0.6189 -0.2635 0.8048
C9 C 0.50481(19) -0.1812(4) 0.7467(3)
C10 C 0.5530(3) 0.0000 0.8398(4)
C11 C 0.4764(3) 0.0000 0.8054(4)
C12 C 0.61187(18) -0.1646(4) 0.2928(3)
H9 H 0.6104 -0.2581 0.2948
H10 H 0.6326 -0.1415 0.2553
C13 C 0.5959(3) 0.0000 0.9422(4)
H13 H 0.5845 -0.0725 0.9683
C14 C 0.4558(3) 0.0000 0.8795(4)
H14 H 0.4706 0.0783 0.9145
N1 N 0.65224(16) -0.1172(3) 0.3843(2)
N2 N 0.70605(15) -0.1171(3) 0.5345(2)
N3 N 0.70444(15) -0.1164(3) 0.6790(2)
N4 N 0.65408(15) -0.1169(3) 0.7646(2)
N5 N 0.56178(15) -0.1165(3) 0.7973(2)
N6 N 0.54564(15) -0.1163(3) 0.2503(2)
O4 O 0.64208(14) -0.2920(3) 0.46095(19)
O5 O 0.50021(14) -0.2821(3) 0.7070(2)
O6 O 0.63893(14) -0.2886(3) 0.6697(2)
O1A O 0.5839(2) -0.5000 0.7119(3)
O2A O 0.3477(2) -0.5000 0.4255(3)
O3D O 0.5000 -0.6504(5) 0.5000
Cl1A Cl 0.39380(11) -0.5000 0.74695(17)
Ba1A Ba 0.447877(15) -0.5000 0.60360(2)
Ba1A_2 Ba 0.447877(15) 0.5000 0.60360(2)
Ba1_2 Ba 0.552123(15) 0.5000 0.39640(2)
C1E C 0.66364(18) 0.1857(4) 0.4602(3)
C1D C 0.33636(18) 0.1857(4) 0.5398(3)
C1A C 0.33636(18) -0.1857(4) 0.5398(3)
C2A C 0.3092(2) 0.0000 0.5941(4)
H1A H 0.2788 0.0000 0.6207
C3A C 0.2716(3) 0.0000 0.4891(4)
H2A H 0.2235 0.0000 0.4661
C4E C 0.73335(18) 0.1682(4) 0.6260(3)
C4D C 0.26665(18) 0.1682(4) 0.3740(3)
C4A C 0.26665(18) -0.1682(4) 0.3740(3)
H3E H 0.7807 0.1510 0.6575
H3D H 0.2193 0.1510 0.3425
H3A H 0.2193 -0.1510 0.3425
H4E H 0.7274 0.2611 0.6223
H4D H 0.2726 0.2611 0.3777
H4A H 0.2726 -0.2611 0.3777
C5D C 0.33688(18) 0.1840(4) 0.2990(3)
C5E C 0.66312(18) 0.1840(4) 0.7010(3)
C5A C 0.33688(18) -0.1840(4) 0.2990(3)
C6A C 0.2716(2) 0.0000 0.2678(4)
H5A H 0.2232 0.0000 0.2306
C7A C 0.3072(3) 0.0000 0.2080(4)
H6A H 0.2757 0.0000 0.1424
C8D C 0.37541(18) 0.1715(4) 0.1832(3)
C8E C 0.62459(18) 0.1715(4) 0.8168(3)
C8A C 0.37541(18) -0.1715(4) 0.1832(3)
H7D H 0.3451 0.1601 0.1184
H7E H 0.6549 0.1601 0.8816
H7A H 0.3451 -0.1601 0.1184
H8D H 0.3811 0.2635 0.1952
H8E H 0.6189 0.2635 0.8048
H8A H 0.3811 -0.2635 0.1952
C9D C 0.49519(19) 0.1812(4) 0.2533(3)
C9E C 0.50481(19) 0.1812(4) 0.7467(3)
C9A C 0.49519(19) -0.1812(4) 0.2533(3)
C10A C 0.4470(3) 0.0000 0.1602(4)
C11A C 0.5236(3) 0.0000 0.1946(4)
C12E C 0.61187(18) 0.1646(4) 0.2928(3)
C12A C 0.38813(18) -0.1646(4) 0.7072(3)
C12D C 0.38813(18) 0.1646(4) 0.7072(3)
H9E H 0.6104 0.2581 0.2948
H9A H 0.3896 -0.2581 0.7052
H9D H 0.3896 0.2581 0.7052
H10E H 0.6326 0.1415 0.2553
H10A H 0.3674 -0.1415 0.7447
H10D H 0.3674 0.1415 0.7447
C13A C 0.4041(3) 0.0000 0.0578(4)
H13E H 0.5845 0.0725 0.9683
H13A H 0.4155 -0.0725 0.0317
H13D H 0.4155 0.0725 0.0317
C14A C 0.5442(3) 0.0000 0.1205(4)
H14E H 0.4706 -0.0783 0.9145
H14A H 0.5294 0.0783 0.0855
H14D H 0.5294 -0.0783 0.0855
N1E N 0.65224(16) 0.1172(3) 0.3843(2)
N1D N 0.34776(16) 0.1172(3) 0.6157(2)
N1A N 0.34776(16) -0.1172(3) 0.6157(2)
N2E N 0.70605(15) 0.1171(3) 0.5345(2)
N2D N 0.29395(15) 0.1171(3) 0.4655(2)
N2A N 0.29395(15) -0.1171(3) 0.4655(2)
N3E N 0.70444(15) 0.1164(3) 0.6790(2)
N3D N 0.29556(15) 0.1164(3) 0.3210(2)
N3A N 0.29556(15) -0.1164(3) 0.3210(2)
N4D N 0.34592(15) 0.1169(3) 0.2354(2)
N4E N 0.65408(15) 0.1169(3) 0.7646(2)
N4A N 0.34592(15) -0.1169(3) 0.2354(2)
N5D N 0.43822(15) 0.1165(3) 0.2027(2)
N5E N 0.56178(15) 0.1165(3) 0.7973(2)
N5A N 0.43822(15) -0.1165(3) 0.2027(2)
N6E N 0.54564(15) 0.1163(3) 0.2503(2)
N6A N 0.45436(15) -0.1163(3) 0.7497(2)
N6D N 0.45436(15) 0.1163(3) 0.7497(2)
O4A O 0.35792(14) -0.2920(3) 0.53905(19)
O4D O 0.35792(14) 0.2920(3) 0.53905(19)
O4E O 0.64208(14) 0.2920(3) 0.46095(19)
O4E_2 O 0.64208(14) -0.7080(3) 0.46095(19)
O4D_2 O 0.35792(14) -0.7080(3) 0.53905(19)
O5E O 0.50021(14) 0.2821(3) 0.7070(2)
O5A O 0.49979(14) -0.2821(3) 0.2930(2)
O5D O 0.49979(14) 0.2821(3) 0.2930(2)
O5D_2 O 0.49979(14) -0.7179(3) 0.2930(2)
O5E_2 O 0.50021(14) -0.7179(3) 0.7070(2)
O6E O 0.63893(14) 0.2886(3) 0.6697(2)
O6A O 0.36107(14) -0.2886(3) 0.3303(2)
O6D O 0.36107(14) 0.2886(3) 0.3303(2)
H11? H 0.5889 0.0785 0.9674
H12? H 0.6417 -0.0060 0.9563
H15? H 0.4754 -0.0727 0.9193
H16? H 0.4084 -0.0056 0.8523
Cl3? Cl 0.4730(10) 0.5000 0.8149(15)
loop_
_geom_bond_atom_site_label_1
_geom_bond_atom_site_label_2
_geom_bond_site_symmetry_1
_geom_bond_site_symmetry_2
O1 Ba1 1_555 1_555
O2 Ba1 1_555 1_555
O3 Ba1 1_555 1_555
Cl1 Ba1 1_555 1_555
Ba1 O4 1_555 1_555
C1 N1 1_555 1_555
C2 H1 1_555 1_555
C3 C2 1_555 1_555
H2 C3 1_555 1_555
C4 H3 1_555 1_555
H4 C4 1_555 1_555
C5 N3 1_555 1_555
C6 H5 1_555 1_555
C7 C6 1_555 1_555
H6 C7 1_555 1_555
C8 H7 1_555 1_555
H8 C8 1_555 1_555
C9 N5 1_555 1_555
C10 C11 1_555 1_555
C11 C14 1_555 1_555
C12 H9 1_555 1_555
H10 C12 1_555 1_555
C13 C10 1_555 1_555
H13 C13 1_555 1_555
C14 H14 1_555 1_555
N1 C2 1_555 1_555
N2 C1 1_555 1_555
N3 C4 1_555 1_555
N4 C5 1_555 1_555
N5 C8 1_555 1_555
N6 C12 1_555 1_555
O4 C1 1_555 1_555
O5 C9 1_555 1_555
O6 C5 1_555 1_555
O1A Ba1A 1_555 1_555
O2A Ba1A 1_555 1_555
O3D Ba1 1_555 1_555
Cl1A Ba1A 1_555 1_555
Ba1A O3 1_555 1_555
Ba1A_2 O4D 1_555 1_555
Ba1_2 O4E 1_555 1_555
C1E N1E 1_555 1_555
C1D N1D 1_555 1_555
C1A N1A 1_555 1_555
C2A H1A 1_555 1_555
C3A C2A 1_555 1_555
H2A C3A 1_555 1_555
C4E H3E 1_555 1_555
C4D H3D 1_555 1_555
C4A H3A 1_555 1_555
H4E C4E 1_555 1_555
H4D C4D 1_555 1_555
H4A C4A 1_555 1_555
C5D N3D 1_555 1_555
C5E N3E 1_555 1_555
C5A N3A 1_555 1_555
C6A H5A 1_555 1_555
C7A C6A 1_555 1_555
H6A C7A 1_555 1_555
C8D H7D 1_555 1_555
C8E H7E 1_555 1_555
C8A H7A 1_555 1_555
H8D C8D 1_555 1_555
H8E C8E 1_555 1_555
H8A C8A 1_555 1_555
C9D N5D 1_555 1_555
C9E N5E 1_555 1_555
C9A N6 1_555 1_555
C10A C11A 1_555 1_555
C11A N6 1_555 1_555
C12E H9E 1_555 1_555
C12A H9A 1_555 1_555
C12D H9D 1_555 1_555
H10E C12E 1_555 1_555
H10A C12A 1_555 1_555
H10D C12D 1_555 1_555
C13A C10A 1_555 1_555
H13E C13 1_555 1_555
H13A C13A 1_555 1_555
H13D C13A 1_555 1_555
C14A C11A 1_555 1_555
H14E C14 1_555 1_555
H14A C14A 1_555 1_555
H14D C14A 1_555 1_555
N1E C2 1_555 1_555
N1D C2A 1_555 1_555
N1A C2A 1_555 1_555
N2E C3 1_555 1_555
N2D C1D 1_555 1_555
N2A C1A 1_555 1_555
N3E C6 1_555 1_555
N3D C4D 1_555 1_555
N3A C4A 1_555 1_555
N4D C5D 1_555 1_555
N4E C7 1_555 1_555
N4A C5A 1_555 1_555
N5D C8D 1_555 1_555
N5E C10 1_555 1_555
N5A C8A 1_555 1_555
N6E C9D 1_555 1_555
N6A C9 1_555 1_555
N6D C11 1_555 1_555
O4A Ba1A 1_555 1_555
O4D C1D 1_555 1_555
O4E C1E 1_555 1_555
O4E_2 Ba1 1_555 1_555
O4D_2 Ba1A 1_555 1_555
O5E Ba1A_2 1_555 1_555
O5A Ba1 1_555 1_555
O5D Ba1_2 1_555 1_555
O5D_2 Ba1 1_555 1_555
O5E_2 Ba1A 1_555 1_555
O6E C5E 1_555 1_555
O6A C5A 1_555 1_555
O6D C5D 1_555 1_555
C3 N2 1_555 1_555
C4 N2 1_555 1_555
C6 N3 1_555 1_555
C7 N4 1_555 1_555
C8 N4 1_555 1_555
C10 N5 1_555 1_555
C11 N6A 1_555 1_555
C12 N1 1_555 1_555
O5 Ba1A 1_555 1_555
O3D Ba1A 1_555 1_555
C1E N2E 1_555 1_555
C1A O4A 1_555 1_555
C3A N2D 1_555 1_555
C3A N2A 1_555 1_555
C4E N2E 1_555 1_555
C4E N3E 1_555 1_555
C4D N2D 1_555 1_555
C4A N2A 1_555 1_555
C5E N4E 1_555 1_555
C6A N3D 1_555 1_555
C6A N3A 1_555 1_555
C7A N4D 1_555 1_555
C7A N4A 1_555 1_555
C8D N4D 1_555 1_555
C8E N4E 1_555 1_555
C8E N5E 1_555 1_555
C8A N4A 1_555 1_555
C9D O5D 1_555 1_555
C9E N6D 1_555 1_555
C9E O5E 1_555 1_555
C9A N5A 1_555 1_555
C9A O5A 1_555 1_555
C10A N5D 1_555 1_555
C10A N5A 1_555 1_555
C11A N6E 1_555 1_555
C12E N1E 1_555 1_555
C12E N6E 1_555 1_555
C12A N1A 1_555 1_555
C12A N6A 1_555 1_555
C12D N1D 1_555 1_555
C12D N6D 1_555 1_555

#END
