
#######################################################################
#
#                 Cambridge Crystallographic Data Centre
#                                CCDC 
#
#######################################################################
#
# If this CIF has been generated from an entry in the Cambridge 
# Structural Database, then it will include bibliographic, chemical, 
# crystal, experimental, refinement or atomic coordinate data resulting 
# from the CCDC's data processing and validation procedures.
#
#######################################################################

data_IBIFIK
_symmetry_cell_setting           orthorhombic
_symmetry_space_group_name_H-M   'F d d d'
_symmetry_Int_Tables_number      70
_space_group_name_Hall           '-F 2uv 2vw'
loop_
_symmetry_equiv_pos_site_id
_symmetry_equiv_pos_as_xyz
1 x,y,z
2 3/4-x,3/4-y,z
3 3/4-x,y,3/4-z
4 x,3/4-y,3/4-z
5 x,1/2+y,1/2+z
6 3/4-x,1/4-y,1/2+z
7 3/4-x,1/2+y,1/4-z
8 x,1/4-y,1/4-z
9 1/2+x,y,1/2+z
10 1/4-x,3/4-y,1/2+z
11 1/4-x,y,1/4-z
12 1/2+x,3/4-y,1/4-z
13 1/2+x,1/2+y,z
14 1/4-x,1/4-y,z
15 1/4-x,1/2+y,3/4-z
16 1/2+x,1/4-y,3/4-z
17 -x,-y,-z
18 1/4+x,1/4+y,-z
19 1/4+x,-y,1/4+z
20 -x,1/4+y,1/4+z
21 -x,1/2-y,1/2-z
22 1/4+x,3/4+y,1/2-z
23 1/4+x,1/2-y,3/4+z
24 -x,3/4+y,3/4+z
25 1/2-x,-y,1/2-z
26 3/4+x,1/4+y,1/2-z
27 3/4+x,-y,3/4+z
28 1/2-x,1/4+y,3/4+z
29 1/2-x,1/2-y,-z
30 3/4+x,3/4+y,-z
31 3/4+x,1/2-y,1/4+z
32 1/2-x,3/4+y,1/4+z
_cell_length_a                   22.0717(17)
_cell_length_b                   31.444(3)
_cell_length_c                   32.9292(17)
_cell_angle_alpha                90
_cell_angle_beta                 90
_cell_angle_gamma                90
_cell_volume                     22853.6
loop_
_atom_site_label
_atom_site_type_symbol
_atom_site_fract_x
_atom_site_fract_y
_atom_site_fract_z
O2 O 0.8749(2) 0.9579(2) 0.32153(16)
O4 O 1.3750 0.8750 0.3079(2)
K1 K 0.8750 0.8750 0.27927(6)
K2 K 1.29635(18) 0.91448(10) 0.36699(10)
Cl2 Cl 0.8750 0.8750 0.18878(6)
C1 C 1.02989(16) 0.98593(11) 0.36711(11)
C2 C 1.10813(17) 1.02953(11) 0.39004(11)
H1 H 1.1006 1.0582 0.4006
C3 C 1.10827(16) 1.02895(11) 0.34314(11)
H2 H 1.1007 1.0573 0.3319
C4 C 1.20372(17) 1.00782(11) 0.36710(11)
C5 C 1.03325(15) 0.99949(12) 0.29304(11)
H3 H 1.0371 1.0277 0.2813
H4 H 0.9904 0.9933 0.2956
C6 C 1.19160(16) 1.01191(11) 0.29240(11)
H5 H 1.2355 1.0111 0.2935
H6 H 1.1800 1.0376 0.2781
C7 C 1.03057(16) 0.93159(12) 0.25690(10)
C8 C 1.11737(15) 0.97415(12) 0.24314(10)
C9 C 1.12397(15) 0.92926(12) 0.22165(11)
C10 C 1.20103(16) 0.93759(12) 0.27062(11)
C11 C 1.04517(17) 0.86826(12) 0.21446(11)
H7 H 1.0013 0.8685 0.2134
H8 H 1.0598 0.8653 0.1868
C12 C 1.20211(17) 0.86955(12) 0.23460(12)
H9 H 1.2440 0.8701 0.2435
H10 H 1.2020 0.8659 0.2053
C13 C 1.02855(17) 0.81251(12) 0.26620(11)
C14 C 1.12259(16) 0.81103(12) 0.23327(11)
H11 H 1.1320 0.8044 0.2049
C15 C 1.11606(17) 0.77006(12) 0.25943(11)
H12 H 1.1137 0.7444 0.2426
C16 C 1.20051(17) 0.80851(12) 0.28163(11)
C17 C 1.03218(17) 1.00156(13) 0.44052(11)
H13 H 0.9895 0.9948 0.4379
H14 H 1.0353 1.0301 0.4515
C18 C 1.19076(18) 1.01480(12) 0.44145(12)
H15 H 1.1787 1.0411 0.4546
H16 H 1.2347 1.0142 0.4406
C19 C 1.11560(17) 1.01255(13) 0.21464(12)
H17 H 1.0806 1.0107 0.1974
H18 H 1.1515 1.0129 0.1982
H19 H 1.1136 1.0382 0.2304
C20 C 1.1360(2) 0.93096(14) 0.17615(11)
H20 H 1.1748 0.9438 0.1713
H21 H 1.1050 0.9475 0.1632
H22 H 1.1358 0.9026 0.1653
N1 N 1.05968(13) 1.00081(10) 0.40057(9)
N2 N 1.06006(13) 0.99983(10) 0.33317(9)
N3 N 1.16799(14) 1.01485(10) 0.40044(9)
N4 N 1.16845(13) 1.01404(10) 0.33325(9)
N5 N 1.06011(13) 0.96894(10) 0.26548(9)
N6 N 1.06561(14) 0.90875(10) 0.23028(9)
N7 N 1.17037(13) 0.97552(9) 0.26950(9)
N8 N 1.17429(14) 0.90996(10) 0.24429(10)
N9 N 1.06429(14) 0.83151(10) 0.23735(10)
N10 N 1.05977(14) 0.97198(10) 0.46887(10)
N11 N 1.17221(14) 0.83317(10) 0.25306(10)
N12 N 1.16976(15) 0.97931(10) 0.46589(10)
O7 O 0.98468(12) 0.96337(9) 0.36755(8)
O8 O 0.98109(12) 0.92155(9) 0.26957(9)
O9 O 0.97776(13) 0.82277(10) 0.27566(10)
O10 O 1.25777(12) 0.99875(9) 0.36756(9)
O11 O 1.24601(12) 0.93066(9) 0.29129(9)
O12 O 1.24618(12) 0.81766(9) 0.30075(9)
O2A O 0.8751(2) 0.7921(2) 0.32153(16)
K2A K 1.45365(18) 0.83552(10) 0.36699(10)
K2B K 1.45365(18) 0.91448(10) 0.38301(10)
K2C K 1.29635(18) 0.83552(10) 0.38301(10)
C13C C 1.02855(17) 0.93749(12) 0.48380(11)
C15C C 1.11606(17) 0.97994(12) 0.49057(11)
C16C C 1.20051(17) 0.94149(12) 0.46837(11)
N10C N 1.05977(14) 0.77802(10) 0.28113(10)
N12C N 1.16976(15) 0.77069(10) 0.28411(10)
O8A O 0.76891(12) 0.82845(9) 0.26957(9)
O9A O 0.77224(13) 0.92723(10) 0.27566(10)
O12C O 1.24618(12) 0.93234(9) 0.44925(9)
Cl1 Cl 1.1250 1.1250 0.28840(5)
Cl3 Cl 1.0656(2) 0.81983(9) 0.11847(9)
O1 O 1.0377(2) 1.13679(14) 0.36642(15)
O3? O 0.8743(5) 0.9871(5) 0.3347(3)
O5? O 1.2043(5) 0.8957(3) 0.3718(3)
O6? O 0.8701(9) 0.8984(6) 0.3546(6)
K3? K 1.3361(7) 0.9282(3) 0.3687(4)
Cl4? Cl 1.0401(7) 0.8154(3) 0.1099(4)
loop_
_geom_bond_atom_site_label_1
_geom_bond_atom_site_label_2
_geom_bond_site_symmetry_1
_geom_bond_site_symmetry_2
O2 K1 1_555 1_555
O4 K2 1_555 1_555
K1 Cl2 1_555 1_555
K2 O10 1_555 1_555
C1 N1 1_555 1_555
C2 H1 1_555 1_555
C3 C2 1_555 1_555
H2 C3 1_555 1_555
C4 N3 1_555 1_555
C5 H3 1_555 1_555
H4 C5 1_555 1_555
C6 H5 1_555 1_555
H6 C6 1_555 1_555
C7 N5 1_555 1_555
C8 C9 1_555 1_555
C9 C20 1_555 1_555
C10 N7 1_555 1_555
C11 H7 1_555 1_555
H8 C11 1_555 1_555
C12 H9 1_555 1_555
H10 C12 1_555 1_555
C13 N9 1_555 1_555
C14 H11 1_555 1_555
C15 C14 1_555 1_555
H12 C15 1_555 1_555
C16 N11 1_555 1_555
C17 H13 1_555 1_555
H14 C17 1_555 1_555
C18 H15 1_555 1_555
H16 C18 1_555 1_555
C19 C8 1_555 1_555
H17 C19 1_555 1_555
H18 C19 1_555 1_555
H19 C19 1_555 1_555
C20 H20 1_555 1_555
H21 C20 1_555 1_555
H22 C20 1_555 1_555
N1 C2 1_555 1_555
N2 C1 1_555 1_555
N3 C2 1_555 1_555
N4 C3 1_555 1_555
N5 C5 1_555 1_555
N6 C7 1_555 1_555
N7 C6 1_555 1_555
N8 C9 1_555 1_555
N9 C11 1_555 1_555
N10 C17 1_555 1_555
N11 C12 1_555 1_555
N12 C18 1_555 1_555
O7 C1 1_555 1_555
O8 K1 1_555 1_555
O9 K1 1_555 1_555
O10 C4 1_555 1_555
O11 K2 1_555 1_555
O12 C16 1_555 1_555
O2A K1 1_555 1_555
K2A O4 1_555 1_555
K2B K2 1_555 1_555
K2C K2 1_555 1_555
C13C N10 1_555 1_555
C15C N10 1_555 1_555
C16C N12 1_555 1_555
N10C C13 1_555 1_555
N12C C15 1_555 1_555
O8A K1 1_555 1_555
O9A K1 1_555 1_555
O12C K2 1_555 1_555
C3 N2 1_555 1_555
C4 N4 1_555 1_555
C5 N2 1_555 1_555
C6 N4 1_555 1_555
C7 O8 1_555 1_555
C8 N5 1_555 1_555
C8 N7 1_555 1_555
C9 N6 1_555 1_555
C10 N8 1_555 1_555
C10 O11 1_555 1_555
C11 N6 1_555 1_555
C12 N8 1_555 1_555
C13 O9 1_555 1_555
C14 N9 1_555 1_555
C14 N11 1_555 1_555
C15 N10C 1_555 1_555
C16 N12C 1_555 1_555
C17 N1 1_555 1_555
C18 N3 1_555 1_555
N12 C15C 1_555 1_555
O12 K2C 1_555 1_555
K2A K2B 1_555 1_555
K2A K2C 1_555 1_555
C16C O12C 1_555 1_555

#END
