
#######################################################################
#
#                 Cambridge Crystallographic Data Centre
#                                CCDC 
#
#######################################################################
#
# If this CIF has been generated from an entry in the Cambridge 
# Structural Database, then it will include bibliographic, chemical, 
# crystal, experimental, refinement or atomic coordinate data resulting 
# from the CCDC's data processing and validation procedures.
#
#######################################################################

data_IBIGUX
_symmetry_cell_setting           monoclinic
_symmetry_space_group_name_H-M   'C 2/c'
_symmetry_Int_Tables_number      15
_space_group_name_Hall           '-C 2yn'
loop_
_symmetry_equiv_pos_site_id
_symmetry_equiv_pos_as_xyz
1 x,y,z
2 -x,y,1/2-z
3 1/2+x,1/2+y,z
4 1/2-x,1/2+y,1/2-z
5 -x,-y,-z
6 x,-y,1/2+z
7 1/2-x,1/2-y,-z
8 1/2+x,1/2-y,1/2+z
_cell_length_a                   39.346(3)
_cell_length_b                   17.2158(9)
_cell_length_c                   35.118(2)
_cell_angle_alpha                90
_cell_angle_beta                 108.280(2)
_cell_angle_gamma                90
_cell_volume                     22587.5
loop_
_atom_site_label
_atom_site_type_symbol
_atom_site_fract_x
_atom_site_fract_y
_atom_site_fract_z
Fe2 Fe 0.19993(5) 0.00059(11) 0.44915(6)
N7 N 0.2124(3) -0.0940(6) 0.4240(3)
N8 N 0.2401(3) -0.0347(6) 0.4957(3)
N9 N 0.2326(3) 0.0663(6) 0.4305(3)
N10 N 0.1905(3) 0.0984(6) 0.4730(3)
N11 N 0.1593(3) 0.0194(6) 0.4005(3)
N12 N 0.1636(3) -0.0590(6) 0.4654(3)
C37 C 0.1998(3) -0.1210(8) 0.3867(4)
H25 H 0.1807 -0.0944 0.3684
C38 C 0.2133(4) -0.1863(9) 0.3733(4)
H26 H 0.2032 -0.2028 0.3466
C39 C 0.2402(4) -0.2256(9) 0.3978(5)
H27 H 0.2495 -0.2691 0.3883
C40 C 0.2554(4) -0.2025(8) 0.4385(4)
C41 C 0.2408(4) -0.1340(8) 0.4496(4)
C42 C 0.2538(4) -0.0024(10) 0.5319(4)
H28 H 0.2432 0.0427 0.5383
C43 C 0.2840(4) -0.0350(11) 0.5609(5)
H29 H 0.2933 -0.0101 0.5858
C44 C 0.2997(4) -0.1001(11) 0.5541(4)
H30 H 0.3195 -0.1214 0.5739
C45 C 0.2857(4) -0.1358(9) 0.5162(4)
C46 C 0.2556(3) -0.1004(8) 0.4882(4)
C47 C 0.2850(4) -0.2364(10) 0.4667(5)
H31 H 0.2958 -0.2801 0.4593
C48 C 0.2986(4) -0.2080(9) 0.5045(5)
H32 H 0.3168 -0.2357 0.5235
C49 C 0.2563(3) 0.0501(9) 0.4120(4)
H33 H 0.2605 -0.0026 0.4083
C50 C 0.2750(4) 0.1025(9) 0.3980(5)
H34 H 0.2919 0.0861 0.3858
C51 C 0.2688(4) 0.1812(10) 0.4020(5)
H35 H 0.2806 0.2188 0.3914
C52 C 0.2443(4) 0.2040(8) 0.4226(4)
C53 C 0.2278(3) 0.1439(8) 0.4368(4)
C54 C 0.1699(4) 0.1124(9) 0.4964(4)
H36 H 0.1598 0.0706 0.5063
C55 C 0.1632(4) 0.1900(9) 0.5065(4)
H37 H 0.1491 0.1986 0.5232
C56 C 0.1770(4) 0.2512(9) 0.4924(5)
H38 H 0.1720 0.3022 0.4986
C57 C 0.1988(4) 0.2378(8) 0.4682(4)
C58 C 0.2050(4) 0.1617(8) 0.4600(4)
C59 C 0.2371(4) 0.2827(9) 0.4301(5)
H39 H 0.2476 0.3230 0.4196
C60 C 0.2153(4) 0.3002(9) 0.4524(5)
H40 H 0.2109 0.3522 0.4574
C61 C 0.1573(3) 0.0609(9) 0.3677(4)
H41 H 0.1765 0.0934 0.3677
C62 C 0.1267(4) 0.0574(9) 0.3324(4)
H42 H 0.1261 0.0877 0.3100
C63 C 0.0985(4) 0.0111(9) 0.3309(4)
H43 H 0.0787 0.0076 0.3075
C64 C 0.0997(3) -0.0313(8) 0.3652(4)
C65 C 0.1300(3) -0.0262(8) 0.3988(4)
C66 C 0.1662(3) -0.0939(6) 0.5002(4)
H44 H 0.1874 -0.0877 0.5217
C67 C 0.1386(4) -0.1394(9) 0.5059(5)
H45 H 0.1410 -0.1618 0.5310
C68 C 0.1075(4) -0.1506(9) 0.4737(4)
H46 H 0.0894 -0.1838 0.4763
C69 C 0.1034(3) -0.1122(8) 0.4375(4)
C70 C 0.1320(3) -0.0669(8) 0.4337(4)
C71 C 0.0702(4) -0.0802(9) 0.3680(4)
H47 H 0.0495 -0.0856 0.3457
C72 C 0.0728(4) -0.1172(9) 0.4022(5)
H48 H 0.0535 -0.1482 0.4033
N13 N 0.1149(4) 0.1884(9) 0.4049(4)
N14 N 0.1504(4) 0.2509(9) 0.3546(5)
C73 C 0.1691(6) 0.2776(14) 0.3308(7)
H49 H 0.1803 0.2429 0.3178
C74 C 0.1716(5) 0.3609(13) 0.3258(7)
H50 H 0.1834 0.3807 0.3083
C75 C 0.1572(6) 0.4097(13) 0.3463(7)
H51 H 0.1594 0.4636 0.3436
C76 C 0.1390(5) 0.3808(11) 0.3715(7)
C77 C 0.1360(5) 0.3007(10) 0.3757(6)
C78 C 0.0958(5) 0.1624(13) 0.4291(6)
H52 H 0.0931 0.1084 0.4311
C79 C 0.0801(5) 0.2096(14) 0.4507(6)
H53 H 0.0666 0.1880 0.4659
C80 C 0.0848(5) 0.2916(16) 0.4496(6)
H54 H 0.0757 0.3248 0.4653
C81 C 0.1033(5) 0.3217(12) 0.4248(6)
C82 C 0.1176(4) 0.2680(12) 0.4021(5)
C83 C 0.1231(6) 0.4304(13) 0.3934(8)
H55 H 0.1242 0.4842 0.3893
C84 C 0.1061(5) 0.4056(13) 0.4205(8)
H56 H 0.0968 0.4408 0.4351
O1 O 0.3367(10) 0.0516(19) 0.4818(10)
O2 O 0.1933(3) 0.1453(6) 0.1045(3)
In1 In 0.29449(2) 0.08824(6) 0.19679(3)
In2 In 0.37513(2) 0.23267(6) 0.22772(3)
In3 In 0.35553(3) 0.08279(6) 0.30877(3)
In4 In 0.28785(2) 0.26450(6) 0.26362(3)
In5 In 0.45390(2) 0.38483(6) 0.26635(3)
In6 In 0.43813(2) 0.24081(6) 0.34384(3)
In7 In 0.36922(2) 0.42088(5) 0.29785(3)
In8 In 0.41499(3) 0.09439(6) 0.41701(3)
In9 In 0.35210(2) 0.27014(5) 0.38031(3)
In10 In 0.21711(2) -0.06797(5) 0.16581(3)
S1 S 0.25570(9) 0.0146(2) 0.14050(10)
S2 S 0.34290(9) 0.1445(2) 0.17464(10)
S3 S 0.31819(11) 0.0039(2) 0.25519(11)
S4 S 0.25323(9) 0.1848(2) 0.20874(11)
S5 S 0.42148(10) 0.3011(2) 0.20924(11)
S6 S 0.40341(9) 0.1528(2) 0.28861(10)
S7 S 0.33469(9) 0.3330(2) 0.24176(10)
S8 S 0.38004(10) 0.0034(2) 0.36748(11)
S9 S 0.31639(9) 0.18387(19) 0.32459(10)
S10 S 0.24648(9) 0.3507(2) 0.27958(11)
S11 S 0.5000 0.4609(3) 0.2500
S12 S 0.48444(9) 0.3105(2) 0.32744(11)
S13 S 0.41505(9) 0.4881(2) 0.27861(11)
S14 S 0.46464(9) 0.1528(2) 0.39852(11)
S15 S 0.39894(8) 0.3409(2) 0.36003(10)
S16 S 0.17353(8) 0.00959(19) 0.18842(10)
S17 S 0.44586(12) 0.0236(3) 0.47960(13)
S18 S 0.37908(10) 0.1901(2) 0.43844(10)
S19 S 0.18684(8) -0.1368(2) 0.10364(10)
In1C In 0.20551(2) 0.58824(6) 0.30321(3)
In1C_2 In 0.20551(2) -0.41176(6) 0.30321(3)
In2C In 0.12487(2) -0.26733(6) 0.27228(3)
In2C_2 In 0.12487(2) 0.73267(6) 0.27228(3)
In3C In 0.14447(3) -0.41721(6) 0.19123(3)
In3C_2 In 0.14447(3) 0.58279(6) 0.19123(3)
In4C In 0.21215(2) -0.23550(6) 0.23638(3)
In5C In 0.04610(2) -0.11517(6) 0.23365(3)
In5A In 0.54610(2) 0.38483(6) 0.23365(3)
In6C In 0.06187(2) -0.25919(6) 0.15616(3)
In7C In 0.13078(2) -0.07912(5) 0.20215(3)
In8C In 0.08501(3) -0.40561(6) 0.08299(3)
In9C In 0.14790(2) -0.22986(5) 0.11969(3)
In10C In 0.28289(2) 0.43203(5) 0.33419(3)
S1C S 0.24430(9) 0.5146(2) 0.35950(10)
S2C S 0.15710(9) 0.6445(2) 0.32536(10)
S2C_2 S 0.15710(9) -0.3555(2) 0.32536(10)
S3C S 0.18181(11) 0.5039(2) 0.24481(11)
S3C_2 S 0.18181(11) -0.4961(2) 0.24481(11)
S4C S 0.24677(9) -0.3152(2) 0.29126(11)
S4C_2 S 0.24677(9) 0.6848(2) 0.29126(11)
S5C S 0.07852(10) -0.1989(2) 0.29076(11)
S6C S 0.09659(9) -0.3472(2) 0.21139(10)
S7C S 0.16531(9) -0.1670(2) 0.25824(10)
S8C S 0.11996(10) -0.4966(2) 0.13252(11)
S9C S 0.18361(9) -0.31613(19) 0.17541(10)
S10C S 0.25352(9) -0.1493(2) 0.22042(11)
S11B S 0.0000 -0.0391(3) 0.2500
S12C S 0.01556(9) -0.1895(2) 0.17256(11)
S13C S 0.08495(9) -0.0119(2) 0.22139(11)
S14C S 0.03536(9) -0.3472(2) 0.10148(11)
S15C S 0.10106(8) -0.1591(2) 0.13997(10)
S16C S 0.32647(8) 0.50959(19) 0.31158(10)
S17C S 0.05414(12) -0.4764(3) 0.02040(13)
S18C S 0.12092(10) -0.3099(2) 0.06156(10)
S19C S 0.31316(8) 0.3632(2) 0.39636(10)
Fe1 Fe 0.06357(5) -0.21080(11) 0.59188(6)
N1 N 0.0334(3) -0.1507(6) 0.6169(3)
N2 N 0.0396(3) -0.3006(7) 0.6081(4)
N3 N 0.1036(3) -0.2173(6) 0.6421(3)
N4 N 0.0949(3) -0.2774(6) 0.5718(3)
N5 N 0.0809(3) -0.1158(6) 0.5729(3)
N6 N 0.0249(3) -0.2035(7) 0.5388(3)
C1 C 0.0331(3) -0.0742(8) 0.6240(4)
H1 H 0.0497 -0.0417 0.6176
C2 C 0.0085(4) -0.0420(9) 0.6407(4)
H2 H 0.0083 0.0119 0.6447
C3 C -0.0157(5) -0.0892(10) 0.6514(5)
H3 H -0.0324 -0.0673 0.6624
C4 C -0.0150(4) -0.1677(9) 0.6457(5)
C5 C 0.0104(4) -0.1972(9) 0.6285(4)
C6 C 0.0442(5) -0.3756(9) 0.6029(5)
H4 H 0.0617 -0.3917 0.5915
C7 C 0.0228(6) -0.4324(11) 0.6146(7)
H5 H 0.0267 -0.4857 0.6122
C8 C -0.0031(5) -0.4074(11) 0.6290(6)
H6 H -0.0179 -0.4445 0.6355
C9 C -0.0089(5) -0.3308(11) 0.6347(5)
C10 C 0.0136(4) -0.2782(8) 0.6234(5)
C11 C -0.0384(4) -0.2243(11) 0.6557(5)
H7 H -0.0566 -0.2067 0.6656
C12 C -0.0347(5) -0.2995(10) 0.6511(5)
H8 H -0.0497 -0.3339 0.6591
C13 C 0.1080(4) -0.1856(10) 0.6783(4)
H9 H 0.0904 -0.1511 0.6810
C14 C 0.1373(5) -0.2008(9) 0.7122(5)
H10 H 0.1393 -0.1776 0.7370
C15 C 0.1622(4) -0.2499(9) 0.7078(5)
H11 H 0.1812 -0.2635 0.7307
C16 C 0.1616(3) -0.2808(9) 0.6722(5)
C17 C 0.1312(4) -0.2653(8) 0.6397(4)
C18 C 0.0898(4) -0.3047(8) 0.5352(5)
H12 H 0.0686 -0.2918 0.5147
C19 C 0.1152(4) -0.3523(9) 0.5264(5)
H13 H 0.1105 -0.3716 0.5002
C20 C 0.1469(4) -0.3716(9) 0.5553(6)
H14 H 0.1638 -0.4038 0.5492
C21 C 0.1528(4) -0.3421(9) 0.5933(5)
C22 C 0.1263(4) -0.2948(8) 0.6002(5)
C23 C 0.1876(4) -0.3322(10) 0.6639(5)
H15 H 0.2077 -0.3478 0.6851
C24 C 0.1838(4) -0.3580(9) 0.6270(6)
H16 H 0.2023 -0.3880 0.6229
C25 C 0.1096(4) -0.0731(9) 0.5907(4)
H17 H 0.1256 -0.0904 0.6152
C26 C 0.1168(4) -0.0034(9) 0.5744(5)
H18 H 0.1367 0.0268 0.5886
C27 C 0.0951(4) 0.0207(9) 0.5378(5)
H19 H 0.1001 0.0670 0.5263
C28 C 0.0648(4) -0.0251(9) 0.5173(5)
C29 C 0.0596(3) -0.0928(7) 0.5364(4)
C30 C -0.0021(4) -0.2505(10) 0.5227(5)
H20 H -0.0045 -0.2958 0.5366
C31 C -0.0273(5) -0.2350(12) 0.4858(6)
H21 H -0.0467 -0.2688 0.4754
C32 C -0.0239(4) -0.1715(12) 0.4652(5)
H22 H -0.0414 -0.1607 0.4405
C33 C 0.0054(4) -0.1207(9) 0.4795(4)
C34 C 0.0298(4) -0.1403(8) 0.5185(4)
C35 C 0.0401(5) -0.0082(10) 0.4783(5)
H23 H 0.0435 0.0368 0.4648
C36 C 0.0124(5) -0.0548(10) 0.4608(5)
H24 H -0.0027 -0.0423 0.4350
N15? N 0.5299(7) -0.3340(17) 0.2478(6)
N16? N 0.2806(5) 0.6106(11) 0.2140(6)
C85? C 0.5000 -0.297(3) 0.2500
C86? C 0.5600(9) -0.289(2) 0.2473(8)
C87? C 0.5639(10) -0.211(3) 0.2467(9)
C88? C 0.5309(9) -0.171(2) 0.2477(8)
C89? C 0.5000 -0.209(3) 0.2500
C90? C 0.2655(3) 0.5434(8) 0.2288(4)
C91? C 0.2542(6) 0.4815(10) 0.1996(5)
C92? C 0.5237(6) 0.1831(14) 0.2970(7)
C93? C 0.1319(4) -0.2470(9) 0.3889(4)
C94? C 0.0431(5) -0.2742(14) 0.4442(5)
C95? C 0.0925(7) -0.3656(14) 0.4145(7)
C96? C 0.0461(9) -0.395(4) 0.4465(14)
C97? C 0.5178(19) 0.106(3) 0.3409(13)
C98? C 0.5523(12) -0.038(2) 0.2346(12)
C99? C 0.5689(13) -0.003(3) 0.2780(16)
C100? C 0.5898(13) -0.089(4) 0.226(2)
loop_
_geom_bond_atom_site_label_1
_geom_bond_atom_site_label_2
_geom_bond_site_symmetry_1
_geom_bond_site_symmetry_2
Fe1 N1 1_555 1_555
N1 C1 1_555 1_555
N2 Fe1 1_555 1_555
N3 Fe1 1_555 1_555
N4 Fe1 1_555 1_555
N5 Fe1 1_555 1_555
N6 Fe1 1_555 1_555
C1 H1 1_555 1_555
C2 C1 1_555 1_555
H2 C2 1_555 1_555
C3 C2 1_555 1_555
H3 C3 1_555 1_555
C4 C3 1_555 1_555
C5 N1 1_555 1_555
C6 N2 1_555 1_555
H4 C6 1_555 1_555
C7 C6 1_555 1_555
H5 C7 1_555 1_555
C8 C7 1_555 1_555
H6 C8 1_555 1_555
C9 C8 1_555 1_555
C10 N2 1_555 1_555
C11 C4 1_555 1_555
H7 C11 1_555 1_555
C12 C9 1_555 1_555
H8 C12 1_555 1_555
C13 N3 1_555 1_555
H9 C13 1_555 1_555
C14 C13 1_555 1_555
H10 C14 1_555 1_555
C15 C14 1_555 1_555
H11 C15 1_555 1_555
C16 C15 1_555 1_555
C17 N3 1_555 1_555
C18 N4 1_555 1_555
H12 C18 1_555 1_555
C19 C18 1_555 1_555
H13 C19 1_555 1_555
C20 C19 1_555 1_555
H14 C20 1_555 1_555
C21 C20 1_555 1_555
C22 N4 1_555 1_555
C23 C16 1_555 1_555
H15 C23 1_555 1_555
C24 C21 1_555 1_555
H16 C24 1_555 1_555
C25 N5 1_555 1_555
H17 C25 1_555 1_555
C26 C25 1_555 1_555
H18 C26 1_555 1_555
C27 C26 1_555 1_555
H19 C27 1_555 1_555
C28 C27 1_555 1_555
C29 N5 1_555 1_555
C30 N6 1_555 1_555
H20 C30 1_555 1_555
C31 C30 1_555 1_555
H21 C31 1_555 1_555
C32 C31 1_555 1_555
H22 C32 1_555 1_555
C33 C32 1_555 1_555
C34 N6 1_555 1_555
C35 C28 1_555 1_555
H23 C35 1_555 1_555
C36 C33 1_555 1_555
H24 C36 1_555 1_555
Fe2 N7 1_555 1_555
N7 C37 1_555 1_555
N8 Fe2 1_555 1_555
N9 Fe2 1_555 1_555
N10 Fe2 1_555 1_555
N11 Fe2 1_555 1_555
N12 Fe2 1_555 1_555
C37 H25 1_555 1_555
C38 C37 1_555 1_555
H26 C38 1_555 1_555
C39 C38 1_555 1_555
H27 C39 1_555 1_555
C40 C39 1_555 1_555
C41 N7 1_555 1_555
C42 N8 1_555 1_555
H28 C42 1_555 1_555
C43 C42 1_555 1_555
H29 C43 1_555 1_555
C44 C43 1_555 1_555
H30 C44 1_555 1_555
C45 C44 1_555 1_555
C46 N8 1_555 1_555
C47 C40 1_555 1_555
H31 C47 1_555 1_555
C48 C45 1_555 1_555
H32 C48 1_555 1_555
C49 N9 1_555 1_555
H33 C49 1_555 1_555
C50 C49 1_555 1_555
H34 C50 1_555 1_555
C51 C50 1_555 1_555
H35 C51 1_555 1_555
C52 C51 1_555 1_555
C53 N9 1_555 1_555
C54 N10 1_555 1_555
H36 C54 1_555 1_555
C55 C54 1_555 1_555
H37 C55 1_555 1_555
C56 C55 1_555 1_555
H38 C56 1_555 1_555
C57 C56 1_555 1_555
C58 N10 1_555 1_555
C59 C52 1_555 1_555
H39 C59 1_555 1_555
C60 C57 1_555 1_555
H40 C60 1_555 1_555
C61 N11 1_555 1_555
H41 C61 1_555 1_555
C62 C61 1_555 1_555
H42 C62 1_555 1_555
C63 C62 1_555 1_555
H43 C63 1_555 1_555
C64 C63 1_555 1_555
C65 N11 1_555 1_555
C66 N12 1_555 1_555
H44 C66 1_555 1_555
C67 C66 1_555 1_555
H45 C67 1_555 1_555
C68 C67 1_555 1_555
H46 C68 1_555 1_555
C69 C68 1_555 1_555
C70 N12 1_555 1_555
C71 C64 1_555 1_555
H47 C71 1_555 1_555
C72 C69 1_555 1_555
H48 C72 1_555 1_555
N13 C78 1_555 1_555
N14 C73 1_555 1_555
C73 H49 1_555 1_555
C74 C73 1_555 1_555
H50 C74 1_555 1_555
C75 C74 1_555 1_555
H51 C75 1_555 1_555
C76 C75 1_555 1_555
C77 N14 1_555 1_555
C78 H52 1_555 1_555
C79 C78 1_555 1_555
H53 C79 1_555 1_555
C80 C79 1_555 1_555
H54 C80 1_555 1_555
C81 C80 1_555 1_555
C82 N13 1_555 1_555
C83 C76 1_555 1_555
H55 C83 1_555 1_555
C84 C81 1_555 1_555
H56 C84 1_555 1_555
In1 S1 1_555 1_555
In2 S2 1_555 1_555
In3 S3 1_555 1_555
In4 S4 1_555 1_555
In5 S5 1_555 1_555
In6 S6 1_555 1_555
In7 S7 1_555 1_555
In8 S8 1_555 1_555
In9 S9 1_555 1_555
In10 S1 1_555 1_555
S2 In1 1_555 1_555
S3 In1 1_555 1_555
S4 In1 1_555 1_555
S5 In2 1_555 1_555
S6 In2 1_555 1_555
S7 In2 1_555 1_555
S8 In3 1_555 1_555
S9 In3 1_555 1_555
S10 In4 1_555 1_555
S11 In5 1_555 1_555
S12 In5 1_555 1_555
S13 In5 1_555 1_555
S14 In6 1_555 1_555
S15 In6 1_555 1_555
S16 In10 1_555 1_555
S17 In8 1_555 1_555
S18 In8 1_555 1_555
S19 In10 1_555 1_555
In1C S1C 1_555 1_555
In1C_2 S2C_2 1_555 1_555
In2C S2C_2 1_555 1_555
In2C_2 S2C 1_555 1_555
In3C S3C_2 1_555 1_555
In3C_2 S3C 1_555 1_555
In4C S4C 1_555 1_555
In5C S5C 1_555 1_555
In5A S11 1_555 1_555
In6C S6C 1_555 1_555
In7C S16 1_555 1_555
In8C S8C 1_555 1_555
In9C S19 1_555 1_555
In10C S10 1_555 1_555
S1C In10C 1_555 1_555
S2C In1C 1_555 1_555
S3C In1C 1_555 1_555
S3C_2 In1C_2 1_555 1_555
S4C In1C_2 1_555 1_555
S4C_2 In1C 1_555 1_555
S5C In2C 1_555 1_555
S6C In2C 1_555 1_555
S7C In2C 1_555 1_555
S8C In3C 1_555 1_555
S9C In3C 1_555 1_555
S10C In10 1_555 1_555
S11B In5C 1_555 1_555
S12C In5C 1_555 1_555
S13C In5C 1_555 1_555
S14C In6C 1_555 1_555
S15C In6C 1_555 1_555
S16C In7 1_555 1_555
S17C In8C 1_555 1_555
S18C In8C 1_555 1_555
S19C In9 1_555 1_555
C4 C5 1_555 1_555
C5 C10 1_555 1_555
C9 C10 1_555 1_555
C11 C12 1_555 1_555
C16 C17 1_555 1_555
C17 C22 1_555 1_555
C21 C22 1_555 1_555
C23 C24 1_555 1_555
C28 C29 1_555 1_555
C29 C34 1_555 1_555
C33 C34 1_555 1_555
C35 C36 1_555 1_555
C40 C41 1_555 1_555
C41 C46 1_555 1_555
C45 C46 1_555 1_555
C47 C48 1_555 1_555
C52 C53 1_555 1_555
C53 C58 1_555 1_555
C57 C58 1_555 1_555
C59 C60 1_555 1_555
C64 C65 1_555 1_555
C65 C70 1_555 1_555
C69 C70 1_555 1_555
C71 C72 1_555 1_555
C76 C77 1_555 1_555
C77 C82 1_555 1_555
C81 C82 1_555 1_555
C83 C84 1_555 1_555
In3 S6 1_555 1_555
In4 S7 1_555 1_555
In4 S9 1_555 1_555
In6 S12 1_555 1_555
In7 S13 1_555 1_555
In7 S15 1_555 1_555
In8 S14 1_555 1_555
In9 S15 1_555 1_555
In9 S18 1_555 1_555
In3C S6C 1_555 1_555
In4C S7C 1_555 1_555
In4C S9C 1_555 1_555
In4C S10C 1_555 1_555
In6C S12C 1_555 1_555
In7C S7C 1_555 1_555
In7C S13C 1_555 1_555
In7C S15C 1_555 1_555
In8C S14C 1_555 1_555
In9C S9C 1_555 1_555
In9C S15C 1_555 1_555
In9C S18C 1_555 1_555
In10C S16C 1_555 1_555
In10C S19C 1_555 1_555

#END
