
#######################################################################
#
#                 Cambridge Crystallographic Data Centre
#                                CCDC 
#
#######################################################################
#
# If this CIF has been generated from an entry in the Cambridge 
# Structural Database, then it will include bibliographic, chemical, 
# crystal, experimental, refinement or atomic coordinate data resulting 
# from the CCDC's data processing and validation procedures.
#
#######################################################################

data_IBIMEM
_symmetry_cell_setting           triclinic
_symmetry_space_group_name_H-M   'P -1'
_symmetry_Int_Tables_number      2
_space_group_name_Hall           '-P 1'
loop_
_symmetry_equiv_pos_site_id
_symmetry_equiv_pos_as_xyz
1 x,y,z
2 -x,-y,-z
_cell_length_a                   8.8980(5)
_cell_length_b                   12.7568(5)
_cell_length_c                   14.3176(3)
_cell_angle_alpha                63.556(2)
_cell_angle_beta                 80.625(2)
_cell_angle_gamma                70.607(2)
_cell_volume                     1372.37
loop_
_atom_site_label
_atom_site_type_symbol
_atom_site_fract_x
_atom_site_fract_y
_atom_site_fract_z
Cd1 Cd 0.26222(4) 0.43592(3) 0.24700(3)
Cl1 Cl 0.28776(12) 0.41351(9) 0.07195(7)
Cl2 Cl 0.25285(12) 0.44931(9) 0.42873(7)
N1 N 0.2002(4) 0.8403(3) 0.1144(2)
N2 N 0.2622(4) 0.6430(3) 0.1537(2)
N3 N -0.2090(4) 1.3069(3) 0.2163(2)
N4 N -0.4621(4) 1.3585(3) 0.2594(2)
N5 N 0.3129(4) 0.0380(3) 0.3685(2)
N6 N 0.2514(4) 0.2319(3) 0.3386(2)
N7 N 0.7319(4) -0.4343(3) 0.2782(2)
N8 N 0.9872(4) -0.4890(3) 0.2413(2)
C1 C 0.1316(5) 0.9541(3) 0.1235(3)
C2 C 0.2117(5) 1.0400(4) 0.0860(3)
H1 H 0.3129 1.0245 0.0527
C3 C 0.1470(5) 1.1487(4) 0.0960(3)
H2 H 0.2044 1.2073 0.0697
C4 C -0.0008(4) 1.1741(3) 0.1439(3)
C5 C -0.0787(5) 1.0856(4) 0.1833(4)
H3 H -0.1781 1.0997 0.2188
C6 C -0.0156(5) 0.9767(4) 0.1725(4)
H4 H -0.0727 0.9179 0.1985
C7 C 0.1758(4) 0.7317(3) 0.1805(3)
H5 H 0.1051 0.7207 0.2392
C8 C 0.3491(5) 0.6965(3) 0.0673(3)
H6 H 0.4233 0.6548 0.0304
C9 C 0.3140(5) 0.8166(4) 0.0425(3)
H7 H 0.3586 0.8740 -0.0134
C10 C -0.0666(5) 1.2972(4) 0.1502(3)
H8 H 0.0169 1.3112 0.1774
H9 H -0.0920 1.3627 0.0789
C11 C -0.3587(4) 1.3641(3) 0.1817(3)
H10 H -0.3865 1.4036 0.1102
C12 C -0.3737(5) 1.2950(3) 0.3479(3)
H11 H -0.4159 1.2767 0.4168
C13 C -0.2159(5) 1.2617(3) 0.3225(3)
H12 H -0.1290 1.2166 0.3690
C14 C 0.3797(5) -0.0738(3) 0.3546(3)
C15 C 0.2892(5) -0.1518(3) 0.3790(3)
H13 H 0.1812 -0.1301 0.4012
C16 C 0.3566(4) -0.2618(3) 0.3711(3)
H14 H 0.2954 -0.3170 0.3900
C17 C 0.5123(4) -0.2929(3) 0.3358(3)
C18 C 0.5999(5) -0.2120(4) 0.3085(3)
H15 H 0.7062 -0.2315 0.2829
C19 C 0.5332(5) -0.1017(4) 0.3182(3)
H16 H 0.5939 -0.0462 0.2996
C20 C 0.3245(5) 0.1490(3) 0.3024(3)
H17 H 0.3790 0.1661 0.2369
C21 C 0.1897(5) 0.1696(4) 0.4341(3)
H18 H 0.1308 0.2048 0.4800
C22 C 0.2256(5) 0.0502(4) 0.4529(3)
H19 H 0.1959 -0.0126 0.5128
C23 C 0.5822(5) -0.4200(4) 0.3383(3)
H20 H 0.6015 -0.4809 0.4117
H21 H 0.5035 -0.4375 0.3101
C24 C 0.8788(4) -0.4906(3) 0.3157(3)
H22 H 0.9024 -0.5275 0.3878
C25 C 0.9039(5) -0.4278(4) 0.1509(3)
H23 H 0.9500 -0.4119 0.0831
C26 C 0.7463(5) -0.3930(4) 0.1720(3)
H24 H 0.6625 -0.3489 0.1232
N4_2 N 0.5379(4) 0.3585(3) 0.2594(2)
N8_2 N -0.0128(4) 0.5110(3) 0.2413(2)
Cd1_2 Cd -0.73778(4) 1.43592(3) 0.24700(3)
Cd1_3 Cd 1.26222(4) -0.56408(3) 0.24700(3)
O1 O -0.0233(3) 0.6925(2) 0.4039(2)
H25 H -0.1136 0.6674 0.4375
H26 H 0.0343 0.6234 0.4022
loop_
_geom_bond_atom_site_label_1
_geom_bond_atom_site_label_2
_geom_bond_site_symmetry_1
_geom_bond_site_symmetry_2
Cd1 Cl1 1_555 1_555
Cl2 Cd1 1_555 1_555
N1 C1 1_555 1_555
N2 Cd1 1_555 1_555
N3 C10 1_555 1_555
N4 C11 1_555 1_555
N5 C14 1_555 1_555
N6 Cd1 1_555 1_555
N7 C23 1_555 1_555
N8 C24 1_555 1_555
C1 C2 1_555 1_555
C2 H1 1_555 1_555
C3 C2 1_555 1_555
H2 C3 1_555 1_555
C4 C3 1_555 1_555
C5 C4 1_555 1_555
H3 C5 1_555 1_555
C6 C1 1_555 1_555
H4 C6 1_555 1_555
C7 N1 1_555 1_555
H5 C7 1_555 1_555
C8 N2 1_555 1_555
H6 C8 1_555 1_555
C9 N1 1_555 1_555
H7 C9 1_555 1_555
C10 C4 1_555 1_555
H8 C10 1_555 1_555
H9 C10 1_555 1_555
C11 N3 1_555 1_555
H10 C11 1_555 1_555
C12 N4 1_555 1_555
H11 C12 1_555 1_555
C13 N3 1_555 1_555
H12 C13 1_555 1_555
C14 C15 1_555 1_555
C15 H13 1_555 1_555
C16 C15 1_555 1_555
H14 C16 1_555 1_555
C17 C16 1_555 1_555
C18 C17 1_555 1_555
H15 C18 1_555 1_555
C19 C14 1_555 1_555
H16 C19 1_555 1_555
C20 N5 1_555 1_555
H17 C20 1_555 1_555
C21 N6 1_555 1_555
H18 C21 1_555 1_555
C22 N5 1_555 1_555
H19 C22 1_555 1_555
C23 C17 1_555 1_555
H20 C23 1_555 1_555
H21 C23 1_555 1_555
C24 N7 1_555 1_555
H22 C24 1_555 1_555
C25 N8 1_555 1_555
H23 C25 1_555 1_555
C26 N7 1_555 1_555
H24 C26 1_555 1_555
O1 H25 1_555 1_555
H26 O1 1_555 1_555
N4_2 Cd1 1_555 1_555
N8_2 Cd1 1_555 1_555
Cd1_2 N4 1_555 1_555
Cd1_3 N8 1_555 1_555
N2 C7 1_555 1_555
N6 C20 1_555 1_555
C5 C6 1_555 1_555
C8 C9 1_555 1_555
C12 C13 1_555 1_555
C18 C19 1_555 1_555
C21 C22 1_555 1_555
C25 C26 1_555 1_555

#END
