
#######################################################################
#
#                 Cambridge Crystallographic Data Centre
#                                CCDC 
#
#######################################################################
#
# If this CIF has been generated from an entry in the Cambridge 
# Structural Database, then it will include bibliographic, chemical, 
# crystal, experimental, refinement or atomic coordinate data resulting 
# from the CCDC's data processing and validation procedures.
#
#######################################################################

data_IBISET
_symmetry_cell_setting           triclinic
_symmetry_space_group_name_H-M   'P -1'
_symmetry_Int_Tables_number      2
_space_group_name_Hall           '-P 1'
loop_
_symmetry_equiv_pos_site_id
_symmetry_equiv_pos_as_xyz
1 x,y,z
2 -x,-y,-z
_cell_length_a                   10.3497(9)
_cell_length_b                   12.9619(12)
_cell_length_c                   13.0982(12)
_cell_angle_alpha                89.6630(10)
_cell_angle_beta                 76.4790(10)
_cell_angle_gamma                70.8990(10)
_cell_volume                     1609.61
loop_
_atom_site_label
_atom_site_type_symbol
_atom_site_fract_x
_atom_site_fract_y
_atom_site_fract_z
Eu1 Eu -0.029795(17) 0.415211(13) 0.612761(11)
S1 S -0.15594(9) 0.26043(7) 0.81516(6)
O1 O 0.1031(2) 0.41740(17) 0.44740(15)
H1 H 0.1770 0.3577 0.4101
O2 O -0.0490(3) 0.3082(2) 0.76347(17)
O3 O -0.2716(3) 0.3399(2) 0.88852(19)
O4 O -0.2003(3) 0.2066(2) 0.7409(2)
N1 N 0.0587(3) 0.2083(2) 0.5424(2)
N2 N -0.1692(3) 0.3596(2) 0.4964(2)
N3 N 0.2225(3) 0.3592(2) 0.6429(2)
N4 N 0.0061(3) 0.5253(2) 0.7644(2)
C1 C -0.2834(4) 0.4306(3) 0.4770(3)
H2 H -0.3270 0.4958 0.5194
C2 C -0.3421(4) 0.4126(4) 0.3958(3)
H3 H -0.4243 0.4641 0.3857
C3 C -0.2779(5) 0.3197(4) 0.3323(3)
H4 H -0.3148 0.3076 0.2770
C4 C -0.1560(5) 0.2410(3) 0.3490(3)
C5 C -0.0830(6) 0.1392(4) 0.2871(3)
H5 H -0.1129 0.1252 0.2287
C6 C 0.0263(5) 0.0641(4) 0.3107(3)
H6 H 0.0706 -0.0014 0.2689
C7 C -0.1050(4) 0.2636(3) 0.4342(3)
C8 C 0.0139(4) 0.1841(3) 0.4590(3)
C9 C 0.0772(4) 0.0822(3) 0.3998(3)
C10 C 0.1835(5) 0.0031(3) 0.4323(3)
H7 H 0.2276 -0.0649 0.3947
C11 C 0.2235(5) 0.0250(3) 0.5194(3)
H8 H 0.2921 -0.0284 0.5436
C12 C 0.1595(4) 0.1285(3) 0.5710(3)
H9 H 0.1888 0.1432 0.6295
C13 C 0.4894(4) 0.2898(3) 0.6843(3)
H10 H 0.5782 0.2649 0.6980
C14 C 0.3756(4) 0.3642(3) 0.7563(3)
C15 C 0.3898(5) 0.4097(4) 0.8508(3)
H11 H 0.4751 0.3834 0.8701
C16 C 0.2824(5) 0.4894(4) 0.9117(3)
H12 H 0.2941 0.5176 0.9728
C17 C 0.1498(5) 0.5322(4) 0.8848(3)
C18 C 0.0389(5) 0.6217(4) 0.9414(4)
H13 H 0.0480 0.6536 1.0016
C19 C -0.0817(5) 0.6623(4) 0.9089(4)
H14 H -0.1552 0.7225 0.9458
C20 C -0.0941(4) 0.6123(3) 0.8192(3)
H15 H -0.1767 0.6415 0.7968
C21 C 0.1291(4) 0.4862(3) 0.7958(3)
C22 C 0.2432(4) 0.3992(3) 0.7317(2)
C23 C 0.4684(4) 0.2541(3) 0.5935(3)
H16 H 0.5437 0.2069 0.5435
C24 C 0.3339(4) 0.2890(3) 0.5767(3)
H17 H 0.3209 0.2618 0.5157
C25 C -0.0668(3) 0.1575(3) 0.8879(2)
C26 C -0.1410(4) 0.1012(3) 0.9503(3)
H18 H -0.2375 0.1205 0.9568
C27 C 0.0787(4) 0.1301(3) 0.8778(3)
H19 H 0.1286 0.1689 0.8351
O8 O -0.2790(3) 0.4943(2) 0.72100(18)
H23 H -0.3239 0.5636 0.7299
H24 H -0.2989 0.4668 0.7801
C33 C -0.0733(3) 0.0142(3) 1.0052(2)
C34 C 0.1467(4) 0.0472(3) 0.9300(3)
H25 H 0.2430 0.0304 0.9233
Eu1A Eu 0.029795(17) 0.584789(13) 0.387239(11)
Eu1A_2 Eu 0.029795(17) -0.415211(13) 1.387239(11)
S1A S 0.15594(9) -0.26043(7) 1.18484(6)
O1A O -0.1031(2) 0.58260(17) 0.55260(15)
H1A H -0.1770 0.6423 0.5899
O2A O 0.0490(3) -0.3082(2) 1.23653(17)
O2A_2 O 0.0490(3) 0.6918(2) 0.23653(17)
O3A O 0.2716(3) -0.3399(2) 1.11148(19)
O4A O 0.2003(3) -0.2066(2) 1.2591(2)
N1A N -0.0587(3) 0.7917(2) 0.4576(2)
N2A N 0.1692(3) 0.6404(2) 0.5036(2)
N3A N -0.2225(3) 0.6408(2) 0.3571(2)
N4A N -0.0061(3) 0.4747(2) 0.2356(2)
C1A C 0.2834(4) 0.5694(3) 0.5230(3)
H2A H 0.3270 0.5042 0.4806
C2A C 0.3421(4) 0.5874(4) 0.6042(3)
H3A H 0.4243 0.5359 0.6143
C3A C 0.2779(5) 0.6803(4) 0.6677(3)
H4A H 0.3148 0.6924 0.7230
C4A C 0.1560(5) 0.7590(3) 0.6510(3)
C5A C 0.0830(6) 0.8608(4) 0.7129(3)
H5A H 0.1129 0.8748 0.7713
C6A C -0.0263(5) 0.9359(4) 0.6893(3)
H6A H -0.0706 1.0014 0.7311
C7A C 0.1050(4) 0.7364(3) 0.5658(3)
C8A C -0.0139(4) 0.8159(3) 0.5410(3)
C9A C -0.0772(4) 0.9178(3) 0.6002(3)
C10A C -0.1835(5) 0.9969(3) 0.5677(3)
H7A H -0.2276 1.0649 0.6053
C11A C -0.2235(5) 0.9750(3) 0.4806(3)
H8A H -0.2921 1.0284 0.4564
C12A C -0.1595(4) 0.8715(3) 0.4290(3)
H9A H -0.1888 0.8568 0.3705
C13A C -0.4894(4) 0.7102(3) 0.3157(3)
H10A H -0.5782 0.7351 0.3020
C14A C -0.3756(4) 0.6358(3) 0.2437(3)
C15A C -0.3898(5) 0.5903(4) 0.1492(3)
H11A H -0.4751 0.6166 0.1299
C16A C -0.2824(5) 0.5106(4) 0.0883(3)
H12A H -0.2941 0.4824 0.0272
C17A C -0.1498(5) 0.4678(4) 0.1152(3)
C18A C -0.0389(5) 0.3783(4) 0.0586(4)
H13A H -0.0480 0.3464 -0.0016
C19A C 0.0817(5) 0.3377(4) 0.0911(4)
H14A H 0.1552 0.2775 0.0542
C20A C 0.0941(4) 0.3877(3) 0.1808(3)
H15A H 0.1767 0.3585 0.2032
C21A C -0.1291(4) 0.5138(3) 0.2042(3)
C22A C -0.2432(4) 0.6008(3) 0.2683(2)
C23A C -0.4684(4) 0.7459(3) 0.4065(3)
H16A H -0.5437 0.7931 0.4565
C24A C -0.3339(4) 0.7110(3) 0.4233(3)
H17A H -0.3209 0.7382 0.4843
C25A C 0.0668(3) -0.1575(3) 1.1121(2)
C26A C 0.1410(4) -0.1012(3) 1.0497(3)
H18A H 0.2375 -0.1205 1.0432
C27A C -0.0787(4) -0.1301(3) 1.1222(3)
H19A H -0.1286 -0.1689 1.1649
O8A O 0.2790(3) 0.5057(2) 0.27900(18)
H23A H 0.3239 0.4364 0.2701
H24A H 0.2989 0.5332 0.2199
C33A C 0.0733(3) -0.0142(3) 0.9948(2)
C34A C -0.1467(4) -0.0472(3) 1.0700(3)
H25A H -0.2430 -0.0304 1.0767
S2 S 0.44187(10) 0.19931(7) 0.27736(7)
O5 O 0.2975(3) 0.2213(2) 0.3378(2)
O6 O 0.4613(3) 0.2964(2) 0.2290(2)
O7 O 0.5460(3) 0.1463(2) 0.3337(2)
C28 C 0.4652(3) 0.1037(3) 0.1723(2)
C29 C 0.4786(4) 0.1318(3) 0.0708(3)
H20 H 0.4754 0.2026 0.0556
C30 C 0.4974(3) 0.0540(3) -0.0121(3)
C31 C 0.5135(4) 0.0793(3) -0.1186(3)
H21 H 0.5121 0.1493 -0.1357
C32 C 0.4689(4) -0.0034(3) 0.1965(3)
H22 H 0.4594 -0.0221 0.2658
S2A S 0.55813(10) -0.19931(7) -0.27736(7)
O5A O 0.7025(3) -0.2213(2) -0.3378(2)
O6A O 0.5387(3) -0.2964(2) -0.2290(2)
O7A O 0.4540(3) -0.1463(2) -0.3337(2)
C28A C 0.5348(3) -0.1037(3) -0.1723(2)
C29A C 0.5214(4) -0.1318(3) -0.0708(3)
H20A H 0.5246 -0.2026 -0.0556
C30A C 0.5026(3) -0.0540(3) 0.0121(3)
C31A C 0.4865(4) -0.0793(3) 0.1186(3)
H21A H 0.4879 -0.1493 0.1357
C32A C 0.5311(4) 0.0034(3) -0.1965(3)
H22A H 0.5406 0.0221 -0.2658
loop_
_geom_bond_atom_site_label_1
_geom_bond_atom_site_label_2
_geom_bond_site_symmetry_1
_geom_bond_site_symmetry_2
Eu1 O1 1_555 1_555
S1 O2 1_555 1_555
O1 H1 1_555 1_555
O2 Eu1 1_555 1_555
O3 S1 1_555 1_555
O4 S1 1_555 1_555
N1 Eu1 1_555 1_555
N2 Eu1 1_555 1_555
N3 Eu1 1_555 1_555
N4 Eu1 1_555 1_555
C1 N2 1_555 1_555
H2 C1 1_555 1_555
C2 C1 1_555 1_555
H3 C2 1_555 1_555
C3 C2 1_555 1_555
H4 C3 1_555 1_555
C4 C3 1_555 1_555
C5 C4 1_555 1_555
H5 C5 1_555 1_555
C6 C5 1_555 1_555
H6 C6 1_555 1_555
C7 N2 1_555 1_555
C8 N1 1_555 1_555
C9 C6 1_555 1_555
C10 C9 1_555 1_555
H7 C10 1_555 1_555
C11 C10 1_555 1_555
H8 C11 1_555 1_555
C12 N1 1_555 1_555
H9 C12 1_555 1_555
C13 H10 1_555 1_555
C14 C13 1_555 1_555
C15 C14 1_555 1_555
H11 C15 1_555 1_555
C16 C15 1_555 1_555
H12 C16 1_555 1_555
C17 C16 1_555 1_555
C18 C17 1_555 1_555
H13 C18 1_555 1_555
C19 C18 1_555 1_555
H14 C19 1_555 1_555
C20 N4 1_555 1_555
H15 C20 1_555 1_555
C21 N4 1_555 1_555
C22 N3 1_555 1_555
C23 C13 1_555 1_555
H16 C23 1_555 1_555
C24 N3 1_555 1_555
H17 C24 1_555 1_555
C25 S1 1_555 1_555
C26 C25 1_555 1_555
H18 C26 1_555 1_555
C27 C25 1_555 1_555
H19 C27 1_555 1_555
S2 O5 1_555 1_555
O6 S2 1_555 1_555
O7 S2 1_555 1_555
C28 S2 1_555 1_555
C29 C28 1_555 1_555
H20 C29 1_555 1_555
C30 C29 1_555 1_555
C31 C30 1_555 1_555
H21 C31 1_555 1_555
C32 C28 1_555 1_555
H22 C32 1_555 1_555
O8 Eu1 1_555 1_555
H23 O8 1_555 1_555
H24 O8 1_555 1_555
C33 C26 1_555 1_555
C34 C27 1_555 1_555
H25 C34 1_555 1_555
Eu1A O1 1_555 1_555
Eu1A_2 O2A 1_555 1_555
S1A O2A 1_555 1_555
O1A Eu1 1_555 1_555
H1A O1A 1_555 1_555
O2A_2 Eu1A 1_555 1_555
O3A S1A 1_555 1_555
O4A S1A 1_555 1_555
N1A Eu1A 1_555 1_555
N2A Eu1A 1_555 1_555
N3A Eu1A 1_555 1_555
N4A Eu1A 1_555 1_555
C1A N2A 1_555 1_555
H2A C1A 1_555 1_555
C2A C1A 1_555 1_555
H3A C2A 1_555 1_555
C3A C2A 1_555 1_555
H4A C3A 1_555 1_555
C4A C3A 1_555 1_555
C5A C4A 1_555 1_555
H5A C5A 1_555 1_555
C6A C5A 1_555 1_555
H6A C6A 1_555 1_555
C7A N2A 1_555 1_555
C8A N1A 1_555 1_555
C9A C6A 1_555 1_555
C10A C9A 1_555 1_555
H7A C10A 1_555 1_555
C11A C10A 1_555 1_555
H8A C11A 1_555 1_555
C12A N1A 1_555 1_555
H9A C12A 1_555 1_555
C13A H10A 1_555 1_555
C14A C13A 1_555 1_555
C15A C14A 1_555 1_555
H11A C15A 1_555 1_555
C16A C15A 1_555 1_555
H12A C16A 1_555 1_555
C17A C16A 1_555 1_555
C18A C17A 1_555 1_555
H13A C18A 1_555 1_555
C19A C18A 1_555 1_555
H14A C19A 1_555 1_555
C20A N4A 1_555 1_555
H15A C20A 1_555 1_555
C21A N4A 1_555 1_555
C22A N3A 1_555 1_555
C23A C13A 1_555 1_555
H16A C23A 1_555 1_555
C24A N3A 1_555 1_555
H17A C24A 1_555 1_555
C25A S1A 1_555 1_555
C26A C25A 1_555 1_555
H18A C26A 1_555 1_555
C27A C25A 1_555 1_555
H19A C27A 1_555 1_555
S2A O5A 1_555 1_555
O6A S2A 1_555 1_555
O7A S2A 1_555 1_555
C28A S2A 1_555 1_555
C29A C28A 1_555 1_555
H20A C29A 1_555 1_555
C30A C30 1_555 1_555
C31A C32 1_555 1_555
H21A C31A 1_555 1_555
C32A C31 1_555 1_555
H22A C32A 1_555 1_555
O8A Eu1A 1_555 1_555
H23A O8A 1_555 1_555
H24A O8A 1_555 1_555
C33A C33 1_555 1_555
C34A C33 1_555 1_555
H25A C34A 1_555 1_555
C4 C7 1_555 1_555
C7 C8 1_555 1_555
C8 C9 1_555 1_555
C11 C12 1_555 1_555
C14 C22 1_555 1_555
C17 C21 1_555 1_555
C19 C20 1_555 1_555
C21 C22 1_555 1_555
C23 C24 1_555 1_555
C34 C33A 1_555 1_555
Eu1A O1A 1_555 1_555
C4A C7A 1_555 1_555
C7A C8A 1_555 1_555
C8A C9A 1_555 1_555
C11A C12A 1_555 1_555
C14A C22A 1_555 1_555
C17A C21A 1_555 1_555
C19A C20A 1_555 1_555
C21A C22A 1_555 1_555
C23A C24A 1_555 1_555
C26A C33A 1_555 1_555
C27A C34A 1_555 1_555
C28A C32A 1_555 1_555
C29A C30A 1_555 1_555
C30A C31A 1_555 1_555

#END
