
#######################################################################
#
#                 Cambridge Crystallographic Data Centre
#                                CCDC 
#
#######################################################################
#
# If this CIF has been generated from an entry in the Cambridge 
# Structural Database, then it will include bibliographic, chemical, 
# crystal, experimental, refinement or atomic coordinate data resulting 
# from the CCDC's data processing and validation procedures.
#
#######################################################################

data_IBITIY
_symmetry_cell_setting           monoclinic
_symmetry_space_group_name_H-M   'P 21/c'
_symmetry_Int_Tables_number      14
_space_group_name_Hall           '-P 2ybc'
loop_
_symmetry_equiv_pos_site_id
_symmetry_equiv_pos_as_xyz
1 x,y,z
2 -x,1/2+y,1/2-z
3 -x,-y,-z
4 x,1/2-y,1/2+z
_cell_length_a                   12.023(2)
_cell_length_b                   13.868(3)
_cell_length_c                   17.439(4)
_cell_angle_alpha                90
_cell_angle_beta                 94.20(3)
_cell_angle_gamma                90
_cell_volume                     2899.88
loop_
_atom_site_label
_atom_site_type_symbol
_atom_site_fract_x
_atom_site_fract_y
_atom_site_fract_z
O5 O 0.6515(4) 0.3442(4) 1.1363(2)
C18 C 0.5623(3) 0.4195(3) 1.0039(2)
H21 H 0.6047 0.3633 1.0065
C19 C 0.5404(3) 0.4633(3) 1.0726(2)
C20 C 0.4746(3) 0.5467(3) 1.0685(2)
C22 C 0.5929(4) 0.4132(4) 1.1432(3)
O6 O 0.5725(5) 0.4431(4) 1.2102(2)
O7 O 0.3788(6) 0.6764(4) 1.1195(3)
C23 C 0.4376(4) 0.6083(4) 1.1345(3)
O8 O 0.4655(5) 0.5850(5) 1.2031(2)
O5B O 0.3485(4) 0.6558(4) 0.8637(2)
C18B C 0.4377(3) 0.5805(3) 0.9961(2)
H21B H 0.3953 0.6367 0.9935
C19B C 0.4596(3) 0.5367(3) 0.9274(2)
C20B C 0.5254(3) 0.4533(3) 0.9315(2)
C22B C 0.4071(4) 0.5868(4) 0.8568(3)
O6B O 0.4275(5) 0.5569(4) 0.7898(2)
O7B O 0.6212(6) 0.3236(4) 0.8805(3)
C23B C 0.5624(4) 0.3917(4) 0.8655(3)
O8B O 0.5345(5) 0.4150(5) 0.7969(2)
O9 O 0.2862(7) 0.5222(8) 0.3856(7)
O10 O 0.8394(13) 0.3045(9) 0.6181(7)
N1 N 0.9409(3) 0.0717(3) 0.7734(2)
O1 O 0.7722(5) 0.2152(4) 0.9680(3)
O2 O 0.7441(3) 0.2266(3) 0.78293(19)
Cd1 Cd 0.85312(2) 0.13457(2) 0.872433(18)
S1 S 1.0451(2) 0.0372(2) 1.00865(16)
C1 C 1.2672(3) 0.1382(3) 0.5027(2)
C2 C 1.3319(3) 0.2149(3) 0.5299(2)
N2 N 1.1397(3) 0.1660(3) 0.38601(19)
N3 N 1.4613(4) 0.4750(3) 0.6132(3)
C3 C 1.2234(3) 0.0705(3) 0.5536(2)
C4 C 1.2445(4) 0.1210(4) 0.4165(2)
H1 H 1.2409 0.0522 0.4068
H2 H 1.3058 0.1470 0.3898
C5 C 1.3074(4) 0.1640(4) 0.6613(2)
N4 N 1.3928(3) 0.4017(3) 0.6298(2)
C6 C 1.2925(4) 0.4355(3) 0.6376(3)
H3 H 1.2318 0.3981 0.6492
C7 C 1.2437(3) 0.0847(3) 0.6326(2)
N5 N 1.2893(3) 0.5293(3) 0.6271(2)
C8 C 1.3552(3) 0.2266(3) 0.6095(2)
C9 C 1.4371(4) 0.3035(4) 0.6373(3)
H4 H 1.4601 0.2915 0.6909
H5 H 1.5029 0.2987 0.6084
C10 C 1.1548(4) -0.0131(4) 0.5213(3)
H6 H 1.1109 -0.0387 0.5605
H7 H 1.1063 0.0085 0.4786
H8 H 1.2034 -0.0624 0.5045
C11 C 1.3955(4) 0.5504(4) 0.6128(3)
H9 H 1.4198 0.6128 0.6036
C12 C 1.3246(5) 0.1807(5) 0.7466(3)
H10 H 1.4030 0.1809 0.7617
H11 H 1.2929 0.2417 0.7592
H12 H 1.2890 0.1301 0.7733
C13 C 1.3767(5) 0.2851(4) 0.4743(3)
H13 H 1.3158 0.3148 0.4444
H14 H 1.4195 0.3338 0.5023
H15 H 1.4235 0.2516 0.4408
C14 C 1.1962(4) 0.0132(4) 0.6877(3)
H16 H 1.2464 0.0083 0.7337
H17 H 1.1915 -0.0499 0.6637
N6 N 1.0857(3) 0.0414(3) 0.7093(2)
N7 N 0.9850(3) 0.2461(3) 0.3685(2)
N8 N 1.1072(5) 0.1525(3) 0.3112(2)
C15 C 1.0666(4) 0.2206(3) 0.4190(3)
H18 H 1.0719 0.2385 0.4705
C16 C 1.0463(4) 0.0438(4) 0.7787(3)
H19 H 1.0871 0.0281 0.8244
N9 N 1.0030(4) 0.0682(4) 0.6552(3)
C17 C 1.0142(5) 0.2007(4) 0.3033(3)
H20 H 0.9709 0.2041 0.2569
O3 O 1.0587(10) 0.149(2) 1.0861(7)
O4 O 1.1363(10) 0.0606(9) 0.9633(7)
C21 C 0.9194(4) 0.0863(4) 0.6973(3)
H22 H 0.8504 0.1075 0.6762
O11 O 0.9478(5) 0.0556(5) 0.9624(4)
N1A N 1.0591(3) -0.4283(3) 0.7266(2)
O1A O 1.2278(5) -0.2848(4) 0.5320(3)
O2A O 1.2559(3) -0.2734(3) 0.71707(19)
Cd1A Cd 1.14688(2) -0.36543(2) 0.627567(18)
Cd1A_2 Cd 1.14688(2) 0.63457(2) 0.627567(18)
Cd1C Cd 0.85312(2) 0.36543(2) 0.372433(18)
Cd1B Cd 1.14688(2) -0.13457(2) 1.127567(18)
S1B S 0.9549(2) -0.0372(2) 0.99135(16)
C1A C 0.7328(3) -0.3618(3) 0.9973(2)
C2A C 0.6681(3) -0.2851(3) 0.9701(2)
N2A N 0.8603(3) -0.3340(3) 1.11399(19)
N3A N 0.5387(4) -0.0250(3) 0.8868(3)
C3A C 0.7766(3) -0.4295(3) 0.9464(2)
C4A C 0.7555(4) -0.3790(4) 1.0835(2)
H1A H 0.7591 -0.4478 1.0932
H2A H 0.6942 -0.3530 1.1102
C5A C 0.6926(4) -0.3360(4) 0.8387(2)
N4A N 0.6072(3) -0.0983(3) 0.8702(2)
C6A C 0.7075(4) -0.0645(3) 0.8624(3)
H3A H 0.7682 -0.1019 0.8508
C7A C 0.7563(3) -0.4153(3) 0.8674(2)
N5A N 0.7107(3) 0.0293(3) 0.8729(2)
N5_2 N 1.2893(3) -0.4707(3) 0.6271(2)
C8A C 0.6448(3) -0.2734(3) 0.8905(2)
C9A C 0.5629(4) -0.1965(4) 0.8627(3)
H4A H 0.5399 -0.2085 0.8091
H5A H 0.4971 -0.2013 0.8916
C10A C 0.8452(4) -0.5131(4) 0.9787(3)
H6A H 0.8891 -0.5387 0.9395
H7A H 0.8937 -0.4915 1.0214
H8A H 0.7966 -0.5624 0.9955
C11A C 0.6045(4) 0.0504(4) 0.8872(3)
H9A H 0.5802 0.1128 0.8964
C12A C 0.6754(5) -0.3193(5) 0.7534(3)
H10A H 0.5970 -0.3191 0.7383
H11A H 0.7071 -0.2583 0.7408
H12A H 0.7110 -0.3699 0.7267
C13A C 0.6233(5) -0.2149(4) 1.0257(3)
H13A H 0.6842 -0.1852 1.0556
H14A H 0.5805 -0.1662 0.9977
H15A H 0.5765 -0.2484 1.0592
C14A C 0.8038(4) -0.4868(4) 0.8123(3)
H16A H 0.7536 -0.4917 0.7663
H17A H 0.8085 -0.5499 0.8363
N6A N 0.9143(3) -0.4586(3) 0.7907(2)
N7A N 1.0150(3) -0.2539(3) 1.1315(2)
N7C N 0.9850(3) 0.2539(3) 0.8685(2)
N7B N 1.0150(3) -0.2461(3) 0.6315(2)
N8A N 0.8928(5) -0.3475(3) 1.1888(2)
C15A C 0.9334(4) -0.2794(3) 1.0810(3)
H18A H 0.9281 -0.2615 1.0295
C16A C 0.9537(4) -0.4562(4) 0.7213(3)
H19A H 0.9129 -0.4719 0.6756
N9A N 0.9970(4) -0.4318(4) 0.8448(3)
C17A C 0.9858(5) -0.2993(4) 1.1967(3)
H20A H 1.0291 -0.2959 1.2431
O3B O 0.9413(10) -0.149(2) 0.9139(7)
O4B O 0.8637(10) -0.0606(9) 1.0367(7)
C21A C 1.0806(4) -0.4137(4) 0.8027(3)
H22A H 1.1496 -0.3925 0.8238
O11B O 1.0522(5) -0.0556(5) 1.0376(4)
O11A O 1.0522(5) -0.4444(5) 0.5376(4)
loop_
_geom_bond_atom_site_label_1
_geom_bond_atom_site_label_2
_geom_bond_site_symmetry_1
_geom_bond_site_symmetry_2
N1 Cd1 1_555 1_555
O1 Cd1 1_555 1_555
O2 Cd1 1_555 1_555
Cd1 O11 1_555 1_555
S1 O3 1_555 1_555
C1 C2 1_555 1_555
C2 C8 1_555 1_555
N2 C4 1_555 1_555
N3 N4 1_555 1_555
C3 C1 1_555 1_555
C4 C1 1_555 1_555
H1 C4 1_555 1_555
H2 C4 1_555 1_555
C5 C7 1_555 1_555
N4 C6 1_555 1_555
C6 H3 1_555 1_555
C7 C3 1_555 1_555
N5 C6 1_555 1_555
C8 C5 1_555 1_555
C9 N4 1_555 1_555
H4 C9 1_555 1_555
H5 C9 1_555 1_555
C10 C3 1_555 1_555
H6 C10 1_555 1_555
H7 C10 1_555 1_555
H8 C10 1_555 1_555
C11 N3 1_555 1_555
H9 C11 1_555 1_555
C12 C5 1_555 1_555
H10 C12 1_555 1_555
H11 C12 1_555 1_555
H12 C12 1_555 1_555
C13 C2 1_555 1_555
H13 C13 1_555 1_555
H14 C13 1_555 1_555
H15 C13 1_555 1_555
C14 C7 1_555 1_555
H16 C14 1_555 1_555
H17 C14 1_555 1_555
N6 C14 1_555 1_555
N7 C15 1_555 1_555
N8 N2 1_555 1_555
C15 N2 1_555 1_555
H18 C15 1_555 1_555
C16 N1 1_555 1_555
H19 C16 1_555 1_555
N9 N6 1_555 1_555
C17 N7 1_555 1_555
H20 C17 1_555 1_555
O4 S1 1_555 1_555
O5 C22 1_555 1_555
C18 H21 1_555 1_555
C19 C18 1_555 1_555
C20 C19 1_555 1_555
C21 N1 1_555 1_555
H22 C21 1_555 1_555
C22 C19 1_555 1_555
O6 C22 1_555 1_555
O7 C23 1_555 1_555
C23 C20 1_555 1_555
O8 C23 1_555 1_555
O11 S1 1_555 1_555
N1A Cd1A 1_555 1_555
O1A Cd1A 1_555 1_555
O2A Cd1A 1_555 1_555
Cd1A N5_2 1_555 1_555
Cd1A_2 N5 1_555 1_555
Cd1C N7 1_555 1_555
Cd1B N7A 1_555 1_555
S1B S1 1_555 1_555
C1A C2A 1_555 1_555
C2A C8A 1_555 1_555
N2A C4A 1_555 1_555
N3A N4A 1_555 1_555
C3A C1A 1_555 1_555
C4A C1A 1_555 1_555
H1A C4A 1_555 1_555
H2A C4A 1_555 1_555
C5A C7A 1_555 1_555
N4A C6A 1_555 1_555
C6A H3A 1_555 1_555
C7A C3A 1_555 1_555
N5A Cd1 1_555 1_555
C8A C5A 1_555 1_555
C9A N4A 1_555 1_555
H4A C9A 1_555 1_555
H5A C9A 1_555 1_555
C10A C3A 1_555 1_555
H6A C10A 1_555 1_555
H7A C10A 1_555 1_555
H8A C10A 1_555 1_555
C11A N3A 1_555 1_555
H9A C11A 1_555 1_555
C12A C5A 1_555 1_555
H10A C12A 1_555 1_555
H11A C12A 1_555 1_555
H12A C12A 1_555 1_555
C13A C2A 1_555 1_555
H13A C13A 1_555 1_555
H14A C13A 1_555 1_555
H15A C13A 1_555 1_555
C14A C7A 1_555 1_555
H16A C14A 1_555 1_555
H17A C14A 1_555 1_555
N6A C14A 1_555 1_555
N7A C15A 1_555 1_555
N7C Cd1 1_555 1_555
N7B Cd1A 1_555 1_555
N8A N2A 1_555 1_555
C15A N2A 1_555 1_555
H18A C15A 1_555 1_555
C16A N1A 1_555 1_555
H19A C16A 1_555 1_555
N9A N6A 1_555 1_555
C17A N7A 1_555 1_555
H20A C17A 1_555 1_555
O3B S1B 1_555 1_555
O4B S1B 1_555 1_555
O5B C22B 1_555 1_555
C18B C20 1_555 1_555
H21B C18B 1_555 1_555
C19B C18B 1_555 1_555
C20B C18 1_555 1_555
C21A N1A 1_555 1_555
H22A C21A 1_555 1_555
C22B C19B 1_555 1_555
O6B C22B 1_555 1_555
O7B C23B 1_555 1_555
C23B C20B 1_555 1_555
O8B C23B 1_555 1_555
O11B S1 1_555 1_555
O11A Cd1A 1_555 1_555
N5 C11 1_555 1_555
C8 C9 1_555 1_555
N6 C16 1_555 1_555
N8 C17 1_555 1_555
N9 C21 1_555 1_555
O11 S1B 1_555 1_555
Cd1B O11B 1_555 1_555
S1B O11B 1_555 1_555
C6A N5A 1_555 1_555
N5A C11A 1_555 1_555
C8A C9A 1_555 1_555
N6A C16A 1_555 1_555
N8A C17A 1_555 1_555
N9A C21A 1_555 1_555
C19B C20B 1_555 1_555

#END
