
#######################################################################
#
#                 Cambridge Crystallographic Data Centre
#                                CCDC 
#
#######################################################################
#
# If this CIF has been generated from an entry in the Cambridge 
# Structural Database, then it will include bibliographic, chemical, 
# crystal, experimental, refinement or atomic coordinate data resulting 
# from the CCDC's data processing and validation procedures.
#
#######################################################################

data_IBIXUO
_symmetry_cell_setting           monoclinic
_symmetry_space_group_name_H-M   'C 2/c'
_symmetry_Int_Tables_number      15
_space_group_name_Hall           '-C 2yn'
loop_
_symmetry_equiv_pos_site_id
_symmetry_equiv_pos_as_xyz
1 x,y,z
2 -x,y,1/2-z
3 1/2+x,1/2+y,z
4 1/2-x,1/2+y,1/2-z
5 -x,-y,-z
6 x,-y,1/2+z
7 1/2-x,1/2-y,-z
8 1/2+x,1/2-y,1/2+z
_cell_length_a                   19.352(3)
_cell_length_b                   10.6369(14)
_cell_length_c                   26.107(3)
_cell_angle_alpha                90
_cell_angle_beta                 102.614(3)
_cell_angle_gamma                90
_cell_volume                     5244.29
loop_
_atom_site_label
_atom_site_type_symbol
_atom_site_fract_x
_atom_site_fract_y
_atom_site_fract_z
Cu1 Cu 0.28955(3) 0.62221(5) 0.97313(2)
C1 C 0.4088(4) 0.8636(9) 1.2244(2)
C2 C 0.4076(3) 0.6522(8) 1.2600(2)
C3 C 0.4095(4) 0.8338(8) 1.3176(3)
C4 C 0.4063(3) 0.6775(9) 1.1668(2)
H1 H 0.4291 0.5937 1.1705
H2 H 0.4321 0.7316 1.1465
C5 C 0.3296(3) 0.6643(6) 1.1372(2)
H3 H 0.3049 0.6039 1.1559
H4 H 0.3055 0.7466 1.1364
C6 C 0.3247(3) 0.6189(5) 1.0814(2)
C7 C 0.4068(3) 0.6173(7) 1.3522(2)
H5 H 0.4270 0.6585 1.3862
H6 H 0.4346 0.5401 1.3498
C8 C 0.3301(3) 0.5826(6) 1.3497(2)
H7 H 0.3004 0.6593 1.3432
H8 H 0.3136 0.5239 1.3202
C9 C 0.3216(3) 0.5220(5) 1.4002(2)
C10 C 0.4002(6) 1.0500(9) 1.2808(3)
H9 H 0.4204 1.0731 1.3178
H10 H 0.4270 1.0960 1.2585
C11 C 0.3227(6) 1.0920(11) 1.2665(4)
H11 H 0.2949 1.0240 1.2783
H12 H 0.3091 1.0927 1.2277
C12 C 0.2954(7) 1.2154(10) 1.2848(4)
C13 C 0.3831(2) 0.8193(5) 0.94984(19)
H13 H 0.3396 0.8579 0.9335
C14 C 0.4455(3) 0.8782(5) 0.9465(2)
H14 H 0.4445 0.9557 0.9282
C15 C 0.5097(2) 0.8232(4) 0.97000(18)
C16 C 0.5074(3) 0.7093(5) 0.9963(2)
H15 H 0.5501 0.6686 1.0129
C17 C 0.4432(3) 0.6565(5) 0.9981(2)
H16 H 0.4425 0.5793 1.0163
C18 C 0.6459(3) 1.0374(5) 0.93287(19)
H17 H 0.6480 1.0988 0.9068
C19 C 0.5830(2) 0.9751(5) 0.93083(19)
H18 H 0.5429 0.9936 0.9037
C20 C 0.5782(2) 0.8853(4) 0.96842(19)
C21 C 0.6403(3) 0.8584(5) 1.0056(2)
H19 H 0.6404 0.7951 1.0313
C22 C 0.7017(3) 0.9249(5) 1.0048(2)
H20 H 0.7436 0.9051 1.0300
N1 N 0.4112(3) 0.7326(7) 1.21946(18)
N2 N 0.4122(3) 0.7042(6) 1.30820(17)
N3 N 0.4102(4) 0.9087(7) 1.2741(2)
N4 N 0.38114(19) 0.7104(4) 0.97501(15)
N5 N 0.70409(19) 1.0150(4) 0.97004(16)
O1 O 0.4075(3) 0.9338(6) 1.18757(18)
O2 O 0.4047(3) 0.5394(7) 1.25318(18)
O3 O 0.4092(4) 0.8760(6) 1.35990(18)
O4 O 0.28495(16) 0.6827(3) 1.04458(11)
O5 O 0.3585(2) 0.5264(4) 1.07269(17)
O6 O 0.28734(17) 0.4177(3) 1.39696(14)
O7 O 0.3465(2) 0.5723(4) 1.44269(14)
O8 O 0.3291(4) 1.2457(7) 1.3309(3)
H21 H 0.3058 1.2997 1.3435
O9 O 0.2468(5) 1.2772(8) 1.2619(3)
Cu1B Cu 0.78955(3) 1.12221(5) 0.97313(2)
Cu1F Cu 0.21045(3) 0.87779(5) 1.02687(2)
Cu1E Cu 0.28955(3) 0.37779(5) 1.47313(2)
N5B N 0.20409(19) 0.5150(4) 0.97004(16)
O4F O 0.21505(16) 0.8173(3) 0.95542(11)
O6E O 0.28734(17) 0.5823(3) 0.89696(14)
O7E O 0.3465(2) 0.4277(4) 0.94269(14)
O10 O 0.4089(11) 0.312(2) 1.1261(8)
O11? O 0.3490(14) 0.277(3) 1.1412(11)
loop_
_geom_bond_atom_site_label_1
_geom_bond_atom_site_label_2
_geom_bond_site_symmetry_1
_geom_bond_site_symmetry_2
Cu1 N4 1_555 1_555
C1 N1 1_555 1_555
C2 N1 1_555 1_555
C3 N2 1_555 1_555
C4 H1 1_555 1_555
H2 C4 1_555 1_555
C5 C4 1_555 1_555
H3 C5 1_555 1_555
H4 C5 1_555 1_555
C6 C5 1_555 1_555
C7 H5 1_555 1_555
H6 C7 1_555 1_555
C8 C7 1_555 1_555
H7 C8 1_555 1_555
H8 C8 1_555 1_555
C9 C8 1_555 1_555
C10 H9 1_555 1_555
H10 C10 1_555 1_555
C11 C10 1_555 1_555
H11 C11 1_555 1_555
H12 C11 1_555 1_555
C12 C11 1_555 1_555
C13 H13 1_555 1_555
C14 C13 1_555 1_555
H14 C14 1_555 1_555
C15 C14 1_555 1_555
C16 C15 1_555 1_555
H15 C16 1_555 1_555
C17 C16 1_555 1_555
H16 C17 1_555 1_555
C18 H17 1_555 1_555
C19 C18 1_555 1_555
H18 C19 1_555 1_555
C20 C15 1_555 1_555
C21 C20 1_555 1_555
H19 C21 1_555 1_555
C22 C21 1_555 1_555
H20 C22 1_555 1_555
N1 C4 1_555 1_555
N2 C2 1_555 1_555
N3 C1 1_555 1_555
N4 C13 1_555 1_555
N5 C18 1_555 1_555
O1 C1 1_555 1_555
O2 C2 1_555 1_555
O3 C3 1_555 1_555
O4 Cu1 1_555 1_555
O5 C6 1_555 1_555
O6 C9 1_555 1_555
O7 C9 1_555 1_555
O8 C12 1_555 1_555
H21 O8 1_555 1_555
O9 C12 1_555 1_555
Cu1B N5 1_555 1_555
Cu1F O4 1_555 1_555
Cu1E O6 1_555 1_555
N5B Cu1 1_555 1_555
O4F Cu1 1_555 1_555
O6E Cu1 1_555 1_555
O7E Cu1 1_555 1_555
C3 N3 1_555 1_555
C6 O4 1_555 1_555
C7 N2 1_555 1_555
C10 N3 1_555 1_555
C17 N4 1_555 1_555
C19 C20 1_555 1_555
C22 N5 1_555 1_555
O7 Cu1E 1_555 1_555
Cu1F O4F 1_555 1_555

#END
