
#######################################################################
#
#                 Cambridge Crystallographic Data Centre
#                                CCDC 
#
#######################################################################
#
# If this CIF has been generated from an entry in the Cambridge 
# Structural Database, then it will include bibliographic, chemical, 
# crystal, experimental, refinement or atomic coordinate data resulting 
# from the CCDC's data processing and validation procedures.
#
#######################################################################

data_IBIYEY
_symmetry_cell_setting           monoclinic
_symmetry_space_group_name_H-M   'P 21/c'
_symmetry_Int_Tables_number      14
_space_group_name_Hall           '-P 2ybc'
loop_
_symmetry_equiv_pos_site_id
_symmetry_equiv_pos_as_xyz
1 x,y,z
2 x,1/2-y,1/2+z
3 -x,-y,-z
4 -x,1/2+y,1/2-z
_cell_length_a                   9.987(4)
_cell_length_b                   20.783(7)
_cell_length_c                   18.893(7)
_cell_angle_alpha                90
_cell_angle_beta                 102.89(1)
_cell_angle_gamma                90
_cell_volume                     3822.61
loop_
_atom_site_label
_atom_site_type_symbol
_atom_site_fract_x
_atom_site_fract_y
_atom_site_fract_z
Eu1 Eu 0.26510(2) 0.235900(10) 0.016100(10)
O1 O 0.1613(5) 0.3479(2) 0.0219(2)
O2 O 0.2009(4) 0.2953(2) 0.1213(2)
O3 O 0.1349(6) 0.3943(2) 0.1202(2)
O4 O 0.0127(4) 0.2110(2) -0.0211(2)
O5 O 0.1467(3) 0.1404(2) -0.0530(2)
O6 O -0.0718(4) 0.1201(2) -0.0686(2)
O7 O 0.1939(5) 0.1574(2) 0.1007(2)
O8 O 0.4025(4) 0.1918(2) 0.1343(2)
O9 O 0.3166(7) 0.1300(2) 0.2064(2)
O10 O 0.4362(3) 0.1754(2) -0.0176(2)
O11 O 0.7950(4) 0.0727(2) 0.0565(2)
O12 O 0.2021(3) 0.2706(2) -0.1057(2)
O13 O -0.0592(4) 0.2579(2) -0.3112(2)
O14 O 0.4483(4) 0.1917(2) -0.4574(2)
O15 O 0.7429(4) 0.0477(2) -0.4346(2)
N1 N 0.1640(5) 0.3472(2) 0.0887(2)
N2 N 0.0266(4) 0.1563(2) -0.0483(2)
N3 N 0.3037(7) 0.1587(2) 0.1488(2)
N4 N 0.5322(4) 0.1750(2) -0.1944(2)
N5 N 0.6505(4) 0.1598(2) -0.0325(2)
N6 N 0.1649(4) 0.2241(2) -0.2160(2)
N7 N 0.6099(5) 0.1385(2) -0.3787(2)
C1 C 0.6583(5) 0.2043(3) -0.1543(2)
C2 C 0.6572(5) 0.2181(2) -0.0746(2)
C3 C 0.5453(5) 0.1427(2) -0.0048(2)
C4 C 0.5553(5) 0.0841(2) 0.0421(2)
C5 C 0.4327(6) 0.0610(2) 0.0567(3)
C6 C 0.4309(6) 0.0094(3) 0.1029(3)
C7 C 0.5515(7) -0.0210(3) 0.1339(3)
C8 C 0.6743(6) -0.0006(3) 0.1199(3)
C9 C 0.6770(5) 0.0516(2) 0.0737(3)
C10 C 0.9230(7) 0.0413(4) 0.0886(5)
C11 C 0.4143(5) 0.2183(2) -0.2084(2)
C12 C 0.2871(5) 0.1833(2) -0.1988(2)
C13 C 0.1291(4) 0.2647(2) -0.1695(2)
C14 C 0.0009(5) 0.3030(2) -0.1932(2)
C15 C -0.0320(6) 0.3450(3) -0.1420(3)
C16 C -0.1472(7) 0.3829(4) -0.1571(4)
C17 C -0.2341(7) 0.3793(3) -0.2255(4)
C18 C -0.2053(6) 0.3382(3) -0.2775(3)
C19 C -0.0894(5) 0.3003(3) -0.2615(2)
C20 C -0.1300(6) 0.2622(3) -0.3860(3)
C21 C 0.5474(5) 0.1392(2) -0.2594(2)
C22 C 0.6024(6) 0.1782(2) -0.3156(2)
C23 C 0.5333(5) 0.1473(2) -0.4449(3)
C24 C 0.5504(5) 0.1029(2) -0.5048(3)
C25 C 0.4583(7) 0.1107(3) -0.5710(3)
C26 C 0.4628(9) 0.0719(4) -0.6301(3)
C27 C 0.5576(9) 0.0238(3) -0.6230(4)
C28 C 0.6523(7) 0.0144(3) -0.5587(4)
C29 C 0.6508(6) 0.0541(3) -0.4989(3)
C30 C 0.8497(8) 0.0004(4) -0.4267(5)
H1 H 0.7324(5) 0.1761(3) -0.1557(2)
H2 H 0.6715(5) 0.2438(3) -0.1772(2)
H3 H 0.5795(5) 0.2440(2) -0.0731(2)
H4 H 0.7387(5) 0.2408(2) -0.0531(2)
H5 H 0.725(5) 0.138(2) -0.022(2)
H6 H 0.3486(6) 0.0812(2) 0.0343(3)
H7 H 0.3466(6) -0.0049(3) 0.1129(3)
H8 H 0.5504(7) -0.0565(3) 0.1655(3)
H9 H 0.7572(6) -0.0221(3) 0.1417(3)
H10 H 0.9065(7) -0.0030(4) 0.0960(5)
H11 H 0.9845(7) 0.0452(4) 0.0570(5)
H12 H 0.9623(7) 0.0609(4) 0.1338(5)
H13 H 0.4320(5) 0.2534(2) -0.1753(2)
H14 H 0.3998(5) 0.2341(2) -0.2567(2)
H15 H 0.3007(5) 0.1694(2) -0.1498(2)
H16 H 0.2730(5) 0.1469(2) -0.2300(2)
H17 H 0.112(5) 0.222(2) -0.256(3)
H18 H 0.0273(6) 0.3473(3) -0.0952(3)
H19 H -0.1672(7) 0.4112(4) -0.1214(4)
H20 H -0.3142(7) 0.4053(3) -0.2365(4)
H21 H -0.2652(6) 0.3361(3) -0.3242(3)
H22 H -0.1124(6) 0.3029(3) -0.4049(3)
H23 H -0.0986(6) 0.2290(3) -0.4129(3)
H24 H -0.2259(6) 0.2574(3) -0.3896(3)
H25 H 0.6088(5) 0.1045(2) -0.2440(2)
H26 H 0.4598(5) 0.1228(2) -0.2825(2)
H27 H 0.6917(6) 0.1936(2) -0.2939(2)
H28 H 0.5430(6) 0.2136(2) -0.3311(2)
H29 H 0.675(5) 0.111(2) -0.371(3)
H30 H 0.3904(7) 0.1434(3) -0.5760(3)
H31 H 0.4002(9) 0.0789(4) -0.6752(3)
H32 H 0.5582(9) -0.0037(3) -0.6631(4)
H33 H 0.7187(7) -0.0189(3) -0.5549(4)
H34 H 0.9334(8) 0.0183(4) -0.4002(5)
H35 H 0.8603(8) -0.0126(4) -0.4734(5)
H36 H 0.8259(8) -0.0359(4) -0.4014(5)
O14A O 0.4483(4) 0.3083(2) 0.0426(2)
Eu1A Eu 0.26510(2) 0.264100(10) -0.483900(10)
O16 O 0.897(1) 0.3970(7) 0.2141(7)
O17? O 0.955(2) 0.4253(7) 0.2615(8)
O18? O 0.849(2) 0.4477(11) 0.2478(12)
loop_
_geom_bond_atom_site_label_1
_geom_bond_atom_site_label_2
_geom_bond_site_symmetry_1
_geom_bond_site_symmetry_2
Eu1 O1 1_555 1_555
O1 N1 1_555 1_555
O2 Eu1 1_555 1_555
O3 N1 1_555 1_555
O4 Eu1 1_555 1_555
O5 Eu1 1_555 1_555
O6 N2 1_555 1_555
O7 Eu1 1_555 1_555
O8 Eu1 1_555 1_555
O9 N3 1_555 1_555
O10 Eu1 1_555 1_555
O11 C9 1_555 1_555
O12 Eu1 1_555 1_555
O13 C19 1_555 1_555
O14 C23 1_555 1_555
O15 C29 1_555 1_555
N1 O2 1_555 1_555
N2 O4 1_555 1_555
N3 O7 1_555 1_555
N4 C1 1_555 1_555
N5 C2 1_555 1_555
N6 C12 1_555 1_555
N7 C22 1_555 1_555
C1 C2 1_555 1_555
C2 H3 1_555 1_555
C3 O10 1_555 1_555
C4 C3 1_555 1_555
C5 C4 1_555 1_555
C6 C5 1_555 1_555
C7 C6 1_555 1_555
C8 C7 1_555 1_555
C9 C4 1_555 1_555
C10 O11 1_555 1_555
C11 N4 1_555 1_555
C12 C11 1_555 1_555
C13 O12 1_555 1_555
C14 C13 1_555 1_555
C15 C14 1_555 1_555
C16 C15 1_555 1_555
C17 C16 1_555 1_555
C18 C17 1_555 1_555
C19 C14 1_555 1_555
C20 O13 1_555 1_555
C21 N4 1_555 1_555
C22 C21 1_555 1_555
C23 N7 1_555 1_555
C24 C23 1_555 1_555
C25 C24 1_555 1_555
C26 C25 1_555 1_555
C27 C26 1_555 1_555
C28 C27 1_555 1_555
C29 C24 1_555 1_555
C30 O15 1_555 1_555
H1 C1 1_555 1_555
H2 C1 1_555 1_555
H4 C2 1_555 1_555
H5 N5 1_555 1_555
H6 C5 1_555 1_555
H7 C6 1_555 1_555
H8 C7 1_555 1_555
H9 C8 1_555 1_555
H10 C10 1_555 1_555
H11 C10 1_555 1_555
H12 C10 1_555 1_555
H13 C11 1_555 1_555
H14 C11 1_555 1_555
H15 C12 1_555 1_555
H16 C12 1_555 1_555
H17 N6 1_555 1_555
H18 C15 1_555 1_555
H19 C16 1_555 1_555
H20 C17 1_555 1_555
H21 C18 1_555 1_555
H22 C20 1_555 1_555
H23 C20 1_555 1_555
H24 C20 1_555 1_555
H25 C21 1_555 1_555
H26 C21 1_555 1_555
H27 C22 1_555 1_555
H28 C22 1_555 1_555
H29 N7 1_555 1_555
H30 C25 1_555 1_555
H31 C26 1_555 1_555
H32 C27 1_555 1_555
H33 C28 1_555 1_555
H34 C30 1_555 1_555
H35 C30 1_555 1_555
H36 C30 1_555 1_555
O14A Eu1 1_555 1_555
Eu1A O14 1_555 1_555
O5 N2 1_555 1_555
O8 N3 1_555 1_555
N5 C3 1_555 1_555
N6 C13 1_555 1_555
C8 C9 1_555 1_555
C18 C19 1_555 1_555
C28 C29 1_555 1_555

#END
