
#######################################################################
#
#                 Cambridge Crystallographic Data Centre
#                                CCDC 
#
#######################################################################
#
# If this CIF has been generated from an entry in the Cambridge 
# Structural Database, then it will include bibliographic, chemical, 
# crystal, experimental, refinement or atomic coordinate data resulting 
# from the CCDC's data processing and validation procedures.
#
#######################################################################

data_IBOMAN
_symmetry_cell_setting           triclinic
_symmetry_space_group_name_H-M   'P -1'
_symmetry_Int_Tables_number      2
_space_group_name_Hall           '-P 1'
loop_
_symmetry_equiv_pos_site_id
_symmetry_equiv_pos_as_xyz
1 x,y,z
2 -x,-y,-z
_cell_length_a                   10.1690(10)
_cell_length_b                   10.194(2)
_cell_length_c                   11.921(2)
_cell_angle_alpha                65.550(10)
_cell_angle_beta                 65.540(10)
_cell_angle_gamma                88.960(10)
_cell_volume                     1006.32
loop_
_atom_site_label
_atom_site_type_symbol
_atom_site_fract_x
_atom_site_fract_y
_atom_site_fract_z
Mn1 Mn 0.96473(3) 0.93042(3) 0.67042(3)
N1 N 1.14388(19) 0.79120(19) 0.65126(18)
N2 N 0.85622(19) 0.69300(19) 0.83540(18)
C1 C 1.2863(3) 0.8418(3) 0.5674(2)
H1 H 1.3174 0.9419 0.5095
C2 C 1.3914(3) 0.7517(3) 0.5622(3)
H2 H 1.4904 0.7914 0.5034
C3 C 1.3471(3) 0.6062(3) 0.6438(3)
H3 H 1.4158 0.5447 0.6400
C4 C 1.1973(3) 0.5468(3) 0.7349(2)
C5 C 1.1425(4) 0.3941(3) 0.8259(3)
H4 H 1.2065 0.3280 0.8225
C6 C 1.0006(4) 0.3452(3) 0.9158(3)
H5 H 0.9678 0.2454 0.9741
C7 C 0.8974(3) 0.4425(2) 0.9248(2)
C8 C 0.7486(3) 0.3981(3) 1.0213(3)
H6 H 0.7110 0.2996 1.0830
C9 C 0.6596(3) 0.4984(3) 1.0249(3)
H7 H 0.5614 0.4696 1.0900
C10 C 0.7168(3) 0.6457(3) 0.9295(2)
H8 H 0.6544 0.7135 0.9322
C11 C 0.9463(2) 0.5937(2) 0.8336(2)
C12 C 1.0997(2) 0.6454(2) 0.7362(2)
C13 C 0.7456(2) 1.0804(2) 0.8392(2)
C14 C 0.6184(3) 1.1610(2) 0.8535(3)
H9 H 0.6009 1.1929 0.9239
H10 H 0.5308 1.0943 0.8837
C15 C 0.6449(3) 1.2927(2) 0.7209(3)
H11 H 0.5517 1.3229 0.7288
H12 H 0.6820 1.2641 0.6468
C16 C 0.7529(3) 1.4233(2) 0.6829(2)
H13 H 0.7081 1.4646 0.7471
H14 H 0.8400 1.3902 0.6911
C17 C 0.7972(3) 1.5411(2) 0.5375(2)
H15 H 0.8495 1.5013 0.4736
H16 H 0.7088 1.5660 0.5276
C18 C 0.8927(2) 1.6797(2) 0.4978(2)
H17 H 0.9394 1.7349 0.3982
H18 H 0.9698 1.6530 0.5262
C19 C 0.8126(2) 1.7780(2) 0.5589(2)
O1 O 0.78229(16) 1.02857(17) 0.75182(16)
O2 O 0.8091(2) 1.0679(3) 0.9108(2)
O3 O 0.89421(15) 1.89293(14) 0.53311(14)
O4 O 0.67901(17) 1.74749(19) 0.6281(2)
O5 O 1.0528(2) 0.9912(2) 0.7821(2)
H19 H 0.985(4) 1.028(3) 0.832(3)
H20 H 1.128(3) 1.005(3) 0.784(3)
O3_2 O 0.89421(15) 0.89293(14) 0.53311(14)
O3A O 1.10579(15) 1.10707(14) 0.46689(14)
Mn1_2 Mn 0.96473(3) 1.93042(3) 0.67042(3)
Mn1A Mn 1.03527(3) 2.06958(3) 0.32958(3)
O6 O 1.2953(2) 1.0402(3) 0.8059(3)
H21 H 1.259(4) 1.009(4) 0.894(4)
H22 H 1.374(4) 0.997(4) 0.783(4)
O7 O 1.4679(2) 1.0976(2) 0.2381(2)
H23 H 1.432(3) 1.150(3) 0.277(3)
H24 H 1.397(4) 1.047(3) 0.251(3)
loop_
_geom_bond_atom_site_label_1
_geom_bond_atom_site_label_2
_geom_bond_site_symmetry_1
_geom_bond_site_symmetry_2
Mn1 N1 1_555 1_555
N1 C1 1_555 1_555
N2 Mn1 1_555 1_555
C1 H1 1_555 1_555
C2 C1 1_555 1_555
H2 C2 1_555 1_555
C3 C2 1_555 1_555
H3 C3 1_555 1_555
C4 C3 1_555 1_555
C5 C4 1_555 1_555
H4 C5 1_555 1_555
C6 C5 1_555 1_555
H5 C6 1_555 1_555
C7 C6 1_555 1_555
C8 C7 1_555 1_555
H6 C8 1_555 1_555
C9 C8 1_555 1_555
H7 C9 1_555 1_555
C10 N2 1_555 1_555
H8 C10 1_555 1_555
C11 N2 1_555 1_555
C12 N1 1_555 1_555
C13 C14 1_555 1_555
C14 H9 1_555 1_555
H10 C14 1_555 1_555
C15 C14 1_555 1_555
H11 C15 1_555 1_555
H12 C15 1_555 1_555
C16 C15 1_555 1_555
H13 C16 1_555 1_555
H14 C16 1_555 1_555
C17 C16 1_555 1_555
H15 C17 1_555 1_555
H16 C17 1_555 1_555
C18 C17 1_555 1_555
H17 C18 1_555 1_555
H18 C18 1_555 1_555
C19 C18 1_555 1_555
O1 Mn1 1_555 1_555
O2 C13 1_555 1_555
O3 C19 1_555 1_555
O4 C19 1_555 1_555
O5 Mn1 1_555 1_555
O6 H21 1_555 1_555
O7 H23 1_555 1_555
H19 O5 1_555 1_555
H20 O5 1_555 1_555
H22 O6 1_555 1_555
H24 O7 1_555 1_555
O3_2 Mn1 1_555 1_555
O3A Mn1 1_555 1_555
Mn1_2 O3 1_555 1_555
Mn1A O3 1_555 1_555
C4 C12 1_555 1_555
C7 C11 1_555 1_555
C9 C10 1_555 1_555
C11 C12 1_555 1_555
C13 O1 1_555 1_555

#END
