
#######################################################################
#
#                 Cambridge Crystallographic Data Centre
#                                CCDC 
#
#######################################################################
#
# If this CIF has been generated from an entry in the Cambridge 
# Structural Database, then it will include bibliographic, chemical, 
# crystal, experimental, refinement or atomic coordinate data resulting 
# from the CCDC's data processing and validation procedures.
#
#######################################################################

data_IBORIA
_symmetry_cell_setting           triclinic
_symmetry_space_group_name_H-M   'P -1'
_symmetry_Int_Tables_number      2
_space_group_name_Hall           '-P 1'
loop_
_symmetry_equiv_pos_site_id
_symmetry_equiv_pos_as_xyz
1 x,y,z
2 -x,-y,-z
_cell_length_a                   11.6025(17)
_cell_length_b                   11.7849(17)
_cell_length_c                   14.655(2)
_cell_angle_alpha                91.615(3)
_cell_angle_beta                 106.597(3)
_cell_angle_gamma                106.781(3)
_cell_volume                     1825.16
loop_
_atom_site_label
_atom_site_type_symbol
_atom_site_fract_x
_atom_site_fract_y
_atom_site_fract_z
Ag1 Ag -0.50554(5) 0.57266(5) 0.78397(4)
P1 P -0.4804(2) 0.62935(18) 0.62643(14)
C1 C -0.4627(9) 0.5224(8) 0.5428(6)
H1 H -0.3902 0.4966 0.5647
P2 P -0.33583(17) 0.51501(17) 0.89643(13)
C2 C -0.3562(6) 0.4641(7) 1.0080(5)
H2 H -0.3661 0.5192 1.0514
C3 C -0.3585(6) 0.3578(6) 1.0344(5)
H3 H -0.3482 0.3007 0.9928
P3 P -0.61909(18) 0.68279(17) 0.85214(13)
C4 C -0.6090(7) 0.6862(7) 0.5658(5)
C5 C -0.5883(8) 0.8064(8) 0.5528(5)
H4 H -0.5042 0.8580 0.5663
C6 C -0.6888(9) 0.8519(8) 0.5203(6)
H5 H -0.6736 0.9342 0.5126
C7 C -0.8120(10) 0.7757(10) 0.4993(6)
H6 H -0.8815 0.8056 0.4768
C8 C -0.8330(9) 0.6567(10) 0.5111(6)
H7 H -0.9172 0.6046 0.4959
C9 C -0.7316(8) 0.6120(8) 0.5452(6)
H8 H -0.7471 0.5301 0.5542
C10 C -0.3389(7) 0.7561(7) 0.6424(5)
C11 C -0.2925(8) 0.7925(7) 0.5678(6)
H9 H -0.3292 0.7466 0.5065
C12 C -0.1909(8) 0.8973(8) 0.5828(6)
H10 H -0.1589 0.9226 0.5313
C13 C -0.1370(8) 0.9643(8) 0.6718(6)
H11 H -0.0680 1.0354 0.6816
C14 C -0.1832(8) 0.9279(8) 0.7461(6)
H12 H -0.1457 0.9742 0.8072
C15 C -0.2841(7) 0.8241(7) 0.7331(5)
H13 H -0.3155 0.7995 0.7849
C16 C -0.2751(7) 0.4120(6) 0.8460(5)
C17 C -0.3393(7) 0.3540(7) 0.7545(5)
H14 H -0.4201 0.3607 0.7218
C18 C -0.2874(8) 0.2866(7) 0.7105(6)
H15 H -0.3318 0.2488 0.6469
C19 C -0.1728(9) 0.2728(8) 0.7564(6)
H16 H -0.1381 0.2253 0.7255
C20 C -0.1079(8) 0.3295(8) 0.8491(6)
H17 H -0.0278 0.3211 0.8812
C21 C -0.1579(7) 0.3975(7) 0.8950(6)
H18 H -0.1138 0.4341 0.9590
C22 C -0.2006(6) 0.6508(6) 0.9386(5)
C23 C -0.1032(8) 0.6765(7) 0.8967(5)
H19 H -0.1061 0.6216 0.8468
C24 C -0.0034(7) 0.7802(7) 0.9268(5)
H20 H 0.0628 0.7963 0.8984
C25 C 0.0001(7) 0.8608(7) 0.9988(6)
H21 H 0.0697 0.9319 1.0203
C26 C -0.0964(7) 0.8391(7) 1.0395(6)
H22 H -0.0940 0.8956 1.0881
C27 C -0.1980(7) 0.7333(7) 1.0090(5)
H23 H -0.2650 0.7181 1.0365
C28 C -0.5158(7) 0.8361(7) 0.8806(5)
C29 C -0.4327(7) 0.8784(7) 0.9737(6)
H24 H -0.4357 0.8299 1.0242
C30 C -0.3463(8) 0.9921(8) 0.9910(7)
H25 H -0.2902 1.0215 1.0539
C31 C -0.3407(8) 1.0633(8) 0.9180(7)
H26 H -0.2808 1.1408 0.9309
C32 C -0.4209(9) 1.0223(8) 0.8277(7)
H27 H -0.4170 1.0720 0.7780
C33 C -0.5083(8) 0.9090(7) 0.8073(6)
H28 H -0.5630 0.8809 0.7437
C34 C -0.7777(7) 0.6850(7) 0.7826(5)
C35 C -0.8677(7) 0.5748(7) 0.7521(5)
H29 H -0.8461 0.5041 0.7669
C36 C -0.9921(8) 0.5677(9) 0.6987(6)
H30 H -1.0569 0.4929 0.6805
C37 C -1.0176(9) 0.6710(11) 0.6735(6)
H31 H -1.1000 0.6663 0.6342
C38 C -0.9284(8) 0.7803(9) 0.7029(6)
H32 H -0.9496 0.8505 0.6857
C39 C -0.8060(8) 0.7886(8) 0.7586(5)
H33 H -0.7431 0.8642 0.7797
C1A C -0.5373(9) 0.4776(8) 0.4572(6)
P3A P -0.38091(18) 0.31721(17) 1.14786(13)
C3A C -0.6415(6) 0.6422(6) 0.9656(5)
P1A P -0.5196(2) 0.37065(18) 0.37357(14)
H1A H -0.6098 0.5034 0.4353
Ag1A Ag -0.49446(5) 0.42734(5) 1.21603(4)
C28A C -0.4842(7) 0.1639(7) 1.1194(5)
C34A C -0.2223(7) 0.3150(7) 1.2174(5)
C2A C -0.6438(6) 0.5359(7) 0.9920(5)
H3A H -0.6518 0.6993 1.0072
Ag1A_2 Ag -0.49446(5) 0.42734(5) 0.21603(4)
C4A C -0.3910(7) 0.3138(7) 0.4342(5)
C10A C -0.6611(7) 0.2439(7) 0.3576(5)
P1A_2 P -0.5196(2) 0.37065(18) 1.37357(14)
P2A P -0.66417(17) 0.48499(17) 1.10357(13)
C29A C -0.5673(7) 0.1216(7) 1.0263(6)
C33A C -0.4917(8) 0.0910(7) 1.1927(6)
C35A C -0.1323(7) 0.4252(7) 1.2479(5)
C39A C -0.1940(8) 0.2114(8) 1.2414(5)
H2A H -0.6339 0.4808 0.9486
C11A C -0.7075(8) 0.2075(7) 0.4322(6)
C15A C -0.7159(7) 0.1759(7) 0.2669(5)
C5A C -0.4117(8) 0.1936(8) 0.4472(5)
C9A C -0.2684(8) 0.3880(8) 0.4548(6)
C14A C -0.8168(8) 0.0721(8) 0.2539(6)
H13A H -0.6845 0.2005 0.2151
H9A H -0.6708 0.2534 0.4935
C12A C -0.8091(8) 0.1027(8) 0.4172(6)
H4A H -0.4958 0.1420 0.4337
C6A C -0.3112(9) 0.1481(8) 0.4797(6)
C8A C -0.1670(9) 0.3433(10) 0.4889(6)
H8A H -0.2529 0.4699 0.4458
H10A H -0.8411 0.0774 0.4687
C13A C -0.8630(8) 0.0357(8) 0.3282(6)
H12A H -0.8543 0.0258 0.1928
H5A H -0.3264 0.0658 0.4874
C7A C -0.1880(10) 0.2243(10) 0.5007(6)
H7A H -0.0828 0.3954 0.5041
H11A H -0.9320 -0.0354 0.3184
H6A H -0.1185 0.1944 0.5232
H24A H -0.5643 0.1701 0.9758
C30A C -0.6537(8) 0.0079(8) 1.0090(7)
C32A C -0.5791(9) -0.0223(8) 1.1723(7)
H28A H -0.4370 0.1191 1.2563
C38A C -0.0716(8) 0.2197(9) 1.2971(6)
H33A H -0.2569 0.1358 1.2203
H29A H -0.1539 0.4959 1.2331
C36A C -0.0079(8) 0.4323(9) 1.3013(6)
C31A C -0.6593(8) -0.0633(8) 1.0820(7)
H27A H -0.5830 -0.0720 1.2220
H25A H -0.7098 -0.0215 0.9461
C37A C 0.0176(9) 0.3290(11) 1.3265(6)
H32A H -0.0504 0.1495 1.3143
H30A H 0.0569 0.5071 1.3195
H26A H -0.7192 -0.1408 1.0691
H31A H 0.1000 0.3337 1.3658
C16A C -0.7249(7) 0.5880(6) 1.1540(5)
C22A C -0.7994(6) 0.3492(6) 1.0614(5)
C17A C -0.6607(7) 0.6460(7) 1.2455(5)
C21A C -0.8421(7) 0.6025(7) 1.1050(6)
C23A C -0.8968(8) 0.3235(7) 1.1033(5)
C27A C -0.8020(7) 0.2667(7) 0.9910(5)
H19A H -0.8939 0.3784 1.1532
C24A C -0.9966(7) 0.2198(7) 1.0732(5)
C26A C -0.9036(7) 0.1609(7) 0.9605(6)
H23A H -0.7350 0.2819 0.9635
C20A C -0.8921(8) 0.6705(8) 1.1509(6)
H18A H -0.8862 0.5659 1.0410
H14A H -0.5799 0.6393 1.2782
C18A C -0.7126(8) 0.7134(7) 1.2895(6)
C25A C -1.0001(7) 0.1392(7) 1.0012(6)
H22A H -0.9060 0.1044 0.9119
C19A C -0.8272(9) 0.7272(8) 1.2436(6)
H17A H -0.9722 0.6789 1.1188
H20A H -1.0628 0.2037 1.1016
H15A H -0.6682 0.7512 1.3531
H16A H -0.8619 0.7747 1.2745
H21A H -1.0697 0.0681 0.9797
Sb1 Sb -0.24915(5) 0.77711(5) 0.28163(4)
F1 F -0.2066(5) 0.9103(5) 0.2179(4)
F2 F -0.1142(5) 0.8502(6) 0.3899(4)
F3 F -0.2982(7) 0.6410(6) 0.3406(5)
F4 F -0.3829(6) 0.7010(6) 0.1711(4)
F5 F -0.1434(6) 0.7146(6) 0.2360(4)
F6 F -0.3556(5) 0.8378(6) 0.3277(4)
loop_
_geom_bond_atom_site_label_1
_geom_bond_atom_site_label_2
_geom_bond_site_symmetry_1
_geom_bond_site_symmetry_2
Ag1 P1 1_555 1_555
P1 C1 1_555 1_555
C1 H1 1_555 1_555
P2 Ag1 1_555 1_555
C2 P2 1_555 1_555
H2 C2 1_555 1_555
C3 C2 1_555 1_555
H3 C3 1_555 1_555
P3 Ag1 1_555 1_555
C4 P1 1_555 1_555
C5 C4 1_555 1_555
H4 C5 1_555 1_555
C6 C5 1_555 1_555
H5 C6 1_555 1_555
C7 C6 1_555 1_555
H6 C7 1_555 1_555
C8 C7 1_555 1_555
H7 C8 1_555 1_555
C9 C4 1_555 1_555
H8 C9 1_555 1_555
C10 P1 1_555 1_555
C11 C10 1_555 1_555
H9 C11 1_555 1_555
C12 C11 1_555 1_555
H10 C12 1_555 1_555
C13 C12 1_555 1_555
H11 C13 1_555 1_555
C14 C13 1_555 1_555
H12 C14 1_555 1_555
C15 C10 1_555 1_555
H13 C15 1_555 1_555
C16 P2 1_555 1_555
C17 C16 1_555 1_555
H14 C17 1_555 1_555
C18 C17 1_555 1_555
H15 C18 1_555 1_555
C19 C18 1_555 1_555
H16 C19 1_555 1_555
C20 C19 1_555 1_555
H17 C20 1_555 1_555
C21 C16 1_555 1_555
H18 C21 1_555 1_555
C22 P2 1_555 1_555
C23 C22 1_555 1_555
H19 C23 1_555 1_555
C24 C23 1_555 1_555
H20 C24 1_555 1_555
C25 C24 1_555 1_555
H21 C25 1_555 1_555
C26 C25 1_555 1_555
H22 C26 1_555 1_555
C27 C22 1_555 1_555
H23 C27 1_555 1_555
C28 P3 1_555 1_555
C29 C28 1_555 1_555
H24 C29 1_555 1_555
C30 C29 1_555 1_555
H25 C30 1_555 1_555
C31 C30 1_555 1_555
H26 C31 1_555 1_555
C32 C31 1_555 1_555
H27 C32 1_555 1_555
C33 C28 1_555 1_555
H28 C33 1_555 1_555
C34 P3 1_555 1_555
C35 C34 1_555 1_555
H29 C35 1_555 1_555
C36 C35 1_555 1_555
H30 C36 1_555 1_555
C37 C36 1_555 1_555
H31 C37 1_555 1_555
C38 C37 1_555 1_555
H32 C38 1_555 1_555
C39 C34 1_555 1_555
H33 C39 1_555 1_555
Sb1 F1 1_555 1_555
F2 Sb1 1_555 1_555
F3 Sb1 1_555 1_555
F4 Sb1 1_555 1_555
F5 Sb1 1_555 1_555
F6 Sb1 1_555 1_555
C1A C1 1_555 1_555
P3A C3 1_555 1_555
C3A P3 1_555 1_555
P1A C1A 1_555 1_555
H1A C1A 1_555 1_555
Ag1A P3A 1_555 1_555
C28A P3A 1_555 1_555
C34A P3A 1_555 1_555
C2A C3A 1_555 1_555
H3A C3A 1_555 1_555
Ag1A_2 P1A 1_555 1_555
C4A P1A 1_555 1_555
C10A P1A 1_555 1_555
P1A_2 Ag1A 1_555 1_555
P2A Ag1A 1_555 1_555
C29A C28A 1_555 1_555
C33A C28A 1_555 1_555
C35A C34A 1_555 1_555
C39A C34A 1_555 1_555
H2A C2A 1_555 1_555
C11A C10A 1_555 1_555
C15A C10A 1_555 1_555
C5A C4A 1_555 1_555
C9A C4A 1_555 1_555
C14A C15A 1_555 1_555
H13A C15A 1_555 1_555
H9A C11A 1_555 1_555
C12A C11A 1_555 1_555
H4A C5A 1_555 1_555
C6A C5A 1_555 1_555
C8A C9A 1_555 1_555
H8A C9A 1_555 1_555
H10A C12A 1_555 1_555
C13A C14A 1_555 1_555
H12A C14A 1_555 1_555
H5A C6A 1_555 1_555
C7A C6A 1_555 1_555
H7A C8A 1_555 1_555
H11A C13A 1_555 1_555
H6A C7A 1_555 1_555
H24A C29A 1_555 1_555
C30A C29A 1_555 1_555
C32A C33A 1_555 1_555
H28A C33A 1_555 1_555
C38A C39A 1_555 1_555
H33A C39A 1_555 1_555
H29A C35A 1_555 1_555
C36A C35A 1_555 1_555
C31A C30A 1_555 1_555
H27A C32A 1_555 1_555
H25A C30A 1_555 1_555
C37A C38A 1_555 1_555
H32A C38A 1_555 1_555
H30A C36A 1_555 1_555
H26A C31A 1_555 1_555
H31A C37A 1_555 1_555
C16A P2A 1_555 1_555
C22A P2A 1_555 1_555
C17A C16A 1_555 1_555
C21A C16A 1_555 1_555
C23A C22A 1_555 1_555
C27A C22A 1_555 1_555
H19A C23A 1_555 1_555
C24A C23A 1_555 1_555
C26A C27A 1_555 1_555
H23A C27A 1_555 1_555
C20A C21A 1_555 1_555
H18A C21A 1_555 1_555
H14A C17A 1_555 1_555
C18A C17A 1_555 1_555
C25A C24A 1_555 1_555
H22A C26A 1_555 1_555
C19A C20A 1_555 1_555
H17A C20A 1_555 1_555
H20A C24A 1_555 1_555
H15A C18A 1_555 1_555
H16A C19A 1_555 1_555
H21A C25A 1_555 1_555
C8 C9 1_555 1_555
C14 C15 1_555 1_555
C20 C21 1_555 1_555
C26 C27 1_555 1_555
C32 C33 1_555 1_555
C38 C39 1_555 1_555
C2A P2A 1_555 1_555
C12A C13A 1_555 1_555
C8A C7A 1_555 1_555
C32A C31A 1_555 1_555
C36A C37A 1_555 1_555
C26A C25A 1_555 1_555
C18A C19A 1_555 1_555

#END
