
#######################################################################
#
#                 Cambridge Crystallographic Data Centre
#                                CCDC 
#
#######################################################################
#
# If this CIF has been generated from an entry in the Cambridge 
# Structural Database, then it will include bibliographic, chemical, 
# crystal, experimental, refinement or atomic coordinate data resulting 
# from the CCDC's data processing and validation procedures.
#
#######################################################################

data_IBUDIT
_symmetry_cell_setting           triclinic
_symmetry_space_group_name_H-M   'P -1'
_symmetry_Int_Tables_number      2
_space_group_name_Hall           '-P 1'
loop_
_symmetry_equiv_pos_site_id
_symmetry_equiv_pos_as_xyz
1 x,y,z
2 -x,-y,-z
_cell_length_a                   10.069(2)
_cell_length_b                   10.453(2)
_cell_length_c                   11.887(2)
_cell_angle_alpha                71.16(3)
_cell_angle_beta                 67.16(3)
_cell_angle_gamma                79.14(3)
_cell_volume                     1088.39
loop_
_atom_site_label
_atom_site_type_symbol
_atom_site_fract_x
_atom_site_fract_y
_atom_site_fract_z
Zn1 Zn 0.21617(8) 0.02646(7) 0.33183(7)
Zn2 Zn 0.00985(8) 0.31038(7) 0.28558(7)
O1 O 0.0708(5) 0.1554(5) 0.3976(4)
N1 N 0.1547(6) -0.0716(5) 0.1431(5)
N2 N 0.1269(6) -0.0737(5) 0.2628(5)
N3 N 0.0160(6) -0.1461(6) 0.3422(6)
N4 N -0.0276(6) -0.1982(6) 0.2753(5)
N5 N 0.0122(6) -0.2517(5) -0.1467(5)
N6 N 0.4255(5) -0.1977(5) 0.3600(5)
N7 N 0.3353(6) -0.1095(5) 0.4214(5)
N8 N 0.3543(6) -0.1197(6) 0.5284(6)
N9 N 0.4615(6) -0.2185(6) 0.5385(6)
N10 N 0.8284(6) -0.5758(5) 0.3520(5)
N11 N 0.7617(5) 0.4850(5) -0.0879(5)
N12 N 0.8381(5) 0.5527(5) -0.2053(5)
N13 N 0.8082(7) 0.5180(6) -0.2914(6)
N14 N 0.7088(6) 0.4277(6) -0.2294(6)
N15 N 0.3698(5) 0.1444(5) 0.1849(5)
C1 C 0.1122(7) -0.1682(7) -0.1711(7)
H1 H 0.1710 -0.1333 -0.2549
C2 C 0.1314(7) -0.1317(6) -0.0761(6)
H2 H 0.2019 -0.0737 -0.0965
C3 C 0.0453(7) -0.1822(6) 0.0483(6)
C4 C -0.0635(7) -0.2642(7) 0.0728(6)
H3 H -0.1286 -0.2947 0.1549
C5 C -0.0730(7) -0.2990(6) -0.0258(6)
H4 H -0.1416 -0.3581 -0.0077
C6 C 0.0574(6) -0.1496(6) 0.1543(6)
C7 C 0.7320(6) -0.5345(6) 0.2926(6)
H5 H 0.7399 -0.5755 0.2313
C8 C 0.6213(7) -0.4342(6) 0.3170(6)
H6 H 0.5561 -0.4098 0.2744
C9 C 0.6110(6) -0.3719(6) 0.4065(6)
C10 C 0.7054(8) -0.4158(7) 0.4722(7)
H7 H 0.6965 -0.3785 0.5362
C11 C 0.8155(7) -0.5177(7) 0.4414(7)
H8 H 0.8807 -0.5452 0.4841
C12 C 0.5004(7) -0.2616(6) 0.4347(6)
C13 C 0.4105(7) 0.1482(6) 0.0601(6)
H9 H 0.3675 0.0928 0.0386
C14 C 0.5131(7) 0.2315(6) -0.0350(7)
H10 H 0.5395 0.2307 -0.1190
C15 C 0.5770(6) 0.3163(6) -0.0051(6)
C16 C 0.5376(7) 0.3099(7) 0.1222(7)
H11 H 0.5794 0.3642 0.1460
C17 C 0.4370(7) 0.2232(7) 0.2124(7)
H12 H 0.4141 0.2187 0.2972
C18 C 0.6833(7) 0.4096(6) -0.1070(7)
H13 H 0.054(6) 0.151(5) 0.474(2)
N5A N -0.0122(6) 0.2517(5) 0.1467(5)
N10_2 N -0.1716(6) 0.4242(5) 0.3520(5)
N12A N 0.1619(5) 0.4473(5) 0.2053(5)
Zn2A Zn -0.00985(8) -0.31038(7) -0.28558(7)
Zn2_2 Zn 1.00985(8) -0.68962(7) 0.28558(7)
Zn2A_2 Zn 0.99015(8) 0.68962(7) -0.28558(7)
loop_
_geom_bond_atom_site_label_1
_geom_bond_atom_site_label_2
_geom_bond_site_symmetry_1
_geom_bond_site_symmetry_2
Zn1 O1 1_555 1_555
Zn2 O1 1_555 1_555
O1 H13 1_555 1_555
N1 N2 1_555 1_555
N2 Zn1 1_555 1_555
N3 N2 1_555 1_555
N4 N3 1_555 1_555
N5 C1 1_555 1_555
N6 N7 1_555 1_555
N7 Zn1 1_555 1_555
N8 N7 1_555 1_555
N9 N8 1_555 1_555
N10 C7 1_555 1_555
N11 N12 1_555 1_555
N12 N13 1_555 1_555
N13 N14 1_555 1_555
N14 C18 1_555 1_555
N15 Zn1 1_555 1_555
C1 H1 1_555 1_555
C2 C1 1_555 1_555
H2 C2 1_555 1_555
C3 C2 1_555 1_555
C4 C3 1_555 1_555
H3 C4 1_555 1_555
C5 N5 1_555 1_555
H4 C5 1_555 1_555
C6 N1 1_555 1_555
C7 H5 1_555 1_555
C8 C7 1_555 1_555
H6 C8 1_555 1_555
C9 C8 1_555 1_555
C10 C9 1_555 1_555
H7 C10 1_555 1_555
C11 N10 1_555 1_555
H8 C11 1_555 1_555
C12 N6 1_555 1_555
C13 N15 1_555 1_555
H9 C13 1_555 1_555
C14 C13 1_555 1_555
H10 C14 1_555 1_555
C15 C14 1_555 1_555
C16 C15 1_555 1_555
H11 C16 1_555 1_555
C17 N15 1_555 1_555
H12 C17 1_555 1_555
C18 N11 1_555 1_555
N5A Zn2 1_555 1_555
N10_2 Zn2 1_555 1_555
N12A Zn2 1_555 1_555
Zn2A N5 1_555 1_555
Zn2_2 N10 1_555 1_555
Zn2A_2 N12 1_555 1_555
N4 C6 1_555 1_555
N9 C12 1_555 1_555
C3 C6 1_555 1_555
C4 C5 1_555 1_555
C9 C12 1_555 1_555
C10 C11 1_555 1_555
C15 C18 1_555 1_555
C16 C17 1_555 1_555

#END
