
#######################################################################
#
#                 Cambridge Crystallographic Data Centre
#                                CCDC 
#
#######################################################################
#
# If this CIF has been generated from an entry in the Cambridge 
# Structural Database, then it will include bibliographic, chemical, 
# crystal, experimental, refinement or atomic coordinate data resulting 
# from the CCDC's data processing and validation procedures.
#
#######################################################################

data_IBUVOR
_symmetry_cell_setting           monoclinic
_symmetry_space_group_name_H-M   'C 2/c'
_symmetry_Int_Tables_number      15
_space_group_name_Hall           '-C 2yn'
loop_
_symmetry_equiv_pos_site_id
_symmetry_equiv_pos_as_xyz
1 x,y,z
2 1/2+x,1/2+y,z
3 -x,y,1/2-z
4 1/2-x,1/2+y,1/2-z
5 -x,-y,-z
6 1/2-x,1/2-y,-z
7 x,-y,1/2+z
8 1/2+x,1/2-y,1/2+z
_cell_length_a                   17.4419(6)
_cell_length_b                   15.5642(3)
_cell_length_c                   17.6449(6)
_cell_angle_alpha                90
_cell_angle_beta                 98.064(2)
_cell_angle_gamma                90
_cell_volume                     4742.68
loop_
_atom_site_label
_atom_site_type_symbol
_atom_site_fract_x
_atom_site_fract_y
_atom_site_fract_z
Zn1 Zn 0.12199(6) -0.39815(6) 0.39696(6)
Br1 Br 0.21684(6) -0.38616(6) 0.50512(6)
Br2 Br 0.12912(6) -0.51059(6) 0.30883(6)
O1 O -0.2656(4) -0.3621(4) 0.4325(3)
O2 O -0.3461(4) -0.4754(3) 0.2804(3)
N1 N 0.0154(4) -0.3996(4) 0.4335(4)
N2 N -0.3814(4) -0.7831(4) 0.3378(4)
C1 C -0.3938(5) -0.3516(5) 0.3753(5)
C2 C -0.3425(5) -0.3691(6) 0.4406(5)
C3 C -0.3679(6) -0.3878(6) 0.5100(5)
H1 H -0.3319 -0.3966 0.5549
C4 C -0.4469(6) -0.3933(6) 0.5121(5)
H2 H -0.4652 -0.4087 0.5585
C5 C -0.4989(6) -0.3767(6) 0.4481(6)
H3 H -0.5530 -0.3793 0.4503
C6 C -0.4722(6) -0.3564(6) 0.3803(5)
H4 H -0.5084 -0.3454 0.3360
C7 C -0.2100(5) -0.3743(6) 0.4987(5)
H5 H -0.2223 -0.4270 0.5259
H6 H -0.2112 -0.3249 0.5339
C8 C -0.1313(5) -0.3819(5) 0.4748(5)
C9 C -0.1207(5) -0.4236(6) 0.4075(5)
H7 H -0.1636 -0.4464 0.3745
C10 C -0.0462(6) -0.4312(6) 0.3897(5)
H8 H -0.0388 -0.4603 0.3440
C11 C 0.0049(6) -0.3616(6) 0.4993(5)
H9 H 0.0486 -0.3410 0.5325
C12 C -0.0685(6) -0.3515(6) 0.5201(6)
H10 H -0.0745 -0.3230 0.5665
C13 C -0.3670(5) -0.3297(5) 0.3008(4)
C14 C -0.3437(5) -0.3928(5) 0.2530(5)
C15 C -0.3213(5) -0.3728(5) 0.1828(5)
H11 H -0.3057 -0.4168 0.1509
C16 C -0.3222(5) -0.2865(6) 0.1594(5)
H12 H -0.3064 -0.2717 0.1117
C17 C -0.3456(6) -0.2240(6) 0.2049(5)
H13 H -0.3467 -0.1658 0.1886
C18 C -0.3681(6) -0.2450(6) 0.2752(5)
H14 H -0.3844 -0.2007 0.3063
C19 C -0.3473(7) -0.5427(5) 0.2280(5)
H15 H -0.2968 -0.5462 0.2086
H16 H -0.3881 -0.5324 0.1840
C20 C -0.3632(5) -0.6262(5) 0.2671(5)
C21 C -0.3630(7) -0.7030(6) 0.2280(5)
H17 H -0.3569 -0.7034 0.1753
C22 C -0.3716(7) -0.7784(6) 0.2654(5)
H18 H -0.3704 -0.8305 0.2375
C23 C -0.3804(6) -0.7088(6) 0.3764(5)
H19 H -0.3846 -0.7106 0.4295
C24 C -0.3735(6) -0.6300(5) 0.3427(5)
H20 H -0.3759 -0.5788 0.3715
N2A N 0.1186(4) -0.2831(4) 0.3378(4)
Zn1A Zn -0.37801(6) -0.89815(6) 0.39696(6)
loop_
_geom_bond_atom_site_label_1
_geom_bond_atom_site_label_2
_geom_bond_site_symmetry_1
_geom_bond_site_symmetry_2
Zn1 Br1 1_555 1_555
Br2 Zn1 1_555 1_555
O1 C2 1_555 1_555
O2 C14 1_555 1_555
N1 Zn1 1_555 1_555
N2 C22 1_555 1_555
C1 C2 1_555 1_555
C2 C3 1_555 1_555
C3 H1 1_555 1_555
C4 C3 1_555 1_555
H2 C4 1_555 1_555
C5 C4 1_555 1_555
H3 C5 1_555 1_555
C6 C1 1_555 1_555
H4 C6 1_555 1_555
C7 O1 1_555 1_555
H5 C7 1_555 1_555
H6 C7 1_555 1_555
C8 C7 1_555 1_555
C9 C8 1_555 1_555
H7 C9 1_555 1_555
C10 N1 1_555 1_555
H8 C10 1_555 1_555
C11 N1 1_555 1_555
H9 C11 1_555 1_555
C12 C8 1_555 1_555
H10 C12 1_555 1_555
C13 C1 1_555 1_555
C14 C13 1_555 1_555
C15 C14 1_555 1_555
H11 C15 1_555 1_555
C16 C15 1_555 1_555
H12 C16 1_555 1_555
C17 C16 1_555 1_555
H13 C17 1_555 1_555
C18 C13 1_555 1_555
H14 C18 1_555 1_555
C19 O2 1_555 1_555
H15 C19 1_555 1_555
H16 C19 1_555 1_555
C20 C19 1_555 1_555
C21 C20 1_555 1_555
H17 C21 1_555 1_555
C22 C21 1_555 1_555
H18 C22 1_555 1_555
C23 N2 1_555 1_555
H19 C23 1_555 1_555
C24 C20 1_555 1_555
H20 C24 1_555 1_555
N2A Zn1 1_555 1_555
Zn1A N2 1_555 1_555
C5 C6 1_555 1_555
C9 C10 1_555 1_555
C11 C12 1_555 1_555
C17 C18 1_555 1_555
C23 C24 1_555 1_555

#END
