
#######################################################################
#
#                 Cambridge Crystallographic Data Centre
#                                CCDC 
#
#######################################################################
#
# If this CIF has been generated from an entry in the Cambridge 
# Structural Database, then it will include bibliographic, chemical, 
# crystal, experimental, refinement or atomic coordinate data resulting 
# from the CCDC's data processing and validation procedures.
#
#######################################################################

data_IBUXUA
_symmetry_cell_setting           orthorhombic
_symmetry_space_group_name_H-M   'P n a 21'
_symmetry_Int_Tables_number      33
_space_group_name_Hall           'P 2c -2n'
loop_
_symmetry_equiv_pos_site_id
_symmetry_equiv_pos_as_xyz
1 x,y,z
2 -x,-y,1/2+z
3 1/2-x,1/2+y,1/2+z
4 1/2+x,1/2-y,z
_cell_length_a                   21.4447(10)
_cell_length_b                   16.3875(6)
_cell_length_c                   10.3920(5)
_cell_angle_alpha                90
_cell_angle_beta                 90
_cell_angle_gamma                90
_cell_volume                     3652.01
loop_
_atom_site_label
_atom_site_type_symbol
_atom_site_fract_x
_atom_site_fract_y
_atom_site_fract_z
Zn1 Zn 0.57626(4) 0.00579(5) 0.47324(11)
Zn2 Zn 0.72040(4) 0.03924(5) 1.31734(9)
C1 C 0.6792(3) -0.1138(4) 0.7519(7)
C2 C 0.7017(4) -0.1930(4) 0.7656(8)
H1 H 0.6962 -0.2305 0.6994
C3 C 0.7315(4) -0.2162(4) 0.8751(8)
C4 C 0.7381(3) -0.1617(4) 0.9748(9)
H2 H 0.7591 -0.1777 1.0489
C5 C 0.7136(3) -0.0817(4) 0.9668(8)
C6 C 0.6856(3) -0.0600(4) 0.8537(7)
H3 H 0.6702 -0.0073 0.8449
C7 C 0.6434(4) -0.0903(5) 0.6320(8)
C8 C 0.7588(4) -0.3016(5) 0.8891(9)
C9 C 0.7151(4) -0.0219(5) 1.0752(8)
C10 C 0.4346(4) -0.4233(4) 0.1999(8)
C11 C 0.4952(4) -0.4001(4) 0.2423(9)
H4 H 0.5282 -0.4367 0.2363
C12 C 0.5047(3) -0.3236(4) 0.2920(8)
H5 H 0.5442 -0.3088 0.3211
C13 C 0.4570(3) -0.2689(4) 0.2992(10)
C14 C 0.3985(4) -0.2905(5) 0.2583(10)
H6 H 0.3659 -0.2532 0.2640
C15 C 0.3877(4) -0.3676(5) 0.2083(10)
H7 H 0.3480 -0.3815 0.1801
C16 C 0.5159(4) -0.1553(4) 0.4008(9)
H8 H 0.5500 -0.1861 0.4270
C17 C 0.4568(5) -0.0554(5) 0.3597(12)
H9 H 0.4421 -0.0022 0.3521
C18 C 0.4272(4) -0.1228(5) 0.3142(13)
H10 H 0.3887 -0.1252 0.2735
C19 C 0.4316(4) -0.5725(4) 0.2078(8)
C20 C 0.4582(4) -0.6411(4) 0.1487(8)
H11 H 0.4685 -0.6398 0.0618
C21 C 0.4688(4) -0.7102(5) 0.2198(10)
H12 H 0.4862 -0.7559 0.1807
C22 C 0.4541(4) -0.7125(4) 0.3476(9)
C23 C 0.4280(4) -0.6476(4) 0.4079(9)
H13 H 0.4179 -0.6498 0.4949
C24 C 0.4168(4) -0.5763(4) 0.3341(9)
H14 H 0.3988 -0.5311 0.3735
C25 C 0.5196(4) -0.8332(4) 0.4066(9)
H15 H 0.5503 -0.8249 0.3448
C26 C 0.4658(4) -0.8842(5) 0.5618(9)
H16 H 0.4529 -0.9187 0.6275
C27 C 0.4348(4) -0.8163(5) 0.5216(9)
H17 H 0.3977 -0.7958 0.5549
C28 C 0.3484(3) -0.4771(4) -0.2337(8)
C29 C 0.3910(3) -0.4210(4) -0.1877(10)
H18 H 0.4023 -0.3763 -0.2377
C30 C 0.4166(4) -0.4313(5) -0.0687(8)
H19 H 0.4461 -0.3940 -0.0397
C31 C 0.4003(3) -0.4950(4) 0.0089(7)
C32 C 0.3588(4) -0.5526(4) -0.0392(9)
H20 H 0.3489 -0.5987 0.0090
C33 C 0.3326(4) -0.5411(4) -0.1573(8)
H21 H 0.3030 -0.5782 -0.1865
C34 C 0.2885(4) -0.5180(5) -0.4271(8)
H22 H 0.2810 -0.5714 -0.4009
C35 C 0.2887(4) -0.4074(5) -0.5349(10)
H23 H 0.2816 -0.3693 -0.5996
C36 C 0.3205(5) -0.3928(5) -0.4267(9)
H24 H 0.3387 -0.3437 -0.4023
O1 O 0.6207(3) -0.0191(3) 0.6304(6)
O2 O 0.6386(3) -0.1390(3) 0.5416(6)
O3 O 0.7522(3) -0.3474(3) 0.7927(6)
O4 O 0.7822(3) -0.3221(3) 0.9892(7)
O5 O 0.7412(3) -0.0449(3) 1.1812(6)
O6 O 0.6915(4) 0.0442(4) 1.0634(6)
O7 O 0.6300(2) 0.0307(3) 1.3331(7)
N1 N 0.4242(3) -0.4986(4) 0.1367(7)
N2 N 0.4667(3) -0.1864(3) 0.3412(7)
N3 N 0.5114(3) -0.0772(3) 0.4186(7)
N4 N 0.4686(3) -0.7847(3) 0.4233(7)
N5 N 0.5192(3) -0.8938(3) 0.4906(8)
N6 N 0.3209(3) -0.4639(4) -0.3594(6)
N7 N 0.2681(2) -0.4861(4) -0.5368(8)
Zn1_2 Zn 0.57626(4) -0.99421(5) 0.47324(11)
Zn1_3 Zn 0.57626(4) 0.00579(5) 1.47324(11)
Zn2B Zn 0.77960(4) -0.46076(5) 0.81734(9)
Zn2C Zn 0.22040(4) -0.53924(5) -0.68266(9)
O3B O 0.7478(3) 0.1526(3) 1.2927(6)
O7_2 O 0.6300(2) 0.0307(3) 0.3331(7)
N5_2 N 0.5192(3) 0.1062(3) 0.4906(8)
N7C N 0.7681(2) -0.0139(4) 1.4632(8)
O8 O 0.6680(5) -0.1924(8) 0.2900(12)
O9 O 0.3805(6) -0.1942(6) -0.3435(13)
O10 O 0.2640(6) -0.1953(7) 0.2428(15)
loop_
_geom_bond_atom_site_label_1
_geom_bond_atom_site_label_2
_geom_bond_site_symmetry_1
_geom_bond_site_symmetry_2
Zn1 O1 1_555 1_555
Zn2 O5 1_555 1_555
C1 C2 1_555 1_555
C2 H1 1_555 1_555
C3 C2 1_555 1_555
C4 C3 1_555 1_555
H2 C4 1_555 1_555
C5 C4 1_555 1_555
C6 C1 1_555 1_555
H3 C6 1_555 1_555
C7 C1 1_555 1_555
C8 C3 1_555 1_555
C9 C5 1_555 1_555
C10 C11 1_555 1_555
C11 H4 1_555 1_555
C12 C11 1_555 1_555
H5 C12 1_555 1_555
C13 C12 1_555 1_555
C14 C13 1_555 1_555
H6 C14 1_555 1_555
C15 C10 1_555 1_555
H7 C15 1_555 1_555
C16 H8 1_555 1_555
C17 H9 1_555 1_555
C18 C17 1_555 1_555
H10 C18 1_555 1_555
C19 C20 1_555 1_555
C20 H11 1_555 1_555
C21 C20 1_555 1_555
H12 C21 1_555 1_555
C22 C21 1_555 1_555
C23 C22 1_555 1_555
H13 C23 1_555 1_555
C24 C19 1_555 1_555
H14 C24 1_555 1_555
C25 H15 1_555 1_555
C26 H16 1_555 1_555
C27 C26 1_555 1_555
H17 C27 1_555 1_555
C28 C29 1_555 1_555
C29 H18 1_555 1_555
C30 C29 1_555 1_555
H19 C30 1_555 1_555
C31 C30 1_555 1_555
C32 C31 1_555 1_555
H20 C32 1_555 1_555
C33 C28 1_555 1_555
H21 C33 1_555 1_555
C34 H22 1_555 1_555
C35 H23 1_555 1_555
C36 C35 1_555 1_555
H24 C36 1_555 1_555
O1 C7 1_555 1_555
O2 C7 1_555 1_555
O3 C8 1_555 1_555
O4 C8 1_555 1_555
O5 C9 1_555 1_555
O6 C9 1_555 1_555
O7 Zn2 1_555 1_555
N1 C10 1_555 1_555
N2 C13 1_555 1_555
N3 Zn1 1_555 1_555
N4 C22 1_555 1_555
N5 C25 1_555 1_555
N6 C28 1_555 1_555
N7 C34 1_555 1_555
Zn1_2 N5 1_555 1_555
Zn1_3 O7 1_555 1_555
Zn2B O3 1_555 1_555
Zn2C N7 1_555 1_555
O3B Zn2 1_555 1_555
O7_2 Zn1 1_555 1_555
N5_2 Zn1 1_555 1_555
N7C Zn2 1_555 1_555
C5 C6 1_555 1_555
C14 C15 1_555 1_555
C16 N2 1_555 1_555
C16 N3 1_555 1_555
C17 N3 1_555 1_555
C18 N2 1_555 1_555
C19 N1 1_555 1_555
C23 C24 1_555 1_555
C25 N4 1_555 1_555
C26 N5 1_555 1_555
C27 N4 1_555 1_555
C31 N1 1_555 1_555
C32 C33 1_555 1_555
C34 N6 1_555 1_555
C35 N7 1_555 1_555
C36 N6 1_555 1_555

#END
