
#######################################################################
#
#                 Cambridge Crystallographic Data Centre
#                                CCDC 
#
#######################################################################
#
# If this CIF has been generated from an entry in the Cambridge 
# Structural Database, then it will include bibliographic, chemical, 
# crystal, experimental, refinement or atomic coordinate data resulting 
# from the CCDC's data processing and validation procedures.
#
#######################################################################

data_IBUYIP
_symmetry_cell_setting           triclinic
_symmetry_space_group_name_H-M   'P -1'
_symmetry_Int_Tables_number      2
_space_group_name_Hall           '-P 1'
loop_
_symmetry_equiv_pos_site_id
_symmetry_equiv_pos_as_xyz
1 x,y,z
2 -x,-y,-z
_cell_length_a                   13.8890(13)
_cell_length_b                   15.7580(10)
_cell_length_c                   21.9600(12)
_cell_angle_alpha                91.108(5)
_cell_angle_beta                 107.134(6)
_cell_angle_gamma                115.870(7)
_cell_volume                     4071.07
loop_
_atom_site_label
_atom_site_type_symbol
_atom_site_fract_x
_atom_site_fract_y
_atom_site_fract_z
Cu1 Cu 0.59964(4) 0.50116(3) 0.35581(3)
Cu2 Cu -0.29634(4) -0.69969(3) 0.13957(3)
C1 C 0.1819(4) -0.2154(3) 0.3967(2)
C2 C 0.0967(4) -0.2975(3) 0.4045(3)
H1 H 0.0774 -0.2981 0.4417
C3 C 0.0392(4) -0.3790(3) 0.3578(3)
H2 H -0.0155 -0.4347 0.3648
C4 C 0.0621(4) -0.3787(3) 0.3014(2)
C5 C 0.1470(5) -0.2968(4) 0.2922(3)
H3 H 0.1641 -0.2962 0.2543
C6 C 0.2061(5) -0.2161(3) 0.3396(3)
H4 H 0.2630 -0.1613 0.3332
C7 C 0.0407(5) -0.4947(5) 0.2132(3)
H5 H 0.1143 -0.4657 0.2120
C8 C -0.0463(5) -0.5757(4) 0.1757(3)
H6 H -0.0424 -0.6126 0.1438
C9 C -0.1101(4) -0.5269(3) 0.2380(2)
H7 H -0.1584 -0.5226 0.2581
C10 C 0.2489(4) -0.1409(3) 0.5111(2)
C11 C 0.2933(5) -0.1953(3) 0.5432(3)
H8 H 0.3185 -0.2288 0.5220
C12 C 0.3014(5) -0.2015(4) 0.6074(3)
H9 H 0.3319 -0.2390 0.6290
C13 C 0.2643(4) -0.1524(3) 0.6387(2)
C14 C 0.2188(5) -0.0988(4) 0.6057(3)
H10 H 0.1934 -0.0651 0.6266
C15 C 0.2101(5) -0.0937(4) 0.5427(3)
H11 H 0.1773 -0.0577 0.5209
C16 C 0.2637(4) -0.2317(3) 0.7349(2)
H12 H 0.2421 -0.2921 0.7136
C17 C 0.3169(6) -0.1162(4) 0.8090(3)
H13 H 0.3386 -0.0808 0.8494
C18 C 0.3111(6) -0.0823(4) 0.7535(3)
H14 H 0.3281 -0.0194 0.7486
C19 C 0.2787(4) -0.0383(3) 0.4294(2)
C20 C 0.3770(4) 0.0357(3) 0.4696(3)
H15 H 0.4222 0.0241 0.5056
C21 C 0.4102(5) 0.1300(3) 0.4566(3)
H16 H 0.4751 0.1810 0.4850
C22 C 0.3468(4) 0.1453(3) 0.4025(3)
C23 C 0.2479(4) 0.0713(3) 0.3617(3)
H17 H 0.2037 0.0831 0.3254
C24 C 0.2143(5) -0.0210(3) 0.3750(3)
H18 H 0.1481 -0.0714 0.3470
C25 C 0.4804(4) 0.3071(3) 0.3891(2)
H19 H 0.5446 0.2979 0.3994
C26 C 0.3051(5) 0.2799(4) 0.3691(4)
H20 H 0.2277 0.2506 0.3629
C27 C 0.3687(5) 0.3684(4) 0.3608(3)
H21 H 0.3415 0.4121 0.3483
C28 C 0.9263(4) 0.7671(3) 0.1123(2)
C29 C 0.8618(4) 0.6721(3) 0.1167(3)
H22 H 0.8401 0.6238 0.0830
C30 C 0.8299(4) 0.6487(3) 0.1698(2)
H23 H 0.7867 0.5848 0.1717
C31 C 0.8605(4) 0.7177(3) 0.2198(2)
C32 C 0.9242(4) 0.8131(3) 0.2175(3)
H24 H 0.9439 0.8609 0.2511
C33 C 0.9577(4) 0.8359(3) 0.1643(3)
H25 H 1.0031 0.8997 0.1633
C34 C 0.8706(4) 0.7416(3) 0.3364(3)
H26 H 0.9344 0.8010 0.3519
C35 C 0.8083(4) 0.6884(3) 0.3701(3)
H27 H 0.8230 0.7045 0.4140
C36 C 0.7312(4) 0.6104(3) 0.2737(2)
H28 H 0.6829 0.5632 0.2374
C37 C 0.8801(4) 0.7325(3) -0.0054(3)
C38 C 0.7701(4) 0.7224(4) -0.0291(3)
H29 H 0.7466 0.7546 -0.0056
C39 C 0.6970(4) 0.6644(4) -0.0874(3)
H30 H 0.6239 0.6579 -0.1038
C40 C 0.7316(4) 0.6159(3) -0.1217(2)
C41 C 0.8413(4) 0.6264(4) -0.0988(3)
H31 H 0.8654 0.5945 -0.1221
C42 C 0.9142(4) 0.6863(4) -0.0398(3)
H32 H 0.9882 0.6947 -0.0237
C43 C 0.6337(5) 0.4629(4) -0.2012(3)
H33 H 0.6701 0.4294 -0.1792
C44 C 0.5492(5) 0.4307(3) -0.2591(3)
H34 H 0.5171 0.3702 -0.2836
C45 C 0.5839(4) 0.5736(3) -0.2282(2)
H35 H 0.5814 0.6316 -0.2270
C46 C 1.0601(4) 0.8688(3) 0.0591(2)
C47 C 1.0625(4) 0.9228(3) 0.0114(3)
H36 H 0.9951 0.9099 -0.0213
C48 C 1.1637(4) 0.9968(3) 0.0109(3)
H37 H 1.1641 1.0338 -0.0216
C49 C 1.2628(4) 1.0153(3) 0.0582(2)
C50 C 1.2626(4) 0.9607(3) 0.1063(3)
H38 H 1.3303 0.9725 0.1384
C51 C 1.1609(4) 0.8883(4) 0.1063(3)
H39 H 1.1603 0.8517 0.1391
C52 C 1.3929(4) 1.1176(4) 0.0015(3)
H40 H 1.3442 1.0931 -0.0411
C53 C 1.4626(4) 1.1440(3) 0.1074(2)
H41 H 1.4680 1.1397 0.1503
C54 C 1.5012(4) 1.1877(4) 0.0216(3)
H42 H 1.5403 1.2204 -0.0053
C55 C 0.8941(4) 0.4796(3) 0.4558(2)
C56 C 0.9443(4) 0.5501(3) 0.5104(2)
H43 H 0.9067 0.5838 0.5175
C57 C 0.9504(4) 0.4296(3) 0.4457(2)
H44 H 0.9174 0.3822 0.4095
C58 C 0.7818(4) 0.4612(3) 0.4062(3)
C63 C -0.4415(4) -0.5338(3) 0.0475(2)
C64 C -0.4525(4) -0.5547(3) -0.0161(2)
H47 H -0.4204 -0.5910 -0.0272
C65 C -0.4886(4) -0.4786(3) 0.0634(2)
H48 H -0.4805 -0.4637 0.1064
C66 C -0.3843(4) -0.5760(3) 0.0994(2)
C73 C -0.2299(8) -0.8263(5) 0.0497(4)
H51 H -0.1971 -0.8223 0.0163
H52 H -0.3064 -0.8772 0.0350
H53 H -0.1858 -0.8389 0.0877
O1 O -0.3258(3) -0.6099(2) 0.08403(15)
O2 O -0.4002(3) -0.5759(2) 0.15262(16)
O5 O 0.7557(3) 0.4186(2) 0.35037(19)
O6 O 0.7204(3) 0.4894(2) 0.42429(16)
N1 N 0.2441(4) -0.1321(2) 0.44563(19)
N2 N 0.3786(3) 0.2413(3) 0.3889(2)
N3 N 0.4788(3) 0.3864(2) 0.37311(19)
N4 N 0.0004(3) -0.4626(3) 0.2535(2)
N5 N -0.1412(3) -0.5961(3) 0.19118(19)
N6 N 0.2757(4) -0.1560(3) 0.7052(2)
N7 N 0.2857(3) -0.2115(3) 0.7967(2)
N8 N 0.9553(3) 0.7915(3) 0.0572(2)
N9 N 0.8223(3) 0.6918(2) 0.27442(19)
N10 N 0.7197(3) 0.6067(2) 0.33101(19)
N11 N 0.6552(3) 0.5535(3) -0.18147(19)
N12 N 0.5182(3) 0.4997(3) -0.27594(19)
N13 N 1.3688(3) 1.0898(3) 0.05610(19)
N14 N 1.5454(3) 1.2036(2) 0.08847(19)
O13 O 0.5891(4) 0.6067(3) 0.4241(3)
O19 O -0.2302(3) -0.7404(2) 0.06425(17)
Cu1A Cu 1.40036(4) 0.49884(3) 0.64419(3)
Cu1A_2 Cu 0.40036(4) 0.49884(3) -0.35581(3)
Cu1A_3 Cu -0.59964(4) -1.50116(3) 0.64419(3)
Cu2A Cu 0.29634(4) -0.30031(3) 0.86043(3)
Cu2_2 Cu 1.70366(4) 1.30031(3) 0.13957(3)
Cu2A_2 Cu -0.70366(4) -0.30031(3) -0.13957(3)
C1A C -0.1819(4) -0.7846(3) 0.6033(2)
C2A C -0.0967(4) -0.7025(3) 0.5955(3)
H1A H -0.0774 -0.7019 0.5583
C3A C -0.0392(4) -0.6210(3) 0.6422(3)
H2A H 0.0155 -0.5653 0.6352
C4A C -0.0621(4) -0.6213(3) 0.6986(2)
C5A C -0.1470(5) -0.7032(4) 0.7078(3)
H3A H -0.1641 -0.7038 0.7457
C6A C -0.2061(5) -0.7839(3) 0.6604(3)
H4A H -0.2630 -0.8387 0.6668
C7A C -0.0407(5) -0.5053(5) 0.7868(3)
H5A H -0.1143 -0.5343 0.7880
C8A C 0.0463(5) -0.4243(4) 0.8243(3)
H6A H 0.0424 -0.3874 0.8562
C9A C 0.1101(4) -0.4731(3) 0.7620(2)
H7A H 0.1584 -0.4774 0.7419
C10A C -0.2489(4) -0.8591(3) 0.4889(2)
C11A C -0.2933(5) -0.8047(3) 0.4568(3)
H8A H -0.3185 -0.7712 0.4780
C12A C -0.3014(5) -0.7985(4) 0.3926(3)
H9A H -0.3319 -0.7610 0.3710
C13A C -0.2643(4) -0.8476(3) 0.3613(2)
C14A C -0.2188(5) -0.9012(4) 0.3943(3)
H10A H -0.1934 -0.9349 0.3734
C15A C -0.2101(5) -0.9063(4) 0.4573(3)
H11A H -0.1773 -0.9423 0.4791
C16A C -0.2637(4) -0.7683(3) 0.2651(2)
H12A H -0.2421 -0.7079 0.2864
C17A C -0.3169(6) -0.8838(4) 0.1910(3)
H13A H -0.3386 -0.9192 0.1506
C18A C -0.3111(6) -0.9177(4) 0.2465(3)
H14A H -0.3281 -0.9806 0.2514
C19A C -0.2787(4) -0.9617(3) 0.5706(2)
C20A C -0.3770(4) -1.0357(3) 0.5304(3)
H15A H -0.4222 -1.0241 0.4944
C21A C -0.4102(5) -1.1300(3) 0.5434(3)
H16A H -0.4751 -1.1810 0.5150
C22A C -0.3468(4) -1.1453(3) 0.5975(3)
C23A C -0.2479(4) -1.0713(3) 0.6383(3)
H17A H -0.2037 -1.0831 0.6746
C24A C -0.2143(5) -0.9790(3) 0.6250(3)
H18A H -0.1481 -0.9286 0.6530
C25A C -0.4804(4) -1.3071(3) 0.6109(2)
H19A H -0.5446 -1.2979 0.6006
C26A C -0.3051(5) -1.2799(4) 0.6309(4)
H20A H -0.2277 -1.2506 0.6371
C27A C -0.3687(5) -1.3684(4) 0.6392(3)
H21A H -0.3415 -1.4121 0.6517
C28A C 0.0737(4) 0.2329(3) -0.1123(2)
C29A C 0.1382(4) 0.3279(3) -0.1167(3)
H22A H 0.1599 0.3762 -0.0830
C30A C 0.1701(4) 0.3513(3) -0.1698(2)
H23A H 0.2133 0.4152 -0.1717
C31A C 0.1395(4) 0.2823(3) -0.2198(2)
C32A C 0.0758(4) 0.1869(3) -0.2175(3)
H24A H 0.0561 0.1391 -0.2511
C33A C 0.0423(4) 0.1641(3) -0.1643(3)
H25A H -0.0031 0.1003 -0.1633
C34A C 0.1294(4) 0.2584(3) -0.3364(3)
H26A H 0.0656 0.1990 -0.3519
C35A C 0.1917(4) 0.3116(3) -0.3701(3)
H27A H 0.1770 0.2955 -0.4140
C36A C 0.2688(4) 0.3896(3) -0.2737(2)
H28A H 0.3171 0.4368 -0.2374
C37A C 0.1199(4) 0.2675(3) 0.0054(3)
C38A C 0.2299(4) 0.2776(4) 0.0291(3)
H29A H 0.2534 0.2454 0.0056
C39A C 0.3030(4) 0.3356(4) 0.0874(3)
H30A H 0.3761 0.3421 0.1038
C40A C 0.2684(4) 0.3841(3) 0.1217(2)
C41A C 0.1587(4) 0.3736(4) 0.0988(3)
H31A H 0.1346 0.4055 0.1221
C42A C 0.0858(4) 0.3137(4) 0.0398(3)
H32A H 0.0118 0.3053 0.0237
C43A C 0.3663(5) 0.5371(4) 0.2012(3)
H33A H 0.3299 0.5706 0.1792
C44A C 0.4508(5) 0.5693(3) 0.2591(3)
H34A H 0.4829 0.6298 0.2836
C45A C 0.4161(4) 0.4264(3) 0.2282(2)
H35A H 0.4186 0.3684 0.2270
C46A C -0.0601(4) 0.1312(3) -0.0591(2)
C47A C -0.0625(4) 0.0772(3) -0.0114(3)
H36A H 0.0049 0.0901 0.0213
C48A C -0.1637(4) 0.0032(3) -0.0109(3)
H37A H -0.1641 -0.0338 0.0216
C49A C -0.2628(4) -0.0153(3) -0.0582(2)
C50A C -0.2626(4) 0.0393(3) -0.1063(3)
H38A H -0.3303 0.0275 -0.1384
C51A C -0.1609(4) 0.1117(4) -0.1063(3)
H39A H -0.1603 0.1483 -0.1391
C52A C -0.3929(4) -0.1176(4) -0.0015(3)
H40A H -0.3442 -0.0931 0.0411
C53A C -0.4626(4) -0.1440(3) -0.1074(2)
H41A H -0.4680 -0.1397 -0.1503
C54A C -0.5012(4) -0.1877(4) -0.0216(3)
H42A H -0.5403 -0.2204 0.0053
C55A C 1.1059(4) 0.5204(3) 0.5442(2)
C56A C 1.0557(4) 0.4499(3) 0.4896(2)
H43A H 1.0933 0.4162 0.4825
C57A C 1.0496(4) 0.5704(3) 0.5543(2)
H44A H 1.0826 0.6178 0.5905
C58A C 1.2182(4) 0.5388(3) 0.5938(3)
C63A C -0.5585(4) -0.4662(3) -0.0475(2)
C64A C -0.5475(4) -0.4453(3) 0.0161(2)
H47A H -0.5796 -0.4090 0.0272
C65A C -0.5114(4) -0.5214(3) -0.0634(2)
H48A H -0.5195 -0.5363 -0.1064
C66A C -0.6157(4) -0.4240(3) -0.0994(2)
C73A C 0.2299(8) -0.1737(5) 0.9503(4)
H51A H 0.1971 -0.1777 0.9837
H52A H 0.3064 -0.1228 0.9650
H53A H 0.1858 -0.1611 0.9123
O1A O -0.6742(3) -0.3901(2) -0.08403(15)
O1A_2 O 0.3258(3) -0.3901(2) 0.91597(15)
O2A O -0.5998(3) -0.4241(2) -0.15262(16)
O5A O 1.2443(3) 0.5814(2) 0.64963(19)
O6A O 1.2796(3) 0.5106(2) 0.57571(16)
N1A N -0.2441(4) -0.8679(2) 0.55437(19)
N2A N -0.3786(3) -1.2413(3) 0.6111(2)
N3A N -0.4788(3) -1.3864(2) 0.62689(19)
N3A_2 N 1.5212(3) 0.6136(2) 0.62689(19)
N4A N -0.0004(3) -0.5374(3) 0.7465(2)
N5A N 0.1412(3) -0.4039(3) 0.80882(19)
N6A N -0.2757(4) -0.8440(3) 0.2948(2)
N7A N -0.2857(3) -0.7885(3) 0.2033(2)
N8A N 0.0447(3) 0.2085(3) -0.0572(2)
N9A N 0.1777(3) 0.3082(2) -0.27442(19)
N10A N 0.2803(3) 0.3933(2) -0.33101(19)
N10A_2 N 1.2803(3) 0.3933(2) 0.66899(19)
N11A N 0.3448(3) 0.4465(3) 0.18147(19)
N12A N 0.4818(3) 0.5003(3) 0.27594(19)
N12_2 N 1.5182(3) 0.4997(3) 0.72406(19)
N13A N -0.3688(3) -0.0898(3) -0.05610(19)
N14A N -0.5454(3) -0.2036(2) -0.08847(19)
N14_2 N -0.4546(3) -0.7964(2) 0.08847(19)
N14A_2 N 0.4546(3) -0.2036(2) 0.91153(19)
O13A O 1.4109(4) 0.3933(3) 0.5759(3)
O19A O 0.2302(3) -0.2596(2) 0.93575(17)
C59 C 0.1049(5) -0.4249(4) 0.0393(3)
C60 C 0.0958(5) -0.4722(4) -0.0177(3)
H45 H 0.1594 -0.4530 -0.0304
C61 C 0.0069(5) -0.4522(4) 0.0562(3)
H46 H 0.0105 -0.4197 0.0933
C62 C 0.2152(5) -0.3452(4) 0.0823(3)
O3 O 0.2293(4) -0.3311(3) 0.1411(2)
O4 O 0.2887(4) -0.2966(3) 0.0568(2)
C59A C -0.1049(5) -0.5751(4) -0.0393(3)
C60A C -0.0958(5) -0.5278(4) 0.0177(3)
H45A H -0.1594 -0.5470 0.0304
C61A C -0.0069(5) -0.5478(4) -0.0562(3)
H46A H -0.0105 -0.5803 -0.0933
C62A C -0.2152(5) -0.6548(4) -0.0823(3)
O3A O -0.2293(4) -0.6689(3) -0.1411(2)
O4A O -0.2887(4) -0.7034(3) -0.0568(2)
C67 C 0.0007(8) 0.0223(6) 0.4404(6)
C68 C -0.0817(8) -0.0634(6) 0.4464(7)
H49 H -0.1369 -0.1064 0.4095
C69 C 0.0834(10) 0.0865(7) 0.4928(7)
H50 H 0.1393 0.1439 0.4884
C70 C -0.0050(9) 0.0452(8) 0.3707(7)
O7 O -0.0649(7) -0.0221(5) 0.3253(4)
O8 O 0.0512(6) 0.1305(5) 0.3673(4)
C67A C -0.0007(8) -0.0223(6) 0.5596(6)
C68A C 0.0817(8) 0.0634(6) 0.5536(7)
H49A H 0.1369 0.1064 0.5905
C69A C -0.0834(10) -0.0865(7) 0.5072(7)
H50A H -0.1393 -0.1439 0.5116
C70A C 0.0050(9) -0.0452(8) 0.6293(7)
O7A O 0.0649(7) 0.0221(5) 0.6747(4)
O8A O -0.0512(6) -0.1305(5) 0.6327(4)
C71 C 0.4298(13) 0.6574(13) 0.4186(8)
O12 O 0.3181(15) 0.5968(12) 0.4150(11)
C72 C 0.608(2) -0.2028(19) 0.3721(12)
O10 O 0.4929(18) -0.2100(13) 0.3474(9)
C74 C 0.0541(17) 0.3331(17) 0.3259(12)
O11 O 0.0586(14) 0.2976(9) 0.3827(8)
O9 O 0.6477(13) -0.1635(19) 0.1596(7)
O14 O 0.3807(10) -0.1758(8) 0.2303(5)
H55 H 0.423(5) -0.156(4) 0.208(3)
O15 O 0.4668(7) -0.1207(7) 0.1255(4)
O16 O 0.4080(11) 0.1427(7) 0.2486(5)
O17 O -0.2829(12) -0.1280(10) 0.2899(7)
O18 O 0.5623(4) 0.3172(3) 0.2481(2)
H54 H 0.575(5) 0.350(4) 0.218(2)
loop_
_geom_bond_atom_site_label_1
_geom_bond_atom_site_label_2
_geom_bond_site_symmetry_1
_geom_bond_site_symmetry_2
Cu1 O6 1_555 1_555
Cu2 O1 1_555 1_555
C1 C2 1_555 1_555
C2 H1 1_555 1_555
C3 C2 1_555 1_555
H2 C3 1_555 1_555
C4 C3 1_555 1_555
C5 C4 1_555 1_555
H3 C5 1_555 1_555
C6 C1 1_555 1_555
H4 C6 1_555 1_555
C7 H5 1_555 1_555
C8 C7 1_555 1_555
H6 C8 1_555 1_555
C9 H7 1_555 1_555
C10 C11 1_555 1_555
C11 H8 1_555 1_555
C12 C11 1_555 1_555
H9 C12 1_555 1_555
C13 C12 1_555 1_555
C14 C13 1_555 1_555
H10 C14 1_555 1_555
C15 C10 1_555 1_555
H11 C15 1_555 1_555
C16 H12 1_555 1_555
C17 H13 1_555 1_555
C18 C17 1_555 1_555
H14 C18 1_555 1_555
C19 C20 1_555 1_555
C20 H15 1_555 1_555
C21 C20 1_555 1_555
H16 C21 1_555 1_555
C22 C21 1_555 1_555
C23 C22 1_555 1_555
H17 C23 1_555 1_555
C24 C19 1_555 1_555
H18 C24 1_555 1_555
C25 H19 1_555 1_555
C26 H20 1_555 1_555
C27 C26 1_555 1_555
H21 C27 1_555 1_555
C28 C29 1_555 1_555
C29 H22 1_555 1_555
C30 C29 1_555 1_555
H23 C30 1_555 1_555
C31 C30 1_555 1_555
C32 C31 1_555 1_555
H24 C32 1_555 1_555
C33 C28 1_555 1_555
H25 C33 1_555 1_555
C34 H26 1_555 1_555
C35 C34 1_555 1_555
H27 C35 1_555 1_555
C36 H28 1_555 1_555
C37 C38 1_555 1_555
C38 H29 1_555 1_555
C39 C38 1_555 1_555
H30 C39 1_555 1_555
C40 C39 1_555 1_555
C41 C40 1_555 1_555
H31 C41 1_555 1_555
C42 C37 1_555 1_555
H32 C42 1_555 1_555
C43 H33 1_555 1_555
C44 C43 1_555 1_555
H34 C44 1_555 1_555
C45 H35 1_555 1_555
C46 C47 1_555 1_555
C47 H36 1_555 1_555
C48 C47 1_555 1_555
H37 C48 1_555 1_555
C49 C48 1_555 1_555
C50 C49 1_555 1_555
H38 C50 1_555 1_555
C51 C46 1_555 1_555
H39 C51 1_555 1_555
C52 H40 1_555 1_555
C53 H41 1_555 1_555
C54 C52 1_555 1_555
H42 C54 1_555 1_555
C55 C56 1_555 1_555
C56 H43 1_555 1_555
C57 C55 1_555 1_555
H44 C57 1_555 1_555
C58 C55 1_555 1_555
C59 C60 1_555 1_555
C60 H45 1_555 1_555
C61 C59 1_555 1_555
H46 C61 1_555 1_555
C62 C59 1_555 1_555
C63 C64 1_555 1_555
C64 H47 1_555 1_555
C65 C63 1_555 1_555
H48 C65 1_555 1_555
C66 C63 1_555 1_555
C67 C68 1_555 1_555
C68 H49 1_555 1_555
C69 C67 1_555 1_555
H50 C69 1_555 1_555
C70 C67 1_555 1_555
C71 O12 1_555 1_555
C72 O10 1_555 1_555
C73 H51 1_555 1_555
H52 C73 1_555 1_555
H53 C73 1_555 1_555
C74 O11 1_555 1_555
O1 C66 1_555 1_555
O2 C66 1_555 1_555
O3 C62 1_555 1_555
O4 C62 1_555 1_555
O5 C58 1_555 1_555
O6 C58 1_555 1_555
O7 C70 1_555 1_555
O8 C70 1_555 1_555
N1 C1 1_555 1_555
N2 C22 1_555 1_555
N3 Cu1 1_555 1_555
N4 C4 1_555 1_555
N5 Cu2 1_555 1_555
N6 C13 1_555 1_555
N7 C16 1_555 1_555
N8 C28 1_555 1_555
N9 C31 1_555 1_555
N10 Cu1 1_555 1_555
N11 C40 1_555 1_555
N12 C44 1_555 1_555
N13 C49 1_555 1_555
N14 C53 1_555 1_555
O13 Cu1 1_555 1_555
O14 H55 1_555 1_555
O18 H54 1_555 1_555
O19 Cu2 1_555 1_555
Cu1A O6A 1_555 1_555
Cu1A_2 N12 1_555 1_555
Cu1A_3 N3A 1_555 1_555
Cu2A N7 1_555 1_555
Cu2_2 N14 1_555 1_555
Cu2A_2 O1A 1_555 1_555
C1A C2A 1_555 1_555
C2A H1A 1_555 1_555
C3A C2A 1_555 1_555
H2A C3A 1_555 1_555
C4A C3A 1_555 1_555
C5A C4A 1_555 1_555
H3A C5A 1_555 1_555
C6A C1A 1_555 1_555
H4A C6A 1_555 1_555
C7A H5A 1_555 1_555
C8A C7A 1_555 1_555
H6A C8A 1_555 1_555
C9A H7A 1_555 1_555
C10A C11A 1_555 1_555
C11A H8A 1_555 1_555
C12A C11A 1_555 1_555
H9A C12A 1_555 1_555
C13A C12A 1_555 1_555
C14A C13A 1_555 1_555
H10A C14A 1_555 1_555
C15A C10A 1_555 1_555
H11A C15A 1_555 1_555
C16A H12A 1_555 1_555
C17A H13A 1_555 1_555
C18A C17A 1_555 1_555
H14A C18A 1_555 1_555
C19A C20A 1_555 1_555
C20A H15A 1_555 1_555
C21A C20A 1_555 1_555
H16A C21A 1_555 1_555
C22A C21A 1_555 1_555
C23A C22A 1_555 1_555
H17A C23A 1_555 1_555
C24A C19A 1_555 1_555
H18A C24A 1_555 1_555
C25A H19A 1_555 1_555
C26A H20A 1_555 1_555
C27A C26A 1_555 1_555
H21A C27A 1_555 1_555
C28A C29A 1_555 1_555
C29A H22A 1_555 1_555
C30A C29A 1_555 1_555
H23A C30A 1_555 1_555
C31A C30A 1_555 1_555
C32A C31A 1_555 1_555
H24A C32A 1_555 1_555
C33A C28A 1_555 1_555
H25A C33A 1_555 1_555
C34A H26A 1_555 1_555
C35A C34A 1_555 1_555
H27A C35A 1_555 1_555
C36A H28A 1_555 1_555
C37A C38A 1_555 1_555
C38A H29A 1_555 1_555
C39A C38A 1_555 1_555
H30A C39A 1_555 1_555
C40A C39A 1_555 1_555
C41A C40A 1_555 1_555
H31A C41A 1_555 1_555
C42A C37A 1_555 1_555
H32A C42A 1_555 1_555
C43A H33A 1_555 1_555
C44A C43A 1_555 1_555
H34A C44A 1_555 1_555
C45A H35A 1_555 1_555
C46A C47A 1_555 1_555
C47A H36A 1_555 1_555
C48A C47A 1_555 1_555
H37A C48A 1_555 1_555
C49A C48A 1_555 1_555
C50A C49A 1_555 1_555
H38A C50A 1_555 1_555
C51A C46A 1_555 1_555
H39A C51A 1_555 1_555
C52A H40A 1_555 1_555
C53A H41A 1_555 1_555
C54A C52A 1_555 1_555
H42A C54A 1_555 1_555
C55A C56A 1_555 1_555
C56A C57 1_555 1_555
H43A C56A 1_555 1_555
C57A C56 1_555 1_555
H44A C57A 1_555 1_555
C58A C55A 1_555 1_555
C59A C60A 1_555 1_555
C60A C61 1_555 1_555
H45A C60A 1_555 1_555
C61A C60 1_555 1_555
H46A C61A 1_555 1_555
C62A C59A 1_555 1_555
C63A C64A 1_555 1_555
C64A C65 1_555 1_555
H47A C64A 1_555 1_555
C65A C64 1_555 1_555
H48A C65A 1_555 1_555
C66A C63A 1_555 1_555
C67A C68A 1_555 1_555
C68A C69 1_555 1_555
H49A C68A 1_555 1_555
C69A C68 1_555 1_555
H50A C69A 1_555 1_555
C70A C67A 1_555 1_555
C73A H51A 1_555 1_555
H52A C73A 1_555 1_555
H53A C73A 1_555 1_555
O1A C66A 1_555 1_555
O1A_2 Cu2A 1_555 1_555
O2A C66A 1_555 1_555
O3A C62A 1_555 1_555
O4A C62A 1_555 1_555
O5A C58A 1_555 1_555
O6A C58A 1_555 1_555
O7A C70A 1_555 1_555
O8A C70A 1_555 1_555
N1A C1A 1_555 1_555
N2A C22A 1_555 1_555
N3A C25A 1_555 1_555
N3A_2 Cu1A 1_555 1_555
N4A C4A 1_555 1_555
N5A Cu2A 1_555 1_555
N6A C13A 1_555 1_555
N7A Cu2 1_555 1_555
N8A C28A 1_555 1_555
N9A C31A 1_555 1_555
N10A Cu1A_2 1_555 1_555
N10A_2 Cu1A 1_555 1_555
N11A C40A 1_555 1_555
N12A Cu1 1_555 1_555
N12_2 Cu1A 1_555 1_555
N13A C49A 1_555 1_555
N14A Cu2A_2 1_555 1_555
N14_2 Cu2 1_555 1_555
N14A_2 Cu2A 1_555 1_555
O13A Cu1A 1_555 1_555
O19A Cu2A 1_555 1_555
C5 C6 1_555 1_555
C7 N4 1_555 1_555
C8 N5 1_555 1_555
C9 N4 1_555 1_555
C9 N5 1_555 1_555
C10 N1 1_555 1_555
C14 C15 1_555 1_555
C16 N6 1_555 1_555
C17 N7 1_555 1_555
C18 N6 1_555 1_555
C19 N1 1_555 1_555
C23 C24 1_555 1_555
C25 N2 1_555 1_555
C25 N3 1_555 1_555
C26 N2 1_555 1_555
C27 N3 1_555 1_555
C32 C33 1_555 1_555
C34 N9 1_555 1_555
C35 N10 1_555 1_555
C36 N9 1_555 1_555
C36 N10 1_555 1_555
C37 N8 1_555 1_555
C41 C42 1_555 1_555
C43 N11 1_555 1_555
C45 N11 1_555 1_555
C45 N12 1_555 1_555
C46 N8 1_555 1_555
C50 C51 1_555 1_555
C52 N13 1_555 1_555
C53 N13 1_555 1_555
C54 N14 1_555 1_555
C73 O19 1_555 1_555
C5A C6A 1_555 1_555
C7A N4A 1_555 1_555
C8A N5A 1_555 1_555
C9A N4A 1_555 1_555
C9A N5A 1_555 1_555
C10A N1A 1_555 1_555
C14A C15A 1_555 1_555
C16A N6A 1_555 1_555
C16A N7A 1_555 1_555
C17A N7A 1_555 1_555
C18A N6A 1_555 1_555
C19A N1A 1_555 1_555
C23A C24A 1_555 1_555
C25A N2A 1_555 1_555
C26A N2A 1_555 1_555
C27A N3A 1_555 1_555
C32A C33A 1_555 1_555
C34A N9A 1_555 1_555
C35A N10A 1_555 1_555
C36A N9A 1_555 1_555
C36A N10A 1_555 1_555
C37A N8A 1_555 1_555
C41A C42A 1_555 1_555
C43A N11A 1_555 1_555
C44A N12A 1_555 1_555
C45A N11A 1_555 1_555
C45A N12A 1_555 1_555
C46A N8A 1_555 1_555
C50A C51A 1_555 1_555
C52A N13A 1_555 1_555
C53A N13A 1_555 1_555
C53A N14A 1_555 1_555
C54A N14A 1_555 1_555
C55A C57A 1_555 1_555
C59A C61A 1_555 1_555
C63A C65A 1_555 1_555
C67A C69A 1_555 1_555
C73A O19A 1_555 1_555

#END
