
#######################################################################
#
#                 Cambridge Crystallographic Data Centre
#                                CCDC 
#
#######################################################################
#
# If this CIF has been generated from an entry in the Cambridge 
# Structural Database, then it will include bibliographic, chemical, 
# crystal, experimental, refinement or atomic coordinate data resulting 
# from the CCDC's data processing and validation procedures.
#
#######################################################################

data_IBUZEM
_symmetry_cell_setting           triclinic
_symmetry_space_group_name_H-M   'P -1'
_symmetry_Int_Tables_number      2
_space_group_name_Hall           '-P 1'
loop_
_symmetry_equiv_pos_site_id
_symmetry_equiv_pos_as_xyz
1 x,y,z
2 -x,-y,-z
_cell_length_a                   12.129(4)
_cell_length_b                   13.776(5)
_cell_length_c                   14.004(5)
_cell_angle_alpha                118.696(4)
_cell_angle_beta                 96.783(4)
_cell_angle_gamma                104.497(4)
_cell_volume                     1907.33
loop_
_atom_site_label
_atom_site_type_symbol
_atom_site_fract_x
_atom_site_fract_y
_atom_site_fract_z
Si1 Si 0.5000 1.0000 0.5000
W1 W 0.55656(13) 0.75105(12) 0.30351(12)
W2 W 0.27137(13) 0.76570(12) 0.25772(12)
W3 W 0.50761(13) 0.95302(13) 0.23066(11)
W4 W 0.27106(13) 0.80556(13) 0.52572(14)
W5 W 0.78779(13) 0.99185(15) 0.54014(13)
W6 W 0.56252(14) 0.80604(14) 0.57794(14)
Cu1 Cu 0.6784(5) 0.5211(5) 0.0745(4)
Cu2 Cu 0.8782(5) 0.7714(5) 0.2888(4)
O1 O 0.583(2) 0.632(2) 0.205(2)
O2 O 0.591(3) 0.715(2) 0.612(2)
O3 O 0.566(3) 0.839(2) 0.230(2)
O4 O 0.354(2) 0.851(3) 0.201(3)
O5 O 0.163(3) 0.653(2) 0.139(2)
O6 O 0.657(3) 1.066(3) 0.325(3)
O7 O 0.389(3) 0.694(3) 0.249(4)
O8 O 0.925(2) 0.987(3) 0.561(2)
O9 O 0.161(3) 0.718(3) 0.541(2)
O10 O 0.203(4) 0.910(3) 0.520(3)
O11 O 0.193(5) 0.872(3) 0.314(3)
O12 O 0.711(3) 0.901(3) 0.597(3)
O13 O 0.241(5) 0.728(4) 0.367(3)
O14 O 0.437(3) 1.071(3) 0.284(3)
O15 O 0.575(4) 0.912(4) 0.481(4)
O16 O 0.360(4) 0.920(4) 0.447(4)
O17 O 0.713(3) 0.853(3) 0.391(3)
O18 O 0.530(3) 1.062(3) 0.427(3)
O19 O 0.543(3) 0.724(4) 0.417(3)
O20 O 0.528(4) 1.093(4) 0.628(4)
O21 O 0.517(2) 0.934(3) 0.105(3)
O22 O 0.392(3) 0.747(3) 0.535(3)
O23 O 0.923(2) 0.549(2) -0.221(2)
O24 O 0.855(2) 0.177(2) -0.024(2)
C1 C 0.612(4) 0.398(4) 0.187(3)
H1 H 0.5635 0.4415 0.2113
C2 C 0.613(4) 0.314(4) 0.222(4)
H2 H 0.5834 0.3169 0.2810
C3 C 0.657(3) 0.234(5) 0.164(4)
H3 H 0.6438 0.1680 0.1705
C4 C 0.725(3) 0.246(3) 0.092(3)
C5 C 0.729(3) 0.329(2) 0.069(2)
H4 H 0.7658 0.3318 0.0153
C6 C 0.773(3) 0.154(3) 0.030(3)
C7 C 0.890(3) 0.083(3) -0.064(3)
C8 C 1.018(3) 0.151(3) -0.156(3)
H5 H 0.9956 0.2177 -0.1292
C9 C 0.967(4) 0.068(4) -0.133(3)
C10 C 1.000(4) -0.033(4) -0.173(4)
H6 H 0.9634 -0.0946 -0.1647
C11 C 1.091(4) -0.036(4) -0.226(5)
H7 H 1.1258 -0.0927 -0.2424
C12 C 1.128(4) 0.051(4) -0.255(3)
H8 H 1.1749 0.0395 -0.3041
C13 C 1.169(4) 0.330(4) -0.424(4)
H9 H 1.2088 0.2783 -0.4556
C14 C 1.169(3) 0.407(4) -0.456(4)
H10 H 1.2059 0.4033 -0.5114
C15 C 1.118(3) 0.489(3) -0.412(3)
H11 H 1.1234 0.5456 -0.4308
C16 C 1.053(3) 0.483(3) -0.332(3)
C17 C 1.058(3) 0.403(3) -0.299(3)
H12 H 1.0235 0.4039 -0.2436
C18 C 0.994(3) 0.563(3) -0.281(3)
C19 C 0.878(4) 0.643(3) -0.189(4)
C20 C 0.772(3) 0.588(3) -0.070(3)
H13 H 0.8052 0.5302 -0.0853
C21 C 0.800(3) 0.654(3) -0.116(3)
C22 C 0.744(4) 0.739(4) -0.102(4)
H14 H 0.7571 0.7829 -0.1358
C23 C 0.667(5) 0.750(4) -0.030(4)
H15 H 0.6293 0.8048 -0.0137
C24 C 0.650(3) 0.684(3) 0.013(3)
H16 H 0.5987 0.6939 0.0583
N1 N 0.675(3) 0.415(3) 0.126(3)
N2 N 0.752(4) 0.051(3) 0.015(3)
N3 N 0.828(3) 0.007(3) -0.045(3)
N4 N 1.101(3) 0.142(3) -0.217(3)
N5 N 1.114(3) 0.324(3) -0.348(3)
N6 N 0.994(4) 0.653(3) -0.292(4)
N7 N 0.919(4) 0.701(4) -0.225(4)
N8 N 0.701(3) 0.601(3) -0.003(2)
W1A W 0.44344(13) 1.24895(12) 0.69649(12)
W2A W 0.72863(13) 1.23430(12) 0.74228(12)
W3A W 0.49239(13) 1.04698(13) 0.76934(11)
W4A W 0.72894(13) 1.19444(13) 0.47428(14)
W5A W 0.21221(13) 1.00815(15) 0.45986(13)
W6A W 0.43748(14) 1.19396(14) 0.42206(14)
Cu1A Cu 0.3216(5) 1.4789(5) 0.9255(4)
Cu1A_2 Cu 1.3216(5) 0.4789(5) -0.0745(4)
Cu2A Cu 0.1218(5) 1.2286(5) 0.7112(4)
Cu2A_2 Cu 1.1218(5) 0.2286(5) -0.2888(4)
O1A O 0.417(2) 1.368(2) 0.795(2)
O2A O 0.409(3) 1.285(2) 0.388(2)
O3A O 0.434(3) 1.161(2) 0.770(2)
O4A O 0.646(2) 1.149(3) 0.799(3)
O5A O 0.837(3) 1.347(2) 0.861(2)
O6A O 0.343(3) 0.934(3) 0.675(3)
O7A O 0.611(3) 1.306(3) 0.751(4)
O8A O 0.075(2) 1.013(3) 0.439(2)
O9A O 0.839(3) 1.282(3) 0.459(2)
O10A O 0.797(4) 1.090(3) 0.480(3)
O11A O 0.807(5) 1.128(3) 0.686(3)
O12A O 0.289(3) 1.099(3) 0.403(3)
O13A O 0.759(5) 1.272(4) 0.633(3)
O14A O 0.563(3) 0.929(3) 0.716(3)
O15A O 0.425(4) 1.088(4) 0.519(4)
O16A O 0.640(4) 1.080(4) 0.553(4)
O17A O 0.287(3) 1.147(3) 0.609(3)
O18A O 0.470(3) 0.938(3) 0.573(3)
O19A O 0.457(3) 1.276(4) 0.583(3)
O20A O 0.472(4) 0.907(4) 0.372(4)
O21A O 0.483(2) 1.066(3) 0.895(3)
O22A O 0.608(3) 1.253(3) 0.465(3)
O23A O 1.077(2) 0.451(2) 0.221(2)
O24A O 1.145(2) 0.823(2) 0.024(2)
C1A C 1.388(4) 0.602(4) -0.187(3)
H1A H 1.4365 0.5585 -0.2113
C2A C 1.387(4) 0.686(4) -0.222(4)
H2A H 1.4166 0.6831 -0.2810
C3A C 1.343(3) 0.766(5) -0.164(4)
H3A H 1.3562 0.8320 -0.1705
C4A C 1.275(3) 0.754(3) -0.092(3)
C5A C 1.271(3) 0.671(2) -0.069(2)
H4A H 1.2342 0.6682 -0.0153
C6A C 1.227(3) 0.846(3) -0.030(3)
C7A C 1.110(3) 0.917(3) 0.064(3)
C8A C 0.982(3) 0.849(3) 0.156(3)
H5A H 1.0044 0.7823 0.1292
C9A C 1.033(4) 0.932(4) 0.133(3)
C10A C 1.000(4) 1.033(4) 0.173(4)
H6A H 1.0366 1.0946 0.1647
C11A C 0.909(4) 1.036(4) 0.226(5)
H7A H 0.8742 1.0927 0.2424
C12A C 0.872(4) 0.949(4) 0.255(3)
H8A H 0.8251 0.9605 0.3041
C13A C 0.831(4) 0.670(4) 0.424(4)
H9A H 0.7912 0.7217 0.4556
C14A C 0.831(3) 0.593(4) 0.456(4)
H10A H 0.7941 0.5967 0.5114
C15A C 0.882(3) 0.511(3) 0.412(3)
H11A H 0.8766 0.4544 0.4308
C16A C 0.947(3) 0.517(3) 0.332(3)
C17A C 0.942(3) 0.597(3) 0.299(3)
H12A H 0.9765 0.5961 0.2436
C18A C 1.006(3) 0.437(3) 0.281(3)
C19A C 1.122(4) 0.357(3) 0.189(4)
C20A C 1.228(3) 0.412(3) 0.070(3)
H13A H 1.1948 0.4698 0.0853
C21A C 1.200(3) 0.346(3) 0.116(3)
C22A C 1.256(4) 0.261(4) 0.102(4)
H14A H 1.2429 0.2171 0.1358
C23A C 1.333(5) 0.250(4) 0.030(4)
H15A H 1.3707 0.1952 0.0137
C24A C 1.350(3) 0.316(3) -0.013(3)
H16A H 1.4013 0.3061 -0.0583
N1A N 1.325(3) 0.585(3) -0.126(3)
N1A_2 N 0.325(3) 1.585(3) 0.874(3)
N2A N 1.248(4) 0.949(3) -0.015(3)
N3A N 1.172(3) 0.993(3) 0.045(3)
N4A N 0.899(3) 0.858(3) 0.217(3)
N4_2 N 0.101(3) 1.142(3) 0.783(3)
N5A N 0.886(3) 0.676(3) 0.348(3)
N5_2 N 0.114(3) 1.324(3) 0.652(3)
N6A N 1.006(4) 0.347(3) 0.292(4)
N7A N 1.081(4) 0.299(4) 0.225(4)
N8A N 1.299(3) 0.399(3) 0.003(2)
N8A_2 N 0.299(3) 1.399(3) 1.003(2)
loop_
_geom_bond_atom_site_label_1
_geom_bond_atom_site_label_2
_geom_bond_site_symmetry_1
_geom_bond_site_symmetry_2
Si1 O15 1_555 1_555
W1 O1 1_555 1_555
W2 O4 1_555 1_555
W3 O3 1_555 1_555
W4 O9 1_555 1_555
W5 O8 1_555 1_555
W6 O2 1_555 1_555
Cu1 Cu2 1_555 1_555
Cu2 O17 1_555 1_555
O1 Cu1 1_555 1_555
O3 W1 1_555 1_555
O4 W3 1_555 1_555
O5 W2 1_555 1_555
O6 W3 1_555 1_555
O7 W1 1_555 1_555
O10 W4 1_555 1_555
O11 W2 1_555 1_555
O12 W5 1_555 1_555
O13 W2 1_555 1_555
O14 W3 1_555 1_555
O15 W1 1_555 1_555
O16 Si1 1_555 1_555
O17 W1 1_555 1_555
O18 Si1 1_555 1_555
O19 W1 1_555 1_555
O20 Si1 1_555 1_555
O21 W3 1_555 1_555
O22 W4 1_555 1_555
O23 C18 1_555 1_555
O24 C6 1_555 1_555
C1 H1 1_555 1_555
C2 C1 1_555 1_555
H2 C2 1_555 1_555
C3 C2 1_555 1_555
H3 C3 1_555 1_555
C4 C3 1_555 1_555
C5 C4 1_555 1_555
H4 C5 1_555 1_555
C6 C4 1_555 1_555
C7 O24 1_555 1_555
C8 H5 1_555 1_555
C9 C7 1_555 1_555
C10 C9 1_555 1_555
H6 C10 1_555 1_555
C11 C10 1_555 1_555
H7 C11 1_555 1_555
C12 C11 1_555 1_555
H8 C12 1_555 1_555
C13 H9 1_555 1_555
C14 C13 1_555 1_555
H10 C14 1_555 1_555
C15 C14 1_555 1_555
H11 C15 1_555 1_555
C16 C15 1_555 1_555
C17 C16 1_555 1_555
H12 C17 1_555 1_555
C18 C16 1_555 1_555
C19 O23 1_555 1_555
C20 H13 1_555 1_555
C21 C19 1_555 1_555
C22 C21 1_555 1_555
H14 C22 1_555 1_555
C23 C22 1_555 1_555
H15 C23 1_555 1_555
C24 C23 1_555 1_555
H16 C24 1_555 1_555
N1 Cu1 1_555 1_555
N2 C6 1_555 1_555
N3 C7 1_555 1_555
N4 C8 1_555 1_555
N5 C13 1_555 1_555
N6 C18 1_555 1_555
N7 C19 1_555 1_555
N8 Cu1 1_555 1_555
W1A O20 1_555 1_555
W2A O20 1_555 1_555
W3A O20 1_555 1_555
W4A O6 1_555 1_555
W5A O10 1_555 1_555
W6A O14 1_555 1_555
Cu1A Cu2A 1_555 1_555
Cu1A_2 Cu2A_2 1_555 1_555
Cu2A O17A 1_555 1_555
Cu2A_2 N4 1_555 1_555
O1A W1A 1_555 1_555
O2A W6A 1_555 1_555
O3A W1A 1_555 1_555
O4A W2A 1_555 1_555
O5A W2A 1_555 1_555
O6A W4 1_555 1_555
O7A W1A 1_555 1_555
O8A W5A 1_555 1_555
O9A W4A 1_555 1_555
O10A W5 1_555 1_555
O11A W5 1_555 1_555
O12A W5A 1_555 1_555
O13A W2A 1_555 1_555
O14A W6 1_555 1_555
O15A Si1 1_555 1_555
O16A Si1 1_555 1_555
O17A W1A 1_555 1_555
O18A Si1 1_555 1_555
O19A W1A 1_555 1_555
O20A Si1 1_555 1_555
O21A W3A 1_555 1_555
O22A W4A 1_555 1_555
O23A C18A 1_555 1_555
O24A C6A 1_555 1_555
C1A H1A 1_555 1_555
C2A C1A 1_555 1_555
H2A C2A 1_555 1_555
C3A C2A 1_555 1_555
H3A C3A 1_555 1_555
C4A C3A 1_555 1_555
C5A C4A 1_555 1_555
H4A C5A 1_555 1_555
C6A C4A 1_555 1_555
C7A O24A 1_555 1_555
C8A H5A 1_555 1_555
C9A C7A 1_555 1_555
C10A C9A 1_555 1_555
H6A C10A 1_555 1_555
C11A C10A 1_555 1_555
H7A C11A 1_555 1_555
C12A C11A 1_555 1_555
H8A C12A 1_555 1_555
C13A H9A 1_555 1_555
C14A C13A 1_555 1_555
H10A C14A 1_555 1_555
C15A C14A 1_555 1_555
H11A C15A 1_555 1_555
C16A C15A 1_555 1_555
C17A C16A 1_555 1_555
H12A C17A 1_555 1_555
C18A C16A 1_555 1_555
C19A O23A 1_555 1_555
C20A H13A 1_555 1_555
C21A C19A 1_555 1_555
C22A C21A 1_555 1_555
H14A C22A 1_555 1_555
C23A C22A 1_555 1_555
H15A C23A 1_555 1_555
C24A C23A 1_555 1_555
H16A C24A 1_555 1_555
N1A Cu1A_2 1_555 1_555
N1A_2 Cu1A 1_555 1_555
N2A C6A 1_555 1_555
N3A C7A 1_555 1_555
N4A Cu2 1_555 1_555
N4_2 Cu2A 1_555 1_555
N5A Cu2 1_555 1_555
N5_2 Cu2A 1_555 1_555
N6A C18A 1_555 1_555
N7A C19A 1_555 1_555
N8A Cu1A_2 1_555 1_555
N8A_2 Cu1A 1_555 1_555
W1 O20A 1_555 1_555
W2 O7 1_555 1_555
W2 O16 1_555 1_555
W2 O20A 1_555 1_555
W3 O18 1_555 1_555
W3 O20A 1_555 1_555
W4 O13 1_555 1_555
W4 O16 1_555 1_555
W4 O18A 1_555 1_555
W5 O15 1_555 1_555
W5 O17 1_555 1_555
W5 O16A 1_555 1_555
W6 O12 1_555 1_555
W6 O15 1_555 1_555
W6 O19 1_555 1_555
W6 O22 1_555 1_555
W6 O18A 1_555 1_555
O11 W5A 1_555 1_555
O15 O16A 1_555 1_555
O15 O18A 1_555 1_555
O15 O20A 1_555 1_555
O16 W5A 1_555 1_555
O16 O15A 1_555 1_555
O16 O18A 1_555 1_555
O16 O20A 1_555 1_555
O18 W4A 1_555 1_555
O18 W6A 1_555 1_555
O18 O15A 1_555 1_555
O18 O16A 1_555 1_555
O18 O20A 1_555 1_555
O20 O15A 1_555 1_555
O20 O16A 1_555 1_555
O20 O18A 1_555 1_555
C1 N1 1_555 1_555
C5 N1 1_555 1_555
C8 C9 1_555 1_555
C12 N4 1_555 1_555
C17 N5 1_555 1_555
C20 C21 1_555 1_555
C20 N8 1_555 1_555
C24 N8 1_555 1_555
N2 N3 1_555 1_555
N5 Cu2A_2 1_555 1_555
N6 N7 1_555 1_555
W1A O15A 1_555 1_555
W2A O7A 1_555 1_555
W2A O11A 1_555 1_555
W2A O16A 1_555 1_555
W3A O3A 1_555 1_555
W3A O4A 1_555 1_555
W3A O6A 1_555 1_555
W3A O14A 1_555 1_555
W3A O18A 1_555 1_555
W4A O10A 1_555 1_555
W4A O13A 1_555 1_555
W4A O16A 1_555 1_555
W5A O15A 1_555 1_555
W5A O17A 1_555 1_555
W6A O12A 1_555 1_555
W6A O15A 1_555 1_555
W6A O19A 1_555 1_555
W6A O22A 1_555 1_555
Cu1A O1A 1_555 1_555
C1A N1A 1_555 1_555
C5A N1A 1_555 1_555
C8A C9A 1_555 1_555
C8A N4A 1_555 1_555
C12A N4A 1_555 1_555
C13A N5A 1_555 1_555
C17A N5A 1_555 1_555
C20A C21A 1_555 1_555
C20A N8A 1_555 1_555
C24A N8A 1_555 1_555
N2A N3A 1_555 1_555
N6A N7A 1_555 1_555

#END
