
#######################################################################
#
#                 Cambridge Crystallographic Data Centre
#                                CCDC 
#
#######################################################################
#
# If this CIF has been generated from an entry in the Cambridge 
# Structural Database, then it will include bibliographic, chemical, 
# crystal, experimental, refinement or atomic coordinate data resulting 
# from the CCDC's data processing and validation procedures.
#
#######################################################################

data_ICABIZ
_symmetry_cell_setting           monoclinic
_symmetry_space_group_name_H-M   'P 21/c'
_symmetry_Int_Tables_number      14
_space_group_name_Hall           '-P 2ybc'
loop_
_symmetry_equiv_pos_site_id
_symmetry_equiv_pos_as_xyz
1 x,y,z
2 -x,1/2+y,1/2-z
3 -x,-y,-z
4 x,1/2-y,1/2+z
_cell_length_a                   5.8113(2)
_cell_length_b                   15.4887(6)
_cell_length_c                   9.7322(4)
_cell_angle_alpha                90
_cell_angle_beta                 91.121(2)
_cell_angle_gamma                90
_cell_volume                     875.823
loop_
_atom_site_label
_atom_site_type_symbol
_atom_site_fract_x
_atom_site_fract_y
_atom_site_fract_z
Cu1 Cu 1.09823(13) 0.50383(5) 0.13067(8)
S1 S 1.1526(2) 0.60675(8) -0.06207(13)
N1 N 1.5967(7) 0.5546(3) -0.1389(5)
N2 N 1.0532(9) 0.5723(3) 0.3055(5)
C1 C 1.4148(9) 0.5752(3) -0.1076(5)
C2 C 1.2071(10) 0.5587(4) 0.4101(6)
H1 H 1.3247 0.5175 0.3947
C3 C 1.2090(11) 0.5985(4) 0.5348(6)
H2 H 1.3230 0.5862 0.6033
C4 C 1.0348(12) 0.6581(4) 0.5563(7)
H3 H 1.0252 0.6874 0.6418
C5 C 0.8738(10) 0.6747(4) 0.4511(6)
H4 H 0.7548 0.7159 0.4635
C6 C 0.8908(10) 0.6305(4) 0.3299(6)
C7 C 0.7185(10) 0.6446(4) 0.2089(6)
H5 H 0.8059 0.6570 0.1249
H6 H 0.6315 0.5904 0.1929
C8 C 0.5485(11) 0.7174(4) 0.2315(7)
H7 H 0.4550 0.7043 0.3116
H8 H 0.4480 0.7236 0.1500
H9 H 0.6326 0.7714 0.2475
Cu1B Cu 0.90177(13) 0.49617(5) -0.13067(8)
Cu1B_2 Cu 1.90177(13) 0.49617(5) -0.13067(8)
S1B S 0.8474(2) 0.39325(8) 0.06207(13)
N1B N 1.4033(7) 0.4454(3) 0.1389(5)
loop_
_geom_bond_atom_site_label_1
_geom_bond_atom_site_label_2
_geom_bond_site_symmetry_1
_geom_bond_site_symmetry_2
Cu1 S1 1_555 1_555
S1 C1 1_555 1_555
N1 C1 1_555 1_555
N2 Cu1 1_555 1_555
C2 N2 1_555 1_555
H1 C2 1_555 1_555
C3 C2 1_555 1_555
H2 C3 1_555 1_555
C4 C3 1_555 1_555
H3 C4 1_555 1_555
C5 C4 1_555 1_555
H4 C5 1_555 1_555
C6 N2 1_555 1_555
C7 C6 1_555 1_555
H5 C7 1_555 1_555
H6 C7 1_555 1_555
C8 C7 1_555 1_555
H7 C8 1_555 1_555
H8 C8 1_555 1_555
H9 C8 1_555 1_555
Cu1B S1 1_555 1_555
Cu1B_2 N1 1_555 1_555
S1B Cu1 1_555 1_555
N1B Cu1 1_555 1_555
C5 C6 1_555 1_555
Cu1B S1B 1_555 1_555

#END
