
#######################################################################
#
#                 Cambridge Crystallographic Data Centre
#                                CCDC 
#
#######################################################################
#
# If this CIF has been generated from an entry in the Cambridge 
# Structural Database, then it will include bibliographic, chemical, 
# crystal, experimental, refinement or atomic coordinate data resulting 
# from the CCDC's data processing and validation procedures.
#
#######################################################################

data_ICACAS
_symmetry_cell_setting           monoclinic
_symmetry_space_group_name_H-M   'P 21/n'
_symmetry_Int_Tables_number      14
_space_group_name_Hall           '-P 2yn'
loop_
_symmetry_equiv_pos_site_id
_symmetry_equiv_pos_as_xyz
1 x,y,z
2 1/2-x,1/2+y,1/2-z
3 -x,-y,-z
4 1/2+x,1/2-y,1/2+z
_cell_length_a                   3.8166(3)
_cell_length_b                   24.2881(16)
_cell_length_c                   8.4924(6)
_cell_angle_alpha                90
_cell_angle_beta                 91.714(4)
_cell_angle_gamma                90
_cell_volume                     786.876
loop_
_atom_site_label
_atom_site_type_symbol
_atom_site_fract_x
_atom_site_fract_y
_atom_site_fract_z
Br1 Br 0.65083(8) 1.022143(13) 0.77061(4)
Cu1 Cu 1.06560(13) 0.81285(2) 1.04957(6)
S1 S 0.5720(2) 0.83646(3) 1.19589(9)
N1 N 0.5666(8) 0.76016(12) 1.4474(4)
N2 N 1.0166(7) 0.86523(12) 0.8586(3)
C1 C 0.5698(9) 0.79079(13) 1.3439(4)
C2 C 0.8862(8) 0.91614(14) 0.8718(4)
H1 H 0.8323 0.9297 0.9732
C3 C 0.8281(8) 0.94948(14) 0.7424(4)
C4 C 0.9001(9) 0.93153(14) 0.5927(4)
H2 H 0.8555 0.9540 0.5027
C5 C 1.0413(9) 0.87892(14) 0.5800(4)
H3 H 1.1006 0.8649 0.4799
C6 C 1.0950(9) 0.84722(14) 0.7138(4)
H4 H 1.1909 0.8114 0.7032
Cu1_2 Cu 0.06560(13) 0.81285(2) 1.04957(6)
Cu1C Cu 0.56560(13) 0.68715(2) 1.54957(6)
S1_2 S 1.5720(2) 0.83646(3) 1.19589(9)
N1C N 1.0666(8) 0.73984(12) 0.9474(4)
loop_
_geom_bond_atom_site_label_1
_geom_bond_atom_site_label_2
_geom_bond_site_symmetry_1
_geom_bond_site_symmetry_2
Br1 C3 1_555 1_555
Cu1 S1 1_555 1_555
S1 C1 1_555 1_555
N1 C1 1_555 1_555
N2 Cu1 1_555 1_555
C2 N2 1_555 1_555
H1 C2 1_555 1_555
C3 C2 1_555 1_555
C4 C3 1_555 1_555
H2 C4 1_555 1_555
C5 C4 1_555 1_555
H3 C5 1_555 1_555
C6 N2 1_555 1_555
H4 C6 1_555 1_555
Cu1_2 S1 1_555 1_555
Cu1C N1 1_555 1_555
S1_2 Cu1 1_555 1_555
N1C Cu1 1_555 1_555
C5 C6 1_555 1_555

#END
