
#######################################################################
#
#                 Cambridge Crystallographic Data Centre
#                                CCDC 
#
#######################################################################
#
# If this CIF has been generated from an entry in the Cambridge 
# Structural Database, then it will include bibliographic, chemical, 
# crystal, experimental, refinement or atomic coordinate data resulting 
# from the CCDC's data processing and validation procedures.
#
#######################################################################

data_ICACOG
_symmetry_cell_setting           monoclinic
_symmetry_space_group_name_H-M   'P 21/n'
_symmetry_Int_Tables_number      14
_space_group_name_Hall           '-P 2yn'
loop_
_symmetry_equiv_pos_site_id
_symmetry_equiv_pos_as_xyz
1 x,y,z
2 1/2-x,1/2+y,1/2-z
3 -x,-y,-z
4 1/2+x,1/2-y,1/2+z
_cell_length_a                   3.78140(10)
_cell_length_b                   24.2829(8)
_cell_length_c                   8.3855(3)
_cell_angle_alpha                90
_cell_angle_beta                 91.0050(10)
_cell_angle_gamma                90
_cell_volume                     769.866
loop_
_atom_site_label
_atom_site_type_symbol
_atom_site_fract_x
_atom_site_fract_y
_atom_site_fract_z
Cu1 Cu 0.05602(9) 0.185562(14) 1.05034(4)
Cl1 Cl -0.34570(16) -0.01837(2) 0.77168(7)
S1 S 0.55789(15) 0.16215(2) 1.20085(7)
N1 N 0.5554(6) 0.24136(9) 1.4472(3)
N2 N 0.0106(5) 0.13231(8) 0.8592(2)
C1 C 0.5569(6) 0.20947(10) 1.3454(3)
C2 C -0.1190(6) 0.08146(10) 0.8743(3)
H1 H -0.1681 0.0678 0.9777
C3 C -0.1839(6) 0.04808(10) 0.7434(3)
C4 C -0.1164(7) 0.06658(10) 0.5906(3)
H2 H -0.1647 0.0443 0.4997
C5 C 0.0243(6) 0.11893(11) 0.5760(3)
H3 H 0.0800 0.1331 0.4738
C6 C 0.0834(6) 0.15055(10) 0.7114(3)
H4 H 0.1789 0.1865 0.6997
Cu1_2 Cu 1.05602(9) 0.185562(14) 1.05034(4)
Cu1C Cu 0.55602(9) 0.314438(14) 1.55034(4)
S1_2 S -0.44211(15) 0.16215(2) 1.20085(7)
N1C N 0.0554(6) 0.25864(9) 0.9472(3)
loop_
_geom_bond_atom_site_label_1
_geom_bond_atom_site_label_2
_geom_bond_site_symmetry_1
_geom_bond_site_symmetry_2
Cu1 S1 1_555 1_555
Cl1 C3 1_555 1_555
S1 C1 1_555 1_555
N1 C1 1_555 1_555
N2 Cu1 1_555 1_555
C2 N2 1_555 1_555
H1 C2 1_555 1_555
C3 C2 1_555 1_555
C4 C3 1_555 1_555
H2 C4 1_555 1_555
C5 C4 1_555 1_555
H3 C5 1_555 1_555
C6 N2 1_555 1_555
H4 C6 1_555 1_555
Cu1_2 S1 1_555 1_555
Cu1C N1 1_555 1_555
S1_2 Cu1 1_555 1_555
N1C Cu1 1_555 1_555
C5 C6 1_555 1_555

#END
