
#######################################################################
#
#                 Cambridge Crystallographic Data Centre
#                                CCDC 
#
#######################################################################
#
# If this CIF has been generated from an entry in the Cambridge 
# Structural Database, then it will include bibliographic, chemical, 
# crystal, experimental, refinement or atomic coordinate data resulting 
# from the CCDC's data processing and validation procedures.
#
#######################################################################

data_ICAGIC
_symmetry_cell_setting           monoclinic
_symmetry_space_group_name_H-M   'C 2/m'
_symmetry_Int_Tables_number      12
_space_group_name_Hall           '-C 2y'
loop_
_symmetry_equiv_pos_site_id
_symmetry_equiv_pos_as_xyz
1 x,y,z
2 1/2+x,1/2+y,z
3 -x,y,-z
4 1/2-x,1/2+y,-z
5 -x,-y,-z
6 1/2-x,1/2-y,-z
7 x,-y,z
8 1/2+x,1/2-y,z
_cell_length_a                   7.2861(15)
_cell_length_b                   20.179(4)
_cell_length_c                   10.453(2)
_cell_angle_alpha                90
_cell_angle_beta                 103.47(3)
_cell_angle_gamma                90
_cell_volume                     1494.59
loop_
_atom_site_label
_atom_site_type_symbol
_atom_site_fract_x
_atom_site_fract_y
_atom_site_fract_z
Zn1 Zn 0.0000 -0.5000 0.0000
Na1 Na 0.3159(4) -0.5000 0.3275(2)
O1 O 0.0000 -0.6013(2) 0.0000
H1 H 0.0627 -0.6289 0.0505
O2 O 0.0284(7) -0.5000 -0.1976(4)
H2 H 0.074(8) -0.529(2) -0.217(5)
O3 O -0.2922(6) -0.5000 -0.0845(4)
H3 H -0.342(8) -0.470(2) -0.060(5)
O4 O 0.3311(9) -0.5000 0.5641(5)
H4 H 0.6978 -0.4681 0.3986
O5 O 0.7990(5) -0.18792(17) 0.8270(3)
H5 H 0.194(9) -0.751(4) 0.178(6)
O6 O 0.1996(5) -0.69391(16) 0.1729(3)
O7 O 0.3064(5) -0.61205(15) 0.3032(3)
O8 O 0.6900(4) -0.10436(14) 0.6985(3)
C1 C 0.5000 -0.1793(3) 0.5000
H6 H 0.5000 -0.135(3) 0.5000
C2 C 0.3969(5) -0.71872(17) 0.3887(4)
C3 C 0.5000 -0.6868(3) 0.5000
H7 H 0.5000 -0.359(3) 0.5000
C4 C 0.2960(6) -0.67071(19) 0.2820(4)
C5 C 0.7035(6) -0.16446(19) 0.7198(4)
C6 C 0.3967(5) -0.21137(18) 0.3886(3)
H1B H -0.0627 -0.6289 -0.0505
O1F O 0.0000 -0.3987(2) 0.0000
H1F H 0.0627 -0.3711 0.0505
H1D H -0.0627 -0.3711 -0.0505
O2D O -0.0284(7) -0.5000 0.1976(4)
Na1D Na -0.3159(4) -0.5000 -0.3275(2)
O3D O 0.2922(6) -0.5000 0.0845(4)
H3D H 0.342(8) -0.530(2) 0.060(5)
H3B H 0.342(8) -0.470(2) 0.060(5)
Na1D_2 Na 0.6841(4) -0.5000 0.6725(2)
O2_2 O 1.0284(7) -0.5000 0.8024(4)
O3_2 O 0.7078(6) -0.5000 0.9155(4)
O4D O 0.6689(9) -0.5000 0.4359(5)
C2B C 0.6031(5) -0.71872(17) 0.6113(4)
C4B C 0.7040(6) -0.67071(19) 0.7180(4)
O6B O 0.8004(5) -0.69391(16) 0.8271(3)
H5B H 0.806(9) -0.751(4) 0.822(6)
O7B O 0.6936(5) -0.61205(15) 0.6968(3)
O7D O 0.6936(5) -0.38795(15) 0.6968(3)
C4D C 0.7040(6) -0.32929(19) 0.7180(4)
O6D O 0.8004(5) -0.30609(16) 0.8271(3)
H5D H 0.806(9) -0.249(4) 0.822(6)
C2D C 0.6031(5) -0.28128(17) 0.6113(4)
C3F C 0.5000 -0.3132(3) 0.5000
C2F C 0.3969(5) -0.28128(17) 0.3887(4)
C4F C 0.2960(6) -0.32929(19) 0.2820(4)
O6F O 0.1996(5) -0.30609(16) 0.1729(3)
H5F H 0.194(9) -0.249(4) 0.178(6)
O7F O 0.3064(5) -0.38795(15) 0.3032(3)
C6B C 0.6033(5) -0.21137(18) 0.6114(3)
C5B C 0.2965(6) -0.16446(19) 0.2802(4)
O5B O 0.2010(5) -0.18792(17) 0.1730(3)
O8B O 0.3100(4) -0.10436(14) 0.3015(3)
C6D C 0.6033(5) -0.78863(18) 0.6114(3)
C1F C 0.5000 -0.8207(3) 0.5000
H6F H 0.5000 -0.865(3) 0.5000
C6F C 0.3967(5) -0.78863(18) 0.3886(3)
C5D C 0.2965(6) -0.83554(19) 0.2802(4)
O5D O 0.2010(5) -0.81208(17) 0.1730(3)
O8D O 0.3100(4) -0.89564(14) 0.3015(3)
C5F C 0.7035(6) -0.83554(19) 0.7198(4)
O5F O 0.7990(5) -0.81208(17) 0.8270(3)
O8F O 0.6900(4) -0.89564(14) 0.6985(3)
H7F H 0.5000 -0.641(3) 0.5000
H4F H 0.6978 -0.5319 0.3986
H4D H 0.3022 -0.5319 0.6014
H4B H 0.3022 -0.4681 0.6014
H2D H -0.074(8) -0.471(2) 0.217(5)
H2B H -0.074(8) -0.529(2) 0.217(5)
H3F H -0.342(8) -0.530(2) -0.060(5)
H2F H 0.074(8) -0.471(2) -0.217(5)
H2_2 H 1.074(8) -0.529(2) 0.783(5)
H2F_2 H 1.074(8) -0.471(2) 0.783(5)
H3_2 H 0.658(8) -0.470(2) 0.940(5)
H3F_2 H 0.658(8) -0.530(2) 0.940(5)
O9 O -0.5000 -0.4045(2) 0.0000
H8 H -0.4410 -0.3771 0.0552
H8B H -0.5590 -0.3771 -0.0552
loop_
_geom_bond_atom_site_label_1
_geom_bond_atom_site_label_2
_geom_bond_site_symmetry_1
_geom_bond_site_symmetry_2
Zn1 O1 1_555 1_555
Na1 O4 1_555 1_555
O1 H1 1_555 1_555
O2 Zn1 1_555 1_555
H2 O2 1_555 1_555
O3 Zn1 1_555 1_555
H3 O3 1_555 1_555
O4 Na1D_2 1_555 1_555
H4 O4D 1_555 1_555
O5 C5 1_555 1_555
H5 O6 1_555 1_555
O6 C4 1_555 1_555
O7 Na1 1_555 1_555
O8 C5 1_555 1_555
C1 H6 1_555 1_555
C2 C3 1_555 1_555
C3 C2B 1_555 1_555
H7 C3F 1_555 1_555
C4 O7 1_555 1_555
C5 C6B 1_555 1_555
C6 C1 1_555 1_555
O9 H8 1_555 1_555
H1B O1 1_555 1_555
O1F Zn1 1_555 1_555
H1F O1F 1_555 1_555
H1D O1F 1_555 1_555
O2D Zn1 1_555 1_555
Na1D O2 1_555 1_555
O3D Zn1 1_555 1_555
H3D O3D 1_555 1_555
H3B O3D 1_555 1_555
Na1D_2 O2_2 1_555 1_555
O2_2 H2_2 1_555 1_555
O3_2 Na1D_2 1_555 1_555
O4D Na1 1_555 1_555
C2B C4B 1_555 1_555
C4B O6B 1_555 1_555
O6B H5B 1_555 1_555
O7B Na1D_2 1_555 1_555
O7D Na1D_2 1_555 1_555
C4D O7D 1_555 1_555
O6D C4D 1_555 1_555
H5D O6D 1_555 1_555
C2D C4D 1_555 1_555
C3F C2D 1_555 1_555
C2F C6 1_555 1_555
C4F C2F 1_555 1_555
O6F C4F 1_555 1_555
H5F O6F 1_555 1_555
O7F Na1 1_555 1_555
C6B C1 1_555 1_555
C5B C6 1_555 1_555
O5B C5B 1_555 1_555
O8B C5B 1_555 1_555
C6D C2B 1_555 1_555
C1F C6D 1_555 1_555
H6F C1F 1_555 1_555
C6F C2 1_555 1_555
C5D C6F 1_555 1_555
O5D C5D 1_555 1_555
O8D C5D 1_555 1_555
C5F C6D 1_555 1_555
O5F C5F 1_555 1_555
O8F C5F 1_555 1_555
H7F C3 1_555 1_555
H4F O4D 1_555 1_555
H4D O4 1_555 1_555
H4B O4 1_555 1_555
H2D O2D 1_555 1_555
H2B O2D 1_555 1_555
H3F O3 1_555 1_555
H2F O2 1_555 1_555
H2F_2 O2_2 1_555 1_555
H3_2 O3_2 1_555 1_555
H3F_2 O3_2 1_555 1_555
H8B O9 1_555 1_555
Na1 O2D 1_555 1_555
Na1 O3D 1_555 1_555
O3 Na1D 1_555 1_555
C2 C4 1_555 1_555
Na1D_2 O4D 1_555 1_555
C4B O7B 1_555 1_555
C2D C6B 1_555 1_555
C3F C2F 1_555 1_555
C4F O7F 1_555 1_555
C1F C6F 1_555 1_555

#END
