
#######################################################################
#
#                 Cambridge Crystallographic Data Centre
#                                CCDC 
#
#######################################################################
#
# If this CIF has been generated from an entry in the Cambridge 
# Structural Database, then it will include bibliographic, chemical, 
# crystal, experimental, refinement or atomic coordinate data resulting 
# from the CCDC's data processing and validation procedures.
#
#######################################################################

data_ICAGIE
_symmetry_cell_setting           monoclinic
_symmetry_space_group_name_H-M   'P 21'
_symmetry_Int_Tables_number      4
_space_group_name_Hall           'P 2yb'
loop_
_symmetry_equiv_pos_site_id
_symmetry_equiv_pos_as_xyz
1 x,y,z
2 -x,1/2+y,-z
_cell_length_a                   8.5221(6)
_cell_length_b                   6.4754(4)
_cell_length_c                   11.5083(8)
_cell_angle_alpha                90
_cell_angle_beta                 108.673(2)
_cell_angle_gamma                90
_cell_volume                     601.645
loop_
_atom_site_label
_atom_site_type_symbol
_atom_site_fract_x
_atom_site_fract_y
_atom_site_fract_z
Cu1 Cu 0.48804(5) 0.85651(10) 0.99005(3)
C1 C 0.3769(4) 1.0920(6) 0.1643(3)
C2 C 0.3309(4) 1.0972(6) 0.2795(3)
C3 C 0.2528(5) 1.2677(5) 0.3071(3)
H1 H 0.2253 1.3782 0.2528
C4 C 0.2149(5) 1.2754(6) 0.4158(3)
H2 H 0.1592 1.3895 0.4322
C5 C 0.2589(4) 1.1155(6) 0.5001(3)
C6 C 0.3379(4) 0.9445(5) 0.4711(3)
H3 H 0.3682 0.8349 0.5260
C7 C 0.3717(4) 0.9358(5) 0.3623(3)
H4 H 0.4229 0.8192 0.3439
C8 C 0.2206(4) 1.1254(6) 0.6173(3)
C9 C 0.0833(5) 1.2256(6) 0.6280(3)
H5 H 0.0112 1.2930 0.5605
C10 C 0.0526(5) 1.2260(6) 0.7392(3)
H6 H -0.0395 1.2936 0.7475
C11 C 0.1604(4) 1.1249(6) 0.8365(3)
H7 H 0.1371 1.1208 0.9101
C12 C 0.3245(5) 1.0345(5) 0.7228(3)
H8 H 0.4201 0.9707 0.7182
N1 N 0.2972(4) 1.0319(4) 0.8308(2)
N2 N 0.3581(3) 0.5962(5) 0.9605(2)
N3 N 0.2236(4) 0.5943(6) 0.9752(3)
N4 N 0.0955(5) 0.5972(8) 0.9851(4)
O1 O 0.3861(3) 1.2621(4) 0.1159(2)
O2 O 0.4031(3) 0.9172(3) 0.1260(2)
Cu1A Cu 0.51196(5) 0.35651(10) 1.00995(3)
Cu1A_2 Cu 0.51196(5) 1.35651(10) 0.00995(3)
Cu1_2 Cu 0.48804(5) 0.85651(10) -0.00995(3)
N2A N 0.6419(3) 1.0962(5) 1.0395(2)
O1A O 0.6139(3) 0.7621(4) 0.8841(2)
O2_2 O 0.4031(3) 0.9172(3) 1.1260(2)
loop_
_geom_bond_atom_site_label_1
_geom_bond_atom_site_label_2
_geom_bond_site_symmetry_1
_geom_bond_site_symmetry_2
Cu1 N1 1_555 1_555
C1 C2 1_555 1_555
C2 C3 1_555 1_555
C3 H1 1_555 1_555
C4 C3 1_555 1_555
H2 C4 1_555 1_555
C5 C4 1_555 1_555
C6 C5 1_555 1_555
H3 C6 1_555 1_555
C7 C2 1_555 1_555
H4 C7 1_555 1_555
C8 C5 1_555 1_555
C9 C8 1_555 1_555
H5 C9 1_555 1_555
C10 C9 1_555 1_555
H6 C10 1_555 1_555
C11 C10 1_555 1_555
H7 C11 1_555 1_555
C12 C8 1_555 1_555
H8 C12 1_555 1_555
N1 C11 1_555 1_555
N2 Cu1 1_555 1_555
N3 N2 1_555 1_555
N4 N3 1_555 1_555
O1 C1 1_555 1_555
O2 C1 1_555 1_555
Cu1A N2 1_555 1_555
Cu1A_2 O1 1_555 1_555
Cu1_2 O2 1_555 1_555
N2A Cu1 1_555 1_555
O1A Cu1 1_555 1_555
O2_2 Cu1 1_555 1_555
C6 C7 1_555 1_555
C12 N1 1_555 1_555

#END
