
#######################################################################
#
#                 Cambridge Crystallographic Data Centre
#                                CCDC 
#
#######################################################################
#
# If this CIF has been generated from an entry in the Cambridge 
# Structural Database, then it will include bibliographic, chemical, 
# crystal, experimental, refinement or atomic coordinate data resulting 
# from the CCDC's data processing and validation procedures.
#
#######################################################################

data_ICAZIX
_symmetry_cell_setting           monoclinic
_symmetry_space_group_name_H-M   'C 2/c'
_symmetry_Int_Tables_number      15
_space_group_name_Hall           '-C 2yn'
loop_
_symmetry_equiv_pos_site_id
_symmetry_equiv_pos_as_xyz
1 x,y,z
2 -x,y,1/2-z
3 1/2+x,1/2+y,z
4 1/2-x,1/2+y,1/2-z
5 -x,-y,-z
6 x,-y,1/2+z
7 1/2-x,1/2-y,-z
8 1/2+x,1/2-y,1/2+z
_cell_length_a                   14.6109(6)
_cell_length_b                   18.7252(6)
_cell_length_c                   7.4017(3)
_cell_angle_alpha                90
_cell_angle_beta                 113.806(2)
_cell_angle_gamma                90
_cell_volume                     1852.75
loop_
_atom_site_label
_atom_site_type_symbol
_atom_site_fract_x
_atom_site_fract_y
_atom_site_fract_z
Au1 Au -0.2500 0.2500 -0.5000
Sn1 Sn 0.0000 0.31028(4) 0.2500
N1 N -0.1046(5) 0.3046(3) -0.0852(9)
C1 C -0.1566(5) 0.2863(4) -0.2381(11)
C2 C 0.1091(5) 0.3696(4) 0.1886(10)
C3 C 0.0775(5) 0.4138(4) 0.0243(10)
H1 H 0.0085 0.4158 -0.0610
C4 C 0.1459(6) 0.4551(4) -0.0172(11)
H2 H 0.1235 0.4855 -0.1295
C5 C 0.2470(6) 0.4516(4) 0.1066(12)
H3 H 0.2941 0.4795 0.0788
C6 C 0.2786(6) 0.4078(4) 0.2691(12)
H4 H 0.3478 0.4054 0.3530
C7 C 0.2104(5) 0.3670(4) 0.3122(11)
H5 H 0.2330 0.3372 0.4259
C8 C 0.0000 0.1961(6) 0.2500
C9 C 0.0557(6) 0.1582(4) 0.1683(11)
H6 H 0.0940 0.1833 0.1112
C10 C 0.0563(6) 0.0836(4) 0.1691(12)
H7 H 0.0954 0.0585 0.1141
C11 C 0.0000 0.0460(6) 0.2500
H8 H 0.0000 -0.0048 0.2500
Au1A Au 0.2500 0.2500 1.0000
N1A N 0.1046(5) 0.3046(3) 0.5852(9)
C1A C 0.1566(5) 0.2863(4) 0.7381(11)
C1F C -0.3434(5) 0.2137(4) -0.7619(11)
C2A C -0.1091(5) 0.3696(4) 0.3114(10)
C3A C -0.0775(5) 0.4138(4) 0.4757(10)
H1A H -0.0085 0.4158 0.5610
C4A C -0.1459(6) 0.4551(4) 0.5172(11)
H2A H -0.1235 0.4855 0.6295
C5A C -0.2470(6) 0.4516(4) 0.3934(12)
H3A H -0.2941 0.4795 0.4212
C6A C -0.2786(6) 0.4078(4) 0.2309(12)
H4A H -0.3478 0.4054 0.1470
C7A C -0.2104(5) 0.3670(4) 0.1878(11)
H5A H -0.2330 0.3372 0.0741
C9A C -0.0557(6) 0.1582(4) 0.3317(11)
H6A H -0.0940 0.1833 0.3888
C10A C -0.0563(6) 0.0836(4) 0.3309(12)
H7A H -0.0954 0.0585 0.3859
loop_
_geom_bond_atom_site_label_1
_geom_bond_atom_site_label_2
_geom_bond_site_symmetry_1
_geom_bond_site_symmetry_2
Au1 C1 1_555 1_555
Sn1 N1 1_555 1_555
N1 C1 1_555 1_555
C2 Sn1 1_555 1_555
C3 C2 1_555 1_555
H1 C3 1_555 1_555
C4 C3 1_555 1_555
H2 C4 1_555 1_555
C5 C4 1_555 1_555
H3 C5 1_555 1_555
C6 C5 1_555 1_555
H4 C6 1_555 1_555
C7 C2 1_555 1_555
H5 C7 1_555 1_555
C8 Sn1 1_555 1_555
C9 C8 1_555 1_555
H6 C9 1_555 1_555
C10 C9 1_555 1_555
H7 C10 1_555 1_555
C11 C10 1_555 1_555
H8 C11 1_555 1_555
Au1A C1A 1_555 1_555
N1A Sn1 1_555 1_555
C1A N1A 1_555 1_555
C1F Au1 1_555 1_555
C2A Sn1 1_555 1_555
C3A C2A 1_555 1_555
H1A C3A 1_555 1_555
C4A C3A 1_555 1_555
H2A C4A 1_555 1_555
C5A C4A 1_555 1_555
H3A C5A 1_555 1_555
C6A C5A 1_555 1_555
H4A C6A 1_555 1_555
C7A C2A 1_555 1_555
H5A C7A 1_555 1_555
C9A C8 1_555 1_555
H6A C9A 1_555 1_555
C10A C11 1_555 1_555
H7A C10A 1_555 1_555
C6 C7 1_555 1_555
C6A C7A 1_555 1_555
C9A C10A 1_555 1_555

#END
