
#######################################################################
#
#                 Cambridge Crystallographic Data Centre
#                                CCDC 
#
#######################################################################
#
# If this CIF has been generated from an entry in the Cambridge 
# Structural Database, then it will include bibliographic, chemical, 
# crystal, experimental, refinement or atomic coordinate data resulting 
# from the CCDC's data processing and validation procedures.
#
#######################################################################

data_ICECIE
_symmetry_cell_setting           monoclinic
_symmetry_space_group_name_H-M   'P 21/n'
_symmetry_Int_Tables_number      14
_space_group_name_Hall           '-P 2yn'
loop_
_symmetry_equiv_pos_site_id
_symmetry_equiv_pos_as_xyz
1 x,y,z
2 1/2-x,1/2+y,1/2-z
3 -x,-y,-z
4 1/2+x,1/2-y,1/2+z
_cell_length_a                   7.3754(15)
_cell_length_b                   14.095(3)
_cell_length_c                   7.9773(16)
_cell_angle_alpha                90
_cell_angle_beta                 97.03(3)
_cell_angle_gamma                90
_cell_volume                     823.056
loop_
_atom_site_label
_atom_site_type_symbol
_atom_site_fract_x
_atom_site_fract_y
_atom_site_fract_z
Co1 Co 0.16995(3) 0.426199(17) 0.51552(3)
C1 C -0.0610(3) 0.23829(14) 0.4582(3)
H1 H -0.0429 0.2326 0.5752
C2 C -0.1599(3) 0.16626(14) 0.3618(3)
C3 C -0.0271(3) 0.31953(14) 0.2171(3)
H2 H 0.0172 0.3715 0.1628
C4 C -0.1242(3) 0.25152(15) 0.1234(3)
H3 H -0.1438 0.2588 0.0067
N1 N 0.0062(2) 0.31314(12) 0.3874(2)
N2 N -0.1932(2) 0.17402(12) 0.1927(2)
N3 N -0.2192(4) 0.08951(16) 0.4416(3)
H4 H -0.2784 0.0453 0.3841
H5 H -0.1975 0.0849 0.5497
N4 N 0.0386(2) 0.53172(12) 0.3435(2)
N5 N 0.1403(3) 0.58022(14) 0.2752(3)
N6 N 0.2418(4) 0.6251(3) 0.2120(5)
N7 N 0.6626(3) 0.45985(15) 0.3662(3)
N8 N 0.3627(2) 0.40261(14) 0.3401(2)
N9 N 0.5133(2) 0.43305(11) 0.3562(2)
Co1C Co -0.33005(3) 0.073801(17) 0.01552(3)
Co1B Co -0.16995(3) 0.573801(17) 0.48448(3)
Co1B_2 Co 0.83005(3) 0.573801(17) 0.48448(3)
N2C N 0.3068(2) 0.32598(12) 0.6927(2)
N4B N -0.0386(2) 0.46828(12) 0.6565(2)
N7B N 0.3374(3) 0.54015(15) 0.6338(3)
loop_
_geom_bond_atom_site_label_1
_geom_bond_atom_site_label_2
_geom_bond_site_symmetry_1
_geom_bond_site_symmetry_2
Co1 N1 1_555 1_555
C1 H1 1_555 1_555
C2 C1 1_555 1_555
C3 H2 1_555 1_555
C4 C3 1_555 1_555
H3 C4 1_555 1_555
N1 C1 1_555 1_555
N2 C2 1_555 1_555
N3 C2 1_555 1_555
H4 N3 1_555 1_555
H5 N3 1_555 1_555
N4 Co1 1_555 1_555
N5 N4 1_555 1_555
N6 N5 1_555 1_555
N7 N9 1_555 1_555
N8 Co1 1_555 1_555
N9 N8 1_555 1_555
Co1C N2 1_555 1_555
Co1B N4 1_555 1_555
Co1B_2 N7 1_555 1_555
N2C Co1 1_555 1_555
N4B Co1 1_555 1_555
N7B Co1 1_555 1_555
C3 N1 1_555 1_555
C4 N2 1_555 1_555
Co1B N4B 1_555 1_555

#END
