
#######################################################################
#
#                 Cambridge Crystallographic Data Centre
#                                CCDC 
#
#######################################################################
#
# If this CIF has been generated from an entry in the Cambridge 
# Structural Database, then it will include bibliographic, chemical, 
# crystal, experimental, refinement or atomic coordinate data resulting 
# from the CCDC's data processing and validation procedures.
#
#######################################################################

data_ICEDUR
_symmetry_cell_setting           triclinic
_symmetry_space_group_name_H-M   'P -1'
_symmetry_Int_Tables_number      2
_space_group_name_Hall           '-P 1'
loop_
_symmetry_equiv_pos_site_id
_symmetry_equiv_pos_as_xyz
1 x,y,z
2 -x,-y,-z
_cell_length_a                   8.109(6)
_cell_length_b                   11.029(9)
_cell_length_c                   13.128(10)
_cell_angle_alpha                104.427(12)
_cell_angle_beta                 104.395(3)
_cell_angle_gamma                104.536(11)
_cell_volume                     1038.28
loop_
_atom_site_label
_atom_site_type_symbol
_atom_site_fract_x
_atom_site_fract_y
_atom_site_fract_z
Cd1 Cd 0.10319(3) 0.696570(18) 0.060387(16)
N1 N 0.3398(3) 0.7372(2) 0.2249(2)
H1 H -0.003(5) 0.862(3) -0.063(3)
H2 H -0.133(4) 0.753(3) -0.083(2)
H3 H -0.061(5) 0.704(4) 0.2174(18)
C1 C 0.3772(4) 0.6337(3) 0.2480(2)
C2 C 0.5187(5) 0.6494(3) 0.3412(3)
H4 H 0.5424 0.5744 0.3562
C3 C 0.6242(5) 0.7771(4) 0.4113(3)
H5 H 0.7232 0.7908 0.4746
C4 C 0.5843(5) 0.8849(3) 0.3887(3)
H6 H 0.6535 0.9729 0.4369
C5 C 0.4406(4) 0.8611(3) 0.2938(2)
C6 C 0.2584(4) 0.4971(3) 0.1665(2)
O1 O 0.2950(3) 0.4007(2) 0.1858(2)
O2 O 0.1321(3) 0.49237(19) 0.08420(17)
C7 C 0.3839(4) 0.9672(3) 0.2561(2)
O3 O 0.2532(3) 0.9345(2) 0.17007(17)
N2 N 0.4807(4) 1.0935(2) 0.3177(2)
H7 H 0.5679 1.1108 0.3801
C8 C 0.4450(5) 1.2041(3) 0.2837(3)
H8 H 0.4850 1.2839 0.3505
H9 H 0.3135 1.1809 0.2471
N3 N 0.7258(3) 1.2855(2) 0.0560(2)
C9 C 0.7899(4) 1.3617(3) 0.1637(3)
H10 H 0.8998 1.4339 0.1892
C10 C 0.7034(4) 1.3401(3) 0.2399(3)
H11 H 0.7533 1.3966 0.3155
C11 C 0.5431(4) 1.2348(3) 0.2040(2)
C12 C 0.4753(4) 1.1567(3) 0.0919(2)
H12 H 0.3648 1.0847 0.0640
C13 C 0.5697(4) 1.1846(3) 0.0217(2)
H13 H 0.5220 1.1299 -0.0544
O4 O -0.0508(3) 0.8144(2) -0.03001(18)
O5 O -0.1008(3) 0.6999(3) 0.1534(2)
C14 C -0.2928(5) 0.6537(4) 0.1077(3)
H14 H -0.3294 0.6495 0.0296
H15 H -0.3403 0.7147 0.1501
H16 H -0.3409 0.5649 0.1121
Cd1A Cd -0.10319(3) 0.303430(18) -0.060387(16)
Cd1A_2 Cd 0.89681(3) 1.303430(18) -0.060387(16)
O2A O -0.1321(3) 0.50763(19) -0.08420(17)
N3A N 0.2742(3) 0.7145(2) -0.0560(2)
N4 N 0.8965(5) 0.2409(4) 0.5754(3)
O6 O 0.8137(9) 0.2371(4) 0.4858(4)
O7 O 0.8793(7) 0.1377(4) 0.5992(3)
O8 O 1.0101(6) 0.3436(3) 0.6490(3)
C15 C 0.9173(5) 0.0403(4) 0.2412(3)
H17 H 1.0444 0.0544 0.2792
H18 H 0.8404 -0.0356 0.2527
H19 H 0.8887 0.1200 0.2717
O9 O 0.8860(3) 0.0143(2) 0.1244(2)
H20 H 0.9302 -0.0438 0.1010
C16 C 0.8163(9) 0.5762(7) 0.5744(5)
H21 H 0.9136 0.6076 0.5457
H22 H 0.8625 0.5459 0.6364
H23 H 0.7720 0.6489 0.6008
O10 O 0.6950(12) 0.4859(6) 0.5015(4)
H24 H 0.7017 0.4888 0.4392
loop_
_geom_bond_atom_site_label_1
_geom_bond_atom_site_label_2
_geom_bond_site_symmetry_1
_geom_bond_site_symmetry_2
Cd1 N1 1_555 1_555
N1 C1 1_555 1_555
H1 O4 1_555 1_555
H2 O4 1_555 1_555
H3 O5 1_555 1_555
C1 C2 1_555 1_555
C2 H4 1_555 1_555
C3 C2 1_555 1_555
H5 C3 1_555 1_555
C4 C3 1_555 1_555
H6 C4 1_555 1_555
C5 N1 1_555 1_555
C6 C1 1_555 1_555
O1 C6 1_555 1_555
O2 Cd1 1_555 1_555
C7 C5 1_555 1_555
O3 Cd1 1_555 1_555
N2 C7 1_555 1_555
H7 N2 1_555 1_555
C8 N2 1_555 1_555
H8 C8 1_555 1_555
H9 C8 1_555 1_555
N3 C9 1_555 1_555
C9 H10 1_555 1_555
C10 C9 1_555 1_555
H11 C10 1_555 1_555
C11 C8 1_555 1_555
C12 C11 1_555 1_555
H12 C12 1_555 1_555
C13 N3 1_555 1_555
H13 C13 1_555 1_555
O4 Cd1 1_555 1_555
O5 Cd1 1_555 1_555
C14 O5 1_555 1_555
H14 C14 1_555 1_555
H15 C14 1_555 1_555
H16 C14 1_555 1_555
N4 O6 1_555 1_555
O7 N4 1_555 1_555
O8 N4 1_555 1_555
C15 H17 1_555 1_555
H18 C15 1_555 1_555
H19 C15 1_555 1_555
O9 C15 1_555 1_555
H20 O9 1_555 1_555
C16 H21 1_555 1_555
H22 C16 1_555 1_555
H23 C16 1_555 1_555
O10 C16 1_555 1_555
H24 O10 1_555 1_555
Cd1A O2 1_555 1_555
Cd1A_2 N3 1_555 1_555
O2A Cd1 1_555 1_555
N3A Cd1 1_555 1_555
C4 C5 1_555 1_555
C6 O2 1_555 1_555
C7 O3 1_555 1_555
C10 C11 1_555 1_555
C12 C13 1_555 1_555
Cd1A O2A 1_555 1_555

#END
