
#######################################################################
#
#                 Cambridge Crystallographic Data Centre
#                                CCDC 
#
#######################################################################
#
# If this CIF has been generated from an entry in the Cambridge 
# Structural Database, then it will include bibliographic, chemical, 
# crystal, experimental, refinement or atomic coordinate data resulting 
# from the CCDC's data processing and validation procedures.
#
#######################################################################

data_ICEFED
_symmetry_cell_setting           monoclinic
_symmetry_space_group_name_H-M   'P 21/n'
_symmetry_Int_Tables_number      14
_space_group_name_Hall           '-P 2yn'
loop_
_symmetry_equiv_pos_site_id
_symmetry_equiv_pos_as_xyz
1 x,y,z
2 1/2-x,1/2+y,1/2-z
3 -x,-y,-z
4 1/2+x,1/2-y,1/2+z
_cell_length_a                   10.403(2)
_cell_length_b                   33.827(7)
_cell_length_c                   19.688(4)
_cell_angle_alpha                90
_cell_angle_beta                 92.82(3)
_cell_angle_gamma                90
_cell_volume                     6919.86
loop_
_atom_site_label
_atom_site_type_symbol
_atom_site_fract_x
_atom_site_fract_y
_atom_site_fract_z
Cd1 Cd 0.37807(4) 0.175096(12) 0.85574(2)
N1 N 0.4164(4) 0.12028(14) 0.7871(2)
N2 N 0.3073(5) 0.08060(14) 1.1438(2)
N3 N 0.2822(4) 0.28309(15) 1.0175(3)
N4 N 1.0338(6) 0.1381(2) 1.3167(3)
Cd2 Cd 0.33763(4) 0.083551(13) 1.02605(2)
C1 C 0.4170(5) 0.08441(17) 0.8150(3)
C2 C 0.3158(5) 0.11403(19) 1.1792(3)
C3 C 0.2856(6) 0.28390(18) 0.9499(4)
C4 C 1.0713(8) 0.1573(3) 1.3734(4)
Cd3 Cd 0.31881(4) 0.223098(13) 1.07318(3)
C5 C 0.4368(6) 0.0509(2) 0.7768(3)
H1 H 0.4365 0.0254 0.7972
C6 C 0.3159(6) 0.1142(2) 1.2500(3)
H2 H 0.3239 0.1383 1.2745
C7 C 0.2623(7) 0.3180(2) 0.9121(4)
H3 H 0.2663 0.3182 0.8640
C8 C 1.1110(9) 0.1975(3) 1.3731(5)
H4 H 1.1361 0.2108 1.4141
C9 C 0.4572(8) 0.0551(2) 0.7082(4)
H5 H 0.4715 0.0325 0.6809
C10 C 0.3044(8) 0.0792(2) 1.2833(4)
H6 H 0.3027 0.0788 1.3314
C11 C 0.2332(9) 0.3517(2) 0.9478(5)
H7 H 0.2155 0.3756 0.9238
C12 C 1.1119(10) 0.2163(3) 1.3118(6)
H8 H 1.1382 0.2432 1.3097
C13 C 0.4566(7) 0.0928(2) 0.6796(3)
H9 H 0.4707 0.0964 0.6327
C14 C 0.2953(8) 0.0442(2) 1.2466(3)
H10 H 0.2878 0.0195 1.2691
C15 C 0.2294(8) 0.3512(2) 1.0178(5)
H11 H 0.2097 0.3745 1.0422
C16 C 1.0758(9) 0.1971(3) 1.2546(5)
H12 H 1.0768 0.2099 1.2117
C17 C 0.4350(5) 0.12452(18) 0.7211(3)
C18 C 0.2973(6) 0.04604(19) 1.1756(3)
C19 C 0.2547(6) 0.31614(19) 1.0518(4)
C20 C 1.0377(6) 0.1587(3) 1.2595(4)
C21 C 0.3915(5) 0.08350(18) 0.8898(3)
C22 C 0.3240(5) 0.15097(19) 1.1376(3)
C23 C 0.3172(6) 0.24520(19) 0.9167(4)
C24 C 1.0654(11) 0.1338(4) 1.4353(6)
O1 O 0.3659(4) 0.11547(12) 0.9188(2)
O2 O 0.3285(4) 0.14807(13) 1.0739(2)
O3 O 0.3291(4) 0.21494(13) 0.9545(2)
O4 O 1.0527(12) 0.0987(4) 1.4375(5)
O5 O 0.3952(4) 0.05059(13) 0.9197(2)
O6 O 0.3248(5) 0.18320(14) 1.1685(3)
O7 O 0.3279(4) 0.24425(14) 0.8540(3)
O8 O 1.0785(7) 0.1556(3) 1.4918(3)
C25 C 1.0780(14) 0.1333(7) 1.5547(7)
H13 H 1.0028 0.1158 1.5537
H14 H 1.0742 0.1516 1.5931
H15 H 1.1567 0.1174 1.5597
C26 C 0.4313(5) 0.1678(2) 0.7003(3)
C27 C 0.2900(6) 0.01113(18) 1.1285(3)
C28 C 0.2601(5) 0.31039(19) 1.1274(4)
C29 C 1.0029(7) 0.1337(4) 1.1943(4)
O9 O 0.4348(5) 0.19384(14) 0.7446(2)
O10 O 0.3103(4) 0.01565(13) 1.0675(2)
O11 O 0.2694(5) 0.27664(14) 1.1517(3)
O12 O 1.0207(6) 0.1480(2) 1.1376(4)
N5 N 0.4252(5) 0.17684(17) 0.6345(3)
H16 H 0.4218 0.1579 0.6038
N6 N 0.2602(5) -0.02334(16) 1.1548(3)
H17 H 0.2476 -0.0249 1.1986
N7 N 0.2553(5) 0.34234(17) 1.1662(3)
H18 H 0.2475 0.3658 1.1471
N8 N 0.9616(7) 0.0985(3) 1.2040(5)
H19 H 0.9495 0.0909 1.2459
C30 C 0.4243(6) 0.2182(2) 0.6131(3)
H20 H 0.4645 0.2204 0.5688
H21 H 0.4766 0.2340 0.6467
C31 C 0.2477(6) -0.0591(2) 1.1132(4)
H22 H 0.2690 -0.0823 1.1421
H23 H 0.3108 -0.0579 1.0772
C32 C 0.2628(6) 0.3390(2) 1.2400(4)
H24 H 0.2148 0.3153 1.2537
H25 H 0.2219 0.3625 1.2599
C33 C 0.9333(9) 0.0702(3) 1.1475(7)
H26 H 0.9453 0.0430 1.1653
H27 H 0.9965 0.0743 1.1122
N9 N 0.0374(5) 0.26404(16) 0.5909(3)
N10 N -0.1298(5) -0.07596(17) 1.0171(3)
N11 N 0.6572(5) 0.33082(16) 1.3178(3)
N12 N 0.5538(5) 0.08072(17) 1.0552(3)
C34 C 0.0958(10) 0.2597(4) 0.6507(5)
H28 H 0.0502 0.2667 0.6895
C35 C -0.0454(10) -0.1053(3) 1.0238(7)
H29 H -0.0688 -0.1306 1.0060
C36 C 0.5761(9) 0.2998(3) 1.3147(6)
H30 H 0.6082 0.2750 1.3306
C37 C 0.6231(7) 0.1128(3) 1.0626(6)
H31 H 0.5888 0.1375 1.0471
C38 C 0.2199(10) 0.2455(4) 0.6610(5)
H32 H 0.2566 0.2428 0.7060
C39 C 0.0752(9) -0.1007(3) 1.0556(6)
H33 H 0.1313 -0.1228 1.0605
C40 C 0.4478(8) 0.3015(3) 1.2898(6)
H34 H 0.3954 0.2785 1.2888
C41 C 0.7474(9) 0.1112(4) 1.0931(8)
H35 H 0.7974 0.1345 1.0996
C42 C 0.2899(6) 0.2352(2) 0.6067(3)
C43 C 0.1142(6) -0.0645(2) 1.0802(3)
C44 C 0.4008(6) 0.3361(2) 1.2675(4)
C45 C 0.7969(8) 0.0737(3) 1.1142(5)
C46 C 0.2322(7) 0.2438(3) 0.5445(4)
H36 H 0.2784 0.2402 0.5045
C47 C 0.0267(7) -0.0348(2) 1.0724(5)
H37 H 0.0481 -0.0090 1.0887
C48 C 0.4778(8) 0.3680(3) 1.2729(8)
H38 H 0.4467 0.3932 1.2587
C49 C 0.7269(7) 0.0418(3) 1.1038(4)
H39 H 0.7600 0.0165 1.1166
C50 C 0.1082(7) 0.2577(3) 0.5395(4)
H40 H 0.0715 0.2631 0.4953
C51 C -0.0929(6) -0.0416(2) 1.0410(5)
H41 H -0.1515 -0.0201 1.0366
C52 C 0.6034(9) 0.3637(3) 1.2996(8)
H42 H 0.6537 0.3870 1.3048
C53 C 0.6067(7) 0.0453(3) 1.0744(4)
H43 H 0.5570 0.0220 1.0668
N13 N 0.6621(5) 0.17722(19) 0.9041(4)
O13 O 0.5768(5) 0.20091(18) 0.8900(3)
O14 O 0.6411(7) 0.1428(2) 0.8899(5)
O15 O 0.7647(6) 0.1878(2) 0.9290(5)
O22 O 0.1024(5) 0.20968(16) 1.0642(4)
H44 H 0.0701 0.1909 1.0854
C54 C 0.0341(15) 0.2120(5) 0.9958(8)
H45 H 0.0306 0.2395 0.9806
H46 H -0.0536 0.2017 0.9987
H47 H 0.0804 0.1961 0.9633
Cd1C Cd 0.87807(4) 0.324904(12) 1.35574(2)
Cd2B Cd -0.33763(4) -0.083551(13) 0.97395(2)
Cd3C Cd -0.18119(4) 0.276902(13) 0.57318(3)
N9C N 0.5374(5) 0.23596(16) 1.0909(3)
N10B N 0.1298(5) 0.07596(17) 0.9829(3)
N11C N 0.1572(5) 0.16918(16) 0.8178(3)
N14 N 0.7590(10) 0.0527(3) 0.6577(5)
O16 O 0.7667(7) 0.0617(2) 0.7176(4)
O17 O 0.7765(10) 0.07805(19) 0.6166(4)
O18 O 0.7231(13) 0.0189(3) 0.6386(5)
N15 N -0.0878(11) 0.3596(5) 0.9705(7)
O19 O -0.0937(9) 0.3777(3) 1.0230(3)
O20 O -0.0887(16) 0.3700(5) 0.9099(5)
O21 O -0.0748(12) 0.3168(6) 0.9605(8)
O23 O 0.937(3) 0.0506(8) 1.3283(13)
N16? N -0.061(2) 0.3288(8) 0.8904(9)
O24? O -0.0279(15) 0.3039(5) 0.8333(9)
O25? O -0.0748(12) 0.3168(6) 0.9605(8)
O26? O -0.0887(16) 0.3700(5) 0.9099(5)
loop_
_geom_bond_atom_site_label_1
_geom_bond_atom_site_label_2
_geom_bond_site_symmetry_1
_geom_bond_site_symmetry_2
Cd1 N1 1_555 1_555
N1 C1 1_555 1_555
N2 Cd2 1_555 1_555
N3 C3 1_555 1_555
N4 C4 1_555 1_555
Cd2 O1 1_555 1_555
C1 C5 1_555 1_555
C2 N2 1_555 1_555
C3 C7 1_555 1_555
C4 C8 1_555 1_555
Cd3 N3 1_555 1_555
C5 H1 1_555 1_555
C6 C2 1_555 1_555
H2 C6 1_555 1_555
C7 H3 1_555 1_555
C8 H4 1_555 1_555
C9 C5 1_555 1_555
H5 C9 1_555 1_555
C10 C6 1_555 1_555
H6 C10 1_555 1_555
C11 C7 1_555 1_555
H7 C11 1_555 1_555
C12 C8 1_555 1_555
H8 C12 1_555 1_555
C13 C9 1_555 1_555
H9 C13 1_555 1_555
C14 C10 1_555 1_555
H10 C14 1_555 1_555
C15 C11 1_555 1_555
H11 C15 1_555 1_555
C16 C12 1_555 1_555
H12 C16 1_555 1_555
C17 N1 1_555 1_555
C18 N2 1_555 1_555
C19 N3 1_555 1_555
C20 N4 1_555 1_555
C21 C1 1_555 1_555
C22 C2 1_555 1_555
C23 C3 1_555 1_555
C24 C4 1_555 1_555
O1 Cd1 1_555 1_555
O2 Cd2 1_555 1_555
O3 Cd1 1_555 1_555
O4 C24 1_555 1_555
O5 Cd2 1_555 1_555
O6 Cd3 1_555 1_555
O7 Cd1 1_555 1_555
O8 C24 1_555 1_555
C25 O8 1_555 1_555
H13 C25 1_555 1_555
H14 C25 1_555 1_555
H15 C25 1_555 1_555
C26 C17 1_555 1_555
C27 C18 1_555 1_555
C28 C19 1_555 1_555
C29 C20 1_555 1_555
O9 Cd1 1_555 1_555
O10 Cd2 1_555 1_555
O11 Cd3 1_555 1_555
O12 C29 1_555 1_555
N5 C26 1_555 1_555
H16 N5 1_555 1_555
N6 C27 1_555 1_555
H17 N6 1_555 1_555
N7 C28 1_555 1_555
H18 N7 1_555 1_555
N8 C29 1_555 1_555
H19 N8 1_555 1_555
C30 N5 1_555 1_555
H20 C30 1_555 1_555
H21 C30 1_555 1_555
C31 N6 1_555 1_555
H22 C31 1_555 1_555
H23 C31 1_555 1_555
C32 N7 1_555 1_555
H24 C32 1_555 1_555
H25 C32 1_555 1_555
C33 N8 1_555 1_555
H26 C33 1_555 1_555
H27 C33 1_555 1_555
N9 C34 1_555 1_555
N10 C35 1_555 1_555
N11 C36 1_555 1_555
N12 Cd2 1_555 1_555
C34 H28 1_555 1_555
C35 H29 1_555 1_555
C36 H30 1_555 1_555
C37 N12 1_555 1_555
H31 C37 1_555 1_555
C38 C34 1_555 1_555
H32 C38 1_555 1_555
C39 C35 1_555 1_555
H33 C39 1_555 1_555
C40 C36 1_555 1_555
H34 C40 1_555 1_555
C41 C37 1_555 1_555
H35 C41 1_555 1_555
C42 C30 1_555 1_555
C43 C31 1_555 1_555
C44 C32 1_555 1_555
C45 C33 1_555 1_555
C46 C42 1_555 1_555
H36 C46 1_555 1_555
C47 C43 1_555 1_555
H37 C47 1_555 1_555
C48 C44 1_555 1_555
H38 C48 1_555 1_555
C49 C45 1_555 1_555
H39 C49 1_555 1_555
C50 N9 1_555 1_555
H40 C50 1_555 1_555
C51 N10 1_555 1_555
H41 C51 1_555 1_555
C52 N11 1_555 1_555
H42 C52 1_555 1_555
C53 N12 1_555 1_555
H43 C53 1_555 1_555
N13 O13 1_555 1_555
O13 Cd1 1_555 1_555
O14 N13 1_555 1_555
O15 N13 1_555 1_555
N14 O16 1_555 1_555
O17 N14 1_555 1_555
O18 N14 1_555 1_555
N15 O19 1_555 1_555
O20 N15 1_555 1_555
O21 N15 1_555 1_555
O22 Cd3 1_555 1_555
H44 O22 1_555 1_555
C54 O22 1_555 1_555
H45 C54 1_555 1_555
H46 C54 1_555 1_555
H47 C54 1_555 1_555
Cd1C N11 1_555 1_555
Cd2B N10 1_555 1_555
Cd3C N9 1_555 1_555
N9C Cd3 1_555 1_555
N10B Cd2 1_555 1_555
N11C Cd1 1_555 1_555
Cd3 O2 1_555 1_555
Cd3 O3 1_555 1_555
C13 C17 1_555 1_555
C14 C18 1_555 1_555
C15 C19 1_555 1_555
C16 C20 1_555 1_555
C21 O1 1_555 1_555
C21 O5 1_555 1_555
C22 O2 1_555 1_555
C22 O6 1_555 1_555
C23 O3 1_555 1_555
C23 O7 1_555 1_555
C26 O9 1_555 1_555
C27 O10 1_555 1_555
C28 O11 1_555 1_555
C38 C42 1_555 1_555
C39 C43 1_555 1_555
C40 C44 1_555 1_555
C41 C45 1_555 1_555
C46 C50 1_555 1_555
C47 C51 1_555 1_555
C48 C52 1_555 1_555
C49 C53 1_555 1_555

#END
