
#######################################################################
#
#                 Cambridge Crystallographic Data Centre
#                                CCDC 
#
#######################################################################
#
# If this CIF has been generated from an entry in the Cambridge 
# Structural Database, then it will include bibliographic, chemical, 
# crystal, experimental, refinement or atomic coordinate data resulting 
# from the CCDC's data processing and validation procedures.
#
#######################################################################

data_ICEKEI
_symmetry_cell_setting           triclinic
_symmetry_space_group_name_H-M   'P -1'
_symmetry_Int_Tables_number      2
_space_group_name_Hall           '-P 1'
loop_
_symmetry_equiv_pos_site_id
_symmetry_equiv_pos_as_xyz
1 x,y,z
2 -x,-y,-z
_cell_length_a                   11.2551(7)
_cell_length_b                   14.2713(9)
_cell_length_c                   17.7941(11)
_cell_angle_alpha                82.502(5)
_cell_angle_beta                 89.949(5)
_cell_angle_gamma                78.471(6)
_cell_volume                     2775.63
loop_
_atom_site_label
_atom_site_type_symbol
_atom_site_fract_x
_atom_site_fract_y
_atom_site_fract_z
S1 S -0.89497(18) 0.77636(15) 0.26616(12)
O1 O -0.8801(4) 1.0459(3) 0.1438(3)
O2 O -0.6076(4) 0.9559(4) 0.3560(3)
C1 C -0.3725(7) 0.7627(6) 0.5800(4)
H1 H -0.3443 0.7209 0.6236
C2 C -1.0285(8) 1.5173(7) 0.2234(6)
H2 H -1.0881 1.5721 0.2265
C3 C -0.7846(8) 0.7273(5) 0.3386(4)
C4 C -0.9208(9) 1.5232(7) 0.1834(6)
H3 H -0.9106 1.5824 0.1585
C5 C -0.5775(9) 0.5697(8) 0.2406(6)
H4 H -0.6499 0.5740 0.2140
C6 C -1.0419(8) 1.4298(8) 0.2569(6)
H5 H -1.1143 1.4246 0.2809
C7 C -1.3173(13) 1.5438(8) 0.0225(7)
H6 H -1.3469 1.6019 -0.0081
C8 C -0.7944(13) 0.4597(8) 0.4758(7)
H7 H -0.7955 0.4027 0.5074
C9 C -0.4711(8) 0.7501(6) 0.5407(5)
H8 H -0.5090 0.6993 0.5577
O3 O -1.0798(5) 1.2327(4) 0.1468(3)
C10 C -0.8907(12) 0.5004(7) 0.4251(7)
H9 H -0.9555 0.4694 0.4221
C11 C -0.3591(6) 1.1851(5) 0.0260(4)
H10 H -0.4317 1.1919 0.0517
O4 O -0.4225(5) 0.8095(4) 0.2501(3)
O5 O -0.7131(4) 0.7670(4) 0.3510(4)
Cd1 Cd -0.55865(4) 1.09367(3) 0.22452(3)
Cd2 Cd -0.26146(4) 0.90214(3) 0.27601(3)
Cd3 Cd -0.76967(4) 0.90974(3) 0.27078(3)
Cd4 Cd -1.06717(4) 1.09431(4) 0.22968(3)
S2 S -1.25903(17) 1.22665(15) 0.23317(12)
S3 S -0.61547(18) 1.26856(15) 0.17471(14)
S4 S 0.08279(13) 1.03511(11) 0.33742(9)
S5 S -0.14786(13) 0.96541(12) 0.16536(9)
S6 S -0.41358(13) 1.03028(11) 0.33516(9)
S7 S -0.64963(13) 0.96891(11) 0.16305(9)
S8 S -0.23142(18) 0.72790(15) 0.32713(14)
O6 O -0.7675(4) 1.1894(4) 0.2505(3)
C12 C -0.7507(5) 1.2554(6) 0.2224(4)
O7 O -0.3790(4) 1.0393(3) 0.1452(3)
C13 C -0.3738(6) 0.7421(5) 0.2788(4)
C14 C -1.1669(8) 1.2749(5) 0.1627(4)
O8 O -0.1090(4) 0.9579(4) 0.3557(3)
C15 C -0.8293(8) 1.4409(6) 0.1808(5)
H11 H -0.7597 1.4452 0.1535
C16 C -0.7808(5) 1.0477(4) 0.1184(3)
C17 C -0.5063(5) 0.9522(4) 0.3811(3)
C18 C -0.0077(5) 0.9551(4) 0.3813(3)
C19 C -0.2792(5) 1.0436(4) 0.1203(3)
C20 C -0.1556(6) 1.1012(5) 0.0123(4)
H12 H -0.0901 1.0521 0.0292
C21 C -0.3612(8) 0.5565(6) 0.3195(6)
H13 H -0.2892 0.5509 0.3469
C22 C -0.9519(7) 1.3463(7) 0.2573(5)
H14 H -0.9635 1.2875 0.2823
C23 C -0.7956(7) 0.6330(5) 0.3845(4)
C24 C -0.6572(6) 1.1032(5) 0.0093(4)
H15 H -0.5921 1.0539 0.0267
C25 C -0.2622(5) 1.1106(5) 0.0516(3)
C26 C -0.8465(7) 1.2516(6) -0.0421(5)
H16 H -0.9106 1.3017 -0.0595
C27 C -0.0168(6) 0.8130(5) 0.4755(4)
H17 H -0.0865 0.8069 0.4501
C28 C 0.0430(5) 0.8874(4) 0.4498(3)
C29 C 0.1454(6) 0.8971(5) 0.4888(4)
H18 H 0.1856 0.9466 0.4720
C30 C -0.3559(6) 0.8986(5) 0.4905(4)
H19 H -0.3164 0.9484 0.4735
C31 C -0.7644(5) 1.1146(4) 0.0492(3)
C32 C -1.2299(7) 1.3684(5) 0.1131(4)
C33 C -1.3504(8) 1.4148(7) 0.1208(6)
H20 H -1.4005 1.3895 0.1561
C34 C -0.5287(7) 0.6526(6) 0.2421(5)
H21 H -0.5693 0.7116 0.2171
C35 C -0.4183(6) 0.6466(5) 0.2814(4)
C36 C 0.1878(6) 0.8327(6) 0.5531(4)
H22 H 0.2560 0.8395 0.5796
C37 C 0.0271(8) 0.7487(6) 0.5383(5)
H23 H -0.0116 0.6982 0.5546
C38 C -0.3473(8) 1.2484(6) -0.0371(5)
H24 H -0.4116 1.2991 -0.0531
C39 C -0.8437(6) 1.3529(5) 0.2194(4)
C40 C 0.1295(7) 0.7590(6) 0.5775(4)
H25 H 0.1584 0.7159 0.6204
C41 C -0.8907(9) 0.5879(6) 0.3784(6)
H26 H -0.9544 0.6146 0.3440
C42 C -0.4563(5) 0.8868(5) 0.4503(4)
C43 C -0.4115(9) 0.4759(7) 0.3166(6)
H27 H -0.3720 0.4162 0.3410
C44 C -0.6468(6) 1.1654(6) -0.0568(4)
H28 H -0.5757 1.1568 -0.0840
C45 C -0.2423(7) 1.2381(6) -0.0770(4)
H29 H -0.2362 1.2804 -0.1205
C46 C -1.1545(9) 1.4112(7) 0.0650(5)
H30 H -1.0731 1.3821 0.0629
C47 C -0.3145(6) 0.8372(6) 0.5552(4)
H31 H -0.2476 0.8457 0.5822
C48 C -0.7421(7) 1.2391(6) -0.0812(4)
H32 H -0.7352 1.2809 -0.1249
C49 C -1.2001(12) 1.4986(8) 0.0191(7)
H33 H -1.1490 1.5260 -0.0143
C50 C -0.5147(6) 0.8114(6) 0.4767(4)
H34 H -0.5828 0.8031 0.4509
C51 C -0.1458(6) 1.1647(6) -0.0522(4)
H35 H -0.0741 1.1578 -0.0788
C52 C -0.8584(6) 1.1901(5) 0.0235(4)
H36 H -0.9299 1.1998 0.0502
C53 C -0.6973(9) 0.5906(7) 0.4333(5)
H37 H -0.6311 0.6201 0.4355
C54 C -0.6987(11) 0.5041(8) 0.4786(7)
H38 H -0.6333 0.4762 0.5114
C55 C -1.3924(12) 1.5019(8) 0.0724(7)
H39 H -1.4734 1.5323 0.0740
C56 C -0.5203(9) 0.4839(8) 0.2774(6)
H40 H -0.5541 0.4297 0.2765
Cd3_2 Cd 0.23033(4) 0.90974(3) 0.27078(3)
Cd4_2 Cd -0.06717(4) 1.09431(4) 0.22968(3)
S4_2 S -0.91721(13) 1.03511(11) 0.33742(9)
S5_2 S -1.14786(13) 0.96541(12) 0.16536(9)
loop_
_geom_bond_atom_site_label_1
_geom_bond_atom_site_label_2
_geom_bond_site_symmetry_1
_geom_bond_site_symmetry_2
S1 C3 1_555 1_555
O1 Cd4 1_555 1_555
O2 Cd3 1_555 1_555
C1 H1 1_555 1_555
C2 H2 1_555 1_555
C3 O5 1_555 1_555
C4 C2 1_555 1_555
H3 C4 1_555 1_555
C5 H4 1_555 1_555
C6 C2 1_555 1_555
H5 C6 1_555 1_555
C7 H6 1_555 1_555
C8 H7 1_555 1_555
C9 C1 1_555 1_555
H8 C9 1_555 1_555
O3 Cd4 1_555 1_555
C10 C8 1_555 1_555
H9 C10 1_555 1_555
C11 H10 1_555 1_555
O4 Cd2 1_555 1_555
O5 Cd3 1_555 1_555
Cd1 S3 1_555 1_555
Cd2 S5 1_555 1_555
Cd3 S1 1_555 1_555
Cd4 S2 1_555 1_555
S2 C14 1_555 1_555
S3 C12 1_555 1_555
S4 C18 1_555 1_555
S5 C19 1_555 1_555
S6 Cd1 1_555 1_555
S7 Cd1 1_555 1_555
S8 Cd2 1_555 1_555
O6 Cd1 1_555 1_555
C12 O6 1_555 1_555
O7 Cd1 1_555 1_555
C13 O4 1_555 1_555
C14 O3 1_555 1_555
O8 Cd2 1_555 1_555
C15 C4 1_555 1_555
H11 C15 1_555 1_555
C16 O1 1_555 1_555
C17 O2 1_555 1_555
C18 O8 1_555 1_555
C19 O7 1_555 1_555
C20 H12 1_555 1_555
C21 H13 1_555 1_555
C22 C6 1_555 1_555
H14 C22 1_555 1_555
C23 C3 1_555 1_555
C24 H15 1_555 1_555
C25 C11 1_555 1_555
C26 H16 1_555 1_555
C27 H17 1_555 1_555
C28 C18 1_555 1_555
C29 C28 1_555 1_555
H18 C29 1_555 1_555
C30 H19 1_555 1_555
C31 C16 1_555 1_555
C32 C14 1_555 1_555
C33 C32 1_555 1_555
H20 C33 1_555 1_555
C34 C5 1_555 1_555
H21 C34 1_555 1_555
C35 C13 1_555 1_555
C36 C29 1_555 1_555
H22 C36 1_555 1_555
C37 C27 1_555 1_555
H23 C37 1_555 1_555
C38 C11 1_555 1_555
H24 C38 1_555 1_555
C39 C12 1_555 1_555
C40 C36 1_555 1_555
H25 C40 1_555 1_555
C41 C10 1_555 1_555
H26 C41 1_555 1_555
C42 C17 1_555 1_555
C43 C21 1_555 1_555
H27 C43 1_555 1_555
C44 C24 1_555 1_555
H28 C44 1_555 1_555
C45 C38 1_555 1_555
H29 C45 1_555 1_555
C46 C32 1_555 1_555
H30 C46 1_555 1_555
C47 C1 1_555 1_555
H31 C47 1_555 1_555
C48 C26 1_555 1_555
H32 C48 1_555 1_555
C49 C7 1_555 1_555
H33 C49 1_555 1_555
C50 C9 1_555 1_555
H34 C50 1_555 1_555
C51 C20 1_555 1_555
H35 C51 1_555 1_555
C52 C26 1_555 1_555
H36 C52 1_555 1_555
C53 C23 1_555 1_555
H37 C53 1_555 1_555
C54 C8 1_555 1_555
H38 C54 1_555 1_555
C55 C7 1_555 1_555
H39 C55 1_555 1_555
C56 C5 1_555 1_555
H40 C56 1_555 1_555
Cd3_2 S4 1_555 1_555
Cd4_2 S4 1_555 1_555
S4_2 Cd3 1_555 1_555
S5_2 Cd4 1_555 1_555
Cd2 S6 1_555 1_555
Cd3 S7 1_555 1_555
Cd4 S4_2 1_555 1_555
S5 Cd4_2 1_555 1_555
S6 C17 1_555 1_555
S7 C16 1_555 1_555
S8 C13 1_555 1_555
C15 C39 1_555 1_555
C19 C25 1_555 1_555
C20 C25 1_555 1_555
C21 C35 1_555 1_555
C22 C39 1_555 1_555
C23 C41 1_555 1_555
C24 C31 1_555 1_555
C27 C28 1_555 1_555
C30 C42 1_555 1_555
C30 C47 1_555 1_555
C31 C52 1_555 1_555
C33 C55 1_555 1_555
C34 C35 1_555 1_555
C37 C40 1_555 1_555
C42 C50 1_555 1_555
C43 C56 1_555 1_555
C44 C48 1_555 1_555
C45 C51 1_555 1_555
C46 C49 1_555 1_555
C53 C54 1_555 1_555

#END
