
#######################################################################
#
#                 Cambridge Crystallographic Data Centre
#                                CCDC 
#
#######################################################################
#
# If this CIF has been generated from an entry in the Cambridge 
# Structural Database, then it will include bibliographic, chemical, 
# crystal, experimental, refinement or atomic coordinate data resulting 
# from the CCDC's data processing and validation procedures.
#
#######################################################################

data_ICENAH
_symmetry_cell_setting           triclinic
_symmetry_space_group_name_H-M   'P -1'
_symmetry_Int_Tables_number      2
_space_group_name_Hall           '-P 1'
loop_
_symmetry_equiv_pos_site_id
_symmetry_equiv_pos_as_xyz
1 x,y,z
2 -x,-y,-z
_cell_length_a                   9.715(4)
_cell_length_b                   14.019(6)
_cell_length_c                   14.111(6)
_cell_angle_alpha                118.129(5)
_cell_angle_beta                 104.359(2)
_cell_angle_gamma                90.149(4)
_cell_volume                     1625.76
loop_
_atom_site_label
_atom_site_type_symbol
_atom_site_fract_x
_atom_site_fract_y
_atom_site_fract_z
Sm1 Sm 0.751333(15) -0.002835(10) 0.001745(11)
O1 O 0.6177(2) 0.08825(18) -0.0941(2)
O2 O 0.8850(2) 0.18300(17) 0.08166(19)
O3 O 0.5748(2) -0.15297(18) -0.15961(18)
O4 O 0.4084(3) 0.04724(18) -0.07749(19)
O5 O 0.9196(2) 0.0312(2) 0.17587(18)
O6 O 0.8514(2) -0.17482(18) -0.0357(2)
O7 O 1.1170(2) 0.02693(19) 0.12249(18)
O8 O 0.7062(2) 0.17887(18) 0.14961(19)
C1 C 0.4878(3) 0.0983(2) -0.1015(2)
C2 C 1.0536(3) 0.0355(2) 0.1937(2)
C3 C 0.4245(3) 0.1758(2) -0.1404(3)
C4 C 1.1419(3) 0.0538(3) 0.3060(3)
C5 C 0.8435(3) 0.3523(2) 0.2207(3)
C6 C 0.8081(3) 0.2312(2) 0.1464(3)
C7 C 1.2905(4) 0.0756(3) 0.3357(3)
H1 H 1.3348 0.0732 0.2834
C8 C 0.7774(4) 0.4066(3) 0.3051(3)
H2 H 0.7054 0.3681 0.3116
C9 C 0.8178(4) 0.5176(3) 0.3797(3)
C10 C 1.3744(4) 0.1010(3) 0.4426(3)
C11 C 0.5131(4) 0.2609(3) -0.1275(3)
H3 H 0.6119 0.2661 -0.1002
C12 C 0.2782(4) 0.1651(3) -0.1833(3)
H4 H 0.2186 0.1083 -0.1910
C13 C 0.4572(4) 0.3390(3) -0.1546(3)
C14 C 0.5513(4) 0.4349(3) -0.1335(3)
N1 N 0.6261(4) 0.6863(3) 0.6464(3)
C15 C 1.5333(4) 0.1328(3) 0.4761(3)
C16 C 0.7489(4) 0.5762(3) 0.4715(3)
C17 C 0.9466(4) 0.4108(3) 0.2088(3)
H5 H 0.9885 0.3758 0.1509
C18 C 1.3055(4) 0.0999(4) 0.5176(3)
H6 H 1.3595 0.1156 0.5889
N2 N 0.7269(5) 0.6206(3) -0.0901(3)
C19 C 0.9253(4) 0.5747(3) 0.3691(3)
H7 H 0.9552 0.6485 0.4200
C20 C 0.9876(5) 0.5217(3) 0.2832(3)
H8 H 1.0574 0.5605 0.2750
C21 C 0.3094(5) 0.3251(3) -0.2000(4)
H9 H 0.2696 0.3749 -0.2211
C22 C 0.6028(5) 0.5766(3) 0.4513(3)
H10 H 0.5430 0.5391 0.3783
C23 C 1.0758(4) 0.0540(4) 0.3823(3)
H11 H 0.9763 0.0396 0.3631
C24 C 1.1583(5) 0.0760(5) 0.4877(3)
H12 H 1.1141 0.0745 0.5385
C25 C 1.6055(4) 0.1241(4) 0.3997(4)
H13 H 1.5554 0.0938 0.3243
C26 C 0.6990(5) 0.4430(3) -0.1064(5)
H14 H 0.7445 0.3869 -0.1008
C27 C 0.2203(4) 0.2395(4) -0.2148(4)
H15 H 0.1218 0.2318 -0.2457
C28 C 0.5846(6) 0.6121(3) -0.1185(4)
H16 H 0.5428 0.6688 -0.1258
C29 C 0.4949(5) 0.5240(3) -0.1381(4)
H17 H 0.3961 0.5246 -0.1544
C30 C 0.7657(6) 0.6870(4) 0.6641(4)
H18 H 0.8234 0.7249 0.7377
N3 N 1.8315(4) 0.2014(4) 0.5400(4)
C31 C 0.8318(5) 0.6351(4) 0.5806(3)
H19 H 0.9313 0.6400 0.5980
C32 C 1.7643(5) 0.2068(5) 0.6116(4)
H20 H 1.8184 0.2337 0.6856
C33 C 0.5449(5) 0.6327(3) 0.5396(4)
H21 H 0.4462 0.6331 0.5244
C34 C 1.6173(5) 0.1751(4) 0.5853(4)
H22 H 1.5764 0.1824 0.6410
C35 C 1.7510(5) 0.1599(4) 0.4341(4)
H23 H 1.7950 0.1548 0.3807
C36 C 0.7785(4) 0.5349(3) -0.0876(3)
H24 H 0.8776 0.5365 -0.0717
H25 H 0.4861 -0.1616 -0.1642
H26 H 0.5864 -0.2079 -0.2196
H27 H 0.9379 -0.1802 -0.0425
H28 H 0.8240 -0.2341 -0.0376
Sm1A Sm 0.248667(15) 0.002835(10) -0.001745(11)
Sm1A_2 Sm 1.248667(15) 0.002835(10) -0.001745(11)
O4A O 0.5916(3) -0.04724(18) 0.07749(19)
O7A O 0.8830(2) -0.02693(19) -0.12249(18)
O9 O 0.8772(4) 0.2278(3) -0.1134(3)
H29 H 0.8540 0.1952 -0.0807
H30 H 0.9471 0.2001 -0.1377
loop_
_geom_bond_atom_site_label_1
_geom_bond_atom_site_label_2
_geom_bond_site_symmetry_1
_geom_bond_site_symmetry_2
Sm1 O1 1_555 1_555
O1 C1 1_555 1_555
O2 Sm1 1_555 1_555
O3 Sm1 1_555 1_555
O4 C1 1_555 1_555
O5 Sm1 1_555 1_555
O6 Sm1 1_555 1_555
O7 C2 1_555 1_555
O8 Sm1 1_555 1_555
C1 C3 1_555 1_555
C2 O5 1_555 1_555
C3 C11 1_555 1_555
C4 C2 1_555 1_555
C5 C6 1_555 1_555
C6 O2 1_555 1_555
C7 C4 1_555 1_555
H1 C7 1_555 1_555
C8 C5 1_555 1_555
H2 C8 1_555 1_555
C9 C8 1_555 1_555
C10 C7 1_555 1_555
C11 H3 1_555 1_555
C12 C3 1_555 1_555
H4 C12 1_555 1_555
C13 C11 1_555 1_555
C14 C13 1_555 1_555
N1 C30 1_555 1_555
C15 C10 1_555 1_555
C16 C9 1_555 1_555
C17 C5 1_555 1_555
H5 C17 1_555 1_555
C18 C10 1_555 1_555
H6 C18 1_555 1_555
N2 C28 1_555 1_555
C19 C9 1_555 1_555
H7 C19 1_555 1_555
C20 C17 1_555 1_555
H8 C20 1_555 1_555
C21 C13 1_555 1_555
H9 C21 1_555 1_555
C22 C16 1_555 1_555
H10 C22 1_555 1_555
C23 C4 1_555 1_555
H11 C23 1_555 1_555
C24 C18 1_555 1_555
H12 C24 1_555 1_555
C25 C15 1_555 1_555
H13 C25 1_555 1_555
C26 C14 1_555 1_555
H14 C26 1_555 1_555
C27 C12 1_555 1_555
H15 C27 1_555 1_555
C28 H16 1_555 1_555
C29 C14 1_555 1_555
H17 C29 1_555 1_555
C30 H18 1_555 1_555
N3 C32 1_555 1_555
C31 C16 1_555 1_555
H19 C31 1_555 1_555
C32 H20 1_555 1_555
C33 N1 1_555 1_555
H21 C33 1_555 1_555
C34 C15 1_555 1_555
H22 C34 1_555 1_555
C35 C25 1_555 1_555
H23 C35 1_555 1_555
C36 N2 1_555 1_555
H24 C36 1_555 1_555
H25 O3 1_555 1_555
H26 O3 1_555 1_555
H27 O6 1_555 1_555
H28 O6 1_555 1_555
O9 H29 1_555 1_555
H30 O9 1_555 1_555
Sm1A O4 1_555 1_555
Sm1A_2 O7 1_555 1_555
O4A Sm1 1_555 1_555
O7A Sm1 1_555 1_555
O8 C6 1_555 1_555
C19 C20 1_555 1_555
C21 C27 1_555 1_555
C22 C33 1_555 1_555
C23 C24 1_555 1_555
C26 C36 1_555 1_555
C28 C29 1_555 1_555
C30 C31 1_555 1_555
N3 C35 1_555 1_555
C32 C34 1_555 1_555

#END
