
#######################################################################
#
#                 Cambridge Crystallographic Data Centre
#                                CCDC 
#
#######################################################################
#
# If this CIF has been generated from an entry in the Cambridge 
# Structural Database, then it will include bibliographic, chemical, 
# crystal, experimental, refinement or atomic coordinate data resulting 
# from the CCDC's data processing and validation procedures.
#
#######################################################################

data_ICEPIQ
_symmetry_cell_setting           triclinic
_symmetry_space_group_name_H-M   'P -1'
_symmetry_Int_Tables_number      2
_space_group_name_Hall           '-P 1'
loop_
_symmetry_equiv_pos_site_id
_symmetry_equiv_pos_as_xyz
1 x,y,z
2 -x,-y,-z
_cell_length_a                   13.760(6)
_cell_length_b                   14.112(7)
_cell_length_c                   14.123(6)
_cell_angle_alpha                88.66(2)
_cell_angle_beta                 64.618(11)
_cell_angle_gamma                82.28(2)
_cell_volume                     2453.45
loop_
_atom_site_label
_atom_site_type_symbol
_atom_site_fract_x
_atom_site_fract_y
_atom_site_fract_z
Cs1 Cs 0.97688(6) 0.52727(6) -0.29594(6)
Ti1 Ti 0.60007(13) 0.50404(12) -0.24321(12)
Ti2 Ti 0.31462(13) 0.49354(12) -0.07213(12)
Ti3 Ti 0.60163(13) 0.68716(12) -0.07161(13)
Ti4 Ti 0.31741(13) 0.67508(12) 0.09932(13)
O1 O 0.4528(5) 0.4628(4) -0.2065(4)
O2 O 0.5712(6) 0.5925(5) -0.3468(5)
O3 O 0.5771(10) 0.6177(8) -0.5028(7)
O4 O 0.7598(6) 0.4993(5) -0.3306(5)
O5 O 0.9157(7) 0.4193(8) -0.4442(7)
O6 O 0.2608(5) 0.5782(5) -0.1624(5)
O7 O 0.1993(7) 0.5942(7) -0.2850(6)
O8 O 0.1646(5) 0.4785(5) 0.0272(6)
O9 O 0.0323(7) 0.3856(7) 0.0883(7)
O10 O 0.4400(5) 0.7353(4) -0.0139(5)
O11 O 0.6116(6) 0.8032(5) 0.0045(6)
O12 O 0.6334(11) 0.9543(7) 0.0071(10)
O13 O 0.7551(5) 0.6880(5) -0.1746(6)
O14 O 0.8730(9) 0.7191(10) -0.3361(9)
O15 O 0.2953(6) 0.7904(5) 0.1929(6)
O16 O 0.2134(9) 0.9382(7) 0.2539(8)
O17 O 0.1620(6) 0.6574(5) 0.1848(6)
O18 O -0.0075(6) 0.6739(7) 0.2014(8)
O19 O 0.5811(6) 0.6008(5) -0.1614(5)
O20 O 0.3262(5) 0.5918(5) -0.0066(5)
O21 O 0.6256(5) 0.3983(5) -0.1685(5)
O22 O 0.3734(5) 0.3888(5) -0.0160(5)
N1 N 0.6391(7) 0.4041(7) -0.3825(6)
N2 N 0.2613(6) 0.3892(6) -0.1541(6)
N3 N 0.5979(7) 0.8098(6) -0.1794(7)
N4 N 0.2186(7) 0.7904(6) 0.0474(7)
C1 C 0.4488(7) 0.3992(7) -0.2821(7)
C2 C 0.5554(8) 0.3413(8) -0.3421(8)
C3 C 0.3645(8) 0.3316(8) -0.2238(8)
C4 C 0.6349(9) 0.4631(9) -0.4687(8)
C5 C 0.5920(9) 0.5659(9) -0.4400(8)
C6 C 0.7508(8) 0.3552(9) -0.4083(8)
C7 C 0.8166(9) 0.4278(9) -0.3970(8)
C8 C 0.2038(9) 0.4439(8) -0.2103(9)
C9 C 0.2229(8) 0.5470(9) -0.2216(7)
C10 C 0.1873(8) 0.3347(8) -0.0692(8)
C11 C 0.1198(9) 0.4031(10) 0.0223(9)
C12 C 0.4056(8) 0.8166(7) -0.0646(8)
C13 C 0.4895(9) 0.8160(9) -0.1776(9)
C14 C 0.2963(9) 0.8050(8) -0.0617(9)
C15 C 0.6173(11) 0.8984(8) -0.1347(11)
C16 C 0.6216(10) 0.8860(8) -0.0357(10)
C17 C 0.6882(10) 0.7768(9) -0.2830(9)
C18 C 0.7801(10) 0.7267(9) -0.2678(10)
C19 C 0.1836(10) 0.8768(8) 0.1194(11)
C20 C 0.2357(10) 0.8685(9) 0.1923(10)
C21 C 0.1268(9) 0.7463(9) 0.0535(10)
C22 C 0.0883(9) 0.6893(8) 0.1537(10)
H1 H 0.4273(7) 0.4354(7) -0.3291(7)
H2 H 0.5537(8) 0.3079(8) -0.3990(8)
H3 H 0.5712(8) 0.2965(8) -0.2976(8)
H4 H 0.3900(8) 0.2895(8) -0.1834(8)
H5 H 0.3533(8) 0.2953(8) -0.2732(8)
H6 H 0.7066(9) 0.4592(9) -0.5230(8)
H7 H 0.5900(9) 0.4370(9) -0.4941(8)
H8 H 0.7477(8) 0.3050(9) -0.3615(8)
H9 H 0.7833(8) 0.3296(9) -0.4783(8)
H10 H 0.2287(9) 0.4150(8) -0.2782(9)
H11 H 0.1281(9) 0.4417(8) -0.1723(9)
H12 H 0.1416(8) 0.3072(8) -0.0925(8)
H13 H 0.2282(8) 0.2854(8) -0.0493(8)
H14 H 0.4003(8) 0.8748(7) -0.0293(8)
H15 H 0.4752(9) 0.8733(9) -0.2089(9)
H16 H 0.4865(9) 0.7625(9) -0.2153(9)
H17 H 0.3043(9) 0.7512(8) -0.1049(9)
H18 H 0.2696(9) 0.8610(8) -0.0866(9)
H19 H 0.6844(11) 0.9165(8) -0.1835(11)
H20 H 0.5601(11) 0.9482(8) -0.1262(11)
H21 H 0.6641(10) 0.7346(9) -0.3173(9)
H22 H 0.7100(10) 0.8305(9) -0.3249(9)
H23 H 0.2030(10) 0.9317(8) 0.0788(11)
H24 H 0.1071(10) 0.8838(8) 0.1591(11)
H25 H 0.0700(9) 0.7942(9) 0.0563(10)
H26 H 0.1484(9) 0.7047(9) -0.0061(10)
O9A O 0.9677(7) 0.6144(7) -0.0883(7)
O18A O 1.0075(6) 0.3261(7) -0.2014(8)
O22A O 0.6266(5) 0.6112(5) 0.0160(5)
O21A O 0.3744(5) 0.6017(5) 0.1685(5)
Cs1A Cs 0.02312(6) 0.47273(6) 0.29594(6)
Ti4A Ti 0.68259(13) 0.32492(12) -0.09932(13)
Ti3A Ti 0.39837(13) 0.31284(12) 0.07161(13)
O23 O 0.9850(9) 0.7943(8) 0.4452(9)
O24 O 0.838(2) 0.628(1) 0.465(2)
O25 O 0.659(3) 0.936(3) 0.188(3)
O26 O 0.021(3) 0.192(3) 0.123(3)
O27 O 0.506(3) 0.063(3) 0.482(3)
O28 O 0.067(4) 0.092(3) 0.283(3)
O29 O 0.814(4) 0.820(3) 0.268(3)
O30 O 0.764(4) 0.226(4) 0.303(4)
O31 O 0.292(4) 0.935(3) 0.399(4)
O32 O 0.492(5) 0.920(4) 0.381(5)
O33 O 0.379(5) 0.203(4) 0.517(5)
O34 O 0.463(5) 0.874(4) 0.223(4)
O35 O 0.049(9) 0.060(8) 0.007(9)
loop_
_geom_bond_atom_site_label_1
_geom_bond_atom_site_label_2
_geom_bond_site_symmetry_1
_geom_bond_site_symmetry_2
Cs1 O5 1_555 1_555
Ti1 O1 1_555 1_555
Ti2 O1 1_555 1_555
Ti3 O10 1_555 1_555
Ti4 O10 1_555 1_555
O1 C1 1_555 1_555
O2 Ti1 1_555 1_555
O3 C5 1_555 1_555
O4 Ti1 1_555 1_555
O5 C7 1_555 1_555
O6 Ti2 1_555 1_555
O7 C9 1_555 1_555
O8 Ti2 1_555 1_555
O9 C11 1_555 1_555
O10 C12 1_555 1_555
O11 Ti3 1_555 1_555
O12 C16 1_555 1_555
O13 Ti3 1_555 1_555
O14 Cs1 1_555 1_555
O15 Ti4 1_555 1_555
O16 C20 1_555 1_555
O17 Ti4 1_555 1_555
O18 C22 1_555 1_555
O19 Ti1 1_555 1_555
O20 Ti2 1_555 1_555
O21 Ti1 1_555 1_555
O22 Ti2 1_555 1_555
N1 Ti1 1_555 1_555
N2 Ti2 1_555 1_555
N3 Ti3 1_555 1_555
N4 Ti4 1_555 1_555
C1 C2 1_555 1_555
C2 N1 1_555 1_555
C3 N2 1_555 1_555
C4 N1 1_555 1_555
C5 O2 1_555 1_555
C6 N1 1_555 1_555
C7 O4 1_555 1_555
C8 N2 1_555 1_555
C9 O6 1_555 1_555
C10 N2 1_555 1_555
C11 O8 1_555 1_555
C12 C13 1_555 1_555
C13 N3 1_555 1_555
C14 N4 1_555 1_555
C15 N3 1_555 1_555
C16 O11 1_555 1_555
C17 N3 1_555 1_555
C18 O13 1_555 1_555
C19 N4 1_555 1_555
C20 O15 1_555 1_555
C21 N4 1_555 1_555
C22 O17 1_555 1_555
H1 C1 1_555 1_555
H2 C2 1_555 1_555
H3 C2 1_555 1_555
H4 C3 1_555 1_555
H5 C3 1_555 1_555
H6 C4 1_555 1_555
H7 C4 1_555 1_555
H8 C6 1_555 1_555
H9 C6 1_555 1_555
H10 C8 1_555 1_555
H11 C8 1_555 1_555
H12 C10 1_555 1_555
H13 C10 1_555 1_555
H14 C12 1_555 1_555
H15 C13 1_555 1_555
H16 C13 1_555 1_555
H17 C14 1_555 1_555
H18 C14 1_555 1_555
H19 C15 1_555 1_555
H20 C15 1_555 1_555
H21 C17 1_555 1_555
H22 C17 1_555 1_555
H23 C19 1_555 1_555
H24 C19 1_555 1_555
H25 C21 1_555 1_555
H26 C21 1_555 1_555
O9A Cs1 1_555 1_555
O18A Cs1 1_555 1_555
O22A Ti3 1_555 1_555
O21A Ti4 1_555 1_555
Cs1A O9 1_555 1_555
Ti4A O21 1_555 1_555
Ti3A O22 1_555 1_555
Ti3 O19 1_555 1_555
Ti4 O20 1_555 1_555
O14 C18 1_555 1_555
O18 Cs1A 1_555 1_555
C1 C3 1_555 1_555
C4 C5 1_555 1_555
C6 C7 1_555 1_555
C8 C9 1_555 1_555
C10 C11 1_555 1_555
C12 C14 1_555 1_555
C15 C16 1_555 1_555
C17 C18 1_555 1_555
C19 C20 1_555 1_555
C21 C22 1_555 1_555

#END
