
#######################################################################
#
#                 Cambridge Crystallographic Data Centre
#                                CCDC 
#
#######################################################################
#
# If this CIF has been generated from an entry in the Cambridge 
# Structural Database, then it will include bibliographic, chemical, 
# crystal, experimental, refinement or atomic coordinate data resulting 
# from the CCDC's data processing and validation procedures.
#
#######################################################################

data_ICEPOW
_symmetry_cell_setting           orthorhombic
_symmetry_space_group_name_H-M   'P c c n'
_symmetry_Int_Tables_number      56
_space_group_name_Hall           '-P 2ab 2ac'
loop_
_symmetry_equiv_pos_site_id
_symmetry_equiv_pos_as_xyz
1 x,y,z
2 1/2-x,y,1/2+z
3 x,1/2-y,1/2+z
4 1/2+x,1/2+y,-z
5 -x,-y,-z
6 1/2+x,-y,1/2-z
7 -x,1/2+y,1/2-z
8 1/2-x,1/2-y,z
_cell_length_a                   10.9765(7)
_cell_length_b                   14.5063(9)
_cell_length_c                   18.9931(13)
_cell_angle_alpha                90
_cell_angle_beta                 90
_cell_angle_gamma                90
_cell_volume                     3024.24
loop_
_atom_site_label
_atom_site_type_symbol
_atom_site_fract_x
_atom_site_fract_y
_atom_site_fract_z
Ti1 Ti 0.32142(4) 0.14820(3) 0.41209(2)
Na1 Na 0.27263(12) 0.12567(9) 0.10207(6)
O1 O 0.1646(2) 0.21015(12) 0.39499(9)
O2 O 0.3600(2) 0.14607(13) 0.30802(9)
O3 O 0.3793(3) 0.0765(2) 0.20455(11)
O4 O 0.2231(2) 0.07730(13) 0.48623(9)
O5 O 0.1521(2) -0.0533(2) 0.52991(13)
O6 O 0.1350(2) 0.3026(1) 0.50908(9)
O7 O 0.0210(3) 0.2170(2) 0.57823(13)
O8 O 0.0784(2) 0.46896(13) 0.41734(10)
O9 O -0.0755(2) 0.5523(2) 0.37595(13)
O10 O 0.2500 0.2500 0.1808(3)
N1 N 0.1941(2) 0.0357(2) 0.35531(11)
N2 N -0.0299(2) 0.3111(2) 0.40748(11)
C1 C 0.0543(3) 0.1590(2) 0.3889(2)
C2 C 0.0819(3) 0.0853(2) 0.3345(2)
C3 C -0.0425(3) 0.2262(2) 0.3652(2)
C4 C 0.2589(3) 0.0032(2) 0.2926(2)
C5 C 0.3378(3) 0.0792(2) 0.2648(1)
C6 C 0.1692(3) -0.0408(2) 0.4060(2)
C7 C 0.1803(2) -0.0055(2) 0.4799(1)
C8 C -0.0718(3) 0.2962(2) 0.4807(2)
C9 C 0.0327(3) 0.2678(2) 0.5272(1)
C10 C -0.0949(3) 0.3897(2) 0.3745(2)
C11 C -0.0294(3) 0.4781(2) 0.3904(1)
H1 H 0.0329(3) 0.1318(2) 0.4327(2)
H2 H 0.0934(3) 0.1133(2) 0.2898(2)
H3 H 0.0158(3) 0.0431(2) 0.3321(2)
H4 H -0.1209(3) 0.2001(2) 0.3723(2)
H5 H -0.0318(3) 0.2400(2) 0.3167(2)
H6 H 0.3082(3) -0.0482(2) 0.3046(2)
H7 H 0.2016(3) -0.0144(2) 0.2576(2)
H8 H 0.0891(3) -0.0636(2) 0.3986(2)
H9 H 0.2264(3) -0.0890(2) 0.3988(2)
H10 H -0.1060(3) 0.3518(2) 0.4982(2)
H11 H -0.1320(3) 0.2491(2) 0.4810(2)
H12 H -0.0980(3) 0.3809(2) 0.3250(2)
H13 H -0.1754(3) 0.3929(2) 0.3927(2)
O1G O 0.3354(2) 0.28985(12) 0.39499(9)
O2G O 0.1400(2) 0.35393(13) 0.30802(9)
O3G O 0.1207(3) 0.4235(2) 0.20455(11)
O4G O 0.2769(2) 0.42270(13) 0.48623(9)
O5G O 0.3479(2) 0.5533(2) 0.52991(13)
O6G O 0.3650(2) 0.1974(1) 0.50908(9)
O7G O 0.4790(3) 0.2830(2) 0.57823(13)
O8G O 0.4216(2) 0.03104(13) 0.41734(10)
O9G O 0.5755(2) -0.0523(2) 0.37595(13)
N1G N 0.3059(2) 0.4643(2) 0.35531(11)
N2G N 0.5299(2) 0.1889(2) 0.40748(11)
C1G C 0.4457(3) 0.3410(2) 0.3889(2)
C2G C 0.4181(3) 0.4147(2) 0.3345(2)
C3G C 0.5425(3) 0.2738(2) 0.3652(2)
C4G C 0.2411(3) 0.4968(2) 0.2926(2)
C5G C 0.1622(3) 0.4208(2) 0.2648(1)
C6G C 0.3308(3) 0.5408(2) 0.4060(2)
C7G C 0.3197(2) 0.5055(2) 0.4799(1)
C8G C 0.5718(3) 0.2038(2) 0.4807(2)
C9G C 0.4673(3) 0.2322(2) 0.5272(1)
C10G C 0.5949(3) 0.1103(2) 0.3745(2)
C11G C 0.5294(3) 0.0219(2) 0.3904(1)
H1G H 0.4671(3) 0.3682(2) 0.4327(2)
H2G H 0.4066(3) 0.3867(2) 0.2898(2)
H3G H 0.4842(3) 0.4569(2) 0.3321(2)
H4G H 0.6209(3) 0.2999(2) 0.3723(2)
H5G H 0.5318(3) 0.2600(2) 0.3167(2)
H6G H 0.1918(3) 0.5482(2) 0.3046(2)
H7G H 0.2984(3) 0.5144(2) 0.2576(2)
H8G H 0.4109(3) 0.5636(2) 0.3986(2)
H9G H 0.2736(3) 0.5890(2) 0.3988(2)
H10G H 0.6060(3) 0.1482(2) 0.4982(2)
H11G H 0.6320(3) 0.2509(2) 0.4810(2)
H12G H 0.5980(3) 0.1191(2) 0.3250(2)
H13G H 0.6754(3) 0.1071(2) 0.3927(2)
Ti1G Ti 0.17858(4) 0.35180(3) 0.41209(2)
Na1G Na 0.22737(12) 0.37433(9) 0.10207(6)
O4A O 0.2769(2) 0.07730(13) -0.01377(9)
Na1A Na 0.22737(12) 0.12567(9) 0.60207(6)
Na1B Na 0.27263(12) 0.37433(9) 0.60207(6)
O4B O 0.2231(2) 0.42270(13) -0.01377(9)
O11 O 0.6186(11) 0.2791(6) 0.1929(3)
loop_
_geom_bond_atom_site_label_1
_geom_bond_atom_site_label_2
_geom_bond_site_symmetry_1
_geom_bond_site_symmetry_2
Ti1 O1 1_555 1_555
Na1 O3 1_555 1_555
O1 C1 1_555 1_555
O2 Ti1 1_555 1_555
O3 C5 1_555 1_555
O4 Ti1 1_555 1_555
O5 C7 1_555 1_555
O6 C9 1_555 1_555
O7 C9 1_555 1_555
O8 C11 1_555 1_555
O9 C11 1_555 1_555
O10 Na1 1_555 1_555
N1 Ti1 1_555 1_555
N2 C3 1_555 1_555
C1 C2 1_555 1_555
C2 N1 1_555 1_555
C3 C1 1_555 1_555
C4 N1 1_555 1_555
C5 O2 1_555 1_555
C6 N1 1_555 1_555
C7 O4 1_555 1_555
C8 N2 1_555 1_555
C9 C8 1_555 1_555
C10 N2 1_555 1_555
C11 C10 1_555 1_555
H1 C1 1_555 1_555
H2 C2 1_555 1_555
H3 C2 1_555 1_555
H4 C3 1_555 1_555
H5 C3 1_555 1_555
H6 C4 1_555 1_555
H7 C4 1_555 1_555
H8 C6 1_555 1_555
H9 C6 1_555 1_555
H10 C8 1_555 1_555
H11 C8 1_555 1_555
H12 C10 1_555 1_555
H13 C10 1_555 1_555
O1G Ti1 1_555 1_555
O2G C5G 1_555 1_555
O3G C5G 1_555 1_555
O4G C7G 1_555 1_555
O5G C7G 1_555 1_555
O6G Ti1 1_555 1_555
O7G C9G 1_555 1_555
O8G Ti1 1_555 1_555
O9G C11G 1_555 1_555
N1G C2G 1_555 1_555
N2G Ti1 1_555 1_555
C1G O1G 1_555 1_555
C2G C1G 1_555 1_555
C3G N2G 1_555 1_555
C4G N1G 1_555 1_555
C5G C4G 1_555 1_555
C6G N1G 1_555 1_555
C7G C6G 1_555 1_555
C8G N2G 1_555 1_555
C9G O6G 1_555 1_555
C10G N2G 1_555 1_555
C11G O8G 1_555 1_555
H1G C1G 1_555 1_555
H2G C2G 1_555 1_555
H3G C2G 1_555 1_555
H4G C3G 1_555 1_555
H5G C3G 1_555 1_555
H6G C4G 1_555 1_555
H7G C4G 1_555 1_555
H8G C6G 1_555 1_555
H9G C6G 1_555 1_555
H10G C8G 1_555 1_555
H11G C8G 1_555 1_555
H12G C10G 1_555 1_555
H13G C10G 1_555 1_555
Ti1G O1 1_555 1_555
Na1G O10 1_555 1_555
O4A Na1 1_555 1_555
Na1A O4 1_555 1_555
Na1B O4G 1_555 1_555
O4B Na1G 1_555 1_555
O6 Ti1G 1_555 1_555
O8 Ti1G 1_555 1_555
N2 Ti1G 1_555 1_555
C4 C5 1_555 1_555
C6 C7 1_555 1_555
O1G Ti1G 1_555 1_555
O2G Ti1G 1_555 1_555
O3G Na1G 1_555 1_555
O4G Ti1G 1_555 1_555
N1G Ti1G 1_555 1_555
C1G C3G 1_555 1_555
C8G C9G 1_555 1_555
C10G C11G 1_555 1_555

#END
