
#######################################################################
#
#                 Cambridge Crystallographic Data Centre
#                                CCDC 
#
#######################################################################
#
# If this CIF has been generated from an entry in the Cambridge 
# Structural Database, then it will include bibliographic, chemical, 
# crystal, experimental, refinement or atomic coordinate data resulting 
# from the CCDC's data processing and validation procedures.
#
#######################################################################

data_ICIDUT
_symmetry_cell_setting           triclinic
_symmetry_space_group_name_H-M   'P -1'
_symmetry_Int_Tables_number      2
_space_group_name_Hall           '-P 1'
loop_
_symmetry_equiv_pos_site_id
_symmetry_equiv_pos_as_xyz
1 x,y,z
2 -x,-y,-z
_cell_length_a                   12.248(2)
_cell_length_b                   13.771(3)
_cell_length_c                   18.257(4)
_cell_angle_alpha                108.078(4)
_cell_angle_beta                 97.890(4)
_cell_angle_gamma                103.139(5)
_cell_volume                     2777.96
loop_
_atom_site_label
_atom_site_type_symbol
_atom_site_fract_x
_atom_site_fract_y
_atom_site_fract_z
Cu1 Cu 0.39534(7) 0.27529(6) 0.15349(5)
C1 C 0.2240(5) 0.3550(5) 0.0838(4)
H1 H 0.2273 0.3040 0.0374
C2 C 0.1542(5) 0.4194(5) 0.0799(4)
H2 H 0.1119 0.4118 0.0310
C3 C 0.1462(5) 0.4953(4) 0.1477(4)
C4 C 0.2093(5) 0.5004(4) 0.2182(4)
H3 H 0.2051 0.5486 0.2657
C5 C 0.2781(5) 0.4346(4) 0.2183(4)
H4 H 0.3203 0.4397 0.2665
C6 C 0.0748(5) 0.5637(4) 0.1434(3)
C7 C 0.0164(5) 0.6199(5) 0.1410(3)
C8 C -0.0547(5) 0.6896(4) 0.1383(3)
C9 C -0.1720(5) 0.6539(5) 0.1288(4)
H5 H -0.2060 0.5841 0.1245
C10 C -0.2397(5) 0.7207(5) 0.1256(4)
H6 H -0.3191 0.6948 0.1174
C11 C -0.1908(5) 0.8255(4) 0.1343(3)
C12 C -0.0730(5) 0.8617(5) 0.1450(4)
H7 H -0.0388 0.9322 0.1512
C13 C -0.0057(5) 0.7949(5) 0.1466(4)
H8 H 0.0734 0.8204 0.1533
C14 C -0.2604(5) 0.8959(4) 0.1321(4)
C15 C -0.3165(5) 0.9547(5) 0.1310(4)
C16 C -0.5583(5) 1.0662(5) 0.0945(4)
H9 H -0.6353 1.0420 0.0683
C17 C -0.4981(5) 0.9926(5) 0.0922(4)
H10 H -0.5341 0.9203 0.0654
C18 C -0.3829(5) 1.0282(5) 0.1305(4)
C19 C -0.3349(5) 1.1369(5) 0.1687(4)
H11 H -0.2577 1.1638 0.1947
C20 C -0.3999(5) 1.2048(5) 0.1684(4)
H12 H -0.3653 1.2775 0.1942
C21 C 0.4945(7) 0.3425(6) 0.3511(4)
H13 H 0.4333 0.2794 0.3438
H14 H 0.4816 0.4022 0.3904
C22 C 0.6061(8) 0.3277(7) 0.3822(5)
H15 H 0.6196 0.2684 0.3440
H16 H 0.6035 0.3143 0.4305
H17 H 0.6672 0.3911 0.3921
N1 N 0.2867(4) 0.3634(4) 0.1519(3)
N2 N -0.5104(4) 1.1719(4) 0.1332(3)
N6 N 0.5180(4) 0.3814(4) 0.0700(3)
N7 N 0.2086(6) 0.1086(6) 0.1390(6)
O1 O 0.5174(3) 0.3883(3) 0.1422(2)
O2 O 0.4494(4) 0.3035(3) 0.0166(3)
O3 O 0.5857(4) 0.4534(4) 0.0596(3)
O4 O 0.2912(4) 0.1775(4) 0.1930(3)
O5 O 0.1962(5) 0.1136(5) 0.0712(4)
O6 O 0.1447(5) 0.0380(4) 0.1526(5)
O13 O 0.4875(4) 0.3608(3) 0.2797(3)
H46 H 0.537(4) 0.421(3) 0.292(4)
C1_2 C 1.2240(5) -0.6450(5) 0.0838(4)
H1_2 H 1.2273 -0.6960 0.0374
C2_2 C 1.1542(5) -0.5806(5) 0.0799(4)
H2_2 H 1.1119 -0.5882 0.0310
C3_2 C 1.1462(5) -0.5047(4) 0.1477(4)
C4_2 C 1.2093(5) -0.4996(4) 0.2182(4)
H3_2 H 1.2051 -0.4514 0.2657
C5_2 C 1.2781(5) -0.5654(4) 0.2183(4)
H4_2 H 1.3203 -0.5603 0.2665
C6_2 C 1.0748(5) -0.4363(4) 0.1434(3)
C7_2 C 1.0164(5) -0.3801(5) 0.1410(3)
C8_2 C 0.9453(5) -0.3104(4) 0.1383(3)
C9_2 C 0.8280(5) -0.3461(5) 0.1288(4)
H5_2 H 0.7940 -0.4159 0.1245
C10_2 C 0.7603(5) -0.2793(5) 0.1256(4)
H6_2 H 0.6809 -0.3052 0.1174
C11_2 C 0.8092(5) -0.1745(4) 0.1343(3)
C12_2 C 0.9270(5) -0.1383(5) 0.1450(4)
H7_2 H 0.9612 -0.0678 0.1512
C13_2 C 0.9943(5) -0.2051(5) 0.1466(4)
H8_2 H 1.0734 -0.1796 0.1533
C14_2 C 0.7396(5) -0.1041(4) 0.1321(4)
C15_2 C 0.6835(5) -0.0453(5) 0.1310(4)
C16_2 C 0.4417(5) 0.0662(5) 0.0945(4)
H9_2 H 0.3647 0.0420 0.0683
C17_2 C 0.5019(5) -0.0074(5) 0.0922(4)
H10_2 H 0.4659 -0.0797 0.0654
C18_2 C 0.6171(5) 0.0282(5) 0.1305(4)
C19_2 C 0.6651(5) 0.1369(5) 0.1687(4)
H11_2 H 0.7423 0.1638 0.1947
C20_2 C 0.6001(5) 0.2048(5) 0.1684(4)
H12_2 H 0.6347 0.2775 0.1942
N1_2 N 1.2867(4) -0.6366(4) 0.1519(3)
N2_2 N 0.4896(4) 0.1719(4) 0.1332(3)
Cu1_2 Cu 1.39534(7) -0.72471(6) 0.15349(5)
Cu1_3 Cu -0.60466(7) 1.27529(6) 0.15349(5)
N2_3 N 1.4896(4) -0.8281(4) 0.1332(3)
O1_2 O 1.5174(3) -0.6117(3) 0.1422(2)
O4_2 O 1.2912(4) -0.8225(4) 0.1930(3)
O13_2 O 1.4875(4) -0.6392(3) 0.2797(3)
H46_2 H 1.537(4) -0.579(3) 0.292(4)
N6_2 N 1.5180(4) -0.6186(4) 0.0700(3)
C21_2 C 1.4945(7) -0.6575(6) 0.3511(4)
N7_2 N 1.2086(6) -0.8914(6) 0.1390(6)
H13_2 H 1.4333 -0.7206 0.3438
H14_2 H 1.4816 -0.5978 0.3904
C22_2 C 1.6061(8) -0.6723(7) 0.3822(5)
O5_2 O 1.1962(5) -0.8864(5) 0.0712(4)
O6_2 O 1.1447(5) -0.9620(4) 0.1526(5)
O2_2 O 1.4494(4) -0.6965(3) 0.0166(3)
O3_2 O 1.5857(4) -0.5466(4) 0.0596(3)
H15_2 H 1.6196 -0.7316 0.3440
H16_2 H 1.6035 -0.6857 0.4305
H17_2 H 1.6672 -0.6089 0.3921
Cu2 Cu 0.60024(6) 0.71051(5) 0.37328(4)
C23 C 0.4248(5) 0.7609(4) 0.2788(3)
H18 H 0.4208 0.8026 0.3288
C24 C 0.3572(5) 0.7657(5) 0.2143(4)
H19 H 0.3087 0.8093 0.2210
C25 C 0.3620(5) 0.7054(5) 0.1395(4)
C26 C 0.4332(5) 0.6390(4) 0.1332(3)
H20 H 0.4371 0.5953 0.0838
C27 C 0.4982(5) 0.6387(4) 0.2014(3)
H21 H 0.5454 0.5940 0.1965
C28 C 0.2952(5) 0.7114(4) 0.0701(3)
C29 C 0.2401(5) 0.7219(4) 0.0165(3)
C30 C 0.1692(5) 0.7262(5) -0.0524(4)
C31 C 0.1183(5) 0.8069(5) -0.0472(4)
H22 H 0.1293 0.8602 0.0015
C32 C 0.0510(5) 0.8097(5) -0.1136(4)
H23 H 0.0172 0.8647 -0.1094
C33 C 0.0339(5) 0.7293(5) -0.1872(4)
C34 C 0.0855(5) 0.6482(4) -0.1922(3)
H24 H 0.0744 0.5941 -0.2405
C35 C 0.1534(5) 0.6480(4) -0.1254(4)
H25 H 0.1891 0.5943 -0.1294
C36 C -0.0374(5) 0.7295(4) -0.2572(3)
C37 C -0.0935(5) 0.7249(5) -0.3160(4)
C38 C -0.2130(5) 0.8050(5) -0.4802(4)
H26 H -0.1979 0.8649 -0.4947
C39 C -0.1456(6) 0.8081(5) -0.4117(4)
H27 H -0.0875 0.8701 -0.3812
C40 C -0.1624(5) 0.7218(5) -0.3877(3)
C41 C -0.2484(5) 0.6315(5) -0.4379(4)
H28 H -0.2617 0.5691 -0.4265
C42 C -0.3137(5) 0.6343(4) -0.5041(3)
H29 H -0.3721 0.5732 -0.5358
C43 C 0.6466(5) 0.9450(4) 0.4392(4)
H30 H 0.5929 0.9285 0.4681
C44 C 0.6954(5) 1.0506(5) 0.4515(4)
H31 H 0.6745 1.1035 0.4876
C45 C 0.7755(6) 1.0772(4) 0.4100(4)
C46 C 0.8004(6) 0.9958(5) 0.3549(4)
H32 H 0.8525 1.0102 0.3245
C47 C 0.7451(6) 0.8917(5) 0.3463(4)
H33 H 0.7608 0.8369 0.3084
C48 C 0.8350(6) 1.1873(5) 0.4265(4)
C49 C 0.8842(6) 1.2804(5) 0.4465(4)
C50 C 0.9435(5) 1.3921(4) 0.4734(4)
C51 C 1.0155(6) 1.4406(5) 0.5468(4)
H34 H 1.0265 1.4011 0.5789
C52 C 0.9273(6) 1.4504(5) 0.4265(4)
H35 H 0.8781 1.4175 0.3767
N3 N 0.4964(4) 0.6994(3) 0.2739(3)
N4 N -0.2983(4) 0.7200(4) -0.5259(3)
N5 N 0.6717(4) 0.8653(4) 0.3885(3)
N8 N 0.7310(5) 0.5732(4) 0.3024(3)
N9 N 0.3955(5) 0.6662(4) 0.4248(3)
O7 O 0.6287(3) 0.5618(3) 0.3171(2)
O8 O 0.7886(4) 0.6631(4) 0.3117(3)
O9 O 0.7645(4) 0.4935(4) 0.2804(3)
O10 O 0.4527(4) 0.6056(3) 0.3924(2)
O11 O 0.4416(4) 0.7642(3) 0.4517(3)
O12 O 0.2955(4) 0.6259(4) 0.4253(3)
C52A C 1.0727(6) 1.5496(5) 0.5735(4)
C50A C 1.0565(5) 1.6079(4) 0.5266(4)
C49A C 1.1158(6) 1.7196(5) 0.5535(4)
C48A C 1.1650(6) 1.8127(5) 0.5735(4)
C45A C 1.2245(6) 1.9228(4) 0.5900(4)
C44A C 1.3046(5) 1.9494(5) 0.5485(4)
C43A C 1.3534(5) 2.0550(4) 0.5608(4)
H30A H 1.4071 2.0715 0.5319
N5A N 1.3283(4) 2.1347(4) 0.6115(3)
C47A C 1.2549(6) 2.1083(5) 0.6537(4)
C46A C 1.1996(6) 2.0042(5) 0.6451(4)
H32A H 1.1475 1.9898 0.6755
H33A H 1.2392 2.1631 0.6916
H31A H 1.3255 1.8965 0.5124
C51A C 0.9845(6) 1.5594(5) 0.4532(4)
H34A H 0.9735 1.5989 0.4211
H35A H 1.1219 1.5825 0.6233
C23_2 C 1.4248(5) 0.7609(4) 1.2788(3)
H18_2 H 1.4208 0.8026 1.3288
C24_2 C 1.3572(5) 0.7657(5) 1.2143(4)
H19_2 H 1.3087 0.8093 1.2210
C25_2 C 1.3620(5) 0.7054(5) 1.1395(4)
C26_2 C 1.4332(5) 0.6390(4) 1.1332(3)
H20_2 H 1.4371 0.5953 1.0838
C27_2 C 1.4982(5) 0.6387(4) 1.2014(3)
H21_2 H 1.5454 0.5940 1.1965
C28_2 C 1.2952(5) 0.7114(4) 1.0701(3)
C29_2 C 1.2401(5) 0.7219(4) 1.0165(3)
C30_2 C 1.1692(5) 0.7262(5) 0.9476(4)
C31_2 C 1.1183(5) 0.8069(5) 0.9528(4)
H22_2 H 1.1293 0.8602 1.0015
C32_2 C 1.0510(5) 0.8097(5) 0.8864(4)
H23_2 H 1.0172 0.8647 0.8906
C33_2 C 1.0339(5) 0.7293(5) 0.8128(4)
C34_2 C 1.0855(5) 0.6482(4) 0.8078(3)
H24_2 H 1.0744 0.5941 0.7595
C35_2 C 1.1534(5) 0.6480(4) 0.8746(4)
H25_2 H 1.1891 0.5943 0.8706
C36_2 C 0.9626(5) 0.7295(4) 0.7428(3)
C37_2 C 0.9065(5) 0.7249(5) 0.6840(4)
C38_2 C 0.7870(5) 0.8050(5) 0.5198(4)
H26_2 H 0.8021 0.8649 0.5053
C39_2 C 0.8544(6) 0.8081(5) 0.5883(4)
H27_2 H 0.9125 0.8701 0.6188
C40_2 C 0.8376(5) 0.7218(5) 0.6123(3)
C41_2 C 0.7516(5) 0.6315(5) 0.5621(4)
H28_2 H 0.7383 0.5691 0.5735
C42_2 C 0.6863(5) 0.6343(4) 0.4959(3)
H29_2 H 0.6279 0.5732 0.4642
N3_2 N 1.4964(4) 0.6994(3) 1.2739(3)
N4_2 N 0.7017(4) 0.7200(4) 0.4741(3)
Cu2_2 Cu 1.60024(6) 0.71051(5) 1.37328(4)
Cu2_3 Cu -0.39976(6) 0.71051(5) -0.62672(4)
Cu2A Cu 1.39976(6) 2.28949(5) 0.62672(4)
N4_3 N 1.7017(4) 0.7200(4) 1.4741(3)
N5_2 N 1.6717(4) 0.8653(4) 1.3885(3)
O7_2 O 1.6287(3) 0.5618(3) 1.3171(2)
O10_2 O 1.4527(4) 0.6056(3) 1.3924(2)
N9_2 N 1.3955(5) 0.6662(4) 1.4248(3)
N8_2 N 1.7310(5) 0.5732(4) 1.3024(3)
O11_2 O 1.4416(4) 0.7642(3) 1.4517(3)
O12_2 O 1.2955(4) 0.6259(4) 1.4253(3)
O8_2 O 1.7886(4) 0.6631(4) 1.3117(3)
O9_2 O 1.7645(4) 0.4935(4) 1.2804(3)
C53 C 0.3707(9) 0.0407(7) 0.3438(6)
H36 H 0.3708 0.1101 0.3788
H37 H 0.3842 -0.0026 0.3751
C54 C 0.4575(9) 0.0512(7) 0.2971(7)
H38 H 0.4596 -0.0183 0.2657
H39 H 0.5314 0.0903 0.3318
H40 H 0.4384 0.0887 0.2630
O14 O 0.2544(5) -0.0149(4) 0.2807(4)
H47 H 0.2012 -0.0234 0.3030
C55 C 0.9588(7) 0.1589(6) 0.6316(5)
H41 H 0.9938 0.1665 0.5884
H42 H 1.0202 0.1743 0.6769
C56 C 0.8920(7) 0.2372(6) 0.6518(5)
H43 H 0.8378 0.2283 0.6052
H44 H 0.9434 0.3081 0.6720
H45 H 0.8514 0.2256 0.6911
O15 O 0.8920(5) 0.0559(4) 0.6102(4)
H48 H 0.8535 0.0515 0.6431
loop_
_geom_bond_atom_site_label_1
_geom_bond_atom_site_label_2
_geom_bond_site_symmetry_1
_geom_bond_site_symmetry_2
Cu1 N1 1_555 1_555
Cu2 N3 1_555 1_555
C1 H1 1_555 1_555
C2 C1 1_555 1_555
H2 C2 1_555 1_555
C3 C2 1_555 1_555
C4 C3 1_555 1_555
H3 C4 1_555 1_555
C5 C4 1_555 1_555
H4 C5 1_555 1_555
C6 C3 1_555 1_555
C7 C6 1_555 1_555
C8 C7 1_555 1_555
C9 C8 1_555 1_555
H5 C9 1_555 1_555
C10 C9 1_555 1_555
H6 C10 1_555 1_555
C11 C10 1_555 1_555
C12 C11 1_555 1_555
H7 C12 1_555 1_555
C13 C8 1_555 1_555
H8 C13 1_555 1_555
C14 C11 1_555 1_555
C15 C14 1_555 1_555
C16 H9 1_555 1_555
C17 C16 1_555 1_555
H10 C17 1_555 1_555
C18 C15 1_555 1_555
C19 C18 1_555 1_555
H11 C19 1_555 1_555
C20 C19 1_555 1_555
H12 C20 1_555 1_555
C21 H13 1_555 1_555
H14 C21 1_555 1_555
C22 C21 1_555 1_555
H15 C22 1_555 1_555
H16 C22 1_555 1_555
H17 C22 1_555 1_555
C23 H18 1_555 1_555
C24 C23 1_555 1_555
H19 C24 1_555 1_555
C25 C24 1_555 1_555
C26 C25 1_555 1_555
H20 C26 1_555 1_555
C27 C26 1_555 1_555
H21 C27 1_555 1_555
C28 C25 1_555 1_555
C29 C28 1_555 1_555
C30 C29 1_555 1_555
C31 C30 1_555 1_555
H22 C31 1_555 1_555
C32 C31 1_555 1_555
H23 C32 1_555 1_555
C33 C32 1_555 1_555
C34 C33 1_555 1_555
H24 C34 1_555 1_555
C35 C30 1_555 1_555
H25 C35 1_555 1_555
C36 C33 1_555 1_555
C37 C36 1_555 1_555
C38 H26 1_555 1_555
C39 C38 1_555 1_555
H27 C39 1_555 1_555
C40 C37 1_555 1_555
C41 C40 1_555 1_555
H28 C41 1_555 1_555
C42 C41 1_555 1_555
H29 C42 1_555 1_555
C43 H30 1_555 1_555
C44 C43 1_555 1_555
H31 C44 1_555 1_555
C45 C44 1_555 1_555
C46 C45 1_555 1_555
H32 C46 1_555 1_555
C47 C46 1_555 1_555
H33 C47 1_555 1_555
C48 C45 1_555 1_555
C49 C48 1_555 1_555
C50 C49 1_555 1_555
C51 C50 1_555 1_555
H34 C51 1_555 1_555
C52 C50 1_555 1_555
H35 C52 1_555 1_555
C53 H36 1_555 1_555
H37 C53 1_555 1_555
C54 C53 1_555 1_555
H38 C54 1_555 1_555
H39 C54 1_555 1_555
H40 C54 1_555 1_555
C55 H41 1_555 1_555
H42 C55 1_555 1_555
C56 C55 1_555 1_555
H43 C56 1_555 1_555
H44 C56 1_555 1_555
H45 C56 1_555 1_555
N1 C1 1_555 1_555
N2 C16 1_555 1_555
N3 C23 1_555 1_555
N4 C38 1_555 1_555
N5 Cu2 1_555 1_555
N6 O1 1_555 1_555
N7 O4 1_555 1_555
N8 O7 1_555 1_555
N9 O10 1_555 1_555
O1 Cu1 1_555 1_555
O2 N6 1_555 1_555
O3 N6 1_555 1_555
O4 Cu1 1_555 1_555
O5 N7 1_555 1_555
O6 N7 1_555 1_555
O7 Cu2 1_555 1_555
O8 N8 1_555 1_555
O9 N8 1_555 1_555
O10 Cu2 1_555 1_555
O11 N9 1_555 1_555
O12 N9 1_555 1_555
O13 Cu1 1_555 1_555
H46 O13 1_555 1_555
O14 C53 1_555 1_555
H47 O14 1_555 1_555
O15 C55 1_555 1_555
H48 O15 1_555 1_555
C52A C51 1_555 1_555
C50A C52A 1_555 1_555
C49A C50A 1_555 1_555
C48A C49A 1_555 1_555
C45A C48A 1_555 1_555
C44A C45A 1_555 1_555
C43A C44A 1_555 1_555
H30A C43A 1_555 1_555
N5A C43A 1_555 1_555
C47A N5A 1_555 1_555
C46A C45A 1_555 1_555
H32A C46A 1_555 1_555
H33A C47A 1_555 1_555
H31A C44A 1_555 1_555
C51A C52 1_555 1_555
H34A C51A 1_555 1_555
H35A C52A 1_555 1_555
C1_2 H1_2 1_555 1_555
C2_2 C1_2 1_555 1_555
H2_2 C2_2 1_555 1_555
C3_2 C2_2 1_555 1_555
C4_2 C3_2 1_555 1_555
H3_2 C4_2 1_555 1_555
C5_2 C4_2 1_555 1_555
H4_2 C5_2 1_555 1_555
C6_2 C3_2 1_555 1_555
C7_2 C6_2 1_555 1_555
C8_2 C7_2 1_555 1_555
C9_2 C8_2 1_555 1_555
H5_2 C9_2 1_555 1_555
C10_2 C9_2 1_555 1_555
H6_2 C10_2 1_555 1_555
C11_2 C10_2 1_555 1_555
C12_2 C11_2 1_555 1_555
H7_2 C12_2 1_555 1_555
C13_2 C8_2 1_555 1_555
H8_2 C13_2 1_555 1_555
C14_2 C11_2 1_555 1_555
C15_2 C14_2 1_555 1_555
C16_2 H9_2 1_555 1_555
C17_2 C16_2 1_555 1_555
H10_2 C17_2 1_555 1_555
C18_2 C15_2 1_555 1_555
C19_2 C18_2 1_555 1_555
H11_2 C19_2 1_555 1_555
C20_2 C19_2 1_555 1_555
H12_2 C20_2 1_555 1_555
N1_2 C1_2 1_555 1_555
N2_2 Cu1 1_555 1_555
Cu1_2 N1_2 1_555 1_555
C23_2 H18_2 1_555 1_555
C24_2 C23_2 1_555 1_555
H19_2 C24_2 1_555 1_555
C25_2 C24_2 1_555 1_555
C26_2 C25_2 1_555 1_555
H20_2 C26_2 1_555 1_555
C27_2 C26_2 1_555 1_555
H21_2 C27_2 1_555 1_555
C28_2 C25_2 1_555 1_555
C29_2 C28_2 1_555 1_555
C30_2 C29_2 1_555 1_555
C31_2 C30_2 1_555 1_555
H22_2 C31_2 1_555 1_555
C32_2 C31_2 1_555 1_555
H23_2 C32_2 1_555 1_555
C33_2 C32_2 1_555 1_555
C34_2 C33_2 1_555 1_555
H24_2 C34_2 1_555 1_555
C35_2 C30_2 1_555 1_555
H25_2 C35_2 1_555 1_555
C36_2 C33_2 1_555 1_555
C37_2 C36_2 1_555 1_555
C38_2 H26_2 1_555 1_555
C39_2 C38_2 1_555 1_555
H27_2 C39_2 1_555 1_555
C40_2 C37_2 1_555 1_555
C41_2 C40_2 1_555 1_555
H28_2 C41_2 1_555 1_555
C42_2 C41_2 1_555 1_555
H29_2 C42_2 1_555 1_555
N3_2 C23_2 1_555 1_555
N4_2 Cu2 1_555 1_555
Cu2_2 N3_2 1_555 1_555
Cu1_3 N2 1_555 1_555
Cu2_3 N4 1_555 1_555
Cu2A N5A 1_555 1_555
N2_3 Cu1_2 1_555 1_555
O1_2 Cu1_2 1_555 1_555
O4_2 Cu1_2 1_555 1_555
O13_2 Cu1_2 1_555 1_555
N4_3 Cu2_2 1_555 1_555
N5_2 Cu2_2 1_555 1_555
O7_2 Cu2_2 1_555 1_555
O10_2 Cu2_2 1_555 1_555
H46_2 O13_2 1_555 1_555
N6_2 O1_2 1_555 1_555
C21_2 O13_2 1_555 1_555
N7_2 O4_2 1_555 1_555
H13_2 C21_2 1_555 1_555
H14_2 C21_2 1_555 1_555
C22_2 C21_2 1_555 1_555
O5_2 N7_2 1_555 1_555
O6_2 N7_2 1_555 1_555
O2_2 N6_2 1_555 1_555
O3_2 N6_2 1_555 1_555
N9_2 O10_2 1_555 1_555
N8_2 O7_2 1_555 1_555
O11_2 N9_2 1_555 1_555
O12_2 N9_2 1_555 1_555
O8_2 N8_2 1_555 1_555
O9_2 N8_2 1_555 1_555
H15_2 C22_2 1_555 1_555
H16_2 C22_2 1_555 1_555
H17_2 C22_2 1_555 1_555
C5 N1 1_555 1_555
C12 C13 1_555 1_555
C17 C18 1_555 1_555
C20 N2 1_555 1_555
C21 O13 1_555 1_555
C27 N3 1_555 1_555
C34 C35 1_555 1_555
C39 C40 1_555 1_555
C42 N4 1_555 1_555
C43 N5 1_555 1_555
C47 N5 1_555 1_555
C50A C51A 1_555 1_555
C47A C46A 1_555 1_555
C5_2 N1_2 1_555 1_555
C12_2 C13_2 1_555 1_555
C16_2 N2_2 1_555 1_555
C17_2 C18_2 1_555 1_555
C20_2 N2_2 1_555 1_555
C27_2 N3_2 1_555 1_555
C34_2 C35_2 1_555 1_555
C38_2 N4_2 1_555 1_555
C39_2 C40_2 1_555 1_555
C42_2 N4_2 1_555 1_555

#END
