
#######################################################################
#
#                 Cambridge Crystallographic Data Centre
#                                CCDC 
#
#######################################################################
#
# If this CIF has been generated from an entry in the Cambridge 
# Structural Database, then it will include bibliographic, chemical, 
# crystal, experimental, refinement or atomic coordinate data resulting 
# from the CCDC's data processing and validation procedures.
#
#######################################################################

data_ICIFAB
_symmetry_cell_setting           triclinic
_symmetry_space_group_name_H-M   'P -1'
_symmetry_Int_Tables_number      2
_space_group_name_Hall           '-P 1'
loop_
_symmetry_equiv_pos_site_id
_symmetry_equiv_pos_as_xyz
1 x,y,z
2 -x,-y,-z
_cell_length_a                   12.1363(18)
_cell_length_b                   13.738(2)
_cell_length_c                   17.563(3)
_cell_angle_alpha                107.663(3)
_cell_angle_beta                 94.805(4)
_cell_angle_gamma                104.021(4)
_cell_volume                     2667.62
loop_
_atom_site_label
_atom_site_type_symbol
_atom_site_fract_x
_atom_site_fract_y
_atom_site_fract_z
C1 C 0.2322(6) 0.3441(6) 0.0993(4)
H1 H 0.2343 0.2885 0.0519
C2 C 0.1604(5) 0.4071(6) 0.0935(4)
H2 H 0.1137 0.3939 0.0432
C3 C 0.1574(5) 0.4891(5) 0.1614(4)
C4 C 0.2235(5) 0.5012(5) 0.2341(4)
H3 H 0.2209 0.5547 0.2826
C5 C 0.2934(5) 0.4348(5) 0.2355(4)
H4 H 0.3386 0.4441 0.2854
C6 C 0.0846(6) 0.5579(6) 0.1572(4)
C7 C 0.0251(6) 0.6118(5) 0.1505(4)
C8 C -0.0466(6) 0.6796(6) 0.1431(4)
C9 C -0.1653(6) 0.6366(5) 0.1195(4)
H5 H -0.1988 0.5625 0.1075
C10 C -0.2344(5) 0.7005(5) 0.1133(4)
H6 H -0.3151 0.6701 0.0956
C11 C -0.1866(6) 0.8092(5) 0.1327(4)
C12 C -0.0681(6) 0.8522(6) 0.1560(4)
H7 H -0.0344 0.9264 0.1681
C13 C 0.0008(6) 0.7869(6) 0.1614(4)
H8 H 0.0818 0.8168 0.1779
C14 C -0.2564(6) 0.8796(6) 0.1307(4)
C15 C -0.3115(6) 0.9400(5) 0.1328(4)
C16 C -0.5474(6) 1.0618(5) 0.1054(4)
H9 H -0.6247 1.0400 0.0780
C17 C -0.4897(6) 0.9854(6) 0.0976(4)
H10 H -0.5257 0.9135 0.0648
C18 C -0.3770(6) 1.0162(5) 0.1392(4)
C19 C -0.3282(6) 1.1236(6) 0.1823(4)
H11 H -0.2505 1.1482 0.2094
C20 C -0.3915(5) 1.1936(6) 0.1859(4)
H12 H -0.3557 1.2666 0.2161
C51 C 0.5262(8) 0.3346(7) 0.3688(5)
H31 H 0.4810 0.2615 0.3604
H32 H 0.5076 0.3834 0.4162
H33 H 0.6085 0.3399 0.3779
Cu1 Cu 0.40657(7) 0.26992(7) 0.17135(5)
N1 N 0.2987(4) 0.3583(4) 0.1686(3)
N2 N -0.5012(4) 1.1657(4) 0.1495(3)
N6 N 0.5219(5) 0.3752(5) 0.0760(3)
N7 N 0.2179(6) 0.1061(5) 0.1640(5)
O1 O 0.5295(4) 0.3789(3) 0.1509(2)
O2 O 0.4524(4) 0.2978(4) 0.0240(3)
O3 O 0.5847(4) 0.4496(4) 0.0612(3)
O4 O 0.3012(4) 0.1755(4) 0.2174(3)
O5 O 0.2058(5) 0.1089(5) 0.0941(4)
O6 O 0.1533(5) 0.0382(5) 0.1841(5)
O13 O 0.4994(4) 0.3619(4) 0.2997(3)
H34 H 0.555(5) 0.415(5) 0.295(5)
C1_2 C 1.2322(6) -0.6559(6) 0.0993(4)
H1_2 H 1.2343 -0.7115 0.0519
C2_2 C 1.1604(5) -0.5929(6) 0.0935(4)
H2_2 H 1.1137 -0.6061 0.0432
C3_2 C 1.1574(5) -0.5109(5) 0.1614(4)
C4_2 C 1.2235(5) -0.4988(5) 0.2341(4)
H3_2 H 1.2209 -0.4453 0.2826
C5_2 C 1.2934(5) -0.5652(5) 0.2355(4)
H4_2 H 1.3386 -0.5559 0.2854
C6_2 C 1.0846(6) -0.4421(6) 0.1572(4)
C7_2 C 1.0251(6) -0.3882(5) 0.1505(4)
C8_2 C 0.9534(6) -0.3204(6) 0.1431(4)
C9_2 C 0.8347(6) -0.3634(5) 0.1195(4)
H5_2 H 0.8012 -0.4375 0.1075
C10_2 C 0.7656(5) -0.2995(5) 0.1133(4)
H6_2 H 0.6849 -0.3299 0.0956
C11_2 C 0.8134(6) -0.1908(5) 0.1327(4)
C12_2 C 0.9319(6) -0.1478(6) 0.1560(4)
H7_2 H 0.9656 -0.0736 0.1681
C13_2 C 1.0008(6) -0.2131(6) 0.1614(4)
H8_2 H 1.0818 -0.1832 0.1779
C14_2 C 0.7436(6) -0.1204(6) 0.1307(4)
C15_2 C 0.6885(6) -0.0600(5) 0.1328(4)
C16_2 C 0.4526(6) 0.0618(5) 0.1054(4)
H9_2 H 0.3753 0.0400 0.0780
C17_2 C 0.5103(6) -0.0146(6) 0.0976(4)
H10_2 H 0.4743 -0.0865 0.0648
C18_2 C 0.6230(6) 0.0162(5) 0.1392(4)
C19_2 C 0.6718(6) 0.1236(6) 0.1823(4)
H11_2 H 0.7495 0.1482 0.2094
C20_2 C 0.6085(5) 0.1936(6) 0.1859(4)
H12_2 H 0.6443 0.2666 0.2161
N1_2 N 1.2987(4) -0.6417(4) 0.1686(3)
N2_2 N 0.4988(4) 0.1657(4) 0.1495(3)
Cu1_2 Cu 1.40657(7) -0.73008(7) 0.17135(5)
Cu1_3 Cu -0.59343(7) 1.26992(7) 0.17135(5)
N2_3 N 1.4988(4) -0.8343(4) 0.1495(3)
O1_2 O 1.5295(4) -0.6211(3) 0.1509(2)
O4_2 O 1.3012(4) -0.8245(4) 0.2174(3)
O13_2 O 1.4994(4) -0.6381(4) 0.2997(3)
H34_2 H 1.555(5) -0.585(5) 0.295(5)
C51_2 C 1.5262(8) -0.6654(7) 0.3688(5)
N7_2 N 1.2179(6) -0.8939(5) 0.1640(5)
N6_2 N 1.5219(5) -0.6248(5) 0.0760(3)
O2_2 O 1.4524(4) -0.7022(4) 0.0240(3)
O3_2 O 1.5847(4) -0.5504(4) 0.0612(3)
O5_2 O 1.2058(5) -0.8911(5) 0.0941(4)
O6_2 O 1.1533(5) -0.9618(5) 0.1841(5)
H31_2 H 1.4810 -0.7385 0.3604
H32_2 H 1.5076 -0.6166 0.4162
H33_2 H 1.6085 -0.6601 0.3779
C21 C 0.4291(6) 0.7632(5) 0.2874(4)
H13 H 0.4254 0.8068 0.3401
C22 C 0.3639(5) 0.7682(5) 0.2225(4)
H14 H 0.3150 0.8136 0.2311
C23 C 0.3679(5) 0.7077(5) 0.1442(4)
C24 C 0.4385(5) 0.6407(5) 0.1359(4)
H15 H 0.4439 0.5971 0.0836
C25 C 0.5015(5) 0.6380(5) 0.2049(3)
H16 H 0.5483 0.5907 0.1982
C26 C 0.3027(6) 0.7161(5) 0.0760(4)
C27 C 0.2472(6) 0.7292(6) 0.0228(4)
C28 C 0.1790(5) 0.7380(5) -0.0449(4)
C29 C 0.1257(5) 0.8190(6) -0.0345(4)
H17 H 0.1357 0.8711 0.0175
C30 C 0.0579(6) 0.8233(6) -0.1004(4)
H18 H 0.0227 0.8793 -0.0938
C31 C 0.0413(5) 0.7457(6) -0.1761(4)
C32 C 0.0937(5) 0.6654(5) -0.1857(4)
H19 H 0.0819 0.6123 -0.2374
C33 C 0.1635(5) 0.6611(5) -0.1208(4)
H20 H 0.2004 0.6061 -0.1281
C34 C -0.0309(5) 0.7468(6) -0.2450(4)
C35 C -0.0899(6) 0.7407(6) -0.3046(4)
C36 C -0.2180(7) 0.8140(6) -0.4712(4)
H21 H -0.2093 0.8759 -0.4863
C37 C -0.1501(7) 0.8221(6) -0.4018(4)
H22 H -0.0962 0.8881 -0.3704
C38 C -0.1603(6) 0.7346(6) -0.3780(4)
C39 C -0.2377(6) 0.6417(6) -0.4265(4)
H23 H -0.2468 0.5785 -0.4133
C40 C -0.3029(6) 0.6412(6) -0.4954(4)
H24 H -0.3568 0.5759 -0.5283
C41 C 0.6438(6) 0.9450(5) 0.4387(4)
H25 H 0.5877 0.9278 0.4707
C42 C 0.6895(6) 1.0507(6) 0.4469(4)
H26 H 0.6634 1.1044 0.4824
C43 C 0.7745(6) 1.0776(6) 0.4022(4)
C44 C 0.8024(7) 0.9952(6) 0.3481(4)
H27 H 0.8562 1.0100 0.3139
C45 C 0.7527(6) 0.8906(5) 0.3428(4)
H28 H 0.7748 0.8349 0.3060
C46 C 0.8338(6) 1.1879(6) 0.4174(4)
C47 C 0.8820(7) 1.2799(6) 0.4401(4)
C48 C 0.9423(6) 1.3919(5) 0.4695(4)
C49 C 0.9195(7) 1.4604(6) 0.4312(5)
H29 H 0.8637 1.4331 0.3830
C50 C 1.0248(7) 1.4331(6) 0.5390(4)
H30 H 1.0427 1.3873 0.5662
Cu2 Cu 0.60363(7) 0.71216(7) 0.37973(5)
N3 N 0.4993(4) 0.6985(4) 0.2799(3)
N4 N -0.2951(5) 0.7251(4) -0.5185(3)
N5 N 0.6744(5) 0.8665(4) 0.3884(3)
N8 N 0.7359(6) 0.5732(6) 0.3051(3)
N9 N 0.4015(5) 0.6666(5) 0.4430(3)
O7 O 0.6344(4) 0.5640(4) 0.3225(2)
O8 O 0.7939(5) 0.6617(5) 0.3104(3)
O9 O 0.7701(4) 0.4940(4) 0.2825(3)
O10 O 0.4574(4) 0.6060(4) 0.4071(3)
O11 O 0.4491(4) 0.7647(4) 0.4667(3)
O12 O 0.3043(5) 0.6305(5) 0.4534(3)
C50A C 0.9752(7) 1.5669(6) 0.4610(4)
C48A C 1.0577(6) 1.6081(5) 0.5305(4)
C47A C 1.1180(7) 1.7201(6) 0.5599(4)
C46A C 1.1662(6) 1.8121(6) 0.5826(4)
C43A C 1.2255(6) 1.9224(6) 0.5978(4)
C42A C 1.3105(6) 1.9493(6) 0.5531(4)
C41A C 1.3562(6) 2.0550(5) 0.5613(4)
H25A H 1.4123 2.0722 0.5293
N5A N 1.3256(5) 2.1335(4) 0.6116(3)
C45A C 1.2473(6) 2.1094(5) 0.6572(4)
C44A C 1.1976(7) 2.0048(6) 0.6519(4)
H27A H 1.1438 1.9900 0.6861
H28A H 1.2252 2.1651 0.6940
H26A H 1.3366 1.8956 0.5176
C49A C 1.0805(7) 1.5396(6) 0.5688(5)
H29A H 1.1363 1.5669 0.6170
H30A H 0.9573 1.6127 0.4338
C21_2 C 1.4291(6) 0.7632(5) 1.2874(4)
H13_2 H 1.4254 0.8068 1.3401
C22_2 C 1.3639(5) 0.7682(5) 1.2225(4)
H14_2 H 1.3150 0.8136 1.2311
C23_2 C 1.3679(5) 0.7077(5) 1.1442(4)
C24_2 C 1.4385(5) 0.6407(5) 1.1359(4)
H15_2 H 1.4439 0.5971 1.0836
C25_2 C 1.5015(5) 0.6380(5) 1.2049(3)
H16_2 H 1.5483 0.5907 1.1982
C26_2 C 1.3027(6) 0.7161(5) 1.0760(4)
C27_2 C 1.2472(6) 0.7292(6) 1.0228(4)
C28_2 C 1.1790(5) 0.7380(5) 0.9551(4)
C29_2 C 1.1257(5) 0.8190(6) 0.9655(4)
H17_2 H 1.1357 0.8711 1.0175
C30_2 C 1.0579(6) 0.8233(6) 0.8996(4)
H18_2 H 1.0227 0.8793 0.9062
C31_2 C 1.0413(5) 0.7457(6) 0.8239(4)
C32_2 C 1.0937(5) 0.6654(5) 0.8143(4)
H19_2 H 1.0819 0.6123 0.7626
C33_2 C 1.1635(5) 0.6611(5) 0.8792(4)
H20_2 H 1.2004 0.6061 0.8719
C34_2 C 0.9691(5) 0.7468(6) 0.7550(4)
C35_2 C 0.9101(6) 0.7407(6) 0.6954(4)
C36_2 C 0.7820(7) 0.8140(6) 0.5288(4)
H21_2 H 0.7907 0.8759 0.5137
C37_2 C 0.8499(7) 0.8221(6) 0.5982(4)
H22_2 H 0.9038 0.8881 0.6296
C38_2 C 0.8397(6) 0.7346(6) 0.6220(4)
C39_2 C 0.7623(6) 0.6417(6) 0.5735(4)
H23_2 H 0.7532 0.5785 0.5867
C40_2 C 0.6971(6) 0.6412(6) 0.5046(4)
H24_2 H 0.6432 0.5759 0.4717
N3_2 N 1.4993(4) 0.6985(4) 1.2799(3)
N4_2 N 0.7049(5) 0.7251(4) 0.4815(3)
Cu2_2 Cu 1.60363(7) 0.71216(7) 1.37973(5)
Cu2_3 Cu -0.39637(7) 0.71216(7) -0.62027(5)
Cu2A Cu 1.39637(7) 2.28784(7) 0.62027(5)
N4_3 N 1.7049(5) 0.7251(4) 1.4815(3)
N5_2 N 1.6744(5) 0.8665(4) 1.3884(3)
O7_2 O 1.6344(4) 0.5640(4) 1.3225(2)
O10_2 O 1.4574(4) 0.6060(4) 1.4071(3)
N8_2 N 1.7359(6) 0.5732(6) 1.3051(3)
O8_2 O 1.7939(5) 0.6617(5) 1.3104(3)
O9_2 O 1.7701(4) 0.4940(4) 1.2825(3)
N9_2 N 1.4015(5) 0.6666(5) 1.4430(3)
O11_2 O 1.4491(4) 0.7647(4) 1.4667(3)
O12_2 O 1.3043(5) 0.6305(5) 1.4534(3)
C52 C 0.3975(11) 0.0397(8) 0.3383(7)
H35 H 0.3989 0.1147 0.3604
H36 H 0.4286 0.0273 0.2876
H37 H 0.4446 0.0221 0.3775
O14 O 0.2869(11) -0.0231(8) 0.3236(8)
H38 H 0.2517 -0.0071 0.2873
O15 O 0.9378(12) 0.0879(11) 0.5837(9)
H39 H 0.9030 0.0462 0.6060
C53 C 0.9299(11) 0.1887(10) 0.6218(8)
H40 H 0.9962 0.2277 0.6654
H41 H 0.8586 0.1841 0.6446
H42 H 0.9291 0.2262 0.5824
loop_
_geom_bond_atom_site_label_1
_geom_bond_atom_site_label_2
_geom_bond_site_symmetry_1
_geom_bond_site_symmetry_2
C1 H1 1_555 1_555
C2 C1 1_555 1_555
H2 C2 1_555 1_555
C3 C2 1_555 1_555
C4 C3 1_555 1_555
H3 C4 1_555 1_555
C5 C4 1_555 1_555
H4 C5 1_555 1_555
C6 C3 1_555 1_555
C7 C6 1_555 1_555
C8 C7 1_555 1_555
C9 C8 1_555 1_555
H5 C9 1_555 1_555
C10 C9 1_555 1_555
H6 C10 1_555 1_555
C11 C10 1_555 1_555
C12 C11 1_555 1_555
H7 C12 1_555 1_555
C13 C8 1_555 1_555
H8 C13 1_555 1_555
C14 C11 1_555 1_555
C15 C14 1_555 1_555
C16 H9 1_555 1_555
C17 C16 1_555 1_555
H10 C17 1_555 1_555
C18 C15 1_555 1_555
C19 C18 1_555 1_555
H11 C19 1_555 1_555
C20 C19 1_555 1_555
H12 C20 1_555 1_555
C21 H13 1_555 1_555
C22 C21 1_555 1_555
H14 C22 1_555 1_555
C23 C22 1_555 1_555
C24 C23 1_555 1_555
H15 C24 1_555 1_555
C25 C24 1_555 1_555
H16 C25 1_555 1_555
C26 C23 1_555 1_555
C27 C26 1_555 1_555
C28 C27 1_555 1_555
C29 C28 1_555 1_555
H17 C29 1_555 1_555
C30 C29 1_555 1_555
H18 C30 1_555 1_555
C31 C30 1_555 1_555
C32 C31 1_555 1_555
H19 C32 1_555 1_555
C33 C28 1_555 1_555
H20 C33 1_555 1_555
C34 C31 1_555 1_555
C35 C34 1_555 1_555
C36 H21 1_555 1_555
C37 C36 1_555 1_555
H22 C37 1_555 1_555
C38 C35 1_555 1_555
C39 C38 1_555 1_555
H23 C39 1_555 1_555
C40 C39 1_555 1_555
H24 C40 1_555 1_555
C41 H25 1_555 1_555
C42 C41 1_555 1_555
H26 C42 1_555 1_555
C43 C42 1_555 1_555
C44 C43 1_555 1_555
H27 C44 1_555 1_555
C45 C44 1_555 1_555
H28 C45 1_555 1_555
C46 C43 1_555 1_555
C47 C46 1_555 1_555
C48 C47 1_555 1_555
C49 C48 1_555 1_555
H29 C49 1_555 1_555
C50 C48 1_555 1_555
H30 C50 1_555 1_555
C51 H31 1_555 1_555
H32 C51 1_555 1_555
H33 C51 1_555 1_555
Cu1 N1 1_555 1_555
Cu2 N3 1_555 1_555
N1 C1 1_555 1_555
N2 C16 1_555 1_555
N3 C21 1_555 1_555
N4 C36 1_555 1_555
N5 C41 1_555 1_555
N6 O1 1_555 1_555
N7 O4 1_555 1_555
N8 O7 1_555 1_555
N9 O10 1_555 1_555
O1 Cu1 1_555 1_555
O2 N6 1_555 1_555
O3 N6 1_555 1_555
O4 Cu1 1_555 1_555
O5 N7 1_555 1_555
O6 N7 1_555 1_555
O7 Cu2 1_555 1_555
O8 N8 1_555 1_555
O9 N8 1_555 1_555
O10 Cu2 1_555 1_555
O11 N9 1_555 1_555
O12 N9 1_555 1_555
O13 C51 1_555 1_555
H34 O13 1_555 1_555
C52 H35 1_555 1_555
H36 C52 1_555 1_555
H37 C52 1_555 1_555
O14 C52 1_555 1_555
H38 O14 1_555 1_555
O15 H39 1_555 1_555
C53 O15 1_555 1_555
H40 C53 1_555 1_555
H41 C53 1_555 1_555
H42 C53 1_555 1_555
C50A C49 1_555 1_555
C48A C50A 1_555 1_555
C47A C48A 1_555 1_555
C46A C47A 1_555 1_555
C43A C46A 1_555 1_555
C42A C43A 1_555 1_555
C41A C42A 1_555 1_555
H25A C41A 1_555 1_555
N5A C41A 1_555 1_555
C45A N5A 1_555 1_555
C44A C43A 1_555 1_555
H27A C44A 1_555 1_555
H28A C45A 1_555 1_555
H26A C42A 1_555 1_555
C49A C50 1_555 1_555
H29A C49A 1_555 1_555
H30A C50A 1_555 1_555
C1_2 H1_2 1_555 1_555
C2_2 C1_2 1_555 1_555
H2_2 C2_2 1_555 1_555
C3_2 C2_2 1_555 1_555
C4_2 C3_2 1_555 1_555
H3_2 C4_2 1_555 1_555
C5_2 C4_2 1_555 1_555
H4_2 C5_2 1_555 1_555
C6_2 C3_2 1_555 1_555
C7_2 C6_2 1_555 1_555
C8_2 C7_2 1_555 1_555
C9_2 C8_2 1_555 1_555
H5_2 C9_2 1_555 1_555
C10_2 C9_2 1_555 1_555
H6_2 C10_2 1_555 1_555
C11_2 C10_2 1_555 1_555
C12_2 C11_2 1_555 1_555
H7_2 C12_2 1_555 1_555
C13_2 C8_2 1_555 1_555
H8_2 C13_2 1_555 1_555
C14_2 C11_2 1_555 1_555
C15_2 C14_2 1_555 1_555
C16_2 H9_2 1_555 1_555
C17_2 C16_2 1_555 1_555
H10_2 C17_2 1_555 1_555
C18_2 C15_2 1_555 1_555
C19_2 C18_2 1_555 1_555
H11_2 C19_2 1_555 1_555
C20_2 C19_2 1_555 1_555
H12_2 C20_2 1_555 1_555
N1_2 C1_2 1_555 1_555
N2_2 Cu1 1_555 1_555
Cu1_2 N1_2 1_555 1_555
C21_2 H13_2 1_555 1_555
C22_2 C21_2 1_555 1_555
H14_2 C22_2 1_555 1_555
C23_2 C22_2 1_555 1_555
C24_2 C23_2 1_555 1_555
H15_2 C24_2 1_555 1_555
C25_2 C24_2 1_555 1_555
H16_2 C25_2 1_555 1_555
C26_2 C23_2 1_555 1_555
C27_2 C26_2 1_555 1_555
C28_2 C27_2 1_555 1_555
C29_2 C28_2 1_555 1_555
H17_2 C29_2 1_555 1_555
C30_2 C29_2 1_555 1_555
H18_2 C30_2 1_555 1_555
C31_2 C30_2 1_555 1_555
C32_2 C31_2 1_555 1_555
H19_2 C32_2 1_555 1_555
C33_2 C28_2 1_555 1_555
H20_2 C33_2 1_555 1_555
C34_2 C31_2 1_555 1_555
C35_2 C34_2 1_555 1_555
C36_2 H21_2 1_555 1_555
C37_2 C36_2 1_555 1_555
H22_2 C37_2 1_555 1_555
C38_2 C35_2 1_555 1_555
C39_2 C38_2 1_555 1_555
H23_2 C39_2 1_555 1_555
C40_2 C39_2 1_555 1_555
H24_2 C40_2 1_555 1_555
N3_2 C21_2 1_555 1_555
N4_2 Cu2 1_555 1_555
Cu2_2 N3_2 1_555 1_555
Cu1_3 N2 1_555 1_555
Cu2_3 N4 1_555 1_555
Cu2A N5A 1_555 1_555
N2_3 Cu1_2 1_555 1_555
O1_2 Cu1_2 1_555 1_555
O4_2 Cu1_2 1_555 1_555
O13_2 Cu1_2 1_555 1_555
N4_3 Cu2_2 1_555 1_555
N5_2 Cu2_2 1_555 1_555
O7_2 Cu2_2 1_555 1_555
O10_2 Cu2_2 1_555 1_555
H34_2 O13_2 1_555 1_555
N8_2 O7_2 1_555 1_555
O8_2 N8_2 1_555 1_555
O9_2 N8_2 1_555 1_555
N9_2 O10_2 1_555 1_555
O11_2 N9_2 1_555 1_555
O12_2 N9_2 1_555 1_555
C51_2 O13_2 1_555 1_555
N7_2 O4_2 1_555 1_555
N6_2 O1_2 1_555 1_555
O2_2 N6_2 1_555 1_555
O3_2 N6_2 1_555 1_555
O5_2 N7_2 1_555 1_555
O6_2 N7_2 1_555 1_555
H31_2 C51_2 1_555 1_555
H32_2 C51_2 1_555 1_555
H33_2 C51_2 1_555 1_555
C5 N1 1_555 1_555
C12 C13 1_555 1_555
C17 C18 1_555 1_555
C20 N2 1_555 1_555
C25 N3 1_555 1_555
C32 C33 1_555 1_555
C37 C38 1_555 1_555
C40 N4 1_555 1_555
C45 N5 1_555 1_555
Cu1 O13 1_555 1_555
Cu2 N5 1_555 1_555
C48A C49A 1_555 1_555
C45A C44A 1_555 1_555
C5_2 N1_2 1_555 1_555
C12_2 C13_2 1_555 1_555
C16_2 N2_2 1_555 1_555
C17_2 C18_2 1_555 1_555
C20_2 N2_2 1_555 1_555
C25_2 N3_2 1_555 1_555
C32_2 C33_2 1_555 1_555
C36_2 N4_2 1_555 1_555
C37_2 C38_2 1_555 1_555
C40_2 N4_2 1_555 1_555

#END
