
#######################################################################
#
#                 Cambridge Crystallographic Data Centre
#                                CCDC 
#
#######################################################################
#
# If this CIF has been generated from an entry in the Cambridge 
# Structural Database, then it will include bibliographic, chemical, 
# crystal, experimental, refinement or atomic coordinate data resulting 
# from the CCDC's data processing and validation procedures.
#
#######################################################################

data_ICIMUD
_symmetry_cell_setting           triclinic
_symmetry_space_group_name_H-M   'P -1'
_symmetry_Int_Tables_number      2
_space_group_name_Hall           '-P 1'
loop_
_symmetry_equiv_pos_site_id
_symmetry_equiv_pos_as_xyz
1 x,y,z
2 -x,-y,-z
_cell_length_a                   11.82920(10)
_cell_length_b                   13.53550(10)
_cell_length_c                   13.7381(2)
_cell_angle_alpha                88.99
_cell_angle_beta                 66.9120(10)
_cell_angle_gamma                66.2370(10)
_cell_volume                     1826
loop_
_atom_site_label
_atom_site_type_symbol
_atom_site_fract_x
_atom_site_fract_y
_atom_site_fract_z
O1 O 0.1062(8) 0.5756(7) 0.3998(7)
O2 O 0.1414(8) 0.5664(7) 0.7273(7)
O3 O 0.3511(8) 0.5144(6) 0.6069(6)
O4 O 0.3356(8) 0.9219(7) 0.5978(7)
O5 O 0.4629(8) 0.6915(7) 0.5069(7)
H1 H 0.380(17) 0.71(3) 0.51(3)
H2 H 0.512(15) 0.625(6) 0.466(12)
O6 O 0.2444(8) 0.8354(7) 0.7177(6)
O7 O -0.2530(7) 0.6184(6) 0.4850(6)
O8 O 0.1953(7) 0.7422(6) 0.5563(7)
O9 O -0.3449(8) 0.7955(6) 0.4810(6)
O10 O -0.0154(7) 0.7646(6) 0.6198(7)
O11 O 0.6867(9) 0.7131(7) 0.6937(8)
H3 H 0.710(16) 0.739(13) 0.740(10)
H4 H 0.769(15) 0.657(17) 0.67(3)
O12 O 0.0336(7) 0.4525(6) 0.3797(6)
O13 O 0.6392(8) 0.4433(7) 0.6126(7)
O14 O 0.4949(9) 0.6118(7) 0.7019(7)
C1 C 0.2676(11) 0.5230(9) 0.7027(9)
C2 C 0.2349(11) 0.9034(9) 0.6538(9)
C3 C 0.0696(11) 0.8053(8) 0.6030(9)
C4 C -0.2533(11) 0.7004(8) 0.4372(9)
C5 C 0.3190(11) 0.4811(8) 0.7854(8)
C6 C 0.4933(12) 0.4229(10) 0.8512(10)
H7 H 0.5782 0.4143 0.8447
C7 C 0.0211(11) 0.9256(9) 0.6320(8)
C8 C 0.4485(10) 0.4670(8) 0.7737(8)
C9 C -0.1479(11) 0.6862(9) 0.3266(8)
C10 C 0.1019(11) 0.9709(8) 0.6472(9)
C11 C -0.0095(11) 0.6080(9) 0.2900(8)
C12 C 0.0441(10) 0.5417(9) 0.3628(9)
C13 C -0.1028(11) 0.9956(9) 0.6308(9)
H8 H -0.1581 0.9665 0.6224
C14 C -0.1887(12) 0.7536(10) 0.2553(10)
H9 H -0.2780 0.8064 0.2782
C15 C -0.1450(12) 1.1085(10) 0.6421(9)
H10 H -0.2277 1.1539 0.6407
C16 C 0.0589(13) 1.0835(10) 0.6565(10)
H11 H 0.1143 1.1131 0.6637
C17 C -0.0963(12) 0.7403(10) 0.1536(10)
H12 H -0.1240 0.7848 0.1073
C18 C 0.5476(12) 1.0055(9) 0.6334(10)
H13 H 0.5787 0.9796 0.5612
C19 C 0.4497(11) 0.9888(9) 0.8114(10)
C20 C 0.5539(13) 1.0996(10) 0.6607(10)
H14 H 0.5902 1.1358 0.6078
C21 C 0.0824(12) 0.5990(10) 0.1852(9)
H15 H 0.1737 0.5501 0.1612
C22 C 0.0360(14) 0.6643(11) 0.1162(10)
H16 H 0.0954 0.6557 0.0449
C23 C 0.5059(14) 1.1393(11) 0.7669(12)
H17 H 0.5097 1.2027 0.7869
C24 C 0.4520(14) 1.0850(11) 0.8437(12)
H18 H 0.4176 1.1118 0.9162
C25 C 0.3895(12) 0.9257(10) 0.8902(10)
C26 C 0.2407(12) 0.4478(10) 0.8714(10)
H19 H 0.1560 0.4556 0.8783
C27 C 0.2871(15) 0.4032(11) 0.9474(10)
H20 H 0.2338 0.3809 1.0047
C28 C 0.5343(12) 0.5097(9) 0.6884(9)
C29 C 0.3361(15) 0.7781(12) 0.9189(10)
H21 H 0.3367 0.7156 0.8911
C30 C -0.0647(13) 1.1532(10) 0.6554(11)
H22 H -0.0928 1.2286 0.6635
C31 C 0.2782(16) 0.8078(13) 1.0265(11)
H23 H 0.2412 0.7660 1.0711
C32 C 0.3315(18) 0.9618(14) 0.9998(11)
H24 H 0.3302 1.0250 1.0268
C33 C 0.2747(19) 0.8996(15) 1.0691(12)
H25 H 0.2352 0.9211 1.1431
C34 C 0.4124(14) 0.3917(11) 0.9382(10)
H26 H 0.4427 0.3631 0.9902
Gd1 Gd 0.16620(5) 0.57682(4) 0.54270(4)
Gd2 Gd 0.49851(5) 0.77061(4) 0.64352(4)
N1 N 0.4980(9) 0.9490(8) 0.7072(7)
N2 N 0.3939(10) 0.8348(8) 0.8485(7)
O7A O 0.2530(7) 0.3816(6) 0.5150(6)
O7_2 O 0.7470(7) 0.6184(6) 0.4850(6)
O9_2 O 0.6551(8) 0.7955(6) 0.4810(6)
O12A O -0.0336(7) 0.5475(6) 0.6203(6)
O13A O 0.3608(8) 0.5567(7) 0.3874(7)
Gd1A Gd -0.16620(5) 0.42318(4) 0.45730(4)
Gd1A_2 Gd 0.83380(5) 0.42318(4) 0.45730(4)
Gd2_2 Gd -0.50149(5) 0.77061(4) 0.64352(4)
O15 O 0.2564(12) 0.1716(11) 0.1846(10)
H5 H 0.24(3) 0.222(17) 0.142(18)
H6 H 0.202(13) 0.179(13) 0.254(4)
O16 O 0.0783(15) 0.2789(15) 0.0995(11)
O17 O 0.9732(18) 0.131(2) 0.0866(15)
loop_
_geom_bond_atom_site_label_1
_geom_bond_atom_site_label_2
_geom_bond_site_symmetry_1
_geom_bond_site_symmetry_2
O1 C12 1_555 1_555
O2 C1 1_555 1_555
O3 C1 1_555 1_555
O4 C2 1_555 1_555
O5 H1 1_555 1_555
H2 O5 1_555 1_555
O6 C2 1_555 1_555
O7 C4 1_555 1_555
O8 C3 1_555 1_555
O9 C4 1_555 1_555
O10 C3 1_555 1_555
O11 H3 1_555 1_555
H4 O11 1_555 1_555
O12 C12 1_555 1_555
O13 C28 1_555 1_555
O14 C28 1_555 1_555
O15 H5 1_555 1_555
H6 O15 1_555 1_555
C1 C5 1_555 1_555
C2 C10 1_555 1_555
C3 C7 1_555 1_555
C4 C9 1_555 1_555
C5 C8 1_555 1_555
C6 H7 1_555 1_555
C7 C10 1_555 1_555
C8 C6 1_555 1_555
C9 C11 1_555 1_555
C10 C16 1_555 1_555
C11 C12 1_555 1_555
C13 C7 1_555 1_555
H8 C13 1_555 1_555
C14 C9 1_555 1_555
H9 C14 1_555 1_555
C15 C13 1_555 1_555
H10 C15 1_555 1_555
C16 H11 1_555 1_555
C17 C14 1_555 1_555
H12 C17 1_555 1_555
C18 H13 1_555 1_555
C19 C24 1_555 1_555
C20 C18 1_555 1_555
H14 C20 1_555 1_555
C21 C11 1_555 1_555
H15 C21 1_555 1_555
C22 C17 1_555 1_555
H16 C22 1_555 1_555
C23 C20 1_555 1_555
H17 C23 1_555 1_555
C24 C23 1_555 1_555
H18 C24 1_555 1_555
C25 C19 1_555 1_555
C26 C5 1_555 1_555
H19 C26 1_555 1_555
C27 C26 1_555 1_555
H20 C27 1_555 1_555
C28 C8 1_555 1_555
C29 H21 1_555 1_555
C30 C15 1_555 1_555
H22 C30 1_555 1_555
C31 C29 1_555 1_555
H23 C31 1_555 1_555
C32 C25 1_555 1_555
H24 C32 1_555 1_555
C33 C31 1_555 1_555
H25 C33 1_555 1_555
C34 C6 1_555 1_555
H26 C34 1_555 1_555
Gd1 O1 1_555 1_555
Gd2 O4 1_555 1_555
N1 C18 1_555 1_555
N2 C25 1_555 1_555
O7A Gd1 1_555 1_555
O7_2 Gd2 1_555 1_555
O9_2 Gd2 1_555 1_555
O12A Gd1 1_555 1_555
O13A Gd1 1_555 1_555
Gd1A O7 1_555 1_555
Gd1A_2 O13 1_555 1_555
Gd2_2 O7 1_555 1_555
O2 Gd1 1_555 1_555
O3 Gd1 1_555 1_555
O5 Gd2 1_555 1_555
O6 Gd2 1_555 1_555
O8 Gd1 1_555 1_555
O9 Gd2_2 1_555 1_555
O10 Gd1 1_555 1_555
O11 Gd2 1_555 1_555
O12 Gd1A 1_555 1_555
O14 Gd2 1_555 1_555
C16 C30 1_555 1_555
C19 N1 1_555 1_555
C21 C22 1_555 1_555
C27 C34 1_555 1_555
C29 N2 1_555 1_555
C32 C33 1_555 1_555
Gd2 N1 1_555 1_555
Gd2 N2 1_555 1_555
O7_2 Gd1A_2 1_555 1_555

#END
