
#######################################################################
#
#                 Cambridge Crystallographic Data Centre
#                                CCDC 
#
#######################################################################
#
# If this CIF has been generated from an entry in the Cambridge 
# Structural Database, then it will include bibliographic, chemical, 
# crystal, experimental, refinement or atomic coordinate data resulting 
# from the CCDC's data processing and validation procedures.
#
#######################################################################

data_ICIMEN
_symmetry_cell_setting           tetragonal
_symmetry_space_group_name_H-M   'P 4/n c c'
_symmetry_Int_Tables_number      130
_space_group_name_Hall           '-P 4a 2ac'
loop_
_symmetry_equiv_pos_site_id
_symmetry_equiv_pos_as_xyz
1 x,y,z
2 1/2-y,x,z
3 y,1/2-x,z
4 1/2+y,1/2+x,1/2-z
5 1/2-x,1/2-y,z
6 -x,1/2+y,1/2-z
7 1/2+x,-y,1/2-z
8 -y,-x,1/2-z
9 -x,-y,-z
10 1/2+y,-x,-z
11 -y,1/2+x,-z
12 1/2-y,1/2-x,1/2+z
13 1/2+x,1/2+y,-z
14 x,1/2-y,1/2+z
15 1/2-x,y,1/2+z
16 y,x,1/2+z
_cell_length_a                   28.8451(10)
_cell_length_b                   28.8451(10)
_cell_length_c                   15.5571(11)
_cell_angle_alpha                90
_cell_angle_beta                 90
_cell_angle_gamma                90
_cell_volume                     12944.1
loop_
_atom_site_label
_atom_site_type_symbol
_atom_site_fract_x
_atom_site_fract_y
_atom_site_fract_z
Cd1 Cd 0.013892(19) 0.33634(2) 0.43322(3)
N1 N -0.0199(2) 0.2637(2) 0.4758(4)
H1 H -0.0463 0.2693 0.5047
H2 H -0.0272 0.2474 0.4284
O1 O -0.0145(3) 0.2222(3) 0.7904(4)
O2 O 0.0470(2) 0.1771(2) 0.8050(3)
C1 C 0.0101(3) 0.2366(2) 0.5284(4)
C2 C 0.0025(3) 0.2328(2) 0.6164(4)
H3 H -0.0234 0.2469 0.6407
C3 C 0.0326(3) 0.2087(2) 0.6681(4)
C4 C 0.0714(3) 0.1886(3) 0.6330(5)
H4 H 0.0922 0.1730 0.6682
C5 C 0.0797(3) 0.1916(3) 0.5453(6)
H5 H 0.1055 0.1773 0.5213
C6 C 0.0489(3) 0.2160(3) 0.4938(5)
H6 H 0.0545 0.2185 0.4351
C7 C 0.0212(3) 0.2032(3) 0.7619(5)
N2 N 0.0126(3) 0.3477(2) 0.5855(4)
N3 N 0.0884(2) 0.32216(19) 0.4924(4)
N4 N -0.0545(2) 0.3752(3) 0.3975(4)
N5 N 0.0292(2) 0.4178(2) 0.4238(4)
C8 C -0.0247(4) 0.3579(3) 0.6301(6)
H7 H -0.0516 0.3661 0.6009
C9 C -0.0256(5) 0.3567(3) 0.7186(8)
H8 H -0.0528 0.3629 0.7484
C10 C 0.0139(6) 0.3462(4) 0.7615(7)
H9 H 0.0139 0.3467 0.8213
C11 C 0.0533(4) 0.3352(3) 0.7192(5)
C12 C 0.0959(5) 0.3219(4) 0.7566(6)
H10 H 0.0982 0.3235 0.8162
C13 C 0.1338(5) 0.3071(4) 0.7128(7)
H11 H 0.1599 0.2965 0.7420
C14 C 0.1328(4) 0.3080(3) 0.6203(6)
C15 C 0.1689(3) 0.2937(3) 0.5704(8)
H12 H 0.1962 0.2839 0.5963
C16 C 0.1655(3) 0.2936(3) 0.4852(7)
H13 H 0.1903 0.2841 0.4512
C17 C 0.1248(3) 0.3077(3) 0.4484(5)
H14 H 0.1227 0.3072 0.3888
C18 C 0.0917(3) 0.3220(2) 0.5792(4)
C19 C 0.0518(3) 0.3356(2) 0.6279(5)
C20 C -0.0943(3) 0.3550(4) 0.3865(6)
H15 H -0.0969 0.3233 0.3965
C21 C -0.1342(3) 0.3805(5) 0.3594(7)
H16 H -0.1626 0.3656 0.3539
C22 C -0.1307(4) 0.4253(5) 0.3421(7)
H17 H -0.1566 0.4416 0.3236
C23 C -0.0880(4) 0.4483(3) 0.3516(5)
C24 C -0.0817(5) 0.4957(4) 0.3342(7)
H18 H -0.1067 0.5127 0.3135
C25 C -0.0413(5) 0.5172(4) 0.3462(6)
H19 H -0.0382 0.5485 0.3327
C26 C -0.0028(4) 0.4919(3) 0.3802(5)
C27 C 0.0400(5) 0.5119(3) 0.3989(6)
H20 H 0.0445 0.5434 0.3894
C28 C 0.0751(4) 0.4857(4) 0.4310(6)
H21 H 0.1032 0.4993 0.4458
C29 C 0.0685(3) 0.4389(3) 0.4412(5)
H22 H 0.0931 0.4212 0.4615
C30 C -0.0071(3) 0.4440(3) 0.3953(4)
C31 C -0.0500(3) 0.4218(3) 0.3811(5)
Cd1M Cd 0.013892(19) 0.16366(2) -0.06678(3)
Cd1M_2 Cd 0.013892(19) 0.16366(2) 0.93322(3)
Cd1_2 Cd 0.013892(19) 0.33634(2) -0.56678(3)
Cd1_3 Cd 0.013892(19) 0.33634(2) 1.43322(3)
N1M N -0.0199(2) 0.2363(2) -0.0242(4)
N1_2 N -0.0199(2) 0.2637(2) -0.5242(4)
N1M_2 N -0.0199(2) 0.2363(2) 0.9758(4)
H1M H -0.0463 0.2307 0.0047
H1_2 H -0.0463 0.2693 -0.4953
H1M_2 H -0.0463 0.2307 1.0047
H2M H -0.0272 0.2526 -0.0716
H2_2 H -0.0272 0.2474 -0.5716
H2M_2 H -0.0272 0.2526 0.9284
O1M O -0.0145(3) 0.2778(3) 0.2904(4)
O1_2 O -0.0145(3) 0.2222(3) -0.2096(4)
O1M_2 O -0.0145(3) 0.2778(3) 1.2904(4)
O2M O 0.0470(2) 0.3229(2) 0.3050(3)
O2_2 O 0.0470(2) 0.1771(2) -0.1950(3)
O2M_2 O 0.0470(2) 0.3229(2) 1.3050(3)
O2M_3 O 0.0470(2) 0.3229(2) -0.6950(3)
C1M C 0.0101(3) 0.2634(2) 0.0284(4)
C1_2 C 0.0101(3) 0.2366(2) -0.4716(4)
C1M_2 C 0.0101(3) 0.2634(2) 1.0284(4)
C2M C 0.0025(3) 0.2672(2) 0.1164(4)
C2_2 C 0.0025(3) 0.2328(2) -0.3836(4)
C2M_2 C 0.0025(3) 0.2672(2) 1.1164(4)
H3M H -0.0234 0.2531 0.1407
H3_2 H -0.0234 0.2469 -0.3593
H3M_2 H -0.0234 0.2531 1.1407
C3M C 0.0326(3) 0.2913(2) 0.1681(4)
C3_2 C 0.0326(3) 0.2087(2) -0.3319(4)
C3M_2 C 0.0326(3) 0.2913(2) 1.1681(4)
C4M C 0.0714(3) 0.3114(3) 0.1330(5)
C4_2 C 0.0714(3) 0.1886(3) -0.3670(5)
C4M_2 C 0.0714(3) 0.3114(3) 1.1330(5)
H4M H 0.0922 0.3270 0.1682
H4_2 H 0.0922 0.1730 -0.3318
H4M_2 H 0.0922 0.3270 1.1682
C5M C 0.0797(3) 0.3084(3) 0.0453(6)
C5_2 C 0.0797(3) 0.1916(3) -0.4547(6)
C5M_2 C 0.0797(3) 0.3084(3) 1.0453(6)
H5M H 0.1055 0.3227 0.0213
H5_2 H 0.1055 0.1773 -0.4787
H5M_2 H 0.1055 0.3227 1.0213
C6M C 0.0489(3) 0.2840(3) -0.0062(5)
C6_2 C 0.0489(3) 0.2160(3) -0.5062(5)
C6M_2 C 0.0489(3) 0.2840(3) 0.9938(5)
H6M H 0.0545 0.2815 -0.0649
H6_2 H 0.0545 0.2185 -0.5649
H6M_2 H 0.0545 0.2815 0.9351
C7M C 0.0212(3) 0.2968(3) 0.2619(5)
C7_2 C 0.0212(3) 0.2032(3) -0.2381(5)
C7M_2 C 0.0212(3) 0.2968(3) 1.2619(5)
N2M N 0.0126(3) 0.1523(2) 0.0855(4)
N2M_2 N 0.0126(3) 0.1523(2) 1.0855(4)
N2_2 N 0.0126(3) 0.3477(2) -0.4145(4)
N3M N 0.0884(2) 0.17784(19) -0.0076(4)
N3M_2 N 0.0884(2) 0.17784(19) 0.9924(4)
N3_2 N 0.0884(2) 0.32216(19) -0.5076(4)
N4M N -0.0545(2) 0.1248(3) -0.1025(4)
N4M_2 N -0.0545(2) 0.1248(3) 0.8975(4)
N4_2 N -0.0545(2) 0.3752(3) -0.6025(4)
N5M N 0.0292(2) 0.0822(2) -0.0762(4)
N5M_2 N 0.0292(2) 0.0822(2) 0.9238(4)
N5_2 N 0.0292(2) 0.4178(2) -0.5762(4)
C8M C -0.0247(4) 0.1421(3) 0.1301(6)
C8M_2 C -0.0247(4) 0.1421(3) 1.1301(6)
C8_2 C -0.0247(4) 0.3579(3) -0.3699(6)
H7M H -0.0516 0.1339 0.1009
H7M_2 H -0.0516 0.1339 1.1009
H7_2 H -0.0516 0.3661 -0.3991
C9M C -0.0256(5) 0.1433(3) 0.2186(8)
C9M_2 C -0.0256(5) 0.1433(3) 1.2186(8)
C9_2 C -0.0256(5) 0.3567(3) -0.2814(8)
H8M H -0.0528 0.1371 0.2484
H8M_2 H -0.0528 0.1371 1.2484
H8_2 H -0.0528 0.3629 -0.2516
C10M C 0.0139(6) 0.1538(4) 0.2615(7)
C10M_2 C 0.0139(6) 0.1538(4) 1.2615(7)
C10_2 C 0.0139(6) 0.3462(4) -0.2385(7)
H9M H 0.0139 0.1533 0.3213
H9M_2 H 0.0139 0.1533 1.3213
H9_2 H 0.0139 0.3467 -0.1787
C11M C 0.0533(4) 0.1648(3) 0.2192(5)
C11M_2 C 0.0533(4) 0.1648(3) 1.2192(5)
C11_2 C 0.0533(4) 0.3352(3) -0.2808(5)
C12M C 0.0959(5) 0.1781(4) 0.2566(6)
C12M_2 C 0.0959(5) 0.1781(4) 1.2566(6)
C12_2 C 0.0959(5) 0.3219(4) -0.2434(6)
H10M H 0.0982 0.1765 0.3162
H10M_2 H 0.0982 0.1765 1.3162
H10_2 H 0.0982 0.3235 -0.1838
C13M C 0.1338(5) 0.1929(4) 0.2128(7)
C13M_2 C 0.1338(5) 0.1929(4) 1.2128(7)
C13_2 C 0.1338(5) 0.3071(4) -0.2872(7)
H11M H 0.1599 0.2035 0.2420
H11M_2 H 0.1599 0.2035 1.2420
H11_2 H 0.1599 0.2965 -0.2580
C14M C 0.1328(4) 0.1920(3) 0.1203(6)
C14M_2 C 0.1328(4) 0.1920(3) 1.1203(6)
C14_2 C 0.1328(4) 0.3080(3) -0.3797(6)
C15M C 0.1689(3) 0.2063(3) 0.0704(8)
C15M_2 C 0.1689(3) 0.2063(3) 1.0704(8)
C15_2 C 0.1689(3) 0.2937(3) -0.4296(8)
H12M H 0.1962 0.2161 0.0963
H12M_2 H 0.1962 0.2161 1.0963
H12_2 H 0.1962 0.2839 -0.4037
C16M C 0.1655(3) 0.2064(3) -0.0148(7)
C16M_2 C 0.1655(3) 0.2064(3) 0.9852(7)
C16_2 C 0.1655(3) 0.2936(3) -0.5148(7)
H13M H 0.1903 0.2159 -0.0488
H13M_2 H 0.1903 0.2159 0.9512
H13_2 H 0.1903 0.2841 -0.5488
C17M C 0.1248(3) 0.1923(3) -0.0516(5)
C17M_2 C 0.1248(3) 0.1923(3) 0.9484(5)
C17_2 C 0.1248(3) 0.3077(3) -0.5516(5)
H14M H 0.1227 0.1928 -0.1112
H14M_2 H 0.1227 0.1928 0.8888
H14_2 H 0.1227 0.3072 -0.6112
C18M C 0.0917(3) 0.1780(2) 0.0792(4)
C18M_2 C 0.0917(3) 0.1780(2) 1.0792(4)
C18_2 C 0.0917(3) 0.3220(2) -0.4208(4)
C19M C 0.0518(3) 0.1644(2) 0.1279(5)
C19M_2 C 0.0518(3) 0.1644(2) 1.1279(5)
C19_2 C 0.0518(3) 0.3356(2) -0.3721(5)
C20M C -0.0943(3) 0.1450(4) -0.1135(6)
C20M_2 C -0.0943(3) 0.1450(4) 0.8865(6)
C20_2 C -0.0943(3) 0.3550(4) -0.6135(6)
H15M H -0.0969 0.1767 -0.1035
H15M_2 H -0.0969 0.1767 0.8965
H15_2 H -0.0969 0.3233 -0.6035
C21M C -0.1342(3) 0.1195(5) -0.1406(7)
C21M_2 C -0.1342(3) 0.1195(5) 0.8594(7)
C21_2 C -0.1342(3) 0.3805(5) -0.6406(7)
H16M H -0.1626 0.1344 -0.1461
H16M_2 H -0.1626 0.1344 0.8539
H16_2 H -0.1626 0.3656 -0.6461
C22M C -0.1307(4) 0.0747(5) -0.1579(7)
C22M_2 C -0.1307(4) 0.0747(5) 0.8421(7)
C22_2 C -0.1307(4) 0.4253(5) -0.6579(7)
H17M H -0.1566 0.0584 -0.1764
H17M_2 H -0.1566 0.0584 0.8236
H17_2 H -0.1566 0.4416 -0.6764
C23M C -0.0880(4) 0.0517(3) -0.1484(5)
C23M_2 C -0.0880(4) 0.0517(3) 0.8516(5)
C23_2 C -0.0880(4) 0.4483(3) -0.6484(5)
C24M C -0.0817(5) 0.0043(4) -0.1658(7)
C24M_2 C -0.0817(5) 0.0043(4) 0.8342(7)
C24_2 C -0.0817(5) 0.4957(4) -0.6658(7)
H18M H -0.1067 -0.0127 -0.1865
H18M_2 H -0.1067 -0.0127 0.8135
H18_2 H -0.1067 0.5127 -0.6865
C25M C -0.0413(5) -0.0172(4) -0.1538(6)
C25M_2 C -0.0413(5) -0.0172(4) 0.8462(6)
C25_2 C -0.0413(5) 0.5172(4) -0.6538(6)
H19M H -0.0382 -0.0485 -0.1673
H19M_2 H -0.0382 -0.0485 0.8327
H19_2 H -0.0382 0.5485 -0.6673
C26M C -0.0028(4) 0.0081(3) -0.1198(5)
C26M_2 C -0.0028(4) 0.0081(3) 0.8802(5)
C26_2 C -0.0028(4) 0.4919(3) -0.6198(5)
C27M C 0.0400(5) -0.0119(3) -0.1011(6)
C27M_2 C 0.0400(5) -0.0119(3) 0.8989(6)
C27_2 C 0.0400(5) 0.5119(3) -0.6011(6)
H20M H 0.0445 -0.0434 -0.1106
H20M_2 H 0.0445 -0.0434 0.8894
H20_2 H 0.0445 0.5434 -0.6106
C28M C 0.0751(4) 0.0143(4) -0.0690(6)
C28M_2 C 0.0751(4) 0.0143(4) 0.9310(6)
C28_2 C 0.0751(4) 0.4857(4) -0.5690(6)
H21M H 0.1032 0.0007 -0.0542
H21M_2 H 0.1032 0.0007 0.9458
H21_2 H 0.1032 0.4993 -0.5542
C29M C 0.0685(3) 0.0611(3) -0.0588(5)
C29M_2 C 0.0685(3) 0.0611(3) 0.9412(5)
C29_2 C 0.0685(3) 0.4389(3) -0.5588(5)
H22M H 0.0931 0.0788 -0.0385
H22M_2 H 0.0931 0.0788 0.9615
H22_2 H 0.0931 0.4212 -0.5385
C30M C -0.0071(3) 0.0560(3) -0.1047(4)
C30M_2 C -0.0071(3) 0.0560(3) 0.8953(4)
C30_2 C -0.0071(3) 0.4440(3) -0.6047(4)
C31M C -0.0500(3) 0.0782(3) -0.1189(5)
C31M_2 C -0.0500(3) 0.0782(3) 0.8811(5)
C31_2 C -0.0500(3) 0.4218(3) -0.6189(5)
N6 N 0.0993(7) 0.6543(6) 0.0750(9)
O3 O 0.0689(9) 0.6817(9) 0.0822(18)
O4 O 0.0903(8) 0.6168(6) 0.0823(18)
O5 O 0.1366(7) 0.6674(9) 0.0608(19)
O11 O 0.2193(5) 0.6119(5) 0.0738(8)
O12 O 0.7500 0.2500 0.5000
O13 O 0.8938(6) 0.2502(6) 0.7456(10)
N7? N 0.0964(10) 0.6569(8) 0.1007(16)
O6? O 0.0599(10) 0.6619(12) 0.063(2)
O7? O 0.1032(9) 0.6197(9) 0.126(2)
O8? O 0.1183(15) 0.6918(15) 0.105(3)
N8? N 0.2500 0.2500 0.7859(9)
O9? O 0.2500 0.2500 0.7088(7)
O10? O 0.2832(6) 0.2599(9) 0.8224(9)
loop_
_geom_bond_atom_site_label_1
_geom_bond_atom_site_label_2
_geom_bond_site_symmetry_1
_geom_bond_site_symmetry_2
Cd1 N1 1_555 1_555
N1 H1 1_555 1_555
H2 N1 1_555 1_555
O1 C7 1_555 1_555
O2 C7 1_555 1_555
C1 N1 1_555 1_555
C2 C1 1_555 1_555
H3 C2 1_555 1_555
C3 C2 1_555 1_555
C4 C3 1_555 1_555
H4 C4 1_555 1_555
C5 C4 1_555 1_555
H5 C5 1_555 1_555
C6 C1 1_555 1_555
H6 C6 1_555 1_555
C7 C3 1_555 1_555
N2 Cd1 1_555 1_555
N3 Cd1 1_555 1_555
N4 Cd1 1_555 1_555
N5 Cd1 1_555 1_555
C8 N2 1_555 1_555
H7 C8 1_555 1_555
C9 C8 1_555 1_555
H8 C9 1_555 1_555
C10 C9 1_555 1_555
H9 C10 1_555 1_555
C11 C10 1_555 1_555
C12 C11 1_555 1_555
H10 C12 1_555 1_555
C13 C12 1_555 1_555
H11 C13 1_555 1_555
C14 C13 1_555 1_555
C15 C14 1_555 1_555
H12 C15 1_555 1_555
C16 C15 1_555 1_555
H13 C16 1_555 1_555
C17 N3 1_555 1_555
H14 C17 1_555 1_555
C18 N3 1_555 1_555
C19 N2 1_555 1_555
C20 N4 1_555 1_555
H15 C20 1_555 1_555
C21 C20 1_555 1_555
H16 C21 1_555 1_555
C22 C21 1_555 1_555
H17 C22 1_555 1_555
C23 C22 1_555 1_555
C24 C23 1_555 1_555
H18 C24 1_555 1_555
C25 C24 1_555 1_555
H19 C25 1_555 1_555
C26 C25 1_555 1_555
C27 C26 1_555 1_555
H20 C27 1_555 1_555
C28 C27 1_555 1_555
H21 C28 1_555 1_555
C29 N5 1_555 1_555
H22 C29 1_555 1_555
C30 N5 1_555 1_555
C31 N4 1_555 1_555
N6 O3 1_555 1_555
O4 N6 1_555 1_555
O5 N6 1_555 1_555
Cd1M N1M 1_555 1_555
Cd1M_2 O2 1_555 1_555
Cd1_2 N1_2 1_555 1_555
Cd1_3 O2M_2 1_555 1_555
N1M H1M 1_555 1_555
N1_2 H1_2 1_555 1_555
N1M_2 Cd1M_2 1_555 1_555
H1M_2 N1M_2 1_555 1_555
H2M N1M 1_555 1_555
H2_2 N1_2 1_555 1_555
H2M_2 N1M_2 1_555 1_555
O1M C7M 1_555 1_555
O1_2 C7_2 1_555 1_555
O1M_2 C7M_2 1_555 1_555
O2M Cd1 1_555 1_555
O2_2 Cd1M 1_555 1_555
O2M_2 C7M_2 1_555 1_555
O2M_3 Cd1_2 1_555 1_555
C1M N1M 1_555 1_555
C1_2 N1_2 1_555 1_555
C1M_2 N1M_2 1_555 1_555
C2M C1M 1_555 1_555
C2_2 C1_2 1_555 1_555
C2M_2 C1M_2 1_555 1_555
H3M C2M 1_555 1_555
H3_2 C2_2 1_555 1_555
H3M_2 C2M_2 1_555 1_555
C3M C2M 1_555 1_555
C3_2 C2_2 1_555 1_555
C3M_2 C2M_2 1_555 1_555
C4M C3M 1_555 1_555
C4_2 C3_2 1_555 1_555
C4M_2 C3M_2 1_555 1_555
H4M C4M 1_555 1_555
H4_2 C4_2 1_555 1_555
H4M_2 C4M_2 1_555 1_555
C5M C4M 1_555 1_555
C5_2 C4_2 1_555 1_555
C5M_2 C4M_2 1_555 1_555
H5M C5M 1_555 1_555
H5_2 C5_2 1_555 1_555
H5M_2 C5M_2 1_555 1_555
C6M C1M 1_555 1_555
C6_2 C1_2 1_555 1_555
C6M_2 C1M_2 1_555 1_555
H6M C6M 1_555 1_555
H6_2 C6_2 1_555 1_555
H6M_2 C6M_2 1_555 1_555
C7M O2M 1_555 1_555
C7_2 O2_2 1_555 1_555
C7M_2 C3M_2 1_555 1_555
N2M Cd1M 1_555 1_555
N2M_2 Cd1M_2 1_555 1_555
N2_2 Cd1_2 1_555 1_555
N3M Cd1M 1_555 1_555
N3M_2 Cd1M_2 1_555 1_555
N3_2 Cd1_2 1_555 1_555
N4M Cd1M 1_555 1_555
N4M_2 Cd1M_2 1_555 1_555
N4_2 Cd1_2 1_555 1_555
N5M Cd1M 1_555 1_555
N5M_2 Cd1M_2 1_555 1_555
N5_2 Cd1_2 1_555 1_555
C8M N2M 1_555 1_555
C8M_2 N2M_2 1_555 1_555
C8_2 N2_2 1_555 1_555
H7M C8M 1_555 1_555
H7M_2 C8M_2 1_555 1_555
H7_2 C8_2 1_555 1_555
C9M C8M 1_555 1_555
C9M_2 C8M_2 1_555 1_555
C9_2 C8_2 1_555 1_555
H8M C9M 1_555 1_555
H8M_2 C9M_2 1_555 1_555
H8_2 C9_2 1_555 1_555
C10M C9M 1_555 1_555
C10M_2 C9M_2 1_555 1_555
C10_2 C9_2 1_555 1_555
H9M C10M 1_555 1_555
H9M_2 C10M_2 1_555 1_555
H9_2 C10_2 1_555 1_555
C11M C10M 1_555 1_555
C11M_2 C10M_2 1_555 1_555
C11_2 C10_2 1_555 1_555
C12M C11M 1_555 1_555
C12M_2 C11M_2 1_555 1_555
C12_2 C11_2 1_555 1_555
H10M C12M 1_555 1_555
H10M_2 C12M_2 1_555 1_555
H10_2 C12_2 1_555 1_555
C13M C12M 1_555 1_555
C13M_2 C12M_2 1_555 1_555
C13_2 C12_2 1_555 1_555
H11M C13M 1_555 1_555
H11M_2 C13M_2 1_555 1_555
H11_2 C13_2 1_555 1_555
C14M C13M 1_555 1_555
C14M_2 C13M_2 1_555 1_555
C14_2 C13_2 1_555 1_555
C15M C14M 1_555 1_555
C15M_2 C14M_2 1_555 1_555
C15_2 C14_2 1_555 1_555
H12M C15M 1_555 1_555
H12M_2 C15M_2 1_555 1_555
H12_2 C15_2 1_555 1_555
C16M C15M 1_555 1_555
C16M_2 C15M_2 1_555 1_555
C16_2 C15_2 1_555 1_555
H13M C16M 1_555 1_555
H13M_2 C16M_2 1_555 1_555
H13_2 C16_2 1_555 1_555
C17M N3M 1_555 1_555
C17M_2 N3M_2 1_555 1_555
C17_2 N3_2 1_555 1_555
H14M C17M 1_555 1_555
H14M_2 C17M_2 1_555 1_555
H14_2 C17_2 1_555 1_555
C18M N3M 1_555 1_555
C18M_2 N3M_2 1_555 1_555
C18_2 N3_2 1_555 1_555
C19M N2M 1_555 1_555
C19M_2 N2M_2 1_555 1_555
C19_2 N2_2 1_555 1_555
C20M N4M 1_555 1_555
C20M_2 N4M_2 1_555 1_555
C20_2 N4_2 1_555 1_555
H15M C20M 1_555 1_555
H15M_2 C20M_2 1_555 1_555
H15_2 C20_2 1_555 1_555
C21M C20M 1_555 1_555
C21M_2 C20M_2 1_555 1_555
C21_2 C20_2 1_555 1_555
H16M C21M 1_555 1_555
H16M_2 C21M_2 1_555 1_555
H16_2 C21_2 1_555 1_555
C22M C21M 1_555 1_555
C22M_2 C21M_2 1_555 1_555
C22_2 C21_2 1_555 1_555
H17M C22M 1_555 1_555
H17M_2 C22M_2 1_555 1_555
H17_2 C22_2 1_555 1_555
C23M C22M 1_555 1_555
C23M_2 C22M_2 1_555 1_555
C23_2 C22_2 1_555 1_555
C24M C23M 1_555 1_555
C24M_2 C23M_2 1_555 1_555
C24_2 C23_2 1_555 1_555
H18M C24M 1_555 1_555
H18M_2 C24M_2 1_555 1_555
H18_2 C24_2 1_555 1_555
C25M C24M 1_555 1_555
C25M_2 C24M_2 1_555 1_555
C25_2 C24_2 1_555 1_555
H19M C25M 1_555 1_555
H19M_2 C25M_2 1_555 1_555
H19_2 C25_2 1_555 1_555
C26M C25M 1_555 1_555
C26M_2 C25M_2 1_555 1_555
C26_2 C25_2 1_555 1_555
C27M C26M 1_555 1_555
C27M_2 C26M_2 1_555 1_555
C27_2 C26_2 1_555 1_555
H20M C27M 1_555 1_555
H20M_2 C27M_2 1_555 1_555
H20_2 C27_2 1_555 1_555
C28M C27M 1_555 1_555
C28M_2 C27M_2 1_555 1_555
C28_2 C27_2 1_555 1_555
H21M C28M 1_555 1_555
H21M_2 C28M_2 1_555 1_555
H21_2 C28_2 1_555 1_555
C29M N5M 1_555 1_555
C29M_2 N5M_2 1_555 1_555
C29_2 N5_2 1_555 1_555
H22M C29M 1_555 1_555
H22M_2 C29M_2 1_555 1_555
H22_2 C29_2 1_555 1_555
C30M N5M 1_555 1_555
C30M_2 N5M_2 1_555 1_555
C30_2 N5_2 1_555 1_555
C31M N4M 1_555 1_555
C31M_2 N4M_2 1_555 1_555
C31_2 N4_2 1_555 1_555
C5 C6 1_555 1_555
C11 C19 1_555 1_555
C14 C18 1_555 1_555
C16 C17 1_555 1_555
C18 C19 1_555 1_555
C23 C31 1_555 1_555
C26 C30 1_555 1_555
C28 C29 1_555 1_555
C30 C31 1_555 1_555
C3M C7M 1_555 1_555
C3_2 C7_2 1_555 1_555
C5M C6M 1_555 1_555
C5_2 C6_2 1_555 1_555
C5M_2 C6M_2 1_555 1_555
C11M C19M 1_555 1_555
C11M_2 C19M_2 1_555 1_555
C11_2 C19_2 1_555 1_555
C14M C18M 1_555 1_555
C14M_2 C18M_2 1_555 1_555
C14_2 C18_2 1_555 1_555
C16M C17M 1_555 1_555
C16M_2 C17M_2 1_555 1_555
C16_2 C17_2 1_555 1_555
C18M C19M 1_555 1_555
C18M_2 C19M_2 1_555 1_555
C18_2 C19_2 1_555 1_555
C23M C31M 1_555 1_555
C23M_2 C31M_2 1_555 1_555
C23_2 C31_2 1_555 1_555
C26M C30M 1_555 1_555
C26M_2 C30M_2 1_555 1_555
C26_2 C30_2 1_555 1_555
C28M C29M 1_555 1_555
C28M_2 C29M_2 1_555 1_555
C28_2 C29_2 1_555 1_555
C30M C31M 1_555 1_555
C30M_2 C31M_2 1_555 1_555
C30_2 C31_2 1_555 1_555

#END
