
#######################################################################
#
#                 Cambridge Crystallographic Data Centre
#                                CCDC 
#
#######################################################################
#
# If this CIF has been generated from an entry in the Cambridge 
# Structural Database, then it will include bibliographic, chemical, 
# crystal, experimental, refinement or atomic coordinate data resulting 
# from the CCDC's data processing and validation procedures.
#
#######################################################################

data_ICIVAS
_symmetry_cell_setting           orthorhombic
_symmetry_space_group_name_H-M   'I 2 2 2'
_symmetry_Int_Tables_number      23
_space_group_name_Hall           'I 2 2'
loop_
_symmetry_equiv_pos_site_id
_symmetry_equiv_pos_as_xyz
1 x,y,z
2 -x,-y,z
3 1/2-x,1/2+y,1/2-z
4 1/2+x,1/2-y,1/2-z
5 1/2+x,1/2+y,1/2+z
6 1/2-x,1/2-y,1/2+z
7 -x,y,-z
8 x,-y,-z
_cell_length_a                   16.441(2)
_cell_length_b                   16.539(4)
_cell_length_c                   25.639(4)
_cell_angle_alpha                90
_cell_angle_beta                 90
_cell_angle_gamma                90
_cell_volume                     6971.7
loop_
_atom_site_label
_atom_site_type_symbol
_atom_site_fract_x
_atom_site_fract_y
_atom_site_fract_z
Na1 Na 0.3150(3) 0.0052(2) 0.30721(15)
Na2 Na 0.2003(2) 0.2172(2) 0.30815(17)
Na3 Na 0.0929(11) 0.0153(10) 0.3099(5)
Na4 Na 0.2468(6) 0.0882(5) 0.4431(3)
Na5 Na 0.8054(2) 0.2001(2) 0.31314(16)
Ni1 Ni 0.69124(4) 0.30615(4) 0.37842(3)
Ni2 Ni 0.31258(4) 0.31769(4) 0.37738(3)
C1 C 0.4576(4) 0.2238(3) 0.3636(2)
C2 C 0.5416(4) 0.2209(4) 0.3628(2)
C3 C 0.5043(4) 0.3439(3) 0.3743(2)
H1 H 0.5064 0.3996 0.3792
C4 C 0.3904(4) 0.1626(4) 0.3605(3)
C5 C 0.6052(4) 0.1583(3) 0.3575(3)
C6 C 0.2232(4) 0.2868(4) 0.5246(3)
C7 C 0.3447(3) 0.3119(3) 0.4991(3)
H2 H 0.4004 0.3219 0.4996
C8 C 0.1614(5) 0.2696(5) 0.5663(4)
C9 C 0.2102(4) 0.0471(4) 0.1799(2)
C10 C 0.2067(4) -0.0362(4) 0.1798(3)
C11 C 0.1924(3) 0.0051(4) 0.1015(2)
H3 H 0.1855 0.0048 0.0655
C12 C 0.2183(5) 0.1136(4) 0.2197(3)
C13 C 0.2136(5) -0.1001(4) 0.2212(3)
C14 C 0.2224(4) 0.2934(4) 0.4713(3)
C15 C 0.1588(5) 0.2941(8) 0.4306(4)
N1 N 0.4335(3) 0.3019(3) 0.3710(2)
N2 N 0.5696(3) 0.2983(3) 0.3701(2)
N3 N 0.2995(3) 0.2986(3) 0.5432(2)
N4 N 0.2004(3) 0.0729(3) 0.1292(2)
N5 N 0.1954(3) -0.0609(3) 0.1298(2)
N6 N 0.3016(3) 0.3091(3) 0.4562(2)
O1 O 0.3186(3) 0.1911(3) 0.36621(19)
O2 O 0.4043(4) 0.0912(3) 0.3547(3)
O3 O 0.6778(3) 0.1807(3) 0.3663(2)
O4 O 0.5886(4) 0.0869(3) 0.3430(4)
O5 O 0.1835(3) 0.2828(3) 0.6128(2)
O6 O 0.0916(4) 0.2486(6) 0.5549(4)
O7 O 0.2141(3) 0.1839(3) 0.2030(2)
O8 O 0.2272(5) 0.0955(3) 0.2671(2)
O9 O 0.1863(3) 0.3015(3) 0.3850(2)
O10 O 0.0878(5) 0.2882(11) 0.4408(4)
O11 O 0.2069(3) -0.1721(3) 0.20451(19)
O12 O 0.2217(5) -0.0834(3) 0.2681(3)
O14 O 0.4068(9) -0.018(2) 0.2451(5)
O15 O 0.2360(11) 0.004(4) 0.3903(7)
O16 O 0.0937(11) 0.2809(18) 0.2639(10)
O17 O 0.0703(11) 0.1658(14) 0.3358(14)
O18 O 0.0842(9) 0.1156(8) 0.4636(9)
O19 O 0.9269(9) 0.2415(12) 0.2669(4)
O20 O 0.1066(8) -0.1073(7) 0.3718(6)
Na1A Na 0.6850(3) -0.0052(2) 0.30721(15)
Na1B Na 0.1850(3) -0.4948(2) 0.19279(15)
Na1C Na -0.1850(3) 0.4948(2) 0.19279(15)
Na1B_2 Na 0.1850(3) 0.5052(2) 0.19279(15)
Na1C_2 Na 0.8150(3) 0.4948(2) 0.19279(15)
Na1C_3 Na -0.1850(3) -0.5052(2) 0.19279(15)
Na2A Na 0.7997(2) -0.2172(2) 0.30815(17)
Na2B Na 0.2997(2) -0.2828(2) 0.19185(17)
Na2C Na -0.2997(2) 0.2828(2) 0.19185(17)
Na2B_2 Na 0.2997(2) 0.7172(2) 0.19185(17)
Na2F Na 0.7997(2) 0.2172(2) 0.69185(17)
Na2C_2 Na 0.7003(2) 0.2828(2) 0.19185(17)
Na2A_2 Na 0.7997(2) 0.7828(2) 0.30815(17)
Na3B Na 0.4071(11) 0.5153(10) 0.1901(5)
Na3C Na 0.5929(11) 0.4847(10) 0.1901(5)
Na3A Na 0.9071(11) -0.0153(10) 0.3099(5)
Na3A_2 Na -0.0929(11) -0.0153(10) 0.3099(5)
Na3B_2 Na 0.4071(11) -0.4847(10) 0.1901(5)
Na3_2 Na 1.0929(11) 0.0153(10) 0.3099(5)
Na3C_2 Na -0.4071(11) 0.4847(10) 0.1901(5)
Na4A Na 0.7532(6) -0.0882(5) 0.4431(3)
Na4B Na 0.2532(6) -0.4118(5) 0.0569(3)
Na4C Na -0.2532(6) 0.4118(5) 0.0569(3)
Na5A Na 0.1946(2) -0.2001(2) 0.31314(16)
Na5C Na 0.3054(2) 0.2999(2) 0.18686(16)
Na5B Na -0.3054(2) -0.2999(2) 0.18686(16)
Na5F Na 0.1946(2) 0.2001(2) 0.68686(16)
Na5A_2 Na 0.1946(2) 0.7999(2) 0.31314(16)
Na5B_2 Na 0.6946(2) 0.7001(2) 0.18686(16)
Na5B_3 Na 0.6946(2) -0.2999(2) 0.18686(16)
Na5G Na 0.8054(2) -0.2001(2) 0.68686(16)
Na5D Na 0.3054(2) -0.2999(2) -0.18686(16)
Ni1A Ni 0.30876(4) -0.30615(4) 0.37842(3)
Ni1C Ni 0.19124(4) 0.19385(4) 0.12158(3)
Ni1B Ni -0.19124(4) -0.19385(4) 0.12158(3)
Ni1F Ni 0.30876(4) 0.30615(4) 0.62158(3)
Ni1A_2 Ni 0.30876(4) 0.69385(4) 0.37842(3)
Ni1B_2 Ni 0.80876(4) -0.19385(4) 0.12158(3)
Ni1G Ni 0.69124(4) -0.30615(4) 0.62158(3)
Ni1D Ni 0.19124(4) -0.19385(4) -0.12158(3)
Ni2A Ni 0.68742(4) -0.31769(4) 0.37738(3)
Ni2B Ni 0.18742(4) -0.18231(4) 0.12262(3)
Ni2C Ni -0.18742(4) 0.18231(4) 0.12262(3)
Ni2F Ni 0.68742(4) 0.31769(4) 0.62262(3)
Ni2A_2 Ni 0.68742(4) 0.68231(4) 0.37738(3)
Ni2C_2 Ni 0.81258(4) 0.18231(4) 0.12262(3)
C1A C 0.5424(4) -0.2238(3) 0.3636(2)
C1B C 0.0424(4) -0.2762(3) 0.1364(2)
C1C C -0.0424(4) 0.2762(3) 0.1364(2)
C2A C 0.4584(4) -0.2209(4) 0.3628(2)
C2B C -0.0416(4) -0.2791(4) 0.1372(2)
C2C C 0.0416(4) 0.2791(4) 0.1372(2)
C3A C 0.4957(4) -0.3439(3) 0.3743(2)
C3B C -0.0043(4) -0.1561(3) 0.1257(2)
C3C C 0.0043(4) 0.1561(3) 0.1257(2)
H1A H 0.4936 -0.3996 0.3792
H1B H -0.0064 -0.1004 0.1208
H1C H 0.0064 0.1004 0.1208
C4A C 0.6096(4) -0.1626(4) 0.3605(3)
C4B C 0.1096(4) -0.3374(4) 0.1395(3)
C4C C -0.1096(4) 0.3374(4) 0.1395(3)
C5A C 0.3948(4) -0.1583(3) 0.3575(3)
C5B C -0.1052(4) -0.3417(3) 0.1425(3)
C5C C 0.1052(4) 0.3417(3) 0.1425(3)
C6F C 0.7768(4) 0.2868(4) 0.4754(3)
C6A C 0.7768(4) -0.2868(4) 0.5246(3)
C6B C 0.2768(4) -0.2132(4) -0.0246(3)
C7F C 0.6553(3) 0.3119(3) 0.5009(3)
C7A C 0.6553(3) -0.3119(3) 0.4991(3)
C7B C 0.1553(3) -0.1881(3) 0.0009(3)
H2F H 0.5996 0.3219 0.5004
H2A H 0.5996 -0.3219 0.4996
H2B H 0.0996 -0.1781 0.0004
C8F C 0.8386(5) 0.2696(5) 0.4337(4)
C8A C 0.8386(5) -0.2696(5) 0.5663(4)
C8B C 0.3386(5) -0.2304(5) -0.0663(4)
C9B C 0.2898(4) 0.5471(4) 0.3201(2)
C9C C 0.7102(4) 0.4529(4) 0.3201(2)
C9A C 0.7898(4) -0.0471(4) 0.1799(2)
C10B C 0.2933(4) 0.4638(4) 0.3202(3)
C10C C 0.7067(4) 0.5362(4) 0.3202(3)
C10A C 0.7933(4) 0.0362(4) 0.1798(3)
C11B C 0.3076(3) 0.5051(4) 0.3985(2)
C11C C 0.6924(3) 0.4949(4) 0.3985(2)
C11A C 0.8076(3) -0.0051(4) 0.1015(2)
H3B H 0.3145 0.5048 0.4345
H3C H 0.6855 0.4952 0.4345
H3A H 0.8145 -0.0048 0.0655
C12B C 0.2817(5) 0.6136(4) 0.2803(3)
C12C C 0.7183(5) 0.3864(4) 0.2803(3)
C12A C 0.7817(5) -0.1136(4) 0.2197(3)
C13B C 0.2864(5) 0.3999(4) 0.2788(3)
C13C C 0.7136(5) 0.6001(4) 0.2788(3)
C13A C 0.7864(5) 0.1001(4) 0.2212(3)
C14F C 0.7776(4) 0.2934(4) 0.5287(3)
C14A C 0.7776(4) -0.2934(4) 0.4713(3)
C14B C 0.2776(4) -0.2066(4) 0.0287(3)
C15F C 0.8412(5) 0.2941(8) 0.5694(4)
C15A C 0.8412(5) -0.2941(8) 0.4306(4)
C15B C 0.3412(5) -0.2059(8) 0.0694(4)
N1A N 0.5665(3) -0.3019(3) 0.3710(2)
N1B N 0.0665(3) -0.1981(3) 0.1290(2)
N1C N -0.0665(3) 0.1981(3) 0.1290(2)
N2A N 0.4304(3) -0.2983(3) 0.3701(2)
N2B N -0.0696(3) -0.2017(3) 0.1299(2)
N2C N 0.0696(3) 0.2017(3) 0.1299(2)
N3F N 0.7005(3) 0.2986(3) 0.4568(2)
N3A N 0.7005(3) -0.2986(3) 0.5432(2)
N3B N 0.2005(3) -0.2014(3) -0.0432(2)
N3G N 0.2995(3) -0.2986(3) 0.4568(2)
N3E N 0.2005(3) 0.2014(3) 0.0432(2)
N3D N -0.2005(3) -0.2014(3) 0.0432(2)
N4B N 0.2996(3) 0.5729(3) 0.3708(2)
N4C N 0.7004(3) 0.4271(3) 0.3708(2)
N4A N 0.7996(3) -0.0729(3) 0.1292(2)
N4B_2 N 0.2996(3) -0.4271(3) 0.3708(2)
N4A_2 N -0.2004(3) -0.0729(3) 0.1292(2)
N5B N 0.3046(3) 0.4391(3) 0.3702(2)
N5C N 0.6954(3) 0.5609(3) 0.3702(2)
N5A N 0.8046(3) 0.0609(3) 0.1298(2)
N5C_2 N 0.6954(3) -0.4391(3) 0.3702(2)
N5A_2 N -0.1954(3) 0.0609(3) 0.1298(2)
N6F N 0.6984(3) 0.3091(3) 0.5438(2)
N6A N 0.6984(3) -0.3091(3) 0.4562(2)
N6B N 0.1984(3) -0.1909(3) 0.0438(2)
N6C N -0.1984(3) 0.1909(3) 0.0438(2)
O1A O 0.6814(3) -0.1911(3) 0.36621(19)
O1B O 0.1814(3) -0.3089(3) 0.13379(19)
O1C O -0.1814(3) 0.3089(3) 0.13379(19)
O2A O 0.5957(4) -0.0912(3) 0.3547(3)
O2B O 0.0957(4) -0.4088(3) 0.1453(3)
O2C O -0.0957(4) 0.4088(3) 0.1453(3)
O3A O 0.3222(3) -0.1807(3) 0.3663(2)
O3B O -0.1778(3) -0.3193(3) 0.1337(2)
O3C O 0.1778(3) 0.3193(3) 0.1337(2)
O4A O 0.4114(4) -0.0869(3) 0.3430(4)
O4B O -0.0886(4) -0.4131(3) 0.1570(4)
O4C O 0.0886(4) 0.4131(3) 0.1570(4)
O4C_2 O 0.0886(4) -0.5869(3) 0.1570(4)
O4B_2 O -0.0886(4) 0.5869(3) 0.1570(4)
O5F O 0.8165(3) 0.2828(3) 0.3872(2)
O5A O 0.8165(3) -0.2828(3) 0.6128(2)
O5B O 0.3165(3) -0.2172(3) -0.1128(2)
O5G O 0.1835(3) -0.2828(3) 0.3872(2)
O5E O 0.3165(3) 0.2172(3) 0.1128(2)
O5D O -0.3165(3) -0.2172(3) 0.1128(2)
O6F O 0.9084(4) 0.2486(6) 0.4451(4)
O6A O 0.9084(4) -0.2486(6) 0.5549(4)
O6B O 0.4084(4) -0.2514(6) -0.0549(4)
O7B O 0.2859(3) 0.6839(3) 0.2970(2)
O7C O 0.7141(3) 0.3161(3) 0.2970(2)
O7A O 0.7859(3) -0.1839(3) 0.2030(2)
O7B_2 O 0.2859(3) -0.3161(3) 0.2970(2)
O7C_2 O -0.2859(3) 0.3161(3) 0.2970(2)
O7A_2 O -0.2141(3) -0.1839(3) 0.2030(2)
O8B O 0.2728(5) 0.5955(3) 0.2329(2)
O8C O 0.7272(5) 0.4045(3) 0.2329(2)
O8A O 0.7728(5) -0.0955(3) 0.2671(2)
O8B_2 O 0.2728(5) -0.4045(3) 0.2329(2)
O8C_2 O -0.2728(5) 0.4045(3) 0.2329(2)
O9F O 0.8137(3) 0.3015(3) 0.6150(2)
O9A O 0.8137(3) -0.3015(3) 0.3850(2)
O9B O 0.3137(3) -0.1985(3) 0.1150(2)
O9C O -0.3137(3) 0.1985(3) 0.1150(2)
O10F O 0.9122(5) 0.2882(11) 0.5592(4)
O10A O 0.9122(5) -0.2882(11) 0.4408(4)
O10B O 0.4122(5) -0.2118(11) 0.0592(4)
O11B O 0.2931(3) 0.3279(3) 0.29549(19)
O11C O 0.7069(3) 0.6721(3) 0.29549(19)
O11A O 0.7931(3) 0.1721(3) 0.20451(19)
O11C_2 O 0.7069(3) -0.3279(3) 0.29549(19)
O11A_2 O -0.2069(3) 0.1721(3) 0.20451(19)
O12B O 0.2783(5) 0.4166(3) 0.2319(3)
O12C O 0.7217(5) 0.5834(3) 0.2319(3)
O12A O 0.7783(5) 0.0834(3) 0.2681(3)
O12B_2 O 0.2783(5) -0.5834(3) 0.2319(3)
O12C_2 O -0.2783(5) 0.5834(3) 0.2319(3)
O12C_3 O -0.2783(5) -0.4166(3) 0.2319(3)
O14A O 0.5932(9) 0.018(2) 0.2451(5)
O14B O 0.0932(9) -0.518(2) 0.2549(5)
O14C O -0.0932(9) 0.518(2) 0.2549(5)
O15A O 0.7640(11) -0.004(4) 0.3903(7)
O15B O 0.2640(11) -0.496(4) 0.1097(7)
O15C O -0.2640(11) 0.496(4) 0.1097(7)
O16A O 0.9063(11) -0.2809(18) 0.2639(10)
O16B O 0.4063(11) -0.2191(18) 0.2361(10)
O16C O -0.4063(11) 0.2191(18) 0.2361(10)
O17A O 0.9297(11) -0.1658(14) 0.3358(14)
O17B O 0.4297(11) -0.3342(14) 0.1642(14)
O17C O -0.4297(11) 0.3342(14) 0.1642(14)
O17B_2 O 0.4297(11) 0.6658(14) 0.1642(14)
O17C_2 O 0.5703(11) 0.3342(14) 0.1642(14)
O18A O 0.9158(9) -0.1156(8) 0.4636(9)
O18B O 0.4158(9) -0.3844(8) 0.0364(9)
O18C O -0.4158(9) 0.3844(8) 0.0364(9)
O19A O 0.0731(9) -0.2415(12) 0.2669(4)
O19C O 0.4269(9) 0.2585(12) 0.2331(4)
O19B O -0.4269(9) -0.2585(12) 0.2331(4)
O20A O 0.8934(8) 0.1073(7) 0.3718(6)
O20B O 0.3934(8) 0.3927(7) 0.1282(6)
O20C O 0.6066(8) 0.6073(7) 0.1282(6)
O20C_2 O -0.3934(8) -0.3927(7) 0.1282(6)
C16 C 0.5000 0.2824(10) 0.0000
O13 O 0.5000 0.1843(10) 0.0000
O21 O 0.0033(6) 0.7986(7) 0.6044(4)
O22 O 0.0821(7) 0.5832(8) 0.6562(7)
O23 O 0.0000 0.5000 0.8107(2)
O24 O 0.0000 0.0000 0.5000
O25 O 0.5000 1.0000 0.3902(3)
loop_
_geom_bond_atom_site_label_1
_geom_bond_atom_site_label_2
_geom_bond_site_symmetry_1
_geom_bond_site_symmetry_2
Na1 O2 1_555 1_555
Na2 Ni2 1_555 1_555
Na3 O8 1_555 1_555
Na4 O15 1_555 1_555
Na5 Ni1 1_555 1_555
Ni1 N2 1_555 1_555
Ni2 N1 1_555 1_555
C1 C2 1_555 1_555
C2 C5 1_555 1_555
C3 H1 1_555 1_555
C4 C1 1_555 1_555
C5 O3 1_555 1_555
C6 C8 1_555 1_555
C7 H2 1_555 1_555
C8 O5 1_555 1_555
C9 C10 1_555 1_555
C10 C13 1_555 1_555
C11 H3 1_555 1_555
C12 C9 1_555 1_555
C13 O11 1_555 1_555
C14 C6 1_555 1_555
C15 C14 1_555 1_555
C16 O13 1_555 1_555
N1 C1 1_555 1_555
N2 C2 1_555 1_555
N3 C6 1_555 1_555
N4 C9 1_555 1_555
N5 C10 1_555 1_555
N6 Ni2 1_555 1_555
O1 Na2 1_555 1_555
O2 C4 1_555 1_555
O3 Na5 1_555 1_555
O4 C5 1_555 1_555
O5 Na5F 1_555 1_555
O6 C8 1_555 1_555
O7 Na2 1_555 1_555
O8 Na1 1_555 1_555
O9 Na2 1_555 1_555
O10 C15 1_555 1_555
O11 Na2B 1_555 1_555
O12 Na1 1_555 1_555
O14 Na1 1_555 1_555
O15 Na1 1_555 1_555
O16 Na2 1_555 1_555
O17 Na2 1_555 1_555
O18 Na4 1_555 1_555
O19 Na5 1_555 1_555
O20 Na3 1_555 1_555
Na1A O4 1_555 1_555
Na1B O2B 1_555 1_555
Na1C O2C 1_555 1_555
Na1B_2 O4C 1_555 1_555
Na1C_2 O8C 1_555 1_555
Na1C_3 O4B 1_555 1_555
Na2A Ni2A 1_555 1_555
Na2B Ni2B 1_555 1_555
Na2C Ni2C 1_555 1_555
Na2B_2 O7B 1_555 1_555
Na2F Ni2F 1_555 1_555
Na2C_2 Ni2C_2 1_555 1_555
Na2A_2 Ni2A_2 1_555 1_555
Na3B Na3C 1_555 1_555
Na3C O8C 1_555 1_555
Na3A Na3_2 1_555 1_555
Na3A_2 Na3 1_555 1_555
Na3B_2 O8B_2 1_555 1_555
Na3C_2 O8C_2 1_555 1_555
Na4A O15A 1_555 1_555
Na4B O15B 1_555 1_555
Na4C O15C 1_555 1_555
Na5A O12 1_555 1_555
Na5C O7 1_555 1_555
Na5B Ni1B 1_555 1_555
Na5F Ni1F 1_555 1_555
Na5A_2 Ni1A_2 1_555 1_555
Na5B_2 O12C 1_555 1_555
Na5B_3 Ni1B_2 1_555 1_555
Na5G Ni1G 1_555 1_555
Na5D Ni1D 1_555 1_555
Ni1A Na5A 1_555 1_555
Ni1C N4 1_555 1_555
Ni1B N2B 1_555 1_555
Ni1F N3 1_555 1_555
Ni1A_2 N4B 1_555 1_555
Ni1B_2 N4A 1_555 1_555
Ni1G N3A 1_555 1_555
Ni1D N3B 1_555 1_555
Ni2A N1A 1_555 1_555
Ni2B N5 1_555 1_555
Ni2C N1C 1_555 1_555
Ni2F N6F 1_555 1_555
Ni2A_2 N5C 1_555 1_555
Ni2C_2 N5A 1_555 1_555
C1A C2A 1_555 1_555
C1B C2B 1_555 1_555
C1C C2C 1_555 1_555
C2A C5A 1_555 1_555
C2B C5B 1_555 1_555
C2C C5C 1_555 1_555
C3A H1A 1_555 1_555
C3B H1B 1_555 1_555
C3C H1C 1_555 1_555
C4A C1A 1_555 1_555
C4B C1B 1_555 1_555
C4C C1C 1_555 1_555
C5A O3A 1_555 1_555
C5B O3B 1_555 1_555
C5C O3C 1_555 1_555
C6F C8F 1_555 1_555
C6A C8A 1_555 1_555
C6B C8B 1_555 1_555
C7F H2F 1_555 1_555
C7A H2A 1_555 1_555
C7B H2B 1_555 1_555
C8F O5F 1_555 1_555
C8A O5A 1_555 1_555
C8B O5B 1_555 1_555
C9B C10B 1_555 1_555
C9C C10C 1_555 1_555
C9A C10A 1_555 1_555
C10B C13B 1_555 1_555
C10C C13C 1_555 1_555
C10A C13A 1_555 1_555
C11B H3B 1_555 1_555
C11C H3C 1_555 1_555
C11A H3A 1_555 1_555
C12B C9B 1_555 1_555
C12C C9C 1_555 1_555
C12A C9A 1_555 1_555
C13B O11B 1_555 1_555
C13C O11C 1_555 1_555
C13A O11A 1_555 1_555
C14F C6F 1_555 1_555
C14A C6A 1_555 1_555
C14B C6B 1_555 1_555
C15F C14F 1_555 1_555
C15A C14A 1_555 1_555
C15B C14B 1_555 1_555
N1A C1A 1_555 1_555
N1B Ni2B 1_555 1_555
N1C C1C 1_555 1_555
N2A Ni1A 1_555 1_555
N2B C2B 1_555 1_555
N2C Ni1C 1_555 1_555
N3F Ni1 1_555 1_555
N3A C6A 1_555 1_555
N3B C6B 1_555 1_555
N3G Ni1A 1_555 1_555
N3E Ni1C 1_555 1_555
N3D Ni1B 1_555 1_555
N4B C9B 1_555 1_555
N4C Ni1 1_555 1_555
N4A C9A 1_555 1_555
N4B_2 Ni1A 1_555 1_555
N4A_2 Ni1B 1_555 1_555
N5B Ni2 1_555 1_555
N5C C10C 1_555 1_555
N5A C10A 1_555 1_555
N5C_2 Ni2A 1_555 1_555
N5A_2 Ni2C 1_555 1_555
N6F C7F 1_555 1_555
N6A Ni2A 1_555 1_555
N6B Ni2B 1_555 1_555
N6C Ni2C 1_555 1_555
O1A Na2A 1_555 1_555
O1B Na2B 1_555 1_555
O1C Na2C 1_555 1_555
O2A Na1A 1_555 1_555
O2B C4B 1_555 1_555
O2C C4C 1_555 1_555
O3A Na5A 1_555 1_555
O3B Na5B 1_555 1_555
O3C Na5C 1_555 1_555
O4A Na1 1_555 1_555
O4B C5B 1_555 1_555
O4C C5C 1_555 1_555
O4C_2 Na1B 1_555 1_555
O4B_2 Na1C 1_555 1_555
O5F Na5 1_555 1_555
O5A Na5G 1_555 1_555
O5B Na5D 1_555 1_555
O5G Na5A 1_555 1_555
O5E Na5C 1_555 1_555
O5D Na5B 1_555 1_555
O6F C8F 1_555 1_555
O6A C8A 1_555 1_555
O6B C8B 1_555 1_555
O7B Na5A_2 1_555 1_555
O7C Na5 1_555 1_555
O7A Na2A 1_555 1_555
O7B_2 Na2B 1_555 1_555
O7C_2 Na2C 1_555 1_555
O7A_2 Na5B 1_555 1_555
O8B Na1B_2 1_555 1_555
O8C Na2C_2 1_555 1_555
O8A Na1A 1_555 1_555
O8B_2 Na1B 1_555 1_555
O8C_2 Na1C 1_555 1_555
O9F Na2F 1_555 1_555
O9A Na2A 1_555 1_555
O9B Na2B 1_555 1_555
O9C Na2C 1_555 1_555
O10F C15F 1_555 1_555
O10A C15A 1_555 1_555
O10B C15B 1_555 1_555
O11B Na2 1_555 1_555
O11C Na2A_2 1_555 1_555
O11A Na2C_2 1_555 1_555
O11C_2 Na2A 1_555 1_555
O11A_2 Na2C 1_555 1_555
O12B Na1B_2 1_555 1_555
O12C Na1C_2 1_555 1_555
O12A Na5 1_555 1_555
O12B_2 Na1B 1_555 1_555
O12C_2 Na1C 1_555 1_555
O12C_3 Na1C_3 1_555 1_555
O14A Na1A 1_555 1_555
O14B Na1B 1_555 1_555
O14C Na1C 1_555 1_555
O15A Na1A 1_555 1_555
O15B Na1B 1_555 1_555
O15C Na1C 1_555 1_555
O16A Na2A 1_555 1_555
O16B Na2B 1_555 1_555
O16C Na2C 1_555 1_555
O17A Na2A 1_555 1_555
O17B Na2B 1_555 1_555
O17C Na2C 1_555 1_555
O17B_2 Na2B_2 1_555 1_555
O17C_2 Na2C_2 1_555 1_555
O18A Na4A 1_555 1_555
O18B Na4B 1_555 1_555
O18C Na4C 1_555 1_555
O19A Na5A 1_555 1_555
O19C Na5C 1_555 1_555
O19B Na5B 1_555 1_555
O20A Na5 1_555 1_555
O20B Na3B 1_555 1_555
O20C Na3C 1_555 1_555
O20C_2 Na5B 1_555 1_555
Na2 O8 1_555 1_555
Na3 O17 1_555 1_555
Ni1 O3 1_555 1_555
Ni1 O5F 1_555 1_555
Ni1 O7C 1_555 1_555
Ni2 O1 1_555 1_555
Ni2 O9 1_555 1_555
Ni2 O11B 1_555 1_555
C3 N1 1_555 1_555
C3 N2 1_555 1_555
C4 O1 1_555 1_555
C7 N3 1_555 1_555
C7 N6 1_555 1_555
C11 N4 1_555 1_555
C11 N5 1_555 1_555
C12 O7 1_555 1_555
C12 O8 1_555 1_555
C13 O12 1_555 1_555
C14 N6 1_555 1_555
C15 O9 1_555 1_555
O5 Ni1F 1_555 1_555
O7 Ni1C 1_555 1_555
O11 Ni2B 1_555 1_555
O20 Na5A 1_555 1_555
Na1A O12A 1_555 1_555
Na2A O8A 1_555 1_555
Na2B O8B_2 1_555 1_555
Na2C O8C_2 1_555 1_555
Na2B_2 O8B 1_555 1_555
Na2C_2 O7C 1_555 1_555
Na3B O8B 1_555 1_555
Na3B O17B_2 1_555 1_555
Na3C O17C_2 1_555 1_555
Na3A O8A 1_555 1_555
Na3A O17A 1_555 1_555
Na3A O20A 1_555 1_555
Na3B_2 O17B 1_555 1_555
Na3C_2 O17C 1_555 1_555
Na5A O7B_2 1_555 1_555
Na5C Ni1C 1_555 1_555
Na5C O12B 1_555 1_555
Na5C O20B 1_555 1_555
Na5B O12C_3 1_555 1_555
Na5B_2 O20C 1_555 1_555
Na5B_3 O7A 1_555 1_555
Ni1A O3A 1_555 1_555
Ni1A O5G 1_555 1_555
Ni1A O7B_2 1_555 1_555
Ni1C O3C 1_555 1_555
Ni1C O5E 1_555 1_555
Ni1B O3B 1_555 1_555
Ni1B O5D 1_555 1_555
Ni1B O7A_2 1_555 1_555
Ni1A_2 O7B 1_555 1_555
Ni1B_2 O7A 1_555 1_555
Ni1G O5A 1_555 1_555
Ni1D O5B 1_555 1_555
Ni2A O1A 1_555 1_555
Ni2A O9A 1_555 1_555
Ni2A O11C_2 1_555 1_555
Ni2B O1B 1_555 1_555
Ni2B O9B 1_555 1_555
Ni2C O1C 1_555 1_555
Ni2C O9C 1_555 1_555
Ni2C O11A_2 1_555 1_555
Ni2F O9F 1_555 1_555
Ni2A_2 O11C 1_555 1_555
Ni2C_2 O11A 1_555 1_555
C1B N1B 1_555 1_555
C2A N2A 1_555 1_555
C2C N2C 1_555 1_555
C3A N1A 1_555 1_555
C3A N2A 1_555 1_555
C3B N1B 1_555 1_555
C3B N2B 1_555 1_555
C3C N1C 1_555 1_555
C3C N2C 1_555 1_555
C4A O1A 1_555 1_555
C4A O2A 1_555 1_555
C4B O1B 1_555 1_555
C4C O1C 1_555 1_555
C5A O4A 1_555 1_555
C6F N3F 1_555 1_555
C7F N3F 1_555 1_555
C7A N3A 1_555 1_555
C7A N6A 1_555 1_555
C7B N3B 1_555 1_555
C7B N6B 1_555 1_555
C9C N4C 1_555 1_555
C10B N5B 1_555 1_555
C11B N4B 1_555 1_555
C11B N5B 1_555 1_555
C11C N4C 1_555 1_555
C11C N5C 1_555 1_555
C11A N4A 1_555 1_555
C11A N5A 1_555 1_555
C12B O7B 1_555 1_555
C12B O8B 1_555 1_555
C12C O7C 1_555 1_555
C12C O8C 1_555 1_555
C12A O7A 1_555 1_555
C12A O8A 1_555 1_555
C13B O12B 1_555 1_555
C13C O12C 1_555 1_555
C13A O12A 1_555 1_555
C14F N6F 1_555 1_555
C14A N6A 1_555 1_555
C14B N6B 1_555 1_555
C15F O9F 1_555 1_555
C15A O9A 1_555 1_555
C15B O9B 1_555 1_555

#END
