
#######################################################################
#
#                 Cambridge Crystallographic Data Centre
#                                CCDC 
#
#######################################################################
#
# If this CIF has been generated from an entry in the Cambridge 
# Structural Database, then it will include bibliographic, chemical, 
# crystal, experimental, refinement or atomic coordinate data resulting 
# from the CCDC's data processing and validation procedures.
#
#######################################################################

data_ICIZID
_symmetry_cell_setting           monoclinic
_symmetry_space_group_name_H-M   'P 21/c'
_symmetry_Int_Tables_number      14
_space_group_name_Hall           '-P 2ybc'
loop_
_symmetry_equiv_pos_site_id
_symmetry_equiv_pos_as_xyz
1 x,y,z
2 x,1/2-y,1/2+z
3 -x,-y,-z
4 -x,1/2+y,1/2-z
_cell_length_a                   8.3444(17)
_cell_length_b                   10.589(2)
_cell_length_c                   14.384(3)
_cell_angle_alpha                90.00
_cell_angle_beta                 91.77(3)
_cell_angle_gamma                90.00
_cell_volume                     1270.35
loop_
_atom_site_label
_atom_site_type_symbol
_atom_site_fract_x
_atom_site_fract_y
_atom_site_fract_z
Cd1 Cd 0.24047(2) 0.504014(12) 0.247078(9)
P1 P 0.62783(6) 0.68877(5) 0.29857(4)
P2 P 0.11620(6) 0.81601(5) 0.28659(4)
O1 O 0.47124(19) 0.64117(15) 0.25698(12)
O2 O 0.6371(2) 0.82955(14) 0.30785(12)
O3 O 0.7674(2) 0.63220(18) 0.24012(12)
O4 O 0.07599(19) 0.67651(14) 0.28988(11)
O5 O -0.0070(2) 0.89874(15) 0.24138(11)
O6 O 0.2787(2) 0.83602(17) 0.23631(13)
N1 N 0.7046(2) 0.54780(19) 0.59949(13)
N2 N 0.1982(2) 0.93345(19) 0.59321(13)
C1 C 0.5902(3) 0.6314(2) 0.57605(16)
H1 H 0.5261 0.6626 0.6226
C2 C 0.5625(3) 0.6737(2) 0.48585(16)
H2 H 0.4820 0.7322 0.4724
C3 C 0.6580(3) 0.6268(2) 0.41502(15)
C4 C 0.7742(3) 0.5376(2) 0.43891(15)
H3 H 0.8379 0.5025 0.3937
C5 C 0.7937(4) 0.5016(2) 0.5317(2)
H4 H 0.8725 0.4426 0.5472
C6 C 0.2939(3) 0.9767(3) 0.5274(2)
H5 H 0.3772 1.0307 0.5453
C7 C 0.2757(3) 0.9454(2) 0.43389(15)
H6 H 0.3451 0.9779 0.3906
C8 C 0.1515(3) 0.8647(2) 0.40623(14)
C9 C 0.0485(3) 0.8222(2) 0.47482(16)
H7 H -0.0380 0.7702 0.4589
C10 C 0.0769(3) 0.8583(2) 0.56662(16)
H8 H 0.0084 0.8288 0.6116
O2C O 0.3629(2) 0.32955(14) 0.19215(12)
O5C O 0.0070(2) 0.39874(15) 0.25862(11)
N1B N 0.2954(2) 0.45220(19) 0.40051(13)
N2A N 0.1982(2) 0.56655(19) 0.09321(13)
Cd1C Cd 0.75953(2) 1.004014(12) 0.252922(9)
Cd1C_2 Cd -0.24047(2) 1.004014(12) 0.252922(9)
Cd1B Cd 0.75953(2) 0.495986(12) 0.752922(9)
Cd1A Cd 0.24047(2) 0.995986(12) 0.747078(9)
loop_
_geom_bond_atom_site_label_1
_geom_bond_atom_site_label_2
_geom_bond_site_symmetry_1
_geom_bond_site_symmetry_2
Cd1 O1 1_555 1_555
P1 O1 1_555 1_555
P2 O4 1_555 1_555
O2 P1 1_555 1_555
O3 P1 1_555 1_555
O4 Cd1 1_555 1_555
O5 P2 1_555 1_555
O6 P2 1_555 1_555
N1 C1 1_555 1_555
N2 C6 1_555 1_555
C1 H1 1_555 1_555
C2 C1 1_555 1_555
H2 C2 1_555 1_555
C3 P1 1_555 1_555
C4 C3 1_555 1_555
H3 C4 1_555 1_555
C5 N1 1_555 1_555
H4 C5 1_555 1_555
C6 H5 1_555 1_555
C7 C6 1_555 1_555
H6 C7 1_555 1_555
C8 P2 1_555 1_555
C9 C8 1_555 1_555
H7 C9 1_555 1_555
C10 N2 1_555 1_555
H8 C10 1_555 1_555
O2C Cd1 1_555 1_555
O5C Cd1 1_555 1_555
N1B Cd1 1_555 1_555
N2A Cd1 1_555 1_555
Cd1C O2 1_555 1_555
Cd1C_2 O5 1_555 1_555
Cd1B N1 1_555 1_555
Cd1A N2 1_555 1_555
C2 C3 1_555 1_555
C4 C5 1_555 1_555
C7 C8 1_555 1_555
C9 C10 1_555 1_555

#END
