
#######################################################################
#
#                 Cambridge Crystallographic Data Centre
#                                CCDC 
#
#######################################################################
#
# If this CIF has been generated from an entry in the Cambridge 
# Structural Database, then it will include bibliographic, chemical, 
# crystal, experimental, refinement or atomic coordinate data resulting 
# from the CCDC's data processing and validation procedures.
#
#######################################################################

data_ICOMIW
_symmetry_cell_setting           monoclinic
_symmetry_space_group_name_H-M   'P 21/c'
_symmetry_Int_Tables_number      14
_space_group_name_Hall           '-P 2ybc'
loop_
_symmetry_equiv_pos_site_id
_symmetry_equiv_pos_as_xyz
1 x,y,z
2 x,1/2-y,1/2+z
3 -x,-y,-z
4 -x,1/2+y,1/2-z
_cell_length_a                   11.4650(12)
_cell_length_b                   13.0311(12)
_cell_length_c                   6.9530(4)
_cell_angle_alpha                90
_cell_angle_beta                 106.608(8)
_cell_angle_gamma                90
_cell_volume                     995.454
loop_
_atom_site_label
_atom_site_type_symbol
_atom_site_fract_x
_atom_site_fract_y
_atom_site_fract_z
K1 K 0.50139(3) 0.63740(2) 0.19095(5)
S1 S 0.35499(3) 0.40653(2) 0.27132(5)
S2 S 0.23491(3) 0.51085(2) 0.47997(5)
O1 O 0.41301(9) 0.43341(8) 0.11982(16)
O2 O 0.40084(9) 0.31501(8) 0.38528(16)
O3 O 0.19870(9) 0.61752(8) 0.48178(16)
O4 O 0.24311(10) 0.45609(9) 0.66312(16)
O5 O 0.34099(11) 0.77001(9) 0.34159(18)
H1 H 0.3007(19) 0.8023(16) 0.256(3)
H2 H 0.2975(19) 0.7307(16) 0.370(3)
N1 N 0.35476(10) 0.50426(9) 0.40915(18)
C1 C 0.19574(12) 0.38942(10) 0.1696(2)
C2 C 0.13298(12) 0.44363(10) 0.2797(2)
C3 C 0.00716(13) 0.43832(11) 0.2342(2)
H3 H -0.0359 0.4755 0.3098
C4 C -0.05340(13) 0.37666(12) 0.0742(2)
H4 H -0.1396 0.3718 0.0389
C5 C 0.00971(15) 0.32183(12) -0.0354(2)
H5 H -0.0341 0.2799 -0.1438
C6 C 0.13571(14) 0.32712(11) 0.0105(2)
H6 H 0.1790 0.2896 -0.0642
O1B O 0.58699(9) 0.56659(8) -0.11982(16)
O2B O 0.59916(9) 0.68499(8) 0.61472(16)
O2C O 0.59916(9) 0.81501(8) 0.11472(16)
O4B O 0.75689(10) 0.54391(9) 0.33688(16)
O5A O 0.34099(11) 0.72999(9) -0.15841(18)
N1B N 0.64524(10) 0.49574(9) 0.59085(18)
K1B K 0.49861(3) 0.36260(2) -0.19095(5)
K1B_2 K 0.49861(3) 0.36260(2) 0.80905(5)
K1C K 0.49861(3) 0.13740(2) 0.30905(5)
K1A K 0.50139(3) 0.86260(2) 0.69095(5)
H1A H 0.3007(19) 0.6977(16) -0.244(3)
H2A H 0.2975(19) 0.7693(16) -0.130(3)
loop_
_geom_bond_atom_site_label_1
_geom_bond_atom_site_label_2
_geom_bond_site_symmetry_1
_geom_bond_site_symmetry_2
K1 O1 1_555 1_555
S1 O1 1_555 1_555
S2 O3 1_555 1_555
O1 K1B 1_555 1_555
O2 S1 1_555 1_555
O4 S2 1_555 1_555
O5 K1 1_555 1_555
H1 O5 1_555 1_555
H2 O5 1_555 1_555
N1 K1 1_555 1_555
C1 S1 1_555 1_555
C2 S2 1_555 1_555
C3 C2 1_555 1_555
H3 C3 1_555 1_555
C4 C3 1_555 1_555
H4 C4 1_555 1_555
C5 C4 1_555 1_555
H5 C5 1_555 1_555
C6 C1 1_555 1_555
H6 C6 1_555 1_555
O1B K1 1_555 1_555
O2B K1 1_555 1_555
O2C K1 1_555 1_555
O4B K1 1_555 1_555
O5A K1 1_555 1_555
N1B K1 1_555 1_555
K1B O1B 1_555 1_555
K1B_2 O2 1_555 1_555
K1C O2 1_555 1_555
K1A O5 1_555 1_555
H1A O5A 1_555 1_555
H2A O5A 1_555 1_555
S1 N1 1_555 1_555
S2 N1 1_555 1_555
O4 K1B_2 1_555 1_555
N1 K1B_2 1_555 1_555
C1 C2 1_555 1_555
C5 C6 1_555 1_555
O2B K1A 1_555 1_555
N1B K1B_2 1_555 1_555

#END
