
#######################################################################
#
#                 Cambridge Crystallographic Data Centre
#                                CCDC 
#
#######################################################################
#
# If this CIF has been generated from an entry in the Cambridge 
# Structural Database, then it will include bibliographic, chemical, 
# crystal, experimental, refinement or atomic coordinate data resulting 
# from the CCDC's data processing and validation procedures.
#
#######################################################################

data_ICORUP
_symmetry_cell_setting           monoclinic
_symmetry_space_group_name_H-M   'P 21/c'
_symmetry_Int_Tables_number      14
_space_group_name_Hall           '-P 2ybc'
loop_
_symmetry_equiv_pos_site_id
_symmetry_equiv_pos_as_xyz
1 x,y,z
2 -x,1/2+y,1/2-z
3 -x,-y,-z
4 x,1/2-y,1/2+z
_cell_length_a                   9.918(5)
_cell_length_b                   14.312(7)
_cell_length_c                   7.712(3)
_cell_angle_alpha                90
_cell_angle_beta                 103.036(7)
_cell_angle_gamma                90
_cell_volume                     1066.48
loop_
_atom_site_label
_atom_site_type_symbol
_atom_site_fract_x
_atom_site_fract_y
_atom_site_fract_z
Gd1 Gd -0.09641(3) 0.112410(17) -0.10442(3)
S1 S -0.51818(15) 0.12123(10) -0.5944(2)
O1 O -0.8801(4) 0.1461(3) -0.9212(6)
O2 O -0.7652(4) 0.0192(3) -0.7935(6)
O3 O -0.2424(4) 0.3182(3) -0.4399(5)
O4 O -0.2568(4) 0.1713(3) -0.3497(5)
O5 O 0.0686(4) -0.0146(3) -0.1495(6)
O6 O 0.0353(5) 0.1014(3) -0.3380(6)
O7 O -0.0460(5) 0.2761(3) -0.1252(6)
C1 C -0.7789(6) 0.1062(4) -0.8221(8)
C2 C -0.6640(6) 0.1674(4) -0.7314(8)
C3 C -0.6551(6) 0.2622(4) -0.7456(8)
H1 H -0.7270 0.2998 -0.8132
C4 C -0.5291(6) 0.2981(4) -0.6504(8)
H2 H -0.5052 0.3624 -0.6487
C5 C -0.4436(6) 0.2303(4) -0.5596(7)
C6 C -0.3050(6) 0.2405(4) -0.4415(7)
N1 N 0.1046(6) 0.0302(4) -0.2749(7)
O8 O 0.2271(5) -0.0020(3) -0.3422(6)
H3 H 0.005(6) 0.311(3) -0.048(7)
H4 H -0.107(6) 0.302(4) -0.205(7)
Gd1B Gd 0.09641(3) -0.112410(17) 0.10442(3)
Gd1B_2 Gd -0.90359(3) -0.112410(17) -0.89558(3)
Gd1_2 Gd -1.09641(3) 0.112410(17) -1.10442(3)
Gd1C Gd -0.09641(3) 0.387590(17) -0.60442(3)
O1_2 O 0.1199(4) 0.1461(3) 0.0788(6)
O2B O -0.2348(4) -0.0192(3) -0.2065(6)
O3C O -0.2424(4) 0.1818(3) 0.0601(5)
O5B O -0.0686(4) 0.0146(3) 0.1495(6)
loop_
_geom_bond_atom_site_label_1
_geom_bond_atom_site_label_2
_geom_bond_site_symmetry_1
_geom_bond_site_symmetry_2
Gd1 O4 1_555 1_555
S1 C2 1_555 1_555
O1 C1 1_555 1_555
O2 C1 1_555 1_555
O3 C6 1_555 1_555
O4 C6 1_555 1_555
O5 Gd1 1_555 1_555
O6 Gd1 1_555 1_555
O7 Gd1 1_555 1_555
C1 C2 1_555 1_555
C2 C3 1_555 1_555
C3 H1 1_555 1_555
C4 C3 1_555 1_555
H2 C4 1_555 1_555
C5 S1 1_555 1_555
C6 C5 1_555 1_555
N1 O5 1_555 1_555
O8 N1 1_555 1_555
H3 O7 1_555 1_555
H4 O7 1_555 1_555
Gd1B O5 1_555 1_555
Gd1B_2 O2 1_555 1_555
Gd1_2 O1 1_555 1_555
Gd1C O3 1_555 1_555
O1_2 Gd1 1_555 1_555
O2B Gd1 1_555 1_555
O3C Gd1 1_555 1_555
O5B Gd1 1_555 1_555
O6 N1 1_555 1_555
C4 C5 1_555 1_555
Gd1B O5B 1_555 1_555

#END
