
#######################################################################
#
#                 Cambridge Crystallographic Data Centre
#                                CCDC 
#
#######################################################################
#
# If this CIF has been generated from an entry in the Cambridge 
# Structural Database, then it will include bibliographic, chemical, 
# crystal, experimental, refinement or atomic coordinate data resulting 
# from the CCDC's data processing and validation procedures.
#
#######################################################################

data_ICOTUQ
_symmetry_cell_setting           triclinic
_symmetry_space_group_name_H-M   'P -1'
_symmetry_Int_Tables_number      2
_space_group_name_Hall           '-P 1'
loop_
_symmetry_equiv_pos_site_id
_symmetry_equiv_pos_as_xyz
1 x,y,z
2 -x,-y,-z
_cell_length_a                   10.507(4)
_cell_length_b                   13.730(4)
_cell_length_c                   9.188(3)
_cell_angle_alpha                106.51(3)
_cell_angle_beta                 108.32(3)
_cell_angle_gamma                80.84(3)
_cell_volume                     1202.85
loop_
_atom_site_label
_atom_site_type_symbol
_atom_site_fract_x
_atom_site_fract_y
_atom_site_fract_z
Fe1 Fe 0.77436(3) 0.25549(3) 0.75104(4)
Fe2 Fe 1.17841(3) 0.21077(3) 1.38235(4)
N1 N 0.7683(2) 0.41024(16) 0.9224(2)
N2 N 0.6617(2) 0.24642(17) 0.9240(3)
N3 N 0.9628(2) 0.21082(17) 0.9142(2)
N4 N 1.1119(2) 0.19688(17) 1.1462(2)
N5 N 0.7624(2) 0.09863(16) 0.6187(2)
N6 N 0.7807(2) -0.07217(15) 0.5676(2)
N7 N 0.35520(19) 0.27706(15) 0.4747(2)
N8 N 0.57300(19) 0.29589(16) 0.6086(2)
N9 N 1.0239(2) 0.27906(16) 0.4723(2)
N10 N 0.8713(2) 0.29675(16) 0.6050(2)
C1 C 0.8246(3) 0.4904(2) 0.9219(4)
H1 H 0.8724 0.4813 0.8487
C2 C 0.8173(4) 0.5851(3) 1.0214(5)
H2 H 0.8580 0.6386 1.0153
C3 C 0.7479(4) 0.5985(3) 1.1303(5)
H3 H 0.7405 0.6617 1.2003
C4 C 0.6898(4) 0.5174(3) 1.1346(4)
H4 H 0.6421 0.5254 1.2077
C5 C 0.7016(3) 0.4235(2) 1.0305(3)
C6 C 0.6428(3) 0.3325(2) 1.0318(3)
C7 C 0.5753(4) 0.3344(3) 1.1410(4)
H5 H 0.5654 0.3941 1.2171
C8 C 0.5239(4) 0.2480(3) 1.1355(5)
H6 H 0.4773 0.2484 1.2066
C9 C 0.5414(4) 0.1610(3) 1.0248(5)
H7 H 0.5075 0.1011 1.0196
C10 C 0.6100(3) 0.1631(2) 0.9210(4)
H8 H 0.6208 0.1036 0.8449
C11 C 0.9939(2) 0.2381(2) 1.0703(3)
H9 H 0.9378 0.2828 1.1241
C12 C 1.1588(3) 0.1367(2) 1.0251(3)
H10 H 1.2399 0.0969 1.0369
C13 C 1.0693(3) 0.1438(2) 0.8855(3)
H11 H 1.0783 0.1090 0.7860
C14 C 0.8012(3) 0.01646(19) 0.6760(3)
H12 H 0.8397 0.0205 0.7833
C15 C 0.7251(3) -0.0441(2) 0.4274(3)
H13 H 0.6990 -0.0884 0.3275
C16 C 0.7148(3) 0.0590(2) 0.4593(3)
H14 H 0.6805 0.0969 0.3842
C17 C 0.4720(2) 0.2354(2) 0.5507(3)
H15 H 0.4820 0.1693 0.5624
C18 C 0.5163(3) 0.3833(2) 0.5653(3)
H16 H 0.5603 0.4419 0.5882
C19 C 0.3851(3) 0.3715(2) 0.4833(3)
H17 H 0.3252 0.4203 0.4400
C20 C 0.9715(3) 0.2403(2) 0.5561(3)
H18 H 1.0034 0.1776 0.5789
C21 C 0.8569(3) 0.3772(2) 0.5431(4)
H19 H 0.7924 0.4316 0.5531
C22 C 0.9489(3) 0.3680(2) 0.4649(4)
H20 H 0.9590 0.4148 0.4143
Fe2A Fe 0.82159(3) -0.21077(3) 0.61765(4)
Fe2_2 Fe 0.17841(3) 0.21077(3) 0.38235(4)
Fe2_3 Fe 1.17841(3) 0.21077(3) 0.38235(4)
N6A N 1.2193(2) 0.07217(15) 1.4324(2)
N7_2 N 1.35520(19) 0.27706(15) 1.4747(2)
N9_2 N 1.0239(2) 0.27906(16) 1.4723(2)
loop_
_geom_bond_atom_site_label_1
_geom_bond_atom_site_label_2
_geom_bond_site_symmetry_1
_geom_bond_site_symmetry_2
Fe1 N1 1_555 1_555
Fe2 N4 1_555 1_555
N1 C1 1_555 1_555
N2 Fe1 1_555 1_555
N3 Fe1 1_555 1_555
N4 C11 1_555 1_555
N5 Fe1 1_555 1_555
N6 C14 1_555 1_555
N7 C17 1_555 1_555
N8 Fe1 1_555 1_555
N9 C20 1_555 1_555
N10 Fe1 1_555 1_555
C1 H1 1_555 1_555
C2 C1 1_555 1_555
H2 C2 1_555 1_555
C3 C2 1_555 1_555
H3 C3 1_555 1_555
C4 C3 1_555 1_555
H4 C4 1_555 1_555
C5 N1 1_555 1_555
C6 N2 1_555 1_555
C7 C6 1_555 1_555
H5 C7 1_555 1_555
C8 C7 1_555 1_555
H6 C8 1_555 1_555
C9 C8 1_555 1_555
H7 C9 1_555 1_555
C10 N2 1_555 1_555
H8 C10 1_555 1_555
C11 N3 1_555 1_555
H9 C11 1_555 1_555
C12 N4 1_555 1_555
H10 C12 1_555 1_555
C13 N3 1_555 1_555
H11 C13 1_555 1_555
C14 N5 1_555 1_555
H12 C14 1_555 1_555
C15 N6 1_555 1_555
H13 C15 1_555 1_555
C16 N5 1_555 1_555
H14 C16 1_555 1_555
C17 N8 1_555 1_555
H15 C17 1_555 1_555
C18 N8 1_555 1_555
H16 C18 1_555 1_555
C19 N7 1_555 1_555
H17 C19 1_555 1_555
C20 N10 1_555 1_555
H18 C20 1_555 1_555
C21 N10 1_555 1_555
H19 C21 1_555 1_555
C22 N9 1_555 1_555
H20 C22 1_555 1_555
Fe2A N6 1_555 1_555
Fe2_2 N7 1_555 1_555
Fe2_3 N9 1_555 1_555
N6A Fe2 1_555 1_555
N7_2 Fe2 1_555 1_555
N9_2 Fe2 1_555 1_555
C4 C5 1_555 1_555
C5 C6 1_555 1_555
C9 C10 1_555 1_555
C12 C13 1_555 1_555
C15 C16 1_555 1_555
C18 C19 1_555 1_555
C21 C22 1_555 1_555

#END
