
#######################################################################
#
#                 Cambridge Crystallographic Data Centre
#                                CCDC 
#
#######################################################################
#
# If this CIF has been generated from an entry in the Cambridge 
# Structural Database, then it will include bibliographic, chemical, 
# crystal, experimental, refinement or atomic coordinate data resulting 
# from the CCDC's data processing and validation procedures.
#
#######################################################################

data_ICOTOK
_symmetry_cell_setting           monoclinic
_symmetry_space_group_name_H-M   'C 2/c'
_symmetry_Int_Tables_number      15
_space_group_name_Hall           '-C 2yn'
loop_
_symmetry_equiv_pos_site_id
_symmetry_equiv_pos_as_xyz
1 x,y,z
2 1/2+x,1/2+y,z
3 -x,y,1/2-z
4 1/2-x,1/2+y,1/2-z
5 -x,-y,-z
6 1/2-x,1/2-y,-z
7 x,-y,1/2+z
8 1/2+x,1/2-y,1/2+z
_cell_length_a                   18.6245(2)
_cell_length_b                   17.4300(2)
_cell_length_c                   14.9209(2)
_cell_angle_alpha                90
_cell_angle_beta                 127.8050(10)
_cell_angle_gamma                90
_cell_volume                     3827.01
loop_
_atom_site_label
_atom_site_type_symbol
_atom_site_fract_x
_atom_site_fract_y
_atom_site_fract_z
Cd1 Cd 0.5000 0.5000 0.5000
Cd2 Cd 0.5000 0.0000 0.5000
N1 N 0.48211(17) 0.37387(13) 0.4511(2)
C1 C 0.47549(17) 0.31355(14) 0.4149(2)
N2 N 0.4641(2) 0.24876(12) 0.3649(2)
C2 C 0.48936(17) 0.18452(14) 0.4190(2)
N3 N 0.51061(18) 0.12475(14) 0.4600(2)
N4 N 0.38622(16) 0.48871(14) 0.5231(2)
C3 C 0.31497(17) 0.46387(15) 0.4521(2)
N5 N 0.23807(15) 0.42929(14) 0.37991(19)
C4 C 0.17555(17) 0.45869(15) 0.2804(2)
N6 N 0.11517(16) 0.47691(14) 0.1904(2)
N7 N 0.38812(15) 0.53620(13) 0.31233(19)
C5 C 0.32763(16) 0.55788(14) 0.2242(2)
N8 N 0.26571(15) 0.59031(14) 0.12726(19)
C6 C 0.18560(17) 0.56016(15) 0.0550(2)
N9 N 0.11231(16) 0.53925(16) -0.0155(2)
Cd2G Cd 0.0000 0.5000 0.0000
Cd2_2 Cd 0.5000 1.0000 0.5000
Cd2G_2 Cd 1.0000 0.5000 1.0000
N1D N 0.51789(17) 0.62613(13) 0.5489(2)
C1D C 0.52451(17) 0.68645(14) 0.5851(2)
N2D N 0.5359(2) 0.75124(12) 0.6351(2)
C2D C 0.51064(17) 0.81548(14) 0.5810(2)
N3D N 0.48939(18) 0.87525(14) 0.5400(2)
N3D_2 N 0.48939(18) -0.12475(14) 0.5400(2)
N4D N 0.61378(16) 0.51129(14) 0.4769(2)
C3D C 0.68503(17) 0.53613(15) 0.5479(2)
N5D N 0.76193(15) 0.57071(14) 0.62009(19)
C4D C 0.82445(17) 0.54131(15) 0.7196(2)
N6D N 0.88483(16) 0.52309(14) 0.8096(2)
N6G N 0.61517(16) 0.02309(14) 0.6904(2)
N6C N 0.38483(16) -0.02309(14) 0.3096(2)
N7D N 0.61188(15) 0.46380(13) 0.68767(19)
C5D C 0.67237(16) 0.44212(14) 0.7758(2)
N8D N 0.73429(15) 0.40969(14) 0.87274(19)
C6D C 0.81440(17) 0.43984(15) 0.9450(2)
N9D N 0.88769(16) 0.46075(16) 1.0155(2)
N9G N 0.61231(16) -0.03925(16) 0.4845(2)
N9C N 0.38769(16) 0.03925(16) 0.5155(2)
N10 N 0.5000 0.24820(14) 0.7500
C7 C 0.44380(16) 0.19581(13) 0.7665(2)
H1 H 0.4081 0.1609 0.7005
H2 H 0.4857 0.1638 0.8346
C8 C 0.37917(18) 0.23654(14) 0.7801(2)
H3 H 0.4132 0.2732 0.8429
H4 H 0.3495 0.1988 0.7964
H5 H 0.3330 0.2639 0.7099
C9 C 0.43908(16) 0.30022(13) 0.6479(2)
H6 H 0.4055 0.3347 0.6633
H7 H 0.4779 0.3327 0.6389
C10 C 0.37107(18) 0.25862(14) 0.5373(2)
H8 H 0.4034 0.2241 0.5211
H9 H 0.3362 0.2961 0.4757
H10 H 0.3297 0.2287 0.5434
C7B C 0.55620(16) 0.19581(13) 0.7335(2)
H1B H 0.5919 0.1609 0.7995
H2B H 0.5143 0.1638 0.6654
C8B C 0.62083(18) 0.23654(14) 0.7199(2)
H3B H 0.5868 0.2732 0.6571
H4B H 0.6505 0.1988 0.7036
H5B H 0.6670 0.2639 0.7901
C9B C 0.56092(16) 0.30022(13) 0.8521(2)
H6B H 0.5945 0.3347 0.8367
H7B H 0.5221 0.3327 0.8611
C10B C 0.62893(18) 0.25862(14) 0.9627(2)
H8B H 0.5966 0.2241 0.9789
H9B H 0.6638 0.2961 1.0243
H10B H 0.6703 0.2287 0.9566
O1 O 0.5000 0.4093(3) 0.2500
O2 O 0.5000 0.0884(5) 0.2500
N11? N 0.2500 0.2500 0.0000
C11? C 0.2005(3) 0.3005(3) 0.0255(4)
C12? C 0.3224(4) 0.3065(3) 0.0940(4)
C13? C 0.2747(3) 0.3610(2) 0.1291(3)
C14? C 0.3207(4) 0.1975(3) 0.1075(4)
C15? C 0.1965(3) 0.2120(3) 0.0286(5)
C16? C 0.2679(3) 0.1588(2) 0.1475(3)
loop_
_geom_bond_atom_site_label_1
_geom_bond_atom_site_label_2
_geom_bond_site_symmetry_1
_geom_bond_site_symmetry_2
Cd1 N1 1_555 1_555
Cd2 N3 1_555 1_555
N1 C1 1_555 1_555
C1 N2 1_555 1_555
N2 C2 1_555 1_555
C2 N3 1_555 1_555
N4 Cd1 1_555 1_555
C3 N4 1_555 1_555
N5 C3 1_555 1_555
C4 N5 1_555 1_555
N6 C4 1_555 1_555
N7 Cd1 1_555 1_555
C5 N7 1_555 1_555
N8 C5 1_555 1_555
C6 N8 1_555 1_555
N9 C6 1_555 1_555
N10 C7 1_555 1_555
C7 H1 1_555 1_555
H2 C7 1_555 1_555
C8 C7 1_555 1_555
H3 C8 1_555 1_555
H4 C8 1_555 1_555
H5 C8 1_555 1_555
C9 N10 1_555 1_555
H6 C9 1_555 1_555
H7 C9 1_555 1_555
C10 C9 1_555 1_555
H8 C10 1_555 1_555
H9 C10 1_555 1_555
H10 C10 1_555 1_555
Cd2G N6 1_555 1_555
Cd2_2 N3D 1_555 1_555
Cd2G_2 N6D 1_555 1_555
N1D Cd1 1_555 1_555
C1D N1D 1_555 1_555
N2D C1D 1_555 1_555
C2D N2D 1_555 1_555
N3D C2D 1_555 1_555
N3D_2 Cd2 1_555 1_555
N4D Cd1 1_555 1_555
C3D N4D 1_555 1_555
N5D C3D 1_555 1_555
C4D N5D 1_555 1_555
N6D C4D 1_555 1_555
N6G Cd2 1_555 1_555
N6C Cd2 1_555 1_555
N7D Cd1 1_555 1_555
C5D N7D 1_555 1_555
N8D C5D 1_555 1_555
C6D N8D 1_555 1_555
N9D Cd2G_2 1_555 1_555
N9G Cd2 1_555 1_555
N9C Cd2 1_555 1_555
C7B N10 1_555 1_555
H1B C7B 1_555 1_555
H2B C7B 1_555 1_555
C8B C7B 1_555 1_555
H3B C8B 1_555 1_555
H4B C8B 1_555 1_555
H5B C8B 1_555 1_555
C9B N10 1_555 1_555
H6B C9B 1_555 1_555
H7B C9B 1_555 1_555
C10B C9B 1_555 1_555
H8B C10B 1_555 1_555
H9B C10B 1_555 1_555
H10B C10B 1_555 1_555
N9 Cd2G 1_555 1_555
C6D N9D 1_555 1_555

#END
