
#######################################################################
#
#                 Cambridge Crystallographic Data Centre
#                                CCDC 
#
#######################################################################
#
# If this CIF has been generated from an entry in the Cambridge 
# Structural Database, then it will include bibliographic, chemical, 
# crystal, experimental, refinement or atomic coordinate data resulting 
# from the CCDC's data processing and validation procedures.
#
#######################################################################

data_ICOVON
_symmetry_cell_setting           monoclinic
_symmetry_space_group_name_H-M   'P 21/c'
_symmetry_Int_Tables_number      14
_space_group_name_Hall           '-P 2ybc'
loop_
_symmetry_equiv_pos_site_id
_symmetry_equiv_pos_as_xyz
1 x,y,z
2 -x,1/2+y,1/2-z
3 -x,-y,-z
4 x,1/2-y,1/2+z
_cell_length_a                   19.533(5)
_cell_length_b                   6.5575(16)
_cell_length_c                   11.521(3)
_cell_angle_alpha                90
_cell_angle_beta                 106.707(4)
_cell_angle_gamma                90
_cell_volume                     1413.4
loop_
_atom_site_label
_atom_site_type_symbol
_atom_site_fract_x
_atom_site_fract_y
_atom_site_fract_z
Mn1 Mn 0.39265(6) 0.57461(17) 0.67135(10)
N1 N 0.2874(4) 0.5539(11) 0.5275(7)
N2 N 0.2221(4) 0.5274(11) 0.5532(7)
N3 N 0.2049(3) 0.5203(10) 0.3563(6)
N4 N 0.1655(4) 0.5072(10) 0.2335(6)
O1 O 0.6111(3) 0.7441(8) 0.8519(5)
O2 O 0.3641(3) 0.5176(8) 0.8418(5)
H1 H 0.3832 0.4003 0.8461
H2 H 0.3842 0.6096 0.8921
O3 O 0.6206(3) 0.3947(8) 0.8004(6)
O4 O 0.4333(3) 0.6694(9) 0.5147(5)
H3 H 0.4774 0.7004 0.5394
H4 H 0.4310 0.5724 0.4648
O5 O 0.5043(3) 0.5382(9) 0.7774(5)
O6 O 0.5741(3) 0.6388(9) 0.6438(5)
C1 C 0.2760(5) 0.5494(15) 0.4108(9)
H5 H 0.306(5) 0.584(14) 0.371(9)
C2 C 0.1746(4) 0.5111(13) 0.4475(8)
H6 H 0.1259 0.4952 0.4365
C3 C 0.2014(4) 0.4966(12) 0.1576(8)
H7 H 0.2510 0.4924 0.1851
C4 C 0.1657(4) 0.4911(12) 0.0287(8)
C5 C 0.0913(5) 0.5031(14) -0.0162(8)
H8 H 0.0636 0.5147 0.0370
C6 C 0.0588(5) 0.4978(16) -0.1400(9)
H9 H 0.0092 0.4985 -0.1698
C7 C 0.1008(5) 0.4912(13) -0.2201(8)
C8 C 0.1736(5) 0.4846(13) -0.1772(8)
H10 H 0.2012 0.4807 -0.2309
C9 C 0.2058(4) 0.4835(12) -0.0544(8)
H11 H 0.2554 0.4777 -0.0257
S1 S 0.57682(10) 0.5807(3) 0.77029(17)
Cl1 Cl 0.05788(15) 0.4896(5) -0.3734(2)
Mn1A Mn 0.60735(6) 0.07461(17) 0.82865(10)
Mn1A_2 Mn 0.60735(6) 1.07461(17) 0.82865(10)
O1A O 0.3889(3) 0.2441(8) 0.6481(5)
O3A O 0.3794(3) 0.8947(8) 0.6996(6)
loop_
_geom_bond_atom_site_label_1
_geom_bond_atom_site_label_2
_geom_bond_site_symmetry_1
_geom_bond_site_symmetry_2
Mn1 N1 1_555 1_555
N1 N2 1_555 1_555
N2 C2 1_555 1_555
N3 N4 1_555 1_555
N4 C3 1_555 1_555
O1 S1 1_555 1_555
O2 Mn1 1_555 1_555
H1 O2 1_555 1_555
H2 O2 1_555 1_555
O3 S1 1_555 1_555
O4 Mn1 1_555 1_555
H3 O4 1_555 1_555
H4 O4 1_555 1_555
O5 Mn1 1_555 1_555
O6 S1 1_555 1_555
C1 N1 1_555 1_555
H5 C1 1_555 1_555
C2 N3 1_555 1_555
H6 C2 1_555 1_555
C3 H7 1_555 1_555
C4 C3 1_555 1_555
C5 C4 1_555 1_555
H8 C5 1_555 1_555
C6 C5 1_555 1_555
H9 C6 1_555 1_555
C7 C6 1_555 1_555
C8 C7 1_555 1_555
H10 C8 1_555 1_555
C9 C4 1_555 1_555
H11 C9 1_555 1_555
S1 O5 1_555 1_555
Cl1 C7 1_555 1_555
Mn1A O3 1_555 1_555
Mn1A_2 O1 1_555 1_555
O1A Mn1 1_555 1_555
O3A Mn1 1_555 1_555
N3 C1 1_555 1_555
C8 C9 1_555 1_555

#END
