
#######################################################################
#
#                 Cambridge Crystallographic Data Centre
#                                CCDC 
#
#######################################################################
#
# If this CIF has been generated from an entry in the Cambridge 
# Structural Database, then it will include bibliographic, chemical, 
# crystal, experimental, refinement or atomic coordinate data resulting 
# from the CCDC's data processing and validation procedures.
#
#######################################################################

data_ICOXEE
_symmetry_cell_setting           monoclinic
_symmetry_space_group_name_H-M   'C 2/c'
_symmetry_Int_Tables_number      15
_space_group_name_Hall           '-C 2yn'
loop_
_symmetry_equiv_pos_site_id
_symmetry_equiv_pos_as_xyz
1 x,y,z
2 1/2+x,1/2+y,z
3 -x,y,1/2-z
4 1/2-x,1/2+y,1/2-z
5 -x,-y,-z
6 1/2-x,1/2-y,-z
7 x,-y,1/2+z
8 1/2+x,1/2-y,1/2+z
_cell_length_a                   12.3795(18)
_cell_length_b                   15.753(2)
_cell_length_c                   8.7248(12)
_cell_angle_alpha                90
_cell_angle_beta                 122.466(9)
_cell_angle_gamma                90
_cell_volume                     1435.54
loop_
_atom_site_label
_atom_site_type_symbol
_atom_site_fract_x
_atom_site_fract_y
_atom_site_fract_z
N1 N 1.0654(8) 0.0469(6) 1.0992(12)
O6 O 1.0990(4) 0.1115(3) 1.1959(6)
O7 O 1.1346(8) 0.0017(5) 1.0741(12)
O8 O 0.9516(8) 0.0228(6) 1.0420(12)
N1D N 0.9346(8) -0.0469(6) 0.9008(12)
O6D O 0.9010(4) -0.1115(3) 0.8041(6)
O7D O 0.8654(8) -0.0017(5) 0.9259(12)
O8D O 1.0484(8) -0.0228(6) 0.9580(12)
Er1 Er 0.5000 0.128265(17) 0.7500
O1 O 0.7079(3) 0.1851(2) 0.8164(4)
O2 O 0.6136(3) 0.0877(2) 0.6079(5)
C1 C 0.7059(4) 0.1402(3) 0.6966(6)
C2 C 0.8079(4) 0.1492(3) 0.6538(7)
H1 H 0.7919 0.1087 0.5600
H2 H 0.8905 0.1358 0.7615
C3 C 0.8124(5) 0.2386(4) 0.5897(7)
H3 H 0.8836 0.2426 0.5731
H4 H 0.8267 0.2792 0.6824
O3 O 0.5494(3) 0.2456(2) 0.9425(4)
O4 O 0.5000 -0.0261(3) 0.7500
O5 O 0.3446(3) 0.0787(2) 0.4605(5)
Er1G Er 1.0000 0.371735(17) 0.2500
O1E O 0.7921(3) 0.3149(2) 0.1836(4)
O1B O 0.2921(3) 0.1851(2) 0.6836(4)
O2E O 0.8864(3) 0.4123(2) 0.3921(5)
O2B O 0.3864(3) 0.0877(2) 0.8921(5)
C1E C 0.7941(4) 0.3598(3) 0.3034(6)
C2E C 0.6921(4) 0.3508(3) 0.3462(7)
H1E H 0.7081 0.3913 0.4400
H2E H 0.6095 0.3642 0.2385
C3E C 0.6876(5) 0.2614(4) 0.4103(7)
H3E H 0.6164 0.2574 0.4269
H4E H 0.6733 0.2208 0.3176
O3B O 0.4506(3) 0.2456(2) 0.5575(4)
O5B O 0.6554(3) 0.0787(2) 1.0395(5)
loop_
_geom_bond_atom_site_label_1
_geom_bond_atom_site_label_2
_geom_bond_site_symmetry_1
_geom_bond_site_symmetry_2
Er1 O1 1_555 1_555
O1 C1 1_555 1_555
O2 Er1 1_555 1_555
C1 O2 1_555 1_555
C2 C1 1_555 1_555
H1 C2 1_555 1_555
H2 C2 1_555 1_555
C3 C2 1_555 1_555
H3 C3 1_555 1_555
H4 C3 1_555 1_555
O3 Er1 1_555 1_555
O4 Er1 1_555 1_555
O5 Er1 1_555 1_555
N1 O6 1_555 1_555
O7 N1 1_555 1_555
O8 N1 1_555 1_555
Er1G O1E 1_555 1_555
O1E C1E 1_555 1_555
O1B Er1 1_555 1_555
O2E Er1G 1_555 1_555
O2B Er1 1_555 1_555
C1E O2E 1_555 1_555
C2E C1E 1_555 1_555
H1E C2E 1_555 1_555
H2E C2E 1_555 1_555
C3E C3 1_555 1_555
H3E C3E 1_555 1_555
H4E C3E 1_555 1_555
O3B Er1 1_555 1_555
O5B Er1 1_555 1_555
N1D O8 1_555 1_555
O6D N1D 1_555 1_555
O7D O8 1_555 1_555
O8D N1 1_555 1_555
O7 O8D 1_555 1_555
C2E C3E 1_555 1_555
N1D O7D 1_555 1_555
N1D O8D 1_555 1_555

#END
