
#######################################################################
#
#                 Cambridge Crystallographic Data Centre
#                                CCDC 
#
#######################################################################
#
# If this CIF has been generated from an entry in the Cambridge 
# Structural Database, then it will include bibliographic, chemical, 
# crystal, experimental, refinement or atomic coordinate data resulting 
# from the CCDC's data processing and validation procedures.
#
#######################################################################

data_ICOYIK
_symmetry_cell_setting           triclinic
_symmetry_space_group_name_H-M   'P -1'
_symmetry_Int_Tables_number      2
_space_group_name_Hall           '-P 1'
loop_
_symmetry_equiv_pos_site_id
_symmetry_equiv_pos_as_xyz
1 x,y,z
2 -x,-y,-z
_cell_length_a                   10.4588(16)
_cell_length_b                   14.995(2)
_cell_length_c                   16.699(3)
_cell_angle_alpha                65.446(3)
_cell_angle_beta                 83.487(3)
_cell_angle_gamma                73.305(3)
_cell_volume                     2281.61
loop_
_atom_site_label
_atom_site_type_symbol
_atom_site_fract_x
_atom_site_fract_y
_atom_site_fract_z
La1 La 0.79168(2) 1.256042(19) 0.709489(16)
La2 La 0.72090(3) 1.50682(2) 1.128970(19)
S1 S 0.44923(16) 1.38702(10) 1.23242(10)
O1 O 0.3779(6) 1.4363(4) 1.1496(4)
O2 O 0.3758(6) 1.4187(4) 1.2968(4)
O3 O 0.5806(5) 1.3988(4) 1.2212(4)
O4 O 0.5055(3) 0.9527(3) 1.3514(2)
H1 H 0.4788 0.9397 1.3142
S2 S 0.48935(11) 1.25840(9) 0.84884(8)
O5 O 0.4065(4) 1.2569(3) 0.7875(2)
O6 O 0.4563(4) 1.3555(3) 0.8557(2)
O7 O 0.6305(3) 1.2302(3) 0.8298(2)
O8 O 0.3995(4) 0.9738(3) 1.2003(2)
H2 H 0.3239 0.9664 1.2050
S3 S -0.17757(11) 1.32075(8) 1.02154(8)
O9 O -0.0876(4) 1.3750(3) 0.9633(3)
O10 O -0.2454(5) 1.3698(3) 1.0790(3)
O11 O -0.2717(4) 1.3078(3) 0.9752(3)
O12 O 0.1682(3) 0.9282(2) 1.2454(2)
S4 S -0.12564(13) 1.28081(9) 1.47588(8)
O13 O -0.2491(4) 1.3178(3) 1.4278(3)
O14 O -0.0566(4) 1.3582(3) 1.4545(3)
O15 O -0.1464(4) 1.2348(3) 1.5699(2)
O16 O 0.2295(3) 0.9683(3) 1.3746(3)
H3 H 0.1989 0.9631 1.3342
C1 C 0.4637(5) 1.2565(4) 1.2685(3)
C2 C 0.5293(5) 1.2085(4) 1.2159(3)
H4 H 0.5655 1.2448 1.1629
C3 C 0.5419(4) 1.1069(4) 1.2412(3)
C4 C 0.4868(5) 1.0554(4) 1.3214(3)
C5 C 0.4153(4) 1.1044(4) 1.3728(3)
C6 C 0.4062(5) 1.2062(4) 1.3457(3)
H5 H 0.3609 1.2407 1.3800
C7 C 0.6098(4) 1.0556(4) 1.1812(3)
H6 H 0.6338 0.9826 1.2145
H7 H 0.6915 1.0758 1.1593
C8 C 0.4651(5) 1.1694(3) 0.9531(3)
C9 C 0.3625(4) 1.1245(4) 0.9655(3)
H8 H 0.3098 1.1394 0.9179
C10 C 0.3378(4) 1.0576(3) 1.0479(3)
C11 C 0.4179(5) 1.0373(3) 1.1171(3)
C12 C 0.5236(5) 1.0817(3) 1.1048(3)
C13 C 0.5467(5) 1.1470(3) 1.0218(3)
H9 H 0.6174 1.1763 1.0118
C14 C 0.2237(4) 1.0109(3) 1.0613(3)
H10 H 0.2534 0.9388 1.0980
H11 H 0.1965 1.0182 1.0048
C15 C -0.0803(4) 1.2019(3) 1.0894(3)
C16 C -0.1033(4) 1.1590(3) 1.1785(3)
H12 H -0.1737 1.1932 1.2032
C17 C -0.0233(4) 1.0660(3) 1.2317(3)
C18 C 0.0836(4) 1.0156(3) 1.1943(3)
C19 C 0.1059(4) 1.0591(3) 1.1036(3)
C20 C 0.0225(4) 1.1509(4) 1.0522(3)
H13 H 0.0357 1.1789 0.9917
C21 C -0.0488(4) 1.0231(4) 1.3294(3)
H14 H -0.0090 0.9503 1.3536
H15 H -0.1443 1.0346 1.3391
C22 C -0.0235(5) 1.1863(4) 1.4450(3)
C23 C 0.1107(5) 1.1560(4) 1.4640(3)
H16 H 0.1445 1.1852 1.4934
C24 C 0.1948(5) 1.0827(4) 1.4396(3)
C25 C 0.1419(4) 1.0395(3) 1.3962(3)
C26 C 0.0063(5) 1.0692(4) 1.3779(3)
C27 C -0.0753(5) 1.1435(4) 1.4026(3)
H17 H -0.1664 1.1647 1.3905
C28 C 0.3428(5) 1.0533(4) 1.4548(3)
H18 H 0.3600 1.0718 1.5010
H19 H 0.3770 0.9801 1.4746
N1 N 1.0532(5) 1.1551(4) 0.8039(4)
O17 O 1.1611(5) 1.1203(5) 0.8376(4)
O18 O 1.0435(4) 1.1869(4) 0.7211(3)
O19 O 0.9479(4) 1.1627(3) 0.8459(3)
O20 O 0.5903(4) 1.2334(3) 0.6575(3)
O21 O 0.9051(5) 1.4002(3) 0.6053(3)
O22 O 0.8083(5) 1.3687(3) 0.7863(3)
O23 O 0.6086(5) 1.4253(3) 0.6521(4)
O24 O 0.9470(5) 1.3887(4) 1.1870(4)
O25 O 0.8414(5) 1.5621(4) 0.9856(3)
O26 O 0.7403(6) 1.4903(4) 1.2818(3)
O27 O 0.8508(4) 1.6258(4) 1.1252(3)
O28 O 0.5511(4) 1.5842(3) 1.0087(3)
La1A La 0.20832(2) 0.743958(19) 1.290511(16)
La1_2 La -0.20832(2) 1.256042(19) 1.709489(16)
La2A La 0.27910(3) 1.49318(2) 0.871030(19)
La2_2 La -0.27910(3) 1.50682(2) 1.128970(19)
O6A O 0.5437(4) 1.6445(3) 1.1443(2)
O10_2 O 0.7546(5) 1.3698(3) 1.0790(3)
O12A O 0.8318(3) 1.0718(2) 0.7546(2)
O15_2 O 0.8536(4) 1.2348(3) 0.5699(2)
O29 O 0.7561(10) 1.6018(6) 0.5358(6)
H20 H 0.8201 1.6266 0.5349
H21 H 0.6861 1.6395 0.5053
O30 O 0.4616(7) 0.7631(6) 0.4972(4)
H22 H 0.5095 0.7029 0.5082
H23 H 0.3880 0.7847 0.4696
O31 O 0.7381(5) 0.7837(5) 0.3888(4)
H24 H 0.8016 0.7311 0.3946
H25 H 0.6703 0.7986 0.3574
O32 O 0.1869(7) 0.2455(5) 0.1582(5)
H26 H 0.2378 0.1870 0.1661
H27 H 0.1138 0.2671 0.1300
O33 O -0.1471(6) 0.6299(5) 0.2929(5)
H28 H -0.1151 0.5680 0.3006
H29 H -0.2215 0.6636 0.2665
O34 O 1.0845(6) 0.4307(6) 1.2899(5)
H30 H 1.1615 0.4071 1.3136
H31 H 1.0283 0.3954 1.3076
O35 O 0.3975(14) 1.4755(15) 0.5506(12)
H32 H 0.3839 1.5395 0.5321
H33 H 0.3400 1.4511 0.5407
loop_
_geom_bond_atom_site_label_1
_geom_bond_atom_site_label_2
_geom_bond_site_symmetry_1
_geom_bond_site_symmetry_2
La1 O7 1_555 1_555
La2 O3 1_555 1_555
S1 O1 1_555 1_555
O2 S1 1_555 1_555
O3 S1 1_555 1_555
O4 H1 1_555 1_555
S2 O5 1_555 1_555
O6 S2 1_555 1_555
O7 S2 1_555 1_555
O8 H2 1_555 1_555
S3 O9 1_555 1_555
O10 S3 1_555 1_555
O11 S3 1_555 1_555
O12 C18 1_555 1_555
S4 O13 1_555 1_555
O14 S4 1_555 1_555
O15 S4 1_555 1_555
O16 H3 1_555 1_555
C1 S1 1_555 1_555
C2 C1 1_555 1_555
H4 C2 1_555 1_555
C3 C2 1_555 1_555
C4 O4 1_555 1_555
C5 C4 1_555 1_555
C6 C1 1_555 1_555
H5 C6 1_555 1_555
C7 C3 1_555 1_555
H6 C7 1_555 1_555
H7 C7 1_555 1_555
C8 S2 1_555 1_555
C9 C8 1_555 1_555
H8 C9 1_555 1_555
C10 C9 1_555 1_555
C11 O8 1_555 1_555
C12 C7 1_555 1_555
C13 C8 1_555 1_555
H9 C13 1_555 1_555
C14 C10 1_555 1_555
H10 C14 1_555 1_555
H11 C14 1_555 1_555
C15 S3 1_555 1_555
C16 C15 1_555 1_555
H12 C16 1_555 1_555
C17 C16 1_555 1_555
C18 C17 1_555 1_555
C19 C14 1_555 1_555
C20 C15 1_555 1_555
H13 C20 1_555 1_555
C21 C17 1_555 1_555
H14 C21 1_555 1_555
H15 C21 1_555 1_555
C22 S4 1_555 1_555
C23 C22 1_555 1_555
H16 C23 1_555 1_555
C24 C23 1_555 1_555
C25 O16 1_555 1_555
C26 C21 1_555 1_555
C27 C22 1_555 1_555
H17 C27 1_555 1_555
C28 C5 1_555 1_555
H18 C28 1_555 1_555
H19 C28 1_555 1_555
N1 O17 1_555 1_555
O18 La1 1_555 1_555
O19 La1 1_555 1_555
O20 La1 1_555 1_555
O21 La1 1_555 1_555
O22 La1 1_555 1_555
O23 La1 1_555 1_555
O24 La2 1_555 1_555
O25 La2 1_555 1_555
O26 La2 1_555 1_555
O27 La2 1_555 1_555
O28 La2 1_555 1_555
O29 H20 1_555 1_555
H21 O29 1_555 1_555
O30 H22 1_555 1_555
H23 O30 1_555 1_555
O31 H24 1_555 1_555
H25 O31 1_555 1_555
O32 H26 1_555 1_555
H27 O32 1_555 1_555
O33 H28 1_555 1_555
H29 O33 1_555 1_555
O34 H30 1_555 1_555
H31 O34 1_555 1_555
O35 H32 1_555 1_555
H33 O35 1_555 1_555
La1A O12 1_555 1_555
La1_2 O15 1_555 1_555
La2A O6 1_555 1_555
La2_2 O10 1_555 1_555
O6A La2 1_555 1_555
O10_2 La2 1_555 1_555
O12A La1 1_555 1_555
O15_2 La1 1_555 1_555
C3 C4 1_555 1_555
C5 C6 1_555 1_555
C10 C11 1_555 1_555
C11 C12 1_555 1_555
C12 C13 1_555 1_555
C18 C19 1_555 1_555
C19 C20 1_555 1_555
C24 C25 1_555 1_555
C24 C28 1_555 1_555
C25 C26 1_555 1_555
C26 C27 1_555 1_555
N1 O18 1_555 1_555
N1 O19 1_555 1_555

#END
