
#######################################################################
#
#                 Cambridge Crystallographic Data Centre
#                                CCDC 
#
#######################################################################
#
# If this CIF has been generated from an entry in the Cambridge 
# Structural Database, then it will include bibliographic, chemical, 
# crystal, experimental, refinement or atomic coordinate data resulting 
# from the CCDC's data processing and validation procedures.
#
#######################################################################

data_ICUDER
_symmetry_cell_setting           monoclinic
_symmetry_space_group_name_H-M   'P 21/n'
_symmetry_Int_Tables_number      14
_space_group_name_Hall           '-P 2yn'
loop_
_symmetry_equiv_pos_site_id
_symmetry_equiv_pos_as_xyz
1 x,y,z
2 1/2-x,1/2+y,1/2-z
3 -x,-y,-z
4 1/2+x,1/2-y,1/2+z
_cell_length_a                   7.1083(2)
_cell_length_b                   11.8447(4)
_cell_length_c                   11.1323(3)
_cell_angle_alpha                90
_cell_angle_beta                 101.8280(10)
_cell_angle_gamma                90
_cell_volume                     917.39
loop_
_atom_site_label
_atom_site_type_symbol
_atom_site_fract_x
_atom_site_fract_y
_atom_site_fract_z
Cd1 Cd 0.0000 0.0000 0.5000
N1 N 0.26195(18) 0.10081(10) 0.59085(11)
O1 O 0.10019(17) 0.10919(10) 0.87081(10)
O2 O -0.04024(17) 0.03864(12) 0.69108(10)
O3 O 0.33151(17) 0.33794(10) 0.90996(11)
O4 O 0.50898(17) 0.18960(14) 0.98553(11)
C1 C 0.4028(2) 0.13553(15) 0.53720(14)
H1 H 0.4026 0.1121 0.4574
C2 C 0.5490(3) 0.20492(17) 0.59561(17)
H2 H 0.6460 0.2279 0.5564
C3 C 0.5474(2) 0.23923(16) 0.71361(16)
H3 H 0.6435 0.2867 0.7548
C4 C 0.4018(2) 0.20280(12) 0.77114(13)
C5 C 0.26014(19) 0.13297(11) 0.70638(12)
C6 C 0.0934(2) 0.08981(12) 0.75997(13)
C7 C 0.4111(2) 0.24505(13) 0.90044(13)
Cd1A Cd -0.5000 -0.5000 0.0000
Cd1A_2 Cd 0.5000 0.5000 1.0000
N1B N -0.26195(18) -0.10081(10) 0.40915(11)
O1B O -0.10019(17) -0.10919(10) 0.12919(10)
O2B O 0.04024(17) -0.03864(12) 0.30892(10)
O3B O -0.33151(17) -0.33794(10) 0.09004(11)
O3A O 0.16849(17) -0.16206(10) 0.59004(11)
O3C O -0.16849(17) 0.16206(10) 0.40996(11)
O4B O -0.50898(17) -0.18960(14) 0.01447(11)
C1B C -0.4028(2) -0.13553(15) 0.46280(14)
H1B H -0.4026 -0.1121 0.5426
C2B C -0.5490(3) -0.20492(17) 0.40439(17)
H2B H -0.6460 -0.2279 0.4436
C3B C -0.5474(2) -0.23923(16) 0.28639(16)
H3B H -0.6435 -0.2867 0.2452
C4B C -0.4018(2) -0.20280(12) 0.22886(13)
C5B C -0.26014(19) -0.13297(11) 0.29362(12)
C6B C -0.0934(2) -0.08981(12) 0.24003(13)
C7B C -0.4111(2) -0.24505(13) 0.09956(13)
N2 N 0.2562(2) 0.97733(15) 0.08026(16)
H4 H 0.317(3) 1.0120(15) 0.1362(17)
H5 H 0.221(3) 1.0224(15) 0.0275(17)
H6 H 0.318(3) 0.9295(14) 0.0596(17)
H7 H 0.166(2) 0.9504(16) 0.1010(17)
O5 O 1.0021(2) 0.62985(16) 0.27260(15)
H8 H 0.903(3) 0.6362(19) 0.2165(15)
H9 H 0.976(3) 0.6554(18) 0.3345(15)
loop_
_geom_bond_atom_site_label_1
_geom_bond_atom_site_label_2
_geom_bond_site_symmetry_1
_geom_bond_site_symmetry_2
Cd1 N1 1_555 1_555
N1 C1 1_555 1_555
N2 H4 1_555 1_555
O1 C6 1_555 1_555
O2 Cd1 1_555 1_555
O3 C7 1_555 1_555
O4 C7 1_555 1_555
O5 H8 1_555 1_555
C1 H1 1_555 1_555
C2 C1 1_555 1_555
H2 C2 1_555 1_555
C3 C2 1_555 1_555
H3 C3 1_555 1_555
C4 C3 1_555 1_555
C5 N1 1_555 1_555
C6 O2 1_555 1_555
C7 C4 1_555 1_555
H5 N2 1_555 1_555
H6 N2 1_555 1_555
H7 N2 1_555 1_555
H9 O5 1_555 1_555
Cd1A O3B 1_555 1_555
Cd1A_2 O3 1_555 1_555
N1B Cd1 1_555 1_555
O1B C6B 1_555 1_555
O2B Cd1 1_555 1_555
O3B C7B 1_555 1_555
O3A Cd1 1_555 1_555
O3C Cd1 1_555 1_555
O4B C7B 1_555 1_555
C1B N1B 1_555 1_555
H1B C1B 1_555 1_555
C2B C1B 1_555 1_555
H2B C2B 1_555 1_555
C3B C2B 1_555 1_555
H3B C3B 1_555 1_555
C4B C3B 1_555 1_555
C5B N1B 1_555 1_555
C6B O2B 1_555 1_555
C7B C4B 1_555 1_555
C4 C5 1_555 1_555
C5 C6 1_555 1_555
C4B C5B 1_555 1_555
C5B C6B 1_555 1_555

#END
