
#######################################################################
#
#                 Cambridge Crystallographic Data Centre
#                                CCDC 
#
#######################################################################
#
# If this CIF has been generated from an entry in the Cambridge 
# Structural Database, then it will include bibliographic, chemical, 
# crystal, experimental, refinement or atomic coordinate data resulting 
# from the CCDC's data processing and validation procedures.
#
#######################################################################

data_ICUMIE
_symmetry_cell_setting           monoclinic
_symmetry_space_group_name_H-M   'P 21/c'
_symmetry_Int_Tables_number      14
_space_group_name_Hall           '-P 2ybc'
loop_
_symmetry_equiv_pos_site_id
_symmetry_equiv_pos_as_xyz
1 x,y,z
2 -x,1/2+y,1/2-z
3 -x,-y,-z
4 x,1/2-y,1/2+z
_cell_length_a                   9.620(2)
_cell_length_b                   8.9585(19)
_cell_length_c                   23.319(4)
_cell_angle_alpha                90
_cell_angle_beta                 113.705(7)
_cell_angle_gamma                90
_cell_volume                     1840.09
loop_
_atom_site_label
_atom_site_type_symbol
_atom_site_fract_x
_atom_site_fract_y
_atom_site_fract_z
Zn1 Zn 0.64445(2) 0.39118(2) 0.838643(10)
O1 O 0.43523(16) 0.29932(16) 0.77667(7)
O2 O 0.41316(17) 0.52901(16) 0.80387(7)
O3 O 0.33175(18) 0.54973(19) 0.65668(8)
O4 O 0.19791(16) 0.74703(15) 0.66155(7)
O5 O 0.68099(17) 0.51476(16) 0.76877(6)
H1 H 0.6271 0.5915 0.7530
H2 H 0.6548 0.4557 0.7377
N1 N 0.77344(19) 0.54988(19) 0.90779(7)
N2 N 0.5981(2) 0.3278(2) 0.91829(8)
C1 C 0.5061(3) 0.2218(3) 0.92159(12)
H3 H 0.4546 0.1637 0.8863
C2 C 0.4834(3) 0.1938(3) 0.97604(13)
H4 H 0.4149 0.1207 0.9763
C3 C 0.5620(3) 0.2738(3) 1.02882(12)
H5 H 0.5487 0.2545 1.0655
C4 C 0.6634(3) 0.3856(3) 1.02769(11)
C5 C 0.6740(2) 0.4106(2) 0.97004(10)
C6 C 0.7704(2) 0.5272(2) 0.96480(9)
C7 C 0.8581(3) 0.6114(2) 1.01784(10)
C8 C 0.8499(3) 0.5778(3) 1.07671(11)
H6 H 0.9114 0.6296 1.1125
C9 C 0.7548(3) 0.4729(3) 1.08087(10)
H7 H 0.7481 0.4567 1.1191
C10 C 0.9517(3) 0.7220(3) 1.01002(11)
H8 H 1.0136 0.7787 1.0441
C11 C 0.9521(3) 0.7467(3) 0.95236(11)
H9 H 1.0122 0.8217 0.9466
C12 C 0.8607(3) 0.6574(2) 0.90184(10)
H10 H 0.8616 0.6746 0.8626
C13 C 0.3560(2) 0.4143(2) 0.77381(9)
C14 C 0.1888(2) 0.4104(2) 0.73443(9)
C15 C 0.0958(3) 0.3134(2) 0.74919(11)
H11 H 0.1385 0.2456 0.7818
C16 C -0.0602(3) 0.3166(3) 0.71576(12)
H12 H -0.1221 0.2516 0.7260
C17 C -0.1232(2) 0.4170(3) 0.66706(11)
H13 H -0.2279 0.4196 0.6445
C18 C -0.0313(2) 0.5131(2) 0.65197(10)
H14 H -0.0748 0.5804 0.6192
C19 C 0.1255(2) 0.5109(2) 0.68500(9)
C20 C 0.2279(2) 0.6082(2) 0.66627(9)
Zn1A Zn 0.35555(2) 0.89118(2) 0.661357(10)
O4A O 0.80209(16) 0.24703(15) 0.83845(7)
O6 O 0.46139(19) 0.83456(18) 0.83856(8)
H15 H 0.4609 0.7442 0.8273
H16 H 0.5450 0.8772 0.8447
O7 O 0.761(2) 0.009(2) 0.9791(9)
H17 H 0.8543 -0.0222 0.9952
H18 H 0.7438 0.0238 0.9402
loop_
_geom_bond_atom_site_label_1
_geom_bond_atom_site_label_2
_geom_bond_site_symmetry_1
_geom_bond_site_symmetry_2
Zn1 O1 1_555 1_555
O1 C13 1_555 1_555
O2 Zn1 1_555 1_555
O3 C20 1_555 1_555
O4 C20 1_555 1_555
O5 Zn1 1_555 1_555
H1 O5 1_555 1_555
H2 O5 1_555 1_555
N1 Zn1 1_555 1_555
N2 Zn1 1_555 1_555
C1 N2 1_555 1_555
H3 C1 1_555 1_555
C2 C1 1_555 1_555
H4 C2 1_555 1_555
C3 C2 1_555 1_555
H5 C3 1_555 1_555
C4 C3 1_555 1_555
C5 N2 1_555 1_555
C6 N1 1_555 1_555
C7 C6 1_555 1_555
C8 C7 1_555 1_555
H6 C8 1_555 1_555
C9 C4 1_555 1_555
H7 C9 1_555 1_555
C10 C7 1_555 1_555
H8 C10 1_555 1_555
C11 C10 1_555 1_555
H9 C11 1_555 1_555
C12 N1 1_555 1_555
H10 C12 1_555 1_555
C13 O2 1_555 1_555
C14 C13 1_555 1_555
C15 C14 1_555 1_555
H11 C15 1_555 1_555
C16 C15 1_555 1_555
H12 C16 1_555 1_555
C17 C16 1_555 1_555
H13 C17 1_555 1_555
C18 C17 1_555 1_555
H14 C18 1_555 1_555
C19 C14 1_555 1_555
C20 C19 1_555 1_555
O6 H15 1_555 1_555
H16 O6 1_555 1_555
O7 H17 1_555 1_555
H18 O7 1_555 1_555
Zn1A O4 1_555 1_555
O4A Zn1 1_555 1_555
C4 C5 1_555 1_555
C5 C6 1_555 1_555
C8 C9 1_555 1_555
C11 C12 1_555 1_555
C18 C19 1_555 1_555

#END
