
#######################################################################
#
#                 Cambridge Crystallographic Data Centre
#                                CCDC 
#
#######################################################################
#
# If this CIF has been generated from an entry in the Cambridge 
# Structural Database, then it will include bibliographic, chemical, 
# crystal, experimental, refinement or atomic coordinate data resulting 
# from the CCDC's data processing and validation procedures.
#
#######################################################################

data_ICUNEA01
_symmetry_cell_setting           monoclinic
_symmetry_space_group_name_H-M   'P 21/n'
_symmetry_Int_Tables_number      14
_space_group_name_Hall           '-P 2yn'
loop_
_symmetry_equiv_pos_site_id
_symmetry_equiv_pos_as_xyz
1 x,y,z
2 1/2-x,1/2+y,1/2-z
3 -x,-y,-z
4 1/2+x,1/2-y,1/2+z
_cell_length_a                   11.3780(8)
_cell_length_b                   7.0973(6)
_cell_length_c                   14.7445(12)
_cell_angle_alpha                90
_cell_angle_beta                 107.424(4)
_cell_angle_gamma                90
_cell_volume                     1136.03
loop_
_atom_site_label
_atom_site_type_symbol
_atom_site_fract_x
_atom_site_fract_y
_atom_site_fract_z
H1 H -0.167(2) 0.453(4) 0.336(2)
H2 H -0.222(3) 0.461(3) 0.4033(19)
H5 H -0.148(2) 0.377(3) 0.0997(17)
H6 H -0.149(2) 0.239(3) 0.0374(17)
H7 H 0.402(2) 0.485(2) 0.3583(18)
H8 H -0.106(2) 0.798(3) 0.0153(16)
H9 H -0.0604(19) 0.834(3) 0.4460(16)
H10 H 0.2829(17) 0.472(2) 0.0757(14)
H11 H -0.0517(18) 0.775(3) 0.1038(16)
H12 H -0.040(2) 0.835(3) 0.5461(17)
H13 H 0.0437(19) 0.5017(19) 0.2187(16)
Co1 Co 0.0000 0.5000 0.0000
Co2 Co 0.0000 0.5000 0.5000
O2 O 0.07621(9) 0.53819(16) 0.38815(7)
O3 O 0.57042(8) 0.36816(15) 0.28615(7)
C1 C 0.49812(11) 0.44780(18) 0.21562(9)
O4 O -0.07108(10) 0.77207(15) 0.48900(8)
O5 O -0.06124(10) 0.73912(15) 0.04740(8)
O6 O 0.27432(9) 0.49386(12) 0.47004(7)
O7 O -0.15606(9) 0.41035(17) 0.39344(9)
C2 C 0.36669(11) 0.47511(16) 0.21632(9)
C3 C 0.34015(12) 0.48679(16) 0.30235(9)
O8 O -0.10708(10) 0.33197(16) 0.06573(8)
C4 C 0.26928(12) 0.47974(17) 0.13249(9)
N1 N 0.15049(10) 0.48913(14) 0.13148(8)
C5 C 0.18680(12) 0.51101(15) 0.39418(9)
C6 C 0.21827(12) 0.49910(14) 0.30198(10)
O9 O 0.52691(10) 0.50464(12) 0.14435(8)
C7 C 0.12687(12) 0.49745(16) 0.21521(10)
H1B H 0.167(2) 0.547(4) 0.664(2)
H2B H 0.222(3) 0.539(3) 0.5967(19)
H5B H 0.148(2) 0.623(3) -0.0997(17)
H6B H 0.149(2) 0.761(3) -0.0374(17)
H7B H -0.402(2) 0.515(2) -0.3583(18)
H8B H 0.106(2) 0.202(3) -0.0153(16)
H9B H 0.0604(19) 0.166(3) 0.5540(16)
H10B H -0.2829(17) 0.528(2) -0.0757(14)
H11B H 0.0517(18) 0.225(3) -0.1038(16)
H12B H 0.040(2) 0.165(3) 0.4539(17)
H13B H -0.0437(19) 0.4983(19) -0.2187(16)
Co2_2 Co 0.0000 0.5000 -0.5000
O2B O -0.07621(9) 0.46181(16) -0.38815(7)
O2B_2 O -0.07621(9) 0.46181(16) 0.61185(7)
O3B O -0.57042(8) 0.63184(15) -0.28615(7)
C1B C -0.49812(11) 0.55220(18) -0.21562(9)
O4B O 0.07108(10) 0.22793(15) 0.51100(8)
O5B O 0.06124(10) 0.26088(15) -0.04740(8)
O6B O -0.27432(9) 0.50614(12) -0.47004(7)
O7B O 0.15606(9) 0.58965(17) 0.60656(9)
C2B C -0.36669(11) 0.52489(16) -0.21632(9)
C3B C -0.34015(12) 0.51321(16) -0.30235(9)
O8B O 0.10708(10) 0.66803(16) -0.06573(8)
C4B C -0.26928(12) 0.52026(17) -0.13249(9)
N1B N -0.15049(10) 0.51087(14) -0.13148(8)
C5B C -0.18680(12) 0.48899(15) -0.39418(9)
C6B C -0.21827(12) 0.50090(14) -0.30198(10)
O9B O -0.52691(10) 0.49536(12) -0.14435(8)
C7B C -0.12687(12) 0.50255(16) -0.21521(10)
H3 H 0.814(2) 0.635(4) 0.202(2)
H4 H 0.711(3) 0.522(3) 0.175(2)
O1 O 0.79308(13) 0.51897(18) 0.19942(12)
loop_
_geom_bond_atom_site_label_1
_geom_bond_atom_site_label_2
_geom_bond_site_symmetry_1
_geom_bond_site_symmetry_2
H1 O7 1_555 1_555
H2 O7 1_555 1_555
H3 O1 1_555 1_555
H4 O1 1_555 1_555
H5 O8 1_555 1_555
H6 O8 1_555 1_555
H7 C3 1_555 1_555
H8 O5 1_555 1_555
H9 O4 1_555 1_555
H10 C4 1_555 1_555
H11 O5 1_555 1_555
H12 O4 1_555 1_555
H13 C7 1_555 1_555
Co1 O5 1_555 1_555
Co2 O2 1_555 1_555
O2 C5 1_555 1_555
O3 C1 1_555 1_555
C1 C2 1_555 1_555
O4 Co2 1_555 1_555
O6 C5 1_555 1_555
O7 Co2 1_555 1_555
C2 C3 1_555 1_555
C3 C6 1_555 1_555
O8 Co1 1_555 1_555
C4 C2 1_555 1_555
N1 Co1 1_555 1_555
C5 C6 1_555 1_555
C6 C7 1_555 1_555
O9 C1 1_555 1_555
C7 N1 1_555 1_555
H1B O7B 1_555 1_555
H2B O7B 1_555 1_555
H5B O8B 1_555 1_555
H6B O8B 1_555 1_555
H7B C3B 1_555 1_555
H8B O5B 1_555 1_555
H9B O4B 1_555 1_555
H10B C4B 1_555 1_555
H11B O5B 1_555 1_555
H12B O4B 1_555 1_555
H13B C7B 1_555 1_555
Co2_2 O2B 1_555 1_555
O2B C5B 1_555 1_555
O2B_2 Co2 1_555 1_555
O3B C1B 1_555 1_555
C1B C2B 1_555 1_555
O4B Co2 1_555 1_555
O5B Co1 1_555 1_555
O6B C5B 1_555 1_555
O7B Co2 1_555 1_555
C2B C3B 1_555 1_555
C3B C6B 1_555 1_555
O8B Co1 1_555 1_555
C4B C2B 1_555 1_555
N1B Co1 1_555 1_555
C5B C6B 1_555 1_555
C6B C7B 1_555 1_555
O9B C1B 1_555 1_555
C7B N1B 1_555 1_555
C4 N1 1_555 1_555
C4B N1B 1_555 1_555

#END
