
#######################################################################
#
#                 Cambridge Crystallographic Data Centre
#                                CCDC 
#
#######################################################################
#
# If this CIF has been generated from an entry in the Cambridge 
# Structural Database, then it will include bibliographic, chemical, 
# crystal, experimental, refinement or atomic coordinate data resulting 
# from the CCDC's data processing and validation procedures.
#
#######################################################################

data_ICUPAY
_symmetry_cell_setting           triclinic
_symmetry_space_group_name_H-M   'P -1'
_symmetry_Int_Tables_number      2
_space_group_name_Hall           '-P 1'
loop_
_symmetry_equiv_pos_site_id
_symmetry_equiv_pos_as_xyz
1 x,y,z
2 -x,-y,-z
_cell_length_a                   11.4366(2)
_cell_length_b                   12.0522(3)
_cell_length_c                   16.6213(3)
_cell_angle_alpha                91.8000(10)
_cell_angle_beta                 107.1070(10)
_cell_angle_gamma                106.0700(10)
_cell_volume                     2088.15
loop_
_atom_site_label
_atom_site_type_symbol
_atom_site_fract_x
_atom_site_fract_y
_atom_site_fract_z
Gd1 Gd 0.918255(18) 0.126681(16) 0.465786(11)
Gd2 Gd 1.154080(19) 0.494900(17) 0.109910(11)
O1 O 1.1138(3) 0.0995(3) 0.47282(17)
O2 O 0.9959(3) 0.1349(3) 0.61575(17)
O3 O 1.2559(3) 0.0021(3) 0.49725(17)
O4 O 1.1212(3) 0.0189(3) 0.64912(17)
O5 O 0.9141(3) 0.2364(3) 0.34527(17)
O6 O 0.7260(3) 0.1318(3) 0.35194(17)
O7 O 0.9466(3) 0.3764(3) 0.0722(2)
O8 O 1.1213(3) 0.4033(3) 0.97695(18)
O9 O 0.7710(3) 0.3466(3) -0.03783(19)
O10 O 0.9617(3) 0.3837(3) 0.8573(2)
O11 O 1.1923(3) 0.3073(3) 0.14173(18)
O12 O 1.1721(3) 0.4108(3) 0.24559(18)
N1 N 1.0854(4) 0.3322(3) 0.5390(2)
N2 N 0.8325(4) 0.2775(3) 0.5222(2)
C1 C 1.2125(5) 0.3560(4) 0.5508(3)
H1 H 1.2394 0.3052 0.5224
C2 C 1.3038(6) 0.4511(5) 0.6023(4)
H2 H 1.3904 0.4631 0.6096
C3 C 1.2648(6) 0.5273(5) 0.6423(4)
H3 H 1.3246 0.5937 0.6761
C4 C 1.1362(6) 0.5060(5) 0.6327(3)
H4 H 1.1086 0.5568 0.6606
C5 C 1.0487(5) 0.4074(4) 0.5807(3)
C6 C 0.9089(5) 0.3807(4) 0.5674(3)
C7 C 0.7268(6) 0.4290(5) 0.5840(4)
H5 H 0.6917 0.4800 0.6048
C8 C 0.6490(5) 0.3241(5) 0.5378(3)
H6 H 0.5606 0.3031 0.5266
C9 C 0.7055(5) 0.2512(4) 0.5086(3)
H7 H 0.6531 0.1800 0.4779
C10 C 0.8572(6) 0.4576(5) 0.5991(3)
H8 H 0.9106 0.5281 0.6304
N3 N 1.3316(4) 0.6650(3) 0.2176(2)
N4 N 1.3907(4) 0.5092(4) 0.1293(3)
C11 C 1.2989(6) 0.7419(5) 0.2587(3)
H9 H 1.2133 0.7260 0.2555
C12 C 1.3840(9) 0.8436(6) 0.3056(5)
H10 H 1.3563 0.8951 0.3327
C13 C 1.5100(10) 0.8671(7) 0.3114(5)
H11 H 1.5701 0.9348 0.3430
C14 C 1.5467(7) 0.7903(7) 0.2702(5)
H12 H 1.6324 0.8052 0.2735
C15 C 1.4548(5) 0.6880(5) 0.2225(3)
C16 C 1.4875(5) 0.6008(6) 0.1756(4)
C17 C 1.6147(6) 0.6105(9) 0.1800(6)
H13 H 1.6818 0.6734 0.2127
C18 C 1.6384(8) 0.5270(10) 0.1360(7)
H14 H 1.7221 0.5341 0.1376
C19 C 1.5414(8) 0.4331(8) 0.0896(6)
H15 H 1.5577 0.3751 0.0603
C20 C 1.4154(6) 0.4266(6) 0.0873(4)
H16 H 1.3478 0.3633 0.0557
C21 C 1.0674(4) 0.0893(4) 0.6679(2)
C22 C 1.0884(4) 0.1212(4) 0.7608(3)
C23 C 1.1403(6) 0.0563(5) 0.8201(3)
H17 H 1.1626 -0.0068 0.8026
C24 C 1.1600(7) 0.0842(6) 0.9059(3)
H18 H 1.1926 0.0383 0.9452
C25 C 1.1310(6) 0.1801(5) 0.9327(3)
H19 H 1.1469 0.2004 0.9902
C26 C 1.0782(4) 0.2460(4) 0.8738(3)
C27 C 1.0540(4) 0.2144(4) 0.7877(3)
H20 H 1.0145 0.2561 0.7479
C28 C 1.0508(4) 0.3512(4) 0.9044(3)
C29 C 0.7949(4) 0.1861(4) 0.3106(2)
C30 C 0.7356(4) 0.1884(4) 0.2167(3)
C31 C 0.6108(4) 0.1200(4) 0.1755(3)
H21 H 0.5624 0.0759 0.2060
C32 C 0.5586(5) 0.1175(5) 0.0885(3)
H22 H 0.4754 0.0705 0.0607
C33 C 0.6284(4) 0.1837(4) 0.0434(3)
H23 H 0.5917 0.1822 -0.0147
C34 C 0.7549(4) 0.2540(4) 0.0839(3)
C35 C 0.8073(4) 0.2539(4) 0.1711(2)
H24 H 0.8915 0.2984 0.1989
C36 C 0.8294(5) 0.3308(4) 0.0360(3)
C37 C 1.2021(4) 0.3266(4) 0.2186(3)
C38 C 1.2599(4) 0.2527(4) 0.2803(3)
C39 C 1.3688(4) 0.2294(4) 0.2726(3)
H25 H 1.4006 0.2566 0.2291
C40 C 1.4304(5) 0.1658(5) 0.3293(3)
H26 H 1.5066 0.1549 0.3265
C41 C 1.3778(4) 0.1190(4) 0.3897(3)
H27 H 1.4173 0.0738 0.4262
C42 C 1.2669(4) 0.1381(4) 0.3971(3)
C43 C 1.2092(4) 0.2072(4) 0.3430(3)
H28 H 1.1368 0.2230 0.3488
C44 C 1.2093(4) 0.0769(4) 0.4596(2)
Gd1A Gd 1.081745(18) -0.126681(16) 0.534214(11)
Gd2_2 Gd 1.154080(19) 0.494900(17) 1.109910(11)
Gd2A Gd 0.845920(19) 0.505100(17) -0.109910(11)
Gd2A_2 Gd 0.845920(19) 0.505100(17) 0.890090(11)
O3A O 0.7441(3) -0.0021(3) 0.50275(17)
O4A O 0.8788(3) -0.0189(3) 0.35088(17)
O8_2 O 1.1213(3) 0.4033(3) -0.02305(18)
O9A O 1.2290(3) 0.6534(3) 0.03783(19)
O10A O 1.0383(3) 0.6163(3) 0.1427(2)
loop_
_geom_bond_atom_site_label_1
_geom_bond_atom_site_label_2
_geom_bond_site_symmetry_1
_geom_bond_site_symmetry_2
Gd1 O1 1_555 1_555
Gd2 O7 1_555 1_555
O1 C44 1_555 1_555
O2 Gd1 1_555 1_555
O3 C44 1_555 1_555
O4 C21 1_555 1_555
O5 Gd1 1_555 1_555
O6 Gd1 1_555 1_555
O7 C36 1_555 1_555
O8 C28 1_555 1_555
O9 C36 1_555 1_555
O10 C28 1_555 1_555
O11 Gd2 1_555 1_555
O12 Gd2 1_555 1_555
N1 Gd1 1_555 1_555
N2 Gd1 1_555 1_555
C1 N1 1_555 1_555
H1 C1 1_555 1_555
C2 C1 1_555 1_555
H2 C2 1_555 1_555
C3 C2 1_555 1_555
H3 C3 1_555 1_555
C4 C3 1_555 1_555
H4 C4 1_555 1_555
C5 N1 1_555 1_555
C6 N2 1_555 1_555
C7 H5 1_555 1_555
C8 C7 1_555 1_555
H6 C8 1_555 1_555
C9 N2 1_555 1_555
H7 C9 1_555 1_555
C10 C6 1_555 1_555
H8 C10 1_555 1_555
N3 Gd2 1_555 1_555
N4 Gd2 1_555 1_555
C11 N3 1_555 1_555
H9 C11 1_555 1_555
C12 C11 1_555 1_555
H10 C12 1_555 1_555
C13 C12 1_555 1_555
H11 C13 1_555 1_555
C14 C13 1_555 1_555
H12 C14 1_555 1_555
C15 N3 1_555 1_555
C16 N4 1_555 1_555
C17 C16 1_555 1_555
H13 C17 1_555 1_555
C18 C17 1_555 1_555
H14 C18 1_555 1_555
C19 C18 1_555 1_555
H15 C19 1_555 1_555
C20 N4 1_555 1_555
H16 C20 1_555 1_555
C21 O2 1_555 1_555
C22 C21 1_555 1_555
C23 C22 1_555 1_555
H17 C23 1_555 1_555
C24 C23 1_555 1_555
H18 C24 1_555 1_555
C25 C24 1_555 1_555
H19 C25 1_555 1_555
C26 C25 1_555 1_555
C27 C22 1_555 1_555
H20 C27 1_555 1_555
C28 C26 1_555 1_555
C29 O5 1_555 1_555
C30 C29 1_555 1_555
C31 C30 1_555 1_555
H21 C31 1_555 1_555
C32 C31 1_555 1_555
H22 C32 1_555 1_555
C33 C32 1_555 1_555
H23 C33 1_555 1_555
C34 C33 1_555 1_555
C35 C30 1_555 1_555
H24 C35 1_555 1_555
C36 C34 1_555 1_555
C37 O11 1_555 1_555
C38 C37 1_555 1_555
C39 C38 1_555 1_555
H25 C39 1_555 1_555
C40 C39 1_555 1_555
H26 C40 1_555 1_555
C41 C40 1_555 1_555
H27 C41 1_555 1_555
C42 C41 1_555 1_555
C43 C38 1_555 1_555
H28 C43 1_555 1_555
C44 C42 1_555 1_555
Gd1A O3 1_555 1_555
Gd2_2 O8 1_555 1_555
Gd2A O9 1_555 1_555
Gd2A_2 O10 1_555 1_555
O3A Gd1 1_555 1_555
O4A Gd1 1_555 1_555
O8_2 Gd2 1_555 1_555
O9A Gd2 1_555 1_555
O10A Gd2 1_555 1_555
O4 Gd1A 1_555 1_555
O6 C29 1_555 1_555
O12 C37 1_555 1_555
C4 C5 1_555 1_555
C5 C6 1_555 1_555
C7 C10 1_555 1_555
C8 C9 1_555 1_555
C14 C15 1_555 1_555
C15 C16 1_555 1_555
C19 C20 1_555 1_555
C26 C27 1_555 1_555
C34 C35 1_555 1_555
C42 C43 1_555 1_555

#END
