
#######################################################################
#
#                 Cambridge Crystallographic Data Centre
#                                CCDC 
#
#######################################################################
#
# If this CIF has been generated from an entry in the Cambridge 
# Structural Database, then it will include bibliographic, chemical, 
# crystal, experimental, refinement or atomic coordinate data resulting 
# from the CCDC's data processing and validation procedures.
#
#######################################################################

data_IDAGIE
_symmetry_cell_setting           monoclinic
_symmetry_space_group_name_H-M   'P 21/c'
_symmetry_Int_Tables_number      14
_space_group_name_Hall           '-P 2ybc'
loop_
_symmetry_equiv_pos_site_id
_symmetry_equiv_pos_as_xyz
1 x,y,z
2 -x,1/2+y,1/2-z
3 -x,-y,-z
4 x,1/2-y,1/2+z
_cell_length_a                   8.1699(8)
_cell_length_b                   15.8073(13)
_cell_length_c                   11.2115(11)
_cell_angle_alpha                90.00
_cell_angle_beta                 106.481(3)
_cell_angle_gamma                90.00
_cell_volume                     1388.41
loop_
_atom_site_label
_atom_site_type_symbol
_atom_site_fract_x
_atom_site_fract_y
_atom_site_fract_z
La1 La 0.73276(4) 0.162400(17) 0.47059(2)
P1 P 1.00052(17) 0.25890(8) 0.28411(11)
P2 P 1.48239(19) 0.21277(11) 0.14617(15)
N1 N 1.1958(5) 0.1370(3) 0.1929(4)
H1 H 1.2817 0.0989 0.2211
C1 C 1.1650(7) 0.1777(3) 0.3060(4)
H2 H 1.2719 0.2025 0.3543
H3 H 1.1369 0.1331 0.3563
C2 C 1.2555(6) 0.1987(3) 0.1110(4)
H4 H 1.2041 0.2533 0.1167
H5 H 1.2129 0.1797 0.0255
C3 C 1.0412(7) 0.0874(3) 0.1220(5)
H6 H 0.9584 0.1259 0.0704
H7 H 0.9892 0.0612 0.1806
C4 C 1.0837(7) 0.0195(3) 0.0407(5)
H8 H 1.1532 -0.0239 0.0922
H9 H 1.1478 0.0438 -0.0116
C5 C 0.4374(7) 0.0082(3) 0.4337(4)
C6 C 0.9433(6) -0.0167(3) 0.4365(4)
O1 O 0.4764(5) 0.0666(2) 0.3723(3)
O2 O 0.3087(5) -0.0375(2) 0.3999(3)
O3 O 0.8377(5) 0.0328(2) 0.3700(3)
O4 O 0.9705(5) -0.0920(2) 0.4123(3)
O5 O 0.9287(5) 0.2444(2) 0.3909(3)
O6 O 0.8827(4) 0.2562(2) 0.1550(3)
O7 O 1.1018(5) 0.3443(2) 0.3076(3)
H10 H 1.0866 0.3698 0.2416
O8 O 1.5508(7) 0.1230(3) 0.1207(5)
H11 H 1.5471 0.0905 0.1769
O9 O 1.5511(5) 0.2326(3) 0.2815(4)
O10 O 1.5069(5) 0.2770(3) 0.0542(4)
La1B La 0.26724(4) -0.162400(17) 0.52941(2)
La1B_2 La 1.26724(4) -0.162400(17) 0.52941(2)
La1C La 0.73276(4) 0.337600(17) -0.02941(2)
La1_2 La 1.73276(4) 0.162400(17) 0.47059(2)
La1C_2 La 1.73276(4) 0.337600(17) -0.02941(2)
La1B_3 La 1.26724(4) -0.162400(17) -0.47059(2)
La1A La 1.26724(4) -0.337600(17) 0.02941(2)
La1B_4 La 0.26724(4) -0.162400(17) -0.47059(2)
La1A_2 La 0.26724(4) -0.337600(17) 0.02941(2)
P1B P 0.99948(17) -0.25890(8) -0.28411(11)
P2B P 0.51761(19) -0.21277(11) -0.14617(15)
N1B N 0.8042(5) -0.1370(3) -0.1929(4)
H1B H 0.7183 -0.0989 -0.2211
C1B C 0.8350(7) -0.1777(3) -0.3060(4)
H2B H 0.7281 -0.2025 -0.3543
H3B H 0.8631 -0.1331 -0.3563
C2B C 0.7445(6) -0.1987(3) -0.1110(4)
H4B H 0.7959 -0.2533 -0.1167
H5B H 0.7871 -0.1797 -0.0255
C3B C 0.9588(7) -0.0874(3) -0.1220(5)
H6B H 1.0416 -0.1259 -0.0704
H7B H 1.0108 -0.0612 -0.1806
C4B C 0.9163(7) -0.0195(3) -0.0407(5)
H8B H 0.8468 0.0239 -0.0922
H9B H 0.8522 -0.0438 0.0116
C5B C 0.5626(7) -0.0082(3) 0.5663(4)
C6B C 1.0567(6) 0.0167(3) 0.5635(4)
O1B O 0.5236(5) -0.0666(2) 0.6277(3)
O2B O 0.6913(5) 0.0375(2) 0.6001(3)
O3B O 1.1623(5) -0.0328(2) 0.6300(3)
O3B_2 O 0.1623(5) -0.0328(2) 0.6300(3)
O4B O 1.0295(5) 0.0920(2) 0.5877(3)
O4_2 O -0.0295(5) -0.0920(2) 0.4123(3)
O5B O 1.0713(5) -0.2444(2) -0.3909(3)
O5B_2 O 0.0713(5) -0.2444(2) 0.6091(3)
O6B O 1.1173(4) -0.2562(2) -0.1550(3)
O6C O 0.8827(4) 0.2438(2) 0.6550(3)
O6A O 0.1173(4) -0.2438(2) 0.3450(3)
O7B O 0.8982(5) -0.3443(2) -0.3076(3)
H10B H 0.9134 -0.3698 -0.2416
O8B O 0.4492(7) -0.1230(3) -0.1207(5)
H11B H 0.4529 -0.0905 -0.1769
O9B O 0.4489(5) -0.2326(3) -0.2815(4)
O9_2 O 0.5511(5) 0.2326(3) 0.2815(4)
O9B_2 O 0.4489(5) -0.2326(3) 0.7185(4)
O10B O 0.4931(5) -0.2770(3) -0.0542(4)
O10C O 0.5069(5) 0.2230(3) 0.5542(4)
O10A O 0.4931(5) -0.2230(3) 0.4458(4)
O11 O 0.5129(11) 0.0888(5) -0.1237(7)
loop_
_geom_bond_atom_site_label_1
_geom_bond_atom_site_label_2
_geom_bond_site_symmetry_1
_geom_bond_site_symmetry_2
La1 O1 1_555 1_555
P1 C1 1_555 1_555
P2 C2 1_555 1_555
N1 H1 1_555 1_555
C1 N1 1_555 1_555
H2 C1 1_555 1_555
H3 C1 1_555 1_555
C2 N1 1_555 1_555
H4 C2 1_555 1_555
H5 C2 1_555 1_555
C3 N1 1_555 1_555
H6 C3 1_555 1_555
H7 C3 1_555 1_555
C4 C3 1_555 1_555
H8 C4 1_555 1_555
H9 C4 1_555 1_555
C5 O1 1_555 1_555
C6 O3 1_555 1_555
O2 C5 1_555 1_555
O3 La1 1_555 1_555
O4 C6 1_555 1_555
O5 La1 1_555 1_555
O6 P1 1_555 1_555
O7 P1 1_555 1_555
H10 O7 1_555 1_555
O8 P2 1_555 1_555
H11 O8 1_555 1_555
O9 P2 1_555 1_555
O10 P2 1_555 1_555
La1B O2 1_555 1_555
La1B_2 O4 1_555 1_555
La1C O6 1_555 1_555
La1_2 O9 1_555 1_555
La1C_2 O10 1_555 1_555
La1B_3 O5B 1_555 1_555
La1A O6B 1_555 1_555
La1B_4 O9B 1_555 1_555
La1A_2 O10B 1_555 1_555
P1B C1B 1_555 1_555
P2B C2B 1_555 1_555
N1B H1B 1_555 1_555
C1B N1B 1_555 1_555
H2B C1B 1_555 1_555
H3B C1B 1_555 1_555
C2B N1B 1_555 1_555
H4B C2B 1_555 1_555
H5B C2B 1_555 1_555
C3B N1B 1_555 1_555
H6B C3B 1_555 1_555
H7B C3B 1_555 1_555
C4B C4 1_555 1_555
H8B C4B 1_555 1_555
H9B C4B 1_555 1_555
C5B C5 1_555 1_555
C6B C6 1_555 1_555
O1B La1B 1_555 1_555
O2B La1 1_555 1_555
O3B La1B_2 1_555 1_555
O3B_2 La1B 1_555 1_555
O4B La1 1_555 1_555
O4_2 La1B 1_555 1_555
O5B P1B 1_555 1_555
O5B_2 La1B 1_555 1_555
O6B P1B 1_555 1_555
O6C La1 1_555 1_555
O6A La1B 1_555 1_555
O7B P1B 1_555 1_555
H10B O7B 1_555 1_555
O8B P2B 1_555 1_555
H11B O8B 1_555 1_555
O9B P2B 1_555 1_555
O9_2 La1 1_555 1_555
O9B_2 La1B 1_555 1_555
O10B P2B 1_555 1_555
O10C La1 1_555 1_555
O10A La1B 1_555 1_555
P1 O5 1_555 1_555
C3B C4B 1_555 1_555
C5B O1B 1_555 1_555
C5B O2B 1_555 1_555
C6B O3B 1_555 1_555
C6B O4B 1_555 1_555

#END
