
#######################################################################
#
#                 Cambridge Crystallographic Data Centre
#                                CCDC 
#
#######################################################################
#
# If this CIF has been generated from an entry in the Cambridge 
# Structural Database, then it will include bibliographic, chemical, 
# crystal, experimental, refinement or atomic coordinate data resulting 
# from the CCDC's data processing and validation procedures.
#
#######################################################################

data_IDAGUQ
_symmetry_cell_setting           triclinic
_symmetry_space_group_name_H-M   'P -1'
_symmetry_Int_Tables_number      2
_space_group_name_Hall           '-P 1'
loop_
_symmetry_equiv_pos_site_id
_symmetry_equiv_pos_as_xyz
1 x,y,z
2 -x,-y,-z
_cell_length_a                   9.544(2)
_cell_length_b                   9.662(2)
_cell_length_c                   9.684(2)
_cell_angle_alpha                106.867(8)
_cell_angle_beta                 98.439(5)
_cell_angle_gamma                110.228(5)
_cell_volume                     770.925
loop_
_atom_site_label
_atom_site_type_symbol
_atom_site_fract_x
_atom_site_fract_y
_atom_site_fract_z
Eu1 Eu 0.58758(3) 0.72601(3) 0.81738(3)
P1 P 0.76115(16) 1.02956(17) 0.65297(15)
P2 P 0.73830(14) 1.51093(15) 0.51597(13)
N1 N 0.7419(5) 1.3304(5) 0.6942(4)
H1 H 0.6855 1.3834 0.7324
C1 C 0.9059(6) 1.4285(6) 0.7889(5)
H2 H 0.9730 1.3814 0.7486
H3 H 0.9393 1.5341 0.7855
C2 C 0.9213(6) 1.4401(7) 0.9515(6)
H4 H 0.9053 1.3375 0.9574
H5 H 0.8425 1.4707 0.9869
C3 C 0.6718(6) 1.1700(6) 0.7043(6)
H6 H 0.6675 1.1866 0.8071
H7 H 0.5653 1.1183 0.6420
C4 C 0.7247(6) 1.3240(6) 0.5352(5)
H8 H 0.8049 1.2970 0.4990
H9 H 0.6249 1.2406 0.4725
C5 C 0.5353(6) 0.4463(6) 0.9557(5)
C6 C 0.5795(5) 1.0390(6) 1.0590(5)
O1 O 0.5867(4) 0.4848(4) 0.8543(4)
O2 O 0.5359(4) 0.3334(4) 0.9919(4)
O3 O 0.6758(4) 0.9784(4) 1.0303(4)
O4 O 0.6027(4) 1.1552(4) 1.1719(4)
O5 O 0.6625(5) 0.8919(4) 0.6866(4)
O6 O 0.7295(5) 0.9900(5) 0.4803(4)
H10 H 0.7484 0.9134 0.4417
O7 O 0.9310(4) 1.0994(5) 0.7311(5)
O8 O 0.6451(4) 1.4672(4) 0.3589(4)
O9 O 0.9119(4) 1.6094(4) 0.5277(4)
H11 H 0.9474 1.6917 0.6016
O10 O 0.6908(4) 1.5957(4) 0.6428(4)
O11 O 0.8611(5) 0.7985(5) 0.9527(5)
H12 H 0.887(7) 0.820(8) 1.045(3)
H13 H 0.916(8) 0.814(10) 0.890(6)
Eu1A Eu 0.41242(3) 0.27399(3) 1.18262(3)
Eu1A_2 Eu 0.41242(3) 1.27399(3) 1.18262(3)
Eu1A_3 Eu 0.41242(3) 1.27399(3) 0.18262(3)
Eu1_2 Eu 0.58758(3) 1.72601(3) 0.81738(3)
Eu1A_4 Eu 1.41242(3) 2.27399(3) 1.18262(3)
Eu1_3 Eu 1.58758(3) 1.72601(3) 1.81738(3)
Eu1A_5 Eu 1.41242(3) 1.27399(3) 1.18262(3)
P1A P 1.23885(16) 1.97044(17) 1.34703(15)
P2A P 1.26170(14) 1.48907(15) 1.48403(13)
N1A N 1.2581(5) 1.6696(5) 1.3058(4)
H1A H 1.3145 1.6166 1.2676
C1A C 1.0941(6) 1.5715(6) 1.2111(5)
H2A H 1.0270 1.6186 1.2514
H3A H 1.0607 1.4659 1.2145
C2A C 1.0787(6) 1.5599(7) 1.0485(6)
H4A H 1.0947 1.6625 1.0426
H5A H 1.1575 1.5293 1.0131
C3A C 1.3282(6) 1.8300(6) 1.2957(6)
H6A H 1.3325 1.8134 1.1929
H7A H 1.4347 1.8817 1.3580
C4A C 1.2753(6) 1.6760(6) 1.4648(5)
H8A H 1.1951 1.7030 1.5010
H9A H 1.3751 1.7594 1.5275
C5A C 0.4647(6) 0.5537(6) 1.0443(5)
C6A C 0.4205(5) 0.9610(6) 0.9410(5)
O1A O 0.4133(4) 0.5152(4) 1.1457(4)
O2A O 0.4641(4) 0.6666(4) 1.0081(4)
O3A O 0.3242(4) 1.0216(4) 0.9697(4)
O3A_2 O 0.3242(4) 0.0216(4) 0.9697(4)
O4A O 0.3973(4) 0.8448(4) 0.8281(4)
O4_2 O 0.6027(4) 0.1552(4) 1.1719(4)
O5A O 1.3375(5) 2.1081(4) 1.3134(4)
O5A_2 O 0.3375(5) 0.1081(4) 1.3134(4)
O6A O 1.2705(5) 2.0100(5) 1.5197(4)
H10A H 1.2516 2.0866 1.5583
O7A O 1.0690(4) 1.9006(5) 1.2689(5)
O8A O 1.3549(4) 1.5328(4) 1.6411(4)
O8A_2 O 0.3549(4) 0.5328(4) 0.6411(4)
O8_2 O 0.6451(4) 0.4672(4) 1.3589(4)
O9A O 1.0881(4) 1.3906(4) 1.4723(4)
H11A H 1.0526 1.3083 1.3984
O10A O 1.3092(4) 1.4043(4) 1.3572(4)
O10_2 O 0.6908(4) 0.5957(4) 0.6428(4)
O10A_2 O 0.3092(4) 0.4043(4) 1.3572(4)
O11A O 0.1389(5) 0.2015(5) 1.0473(5)
H12A H 0.113(7) 0.180(8) 0.955(3)
H13A H 0.084(8) 0.186(10) 1.110(6)
O12 O -0.0412(5) 0.1286(5) 0.2352(5)
H14 H -0.134(11) 0.080(10) 0.175(10)
H15 H -0.031(12) 0.070(12) 0.262(11)
O13 O 0.2243(6) 1.2391(6) 0.7009(5)
H16 H 0.257(11) 1.316(11) 0.689(10)
H17 H 0.110(7) 1.197(7) 0.686(6)
loop_
_geom_bond_atom_site_label_1
_geom_bond_atom_site_label_2
_geom_bond_site_symmetry_1
_geom_bond_site_symmetry_2
Eu1 O1 1_555 1_555
P1 C3 1_555 1_555
P2 C4 1_555 1_555
N1 H1 1_555 1_555
C1 N1 1_555 1_555
H2 C1 1_555 1_555
H3 C1 1_555 1_555
C2 C1 1_555 1_555
H4 C2 1_555 1_555
H5 C2 1_555 1_555
C3 N1 1_555 1_555
H6 C3 1_555 1_555
H7 C3 1_555 1_555
C4 N1 1_555 1_555
H8 C4 1_555 1_555
H9 C4 1_555 1_555
C5 O1 1_555 1_555
C6 O3 1_555 1_555
O2 C5 1_555 1_555
O3 Eu1 1_555 1_555
O4 C6 1_555 1_555
O5 Eu1 1_555 1_555
O6 P1 1_555 1_555
H10 O6 1_555 1_555
O7 P1 1_555 1_555
O8 P2 1_555 1_555
O9 P2 1_555 1_555
H11 O9 1_555 1_555
O10 P2 1_555 1_555
O11 Eu1 1_555 1_555
O12 H14 1_555 1_555
O13 H16 1_555 1_555
H12 O11 1_555 1_555
H13 O11 1_555 1_555
H15 O12 1_555 1_555
H17 O13 1_555 1_555
Eu1A O2 1_555 1_555
Eu1A_2 O4 1_555 1_555
Eu1A_3 O8 1_555 1_555
Eu1_2 O10 1_555 1_555
Eu1A_4 O5A 1_555 1_555
Eu1_3 O8A 1_555 1_555
Eu1A_5 O10A 1_555 1_555
P1A C3A 1_555 1_555
P2A C4A 1_555 1_555
N1A H1A 1_555 1_555
C1A N1A 1_555 1_555
H2A C1A 1_555 1_555
H3A C1A 1_555 1_555
C2A C2 1_555 1_555
H4A C2A 1_555 1_555
H5A C2A 1_555 1_555
C3A N1A 1_555 1_555
H6A C3A 1_555 1_555
H7A C3A 1_555 1_555
C4A N1A 1_555 1_555
H8A C4A 1_555 1_555
H9A C4A 1_555 1_555
C5A C5 1_555 1_555
C6A C6 1_555 1_555
O1A Eu1A 1_555 1_555
O2A Eu1 1_555 1_555
O3A Eu1A_2 1_555 1_555
O3A_2 Eu1A 1_555 1_555
O4A Eu1 1_555 1_555
O4_2 Eu1A 1_555 1_555
O5A P1A 1_555 1_555
O5A_2 Eu1A 1_555 1_555
O6A P1A 1_555 1_555
H10A O6A 1_555 1_555
O7A P1A 1_555 1_555
O8A P2A 1_555 1_555
O8A_2 Eu1 1_555 1_555
O8_2 Eu1A 1_555 1_555
O9A P2A 1_555 1_555
H11A O9A 1_555 1_555
O10A P2A 1_555 1_555
O10_2 Eu1 1_555 1_555
O10A_2 Eu1A 1_555 1_555
O11A Eu1A 1_555 1_555
H12A O11A 1_555 1_555
H13A O11A 1_555 1_555
P1 O5 1_555 1_555
C1A C2A 1_555 1_555
C5A O1A 1_555 1_555
C5A O2A 1_555 1_555
C6A O3A 1_555 1_555
C6A O4A 1_555 1_555

#END
