
#######################################################################
#
#                 Cambridge Crystallographic Data Centre
#                                CCDC 
#
#######################################################################
#
# If this CIF has been generated from an entry in the Cambridge 
# Structural Database, then it will include bibliographic, chemical, 
# crystal, experimental, refinement or atomic coordinate data resulting 
# from the CCDC's data processing and validation procedures.
#
#######################################################################

data_IDAJIH
_symmetry_cell_setting           monoclinic
_symmetry_space_group_name_H-M   'P 21/n'
_symmetry_Int_Tables_number      14
_space_group_name_Hall           '-P 2yn'
loop_
_symmetry_equiv_pos_site_id
_symmetry_equiv_pos_as_xyz
1 x,y,z
2 1/2-x,1/2+y,1/2-z
3 -x,-y,-z
4 1/2+x,1/2-y,1/2+z
_cell_length_a                   8.0693(16)
_cell_length_b                   13.850(3)
_cell_length_c                   9.985(3)
_cell_angle_alpha                90
_cell_angle_beta                 105.765(9)
_cell_angle_gamma                90
_cell_volume                     1073.95
loop_
_atom_site_label
_atom_site_type_symbol
_atom_site_fract_x
_atom_site_fract_y
_atom_site_fract_z
Sr1 Sr 0.01515(2) 1.150717(14) 0.578898(19)
P1 P -0.04337(7) 1.36001(4) 0.31922(6)
P2 P 0.47453(7) 1.54372(4) 0.25671(5)
P3 P -0.04133(7) 1.67479(4) 0.11755(5)
O1 O 0.0075(2) 1.26296(11) 0.38174(17)
O2 O -0.1268(2) 1.42437(13) 0.41333(17)
O3 O -0.1572(2) 1.35827(11) 0.17227(16)
O4 O 0.4095(2) 1.54026(11) 0.10106(16)
O5 O 0.6157(2) 1.62271(14) 0.3103(2)
O6 O 0.5489(2) 1.44865(11) 0.31894(16)
O7 O -0.0473(2) 1.71800(13) 0.25264(17)
O8 O -0.2010(2) 1.66663(12) 0.00007(18)
O9 O 0.1034(2) 1.72928(14) 0.0681(2)
N1 N 0.1388(2) 1.53164(13) 0.30177(18)
C1 C 0.1580(3) 1.42452(15) 0.3312(2)
H1 H 0.2134 1.3955 0.2662
H2 H 0.2337 1.4155 0.4241
C2 C 0.3094(3) 1.58410(15) 0.3381(2)
H3 H 0.2864 1.6517 0.3150
H4 H 0.3575 1.5803 0.4381
C3 C 0.0343(3) 1.55076(16) 0.1543(2)
H5 H 0.1036 1.5340 0.0922
H6 H -0.0650 1.5083 0.1331
H7 H 0.088(3) 1.5572(18) 0.362(3)
H8 H 0.126(6) 1.704(3) 0.014(4)
H9 H 0.603(5) 1.659(2) 0.268(4)
H10 H -0.230(5) 1.426(3) 0.377(4)
Sr1C Sr -0.48485(2) 1.349283(14) 0.078898(19)
Sr1C_2 Sr 0.51515(2) 1.349283(14) 0.078898(19)
Sr1A Sr 0.48485(2) 1.650717(14) -0.078898(19)
Sr1B Sr -0.01515(2) 1.849283(14) 0.421102(19)
Sr1A_2 Sr -0.51515(2) 1.650717(14) -0.078898(19)
O3C O 0.3428(2) 1.14173(11) 0.67227(16)
O4C O -0.0905(2) 0.95974(11) 0.60106(16)
O4A O 0.0905(2) 1.04026(11) 0.39894(16)
O6C O 0.0489(2) 1.05135(11) 0.81894(16)
O7B O 0.0473(2) 1.28200(13) 0.74736(17)
O8A O -0.2990(2) 1.16663(12) 0.49993(18)
loop_
_geom_bond_atom_site_label_1
_geom_bond_atom_site_label_2
_geom_bond_site_symmetry_1
_geom_bond_site_symmetry_2
Sr1 O1 1_555 1_555
P1 O1 1_555 1_555
P2 O4 1_555 1_555
P3 O7 1_555 1_555
O2 P1 1_555 1_555
O3 P1 1_555 1_555
O4 Sr1C_2 1_555 1_555
O5 P2 1_555 1_555
O6 P2 1_555 1_555
O7 Sr1B 1_555 1_555
O8 P3 1_555 1_555
O9 P3 1_555 1_555
N1 C1 1_555 1_555
C1 P1 1_555 1_555
H1 C1 1_555 1_555
H2 C1 1_555 1_555
C2 P2 1_555 1_555
H3 C2 1_555 1_555
H4 C2 1_555 1_555
C3 P3 1_555 1_555
H5 C3 1_555 1_555
H6 C3 1_555 1_555
H7 N1 1_555 1_555
H8 O9 1_555 1_555
H9 O5 1_555 1_555
H10 O2 1_555 1_555
Sr1C O3 1_555 1_555
Sr1C_2 O6 1_555 1_555
Sr1A O4 1_555 1_555
Sr1A_2 O8 1_555 1_555
O3C Sr1 1_555 1_555
O4C Sr1 1_555 1_555
O4A Sr1 1_555 1_555
O6C Sr1 1_555 1_555
O7B Sr1 1_555 1_555
O8A Sr1 1_555 1_555
N1 C2 1_555 1_555
N1 C3 1_555 1_555

#END
