
#######################################################################
#
#                 Cambridge Crystallographic Data Centre
#                                CCDC 
#
#######################################################################
#
# If this CIF has been generated from an entry in the Cambridge 
# Structural Database, then it will include bibliographic, chemical, 
# crystal, experimental, refinement or atomic coordinate data resulting 
# from the CCDC's data processing and validation procedures.
#
#######################################################################

data_IDAKIH
_symmetry_cell_setting           monoclinic
_symmetry_space_group_name_H-M   'P 21/n'
_symmetry_Int_Tables_number      14
_space_group_name_Hall           '-P 2yn'
loop_
_symmetry_equiv_pos_site_id
_symmetry_equiv_pos_as_xyz
1 x,y,z
2 1/2+x,1/2-y,1/2+z
3 -x,-y,-z
4 1/2-x,1/2+y,1/2-z
_cell_length_a                   12.2083(9)
_cell_length_b                   13.2866(12)
_cell_length_c                   20.1994(13)
_cell_angle_alpha                90
_cell_angle_beta                 104.441(4)
_cell_angle_gamma                90
_cell_volume                     3172.96
loop_
_atom_site_label
_atom_site_type_symbol
_atom_site_fract_x
_atom_site_fract_y
_atom_site_fract_z
Cd1 Cd 0.88545(4) 0.01865(4) 0.81091(2)
O1 O 1.0751(4) -0.0489(4) 0.8276(2)
O2 O 1.0450(3) 0.0469(4) 0.90688(18)
N1 N 1.1113(5) -0.0115(5) 0.8859(3)
O3 O 1.2062(4) -0.0299(4) 0.9218(2)
O4 O 0.8578(4) -0.0840(3) 0.71009(19)
O5 O 0.7065(3) -0.0110(3) 0.72544(17)
N2 N 0.7528(5) -0.0699(4) 0.6901(3)
O6 O 0.6949(4) -0.1094(4) 0.6373(2)
N3 N 0.9334(4) 0.1478(4) 0.7468(2)
C1 C 0.9523(5) 0.1318(5) 0.6850(3)
H1 H 0.9430 0.0656 0.6666
C2 C 0.9843(5) 0.2064(6) 0.6474(3)
H2 H 0.9946 0.1909 0.6034
C3 C 1.0024(5) 0.3043(6) 0.6716(3)
C4 C 0.9804(5) 0.3195(5) 0.7350(3)
H3 H 0.9885 0.3850 0.7544
C5 C 0.9470(6) 0.2412(6) 0.7701(3)
H4 H 0.9329 0.2550 0.8134
C6 C 1.0418(5) 0.3842(5) 0.6323(3)
H5 H 1.1088 0.3593 0.6180
H6 H 1.0661 0.4429 0.6627
C7 C 0.9530(5) 0.4192(5) 0.5688(3)
H7 H 0.9257 0.3605 0.5390
H8 H 0.8876 0.4483 0.5828
C8 C 1.0010(6) 0.4970(7) 0.5290(3)
H9 H 1.0397 0.5507 0.5562
N4 N 0.7848(4) 0.1218(4) 0.8672(2)
C9 C 0.8285(5) 0.1588(5) 0.9300(3)
H10 H 0.9061 0.1465 0.9510
C10 C 0.7662(6) 0.2138(5) 0.9658(3)
H11 H 0.8006 0.2373 1.0106
C11 C 0.6544(5) 0.2344(5) 0.9364(3)
C12 C 0.6081(5) 0.1977(5) 0.8719(3)
H12 H 0.5310 0.2100 0.8497
C13 C 0.6764(5) 0.1422(5) 0.8399(3)
H13 H 0.6433 0.1171 0.7954
C14 C 0.5854(5) 0.2965(5) 0.9735(3)
H14 H 0.6236 0.2969 1.0229
H15 H 0.5106 0.2642 0.9681
C15 C 0.5677(5) 0.4050(5) 0.9483(3)
H16 H 0.6417 0.4399 0.9589
H17 H 0.5378 0.4048 0.8980
C16 C 0.4886(5) 0.4619(5) 0.9795(3)
H18 H 0.4122 0.4397 0.9680
N5 N 0.8545(4) -0.1251(4) 0.8685(2)
C17 C 0.8521(5) -0.1193(5) 0.9347(3)
H19 H 0.8569 -0.0550 0.9558
C18 C 0.8431(5) -0.2024(5) 0.9724(3)
H20 H 0.8408 -0.1945 1.0188
C19 C 0.8371(5) -0.2990(5) 0.9445(3)
C20 C 0.8401(5) -0.3027(5) 0.8764(3)
H21 H 0.8362 -0.3659 0.8539
C21 C 0.8487(5) -0.2165(5) 0.8413(3)
H22 H 0.8507 -0.2223 0.7947
N6 N 0.7991(5) -0.7908(6) 1.3686(3)
C22 C 0.8148(6) -0.8321(6) 1.3127(4)
H23 H 0.8312 -0.9021 1.3144
C23 C 0.8095(6) -0.7830(6) 1.2516(3)
H24 H 0.8222 -0.8185 1.2133
C24 C 0.7857(5) -0.6820(6) 1.2476(3)
C25 C 0.7681(5) -0.6360(6) 1.3052(3)
H25 H 0.7512 -0.5662 1.3048
C26 C 0.7756(6) -0.6928(8) 1.3639(4)
H26 H 0.7631 -0.6598 1.4030
C27 C 0.8307(6) -0.3899(5) 0.9870(3)
H27 H 0.8218 -0.4508 0.9578
H28 H 0.7637 -0.3847 1.0060
C28 C 0.9372(6) -0.4002(5) 1.0454(3)
H29 H 1.0024 -0.4085 1.0249
H30 H 0.9483 -0.3360 1.0710
C29 C 0.9418(7) -0.4852(6) 1.0968(4)
H31 H 1.0079 -0.4887 1.1334
C30 C 0.8681(7) -0.5508(7) 1.0959(4)
H32 H 0.8040 -0.5528 1.0579
C31 C 0.8759(6) -0.6289(6) 1.1540(3)
H33 H 0.8785 -0.6975 1.1354
H34 H 0.9467 -0.6178 1.1898
C32 C 0.7800(6) -0.6209(6) 1.1841(3)
H35 H 0.7112 -0.6411 1.1491
H36 H 0.7709 -0.5493 1.1951
C8B C 0.9990(6) 0.5030(7) 0.4710(3)
C7B C 1.0470(5) 0.5808(5) 0.4312(3)
C6B C 0.9582(5) 0.6158(5) 0.3677(3)
C3B C 0.9976(5) 0.6957(6) 0.3284(3)
C2B C 1.0157(5) 0.7936(6) 0.3526(3)
C1B C 1.0477(5) 0.8682(5) 0.3150(3)
N3B N 1.0666(4) 0.8522(4) 0.2532(2)
C5B C 1.0530(6) 0.7588(6) 0.2299(3)
C4B C 1.0196(5) 0.6805(5) 0.2650(3)
H3B H 1.0115 0.6150 0.2456
H4B H 1.0671 0.7450 0.1866
H1B H 1.0570 0.9344 0.3334
H2B H 1.0054 0.8091 0.3966
H5B H 0.8912 0.6407 0.3820
H6B H 0.9339 0.5571 0.3373
H7B H 1.0743 0.6395 0.4610
H8B H 1.1124 0.5517 0.4172
H9B H 0.9603 0.4493 0.4438
C16B C 0.5114(5) 0.5381(5) 1.0205(3)
C15B C 0.4323(5) 0.5950(5) 1.0517(3)
C14B C 0.4146(5) 0.7035(5) 1.0265(3)
C11B C 0.3456(5) 0.7656(5) 1.0636(3)
C10B C 0.2338(6) 0.7862(5) 1.0342(3)
C9B C 0.1715(5) 0.8412(5) 1.0700(3)
N4B N 0.2152(4) 0.8782(4) 1.1328(2)
C13B C 0.3236(5) 0.8578(5) 1.1601(3)
C12B C 0.3919(5) 0.8023(5) 1.1281(3)
H12B H 0.4690 0.7900 1.1503
H13B H 0.3567 0.8829 1.2046
H10B H 0.0939 0.8535 1.0490
H11B H 0.1994 0.7627 0.9894
H14B H 0.3764 0.7031 0.9771
H15B H 0.4894 0.7358 1.0319
H16B H 0.3583 0.5601 1.0411
H17B H 0.4622 0.5952 1.1020
H18B H 0.5878 0.5603 1.0320
Cd1B Cd 1.11455(4) 0.98135(4) 0.18909(2)
O1B O 0.9249(4) 1.0489(4) 0.1724(2)
O2B O 0.9550(3) 0.9531(4) 0.09312(18)
N1B N 0.8887(5) 1.0115(5) 0.1141(3)
O3B O 0.7938(4) 1.0299(4) 0.0782(2)
O4B O 1.1422(4) 1.0840(3) 0.28991(19)
O5B O 1.2935(3) 1.0110(3) 0.27456(17)
N2B N 1.2472(5) 1.0699(4) 0.3099(3)
O6B O 1.3051(4) 1.1094(4) 0.3627(2)
N5B N 1.1455(4) 1.1251(4) 0.1315(2)
C17B C 1.1479(5) 1.1193(5) 0.0653(3)
H19B H 1.1431 1.0550 0.0442
C18B C 1.1569(5) 1.2024(5) 0.0276(3)
H20B H 1.1592 1.1945 -0.0188
C19B C 1.1629(5) 1.2990(5) 0.0555(3)
C20B C 1.1599(5) 1.3027(5) 0.1236(3)
H21B H 1.1638 1.3659 0.1461
C21B C 1.1513(5) 1.2165(5) 0.1587(3)
H22B H 1.1493 1.2223 0.2053
N6B N 1.2009(5) 1.7908(6) -0.3686(3)
C22B C 1.1852(6) 1.8321(6) -0.3127(4)
H23B H 1.1688 1.9021 -0.3144
C23B C 1.1905(6) 1.7830(6) -0.2516(3)
H24B H 1.1778 1.8185 -0.2133
C24B C 1.2143(5) 1.6820(6) -0.2476(3)
C25B C 1.2319(5) 1.6360(6) -0.3052(3)
H25B H 1.2488 1.5662 -0.3048
C26B C 1.2244(6) 1.6928(8) -0.3639(4)
H26B H 1.2369 1.6598 -0.4030
C27B C 1.1693(6) 1.3899(5) 0.0130(3)
H27B H 1.1782 1.4508 0.0422
H28B H 1.2363 1.3847 -0.0060
C28B C 1.0628(6) 1.4002(5) -0.0454(3)
H29B H 0.9976 1.4085 -0.0249
H30B H 1.0517 1.3360 -0.0710
C29B C 1.0582(7) 1.4852(6) -0.0968(4)
H31B H 0.9921 1.4887 -0.1334
C30B C 1.1319(7) 1.5508(7) -0.0959(4)
H32B H 1.1960 1.5528 -0.0579
C31B C 1.1241(6) 1.6289(6) -0.1540(3)
H33B H 1.1215 1.6975 -0.1354
H34B H 1.0533 1.6178 -0.1898
C32B C 1.2200(6) 1.6209(6) -0.1841(3)
H35B H 1.2888 1.6411 -0.1491
H36B H 1.2291 1.5493 -0.1951
Cd1B_2 Cd 0.11455(4) 0.98135(4) 1.18909(2)
N4B_2 N 1.2152(4) 0.8782(4) 0.1328(2)
loop_
_geom_bond_atom_site_label_1
_geom_bond_atom_site_label_2
_geom_bond_site_symmetry_1
_geom_bond_site_symmetry_2
Cd1 O1 1_555 1_555
O1 N1 1_555 1_555
O2 Cd1 1_555 1_555
N1 O2 1_555 1_555
O3 N1 1_555 1_555
O4 Cd1 1_555 1_555
O5 Cd1 1_555 1_555
N2 O4 1_555 1_555
O6 N2 1_555 1_555
N3 Cd1 1_555 1_555
C1 N3 1_555 1_555
H1 C1 1_555 1_555
C2 C1 1_555 1_555
H2 C2 1_555 1_555
C3 C2 1_555 1_555
C4 C3 1_555 1_555
H3 C4 1_555 1_555
C5 N3 1_555 1_555
H4 C5 1_555 1_555
C6 C3 1_555 1_555
H5 C6 1_555 1_555
H6 C6 1_555 1_555
C7 C6 1_555 1_555
H7 C7 1_555 1_555
H8 C7 1_555 1_555
C8 C7 1_555 1_555
H9 C8 1_555 1_555
N4 Cd1 1_555 1_555
C9 N4 1_555 1_555
H10 C9 1_555 1_555
C10 C9 1_555 1_555
H11 C10 1_555 1_555
C11 C10 1_555 1_555
C12 C11 1_555 1_555
H12 C12 1_555 1_555
C13 N4 1_555 1_555
H13 C13 1_555 1_555
C14 C11 1_555 1_555
H14 C14 1_555 1_555
H15 C14 1_555 1_555
C15 C14 1_555 1_555
H16 C15 1_555 1_555
H17 C15 1_555 1_555
C16 C15 1_555 1_555
H18 C16 1_555 1_555
N5 Cd1 1_555 1_555
C17 N5 1_555 1_555
H19 C17 1_555 1_555
C18 C17 1_555 1_555
H20 C18 1_555 1_555
C19 C18 1_555 1_555
C20 C19 1_555 1_555
H21 C20 1_555 1_555
C21 N5 1_555 1_555
H22 C21 1_555 1_555
N6 C22 1_555 1_555
C22 H23 1_555 1_555
C23 C22 1_555 1_555
H24 C23 1_555 1_555
C24 C23 1_555 1_555
C25 C24 1_555 1_555
H25 C25 1_555 1_555
C26 N6 1_555 1_555
H26 C26 1_555 1_555
C27 C19 1_555 1_555
H27 C27 1_555 1_555
H28 C27 1_555 1_555
C28 C27 1_555 1_555
H29 C28 1_555 1_555
H30 C28 1_555 1_555
C29 C28 1_555 1_555
H31 C29 1_555 1_555
C30 C29 1_555 1_555
H32 C30 1_555 1_555
C31 C30 1_555 1_555
H33 C31 1_555 1_555
H34 C31 1_555 1_555
C32 C24 1_555 1_555
H35 C32 1_555 1_555
H36 C32 1_555 1_555
C8B C8 1_555 1_555
C7B C8B 1_555 1_555
C6B C7B 1_555 1_555
C3B C6B 1_555 1_555
C2B C3B 1_555 1_555
C1B C2B 1_555 1_555
N3B C1B 1_555 1_555
C5B N3B 1_555 1_555
C4B C3B 1_555 1_555
H3B C4B 1_555 1_555
H4B C5B 1_555 1_555
H1B C1B 1_555 1_555
H2B C2B 1_555 1_555
H5B C6B 1_555 1_555
H6B C6B 1_555 1_555
H7B C7B 1_555 1_555
H8B C7B 1_555 1_555
H9B C8B 1_555 1_555
C16B C16 1_555 1_555
C15B C16B 1_555 1_555
C14B C15B 1_555 1_555
C11B C14B 1_555 1_555
C10B C11B 1_555 1_555
C9B C10B 1_555 1_555
N4B C9B 1_555 1_555
C13B N4B 1_555 1_555
C12B C11B 1_555 1_555
H12B C12B 1_555 1_555
H13B C13B 1_555 1_555
H10B C9B 1_555 1_555
H11B C10B 1_555 1_555
H14B C14B 1_555 1_555
H15B C14B 1_555 1_555
H16B C15B 1_555 1_555
H17B C15B 1_555 1_555
H18B C16B 1_555 1_555
Cd1B N3B 1_555 1_555
O1B Cd1B 1_555 1_555
O2B Cd1B 1_555 1_555
N1B O1B 1_555 1_555
O3B N1B 1_555 1_555
O4B Cd1B 1_555 1_555
O5B Cd1B 1_555 1_555
N2B O4B 1_555 1_555
O6B N2B 1_555 1_555
N5B Cd1B 1_555 1_555
C17B N5B 1_555 1_555
H19B C17B 1_555 1_555
C18B C17B 1_555 1_555
H20B C18B 1_555 1_555
C19B C18B 1_555 1_555
C20B C19B 1_555 1_555
H21B C20B 1_555 1_555
C21B N5B 1_555 1_555
H22B C21B 1_555 1_555
N6B C22B 1_555 1_555
C22B H23B 1_555 1_555
C23B C22B 1_555 1_555
H24B C23B 1_555 1_555
C24B C23B 1_555 1_555
C25B C24B 1_555 1_555
H25B C25B 1_555 1_555
C26B N6B 1_555 1_555
H26B C26B 1_555 1_555
C27B C19B 1_555 1_555
H27B C27B 1_555 1_555
H28B C27B 1_555 1_555
C28B C27B 1_555 1_555
H29B C28B 1_555 1_555
H30B C28B 1_555 1_555
C29B C28B 1_555 1_555
H31B C29B 1_555 1_555
C30B C29B 1_555 1_555
H32B C30B 1_555 1_555
C31B C30B 1_555 1_555
H33B C31B 1_555 1_555
H34B C31B 1_555 1_555
C32B C24B 1_555 1_555
H35B C32B 1_555 1_555
H36B C32B 1_555 1_555
Cd1B_2 N4B 1_555 1_555
N4B_2 Cd1B 1_555 1_555
O5 N2 1_555 1_555
C4 C5 1_555 1_555
C12 C13 1_555 1_555
C20 C21 1_555 1_555
C25 C26 1_555 1_555
C31 C32 1_555 1_555
C5B C4B 1_555 1_555
C13B C12B 1_555 1_555
O2B N1B 1_555 1_555
O5B N2B 1_555 1_555
C20B C21B 1_555 1_555
C25B C26B 1_555 1_555
C31B C32B 1_555 1_555

#END
