
#######################################################################
#
#                 Cambridge Crystallographic Data Centre
#                                CCDC 
#
#######################################################################
#
# If this CIF has been generated from an entry in the Cambridge 
# Structural Database, then it will include bibliographic, chemical, 
# crystal, experimental, refinement or atomic coordinate data resulting 
# from the CCDC's data processing and validation procedures.
#
#######################################################################

data_IDAPIN
_symmetry_cell_setting           monoclinic
_symmetry_space_group_name_H-M   'C 2/m'
_symmetry_Int_Tables_number      12
_space_group_name_Hall           '-C 2y'
loop_
_symmetry_equiv_pos_site_id
_symmetry_equiv_pos_as_xyz
1 x,y,z
2 1/2+x,1/2+y,z
3 -x,y,-z
4 1/2-x,1/2+y,-z
5 -x,-y,-z
6 1/2-x,1/2-y,-z
7 x,-y,z
8 1/2+x,1/2-y,z
_cell_length_a                   7.3778(4)
_cell_length_b                   20.1493(6)
_cell_length_c                   10.4963(4)
_cell_angle_alpha                90
_cell_angle_beta                 103.466(8)
_cell_angle_gamma                90
_cell_volume                     1517.46
loop_
_atom_site_label
_atom_site_type_symbol
_atom_site_fract_x
_atom_site_fract_y
_atom_site_fract_z
Mn1 Mn 0.5000 0.5000 0.0000
Na1 Na 0.81907(12) 0.5000 0.32904(8)
C1 C 1.0000 0.68708(11) 0.5000
C2 C 0.89696(18) 0.71889(7) 0.38969(13)
C3 C 0.89691(18) 0.78888(7) 0.38962(13)
C4 C 1.0000 0.82045(11) 0.5000
C5 C 0.79634(19) 0.83573(8) 0.28282(14)
C6 C 0.7958(2) 0.67128(8) 0.28416(14)
O1 O 0.5000 0.39484(8) 0.0000
O2 O 0.4718(3) 0.5000 0.20455(16)
O3 O 0.1977(2) 0.5000 -0.08794(15)
O5 O 1.1657(3) 0.5000 0.43590(19)
O6 O 0.70336(19) 0.81249(6) 0.17551(11)
O7 O 0.80807(15) 0.89580(6) 0.30398(10)
O8 O 0.70201(19) 0.69423(7) 0.17501(11)
O9 O 0.80460(17) 0.61216(6) 0.30505(12)
H1 H 1.0000 0.8646(12) 0.5000
H2 H 1.0000 0.6433(12) 0.5000
H3 H 0.699(4) 0.7484(15) 0.177(3)
H4 H 1.211(4) 0.4685(12) 0.409(3)
H5 H 0.419(3) 0.4694(10) 0.2254(19)
H6 H 0.439(3) 0.3677(10) -0.053(2)
H7 H 0.142(3) 0.4683(9) -0.0680(19)
Na1D Na 0.18093(12) 0.5000 -0.32904(8)
Na1D_2 Na 1.18093(12) 0.5000 0.67096(8)
C1F C 1.0000 0.31292(11) 0.5000
C2B C 1.10304(18) 0.71889(7) 0.61031(13)
C2F C 0.89696(18) 0.28111(7) 0.38969(13)
C2D C 1.10304(18) 0.28111(7) 0.61031(13)
C3B C 1.10309(18) 0.78888(7) 0.61038(13)
C3F C 0.89691(18) 0.21112(7) 0.38962(13)
C3D C 1.10309(18) 0.21112(7) 0.61038(13)
C4F C 1.0000 0.17955(11) 0.5000
C5B C 1.20366(19) 0.83573(8) 0.71718(14)
C5F C 0.79634(19) 0.16427(8) 0.28282(14)
C5D C 1.20366(19) 0.16427(8) 0.71718(14)
C6B C 1.2042(2) 0.67128(8) 0.71584(14)
C6F C 0.7958(2) 0.32872(8) 0.28416(14)
C6D C 1.2042(2) 0.32872(8) 0.71584(14)
O1F O 0.5000 0.60516(8) 0.0000
O2D O 0.5282(3) 0.5000 -0.20455(16)
O3D O 0.8023(2) 0.5000 0.08794(15)
O5D O 0.8343(3) 0.5000 0.56410(19)
O5_2 O 0.1657(3) 0.5000 -0.56410(19)
O5D_2 O -0.1657(3) 0.5000 -0.43590(19)
O6B O 1.29664(19) 0.81249(6) 0.82449(11)
O6F O 0.70336(19) 0.18751(6) 0.17551(11)
O6D O 1.29664(19) 0.18751(6) 0.82449(11)
O7B O 1.19193(15) 0.89580(6) 0.69602(10)
O7F O 0.80807(15) 0.10420(6) 0.30398(10)
O7D O 1.19193(15) 0.10420(6) 0.69602(10)
O8B O 1.29799(19) 0.69423(7) 0.82499(11)
O8F O 0.70201(19) 0.30577(7) 0.17501(11)
O8D O 1.29799(19) 0.30577(7) 0.82499(11)
O9B O 1.19540(17) 0.61216(6) 0.69495(12)
O9F O 0.80460(17) 0.38784(6) 0.30505(12)
O9D O 1.19540(17) 0.38784(6) 0.69495(12)
O9D_2 O 0.19540(17) 0.38784(6) -0.30505(12)
O9B_2 O 0.19540(17) 0.61216(6) -0.30505(12)
H1F H 1.0000 0.1354(12) 0.5000
H2F H 1.0000 0.3567(12) 0.5000
H3B H 1.301(4) 0.7484(15) 0.823(3)
H3F H 0.699(4) 0.2516(15) 0.177(3)
H3D H 1.301(4) 0.2516(15) 0.823(3)
H4F H 1.211(4) 0.5315(12) 0.409(3)
H4D H 0.789(4) 0.5315(12) 0.591(3)
H4B H 0.789(4) 0.4685(12) 0.591(3)
H4_2 H 0.211(4) 0.4685(12) -0.591(3)
H4F_2 H 0.211(4) 0.5315(12) -0.591(3)
H4D_2 H -0.211(4) 0.5315(12) -0.409(3)
H4B_2 H -0.211(4) 0.4685(12) -0.409(3)
H5F H 0.419(3) 0.5306(10) 0.2254(19)
H5D H 0.581(3) 0.5306(10) -0.2254(19)
H5B H 0.581(3) 0.4694(10) -0.2254(19)
H6B H 0.561(3) 0.3677(10) 0.053(2)
H6F H 0.439(3) 0.6323(10) -0.053(2)
H6D H 0.561(3) 0.6323(10) 0.053(2)
H7F H 0.142(3) 0.5317(9) -0.0680(19)
H7D H 0.858(3) 0.5317(9) 0.0680(19)
H7B H 0.858(3) 0.4683(9) 0.0680(19)
O4 O 0.5000 0.90288(8) 0.0000
H8 H 0.564(3) 0.8755(11) 0.054(2)
H8B H 0.436(3) 0.8755(11) -0.054(2)
loop_
_geom_bond_atom_site_label_1
_geom_bond_atom_site_label_2
_geom_bond_site_symmetry_1
_geom_bond_site_symmetry_2
Mn1 O1 1_555 1_555
Na1 O2 1_555 1_555
C1 C2 1_555 1_555
C2 C3 1_555 1_555
C3 C4 1_555 1_555
C4 H1 1_555 1_555
C5 C3 1_555 1_555
C6 C2 1_555 1_555
O1 H6 1_555 1_555
O2 Mn1 1_555 1_555
O3 Mn1 1_555 1_555
O4 H8 1_555 1_555
O5 Na1 1_555 1_555
O6 C5 1_555 1_555
O7 C5 1_555 1_555
O8 C6 1_555 1_555
O9 Na1 1_555 1_555
H2 C1 1_555 1_555
H3 O8 1_555 1_555
H4 O5 1_555 1_555
H5 O2 1_555 1_555
H7 O3 1_555 1_555
Na1D O3 1_555 1_555
Na1D_2 O5 1_555 1_555
C1F C2F 1_555 1_555
C2B C1 1_555 1_555
C2F C3F 1_555 1_555
C2D C1F 1_555 1_555
C3B C4 1_555 1_555
C3F C4F 1_555 1_555
C3D C2D 1_555 1_555
C4F C3D 1_555 1_555
C5B C3B 1_555 1_555
C5F C3F 1_555 1_555
C5D C3D 1_555 1_555
C6B C2B 1_555 1_555
C6F C2F 1_555 1_555
C6D C2D 1_555 1_555
O1F Mn1 1_555 1_555
O2D Mn1 1_555 1_555
O3D Mn1 1_555 1_555
O5D Na1 1_555 1_555
O5_2 Na1D 1_555 1_555
O5D_2 Na1D 1_555 1_555
O6B C5B 1_555 1_555
O6F C5F 1_555 1_555
O6D C5D 1_555 1_555
O7B C5B 1_555 1_555
O7F C5F 1_555 1_555
O7D C5D 1_555 1_555
O8B C6B 1_555 1_555
O8F C6F 1_555 1_555
O8D C6D 1_555 1_555
O9B Na1D_2 1_555 1_555
O9F Na1 1_555 1_555
O9D Na1D_2 1_555 1_555
O9D_2 Na1D 1_555 1_555
O9B_2 Na1D 1_555 1_555
H1F C4F 1_555 1_555
H2F C1F 1_555 1_555
H3B O8B 1_555 1_555
H3F O8F 1_555 1_555
H3D O8D 1_555 1_555
H4F O5 1_555 1_555
H4D O5D 1_555 1_555
H4B O5D 1_555 1_555
H4_2 O5_2 1_555 1_555
H4F_2 O5_2 1_555 1_555
H4D_2 O5D_2 1_555 1_555
H4B_2 O5D_2 1_555 1_555
H5F O2 1_555 1_555
H5D O2D 1_555 1_555
H5B O2D 1_555 1_555
H6B O1 1_555 1_555
H6F O1F 1_555 1_555
H6D O1F 1_555 1_555
H7F O3 1_555 1_555
H7D O3D 1_555 1_555
H7B O3D 1_555 1_555
H8B O4 1_555 1_555
Na1 O3D 1_555 1_555
C6 O9 1_555 1_555
Na1D O2D 1_555 1_555
Na1D_2 O5D 1_555 1_555
C2B C3B 1_555 1_555
C6B O9B 1_555 1_555
C6F O9F 1_555 1_555
C6D O9D 1_555 1_555

#END
