
#######################################################################
#
#                 Cambridge Crystallographic Data Centre
#                                CCDC 
#
#######################################################################
#
# If this CIF has been generated from an entry in the Cambridge 
# Structural Database, then it will include bibliographic, chemical, 
# crystal, experimental, refinement or atomic coordinate data resulting 
# from the CCDC's data processing and validation procedures.
#
#######################################################################

data_IDAPOT
_symmetry_cell_setting           monoclinic
_symmetry_space_group_name_H-M   'C 2/m'
_symmetry_Int_Tables_number      12
_space_group_name_Hall           '-C 2y'
loop_
_symmetry_equiv_pos_site_id
_symmetry_equiv_pos_as_xyz
1 x,y,z
2 1/2+x,1/2+y,z
3 -x,y,-z
4 1/2-x,1/2+y,-z
5 -x,-y,-z
6 1/2-x,1/2-y,-z
7 x,-y,z
8 1/2+x,1/2-y,z
_cell_length_a                   7.2862(4)
_cell_length_b                   20.1165(7)
_cell_length_c                   10.4032(3)
_cell_angle_alpha                90
_cell_angle_beta                 103.366(9)
_cell_angle_gamma                90
_cell_volume                     1483.52
loop_
_atom_site_label
_atom_site_type_symbol
_atom_site_fract_x
_atom_site_fract_y
_atom_site_fract_z
Ni1 Ni 0.5000 0.5000 0.0000
Na1 Na 0.81523(15) 0.5000 0.32610(10)
C1 C 1.0000 0.68665(12) 0.5000
C2 C 0.8970(2) 0.71894(8) 0.38830(16)
C3 C 0.8974(2) 0.78887(8) 0.38828(16)
C4 C 1.0000 0.82096(12) 0.5000
C5 C 0.7972(2) 0.83575(8) 0.28000(17)
C6 C 0.7962(2) 0.67111(9) 0.28171(17)
O1 O 0.5000 0.39964(9) 0.0000
O2 O 0.4693(3) 0.5000 0.19325(17)
O3 O 0.2124(2) 0.5000 -0.08177(17)
O5 O 1.1692(3) 0.5000 0.4360(2)
O6 O 0.7010(2) 0.81225(8) 0.17271(13)
O7 O 0.81151(17) 0.89605(6) 0.30011(13)
O8 O 0.6999(2) 0.69394(8) 0.17194(13)
O9 O 0.8076(2) 0.61189(7) 0.30261(14)
H1 H 1.0000 0.8665(14) 0.5000
H2 H 1.0000 0.6410(14) 0.5000
H3 H 0.687(4) 0.7495(17) 0.180(3)
H4 H 1.213(4) 0.4677(13) 0.403(3)
H5 H 0.416(4) 0.4671(12) 0.213(3)
H6 H 0.438(3) 0.3738(12) -0.053(3)
H7 H 0.152(3) 0.4685(10) -0.064(2)
Na1D Na 0.18477(15) 0.5000 -0.32610(10)
Na1D_2 Na 1.18477(15) 0.5000 0.67390(10)
C1F C 1.0000 0.31335(12) 0.5000
C2B C 1.1030(2) 0.71894(8) 0.61170(16)
C2F C 0.8970(2) 0.28106(8) 0.38830(16)
C2D C 1.1030(2) 0.28106(8) 0.61170(16)
C3B C 1.1026(2) 0.78887(8) 0.61172(16)
C3F C 0.8974(2) 0.21113(8) 0.38828(16)
C3D C 1.1026(2) 0.21113(8) 0.61172(16)
C4F C 1.0000 0.17904(12) 0.5000
C5B C 1.2028(2) 0.83575(8) 0.72000(17)
C5F C 0.7972(2) 0.16425(8) 0.28000(17)
C5D C 1.2028(2) 0.16425(8) 0.72000(17)
C6B C 1.2038(2) 0.67111(9) 0.71829(17)
C6F C 0.7962(2) 0.32889(9) 0.28171(17)
C6D C 1.2038(2) 0.32889(9) 0.71829(17)
O1F O 0.5000 0.60036(9) 0.0000
O2D O 0.5307(3) 0.5000 -0.19325(17)
O3D O 0.7876(2) 0.5000 0.08177(17)
O5D O 0.8308(3) 0.5000 0.5640(2)
O5_2 O 0.1692(3) 0.5000 -0.5640(2)
O5D_2 O -0.1692(3) 0.5000 -0.4360(2)
O6B O 1.2990(2) 0.81225(8) 0.82729(13)
O6F O 0.7010(2) 0.18775(8) 0.17271(13)
O6D O 1.2990(2) 0.18775(8) 0.82729(13)
O7B O 1.18849(17) 0.89605(6) 0.69989(13)
O7F O 0.81151(17) 0.10395(6) 0.30011(13)
O7D O 1.18849(17) 0.10395(6) 0.69989(13)
O8B O 1.3001(2) 0.69394(8) 0.82806(13)
O8F O 0.6999(2) 0.30606(8) 0.17194(13)
O8D O 1.3001(2) 0.30606(8) 0.82806(13)
O9B O 1.1924(2) 0.61189(7) 0.69739(14)
O9F O 0.8076(2) 0.38811(7) 0.30261(14)
O9D O 1.1924(2) 0.38811(7) 0.69739(14)
O9D_2 O 0.1924(2) 0.38811(7) -0.30261(14)
O9B_2 O 0.1924(2) 0.61189(7) -0.30261(14)
H1F H 1.0000 0.1335(14) 0.5000
H2F H 1.0000 0.3590(14) 0.5000
H3B H 1.313(4) 0.7495(17) 0.820(3)
H3F H 0.687(4) 0.2505(17) 0.180(3)
H3D H 1.313(4) 0.2505(17) 0.820(3)
H4F H 1.213(4) 0.5323(13) 0.403(3)
H4D H 0.787(4) 0.5323(13) 0.597(3)
H4B H 0.787(4) 0.4677(13) 0.597(3)
H4_2 H 0.213(4) 0.4677(13) -0.597(3)
H4F_2 H 0.213(4) 0.5323(13) -0.597(3)
H4D_2 H -0.213(4) 0.5323(13) -0.403(3)
H4B_2 H -0.213(4) 0.4677(13) -0.403(3)
H5F H 0.416(4) 0.5329(12) 0.213(3)
H5D H 0.584(4) 0.5329(12) -0.213(3)
H5B H 0.584(4) 0.4671(12) -0.213(3)
H6B H 0.562(3) 0.3738(12) 0.053(3)
H6F H 0.438(3) 0.6262(12) -0.053(3)
H6D H 0.562(3) 0.6262(12) 0.053(3)
H7F H 0.152(3) 0.5315(10) -0.064(2)
H7D H 0.848(3) 0.5315(10) 0.064(2)
H7B H 0.848(3) 0.4685(10) 0.064(2)
O4 O 0.5000 0.90465(9) 0.0000
H8 H 0.562(4) 0.8769(12) 0.054(3)
H8B H 0.438(4) 0.8769(12) -0.054(3)
loop_
_geom_bond_atom_site_label_1
_geom_bond_atom_site_label_2
_geom_bond_site_symmetry_1
_geom_bond_site_symmetry_2
Ni1 O1 1_555 1_555
Na1 O2 1_555 1_555
C1 C2 1_555 1_555
C2 C3 1_555 1_555
C3 C4 1_555 1_555
C4 H1 1_555 1_555
C5 C3 1_555 1_555
C6 C2 1_555 1_555
O1 H6 1_555 1_555
O2 Ni1 1_555 1_555
O3 Ni1 1_555 1_555
O4 H8 1_555 1_555
O5 Na1 1_555 1_555
O6 C5 1_555 1_555
O7 C5 1_555 1_555
O8 C6 1_555 1_555
O9 Na1 1_555 1_555
H2 C1 1_555 1_555
H3 O8 1_555 1_555
H4 O5 1_555 1_555
H5 O2 1_555 1_555
H7 O3 1_555 1_555
Na1D O3 1_555 1_555
Na1D_2 O5 1_555 1_555
C1F C2F 1_555 1_555
C2B C1 1_555 1_555
C2F C3F 1_555 1_555
C2D C1F 1_555 1_555
C3B C4 1_555 1_555
C3F C4F 1_555 1_555
C3D C2D 1_555 1_555
C4F C3D 1_555 1_555
C5B C3B 1_555 1_555
C5F C3F 1_555 1_555
C5D C3D 1_555 1_555
C6B C2B 1_555 1_555
C6F C2F 1_555 1_555
C6D C2D 1_555 1_555
O1F Ni1 1_555 1_555
O2D Ni1 1_555 1_555
O3D Ni1 1_555 1_555
O5D Na1 1_555 1_555
O5_2 Na1D 1_555 1_555
O5D_2 Na1D 1_555 1_555
O6B C5B 1_555 1_555
O6F C5F 1_555 1_555
O6D C5D 1_555 1_555
O7B C5B 1_555 1_555
O7F C5F 1_555 1_555
O7D C5D 1_555 1_555
O8B C6B 1_555 1_555
O8F C6F 1_555 1_555
O8D C6D 1_555 1_555
O9B Na1D_2 1_555 1_555
O9F Na1 1_555 1_555
O9D Na1D_2 1_555 1_555
O9D_2 Na1D 1_555 1_555
O9B_2 Na1D 1_555 1_555
H1F C4F 1_555 1_555
H2F C1F 1_555 1_555
H3B O8B 1_555 1_555
H3F O8F 1_555 1_555
H3D O8D 1_555 1_555
H4F O5 1_555 1_555
H4D O5D 1_555 1_555
H4B O5D 1_555 1_555
H4_2 O5_2 1_555 1_555
H4F_2 O5_2 1_555 1_555
H4D_2 O5D_2 1_555 1_555
H4B_2 O5D_2 1_555 1_555
H5F O2 1_555 1_555
H5D O2D 1_555 1_555
H5B O2D 1_555 1_555
H6B O1 1_555 1_555
H6F O1F 1_555 1_555
H6D O1F 1_555 1_555
H7F O3 1_555 1_555
H7D O3D 1_555 1_555
H7B O3D 1_555 1_555
H8B O4 1_555 1_555
Na1 O3D 1_555 1_555
C6 O9 1_555 1_555
Na1D O2D 1_555 1_555
Na1D_2 O5D 1_555 1_555
C2B C3B 1_555 1_555
C6B O9B 1_555 1_555
C6F O9F 1_555 1_555
C6D O9D 1_555 1_555

#END
