
#######################################################################
#
#                 Cambridge Crystallographic Data Centre
#                                CCDC 
#
#######################################################################
#
# If this CIF has been generated from an entry in the Cambridge 
# Structural Database, then it will include bibliographic, chemical, 
# crystal, experimental, refinement or atomic coordinate data resulting 
# from the CCDC's data processing and validation procedures.
#
#######################################################################

data_IDAYET
_symmetry_cell_setting           monoclinic
_symmetry_space_group_name_H-M   'P 21/m'
_symmetry_Int_Tables_number      11
_space_group_name_Hall           '-P 2yb'
loop_
_symmetry_equiv_pos_site_id
_symmetry_equiv_pos_as_xyz
1 x,y,z
2 -x,1/2+y,-z
3 -x,-y,-z
4 x,1/2-y,z
_cell_length_a                   3.5346(7)
_cell_length_b                   12.519(3)
_cell_length_c                   8.3583(17)
_cell_angle_alpha                90
_cell_angle_beta                 97.86(3)
_cell_angle_gamma                90
_cell_volume                     366.377
loop_
_atom_site_label
_atom_site_type_symbol
_atom_site_fract_x
_atom_site_fract_y
_atom_site_fract_z
N1 N 0.2901(6) -0.2500 0.2305(2)
O1 O 0.4179(5) -0.42147(10) 0.07619(15)
C1 C 0.2425(5) -0.34134(13) 0.30619(19)
N2 N 0.0883(7) -0.2500 0.5385(2)
O2 O 0.2587(5) -0.52948(12) 0.27081(17)
C2 C 0.1409(5) -0.34112(14) 0.4618(2)
H1 H 0.1092 -0.4058 0.5130
C3 C 0.3068(5) -0.44178(14) 0.2144(2)
O3 O 0.8304(9) -0.2500 -0.1306(3)
Li1 Li 0.3902(17) -0.2500 -0.0132(8)
H2 H 0.866(12) -0.3024(8) -0.186(4)
H3 H 0.5000 0.0000 0.0000
O1C O 0.4179(5) -0.07853(10) 0.07619(15)
O1A O 0.5821(5) 0.07853(10) -0.07619(15)
C1C C 0.2425(5) -0.15866(13) 0.30619(19)
O2C O 0.2587(5) 0.02948(12) 0.27081(17)
C2C C 0.1409(5) -0.15888(14) 0.4618(2)
H1C H 0.1092 -0.0942 0.5130
C3C C 0.3068(5) -0.05822(14) 0.2144(2)
O3_2 O -0.1696(9) -0.2500 -0.1306(3)
Li1_2 Li 1.3902(17) -0.2500 -0.0132(8)
H2C H 0.866(12) -0.1976(8) -0.186(4)
H2_2 H -0.134(12) -0.3024(8) -0.186(4)
H2C_2 H -0.134(12) -0.1976(8) -0.186(4)
H3A H 0.5000 -0.5000 0.0000
loop_
_geom_bond_atom_site_label_1
_geom_bond_atom_site_label_2
_geom_bond_site_symmetry_1
_geom_bond_site_symmetry_2
N1 C1 1_555 1_555
O1 C3 1_555 1_555
C1 C2 1_555 1_555
N2 C2 1_555 1_555
O2 C3 1_555 1_555
C2 H1 1_555 1_555
C3 C1 1_555 1_555
O3 Li1 1_555 1_555
Li1 N1 1_555 1_555
H2 O3 1_555 1_555
H3 O1C 1_555 1_555
O1C Li1 1_555 1_555
O1A H3 1_555 1_555
C1C N1 1_555 1_555
O2C C3C 1_555 1_555
C2C N2 1_555 1_555
H1C C2C 1_555 1_555
C3C O1C 1_555 1_555
O3_2 Li1 1_555 1_555
Li1_2 O3 1_555 1_555
H2C O3 1_555 1_555
H2_2 O3_2 1_555 1_555
H2C_2 O3_2 1_555 1_555
H3A O1 1_555 1_555
O1 Li1 1_555 1_555
C1C C2C 1_555 1_555
C1C C3C 1_555 1_555

#END
