
#######################################################################
#
#                 Cambridge Crystallographic Data Centre
#                                CCDC 
#
#######################################################################
#
# If this CIF has been generated from an entry in the Cambridge 
# Structural Database, then it will include bibliographic, chemical, 
# crystal, experimental, refinement or atomic coordinate data resulting 
# from the CCDC's data processing and validation procedures.
#
#######################################################################

data_IDAYAP
_symmetry_cell_setting           monoclinic
_symmetry_space_group_name_H-M   'C 2/c'
_symmetry_Int_Tables_number      15
_space_group_name_Hall           '-C 2yn'
loop_
_symmetry_equiv_pos_site_id
_symmetry_equiv_pos_as_xyz
1 x,y,z
2 -x,y,1/2-z
3 1/2+x,1/2+y,z
4 1/2-x,1/2+y,1/2-z
5 -x,-y,-z
6 x,-y,1/2+z
7 1/2-x,1/2-y,-z
8 1/2+x,1/2-y,1/2+z
_cell_length_a                   20.8405(16)
_cell_length_b                   11.4228(9)
_cell_length_c                   15.0728(12)
_cell_angle_alpha                90
_cell_angle_beta                 127.4790(10)
_cell_angle_gamma                90
_cell_volume                     2847.5
loop_
_atom_site_label
_atom_site_type_symbol
_atom_site_fract_x
_atom_site_fract_y
_atom_site_fract_z
Co1 Co 0.0000 0.25358(3) 0.2500
Cl1 Cl 0.14268(5) 0.07781(6) 0.63891(6)
Cl2 Cl 0.27648(5) 0.39785(8) 0.96582(5)
N1 N 0.0000 0.06476(19) 0.2500
N2 N 0.0000 -0.55559(19) 0.2500
O1 O 0.06270(9) 0.25755(11) 0.42246(12)
O2 O -0.03520(12) 0.28061(19) 0.44020(14)
O3 O 0.11240(11) 0.25907(14) 0.27604(15)
H1 H 0.1016(17) 0.262(2) 0.222(2)
C1 C 0.03654(15) 0.27797(18) 0.47722(18)
C2 C 0.09941(13) 0.30634(19) 0.60010(16)
C3 C 0.14937(15) 0.2225(2) 0.67935(19)
C4 C 0.20443(15) 0.2499(2) 0.79167(19)
H2 H 0.2371 0.1923 0.8439
C5 C 0.20962(14) 0.3633(2) 0.82401(18)
C6 C 0.16244(15) 0.4504(2) 0.74806(19)
H3 H 0.1674 0.5274 0.7714
C7 C 0.10782(15) 0.42101(19) 0.63699(18)
H4 H 0.0757 0.4793 0.5852
C8 C 0.01623(14) 0.00268(18) 0.33700(17)
H5 H 0.0275 0.0434 0.3985
C9 C 0.01723(14) -0.11759(17) 0.34075(17)
H6 H 0.0293 -0.1563 0.4036
C10 C 0.0000 -0.1806(2) 0.2500
C11 C 0.0000 -0.3104(2) 0.2500
C12 C 0.05524(13) -0.37393(17) 0.34646(17)
H7 H 0.0929 -0.3354 0.4135
C13 C 0.05389(14) -0.49467(17) 0.34212(17)
H8 H 0.0926 -0.5357 0.4069
C14 C 0.17939(16) 0.1836(3) 0.3450(2)
H9 H 0.1901 0.1756 0.4163
H10 H 0.2260 0.2159 0.3553
H11 H 0.1675 0.1081 0.3101
Co1_2 Co 0.0000 -0.74642(3) 0.2500
Cl1A Cl -0.14268(5) 0.07781(6) -0.13891(6)
Cl2A Cl -0.27648(5) 0.39785(8) -0.46582(5)
N2_2 N 0.0000 0.44441(19) 0.2500
O1A O -0.06270(9) 0.25755(11) 0.07754(12)
O2A O 0.03520(12) 0.28061(19) 0.05980(14)
O3A O -0.11240(11) 0.25907(14) 0.22396(15)
H1A H -0.1016(17) 0.262(2) 0.278(2)
C1A C -0.03654(15) 0.27797(18) 0.02278(18)
C2A C -0.09941(13) 0.30634(19) -0.10010(16)
C3A C -0.14937(15) 0.2225(2) -0.17935(19)
C4A C -0.20443(15) 0.2499(2) -0.29167(19)
H2A H -0.2371 0.1923 -0.3439
C5A C -0.20962(14) 0.3633(2) -0.32401(18)
C6A C -0.16244(15) 0.4504(2) -0.24806(19)
H3A H -0.1674 0.5274 -0.2714
C7A C -0.10782(15) 0.42101(19) -0.13699(18)
H4A H -0.0757 0.4793 -0.0852
C8A C -0.01623(14) 0.00268(18) 0.16300(17)
H5A H -0.0275 0.0434 0.1015
C9A C -0.01723(14) -0.11759(17) 0.15925(17)
H6A H -0.0293 -0.1563 0.0964
C12A C -0.05524(13) -0.37393(17) 0.15354(17)
H7A H -0.0929 -0.3354 0.0865
C13A C -0.05389(14) -0.49467(17) 0.15788(17)
H8A H -0.0926 -0.5357 0.0931
C14A C -0.17939(16) 0.1836(3) 0.1550(2)
H9A H -0.1901 0.1756 0.0837
H10A H -0.2260 0.2159 0.1447
H11A H -0.1675 0.1081 0.1899
loop_
_geom_bond_atom_site_label_1
_geom_bond_atom_site_label_2
_geom_bond_site_symmetry_1
_geom_bond_site_symmetry_2
Co1 N1 1_555 1_555
Cl1 C3 1_555 1_555
Cl2 C5 1_555 1_555
N1 C8 1_555 1_555
N2 C13 1_555 1_555
O1 Co1 1_555 1_555
O2 C1 1_555 1_555
O3 Co1 1_555 1_555
H1 O3 1_555 1_555
C1 O1 1_555 1_555
C2 C1 1_555 1_555
C3 C2 1_555 1_555
C4 C3 1_555 1_555
H2 C4 1_555 1_555
C5 C4 1_555 1_555
C6 C5 1_555 1_555
H3 C6 1_555 1_555
C7 C2 1_555 1_555
H4 C7 1_555 1_555
C8 H5 1_555 1_555
C9 C8 1_555 1_555
H6 C9 1_555 1_555
C10 C9 1_555 1_555
C11 C10 1_555 1_555
C12 C11 1_555 1_555
H7 C12 1_555 1_555
C13 C12 1_555 1_555
H8 C13 1_555 1_555
C14 O3 1_555 1_555
H9 C14 1_555 1_555
H10 C14 1_555 1_555
H11 C14 1_555 1_555
Co1_2 N2 1_555 1_555
Cl1A C3A 1_555 1_555
Cl2A C5A 1_555 1_555
N2_2 Co1 1_555 1_555
O1A Co1 1_555 1_555
O2A C1A 1_555 1_555
O3A Co1 1_555 1_555
H1A O3A 1_555 1_555
C1A O1A 1_555 1_555
C2A C1A 1_555 1_555
C3A C2A 1_555 1_555
C4A C3A 1_555 1_555
H2A C4A 1_555 1_555
C5A C4A 1_555 1_555
C6A C5A 1_555 1_555
H3A C6A 1_555 1_555
C7A C2A 1_555 1_555
H4A C7A 1_555 1_555
C8A N1 1_555 1_555
H5A C8A 1_555 1_555
C9A C10 1_555 1_555
H6A C9A 1_555 1_555
C12A C11 1_555 1_555
H7A C12A 1_555 1_555
C13A N2 1_555 1_555
H8A C13A 1_555 1_555
C14A O3A 1_555 1_555
H9A C14A 1_555 1_555
H10A C14A 1_555 1_555
H11A C14A 1_555 1_555
C6 C7 1_555 1_555
C6A C7A 1_555 1_555
C8A C9A 1_555 1_555
C12A C13A 1_555 1_555

#END
