
#######################################################################
#
#                 Cambridge Crystallographic Data Centre
#                                CCDC 
#
#######################################################################
#
# If this CIF has been generated from an entry in the Cambridge 
# Structural Database, then it will include bibliographic, chemical, 
# crystal, experimental, refinement or atomic coordinate data resulting 
# from the CCDC's data processing and validation procedures.
#
#######################################################################

data_IDAZEU
_symmetry_cell_setting           tetragonal
_symmetry_space_group_name_H-M   'I 41/a'
_symmetry_Int_Tables_number      88
_space_group_name_Hall           '-I 4ad'
loop_
_symmetry_equiv_pos_site_id
_symmetry_equiv_pos_as_xyz
1 x,y,z
2 3/4-y,1/4+x,1/4+z
3 1/2-x,-y,1/2+z
4 3/4+y,3/4-x,3/4+z
5 1/2+x,1/2+y,1/2+z
6 1/4-y,3/4+x,3/4+z
7 -x,1/2-y,z
8 1/4+y,1/4-x,1/4+z
9 -x,-y,-z
10 1/4+y,3/4-x,3/4-z
11 1/2+x,y,1/2-z
12 1/4-y,1/4+x,1/4-z
13 1/2-x,1/2-y,1/2-z
14 3/4+y,1/4-x,1/4-z
15 x,1/2+y,-z
16 3/4-y,3/4+x,3/4-z
_cell_length_a                   11.3502(16)
_cell_length_b                   11.3502(16)
_cell_length_c                   8.9142(18)
_cell_angle_alpha                90
_cell_angle_beta                 90
_cell_angle_gamma                90
_cell_volume                     1148.39
loop_
_atom_site_label
_atom_site_type_symbol
_atom_site_fract_x
_atom_site_fract_y
_atom_site_fract_z
C1 C 0.0038(3) 0.5244(3) 0.0802(3)
K1 K 0.0000 0.7500 0.3750
O1 O 0.0084(2) 0.63272(19) 0.0937(2)
O2 O 0.0045(2) 0.44765(18) 0.1836(2)
O3 O 0.2057(3) 0.8934(3) 0.3322(3)
H1 H 0.2363 0.9125 0.2486
H2 H 0.2520 0.8473 0.3787
Yb1 Yb 0.0000 0.7500 -0.1250
C1H C -0.0038(3) 0.4756(3) -0.0802(3)
C1O C 0.2256(3) 0.7538(3) -0.3302(3)
C1C C 0.2744(3) 0.7462(3) -0.1698(3)
K1_2 K 0.0000 0.7500 -0.6250
K1A K 0.0000 0.2500 -0.3750
K1C K 0.5000 0.7500 0.1250
O1H O -0.0084(2) 0.36728(19) -0.0937(2)
O1O O 0.11728(19) 0.7584(2) -0.3437(2)
O1C O 0.38272(19) 0.7416(2) -0.1563(2)
O1I O -0.11728(19) 0.7416(2) 0.6563(2)
O1O_2 O 0.11728(19) 0.7584(2) 0.6563(2)
O1I_2 O -0.11728(19) 0.7416(2) -0.3437(2)
O1F O -0.0084(2) 0.86728(19) 0.0937(2)
O2H O -0.0045(2) 0.55235(18) -0.1836(2)
O2O O 0.30235(18) 0.7545(2) -0.4336(2)
O2C O 0.19765(18) 0.7455(2) -0.0664(2)
O2E O -0.19765(18) 0.7545(2) -0.0664(2)
O2N O 0.0045(2) 0.94765(18) -0.1836(2)
O3F O -0.2057(3) 0.6066(3) 0.3322(3)
O3I O 0.1434(3) 0.5443(3) 0.4178(3)
O3O O -0.1434(3) 0.9557(3) 0.4178(3)
H1F H -0.2363 0.5875 0.2486
H1I H 0.1625 0.5137 0.5014
H1O H -0.1625 0.9863 0.5014
H2F H -0.2520 0.6527 0.3787
H2I H 0.0973 0.4980 0.3713
H2O H -0.0973 1.0020 0.3713
Yb1A Yb 0.0000 0.2500 0.1250
Yb1C Yb 0.5000 0.7500 -0.3750
loop_
_geom_bond_atom_site_label_1
_geom_bond_atom_site_label_2
_geom_bond_site_symmetry_1
_geom_bond_site_symmetry_2
C1 O1 1_555 1_555
K1 O1 1_555 1_555
O1 Yb1 1_555 1_555
O2 C1 1_555 1_555
O3 K1 1_555 1_555
H1 O3 1_555 1_555
H2 O3 1_555 1_555
Yb1 O1O 1_555 1_555
C1H C1 1_555 1_555
C1O C1C 1_555 1_555
C1C O1C 1_555 1_555
K1_2 O1O 1_555 1_555
K1A O1H 1_555 1_555
K1C O1C 1_555 1_555
O1H C1H 1_555 1_555
O1O C1O 1_555 1_555
O1C Yb1C 1_555 1_555
O1I K1 1_555 1_555
O1O_2 K1 1_555 1_555
O1I_2 Yb1 1_555 1_555
O1F K1 1_555 1_555
O2H Yb1 1_555 1_555
O2O C1O 1_555 1_555
O2C Yb1 1_555 1_555
O2E Yb1 1_555 1_555
O2N Yb1 1_555 1_555
O3F K1 1_555 1_555
O3I K1 1_555 1_555
O3O K1 1_555 1_555
H1F O3F 1_555 1_555
H1I O3I 1_555 1_555
H1O O3O 1_555 1_555
H2F O3F 1_555 1_555
H2I O3I 1_555 1_555
H2O O3O 1_555 1_555
Yb1A O2 1_555 1_555
Yb1C O2O 1_555 1_555
Yb1 O1F 1_555 1_555
C1H O2H 1_555 1_555
C1C O2C 1_555 1_555
K1_2 O1I_2 1_555 1_555
O1H Yb1A 1_555 1_555

#END
