
#######################################################################
#
#                 Cambridge Crystallographic Data Centre
#                                CCDC 
#
#######################################################################
#
# If this CIF has been generated from an entry in the Cambridge 
# Structural Database, then it will include bibliographic, chemical, 
# crystal, experimental, refinement or atomic coordinate data resulting 
# from the CCDC's data processing and validation procedures.
#
#######################################################################

data_IDECIF
_symmetry_cell_setting           triclinic
_symmetry_space_group_name_H-M   'P -1'
_symmetry_Int_Tables_number      2
_space_group_name_Hall           '-P 1'
loop_
_symmetry_equiv_pos_site_id
_symmetry_equiv_pos_as_xyz
1 x,y,z
2 -x,-y,-z
_cell_length_a                   9.0916(5)
_cell_length_b                   10.7714(6)
_cell_length_c                   12.9736(7)
_cell_angle_alpha                93.119(1)
_cell_angle_beta                 96.416(1)
_cell_angle_gamma                108.840(1)
_cell_volume                     1189.35
loop_
_atom_site_label
_atom_site_type_symbol
_atom_site_fract_x
_atom_site_fract_y
_atom_site_fract_z
Gd1 Gd -0.09048(2) -0.450920(19) 0.364770(14)
Gd2 Gd -0.62957(2) -0.589420(19) 0.108200(14)
Co1 Co -0.35411(7) -0.78823(6) 0.72574(4)
S1 S 0.07767(13) -0.22231(10) 0.59643(8)
S2 S -0.22553(12) -0.57766(10) 0.09511(7)
C1 C -0.2436(5) -0.6020(4) 0.5774(3)
C2 C -0.4094(5) -0.6651(4) 0.5377(3)
C3 C -0.6386(5) -0.8013(4) 0.5498(3)
H1 H -0.7210 -0.8642 0.5738
C4 C -0.5075(5) -0.6560(4) 0.4526(3)
C5 C -0.4834(5) -0.5830(4) 0.3574(3)
C6 C -0.4804(5) -0.3024(4) 0.1215(3)
C7 C -0.4283(5) -0.1583(4) 0.1198(3)
C8 C -0.4190(6) 0.0356(4) 0.1824(3)
H2 H -0.4344 0.1038 0.2221
C9 C -0.3313(5) -0.0688(4) 0.0646(3)
C10 C -0.2473(5) -0.0776(4) -0.0265(3)
N1 N -0.6520(4) -0.7429(4) 0.4626(3)
N2 N -0.4934(4) -0.7578(3) 0.5971(3)
N3 N -0.3280(5) 0.0523(3) 0.1057(3)
N4 N -0.4831(4) -0.0908(3) 0.1936(3)
O1 O -0.0507(4) -0.2115(3) 0.6529(2)
O2 O 0.0109(4) -0.2677(3) 0.4859(2)
O3 O 0.2024(4) -0.0979(3) 0.6007(3)
O4 O 0.1378(4) -0.3220(3) 0.6441(2)
O5 O -0.1492(3) -0.5169(3) 0.5314(2)
O6 O -0.1913(3) -0.6374(3) 0.6615(2)
O7 O -0.3554(3) -0.4965(3) 0.3536(2)
O8 O -0.5974(4) -0.6181(3) 0.2864(2)
O9 O -0.5763(4) -0.3519(3) 0.1835(2)
O10 O -0.4337(3) -0.3778(3) 0.0648(2)
O11 O -0.2678(4) -0.1916(3) -0.0689(3)
O12 O -0.1664(4) 0.0256(3) -0.0559(3)
O13 O -0.2200(4) -0.4951(3) 0.0081(2)
O14 O -0.1761(4) -0.6892(3) 0.0655(2)
O15 O -0.1148(4) -0.4973(3) 0.1839(2)
O16 O -0.3842(4) -0.6252(3) 0.1261(2)
H3 H -0.740(4) -0.749(5) 0.426(3)
H4 H -0.275(5) 0.128(3) 0.087(4)
O17 O -0.1280(5) -0.2675(3) 0.2745(3)
H5 H -0.069(6) -0.193(3) 0.275(4)
H6 H -0.157(7) -0.297(5) 0.216(2)
O18 O -0.8700(4) -0.6324(4) 0.1756(3)
H7 H -0.885(5) -0.669(5) 0.227(2)
H8 H -0.954(4) -0.641(5) 0.143(3)
O19 O -0.1637(4) -0.7554(3) 0.8462(2)
H9 H -0.166(7) -0.811(3) 0.887(3)
H10 H -0.131(6) -0.686(3) 0.886(3)
O20 O -0.2924(5) -0.9293(4) 0.6389(3)
H11 H -0.267(6) -0.916(6) 0.581(2)
H12 H -0.221(5) -0.949(6) 0.670(4)
Gd1A Gd 0.09048(2) -0.549080(19) 0.635230(14)
Gd2A Gd -0.37043(2) -0.410580(19) -0.108200(14)
Co1A Co -0.64589(7) -0.21177(6) 0.27426(4)
N4A N -0.5169(4) -0.9092(3) 0.8064(3)
O4A O -0.1378(4) -0.6780(3) 0.3559(2)
O5A O 0.1492(3) -0.4831(3) 0.4686(2)
O6A O 0.1913(3) -0.3626(3) 0.3385(2)
O9A O -0.4237(4) -0.6481(3) 0.8165(2)
O10A O -0.5663(3) -0.6222(3) -0.0648(2)
O11A O -0.7322(4) -0.8084(3) 0.0689(3)
O13A O -0.7800(4) -0.5049(3) -0.0081(2)
O21 O -0.9436(5) -1.0166(4) 0.2481(3)
H13 H -0.921(7) -1.006(5) 0.187(2)
H14 H -0.972(7) -0.954(4) 0.271(4)
loop_
_geom_bond_atom_site_label_1
_geom_bond_atom_site_label_2
_geom_bond_site_symmetry_1
_geom_bond_site_symmetry_2
Gd1 O2 1_555 1_555
Gd2 O8 1_555 1_555
Co1 N2 1_555 1_555
S1 O1 1_555 1_555
S2 O13 1_555 1_555
C1 C2 1_555 1_555
C2 C4 1_555 1_555
C3 H1 1_555 1_555
C4 C5 1_555 1_555
C5 O7 1_555 1_555
C6 C7 1_555 1_555
C7 C9 1_555 1_555
C8 H2 1_555 1_555
C9 C10 1_555 1_555
C10 O11 1_555 1_555
N1 C3 1_555 1_555
N2 C2 1_555 1_555
N3 C8 1_555 1_555
N4 C7 1_555 1_555
O2 S1 1_555 1_555
O3 S1 1_555 1_555
O4 S1 1_555 1_555
O5 Gd1 1_555 1_555
O6 Co1 1_555 1_555
O7 Gd1 1_555 1_555
O8 C5 1_555 1_555
O9 Gd2 1_555 1_555
O10 Gd2 1_555 1_555
O11 Gd2A 1_555 1_555
O12 C10 1_555 1_555
O13 Gd2A 1_555 1_555
O14 S2 1_555 1_555
O15 Gd1 1_555 1_555
O16 Gd2 1_555 1_555
H3 N1 1_555 1_555
H4 N3 1_555 1_555
O17 Gd1 1_555 1_555
H5 O17 1_555 1_555
H6 O17 1_555 1_555
O18 Gd2 1_555 1_555
H7 O18 1_555 1_555
H8 O18 1_555 1_555
O19 Co1 1_555 1_555
H9 O19 1_555 1_555
H10 O19 1_555 1_555
O20 Co1 1_555 1_555
H11 O20 1_555 1_555
H12 O20 1_555 1_555
O21 H13 1_555 1_555
H14 O21 1_555 1_555
Gd1A O4 1_555 1_555
Gd2A O10 1_555 1_555
Co1A N4 1_555 1_555
N4A Co1 1_555 1_555
O4A Gd1 1_555 1_555
O5A Gd1 1_555 1_555
O6A Gd1 1_555 1_555
O9A Co1 1_555 1_555
O10A Gd2 1_555 1_555
O11A Gd2 1_555 1_555
O13A Gd2 1_555 1_555
S2 O15 1_555 1_555
S2 O16 1_555 1_555
C1 O5 1_555 1_555
C1 O6 1_555 1_555
C3 N2 1_555 1_555
C4 N1 1_555 1_555
C6 O9 1_555 1_555
C6 O10 1_555 1_555
C8 N4 1_555 1_555
C9 N3 1_555 1_555
O5 Gd1A 1_555 1_555
O6 Gd1A 1_555 1_555
O9 Co1A 1_555 1_555
Gd1A O5A 1_555 1_555
Gd2A O10A 1_555 1_555

#END
