
#######################################################################
#
#                 Cambridge Crystallographic Data Centre
#                                CCDC 
#
#######################################################################
#
# If this CIF has been generated from an entry in the Cambridge 
# Structural Database, then it will include bibliographic, chemical, 
# crystal, experimental, refinement or atomic coordinate data resulting 
# from the CCDC's data processing and validation procedures.
#
#######################################################################

data_IDEDAY
_symmetry_cell_setting           monoclinic
_symmetry_space_group_name_H-M   'P 21/c'
_symmetry_Int_Tables_number      14
_space_group_name_Hall           '-P 2ybc'
loop_
_symmetry_equiv_pos_site_id
_symmetry_equiv_pos_as_xyz
1 x,y,z
2 -x,1/2+y,1/2-z
3 -x,-y,-z
4 x,1/2-y,1/2+z
_cell_length_a                   7.3427(3)
_cell_length_b                   11.5194(5)
_cell_length_c                   14.6331(6)
_cell_angle_alpha                90
_cell_angle_beta                 100.495(1)
_cell_angle_gamma                90
_cell_volume                     1217.01
loop_
_atom_site_label
_atom_site_type_symbol
_atom_site_fract_x
_atom_site_fract_y
_atom_site_fract_z
K1 K 0.65409(5) 0.13314(3) 0.49915(3)
K2 K 0.92404(6) 0.02144(4) 0.28049(3)
S1 S 1.44515(6) 0.49916(4) 0.76286(3)
S2 S 1.13059(5) 0.17306(3) 0.51439(3)
O1 O 1.0057(2) 0.17436(11) 0.42425(9)
O2 O 1.03127(18) 0.14057(11) 0.58772(10)
O3 O 1.29405(18) 0.10359(11) 0.51473(10)
O4 O 1.5722(2) 0.59468(13) 0.75379(10)
O5 O 1.5404(2) 0.39826(12) 0.80606(9)
O6 O 1.29385(19) 0.53620(13) 0.80678(9)
O7 O 1.0959(2) 0.38234(12) 0.37674(9)
H1 H 1.0522 0.3166 0.3729
O8 O 1.3915(2) 0.65510(11) 0.58903(10)
H2 H 1.4576 0.6604 0.6404
O9 O 0.8087(4) 0.21939(16) 0.19154(15)
H3 H 0.7450 0.2678 0.2163
H4 H 0.8358 0.2336 0.1386
C1 C 1.2023(2) 0.31869(14) 0.53585(11)
C2 C 1.1799(2) 0.40317(15) 0.46585(11)
C3 C 1.2454(2) 0.51451(15) 0.48621(12)
H5 H 1.2321 0.5700 0.4393
C4 C 1.3303(2) 0.54435(14) 0.57530(12)
C5 C 1.3490(2) 0.46109(14) 0.64670(11)
C6 C 1.2866(2) 0.34900(14) 0.62554(12)
H6 H 1.3015 0.2931 0.6722
K1B K 1.34591(5) -0.13314(3) 0.50085(3)
K1_2 K 1.65409(5) 0.13314(3) 0.49915(3)
K1C K 1.65409(5) 0.36686(3) 0.99915(3)
K1A K 1.34591(5) 0.63314(3) 1.00085(3)
K1B_2 K 1.34591(5) 0.86686(3) 0.50085(3)
K2B K 1.07596(6) -0.02144(4) 0.71951(3)
K2C K 1.92404(6) 0.47856(4) 0.78049(3)
K2C_2 K 0.92404(6) 0.47856(4) 0.78049(3)
K2A K 1.07596(6) 0.52144(4) 0.21951(3)
O2B O 0.96873(18) -0.14057(11) 0.41228(10)
O3B O 0.70595(18) -0.10359(11) 0.48527(10)
O3_2 O 0.29405(18) 0.10359(11) 0.51473(10)
O4C O 0.5722(2) -0.09468(13) 0.25379(10)
O5C O 0.5404(2) 0.10174(12) 0.30606(9)
O6A O 0.70615(19) 0.03620(13) 0.69322(9)
O6C O 1.29385(19) -0.03620(13) 0.30678(9)
O7A O 0.9041(2) -0.11766(12) 0.12326(9)
H1A H 0.9478 -0.1834 0.1271
O8B O 0.6085(2) 0.34490(11) 0.41097(10)
H2B H 0.5424 0.3396 0.3596
loop_
_geom_bond_atom_site_label_1
_geom_bond_atom_site_label_2
_geom_bond_site_symmetry_1
_geom_bond_site_symmetry_2
K1 O1 1_555 1_555
K2 O1 1_555 1_555
S1 O4 1_555 1_555
S2 O1 1_555 1_555
O2 K1 1_555 1_555
O3 S2 1_555 1_555
O4 K2C 1_555 1_555
O5 S1 1_555 1_555
O6 S1 1_555 1_555
O7 H1 1_555 1_555
O8 H2 1_555 1_555
O9 K2 1_555 1_555
H3 O9 1_555 1_555
H4 O9 1_555 1_555
C1 S2 1_555 1_555
C2 O7 1_555 1_555
C3 C2 1_555 1_555
H5 C3 1_555 1_555
C4 O8 1_555 1_555
C5 S1 1_555 1_555
C6 C1 1_555 1_555
H6 C6 1_555 1_555
K1B O3 1_555 1_555
K1_2 O3 1_555 1_555
K1C O5 1_555 1_555
K1A O6 1_555 1_555
K1B_2 O8 1_555 1_555
K2B O2 1_555 1_555
K2C O5 1_555 1_555
K2C_2 O6 1_555 1_555
K2A O7 1_555 1_555
O2B K2 1_555 1_555
O3B K1 1_555 1_555
O3_2 K1 1_555 1_555
O4C K2 1_555 1_555
O5C K1 1_555 1_555
O6A K1 1_555 1_555
O6C K2 1_555 1_555
O7A K2 1_555 1_555
H1A O7A 1_555 1_555
O8B K1 1_555 1_555
H2B O8B 1_555 1_555
K2 O5C 1_555 1_555
S2 O2 1_555 1_555
C1 C2 1_555 1_555
C3 C4 1_555 1_555
C4 C5 1_555 1_555
C5 C6 1_555 1_555
K1B O2B 1_555 1_555
K1B O6C 1_555 1_555
K2B O6A 1_555 1_555

#END
