
#######################################################################
#
#                 Cambridge Crystallographic Data Centre
#                                CCDC 
#
#######################################################################
#
# If this CIF has been generated from an entry in the Cambridge 
# Structural Database, then it will include bibliographic, chemical, 
# crystal, experimental, refinement or atomic coordinate data resulting 
# from the CCDC's data processing and validation procedures.
#
#######################################################################

data_IDEJAD
_symmetry_cell_setting           rhombohedral
_symmetry_space_group_name_H-M   'R -3'
_symmetry_Int_Tables_number      148
_space_group_name_Hall           '-R 3'
loop_
_symmetry_equiv_pos_site_id
_symmetry_equiv_pos_as_xyz
1 x,y,z
2 -y,x-y,z
3 -x+y,-x,z
4 2/3+x,1/3+y,1/3+z
5 2/3-y,1/3+x-y,1/3+z
6 2/3-x+y,1/3-x,1/3+z
7 1/3+x,2/3+y,2/3+z
8 1/3-y,2/3+x-y,2/3+z
9 1/3-x+y,2/3-x,2/3+z
10 -x,-y,-z
11 y,-x+y,-z
12 x-y,x,-z
13 1/3-x,2/3-y,2/3-z
14 1/3+y,2/3-x+y,2/3-z
15 1/3+x-y,2/3+x,2/3-z
16 2/3-x,1/3-y,1/3-z
17 2/3+y,1/3-x+y,1/3-z
18 2/3+x-y,1/3+x,1/3-z
_cell_length_a                   21.081(3)
_cell_length_b                   21.081(3)
_cell_length_c                   10.4954(15)
_cell_angle_alpha                90
_cell_angle_beta                 90
_cell_angle_gamma                120.00
_cell_volume                     4039.36
loop_
_atom_site_label
_atom_site_type_symbol
_atom_site_fract_x
_atom_site_fract_y
_atom_site_fract_z
Nd1 Nd 0.0000 0.0000 0.0000
Nd2 Nd 0.0000 0.0000 0.5000
P1 P -0.02102(3) 0.11126(2) 0.25134(4)
O1 O 0.16921(10) 0.37492(9) 0.1138(2)
O2 O -0.07017(9) 0.14708(9) 0.2453(2)
H1 H -0.0822(16) 0.1499(16) 0.3005(27)
O3 O -0.03399(7) 0.06797(7) 0.13008(12)
O4 O -0.03572(7) 0.06768(7) 0.37233(12)
N1 N 0.21183(10) 0.34531(9) 0.1154(2)
C1 C 0.28555(14) 0.39018(14) 0.1130(2)
H2 H 0.2994(15) 0.4418(16) 0.1123(25)
C2 C 0.33097(15) 0.3623(2) 0.1143(3)
H3 H 0.3766(18) 0.3930(17) 0.1100(29)
C3 C 0.3029(2) 0.2878(2) 0.1203(3)
H4 H 0.3326(19) 0.2675(18) 0.1234(32)
C4 C 0.22850(14) 0.24330(15) 0.1238(2)
H5 H 0.2052(16) 0.1931(17) 0.1262(27)
C5 C 0.18195(11) 0.27149(11) 0.1213(2)
C6 C 0.10030(11) 0.22384(11) 0.1253(2)
H6 H 0.0797(14) 0.2573(14) 0.1009(23)
H7 H 0.0880(12) 0.1886(13) 0.0547(21)
C7 C 0.07323(12) 0.18327(12) 0.2521(2)
H8 H 0.1022(13) 0.1618(13) 0.2724(22)
H9 H 0.0793(14) 0.2149(14) 0.3202(25)
Nd2_2 Nd 0.0000 0.0000 -0.5000
P1A P -0.11126(2) -0.13228(4) 0.25134(4)
P1B P 0.13228(4) 0.02102(3) 0.25134(4)
P1I P 0.02102(3) -0.11126(2) -0.25134(4)
P1J P 0.11126(2) 0.13228(4) -0.25134(4)
P1K P -0.13228(4) -0.02102(3) -0.25134(4)
O1A O -0.37492(9) -0.20571(13) 0.1138(2)
O1B O 0.20571(13) -0.16921(10) 0.1138(2)
O1I O -0.16921(10) -0.37492(9) -0.1138(2)
O1J O 0.37492(9) 0.20571(13) -0.1138(2)
O1K O -0.20571(13) 0.16921(10) -0.1138(2)
O2A O -0.14708(9) -0.21725(13) 0.2453(2)
O2B O 0.21725(13) 0.07017(9) 0.2453(2)
O2I O 0.07017(9) -0.14708(9) -0.2453(2)
O2J O 0.14708(9) 0.21725(13) -0.2453(2)
O2K O -0.21725(13) -0.07017(9) -0.2453(2)
H1A H -0.1499(16) -0.2321(23) 0.3005(27)
H1B H 0.2321(23) 0.0822(16) 0.3005(27)
H1I H 0.0822(16) -0.1499(16) -0.3005(27)
H1J H 0.1499(16) 0.2321(23) -0.3005(27)
H1K H -0.2321(23) -0.0822(16) -0.3005(27)
O3A O -0.06797(7) -0.10196(10) 0.13008(12)
O3B O 0.10196(10) 0.03399(7) 0.13008(12)
O3I O 0.03399(7) -0.06797(7) -0.13008(12)
O3J O 0.06797(7) 0.10196(10) -0.13008(12)
O3K O -0.10196(10) -0.03399(7) -0.13008(12)
O4A O -0.06768(7) -0.10340(10) 0.37233(12)
O4B O 0.10340(10) 0.03572(7) 0.37233(12)
O4I O 0.03572(7) -0.06768(7) -0.37233(12)
O4J O 0.06768(7) 0.10340(10) -0.37233(12)
O4K O -0.10340(10) -0.03572(7) -0.37233(12)
O4I_2 O 0.03572(7) -0.06768(7) 0.62767(12)
O4J_2 O 0.06768(7) 0.10340(10) 0.62767(12)
O4K_2 O -0.10340(10) -0.03572(7) 0.62767(12)
N1A N -0.34531(9) -0.13348(13) 0.1154(2)
N1B N 0.13348(13) -0.21183(10) 0.1154(2)
N1I N -0.21183(10) -0.34531(9) -0.1154(2)
N1J N 0.34531(9) 0.13348(13) -0.1154(2)
N1K N -0.13348(13) 0.21183(10) -0.1154(2)
C1A C -0.39018(14) -0.10463(20) 0.1130(2)
C1B C 0.10463(20) -0.28555(14) 0.1130(2)
C1I C -0.28555(14) -0.39018(14) -0.1130(2)
C1J C 0.39018(14) 0.10463(20) -0.1130(2)
C1K C -0.10463(20) 0.28555(14) -0.1130(2)
H2A H -0.4418(16) -0.1424(22) 0.1123(25)
H2B H 0.1424(22) -0.2994(15) 0.1123(25)
H2I H -0.2994(15) -0.4418(16) -0.1123(25)
H2J H 0.4418(16) 0.1424(22) -0.1123(25)
H2K H -0.1424(22) 0.2994(15) -0.1123(25)
C2A C -0.3623(2) -0.03133(25) 0.1143(3)
C2B C 0.03133(25) -0.33097(15) 0.1143(3)
C2I C -0.33097(15) -0.3623(2) -0.1143(3)
C2J C 0.3623(2) 0.03133(25) -0.1143(3)
C2K C -0.03133(25) 0.33097(15) -0.1143(3)
H3A H -0.3930(17) -0.0164(25) 0.1100(29)
H3B H 0.0164(25) -0.3766(18) 0.1100(29)
H3I H -0.3766(18) -0.3930(17) -0.1100(29)
H3J H 0.3930(17) 0.0164(25) -0.1100(29)
H3K H -0.0164(25) 0.3766(18) -0.1100(29)
C3A C -0.2878(2) 0.0151(3) 0.1203(3)
C3B C -0.0151(3) -0.3029(2) 0.1203(3)
C3I C -0.3029(2) -0.2878(2) -0.1203(3)
C3J C 0.2878(2) -0.0151(3) -0.1203(3)
C3K C 0.0151(3) 0.3029(2) -0.1203(3)
H4A H -0.2675(18) 0.0651(26) 0.1234(32)
H4B H -0.0651(26) -0.3326(19) 0.1234(32)
H4I H -0.3326(19) -0.2675(18) -0.1234(32)
H4J H 0.2675(18) -0.0651(26) -0.1234(32)
H4K H 0.0651(26) 0.3326(19) -0.1234(32)
C4A C -0.24330(15) -0.01480(21) 0.1238(2)
C4B C 0.01480(21) -0.22850(14) 0.1238(2)
C4I C -0.22850(14) -0.24330(15) -0.1238(2)
C4J C 0.24330(15) 0.01480(21) -0.1238(2)
C4K C -0.01480(21) 0.22850(14) -0.1238(2)
H5A H -0.1931(17) 0.0121(23) 0.1262(27)
H5B H -0.0121(23) -0.2052(16) 0.1262(27)
H5I H -0.2052(16) -0.1931(17) -0.1262(27)
H5J H 0.1931(17) -0.0121(23) -0.1262(27)
H5K H 0.0121(23) 0.2052(16) -0.1262(27)
C5A C -0.27149(11) -0.08954(16) 0.1213(2)
C5B C 0.08954(16) -0.18195(11) 0.1213(2)
C5I C -0.18195(11) -0.27149(11) -0.1213(2)
C5J C 0.27149(11) 0.08954(16) -0.1213(2)
C5K C -0.08954(16) 0.18195(11) -0.1213(2)
C6A C -0.22384(11) -0.12354(16) 0.1253(2)
C6B C 0.12354(16) -0.10030(11) 0.1253(2)
C6I C -0.10030(11) -0.22384(11) -0.1253(2)
C6J C 0.22384(11) 0.12354(16) -0.1253(2)
C6K C -0.12354(16) 0.10030(11) -0.1253(2)
H6A H -0.2573(14) -0.1776(20) 0.1009(23)
H6B H 0.1776(20) -0.0797(14) 0.1009(23)
H6I H -0.0797(14) -0.2573(14) -0.1009(23)
H6J H 0.2573(14) 0.1776(20) -0.1009(23)
H6K H -0.1776(20) 0.0797(14) -0.1009(23)
H7A H -0.1886(13) -0.1006(18) 0.0547(21)
H7B H 0.1006(18) -0.0880(12) 0.0547(21)
H7I H -0.0880(12) -0.1886(13) -0.0547(21)
H7J H 0.1886(13) 0.1006(18) -0.0547(21)
H7K H -0.1006(18) 0.0880(12) -0.0547(21)
C7A C -0.18327(12) -0.11004(17) 0.2521(2)
C7B C 0.11004(17) -0.07323(12) 0.2521(2)
C7I C -0.07323(12) -0.18327(12) -0.2521(2)
C7J C 0.18327(12) 0.11004(17) -0.2521(2)
C7K C -0.11004(17) 0.07323(12) -0.2521(2)
H8A H -0.1618(13) -0.0596(18) 0.2724(22)
H8B H 0.0596(18) -0.1022(13) 0.2724(22)
H8I H -0.1022(13) -0.1618(13) -0.2724(22)
H8J H 0.1618(13) 0.0596(18) -0.2724(22)
H8K H -0.0596(18) 0.1022(13) -0.2724(22)
H9A H -0.2149(14) -0.1356(20) 0.3202(25)
H9B H 0.1356(20) -0.0793(14) 0.3202(25)
H9I H -0.0793(14) -0.2149(14) -0.3202(25)
H9J H 0.2149(14) 0.1356(20) -0.3202(25)
H9K H -0.1356(20) 0.0793(14) -0.3202(25)
loop_
_geom_bond_atom_site_label_1
_geom_bond_atom_site_label_2
_geom_bond_site_symmetry_1
_geom_bond_site_symmetry_2
Nd1 O3 1_555 1_555
Nd2 O4 1_555 1_555
P1 O2 1_555 1_555
O1 N1 1_555 1_555
O2 H1 1_555 1_555
O3 P1 1_555 1_555
O4 P1 1_555 1_555
N1 C1 1_555 1_555
C1 H2 1_555 1_555
C2 C1 1_555 1_555
H3 C2 1_555 1_555
C3 C2 1_555 1_555
H4 C3 1_555 1_555
C4 C3 1_555 1_555
H5 C4 1_555 1_555
C5 N1 1_555 1_555
C6 C5 1_555 1_555
H6 C6 1_555 1_555
H7 C6 1_555 1_555
C7 P1 1_555 1_555
H8 C7 1_555 1_555
H9 C7 1_555 1_555
Nd2_2 O4I 1_555 1_555
P1A O2A 1_555 1_555
P1B O2B 1_555 1_555
P1I O2I 1_555 1_555
P1J O2J 1_555 1_555
P1K O2K 1_555 1_555
O1A N1A 1_555 1_555
O1B N1B 1_555 1_555
O1I N1I 1_555 1_555
O1J N1J 1_555 1_555
O1K N1K 1_555 1_555
O2A H1A 1_555 1_555
O2B H1B 1_555 1_555
O2I H1I 1_555 1_555
O2J H1J 1_555 1_555
O2K H1K 1_555 1_555
O3A Nd1 1_555 1_555
O3B Nd1 1_555 1_555
O3I Nd1 1_555 1_555
O3J Nd1 1_555 1_555
O3K Nd1 1_555 1_555
O4A Nd2 1_555 1_555
O4B Nd2 1_555 1_555
O4I P1I 1_555 1_555
O4J Nd2_2 1_555 1_555
O4K Nd2_2 1_555 1_555
O4I_2 Nd2 1_555 1_555
O4J_2 Nd2 1_555 1_555
O4K_2 Nd2 1_555 1_555
N1A C1A 1_555 1_555
N1B C1B 1_555 1_555
N1I C1I 1_555 1_555
N1J C1J 1_555 1_555
N1K C1K 1_555 1_555
C1A H2A 1_555 1_555
C1B H2B 1_555 1_555
C1I H2I 1_555 1_555
C1J H2J 1_555 1_555
C1K H2K 1_555 1_555
C2A C1A 1_555 1_555
C2B C1B 1_555 1_555
C2I C1I 1_555 1_555
C2J C1J 1_555 1_555
C2K C1K 1_555 1_555
H3A C2A 1_555 1_555
H3B C2B 1_555 1_555
H3I C2I 1_555 1_555
H3J C2J 1_555 1_555
H3K C2K 1_555 1_555
C3A C2A 1_555 1_555
C3B C2B 1_555 1_555
C3I C2I 1_555 1_555
C3J C2J 1_555 1_555
C3K C2K 1_555 1_555
H4A C3A 1_555 1_555
H4B C3B 1_555 1_555
H4I C3I 1_555 1_555
H4J C3J 1_555 1_555
H4K C3K 1_555 1_555
C4A C3A 1_555 1_555
C4B C3B 1_555 1_555
C4I C3I 1_555 1_555
C4J C3J 1_555 1_555
C4K C3K 1_555 1_555
H5A C4A 1_555 1_555
H5B C4B 1_555 1_555
H5I C4I 1_555 1_555
H5J C4J 1_555 1_555
H5K C4K 1_555 1_555
C5A N1A 1_555 1_555
C5B N1B 1_555 1_555
C5I N1I 1_555 1_555
C5J N1J 1_555 1_555
C5K N1K 1_555 1_555
C6A C5A 1_555 1_555
C6B C5B 1_555 1_555
C6I C5I 1_555 1_555
C6J C5J 1_555 1_555
C6K C5K 1_555 1_555
H6A C6A 1_555 1_555
H6B C6B 1_555 1_555
H6I C6I 1_555 1_555
H6J C6J 1_555 1_555
H6K C6K 1_555 1_555
H7A C6A 1_555 1_555
H7B C6B 1_555 1_555
H7I C6I 1_555 1_555
H7J C6J 1_555 1_555
H7K C6K 1_555 1_555
C7A P1A 1_555 1_555
C7B P1B 1_555 1_555
C7I P1I 1_555 1_555
C7J P1J 1_555 1_555
C7K P1K 1_555 1_555
H8A C7A 1_555 1_555
H8B C7B 1_555 1_555
H8I C7I 1_555 1_555
H8J C7J 1_555 1_555
H8K C7K 1_555 1_555
H9A C7A 1_555 1_555
H9B C7B 1_555 1_555
H9I C7I 1_555 1_555
H9J C7J 1_555 1_555
H9K C7K 1_555 1_555
C4 C5 1_555 1_555
C6 C7 1_555 1_555
P1A O3A 1_555 1_555
P1A O4A 1_555 1_555
P1B O3B 1_555 1_555
P1B O4B 1_555 1_555
P1I O3I 1_555 1_555
P1J O3J 1_555 1_555
P1J O4J 1_555 1_555
P1K O3K 1_555 1_555
P1K O4K 1_555 1_555
C4A C5A 1_555 1_555
C4B C5B 1_555 1_555
C4I C5I 1_555 1_555
C4J C5J 1_555 1_555
C4K C5K 1_555 1_555
C6A C7A 1_555 1_555
C6B C7B 1_555 1_555
C6I C7I 1_555 1_555
C6J C7J 1_555 1_555
C6K C7K 1_555 1_555

#END
