
#######################################################################
#
#                 Cambridge Crystallographic Data Centre
#                                CCDC 
#
#######################################################################
#
# If this CIF has been generated from an entry in the Cambridge 
# Structural Database, then it will include bibliographic, chemical, 
# crystal, experimental, refinement or atomic coordinate data resulting 
# from the CCDC's data processing and validation procedures.
#
#######################################################################

data_IDELAG
_symmetry_cell_setting           tetragonal
_symmetry_space_group_name_H-M   'P 41'
_symmetry_Int_Tables_number      76
_space_group_name_Hall           'P 4w'
loop_
_symmetry_equiv_pos_site_id
_symmetry_equiv_pos_as_xyz
1 x,y,z
2 -x,-y,1/2+z
3 -y,x,1/4+z
4 y,-x,3/4+z
_cell_length_a                   11.83580(10)
_cell_length_b                   11.83580(10)
_cell_length_c                   15.5580(3)
_cell_angle_alpha                90
_cell_angle_beta                 90
_cell_angle_gamma                90
_cell_volume                     2179.46
loop_
_atom_site_label
_atom_site_type_symbol
_atom_site_fract_x
_atom_site_fract_y
_atom_site_fract_z
Cu1 Cu -0.04356(8) -0.67261(7) 0.45579(5)
Si1 Si -0.18709(18) -0.15794(17) 0.30718(13)
Cl1 Cl 0.0446(3) -0.60163(19) 0.57491(15)
Cl2 Cl -0.19615(18) -0.74800(17) 0.38527(13)
S1 S 0.1758(2) -0.5731(2) 0.34716(17)
O1 O 0.0870(5) -0.6654(5) 0.3514(4)
N1 N -0.0937(5) -0.5168(5) 0.4177(4)
N2 N 0.1727(6) -0.0123(6) 0.2391(4)
C1 C -0.1054(7) -0.4974(7) 0.3337(5)
H1 H -0.0934 -0.5588 0.2955
C2 C -0.1339(6) -0.3934(7) 0.2983(5)
H2 H -0.1367 -0.3843 0.2377
C3 C -0.1588(6) -0.3017(7) 0.3527(5)
C4 C -0.1505(6) -0.3251(7) 0.4410(5)
H3 H -0.1669 -0.2672 0.4814
C5 C -0.1191(7) -0.4307(7) 0.4701(5)
H4 H -0.1153 -0.4429 0.5303
C6 C -0.2666(7) -0.0693(7) 0.3853(6)
H5 H -0.3408 -0.1033 0.3961
H6 H -0.2767 0.0067 0.3616
H7 H -0.2243 -0.0646 0.4393
C7 C -0.2624(7) -0.1717(7) 0.2040(6)
H8 H -0.3379 -0.2027 0.2142
H9 H -0.2201 -0.2224 0.1660
H10 H -0.2691 -0.0972 0.1770
C8 C -0.0435(7) -0.0973(7) 0.2833(4)
C9 C 0.0414(7) -0.1646(7) 0.2485(5)
H11 H 0.0275 -0.2424 0.2379
C10 C 0.1455(7) -0.1190(7) 0.2292(6)
H12 H 0.2017 -0.1684 0.2071
C11 C 0.0911(7) 0.0577(7) 0.2699(5)
H13 H 0.1064 0.1362 0.2751
C12 C -0.0156(7) 0.0161(7) 0.2942(5)
H14 H -0.0695 0.0662 0.3185
C13 C 0.3081(8) -0.6459(11) 0.3437(8)
H15 H 0.3246 -0.6778 0.4005
H16 H 0.3680 -0.5928 0.3275
H17 H 0.3041 -0.7069 0.3012
C14 C 0.1740(9) -0.5255(9) 0.2382(7)
H18 H 0.1043 -0.4831 0.2274
H19 H 0.1775 -0.5907 0.1995
H20 H 0.2394 -0.4764 0.2279
Cu1C Cu 0.32739(7) 0.04356(8) 0.20579(5)
N2B N 0.0123(6) -0.8273(6) 0.4891(4)
S2 S -0.4467(5) -0.4064(6) 0.3123(7)
O2 O -0.4018(12) -0.5349(15) 0.3705(11)
C15 C -0.490(4) -0.304(2) 0.401(3)
H21 H -0.5150 -0.2327 0.3757
H22 H -0.4250 -0.2898 0.4390
H23 H -0.5516 -0.3370 0.4349
C16 C -0.5552(13) -0.409(3) 0.2746(12)
H24 H -0.5715 -0.3361 0.2478
H25 H -0.6118 -0.4251 0.3189
H26 H -0.5576 -0.4687 0.2307
loop_
_geom_bond_atom_site_label_1
_geom_bond_atom_site_label_2
_geom_bond_site_symmetry_1
_geom_bond_site_symmetry_2
Cu1 Cl1 1_555 1_555
Si1 C3 1_555 1_555
Cl2 Cu1 1_555 1_555
S1 O1 1_555 1_555
O1 Cu1 1_555 1_555
N1 Cu1 1_555 1_555
N2 C10 1_555 1_555
C1 N1 1_555 1_555
H1 C1 1_555 1_555
C2 C1 1_555 1_555
H2 C2 1_555 1_555
C3 C2 1_555 1_555
C4 C3 1_555 1_555
H3 C4 1_555 1_555
C5 N1 1_555 1_555
H4 C5 1_555 1_555
C6 Si1 1_555 1_555
H5 C6 1_555 1_555
H6 C6 1_555 1_555
H7 C6 1_555 1_555
C7 Si1 1_555 1_555
H8 C7 1_555 1_555
H9 C7 1_555 1_555
H10 C7 1_555 1_555
C8 Si1 1_555 1_555
C9 C8 1_555 1_555
H11 C9 1_555 1_555
C10 C9 1_555 1_555
H12 C10 1_555 1_555
C11 N2 1_555 1_555
H13 C11 1_555 1_555
C12 C8 1_555 1_555
H14 C12 1_555 1_555
C13 S1 1_555 1_555
H15 C13 1_555 1_555
H16 C13 1_555 1_555
H17 C13 1_555 1_555
C14 S1 1_555 1_555
H18 C14 1_555 1_555
H19 C14 1_555 1_555
H20 C14 1_555 1_555
S2 O2 1_555 1_555
C15 S2 1_555 1_555
H21 C15 1_555 1_555
H22 C15 1_555 1_555
H23 C15 1_555 1_555
C16 S2 1_555 1_555
H24 C16 1_555 1_555
H25 C16 1_555 1_555
H26 C16 1_555 1_555
Cu1C N2 1_555 1_555
N2B Cu1 1_555 1_555
C4 C5 1_555 1_555
C11 C12 1_555 1_555

#END
