
#######################################################################
#
#                 Cambridge Crystallographic Data Centre
#                                CCDC 
#
#######################################################################
#
# If this CIF has been generated from an entry in the Cambridge 
# Structural Database, then it will include bibliographic, chemical, 
# crystal, experimental, refinement or atomic coordinate data resulting 
# from the CCDC's data processing and validation procedures.
#
#######################################################################

data_IDEYEV
_symmetry_cell_setting           monoclinic
_symmetry_space_group_name_H-M   'P 21/a'
_symmetry_Int_Tables_number      14
_space_group_name_Hall           '-P 2yab'
loop_
_symmetry_equiv_pos_site_id
_symmetry_equiv_pos_as_xyz
1 x,y,z
2 1/2+x,1/2-y,z
3 -x,-y,-z
4 1/2-x,1/2+y,-z
_cell_length_a                   7.2949(2)
_cell_length_b                   15.7167(5)
_cell_length_c                   16.6267(4)
_cell_angle_alpha                90
_cell_angle_beta                 100.0625(7)
_cell_angle_gamma                90
_cell_volume                     1876.96
loop_
_atom_site_label
_atom_site_type_symbol
_atom_site_fract_x
_atom_site_fract_y
_atom_site_fract_z
Cu1 Cu -0.10241(3) -0.00847(2) 0.26568(1)
O1 O 0.6404(2) -0.0252(1) 0.28683(9)
O2 O 0.5578(2) 0.0557(1) 0.18018(9)
N1 N 0.1294(2) -0.0515(1) 0.3351(1)
N2 N 0.0169(2) 0.0445(1) 0.1790(1)
N3 N 0.5130(2) 0.0140(1) 0.2368(1)
C1 C 0.3280(3) 0.0075(1) 0.2470(1)
C2 C 0.2926(3) -0.0388(1) 0.3168(1)
C3 C 0.1953(3) 0.0453(1) 0.1832(1)
C4 C 0.1304(2) -0.0999(1) 0.4085(1)
C5 C 0.0574(3) -0.1824(1) 0.4019(1)
C6 C 0.0690(3) -0.2308(1) 0.4726(1)
C7 C 0.1499(3) -0.1998(1) 0.5486(1)
C8 C 0.2125(3) -0.1160(1) 0.5536(1)
C9 C 0.2039(3) -0.0642(1) 0.4846(1)
C10 C -0.0314(3) -0.2173(1) 0.3197(1)
C11 C 0.1709(3) -0.2560(2) 0.6236(1)
C12 C 0.2611(3) 0.0282(1) 0.4927(1)
C13 C -0.0858(2) 0.0837(1) 0.1063(1)
C14 C -0.0742(3) 0.1718(1) 0.0950(1)
C15 C -0.1713(3) 0.2062(1) 0.0227(1)
C16 C -0.2798(3) 0.1569(1) -0.0363(1)
C17 C -0.2927(3) 0.0699(1) -0.0213(1)
C18 C -0.1956(3) 0.0321(1) 0.0492(1)
C19 C 0.0335(3) 0.2282(1) 0.1598(1)
C20 C -0.3777(3) 0.1950(1) -0.1154(1)
C21 C -0.2055(3) -0.0625(1) 0.0614(1)
H1 H 0.3945(3) -0.0649(1) 0.3507(1)
H2 H 0.2339(3) 0.0748(1) 0.1444(1)
H3 H 0.0112(3) -0.2863(1) 0.4701(1)
H4 H 0.2670(3) -0.0971(1) 0.5942(1)
H5 H 0.0462(3) -0.2149(1) 0.2820(1)
H6 H -0.1353(3) -0.1826(1) 0.2955(1)
H7 H -0.0601(3) -0.2679(1) 0.3247(1)
H8 H 0.2764(3) -0.2946(2) 0.6279(1)
H9 H 0.0649(3) -0.2924(2) 0.6257(1)
H10 H 0.2007(3) -0.2235(2) 0.6720(1)
H11 H 0.3702(3) 0.0415(1) 0.4714(1)
H12 H 0.2844(3) 0.0457(1) 0.5441(1)
H13 H 0.1678(3) 0.0694(1) 0.4670(1)
H14 H -0.1727(3) 0.2651(1) 0.0152(1)
H15 H -0.3639(3) 0.0407(1) -0.0561(1)
H16 H 0.1636(3) 0.2185(1) 0.1693(1)
H17 H 0.0111(3) 0.2831(1) 0.1474(1)
H18 H -0.0026(3) 0.2197(1) 0.2131(1)
H19 H -0.3016(3) 0.2005(1) -0.1498(1)
H20 H -0.4140(3) 0.2477(1) -0.1105(1)
H21 H -0.4734(3) 0.1630(1) -0.1387(1)
H22 H -0.0910(3) -0.0923(1) 0.0580(1)
H23 H -0.2999(3) -0.0869(1) 0.0202(1)
H24 H -0.2317(3) -0.0801(1) 0.1111(1)
O1_2 O -0.3596(2) -0.0252(1) 0.28683(9)
Cu1_2 Cu 0.89759(3) -0.00847(2) 0.26568(1)
loop_
_geom_bond_atom_site_label_1
_geom_bond_atom_site_label_2
_geom_bond_site_symmetry_1
_geom_bond_site_symmetry_2
Cu1 N1 1_555 1_555
O1 N3 1_555 1_555
O2 N3 1_555 1_555
N1 C2 1_555 1_555
N2 Cu1 1_555 1_555
N3 C1 1_555 1_555
C1 C2 1_555 1_555
C2 H1 1_555 1_555
C3 N2 1_555 1_555
C4 N1 1_555 1_555
C5 C4 1_555 1_555
C6 C5 1_555 1_555
C7 C6 1_555 1_555
C8 C7 1_555 1_555
C9 C4 1_555 1_555
C10 C5 1_555 1_555
C11 C7 1_555 1_555
C12 C9 1_555 1_555
C13 N2 1_555 1_555
C14 C13 1_555 1_555
C15 C14 1_555 1_555
C16 C15 1_555 1_555
C17 C16 1_555 1_555
C18 C13 1_555 1_555
C19 C14 1_555 1_555
C20 C16 1_555 1_555
C21 C18 1_555 1_555
H2 C3 1_555 1_555
H3 C6 1_555 1_555
H4 C8 1_555 1_555
H5 C10 1_555 1_555
H6 C10 1_555 1_555
H7 C10 1_555 1_555
H8 C11 1_555 1_555
H9 C11 1_555 1_555
H10 C11 1_555 1_555
H11 C12 1_555 1_555
H12 C12 1_555 1_555
H13 C12 1_555 1_555
H14 C15 1_555 1_555
H15 C17 1_555 1_555
H16 C19 1_555 1_555
H17 C19 1_555 1_555
H18 C19 1_555 1_555
H19 C20 1_555 1_555
H20 C20 1_555 1_555
H21 C20 1_555 1_555
H22 C21 1_555 1_555
H23 C21 1_555 1_555
H24 C21 1_555 1_555
O1_2 Cu1 1_555 1_555
Cu1_2 O1 1_555 1_555
C1 C3 1_555 1_555
C8 C9 1_555 1_555
C17 C18 1_555 1_555

#END
