
#######################################################################
#
#                 Cambridge Crystallographic Data Centre
#                                CCDC 
#
#######################################################################
#
# If this CIF has been generated from an entry in the Cambridge 
# Structural Database, then it will include bibliographic, chemical, 
# crystal, experimental, refinement or atomic coordinate data resulting 
# from the CCDC's data processing and validation procedures.
#
#######################################################################

data_IDIGEJ
_symmetry_cell_setting           monoclinic
_symmetry_space_group_name_H-M   'P 21/c'
_symmetry_Int_Tables_number      14
_space_group_name_Hall           '-P 2ybc'
loop_
_symmetry_equiv_pos_site_id
_symmetry_equiv_pos_as_xyz
1 x,y,z
2 -x,1/2+y,1/2-z
3 -x,-y,-z
4 x,1/2-y,1/2+z
_cell_length_a                   9.2363(3)
_cell_length_b                   13.0528(3)
_cell_length_c                   8.9805(3)
_cell_angle_alpha                90
_cell_angle_beta                 106.984(4)
_cell_angle_gamma                90
_cell_volume                     1035.47
loop_
_atom_site_label
_atom_site_type_symbol
_atom_site_fract_x
_atom_site_fract_y
_atom_site_fract_z
C1 C 0.6323(4) 0.1058(2) 0.5744(4)
C2 C 0.4871(4) 0.1430(3) 0.5003(5)
H1 H 0.4574 0.1612 0.3957
C3 C 0.3914(5) 0.1509(3) 0.5903(7)
H2 H 0.2932 0.1742 0.5449
C4 C 0.4362(5) 0.1252(3) 0.7493(6)
H3 H 0.3672 0.1326 0.8059
C5 C 0.5791(4) 0.0895(3) 0.8234(4)
H4 H 0.6091 0.0733 0.9288
C6 C 0.6767(3) 0.0788(2) 0.7313(4)
C7 C 0.7807(4) 0.0954(3) 0.3715(4)
H5 H 0.6870 0.1150 0.2948
H6 H 0.8124 0.0300 0.3405
C8 C 0.8991(4) 0.1741(2) 0.3753(4)
H7 H 0.9827 0.1648 0.4691
H8 H 0.8569 0.2416 0.3796
C9 C 0.9589(4) 0.1684(2) 0.2347(3)
Cd1 Cd 1.0000 0.0000 1.0000
N1 N 0.7542(3) 0.0847(2) 0.5254(3)
N2 N 0.8677(3) 0.0469(2) 0.6415(3)
N3 N 0.8224(3) 0.0432(2) 0.7670(3)
O1 O 0.8883(3) 0.11017(17) 0.1254(2)
O2 O 1.0750(3) 0.21996(17) 0.2373(2)
O3 O 1.1580(2) 0.13734(16) 0.9840(3)
H9 H 1.1344 0.1683 0.8971
H10 H 1.2248 0.1717 1.0502
C1B C 1.3677(4) -0.1058(2) 0.4256(4)
C2B C 1.5129(4) -0.1430(3) 0.4997(5)
H1B H 1.5426 -0.1612 0.6043
C3B C 1.6086(5) -0.1509(3) 0.4097(7)
H2B H 1.7068 -0.1742 0.4551
C4B C 1.5638(5) -0.1252(3) 0.2507(6)
H3B H 1.6328 -0.1326 0.1941
C5B C 1.4209(4) -0.0895(3) 0.1766(4)
H4B H 1.3909 -0.0733 0.0712
C6B C 1.3233(3) -0.0788(2) 0.2687(4)
C7B C 1.2193(4) -0.0954(3) 0.6285(4)
H5B H 1.3130 -0.1150 0.7052
H6B H 1.1876 -0.0300 0.6595
C8B C 1.1009(4) -0.1741(2) 0.6247(4)
H7B H 1.0173 -0.1648 0.5309
H8B H 1.1431 -0.2416 0.6204
C9B C 1.0411(4) -0.1684(2) 0.7653(3)
N1B N 1.2458(3) -0.0847(2) 0.4746(3)
N2B N 1.1323(3) -0.0469(2) 0.3585(3)
N3B N 1.1776(3) -0.0432(2) 0.2330(3)
O1B O 1.1117(3) -0.11017(17) 0.8746(2)
O2B O 0.9250(3) -0.21996(17) 0.7627(2)
O3B O 0.8420(2) -0.13734(16) 1.0160(3)
H9B H 0.8656 -0.1683 1.1029
H10B H 0.7752 -0.1717 0.9498
Cd1_2 Cd 1.0000 0.0000 0.0000
N3B_2 N 1.1776(3) -0.0432(2) 1.2330(3)
O1_2 O 0.8883(3) 0.11017(17) 1.1254(2)
loop_
_geom_bond_atom_site_label_1
_geom_bond_atom_site_label_2
_geom_bond_site_symmetry_1
_geom_bond_site_symmetry_2
C1 C2 1_555 1_555
C2 H1 1_555 1_555
C3 C2 1_555 1_555
H2 C3 1_555 1_555
C4 C3 1_555 1_555
H3 C4 1_555 1_555
C5 C4 1_555 1_555
H4 C5 1_555 1_555
C6 C1 1_555 1_555
C7 H5 1_555 1_555
H6 C7 1_555 1_555
C8 C7 1_555 1_555
H7 C8 1_555 1_555
H8 C8 1_555 1_555
C9 C8 1_555 1_555
Cd1 N3 1_555 1_555
N1 C1 1_555 1_555
N2 N1 1_555 1_555
N3 C6 1_555 1_555
O1 C9 1_555 1_555
O2 C9 1_555 1_555
O3 Cd1 1_555 1_555
H9 O3 1_555 1_555
H10 O3 1_555 1_555
C1B C2B 1_555 1_555
C2B H1B 1_555 1_555
C3B C2B 1_555 1_555
H2B C3B 1_555 1_555
C4B C3B 1_555 1_555
H3B C4B 1_555 1_555
C5B C4B 1_555 1_555
H4B C5B 1_555 1_555
C6B C1B 1_555 1_555
C7B H5B 1_555 1_555
H6B C7B 1_555 1_555
C8B C7B 1_555 1_555
H7B C8B 1_555 1_555
H8B C8B 1_555 1_555
C9B C8B 1_555 1_555
N1B C1B 1_555 1_555
N2B N1B 1_555 1_555
N3B C6B 1_555 1_555
O1B Cd1 1_555 1_555
O2B C9B 1_555 1_555
O3B Cd1 1_555 1_555
H9B O3B 1_555 1_555
H10B O3B 1_555 1_555
Cd1_2 O1 1_555 1_555
N3B_2 Cd1 1_555 1_555
O1_2 Cd1 1_555 1_555
C5 C6 1_555 1_555
C7 N1 1_555 1_555
N2 N3 1_555 1_555
C5B C6B 1_555 1_555
C7B N1B 1_555 1_555
C9B O1B 1_555 1_555
N2B N3B 1_555 1_555
N3B Cd1_2 1_555 1_555

#END
