
#######################################################################
#
#                 Cambridge Crystallographic Data Centre
#                                CCDC 
#
#######################################################################
#
# If this CIF has been generated from an entry in the Cambridge 
# Structural Database, then it will include bibliographic, chemical, 
# crystal, experimental, refinement or atomic coordinate data resulting 
# from the CCDC's data processing and validation procedures.
#
#######################################################################

data_IDIGOT
_symmetry_cell_setting           monoclinic
_symmetry_space_group_name_H-M   'P 21/c'
_symmetry_Int_Tables_number      14
_space_group_name_Hall           '-P 2ybc'
loop_
_symmetry_equiv_pos_site_id
_symmetry_equiv_pos_as_xyz
1 x,y,z
2 -x,1/2+y,1/2-z
3 -x,-y,-z
4 x,1/2-y,1/2+z
_cell_length_a                   9.1713(18)
_cell_length_b                   12.712(3)
_cell_length_c                   8.7151(17)
_cell_angle_alpha                90
_cell_angle_beta                 107.77(3)
_cell_angle_gamma                90
_cell_volume                     967.578
loop_
_atom_site_label
_atom_site_type_symbol
_atom_site_fract_x
_atom_site_fract_y
_atom_site_fract_z
C1 C 0.8631(3) 0.1062(2) 0.4210(3)
C2 C 1.0114(3) 0.1434(2) 0.4957(4)
H1 H 1.0443 0.1623 0.6040
C3 C 1.1050(3) 0.1505(2) 0.4007(4)
H2 H 1.2044 0.1751 0.4461
C4 C 1.0570(3) 0.1221(2) 0.2375(4)
H3 H 1.1252 0.1287 0.1780
C5 C 0.9128(3) 0.0850(2) 0.1633(3)
H4 H 0.8813 0.0657 0.0552
C6 C 0.8147(3) 0.0775(2) 0.2591(3)
C7 C 0.7194(3) 0.0991(3) 0.6325(3)
H5 H 0.8140 0.1238 0.7087
H6 H 0.6949 0.0313 0.6694
C8 C 0.5932(3) 0.1756(2) 0.6264(3)
H7 H 0.6319 0.2466 0.6254
H8 H 0.5111 0.1652 0.5266
C9 C 0.5287(3) 0.16512(19) 0.7663(3)
Co1 Co 0.5000 0.0000 0.0000
N1 N 0.7404(2) 0.08727(18) 0.4725(2)
N2 N 0.6232(2) 0.04914(18) 0.3527(2)
N3 N 0.6661(2) 0.04287(17) 0.2229(2)
O1 O 0.59638(19) 0.10268(14) 0.8774(2)
O2 O 0.4125(2) 0.21866(15) 0.7619(2)
O3 O 0.3448(2) 0.12235(14) 0.0184(2)
H9 H 0.3478 0.1554 -0.0610
H10 H 0.3701 0.1625 0.0960
C1B C 0.1369(3) -0.1062(2) -0.4210(3)
C2B C -0.0114(3) -0.1434(2) -0.4957(4)
H1B H -0.0443 -0.1623 -0.6040
C3B C -0.1050(3) -0.1505(2) -0.4007(4)
H2B H -0.2044 -0.1751 -0.4461
C4B C -0.0570(3) -0.1221(2) -0.2375(4)
H3B H -0.1252 -0.1287 -0.1780
C5B C 0.0872(3) -0.0850(2) -0.1633(3)
H4B H 0.1187 -0.0657 -0.0552
C6B C 0.1853(3) -0.0775(2) -0.2591(3)
C7B C 0.2806(3) -0.0991(3) -0.6325(3)
H5B H 0.1860 -0.1238 -0.7087
H6B H 0.3051 -0.0313 -0.6694
C8B C 0.4068(3) -0.1756(2) -0.6264(3)
H7B H 0.3681 -0.2466 -0.6254
H8B H 0.4889 -0.1652 -0.5266
C9B C 0.4713(3) -0.16512(19) -0.7663(3)
N1B N 0.2596(2) -0.08727(18) -0.4725(2)
N2B N 0.3768(2) -0.04914(18) -0.3527(2)
N3B N 0.3339(2) -0.04287(17) -0.2229(2)
O1B O 0.40362(19) -0.10268(14) -0.8774(2)
O2B O 0.5875(2) -0.21866(15) -0.7619(2)
O3B O 0.6552(2) -0.12235(14) -0.0184(2)
H9B H 0.6522 -0.1554 0.0610
H10B H 0.6299 -0.1625 -0.0960
Co1_2 Co 0.5000 0.0000 -1.0000
Co1_3 Co 0.5000 0.0000 1.0000
O1_2 O 0.59638(19) 0.10268(14) -0.1226(2)
O1B_2 O 0.40362(19) -0.10268(14) 0.1226(2)
loop_
_geom_bond_atom_site_label_1
_geom_bond_atom_site_label_2
_geom_bond_site_symmetry_1
_geom_bond_site_symmetry_2
C1 C2 1_555 1_555
C2 H1 1_555 1_555
C3 C2 1_555 1_555
H2 C3 1_555 1_555
C4 C3 1_555 1_555
H3 C4 1_555 1_555
C5 C4 1_555 1_555
H4 C5 1_555 1_555
C6 C1 1_555 1_555
C7 H5 1_555 1_555
H6 C7 1_555 1_555
C8 C7 1_555 1_555
H7 C8 1_555 1_555
H8 C8 1_555 1_555
C9 C8 1_555 1_555
Co1 N3 1_555 1_555
N1 C1 1_555 1_555
N2 N1 1_555 1_555
N3 C6 1_555 1_555
O1 C9 1_555 1_555
O2 C9 1_555 1_555
O3 Co1 1_555 1_555
H9 O3 1_555 1_555
H10 O3 1_555 1_555
C1B C2B 1_555 1_555
C2B H1B 1_555 1_555
C3B C2B 1_555 1_555
H2B C3B 1_555 1_555
C4B C3B 1_555 1_555
H3B C4B 1_555 1_555
C5B C4B 1_555 1_555
H4B C5B 1_555 1_555
C6B C1B 1_555 1_555
C7B H5B 1_555 1_555
H6B C7B 1_555 1_555
C8B C7B 1_555 1_555
H7B C8B 1_555 1_555
H8B C8B 1_555 1_555
C9B C8B 1_555 1_555
N1B C1B 1_555 1_555
N2B N1B 1_555 1_555
N3B Co1 1_555 1_555
O1B C9B 1_555 1_555
O2B C9B 1_555 1_555
O3B Co1 1_555 1_555
H9B O3B 1_555 1_555
H10B O3B 1_555 1_555
Co1_2 O1B 1_555 1_555
Co1_3 O1 1_555 1_555
O1_2 Co1 1_555 1_555
O1B_2 Co1 1_555 1_555
C5 C6 1_555 1_555
C7 N1 1_555 1_555
N2 N3 1_555 1_555
C5B C6B 1_555 1_555
C6B N3B 1_555 1_555
C7B N1B 1_555 1_555
N2B N3B 1_555 1_555

#END
