
#######################################################################
#
#                 Cambridge Crystallographic Data Centre
#                                CCDC 
#
#######################################################################
#
# If this CIF has been generated from an entry in the Cambridge 
# Structural Database, then it will include bibliographic, chemical, 
# crystal, experimental, refinement or atomic coordinate data resulting 
# from the CCDC's data processing and validation procedures.
#
#######################################################################

data_IDIMUF
_symmetry_cell_setting           monoclinic
_symmetry_space_group_name_H-M   'P 21/c'
_symmetry_Int_Tables_number      14
_space_group_name_Hall           '-P 2ybc'
loop_
_symmetry_equiv_pos_site_id
_symmetry_equiv_pos_as_xyz
1 x,y,z
2 -x,1/2+y,1/2-z
3 -x,-y,-z
4 x,1/2-y,1/2+z
_cell_length_a                   9.940(7)
_cell_length_b                   16.639(9)
_cell_length_c                   7.876(4)
_cell_angle_alpha                90
_cell_angle_beta                 96.28(5)
_cell_angle_gamma                90
_cell_volume                     1294.81
loop_
_atom_site_label
_atom_site_type_symbol
_atom_site_fract_x
_atom_site_fract_y
_atom_site_fract_z
Cu1 Cu 1.10928(3) 0.455426(15) 0.48878(4)
S1 S 0.96122(7) 0.21713(3) 0.44052(8)
O1 O 0.97500(18) 0.37850(10) 0.3866(2)
O2 O 1.2932(2) 0.39085(12) 0.4498(3)
H1 H 1.2787 0.3469 0.4037
H2 H 1.3419 0.4141 0.3845
O3 O 0.7893(2) 0.45444(10) 0.3972(3)
O4 O 1.0779(2) 0.08898(11) 0.2128(2)
O5 O 0.89346(19) 0.01319(10) 0.2319(2)
N1 N 0.7301(2) 0.17934(12) 0.2526(3)
C1 C 0.5606(3) 0.27286(16) 0.1366(4)
H3 H 0.4768 0.2817 0.0745
C2 C 0.7636(3) 0.32137(14) 0.2965(3)
C3 C 0.6384(3) 0.33602(16) 0.2060(4)
H4 H 0.6068 0.3885 0.1919
C4 C 0.6114(3) 0.19624(16) 0.1627(4)
H5 H 0.5600 0.1536 0.1147
C5 C 0.8059(3) 0.24081(14) 0.3179(3)
C6 C 0.8489(3) 0.38985(13) 0.3664(3)
C7 C 0.9514(3) 0.10887(14) 0.4500(3)
H6 H 1.0178 0.0897 0.5403
H7 H 0.8626 0.0938 0.4794
C8 C 0.9757(3) 0.06765(14) 0.2838(3)
Cu1A Cu 0.89072(3) -0.044574(15) 0.01122(4)
Cu1B Cu 0.89072(3) 0.544574(15) 0.51122(4)
Cu1C Cu 1.10928(3) 0.044574(15) -0.01122(4)
O3B O 1.2107(2) 0.54556(10) 0.6028(3)
O4C O 1.0779(2) 0.41102(11) 0.7128(2)
O5A O 1.10654(19) 0.51319(10) 0.2681(2)
O6 O 0.6123(3) -0.00071(16) 0.2997(4)
H8 H 0.6385 -0.0244 0.3907
H9 H 0.6774 0.0299 0.2886
O7 O 0.3765(3) 0.07734(18) 0.3764(4)
H10 H 0.3048 0.0589 0.3329
H11 H 0.4364 0.0491 0.3424
O8 O 0.2538(3) 0.24845(18) 0.2749(5)
H12 H 0.2766 0.2280 0.1881
H13 H 0.1699 0.2362 0.2691
loop_
_geom_bond_atom_site_label_1
_geom_bond_atom_site_label_2
_geom_bond_site_symmetry_1
_geom_bond_site_symmetry_2
Cu1 O1 1_555 1_555
S1 C5 1_555 1_555
O1 C6 1_555 1_555
O2 Cu1 1_555 1_555
H1 O2 1_555 1_555
H2 O2 1_555 1_555
O3 C6 1_555 1_555
O4 C8 1_555 1_555
O5 C8 1_555 1_555
N1 C4 1_555 1_555
C1 H3 1_555 1_555
C2 C3 1_555 1_555
C3 C1 1_555 1_555
H4 C3 1_555 1_555
C4 C1 1_555 1_555
H5 C4 1_555 1_555
C5 N1 1_555 1_555
C6 C2 1_555 1_555
C7 S1 1_555 1_555
H6 C7 1_555 1_555
H7 C7 1_555 1_555
C8 C7 1_555 1_555
O6 H8 1_555 1_555
H9 O6 1_555 1_555
O7 H10 1_555 1_555
H11 O7 1_555 1_555
O8 H12 1_555 1_555
H13 O8 1_555 1_555
Cu1A O5 1_555 1_555
Cu1B Cu1 1_555 1_555
Cu1C O4 1_555 1_555
O3B Cu1 1_555 1_555
O4C Cu1 1_555 1_555
O5A Cu1 1_555 1_555
O3 Cu1B 1_555 1_555
C2 C5 1_555 1_555
Cu1A Cu1C 1_555 1_555

#END
