
#######################################################################
#
#                 Cambridge Crystallographic Data Centre
#                                CCDC 
#
#######################################################################
#
# If this CIF has been generated from an entry in the Cambridge 
# Structural Database, then it will include bibliographic, chemical, 
# crystal, experimental, refinement or atomic coordinate data resulting 
# from the CCDC's data processing and validation procedures.
#
#######################################################################

data_IDINOZ
_symmetry_cell_setting           triclinic
_symmetry_space_group_name_H-M   'P -1'
_symmetry_Int_Tables_number      2
_space_group_name_Hall           '-P 1'
loop_
_symmetry_equiv_pos_site_id
_symmetry_equiv_pos_as_xyz
1 x,y,z
2 -x,-y,-z
_cell_length_a                   10.2402(11)
_cell_length_b                   11.0268(10)
_cell_length_c                   13.0807(12)
_cell_angle_alpha                75.9540(10)
_cell_angle_beta                 70.6970(10)
_cell_angle_gamma                72.9590(10)
_cell_volume                     1315.27
loop_
_atom_site_label
_atom_site_type_symbol
_atom_site_fract_x
_atom_site_fract_y
_atom_site_fract_z
Cd1 Cd 0.093033(16) 0.629784(14) 0.134630(13)
O1 O 0.17167(18) 0.79575(17) 0.16592(16)
O2 O 0.3282(2) 0.61369(18) 0.1481(2)
O3 O 0.84496(19) 0.60218(16) 0.12073(16)
O4 O 0.86705(17) 0.75532(16) 0.19035(15)
O5 O 0.5505(3) 1.1701(2) 0.1426(3)
H1 H 0.5318 1.2489 0.1307
O6 O 0.3354(2) 1.19932(18) 0.12479(19)
O7 O 0.2225(2) 0.45436(17) 0.04263(16)
H2 H 0.2569 0.3841 0.0789
H3 H 0.1928 0.4476 -0.0088
N1 N 0.0951(2) 0.74391(19) -0.04242(17)
N2 N -0.1158(2) 1.0121(2) -0.35048(17)
N3 N -0.1254(2) 1.1171(2) -0.43266(18)
N4 N 0.0623(2) 1.10030(19) -0.38148(16)
N5 N 0.1912(3) 1.1245(2) -0.38433(19)
H4 H 0.2565 1.0501 -0.3940
H5 H 0.1745 1.1555 -0.3224
N6 N 0.0563(2) 1.4862(2) -0.70224(18)
C1 C 0.0200(3) 0.7890(2) -0.2051(2)
H6 H -0.0115 0.7600 -0.2518
C2 C 0.0515(3) 0.7081(2) -0.1136(2)
H7 H 0.0417 0.6240 -0.1008
C3 C 0.1098(3) 0.8649(2) -0.0639(2)
H8 H 0.1407 0.8919 -0.0157
C4 C 0.0816(3) 0.9511(2) -0.1534(2)
H9 H 0.0932 1.0344 -0.1647
C5 C 0.0360(3) 0.9137(2) -0.22661(19)
C6 C -0.0042(3) 1.0046(2) -0.31990(19)
C7 C -0.0174(3) 1.1676(2) -0.4504(2)
C8 C 0.0119(3) 1.2796(2) -0.5338(2)
C9 C 0.1473(3) 1.2860(3) -0.6001(2)
H10 H 0.2256 1.2209 -0.5895
C10 C 0.1643(3) 1.3902(3) -0.6820(2)
H11 H 0.2559 1.3941 -0.7255
C11 C -0.0732(3) 1.4809(3) -0.6361(3)
H12 H -0.1496 1.5480 -0.6474
C12 C -0.0995(3) 1.3807(3) -0.5517(2)
H13 H -0.1917 1.3812 -0.5071
C13 C 0.4076(3) 0.7938(2) 0.1558(2)
C14 C 0.5430(3) 0.7219(2) 0.1587(2)
H14 H 0.5649 0.6333 0.1617
C15 C 0.6460(3) 0.7816(2) 0.1570(2)
C16 C 0.6126(3) 0.9134(2) 0.1523(2)
H15 H 0.6805 0.9534 0.1530
C17 C 0.4790(3) 0.9863(2) 0.1464(2)
C18 C 0.3765(3) 0.9267(2) 0.1479(2)
H16 H 0.2869 0.9755 0.1436
C19 C 0.2949(2) 0.7299(2) 0.1580(2)
C20 C 0.7953(2) 0.7065(2) 0.15630(19)
C21 C 0.4456(3) 1.1297(2) 0.1370(2)
Cd1_2 Cd 1.093033(16) 0.629784(14) 0.134630(13)
Cd1_3 Cd 0.093033(16) 1.629784(14) -0.865370(13)
O3_2 O -0.15504(19) 0.60218(16) 0.12073(16)
O4_2 O -0.13295(17) 0.75532(16) 0.19035(15)
N6_2 N 0.0563(2) 0.4862(2) 0.29776(18)
O8 O 0.5461(2) 0.4089(2) 0.1153(2)
H17 H 0.4726 0.4703 0.1262
H18 H 0.6137 0.4218 0.0581
O9 O 0.6724(12) 0.1281(11) 0.4537(12)
C22 C 0.5847(17) 0.2472(13) 0.4061(11)
C23 C 0.4881(13) 0.3209(10) 0.4956(12)
O10? O 0.681(2) 0.1128(19) 0.4712(19)
O11? O 0.5430(14) 0.1797(15) 0.5085(12)
loop_
_geom_bond_atom_site_label_1
_geom_bond_atom_site_label_2
_geom_bond_site_symmetry_1
_geom_bond_site_symmetry_2
Cd1 O1 1_555 1_555
O1 C19 1_555 1_555
O2 Cd1 1_555 1_555
O3 C20 1_555 1_555
O4 C20 1_555 1_555
O5 H1 1_555 1_555
O6 C21 1_555 1_555
O7 Cd1 1_555 1_555
H2 O7 1_555 1_555
H3 O7 1_555 1_555
N1 Cd1 1_555 1_555
N2 N3 1_555 1_555
N3 C7 1_555 1_555
N4 N5 1_555 1_555
N5 H4 1_555 1_555
H5 N5 1_555 1_555
N6 C10 1_555 1_555
C1 H6 1_555 1_555
C2 N1 1_555 1_555
H7 C2 1_555 1_555
C3 N1 1_555 1_555
H8 C3 1_555 1_555
C4 C3 1_555 1_555
H9 C4 1_555 1_555
C5 C1 1_555 1_555
C6 N2 1_555 1_555
C7 N4 1_555 1_555
C8 C7 1_555 1_555
C9 C8 1_555 1_555
H10 C9 1_555 1_555
C10 C9 1_555 1_555
H11 C10 1_555 1_555
C11 N6 1_555 1_555
H12 C11 1_555 1_555
C12 C8 1_555 1_555
H13 C12 1_555 1_555
C13 C14 1_555 1_555
C14 H14 1_555 1_555
C15 C14 1_555 1_555
C16 C15 1_555 1_555
H15 C16 1_555 1_555
C17 C16 1_555 1_555
C18 C13 1_555 1_555
H16 C18 1_555 1_555
C19 O2 1_555 1_555
C20 C15 1_555 1_555
C21 O5 1_555 1_555
O8 H17 1_555 1_555
H18 O8 1_555 1_555
O9 C22 1_555 1_555
C22 C23 1_555 1_555
Cd1_2 O3 1_555 1_555
Cd1_3 N6 1_555 1_555
O3_2 Cd1 1_555 1_555
O4_2 Cd1 1_555 1_555
N6_2 Cd1 1_555 1_555
O4 Cd1_2 1_555 1_555
N4 C6 1_555 1_555
C1 C2 1_555 1_555
C4 C5 1_555 1_555
C5 C6 1_555 1_555
C11 C12 1_555 1_555
C13 C19 1_555 1_555
C17 C18 1_555 1_555
C17 C21 1_555 1_555

#END
