
#######################################################################
#
#                 Cambridge Crystallographic Data Centre
#                                CCDC 
#
#######################################################################
#
# If this CIF has been generated from an entry in the Cambridge 
# Structural Database, then it will include bibliographic, chemical, 
# crystal, experimental, refinement or atomic coordinate data resulting 
# from the CCDC's data processing and validation procedures.
#
#######################################################################

data_IDIQUJ
_symmetry_cell_setting           orthorhombic
_symmetry_space_group_name_H-M   'P b c a'
_symmetry_Int_Tables_number      61
_space_group_name_Hall           '-P 2ac 2ab'
loop_
_symmetry_equiv_pos_site_id
_symmetry_equiv_pos_as_xyz
1 x,y,z
2 1/2-x,-y,1/2+z
3 1/2+x,1/2-y,-z
4 -x,1/2+y,1/2-z
5 -x,-y,-z
6 1/2+x,y,1/2-z
7 1/2-x,1/2+y,z
8 x,1/2-y,1/2+z
_cell_length_a                   6.6860(2)
_cell_length_b                   23.3658(7)
_cell_length_c                   24.3281(8)
_cell_angle_alpha                90
_cell_angle_beta                 90
_cell_angle_gamma                90
_cell_volume                     3800.63
loop_
_atom_site_label
_atom_site_type_symbol
_atom_site_fract_x
_atom_site_fract_y
_atom_site_fract_z
Cd1 Cd 0.99993(2) 0.126200(7) 0.508711(7)
S1 S 0.68873(8) -0.06757(2) 0.53717(3)
C1 C 0.7845(3) -0.00256(9) 0.53832(8)
N1 N 0.8515(3) 0.04293(8) 0.54015(8)
S2 S 1.17331(8) 0.32408(2) 0.44237(3)
N2 N 1.1259(3) 0.21155(8) 0.48030(8)
C2 C 1.1461(3) 0.25807(9) 0.46565(9)
N3 N 1.1959(2) 0.13518(7) 0.58919(7)
H1 H 1.3247 0.1440 0.5789
H2 H 1.1478 0.1657 0.6092
C3 C 1.2028(3) 0.08631(9) 0.62450(9)
C4 C 1.3485(3) 0.04507(10) 0.61900(10)
H3 H 1.4520 0.0498 0.5926
C5 C 1.3446(4) -0.00363(11) 0.65207(11)
H4 H 1.4466 -0.0317 0.6488
C6 C 1.1926(5) -0.01091(11) 0.68948(11)
H5 H 1.1889 -0.0445 0.7115
C7 C 1.0444(4) 0.03030(12) 0.69545(9)
H6 H 0.9394 0.0249 0.7213
C8 C 1.0510(3) 0.07931(10) 0.66349(9)
O1 O 0.9195(2) 0.12405(7) 0.66597(7)
C9 C 0.7522(4) 0.11868(13) 0.70215(11)
H7 H 0.6797 0.0833 0.6938
H8 H 0.6628 0.1515 0.6972
H9 H 0.7994 0.1176 0.7403
N4 N 0.8084(3) 0.10925(8) 0.42829(7)
H10 H 0.8731 0.0813 0.4085
H11 H 0.6879 0.0941 0.4393
C10 C 0.7653(3) 0.15518(10) 0.39121(9)
C11 C 0.5968(3) 0.18854(10) 0.39643(9)
H12 H 0.5026 0.1805 0.4246
C12 C 0.5637(4) 0.23401(11) 0.36050(10)
H13 H 0.4466 0.2568 0.3640
C13 C 0.7010(4) 0.24592(11) 0.31981(10)
H14 H 0.6786 0.2771 0.2955
C14 C 0.8727(4) 0.21251(11) 0.31418(9)
H15 H 0.9674 0.2209 0.2862
C15 C 0.9044(3) 0.16704(10) 0.34953(9)
O2 O 1.0642(2) 0.13068(7) 0.34823(7)
C16 C 1.1988(4) 0.13507(13) 0.30289(10)
H16 H 1.1241 0.1312 0.2684
H17 H 1.2992 0.1046 0.3053
H18 H 1.2655 0.1724 0.3038
Cd1B Cd 1.49993(2) 0.373800(7) 0.491289(7)
Cd1D Cd 1.00007(2) -0.126200(7) 0.491289(7)
S1D S 1.31127(8) 0.06757(2) 0.46283(3)
S2B S 0.67331(8) 0.17592(2) 0.55763(3)
loop_
_geom_bond_atom_site_label_1
_geom_bond_atom_site_label_2
_geom_bond_site_symmetry_1
_geom_bond_site_symmetry_2
Cd1 N1 1_555 1_555
S1 C1 1_555 1_555
C1 N1 1_555 1_555
S2 C2 1_555 1_555
N2 Cd1 1_555 1_555
C2 N2 1_555 1_555
N3 Cd1 1_555 1_555
H1 N3 1_555 1_555
H2 N3 1_555 1_555
C3 N3 1_555 1_555
C4 C3 1_555 1_555
H3 C4 1_555 1_555
C5 C4 1_555 1_555
H4 C5 1_555 1_555
C6 C5 1_555 1_555
H5 C6 1_555 1_555
C7 C6 1_555 1_555
H6 C7 1_555 1_555
C8 C3 1_555 1_555
O1 C8 1_555 1_555
C9 O1 1_555 1_555
H7 C9 1_555 1_555
H8 C9 1_555 1_555
H9 C9 1_555 1_555
N4 Cd1 1_555 1_555
H10 N4 1_555 1_555
H11 N4 1_555 1_555
C10 N4 1_555 1_555
C11 C10 1_555 1_555
H12 C11 1_555 1_555
C12 C11 1_555 1_555
H13 C12 1_555 1_555
C13 C12 1_555 1_555
H14 C13 1_555 1_555
C14 C13 1_555 1_555
H15 C14 1_555 1_555
C15 C10 1_555 1_555
O2 C15 1_555 1_555
C16 O2 1_555 1_555
H16 C16 1_555 1_555
H17 C16 1_555 1_555
H18 C16 1_555 1_555
Cd1B S2 1_555 1_555
Cd1D S1 1_555 1_555
S1D Cd1 1_555 1_555
S2B Cd1 1_555 1_555
C7 C8 1_555 1_555
C14 C15 1_555 1_555

#END
