
#######################################################################
#
#                 Cambridge Crystallographic Data Centre
#                                CCDC 
#
#######################################################################
#
# If this CIF has been generated from an entry in the Cambridge 
# Structural Database, then it will include bibliographic, chemical, 
# crystal, experimental, refinement or atomic coordinate data resulting 
# from the CCDC's data processing and validation procedures.
#
#######################################################################

data_IDIWOH01
_symmetry_cell_setting           orthorhombic
_symmetry_space_group_name_H-M   'P n m a'
_symmetry_Int_Tables_number      62
_space_group_name_Hall           '-P 2ac 2n'
loop_
_symmetry_equiv_pos_site_id
_symmetry_equiv_pos_as_xyz
1 x,y,z
2 1/2-x,-y,1/2+z
3 -x,1/2+y,-z
4 1/2+x,1/2-y,1/2-z
5 -x,-y,-z
6 1/2+x,y,1/2-z
7 x,1/2-y,z
8 1/2-x,1/2+y,1/2+z
_cell_length_a                   6.8249(8)
_cell_length_b                   16.073(2)
_cell_length_c                   13.9951(17)
_cell_angle_alpha                90
_cell_angle_beta                 90
_cell_angle_gamma                90
_cell_volume                     1535.22
loop_
_atom_site_label
_atom_site_type_symbol
_atom_site_fract_x
_atom_site_fract_y
_atom_site_fract_z
V1 V 0.18550(5) 0.2500 -0.23612(3)
O1 O 0.30720(17) 0.33745(8) -0.15438(10)
O2 O 0.4687(2) 0.2500 -0.30951(11)
O3 O 0.63409(18) 0.33770(8) -0.16790(9)
C1 C 0.4749(2) 0.36436(11) -0.13416(12)
C2 C 0.4877(3) 0.43483(12) -0.06478(14)
C3 C 0.6676(3) 0.46729(15) -0.03975(18)
H1 H 0.7811 0.4453 -0.0664
C4 C 0.3197(3) 0.46794(15) -0.02454(18)
H2 H 0.1977 0.4464 -0.0409
V1E V 0.68550(5) 0.2500 -0.26388(3)
V1D V 0.81450(5) 0.7500 0.23612(3)
V1G V 0.31450(5) 0.7500 0.26388(3)
O1D O 0.69280(17) 0.66255(8) 0.15438(10)
O1F O 0.30720(17) 0.16255(8) -0.15438(10)
O2E O -0.0313(2) 0.2500 -0.19049(11)
O3D O 0.36591(18) 0.66230(8) 0.16790(9)
O3E O 0.13409(18) 0.33770(8) -0.33210(9)
O3C O 0.13409(18) 0.16230(8) -0.33210(9)
C1D C 0.5251(2) 0.63564(11) 0.13416(12)
C2D C 0.5123(3) 0.56517(12) 0.06478(14)
C3D C 0.3324(3) 0.53271(15) 0.03975(18)
H1D H 0.2189 0.5547 0.0664
C4D C 0.6803(3) 0.53206(15) 0.02454(18)
H2D H 0.8023 0.5536 0.0409
loop_
_geom_bond_atom_site_label_1
_geom_bond_atom_site_label_2
_geom_bond_site_symmetry_1
_geom_bond_site_symmetry_2
V1 O1 1_555 1_555
O1 C1 1_555 1_555
O2 V1 1_555 1_555
O3 C1 1_555 1_555
C1 C2 1_555 1_555
C2 C3 1_555 1_555
C3 H1 1_555 1_555
C4 C2 1_555 1_555
H2 C4 1_555 1_555
V1E O2 1_555 1_555
V1D O1D 1_555 1_555
V1G O3D 1_555 1_555
O1D C1D 1_555 1_555
O1F V1 1_555 1_555
O2E V1 1_555 1_555
O3D C1D 1_555 1_555
O3E V1 1_555 1_555
O3C V1 1_555 1_555
C1D C2D 1_555 1_555
C2D C3D 1_555 1_555
C3D C4 1_555 1_555
H1D C3D 1_555 1_555
C4D C3 1_555 1_555
H2D C4D 1_555 1_555
O3 V1E 1_555 1_555
C2D C4D 1_555 1_555

#END
