
#######################################################################
#
#                 Cambridge Crystallographic Data Centre
#                                CCDC 
#
#######################################################################
#
# If this CIF has been generated from an entry in the Cambridge 
# Structural Database, then it will include bibliographic, chemical, 
# crystal, experimental, refinement or atomic coordinate data resulting 
# from the CCDC's data processing and validation procedures.
#
#######################################################################

data_IDIYOJ
_symmetry_cell_setting           monoclinic
_symmetry_space_group_name_H-M   'P 21/n'
_symmetry_Int_Tables_number      14
_space_group_name_Hall           '-P 2yn'
loop_
_symmetry_equiv_pos_site_id
_symmetry_equiv_pos_as_xyz
1 x,y,z
2 1/2-x,1/2+y,1/2-z
3 -x,-y,-z
4 1/2+x,1/2-y,1/2+z
_cell_length_a                   17.6767(2)
_cell_length_b                   14.5988(2)
_cell_length_c                   22.7177(3)
_cell_angle_alpha                90
_cell_angle_beta                 103.9790(10)
_cell_angle_gamma                90
_cell_volume                     5688.88
loop_
_atom_site_label
_atom_site_type_symbol
_atom_site_fract_x
_atom_site_fract_y
_atom_site_fract_z
Cs1 Cs -0.095763(14) 0.237545(18) 0.444009(10)
Ni1 Ni -0.23509(3) 0.24856(3) 0.56363(2)
C1 C -0.1572(3) 0.3843(5) 0.7359(2)
H1 H -0.2092 0.4113 0.7307
H2 H -0.1183 0.4333 0.7403
H3 H -0.1454 0.3458 0.7723
C2 C -0.3124(3) -0.0038(3) 0.6317(2)
H4 H -0.3020 0.0221 0.6727
H5 H -0.2819 -0.0601 0.6324
H6 H -0.3680 -0.0179 0.6177
C3 C -0.4708(3) 0.3611(5) 0.5019(3)
H7 H -0.4899 0.3162 0.5269
H8 H -0.4984 0.3531 0.4593
H9 H -0.4799 0.4231 0.5151
Cs2 Cs -0.357930(18) 0.26405(2) 0.683610(14)
Ni2 Ni 0.03247(3) 0.22258(4) 0.31611(2)
C4 C -0.1551(3) 0.3261(3) 0.68051(19)
O1 O -0.21734(17) 0.3257(2) 0.63958(12)
C5 C -0.2896(2) 0.0643(3) 0.58944(17)
O2 O -0.26160(17) 0.1397(2) 0.61193(11)
C6 C -0.3840(3) 0.3469(4) 0.5085(2)
O3 O -0.35218(18) 0.2819(2) 0.54398(14)
C7 C -0.0862(3) 0.2824(3) 0.67924(18)
H10 H -0.0460 0.2828 0.7155
C8 C -0.3001(2) 0.0391(3) 0.52839(17)
H11 H -0.3250 -0.0178 0.5162
C9 C -0.3457(3) 0.4028(4) 0.4766(2)
H12 H -0.3758 0.4491 0.4523
O4 O -0.11912(16) 0.21936(19) 0.58021(11)
C10 C -0.0707(2) 0.2375(3) 0.62879(17)
C11 C -0.2769(2) 0.0905(3) 0.48428(17)
O5 O -0.24712(15) 0.16873(19) 0.48974(11)
C12 C -0.2673(2) 0.3980(3) 0.47631(17)
O6 O -0.21520(16) 0.35189(19) 0.50938(12)
C13 C 0.0125(3) 0.2102(4) 0.63486(19)
H13 H 0.0469 0.2626 0.6507
H14 H 0.0259 0.1594 0.6644
C14 C -0.2850(3) 0.0459(3) 0.42233(17)
H15 H -0.2470 -0.0049 0.4262
H16 H -0.3380 0.0195 0.4087
C15 C -0.2475(3) 0.4580(3) 0.4276(2)
H17 H -0.2838 0.4444 0.3880
H18 H -0.2540 0.5232 0.4373
O7 O 0.02581(16) 0.1820(2) 0.57854(12)
O8 O -0.27253(16) 0.1083(2) 0.37798(11)
O9 O -0.17064(16) 0.4425(2) 0.42360(12)
O10 O 0.06070(15) 0.07545(18) 0.49868(11)
O11 O -0.23120(16) 0.2349(2) 0.31400(12)
O12 O -0.02328(16) 0.4544(2) 0.43655(11)
C16 C 0.0773(2) 0.0151(3) 0.45375(16)
H19 H 0.0423 -0.0387 0.4496
H20 H 0.1316 -0.0072 0.4676
C17 C -0.2152(2) 0.2850(3) 0.26571(18)
H21 H -0.2295 0.3499 0.2693
H22 H -0.2474 0.2610 0.2269
C18 C 0.0592(2) 0.4478(3) 0.44222(18)
H23 H 0.0854 0.4311 0.4845
H24 H 0.0794 0.5083 0.4335
C19 C 0.0672(2) 0.0603(3) 0.39262(16)
O13 O 0.03278(16) 0.13640(19) 0.38559(11)
O14 O -0.08806(16) 0.21640(19) 0.29472(12)
C20 C -0.1293(2) 0.2788(3) 0.26519(17)
O15 O 0.02393(15) 0.32437(19) 0.37388(11)
C21 C 0.0786(2) 0.3765(3) 0.39897(18)
C22 C 0.0943(2) 0.0121(3) 0.34870(16)
H25 H 0.1229 -0.0425 0.3611
C23 C -0.1059(3) 0.3470(3) 0.23066(18)
H26 H -0.1445 0.3894 0.2109
C24 C 0.1551(3) 0.3741(4) 0.3929(2)
H27 H 0.1885 0.4228 0.4107
C25 C 0.0828(2) 0.0379(3) 0.28859(17)
O16 O 0.04837(17) 0.1105(2) 0.26512(11)
C26 C -0.0313(3) 0.3586(3) 0.22252(18)
O17 O 0.02685(17) 0.3092(2) 0.24594(12)
O18 O 0.15074(18) 0.2395(2) 0.33461(14)
C27 C 0.1869(3) 0.3072(4) 0.3633(2)
C28 C 0.1141(3) -0.0245(3) 0.24636(19)
H28 H 0.1022 0.0020 0.2055
H29 H 0.0897 -0.0849 0.2450
H30 H 0.1707 -0.0307 0.2614
C29 C -0.0154(3) 0.4370(4) 0.1835(2)
H31 H -0.0534 0.4861 0.1832
H32 H -0.0201 0.4152 0.1420
H33 H 0.0374 0.4605 0.2000
C30 C 0.2734(3) 0.3134(5) 0.3650(3)
H34 H 0.2882 0.2617 0.3426
H35 H 0.3038 0.3113 0.4072
H36 H 0.2839 0.3710 0.3463
C31 C 0.0977(2) 0.1962(3) 0.56730(17)
C32 C -0.3265(2) 0.1763(3) 0.35955(16)
C33 C -0.1479(2) 0.4872(3) 0.37742(16)
C34 C 0.1505(3) 0.2616(3) 0.5953(2)
H37 H 0.1389 0.2994 0.6260
C35 C -0.3985(3) 0.1801(4) 0.37269(18)
H38 H -0.4127 0.1351 0.3983
C36 C -0.1985(3) 0.5235(3) 0.32668(17)
H39 H -0.2532 0.5200 0.3224
C37 C 0.2204(3) 0.2722(4) 0.5786(2)
H40 H 0.2577 0.3153 0.5993
C38 C -0.4505(3) 0.2495(4) 0.3487(2)
H41 H -0.5002 0.2517 0.3576
C39 C -0.1688(3) 0.5653(3) 0.28204(17)
H42 H -0.2033 0.5896 0.2468
C40 C 0.2361(3) 0.2210(3) 0.5324(2)
H43 H 0.2833 0.2304 0.5202
C41 C -0.4302(3) 0.3150(4) 0.3119(2)
H44 H -0.4657 0.3626 0.2956
C42 C -0.0897(3) 0.5717(3) 0.28881(18)
H45 H -0.0698 0.6018 0.2587
C43 C 0.1833(2) 0.1556(3) 0.5036(2)
H46 H 0.1942 0.1202 0.4715
C44 C -0.3574(3) 0.3115(4) 0.29861(19)
H47 H -0.3437 0.3566 0.2728
C45 C -0.0384(3) 0.5345(3) 0.33946(18)
H48 H 0.0163 0.5379 0.3434
C46 C 0.1152(2) 0.1419(3) 0.52117(16)
C47 C -0.3045(2) 0.2427(3) 0.32265(17)
C48 C -0.0674(2) 0.4923(3) 0.38421(17)
C49 C -0.5837(3) 0.3580(5) 0.6269(3)
H49 H -0.6189 0.4105 0.6165
H50 H -0.5902 0.3175 0.5916
H51 H -0.5960 0.3242 0.6607
O19 O -0.5087(2) 0.3882(3) 0.64336(15)
O20 O -0.4560(2) 0.1576(3) 0.56743(18)
C50 C -0.5154(5) 0.1216(7) 0.5200(4)
H52 H -0.5610 0.1065 0.5356
H53 H -0.4964 0.0662 0.5039
H54 H -0.5300 0.1673 0.4876
Ni2C Ni -0.46753(3) 0.27742(4) 0.81611(2)
O16C O -0.45163(17) 0.3895(2) 0.76512(11)
O17C O -0.47315(17) 0.1908(2) 0.74594(12)
O18C O -0.34926(18) 0.2605(2) 0.83461(14)
Cs2C Cs 0.142070(18) 0.23595(2) 0.183610(14)
C51 C -0.1372(3) -0.0008(3) 0.3267(2)
H55 H -0.1843 -0.0386 0.3190
H56 H -0.1466 0.0567 0.3460
H57 H -0.0941 -0.0338 0.3537
O21 O -0.1178(2) 0.0182(3) 0.27203(16)
loop_
_geom_bond_atom_site_label_1
_geom_bond_atom_site_label_2
_geom_bond_site_symmetry_1
_geom_bond_site_symmetry_2
Cs1 O4 1_555 1_555
Ni1 O1 1_555 1_555
C1 H1 1_555 1_555
H2 C1 1_555 1_555
H3 C1 1_555 1_555
C2 H4 1_555 1_555
H5 C2 1_555 1_555
H6 C2 1_555 1_555
C3 H7 1_555 1_555
H8 C3 1_555 1_555
H9 C3 1_555 1_555
Cs2 O1 1_555 1_555
Ni2 O13 1_555 1_555
C4 C1 1_555 1_555
O1 C4 1_555 1_555
C5 C2 1_555 1_555
O2 Ni1 1_555 1_555
C6 C3 1_555 1_555
O3 Ni1 1_555 1_555
C7 C4 1_555 1_555
H10 C7 1_555 1_555
C8 C5 1_555 1_555
H11 C8 1_555 1_555
C9 C6 1_555 1_555
H12 C9 1_555 1_555
O4 Ni1 1_555 1_555
C10 C7 1_555 1_555
C11 C8 1_555 1_555
O5 Cs1 1_555 1_555
C12 C9 1_555 1_555
O6 Cs1 1_555 1_555
C13 C10 1_555 1_555
H13 C13 1_555 1_555
H14 C13 1_555 1_555
C14 C11 1_555 1_555
H15 C14 1_555 1_555
H16 C14 1_555 1_555
C15 C12 1_555 1_555
H17 C15 1_555 1_555
H18 C15 1_555 1_555
O7 C13 1_555 1_555
O8 C14 1_555 1_555
O9 C15 1_555 1_555
O10 C16 1_555 1_555
O11 C17 1_555 1_555
O12 C18 1_555 1_555
C16 H19 1_555 1_555
H20 C16 1_555 1_555
C17 H21 1_555 1_555
H22 C17 1_555 1_555
C18 H23 1_555 1_555
H24 C18 1_555 1_555
C19 C16 1_555 1_555
O13 Cs1 1_555 1_555
O14 Cs1 1_555 1_555
C20 C17 1_555 1_555
O15 Cs1 1_555 1_555
C21 C18 1_555 1_555
C22 C19 1_555 1_555
H25 C22 1_555 1_555
C23 C20 1_555 1_555
H26 C23 1_555 1_555
C24 C21 1_555 1_555
H27 C24 1_555 1_555
C25 C22 1_555 1_555
O16 Ni2 1_555 1_555
C26 C23 1_555 1_555
O17 Ni2 1_555 1_555
O18 Ni2 1_555 1_555
C27 C24 1_555 1_555
C28 C25 1_555 1_555
H28 C28 1_555 1_555
H29 C28 1_555 1_555
H30 C28 1_555 1_555
C29 C26 1_555 1_555
H31 C29 1_555 1_555
H32 C29 1_555 1_555
H33 C29 1_555 1_555
C30 C27 1_555 1_555
H34 C30 1_555 1_555
H35 C30 1_555 1_555
H36 C30 1_555 1_555
C31 O7 1_555 1_555
C32 O8 1_555 1_555
C33 O9 1_555 1_555
C34 C31 1_555 1_555
H37 C34 1_555 1_555
C35 C32 1_555 1_555
H38 C35 1_555 1_555
C36 C33 1_555 1_555
H39 C36 1_555 1_555
C37 C34 1_555 1_555
H40 C37 1_555 1_555
C38 C35 1_555 1_555
H41 C38 1_555 1_555
C39 C36 1_555 1_555
H42 C39 1_555 1_555
C40 C37 1_555 1_555
H43 C40 1_555 1_555
C41 C38 1_555 1_555
H44 C41 1_555 1_555
C42 C39 1_555 1_555
H45 C42 1_555 1_555
C43 C40 1_555 1_555
H46 C43 1_555 1_555
C44 C41 1_555 1_555
H47 C44 1_555 1_555
C45 C42 1_555 1_555
H48 C45 1_555 1_555
C46 O10 1_555 1_555
C47 O11 1_555 1_555
C48 O12 1_555 1_555
C49 H49 1_555 1_555
H50 C49 1_555 1_555
H51 C49 1_555 1_555
O19 Cs2 1_555 1_555
O20 Cs2 1_555 1_555
C50 O20 1_555 1_555
H52 C50 1_555 1_555
H53 C50 1_555 1_555
H54 C50 1_555 1_555
C51 H55 1_555 1_555
H56 C51 1_555 1_555
H57 C51 1_555 1_555
O21 C51 1_555 1_555
Ni2C O16C 1_555 1_555
O16C Cs2 1_555 1_555
O17C Cs2 1_555 1_555
O18C Cs2 1_555 1_555
Cs2C O16 1_555 1_555
Ni1 O5 1_555 1_555
Ni1 O6 1_555 1_555
Cs2 O2 1_555 1_555
Cs2 O3 1_555 1_555
Ni2 O14 1_555 1_555
Ni2 O15 1_555 1_555
C5 O2 1_555 1_555
C6 O3 1_555 1_555
O4 C10 1_555 1_555
C11 O5 1_555 1_555
C12 O6 1_555 1_555
C19 O13 1_555 1_555
O14 C20 1_555 1_555
O15 C21 1_555 1_555
C25 O16 1_555 1_555
C26 O17 1_555 1_555
O17 Cs2C 1_555 1_555
O18 C27 1_555 1_555
O18 Cs2C 1_555 1_555
C31 C46 1_555 1_555
C32 C47 1_555 1_555
C33 C48 1_555 1_555
C43 C46 1_555 1_555
C44 C47 1_555 1_555
C45 C48 1_555 1_555
C49 O19 1_555 1_555
Ni2C O17C 1_555 1_555
Ni2C O18C 1_555 1_555

#END
