
#######################################################################
#
#                 Cambridge Crystallographic Data Centre
#                                CCDC 
#
#######################################################################
#
# If this CIF has been generated from an entry in the Cambridge 
# Structural Database, then it will include bibliographic, chemical, 
# crystal, experimental, refinement or atomic coordinate data resulting 
# from the CCDC's data processing and validation procedures.
#
#######################################################################

data_IDOJOB
_symmetry_cell_setting           monoclinic
_symmetry_space_group_name_H-M   'C 2/c'
_symmetry_Int_Tables_number      15
_space_group_name_Hall           '-C 2yn'
loop_
_symmetry_equiv_pos_site_id
_symmetry_equiv_pos_as_xyz
1 x,y,z
2 1/2+x,1/2+y,z
3 -x,y,1/2-z
4 1/2-x,1/2+y,1/2-z
5 -x,-y,-z
6 1/2-x,1/2-y,-z
7 x,-y,1/2+z
8 1/2+x,1/2-y,1/2+z
_cell_length_a                   15.1504(12)
_cell_length_b                   16.5593(13)
_cell_length_c                   18.9423(15)
_cell_angle_alpha                90
_cell_angle_beta                 110.2740(10)
_cell_angle_gamma                90
_cell_volume                     4457.83
loop_
_atom_site_label
_atom_site_type_symbol
_atom_site_fract_x
_atom_site_fract_y
_atom_site_fract_z
C1 C 0.62573(19) 0.05553(15) 0.83652(15)
C2 C 0.67704(19) -0.00042(15) 0.90018(14)
C3 C 0.7602(2) -0.03713(17) 0.90143(16)
H1 H 0.7830 -0.0279 0.8625
C4 C 0.8091(2) -0.0874(2) 0.96048(17)
H2 H 0.8653 -0.1108 0.9616
C5 C 0.7745(2) -0.10280(19) 1.01761(16)
H3 H 0.8077 -0.1364 1.0573
C6 C 0.69028(18) -0.06839(16) 1.01604(14)
C7 C 0.64161(18) -0.01679(15) 0.95750(15)
H4 H 0.5855 0.0067 0.9566
C8 C 0.65092(19) -0.09066(15) 1.07595(14)
C9 C 0.7064(2) 0.25477(17) 0.82985(16)
H5 H 0.7281 0.2048 0.8513
C10 C 0.7417(2) 0.32380(18) 0.87160(17)
H6 H 0.7854 0.3196 0.9201
C11 C 0.7119(2) 0.39789(17) 0.84096(16)
H7 H 0.7354 0.4447 0.8682
C12 C 0.64514(18) 0.40270(15) 0.76779(14)
C13 C 0.60779(18) 0.47501(15) 0.72908(15)
C14 C 0.53903(19) 0.47674(15) 0.65818(15)
C15 C 0.50392(18) 0.40373(15) 0.61894(15)
C16 C 0.4353(2) 0.40031(17) 0.54623(16)
H8 H 0.4090 0.4475 0.5211
C17 C 0.4079(2) 0.32692(19) 0.51310(17)
H9 H 0.3628 0.3236 0.4652
C18 C 0.4483(2) 0.25706(18) 0.55187(16)
H10 H 0.4289 0.2073 0.5289
C19 C 0.54081(18) 0.33052(15) 0.65412(15)
C20 C 0.61180(18) 0.32945(15) 0.72961(15)
C21 C 0.57072(19) 0.59927(16) 0.69001(15)
C22 C 0.57044(19) 0.68879(16) 0.68957(15)
C23 C 0.6223(2) 0.73441(17) 0.75144(16)
H11 H 0.6583 0.7087 0.7957
C24 C 0.6209(2) 0.81790(18) 0.74783(17)
H12 H 0.6553 0.8481 0.7897
C25 C 0.5684(2) 0.85625(17) 0.68195(18)
C26 C 0.5154(2) 0.81163(18) 0.61988(18)
H13 H 0.4797 0.8374 0.5756
C27 C 0.5163(2) 0.72843(17) 0.62455(17)
H14 H 0.4798 0.6984 0.5833
N1 N 0.51325(16) 0.25848(13) 0.62015(12)
N2 N 0.64291(16) 0.25659(13) 0.76073(12)
N3 N 0.51608(16) 0.55515(13) 0.63400(13)
N4 N 0.62673(16) 0.55486(12) 0.74899(12)
H15 H 0.6661 0.5730 0.7905
O1 O 0.64743(15) 0.05150(11) 0.77757(11)
O2 O 0.56837(14) 0.10436(12) 0.84504(11)
O3 O 0.70764(13) -0.11259(12) 1.14008(10)
O4 O 0.56445(14) -0.08978(12) 1.06170(11)
O5 O 0.5652(2) 0.93790(13) 0.67442(14)
H16 H 0.5984 0.9587 0.7140
Cd1 Cd 0.583735(13) 0.141593(11) 0.684764(10)
O2B O 0.43163(14) 0.10436(12) 0.65496(11)
O3F O 0.70764(13) 0.11259(12) 0.64008(10)
O4F O 0.56445(14) 0.08978(12) 0.56170(11)
Cd1B Cd 0.416265(13) 0.141593(11) 0.815236(10)
Cd1F Cd 0.583735(13) -0.141593(11) 1.184764(10)
loop_
_geom_bond_atom_site_label_1
_geom_bond_atom_site_label_2
_geom_bond_site_symmetry_1
_geom_bond_site_symmetry_2
C1 C2 1_555 1_555
C2 C3 1_555 1_555
C3 H1 1_555 1_555
C4 C3 1_555 1_555
H2 C4 1_555 1_555
C5 C4 1_555 1_555
H3 C5 1_555 1_555
C6 C5 1_555 1_555
C7 C2 1_555 1_555
H4 C7 1_555 1_555
C8 C6 1_555 1_555
C9 H5 1_555 1_555
C10 C9 1_555 1_555
H6 C10 1_555 1_555
C11 C10 1_555 1_555
H7 C11 1_555 1_555
C12 C11 1_555 1_555
C13 C12 1_555 1_555
C14 C13 1_555 1_555
C15 C14 1_555 1_555
C16 C15 1_555 1_555
H8 C16 1_555 1_555
C17 C16 1_555 1_555
H9 C17 1_555 1_555
C18 C17 1_555 1_555
H10 C18 1_555 1_555
C19 C15 1_555 1_555
C20 C12 1_555 1_555
C21 C22 1_555 1_555
C22 C23 1_555 1_555
C23 H11 1_555 1_555
C24 C23 1_555 1_555
H12 C24 1_555 1_555
C25 C24 1_555 1_555
C26 C25 1_555 1_555
H13 C26 1_555 1_555
C27 C22 1_555 1_555
H14 C27 1_555 1_555
N1 C18 1_555 1_555
N2 C9 1_555 1_555
N3 C14 1_555 1_555
N4 C13 1_555 1_555
H15 N4 1_555 1_555
O1 C1 1_555 1_555
O2 C1 1_555 1_555
O3 C8 1_555 1_555
O4 C8 1_555 1_555
O5 C25 1_555 1_555
H16 O5 1_555 1_555
Cd1 N1 1_555 1_555
O2B Cd1 1_555 1_555
O3F Cd1 1_555 1_555
O4F Cd1 1_555 1_555
Cd1B O2 1_555 1_555
Cd1F O3 1_555 1_555
C6 C7 1_555 1_555
C19 C20 1_555 1_555
C19 N1 1_555 1_555
C20 N2 1_555 1_555
C21 N3 1_555 1_555
C21 N4 1_555 1_555
C26 C27 1_555 1_555
N2 Cd1 1_555 1_555
O1 Cd1 1_555 1_555
O4 Cd1F 1_555 1_555

#END
