
#######################################################################
#
#                 Cambridge Crystallographic Data Centre
#                                CCDC 
#
#######################################################################
#
# If this CIF has been generated from an entry in the Cambridge 
# Structural Database, then it will include bibliographic, chemical, 
# crystal, experimental, refinement or atomic coordinate data resulting 
# from the CCDC's data processing and validation procedures.
#
#######################################################################

data_IDONEU
_symmetry_cell_setting           triclinic
_symmetry_space_group_name_H-M   'P -1'
_symmetry_Int_Tables_number      2
_space_group_name_Hall           '-P 1'
loop_
_symmetry_equiv_pos_site_id
_symmetry_equiv_pos_as_xyz
1 x,y,z
2 -x,-y,-z
_cell_length_a                   8.6986(10)
_cell_length_b                   11.3571(13)
_cell_length_c                   19.416(2)
_cell_angle_alpha                97.326(2)
_cell_angle_beta                 99.090(2)
_cell_angle_gamma                101.251(2)
_cell_volume                     1832.64
loop_
_atom_site_label
_atom_site_type_symbol
_atom_site_fract_x
_atom_site_fract_y
_atom_site_fract_z
Cu1 Cu 0.60073(4) 0.48376(3) 0.291969(18)
Cu2 Cu 1.01356(4) 0.19412(3) 0.176200(18)
N1 N 0.6898(3) 0.3942(2) 0.36826(13)
N2 N 0.8314(3) 0.5735(2) 0.30953(12)
N3 N 0.6526(4) 0.3316(3) 0.21078(16)
N4 N 0.7388(3) 0.2657(2) 0.21249(13)
N5 N 0.8173(3) 0.1923(3) 0.21412(18)
N6 N 0.3859(3) 0.4136(3) 0.30550(15)
N7 N 0.2636(3) 0.4028(2) 0.26610(13)
N8 N 0.1401(3) 0.3911(3) 0.23018(15)
N9 N 1.0970(3) 0.1179(2) 0.25901(13)
N10 N 1.2077(3) 0.1511(2) 0.14176(12)
N11 N 0.0770(3) 0.7428(2) -0.08829(13)
N12 N 0.5073(3) 0.5567(2) 0.20665(13)
C1 C 0.6140(4) 0.3030(3) 0.39571(18)
H1 H 0.5031 0.2824 0.3856
C2 C 0.6961(5) 0.2369(3) 0.43934(19)
H2 H 0.6399 0.1730 0.4572
C3 C 0.8600(5) 0.2673(3) 0.45547(18)
H3 H 0.9155 0.2234 0.4838
C4 C 0.9431(4) 0.3650(3) 0.42892(16)
C5 C 1.1131(4) 0.4086(4) 0.44486(18)
H4 H 1.1752 0.3692 0.4736
C6 C 1.1841(4) 0.5047(4) 0.41926(18)
H5 H 1.2943 0.5317 0.4315
C7 C 1.0940(4) 0.5675(3) 0.37319(16)
C8 C 1.1592(4) 0.6677(4) 0.3441(2)
H6 H 1.2682 0.7013 0.3558
C9 C 1.0635(5) 0.7164(4) 0.2985(2)
H7 H 1.1071 0.7823 0.2785
C10 C 0.8980(4) 0.6663(3) 0.28187(18)
H8 H 0.8337 0.6997 0.2504
C11 C 0.9278(3) 0.5243(3) 0.35485(14)
C12 C 0.8517(3) 0.4255(3) 0.38491(14)
C13 C 1.0383(5) 0.1037(4) 0.31731(18)
H9 H 0.9431 0.1270 0.3217
C14 C 1.1148(6) 0.0551(4) 0.37248(19)
H10 H 1.0708 0.0466 0.4127
C15 C 1.2547(5) 0.0204(3) 0.36668(18)
H11 H 1.3082 -0.0094 0.4037
C16 C 1.3171(4) 0.0298(3) 0.30504(17)
C17 C 1.4585(4) -0.0091(3) 0.2918(2)
H12 H 1.5162 -0.0413 0.3264
C18 C 1.5096(4) 0.0000(3) 0.2302(2)
H13 H 1.5990 -0.0294 0.2223
C19 C 1.4283(4) 0.0544(3) 0.17653(19)
C20 C 1.4767(4) 0.0713(3) 0.1121(2)
H14 H 1.5659 0.0446 0.1013
C21 C 1.3934(4) 0.1265(4) 0.0656(2)
H15 H 1.4253 0.1376 0.0229
C22 C 1.2601(4) 0.1665(3) 0.08225(17)
H16 H 1.2056 0.2055 0.0503
C23 C 1.2918(3) 0.0954(3) 0.18872(15)
C24 C 1.2339(3) 0.0807(3) 0.25297(15)
C25 C 0.1405(4) 0.8194(3) -0.02797(16)
H17 H 0.1313 0.9000 -0.0252
C26 C 0.2200(4) 0.7833(3) 0.03086(16)
H18 H 0.2621 0.8396 0.0719
C27 C 0.2370(3) 0.6647(3) 0.02885(15)
C28 C 0.1687(4) 0.5851(3) -0.03457(17)
H19 H 0.1761 0.5040 -0.0388
C29 C 0.0907(4) 0.6267(3) -0.09050(17)
H20 H 0.0453 0.5718 -0.1319
C30 C 0.3275(3) 0.6255(3) 0.09081(15)
C31 C 0.3984(6) 0.5280(4) 0.08269(19)
H21 H 0.3874 0.4827 0.0381
C32 C 0.4865(6) 0.4969(4) 0.14092(19)
H22 H 0.5336 0.4306 0.1338
C33 C 0.3467(5) 0.6858(3) 0.15873(17)
H23 H 0.2982 0.7508 0.1676
C34 C 0.4382(5) 0.6499(3) 0.21395(17)
H24 H 0.4518 0.6943 0.2590
N8_2 N 1.1401(3) 0.3911(3) 0.23018(15)
N11A N 0.9230(3) 0.2572(2) 0.08829(13)
Cu2_2 Cu 0.01356(4) 0.19412(3) 0.176200(18)
Cu2A Cu -0.01356(4) 0.80588(3) -0.176200(18)
Cl1 Cl 0.66762(15) 0.80299(12) 0.42720(7)
O5 O 0.8267(5) 0.8153(5) 0.4511(2)
O6 O 0.5930(8) 0.8919(5) 0.4493(2)
O8 O 0.6127(10) 0.7299(10) 0.4871(5)
O9 O 0.7069(11) 0.8424(9) 0.3513(4)
Cl2 Cl 0.85815(13) 0.83062(8) 0.11699(5)
O1 O 0.8900(5) 0.9346(3) 0.08519(18)
O2 O 0.7622(7) 0.8379(5) 0.1667(3)
O3 O 1.0086(6) 0.8210(5) 0.1562(2)
O4 O 0.8096(7) 0.7261(3) 0.0662(2)
O7? O 0.5889(12) 0.7463(11) 0.3675(4)
O10? O 0.5954(13) 0.6771(9) 0.3990(8)
loop_
_geom_bond_atom_site_label_1
_geom_bond_atom_site_label_2
_geom_bond_site_symmetry_1
_geom_bond_site_symmetry_2
Cu1 N1 1_555 1_555
Cu2 N5 1_555 1_555
N1 C1 1_555 1_555
N2 Cu1 1_555 1_555
N3 Cu1 1_555 1_555
N4 N3 1_555 1_555
N5 N4 1_555 1_555
N6 Cu1 1_555 1_555
N7 N6 1_555 1_555
N8 N7 1_555 1_555
N9 Cu2 1_555 1_555
N10 Cu2 1_555 1_555
N11 C25 1_555 1_555
N12 Cu1 1_555 1_555
C1 H1 1_555 1_555
C2 C1 1_555 1_555
H2 C2 1_555 1_555
C3 C2 1_555 1_555
H3 C3 1_555 1_555
C4 C3 1_555 1_555
C5 C4 1_555 1_555
H4 C5 1_555 1_555
C6 C5 1_555 1_555
H5 C6 1_555 1_555
C7 C6 1_555 1_555
C8 C7 1_555 1_555
H6 C8 1_555 1_555
C9 C8 1_555 1_555
H7 C9 1_555 1_555
C10 N2 1_555 1_555
H8 C10 1_555 1_555
C11 N2 1_555 1_555
C12 N1 1_555 1_555
C13 N9 1_555 1_555
H9 C13 1_555 1_555
C14 C13 1_555 1_555
H10 C14 1_555 1_555
C15 C14 1_555 1_555
H11 C15 1_555 1_555
C16 C15 1_555 1_555
C17 C16 1_555 1_555
H12 C17 1_555 1_555
C18 C17 1_555 1_555
H13 C18 1_555 1_555
C19 C18 1_555 1_555
C20 C19 1_555 1_555
H14 C20 1_555 1_555
C21 C20 1_555 1_555
H15 C21 1_555 1_555
C22 N10 1_555 1_555
H16 C22 1_555 1_555
C23 N10 1_555 1_555
C24 N9 1_555 1_555
C25 H17 1_555 1_555
C26 C25 1_555 1_555
H18 C26 1_555 1_555
C27 C26 1_555 1_555
C28 C27 1_555 1_555
H19 C28 1_555 1_555
C29 N11 1_555 1_555
H20 C29 1_555 1_555
C30 C27 1_555 1_555
C31 C30 1_555 1_555
H21 C31 1_555 1_555
C32 N12 1_555 1_555
H22 C32 1_555 1_555
C33 C30 1_555 1_555
H23 C33 1_555 1_555
C34 N12 1_555 1_555
H24 C34 1_555 1_555
Cl1 O5 1_555 1_555
Cl2 O1 1_555 1_555
O2 Cl2 1_555 1_555
O3 Cl2 1_555 1_555
O4 Cl2 1_555 1_555
O6 Cl1 1_555 1_555
O8 Cl1 1_555 1_555
O9 Cl1 1_555 1_555
N8_2 Cu2 1_555 1_555
N11A Cu2 1_555 1_555
Cu2_2 N8 1_555 1_555
Cu2A N11 1_555 1_555
C4 C12 1_555 1_555
C7 C11 1_555 1_555
C9 C10 1_555 1_555
C11 C12 1_555 1_555
C16 C24 1_555 1_555
C19 C23 1_555 1_555
C21 C22 1_555 1_555
C23 C24 1_555 1_555
C28 C29 1_555 1_555
C31 C32 1_555 1_555
C33 C34 1_555 1_555

#END
