
#######################################################################
#
#                 Cambridge Crystallographic Data Centre
#                                CCDC 
#
#######################################################################
#
# If this CIF has been generated from an entry in the Cambridge 
# Structural Database, then it will include bibliographic, chemical, 
# crystal, experimental, refinement or atomic coordinate data resulting 
# from the CCDC's data processing and validation procedures.
#
#######################################################################

data_IDONOF
_symmetry_cell_setting           monoclinic
_symmetry_space_group_name_H-M   'P 21/c'
_symmetry_Int_Tables_number      14
_space_group_name_Hall           '-P 2ybc'
loop_
_symmetry_equiv_pos_site_id
_symmetry_equiv_pos_as_xyz
1 x,y,z
2 -x,1/2+y,1/2-z
3 -x,-y,-z
4 x,1/2-y,1/2+z
_cell_length_a                   23.996(2)
_cell_length_b                   7.0691(7)
_cell_length_c                   12.2522(12)
_cell_angle_alpha                90
_cell_angle_beta                 99.047(2)
_cell_angle_gamma                90
_cell_volume                     2052.49
loop_
_atom_site_label
_atom_site_type_symbol
_atom_site_fract_x
_atom_site_fract_y
_atom_site_fract_z
Ag1 Ag 0.15814(2) 0.18689(7) 0.46504(4)
Ag2 Ag 0.06301(3) 0.03880(10) 0.61917(5)
Ag3 Ag 0.01327(3) 0.38496(13) 0.39369(8)
C1 C 0.3498(3) 0.3271(8) 0.6351(6)
C2 C 0.3905(3) 0.2458(11) 0.5791(7)
H1 H 0.3798 0.1962 0.5086
C3 C 0.4463(3) 0.2389(13) 0.6279(8)
H2 H 0.4726 0.1784 0.5919
C4 C 0.4628(3) 0.3198(14) 0.7280(9)
H3 H 0.5007 0.3190 0.7593
C5 C 0.4237(4) 0.4030(13) 0.7831(7)
H4 H 0.4354 0.4584 0.8517
C6 C 0.3673(3) 0.4057(11) 0.7382(6)
H5 H 0.3411 0.4602 0.7771
C7 C 0.2899(3) 0.3173(10) 0.5799(7)
H6 H 0.2881 0.3299 0.5006
H7 H 0.2739 0.1958 0.5948
O1 O 0.25817(18) 0.4669(6) 0.6207(4)
N1 N 0.2013(2) 0.4365(8) 0.5824(4)
C8 C 0.1705(3) 0.5619(9) 0.6190(5)
H8 H 0.1860 0.6583 0.6659
C9 C 0.1085(3) 0.5456(9) 0.5829(6)
O2 O 0.0898(2) 0.4120(7) 0.5204(4)
O3 O 0.0792(2) 0.6702(7) 0.6199(4)
C10 C 0.3053(3) -0.2337(9) 0.4277(6)
C11 C 0.3110(3) -0.3348(10) 0.3347(6)
H9 H 0.2805 -0.3460 0.2779
C12 C 0.3618(4) -0.4201(11) 0.3247(7)
H10 H 0.3651 -0.4910 0.2621
C13 C 0.4078(4) -0.3998(12) 0.4082(8)
H11 H 0.4423 -0.4540 0.4011
C14 C 0.4017(3) -0.2991(12) 0.5011(8)
H12 H 0.4323 -0.2845 0.5572
C15 C 0.3513(3) -0.2206(10) 0.5117(6)
H13 H 0.3474 -0.1567 0.5765
C16 C 0.2529(3) -0.1280(10) 0.4420(7)
H14 H 0.2513 -0.1126 0.5201
H15 H 0.2536 -0.0032 0.4094
O4 O 0.2042(2) -0.2281(7) 0.3905(4)
N2 N 0.1561(2) -0.1236(8) 0.4029(4)
C17 C 0.1117(3) -0.2115(10) 0.3644(6)
H16 H 0.1140 -0.3300 0.3324
C18 C 0.0547(3) -0.1254(11) 0.3700(6)
O5 O 0.0523(2) 0.0297(8) 0.4182(4)
O6 O 0.0133(2) -0.2193(10) 0.3242(6)
N3 N 0.1762(3) 0.1212(8) 0.7484(5)
O7 O 0.1281(2) 0.1612(9) 0.7720(5)
O8 O 0.2184(3) 0.1838(8) 0.8074(5)
O9 O 0.1793(3) 0.0181(8) 0.6673(5)
Ag2B Ag -0.06301(3) -0.03880(10) 0.38083(5)
Ag3B Ag -0.01327(3) 0.61504(13) 0.60631(8)
O3B O -0.0792(2) 0.3298(7) 0.3801(4)
O6B O -0.0133(2) 0.2193(10) 0.6758(6)
loop_
_geom_bond_atom_site_label_1
_geom_bond_atom_site_label_2
_geom_bond_site_symmetry_1
_geom_bond_site_symmetry_2
Ag1 N1 1_555 1_555
Ag2 O5 1_555 1_555
Ag3 O2 1_555 1_555
C1 C2 1_555 1_555
C2 H1 1_555 1_555
C3 C2 1_555 1_555
H2 C3 1_555 1_555
C4 C3 1_555 1_555
H3 C4 1_555 1_555
C5 C4 1_555 1_555
H4 C5 1_555 1_555
C6 C1 1_555 1_555
H5 C6 1_555 1_555
C7 C1 1_555 1_555
H6 C7 1_555 1_555
H7 C7 1_555 1_555
O1 C7 1_555 1_555
N1 O1 1_555 1_555
C8 N1 1_555 1_555
H8 C8 1_555 1_555
C9 C8 1_555 1_555
O2 Ag1 1_555 1_555
O3 C9 1_555 1_555
C10 C11 1_555 1_555
C11 H9 1_555 1_555
C12 C11 1_555 1_555
H10 C12 1_555 1_555
C13 C12 1_555 1_555
H11 C13 1_555 1_555
C14 C13 1_555 1_555
H12 C14 1_555 1_555
C15 C10 1_555 1_555
H13 C15 1_555 1_555
C16 C10 1_555 1_555
H14 C16 1_555 1_555
H15 C16 1_555 1_555
O4 C16 1_555 1_555
N2 Ag1 1_555 1_555
C17 N2 1_555 1_555
H16 C17 1_555 1_555
C18 C17 1_555 1_555
O5 C18 1_555 1_555
O6 C18 1_555 1_555
N3 O7 1_555 1_555
O7 Ag2 1_555 1_555
O8 N3 1_555 1_555
O9 N3 1_555 1_555
Ag2B O6 1_555 1_555
Ag3B O3 1_555 1_555
O3B Ag3 1_555 1_555
O6B Ag2 1_555 1_555
C5 C6 1_555 1_555
C9 O2 1_555 1_555
C14 C15 1_555 1_555
O4 N2 1_555 1_555

#END
