
#######################################################################
#
#                 Cambridge Crystallographic Data Centre
#                                CCDC 
#
#######################################################################
#
# If this CIF has been generated from an entry in the Cambridge 
# Structural Database, then it will include bibliographic, chemical, 
# crystal, experimental, refinement or atomic coordinate data resulting 
# from the CCDC's data processing and validation procedures.
#
#######################################################################

data_IDOYIJ
_symmetry_cell_setting           triclinic
_symmetry_space_group_name_H-M   'P -1'
_symmetry_Int_Tables_number      2
_space_group_name_Hall           '-P 1'
loop_
_symmetry_equiv_pos_site_id
_symmetry_equiv_pos_as_xyz
1 x,y,z
2 -x,-y,-z
_cell_length_a                   8.5262(17)
_cell_length_b                   8.7466(17)
_cell_length_c                   15.073(3)
_cell_angle_alpha                96.56(3)
_cell_angle_beta                 100.98(3)
_cell_angle_gamma                97.43(3)
_cell_volume                     1083.04
loop_
_atom_site_label
_atom_site_type_symbol
_atom_site_fract_x
_atom_site_fract_y
_atom_site_fract_z
Pr1 Pr 0.10687(4) 0.05736(4) 0.141050(19)
Pr2 Pr 0.04058(4) 0.45864(4) 0.366677(18)
S1 S 0.39381(18) 0.57708(18) 0.36611(9)
O1 O 0.1858(5) 0.2758(5) 0.2808(2)
O2 O 0.2204(5) 0.3474(5) 0.4791(2)
O3 O 0.1011(5) 0.6944(5) 0.2897(3)
O4 O -0.0546(5) -0.0457(5) 0.2499(3)
O5 O 0.3795(5) 0.1562(5) 0.2441(3)
C1 C 0.3482(7) 0.6339(7) 0.2528(4)
H1 H 0.4433 0.6952 0.2409
H2 H 0.3178 0.5418 0.2072
O6 O -0.1196(5) 0.3845(5) 0.2155(3)
O7 O -0.1494(5) 0.1667(5) 0.1198(3)
O8 O 0.3178(5) -0.0064(5) 0.0515(3)
C2 C 0.2113(7) 0.7285(7) 0.2468(3)
C3 C 0.3349(7) 0.2662(7) 0.2863(3)
C4 C 0.4610(7) 0.3942(7) 0.3451(4)
H3 H 0.5526 0.4092 0.3158
H4 H 0.4987 0.3599 0.4033
C5 C -0.1930(7) 0.2937(7) 0.1477(3)
S2 S 0.2610(2) 0.0303(2) 0.48074(10)
C6 C -0.3434(7) 0.3396(7) 0.0929(4)
H5 H -0.3877 0.4117 0.1315
H6 H -0.4245 0.2480 0.0704
S3 S -0.2931(2) 0.43071(19) -0.00276(10)
C7 C 0.2087(7) 0.3154(7) 0.5568(4)
C8 C 0.2191(8) 0.1512(8) 0.5748(4)
H7 H 0.1176 0.1062 0.5882
H8 H 0.3036 0.1531 0.6283
O10 O -0.1925(6) 0.6860(5) -0.0906(3)
O11 O -0.0621(5) 0.8569(5) 0.0257(2)
C9 C -0.1437(7) 0.7225(7) -0.0062(4)
C10 C -0.1829(10) 0.6143(8) 0.0581(4)
H9 H -0.2472 0.6608 0.0972
H10 H -0.0836 0.5969 0.0964
O12 O 0.2108(5) 0.8311(5) 0.1958(3)
O13 O 0.1863(5) 0.4084(5) 0.6223(2)
O14 O 0.1142(5) -0.3482(5) 0.5060(2)
C11 C 0.1835(7) -0.2292(7) 0.5624(4)
O15 O 0.1366(5) -0.1972(5) 0.6363(3)
C12 C 0.3226(7) -0.1244(7) 0.5414(4)
H11 H 0.3806 -0.1867 0.5053
H12 H 0.3968 -0.0795 0.5983
H13 H -0.0985 0.0103 0.2922
H14 H 0.0199 -0.0758 0.2911
O10A O 0.1925(6) 0.3140(5) 0.0906(3)
O11_2 O -0.0621(5) -0.1431(5) 0.0257(2)
O11A O 0.0621(5) 0.1431(5) -0.0257(2)
O12_2 O 0.2108(5) -0.1689(5) 0.1958(3)
O13A O -0.1863(5) 0.5916(5) 0.3777(2)
O14_2 O 0.1142(5) 0.6518(5) 0.5060(2)
O14A O -0.1142(5) 0.3482(5) 0.4940(2)
O15A O -0.1366(5) 0.1972(5) 0.3637(3)
Pr1A Pr -0.10687(4) 0.94264(4) -0.141050(19)
Pr1_2 Pr 0.10687(4) 1.05736(4) 0.141050(19)
Pr2A Pr -0.04058(4) 0.54136(4) 0.633323(18)
Pr2_2 Pr 0.04058(4) -0.54136(4) 0.366677(18)
Pr2A_2 Pr -0.04058(4) -0.45864(4) 0.633323(18)
O9 O 0.5799(6) -0.0624(7) 0.1806(4)
H15 H 0.4424 -0.1018 0.1084
H16 H 0.5785 0.0872 0.2368
loop_
_geom_bond_atom_site_label_1
_geom_bond_atom_site_label_2
_geom_bond_site_symmetry_1
_geom_bond_site_symmetry_2
Pr1 O1 1_555 1_555
Pr2 O1 1_555 1_555
S1 C1 1_555 1_555
O1 C3 1_555 1_555
O2 Pr2 1_555 1_555
O3 Pr2 1_555 1_555
O4 Pr1 1_555 1_555
O5 Pr1 1_555 1_555
C1 H1 1_555 1_555
H2 C1 1_555 1_555
O6 Pr2 1_555 1_555
O7 Pr1 1_555 1_555
O8 Pr1 1_555 1_555
C2 O3 1_555 1_555
C3 O5 1_555 1_555
C4 S1 1_555 1_555
H3 C4 1_555 1_555
H4 C4 1_555 1_555
C5 O6 1_555 1_555
S2 C8 1_555 1_555
C6 C5 1_555 1_555
H5 C6 1_555 1_555
H6 C6 1_555 1_555
S3 C6 1_555 1_555
C7 O2 1_555 1_555
C8 C7 1_555 1_555
H7 C8 1_555 1_555
H8 C8 1_555 1_555
O9 H15 1_555 1_555
O10 C9 1_555 1_555
O11 C9 1_555 1_555
C9 C10 1_555 1_555
C10 S3 1_555 1_555
H9 C10 1_555 1_555
H10 C10 1_555 1_555
O12 C2 1_555 1_555
O13 C7 1_555 1_555
O14 C11 1_555 1_555
C11 O15 1_555 1_555
O15 Pr2A_2 1_555 1_555
C12 S2 1_555 1_555
H11 C12 1_555 1_555
H12 C12 1_555 1_555
H13 O4 1_555 1_555
H14 O4 1_555 1_555
H16 O9 1_555 1_555
O10A Pr1 1_555 1_555
O11_2 Pr1 1_555 1_555
O11A Pr1 1_555 1_555
O12_2 Pr1 1_555 1_555
O13A Pr2 1_555 1_555
O14_2 Pr2 1_555 1_555
O14A Pr2 1_555 1_555
O15A Pr2 1_555 1_555
Pr1A O10 1_555 1_555
Pr1_2 O11 1_555 1_555
Pr2A O13 1_555 1_555
Pr2_2 O14 1_555 1_555
Pr2A_2 O14 1_555 1_555
C1 C2 1_555 1_555
O7 C5 1_555 1_555
C3 C4 1_555 1_555
O11 Pr1A 1_555 1_555
O12 Pr1_2 1_555 1_555
C11 C12 1_555 1_555
O14_2 Pr2A 1_555 1_555
O14A Pr2A 1_555 1_555

#END
