
#######################################################################
#
#                 Cambridge Crystallographic Data Centre
#                                CCDC 
#
#######################################################################
#
# If this CIF has been generated from an entry in the Cambridge 
# Structural Database, then it will include bibliographic, chemical, 
# crystal, experimental, refinement or atomic coordinate data resulting 
# from the CCDC's data processing and validation procedures.
#
#######################################################################

data_IDUDUG
_symmetry_cell_setting           triclinic
_symmetry_space_group_name_H-M   'P -1'
_symmetry_Int_Tables_number      2
_space_group_name_Hall           '-P 1'
loop_
_symmetry_equiv_pos_site_id
_symmetry_equiv_pos_as_xyz
1 x,y,z
2 -x,-y,-z
_cell_length_a                   10.5857(9)
_cell_length_b                   20.308(2)
_cell_length_c                   6.3289(6)
_cell_angle_alpha                92.801(4)
_cell_angle_beta                 107.034(4)
_cell_angle_gamma                92.175(5)
_cell_volume                     1297.36
loop_
_atom_site_label
_atom_site_type_symbol
_atom_site_fract_x
_atom_site_fract_y
_atom_site_fract_z
Zn1 Zn -0.74276(5) 0.18086(2) -0.73142(8)
Cu1 Cu 0.0000 0.0000 0.0000
Cu2 Cu -1.0000 0.5000 0.0000
O1 O 0.0295(3) 0.0497(1) -0.2408(5)
O2 O -0.0796(3) 0.1077(2) -0.5236(5)
O3 O -0.5782(3) 0.1321(1) -0.5968(5)
O4 O -0.6575(3) 0.0664(2) -0.3871(6)
O5 O -0.8599(3) 0.4640(1) 0.2354(5)
O6 O -0.7162(3) 0.3846(2) 0.2930(5)
O7 O -0.8867(3) 0.2485(2) -0.7101(5)
O8 O -0.7467(3) 0.2284(1) -0.3874(5)
O9 O 0.1277(3) 0.0984(1) 0.3006(5)
O10 O -0.7860(4) 0.1564(2) -1.0600(5)
O11 O -0.6188(3) 0.2619(1) -0.7501(5)
O13 O -1.1788(4) 0.4299(2) 0.0815(6)
N1 N -0.1769(3) 0.0374(2) -0.0944(6)
N2 N -0.9657(3) 0.4261(2) -0.1867(5)
N4 N -1.4016(4) 0.4141(2) -0.0176(8)
C1 C -0.1971(4) 0.0675(2) -0.2854(7)
C2 C -0.3201(4) 0.0884(2) -0.4023(7)
C3 C -0.4257(4) 0.0778(2) -0.3173(7)
C4 C -0.4019(4) 0.0504(2) -0.1129(8)
C5 C -0.2766(4) 0.0300(2) -0.0062(8)
C6 C -0.0748(4) 0.0763(2) -0.3609(7)
C7 C -0.5665(4) 0.0935(2) -0.4456(7)
C8 C -0.8703(4) 0.3885(2) -0.0691(6)
C9 C -0.8311(4) 0.3334(2) -0.1661(7)
C10 C -0.8894(4) 0.3170(2) -0.3925(7)
C11 C -0.9863(4) 0.3564(2) -0.5115(7)
C12 C -1.0212(4) 0.4102(2) -0.4016(7)
C13 C -0.8091(4) 0.4129(2) 0.1744(7)
C14 C -0.8384(4) 0.2604(2) -0.5030(7)
C18 C -1.5285(6) 0.4063(4) -0.193(1)
C19 C -1.4029(8) 0.4076(5) 0.213(2)
C20 C -1.2885(5) 0.4245(3) -0.0561(9)
H1 H -0.3317 0.1094 -0.5371
H2 H -0.4712 0.0455 -0.0465
H3 H -0.2614 0.0105 0.1320
H4 H -0.7655 0.3069 -0.0800
H5 H -1.0280 0.3467 -0.6651
H6 H -1.0879 0.4369 -0.4833
H14 H -1.5426 0.4452 -0.2719
H15 H -1.5979 0.3990 -0.1281
H16 H -1.5271 0.3697 -0.2911
H17 H -1.4919 0.4001 0.2149
H18 H -1.3529 0.3714 0.2717
H19 H -1.3659 0.4470 0.2987
H20 H -1.2912 0.4284 -0.2063
O1A O -0.0295(3) -0.0497(1) 0.2408(5)
O2A O 0.0796(3) -0.1077(2) 0.5236(5)
O3A O 0.5782(3) -0.1321(1) 0.5968(5)
O4A O 0.6575(3) -0.0664(2) 0.3871(6)
N1A N 0.1769(3) -0.0374(2) 0.0944(6)
C1A C 0.1971(4) -0.0675(2) 0.2854(7)
C2A C 0.3201(4) -0.0884(2) 0.4023(7)
C3A C 0.4257(4) -0.0778(2) 0.3173(7)
C4A C 0.4019(4) -0.0504(2) 0.1129(8)
C5A C 0.2766(4) -0.0300(2) 0.0062(8)
C6A C 0.0748(4) -0.0763(2) 0.3609(7)
C7A C 0.5665(4) -0.0935(2) 0.4456(7)
H1A H 0.3317 -0.1094 0.5371
H2A H 0.4712 -0.0455 0.0465
H3A H 0.2614 -0.0105 -0.1320
O9A O -0.1277(3) -0.0984(1) -0.3006(5)
Zn1A Zn 0.74276(5) -0.18086(2) 0.73142(8)
O5A O 0.8599(3) -0.4640(1) -0.2354(5)
O6A O 0.7162(3) -0.3846(2) -0.2930(5)
O7A O 0.8867(3) -0.2485(2) 0.7101(5)
O8A O 0.7467(3) -0.2284(1) 0.3874(5)
N2A N 0.9657(3) -0.4261(2) 0.1867(5)
C8A C 0.8703(4) -0.3885(2) 0.0691(6)
C9A C 0.8311(4) -0.3334(2) 0.1661(7)
C10A C 0.8894(4) -0.3170(2) 0.3925(7)
C11A C 0.9863(4) -0.3564(2) 0.5115(7)
C12A C 1.0212(4) -0.4102(2) 0.4016(7)
C13A C 0.8091(4) -0.4129(2) -0.1744(7)
C14A C 0.8384(4) -0.2604(2) 0.5030(7)
H4A H 0.7655 -0.3069 0.0800
H5A H 1.0280 -0.3467 0.6651
H6A H 1.0879 -0.4369 0.4833
O10A O 0.7860(4) -0.1564(2) 1.0600(5)
O11A O 0.6188(3) -0.2619(1) 0.7501(5)
O13A O -0.8212(4) 0.5701(2) -0.0815(6)
N4A N -0.5984(4) 0.5859(2) 0.0176(8)
C18A C -0.4715(6) 0.5937(4) 0.193(1)
C19A C -0.5971(8) 0.5924(5) -0.213(2)
C20A C -0.7115(5) 0.5755(3) 0.0561(9)
H14A H -0.4574 0.5548 0.2719
H15A H -0.4021 0.6010 0.1281
H16A H -0.4729 0.6303 0.2911
H17A H -0.5081 0.5999 -0.2149
H18A H -0.6471 0.6286 -0.2717
H19A H -0.6341 0.5530 -0.2987
H20A H -0.7088 0.5716 0.2063
O9_2 O -0.8723(3) 0.0984(1) -0.6994(5)
O5A_2 O -1.1401(3) 0.5360(1) -0.2354(5)
N2A_2 N -1.0343(3) 0.5739(2) 0.1867(5)
Zn1_2 Zn 0.25724(5) 0.18086(2) 0.26858(8)
Zn1A_2 Zn -0.25724(5) -0.18086(2) -0.26858(8)
O9A_2 O 0.8723(3) -0.0984(1) 0.6994(5)
Cu2_2 Cu 1.0000 -0.5000 0.0000
O12 O 0.6152(4) 0.2719(2) 0.5592(7)
N3 N 0.7260(5) 0.2423(2) 0.8998(7)
C15 C 0.7275(10) 0.2214(4) 1.116(1)
C16 C 0.8555(6) 0.2534(4) 0.856(1)
C17 C 0.6176(6) 0.2522(3) 0.742(1)
H7 H 0.6788 0.1804 1.0997
H8 H 0.6888 0.2537 1.1875
H9 H 0.8164 0.2167 1.2020
H10 H 0.9248 0.2444 0.9831
H11 H 0.8583 0.2252 0.7337
H12 H 0.8653 0.2982 0.8229
H13 H 0.5352 0.2436 0.7699
loop_
_geom_bond_atom_site_label_1
_geom_bond_atom_site_label_2
_geom_bond_site_symmetry_1
_geom_bond_site_symmetry_2
Zn1 O3 1_555 1_555
Cu1 O1 1_555 1_555
Cu2 O5 1_555 1_555
O1 C6 1_555 1_555
O2 C6 1_555 1_555
O3 C7 1_555 1_555
O4 C7 1_555 1_555
O5 C13 1_555 1_555
O6 C13 1_555 1_555
O7 Zn1 1_555 1_555
O8 Zn1 1_555 1_555
O9 Cu1 1_555 1_555
O10 Zn1 1_555 1_555
O11 Zn1 1_555 1_555
O12 C17 1_555 1_555
O13 Cu2 1_555 1_555
N1 Cu1 1_555 1_555
N2 Cu2 1_555 1_555
N3 C15 1_555 1_555
N4 C18 1_555 1_555
C1 N1 1_555 1_555
C2 C1 1_555 1_555
C3 C2 1_555 1_555
C4 C3 1_555 1_555
C5 N1 1_555 1_555
C6 C1 1_555 1_555
C7 C3 1_555 1_555
C8 N2 1_555 1_555
C9 C8 1_555 1_555
C10 C9 1_555 1_555
C11 C10 1_555 1_555
C12 N2 1_555 1_555
C13 C8 1_555 1_555
C14 O7 1_555 1_555
C15 H7 1_555 1_555
C16 N3 1_555 1_555
C17 N3 1_555 1_555
C18 H14 1_555 1_555
C19 N4 1_555 1_555
C20 O13 1_555 1_555
H1 C2 1_555 1_555
H2 C4 1_555 1_555
H3 C5 1_555 1_555
H4 C9 1_555 1_555
H5 C11 1_555 1_555
H6 C12 1_555 1_555
H8 C15 1_555 1_555
H9 C15 1_555 1_555
H10 C16 1_555 1_555
H11 C16 1_555 1_555
H12 C16 1_555 1_555
H13 C17 1_555 1_555
H15 C18 1_555 1_555
H16 C18 1_555 1_555
H17 C19 1_555 1_555
H18 C19 1_555 1_555
H19 C19 1_555 1_555
H20 C20 1_555 1_555
O1A Cu1 1_555 1_555
O2A C6A 1_555 1_555
O3A C7A 1_555 1_555
O4A C7A 1_555 1_555
N1A Cu1 1_555 1_555
C1A N1A 1_555 1_555
C2A C1A 1_555 1_555
C3A C2A 1_555 1_555
C4A C3A 1_555 1_555
C5A N1A 1_555 1_555
C6A O1A 1_555 1_555
C7A C3A 1_555 1_555
H1A C2A 1_555 1_555
H2A C4A 1_555 1_555
H3A C5A 1_555 1_555
O9A Cu1 1_555 1_555
Zn1A O3A 1_555 1_555
O5A C13A 1_555 1_555
O6A C13A 1_555 1_555
O7A Zn1A 1_555 1_555
O8A Zn1A 1_555 1_555
N2A C8A 1_555 1_555
C8A C9A 1_555 1_555
C9A C10A 1_555 1_555
C10A C11A 1_555 1_555
C11A C12A 1_555 1_555
C12A N2A 1_555 1_555
C13A C8A 1_555 1_555
C14A O7A 1_555 1_555
H4A C9A 1_555 1_555
H5A C11A 1_555 1_555
H6A C12A 1_555 1_555
O10A Zn1A 1_555 1_555
O11A Zn1A 1_555 1_555
O13A Cu2 1_555 1_555
N4A C18A 1_555 1_555
C18A H14A 1_555 1_555
C19A N4A 1_555 1_555
C20A O13A 1_555 1_555
H15A C18A 1_555 1_555
H16A C18A 1_555 1_555
H17A C19A 1_555 1_555
H18A C19A 1_555 1_555
H19A C19A 1_555 1_555
H20A C20A 1_555 1_555
O9_2 Zn1 1_555 1_555
O5A_2 Cu2 1_555 1_555
N2A_2 Cu2 1_555 1_555
Zn1_2 O9 1_555 1_555
Zn1A_2 O9A 1_555 1_555
O9A_2 Zn1A 1_555 1_555
Cu2_2 O5A 1_555 1_555
O8 C14 1_555 1_555
N4 C20 1_555 1_555
C4 C5 1_555 1_555
C10 C14 1_555 1_555
C11 C12 1_555 1_555
C1A C6A 1_555 1_555
C4A C5A 1_555 1_555
O8A C14A 1_555 1_555
N2A Cu2_2 1_555 1_555
C10A C14A 1_555 1_555
N4A C20A 1_555 1_555

#END
