
#######################################################################
#
#                 Cambridge Crystallographic Data Centre
#                                CCDC 
#
#######################################################################
#
# If this CIF has been generated from an entry in the Cambridge 
# Structural Database, then it will include bibliographic, chemical, 
# crystal, experimental, refinement or atomic coordinate data resulting 
# from the CCDC's data processing and validation procedures.
#
#######################################################################

data_IDUJIC
_symmetry_cell_setting           monoclinic
_symmetry_space_group_name_H-M   'C 2/c'
_symmetry_Int_Tables_number      15
_space_group_name_Hall           '-C 2yn'
loop_
_symmetry_equiv_pos_site_id
_symmetry_equiv_pos_as_xyz
1 x,y,z
2 -x,y,1/2-z
3 1/2+x,1/2+y,z
4 1/2-x,1/2+y,1/2-z
5 -x,-y,-z
6 x,-y,1/2+z
7 1/2-x,1/2-y,-z
8 1/2+x,1/2-y,1/2+z
_cell_length_a                   20.5028(6)
_cell_length_b                   9.5882(4)
_cell_length_c                   18.7797(6)
_cell_angle_alpha                90
_cell_angle_beta                 96.629(3)
_cell_angle_gamma                90
_cell_volume                     3667.12
loop_
_atom_site_label
_atom_site_type_symbol
_atom_site_fract_x
_atom_site_fract_y
_atom_site_fract_z
Cu1 Cu 0.50000 0.24717(4) 0.75000
N1 N 0.56205(9) 0.25720(18) 0.67295(10)
N2 N 0.57826(9) 0.24420(19) 0.82723(10)
C1 C 0.68446(12) 0.2241(3) 0.93132(15)
C2 C 0.58515(12) 0.3335(3) 0.88204(12)
H1 H 0.553612 0.402415 0.884613
C3 C 0.63800(13) 0.3267(3) 0.93548(13)
H2 H 0.641896 0.390084 0.973213
N3 N 0.67222(12) 0.3481(3) 0.50343(13)
C4 C 0.55314(11) 0.1796(3) 0.61320(12)
H3 H 0.521918 0.108841 0.610531
N4 N 0.74448(13) 0.2009(3) 0.98199(13)
C5 C 0.58805(13) 0.1996(3) 0.55559(14)
H4 H 0.580747 0.144085 0.514857
C6 C 0.60886(11) 0.3549(3) 0.67708(13)
H5 H 0.61685 0.406885 0.718993
C7 C 0.62437(11) 0.1462(3) 0.82472(13)
H6 H 0.620345 0.084669 0.7862
N5 N 0.66166(12) 0.2783(3) 0.44975(14)
C8 C 0.74683(13) 0.4261(3) 0.39990(14)
H7 H 0.762209 0.46114 0.444894
C9 C 0.63456(12) 0.3057(3) 0.56043(14)
C10 C 0.69675(13) 0.3311(3) 0.39178(14)
C11 C 0.64559(12) 0.3817(3) 0.62202(14)
H8 H 0.677626 0.450758 0.626648
C12 C 0.67725(12) 0.1318(3) 0.87591(14)
H9 H 0.707548 0.060508 0.872858
N6 N 0.75455(13) 0.4230(3) 0.27360(13)
C13 C 0.77402(15) 0.4687(3) 0.33930(17)
H10 H 0.80804 0.533335 0.345032
C14 C 0.70650(17) 0.3312(4) 0.26799(16)
H11 H 0.69199 0.29756 0.222456
C15 C 0.67590(16) 0.2808(3) 0.32486(16)
H12 H 0.642393 0.215145 0.317754
O1 O 0.50000 -0.0034(3) 0.75000
O2 O 0.50000 0.5102(3) 0.75000
H13 H 0.4866(17) -0.055(3) 0.7829(14)
H14 H 0.4862(18) 0.567(3) 0.7805(16)
N2F N 0.92174(9) 0.25580(19) 1.17277(10)
C1F C 0.81554(12) 0.2759(3) 1.06868(15)
C2F C 0.91485(12) 0.1665(3) 1.11796(12)
H1F H 0.946388 0.097585 1.115387
C3F C 0.86200(13) 0.1733(3) 1.06452(13)
H2F H 0.858104 0.109916 1.026787
N4F N 0.75552(13) 0.2991(3) 1.01801(13)
C7F C 0.87563(11) 0.3538(3) 1.17528(13)
H6F H 0.879655 0.415331 1.2138
C12F C 0.82275(12) 0.3682(3) 1.12409(14)
H9F H 0.792452 0.439492 1.127142
H13A H 0.5134(17) -0.055(3) 0.7171(14)
H14A H 0.5138(18) 0.567(3) 0.7195(16)
N1A N 0.43795(9) 0.25720(18) 0.82705(10)
N3A N 0.32778(12) 0.3481(3) 0.99657(13)
C4A C 0.44686(11) 0.1796(3) 0.88680(12)
H3A H 0.478082 0.108841 0.889469
C5A C 0.41195(13) 0.1996(3) 0.94441(14)
H4A H 0.419253 0.144085 0.985143
C6A C 0.39114(11) 0.3549(3) 0.82292(13)
H5A H 0.38315 0.406885 0.781007
N5A N 0.33834(12) 0.2783(3) 1.05025(14)
C8A C 0.25317(13) 0.4261(3) 1.10010(14)
H7A H 0.237791 0.46114 1.055106
C9A C 0.36544(12) 0.3057(3) 0.93957(14)
C10A C 0.30325(13) 0.3311(3) 1.10822(14)
C11A C 0.35441(12) 0.3817(3) 0.87798(14)
H8A H 0.322374 0.450758 0.873352
N6A N 0.24545(13) 0.4230(3) 1.22640(13)
C13A C 0.22598(15) 0.4687(3) 1.16070(17)
H10A H 0.19196 0.533335 1.154968
C14A C 0.29350(17) 0.3312(4) 1.23201(16)
H11A H 0.30801 0.29756 1.277544
C15A C 0.32410(16) 0.2808(3) 1.17514(16)
H12A H 0.357607 0.215145 1.182246
Cu1F Cu 1.00000 0.25283(4) 1.25000
N2A N 0.42174(9) 0.24420(19) 0.67277(10)
Cl1 Cl 0.54953(8) 0.75644(13) 0.60764(6)
O3 O 0.4963(4) 0.8525(11) 0.6130(6)
O4 O 0.5246(5) 0.6320(6) 0.5712(6)
O5 O 0.5796(6) 0.7209(11) 0.6784(3)
O6 O 0.5976(5) 0.8204(13) 0.5679(6)
O7? O 0.5232(6) 0.8609(9) 0.5573(5)
O8? O 0.5038(5) 0.6425(9) 0.6076(7)
O9? O 0.5602(4) 0.8164(12) 0.6783(3)
O10? O 0.6109(2) 0.7059(14) 0.5874(5)
loop_
_geom_bond_atom_site_label_1
_geom_bond_atom_site_label_2
_geom_bond_site_symmetry_1
_geom_bond_site_symmetry_2
Cu1 N1 1_555 1_555
N1 C4 1_555 1_555
N2 Cu1 1_555 1_555
C1 C3 1_555 1_555
C2 N2 1_555 1_555
H1 C2 1_555 1_555
C3 C2 1_555 1_555
H2 C3 1_555 1_555
N3 N5 1_555 1_555
C4 H3 1_555 1_555
N4 C1 1_555 1_555
C5 C4 1_555 1_555
H4 C5 1_555 1_555
C6 N1 1_555 1_555
H5 C6 1_555 1_555
C7 N2 1_555 1_555
H6 C7 1_555 1_555
N5 C10 1_555 1_555
C8 H7 1_555 1_555
C9 N3 1_555 1_555
C10 C8 1_555 1_555
C11 C6 1_555 1_555
H8 C11 1_555 1_555
C12 C1 1_555 1_555
H9 C12 1_555 1_555
N6 C13 1_555 1_555
C13 C8 1_555 1_555
H10 C13 1_555 1_555
C14 N6 1_555 1_555
H11 C14 1_555 1_555
C15 C10 1_555 1_555
H12 C15 1_555 1_555
O1 Cu1 1_555 1_555
O2 Cu1 1_555 1_555
H13 O1 1_555 1_555
H14 O2 1_555 1_555
Cl1 O3 1_555 1_555
O4 Cl1 1_555 1_555
O5 Cl1 1_555 1_555
O6 Cl1 1_555 1_555
N2F C2F 1_555 1_555
C1F C3F 1_555 1_555
C2F H1F 1_555 1_555
C3F C2F 1_555 1_555
H2F C3F 1_555 1_555
N4F N4 1_555 1_555
C7F N2F 1_555 1_555
H6F C7F 1_555 1_555
C12F C1F 1_555 1_555
H9F C12F 1_555 1_555
H13A O1 1_555 1_555
H14A O2 1_555 1_555
N1A Cu1 1_555 1_555
N3A N5A 1_555 1_555
C4A N1A 1_555 1_555
H3A C4A 1_555 1_555
C5A C4A 1_555 1_555
H4A C5A 1_555 1_555
C6A N1A 1_555 1_555
H5A C6A 1_555 1_555
N5A C10A 1_555 1_555
C8A H7A 1_555 1_555
C9A N3A 1_555 1_555
C10A C8A 1_555 1_555
C11A C6A 1_555 1_555
H8A C11A 1_555 1_555
N6A C13A 1_555 1_555
C13A C8A 1_555 1_555
H10A C13A 1_555 1_555
C14A N6A 1_555 1_555
H11A C14A 1_555 1_555
C15A C10A 1_555 1_555
H12A C15A 1_555 1_555
Cu1F N2F 1_555 1_555
N2A Cu1 1_555 1_555
C5 C9 1_555 1_555
C7 C12 1_555 1_555
C9 C11 1_555 1_555
C14 C15 1_555 1_555
C1F N4F 1_555 1_555
C7F C12F 1_555 1_555
C5A C9A 1_555 1_555
C9A C11A 1_555 1_555
C14A C15A 1_555 1_555

#END
