
#######################################################################
#
#                 Cambridge Crystallographic Data Centre
#                                CCDC 
#
#######################################################################
#
# If this CIF has been generated from an entry in the Cambridge 
# Structural Database, then it will include bibliographic, chemical, 
# crystal, experimental, refinement or atomic coordinate data resulting 
# from the CCDC's data processing and validation procedures.
#
#######################################################################

data_IDUJOI
_symmetry_cell_setting           monoclinic
_symmetry_space_group_name_H-M   'P 21/c'
_symmetry_Int_Tables_number      14
_space_group_name_Hall           '-P 2ybc'
loop_
_symmetry_equiv_pos_site_id
_symmetry_equiv_pos_as_xyz
1 x,y,z
2 -x,1/2+y,1/2-z
3 -x,-y,-z
4 x,1/2-y,1/2+z
_cell_length_a                   7.3580(6)
_cell_length_b                   17.2445(11)
_cell_length_c                   12.1219(9)
_cell_angle_alpha                90
_cell_angle_beta                 92.630(9)
_cell_angle_gamma                90
_cell_volume                     1536.47
loop_
_atom_site_label
_atom_site_type_symbol
_atom_site_fract_x
_atom_site_fract_y
_atom_site_fract_z
Mn1 Mn 1.0000 0.5000 0.5000
N1 N 0.8412(3) 0.59745(16) 0.5588(2)
C1 C 0.7531(4) 0.65174(18) 0.5703(3)
Se1 Se 0.61619(5) 0.73559(2) 0.58880(5)
N2 N 0.8026(3) 0.49379(14) 0.3495(2)
C2 C 0.7810(4) 0.55472(17) 0.2815(3)
H1 H 0.8352 0.6020 0.3032
C3 C 0.6839(4) 0.55203(17) 0.1814(3)
H2 H 0.6737 0.5964 0.1366
C4 C 0.6011(3) 0.48261(16) 0.1474(2)
C5 C 0.6159(4) 0.42049(17) 0.2201(3)
H3 H 0.5574 0.3733 0.2025
C6 C 0.7172(4) 0.42818(17) 0.3185(3)
H4 H 0.7264 0.3852 0.3661
C7 C 0.5041(4) 0.47366(18) 0.0402(3)
H5 H 0.4423 0.4267 0.0268
O1 O 0.8375(3) 0.41425(12) 0.58486(19)
H6 H 0.8741 0.3687 0.5840
C8 C 0.6647(5) 0.4215(2) 0.6300(4)
H7 H 0.6565 0.4712 0.6671
H8 H 0.6480 0.3800 0.6827
H9 H 0.5709 0.4183 0.5713
N2B N 0.1974(3) 0.50621(14) -0.3495(2)
C2B C 0.2190(4) 0.44528(17) -0.2815(3)
H1B H 0.1648 0.3980 -0.3032
C3B C 0.3161(4) 0.44797(17) -0.1814(3)
H2B H 0.3263 0.4036 -0.1366
C4B C 0.3989(3) 0.51739(16) -0.1474(2)
C5B C 0.3841(4) 0.57951(17) -0.2201(3)
H3B H 0.4426 0.6267 -0.2025
C6B C 0.2828(4) 0.57182(17) -0.3185(3)
H4B H 0.2736 0.6148 -0.3661
C7B C 0.4959(4) 0.52634(18) -0.0402(3)
H5B H 0.5577 0.5733 -0.0268
O1B O 1.1625(3) 0.58575(12) 0.41514(19)
H6B H 1.1259 0.6313 0.4160
C8B C 1.3353(5) 0.5785(2) 0.3700(4)
H7B H 1.3435 0.5288 0.3329
H8B H 1.3520 0.6200 0.3173
H9B H 1.4291 0.5817 0.4287
N1B N 1.1588(3) 0.40255(16) 0.4412(2)
C1B C 1.2469(4) 0.34826(18) 0.4297(3)
Se1B Se 1.38381(5) 0.26441(2) 0.41120(5)
Mn1_2 Mn 0.0000 0.5000 -0.5000
N2B_2 N 1.1974(3) 0.50621(14) 0.6505(2)
N3 N 0.9261(4) 0.26379(17) 0.5841(4)
C9 C 1.0231(6) 0.2228(2) 0.6583(4)
H10 H 1.0691 0.2483 0.7222
C10 C 1.0604(5) 0.1445(2) 0.6469(4)
H11 H 1.1297 0.1182 0.7021
C11 C 0.9951(4) 0.10541(19) 0.5537(3)
C12 C 0.8968(5) 0.1487(2) 0.4737(4)
H12 H 0.8518 0.1252 0.4081
C13 C 0.8666(5) 0.2261(2) 0.4925(5)
H13 H 0.8004 0.2544 0.4379
C14 C 1.0281(4) 0.02177(19) 0.5422(3)
H14 H 1.0950 -0.0029 0.6001
N3B N 1.0739(4) -0.26379(17) 0.4159(4)
C9B C 0.9769(6) -0.2228(2) 0.3417(4)
H10B H 0.9309 -0.2483 0.2778
C10B C 0.9396(5) -0.1445(2) 0.3531(4)
H11B H 0.8703 -0.1182 0.2979
C11B C 1.0049(4) -0.10541(19) 0.4463(3)
C12B C 1.1032(5) -0.1487(2) 0.5263(4)
H12B H 1.1482 -0.1252 0.5919
C13B C 1.1334(5) -0.2261(2) 0.5075(5)
H13B H 1.1996 -0.2544 0.5621
C14B C 0.9719(4) -0.02177(19) 0.4578(3)
H14B H 0.9050 0.0029 0.3999
loop_
_geom_bond_atom_site_label_1
_geom_bond_atom_site_label_2
_geom_bond_site_symmetry_1
_geom_bond_site_symmetry_2
Mn1 N1 1_555 1_555
N1 C1 1_555 1_555
C1 Se1 1_555 1_555
N2 Mn1 1_555 1_555
C2 N2 1_555 1_555
H1 C2 1_555 1_555
C3 C2 1_555 1_555
H2 C3 1_555 1_555
C4 C3 1_555 1_555
C5 C4 1_555 1_555
H3 C5 1_555 1_555
C6 N2 1_555 1_555
H4 C6 1_555 1_555
C7 C4 1_555 1_555
H5 C7 1_555 1_555
O1 Mn1 1_555 1_555
H6 O1 1_555 1_555
C8 O1 1_555 1_555
H7 C8 1_555 1_555
H8 C8 1_555 1_555
H9 C8 1_555 1_555
N3 C9 1_555 1_555
C9 H10 1_555 1_555
C10 C9 1_555 1_555
H11 C10 1_555 1_555
C11 C10 1_555 1_555
C12 C11 1_555 1_555
H12 C12 1_555 1_555
C13 N3 1_555 1_555
H13 C13 1_555 1_555
C14 C11 1_555 1_555
H14 C14 1_555 1_555
N2B C2B 1_555 1_555
C2B H1B 1_555 1_555
C3B C2B 1_555 1_555
H2B C3B 1_555 1_555
C4B C3B 1_555 1_555
C5B C4B 1_555 1_555
H3B C5B 1_555 1_555
C6B N2B 1_555 1_555
H4B C6B 1_555 1_555
C7B C7 1_555 1_555
H5B C7B 1_555 1_555
O1B Mn1 1_555 1_555
H6B O1B 1_555 1_555
C8B O1B 1_555 1_555
H7B C8B 1_555 1_555
H8B C8B 1_555 1_555
H9B C8B 1_555 1_555
N1B Mn1 1_555 1_555
C1B N1B 1_555 1_555
Se1B C1B 1_555 1_555
Mn1_2 N2B 1_555 1_555
N2B_2 Mn1 1_555 1_555
N3B C9B 1_555 1_555
C9B H10B 1_555 1_555
C10B C9B 1_555 1_555
H11B C10B 1_555 1_555
C11B C10B 1_555 1_555
C12B C11B 1_555 1_555
H12B C12B 1_555 1_555
C13B N3B 1_555 1_555
H13B C13B 1_555 1_555
C14B C14 1_555 1_555
H14B C14B 1_555 1_555
C5 C6 1_555 1_555
C12 C13 1_555 1_555
C4B C7B 1_555 1_555
C5B C6B 1_555 1_555
C11B C14B 1_555 1_555
C12B C13B 1_555 1_555

#END
