
#######################################################################
#
#                 Cambridge Crystallographic Data Centre
#                                CCDC 
#
#######################################################################
#
# If this CIF has been generated from an entry in the Cambridge 
# Structural Database, then it will include bibliographic, chemical, 
# crystal, experimental, refinement or atomic coordinate data resulting 
# from the CCDC's data processing and validation procedures.
#
#######################################################################

data_IDUMOK
_symmetry_cell_setting           monoclinic
_symmetry_space_group_name_H-M   'C 2/c'
_symmetry_Int_Tables_number      15
_space_group_name_Hall           '-C 2yn'
loop_
_symmetry_equiv_pos_site_id
_symmetry_equiv_pos_as_xyz
1 x,y,z
2 1/2+x,1/2+y,z
3 -x,y,1/2-z
4 1/2-x,1/2+y,1/2-z
5 -x,-y,-z
6 1/2-x,1/2-y,-z
7 x,-y,1/2+z
8 1/2+x,1/2-y,1/2+z
_cell_length_a                   15.318(3)
_cell_length_b                   16.453(3)
_cell_length_c                   18.660(4)
_cell_angle_alpha                90
_cell_angle_beta                 109.78(3)
_cell_angle_gamma                90
_cell_volume                     4425.35
loop_
_atom_site_label
_atom_site_type_symbol
_atom_site_fract_x
_atom_site_fract_y
_atom_site_fract_z
C1 C 0.6184(3) 0.0580(2) 0.83394(19)
C2 C 0.6718(3) 0.0036(2) 0.89867(18)
C3 C 0.7556(3) -0.0296(2) 0.8995(2)
H1 H 0.7779 -0.0185 0.8599
C4 C 0.8057(3) -0.0787(3) 0.9588(2)
H2 H 0.8620 -0.1002 0.9593
C5 C 0.7735(3) -0.0961(3) 1.0168(2)
H3 H 0.8088 -0.1285 1.0571
C6 C 0.6885(3) -0.0659(2) 1.01651(18)
C7 C 0.6509(3) -0.0900(2) 1.07684(19)
C8 C 0.6374(3) -0.0155(2) 0.95669(18)
H4 H 0.5805 0.0052 0.9557
C9 C 0.7070(3) 0.2486(3) 0.8264(2)
H5 H 0.7292 0.1981 0.8470
C10 C 0.7426(3) 0.3175(3) 0.8694(2)
H6 H 0.7863 0.3126 0.9180
C11 C 0.7129(3) 0.3922(3) 0.8399(2)
H7 H 0.7365 0.4387 0.8681
C12 C 0.6468(3) 0.3987(2) 0.76704(19)
C13 C 0.6131(3) 0.3251(2) 0.72791(19)
C14 C 0.5419(3) 0.3270(2) 0.6535(2)
C15 C 0.4481(3) 0.2535(3) 0.5517(2)
H8 H 0.4282 0.2036 0.5286
C16 C 0.4069(3) 0.3239(3) 0.5135(2)
H9 H 0.3608 0.3206 0.4659
C17 C 0.4350(3) 0.3975(3) 0.5467(2)
H10 H 0.4086 0.4451 0.5220
C18 C 0.5042(3) 0.4006(2) 0.6188(2)
C19 C 0.5410(3) 0.4734(2) 0.6591(2)
C20 C 0.6099(3) 0.4716(2) 0.7291(2)
C21 C 0.5708(3) 0.5974(2) 0.6909(2)
C22 C 0.5717(3) 0.6864(2) 0.6909(2)
C23 C 0.6228(3) 0.7330(3) 0.7524(2)
H11 H 0.6589 0.7074 0.7970
C24 C 0.6212(3) 0.8166(3) 0.7490(2)
H12 H 0.6556 0.8471 0.7910
C25 C 0.5682(4) 0.8548(3) 0.6829(2)
C26 C 0.5149(4) 0.8093(3) 0.6210(2)
H13 H 0.4786 0.8350 0.5766
C27 C 0.5162(3) 0.7265(3) 0.6257(2)
H14 H 0.4792 0.6963 0.5844
N1 N 0.6432(2) 0.25094(19) 0.75766(16)
N2 N 0.5139(2) 0.25426(19) 0.61904(16)
N3 N 0.5165(2) 0.55266(19) 0.63526(17)
N4 N 0.6289(2) 0.55152(18) 0.74939(17)
H15 H 0.6693 0.5695 0.7906
O1 O 0.64092(19) 0.05741(16) 0.77435(13)
O2 O 0.5568(2) 0.10252(17) 0.84231(14)
O3 O 0.5652(2) -0.09018(18) 1.06347(14)
O4 O 0.70570(19) -0.11241(17) 1.14181(13)
O5 O 0.5646(3) 0.93678(19) 0.67423(19)
Mn1 Mn 0.58149(4) 0.14015(3) 0.68095(3)
H16 H 0.595(3) 0.957(3) 0.718(2)
O2B O 0.4432(2) 0.10252(17) 0.65769(14)
O3F O 0.5652(2) 0.09018(18) 0.56347(14)
O4F O 0.70570(19) 0.11241(17) 0.64181(13)
Mn1B Mn 0.41851(4) 0.14015(3) 0.81905(3)
Mn1F Mn 0.58149(4) -0.14015(3) 1.18095(3)
loop_
_geom_bond_atom_site_label_1
_geom_bond_atom_site_label_2
_geom_bond_site_symmetry_1
_geom_bond_site_symmetry_2
C1 C2 1_555 1_555
C2 C3 1_555 1_555
C3 H1 1_555 1_555
C4 C3 1_555 1_555
H2 C4 1_555 1_555
C5 C4 1_555 1_555
H3 C5 1_555 1_555
C6 C5 1_555 1_555
C7 C6 1_555 1_555
C8 C2 1_555 1_555
H4 C8 1_555 1_555
C9 H5 1_555 1_555
C10 C9 1_555 1_555
H6 C10 1_555 1_555
C11 C10 1_555 1_555
H7 C11 1_555 1_555
C12 C11 1_555 1_555
C13 C12 1_555 1_555
C14 C13 1_555 1_555
C15 H8 1_555 1_555
C16 C15 1_555 1_555
H9 C16 1_555 1_555
C17 C16 1_555 1_555
H10 C17 1_555 1_555
C18 C14 1_555 1_555
C19 C18 1_555 1_555
C20 C12 1_555 1_555
C21 C22 1_555 1_555
C22 C23 1_555 1_555
C23 H11 1_555 1_555
C24 C23 1_555 1_555
H12 C24 1_555 1_555
C25 C24 1_555 1_555
C26 C25 1_555 1_555
H13 C26 1_555 1_555
C27 C22 1_555 1_555
H14 C27 1_555 1_555
N1 C9 1_555 1_555
N2 C14 1_555 1_555
N3 C19 1_555 1_555
N4 C20 1_555 1_555
H15 N4 1_555 1_555
O1 C1 1_555 1_555
O2 C1 1_555 1_555
O3 C7 1_555 1_555
O4 C7 1_555 1_555
O5 C25 1_555 1_555
Mn1 N1 1_555 1_555
H16 O5 1_555 1_555
O2B Mn1 1_555 1_555
O3F Mn1 1_555 1_555
O4F Mn1 1_555 1_555
Mn1B O2 1_555 1_555
Mn1F O3 1_555 1_555
C6 C8 1_555 1_555
C13 N1 1_555 1_555
C15 N2 1_555 1_555
C17 C18 1_555 1_555
C19 C20 1_555 1_555
C21 N3 1_555 1_555
C21 N4 1_555 1_555
C26 C27 1_555 1_555
N2 Mn1 1_555 1_555
O1 Mn1 1_555 1_555
O4 Mn1F 1_555 1_555

#END
