
#######################################################################
#
#                 Cambridge Crystallographic Data Centre
#                                CCDC 
#
#######################################################################
#
# If this CIF has been generated from an entry in the Cambridge 
# Structural Database, then it will include bibliographic, chemical, 
# crystal, experimental, refinement or atomic coordinate data resulting 
# from the CCDC's data processing and validation procedures.
#
#######################################################################

data_IDUNOM01
_symmetry_cell_setting           orthorhombic
_symmetry_space_group_name_H-M   'P b c a'
_symmetry_Int_Tables_number      61
_space_group_name_Hall           '-P 2ac 2ab'
loop_
_symmetry_equiv_pos_site_id
_symmetry_equiv_pos_as_xyz
1 x,y,z
2 1/2-x,-y,1/2+z
3 -x,1/2+y,1/2-z
4 1/2+x,1/2-y,-z
5 -x,-y,-z
6 1/2+x,y,1/2-z
7 x,1/2-y,1/2+z
8 1/2-x,1/2+y,z
_cell_length_a                   14.489(3)
_cell_length_b                   15.730(3)
_cell_length_c                   16.672(3)
_cell_angle_alpha                90
_cell_angle_beta                 90
_cell_angle_gamma                90
_cell_volume                     3799.75
loop_
_atom_site_label
_atom_site_type_symbol
_atom_site_fract_x
_atom_site_fract_y
_atom_site_fract_z
Zn1 Zn 0.862446(19) 0.155870(16) 0.381219(15)
O1 O 0.77367(12) 0.24033(10) 0.43462(10)
O2 O 0.91455(12) 0.31007(10) 0.42882(10)
O3 O 0.47853(12) 0.37287(11) 0.55734(10)
O4 O 0.82828(17) 0.64370(13) 0.62741(13)
O5 O 0.93610(13) 0.59408(12) 0.53782(13)
H1 H 0.9698 0.6289 0.5597
C1 C 0.77770(15) 0.37790(12) 0.49233(12)
C2 C 0.67799(16) 0.37457(14) 0.51544(13)
H2 H 0.6444 0.3264 0.5017
C3 C 0.63099(13) 0.44148(14) 0.55771(13)
C4 C 0.69090(16) 0.51200(14) 0.57662(13)
H3 H 0.6654 0.5576 0.6044
C5 C 0.79066(15) 0.51726(12) 0.55493(13)
C6 C 0.83284(17) 0.44989(14) 0.51236(13)
H4 H 0.8948 0.4525 0.4979
C7 C 0.82570(15) 0.30657(12) 0.44925(12)
C8 C 0.85108(15) 0.59100(13) 0.57795(15)
N1 N 0.91240(15) 0.20506(12) 0.27366(11)
C9 C 1.00328(19) 0.23902(16) 0.27014(15)
H5 H 1.0416 0.2325 0.3145
C10 C 1.0374(2) 0.28170(17) 0.20317(17)
H6 H 1.0973 0.3028 0.2014
C11 C 0.9756(3) 0.29125(19) 0.13791(17)
H7 H 0.9949 0.3200 0.0921
C12 C 0.8822(3) 0.25663(19) 0.14136(16)
H8 H 0.8424 0.2632 0.0981
C13 C 0.8533(2) 0.21390(16) 0.20956(15)
H9 H 0.7941 0.1913 0.2120
N2 N 0.75436(14) 0.07251(12) 0.34774(11)
C14 C 0.7742(2) -0.00159(16) 0.31107(15)
H10 H 0.8352 -0.0183 0.3038
C15 C 0.7000(2) -0.05440(16) 0.28340(16)
H11 H 0.7142 -0.1054 0.2580
C16 C 0.6031(2) -0.03131(18) 0.29357(17)
H12 H 0.5564 -0.0666 0.2746
C17 C 0.5824(2) 0.04399(18) 0.33192(17)
H13 H 0.5218 0.0614 0.3403
C18 C 0.65915(18) 0.09392(16) 0.35804(16)
H14 H 0.6460 0.1448 0.3840
C19 C 0.53131(13) 0.43658(15) 0.58364(13)
O6 O 0.49446(14) 0.48941(13) 0.63102(12)
Zn1C Zn 0.362446(19) 0.344130(16) 0.618781(15)
O3C O 0.97853(12) 0.12713(11) 0.44266(10)
loop_
_geom_bond_atom_site_label_1
_geom_bond_atom_site_label_2
_geom_bond_site_symmetry_1
_geom_bond_site_symmetry_2
Zn1 O1 1_555 1_555
O1 C7 1_555 1_555
O2 C7 1_555 1_555
O3 C19 1_555 1_555
O4 C8 1_555 1_555
O5 H1 1_555 1_555
C1 C2 1_555 1_555
C2 H2 1_555 1_555
C3 C2 1_555 1_555
C4 C3 1_555 1_555
H3 C4 1_555 1_555
C5 C4 1_555 1_555
C6 C1 1_555 1_555
H4 C6 1_555 1_555
C7 C1 1_555 1_555
C8 O5 1_555 1_555
N1 Zn1 1_555 1_555
C9 N1 1_555 1_555
H5 C9 1_555 1_555
C10 C9 1_555 1_555
H6 C10 1_555 1_555
C11 C10 1_555 1_555
H7 C11 1_555 1_555
C12 C11 1_555 1_555
H8 C12 1_555 1_555
C13 N1 1_555 1_555
H9 C13 1_555 1_555
N2 Zn1 1_555 1_555
C14 N2 1_555 1_555
H10 C14 1_555 1_555
C15 C14 1_555 1_555
H11 C15 1_555 1_555
C16 C15 1_555 1_555
H12 C16 1_555 1_555
C17 C16 1_555 1_555
H13 C17 1_555 1_555
C18 N2 1_555 1_555
H14 C18 1_555 1_555
C19 C3 1_555 1_555
O6 C19 1_555 1_555
Zn1C O3 1_555 1_555
O3C Zn1 1_555 1_555
C5 C6 1_555 1_555
C5 C8 1_555 1_555
C12 C13 1_555 1_555
C17 C18 1_555 1_555

#END
