
#######################################################################
#
#                 Cambridge Crystallographic Data Centre
#                                CCDC 
#
#######################################################################
#
# If this CIF has been generated from an entry in the Cambridge 
# Structural Database, then it will include bibliographic, chemical, 
# crystal, experimental, refinement or atomic coordinate data resulting 
# from the CCDC's data processing and validation procedures.
#
#######################################################################

data_IDUPAY
_symmetry_cell_setting           monoclinic
_symmetry_space_group_name_H-M   'P 21/c'
_symmetry_Int_Tables_number      14
_space_group_name_Hall           '-P 2ybc'
loop_
_symmetry_equiv_pos_site_id
_symmetry_equiv_pos_as_xyz
1 x,y,z
2 x,1/2-y,1/2+z
3 -x,-y,-z
4 -x,1/2+y,1/2-z
_cell_length_a                   13.421(9)
_cell_length_b                   8.007(6)
_cell_length_c                   15.313(11)
_cell_angle_alpha                90.00
_cell_angle_beta                 103.86(10)
_cell_angle_gamma                90.00
_cell_volume                     1597.65
loop_
_atom_site_label
_atom_site_type_symbol
_atom_site_fract_x
_atom_site_fract_y
_atom_site_fract_z
Cu1 Cu 0.73110(3) 0.89162(6) 0.87049(3)
S1 S 0.78049(7) 0.46858(13) 0.81777(6)
F1 F 0.96930(19) 0.4805(4) 0.8013(2)
F2 F 0.9096(2) 0.2310(3) 0.8016(2)
F3 F 0.9528(2) 0.3698(4) 0.92532(19)
O1 O 0.7268(2) 0.3477(4) 0.85910(19)
O2 O 0.8011(2) 0.6261(3) 0.8653(2)
O3 O 0.7489(2) 0.4805(4) 0.72173(19)
N1 N 0.6196(2) 0.8308(4) 0.93617(19)
N2 N 0.2837(2) 0.4524(4) 0.75930(19)
N3 N 0.8411(2) 0.9910(4) 0.9661(2)
C1 C 0.6308(3) 0.8771(5) 1.0217(2)
H1 H 0.6899 0.9401 1.0494
C2 C 0.5608(3) 0.8386(4) 1.0727(2)
H2 H 0.5722 0.8754 1.1333
C3 C 0.4749(3) 0.7463(4) 1.0342(2)
H3 H 0.4266 0.7180 1.0681
C4 C 0.4594(2) 0.6942(4) 0.9436(2)
C5 C 0.5339(2) 0.7397(4) 0.8965(2)
C6 C 0.5218(3) 0.6900(4) 0.8054(2)
H4 H 0.5728 0.7200 0.7746
C7 C 0.4393(3) 0.6010(4) 0.7618(2)
H5 H 0.4321 0.5725 0.7004
C8 C 0.3625(2) 0.5489(4) 0.8069(2)
C9 C 0.3711(2) 0.5958(4) 0.8972(2)
C10 C 0.2951(3) 0.5384(5) 0.9394(2)
H6 H 0.2977 0.5677 1.0000
C11 C 0.2177(3) 0.4401(5) 0.8918(3)
H7 H 0.1662 0.3998 0.9194
C12 C 0.2145(3) 0.3990(5) 0.8031(2)
H8 H 0.1603 0.3293 0.7719
C13 C 0.8899(3) 1.0657(5) 1.0241(3)
C14 C 0.9498(4) 1.1612(7) 1.0991(3)
H9 H 0.9816 1.0851 1.1480
H10 H 0.9048 1.2396 1.1205
H11 H 1.0034 1.2235 1.0795
C15 C 0.9089(3) 0.3825(5) 0.8378(3)
N2C N 0.7163(2) 0.9524(4) 0.74070(19)
Cu1C Cu 0.26890(3) 0.39162(6) 0.62951(3)
loop_
_geom_bond_atom_site_label_1
_geom_bond_atom_site_label_2
_geom_bond_site_symmetry_1
_geom_bond_site_symmetry_2
Cu1 O2 1_555 1_555
S1 O1 1_555 1_555
F1 C15 1_555 1_555
F2 C15 1_555 1_555
F3 C15 1_555 1_555
O2 S1 1_555 1_555
O3 S1 1_555 1_555
N1 Cu1 1_555 1_555
N2 C8 1_555 1_555
N3 Cu1 1_555 1_555
C1 N1 1_555 1_555
H1 C1 1_555 1_555
C2 C1 1_555 1_555
H2 C2 1_555 1_555
C3 C2 1_555 1_555
H3 C3 1_555 1_555
C4 C3 1_555 1_555
C5 N1 1_555 1_555
C6 C5 1_555 1_555
H4 C6 1_555 1_555
C7 C6 1_555 1_555
H5 C7 1_555 1_555
C8 C7 1_555 1_555
C9 C4 1_555 1_555
C10 C9 1_555 1_555
H6 C10 1_555 1_555
C11 C10 1_555 1_555
H7 C11 1_555 1_555
C12 N2 1_555 1_555
H8 C12 1_555 1_555
C13 N3 1_555 1_555
C14 C13 1_555 1_555
H9 C14 1_555 1_555
H10 C14 1_555 1_555
H11 C14 1_555 1_555
C15 S1 1_555 1_555
N2C Cu1 1_555 1_555
Cu1C N2 1_555 1_555
C4 C5 1_555 1_555
C8 C9 1_555 1_555
C11 C12 1_555 1_555

#END
