
#######################################################################
#
#                 Cambridge Crystallographic Data Centre
#                                CCDC 
#
#######################################################################
#
# If this CIF has been generated from an entry in the Cambridge 
# Structural Database, then it will include bibliographic, chemical, 
# crystal, experimental, refinement or atomic coordinate data resulting 
# from the CCDC's data processing and validation procedures.
#
#######################################################################

data_IDUREG
_symmetry_cell_setting           monoclinic
_symmetry_space_group_name_H-M   'P 21/c'
_symmetry_Int_Tables_number      14
_space_group_name_Hall           '-P 2ybc'
loop_
_symmetry_equiv_pos_site_id
_symmetry_equiv_pos_as_xyz
1 x,y,z
2 -x,1/2+y,1/2-z
3 -x,-y,-z
4 x,1/2-y,1/2+z
_cell_length_a                   4.0884(2)
_cell_length_b                   11.3281(7)
_cell_length_c                   9.9483(6)
_cell_angle_alpha                90
_cell_angle_beta                 93.510(5)
_cell_angle_gamma                90
_cell_volume                     459.879
loop_
_atom_site_label
_atom_site_type_symbol
_atom_site_fract_x
_atom_site_fract_y
_atom_site_fract_z
Rb1 Rb 0.23942(5) 0.400206(18) 0.172944(18)
N1 N -0.3578(5) 0.21083(18) -0.04252(19)
N2 N -0.1071(5) 0.11459(17) 0.12210(19)
C1 C -0.0849(5) 0.0561(2) 0.0059(2)
N3 N -0.2833(5) 0.21171(18) 0.08816(19)
O1 O 0.7228(5) 0.58623(15) 0.12849(18)
N4 N -0.2360(5) 0.11323(18) -0.0982(2)
H1 H 0.605(9) 0.645(3) 0.116(3)
H2 H 0.861(10) 0.596(3) 0.202(4)
N1B N 0.3578(5) -0.21083(18) 0.04252(19)
N2B N 0.1071(5) -0.11459(17) -0.12210(19)
C1B C 0.0849(5) -0.0561(2) -0.0059(2)
N3B N 0.2833(5) -0.21171(18) -0.08816(19)
N4B N 0.2360(5) -0.11323(18) 0.0982(2)
Rb1B Rb -0.23942(5) -0.400206(18) -0.172944(18)
O1B O -0.7228(5) -0.58623(15) -0.12849(18)
H1B H -0.605(9) -0.645(3) -0.116(3)
H2B H -0.861(10) -0.596(3) -0.202(4)
Rb1_2 Rb -0.76058(5) -0.599794(18) 0.172944(18)
Rb1_3 Rb -0.76058(5) 0.400206(18) 0.172944(18)
Rb1_4 Rb 1.23942(5) 0.400206(18) 0.172944(18)
Rb1A Rb -0.23942(5) -0.099794(18) 0.327056(18)
Rb1A_2 Rb 0.76058(5) -0.099794(18) 0.327056(18)
Rb1B_2 Rb -1.23942(5) -0.400206(18) -0.172944(18)
Rb1B_3 Rb 0.76058(5) -0.400206(18) -0.172944(18)
Rb1B_4 Rb 0.76058(5) 0.599794(18) -0.172944(18)
Rb1C Rb -0.76058(5) 0.099794(18) -0.327056(18)
Rb1C_2 Rb 0.23942(5) 0.099794(18) -0.327056(18)
N2A N 0.1071(5) 0.61459(17) 0.37790(19)
N2C N -0.1071(5) -0.61459(17) -0.37790(19)
N3_2 N 0.7167(5) 0.21171(18) 0.08816(19)
N3B_2 N -0.7167(5) -0.21171(18) -0.08816(19)
O1_2 O -0.2772(5) -0.41377(15) 0.12849(18)
O1_3 O -0.2772(5) 0.58623(15) 0.12849(18)
O1B_2 O 0.2772(5) -0.58623(15) -0.12849(18)
O1B_3 O 0.2772(5) 0.41377(15) -0.12849(18)
N4A N -0.7640(5) -0.38677(18) -0.4018(2)
N4A_2 N 0.2360(5) -0.38677(18) -0.4018(2)
N4C N -0.2360(5) 0.38677(18) 0.4018(2)
N4C_2 N 0.7640(5) 0.38677(18) 0.4018(2)
loop_
_geom_bond_atom_site_label_1
_geom_bond_atom_site_label_2
_geom_bond_site_symmetry_1
_geom_bond_site_symmetry_2
Rb1 N3 1_555 1_555
N1 N3 1_555 1_555
N2 C1 1_555 1_555
C1 N4 1_555 1_555
N3 N2 1_555 1_555
O1 Rb1 1_555 1_555
N4 N1 1_555 1_555
H1 O1 1_555 1_555
H2 O1 1_555 1_555
N1B N3B 1_555 1_555
N2B C1B 1_555 1_555
C1B C1 1_555 1_555
N3B N2B 1_555 1_555
N4B N1B 1_555 1_555
Rb1B N3B 1_555 1_555
O1B Rb1B 1_555 1_555
H1B O1B 1_555 1_555
H2B O1B 1_555 1_555
Rb1_2 O1B 1_555 1_555
Rb1_3 N3 1_555 1_555
Rb1_4 O1 1_555 1_555
Rb1A N2 1_555 1_555
Rb1A_2 N4B 1_555 1_555
Rb1B_2 O1B 1_555 1_555
Rb1B_3 N3B 1_555 1_555
Rb1B_4 O1 1_555 1_555
Rb1C N4 1_555 1_555
Rb1C_2 N4 1_555 1_555
N2A Rb1 1_555 1_555
N2C Rb1B 1_555 1_555
N3_2 Rb1 1_555 1_555
N3B_2 Rb1B 1_555 1_555
O1_2 Rb1B 1_555 1_555
O1_3 Rb1 1_555 1_555
O1B_2 Rb1B 1_555 1_555
O1B_3 Rb1 1_555 1_555
N4A Rb1B 1_555 1_555
N4A_2 Rb1B 1_555 1_555
N4C Rb1 1_555 1_555
N4C_2 Rb1 1_555 1_555
N2B Rb1C_2 1_555 1_555
C1B N4B 1_555 1_555
N4B Rb1A 1_555 1_555
Rb1_2 O1_2 1_555 1_555
Rb1_3 O1_3 1_555 1_555
Rb1_3 N4C 1_555 1_555
Rb1_4 N3_2 1_555 1_555
Rb1_4 N4C_2 1_555 1_555
Rb1B_2 N3B_2 1_555 1_555
Rb1B_2 N4A 1_555 1_555
Rb1B_3 O1B_2 1_555 1_555
Rb1B_3 N4A_2 1_555 1_555
Rb1B_4 O1B_3 1_555 1_555

#END
