
#######################################################################
#
#                 Cambridge Crystallographic Data Centre
#                                CCDC 
#
#######################################################################
#
# If this CIF has been generated from an entry in the Cambridge 
# Structural Database, then it will include bibliographic, chemical, 
# crystal, experimental, refinement or atomic coordinate data resulting 
# from the CCDC's data processing and validation procedures.
#
#######################################################################

data_IDURIK
_symmetry_cell_setting           monoclinic
_symmetry_space_group_name_H-M   'P 21/c'
_symmetry_Int_Tables_number      14
_space_group_name_Hall           '-P 2ybc'
loop_
_symmetry_equiv_pos_site_id
_symmetry_equiv_pos_as_xyz
1 x,y,z
2 -x,1/2+y,1/2-z
3 -x,-y,-z
4 x,1/2-y,1/2+z
_cell_length_a                   3.8505(4)
_cell_length_b                   11.3156(12)
_cell_length_c                   9.7354(10)
_cell_angle_alpha                90
_cell_angle_beta                 93.006(9)
_cell_angle_gamma                90
_cell_volume                     423.595
loop_
_atom_site_label
_atom_site_type_symbol
_atom_site_fract_x
_atom_site_fract_y
_atom_site_fract_z
C1 C 0.4178(4) 0.44232(13) 0.00542(15)
N1 N 0.3875(3) 0.38437(11) 0.12364(13)
N2 N 0.2222(3) 0.28293(11) 0.08700(13)
N3 N 0.1615(3) 0.28172(11) -0.04716(13)
N4 N 0.2807(3) 0.38192(11) -0.10282(13)
K1 K 0.74538(8) 0.09932(3) 0.17033(3)
O1 O 1.2203(3) -0.07716(10) 0.12458(12)
H1 H 1.090(6) -0.134(2) 0.112(2)
H2 H 1.340(6) -0.0912(18) 0.197(2)
C1B C 0.5822(4) 0.55768(13) -0.00542(15)
N1B N 0.6125(3) 0.61563(11) -0.12364(13)
N2B N 0.7778(3) 0.71707(11) -0.08700(13)
N3B N 0.8385(3) 0.71828(11) 0.04716(13)
N4B N 0.7193(3) 0.61808(11) 0.10282(13)
K1B K 0.25462(8) 0.90068(3) -0.17033(3)
O1B O -0.2203(3) 1.07716(10) -0.12458(12)
H1B H -0.090(6) 1.134(2) -0.112(2)
H2B H -0.340(6) 1.0912(18) -0.197(2)
N1A N 0.6125(3) -0.11563(11) 0.37636(13)
N1C N 0.3875(3) 1.11563(11) -0.37636(13)
N2_2 N 1.2222(3) 0.28293(11) 0.08700(13)
N2B_2 N -0.2222(3) 0.71707(11) -0.08700(13)
N4A N -0.2807(3) 0.88192(11) -0.39718(13)
N4A_2 N 0.7193(3) 0.88192(11) -0.39718(13)
N4C N 0.2807(3) 0.11808(11) 0.39718(13)
N4C_2 N 1.2807(3) 0.11808(11) 0.39718(13)
K1_2 K -0.25462(8) 0.09932(3) 0.17033(3)
K1_3 K -0.25462(8) 1.09932(3) 0.17033(3)
K1_4 K 1.74538(8) 0.09932(3) 0.17033(3)
K1A K 0.25462(8) 0.59932(3) 0.32967(3)
K1A_2 K 1.25462(8) 0.59932(3) 0.32967(3)
K1B_2 K -0.74538(8) 0.90068(3) -0.17033(3)
K1B_3 K 1.25462(8) -0.09932(3) -0.17033(3)
K1B_4 K 1.25462(8) 0.90068(3) -0.17033(3)
K1C K -0.25462(8) 0.40068(3) -0.32967(3)
K1C_2 K 0.74538(8) 0.40068(3) -0.32967(3)
O1_2 O 0.2203(3) -0.07716(10) 0.12458(12)
O1_3 O 0.2203(3) 0.92284(10) 0.12458(12)
O1B_2 O 0.7797(3) 0.07716(10) -0.12458(12)
O1B_3 O 0.7797(3) 1.07716(10) -0.12458(12)
loop_
_geom_bond_atom_site_label_1
_geom_bond_atom_site_label_2
_geom_bond_site_symmetry_1
_geom_bond_site_symmetry_2
C1 N1 1_555 1_555
N1 N2 1_555 1_555
N2 N3 1_555 1_555
N3 N4 1_555 1_555
N4 C1 1_555 1_555
K1 N2 1_555 1_555
O1 K1 1_555 1_555
H1 O1 1_555 1_555
H2 O1 1_555 1_555
C1B C1 1_555 1_555
N1B C1B 1_555 1_555
N2B N1B 1_555 1_555
N3B N2B 1_555 1_555
N4B C1B 1_555 1_555
K1B N2B 1_555 1_555
O1B K1B 1_555 1_555
H1B O1B 1_555 1_555
H2B O1B 1_555 1_555
N1A K1 1_555 1_555
N1C K1B 1_555 1_555
N2_2 K1 1_555 1_555
N2B_2 K1B 1_555 1_555
N4A K1B 1_555 1_555
N4A_2 K1B 1_555 1_555
N4C K1 1_555 1_555
N4C_2 K1 1_555 1_555
K1_2 N2 1_555 1_555
K1_3 O1B 1_555 1_555
K1_4 O1 1_555 1_555
K1A N1 1_555 1_555
K1A_2 N4B 1_555 1_555
K1B_2 O1B 1_555 1_555
K1B_3 O1 1_555 1_555
K1B_4 N2B 1_555 1_555
K1C N4 1_555 1_555
K1C_2 N4 1_555 1_555
O1_2 K1 1_555 1_555
O1_3 K1B 1_555 1_555
O1B_2 K1 1_555 1_555
O1B_3 K1B 1_555 1_555
N1B K1C_2 1_555 1_555
N3B N4B 1_555 1_555
N4B K1A 1_555 1_555
N2_2 K1_4 1_555 1_555
N2B_2 K1B_2 1_555 1_555
N4A K1B_2 1_555 1_555
N4A_2 K1B_4 1_555 1_555
N4C K1_2 1_555 1_555
N4C_2 K1_4 1_555 1_555
K1_2 O1_2 1_555 1_555
K1_3 O1_3 1_555 1_555
K1B_3 O1B_2 1_555 1_555
K1B_4 O1B_3 1_555 1_555

#END
