
#######################################################################
#
#                 Cambridge Crystallographic Data Centre
#                                CCDC 
#
#######################################################################
#
# If this CIF has been generated from an entry in the Cambridge 
# Structural Database, then it will include bibliographic, chemical, 
# crystal, experimental, refinement or atomic coordinate data resulting 
# from the CCDC's data processing and validation procedures.
#
#######################################################################

data_IDUTIK
_symmetry_cell_setting           rhombohedral
_symmetry_space_group_name_H-M   'R -3'
_symmetry_Int_Tables_number      148
_space_group_name_Hall           '-R 3'
loop_
_symmetry_equiv_pos_site_id
_symmetry_equiv_pos_as_xyz
1 x,y,z
2 -y,x-y,z
3 -x+y,-x,z
4 2/3+x,1/3+y,1/3+z
5 2/3-y,1/3+x-y,1/3+z
6 2/3-x+y,1/3-x,1/3+z
7 1/3+x,2/3+y,2/3+z
8 2/3+y,1/3-x+y,1/3-z
9 2/3+x-y,1/3+x,1/3-z
10 -x,-y,-z
11 y,-x+y,-z
12 x-y,x,-z
13 1/3-x,2/3-y,2/3-z
14 1/3+y,2/3-x+y,2/3-z
15 1/3+x-y,2/3+x,2/3-z
16 2/3-x,1/3-y,1/3-z
17 1/3-y,2/3+x-y,2/3+z
18 1/3-x+y,2/3-x,2/3+z
_cell_length_a                   9.3859(3)
_cell_length_b                   9.3859(3)
_cell_length_c                   23.9086(8)
_cell_angle_alpha                90
_cell_angle_beta                 90
_cell_angle_gamma                120.00
_cell_volume                     1824.05
loop_
_atom_site_label
_atom_site_type_symbol
_atom_site_fract_x
_atom_site_fract_y
_atom_site_fract_z
Cd1 Cd 0.25667(8) 0.38621(7) 0.09656(2)
O1 O 0.1121(7) 0.5001(7) 0.0588(2)
O2 O -0.0012(8) 0.3152(8) -0.0096(2)
O3 O 0.2195(8) 0.1212(8) 0.1048(2)
O4 O 0.2476(8) -0.0462(7) 0.1636(2)
C1 C 0.0341(11) 0.4467(11) 0.0135(4)
C2 C 0.2770(11) 0.0934(10) 0.1481(4)
C1I C -0.0341(11) 0.5533(11) -0.0135(4)
O1I O -0.1121(7) 0.4999(7) -0.0588(2)
O2I O 0.0012(8) 0.6848(8) 0.0096(2)
C2O C 0.3897(11) 0.2399(10) 0.1852(4)
O3O O 0.4472(8) 0.2121(8) 0.2285(2)
O4O O 0.4191(8) 0.3795(7) 0.1697(2)
O1A O 0.4999(7) 0.6120(10) 0.0588(2)
O2A O 0.6848(8) 0.6836(11) -0.0096(2)
C1A C 0.5533(11) 0.5874(16) 0.0135(4)
C1J C 0.4467(11) 0.4126(16) -0.0135(4)
O1J O 0.5001(7) 0.3880(10) -0.0588(2)
O2J O 0.3152(8) 0.3164(11) 0.0096(2)
O3A O -0.1212(8) 0.0983(11) 0.1048(2)
O4A O 0.0462(7) 0.2938(11) 0.1636(2)
C2A C -0.0934(10) 0.1836(15) 0.1481(4)
C2G C -0.2399(10) 0.1497(15) 0.1852(4)
O3G O -0.2121(8) 0.2350(11) 0.2285(2)
O4G O -0.3795(7) 0.0395(11) 0.1697(2)
Cd1I Cd -0.25667(8) 0.61379(7) -0.09656(2)
Cd1A Cd 0.61379(7) 0.87046(11) 0.09656(2)
Cd1J Cd 0.38621(7) 0.12954(11) -0.09656(2)
Cd1B Cd 0.12954(11) 0.74333(8) 0.09656(2)
Cd1K Cd -0.12954(11) 0.25667(8) -0.09656(2)
O1J_2 O -0.4999(7) 0.3880(10) -0.0588(2)
O2J_2 O -0.6848(8) 0.3164(11) 0.0096(2)
C1J_2 C -0.5533(11) 0.4126(16) -0.0135(4)
C1A_2 C -0.4467(11) 0.5874(16) 0.0135(4)
O1A_2 O -0.5001(7) 0.6120(10) 0.0588(2)
O2A_2 O -0.3152(8) 0.6836(11) -0.0096(2)
O3I O -0.2195(8) 0.8788(8) -0.1048(2)
O4I O -0.2476(8) 1.0462(7) -0.1636(2)
C2I C -0.2770(11) 0.9066(10) -0.1481(4)
C2F C -0.3897(11) 0.7601(10) -0.1852(4)
O3F O -0.4472(8) 0.7879(8) -0.2285(2)
O4F O -0.4191(8) 0.6205(7) -0.1697(2)
Cd1B_2 Cd 0.12954(11) -0.25667(8) 0.09656(2)
Cd1O Cd 0.41000(8) -0.05288(7) 0.23677(2)
Cd1H Cd 0.53713(11) 0.59000(8) 0.23677(2)
Cd1I_2 Cd 0.74333(8) 0.61379(7) -0.09656(2)
Cd1A_2 Cd -0.38621(7) -0.12954(11) 0.09656(2)
Cd1G Cd 0.05288(7) 0.46287(11) 0.23677(2)
Cd1O_2 Cd -0.59000(8) -0.05288(7) 0.23677(2)
O4J O -0.0462(7) 0.7062(11) -0.1636(2)
O1B O 0.3880(10) 0.8879(7) 0.0588(2)
O2K O 0.6836(11) 0.9988(8) 0.0096(2)
O3A_2 O 0.8788(8) 1.0983(11) 0.1048(2)
O4B O 0.7062(11) 0.7524(8) 0.1636(2)
O4G_2 O 0.6205(7) 1.0395(11) 0.1697(2)
O1K O 0.6120(10) 0.1121(7) -0.0588(2)
O2B O 0.3164(11) 0.0012(8) -0.0096(2)
O3J O 0.1212(8) -0.0983(11) -0.1048(2)
O4K O 0.2938(11) 0.2476(8) -0.1636(2)
O4P O 0.3795(7) -0.0395(11) -0.1697(2)
O3B O -0.0983(11) 0.7805(8) 0.1048(2)
O4_2 O 0.2476(8) 0.9538(7) 0.1636(2)
O4H O -0.0395(11) 0.5809(8) 0.1697(2)
O1K_2 O -0.3880(10) 0.1121(7) -0.0588(2)
O3K O 0.0983(11) 0.2195(8) -0.1048(2)
O4I_2 O -0.2476(8) 0.0462(7) -0.1636(2)
O4Q O 0.0395(11) 0.4191(8) -0.1697(2)
Cd1J_2 Cd -0.61379(7) 0.12954(11) -0.09656(2)
Cd1_2 Cd -0.74333(8) 0.38621(7) 0.09656(2)
Cd1A_3 Cd -0.38621(7) 0.87046(11) 0.09656(2)
Cd1F Cd -0.41000(8) 1.05288(7) -0.23677(2)
Cd1K_2 Cd -0.12954(11) 1.25667(8) -0.09656(2)
Cd1Q Cd -0.53713(11) 0.41000(8) -0.23677(2)
Rb1 Rb 0.0000 0.0000 0.0000
Cl1 Cl 0.3333 0.6667 0.1667
O5 O 0.6667 0.3333 0.0764(19)
loop_
_geom_bond_atom_site_label_1
_geom_bond_atom_site_label_2
_geom_bond_site_symmetry_1
_geom_bond_site_symmetry_2
Cd1 O1 1_555 1_555
O1 C1 1_555 1_555
O2 C1 1_555 1_555
O3 Cd1 1_555 1_555
O4 C2 1_555 1_555
C1 C1I 1_555 1_555
C2 O3 1_555 1_555
C1I O1I 1_555 1_555
O1I Cd1I 1_555 1_555
O2I C1I 1_555 1_555
C2O C2 1_555 1_555
O3O C2O 1_555 1_555
O4O Cd1 1_555 1_555
O1A Cd1 1_555 1_555
O2A C1A 1_555 1_555
C1A O1A 1_555 1_555
C1J C1A 1_555 1_555
O1J C1J 1_555 1_555
O2J Cd1 1_555 1_555
O3A C2A 1_555 1_555
O4A Cd1 1_555 1_555
C2A O4A 1_555 1_555
C2G C2A 1_555 1_555
O3G C2G 1_555 1_555
O4G C2G 1_555 1_555
Cd1I O1J_2 1_555 1_555
Cd1A O1A 1_555 1_555
Cd1J O1J 1_555 1_555
Cd1B O1 1_555 1_555
Cd1K O2 1_555 1_555
O1J_2 C1J_2 1_555 1_555
O2J_2 C1J_2 1_555 1_555
C1J_2 C1A_2 1_555 1_555
C1A_2 O1A_2 1_555 1_555
O1A_2 Cd1_2 1_555 1_555
O2A_2 Cd1I 1_555 1_555
O3I Cd1I 1_555 1_555
O4I C2I 1_555 1_555
C2I O3I 1_555 1_555
C2F C2I 1_555 1_555
O3F C2F 1_555 1_555
O4F Cd1I 1_555 1_555
Cd1B_2 O4 1_555 1_555
Cd1O O4 1_555 1_555
Cd1H O4O 1_555 1_555
Cd1I_2 O2A 1_555 1_555
Cd1A_2 O3A 1_555 1_555
Cd1G O4A 1_555 1_555
Cd1O_2 O4G 1_555 1_555
O4J Cd1I 1_555 1_555
O1B Cd1A 1_555 1_555
O2K Cd1A 1_555 1_555
O3A_2 Cd1A 1_555 1_555
O4B Cd1A 1_555 1_555
O4G_2 Cd1A 1_555 1_555
O1K Cd1J 1_555 1_555
O2B Cd1J 1_555 1_555
O3J Cd1J 1_555 1_555
O4K Cd1J 1_555 1_555
O4P Cd1J 1_555 1_555
O3B Cd1B 1_555 1_555
O4_2 Cd1B 1_555 1_555
O4H Cd1B 1_555 1_555
O1K_2 Cd1K 1_555 1_555
O3K Cd1K 1_555 1_555
O4I_2 Cd1K 1_555 1_555
O4Q Cd1K 1_555 1_555
Cd1J_2 O1J_2 1_555 1_555
Cd1_2 O2J_2 1_555 1_555
Cd1A_3 O1A_2 1_555 1_555
Cd1F O4I 1_555 1_555
Cd1K_2 O4I 1_555 1_555
Cd1Q O4F 1_555 1_555
O1I Cd1K 1_555 1_555
O2I Cd1B 1_555 1_555
C2O O4O 1_555 1_555
O3O Cd1O 1_555 1_555
C1J O2J 1_555 1_555
O1J Cd1I_2 1_555 1_555
O3G Cd1G 1_555 1_555
O4G Cd1A_2 1_555 1_555
Cd1B O1B 1_555 1_555
C1A_2 O2A_2 1_555 1_555
C2F O4F 1_555 1_555
O3F Cd1F 1_555 1_555
Cd1H O4B 1_555 1_555
Cd1G O4H 1_555 1_555
O1K_2 Cd1J_2 1_555 1_555

#END
