
#######################################################################
#
#                 Cambridge Crystallographic Data Centre
#                                CCDC 
#
#######################################################################
#
# If this CIF has been generated from an entry in the Cambridge 
# Structural Database, then it will include bibliographic, chemical, 
# crystal, experimental, refinement or atomic coordinate data resulting 
# from the CCDC's data processing and validation procedures.
#
#######################################################################

data_IDUVAE
_symmetry_cell_setting           monoclinic
_symmetry_space_group_name_H-M   'P 21/c'
_symmetry_Int_Tables_number      14
_space_group_name_Hall           '-P 2ybc'
loop_
_symmetry_equiv_pos_site_id
_symmetry_equiv_pos_as_xyz
1 x,y,z
2 x,1/2-y,1/2+z
3 -x,-y,-z
4 -x,1/2+y,1/2-z
_cell_length_a                   8.0648(2)
_cell_length_b                   22.9026(4)
_cell_length_c                   9.3967(3)
_cell_angle_alpha                90
_cell_angle_beta                 104.3990(10)
_cell_angle_gamma                90
_cell_volume                     1681.1
loop_
_atom_site_label
_atom_site_type_symbol
_atom_site_fract_x
_atom_site_fract_y
_atom_site_fract_z
Cd1 Cd 0.31755(8) 0.44250(3) 0.46471(7)
Cd2 Cd -0.00621(8) 0.37033(3) -0.00314(7)
Cl1 Cl 0.4605(3) 0.35257(11) 0.6111(3)
Cl2 Cl 0.1497(3) 0.36571(12) 0.2765(3)
Cl3 Cl 0.4832(3) 0.51771(12) 0.6845(3)
Cl4 Cl -0.2435(3) 0.30057(11) 0.0294(3)
Cl5 Cl 0.2212(3) 0.30088(10) -0.0608(3)
C1 C 0.0902(11) 0.4998(4) -0.0186(10)
C2 C 0.0047(12) 0.5220(4) 0.4394(10)
O1 O 0.1282(8) 0.5181(3) 0.3804(7)
O2 O 0.1511(8) 0.4507(3) -0.0334(7)
O3 O 0.1605(8) 0.5472(3) -0.0268(7)
O4 O -0.1083(8) 0.5612(3) 0.4100(7)
O5 O -0.1496(8) 0.3782(3) -0.2500(7)
C1B C -0.0902(11) 0.5002(4) 0.0186(10)
O2B O -0.1511(8) 0.5493(3) 0.0334(7)
O3B O -0.1605(8) 0.4528(3) 0.0268(7)
C2B C -0.0047(12) 0.4780(4) 0.5606(10)
O1B O -0.1282(8) 0.4819(3) 0.6196(7)
O4B O 0.1083(8) 0.4388(3) 0.5900(7)
Cl3B Cl 0.5168(3) 0.48229(12) 0.3155(3)
Cd1B Cd 0.68245(8) 0.55750(3) 0.53529(7)
Cl1B Cl 0.5395(3) 0.64743(11) 0.3889(3)
Cl2B Cl 0.8503(3) 0.63429(12) 0.7235(3)
Cd2B Cd 1.00621(8) 0.62967(3) 1.00314(7)
Cl4B Cl 1.2435(3) 0.69943(11) 0.9706(3)
Cl5B Cl 0.7788(3) 0.69912(10) 1.0608(3)
O5B O 1.1496(8) 0.6218(3) 1.2500(7)
Cd2B_2 Cd 0.00621(8) 0.62967(3) 0.00314(7)
Cd1B_2 Cd -0.31755(8) 0.55750(3) 0.53529(7)
O1B_2 O 0.8718(8) 0.4819(3) 0.6196(7)
O4_2 O 0.8917(8) 0.5612(3) 0.4100(7)
O2B_2 O 0.8489(8) 0.5493(3) 1.0334(7)
O3_2 O 1.1605(8) 0.5472(3) 0.9732(7)
Rb1 Rb 0.03927(13) 0.31032(4) 0.57410(11)
Rb2 Rb 0.48920(13) 0.27927(5) 0.28606(11)
Rb3 Rb 0.47991(12) 0.41495(5) 0.93980(12)
O6 O 0.7572(10) 0.3677(4) 0.3508(9)
loop_
_geom_bond_atom_site_label_1
_geom_bond_atom_site_label_2
_geom_bond_site_symmetry_1
_geom_bond_site_symmetry_2
Cd1 Cl1 1_555 1_555
Cd2 Cl2 1_555 1_555
Cl2 Cd1 1_555 1_555
Cl3 Cd1 1_555 1_555
Cl4 Cd2 1_555 1_555
Cl5 Cd2 1_555 1_555
C1 O2 1_555 1_555
C2 O1 1_555 1_555
O1 Cd1 1_555 1_555
O2 Cd2 1_555 1_555
O3 C1 1_555 1_555
O4 C2 1_555 1_555
O5 Cd2 1_555 1_555
C1B C1 1_555 1_555
O2B C1B 1_555 1_555
O3B Cd2 1_555 1_555
C2B C2 1_555 1_555
O1B C2B 1_555 1_555
O4B Cd1 1_555 1_555
Cl3B Cd1 1_555 1_555
Cd1B Cl3 1_555 1_555
Cl1B Cd1B 1_555 1_555
Cl2B Cd1B 1_555 1_555
Cd2B Cl2B 1_555 1_555
Cl4B Cd2B 1_555 1_555
Cl5B Cd2B 1_555 1_555
O5B Cd2B 1_555 1_555
Cd2B_2 O3 1_555 1_555
Cd1B_2 O4 1_555 1_555
O1B_2 Cd1B 1_555 1_555
O4_2 Cd1B 1_555 1_555
O2B_2 Cd2B 1_555 1_555
O3_2 Cd2B 1_555 1_555
C1B O3B 1_555 1_555
O2B Cd2B_2 1_555 1_555
C2B O4B 1_555 1_555
O1B Cd1B_2 1_555 1_555
Cl3B Cd1B 1_555 1_555

#END
