
#######################################################################
#
#                 Cambridge Crystallographic Data Centre
#                                CCDC 
#
#######################################################################
#
# If this CIF has been generated from an entry in the Cambridge 
# Structural Database, then it will include bibliographic, chemical, 
# crystal, experimental, refinement or atomic coordinate data resulting 
# from the CCDC's data processing and validation procedures.
#
#######################################################################

data_IFABIA02
_symmetry_cell_setting           monoclinic
_symmetry_space_group_name_H-M   'C c'
_symmetry_Int_Tables_number      9
_space_group_name_Hall           'C -2yc'
loop_
_symmetry_equiv_pos_site_id
_symmetry_equiv_pos_as_xyz
1 x,y,z
2 x,-y,1/2+z
3 1/2+x,1/2+y,z
4 1/2+x,1/2-y,1/2+z
_cell_length_a                   18.009(4)
_cell_length_b                   6.3432(13)
_cell_length_c                   7.2539(15)
_cell_angle_alpha                90
_cell_angle_beta                 91.42(3)
_cell_angle_gamma                90
_cell_volume                     828.393
loop_
_atom_site_label
_atom_site_type_symbol
_atom_site_fract_x
_atom_site_fract_y
_atom_site_fract_z
Zn1 Zn 0.49834(17) 0.31560(7) 0.8274(4)
C1 C 0.6014(6) 0.414(2) 0.4980(15)
C2 C 0.6761(7) 0.3170(18) 0.5447(19)
C3 C 0.7411(6) 0.447(2) 0.5010(16)
H1 H 0.7337 0.5823 0.4539
C4 C 0.6857(6) 0.132(2) 0.6129(18)
H2 H 0.6450 0.0458 0.6328
C5 C 0.8080(8) 0.379(2) 0.5263(19)
H3 H 0.8485 0.4581 0.4897
C6 C 0.7630(7) 0.055(2) 0.6607(17)
H4 H 0.7696 -0.0729 0.7217
C7 C 0.8191(9) 0.1643(19) 0.618(2)
C8 C 0.8984(7) 0.1056(19) 0.6468(15)
O1 O 0.5446(5) 0.2921(15) 0.5517(13)
O2 O 0.5969(5) 0.5719(16) 0.4076(11)
O3 O 0.9054(5) -0.0823(18) 0.7293(12)
O4 O 0.9527(5) 0.1965(12) 0.6021(11)
O5 O 0.4989(9) 0.0015(6) 0.8152(18)
O2A O 0.5969(5) 0.4281(16) 0.9076(11)
O3B O 0.4054(5) 0.4177(18) 0.7293(12)
O4C O 0.4527(5) 0.3035(12) 1.1021(11)
Zn1A Zn 0.49834(17) 0.68440(7) 0.3274(4)
Zn1B Zn 0.99834(17) -0.18440(7) 0.8274(4)
Zn1C Zn 0.99834(17) 0.18440(7) 0.3274(4)
loop_
_geom_bond_atom_site_label_1
_geom_bond_atom_site_label_2
_geom_bond_site_symmetry_1
_geom_bond_site_symmetry_2
Zn1 O1 1_555 1_555
C1 C2 1_555 1_555
C2 C3 1_555 1_555
C3 H1 1_555 1_555
C4 C2 1_555 1_555
H2 C4 1_555 1_555
C5 C3 1_555 1_555
H3 C5 1_555 1_555
C6 C4 1_555 1_555
H4 C6 1_555 1_555
C7 C5 1_555 1_555
C8 C7 1_555 1_555
O1 C1 1_555 1_555
O2 C1 1_555 1_555
O3 C8 1_555 1_555
O4 C8 1_555 1_555
O5 Zn1 1_555 1_555
O2A Zn1 1_555 1_555
O3B Zn1 1_555 1_555
O4C Zn1 1_555 1_555
Zn1A O2 1_555 1_555
Zn1B O3 1_555 1_555
Zn1C O4 1_555 1_555
C6 C7 1_555 1_555

#END
