
#######################################################################
#
#                 Cambridge Crystallographic Data Centre
#                                CCDC 
#
#######################################################################
#
# If this CIF has been generated from an entry in the Cambridge 
# Structural Database, then it will include bibliographic, chemical, 
# crystal, experimental, refinement or atomic coordinate data resulting 
# from the CCDC's data processing and validation procedures.
#
#######################################################################

data_IFACIC01
_symmetry_cell_setting           monoclinic
_symmetry_space_group_name_H-M   'C 2/c'
_symmetry_Int_Tables_number      15
_space_group_name_Hall           '-C 2yn'
loop_
_symmetry_equiv_pos_site_id
_symmetry_equiv_pos_as_xyz
1 x,y,z
2 1/2+x,1/2+y,z
3 -x,y,1/2-z
4 1/2-x,1/2+y,1/2-z
5 -x,-y,-z
6 1/2-x,1/2-y,-z
7 x,-y,1/2+z
8 1/2+x,1/2-y,1/2+z
_cell_length_a                   19.899(2)
_cell_length_b                   7.681(2)
_cell_length_c                   13.813(2)
_cell_angle_alpha                90
_cell_angle_beta                 121.534(10)
_cell_angle_gamma                90
_cell_volume                     1799.47
loop_
_atom_site_label
_atom_site_type_symbol
_atom_site_fract_x
_atom_site_fract_y
_atom_site_fract_z
Ho1 Ho 0.23106(3) -0.21751(7) 0.26996(4)
O1 O 0.3197(3) -0.4735(6) 0.6590(4)
O2 O 0.0943(3) -0.2689(7) 0.1205(5)
O3 O 0.3284(3) -0.2630(7) 0.4713(4)
O4 O 0.1767(2) -0.4827(6) 0.1604(4)
O5 O 0.3129(3) -0.4821(6) 0.3626(4)
O6 O 0.3034(4) -0.7560(8) 0.6767(5)
C1 C 0.3298(4) -0.6303(9) 0.6471(5)
C2 C 0.1056(4) -0.4261(10) 0.1074(5)
C3 C 0.3469(3) -0.4152(9) 0.4620(5)
C4 C 0.3764(4) -0.6752(10) 0.5917(7)
H1 H 0.4202 -0.7498 0.6426
H2 H 0.3426 -0.7407 0.5228
C5 C 0.4089(4) -0.5162(10) 0.5621(6)
H3 H 0.4343 -0.4394 0.6274
H4 H 0.4488 -0.5545 0.5464
C6 C 0.0395(4) -0.5448(11) 0.0305(6)
H5 H 0.0374 -0.6403 0.0749
H6 H 0.0498 -0.5938 -0.0252
O7 O 0.1667(3) -0.3872(7) 0.3475(4)
H7 H 0.1877 -0.4875 0.3676
H8 H 0.1598 -0.3493 0.3995
Ho1E Ho 0.26894(3) -0.28249(7) 0.73004(4)
Ho1C Ho 0.26894(3) -0.71751(7) 0.23004(4)
Ho1C_2 Ho 0.26894(3) 0.28249(7) 0.23004(4)
Ho1D Ho -0.23106(3) -0.78249(7) -0.26996(4)
Ho1G Ho -0.26894(3) -0.28249(7) -0.23004(4)
Ho1F Ho 0.23106(3) -0.78249(7) 0.76996(4)
Ho1F_2 Ho 0.23106(3) 0.21751(7) -0.23004(4)
Ho1E_2 Ho 0.26894(3) -0.28249(7) -0.26996(4)
O1E O 0.1803(3) -0.0265(6) 0.3410(4)
O1F O 0.3197(3) 0.4735(6) 0.1590(4)
O1C O 0.1803(3) 0.0265(6) -0.1590(4)
O2D O -0.0943(3) -0.7311(7) -0.1205(5)
O2C O 0.4057(3) 0.2311(7) 0.3795(5)
O3C O 0.1716(3) 0.2370(7) 0.0287(4)
O4D O -0.1767(2) -0.5173(6) -0.1604(4)
O4C O 0.3233(2) 0.0173(6) 0.3396(4)
O4_2 O 0.1767(2) 0.5173(6) 0.1604(4)
O5C O 0.1871(3) 0.0179(6) 0.1374(4)
O5_2 O 0.3129(3) 0.5179(6) 0.3626(4)
O6E O 0.1966(4) 0.2560(8) 0.3233(5)
O6F O 0.3034(4) -0.2440(8) 0.1767(5)
O6C O 0.1966(4) -0.2560(8) -0.1767(5)
C1C C 0.1702(4) -0.1303(9) -0.1471(5)
C2D C -0.1056(4) -0.5739(10) -0.1074(5)
C3C C 0.1531(3) 0.0848(9) 0.0380(5)
C4C C 0.1236(4) -0.1752(10) -0.0917(7)
H1C H 0.0798 -0.2498 -0.1426
H2C H 0.1574 -0.2407 -0.0228
C5C C 0.0911(4) -0.0162(10) -0.0621(6)
H3C H 0.0657 0.0606 -0.1274
H4C H 0.0512 -0.0545 -0.0464
C6D C -0.0395(4) -0.4552(11) -0.0305(6)
H5D H -0.0374 -0.3597 -0.0749
H6D H -0.0498 -0.4062 0.0252
O7C O 0.3333(3) 0.1128(7) 0.1525(4)
H7C H 0.3123 0.0125 0.1324
H8C H 0.3402 0.1507 0.1005
O8 O 0.00000 -0.476(3) 0.25000
H9 H 0.043 -0.4251 0.2421
H9B H -0.043 -0.4251 0.2579
loop_
_geom_bond_atom_site_label_1
_geom_bond_atom_site_label_2
_geom_bond_site_symmetry_1
_geom_bond_site_symmetry_2
Ho1 O2 1_555 1_555
O1 C1 1_555 1_555
O2 C2 1_555 1_555
O3 Ho1 1_555 1_555
O4 Ho1 1_555 1_555
O5 Ho1 1_555 1_555
O6 C1 1_555 1_555
C1 C4 1_555 1_555
C2 O4 1_555 1_555
C3 O3 1_555 1_555
C4 H1 1_555 1_555
H2 C4 1_555 1_555
C5 C3 1_555 1_555
H3 C5 1_555 1_555
H4 C5 1_555 1_555
C6 C2 1_555 1_555
H5 C6 1_555 1_555
H6 C6 1_555 1_555
O7 Ho1 1_555 1_555
H7 O7 1_555 1_555
H8 O7 1_555 1_555
O8 H9 1_555 1_555
Ho1E O1 1_555 1_555
Ho1C O4 1_555 1_555
Ho1C_2 O1F 1_555 1_555
Ho1D O2D 1_555 1_555
Ho1G O4D 1_555 1_555
Ho1F O6 1_555 1_555
Ho1F_2 O1C 1_555 1_555
Ho1E_2 O6C 1_555 1_555
O1E Ho1 1_555 1_555
O1C C1C 1_555 1_555
O2D C2D 1_555 1_555
O2C Ho1C_2 1_555 1_555
O3C Ho1C_2 1_555 1_555
O4D Ho1D 1_555 1_555
O4C Ho1 1_555 1_555
O4_2 Ho1C_2 1_555 1_555
O5C Ho1 1_555 1_555
O5_2 Ho1C_2 1_555 1_555
O6E Ho1C_2 1_555 1_555
O6F Ho1 1_555 1_555
O6C C1C 1_555 1_555
C1C C4C 1_555 1_555
C2D O4D 1_555 1_555
C3C O3C 1_555 1_555
C4C H1C 1_555 1_555
H2C C4C 1_555 1_555
C5C C3C 1_555 1_555
H3C C5C 1_555 1_555
H4C C5C 1_555 1_555
C6D C6 1_555 1_555
H5D C6D 1_555 1_555
H6D C6D 1_555 1_555
O7C Ho1C_2 1_555 1_555
H7C O7C 1_555 1_555
H8C O7C 1_555 1_555
H9B O8 1_555 1_555
O5 C3 1_555 1_555
O5 Ho1C 1_555 1_555
C4 C5 1_555 1_555
Ho1C_2 O4C 1_555 1_555
Ho1C_2 O5C 1_555 1_555
O5C C3C 1_555 1_555
C2D C6D 1_555 1_555
C4C C5C 1_555 1_555

#END
