
#######################################################################
#
#                 Cambridge Crystallographic Data Centre
#                                CCDC 
#
#######################################################################
#
# If this CIF has been generated from an entry in the Cambridge 
# Structural Database, then it will include bibliographic, chemical, 
# crystal, experimental, refinement or atomic coordinate data resulting 
# from the CCDC's data processing and validation procedures.
#
#######################################################################

data_IFACIC
_symmetry_cell_setting           monoclinic
_symmetry_space_group_name_H-M   'C 2/c'
_symmetry_Int_Tables_number      15
_space_group_name_Hall           '-C 2yn'
loop_
_symmetry_equiv_pos_site_id
_symmetry_equiv_pos_as_xyz
1 x,y,z
2 1/2+x,1/2+y,z
3 -x,y,1/2-z
4 1/2-x,1/2+y,1/2-z
5 -x,-y,-z
6 1/2-x,1/2-y,-z
7 x,-y,1/2+z
8 1/2+x,1/2-y,1/2+z
_cell_length_a                   19.852(4)
_cell_length_b                   7.6723(15)
_cell_length_c                   13.800(3)
_cell_angle_alpha                90
_cell_angle_beta                 121.46(3)
_cell_angle_gamma                90
_cell_volume                     1792.92
loop_
_atom_site_label
_atom_site_type_symbol
_atom_site_fract_x
_atom_site_fract_y
_atom_site_fract_z
Ho1 Ho 0.268916(8) 0.217620(18) 0.230019(11)
O1 O 0.33298(16) 0.3880(3) 0.1523(2)
H1 H 0.3233 0.4962 0.1396
H2 H 0.3293 0.3492 0.0920
O2 O 0.17158(17) 0.2638(3) 0.0283(2)
O3 O 0.18728(14) 0.4826(3) 0.1376(2)
O4 O 0.17989(16) 0.4732(3) -0.1589(2)
O5 O 0.19710(19) 0.7549(4) -0.1754(3)
O6 O 0.32311(13) 0.4827(3) 0.3393(2)
O7 O 0.40612(16) 0.2702(3) 0.3790(2)
C1 C 0.15305(18) 0.4153(5) 0.0384(3)
C2 C 0.0906(2) 0.5164(5) -0.0623(3)
H3 H 0.0651 0.4394 -0.1276
H4 H 0.0509 0.5551 -0.0464
C3 C 0.1230(2) 0.6751(5) -0.0923(3)
H5 H 0.1564 0.7413 -0.0236
H6 H 0.0791 0.7493 -0.1438
C4 C 0.17016(19) 0.6294(4) -0.1471(3)
C5 C 0.39427(19) 0.4243(5) 0.3927(3)
C6 C 0.4601(2) 0.5446(5) 0.4695(3)
H7 H 0.4496 0.5925 0.5254
H8 H 0.4617 0.6407 0.4251
Ho1C Ho 0.231084(8) -0.282380(18) 0.269981(11)
Ho1C_2 Ho 0.231084(8) 0.717620(18) 0.269981(11)
Ho1E Ho 0.231084(8) 0.282380(18) -0.230019(11)
Ho1F Ho 0.268916(8) 0.782380(18) -0.269981(11)
Ho1G Ho 0.768916(8) 0.282380(18) 0.730019(11)
Ho1D Ho 0.731084(8) 0.782380(18) 0.769981(11)
Ho1F_2 Ho 0.268916(8) -0.217620(18) 0.730019(11)
Ho1E_2 Ho 0.231084(8) 0.282380(18) 0.769981(11)
O1C O 0.16702(16) -0.1120(3) 0.3477(2)
H1C H 0.1767 -0.0038 0.3604
H2C H 0.1707 -0.1508 0.4080
O2C O 0.32842(17) -0.2362(3) 0.4717(2)
O3C O 0.31272(14) -0.0174(3) 0.3624(2)
O3_2 O 0.18728(14) -0.5174(3) 0.1376(2)
O4C O 0.32011(16) -0.0268(3) 0.6589(2)
O4E O 0.32011(16) 0.0268(3) 0.1589(2)
O4F O 0.17989(16) -0.4732(3) 0.3411(2)
O5C O 0.30290(19) 0.2549(4) 0.6754(3)
O5F O 0.19710(19) 0.2451(4) 0.3246(3)
O5E O 0.30290(19) -0.2549(4) 0.1754(3)
O6D O 0.67689(13) 0.5173(3) 0.6607(2)
O6C O 0.17689(13) -0.0173(3) 0.1607(2)
O6_2 O 0.32311(13) -0.5173(3) 0.3393(2)
O7D O 0.59388(16) 0.7298(3) 0.6210(2)
O7C O 0.09388(16) -0.2298(3) 0.1210(2)
C1C C 0.34695(18) -0.0847(5) 0.4616(3)
C2C C 0.4094(2) 0.0164(5) 0.5623(3)
H3C H 0.4349 -0.0606 0.6276
H4C H 0.4491 0.0551 0.5464
C3C C 0.3770(2) 0.1751(5) 0.5923(3)
H5C H 0.3436 0.2413 0.5236
H6C H 0.4209 0.2493 0.6438
C4C C 0.32984(19) 0.1294(4) 0.6471(3)
C5D C 0.60573(19) 0.5757(5) 0.6073(3)
C6D C 0.5399(2) 0.4554(5) 0.5305(3)
H7D H 0.5504 0.4075 0.4746
H8D H 0.5383 0.3593 0.5749
O8 O 0.5000 0.4745(15) 0.2500
H9 H 0.4608 0.4201 0.2445
H9B H 0.5392 0.4201 0.2555
loop_
_geom_bond_atom_site_label_1
_geom_bond_atom_site_label_2
_geom_bond_site_symmetry_1
_geom_bond_site_symmetry_2
Ho1 O1 1_555 1_555
O1 H1 1_555 1_555
H2 O1 1_555 1_555
O2 Ho1 1_555 1_555
O3 Ho1 1_555 1_555
O4 C4 1_555 1_555
O5 C4 1_555 1_555
O6 Ho1 1_555 1_555
O7 Ho1 1_555 1_555
C1 O2 1_555 1_555
C2 C1 1_555 1_555
H3 C2 1_555 1_555
H4 C2 1_555 1_555
C3 C2 1_555 1_555
H5 C3 1_555 1_555
H6 C3 1_555 1_555
C4 C3 1_555 1_555
C5 O6 1_555 1_555
C6 C5 1_555 1_555
H7 C6 1_555 1_555
H8 C6 1_555 1_555
O8 H9 1_555 1_555
Ho1C O1C 1_555 1_555
Ho1C_2 O3 1_555 1_555
Ho1E O4 1_555 1_555
Ho1F O5 1_555 1_555
Ho1G O6D 1_555 1_555
Ho1D O6D 1_555 1_555
Ho1F_2 O4C 1_555 1_555
Ho1E_2 O5C 1_555 1_555
O1C H1C 1_555 1_555
H2C O1C 1_555 1_555
O2C Ho1C 1_555 1_555
O3C Ho1 1_555 1_555
O3_2 Ho1C 1_555 1_555
O4C C4C 1_555 1_555
O4E Ho1 1_555 1_555
O4F Ho1C 1_555 1_555
O5C C4C 1_555 1_555
O5F Ho1 1_555 1_555
O5E Ho1C 1_555 1_555
O6D C5D 1_555 1_555
O6C Ho1 1_555 1_555
O6_2 Ho1C 1_555 1_555
O7D Ho1D 1_555 1_555
O7C Ho1C 1_555 1_555
C1C O2C 1_555 1_555
C2C C1C 1_555 1_555
H3C C2C 1_555 1_555
H4C C2C 1_555 1_555
C3C C2C 1_555 1_555
H5C C3C 1_555 1_555
H6C C3C 1_555 1_555
C4C C3C 1_555 1_555
C5D O7D 1_555 1_555
C6D C6 1_555 1_555
H7D C6D 1_555 1_555
H8D C6D 1_555 1_555
H9B O8 1_555 1_555
O3 C1 1_555 1_555
O6 Ho1C_2 1_555 1_555
O7 C5 1_555 1_555
Ho1C O3C 1_555 1_555
Ho1C O6C 1_555 1_555
O3C C1C 1_555 1_555
C5D C6D 1_555 1_555

#END
