
#######################################################################
#
#                 Cambridge Crystallographic Data Centre
#                                CCDC 
#
#######################################################################
#
# If this CIF has been generated from an entry in the Cambridge 
# Structural Database, then it will include bibliographic, chemical, 
# crystal, experimental, refinement or atomic coordinate data resulting 
# from the CCDC's data processing and validation procedures.
#
#######################################################################

data_IFACIB
_symmetry_cell_setting           tetragonal
_symmetry_space_group_name_H-M   'I -4'
_symmetry_Int_Tables_number      82
_space_group_name_Hall           'I -4'
loop_
_symmetry_equiv_pos_site_id
_symmetry_equiv_pos_as_xyz
1 x,y,z
2 -x,-y,z
3 y,-x,-z
4 -y,x,-z
5 1/2+x,1/2+y,1/2+z
6 1/2-x,1/2-y,1/2+z
7 1/2+y,1/2-x,1/2-z
8 1/2-y,1/2+x,1/2-z
_cell_length_a                   12.3336(5)
_cell_length_b                   12.3336(5)
_cell_length_c                   9.0174(5)
_cell_angle_alpha                90
_cell_angle_beta                 90
_cell_angle_gamma                90
_cell_volume                     1371.71
loop_
_atom_site_label
_atom_site_type_symbol
_atom_site_fract_x
_atom_site_fract_y
_atom_site_fract_z
Ag1 Ag 1.5000 1.5000 0.66567(4)
Ag2 Ag 1.0000 1.0000 0.5000
Ag3 Ag 1.0000 1.5000 0.7500
N1 N 1.42234(18) 1.3450(2) 0.6500(3)
C1 C 1.4781(2) 1.2540(3) 0.6223(4)
H1 H 1.553(2) 1.259(2) 0.619(3)
C2 C 1.4280(3) 1.1561(3) 0.5931(4)
H2 H 1.475(3) 1.092(3) 0.571(3)
C3 C 1.3160(3) 1.1516(3) 0.5920(3)
H3 H 1.281(3) 1.092(3) 0.568(3)
C4 C 1.2585(2) 1.2448(2) 0.6230(3)
C5 C 1.3139(2) 1.3396(2) 0.6522(3)
H4 H 1.278(2) 1.402(2) 0.680(3)
S1 S 1.11527(5) 1.24317(6) 0.63200(9)
O1 O 1.08009(19) 1.35386(19) 0.6169(3)
O2 O 1.07992(18) 1.17519(19) 0.5120(4)
O3 O 1.09123(19) 1.1959(2) 0.7744(4)
N1A N 0.57766(18) 0.6550(2) 0.6500(3)
C1A C 0.5219(2) 0.7460(3) 0.6223(4)
H1A H 0.447(2) 0.741(2) 0.619(3)
C2A C 0.5720(3) 0.8439(3) 0.5931(4)
H2A H 0.525(3) 0.908(3) 0.571(3)
C3A C 0.6840(3) 0.8484(3) 0.5920(3)
H3A H 0.719(3) 0.908(3) 0.568(3)
C4A C 0.7415(2) 0.7552(2) 0.6230(3)
C5A C 0.6861(2) 0.6604(2) 0.6522(3)
H4A H 0.722(2) 0.598(2) 0.680(3)
S1A S 0.88473(5) 0.75683(6) 0.63200(9)
O1A O 0.91991(19) 0.64614(19) 0.6169(3)
O2A O 0.92008(18) 0.82481(19) 0.5120(4)
O3A O 0.90877(19) 0.8041(2) 0.7744(4)
N1B N 1.3450(2) 0.57766(18) 0.3500(3)
C1B C 1.2540(3) 0.5219(2) 0.3777(4)
H1B H 1.259(2) 0.447(2) 0.381(3)
C2B C 1.1561(3) 0.5720(3) 0.4069(4)
H2B H 1.092(3) 0.525(3) 0.429(3)
C3B C 1.1516(3) 0.6840(3) 0.4080(3)
H3B H 1.092(3) 0.719(3) 0.432(3)
C4B C 1.2448(2) 0.7415(2) 0.3770(3)
C5B C 1.3396(2) 0.6861(2) 0.3478(3)
H4B H 1.402(2) 0.722(2) 0.320(3)
S1B S 1.24317(6) 0.88473(5) 0.36800(9)
O1B O 1.35386(19) 0.91991(19) 0.3831(3)
O2B O 1.17519(19) 0.92008(18) 0.4880(4)
O3B O 1.1959(2) 0.90877(19) 0.2256(4)
N1C N 0.6550(2) 1.42234(18) 0.3500(3)
C1C C 0.7460(3) 1.4781(2) 0.3777(4)
H1C H 0.741(2) 1.553(2) 0.381(3)
C2C C 0.8439(3) 1.4280(3) 0.4069(4)
H2C H 0.908(3) 1.475(3) 0.429(3)
C3C C 0.8484(3) 1.3160(3) 0.4080(3)
H3C H 0.908(3) 1.281(3) 0.432(3)
C4C C 0.7552(2) 1.2585(2) 0.3770(3)
C5C C 0.6604(2) 1.3139(2) 0.3478(3)
H4C H 0.598(2) 1.278(2) 0.320(3)
S1C S 0.75683(6) 1.11527(5) 0.36800(9)
O1C O 0.64614(19) 1.08009(19) 0.3831(3)
O2C O 0.82481(19) 1.07992(18) 0.4880(4)
O3C O 0.8041(2) 1.09123(19) 0.2256(4)
Ag1A Ag 0.5000 0.5000 0.66567(4)
Ag1B Ag 1.5000 1.5000 0.33433(4)
Ag2D Ag 1.5000 1.5000 1.0000
N1A_2 N 1.57766(18) 1.6550(2) 0.6500(3)
Ag1D Ag 1.0000 1.0000 0.16567(4)
Ag1F Ag 1.0000 1.0000 0.83433(4)
O1A_2 O 0.91991(19) 1.64614(19) 0.6169(3)
O1F O 0.85386(19) 1.41991(19) 0.8831(3)
O1G O 1.14614(19) 1.58009(19) 0.8831(3)
Ag3_2 Ag 1.0000 0.5000 0.7500
Ag1B_2 Ag 1.5000 0.5000 0.33433(4)
Ag3B Ag 1.5000 1.0000 0.2500
Ag1B_3 Ag 0.5000 1.5000 0.33433(4)
Ag3B_2 Ag 0.5000 1.0000 0.2500
Ag1B_4 Ag 0.5000 0.5000 0.33433(4)
Ag2D_2 Ag 0.5000 0.5000 1.0000
N1_2 N 0.42234(18) 0.3450(2) 0.6500(3)
loop_
_geom_bond_atom_site_label_1
_geom_bond_atom_site_label_2
_geom_bond_site_symmetry_1
_geom_bond_site_symmetry_2
Ag1 N1 1_555 1_555
Ag2 O2 1_555 1_555
Ag3 O1 1_555 1_555
N1 C1 1_555 1_555
C1 H1 1_555 1_555
C2 C1 1_555 1_555
H2 C2 1_555 1_555
C3 C2 1_555 1_555
H3 C3 1_555 1_555
C4 C3 1_555 1_555
C5 N1 1_555 1_555
H4 C5 1_555 1_555
S1 C4 1_555 1_555
O1 S1 1_555 1_555
O2 S1 1_555 1_555
O3 S1 1_555 1_555
N1A C1A 1_555 1_555
C1A H1A 1_555 1_555
C2A C1A 1_555 1_555
H2A C2A 1_555 1_555
C3A C2A 1_555 1_555
H3A C3A 1_555 1_555
C4A C3A 1_555 1_555
C5A N1A 1_555 1_555
H4A C5A 1_555 1_555
S1A C4A 1_555 1_555
O1A S1A 1_555 1_555
O2A Ag2 1_555 1_555
O3A S1A 1_555 1_555
N1B C1B 1_555 1_555
C1B H1B 1_555 1_555
C2B C1B 1_555 1_555
H2B C2B 1_555 1_555
C3B C2B 1_555 1_555
H3B C3B 1_555 1_555
C4B C3B 1_555 1_555
C5B N1B 1_555 1_555
H4B C5B 1_555 1_555
S1B C4B 1_555 1_555
O1B S1B 1_555 1_555
O2B Ag2 1_555 1_555
O3B S1B 1_555 1_555
N1C C1C 1_555 1_555
C1C H1C 1_555 1_555
C2C C1C 1_555 1_555
H2C C2C 1_555 1_555
C3C C2C 1_555 1_555
H3C C3C 1_555 1_555
C4C C3C 1_555 1_555
C5C N1C 1_555 1_555
H4C C5C 1_555 1_555
S1C C4C 1_555 1_555
O1C S1C 1_555 1_555
O2C Ag2 1_555 1_555
O3C S1C 1_555 1_555
Ag1A N1A 1_555 1_555
Ag1B Ag1 1_555 1_555
Ag2D Ag1 1_555 1_555
N1A_2 Ag1 1_555 1_555
Ag1D Ag2 1_555 1_555
Ag1F Ag2 1_555 1_555
O1A_2 Ag3 1_555 1_555
O1F Ag3 1_555 1_555
O1G Ag3 1_555 1_555
Ag3_2 O1A 1_555 1_555
Ag1B_2 N1B 1_555 1_555
Ag3B O1B 1_555 1_555
Ag1B_3 N1C 1_555 1_555
Ag3B_2 O1C 1_555 1_555
Ag1B_4 Ag1A 1_555 1_555
Ag2D_2 Ag1A 1_555 1_555
N1_2 Ag1A 1_555 1_555
C4 C5 1_555 1_555
C4A C5A 1_555 1_555
S1A O2A 1_555 1_555
C4B C5B 1_555 1_555
S1B O2B 1_555 1_555
C4C C5C 1_555 1_555
S1C O2C 1_555 1_555

#END
