
#######################################################################
#
#                 Cambridge Crystallographic Data Centre
#                                CCDC 
#
#######################################################################
#
# If this CIF has been generated from an entry in the Cambridge 
# Structural Database, then it will include bibliographic, chemical, 
# crystal, experimental, refinement or atomic coordinate data resulting 
# from the CCDC's data processing and validation procedures.
#
#######################################################################

data_IFACAT02
_symmetry_cell_setting           monoclinic
_symmetry_space_group_name_H-M   'P 21/c'
_symmetry_Int_Tables_number      14
_space_group_name_Hall           '-P 2ybc'
loop_
_symmetry_equiv_pos_site_id
_symmetry_equiv_pos_as_xyz
1 x,y,z
2 -x,1/2+y,1/2-z
3 -x,-y,-z
4 x,1/2-y,1/2+z
_cell_length_a                   12.968(2)
_cell_length_b                   9.761(3)
_cell_length_c                   18.336(2)
_cell_angle_alpha                90
_cell_angle_beta                 108.69(3)
_cell_angle_gamma                90
_cell_volume                     2198.59
loop_
_atom_site_label
_atom_site_type_symbol
_atom_site_fract_x
_atom_site_fract_y
_atom_site_fract_z
Zn1 Zn 0.76557(5) 0.05221(5) 0.06460(3)
Zn2 Zn 0.5000 0.0000 0.0000
O1 O 0.5684(3) -0.0444(3) 0.11715(19)
O2 O 0.7527(3) -0.0459(3) 0.15464(18)
O3 O 0.5898(3) -0.3593(3) 0.4645(2)
O4 O 0.7620(3) -0.4258(3) 0.47858(18)
C1 C 0.6617(5) -0.0709(5) 0.1636(3)
C2 C 0.6644(4) -0.1422(5) 0.2386(3)
C3 C 0.5693(4) -0.1675(5) 0.2548(3)
H1 H 0.5015 -0.1382 0.2200
C4 C 0.5729(4) -0.2364(5) 0.3223(3)
H2 H 0.5079 -0.2529 0.3341
C5 C 0.6725(4) -0.2805(5) 0.3721(3)
C6 C 0.7678(4) -0.2539(5) 0.3566(3)
H3 H 0.8355 -0.2844 0.3910
C7 C 0.7641(4) -0.1820(5) 0.2902(3)
H4 H 0.8296 -0.1603 0.2801
C8 C 0.6737(5) -0.3630(5) 0.4443(3)
O5 O 0.6226(3) 0.1538(3) 0.00540(19)
O6 O 0.7326(3) 0.2773(3) 0.0994(2)
C9 C 0.6448(4) 0.2689(5) 0.0447(3)
C10 C 0.5691(4) 0.3882(5) 0.0206(3)
C11 C 0.5824(5) 0.4994(5) 0.0707(3)
H5 H 0.6384 0.4984 0.1192
C12 C 0.4867(4) 0.3887(5) -0.0492(3)
H6 H 0.4773 0.3121 -0.0827
O7 O 0.9194(3) 0.1030(3) 0.0860(2)
H7 H 0.9830 0.0460 0.0985
H8 H 0.9589 0.1834 0.1092
Zn1B Zn 0.23443(5) -0.05221(5) -0.06460(3)
Zn1C Zn 0.76557(5) -0.55221(5) 0.56460(3)
Zn1B_2 Zn 0.23443(5) 0.94779(5) -0.06460(3)
Zn1A Zn 0.23443(5) 0.55221(5) -0.56460(3)
Zn2C Zn 0.5000 -0.5000 0.5000
Zn2_2 Zn 0.5000 1.0000 0.0000
Zn2C_2 Zn 0.5000 0.5000 -0.5000
O1B O 0.4316(3) 0.0444(3) -0.11715(19)
O2B O 0.2473(3) 0.0459(3) -0.15464(18)
O3B O 0.4102(3) 0.3593(3) -0.4645(2)
O3C O 0.5898(3) -0.1407(3) -0.0355(2)
O3A O 0.4102(3) 0.1407(3) 0.0355(2)
O4B O 0.2380(3) 0.4258(3) -0.47858(18)
O4C O 0.7620(3) -0.0742(3) -0.02142(18)
O4A O 0.2380(3) 0.0742(3) 0.02142(18)
C1B C 0.3383(5) 0.0709(5) -0.1636(3)
C2B C 0.3356(4) 0.1422(5) -0.2386(3)
C3B C 0.4307(4) 0.1675(5) -0.2548(3)
H1B H 0.4985 0.1382 -0.2200
C4B C 0.4271(4) 0.2364(5) -0.3223(3)
H2B H 0.4921 0.2529 -0.3341
C5B C 0.3275(4) 0.2805(5) -0.3721(3)
C6B C 0.2322(4) 0.2539(5) -0.3566(3)
H3B H 0.1645 0.2844 -0.3910
C7B C 0.2359(4) 0.1820(5) -0.2902(3)
H4B H 0.1704 0.1603 -0.2801
C8B C 0.3263(5) 0.3630(5) -0.4443(3)
O5B O 0.3774(3) 0.8462(3) -0.00540(19)
O5B_2 O 0.3774(3) -0.1538(3) -0.00540(19)
O6B O 0.2674(3) 0.7227(3) -0.0994(2)
O6B_2 O 0.2674(3) -0.2773(3) -0.0994(2)
C9B C 0.3552(4) 0.7311(5) -0.0447(3)
C10B C 0.4309(4) 0.6118(5) -0.0206(3)
C11B C 0.4176(5) 0.5006(5) -0.0707(3)
H5B H 0.3616 0.5016 -0.1192
C12B C 0.5133(4) 0.6113(5) 0.0492(3)
H6B H 0.5227 0.6879 0.0827
O7B O 0.0806(3) -0.1030(3) -0.0860(2)
H7B H 0.0170 -0.0460 -0.0985
H8B H 0.0411 -0.1834 -0.1092
O8 O 0.9733(3) 0.3638(4) 0.0933(2)
N1 N 0.9143(4) 0.5693(5) 0.1243(3)
C13 C 0.9490(5) 0.4420(7) 0.1399(4)
H9 H 0.9560 0.4071 0.1896
C14 C 0.8851(6) 0.6538(6) 0.1809(4)
H10 H 0.8071 0.6742 0.1618
H11 H 0.9265 0.7396 0.1889
H12 H 0.9023 0.6040 0.2297
C15 C 0.8886(6) 0.6236(6) 0.0465(4)
H13 H 0.9371 0.5822 0.0212
H14 H 0.8986 0.7232 0.0488
H15 H 0.8129 0.6019 0.0172
O9 O 0.0720(3) 0.9293(4) 0.1568(2)
N2 N 0.1872(4) 0.7607(5) 0.1466(3)
C16 C 0.1128(5) 0.8567(6) 0.1162(4)
H16 H 0.0897 0.8709 0.0621
C17 C 0.2249(6) 0.7342(7) 0.2277(3)
H17 H 0.2160 0.8167 0.2555
H18 H 0.3020 0.7086 0.2437
H19 H 0.1826 0.6590 0.2394
C18 C 0.2296(6) 0.6747(6) 0.0970(4)
H20 H 0.1924 0.6982 0.0429
H21 H 0.2166 0.5781 0.1055
H22 H 0.3079 0.6906 0.1093
loop_
_geom_bond_atom_site_label_1
_geom_bond_atom_site_label_2
_geom_bond_site_symmetry_1
_geom_bond_site_symmetry_2
Zn1 O2 1_555 1_555
Zn2 O1 1_555 1_555
O1 C1 1_555 1_555
O2 C1 1_555 1_555
O3 C8 1_555 1_555
O4 C8 1_555 1_555
C1 C2 1_555 1_555
C2 C3 1_555 1_555
C3 H1 1_555 1_555
C4 C3 1_555 1_555
H2 C4 1_555 1_555
C5 C4 1_555 1_555
C6 C5 1_555 1_555
H3 C6 1_555 1_555
C7 C2 1_555 1_555
H4 C7 1_555 1_555
C8 C5 1_555 1_555
O5 Zn1 1_555 1_555
O6 Zn1 1_555 1_555
C9 O5 1_555 1_555
C10 C9 1_555 1_555
C11 C10 1_555 1_555
H5 C11 1_555 1_555
C12 C10 1_555 1_555
H6 C12 1_555 1_555
O7 Zn1 1_555 1_555
H7 O7 1_555 1_555
H8 O7 1_555 1_555
O8 C13 1_555 1_555
N1 C13 1_555 1_555
C13 H9 1_555 1_555
C14 N1 1_555 1_555
H10 C14 1_555 1_555
H11 C14 1_555 1_555
H12 C14 1_555 1_555
C15 N1 1_555 1_555
H13 C15 1_555 1_555
H14 C15 1_555 1_555
H15 C15 1_555 1_555
O9 C16 1_555 1_555
N2 C16 1_555 1_555
C16 H16 1_555 1_555
C17 N2 1_555 1_555
H17 C17 1_555 1_555
H18 C17 1_555 1_555
H19 C17 1_555 1_555
C18 N2 1_555 1_555
H20 C18 1_555 1_555
H21 C18 1_555 1_555
H22 C18 1_555 1_555
Zn1B O2B 1_555 1_555
Zn1C O4 1_555 1_555
Zn1B_2 O5B 1_555 1_555
Zn1A O4B 1_555 1_555
Zn2C O3 1_555 1_555
Zn2_2 O5B 1_555 1_555
Zn2C_2 O3B 1_555 1_555
O1B Zn2 1_555 1_555
O2B C1B 1_555 1_555
O3B C8B 1_555 1_555
O3C Zn2 1_555 1_555
O3A Zn2 1_555 1_555
O4B C8B 1_555 1_555
O4C Zn1 1_555 1_555
O4A Zn1B 1_555 1_555
C1B O1B 1_555 1_555
C2B C1B 1_555 1_555
C3B C2B 1_555 1_555
H1B C3B 1_555 1_555
C4B C3B 1_555 1_555
H2B C4B 1_555 1_555
C5B C4B 1_555 1_555
C6B C5B 1_555 1_555
H3B C6B 1_555 1_555
C7B C2B 1_555 1_555
H4B C7B 1_555 1_555
C8B C5B 1_555 1_555
O5B C9B 1_555 1_555
O5B_2 Zn2 1_555 1_555
O6B Zn1B_2 1_555 1_555
O6B_2 Zn1B 1_555 1_555
C9B O6B 1_555 1_555
C10B C9B 1_555 1_555
C11B C12 1_555 1_555
H5B C11B 1_555 1_555
C12B C11 1_555 1_555
H6B C12B 1_555 1_555
O7B Zn1B 1_555 1_555
H7B O7B 1_555 1_555
H8B O7B 1_555 1_555
Zn2 O5 1_555 1_555
C6 C7 1_555 1_555
O6 C9 1_555 1_555
Zn1B O5B_2 1_555 1_555
C6B C7B 1_555 1_555
C10B C11B 1_555 1_555
C10B C12B 1_555 1_555

#END
