
#######################################################################
#
#                 Cambridge Crystallographic Data Centre
#                                CCDC 
#
#######################################################################
#
# If this CIF has been generated from an entry in the Cambridge 
# Structural Database, then it will include bibliographic, chemical, 
# crystal, experimental, refinement or atomic coordinate data resulting 
# from the CCDC's data processing and validation procedures.
#
#######################################################################

data_IFAPEL
_symmetry_cell_setting           monoclinic
_symmetry_space_group_name_H-M   'P 2/c'
_symmetry_Int_Tables_number      13
_space_group_name_Hall           '-P 2yc'
loop_
_symmetry_equiv_pos_site_id
_symmetry_equiv_pos_as_xyz
1 x,y,z
2 -x,y,1/2-z
3 -x,-y,-z
4 x,-y,1/2+z
_cell_length_a                   11.5885(10)
_cell_length_b                   11.7701(10)
_cell_length_c                   16.2916(14)
_cell_angle_alpha                90
_cell_angle_beta                 102.649(2)
_cell_angle_gamma                90
_cell_volume                     2168.21
loop_
_atom_site_label
_atom_site_type_symbol
_atom_site_fract_x
_atom_site_fract_y
_atom_site_fract_z
Mn1 Mn 0.5000 -0.10707(8) 0.2500
O3 O 0.5348(3) -0.1033(3) 0.3857(2)
H1 H 0.4866 -0.1119 0.4152
H2 H 0.5890 -0.0796 0.4229
N1 N 0.3021(3) -0.1137(3) 0.2406(3)
N2 N 0.5000 0.0908(5) 0.2500
N3 N 0.5000 0.6951(5) 0.2500
C1 C 0.2528(4) -0.2018(4) 0.2710(3)
H3 H 0.3007 -0.2637 0.2910
C2 C 0.1357(4) -0.2072(4) 0.2747(3)
H4 H 0.1061 -0.2716 0.2961
C3 C 0.0627(4) -0.1172(4) 0.2466(3)
C4 C 0.1112(5) -0.0254(4) 0.2122(4)
H5 H 0.0646 0.0367 0.1909
C5 C 0.2291(5) -0.0281(4) 0.2100(4)
H6 H 0.2600 0.0332 0.1859
C6 C 0.4973(5) 0.1504(4) 0.3194(3)
H7 H 0.4947 0.1109 0.3684
C7 C 0.4980(5) 0.2679(4) 0.3220(3)
H8 H 0.4973 0.3053 0.3722
C8 C 0.5000 0.3303(6) 0.2500
C9 C 0.5000 0.4563(5) 0.2500
C10 C 0.5441(5) 0.5184(4) 0.3220(3)
H9 H 0.5746 0.4811 0.3724
C11 C 0.5431(5) 0.6352(4) 0.3195(3)
H10 H 0.5742 0.6746 0.3689
Mn1_2 Mn 0.5000 0.89293(8) 0.2500
Mn1_3 Mn -0.5000 -0.10707(8) 0.2500
O3A O 0.4652(3) -0.1033(3) 0.1143(2)
H1A H 0.5134 -0.1119 0.0848
H2A H 0.4110 -0.0796 0.0771
N1A N -0.3021(3) -0.1137(3) 0.2594(3)
N1A_2 N 0.6979(3) -0.1137(3) 0.2594(3)
N3_2 N 0.5000 -0.3049(5) 0.2500
C1A C -0.2528(4) -0.2018(4) 0.2290(3)
H3A H -0.3007 -0.2637 0.2090
C2A C -0.1357(4) -0.2072(4) 0.2253(3)
H4A H -0.1061 -0.2716 0.2039
C3A C -0.0627(4) -0.1172(4) 0.2534(3)
C4A C -0.1112(5) -0.0254(4) 0.2878(4)
H5A H -0.0646 0.0367 0.3091
C5A C -0.2291(5) -0.0281(4) 0.2900(4)
H6A H -0.2600 0.0332 0.3141
C6A C 0.5027(5) 0.1504(4) 0.1806(3)
H7A H 0.5053 0.1109 0.1316
C7A C 0.5020(5) 0.2679(4) 0.1780(3)
H8A H 0.5027 0.3053 0.1278
C10A C 0.4559(5) 0.5184(4) 0.1780(3)
H9A H 0.4254 0.4811 0.1276
C11A C 0.4569(5) 0.6352(4) 0.1805(3)
H10A H 0.4258 0.6746 0.1311
S1 S 0.30580(18) 0.46450(16) 0.46516(11)
S2 S 0.33310(15) 0.63467(15) 0.46396(10)
O1 O 0.3757(5) 0.8533(5) 0.4762(3)
O2 O 0.2652(5) 0.9940(5) 0.5058(4)
N4 N 0.2122(5) 0.5183(4) 0.3061(3)
N5 N 0.1043(5) 0.6193(5) 0.4671(3)
C12 C 0.2102(6) 0.3190(5) 0.3382(4)
C13 C 0.1598(9) 0.2994(7) 0.2564(6)
H11 H 0.1419 0.2251 0.2387
C14 C 0.1337(9) 0.3869(9) 0.1977(5)
H12 H 0.0989 0.3729 0.1416
C15 C 0.1621(8) 0.4948(7) 0.2272(4)
H13 H 0.1451 0.5548 0.1893
C16 C 0.2353(5) 0.4323(5) 0.3588(4)
C17 C 0.1931(5) 0.6909(6) 0.4730(3)
C18 C 0.1819(6) 0.8096(6) 0.4844(4)
C19 C 0.0719(7) 0.8486(8) 0.4868(5)
H14 H 0.0603 0.9258 0.4942
C20 C -0.0217(7) 0.7750(10) 0.4785(5)
H15 H -0.0973 0.8014 0.4786
C21 C -0.0008(7) 0.6617(9) 0.4702(4)
H16 H -0.0638 0.6116 0.4665
C22 C 0.2827(7) 0.8910(7) 0.4885(4)
C23 C 0.2546(12) 0.2284(9) 0.4044(7)
O4 O 0.2159(10) 0.1279(6) 0.3803(5)
H17 H 0.2837 0.1039 0.3946
O5 O 0.3013(7) 0.2486(7) 0.4777(5)
C24? C 0.217(3) 0.2222(18) 0.3997(12)
O6? O 0.130(2) 0.1495(16) 0.3587(12)
H18? H 0.0595 0.1487 0.3357
O7? O 0.280(2) 0.207(2) 0.4362(16)
loop_
_geom_bond_atom_site_label_1
_geom_bond_atom_site_label_2
_geom_bond_site_symmetry_1
_geom_bond_site_symmetry_2
Mn1 O3 1_555 1_555
S1 S2 1_555 1_555
S2 C17 1_555 1_555
O1 C22 1_555 1_555
O2 C22 1_555 1_555
O3 H1 1_555 1_555
H2 O3 1_555 1_555
N1 Mn1 1_555 1_555
N2 Mn1 1_555 1_555
N3 C11 1_555 1_555
N4 C15 1_555 1_555
N5 C17 1_555 1_555
C1 N1 1_555 1_555
H3 C1 1_555 1_555
C2 C1 1_555 1_555
H4 C2 1_555 1_555
C3 C2 1_555 1_555
C4 C3 1_555 1_555
H5 C4 1_555 1_555
C5 N1 1_555 1_555
H6 C5 1_555 1_555
C6 N2 1_555 1_555
H7 C6 1_555 1_555
C7 C6 1_555 1_555
H8 C7 1_555 1_555
C8 C7 1_555 1_555
C9 C8 1_555 1_555
C10 C9 1_555 1_555
H9 C10 1_555 1_555
C11 C10 1_555 1_555
H10 C11 1_555 1_555
C12 C13 1_555 1_555
C13 H11 1_555 1_555
C14 C13 1_555 1_555
H12 C14 1_555 1_555
C15 C14 1_555 1_555
H13 C15 1_555 1_555
C16 S1 1_555 1_555
C17 C18 1_555 1_555
C18 C19 1_555 1_555
C19 H14 1_555 1_555
C20 C19 1_555 1_555
H15 C20 1_555 1_555
C21 N5 1_555 1_555
H16 C21 1_555 1_555
C22 C18 1_555 1_555
C23 C12 1_555 1_555
O4 C23 1_555 1_555
H17 O4 1_555 1_555
O5 C23 1_555 1_555
Mn1_2 N3 1_555 1_555
Mn1_3 N1A 1_555 1_555
O3A Mn1 1_555 1_555
H1A O3A 1_555 1_555
H2A O3A 1_555 1_555
N1A C1A 1_555 1_555
N1A_2 Mn1 1_555 1_555
N3_2 Mn1 1_555 1_555
C1A H3A 1_555 1_555
C2A C1A 1_555 1_555
H4A C2A 1_555 1_555
C3A C3 1_555 1_555
C4A C3A 1_555 1_555
H5A C4A 1_555 1_555
C5A N1A 1_555 1_555
H6A C5A 1_555 1_555
C6A N2 1_555 1_555
H7A C6A 1_555 1_555
C7A C8 1_555 1_555
H8A C7A 1_555 1_555
C10A C9 1_555 1_555
H9A C10A 1_555 1_555
C11A N3 1_555 1_555
H10A C11A 1_555 1_555
N4 C16 1_555 1_555
C4 C5 1_555 1_555
C12 C16 1_555 1_555
C20 C21 1_555 1_555
C2A C3A 1_555 1_555
C4A C5A 1_555 1_555
C6A C7A 1_555 1_555
C10A C11A 1_555 1_555

#END
