
#######################################################################
#
#                 Cambridge Crystallographic Data Centre
#                                CCDC 
#
#######################################################################
#
# If this CIF has been generated from an entry in the Cambridge 
# Structural Database, then it will include bibliographic, chemical, 
# crystal, experimental, refinement or atomic coordinate data resulting 
# from the CCDC's data processing and validation procedures.
#
#######################################################################

data_IFAPAH
_symmetry_cell_setting           triclinic
_symmetry_space_group_name_H-M   'P -1'
_symmetry_Int_Tables_number      2
_space_group_name_Hall           '-P 1'
loop_
_symmetry_equiv_pos_site_id
_symmetry_equiv_pos_as_xyz
1 x,y,z
2 -x,-y,-z
_cell_length_a                   7.8468(8)
_cell_length_b                   9.2715(10)
_cell_length_c                   13.7213(14)
_cell_angle_alpha                75.910(2)
_cell_angle_beta                 78.054(2)
_cell_angle_gamma                77.167(2)
_cell_volume                     931.606
loop_
_atom_site_label
_atom_site_type_symbol
_atom_site_fract_x
_atom_site_fract_y
_atom_site_fract_z
Mn1 Mn 0.33449(4) 0.20348(3) -0.21451(2)
S1 S -0.05293(6) 0.13531(5) -0.21105(4)
O1 O -0.48646(18) 0.33383(16) -0.19297(10)
O2 O -0.46931(19) 0.26977(18) -0.02711(10)
O3 O 0.13411(18) 0.06737(16) -0.20826(12)
O4 O -0.1702(2) 0.04724(17) -0.13800(11)
O5 O -0.0926(2) 0.17832(17) -0.31261(11)
O6 O 0.3463(2) 0.0822(2) -0.06037(12)
H1 H 0.3942 0.1319 -0.0325
H2 H 0.2814 0.0303 -0.0139
N1 N 0.5402(2) 0.0624(2) -0.30812(13)
N2 N 0.3237(2) 0.3238(2) -0.37955(13)
N3 N 0.0718(2) 0.35691(18) -0.17297(12)
C1 C 0.6436(3) -0.0659(3) -0.27403(19)
H5 H 0.6263 -0.1073 -0.2046
C2 C 0.7776(3) -0.1421(3) -0.3375(2)
H6 H 0.8478 -0.2319 -0.3105
C3 C 0.8041(3) -0.0832(3) -0.4392(2)
H7 H 0.8927 -0.1328 -0.4823
C4 C 0.6978(3) 0.0522(3) -0.47891(19)
C5 C 0.7149(4) 0.1201(4) -0.5857(2)
H8 H 0.8019 0.0741 -0.6314
C6 C 0.6075(4) 0.2487(4) -0.62046(19)
H9 H 0.6219 0.2904 -0.6899
C7 C 0.4712(3) 0.3229(3) -0.55289(17)
C8 C 0.3550(4) 0.4570(3) -0.58560(18)
H10 H 0.3657 0.5030 -0.6543
C9 C 0.2270(4) 0.5194(3) -0.51703(19)
H11 H 0.1484 0.6074 -0.5381
C10 C 0.2159(3) 0.4493(3) -0.41473(18)
H12 H 0.1279 0.4928 -0.3683
C11 C 0.4507(3) 0.2594(3) -0.44767(15)
C12 C 0.5657(3) 0.1217(3) -0.40996(16)
C13 C -0.4142(2) 0.3238(2) -0.11759(15)
C14 C -0.2452(3) 0.3871(2) -0.13532(14)
C15 C -0.0797(2) 0.3092(2) -0.16841(14)
C16 C 0.0617(3) 0.4885(2) -0.14594(16)
H13 H 0.1659 0.5226 -0.1488
C17 C -0.0976(3) 0.5749(3) -0.11406(17)
H14 H -0.1011 0.6667 -0.0969
C18 C -0.2520(3) 0.5233(2) -0.10804(17)
H15 H -0.3606 0.5797 -0.0857
Mn1_2 Mn -0.66551(4) 0.20348(3) -0.21451(2)
O1_2 O 0.51354(18) 0.33383(16) -0.19297(10)
O7 O -0.2616(3) 0.2531(2) -0.87461(15)
H3 H -0.3134 0.2537 -0.9233
H4 H -0.2029 0.1635 -0.8631
loop_
_geom_bond_atom_site_label_1
_geom_bond_atom_site_label_2
_geom_bond_site_symmetry_1
_geom_bond_site_symmetry_2
Mn1 O3 1_555 1_555
S1 O3 1_555 1_555
O1 C13 1_555 1_555
O2 C13 1_555 1_555
O4 S1 1_555 1_555
O5 S1 1_555 1_555
O6 Mn1 1_555 1_555
H1 O6 1_555 1_555
H2 O6 1_555 1_555
O7 H3 1_555 1_555
H4 O7 1_555 1_555
N1 Mn1 1_555 1_555
N2 Mn1 1_555 1_555
N3 Mn1 1_555 1_555
C1 N1 1_555 1_555
H5 C1 1_555 1_555
C2 C1 1_555 1_555
H6 C2 1_555 1_555
C3 C2 1_555 1_555
H7 C3 1_555 1_555
C4 C3 1_555 1_555
C5 C4 1_555 1_555
H8 C5 1_555 1_555
C6 C5 1_555 1_555
H9 C6 1_555 1_555
C7 C6 1_555 1_555
C8 C7 1_555 1_555
H10 C8 1_555 1_555
C9 C8 1_555 1_555
H11 C9 1_555 1_555
C10 N2 1_555 1_555
H12 C10 1_555 1_555
C11 N2 1_555 1_555
C12 N1 1_555 1_555
C13 C14 1_555 1_555
C14 C15 1_555 1_555
C15 S1 1_555 1_555
C16 N3 1_555 1_555
H13 C16 1_555 1_555
C17 C16 1_555 1_555
H14 C17 1_555 1_555
C18 C14 1_555 1_555
H15 C18 1_555 1_555
Mn1_2 O1 1_555 1_555
O1_2 Mn1 1_555 1_555
N3 C15 1_555 1_555
C4 C12 1_555 1_555
C7 C11 1_555 1_555
C9 C10 1_555 1_555
C11 C12 1_555 1_555
C17 C18 1_555 1_555

#END
