
#######################################################################
#
#                 Cambridge Crystallographic Data Centre
#                                CCDC 
#
#######################################################################
#
# If this CIF has been generated from an entry in the Cambridge 
# Structural Database, then it will include bibliographic, chemical, 
# crystal, experimental, refinement or atomic coordinate data resulting 
# from the CCDC's data processing and validation procedures.
#
#######################################################################

data_IFASOY
_symmetry_cell_setting           monoclinic
_symmetry_space_group_name_H-M   'C 2/c'
_symmetry_Int_Tables_number      15
_space_group_name_Hall           '-C 2yn'
loop_
_symmetry_equiv_pos_site_id
_symmetry_equiv_pos_as_xyz
1 x,y,z
2 1/2+x,1/2+y,z
3 -x,y,1/2-z
4 1/2-x,1/2+y,1/2-z
5 -x,-y,-z
6 1/2-x,1/2-y,-z
7 x,-y,1/2+z
8 1/2+x,1/2-y,1/2+z
_cell_length_a                   30.734(4)
_cell_length_b                   16.205(2)
_cell_length_c                   26.204(3)
_cell_angle_alpha                90
_cell_angle_beta                 121.562(2)
_cell_angle_gamma                90
_cell_volume                     11120.2
loop_
_atom_site_label
_atom_site_type_symbol
_atom_site_fract_x
_atom_site_fract_y
_atom_site_fract_z
Mo1 Mo 0.187232(12) 0.551081(19) 0.292927(14)
Mo2 Mo 0.294678(12) 0.490431(18) 0.418804(14)
Mo3 Mo 0.402702(12) 0.552119(19) 0.403365(15)
Mo4 Mo 0.350687(12) 0.596874(19) 0.258191(15)
Mo5 Mo 0.223323(12) 0.603475(19) 0.196216(14)
Co1 Co 0.08688(2) 0.22279(3) 0.02451(2)
Co2 Co 0.20980(2) 0.79385(3) 0.11180(2)
P1 P 0.20408(4) 0.16812(5) 0.15673(4)
P2 P 0.29088(4) 0.44541(6) 0.29094(4)
O1 O 0.21781(11) 0.70193(16) 0.16770(12)
O2 O 0.17944(10) 0.54683(16) 0.13737(12)
O3 O 0.15870(10) 0.61483(16) 0.31815(12)
O4 O 0.13992(10) 0.48541(17) 0.24558(13)
O5 O 0.22322(10) 0.47653(15) 0.35965(11)
O6 O 0.24138(10) 0.49637(15) 0.25944(11)
O7 O 0.28292(10) 0.56436(15) 0.19849(12)
O8 O 0.20636(9) 0.15390(15) 0.21599(11)
O9 O 0.33840(9) 0.50113(15) 0.31271(11)
O10 O 0.35970(9) 0.51007(15) 0.42948(11)
O11 O 0.23145(9) 0.09712(15) 0.14465(11)
O12 O 0.14925(9) 0.17333(15) 0.10531(11)
O13 O 0.40141(9) 0.61329(15) 0.34163(11)
O14 O 0.43990(10) 0.47031(16) 0.41107(13)
O15 O 0.29484(10) 0.55139(16) 0.47139(12)
O16 O 0.30095(10) 0.39289(15) 0.44882(12)
O17 O 0.29561(10) 0.39989(15) 0.34421(12)
O18 O 0.44381(10) 0.61333(16) 0.46405(12)
O19 O 0.35426(11) 0.69209(16) 0.23201(13)
O20 O 0.38281(11) 0.53237(17) 0.23802(13)
O21 O 0.18962(10) 0.62633(15) 0.23838(12)
O22 O 0.28801(12) 0.8115(2) 0.15551(15)
N1 N 0.13503(12) 0.3057(2) 0.01512(15)
N2 N 0.09922(13) 0.1583(2) -0.03658(15)
N3 N 0.13232(12) 0.78342(19) 0.04498(16)
N4 N 0.21232(13) 0.70432(19) 0.05514(14)
N5 N 0.01892(13) 0.2827(2) -0.04361(16)
N6 N 0.06671(12) 0.29687(19) 0.07563(15)
C1 C 0.15225(16) 0.3789(3) 0.04099(19)
C2 C 0.18690(18) 0.4254(3) 0.0339(2)
C3 C 0.20402(18) 0.3956(3) -0.0012(2)
C4 C 0.18592(16) 0.3186(3) -0.03048(18)
C5 C 0.20117(18) 0.2832(3) -0.0684(2)
C6 C 0.18199(18) 0.2102(3) -0.0956(2)
C7 C 0.14652(17) 0.1648(3) -0.08713(18)
C8 C 0.12520(19) 0.0891(3) -0.1147(2)
C9 C 0.09171(19) 0.0501(3) -0.1030(2)
C10 C 0.08004(18) 0.0862(3) -0.0634(2)
C11 C 0.13200(15) 0.1970(3) -0.04857(17)
C12 C 0.15157(15) 0.2762(2) -0.02048(17)
C13 C 0.09404(16) 0.8284(2) 0.0398(2)
C14 C 0.04818(18) 0.8385(3) -0.0147(3)
C15 C 0.04087(19) 0.7994(3) -0.0649(3)
C16 C 0.08011(16) 0.7494(3) -0.0608(2)
C17 C 0.07662(19) 0.7038(4) -0.1094(2)
C18 C 0.11506(19) 0.6559(3) -0.1026(2)
C19 C 0.16274(16) 0.6524(3) -0.04640(19)
C20 C 0.20548(17) 0.6064(3) -0.0358(2)
C21 C 0.24928(17) 0.6094(3) 0.0188(2)
C22 C 0.25211(17) 0.6602(2) 0.06355(19)
C23 C 0.16806(15) 0.6988(2) 0.00175(17)
C24 C 0.12543(15) 0.7451(2) -0.00480(18)
C25 C -0.0045(2) 0.2747(3) -0.1025(2)
C26 C -0.0482(2) 0.3205(4) -0.1425(2)
C27 C -0.06783(19) 0.3746(3) -0.1203(2)
C28 C -0.04441(16) 0.3846(3) -0.0582(2)
C29 C -0.06288(18) 0.4393(3) -0.0309(2)
C30 C -0.03933(19) 0.4458(3) 0.0291(3)
C31 C 0.00552(16) 0.3986(2) 0.0679(2)
C32 C 0.03069(18) 0.4007(3) 0.1303(2)
C33 C 0.07221(17) 0.3513(3) 0.1640(2)
C34 C 0.08962(16) 0.3008(2) 0.13509(19)
C35 C 0.02496(15) 0.3446(2) 0.04245(19)
C36 C -0.00067(15) 0.3371(2) -0.02177(19)
C37 C 0.24005(15) 0.2594(2) 0.16490(18)
C38 C 0.28862(15) 0.3742(2) 0.23754(18)
C39 C 0.23865(15) 0.3259(2) 0.20553(18)
H1 H 0.1404(16) 0.396(2) 0.0625(18)
H2 H 0.1933(17) 0.472(3) 0.051(2)
H3 H 0.2245(18) 0.424(3) -0.008(2)
H4 H 0.225(2) 0.312(3) -0.074(2)
H5 H 0.190(2) 0.187(3) -0.121(2)
H6 H 0.1341(18) 0.066(3) -0.140(2)
H7 H 0.0750(19) 0.001(3) -0.123(2)
H8 H 0.0573(17) 0.065(3) -0.0580(19)
H9 H 0.0989(13) 0.854(2) 0.0733(16)
H10 H 0.0257(19) 0.869(3) -0.014(2)
H11 H 0.011(2) 0.801(3) -0.100(3)
H12 H 0.047(2) 0.702(3) -0.145(2)
H13 H 0.1115(14) 0.622(2) -0.1339(18)
H14 H 0.2027(18) 0.572(3) -0.067(2)
H15 H 0.2753(18) 0.582(3) 0.028(2)
H16 H 0.2809(18) 0.666(3) 0.102(2)
H17 H 0.0080(18) 0.237(3) -0.117(2)
H18 H -0.060(2) 0.309(4) -0.180(3)
H19 H -0.096(2) 0.406(3) -0.142(2)
H20 H -0.0934(18) 0.466(3) -0.058(2)
H21 H -0.0513(19) 0.474(3) 0.042(2)
H22 H 0.0200(19) 0.438(3) 0.150(2)
H23 H 0.0905(17) 0.354(3) 0.204(2)
H24 H 0.1184(15) 0.271(2) 0.1560(17)
H25 H 0.2693(19) 0.245(3) 0.179(2)
H26 H 0.3152(19) 0.335(3) 0.258(2)
H27 H 0.2100(17) 0.363(3) 0.179(2)
H28 H 0.306(2) 0.790(3) 0.182(2)
H29 H 0.2354(16) 0.281(3) 0.131(2)
H30 H 0.2931(17) 0.403(3) 0.210(2)
H31 H 0.2340(17) 0.303(3) 0.232(2)
H32 H 0.294(2) 0.856(4) 0.162(2)
Mo1C Mo 0.312768(12) 0.051081(19) 0.207073(14)
Mo2C Mo 0.205322(12) -0.009569(18) 0.081196(14)
Mo3C Mo 0.097298(12) 0.052119(19) 0.096635(15)
Mo4C Mo 0.149313(12) 0.096874(19) 0.241809(15)
Mo5C Mo 0.276677(12) 0.103475(19) 0.303784(14)
Co1C Co 0.41312(2) 0.72279(3) 0.47549(2)
Co2C Co 0.29020(2) 0.29385(3) 0.38820(2)
O8C O 0.29364(9) 0.65390(15) 0.28401(11)
O11C O 0.26855(9) 0.59712(15) 0.35535(11)
O12C O 0.35075(9) 0.67333(15) 0.39469(11)
O16C O 0.19905(10) 0.89289(15) 0.05118(12)
O17C O 0.20439(10) 0.89989(15) 0.15579(12)
O18C O 0.05619(10) 0.11333(16) 0.03595(12)
O24 O 0.5250(5) 0.5702(9) 0.7251(6)
O26 O 0.4631(5) 0.7164(11) 0.2547(6)
O28 O 0.0679(2) 0.6711(4) 0.3203(3)
O31 O 0.9266(9) 0.4549(12) 0.2180(10)
O32 O 1.0475(7) 0.5507(11) 0.3505(9)
O23? O 0.5026(4) 0.6993(6) 0.7311(5)
O25? O 0.5563(4) 0.6051(5) 0.6923(4)
O27? O 0.4763(9) 0.5751(12) 0.2229(7)
O29? O 0.9856(5) 0.3705(11) 0.2419(9)
O30? O 0.9535(12) 0.4194(13) 0.2408(9)
O33? O 0.9475(6) 0.5197(11) 0.2454(9)
O34? O 1.0059(10) 0.5404(13) 0.2861(12)
loop_
_geom_bond_atom_site_label_1
_geom_bond_atom_site_label_2
_geom_bond_site_symmetry_1
_geom_bond_site_symmetry_2
Mo1 O3 1_555 1_555
Mo2 O5 1_555 1_555
Mo3 O9 1_555 1_555
Mo4 O7 1_555 1_555
Mo5 O1 1_555 1_555
Co1 O12 1_555 1_555
Co2 O1 1_555 1_555
P1 O8 1_555 1_555
P2 O6 1_555 1_555
O2 Mo5 1_555 1_555
O4 Mo1 1_555 1_555
O5 Mo1 1_555 1_555
O6 Mo1 1_555 1_555
O7 Mo5 1_555 1_555
O8 Mo4C 1_555 1_555
O9 Mo4 1_555 1_555
O10 Mo2 1_555 1_555
O11 P1 1_555 1_555
O12 P1 1_555 1_555
O13 Mo3 1_555 1_555
O14 Mo3 1_555 1_555
O15 Mo2 1_555 1_555
O16 Mo2 1_555 1_555
O17 Mo2 1_555 1_555
O18 Mo3 1_555 1_555
O19 Mo4 1_555 1_555
O20 Mo4 1_555 1_555
O21 Mo1 1_555 1_555
O22 Co2 1_555 1_555
N1 Co1 1_555 1_555
N2 Co1 1_555 1_555
N3 Co2 1_555 1_555
N4 Co2 1_555 1_555
N5 Co1 1_555 1_555
N6 Co1 1_555 1_555
C1 N1 1_555 1_555
C2 C1 1_555 1_555
C3 C2 1_555 1_555
C4 C3 1_555 1_555
C5 C4 1_555 1_555
C6 C5 1_555 1_555
C7 C6 1_555 1_555
C8 C7 1_555 1_555
C9 C8 1_555 1_555
C10 N2 1_555 1_555
C11 N2 1_555 1_555
C12 N1 1_555 1_555
C13 N3 1_555 1_555
C14 C13 1_555 1_555
C15 C14 1_555 1_555
C16 C15 1_555 1_555
C17 C16 1_555 1_555
C18 C17 1_555 1_555
C19 C18 1_555 1_555
C20 C19 1_555 1_555
C21 C20 1_555 1_555
C22 N4 1_555 1_555
C23 N4 1_555 1_555
C24 N3 1_555 1_555
C25 N5 1_555 1_555
C26 C25 1_555 1_555
C27 C26 1_555 1_555
C28 C27 1_555 1_555
C29 C28 1_555 1_555
C30 C29 1_555 1_555
C31 C30 1_555 1_555
C32 C31 1_555 1_555
C33 C32 1_555 1_555
C34 N6 1_555 1_555
C35 N6 1_555 1_555
C36 N5 1_555 1_555
C37 P1 1_555 1_555
C38 P2 1_555 1_555
C39 C37 1_555 1_555
H1 C1 1_555 1_555
H2 C2 1_555 1_555
H3 C3 1_555 1_555
H4 C5 1_555 1_555
H5 C6 1_555 1_555
H6 C8 1_555 1_555
H7 C9 1_555 1_555
H8 C10 1_555 1_555
H9 C13 1_555 1_555
H10 C14 1_555 1_555
H11 C15 1_555 1_555
H12 C17 1_555 1_555
H13 C18 1_555 1_555
H14 C20 1_555 1_555
H15 C21 1_555 1_555
H16 C22 1_555 1_555
H17 C25 1_555 1_555
H18 C26 1_555 1_555
H19 C27 1_555 1_555
H20 C29 1_555 1_555
H21 C30 1_555 1_555
H22 C32 1_555 1_555
H23 C33 1_555 1_555
H24 C34 1_555 1_555
H25 C37 1_555 1_555
H26 C38 1_555 1_555
H27 C39 1_555 1_555
H28 O22 1_555 1_555
H29 C37 1_555 1_555
H30 C38 1_555 1_555
H31 C39 1_555 1_555
H32 O22 1_555 1_555
Mo1C O11 1_555 1_555
Mo2C O11 1_555 1_555
Mo3C O12 1_555 1_555
Mo5C O8 1_555 1_555
Co1C O18 1_555 1_555
Co2C O16 1_555 1_555
O8C Mo4 1_555 1_555
O11C Mo1 1_555 1_555
O12C Mo3 1_555 1_555
O16C Co2 1_555 1_555
O17C Co2 1_555 1_555
O18C Co1 1_555 1_555
Mo2 O11C 1_555 1_555
Mo3 O10 1_555 1_555
Mo4 O13 1_555 1_555
Mo5 O6 1_555 1_555
Mo5 O21 1_555 1_555
Mo5 O8C 1_555 1_555
P2 O9 1_555 1_555
P2 O17 1_555 1_555
O17 Co2C 1_555 1_555
C4 C12 1_555 1_555
C7 C11 1_555 1_555
C9 C10 1_555 1_555
C11 C12 1_555 1_555
C16 C24 1_555 1_555
C19 C23 1_555 1_555
C21 C22 1_555 1_555
C23 C24 1_555 1_555
C28 C36 1_555 1_555
C31 C35 1_555 1_555
C33 C34 1_555 1_555
C35 C36 1_555 1_555
C38 C39 1_555 1_555
Mo3C O18C 1_555 1_555
Co1C O12C 1_555 1_555

#END
