
#######################################################################
#
#                 Cambridge Crystallographic Data Centre
#                                CCDC 
#
#######################################################################
#
# If this CIF has been generated from an entry in the Cambridge 
# Structural Database, then it will include bibliographic, chemical, 
# crystal, experimental, refinement or atomic coordinate data resulting 
# from the CCDC's data processing and validation procedures.
#
#######################################################################

data_IFEKUA
_symmetry_cell_setting           monoclinic
_symmetry_space_group_name_H-M   'P 21/c'
_symmetry_Int_Tables_number      14
_space_group_name_Hall           '-P 2ybc'
loop_
_symmetry_equiv_pos_site_id
_symmetry_equiv_pos_as_xyz
1 x,y,z
2 -x,1/2+y,1/2-z
3 -x,-y,-z
4 x,1/2-y,1/2+z
_cell_length_a                   9.285(3)
_cell_length_b                   10.399(4)
_cell_length_c                   14.001(5)
_cell_angle_alpha                90
_cell_angle_beta                 95.642(7)
_cell_angle_gamma                90
_cell_volume                     1345.31
loop_
_atom_site_label
_atom_site_type_symbol
_atom_site_fract_x
_atom_site_fract_y
_atom_site_fract_z
Cd1 Cd -1.0000 -0.5000 -0.5000
Cd2 Cd -0.80923(3) -0.82631(2) -0.482582(19)
Cd3 Cd -1.46824(3) -0.54589(2) -0.881450(18)
Br1 Br -0.73943(4) -1.03123(3) -0.35143(3)
Br2 Br -0.85923(5) -0.65299(3) -0.63136(3)
N1 N -1.3621(3) -0.4634(3) -0.7383(2)
N2 N -1.2442(4) -0.6579(3) -0.6820(2)
H1 H -1.1873 -0.6962 -0.6388
H2 H -1.2876 -0.7012 -0.7286
C1 C -1.2655(4) -0.5281(3) -0.6764(2)
O1 O -0.5826(3) -0.8753(2) -0.52132(17)
H3 H -0.543(4) -0.811(2) -0.533(3)
N3 N -1.0414(3) -0.8062(3) -0.4443(2)
C2 C -1.1347(4) -0.8859(3) -0.4117(2)
N4 N -1.2676(3) -0.8337(3) -0.4042(2)
N5 N -1.1058(4) -1.0157(3) -0.3913(2)
C3 C -1.2498(4) -0.7119(3) -0.4364(2)
N6 N -1.3610(3) -0.6249(3) -0.4467(3)
H4 H -1.3472 -0.5499 -0.4699
H5 H -1.4447 -0.6453 -0.4299
N7 N -1.1168(3) -0.6897(3) -0.4600(2)
C4 C -1.3551(4) -0.3435(3) -0.6999(2)
N8 N -1.2659(3) -0.3338(3) -0.6225(2)
N9 N -1.4407(3) -0.2394(3) -0.7361(2)
H6 H -1.4350 -0.1666 -0.7069
H7 H -1.4987 -0.2487 -0.7874
N10 N -1.2032(3) -0.4553(3) -0.6076(2)
H8 H -1.014(4) -1.029(3) -0.378(3)
H9 H -1.154(5) -1.052(4) -0.349(3)
Cd2B Cd -1.19077(3) -0.17369(2) -0.517418(19)
Cd2B_2 Cd -1.19077(3) -1.17369(2) -0.517418(19)
Cd2_2 Cd -0.80923(3) 0.17369(2) -0.482582(19)
Cd2C Cd -1.80923(3) -0.67369(2) -0.982582(19)
Cd3B Cd -0.53176(3) -0.45411(2) -0.118550(18)
Cd3C Cd -0.46824(3) -0.95411(2) -0.381450(18)
Cd3A Cd -0.53176(3) -1.04589(2) -0.618550(18)
Cd3C_2 Cd -1.46824(3) -0.95411(2) -0.381450(18)
Cd3A_2 Cd -0.53176(3) -0.04589(2) -0.618550(18)
Cd3B_2 Cd -1.53176(3) -0.45411(2) -1.118550(18)
Br1C Br -1.73943(4) -0.46877(3) -0.85143(3)
Br1B Br -1.26057(4) 0.03123(3) -0.64857(3)
Br1A Br -0.26057(4) -0.53123(3) -0.14857(3)
Br2B Br -1.14077(5) -0.34701(3) -0.36864(3)
N1B N -0.6379(3) -0.5366(3) -0.2617(2)
N2B N -0.7558(4) -0.3421(3) -0.3180(2)
H1B H -0.8127 -0.3038 -0.3612
H2B H -0.7124 -0.2988 -0.2714
C1B C -0.7345(4) -0.4719(3) -0.3236(2)
O1C O -1.5826(3) -0.6247(2) -1.02132(17)
O1A O -1.4174(3) -0.3753(2) -0.97868(17)
O1B O -1.4174(3) -0.1247(2) -0.47868(17)
O1C_2 O -0.5826(3) -0.6247(2) -0.02132(17)
O1A_2 O -0.4174(3) -0.3753(2) 0.02132(17)
H3C H -1.543(4) -0.689(2) -1.033(3)
H3A H -1.457(4) -0.311(2) -0.967(3)
H3B H -1.457(4) -0.189(2) -0.467(3)
H3C_2 H -0.543(4) -0.689(2) -0.033(3)
H3A_2 H -0.457(4) -0.311(2) 0.033(3)
N3B N -0.9586(3) -0.1938(3) -0.5557(2)
C2B C -0.8653(4) -0.1141(3) -0.5883(2)
N4B N -0.7324(3) -0.1663(3) -0.5958(2)
N4C N -1.2676(3) -0.6663(3) -0.9042(2)
N4A N -0.7324(3) -0.3337(3) -0.0958(2)
N5B N -0.8942(4) 0.0157(3) -0.6087(2)
N5B_2 N -0.8942(4) -0.9843(3) -0.6087(2)
N5_2 N -1.1058(4) -0.0157(3) -0.3913(2)
C3B C -0.7502(4) -0.2881(3) -0.5636(2)
N6B N -0.6390(3) -0.3751(3) -0.5533(3)
H4B H -0.6528 -0.4501 -0.5301
H5B H -0.5553 -0.3547 -0.5701
N7B N -0.8832(3) -0.3103(3) -0.5400(2)
C4B C -0.6449(4) -0.6565(3) -0.3001(2)
N8B N -0.7341(3) -0.6662(3) -0.3775(2)
N9B N -0.5593(3) -0.7606(3) -0.2639(2)
H6B H -0.5650 -0.8334 -0.2931
H7B H -0.5013 -0.7513 -0.2126
N10B N -0.7968(3) -0.5447(3) -0.3924(2)
H8B H -0.986(4) 0.029(3) -0.622(3)
H8B_2 H -0.986(4) -0.971(3) -0.622(3)
H8_2 H -1.014(4) -0.029(3) -0.378(3)
H9B H -0.846(5) 0.052(4) -0.651(3)
H9B_2 H -0.846(5) -0.948(4) -0.651(3)
H9_2 H -1.154(5) -0.052(4) -0.349(3)
loop_
_geom_bond_atom_site_label_1
_geom_bond_atom_site_label_2
_geom_bond_site_symmetry_1
_geom_bond_site_symmetry_2
Cd1 Br2 1_555 1_555
Cd2 Br1 1_555 1_555
Cd3 N1 1_555 1_555
Br1 Cd3C 1_555 1_555
Br2 Cd2 1_555 1_555
N1 C1 1_555 1_555
N2 H1 1_555 1_555
H2 N2 1_555 1_555
C1 N2 1_555 1_555
O1 Cd2 1_555 1_555
H3 O1 1_555 1_555
N3 Cd2 1_555 1_555
C2 N3 1_555 1_555
N4 C2 1_555 1_555
N5 C2 1_555 1_555
C3 N4 1_555 1_555
N6 C3 1_555 1_555
H4 N6 1_555 1_555
H5 N6 1_555 1_555
N7 Cd1 1_555 1_555
C4 N1 1_555 1_555
N8 C4 1_555 1_555
N9 C4 1_555 1_555
H6 N9 1_555 1_555
H7 N9 1_555 1_555
N10 Cd1 1_555 1_555
H8 N5 1_555 1_555
H9 N5 1_555 1_555
Cd2B N8 1_555 1_555
Cd2B_2 N5 1_555 1_555
Cd2_2 N5B 1_555 1_555
Cd2C Br1C 1_555 1_555
Cd3B Br1A 1_555 1_555
Cd3C O1 1_555 1_555
Cd3A O1 1_555 1_555
Cd3C_2 N4 1_555 1_555
Cd3A_2 N4B 1_555 1_555
Cd3B_2 O1C 1_555 1_555
Br1C Cd3 1_555 1_555
Br1B Cd2B 1_555 1_555
Br2B Cd1 1_555 1_555
N1B Cd3B 1_555 1_555
N2B H1B 1_555 1_555
H2B N2B 1_555 1_555
C1B N1B 1_555 1_555
O1C Cd3 1_555 1_555
O1A Cd3 1_555 1_555
O1B Cd2B 1_555 1_555
O1C_2 Cd3B 1_555 1_555
O1A_2 Cd3B 1_555 1_555
H3C O1C 1_555 1_555
H3A O1A 1_555 1_555
H3B O1B 1_555 1_555
H3C_2 O1C_2 1_555 1_555
H3A_2 O1A_2 1_555 1_555
N3B Cd2B 1_555 1_555
C2B N3B 1_555 1_555
N4B C2B 1_555 1_555
N4C Cd3 1_555 1_555
N4A Cd3B 1_555 1_555
N5B C2B 1_555 1_555
N5B_2 Cd2 1_555 1_555
N5_2 Cd2B 1_555 1_555
C3B N4B 1_555 1_555
N6B C3B 1_555 1_555
H4B N6B 1_555 1_555
H5B N6B 1_555 1_555
N7B Cd1 1_555 1_555
C4B N1B 1_555 1_555
N8B Cd2 1_555 1_555
N9B C4B 1_555 1_555
H6B N9B 1_555 1_555
H7B N9B 1_555 1_555
N10B Cd1 1_555 1_555
H8B N5B 1_555 1_555
H8B_2 N5B_2 1_555 1_555
H8_2 N5_2 1_555 1_555
H9B N5B 1_555 1_555
H9B_2 N5B_2 1_555 1_555
H9_2 N5_2 1_555 1_555
C1 N10 1_555 1_555
N3 N7 1_555 1_555
C3 N7 1_555 1_555
N8 N10 1_555 1_555
Cd2B Br2B 1_555 1_555
Cd2C O1C 1_555 1_555
Cd3B_2 O1A 1_555 1_555
N2B C1B 1_555 1_555
C1B N10B 1_555 1_555
N3B N7B 1_555 1_555
C3B N7B 1_555 1_555
C4B N8B 1_555 1_555
N8B N10B 1_555 1_555

#END
