
#######################################################################
#
#                 Cambridge Crystallographic Data Centre
#                                CCDC 
#
#######################################################################
#
# If this CIF has been generated from an entry in the Cambridge 
# Structural Database, then it will include bibliographic, chemical, 
# crystal, experimental, refinement or atomic coordinate data resulting 
# from the CCDC's data processing and validation procedures.
#
#######################################################################

data_IFEKOU
_symmetry_cell_setting           monoclinic
_symmetry_space_group_name_H-M   'P 21/c'
_symmetry_Int_Tables_number      14
_space_group_name_Hall           '-P 2ybc'
loop_
_symmetry_equiv_pos_site_id
_symmetry_equiv_pos_as_xyz
1 x,y,z
2 -x,1/2+y,1/2-z
3 -x,-y,-z
4 x,1/2-y,1/2+z
_cell_length_a                   9.2003(1)
_cell_length_b                   10.2621(2)
_cell_length_c                   13.9177(3)
_cell_angle_alpha                90
_cell_angle_beta                 94.773(1)
_cell_angle_gamma                90
_cell_volume                     1309.47
loop_
_atom_site_label
_atom_site_type_symbol
_atom_site_fract_x
_atom_site_fract_y
_atom_site_fract_z
Cd1 Cd 0.52187(4) -0.45332(3) 0.62291(2)
Cd2 Cd 0.0000 0.0000 0.5000
Cd3 Cd 0.18741(4) -0.32683(3) 0.51312(2)
Cl1 Cl 0.25397(13) -0.52617(12) 0.63777(10)
Cl2 Cl 0.13333(15) -0.15309(12) 0.37497(9)
C1 C 0.3514(5) -0.1612(4) 0.6998(3)
C2 C 0.2509(5) 0.2095(5) 0.4278(4)
C3 C 0.1367(5) 0.3871(4) 0.4062(3)
C4 C 0.2753(5) 0.0304(4) 0.6719(3)
N1 N 0.1184(4) 0.1882(4) 0.4547(3)
N2 N 0.2612(4) -0.1680(4) 0.6214(3)
N3 N 0.4260(5) -0.2712(4) 0.7363(3)
H1 H 0.374(7) -0.317(6) 0.750(5)
H2 H 0.487(7) -0.253(6) 0.777(5)
N4 N 0.3611(5) 0.1185(4) 0.4354(4)
H3 H 0.3457 0.0426 0.4588
H4 H 0.4454 0.1375 0.4168
N5 N 0.0435(4) 0.3071(4) 0.4406(3)
N6 N 0.2699(4) 0.3329(4) 0.3969(3)
N7 N 0.2079(4) -0.0425(4) 0.6043(3)
N8 N 0.3669(4) -0.0376(4) 0.7346(3)
N9 N 0.2634(5) 0.1647(4) 0.6748(3)
H5 H 0.2097 0.2050 0.6308
H6 H 0.3098 0.2079 0.7206
N10 N 0.1070(5) 0.5182(4) 0.3866(3)
H7 H 0.155(6) 0.550(6) 0.333(4)
H8 H 0.014(7) 0.533(6) 0.379(4)
O1 O 0.4248(3) -0.3652(4) 0.4728(3)
H9 H 0.461(7) -0.302(4) 0.455(5)
Cl2B Cl -0.13333(15) 0.15309(12) 0.62503(9)
C2B C -0.2509(5) -0.2095(5) 0.5722(4)
C3B C -0.1367(5) -0.3871(4) 0.5938(3)
N1B N -0.1184(4) -0.1882(4) 0.5453(3)
N4B N -0.3611(5) -0.1185(4) 0.5646(4)
H3B H -0.3457 -0.0426 0.5412
H4B H -0.4454 -0.1375 0.5832
N5B N -0.0435(4) -0.3071(4) 0.5594(3)
N6B N -0.2699(4) -0.3329(4) 0.6031(3)
N10B N -0.1070(5) -0.5182(4) 0.6134(3)
H7B H -0.155(6) -0.550(6) 0.667(4)
H8B H -0.014(7) -0.533(6) 0.621(4)
C1B C -0.3514(5) 0.1612(4) 0.3002(3)
C4B C -0.2753(5) -0.0304(4) 0.3281(3)
N2B N -0.2612(4) 0.1680(4) 0.3786(3)
N3B N -0.4260(5) 0.2712(4) 0.2637(3)
H1B H -0.374(7) 0.317(6) 0.250(5)
H2B H -0.487(7) 0.253(6) 0.223(5)
N7B N -0.2079(4) 0.0425(4) 0.3957(3)
N8B N -0.3669(4) 0.0376(4) 0.2654(3)
N9B N -0.2634(5) -0.1647(4) 0.3252(3)
H5B H -0.2097 -0.2050 0.3692
H6B H -0.3098 -0.2079 0.2794
Cd1B Cd -0.52187(4) 0.45332(3) 0.37709(2)
Cd3B Cd -0.18741(4) 0.32683(3) 0.48688(2)
O1B O 0.5752(3) -0.6348(4) 0.5272(3)
H9B H 0.539(7) -0.698(4) 0.545(5)
Cl1B Cl -0.25397(13) 0.52617(12) 0.36223(10)
N6B_2 N 0.7301(4) -0.3329(4) 0.6031(3)
N8A N 0.6331(4) -0.5376(4) 0.7654(3)
N10_2 N 0.1070(5) -0.4818(4) 0.3866(3)
Cd1B_2 Cd 0.47813(4) 0.45332(3) 0.37709(2)
Cd1A Cd 0.47813(4) 0.04668(3) 0.87709(2)
Cd3_2 Cd 0.18741(4) 0.67317(3) 0.51312(2)
Cd1B_3 Cd 0.47813(4) -0.54668(3) 0.37709(2)
Cd1_2 Cd -0.47813(4) -0.45332(3) 0.62291(2)
Cd3B_2 Cd -0.18741(4) -0.67317(3) 0.48688(2)
Cd1C Cd -0.47813(4) -0.04668(3) 0.12291(2)
N6_2 N -0.7301(4) 0.3329(4) 0.3969(3)
N8C N -0.6331(4) 0.5376(4) 0.2346(3)
O1_2 O -0.5752(3) 0.6348(4) 0.4728(3)
O1B_2 O -0.4248(3) 0.3652(4) 0.5272(3)
N10B_2 N -0.1070(5) 0.4818(4) 0.6134(3)
Cd3B_3 Cd 0.81259(4) -0.67317(3) 0.48688(2)
H7_2 H 0.155(6) -0.450(6) 0.333(4)
H8_2 H 0.014(7) -0.467(6) 0.379(4)
H9_2 H -0.539(7) 0.698(4) 0.455(5)
H9B_2 H -0.461(7) 0.302(4) 0.545(5)
H7B_2 H -0.155(6) 0.450(6) 0.667(4)
H8B_2 H -0.014(7) 0.467(6) 0.621(4)
loop_
_geom_bond_atom_site_label_1
_geom_bond_atom_site_label_2
_geom_bond_site_symmetry_1
_geom_bond_site_symmetry_2
Cd1 Cl1 1_555 1_555
Cd2 Cl2 1_555 1_555
Cd3 Cl1 1_555 1_555
Cl2 Cd3 1_555 1_555
C1 N2 1_555 1_555
C2 N1 1_555 1_555
C3 N5 1_555 1_555
C4 N7 1_555 1_555
N1 Cd2 1_555 1_555
N2 Cd3 1_555 1_555
N3 Cd1 1_555 1_555
H1 N3 1_555 1_555
H2 N3 1_555 1_555
N4 C2 1_555 1_555
H3 N4 1_555 1_555
H4 N4 1_555 1_555
N5 N1 1_555 1_555
N6 C2 1_555 1_555
N7 Cd2 1_555 1_555
N8 C1 1_555 1_555
N9 C4 1_555 1_555
H5 N9 1_555 1_555
H6 N9 1_555 1_555
N10 C3 1_555 1_555
H7 N10 1_555 1_555
H8 N10 1_555 1_555
O1 Cd1 1_555 1_555
H9 O1 1_555 1_555
Cl2B Cd2 1_555 1_555
C2B N1B 1_555 1_555
C3B N5B 1_555 1_555
N1B Cd2 1_555 1_555
N4B C2B 1_555 1_555
H3B N4B 1_555 1_555
H4B N4B 1_555 1_555
N5B Cd3 1_555 1_555
N6B C2B 1_555 1_555
N10B C3B 1_555 1_555
H7B N10B 1_555 1_555
H8B N10B 1_555 1_555
C1B N2B 1_555 1_555
C4B N7B 1_555 1_555
N2B N7B 1_555 1_555
N3B C1B 1_555 1_555
H1B N3B 1_555 1_555
H2B N3B 1_555 1_555
N7B Cd2 1_555 1_555
N8B C1B 1_555 1_555
N9B C4B 1_555 1_555
H5B N9B 1_555 1_555
H6B N9B 1_555 1_555
Cd1B N3B 1_555 1_555
Cd3B N5 1_555 1_555
O1B Cd1 1_555 1_555
H9B O1B 1_555 1_555
Cl1B Cd1B 1_555 1_555
N6B_2 Cd1 1_555 1_555
N8A Cd1 1_555 1_555
N10_2 Cd3 1_555 1_555
Cd1B_2 N6 1_555 1_555
Cd1A N8 1_555 1_555
Cd3_2 N10 1_555 1_555
Cd1B_3 O1 1_555 1_555
Cd1_2 N6B 1_555 1_555
Cd3B_2 N10B 1_555 1_555
Cd1C N8B 1_555 1_555
N6_2 Cd1B 1_555 1_555
N8C Cd1B 1_555 1_555
O1_2 Cd1B 1_555 1_555
O1B_2 Cd1B 1_555 1_555
N10B_2 Cd3B 1_555 1_555
Cd3B_3 O1B 1_555 1_555
H7_2 N10_2 1_555 1_555
H8_2 N10_2 1_555 1_555
H9_2 O1_2 1_555 1_555
H9B_2 O1B_2 1_555 1_555
H7B_2 N10B_2 1_555 1_555
H8B_2 N10B_2 1_555 1_555
Cd3 O1 1_555 1_555
C1 N3 1_555 1_555
C3 N6 1_555 1_555
C4 N8 1_555 1_555
N2 N7 1_555 1_555
Cl2B Cd3B 1_555 1_555
C3B N6B 1_555 1_555
N1B N5B 1_555 1_555
C4B N8B 1_555 1_555
N2B Cd3B 1_555 1_555
Cd3B Cl1B 1_555 1_555
Cd3B O1B_2 1_555 1_555
O1B Cd1B_3 1_555 1_555

#END
