
#######################################################################
#
#                 Cambridge Crystallographic Data Centre
#                                CCDC 
#
#######################################################################
#
# If this CIF has been generated from an entry in the Cambridge 
# Structural Database, then it will include bibliographic, chemical, 
# crystal, experimental, refinement or atomic coordinate data resulting 
# from the CCDC's data processing and validation procedures.
#
#######################################################################

data_IFEZUP
_symmetry_cell_setting           triclinic
_symmetry_space_group_name_H-M   'P -1'
_symmetry_Int_Tables_number      2
_space_group_name_Hall           '-P 1'
loop_
_symmetry_equiv_pos_site_id
_symmetry_equiv_pos_as_xyz
1 x,y,z
2 -x,-y,-z
_cell_length_a                   8.6130(17)
_cell_length_b                   9.6681(19)
_cell_length_c                   12.711(3)
_cell_angle_alpha                102.48(3)
_cell_angle_beta                 95.27(3)
_cell_angle_gamma                106.66(3)
_cell_volume                     976.595
loop_
_atom_site_label
_atom_site_type_symbol
_atom_site_fract_x
_atom_site_fract_y
_atom_site_fract_z
Ho1 Ho 0.630466(9) 0.702759(7) 0.507795(6)
O1 O 0.45860(16) 0.83150(14) 0.42345(10)
O2 O 0.66021(16) 0.78620(14) 0.34265(10)
C1 C 0.5441(2) 0.84021(18) 0.34808(14)
C2 C 0.4993(2) 0.9192(2) 0.26548(15)
H1 H 0.3828 0.8768 0.2366
H2 H 0.5218 1.0241 0.3007
O3 O 0.59006(18) 0.90519(16) 0.17942(11)
O4 O 0.41247(16) 0.70493(13) 0.60643(10)
C3 C 0.5416(2) 0.95572(19) 0.09242(14)
C4 C 0.6167(2) 0.9271(2) 0.00208(15)
H3 H 0.6950 0.8780 0.0036
C5 C 0.4243(2) 1.0289(2) 0.09073(15)
H4 H 0.3736 1.0481 0.1514
O5 O 0.27244(16) 0.46998(13) 0.60590(11)
O6 O 0.08378(16) 0.56186(15) 0.74771(10)
C6 C 0.3024(2) 0.60816(18) 0.63399(13)
C7 C 0.1947(2) 0.6708(2) 0.70724(15)
H5 H 0.2651 0.7485 0.7687
H6 H 0.1319 0.7164 0.6663
C8 C 0.1419(2) 0.5210(2) 0.83815(14)
C9 C 0.0513(3) 0.3849(2) 0.85196(17)
H7 H -0.0368 0.3227 0.7986
C10 C 0.2746(3) 0.6094(3) 0.91565(19)
H8 H 0.3379 0.7001 0.9062
C11 C 0.2214(2) 0.4312(2) 1.02387(14)
C12 C 0.0906(3) 0.3405(2) 0.94427(17)
H9 H 0.0285 0.2488 0.9529
C13 C 0.3155(3) 0.5639(3) 1.00886(18)
H10 H 0.4066 0.6239 1.0607
O7 O 0.2485(2) 0.37761(14) 1.11445(10)
O8 O 0.39773(15) 0.50327(13) 1.40059(9)
O9 O 0.26811(18) 0.27933(14) 1.29415(11)
O10 O 0.72635(17) 0.96554(14) 0.58752(12)
O11 O 0.91708(18) 0.78633(17) 0.53462(14)
C14 C 0.3324(2) 0.41483(19) 1.30580(14)
C15 C 0.3423(3) 0.4848(2) 1.21041(14)
H11 H 0.3004 0.5690 1.2247
H12 H 0.4559 0.5212 1.2006
H13 H 0.9708 0.8650 0.5841
H14 H 0.8287 1.0172 0.6167
H15 H 0.9735 0.7486 0.4951
H16 H 0.6839 1.0274 0.5773
Ho1A Ho 0.369534(9) 1.297241(7) -0.507795(6)
Ho1A_2 Ho 0.369534(9) 0.297241(7) 0.492205(6)
Ho1_2 Ho 0.630466(9) 0.702759(7) 1.507795(6)
Ho1A_3 Ho 0.369534(9) 0.297241(7) 1.492205(6)
Ho1_3 Ho 0.630466(9) 0.702759(7) -0.492205(6)
Ho1A_4 Ho 0.369534(9) 0.297241(7) -0.507795(6)
O1A O 0.54140(16) 1.16850(14) -0.42345(10)
O1A_2 O 0.54140(16) 0.16850(14) 0.57655(10)
O2A O 0.33979(16) 1.21380(14) -0.34265(10)
O2A_2 O 0.33979(16) 0.21380(14) 0.65735(10)
C1A C 0.4559(2) 1.15979(18) -0.34808(14)
C2A C 0.5007(2) 1.0808(2) -0.26548(15)
H1A H 0.6172 1.1232 -0.2366
H2A H 0.4782 0.9759 -0.3007
O3A O 0.40994(18) 1.09481(16) -0.17942(11)
O4A O 0.58753(16) 0.29507(13) 0.39357(10)
C3A C 0.4584(2) 1.04428(19) -0.09242(14)
C4A C 0.3833(2) 1.0729(2) -0.00208(15)
H3A H 0.3050 1.1220 -0.0036
C5A C 0.5757(2) 0.9711(2) -0.09073(15)
H4A H 0.6264 0.9519 -0.1514
O5A O 0.72756(16) 0.53002(13) 0.39410(11)
O6A O 0.91622(16) 0.43814(15) 0.25229(10)
C6A C 0.6976(2) 0.39184(18) 0.36601(13)
C7A C 0.8053(2) 0.3292(2) 0.29276(15)
H5A H 0.7349 0.2515 0.2313
H6A H 0.8681 0.2836 0.3337
C8A C 0.8581(2) 0.4790(2) 0.16185(14)
C9A C 0.9487(3) 0.6151(2) 0.14804(17)
H7A H 1.0368 0.6773 0.2014
C10A C 0.7254(3) 0.3906(3) 0.08435(19)
H8A H 0.6621 0.2999 0.0938
C11A C 0.7786(2) 0.5688(2) -0.02387(14)
C12A C 0.9094(3) 0.6595(2) 0.05573(17)
H9A H 0.9715 0.7512 0.0471
C13A C 0.6845(3) 0.4361(3) -0.00886(18)
H10A H 0.5934 0.3761 -0.0607
O7A O 0.7515(2) 0.62239(14) -0.11445(10)
O8A O 0.60227(15) 0.49673(13) -0.40059(9)
O8_2 O 0.39773(15) 0.50327(13) 0.40059(9)
O8A_2 O 0.60227(15) 0.49673(13) 0.59941(9)
O9A O 0.73189(18) 0.72067(14) -0.29415(11)
O9A_2 O 0.73189(18) 0.72067(14) 0.70585(11)
O9_2 O 0.26811(18) 0.27933(14) 0.29415(11)
O10A O 0.27365(17) 0.03446(14) 0.41248(12)
O11A O 0.08292(18) 0.21367(17) 0.46538(14)
C14A C 0.6676(2) 0.58517(19) -0.30580(14)
C15A C 0.6577(3) 0.5152(2) -0.21041(14)
H11A H 0.6996 0.4310 -0.2247
H12A H 0.5441 0.4788 -0.2006
H13A H 0.0292 0.1350 0.4159
H14A H 0.1713 -0.0172 0.3833
H15A H 0.0265 0.2514 0.5049
H16A H 0.3161 -0.0274 0.4227
H17 H 0.1386 0.1112 0.7020
H18 H 0.0373 0.0212 0.7656
O12 O 0.03981(19) 0.04180(17) 0.69668(13)
H19 H 0.0627 0.6004 0.3819
H20 H 0.2129 0.6870 0.4297
O13 O 0.1175(2) 0.6796(2) 0.42148(16)
H21 H 0.9076 0.8439 0.8419
H22 H 1.0455 0.8910 0.8624
O14 O 0.9868(3) 0.9276(3) 0.87898(17)
loop_
_geom_bond_atom_site_label_1
_geom_bond_atom_site_label_2
_geom_bond_site_symmetry_1
_geom_bond_site_symmetry_2
Ho1 O1 1_555 1_555
O1 C1 1_555 1_555
O2 Ho1 1_555 1_555
C1 O2 1_555 1_555
C2 C1 1_555 1_555
H1 C2 1_555 1_555
H2 C2 1_555 1_555
O3 C2 1_555 1_555
O4 Ho1 1_555 1_555
C3 O3 1_555 1_555
C4 C3 1_555 1_555
H3 C4 1_555 1_555
C5 C3 1_555 1_555
H4 C5 1_555 1_555
O5 C6 1_555 1_555
O6 C7 1_555 1_555
C6 O4 1_555 1_555
C7 C6 1_555 1_555
H5 C7 1_555 1_555
H6 C7 1_555 1_555
C8 O6 1_555 1_555
C9 C8 1_555 1_555
H7 C9 1_555 1_555
C10 C8 1_555 1_555
H8 C10 1_555 1_555
C11 C12 1_555 1_555
C12 C9 1_555 1_555
H9 C12 1_555 1_555
C13 C10 1_555 1_555
H10 C13 1_555 1_555
O7 C11 1_555 1_555
O8 C14 1_555 1_555
O9 C14 1_555 1_555
O10 Ho1 1_555 1_555
O11 Ho1 1_555 1_555
C14 C15 1_555 1_555
C15 O7 1_555 1_555
H11 C15 1_555 1_555
H12 C15 1_555 1_555
H13 O11 1_555 1_555
H14 O10 1_555 1_555
H15 O11 1_555 1_555
H16 O10 1_555 1_555
H17 O12 1_555 1_555
H18 O12 1_555 1_555
H19 O13 1_555 1_555
H20 O13 1_555 1_555
H21 O14 1_555 1_555
H22 O14 1_555 1_555
Ho1A O1A 1_555 1_555
Ho1A_2 O5 1_555 1_555
Ho1_2 O8 1_555 1_555
Ho1A_3 O8 1_555 1_555
Ho1_3 O8A 1_555 1_555
Ho1A_4 O8A 1_555 1_555
O1A C1A 1_555 1_555
O1A_2 Ho1A_2 1_555 1_555
O2A Ho1A 1_555 1_555
O2A_2 Ho1A_2 1_555 1_555
C1A O2A 1_555 1_555
C2A C1A 1_555 1_555
H1A C2A 1_555 1_555
H2A C2A 1_555 1_555
O3A C2A 1_555 1_555
O4A Ho1A_2 1_555 1_555
C3A O3A 1_555 1_555
C4A C5 1_555 1_555
H3A C4A 1_555 1_555
C5A C4 1_555 1_555
H4A C5A 1_555 1_555
O5A Ho1 1_555 1_555
O6A C7A 1_555 1_555
C6A O4A 1_555 1_555
C7A C6A 1_555 1_555
H5A C7A 1_555 1_555
H6A C7A 1_555 1_555
C8A O6A 1_555 1_555
C9A C8A 1_555 1_555
H7A C9A 1_555 1_555
C10A C8A 1_555 1_555
H8A C10A 1_555 1_555
C11A C12A 1_555 1_555
C12A C9A 1_555 1_555
H9A C12A 1_555 1_555
C13A C10A 1_555 1_555
H10A C13A 1_555 1_555
O7A C11A 1_555 1_555
O8A C14A 1_555 1_555
O8_2 Ho1 1_555 1_555
O8A_2 Ho1 1_555 1_555
O9A Ho1_3 1_555 1_555
O9A_2 Ho1 1_555 1_555
O9_2 Ho1A_2 1_555 1_555
O10A Ho1A_2 1_555 1_555
O11A Ho1A_2 1_555 1_555
C14A O9A 1_555 1_555
C15A O7A 1_555 1_555
H11A C15A 1_555 1_555
H12A C15A 1_555 1_555
H13A O11A 1_555 1_555
H14A O10A 1_555 1_555
H15A O11A 1_555 1_555
H16A O10A 1_555 1_555
C11 C13 1_555 1_555
O9 Ho1A_3 1_555 1_555
Ho1A_2 O8_2 1_555 1_555
Ho1A_2 O8A_2 1_555 1_555
C3A C4A 1_555 1_555
C3A C5A 1_555 1_555
O5A C6A 1_555 1_555
C11A C13A 1_555 1_555
C14A C15A 1_555 1_555

#END
