
#######################################################################
#
#                 Cambridge Crystallographic Data Centre
#                                CCDC 
#
#######################################################################
#
# If this CIF has been generated from an entry in the Cambridge 
# Structural Database, then it will include bibliographic, chemical, 
# crystal, experimental, refinement or atomic coordinate data resulting 
# from the CCDC's data processing and validation procedures.
#
#######################################################################

data_IFIZUS
_symmetry_cell_setting           orthorhombic
_symmetry_space_group_name_H-M   'P 21 21 21'
_symmetry_Int_Tables_number      19
_space_group_name_Hall           'P 2ac 2ab'
loop_
_symmetry_equiv_pos_site_id
_symmetry_equiv_pos_as_xyz
1 x,y,z
2 1/2-x,-y,1/2+z
3 -x,1/2+y,1/2-z
4 1/2+x,1/2-y,-z
_cell_length_a                   6.2058(8)
_cell_length_b                   11.4263(15)
_cell_length_c                   17.959(2)
_cell_angle_alpha                90
_cell_angle_beta                 90
_cell_angle_gamma                90
_cell_volume                     1273.46
loop_
_atom_site_label
_atom_site_type_symbol
_atom_site_fract_x
_atom_site_fract_y
_atom_site_fract_z
Cu1 Cu 0.91509(7) 0.77550(4) 0.40903(2)
S1 S 0.54755(17) 0.08009(8) 0.29172(5)
O1 O 1.1673(4) 0.7419(2) 0.46959(14)
O2 O 0.6304(4) 0.7853(3) 0.36148(14)
C1 C 1.2059(6) 0.6347(3) 0.4761(2)
O3 O 0.4556(5) -0.0027(2) 0.34488(15)
C2 C 1.0867(7) 0.5489(3) 0.42572(19)
H1 H 1.1902 0.4948 0.4031
N1 N 0.9803(5) 0.6179(3) 0.36703(16)
H2 H 0.8579 0.5824 0.3525
H3 H 1.0676 0.6247 0.3272
O4 O 1.0605(5) 0.8826(3) 0.31840(16)
O5 O 0.7257(5) 0.0301(3) 0.25089(17)
C3 C 0.6554(7) 0.1968(3) 0.3449(2)
C4 C 0.9244(8) 0.4801(4) 0.4719(2)
H4 H 0.9953 0.4493 0.5159
H5 H 0.8102 0.5321 0.4882
O6 O 0.3804(7) 0.1291(3) 0.24584(18)
C5 C 0.8273(7) 0.3795(4) 0.4277(2)
C6 C 0.8439(8) 0.1810(4) 0.3831(3)
H6 H 0.9136 0.1090 0.3816
C7 C 0.6374(7) 0.3925(4) 0.3898(3)
H7 H 0.5650 0.4637 0.3917
C8 C 0.9310(8) 0.2725(4) 0.4239(2)
H8 H 1.0606 0.2618 0.4491
C9 C 0.5519(8) 0.3012(4) 0.3488(3)
H9 H 0.4224 0.3115 0.3236
O7 O 1.3325(4) 0.5939(2) 0.52411(15)
O7C O 0.8325(4) 0.9061(2) 0.47589(15)
Cu1C Cu 1.41509(7) 0.72450(4) 0.59097(2)
loop_
_geom_bond_atom_site_label_1
_geom_bond_atom_site_label_2
_geom_bond_site_symmetry_1
_geom_bond_site_symmetry_2
Cu1 O1 1_555 1_555
S1 O3 1_555 1_555
O1 C1 1_555 1_555
O2 Cu1 1_555 1_555
C1 C2 1_555 1_555
C2 H1 1_555 1_555
N1 Cu1 1_555 1_555
H2 N1 1_555 1_555
H3 N1 1_555 1_555
O4 Cu1 1_555 1_555
O5 S1 1_555 1_555
C3 S1 1_555 1_555
C4 C2 1_555 1_555
H4 C4 1_555 1_555
H5 C4 1_555 1_555
O6 S1 1_555 1_555
C5 C4 1_555 1_555
C6 C3 1_555 1_555
H6 C6 1_555 1_555
C7 C5 1_555 1_555
H7 C7 1_555 1_555
C8 C5 1_555 1_555
H8 C8 1_555 1_555
C9 C3 1_555 1_555
H9 C9 1_555 1_555
O7 C1 1_555 1_555
O7C Cu1 1_555 1_555
Cu1C O7 1_555 1_555
C2 N1 1_555 1_555
C6 C8 1_555 1_555
C7 C9 1_555 1_555

#END
