
#######################################################################
#
#                 Cambridge Crystallographic Data Centre
#                                CCDC 
#
#######################################################################
#
# If this CIF has been generated from an entry in the Cambridge 
# Structural Database, then it will include bibliographic, chemical, 
# crystal, experimental, refinement or atomic coordinate data resulting 
# from the CCDC's data processing and validation procedures.
#
#######################################################################

data_IFOPUO
_symmetry_cell_setting           monoclinic
_symmetry_space_group_name_H-M   'C 2/c'
_symmetry_Int_Tables_number      15
_space_group_name_Hall           '-C 2yn'
loop_
_symmetry_equiv_pos_site_id
_symmetry_equiv_pos_as_xyz
1 x,y,z
2 x,-y,1/2+z
3 1/2+x,1/2+y,z
4 1/2+x,1/2-y,1/2+z
5 -x,-y,-z
6 -x,y,1/2-z
7 1/2-x,1/2-y,-z
8 1/2-x,1/2+y,1/2-z
_cell_length_a                   20.4690(4)
_cell_length_b                   11.0010(2)
_cell_length_c                   18.3430(4)
_cell_angle_alpha                90.00
_cell_angle_beta                 108.5551(11)
_cell_angle_gamma                90.00
_cell_volume                     3915.76
loop_
_atom_site_label
_atom_site_type_symbol
_atom_site_fract_x
_atom_site_fract_y
_atom_site_fract_z
Ce1 Ce 0.751580(6) -0.756560(10) 0.338810(7)
Ce2 Ce 1.0000 -0.544510(15) 0.2500
O1 O 1.16474(9) -0.78704(16) -0.09983(9)
O2 O 0.81288(9) -0.72645(15) 0.47797(10)
O3 O 0.73358(10) -0.96080(14) 0.27626(10)
O4 O 1.26526(9) -1.16395(14) 0.22238(10)
O5 O 0.86169(10) -0.23751(15) 0.26649(12)
O6 O 1.08449(9) -0.39119(16) 0.26945(10)
O7 O 0.91824(9) -0.59948(15) 0.13308(10)
O8 O 0.85425(10) -0.56925(16) 0.01034(11)
O9 O 0.92276(9) -0.64176(15) 0.30442(10)
O10 O 0.87068(9) -0.80215(17) 0.33663(11)
O11 O 1.21692(11) -0.53885(16) 0.13017(11)
H1 H 1.1962 -0.5067 0.0899
H2 H 1.2120 -0.4981 0.1583
N1 N 1.21358(10) -0.94861(16) 0.07371(11)
N2 N 0.99768(10) -0.41896(16) 0.13380(11)
N3 N 1.0000 -0.7757(3) 0.2500
C1 C 1.17768(11) -0.8062(2) -0.02882(13)
C2 C 1.18472(12) -0.9362(2) -0.00185(13)
C3 C 1.16406(14) -1.0352(2) -0.05114(14)
H3 H 1.1424 -1.0247 -0.1061
C4 C 1.17337(16) -1.1508(2) -0.01950(16)
H4 H 1.1571 -1.2199 -0.0574
C5 C 1.20434(14) -1.1637(2) 0.05924(15)
H5 H 1.2119 -1.2431 0.0833
C6 C 1.22404(13) -1.0605(2) 0.10417(13)
C7 C 1.25465(12) -1.0632(2) 0.19056(14)
C8 C 0.95734(12) -0.3285(2) 0.35926(14)
C9 C 0.90728(12) -0.3169(2) 0.27953(14)
C10 C 0.95696(15) -0.2564(2) 0.42112(17)
H6 H 0.9254 -0.1944 0.4159
C11 C 1.00436(15) -0.2813(3) 0.49162(17)
H7 H 1.0082 -0.2325 0.5317
C12 C 1.05127(12) -0.3746(2) 0.49903(14)
H8 H 1.0806 -0.3918 0.5455
C13 C 0.95097(12) -0.44112(19) 0.06576(13)
C14 C 0.90224(12) -0.5437(2) 0.06762(14)
C15 C 0.91206(13) -0.7541(2) 0.30857(15)
C16 C 1.04358(13) -0.8359(2) 0.22242(15)
C17 C 0.95506(17) -0.9627(2) 0.2778(2)
H9 H 0.9245 -0.9970 0.2931
C18 C 1.0000 -1.0240(4) 0.2500
H10 H 1.0000 -1.1033 0.2500
O5G O 0.63831(10) -0.73751(15) 0.23351(12)
O1C O 0.66474(9) -0.71296(16) 0.40017(9)
O4B O 0.76526(9) -0.66395(14) 0.22238(10)
O6E O 0.91551(9) -0.39119(16) 0.23055(10)
O7E O 1.08176(9) -0.59948(15) 0.36692(10)
C14E C 1.09776(12) -0.5437(2) 0.43238(14)
O8E O 1.14575(10) -0.56925(16) 0.48966(11)
C13E C 1.04903(12) -0.44112(19) 0.43424(13)
N2E N 1.00232(10) -0.41896(16) 0.36620(11)
O9E O 1.07724(9) -0.64176(15) 0.19558(10)
C15E C 1.08794(13) -0.7541(2) 0.19143(15)
O10E O 1.12932(9) -0.80215(17) 0.16337(11)
Ce1E Ce 1.248420(6) -0.756560(10) 0.161190(7)
O1F O 1.33526(9) -0.71296(16) 0.09983(9)
O2E O 1.18712(9) -0.72645(15) 0.02203(10)
O3E O 1.26642(10) -0.96080(14) 0.22374(10)
O4G O 1.23474(9) -0.66395(14) 0.27762(10)
O5B O 1.36169(10) -0.73751(15) 0.26649(12)
C16E C 0.95642(13) -0.8359(2) 0.27758(15)
C17E C 1.04494(17) -0.9627(2) 0.2222(2)
H9E H 1.0755 -0.9970 0.2069
C8E C 1.04266(12) -0.3285(2) 0.14074(14)
C9E C 1.09272(12) -0.3169(2) 0.22047(14)
O5E O 1.13831(10) -0.23751(15) 0.23351(12)
C10E C 1.04304(15) -0.2564(2) 0.07888(17)
H6E H 1.0746 -0.1944 0.0841
C11E C 0.99564(15) -0.2813(3) 0.00838(17)
H7E H 0.9918 -0.2325 -0.0317
C12E C 0.94873(12) -0.3746(2) 0.00097(14)
H8E H 0.9194 -0.3918 -0.0455
O11E O 0.78308(11) -0.53885(16) 0.36983(11)
H1E H 0.8038 -0.5067 0.4101
H2E H 0.7880 -0.4981 0.3417
N1E N 0.78642(10) -0.94861(16) 0.42629(11)
C2E C 0.81528(12) -0.9362(2) 0.50185(13)
C1E C 0.82232(11) -0.8062(2) 0.52882(13)
O1E O 0.83526(9) -0.78704(16) 0.59983(9)
C3E C 0.83594(14) -1.0352(2) 0.55114(14)
H3E H 0.8576 -1.0247 0.6061
C4E C 0.82663(16) -1.1508(2) 0.51950(16)
H4E H 0.8429 -1.2199 0.5574
C5E C 0.79566(14) -1.1637(2) 0.44076(15)
H5E H 0.7881 -1.2431 0.4167
C6E C 0.77596(13) -1.0605(2) 0.39583(13)
C7E C 0.74535(12) -1.0632(2) 0.30944(14)
O4E O 0.73474(9) -1.16395(14) 0.27762(10)
Ce1C Ce 1.251580(6) -0.743440(10) -0.161190(7)
Ce1B Ce 1.251580(6) -1.256560(10) 0.338810(7)
Ce1G Ce 0.748420(6) -0.256560(10) 0.161190(7)
Ce1B_2 Ce 1.251580(6) -0.256560(10) 0.338810(7)
Ce1F Ce 0.748420(6) -0.743440(10) 0.661190(7)
Ce1G_2 Ce 0.748420(6) -1.256560(10) 0.161190(7)
loop_
_geom_bond_atom_site_label_1
_geom_bond_atom_site_label_2
_geom_bond_site_symmetry_1
_geom_bond_site_symmetry_2
Ce1 O2 1_555 1_555
Ce2 O6 1_555 1_555
O1 C1 1_555 1_555
O2 C1E 1_555 1_555
O3 Ce1 1_555 1_555
O4 C7 1_555 1_555
O5 C9 1_555 1_555
O6 C9E 1_555 1_555
O7 Ce2 1_555 1_555
O8 C14 1_555 1_555
O9 Ce2 1_555 1_555
O10 Ce1 1_555 1_555
O11 H1 1_555 1_555
H2 O11 1_555 1_555
N1 C2 1_555 1_555
N2 Ce2 1_555 1_555
N3 Ce2 1_555 1_555
C1 C2 1_555 1_555
C2 C3 1_555 1_555
C3 H3 1_555 1_555
C4 C3 1_555 1_555
H4 C4 1_555 1_555
C5 C4 1_555 1_555
H5 C5 1_555 1_555
C6 N1 1_555 1_555
C7 C6 1_555 1_555
C8 C9 1_555 1_555
C9 O6E 1_555 1_555
C10 C8 1_555 1_555
H6 C10 1_555 1_555
C11 C10 1_555 1_555
H7 C11 1_555 1_555
C12 C11 1_555 1_555
H8 C12 1_555 1_555
C13 N2 1_555 1_555
C14 O7 1_555 1_555
C15 O9 1_555 1_555
C16 N3 1_555 1_555
C17 H9 1_555 1_555
C18 C17 1_555 1_555
H10 C18 1_555 1_555
O5G Ce1 1_555 1_555
O1C Ce1 1_555 1_555
O4B Ce1 1_555 1_555
O6E Ce2 1_555 1_555
O7E Ce2 1_555 1_555
C14E O7E 1_555 1_555
O8E C14E 1_555 1_555
C13E C12 1_555 1_555
N2E Ce2 1_555 1_555
O9E Ce2 1_555 1_555
C15E C16 1_555 1_555
O10E C15E 1_555 1_555
Ce1E O11 1_555 1_555
O1F Ce1E 1_555 1_555
O2E C1 1_555 1_555
O3E C7 1_555 1_555
O4G Ce1E 1_555 1_555
O5B Ce1E 1_555 1_555
C16E N3 1_555 1_555
C17E C16 1_555 1_555
H9E C17E 1_555 1_555
C8E N2 1_555 1_555
C9E C8E 1_555 1_555
O5E C9E 1_555 1_555
C10E C8E 1_555 1_555
H6E C10E 1_555 1_555
C11E C10E 1_555 1_555
H7E C11E 1_555 1_555
C12E C13 1_555 1_555
H8E C12E 1_555 1_555
O11E Ce1 1_555 1_555
H1E O11E 1_555 1_555
H2E O11E 1_555 1_555
N1E Ce1 1_555 1_555
C2E N1E 1_555 1_555
C1E C2E 1_555 1_555
O1E C1E 1_555 1_555
C3E C2E 1_555 1_555
H3E C3E 1_555 1_555
C4E C3E 1_555 1_555
H4E C4E 1_555 1_555
C5E C4E 1_555 1_555
H5E C5E 1_555 1_555
C6E N1E 1_555 1_555
C7E O3 1_555 1_555
O4E C7E 1_555 1_555
Ce1C O1 1_555 1_555
Ce1B O4 1_555 1_555
Ce1G O5 1_555 1_555
Ce1B_2 O5E 1_555 1_555
Ce1F O1E 1_555 1_555
Ce1G_2 O4E 1_555 1_555
O10 C15 1_555 1_555
N1 Ce1E 1_555 1_555
C5 C6 1_555 1_555
C8 N2E 1_555 1_555
C13 C14 1_555 1_555
C15 C16E 1_555 1_555
C17 C16E 1_555 1_555
C18 C17E 1_555 1_555
C14E C13E 1_555 1_555
C13E N2E 1_555 1_555
O9E C15E 1_555 1_555
O10E Ce1E 1_555 1_555
Ce1E O2E 1_555 1_555
Ce1E O3E 1_555 1_555
C11E C12E 1_555 1_555
C5E C6E 1_555 1_555
C6E C7E 1_555 1_555

#END
