
#######################################################################
#
#                 Cambridge Crystallographic Data Centre
#                                CCDC 
#
#######################################################################
#
# If this CIF has been generated from an entry in the Cambridge 
# Structural Database, then it will include bibliographic, chemical, 
# crystal, experimental, refinement or atomic coordinate data resulting 
# from the CCDC's data processing and validation procedures.
#
#######################################################################

data_IFOQAV01
_symmetry_cell_setting           monoclinic
_symmetry_space_group_name_H-M   'P 21/c'
_symmetry_Int_Tables_number      14
_space_group_name_Hall           '-P 2ybc'
loop_
_symmetry_equiv_pos_site_id
_symmetry_equiv_pos_as_xyz
1 x,y,z
2 x,1/2-y,1/2+z
3 -x,-y,-z
4 -x,1/2+y,1/2-z
_cell_length_a                   10.966(3)
_cell_length_b                   17.534(4)
_cell_length_c                   13.578(2)
_cell_angle_alpha                90
_cell_angle_beta                 100.23(3)
_cell_angle_gamma                90
_cell_volume                     2569.24
loop_
_atom_site_label
_atom_site_type_symbol
_atom_site_fract_x
_atom_site_fract_y
_atom_site_fract_z
La1 La 0.17281(5) 0.04086(3) 0.09443(4)
La2 La -0.34338(5) 0.26281(3) 0.09305(4)
O1 O 0.2921(6) 0.0135(4) 0.2653(5)
O2 O 0.3526(8) 0.0364(5) 0.4272(6)
O3 O 0.0152(6) 0.1501(4) 0.0620(5)
O4 O -0.1307(7) 0.2187(5) 0.1124(7)
O5 O 0.0513(6) 0.0109(4) -0.0816(5)
O6 O -0.0049(9) 0.0296(5) -0.2436(7)
O7 O 0.3248(7) 0.1499(4) 0.1201(6)
O8 O 0.4368(7) 0.2439(4) 0.0726(6)
O9 O 0.3493(6) -0.0160(4) 0.0260(5)
O10 O 0.3718(7) -0.1409(4) 0.0118(5)
O11 O 0.3275(8) -0.2609(4) -0.2797(6)
O12 O 0.3241(9) -0.2030(4) -0.4255(6)
O13 O 0.1621(6) -0.1093(4) 0.1046(5)
O14 O -0.2038(9) 0.3717(5) 0.1587(8)
O15 O -0.4593(7) 0.3927(4) 0.0688(6)
N1 N 0.1247(7) 0.1218(5) 0.2475(6)
N2 N 0.2129(7) 0.1211(5) -0.0650(6)
N3 N 0.3588(8) -0.1304(5) -0.1828(6)
C1 C 0.2869(10) 0.0485(6) 0.3450(8)
C2 C 0.1866(10) 0.1073(6) 0.3390(8)
C3 C 0.1566(11) 0.1427(7) 0.4233(9)
H1 H 0.2015 0.1329 0.4868
C4 C 0.0575(12) 0.1935(7) 0.4096(9)
H2 H 0.0346 0.2176 0.4645
C5 C -0.0080(11) 0.2084(7) 0.3133(9)
H3 H -0.0745 0.2421 0.3026
C6 C 0.0307(9) 0.1708(6) 0.2349(8)
C7 C -0.0328(9) 0.1808(6) 0.1280(8)
C8 C 0.0600(10) 0.0430(6) -0.1632(8)
C9 C 0.1580(9) 0.1050(6) -0.1572(8)
C10 C 0.1840(10) 0.1423(7) -0.2393(9)
H4 H 0.1394 0.1317 -0.3027
C11 C 0.2771(12) 0.1956(7) -0.2268(10)
H5 H 0.2988 0.2200 -0.2820
C12 C 0.3374(11) 0.2125(7) -0.1330(9)
H6 H 0.4022 0.2475 -0.1230
C13 C 0.2996(9) 0.1759(6) -0.0521(8)
C14 C 0.3585(9) 0.1899(6) 0.0554(8)
C15 C 0.3572(9) -0.1286(6) -0.2815(8)
C16 C 0.3787(12) -0.0616(7) -0.3278(9)
H7 H 0.3772 -0.0611 -0.3965
C17 C 0.4025(12) 0.0052(7) -0.2736(9)
H8 H 0.4199 0.0504 -0.3041
C18 C 0.3994(10) 0.0022(6) -0.1714(8)
H9 H 0.4128 0.0460 -0.1323
C19 C 0.3764(9) -0.0654(6) -0.1299(7)
C20 C 0.3664(9) -0.0738(6) -0.0212(7)
C21 C 0.3366(10) -0.2035(6) -0.3316(8)
O5B O -0.0513(6) -0.0109(4) 0.0816(5)
O8_2 O -0.5632(7) 0.2439(4) 0.0726(6)
O10B O -0.3718(7) 0.1409(4) -0.0118(5)
O11B O -0.3275(8) 0.2609(4) 0.2797(6)
O12C O -0.3241(9) 0.2970(4) -0.0745(6)
N3B N -0.3588(8) 0.1304(5) 0.1828(6)
La1B La -0.17281(5) -0.04086(3) -0.09443(4)
La2_2 La 0.65662(5) 0.26281(3) 0.09305(4)
La2B La 0.34338(5) -0.26281(3) -0.09305(4)
La2C La 0.34338(5) -0.23719(3) -0.59305(4)
loop_
_geom_bond_atom_site_label_1
_geom_bond_atom_site_label_2
_geom_bond_site_symmetry_1
_geom_bond_site_symmetry_2
La1 O1 1_555 1_555
La2 O4 1_555 1_555
O1 C1 1_555 1_555
O2 C1 1_555 1_555
O3 La1 1_555 1_555
O4 C7 1_555 1_555
O5 La1 1_555 1_555
O6 C8 1_555 1_555
O7 La1 1_555 1_555
O8 C14 1_555 1_555
O9 La1 1_555 1_555
O10 C20 1_555 1_555
O11 C21 1_555 1_555
O12 C21 1_555 1_555
O13 La1 1_555 1_555
O14 La2 1_555 1_555
O15 La2 1_555 1_555
N1 La1 1_555 1_555
N2 La1 1_555 1_555
N3 C15 1_555 1_555
C1 C2 1_555 1_555
C2 N1 1_555 1_555
C3 C2 1_555 1_555
H1 C3 1_555 1_555
C4 C3 1_555 1_555
H2 C4 1_555 1_555
C5 C4 1_555 1_555
H3 C5 1_555 1_555
C6 N1 1_555 1_555
C7 O3 1_555 1_555
C8 O5 1_555 1_555
C9 N2 1_555 1_555
C10 C9 1_555 1_555
H4 C10 1_555 1_555
C11 C10 1_555 1_555
H5 C11 1_555 1_555
C12 C11 1_555 1_555
H6 C12 1_555 1_555
C13 N2 1_555 1_555
C14 O7 1_555 1_555
C15 C16 1_555 1_555
C16 H7 1_555 1_555
C17 C16 1_555 1_555
H8 C17 1_555 1_555
C18 C17 1_555 1_555
H9 C18 1_555 1_555
C19 N3 1_555 1_555
C20 O9 1_555 1_555
C21 C15 1_555 1_555
O5B La1 1_555 1_555
O8_2 La2 1_555 1_555
O10B La2 1_555 1_555
O11B La2 1_555 1_555
O12C La2 1_555 1_555
N3B La2 1_555 1_555
La1B O5 1_555 1_555
La2_2 O8 1_555 1_555
La2B O10 1_555 1_555
La2C O12 1_555 1_555
O11 La2B 1_555 1_555
N3 La2B 1_555 1_555
C5 C6 1_555 1_555
C6 C7 1_555 1_555
C8 C9 1_555 1_555
C12 C13 1_555 1_555
C13 C14 1_555 1_555
C18 C19 1_555 1_555
C19 C20 1_555 1_555
O5B La1B 1_555 1_555

#END
