
#######################################################################
#
#                 Cambridge Crystallographic Data Centre
#                                CCDC 
#
#######################################################################
#
# If this CIF has been generated from an entry in the Cambridge 
# Structural Database, then it will include bibliographic, chemical, 
# crystal, experimental, refinement or atomic coordinate data resulting 
# from the CCDC's data processing and validation procedures.
#
#######################################################################

data_IFULEB
_symmetry_cell_setting           monoclinic
_symmetry_space_group_name_H-M   'P 21/n'
_symmetry_Int_Tables_number      14
_space_group_name_Hall           '-P 2yn'
loop_
_symmetry_equiv_pos_site_id
_symmetry_equiv_pos_as_xyz
1 x,y,z
2 1/2-x,1/2+y,1/2-z
3 -x,-y,-z
4 1/2+x,1/2-y,1/2+z
_cell_length_a                   10.553(2)
_cell_length_b                   7.1312(14)
_cell_length_c                   15.791(3)
_cell_angle_alpha                90
_cell_angle_beta                 105.07(3)
_cell_angle_gamma                90
_cell_volume                     1147.49
loop_
_atom_site_label
_atom_site_type_symbol
_atom_site_fract_x
_atom_site_fract_y
_atom_site_fract_z
Cu1 Cu 0.82890(4) 0.68693(6) 0.59499(2)
Cu2 Cu 0.74829(4) 0.43431(6) 0.74762(3)
P1 P 0.55820(7) 0.69233(12) 0.62006(5)
O1 O 0.5805(2) 0.5079(3) 0.67215(15)
O2 O 0.5796(2) 0.8648(3) 0.68088(14)
O3 O 0.6414(2) 0.7048(3) 0.55453(14)
S1 S 0.18276(7) 0.82114(11) 0.43204(5)
O4 O 0.1526(2) 0.9848(3) 0.37393(15)
O5 O 0.1833(2) 0.6481(3) 0.38242(15)
O6 O 0.0958(2) 0.8096(4) 0.49057(15)
C1 C 0.3885(3) 0.6862(5) 0.56008(19)
H1 H 0.3725 0.5717 0.5258
H2 H 0.3350 0.6820 0.6015
C2 C 0.3448(3) 0.8532(4) 0.4986(2)
H3 H 0.4044 0.8679 0.4615
H4 H 0.3486 0.9667 0.5330
O7 O 0.8254(2) 0.6840(3) 0.72394(13)
H5 H 0.9031 0.6654 0.7482
O8 O 0.8352(2) 0.6968(4) 0.47036(15)
H6 H 0.8932 0.7573 0.4569
H7 H 1.0598 0.7033 0.5919
O9 O 1.0209(2) 0.6627(3) 0.62678(14)
H8 H 0.7633 0.7017 0.4347
H9 H 1.0403 0.5590 0.6487
Cu1B Cu 0.17110(4) 1.31307(6) 0.40501(2)
Cu1B_2 Cu 0.17110(4) 0.31307(6) 0.40501(2)
Cu2A Cu 0.75171(4) 0.93431(6) 0.75238(3)
Cu2C Cu 0.24829(4) 1.06569(6) 0.24762(3)
Cu2B Cu 0.25171(4) 0.56569(6) 0.25238(3)
O2A O 0.9204(2) 0.3648(3) 0.81912(14)
O4B O 0.8474(2) 1.0152(3) 0.62607(15)
O4C O 0.6526(2) 0.5152(3) 0.87393(15)
O5B O 0.8167(2) 0.3519(3) 0.61758(15)
O7A O 0.6746(2) 0.1840(3) 0.77606(13)
H5A H 0.5969 0.1654 0.7518
O10 O 0.3840(2) 0.2617(4) 0.66291(16)
H10 H 0.4395 0.3368 0.6564
H11 H 0.3752 0.3195 0.7059
O11 O 0.1112(2) 0.3811(4) 0.73327(16)
H12 H 0.1639 0.4569 0.7617
H13 H 0.0512 0.3840 0.7574
O12 O 0.1476(3) 1.0144(4) 0.6947(2)
H14 H 0.0800 0.9714 0.6626
H15 H 0.1251 1.1196 0.7059
loop_
_geom_bond_atom_site_label_1
_geom_bond_atom_site_label_2
_geom_bond_site_symmetry_1
_geom_bond_site_symmetry_2
Cu1 O3 1_555 1_555
Cu2 O1 1_555 1_555
P1 O1 1_555 1_555
O2 P1 1_555 1_555
O3 P1 1_555 1_555
S1 O4 1_555 1_555
O4 Cu1B 1_555 1_555
O5 S1 1_555 1_555
O6 S1 1_555 1_555
C1 P1 1_555 1_555
H1 C1 1_555 1_555
H2 C1 1_555 1_555
C2 S1 1_555 1_555
H3 C2 1_555 1_555
H4 C2 1_555 1_555
O7 Cu1 1_555 1_555
H5 O7 1_555 1_555
O8 Cu1 1_555 1_555
H6 O8 1_555 1_555
H7 O9 1_555 1_555
O9 Cu1 1_555 1_555
H8 O8 1_555 1_555
H9 O9 1_555 1_555
O10 H10 1_555 1_555
H11 O10 1_555 1_555
O11 H12 1_555 1_555
H13 O11 1_555 1_555
O12 H14 1_555 1_555
H15 O12 1_555 1_555
Cu1B_2 O5 1_555 1_555
Cu2A O2 1_555 1_555
Cu2C O4 1_555 1_555
Cu2B O5 1_555 1_555
O2A Cu2 1_555 1_555
O4B Cu1 1_555 1_555
O4C Cu2 1_555 1_555
O5B Cu1 1_555 1_555
O7A Cu2 1_555 1_555
H5A O7A 1_555 1_555
Cu2 O7 1_555 1_555
Cu2 O5B 1_555 1_555
C1 C2 1_555 1_555
O7 Cu2A 1_555 1_555
Cu2A O4B 1_555 1_555

#END
