
#######################################################################
#
#                 Cambridge Crystallographic Data Centre
#                                CCDC 
#
#######################################################################
#
# If this CIF has been generated from an entry in the Cambridge 
# Structural Database, then it will include bibliographic, chemical, 
# crystal, experimental, refinement or atomic coordinate data resulting 
# from the CCDC's data processing and validation procedures.
#
#######################################################################

data_IFUSEH
_symmetry_cell_setting           monoclinic
_symmetry_space_group_name_H-M   'C 2/c'
_symmetry_Int_Tables_number      15
_space_group_name_Hall           '-C 2yn'
loop_
_symmetry_equiv_pos_site_id
_symmetry_equiv_pos_as_xyz
1 x,y,z
2 1/2+x,1/2+y,z
3 x,-y,1/2+z
4 1/2+x,1/2-y,1/2+z
5 -x,-y,-z
6 1/2-x,1/2-y,-z
7 -x,y,1/2-z
8 1/2-x,1/2+y,1/2-z
_cell_length_a                   17.0148(17)
_cell_length_b                   11.1494(11)
_cell_length_c                   17.5724(18)
_cell_angle_alpha                90
_cell_angle_beta                 100.987(2)
_cell_angle_gamma                90
_cell_volume                     3272.47
loop_
_atom_site_label
_atom_site_type_symbol
_atom_site_fract_x
_atom_site_fract_y
_atom_site_fract_z
Cu1 Cu 0.40078(5) 0.11713(6) 0.19957(5)
O1 O 0.4544(2) 0.1171(4) 0.3106(2)
O2 O 0.3316(3) 0.1244(4) 0.3313(3)
O3 O 0.3652(3) 0.1126(4) 0.0871(2)
O4 O 0.2429(3) 0.1090(6) 0.1126(3)
N1 N 0.3959(3) -0.0641(4) 0.2011(3)
N2 N 0.3952(3) -0.7010(4) 0.1988(3)
C1 C 0.4333(4) -0.1270(6) 0.1532(4)
H1 H 0.4613 -0.0858 0.1208
C2 C 0.4315(4) -0.2497(6) 0.1494(4)
H2 H 0.4566 -0.2879 0.1135
C3 C 0.3936(4) -0.3198(5) 0.1977(4)
C4 C 0.3542(4) -0.2515(5) 0.2478(4)
H3 H 0.3261 -0.2901 0.2812
C5 C 0.3586(4) -0.1277(5) 0.2468(4)
H4 H 0.3327 -0.0858 0.2806
C6 C 0.4391(4) -0.6378(5) 0.1578(4)
H5 H 0.4709 -0.6792 0.1291
C7 C 0.4398(4) -0.5144(5) 0.1561(4)
H6 H 0.4722 -0.4747 0.1272
C8 C 0.3915(4) -0.4482(6) 0.1977(4)
C9 C 0.3453(4) -0.5169(5) 0.2385(4)
H7 H 0.3117 -0.4783 0.2666
C10 C 0.3480(4) -0.6394(6) 0.2382(4)
H8 H 0.3162 -0.6818 0.2665
C11 C 0.4044(4) 0.1219(5) 0.3564(4)
C12 C 0.4410(7) 0.1256(9) 0.4434(4)
H9 H 0.4983 0.1229 0.4506
H10 H 0.4250 0.1984 0.4654
H11 H 0.4222 0.0580 0.4686
C13 C 0.2893(4) 0.1034(6) 0.0662(4)
C14 C 0.2585(5) 0.0840(8) -0.0178(4)
H12 H 0.3025 0.0825 -0.0448
H13 H 0.2305 0.0088 -0.0251
H14 H 0.2226 0.1478 -0.0378
O1F O 0.5456(2) 0.1171(4) 0.1894(2)
N2_2 N 0.3952(3) 0.2990(4) 0.1988(3)
Cu1F Cu 0.59922(5) 0.11713(6) 0.30043(5)
Cu1_2 Cu 0.40078(5) -0.88287(6) 0.19957(5)
O5 O 0.0830(8) 0.1544(12) 0.0565(7)
O6 O 0.2843(6) 0.2976(9) 0.4396(6)
O7 O 0.0725(11) 0.0729(18) 0.5389(11)
loop_
_geom_bond_atom_site_label_1
_geom_bond_atom_site_label_2
_geom_bond_site_symmetry_1
_geom_bond_site_symmetry_2
Cu1 O1 1_555 1_555
O1 C11 1_555 1_555
O2 C11 1_555 1_555
O3 Cu1 1_555 1_555
O4 C13 1_555 1_555
N1 Cu1 1_555 1_555
N2 C6 1_555 1_555
C1 N1 1_555 1_555
H1 C1 1_555 1_555
C2 C1 1_555 1_555
H2 C2 1_555 1_555
C3 C2 1_555 1_555
C4 C3 1_555 1_555
H3 C4 1_555 1_555
C5 N1 1_555 1_555
H4 C5 1_555 1_555
C6 H5 1_555 1_555
C7 C6 1_555 1_555
H6 C7 1_555 1_555
C8 C3 1_555 1_555
C9 C8 1_555 1_555
H7 C9 1_555 1_555
C10 N2 1_555 1_555
H8 C10 1_555 1_555
C11 C12 1_555 1_555
C12 H9 1_555 1_555
H10 C12 1_555 1_555
H11 C12 1_555 1_555
C13 O3 1_555 1_555
C14 C13 1_555 1_555
H12 C14 1_555 1_555
H13 C14 1_555 1_555
H14 C14 1_555 1_555
O1F Cu1 1_555 1_555
N2_2 Cu1 1_555 1_555
Cu1F O1 1_555 1_555
Cu1_2 N2 1_555 1_555
C4 C5 1_555 1_555
C7 C8 1_555 1_555
C9 C10 1_555 1_555
O1F Cu1F 1_555 1_555

#END
