
#######################################################################
#
#                 Cambridge Crystallographic Data Centre
#                                CCDC 
#
#######################################################################
#
# If this CIF has been generated from an entry in the Cambridge 
# Structural Database, then it will include bibliographic, chemical, 
# crystal, experimental, refinement or atomic coordinate data resulting 
# from the CCDC's data processing and validation procedures.
#
#######################################################################

data_IGEJUA
_symmetry_cell_setting           monoclinic
_symmetry_space_group_name_H-M   'P 21/c'
_symmetry_Int_Tables_number      14
_space_group_name_Hall           '-P 2ybc'
loop_
_symmetry_equiv_pos_site_id
_symmetry_equiv_pos_as_xyz
1 x,y,z
2 -x,1/2+y,1/2-z
3 -x,-y,-z
4 x,1/2-y,1/2+z
_cell_length_a                   16.6366(6)
_cell_length_b                   10.1870(4)
_cell_length_c                   14.7789(6)
_cell_angle_alpha                90
_cell_angle_beta                 113.9920(10)
_cell_angle_gamma                90
_cell_volume                     2288.29
loop_
_atom_site_label
_atom_site_type_symbol
_atom_site_fract_x
_atom_site_fract_y
_atom_site_fract_z
Cd1 Cd 0.0000 0.5000 -0.5000
O1 O -0.10905(14) 0.6721(2) -0.5491(2)
H1 H -0.128(3) 0.708(4) -0.624(3)
H2 H -0.125(3) 0.709(4) -0.499(3)
N1 N 0.09337(12) 0.6400(2) -0.53817(16)
N2 N 0.35406(14) 0.5317(2) -0.42520(18)
N3 N 0.93548(15) 0.0838(3) -0.16396(19)
H3 H 0.964(2) 0.127(3) -0.174(2)
H4 H 0.933(3) 0.014(4) -0.205(3)
C1 C 0.07174(16) 0.7632(3) -0.5730(2)
H5 H 0.0132 0.7890 -0.5963
C2 C 0.13339(17) 0.8525(3) -0.5754(2)
H6 H 0.1164 0.9369 -0.5997
C3 C 0.22064(17) 0.8148(3) -0.5412(2)
H7 H 0.2630 0.8735 -0.5421
C4 C 0.24412(14) 0.6890(2) -0.50558(17)
C5 C 0.17771(14) 0.6053(2) -0.50543(18)
H8 H 0.1932 0.5206 -0.4811
C6 C 0.33541(15) 0.6417(3) -0.4657(2)
H9 H 0.3794 0.6937 -0.4707
C7 C 0.44016(16) 0.4787(2) -0.38375(19)
C8 C 0.51421(16) 0.5410(3) -0.3862(2)
H10 H 0.5084 0.6234 -0.4153
C9 C 0.59605(17) 0.4813(2) -0.3456(2)
H11 H 0.6448 0.5243 -0.3471
C10 C 0.60602(14) 0.3569(2) -0.30248(17)
C11 C 0.53133(15) 0.2972(2) -0.30005(18)
H12 H 0.5371 0.2152 -0.2703
C12 C 0.44872(14) 0.3554(2) -0.34024(18)
C13 C 0.36952(18) 0.2862(3) -0.3378(3)
H13 H 0.3184 0.3403 -0.3689
H14 H 0.3788 0.2699 -0.2703
H15 H 0.3610 0.2043 -0.3727
C14 C 0.69200(14) 0.2884(2) -0.26414(17)
C15 C 0.77168(15) 0.3556(2) -0.22579(19)
H16 H 0.7707 0.4467 -0.2223
C16 C 0.85294(15) 0.2924(3) -0.19240(19)
C17 C 0.85379(15) 0.1569(3) -0.19808(18)
C18 C 0.77585(16) 0.0869(3) -0.2340(2)
H17 H 0.7772 -0.0043 -0.2358
C19 C 0.69583(15) 0.1514(2) -0.26733(19)
H18 H 0.6439 0.1031 -0.2921
C20 C 0.93667(18) 0.3720(3) -0.1551(3)
H19 H 0.9864 0.3140 -0.1336
H20 H 0.9393 0.4257 -0.1006
H21 H 0.9375 0.4270 -0.2075
Cd1A Cd 1.0000 0.0000 0.0000
Cd1A_2 Cd -1.0000 1.0000 -1.0000
O1B O 0.10905(14) 0.3279(2) -0.4509(2)
H1B H 0.128(3) 0.292(4) -0.376(3)
H2B H 0.125(3) 0.291(4) -0.501(3)
N1B N -0.09337(12) 0.3600(2) -0.46183(16)
N2B N -0.35406(14) 0.4683(2) -0.57480(18)
N3A N 0.06452(15) 0.5838(3) -0.33604(19)
N3C N -0.06452(15) 0.4162(3) -0.66396(19)
N3B N -0.93548(15) 0.9162(3) -0.83604(19)
H3C H -0.036(2) 0.373(3) -0.674(2)
H3A H 0.036(2) 0.627(3) -0.326(2)
H3B H -0.964(2) 0.873(3) -0.826(2)
H4C H -0.067(3) 0.486(4) -0.705(3)
H4A H 0.067(3) 0.514(4) -0.295(3)
H4B H -0.933(3) 0.986(4) -0.795(3)
C1B C -0.07174(16) 0.2368(3) -0.4270(2)
H5B H -0.0132 0.2110 -0.4037
C2B C -0.13339(17) 0.1475(3) -0.4246(2)
H6B H -0.1164 0.0631 -0.4003
C3B C -0.22064(17) 0.1852(3) -0.4588(2)
H7B H -0.2630 0.1265 -0.4579
C4B C -0.24412(14) 0.3110(2) -0.49442(17)
C5B C -0.17771(14) 0.3947(2) -0.49457(18)
H8B H -0.1932 0.4794 -0.5189
C6B C -0.33541(15) 0.3583(3) -0.5343(2)
H9B H -0.3794 0.3063 -0.5293
C7B C -0.44016(16) 0.5213(2) -0.61625(19)
C8B C -0.51421(16) 0.4590(3) -0.6138(2)
H10B H -0.5084 0.3766 -0.5847
C9B C -0.59605(17) 0.5187(2) -0.6544(2)
H11B H -0.6448 0.4757 -0.6529
C10B C -0.60602(14) 0.6431(2) -0.69752(17)
C11B C -0.53133(15) 0.7028(2) -0.69995(18)
H12B H -0.5371 0.7848 -0.7297
C12B C -0.44872(14) 0.6446(2) -0.65976(18)
C13B C -0.36952(18) 0.7138(3) -0.6622(3)
H13B H -0.3184 0.6597 -0.6311
H14B H -0.3788 0.7301 -0.7297
H15B H -0.3610 0.7957 -0.6273
C14B C -0.69200(14) 0.7116(2) -0.73586(17)
C15B C -0.77168(15) 0.6444(2) -0.77421(19)
H16B H -0.7707 0.5533 -0.7777
C16B C -0.85294(15) 0.7076(3) -0.80760(19)
C17B C -0.85379(15) 0.8431(3) -0.80192(18)
C18B C -0.77585(16) 0.9131(3) -0.7660(2)
H17B H -0.7772 1.0043 -0.7642
C19B C -0.69583(15) 0.8486(2) -0.73267(19)
H18B H -0.6439 0.8969 -0.7079
C20B C -0.93667(18) 0.6280(3) -0.8449(3)
H19B H -0.9864 0.6860 -0.8664
H20B H -0.9393 0.5743 -0.8994
H21B H -0.9375 0.5730 -0.7925
Cl1 Cl 0.16475(5) 0.26261(7) -0.67195(7)
O2 O 0.1154(3) 0.3729(3) -0.6674(3)
O3 O 0.1855(4) 0.1923(7) -0.5767(4)
O4 O 0.1084(3) 0.1678(4) -0.7295(4)
O5 O 0.2278(5) 0.2862(5) -0.6994(9)
C21 C 0.4315(5) 0.4215(9) -1.0184(10)
H22 H 0.3838 0.3656 -1.0319
C22 C 0.4544(9) 0.5033(12) -0.9455(9)
H23 H 0.4226 0.5073 -0.9064
C23 C 0.4773(10) 0.4188(7) -1.0739(4)
H24 H 0.4610 0.3612 -1.1272
C21B C 0.5685(5) 0.5785(9) -0.9816(10)
H22B H 0.6162 0.6344 -0.9681
C22B C 0.5456(9) 0.4967(12) -1.0545(9)
H23B H 0.5774 0.4927 -1.0936
C23B C 0.5227(10) 0.5812(7) -0.9261(4)
H24B H 0.5390 0.6388 -0.8728
loop_
_geom_bond_atom_site_label_1
_geom_bond_atom_site_label_2
_geom_bond_site_symmetry_1
_geom_bond_site_symmetry_2
Cd1 O1 1_555 1_555
Cl1 O2 1_555 1_555
O1 H1 1_555 1_555
H2 O1 1_555 1_555
O3 Cl1 1_555 1_555
O4 Cl1 1_555 1_555
O5 Cl1 1_555 1_555
N1 Cd1 1_555 1_555
N2 C6 1_555 1_555
N3 H3 1_555 1_555
H4 N3 1_555 1_555
C1 N1 1_555 1_555
H5 C1 1_555 1_555
C2 C1 1_555 1_555
H6 C2 1_555 1_555
C3 C2 1_555 1_555
H7 C3 1_555 1_555
C4 C3 1_555 1_555
C5 N1 1_555 1_555
H8 C5 1_555 1_555
C6 C4 1_555 1_555
H9 C6 1_555 1_555
C7 N2 1_555 1_555
C8 C7 1_555 1_555
H10 C8 1_555 1_555
C9 C8 1_555 1_555
H11 C9 1_555 1_555
C10 C9 1_555 1_555
C11 C10 1_555 1_555
H12 C11 1_555 1_555
C12 C7 1_555 1_555
C13 C12 1_555 1_555
H13 C13 1_555 1_555
H14 C13 1_555 1_555
H15 C13 1_555 1_555
C14 C10 1_555 1_555
C15 C14 1_555 1_555
H16 C15 1_555 1_555
C16 C15 1_555 1_555
C17 N3 1_555 1_555
C18 C17 1_555 1_555
H17 C18 1_555 1_555
C19 C14 1_555 1_555
H18 C19 1_555 1_555
C20 C16 1_555 1_555
H19 C20 1_555 1_555
H20 C20 1_555 1_555
H21 C20 1_555 1_555
C21 H22 1_555 1_555
C22 C21 1_555 1_555
H23 C22 1_555 1_555
C23 C21 1_555 1_555
H24 C23 1_555 1_555
Cd1A N3 1_555 1_555
Cd1A_2 N3B 1_555 1_555
O1B Cd1 1_555 1_555
H1B O1B 1_555 1_555
H2B O1B 1_555 1_555
N1B Cd1 1_555 1_555
N2B C6B 1_555 1_555
N3A Cd1 1_555 1_555
N3C Cd1 1_555 1_555
N3B H3B 1_555 1_555
H3C N3C 1_555 1_555
H3A N3A 1_555 1_555
H4C N3C 1_555 1_555
H4A N3A 1_555 1_555
H4B N3B 1_555 1_555
C1B N1B 1_555 1_555
H5B C1B 1_555 1_555
C2B C1B 1_555 1_555
H6B C2B 1_555 1_555
C3B C2B 1_555 1_555
H7B C3B 1_555 1_555
C4B C3B 1_555 1_555
C5B N1B 1_555 1_555
H8B C5B 1_555 1_555
C6B C4B 1_555 1_555
H9B C6B 1_555 1_555
C7B N2B 1_555 1_555
C8B C7B 1_555 1_555
H10B C8B 1_555 1_555
C9B C8B 1_555 1_555
H11B C9B 1_555 1_555
C10B C9B 1_555 1_555
C11B C10B 1_555 1_555
H12B C11B 1_555 1_555
C12B C7B 1_555 1_555
C13B C12B 1_555 1_555
H13B C13B 1_555 1_555
H14B C13B 1_555 1_555
H15B C13B 1_555 1_555
C14B C10B 1_555 1_555
C15B C14B 1_555 1_555
H16B C15B 1_555 1_555
C16B C15B 1_555 1_555
C17B N3B 1_555 1_555
C18B C17B 1_555 1_555
H17B C18B 1_555 1_555
C19B C14B 1_555 1_555
H18B C19B 1_555 1_555
C20B C16B 1_555 1_555
H19B C20B 1_555 1_555
H20B C20B 1_555 1_555
H21B C20B 1_555 1_555
C21B H22B 1_555 1_555
C22B C23 1_555 1_555
H23B C22B 1_555 1_555
C23B C22 1_555 1_555
H24B C23B 1_555 1_555
C4 C5 1_555 1_555
C11 C12 1_555 1_555
C16 C17 1_555 1_555
C18 C19 1_555 1_555
C4B C5B 1_555 1_555
C11B C12B 1_555 1_555
C16B C17B 1_555 1_555
C18B C19B 1_555 1_555
C21B C22B 1_555 1_555
C21B C23B 1_555 1_555

#END
