
#######################################################################
#
#                 Cambridge Crystallographic Data Centre
#                                CCDC 
#
#######################################################################
#
# If this CIF has been generated from an entry in the Cambridge 
# Structural Database, then it will include bibliographic, chemical, 
# crystal, experimental, refinement or atomic coordinate data resulting 
# from the CCDC's data processing and validation procedures.
#
#######################################################################

data_IGEPEP
_symmetry_cell_setting           monoclinic
_symmetry_space_group_name_H-M   'P 21'
_symmetry_Int_Tables_number      4
_space_group_name_Hall           'P 2yb'
loop_
_symmetry_equiv_pos_site_id
_symmetry_equiv_pos_as_xyz
1 x,y,z
2 -x,1/2+y,-z
_cell_length_a                   5.6141(3)
_cell_length_b                   12.4252(6)
_cell_length_c                   16.4117(8)
_cell_angle_alpha                90
_cell_angle_beta                 98.9250(10)
_cell_angle_gamma                90
_cell_volume                     1130.96
loop_
_atom_site_label
_atom_site_type_symbol
_atom_site_fract_x
_atom_site_fract_y
_atom_site_fract_z
Mn1 Mn 1.02711(8) 0.30859(4) 0.16690(3)
Mn2 Mn 0.43830(8) 0.18626(4) 0.32722(3)
P1 P 0.47191(16) 0.41307(7) 0.09662(6)
P2 P 0.50921(14) 0.17260(8) 0.12669(5)
P3 P 0.99371(15) 0.08322(7) 0.39567(6)
P4 P 0.95563(15) 0.32519(7) 0.36935(5)
O1 O 0.7400(4) 0.4222(2) 0.12597(16)
O4 O 0.3080(4) 0.4256(2) 0.16130(15)
O5 O 0.3843(4) 0.4948(2) 0.02717(16)
H5 H 0.4907 0.5247 -0.0209
O6 O 0.7800(4) 0.1804(2) 0.14868(15)
O7 O 0.3664(4) 0.1914(2) 0.19697(15)
O8 O 0.4318(4) 0.0624(2) 0.08761(15)
O9 O 0.1436(4) 0.2725(2) 0.03710(15)
H6 H 0.0994 0.2200 0.0072
O10 O 0.7240(4) 0.0749(2) 0.36916(16)
O11 O 1.1476(4) 0.0744(2) 0.32808(15)
O12 O 1.0873(4) -0.0011(2) 0.46217(16)
H7 H 1.0225 -0.0234 0.5203
O13 O 1.0951(4) 0.3092(2) 0.29723(14)
O14 O 0.6844(4) 0.3161(2) 0.34812(15)
O15 O 1.0337(4) 0.4335(2) 0.41044(15)
O16 O 1.3236(4) 0.2228(2) 0.45554(15)
H8 H 1.3678 0.2811 0.4775
C1 C 0.4057(5) 0.2781(3) 0.0511(2)
C2 C 0.5102(6) 0.2671(3) -0.0288(2)
H9 H 0.4506 0.3252 -0.0659
H10 H 0.4617 0.1986 -0.0545
H11 H 0.6847 0.2706 -0.0168
C3 C 1.0612(6) 0.2170(3) 0.4427(2)
C4 C 0.9587(6) 0.2271(3) 0.5233(2)
H12 H 0.9963 0.2977 0.5470
H13 H 1.0296 0.1722 0.5617
H14 H 0.7852 0.2176 0.5125
O4_2 O 1.3080(4) 0.4256(2) 0.16130(15)
O7_2 O 1.3664(4) 0.1914(2) 0.19697(15)
O9_2 O 1.1436(4) 0.2725(2) 0.03710(15)
O11_2 O 0.1476(4) 0.0744(2) 0.32808(15)
O13_2 O 0.0951(4) 0.3092(2) 0.29723(14)
O16_2 O 0.3236(4) 0.2228(2) 0.45554(15)
Mn1_2 Mn 0.02711(8) 0.30859(4) 0.16690(3)
Mn2_2 Mn 1.43830(8) 0.18626(4) 0.32722(3)
H6_2 H 1.0994 0.2200 0.0072
H8_2 H 0.3678 0.2811 0.4775
O2 O -0.0111(5) 0.6107(3) 0.0692(2)
H1 H 0.1293 0.5794 0.0627
H2 H -0.1300 0.5627 0.0716
O3 O 1.5160(5) -0.1087(3) 0.4455(2)
H3 H 1.4030 -0.0724 0.4677
H4 H 1.6061 -0.0656 0.4183
N1 N 0.0412(6) 0.9915(3) 0.1657(2)
H15 H -0.1039 1.0130 0.1396
H16 H 0.1525 1.0012 0.1324
H17 H 0.0815 1.0304 0.2120
C5 C 0.0305(8) 0.8768(3) 0.1871(3)
H18 H -0.0225 0.8345 0.1372
H19 H -0.0861 0.8662 0.2251
C6 C 0.2759(7) 0.8398(3) 0.2270(2)
H20 H 0.3402 0.8913 0.2701
H21 H 0.3842 0.8394 0.1856
C7 C 0.2743(8) 0.7282(3) 0.2651(3)
H22 H 0.1948 0.7313 0.3141
H23 H 0.1825 0.6789 0.2254
C8 C 0.5270(7) 0.6863(3) 0.2888(3)
H24 H 0.5873 0.6647 0.2383
H25 H 0.6287 0.7456 0.3133
C9 C 0.5583(8) 0.5942(3) 0.3471(3)
H26 H 0.7283 0.5726 0.3553
H27 H 0.5213 0.6188 0.4005
N2 N 0.4099(5) 0.4988(3) 0.32175(19)
H28 H 0.3703 0.4981 0.2665
H29 H 0.2748 0.5010 0.3449
H30 H 0.4938 0.4389 0.3384
loop_
_geom_bond_atom_site_label_1
_geom_bond_atom_site_label_2
_geom_bond_site_symmetry_1
_geom_bond_site_symmetry_2
Mn1 O1 1_555 1_555
Mn2 O7 1_555 1_555
P1 O1 1_555 1_555
P2 O6 1_555 1_555
P3 O10 1_555 1_555
P4 O13 1_555 1_555
O2 H1 1_555 1_555
H2 O2 1_555 1_555
O3 H3 1_555 1_555
H4 O3 1_555 1_555
O4 P1 1_555 1_555
O5 P1 1_555 1_555
H5 O5 1_555 1_555
O6 Mn1 1_555 1_555
O7 P2 1_555 1_555
O8 P2 1_555 1_555
O9 H6 1_555 1_555
O10 Mn2 1_555 1_555
O11 P3 1_555 1_555
O12 P3 1_555 1_555
H7 O12 1_555 1_555
O13 Mn1 1_555 1_555
O14 Mn2 1_555 1_555
O15 P4 1_555 1_555
O16 H8 1_555 1_555
C1 P1 1_555 1_555
C2 C1 1_555 1_555
H9 C2 1_555 1_555
H10 C2 1_555 1_555
H11 C2 1_555 1_555
C3 P3 1_555 1_555
C4 C3 1_555 1_555
H12 C4 1_555 1_555
H13 C4 1_555 1_555
H14 C4 1_555 1_555
N1 H15 1_555 1_555
H16 N1 1_555 1_555
H17 N1 1_555 1_555
C5 N1 1_555 1_555
H18 C5 1_555 1_555
H19 C5 1_555 1_555
C6 C5 1_555 1_555
H20 C6 1_555 1_555
H21 C6 1_555 1_555
C7 C6 1_555 1_555
H22 C7 1_555 1_555
H23 C7 1_555 1_555
C8 C7 1_555 1_555
H24 C8 1_555 1_555
H25 C8 1_555 1_555
C9 C8 1_555 1_555
H26 C9 1_555 1_555
H27 C9 1_555 1_555
N2 C9 1_555 1_555
H28 N2 1_555 1_555
H29 N2 1_555 1_555
H30 N2 1_555 1_555
O4_2 Mn1 1_555 1_555
O7_2 Mn1 1_555 1_555
O9_2 Mn1 1_555 1_555
O11_2 Mn2 1_555 1_555
O13_2 Mn2 1_555 1_555
O16_2 Mn2 1_555 1_555
Mn1_2 O4 1_555 1_555
Mn2_2 O11 1_555 1_555
H6_2 O9_2 1_555 1_555
H8_2 O16_2 1_555 1_555
P2 C1 1_555 1_555
P4 C3 1_555 1_555
P4 O14 1_555 1_555
O7 Mn1_2 1_555 1_555
O9 C1 1_555 1_555
O9 Mn1_2 1_555 1_555
O13 Mn2_2 1_555 1_555
O16 C3 1_555 1_555
O16 Mn2_2 1_555 1_555
O7_2 Mn2_2 1_555 1_555
O13_2 Mn1_2 1_555 1_555

#END
