
#######################################################################
#
#                 Cambridge Crystallographic Data Centre
#                                CCDC 
#
#######################################################################
#
# If this CIF has been generated from an entry in the Cambridge 
# Structural Database, then it will include bibliographic, chemical, 
# crystal, experimental, refinement or atomic coordinate data resulting 
# from the CCDC's data processing and validation procedures.
#
#######################################################################

data_IGERUI
_symmetry_cell_setting           monoclinic
_symmetry_space_group_name_H-M   'P 21/c'
_symmetry_Int_Tables_number      14
_space_group_name_Hall           '-P 2ybc'
loop_
_symmetry_equiv_pos_site_id
_symmetry_equiv_pos_as_xyz
1 x,y,z
2 -x,1/2+y,1/2-z
3 -x,-y,-z
4 x,1/2-y,1/2+z
_cell_length_a                   9.637(5)
_cell_length_b                   25.462(5)
_cell_length_c                   15.168(5)
_cell_angle_alpha                90
_cell_angle_beta                 99.612(5)
_cell_angle_gamma                90
_cell_volume                     3669.63
loop_
_atom_site_label
_atom_site_type_symbol
_atom_site_fract_x
_atom_site_fract_y
_atom_site_fract_z
O3 O -0.9689(5) 0.2303(2) -0.3253(4)
O4 O -0.9864(6) 0.2253(3) -0.4705(5)
O5 O -0.2560(5) 0.1971(3) -0.2328(4)
O6 O -0.2281(5) 0.2233(2) -0.3648(4)
C37 C -0.9123(7) 0.2274(3) -0.3967(5)
C38 C -0.7556(6) 0.2235(2) -0.3818(4)
C39 C -0.6849(6) 0.2430(2) -0.3037(4)
H21 H -0.7351 0.2589 -0.2637
C40 C -0.5366(6) 0.2396(3) -0.2819(4)
H22 H -0.4906 0.2545 -0.2290
C41 C -0.4613(5) 0.2150(2) -0.3369(4)
C42 C -0.5327(5) 0.1944(2) -0.4198(4)
C43 C -0.4589(7) 0.1682(2) -0.4819(5)
H23 H -0.3621 0.1634 -0.4668
C44 C -0.5253(8) 0.1503(3) -0.5612(5)
H24 H -0.4748 0.1340 -0.6007
C45 C -0.6709(9) 0.1567(3) -0.5840(5)
H25 H -0.7165 0.1451 -0.6394
C46 C -0.7483(7) 0.1797(3) -0.5258(4)
H26 H -0.8455 0.1824 -0.5415
C47 C -0.6808(5) 0.1992(2) -0.4429(4)
C48 C -0.3015(6) 0.2110(3) -0.3075(5)
H27 H -1.078(9) 0.232(3) -0.347(5)
Co1 Co 0.07868(7) 0.04293(3) 0.13260(4)
N1 N 0.2944(4) 0.06273(17) 0.1755(3)
N2 N 0.1112(4) 0.10508(16) 0.0434(3)
N3 N 0.6770(5) 0.1559(2) 0.0797(4)
N4 N 0.4847(5) 0.2029(2) -0.0583(3)
N5 N 0.0090(4) 0.09073(17) 0.2361(3)
N6 N 0.0566(4) -0.01298(17) 0.2352(3)
N7 N -0.2402(5) 0.0722(2) 0.4827(3)
N8 N -0.2055(5) -0.0367(2) 0.4759(3)
O1 O -0.1338(3) 0.03055(14) 0.0909(2)
O2 O -0.1437(3) 0.01642(13) -0.0548(2)
C1 C 0.3844(5) 0.0393(2) 0.2384(3)
H1 H 0.3494 0.0151 0.2750
C2 C 0.5282(6) 0.0486(3) 0.2530(4)
H2 H 0.5874 0.0315 0.2988
C3 C 0.5813(6) 0.0839(3) 0.1982(4)
H3 H 0.6774 0.0908 0.2063
C4 C 0.4906(5) 0.1089(2) 0.1313(3)
C5 C 0.5391(5) 0.1458(2) 0.0695(4)
C6 C 0.7152(7) 0.1899(3) 0.0208(5)
H4 H 0.8097 0.1989 0.0261
C7 C 0.6219(7) 0.2120(3) -0.0466(5)
H5 H 0.6563 0.2345 -0.0862
C8 C 0.4415(6) 0.1691(2) 0.0018(4)
C9 C 0.2927(5) 0.1570(2) -0.0079(3)
C10 C 0.1913(6) 0.1790(2) -0.0736(4)
H6 H 0.2173 0.2036 -0.1131
C11 C 0.0544(6) 0.1645(2) -0.0800(4)
H7 H -0.0142 0.1793 -0.1233
C12 C 0.0177(5) 0.1268(2) -0.0200(4)
H8 H -0.0760 0.1167 -0.0252
C13 C 0.2471(5) 0.1205(2) 0.0507(3)
C14 C 0.3463(5) 0.0969(2) 0.1222(3)
C15 C -0.0090(6) 0.1423(2) 0.2365(4)
H9 H 0.0211 0.1622 0.1918
C16 C -0.0705(6) 0.1680(2) 0.3003(4)
H10 H -0.0774 0.2045 0.2999
C17 C -0.1213(6) 0.1392(2) 0.3643(4)
H11 H -0.1645 0.1558 0.4072
C18 C -0.1073(5) 0.0847(2) 0.3640(3)
C19 C -0.1659(5) 0.0498(2) 0.4266(3)
C20 C -0.2963(7) 0.0393(3) 0.5338(4)
H12 H -0.3503 0.0529 0.5738
C21 C -0.2784(7) -0.0149(3) 0.5307(4)
H13 H -0.3200 -0.0361 0.5689
C22 C -0.1476(6) -0.0043(2) 0.4223(3)
C23 C -0.0672(5) -0.0272(2) 0.3590(3)
C24 C -0.0400(6) -0.0807(2) 0.3566(4)
H14 H -0.0733 -0.1036 0.3961
C25 C 0.0373(7) -0.0992(3) 0.2944(4)
H15 H 0.0588 -0.1347 0.2921
C26 C 0.0829(6) -0.0642(2) 0.2351(4)
H16 H 0.1345 -0.0772 0.1933
C27 C -0.0164(5) 0.0057(2) 0.2985(3)
C28 C -0.0383(5) 0.0620(2) 0.2995(3)
C29 C -0.1979(5) 0.01889(19) 0.0141(3)
C30 C -0.3542(5) 0.0089(2) 0.0076(3)
C31 C -0.4470(5) 0.0329(2) -0.0613(4)
C32 C -0.4043(5) -0.0240(2) 0.0698(4)
C33 C -0.3116(10) -0.0557(4) 0.1442(7)
H17 H -0.2148 -0.0514 0.1492
C34 C -0.3585(12) -0.0907(5) 0.2053(8)
H18 H -0.2937 -0.1055 0.2509
C35 C -0.5166(12) -0.1046(4) 0.1973(6)
H19 H -0.5534 -0.1288 0.2331
C36 C -0.4045(11) 0.0758(4) -0.1290(7)
H20 H -0.3085 0.0829 -0.1211
Co1B Co -1.07868(7) -0.04293(3) -0.13260(4)
Co1B_2 Co -0.07868(7) -0.04293(3) -0.13260(4)
Co1_2 Co -0.92132(7) 0.04293(3) 0.13260(4)
N1B N -1.2944(4) -0.06273(17) -0.1755(3)
N2B N -1.1112(4) -0.10508(16) -0.0434(3)
N3B N -1.6770(5) -0.1559(2) -0.0797(4)
N4B N -1.4847(5) -0.2029(2) 0.0583(3)
N5B N -1.0090(4) -0.09073(17) -0.2361(3)
N6B N -1.0566(4) 0.01298(17) -0.2352(3)
N7B N -0.7598(5) -0.0722(2) -0.4827(3)
N8B N -0.7945(5) 0.0367(2) -0.4759(3)
O1B O -0.8662(3) -0.03055(14) -0.0909(2)
O2B O -0.8563(3) -0.01642(13) 0.0548(2)
O2B_2 O 0.1437(3) -0.01642(13) 0.0548(2)
O2_2 O -1.1437(3) 0.01642(13) -0.0548(2)
C1B C -1.3844(5) -0.0393(2) -0.2384(3)
H1B H -1.3494 -0.0151 -0.2750
C2B C -1.5282(6) -0.0486(3) -0.2530(4)
H2B H -1.5874 -0.0315 -0.2988
C3B C -1.5813(6) -0.0839(3) -0.1982(4)
H3B H -1.6774 -0.0908 -0.2063
C4B C -1.4906(5) -0.1089(2) -0.1313(3)
C5B C -1.5391(5) -0.1458(2) -0.0695(4)
C6B C -1.7152(7) -0.1899(3) -0.0208(5)
H4B H -1.8097 -0.1989 -0.0261
C7B C -1.6219(7) -0.2120(3) 0.0466(5)
H5B H -1.6563 -0.2345 0.0862
C8B C -1.4415(6) -0.1691(2) -0.0018(4)
C9B C -1.2927(5) -0.1570(2) 0.0079(3)
C10B C -1.1913(6) -0.1790(2) 0.0736(4)
H6B H -1.2173 -0.2036 0.1131
C11B C -1.0544(6) -0.1645(2) 0.0800(4)
H7B H -0.9858 -0.1793 0.1233
C12B C -1.0177(5) -0.1268(2) 0.0200(4)
H8B H -0.9240 -0.1167 0.0252
C13B C -1.2471(5) -0.1205(2) -0.0507(3)
C14B C -1.3463(5) -0.0969(2) -0.1222(3)
C15B C -0.9910(6) -0.1423(2) -0.2365(4)
H9B H -1.0211 -0.1622 -0.1918
C16B C -0.9295(6) -0.1680(2) -0.3003(4)
H10B H -0.9226 -0.2045 -0.2999
C17B C -0.8787(6) -0.1392(2) -0.3643(4)
H11B H -0.8355 -0.1558 -0.4072
C18B C -0.8927(5) -0.0847(2) -0.3640(3)
C19B C -0.8341(5) -0.0498(2) -0.4266(3)
C20B C -0.7037(7) -0.0393(3) -0.5338(4)
H12B H -0.6497 -0.0529 -0.5738
C21B C -0.7216(7) 0.0149(3) -0.5307(4)
H13B H -0.6800 0.0361 -0.5689
C22B C -0.8524(6) 0.0043(2) -0.4223(3)
C23B C -0.9328(5) 0.0272(2) -0.3590(3)
C24B C -0.9600(6) 0.0807(2) -0.3566(4)
H14B H -0.9267 0.1036 -0.3961
C25B C -1.0373(7) 0.0992(3) -0.2944(4)
H15B H -1.0588 0.1347 -0.2921
C26B C -1.0829(6) 0.0642(2) -0.2351(4)
H16B H -1.1345 0.0772 -0.1933
C27B C -0.9836(5) -0.0057(2) -0.2985(3)
C28B C -0.9617(5) -0.0620(2) -0.2995(3)
C29B C -0.8021(5) -0.01889(19) -0.0141(3)
C30B C -0.6458(5) -0.0089(2) -0.0076(3)
C31B C -0.5530(5) -0.0329(2) 0.0613(4)
C32B C -0.5957(5) 0.0240(2) -0.0698(4)
C33B C -0.6884(10) 0.0557(4) -0.1442(7)
H17B H -0.7852 0.0514 -0.1492
C34B C -0.6415(12) 0.0907(5) -0.2053(8)
H18B H -0.7063 0.1055 -0.2509
C35B C -0.4834(12) 0.1046(4) -0.1973(6)
H19B H -0.4466 0.1288 -0.2331
C36B C -0.5955(11) -0.0758(4) 0.1290(7)
H20B H -0.6915 -0.0829 0.1211
loop_
_geom_bond_atom_site_label_1
_geom_bond_atom_site_label_2
_geom_bond_site_symmetry_1
_geom_bond_site_symmetry_2
Co1 N1 1_555 1_555
N1 C1 1_555 1_555
N2 Co1 1_555 1_555
N3 C5 1_555 1_555
N4 C7 1_555 1_555
N5 Co1 1_555 1_555
N6 Co1 1_555 1_555
N7 C19 1_555 1_555
N8 C21 1_555 1_555
O1 Co1 1_555 1_555
O2 C29 1_555 1_555
O3 C37 1_555 1_555
O4 C37 1_555 1_555
O5 C48 1_555 1_555
O6 C48 1_555 1_555
C1 H1 1_555 1_555
C2 C1 1_555 1_555
H2 C2 1_555 1_555
C3 C2 1_555 1_555
H3 C3 1_555 1_555
C4 C3 1_555 1_555
C5 C4 1_555 1_555
C6 N3 1_555 1_555
H4 C6 1_555 1_555
C7 C6 1_555 1_555
H5 C7 1_555 1_555
C8 N4 1_555 1_555
C9 C8 1_555 1_555
C10 C9 1_555 1_555
H6 C10 1_555 1_555
C11 C10 1_555 1_555
H7 C11 1_555 1_555
C12 N2 1_555 1_555
H8 C12 1_555 1_555
C13 N2 1_555 1_555
C14 N1 1_555 1_555
C15 N5 1_555 1_555
H9 C15 1_555 1_555
C16 C15 1_555 1_555
H10 C16 1_555 1_555
C17 C16 1_555 1_555
H11 C17 1_555 1_555
C18 C17 1_555 1_555
C19 C18 1_555 1_555
C20 N7 1_555 1_555
H12 C20 1_555 1_555
C21 C20 1_555 1_555
H13 C21 1_555 1_555
C22 N8 1_555 1_555
C23 C22 1_555 1_555
C24 C23 1_555 1_555
H14 C24 1_555 1_555
C25 C24 1_555 1_555
H15 C25 1_555 1_555
C26 N6 1_555 1_555
H16 C26 1_555 1_555
C27 N6 1_555 1_555
C28 N5 1_555 1_555
C29 O1 1_555 1_555
C30 C29 1_555 1_555
C31 C30 1_555 1_555
C32 C30 1_555 1_555
C33 C32 1_555 1_555
H17 C33 1_555 1_555
C34 C33 1_555 1_555
H18 C34 1_555 1_555
C35 C34 1_555 1_555
H19 C35 1_555 1_555
C36 C31 1_555 1_555
H20 C36 1_555 1_555
C37 C38 1_555 1_555
C38 C39 1_555 1_555
C39 H21 1_555 1_555
C40 C39 1_555 1_555
H22 C40 1_555 1_555
C41 C40 1_555 1_555
C42 C41 1_555 1_555
C43 C42 1_555 1_555
H23 C43 1_555 1_555
C44 C43 1_555 1_555
H24 C44 1_555 1_555
C45 C44 1_555 1_555
H25 C45 1_555 1_555
C46 C45 1_555 1_555
H26 C46 1_555 1_555
C47 C38 1_555 1_555
C48 C41 1_555 1_555
H27 O3 1_555 1_555
Co1B N1B 1_555 1_555
Co1B_2 O2 1_555 1_555
Co1_2 O2B 1_555 1_555
N1B C1B 1_555 1_555
N2B Co1B 1_555 1_555
N3B C5B 1_555 1_555
N4B C7B 1_555 1_555
N5B Co1B 1_555 1_555
N6B Co1B 1_555 1_555
N7B C19B 1_555 1_555
N8B C21B 1_555 1_555
O1B Co1B 1_555 1_555
O2B C29B 1_555 1_555
O2B_2 Co1 1_555 1_555
O2_2 Co1B 1_555 1_555
C1B H1B 1_555 1_555
C2B C1B 1_555 1_555
H2B C2B 1_555 1_555
C3B C2B 1_555 1_555
H3B C3B 1_555 1_555
C4B C3B 1_555 1_555
C5B C4B 1_555 1_555
C6B N3B 1_555 1_555
H4B C6B 1_555 1_555
C7B C6B 1_555 1_555
H5B C7B 1_555 1_555
C8B N4B 1_555 1_555
C9B C8B 1_555 1_555
C10B C9B 1_555 1_555
H6B C10B 1_555 1_555
C11B C10B 1_555 1_555
H7B C11B 1_555 1_555
C12B N2B 1_555 1_555
H8B C12B 1_555 1_555
C13B N2B 1_555 1_555
C14B N1B 1_555 1_555
C15B N5B 1_555 1_555
H9B C15B 1_555 1_555
C16B C15B 1_555 1_555
H10B C16B 1_555 1_555
C17B C16B 1_555 1_555
H11B C17B 1_555 1_555
C18B C17B 1_555 1_555
C19B C18B 1_555 1_555
C20B N7B 1_555 1_555
H12B C20B 1_555 1_555
C21B C20B 1_555 1_555
H13B C21B 1_555 1_555
C22B N8B 1_555 1_555
C23B C22B 1_555 1_555
C24B C23B 1_555 1_555
H14B C24B 1_555 1_555
C25B C24B 1_555 1_555
H15B C25B 1_555 1_555
C26B N6B 1_555 1_555
H16B C26B 1_555 1_555
C27B N6B 1_555 1_555
C28B N5B 1_555 1_555
C29B O1B 1_555 1_555
C30B C29B 1_555 1_555
C31B C32 1_555 1_555
C32B C31 1_555 1_555
C33B C32B 1_555 1_555
H17B C33B 1_555 1_555
C34B C33B 1_555 1_555
H18B C34B 1_555 1_555
C35B C36 1_555 1_555
H19B C35B 1_555 1_555
C36B C35 1_555 1_555
H20B C36B 1_555 1_555
C4 C14 1_555 1_555
C5 C8 1_555 1_555
C9 C13 1_555 1_555
C11 C12 1_555 1_555
C13 C14 1_555 1_555
C18 C28 1_555 1_555
C19 C22 1_555 1_555
C23 C27 1_555 1_555
C25 C26 1_555 1_555
C27 C28 1_555 1_555
C42 C47 1_555 1_555
C46 C47 1_555 1_555
C4B C14B 1_555 1_555
C5B C8B 1_555 1_555
C9B C13B 1_555 1_555
C11B C12B 1_555 1_555
C13B C14B 1_555 1_555
C18B C28B 1_555 1_555
C19B C22B 1_555 1_555
C23B C27B 1_555 1_555
C25B C26B 1_555 1_555
C27B C28B 1_555 1_555
C30B C31B 1_555 1_555
C30B C32B 1_555 1_555
C31B C36B 1_555 1_555
C34B C35B 1_555 1_555

#END
