
#######################################################################
#
#                 Cambridge Crystallographic Data Centre
#                                CCDC 
#
#######################################################################
#
# If this CIF has been generated from an entry in the Cambridge 
# Structural Database, then it will include bibliographic, chemical, 
# crystal, experimental, refinement or atomic coordinate data resulting 
# from the CCDC's data processing and validation procedures.
#
#######################################################################

data_IGESOE
_symmetry_cell_setting           monoclinic
_symmetry_space_group_name_H-M   'P 21/n'
_symmetry_Int_Tables_number      14
_space_group_name_Hall           '-P 2yn'
loop_
_symmetry_equiv_pos_site_id
_symmetry_equiv_pos_as_xyz
1 x,y,z
2 1/2-x,1/2+y,1/2-z
3 -x,-y,-z
4 1/2+x,1/2-y,1/2+z
_cell_length_a                   12.2234(4)
_cell_length_b                   10.2921(4)
_cell_length_c                   28.1648(10)
_cell_angle_alpha                90
_cell_angle_beta                 98.6459(11)
_cell_angle_gamma                90
_cell_volume                     3502.99
loop_
_atom_site_label
_atom_site_type_symbol
_atom_site_fract_x
_atom_site_fract_y
_atom_site_fract_z
C1 C 1.06416(15) 0.52071(19) 0.39682(7)
N1 N 0.83965(13) 0.47103(16) 0.46955(6)
Ni1 Ni 1.0000 0.5000 0.5000
O1 O 1.12573(12) 0.42155(15) 0.39368(5)
H1 H 1.1467 0.3924 0.4206
C2 C 1.01969(15) 0.58441(18) 0.35020(6)
N2 N 0.68541(13) 0.47270(16) 0.41787(6)
Ni2 Ni 1.123633(19) 0.51342(2) 0.145856(8)
O2 O 1.03573(12) 0.56410(14) 0.43404(5)
C3 C 0.93854(16) 0.67805(19) 0.34924(6)
H2 H 0.9245 0.7153 0.3778
N3 N 0.41260(13) 0.58046(16) 0.24362(6)
O3 O 1.07546(11) 0.44180(12) 0.21205(4)
C4 C 0.87801(17) 0.71677(19) 0.30617(7)
H3 H 0.8202 0.7754 0.3064
N4 N 0.28041(13) 0.55430(17) 0.18182(6)
O4 O 1.06007(11) 0.64676(12) 0.19127(4)
C5 C 0.90175(15) 0.66981(18) 0.26236(6)
N5 N 1.10773(13) 0.16272(16) 0.07278(6)
O5 O 0.95826(11) 0.48840(15) 0.11754(5)
C6 C 0.99469(15) 0.58799(18) 0.26333(6)
N6 N 1.15563(14) 0.33949(17) 0.11496(6)
O6 O 0.94108(12) 0.59218(17) 0.04760(6)
C7 C 1.04921(15) 0.54157(18) 0.30692(7)
H4 H 1.1060 0.4813 0.3072
O7 O 0.68007(11) 0.24181(14) -0.04377(5)
C8 C 1.04481(14) 0.55585(18) 0.21930(6)
O8 O 0.52591(11) 0.19786(14) -0.01378(5)
C9 C 0.82432(15) 0.70000(18) 0.21763(6)
O9 O 1.14227(12) 0.63562(19) 0.08928(5)
H5 H 1.1960(11) 0.648(3) 0.0756(7)
H6 H 1.0839(10) 0.624(3) 0.0712(6)
C10 C 0.76595(16) 0.81714(19) 0.21308(7)
H7 H 0.7788 0.8790 0.2374
C11 C 0.68980(16) 0.8418(2) 0.17304(7)
H8 H 0.6512 0.9199 0.1706
C12 C 0.66976(16) 0.7520(2) 0.13625(7)
H9 H 0.6174 0.7696 0.1095
C13 C 0.72796(15) 0.63528(19) 0.13919(6)
C14 C 0.80370(15) 0.60984(18) 0.18028(6)
H10 H 0.8414 0.5310 0.1829
C15 C 0.70305(15) 0.53928(19) 0.09912(6)
C16 C 0.59408(17) 0.4958(2) 0.08721(8)
H11 H 0.5403 0.5275 0.1043
C17 C 0.56404(16) 0.4071(2) 0.05072(7)
H12 H 0.4917 0.3765 0.0446
C18 C 0.64184(15) 0.36381(18) 0.02315(6)
C19 C 0.74890(15) 0.41180(19) 0.03299(7)
H13 H 0.8002 0.3873 0.0134
C20 C 0.78189(16) 0.49520(17) 0.07111(7)
C21 C 0.90353(16) 0.53119(19) 0.07984(7)
C22 C 0.61211(15) 0.26122(18) -0.01395(7)
C23 C 1.20226(18) 0.2333(2) 0.13954(8)
H14 H 1.2472 0.2363 0.1693
C24 C 1.17362(18) 0.1242(2) 0.11445(8)
H15 H 1.1942 0.0397 0.1234
C25 C 1.10048(17) 0.2937(2) 0.07497(7)
H16 H 1.0612 0.3450 0.0510
C26 C 1.05251(16) 0.07979(19) 0.03599(7)
C27 C 1.09423(17) -0.0426(2) 0.02915(7)
H17 H 1.1575 -0.0715 0.0488
C28 C 0.95788(17) 0.12185(19) 0.00677(7)
H18 H 0.9293 0.2039 0.0114
C29 C 0.78202(16) 0.5334(2) 0.43374(7)
H19 H 0.8048 0.6102 0.4208
C30 C 0.77737(16) 0.3638(2) 0.47732(7)
H20 H 0.7975 0.3013 0.5008
C31 C 0.68290(16) 0.36293(19) 0.44581(7)
H21 H 0.6271 0.3008 0.4434
C32 C 0.60955(15) 0.50514(18) 0.37567(7)
C33 C 0.54557(16) 0.40801(19) 0.35187(7)
H22 H 0.5465 0.3250 0.3649
C34 C 0.48019(17) 0.4345(2) 0.30857(7)
H23 H 0.4374 0.3690 0.2923
C35 C 0.47822(16) 0.5572(2) 0.28941(7)
C36 C 0.53824(17) 0.6575(2) 0.31418(7)
H24 H 0.5341 0.7415 0.3018
C37 C 0.60438(16) 0.63036(19) 0.35759(7)
H25 H 0.6452 0.6963 0.3745
C38 C 0.4358(2) 0.6618(3) 0.20818(9)
H26 H 0.4958 0.7180 0.2096
C39 C 0.3547(2) 0.6448(3) 0.17088(9)
H27 H 0.3497 0.6883 0.1417
C40 C 0.31837(16) 0.5180(2) 0.22566(7)
H28 H 0.2843 0.4561 0.2426
N5B N 0.89227(13) -0.16272(16) -0.07278(6)
N6B N 0.84437(14) -0.33949(17) -0.11496(6)
C23B C 0.79774(18) -0.2333(2) -0.13954(8)
H14B H 0.7528 -0.2363 -0.1693
C24B C 0.82638(18) -0.1242(2) -0.11445(8)
H15B H 0.8058 -0.0397 -0.1234
C25B C 0.89952(17) -0.2937(2) -0.07497(7)
H16B H 0.9388 -0.3450 -0.0510
C26B C 0.94749(16) -0.07979(19) -0.03599(7)
C27B C 0.90577(17) 0.0426(2) -0.02915(7)
H17B H 0.8425 0.0715 -0.0488
C28B C 1.04212(17) -0.12185(19) -0.00677(7)
H18B H 1.0707 -0.2039 -0.0114
C1B C 0.93584(15) -0.52071(19) -0.39682(7)
O1B O 0.87427(12) -0.42155(15) -0.39368(5)
H1B H 0.8533 -0.3924 -0.4206
C2B C 0.98031(15) -0.58441(18) -0.35020(6)
Ni2B Ni 0.876367(19) -0.51342(2) -0.145856(8)
O2B O 0.96427(12) -0.56410(14) -0.43404(5)
C3B C 1.06146(16) -0.67805(19) -0.34924(6)
H2B H 1.0755 -0.7153 -0.3778
O3B O 0.92454(11) -0.44180(12) -0.21205(4)
C4B C 1.12199(17) -0.71677(19) -0.30617(7)
H3B H 1.1798 -0.7754 -0.3064
O4B O 0.93993(11) -0.64676(12) -0.19127(4)
C5B C 1.09825(15) -0.66981(18) -0.26236(6)
O5B O 1.04174(11) -0.48840(15) -0.11754(5)
C6B C 1.00531(15) -0.58799(18) -0.26333(6)
O6B O 1.05892(12) -0.59218(17) -0.04760(6)
C7B C 0.95079(15) -0.54157(18) -0.30692(7)
H4B H 0.8940 -0.4813 -0.3072
O7B O 1.31993(11) -0.24181(14) 0.04377(5)
C8B C 0.95519(14) -0.55585(18) -0.21930(6)
O8B O 1.47409(11) -0.19786(14) 0.01378(5)
C9B C 1.17568(15) -0.70000(18) -0.21763(6)
O9B O 0.85773(12) -0.63562(19) -0.08928(5)
H5B H 0.8040(11) -0.648(3) -0.0756(7)
H6B H 0.9161(10) -0.624(3) -0.0712(6)
C10B C 1.23405(16) -0.81714(19) -0.21308(7)
H7B H 1.2212 -0.8790 -0.2374
C11B C 1.31020(16) -0.8418(2) -0.17304(7)
H8B H 1.3488 -0.9199 -0.1706
C12B C 1.33024(16) -0.7520(2) -0.13625(7)
H9B H 1.3826 -0.7696 -0.1095
C13B C 1.27204(15) -0.63528(19) -0.13919(6)
C14B C 1.19630(15) -0.60984(18) -0.18028(6)
H10B H 1.1586 -0.5310 -0.1829
C15B C 1.29695(15) -0.53928(19) -0.09912(6)
C16B C 1.40592(17) -0.4958(2) -0.08721(8)
H11B H 1.4597 -0.5275 -0.1043
C17B C 1.43596(16) -0.4071(2) -0.05072(7)
H12B H 1.5083 -0.3765 -0.0446
C18B C 1.35816(15) -0.36381(18) -0.02315(6)
C19B C 1.25110(15) -0.41180(19) -0.03299(7)
H13B H 1.1998 -0.3873 -0.0134
C20B C 1.21811(16) -0.49520(17) -0.07111(7)
C21B C 1.09647(16) -0.53119(19) -0.07984(7)
C22B C 1.38789(15) -0.26122(18) 0.01395(7)
N1B N 1.16035(13) 0.52897(16) 0.53045(6)
N2B N 1.31459(13) 0.52730(16) 0.58213(6)
N3B N 1.58740(13) 0.41954(16) 0.75638(6)
N4B N 1.71959(13) 0.44570(17) 0.81818(6)
C29B C 1.21798(16) 0.4666(2) 0.56626(7)
H19B H 1.1952 0.3898 0.5792
C30B C 1.22263(16) 0.6362(2) 0.52268(7)
H20B H 1.2025 0.6987 0.4992
C31B C 1.31710(16) 0.63707(19) 0.55419(7)
H21B H 1.3729 0.6992 0.5566
C32B C 1.39045(15) 0.49486(18) 0.62433(7)
C33B C 1.45443(16) 0.59199(19) 0.64813(7)
H22B H 1.4535 0.6750 0.6351
C34B C 1.51981(17) 0.5655(2) 0.69143(7)
H23B H 1.5626 0.6310 0.7077
C35B C 1.52178(16) 0.4428(2) 0.71059(7)
C36B C 1.46176(17) 0.3425(2) 0.68582(7)
H24B H 1.4659 0.2585 0.6982
C37B C 1.39562(16) 0.36964(19) 0.64241(7)
H25B H 1.3548 0.3037 0.6255
C38B C 1.5642(2) 0.3382(3) 0.79182(9)
H26B H 1.5042 0.2820 0.7904
C39B C 1.6453(2) 0.3552(3) 0.82912(9)
H27B H 1.6503 0.3117 0.8583
C40B C 1.68163(16) 0.4820(2) 0.77434(7)
H28B H 1.7157 0.5439 0.7574
Ni1_2 Ni 1.0000 -0.5000 -0.5000
Ni1A Ni 0.5000 0.0000 0.0000
Ni1A_2 Ni 1.5000 0.0000 0.0000
Ni2_2 Ni 0.123633(19) 0.51342(2) 0.145856(8)
Ni2B_2 Ni 1.876367(19) 0.48658(2) 0.854144(8)
O2B_2 O 0.96427(12) 0.43590(14) 0.56596(5)
N4_2 N 1.28041(13) 0.55430(17) 0.18182(6)
N4B_2 N 0.71959(13) -0.55430(17) -0.18182(6)
O8A O 0.97409(11) 0.69786(14) 0.51378(5)
O8C O 1.02591(11) 0.30214(14) 0.48622(5)
loop_
_geom_bond_atom_site_label_1
_geom_bond_atom_site_label_2
_geom_bond_site_symmetry_1
_geom_bond_site_symmetry_2
C1 O1 1_555 1_555
N1 Ni1 1_555 1_555
Ni1 O2 1_555 1_555
O1 H1 1_555 1_555
C2 C1 1_555 1_555
N2 C29 1_555 1_555
Ni2 O3 1_555 1_555
O2 C1 1_555 1_555
C3 C2 1_555 1_555
H2 C3 1_555 1_555
N3 C35 1_555 1_555
O3 C8 1_555 1_555
C4 C3 1_555 1_555
H3 C4 1_555 1_555
N4 C39 1_555 1_555
O4 Ni2 1_555 1_555
C5 C4 1_555 1_555
N5 C24 1_555 1_555
O5 Ni2 1_555 1_555
C6 C5 1_555 1_555
N6 Ni2 1_555 1_555
O6 C21 1_555 1_555
C7 C2 1_555 1_555
H4 C7 1_555 1_555
O7 C22 1_555 1_555
C8 O4 1_555 1_555
O8 C22 1_555 1_555
C9 C5 1_555 1_555
O9 Ni2 1_555 1_555
H5 O9 1_555 1_555
H6 O9 1_555 1_555
C10 C9 1_555 1_555
H7 C10 1_555 1_555
C11 C10 1_555 1_555
H8 C11 1_555 1_555
C12 C11 1_555 1_555
H9 C12 1_555 1_555
C13 C12 1_555 1_555
C14 C9 1_555 1_555
H10 C14 1_555 1_555
C15 C13 1_555 1_555
C16 C15 1_555 1_555
H11 C16 1_555 1_555
C17 C16 1_555 1_555
H12 C17 1_555 1_555
C18 C17 1_555 1_555
C19 C18 1_555 1_555
H13 C19 1_555 1_555
C20 C15 1_555 1_555
C21 O5 1_555 1_555
C22 C18 1_555 1_555
C23 N6 1_555 1_555
H14 C23 1_555 1_555
C24 C23 1_555 1_555
H15 C24 1_555 1_555
C25 N5 1_555 1_555
H16 C25 1_555 1_555
C26 N5 1_555 1_555
C27 C26 1_555 1_555
H17 C27 1_555 1_555
C28 C26 1_555 1_555
H18 C28 1_555 1_555
C29 N1 1_555 1_555
H19 C29 1_555 1_555
C30 N1 1_555 1_555
H20 C30 1_555 1_555
C31 N2 1_555 1_555
H21 C31 1_555 1_555
C32 N2 1_555 1_555
C33 C32 1_555 1_555
H22 C33 1_555 1_555
C34 C33 1_555 1_555
H23 C34 1_555 1_555
C35 C34 1_555 1_555
C36 C35 1_555 1_555
H24 C36 1_555 1_555
C37 C32 1_555 1_555
H25 C37 1_555 1_555
C38 N3 1_555 1_555
H26 C38 1_555 1_555
C39 C38 1_555 1_555
H27 C39 1_555 1_555
C40 N3 1_555 1_555
H28 C40 1_555 1_555
N5B C24B 1_555 1_555
N6B C23B 1_555 1_555
C23B H14B 1_555 1_555
C24B C23B 1_555 1_555
H15B C24B 1_555 1_555
C25B N5B 1_555 1_555
H16B C25B 1_555 1_555
C26B N5B 1_555 1_555
C27B C28 1_555 1_555
H17B C27B 1_555 1_555
C28B C27 1_555 1_555
H18B C28B 1_555 1_555
C1B O1B 1_555 1_555
O1B H1B 1_555 1_555
C2B C1B 1_555 1_555
Ni2B N6B 1_555 1_555
O2B C1B 1_555 1_555
C3B C2B 1_555 1_555
H2B C3B 1_555 1_555
O3B Ni2B 1_555 1_555
C4B C3B 1_555 1_555
H3B C4B 1_555 1_555
O4B Ni2B 1_555 1_555
C5B C4B 1_555 1_555
O5B Ni2B 1_555 1_555
C6B C5B 1_555 1_555
O6B C21B 1_555 1_555
C7B C2B 1_555 1_555
H4B C7B 1_555 1_555
O7B C22B 1_555 1_555
C8B O3B 1_555 1_555
O8B C22B 1_555 1_555
C9B C5B 1_555 1_555
O9B Ni2B 1_555 1_555
H5B O9B 1_555 1_555
H6B O9B 1_555 1_555
C10B C9B 1_555 1_555
H7B C10B 1_555 1_555
C11B C10B 1_555 1_555
H8B C11B 1_555 1_555
C12B C11B 1_555 1_555
H9B C12B 1_555 1_555
C13B C12B 1_555 1_555
C14B C9B 1_555 1_555
H10B C14B 1_555 1_555
C15B C13B 1_555 1_555
C16B C15B 1_555 1_555
H11B C16B 1_555 1_555
C17B C16B 1_555 1_555
H12B C17B 1_555 1_555
C18B C17B 1_555 1_555
C19B C18B 1_555 1_555
H13B C19B 1_555 1_555
C20B C15B 1_555 1_555
C21B O5B 1_555 1_555
C22B C18B 1_555 1_555
N1B Ni1 1_555 1_555
N2B C29B 1_555 1_555
N3B C35B 1_555 1_555
N4B C39B 1_555 1_555
C29B N1B 1_555 1_555
H19B C29B 1_555 1_555
C30B N1B 1_555 1_555
H20B C30B 1_555 1_555
C31B N2B 1_555 1_555
H21B C31B 1_555 1_555
C32B N2B 1_555 1_555
C33B C32B 1_555 1_555
H22B C33B 1_555 1_555
C34B C33B 1_555 1_555
H23B C34B 1_555 1_555
C35B C34B 1_555 1_555
C36B C35B 1_555 1_555
H24B C36B 1_555 1_555
C37B C32B 1_555 1_555
H25B C37B 1_555 1_555
C38B N3B 1_555 1_555
H26B C38B 1_555 1_555
C39B C38B 1_555 1_555
H27B C39B 1_555 1_555
C40B N3B 1_555 1_555
H28B C40B 1_555 1_555
Ni1_2 O2B 1_555 1_555
Ni1A O8 1_555 1_555
Ni1A_2 O8B 1_555 1_555
Ni2_2 N4 1_555 1_555
Ni2B_2 N4B 1_555 1_555
O2B_2 Ni1 1_555 1_555
N4_2 Ni2 1_555 1_555
N4B_2 Ni2B 1_555 1_555
O8A Ni1 1_555 1_555
O8C Ni1 1_555 1_555
N4 C40 1_555 1_555
C6 C7 1_555 1_555
C6 C8 1_555 1_555
N6 C25 1_555 1_555
C13 C14 1_555 1_555
C19 C20 1_555 1_555
C20 C21 1_555 1_555
C30 C31 1_555 1_555
C36 C37 1_555 1_555
N6B C25B 1_555 1_555
C26B C27B 1_555 1_555
C26B C28B 1_555 1_555
O4B C8B 1_555 1_555
C6B C7B 1_555 1_555
C6B C8B 1_555 1_555
C13B C14B 1_555 1_555
C19B C20B 1_555 1_555
C20B C21B 1_555 1_555
N4B C40B 1_555 1_555
C30B C31B 1_555 1_555
C36B C37B 1_555 1_555

#END
