
#######################################################################
#
#                 Cambridge Crystallographic Data Centre
#                                CCDC 
#
#######################################################################
#
# If this CIF has been generated from an entry in the Cambridge 
# Structural Database, then it will include bibliographic, chemical, 
# crystal, experimental, refinement or atomic coordinate data resulting 
# from the CCDC's data processing and validation procedures.
#
#######################################################################

data_IGETEU01
_symmetry_cell_setting           triclinic
_symmetry_space_group_name_H-M   'P -1'
_symmetry_Int_Tables_number      2
_space_group_name_Hall           '-P 1'
loop_
_symmetry_equiv_pos_site_id
_symmetry_equiv_pos_as_xyz
1 x,y,z
2 -x,-y,-z
_cell_length_a                   7.7232(2)
_cell_length_b                   10.1673(3)
_cell_length_c                   11.1947(3)
_cell_angle_alpha                81.353(1)
_cell_angle_beta                 82.231(2)
_cell_angle_gamma                89.441(2)
_cell_volume                     861.035
loop_
_atom_site_label
_atom_site_type_symbol
_atom_site_fract_x
_atom_site_fract_y
_atom_site_fract_z
Ca1 Ca 0.24186(3) 0.97703(2) 0.04035(2)
O1 O 0.36935(17) 1.10110(11) -0.53096(10)
O2 O 0.27451(14) 1.11568(10) -0.34332(9)
O3 O 0.03455(10) 0.95060(9) -0.11979(8)
O4 O 0.30998(11) 0.89052(9) -0.15416(8)
O5 O 0.17994(14) 1.57839(11) -0.03460(11)
O6 O 0.31227(13) 1.40811(10) 0.05114(9)
O7 O 0.22443(10) 1.19904(9) -0.07254(8)
O8 O 0.49862(11) 1.13461(8) -0.07584(8)
O9 O 0.10229(13) 0.77067(10) 0.14073(9)
O10 O 0.33309(13) 1.07793(11) 0.20118(9)
N1 N 0.28642(15) 1.05724(11) -0.43142(10)
N2 N 0.28419(14) 1.48627(11) -0.03845(11)
C1 C 0.12728(15) 0.86453(12) -0.30379(11)
C2 C 0.03093(17) 0.74782(14) -0.29781(13)
C3 C 0.00349(18) 0.69957(16) -0.40367(15)
C4 C 0.07148(19) 0.76640(17) -0.51701(14)
C5 C 0.16734(19) 0.88259(15) -0.52595(13)
C6 C 0.19302(16) 0.92973(13) -0.41935(11)
C7 C 0.16061(15) 0.90771(11) -0.18562(11)
C8 C 0.38584(15) 1.47321(12) -0.15700(12)
C9 C 0.42893(17) 1.58993(13) -0.23669(13)
C10 C 0.53535(18) 1.58255(14) -0.34538(14)
C11 C 0.59841(18) 1.46057(14) -0.37158(13)
C12 C 0.55374(16) 1.34489(13) -0.29049(12)
C13 C 0.44439(15) 1.34882(12) -0.18140(11)
C14 C 0.38509(15) 1.21935(12) -0.10308(11)
H1 H -0.012(2) 0.7003(16) -0.2213(15)
H2 H -0.063(2) 0.6195(18) -0.3968(15)
H3 H 0.049(2) 0.7351(17) -0.5905(16)
H4 H 0.215(2) 0.9340(17) -0.6020(16)
H5 H 0.389(2) 1.6725(17) -0.2110(15)
H6 H 0.569(2) 1.6639(16) -0.4019(14)
H7 H 0.675(2) 1.4549(17) -0.4473(16)
H8 H 0.5928(19) 1.2604(15) -0.3082(13)
H9 H 0.140(2) 0.705(2) 0.1162(17)
H10 H -0.005(3) 0.7761(18) 0.1318(16)
H11 H 0.440(3) 1.085(2) 0.1981(18)
H12 H 0.287(3) 1.137(2) 0.225(2)
Ca1A Ca -0.24186(3) 1.02297(2) -0.04035(2)
Ca1A_2 Ca 0.75814(3) 1.02297(2) -0.04035(2)
O3A O -0.03455(10) 1.04940(9) 0.11979(8)
O8A O 0.50138(11) 0.86539(8) 0.07584(8)
loop_
_geom_bond_atom_site_label_1
_geom_bond_atom_site_label_2
_geom_bond_site_symmetry_1
_geom_bond_site_symmetry_2
Ca1 O3 1_555 1_555
O1 N1 1_555 1_555
O2 N1 1_555 1_555
O3 C7 1_555 1_555
O4 Ca1 1_555 1_555
O5 N2 1_555 1_555
O6 N2 1_555 1_555
O7 Ca1 1_555 1_555
O8 Ca1 1_555 1_555
O9 Ca1 1_555 1_555
O10 Ca1 1_555 1_555
N1 C6 1_555 1_555
N2 C8 1_555 1_555
C1 C2 1_555 1_555
C2 C3 1_555 1_555
C3 C4 1_555 1_555
C4 C5 1_555 1_555
C5 C6 1_555 1_555
C6 C1 1_555 1_555
C7 O4 1_555 1_555
C8 C9 1_555 1_555
C9 C10 1_555 1_555
C10 C11 1_555 1_555
C11 C12 1_555 1_555
C12 C13 1_555 1_555
C13 C8 1_555 1_555
C14 O7 1_555 1_555
H1 C2 1_555 1_555
H2 C3 1_555 1_555
H3 C4 1_555 1_555
H4 C5 1_555 1_555
H5 C9 1_555 1_555
H6 C10 1_555 1_555
H7 C11 1_555 1_555
H8 C12 1_555 1_555
H9 O9 1_555 1_555
H10 O9 1_555 1_555
H11 O10 1_555 1_555
H12 O10 1_555 1_555
Ca1A O3 1_555 1_555
Ca1A_2 O8 1_555 1_555
O3A Ca1 1_555 1_555
O8A Ca1 1_555 1_555
O8 C14 1_555 1_555
C1 C7 1_555 1_555
C13 C14 1_555 1_555
Ca1A O3A 1_555 1_555
Ca1A_2 O8A 1_555 1_555

#END
