
#######################################################################
#
#                 Cambridge Crystallographic Data Centre
#                                CCDC 
#
#######################################################################
#
# If this CIF has been generated from an entry in the Cambridge 
# Structural Database, then it will include bibliographic, chemical, 
# crystal, experimental, refinement or atomic coordinate data resulting 
# from the CCDC's data processing and validation procedures.
#
#######################################################################

data_IGEWUM04
_symmetry_cell_setting           monoclinic
_symmetry_space_group_name_H-M   'P 21/c'
_symmetry_Int_Tables_number      14
_space_group_name_Hall           '-P 2ybc'
loop_
_symmetry_equiv_pos_site_id
_symmetry_equiv_pos_as_xyz
1 x,y,z
2 -x,1/2+y,1/2-z
3 -x,-y,-z
4 x,1/2-y,1/2+z
_cell_length_a                   10.1039(7)
_cell_length_b                   19.9558(14)
_cell_length_c                   7.3602(5)
_cell_angle_alpha                90
_cell_angle_beta                 98.3600(10)
_cell_angle_gamma                90
_cell_volume                     1468.28
loop_
_atom_site_label
_atom_site_type_symbol
_atom_site_fract_x
_atom_site_fract_y
_atom_site_fract_z
Cu1 Cu 0.86074(2) 0.149000(11) 0.63881(3)
N1 N 0.89571(16) 0.04995(8) 0.6749(2)
N2 N 1.05432(17) 0.15228(7) 0.7378(2)
O1 O 0.68127(15) 0.13243(7) 0.5257(2)
O2 O 0.46666(16) 0.15190(7) 0.4430(3)
O3 O 0.80401(15) 0.33621(6) 0.42247(19)
O4 O 0.86977(14) 0.23481(7) 0.5157(2)
C1 C 0.8062(2) 0.00034(10) 0.6324(3)
H5 H 0.7198 0.0110 0.5784
C2 C 0.8394(2) -0.06566(11) 0.6670(3)
H6 H 0.7761 -0.0992 0.6367
C3 C 0.9664(3) -0.08154(12) 0.7467(4)
H7 H 0.9900 -0.1260 0.7720
C4 C 1.0594(2) -0.03098(10) 0.7892(3)
H8 H 1.1463 -0.0410 0.8425
C5 C 1.0211(2) 0.03444(9) 0.7512(3)
C6 C 1.11134(19) 0.09304(10) 0.7906(3)
C7 C 1.2421(2) 0.08942(12) 0.8736(4)
H9 H 1.2806 0.0482 0.9083
C8 C 1.3158(3) 0.14768(11) 0.9051(4)
H10 H 1.4045 0.1459 0.9606
C9 C 1.2572(2) 0.20823(12) 0.8538(4)
H11 H 1.3047 0.2481 0.8752
C10 C 1.1264(2) 0.20834(11) 0.7700(3)
H12 H 1.0864 0.2491 0.7340
C11 C 0.5769(2) 0.16844(10) 0.5238(3)
C12 C 0.5847(2) 0.23444(10) 0.6214(3)
H13 H 0.5190 0.2425 0.6950
C13 C 0.79004(19) 0.28390(9) 0.5109(2)
C14 C 0.6742(2) 0.28304(9) 0.6158(3)
H14 H 0.6633 0.3210 0.6855
Cu1C Cu 0.86074(2) 0.351000(11) 0.13881(3)
O3C O 0.80401(15) 0.16379(6) 0.92247(19)
O5 O 0.6242(2) 0.06085(9) 0.9583(3)
H1 H 0.583(3) 0.0413(14) 0.870(3)
H2 H 0.676(3) 0.0897(12) 0.932(4)
O6 O 0.5190(3) 0.02632(11) 0.2727(3)
H3 H 0.557(4) 0.0375(17) 0.186(4)
H4 H 0.503(4) 0.0574(13) 0.340(4)
loop_
_geom_bond_atom_site_label_1
_geom_bond_atom_site_label_2
_geom_bond_site_symmetry_1
_geom_bond_site_symmetry_2
Cu1 N1 1_555 1_555
N1 C1 1_555 1_555
N2 Cu1 1_555 1_555
O1 Cu1 1_555 1_555
O2 C11 1_555 1_555
O3 C13 1_555 1_555
O4 Cu1 1_555 1_555
O5 H1 1_555 1_555
H2 O5 1_555 1_555
O6 H3 1_555 1_555
H4 O6 1_555 1_555
C1 H5 1_555 1_555
C2 C1 1_555 1_555
H6 C2 1_555 1_555
C3 C2 1_555 1_555
H7 C3 1_555 1_555
C4 C3 1_555 1_555
H8 C4 1_555 1_555
C5 N1 1_555 1_555
C6 N2 1_555 1_555
C7 C6 1_555 1_555
H9 C7 1_555 1_555
C8 C7 1_555 1_555
H10 C8 1_555 1_555
C9 C8 1_555 1_555
H11 C9 1_555 1_555
C10 N2 1_555 1_555
H12 C10 1_555 1_555
C11 O1 1_555 1_555
C12 C11 1_555 1_555
H13 C12 1_555 1_555
C13 O4 1_555 1_555
C14 C12 1_555 1_555
H14 C14 1_555 1_555
Cu1C O3 1_555 1_555
O3C Cu1 1_555 1_555
C4 C5 1_555 1_555
C5 C6 1_555 1_555
C9 C10 1_555 1_555
C13 C14 1_555 1_555

#END
