
#######################################################################
#
#                 Cambridge Crystallographic Data Centre
#                                CCDC 
#
#######################################################################
#
# If this CIF has been generated from an entry in the Cambridge 
# Structural Database, then it will include bibliographic, chemical, 
# crystal, experimental, refinement or atomic coordinate data resulting 
# from the CCDC's data processing and validation procedures.
#
#######################################################################

data_IGEWEX
_symmetry_cell_setting           triclinic
_symmetry_space_group_name_H-M   'P -1'
_symmetry_Int_Tables_number      2
_space_group_name_Hall           '-P 1'
loop_
_symmetry_equiv_pos_site_id
_symmetry_equiv_pos_as_xyz
1 x,y,z
2 -x,-y,-z
_cell_length_a                   9.861(2)
_cell_length_b                   15.816(3)
_cell_length_c                   18.870(4)
_cell_angle_alpha                79.96(3)
_cell_angle_beta                 82.73(3)
_cell_angle_gamma                81.31(3)
_cell_volume                     2849.44
loop_
_atom_site_label
_atom_site_type_symbol
_atom_site_fract_x
_atom_site_fract_y
_atom_site_fract_z
Ni1 Ni 0.25037(4) 0.98853(3) 0.01136(2)
Ni2 Ni 0.25011(4) 1.48819(3) -0.48893(3)
O1 O 0.0957(2) 1.55830(17) -0.42872(14)
O2 O 0.4437(2) 0.92638(16) -0.01907(14)
O3 O 0.6575(2) 0.94005(16) -0.07051(14)
O4 O -0.1001(2) 1.57280(16) -0.47998(14)
O5 O 0.0569(2) 1.03814(17) 0.05305(14)
O6 O 0.3999(2) 1.53786(15) -0.44634(14)
O7 O -0.1577(2) 1.09793(16) 0.03170(15)
N1 N 0.2506(3) 0.89583(19) 0.10439(17)
N2 N 0.2511(3) 1.39436(19) -0.39666(17)
C1 C -0.0353(4) 1.1012(2) 0.0423(2)
N3 N 0.2497(3) 0.58170(19) 0.41933(18)
C2 C -0.1956(4) 1.6656(3) -0.3474(3)
C3 C -0.0342(4) 1.5713(2) -0.4279(2)
C4 C 0.5343(4) 0.9264(2) -0.0705(2)
C5 C 0.4599(4) 0.8295(3) -0.1496(3)
C6 C 0.4654(4) 1.6010(2) -0.4569(2)
C7 C 0.3055(4) 1.7127(3) -0.3926(3)
C8 C 0.0394(4) 1.2146(3) 0.1044(3)
C9 C 0.2493(4) 0.7718(2) 0.2293(2)
C10 C 0.2518(4) 1.2694(2) -0.2728(2)
C11 C 0.4989(4) 0.9090(3) -0.1422(2)
C12 C 0.1417(4) 0.6416(3) 0.4080(2)
H1 H 0.0651 0.6412 0.4423
C13 C 0.2493(4) 1.2473(3) -0.3401(2)
H2 H 0.2476 1.1900 -0.3449
C14 C 0.2049(4) 0.8584(3) 0.2322(2)
H3 H 0.1738 0.8765 0.2764
C15 C 0.2529(4) 1.4151(2) -0.3312(2)
H4 H 0.2539 1.4729 -0.3276
C16 C 0.0396(4) 1.1570(3) 0.1739(3)
C17 C 0.2500(4) 0.7064(2) 0.2949(2)
C18 C 0.2069(4) 0.9178(2) 0.1696(2)
H5 H 0.1766 0.9758 0.1727
C19 C 0.2493(4) 1.3110(2) -0.4002(2)
H6 H 0.2479 1.2951 -0.4453
C20 C -0.1130(4) 1.5866(3) -0.3562(2)
C21 C 0.4592(4) 0.7555(3) -0.0900(3)
C22 C 0.2929(4) 0.8122(2) 0.1012(2)
H7 H 0.3229 0.7958 0.0563
C23 C 0.3003(5) 1.6530(3) -0.3227(3)
C24 C 0.0017(4) 1.1918(3) 0.0417(3)
C25 C 0.2534(4) 1.3560(3) -0.2695(2)
H8 H 0.2549 1.3738 -0.2251
C26 C -0.2044(4) 1.7406(3) -0.4072(3)
C27 C 0.1388(4) 0.7046(3) 0.3473(2)
H9 H 0.0616 0.7460 0.3417
C28 C 0.2941(4) 0.7494(3) 0.1615(2)
H10 H 0.3250 0.6919 0.1568
C29 C 0.2514(4) 1.2039(3) -0.2064(2)
C30 C 0.3575(4) 0.5836(3) 0.3700(2)
H11 H 0.4346 0.5426 0.3777
C31 C -0.2598(6) 1.6066(5) -0.2228(3)
H12 H -0.3102 1.6133 -0.1786
C32 C 0.3609(4) 0.6437(3) 0.3076(2)
H13 H 0.4384 0.6419 0.2739
C33 C -0.1047(5) 1.5201(3) -0.2980(2)
H14 H -0.0490 1.4683 -0.3035
C34 C 0.3844(4) 1.6904(3) -0.4558(3)
C35 C -0.0670(5) 1.1080(3) 0.2019(3)
H15 H -0.1407 1.1105 0.1750
C36 C 0.5032(4) 0.9743(3) -0.2008(3)
H16 H 0.5307 1.0265 -0.1959
C37 C -0.0879(5) 1.7673(3) -0.4505(3)
H17 H -0.0019 1.7357 -0.4432
C38 C 0.4197(5) 1.6063(4) -0.2976(3)
H18 H 0.5041 1.6112 -0.3250
C39 C 0.4247(5) 0.8208(4) -0.2173(3)
H19 H 0.3981 0.7686 -0.2231
C40 C 0.4279(6) 0.8855(5) -0.2747(3)
H20 H 0.4037 0.8774 -0.3189
C41 C -0.2663(5) 1.6730(4) -0.2795(3)
H21 H -0.3199 1.7252 -0.2727
C42 C 0.5646(5) 0.7319(3) -0.0460(3)
H22 H 0.6376 0.7644 -0.0529
C43 C 0.3899(5) 1.7490(3) -0.5187(3)
H23 H 0.4436 1.7335 -0.5599
C44 C -0.0656(6) 1.0556(4) 0.2690(3)
H24 H -0.1367 1.0225 0.2863
C45 C -0.0006(5) 1.2491(3) -0.0216(3)
H25 H -0.0254 1.2328 -0.0626
C46 C 0.1483(6) 1.1502(4) 0.2179(3)
H26 H 0.2225 1.1809 0.2012
C47 C 0.4671(5) 0.9634(5) -0.2674(3)
H27 H 0.4694 1.0082 -0.3065
C48 C 0.5639(6) 0.6607(3) 0.0084(4)
H28 H 0.6358 0.6458 0.0376
C49 C -0.3314(5) 1.7912(3) -0.4189(4)
H29 H -0.4109 1.7763 -0.3903
C50 C -0.1787(5) 1.5297(4) -0.2312(3)
H30 H -0.1731 1.4843 -0.1926
C51 C 0.0724(6) 1.3557(4) 0.0354(5)
H31 H 0.0958 1.4109 0.0336
C52 C 0.2908(7) 1.5442(5) -0.1894(4)
H32 H 0.2879 1.5077 -0.1451
C53 C 0.2367(7) 1.8532(4) -0.4595(6)
H33 H 0.1858 1.9079 -0.4604
C54 C 0.4564(7) 0.6117(4) 0.0193(4)
H34 H 0.4555 0.5639 0.0558
C55 C 0.0412(6) 1.0530(4) 0.3099(3)
H35 H 0.0411 1.0190 0.3554
C56 C 0.4132(6) 1.5518(4) -0.2311(3)
H36 H 0.4938 1.5200 -0.2149
C57 C 0.0759(5) 1.2977(4) 0.0983(4)
H37 H 0.1037 1.3143 0.1385
C58 C 0.2325(6) 1.7955(4) -0.3968(5)
H38 H 0.1794 1.8118 -0.3559
C59 C 0.1464(6) 1.0993(5) 0.2848(4)
H39 H 0.2183 1.0966 0.3130
C60 C 0.3512(5) 0.7046(4) -0.0779(4)
H40 H 0.2787 0.7189 -0.1067
C61 C 0.0343(6) 1.3320(3) -0.0246(4)
H41 H 0.0316 1.3711 -0.0675
C62 C 0.3513(7) 0.6339(4) -0.0237(5)
H42 H 0.2788 0.6009 -0.0165
C63 C 0.3143(7) 1.8326(4) -0.5212(5)
H43 H 0.3171 1.8726 -0.5636
O8 O 0.5946(2) 1.59783(16) -0.46686(15)
C64 C -0.3396(7) 1.8628(4) -0.4725(4)
H44 H -0.4250 1.8950 -0.4801
C65 C 0.1749(6) 1.6447(5) -0.2793(4)
H45 H 0.0933 1.6756 -0.2949
C66 C -0.0971(6) 1.8394(4) -0.5039(4)
H46 H -0.0185 1.8556 -0.5325
C67 C 0.1731(7) 1.5906(5) -0.2134(4)
H47 H 0.0897 1.5858 -0.1848
C68 C -0.2249(8) 1.8870(4) -0.5142(4)
H48 H -0.2323 1.9357 -0.5498
C69 C 0.1628(4) 1.1415(3) -0.1931(2)
H49 H 0.1023 1.1397 -0.2267
C70 C 0.3387(4) 1.2020(3) -0.1549(2)
H50 H 0.3994 1.2430 -0.1612
C71 C 0.3371(4) 1.1399(3) -0.0936(2)
H51 H 0.3987 1.1393 -0.0600
N4 N 0.2502(3) 1.0805(2) -0.08102(18)
C72 C 0.1640(4) 1.0822(3) -0.1305(2)
H52 H 0.1022 1.0417 -0.1223
Ni1A Ni 0.74963(4) 1.01147(3) -0.01136(2)
Ni1A_2 Ni -0.25037(4) 1.01147(3) -0.01136(2)
Ni2A Ni -0.25011(4) 1.51181(3) -0.51107(3)
Ni2_2 Ni 0.25011(4) 0.48819(3) 0.51107(3)
Ni2A_2 Ni 0.74989(4) 1.51181(3) -0.51107(3)
O3A O 0.3425(2) 1.05995(16) 0.07051(14)
O4A O 0.1001(2) 1.42720(16) -0.52002(14)
O7A O 0.1577(2) 0.90207(16) -0.03170(15)
N3_2 N 0.2497(3) 1.58170(19) -0.58067(18)
O8A O 0.4054(2) 1.40217(16) -0.53314(15)
loop_
_geom_bond_atom_site_label_1
_geom_bond_atom_site_label_2
_geom_bond_site_symmetry_1
_geom_bond_site_symmetry_2
Ni1 O2 1_555 1_555
Ni2 O1 1_555 1_555
O1 C3 1_555 1_555
O2 C4 1_555 1_555
O3 C4 1_555 1_555
O4 C3 1_555 1_555
O5 Ni1 1_555 1_555
O6 Ni2 1_555 1_555
O7 C1 1_555 1_555
N1 Ni1 1_555 1_555
N2 Ni2 1_555 1_555
C1 O5 1_555 1_555
N3 C12 1_555 1_555
C2 C20 1_555 1_555
C3 C20 1_555 1_555
C4 C11 1_555 1_555
C5 C11 1_555 1_555
C6 O6 1_555 1_555
C7 C23 1_555 1_555
C8 C16 1_555 1_555
C9 C14 1_555 1_555
C10 C13 1_555 1_555
C11 C36 1_555 1_555
C12 H1 1_555 1_555
C13 H2 1_555 1_555
C14 H3 1_555 1_555
C15 N2 1_555 1_555
H4 C15 1_555 1_555
C16 C35 1_555 1_555
C17 C9 1_555 1_555
C18 N1 1_555 1_555
H5 C18 1_555 1_555
C19 N2 1_555 1_555
H6 C19 1_555 1_555
C20 C33 1_555 1_555
C21 C5 1_555 1_555
C22 N1 1_555 1_555
H7 C22 1_555 1_555
C23 C38 1_555 1_555
C24 C1 1_555 1_555
C25 C10 1_555 1_555
H8 C25 1_555 1_555
C26 C2 1_555 1_555
C27 C12 1_555 1_555
H9 C27 1_555 1_555
C28 C9 1_555 1_555
H10 C28 1_555 1_555
C29 C10 1_555 1_555
C30 N3 1_555 1_555
H11 C30 1_555 1_555
C31 H12 1_555 1_555
C32 C17 1_555 1_555
H13 C32 1_555 1_555
C33 H14 1_555 1_555
C34 C6 1_555 1_555
C35 H15 1_555 1_555
C36 H16 1_555 1_555
C37 C26 1_555 1_555
H17 C37 1_555 1_555
C38 H18 1_555 1_555
C39 C5 1_555 1_555
H19 C39 1_555 1_555
C40 C39 1_555 1_555
H20 C40 1_555 1_555
C41 C2 1_555 1_555
H21 C41 1_555 1_555
C42 C21 1_555 1_555
H22 C42 1_555 1_555
C43 C34 1_555 1_555
H23 C43 1_555 1_555
C44 C35 1_555 1_555
H24 C44 1_555 1_555
C45 C24 1_555 1_555
H25 C45 1_555 1_555
C46 C16 1_555 1_555
H26 C46 1_555 1_555
C47 C36 1_555 1_555
H27 C47 1_555 1_555
C48 C42 1_555 1_555
H28 C48 1_555 1_555
C49 C26 1_555 1_555
H29 C49 1_555 1_555
C50 C31 1_555 1_555
H30 C50 1_555 1_555
C51 H31 1_555 1_555
C52 H32 1_555 1_555
C53 H33 1_555 1_555
C54 C48 1_555 1_555
H34 C54 1_555 1_555
C55 C44 1_555 1_555
H35 C55 1_555 1_555
C56 C38 1_555 1_555
H36 C56 1_555 1_555
C57 C8 1_555 1_555
H37 C57 1_555 1_555
C58 C7 1_555 1_555
H38 C58 1_555 1_555
C59 C46 1_555 1_555
H39 C59 1_555 1_555
C60 C21 1_555 1_555
H40 C60 1_555 1_555
C61 C45 1_555 1_555
H41 C61 1_555 1_555
C62 C54 1_555 1_555
H42 C62 1_555 1_555
C63 C43 1_555 1_555
H43 C63 1_555 1_555
O8 C6 1_555 1_555
C64 C49 1_555 1_555
H44 C64 1_555 1_555
C65 C23 1_555 1_555
H45 C65 1_555 1_555
C66 C37 1_555 1_555
H46 C66 1_555 1_555
C67 C52 1_555 1_555
H47 C67 1_555 1_555
C68 C64 1_555 1_555
H48 C68 1_555 1_555
C69 C29 1_555 1_555
H49 C69 1_555 1_555
C70 C29 1_555 1_555
H50 C70 1_555 1_555
C71 C70 1_555 1_555
H51 C71 1_555 1_555
N4 Ni1 1_555 1_555
C72 C69 1_555 1_555
H52 C72 1_555 1_555
Ni1A O3 1_555 1_555
Ni1A_2 O7 1_555 1_555
Ni2A O4 1_555 1_555
Ni2_2 N3 1_555 1_555
Ni2A_2 O8 1_555 1_555
O3A Ni1 1_555 1_555
O4A Ni2 1_555 1_555
O7A Ni1 1_555 1_555
N3_2 Ni2 1_555 1_555
O8A Ni2 1_555 1_555
C7 C34 1_555 1_555
C8 C24 1_555 1_555
C13 C19 1_555 1_555
C14 C18 1_555 1_555
C15 C25 1_555 1_555
C17 C27 1_555 1_555
C22 C28 1_555 1_555
C30 C32 1_555 1_555
C31 C41 1_555 1_555
C33 C50 1_555 1_555
C40 C47 1_555 1_555
C51 C57 1_555 1_555
C51 C61 1_555 1_555
C52 C56 1_555 1_555
C53 C58 1_555 1_555
C53 C63 1_555 1_555
C55 C59 1_555 1_555
C60 C62 1_555 1_555
C65 C67 1_555 1_555
C66 C68 1_555 1_555
C71 N4 1_555 1_555
N4 C72 1_555 1_555

#END
