
#######################################################################
#
#                 Cambridge Crystallographic Data Centre
#                                CCDC 
#
#######################################################################
#
# If this CIF has been generated from an entry in the Cambridge 
# Structural Database, then it will include bibliographic, chemical, 
# crystal, experimental, refinement or atomic coordinate data resulting 
# from the CCDC's data processing and validation procedures.
#
#######################################################################

data_IGIDUY
_symmetry_cell_setting           monoclinic
_symmetry_space_group_name_H-M   'C 2/c'
_symmetry_Int_Tables_number      15
_space_group_name_Hall           '-C 2yn'
loop_
_symmetry_equiv_pos_site_id
_symmetry_equiv_pos_as_xyz
1 x,y,z
2 -x,y,1/2-z
3 1/2+x,1/2+y,z
4 1/2-x,1/2+y,1/2-z
5 -x,-y,-z
6 x,-y,1/2+z
7 1/2-x,1/2-y,-z
8 1/2+x,1/2-y,1/2+z
_cell_length_a                   19.644(8)
_cell_length_b                   21.213(8)
_cell_length_c                   10.010(4)
_cell_angle_alpha                90
_cell_angle_beta                 113.759(8)
_cell_angle_gamma                90
_cell_volume                     3817.73
loop_
_atom_site_label
_atom_site_type_symbol
_atom_site_fract_x
_atom_site_fract_y
_atom_site_fract_z
Co1 Co 0.24638(3) 0.22941(2) 0.85545(6)
Co2 Co 0.15531(3) 0.15555(3) 0.99169(6)
O1 O 0.18009(15) 0.25146(13) 0.9504(3)
O2 O 0.23307(15) 0.14548(13) 0.9078(3)
N1 N 0.0649(2) 0.15118(19) 0.7897(4)
O3 O 0.07261(18) 0.14596(16) 1.0837(4)
O4 O 0.26544(15) 0.31267(13) 0.8169(3)
N2 N 0.1657(2) 0.22009(17) 0.6659(4)
N3 N 0.31079(19) 0.20624(17) 0.7699(4)
N4 N 0.15777(19) 0.17017(18) 0.6064(4)
N5 N 0.16280(19) 0.06279(17) 1.0435(4)
N6 N 0.1468(2) 0.1235(2) 0.5427(5)
N7 N 0.0000 0.1514(2) 0.7500
C1 C 0.2585(2) 0.0355(2) 0.9565(5)
C2 C 0.3203(2) 0.0957(2) 0.8336(5)
C3 C 0.3298(3) 0.2586(2) 0.6932(5)
H1 H 0.3223 0.2455 0.5933
H2 H 0.3824 0.2711 0.7466
C4 C 0.2068(2) 0.0237(2) 1.0239(5)
H3 H 0.2057 -0.0180 1.0572
C5 C 0.2693(2) 0.0938(2) 0.8985(5)
C6 C 0.3348(2) 0.1513(2) 0.7650(5)
H4 H 0.3650 0.1460 0.7117
C7 C 0.2993(3) -0.0168(2) 0.9465(5)
H5 H 0.2910 -0.0559 0.9839
C8 C 0.2785(2) 0.3130(2) 0.6874(5)
H6 H 0.3017 0.3534 0.6790
H7 H 0.2309 0.3086 0.6011
C9 C 0.3606(3) 0.0414(2) 0.8288(5)
H8 H 0.3955 0.0439 0.7853
C10 C 0.1202(2) 0.2950(2) 0.8791(5)
H9 H 0.0933 0.3026 0.9413
H10 H 0.0861 0.2772 0.7857
H11 H 0.1404 0.3349 0.8615
C11 C 0.3506(3) -0.0151(2) 0.8856(6)
C12 C 0.1153(2) 0.0421(2) 1.1178(6)
H12 H 0.1426 0.0464 1.2248
H13 H 0.1014 -0.0027 1.0951
C13 C 0.3941(4) -0.0724(3) 0.8798(7)
H14 H 0.4313 -0.0819 0.9779
H15 H 0.4192 -0.0644 0.8143
H16 H 0.3603 -0.1084 0.8432
C14 C 0.0465(3) 0.0825(2) 1.0659(6)
H17 H 0.0148 0.0737 0.9621
H18 H 0.0173 0.0745 1.1248
H19 H 0.035(4) 0.170(3) 1.040(7)
Co1F Co 0.25362(3) 0.27059(2) 1.14455(6)
Co2F Co 0.34469(3) 0.34445(3) 1.00831(6)
Co2A Co -0.15531(3) 0.15555(3) 0.50831(6)
O1F O 0.31991(15) 0.24854(13) 1.0496(3)
O2F O 0.26693(15) 0.35452(13) 1.0922(3)
N1A N -0.0649(2) 0.15118(19) 0.7103(4)
N1F N 0.4351(2) 0.34882(19) 1.2103(4)
O3F O 0.42739(18) 0.35404(16) 0.9163(4)
O4F O 0.23456(15) 0.18733(13) 1.1831(3)
N2F N 0.3343(2) 0.27991(17) 1.3341(4)
N3F N 0.18921(19) 0.29376(17) 1.2301(4)
N4F N 0.34223(19) 0.32983(18) 1.3936(4)
N5F N 0.33720(19) 0.43721(17) 0.9565(4)
N6F N 0.3532(2) 0.3765(2) 1.4573(5)
C1F C 0.2415(2) 0.4645(2) 1.0435(5)
C2F C 0.1797(2) 0.4043(2) 1.1664(5)
C3F C 0.1702(3) 0.2414(2) 1.3068(5)
H1F H 0.1777 0.2545 1.4067
H2F H 0.1176 0.2289 1.2534
C4F C 0.2932(2) 0.4763(2) 0.9761(5)
H3F H 0.2943 0.5180 0.9428
C5F C 0.2307(2) 0.4062(2) 1.1015(5)
C6F C 0.1652(2) 0.3487(2) 1.2350(5)
H4F H 0.1350 0.3540 1.2883
C7F C 0.2007(3) 0.5168(2) 1.0535(5)
H5F H 0.2090 0.5559 1.0161
C8F C 0.2215(2) 0.1870(2) 1.3126(5)
H6F H 0.1983 0.1466 1.3210
H7F H 0.2691 0.1914 1.3989
C9F C 0.1394(3) 0.4586(2) 1.1712(5)
H8F H 0.1045 0.4561 1.2147
C10F C 0.3798(2) 0.2050(2) 1.1209(5)
H9F H 0.4067 0.1974 1.0587
H10F H 0.4139 0.2228 1.2143
H11F H 0.3596 0.1651 1.1385
C11F C 0.1494(3) 0.5151(2) 1.1144(6)
C12F C 0.3847(2) 0.4579(2) 0.8822(6)
H12F H 0.3574 0.4536 0.7752
H13F H 0.3986 0.5027 0.9049
C13F C 0.1059(4) 0.5724(3) 1.1202(7)
H14F H 0.0687 0.5819 1.0221
H15F H 0.0808 0.5644 1.1857
H16F H 0.1397 0.6084 1.1568
C14F C 0.4535(3) 0.4175(2) 0.9341(6)
H17F H 0.4852 0.4263 1.0379
H18F H 0.4827 0.4255 0.8752
H19F H 0.465(4) 0.330(3) 0.960(7)
Cl1 Cl 0.5000 0.15340(10) 0.7500
O5 O 0.9874(2) 0.24648(18) 0.0174(4)
loop_
_geom_bond_atom_site_label_1
_geom_bond_atom_site_label_2
_geom_bond_site_symmetry_1
_geom_bond_site_symmetry_2
Co1 O1 1_555 1_555
Co2 O1 1_555 1_555
O1 C10 1_555 1_555
O2 Co1 1_555 1_555
N1 Co2 1_555 1_555
O3 Co2 1_555 1_555
O4 Co1 1_555 1_555
N2 Co1 1_555 1_555
N3 Co1 1_555 1_555
N4 N2 1_555 1_555
N5 Co2 1_555 1_555
N6 N4 1_555 1_555
N7 N1 1_555 1_555
C1 C4 1_555 1_555
C2 C5 1_555 1_555
C3 N3 1_555 1_555
H1 C3 1_555 1_555
H2 C3 1_555 1_555
C4 N5 1_555 1_555
H3 C4 1_555 1_555
C5 O2 1_555 1_555
C6 N3 1_555 1_555
H4 C6 1_555 1_555
C7 C1 1_555 1_555
H5 C7 1_555 1_555
C8 O4 1_555 1_555
H6 C8 1_555 1_555
H7 C8 1_555 1_555
C9 C2 1_555 1_555
H8 C9 1_555 1_555
C10 H9 1_555 1_555
H10 C10 1_555 1_555
H11 C10 1_555 1_555
C11 C7 1_555 1_555
C12 N5 1_555 1_555
H12 C12 1_555 1_555
H13 C12 1_555 1_555
C13 C11 1_555 1_555
H14 C13 1_555 1_555
H15 C13 1_555 1_555
H16 C13 1_555 1_555
C14 O3 1_555 1_555
H17 C14 1_555 1_555
H18 C14 1_555 1_555
H19 O3 1_555 1_555
Co1F O1 1_555 1_555
Co2F O4 1_555 1_555
Co2A N1A 1_555 1_555
O1F Co1 1_555 1_555
O2F Co1F 1_555 1_555
N1A N7 1_555 1_555
N1F Co2F 1_555 1_555
O3F Co2F 1_555 1_555
O4F Co2 1_555 1_555
N2F Co1F 1_555 1_555
N3F Co1F 1_555 1_555
N4F N2F 1_555 1_555
N5F Co2F 1_555 1_555
N6F N4F 1_555 1_555
C1F C4F 1_555 1_555
C2F C5F 1_555 1_555
C3F N3F 1_555 1_555
H1F C3F 1_555 1_555
H2F C3F 1_555 1_555
C4F N5F 1_555 1_555
H3F C4F 1_555 1_555
C5F O2F 1_555 1_555
C6F N3F 1_555 1_555
H4F C6F 1_555 1_555
C7F C1F 1_555 1_555
H5F C7F 1_555 1_555
C8F O4F 1_555 1_555
H6F C8F 1_555 1_555
H7F C8F 1_555 1_555
C9F C2F 1_555 1_555
H8F C9F 1_555 1_555
C10F O1F 1_555 1_555
H9F C10F 1_555 1_555
H10F C10F 1_555 1_555
H11F C10F 1_555 1_555
C11F C7F 1_555 1_555
C12F N5F 1_555 1_555
H12F C12F 1_555 1_555
H13F C12F 1_555 1_555
C13F C11F 1_555 1_555
H14F C13F 1_555 1_555
H15F C13F 1_555 1_555
H16F C13F 1_555 1_555
C14F O3F 1_555 1_555
H17F C14F 1_555 1_555
H18F C14F 1_555 1_555
H19F O3F 1_555 1_555
Co2 O2 1_555 1_555
C1 C5 1_555 1_555
C2 C6 1_555 1_555
C3 C8 1_555 1_555
C9 C11 1_555 1_555
C12 C14 1_555 1_555
Co1F O1F 1_555 1_555
Co1F O4F 1_555 1_555
Co2F O1F 1_555 1_555
Co2F O2F 1_555 1_555
C1F C5F 1_555 1_555
C2F C6F 1_555 1_555
C3F C8F 1_555 1_555
C9F C11F 1_555 1_555
C12F C14F 1_555 1_555

#END
