
#######################################################################
#
#                 Cambridge Crystallographic Data Centre
#                                CCDC 
#
#######################################################################
#
# If this CIF has been generated from an entry in the Cambridge 
# Structural Database, then it will include bibliographic, chemical, 
# crystal, experimental, refinement or atomic coordinate data resulting 
# from the CCDC's data processing and validation procedures.
#
#######################################################################

data_IGIDUX
_symmetry_cell_setting           triclinic
_symmetry_space_group_name_H-M   'P -1'
_symmetry_Int_Tables_number      2
_space_group_name_Hall           '-P 1'
loop_
_symmetry_equiv_pos_site_id
_symmetry_equiv_pos_as_xyz
1 x,y,z
2 -x,-y,-z
_cell_length_a                   9.9860(10)
_cell_length_b                   10.2300(10)
_cell_length_c                   11.2430(10)
_cell_angle_alpha                66.060(10)
_cell_angle_beta                 87.200(10)
_cell_angle_gamma                66.710(10)
_cell_volume                     955.646
loop_
_atom_site_label
_atom_site_type_symbol
_atom_site_fract_x
_atom_site_fract_y
_atom_site_fract_z
Cd1 Cd 0.92724(3) 0.83683(3) 0.59265(2)
N1 N 1.0237(3) 0.7327(3) 0.4420(3)
N2 N 0.7545(3) 0.7681(3) 0.5227(3)
C1 C 1.1522(4) 0.7205(4) 0.3997(3)
C2 C 1.2039(4) 0.6611(5) 0.3063(4)
C3 C 1.1193(5) 0.6136(4) 0.2555(3)
C4 C 0.9818(4) 0.6272(4) 0.2967(3)
C5 C 0.8857(5) 0.5828(4) 0.2460(4)
C6 C 0.7526(5) 0.6020(5) 0.2850(4)
C7 C 0.7013(4) 0.6675(4) 0.3782(3)
C8 C 0.5634(5) 0.6926(6) 0.4196(4)
C9 C 0.5223(5) 0.7544(6) 0.5103(5)
C10 C 0.6226(4) 0.7886(5) 0.5604(4)
C11 C 0.7947(4) 0.7087(4) 0.4327(3)
C12 C 0.9374(4) 0.6890(4) 0.3907(3)
O1 O 1.1247(3) 0.7305(3) 0.7641(2)
O2 O 1.1382(3) 0.9104(3) 0.5811(2)
C13 C 1.1766(3) 0.8296(3) 0.7026(3)
C14 C 1.2762(4) 0.8577(4) 0.7765(3)
C15 C 1.1987(4) 0.9189(4) 0.8752(3)
C16 C 1.2904(4) 0.9690(4) 0.9371(3)
C17 C 1.2123(4) 1.0336(5) 1.0335(3)
C18 C 1.3047(4) 1.0842(5) 1.0949(4)
C19 C 1.2287(4) 1.1367(4) 1.1981(3)
O3 O 1.2140(3) 1.0321(3) 1.3000(2)
O4 O 1.1822(3) 1.2764(3) 1.1798(3)
H1 H 1.209(5) 0.754(5) 0.436(4)
H2 H 1.285(5) 0.657(5) 0.277(4)
H3 H 1.152(5) 0.572(6) 0.194(5)
H4 H 0.917(4) 0.539(4) 0.188(4)
H5 H 0.695(5) 0.572(5) 0.254(4)
H6 H 0.494(7) 0.672(7) 0.373(6)
H7 H 0.430(7) 0.771(7) 0.533(6)
H8 H 0.595(5) 0.821(5) 0.635(4)
H9 H 1.305(5) 0.933(5) 0.718(4)
H10 H 1.354(5) 0.763(5) 0.821(4)
H11 H 1.180(5) 0.829(5) 0.943(4)
H12 H 1.100(4) 1.014(4) 0.824(3)
H13 H 1.386(5) 0.878(5) 0.982(4)
H14 H 1.304(3) 1.051(4) 0.866(3)
H15 H 1.191(4) 0.952(4) 1.102(4)
H16 H 1.116(5) 1.121(5) 0.988(4)
H17 H 1.389(6) 0.995(6) 1.142(5)
H18 H 1.317(5) 1.174(5) 1.021(4)
O2A O 0.8618(3) 1.0896(3) 0.4189(2)
O3A O 0.7860(3) 0.9679(3) 0.7000(2)
O4A O 0.8178(3) 0.7236(3) 0.8202(3)
Cd1A Cd 1.07276(3) 1.16317(3) 0.40735(2)
Cd1A_2 Cd 1.07276(3) 1.16317(3) 1.40735(2)
O5 O 1.5284(4) 0.4466(5) 0.8575(4)
H19 H 1.581(7) 0.473(8) 0.891(6)
H20 H 1.459(5) 0.456(5) 0.894(4)
O6 O 0.7189(4) 0.5113(4) 0.9921(3)
H21 H 0.777(7) 0.441(7) 1.047(6)
H22 H 0.757(8) 0.572(9) 0.948(7)
loop_
_geom_bond_atom_site_label_1
_geom_bond_atom_site_label_2
_geom_bond_site_symmetry_1
_geom_bond_site_symmetry_2
Cd1 N1 1_555 1_555
N1 C1 1_555 1_555
N2 Cd1 1_555 1_555
C1 C2 1_555 1_555
C2 C3 1_555 1_555
C3 C4 1_555 1_555
C4 C5 1_555 1_555
C5 C6 1_555 1_555
C6 C7 1_555 1_555
C7 C8 1_555 1_555
C8 C9 1_555 1_555
C9 C10 1_555 1_555
C10 N2 1_555 1_555
C11 N2 1_555 1_555
C12 N1 1_555 1_555
O1 Cd1 1_555 1_555
O2 Cd1 1_555 1_555
C13 O1 1_555 1_555
C14 C13 1_555 1_555
C15 C14 1_555 1_555
C16 C15 1_555 1_555
C17 C16 1_555 1_555
C18 C17 1_555 1_555
C19 C18 1_555 1_555
O3 C19 1_555 1_555
O4 C19 1_555 1_555
O5 H19 1_555 1_555
O6 H21 1_555 1_555
H1 C1 1_555 1_555
H2 C2 1_555 1_555
H3 C3 1_555 1_555
H4 C5 1_555 1_555
H5 C6 1_555 1_555
H6 C8 1_555 1_555
H7 C9 1_555 1_555
H8 C10 1_555 1_555
H9 C14 1_555 1_555
H10 C14 1_555 1_555
H11 C15 1_555 1_555
H12 C15 1_555 1_555
H13 C16 1_555 1_555
H14 C16 1_555 1_555
H15 C17 1_555 1_555
H16 C17 1_555 1_555
H17 C18 1_555 1_555
H18 C18 1_555 1_555
H20 O5 1_555 1_555
H22 O6 1_555 1_555
O2A Cd1 1_555 1_555
O3A Cd1 1_555 1_555
O4A Cd1 1_555 1_555
Cd1A O2 1_555 1_555
Cd1A_2 O3 1_555 1_555
C4 C12 1_555 1_555
C7 C11 1_555 1_555
C11 C12 1_555 1_555
O2 C13 1_555 1_555
O4 Cd1A_2 1_555 1_555
O2A Cd1A 1_555 1_555

#END
