
#######################################################################
#
#                 Cambridge Crystallographic Data Centre
#                                CCDC 
#
#######################################################################
#
# If this CIF has been generated from an entry in the Cambridge 
# Structural Database, then it will include bibliographic, chemical, 
# crystal, experimental, refinement or atomic coordinate data resulting 
# from the CCDC's data processing and validation procedures.
#
#######################################################################

data_IGIDOR01
_symmetry_cell_setting           monoclinic
_symmetry_space_group_name_H-M   'C 2/c'
_symmetry_Int_Tables_number      15
_space_group_name_Hall           '-C 2yn'
loop_
_symmetry_equiv_pos_site_id
_symmetry_equiv_pos_as_xyz
1 x,y,z
2 1/2+x,1/2+y,z
3 x,-y,1/2+z
4 1/2+x,1/2-y,1/2+z
5 -x,-y,-z
6 1/2-x,1/2-y,-z
7 -x,y,1/2-z
8 1/2-x,1/2+y,1/2-z
_cell_length_a                   16.186(3)
_cell_length_b                   15.487(3)
_cell_length_c                   14.052(3)
_cell_angle_alpha                90
_cell_angle_beta                 112.73(3)
_cell_angle_gamma                90
_cell_volume                     3248.88
loop_
_atom_site_label
_atom_site_type_symbol
_atom_site_fract_x
_atom_site_fract_y
_atom_site_fract_z
Cd1 Cd 0.434073(16) 0.237631(13) 0.332808(18)
O1 O 0.4727(2) 0.24612(15) 0.5265(2)
O2 O 0.34460(17) 0.19707(16) 0.41574(17)
O3 O 0.50172(19) -0.10356(15) 0.6320(2)
O4 O 0.40878(18) -0.19517(15) 0.65924(18)
N1 N 0.49102(19) 0.37611(16) 0.3626(2)
N2 N 0.3175(2) 0.33652(17) 0.2409(2)
C1 C 0.5751(2) 0.3943(2) 0.4239(3)
H1 H 0.6151 0.3490 0.4502
C2 C 0.6056(3) 0.4786(2) 0.4504(3)
H2 H 0.6646 0.4889 0.4945
C3 C 0.5477(3) 0.5460(2) 0.4106(3)
H3 H 0.5675 0.6026 0.4265
C4 C 0.4579(2) 0.5292(2) 0.3455(2)
C5 C 0.4321(2) 0.44204(19) 0.3239(2)
C6 C 0.3398(2) 0.4211(2) 0.2596(2)
C7 C 0.2778(2) 0.4888(2) 0.2189(2)
C8 C 0.1888(3) 0.4661(3) 0.1593(3)
H4 H 0.1454 0.5088 0.1331
C9 C 0.1662(3) 0.3815(3) 0.1400(3)
H5 H 0.1076 0.3656 0.0997
C10 C 0.2329(3) 0.3188(3) 0.1820(3)
H6 H 0.2169 0.2611 0.1676
C11 C 0.3923(3) 0.5957(2) 0.3009(3)
H7 H 0.4093 0.6532 0.3138
C12 C 0.3070(3) 0.5765(2) 0.2409(3)
H8 H 0.2661 0.6210 0.2132
C13 C 0.3967(2) 0.21564(18) 0.5065(2)
C14 C 0.3630(3) 0.2000(2) 0.5918(2)
H9 H 0.3177 0.2427 0.5867
H10 H 0.4122 0.2075 0.6580
C15 C 0.3236(2) 0.11043(19) 0.5871(3)
H11 H 0.2943 0.1072 0.6356
H12 H 0.2787 0.1005 0.5185
C16 C 0.4287(3) -0.1199(2) 0.6379(2)
C17 C 0.3597(3) -0.0497(2) 0.6159(3)
H13 H 0.3114 -0.0617 0.5502
H14 H 0.3348 -0.0514 0.6686
C18 C 0.3945(2) 0.0404(2) 0.6125(3)
H15 H 0.4415 0.0532 0.6789
H16 H 0.4209 0.0418 0.5612
O3D O 0.49828(19) 0.10356(15) 0.3680(2)
O4B O 0.40878(18) 0.19517(15) 0.15924(18)
O4D O 0.59122(18) 0.19517(15) 0.34076(18)
Cd1D Cd 0.565927(16) -0.237631(13) 0.667192(18)
Cd1B Cd 0.434073(16) -0.237631(13) 0.832808(18)
loop_
_geom_bond_atom_site_label_1
_geom_bond_atom_site_label_2
_geom_bond_site_symmetry_1
_geom_bond_site_symmetry_2
Cd1 O1 1_555 1_555
O1 C13 1_555 1_555
O2 Cd1 1_555 1_555
O3 C16 1_555 1_555
O4 C16 1_555 1_555
N1 Cd1 1_555 1_555
N2 Cd1 1_555 1_555
C1 N1 1_555 1_555
H1 C1 1_555 1_555
C2 C1 1_555 1_555
H2 C2 1_555 1_555
C3 C2 1_555 1_555
H3 C3 1_555 1_555
C4 C3 1_555 1_555
C5 N1 1_555 1_555
C6 N2 1_555 1_555
C7 C6 1_555 1_555
C8 C7 1_555 1_555
H4 C8 1_555 1_555
C9 C8 1_555 1_555
H5 C9 1_555 1_555
C10 N2 1_555 1_555
H6 C10 1_555 1_555
C11 C4 1_555 1_555
H7 C11 1_555 1_555
C12 C7 1_555 1_555
H8 C12 1_555 1_555
C13 O2 1_555 1_555
C14 C13 1_555 1_555
H9 C14 1_555 1_555
H10 C14 1_555 1_555
C15 C14 1_555 1_555
H11 C15 1_555 1_555
H12 C15 1_555 1_555
C16 C17 1_555 1_555
C17 H13 1_555 1_555
H14 C17 1_555 1_555
C18 C15 1_555 1_555
H15 C18 1_555 1_555
H16 C18 1_555 1_555
O3D Cd1 1_555 1_555
O4B Cd1 1_555 1_555
O4D Cd1 1_555 1_555
Cd1D O3 1_555 1_555
Cd1B O4 1_555 1_555
O4 Cd1D 1_555 1_555
C4 C5 1_555 1_555
C5 C6 1_555 1_555
C9 C10 1_555 1_555
C11 C12 1_555 1_555
C17 C18 1_555 1_555

#END
