
#######################################################################
#
#                 Cambridge Crystallographic Data Centre
#                                CCDC 
#
#######################################################################
#
# If this CIF has been generated from an entry in the Cambridge 
# Structural Database, then it will include bibliographic, chemical, 
# crystal, experimental, refinement or atomic coordinate data resulting 
# from the CCDC's data processing and validation procedures.
#
#######################################################################

data_IGINIX
_symmetry_cell_setting           monoclinic
_symmetry_space_group_name_H-M   'P 21/n'
_symmetry_Int_Tables_number      14
_space_group_name_Hall           '-P 2yn'
loop_
_symmetry_equiv_pos_site_id
_symmetry_equiv_pos_as_xyz
1 x,y,z
2 1/2-x,1/2+y,1/2-z
3 -x,-y,-z
4 1/2+x,1/2-y,1/2+z
_cell_length_a                   14.0003(3)
_cell_length_b                   12.1692(2)
_cell_length_c                   14.6711(3)
_cell_angle_alpha                90
_cell_angle_beta                 105.867(2)
_cell_angle_gamma                90
_cell_volume                     2404.32
loop_
_atom_site_label
_atom_site_type_symbol
_atom_site_fract_x
_atom_site_fract_y
_atom_site_fract_z
Zn1 Zn 0.35037(2) 0.52140(3) 0.65771(2)
Zn2 Zn 0.19539(2) 0.74271(2) 0.57481(2)
O1 O 0.20978(15) 0.56795(16) 0.59683(13)
O2 O 0.17537(19) 0.41115(18) 0.51503(16)
O3 O -0.17637(15) 0.71376(16) 0.17490(13)
O4 O -0.10361(17) 0.86364(17) 0.25475(15)
O5 O 0.32892(15) 0.40174(16) 0.75069(14)
O6 O 0.39140(15) 0.24611(16) 0.82697(13)
O7 O 0.71226(16) 0.26643(17) 0.52288(14)
O8 O 0.61254(19) 0.4068(2) 0.45719(17)
O9 O 0.15546(15) 0.90057(16) 0.52613(14)
N1 N 0.07964(17) 0.67905(19) 0.46227(15)
N2 N 0.46331(19) 0.4075(2) 0.65702(17)
N3 N 0.1847(2) 1.0846(2) 0.53813(19)
C1 C 0.0804(2) 0.5691(2) 0.45302(19)
C2 C 0.0147(2) 0.5141(2) 0.3790(2)
H1 H 0.0149 0.4362 0.3756
C3 C -0.0515(2) 0.5756(2) 0.3101(2)
H2 H -0.0975 0.5401 0.2589
C4 C -0.0498(2) 0.6892(2) 0.31682(19)
C5 C 0.0164(2) 0.7376(2) 0.39546(19)
H3 H 0.0164 0.8153 0.4016
C6 C 0.1603(2) 0.5083(2) 0.5262(2)
C7 C -0.1165(2) 0.7610(2) 0.2426(2)
C8 C 0.4622(2) 0.3166(2) 0.70909(19)
C9 C 0.5232(2) 0.2276(3) 0.7070(2)
H4 H 0.5231 0.1654 0.7460
C10 C 0.5851(2) 0.2306(3) 0.6464(2)
H5 H 0.6268 0.1699 0.6432
C11 C 0.5848(2) 0.3231(2) 0.5913(2)
C12 C 0.5251(2) 0.4110(2) 0.6018(2)
H6 H 0.5284 0.4769 0.5680
C13 C 0.3880(2) 0.3214(2) 0.76761(19)
C14 C 0.6432(2) 0.3319(2) 0.5182(2)
C15 C 0.1996(2) 0.9825(2) 0.5685(2)
H7 H 0.2478 0.9704 0.6273
C16 C 0.1146(3) 1.1114(3) 0.4474(3)
H8 H 0.1500 1.1158 0.3984
H9 H 0.0832 1.1823 0.4523
H10 H 0.0636 1.0542 0.4305
C17 C 0.2460(3) 1.1734(3) 0.5901(3)
H11 H 0.2798 1.1484 0.6543
H12 H 0.2039 1.2367 0.5935
H13 H 0.2954 1.1947 0.5573
Zn1B Zn 0.64963(2) 0.47860(3) 0.34229(2)
Zn1C Zn -0.14963(2) 0.97860(3) 0.15771(2)
Zn2A Zn 0.30461(2) 0.24271(2) 0.92519(2)
Zn2B Zn 0.80461(2) 0.25729(2) 0.42519(2)
Zn2C Zn -0.30461(2) 0.75729(2) 0.07481(2)
O3C O 0.32363(15) 0.78624(16) 0.67490(13)
O4C O 0.39639(17) 0.63636(17) 0.75475(15)
O6A O 0.10860(15) 0.74611(16) 0.67303(13)
O7B O 0.28774(16) 0.73357(17) 0.47712(14)
O8B O 0.38746(19) 0.5932(2) 0.54281(17)
N4 N 0.3025(3) 0.3932(4) 0.2925(3)
O10 O 0.2203(7) 0.5433(7) 0.2179(6)
C18 C 0.2431(6) 0.4805(8) 0.2892(8)
H14 H 0.2177 0.4955 0.3417
C19 C 0.3461(5) 0.3621(8) 0.2231(5)
H15 H 0.3165 0.4037 0.1650
H16 H 0.3353 0.2833 0.2104
H17 H 0.4175 0.3771 0.2444
C20 C 0.3211(8) 0.3266(8) 0.3790(6)
H18 H 0.2974 0.2515 0.3625
H19 H 0.2859 0.3587 0.4218
H20 H 0.3926 0.3253 0.4103
O11 O 0.6469(9) -0.0738(17) 0.5475(14)
N5 N 0.4989(9) -0.0023(10) 0.5016(8)
C21 C 0.5876(10) -0.0135(14) 0.4944(11)
H21 H 0.6068 0.0322 0.4367
C22 C 0.4533(10) -0.0463(12) 0.5683(9)
H22 H 0.5109 -0.0983 0.6124
H23 H 0.4310 0.0153 0.6128
H24 H 0.3886 -0.0968 0.5346
C23 C 0.4276(15) 0.0798(14) 0.4305(11)
H25 H 0.3613 0.0366 0.3890
H26 H 0.4665 0.1132 0.3816
H27 H 0.4036 0.1485 0.4672
O11B O 0.3531(9) 0.0738(17) 0.4525(14)
N5B N 0.5011(9) 0.0023(10) 0.4984(8)
C21B C 0.4124(10) 0.0135(14) 0.5056(11)
H21B H 0.3932 -0.0322 0.5633
C22B C 0.5467(10) 0.0463(12) 0.4317(9)
H22B H 0.4891 0.0983 0.3876
H23B H 0.5690 -0.0153 0.3872
H24B H 0.6114 0.0968 0.4654
C23B C 0.5724(15) -0.0798(14) 0.5695(11)
H25B H 0.6387 -0.0366 0.6110
H26B H 0.5335 -0.1132 0.6184
H27B H 0.5964 -0.1485 0.5328
O12? O 0.2021(16) 0.5263(18) 0.2964(16)
C24? C 0.259(2) 0.419(2) 0.343(2)
H28? H 0.2566 0.3835 0.3999
C25? C 0.3338(17) 0.430(2) 0.2022(15)
H29? H 0.4053 0.4448 0.2196
H30? H 0.2977 0.4974 0.1762
H31? H 0.3178 0.3720 0.1544
C26? C 0.363(2) 0.279(2) 0.325(2)
H32? H 0.3408 0.2243 0.2750
H33? H 0.3491 0.2528 0.3834
H34? H 0.4339 0.2926 0.3366
loop_
_geom_bond_atom_site_label_1
_geom_bond_atom_site_label_2
_geom_bond_site_symmetry_1
_geom_bond_site_symmetry_2
Zn1 O1 1_555 1_555
Zn2 O1 1_555 1_555
O1 C6 1_555 1_555
O2 C6 1_555 1_555
O3 C7 1_555 1_555
O4 C7 1_555 1_555
O5 Zn1 1_555 1_555
O6 C13 1_555 1_555
O7 C14 1_555 1_555
O8 C14 1_555 1_555
O9 Zn2 1_555 1_555
N1 Zn2 1_555 1_555
N2 Zn1 1_555 1_555
N3 C15 1_555 1_555
C1 N1 1_555 1_555
C2 C1 1_555 1_555
H1 C2 1_555 1_555
C3 C2 1_555 1_555
H2 C3 1_555 1_555
C4 C3 1_555 1_555
C5 N1 1_555 1_555
H3 C5 1_555 1_555
C6 C1 1_555 1_555
C7 C4 1_555 1_555
C8 N2 1_555 1_555
C9 C8 1_555 1_555
H4 C9 1_555 1_555
C10 C9 1_555 1_555
H5 C10 1_555 1_555
C11 C10 1_555 1_555
C12 N2 1_555 1_555
H6 C12 1_555 1_555
C13 O5 1_555 1_555
C14 C11 1_555 1_555
C15 O9 1_555 1_555
H7 C15 1_555 1_555
C16 N3 1_555 1_555
H8 C16 1_555 1_555
H9 C16 1_555 1_555
H10 C16 1_555 1_555
C17 N3 1_555 1_555
H11 C17 1_555 1_555
H12 C17 1_555 1_555
H13 C17 1_555 1_555
N4 C18 1_555 1_555
O10 C18 1_555 1_555
C18 H14 1_555 1_555
C19 N4 1_555 1_555
H15 C19 1_555 1_555
H16 C19 1_555 1_555
H17 C19 1_555 1_555
C20 N4 1_555 1_555
H18 C20 1_555 1_555
H19 C20 1_555 1_555
H20 C20 1_555 1_555
O11 C21 1_555 1_555
N5 C21 1_555 1_555
C21 H21 1_555 1_555
C22 N5 1_555 1_555
H22 C22 1_555 1_555
H23 C22 1_555 1_555
H24 C22 1_555 1_555
C23 N5 1_555 1_555
H25 C23 1_555 1_555
H26 C23 1_555 1_555
H27 C23 1_555 1_555
Zn1B O8 1_555 1_555
Zn1C O4 1_555 1_555
Zn2A O6 1_555 1_555
Zn2B O7 1_555 1_555
Zn2C O3 1_555 1_555
O3C Zn2 1_555 1_555
O4C Zn1 1_555 1_555
O6A Zn2 1_555 1_555
O7B Zn2 1_555 1_555
O8B Zn1 1_555 1_555
O11B C21B 1_555 1_555
N5B C21B 1_555 1_555
C21B H21B 1_555 1_555
C22B N5B 1_555 1_555
H22B C22B 1_555 1_555
H23B C22B 1_555 1_555
H24B C22B 1_555 1_555
C23B N5B 1_555 1_555
H25B C23B 1_555 1_555
H26B C23B 1_555 1_555
H27B C23B 1_555 1_555
C4 C5 1_555 1_555
C8 C13 1_555 1_555
C11 C12 1_555 1_555

#END
