
#######################################################################
#
#                 Cambridge Crystallographic Data Centre
#                                CCDC 
#
#######################################################################
#
# If this CIF has been generated from an entry in the Cambridge 
# Structural Database, then it will include bibliographic, chemical, 
# crystal, experimental, refinement or atomic coordinate data resulting 
# from the CCDC's data processing and validation procedures.
#
#######################################################################

data_IGIPEU
_symmetry_cell_setting           triclinic
_symmetry_space_group_name_H-M   'P -1'
_symmetry_Int_Tables_number      2
_space_group_name_Hall           '-P 1'
loop_
_symmetry_equiv_pos_site_id
_symmetry_equiv_pos_as_xyz
1 x,y,z
2 -x,-y,-z
_cell_length_a                   11.047(2)
_cell_length_b                   11.936(2)
_cell_length_c                   14.397(3)
_cell_angle_alpha                100.306(2)
_cell_angle_beta                 108.342(2)
_cell_angle_gamma                96.557(3)
_cell_volume                     1743.04
loop_
_atom_site_label
_atom_site_type_symbol
_atom_site_fract_x
_atom_site_fract_y
_atom_site_fract_z
Cd1 Cd 0.873807(15) 0.227211(13) 0.701149(12)
C1 C 0.0552(2) 0.0884(2) 0.7494(2)
C2 C 0.1487(2) 0.00463(19) 0.76046(18)
C3 C 0.1300(2) -0.08660(19) 0.80567(18)
H1 H 0.0636 -0.0935 0.8322
C4 C 0.2113(2) -0.16679(19) 0.81064(18)
C5 C 0.3128(2) -0.1558(2) 0.7730(2)
H2 H 0.3679 -0.2095 0.7772
C6 C 0.3303(2) -0.0641(2) 0.7294(2)
C7 C 0.2487(2) 0.0161(2) 0.7228(2)
H3 H 0.2613 0.0774 0.6930
C8 C 0.4607(3) -0.1389(2) 0.6392(3)
H4 H 0.3837 -0.1815 0.5843
H5 H 0.4918 -0.1903 0.6829
C9 C 0.5637(2) -0.0993(2) 0.5979(2)
C10 C 0.5925(3) -0.1723(3) 0.5264(2)
H6 H 0.5457 -0.2475 0.4999
C11 C 0.6903(4) -0.1346(3) 0.4938(3)
H7 H 0.7108 -0.1834 0.4452
C12 C 0.7582(3) -0.0218(3) 0.5346(2)
H8 H 0.8247 0.0036 0.5124
C13 C 0.6355(2) 0.0114(2) 0.6337(2)
H9 H 0.6157 0.0620 0.6816
C14 C 0.0836(2) -0.2917(2) 0.8708(2)
H10 H 0.0089 -0.2915 0.8132
H11 H 0.0816 -0.2367 0.9285
C15 C 0.0824(2) -0.4109(2) 0.89125(18)
C16 C 0.1560(2) -0.4285(2) 0.98334(19)
H12 H 0.2059 -0.3659 1.0351
C17 C 0.1543(3) -0.5398(2) 0.99734(19)
H13 H 0.2034 -0.5533 1.0585
C18 C 0.0789(2) -0.6309(2) 0.91958(18)
H14 H 0.0783 -0.7058 0.9294
C19 C 0.0088(2) -0.5067(2) 0.81786(17)
H15 H -0.0418 -0.4954 0.7563
C20 C 0.6672(2) 0.3055(2) 0.74865(17)
C21 C 0.5495(2) 0.3356(2) 0.77161(17)
C22 C 0.5151(2) 0.2899(2) 0.84406(19)
H16 H 0.5644 0.2422 0.8781
C23 C 0.4058(3) 0.3171(3) 0.8645(2)
C24 C 0.3317(3) 0.3869(3) 0.8125(2)
H17 H 0.2586 0.4045 0.8265
C25 C 0.3659(3) 0.4302(3) 0.7400(2)
C26 C 0.4760(2) 0.4060(2) 0.71921(18)
H18 H 0.5001 0.4362 0.6711
C27 C 0.3000(3) 0.5283(2) 0.60821(19)
H19 H 0.2941 0.4592 0.5587
H20 H 0.3846 0.5762 0.6258
C28 C 0.1950(2) 0.5941(2) 0.56531(17)
C29 C 0.0964(3) 0.6128(2) 0.60273(18)
H21 H 0.0914 0.5841 0.6576
C30 C 0.0056(3) 0.6744(2) 0.5578(2)
H22 H -0.0610 0.6884 0.5824
C31 C 0.0145(3) 0.7151(2) 0.4758(2)
H23 H -0.0473 0.7564 0.4457
C32 C 0.1965(2) 0.6380(2) 0.48330(17)
H24 H 0.2627 0.6255 0.4579
C33 C 0.4341(3) 0.2070(3) 0.9908(2)
H25 H 0.5209 0.2493 1.0303
H26 H 0.4407 0.1375 0.9473
C34 C 0.3619(3) 0.1763(3) 1.0585(2)
C35 C 0.3102(4) 0.0635(4) 1.0519(3)
H27 H 0.3216 0.0035 1.0063
C36 C 0.2416(4) 0.0402(4) 1.1133(3)
H28 H 0.2053 -0.0354 1.1095
C37 C 0.2282(3) 0.1303(4) 1.1794(3)
H29 H 0.1800 0.1143 1.2196
C38 C 0.3461(3) 0.2605(3) 1.1302(3)
H30 H 0.3841 0.3366 1.1373
N1 N 0.7328(2) 0.05076(18) 0.60339(16)
N2 N 0.00635(18) -0.61539(16) 0.83042(14)
N3 N 0.10888(19) 0.69725(17) 0.43794(15)
N4 N 0.2798(3) 0.2399(3) 1.1901(2)
O2 O 0.05286(19) 0.14907(17) 0.68619(16)
O3 O -0.01756(18) 0.09262(15) 0.80009(15)
O4 O 0.4299(2) -0.04504(17) 0.6923(2)
O5 O 0.20063(17) -0.26164(15) 0.85138(15)
O6 O 0.69796(18) 0.34659(19) 0.68308(15)
O7 O 0.72969(16) 0.23934(14) 0.79440(13)
O8 O 0.2849(2) 0.4979(2) 0.69305(17)
O9 O 0.3612(2) 0.2769(2) 0.93303(18)
Cd1_2 Cd -0.126193(15) -0.772789(13) 0.701149(12)
Cd1A Cd 0.126193(15) 0.772789(13) 0.298851(12)
Cd1_3 Cd -0.126193(15) 0.227211(13) 0.701149(12)
N2_2 N 1.00635(18) 0.38461(16) 0.83042(14)
N3A N 0.89112(19) 0.30275(17) 0.56206(15)
O2_2 O 1.05286(19) 0.14907(17) 0.68619(16)
O3_2 O 0.98244(18) 0.09262(15) 0.80009(15)
H31 H 0.278(5) 0.365(4) 0.294(4)
H32 H 0.354(4) 0.417(4) 0.371(4)
O1 O 0.2712(6) 0.4172(4) 0.3516(4)
loop_
_geom_bond_atom_site_label_1
_geom_bond_atom_site_label_2
_geom_bond_site_symmetry_1
_geom_bond_site_symmetry_2
Cd1 N1 1_555 1_555
C1 C2 1_555 1_555
C2 C3 1_555 1_555
C3 H1 1_555 1_555
C4 C3 1_555 1_555
C5 C4 1_555 1_555
H2 C5 1_555 1_555
C6 C5 1_555 1_555
C7 C2 1_555 1_555
H3 C7 1_555 1_555
C8 H4 1_555 1_555
H5 C8 1_555 1_555
C9 C8 1_555 1_555
C10 C9 1_555 1_555
H6 C10 1_555 1_555
C11 C10 1_555 1_555
H7 C11 1_555 1_555
C12 C11 1_555 1_555
H8 C12 1_555 1_555
C13 C9 1_555 1_555
H9 C13 1_555 1_555
C14 H10 1_555 1_555
H11 C14 1_555 1_555
C15 C14 1_555 1_555
C16 C15 1_555 1_555
H12 C16 1_555 1_555
C17 C16 1_555 1_555
H13 C17 1_555 1_555
C18 C17 1_555 1_555
H14 C18 1_555 1_555
C19 C15 1_555 1_555
H15 C19 1_555 1_555
C20 C21 1_555 1_555
C21 C22 1_555 1_555
C22 H16 1_555 1_555
C23 C22 1_555 1_555
C24 C23 1_555 1_555
H17 C24 1_555 1_555
C25 C24 1_555 1_555
C26 C21 1_555 1_555
H18 C26 1_555 1_555
C27 H19 1_555 1_555
H20 C27 1_555 1_555
C28 C27 1_555 1_555
C29 C28 1_555 1_555
H21 C29 1_555 1_555
C30 C29 1_555 1_555
H22 C30 1_555 1_555
C31 C30 1_555 1_555
H23 C31 1_555 1_555
C32 C28 1_555 1_555
H24 C32 1_555 1_555
C33 H25 1_555 1_555
H26 C33 1_555 1_555
C34 C33 1_555 1_555
C35 C34 1_555 1_555
H27 C35 1_555 1_555
C36 C35 1_555 1_555
H28 C36 1_555 1_555
C37 C36 1_555 1_555
H29 C37 1_555 1_555
C38 C34 1_555 1_555
H30 C38 1_555 1_555
H31 O1 1_555 1_555
H32 O1 1_555 1_555
N1 C12 1_555 1_555
N2 C18 1_555 1_555
N3 C31 1_555 1_555
N4 C37 1_555 1_555
O2 C1 1_555 1_555
O3 C1 1_555 1_555
O4 C6 1_555 1_555
O5 C4 1_555 1_555
O6 Cd1 1_555 1_555
O7 Cd1 1_555 1_555
O8 C25 1_555 1_555
O9 C23 1_555 1_555
Cd1_2 N2 1_555 1_555
Cd1A N3 1_555 1_555
Cd1_3 O2 1_555 1_555
N2_2 Cd1 1_555 1_555
N3A Cd1 1_555 1_555
O2_2 Cd1 1_555 1_555
O3_2 Cd1 1_555 1_555
C6 C7 1_555 1_555
C8 O4 1_555 1_555
C13 N1 1_555 1_555
C14 O5 1_555 1_555
C19 N2 1_555 1_555
C20 O6 1_555 1_555
C20 O7 1_555 1_555
C25 C26 1_555 1_555
C27 O8 1_555 1_555
C32 N3 1_555 1_555
C33 O9 1_555 1_555
C38 N4 1_555 1_555
O3 Cd1_3 1_555 1_555

#END
