
#######################################################################
#
#                 Cambridge Crystallographic Data Centre
#                                CCDC 
#
#######################################################################
#
# If this CIF has been generated from an entry in the Cambridge 
# Structural Database, then it will include bibliographic, chemical, 
# crystal, experimental, refinement or atomic coordinate data resulting 
# from the CCDC's data processing and validation procedures.
#
#######################################################################

data_IGIPUK
_symmetry_cell_setting           monoclinic
_symmetry_space_group_name_H-M   'C 2/c'
_symmetry_Int_Tables_number      15
_space_group_name_Hall           '-C 2yn'
loop_
_symmetry_equiv_pos_site_id
_symmetry_equiv_pos_as_xyz
1 x,y,z
2 -x,y,1/2-z
3 1/2+x,1/2+y,z
4 1/2-x,1/2+y,1/2-z
5 -x,-y,-z
6 x,-y,1/2+z
7 1/2-x,1/2-y,-z
8 1/2+x,1/2-y,1/2+z
_cell_length_a                   20.380(2)
_cell_length_b                   9.925(3)
_cell_length_c                   16.389(3)
_cell_angle_alpha                90
_cell_angle_beta                 106.454(2)
_cell_angle_gamma                90
_cell_volume                     3179.27
loop_
_atom_site_label
_atom_site_type_symbol
_atom_site_fract_x
_atom_site_fract_y
_atom_site_fract_z
Ni1 Ni 0.0000 0.16198(5) 0.2500
C1 C 0.08780(14) 0.2921(3) 0.35243(18)
C2 C 0.14301(15) 0.3742(3) 0.41058(19)
C3 C 0.20971(15) 0.3581(3) 0.40641(19)
H1 H 0.2202 0.2929 0.3713
C4 C 0.26069(15) 0.4415(3) 0.4560(2)
C5 C 0.24520(17) 0.5344(4) 0.5102(2)
H2 H 0.2794 0.5899 0.5430
C6 C 0.17972(17) 0.5456(3) 0.5161(2)
C7 C 0.12743(16) 0.4670(3) 0.4655(2)
H3 H 0.0828 0.4765 0.4685
C8 C 0.34543(15) 0.3518(3) 0.3966(2)
H4 H 0.3140 0.3632 0.3402
H5 H 0.3431 0.2589 0.4139
C9 C 0.41695(15) 0.3856(3) 0.39552(19)
C10 C 0.47409(17) 0.3237(3) 0.4492(2)
H6 H 0.4691 0.2587 0.4879
C11 C 0.53788(16) 0.3593(3) 0.4447(2)
H7 H 0.5767 0.3181 0.4797
C12 C 0.54380(15) 0.4568(3) 0.38755(19)
H8 H 0.5873 0.4811 0.3851
C13 C 0.42766(14) 0.4820(3) 0.34060(18)
H9 H 0.3896 0.5247 0.3049
C14 C 0.1206(2) 0.6221(4) 0.6162(2)
H10 H 0.0769 0.6005 0.5760
H11 H 0.1148 0.7043 0.6454
C15 C 0.1405(2) 0.5100(4) 0.6802(2)
C16 C 0.0900(3) 0.4486(5) 0.7087(3)
H12 H 0.0444 0.4735 0.6865
C17 C 0.1079(5) 0.3513(5) 0.7696(4)
H13 H 0.0747 0.3104 0.7901
C18 C 0.1743(7) 0.3146(7) 0.8002(4)
H14 H 0.1856 0.2482 0.8419
C19 C 0.2087(3) 0.4688(5) 0.7127(3)
H15 H 0.2420 0.5101 0.6925
N1 N 0.48951(11) 0.5182(2) 0.33537(15)
N2 N 0.2276(4) 0.3728(6) 0.7714(3)
O1 O 0.10264(10) 0.2038(2) 0.30492(13)
O2 O 0.02591(10) 0.3118(2) 0.34960(14)
O3 O 0.32742(10) 0.4396(3) 0.45491(15)
O4 O 0.16958(13) 0.6453(3) 0.57056(17)
Ni1B Ni 0.5000 0.66198(5) 0.2500
Ni1B_2 Ni -0.5000 0.66198(5) 0.2500
C1A C -0.08780(14) 0.2921(3) 0.14757(18)
C2A C -0.14301(15) 0.3742(3) 0.08942(19)
C3A C -0.20971(15) 0.3581(3) 0.09359(19)
H1A H -0.2202 0.2929 0.1287
C4A C -0.26069(15) 0.4415(3) 0.0440(2)
C5A C -0.24520(17) 0.5344(4) -0.0102(2)
H2A H -0.2794 0.5899 -0.0430
C6A C -0.17972(17) 0.5456(3) -0.0161(2)
C7A C -0.12743(16) 0.4670(3) 0.0345(2)
H3A H -0.0828 0.4765 0.0315
C8A C -0.34543(15) 0.3518(3) 0.1034(2)
H4A H -0.3140 0.3632 0.1598
H5A H -0.3431 0.2589 0.0861
C9A C -0.41695(15) 0.3856(3) 0.10448(19)
C10A C -0.47409(17) 0.3237(3) 0.0508(2)
H6A H -0.4691 0.2587 0.0121
C11A C -0.53788(16) 0.3593(3) 0.0553(2)
H7A H -0.5767 0.3181 0.0203
C12A C -0.54380(15) 0.4568(3) 0.11245(19)
H8A H -0.5873 0.4811 0.1149
C13A C -0.42766(14) 0.4820(3) 0.15940(18)
H9A H -0.3896 0.5247 0.1951
C14A C -0.1206(2) 0.6221(4) -0.1162(2)
H10A H -0.0769 0.6005 -0.0760
H11A H -0.1148 0.7043 -0.1454
C15A C -0.1405(2) 0.5100(4) -0.1802(2)
C16A C -0.0900(3) 0.4486(5) -0.2087(3)
H12A H -0.0444 0.4735 -0.1865
C17A C -0.1079(5) 0.3513(5) -0.2696(4)
H13A H -0.0747 0.3104 -0.2901
C18A C -0.1743(7) 0.3146(7) -0.3002(4)
H14A H -0.1856 0.2482 -0.3419
C19A C -0.2087(3) 0.4688(5) -0.2127(3)
H15A H -0.2420 0.5101 -0.1925
N1C N 0.01049(11) 0.0182(2) 0.16463(15)
N1B N -0.01049(11) 0.0182(2) 0.33537(15)
N1A N -0.48951(11) 0.5182(2) 0.16463(15)
N2A N -0.2276(4) 0.3728(6) -0.2714(3)
O1A O -0.10264(10) 0.2038(2) 0.19508(13)
O2A O -0.02591(10) 0.3118(2) 0.15040(14)
O3A O -0.32742(10) 0.4396(3) 0.04509(15)
O4A O -0.16958(13) 0.6453(3) -0.07056(17)
loop_
_geom_bond_atom_site_label_1
_geom_bond_atom_site_label_2
_geom_bond_site_symmetry_1
_geom_bond_site_symmetry_2
Ni1 O1 1_555 1_555
C1 C2 1_555 1_555
C2 C3 1_555 1_555
C3 H1 1_555 1_555
C4 C3 1_555 1_555
C5 C4 1_555 1_555
H2 C5 1_555 1_555
C6 C5 1_555 1_555
C7 C2 1_555 1_555
H3 C7 1_555 1_555
C8 H4 1_555 1_555
H5 C8 1_555 1_555
C9 C8 1_555 1_555
C10 C9 1_555 1_555
H6 C10 1_555 1_555
C11 C10 1_555 1_555
H7 C11 1_555 1_555
C12 C11 1_555 1_555
H8 C12 1_555 1_555
C13 C9 1_555 1_555
H9 C13 1_555 1_555
C14 H10 1_555 1_555
H11 C14 1_555 1_555
C15 C14 1_555 1_555
C16 C15 1_555 1_555
H12 C16 1_555 1_555
C17 C16 1_555 1_555
H13 C17 1_555 1_555
C18 C17 1_555 1_555
H14 C18 1_555 1_555
C19 C15 1_555 1_555
H15 C19 1_555 1_555
N1 C12 1_555 1_555
N2 C18 1_555 1_555
O1 C1 1_555 1_555
O2 Ni1 1_555 1_555
O3 C4 1_555 1_555
O4 C6 1_555 1_555
Ni1B N1 1_555 1_555
Ni1B_2 N1A 1_555 1_555
C1A C2A 1_555 1_555
C2A C3A 1_555 1_555
C3A H1A 1_555 1_555
C4A C3A 1_555 1_555
C5A C4A 1_555 1_555
H2A C5A 1_555 1_555
C6A C5A 1_555 1_555
C7A C2A 1_555 1_555
H3A C7A 1_555 1_555
C8A H4A 1_555 1_555
H5A C8A 1_555 1_555
C9A C8A 1_555 1_555
C10A C9A 1_555 1_555
H6A C10A 1_555 1_555
C11A C10A 1_555 1_555
H7A C11A 1_555 1_555
C12A C11A 1_555 1_555
H8A C12A 1_555 1_555
C13A C9A 1_555 1_555
H9A C13A 1_555 1_555
C14A H10A 1_555 1_555
H11A C14A 1_555 1_555
C15A C14A 1_555 1_555
C16A C15A 1_555 1_555
H12A C16A 1_555 1_555
C17A C16A 1_555 1_555
H13A C17A 1_555 1_555
C18A C17A 1_555 1_555
H14A C18A 1_555 1_555
C19A C15A 1_555 1_555
H15A C19A 1_555 1_555
N1C Ni1 1_555 1_555
N1B Ni1 1_555 1_555
N1A C12A 1_555 1_555
N2A C18A 1_555 1_555
O1A Ni1 1_555 1_555
O2A Ni1 1_555 1_555
O3A C4A 1_555 1_555
O4A C6A 1_555 1_555
C1 O2 1_555 1_555
C6 C7 1_555 1_555
C8 O3 1_555 1_555
C13 N1 1_555 1_555
C14 O4 1_555 1_555
C19 N2 1_555 1_555
C1A O1A 1_555 1_555
C1A O2A 1_555 1_555
C6A C7A 1_555 1_555
C8A O3A 1_555 1_555
C13A N1A 1_555 1_555
C14A O4A 1_555 1_555
C19A N2A 1_555 1_555

#END
