
#######################################################################
#
#                 Cambridge Crystallographic Data Centre
#                                CCDC 
#
#######################################################################
#
# If this CIF has been generated from an entry in the Cambridge 
# Structural Database, then it will include bibliographic, chemical, 
# crystal, experimental, refinement or atomic coordinate data resulting 
# from the CCDC's data processing and validation procedures.
#
#######################################################################

data_IGIPOE
_symmetry_cell_setting           monoclinic
_symmetry_space_group_name_H-M   'C 2/c'
_symmetry_Int_Tables_number      15
_space_group_name_Hall           '-C 2yn'
loop_
_symmetry_equiv_pos_site_id
_symmetry_equiv_pos_as_xyz
1 x,y,z
2 -x,y,1/2-z
3 1/2+x,1/2+y,z
4 1/2-x,1/2+y,1/2-z
5 -x,-y,-z
6 x,-y,1/2+z
7 1/2-x,1/2-y,-z
8 1/2+x,1/2-y,1/2+z
_cell_length_a                   20.504(3)
_cell_length_b                   9.936(2)
_cell_length_c                   16.493(2)
_cell_angle_alpha                90
_cell_angle_beta                 106.931(4)
_cell_angle_gamma                90
_cell_volume                     3214.44
loop_
_atom_site_label
_atom_site_type_symbol
_atom_site_fract_x
_atom_site_fract_y
_atom_site_fract_z
Co1 Co 0.5000 0.33839(4) 1.2500
C1 C 0.41220(10) 0.2037(2) 1.14564(13)
C2 C 0.35608(10) 0.1230(2) 1.08752(13)
C3 C 0.37128(11) 0.0307(2) 1.03195(14)
H1 H 0.4156 0.0220 1.0285
C4 C 0.31911(12) -0.0479(2) 0.98194(14)
C5 C 0.25360(12) -0.0361(3) 0.98838(15)
H2 H 0.2192 -0.0911 0.9558
C6 C 0.23894(11) 0.0570(2) 1.04292(14)
C7 C 0.29017(11) 0.1391(2) 1.09248(13)
H3 H 0.2804 0.2035 1.1282
C8 C 0.15601(11) 0.1485(2) 1.10246(15)
H4 H 0.1584 0.2412 1.0851
H5 H 0.1877 0.1369 1.1585
C9 C 0.08464(10) 0.1151(2) 1.10357(13)
C10 C 0.02756(12) 0.1776(2) 1.05007(15)
H6 H 0.0324 0.2428 1.0118
C11 C -0.03610(12) 0.1419(3) 1.05445(16)
H7 H -0.0749 0.1830 1.0194
C12 C -0.04170(10) 0.0448(2) 1.11127(14)
H8 H -0.0849 0.0209 1.1138
C13 C 0.07431(10) 0.0188(2) 1.15860(13)
H9 H 0.1123 -0.0236 1.1944
C14 C 0.37725(15) -0.1240(3) 0.88267(18)
H10 H 0.3825 -0.2059 0.8531
H11 H 0.4209 -0.1037 0.9233
C15 C 0.35809(17) -0.0109(3) 0.81962(17)
C16 C 0.4076(2) 0.0493(3) 0.7911(2)
H12 H 0.4527 0.0221 0.8132
C17 C 0.3921(4) 0.1475(4) 0.7312(3)
H13 H 0.4256 0.1878 0.7117
C18 C 0.3248(5) 0.1849(5) 0.7007(3)
H14 H 0.3133 0.2516 0.6594
C19 C 0.2905(2) 0.0313(4) 0.7872(2)
H15 H 0.2572 -0.0090 0.8071
N1 N 0.01264(8) -0.01711(18) 1.16334(11)
N2 N 0.2721(3) 0.1275(5) 0.7285(2)
O1 O 0.39814(7) 0.28938(17) 1.19505(10)
O2 O 0.47281(8) 0.18532(17) 1.14581(11)
O3 O 0.17270(8) 0.0595(2) 1.04391(11)
O4 O 0.32829(10) -0.14670(19) 0.92716(12)
Co1B Co 0.0000 -0.16161(4) 1.2500
Co1B_2 Co 1.0000 -0.16161(4) 1.2500
C1A C 0.58780(10) 0.2037(2) 1.35436(13)
C2A C 0.64392(10) 0.1230(2) 1.41248(13)
C3A C 0.62872(11) 0.0307(2) 1.46805(14)
H1A H 0.5844 0.0220 1.4715
C4A C 0.68089(12) -0.0479(2) 1.51806(14)
C5A C 0.74640(12) -0.0361(3) 1.51162(15)
H2A H 0.7808 -0.0911 1.5442
C6A C 0.76106(11) 0.0570(2) 1.45708(14)
C7A C 0.70983(11) 0.1391(2) 1.40752(13)
H3A H 0.7196 0.2035 1.3718
C8A C 0.84399(11) 0.1485(2) 1.39754(15)
H4A H 0.8416 0.2412 1.4149
H5A H 0.8123 0.1369 1.3415
C9A C 0.91536(10) 0.1151(2) 1.39643(13)
C10A C 0.97244(12) 0.1776(2) 1.44993(15)
H6A H 0.9676 0.2428 1.4882
C11A C 1.03610(12) 0.1419(3) 1.44555(16)
H7A H 1.0749 0.1830 1.4806
C12A C 1.04170(10) 0.0448(2) 1.38873(14)
H8A H 1.0849 0.0209 1.3862
C13A C 0.92569(10) 0.0188(2) 1.34140(13)
H9A H 0.8877 -0.0236 1.3056
C14A C 0.62275(15) -0.1240(3) 1.61733(18)
H10A H 0.6175 -0.2059 1.6469
H11A H 0.5791 -0.1037 1.5767
C15A C 0.64191(17) -0.0109(3) 1.68038(17)
C16A C 0.5924(2) 0.0493(3) 1.7089(2)
H12A H 0.5473 0.0221 1.6868
C17A C 0.6079(4) 0.1475(4) 1.7688(3)
H13A H 0.5744 0.1878 1.7883
C18A C 0.6752(5) 0.1849(5) 1.7993(3)
H14A H 0.6867 0.2516 1.8406
C19A C 0.7095(2) 0.0313(4) 1.7128(2)
H15A H 0.7428 -0.0090 1.6929
N1B N 0.51264(8) 0.48289(18) 1.16334(11)
N1C N 0.48736(8) 0.48289(18) 1.33666(11)
N1A N 0.98736(8) -0.01711(18) 1.33666(11)
N2A N 0.7279(3) 0.1275(5) 1.7715(2)
O1A O 0.60186(7) 0.28938(17) 1.30495(10)
O2A O 0.52719(8) 0.18532(17) 1.35419(11)
O3A O 0.82730(8) 0.0595(2) 1.45609(11)
O4A O 0.67171(10) -0.14670(19) 1.57284(12)
loop_
_geom_bond_atom_site_label_1
_geom_bond_atom_site_label_2
_geom_bond_site_symmetry_1
_geom_bond_site_symmetry_2
Co1 O1 1_555 1_555
C1 C2 1_555 1_555
C2 C3 1_555 1_555
C3 H1 1_555 1_555
C4 C3 1_555 1_555
C5 C4 1_555 1_555
H2 C5 1_555 1_555
C6 C5 1_555 1_555
C7 C2 1_555 1_555
H3 C7 1_555 1_555
C8 H4 1_555 1_555
H5 C8 1_555 1_555
C9 C8 1_555 1_555
C10 C9 1_555 1_555
H6 C10 1_555 1_555
C11 C10 1_555 1_555
H7 C11 1_555 1_555
C12 C11 1_555 1_555
H8 C12 1_555 1_555
C13 C9 1_555 1_555
H9 C13 1_555 1_555
C14 H10 1_555 1_555
H11 C14 1_555 1_555
C15 C14 1_555 1_555
C16 C15 1_555 1_555
H12 C16 1_555 1_555
C17 C16 1_555 1_555
H13 C17 1_555 1_555
C18 C17 1_555 1_555
H14 C18 1_555 1_555
C19 C15 1_555 1_555
H15 C19 1_555 1_555
N1 C12 1_555 1_555
N2 C18 1_555 1_555
O1 C1 1_555 1_555
O2 Co1 1_555 1_555
O3 C6 1_555 1_555
O4 C4 1_555 1_555
Co1B N1 1_555 1_555
Co1B_2 N1A 1_555 1_555
C1A C2A 1_555 1_555
C2A C3A 1_555 1_555
C3A H1A 1_555 1_555
C4A C3A 1_555 1_555
C5A C4A 1_555 1_555
H2A C5A 1_555 1_555
C6A C5A 1_555 1_555
C7A C2A 1_555 1_555
H3A C7A 1_555 1_555
C8A H4A 1_555 1_555
H5A C8A 1_555 1_555
C9A C8A 1_555 1_555
C10A C9A 1_555 1_555
H6A C10A 1_555 1_555
C11A C10A 1_555 1_555
H7A C11A 1_555 1_555
C12A C11A 1_555 1_555
H8A C12A 1_555 1_555
C13A C9A 1_555 1_555
H9A C13A 1_555 1_555
C14A H10A 1_555 1_555
H11A C14A 1_555 1_555
C15A C14A 1_555 1_555
C16A C15A 1_555 1_555
H12A C16A 1_555 1_555
C17A C16A 1_555 1_555
H13A C17A 1_555 1_555
C18A C17A 1_555 1_555
H14A C18A 1_555 1_555
C19A C15A 1_555 1_555
H15A C19A 1_555 1_555
N1B Co1 1_555 1_555
N1C Co1 1_555 1_555
N1A C12A 1_555 1_555
N2A C18A 1_555 1_555
O1A Co1 1_555 1_555
O2A Co1 1_555 1_555
O3A C6A 1_555 1_555
O4A C4A 1_555 1_555
C1 O2 1_555 1_555
C6 C7 1_555 1_555
C8 O3 1_555 1_555
C13 N1 1_555 1_555
C14 O4 1_555 1_555
C19 N2 1_555 1_555
C1A O1A 1_555 1_555
C1A O2A 1_555 1_555
C6A C7A 1_555 1_555
C8A O3A 1_555 1_555
C13A N1A 1_555 1_555
C14A O4A 1_555 1_555
C19A N2A 1_555 1_555

#END
