
#######################################################################
#
#                 Cambridge Crystallographic Data Centre
#                                CCDC 
#
#######################################################################
#
# If this CIF has been generated from an entry in the Cambridge 
# Structural Database, then it will include bibliographic, chemical, 
# crystal, experimental, refinement or atomic coordinate data resulting 
# from the CCDC's data processing and validation procedures.
#
#######################################################################

data_IGIPOE01
_symmetry_cell_setting           monoclinic
_symmetry_space_group_name_H-M   'C 2/c'
_symmetry_Int_Tables_number      15
_space_group_name_Hall           '-C 2yn'
loop_
_symmetry_equiv_pos_site_id
_symmetry_equiv_pos_as_xyz
1 x,y,z
2 -x,y,1/2-z
3 1/2+x,1/2+y,z
4 1/2-x,1/2+y,1/2-z
5 -x,-y,-z
6 x,-y,1/2+z
7 1/2-x,1/2-y,-z
8 1/2+x,1/2-y,1/2+z
_cell_length_a                   20.4381(7)
_cell_length_b                   9.8231(3)
_cell_length_c                   16.4244(5)
_cell_angle_alpha                90
_cell_angle_beta                 106.708(3)
_cell_angle_gamma                90
_cell_volume                     3158.24
loop_
_atom_site_label
_atom_site_type_symbol
_atom_site_fract_x
_atom_site_fract_y
_atom_site_fract_z
Co1 Co 0.0000 0.33723(6) -0.2500
O1 O 0.10168(10) 0.2884(2) -0.19506(13)
O2 O 0.02637(10) 0.1824(2) -0.14590(13)
O3 O 0.32795(10) 0.0615(2) -0.04244(14)
O4 O 0.17202(11) -0.1520(2) 0.07298(14)
N1 N 0.48779(12) -0.0176(2) -0.16305(15)
N2 N 0.2348(3) 0.1190(4) 0.2709(3)
C1 C 0.08730(15) 0.2019(3) -0.14568(19)
C2 C 0.14372(15) 0.1217(3) -0.08696(18)
C3 C 0.20973(15) 0.1395(3) -0.09152(18)
H1 H 0.2194 0.2053 -0.1270
C4 C 0.26127(15) 0.0571(3) -0.04210(19)
C5 C 0.24646(16) -0.0383(3) 0.0127(2)
H2 H 0.2810 -0.0936 0.0455
C6 C 0.18075(16) -0.0514(3) 0.0187(2)
C7 C 0.12856(16) 0.0276(3) -0.03176(19)
H3 H 0.0840 0.0179 -0.0288
C8 C 0.34421(14) 0.1515(3) -0.10202(19)
H4 H 0.3417 0.2454 -0.0849
H5 H 0.3124 0.1391 -0.1581
C9 C 0.41531(15) 0.1176(3) -0.10317(19)
C10 C 0.47280(15) 0.1801(3) -0.04892(19)
H6 H 0.4680 0.2468 -0.0108
C11 C 0.53710(16) 0.1413(3) -0.0527(2)
H7 H 0.5761 0.1809 -0.0166
C12 C 0.54241(15) 0.0436(3) -0.11041(19)
H8 H 0.5857 0.0188 -0.1131
C13 C 0.42551(14) 0.0211(3) -0.15887(18)
H9 H 0.3873 -0.0197 -0.1957
C14 C 0.12278(18) -0.1282(3) 0.1186(2)
H10 H 0.1173 -0.2108 0.1484
H11 H 0.0790 -0.1070 0.0784
C15 C 0.1430(2) -0.0145(4) 0.1813(2)
C16 C 0.0944(3) 0.0494(4) 0.2108(2)
H12 H 0.0486 0.0255 0.1895
C17 C 0.1144(4) 0.1516(4) 0.2735(3)
H13 H 0.0838 0.1976 0.2961
C18 C 0.1869(3) 0.1776(4) 0.2990(3)
H14 H 0.2021 0.2441 0.3406
C19 C 0.2107(2) 0.0262(4) 0.2127(2)
H15 H 0.2422 -0.0168 0.1902
Co1B Co 0.5000 -0.16277(6) -0.2500
Co1B_2 Co -0.5000 -0.16277(6) -0.2500
O1A O -0.10168(10) 0.2884(2) -0.30494(13)
O2A O -0.02637(10) 0.1824(2) -0.35410(13)
O3A O -0.32795(10) 0.0615(2) -0.45756(14)
O4A O -0.17202(11) -0.1520(2) -0.57298(14)
N1A N -0.48779(12) -0.0176(2) -0.33695(15)
N1B N -0.01221(12) 0.4824(2) -0.16305(15)
N1C N 0.01221(12) 0.4824(2) -0.33695(15)
N2A N -0.2348(3) 0.1190(4) -0.7709(3)
C1A C -0.08730(15) 0.2019(3) -0.35432(19)
C2A C -0.14372(15) 0.1217(3) -0.41304(18)
C3A C -0.20973(15) 0.1395(3) -0.40848(18)
H1A H -0.2194 0.2053 -0.3730
C4A C -0.26127(15) 0.0571(3) -0.45790(19)
C5A C -0.24646(16) -0.0383(3) -0.5127(2)
H2A H -0.2810 -0.0936 -0.5455
C6A C -0.18075(16) -0.0514(3) -0.5187(2)
C7A C -0.12856(16) 0.0276(3) -0.46824(19)
H3A H -0.0840 0.0179 -0.4712
C8A C -0.34421(14) 0.1515(3) -0.39798(19)
H4A H -0.3417 0.2454 -0.4151
H5A H -0.3124 0.1391 -0.3419
C9A C -0.41531(15) 0.1176(3) -0.39683(19)
C10A C -0.47280(15) 0.1801(3) -0.45108(19)
H6A H -0.4680 0.2468 -0.4892
C11A C -0.53710(16) 0.1413(3) -0.4473(2)
H7A H -0.5761 0.1809 -0.4834
C12A C -0.54241(15) 0.0436(3) -0.38959(19)
H8A H -0.5857 0.0188 -0.3869
C13A C -0.42551(14) 0.0211(3) -0.34113(18)
H9A H -0.3873 -0.0197 -0.3043
C14A C -0.12278(18) -0.1282(3) -0.6186(2)
H10A H -0.1173 -0.2108 -0.6484
H11A H -0.0790 -0.1070 -0.5784
C15A C -0.1430(2) -0.0145(4) -0.6813(2)
C16A C -0.0944(3) 0.0494(4) -0.7108(2)
H12A H -0.0486 0.0255 -0.6895
C17A C -0.1144(4) 0.1516(4) -0.7735(3)
H13A H -0.0838 0.1976 -0.7961
C18A C -0.1869(3) 0.1776(4) -0.7990(3)
H14A H -0.2021 0.2441 -0.8406
C19A C -0.2107(2) 0.0262(4) -0.7127(2)
H15A H -0.2422 -0.0168 -0.6902
loop_
_geom_bond_atom_site_label_1
_geom_bond_atom_site_label_2
_geom_bond_site_symmetry_1
_geom_bond_site_symmetry_2
Co1 O1 1_555 1_555
O1 C1 1_555 1_555
O2 Co1 1_555 1_555
O3 C4 1_555 1_555
O4 C6 1_555 1_555
N1 C12 1_555 1_555
N2 C18 1_555 1_555
C1 O2 1_555 1_555
C2 C1 1_555 1_555
C3 C2 1_555 1_555
H1 C3 1_555 1_555
C4 C3 1_555 1_555
C5 C4 1_555 1_555
H2 C5 1_555 1_555
C6 C5 1_555 1_555
C7 C2 1_555 1_555
H3 C7 1_555 1_555
C8 O3 1_555 1_555
H4 C8 1_555 1_555
H5 C8 1_555 1_555
C9 C8 1_555 1_555
C10 C9 1_555 1_555
H6 C10 1_555 1_555
C11 C10 1_555 1_555
H7 C11 1_555 1_555
C12 C11 1_555 1_555
H8 C12 1_555 1_555
C13 N1 1_555 1_555
H9 C13 1_555 1_555
C14 O4 1_555 1_555
H10 C14 1_555 1_555
H11 C14 1_555 1_555
C15 C14 1_555 1_555
C16 C15 1_555 1_555
H12 C16 1_555 1_555
C17 C16 1_555 1_555
H13 C17 1_555 1_555
C18 C17 1_555 1_555
H14 C18 1_555 1_555
C19 N2 1_555 1_555
H15 C19 1_555 1_555
Co1B N1 1_555 1_555
Co1B_2 N1A 1_555 1_555
O1A Co1 1_555 1_555
O2A Co1 1_555 1_555
O3A C4A 1_555 1_555
O4A C6A 1_555 1_555
N1A C12A 1_555 1_555
N1B Co1 1_555 1_555
N1C Co1 1_555 1_555
N2A C18A 1_555 1_555
C1A O1A 1_555 1_555
C2A C1A 1_555 1_555
C3A C2A 1_555 1_555
H1A C3A 1_555 1_555
C4A C3A 1_555 1_555
C5A C4A 1_555 1_555
H2A C5A 1_555 1_555
C6A C5A 1_555 1_555
C7A C2A 1_555 1_555
H3A C7A 1_555 1_555
C8A O3A 1_555 1_555
H4A C8A 1_555 1_555
H5A C8A 1_555 1_555
C9A C8A 1_555 1_555
C10A C9A 1_555 1_555
H6A C10A 1_555 1_555
C11A C10A 1_555 1_555
H7A C11A 1_555 1_555
C12A C11A 1_555 1_555
H8A C12A 1_555 1_555
C13A N1A 1_555 1_555
H9A C13A 1_555 1_555
C14A O4A 1_555 1_555
H10A C14A 1_555 1_555
H11A C14A 1_555 1_555
C15A C14A 1_555 1_555
C16A C15A 1_555 1_555
H12A C16A 1_555 1_555
C17A C16A 1_555 1_555
H13A C17A 1_555 1_555
C18A C17A 1_555 1_555
H14A C18A 1_555 1_555
C19A N2A 1_555 1_555
H15A C19A 1_555 1_555
C6 C7 1_555 1_555
C9 C13 1_555 1_555
C15 C19 1_555 1_555
O2A C1A 1_555 1_555
C6A C7A 1_555 1_555
C9A C13A 1_555 1_555
C15A C19A 1_555 1_555

#END
