
#######################################################################
#
#                 Cambridge Crystallographic Data Centre
#                                CCDC 
#
#######################################################################
#
# If this CIF has been generated from an entry in the Cambridge 
# Structural Database, then it will include bibliographic, chemical, 
# crystal, experimental, refinement or atomic coordinate data resulting 
# from the CCDC's data processing and validation procedures.
#
#######################################################################

data_IGISAU
_symmetry_cell_setting           monoclinic
_symmetry_space_group_name_H-M   'P 21/c'
_symmetry_Int_Tables_number      14
_space_group_name_Hall           '-P 2ybc'
loop_
_symmetry_equiv_pos_site_id
_symmetry_equiv_pos_as_xyz
1 x,y,z
2 -x,1/2+y,1/2-z
3 -x,-y,-z
4 x,1/2-y,1/2+z
_cell_length_a                   10.742(3)
_cell_length_b                   9.442(3)
_cell_length_c                   8.491(2)
_cell_angle_alpha                90
_cell_angle_beta                 97.535(4)
_cell_angle_gamma                90
_cell_volume                     853.771
loop_
_atom_site_label
_atom_site_type_symbol
_atom_site_fract_x
_atom_site_fract_y
_atom_site_fract_z
Zn1 Zn 0.5000 0.5000 0.5000
K1 K 0.87650(3) 0.70372(3) 0.49056(4)
O1 O 0.82364(12) 0.96181(13) 0.34457(15)
O2 O 0.93869(12) 0.92401(14) 0.71591(16)
N1 N 0.67666(12) 0.38850(12) 0.54466(14)
N2 N 0.78639(12) 0.41782(13) 0.48445(15)
N3 N 0.85535(13) 0.30377(13) 0.48936(16)
N4 N 0.79497(12) 0.19478(13) 0.55385(16)
N5 N 0.60073(13) 0.17480(13) 0.65547(16)
N6 N 0.44116(11) 0.16858(12) 0.82621(14)
N7 N 0.35007(12) 0.26144(13) 0.85585(15)
N8 N 0.35763(12) 0.37516(12) 0.77046(15)
N9 N 0.45310(11) 0.36146(12) 0.68123(14)
C1 C 0.68752(13) 0.25192(14) 0.58603(17)
C2 C 0.50189(13) 0.23383(14) 0.71862(16)
H1 H 0.813(3) 1.025(2) 0.409(3)
H2 H 0.7633(18) 0.968(3) 0.273(2)
H3 H 0.891(2) 0.994(2) 0.694(4)
H4 H 1.0109(12) 0.952(2) 0.707(3)
H5 H 0.6241(18) 0.094(2) 0.683(2)
K1B K 0.12350(3) 0.29628(3) 0.50944(4)
O1B O 0.17636(12) 0.03819(13) 0.65543(15)
O2B O 0.06131(12) 0.07599(14) 0.28409(16)
N1B N 0.32334(12) 0.61150(12) 0.45534(14)
N2B N 0.21361(12) 0.58218(13) 0.51555(15)
N3B N 0.14465(13) 0.69623(13) 0.51064(16)
N4B N 0.20503(12) 0.80522(13) 0.44615(16)
N5B N 0.39927(13) 0.82520(13) 0.34453(16)
N6B N 0.55884(11) 0.83142(12) 0.17379(14)
N7B N 0.64993(12) 0.73856(13) 0.14415(15)
N8B N 0.64237(12) 0.62484(12) 0.22954(15)
N9B N 0.54690(11) 0.63854(12) 0.31877(14)
C1B C 0.31248(13) 0.74808(14) 0.41397(17)
C2B C 0.49811(13) 0.76617(14) 0.28138(16)
H1B H 0.187(3) -0.025(2) 0.591(3)
H2B H 0.2367(18) 0.032(3) 0.727(2)
H3B H 0.109(2) 0.006(2) 0.306(4)
H4B H -0.0109(12) 0.048(2) 0.293(3)
H5B H 0.3759(18) 0.906(2) 0.317(2)
Zn1A Zn 0.5000 0.0000 1.0000
Zn1A_2 Zn 0.5000 1.0000 0.0000
K1_2 K -0.12350(3) 0.70372(3) 0.49056(4)
K1A K 0.12350(3) 0.20372(3) 0.00944(4)
K1A_2 K 0.12350(3) 0.20372(3) 1.00944(4)
K1B_2 K 1.12350(3) 0.29628(3) 0.50944(4)
K1C K 0.87650(3) 0.79628(3) -0.00944(4)
K1C_2 K 0.87650(3) 0.79628(3) 0.99056(4)
O2A O 0.06131(12) 0.42401(14) 0.78409(16)
O2C O 0.93869(12) 0.57599(14) 0.21591(16)
N3_2 N -0.14465(13) 0.30377(13) 0.48936(16)
N3B_2 N 1.14465(13) 0.69623(13) 0.51064(16)
N6A N 0.55884(11) 0.66858(12) 0.67379(14)
N6C N 0.44116(11) 0.33142(12) 0.32621(14)
N7A N 0.64993(12) 0.76144(13) 0.64415(15)
N7C N 0.35007(12) 0.23856(13) 0.35585(15)
loop_
_geom_bond_atom_site_label_1
_geom_bond_atom_site_label_2
_geom_bond_site_symmetry_1
_geom_bond_site_symmetry_2
Zn1 N1 1_555 1_555
K1 O1 1_555 1_555
O1 H1 1_555 1_555
O2 K1 1_555 1_555
N1 N2 1_555 1_555
N2 K1 1_555 1_555
N3 N2 1_555 1_555
N4 N3 1_555 1_555
N5 C1 1_555 1_555
N6 N7 1_555 1_555
N7 N8 1_555 1_555
N8 N9 1_555 1_555
N9 Zn1 1_555 1_555
C1 N1 1_555 1_555
C2 N5 1_555 1_555
H2 O1 1_555 1_555
H3 O2 1_555 1_555
H4 O2 1_555 1_555
H5 N5 1_555 1_555
K1B N8 1_555 1_555
O1B K1B 1_555 1_555
O2B K1B 1_555 1_555
N1B Zn1 1_555 1_555
N2B K1B 1_555 1_555
N3B N2B 1_555 1_555
N4B N3B 1_555 1_555
N5B C1B 1_555 1_555
N6B N7B 1_555 1_555
N7B N8B 1_555 1_555
N8B K1 1_555 1_555
N9B Zn1 1_555 1_555
C1B N1B 1_555 1_555
C2B N5B 1_555 1_555
H1B O1B 1_555 1_555
H2B O1B 1_555 1_555
H3B O2B 1_555 1_555
H4B O2B 1_555 1_555
H5B N5B 1_555 1_555
Zn1A N6 1_555 1_555
Zn1A_2 N6B 1_555 1_555
K1_2 N3B 1_555 1_555
K1A O2B 1_555 1_555
K1A_2 N7 1_555 1_555
K1B_2 N3 1_555 1_555
K1C N7B 1_555 1_555
K1C_2 O2 1_555 1_555
O2A K1B 1_555 1_555
O2C K1 1_555 1_555
N3_2 K1B 1_555 1_555
N3B_2 K1 1_555 1_555
N6A Zn1 1_555 1_555
N6C Zn1 1_555 1_555
N7A K1 1_555 1_555
N7C K1B 1_555 1_555
N4 C1 1_555 1_555
N6 C2 1_555 1_555
N9 C2 1_555 1_555
N1B N2B 1_555 1_555
N4B C1B 1_555 1_555
N6B C2B 1_555 1_555
N8B N9B 1_555 1_555
N9B C2B 1_555 1_555
K1A_2 O2A 1_555 1_555
K1C O2C 1_555 1_555
N6A N7A 1_555 1_555
N6C N7C 1_555 1_555

#END
