
#######################################################################
#
#                 Cambridge Crystallographic Data Centre
#                                CCDC 
#
#######################################################################
#
# If this CIF has been generated from an entry in the Cambridge 
# Structural Database, then it will include bibliographic, chemical, 
# crystal, experimental, refinement or atomic coordinate data resulting 
# from the CCDC's data processing and validation procedures.
#
#######################################################################

data_IGORON
_symmetry_cell_setting           monoclinic
_symmetry_space_group_name_H-M   'C 2/c'
_symmetry_Int_Tables_number      15
_space_group_name_Hall           '-C 2yn'
loop_
_symmetry_equiv_pos_site_id
_symmetry_equiv_pos_as_xyz
1 x,y,z
2 -x,y,1/2-z
3 1/2+x,1/2+y,z
4 1/2-x,1/2+y,1/2-z
5 -x,-y,-z
6 x,-y,1/2+z
7 1/2-x,1/2-y,-z
8 1/2+x,1/2-y,1/2+z
_cell_length_a                   25.0710(8)
_cell_length_b                   25.1395(8)
_cell_length_c                   14.1925(5)
_cell_angle_alpha                90
_cell_angle_beta                 114.804(3)
_cell_angle_gamma                90
_cell_volume                     8119.94
loop_
_atom_site_label
_atom_site_type_symbol
_atom_site_fract_x
_atom_site_fract_y
_atom_site_fract_z
Cu1 Cu 0.28921(4) -0.11277(3) 0.38511(6)
Cu2 Cu 0.14729(3) 0.02221(3) 0.38192(6)
Cu3 Cu 0.27436(3) 0.23370(3) 0.38594(6)
Cu4 Cu 0.41482(3) 0.09790(3) 0.38883(6)
Cu5 Cu 0.24240(3) 0.42711(3) 0.38500(6)
Cu6 Cu 0.45402(3) 0.55327(3) 0.38578(7)
Cu7 Cu 0.17910(3) 0.19407(3) 0.10784(6)
Cu8 Cu 0.39366(3) 0.06929(3) 0.12299(6)
C1 C 0.2595(3) 0.3062(3) 0.3863(5)
C2 C 0.3669(3) 0.1521(2) 0.4002(5)
C3 C 0.1986(2) -0.0325(2) 0.3879(5)
C4 C 0.0269(3) 0.0395(2) 0.3851(5)
C5 C 0.1925(3) 0.3150(3) 0.1065(5)
C6 C 0.1236(3) 0.1428(2) 0.0974(5)
C7 C 0.1881(3) 0.4781(2) 0.3863(5)
C8 C 0.4635(3) 0.0853(2) 0.1126(5)
N1 N 0.2502(2) 0.3498(2) 0.3855(5)
N2 N 0.3364(2) 0.1850(2) 0.4030(4)
N3 N 0.2305(2) -0.06576(19) 0.3875(4)
N4 N 0.0713(2) 0.0309(2) 0.3818(4)
N5 N 0.1821(2) 0.2714(2) 0.1024(5)
N6 N 0.0910(2) 0.1109(2) 0.0968(4)
N7 N 0.1560(2) 0.5115(2) 0.3819(4)
N8 N 0.5080(2) 0.0943(2) 0.1108(4)
N9 N 0.3186(2) 0.4486(2) 0.3748(4)
N10 N 0.3989(2) 0.44022(18) 0.3528(4)
N11 N 0.3927(2) 0.49379(19) 0.3625(4)
N12 N 0.3553(2) 0.18267(19) 0.1643(4)
N13 N 0.2618(2) 0.1748(2) 0.1275(4)
N14 N 0.3422(2) 0.13040(19) 0.1447(4)
N15 N 0.3954(2) -0.06473(18) 0.3500(4)
N16 N 0.3943(2) 0.01974(19) 0.3820(4)
N17 N 0.3458(2) -0.05731(19) 0.3661(4)
N18 N 0.1515(2) 0.18565(19) 0.3398(4)
N19 N 0.2077(2) 0.17690(19) 0.3523(4)
N20 N 0.1659(2) 0.09996(19) 0.3650(4)
C9 C 0.3439(3) 0.4962(2) 0.3770(5)
H1 H 0.3284 0.5280 0.3878
C10 C 0.3547(3) 0.4153(2) 0.3604(5)
H2 H 0.3497 0.3786 0.3561
C11 C 0.4491(3) 0.4197(2) 0.3366(6)
H3 H 0.4842 0.4216 0.4012
H4 H 0.4553 0.4417 0.2859
C12 C 0.4394(2) 0.3635(2) 0.2994(5)
C13 C 0.4558(3) 0.3215(3) 0.3706(5)
H5 H 0.4728 0.3284 0.4415
C14 C 0.4466(3) 0.2695(3) 0.3348(6)
H6 H 0.4568 0.2417 0.3824
C15 C 0.4155(3) 0.3517(3) 0.1952(5)
H7 H 0.4038 0.3790 0.1465
C16 C 0.4088(3) 0.2990(3) 0.1625(5)
H8 H 0.3943 0.2916 0.0920
C17 C 0.4230(3) 0.2583(2) 0.2314(6)
C18 C 0.4149(2) 0.2021(2) 0.1917(5)
H9 H 0.4233 0.2004 0.1310
H10 H 0.4426 0.1792 0.2445
C19 C 0.3071(3) 0.2073(3) 0.1534(5)
H11 H 0.3049 0.2438 0.1628
C20 C 0.2861(3) 0.1276(3) 0.1234(5)
H12 H 0.2650 0.0960 0.1071
C21 C 0.3479(3) -0.0056(3) 0.3853(5)
H13 H 0.3195 0.0118 0.3998
C22 C 0.4228(3) -0.0195(3) 0.3585(5)
H14 H 0.4572 -0.0152 0.3496
C23 C 0.4091(3) -0.1182(2) 0.3249(5)
H15 H 0.3739 -0.1340 0.2725
H16 H 0.4220 -0.1404 0.3865
C24 C 0.4560(3) -0.1170(2) 0.2859(5)
C25 C 0.5140(3) -0.1171(3) 0.3523(5)
H17 H 0.5241 -0.1171 0.4233
C26 C 0.4417(3) -0.1172(3) 0.1805(6)
H18 H 0.4026 -0.1174 0.1326
C27 C 0.2134(3) 0.1259(3) 0.3681(5)
H19 H 0.2485 0.1084 0.3808
C28 C 0.1277(3) 0.1401(2) 0.3472(5)
H20 H 0.0894 0.1363 0.3410
C29 C 0.1257(3) 0.2395(2) 0.3199(6)
H21 H 0.1349 0.2567 0.2674
H22 H 0.1430 0.2604 0.3830
C30 C 0.0604(3) 0.2381(2) 0.2842(6)
C31 C 0.0361(3) 0.2384(3) 0.3533(6)
H23 H 0.0601 0.2388 0.4241
C32 C 0.0243(3) 0.2380(3) 0.1814(6)
H24 H 0.0406 0.2378 0.1332
N15A N 0.6046(2) -0.06473(18) 0.1500(4)
N16A N 0.6057(2) 0.01974(19) 0.1180(4)
N17A N 0.6542(2) -0.05731(19) 0.1339(4)
C21A C 0.6521(3) -0.0056(3) 0.1147(5)
H13A H 0.6805 0.0118 0.1002
C22A C 0.5772(3) -0.0195(3) 0.1415(5)
H14A H 0.5428 -0.0152 0.1504
C23A C 0.5909(3) -0.1182(2) 0.1751(5)
H15A H 0.6261 -0.1340 0.2275
H16A H 0.5780 -0.1404 0.1135
C24A C 0.5440(3) -0.1170(2) 0.2141(5)
C25A C 0.4860(3) -0.1171(3) 0.1477(5)
H17A H 0.4759 -0.1171 0.0767
C26A C 0.5583(3) -0.1172(3) 0.3195(6)
H18A H 0.5974 -0.1174 0.3674
N18A N -0.1515(2) 0.18565(19) 0.1602(4)
N19A N -0.2077(2) 0.17690(19) 0.1477(4)
N20A N -0.1659(2) 0.09996(19) 0.1350(4)
C27A C -0.2134(3) 0.1259(3) 0.1319(5)
H19A H -0.2485 0.1084 0.1192
C28A C -0.1277(3) 0.1401(2) 0.1528(5)
H20A H -0.0894 0.1363 0.1590
C29A C -0.1257(3) 0.2395(2) 0.1801(6)
H21A H -0.1349 0.2567 0.2326
H22A H -0.1430 0.2604 0.1170
C30A C -0.0604(3) 0.2381(2) 0.2158(6)
C31A C -0.0361(3) 0.2384(3) 0.1467(6)
H23A H -0.0601 0.2388 0.0759
C32A C -0.0243(3) 0.2380(3) 0.3186(6)
H24A H -0.0406 0.2378 0.3668
Cu1A Cu -0.28921(4) -0.11277(3) 0.11489(6)
Cu2A Cu -0.14729(3) 0.02221(3) 0.11808(6)
Cu3A Cu -0.27436(3) 0.23370(3) 0.11406(6)
Cu4A Cu -0.41482(3) 0.09790(3) 0.11117(6)
Cu5A Cu -0.24240(3) 0.42711(3) 0.11500(6)
Cu6A Cu -0.45402(3) 0.55327(3) 0.11422(7)
Cu7A Cu -0.17910(3) 0.19407(3) 0.39216(6)
Cu8A Cu -0.39366(3) 0.06929(3) 0.37701(6)
C1A C -0.2595(3) 0.3062(3) 0.1137(5)
C2A C -0.3669(3) 0.1521(2) 0.0998(5)
C3A C -0.1986(2) -0.0325(2) 0.1121(5)
C4A C -0.0269(3) 0.0395(2) 0.1149(5)
C5A C -0.1925(3) 0.3150(3) 0.3935(5)
C6A C -0.1236(3) 0.1428(2) 0.4026(5)
C7A C -0.1881(3) 0.4781(2) 0.1137(5)
C8A C -0.4635(3) 0.0853(2) 0.3874(5)
N1A N -0.2502(2) 0.3498(2) 0.1145(5)
N2A N -0.3364(2) 0.1850(2) 0.0970(4)
N3A N -0.2305(2) -0.06576(19) 0.1125(4)
N4A N -0.0713(2) 0.0309(2) 0.1182(4)
N5A N -0.1821(2) 0.2714(2) 0.3976(5)
N6A N -0.0910(2) 0.1109(2) 0.4032(4)
N7A N -0.1560(2) 0.5115(2) 0.1181(4)
N8A N -0.5080(2) 0.0943(2) 0.3892(4)
N9A N -0.3186(2) 0.4486(2) 0.1252(4)
N10A N -0.3989(2) 0.44022(18) 0.1472(4)
N11A N -0.3927(2) 0.49379(19) 0.1375(4)
N12A N -0.3553(2) 0.18267(19) 0.3357(4)
N13A N -0.2618(2) 0.1748(2) 0.3725(4)
N14A N -0.3422(2) 0.13040(19) 0.3553(4)
C9A C -0.3439(3) 0.4962(2) 0.1230(5)
H1A H -0.3284 0.5280 0.1122
C10A C -0.3547(3) 0.4153(2) 0.1396(5)
H2A H -0.3497 0.3786 0.1439
C11A C -0.4491(3) 0.4197(2) 0.1634(6)
H3A H -0.4842 0.4216 0.0988
H4A H -0.4553 0.4417 0.2141
C12A C -0.4394(2) 0.3635(2) 0.2006(5)
C13A C -0.4558(3) 0.3215(3) 0.1294(5)
H5A H -0.4728 0.3284 0.0585
C14A C -0.4466(3) 0.2695(3) 0.1652(6)
H6A H -0.4568 0.2417 0.1176
C15A C -0.4155(3) 0.3517(3) 0.3048(5)
H7A H -0.4038 0.3790 0.3535
C16A C -0.4088(3) 0.2990(3) 0.3375(5)
H8A H -0.3943 0.2916 0.4080
C17A C -0.4230(3) 0.2583(2) 0.2686(6)
C18A C -0.4149(2) 0.2021(2) 0.3083(5)
H9A H -0.4233 0.2004 0.3690
H10A H -0.4426 0.1792 0.2555
C19A C -0.3071(3) 0.2073(3) 0.3466(5)
H11A H -0.3049 0.2438 0.3372
C20A C -0.2861(3) 0.1276(3) 0.3766(5)
H12A H -0.2650 0.0960 0.3929
Cu1A_2 Cu 0.71079(4) -0.11277(3) 0.11489(6)
Cu1B Cu -0.21079(4) 0.38723(3) 0.38511(6)
Cu1C Cu 0.21079(4) 0.38723(3) 0.11489(6)
Cu4_2 Cu -0.58518(3) 0.09790(3) 0.38883(6)
Cu4A_2 Cu 0.58518(3) 0.09790(3) 0.11117(6)
Cu6B Cu -0.04598(3) 0.05327(3) 0.38578(7)
Cu6C Cu 0.04598(3) 0.05327(3) 0.11422(7)
Cu8B Cu -0.10634(3) 0.56929(3) 0.12299(6)
Cu8C Cu 0.10634(3) 0.56929(3) 0.37701(6)
C4B C 0.5269(3) 0.5395(2) 0.3851(5)
C4C C -0.5269(3) 0.5395(2) 0.1149(5)
C5B C -0.3075(3) -0.1850(3) 0.1065(5)
C5C C 0.3075(3) -0.1850(3) 0.3935(5)
N6B N -0.4090(2) 0.6109(2) 0.0968(4)
N6C N 0.4090(2) 0.6109(2) 0.4032(4)
N7B N -0.3440(2) 0.0115(2) 0.3819(4)
N7C N 0.3440(2) 0.0115(2) 0.1181(4)
N8_2 N -0.4920(2) 0.0943(2) 0.1108(4)
N8A_2 N 0.4920(2) 0.0943(2) 0.3892(4)
N16A_2 N -0.3943(2) 0.01974(19) 0.1180(4)
N17A_2 N -0.3458(2) -0.05731(19) 0.1339(4)
loop_
_geom_bond_atom_site_label_1
_geom_bond_atom_site_label_2
_geom_bond_site_symmetry_1
_geom_bond_site_symmetry_2
Cu1 N3 1_555 1_555
Cu2 C3 1_555 1_555
Cu3 C1 1_555 1_555
Cu4 C2 1_555 1_555
Cu5 C7 1_555 1_555
Cu6 N11 1_555 1_555
Cu7 C6 1_555 1_555
Cu8 C8 1_555 1_555
C1 N1 1_555 1_555
C2 N2 1_555 1_555
C3 N3 1_555 1_555
C4 N4 1_555 1_555
C5 N5 1_555 1_555
C6 N6 1_555 1_555
C7 N7 1_555 1_555
C8 N8 1_555 1_555
N1 Cu5 1_555 1_555
N2 Cu3 1_555 1_555
N4 Cu2 1_555 1_555
N5 Cu7 1_555 1_555
N6 Cu6C 1_555 1_555
N7 Cu8C 1_555 1_555
N8 Cu4A_2 1_555 1_555
N9 Cu5 1_555 1_555
N10 N11 1_555 1_555
N11 C9 1_555 1_555
N12 N14 1_555 1_555
N13 Cu7 1_555 1_555
N14 Cu8 1_555 1_555
N15 N17 1_555 1_555
N16 Cu4 1_555 1_555
N17 Cu1 1_555 1_555
N18 N19 1_555 1_555
N19 Cu3 1_555 1_555
N20 Cu2 1_555 1_555
C9 N9 1_555 1_555
H1 C9 1_555 1_555
C10 N9 1_555 1_555
H2 C10 1_555 1_555
C11 N10 1_555 1_555
H3 C11 1_555 1_555
H4 C11 1_555 1_555
C12 C11 1_555 1_555
C13 C12 1_555 1_555
H5 C13 1_555 1_555
C14 C13 1_555 1_555
H6 C14 1_555 1_555
C15 C12 1_555 1_555
H7 C15 1_555 1_555
C16 C15 1_555 1_555
H8 C16 1_555 1_555
C17 C14 1_555 1_555
C18 N12 1_555 1_555
H9 C18 1_555 1_555
H10 C18 1_555 1_555
C19 N12 1_555 1_555
H11 C19 1_555 1_555
C20 N13 1_555 1_555
H12 C20 1_555 1_555
C21 N16 1_555 1_555
H13 C21 1_555 1_555
C22 N15 1_555 1_555
H14 C22 1_555 1_555
C23 N15 1_555 1_555
H15 C23 1_555 1_555
H16 C23 1_555 1_555
C24 C23 1_555 1_555
C25 C24 1_555 1_555
H17 C25 1_555 1_555
C26 C24 1_555 1_555
H18 C26 1_555 1_555
C27 N19 1_555 1_555
H19 C27 1_555 1_555
C28 N18 1_555 1_555
H20 C28 1_555 1_555
C29 N18 1_555 1_555
H21 C29 1_555 1_555
H22 C29 1_555 1_555
C30 C29 1_555 1_555
C31 C30 1_555 1_555
H23 C31 1_555 1_555
C32 C30 1_555 1_555
H24 C32 1_555 1_555
N15A N17A 1_555 1_555
N16A C21A 1_555 1_555
N17A C21A 1_555 1_555
C21A H13A 1_555 1_555
C22A N15A 1_555 1_555
H14A C22A 1_555 1_555
C23A N15A 1_555 1_555
H15A C23A 1_555 1_555
H16A C23A 1_555 1_555
C24A C23A 1_555 1_555
C25A C26 1_555 1_555
H17A C25A 1_555 1_555
C26A C25 1_555 1_555
H18A C26A 1_555 1_555
N18A N19A 1_555 1_555
N19A C27A 1_555 1_555
N20A C27A 1_555 1_555
C27A H19A 1_555 1_555
C28A N18A 1_555 1_555
H20A C28A 1_555 1_555
C29A N18A 1_555 1_555
H21A C29A 1_555 1_555
H22A C29A 1_555 1_555
C30A C29A 1_555 1_555
C31A C32 1_555 1_555
H23A C31A 1_555 1_555
C32A C31 1_555 1_555
H24A C32A 1_555 1_555
Cu1A N3A 1_555 1_555
Cu2A N20A 1_555 1_555
Cu3A N19A 1_555 1_555
Cu4A C2A 1_555 1_555
Cu5A C7A 1_555 1_555
Cu6A N11A 1_555 1_555
Cu7A C6A 1_555 1_555
Cu8A C8A 1_555 1_555
C1A Cu3A 1_555 1_555
C2A N2A 1_555 1_555
C3A Cu2A 1_555 1_555
C4A N4A 1_555 1_555
C5A N5A 1_555 1_555
C6A N6A 1_555 1_555
C7A N7A 1_555 1_555
C8A N8A 1_555 1_555
N1A Cu5A 1_555 1_555
N2A Cu3A 1_555 1_555
N3A C3A 1_555 1_555
N4A Cu2A 1_555 1_555
N5A Cu7A 1_555 1_555
N6A Cu6B 1_555 1_555
N7A Cu8B 1_555 1_555
N8A Cu4_2 1_555 1_555
N9A Cu5A 1_555 1_555
N10A N11A 1_555 1_555
N11A C9A 1_555 1_555
N12A N14A 1_555 1_555
N13A Cu7A 1_555 1_555
N14A Cu8A 1_555 1_555
C9A N9A 1_555 1_555
H1A C9A 1_555 1_555
C10A N9A 1_555 1_555
H2A C10A 1_555 1_555
C11A N10A 1_555 1_555
H3A C11A 1_555 1_555
H4A C11A 1_555 1_555
C12A C11A 1_555 1_555
C13A C12A 1_555 1_555
H5A C13A 1_555 1_555
C14A C13A 1_555 1_555
H6A C14A 1_555 1_555
C15A C12A 1_555 1_555
H7A C15A 1_555 1_555
C16A C15A 1_555 1_555
H8A C16A 1_555 1_555
C17A C14A 1_555 1_555
C18A N12A 1_555 1_555
H9A C18A 1_555 1_555
H10A C18A 1_555 1_555
C19A N12A 1_555 1_555
H11A C19A 1_555 1_555
C20A N13A 1_555 1_555
H12A C20A 1_555 1_555
Cu1A_2 N17A 1_555 1_555
Cu1B C5A 1_555 1_555
Cu1C C5 1_555 1_555
Cu4A_2 N16A 1_555 1_555
Cu6B C4 1_555 1_555
Cu6C C4A 1_555 1_555
C4B Cu6 1_555 1_555
C4C Cu6A 1_555 1_555
C5B Cu1A 1_555 1_555
C5C Cu1 1_555 1_555
N6B Cu6A 1_555 1_555
N6C Cu6 1_555 1_555
N7B Cu8A 1_555 1_555
N7C Cu8 1_555 1_555
N8_2 Cu4A 1_555 1_555
N8A_2 Cu4 1_555 1_555
N16A_2 Cu4A 1_555 1_555
N17A_2 Cu1A 1_555 1_555
N10 C10 1_555 1_555
N13 C19 1_555 1_555
N14 C20 1_555 1_555
N16 C22 1_555 1_555
N17 C21 1_555 1_555
N20 C27 1_555 1_555
N20 C28 1_555 1_555
C16 C17 1_555 1_555
C17 C18 1_555 1_555
N16A C22A 1_555 1_555
C24A C25A 1_555 1_555
C24A C26A 1_555 1_555
N20A C28A 1_555 1_555
C30A C31A 1_555 1_555
C30A C32A 1_555 1_555
C1A N1A 1_555 1_555
N10A C10A 1_555 1_555
N13A C19A 1_555 1_555
N14A C20A 1_555 1_555
C16A C17A 1_555 1_555
C17A C18A 1_555 1_555

#END
