
#######################################################################
#
#                 Cambridge Crystallographic Data Centre
#                                CCDC 
#
#######################################################################
#
# If this CIF has been generated from an entry in the Cambridge 
# Structural Database, then it will include bibliographic, chemical, 
# crystal, experimental, refinement or atomic coordinate data resulting 
# from the CCDC's data processing and validation procedures.
#
#######################################################################

data_IGORAY
_symmetry_cell_setting           orthorhombic
_symmetry_space_group_name_H-M   'P n n a'
_symmetry_Int_Tables_number      52
_space_group_name_Hall           '-P 2a 2bc'
loop_
_symmetry_equiv_pos_site_id
_symmetry_equiv_pos_as_xyz
1 x,y,z
2 1/2-x,-y,z
3 x,1/2-y,1/2-z
4 1/2-x,1/2+y,1/2-z
5 -x,-y,-z
6 1/2+x,y,-z
7 -x,1/2+y,1/2+z
8 1/2+x,1/2-y,1/2+z
_cell_length_a                   9.5874(5)
_cell_length_b                   16.2485(8)
_cell_length_c                   44.488(2)
_cell_angle_alpha                90
_cell_angle_beta                 90
_cell_angle_gamma                90
_cell_volume                     6930.38
loop_
_atom_site_label
_atom_site_type_symbol
_atom_site_fract_x
_atom_site_fract_y
_atom_site_fract_z
C1 C -0.3899(4) -0.3397(2) 0.46967(9)
C2 C -0.2931(4) -0.3910(2) 0.48332(9)
H1 H -0.2316 -0.4235 0.4715
C3 C -0.2870(4) -0.3945(2) 0.51444(9)
H2 H -0.2208 -0.4291 0.5241
C4 C -0.3780(4) -0.3472(2) 0.53151(9)
H3 H -0.3736 -0.3494 0.5528
C5 C -0.4753(4) -0.2966(2) 0.51768(9)
C6 C -0.5680(4) -0.2454(2) 0.53688(9)
C7 C -0.6645(4) -0.1864(2) 0.52203(9)
C8 C -0.7455(4) -0.1361(2) 0.54020(9)
H4 H -0.7344 -0.1380 0.5614
C9 C -0.8423(4) -0.0834(2) 0.52763(10)
H5 H -0.8970 -0.0486 0.5401
C10 C -0.8591(4) -0.0818(2) 0.49663(10)
H6 H -0.9266 -0.0464 0.4878
C11 C -0.7777(4) -0.1316(2) 0.47854(9)
C12 C -0.6761(4) -0.1839(2) 0.49053(9)
C13 C -0.5855(4) -0.2362(2) 0.47116(9)
C14 C -0.7160(4) -0.0964(2) 0.42904(10)
C15 C -0.4834(4) -0.2920(2) 0.48599(9)
C16 C -0.7473(4) -0.1156(3) 0.39697(10)
C17 C -0.8779(4) -0.1413(3) 0.38767(10)
H7 H -0.9500 -0.1461 0.4022
C18 C -0.8011(6) -0.1543(3) 0.33908(11)
H8 H -0.8190 -0.1683 0.3187
C19 C -0.6685(6) -0.1297(4) 0.34678(13)
H9 H -0.5968 -0.1275 0.3321
C20 C -0.6415(5) -0.1081(3) 0.37622(13)
H10 H -0.5520 -0.0886 0.3820
C21 C -0.4767(4) -0.3617(2) 0.42027(9)
C22 C -0.3417(4) -0.2836(3) 0.38115(9)
H11 H -0.2837 -0.2633 0.3968
C23 C -0.4518(4) -0.3353(3) 0.38866(9)
C24 C -0.5381(5) -0.3645(3) 0.36597(10)
H12 H -0.6135 -0.4004 0.3704
C25 C -0.5118(5) -0.3401(3) 0.33667(11)
H13 H -0.5702 -0.3581 0.3207
C26 C -0.3994(5) -0.2890(3) 0.33098(11)
H14 H -0.3818 -0.2729 0.3108
N1 N -0.9066(4) -0.1597(2) 0.35890(8)
N2 N -0.3135(4) -0.2610(2) 0.35271(8)
O1 O -0.3753(3) -0.33141(17) 0.43849(6)
O2 O -0.5654(3) -0.25289(18) 0.56422(6)
O3 O -0.5944(3) -0.23309(18) 0.44365(6)
O4 O -0.6215(3) -0.05463(18) 0.43745(7)
O5 O -0.8106(3) -0.13202(17) 0.44788(6)
O6 O -0.5687(3) -0.40616(19) 0.42829(7)
Ag1 Ag -0.12681(4) -0.18650(2) 0.342130(8)
O7 O 0.8667(5) -0.1767(2) 0.21049(9)
C27 C 0.9281(10) -0.1151(4) 0.21736(13)
C28 C 0.9746(9) -0.0808(3) 0.16709(12)
O8 O 0.7500 0.0000 0.07717(9)
C29 C 0.7500 0.0000 0.10456(13)
C30 C 0.7500 0.0000 0.17031(15)
C31 C 0.8618(8) -0.0427(3) 0.15296(11)
C32 C 0.8580(6) -0.0462(3) 0.12151(10)
C33 C 0.9567(6) -0.0894(3) 0.10569(11)
H15 H 0.9524 -0.0907 0.0844
C34 C 1.0625(8) -0.1310(4) 0.12044(14)
H16 H 1.1280 -0.1629 0.1094
C35 C 1.0719(9) -0.1256(4) 0.15161(15)
H17 H 1.1450 -0.1528 0.1620
O9 O 0.7500 0.0000 0.19766(12)
O10 O 0.9997(7) -0.0689(3) 0.19767(9)
N3 N 0.9362(14) -0.1036(8) 0.2991(3)
C36 C 0.9312(16) -0.1304(14) 0.2707(5)
H18 H 0.8950 -0.1838 0.2669
C37 C 1.0312(16) -0.0071(7) 0.2521(2)
H19 H 1.0617 0.0265 0.2359
C38 C 1.0417(19) 0.0203(7) 0.2810(2)
H20 H 1.0835 0.0720 0.2853
C39 C 0.9911(18) -0.0279(6) 0.3038(2)
H21 H 0.9946 -0.0074 0.3238
C40 C 0.9762(14) -0.0836(6) 0.2466(2)
C1_2 C 0.6101(4) -0.3397(2) 0.46967(9)
C2_2 C 0.7069(4) -0.3910(2) 0.48332(9)
H1_2 H 0.7684 -0.4235 0.4715
C3_2 C 0.7130(4) -0.3945(2) 0.51444(9)
H2_2 H 0.7792 -0.4291 0.5241
C4_2 C 0.6220(4) -0.3472(2) 0.53151(9)
H3_2 H 0.6264 -0.3494 0.5528
C5_2 C 0.5247(4) -0.2966(2) 0.51768(9)
C6_2 C 0.4320(4) -0.2454(2) 0.53688(9)
C7_2 C 0.3355(4) -0.1864(2) 0.52203(9)
C8_2 C 0.2545(4) -0.1361(2) 0.54020(9)
H4_2 H 0.2656 -0.1380 0.5614
C9_2 C 0.1577(4) -0.0834(2) 0.52763(10)
H5_2 H 0.1030 -0.0486 0.5401
C10_2 C 0.1409(4) -0.0818(2) 0.49663(10)
H6_2 H 0.0734 -0.0464 0.4878
C11_2 C 0.2223(4) -0.1316(2) 0.47854(9)
C12_2 C 0.3239(4) -0.1839(2) 0.49053(9)
C13_2 C 0.4145(4) -0.2362(2) 0.47116(9)
C14_2 C 0.2840(4) -0.0964(2) 0.42904(10)
C15_2 C 0.5166(4) -0.2920(2) 0.48599(9)
C16_2 C 0.2527(4) -0.1156(3) 0.39697(10)
C17_2 C 0.1221(4) -0.1413(3) 0.38767(10)
H7_2 H 0.0500 -0.1461 0.4022
C18_2 C 0.1989(6) -0.1543(3) 0.33908(11)
H8_2 H 0.1810 -0.1683 0.3187
C19_2 C 0.3315(6) -0.1297(4) 0.34678(13)
H9_2 H 0.4032 -0.1275 0.3321
C20_2 C 0.3585(5) -0.1081(3) 0.37622(13)
H10_2 H 0.4480 -0.0886 0.3820
C21_2 C 0.5233(4) -0.3617(2) 0.42027(9)
C22_2 C 0.6583(4) -0.2836(3) 0.38115(9)
H11_2 H 0.7163 -0.2633 0.3968
C23_2 C 0.5482(4) -0.3353(3) 0.38866(9)
C24_2 C 0.4619(5) -0.3645(3) 0.36597(10)
H12_2 H 0.3865 -0.4004 0.3704
C25_2 C 0.4882(5) -0.3401(3) 0.33667(11)
H13_2 H 0.4298 -0.3581 0.3207
C26_2 C 0.6006(5) -0.2890(3) 0.33098(11)
H14_2 H 0.6182 -0.2729 0.3108
N1_2 N 0.0934(4) -0.1597(2) 0.35890(8)
N1_3 N 1.0934(4) -0.1597(2) 0.35890(8)
N2_2 N 0.6865(4) -0.2610(2) 0.35271(8)
O1_2 O 0.6247(3) -0.33141(17) 0.43849(6)
O2_2 O 0.4346(3) -0.25289(18) 0.56422(6)
O3_2 O 0.4056(3) -0.23309(18) 0.44365(6)
O4_2 O 0.3785(3) -0.05463(18) 0.43745(7)
O5_2 O 0.1894(3) -0.13202(17) 0.44788(6)
O6_2 O 0.4313(3) -0.40616(19) 0.42829(7)
Ag1_2 Ag 0.87319(4) -0.18650(2) 0.342130(8)
Ag1_3 Ag -1.12681(4) -0.18650(2) 0.342130(8)
Ag1A Ag 0.62681(4) 0.18650(2) 0.342130(8)
O7A O 0.6333(5) 0.1767(2) 0.21049(9)
C27A C 0.5719(10) 0.1151(4) 0.21736(13)
C28A C 0.5254(9) 0.0808(3) 0.16709(12)
C31A C 0.6382(8) 0.0427(3) 0.15296(11)
C32A C 0.6420(6) 0.0462(3) 0.12151(10)
C33A C 0.5433(6) 0.0894(3) 0.10569(11)
H15A H 0.5476 0.0907 0.0844
C34A C 0.4375(8) 0.1310(4) 0.12044(14)
H16A H 0.3720 0.1629 0.1094
C35A C 0.4281(9) 0.1256(4) 0.15161(15)
H17A H 0.3550 0.1528 0.1620
O10A O 0.5003(7) 0.0689(3) 0.19767(9)
N3_2 N -0.0638(14) -0.1036(8) 0.2991(3)
N3A N 0.5638(14) 0.1036(8) 0.2991(3)
C36A C 0.5688(16) 0.1304(14) 0.2707(5)
H18A H 0.6050 0.1838 0.2669
C37A C 0.4688(16) 0.0071(7) 0.2521(2)
H19A H 0.4383 -0.0265 0.2359
C38A C 0.4583(19) -0.0203(7) 0.2810(2)
H20A H 0.4165 -0.0720 0.2853
C39A C 0.5089(18) 0.0279(6) 0.3038(2)
H21A H 0.5054 0.0074 0.3238
C40A C 0.5238(14) 0.0836(6) 0.2466(2)
N4 N -0.7500 0.0000 0.1833(8)
C41 C -0.7500 0.0000 0.2090(8)
C42 C -0.7500 0.0000 0.2422(9)
B2 B -0.701(3) 0.7500 0.2500
F5 F -0.6464(11) 0.7879(7) 0.2729(2)
F6 F -0.710(2) 0.8151(11) 0.2281(4)
F5B F -0.6464(11) 0.7121(7) 0.2271(2)
F6B F -0.710(2) 0.6849(11) 0.2719(4)
B1? B -0.2500 0.0000 0.38469(15)
F1? F -0.2852(8) -0.0715(5) 0.37317(17)
F2? F -0.1520(7) -0.0063(5) 0.40854(15)
F3? F -0.3483(9) 0.0542(6) 0.3906(2)
F4? F -0.1606(9) 0.0393(5) 0.36182(19)
F7? F -0.817(2) 0.7236(15) 0.2353(5)
F8? F -0.590(3) 0.693(2) 0.2544(11)
C43? C -0.3921(15) 0.0772(6) 0.2499(2)
C44? C -0.3755(16) 0.1294(14) 0.2743(5)
C45? C -0.3813(15) 0.0206(8) 0.3069(2)
C46? C -0.3996(15) -0.0360(7) 0.2841(2)
C47? C -0.4020(15) -0.0062(7) 0.2547(2)
H22? H -0.3681 0.1869 0.2708
H23? H -0.3770 0.0004 0.3270
H24? H -0.4101 -0.0930 0.2882
H25? H -0.4104 -0.0430 0.2382
N5? N -0.3693(14) 0.1016(9) 0.3029(3)
loop_
_geom_bond_atom_site_label_1
_geom_bond_atom_site_label_2
_geom_bond_site_symmetry_1
_geom_bond_site_symmetry_2
C1 C2 1_555 1_555
C2 H1 1_555 1_555
C3 C2 1_555 1_555
H2 C3 1_555 1_555
C4 C3 1_555 1_555
H3 C4 1_555 1_555
C5 C4 1_555 1_555
C6 C5 1_555 1_555
C7 C6 1_555 1_555
C8 C7 1_555 1_555
H4 C8 1_555 1_555
C9 C8 1_555 1_555
H5 C9 1_555 1_555
C10 C9 1_555 1_555
H6 C10 1_555 1_555
C11 C10 1_555 1_555
C12 C7 1_555 1_555
C13 C12 1_555 1_555
C14 C16 1_555 1_555
C15 C1 1_555 1_555
C16 C17 1_555 1_555
C17 H7 1_555 1_555
C18 H8 1_555 1_555
C19 C18 1_555 1_555
H9 C19 1_555 1_555
C20 C16 1_555 1_555
H10 C20 1_555 1_555
C21 C23 1_555 1_555
C22 H11 1_555 1_555
C23 C22 1_555 1_555
C24 C23 1_555 1_555
H12 C24 1_555 1_555
C25 C24 1_555 1_555
H13 C25 1_555 1_555
C26 C25 1_555 1_555
H14 C26 1_555 1_555
N1 C17 1_555 1_555
N2 C22 1_555 1_555
O1 C1 1_555 1_555
O2 C6 1_555 1_555
O3 C13 1_555 1_555
O4 C14 1_555 1_555
O5 C11 1_555 1_555
O6 C21 1_555 1_555
Ag1 N2 1_555 1_555
O7 C27 1_555 1_555
C27 O10 1_555 1_555
C28 C31 1_555 1_555
O8 C29 1_555 1_555
C29 C32 1_555 1_555
C30 C31 1_555 1_555
C31 C32 1_555 1_555
C32 C33 1_555 1_555
C33 H15 1_555 1_555
C34 C33 1_555 1_555
H16 C34 1_555 1_555
C35 C28 1_555 1_555
H17 C35 1_555 1_555
O9 C30 1_555 1_555
O10 C28 1_555 1_555
N3 C36 1_555 1_555
C36 H18 1_555 1_555
C37 H19 1_555 1_555
C38 C37 1_555 1_555
H20 C38 1_555 1_555
C39 N3 1_555 1_555
H21 C39 1_555 1_555
C40 C27 1_555 1_555
N4 C41 1_555 1_555
C41 C42 1_555 1_555
B2 F5 1_555 1_555
F6 B2 1_555 1_555
C1_2 C2_2 1_555 1_555
C2_2 H1_2 1_555 1_555
C3_2 C2_2 1_555 1_555
H2_2 C3_2 1_555 1_555
C4_2 C3_2 1_555 1_555
H3_2 C4_2 1_555 1_555
C5_2 C4_2 1_555 1_555
C6_2 C5_2 1_555 1_555
C7_2 C6_2 1_555 1_555
C8_2 C7_2 1_555 1_555
H4_2 C8_2 1_555 1_555
C9_2 C8_2 1_555 1_555
H5_2 C9_2 1_555 1_555
C10_2 C9_2 1_555 1_555
H6_2 C10_2 1_555 1_555
C11_2 C10_2 1_555 1_555
C12_2 C7_2 1_555 1_555
C13_2 C12_2 1_555 1_555
C14_2 C16_2 1_555 1_555
C15_2 C1_2 1_555 1_555
C16_2 C17_2 1_555 1_555
C17_2 H7_2 1_555 1_555
C18_2 H8_2 1_555 1_555
C19_2 C18_2 1_555 1_555
H9_2 C19_2 1_555 1_555
C20_2 C16_2 1_555 1_555
H10_2 C20_2 1_555 1_555
C21_2 C23_2 1_555 1_555
C22_2 H11_2 1_555 1_555
C23_2 C22_2 1_555 1_555
C24_2 C23_2 1_555 1_555
H12_2 C24_2 1_555 1_555
C25_2 C24_2 1_555 1_555
H13_2 C25_2 1_555 1_555
C26_2 C25_2 1_555 1_555
H14_2 C26_2 1_555 1_555
N1_2 Ag1 1_555 1_555
N1_3 Ag1_2 1_555 1_555
N2_2 C22_2 1_555 1_555
O1_2 C1_2 1_555 1_555
O2_2 C6_2 1_555 1_555
O3_2 C13_2 1_555 1_555
O4_2 C14_2 1_555 1_555
O5_2 C11_2 1_555 1_555
O6_2 C21_2 1_555 1_555
Ag1_2 N3 1_555 1_555
Ag1_3 N1 1_555 1_555
Ag1A N3A 1_555 1_555
O7A C27A 1_555 1_555
C27A O10A 1_555 1_555
C28A C31A 1_555 1_555
C31A C30 1_555 1_555
C32A C29 1_555 1_555
C33A C32A 1_555 1_555
H15A C33A 1_555 1_555
C34A C33A 1_555 1_555
H16A C34A 1_555 1_555
C35A C28A 1_555 1_555
H17A C35A 1_555 1_555
O10A C28A 1_555 1_555
N3_2 Ag1 1_555 1_555
N3A C36A 1_555 1_555
C36A H18A 1_555 1_555
C37A H19A 1_555 1_555
C38A C37A 1_555 1_555
H20A C38A 1_555 1_555
C39A N3A 1_555 1_555
H21A C39A 1_555 1_555
C40A C27A 1_555 1_555
F5B B2 1_555 1_555
F6B B2 1_555 1_555
C5 C15 1_555 1_555
C11 C12 1_555 1_555
C13 C15 1_555 1_555
C14 O5 1_555 1_555
C18 N1 1_555 1_555
C19 C20 1_555 1_555
C21 O1 1_555 1_555
C26 N2 1_555 1_555
C34 C35 1_555 1_555
C36 C40 1_555 1_555
C37 C40 1_555 1_555
C38 C39 1_555 1_555
C5_2 C15_2 1_555 1_555
C11_2 C12_2 1_555 1_555
C13_2 C15_2 1_555 1_555
C14_2 O5_2 1_555 1_555
C17_2 N1_2 1_555 1_555
C18_2 N1_2 1_555 1_555
C19_2 C20_2 1_555 1_555
C21_2 O1_2 1_555 1_555
C26_2 N2_2 1_555 1_555
N2_2 Ag1_2 1_555 1_555
C31A C32A 1_555 1_555
C34A C35A 1_555 1_555
C36A C40A 1_555 1_555
C37A C40A 1_555 1_555
C38A C39A 1_555 1_555

#END
