
#######################################################################
#
#                 Cambridge Crystallographic Data Centre
#                                CCDC 
#
#######################################################################
#
# If this CIF has been generated from an entry in the Cambridge 
# Structural Database, then it will include bibliographic, chemical, 
# crystal, experimental, refinement or atomic coordinate data resulting 
# from the CCDC's data processing and validation procedures.
#
#######################################################################

data_IGOTUV
_symmetry_cell_setting           monoclinic
_symmetry_space_group_name_H-M   'P 21/n'
_symmetry_Int_Tables_number      14
_space_group_name_Hall           '-P 2yn'
loop_
_symmetry_equiv_pos_site_id
_symmetry_equiv_pos_as_xyz
1 x,y,z
2 1/2-x,1/2+y,1/2-z
3 -x,-y,-z
4 1/2+x,1/2-y,1/2+z
_cell_length_a                   8.3216(5)
_cell_length_b                   17.5404(11)
_cell_length_c                   11.3797(8)
_cell_angle_alpha                90
_cell_angle_beta                 100.982(3)
_cell_angle_gamma                90
_cell_volume                     1630.61
loop_
_atom_site_label
_atom_site_type_symbol
_atom_site_fract_x
_atom_site_fract_y
_atom_site_fract_z
Co1 Co 0.5000 0.0000 0.5000
C1 C -0.1264(3) -0.17345(15) -0.0408(2)
H1 H -0.2068 -0.1761 -0.1097
C2 C -0.1169(3) -0.10778(13) 0.0274(2)
H2 H -0.1892 -0.0678 0.0038
C3 C 0.0009(2) -0.10192(11) 0.13106(16)
C4 C 0.1076(3) -0.16298(12) 0.15719(19)
H3 H 0.1914 -0.1616 0.2242
C5 C 0.0885(3) -0.22551(13) 0.0832(2)
H4 H 0.1621 -0.2655 0.1023
C6 C 0.0064(2) -0.03504(11) 0.20914(17)
H5 H -0.0754 0.0015 0.1901
C7 C 0.1210(2) -0.02399(11) 0.30489(16)
H6 H 0.2047 -0.0599 0.3198
C8 C 0.1295(2) 0.03848(10) 0.38915(15)
C9 C 0.0583(2) 0.13890(10) 0.48393(16)
C10 C -0.0163(3) 0.20191(12) 0.5245(2)
H7 H -0.1194 0.2185 0.4866
C11 C 0.0700(3) 0.23855(12) 0.6237(2)
H8 H 0.0245 0.2812 0.6534
C12 C 0.2238(3) 0.21344(12) 0.68067(18)
H9 H 0.2779 0.2395 0.7479
C13 C 0.2980(2) 0.15116(11) 0.64028(16)
H10 H 0.4006 0.1346 0.6791
C14 C 0.2133(2) 0.11376(10) 0.53873(15)
C15 C 0.5684(2) 0.03793(10) 0.25316(13)
C16 C 0.5343(2) 0.01807(10) 0.12155(14)
C17 C 0.4010(2) -0.06192(10) -0.04002(14)
H11 H 0.3344 -0.1034 -0.0665
C18 C 0.4358(2) -0.04373(10) 0.08070(14)
H12 H 0.3926 -0.0734 0.1349
N1 N -0.0278(3) -0.23278(12) -0.01374(18)
N2 N 0.25676(18) 0.05080(8) 0.47701(12)
N3 N 0.00839(19) 0.09011(9) 0.38936(14)
H13 H -0.0831 0.0920 0.3394
O1 O 0.61115(17) 0.10990(8) 0.51113(12)
H14 H 0.636(3) 0.1118(15) 0.445(3)
H15 H 0.579(3) 0.1531(16) 0.525(2)
O2 O 0.48840(16) 0.00099(7) 0.31740(10)
O3 O 0.67094(16) 0.08948(8) 0.28879(10)
C15B C 0.4316(2) -0.03793(10) -0.25316(13)
C16B C 0.4657(2) -0.01807(10) -0.12155(14)
C17B C 0.5990(2) 0.06192(10) 0.04002(14)
H11B H 0.6656 0.1034 0.0665
C18B C 0.5642(2) 0.04373(10) -0.08070(14)
H12B H 0.6074 0.0734 -0.1349
O2B O 0.51160(16) -0.00099(7) -0.31740(10)
O3B O 0.32906(16) -0.08948(8) -0.28879(10)
C1B C 1.1264(3) 0.17345(15) 1.0408(2)
H1B H 1.2068 0.1761 1.1097
C2B C 1.1169(3) 0.10778(13) 0.9726(2)
H2B H 1.1892 0.0678 0.9962
C3B C 0.9991(2) 0.10192(11) 0.86894(16)
C4B C 0.8924(3) 0.16298(12) 0.84281(19)
H3B H 0.8086 0.1616 0.7758
C5B C 0.9115(3) 0.22551(13) 0.9168(2)
H4B H 0.8379 0.2655 0.8977
C6B C 0.9936(2) 0.03504(11) 0.79086(17)
H5B H 1.0754 -0.0015 0.8099
C7B C 0.8790(2) 0.02399(11) 0.69511(16)
H6B H 0.7953 0.0599 0.6802
C8B C 0.8705(2) -0.03848(10) 0.61085(15)
C9B C 0.9417(2) -0.13890(10) 0.51607(16)
C10B C 1.0163(3) -0.20191(12) 0.4755(2)
H7B H 1.1194 -0.2185 0.5134
C11B C 0.9300(3) -0.23855(12) 0.3763(2)
H8B H 0.9755 -0.2812 0.3466
C12B C 0.7762(3) -0.21344(12) 0.31933(18)
H9B H 0.7221 -0.2395 0.2521
C13B C 0.7020(2) -0.15116(11) 0.35972(16)
H10B H 0.5994 -0.1346 0.3209
C14B C 0.7867(2) -0.11376(10) 0.46127(15)
N1B N 1.0278(3) 0.23278(12) 1.01374(18)
N2B N 0.74324(18) -0.05080(8) 0.52299(12)
N3B N 0.99161(19) -0.09011(9) 0.61064(14)
H13B H 1.0831 -0.0920 0.6606
O1B O 0.38885(17) -0.10990(8) 0.48887(12)
H14B H 0.364(3) -0.1118(15) 0.555(3)
H15B H 0.421(3) -0.1531(16) 0.475(2)
Co1_2 Co 0.5000 0.0000 -0.5000
O2B_2 O 0.51160(16) -0.00099(7) 0.68260(10)
loop_
_geom_bond_atom_site_label_1
_geom_bond_atom_site_label_2
_geom_bond_site_symmetry_1
_geom_bond_site_symmetry_2
Co1 N2 1_555 1_555
C1 H1 1_555 1_555
C2 C1 1_555 1_555
H2 C2 1_555 1_555
C3 C2 1_555 1_555
C4 C3 1_555 1_555
H3 C4 1_555 1_555
C5 C4 1_555 1_555
H4 C5 1_555 1_555
C6 C3 1_555 1_555
H5 C6 1_555 1_555
C7 C6 1_555 1_555
H6 C7 1_555 1_555
C8 C7 1_555 1_555
C9 C10 1_555 1_555
C10 H7 1_555 1_555
C11 C10 1_555 1_555
H8 C11 1_555 1_555
C12 C11 1_555 1_555
H9 C12 1_555 1_555
C13 C12 1_555 1_555
H10 C13 1_555 1_555
C14 C9 1_555 1_555
C15 C16 1_555 1_555
C16 C18 1_555 1_555
C17 H11 1_555 1_555
C18 C17 1_555 1_555
H12 C18 1_555 1_555
N1 C1 1_555 1_555
N2 C8 1_555 1_555
N3 C8 1_555 1_555
H13 N3 1_555 1_555
O1 Co1 1_555 1_555
H14 O1 1_555 1_555
H15 O1 1_555 1_555
O2 Co1 1_555 1_555
O3 C15 1_555 1_555
C15B C16B 1_555 1_555
C16B C17 1_555 1_555
C17B C16 1_555 1_555
H11B C17B 1_555 1_555
C18B C16B 1_555 1_555
H12B C18B 1_555 1_555
O2B C15B 1_555 1_555
O3B C15B 1_555 1_555
C1B H1B 1_555 1_555
C2B C1B 1_555 1_555
H2B C2B 1_555 1_555
C3B C2B 1_555 1_555
C4B C3B 1_555 1_555
H3B C4B 1_555 1_555
C5B C4B 1_555 1_555
H4B C5B 1_555 1_555
C6B C3B 1_555 1_555
H5B C6B 1_555 1_555
C7B C6B 1_555 1_555
H6B C7B 1_555 1_555
C8B C7B 1_555 1_555
C9B C10B 1_555 1_555
C10B H7B 1_555 1_555
C11B C10B 1_555 1_555
H8B C11B 1_555 1_555
C12B C11B 1_555 1_555
H9B C12B 1_555 1_555
C13B C12B 1_555 1_555
H10B C13B 1_555 1_555
C14B C9B 1_555 1_555
N1B C1B 1_555 1_555
N2B Co1 1_555 1_555
N3B C8B 1_555 1_555
H13B N3B 1_555 1_555
O1B Co1 1_555 1_555
H14B O1B 1_555 1_555
H15B O1B 1_555 1_555
Co1_2 O2B 1_555 1_555
O2B_2 Co1 1_555 1_555
C5 N1 1_555 1_555
C9 N3 1_555 1_555
C13 C14 1_555 1_555
C14 N2 1_555 1_555
C15 O2 1_555 1_555
C17B C18B 1_555 1_555
C5B N1B 1_555 1_555
C8B N2B 1_555 1_555
C9B N3B 1_555 1_555
C13B C14B 1_555 1_555
C14B N2B 1_555 1_555

#END
