
#######################################################################
#
#                 Cambridge Crystallographic Data Centre
#                                CCDC 
#
#######################################################################
#
# If this CIF has been generated from an entry in the Cambridge 
# Structural Database, then it will include bibliographic, chemical, 
# crystal, experimental, refinement or atomic coordinate data resulting 
# from the CCDC's data processing and validation procedures.
#
#######################################################################

data_IGOWUY
_symmetry_cell_setting           tetragonal
_symmetry_space_group_name_H-M   'I 41/a'
_symmetry_Int_Tables_number      88
_space_group_name_Hall           '-I 4ad'
loop_
_symmetry_equiv_pos_site_id
_symmetry_equiv_pos_as_xyz
1 x,y,z
2 1/2-x,-y,1/2+z
3 3/4-y,1/4+x,1/4+z
4 3/4+y,3/4-x,3/4+z
5 1/2+x,1/2+y,1/2+z
6 -x,1/2-y,z
7 1/4-y,3/4+x,3/4+z
8 1/4+y,1/4-x,1/4+z
9 -x,-y,-z
10 1/2+x,y,1/2-z
11 1/4+y,3/4-x,3/4-z
12 1/4-y,1/4+x,1/4-z
13 1/2-x,1/2-y,1/2-z
14 x,1/2+y,-z
15 3/4+y,1/4-x,1/4-z
16 3/4-y,3/4+x,3/4-z
_cell_length_a                   17.2279(7)
_cell_length_b                   17.2279(7)
_cell_length_c                   16.1237(13)
_cell_angle_alpha                90
_cell_angle_beta                 90
_cell_angle_gamma                90
_cell_volume                     4785.52
loop_
_atom_site_label
_atom_site_type_symbol
_atom_site_fract_x
_atom_site_fract_y
_atom_site_fract_z
Pb1 Pb 1.0000 0.2500 1.009488(14)
Br1 Br 0.54990(3) 0.34520(4) 0.98114(4)
O1 O 1.14857(17) 0.42445(18) 0.8745(2)
H1 H 1.1335 0.4669 0.8580
N1 N 0.91495(18) 0.50385(18) 0.9108(2)
O2 O 1.09683(17) 0.31574(17) 0.9190(2)
C1 C 0.8913(2) 0.4314(2) 0.9346(3)
C2 C 0.6560(2) 0.3720(3) 0.9704(3)
C3 C 0.7567(2) 0.4666(3) 0.9765(3)
H2 H 0.7730 0.5171 0.9871
C4 C 1.0140(2) 0.4239(2) 0.9094(3)
C5 C 0.6789(2) 0.4472(3) 0.9861(3)
H3 H 0.6429 0.4843 1.0028
N2 N 0.95026(18) 0.38208(18) 0.9350(2)
C6 C 0.8103(2) 0.4112(2) 0.9512(3)
C7 C 1.0900(2) 0.3847(2) 0.9009(3)
C8 C 0.7852(3) 0.3356(2) 0.9371(3)
H4 H 0.8209 0.2979 0.9212
C9 C 0.9927(2) 0.4995(2) 0.8945(2)
C10 C 0.7080(3) 0.3156(3) 0.9462(3)
H5 H 0.6915 0.2650 0.9362
O3 O 0.99885(17) 0.63113(16) 0.8625(2)
O4 O 1.10820(17) 0.56125(16) 0.8511(2)
C11 C 1.0368(2) 0.5697(2) 0.8672(3)
Br1E Br 1.45010(3) 0.15480(4) 0.98114(4)
O1E O 0.85143(17) 0.07555(18) 0.8745(2)
H1E H 0.8665 0.0331 0.8580
N1E N 1.08505(18) -0.00385(18) 0.9108(2)
O2E O 0.90317(17) 0.18426(17) 0.9190(2)
C1E C 1.1087(2) 0.0686(2) 0.9346(3)
C2E C 1.3440(2) 0.1280(3) 0.9704(3)
C3E C 1.2433(2) 0.0334(3) 0.9765(3)
H2E H 1.2270 -0.0171 0.9871
C4E C 0.9860(2) 0.0761(2) 0.9094(3)
C5E C 1.3211(2) 0.0528(3) 0.9861(3)
H3E H 1.3571 0.0157 1.0028
N2E N 1.04974(18) 0.11792(18) 0.9350(2)
C6E C 1.1897(2) 0.0888(2) 0.9512(3)
C7E C 0.9100(2) 0.1153(2) 0.9009(3)
C8E C 1.2148(3) 0.1644(2) 0.9371(3)
H4E H 1.1791 0.2021 0.9212
C9E C 1.0073(2) 0.0005(2) 0.8945(2)
C10E C 1.2920(3) 0.1844(3) 0.9462(3)
H5E H 1.3085 0.2350 0.9362
O3E O 1.00115(17) -0.13113(16) 0.8625(2)
O4E O 0.89180(17) -0.06125(16) 0.8511(2)
C11E C 0.9632(2) -0.0697(2) 0.8672(3)
Pb1C Pb 1.0000 -0.2500 0.759488(14)
Pb1C_2 Pb 1.0000 0.7500 0.759488(14)
Pb1H Pb 1.0000 -0.2500 0.990512(14)
Pb1H_2 Pb 1.0000 0.7500 0.990512(14)
O3B O 1.11887(16) 0.24885(17) 1.1125(2)
O3G O 0.88113(16) 0.25115(17) 1.1125(2)
O3H O 1.00115(17) 0.36887(16) 1.1375(2)
O3M O 0.99885(17) 0.13113(16) 1.1375(2)
loop_
_geom_bond_atom_site_label_1
_geom_bond_atom_site_label_2
_geom_bond_site_symmetry_1
_geom_bond_site_symmetry_2
Pb1 O2 1_555 1_555
Br1 C2 1_555 1_555
O1 H1 1_555 1_555
N1 C1 1_555 1_555
O2 C7 1_555 1_555
C1 N2 1_555 1_555
C2 C5 1_555 1_555
C3 H2 1_555 1_555
C4 N2 1_555 1_555
C5 C3 1_555 1_555
H3 C5 1_555 1_555
N2 Pb1 1_555 1_555
C6 C1 1_555 1_555
C7 O1 1_555 1_555
C8 C6 1_555 1_555
H4 C8 1_555 1_555
C9 N1 1_555 1_555
C10 C2 1_555 1_555
H5 C10 1_555 1_555
O3 C11 1_555 1_555
O4 C11 1_555 1_555
C11 C9 1_555 1_555
Br1E C2E 1_555 1_555
O1E H1E 1_555 1_555
N1E C1E 1_555 1_555
O2E Pb1 1_555 1_555
C1E N2E 1_555 1_555
C2E C5E 1_555 1_555
C3E H2E 1_555 1_555
C4E N2E 1_555 1_555
C5E C3E 1_555 1_555
H3E C5E 1_555 1_555
N2E Pb1 1_555 1_555
C6E C1E 1_555 1_555
C7E O1E 1_555 1_555
C8E C6E 1_555 1_555
H4E C8E 1_555 1_555
C9E N1E 1_555 1_555
C10E C2E 1_555 1_555
H5E C10E 1_555 1_555
O3E C11E 1_555 1_555
O4E C11E 1_555 1_555
C11E C9E 1_555 1_555
Pb1C O3E 1_555 1_555
Pb1C_2 O3 1_555 1_555
Pb1H O3E 1_555 1_555
Pb1H_2 O3 1_555 1_555
O3B Pb1 1_555 1_555
O3G Pb1 1_555 1_555
O3H Pb1 1_555 1_555
O3M Pb1 1_555 1_555
C3 C6 1_555 1_555
C4 C7 1_555 1_555
C4 C9 1_555 1_555
C8 C10 1_555 1_555
O2E C7E 1_555 1_555
C3E C6E 1_555 1_555
C4E C7E 1_555 1_555
C4E C9E 1_555 1_555
C8E C10E 1_555 1_555

#END
