
#######################################################################
#
#                 Cambridge Crystallographic Data Centre
#                                CCDC 
#
#######################################################################
#
# If this CIF has been generated from an entry in the Cambridge 
# Structural Database, then it will include bibliographic, chemical, 
# crystal, experimental, refinement or atomic coordinate data resulting 
# from the CCDC's data processing and validation procedures.
#
#######################################################################

data_IGUBES01
_symmetry_cell_setting           orthorhombic
_symmetry_space_group_name_H-M   'I m a 2'
_symmetry_Int_Tables_number      46
_space_group_name_Hall           'I 2 -2a'
loop_
_symmetry_equiv_pos_site_id
_symmetry_equiv_pos_as_xyz
1 x,y,z
2 -x,-y,z
3 1/2-x,y,z
4 1/2+x,-y,z
5 1/2+x,1/2+y,1/2+z
6 1/2-x,1/2-y,1/2+z
7 -x,1/2+y,1/2+z
8 x,1/2-y,1/2+z
_cell_length_a                   40.1816(8)
_cell_length_b                   15.0535(3)
_cell_length_c                   11.1487(2)
_cell_angle_alpha                90
_cell_angle_beta                 90
_cell_angle_gamma                90
_cell_volume                     6743.56
loop_
_atom_site_label
_atom_site_type_symbol
_atom_site_fract_x
_atom_site_fract_y
_atom_site_fract_z
Co1 Co 0.941728(7) 0.628353(16) 0.37357(3)
Co2 Co 1.2500 0.69094(3) 0.41253(4)
Cl1 Cl 0.957997(14) 0.58290(4) 0.55712(5)
Cl2 Cl 1.2500 0.83802(6) 0.44948(8)
Cl3 Cl 0.903547(15) 0.54407(4) 0.28255(6)
Cl4 Cl 1.2500 0.60438(6) 0.57491(7)
C1 C 1.09878(5) 0.55533(12) -0.10152(17)
N1 N 1.17654(4) 0.67499(12) 0.15458(16)
N2 N 1.09074(5) 0.39141(10) -0.12140(17)
N3 N 1.07585(5) 0.25167(12) -0.09808(17)
N4 N 0.98476(4) 0.64159(11) 0.27987(17)
C2 C 1.03887(5) 0.71954(13) 0.04217(19)
H1 H 1.0437 0.7824 0.0616
H2 H 1.0231 0.7185 -0.0260
C3 C 1.12998(5) 0.58800(13) -0.06484(19)
C4 C 1.09727(6) 0.47546(13) -0.18494(19)
H3 H 1.0795 0.4853 -0.2451
H4 H 1.1187 0.4705 -0.2285
C5 C 1.09299(7) 0.27902(15) 0.0026(2)
H5 H 1.0977 0.2432 0.0707
C6 C 1.03592(5) 0.56159(13) -0.10546(19)
H6 H 1.0193 0.5725 -0.0416
H7 H 1.0376 0.4966 -0.1175
C7 C 1.16172(5) 0.54047(14) -0.0999(2)
H8 H 1.1572 0.4759 -0.1041
H9 H 1.1786 0.5502 -0.0366
N5 N 1.02318(5) 0.67661(11) 0.14717(16)
C8 C 1.20382(5) 0.70731(14) 0.2075(2)
H10 H 1.2170 0.7543 0.1762
C9 C 1.10352(6) 0.79259(14) 0.1161(2)
H11 H 1.1242 0.7915 0.1646
H12 H 1.0844 0.7943 0.1719
C10 C 1.06933(5) 0.59703(13) -0.06543(19)
C11 C 1.01523(6) 0.61073(14) 0.3198(2)
H13 H 1.0189 0.5795 0.3927
C12 C 1.07076(5) 0.67398(13) 0.00548(18)
C13 C 1.16453(5) 0.70574(14) 0.0364(2)
H14 H 1.1811 0.6894 -0.0257
H15 H 1.1627 0.7713 0.0374
C14 C 0.99071(5) 0.68105(14) 0.1749(2)
H16 H 0.9742 0.7085 0.1264
C15 C 1.13106(5) 0.66620(13) 0.00320(19)
C16 C 1.17604(6) 0.57124(18) -0.2205(2)
H17 H 1.1961 0.5368 -0.2390
H18 H 1.1817 0.6345 -0.2158
H19 H 1.1595 0.5621 -0.2838
C17 C 1.03912(6) 0.63201(14) 0.2385(2)
H20 H 1.0622 0.6188 0.2436
C18 C 1.10162(5) 0.70932(13) 0.04086(19)
N6 N 1.21005(5) 0.66521(13) 0.30951(17)
C19 C 1.10325(6) 0.87623(15) 0.0377(2)
H21 H 1.1047 0.9290 0.0889
H22 H 1.0826 0.8782 -0.0089
H23 H 1.1223 0.8749 -0.0171
C20 C 1.07492(5) 0.32143(13) -0.1708(2)
H24 H 1.0645 0.3220 -0.2474
C21 C 1.02395(6) 0.60499(16) -0.2221(2)
H25 H 1.0028 0.5783 -0.2465
H26 H 1.0406 0.5956 -0.2852
H27 H 1.0209 0.6689 -0.2092
C22 C 1.10221(7) 0.36580(16) -0.0110(2)
H28 H 1.1142 0.4012 0.0448
C23 C 1.18531(6) 0.60209(17) 0.3208(2)
H29 H 1.1832 0.5611 0.3851
C24 C 1.16449(6) 0.60794(17) 0.2255(2)
H30 H 1.1453 0.5726 0.2108
Co1B Co 1.558272(7) 0.628353(16) 0.37357(3)
Co1D Co 1.441728(7) 0.128353(16) -0.12643(3)
Co1F Co 1.058272(7) 0.128353(16) -0.12643(3)
Cl1B Cl 1.542003(14) 0.58290(4) 0.55712(5)
Cl3B Cl 1.596453(15) 0.54407(4) 0.28255(6)
C1B C 1.40122(5) 0.55533(12) -0.10152(17)
N1B N 1.32346(4) 0.67499(12) 0.15458(16)
N2B N 1.40926(5) 0.39141(10) -0.12140(17)
N3B N 1.42415(5) 0.25167(12) -0.09808(17)
N3D N 1.57585(5) 0.75167(12) 0.40192(17)
N3F N 0.92415(5) 0.75167(12) 0.40192(17)
N4B N 1.51524(4) 0.64159(11) 0.27987(17)
C2B C 1.46113(5) 0.71954(13) 0.04217(19)
H1B H 1.4563 0.7824 0.0616
H2B H 1.4769 0.7185 -0.0260
C3B C 1.37002(5) 0.58800(13) -0.06484(19)
C4B C 1.40273(6) 0.47546(13) -0.18494(19)
H3B H 1.4205 0.4853 -0.2451
H4B H 1.3813 0.4705 -0.2285
C5B C 1.40701(7) 0.27902(15) 0.0026(2)
H5B H 1.4023 0.2432 0.0707
C6B C 1.46408(5) 0.56159(13) -0.10546(19)
H6B H 1.4807 0.5725 -0.0416
H7B H 1.4624 0.4966 -0.1175
C7B C 1.33828(5) 0.54047(14) -0.0999(2)
H8B H 1.3428 0.4759 -0.1041
H9B H 1.3214 0.5502 -0.0366
N5B N 1.47682(5) 0.67661(11) 0.14717(16)
C8B C 1.29618(5) 0.70731(14) 0.2075(2)
H10B H 1.2830 0.7543 0.1762
C9B C 1.39648(6) 0.79259(14) 0.1161(2)
H11B H 1.3758 0.7915 0.1646
H12B H 1.4156 0.7943 0.1719
C10B C 1.43067(5) 0.59703(13) -0.06543(19)
C11B C 1.48477(6) 0.61073(14) 0.3198(2)
H13B H 1.4811 0.5795 0.3927
C12B C 1.42924(5) 0.67398(13) 0.00548(18)
C13B C 1.33547(5) 0.70574(14) 0.0364(2)
H14B H 1.3189 0.6894 -0.0257
H15B H 1.3373 0.7713 0.0374
C14B C 1.50929(5) 0.68105(14) 0.1749(2)
H16B H 1.5258 0.7085 0.1264
C15B C 1.36894(5) 0.66620(13) 0.00320(19)
C16B C 1.32396(6) 0.57124(18) -0.2205(2)
H17B H 1.3039 0.5368 -0.2390
H18B H 1.3183 0.6345 -0.2158
H19B H 1.3405 0.5621 -0.2838
C17B C 1.46088(6) 0.63201(14) 0.2385(2)
H20B H 1.4378 0.6188 0.2436
C18B C 1.39838(5) 0.70932(13) 0.04086(19)
N6B N 1.28995(5) 0.66521(13) 0.30951(17)
C19B C 1.39675(6) 0.87623(15) 0.0377(2)
H21B H 1.3953 0.9290 0.0889
H22B H 1.4174 0.8782 -0.0089
H23B H 1.3777 0.8749 -0.0171
C20B C 1.42508(5) 0.32143(13) -0.1708(2)
H24B H 1.4355 0.3220 -0.2474
C21B C 1.47605(6) 0.60499(16) -0.2221(2)
H25B H 1.4972 0.5783 -0.2465
H26B H 1.4594 0.5956 -0.2852
H27B H 1.4791 0.6689 -0.2092
C22B C 1.39779(7) 0.36580(16) -0.0110(2)
H28B H 1.3858 0.4012 0.0448
C23B C 1.31469(6) 0.60209(17) 0.3208(2)
H29B H 1.3168 0.5611 0.3851
C24B C 1.33551(6) 0.60794(17) 0.2255(2)
H30B H 1.3547 0.5726 0.2108
loop_
_geom_bond_atom_site_label_1
_geom_bond_atom_site_label_2
_geom_bond_site_symmetry_1
_geom_bond_site_symmetry_2
Co1 Cl1 1_555 1_555
Co2 Cl2 1_555 1_555
Cl3 Co1 1_555 1_555
Cl4 Co2 1_555 1_555
C1 C3 1_555 1_555
N1 C8 1_555 1_555
N2 C4 1_555 1_555
N3 C5 1_555 1_555
N4 Co1 1_555 1_555
C2 H1 1_555 1_555
H2 C2 1_555 1_555
C3 C7 1_555 1_555
C4 C1 1_555 1_555
H3 C4 1_555 1_555
H4 C4 1_555 1_555
C5 H5 1_555 1_555
C6 H6 1_555 1_555
H7 C6 1_555 1_555
C7 H8 1_555 1_555
H9 C7 1_555 1_555
N5 C2 1_555 1_555
C8 H10 1_555 1_555
C9 H11 1_555 1_555
H12 C9 1_555 1_555
C10 C1 1_555 1_555
C11 N4 1_555 1_555
H13 C11 1_555 1_555
C12 C2 1_555 1_555
C13 N1 1_555 1_555
H14 C13 1_555 1_555
H15 C13 1_555 1_555
C14 N4 1_555 1_555
H16 C14 1_555 1_555
C15 C3 1_555 1_555
C16 C7 1_555 1_555
H17 C16 1_555 1_555
H18 C16 1_555 1_555
H19 C16 1_555 1_555
C17 N5 1_555 1_555
H20 C17 1_555 1_555
C18 C9 1_555 1_555
N6 Co2 1_555 1_555
C19 C9 1_555 1_555
H21 C19 1_555 1_555
H22 C19 1_555 1_555
H23 C19 1_555 1_555
C20 N2 1_555 1_555
H24 C20 1_555 1_555
C21 C6 1_555 1_555
H25 C21 1_555 1_555
H26 C21 1_555 1_555
H27 C21 1_555 1_555
C22 N2 1_555 1_555
H28 C22 1_555 1_555
C23 N6 1_555 1_555
H29 C23 1_555 1_555
C24 N1 1_555 1_555
H30 C24 1_555 1_555
Co1B Cl1B 1_555 1_555
Co1D N3B 1_555 1_555
Co1F N3 1_555 1_555
Cl3B Co1B 1_555 1_555
C1B C3B 1_555 1_555
N1B C8B 1_555 1_555
N2B C4B 1_555 1_555
N3B C5B 1_555 1_555
N3D Co1B 1_555 1_555
N3F Co1 1_555 1_555
N4B Co1B 1_555 1_555
C2B H1B 1_555 1_555
H2B C2B 1_555 1_555
C3B C7B 1_555 1_555
C4B C1B 1_555 1_555
H3B C4B 1_555 1_555
H4B C4B 1_555 1_555
C5B H5B 1_555 1_555
C6B H6B 1_555 1_555
H7B C6B 1_555 1_555
C7B H8B 1_555 1_555
H9B C7B 1_555 1_555
N5B C2B 1_555 1_555
C8B H10B 1_555 1_555
C9B H11B 1_555 1_555
H12B C9B 1_555 1_555
C10B C1B 1_555 1_555
C11B N4B 1_555 1_555
H13B C11B 1_555 1_555
C12B C2B 1_555 1_555
C13B N1B 1_555 1_555
H14B C13B 1_555 1_555
H15B C13B 1_555 1_555
C14B N4B 1_555 1_555
H16B C14B 1_555 1_555
C15B C3B 1_555 1_555
C16B C7B 1_555 1_555
H17B C16B 1_555 1_555
H18B C16B 1_555 1_555
H19B C16B 1_555 1_555
C17B N5B 1_555 1_555
H20B C17B 1_555 1_555
C18B C9B 1_555 1_555
N6B Co2 1_555 1_555
C19B C9B 1_555 1_555
H21B C19B 1_555 1_555
H22B C19B 1_555 1_555
H23B C19B 1_555 1_555
C20B N2B 1_555 1_555
H24B C20B 1_555 1_555
C21B C6B 1_555 1_555
H25B C21B 1_555 1_555
H26B C21B 1_555 1_555
H27B C21B 1_555 1_555
C22B N2B 1_555 1_555
H28B C22B 1_555 1_555
C23B N6B 1_555 1_555
H29B C23B 1_555 1_555
C24B N1B 1_555 1_555
H30B C24B 1_555 1_555
N3 C20 1_555 1_555
C5 C22 1_555 1_555
C6 C10 1_555 1_555
N5 C14 1_555 1_555
C8 N6 1_555 1_555
C10 C12 1_555 1_555
C11 C17 1_555 1_555
C12 C18 1_555 1_555
C13 C15 1_555 1_555
C15 C18 1_555 1_555
C23 C24 1_555 1_555
N3B C20B 1_555 1_555
C5B C22B 1_555 1_555
C6B C10B 1_555 1_555
N5B C14B 1_555 1_555
C8B N6B 1_555 1_555
C10B C12B 1_555 1_555
C11B C17B 1_555 1_555
C12B C18B 1_555 1_555
C13B C15B 1_555 1_555
C15B C18B 1_555 1_555
C23B C24B 1_555 1_555

#END
