
#######################################################################
#
#                 Cambridge Crystallographic Data Centre
#                                CCDC 
#
#######################################################################
#
# If this CIF has been generated from an entry in the Cambridge 
# Structural Database, then it will include bibliographic, chemical, 
# crystal, experimental, refinement or atomic coordinate data resulting 
# from the CCDC's data processing and validation procedures.
#
#######################################################################

data_IGUBUJ
_symmetry_cell_setting           monoclinic
_symmetry_space_group_name_H-M   'P 21/n'
_symmetry_Int_Tables_number      14
_space_group_name_Hall           '-P 2yn'
loop_
_symmetry_equiv_pos_site_id
_symmetry_equiv_pos_as_xyz
1 x,y,z
2 1/2-x,1/2+y,1/2-z
3 -x,-y,-z
4 1/2+x,1/2-y,1/2+z
_cell_length_a                   11.2119(8)
_cell_length_b                   9.7392(7)
_cell_length_c                   20.4526(14)
_cell_angle_alpha                90
_cell_angle_beta                 95.9160(10)
_cell_angle_gamma                90
_cell_volume                     2221.43
loop_
_atom_site_label
_atom_site_type_symbol
_atom_site_fract_x
_atom_site_fract_y
_atom_site_fract_z
Cu1 Cu 0.59903(2) 0.62343(2) 0.12077(2)
C1 C 0.50141(19) 0.34645(19) 0.13614(9)
H1 H 0.4743 0.3574 0.0909
C2 C 0.4744(2) 0.2257(2) 0.16749(10)
H2 H 0.4290 0.1558 0.1440
C3 C 0.51379(18) 0.20802(18) 0.23272(9)
H3 H 0.4953 0.1267 0.2553
C4 C 0.58064(18) 0.31087(19) 0.26459(9)
H4 H 0.6114 0.3005 0.3094
C5 C 0.60257(17) 0.42996(18) 0.23064(8)
H5 H 0.6467 0.5018 0.2534
N1 N 0.56400(11) 0.44753(13) 0.16719(6)
C6 C 0.67198(15) 0.91571(17) 0.12540(8)
H6 H 0.6647 0.9060 0.1710
C7 C 0.70154(17) 1.04359(18) 0.10151(10)
H7 H 0.7162 1.1193 0.1305
C8 C 0.70922(17) 1.05878(19) 0.03497(10)
H8 H 0.7277 1.1455 0.0173
C9 C 0.68969(18) 0.9467(2) -0.00532(9)
H9 H 0.6938 0.9549 -0.0513
C10 C 0.66374(16) 0.82061(18) 0.02212(8)
H10 H 0.6531 0.7426 -0.0058
N2 N 0.65324(11) 0.80525(13) 0.08618(6)
C11 C 0.41950(13) 0.79625(14) 0.16837(7)
C12 C 0.36638(13) 0.86822(14) 0.22361(7)
C13 C 0.26088(14) 0.94329(15) 0.20678(7)
H11 H 0.2274 0.9448 0.1622
C14 C 0.20401(14) 1.01512(17) 0.25298(8)
H12 H 0.1327 1.0654 0.2405
C15 C 0.25356(15) 1.01201(18) 0.31810(8)
H13 H 0.2161 1.0611 0.3505
C16 C 0.35720(14) 0.93785(16) 0.33608(7)
H14 H 0.3897 0.9371 0.3808
C17 C 0.41515(13) 0.86393(14) 0.28986(7)
C18 C 0.55383(13) 0.78623(15) 0.40353(7)
C19 C 0.49125(15) 0.69152(16) 0.43831(8)
H15 H 0.4443 0.6227 0.4150
C20 C 0.49663(15) 0.69645(17) 0.50654(8)
H16 H 0.4522 0.6326 0.5295
C21 C 0.56710(15) 0.79495(17) 0.54102(8)
H17 H 0.5708 0.7993 0.5876
C22 C 0.63210(14) 0.88702(15) 0.50689(7)
H18 H 0.6819 0.9527 0.5308
C23 C 0.62613(13) 0.88554(14) 0.43816(7)
C24 C 0.69755(13) 0.99185(14) 0.40489(7)
O1 O 0.51114(9) 0.72039(10) 0.18486(5)
O2 O 0.37208(11) 0.81350(12) 0.11111(5)
O3 O 0.65774(10) 1.04823(12) 0.35369(5)
O4 O 0.80270(9) 1.01735(11) 0.43544(5)
S1 S 0.54590(3) 0.76579(4) 0.31604(2)
O5 O 0.44637(11) 0.61496(14) 0.03594(6)
H19 H 0.408(2) 0.675(3) 0.0504(12)
H20 H 0.406(2) 0.577(2) 0.0100(11)
Cu1A Cu 0.90097(2) 1.12343(2) 0.37923(2)
O4A O 0.69730(9) 0.51735(11) 0.06456(5)
loop_
_geom_bond_atom_site_label_1
_geom_bond_atom_site_label_2
_geom_bond_site_symmetry_1
_geom_bond_site_symmetry_2
Cu1 N1 1_555 1_555
C1 H1 1_555 1_555
C2 C1 1_555 1_555
H2 C2 1_555 1_555
C3 C2 1_555 1_555
H3 C3 1_555 1_555
C4 C3 1_555 1_555
H4 C4 1_555 1_555
C5 C4 1_555 1_555
H5 C5 1_555 1_555
N1 C1 1_555 1_555
C6 H6 1_555 1_555
C7 C6 1_555 1_555
H7 C7 1_555 1_555
C8 C7 1_555 1_555
H8 C8 1_555 1_555
C9 C8 1_555 1_555
H9 C9 1_555 1_555
C10 C9 1_555 1_555
H10 C10 1_555 1_555
N2 Cu1 1_555 1_555
C11 C12 1_555 1_555
C12 C13 1_555 1_555
C13 H11 1_555 1_555
C14 C13 1_555 1_555
H12 C14 1_555 1_555
C15 C14 1_555 1_555
H13 C15 1_555 1_555
C16 C15 1_555 1_555
H14 C16 1_555 1_555
C17 C12 1_555 1_555
C18 C19 1_555 1_555
C19 H15 1_555 1_555
C20 C19 1_555 1_555
H16 C20 1_555 1_555
C21 C20 1_555 1_555
H17 C21 1_555 1_555
C22 C21 1_555 1_555
H18 C22 1_555 1_555
C23 C18 1_555 1_555
C24 C23 1_555 1_555
O1 Cu1 1_555 1_555
O2 C11 1_555 1_555
O3 C24 1_555 1_555
O4 C24 1_555 1_555
S1 C17 1_555 1_555
O5 Cu1 1_555 1_555
H19 O5 1_555 1_555
H20 O5 1_555 1_555
Cu1A O4 1_555 1_555
O4A Cu1 1_555 1_555
C5 N1 1_555 1_555
C6 N2 1_555 1_555
C10 N2 1_555 1_555
C11 O1 1_555 1_555
C16 C17 1_555 1_555
C18 S1 1_555 1_555
C22 C23 1_555 1_555

#END
