
#######################################################################
#
#                 Cambridge Crystallographic Data Centre
#                                CCDC 
#
#######################################################################
#
# If this CIF has been generated from an entry in the Cambridge 
# Structural Database, then it will include bibliographic, chemical, 
# crystal, experimental, refinement or atomic coordinate data resulting 
# from the CCDC's data processing and validation procedures.
#
#######################################################################

data_IGUCUK
_symmetry_cell_setting           triclinic
_symmetry_space_group_name_H-M   'P -1'
_symmetry_Int_Tables_number      2
_space_group_name_Hall           '-P 1'
loop_
_symmetry_equiv_pos_site_id
_symmetry_equiv_pos_as_xyz
1 x,y,z
2 -x,-y,-z
_cell_length_a                   11.040(2)
_cell_length_b                   12.844(3)
_cell_length_c                   19.252(4)
_cell_angle_alpha                83.20(3)
_cell_angle_beta                 76.80(3)
_cell_angle_gamma                69.46(3)
_cell_volume                     2486.61
loop_
_atom_site_label
_atom_site_type_symbol
_atom_site_fract_x
_atom_site_fract_y
_atom_site_fract_z
Cu1 Cu 0.40618(3) 0.82690(2) 0.342756(15)
Cu2 Cu 0.45500(3) 0.85061(2) 0.090867(15)
F1 F 0.98173(17) 0.39326(15) 0.03962(10)
F2 F 0.88004(14) 0.34322(14) 0.39825(9)
O1 O 0.26624(18) 0.82557(17) -0.05977(10)
O2 O 0.35987(19) 0.87325(17) 0.01493(10)
O3 O 0.57138(19) 0.70850(16) 0.05625(10)
O4 O 0.08602(18) 0.73272(17) 0.41496(13)
O5 O 0.23349(17) 0.81703(15) 0.37950(10)
O6 O 0.49015(16) 0.68744(14) 0.39122(9)
O7 O 0.35935(18) 1.00223(15) 0.11887(9)
O8 O 0.51669(17) 1.04956(16) 0.15040(10)
O9 O 0.33490(17) 0.95783(15) 0.28245(9)
O10 O 0.28023(19) 1.05760(16) 0.37874(9)
O11 O -0.23314(18) 1.87046(16) 0.31941(11)
O12 O -0.43415(17) 1.86724(14) 0.32772(10)
O13 O -0.54047(17) 1.72628(16) 0.23905(10)
O14 O -0.42419(17) 1.81449(15) 0.15865(9)
O15 O 0.06795(17) 1.47121(15) 0.35231(10)
N1 N 1.2220(2) 0.0582(2) -0.08603(12)
H1 H 1.3093 0.0371 -0.1042
H2 H 1.2008 -0.0036 -0.0719
N2 N 0.9835(2) 0.2471(2) -0.05580(11)
N3 N 0.5767(2) 0.53169(18) -0.10796(11)
N4 N 0.9205(2) -0.06621(18) 0.39211(12)
H3 H 0.9852 -0.1320 0.3950
H4 H 0.8640 -0.0756 0.3683
N5 N 0.79573(19) 0.16450(17) 0.42114(11)
N6 N 0.34682(18) 0.42590(17) 0.43414(10)
C1 C 0.3570(2) 0.8038(2) -0.02629(13)
C2 C 0.4687(2) 0.6942(2) -0.03752(12)
C3 C 0.5680(2) 0.6579(2) 0.00417(13)
C4 C 0.6728(2) 0.5539(2) -0.01350(12)
C5 C 0.7786(3) 0.5169(2) 0.02324(14)
H5 H 0.7808 0.5597 0.0584
C6 C 0.8768(3) 0.4189(2) 0.00726(14)
C7 C 0.8791(2) 0.3463(2) -0.04330(13)
C8 C 0.7766(2) 0.3846(2) -0.08152(13)
H6 H 0.7745 0.3407 -0.1161
C9 C 0.6768(2) 0.4887(2) -0.06811(12)
C10 C 0.4795(2) 0.6285(2) -0.09173(13)
H7 H 0.4146 0.6531 -0.1191
C11 C 0.5769(2) 0.4691(2) -0.16684(13)
H8 H 0.5483 0.4042 -0.1534
C12 C 0.6829(3) 0.4601(3) -0.23250(15)
H9 H 0.7464 0.4969 -0.2335
H10 H 0.7181 0.3908 -0.2571
C13 C 0.5442(3) 0.5313(3) -0.23456(15)
H11 H 0.4954 0.5052 -0.2605
H12 H 0.5237 0.6114 -0.2369
C14 C 1.0427(3) 0.1769(2) 0.00210(14)
H13 H 1.0058 0.1175 0.0160
H14 H 1.0227 0.2212 0.0433
C15 C 1.1906(3) 0.1279(2) -0.02257(15)
H15 H 1.2278 0.1873 -0.0355
H16 H 1.2294 0.0824 0.0159
C16 C 1.1481(3) 0.1210(2) -0.14254(14)
H17 H 1.1588 0.0698 -0.1785
H18 H 1.1866 0.1767 -0.1655
C17 C 1.0014(3) 0.1782(3) -0.11469(15)
H19 H 0.9613 0.2240 -0.1527
H20 H 0.9587 0.1228 -0.0985
C18 C 0.2024(2) 0.7310(2) 0.40099(13)
C19 C 0.3074(2) 0.62130(19) 0.40954(12)
C20 C 0.4424(2) 0.60868(19) 0.40328(11)
C21 C 0.5305(2) 0.49441(19) 0.41060(12)
C22 C 0.6680(2) 0.4721(2) 0.40107(12)
H21 H 0.7028 0.5298 0.3918
C23 C 0.7485(2) 0.3645(2) 0.40581(13)
C24 C 0.7030(2) 0.2732(2) 0.41879(12)
C25 C 0.5688(2) 0.2951(2) 0.42850(12)
H22 H 0.5351 0.2368 0.4374
C26 C 0.4833(2) 0.4051(2) 0.42493(12)
C27 C 0.2663(2) 0.5304(2) 0.42488(12)
H23 H 0.1770 0.5420 0.4291
C28 C 0.2942(2) 0.3349(2) 0.44699(13)
H24 H 0.3051 0.2934 0.4052
C29 C 0.3024(2) 0.2685(2) 0.51637(14)
H25 H 0.3410 0.2901 0.5504
H26 H 0.3195 0.1891 0.5157
C30 C 0.1716(2) 0.3462(2) 0.50232(15)
H27 H 0.1098 0.3136 0.4934
H28 H 0.1313 0.4145 0.5280
C31 C 0.8692(2) 0.1288(2) 0.34851(13)
H29 H 0.9074 0.1843 0.3246
H30 H 0.8091 0.1225 0.3209
C32 C 0.9782(3) 0.0174(2) 0.35266(14)
H31 H 1.0231 -0.0069 0.3049
H32 H 1.0424 0.0251 0.3769
C33 C 0.8495(2) -0.0293(2) 0.46516(13)
H33 H 0.9108 -0.0215 0.4915
H34 H 0.8123 -0.0846 0.4904
C34 C 0.7403(2) 0.0811(2) 0.46047(14)
H35 H 0.6766 0.0724 0.4363
H36 H 0.6950 0.1058 0.5081
C35 C 0.1560(2) 1.3482(2) 0.18525(13)
H37 H 0.1211 1.4120 0.1580
C36 C 0.2432(2) 1.2525(2) 0.15233(12)
H38 H 0.2682 1.2529 0.1028
C37 C 0.2940(2) 1.1555(2) 0.19246(12)
C38 C 0.2520(2) 1.15325(19) 0.26693(12)
C39 C 0.1687(2) 1.2511(2) 0.29959(12)
H39 H 0.1446 1.2513 0.3491
C40 C 0.1208(2) 1.3485(2) 0.25971(13)
C41 C 0.0394(2) 1.45234(19) 0.29916(12)
C42 C -0.0793(2) 1.5298(2) 0.27282(12)
C43 C -0.1340(2) 1.6383(2) 0.29655(12)
H40 H -0.0913 1.6623 0.3245
C44 C -0.2508(2) 1.7109(2) 0.27923(12)
C45 C -0.3129(2) 1.6751(2) 0.23557(12)
C46 C -0.2578(2) 1.5661(2) 0.21180(13)
H41 H -0.2993 1.5420 0.1832
C47 C -0.1424(2) 1.4941(2) 0.23041(13)
H42 H -0.1069 1.4218 0.2146
C48 C 0.4001(2) 1.0591(2) 0.15245(12)
C49 C 0.2926(2) 1.0490(2) 0.31371(13)
C50 C -0.3096(2) 1.8245(2) 0.31081(12)
C51 C -0.4370(2) 1.7463(2) 0.21032(13)
O16 O 0.2629(2) 0.8117(2) 0.16816(13)
Cu1_2 Cu -0.59382(3) 1.82690(2) 0.342756(15)
Cu2_2 Cu -0.54500(3) 1.85061(2) 0.090867(15)
O12_2 O 0.56585(17) 0.86724(14) 0.32772(10)
O13_2 O 0.45953(17) 0.72628(16) 0.23905(10)
O14_2 O 0.57581(17) 0.81449(15) 0.15865(9)
O17 O 0.5186(3) 1.0833(2) 0.37310(16)
H43 H 0.566(4) 1.018(2) 0.359(3)
H44 H 0.439(2) 1.084(5) 0.383(4)
O18 O 0.5896(3) 1.1785(3) 0.23780(15)
O19 O 0.0698(3) 1.0367(3) 0.16539(16)
O20 O 0.1718(3) 0.7840(3) -0.17336(15)
H45 H 0.196(4) 0.776(5) -0.1338(12)
H46 H 0.236(3) 0.788(5) -0.2058(17)
loop_
_geom_bond_atom_site_label_1
_geom_bond_atom_site_label_2
_geom_bond_site_symmetry_1
_geom_bond_site_symmetry_2
Cu1 O5 1_555 1_555
Cu2 O2 1_555 1_555
F1 C6 1_555 1_555
F2 C23 1_555 1_555
O1 C1 1_555 1_555
O2 C1 1_555 1_555
O3 Cu2 1_555 1_555
O4 C18 1_555 1_555
O5 C18 1_555 1_555
O6 Cu1 1_555 1_555
O7 Cu2 1_555 1_555
O8 C48 1_555 1_555
O9 Cu1 1_555 1_555
O10 C49 1_555 1_555
O11 C50 1_555 1_555
O12 C50 1_555 1_555
O13 C51 1_555 1_555
O14 C51 1_555 1_555
O15 C41 1_555 1_555
N1 H1 1_555 1_555
H2 N1 1_555 1_555
N2 C7 1_555 1_555
N3 C9 1_555 1_555
N4 H3 1_555 1_555
H4 N4 1_555 1_555
N5 C24 1_555 1_555
N6 C26 1_555 1_555
C1 C2 1_555 1_555
C2 C3 1_555 1_555
C3 O3 1_555 1_555
C4 C3 1_555 1_555
C5 C4 1_555 1_555
H5 C5 1_555 1_555
C6 C5 1_555 1_555
C7 C6 1_555 1_555
C8 C7 1_555 1_555
H6 C8 1_555 1_555
C9 C4 1_555 1_555
C10 N3 1_555 1_555
H7 C10 1_555 1_555
C11 N3 1_555 1_555
H8 C11 1_555 1_555
C12 C11 1_555 1_555
H9 C12 1_555 1_555
H10 C12 1_555 1_555
C13 C11 1_555 1_555
H11 C13 1_555 1_555
H12 C13 1_555 1_555
C14 N2 1_555 1_555
H13 C14 1_555 1_555
H14 C14 1_555 1_555
C15 N1 1_555 1_555
H15 C15 1_555 1_555
H16 C15 1_555 1_555
C16 N1 1_555 1_555
H17 C16 1_555 1_555
H18 C16 1_555 1_555
C17 N2 1_555 1_555
H19 C17 1_555 1_555
H20 C17 1_555 1_555
C18 C19 1_555 1_555
C19 C20 1_555 1_555
C20 O6 1_555 1_555
C21 C20 1_555 1_555
C22 C21 1_555 1_555
H21 C22 1_555 1_555
C23 C22 1_555 1_555
C24 C23 1_555 1_555
C25 C24 1_555 1_555
H22 C25 1_555 1_555
C26 C21 1_555 1_555
C27 N6 1_555 1_555
H23 C27 1_555 1_555
C28 N6 1_555 1_555
H24 C28 1_555 1_555
C29 C28 1_555 1_555
H25 C29 1_555 1_555
H26 C29 1_555 1_555
C30 C28 1_555 1_555
H27 C30 1_555 1_555
H28 C30 1_555 1_555
C31 N5 1_555 1_555
H29 C31 1_555 1_555
H30 C31 1_555 1_555
C32 N4 1_555 1_555
H31 C32 1_555 1_555
H32 C32 1_555 1_555
C33 N4 1_555 1_555
H33 C33 1_555 1_555
H34 C33 1_555 1_555
C34 N5 1_555 1_555
H35 C34 1_555 1_555
H36 C34 1_555 1_555
C35 H37 1_555 1_555
C36 C35 1_555 1_555
H38 C36 1_555 1_555
C37 C36 1_555 1_555
C38 C37 1_555 1_555
C39 C38 1_555 1_555
H39 C39 1_555 1_555
C40 C35 1_555 1_555
C41 C40 1_555 1_555
C42 C41 1_555 1_555
C43 C42 1_555 1_555
H40 C43 1_555 1_555
C44 C43 1_555 1_555
C45 C44 1_555 1_555
C46 C45 1_555 1_555
H41 C46 1_555 1_555
C47 C42 1_555 1_555
H42 C47 1_555 1_555
C48 O7 1_555 1_555
C49 O9 1_555 1_555
C50 C44 1_555 1_555
C51 C45 1_555 1_555
O16 Cu2 1_555 1_555
O17 H43 1_555 1_555
H44 O17 1_555 1_555
O20 H45 1_555 1_555
H46 O20 1_555 1_555
Cu1_2 O12 1_555 1_555
Cu2_2 O14 1_555 1_555
O12_2 Cu1 1_555 1_555
O13_2 Cu1 1_555 1_555
O14_2 Cu2 1_555 1_555
O13 Cu1_2 1_555 1_555
C2 C10 1_555 1_555
C8 C9 1_555 1_555
C12 C13 1_555 1_555
C14 C15 1_555 1_555
C16 C17 1_555 1_555
C19 C27 1_555 1_555
C25 C26 1_555 1_555
C29 C30 1_555 1_555
C31 C32 1_555 1_555
C33 C34 1_555 1_555
C37 C48 1_555 1_555
C38 C49 1_555 1_555
C39 C40 1_555 1_555
C46 C47 1_555 1_555

#END
