
#######################################################################
#
#                 Cambridge Crystallographic Data Centre
#                                CCDC 
#
#######################################################################
#
# If this CIF has been generated from an entry in the Cambridge 
# Structural Database, then it will include bibliographic, chemical, 
# crystal, experimental, refinement or atomic coordinate data resulting 
# from the CCDC's data processing and validation procedures.
#
#######################################################################

data_IGUDEV
_symmetry_cell_setting           triclinic
_symmetry_space_group_name_H-M   'P -1'
_symmetry_Int_Tables_number      2
_space_group_name_Hall           '-P 1'
loop_
_symmetry_equiv_pos_site_id
_symmetry_equiv_pos_as_xyz
1 x,y,z
2 -x,-y,-z
_cell_length_a                   6.9652(14)
_cell_length_b                   12.367(2)
_cell_length_c                   13.861(3)
_cell_angle_alpha                63.719(6)
_cell_angle_beta                 79.439(9)
_cell_angle_gamma                81.021(9)
_cell_volume                     1048.61
loop_
_atom_site_label
_atom_site_type_symbol
_atom_site_fract_x
_atom_site_fract_y
_atom_site_fract_z
Zn1 Zn 0.23442(2) 0.731204(13) 0.569557(11)
Na1 Na 0.15502(8) 0.88105(5) 0.08016(4)
Na2 Na 0.36462(9) 0.62617(5) 0.02124(5)
O1 O 0.55217(15) 0.69192(9) 0.57760(8)
O2 O 0.46485(15) 0.78134(9) 0.05246(8)
O3 O 0.03621(17) 0.71771(11) 0.05556(9)
O4 O 0.33458(16) 1.02109(10) 0.10018(8)
O5 O 0.12238(15) 0.98840(9) -0.10459(8)
O6 O 0.70048(16) 0.52853(9) 0.02767(8)
O7 O 0.28510(16) 0.47375(10) 0.22233(9)
O8 O 0.44390(19) 0.71686(12) -0.17036(9)
N1 N 0.26712(17) 0.91491(10) 0.49444(8)
N2 N 0.36270(17) 0.97582(10) 0.39360(9)
N3 N 0.36614(17) 1.08797(10) 0.37486(9)
N4 N 0.27418(18) 1.10628(10) 0.46247(9)
N5 N 0.11677(18) 0.97721(10) 0.63481(9)
N6 N -0.04352(18) 0.84966(10) 0.80525(9)
N7 N -0.08270(18) 0.73153(11) 0.85132(9)
N8 N -0.01356(18) 0.68217(10) 0.78522(9)
N9 N 0.07424(17) 0.76623(10) 0.69209(8)
N10 N 0.23691(18) 0.54397(10) 0.65205(8)
N11 N 0.26898(18) 0.47608(10) 0.75682(9)
N12 N 0.31864(19) 0.36475(10) 0.77038(9)
N13 N 0.32268(19) 0.35425(10) 0.67703(9)
N14 N 0.25876(19) 0.49508(10) 0.50013(9)
N15 N 0.17660(17) 0.63109(10) 0.32542(9)
N16 N 0.11864(18) 0.75126(10) 0.27942(9)
N17 N 0.10864(19) 0.79734(10) 0.34853(9)
N18 N 0.16210(17) 0.70796(10) 0.44406(8)
C1 C 0.21596(19) 0.99826(11) 0.53357(10)
C2 C 0.05215(19) 0.86727(11) 0.70760(10)
C3 C 0.27187(19) 0.46627(11) 0.60657(10)
C4 C 0.20121(19) 0.60855(11) 0.42587(10)
H1 H 0.071(3) 1.0360(18) 0.6426(15)
H2 H 0.292(3) 0.4389(18) 0.4792(15)
H3 H 0.581(3) 0.6415(14) 0.6390(11)
H4 H 0.614(3) 0.7537(12) 0.5568(15)
H5 H 0.519(3) 0.7475(17) 0.1080(10)
H6 H 0.529(3) 0.8382(14) 0.0043(12)
H7 H -0.005(3) 0.731(2) -0.0017(10)
H8 H -0.042(3) 0.684(2) 0.1100(11)
H9 H 0.252(2) 1.0508(17) 0.1370(14)
H10 H 0.418(3) 0.9743(18) 0.1389(15)
H11 H 0.209(2) 1.0263(16) -0.1559(12)
H12 H 0.080(3) 0.9406(16) -0.1226(16)
H13 H 0.734(3) 0.5100(16) 0.0879(9)
H14 H 0.753(3) 0.5908(14) -0.0195(11)
H15 H 0.185(2) 0.4434(18) 0.2221(18)
H16 H 0.255(3) 0.5235(18) 0.2493(19)
H17 H 0.482(4) 0.7850(11) -0.2149(16)
H18 H 0.499(5) 0.6633(17) -0.191(2)
Na1A Na -0.15502(8) 1.11895(5) -0.08016(4)
Na2A Na 0.63538(9) 0.37383(5) -0.02124(5)
O5A O -0.12238(15) 1.01160(9) 0.10459(8)
O6A O 0.29952(16) 0.47147(9) -0.02767(8)
O9 O 0.41138(17) 1.10928(9) 0.74844(8)
H19 H 0.478(3) 1.0881(17) 0.7013(13)
H20 H 0.380(3) 1.1838(9) 0.7199(14)
loop_
_geom_bond_atom_site_label_1
_geom_bond_atom_site_label_2
_geom_bond_site_symmetry_1
_geom_bond_site_symmetry_2
Zn1 O1 1_555 1_555
Na1 O2 1_555 1_555
Na2 O2 1_555 1_555
O1 H3 1_555 1_555
O2 H5 1_555 1_555
O3 Na1 1_555 1_555
O4 Na1 1_555 1_555
O5 Na1 1_555 1_555
O6 Na2 1_555 1_555
O7 Na2 1_555 1_555
O8 Na2 1_555 1_555
N1 Zn1 1_555 1_555
N2 N1 1_555 1_555
N3 N2 1_555 1_555
N4 N3 1_555 1_555
N5 C1 1_555 1_555
N6 N7 1_555 1_555
N7 N8 1_555 1_555
N8 N9 1_555 1_555
N9 Zn1 1_555 1_555
N10 Zn1 1_555 1_555
N11 N10 1_555 1_555
N12 N11 1_555 1_555
N13 N12 1_555 1_555
N14 C3 1_555 1_555
N15 N16 1_555 1_555
N16 Na1 1_555 1_555
N17 N16 1_555 1_555
N18 Zn1 1_555 1_555
C1 N1 1_555 1_555
C2 N5 1_555 1_555
C3 N10 1_555 1_555
C4 N14 1_555 1_555
H1 N5 1_555 1_555
H2 N14 1_555 1_555
H4 O1 1_555 1_555
H6 O2 1_555 1_555
H7 O3 1_555 1_555
H8 O3 1_555 1_555
H9 O4 1_555 1_555
H10 O4 1_555 1_555
H11 O5 1_555 1_555
H12 O5 1_555 1_555
H13 O6 1_555 1_555
H14 O6 1_555 1_555
H15 O7 1_555 1_555
H16 O7 1_555 1_555
H17 O8 1_555 1_555
H18 O8 1_555 1_555
O9 H19 1_555 1_555
H20 O9 1_555 1_555
Na1A O5 1_555 1_555
Na2A O6 1_555 1_555
O5A Na1 1_555 1_555
O6A Na2 1_555 1_555
Na2 O3 1_555 1_555
N4 C1 1_555 1_555
N6 C2 1_555 1_555
N9 C2 1_555 1_555
N13 C3 1_555 1_555
N15 C4 1_555 1_555
N17 N18 1_555 1_555
N18 C4 1_555 1_555
Na1A O5A 1_555 1_555
Na2A O6A 1_555 1_555

#END
