
#######################################################################
#
#                 Cambridge Crystallographic Data Centre
#                                CCDC 
#
#######################################################################
#
# If this CIF has been generated from an entry in the Cambridge 
# Structural Database, then it will include bibliographic, chemical, 
# crystal, experimental, refinement or atomic coordinate data resulting 
# from the CCDC's data processing and validation procedures.
#
#######################################################################

data_IGUJOK
_symmetry_cell_setting           orthorhombic
_symmetry_space_group_name_H-M   'P b c a'
_symmetry_Int_Tables_number      61
_space_group_name_Hall           '-P 2ac 2ab'
loop_
_symmetry_equiv_pos_site_id
_symmetry_equiv_pos_as_xyz
1 x,y,z
2 1/2-x,-y,1/2+z
3 -x,1/2+y,1/2-z
4 1/2+x,1/2-y,-z
5 -x,-y,-z
6 1/2+x,y,1/2-z
7 x,1/2-y,1/2+z
8 1/2-x,1/2+y,z
_cell_length_a                   14.877(3)
_cell_length_b                   14.616(2)
_cell_length_c                   15.239(3)
_cell_angle_alpha                90
_cell_angle_beta                 90
_cell_angle_gamma                90
_cell_volume                     3313.6
loop_
_atom_site_label
_atom_site_type_symbol
_atom_site_fract_x
_atom_site_fract_y
_atom_site_fract_z
Ag1 Ag 0.22206(5) 0.97397(6) 0.33284(7)
Si1 Si 0.5860(2) 0.8195(2) 0.2694(2)
N1 N 0.3222(6) 0.8617(6) 0.3604(6)
C1 C 0.4036(7) 0.8670(7) 0.3167(6)
H1 H 0.4118 0.9159 0.2785
C2 C 0.4738(7) 0.8055(7) 0.3254(7)
C3 C 0.5972(9) 0.7219(8) 0.1925(8)
C4 C 0.4578(8) 0.7352(7) 0.3840(8)
H2 H 0.5023 0.6920 0.3948
C5 C 0.3114(8) 0.7927(8) 0.4152(7)
H3 H 0.2578 0.7885 0.4464
C6 C 0.5359(11) 0.7112(12) 0.1249(11)
H4 H 0.4898 0.7535 0.1174
C7 C 0.3744(8) 0.7284(7) 0.4277(7)
H5 H 0.3631 0.6794 0.4650
C8 C 0.5772(8) 0.9249(9) 0.2076(10)
H6 H 0.5637 0.9189 0.1484
C9 C 0.6652(8) 0.6566(7) 0.2016(7)
H7 H 0.7068 0.6629 0.2468
C10 C 0.6829(9) 0.8181(10) 0.3515(9)
H8 H 0.7390 0.8200 0.3205
H9 H 0.6800 0.7632 0.3860
H10 H 0.6784 0.8703 0.3894
C11 C 0.5873(11) 1.0087(10) 0.2345(13)
H11 H 0.6009 1.0202 0.2930
H12 H 0.5808 1.0570 0.1953
N2 N 0.6720(7) 0.5847(7) 0.1465(6)
C12 C 0.6125(11) 0.5780(10) 0.0814(9)
H13 H 0.6186 0.5295 0.0423
C13 C 0.5437(12) 0.6372(11) 0.0685(10)
H14 H 0.5029 0.6284 0.0230
Ag1E Ag 0.72206(5) 0.97397(6) 0.16716(7)
Ag1B Ag 0.77794(5) 0.47397(6) 0.16716(7)
C8E C 0.0772(8) 0.9249(9) 0.2924(10)
H6E H 0.0637 0.9189 0.3516
C11E C 0.0873(11) 1.0087(10) 0.2655(13)
H11E H 0.1009 1.0202 0.2070
H12E H 0.0808 1.0570 0.3047
N2B N 0.3280(7) 1.0847(7) 0.3535(6)
Cl1 Cl 0.1747(3) 0.9662(3) 0.5686(2)
O1 O 0.1888(14) 1.0213(10) 0.5023(10)
O2 O 0.1411(17) 0.9938(17) 0.6415(11)
O3 O 0.1332(11) 0.8894(11) 0.5380(14)
O4 O 0.2703(12) 0.9367(17) 0.5901(15)
loop_
_geom_bond_atom_site_label_1
_geom_bond_atom_site_label_2
_geom_bond_site_symmetry_1
_geom_bond_site_symmetry_2
Ag1 N1 1_555 1_555
Si1 C2 1_555 1_555
N1 C1 1_555 1_555
C1 H1 1_555 1_555
C2 C1 1_555 1_555
C3 Si1 1_555 1_555
C4 C2 1_555 1_555
H2 C4 1_555 1_555
C5 N1 1_555 1_555
H3 C5 1_555 1_555
C6 C3 1_555 1_555
H4 C6 1_555 1_555
C7 C4 1_555 1_555
H5 C7 1_555 1_555
Cl1 O1 1_555 1_555
C8 Si1 1_555 1_555
H6 C8 1_555 1_555
C9 C3 1_555 1_555
H7 C9 1_555 1_555
C10 Si1 1_555 1_555
H8 C10 1_555 1_555
H9 C10 1_555 1_555
H10 C10 1_555 1_555
C11 C8 1_555 1_555
H11 C11 1_555 1_555
H12 C11 1_555 1_555
N2 C9 1_555 1_555
C12 N2 1_555 1_555
H13 C12 1_555 1_555
C13 C6 1_555 1_555
H14 C13 1_555 1_555
O2 Cl1 1_555 1_555
O3 Cl1 1_555 1_555
O4 Cl1 1_555 1_555
Ag1E C8 1_555 1_555
Ag1B N2 1_555 1_555
C8E Ag1 1_555 1_555
H6E C8E 1_555 1_555
C11E Ag1 1_555 1_555
H11E C11E 1_555 1_555
H12E C11E 1_555 1_555
N2B Ag1 1_555 1_555
C5 C7 1_555 1_555
C11 Ag1E 1_555 1_555
C12 C13 1_555 1_555
C8E C11E 1_555 1_555

#END
