
#######################################################################
#
#                 Cambridge Crystallographic Data Centre
#                                CCDC 
#
#######################################################################
#
# If this CIF has been generated from an entry in the Cambridge 
# Structural Database, then it will include bibliographic, chemical, 
# crystal, experimental, refinement or atomic coordinate data resulting 
# from the CCDC's data processing and validation procedures.
#
#######################################################################

data_IGUKAY
_symmetry_cell_setting           monoclinic
_symmetry_space_group_name_H-M   'P 21/n'
_symmetry_Int_Tables_number      14
_space_group_name_Hall           '-P 2yn'
loop_
_symmetry_equiv_pos_site_id
_symmetry_equiv_pos_as_xyz
1 x,y,z
2 1/2-x,1/2+y,1/2-z
3 -x,-y,-z
4 1/2+x,1/2-y,1/2+z
_cell_length_a                   19.8431(5)
_cell_length_b                   9.1292(2)
_cell_length_c                   20.7267(5)
_cell_angle_alpha                90
_cell_angle_beta                 106.359(3)
_cell_angle_gamma                90
_cell_volume                     3602.67
loop_
_atom_site_label
_atom_site_type_symbol
_atom_site_fract_x
_atom_site_fract_y
_atom_site_fract_z
Co1 Co 0.742999(14) 0.57530(3) 0.185260(13)
O1 O 0.74670(8) 0.79046(14) 0.21490(7)
O2 O 0.76059(7) 0.65272(14) 0.09971(7)
O3 O 0.74811(8) 0.35498(14) 0.15409(7)
O4 O 0.83261(8) 0.67461(15) -0.06386(7)
N1 N 0.85504(9) 0.55474(18) 0.23485(9)
O5 O 0.78259(9) 0.54552(16) -0.00061(8)
N2 N 0.63077(9) 0.57917(18) 0.13793(9)
C1 C 0.81184(10) 0.7943(2) 0.03052(10)
C2 C 0.78766(10) 0.7792(2) 0.08879(10)
C3 C 0.83607(10) 0.9275(2) 0.01412(10)
H1 H 0.8507 0.9353 -0.0246
C4 C 0.81002(11) 0.6680(2) -0.01484(10)
C5 C 0.90025(13) 0.5228(3) 0.20029(14)
H2 H 0.8834 0.5093 0.1541
C6 C 0.88063(12) 0.5723(2) 0.30139(12)
H3 H 0.8494 0.5941 0.3261
C7 C 0.59038(12) 0.4642(2) 0.14065(12)
H4 H 0.6112 0.3828 0.1653
C8 C 0.59945(13) 0.6947(3) 0.10326(12)
H5 H 0.6264 0.7769 0.1011
C9 C 0.48796(13) 0.5785(3) 0.07218(14)
H6 H 0.4403 0.5776 0.0493
C10 C 0.51944(13) 0.4594(3) 0.10888(15)
H7 H 0.4932 0.3768 0.1122
C11 C 0.97171(15) 0.5089(3) 0.23074(17)
H8 H 1.0022 0.4874 0.2052
C12 C 0.52828(14) 0.6982(3) 0.07010(14)
H9 H 0.5082 0.7815 0.0466
C13 C 0.95066(14) 0.5598(3) 0.33511(15)
H10 H 0.9663 0.5732 0.3814
C14 C 0.99705(14) 0.5272(3) 0.29926(17)
H11 H 1.0448 0.5177 0.3208
C15 C 0.81817(10) 1.0345(2) 0.11247(10)
H12 H 0.8212 1.1158 0.1402
C16 C 0.77154(10) 0.9041(2) 0.19477(10)
C17 C 0.79297(10) 0.9031(2) 0.13110(10)
C18 C 0.83878(11) 1.0488(2) 0.05464(10)
H13 H 0.8543 1.1385 0.0430
O6 O 0.77917(7) 1.02246(14) 0.22684(7)
H14 H 0.7547 0.3145 0.1943
H15 H 0.7196 0.3297 0.1150
H16 H 0.7691(14) 0.563(3) 0.0324(15)
Co1A Co 0.757001(14) 1.07530(3) 0.314740(13)
O6A O 0.72083(7) 0.52246(14) 0.27316(7)
Co2 Co 0.749075(14) 0.27932(3) -0.187411(13)
O7 O 0.74823(7) 0.06487(14) -0.21489(7)
O8 O 0.74160(8) 0.50017(14) -0.16091(7)
O9 O 0.71829(7) 0.20756(14) -0.10668(7)
N3 N 0.85753(9) 0.26885(18) -0.12930(9)
O10 O 0.64434(8) 0.17508(16) 0.05586(7)
N4 N 0.64052(9) 0.30546(19) -0.24553(9)
O11 O 0.68855(9) 0.31314(16) -0.00870(8)
C19 C 0.69299(10) 0.0787(2) -0.09688(10)
C20 C 0.66713(10) -0.1792(2) -0.12029(10)
H17 H 0.6679 -0.2615 -0.1465
C21 C 0.69326(10) -0.0474(2) -0.13746(10)
C22 C 0.63874(11) -0.0707(2) -0.02699(10)
H18 H 0.6203 -0.0786 0.0094
C23 C 0.64017(11) -0.1927(2) -0.06616(11)
H19 H 0.6232 -0.2824 -0.0561
C24 C 0.66432(10) 0.0629(2) -0.04118(10)
C25 C 0.66442(11) 0.1867(2) 0.00549(10)
C26 C 0.62115(12) 0.2841(3) -0.31171(12)
H20 H 0.6548 0.2524 -0.3320
C27 C 0.90821(13) 0.2178(3) -0.15363(13)
H21 H 0.8961 0.1795 -0.1969
C28 C 0.52292(14) 0.3749(4) -0.25440(16)
H22 H 0.4899 0.4058 -0.2331
C29 C 0.99677(14) 0.2758(3) -0.05307(15)
H23 H 1.0435 0.2783 -0.0275
C30 C 0.94481(13) 0.3282(3) -0.02768(13)
H24 H 0.9557 0.3675 0.0154
C31 C 0.87657(12) 0.3221(2) -0.06669(11)
H25 H 0.8416 0.3567 -0.0487
C32 C 0.55411(14) 0.3064(3) -0.35142(14)
H26 H 0.5429 0.2906 -0.3976
C33 C 0.59127(12) 0.3518(3) -0.21795(13)
H27 H 0.6039 0.3693 -0.1719
C34 C 0.97831(14) 0.2195(3) -0.11709(15)
H28 H 1.0125 0.1831 -0.1357
C35 C 0.50367(15) 0.3521(4) -0.32247(16)
H29 H 0.4576 0.3673 -0.3483
C36 C 0.72142(10) -0.0490(2) -0.19717(10)
O12 O 0.71790(7) -0.16861(14) -0.22851(7)
H30 H 0.7695 0.5335 -0.1223
H31 H 0.7389 0.5310 -0.2020
H32 H 0.7064(14) 0.294(3) -0.0424(14)
Co2A Co 0.750925(14) -0.22068(3) -0.312589(13)
O12A O 0.78210(7) 0.33139(14) -0.27149(7)
loop_
_geom_bond_atom_site_label_1
_geom_bond_atom_site_label_2
_geom_bond_site_symmetry_1
_geom_bond_site_symmetry_2
Co1 O1 1_555 1_555
O1 C16 1_555 1_555
O2 Co1 1_555 1_555
O3 Co1 1_555 1_555
O4 C4 1_555 1_555
N1 Co1 1_555 1_555
O5 C4 1_555 1_555
N2 Co1 1_555 1_555
C1 C2 1_555 1_555
C2 O2 1_555 1_555
C3 C1 1_555 1_555
H1 C3 1_555 1_555
C4 C1 1_555 1_555
C5 N1 1_555 1_555
H2 C5 1_555 1_555
C6 N1 1_555 1_555
H3 C6 1_555 1_555
C7 N2 1_555 1_555
H4 C7 1_555 1_555
C8 N2 1_555 1_555
H5 C8 1_555 1_555
C9 H6 1_555 1_555
C10 C7 1_555 1_555
H7 C10 1_555 1_555
C11 C5 1_555 1_555
H8 C11 1_555 1_555
C12 C8 1_555 1_555
H9 C12 1_555 1_555
C13 C6 1_555 1_555
H10 C13 1_555 1_555
C14 C11 1_555 1_555
H11 C14 1_555 1_555
C15 H12 1_555 1_555
C16 C17 1_555 1_555
C17 C2 1_555 1_555
C18 C3 1_555 1_555
H13 C18 1_555 1_555
O6 C16 1_555 1_555
H14 O3 1_555 1_555
H15 O3 1_555 1_555
H16 O5 1_555 1_555
Co2 O7 1_555 1_555
O7 C36 1_555 1_555
O8 Co2 1_555 1_555
O9 Co2 1_555 1_555
N3 Co2 1_555 1_555
O10 C25 1_555 1_555
N4 Co2 1_555 1_555
O11 C25 1_555 1_555
C19 O9 1_555 1_555
C20 H17 1_555 1_555
C21 C19 1_555 1_555
C22 H18 1_555 1_555
C23 C20 1_555 1_555
H19 C23 1_555 1_555
C24 C19 1_555 1_555
C25 C24 1_555 1_555
C26 N4 1_555 1_555
H20 C26 1_555 1_555
C27 N3 1_555 1_555
H21 C27 1_555 1_555
C28 H22 1_555 1_555
C29 H23 1_555 1_555
C30 C29 1_555 1_555
H24 C30 1_555 1_555
C31 N3 1_555 1_555
H25 C31 1_555 1_555
C32 C26 1_555 1_555
H26 C32 1_555 1_555
C33 N4 1_555 1_555
H27 C33 1_555 1_555
C34 C27 1_555 1_555
H28 C34 1_555 1_555
C35 C28 1_555 1_555
H29 C35 1_555 1_555
C36 C21 1_555 1_555
O12 C36 1_555 1_555
H30 O8 1_555 1_555
H31 O8 1_555 1_555
H32 O11 1_555 1_555
Co1A O6 1_555 1_555
O6A Co1 1_555 1_555
Co2A O12 1_555 1_555
O12A Co2 1_555 1_555
C9 C10 1_555 1_555
C9 C12 1_555 1_555
C13 C14 1_555 1_555
C15 C17 1_555 1_555
C15 C18 1_555 1_555
C20 C21 1_555 1_555
C22 C23 1_555 1_555
C22 C24 1_555 1_555
C28 C33 1_555 1_555
C29 C34 1_555 1_555
C30 C31 1_555 1_555
C32 C35 1_555 1_555

#END
