
#######################################################################
#
#                 Cambridge Crystallographic Data Centre
#                                CCDC 
#
#######################################################################
#
# If this CIF has been generated from an entry in the Cambridge 
# Structural Database, then it will include bibliographic, chemical, 
# crystal, experimental, refinement or atomic coordinate data resulting 
# from the CCDC's data processing and validation procedures.
#
#######################################################################

data_IGUSIO
_symmetry_cell_setting           triclinic
_symmetry_space_group_name_H-M   'P -1'
_symmetry_Int_Tables_number      2
_space_group_name_Hall           '-P 1'
loop_
_symmetry_equiv_pos_site_id
_symmetry_equiv_pos_as_xyz
1 x,y,z
2 -x,-y,-z
_cell_length_a                   4.7595(4)
_cell_length_b                   5.8209(5)
_cell_length_c                   15.8831(14)
_cell_angle_alpha                81.178(3)
_cell_angle_beta                 89.358(3)
_cell_angle_gamma                81.499(3)
_cell_volume                     430.022
loop_
_atom_site_label
_atom_site_type_symbol
_atom_site_fract_x
_atom_site_fract_y
_atom_site_fract_z
Ag1 Ag 0.69557(7) 0.69807(6) 0.02452(2)
C1 C 0.2578(10) 1.1322(10) 0.4195(3)
C2 C 0.5100(10) 1.1457(9) 0.2812(3)
H1 H 0.4269 1.0177 0.2708
C3 C 0.7567(12) 1.5261(11) 0.3128(4)
H2 H 0.8399 1.6539 0.3234
C4 C 0.5746(12) 1.4297(10) 0.3718(4)
H3 H 0.5348 1.4927 0.4217
C5 C 0.6922(10) 1.2427(9) 0.2214(3)
C6 C 0.4507(10) 1.2374(9) 0.3562(3)
C7 C 0.8161(11) 1.4347(9) 0.2386(3)
H4 H 0.9395 1.5009 0.1994
O1 O 0.2104(9) 1.2175(8) 0.4870(3)
O2 O 0.1480(9) 0.9583(8) 0.4022(3)
H5 H 0.0229 0.9305 0.4366
O3 O 1.0347(7) 0.9192(6) 0.1478(2)
H6 H 1.1803 0.9614 0.1268
O4 O 0.5335(7) 1.0067(7) 0.1012(2)
O5 O 0.8623(8) 1.3093(6) 0.0582(2)
P1 P 0.7794(3) 1.1222(2) 0.12556(8)
Ag1_2 Ag 0.69557(7) 1.69807(6) 0.02452(2)
Ag1A Ag 0.30443(7) 1.30193(6) -0.02452(2)
Ag1A_2 Ag 1.30443(7) 1.30193(6) -0.02452(2)
O4A O 0.4665(7) 0.9933(7) -0.1012(2)
O5_2 O 0.8623(8) 0.3093(6) 0.0582(2)
O5A O 1.1377(8) 0.6907(6) -0.0582(2)
loop_
_geom_bond_atom_site_label_1
_geom_bond_atom_site_label_2
_geom_bond_site_symmetry_1
_geom_bond_site_symmetry_2
Ag1 O4 1_555 1_555
C1 C6 1_555 1_555
C2 H1 1_555 1_555
C3 H2 1_555 1_555
C4 C3 1_555 1_555
H3 C4 1_555 1_555
C5 C2 1_555 1_555
C6 C2 1_555 1_555
C7 C3 1_555 1_555
H4 C7 1_555 1_555
O1 C1 1_555 1_555
O2 C1 1_555 1_555
H5 O2 1_555 1_555
O3 H6 1_555 1_555
O4 P1 1_555 1_555
O5 P1 1_555 1_555
P1 C5 1_555 1_555
Ag1_2 O5 1_555 1_555
Ag1A O4 1_555 1_555
Ag1A_2 O5 1_555 1_555
O4A Ag1 1_555 1_555
O5_2 Ag1 1_555 1_555
O5A Ag1 1_555 1_555
C4 C6 1_555 1_555
C5 C7 1_555 1_555
O3 P1 1_555 1_555
Ag1A O4A 1_555 1_555

#END
