
#######################################################################
#
#                 Cambridge Crystallographic Data Centre
#                                CCDC 
#
#######################################################################
#
# If this CIF has been generated from an entry in the Cambridge 
# Structural Database, then it will include bibliographic, chemical, 
# crystal, experimental, refinement or atomic coordinate data resulting 
# from the CCDC's data processing and validation procedures.
#
#######################################################################

data_IGUSAF
_symmetry_cell_setting           monoclinic
_symmetry_space_group_name_H-M   'P 21/n'
_symmetry_Int_Tables_number      14
_space_group_name_Hall           '-P 2yn'
loop_
_symmetry_equiv_pos_site_id
_symmetry_equiv_pos_as_xyz
1 x,y,z
2 1/2-x,1/2+y,1/2-z
3 -x,-y,-z
4 1/2+x,1/2-y,1/2+z
_cell_length_a                   8.3601(4)
_cell_length_b                   8.4784(5)
_cell_length_c                   21.4503(11)
_cell_angle_alpha                90
_cell_angle_beta                 93.878(2)
_cell_angle_gamma                90
_cell_volume                     1516.92
loop_
_atom_site_label
_atom_site_type_symbol
_atom_site_fract_x
_atom_site_fract_y
_atom_site_fract_z
Zn1 Zn 0.22163(6) 0.51846(6) 0.13713(2)
Zn2 Zn 0.62218(6) 0.18770(6) -0.01742(2)
O1 O 0.6379(7) 0.4183(7) 0.0380(3)
H1 H 0.7106 0.4851 0.0315
H2 H 0.5711 0.4370 0.0653
O2 O 0.3342(7) 0.3504(7) 0.0685(3)
O3 O 0.3799(6) 0.1271(7) 0.0171(2)
O4 O 0.1064(7) 0.3560(8) -0.0460(3)
O5 O -0.1571(6) 0.3143(6) -0.0575(2)
O6 O 0.4804(7) 0.6240(7) 0.1256(3)
O7 O 0.4704(7) 0.8847(7) 0.1132(3)
O8 O 0.2055(7) 0.7438(8) 0.1971(3)
O9 O 0.1629(7) 0.8866(9) 0.2797(3)
N1 N 0.4817(7) 0.8999(7) 0.3127(3)
N2 N -0.1523(7) 0.1284(7) 0.0438(3)
C1 C -0.0124(8) 0.1889(8) 0.0273(3)
C2 C 0.1304(8) 0.1561(8) 0.0622(3)
C3 C 0.1243(9) 0.0629(10) 0.1152(4)
H3 H 0.2182 0.0395 0.1392
C4 C -0.0197(10) 0.0054(9) 0.1323(4)
H4 H -0.0254 -0.0560 0.1680
C5 C -0.1555(9) 0.0409(9) 0.0951(4)
H5 H -0.2536 0.0021 0.1063
C6 C -0.0197(9) 0.2968(8) -0.0303(3)
C7 C 0.2929(8) 0.2179(8) 0.0472(3)
C8 C 0.4334(9) 0.8416(8) 0.2571(3)
C9 C 0.5425(9) 0.7966(8) 0.2141(3)
C10 C 0.7055(9) 0.7997(10) 0.2327(4)
H6 H 0.7810 0.7648 0.2060
C11 C 0.7528(9) 0.8554(11) 0.2914(4)
H7 H 0.8608 0.8570 0.3050
C12 C 0.6395(10) 0.9084(10) 0.3298(4)
H8 H 0.6724 0.9513 0.3684
C13 C 0.4919(8) 0.7618(9) 0.1461(3)
C14 C 0.2534(9) 0.8224(8) 0.2439(3)
Zn1B Zn -0.22163(6) 0.48154(6) -0.13713(2)
Zn1A Zn 0.27837(6) 1.01846(6) 0.36287(2)
Zn2_2 Zn -0.37782(6) 0.18770(6) -0.01742(2)
Zn2B Zn 0.37782(6) 0.81230(6) 0.01742(2)
O5B O 0.1571(6) 0.6857(6) 0.0575(2)
O5_2 O 0.8429(6) 0.3143(6) -0.0575(2)
O7B O 0.5296(7) 0.1153(7) -0.1132(3)
O9A O 0.3371(7) 0.3866(9) 0.2203(3)
N1A N 0.0183(7) 0.3999(7) 0.1873(3)
N2_2 N 0.8477(7) 0.1284(7) 0.0438(3)
loop_
_geom_bond_atom_site_label_1
_geom_bond_atom_site_label_2
_geom_bond_site_symmetry_1
_geom_bond_site_symmetry_2
Zn1 O2 1_555 1_555
Zn2 O1 1_555 1_555
O1 H1 1_555 1_555
H2 O1 1_555 1_555
O2 C7 1_555 1_555
O3 Zn2 1_555 1_555
O4 C6 1_555 1_555
O5 C6 1_555 1_555
O6 Zn1 1_555 1_555
O7 C13 1_555 1_555
O8 Zn1 1_555 1_555
O9 C14 1_555 1_555
N1 C8 1_555 1_555
N2 C1 1_555 1_555
C1 C2 1_555 1_555
C2 C3 1_555 1_555
C3 H3 1_555 1_555
C4 C3 1_555 1_555
H4 C4 1_555 1_555
C5 N2 1_555 1_555
H5 C5 1_555 1_555
C6 C1 1_555 1_555
C7 O3 1_555 1_555
C8 C9 1_555 1_555
C9 C10 1_555 1_555
C10 H6 1_555 1_555
C11 C10 1_555 1_555
H7 C11 1_555 1_555
C12 N1 1_555 1_555
H8 C12 1_555 1_555
C13 O6 1_555 1_555
C14 O8 1_555 1_555
Zn1B O5 1_555 1_555
Zn1A O9 1_555 1_555
Zn2_2 O5 1_555 1_555
Zn2B O7 1_555 1_555
O5B Zn1 1_555 1_555
O5_2 Zn2 1_555 1_555
O7B Zn2 1_555 1_555
O9A Zn1 1_555 1_555
N1A Zn1 1_555 1_555
N2_2 Zn2 1_555 1_555
N1 Zn1A 1_555 1_555
N2 Zn2_2 1_555 1_555
C2 C7 1_555 1_555
C4 C5 1_555 1_555
C8 C14 1_555 1_555
C9 C13 1_555 1_555
C11 C12 1_555 1_555
Zn2B O5B 1_555 1_555

#END
