
#######################################################################
#
#                 Cambridge Crystallographic Data Centre
#                                CCDC 
#
#######################################################################
#
# If this CIF has been generated from an entry in the Cambridge 
# Structural Database, then it will include bibliographic, chemical, 
# crystal, experimental, refinement or atomic coordinate data resulting 
# from the CCDC's data processing and validation procedures.
#
#######################################################################

data_IGUSOU
_symmetry_cell_setting           monoclinic
_symmetry_space_group_name_H-M   'P 21/n'
_symmetry_Int_Tables_number      14
_space_group_name_Hall           '-P 2yn'
loop_
_symmetry_equiv_pos_site_id
_symmetry_equiv_pos_as_xyz
1 x,y,z
2 1/2-x,1/2+y,1/2-z
3 -x,-y,-z
4 1/2+x,1/2-y,1/2+z
_cell_length_a                   4.5995(8)
_cell_length_b                   5.6145(16)
_cell_length_c                   33.008(8)
_cell_angle_alpha                90
_cell_angle_beta                 93.909(12)
_cell_angle_gamma                90
_cell_volume                     850.412
loop_
_atom_site_label
_atom_site_type_symbol
_atom_site_fract_x
_atom_site_fract_y
_atom_site_fract_z
Ag1 Ag 0.54412(6) 1.28807(5) 0.26365(2)
P1 P 0.49337(14) 0.81610(13) 0.31278(2)
O1 O 0.3498(5) 0.6465(4) 0.28248(7)
C1 C 0.5160(8) 0.6973(7) 0.39474(10)
H1 H 0.3815 0.8186 0.3978
C2 C 0.8040(8) 0.3752(6) 0.42321(10)
C3 C 0.6234(6) 0.6574(5) 0.35735(9)
O2 O 0.7774(9) 0.2448(7) 0.49042(9)
H2 H 0.8312 0.1386 0.5063
C4 C 0.9207(8) 0.3400(6) 0.38618(10)
H3 H 1.0598 0.2219 0.3834
O3 O 1.0819(8) 0.0605(7) 0.45216(9)
C5 C 0.8936(9) 0.2173(8) 0.45768(11)
O4 O 0.2710(4) 1.0048(4) 0.32662(7)
H4 H 0.1073 0.9718 0.3168
O5 O 0.7465(4) 0.9545(4) 0.29689(7)
C6 C 0.8308(7) 0.4798(6) 0.35353(9)
H5 H 0.9093 0.4555 0.3286
C7 C 0.6071(9) 0.5580(7) 0.42774(11)
H6 H 0.5360 0.5871 0.4530
Ag1_2 Ag 0.54412(6) 0.28807(5) 0.26365(2)
Ag1A Ag -0.04412(6) 0.78807(5) 0.23635(2)
Ag1A_2 Ag 0.95588(6) 0.78807(5) 0.23635(2)
O1_2 O 0.3498(5) 1.6465(4) 0.28248(7)
O1A O 0.1502(5) 1.1465(4) 0.21752(7)
O5A O 0.7535(4) 1.4545(4) 0.20311(7)
loop_
_geom_bond_atom_site_label_1
_geom_bond_atom_site_label_2
_geom_bond_site_symmetry_1
_geom_bond_site_symmetry_2
Ag1 O5 1_555 1_555
P1 O1 1_555 1_555
O1 Ag1_2 1_555 1_555
C1 H1 1_555 1_555
C2 C4 1_555 1_555
C3 P1 1_555 1_555
O2 H2 1_555 1_555
C4 H3 1_555 1_555
O3 C5 1_555 1_555
C5 C2 1_555 1_555
O4 P1 1_555 1_555
H4 O4 1_555 1_555
O5 P1 1_555 1_555
C6 C3 1_555 1_555
H5 C6 1_555 1_555
C7 C1 1_555 1_555
H6 C7 1_555 1_555
Ag1A O1 1_555 1_555
Ag1A_2 O5 1_555 1_555
O1_2 Ag1 1_555 1_555
O1A Ag1 1_555 1_555
O5A Ag1 1_555 1_555
C1 C3 1_555 1_555
C2 C7 1_555 1_555
O2 C5 1_555 1_555
C4 C6 1_555 1_555
Ag1A O1A 1_555 1_555

#END
