
#######################################################################
#
#                 Cambridge Crystallographic Data Centre
#                                CCDC 
#
#######################################################################
#
# If this CIF has been generated from an entry in the Cambridge 
# Structural Database, then it will include bibliographic, chemical, 
# crystal, experimental, refinement or atomic coordinate data resulting 
# from the CCDC's data processing and validation procedures.
#
#######################################################################

data_IGUVAJ
_symmetry_cell_setting           monoclinic
_symmetry_space_group_name_H-M   'P 21/c'
_symmetry_Int_Tables_number      14
_space_group_name_Hall           '-P 2ybc'
loop_
_symmetry_equiv_pos_site_id
_symmetry_equiv_pos_as_xyz
1 x,y,z
2 -x,1/2+y,1/2-z
3 -x,-y,-z
4 x,1/2-y,1/2+z
_cell_length_a                   10.3397(3)
_cell_length_b                   15.6399(5)
_cell_length_c                   14.9889(4)
_cell_angle_alpha                90
_cell_angle_beta                 100.948(3)
_cell_angle_gamma                90
_cell_volume                     2379.77
loop_
_atom_site_label
_atom_site_type_symbol
_atom_site_fract_x
_atom_site_fract_y
_atom_site_fract_z
Cd1 Cd 0.87110(3) 0.577257(18) 0.531517(17)
O1 O 0.7437(3) 0.5519(2) 0.3892(2)
O2 O 0.7004(3) 0.6716(2) 0.5440(2)
O3 O 0.8328(3) 0.6378(2) 0.6738(2)
O4 O 0.9310(3) 0.4812(2) 0.39718(19)
N1 N 1.0056(4) 0.1811(3) 0.0202(3)
N2 N 0.2290(4) 0.9623(3) 0.9131(2)
C1 C 0.8162(4) 0.5015(3) 0.3564(3)
C2 C 0.7646(4) 0.4645(3) 0.2638(3)
C3 C 0.8368(4) 0.4046(3) 0.2252(3)
H1 H 0.9200 0.3864 0.2580
C4 C 0.7892(5) 0.3707(3) 0.1393(3)
C5 C 0.6663(6) 0.3996(5) 0.0923(4)
H2 H 0.6328 0.3784 0.0330
C6 C 0.5936(4) 0.4581(3) 0.1307(3)
H3 H 0.5101 0.4760 0.0981
C7 C 0.6416(4) 0.4914(3) 0.2173(3)
H4 H 0.5923 0.5307 0.2433
C8 C 1.0598(5) 0.2230(4) 0.0960(4)
H5 H 1.1478 0.2095 0.1238
C9 C 0.9941(5) 0.2847(4) 0.1356(4)
H6 H 1.0377 0.3133 0.1888
C10 C 0.8647(4) 0.3054(3) 0.0984(3)
C11 C 0.8102(5) 0.2623(3) 0.0189(3)
H7 H 0.7220 0.2741 -0.0099
C12 C 0.8822(5) 0.2031(3) -0.0182(3)
H8 H 0.8429 0.1764 -0.0737
C13 C 0.7298(4) 0.6728(3) 0.6296(3)
C14 C 0.6371(4) 0.7172(3) 0.6804(3)
C15 C 0.5379(5) 0.7702(4) 0.6342(3)
H9 H 0.5283 0.7775 0.5703
C16 C 0.4538(5) 0.8119(3) 0.6806(3)
H10 H 0.3854 0.8466 0.6478
C17 C 0.4667(4) 0.8044(3) 0.7748(3)
C18 C 0.5641(5) 0.7496(4) 0.8203(3)
H11 H 0.5732 0.7421 0.8841
C19 C 0.6475(5) 0.7062(4) 0.7740(3)
H12 H 0.7123 0.6686 0.8060
C20 C 0.1808(5) 0.9293(3) 0.8304(3)
H13 H 0.0931 0.9433 0.8022
C21 C 0.2518(5) 0.8767(3) 0.7853(3)
H14 H 0.2127 0.8546 0.7274
C22 C 0.3820(4) 0.8549(3) 0.8236(3)
C23 C 0.4301(4) 0.8874(3) 0.9112(3)
H15 H 0.5172 0.8742 0.9414
C24 C 0.3521(4) 0.9378(3) 0.9527(3)
H16 H 0.3858 0.9568 1.0128
Cd1A Cd 0.12890(3) 1.077257(18) 0.968483(17)
Cd1A_2 Cd 1.12890(3) 0.077257(18) -0.031517(17)
Cd1B Cd 1.12890(3) 0.422743(18) 0.468483(17)
O4B O 1.0690(3) 0.5188(2) 0.60282(19)
N1A N 0.9944(4) 0.6811(3) 0.4798(3)
N2A N 0.7710(4) 0.4623(3) 0.5869(2)
loop_
_geom_bond_atom_site_label_1
_geom_bond_atom_site_label_2
_geom_bond_site_symmetry_1
_geom_bond_site_symmetry_2
Cd1 O1 1_555 1_555
O1 C1 1_555 1_555
O2 Cd1 1_555 1_555
O3 Cd1 1_555 1_555
O4 C1 1_555 1_555
N1 C8 1_555 1_555
N2 C20 1_555 1_555
C1 C2 1_555 1_555
C2 C3 1_555 1_555
C3 H1 1_555 1_555
C4 C3 1_555 1_555
C5 C4 1_555 1_555
H2 C5 1_555 1_555
C6 C5 1_555 1_555
H3 C6 1_555 1_555
C7 C2 1_555 1_555
H4 C7 1_555 1_555
C8 H5 1_555 1_555
C9 C8 1_555 1_555
H6 C9 1_555 1_555
C10 C4 1_555 1_555
C11 C10 1_555 1_555
H7 C11 1_555 1_555
C12 N1 1_555 1_555
H8 C12 1_555 1_555
C13 O2 1_555 1_555
C14 C13 1_555 1_555
C15 C14 1_555 1_555
H9 C15 1_555 1_555
C16 C15 1_555 1_555
H10 C16 1_555 1_555
C17 C16 1_555 1_555
C18 C17 1_555 1_555
H11 C18 1_555 1_555
C19 C14 1_555 1_555
H12 C19 1_555 1_555
C20 H13 1_555 1_555
C21 C20 1_555 1_555
H14 C21 1_555 1_555
C22 C17 1_555 1_555
C23 C22 1_555 1_555
H15 C23 1_555 1_555
C24 N2 1_555 1_555
H16 C24 1_555 1_555
Cd1A N2 1_555 1_555
Cd1A_2 N1 1_555 1_555
Cd1B O4 1_555 1_555
O4B Cd1 1_555 1_555
N1A Cd1 1_555 1_555
N2A Cd1 1_555 1_555
O3 C13 1_555 1_555
C6 C7 1_555 1_555
C9 C10 1_555 1_555
C11 C12 1_555 1_555
C18 C19 1_555 1_555
C21 C22 1_555 1_555
C23 C24 1_555 1_555

#END
