
#######################################################################
#
#                 Cambridge Crystallographic Data Centre
#                                CCDC 
#
#######################################################################
#
# If this CIF has been generated from an entry in the Cambridge 
# Structural Database, then it will include bibliographic, chemical, 
# crystal, experimental, refinement or atomic coordinate data resulting 
# from the CCDC's data processing and validation procedures.
#
#######################################################################

data_IGUXUE
_symmetry_cell_setting           monoclinic
_symmetry_space_group_name_H-M   'P n'
_symmetry_Int_Tables_number      7
_space_group_name_Hall           'P -2yac'
loop_
_symmetry_equiv_pos_site_id
_symmetry_equiv_pos_as_xyz
1 x,y,z
2 1/2+x,-y,1/2+z
_cell_length_a                   5.597(9)
_cell_length_b                   9.4250(14)
_cell_length_c                   20.540(2)
_cell_angle_alpha                90
_cell_angle_beta                 97.234(2)
_cell_angle_gamma                90
_cell_volume                     1074.9
loop_
_atom_site_label
_atom_site_type_symbol
_atom_site_fract_x
_atom_site_fract_y
_atom_site_fract_z
N1 N 0.2525(9) 0.9110(5) 0.5003(3)
C1 C 0.0702(11) 0.8164(6) 0.4849(3)
C2 C 0.0870(18) 0.6734(9) 0.5185(4)
H1 H -0.0422 0.6127 0.4988
H2 H 0.2388 0.6288 0.5126
Ag1 Ag 0.58656(4) 0.85721(4) 0.56192(3)
N2 N 0.0697(12) 0.6894(7) 0.5900(3)
N3 N -0.0527(9) 0.7571(5) 0.6800(2)
C3 C 0.1068(16) 1.0390(9) 0.7229(5)
H3 H 0.1906 0.9914 0.6932
C4 C -0.1043(10) 0.7649(6) 0.6140(3)
C5 C 0.1501(11) 0.6739(6) 0.6983(3)
C6 C 0.2297(11) 0.6293(6) 0.6405(3)
C7 C 0.4258(12) 0.5379(6) 0.6397(4)
H4 H 0.4761 0.5043 0.6011
C8 C 0.5400(14) 0.5012(7) 0.7017(5)
H5 H 0.6774 0.4450 0.7044
C9 C 0.4596(13) 0.5440(7) 0.7590(4)
H6 H 0.5391 0.5128 0.7989
C10 C 0.2667(14) 0.6307(7) 0.7585(3)
H7 H 0.2140 0.6604 0.7974
C11 C -0.1297(12) 0.8539(7) 0.4419(3)
H8 H -0.2531 0.7886 0.4312
C12 C -0.1460(13) 0.9851(8) 0.4155(3)
H9 H -0.2782 1.0094 0.3855
C13 C 0.0306(15) 1.0818(9) 0.4328(4)
H10 H 0.0169 1.1745 0.4173
C14 C 0.2311(13) 1.0381(7) 0.4739(3)
H11 H 0.3575 1.1018 0.4834
C15 C -0.1869(12) 0.8300(6) 0.7265(3)
H12 H -0.1837 0.7720 0.7657
H13 H -0.3536 0.8387 0.7073
C16 C -0.0922(11) 0.9760(6) 0.7464(3)
C17 C -0.2154(13) 1.0537(8) 0.7880(3)
H14 H -0.3507 1.0142 0.8030
C18 C -0.1437(14) 1.1890(8) 0.8083(4)
H15 H -0.2292 1.2391 0.8368
C19 C 0.0501(15) 1.2474(8) 0.7864(4)
H16 H 0.0994 1.3383 0.7996
C20 C 0.1757(14) 1.1716(7) 0.7443(4)
H17 H 0.3114 1.2122 0.7300
Ag1_2 Ag -0.41344(4) 0.85721(4) 0.56192(3)
C4_2 C 0.8957(10) 0.7649(6) 0.6140(3)
B1 B 0.492(3) 0.4221(12) 0.4304(5)
F1 F 0.4181(19) 0.3841(7) 0.4879(4)
F2 F 0.360(4) 0.5298(15) 0.3998(7)
F3 F 0.456(4) 0.3061(16) 0.3902(8)
F4 F 0.729(3) 0.452(2) 0.4252(8)
N4 N -0.3988(19) 1.1289(7) 0.6049(5)
C21 C -0.2430(17) 1.2027(9) 0.5959(4)
C22 C -0.0519(19) 1.2928(11) 0.5844(5)
H18 H -0.0523 1.3755 0.6117
H19 H -0.0714 1.3210 0.5391
H20 H 0.0981 1.2434 0.5945
F5? F 0.542(6) 0.563(2) 0.4376(15)
F6? F 0.332(5) 0.394(4) 0.3772(13)
F7? F 0.687(6) 0.338(3) 0.4250(12)
loop_
_geom_bond_atom_site_label_1
_geom_bond_atom_site_label_2
_geom_bond_site_symmetry_1
_geom_bond_site_symmetry_2
N1 C1 1_555 1_555
C1 C2 1_555 1_555
C2 H1 1_555 1_555
H2 C2 1_555 1_555
Ag1 N1 1_555 1_555
B1 F1 1_555 1_555
F2 B1 1_555 1_555
F3 B1 1_555 1_555
F4 B1 1_555 1_555
N2 C2 1_555 1_555
N3 C4 1_555 1_555
C3 H3 1_555 1_555
N4 C21 1_555 1_555
C4 N2 1_555 1_555
C5 N3 1_555 1_555
C6 N2 1_555 1_555
C7 C6 1_555 1_555
H4 C7 1_555 1_555
C8 C7 1_555 1_555
H5 C8 1_555 1_555
C9 C8 1_555 1_555
H6 C9 1_555 1_555
C10 C5 1_555 1_555
H7 C10 1_555 1_555
C11 C1 1_555 1_555
H8 C11 1_555 1_555
C12 C11 1_555 1_555
H9 C12 1_555 1_555
C13 C12 1_555 1_555
H10 C13 1_555 1_555
C14 N1 1_555 1_555
H11 C14 1_555 1_555
C15 N3 1_555 1_555
H12 C15 1_555 1_555
H13 C15 1_555 1_555
C16 C3 1_555 1_555
C17 C16 1_555 1_555
H14 C17 1_555 1_555
C18 C17 1_555 1_555
H15 C18 1_555 1_555
C19 C18 1_555 1_555
H16 C19 1_555 1_555
C20 C3 1_555 1_555
H17 C20 1_555 1_555
C21 C22 1_555 1_555
C22 H18 1_555 1_555
H19 C22 1_555 1_555
H20 C22 1_555 1_555
Ag1_2 C4 1_555 1_555
C4_2 Ag1 1_555 1_555
C5 C6 1_555 1_555
C9 C10 1_555 1_555
C13 C14 1_555 1_555
C15 C16 1_555 1_555
C19 C20 1_555 1_555

#END
