
#######################################################################
#
#                 Cambridge Crystallographic Data Centre
#                                CCDC 
#
#######################################################################
#
# If this CIF has been generated from an entry in the Cambridge 
# Structural Database, then it will include bibliographic, chemical, 
# crystal, experimental, refinement or atomic coordinate data resulting 
# from the CCDC's data processing and validation procedures.
#
#######################################################################

data_IHANEL
_symmetry_cell_setting           triclinic
_symmetry_space_group_name_H-M   'P -1'
_symmetry_Int_Tables_number      2
_space_group_name_Hall           '-P 1'
loop_
_symmetry_equiv_pos_site_id
_symmetry_equiv_pos_as_xyz
1 x,y,z
2 -x,-y,-z
_cell_length_a                   8.9260(18)
_cell_length_b                   10.208(2)
_cell_length_c                   15.643(3)
_cell_angle_alpha                100.485(15)
_cell_angle_beta                 98.867(15)
_cell_angle_gamma                95.070(16)
_cell_volume                     1374.81
loop_
_atom_site_label
_atom_site_type_symbol
_atom_site_fract_x
_atom_site_fract_y
_atom_site_fract_z
C1 C 0.5813(10) 0.3220(7) 0.9687(6)
C2 C 0.6895(10) 0.4301(8) 0.9601(6)
H1 H 0.7896 0.4536 0.9917
C3 C 0.6167(10) 0.4937(8) 0.8956(6)
H2 H 0.6616 0.5667 0.8757
C4 C 0.4636(10) 0.4298(8) 0.8648(6)
H3 H 0.3900 0.4545 0.8229
C5 C 0.4441(10) 0.3226(8) 0.9094(6)
H4 H 0.3551 0.2619 0.9012
C6 C 0.6960(9) 0.0902(7) 1.0044(6)
C7 C 0.8357(9) -0.1052(8) 0.9836(6)
C8 C 0.9165(9) -0.2149(8) 0.9821(6)
H5 H 0.9529 -0.2425 1.0348
C9 C 0.9431(10) -0.2829(8) 0.9028(7)
H6 H 0.9974 -0.3579 0.9008
C10 C 0.8893(10) -0.2406(10) 0.8252(7)
H7 H 0.9088 -0.2878 0.7714
C11 C 0.8085(10) -0.1320(9) 0.8246(6)
H8 H 0.7730 -0.1043 0.7718
C12 C 0.7810(9) -0.0635(8) 0.9072(6)
C13 C 0.4174(11) 0.3277(9) 0.5286(6)
C14 C 0.4468(15) 0.3032(12) 0.4401(8)
H9 H 0.5146 0.2463 0.4172
C15 C 0.3533(19) 0.3818(17) 0.3940(9)
H10 H 0.3476 0.3847 0.3339
C16 C 0.2706(15) 0.4546(14) 0.4514(12)
H11 H 0.2031 0.5159 0.4368
C17 C 0.3046(12) 0.4213(10) 0.5318(9)
H12 H 0.2618 0.4539 0.5816
C18 C 0.4087(11) 0.1208(9) 0.6168(7)
C19 C 0.2326(11) -0.0872(9) 0.5895(7)
C20 C 0.1176(12) -0.1957(10) 0.5672(7)
H13 H 0.0414 -0.2088 0.5167
C21 C 0.1257(12) -0.2831(10) 0.6265(8)
H14 H 0.0576 -0.3626 0.6121
C22 C 0.2270(12) -0.2596(10) 0.7042(7)
H15 H 0.2229 -0.3199 0.7428
C23 C 0.3355(11) -0.1481(9) 0.7265(6)
H16 H 0.4069 -0.1329 0.7792
C24 C 0.3364(11) -0.0580(9) 0.6686(6)
N1 N 0.7000(8) 0.0510(6) 0.9193(5)
N2 N 0.4360(9) 0.0599(7) 0.6847(5)
S1 S 0.6062(3) 0.2249(2) 1.05152(16)
S2 S 0.7854(3) -0.0034(2) 1.07488(16)
S3 S 0.5203(3) 0.2705(3) 0.61693(19)
S4 S 0.2652(3) 0.0402(3) 0.52962(19)
S5 S 0.9492(4) 0.3470(3) 0.7730(2)
F1 F 0.9359(10) 0.1418(7) 0.6447(5)
F2 F 1.0839(13) 0.1374(9) 0.7649(6)
F3 F 1.1473(12) 0.2682(13) 0.6878(8)
Fe1 Fe 0.5000 0.5000 1.0000
Fe2 Fe 0.5000 0.5000 0.5000
Ag1 Ag 0.60109(10) 0.13540(8) 0.80539(5)
O1 O 0.8276(11) 0.2635(11) 0.7947(8)
O2 O 1.0694(9) 0.4102(8) 0.8451(6)
O3 O 0.9103(13) 0.4305(7) 0.7119(6)
C25 C 1.0237(11) 0.2197(12) 0.7156(7)
C1A C 0.4187(10) 0.6780(7) 0.0313(6)
C1A_2 C 0.4187(10) 0.6780(7) 1.0313(6)
C2A C 0.3105(10) 0.5699(8) 0.0399(6)
C2A_2 C 0.3105(10) 0.5699(8) 1.0399(6)
H1A H 0.2104 0.5464 0.0083
H1A_2 H 0.2104 0.5464 1.0083
C3A C 0.3833(10) 0.5063(8) 0.1044(6)
C3A_2 C 0.3833(10) 0.5063(8) 1.1044(6)
H2A H 0.3384 0.4333 0.1243
H2A_2 H 0.3384 0.4333 1.1243
C4A C 0.5364(10) 0.5702(8) 0.1352(6)
C4A_2 C 0.5364(10) 0.5702(8) 1.1352(6)
H3A H 0.6100 0.5455 0.1771
H3A_2 H 0.6100 0.5455 1.1771
C5A C 0.5559(10) 0.6774(8) 0.0906(6)
C5A_2 C 0.5559(10) 0.6774(8) 1.0906(6)
H4A H 0.6449 0.7381 0.0988
H4A_2 H 0.6449 0.7381 1.0988
C6A C 0.3040(9) 0.9098(7) -0.0044(6)
C7A C 0.1643(9) 1.1052(8) 0.0164(6)
C8A C 0.0835(9) 1.2149(8) 0.0179(6)
H5A H 0.0471 1.2425 -0.0348
C9A C 0.0569(10) 1.2829(8) 0.0972(7)
H6A H 0.0026 1.3579 0.0992
C10A C 0.1107(10) 1.2406(10) 0.1748(7)
H7A H 0.0912 1.2878 0.2286
C11A C 0.1915(10) 1.1320(9) 0.1754(6)
H8A H 0.2270 1.1043 0.2282
C12A C 0.2190(9) 1.0635(8) 0.0928(6)
C13A C 0.5826(11) 0.6723(9) 0.4714(6)
C14A C 0.5532(15) 0.6968(12) 0.5599(8)
H9A H 0.4854 0.7537 0.5828
C15A C 0.6467(19) 0.6182(17) 0.6060(9)
H10A H 0.6524 0.6153 0.6661
C16A C 0.7294(15) 0.5454(14) 0.5486(12)
H11A H 0.7969 0.4841 0.5632
C17A C 0.6954(12) 0.5787(10) 0.4682(9)
H12A H 0.7382 0.5461 0.4184
C18A C 0.5913(11) 0.8792(9) 0.3832(7)
C19A C 0.7674(11) 1.0872(9) 0.4105(7)
C20A C 0.8824(12) 1.1957(10) 0.4328(7)
H13A H 0.9586 1.2088 0.4833
C21A C 0.8743(12) 1.2831(10) 0.3735(8)
H14A H 0.9424 1.3626 0.3879
C22A C 0.7730(12) 1.2596(10) 0.2958(7)
H15A H 0.7771 1.3199 0.2572
C23A C 0.6645(11) 1.1481(9) 0.2735(6)
H16A H 0.5931 1.1329 0.2208
C24A C 0.6636(11) 1.0580(9) 0.3314(6)
N1A N 0.3000(8) 0.9490(6) 0.0807(5)
N2A N 0.5640(9) 0.9401(7) 0.3153(5)
S1A S 0.3938(3) 0.7751(2) -0.05152(16)
S2A S 0.2146(3) 1.0034(2) -0.07488(16)
S3A S 0.4797(3) 0.7295(3) 0.38307(19)
S4A S 0.7348(3) 0.9598(3) 0.47038(19)
S5A S 0.0508(4) 0.6530(3) 0.2270(2)
F1A F 0.0641(10) 0.8582(7) 0.3553(5)
F2A F -0.0839(13) 0.8626(9) 0.2351(6)
F3A F -0.1473(12) 0.7318(13) 0.3122(8)
Fe1_2 Fe 0.5000 0.5000 0.0000
Ag1A Ag 0.39891(10) 0.86460(8) 0.19461(5)
O1A O 0.1724(11) 0.7365(11) 0.2053(8)
O2A O -0.0694(9) 0.5898(8) 0.1549(6)
O3A O 0.0897(13) 0.5695(7) 0.2881(6)
C25A C -0.0237(11) 0.7803(12) 0.2844(7)
loop_
_geom_bond_atom_site_label_1
_geom_bond_atom_site_label_2
_geom_bond_site_symmetry_1
_geom_bond_site_symmetry_2
C1 C2 1_555 1_555
C2 H1 1_555 1_555
C3 C2 1_555 1_555
H2 C3 1_555 1_555
C4 C3 1_555 1_555
H3 C4 1_555 1_555
C5 C1 1_555 1_555
H4 C5 1_555 1_555
C6 N1 1_555 1_555
C7 C8 1_555 1_555
C8 H5 1_555 1_555
C9 C8 1_555 1_555
H6 C9 1_555 1_555
C10 C9 1_555 1_555
H7 C10 1_555 1_555
C11 C10 1_555 1_555
H8 C11 1_555 1_555
C12 C7 1_555 1_555
C13 C14 1_555 1_555
C14 H9 1_555 1_555
C15 C14 1_555 1_555
H10 C15 1_555 1_555
C16 C15 1_555 1_555
H11 C16 1_555 1_555
C17 C13 1_555 1_555
H12 C17 1_555 1_555
C18 N2 1_555 1_555
C19 C20 1_555 1_555
C20 H13 1_555 1_555
C21 C20 1_555 1_555
H14 C21 1_555 1_555
C22 C21 1_555 1_555
H15 C22 1_555 1_555
C23 C22 1_555 1_555
H16 C23 1_555 1_555
C24 C19 1_555 1_555
N1 C12 1_555 1_555
N2 C24 1_555 1_555
S1 C1 1_555 1_555
S2 C6 1_555 1_555
S3 C13 1_555 1_555
S4 C18 1_555 1_555
S5 O1 1_555 1_555
F1 C25 1_555 1_555
F2 C25 1_555 1_555
F3 C25 1_555 1_555
Fe1 C1 1_555 1_555
Fe2 C13 1_555 1_555
Ag1 N1 1_555 1_555
O1 Ag1 1_555 1_555
O2 S5 1_555 1_555
O3 S5 1_555 1_555
C25 S5 1_555 1_555
C1A C2A 1_555 1_555
C1A_2 Fe1 1_555 1_555
C2A H1A 1_555 1_555
C2A_2 Fe1 1_555 1_555
H1A_2 C2A_2 1_555 1_555
C3A C2A 1_555 1_555
C3A_2 Fe1 1_555 1_555
H2A C3A 1_555 1_555
H2A_2 C3A_2 1_555 1_555
C4A C3A 1_555 1_555
C4A_2 Fe1 1_555 1_555
H3A C4A 1_555 1_555
H3A_2 C4A_2 1_555 1_555
C5A C1A 1_555 1_555
C5A_2 Fe1 1_555 1_555
H4A C5A 1_555 1_555
H4A_2 C5A_2 1_555 1_555
C6A N1A 1_555 1_555
C7A C8A 1_555 1_555
C8A H5A 1_555 1_555
C9A C8A 1_555 1_555
H6A C9A 1_555 1_555
C10A C9A 1_555 1_555
H7A C10A 1_555 1_555
C11A C10A 1_555 1_555
H8A C11A 1_555 1_555
C12A C7A 1_555 1_555
C13A Fe2 1_555 1_555
C14A Fe2 1_555 1_555
H9A C14A 1_555 1_555
C15A Fe2 1_555 1_555
H10A C15A 1_555 1_555
C16A Fe2 1_555 1_555
H11A C16A 1_555 1_555
C17A Fe2 1_555 1_555
H12A C17A 1_555 1_555
C18A N2A 1_555 1_555
C19A C20A 1_555 1_555
C20A H13A 1_555 1_555
C21A C20A 1_555 1_555
H14A C21A 1_555 1_555
C22A C21A 1_555 1_555
H15A C22A 1_555 1_555
C23A C22A 1_555 1_555
H16A C23A 1_555 1_555
C24A C19A 1_555 1_555
N1A C12A 1_555 1_555
N2A C24A 1_555 1_555
S1A C1A 1_555 1_555
S2A C6A 1_555 1_555
S3A C13A 1_555 1_555
S4A C18A 1_555 1_555
S5A O1A 1_555 1_555
F1A C25A 1_555 1_555
F2A C25A 1_555 1_555
F3A C25A 1_555 1_555
Fe1_2 C1A 1_555 1_555
Ag1A N1A 1_555 1_555
O1A Ag1A 1_555 1_555
O2A S5A 1_555 1_555
O3A S5A 1_555 1_555
C25A S5A 1_555 1_555
C2 Fe1 1_555 1_555
C3 Fe1 1_555 1_555
C4 C5 1_555 1_555
C4 Fe1 1_555 1_555
C5 Fe1 1_555 1_555
C6 S1 1_555 1_555
C7 S2 1_555 1_555
C11 C12 1_555 1_555
C14 Fe2 1_555 1_555
C15 Fe2 1_555 1_555
C16 C17 1_555 1_555
C16 Fe2 1_555 1_555
C17 Fe2 1_555 1_555
C18 S3 1_555 1_555
C19 S4 1_555 1_555
C23 C24 1_555 1_555
N2 Ag1 1_555 1_555
C1A_2 C2A_2 1_555 1_555
C1A_2 C5A_2 1_555 1_555
C2A Fe1_2 1_555 1_555
C2A_2 C3A_2 1_555 1_555
C3A Fe1_2 1_555 1_555
C3A_2 C4A_2 1_555 1_555
C4A C5A 1_555 1_555
C4A Fe1_2 1_555 1_555
C4A_2 C5A_2 1_555 1_555
C5A Fe1_2 1_555 1_555
C6A S1A 1_555 1_555
C7A S2A 1_555 1_555
C11A C12A 1_555 1_555
C13A C14A 1_555 1_555
C13A C17A 1_555 1_555
C14A C15A 1_555 1_555
C15A C16A 1_555 1_555
C16A C17A 1_555 1_555
C18A S3A 1_555 1_555
C19A S4A 1_555 1_555
C23A C24A 1_555 1_555
N2A Ag1A 1_555 1_555

#END
