
#######################################################################
#
#                 Cambridge Crystallographic Data Centre
#                                CCDC 
#
#######################################################################
#
# If this CIF has been generated from an entry in the Cambridge 
# Structural Database, then it will include bibliographic, chemical, 
# crystal, experimental, refinement or atomic coordinate data resulting 
# from the CCDC's data processing and validation procedures.
#
#######################################################################

data_IHANAH
_symmetry_cell_setting           monoclinic
_symmetry_space_group_name_H-M   'C 2/c'
_symmetry_Int_Tables_number      15
_space_group_name_Hall           '-C 2yn'
loop_
_symmetry_equiv_pos_site_id
_symmetry_equiv_pos_as_xyz
1 x,y,z
2 -x,y,1/2-z
3 1/2+x,1/2+y,z
4 1/2-x,1/2+y,1/2-z
5 -x,-y,-z
6 x,-y,1/2+z
7 1/2-x,1/2-y,-z
8 1/2+x,1/2-y,1/2+z
_cell_length_a                   14.271(2)
_cell_length_b                   12.9492(14)
_cell_length_c                   14.910(2)
_cell_angle_alpha                90
_cell_angle_beta                 116.271(11)
_cell_angle_gamma                90
_cell_volume                     2470.74
loop_
_atom_site_label
_atom_site_type_symbol
_atom_site_fract_x
_atom_site_fract_y
_atom_site_fract_z
C1 C 1.1040(3) 0.6892(3) 0.9337(3)
C2 C 1.1204(3) 0.7552(4) 0.8651(3)
H1 H 1.1168 0.7354 0.8023
C3 C 1.1431(3) 0.8554(4) 0.9076(4)
H2 H 1.1576 0.9145 0.8781
C4 C 1.1406(3) 0.8525(4) 1.0016(4)
H3 H 1.1527 0.9095 1.0455
C5 C 1.1168(3) 0.7500(4) 1.0192(4)
H4 H 1.1106 0.7261 1.0766
C6 C 0.9539(3) 0.5409(3) 0.8537(3)
C7 C 0.7634(3) 0.5554(3) 0.7813(3)
C8 C 0.6562(4) 0.5738(4) 0.7444(4)
H5 H 0.6308 0.6324 0.7652
C9 C 0.5884(3) 0.5038(4) 0.6765(4)
H6 H 0.5152 0.5138 0.6516
C10 C 0.6250(3) 0.4191(4) 0.6440(4)
H7 H 0.5761 0.3733 0.5966
C11 C 0.7317(3) 0.3998(4) 0.6792(4)
H8 H 0.7563 0.3417 0.6570
C12 C 0.8007(3) 0.4694(3) 0.7483(3)
N1 N 0.9109(3) 0.4640(3) 0.7908(3)
S1 S 1.08969(8) 0.55326(9) 0.92353(10)
S2 S 0.86729(9) 0.62751(9) 0.86662(9)
Cl1 Cl 0.91291(9) 0.26768(9) 0.61191(9)
Fe1 Fe 1.2500 0.7500 1.0000
Zn1 Zn 1.0000 0.36142(5) 0.7500
C1A C 0.8960(3) 0.6892(3) 0.5663(3)
C1F C 1.3960(3) 0.8108(3) 1.0663(3)
C2A C 0.8796(3) 0.7552(4) 0.6349(3)
C2F C 1.3796(3) 0.7448(4) 1.1349(3)
H1A H 0.8832 0.7354 0.6977
H1F H 1.3832 0.7646 1.1977
C3A C 0.8569(3) 0.8554(4) 0.5924(4)
C3F C 1.3569(3) 0.6446(4) 1.0924(4)
H2A H 0.8424 0.9145 0.6219
H2F H 1.3424 0.5855 1.1219
C4A C 0.8594(3) 0.8525(4) 0.4984(4)
C4F C 1.3594(3) 0.6475(4) 0.9984(4)
H3A H 0.8473 0.9095 0.4545
H3F H 1.3473 0.5905 0.9545
C5A C 0.8832(3) 0.7500(4) 0.4808(4)
C5F C 1.3832(3) 0.7500(4) 0.9808(4)
H4A H 0.8894 0.7261 0.4234
H4F H 1.3894 0.7739 0.9234
C6A C 1.0461(3) 0.5409(3) 0.6463(3)
C7A C 1.2366(3) 0.5554(3) 0.7187(3)
C8A C 1.3438(4) 0.5738(4) 0.7556(4)
H5A H 1.3692 0.6324 0.7348
C9A C 1.4116(3) 0.5038(4) 0.8235(4)
H6A H 1.4848 0.5138 0.8484
C10A C 1.3750(3) 0.4191(4) 0.8560(4)
H7A H 1.4239 0.3733 0.9034
C11A C 1.2683(3) 0.3998(4) 0.8208(4)
H8A H 1.2437 0.3417 0.8430
C12A C 1.1993(3) 0.4694(3) 0.7517(3)
N1A N 1.0891(3) 0.4640(3) 0.7092(3)
S1A S 0.91031(8) 0.55326(9) 0.57647(10)
S2A S 1.13271(9) 0.62751(9) 0.63338(9)
Cl1A Cl 1.08709(9) 0.26768(9) 0.88809(9)
Fe1A Fe 0.7500 0.7500 0.5000
loop_
_geom_bond_atom_site_label_1
_geom_bond_atom_site_label_2
_geom_bond_site_symmetry_1
_geom_bond_site_symmetry_2
C1 C2 1_555 1_555
C2 H1 1_555 1_555
C3 C2 1_555 1_555
H2 C3 1_555 1_555
C4 C3 1_555 1_555
H3 C4 1_555 1_555
C5 C1 1_555 1_555
H4 C5 1_555 1_555
C6 N1 1_555 1_555
C7 C8 1_555 1_555
C8 H5 1_555 1_555
C9 C8 1_555 1_555
H6 C9 1_555 1_555
C10 C9 1_555 1_555
H7 C10 1_555 1_555
C11 C10 1_555 1_555
H8 C11 1_555 1_555
C12 C7 1_555 1_555
N1 C12 1_555 1_555
S1 C1 1_555 1_555
S2 C6 1_555 1_555
Cl1 Zn1 1_555 1_555
Fe1 C1 1_555 1_555
Zn1 N1 1_555 1_555
C1A C2A 1_555 1_555
C1F Fe1 1_555 1_555
C2A H1A 1_555 1_555
C2F Fe1 1_555 1_555
H1F C2F 1_555 1_555
C3A C2A 1_555 1_555
C3F Fe1 1_555 1_555
H2A C3A 1_555 1_555
H2F C3F 1_555 1_555
C4A C3A 1_555 1_555
C4F Fe1 1_555 1_555
H3A C4A 1_555 1_555
H3F C4F 1_555 1_555
C5A C1A 1_555 1_555
C5F Fe1 1_555 1_555
H4A C5A 1_555 1_555
H4F C5F 1_555 1_555
C6A N1A 1_555 1_555
C7A C8A 1_555 1_555
C8A H5A 1_555 1_555
C9A C8A 1_555 1_555
H6A C9A 1_555 1_555
C10A C9A 1_555 1_555
H7A C10A 1_555 1_555
C11A C10A 1_555 1_555
H8A C11A 1_555 1_555
C12A C7A 1_555 1_555
N1A Zn1 1_555 1_555
S1A C1A 1_555 1_555
S2A C6A 1_555 1_555
Cl1A Zn1 1_555 1_555
Fe1A C1A 1_555 1_555
C2 Fe1 1_555 1_555
C3 Fe1 1_555 1_555
C4 C5 1_555 1_555
C4 Fe1 1_555 1_555
C5 Fe1 1_555 1_555
C6 S1 1_555 1_555
C7 S2 1_555 1_555
C11 C12 1_555 1_555
C1F C2F 1_555 1_555
C1F C5F 1_555 1_555
C2A Fe1A 1_555 1_555
C2F C3F 1_555 1_555
C3A Fe1A 1_555 1_555
C3F C4F 1_555 1_555
C4A C5A 1_555 1_555
C4A Fe1A 1_555 1_555
C4F C5F 1_555 1_555
C5A Fe1A 1_555 1_555
C6A S1A 1_555 1_555
C7A S2A 1_555 1_555
C11A C12A 1_555 1_555
C12A N1A 1_555 1_555

#END
