
#######################################################################
#
#                 Cambridge Crystallographic Data Centre
#                                CCDC 
#
#######################################################################
#
# If this CIF has been generated from an entry in the Cambridge 
# Structural Database, then it will include bibliographic, chemical, 
# crystal, experimental, refinement or atomic coordinate data resulting 
# from the CCDC's data processing and validation procedures.
#
#######################################################################

data_IHAWET
_symmetry_cell_setting           monoclinic
_symmetry_space_group_name_H-M   'C 2/c'
_symmetry_Int_Tables_number      15
_space_group_name_Hall           '-C 2yn'
loop_
_symmetry_equiv_pos_site_id
_symmetry_equiv_pos_as_xyz
1 x,y,z
2 -x,y,1/2-z
3 1/2+x,1/2+y,z
4 1/2-x,1/2+y,1/2-z
5 -x,-y,-z
6 x,-y,1/2+z
7 1/2-x,1/2-y,-z
8 1/2+x,1/2-y,1/2+z
_cell_length_a                   6.6849(10)
_cell_length_b                   17.476(2)
_cell_length_c                   13.231(2)
_cell_angle_alpha                90
_cell_angle_beta                 91.142(3)
_cell_angle_gamma                90
_cell_volume                     1545.41
loop_
_atom_site_label
_atom_site_type_symbol
_atom_site_fract_x
_atom_site_fract_y
_atom_site_fract_z
Cd1 Cd 0.0000 0.1121(1) 0.2500
N1 N 0.1668(14) 0.2207(5) 0.1957(7)
N2 N 0.2043(17) 0.0307(6) 0.1620(9)
C1 C 0.0915(14) 0.2893(7) 0.2205(9)
C2 C 0.2591(17) -0.0110(8) 0.1058(10)
C3 C 0.3333(19) 0.2171(7) 0.1414(10)
N3 N 0.3240(17) -0.0617(9) 0.0502(11)
C4 C 0.1860(20) 0.3548(7) 0.1838(13)
C5 C 0.4320(20) 0.2831(10) 0.1070(11)
C6 C 0.3510(20) 0.3512(11) 0.1292(14)
C7 C 0.2621(17) -0.0821(7) -0.0356(14)
N4 N 0.2212(19) -0.1054(7) -0.1104(10)
H1 H 0.3858 0.1693 0.1259
H2 H 0.1324 0.4025 0.1981
H3 H 0.5487 0.2795 0.0701
H4 H 0.4109 0.3960 0.1065
C1A C -0.0915(14) 0.2893(7) 0.2795(9)
N1A N -0.1668(14) 0.2207(5) 0.3043(7)
C3A C -0.3333(19) 0.2171(7) 0.3586(10)
C5A C -0.4320(20) 0.2831(10) 0.3930(11)
C6A C -0.3510(20) 0.3512(11) 0.3708(14)
C4A C -0.1860(20) 0.3548(7) 0.3162(13)
H2A H -0.1324 0.4025 0.3019
H4A H -0.4109 0.3960 0.3935
H3A H -0.5487 0.2795 0.4299
H1A H -0.3858 0.1693 0.3741
N2A N -0.2043(17) 0.0307(6) 0.3380(9)
C2A C -0.2591(17) -0.0110(8) 0.3942(10)
N3A N -0.3240(17) -0.0617(9) 0.4498(11)
C7A C -0.2621(17) -0.0821(7) 0.5356(14)
N4A N -0.2212(19) -0.1054(7) 0.6104(10)
N4D N -0.2212(19) 0.1054(7) 0.1104(10)
N4E N 0.2212(19) 0.1054(7) 0.3896(10)
Cd1D Cd 0.0000 -0.1121(1) -0.2500
Cd1D_2 Cd 0.0000 -0.1121(1) 0.7500
loop_
_geom_bond_atom_site_label_1
_geom_bond_atom_site_label_2
_geom_bond_site_symmetry_1
_geom_bond_site_symmetry_2
Cd1 N1 1_555 1_555
N1 C1 1_555 1_555
N2 Cd1 1_555 1_555
C1 C4 1_555 1_555
C2 N2 1_555 1_555
C3 N1 1_555 1_555
N3 C2 1_555 1_555
C4 C6 1_555 1_555
C5 C3 1_555 1_555
C6 C5 1_555 1_555
C7 N3 1_555 1_555
N4 C7 1_555 1_555
H1 C3 1_555 1_555
H2 C4 1_555 1_555
H3 C5 1_555 1_555
H4 C6 1_555 1_555
C1A C1 1_555 1_555
N1A Cd1 1_555 1_555
C3A N1A 1_555 1_555
C5A C3A 1_555 1_555
C6A C5A 1_555 1_555
C4A C1A 1_555 1_555
H2A C4A 1_555 1_555
H4A C6A 1_555 1_555
H3A C5A 1_555 1_555
H1A C3A 1_555 1_555
N2A Cd1 1_555 1_555
C2A N2A 1_555 1_555
N3A C2A 1_555 1_555
C7A N3A 1_555 1_555
N4A C7A 1_555 1_555
N4D Cd1 1_555 1_555
N4E Cd1 1_555 1_555
Cd1D N4 1_555 1_555
Cd1D_2 N4A 1_555 1_555
C1A N1A 1_555 1_555
C6A C4A 1_555 1_555

#END
