
#######################################################################
#
#                 Cambridge Crystallographic Data Centre
#                                CCDC 
#
#######################################################################
#
# If this CIF has been generated from an entry in the Cambridge 
# Structural Database, then it will include bibliographic, chemical, 
# crystal, experimental, refinement or atomic coordinate data resulting 
# from the CCDC's data processing and validation procedures.
#
#######################################################################

data_IHAWAR
_symmetry_cell_setting           monoclinic
_symmetry_space_group_name_H-M   'C c'
_symmetry_Int_Tables_number      9
_space_group_name_Hall           'C -2yc'
loop_
_symmetry_equiv_pos_site_id
_symmetry_equiv_pos_as_xyz
1 x,y,z
2 x,-y,1/2+z
3 1/2+x,1/2+y,z
4 1/2+x,1/2-y,1/2+z
_cell_length_a                   16.6217(1)
_cell_length_b                   6.71614(5)
_cell_length_c                   12.43083(8)
_cell_angle_alpha                90
_cell_angle_beta                 117.5665(3)
_cell_angle_gamma                90
_cell_volume                     1230.16
loop_
_atom_site_label
_atom_site_type_symbol
_atom_site_fract_x
_atom_site_fract_y
_atom_site_fract_z
O1 O -0.1037(6) 0.5054(9) 0.2918(8)
O2 O 0.1936(7) 0.4755(6) 0.4686(7)
O3 O 0.0478(7) 0.7193(9) 0.0814(7)
N1 N 0.0499(6) 0.4784(7) 0.3879(8)
N2 N -0.0254(8) 0.5776(9) 0.1868(9)
N3 N 0.1265(8) 0.5765(9) 0.2666(7)
C1 C -0.0294(5) 0.5546(7) 0.2960(7)
C2 C 0.1246(5) 0.5015(9) 0.3678(6)
C3 C 0.0473(6) 0.6099(8) 0.1630(7)
Pb1 Pb -0.1249(2) 0.7926(2) 0.43870(18)
Pb2 Pb 0.2513(2) 0.69590(19) 0.22000(18)
Pb3 Pb -0.1876(2) 0.72341(14) 0.08250(19)
O4 O -0.1061(7) 1.0721(9) 0.1786(8)
O5 O 0.1892(6) 1.0673(8) 0.3484(9)
O6 O 0.0622(8) 0.8649(9) 0.5508(8)
N4 N 0.0437(6) 1.0689(6) 0.2518(8)
N5 N -0.0183(8) 0.9498(8) 0.3764(7)
N6 N 0.1489(7) 0.9498(9) 0.4737(8)
C4 C -0.0320(5) 1.0105(8) 0.2636(6)
C5 C 0.1201(6) 1.0417(7) 0.3612(7)
C6 C 0.0660(5) 0.8797(8) 0.4545(7)
O7 O -0.2426(8) 0.8486(6) 0.2305(8)
O8 O -0.1596(7) 1.1396(7) 0.4258(8)
O2C O -0.3064(7) 1.0245(6) -0.0314(7)
Pb2B Pb -0.2487(2) 1.19590(19) 0.22000(18)
Pb3A Pb -0.1876(2) 1.27659(14) 0.58250(19)
Pb3C Pb 0.3124(2) 0.77659(14) 0.58250(19)
O4B O 0.3939(7) 0.5721(9) 0.1786(8)
N6C N -0.3511(7) 0.5502(9) -0.0263(8)
O7B O 0.2574(8) 0.3486(6) 0.2305(8)
O8A O -0.1596(7) 0.8604(7) -0.0742(8)
O8B O 0.3404(7) 0.6396(7) 0.4258(8)
loop_
_geom_bond_atom_site_label_1
_geom_bond_atom_site_label_2
_geom_bond_site_symmetry_1
_geom_bond_site_symmetry_2
O1 C1 1_555 1_555
O2 C2 1_555 1_555
O3 C3 1_555 1_555
N1 C1 1_555 1_555
N2 C1 1_555 1_555
N3 C2 1_555 1_555
C2 N1 1_555 1_555
C3 N2 1_555 1_555
Pb1 O1 1_555 1_555
Pb2 N3 1_555 1_555
Pb3 O1 1_555 1_555
O4 Pb3 1_555 1_555
O5 C5 1_555 1_555
O6 Pb1 1_555 1_555
N4 C4 1_555 1_555
N5 Pb1 1_555 1_555
N6 C5 1_555 1_555
C4 O4 1_555 1_555
C5 N4 1_555 1_555
C6 O6 1_555 1_555
O7 Pb1 1_555 1_555
O8 Pb1 1_555 1_555
O2C Pb3 1_555 1_555
Pb2B O4 1_555 1_555
Pb3A O8 1_555 1_555
Pb3C O2 1_555 1_555
O4B Pb2 1_555 1_555
N6C Pb3 1_555 1_555
O7B Pb2 1_555 1_555
O8A Pb3 1_555 1_555
O8B Pb2 1_555 1_555
N2 Pb3 1_555 1_555
N3 C3 1_555 1_555
Pb3 O7 1_555 1_555
N5 C4 1_555 1_555
N5 C6 1_555 1_555
N6 C6 1_555 1_555
N6 Pb3C 1_555 1_555
O7 Pb2B 1_555 1_555
O8 Pb2B 1_555 1_555
Pb3C O8B 1_555 1_555

#END
