
#######################################################################
#
#                 Cambridge Crystallographic Data Centre
#                                CCDC 
#
#######################################################################
#
# If this CIF has been generated from an entry in the Cambridge 
# Structural Database, then it will include bibliographic, chemical, 
# crystal, experimental, refinement or atomic coordinate data resulting 
# from the CCDC's data processing and validation procedures.
#
#######################################################################

data_IHECUT
_symmetry_cell_setting           trigonal
_symmetry_space_group_name_H-M   'P 3'
_symmetry_Int_Tables_number      143
_space_group_name_Hall           'P 3'
loop_
_symmetry_equiv_pos_site_id
_symmetry_equiv_pos_as_xyz
1 x,y,z
2 -y,x-y,z
3 -x+y,-x,z
_cell_length_a                   24.448(7)
_cell_length_b                   24.448(7)
_cell_length_c                   23.718(7)
_cell_angle_alpha                90
_cell_angle_beta                 90
_cell_angle_gamma                120
_cell_volume                     12277.1
loop_
_atom_site_label
_atom_site_type_symbol
_atom_site_fract_x
_atom_site_fract_y
_atom_site_fract_z
N5 N 0.5681(4) 0.3928(3) 0.3048(3)
C45 C 0.5128(4) 0.3297(5) 0.3177(5)
C46 C 0.5328(4) 0.2805(4) 0.3090(5)
O13 O 0.5631(3) 0.2794(3) 0.2692(3)
C47 C 0.5751(5) 0.4241(6) 0.2509(5)
C48 C 0.4532(5) 0.3169(6) 0.2877(5)
C49 C 0.4299(6) 0.3608(6) 0.3095(8)
C50 C 0.3998(5) 0.2445(6) 0.2958(7)
O14 O 0.5079(3) 0.2363(3) 0.3494(3)
C51 C 0.5147(5) 0.1806(5) 0.3424(5)
C52 C 0.6173(4) 0.4152(5) 0.3448(5)
O15 O 0.6151(4) 0.3817(4) 0.3810(3)
C53 C 0.4816(5) 0.1388(6) 0.3948(5)
C54 C 0.4904(6) 0.0788(8) 0.3941(7)
C55 C 0.4132(7) 0.1166(6) 0.3966(3)
N6 N 0.5038(3) 0.2622(4) 0.0878(3)
C56 C 0.5105(5) 0.3245(5) 0.0753(5)
C57 C 0.5761(5) 0.3747(4) 0.0848(4)
O16 O 0.6092(3) 0.3793(3) 0.1245(3)
C58 C 0.4813(7) 0.2330(6) 0.1399(6)
C59 C 0.4597(7) 0.3343(7) 0.1042(6)
C60 C 0.3944(6) 0.2863(8) 0.0833(10)
C61 C 0.4711(8) 0.4027(7) 0.0884(13)
O17 O 0.5942(4) 0.4197(4) 0.0447(4)
C62 C 0.6593(6) 0.4791(5) 0.0525(6)
C63 C 0.5343(5) 0.2455(5) 0.0545(5)
O18 O 0.5680(4) 0.2794(4) 0.0150(3)
C64 C 0.6594(8) 0.5167(6) -0.0031(9)
C65 C 0.7188(8) 0.5857(6) 0.0113(11)
C66 C 0.6053(8) 0.5207(9) -0.0156(9)
N7 N 0.7764(4) 0.2855(4) -0.1971(3)
C67 C 0.8247(6) 0.3515(5) -0.1830(5)
C68 C 0.8017(5) 0.3956(5) -0.1912(4)
O19 O 0.7676(3) 0.3927(3) -0.2319(3)
C69 C 0.7742(6) 0.2562(6) -0.2525(5)
C70 C 0.8875(6) 0.3669(5) -0.2149(6)
C71 C 0.9174(6) 0.3327(6) -0.1998(8)
C72 C 0.9359(7) 0.4413(6) -0.2108(8)
O20 O 0.8218(3) 0.4395(3) -0.1526(3)
C73 C 0.6783(5) 0.1862(5) -0.1621(5)
C74 C 0.7289(5) 0.2590(4) -0.1591(5)
O21 O 0.7241(4) 0.2883(3) -0.1205(3)
C75 C 0.6909(5) 0.1546(6) -0.1112(7)
C76 C 0.7572(6) 0.1630(6) -0.1152(7)
C77 C 0.6454(7) 0.0862(7) -0.1094(8)
N8 N 0.5998(4) 0.1702(4) 0.5915(4)
C78 C 0.5432(5) 0.1653(5) 0.5745(5)
C79 C 0.5406(4) 0.2237(5) 0.5884(5)
O22 O 0.5663(4) 0.2570(4) 0.6281(3)
C80 C 0.6065(6) 0.1507(6) 0.6483(5)
C81 C 0.4824(5) 0.1040(6) 0.5988(6)
C82 C 0.4816(7) 0.0438(9) 0.5744(10)
C83 C 0.4217(7) 0.0993(8) 0.5806(9)
O23 O 0.5049(4) 0.2351(4) 0.5524(3)
C84 C 0.7134(5) 0.2067(5) 0.5672(5)
C85 C 0.6497(5) 0.2072(5) 0.5588(4)
O24 O 0.6450(4) 0.2358(4) 0.5191(3)
C86 C 0.7209(6) 0.1637(6) 0.5305(6)
C87 C 0.7130(11) 0.1709(10) 0.4734(8)
C88 C 0.6812(8) 0.0941(7) 0.5466(8)
K5 K 0.6667 0.3333 0.4484(2)
K6 K 0.6667 0.3333 0.1947(2)
K7 K 0.6667 0.3334 -0.0566(2)
K8 K 0.6667 0.3333 0.6946(2)
C52A C 0.5848(5) 0.2021(6) 0.3448(5)
C51B C 0.6659(7) 0.4853(5) 0.3424(5)
C63B C 0.7112(7) 0.4657(5) 0.0545(5)
C62A C 0.5209(5) 0.1802(8) 0.0525(6)
K8_2 K 0.6667 0.3333 -0.3054(2)
C73A C 0.8138(5) 0.4921(7) -0.1621(5)
O20B O 0.6177(4) 0.1782(3) -0.1526(3)
C84B C 0.4933(7) 0.2866(5) 0.5672(5)
O23A O 0.7649(4) 0.2698(6) 0.5524(3)
O15B O 0.7666(6) 0.3849(4) 0.3810(3)
O15A O 0.6183(4) 0.2334(6) 0.3810(3)
O24B O 0.5908(6) 0.3550(4) 0.5191(3)
O24A O 0.7642(4) 0.4092(6) 0.5191(3)
O13B O 0.7163(4) 0.4369(3) 0.2692(3)
O13A O 0.7206(3) 0.2837(4) 0.2692(3)
O16B O 0.7701(4) 0.3908(3) 0.1245(3)
O16A O 0.6207(3) 0.2299(4) 0.1245(3)
O18B O 0.7114(6) 0.4320(4) 0.0150(3)
O18A O 0.7206(4) 0.2886(6) 0.0150(3)
O21B O 0.5642(5) 0.2759(4) -0.1205(3)
O21A O 0.7117(3) 0.4358(5) -0.1205(3)
O19_2 O 0.7676(3) 0.3927(3) 0.7681(3)
O19B O 0.6251(4) 0.2324(3) 0.7681(3)
O19A O 0.6073(3) 0.3749(4) 0.7681(3)
O22B O 0.6907(6) 0.4337(4) 0.6281(3)
O22A O 0.7430(4) 0.3093(6) 0.6281(3)
N9 N 0.1740(4) 0.6112(4) 0.2515(4)
C89 C 0.1636(4) 0.5485(4) 0.2685(5)
C90 C 0.2200(5) 0.5412(5) 0.2550(5)
O25 O 0.2542(4) 0.5676(3) 0.2148(3)
C91 C 0.1579(6) 0.6202(6) 0.1960(5)
C92 C 0.1005(7) 0.4904(7) 0.2475(9)
C93 C 0.0488(7) 0.5025(11) 0.2732(9)
C94 C 0.0908(7) 0.4296(7) 0.2656(13)
O26 O 0.2281(3) 0.5043(3) 0.2905(4)
C95 C 0.2755(6) 0.4886(5) 0.2793(6)
C96 C 0.2101(5) 0.6570(5) 0.2883(5)
O27 O 0.2356(4) 0.6509(4) 0.3271(4)
C97 C 0.2720(6) 0.4443(6) 0.3282(7)
C98 C 0.3254(8) 0.4288(8) 0.3292(9)
C99 C 0.2032(9) 0.3794(9) 0.3172(12)
N10 N 0.1692(4) 0.5806(4) 0.5214(4)
C100 C 0.1758(5) 0.6404(5) 0.4992(6)
C101 C 0.2345(6) 0.6957(5) 0.5256(6)
O28 O 0.2659(4) 0.6966(4) 0.5622(4)
C102 C 0.1451(7) 0.5609(7) 0.5773(6)
C103 C 0.1148(6) 0.6459(7) 0.5009(10)
C104 C 0.0952(11) 0.6597(15) 0.5506(10)
C105 C 0.0612(6) 0.5844(8) 0.4684(8)
O29 O 0.2435(4) 0.7477(4) 0.4950(4)
C106 C 0.1929(6) 0.4923(6) 0.5094(7)
C107 C 0.2015(6) 0.5559(6) 0.4944(6)
O30 O 0.2361(4) 0.5856(5) 0.4510(4)
C108 C 0.1447(8) 0.4385(10) 0.4752(13)
C109 C 0.0767(11) 0.4314(11) 0.4797(16)
C110 C 0.1379(8) 0.3792(8) 0.4917(13)
N11 N 0.4917(4) 0.7637(4) 0.7428(4)
C111 C 0.4857(5) 0.8197(5) 0.7582(6)
C112 C 0.4154(5) 0.8002(5) 0.7469(5)
O31 O 0.3840(3) 0.7702(4) 0.7061(3)
C113 C 0.5140(6) 0.7572(6) 0.6884(5)
C114 C 0.5310(6) 0.8799(6) 0.7252(6)
C115 C 0.5959(6) 0.8966(7) 0.7463(7)
C116 C 0.5185(8) 0.9326(6) 0.7376(8)
O32 O 0.3958(4) 0.8237(4) 0.7874(3)
C117 C 0.3368(6) 0.8193(6) 0.7809(5)
C118 C 0.4653(4) 0.7144(5) 0.7813(4)
O33 O 0.4319(4) 0.7174(4) 0.8202(3)
C119 C 0.3283(7) 0.8493(7) 0.8368(8)
C120 C 0.2607(9) 0.8417(8) 0.8371(13)
C121 C 0.3810(9) 0.9139(9) 0.8476(10)
N12 N 0.2293(5) 0.5031(4) 0.0381(4)
C122 C 0.1770(5) 0.5182(6) 0.0210(5)
C123 C 0.1989(6) 0.5862(6) 0.0354(6)
O34 O 0.2294(4) 0.6146(4) 0.0750(4)
C124 C 0.2257(7) 0.4734(7) 0.0920(6)
C125 C 0.1176(8) 0.4737(7) 0.0551(9)
C126 C 0.0915(11) 0.4066(10) 0.0293(11)
C127 C 0.0660(7) 0.4834(8) 0.0526(9)
O35 O 0.1749(4) 0.6077(5) -0.0020(3)
C128 C 0.1822(7) 0.6682(6) 0.0101(7)
C129 C 0.2809(7) 0.5332(7) 0.0012(7)
O36 O 0.2831(4) 0.5680(4) -0.0352(4)
C130 C 0.1415(13) 0.6863(15) -0.0273(17)
C131 C 0.0671(12) 0.6397(10) -0.0090(13)
C132 C 0.1532(16) 0.6774(13) -0.0773(10)
K9 K 0.3333 0.6667 0.1414(2)
K10 K 0.3333 0.6667 0.3862(2)
K11 K 0.3333 0.6667 0.6333(2)
K12 K 0.3333 0.6667 -0.1108(2)
C96A C 0.3430(5) 0.5531(7) 0.2883(5)
C95B C 0.2131(8) 0.7245(6) 0.2793(6)
C106B C 0.2994(8) 0.8071(6) 0.5094(7)
O29A O 0.2523(4) 0.4958(6) 0.4950(4)
C118A C 0.2856(5) 0.7509(6) 0.7813(4)
C117B C 0.4825(8) 0.6632(6) 0.7809(5)
K12_2 K 0.3333 0.6667 0.8892(2)
C129B C 0.2523(10) 0.7191(7) 0.0012(7)
C128A C 0.3318(6) 0.5140(9) 0.0101(7)
O25B O 0.3134(5) 0.7458(4) 0.2148(3)
O25A O 0.4324(3) 0.6866(5) 0.2148(3)
O34B O 0.3852(6) 0.7706(4) 0.0750(4)
O34A O 0.3854(4) 0.6148(6) 0.0750(4)
O27B O 0.4153(6) 0.7644(4) 0.3271(4)
O27A O 0.3491(4) 0.5847(6) 0.3271(4)
O30B O 0.3495(6) 0.7639(4) 0.4510(4)
O30A O 0.4144(5) 0.6505(6) 0.4510(4)
O28B O 0.4307(6) 0.7341(4) 0.5622(4)
O28A O 0.3034(4) 0.5693(6) 0.5622(4)
O31B O 0.3862(5) 0.6160(3) 0.7061(3)
O31A O 0.2298(4) 0.6138(5) 0.7061(3)
O33_2 O 0.4319(4) 0.7174(4) -0.1798(3)
O33B O 0.2855(6) 0.5681(4) -0.1798(3)
O33A O 0.2826(4) 0.7145(6) -0.1798(3)
O36B O 0.2849(6) 0.7169(4) -0.0352(4)
O36A O 0.4320(4) 0.7151(6) -0.0352(4)
S1 S 0.9215(2) 0.6171(2) 0.7213(2)
C133 C 0.8772(8) 0.6336(10) 0.6987(9)
N13 N 0.8438(9) 0.6585(13) 0.6799(10)
S2 S 0.9524(4) 0.3767(5) 0.1532(5)
C134 C 0.9192(12) 0.3241(11) 0.2138(11)
N14 N 0.9110(9) 0.3623(8) 0.2347(6)
S3 S 0.2788(6) 0.9400(5) 0.6970(6)
C135 C 0.3460(16) 0.9444(17) 0.6787(14)
N15 N 0.3638(13) 0.9023(11) 0.6914(11)
S4 S 0.2900(6) 0.3594(6) 0.1599(5)
C136 C 0.2570(2) 0.2943(14) 0.2014(11)
N16 N 0.2604(10) 0.2781(10) 0.2614(12)
N1 N -0.1591(4) -0.1013(4) 0.6139(3)
C1 C -0.1702(5) -0.0491(5) 0.6004(5)
C2 C -0.1100(5) 0.0140(5) 0.6110(5)
O1 O -0.0758(3) 0.0250(3) 0.6498(3)
C3 C -0.1751(7) -0.1264(7) 0.6719(5)
C4 C -0.2283(5) -0.0534(6) 0.6262(6)
C5 C -0.2862(6) -0.1132(6) 0.6044(7)
C6 C -0.2351(7) 0.0059(7) 0.6130(8)
O2 O -0.1007(3) 0.0571(3) 0.5744(5)
C7 C -0.0484(5) 0.1223(5) 0.5819(6)
C8 C -0.1233(5) -0.1127(5) 0.5774(5)
O3 O -0.0971(4) -0.0750(4) 0.5371(4)
C9 C -0.0562(7) 0.1614(7) 0.5323(10)
C10 C -0.0099(9) 0.2301(8) 0.5493(14)
C11 C -0.1191(9) 0.1591(10) 0.5348(10)
N2 N 0.0568(4) 0.1621(4) 0.3286(3)
C12 C -0.0052(5) 0.1496(5) 0.3442(5)
C13 C -0.0541(5) 0.0805(5) 0.3304(5)
O4 O -0.0525(3) 0.0505(4) 0.2907(3)
C14 C 0.0837(6) 0.1882(5) 0.2738(5)
C15 C -0.0242(6) 0.1938(6) 0.3150(6)
C16 C 0.0155(6) 0.2598(6) 0.3400(8)
C17 C -0.0930(6) 0.1718(6) 0.3214(9)
O5 O -0.1018(3) 0.0571(4) 0.3690(3)
C18 C 0.1508(5) 0.1549(5) 0.3581(6)
C19 C 0.0784(5) 0.1342(6) 0.3625(5)
O6 O 0.0484(4) 0.0972(4) 0.3978(4)
C20 C 0.1868(8) 0.2071(12) 0.3952(15)
C21 C 0.2583(8) 0.2200(13) 0.4019(13)
C22 C 0.1660(10) 0.2096(15) 0.4396(8)
N3 N -0.0989(4) 0.0609(4) 0.1165(4)
C23 C -0.0474(6) 0.1220(5) 0.1014(5)
C24 C 0.0151(6) 0.1251(5) 0.1118(5)
O7 O 0.0273(4) 0.1006(4) 0.1513(3)
C25 C -0.1310(7) 0.0450(7) 0.1691(6)
C26 C -0.0483(6) 0.1768(6) 0.1341(7)
C27 C -0.1072(9) 0.1804(9) 0.1126(10)
C28 C 0.0085(14) 0.2411(8) 0.1177(12)
O8 O 0.0580(4) 0.1580(4) 0.0732(4)
C29 C 0.1217(5) 0.1709(5) 0.0807(5)
C30 C -0.1096(5) 0.0124(5) 0.0777(4)
O9 O -0.0721(4) 0.0228(4) 0.0388(4)
C31 C 0.1596(8) 0.2113(8) 0.0262(8)
C32 C 0.2286(7) 0.2244(7) 0.0314(7)
C33 C 0.1523(10) 0.2755(8) 0.0311(9)
N4 N -0.0426(5) -0.1589(4) 0.8302(4)
C34 C 0.0204(5) -0.1407(5) 0.8470(5)
C35 C 0.0664(5) -0.0728(5) 0.8288(5)
O10 O 0.0599(3) -0.0447(3) 0.7899(3)
C36 C -0.0684(8) -0.1872(8) 0.7727(6)
C37 C 0.0434(7) -0.1857(7) 0.8291(7)
C38 C 0.0033(8) -0.2520(7) 0.8523(10)
C39 C 0.1130(8) -0.1611(8) 0.8392(10)
O11 O 0.1137(3) -0.0452(4) 0.8651(3)
C40 C 0.1638(5) 0.0210(5) 0.8506(7)
C41 C -0.0726(5) -0.1362(5) 0.8589(6)
O12 O -0.0450(4) -0.0983(4) 0.8991(4)
C42 C 0.2173(9) 0.0391(8) 0.8951(16)
C43 C 0.2524(17) 0.0963(16) 0.9080(3)
C44 C 0.2456(7) -0.0065(7) 0.8828(16)
K1 K 0.0000 0.0000 0.7188(2)
K2 K 0.0000 0.0000 0.4682(2)
K3 K 0.0000 0.0000 0.2181(2)
K4 K 0.0000 0.0000 0.9668(2)
C8B C 0.0106(7) 0.1233(5) 0.5774(5)
C7A C -0.1223(5) -0.1707(7) 0.5819(6)
C18A C -0.1549(5) -0.0041(7) 0.3581(6)
O5B O 0.1589(5) 0.1018(3) 0.3690(3)
C30B C 0.1220(7) 0.1096(5) 0.0777(4)
C29A C -0.1709(5) -0.0492(7) 0.0807(5)
K4_2 K 0.0000 0.0000 -0.0332(2)
C41A C 0.1362(5) 0.0636(7) 0.8589(6)
C40B C -0.1428(7) -0.1638(5) 0.8506(7)
O1B O 0.1008(4) 0.0758(3) 0.6498(3)
O1A O -0.0250(3) -0.1008(4) 0.6498(3)
O10B O -0.1046(4) -0.0599(3) 0.7899(3)
O10A O 0.0447(3) 0.1046(4) 0.7899(3)
O3B O 0.0221(6) 0.0971(4) 0.5371(4)
O3A O 0.0750(4) -0.0221(6) 0.5371(4)
O6B O 0.0488(6) -0.0484(4) 0.3978(4)
O6A O -0.0972(4) -0.0488(6) 0.3978(4)
O4B O 0.1030(5) 0.0525(3) 0.2907(3)
O4A O -0.0505(4) -0.1030(5) 0.2907(3)
O7B O 0.0733(6) -0.0273(4) 0.1513(3)
O7A O -0.1006(4) -0.0733(6) 0.1513(3)
O9_2 O -0.0721(4) 0.0228(4) 1.0388(4)
O9B O 0.0949(6) 0.0721(4) 1.0388(4)
O9A O -0.0228(4) -0.0949(6) 1.0388(4)
O12B O -0.0533(6) 0.0450(4) 0.8991(4)
O12A O 0.0983(4) 0.0533(6) 0.8991(4)
loop_
_geom_bond_atom_site_label_1
_geom_bond_atom_site_label_2
_geom_bond_site_symmetry_1
_geom_bond_site_symmetry_2
N1 C1 1_555 1_555
C1 C2 1_555 1_555
C2 O1 1_555 1_555
O1 K1 1_555 1_555
C3 N1 1_555 1_555
C4 C1 1_555 1_555
C5 C4 1_555 1_555
C6 C4 1_555 1_555
O2 C2 1_555 1_555
C7 O2 1_555 1_555
C8 N1 1_555 1_555
O3 C8 1_555 1_555
C9 C7 1_555 1_555
C10 C9 1_555 1_555
C11 C9 1_555 1_555
N2 C12 1_555 1_555
C12 C13 1_555 1_555
C13 O4 1_555 1_555
O4 K3 1_555 1_555
C14 N2 1_555 1_555
C15 C12 1_555 1_555
C16 C15 1_555 1_555
C17 C15 1_555 1_555
O5 C13 1_555 1_555
C18 C19 1_555 1_555
C19 N2 1_555 1_555
O6 C19 1_555 1_555
C20 C18 1_555 1_555
C21 C20 1_555 1_555
C22 C20 1_555 1_555
N3 C23 1_555 1_555
C23 C24 1_555 1_555
C24 O7 1_555 1_555
O7 K3 1_555 1_555
C25 N3 1_555 1_555
C26 C23 1_555 1_555
C27 C26 1_555 1_555
C28 C26 1_555 1_555
O8 C24 1_555 1_555
C29 O8 1_555 1_555
C30 N3 1_555 1_555
O9 C30 1_555 1_555
C31 C29 1_555 1_555
C32 C31 1_555 1_555
C33 C31 1_555 1_555
N4 C34 1_555 1_555
C34 C35 1_555 1_555
C35 O10 1_555 1_555
O10 K1 1_555 1_555
C36 N4 1_555 1_555
C37 C34 1_555 1_555
C38 C37 1_555 1_555
C39 C37 1_555 1_555
O11 C35 1_555 1_555
C40 O11 1_555 1_555
C41 N4 1_555 1_555
O12 C41 1_555 1_555
C42 C40 1_555 1_555
C43 C42 1_555 1_555
C44 C42 1_555 1_555
N5 C45 1_555 1_555
C45 C46 1_555 1_555
C46 O13 1_555 1_555
O13 K6 1_555 1_555
C47 N5 1_555 1_555
C48 C45 1_555 1_555
C49 C48 1_555 1_555
C50 C48 1_555 1_555
O14 C46 1_555 1_555
C51 O14 1_555 1_555
C52 N5 1_555 1_555
O15 C52 1_555 1_555
C53 C51 1_555 1_555
C54 C53 1_555 1_555
C55 C53 1_555 1_555
N6 C56 1_555 1_555
C56 C57 1_555 1_555
C57 O16 1_555 1_555
O16 K6 1_555 1_555
C58 N6 1_555 1_555
C59 C56 1_555 1_555
C60 C59 1_555 1_555
C61 C59 1_555 1_555
O17 C57 1_555 1_555
C62 O17 1_555 1_555
C63 N6 1_555 1_555
O18 C63 1_555 1_555
C64 C62 1_555 1_555
C65 C64 1_555 1_555
C66 C64 1_555 1_555
N7 C67 1_555 1_555
C67 C68 1_555 1_555
C68 O19 1_555 1_555
O19 K8_2 1_555 1_555
C69 N7 1_555 1_555
C70 C67 1_555 1_555
C71 C70 1_555 1_555
C72 C70 1_555 1_555
O20 C68 1_555 1_555
C73 C74 1_555 1_555
C74 N7 1_555 1_555
O21 C74 1_555 1_555
C75 C73 1_555 1_555
C76 C75 1_555 1_555
C77 C75 1_555 1_555
N8 C78 1_555 1_555
C78 C79 1_555 1_555
C79 O22 1_555 1_555
O22 K8 1_555 1_555
C80 N8 1_555 1_555
C81 C78 1_555 1_555
C82 C81 1_555 1_555
C83 C81 1_555 1_555
O23 C79 1_555 1_555
C84 C85 1_555 1_555
C85 N8 1_555 1_555
O24 C85 1_555 1_555
C86 C84 1_555 1_555
C87 C86 1_555 1_555
C88 C86 1_555 1_555
N9 C89 1_555 1_555
C89 C90 1_555 1_555
C90 O25 1_555 1_555
O25 K9 1_555 1_555
C91 N9 1_555 1_555
C92 C89 1_555 1_555
C93 C92 1_555 1_555
C94 C92 1_555 1_555
O26 C90 1_555 1_555
C95 O26 1_555 1_555
C96 N9 1_555 1_555
O27 C96 1_555 1_555
C97 C95 1_555 1_555
C98 C97 1_555 1_555
C99 C97 1_555 1_555
N10 C100 1_555 1_555
C100 C101 1_555 1_555
C101 O28 1_555 1_555
O28 K11 1_555 1_555
C102 N10 1_555 1_555
C103 C100 1_555 1_555
C104 C103 1_555 1_555
C105 C103 1_555 1_555
O29 C101 1_555 1_555
C106 C107 1_555 1_555
C107 N10 1_555 1_555
O30 C107 1_555 1_555
C108 C106 1_555 1_555
C109 C108 1_555 1_555
C110 C108 1_555 1_555
N11 C111 1_555 1_555
C111 C112 1_555 1_555
C112 O31 1_555 1_555
O31 K11 1_555 1_555
C113 N11 1_555 1_555
C114 C111 1_555 1_555
C115 C114 1_555 1_555
C116 C114 1_555 1_555
O32 C112 1_555 1_555
C117 O32 1_555 1_555
C118 N11 1_555 1_555
O33 C118 1_555 1_555
C119 C117 1_555 1_555
C120 C119 1_555 1_555
C121 C119 1_555 1_555
N12 C122 1_555 1_555
C122 C123 1_555 1_555
C123 O34 1_555 1_555
O34 K9 1_555 1_555
C124 N12 1_555 1_555
C125 C122 1_555 1_555
C126 C125 1_555 1_555
C127 C125 1_555 1_555
O35 C123 1_555 1_555
C128 O35 1_555 1_555
C129 N12 1_555 1_555
O36 C129 1_555 1_555
C130 C128 1_555 1_555
C131 C130 1_555 1_555
C132 C130 1_555 1_555
K1 O1B 1_555 1_555
K2 O3 1_555 1_555
K3 O4B 1_555 1_555
K4 O12 1_555 1_555
K5 O15 1_555 1_555
K6 O13B 1_555 1_555
K7 O18 1_555 1_555
K8 O19_2 1_555 1_555
K9 O25B 1_555 1_555
K10 O27 1_555 1_555
K11 O28B 1_555 1_555
K12 O36 1_555 1_555
S1 C133 1_555 1_555
C133 N13 1_555 1_555
S2 C134 1_555 1_555
C134 N14 1_555 1_555
S3 C135 1_555 1_555
C135 N15 1_555 1_555
S4 C136 1_555 1_555
C136 N16 1_555 1_555
C8B C7 1_555 1_555
C7A C8 1_555 1_555
C18A O5 1_555 1_555
O5B C18 1_555 1_555
C30B C29 1_555 1_555
C29A C30 1_555 1_555
K4_2 O9 1_555 1_555
C41A C40 1_555 1_555
C40B C41 1_555 1_555
C52A C51 1_555 1_555
C51B C52 1_555 1_555
C63B C62 1_555 1_555
C62A C63 1_555 1_555
C73A O20 1_555 1_555
O20B C73 1_555 1_555
C84B O23 1_555 1_555
O23A C84 1_555 1_555
C96A C95 1_555 1_555
C95B C96 1_555 1_555
C106B O29 1_555 1_555
O29A C106 1_555 1_555
C118A C117 1_555 1_555
C117B C118 1_555 1_555
K12_2 O33 1_555 1_555
C129B C128 1_555 1_555
C128A C129 1_555 1_555
O1A K1 1_555 1_555
O10B K1 1_555 1_555
O10A K1 1_555 1_555
O3B K2 1_555 1_555
O3A K2 1_555 1_555
O6B K2 1_555 1_555
O6A K2 1_555 1_555
O4A K3 1_555 1_555
O7B K3 1_555 1_555
O7A K3 1_555 1_555
O9_2 K4 1_555 1_555
O9B K4 1_555 1_555
O9A K4 1_555 1_555
O12B K4 1_555 1_555
O12A K4 1_555 1_555
O15B K5 1_555 1_555
O15A K5 1_555 1_555
O24B K5 1_555 1_555
O24A K5 1_555 1_555
O13A K6 1_555 1_555
O16B K6 1_555 1_555
O16A K6 1_555 1_555
O18B K7 1_555 1_555
O18A K7 1_555 1_555
O21B K7 1_555 1_555
O21A K7 1_555 1_555
O19B K8 1_555 1_555
O19A K8 1_555 1_555
O22B K8 1_555 1_555
O22A K8 1_555 1_555
O25A K9 1_555 1_555
O34B K9 1_555 1_555
O34A K9 1_555 1_555
O27B K10 1_555 1_555
O27A K10 1_555 1_555
O30B K10 1_555 1_555
O30A K10 1_555 1_555
O28A K11 1_555 1_555
O31B K11 1_555 1_555
O31A K11 1_555 1_555
O33_2 K12 1_555 1_555
O33B K12 1_555 1_555
O33A K12 1_555 1_555
O36B K12 1_555 1_555
O36A K12 1_555 1_555
O6 K2 1_555 1_555
O21 K7 1_555 1_555
O24 K5 1_555 1_555
O30 K10 1_555 1_555
C8B O3B 1_555 1_555
C41A O12A 1_555 1_555
C52A O15A 1_555 1_555
C63B O18B 1_555 1_555
C96A O27A 1_555 1_555
C129B O36B 1_555 1_555

#END
