
#######################################################################
#
#                 Cambridge Crystallographic Data Centre
#                                CCDC 
#
#######################################################################
#
# If this CIF has been generated from an entry in the Cambridge 
# Structural Database, then it will include bibliographic, chemical, 
# crystal, experimental, refinement or atomic coordinate data resulting 
# from the CCDC's data processing and validation procedures.
#
#######################################################################

data_IHEFAC
_symmetry_cell_setting           triclinic
_symmetry_space_group_name_H-M   'P -1'
_symmetry_Int_Tables_number      2
_space_group_name_Hall           '-P 1'
loop_
_symmetry_equiv_pos_site_id
_symmetry_equiv_pos_as_xyz
1 x,y,z
2 -x,-y,-z
_cell_length_a                   9.020(2)
_cell_length_b                   9.166(2)
_cell_length_c                   9.746(2)
_cell_angle_alpha                67.63(3)
_cell_angle_beta                 83.69(3)
_cell_angle_gamma                81.39(3)
_cell_volume                     735.502
loop_
_atom_site_label
_atom_site_type_symbol
_atom_site_fract_x
_atom_site_fract_y
_atom_site_fract_z
Nd1 Nd 0.0355(1) 0.2567(1) 0.4783(1)
O1 O -0.0432(3) 0.4845(3) 0.2299(3)
O2 O 0.1677(4) 0.2619(3) 0.6897(3)
O3 O 0.0945(4) 0.1712(4) 0.2729(3)
O4 O 0.2127(3) 0.0219(3) 0.5628(3)
O5 O 0.2086(3) -0.2323(4) 0.5937(3)
O6 O 0.2773(3) 0.3842(3) 0.3547(4)
O7 O 0.1290(3) 0.5542(3) 0.4321(3)
O8 O 0.0897(3) -0.0801(3) 0.3001(3)
N1 N 0.4933(6) 0.0580(7) 0.7403(7)
N2 N 0.5578(7) 0.6018(7) 0.1132(9)
N3 N 0.1976(7) -0.1270(6) -0.0243(5)
C1 C 0.4628(5) -0.0419(5) 0.7117(6)
C2 C 0.4155(4) -0.1682(4) 0.6770(5)
C3 C 0.2656(4) -0.1202(4) 0.6043(4)
C4 C 0.4748(6) 0.6123(5) 0.2065(7)
C5 C 0.3651(5) 0.6309(5) 0.3210(5)
C6 C 0.2495(4) 0.5135(4) 0.3719(4)
C7 C 0.1902(5) -0.0265(5) 0.0158(4)
C8 C 0.1799(5) 0.1036(4) 0.0688(4)
C9 C 0.1146(4) 0.0593(4) 0.2294(3)
O5A O -0.2086(3) 0.2323(4) 0.4063(3)
O7A O -0.1290(3) 0.4458(3) 0.5679(3)
O8A O -0.0897(3) 0.0801(3) 0.6999(3)
Nd1A Nd -0.0355(1) -0.2567(1) 0.5217(1)
Nd1A_2 Nd -0.0355(1) 0.7433(1) 0.5217(1)
O9 O 0.1783(4) 0.5596(4) 0.0005(4)
loop_
_geom_bond_atom_site_label_1
_geom_bond_atom_site_label_2
_geom_bond_site_symmetry_1
_geom_bond_site_symmetry_2
Nd1 O1 1_555 1_555
O2 Nd1 1_555 1_555
O3 Nd1 1_555 1_555
O4 Nd1 1_555 1_555
O5 C3 1_555 1_555
O6 Nd1 1_555 1_555
O7 Nd1 1_555 1_555
O8 C9 1_555 1_555
N1 C1 1_555 1_555
N2 C4 1_555 1_555
N3 C7 1_555 1_555
C1 C2 1_555 1_555
C2 C3 1_555 1_555
C3 O4 1_555 1_555
C4 C5 1_555 1_555
C5 C6 1_555 1_555
C6 O6 1_555 1_555
C7 C8 1_555 1_555
C8 C9 1_555 1_555
C9 O3 1_555 1_555
O5A Nd1 1_555 1_555
O7A Nd1 1_555 1_555
O8A Nd1 1_555 1_555
Nd1A O5 1_555 1_555
Nd1A_2 O7 1_555 1_555
O7 C6 1_555 1_555
O8 Nd1A 1_555 1_555
O7A Nd1A_2 1_555 1_555

#END
