
#######################################################################
#
#                 Cambridge Crystallographic Data Centre
#                                CCDC 
#
#######################################################################
#
# If this CIF has been generated from an entry in the Cambridge 
# Structural Database, then it will include bibliographic, chemical, 
# crystal, experimental, refinement or atomic coordinate data resulting 
# from the CCDC's data processing and validation procedures.
#
#######################################################################

data_IHEHEJ
_symmetry_cell_setting           orthorhombic
_symmetry_space_group_name_H-M   'F d d d'
_symmetry_Int_Tables_number      70
_space_group_name_Hall           '-F 2uv 2vw'
loop_
_symmetry_equiv_pos_site_id
_symmetry_equiv_pos_as_xyz
1 x,y,z
2 1/4-x,1/4-y,z
3 x,1/4-y,1/4-z
4 1/4-x,y,1/4-z
5 x,1/2+y,1/2+z
6 1/4-x,3/4-y,1/2+z
7 x,3/4-y,3/4-z
8 1/4-x,1/2+y,3/4-z
9 1/2+x,y,1/2+z
10 3/4-x,1/4-y,1/2+z
11 1/2+x,1/4-y,3/4-z
12 3/4-x,y,3/4-z
13 1/2+x,1/2+y,z
14 3/4-x,3/4-y,z
15 1/2+x,3/4-y,1/4-z
16 3/4-x,1/2+y,1/4-z
17 -x,-y,-z
18 3/4+x,3/4+y,-z
19 -x,3/4+y,3/4+z
20 3/4+x,-y,3/4+z
21 -x,1/2-y,1/2-z
22 3/4+x,1/4+y,1/2-z
23 -x,1/4+y,1/4+z
24 3/4+x,1/2-y,1/4+z
25 1/2-x,-y,1/2-z
26 1/4+x,3/4+y,1/2-z
27 1/2-x,3/4+y,1/4+z
28 1/4+x,-y,1/4+z
29 1/2-x,1/2-y,-z
30 1/4+x,1/4+y,-z
31 1/2-x,1/4+y,3/4+z
32 1/4+x,1/2-y,3/4+z
_cell_length_a                   34.5177(4)
_cell_length_b                   7.23000(10)
_cell_length_c                   58.8102(6)
_cell_angle_alpha                90
_cell_angle_beta                 90
_cell_angle_gamma                90
_cell_volume                     14676.8
loop_
_atom_site_label
_atom_site_type_symbol
_atom_site_fract_x
_atom_site_fract_y
_atom_site_fract_z
Pb1 Pb 0.1250 1.1250 0.1250
N1 N 0.07319(19) 0.8973(9) 0.10533(10)
N2 N 0.14647(19) 0.9216(9) 0.08861(11)
N3 N 0.18083(18) 0.9715(10) 0.08014(10)
N4 N 0.12296(18) 0.8530(9) 0.05165(10)
C1 C 0.0382(2) 0.8675(12) 0.11439(13)
H1 H 0.0339 0.9037 0.1293
C2 C 0.0081(2) 0.7858(12) 0.10262(13)
H2 H -0.0159 0.7698 0.1095
C3 C 0.0142(2) 0.7276(11) 0.08035(14)
H3 H -0.0055 0.6710 0.0721
C4 C 0.0503(2) 0.7561(10) 0.07071(12)
H4 H 0.0551 0.7193 0.0558
C5 C 0.0793(2) 0.8405(9) 0.08355(11)
C6 C 0.1181(2) 0.8742(10) 0.07396(11)
C7 C 0.1582(2) 0.8904(10) 0.04306(11)
C8 C 0.1873(2) 0.9641(10) 0.05781(11)
C9 C 0.2245(2) 1.0511(10) 0.05107(12)
C10 C 0.2259(2) 1.1733(11) 0.03249(12)
H5 H 0.2047 1.1840 0.0228
C11 C 0.2588(2) 1.2775(12) 0.02867(14)
H6 H 0.2595 1.3609 0.0166
C12 C 0.2910(2) 1.2585(12) 0.04268(13)
H7 H 0.3131 1.3291 0.0399
C13 C 0.2906(2) 1.1352(11) 0.06070(13)
H8 H 0.3123 1.1208 0.0699
C14 C 0.2570(2) 1.0330(11) 0.06492(13)
H9 H 0.2564 0.9516 0.0772
C15 C 0.1641(2) 0.8474(10) 0.01884(12)
C16 C 0.1972(2) 0.7498(10) 0.01179(12)
H10 H 0.2161 0.7171 0.0223
C17 C 0.2017(2) 0.7022(11) -0.01103(13)
H11 H 0.2233 0.6355 -0.0156
C18 C 0.1739(2) 0.7540(11) -0.02697(13)
H12 H 0.1773 0.7256 -0.0423
C19 C 0.1409(2) 0.8485(11) -0.01985(13)
H13 H 0.1223 0.8840 -0.0305
C20 C 0.1356(2) 0.8899(11) 0.00282(12)
H14 H 0.1128 0.9467 0.0075
N1A N 0.17681(19) 1.3527(9) 0.10533(10)
N1B N 0.07319(19) 1.3527(9) 0.14467(10)
N1C N 0.17681(19) 0.8973(9) 0.14467(10)
N2A N 0.10353(19) 1.3284(9) 0.08861(11)
N2B N 0.14647(19) 1.3284(9) 0.16139(11)
N2C N 0.10353(19) 0.9216(9) 0.16139(11)
N3A N 0.06917(18) 1.2785(10) 0.08014(10)
N3B N 0.18083(18) 1.2785(10) 0.16986(10)
N3C N 0.06917(18) 0.9715(10) 0.16986(10)
N4A N 0.12704(18) 1.3970(9) 0.05165(10)
N4B N 0.12296(18) 1.3970(9) 0.19835(10)
N4C N 0.12704(18) 0.8530(9) 0.19835(10)
C1A C 0.2118(2) 1.3825(12) 0.11439(13)
C1B C 0.0382(2) 1.3825(12) 0.13561(13)
C1C C 0.2118(2) 0.8675(12) 0.13561(13)
H1A H 0.2161 1.3463 0.1293
H1B H 0.0339 1.3463 0.1207
H1C H 0.2161 0.9037 0.1207
C2A C 0.2419(2) 1.4642(12) 0.10262(13)
C2B C 0.0081(2) 1.4642(12) 0.14738(13)
C2C C 0.2419(2) 0.7858(12) 0.14738(13)
H2A H 0.2659 1.4802 0.1095
H2B H -0.0159 1.4802 0.1405
H2C H 0.2659 0.7698 0.1405
C3A C 0.2358(2) 1.5224(11) 0.08035(14)
C3B C 0.0142(2) 1.5224(11) 0.16965(14)
C3C C 0.2358(2) 0.7276(11) 0.16965(14)
H3A H 0.2555 1.5790 0.0721
H3B H -0.0055 1.5790 0.1779
H3C H 0.2555 0.6710 0.1779
C4A C 0.1997(2) 1.4939(10) 0.07071(12)
C4B C 0.0503(2) 1.4939(10) 0.17929(12)
C4C C 0.1997(2) 0.7561(10) 0.17929(12)
H4A H 0.1949 1.5307 0.0558
H4B H 0.0551 1.5307 0.1942
H4C H 0.1949 0.7193 0.1942
C5A C 0.1707(2) 1.4095(9) 0.08355(11)
C5B C 0.0793(2) 1.4095(9) 0.16645(11)
C5C C 0.1707(2) 0.8405(9) 0.16645(11)
C6A C 0.1319(2) 1.3758(10) 0.07396(11)
C6B C 0.1181(2) 1.3758(10) 0.17604(11)
C6C C 0.1319(2) 0.8742(10) 0.17604(11)
C7A C 0.0918(2) 1.3596(10) 0.04306(11)
C7B C 0.1582(2) 1.3596(10) 0.20694(11)
C7C C 0.0918(2) 0.8904(10) 0.20694(11)
C8A C 0.0627(2) 1.2859(10) 0.05781(11)
C8B C 0.1873(2) 1.2859(10) 0.19219(11)
C8C C 0.0627(2) 0.9641(10) 0.19219(11)
C9A C 0.0255(2) 1.1989(10) 0.05107(12)
C9B C 0.2245(2) 1.1989(10) 0.19893(12)
C9C C 0.0255(2) 1.0511(10) 0.19893(12)
C10A C 0.0241(2) 1.0767(11) 0.03249(12)
C10B C 0.2259(2) 1.0767(11) 0.21751(12)
C10C C 0.0241(2) 1.1733(11) 0.21751(12)
H5A H 0.0453 1.0660 0.0228
H5B H 0.2047 1.0660 0.2272
H5C H 0.0453 1.1840 0.2272
C11A C -0.0088(2) 0.9725(12) 0.02867(14)
C11B C 0.2588(2) 0.9725(12) 0.22133(14)
C11C C -0.0088(2) 1.2775(12) 0.22133(14)
H6A H -0.0095 0.8891 0.0166
H6B H 0.2595 0.8891 0.2334
H6C H -0.0095 1.3609 0.2334
C12A C -0.0410(2) 0.9915(12) 0.04268(13)
C12B C 0.2910(2) 0.9915(12) 0.20732(13)
C12C C -0.0410(2) 1.2585(12) 0.20732(13)
H7A H -0.0631 0.9209 0.0399
H7B H 0.3131 0.9209 0.2101
H7C H -0.0631 1.3291 0.2101
C13A C -0.0406(2) 1.1148(11) 0.06070(13)
C13B C 0.2906(2) 1.1148(11) 0.18930(13)
C13C C -0.0406(2) 1.1352(11) 0.18930(13)
H8A H -0.0623 1.1292 0.0699
H8B H 0.3123 1.1292 0.1801
H8C H -0.0623 1.1208 0.1801
C14A C -0.0070(2) 1.2170(11) 0.06492(13)
C14B C 0.2570(2) 1.2170(11) 0.18508(13)
C14C C -0.0070(2) 1.0330(11) 0.18508(13)
H9A H -0.0064 1.2984 0.0772
H9B H 0.2564 1.2984 0.1728
H9C H -0.0064 0.9516 0.1728
C15A C 0.0859(2) 1.4026(10) 0.01884(12)
C15B C 0.1641(2) 1.4026(10) 0.23116(12)
C15C C 0.0859(2) 0.8474(10) 0.23116(12)
C16A C 0.0528(2) 1.5002(10) 0.01179(12)
C16B C 0.1972(2) 1.5002(10) 0.23821(12)
C16C C 0.0528(2) 0.7498(10) 0.23821(12)
H10A H 0.0339 1.5329 0.0223
H10B H 0.2161 1.5329 0.2277
H10C H 0.0339 0.7171 0.2277
C17A C 0.0483(2) 1.5478(11) -0.01103(13)
C17B C 0.2017(2) 1.5478(11) 0.26103(13)
C17C C 0.0483(2) 0.7022(11) 0.26103(13)
H11A H 0.0267 1.6145 -0.0156
H11B H 0.2233 1.6145 0.2656
H11C H 0.0267 0.6355 0.2656
C18A C 0.0761(2) 1.4960(11) -0.02697(13)
C18B C 0.1739(2) 1.4960(11) 0.27697(13)
C18C C 0.0761(2) 0.7540(11) 0.27697(13)
H12A H 0.0727 1.5244 -0.0423
H12B H 0.1773 1.5244 0.2923
H12C H 0.0727 0.7256 0.2923
C19A C 0.1091(2) 1.4015(11) -0.01985(13)
C19B C 0.1409(2) 1.4015(11) 0.26985(13)
C19C C 0.1091(2) 0.8485(11) 0.26985(13)
H13A H 0.1277 1.3660 -0.0305
H13B H 0.1223 1.3660 0.2805
H13C H 0.1277 0.8840 0.2805
C20A C 0.1144(2) 1.3601(11) 0.00282(12)
C20B C 0.1356(2) 1.3601(11) 0.24718(12)
C20C C 0.1144(2) 0.8899(11) 0.24718(12)
H14A H 0.1372 1.3033 0.0075
H14B H 0.1128 1.3033 0.2425
H14C H 0.1372 0.9467 0.2425
Pb2 Pb 0.3750 0.3750 0.124932(7)
Br1 Br 0.40852(3) 0.12040(16) 0.088885(16)
Br2 Br 0.30536(3) 0.1250 0.1250
Pb2B Pb 0.3750 -0.1250 0.125068(7)
Br1B Br 0.40852(3) 0.12960(16) 0.161115(16)
Br1M Br 0.34148(3) 0.62960(16) 0.088885(16)
Br1O Br 0.34148(3) 0.62040(16) 0.161115(16)
Br2M Br 0.44464(3) 0.6250 0.1250
loop_
_geom_bond_atom_site_label_1
_geom_bond_atom_site_label_2
_geom_bond_site_symmetry_1
_geom_bond_site_symmetry_2
Pb1 N1 1_555 1_555
Pb2 Br1 1_555 1_555
Br1 Pb2B 1_555 1_555
Br2 Pb2 1_555 1_555
N1 C1 1_555 1_555
N2 Pb1 1_555 1_555
N3 N2 1_555 1_555
N4 C6 1_555 1_555
C1 H1 1_555 1_555
C2 C1 1_555 1_555
H2 C2 1_555 1_555
C3 C2 1_555 1_555
H3 C3 1_555 1_555
C4 C3 1_555 1_555
H4 C4 1_555 1_555
C5 N1 1_555 1_555
C6 N2 1_555 1_555
C7 N4 1_555 1_555
C8 N3 1_555 1_555
C9 C8 1_555 1_555
C10 C9 1_555 1_555
H5 C10 1_555 1_555
C11 C10 1_555 1_555
H6 C11 1_555 1_555
C12 C11 1_555 1_555
H7 C12 1_555 1_555
C13 C12 1_555 1_555
H8 C13 1_555 1_555
C14 C9 1_555 1_555
H9 C14 1_555 1_555
C15 C7 1_555 1_555
C16 C15 1_555 1_555
H10 C16 1_555 1_555
C17 C16 1_555 1_555
H11 C17 1_555 1_555
C18 C17 1_555 1_555
H12 C18 1_555 1_555
C19 C18 1_555 1_555
H13 C19 1_555 1_555
C20 C15 1_555 1_555
H14 C20 1_555 1_555
Pb2B Br2 1_555 1_555
Br1B Pb2 1_555 1_555
Br1M Pb2 1_555 1_555
Br1O Pb2 1_555 1_555
Br2M Pb2 1_555 1_555
N1A Pb1 1_555 1_555
N1B Pb1 1_555 1_555
N1C Pb1 1_555 1_555
N2A Pb1 1_555 1_555
N2B Pb1 1_555 1_555
N2C Pb1 1_555 1_555
N3A N2A 1_555 1_555
N3B N2B 1_555 1_555
N3C N2C 1_555 1_555
N4A C6A 1_555 1_555
N4B C6B 1_555 1_555
N4C C6C 1_555 1_555
C1A N1A 1_555 1_555
C1B N1B 1_555 1_555
C1C N1C 1_555 1_555
H1A C1A 1_555 1_555
H1B C1B 1_555 1_555
H1C C1C 1_555 1_555
C2A C1A 1_555 1_555
C2B C1B 1_555 1_555
C2C C1C 1_555 1_555
H2A C2A 1_555 1_555
H2B C2B 1_555 1_555
H2C C2C 1_555 1_555
C3A C2A 1_555 1_555
C3B C2B 1_555 1_555
C3C C2C 1_555 1_555
H3A C3A 1_555 1_555
H3B C3B 1_555 1_555
H3C C3C 1_555 1_555
C4A C3A 1_555 1_555
C4B C3B 1_555 1_555
C4C C3C 1_555 1_555
H4A C4A 1_555 1_555
H4B C4B 1_555 1_555
H4C C4C 1_555 1_555
C5A N1A 1_555 1_555
C5B N1B 1_555 1_555
C5C N1C 1_555 1_555
C6A N2A 1_555 1_555
C6B N2B 1_555 1_555
C6C N2C 1_555 1_555
C7A N4A 1_555 1_555
C7B N4B 1_555 1_555
C7C N4C 1_555 1_555
C8A N3A 1_555 1_555
C8B N3B 1_555 1_555
C8C N3C 1_555 1_555
C9A C8A 1_555 1_555
C9B C8B 1_555 1_555
C9C C8C 1_555 1_555
C10A C9A 1_555 1_555
C10B C9B 1_555 1_555
C10C C9C 1_555 1_555
H5A C10A 1_555 1_555
H5B C10B 1_555 1_555
H5C C10C 1_555 1_555
C11A C10A 1_555 1_555
C11B C10B 1_555 1_555
C11C C10C 1_555 1_555
H6A C11A 1_555 1_555
H6B C11B 1_555 1_555
H6C C11C 1_555 1_555
C12A C11A 1_555 1_555
C12B C11B 1_555 1_555
C12C C11C 1_555 1_555
H7A C12A 1_555 1_555
H7B C12B 1_555 1_555
H7C C12C 1_555 1_555
C13A C12A 1_555 1_555
C13B C12B 1_555 1_555
C13C C12C 1_555 1_555
H8A C13A 1_555 1_555
H8B C13B 1_555 1_555
H8C C13C 1_555 1_555
C14A C9A 1_555 1_555
C14B C9B 1_555 1_555
C14C C9C 1_555 1_555
H9A C14A 1_555 1_555
H9B C14B 1_555 1_555
H9C C14C 1_555 1_555
C15A C7A 1_555 1_555
C15B C7B 1_555 1_555
C15C C7C 1_555 1_555
C16A C15A 1_555 1_555
C16B C15B 1_555 1_555
C16C C15C 1_555 1_555
H10A C16A 1_555 1_555
H10B C16B 1_555 1_555
H10C C16C 1_555 1_555
C17A C16A 1_555 1_555
C17B C16B 1_555 1_555
C17C C16C 1_555 1_555
H11A C17A 1_555 1_555
H11B C17B 1_555 1_555
H11C C17C 1_555 1_555
C18A C17A 1_555 1_555
C18B C17B 1_555 1_555
C18C C17C 1_555 1_555
H12A C18A 1_555 1_555
H12B C18B 1_555 1_555
H12C C18C 1_555 1_555
C19A C18A 1_555 1_555
C19B C18B 1_555 1_555
C19C C18C 1_555 1_555
H13A C19A 1_555 1_555
H13B C19B 1_555 1_555
H13C C19C 1_555 1_555
C20A C15A 1_555 1_555
C20B C15B 1_555 1_555
C20C C15C 1_555 1_555
H14A C20A 1_555 1_555
H14B C20B 1_555 1_555
H14C C20C 1_555 1_555
C4 C5 1_555 1_555
C5 C6 1_555 1_555
C7 C8 1_555 1_555
C13 C14 1_555 1_555
C19 C20 1_555 1_555
Pb2B Br1B 1_555 1_555
C4A C5A 1_555 1_555
C4B C5B 1_555 1_555
C4C C5C 1_555 1_555
C5A C6A 1_555 1_555
C5B C6B 1_555 1_555
C5C C6C 1_555 1_555
C7A C8A 1_555 1_555
C7B C8B 1_555 1_555
C7C C8C 1_555 1_555
C13A C14A 1_555 1_555
C13B C14B 1_555 1_555
C13C C14C 1_555 1_555
C19A C20A 1_555 1_555
C19B C20B 1_555 1_555
C19C C20C 1_555 1_555

#END
