
#######################################################################
#
#                 Cambridge Crystallographic Data Centre
#                                CCDC 
#
#######################################################################
#
# If this CIF has been generated from an entry in the Cambridge 
# Structural Database, then it will include bibliographic, chemical, 
# crystal, experimental, refinement or atomic coordinate data resulting 
# from the CCDC's data processing and validation procedures.
#
#######################################################################

data_IHERAQ
_symmetry_cell_setting           orthorhombic
_symmetry_space_group_name_H-M   'P b c m'
_symmetry_Int_Tables_number      57
_space_group_name_Hall           '-P 2c 2b'
loop_
_symmetry_equiv_pos_site_id
_symmetry_equiv_pos_as_xyz
1 x,y,z
2 -x,-y,1/2+z
3 x,1/2-y,-z
4 -x,1/2+y,1/2-z
5 -x,-y,-z
6 x,y,1/2-z
7 -x,1/2+y,z
8 x,1/2-y,1/2+z
_cell_length_a                   6.58120(10)
_cell_length_b                   13.6752(2)
_cell_length_c                   19.5535(2)
_cell_angle_alpha                90
_cell_angle_beta                 90
_cell_angle_gamma                90
_cell_volume                     1759.8
loop_
_atom_site_label
_atom_site_type_symbol
_atom_site_fract_x
_atom_site_fract_y
_atom_site_fract_z
Y1 Y 0.60693(4) 0.2500 0.5000
O1 O 0.7937(3) 0.34325(15) 0.57612(9)
O2 O 0.8613(3) 0.51608(15) 0.57270(10)
O3 O 1.1010(3) 0.40666(16) 0.62570(9)
O4 O 0.4332(3) 0.27336(14) 0.39406(8)
O5 O 0.6509(3) 0.30601(15) 0.31125(8)
O6 O 0.7912(4) 0.3646(2) 0.43646(11)
O7 O 0.3725(3) 0.12532(17) 0.48363(11)
S1 S 0.89075(8) 0.42568(4) 0.60997(3)
C1 C 0.4713(4) 0.28666(17) 0.33277(11)
C2 C 0.2974(4) 0.28055(19) 0.28417(12)
H1 H 0.2243 0.2201 0.2972
H2 H 0.2068 0.3353 0.2972
C3 C 0.8668(5) 0.4263(2) 0.7500
H3 H 1.0064 0.4086 0.7500
C4 C 0.7622(3) 0.43954(16) 0.68890(11)
C5 C 0.5571(4) 0.46360(18) 0.68858(12)
H4 H 0.4870 0.4723 0.6465
C6 C 0.4561(5) 0.4747(3) 0.7500
H5 H 0.3154 0.4902 0.7500
H6 H 0.298(5) 0.119(3) 0.4508(19)
H7 H 0.795(9) 0.349(4) 0.404(3)
H8 H 0.887(6) 0.404(3) 0.444(2)
H9 H 0.326(7) 0.089(3) 0.511(2)
O1E O 0.7937(3) 0.34325(15) 0.92388(9)
O2E O 0.8613(3) 0.51608(15) 0.92730(10)
O3E O 1.1010(3) 0.40666(16) 0.87430(9)
S1E S 0.89075(8) 0.42568(4) 0.89003(3)
C4E C 0.7622(3) 0.43954(16) 0.81110(11)
C5E C 0.5571(4) 0.46360(18) 0.81142(12)
H4E H 0.4870 0.4723 0.8535
O4E O 0.4332(3) 0.27336(14) 0.10594(8)
O5E O 0.6509(3) 0.30601(15) 0.18875(8)
C1E C 0.4713(4) 0.28666(17) 0.16723(11)
C2E C 0.2974(4) 0.28055(19) 0.21583(12)
H1E H 0.2243 0.2201 0.2028
H2E H 0.2068 0.3353 0.2028
O6B O 0.7912(4) 0.1354(2) 0.56354(11)
O7B O 0.3725(3) 0.37468(17) 0.51637(11)
H6B H 0.298(5) 0.381(3) 0.5492(19)
H7B H 0.795(9) 0.151(4) 0.596(3)
H8B H 0.887(6) 0.096(3) 0.556(2)
H9B H 0.326(7) 0.411(3) 0.489(2)
Y1E Y 0.60693(4) 0.2500 0.0000
Y1E_2 Y 0.60693(4) 0.2500 1.0000
O1B O 0.7937(3) 0.15675(15) 0.42388(9)
O4B O 0.4332(3) 0.22664(14) 0.60594(8)
loop_
_geom_bond_atom_site_label_1
_geom_bond_atom_site_label_2
_geom_bond_site_symmetry_1
_geom_bond_site_symmetry_2
Y1 O1 1_555 1_555
O1 S1 1_555 1_555
O2 S1 1_555 1_555
O3 S1 1_555 1_555
O4 Y1 1_555 1_555
O5 C1 1_555 1_555
O6 Y1 1_555 1_555
O7 Y1 1_555 1_555
S1 C4 1_555 1_555
C1 O4 1_555 1_555
C2 C1 1_555 1_555
H1 C2 1_555 1_555
H2 C2 1_555 1_555
C3 H3 1_555 1_555
C4 C3 1_555 1_555
C5 C4 1_555 1_555
H4 C5 1_555 1_555
C6 C5 1_555 1_555
H5 C6 1_555 1_555
H6 O7 1_555 1_555
H7 O6 1_555 1_555
H8 O6 1_555 1_555
H9 O7 1_555 1_555
O1E S1E 1_555 1_555
O2E S1E 1_555 1_555
O3E S1E 1_555 1_555
S1E C4E 1_555 1_555
C4E C3 1_555 1_555
C5E C6 1_555 1_555
H4E C5E 1_555 1_555
O4E C1E 1_555 1_555
O5E C1E 1_555 1_555
C1E C2E 1_555 1_555
C2E C2 1_555 1_555
H1E C2E 1_555 1_555
H2E C2E 1_555 1_555
O6B Y1 1_555 1_555
O7B Y1 1_555 1_555
H6B O7B 1_555 1_555
H7B O6B 1_555 1_555
H8B O6B 1_555 1_555
H9B O7B 1_555 1_555
Y1E O4E 1_555 1_555
Y1E_2 O1E 1_555 1_555
O1B Y1 1_555 1_555
O4B Y1 1_555 1_555
C4E C5E 1_555 1_555

#END
