
#######################################################################
#
#                 Cambridge Crystallographic Data Centre
#                                CCDC 
#
#######################################################################
#
# If this CIF has been generated from an entry in the Cambridge 
# Structural Database, then it will include bibliographic, chemical, 
# crystal, experimental, refinement or atomic coordinate data resulting 
# from the CCDC's data processing and validation procedures.
#
#######################################################################

data_IHETIY
_symmetry_cell_setting           monoclinic
_symmetry_space_group_name_H-M   'P 21/n'
_symmetry_Int_Tables_number      14
_space_group_name_Hall           '-P 2yn'
loop_
_symmetry_equiv_pos_site_id
_symmetry_equiv_pos_as_xyz
1 x,y,z
2 1/2+x,1/2-y,1/2+z
3 -x,-y,-z
4 1/2-x,1/2+y,1/2-z
_cell_length_a                   9.7060(17)
_cell_length_b                   9.9929(16)
_cell_length_c                   27.557(5)
_cell_angle_alpha                90
_cell_angle_beta                 96.795(3)
_cell_angle_gamma                90
_cell_volume                     2654.01
loop_
_atom_site_label
_atom_site_type_symbol
_atom_site_fract_x
_atom_site_fract_y
_atom_site_fract_z
Zn1 Zn 0.51425(11) 0.20081(9) 0.35999(4)
Zn2 Zn 1.01581(11) 0.26321(9) 0.35925(4)
Zn3 Zn 0.79696(9) 0.41977(8) 0.20795(3)
Zn4 Zn 0.29609(9) 0.04675(8) 0.20760(3)
P1 P 0.5979(2) 0.19722(19) 0.25063(7)
P2 P 1.1008(2) 0.27034(19) 0.25078(8)
P3 P 0.7825(2) 0.0594(2) 0.39441(8)
P4 P 0.2817(2) 0.4043(2) 0.39556(8)
O1 O 0.9165(7) 0.1073(6) 0.3775(2)
O2 O 0.1797(6) 0.2964(5) 0.4053(2)
O3 O 1.0983(7) 0.2062(5) 0.3009(2)
O4 O 1.1398(6) 0.1622(5) 0.21611(19)
O5 O 1.2072(6) 0.3838(5) 0.25315(19)
O6 O 0.4610(7) 0.1455(6) 0.2286(3)
O7 O 0.2143(7) 0.5096(5) 0.3618(2)
O8 O 0.4155(7) 0.3544(6) 0.3801(2)
O9 O 0.5912(8) 0.2584(6) 0.3006(2)
O10 O 0.6418(6) 0.3079(5) 0.2168(2)
O11 O 0.7068(6) 0.0856(5) 0.25485(19)
O12 O 0.9594(6) 0.3203(6) 0.2309(3)
O13 O 0.7119(6) -0.0484(5) 0.3614(2)
O14 O 0.6816(6) 0.1701(5) 0.4043(2)
N1 N 0.3809(9) 0.0495(8) 0.3450(3)
H1 H 0.3168 0.0776 0.3208
H2 H 0.4282 -0.0170 0.3325
N2 N 0.1172(8) -0.0817(7) 0.3192(3)
H3 H 0.0603 -0.1498 0.3108
H4 H 0.1711 -0.0675 0.2957
H5 H 0.0677 -0.0085 0.3232
N3 N 0.8798(8) 0.4118(7) 0.3423(3)
H6 H 0.9263 0.4780 0.3292
H7 H 0.8168 0.3810 0.3183
N4 N 0.6155(8) 0.5456(7) 0.3169(3)
H8 H 0.5592 0.6142 0.3087
H9 H 0.5654 0.4728 0.3211
H10 H 0.6689 0.5309 0.2933
C1 C 0.3065(11) -0.0092(10) 0.3820(4)
H11 H 0.2472 0.0645 0.3904
C2 C 0.2057(11) -0.1141(10) 0.3659(4)
H12 H 0.2637 -0.1883 0.3569
C3 C 0.1261(11) -0.1736(10) 0.4036(4)
H13 H 0.0498 -0.1145 0.4086
H14 H 0.0869 -0.2583 0.3915
C4 C 0.2111(17) -0.1964(12) 0.4510(5)
H15 H 0.1489 -0.2034 0.4760
H16 H 0.2572 -0.2822 0.4494
C5 C 0.3155(16) -0.0972(15) 0.4668(5)
H17 H 0.3822 -0.1379 0.4914
H18 H 0.2707 -0.0251 0.4826
C6 C 0.3920(11) -0.0382(10) 0.4294(4)
H19 H 0.4662 -0.0988 0.4233
H20 H 0.4345 0.0445 0.4421
C7 C 0.8009(10) 0.4744(9) 0.3796(3)
H21 H 0.7403 0.4014 0.3877
C8 C 0.7040(11) 0.5769(10) 0.3630(3)
H22 H 0.7627 0.6506 0.3541
C9 C 0.6248(10) 0.6364(9) 0.4009(4)
H23 H 0.5510 0.5753 0.4069
H24 H 0.5819 0.7189 0.3882
C10 C 0.7120(14) 0.6659(11) 0.4489(4)
H25 H 0.7607 0.7497 0.4458
H26 H 0.6509 0.6776 0.4740
C11 C 0.8146(15) 0.5609(13) 0.4648(4)
H27 H 0.8835 0.5993 0.4892
H28 H 0.7675 0.4906 0.4806
C12 C 0.8871(11) 0.4997(9) 0.4269(3)
H29 H 0.9263 0.4153 0.4392
H30 H 0.9637 0.5575 0.4209
H31 H 0.322(11) 0.469(9) 0.436(4)
H32 H 0.825(11) -0.005(8) 0.436(2)
O2_2 O 1.1797(6) 0.2964(5) 0.4053(2)
O11C O 0.7932(6) 0.5856(5) 0.24515(19)
O13C O 0.7881(6) 0.4516(5) 0.1386(2)
O4_2 O 0.1398(6) 0.1622(5) 0.21611(19)
O5C O 0.2928(6) -0.1162(5) 0.24685(19)
O7C O 0.2857(7) 0.0096(5) 0.1382(2)
Zn2_2 Zn 0.01581(11) 0.26321(9) 0.35925(4)
Zn4_2 Zn 1.29609(9) 0.04675(8) 0.20760(3)
Zn4C Zn 1.20391(9) 0.54675(8) 0.29240(3)
Zn4C_2 Zn 0.20391(9) 0.54675(8) 0.29240(3)
Zn3C Zn 0.70304(9) -0.08023(8) 0.29205(3)
loop_
_geom_bond_atom_site_label_1
_geom_bond_atom_site_label_2
_geom_bond_site_symmetry_1
_geom_bond_site_symmetry_2
Zn1 O8 1_555 1_555
Zn2 O1 1_555 1_555
Zn3 O10 1_555 1_555
Zn4 O6 1_555 1_555
P1 O6 1_555 1_555
P2 O3 1_555 1_555
P3 O1 1_555 1_555
P4 O2 1_555 1_555
O2 Zn2_2 1_555 1_555
O3 Zn2 1_555 1_555
O4 P2 1_555 1_555
O5 P2 1_555 1_555
O7 P4 1_555 1_555
O8 P4 1_555 1_555
O9 Zn1 1_555 1_555
O10 P1 1_555 1_555
O11 P1 1_555 1_555
O12 Zn3 1_555 1_555
O13 P3 1_555 1_555
O14 Zn1 1_555 1_555
N1 Zn1 1_555 1_555
H1 N1 1_555 1_555
H2 N1 1_555 1_555
N2 H3 1_555 1_555
H4 N2 1_555 1_555
H5 N2 1_555 1_555
N3 Zn2 1_555 1_555
H6 N3 1_555 1_555
H7 N3 1_555 1_555
N4 H8 1_555 1_555
H9 N4 1_555 1_555
H10 N4 1_555 1_555
C1 N1 1_555 1_555
H11 C1 1_555 1_555
C2 N2 1_555 1_555
H12 C2 1_555 1_555
C3 C2 1_555 1_555
H13 C3 1_555 1_555
H14 C3 1_555 1_555
C4 C3 1_555 1_555
H15 C4 1_555 1_555
H16 C4 1_555 1_555
C5 C4 1_555 1_555
H17 C5 1_555 1_555
H18 C5 1_555 1_555
C6 C1 1_555 1_555
H19 C6 1_555 1_555
H20 C6 1_555 1_555
C7 N3 1_555 1_555
H21 C7 1_555 1_555
C8 N4 1_555 1_555
H22 C8 1_555 1_555
C9 C8 1_555 1_555
H23 C9 1_555 1_555
H24 C9 1_555 1_555
C10 C9 1_555 1_555
H25 C10 1_555 1_555
H26 C10 1_555 1_555
C11 C10 1_555 1_555
H27 C11 1_555 1_555
H28 C11 1_555 1_555
C12 C7 1_555 1_555
H29 C12 1_555 1_555
H30 C12 1_555 1_555
H31 P4 1_555 1_555
H32 P3 1_555 1_555
O2_2 Zn2 1_555 1_555
O11C Zn3 1_555 1_555
O13C Zn3 1_555 1_555
O4_2 Zn4 1_555 1_555
O5C Zn4 1_555 1_555
O7C Zn4 1_555 1_555
Zn4_2 O4 1_555 1_555
Zn4C O5 1_555 1_555
Zn4C_2 O7 1_555 1_555
Zn3C O11 1_555 1_555
P1 O9 1_555 1_555
P2 O12 1_555 1_555
P3 O14 1_555 1_555
O13 Zn3C 1_555 1_555
C1 C2 1_555 1_555
C5 C6 1_555 1_555
C7 C8 1_555 1_555
C11 C12 1_555 1_555

#END
