
#######################################################################
#
#                 Cambridge Crystallographic Data Centre
#                                CCDC 
#
#######################################################################
#
# If this CIF has been generated from an entry in the Cambridge 
# Structural Database, then it will include bibliographic, chemical, 
# crystal, experimental, refinement or atomic coordinate data resulting 
# from the CCDC's data processing and validation procedures.
#
#######################################################################

data_IHEVIA
_symmetry_cell_setting           triclinic
_symmetry_space_group_name_H-M   'P 1'
_symmetry_Int_Tables_number      1
_space_group_name_Hall           'P 1'
loop_
_symmetry_equiv_pos_site_id
_symmetry_equiv_pos_as_xyz
1 x,y,z
_cell_length_a                   13.052(4)
_cell_length_b                   13.725(3)
_cell_length_c                   9.929(3)
_cell_angle_alpha                110.34(2)
_cell_angle_beta                 100.73(2)
_cell_angle_gamma                109.62(2)
_cell_volume                     1475.66
loop_
_atom_site_label
_atom_site_type_symbol
_atom_site_fract_x
_atom_site_fract_y
_atom_site_fract_z
Sm1 Sm -0.00294(3) -0.00316(3) -0.00488(3)
O1 O -0.0826(8) 0.1164(9) 0.1663(11)
O2 O 0.0584(11) -0.1485(10) 0.0443(13)
O3 O -0.1003(11) -0.1917(9) -0.2363(11)
O4 O 0.1273(9) 0.0834(12) 0.2457(11)
C1 C 0.2067(11) 0.1467(12) 0.3728(15)
C2 C 0.3057(11) 0.2507(9) 0.3881(13)
H1 H 0.2745 0.2961 0.3512
N1 N 0.3863(9) 0.3253(10) 0.5483(13)
H2 H 0.3780 0.3911 0.5839
H3 H 0.3662 0.2892 0.6061
C3 C 0.509(2) 0.355(2) 0.567(3)
H4 H 0.5402 0.3214 0.6255
H5 H 0.5554 0.4374 0.6136
C4 C 0.496(3) 0.295(3) 0.393(4)
H6 H 0.5245 0.3544 0.3590
H7 H 0.5438 0.2538 0.3825
C5 C 0.3810(19) 0.2188(19) 0.300(3)
H8 H 0.3683 0.1399 0.2757
H9 H 0.3629 0.2253 0.2051
O5 O 0.0836(12) 0.1927(10) 0.0139(14)
C6 C 0.0611(11) 0.2795(9) 0.0483(15)
O6 O -0.0140(9) 0.2905(9) 0.0980(14)
C7 C 0.1458(15) 0.3810(10) 0.037(2)
H10 H 0.1599 0.3536 -0.0603
N2 N 0.0931(12) 0.4644(11) 0.0413(17)
H11 H 0.1009 0.4866 -0.0330
H12 H 0.0172 0.4305 0.0269
C8 C 0.153(2) 0.5622(19) 0.188(3)
H13 H 0.0995 0.5687 0.2433
H14 H 0.1851 0.6323 0.1764
C9 C 0.250(3) 0.545(3) 0.277(3)
H15 H 0.3226 0.6142 0.3224
H16 H 0.2305 0.5251 0.3560
C10 C 0.256(2) 0.453(2) 0.163(3)
H17 H 0.2768 0.4063 0.2070
H18 H 0.3165 0.4836 0.1242
O7 O -0.1659(9) -0.1273(9) 0.0327(12)
C11 C -0.1796(10) -0.1349(11) 0.1506(14)
C12 C -0.3034(9) -0.1876(10) 0.1481(12)
H19 H -0.3197 -0.1264 0.2133
N3 N -0.3902(10) -0.2452(11) -0.0182(13)
H20 H -0.4186 -0.1972 -0.0339
H21 H -0.3555 -0.2645 -0.0868
C13 C -0.476(2) -0.341(2) -0.030(3)
H22 H -0.4777 -0.4083 -0.1085
H23 H -0.5494 -0.3386 -0.0634
C14 C -0.4644(14) -0.3543(14) 0.1118(19)
H24 H -0.4896 -0.4346 0.0917
H25 H -0.5073 -0.3220 0.1690
C15 C -0.3362(14) -0.2859(15) 0.193(2)
H26 H -0.2960 -0.3328 0.1604
H27 H -0.3175 -0.2566 0.3029
O8 O -0.1620(9) 0.0013(10) -0.1676(12)
C16 C -0.1601(12) 0.0077(13) -0.2887(17)
C17 C -0.2566(13) 0.0270(16) -0.3736(19)
H28 H -0.2834 -0.0239 -0.4832
N4 N -0.3547(8) -0.0010(10) -0.3164(12)
H29 H -0.3335 -0.0108 -0.2323
H30 H -0.4151 -0.0668 -0.3882
C18 C -0.3880(15) 0.0961(15) -0.280(2)
H31 H -0.3651 0.1400 -0.1699
H32 H -0.4710 0.0677 -0.3249
C19 C -0.324(2) 0.1689(19) -0.347(3)
H33 H -0.3026 0.2498 -0.2847
H34 H -0.3725 0.1465 -0.4496
C20 C -0.2182(15) 0.1482(15) -0.350(2)
H35 H -0.1939 0.1580 -0.4325
H36 H -0.1546 0.2005 -0.2538
O9 O 0.1419(9) -0.0037(10) -0.1103(13)
C21 C 0.1969(12) -0.0222(13) -0.1942(17)
C22 C 0.3023(13) -0.0408(14) -0.1344(16)
H37 H 0.3680 0.0336 -0.0636
N5 N 0.2696(9) -0.1145(9) -0.0528(11)
H38 H 0.3323 -0.0972 0.0231
H39 H 0.2164 -0.1021 -0.0123
C23 C 0.2214(17) -0.2373(14) -0.168(2)
H40 H 0.1377 -0.2741 -0.1987
H41 H 0.2526 -0.2801 -0.1270
C24 C 0.2598(19) -0.2309(16) -0.304(2)
H42 H 0.2988 -0.2798 -0.3326
H43 H 0.1932 -0.2562 -0.3919
C25 C 0.3388(11) -0.1099(12) -0.2531(15)
H44 H 0.3324 -0.0899 -0.3379
H45 H 0.4183 -0.0958 -0.2096
Sm2 Sm 0.04160(3) -0.00806(3) 0.50761(3)
O10 O 0.1146(9) -0.1243(10) 0.3399(12)
O11 O -0.0247(9) 0.1286(9) 0.4627(11)
O12 O 0.1396(9) 0.1722(9) 0.7450(11)
O13 O -0.1039(9) -0.1037(10) 0.2702(12)
O14 O -0.0598(10) -0.2066(9) 0.4912(11)
C26 C -0.0792(11) -0.3053(9) 0.3934(13)
O15 O -0.0237(10) -0.3210(8) 0.3063(13)
C27 C -0.1776(14) -0.4089(12) 0.3802(17)
H46 H -0.2417 -0.3906 0.3981
N6 N -0.2181(10) -0.5099(9) 0.2262(14)
H47 H -0.2925 -0.5306 0.1756
H48 H -0.1754 -0.4893 0.1708
C28 C -0.2075(19) -0.6086(16) 0.244(2)
H49 H -0.2806 -0.6772 0.1879
H50 H -0.1489 -0.6240 0.2046
C29 C -0.176(3) -0.579(2) 0.399(3)
H51 H -0.1158 -0.6019 0.4271
H52 H -0.2424 -0.6209 0.4201
C30 C -0.133(2) -0.4512(16) 0.496(2)
H53 H -0.0491 -0.4131 0.5404
H54 H -0.1650 -0.4371 0.5780
O16 O 0.1788(9) -0.0301(10) -0.3284(11)
O17 O 0.2086(10) 0.1268(11) 0.4883(13)
O18 O -0.0829(9) -0.0008(10) -0.3448(12)
O16_2 O 0.1788(9) -0.0301(10) 0.6716(11)
O18_2 O -0.0829(9) -0.0008(10) 0.6552(12)
Sm2_2 Sm 0.04160(3) -0.00806(3) -0.49239(3)
Cl1 Cl 0.4639(4) 0.3100(4) 0.9377(6)
O19 O 0.5258(15) 0.3984(14) 1.0900(15)
O20 O 0.3854(15) 0.2161(14) 0.952(2)
O21 O 0.5384(17) 0.284(2) 0.868(2)
O22 O 0.3910(13) 0.3460(12) 0.8582(14)
Cl2 Cl 0.3886(3) 0.8742(4) 0.3097(4)
O23 O 0.5013(9) 0.8887(16) 0.3678(16)
O24 O 0.3325(11) 0.7862(11) 0.1576(10)
O25 O 0.3211(12) 0.8416(16) 0.3982(15)
O26 O 0.388(2) 0.9777(13) 0.309(2)
Cl3 Cl 0.8517(3) 0.5311(3) 0.8903(4)
O27 O 0.9623(11) 0.6054(12) 0.9074(17)
O28 O 0.8000(15) 0.5999(14) 0.9691(17)
O29 O 0.8613(11) 0.4594(9) 0.9637(12)
O30 O 0.7802(12) 0.4641(12) 0.7378(11)
Cl4 Cl 0.6143(2) 0.0476(3) 0.1177(4)
O31 O 0.6889(11) 0.0759(15) 0.2641(12)
O32 O 0.5703(14) 0.1279(12) 0.124(2)
O33 O 0.5202(9) -0.0648(10) 0.0643(14)
O34 O 0.6738(10) 0.0365(14) 0.0143(13)
Cl5 Cl 0.5683(5) 0.6682(6) 0.5897(6)
O35 O 0.4678(13) 0.5652(13) 0.532(3)
O36 O 0.6588(11) 0.6696(14) 0.6985(16)
O37 O 0.5442(16) 0.7606(12) 0.6783(19)
O38 O 0.607(2) 0.690(2) 0.479(2)
Cl6 Cl 0.1520(4) 0.4425(4) 0.6675(6)
O39 O 0.1265(16) 0.5010(13) 0.5866(19)
O40 O 0.0466(11) 0.3629(10) 0.6685(18)
O41 O 0.2183(15) 0.5249(12) 0.8248(14)
O42 O 0.2072(17) 0.3765(15) 0.607(2)
loop_
_geom_bond_atom_site_label_1
_geom_bond_atom_site_label_2
_geom_bond_site_symmetry_1
_geom_bond_site_symmetry_2
Sm1 O1 1_555 1_555
O2 Sm1 1_555 1_555
O3 Sm1 1_555 1_555
O4 Sm1 1_555 1_555
C1 O4 1_555 1_555
C2 C1 1_555 1_555
H1 C2 1_555 1_555
N1 C2 1_555 1_555
H2 N1 1_555 1_555
H3 N1 1_555 1_555
C3 N1 1_555 1_555
H4 C3 1_555 1_555
H5 C3 1_555 1_555
C4 C3 1_555 1_555
H6 C4 1_555 1_555
H7 C4 1_555 1_555
C5 C2 1_555 1_555
H8 C5 1_555 1_555
H9 C5 1_555 1_555
O5 Sm1 1_555 1_555
C6 O5 1_555 1_555
O6 C6 1_555 1_555
C7 C6 1_555 1_555
H10 C7 1_555 1_555
N2 C7 1_555 1_555
H11 N2 1_555 1_555
H12 N2 1_555 1_555
C8 N2 1_555 1_555
H13 C8 1_555 1_555
H14 C8 1_555 1_555
C9 C8 1_555 1_555
H15 C9 1_555 1_555
H16 C9 1_555 1_555
C10 C7 1_555 1_555
H17 C10 1_555 1_555
H18 C10 1_555 1_555
O7 Sm1 1_555 1_555
C11 O7 1_555 1_555
C12 C11 1_555 1_555
H19 C12 1_555 1_555
N3 C12 1_555 1_555
H20 N3 1_555 1_555
H21 N3 1_555 1_555
C13 N3 1_555 1_555
H22 C13 1_555 1_555
H23 C13 1_555 1_555
C14 C13 1_555 1_555
H24 C14 1_555 1_555
H25 C14 1_555 1_555
C15 C12 1_555 1_555
H26 C15 1_555 1_555
H27 C15 1_555 1_555
O8 Sm1 1_555 1_555
C16 O8 1_555 1_555
C17 C16 1_555 1_555
H28 C17 1_555 1_555
N4 C17 1_555 1_555
H29 N4 1_555 1_555
H30 N4 1_555 1_555
C18 N4 1_555 1_555
H31 C18 1_555 1_555
H32 C18 1_555 1_555
C19 C18 1_555 1_555
H33 C19 1_555 1_555
H34 C19 1_555 1_555
C20 C17 1_555 1_555
H35 C20 1_555 1_555
H36 C20 1_555 1_555
O9 Sm1 1_555 1_555
C21 O9 1_555 1_555
C22 C21 1_555 1_555
H37 C22 1_555 1_555
N5 C22 1_555 1_555
H38 N5 1_555 1_555
H39 N5 1_555 1_555
C23 N5 1_555 1_555
H40 C23 1_555 1_555
H41 C23 1_555 1_555
C24 C23 1_555 1_555
H42 C24 1_555 1_555
H43 C24 1_555 1_555
C25 C22 1_555 1_555
H44 C25 1_555 1_555
H45 C25 1_555 1_555
Sm2 O10 1_555 1_555
O11 Sm2 1_555 1_555
O12 Sm2 1_555 1_555
O13 C11 1_555 1_555
O14 Sm2 1_555 1_555
C26 O14 1_555 1_555
O15 C26 1_555 1_555
C27 C26 1_555 1_555
H46 C27 1_555 1_555
N6 C27 1_555 1_555
H47 N6 1_555 1_555
H48 N6 1_555 1_555
C28 N6 1_555 1_555
H49 C28 1_555 1_555
H50 C28 1_555 1_555
C29 C28 1_555 1_555
H51 C29 1_555 1_555
H52 C29 1_555 1_555
C30 C27 1_555 1_555
H53 C30 1_555 1_555
H54 C30 1_555 1_555
O16 C21 1_555 1_555
O17 C1 1_555 1_555
O18 C16 1_555 1_555
Cl1 O19 1_555 1_555
O20 Cl1 1_555 1_555
O21 Cl1 1_555 1_555
O22 Cl1 1_555 1_555
Cl2 O23 1_555 1_555
O24 Cl2 1_555 1_555
O25 Cl2 1_555 1_555
O26 Cl2 1_555 1_555
Cl3 O27 1_555 1_555
O28 Cl3 1_555 1_555
O29 Cl3 1_555 1_555
O30 Cl3 1_555 1_555
Cl4 O31 1_555 1_555
O32 Cl4 1_555 1_555
O33 Cl4 1_555 1_555
O34 Cl4 1_555 1_555
Cl5 O35 1_555 1_555
O36 Cl5 1_555 1_555
O37 Cl5 1_555 1_555
O38 Cl5 1_555 1_555
Cl6 O39 1_555 1_555
O40 Cl6 1_555 1_555
O41 Cl6 1_555 1_555
O42 Cl6 1_555 1_555
O16_2 Sm2 1_555 1_555
O18_2 Sm2 1_555 1_555
Sm2_2 O16 1_555 1_555
C4 C5 1_555 1_555
C9 C10 1_555 1_555
C14 C15 1_555 1_555
C19 C20 1_555 1_555
C24 C25 1_555 1_555
Sm2 O13 1_555 1_555
Sm2 O17 1_555 1_555
C29 C30 1_555 1_555
O18 Sm2_2 1_555 1_555

#END
