
#######################################################################
#
#                 Cambridge Crystallographic Data Centre
#                                CCDC 
#
#######################################################################
#
# If this CIF has been generated from an entry in the Cambridge 
# Structural Database, then it will include bibliographic, chemical, 
# crystal, experimental, refinement or atomic coordinate data resulting 
# from the CCDC's data processing and validation procedures.
#
#######################################################################

data_IHEVAU
_symmetry_cell_setting           monoclinic
_symmetry_space_group_name_H-M   'P 21/n'
_symmetry_Int_Tables_number      14
_space_group_name_Hall           '-P 2yn'
loop_
_symmetry_equiv_pos_site_id
_symmetry_equiv_pos_as_xyz
1 x,y,z
2 1/2-x,1/2+y,1/2-z
3 -x,-y,-z
4 1/2+x,1/2-y,1/2+z
_cell_length_a                   8.9819(17)
_cell_length_b                   16.218(5)
_cell_length_c                   15.373(4)
_cell_angle_alpha                90
_cell_angle_beta                 94.356(15)
_cell_angle_gamma                90
_cell_volume                     2232.89
loop_
_atom_site_label
_atom_site_type_symbol
_atom_site_fract_x
_atom_site_fract_y
_atom_site_fract_z
C1 C 0.3423(3) 0.71339(16) 0.46801(16)
H1 H 0.3325 0.6562 0.4794
C2 C 0.8050(3) 1.04037(16) 0.98282(16)
H2 H 0.7315 1.0657 1.0152
C3 C 0.3615(3) 0.76947(15) 0.53597(16)
H3 H 0.3658 0.7510 0.5948
C4 C 0.3743(3) 0.85261(15) 0.51752(15)
C5 C 0.0541(3) 1.08467(15) 0.63287(16)
H4 H -0.0055 1.1022 0.6779
C6 C 0.0311(3) 1.11666(15) 0.54959(16)
H5 H -0.0457 1.1558 0.5358
C7 C 0.1228(3) 1.09020(15) 0.48695(17)
H6 H 0.1060 1.1119 0.4296
N1 N 0.2342(2) 1.03568(12) 0.50229(13)
Cu1 Cu 0.62630(3) 0.994537(18) 0.593488(19)
P1 P 0.41286(7) 0.93223(4) 0.60189(4)
O1 O 0.9006(2) 0.90115(11) 0.72178(11)
N2 N 0.3715(2) 0.88085(12) 0.43470(13)
C8 C 0.2396(3) 0.83463(16) 0.70910(16)
H7 H 0.1675 0.8312 0.6607
C9 C 1.0155(3) 0.96234(15) 0.88636(15)
H8 H 1.0855 0.9347 0.8533
C10 C 1.0540(3) 0.98032(14) 0.97523(15)
C11 C 0.2530(3) 1.00332(14) 0.58313(15)
C12 C 0.7744(3) 1.02420(15) 0.89629(16)
H9 H 0.6807 1.0403 0.8686
C13 C 0.3699(3) 0.87983(15) 0.70202(15)
C14 C 0.1656(3) 1.02650(15) 0.64940(16)
H10 H 0.1821 1.0027 0.7058
C15 C 0.4461(3) 0.84619(17) 0.85206(17)
H11 H 0.5157 0.8509 0.9015
C16 C 0.3180(3) 0.80023(17) 0.85693(17)
H12 H 0.3010 0.7721 0.9095
C17 C 0.4729(3) 0.88573(16) 0.77432(16)
H13 H 0.5618 0.9168 0.7706
C18 C 0.3378(3) 0.74227(16) 0.38367(17)
H14 H 0.3248 0.7053 0.3358
C19 C 0.3525(3) 0.82587(16) 0.36990(16)
H15 H 0.3489 0.8454 0.3115
C20 C 0.2141(3) 0.79460(16) 0.78619(17)
H16 H 0.1255 0.7634 0.7904
C21 C 0.8795(3) 0.98398(14) 0.84700(16)
O2 O 0.7432(2) 1.00855(10) 0.71228(11)
C22 C 0.8390(3) 0.96252(16) 0.75269(15)
C2B C 1.1950(3) 0.95963(16) 1.01718(16)
H2B H 1.2685 0.9343 0.9848
O1B O 1.0994(2) 1.09885(11) 1.27822(11)
C9B C 0.9845(3) 1.03766(15) 1.11364(15)
H8B H 0.9145 1.0653 1.1467
C10B C 0.9460(3) 1.01968(14) 1.02477(15)
C12B C 1.2256(3) 0.97580(15) 1.10371(16)
H9B H 1.3193 0.9597 1.1314
C21B C 1.1205(3) 1.01602(14) 1.15300(16)
O2B O 1.2568(2) 0.99145(10) 1.28772(11)
C22B C 1.1610(3) 1.03748(16) 1.24731(15)
C1B C 0.6577(3) 1.28661(16) 0.53199(16)
H1B H 0.6675 1.3438 0.5206
C3B C 0.6385(3) 1.23053(15) 0.46403(16)
H3B H 0.6342 1.2490 0.4052
C4B C 0.6257(3) 1.14739(15) 0.48248(15)
C5B C 0.9459(3) 0.91533(15) 0.36713(16)
H4B H 1.0055 0.8978 0.3221
C6B C 0.9689(3) 0.88334(15) 0.45041(16)
H5B H 1.0457 0.8442 0.4642
C7B C 0.8772(3) 0.90980(15) 0.51305(17)
H6B H 0.8940 0.8881 0.5704
N1B N 0.7658(2) 0.96432(12) 0.49771(13)
Cu1B Cu 0.37370(3) 1.005463(18) 0.406512(19)
P1B P 0.58714(7) 1.06777(4) 0.39811(4)
N2B N 0.6285(2) 1.11915(12) 0.56530(13)
C8B C 0.7604(3) 1.16537(16) 0.29090(16)
H7B H 0.8325 1.1688 0.3393
C11B C 0.7470(3) 0.99668(14) 0.41687(15)
C13B C 0.6301(3) 1.12017(15) 0.29798(15)
C14B C 0.8344(3) 0.97350(15) 0.35060(16)
H10B H 0.8179 0.9973 0.2942
C15B C 0.5539(3) 1.15381(17) 0.14794(17)
H11B H 0.4843 1.1491 0.0985
C16B C 0.6820(3) 1.19977(17) 0.14307(17)
H12B H 0.6990 1.2279 0.0905
C17B C 0.5271(3) 1.11427(16) 0.22568(16)
H13B H 0.4382 1.0832 0.2294
C18B C 0.6622(3) 1.25773(16) 0.61633(17)
H14B H 0.6752 1.2947 0.6642
C19B C 0.6475(3) 1.17413(16) 0.63010(16)
H15B H 0.6511 1.1546 0.6885
C20B C 0.7859(3) 1.20540(16) 0.21381(17)
H16B H 0.8745 1.2366 0.2096
Cu1B_2 Cu 1.37370(3) 1.005463(18) 1.406512(19)
O2B_2 O 0.2568(2) 0.99145(10) 0.28772(11)
O3 O 0.6408(2) 0.24678(12) 0.83383(13)
H17 H 0.6178 0.2946 0.8168
C23 C 0.7951(3) 0.24413(18) 0.8615(2)
H18 H 0.8250 0.2966 0.8892
H19 H 0.8532 0.2348 0.8110
H20 H 0.8136 0.1992 0.9035
O4 O 0.4464(3) 0.15380(16) 0.92206(14)
H21 H 0.5048 0.1856 0.8981
C24 C 0.3673(4) 0.1056(2) 0.8581(2)
H22 H 0.3369 0.0537 0.8841
H23 H 0.4313 0.0939 0.8107
H24 H 0.2784 0.1358 0.8348
loop_
_geom_bond_atom_site_label_1
_geom_bond_atom_site_label_2
_geom_bond_site_symmetry_1
_geom_bond_site_symmetry_2
C1 H1 1_555 1_555
C2 H2 1_555 1_555
C3 C1 1_555 1_555
H3 C3 1_555 1_555
C4 C3 1_555 1_555
C5 H4 1_555 1_555
C6 C5 1_555 1_555
H5 C6 1_555 1_555
C7 C6 1_555 1_555
H6 C7 1_555 1_555
N1 C7 1_555 1_555
Cu1 P1 1_555 1_555
P1 C4 1_555 1_555
O1 C22 1_555 1_555
N2 C4 1_555 1_555
C8 H7 1_555 1_555
C9 H8 1_555 1_555
C10 C9 1_555 1_555
C11 N1 1_555 1_555
C12 C2 1_555 1_555
H9 C12 1_555 1_555
C13 P1 1_555 1_555
C14 C5 1_555 1_555
H10 C14 1_555 1_555
C15 H11 1_555 1_555
C16 C15 1_555 1_555
H12 C16 1_555 1_555
C17 C13 1_555 1_555
H13 C17 1_555 1_555
C18 C1 1_555 1_555
H14 C18 1_555 1_555
C19 N2 1_555 1_555
H15 C19 1_555 1_555
C20 C8 1_555 1_555
H16 C20 1_555 1_555
C21 C9 1_555 1_555
O2 Cu1 1_555 1_555
C22 C21 1_555 1_555
O3 H17 1_555 1_555
C23 O3 1_555 1_555
H18 C23 1_555 1_555
H19 C23 1_555 1_555
H20 C23 1_555 1_555
O4 H21 1_555 1_555
C24 O4 1_555 1_555
H22 C24 1_555 1_555
H23 C24 1_555 1_555
H24 C24 1_555 1_555
C2B C10 1_555 1_555
H2B C2B 1_555 1_555
O1B C22B 1_555 1_555
C9B H8B 1_555 1_555
C10B C2 1_555 1_555
C12B C2B 1_555 1_555
H9B C12B 1_555 1_555
C21B C9B 1_555 1_555
O2B C22B 1_555 1_555
C22B C21B 1_555 1_555
C1B H1B 1_555 1_555
C3B C1B 1_555 1_555
H3B C3B 1_555 1_555
C4B C3B 1_555 1_555
C5B H4B 1_555 1_555
C6B C5B 1_555 1_555
H5B C6B 1_555 1_555
C7B C6B 1_555 1_555
H6B C7B 1_555 1_555
N1B Cu1 1_555 1_555
Cu1B N1 1_555 1_555
P1B C4B 1_555 1_555
N2B Cu1 1_555 1_555
C8B H7B 1_555 1_555
C11B N1B 1_555 1_555
C13B P1B 1_555 1_555
C14B C5B 1_555 1_555
H10B C14B 1_555 1_555
C15B H11B 1_555 1_555
C16B C15B 1_555 1_555
H12B C16B 1_555 1_555
C17B C13B 1_555 1_555
H13B C17B 1_555 1_555
C18B C1B 1_555 1_555
H14B C18B 1_555 1_555
C19B N2B 1_555 1_555
H15B C19B 1_555 1_555
C20B C8B 1_555 1_555
H16B C20B 1_555 1_555
Cu1B_2 O2B 1_555 1_555
O2B_2 Cu1B 1_555 1_555
P1 C11 1_555 1_555
N2 Cu1B 1_555 1_555
C8 C13 1_555 1_555
C10 C10B 1_555 1_555
C11 C14 1_555 1_555
C12 C21 1_555 1_555
C15 C17 1_555 1_555
C16 C20 1_555 1_555
C18 C19 1_555 1_555
O2 C22 1_555 1_555
C9B C10B 1_555 1_555
C12B C21B 1_555 1_555
C4B N2B 1_555 1_555
C7B N1B 1_555 1_555
Cu1B P1B 1_555 1_555
P1B C11B 1_555 1_555
C8B C13B 1_555 1_555
C11B C14B 1_555 1_555
C15B C17B 1_555 1_555
C16B C20B 1_555 1_555
C18B C19B 1_555 1_555

#END
