
#######################################################################
#
#                 Cambridge Crystallographic Data Centre
#                                CCDC 
#
#######################################################################
#
# If this CIF has been generated from an entry in the Cambridge 
# Structural Database, then it will include bibliographic, chemical, 
# crystal, experimental, refinement or atomic coordinate data resulting 
# from the CCDC's data processing and validation procedures.
#
#######################################################################

data_IHIBIM
_symmetry_cell_setting           triclinic
_symmetry_space_group_name_H-M   'P -1'
_symmetry_Int_Tables_number      2
_space_group_name_Hall           '-P 1'
loop_
_symmetry_equiv_pos_site_id
_symmetry_equiv_pos_as_xyz
1 x,y,z
2 -x,-y,-z
_cell_length_a                   6.2705(4)
_cell_length_b                   8.8860(7)
_cell_length_c                   9.4298(5)
_cell_angle_alpha                84.900(4)
_cell_angle_beta                 78.664(3)
_cell_angle_gamma                72.598(4)
_cell_volume                     491.341
loop_
_atom_site_label
_atom_site_type_symbol
_atom_site_fract_x
_atom_site_fract_y
_atom_site_fract_z
U1 U 0.0000 0.5000 1.0000
O1 O 0.1749(4) 0.6216(3) 1.0062(3)
O2 O 0.3213(4) 0.2593(3) 0.9771(3)
O3 O 0.2836(4) 0.4031(3) 0.7772(3)
N1 N 1.1335(4) 0.3799(3) 0.2424(3)
N2 N 1.4580(5) 0.2955(3) 0.3569(3)
C1 C 0.6386(5) 0.2039(3) 0.7820(4)
C2 C 0.7484(5) 0.2608(3) 0.6571(3)
H1 H 0.6673 0.3504 0.6068
C3 C 0.9779(5) 0.1884(3) 0.6033(4)
C4 C 1.0892(5) 0.0524(4) 0.6782(4)
H2 H 1.2440 -0.0005 0.6425
C5 C 0.9790(6) -0.0055(4) 0.8019(4)
H3 H 1.0583 -0.0975 0.8501
C6 C 0.7533(5) 0.0690(3) 0.8568(4)
H4 H 0.6777 0.0300 0.9429
C7 C 0.4014(5) 0.2910(4) 0.8480(4)
C8 C 1.1037(5) 0.2518(3) 0.4764(3)
C9 C 1.0103(5) 0.3258(3) 0.3566(4)
H5 H 0.8546 0.3382 0.3562
C10 C 1.3539(5) 0.3618(4) 0.2472(4)
H6 H 1.4414 0.3995 0.1657
C11 C 1.3321(5) 0.2427(4) 0.4686(4)
H7 H 1.4020 0.1954 0.5487
O1A O -0.1749(4) 0.3784(3) 0.9938(3)
O2A O -0.3213(4) 0.7407(3) 1.0229(3)
O3A O -0.2836(4) 0.5969(3) 1.2228(3)
N1A N -1.1335(4) 0.6201(3) 1.7576(3)
N2A N -1.4580(5) 0.7045(3) 1.6431(3)
C1A C -0.6386(5) 0.7961(3) 1.2180(4)
C2A C -0.7484(5) 0.7392(3) 1.3429(3)
H1A H -0.6673 0.6496 1.3932
C3A C -0.9779(5) 0.8116(3) 1.3967(4)
C4A C -1.0892(5) 0.9476(4) 1.3218(4)
H2A H -1.2440 1.0005 1.3575
C5A C -0.9790(6) 1.0055(4) 1.1981(4)
H3A H -1.0583 1.0975 1.1499
C6A C -0.7533(5) 0.9310(3) 1.1432(4)
H4A H -0.6777 0.9700 1.0571
C7A C -0.4014(5) 0.7090(4) 1.1520(4)
C8A C -1.1037(5) 0.7482(3) 1.5236(3)
C9A C -1.0103(5) 0.6742(3) 1.6434(4)
H5A H -0.8546 0.6618 1.6438
C10A C -1.3539(5) 0.6382(4) 1.7528(4)
H6A H -1.4414 0.6005 1.8343
C11A C -1.3321(5) 0.7573(4) 1.5314(4)
H7A H -1.4020 0.8046 1.4513
U1_2 U -1.0000 0.5000 2.0000
U1_3 U 1.0000 0.5000 0.0000
N1_2 N 0.1335(4) 0.3799(3) 1.2424(3)
N1A_2 N -0.1335(4) 0.6201(3) 0.7576(3)
loop_
_geom_bond_atom_site_label_1
_geom_bond_atom_site_label_2
_geom_bond_site_symmetry_1
_geom_bond_site_symmetry_2
U1 O1 1_555 1_555
O2 U1 1_555 1_555
O3 U1 1_555 1_555
N1 C9 1_555 1_555
N2 C10 1_555 1_555
C1 C2 1_555 1_555
C2 H1 1_555 1_555
C3 C2 1_555 1_555
C4 C3 1_555 1_555
H2 C4 1_555 1_555
C5 C4 1_555 1_555
H3 C5 1_555 1_555
C6 C1 1_555 1_555
H4 C6 1_555 1_555
C7 O2 1_555 1_555
C8 C3 1_555 1_555
C9 C8 1_555 1_555
H5 C9 1_555 1_555
C10 N1 1_555 1_555
H6 C10 1_555 1_555
C11 N2 1_555 1_555
H7 C11 1_555 1_555
O1A U1 1_555 1_555
O2A U1 1_555 1_555
O3A U1 1_555 1_555
N1A C9A 1_555 1_555
N2A C10A 1_555 1_555
C1A C2A 1_555 1_555
C2A H1A 1_555 1_555
C3A C2A 1_555 1_555
C4A C3A 1_555 1_555
H2A C4A 1_555 1_555
C5A C4A 1_555 1_555
H3A C5A 1_555 1_555
C6A C1A 1_555 1_555
H4A C6A 1_555 1_555
C7A O2A 1_555 1_555
C8A C3A 1_555 1_555
C9A C8A 1_555 1_555
H5A C9A 1_555 1_555
C10A N1A 1_555 1_555
H6A C10A 1_555 1_555
C11A N2A 1_555 1_555
H7A C11A 1_555 1_555
U1_2 N1A 1_555 1_555
U1_3 N1 1_555 1_555
N1_2 U1 1_555 1_555
N1A_2 U1 1_555 1_555
O3 C7 1_555 1_555
C1 C7 1_555 1_555
C5 C6 1_555 1_555
C8 C11 1_555 1_555
O3A C7A 1_555 1_555
C1A C7A 1_555 1_555
C5A C6A 1_555 1_555
C8A C11A 1_555 1_555

#END
