
#######################################################################
#
#                 Cambridge Crystallographic Data Centre
#                                CCDC 
#
#######################################################################
#
# If this CIF has been generated from an entry in the Cambridge 
# Structural Database, then it will include bibliographic, chemical, 
# crystal, experimental, refinement or atomic coordinate data resulting 
# from the CCDC's data processing and validation procedures.
#
#######################################################################

data_IHIDAE
_symmetry_cell_setting           monoclinic
_symmetry_space_group_name_H-M   'P 21/c'
_symmetry_Int_Tables_number      14
_space_group_name_Hall           '-P 2ybc'
loop_
_symmetry_equiv_pos_site_id
_symmetry_equiv_pos_as_xyz
1 x,y,z
2 x,1/2-y,1/2+z
3 -x,-y,-z
4 -x,1/2+y,1/2-z
_cell_length_a                   7.9536(10)
_cell_length_b                   6.7856(10)
_cell_length_c                   24.295(4)
_cell_angle_alpha                90
_cell_angle_beta                 92.585(12)
_cell_angle_gamma                90
_cell_volume                     1309.87
loop_
_atom_site_label
_atom_site_type_symbol
_atom_site_fract_x
_atom_site_fract_y
_atom_site_fract_z
Cu1 Cu 0.25914(3) 0.01252(3) 0.31344(1)
N1 N -0.0354(2) 0.1646(3) 0.31935(6)
N2 N -0.0920(2) 0.2496(3) 0.41548(7)
N3 N -0.1837(2) 0.3051(3) 0.23814(7)
N4 N 0.5778(2) -0.1231(3) 0.32439(7)
N5 N 0.6798(2) -0.3142(3) 0.24727(6)
N6 N 0.6554(2) -0.1528(3) 0.42322(6)
N7 N 0.19320(18) -0.1346(2) 0.37968(6)
N8 N 0.1786(2) -0.1343(3) 0.47113(7)
N9 N 0.35206(18) 0.1927(2) 0.37130(6)
N10 N 0.4021(2) 0.2426(3) 0.46147(7)
C1 C -0.0727(2) 0.2148(3) 0.36991(8)
C2 C -0.1178(2) 0.2437(3) 0.27781(8)
C3 C 0.6381(2) -0.2301(3) 0.28527(8)
C4 C 0.6265(2) -0.1470(3) 0.37618(7)
C5 C 0.2321(2) -0.0490(3) 0.42605(7)
C6 C 0.0778(3) -0.3079(3) 0.45476(8)
C7 C 0.0860(3) -0.3057(3) 0.39126(8)
C8 C 0.3304(2) 0.1347(3) 0.42122(7)
C9 C 0.4885(3) 0.4096(3) 0.43654(8)
C10 C 0.4648(3) 0.3649(3) 0.37411(8)
H1 H 0.183(3) -0.088(4) 0.5015(11)
H2 H -0.031(3) -0.293(3) 0.4661(9)
H3 H 0.131(2) -0.429(3) 0.4708(8)
H4 H -0.018(3) -0.284(3) 0.3738(9)
H5 H 0.134(3) -0.430(3) 0.3771(9)
H6 H 0.392(3) 0.222(3) 0.4950(9)
H7 H 0.434(3) 0.533(3) 0.4469(9)
H8 H 0.609(3) 0.415(3) 0.4474(8)
H9 H 0.413(3) 0.474(3) 0.3562(9)
H10 H 0.567(3) 0.337(3) 0.3569(9)
N3C N 0.1837(2) -0.1949(3) 0.26186(7)
N5C N 0.3202(2) 0.1858(3) 0.25273(6)
Cu1C Cu -0.25914(3) 0.51252(3) 0.18656(1)
Cu1C_2 Cu 0.74086(3) -0.48748(3) 0.18656(1)
loop_
_geom_bond_atom_site_label_1
_geom_bond_atom_site_label_2
_geom_bond_site_symmetry_1
_geom_bond_site_symmetry_2
Cu1 N1 1_555 1_555
N1 C1 1_555 1_555
N2 C1 1_555 1_555
N3 C2 1_555 1_555
N4 Cu1 1_555 1_555
N5 C3 1_555 1_555
N6 C4 1_555 1_555
N7 Cu1 1_555 1_555
N8 C5 1_555 1_555
N9 Cu1 1_555 1_555
N10 C8 1_555 1_555
C2 N1 1_555 1_555
C3 N4 1_555 1_555
C4 N4 1_555 1_555
C5 N7 1_555 1_555
C6 N8 1_555 1_555
C7 N7 1_555 1_555
C8 N9 1_555 1_555
C9 N10 1_555 1_555
C10 N9 1_555 1_555
H1 N8 1_555 1_555
H2 C6 1_555 1_555
H3 C6 1_555 1_555
H4 C7 1_555 1_555
H5 C7 1_555 1_555
H6 N10 1_555 1_555
H7 C9 1_555 1_555
H8 C9 1_555 1_555
H9 C10 1_555 1_555
H10 C10 1_555 1_555
N3C Cu1 1_555 1_555
N5C Cu1 1_555 1_555
Cu1C N3 1_555 1_555
Cu1C_2 N5 1_555 1_555
C5 C8 1_555 1_555
C6 C7 1_555 1_555
C9 C10 1_555 1_555

#END
