
#######################################################################
#
#                 Cambridge Crystallographic Data Centre
#                                CCDC 
#
#######################################################################
#
# If this CIF has been generated from an entry in the Cambridge 
# Structural Database, then it will include bibliographic, chemical, 
# crystal, experimental, refinement or atomic coordinate data resulting 
# from the CCDC's data processing and validation procedures.
#
#######################################################################

data_IHINOC
_symmetry_cell_setting           monoclinic
_symmetry_space_group_name_H-M   'P 21/c'
_symmetry_Int_Tables_number      14
_space_group_name_Hall           '-P 2ybc'
loop_
_symmetry_equiv_pos_site_id
_symmetry_equiv_pos_as_xyz
1 x,y,z
2 x,1/2-y,1/2+z
3 -x,-y,-z
4 -x,1/2+y,1/2-z
_cell_length_a                   4.478(4)
_cell_length_b                   16.714(14)
_cell_length_c                   17.834(15)
_cell_angle_alpha                90.00
_cell_angle_beta                 95.922(10)
_cell_angle_gamma                90.00
_cell_volume                     1327.67
loop_
_atom_site_label
_atom_site_type_symbol
_atom_site_fract_x
_atom_site_fract_y
_atom_site_fract_z
Ag1 Ag 0.1269(3) 0.27606(6) 0.06552(5)
Ag2 Ag 0.7212(2) 0.42867(6) 0.01254(6)
C1 C 0.132(2) 0.2070(6) 0.1680(5)
C2 C 0.199(3) 0.1069(8) 0.2511(7)
H1 H 0.2611 0.0582 0.2726
C3 C 0.036(3) 0.1622(7) 0.2816(6)
H2 H -0.0396 0.1597 0.3282
C4 C 0.434(3) 0.0925(7) 0.1300(7)
H3 H 0.4766 0.1284 0.0897
H4 H 0.6249 0.0765 0.1567
C5 C 0.285(7) 0.0234(13) 0.0982(14)
H5 H 0.1082 0.0315 0.0669
C6 C 0.373(8) -0.0490(14) 0.1089(19)
H6 H 0.5485 -0.0598 0.1398
H7 H 0.2611 -0.0908 0.0858
C7 C -0.163(3) 0.2985(7) 0.2438(8)
H8 H -0.1173 0.3379 0.2076
H9 H -0.1029 0.3179 0.2938
H10 H -0.3753 0.2883 0.2384
I1 I 0.25030(15) 0.46089(4) 0.11230(4)
I2 I -0.42289(15) 0.27350(4) -0.03804(4)
N1 N 0.0003(19) 0.2234(5) 0.2309(4)
N2 N 0.260(2) 0.1352(5) 0.1818(4)
I2_2 I 0.57711(15) 0.27350(4) -0.03804(4)
I1_2 I 1.25030(15) 0.46089(4) 0.11230(4)
I1B I 0.74970(15) 0.53911(4) -0.11230(4)
Ag2_2 Ag -0.2788(2) 0.42867(6) 0.01254(6)
Ag2B Ag 0.2788(2) 0.57133(6) -0.01254(6)
Ag1_2 Ag -0.8731(3) 0.27606(6) 0.06552(5)
loop_
_geom_bond_atom_site_label_1
_geom_bond_atom_site_label_2
_geom_bond_site_symmetry_1
_geom_bond_site_symmetry_2
Ag1 C1 1_555 1_555
Ag2 I1 1_555 1_555
C1 N1 1_555 1_555
C2 H1 1_555 1_555
C3 C2 1_555 1_555
H2 C3 1_555 1_555
C4 H3 1_555 1_555
H4 C4 1_555 1_555
C5 C4 1_555 1_555
H5 C5 1_555 1_555
C6 C5 1_555 1_555
H6 C6 1_555 1_555
H7 C6 1_555 1_555
C7 H8 1_555 1_555
H9 C7 1_555 1_555
H10 C7 1_555 1_555
I1 Ag1 1_555 1_555
I2 Ag1 1_555 1_555
N1 C3 1_555 1_555
N2 C1 1_555 1_555
I2_2 Ag1 1_555 1_555
I1_2 Ag2 1_555 1_555
I1B Ag2 1_555 1_555
Ag2_2 I1 1_555 1_555
Ag2B I1 1_555 1_555
Ag1_2 I2 1_555 1_555
Ag2 I2_2 1_555 1_555
C2 N2 1_555 1_555
C4 N2 1_555 1_555
C7 N1 1_555 1_555
I2 Ag2_2 1_555 1_555
I1B Ag2B 1_555 1_555

#END
