
#######################################################################
#
#                 Cambridge Crystallographic Data Centre
#                                CCDC 
#
#######################################################################
#
# If this CIF has been generated from an entry in the Cambridge 
# Structural Database, then it will include bibliographic, chemical, 
# crystal, experimental, refinement or atomic coordinate data resulting 
# from the CCDC's data processing and validation procedures.
#
#######################################################################

data_IHIYED
_symmetry_cell_setting           orthorhombic
_symmetry_space_group_name_H-M   'P b n 21'
_symmetry_Int_Tables_number      33
_space_group_name_Hall           'P 2c -2ab'
loop_
_symmetry_equiv_pos_site_id
_symmetry_equiv_pos_as_xyz
1 x,y,z
2 1/2-x,1/2+y,z
3 1/2+x,1/2-y,1/2+z
4 -x,-y,1/2+z
_cell_length_a                   5.7422(5)
_cell_length_b                   13.686(1)
_cell_length_c                   18.320(2)
_cell_angle_alpha                90
_cell_angle_beta                 90
_cell_angle_gamma                90
_cell_volume                     1439.73
loop_
_atom_site_label
_atom_site_type_symbol
_atom_site_fract_x
_atom_site_fract_y
_atom_site_fract_z
Ag1 Ag 0.07081(13) 0.19539(4) -0.29984(15)
F1 F -0.2162(16) 0.1691(7) -0.4102(5)
F2 F -0.6104(15) 0.1735(6) -0.4173(5)
F3 F -0.4349(14) 0.1602(6) -0.3078(7)
F4 F -0.4264(15) 0.0348(5) -0.3863(5)
B1 B -0.418(3) 0.134(1) -0.3832(8)
N1 N 0.1128(15) 0.0320(5) -0.2851(6)
N2 N 0.3518(13) -0.1431(4) -0.3000(9)
C1 C 0.088(2) -0.0248(8) -0.3425(6)
C2 C 0.1972(19) -0.1133(7) -0.3465(5)
C3 C 0.2496(17) -0.0015(7) -0.2300(5)
C4 C 0.3905(15) -0.0835(7) -0.2384(5)
C5 C 0.2492(19) 0.0493(7) -0.1600(5)
C6 C 0.077(2) 0.1179(7) -0.1430(5)
C7 C 0.068(2) 0.1634(9) -0.0764(6)
C8 C 0.234(2) 0.1428(9) -0.0267(6)
C9 C 0.403(2) 0.0730(8) -0.0389(6)
C10 C 0.4141(19) 0.0239(7) -0.1074(5)
C11 C 0.5883(19) -0.0511(7) -0.1221(5)
C12 C 0.765(2) -0.0744(8) -0.0736(6)
C13 C 0.928(2) -0.1440(8) -0.0883(6)
C14 C 0.924(2) -0.1926(8) -0.1558(6)
C15 C 0.7543(19) -0.1730(7) -0.2038(5)
C16 C 0.5760(17) -0.1053(7) -0.1884(5)
H1 H -0.007(2) -0.0039(8) -0.3820(6)
H2 H 0.1572(19) -0.1556(7) -0.3856(5)
H3 H -0.037(2) 0.1333(7) -0.1786(5)
H4 H -0.052(2) 0.2089(9) -0.0657(6)
H5 H 0.233(2) 0.1771(9) 0.0184(6)
H6 H 0.512(2) 0.0578(8) -0.0016(6)
H7 H 0.772(2) -0.0407(8) -0.0283(6)
H8 H 1.044(2) -0.1595(8) -0.0531(6)
H9 H 1.041(2) -0.2391(8) -0.1674(6)
H10 H 0.7542(19) -0.2057(7) -0.2495(5)
N2A N 0.1482(13) 0.3569(4) -0.3000(9)
Ag1A Ag 0.42919(13) -0.30461(4) -0.29984(15)
loop_
_geom_bond_atom_site_label_1
_geom_bond_atom_site_label_2
_geom_bond_site_symmetry_1
_geom_bond_site_symmetry_2
Ag1 F1 1_555 1_555
F1 B1 1_555 1_555
F2 B1 1_555 1_555
F3 B1 1_555 1_555
F4 B1 1_555 1_555
N1 Ag1 1_555 1_555
N2 C2 1_555 1_555
C1 N1 1_555 1_555
C2 C1 1_555 1_555
C3 N1 1_555 1_555
C4 N2 1_555 1_555
C5 C3 1_555 1_555
C6 C5 1_555 1_555
C7 C6 1_555 1_555
C8 C7 1_555 1_555
C9 C8 1_555 1_555
C10 C5 1_555 1_555
C11 C10 1_555 1_555
C12 C11 1_555 1_555
C13 C12 1_555 1_555
C14 C13 1_555 1_555
C15 C14 1_555 1_555
C16 C4 1_555 1_555
H1 C1 1_555 1_555
H2 C2 1_555 1_555
H3 C6 1_555 1_555
H4 C7 1_555 1_555
H5 C8 1_555 1_555
H6 C9 1_555 1_555
H7 C12 1_555 1_555
H8 C13 1_555 1_555
H9 C14 1_555 1_555
H10 C15 1_555 1_555
N2A Ag1 1_555 1_555
Ag1A N2 1_555 1_555
C3 C4 1_555 1_555
C9 C10 1_555 1_555
C11 C16 1_555 1_555
C15 C16 1_555 1_555

#END
