
#######################################################################
#
#                 Cambridge Crystallographic Data Centre
#                                CCDC 
#
#######################################################################
#
# If this CIF has been generated from an entry in the Cambridge 
# Structural Database, then it will include bibliographic, chemical, 
# crystal, experimental, refinement or atomic coordinate data resulting 
# from the CCDC's data processing and validation procedures.
#
#######################################################################

data_IHOQIF
_symmetry_cell_setting           triclinic
_symmetry_space_group_name_H-M   'P -1'
_symmetry_Int_Tables_number      2
_space_group_name_Hall           '-P 1'
loop_
_symmetry_equiv_pos_site_id
_symmetry_equiv_pos_as_xyz
1 x,y,z
2 -x,-y,-z
_cell_length_a                   7.5006(9)
_cell_length_b                   12.0252(18)
_cell_length_c                   14.2116(17)
_cell_angle_alpha                73.878(11)
_cell_angle_beta                 89.642(11)
_cell_angle_gamma                73.102(11)
_cell_volume                     1174.38
loop_
_atom_site_label
_atom_site_type_symbol
_atom_site_fract_x
_atom_site_fract_y
_atom_site_fract_z
Au1 Au 0.0000 0.0000 0.0000
Cu1 Cu -0.58341(11) 0.10868(7) 0.21454(6)
O1 O -0.7071(7) 0.2773(4) 0.1230(4)
O2 O -0.8622(7) 0.1189(4) 0.3116(4)
N1 N -0.4581(8) 0.1629(5) 0.3077(4)
N2 N -0.4640(8) -0.0534(5) 0.3115(4)
N3 N -0.3389(9) 0.1068(6) 0.1091(5)
N4 N -0.7166(8) 0.0454(5) 0.1324(4)
C1 C -0.4603(11) 0.2769(6) 0.2979(6)
C2 C -0.3632(12) 0.3058(7) 0.3650(6)
C3 C -0.2626(11) 0.2132(8) 0.4457(6)
C4 C -0.262(1) 0.0968(7) 0.4560(6)
C5 C -0.3611(9) 0.0734(6) 0.3870(5)
C6 C -0.3694(9) -0.0484(6) 0.3887(5)
C7 C -0.285(1) -0.1517(6) 0.4658(6)
C8 C -0.2995(11) -0.2613(7) 0.4603(6)
C9 C -0.3978(12) -0.2654(7) 0.3794(6)
C10 C -0.476(1) -0.1600(6) 0.3064(6)
C11 C -0.215(1) 0.0716(7) 0.0700(5)
C12 C -0.819(1) 0.0280(6) 0.0859(5)
H1 H -0.7273(7) 0.2784(4) 0.0586(4)
H2 H -0.8336(7) 0.2932(4) 0.1318(4)
H3 H -0.9405(7) 0.0830(4) 0.2894(4)
H4 H -0.8956(7) 0.2025(4) 0.2932(4)
H5 H -0.5299(11) 0.3399(6) 0.2430(6)
H6 H -0.3655(12) 0.3874(7) 0.3567(6)
H7 H -0.1940(11) 0.2309(8) 0.4927(6)
H8 H -0.195(1) 0.0327(7) 0.5109(6)
H9 H -0.220(1) -0.1466(6) 0.5208(6)
H10 H -0.2424(11) -0.3335(7) 0.5115(6)
H11 H -0.4100(12) -0.3403(7) 0.3749(6)
H12 H -0.541(1) -0.1631(6) 0.2505(6)
C12_2 C 0.181(1) 0.0280(6) 0.0859(5)
Au1_2 Au -1.0000 0.0000 0.0000
C11A C -0.785(1) -0.0716(7) -0.0700(5)
N3A N -0.6611(9) -0.1068(6) -0.1091(5)
Cu1A Cu -0.41659(11) -0.10868(7) -0.21454(6)
O1A O -0.2929(7) -0.2773(4) -0.1230(4)
H1A H -0.2727(7) -0.2784(4) -0.0586(4)
H2A H -0.1664(7) -0.2932(4) -0.1318(4)
O2A O -0.1378(7) -0.1189(4) -0.3116(4)
H3A H -0.0595(7) -0.0830(4) -0.2894(4)
H4A H -0.1044(7) -0.2025(4) -0.2932(4)
N1A N -0.5419(8) -0.1629(5) -0.3077(4)
C1A C -0.5397(11) -0.2769(6) -0.2979(6)
C2A C -0.6368(12) -0.3058(7) -0.3650(6)
C3A C -0.7374(11) -0.2132(8) -0.4457(6)
C4A C -0.738(1) -0.0968(7) -0.4560(6)
C5A C -0.6389(9) -0.0734(6) -0.3870(5)
C6A C -0.6306(9) 0.0484(6) -0.3887(5)
N2A N -0.5360(8) 0.0534(5) -0.3115(4)
N4A N -0.2834(8) -0.0454(5) -0.1324(4)
C12A C -0.181(1) -0.0280(6) -0.0859(5)
C11A_2 C 0.215(1) -0.0716(7) -0.0700(5)
C10A C -0.524(1) 0.1600(6) -0.3064(6)
C9A C -0.6022(12) 0.2654(7) -0.3794(6)
C8A C -0.7005(11) 0.2613(7) -0.4603(6)
C7A C -0.715(1) 0.1517(6) -0.4658(6)
H9A H -0.780(1) 0.1466(6) -0.5208(6)
H10A H -0.7576(11) 0.3335(7) -0.5115(6)
H11A H -0.5900(12) 0.3403(7) -0.3749(6)
H12A H -0.459(1) 0.1631(6) -0.2505(6)
H8A H -0.805(1) -0.0327(7) -0.5109(6)
H7A H -0.8060(11) -0.2309(8) -0.4927(6)
H6A H -0.6345(12) -0.3874(7) -0.3567(6)
H5A H -0.4701(11) -0.3399(6) -0.2430(6)
Au2 Au 0.03006(4) -0.35481(3) 0.27849(2)
N5 N -0.1999(12) -0.2734(7) 0.0759(6)
N6 N 0.021(1) -0.0944(6) 0.2831(5)
N7 N 0.2440(13) -0.4471(6) 0.4850(6)
N8 N 0.0546(11) -0.6232(7) 0.2998(6)
C13 C -0.1164(12) -0.3000(7) 0.1483(6)
C14 C 0.0219(11) -0.1854(7) 0.2780(6)
C15 C 0.1699(12) -0.4137(7) 0.4098(6)
C16 C 0.0419(12) -0.5244(7) 0.2891(6)
Au3 Au 0.5000 -0.5000 0.0000
N9 N 0.8972(12) -0.6481(9) 0.1042(7)
N10 N 0.6128(12) -0.6156(8) -0.1714(7)
C17 C 0.7517(13) -0.5954(9) 0.0683(7)
C18 C 0.5701(12) -0.5770(8) -0.1081(7)
C17A C 0.2483(13) -0.4046(9) -0.0683(7)
N9A N 0.1028(12) -0.3519(9) -0.1042(7)
C18A C 0.4299(12) -0.4230(8) 0.1081(7)
N10A N 0.3872(12) -0.3844(8) 0.1714(7)
loop_
_geom_bond_atom_site_label_1
_geom_bond_atom_site_label_2
_geom_bond_site_symmetry_1
_geom_bond_site_symmetry_2
Au1 C11 1_555 1_555
Au2 C13 1_555 1_555
Au3 C17 1_555 1_555
Cu1 O1 1_555 1_555
O1 H1 1_555 1_555
O2 Cu1 1_555 1_555
N1 Cu1 1_555 1_555
N2 Cu1 1_555 1_555
N3 Cu1 1_555 1_555
N4 Cu1 1_555 1_555
N5 C13 1_555 1_555
N6 C14 1_555 1_555
N7 C15 1_555 1_555
N8 C16 1_555 1_555
N9 C17 1_555 1_555
N10 C18 1_555 1_555
C1 N1 1_555 1_555
C2 C1 1_555 1_555
C3 C2 1_555 1_555
C4 C3 1_555 1_555
C5 N1 1_555 1_555
C6 N2 1_555 1_555
C7 C6 1_555 1_555
C8 C7 1_555 1_555
C9 C8 1_555 1_555
C10 N2 1_555 1_555
C11 N3 1_555 1_555
C12 N4 1_555 1_555
C14 Au2 1_555 1_555
C15 Au2 1_555 1_555
C16 Au2 1_555 1_555
C18 Au3 1_555 1_555
H2 O1 1_555 1_555
H3 O2 1_555 1_555
H4 O2 1_555 1_555
H5 C1 1_555 1_555
H6 C2 1_555 1_555
H7 C3 1_555 1_555
H8 C4 1_555 1_555
H9 C7 1_555 1_555
H10 C8 1_555 1_555
H11 C9 1_555 1_555
H12 C10 1_555 1_555
C12_2 Au1 1_555 1_555
Au1_2 C12 1_555 1_555
C11A Au1_2 1_555 1_555
N3A C11A 1_555 1_555
Cu1A N3A 1_555 1_555
O1A Cu1A 1_555 1_555
H1A O1A 1_555 1_555
H2A O1A 1_555 1_555
O2A Cu1A 1_555 1_555
H3A O2A 1_555 1_555
H4A O2A 1_555 1_555
N1A Cu1A 1_555 1_555
C1A N1A 1_555 1_555
C2A C1A 1_555 1_555
C3A C2A 1_555 1_555
C4A C3A 1_555 1_555
C5A N1A 1_555 1_555
C6A C5A 1_555 1_555
N2A Cu1A 1_555 1_555
N4A Cu1A 1_555 1_555
C12A Au1 1_555 1_555
C11A_2 Au1 1_555 1_555
C10A N2A 1_555 1_555
C9A C10A 1_555 1_555
C8A C9A 1_555 1_555
C7A C6A 1_555 1_555
H9A C7A 1_555 1_555
H10A C8A 1_555 1_555
H11A C9A 1_555 1_555
H12A C10A 1_555 1_555
H8A C4A 1_555 1_555
H7A C3A 1_555 1_555
H6A C2A 1_555 1_555
H5A C1A 1_555 1_555
C17A Au3 1_555 1_555
N9A C17A 1_555 1_555
C18A Au3 1_555 1_555
N10A C18A 1_555 1_555
C4 C5 1_555 1_555
C5 C6 1_555 1_555
C9 C10 1_555 1_555
C4A C5A 1_555 1_555
C6A N2A 1_555 1_555
N4A C12A 1_555 1_555
C8A C7A 1_555 1_555

#END
