
#######################################################################
#
#                 Cambridge Crystallographic Data Centre
#                                CCDC 
#
#######################################################################
#
# If this CIF has been generated from an entry in the Cambridge 
# Structural Database, then it will include bibliographic, chemical, 
# crystal, experimental, refinement or atomic coordinate data resulting 
# from the CCDC's data processing and validation procedures.
#
#######################################################################

data_IHOVUX
_symmetry_cell_setting           monoclinic
_symmetry_space_group_name_H-M   'P 21/c'
_symmetry_Int_Tables_number      14
_space_group_name_Hall           '-P 2ybc'
loop_
_symmetry_equiv_pos_site_id
_symmetry_equiv_pos_as_xyz
1 x,y,z
2 -x,1/2+y,1/2-z
3 -x,-y,-z
4 x,1/2-y,1/2+z
_cell_length_a                   6.988(1)
_cell_length_b                   19.283(3)
_cell_length_c                   9.664(1)
_cell_angle_alpha                90
_cell_angle_beta                 98.02(1)
_cell_angle_gamma                90
_cell_volume                     1289.48
loop_
_atom_site_label
_atom_site_type_symbol
_atom_site_fract_x
_atom_site_fract_y
_atom_site_fract_z
Cs1 Cs 0.54067(4) 0.870978(12) 0.51400(2)
Na1 Na 0.9552(2) 0.81578(7) 0.32032(15)
O1 O 0.6771(4) 0.87418(12) 0.2105(2)
O2 O 0.8677(5) 0.77305(13) 0.0859(3)
O3 O 0.7217(4) 0.77450(13) -0.1238(3)
O4 O 0.8972(4) 0.88417(13) -0.2287(3)
O5 O 0.8283(6) 1.00562(14) -0.3596(3)
O6 O 0.8303(4) 1.09585(13) -0.2283(3)
O7 O 0.6341(4) 1.08741(13) 0.2033(3)
O8 O 0.6499(6) 0.99694(14) 0.3321(3)
O9 O 0.3895(5) 0.72678(16) 0.6076(3)
O10 O 0.0361(5) 0.88177(15) 0.5172(3)
O11 O 1.1829(5) 0.72938(14) 0.3379(3)
N1 N 0.7891(5) 0.80510(15) -0.0167(3)
N2 N 0.8217(5) 1.03230(15) -0.2436(3)
N3 N 0.6639(4) 1.02492(15) 0.2201(3)
C1 C 0.7214(5) 0.90956(17) 0.1106(3)
C2 C 0.7788(5) 0.87950(16) -0.0119(3)
C3 C 0.8268(5) 0.91460(17) -0.1335(3)
C4 C 0.7965(5) 0.98932(16) -0.1278(3)
C5 C 0.7476(5) 1.02163(18) -0.0111(3)
H1 H 0.7355 1.0697 -0.0110
C6 C 0.7159(5) 0.98489(17) 0.1061(3)
H2 H 0.472(2) 0.6975(9) 0.635(4)
H3 H 0.312(5) 0.7287(7) 0.666(4)
H4 H 0.026(2) 0.9207(13) 0.482(5)
H5 H -0.0037(19) 0.883(2) 0.5938(15)
H6 H 1.257(6) 0.724(2) 0.410(3)
H7 H 1.123(7) 0.6939(15) 0.317(5)
Cs1B Cs 0.45933(4) 1.129022(12) 0.48600(2)
Cs1_2 Cs 1.54067(4) 0.870978(12) 0.51400(2)
Cs1C Cs 0.54067(4) 0.629022(12) 0.01400(2)
Cs1_3 Cs 0.54067(4) 0.870978(12) -0.48600(2)
Cs1B_2 Cs 0.45933(4) 1.129022(12) -0.51400(2)
Cs1_4 Cs -0.45933(4) 0.870978(12) 0.51400(2)
Na1_2 Na -0.0448(2) 0.81578(7) 0.32032(15)
Na1C Na 0.9552(2) 0.68422(7) -0.17968(15)
Na1B Na 1.0448(2) 1.18422(7) -0.32032(15)
O2C O 0.8677(5) 0.72695(13) 0.5859(3)
O3C O 0.7217(4) 0.72550(13) 0.3762(3)
O4_2 O 0.8972(4) 0.88417(13) 0.7713(3)
O5B O 0.1717(6) 0.99438(14) 0.3596(3)
O5_2 O 0.8283(6) 1.00562(14) 0.6404(3)
O6B O 0.1697(4) 0.90415(13) 0.2283(3)
O6B_2 O 1.1697(4) 0.90415(13) 0.2283(3)
O7B O 0.3659(4) 0.91259(13) 0.7967(3)
O8B O 0.3501(6) 1.00306(14) 0.6679(3)
O10_2 O 1.0361(5) 0.88177(15) 0.5172(3)
H4_2 H 1.026(2) 0.9207(13) 0.482(5)
H5_2 H 0.9963(19) 0.883(2) 0.5938(15)
loop_
_geom_bond_atom_site_label_1
_geom_bond_atom_site_label_2
_geom_bond_site_symmetry_1
_geom_bond_site_symmetry_2
Cs1 O1 1_555 1_555
Na1 O1 1_555 1_555
O1 C1 1_555 1_555
O2 Na1 1_555 1_555
O3 N1 1_555 1_555
O4 C3 1_555 1_555
O5 N2 1_555 1_555
O6 N2 1_555 1_555
O7 N3 1_555 1_555
O8 Cs1 1_555 1_555
O9 Cs1 1_555 1_555
O10 Cs1 1_555 1_555
O11 Na1 1_555 1_555
N1 O2 1_555 1_555
N2 C4 1_555 1_555
N3 O8 1_555 1_555
C1 C2 1_555 1_555
C2 N1 1_555 1_555
C3 C2 1_555 1_555
C4 C3 1_555 1_555
C5 C4 1_555 1_555
H1 C5 1_555 1_555
C6 N3 1_555 1_555
H2 O9 1_555 1_555
H3 O9 1_555 1_555
H4 O10 1_555 1_555
H5 O10 1_555 1_555
H6 O11 1_555 1_555
H7 O11 1_555 1_555
Cs1B O7 1_555 1_555
Cs1_2 O6B_2 1_555 1_555
Cs1C O2 1_555 1_555
Cs1_3 O4 1_555 1_555
Cs1B_2 O5 1_555 1_555
Cs1_4 O10 1_555 1_555
Na1_2 O10 1_555 1_555
Na1C O3 1_555 1_555
Na1B O6 1_555 1_555
O2C Cs1 1_555 1_555
O3C Cs1 1_555 1_555
O4_2 Cs1 1_555 1_555
O5B Cs1 1_555 1_555
O5_2 Cs1 1_555 1_555
O6B Cs1 1_555 1_555
O6B_2 Na1 1_555 1_555
O7B Cs1 1_555 1_555
O8B Cs1 1_555 1_555
O10_2 Cs1 1_555 1_555
H4_2 O10_2 1_555 1_555
H5_2 O10_2 1_555 1_555
Na1 O3C 1_555 1_555
Na1 O10_2 1_555 1_555
O3 Cs1C 1_555 1_555
O5 Cs1_3 1_555 1_555
O6 Cs1B_2 1_555 1_555
O8 Cs1B 1_555 1_555
C1 C6 1_555 1_555
C5 C6 1_555 1_555
Cs1B O5B 1_555 1_555
Cs1B O5_2 1_555 1_555
Cs1B O8B 1_555 1_555
Cs1_2 O10_2 1_555 1_555
Na1_2 O6B 1_555 1_555

#END
