
#######################################################################
#
#                 Cambridge Crystallographic Data Centre
#                                CCDC 
#
#######################################################################
#
# If this CIF has been generated from an entry in the Cambridge 
# Structural Database, then it will include bibliographic, chemical, 
# crystal, experimental, refinement or atomic coordinate data resulting 
# from the CCDC's data processing and validation procedures.
#
#######################################################################

data_IHUPEG
_symmetry_cell_setting           monoclinic
_symmetry_space_group_name_H-M   'P 21/c'
_symmetry_Int_Tables_number      14
_space_group_name_Hall           '-P 2ybc'
loop_
_symmetry_equiv_pos_site_id
_symmetry_equiv_pos_as_xyz
1 x,y,z
2 x,1/2-y,1/2+z
3 -x,-y,-z
4 -x,1/2+y,1/2-z
_cell_length_a                   8.2730(2)
_cell_length_b                   9.1150(2)
_cell_length_c                   23.4830(7)
_cell_angle_alpha                90
_cell_angle_beta                 92.1150(9)
_cell_angle_gamma                90
_cell_volume                     1769.61
loop_
_atom_site_label
_atom_site_type_symbol
_atom_site_fract_x
_atom_site_fract_y
_atom_site_fract_z
Ag1 Ag 0.53562(5) 0.15639(5) 0.742137(18)
N1 N 0.6338(5) -0.0325(5) 0.79286(18)
N2 N 0.6712(5) -0.1610(5) 0.76369(19)
H1 H 0.6981 -0.2409 0.7828
H2 H 0.6680 -0.1621 0.7262
N3 N 0.5759(5) -0.2748(5) 0.88626(18)
N4 N 0.4324(5) -0.2678(5) 0.85375(19)
H3 H 0.4129 -0.1921 0.8313
H4 H 0.3610 -0.3390 0.8556
C1 C 0.6399(6) -0.0351(6) 0.8480(2)
C2 C 0.5999(6) 0.1017(6) 0.8786(2)
C3 C 0.5081(6) 0.0945(6) 0.9272(2)
H5 H 0.4771 0.0020 0.9418
C4 C 0.4620(7) 0.2225(7) 0.9540(2)
H6 H 0.3963 0.2178 0.9863
C5 C 0.5121(7) 0.3579(7) 0.9337(3)
H7 H 0.4804 0.4452 0.9524
C6 C 0.6072(7) 0.3672(6) 0.8867(2)
H8 H 0.6406 0.4602 0.8732
C7 C 0.6538(6) 0.2390(6) 0.8593(2)
H9 H 0.7217 0.2442 0.8276
C8 C 0.6768(6) -0.1693(6) 0.8824(2)
C9 C 0.8338(6) -0.1785(6) 0.9150(2)
C10 C 0.8721(7) -0.2943(7) 0.9509(3)
H10 H 0.7970 -0.3721 0.9550
C11 C 1.0196(8) -0.2980(8) 0.9811(3)
H11 H 1.0440 -0.3773 1.0062
C12 C 1.1304(7) -0.1877(7) 0.9747(3)
H12 H 1.2312 -0.1912 0.9953
C13 C 1.0959(7) -0.0708(7) 0.9382(3)
H13 H 1.1726 0.0056 0.9337
C14 C 0.9472(7) -0.0672(7) 0.9083(2)
H14 H 0.9229 0.0119 0.8831
N2C N 0.3288(5) 0.3390(5) 0.73631(19)
N4C N 0.5676(5) 0.2322(5) 0.64625(19)
Ag1C Ag 0.46438(5) -0.34361(5) 0.757863(18)
H1C H 0.3019 0.2591 0.7172
H2C H 0.3320 0.3379 0.7738
H3C H 0.5871 0.3079 0.6687
H4C H 0.6390 0.1610 0.6444
Cl1 Cl 1.15317(16) -0.01932(16) 0.76858(6)
O1 O 0.9899(5) 0.0292(6) 0.7745(2)
O2 O 1.2086(7) 0.0311(6) 0.71452(19)
O3 O 1.1598(7) -0.1741(6) 0.7706(2)
O4 O 1.2552(5) 0.0408(6) 0.8141(2)
O5 O 0.8121(5) -0.0058(5) 0.66387(18)
H15 H 0.8861 0.0295 0.6912
C15 C 0.9051(8) -0.1107(8) 0.6339(3)
H16 H 1.0007 -0.0627 0.6190
H17 H 0.8391 -0.1518 0.6023
H18 H 0.9394 -0.1897 0.6600
loop_
_geom_bond_atom_site_label_1
_geom_bond_atom_site_label_2
_geom_bond_site_symmetry_1
_geom_bond_site_symmetry_2
Ag1 N1 1_555 1_555
Cl1 O1 1_555 1_555
O2 Cl1 1_555 1_555
O3 Cl1 1_555 1_555
O4 Cl1 1_555 1_555
N1 N2 1_555 1_555
N2 H1 1_555 1_555
H2 N2 1_555 1_555
N3 N4 1_555 1_555
N4 H3 1_555 1_555
H4 N4 1_555 1_555
C1 N1 1_555 1_555
C2 C1 1_555 1_555
C3 C2 1_555 1_555
H5 C3 1_555 1_555
C4 C3 1_555 1_555
H6 C4 1_555 1_555
C5 C4 1_555 1_555
H7 C5 1_555 1_555
C6 C5 1_555 1_555
H8 C6 1_555 1_555
C7 C2 1_555 1_555
H9 C7 1_555 1_555
C8 N3 1_555 1_555
C9 C8 1_555 1_555
C10 C9 1_555 1_555
H10 C10 1_555 1_555
C11 C10 1_555 1_555
H11 C11 1_555 1_555
C12 C11 1_555 1_555
H12 C12 1_555 1_555
C13 C12 1_555 1_555
H13 C13 1_555 1_555
C14 C9 1_555 1_555
H14 C14 1_555 1_555
O5 H15 1_555 1_555
C15 O5 1_555 1_555
H16 C15 1_555 1_555
H17 C15 1_555 1_555
H18 C15 1_555 1_555
N2C Ag1 1_555 1_555
N4C Ag1 1_555 1_555
Ag1C N2 1_555 1_555
H1C N2C 1_555 1_555
H2C N2C 1_555 1_555
H3C N4C 1_555 1_555
H4C N4C 1_555 1_555
N4 Ag1C 1_555 1_555
C1 C8 1_555 1_555
C6 C7 1_555 1_555
C13 C14 1_555 1_555

#END
