
#######################################################################
#
#                 Cambridge Crystallographic Data Centre
#                                CCDC 
#
#######################################################################
#
# If this CIF has been generated from an entry in the Cambridge 
# Structural Database, then it will include bibliographic, chemical, 
# crystal, experimental, refinement or atomic coordinate data resulting 
# from the CCDC's data processing and validation procedures.
#
#######################################################################

data_IJACIF
_symmetry_cell_setting           orthorhombic
_symmetry_space_group_name_H-M   'P 21 21 21'
_symmetry_Int_Tables_number      19
_space_group_name_Hall           'P 2ac 2ab'
loop_
_symmetry_equiv_pos_site_id
_symmetry_equiv_pos_as_xyz
1 x,y,z
2 1/2-x,-y,1/2+z
3 -x,1/2+y,1/2-z
4 1/2+x,1/2-y,-z
_cell_length_a                   8.4079(2)
_cell_length_b                   10.0611(2)
_cell_length_c                   23.0809(5)
_cell_angle_alpha                90
_cell_angle_beta                 90
_cell_angle_gamma                90
_cell_volume                     1952.48
loop_
_atom_site_label
_atom_site_type_symbol
_atom_site_fract_x
_atom_site_fract_y
_atom_site_fract_z
Cu1 Cu 0.47415(3) 0.33299(3) 0.295950(12)
O1 O 0.5342(3) 0.42414(17) 0.22544(8)
O2 O 0.4660(3) 0.63320(17) 0.24514(7)
N1 N 0.7527(3) 0.7976(2) 0.22815(10)
N2 N 0.3392(3) 0.8819(2) 0.15505(9)
N3 N 0.5813(2) 0.71322(19) 0.13513(8)
C1 C 0.8205(4) 0.8203(3) 0.27968(12)
H1 H 0.7634 0.8663 0.3078
C2 C 0.9720(4) 0.7776(3) 0.29238(14)
H2 H 1.0183 0.7980 0.3279
C3 C 1.0538(4) 0.7047(4) 0.25206(15)
H3 H 1.1547 0.6722 0.2605
C4 C 0.9854(3) 0.6797(3) 0.19866(13)
H4 H 1.0391 0.6304 0.1708
C5 C 0.8351(3) 0.7297(3) 0.18771(11)
C6 C 0.7576(3) 0.7229(3) 0.12931(11)
H5 H 0.7846 0.8017 0.1072
H6 H 0.7972 0.6461 0.1084
C7 C 0.4995(3) 0.7692(2) 0.08339(10)
H7 H 0.4766 0.6984 0.0561
H8 H 0.5688 0.8328 0.0644
C8 C 0.3468(3) 0.8368(3) 0.10066(10)
C9 C 0.2249(3) 0.8571(3) 0.06137(12)
H9 H 0.2316 0.8229 0.0240
C10 C 0.0924(3) 0.9292(3) 0.07867(14)
H10 H 0.0092 0.9445 0.0529
C11 C 0.0856(3) 0.9777(3) 0.13411(15)
H11 H -0.0016 1.0271 0.1464
C12 C 0.2098(3) 0.9522(3) 0.17145(13)
H12 H 0.2044 0.9845 0.2092
C13 C 0.5092(3) 0.5435(2) 0.21158(10)
C14 C 0.5213(3) 0.5750(2) 0.14647(10)
H13 H 0.4109 0.5759 0.1328
C15 C 0.6012(5) 0.4662(3) 0.11133(14)
H14 H 0.6048 0.4919 0.0713
H15 H 0.5417 0.3851 0.1151
H16 H 0.7074 0.4526 0.1254
O2B O 0.5340(3) 0.13320(17) 0.25486(7)
N1B N 0.2473(3) 0.2976(2) 0.27185(10)
N2B N 0.6608(3) 0.3819(2) 0.34495(9)
N3B N 0.4187(2) 0.21322(19) 0.36487(8)
Cu1B Cu 0.52585(3) 0.83299(3) 0.204050(12)
C16 C 0.0580(6) 0.3272(5) 0.02273(17)
F1 F 0.0342(14) 0.3151(10) -0.0322(3)
F2 F -0.0679(11) 0.2944(9) 0.0540(4)
F3 F 0.1699(12) 0.2383(8) 0.0375(6)
S1 S 0.12711(9) 0.49142(8) 0.04090(3)
O3 O 0.2494(3) 0.5211(3) -0.00073(14)
O4 O 0.1772(4) 0.4810(3) 0.09974(12)
O5 O -0.0139(3) 0.5696(3) 0.03410(12)
O6 O 0.6748(4) 0.0519(3) 0.14681(16)
H17 H 0.684(6) 0.078(5) 0.1192(15)
H18 H 0.646(8) 0.084(6) 0.1721(19)
F4? F -0.018(2) 0.3364(18) -0.0304(4)
F5? F -0.039(2) 0.2766(18) 0.0599(8)
F6? F 0.176(2) 0.2438(14) 0.0139(10)
loop_
_geom_bond_atom_site_label_1
_geom_bond_atom_site_label_2
_geom_bond_site_symmetry_1
_geom_bond_site_symmetry_2
Cu1 O1 1_555 1_555
O1 C13 1_555 1_555
O2 C13 1_555 1_555
N1 C1 1_555 1_555
N2 C8 1_555 1_555
N3 C6 1_555 1_555
C1 H1 1_555 1_555
C2 C1 1_555 1_555
H2 C2 1_555 1_555
C3 C2 1_555 1_555
H3 C3 1_555 1_555
C4 C3 1_555 1_555
H4 C4 1_555 1_555
C5 N1 1_555 1_555
C6 C5 1_555 1_555
H5 C6 1_555 1_555
H6 C6 1_555 1_555
C7 N3 1_555 1_555
H7 C7 1_555 1_555
H8 C7 1_555 1_555
C8 C7 1_555 1_555
C9 C8 1_555 1_555
H9 C9 1_555 1_555
C10 C9 1_555 1_555
H10 C10 1_555 1_555
C11 C10 1_555 1_555
H11 C11 1_555 1_555
C12 N2 1_555 1_555
H12 C12 1_555 1_555
C13 C14 1_555 1_555
C14 N3 1_555 1_555
H13 C14 1_555 1_555
C15 C14 1_555 1_555
H14 C15 1_555 1_555
H15 C15 1_555 1_555
H16 C15 1_555 1_555
C16 F1 1_555 1_555
F2 C16 1_555 1_555
F3 C16 1_555 1_555
S1 C16 1_555 1_555
O3 S1 1_555 1_555
O4 S1 1_555 1_555
O5 S1 1_555 1_555
O6 H17 1_555 1_555
H18 O6 1_555 1_555
O2B Cu1 1_555 1_555
N1B Cu1 1_555 1_555
N2B Cu1 1_555 1_555
N3B Cu1 1_555 1_555
Cu1B O2 1_555 1_555
N1 Cu1B 1_555 1_555
N2 Cu1B 1_555 1_555
N3 Cu1B 1_555 1_555
C4 C5 1_555 1_555
C11 C12 1_555 1_555

#END
