
#######################################################################
#
#                 Cambridge Crystallographic Data Centre
#                                CCDC 
#
#######################################################################
#
# If this CIF has been generated from an entry in the Cambridge 
# Structural Database, then it will include bibliographic, chemical, 
# crystal, experimental, refinement or atomic coordinate data resulting 
# from the CCDC's data processing and validation procedures.
#
#######################################################################

data_IJAJEJ
_symmetry_cell_setting           triclinic
_symmetry_space_group_name_H-M   'P -1'
_symmetry_Int_Tables_number      2
_space_group_name_Hall           '-P 1'
loop_
_symmetry_equiv_pos_site_id
_symmetry_equiv_pos_as_xyz
1 x,y,z
2 -x,-y,-z
_cell_length_a                   15.4671(9)
_cell_length_b                   17.5861(11)
_cell_length_c                   23.0647(14)
_cell_angle_alpha                74.8270(10)
_cell_angle_beta                 89.2240(10)
_cell_angle_gamma                81.0790(10)
_cell_volume                     5979.38
loop_
_atom_site_label
_atom_site_type_symbol
_atom_site_fract_x
_atom_site_fract_y
_atom_site_fract_z
W1 W -0.23989(5) -0.17638(4) 0.00204(3)
W2 W -0.10361(5) -0.07148(5) -0.09024(3)
W3 W -0.30818(5) 0.01678(4) -0.07419(3)
W4 W -0.20584(5) -0.33282(4) -0.08156(3)
W5 W -0.06863(5) -0.22762(5) -0.17389(4)
W6 W -0.14358(5) -0.01806(5) -0.25629(4)
W7 W -0.35057(6) 0.06725(5) -0.23946(4)
W8 W -0.49661(6) -0.04630(5) -0.13662(4)
W9 W -0.43127(5) -0.23757(5) -0.06175(3)
W10 W -0.28304(5) -0.40012(4) -0.21064(3)
W11 W -0.14684(5) -0.29686(5) -0.30217(3)
W12 W -0.22490(5) -0.08639(5) -0.38437(4)
W13 W -0.42881(6) -0.00072(5) -0.36743(4)
W14 W -0.57805(5) -0.11279(5) -0.26384(4)
W15 W -0.50988(5) -0.30624(4) -0.19021(3)
W16 W -0.45037(5) -0.35631(4) -0.33444(3)
W17 W -0.31298(5) -0.25148(4) -0.42648(3)
W18 W -0.52052(5) -0.16412(4) -0.40804(3)
As1 As -0.28176(10) -0.13108(9) -0.15648(7)
As2 As -0.36409(10) -0.20177(9) -0.28820(7)
O1 O -0.2287(9) -0.2186(7) 0.0788(5)
O2 O -0.1287(7) -0.1390(7) -0.0132(5)
O3 O -0.0052(8) -0.0484(8) -0.0734(7)
O4 O -0.2907(8) -0.0691(7) 0.0003(5)
O5 O -0.1855(8) 0.0154(7) -0.0727(6)
O6 O -0.3429(8) 0.0968(7) -0.0454(6)
O7 O -0.1958(8) -0.2615(7) -0.0304(5)
O8 O -0.0688(7) -0.1670(7) -0.1161(5)
O9 O -0.3514(7) -0.1957(7) -0.0167(5)
O10 O -0.2461(7) -0.1001(6) -0.0986(5)
O11 O -0.1206(8) -0.0193(6) -0.1729(5)
O12 O -0.4121(8) -0.0187(7) -0.0862(6)
O13 O -0.3095(7) 0.0616(7) -0.1581(6)
O14 O -0.1803(10) -0.4198(7) -0.0258(6)
O15 O -0.0876(8) -0.3197(7) -0.1103(5)
O16 O 0.0426(8) -0.2496(8) -0.1773(5)
O17 O -0.4712(8) -0.2984(9) 0.0006(6)
O18 O -0.3271(7) -0.3037(6) -0.0752(5)
O19 O -0.2163(7) -0.2158(6) -0.1571(5)
O20 O -0.0959(8) -0.1296(7) -0.2319(5)
O21 O -0.5112(8) -0.1423(7) -0.0736(6)
O22 O -0.3844(7) -0.1445(7) -0.1430(5)
O23 O -0.2728(7) -0.0598(7) -0.2200(5)
O24 O -0.0560(8) 0.0265(8) -0.2851(6)
O25 O -0.1865(8) -0.0355(6) -0.3288(5)
O26 O -0.2307(8) 0.0769(7) -0.2652(5)
O27 O -0.3924(9) 0.1681(7) -0.2604(6)
O28 O -0.5859(8) 0.0204(9) -0.1196(7)
O29 O -0.4444(8) 0.0205(7) -0.2031(6)
O30 O -0.3785(8) 0.0452(7) -0.3126(5)
O31 O -0.5556(7) -0.0866(7) -0.1925(5)
O32 O -0.4914(7) -0.2682(7) -0.1224(5)
O33 O -0.0960(7) -0.2810(7) -0.2326(6)
O34 O -0.2256(8) -0.3757(7) -0.1467(5)
O35 O -0.0510(9) -0.3314(8) -0.3325(6)
O36 O -0.1801(7) -0.3964(6) -0.2560(5)
O37 O -0.2726(9) -0.5004(7) -0.1799(6)
O38 O -0.3931(8) -0.3612(7) -0.1816(5)
O39 O -0.2777(7) -0.2692(6) -0.2556(5)
O40 O -0.1632(7) -0.1853(7) -0.3385(5)
O41 O -0.1558(9) -0.0555(8) -0.4423(6)
O42 O -0.3369(7) -0.1117(7) -0.3177(5)
O43 O -0.3250(9) -0.0038(7) -0.4124(6)
O44 O -0.4472(7) -0.1986(7) -0.2407(5)
O45 O -0.6017(8) -0.2170(8) -0.2181(5)
O46 O -0.4904(10) 0.0867(7) -0.4125(6)
O47 O -0.6840(9) -0.0627(9) -0.2760(7)
O48 O -0.3525(8) -0.3950(6) -0.2819(5)
O49 O -0.5067(7) -0.3291(8) -0.2685(5)
O50 O -0.3997(7) -0.2325(6) -0.3470(5)
O51 O -0.2831(8) -0.1536(7) -0.4242(6)
O52 O -0.5722(8) -0.1539(7) -0.3352(6)
O53 O -0.4668(8) -0.0735(7) -0.4101(5)
O54 O -0.5096(8) -0.0379(7) -0.3073(5)
O55 O -0.4929(8) -0.4411(7) -0.3373(5)
O56 O -0.3727(8) -0.3459(7) -0.3994(5)
O57 O -0.5706(9) -0.3806(8) -0.1572(6)
O58 O -0.4298(8) -0.1938(7) -0.4590(5)
O59 O -0.6066(8) -0.1258(7) -0.4583(6)
O60 O -0.2666(8) -0.2657(7) -0.4899(6)
O61 O -0.2265(7) -0.3011(6) -0.3667(5)
O62 O -0.5346(7) -0.2759(6) -0.3874(5)
Cu1 Cu 0.03230(17) -0.41284(15) -0.06562(12)
Cu2 Cu -0.4220(2) 0.30040(17) -0.30038(13)
Cu3 Cu -0.1936(2) 0.20583(18) -0.31546(13)
Cu4 Cu -0.7731(3) -0.2403(2) -0.19039(16)
Cu5 Cu -0.8328(3) -0.0338(2) -0.25864(17)
Cu6 Cu -0.6371(2) -0.4961(2) -0.10473(16)
Cu7 Cu -0.6550(3) 0.1120(2) -0.40074(19)
Cu8 Cu -1.0744(4) -0.2034(3) -0.6337(2)
N1 N -0.4053(3) 0.3278(2) -0.2273(3)
C1 C -0.3749(3) 0.2719(2) -0.1742(2)
H1 H -0.3571 0.2188 -0.1740
C2 C -0.3711(3) 0.2952(2) -0.1213(3)
H2 H -0.3508 0.2578 -0.0858
C3 C -0.3978(3) 0.3745(2) -0.1216(3)
C4 C -0.4282(4) 0.4305(2) -0.1747(3)
H3 H -0.4460 0.4835 -0.1749
C5 C -0.4320(3) 0.4071(2) -0.2276(3)
H4 H -0.4523 0.4445 -0.2631
N2 N 0.1653(3) -0.2313(2) 0.2454(3)
C6 C 0.1395(3) -0.1749(2) 0.1916(2)
H5 H 0.1354 -0.1208 0.1892
C7 C 0.1198(3) -0.1992(3) 0.1413(3)
H6 H 0.1025 -0.1615 0.1053
C8 C 0.1258(3) -0.2800(3) 0.1449(3)
C9 C 0.1516(3) -0.3365(3) 0.1987(3)
H7 H 0.1557 -0.3905 0.2011
C10 C 0.1714(3) -0.3121(2) 0.2490(3)
H8 H 0.1886 -0.3498 0.2851
N3 N 0.0417(2) -0.4823(3) -0.1171(3)
C11 C -0.0123(2) -0.4647(2) -0.1680(3)
H9 H -0.0556 -0.4199 -0.1762
C12 C -0.0018(2) -0.5140(3) -0.2067(3)
H10 H -0.0379 -0.5022 -0.2408
C13 C 0.0628(2) -0.5809(3) -0.1945(3)
C14 C 0.1169(2) -0.5985(3) -0.1435(3)
H11 H 0.1602 -0.6433 -0.1353
C15 C 0.1064(2) -0.5492(3) -0.1048(3)
H12 H 0.1425 -0.5610 -0.0707
N4 N -0.3634(3) 0.4614(2) 0.03405(16)
C16 C -0.3405(2) 0.3806(2) 0.03765(16)
H13 H -0.3184 0.3453 0.0737
C17 C -0.3505(3) 0.3528(3) -0.01257(16)
H14 H -0.3351 0.2987 -0.0102
C18 C -0.3834(3) 0.4056(3) -0.06641(16)
C19 C -0.4064(3) 0.4864(3) -0.07002(16)
H15 H -0.4285 0.5217 -0.1060
C20 C -0.3964(3) 0.5143(2) -0.01979(17)
H16 H -0.4118 0.5683 -0.0222
C21 C -0.6486(3) -0.6635(2) -0.2306(2)
C22 C -0.6415(3) -0.6936(2) -0.1685(2)
H17 H -0.6383 -0.7481 -0.1513
C23 C -0.6393(3) -0.6422(2) -0.1321(2)
H18 H -0.6346 -0.6623 -0.0905
N5 N -0.6441(2) -0.5608(2) -0.15775(19)
C24 C -0.6511(2) -0.5307(2) -0.21983(18)
H19 H -0.6543 -0.4762 -0.2370
C25 C -0.6534(2) -0.5821(2) -0.2563(2)
H20 H -0.6581 -0.5620 -0.2978
N6 N -0.6578(3) -0.8209(2) -0.3440(3)
C26 C -0.6947(3) -0.7411(2) -0.3643(2)
H21 H -0.7219 -0.7220 -0.4022
C27 C -0.6911(3) -0.6897(2) -0.3280(2)
H22 H -0.7159 -0.6363 -0.3416
C28 C -0.6506(3) -0.7182(2) -0.2714(2)
C29 C -0.6136(3) -0.7981(2) -0.2511(3)
H23 H -0.5865 -0.8171 -0.2132
C30 C -0.6172(3) -0.8494(2) -0.2874(3)
H24 H -0.5925 -0.9028 -0.2738
C31 C -0.9187(2) -0.1258(2) -0.4161(2)
C32 C -0.8487(3) -0.0836(2) -0.4234(2)
H25 H -0.8218 -0.0715 -0.4603
C33 C -0.8187(2) -0.0594(2) -0.3756(2)
H26 H -0.7719 -0.0312 -0.3805
N7 N -0.8589(2) -0.0774(2) -0.3204(2)
C34 C -0.9289(2) -0.1196(2) -0.3131(2)
H27 H -0.9558 -0.1317 -0.2762
C35 C -0.9588(2) -0.1438(2) -0.3609(2)
H28 H -1.0057 -0.1720 -0.3560
N8 N -1.0396(3) -0.1684(3) -0.5706(2)
C36 C -0.9911(3) -0.1063(3) -0.5787(2)
H29 H -0.9844 -0.0744 -0.6171
C37 C -0.9525(3) -0.0920(3) -0.5293(2)
H30 H -0.9200 -0.0505 -0.5347
C38 C -0.9624(3) -0.1396(3) -0.4719(2)
C39 C -1.0109(3) -0.2017(3) -0.4639(2)
H31 H -1.0176 -0.2336 -0.4255
C40 C -1.0495(3) -0.2160(3) -0.5132(2)
H32 H -1.0820 -0.2575 -0.5079
C41 C -0.7873(2) -0.3750(2) -0.33898(19)
C42 C -0.7224(2) -0.3284(2) -0.33930(17)
H33 H -0.6810 -0.3240 -0.3692
C43 C -0.7193(2) -0.2883(2) -0.29500(17)
H34 H -0.6759 -0.2571 -0.2952
N9 N -0.7811(2) -0.2949(2) -0.25037(18)
C44 C -0.8460(2) -0.3415(2) -0.2500(2)
H35 H -0.8873 -0.3459 -0.2202
C45 C -0.8491(2) -0.3816(2) -0.2943(2)
H36 H -0.8925 -0.4128 -0.2941
C46 C -0.8724(3) -0.4671(3) -0.4527(2)
H37 H -0.9260 -0.4735 -0.4670
N10 N -0.7952(3) -0.4951(3) -0.4772(2)
C47 C -0.7150(3) -0.4856(3) -0.4559(2)
H38 H -0.6634 -0.5043 -0.4723
C48 C -0.7120(3) -0.4481(2) -0.41004(19)
H39 H -0.6584 -0.4417 -0.3958
C49 C -0.7892(3) -0.4201(2) -0.38553(19)
C50 C -0.8694(3) -0.4296(2) -0.4069(2)
H40 H -0.9210 -0.4109 -0.3905
C51 C 0.1021(12) -0.3076(11) 0.0918(8)
C52 C 0.0384(12) -0.2690(11) 0.0506(9)
H41 H 0.0079 -0.2202 0.0533
C53 C 0.1472(13) -0.3743(11) 0.0819(9)
H42 H 0.1958 -0.4011 0.1063
C54 C 0.1218(13) -0.4033(12) 0.0357(9)
H43 H 0.1515 -0.4520 0.0321
C55 C 0.0174(13) -0.2998(12) 0.0051(9)
H44 H -0.0288 -0.2715 -0.0210
C56 C 0.0754(12) -0.6370(11) -0.2344(9)
C57 C 0.0411(16) -0.6031(16) -0.2960(12)
H45 H 0.0170 -0.5497 -0.3110
N11 N 0.0571(10) -0.3655(9) -0.0044(7)
C58 C 0.1108(15) -0.7152(13) -0.2177(11)
H46 H 0.1366 -0.7376 -0.1797
C59 C 0.1086(15) -0.7605(14) -0.2567(11)
H47 H 0.1257 -0.8152 -0.2416
N12 N 0.0854(15) -0.7356(14) -0.3114(11)
C60 C 0.0479(18) -0.6591(16) -0.3307(14)
H48 H 0.0246 -0.6416 -0.3697
C61 C -0.6946(7) -0.1769(9) -0.1049(6)
H49 H -0.6384 -0.1860 -0.1192
N13 N -0.7719(9) -0.1933(8) -0.1285(5)
C62 C -0.8431(7) -0.1707(10) -0.0939(7)
H50 H -0.9014 -0.1750 -0.0997
C63 C -0.8099(9) -0.1404(10) -0.0489(6)
H51 H -0.8425 -0.1213 -0.0201
N14 N -0.7180(9) -0.1442(8) -0.0557(6)
H52 H -0.6828 -0.1293 -0.0339
C64 C -0.9039(8) 0.0463(11) -0.1668(9)
H53 H -0.9633 0.0491 -0.1746
C65 C -0.8671(11) 0.0694(11) -0.1191(7)
H54 H -0.8981 0.0899 -0.0903
N15 N -0.7745(10) 0.0557(10) -0.1233(7)
H55 H -0.7374 0.0649 -0.0996
C66 C -0.7542(9) 0.0242(10) -0.1735(8)
H56 H -0.6983 0.0099 -0.1864
N16 N -0.8341(11) 0.0184(9) -0.2003(6)
N17 N -0.2207(10) 0.2080(9) -0.3917(6)
C67 C -0.2573(10) 0.1448(7) -0.4045(6)
H57 H -0.2655 0.0976 -0.3769
N18 N -0.2791(10) 0.1662(9) -0.4669(6)
H58 H -0.3022 0.1378 -0.4858
C68 C -0.2560(14) 0.2427(10) -0.4927(6)
H59 H -0.2633 0.2710 -0.5329
C69 C -0.2199(14) 0.2686(8) -0.4462(9)
H60 H -0.1994 0.3167 -0.4507
N19 N -0.4546(10) 0.3086(10) -0.3795(6)
C70 C -0.4686(11) 0.2419(7) -0.4000(7)
H61 H -0.4551 0.1886 -0.3787
N20 N -0.5070(12) 0.2709(10) -0.4588(7)
H62 H -0.5218 0.2422 -0.4809
C71 C -0.5167(13) 0.3555(10) -0.4746(7)
H63 H -0.5402 0.3896 -0.5108
C72 C -0.4843(13) 0.3788(8) -0.4257(8)
H64 H -0.4828 0.4308 -0.4241
O65 O -0.6557(12) 0.0484(10) -0.4602(8)
Cu3A Cu 0.1936(2) -0.20583(18) 0.31546(13)
Cu6A Cu -0.3629(2) 0.4961(2) 0.10473(16)
Cu7_2 Cu -0.6550(3) -0.8880(2) -0.40074(19)
Cu8A Cu 0.0744(4) -0.7966(3) -0.3663(2)
N2A N -0.1653(3) 0.2313(2) -0.2454(3)
N4A N -0.6366(3) -0.4614(2) -0.03405(16)
N6_2 N -0.6578(3) 0.1791(2) -0.3440(3)
N12A N -1.0854(15) -0.2644(14) -0.6886(11)
O63 O -0.467(3) -0.106(2) -0.9523(19)
O64 O -0.177(3) -0.502(2) -0.3463(18)
loop_
_geom_bond_atom_site_label_1
_geom_bond_atom_site_label_2
_geom_bond_site_symmetry_1
_geom_bond_site_symmetry_2
W1 O1 1_555 1_555
W2 O2 1_555 1_555
W3 O4 1_555 1_555
W4 O7 1_555 1_555
W5 O8 1_555 1_555
W6 O11 1_555 1_555
W7 O13 1_555 1_555
W8 O12 1_555 1_555
W9 O9 1_555 1_555
W10 O34 1_555 1_555
W11 O33 1_555 1_555
W12 O25 1_555 1_555
W13 O30 1_555 1_555
W14 O31 1_555 1_555
W15 O32 1_555 1_555
W16 O48 1_555 1_555
W17 O50 1_555 1_555
W18 O50 1_555 1_555
As1 O10 1_555 1_555
As2 O39 1_555 1_555
O2 W1 1_555 1_555
O3 W2 1_555 1_555
O4 W1 1_555 1_555
O5 W2 1_555 1_555
O6 W3 1_555 1_555
O7 W1 1_555 1_555
O8 W2 1_555 1_555
O9 W1 1_555 1_555
O10 W1 1_555 1_555
O11 W2 1_555 1_555
O12 W3 1_555 1_555
O13 W3 1_555 1_555
O14 W4 1_555 1_555
O15 W4 1_555 1_555
O16 W5 1_555 1_555
O17 W9 1_555 1_555
O18 W4 1_555 1_555
O19 W4 1_555 1_555
O20 W5 1_555 1_555
O21 W8 1_555 1_555
O22 W8 1_555 1_555
O23 W6 1_555 1_555
O24 W6 1_555 1_555
O25 W6 1_555 1_555
O26 W6 1_555 1_555
O27 W7 1_555 1_555
O28 W8 1_555 1_555
O29 W7 1_555 1_555
O30 W7 1_555 1_555
O31 W8 1_555 1_555
O32 W9 1_555 1_555
O33 W5 1_555 1_555
O34 W4 1_555 1_555
O35 W11 1_555 1_555
O36 W10 1_555 1_555
O37 W10 1_555 1_555
O38 W10 1_555 1_555
O39 W10 1_555 1_555
O40 W11 1_555 1_555
O41 W12 1_555 1_555
O42 W12 1_555 1_555
O43 W12 1_555 1_555
O44 W14 1_555 1_555
O45 W14 1_555 1_555
O46 W13 1_555 1_555
O47 W14 1_555 1_555
O48 W10 1_555 1_555
O49 W15 1_555 1_555
O50 W16 1_555 1_555
O51 W12 1_555 1_555
O52 W14 1_555 1_555
O53 W13 1_555 1_555
O54 W13 1_555 1_555
O55 W16 1_555 1_555
O56 W16 1_555 1_555
O57 W15 1_555 1_555
O58 W17 1_555 1_555
O59 W18 1_555 1_555
O60 W17 1_555 1_555
O61 W11 1_555 1_555
O62 W16 1_555 1_555
Cu1 O15 1_555 1_555
Cu2 O27 1_555 1_555
Cu3 O26 1_555 1_555
Cu4 O45 1_555 1_555
Cu5 O47 1_555 1_555
Cu6 O57 1_555 1_555
Cu7 O46 1_555 1_555
Cu8 N8 1_555 1_555
N1 Cu2 1_555 1_555
C1 N1 1_555 1_555
H1 C1 1_555 1_555
C2 C1 1_555 1_555
H2 C2 1_555 1_555
C3 C2 1_555 1_555
C4 C3 1_555 1_555
H3 C4 1_555 1_555
C5 N1 1_555 1_555
H4 C5 1_555 1_555
N2 C6 1_555 1_555
C6 H5 1_555 1_555
C7 C6 1_555 1_555
H6 C7 1_555 1_555
C8 C7 1_555 1_555
C9 C8 1_555 1_555
H7 C9 1_555 1_555
C10 N2 1_555 1_555
H8 C10 1_555 1_555
N3 Cu1 1_555 1_555
C11 N3 1_555 1_555
H9 C11 1_555 1_555
C12 C11 1_555 1_555
H10 C12 1_555 1_555
C13 C12 1_555 1_555
C14 C13 1_555 1_555
H11 C14 1_555 1_555
C15 N3 1_555 1_555
H12 C15 1_555 1_555
N4 C16 1_555 1_555
C16 H13 1_555 1_555
C17 C16 1_555 1_555
H14 C17 1_555 1_555
C18 C3 1_555 1_555
C19 C18 1_555 1_555
H15 C19 1_555 1_555
C20 N4 1_555 1_555
H16 C20 1_555 1_555
C21 C22 1_555 1_555
C22 H17 1_555 1_555
C23 C22 1_555 1_555
H18 C23 1_555 1_555
N5 Cu6 1_555 1_555
C24 N5 1_555 1_555
H19 C24 1_555 1_555
C25 C21 1_555 1_555
H20 C25 1_555 1_555
N6 C26 1_555 1_555
C26 H21 1_555 1_555
C27 C26 1_555 1_555
H22 C27 1_555 1_555
C28 C21 1_555 1_555
C29 C28 1_555 1_555
H23 C29 1_555 1_555
C30 N6 1_555 1_555
H24 C30 1_555 1_555
C31 C32 1_555 1_555
C32 H25 1_555 1_555
C33 C32 1_555 1_555
H26 C33 1_555 1_555
N7 Cu5 1_555 1_555
C34 N7 1_555 1_555
H27 C34 1_555 1_555
C35 C31 1_555 1_555
H28 C35 1_555 1_555
N8 C36 1_555 1_555
C36 H29 1_555 1_555
C37 C36 1_555 1_555
H30 C37 1_555 1_555
C38 C31 1_555 1_555
C39 C38 1_555 1_555
H31 C39 1_555 1_555
C40 N8 1_555 1_555
H32 C40 1_555 1_555
C41 C42 1_555 1_555
C42 H33 1_555 1_555
C43 C42 1_555 1_555
H34 C43 1_555 1_555
N9 Cu4 1_555 1_555
C44 N9 1_555 1_555
H35 C44 1_555 1_555
C45 C41 1_555 1_555
H36 C45 1_555 1_555
C46 H37 1_555 1_555
N10 C46 1_555 1_555
C47 N10 1_555 1_555
H38 C47 1_555 1_555
C48 C47 1_555 1_555
H39 C48 1_555 1_555
C49 C41 1_555 1_555
C50 C46 1_555 1_555
H40 C50 1_555 1_555
C51 C8 1_555 1_555
C52 C51 1_555 1_555
H41 C52 1_555 1_555
C53 C51 1_555 1_555
H42 C53 1_555 1_555
C54 C53 1_555 1_555
H43 C54 1_555 1_555
C55 C52 1_555 1_555
H44 C55 1_555 1_555
C56 C13 1_555 1_555
C57 C56 1_555 1_555
H45 C57 1_555 1_555
N11 Cu1 1_555 1_555
C58 C56 1_555 1_555
H46 C58 1_555 1_555
C59 C58 1_555 1_555
H47 C59 1_555 1_555
N12 C59 1_555 1_555
C60 C57 1_555 1_555
H48 C60 1_555 1_555
C61 H49 1_555 1_555
N13 Cu4 1_555 1_555
C62 N13 1_555 1_555
H50 C62 1_555 1_555
C63 C62 1_555 1_555
H51 C63 1_555 1_555
N14 C61 1_555 1_555
H52 N14 1_555 1_555
C64 H53 1_555 1_555
C65 C64 1_555 1_555
H54 C65 1_555 1_555
N15 C65 1_555 1_555
H55 N15 1_555 1_555
C66 N15 1_555 1_555
H56 C66 1_555 1_555
N16 Cu5 1_555 1_555
N17 Cu3 1_555 1_555
C67 N17 1_555 1_555
H57 C67 1_555 1_555
N18 C67 1_555 1_555
H58 N18 1_555 1_555
C68 N18 1_555 1_555
H59 C68 1_555 1_555
C69 N17 1_555 1_555
H60 C69 1_555 1_555
N19 Cu2 1_555 1_555
C70 N19 1_555 1_555
H61 C70 1_555 1_555
N20 C70 1_555 1_555
H62 N20 1_555 1_555
C71 N20 1_555 1_555
H63 C71 1_555 1_555
C72 N19 1_555 1_555
H64 C72 1_555 1_555
O65 Cu7 1_555 1_555
Cu3A N2 1_555 1_555
Cu6A N4 1_555 1_555
Cu7_2 N6 1_555 1_555
Cu8A N12 1_555 1_555
N2A Cu3 1_555 1_555
N4A Cu6 1_555 1_555
N6_2 Cu7 1_555 1_555
N12A Cu8 1_555 1_555
W2 O10 1_555 1_555
W3 O5 1_555 1_555
W3 O10 1_555 1_555
W5 O15 1_555 1_555
W5 O19 1_555 1_555
W6 O20 1_555 1_555
W7 O23 1_555 1_555
W7 O26 1_555 1_555
W8 O29 1_555 1_555
W9 O18 1_555 1_555
W9 O21 1_555 1_555
W9 O22 1_555 1_555
W11 O36 1_555 1_555
W11 O39 1_555 1_555
W12 O40 1_555 1_555
W13 O42 1_555 1_555
W13 O43 1_555 1_555
W14 O54 1_555 1_555
W15 O38 1_555 1_555
W15 O44 1_555 1_555
W15 O45 1_555 1_555
W16 O49 1_555 1_555
W17 O51 1_555 1_555
W17 O56 1_555 1_555
W17 O61 1_555 1_555
W18 O52 1_555 1_555
W18 O53 1_555 1_555
W18 O58 1_555 1_555
W18 O62 1_555 1_555
As1 O19 1_555 1_555
As1 O22 1_555 1_555
As1 O23 1_555 1_555
As2 O42 1_555 1_555
As2 O44 1_555 1_555
As2 O50 1_555 1_555
C4 C5 1_555 1_555
C9 C10 1_555 1_555
C14 C15 1_555 1_555
C17 C18 1_555 1_555
C19 C20 1_555 1_555
C23 N5 1_555 1_555
C24 C25 1_555 1_555
C27 C28 1_555 1_555
C29 C30 1_555 1_555
C33 N7 1_555 1_555
C34 C35 1_555 1_555
C37 C38 1_555 1_555
C39 C40 1_555 1_555
C43 N9 1_555 1_555
C44 C45 1_555 1_555
C48 C49 1_555 1_555
C49 C50 1_555 1_555
C54 N11 1_555 1_555
C55 N11 1_555 1_555
N12 C60 1_555 1_555
C61 N13 1_555 1_555
C63 N14 1_555 1_555
C64 N16 1_555 1_555
C66 N16 1_555 1_555
C68 C69 1_555 1_555
C71 C72 1_555 1_555

#END
