
#######################################################################
#
#                 Cambridge Crystallographic Data Centre
#                                CCDC 
#
#######################################################################
#
# If this CIF has been generated from an entry in the Cambridge 
# Structural Database, then it will include bibliographic, chemical, 
# crystal, experimental, refinement or atomic coordinate data resulting 
# from the CCDC's data processing and validation procedures.
#
#######################################################################

data_IJALIP
_symmetry_cell_setting           monoclinic
_symmetry_space_group_name_H-M   'P 21/n'
_symmetry_Int_Tables_number      14
_space_group_name_Hall           '-P 2yn'
loop_
_symmetry_equiv_pos_site_id
_symmetry_equiv_pos_as_xyz
1 x,y,z
2 1/2-x,1/2+y,1/2-z
3 -x,-y,-z
4 1/2+x,1/2-y,1/2+z
_cell_length_a                   17.3685(18)
_cell_length_b                   7.2012(7)
_cell_length_c                   17.8572(17)
_cell_angle_alpha                90
_cell_angle_beta                 114.756(2)
_cell_angle_gamma                90
_cell_volume                     2028.21
loop_
_atom_site_label
_atom_site_type_symbol
_atom_site_fract_x
_atom_site_fract_y
_atom_site_fract_z
Zn1 Zn 0.890971(19) 0.37653(5) 0.632533(19)
O1 O 0.83136(12) 0.5287(3) 0.52949(11)
O2 O 0.74475(13) 0.2905(3) 0.50822(13)
O3 O 0.49614(11) 0.9895(3) 0.20363(11)
O4 O 0.40903(12) 0.7781(3) 0.21561(12)
N1 N 0.82647(14) 0.3202(3) 0.70170(14)
N2 N 0.72169(17) 0.2773(4) 0.73978(17)
H1 H 0.6711 0.2610 0.7358
N3 N 0.93600(14) 0.1394(3) 0.60559(13)
N4 N 0.92638(16) -0.1428(3) 0.55383(14)
H2 H 0.9037 -0.2431 0.5278
C1 C 0.85989(19) 0.3162(4) 0.78791(18)
C2 C 0.7942(2) 0.2887(4) 0.8120(2)
C3 C 0.8075(2) 0.2769(5) 0.8937(2)
H3 H 0.7630 0.2589 0.9089
C4 C 0.8894(3) 0.2931(6) 0.9510(2)
H4 H 0.9011 0.2862 1.0067
C5 C 0.9559(2) 0.3198(6) 0.9278(2)
H5 H 1.0110 0.3276 0.9685
C6 C 0.9427(2) 0.3348(5) 0.84701(19)
H6 H 0.9873 0.3566 0.8322
C7 C 0.74391(19) 0.2961(5) 0.6770(2)
H7 H 0.7055 0.2926 0.6219
C8 C 1.01775(18) 0.0739(4) 0.62451(16)
C9 C 1.01253(19) -0.1044(4) 0.59214(16)
C10 C 1.0837(2) -0.2067(5) 0.60140(19)
H8 H 1.0793 -0.3245 0.5786
C11 C 1.1612(2) -0.1242(6) 0.6462(2)
H9 H 1.2105 -0.1882 0.6540
C12 C 1.1674(2) 0.0526(6) 0.6800(2)
H10 H 1.2209 0.1025 0.7106
C13 C 1.09681(18) 0.1557(5) 0.66965(18)
H11 H 1.1015 0.2744 0.6917
C14 C 0.88544(19) 0.0029(4) 0.56456(17)
H12 H 0.8267 0.0082 0.5450
C15 C 0.76030(18) 0.4459(4) 0.48894(17)
C16 C 0.69195(17) 0.5488(4) 0.41926(16)
C17 C 0.61238(19) 0.4685(5) 0.38224(19)
H13 H 0.6039 0.3496 0.3976
C18 C 0.70303(19) 0.7246(5) 0.39461(19)
H14 H 0.7560 0.7809 0.4187
C19 C 0.48111(17) 0.8408(4) 0.23472(16)
C20 C 0.55641(16) 0.7400(4) 0.29825(16)
C21 C 0.54532(19) 0.5629(5) 0.32265(18)
H15 H 0.4922 0.5071 0.2987
C22 C 0.63527(18) 0.8192(4) 0.33370(19)
H16 H 0.6439 0.9368 0.3171
Zn1C Zn 0.390971(19) 1.12347(5) 0.132533(19)
O3C O 0.99614(11) 0.5105(3) 0.70363(11)
loop_
_geom_bond_atom_site_label_1
_geom_bond_atom_site_label_2
_geom_bond_site_symmetry_1
_geom_bond_site_symmetry_2
Zn1 O1 1_555 1_555
O1 C15 1_555 1_555
O2 C15 1_555 1_555
O3 C19 1_555 1_555
O4 C19 1_555 1_555
N1 Zn1 1_555 1_555
N2 H1 1_555 1_555
N3 Zn1 1_555 1_555
N4 H2 1_555 1_555
C1 N1 1_555 1_555
C2 N2 1_555 1_555
C3 C2 1_555 1_555
H3 C3 1_555 1_555
C4 C3 1_555 1_555
H4 C4 1_555 1_555
C5 C4 1_555 1_555
H5 C5 1_555 1_555
C6 C1 1_555 1_555
H6 C6 1_555 1_555
C7 N1 1_555 1_555
H7 C7 1_555 1_555
C8 N3 1_555 1_555
C9 N4 1_555 1_555
C10 C9 1_555 1_555
H8 C10 1_555 1_555
C11 C10 1_555 1_555
H9 C11 1_555 1_555
C12 C11 1_555 1_555
H10 C12 1_555 1_555
C13 C8 1_555 1_555
H11 C13 1_555 1_555
C14 N3 1_555 1_555
H12 C14 1_555 1_555
C15 C16 1_555 1_555
C16 C17 1_555 1_555
C17 H13 1_555 1_555
C18 C16 1_555 1_555
H14 C18 1_555 1_555
C19 C20 1_555 1_555
C20 C21 1_555 1_555
C21 C17 1_555 1_555
H15 C21 1_555 1_555
C22 C18 1_555 1_555
H16 C22 1_555 1_555
Zn1C O3 1_555 1_555
O3C Zn1 1_555 1_555
N2 C7 1_555 1_555
N4 C14 1_555 1_555
C1 C2 1_555 1_555
C5 C6 1_555 1_555
C8 C9 1_555 1_555
C12 C13 1_555 1_555
C20 C22 1_555 1_555

#END
