
#######################################################################
#
#                 Cambridge Crystallographic Data Centre
#                                CCDC 
#
#######################################################################
#
# If this CIF has been generated from an entry in the Cambridge 
# Structural Database, then it will include bibliographic, chemical, 
# crystal, experimental, refinement or atomic coordinate data resulting 
# from the CCDC's data processing and validation procedures.
#
#######################################################################

data_IJATUI
_symmetry_cell_setting           triclinic
_symmetry_space_group_name_H-M   'P -1'
_symmetry_Int_Tables_number      2
_space_group_name_Hall           '-P 1'
loop_
_symmetry_equiv_pos_site_id
_symmetry_equiv_pos_as_xyz
1 x,y,z
2 -x,-y,-z
_cell_length_a                   10.174(1)
_cell_length_b                   10.388(1)
_cell_length_c                   9.480(2)
_cell_angle_alpha                95.443(6)
_cell_angle_beta                 110.732(3)
_cell_angle_gamma                110.287(5)
_cell_volume                     851.445
loop_
_atom_site_label
_atom_site_type_symbol
_atom_site_fract_x
_atom_site_fract_y
_atom_site_fract_z
O9 O 0.5939(11) 0.1933(17) 0.6149(15)
O10 O 0.5163(18) 0.390(2) 0.362(2)
Eu1 Eu 0.055647(17) 0.014702(16) 0.266662(18)
O1 O -0.1135(3) -0.2292(3) 0.0870(3)
O2 O -0.2009(3) -0.1513(3) 0.2431(3)
O3 O -0.0078(3) 0.1468(3) 0.4180(3)
O4 O -0.1036(3) 0.1535(3) 0.5935(3)
O5 O -0.1126(3) 0.0499(3) 0.0424(4)
O6 O -0.2498(3) 0.0234(4) -0.2062(3)
O7 O 0.1915(4) 0.2414(3) 0.2223(4)
O8 O 0.2897(4) 0.1524(4) 0.5093(4)
N1 N -0.2430(15) -0.5279(13) -0.0220(18)
N2 N -0.0909(17) 0.3943(11) 0.7290(13)
N3 N -0.5567(12) -0.105(2) -0.3089(11)
C1 C -0.2184(5) -0.2462(4) 0.1360(4)
C2 C -0.3638(5) -0.3783(4) 0.0657(5)
C3 C -0.4979(5) -0.3748(5) 0.0713(5)
H1 H -0.4962 -0.2908 0.1174
C4 C -0.3663(5) -0.5034(5) -0.0080(6)
C5 C -0.0463(4) 0.2088(4) 0.5049(4)
C6 C -0.0252(5) 0.3576(4) 0.5042(4)
C7 C 0.0224(7) 0.4184(5) 0.3955(6)
H2 H 0.0405 0.3644 0.3264
C8 C -0.0435(7) 0.4430(5) 0.6131(6)
C9 C -0.2368(4) 0.0303(4) -0.0675(5)
C10 C -0.3737(4) 0.0154(5) -0.0349(5)
C11 C -0.3538(5) 0.0644(7) 0.1141(5)
H3 H -0.2543 0.1095 0.1919
C12 C -0.5232(5) -0.0491(7) -0.1526(5)
H4 H 0.173(9) 0.253(8) 0.125(4)
H5 H 0.291(3) 0.288(7) 0.241(9)
H6 H 0.278(8) 0.156(8) 0.599(5)
H7 H 0.384(4) 0.171(8) 0.518(9)
C4A C -0.6337(5) -0.4966(5) 0.0080(6)
N1A N -0.7570(15) -0.4721(13) 0.0220(18)
C2A C -0.6362(5) -0.6217(4) -0.0657(5)
C1A C -0.7816(5) -0.7538(4) -0.1360(4)
O1A O -0.8865(3) -0.7708(3) -0.0870(3)
O2A O -0.7991(3) -0.8487(3) -0.2431(3)
C3A C -0.5021(5) -0.6252(5) -0.0713(5)
H1A H -0.5038 -0.7092 -0.1174
C8A C 0.0435(7) 0.5570(5) 0.3869(6)
N2A N 0.0909(17) 0.6057(11) 0.2710(13)
C6A C 0.0252(5) 0.6424(4) 0.4958(4)
C5A C 0.0463(4) 0.7912(4) 0.4951(4)
O3A O 0.0078(3) 0.8532(3) 0.5820(3)
O4A O 0.1036(3) 0.8465(3) 0.4065(3)
C7A C -0.0224(7) 0.5816(5) 0.6045(6)
H2A H -0.0405 0.6356 0.6736
C12A C -0.4768(5) 0.0491(7) 0.1526(5)
N3A N -0.4433(12) 0.105(2) 0.3089(11)
C10A C -0.6263(4) -0.0154(5) 0.0349(5)
C9A C -0.7632(4) -0.0303(4) 0.0675(5)
O5A O -0.8874(3) -0.0499(3) -0.0424(4)
O6A O -0.7502(3) -0.0234(4) 0.2062(3)
C11A C -0.6462(5) -0.0644(7) -0.1141(5)
H3A H -0.7457 -0.1095 -0.1919
Eu1A Eu -1.055647(17) -1.014702(16) -0.266662(18)
O7A O -1.1915(4) -1.2414(3) -0.2223(4)
H4A H -1.173(9) -1.253(8) -0.125(4)
H5A H -1.291(3) -1.288(7) -0.241(9)
O8A O -1.2897(4) -1.1524(4) -0.5093(4)
H6A H -1.278(8) -1.156(8) -0.599(5)
H7A H -1.384(4) -1.171(8) -0.518(9)
O4A_2 O 0.1036(3) -0.1535(3) 0.4065(3)
O6A_2 O 0.2498(3) -0.0234(4) 0.2062(3)
Eu1A_2 Eu -0.055647(17) -0.014702(16) 0.733338(18)
Eu1A_3 Eu -0.055647(17) -0.014702(16) -0.266662(18)
Eu1A_4 Eu -0.055647(17) 0.985298(16) 0.733338(18)
Eu1_2 Eu 0.055647(17) 1.014702(16) 0.266662(18)
Eu1A_5 Eu -1.055647(17) -0.014702(16) -0.266662(18)
Eu1_3 Eu -0.944353(17) 0.014702(16) 0.266662(18)
O3A_2 O -0.9922(3) -1.1468(3) -0.4180(3)
O4_2 O -1.1036(3) -0.8465(3) -0.4065(3)
O5A_2 O -0.8874(3) -1.0499(3) -0.0424(4)
O6_2 O -1.2498(3) -0.9766(4) -0.2062(3)
loop_
_geom_bond_atom_site_label_1
_geom_bond_atom_site_label_2
_geom_bond_site_symmetry_1
_geom_bond_site_symmetry_2
Eu1 O1 1_555 1_555
O1 C1 1_555 1_555
O2 Eu1 1_555 1_555
O3 Eu1 1_555 1_555
O4 C5 1_555 1_555
O5 Eu1 1_555 1_555
O6 C9 1_555 1_555
O7 Eu1 1_555 1_555
O8 Eu1 1_555 1_555
N1 C4 1_555 1_555
N2 C8 1_555 1_555
N3 C12 1_555 1_555
C1 O2 1_555 1_555
C2 C1 1_555 1_555
C3 C2 1_555 1_555
H1 C3 1_555 1_555
C4 C2 1_555 1_555
C5 O3 1_555 1_555
C6 C5 1_555 1_555
C7 C6 1_555 1_555
H2 C7 1_555 1_555
C8 C6 1_555 1_555
C9 O5 1_555 1_555
C10 C9 1_555 1_555
C11 C10 1_555 1_555
H3 C11 1_555 1_555
C12 C10 1_555 1_555
H4 O7 1_555 1_555
H5 O7 1_555 1_555
H6 O8 1_555 1_555
H7 O8 1_555 1_555
C4A C3 1_555 1_555
N1A C4A 1_555 1_555
C2A C4A 1_555 1_555
C1A C2A 1_555 1_555
O1A C1A 1_555 1_555
O2A C1A 1_555 1_555
C3A C4 1_555 1_555
H1A C3A 1_555 1_555
C8A C7 1_555 1_555
N2A C8A 1_555 1_555
C6A C8A 1_555 1_555
C5A C6A 1_555 1_555
O3A C5A 1_555 1_555
O4A C5A 1_555 1_555
C7A C8 1_555 1_555
H2A C7A 1_555 1_555
C12A C11 1_555 1_555
N3A C12A 1_555 1_555
C10A C12A 1_555 1_555
C9A C10A 1_555 1_555
O5A C9A 1_555 1_555
O6A C9A 1_555 1_555
C11A C12 1_555 1_555
H3A C11A 1_555 1_555
Eu1A O1A 1_555 1_555
O7A Eu1A 1_555 1_555
H4A O7A 1_555 1_555
H5A O7A 1_555 1_555
O8A Eu1A 1_555 1_555
H6A O8A 1_555 1_555
H7A O8A 1_555 1_555
O4A_2 Eu1 1_555 1_555
O6A_2 Eu1 1_555 1_555
Eu1A_2 O4 1_555 1_555
Eu1A_3 O6 1_555 1_555
Eu1A_4 O3A 1_555 1_555
Eu1_2 O4A 1_555 1_555
Eu1A_5 O5A 1_555 1_555
Eu1_3 O6A 1_555 1_555
O3A_2 Eu1A 1_555 1_555
O4_2 Eu1A 1_555 1_555
O5A_2 Eu1A 1_555 1_555
O6_2 Eu1A 1_555 1_555
C2A C3A 1_555 1_555
O2A Eu1A 1_555 1_555
C6A C7A 1_555 1_555
C10A C11A 1_555 1_555

#END
