
#######################################################################
#
#                 Cambridge Crystallographic Data Centre
#                                CCDC 
#
#######################################################################
#
# If this CIF has been generated from an entry in the Cambridge 
# Structural Database, then it will include bibliographic, chemical, 
# crystal, experimental, refinement or atomic coordinate data resulting 
# from the CCDC's data processing and validation procedures.
#
#######################################################################

data_IJAZIC
_symmetry_cell_setting           orthorhombic
_symmetry_space_group_name_H-M   'P 21 21 21'
_symmetry_Int_Tables_number      19
_space_group_name_Hall           'P 2ac 2ab'
loop_
_symmetry_equiv_pos_site_id
_symmetry_equiv_pos_as_xyz
1 x,y,z
2 1/2-x,-y,1/2+z
3 -x,1/2+y,1/2-z
4 1/2+x,1/2-y,-z
_cell_length_a                   8.7582(2)
_cell_length_b                   8.8582(2)
_cell_length_c                   12.8809(4)
_cell_angle_alpha                90
_cell_angle_beta                 90
_cell_angle_gamma                90
_cell_volume                     999.325
loop_
_atom_site_label
_atom_site_type_symbol
_atom_site_fract_x
_atom_site_fract_y
_atom_site_fract_z
Li1 Li 0.4586(3) 0.6413(4) -0.0002(3)
C1 C 0.27050(16) 0.77987(19) 0.07311(13)
C2 C 0.20821(17) 0.6864(2) -0.00500(18)
H1 H 0.1595 0.7194 -0.0669
C3 C 0.2314(2) 0.5348(2) 0.0256(2)
H2 H 0.1991 0.4481 -0.0118
C4 C 0.3085(2) 0.5337(2) 0.1184(2)
H3 H 0.3401 0.4463 0.1554
C5 C 0.3326(2) 0.6831(2) 0.14938(18)
H4 H 0.3823 0.7143 0.2113
C6 C 0.25637(16) 0.94988(17) 0.07739(12)
C7 C 0.3642(2) 1.0178(2) 0.15843(16)
H5 H 0.3517 1.1278 0.1597
H6 H 0.4700 0.9929 0.1404
H7 H 0.3400 0.9763 0.2270
C8 C 0.2959(2) 1.0173(2) -0.02819(14)
H8 H 0.2227 0.9815 -0.0801
H9 H 0.3992 0.9860 -0.0482
H10 H 0.2914 1.1277 -0.0241
N1 N 0.08970(14) 0.98408(15) 0.09929(10)
C9 C 0.0512(2) 1.1463(2) 0.0936(2)
H11 H -0.0564 1.1606 0.1118
H12 H 0.0691 1.1831 0.0229
H13 H 0.1155 1.2027 0.1423
C10 C 0.0397(3) 0.9239(3) 0.20024(17)
H14 H 0.0891 0.9807 0.2562
H15 H 0.0681 0.8172 0.2054
H16 H -0.0714 0.9339 0.2063
N1C N 0.58970(14) 0.51592(15) -0.09929(10)
Li1C Li -0.0414(3) 0.8587(4) 0.0002(3)
loop_
_geom_bond_atom_site_label_1
_geom_bond_atom_site_label_2
_geom_bond_site_symmetry_1
_geom_bond_site_symmetry_2
Li1 C1 1_555 1_555
C1 C2 1_555 1_555
C2 Li1 1_555 1_555
H1 C2 1_555 1_555
C3 Li1 1_555 1_555
H2 C3 1_555 1_555
C4 Li1 1_555 1_555
H3 C4 1_555 1_555
C5 Li1 1_555 1_555
H4 C5 1_555 1_555
C6 C1 1_555 1_555
C7 C6 1_555 1_555
H5 C7 1_555 1_555
H6 C7 1_555 1_555
H7 C7 1_555 1_555
C8 C6 1_555 1_555
H8 C8 1_555 1_555
H9 C8 1_555 1_555
H10 C8 1_555 1_555
N1 C6 1_555 1_555
C9 N1 1_555 1_555
H11 C9 1_555 1_555
H12 C9 1_555 1_555
H13 C9 1_555 1_555
C10 N1 1_555 1_555
H14 C10 1_555 1_555
H15 C10 1_555 1_555
H16 C10 1_555 1_555
N1C Li1 1_555 1_555
Li1C N1 1_555 1_555
C1 C5 1_555 1_555
C2 C3 1_555 1_555
C3 C4 1_555 1_555
C4 C5 1_555 1_555

#END
