
#######################################################################
#
#                 Cambridge Crystallographic Data Centre
#                                CCDC 
#
#######################################################################
#
# If this CIF has been generated from an entry in the Cambridge 
# Structural Database, then it will include bibliographic, chemical, 
# crystal, experimental, refinement or atomic coordinate data resulting 
# from the CCDC's data processing and validation procedures.
#
#######################################################################

data_IJEBII
_symmetry_cell_setting           triclinic
_symmetry_space_group_name_H-M   'P -1'
_symmetry_Int_Tables_number      2
_space_group_name_Hall           '-P 1'
loop_
_symmetry_equiv_pos_site_id
_symmetry_equiv_pos_as_xyz
1 x,y,z
2 -x,-y,-z
_cell_length_a                   9.0754(6)
_cell_length_b                   9.9729(7)
_cell_length_c                   12.745(2)
_cell_angle_alpha                98.342(9)
_cell_angle_beta                 95.367(9)
_cell_angle_gamma                114.153(5)
_cell_volume                     1026.36
loop_
_atom_site_label
_atom_site_type_symbol
_atom_site_fract_x
_atom_site_fract_y
_atom_site_fract_z
Cu1 Cu -0.5000 -0.5000 0.0000
Cu2 Cu -0.5000 -0.5000 -0.5000
S1 S -0.52723(10) -0.31353(9) -0.73425(7)
O1 O -0.3711(3) -0.1785(3) -0.7023(2)
O2 O -0.6629(3) -0.2785(3) -0.7080(2)
O3 O -0.5549(3) -0.3713(3) -0.8507(2)
O4 O -0.5206(3) -0.4303(2) -0.6775(2)
N1 N -0.2959(3) -0.4939(3) 0.0831(2)
N2 N -0.0833(3) -0.5417(3) 0.1184(3)
N3 N -0.3639(3) -0.3000(3) -0.0363(3)
N4 N -0.2196(4) -0.1328(3) -0.1257(3)
N5 N -0.5193(3) -0.3182(3) -0.4220(2)
N6 N -0.5605(3) -0.1686(3) -0.2976(2)
N7 N -0.7430(3) -0.6107(3) -0.5214(2)
N8 N -0.9910(4) -0.7554(3) -0.5020(3)
C1 C -0.2266(4) -0.5827(4) 0.0541(3)
C2 C 0.0247(5) -0.6163(4) 0.1126(4)
C3 C -0.0596(5) -0.4192(5) 0.1936(4)
C4 C -0.1914(5) -0.3902(4) 0.1711(3)
C5 C -0.3135(4) -0.2787(4) -0.1289(3)
C6 C -0.1426(6) -0.0692(5) -0.2134(4)
C7 C -0.2112(6) -0.0582(5) -0.0255(4)
C8 C -0.2978(5) -0.1601(4) 0.0292(3)
C9 C -0.5731(4) -0.3073(4) -0.3306(3)
C10 C -0.6042(5) -0.1120(5) -0.1993(3)
C11 C -0.4962(4) -0.0861(4) -0.3729(3)
C12 C -0.4725(4) -0.1808(4) -0.4493(3)
C13 C -0.8322(4) -0.7154(4) -0.4731(3)
C14 C -1.1256(6) -0.8692(6) -0.4653(4)
C15 C -1.0050(5) -0.6698(5) -0.5729(4)
C16 C -0.8523(5) -0.5804(4) -0.5853(3)
H1 H -0.2740 -0.6678 -0.0054
H2 H 0.1370 -0.5446 0.1310
H3 H 0.0045 -0.6845 0.1610
H4 H 0.0081 -0.6723 0.0412
H5 H 0.0331 -0.3638 0.2512
H6 H -0.2075 -0.3074 0.2096
H7 H -0.3400 -0.3576 -0.1913
H8 H -0.1583 0.0183 -0.2214
H9 H -0.0263 -0.0400 -0.1993
H10 H -0.1868 -0.1402 -0.2799
H11 H -0.1531 0.0486 0.0005
H12 H -0.3123 -0.1399 0.1033
H13 H -0.6161 -0.3884 -0.2918
H14 H -0.5158 -0.0214 -0.1599
H15 H -0.6328 -0.1842 -0.1541
H16 H -0.6975 -0.0905 -0.2156
H17 H -0.4729 0.0173 -0.3714
H18 H -0.4281 -0.1555 -0.5138
H19 H -0.7879 -0.7588 -0.4225
H20 H -1.1997 -0.9448 -0.5238
H21 H -1.1875 -0.8234 -0.4279
H22 H -1.0860 -0.9149 -0.4160
H23 H -1.1058 -0.6724 -0.6079
H24 H -0.8230 -0.5073 -0.6313
O4A O -0.4794(3) -0.5697(2) -0.3225(2)
S1A S -0.47277(10) -0.68647(9) -0.26575(7)
O1A O -0.6289(3) -0.8215(3) -0.2977(2)
O2A O -0.3371(3) -0.7215(3) -0.2920(2)
O3A O -0.4451(3) -0.6287(3) -0.1493(2)
Cu1_2 Cu -0.5000 -0.5000 -1.0000
O3_2 O -0.5549(3) -0.3713(3) 0.1493(2)
N1A N -0.7041(3) -0.5061(3) -0.0831(2)
C1A C -0.7734(4) -0.4173(4) -0.0541(3)
N2A N -0.9167(3) -0.4583(3) -0.1184(3)
C2A C -1.0247(5) -0.3837(4) -0.1126(4)
H2A H -1.1370 -0.4554 -0.1310
H3A H -1.0045 -0.3155 -0.1610
H4A H -1.0081 -0.3277 -0.0412
C3A C -0.9404(5) -0.5808(5) -0.1936(4)
C4A C -0.8086(5) -0.6098(4) -0.1711(3)
H6A H -0.7925 -0.6926 -0.2096
H5A H -1.0331 -0.6362 -0.2512
H1A H -0.7260 -0.3322 0.0054
N3A N -0.6361(3) -0.7000(3) 0.0363(3)
C5A C -0.6865(4) -0.7213(4) 0.1289(3)
N4A N -0.7804(4) -0.8672(3) 0.1257(3)
C6A C -0.8574(6) -0.9308(5) 0.2134(4)
H8A H -0.8417 -1.0183 0.2214
H9A H -0.9737 -0.9600 0.1993
H10A H -0.8132 -0.8598 0.2799
C7A C -0.7888(6) -0.9418(5) 0.0255(4)
C8A C -0.7022(5) -0.8399(4) -0.0292(3)
H12A H -0.6877 -0.8601 -0.1033
H11A H -0.8469 -1.0486 -0.0005
H7A H -0.6600 -0.6424 0.1913
N5A N -0.4807(3) -0.6818(3) -0.5780(2)
C9A C -0.4269(4) -0.6927(4) -0.6694(3)
N6A N -0.4395(3) -0.8314(3) -0.7024(2)
C10A C -0.3958(5) -0.8880(5) -0.8007(3)
H14A H -0.4842 -0.9786 -0.8401
H15A H -0.3672 -0.8158 -0.8459
H16A H -0.3025 -0.9095 -0.7844
C11A C -0.5038(4) -0.9139(4) -0.6271(3)
C12A C -0.5275(4) -0.8192(4) -0.5507(3)
H18A H -0.5719 -0.8445 -0.4862
H17A H -0.5271 -1.0173 -0.6286
H13A H -0.3839 -0.6116 -0.7082
N7A N -0.2570(3) -0.3893(3) -0.4786(2)
C13A C -0.1678(4) -0.2846(4) -0.5269(3)
N8A N -0.0090(4) -0.2446(3) -0.4980(3)
C14A C 0.1256(6) -0.1308(6) -0.5347(4)
H20A H 0.1997 -0.0552 -0.4762
H21A H 0.1875 -0.1766 -0.5721
H22A H 0.0860 -0.0851 -0.5840
C15A C 0.0050(5) -0.3302(5) -0.4271(4)
C16A C -0.1477(5) -0.4196(4) -0.4147(3)
H24A H -0.1770 -0.4927 -0.3687
H23A H 0.1058 -0.3276 -0.3921
H19A H -0.2121 -0.2412 -0.5775
loop_
_geom_bond_atom_site_label_1
_geom_bond_atom_site_label_2
_geom_bond_site_symmetry_1
_geom_bond_site_symmetry_2
Cu1 N1 1_555 1_555
Cu2 O4 1_555 1_555
S1 O1 1_555 1_555
O2 S1 1_555 1_555
O3 S1 1_555 1_555
O4 S1 1_555 1_555
N1 C1 1_555 1_555
N2 C1 1_555 1_555
N3 Cu1 1_555 1_555
N4 C5 1_555 1_555
N5 Cu2 1_555 1_555
N6 C9 1_555 1_555
N7 Cu2 1_555 1_555
N8 C13 1_555 1_555
C1 H1 1_555 1_555
C2 N2 1_555 1_555
C3 N2 1_555 1_555
C4 N1 1_555 1_555
C5 N3 1_555 1_555
C6 N4 1_555 1_555
C7 N4 1_555 1_555
C8 N3 1_555 1_555
C9 N5 1_555 1_555
C10 N6 1_555 1_555
C11 N6 1_555 1_555
C12 N5 1_555 1_555
C13 N7 1_555 1_555
C14 N8 1_555 1_555
C15 N8 1_555 1_555
C16 N7 1_555 1_555
H2 C2 1_555 1_555
H3 C2 1_555 1_555
H4 C2 1_555 1_555
H5 C3 1_555 1_555
H6 C4 1_555 1_555
H7 C5 1_555 1_555
H8 C6 1_555 1_555
H9 C6 1_555 1_555
H10 C6 1_555 1_555
H11 C7 1_555 1_555
H12 C8 1_555 1_555
H13 C9 1_555 1_555
H14 C10 1_555 1_555
H15 C10 1_555 1_555
H16 C10 1_555 1_555
H17 C11 1_555 1_555
H18 C12 1_555 1_555
H19 C13 1_555 1_555
H20 C14 1_555 1_555
H21 C14 1_555 1_555
H22 C14 1_555 1_555
H23 C15 1_555 1_555
H24 C16 1_555 1_555
O4A Cu2 1_555 1_555
S1A O4A 1_555 1_555
O1A S1A 1_555 1_555
O2A S1A 1_555 1_555
O3A Cu1 1_555 1_555
Cu1_2 O3 1_555 1_555
O3_2 Cu1 1_555 1_555
N1A Cu1 1_555 1_555
C1A N1A 1_555 1_555
N2A C1A 1_555 1_555
C2A N2A 1_555 1_555
H2A C2A 1_555 1_555
H3A C2A 1_555 1_555
H4A C2A 1_555 1_555
C3A N2A 1_555 1_555
C4A N1A 1_555 1_555
H6A C4A 1_555 1_555
H5A C3A 1_555 1_555
H1A C1A 1_555 1_555
N3A Cu1 1_555 1_555
C5A N3A 1_555 1_555
N4A C5A 1_555 1_555
C6A N4A 1_555 1_555
H8A C6A 1_555 1_555
H9A C6A 1_555 1_555
H10A C6A 1_555 1_555
C7A N4A 1_555 1_555
C8A N3A 1_555 1_555
H12A C8A 1_555 1_555
H11A C7A 1_555 1_555
H7A C5A 1_555 1_555
N5A Cu2 1_555 1_555
C9A N5A 1_555 1_555
N6A C9A 1_555 1_555
C10A N6A 1_555 1_555
H14A C10A 1_555 1_555
H15A C10A 1_555 1_555
H16A C10A 1_555 1_555
C11A N6A 1_555 1_555
C12A N5A 1_555 1_555
H18A C12A 1_555 1_555
H17A C11A 1_555 1_555
H13A C9A 1_555 1_555
N7A Cu2 1_555 1_555
C13A N7A 1_555 1_555
N8A C13A 1_555 1_555
C14A N8A 1_555 1_555
H20A C14A 1_555 1_555
H21A C14A 1_555 1_555
H22A C14A 1_555 1_555
C15A N8A 1_555 1_555
C16A N7A 1_555 1_555
H24A C16A 1_555 1_555
H23A C15A 1_555 1_555
H19A C13A 1_555 1_555
C3 C4 1_555 1_555
C7 C8 1_555 1_555
C11 C12 1_555 1_555
C15 C16 1_555 1_555
S1A O3A 1_555 1_555
C3A C4A 1_555 1_555
C7A C8A 1_555 1_555
C11A C12A 1_555 1_555
C15A C16A 1_555 1_555

#END
