
#######################################################################
#
#                 Cambridge Crystallographic Data Centre
#                                CCDC 
#
#######################################################################
#
# If this CIF has been generated from an entry in the Cambridge 
# Structural Database, then it will include bibliographic, chemical, 
# crystal, experimental, refinement or atomic coordinate data resulting 
# from the CCDC's data processing and validation procedures.
#
#######################################################################

data_IJECIK
_symmetry_cell_setting           monoclinic
_symmetry_space_group_name_H-M   'P 21/c'
_symmetry_Int_Tables_number      14
_space_group_name_Hall           '-P 2ybc'
loop_
_symmetry_equiv_pos_site_id
_symmetry_equiv_pos_as_xyz
1 x,y,z
2 -x,1/2+y,1/2-z
3 -x,-y,-z
4 x,1/2-y,1/2+z
_cell_length_a                   10.2262(14)
_cell_length_b                   14.248(2)
_cell_length_c                   14.761(2)
_cell_angle_alpha                90
_cell_angle_beta                 102.849(2)
_cell_angle_gamma                90
_cell_volume                     2096.87
loop_
_atom_site_label
_atom_site_type_symbol
_atom_site_fract_x
_atom_site_fract_y
_atom_site_fract_z
C1 C 0.2662(4) -0.5745(3) 0.2174(3)
H1 H 0.2207 -0.6222 0.2404
C2 C 0.3102(5) -0.4956(3) 0.2627(3)
H2 H 0.3021 -0.4787 0.3221
C3 C 0.3612(3) -0.4946(3) 0.1272(3)
H3 H 0.3953 -0.4759 0.0767
C4 C 0.4305(4) -0.3515(3) 0.2222(4)
H4 H 0.4940 -0.3526 0.2818
H5 H 0.4803 -0.3381 0.1750
C5 C 0.2263(4) 0.1713(3) 0.3277(3)
H6 H 0.2717 0.2280 0.3290
C6 C 0.1819(5) 0.1184(3) 0.2511(3)
H7 H 0.1901 0.1313 0.1909
C7 C 0.1320(4) 0.0505(3) 0.3715(3)
H8 H 0.0988 0.0071 0.4077
C8 C 0.0663(5) -0.0388(3) 0.2241(4)
H9 H 0.0351 -0.0182 0.1603
H10 H -0.0109 -0.0615 0.2456
C9 C 0.1630(4) -0.1191(3) 0.2259(3)
C10 C 0.1118(5) -0.2066(3) 0.1987(3)
H11 H 0.0194 -0.2146 0.1810
C11 C 0.1945(4) -0.2822(3) 0.1971(3)
H12 H 0.1573 -0.3405 0.1782
C12 C 0.3320(4) -0.2730(3) 0.2231(3)
C13 C 0.3828(4) -0.1851(3) 0.2500(3)
H13 H 0.4752 -0.1767 0.2673
C14 C 0.2995(4) -0.1092(3) 0.2518(3)
H14 H 0.3363 -0.0509 0.2709
C15 C -0.0038(4) 0.2080(3) 0.5515(3)
C16 C -0.1305(3) 0.2645(2) 0.5411(2)
C17 C -0.2509(3) 0.2190(3) 0.5392(2)
H15 H -0.2511 0.1545 0.5490
C18 C -0.3714(3) 0.2680(2) 0.5227(3)
C19 C -0.3709(3) 0.3634(3) 0.5055(3)
H16 H -0.4514 0.3965 0.4919
C20 C -0.2512(3) 0.4100(3) 0.5085(3)
C21 C -0.1309(3) 0.3606(3) 0.5270(3)
H17 H -0.0505 0.3922 0.5300
C22 C -0.2496(4) 0.5117(3) 0.4934(4)
C23 C -0.4989(3) 0.2149(3) 0.5219(3)
N1 N 0.2979(3) -0.5745(2) 0.1321(2)
N2 N 0.3697(3) -0.4443(2) 0.2045(2)
N3 N 0.1944(3) 0.1286(2) 0.4035(2)
N4 N 0.1226(3) 0.0418(2) 0.2807(3)
O1 O -0.1526(3) 0.5597(2) 0.5254(3)
O2 O -0.5031(3) 0.12987(18) 0.5094(2)
O3 O -0.6008(2) 0.26268(17) 0.5361(2)
O4 O -0.3595(3) 0.5490(2) 0.4471(3)
H18 H -0.3492 0.6057 0.4421
O5 O -0.0103(3) 0.1225(2) 0.5465(3)
O6 O 0.1057(2) 0.25383(18) 0.5614(2)
Zn1 Zn 0.24791(4) 0.17239(3) 0.53426(3)
N1C N 0.2979(3) 0.0745(2) 0.6321(2)
O3_2 O 0.3992(2) 0.26268(17) 0.5361(2)
Zn1_2 Zn -0.75209(4) 0.17239(3) 0.53426(3)
Zn1C Zn 0.24791(4) -0.67239(3) 0.03426(3)
loop_
_geom_bond_atom_site_label_1
_geom_bond_atom_site_label_2
_geom_bond_site_symmetry_1
_geom_bond_site_symmetry_2
C1 H1 1_555 1_555
C2 C1 1_555 1_555
H2 C2 1_555 1_555
C3 H3 1_555 1_555
C4 H4 1_555 1_555
H5 C4 1_555 1_555
C5 H6 1_555 1_555
C6 C5 1_555 1_555
H7 C6 1_555 1_555
C7 H8 1_555 1_555
C8 H9 1_555 1_555
H10 C8 1_555 1_555
C9 C8 1_555 1_555
C10 C9 1_555 1_555
H11 C10 1_555 1_555
C11 C10 1_555 1_555
H12 C11 1_555 1_555
C12 C4 1_555 1_555
C13 C12 1_555 1_555
H13 C13 1_555 1_555
C14 C9 1_555 1_555
H14 C14 1_555 1_555
C15 C16 1_555 1_555
C16 C17 1_555 1_555
C17 H15 1_555 1_555
C18 C17 1_555 1_555
C19 C18 1_555 1_555
H16 C19 1_555 1_555
C20 C19 1_555 1_555
C21 C16 1_555 1_555
H17 C21 1_555 1_555
C22 C20 1_555 1_555
C23 C18 1_555 1_555
N1 C1 1_555 1_555
N2 C2 1_555 1_555
N3 C5 1_555 1_555
N4 C6 1_555 1_555
O1 C22 1_555 1_555
O2 C23 1_555 1_555
O3 C23 1_555 1_555
O4 C22 1_555 1_555
H18 O4 1_555 1_555
O5 C15 1_555 1_555
O6 C15 1_555 1_555
Zn1 N3 1_555 1_555
N1C Zn1 1_555 1_555
O3_2 Zn1 1_555 1_555
Zn1_2 O3 1_555 1_555
Zn1C N1 1_555 1_555
C3 N1 1_555 1_555
C3 N2 1_555 1_555
C4 N2 1_555 1_555
C7 N3 1_555 1_555
C7 N4 1_555 1_555
C8 N4 1_555 1_555
C11 C12 1_555 1_555
C13 C14 1_555 1_555
C20 C21 1_555 1_555
O6 Zn1 1_555 1_555

#END
