
#######################################################################
#
#                 Cambridge Crystallographic Data Centre
#                                CCDC 
#
#######################################################################
#
# If this CIF has been generated from an entry in the Cambridge 
# Structural Database, then it will include bibliographic, chemical, 
# crystal, experimental, refinement or atomic coordinate data resulting 
# from the CCDC's data processing and validation procedures.
#
#######################################################################

data_IJECUW
_symmetry_cell_setting           monoclinic
_symmetry_space_group_name_H-M   'C 2/c'
_symmetry_Int_Tables_number      15
_space_group_name_Hall           '-C 2yn'
loop_
_symmetry_equiv_pos_site_id
_symmetry_equiv_pos_as_xyz
1 x,y,z
2 -x,y,1/2-z
3 1/2+x,1/2+y,z
4 1/2-x,1/2+y,1/2-z
5 -x,-y,-z
6 x,-y,1/2+z
7 1/2-x,1/2-y,-z
8 1/2+x,1/2-y,1/2+z
_cell_length_a                   8.444(5)
_cell_length_b                   9.314(5)
_cell_length_c                   18.782(11)
_cell_angle_alpha                90
_cell_angle_beta                 95.106(7)
_cell_angle_gamma                90
_cell_volume                     1471.29
loop_
_atom_site_label
_atom_site_type_symbol
_atom_site_fract_x
_atom_site_fract_y
_atom_site_fract_z
Fe1 Fe 1.0000 0.54213(11) 0.2500
Fe2 Fe 0.7500 0.2500 0.0000
N1 N 1.0882(6) 0.0707(5) 0.1636(2)
H1 H 1.1432 0.0074 0.1882
N2 N 0.9158(5) 0.1639(5) 0.0827(2)
C1 C 1.2155(6) 0.2777(6) 0.2291(3)
C2 C 1.0981(6) 0.2162(6) 0.1733(3)
C3 C 0.9438(6) 0.4241(6) 0.1004(3)
C4 C 0.9901(6) 0.2753(6) 0.1223(3)
C5 C 0.9781(7) 0.0435(6) 0.1089(3)
O1 O 1.1934(4) 0.4017(4) 0.2518(2)
O2 O 0.9935(5) 0.5301(4) 0.1377(2)
O3 O 0.8559(5) 0.4351(4) 0.0428(2)
C6 C 0.9363(10) -0.1077(9) 0.0810(5)
H2 H 0.8872 -0.0987 0.0325
H3 H 0.8568 -0.1471 0.1097
O4 O 1.0726(5) -0.2174(5) 0.0804(2)
O5 O 1.3298(5) 0.2032(5) 0.2519(3)
Fe1B Fe 0.5000 0.04213(11) 0.2500
Fe1B_2 Fe 1.5000 0.04213(11) 0.2500
Fe2B Fe 1.2500 -0.2500 0.0000
Fe2C Fe 0.7500 -0.2500 0.5000
Fe2A Fe 1.2500 0.2500 0.5000
N1A N 0.9118(6) 0.0707(5) 0.3364(2)
H1A H 0.8568 0.0074 0.3118
N2A N 1.0842(5) 0.1639(5) 0.4173(2)
N2F N 0.5842(5) 0.3361(5) -0.0827(2)
C1A C 0.7845(6) 0.2777(6) 0.2709(3)
C2A C 0.9019(6) 0.2162(6) 0.3267(3)
C3A C 1.0562(6) 0.4241(6) 0.3996(3)
C4A C 1.0099(6) 0.2753(6) 0.3777(3)
C5A C 1.0219(7) 0.0435(6) 0.3911(3)
O1A O 0.8066(4) 0.4017(4) 0.2482(2)
O2A O 1.0065(5) 0.5301(4) 0.3623(2)
O3A O 1.1441(5) 0.4351(4) 0.4572(2)
O3F O 0.6441(5) 0.0649(4) -0.0428(2)
C6A C 1.0637(10) -0.1077(9) 0.4190(5)
H2A H 1.1128 -0.0987 0.4675
H3A H 1.1432 -0.1471 0.3903
O4A O 0.9274(5) -0.2174(5) 0.4196(2)
O4B O 0.5726(5) 0.2826(5) 0.0804(2)
O4D O 0.9274(5) 0.2174(5) -0.0804(2)
O5A O 0.6702(5) 0.2032(5) 0.2481(3)
O5B O 0.8298(5) 0.7032(5) 0.2519(3)
O5C O 1.1702(5) 0.7032(5) 0.2481(3)
loop_
_geom_bond_atom_site_label_1
_geom_bond_atom_site_label_2
_geom_bond_site_symmetry_1
_geom_bond_site_symmetry_2
Fe1 O1 1_555 1_555
Fe2 N2 1_555 1_555
N1 H1 1_555 1_555
N2 C4 1_555 1_555
C1 C2 1_555 1_555
C2 N1 1_555 1_555
C3 C4 1_555 1_555
C4 C2 1_555 1_555
C5 N1 1_555 1_555
O1 C1 1_555 1_555
O2 Fe1 1_555 1_555
O3 Fe2 1_555 1_555
C6 C5 1_555 1_555
H2 C6 1_555 1_555
H3 C6 1_555 1_555
O4 C6 1_555 1_555
O5 C1 1_555 1_555
Fe1B O5A 1_555 1_555
Fe1B_2 O5 1_555 1_555
Fe2B O4 1_555 1_555
Fe2C O4A 1_555 1_555
Fe2A N2A 1_555 1_555
N1A H1A 1_555 1_555
N2A C4A 1_555 1_555
N2F Fe2 1_555 1_555
C1A C2A 1_555 1_555
C2A N1A 1_555 1_555
C3A C4A 1_555 1_555
C4A C2A 1_555 1_555
C5A N1A 1_555 1_555
O1A Fe1 1_555 1_555
O2A Fe1 1_555 1_555
O3A Fe2A 1_555 1_555
O3F Fe2 1_555 1_555
C6A C5A 1_555 1_555
H2A C6A 1_555 1_555
H3A C6A 1_555 1_555
O4A C6A 1_555 1_555
O4B Fe2 1_555 1_555
O4D Fe2 1_555 1_555
O5A C1A 1_555 1_555
O5B Fe1 1_555 1_555
O5C Fe1 1_555 1_555
N2 C5 1_555 1_555
C3 O2 1_555 1_555
C3 O3 1_555 1_555
N2A C5A 1_555 1_555
C1A O1A 1_555 1_555
C3A O2A 1_555 1_555
C3A O3A 1_555 1_555

#END
