
#######################################################################
#
#                 Cambridge Crystallographic Data Centre
#                                CCDC 
#
#######################################################################
#
# If this CIF has been generated from an entry in the Cambridge 
# Structural Database, then it will include bibliographic, chemical, 
# crystal, experimental, refinement or atomic coordinate data resulting 
# from the CCDC's data processing and validation procedures.
#
#######################################################################

data_IJECEG
_symmetry_cell_setting           triclinic
_symmetry_space_group_name_H-M   'P -1'
_symmetry_Int_Tables_number      2
_space_group_name_Hall           '-P 1'
loop_
_symmetry_equiv_pos_site_id
_symmetry_equiv_pos_as_xyz
1 x,y,z
2 -x,-y,-z
_cell_length_a                   10.7532(19)
_cell_length_b                   12.380(2)
_cell_length_c                   12.823(2)
_cell_angle_alpha                66.004(3)
_cell_angle_beta                 78.439(4)
_cell_angle_gamma                82.324(4)
_cell_volume                     1525.3
loop_
_atom_site_label
_atom_site_type_symbol
_atom_site_fract_x
_atom_site_fract_y
_atom_site_fract_z
C1 C 0.5019(5) -0.2457(5) -0.2900(5)
C2 C 0.5081(5) -0.3767(5) -0.2639(5)
C3 C 0.5124(5) -0.4198(5) -0.3475(5)
H1 H 0.5099 -0.3664 -0.4233
C4 C 0.5202(5) -0.5372(5) -0.3244(4)
H2 H 0.5228 -0.5618 -0.3844
C5 C 0.5246(5) -0.6218(4) -0.2135(4)
C6 C 0.5187(7) -0.5796(5) -0.1283(5)
H3 H 0.5214 -0.6331 -0.0526
C7 C 0.5090(6) -0.4594(5) -0.1529(5)
H4 H 0.5030 -0.4340 -0.0930
C8 C 0.5334(5) -0.7517(5) -0.1872(5)
C9 C -0.2919(6) 0.8438(5) -0.0678(5)
H5 H -0.3537 0.8100 -0.0844
C10 C -0.1090(6) 0.8771(5) -0.0441(5)
H6 H -0.0230 0.8736 -0.0405
C11 C -0.1998(6) 0.9514(5) -0.0194(5)
H7 H -0.1864 1.0096 0.0049
C12 C -0.1111(6) 0.7129(6) -0.1085(5)
C13 C -0.1870(6) 0.6470(7) -0.1282(6)
H8 H -0.2746 0.6631 -0.1198
C14 C -0.1326(6) 0.5540(6) -0.1615(6)
H9 H -0.1858 0.5106 -0.1766
C15 C -0.0062(6) 0.5247(6) -0.1727(5)
C16 C 0.0634(7) 0.5964(7) -0.1572(8)
H10 H 0.1510 0.5808 -0.1650
C17 C 0.0138(7) 0.6929(7) -0.1301(8)
H11 H 0.0682 0.7437 -0.1271
C18 C 0.3138(5) -0.1344(5) -0.5455(5)
H12 H 0.3636 -0.2033 -0.5135
C19 C 0.2520(6) 0.0441(5) -0.6170(5)
H13 H 0.2507 0.1263 -0.6453
C20 C 0.1572(6) -0.0168(6) -0.6139(6)
H14 H 0.0796 0.0140 -0.6386
C21 C 0.1363(5) -0.2360(5) -0.5489(5)
C22 C 0.2065(6) -0.3242(6) -0.5767(6)
H15 H 0.2917 -0.3141 -0.6096
C23 C 0.1547(6) -0.4254(6) -0.5575(6)
H16 H 0.2051 -0.4835 -0.5772
C24 C 0.0287(5) -0.4450(5) -0.5092(5)
C25 C -0.0407(6) -0.3542(6) -0.4835(5)
H17 H -0.1267 -0.3626 -0.4537
C26 C 0.0109(6) -0.2533(5) -0.4998(5)
H18 H -0.0383 -0.1960 -0.4778
C27 C 0.2451(6) -0.0249(6) -0.3206(5)
H19 H 0.2363 -0.1018 -0.3126
C28 C 0.1626(6) 0.0352(5) -0.2686(5)
H20 H 0.0874 0.0080 -0.2190
C29 C 0.3182(5) 0.1432(5) -0.3740(4)
H21 H 0.3696 0.2073 -0.4106
C30 C 0.1528(5) 0.2365(5) -0.2662(5)
C31 C 0.0250(5) 0.2422(5) -0.2235(5)
H22 H -0.0270 0.1846 -0.2165
C32 C -0.0240(6) 0.3337(5) -0.1916(5)
H23 H -0.1101 0.3361 -0.1616
C33 C 0.0471(6) 0.4226(5) -0.2015(5)
C34 C 0.1771(6) 0.4133(6) -0.2434(6)
H24 H 0.2296 0.4706 -0.2505
C35 C 0.2276(6) 0.3207(6) -0.2740(6)
H25 H 0.3144 0.3153 -0.3004
Co1 Co 0.5000 0.0000 -0.5000
Co2 Co 0.5000 1.0000 -1.0000
N1 N 0.3508(4) -0.0301(4) -0.5732(4)
N2 N 0.1971(4) -0.1342(4) -0.5671(4)
N3 N 0.3432(4) 0.0420(4) -0.3867(4)
N4 N 0.2077(4) 0.1422(4) -0.3007(4)
N5 N -0.3155(4) 0.9307(4) -0.0348(4)
N6 N -0.1682(4) 0.8070(4) -0.0757(4)
O1 O 0.5030(3) -0.1797(3) -0.3955(3)
O2 O 0.4953(4) -0.2142(3) -0.2099(3)
O3 O 0.5519(3) -0.8217(3) -0.0868(3)
O4 O 0.5192(4) -0.7824(3) -0.2651(3)
O5 O 0.4574(3) 0.9921(3) -1.1514(3)
H26 H 0.4707 1.0603 -1.2045
H27 H 0.5070 0.9439 -1.1744
C1A C 0.4981(5) 0.2457(5) -0.7100(5)
C2A C 0.4919(5) 0.3767(5) -0.7361(5)
C3A C 0.4876(5) 0.4198(5) -0.6525(5)
H1A H 0.4901 0.3664 -0.5767
C4A C 0.4798(5) 0.5372(5) -0.6756(4)
H2A H 0.4772 0.5618 -0.6156
C5A C 0.4754(5) 0.6218(4) -0.7865(4)
C6A C 0.4813(7) 0.5796(5) -0.8717(5)
H3A H 0.4786 0.6331 -0.9474
C7A C 0.4910(6) 0.4594(5) -0.8471(5)
H4A H 0.4970 0.4340 -0.9070
C8A C 0.4666(5) 0.7517(5) -0.8128(5)
C9_2 C 0.7081(6) 0.8438(5) -1.0678(5)
H5_2 H 0.6463 0.8100 -1.0844
C10_2 C 0.8910(6) 0.8771(5) -1.0441(5)
H6_2 H 0.9770 0.8736 -1.0405
C11_2 C 0.8002(6) 0.9514(5) -1.0194(5)
H7_2 H 0.8136 1.0096 -0.9951
C12_2 C 0.8889(6) 0.7129(6) -1.1085(5)
C13_2 C 0.8130(6) 0.6470(7) -1.1282(6)
H8_2 H 0.7254 0.6631 -1.1198
C14_2 C 0.8674(6) 0.5540(6) -1.1615(6)
H9_2 H 0.8142 0.5106 -1.1766
C15_2 C 0.9938(6) 0.5247(6) -1.1727(5)
C16_2 C 1.0634(7) 0.5964(7) -1.1572(8)
H10_2 H 1.1510 0.5808 -1.1650
C17_2 C 1.0138(7) 0.6929(7) -1.1301(8)
H11_2 H 1.0682 0.7437 -1.1271
C18A C -0.3138(5) -0.8656(5) -0.4545(5)
H12A H -0.3636 -0.7967 -0.4865
C19A C -0.2520(6) -1.0441(5) -0.3830(5)
H13A H -0.2507 -1.1263 -0.3547
C20A C -0.1572(6) -0.9832(6) -0.3861(6)
H14A H -0.0796 -1.0140 -0.3614
C21A C -0.1363(5) -0.7640(5) -0.4511(5)
C22A C -0.2065(6) -0.6758(6) -0.4233(6)
H15A H -0.2917 -0.6859 -0.3904
C23A C -0.1547(6) -0.5746(6) -0.4425(6)
H16A H -0.2051 -0.5165 -0.4228
C24A C -0.0287(5) -0.5550(5) -0.4908(5)
C25A C 0.0407(6) -0.6458(6) -0.5165(5)
H17A H 0.1267 -0.6374 -0.5463
C26A C -0.0109(6) -0.7467(5) -0.5002(5)
H18A H 0.0383 -0.8040 -0.5222
C27_2 C 1.2451(6) -0.0249(6) -1.3206(5)
H19_2 H 1.2363 -0.1018 -1.3126
C28_2 C 1.1626(6) 0.0352(5) -1.2686(5)
H20_2 H 1.0874 0.0080 -1.2190
C29_2 C 1.3182(5) 0.1432(5) -1.3740(4)
H21_2 H 1.3696 0.2073 -1.4106
C30_2 C 1.1528(5) 0.2365(5) -1.2662(5)
C31_2 C 1.0250(5) 0.2422(5) -1.2235(5)
H22_2 H 0.9730 0.1846 -1.2165
C32_2 C 0.9760(6) 0.3337(5) -1.1916(5)
H23_2 H 0.8899 0.3361 -1.1616
C33_2 C 1.0471(6) 0.4226(5) -1.2015(5)
C34_2 C 1.1771(6) 0.4133(6) -1.2434(6)
H24_2 H 1.2296 0.4706 -1.2505
C35_2 C 1.2276(6) 0.3207(6) -1.2740(6)
H25_2 H 1.3144 0.3153 -1.3004
Co1_2 Co -0.5000 -1.0000 -0.5000
Co1_3 Co 1.5000 0.0000 -1.5000
Co2_2 Co 0.5000 -1.0000 0.0000
Co2_3 Co -0.5000 1.0000 0.0000
N1A N -0.3508(4) -0.9699(4) -0.4268(4)
N1A_2 N 0.6492(4) 0.0301(4) -0.4268(4)
N2A N -0.1971(4) -0.8658(4) -0.4329(4)
N3A N 0.6568(4) -0.0420(4) -0.6133(4)
N3_2 N 1.3432(4) 0.0420(4) -1.3867(4)
N4_2 N 1.2077(4) 0.1422(4) -1.3007(4)
N5_2 N 0.6845(4) 0.9307(4) -1.0348(4)
N5A N 0.3155(4) 1.0693(4) -0.9652(4)
N6_2 N 0.8318(4) 0.8070(4) -1.0757(4)
O1A O 0.4970(3) 0.1797(3) -0.6045(3)
O2A O 0.5047(4) 0.2142(3) -0.7901(3)
O3A O 0.4481(3) 0.8217(3) -0.9132(3)
O3_2 O 0.5519(3) 1.1783(3) -1.0868(3)
O4A O 0.4808(4) 0.7824(3) -0.7349(3)
O5A O 0.5426(3) 1.0079(3) -0.8486(3)
H26A H 0.5293 0.9397 -0.7955
H27A H 0.4930 1.0561 -0.8256
O6 O 0.7405(4) 0.2195(5) -0.9700(4)
H28 H 0.6751 0.2184 -0.9198
H29 H 0.7229 0.1939 -1.0173
loop_
_geom_bond_atom_site_label_1
_geom_bond_atom_site_label_2
_geom_bond_site_symmetry_1
_geom_bond_site_symmetry_2
C1 C2 1_555 1_555
C2 C3 1_555 1_555
C3 H1 1_555 1_555
C4 C3 1_555 1_555
H2 C4 1_555 1_555
C5 C4 1_555 1_555
C6 C5 1_555 1_555
H3 C6 1_555 1_555
C7 C2 1_555 1_555
H4 C7 1_555 1_555
C8 C5 1_555 1_555
C9 H5 1_555 1_555
C10 H6 1_555 1_555
C11 C10 1_555 1_555
H7 C11 1_555 1_555
C12 C13 1_555 1_555
C13 H8 1_555 1_555
C14 C13 1_555 1_555
H9 C14 1_555 1_555
C15 C14 1_555 1_555
C16 C15 1_555 1_555
H10 C16 1_555 1_555
C17 C12 1_555 1_555
H11 C17 1_555 1_555
C18 H12 1_555 1_555
C19 H13 1_555 1_555
C20 C19 1_555 1_555
H14 C20 1_555 1_555
C21 C22 1_555 1_555
C22 H15 1_555 1_555
C23 C22 1_555 1_555
H16 C23 1_555 1_555
C24 C23 1_555 1_555
C25 C24 1_555 1_555
H17 C25 1_555 1_555
C26 C21 1_555 1_555
H18 C26 1_555 1_555
C27 H19 1_555 1_555
C28 C27 1_555 1_555
H20 C28 1_555 1_555
C29 H21 1_555 1_555
C30 C31 1_555 1_555
C31 H22 1_555 1_555
C32 C31 1_555 1_555
H23 C32 1_555 1_555
C33 C15 1_555 1_555
C34 C33 1_555 1_555
H24 C34 1_555 1_555
C35 C30 1_555 1_555
H25 C35 1_555 1_555
Co1 N1 1_555 1_555
Co2 O5 1_555 1_555
N1 C18 1_555 1_555
N2 C18 1_555 1_555
N3 C27 1_555 1_555
N4 C28 1_555 1_555
N5 C9 1_555 1_555
N6 C9 1_555 1_555
O1 C1 1_555 1_555
O2 C1 1_555 1_555
O3 C8 1_555 1_555
O4 C8 1_555 1_555
O5 H26 1_555 1_555
H27 O5 1_555 1_555
O6 H28 1_555 1_555
H29 O6 1_555 1_555
C1A C2A 1_555 1_555
C2A C3A 1_555 1_555
C3A H1A 1_555 1_555
C4A C3A 1_555 1_555
H2A C4A 1_555 1_555
C5A C4A 1_555 1_555
C6A C5A 1_555 1_555
H3A C6A 1_555 1_555
C7A C2A 1_555 1_555
H4A C7A 1_555 1_555
C8A C5A 1_555 1_555
C9_2 H5_2 1_555 1_555
C10_2 H6_2 1_555 1_555
C11_2 C10_2 1_555 1_555
H7_2 C11_2 1_555 1_555
C12_2 C13_2 1_555 1_555
C13_2 H8_2 1_555 1_555
C14_2 C13_2 1_555 1_555
H9_2 C14_2 1_555 1_555
C15_2 C14_2 1_555 1_555
C16_2 C15_2 1_555 1_555
H10_2 C16_2 1_555 1_555
C17_2 C12_2 1_555 1_555
H11_2 C17_2 1_555 1_555
C18A H12A 1_555 1_555
C19A H13A 1_555 1_555
C20A C19A 1_555 1_555
H14A C20A 1_555 1_555
C21A C22A 1_555 1_555
C22A H15A 1_555 1_555
C23A C22A 1_555 1_555
H16A C23A 1_555 1_555
C24A C24 1_555 1_555
C25A C24A 1_555 1_555
H17A C25A 1_555 1_555
C26A C21A 1_555 1_555
H18A C26A 1_555 1_555
C27_2 H19_2 1_555 1_555
C28_2 C27_2 1_555 1_555
H20_2 C28_2 1_555 1_555
C29_2 H21_2 1_555 1_555
C30_2 C31_2 1_555 1_555
C31_2 H22_2 1_555 1_555
C32_2 C31_2 1_555 1_555
H23_2 C32_2 1_555 1_555
C33_2 C15_2 1_555 1_555
C34_2 C33_2 1_555 1_555
H24_2 C34_2 1_555 1_555
C35_2 C30_2 1_555 1_555
H25_2 C35_2 1_555 1_555
Co1_2 N1A 1_555 1_555
Co1_3 N3_2 1_555 1_555
Co2_2 O3 1_555 1_555
Co2_3 N5 1_555 1_555
N1A C18A 1_555 1_555
N1A_2 Co1 1_555 1_555
N2A C18A 1_555 1_555
N3A Co1 1_555 1_555
N3_2 C27_2 1_555 1_555
N4_2 C28_2 1_555 1_555
N5_2 Co2 1_555 1_555
N5A Co2 1_555 1_555
N6_2 C9_2 1_555 1_555
O1A Co1 1_555 1_555
O2A C1A 1_555 1_555
O3A Co2 1_555 1_555
O3_2 Co2 1_555 1_555
O4A C8A 1_555 1_555
O5A Co2 1_555 1_555
H26A O5A 1_555 1_555
H27A O5A 1_555 1_555
C6 C7 1_555 1_555
C10 N6 1_555 1_555
C11 N5 1_555 1_555
C12 N6 1_555 1_555
C16 C17 1_555 1_555
C19 N1 1_555 1_555
C20 N2 1_555 1_555
C21 N2 1_555 1_555
C25 C26 1_555 1_555
C29 N3 1_555 1_555
C29 N4 1_555 1_555
C30 N4 1_555 1_555
C32 C33 1_555 1_555
C34 C35 1_555 1_555
Co1 N3 1_555 1_555
Co1 O1 1_555 1_555
C1A O1A 1_555 1_555
C6A C7A 1_555 1_555
C8A O3A 1_555 1_555
C9_2 N5_2 1_555 1_555
C10_2 N6_2 1_555 1_555
C11_2 N5_2 1_555 1_555
C12_2 N6_2 1_555 1_555
C16_2 C17_2 1_555 1_555
C19A N1A 1_555 1_555
C20A N2A 1_555 1_555
C21A N2A 1_555 1_555
C23A C24A 1_555 1_555
C25A C26A 1_555 1_555
C29_2 N3_2 1_555 1_555
C29_2 N4_2 1_555 1_555
C30_2 N4_2 1_555 1_555
C32_2 C33_2 1_555 1_555
C34_2 C35_2 1_555 1_555

#END
