
#######################################################################
#
#                 Cambridge Crystallographic Data Centre
#                                CCDC 
#
#######################################################################
#
# If this CIF has been generated from an entry in the Cambridge 
# Structural Database, then it will include bibliographic, chemical, 
# crystal, experimental, refinement or atomic coordinate data resulting 
# from the CCDC's data processing and validation procedures.
#
#######################################################################

data_IJEFUZ
_symmetry_cell_setting           monoclinic
_symmetry_space_group_name_H-M   'C 2/c'
_symmetry_Int_Tables_number      15
_space_group_name_Hall           '-C 2yn'
loop_
_symmetry_equiv_pos_site_id
_symmetry_equiv_pos_as_xyz
1 x,y,z
2 -x,y,1/2-z
3 1/2+x,1/2+y,z
4 1/2-x,1/2+y,1/2-z
5 -x,-y,-z
6 x,-y,1/2+z
7 1/2-x,1/2-y,-z
8 1/2+x,1/2-y,1/2+z
_cell_length_a                   13.1584(5)
_cell_length_b                   17.1511(5)
_cell_length_c                   14.6293(5)
_cell_angle_alpha                90
_cell_angle_beta                 107.968(4)
_cell_angle_gamma                90
_cell_volume                     3140.54
loop_
_atom_site_label
_atom_site_type_symbol
_atom_site_fract_x
_atom_site_fract_y
_atom_site_fract_z
O1 O 1.16403(17) 0.32829(12) 0.14498(17)
Ni1 Ni 0.75399(3) 0.73556(2) 0.15827(3)
O3 O 0.96485(17) 0.72684(12) 0.11768(17)
C1 C 1.0231(2) 0.53114(15) 0.2098(2)
C2 C 0.9397(2) 0.66167(17) 0.1422(2)
C3 C 1.0121(2) 0.59345(16) 0.1451(2)
C4 C 1.1918(3) 0.39232(18) 0.1138(2)
C5 C 1.0814(2) 0.46641(17) 0.1971(2)
H1 H 1.0863 0.4234 0.2370
C6 C 1.0665(2) 0.59205(17) 0.0780(2)
H2 H 1.0620 0.6348 0.0379
C7 C 1.1275(2) 0.52866(18) 0.0692(2)
H3 H 1.1651 0.5295 0.0248
O5 O 0.6625(4) 0.6604(3) 0.2311(3)
C8 C 1.1323(2) 0.46383(16) 0.1268(2)
O8 O 1.2619(2) 0.39762(14) 0.0746(2)
O9 O 0.66287(19) 0.69543(13) 0.03494(17)
H4 H 0.6965 0.6637 0.0138
O10 O 0.8454(2) 0.78337(16) 0.2771(2)
H5 H 0.8887 0.7511 0.3076
O13 O 0.85291(16) 0.64911(12) 0.16127(16)
H6 H 0.616(4) 0.729(3) -0.011(4)
H7 H 0.811(6) 0.805(4) 0.319(5)
H10 H 0.656(4) 0.653(3) 0.269(3)
O1A O 0.83597(17) 0.32829(12) 0.35502(17)
O1B O 0.66403(17) 0.82829(12) 0.14498(17)
O1C O 1.33597(17) 0.82829(12) 0.35502(17)
Ni1A Ni 1.24601(3) 0.73556(2) 0.34173(3)
Ni1B Ni 1.25399(3) 0.23556(2) 0.15827(3)
Ni1C Ni 0.74601(3) 0.23556(2) 0.34173(3)
O3A O 1.03515(17) 0.72684(12) 0.38232(17)
C1A C 0.9769(2) 0.53114(15) 0.2902(2)
C2A C 1.0603(2) 0.66167(17) 0.3578(2)
C3A C 0.9879(2) 0.59345(16) 0.3549(2)
C4A C 0.8082(3) 0.39232(18) 0.3862(2)
C5A C 0.9186(2) 0.46641(17) 0.3029(2)
H1A H 0.9137 0.4234 0.2630
C6A C 0.9335(2) 0.59205(17) 0.4220(2)
H2A H 0.9380 0.6348 0.4621
C7A C 0.8725(2) 0.52866(18) 0.4308(2)
H3A H 0.8349 0.5295 0.4752
O5A O 1.3375(4) 0.6604(3) 0.2689(3)
C8A C 0.8677(2) 0.46383(16) 0.3732(2)
O8A O 0.7381(2) 0.39762(14) 0.4254(2)
O9A O 1.33713(19) 0.69543(13) 0.46506(17)
H4A H 1.3035 0.6637 0.4862
O10A O 1.1546(2) 0.78337(16) 0.2229(2)
H5A H 1.1113 0.7511 0.1924
O13A O 1.14709(16) 0.64911(12) 0.33873(16)
H6A H 1.384(4) 0.729(3) 0.511(4)
H7A H 1.189(6) 0.805(4) 0.181(5)
H10A H 1.344(4) 0.653(3) 0.231(3)
O2 O 0.5000 0.4108(3) 0.2500
O4 O 0.7531(2) 0.35235(16) 0.1059(2)
O6 O 0.6269(3) 0.3524(2) 0.9145(3)
O7 O 0.7133(4) 0.5113(2) 0.1056(3)
O11 O 0.4985(9) 0.4785(5) 0.8897(8)
O12 O 0.9568(3) 0.2902(2) 0.1472(3)
H8 H 0.927(4) 0.240(3) 0.113(4)
H9 H 1.029(8) 0.288(5) 0.160(7)
loop_
_geom_bond_atom_site_label_1
_geom_bond_atom_site_label_2
_geom_bond_site_symmetry_1
_geom_bond_site_symmetry_2
O1 C4 1_555 1_555
Ni1 O5 1_555 1_555
O3 C2 1_555 1_555
C1 C3 1_555 1_555
C2 C3 1_555 1_555
C3 C6 1_555 1_555
C4 C8 1_555 1_555
C5 C1 1_555 1_555
H1 C5 1_555 1_555
C6 H2 1_555 1_555
C7 C6 1_555 1_555
H3 C7 1_555 1_555
O5 H10 1_555 1_555
C8 C5 1_555 1_555
O8 C4 1_555 1_555
O9 Ni1 1_555 1_555
H4 O9 1_555 1_555
O10 Ni1 1_555 1_555
H5 O10 1_555 1_555
O12 H8 1_555 1_555
O13 Ni1 1_555 1_555
H6 O9 1_555 1_555
H7 O10 1_555 1_555
H9 O12 1_555 1_555
O1A Ni1C 1_555 1_555
O1B Ni1 1_555 1_555
O1C Ni1A 1_555 1_555
Ni1A O5A 1_555 1_555
Ni1B O1 1_555 1_555
O3A C2A 1_555 1_555
C1A C1 1_555 1_555
C2A C3A 1_555 1_555
C3A C1A 1_555 1_555
C4A O1A 1_555 1_555
C5A C1A 1_555 1_555
H1A C5A 1_555 1_555
C6A C3A 1_555 1_555
H2A C6A 1_555 1_555
C7A C6A 1_555 1_555
H3A C7A 1_555 1_555
O5A H10A 1_555 1_555
C8A C4A 1_555 1_555
O8A C4A 1_555 1_555
O9A Ni1A 1_555 1_555
H4A O9A 1_555 1_555
O10A Ni1A 1_555 1_555
H5A O10A 1_555 1_555
O13A Ni1A 1_555 1_555
H6A O9A 1_555 1_555
H7A O10A 1_555 1_555
C2 O13 1_555 1_555
C7 C8 1_555 1_555
C2A O13A 1_555 1_555
C5A C8A 1_555 1_555
C7A C8A 1_555 1_555

#END
