
#######################################################################
#
#                 Cambridge Crystallographic Data Centre
#                                CCDC 
#
#######################################################################
#
# If this CIF has been generated from an entry in the Cambridge 
# Structural Database, then it will include bibliographic, chemical, 
# crystal, experimental, refinement or atomic coordinate data resulting 
# from the CCDC's data processing and validation procedures.
#
#######################################################################

data_IJEJOX
_symmetry_cell_setting           orthorhombic
_symmetry_space_group_name_H-M   'P b c n'
_symmetry_Int_Tables_number      60
_space_group_name_Hall           '-P 2n 2ab'
loop_
_symmetry_equiv_pos_site_id
_symmetry_equiv_pos_as_xyz
1 x,y,z
2 1/2+x,1/2-y,-z
3 -x,y,1/2-z
4 1/2-x,1/2-y,1/2+z
5 -x,-y,-z
6 1/2-x,1/2+y,z
7 x,-y,1/2+z
8 1/2+x,1/2+y,1/2-z
_cell_length_a                   27.5640(4)
_cell_length_b                   11.4041(2)
_cell_length_c                   15.5519(2)
_cell_angle_alpha                90
_cell_angle_beta                 90
_cell_angle_gamma                90
_cell_volume                     4888.62
loop_
_atom_site_label
_atom_site_type_symbol
_atom_site_fract_x
_atom_site_fract_y
_atom_site_fract_z
Ce1 Ce 0.202011(9) 1.05913(2) 0.197112(15)
Ce2 Ce 0.235342(9) 0.81911(2) 0.376141(15)
O1 O 0.27490(10) 0.9760(2) 0.28829(18)
O2 O 0.17419(10) 0.9805(2) 0.35745(17)
O3 O 0.11853(11) 1.0294(3) 0.26237(19)
O4 O 0.30615(10) 0.7369(2) 0.30403(18)
O5 O 0.30505(11) 1.1444(2) 0.33112(19)
O6 O 0.25841(10) 1.2107(2) 0.15438(19)
O7 O 0.17773(11) 0.8109(3) 0.4906(2)
O8 O 0.30578(10) 1.3434(2) 0.21537(17)
O9 O 0.26152(11) 0.9778(2) 0.09548(18)
O10 O 0.28205(10) 1.0685(2) -0.02556(18)
O11 O 0.34856(10) 0.7474(2) 0.18389(18)
O12 O 0.15341(12) 0.9627(3) 0.5696(2)
O13 O 0.27624(10) 0.6675(2) 0.46867(18)
C1 C 0.31036(11) 1.0357(3) 0.3125(2)
C2 C 0.36013(16) 0.9870(4) 0.3244(3)
C3 C 0.39550(18) 1.0579(5) 0.3603(4)
C4 C 0.44255(18) 1.0199(5) 0.3689(4)
C5 C 0.45516(19) 0.9089(5) 0.3409(4)
C6 C 0.42067(19) 0.8374(5) 0.3045(4)
C7 C 0.37296(18) 0.8745(4) 0.2964(4)
C8 C 0.33872(19) 0.7869(4) 0.2569(4)
H1 H 0.38663(11) 1.1383(3) 0.3804(2)
H2 H 0.46756(11) 1.0723(3) 0.3953(2)
H3 H 0.48933(11) 0.8808(3) 0.3471(2)
H4 H 0.43008(11) 0.7577(3) 0.2836(2)
C9 C 0.12912(12) 0.9882(3) 0.3335(2)
C10 C 0.09008(17) 0.9332(4) 0.3863(3)
C11 C 0.04322(19) 0.9319(5) 0.3543(3)
C12 C 0.00535(19) 0.8877(5) 0.4018(4)
C13 C 0.0139(2) 0.8441(6) 0.4833(4)
C14 C 0.0601(2) 0.8453(5) 0.5165(4)
C15 C 0.09866(19) 0.8885(5) 0.4687(3)
C16 C 0.1475(2) 0.8828(5) 0.5121(3)
H5 H 0.03679(12) 0.9637(3) 0.2955(2)
H6 H -0.02823(12) 0.8872(3) 0.3775(2)
H7 H -0.01349(12) 0.8117(3) 0.5181(2)
H8 H 0.06604(12) 0.8146(3) 0.5758(2)
C17 C 0.30004(12) 1.2549(3) 0.1685(2)
C18 C 0.34224(17) 1.1823(4) 0.1407(3)
C19 C 0.38807(19) 1.2123(5) 0.1696(3)
C20 C 0.4280(2) 1.1455(5) 0.1497(4)
C21 C 0.4225(2) 1.0457(5) 0.1001(4)
C22 C 0.3773(2) 1.0138(5) 0.0712(4)
C23 C 0.33683(19) 1.0815(5) 0.0902(3)
C24 C 0.2896(2) 1.0378(5) 0.0534(3)
H9 H 0.39223(12) 1.2842(3) 0.2056(2)
H10 H 0.46082(12) 1.1689(3) 0.1709(2)
H11 H 0.45142(12) 0.9968(3) 0.0853(2)
H12 H 0.37343(12) 0.9409(3) 0.0361(2)
Ce1E Ce 0.297989(9) 0.55913(2) 0.197112(15)
Ce1E_2 Ce 0.297989(9) 1.55913(2) 0.197112(15)
Ce1F Ce 0.202011(9) 0.94087(2) 0.697112(15)
Ce2E Ce 0.264658(9) 1.31911(2) 0.376141(15)
Ce2F Ce 0.235342(9) 1.18089(2) -0.123859(15)
O4E O 0.19385(10) 1.2369(2) 0.30403(18)
O5E O 0.19495(11) 0.6444(2) 0.33112(19)
O8E O 0.19422(10) 0.8434(2) 0.21537(17)
O10F O 0.28205(10) 0.9315(2) 0.47444(18)
O11E O 0.15144(10) 1.2474(2) 0.18389(18)
O12F O 0.15341(12) 1.0373(3) 0.0696(2)
loop_
_geom_bond_atom_site_label_1
_geom_bond_atom_site_label_2
_geom_bond_site_symmetry_1
_geom_bond_site_symmetry_2
Ce1 O1 1_555 1_555
Ce2 O1 1_555 1_555
O1 C1 1_555 1_555
O2 Ce1 1_555 1_555
O3 Ce1 1_555 1_555
O4 Ce2 1_555 1_555
O5 C1 1_555 1_555
O6 Ce1 1_555 1_555
O7 Ce2 1_555 1_555
O8 C17 1_555 1_555
O9 Ce1 1_555 1_555
O10 C24 1_555 1_555
O11 C8 1_555 1_555
O12 C16 1_555 1_555
O13 Ce2 1_555 1_555
C1 C2 1_555 1_555
C2 C3 1_555 1_555
C3 C4 1_555 1_555
C4 C5 1_555 1_555
C5 C6 1_555 1_555
C6 C7 1_555 1_555
C7 C2 1_555 1_555
C8 O4 1_555 1_555
H1 C3 1_555 1_555
H2 C4 1_555 1_555
H3 C5 1_555 1_555
H4 C6 1_555 1_555
C9 O2 1_555 1_555
C10 C9 1_555 1_555
C11 C10 1_555 1_555
C12 C11 1_555 1_555
C13 C12 1_555 1_555
C14 C13 1_555 1_555
C15 C10 1_555 1_555
C16 O7 1_555 1_555
H5 C11 1_555 1_555
H6 C12 1_555 1_555
H7 C13 1_555 1_555
H8 C14 1_555 1_555
C17 O6 1_555 1_555
C18 C17 1_555 1_555
C19 C18 1_555 1_555
C20 C19 1_555 1_555
C21 C20 1_555 1_555
C22 C21 1_555 1_555
C23 C18 1_555 1_555
C24 O9 1_555 1_555
H9 C19 1_555 1_555
H10 C20 1_555 1_555
H11 C21 1_555 1_555
H12 C22 1_555 1_555
Ce1E O4 1_555 1_555
Ce1E_2 O8 1_555 1_555
Ce1F O12 1_555 1_555
Ce2E O5 1_555 1_555
Ce2F O10 1_555 1_555
O4E Ce1 1_555 1_555
O5E Ce2 1_555 1_555
O8E Ce1 1_555 1_555
O10F Ce2 1_555 1_555
O11E Ce1 1_555 1_555
O12F Ce1 1_555 1_555
Ce2 O2 1_555 1_555
Ce2 O8E 1_555 1_555
O3 C9 1_555 1_555
O8 Ce2E 1_555 1_555
O11 Ce1E 1_555 1_555
C7 C8 1_555 1_555
C14 C15 1_555 1_555
C15 C16 1_555 1_555
C22 C23 1_555 1_555
C23 C24 1_555 1_555
Ce2E O4E 1_555 1_555

#END
