
#######################################################################
#
#                 Cambridge Crystallographic Data Centre
#                                CCDC 
#
#######################################################################
#
# If this CIF has been generated from an entry in the Cambridge 
# Structural Database, then it will include bibliographic, chemical, 
# crystal, experimental, refinement or atomic coordinate data resulting 
# from the CCDC's data processing and validation procedures.
#
#######################################################################

data_IJEKEO
_symmetry_cell_setting           orthorhombic
_symmetry_space_group_name_H-M   'P b c n'
_symmetry_Int_Tables_number      60
_space_group_name_Hall           '-P 2n 2ab'
loop_
_symmetry_equiv_pos_site_id
_symmetry_equiv_pos_as_xyz
1 x,y,z
2 -x,y,1/2-z
3 1/2-x,1/2-y,1/2+z
4 1/2+x,1/2-y,-z
5 -x,-y,-z
6 x,-y,1/2+z
7 1/2+x,1/2+y,1/2-z
8 1/2-x,1/2+y,z
_cell_length_a                   27.5346(3)
_cell_length_b                   11.3006(2)
_cell_length_c                   15.5119(3)
_cell_angle_alpha                90
_cell_angle_beta                 90
_cell_angle_gamma                90
_cell_volume                     4826.64
loop_
_atom_site_label
_atom_site_type_symbol
_atom_site_fract_x
_atom_site_fract_y
_atom_site_fract_z
Nd1 Nd 0.202606(4) 1.059965(9) 0.198253(7)
Nd2 Nd 0.235670(4) 0.822179(9) 0.376086(7)
O1 O 0.27439(5) 0.98004(13) 0.28938(9)
O2 O 0.17540(5) 0.98306(13) 0.35796(9)
O3 O 0.11978(6) 1.03091(15) 0.26218(10)
O4 O 0.30507(6) 0.73768(12) 0.30368(9)
O5 O 0.30524(6) 1.14936(13) 0.33313(11)
O6 O 0.25774(6) 1.21082(13) 0.15422(10)
O7 O 0.17938(7) 0.81277(16) 0.49102(11)
O8 O 0.30470(6) 1.34464(12) 0.21665(10)
O9 O 0.26098(6) 0.97764(13) 0.09652(10)
O10 O 0.28178(6) 1.06540(13) -0.02614(10)
O11 O 0.34734(6) 0.74713(13) 0.18346(9)
O12 O 0.15442(7) 0.96295(15) 0.57216(11)
O13 O 0.27537(6) 0.67196(13) 0.46859(10)
C1 C 0.31018(6) 1.03953(13) 0.31420(11)
C2 C 0.35992(8) 0.9888(2) 0.32524(16)
C3 C 0.39555(9) 1.0597(2) 0.36119(18)
C4 C 0.44278(9) 1.0202(3) 0.3692(2)
C5 C 0.45499(9) 0.9081(3) 0.3403(2)
C6 C 0.42022(10) 0.8367(2) 0.3035(2)
C7 C 0.37225(9) 0.8752(2) 0.29609(18)
C8 C 0.33752(9) 0.7881(2) 0.25667(19)
H1 H 0.38702(6) 1.14095(13) 0.38173(11)
H2 H 0.46797(6) 1.07251(13) 0.39581(11)
H3 H 0.48906(6) 0.87848(13) 0.34593(11)
H4 H 0.42985(6) 0.75662(13) 0.28207(11)
C9 C 0.13034(6) 0.98922(15) 0.33359(10)
C10 C 0.09134(9) 0.9336(2) 0.38698(15)
C11 C 0.04455(9) 0.9315(2) 0.35438(17)
C12 C 0.00646(10) 0.8867(3) 0.40219(19)
C13 C 0.01498(10) 0.8439(3) 0.4846(2)
C14 C 0.06112(10) 0.8464(3) 0.51849(19)
C15 C 0.09996(9) 0.8901(2) 0.47025(16)
C16 C 0.14869(9) 0.8855(2) 0.51370(16)
H5 H 0.03814(6) 0.96284(15) 0.29518(10)
H6 H -0.02704(6) 0.88530(15) 0.37734(10)
H7 H -0.01232(6) 0.81106(15) 0.51969(10)
H8 H 0.06644(6) 0.81643(15) 0.57840(10)
C17 C 0.29935(6) 1.25630(13) 0.16982(11)
C18 C 0.34168(9) 1.1834(2) 0.14123(16)
C19 C 0.38743(9) 1.2141(2) 0.17067(17)
C20 C 0.42769(10) 1.1470(3) 0.1502(2)
C21 C 0.42234(10) 1.0465(3) 0.0998(2)
C22 C 0.37711(10) 1.0137(3) 0.07073(19)
C23 C 0.33628(9) 1.0818(2) 0.09018(16)
C24 C 0.28918(10) 1.0383(2) 0.05297(16)
H9 H 0.39147(6) 1.28613(13) 0.20742(11)
H10 H 0.46049(6) 1.17098(13) 0.17162(11)
H11 H 0.45127(6) 0.99736(13) 0.08442(11)
H12 H 0.37390(6) 0.94017(13) 0.03533(11)
Nd1G Nd 0.297394(4) 0.559965(9) 0.198253(7)
Nd1G_2 Nd 0.297394(4) 1.559965(9) 0.198253(7)
Nd1E Nd 0.202606(4) 0.940035(9) 0.698253(7)
Nd2G Nd 0.264330(4) 1.322179(9) 0.376086(7)
Nd2E Nd 0.235670(4) 1.177821(9) -0.123914(7)
O4G O 0.19493(6) 1.23768(12) 0.30368(9)
O5G O 0.19476(6) 0.64936(13) 0.33313(11)
O8G O 0.19530(6) 0.84464(12) 0.21665(10)
O10E O 0.28178(6) 0.93460(13) 0.47386(10)
O11G O 0.15266(6) 1.24713(13) 0.18346(9)
O12E O 0.15442(7) 1.03705(15) 0.07216(11)
loop_
_geom_bond_atom_site_label_1
_geom_bond_atom_site_label_2
_geom_bond_site_symmetry_1
_geom_bond_site_symmetry_2
Nd1 O1 1_555 1_555
Nd2 O1 1_555 1_555
O1 C1 1_555 1_555
O2 Nd1 1_555 1_555
O3 Nd1 1_555 1_555
O4 Nd2 1_555 1_555
O5 C1 1_555 1_555
O6 Nd1 1_555 1_555
O7 Nd2 1_555 1_555
O8 C17 1_555 1_555
O9 Nd1 1_555 1_555
O10 C24 1_555 1_555
O11 C8 1_555 1_555
O12 C16 1_555 1_555
O13 Nd2 1_555 1_555
C1 C2 1_555 1_555
C2 C3 1_555 1_555
C3 C4 1_555 1_555
C4 C5 1_555 1_555
C5 C6 1_555 1_555
C6 C7 1_555 1_555
C7 C2 1_555 1_555
C8 O4 1_555 1_555
H1 C3 1_555 1_555
H2 C4 1_555 1_555
H3 C5 1_555 1_555
H4 C6 1_555 1_555
C9 O2 1_555 1_555
C10 C9 1_555 1_555
C11 C10 1_555 1_555
C12 C11 1_555 1_555
C13 C12 1_555 1_555
C14 C13 1_555 1_555
C15 C10 1_555 1_555
C16 O7 1_555 1_555
H5 C11 1_555 1_555
H6 C12 1_555 1_555
H7 C13 1_555 1_555
H8 C14 1_555 1_555
C17 O6 1_555 1_555
C18 C17 1_555 1_555
C19 C18 1_555 1_555
C20 C19 1_555 1_555
C21 C20 1_555 1_555
C22 C21 1_555 1_555
C23 C18 1_555 1_555
C24 O9 1_555 1_555
H9 C19 1_555 1_555
H10 C20 1_555 1_555
H11 C21 1_555 1_555
H12 C22 1_555 1_555
Nd1G O4 1_555 1_555
Nd1G_2 O8 1_555 1_555
Nd1E O12 1_555 1_555
Nd2G O5 1_555 1_555
Nd2E O10 1_555 1_555
O4G Nd1 1_555 1_555
O5G Nd2 1_555 1_555
O8G Nd1 1_555 1_555
O10E Nd2 1_555 1_555
O11G Nd1 1_555 1_555
O12E Nd1 1_555 1_555
Nd2 O2 1_555 1_555
Nd2 O8G 1_555 1_555
O3 C9 1_555 1_555
O8 Nd2G 1_555 1_555
O11 Nd1G 1_555 1_555
C7 C8 1_555 1_555
C14 C15 1_555 1_555
C15 C16 1_555 1_555
C22 C23 1_555 1_555
C23 C24 1_555 1_555
Nd2G O4G 1_555 1_555

#END
