
#######################################################################
#
#                 Cambridge Crystallographic Data Centre
#                                CCDC 
#
#######################################################################
#
# If this CIF has been generated from an entry in the Cambridge 
# Structural Database, then it will include bibliographic, chemical, 
# crystal, experimental, refinement or atomic coordinate data resulting 
# from the CCDC's data processing and validation procedures.
#
#######################################################################

data_IJEWUQ
_symmetry_cell_setting           monoclinic
_symmetry_space_group_name_H-M   'P 21/n'
_symmetry_Int_Tables_number      14
_space_group_name_Hall           '-P 2yn'
loop_
_symmetry_equiv_pos_site_id
_symmetry_equiv_pos_as_xyz
1 x,y,z
2 1/2-x,1/2+y,1/2-z
3 -x,-y,-z
4 1/2+x,1/2-y,1/2+z
_cell_length_a                   11.2050(4)
_cell_length_b                   19.5300(7)
_cell_length_c                   11.4550(4)
_cell_angle_alpha                90
_cell_angle_beta                 104.2180(7)
_cell_angle_gamma                90
_cell_volume                     2429.95
loop_
_atom_site_label
_atom_site_type_symbol
_atom_site_fract_x
_atom_site_fract_y
_atom_site_fract_z
O1 O -0.2159(3) 0.36147(14) -0.0632(3)
C1 C -0.1313(4) 0.3757(2) -0.1147(4)
C2 C -0.0837(3) 0.31613(19) -0.1720(3)
C3 C 0.0067(4) 0.3250(2) -0.2341(4)
H1 H 0.0360 0.3686 -0.2436
C4 C 0.5252(4) 0.0415(2) -0.0893(4)
H2 H 0.5424 0.0693 -0.1491
C5 C 0.0533(4) 0.2691(2) -0.2819(4)
H3 H 0.1147 0.2753 -0.3227
C6 C -0.1277(4) 0.2507(2) -0.1601(4)
H4 H -0.1885 0.2443 -0.1187
C7 C -0.0817(4) 0.1954(2) -0.2093(4)
H5 H -0.1125 0.1518 -0.2018
C8 C 0.0096(3) 0.20399(18) -0.2698(3)
Zn1 Zn 0.04965(4) -0.01335(2) -0.35954(4)
Zn2 Zn 0.22980(4) 0.08617(2) -0.44577(4)
O3 O 0.1170(2) 0.01091(11) -0.5094(2)
O4 O 0.3506(2) 0.05062(15) -0.3063(2)
N1 N 0.0815(3) -0.12965(17) -0.3747(3)
O5 O 0.0148(3) 0.08588(13) -0.3119(3)
O6 O 0.2185(2) -0.01357(15) -0.2362(2)
C9 C 0.4150(3) 0.00574(19) -0.1102(3)
O7 O 0.1441(3) 0.15529(14) -0.3744(3)
O8 O -0.0863(3) 0.43330(15) -0.1190(3)
C10 C 0.6091(4) 0.0357(2) 0.0208(4)
H6 H 0.6826 0.0600 0.0351
N2 N -0.0420(3) -0.05355(18) -0.2225(3)
C11 C 0.3206(3) 0.01448(19) -0.2277(3)
C12 C -0.0345(4) -0.1206(2) -0.2204(4)
C13 C 0.1384(4) -0.1726(2) -0.4328(5)
H7 H 0.1793 -0.1554 -0.4881
C14 C -0.1377(6) -0.1347(4) -0.0654(6)
H8 H -0.1694 -0.1610 -0.0123
C15 C 0.0269(4) -0.1587(2) -0.2954(4)
C16 C 0.0601(3) 0.1432(2) -0.3217(3)
C17 C -0.0804(5) -0.1652(3) -0.1460(5)
C18 C 0.0197(5) -0.2282(2) -0.2700(5)
O9 O -0.0662(4) -0.3332(3) -0.1674(4)
H9 H -0.0828 -0.3721 -0.1494
N3 N -0.1109(5) -0.2912(3) -0.1097(5)
C19 C -0.1000(5) -0.0264(3) -0.1444(5)
H10 H -0.1095 0.0208 -0.1432
C20 C 0.0791(6) -0.2713(3) -0.3301(6)
H11 H 0.0798 -0.3182 -0.3160
C21 C -0.1464(6) -0.0654(4) -0.0659(6)
H12 H -0.1844 -0.0440 -0.0121
C22 C 0.1383(6) -0.2445(3) -0.4123(6)
H13 H 0.1783 -0.2736 -0.4545
C23 C -0.0513(5) -0.2343(3) -0.1785(5)
H14 H 0.1591 -0.0205 -0.5263
O1C O 0.2841(3) 0.13853(14) -0.5632(3)
O1A O -0.2841(3) -0.13853(14) -0.4368(3)
C1C C 0.3687(4) 0.1243(2) -0.6147(4)
C2C C 0.4163(3) 0.18387(19) -0.6720(3)
C3C C 0.5067(4) 0.1750(2) -0.7341(4)
H1C H 0.5360 0.1314 -0.7436
C4B C 0.4748(4) -0.0415(2) 0.0893(4)
H2B H 0.4576 -0.0693 0.1491
C5C C 0.5533(4) 0.2309(2) -0.7819(4)
H3C H 0.6147 0.2247 -0.8227
C6C C 0.3723(4) 0.2493(2) -0.6601(4)
H4C H 0.3115 0.2557 -0.6187
C7C C 0.4183(4) 0.3046(2) -0.7093(4)
H5C H 0.3875 0.3482 -0.7018
C8C C 0.5096(3) 0.29601(18) -0.7698(3)
Zn1B Zn -0.04965(4) 0.01335(2) -0.64046(4)
Zn1B_2 Zn 0.95035(4) 0.01335(2) 0.35954(4)
Zn1C Zn 0.54965(4) 0.51335(2) -0.85954(4)
Zn2C Zn -0.27020(4) 0.41383(2) 0.05423(4)
Zn2B Zn 0.77020(4) -0.08617(2) 0.44577(4)
Zn2B_2 Zn -0.22980(4) -0.08617(2) -0.55423(4)
Zn2C_2 Zn 0.72980(4) 0.41383(2) -0.94577(4)
O3B O -0.1170(2) -0.01091(11) -0.4906(2)
O4B O 0.6494(2) -0.05062(15) 0.3063(2)
O4B_2 O -0.3506(2) -0.05062(15) -0.6937(2)
N1B N -0.0815(3) 0.12965(17) -0.6253(3)
O5B O -0.0148(3) -0.08588(13) -0.6881(3)
O5C O 0.5148(3) 0.41412(13) -0.8119(3)
O6B O 0.7815(2) 0.01357(15) 0.2362(2)
O6B_2 O -0.2185(2) 0.01357(15) -0.7638(2)
C9B C 0.5850(3) -0.00574(19) 0.1102(3)
O7B O -0.1441(3) -0.15529(14) -0.6256(3)
O7C O 0.6441(3) 0.34471(14) -0.8744(3)
O8C O 0.4137(3) 0.06670(15) -0.6190(3)
C10B C 0.3909(4) -0.0357(2) -0.0208(4)
H6B H 0.3174 -0.0600 -0.0351
N2B N 0.0420(3) 0.05355(18) -0.7775(3)
C11B C 0.6794(3) -0.01448(19) 0.2277(3)
C12B C 0.0345(4) 0.1206(2) -0.7796(4)
C13B C -0.1384(4) 0.1726(2) -0.5672(5)
H7B H -0.1793 0.1554 -0.5119
C14B C 0.1377(6) 0.1347(4) -0.9346(6)
H8B H 0.1694 0.1610 -0.9877
C15B C -0.0269(4) 0.1587(2) -0.7046(4)
C16C C 0.5601(3) 0.3568(2) -0.8217(3)
C17B C 0.0804(5) 0.1652(3) -0.8540(5)
C18B C -0.0197(5) 0.2282(2) -0.7300(5)
O9B O 0.0662(4) 0.3332(3) -0.8326(4)
H9B H 0.0828 0.3721 -0.8506
N3B N 0.1109(5) 0.2912(3) -0.8903(5)
C19B C 0.1000(5) 0.0264(3) -0.8556(5)
H10B H 0.1095 -0.0208 -0.8568
C20B C -0.0791(6) 0.2713(3) -0.6699(6)
H11B H -0.0798 0.3182 -0.6840
C21B C 0.1464(6) 0.0654(4) -0.9341(6)
H12B H 0.1844 0.0440 -0.9879
C22B C -0.1383(6) 0.2445(3) -0.5877(6)
H13B H -0.1783 0.2736 -0.5455
C23B C 0.0513(5) 0.2343(3) -0.8215(5)
H14B H -0.1591 0.0205 -0.4737
O2 O 0.8449(3) 0.55611(13) -0.0417(3)
H15 H 0.8684 0.5203 -0.0719
H16 H 0.8979 0.5618 0.0241
loop_
_geom_bond_atom_site_label_1
_geom_bond_atom_site_label_2
_geom_bond_site_symmetry_1
_geom_bond_site_symmetry_2
O1 C1 1_555 1_555
C1 C2 1_555 1_555
C2 C3 1_555 1_555
C3 H1 1_555 1_555
C4 H2 1_555 1_555
C5 C3 1_555 1_555
H3 C5 1_555 1_555
O2 H15 1_555 1_555
C6 C2 1_555 1_555
H4 C6 1_555 1_555
C7 C6 1_555 1_555
H5 C7 1_555 1_555
C8 C5 1_555 1_555
Zn1 O3 1_555 1_555
Zn2 O3 1_555 1_555
O3 H14 1_555 1_555
O4 Zn2 1_555 1_555
N1 Zn1 1_555 1_555
O5 Zn1 1_555 1_555
O6 Zn1 1_555 1_555
C9 C4 1_555 1_555
O7 Zn2 1_555 1_555
O8 C1 1_555 1_555
C10 C4 1_555 1_555
H6 C10 1_555 1_555
N2 Zn1 1_555 1_555
C11 O4 1_555 1_555
C12 N2 1_555 1_555
C13 N1 1_555 1_555
H7 C13 1_555 1_555
C14 H8 1_555 1_555
C15 N1 1_555 1_555
C16 C8 1_555 1_555
C17 C12 1_555 1_555
C18 C15 1_555 1_555
O9 H9 1_555 1_555
N3 O9 1_555 1_555
C19 N2 1_555 1_555
H10 C19 1_555 1_555
C20 C18 1_555 1_555
H11 C20 1_555 1_555
C21 C14 1_555 1_555
H12 C21 1_555 1_555
C22 C13 1_555 1_555
H13 C22 1_555 1_555
C23 C17 1_555 1_555
H16 O2 1_555 1_555
O1C Zn2 1_555 1_555
O1A Zn2B_2 1_555 1_555
C1C O1C 1_555 1_555
C2C C1C 1_555 1_555
C3C C2C 1_555 1_555
H1C C3C 1_555 1_555
C4B H2B 1_555 1_555
C5C C3C 1_555 1_555
H3C C5C 1_555 1_555
C6C C2C 1_555 1_555
H4C C6C 1_555 1_555
C7C C6C 1_555 1_555
H5C C7C 1_555 1_555
C8C C5C 1_555 1_555
Zn1B O3 1_555 1_555
Zn1B_2 O6B 1_555 1_555
Zn1C O5C 1_555 1_555
Zn2C O1 1_555 1_555
Zn2B O4B 1_555 1_555
Zn2B_2 O3B 1_555 1_555
Zn2C_2 O7C 1_555 1_555
O3B Zn1 1_555 1_555
O4B C11B 1_555 1_555
O4B_2 Zn2B_2 1_555 1_555
N1B Zn1B 1_555 1_555
O5B Zn1B 1_555 1_555
O5C C16C 1_555 1_555
O6B C11B 1_555 1_555
O6B_2 Zn1B 1_555 1_555
C9B C10 1_555 1_555
O7B Zn2B_2 1_555 1_555
O7C C16C 1_555 1_555
O8C C1C 1_555 1_555
C10B C9 1_555 1_555
H6B C10B 1_555 1_555
N2B Zn1B 1_555 1_555
C11B C9B 1_555 1_555
C12B N2B 1_555 1_555
C13B N1B 1_555 1_555
H7B C13B 1_555 1_555
C14B H8B 1_555 1_555
C15B N1B 1_555 1_555
C16C C8C 1_555 1_555
C17B C12B 1_555 1_555
C18B C15B 1_555 1_555
O9B H9B 1_555 1_555
N3B O9B 1_555 1_555
C19B N2B 1_555 1_555
H10B C19B 1_555 1_555
C20B C18B 1_555 1_555
H11B C20B 1_555 1_555
C21B C14B 1_555 1_555
H12B C21B 1_555 1_555
C22B C13B 1_555 1_555
H13B C22B 1_555 1_555
C23B C17B 1_555 1_555
H14B O3B 1_555 1_555
C7 C8 1_555 1_555
O5 C16 1_555 1_555
O6 C11 1_555 1_555
C9 C11 1_555 1_555
O7 C16 1_555 1_555
C12 C15 1_555 1_555
C14 C17 1_555 1_555
C18 C23 1_555 1_555
N3 C23 1_555 1_555
C19 C21 1_555 1_555
C20 C22 1_555 1_555
C4B C9B 1_555 1_555
C4B C10B 1_555 1_555
C7C C8C 1_555 1_555
Zn1B O3B 1_555 1_555
C12B C15B 1_555 1_555
C14B C17B 1_555 1_555
C18B C23B 1_555 1_555
N3B C23B 1_555 1_555
C19B C21B 1_555 1_555
C20B C22B 1_555 1_555

#END
