
#######################################################################
#
#                 Cambridge Crystallographic Data Centre
#                                CCDC 
#
#######################################################################
#
# If this CIF has been generated from an entry in the Cambridge 
# Structural Database, then it will include bibliographic, chemical, 
# crystal, experimental, refinement or atomic coordinate data resulting 
# from the CCDC's data processing and validation procedures.
#
#######################################################################

data_IJIRAV
_symmetry_cell_setting           monoclinic
_symmetry_space_group_name_H-M   'P 21/c'
_symmetry_Int_Tables_number      14
_space_group_name_Hall           '-P 2ybc'
loop_
_symmetry_equiv_pos_site_id
_symmetry_equiv_pos_as_xyz
1 x,y,z
2 -x,1/2+y,1/2-z
3 -x,-y,-z
4 x,1/2-y,1/2+z
_cell_length_a                   8.540(6)
_cell_length_b                   21.0546(3)
_cell_length_c                   7.504(5)
_cell_angle_alpha                90
_cell_angle_beta                 95.214(3)
_cell_angle_gamma                90
_cell_volume                     1343.68
loop_
_atom_site_label
_atom_site_type_symbol
_atom_site_fract_x
_atom_site_fract_y
_atom_site_fract_z
Hg1 Hg 0.26855(3) 0.685993(12) 0.19081(3)
Cl1 Cl -0.01210(19) 0.69201(8) 0.1960(3)
Cl2 Cl 0.38164(19) 0.58048(7) 0.20034(18)
Cl3 Cl 0.39275(18) 0.76263(8) -0.00413(18)
Cu1 Cu 0.5000 0.5000 0.5000
N1 N 0.3001(5) 0.5208(2) 0.6097(5)
N2 N 0.2320(5) 0.4129(2) 0.6120(6)
N3 N 0.3784(5) 0.4316(2) 0.3675(5)
C1 C 0.2609(6) 0.5815(3) 0.6437(7)
H1 H 0.3236 0.6136 0.6035
C2 C 0.1357(7) 0.5988(3) 0.7329(7)
H2 H 0.1129 0.6412 0.7531
C3 C 0.0428(7) 0.5498(3) 0.7927(7)
H3 H -0.0412 0.5595 0.8586
C4 C 0.0744(6) 0.4880(3) 0.7553(7)
H4 H 0.0115 0.4555 0.7927
C5 C 0.2034(6) 0.4747(3) 0.6595(6)
C6 C 0.2824(5) 0.3935(3) 0.4499(7)
C7 C 0.2267(6) 0.3364(3) 0.3761(8)
H5 H 0.1660 0.3093 0.4396
C8 C 0.2633(7) 0.3209(3) 0.2086(8)
H6 H 0.2298 0.2824 0.1579
C9 C 0.3494(6) 0.3622(3) 0.1137(7)
H7 H 0.3698 0.3530 -0.0032
C10 C 0.4044(6) 0.4169(3) 0.1956(7)
H8 H 0.4617 0.4451 0.1316
H9 H 0.1494 0.3891 0.6682
Hg1B Hg 0.73145(3) 0.314007(12) 0.80919(3)
Hg1C Hg 0.26855(3) 0.814007(12) -0.30919(3)
Hg1A Hg 0.73145(3) 0.185993(12) 1.30919(3)
Cl1B Cl 1.01210(19) 0.30799(8) 0.8040(3)
Cl2B Cl 0.61836(19) 0.41952(7) 0.79966(18)
Cl3C Cl 0.39275(18) 0.73737(8) 0.49587(18)
Cl3B Cl 0.60725(18) 0.23737(8) 1.00413(18)
Cl3A Cl 0.60725(18) 0.26263(8) 0.50413(18)
N1B N 0.6999(5) 0.4792(2) 0.3903(5)
N2B N 0.7680(5) 0.5871(2) 0.3880(6)
N3B N 0.6216(5) 0.5684(2) 0.6325(5)
C1B C 0.7391(6) 0.4185(3) 0.3563(7)
H1B H 0.6764 0.3864 0.3965
C2B C 0.8643(7) 0.4012(3) 0.2671(7)
H2B H 0.8871 0.3588 0.2469
C3B C 0.9572(7) 0.4502(3) 0.2073(7)
H3B H 1.0412 0.4405 0.1414
C4B C 0.9256(6) 0.5120(3) 0.2447(7)
H4B H 0.9885 0.5445 0.2073
C5B C 0.7966(6) 0.5253(3) 0.3405(6)
C6B C 0.7176(5) 0.6065(3) 0.5501(7)
C7B C 0.7733(6) 0.6636(3) 0.6239(8)
H5B H 0.8340 0.6907 0.5604
C8B C 0.7367(7) 0.6791(3) 0.7914(8)
H6B H 0.7702 0.7176 0.8421
C9B C 0.6506(6) 0.6378(3) 0.8863(7)
H7B H 0.6302 0.6470 1.0032
C10B C 0.5956(6) 0.5831(3) 0.8044(7)
H8B H 0.5383 0.5549 0.8684
H9B H 0.8506 0.6109 0.3318
loop_
_geom_bond_atom_site_label_1
_geom_bond_atom_site_label_2
_geom_bond_site_symmetry_1
_geom_bond_site_symmetry_2
Hg1 Cl1 1_555 1_555
Cl2 Hg1 1_555 1_555
Cl3 Hg1 1_555 1_555
Cu1 Cl2 1_555 1_555
N1 Cu1 1_555 1_555
N2 C5 1_555 1_555
N3 Cu1 1_555 1_555
C1 N1 1_555 1_555
H1 C1 1_555 1_555
C2 C1 1_555 1_555
H2 C2 1_555 1_555
C3 C2 1_555 1_555
H3 C3 1_555 1_555
C4 C3 1_555 1_555
H4 C4 1_555 1_555
C5 N1 1_555 1_555
C6 N2 1_555 1_555
C7 C6 1_555 1_555
H5 C7 1_555 1_555
C8 C7 1_555 1_555
H6 C8 1_555 1_555
C9 C8 1_555 1_555
H7 C9 1_555 1_555
C10 N3 1_555 1_555
H8 C10 1_555 1_555
H9 N2 1_555 1_555
Hg1B Cl1B 1_555 1_555
Hg1C Cl3 1_555 1_555
Hg1A Cl3B 1_555 1_555
Cl2B Cu1 1_555 1_555
Cl3C Hg1 1_555 1_555
Cl3B Hg1B 1_555 1_555
Cl3A Hg1B 1_555 1_555
N1B Cu1 1_555 1_555
N2B C5B 1_555 1_555
N3B Cu1 1_555 1_555
C1B N1B 1_555 1_555
H1B C1B 1_555 1_555
C2B C1B 1_555 1_555
H2B C2B 1_555 1_555
C3B C2B 1_555 1_555
H3B C3B 1_555 1_555
C4B C3B 1_555 1_555
H4B C4B 1_555 1_555
C5B N1B 1_555 1_555
C6B N2B 1_555 1_555
C7B C6B 1_555 1_555
H5B C7B 1_555 1_555
C8B C7B 1_555 1_555
H6B C8B 1_555 1_555
C9B C8B 1_555 1_555
H7B C9B 1_555 1_555
C10B N3B 1_555 1_555
H8B C10B 1_555 1_555
H9B N2B 1_555 1_555
N3 C6 1_555 1_555
C4 C5 1_555 1_555
C9 C10 1_555 1_555
Hg1B Cl2B 1_555 1_555
N3B C6B 1_555 1_555
C4B C5B 1_555 1_555
C9B C10B 1_555 1_555

#END
