
#######################################################################
#
#                 Cambridge Crystallographic Data Centre
#                                CCDC 
#
#######################################################################
#
# If this CIF has been generated from an entry in the Cambridge 
# Structural Database, then it will include bibliographic, chemical, 
# crystal, experimental, refinement or atomic coordinate data resulting 
# from the CCDC's data processing and validation procedures.
#
#######################################################################

data_IJIRUP
_symmetry_cell_setting           triclinic
_symmetry_space_group_name_H-M   'P -1'
_symmetry_Int_Tables_number      2
_space_group_name_Hall           '-P 1'
loop_
_symmetry_equiv_pos_site_id
_symmetry_equiv_pos_as_xyz
1 x,y,z
2 -x,-y,-z
_cell_length_a                   7.3187(9)
_cell_length_b                   9.1689(13)
_cell_length_c                   13.4880(12)
_cell_angle_alpha                83.784(10)
_cell_angle_beta                 81.715(9)
_cell_angle_gamma                86.501(11)
_cell_volume                     889.443
loop_
_atom_site_label
_atom_site_type_symbol
_atom_site_fract_x
_atom_site_fract_y
_atom_site_fract_z
Cu1 Cu -0.38560(11) 0.23352(9) 0.21108(6)
Hg1 Hg 0.06406(4) 0.11094(3) 0.33079(2)
Cl1 Cl -0.2439(2) 0.0168(2) 0.25576(13)
Cl2 Cl 0.3188(2) 0.1300(2) 0.16416(13)
Cl3 Cl -0.0462(3) 0.3572(2) 0.31333(17)
Cl4 Cl 0.1536(3) -0.1136(2) 0.41490(17)
N1 N -0.5139(7) 0.2883(6) 0.3476(4)
N2 N -0.4191(7) 0.4490(6) 0.1840(4)
N3 N -0.2578(7) 0.2681(7) 0.0659(4)
C1 C -0.5631(10) 0.1944(10) 0.4274(6)
H1 H -0.5233 0.0963 0.4257
C2 C -0.6707(11) 0.2363(11) 0.5126(6)
H2 H -0.7027 0.1679 0.5675
C3 C -0.7298(11) 0.3800(10) 0.5153(6)
H3 H -0.8042 0.4106 0.5719
C4 C -0.6778(10) 0.4799(10) 0.4329(6)
H4 H -0.7152 0.5786 0.4336
C5 C -0.5697(9) 0.4301(8) 0.3502(5)
C6 C -0.5046(9) 0.5263(8) 0.2577(5)
C7 C -0.5231(10) 0.6768(8) 0.2432(6)
H5 H -0.5818 0.7308 0.2942
C8 C -0.4513(10) 0.7463(9) 0.1499(6)
H6 H -0.4641 0.8479 0.1376
C9 C -0.3611(10) 0.6647(9) 0.0756(6)
H7 H -0.3114 0.7105 0.0135
C10 C -0.3465(9) 0.5152(8) 0.0952(5)
C11 C -0.2558(8) 0.4101(8) 0.0258(5)
C12 C -0.1720(9) 0.4502(10) -0.0707(5)
H8 H -0.1676 0.5485 -0.0962
C13 C -0.0935(10) 0.3389(10) -0.1295(6)
H9 H -0.0369 0.3625 -0.1951
C14 C -0.1006(10) 0.1985(11) -0.0904(6)
H10 H -0.0502 0.1244 -0.1294
C15 C -0.1826(10) 0.1630(9) 0.0076(6)
H11 H -0.1859 0.0650 0.0338
Cu1_2 Cu 0.61440(11) 0.23352(9) 0.21108(6)
Cl2_2 Cl -0.6812(2) 0.1300(2) 0.16416(13)
loop_
_geom_bond_atom_site_label_1
_geom_bond_atom_site_label_2
_geom_bond_site_symmetry_1
_geom_bond_site_symmetry_2
Cu1 Cl1 1_555 1_555
Hg1 Cl1 1_555 1_555
Cl2 Hg1 1_555 1_555
Cl3 Hg1 1_555 1_555
Cl4 Hg1 1_555 1_555
N1 Cu1 1_555 1_555
N2 Cu1 1_555 1_555
N3 Cu1 1_555 1_555
C1 N1 1_555 1_555
H1 C1 1_555 1_555
C2 C1 1_555 1_555
H2 C2 1_555 1_555
C3 C2 1_555 1_555
H3 C3 1_555 1_555
C4 C3 1_555 1_555
H4 C4 1_555 1_555
C5 N1 1_555 1_555
C6 N2 1_555 1_555
C7 C6 1_555 1_555
H5 C7 1_555 1_555
C8 C7 1_555 1_555
H6 C8 1_555 1_555
C9 C8 1_555 1_555
H7 C9 1_555 1_555
C10 N2 1_555 1_555
C11 N3 1_555 1_555
C12 C11 1_555 1_555
H8 C12 1_555 1_555
C13 C12 1_555 1_555
H9 C13 1_555 1_555
C14 C13 1_555 1_555
H10 C14 1_555 1_555
C15 N3 1_555 1_555
H11 C15 1_555 1_555
Cu1_2 Cl2 1_555 1_555
Cl2_2 Cu1 1_555 1_555
C4 C5 1_555 1_555
C5 C6 1_555 1_555
C9 C10 1_555 1_555
C10 C11 1_555 1_555
C14 C15 1_555 1_555

#END
