
#######################################################################
#
#                 Cambridge Crystallographic Data Centre
#                                CCDC 
#
#######################################################################
#
# If this CIF has been generated from an entry in the Cambridge 
# Structural Database, then it will include bibliographic, chemical, 
# crystal, experimental, refinement or atomic coordinate data resulting 
# from the CCDC's data processing and validation procedures.
#
#######################################################################

data_IJISIE
_symmetry_cell_setting           monoclinic
_symmetry_space_group_name_H-M   'C c'
_symmetry_Int_Tables_number      9
_space_group_name_Hall           'C -2yc'
loop_
_symmetry_equiv_pos_site_id
_symmetry_equiv_pos_as_xyz
1 x,y,z
2 x,-y,1/2+z
3 1/2+x,1/2+y,z
4 1/2+x,1/2-y,1/2+z
_cell_length_a                   27.999(3)
_cell_length_b                   15.9739(14)
_cell_length_c                   14.4213(16)
_cell_angle_alpha                90
_cell_angle_beta                 115.391(7)
_cell_angle_gamma                90
_cell_volume                     5826.92
loop_
_atom_site_label
_atom_site_type_symbol
_atom_site_fract_x
_atom_site_fract_y
_atom_site_fract_z
Ag1 Ag 0.55923(2) 0.49787(3) 0.43638(4)
O1 O 0.30293(17) 0.4335(3) 0.3678(4)
O2 O 0.12953(17) 0.3900(3) 0.3419(4)
O3 O 0.19942(17) 0.6656(2) 0.3773(4)
N1 N 0.4826(2) 0.4304(4) 0.4125(5)
N2 N 0.0555(2) 0.1398(3) 0.4072(4)
N3 N 0.1258(2) 0.9228(4) 0.4259(5)
C1 C 0.2572(3) 0.4665(4) 0.3647(7)
C2 C 0.2182(3) 0.4108(4) 0.3543(5)
H4 H 0.2234 0.3525 0.3491
C3 C 0.1711(3) 0.4398(4) 0.3515(5)
C4 C 0.1626(3) 0.5252(4) 0.3569(6)
H5 H 0.1299 0.5453 0.3530
C5 C 0.2029(3) 0.5800(4) 0.3680(5)
C6 C 0.2508(3) 0.5522(4) 0.3747(5)
H6 H 0.2787 0.5903 0.3859
C9 C 0.3435(2) 0.4869(4) 0.3735(5)
H7 H 0.3539 0.5239 0.4340
H8 H 0.3313 0.5223 0.3112
C10 C 0.4384(3) 0.4723(4) 0.4012(6)
H9 H 0.4403 0.5316 0.4067
C11 C 0.3906(3) 0.4339(4) 0.3823(5)
C12 C 0.3871(3) 0.3476(4) 0.3727(6)
H10 H 0.3553 0.3183 0.3592
C13 C 0.4329(3) 0.3064(4) 0.3839(7)
H11 H 0.4321 0.2471 0.3776
C14 C 0.4795(3) 0.3480(4) 0.4040(6)
H12 H 0.5099 0.3168 0.4118
C16 C 0.1386(2) 0.3013(3) 0.3564(6)
H13 H 0.1720 0.2904 0.4179
H14 H 0.1416 0.2765 0.2961
C17 C 0.0916(3) 0.1783(4) 0.3849(5)
H15 H 0.1182 0.1447 0.3792
C18 C 0.0931(3) 0.2632(4) 0.3694(5)
C19 C 0.0530(3) 0.3103(4) 0.3758(6)
H16 H 0.0519 0.3691 0.3658
C20 C 0.0143(3) 0.2713(4) 0.3967(7)
H17 H -0.0141 0.3023 0.3993
C21 C 0.0186(3) 0.1859(4) 0.4138(6)
H18 H -0.0067 0.1592 0.4313
C22 C 0.1525(2) 0.6993(3) 0.3765(6)
H19 H 0.1445 0.6720 0.4300
H20 H 0.1223 0.6896 0.3090
C23 C 0.1219(2) 0.8407(4) 0.4071(5)
H21 H 0.0904 0.8130 0.3997
C24 C 0.1611(2) 0.7935(4) 0.3978(5)
C25 C 0.2068(3) 0.8349(4) 0.4061(5)
H22 H 0.2348 0.8051 0.4005
C26 C 0.2099(3) 0.9212(4) 0.4228(5)
H23 H 0.2403 0.9515 0.4288
C27 C 0.1690(3) 0.9616(4) 0.4305(5)
H24 H 0.1712 1.0206 0.4396
Ag1B Ag 0.05923(2) -0.00213(3) 0.43638(4)
Ag1B_2 Ag 0.05923(2) 0.99787(3) 0.43638(4)
N2B N 0.5555(2) 0.6398(3) 0.4072(4)
N3B N 0.6258(2) 0.4228(4) 0.4259(5)
Ag2 Ag 0.28952(2) 0.53580(3) 0.59735(4)
O11 O 0.54937(15) 0.4698(2) 0.6852(3)
O12 O 0.64488(16) 0.7018(2) 0.6445(4)
O13 O 0.71763(17) 0.4286(2) 0.6829(4)
N4 N 0.3687(2) 0.4701(3) 0.6331(4)
N5 N 0.7241(2) 0.9601(3) 0.6101(4)
N6 N 0.7910(2) 0.1757(3) 0.6241(5)
C28 C 0.5917(3) 0.5047(4) 0.6758(7)
C29 C 0.5977(3) 0.5896(4) 0.6628(5)
H25 H 0.5711 0.6281 0.6594
C30 C 0.6428(3) 0.6185(4) 0.6547(5)
C31 C 0.6827(3) 0.5626(4) 0.6613(5)
H26 H 0.7134 0.5818 0.6554
C32 C 0.6760(3) 0.4769(4) 0.6769(6)
C33 C 0.6313(3) 0.4470(4) 0.6817(5)
H27 H 0.6269 0.3887 0.6888
C34 C 0.5049(3) 0.5244(4) 0.6708(6)
H28 H 0.4953 0.5589 0.6084
H29 H 0.5146 0.5624 0.7304
C35 C 0.4128(3) 0.5105(4) 0.6478(6)
H30 H 0.4123 0.5700 0.6498
C36 C 0.4598(2) 0.4718(4) 0.6606(5)
C37 C 0.4586(3) 0.3848(5) 0.6575(7)
H31 H 0.4897 0.3551 0.6663
C38 C 0.4147(3) 0.3415(4) 0.6423(6)
H32 H 0.4144 0.2821 0.6413
C39 C 0.3698(3) 0.3864(5) 0.6282(7)
H33 H 0.3382 0.3564 0.6144
C40 C 0.6916(3) 0.7373(4) 0.6423(6)
H34 H 0.6978 0.7120 0.5857
H35 H 0.7227 0.7254 0.7077
C41 C 0.7256(3) 0.8770(4) 0.6238(6)
H36 H 0.7570 0.8485 0.6319
C42 C 0.6845(2) 0.8287(4) 0.6270(5)
C43 C 0.6388(3) 0.8696(4) 0.6158(6)
H37 H 0.6099 0.8395 0.6175
C44 C 0.6363(3) 0.9571(4) 0.6019(5)
H38 H 0.6061 0.9874 0.5967
C45 C 0.6780(3) 0.9983(5) 0.5959(6)
H39 H 0.6744 1.0565 0.5812
C46 C 0.7150(3) 0.3397(4) 0.6927(6)
H40 H 0.6799 0.3186 0.6440
H41 H 0.7205 0.3250 0.7632
C47 C 0.7561(3) 0.2160(4) 0.6492(6)
H42 H 0.7286 0.1838 0.6535
C48 C 0.7572(3) 0.3019(3) 0.6695(5)
C49 C 0.7975(2) 0.3484(4) 0.6621(6)
H43 H 0.8002 0.4069 0.6755
C50 C 0.8337(3) 0.3083(4) 0.6348(6)
H44 H 0.8614 0.3394 0.6295
C51 C 0.8294(3) 0.2231(4) 0.6154(6)
H45 H 0.8540 0.1968 0.5954
Ag2B Ag 0.78952(2) 1.03580(3) 0.59735(4)
Ag2B_2 Ag 0.78952(2) 0.03580(3) 0.59735(4)
N5B N 0.2241(2) 0.4601(3) 0.6101(4)
N6B N 0.2910(2) 0.6757(3) 0.6241(5)
S1 S 0.78680(12) 0.3219(2) 0.0028(3)
F1 F 0.8220(2) 0.4412(3) -0.0719(6)
F2 F 0.8813(2) 0.3778(3) 0.0536(6)
F3 F 0.8364(3) 0.4656(5) 0.0780(6)
O4 O 0.7365(2) 0.3601(3) -0.0427(5)
O5 O 0.8054(2) 0.2902(3) 0.1055(5)
O7 O 0.7862(12) 0.2569(18) -0.061(2)
C7 C 0.8333(4) 0.3996(6) 0.0118(8)
S3 S 0.4968(2) 0.2049(4) 0.1950(5)
F5 F 0.5290(5) 0.0495(9) 0.1908(11)
F6 F 0.4761(9) 0.1034(12) 0.0484(15)
F7 F 0.4471(5) 0.0578(7) 0.1346(10)
O8 O 0.5342(5) 0.2318(7) 0.1661(11)
O9 O 0.4470(4) 0.2391(7) 0.1398(9)
O10 O 0.5056(7) 0.1747(11) 0.3069(14)
C15 C 0.4894(6) 0.1062(11) 0.1487(13)
O14 O 0.3384(4) 0.7769(6) 0.3198(7)
H1 H 0.3268 0.7758 0.2556
C52 C 0.3445(5) 0.8646(8) 0.3551(11)
H46 H 0.3116 0.8836 0.3570
H47 H 0.3523 0.8999 0.3078
H48 H 0.3735 0.8685 0.4240
O15 O 0.4126(4) 0.6655(4) 0.4771(10)
H2 H 0.387(4) 0.695(7) 0.434(7)
H3 H 0.425(5) 0.697(7) 0.531(6)
N7 N 0.6019(4) 0.1970(5) 0.5798(7)
C53 C 0.5648(5) 0.1710(6) 0.5821(8)
C54 C 0.5178(4) 0.1343(7) 0.5891(10)
H49 H 0.4964 0.1041 0.5255
H50 H 0.4966 0.1791 0.5992
H51 H 0.5293 0.0954 0.6472
S2? S 0.7874(2) 0.3516(3) 0.0362(4)
F4? F 0.8034(6) 0.2728(9) -0.0684(13)
O6? O 0.7959(7) 0.4327(8) 0.0995(14)
C8? C 0.8311(6) 0.3550(9) -0.0332(12)
C55? C 0.4852(8) 0.0878(12) 0.2558(16)
F8? F 0.5226(6) 0.0576(9) 0.3433(13)
F9? F 0.4501(5) 0.1038(8) 0.2931(11)
F10? F 0.4623(6) 0.0166(10) 0.2220(14)
O16? O 0.5334(7) 0.1068(10) 0.1449(14)
O17? O 0.4447(8) 0.1681(11) 0.0920(15)
O18? O 0.5270(9) 0.2088(14) 0.284(2)
S4? S 0.4976(2) 0.1603(5) 0.1805(5)
loop_
_geom_bond_atom_site_label_1
_geom_bond_atom_site_label_2
_geom_bond_site_symmetry_1
_geom_bond_site_symmetry_2
Ag1 N1 1_555 1_555
Ag2 N4 1_555 1_555
S1 O4 1_555 1_555
S3 O8 1_555 1_555
F1 C7 1_555 1_555
F2 C7 1_555 1_555
F3 C7 1_555 1_555
F5 C15 1_555 1_555
F6 C15 1_555 1_555
F7 C15 1_555 1_555
O1 C1 1_555 1_555
O2 C3 1_555 1_555
O3 C5 1_555 1_555
O5 S1 1_555 1_555
O7 S1 1_555 1_555
O9 S3 1_555 1_555
O10 S3 1_555 1_555
O11 C28 1_555 1_555
O12 C30 1_555 1_555
O13 C32 1_555 1_555
O14 H1 1_555 1_555
O15 H2 1_555 1_555
H3 O15 1_555 1_555
N1 C10 1_555 1_555
N2 C17 1_555 1_555
N3 C23 1_555 1_555
N4 C35 1_555 1_555
N5 C41 1_555 1_555
N6 C47 1_555 1_555
N7 C53 1_555 1_555
C1 C2 1_555 1_555
C2 H4 1_555 1_555
C3 C2 1_555 1_555
C4 C3 1_555 1_555
H5 C4 1_555 1_555
C5 C4 1_555 1_555
C6 C1 1_555 1_555
H6 C6 1_555 1_555
C7 S1 1_555 1_555
C9 O1 1_555 1_555
H7 C9 1_555 1_555
H8 C9 1_555 1_555
C10 H9 1_555 1_555
C11 C9 1_555 1_555
C12 C11 1_555 1_555
H10 C12 1_555 1_555
C13 C12 1_555 1_555
H11 C13 1_555 1_555
C14 N1 1_555 1_555
H12 C14 1_555 1_555
C15 S3 1_555 1_555
C16 O2 1_555 1_555
H13 C16 1_555 1_555
H14 C16 1_555 1_555
C17 H15 1_555 1_555
C18 C16 1_555 1_555
C19 C18 1_555 1_555
H16 C19 1_555 1_555
C20 C19 1_555 1_555
H17 C20 1_555 1_555
C21 N2 1_555 1_555
H18 C21 1_555 1_555
C22 O3 1_555 1_555
H19 C22 1_555 1_555
H20 C22 1_555 1_555
C23 H21 1_555 1_555
C24 C22 1_555 1_555
C25 C24 1_555 1_555
H22 C25 1_555 1_555
C26 C25 1_555 1_555
H23 C26 1_555 1_555
C27 N3 1_555 1_555
H24 C27 1_555 1_555
C28 C29 1_555 1_555
C29 H25 1_555 1_555
C30 C29 1_555 1_555
C31 C30 1_555 1_555
H26 C31 1_555 1_555
C32 C31 1_555 1_555
C33 C28 1_555 1_555
H27 C33 1_555 1_555
C34 O11 1_555 1_555
H28 C34 1_555 1_555
H29 C34 1_555 1_555
C35 H30 1_555 1_555
C36 C34 1_555 1_555
C37 C36 1_555 1_555
H31 C37 1_555 1_555
C38 C37 1_555 1_555
H32 C38 1_555 1_555
C39 N4 1_555 1_555
H33 C39 1_555 1_555
C40 O12 1_555 1_555
H34 C40 1_555 1_555
H35 C40 1_555 1_555
C41 H36 1_555 1_555
C42 C40 1_555 1_555
C43 C42 1_555 1_555
H37 C43 1_555 1_555
C44 C43 1_555 1_555
H38 C44 1_555 1_555
C45 N5 1_555 1_555
H39 C45 1_555 1_555
C46 O13 1_555 1_555
H40 C46 1_555 1_555
H41 C46 1_555 1_555
C47 H42 1_555 1_555
C48 C46 1_555 1_555
C49 C48 1_555 1_555
H43 C49 1_555 1_555
C50 C49 1_555 1_555
H44 C50 1_555 1_555
C51 N6 1_555 1_555
H45 C51 1_555 1_555
C52 O14 1_555 1_555
H46 C52 1_555 1_555
H47 C52 1_555 1_555
H48 C52 1_555 1_555
C53 C54 1_555 1_555
C54 H49 1_555 1_555
H50 C54 1_555 1_555
H51 C54 1_555 1_555
Ag1B N2 1_555 1_555
Ag1B_2 N3 1_555 1_555
Ag2B N5 1_555 1_555
Ag2B_2 N6 1_555 1_555
N2B Ag1 1_555 1_555
N3B Ag1 1_555 1_555
N5B Ag2 1_555 1_555
N6B Ag2 1_555 1_555
C5 C6 1_555 1_555
C10 C11 1_555 1_555
C13 C14 1_555 1_555
C17 C18 1_555 1_555
C20 C21 1_555 1_555
C23 C24 1_555 1_555
C26 C27 1_555 1_555
C32 C33 1_555 1_555
C35 C36 1_555 1_555
C38 C39 1_555 1_555
C41 C42 1_555 1_555
C44 C45 1_555 1_555
C47 C48 1_555 1_555
C50 C51 1_555 1_555

#END
