
#######################################################################
#
#                 Cambridge Crystallographic Data Centre
#                                CCDC 
#
#######################################################################
#
# If this CIF has been generated from an entry in the Cambridge 
# Structural Database, then it will include bibliographic, chemical, 
# crystal, experimental, refinement or atomic coordinate data resulting 
# from the CCDC's data processing and validation procedures.
#
#######################################################################

data_IJISAW
_symmetry_cell_setting           monoclinic
_symmetry_space_group_name_H-M   'P 21/c'
_symmetry_Int_Tables_number      14
_space_group_name_Hall           '-P 2ybc'
loop_
_symmetry_equiv_pos_site_id
_symmetry_equiv_pos_as_xyz
1 x,y,z
2 -x,1/2+y,1/2-z
3 -x,-y,-z
4 x,1/2-y,1/2+z
_cell_length_a                   14.3728(3)
_cell_length_b                   12.9250(3)
_cell_length_c                   30.3665(5)
_cell_angle_alpha                90
_cell_angle_beta                 106.6880(10)
_cell_angle_gamma                90
_cell_volume                     5403.55
loop_
_atom_site_label
_atom_site_type_symbol
_atom_site_fract_x
_atom_site_fract_y
_atom_site_fract_z
Ag1 Ag 0.12720(2) 0.33833(2) 0.864609(10)
Ag2 Ag 0.36334(2) 0.78272(2) 0.633495(10)
O1 O 0.26778(15) 0.63882(17) 0.83792(7)
O2 O 0.04762(15) 0.62227(17) 0.68725(7)
O3 O 0.32927(16) 0.83628(17) 0.71621(7)
O4 O 0.23361(15) 0.47344(17) 0.66042(7)
O5 O 0.45124(15) 0.49525(16) 0.81116(6)
O6 O 0.17251(16) 0.27805(17) 0.78251(7)
N2 N 0.2385(2) 0.4426(2) 0.91362(9)
N3 N -0.1500(2) 0.6659(2) 0.61611(9)
N4 N 0.48222(19) 0.7243(2) 0.69586(9)
N5 N 0.2543(2) 0.6740(2) 0.58537(9)
N6 N 0.6524(2) 0.4537(2) 0.88420(9)
N7 N 0.0153(2) 0.3904(2) 0.79934(9)
C1 C 0.2375(2) 0.6671(3) 0.79198(10)
C2 C 0.1537(2) 0.6302(2) 0.76098(10)
H2 H 0.1118 0.5839 0.7705
C3 C 0.1327(2) 0.6628(3) 0.71572(10)
C4 C 0.1916(2) 0.7315(3) 0.70162(10)
H3 H 0.1750 0.7543 0.6706
C5 C 0.2758(2) 0.7672(2) 0.73350(11)
C6 C 0.3000(2) 0.7357(2) 0.77862(10)
H4 H 0.3577 0.7598 0.8002
C7 C 0.2063(2) 0.5711(2) 0.85327(9)
H5 H 0.1903 0.5098 0.8330
H6 H 0.1451 0.6067 0.8528
C8 C 0.2597(2) 0.5386(3) 0.90155(11)
C9 C 0.3249(3) 0.6032(3) 0.93156(11)
H7 H 0.3375 0.6701 0.9216
C10 C 0.3717(3) 0.5720(3) 0.97559(13)
H8 H 0.4158 0.6160 0.9967
C11 C 0.3511(3) 0.4733(4) 0.98758(12)
H9 H 0.3824 0.4478 1.0175
C12 C 0.2845(3) 0.4105(3) 0.95611(13)
H10 H 0.2716 0.3429 0.9653
C13 C 0.0244(2) 0.6435(3) 0.63869(9)
H11 H 0.0710 0.6087 0.6251
H12 H 0.0258 0.7188 0.6330
C14 C -0.0751(3) 0.6013(3) 0.61914(11)
C15 C -0.0912(3) 0.4963(3) 0.60811(11)
H13 H -0.0377 0.4514 0.6103
C16 C -0.1841(4) 0.4584(4) 0.59416(12)
H14 H -0.1958 0.3873 0.5866
C17 C -0.2605(3) 0.5259(5) 0.59126(13)
H15 H -0.3257 0.5020 0.5819
C18 C -0.2395(3) 0.6303(4) 0.60251(12)
H16 H -0.2918 0.6769 0.6002
C19 C 0.4297(2) 0.8529(3) 0.74190(10)
H17 H 0.4340 0.8638 0.7747
H18 H 0.4537 0.9163 0.7305
C20 C 0.4931(2) 0.7636(3) 0.73792(11)
C21 C 0.5649(2) 0.7277(3) 0.77556(11)
H19 H 0.5718 0.7561 0.8052
C22 C 0.6267(3) 0.6501(3) 0.76991(12)
H20 H 0.6766 0.6252 0.7955
C23 C 0.6150(3) 0.6096(3) 0.72679(13)
H21 H 0.6559 0.5556 0.7220
C24 C 0.5428(3) 0.6490(3) 0.69099(11)
H22 H 0.5351 0.6217 0.6611
C25 C 0.2641(2) 0.4467(3) 0.70647(10)
C26 C 0.3455(2) 0.4843(2) 0.73716(10)
H23 H 0.3868 0.5311 0.7276
C27 C 0.3672(2) 0.4531(3) 0.78284(10)
C28 C 0.3093(2) 0.3840(2) 0.79761(10)
H24 H 0.3256 0.3616 0.8287
C29 C 0.2259(2) 0.3483(3) 0.76501(11)
C30 C 0.2021(2) 0.3788(3) 0.71956(10)
H25 H 0.1448 0.3540 0.6979
C31 C 0.2947(2) 0.5448(2) 0.64506(9)
H26 H 0.3568 0.5110 0.6456
H27 H 0.3091 0.6059 0.6656
C32 C 0.2413(2) 0.5774(3) 0.59690(11)
C33 C 0.1813(3) 0.5084(3) 0.56637(12)
H28 H 0.1728 0.4394 0.5753
C34 C 0.1347(3) 0.5439(4) 0.52268(13)
H29 H 0.0932 0.4989 0.5010
C35 C 0.1480(3) 0.6427(4) 0.51066(14)
H30 H 0.1172 0.6678 0.4806
C36 C 0.2066(3) 0.7045(3) 0.54303(12)
H31 H 0.2141 0.7744 0.5349
C37 C 0.4776(2) 0.4721(3) 0.85955(9)
H32 H 0.4792 0.3963 0.8647
H33 H 0.4306 0.5033 0.8739
C38 C 0.5771(3) 0.5183(3) 0.87932(10)
C39 C 0.5861(3) 0.6204(3) 0.88872(11)
H34 H 0.5302 0.6624 0.8851
C40 C 0.6784(4) 0.6631(4) 0.90382(13)
H35 H 0.6868 0.7347 0.9109
C41 C 0.7567(3) 0.6005(4) 0.90831(13)
H36 H 0.8206 0.6280 0.9181
C42 C 0.7421(3) 0.4970(4) 0.89859(12)
H37 H 0.7972 0.4538 0.9021
C43 C 0.0739(2) 0.2584(2) 0.75642(10)
H38 H 0.0507 0.1952 0.7685
H39 H 0.0715 0.2450 0.7240
C44 C 0.0060(2) 0.3474(3) 0.75806(11)
C45 C -0.0651(2) 0.3781(3) 0.71925(11)
H40 H -0.0701 0.3461 0.6905
C46 C -0.1292(3) 0.4558(3) 0.72238(12)
H41 H -0.1785 0.4778 0.6959
C47 C -0.1204(3) 0.5003(3) 0.76411(14)
H42 H -0.1637 0.5534 0.7673
C48 C -0.0478(3) 0.4667(3) 0.80135(12)
H43 H -0.0414 0.4988 0.8302
Ag1A Ag -0.12720(2) 0.83833(2) 0.635391(10)
Ag2A Ag 0.63666(2) 0.28272(2) 0.866505(10)
N3A N 0.1500(2) 0.1659(2) 0.88389(9)
N6A N 0.3476(2) 0.9537(2) 0.61580(9)
F1 F 0.0478(15) 0.2839(19) 0.5835(8)
F2 F -0.0175(13) 0.1246(15) 0.5747(5)
F3 F 0.0654(13) 0.1812(9) 0.6430(3)
F4 F -0.0801(12) 0.2498(6) 0.6078(6)
B1 B -0.0031(5) 0.2043(6) 0.5997(2)
F5 F 0.5617(2) 0.3280(2) 0.59301(10)
F6 F 0.4725(2) 0.36696(19) 0.63884(8)
F7 F 0.5144(2) 0.4908(2) 0.59710(9)
F8 F 0.4131(3) 0.3779(3) 0.56471(12)
B2 B 0.4930(9) 0.3922(11) 0.5998(4)
O7 O -0.0066(3) 0.3863(3) 0.91781(10)
H1 H 0.0030 0.4496 0.9146
C49 C 0.0311(4) 0.3571(5) 0.96886(19)
H44 H 0.0427 0.4201 0.9876
H45 H 0.0919 0.3183 0.9742
H46 H -0.0173 0.3142 0.9773
N1 N 0.4951(3) 0.2524(3) 0.92460(12)
C50 C 0.5287(3) 0.1993(3) 0.95235(14)
C51 C 0.5786(3) 0.1284(3) 0.98952(11)
H47 H 0.6336 0.1643 1.0107
H48 H 0.6025 0.0682 0.9764
H49 H 0.5332 0.1056 1.0062
B3? B 0.536(3) 0.396(4) 0.6170(13)
F9? F 0.0392(14) 0.2567(18) 0.5749(7)
F10? F 0.0131(17) 0.1013(12) 0.5967(6)
F11? F 0.0022(15) 0.2254(17) 0.6411(4)
F12? F -0.1075(5) 0.2053(15) 0.5746(7)
F13? F 0.6086(9) 0.4378(7) 0.6484(3)
loop_
_geom_bond_atom_site_label_1
_geom_bond_atom_site_label_2
_geom_bond_site_symmetry_1
_geom_bond_site_symmetry_2
Ag1 N2 1_555 1_555
Ag2 N4 1_555 1_555
F1 B1 1_555 1_555
F2 B1 1_555 1_555
F3 B1 1_555 1_555
F4 B1 1_555 1_555
F5 B2 1_555 1_555
F6 B2 1_555 1_555
F7 B2 1_555 1_555
F8 B2 1_555 1_555
O1 C1 1_555 1_555
O2 C3 1_555 1_555
O3 C5 1_555 1_555
O4 C25 1_555 1_555
O5 C27 1_555 1_555
O6 C29 1_555 1_555
O7 H1 1_555 1_555
N1 C50 1_555 1_555
N2 C8 1_555 1_555
N3 C14 1_555 1_555
N4 C20 1_555 1_555
N5 Ag2 1_555 1_555
N6 C38 1_555 1_555
N7 Ag1 1_555 1_555
C1 C2 1_555 1_555
C2 H2 1_555 1_555
C3 C2 1_555 1_555
C4 C3 1_555 1_555
H3 C4 1_555 1_555
C5 C4 1_555 1_555
C6 C1 1_555 1_555
H4 C6 1_555 1_555
C7 O1 1_555 1_555
H5 C7 1_555 1_555
H6 C7 1_555 1_555
C8 C7 1_555 1_555
C9 C8 1_555 1_555
H7 C9 1_555 1_555
C10 C9 1_555 1_555
H8 C10 1_555 1_555
C11 C10 1_555 1_555
H9 C11 1_555 1_555
C12 N2 1_555 1_555
H10 C12 1_555 1_555
C13 O2 1_555 1_555
H11 C13 1_555 1_555
H12 C13 1_555 1_555
C14 C13 1_555 1_555
C15 C14 1_555 1_555
H13 C15 1_555 1_555
C16 C15 1_555 1_555
H14 C16 1_555 1_555
C17 C16 1_555 1_555
H15 C17 1_555 1_555
C18 N3 1_555 1_555
H16 C18 1_555 1_555
C19 O3 1_555 1_555
H17 C19 1_555 1_555
H18 C19 1_555 1_555
C20 C19 1_555 1_555
C21 C20 1_555 1_555
H19 C21 1_555 1_555
C22 C21 1_555 1_555
H20 C22 1_555 1_555
C23 C22 1_555 1_555
H21 C23 1_555 1_555
C24 N4 1_555 1_555
H22 C24 1_555 1_555
C25 C26 1_555 1_555
C26 H23 1_555 1_555
C27 C26 1_555 1_555
C28 C27 1_555 1_555
H24 C28 1_555 1_555
C29 C28 1_555 1_555
C30 C25 1_555 1_555
H25 C30 1_555 1_555
C31 O4 1_555 1_555
H26 C31 1_555 1_555
H27 C31 1_555 1_555
C32 N5 1_555 1_555
C33 C32 1_555 1_555
H28 C33 1_555 1_555
C34 C33 1_555 1_555
H29 C34 1_555 1_555
C35 C34 1_555 1_555
H30 C35 1_555 1_555
C36 N5 1_555 1_555
H31 C36 1_555 1_555
C37 O5 1_555 1_555
H32 C37 1_555 1_555
H33 C37 1_555 1_555
C38 C37 1_555 1_555
C39 C38 1_555 1_555
H34 C39 1_555 1_555
C40 C39 1_555 1_555
H35 C40 1_555 1_555
C41 C40 1_555 1_555
H36 C41 1_555 1_555
C42 N6 1_555 1_555
H37 C42 1_555 1_555
C43 O6 1_555 1_555
H38 C43 1_555 1_555
H39 C43 1_555 1_555
C44 N7 1_555 1_555
C45 C44 1_555 1_555
H40 C45 1_555 1_555
C46 C45 1_555 1_555
H41 C46 1_555 1_555
C47 C46 1_555 1_555
H42 C47 1_555 1_555
C48 N7 1_555 1_555
H43 C48 1_555 1_555
C49 O7 1_555 1_555
H44 C49 1_555 1_555
H45 C49 1_555 1_555
H46 C49 1_555 1_555
C50 C51 1_555 1_555
C51 H47 1_555 1_555
H48 C51 1_555 1_555
H49 C51 1_555 1_555
Ag1A N3 1_555 1_555
Ag2A N6 1_555 1_555
N3A Ag1 1_555 1_555
N6A Ag2 1_555 1_555
C5 C6 1_555 1_555
C11 C12 1_555 1_555
C17 C18 1_555 1_555
C23 C24 1_555 1_555
C29 C30 1_555 1_555
C31 C32 1_555 1_555
C35 C36 1_555 1_555
C41 C42 1_555 1_555
C43 C44 1_555 1_555
C47 C48 1_555 1_555

#END
