
#######################################################################
#
#                 Cambridge Crystallographic Data Centre
#                                CCDC 
#
#######################################################################
#
# If this CIF has been generated from an entry in the Cambridge 
# Structural Database, then it will include bibliographic, chemical, 
# crystal, experimental, refinement or atomic coordinate data resulting 
# from the CCDC's data processing and validation procedures.
#
#######################################################################

data_IJISEA
_symmetry_cell_setting           monoclinic
_symmetry_space_group_name_H-M   'P 21/c'
_symmetry_Int_Tables_number      14
_space_group_name_Hall           '-P 2ybc'
loop_
_symmetry_equiv_pos_site_id
_symmetry_equiv_pos_as_xyz
1 x,y,z
2 -x,1/2+y,1/2-z
3 -x,-y,-z
4 x,1/2-y,1/2+z
_cell_length_a                   15.230(9)
_cell_length_b                   9.091(7)
_cell_length_c                   18.952(10)
_cell_angle_alpha                90
_cell_angle_beta                 101.841(17)
_cell_angle_gamma                90
_cell_volume                     2568.18
loop_
_atom_site_label
_atom_site_type_symbol
_atom_site_fract_x
_atom_site_fract_y
_atom_site_fract_z
Ag1 Ag 0.774292(11) 0.64158(2) 0.771157(8)
S1 S 0.65194(4) 0.53559(8) 0.89925(3)
F1 F 0.71642(13) 0.6992(2) 1.01021(8)
F2 F 0.71776(11) 0.4701(2) 1.03399(7)
F3 F 0.59551(10) 0.59036(18) 1.01762(7)
O1 O 0.80153(8) 0.35983(17) 0.56571(6)
O2 O 1.11536(8) 0.45226(16) 0.62985(6)
O3 O 0.99869(8) 0.15905(16) 0.42521(6)
O4 O 0.74099(10) 0.5275(2) 0.88537(8)
O5 O 0.60197(10) 0.6595(2) 0.86675(7)
O6 O 0.60308(15) 0.3998(2) 0.89305(10)
N1 N 0.66945(11) 0.53036(19) 0.67991(8)
N2 N 1.28708(10) 0.37913(19) 0.73730(8)
N3 N 0.92666(10) -0.11410(18) 0.29070(7)
C1 C 0.88732(12) 0.3451(2) 0.55496(9)
C2 C 0.96155(12) 0.4107(2) 0.59823(9)
H1 H 0.9550 0.4700 0.6381
C3 C 1.04527(12) 0.3880(2) 0.58233(9)
C4 C 1.05607(13) 0.3051(2) 0.52359(9)
H2 H 1.1135 0.2928 0.5121
C5 C 0.98007(13) 0.2400(2) 0.48186(9)
C6 C 0.89613(12) 0.2563(2) 0.49627(9)
H3 H 0.8456 0.2091 0.4675
C7 C 0.67106(17) 0.5763(3) 0.99460(12)
C8 C 0.78784(13) 0.4556(2) 0.62158(10)
H4 H 0.8076 0.5563 0.6124
H5 H 0.8236 0.4218 0.6684
C9 C 0.69005(13) 0.4564(2) 0.62402(9)
C10 C 0.62527(13) 0.3864(2) 0.57293(10)
H6 H 0.6415 0.3349 0.5339
C11 C 0.53709(14) 0.3930(2) 0.57977(11)
H7 H 0.4917 0.3453 0.5456
C12 C 0.51515(14) 0.4691(3) 0.63646(11)
H8 H 0.4547 0.4750 0.6420
C13 C 0.58276(14) 0.5363(3) 0.68491(11)
H9 H 0.5675 0.5896 0.7238
C14 C 1.20379(12) 0.4279(2) 0.61687(9)
H10 H 1.2126 0.4846 0.5742
H11 H 1.2129 0.3222 0.6079
C15 C 1.26863(12) 0.4783(2) 0.68312(9)
C16 C 1.30732(13) 0.6149(2) 0.68751(11)
H12 H 1.2928 0.6820 0.6484
C17 C 1.36821(14) 0.6540(3) 0.75010(12)
H13 H 1.3959 0.7481 0.7545
C18 C 1.38743(14) 0.5537(3) 0.80526(11)
H14 H 1.4291 0.5768 0.8484
C19 C 1.34547(14) 0.4195(3) 0.79697(11)
H15 H 1.3586 0.3513 0.8357
C20 C 0.93573(12) 0.0499(2) 0.39292(9)
H16 H 0.8802 0.0966 0.3659
H17 H 0.9200 -0.0154 0.4303
C21 C 0.98119(13) -0.0362(2) 0.34268(9)
C22 C 1.07308(13) -0.0348(2) 0.34906(10)
H18 H 1.1098 0.0178 0.3874
C23 C 1.11168(14) -0.1092(2) 0.30003(10)
H19 H 1.1747 -0.1065 0.3032
C24 C 1.05710(15) -0.1875(2) 0.24632(10)
H20 H 1.0816 -0.2396 0.2114
C25 C 0.96613(15) -0.1890(2) 0.24415(10)
H21 H 0.9290 -0.2460 0.2078
Ag1A Ag 1.225708(11) 0.14158(2) 0.728843(8)
Ag1C Ag 0.774292(11) -0.14158(2) 0.271157(8)
N2A N 0.71292(10) 0.87913(19) 0.76270(8)
N3C N 0.92666(10) 0.61410(18) 0.79070(7)
loop_
_geom_bond_atom_site_label_1
_geom_bond_atom_site_label_2
_geom_bond_site_symmetry_1
_geom_bond_site_symmetry_2
Ag1 O4 1_555 1_555
S1 O4 1_555 1_555
F1 C7 1_555 1_555
F2 C7 1_555 1_555
F3 C7 1_555 1_555
O1 C1 1_555 1_555
O2 C3 1_555 1_555
O3 C5 1_555 1_555
O5 S1 1_555 1_555
O6 S1 1_555 1_555
N1 Ag1 1_555 1_555
N2 C15 1_555 1_555
N3 C21 1_555 1_555
C1 C2 1_555 1_555
C2 H1 1_555 1_555
C3 C2 1_555 1_555
C4 C3 1_555 1_555
H2 C4 1_555 1_555
C5 C4 1_555 1_555
C6 C1 1_555 1_555
H3 C6 1_555 1_555
C7 S1 1_555 1_555
C8 O1 1_555 1_555
H4 C8 1_555 1_555
H5 C8 1_555 1_555
C9 N1 1_555 1_555
C10 C9 1_555 1_555
H6 C10 1_555 1_555
C11 C10 1_555 1_555
H7 C11 1_555 1_555
C12 C11 1_555 1_555
H8 C12 1_555 1_555
C13 N1 1_555 1_555
H9 C13 1_555 1_555
C14 O2 1_555 1_555
H10 C14 1_555 1_555
H11 C14 1_555 1_555
C15 C14 1_555 1_555
C16 C15 1_555 1_555
H12 C16 1_555 1_555
C17 C16 1_555 1_555
H13 C17 1_555 1_555
C18 C17 1_555 1_555
H14 C18 1_555 1_555
C19 N2 1_555 1_555
H15 C19 1_555 1_555
C20 O3 1_555 1_555
H16 C20 1_555 1_555
H17 C20 1_555 1_555
C21 C20 1_555 1_555
C22 C21 1_555 1_555
H18 C22 1_555 1_555
C23 C22 1_555 1_555
H19 C23 1_555 1_555
C24 C23 1_555 1_555
H20 C24 1_555 1_555
C25 N3 1_555 1_555
H21 C25 1_555 1_555
Ag1A N2 1_555 1_555
Ag1C N3 1_555 1_555
N2A Ag1 1_555 1_555
N3C Ag1 1_555 1_555
C5 C6 1_555 1_555
C8 C9 1_555 1_555
C12 C13 1_555 1_555
C18 C19 1_555 1_555
C24 C25 1_555 1_555

#END
