
#######################################################################
#
#                 Cambridge Crystallographic Data Centre
#                                CCDC 
#
#######################################################################
#
# If this CIF has been generated from an entry in the Cambridge 
# Structural Database, then it will include bibliographic, chemical, 
# crystal, experimental, refinement or atomic coordinate data resulting 
# from the CCDC's data processing and validation procedures.
#
#######################################################################

data_IJISOK
_symmetry_cell_setting           orthorhombic
_symmetry_space_group_name_H-M   'P n a 21'
_symmetry_Int_Tables_number      33
_space_group_name_Hall           'P 2c -2n'
loop_
_symmetry_equiv_pos_site_id
_symmetry_equiv_pos_as_xyz
1 x,y,z
2 1/2-x,1/2+y,1/2+z
3 1/2+x,1/2-y,z
4 -x,-y,1/2+z
_cell_length_a                   22.258(15)
_cell_length_b                   11.154(9)
_cell_length_c                   10.409(9)
_cell_angle_alpha                90
_cell_angle_beta                 90
_cell_angle_gamma                90
_cell_volume                     2584.2
loop_
_atom_site_label
_atom_site_type_symbol
_atom_site_fract_x
_atom_site_fract_y
_atom_site_fract_z
Ag1 Ag 0.697080(15) 0.19142(4) -0.15397(4)
O1 O 0.72152(14) 0.4238(3) 0.4416(3)
O2 O 0.75012(12) 0.5695(3) 0.8670(4)
O3 O 0.91903(13) 0.4808(3) 0.6029(3)
N1 N 0.66871(17) 0.2723(4) 0.0289(4)
N2 N 0.72084(17) 0.6690(4) 1.2297(4)
N3 N 1.11283(17) 0.3355(4) 0.7156(4)
C1 C 0.7609(2) 0.4581(4) 0.5356(5)
C2 C 0.7338(2) 0.4953(5) 0.6526(5)
H2 H 0.6913 0.4968 0.6615
C3 C 0.7699(2) 0.5287(4) 0.7511(5)
C4 C 0.8334(2) 0.5249(5) 0.7413(5)
H3 H 0.8585 0.5479 0.8109
C5 C 0.8572(2) 0.4862(5) 0.6256(5)
C6 C 0.82277(19) 0.4552(4) 0.5228(5)
H4 H 0.8408 0.4319 0.4439
C7 C 0.74620(19) 0.3828(4) 0.3246(5)
H5 H 0.7707 0.3100 0.3399
H6 H 0.7725 0.4453 0.2873
C8 C 0.71017(18) 0.3044(4) 0.1151(4)
H7 H 0.7513 0.2923 0.0947
C9 C 0.6957(2) 0.3546(4) 0.2335(4)
C10 C 0.6356(2) 0.3753(4) 0.2608(5)
H8 H 0.6241 0.4136 0.3386
C11 C 0.5927(2) 0.3392(5) 0.1731(5)
H9 H 0.5512 0.3486 0.1918
C12 C 0.6106(2) 0.2898(5) 0.0591(5)
H10 H 0.5807 0.2668 -0.0012
C13 C 0.68653(17) 0.5710(4) 0.8905(4)
H11 H 0.6696 0.4893 0.8815
H12 H 0.6661 0.6246 0.8287
C14 C 0.7258(2) 0.6282(5) 1.1088(5)
H13 H 0.7647 0.6064 1.0790
C15 C 0.6782(2) 0.6159(4) 1.0252(5)
C16 C 0.6225(2) 0.6465(5) 1.0708(6)
H14 H 0.5885 0.6387 1.0163
C17 C 0.6149(2) 0.6885(5) 1.1947(6)
H15 H 0.5764 0.7103 1.2261
C18 C 0.6656(2) 0.6974(5) 1.2713(5)
H16 H 0.6610 0.7249 1.3571
C19 C 0.95936(18) 0.4793(5) 0.7073(5)
H17 H 0.9404 0.4410 0.7830
H18 H 0.9711 0.5620 0.7308
C20 C 1.0635(2) 0.3975(5) 0.7450(5)
H19 H 1.0626 0.4366 0.8260
C21 C 1.01307(19) 0.4094(4) 0.6658(5)
C22 C 1.0167(2) 0.3530(5) 0.5468(5)
H20 H 0.9841 0.3581 0.4882
C23 C 1.0674(2) 0.2899(6) 0.5141(6)
H21 H 1.0702 0.2519 0.4327
C24 C 1.1141(2) 0.2822(5) 0.6005(6)
H22 H 1.1487 0.2372 0.5774
Ag1A Ag 0.802920(15) 0.69142(4) 1.34603(4)
Ag1B Ag 1.197080(15) 0.30858(4) 0.84603(4)
N2A N 0.77916(17) 0.1690(4) -0.2703(4)
N3B N 0.61283(17) 0.1645(4) -0.2844(4)
Cl1 Cl 0.59080(9) 0.7844(2) 0.61274(18)
O4 O 0.6113(4) 0.6676(8) 0.5901(8)
O5 O 0.6369(2) 0.8665(9) 0.5855(8)
O6 O 0.5711(3) 0.7969(6) 0.7409(5)
O7 O 0.5443(2) 0.8098(5) 0.5302(5)
O8 O 0.4650(5) 0.5266(11) 0.2801(13)
H1 H 0.4702 0.5986 0.2593
C25 C 0.5009(6) 0.4993(12) 0.3985(14)
H23 H 0.5437 0.5115 0.3806
H24 H 0.4941 0.4159 0.4241
H25 H 0.4883 0.5529 0.4682
loop_
_geom_bond_atom_site_label_1
_geom_bond_atom_site_label_2
_geom_bond_site_symmetry_1
_geom_bond_site_symmetry_2
Ag1 N1 1_555 1_555
Cl1 O4 1_555 1_555
O1 C1 1_555 1_555
O2 C3 1_555 1_555
O3 C5 1_555 1_555
O5 Cl1 1_555 1_555
O6 Cl1 1_555 1_555
O7 Cl1 1_555 1_555
O8 H1 1_555 1_555
N1 C8 1_555 1_555
N2 C14 1_555 1_555
N3 C20 1_555 1_555
C1 C2 1_555 1_555
C2 H2 1_555 1_555
C3 C2 1_555 1_555
C4 C3 1_555 1_555
H3 C4 1_555 1_555
C5 C4 1_555 1_555
C6 C1 1_555 1_555
H4 C6 1_555 1_555
C7 O1 1_555 1_555
H5 C7 1_555 1_555
H6 C7 1_555 1_555
C8 H7 1_555 1_555
C9 C7 1_555 1_555
C10 C9 1_555 1_555
H8 C10 1_555 1_555
C11 C10 1_555 1_555
H9 C11 1_555 1_555
C12 N1 1_555 1_555
H10 C12 1_555 1_555
C13 O2 1_555 1_555
H11 C13 1_555 1_555
H12 C13 1_555 1_555
C14 H13 1_555 1_555
C15 C13 1_555 1_555
C16 C15 1_555 1_555
H14 C16 1_555 1_555
C17 C16 1_555 1_555
H15 C17 1_555 1_555
C18 N2 1_555 1_555
H16 C18 1_555 1_555
C19 O3 1_555 1_555
H17 C19 1_555 1_555
H18 C19 1_555 1_555
C20 H19 1_555 1_555
C21 C19 1_555 1_555
C22 C21 1_555 1_555
H20 C22 1_555 1_555
C23 C22 1_555 1_555
H21 C23 1_555 1_555
C24 N3 1_555 1_555
H22 C24 1_555 1_555
C25 O8 1_555 1_555
H23 C25 1_555 1_555
H24 C25 1_555 1_555
H25 C25 1_555 1_555
Ag1A N2 1_555 1_555
Ag1B N3 1_555 1_555
N2A Ag1 1_555 1_555
N3B Ag1 1_555 1_555
C5 C6 1_555 1_555
C8 C9 1_555 1_555
C11 C12 1_555 1_555
C14 C15 1_555 1_555
C17 C18 1_555 1_555
C20 C21 1_555 1_555
C23 C24 1_555 1_555

#END
