
#######################################################################
#
#                 Cambridge Crystallographic Data Centre
#                                CCDC 
#
#######################################################################
#
# If this CIF has been generated from an entry in the Cambridge 
# Structural Database, then it will include bibliographic, chemical, 
# crystal, experimental, refinement or atomic coordinate data resulting 
# from the CCDC's data processing and validation procedures.
#
#######################################################################

data_IJIYOQ01
_symmetry_cell_setting           monoclinic
_symmetry_space_group_name_H-M   'P 21/c'
_symmetry_Int_Tables_number      14
_space_group_name_Hall           '-P 2ybc'
loop_
_symmetry_equiv_pos_site_id
_symmetry_equiv_pos_as_xyz
1 x,y,z
2 -x,1/2+y,1/2-z
3 -x,-y,-z
4 x,1/2-y,1/2+z
_cell_length_a                   11.657(2)
_cell_length_b                   4.5343(9)
_cell_length_c                   14.172(3)
_cell_angle_alpha                90
_cell_angle_beta                 90.00(3)
_cell_angle_gamma                90
_cell_volume                     749.08
loop_
_atom_site_label
_atom_site_type_symbol
_atom_site_fract_x
_atom_site_fract_y
_atom_site_fract_z
Pb1 Pb 0.60757(3) 1.01612(9) 0.64113(2)
N1 N 0.7428(6) 0.8676(17) 0.7824(4)
O1 O 0.6883(8) 0.9407(17) 1.0879(5)
O2 O 0.8228(5) 1.2812(16) 1.0704(4)
O3 O 0.5997(6) 1.3379(17) 0.9414(4)
O4 O 0.5379(6) 1.1218(18) 0.8122(4)
C1 C 0.6115(8) 1.163(2) 0.8766(5)
C2 C 0.7688(9) 1.066(2) 1.0411(6)
C3 C 0.7967(9) 0.948(2) 0.9450(7)
C4 C 0.8949(8) 0.785(2) 0.9299(5)
H1 H 0.9459 0.7527 0.9793
C5 C 0.9178(9) 0.669(3) 0.8415(6)
H2 H 0.9847 0.5625 0.8304
C6 C 0.8388(8) 0.714(2) 0.7703(6)
H3 H 0.8535 0.6332 0.7112
C7 C 0.7200(10) 0.9853(16) 0.8672(7)
Pb1C Pb 0.60757(3) 0.48388(9) 1.14113(2)
Pb1C_2 Pb 0.60757(3) 1.48388(9) 1.14113(2)
Pb1A Pb 0.39243(3) 1.51612(9) 0.85887(2)
O1C O 0.6883(8) 0.5593(17) 0.5879(5)
O1C_2 O 0.6883(8) 1.5593(17) 0.5879(5)
O2C O 0.8228(5) 1.2188(16) 0.5704(4)
O3C O 0.5997(6) 1.1621(17) 0.4414(4)
O3A O 0.4003(6) 0.8379(17) 0.5586(4)
O4A O 0.4621(6) 0.6218(18) 0.6878(4)
loop_
_geom_bond_atom_site_label_1
_geom_bond_atom_site_label_2
_geom_bond_site_symmetry_1
_geom_bond_site_symmetry_2
Pb1 N1 1_555 1_555
N1 C6 1_555 1_555
O1 C2 1_555 1_555
O2 C2 1_555 1_555
O3 C1 1_555 1_555
O4 Pb1 1_555 1_555
C1 O4 1_555 1_555
C2 C3 1_555 1_555
C3 C4 1_555 1_555
C4 H1 1_555 1_555
C5 C4 1_555 1_555
H2 C5 1_555 1_555
C6 C5 1_555 1_555
H3 C6 1_555 1_555
C7 N1 1_555 1_555
Pb1C O1 1_555 1_555
Pb1C_2 O1 1_555 1_555
Pb1A O3 1_555 1_555
O1C Pb1 1_555 1_555
O1C_2 Pb1 1_555 1_555
O2C Pb1 1_555 1_555
O3C Pb1 1_555 1_555
O3A Pb1 1_555 1_555
O4A Pb1 1_555 1_555
O2 Pb1C_2 1_555 1_555
O3 Pb1C_2 1_555 1_555
O4 Pb1A 1_555 1_555
C1 C7 1_555 1_555
C3 C7 1_555 1_555

#END
