
#######################################################################
#
#                 Cambridge Crystallographic Data Centre
#                                CCDC 
#
#######################################################################
#
# If this CIF has been generated from an entry in the Cambridge 
# Structural Database, then it will include bibliographic, chemical, 
# crystal, experimental, refinement or atomic coordinate data resulting 
# from the CCDC's data processing and validation procedures.
#
#######################################################################

data_IJOHAR
_symmetry_cell_setting           monoclinic
_symmetry_space_group_name_H-M   'P 21/c'
_symmetry_Int_Tables_number      14
_space_group_name_Hall           '-P 2ybc'
loop_
_symmetry_equiv_pos_site_id
_symmetry_equiv_pos_as_xyz
1 x,y,z
2 -x,1/2+y,1/2-z
3 -x,-y,-z
4 x,1/2-y,1/2+z
_cell_length_a                   9.7116(3)
_cell_length_b                   10.0302(2)
_cell_length_c                   9.4984(3)
_cell_angle_alpha                90
_cell_angle_beta                 110.821(2)
_cell_angle_gamma                90
_cell_volume                     864.811
loop_
_atom_site_label
_atom_site_type_symbol
_atom_site_fract_x
_atom_site_fract_y
_atom_site_fract_z
Cu1 Cu 0.49099(7) 0.34456(6) 0.41130(7)
N1 N 0.2180(5) 0.4606(4) 0.3842(5)
O1 O 0.3577(4) 0.4929(4) 0.4067(4)
O2 O 0.4245(4) 0.2618(4) 0.5602(4)
O3 O 0.2807(5) 0.2489(5) 0.6967(5)
C1 C 0.1845(6) 0.3627(6) 0.4668(6)
C2 C 0.0387(7) 0.3350(6) 0.4398(7)
H1 H 0.0140 0.2691 0.4987
C3 C -0.0713(6) 0.4001(7) 0.3300(7)
H2 H -0.1715 0.3771 0.3092
C4 C -0.0343(7) 0.5010(7) 0.2490(8)
H3 H -0.1092 0.5496 0.1744
C5 C 0.1116(7) 0.5293(6) 0.2782(7)
H4 H 0.1377 0.5978 0.2232
C6 C 0.3066(6) 0.2862(5) 0.5851(6)
Br1 Br 0.67758(6) 0.17677(6) 0.45034(7)
O4 O 0.5513(4) 0.4396(4) 0.2586(4)
H5 H 0.5328 0.3904 0.1812
H6 H 0.4763 0.4764 0.1945
Cu1B Cu 0.50901(7) 0.65544(6) 0.58870(7)
Cu1C Cu 0.49099(7) 0.15544(6) 0.91130(7)
O1B O 0.6423(4) 0.5071(4) 0.5933(4)
O3C O 0.2807(5) 0.2511(5) 0.1967(5)
loop_
_geom_bond_atom_site_label_1
_geom_bond_atom_site_label_2
_geom_bond_site_symmetry_1
_geom_bond_site_symmetry_2
Cu1 O1 1_555 1_555
N1 O1 1_555 1_555
O1 Cu1B 1_555 1_555
O2 Cu1 1_555 1_555
O3 C6 1_555 1_555
C1 N1 1_555 1_555
C2 C1 1_555 1_555
H1 C2 1_555 1_555
C3 C2 1_555 1_555
H2 C3 1_555 1_555
C4 C3 1_555 1_555
H3 C4 1_555 1_555
C5 N1 1_555 1_555
H4 C5 1_555 1_555
C6 O2 1_555 1_555
Br1 Cu1 1_555 1_555
O4 Cu1 1_555 1_555
H5 O4 1_555 1_555
H6 O4 1_555 1_555
Cu1B O1B 1_555 1_555
Cu1C O3 1_555 1_555
O1B Cu1 1_555 1_555
O3C Cu1 1_555 1_555
C1 C6 1_555 1_555
C4 C5 1_555 1_555

#END
