
#######################################################################
#
#                 Cambridge Crystallographic Data Centre
#                                CCDC 
#
#######################################################################
#
# If this CIF has been generated from an entry in the Cambridge 
# Structural Database, then it will include bibliographic, chemical, 
# crystal, experimental, refinement or atomic coordinate data resulting 
# from the CCDC's data processing and validation procedures.
#
#######################################################################

data_IJOTOR
_symmetry_cell_setting           monoclinic
_symmetry_space_group_name_H-M   'P 21/n'
_symmetry_Int_Tables_number      14
_space_group_name_Hall           '-P 2yn'
loop_
_symmetry_equiv_pos_site_id
_symmetry_equiv_pos_as_xyz
1 x,y,z
2 1/2-x,1/2+y,1/2-z
3 -x,-y,-z
4 1/2+x,1/2-y,1/2+z
_cell_length_a                   8.56830(10)
_cell_length_b                   25.2280(4)
_cell_length_c                   9.76850(10)
_cell_angle_alpha                90
_cell_angle_beta                 114.6330(10)
_cell_angle_gamma                90
_cell_volume                     1919.41
loop_
_atom_site_label
_atom_site_type_symbol
_atom_site_fract_x
_atom_site_fract_y
_atom_site_fract_z
Mn1 Mn 0.23443(6) 0.121021(17) 0.11506(5)
Mn2 Mn 0.0000 0.0000 0.0000
O2 O 0.0588(3) 0.08005(8) -0.0861(2)
O3 O 0.2531(3) 0.12144(9) -0.1396(2)
O4 O 0.1568(3) 0.11891(9) -0.7023(3)
O5 O 0.0038(3) 0.04991(9) -0.8255(2)
O6 O -0.3626(3) 0.00513(9) -0.5459(2)
O7 O -0.7274(3) -0.01469(9) -0.8866(2)
O8 O -0.5860(3) 0.06004(9) -0.7894(3)
N1 N 0.1153(4) 0.20221(11) 0.0619(3)
N2 N 0.4486(3) 0.17919(10) 0.1761(3)
C1 C 0.0167(3) 0.08164(10) -0.3438(3)
C2 C 0.0778(4) 0.09280(10) -0.4528(3)
H3 H 0.1769 0.1128 -0.4285
C3 C -0.0115(4) 0.07361(10) -0.5978(3)
C4 C -0.1610(4) 0.04408(11) -0.6359(3)
H4 H -0.2187 0.0308 -0.7330
C5 C -0.2231(3) 0.03463(11) -0.5281(3)
C6 C -0.1349(4) 0.05419(11) -0.3831(3)
H5 H -0.1786 0.0487 -0.3116
C7 C 0.1182(4) 0.09562(10) -0.1816(3)
C8 C 0.0547(4) 0.08148(12) -0.7170(3)
C9 C -0.4589(4) -0.02186(12) -0.6826(3)
H6 H -0.5073 -0.0537 -0.6605
H7 H -0.3821 -0.0326 -0.7277
C10 C -0.6025(4) 0.01101(12) -0.7951(3)
C11 C -0.0531(5) 0.21147(17) 0.0082(4)
H8 H -0.1278 0.1827 -0.0174
C12 C -0.1217(6) 0.2624(2) -0.0112(4)
H9 H -0.2397 0.2678 -0.0514
C13 C -0.0103(6) 0.30430(18) 0.0307(5)
H10 H -0.0521 0.3388 0.0210
C14 C 0.1621(6) 0.29541(15) 0.0868(4)
H11 H 0.2382 0.3238 0.1155
C15 C 0.2239(4) 0.24397(13) 0.1008(3)
C16 C 0.4077(4) 0.23094(12) 0.1557(3)
C17 C 0.5338(5) 0.26898(13) 0.1875(4)
H12 H 0.5040 0.3046 0.1724
C18 C 0.7043(5) 0.25413(15) 0.2416(4)
H13 H 0.7899 0.2796 0.2644
C19 C 0.7455(5) 0.20131(15) 0.2613(4)
H14 H 0.8589 0.1900 0.2968
C20 C 0.6131(4) 0.16548(13) 0.2268(4)
H15 H 0.6403 0.1296 0.2397
Mn1B Mn -0.23443(6) -0.121021(17) -0.11506(5)
Mn1_2 Mn 0.23443(6) 0.121021(17) -0.88494(5)
Mn1_3 Mn -0.76557(6) 0.121021(17) -0.88494(5)
Mn1B_2 Mn -0.23443(6) -0.121021(17) 0.88494(5)
Mn1B_3 Mn 0.76557(6) -0.121021(17) 0.88494(5)
Mn2_2 Mn 0.0000 0.0000 -1.0000
Mn2_3 Mn -1.0000 0.0000 -1.0000
Mn2_4 Mn 0.0000 0.0000 1.0000
Mn2_5 Mn 1.0000 0.0000 1.0000
O2B O -0.0588(3) -0.08005(8) 0.0861(2)
O3B O -0.2531(3) -0.12144(9) 0.1396(2)
O4B O -0.1568(3) -0.11891(9) 0.7023(3)
O4_2 O 0.1568(3) 0.11891(9) 0.2977(3)
O4B_2 O -0.1568(3) -0.11891(9) -0.2977(3)
O5B O -0.0038(3) -0.04991(9) 0.8255(2)
O5_2 O 0.0038(3) 0.04991(9) 0.1745(2)
O5B_2 O -0.0038(3) -0.04991(9) -0.1745(2)
O6B O 0.3626(3) -0.00513(9) 0.5459(2)
O7B O 0.7274(3) 0.01469(9) 0.8866(2)
O7_2 O 0.2726(3) -0.01469(9) 0.1134(2)
O7B_2 O -0.2726(3) 0.01469(9) -0.1134(2)
O8B O 0.5860(3) -0.06004(9) 0.7894(3)
O8_2 O 0.4140(3) 0.06004(9) 0.2106(3)
O8B_2 O -0.4140(3) -0.06004(9) -0.2106(3)
N1B N -0.1153(4) -0.20221(11) -0.0619(3)
N2B N -0.4486(3) -0.17919(10) -0.1761(3)
C1B C -0.0167(3) -0.08164(10) 0.3438(3)
C2B C -0.0778(4) -0.09280(10) 0.4528(3)
H3B H -0.1769 -0.1128 0.4285
C3B C 0.0115(4) -0.07361(10) 0.5978(3)
C4B C 0.1610(4) -0.04408(11) 0.6359(3)
H4B H 0.2187 -0.0308 0.7330
C5B C 0.2231(3) -0.03463(11) 0.5281(3)
C6B C 0.1349(4) -0.05419(11) 0.3831(3)
H5B H 0.1786 -0.0487 0.3116
C7B C -0.1182(4) -0.09562(10) 0.1816(3)
C8B C -0.0547(4) -0.08148(12) 0.7170(3)
C9B C 0.4589(4) 0.02186(12) 0.6826(3)
H6B H 0.5073 0.0537 0.6605
H7B H 0.3821 0.0326 0.7277
C10B C 0.6025(4) -0.01101(12) 0.7951(3)
C11B C 0.0531(5) -0.21147(17) -0.0082(4)
H8B H 0.1278 -0.1827 0.0174
C12B C 0.1217(6) -0.2624(2) 0.0112(4)
H9B H 0.2397 -0.2678 0.0514
C13B C 0.0103(6) -0.30430(18) -0.0307(5)
H10B H 0.0521 -0.3388 -0.0210
C14B C -0.1621(6) -0.29541(15) -0.0868(4)
H11B H -0.2382 -0.3238 -0.1155
C15B C -0.2239(4) -0.24397(13) -0.1008(3)
C16B C -0.4077(4) -0.23094(12) -0.1557(3)
C17B C -0.5338(5) -0.26898(13) -0.1875(4)
H12B H -0.5040 -0.3046 -0.1724
C18B C -0.7043(5) -0.25413(15) -0.2416(4)
H13B H -0.7899 -0.2796 -0.2644
C19B C -0.7455(5) -0.20131(15) -0.2613(4)
H14B H -0.8589 -0.1900 -0.2968
C20B C -0.6131(4) -0.16548(13) -0.2268(4)
H15B H -0.6403 -0.1296 -0.2397
O1 O -0.6212(6) -0.12729(17) -0.9008(6)
H1 H -0.5137(17) -0.130(3) -0.874(7)
H2 H -0.659(7) -0.111(3) -0.984(5)
loop_
_geom_bond_atom_site_label_1
_geom_bond_atom_site_label_2
_geom_bond_site_symmetry_1
_geom_bond_site_symmetry_2
Mn1 O2 1_555 1_555
Mn2 O2 1_555 1_555
O1 H1 1_555 1_555
H2 O1 1_555 1_555
O2 C7 1_555 1_555
O3 C7 1_555 1_555
O4 C8 1_555 1_555
O5 C8 1_555 1_555
O6 C5 1_555 1_555
O7 C10 1_555 1_555
O8 C10 1_555 1_555
N1 Mn1 1_555 1_555
N2 Mn1 1_555 1_555
C1 C2 1_555 1_555
C2 H3 1_555 1_555
C3 C2 1_555 1_555
C4 C3 1_555 1_555
H4 C4 1_555 1_555
C5 C4 1_555 1_555
C6 C1 1_555 1_555
H5 C6 1_555 1_555
C7 C1 1_555 1_555
C8 C3 1_555 1_555
C9 O6 1_555 1_555
H6 C9 1_555 1_555
H7 C9 1_555 1_555
C10 C9 1_555 1_555
C11 N1 1_555 1_555
H8 C11 1_555 1_555
C12 C11 1_555 1_555
H9 C12 1_555 1_555
C13 C12 1_555 1_555
H10 C13 1_555 1_555
C14 C13 1_555 1_555
H11 C14 1_555 1_555
C15 N1 1_555 1_555
C16 N2 1_555 1_555
C17 C16 1_555 1_555
H12 C17 1_555 1_555
C18 C17 1_555 1_555
H13 C18 1_555 1_555
C19 C18 1_555 1_555
H14 C19 1_555 1_555
C20 N2 1_555 1_555
H15 C20 1_555 1_555
Mn1B O2B 1_555 1_555
Mn1_2 O4 1_555 1_555
Mn1_3 O8 1_555 1_555
Mn1B_2 O4B 1_555 1_555
Mn1B_3 O8B 1_555 1_555
Mn2_2 O5 1_555 1_555
Mn2_3 O7 1_555 1_555
Mn2_4 O5B 1_555 1_555
Mn2_5 O7B 1_555 1_555
O2B Mn2 1_555 1_555
O3B C7B 1_555 1_555
O4B C8B 1_555 1_555
O4_2 Mn1 1_555 1_555
O4B_2 Mn1B 1_555 1_555
O5B C8B 1_555 1_555
O5_2 Mn2 1_555 1_555
O5B_2 Mn2 1_555 1_555
O6B C5B 1_555 1_555
O7B C10B 1_555 1_555
O7_2 Mn2 1_555 1_555
O7B_2 Mn2 1_555 1_555
O8B C10B 1_555 1_555
O8_2 Mn1 1_555 1_555
O8B_2 Mn1B 1_555 1_555
N1B Mn1B 1_555 1_555
N2B Mn1B 1_555 1_555
C1B C2B 1_555 1_555
C2B H3B 1_555 1_555
C3B C2B 1_555 1_555
C4B C3B 1_555 1_555
H4B C4B 1_555 1_555
C5B C4B 1_555 1_555
C6B C1B 1_555 1_555
H5B C6B 1_555 1_555
C7B O2B 1_555 1_555
C8B C3B 1_555 1_555
C9B O6B 1_555 1_555
H6B C9B 1_555 1_555
H7B C9B 1_555 1_555
C10B C9B 1_555 1_555
C11B N1B 1_555 1_555
H8B C11B 1_555 1_555
C12B C11B 1_555 1_555
H9B C12B 1_555 1_555
C13B C12B 1_555 1_555
H10B C13B 1_555 1_555
C14B C13B 1_555 1_555
H11B C14B 1_555 1_555
C15B N1B 1_555 1_555
C16B N2B 1_555 1_555
C17B C16B 1_555 1_555
H12B C17B 1_555 1_555
C18B C17B 1_555 1_555
H13B C18B 1_555 1_555
C19B C18B 1_555 1_555
H14B C19B 1_555 1_555
C20B N2B 1_555 1_555
H15B C20B 1_555 1_555
C5 C6 1_555 1_555
C14 C15 1_555 1_555
C15 C16 1_555 1_555
C19 C20 1_555 1_555
C1B C7B 1_555 1_555
C5B C6B 1_555 1_555
C14B C15B 1_555 1_555
C15B C16B 1_555 1_555
C19B C20B 1_555 1_555

#END
