
#######################################################################
#
#                 Cambridge Crystallographic Data Centre
#                                CCDC 
#
#######################################################################
#
# If this CIF has been generated from an entry in the Cambridge 
# Structural Database, then it will include bibliographic, chemical, 
# crystal, experimental, refinement or atomic coordinate data resulting 
# from the CCDC's data processing and validation procedures.
#
#######################################################################

data_IJOVEJ
_symmetry_cell_setting           orthorhombic
_symmetry_space_group_name_H-M   'P b c a'
_symmetry_Int_Tables_number      61
_space_group_name_Hall           '-P 2ac 2ab'
loop_
_symmetry_equiv_pos_site_id
_symmetry_equiv_pos_as_xyz
1 x,y,z
2 1/2-x,-y,1/2+z
3 -x,1/2+y,1/2-z
4 1/2+x,1/2-y,-z
5 -x,-y,-z
6 1/2+x,y,1/2-z
7 x,1/2-y,1/2+z
8 1/2-x,1/2+y,z
_cell_length_a                   11.8724(3)
_cell_length_b                   7.13080(10)
_cell_length_c                   20.0592(4)
_cell_angle_alpha                90
_cell_angle_beta                 90
_cell_angle_gamma                90
_cell_volume                     1698.21
loop_
_atom_site_label
_atom_site_type_symbol
_atom_site_fract_x
_atom_site_fract_y
_atom_site_fract_z
Sr1 Sr 0.93510(3) 0.61190(4) 0.736154(15)
O1 O 0.9182(2) 0.2855(3) 0.68486(11)
O2 O 1.1323(2) 0.4455(3) 0.72230(11)
C1 C 0.9508(3) 0.2525(5) 0.54589(17)
H1 H 1.0068 0.3131 0.5701
C2 C 0.7700(3) 0.1036(4) 0.54088(16)
H2 H 0.7041 0.0651 0.5618
C3 C 0.8539(3) 0.1900(4) 0.57787(15)
C4 C 0.8405(3) 0.2083(4) 0.65225(16)
C5 C 0.9639(3) 0.2244(4) 0.47790(17)
H3 H 1.0285 0.2671 0.4566
C6 C 0.7834(3) 0.0740(4) 0.47334(15)
H4 H 0.7269 0.0147 0.4491
C7 C 0.8814(3) 0.1331(4) 0.44164(15)
C8 C 0.8981(3) 0.0856(4) 0.36917(17)
O3 O 0.9836(2) 0.1481(3) 0.33885(11)
O4 O 0.8280(2) -0.0220(4) 0.34186(11)
O5 O 0.7543(2) 0.1373(3) 0.67879(11)
H5 H 1.169(2) 0.446(5) 0.6868(9)
H6 H 1.165(3) 0.505(5) 0.7530(11)
Sr1B Sr 1.06490(3) 0.11190(4) 0.763846(15)
Sr1D Sr 1.06490(3) 0.38810(4) 0.263846(15)
Sr1F Sr 0.93510(3) -0.11190(4) 0.236154(15)
Sr1G Sr 0.56490(3) 0.11190(4) 0.736154(15)
O1B O 1.0818(2) 0.7855(3) 0.81514(11)
O2B O 0.8677(2) 0.9455(3) 0.77770(11)
O3D O 1.0164(2) 0.8519(3) 0.66115(11)
O3F O 0.9836(2) 0.3519(3) 0.83885(11)
O4F O 0.8280(2) 0.5220(4) 0.84186(11)
O5G O 0.7457(2) 0.6373(3) 0.67879(11)
H5B H 0.831(2) 0.946(5) 0.8132(9)
H6B H 0.835(3) 1.005(5) 0.7470(11)
loop_
_geom_bond_atom_site_label_1
_geom_bond_atom_site_label_2
_geom_bond_site_symmetry_1
_geom_bond_site_symmetry_2
Sr1 O1 1_555 1_555
O1 C4 1_555 1_555
O2 Sr1 1_555 1_555
C1 H1 1_555 1_555
C2 H2 1_555 1_555
C3 C1 1_555 1_555
C4 C3 1_555 1_555
C5 C1 1_555 1_555
H3 C5 1_555 1_555
C6 C2 1_555 1_555
H4 C6 1_555 1_555
C7 C5 1_555 1_555
C8 C7 1_555 1_555
O3 C8 1_555 1_555
O4 C8 1_555 1_555
O5 C4 1_555 1_555
H5 O2 1_555 1_555
H6 O2 1_555 1_555
Sr1B O1 1_555 1_555
Sr1D O3 1_555 1_555
Sr1F O3 1_555 1_555
Sr1G O5 1_555 1_555
O1B Sr1 1_555 1_555
O2B Sr1 1_555 1_555
O3D Sr1 1_555 1_555
O3F Sr1 1_555 1_555
O4F Sr1 1_555 1_555
O5G Sr1 1_555 1_555
H5B O2B 1_555 1_555
H6B O2B 1_555 1_555
O2 Sr1B 1_555 1_555
C2 C3 1_555 1_555
C6 C7 1_555 1_555
O4 Sr1F 1_555 1_555
Sr1B O3F 1_555 1_555

#END
