
#######################################################################
#
#                 Cambridge Crystallographic Data Centre
#                                CCDC 
#
#######################################################################
#
# If this CIF has been generated from an entry in the Cambridge 
# Structural Database, then it will include bibliographic, chemical, 
# crystal, experimental, refinement or atomic coordinate data resulting 
# from the CCDC's data processing and validation procedures.
#
#######################################################################

data_IJUBUK01
_symmetry_cell_setting           monoclinic
_symmetry_space_group_name_H-M   'P 21/n'
_symmetry_Int_Tables_number      14
_space_group_name_Hall           '-P 2yn'
loop_
_symmetry_equiv_pos_site_id
_symmetry_equiv_pos_as_xyz
1 x,y,z
2 1/2+x,1/2-y,1/2+z
3 -x,-y,-z
4 1/2-x,1/2+y,1/2-z
_cell_length_a                   5.7093(10)
_cell_length_b                   6.9441(8)
_cell_length_c                   14.592(3)
_cell_angle_alpha                90
_cell_angle_beta                 93.50(3)
_cell_angle_gamma                90
_cell_volume                     577.435
loop_
_atom_site_label
_atom_site_type_symbol
_atom_site_fract_x
_atom_site_fract_y
_atom_site_fract_z
Cu1 Cu 0.11102(8) 0.33936(7) 0.82924(3)
C1 C 0.4820(7) 0.5817(5) 0.9178(2)
H1 H 0.4733 0.6408 0.8605
N1 N 0.3209(5) 0.4469(4) 0.93534(19)
C2 C 0.6611(7) 0.6364(5) 0.9817(2)
C3 C 0.8357(7) 0.7890(6) 0.9585(3)
H2 H 0.7804 0.9128 0.9769
H3 H 0.8537 0.7890 0.8935
H4 H 0.9843 0.7624 0.9903
S1 S 0.35333(17) 0.06433(13) 0.79607(7)
C4 C 0.6155(7) 0.1672(5) 0.8085(2)
N2 N 0.7958(6) 0.2401(5) 0.8203(2)
C2B C 0.3389(7) 0.3636(5) 1.0183(2)
C1B C 0.5180(7) 0.4183(5) 1.0822(2)
H1B H 0.5267 0.3592 1.1395
N1B N 0.6791(5) 0.5531(4) 1.06466(19)
C3B C 0.1643(7) 0.2110(6) 1.0415(3)
H2B H 0.2196 0.0872 1.0231
H3B H 0.1463 0.2110 1.1065
H4B H 0.0157 0.2376 1.0097
S1C S 0.14667(17) 0.56433(13) 0.70393(7)
C4C C -0.1155(7) 0.6672(5) 0.6915(2)
N2C N -0.2958(6) 0.7401(5) 0.6797(2)
Cu1B Cu 0.88898(8) 0.66064(7) 1.17076(3)
N2_2 N -0.2042(6) 0.2401(5) 0.8203(2)
Cu1C Cu 0.38898(8) -0.16064(7) 0.67076(3)
Cu1_2 Cu 1.11102(8) 0.33936(7) 0.82924(3)
Cu1C_2 Cu 0.38898(8) 0.83936(7) 0.67076(3)
Cu1C_3 Cu -0.61102(8) 0.83936(7) 0.67076(3)
S1A S 0.85333(17) 0.43567(13) 1.29607(7)
S1B S 0.64667(17) 0.93567(13) 1.20393(7)
N2B N 1.2042(6) 0.7599(5) 1.1797(2)
loop_
_geom_bond_atom_site_label_1
_geom_bond_atom_site_label_2
_geom_bond_site_symmetry_1
_geom_bond_site_symmetry_2
Cu1 N1 1_555 1_555
C1 H1 1_555 1_555
N1 C1 1_555 1_555
C2 C1 1_555 1_555
C3 C2 1_555 1_555
H2 C3 1_555 1_555
H3 C3 1_555 1_555
H4 C3 1_555 1_555
S1 Cu1 1_555 1_555
C4 S1 1_555 1_555
N2 C4 1_555 1_555
C2B N1 1_555 1_555
C1B C2B 1_555 1_555
H1B C1B 1_555 1_555
N1B C2 1_555 1_555
C3B C2B 1_555 1_555
H2B C3B 1_555 1_555
H3B C3B 1_555 1_555
H4B C3B 1_555 1_555
S1C Cu1 1_555 1_555
C4C S1C 1_555 1_555
N2C C4C 1_555 1_555
Cu1B N1B 1_555 1_555
N2_2 Cu1 1_555 1_555
Cu1C S1 1_555 1_555
Cu1_2 N2 1_555 1_555
Cu1C_2 S1C 1_555 1_555
Cu1C_3 N2C 1_555 1_555
S1A Cu1B 1_555 1_555
S1B Cu1B 1_555 1_555
N2B Cu1B 1_555 1_555
C1B N1B 1_555 1_555

#END
