
#######################################################################
#
#                 Cambridge Crystallographic Data Centre
#                                CCDC 
#
#######################################################################
#
# If this CIF has been generated from an entry in the Cambridge 
# Structural Database, then it will include bibliographic, chemical, 
# crystal, experimental, refinement or atomic coordinate data resulting 
# from the CCDC's data processing and validation procedures.
#
#######################################################################

data_IKAZID
_symmetry_cell_setting           monoclinic
_symmetry_space_group_name_H-M   'C 2/c'
_symmetry_Int_Tables_number      15
_space_group_name_Hall           '-C 2yn'
loop_
_symmetry_equiv_pos_site_id
_symmetry_equiv_pos_as_xyz
1 x,y,z
2 1/2+x,1/2+y,z
3 -x,y,1/2-z
4 1/2-x,1/2+y,1/2-z
5 -x,-y,-z
6 1/2-x,1/2-y,-z
7 x,-y,1/2+z
8 1/2+x,1/2-y,1/2+z
_cell_length_a                   24.716(5)
_cell_length_b                   14.047(3)
_cell_length_c                   16.221(3)
_cell_angle_alpha                90
_cell_angle_beta                 124.38(3)
_cell_angle_gamma                90
_cell_volume                     4647.9
loop_
_atom_site_label
_atom_site_type_symbol
_atom_site_fract_x
_atom_site_fract_y
_atom_site_fract_z
Cd1 Cd 0.0000 0.76804(3) 0.2500
Fe1 Fe 0.18314(5) 0.96060(6) 0.08945(8)
O2 O 0.0561(2) 0.7612(2) 0.1776(4)
O3 O -0.0280(3) 0.7289(4) 0.0224(4)
O4 O 0.2234(3) 0.7741(3) 0.2793(4)
O5 O 0.0989(2) 0.7729(3) 0.4085(3)
C1 C 0.2020(5) 0.9154(8) -0.0101(8)
H3 H 0.1750 0.8717 -0.0660
C2 C 0.1972(5) 1.0164(7) -0.0134(8)
H4 H 0.1658 1.0550 -0.0715
C3 C 0.2447(5) 1.0501(7) 0.0818(11)
H5 H 0.2523 1.1171 0.1022
C4 C 0.2791(4) 0.9746(9) 0.1422(9)
H6 H 0.3153 0.9789 0.2128
C5 C 0.2537(5) 0.8898(7) 0.0879(9)
H7 H 0.2694 0.8252 0.1127
C6 C 0.1774(4) 0.9658(4) 0.2098(6)
H8 H 0.2142 0.9705 0.2800
C7 C 0.1427(4) 1.0422(5) 0.1445(6)
H9 H 0.1523 1.1098 0.1620
C8 C 0.0934(3) 1.0073(4) 0.0505(6)
H10 H 0.0625 1.0456 -0.0083
C9 C 0.0971(3) 0.9062(4) 0.0553(5)
H11 H 0.0688 0.8622 0.0004
C10 C 0.1487(3) 0.8803(4) 0.1541(4)
C11 C 0.1748(3) 0.7854(4) 0.1943(5)
C12 C 0.1447(3) 0.7003(4) 0.1259(4)
C13 C 0.1858(3) 0.6445(4) 0.1140(5)
H12 H 0.2299 0.6604 0.1478
C14 C 0.1625(3) 0.5655(4) 0.0528(5)
H13 H 0.1907 0.5287 0.0450
C15 C 0.0974(4) 0.5416(5) 0.0033(6)
H14 H 0.0814 0.4877 -0.0370
C16 C 0.0557(3) 0.5979(4) 0.0136(5)
H15 H 0.0114 0.5827 -0.0218
C17 C 0.0793(3) 0.6773(4) 0.0764(4)
C18 C 0.0313(4) 0.7263(4) 0.0918(6)
C19 C 0.1560(3) 0.7201(5) 0.4428(6)
H16 H 0.1887 0.7369 0.5109
H17 H 0.1720 0.7339 0.4022
H18 H 0.1463 0.6534 0.4388
C20 C 0.0341(3) 0.9807(3) 0.2236(5)
H19 H 0.0581 0.9477 0.2046
C21 C 0.0349(4) 1.0799(4) 0.2235(5)
H20 H 0.0595 1.1118 0.2051
C22 C 0.0000 1.1305(6) 0.2500
C23 C 0.0447(3) 1.5497(3) 0.2470(5)
H21 H 0.0767 1.5829 0.2455
C24 C 0.0463(3) 1.4523(4) 0.2460(5)
H22 H 0.0782 1.4213 0.2426
C25 C 0.0000 1.3998(5) 0.2500
C26 C 0.0132(5) 1.2992(6) 0.2359(8)
C27 C 0.0217(5) 1.2310(7) 0.2511(9)
N1 N 0.0000 0.9318(4) 0.2500
N2 N 0.0000 1.6000(4) 0.2500
C21B C -0.0349(4) 1.0799(4) 0.2765(5)
C20B C -0.0341(3) 0.9807(3) 0.2764(5)
H19B H -0.0581 0.9477 0.2954
H20B H -0.0595 1.1118 0.2949
C23B C -0.0447(3) 1.5497(3) 0.2530(5)
H21B H -0.0767 1.5829 0.2545
C24B C -0.0463(3) 1.4523(4) 0.2540(5)
H22B H -0.0782 1.4213 0.2574
C26B C -0.0132(5) 1.2992(6) 0.2641(8)
C27B C -0.0217(5) 1.2310(7) 0.2489(9)
O2B O -0.0561(2) 0.7612(2) 0.3224(4)
O3B O 0.0280(3) 0.7289(4) 0.4776(4)
O4B O -0.2234(3) 0.7741(3) 0.2207(4)
C6B C -0.1774(4) 0.9658(4) 0.2902(6)
H8B H -0.2142 0.9705 0.2200
C7B C -0.1427(4) 1.0422(5) 0.3555(6)
H9B H -0.1523 1.1098 0.3380
C8B C -0.0934(3) 1.0073(4) 0.4495(6)
H10B H -0.0625 1.0456 0.5083
C9B C -0.0971(3) 0.9062(4) 0.4447(5)
H11B H -0.0688 0.8622 0.4996
C10B C -0.1487(3) 0.8803(4) 0.3459(4)
C11B C -0.1748(3) 0.7854(4) 0.3057(5)
C12B C -0.1447(3) 0.7003(4) 0.3741(4)
C13B C -0.1858(3) 0.6445(4) 0.3860(5)
H12B H -0.2299 0.6604 0.3522
C14B C -0.1625(3) 0.5655(4) 0.4472(5)
H13B H -0.1907 0.5287 0.4550
C15B C -0.0974(4) 0.5416(5) 0.4967(6)
H14B H -0.0814 0.4877 0.5370
C16B C -0.0557(3) 0.5979(4) 0.4864(5)
H15B H -0.0114 0.5827 0.5218
C17B C -0.0793(3) 0.6773(4) 0.4236(4)
C18B C -0.0313(4) 0.7263(4) 0.4082(6)
O5B O -0.0989(2) 0.7729(3) 0.0915(3)
C19B C -0.1560(3) 0.7201(5) 0.0572(6)
H16B H -0.1887 0.7369 -0.0109
H17B H -0.1720 0.7339 0.0978
H18B H -0.1463 0.6534 0.0612
Fe1B Fe -0.18314(5) 0.96060(6) 0.41055(8)
C1B C -0.2020(5) 0.9154(8) 0.5101(8)
H3B H -0.1750 0.8717 0.5660
C2B C -0.1972(5) 1.0164(7) 0.5134(8)
H4B H -0.1658 1.0550 0.5715
C3B C -0.2447(5) 1.0501(7) 0.4182(11)
H5B H -0.2523 1.1171 0.3978
C4B C -0.2791(4) 0.9746(9) 0.3578(9)
H6B H -0.3153 0.9789 0.2872
C5B C -0.2537(5) 0.8898(7) 0.4121(9)
H7B H -0.2694 0.8252 0.3873
N2_2 N 0.0000 0.6000(4) 0.2500
Cd1_2 Cd 0.0000 1.76804(3) 0.2500
O1 O 0.1312(4) 0.7034(6) 0.6775(6)
H1 H 0.159(3) 0.672(4) 0.653(4)
H2 H 0.086(3) 0.725(4) 0.621(4)
loop_
_geom_bond_atom_site_label_1
_geom_bond_atom_site_label_2
_geom_bond_site_symmetry_1
_geom_bond_site_symmetry_2
O1 H1 1_555 1_555
H2 O1 1_555 1_555
Cd1 O2 1_555 1_555
Fe1 C1 1_555 1_555
O2 C18 1_555 1_555
O3 C18 1_555 1_555
O4 C11 1_555 1_555
O5 Cd1 1_555 1_555
C1 H3 1_555 1_555
C2 Fe1 1_555 1_555
H4 C2 1_555 1_555
C3 Fe1 1_555 1_555
H5 C3 1_555 1_555
C4 Fe1 1_555 1_555
H6 C4 1_555 1_555
C5 Fe1 1_555 1_555
H7 C5 1_555 1_555
C6 Fe1 1_555 1_555
H8 C6 1_555 1_555
C7 Fe1 1_555 1_555
H9 C7 1_555 1_555
C8 Fe1 1_555 1_555
H10 C8 1_555 1_555
C9 Fe1 1_555 1_555
H11 C9 1_555 1_555
C10 Fe1 1_555 1_555
C11 C10 1_555 1_555
C12 C11 1_555 1_555
C13 C12 1_555 1_555
H12 C13 1_555 1_555
C14 C13 1_555 1_555
H13 C14 1_555 1_555
C15 C14 1_555 1_555
H14 C15 1_555 1_555
C16 C15 1_555 1_555
H15 C16 1_555 1_555
C17 C12 1_555 1_555
C18 C17 1_555 1_555
C19 O5 1_555 1_555
H16 C19 1_555 1_555
H17 C19 1_555 1_555
H18 C19 1_555 1_555
C20 H19 1_555 1_555
C21 C20 1_555 1_555
H20 C21 1_555 1_555
C22 C21 1_555 1_555
C23 H21 1_555 1_555
C24 C23 1_555 1_555
H22 C24 1_555 1_555
C25 C24 1_555 1_555
C26 C25 1_555 1_555
C27 C22 1_555 1_555
N1 Cd1 1_555 1_555
N2 C23 1_555 1_555
C21B C22 1_555 1_555
C20B N1 1_555 1_555
H19B C20B 1_555 1_555
H20B C21B 1_555 1_555
C23B N2 1_555 1_555
H21B C23B 1_555 1_555
C24B C25 1_555 1_555
H22B C24B 1_555 1_555
C26B C25 1_555 1_555
C27B C22 1_555 1_555
O2B Cd1 1_555 1_555
O3B C18B 1_555 1_555
O4B C11B 1_555 1_555
C6B H8B 1_555 1_555
C7B C6B 1_555 1_555
H9B C7B 1_555 1_555
C8B C7B 1_555 1_555
H10B C8B 1_555 1_555
C9B C8B 1_555 1_555
H11B C9B 1_555 1_555
C10B C6B 1_555 1_555
C11B C10B 1_555 1_555
C12B C11B 1_555 1_555
C13B C12B 1_555 1_555
H12B C13B 1_555 1_555
C14B C13B 1_555 1_555
H13B C14B 1_555 1_555
C15B C14B 1_555 1_555
H14B C15B 1_555 1_555
C16B C15B 1_555 1_555
H15B C16B 1_555 1_555
C17B C12B 1_555 1_555
C18B O2B 1_555 1_555
O5B Cd1 1_555 1_555
C19B O5B 1_555 1_555
H16B C19B 1_555 1_555
H17B C19B 1_555 1_555
H18B C19B 1_555 1_555
Fe1B C6B 1_555 1_555
C1B Fe1B 1_555 1_555
H3B C1B 1_555 1_555
C2B Fe1B 1_555 1_555
H4B C2B 1_555 1_555
C3B Fe1B 1_555 1_555
H5B C3B 1_555 1_555
C4B Fe1B 1_555 1_555
H6B C4B 1_555 1_555
C5B Fe1B 1_555 1_555
H7B C5B 1_555 1_555
N2_2 Cd1 1_555 1_555
Cd1_2 N2 1_555 1_555
C1 C2 1_555 1_555
C1 C5 1_555 1_555
C2 C3 1_555 1_555
C3 C4 1_555 1_555
C4 C5 1_555 1_555
C6 C7 1_555 1_555
C6 C10 1_555 1_555
C7 C8 1_555 1_555
C8 C9 1_555 1_555
C9 C10 1_555 1_555
C16 C17 1_555 1_555
C20 N1 1_555 1_555
C26 C27 1_555 1_555
C26 C26B 1_555 1_555
C26 C27B 1_555 1_555
C27 C26B 1_555 1_555
C27 C27B 1_555 1_555
C21B C20B 1_555 1_555
C23B C24B 1_555 1_555
C26B C27B 1_555 1_555
C7B Fe1B 1_555 1_555
C8B Fe1B 1_555 1_555
C9B C10B 1_555 1_555
C9B Fe1B 1_555 1_555
C10B Fe1B 1_555 1_555
C16B C17B 1_555 1_555
C17B C18B 1_555 1_555
C1B C2B 1_555 1_555
C1B C5B 1_555 1_555
C2B C3B 1_555 1_555
C3B C4B 1_555 1_555
C4B C5B 1_555 1_555

#END
