
#######################################################################
#
#                 Cambridge Crystallographic Data Centre
#                                CCDC 
#
#######################################################################
#
# If this CIF has been generated from an entry in the Cambridge 
# Structural Database, then it will include bibliographic, chemical, 
# crystal, experimental, refinement or atomic coordinate data resulting 
# from the CCDC's data processing and validation procedures.
#
#######################################################################

data_IKETEX01
_symmetry_cell_setting           triclinic
_symmetry_space_group_name_H-M   'P -1'
_symmetry_Int_Tables_number      2
_space_group_name_Hall           '-P 1'
loop_
_symmetry_equiv_pos_site_id
_symmetry_equiv_pos_as_xyz
1 x,y,z
2 -x,-y,-z
_cell_length_a                   9.2279
_cell_length_b                   9.4014
_cell_length_c                   13.3663
_cell_angle_alpha                107.44
_cell_angle_beta                 106.71
_cell_angle_gamma                93.48
_cell_volume                     1045.8
loop_
_atom_site_label
_atom_site_type_symbol
_atom_site_fract_x
_atom_site_fract_y
_atom_site_fract_z
I1 I 0.68726 0.38975 0.57143
Cu1 Cu 0.44137 0.50844 0.60067
N1 N 0.27970 0.32125 0.56545
C1 C 0.31775 0.20160 0.59580
H1 H 0.41880 0.20355 0.63490
C2 C 0.21130 0.07395 0.57105
H2 H 0.24310 -0.00630 0.59295
C3 C 0.05950 0.06715 0.51460
C4 C 0.02000 0.19290 0.48480
H3 H -0.08090 0.19525 0.44755
C5 C 0.13280 0.31440 0.51115
H4 H 0.10410 0.39560 0.48910
P1 P 0.48890 0.70395 0.75765
C6 C 0.58155 0.66970 0.88765
C7 C 0.52750 0.70720 0.97765
H5 H 0.43880 0.74985 0.97320
C8 C 0.60700 0.68225 1.07445
H6 H 0.56995 0.70675 1.13425
C9 C 0.73800 0.62225 1.08200
H7 H 0.79150 0.60685 1.14680
C10 C 0.79150 0.58450 0.99440
H8 H 0.88145 0.54640 1.00140
C11 C 0.71450 0.60505 0.89690
H9 H 0.75070 0.57485 0.83715
C12 C 0.60675 0.87935 0.77635
C13 C 0.68585 0.98280 0.88000
H10 H 0.68270 0.96220 0.94325
C14 C 0.76980 1.11760 0.88980
H11 H 0.82335 1.18575 0.95955
C15 C 0.77395 1.14880 0.79695
H12 H 0.82685 1.24030 0.80380
C16 C 0.70030 1.04630 0.69450
H13 H 0.70620 1.06690 0.63185
C17 C 0.61700 0.91245 0.68320
H14 H 0.56750 0.84345 0.61300
C18 C 0.31065 0.76555 0.77590
C19 C 0.28745 0.91355 0.80765
H15 H 0.36590 0.99060 0.82090
C20 C 0.14855 0.94910 0.81995
H16 H 0.13385 1.04935 0.84020
C21 C 0.03260 0.83590 0.80220
H17 H -0.05955 0.85975 0.81220
C22 C 0.05360 0.68700 0.76940
H18 H -0.02455 0.61050 0.75680
C23 C 0.18995 0.65120 0.75515
H19 H 0.20255 0.55060 0.73155
I1A I 0.31274 0.61025 0.42857
Cu1A Cu 0.55863 0.49156 0.39933
Cu1A_2 Cu -0.44137 -0.50844 0.39933
N1A N -0.27970 -0.32125 0.43455
N1A_2 N 0.72030 0.67875 0.43455
C1A C -0.31775 -0.20160 0.40420
H1A H -0.41880 -0.20355 0.36510
C2A C -0.21130 -0.07395 0.42895
H2A H -0.24310 0.00630 0.40705
C3A C -0.05950 -0.06715 0.48540
C4A C -0.02000 -0.19290 0.51520
H3A H 0.08090 -0.19525 0.55245
C5A C -0.13280 -0.31440 0.48885
H4A H -0.10410 -0.39560 0.51090
P1A P 0.51110 0.29605 0.24235
C6A C 0.41845 0.33030 0.11235
C7A C 0.47250 0.29280 0.02235
H5A H 0.56120 0.25015 0.02680
C8A C 0.39300 0.31775 -0.07445
H6A H 0.43005 0.29325 -0.13425
C9A C 0.26200 0.37775 -0.08200
H7A H 0.20850 0.39315 -0.14680
C10A C 0.20850 0.41550 0.00560
H8A H 0.11855 0.45360 -0.00140
C11A C 0.28550 0.39495 0.10310
H9A H 0.24930 0.42515 0.16285
C12A C 0.39325 0.12065 0.22365
C13A C 0.31415 0.01720 0.12000
H10A H 0.31730 0.03780 0.05675
C14A C 0.23020 -0.11760 0.11020
H11A H 0.17665 -0.18575 0.04045
C15A C 0.22605 -0.14880 0.20305
H12A H 0.17315 -0.24030 0.19620
C16A C 0.29970 -0.04630 0.30550
H13A H 0.29380 -0.06690 0.36815
C17A C 0.38300 0.08755 0.31680
H14A H 0.43250 0.15655 0.38700
C18A C 0.68935 0.23445 0.22410
C19A C 0.71255 0.08645 0.19235
H15A H 0.63410 0.00940 0.17910
C20A C 0.85145 0.05090 0.18005
H16A H 0.86615 -0.04935 0.15980
C21A C 0.96740 0.16410 0.19780
H17A H 1.05955 0.14025 0.18780
C22A C 0.94640 0.31300 0.23060
H18A H 1.02455 0.38950 0.24320
C23A C 0.81005 0.34880 0.24485
H19A H 0.79745 0.44940 0.26845
loop_
_geom_bond_atom_site_label_1
_geom_bond_atom_site_label_2
_geom_bond_site_symmetry_1
_geom_bond_site_symmetry_2
I1 Cu1 1_555 1_555
Cu1 N1 1_555 1_555
N1 C1 1_555 1_555
C1 H1 1_555 1_555
C2 C1 1_555 1_555
H2 C2 1_555 1_555
C3 C2 1_555 1_555
C4 C3 1_555 1_555
H3 C4 1_555 1_555
C5 N1 1_555 1_555
H4 C5 1_555 1_555
P1 Cu1 1_555 1_555
C6 P1 1_555 1_555
C7 C6 1_555 1_555
H5 C7 1_555 1_555
C8 C7 1_555 1_555
H6 C8 1_555 1_555
C9 C8 1_555 1_555
H7 C9 1_555 1_555
C10 C9 1_555 1_555
H8 C10 1_555 1_555
C11 C6 1_555 1_555
H9 C11 1_555 1_555
C12 P1 1_555 1_555
C13 C12 1_555 1_555
H10 C13 1_555 1_555
C14 C13 1_555 1_555
H11 C14 1_555 1_555
C15 C14 1_555 1_555
H12 C15 1_555 1_555
C16 C15 1_555 1_555
H13 C16 1_555 1_555
C17 C12 1_555 1_555
H14 C17 1_555 1_555
C18 P1 1_555 1_555
C19 C18 1_555 1_555
H15 C19 1_555 1_555
C20 C19 1_555 1_555
H16 C20 1_555 1_555
C21 C20 1_555 1_555
H17 C21 1_555 1_555
C22 C21 1_555 1_555
H18 C22 1_555 1_555
C23 C18 1_555 1_555
H19 C23 1_555 1_555
I1A Cu1 1_555 1_555
Cu1A I1 1_555 1_555
Cu1A_2 N1A 1_555 1_555
N1A C1A 1_555 1_555
N1A_2 Cu1A 1_555 1_555
C1A H1A 1_555 1_555
C2A C1A 1_555 1_555
H2A C2A 1_555 1_555
C3A C3 1_555 1_555
C4A C3A 1_555 1_555
H3A C4A 1_555 1_555
C5A N1A 1_555 1_555
H4A C5A 1_555 1_555
P1A Cu1A 1_555 1_555
C6A P1A 1_555 1_555
C7A C6A 1_555 1_555
H5A C7A 1_555 1_555
C8A C7A 1_555 1_555
H6A C8A 1_555 1_555
C9A C8A 1_555 1_555
H7A C9A 1_555 1_555
C10A C9A 1_555 1_555
H8A C10A 1_555 1_555
C11A C6A 1_555 1_555
H9A C11A 1_555 1_555
C12A P1A 1_555 1_555
C13A C12A 1_555 1_555
H10A C13A 1_555 1_555
C14A C13A 1_555 1_555
H11A C14A 1_555 1_555
C15A C14A 1_555 1_555
H12A C15A 1_555 1_555
C16A C15A 1_555 1_555
H13A C16A 1_555 1_555
C17A C12A 1_555 1_555
H14A C17A 1_555 1_555
C18A P1A 1_555 1_555
C19A C18A 1_555 1_555
H15A C19A 1_555 1_555
C20A C19A 1_555 1_555
H16A C20A 1_555 1_555
C21A C20A 1_555 1_555
H17A C21A 1_555 1_555
C22A C21A 1_555 1_555
H18A C22A 1_555 1_555
C23A C18A 1_555 1_555
H19A C23A 1_555 1_555
C4 C5 1_555 1_555
C10 C11 1_555 1_555
C16 C17 1_555 1_555
C22 C23 1_555 1_555
I1A Cu1A 1_555 1_555
C2A C3A 1_555 1_555
C4A C5A 1_555 1_555
C10A C11A 1_555 1_555
C16A C17A 1_555 1_555
C22A C23A 1_555 1_555

#END
