
#######################################################################
#
#                 Cambridge Crystallographic Data Centre
#                                CCDC 
#
#######################################################################
#
# If this CIF has been generated from an entry in the Cambridge 
# Structural Database, then it will include bibliographic, chemical, 
# crystal, experimental, refinement or atomic coordinate data resulting 
# from the CCDC's data processing and validation procedures.
#
#######################################################################

data_IKEWIE
_symmetry_cell_setting           monoclinic
_symmetry_space_group_name_H-M   'P 21/n'
_symmetry_Int_Tables_number      14
_space_group_name_Hall           '-P 2yn'
loop_
_symmetry_equiv_pos_site_id
_symmetry_equiv_pos_as_xyz
1 x,y,z
2 1/2+x,1/2-y,1/2+z
3 -x,-y,-z
4 1/2-x,1/2+y,1/2-z
_cell_length_a                   7.844(2)
_cell_length_b                   19.406(4)
_cell_length_c                   8.376(2)
_cell_angle_alpha                90
_cell_angle_beta                 93.72(3)
_cell_angle_gamma                90
_cell_volume                     1272.31
loop_
_atom_site_label
_atom_site_type_symbol
_atom_site_fract_x
_atom_site_fract_y
_atom_site_fract_z
Ag1 Ag 0.05122(6) 0.72871(2) 0.74301(6)
N1 N -0.0169(6) 0.7164(2) 0.9826(6)
H1 H -0.0294 0.7586 1.0251
H2 H 0.0704 0.6956 1.0385
N2 N -0.3833(6) 0.7729(3) 1.0006(6)
H3 H -0.4739 0.7901 0.9423
H4 H -0.2978 0.8035 0.9947
C1 C -0.1749(8) 0.6776(3) 1.0051(8)
H5 H -0.1936 0.6748 1.1171
H6 H -0.1601 0.6315 0.9665
C2 C -0.3287(8) 0.7098(3) 0.9203(8)
H7 H -0.3031 0.7204 0.8125
H8 H -0.4212 0.6773 0.9160
N2A N 0.1167(6) 0.7271(3) 0.5006(6)
Ag1A Ag -0.44878(6) 0.77129(2) 1.24301(6)
H3A H 0.0261 0.7099 0.4423
H4A H 0.2022 0.6965 0.4947
O1 O 0.0840(5) 1.1431(2) 0.9180(5)
O2 O 0.3732(5) 1.0845(2) 0.8259(6)
O3 O 0.3305(5) 1.0283(3) 0.6063(6)
O4 O -0.1221(6) 0.8615(2) 0.6094(6)
O5 O -0.3491(6) 0.8848(2) 0.7299(5)
O6 O -0.3450(5) 1.0816(2) 1.0866(5)
O7 O -0.2443(5) 1.1725(2) 0.9808(5)
N3 N 0.2808(6) 1.0529(2) 0.7288(7)
N4 N -0.2058(7) 0.8995(2) 0.6915(6)
N5 N -0.2528(6) 1.1101(3) 0.9942(6)
C3 C 0.0189(7) 1.0894(3) 0.8637(6)
C4 C 0.1030(6) 1.0405(3) 0.7657(6)
C5 C 0.0314(6) 0.9807(3) 0.7055(6)
H9 H 0.0928 0.9513 0.6372
C6 C -0.1316(7) 0.9633(3) 0.7462(6)
C7 C -0.2238(7) 1.0059(3) 0.8410(7)
H10 H -0.3366 0.9933 0.8685
C8 C -0.1522(6) 1.0664(3) 0.8941(6)
loop_
_geom_bond_atom_site_label_1
_geom_bond_atom_site_label_2
_geom_bond_site_symmetry_1
_geom_bond_site_symmetry_2
Ag1 N1 1_555 1_555
O1 C3 1_555 1_555
O2 N3 1_555 1_555
O3 N3 1_555 1_555
O4 N4 1_555 1_555
O5 N4 1_555 1_555
O6 N5 1_555 1_555
O7 N5 1_555 1_555
N1 H1 1_555 1_555
H2 N1 1_555 1_555
N2 H3 1_555 1_555
H4 N2 1_555 1_555
N3 C4 1_555 1_555
N4 C6 1_555 1_555
N5 C8 1_555 1_555
C1 N1 1_555 1_555
H5 C1 1_555 1_555
H6 C1 1_555 1_555
C2 N2 1_555 1_555
H7 C2 1_555 1_555
H8 C2 1_555 1_555
C3 C4 1_555 1_555
C4 C5 1_555 1_555
C5 H9 1_555 1_555
C6 C5 1_555 1_555
C7 C6 1_555 1_555
H10 C7 1_555 1_555
C8 C3 1_555 1_555
N2A Ag1 1_555 1_555
Ag1A N2 1_555 1_555
H3A N2A 1_555 1_555
H4A N2A 1_555 1_555
C1 C2 1_555 1_555
C7 C8 1_555 1_555

#END
