
#######################################################################
#
#                 Cambridge Crystallographic Data Centre
#                                CCDC 
#
#######################################################################
#
# If this CIF has been generated from an entry in the Cambridge 
# Structural Database, then it will include bibliographic, chemical, 
# crystal, experimental, refinement or atomic coordinate data resulting 
# from the CCDC's data processing and validation procedures.
#
#######################################################################

data_IKOQAA
_symmetry_cell_setting           triclinic
_symmetry_space_group_name_H-M   'P -1'
_symmetry_Int_Tables_number      2
_space_group_name_Hall           '-P 1'
loop_
_symmetry_equiv_pos_site_id
_symmetry_equiv_pos_as_xyz
1 x,y,z
2 -x,-y,-z
_cell_length_a                   9.425(2)
_cell_length_b                   10.267(2)
_cell_length_c                   18.649(4)
_cell_angle_alpha                74.03(3)
_cell_angle_beta                 85.93(3)
_cell_angle_gamma                64.15(3)
_cell_volume                     1558.84
loop_
_atom_site_label
_atom_site_type_symbol
_atom_site_fract_x
_atom_site_fract_y
_atom_site_fract_z
Cd1 Cd 0.07979(2) -0.13517(2) 0.420400(12)
Cd2 Cd -0.25397(2) 0.38173(2) 0.006710(12)
O1 O -0.1719(3) -0.0974(3) 0.39795(13)
O2 O -0.0684(3) -0.0241(3) 0.29442(14)
O3 O -0.4548(3) 0.3483(3) 0.07278(15)
O4 O -0.7064(3) 0.4232(3) 0.09387(15)
O5 O 0.0367(4) 0.0999(3) 0.41761(15)
O6 O -0.0780(3) 0.2889(3) 0.46782(13)
O7 O -0.2135(3) 0.5038(3) 0.08038(13)
O8 O -0.1073(3) 0.2591(3) 0.13541(13)
N1 N 0.3450(3) -0.2003(3) 0.45545(16)
N2 N 0.2566(3) -0.3144(3) 0.36339(15)
N3 N -0.2810(3) 0.2522(3) -0.07194(15)
N4 N -0.0045(3) 0.2311(3) -0.02602(14)
C1 C 0.3831(4) -0.1423(4) 0.5032(2)
H1 H 0.3007 -0.0610 0.5188
C2 C 0.5357(5) -0.1958(4) 0.5313(2)
H2 H 0.5600 -0.1518 0.5651
C3 C 0.6530(4) -0.3143(4) 0.5106(2)
H3 H 0.7605 -0.3529 0.5287
C4 C 0.6161(4) -0.3772(3) 0.46226(19)
H4 H 0.6954 -0.4623 0.4481
C5 C 0.4602(3) -0.3155(3) 0.43454(17)
C6 C 0.4120(3) -0.3736(3) 0.38032(18)
C7 C 0.5207(4) -0.4816(4) 0.3484(2)
H5 H 0.6315 -0.5215 0.3608
C8 C 0.4684(5) -0.5306(4) 0.2985(3)
H6 H 0.5420 -0.6076 0.2771
C9 C 0.3092(5) -0.4691(4) 0.2804(2)
H7 H 0.2702 -0.5001 0.2451
C10 C 0.2078(4) -0.3615(4) 0.3143(2)
H8 H 0.0966 -0.3186 0.3017
C11 C -0.1824(4) -0.0332(3) 0.32931(19)
C12 C -0.3440(3) 0.0412(3) 0.28945(16)
C13 C -0.4651(4) 0.0088(4) 0.32370(18)
H9 H -0.4433 -0.0658 0.3709
C14 C -0.6171(4) 0.0859(4) 0.29056(19)
H10 H -0.7009 0.0648 0.3150
C15 C -0.6476(4) 0.1906(4) 0.22189(17)
H11 H -0.7530 0.2441 0.1994
C16 C -0.5265(3) 0.2209(3) 0.18578(16)
C17 C -0.3739(3) 0.1447(3) 0.21929(16)
H12 H -0.2899 0.1652 0.1947
C18 C -0.5624(4) 0.3379(3) 0.11148(16)
C19 C -0.0289(3) 0.2360(3) 0.41339(17)
C20 C -0.0551(3) 0.3483(3) 0.33858(16)
C21 C -0.0788(4) 0.4940(3) 0.33508(18)
H13 H -0.0684 0.5186 0.3799
C22 C -0.1176(4) 0.6038(4) 0.2666(2)
H14 H -0.1320 0.7034 0.2642
C23 C -0.1346(4) 0.5680(4) 0.20220(19)
H15 H -0.1617 0.6437 0.1552
C24 C -0.1128(3) 0.4239(3) 0.20524(17)
C25 C -0.0698(3) 0.3123(3) 0.27350(17)
H16 H -0.0509 0.2115 0.2758
C26 C -0.1435(4) 0.3899(4) 0.13610(17)
C27 C -0.4218(4) 0.2737(4) -0.0971(2)
H17 H -0.5154 0.3392 -0.0783
C28 C -0.4368(5) 0.2066(5) -0.1492(2)
H18 H -0.5392 0.2242 -0.1659
C29 C -0.3028(5) 0.1139(5) -0.1749(2)
H19 H -0.3102 0.0657 -0.2110
C30 C -0.1556(4) 0.0909(4) -0.1506(2)
H20 H -0.0601 0.0255 -0.1682
C31 C -0.1494(4) 0.1635(3) -0.09877(17)
C32 C 0.0038(3) 0.1473(3) -0.07108(17)
C33 C 0.1470(4) 0.0489(4) -0.0911(2)
H21 H 0.1501 -0.0109 -0.1233
C34 C 0.2845(4) 0.0408(4) -0.0645(2)
H22 H 0.3854 -0.0256 -0.0776
C35 C 0.2755(4) 0.1289(4) -0.0191(2)
H23 H 0.3700 0.1255 -0.0008
C36 C 0.1290(4) 0.2220(4) -0.00024(19)
H24 H 0.1224 0.2823 0.0322
O6A O 0.0780(3) -0.2889(3) 0.53218(13)
Cd1A Cd -0.07979(2) 0.13517(2) 0.579600(12)
O4A O -0.2936(3) 0.5768(3) -0.09387(15)
Cd2A Cd -0.74603(2) 0.61827(2) -0.006710(12)
loop_
_geom_bond_atom_site_label_1
_geom_bond_atom_site_label_2
_geom_bond_site_symmetry_1
_geom_bond_site_symmetry_2
Cd1 O1 1_555 1_555
Cd2 O3 1_555 1_555
O1 C11 1_555 1_555
O2 Cd1 1_555 1_555
O3 C18 1_555 1_555
O4 C18 1_555 1_555
O5 Cd1 1_555 1_555
O6 C19 1_555 1_555
O7 Cd2 1_555 1_555
O8 Cd2 1_555 1_555
N1 Cd1 1_555 1_555
N2 Cd1 1_555 1_555
N3 Cd2 1_555 1_555
N4 Cd2 1_555 1_555
C1 N1 1_555 1_555
H1 C1 1_555 1_555
C2 C1 1_555 1_555
H2 C2 1_555 1_555
C3 C2 1_555 1_555
H3 C3 1_555 1_555
C4 C3 1_555 1_555
H4 C4 1_555 1_555
C5 N1 1_555 1_555
C6 N2 1_555 1_555
C7 C6 1_555 1_555
H5 C7 1_555 1_555
C8 C7 1_555 1_555
H6 C8 1_555 1_555
C9 C8 1_555 1_555
H7 C9 1_555 1_555
C10 N2 1_555 1_555
H8 C10 1_555 1_555
C11 O2 1_555 1_555
C12 C11 1_555 1_555
C13 C12 1_555 1_555
H9 C13 1_555 1_555
C14 C13 1_555 1_555
H10 C14 1_555 1_555
C15 C14 1_555 1_555
H11 C15 1_555 1_555
C16 C15 1_555 1_555
C17 C12 1_555 1_555
H12 C17 1_555 1_555
C18 C16 1_555 1_555
C19 O5 1_555 1_555
C20 C19 1_555 1_555
C21 C20 1_555 1_555
H13 C21 1_555 1_555
C22 C21 1_555 1_555
H14 C22 1_555 1_555
C23 C22 1_555 1_555
H15 C23 1_555 1_555
C24 C23 1_555 1_555
C25 C20 1_555 1_555
H16 C25 1_555 1_555
C26 O7 1_555 1_555
C27 N3 1_555 1_555
H17 C27 1_555 1_555
C28 C27 1_555 1_555
H18 C28 1_555 1_555
C29 C28 1_555 1_555
H19 C29 1_555 1_555
C30 C29 1_555 1_555
H20 C30 1_555 1_555
C31 N3 1_555 1_555
C32 N4 1_555 1_555
C33 C32 1_555 1_555
H21 C33 1_555 1_555
C34 C33 1_555 1_555
H22 C34 1_555 1_555
C35 C34 1_555 1_555
H23 C35 1_555 1_555
C36 N4 1_555 1_555
H24 C36 1_555 1_555
O6A Cd1 1_555 1_555
Cd1A O6 1_555 1_555
O4A Cd2 1_555 1_555
Cd2A O4 1_555 1_555
O8 C26 1_555 1_555
C4 C5 1_555 1_555
C5 C6 1_555 1_555
C9 C10 1_555 1_555
C16 C17 1_555 1_555
C24 C25 1_555 1_555
C24 C26 1_555 1_555
C30 C31 1_555 1_555
C31 C32 1_555 1_555
C35 C36 1_555 1_555

#END
