
#######################################################################
#
#                 Cambridge Crystallographic Data Centre
#                                CCDC 
#
#######################################################################
#
# If this CIF has been generated from an entry in the Cambridge 
# Structural Database, then it will include bibliographic, chemical, 
# crystal, experimental, refinement or atomic coordinate data resulting 
# from the CCDC's data processing and validation procedures.
#
#######################################################################

data_IKOQOO
_symmetry_cell_setting           monoclinic
_symmetry_space_group_name_H-M   'P 21/n'
_symmetry_Int_Tables_number      14
_space_group_name_Hall           '-P 2yn'
loop_
_symmetry_equiv_pos_site_id
_symmetry_equiv_pos_as_xyz
1 x,y,z
2 1/2+x,1/2-y,1/2+z
3 -x,-y,-z
4 1/2-x,1/2+y,1/2-z
_cell_length_a                   9.608(8)
_cell_length_b                   7.725(6)
_cell_length_c                   17.18(1)
_cell_angle_alpha                90
_cell_angle_beta                 104.44(1)
_cell_angle_gamma                90
_cell_volume                     1234.85
loop_
_atom_site_label
_atom_site_type_symbol
_atom_site_fract_x
_atom_site_fract_y
_atom_site_fract_z
Ag1 Ag 0.44435(7) 0.06825(9) -0.28368(5)
N1 N 0.0168(8) -0.4035(10) -0.3491(5)
N2 N 0.3689(8) -0.812(1) -0.4064(5)
N3 N 0.5136(8) -0.2130(10) -0.3196(5)
C1 C 0.1414(9) -0.418(1) -0.3849(5)
C2 C 0.1912(9) -0.606(1) -0.3824(5)
C3 C 0.3241(10) -0.627(1) -0.4147(6)
C4 C 0.4438(9) -0.512(1) -0.3684(5)
C5 C 0.4024(9) -0.323(1) -0.3691(5)
C6 C 0.2649(9) -0.306(1) -0.3393(5)
H1 H 0.1156 -0.3769 -0.4387
H2 H 0.2100 -0.6479 -0.3287
H3 H 0.1141 -0.6733 -0.4150
H4 H 0.3016 -0.5979 -0.4694
H5 H 0.4730 -0.5497 -0.3152
H6 H 0.5221 -0.5201 -0.3935
H7 H 0.3829 -0.2804 -0.4224
H8 H 0.2332 -0.1891 -0.3439
H9 H 0.2846 -0.3402 -0.2842
H10 H -0.0477 -0.4892 -0.3732
H11 H -0.0228 -0.2913 -0.3625
H12 H 0.4517 -0.8317 -0.4274
H13 H 0.2935 -0.8866 -0.4353
H14 H 0.5344 -0.2551 -0.2649
H15 H 0.5980 -0.2203 -0.3380
Ag1C Ag 0.05565(7) -0.43175(9) -0.21632(5)
N1C N 0.4832(8) 0.0965(10) -0.1509(5)
N2_2 N 0.3689(8) 0.188(1) -0.4064(5)
Ag1_2 Ag 0.44435(7) -0.93175(9) -0.28368(5)
H12_2 H 0.4517 0.1683 -0.4274
H13_2 H 0.2935 0.1134 -0.4353
H10C H 0.5477 0.0108 -0.1268
H11C H 0.5228 0.2087 -0.1375
P1 P 0.3050(3) 0.4210(3) 0.1000(2)
F1 F 0.2869(7) 0.6272(9) 0.1020(5)
F2 F 0.4666(6) 0.432(1) 0.1525(4)
F3 F 0.3596(7) 0.4389(9) 0.0196(4)
F4 F 0.1424(6) 0.4100(8) 0.0474(4)
F5 F 0.2478(7) 0.399(1) 0.1780(4)
F6 F 0.3190(8) 0.2170(9) 0.0943(5)
loop_
_geom_bond_atom_site_label_1
_geom_bond_atom_site_label_2
_geom_bond_site_symmetry_1
_geom_bond_site_symmetry_2
Ag1 N3 1_555 1_555
P1 F1 1_555 1_555
F2 P1 1_555 1_555
F3 P1 1_555 1_555
F4 P1 1_555 1_555
F5 P1 1_555 1_555
F6 P1 1_555 1_555
N1 C1 1_555 1_555
N2 C3 1_555 1_555
N3 C5 1_555 1_555
C1 C2 1_555 1_555
C2 C3 1_555 1_555
C3 C4 1_555 1_555
C4 C5 1_555 1_555
C5 C6 1_555 1_555
C6 C1 1_555 1_555
H1 C1 1_555 1_555
H2 C2 1_555 1_555
H3 C2 1_555 1_555
H4 C3 1_555 1_555
H5 C4 1_555 1_555
H6 C4 1_555 1_555
H7 C5 1_555 1_555
H8 C6 1_555 1_555
H9 C6 1_555 1_555
H10 N1 1_555 1_555
H11 N1 1_555 1_555
H12 N2 1_555 1_555
H13 N2 1_555 1_555
H14 N3 1_555 1_555
H15 N3 1_555 1_555
Ag1C N1 1_555 1_555
N1C Ag1 1_555 1_555
N2_2 Ag1 1_555 1_555
Ag1_2 N2 1_555 1_555
H12_2 N2_2 1_555 1_555
H13_2 N2_2 1_555 1_555
H10C N1C 1_555 1_555
H11C N1C 1_555 1_555

#END
