
#######################################################################
#
#                 Cambridge Crystallographic Data Centre
#                                CCDC 
#
#######################################################################
#
# If this CIF has been generated from an entry in the Cambridge 
# Structural Database, then it will include bibliographic, chemical, 
# crystal, experimental, refinement or atomic coordinate data resulting 
# from the CCDC's data processing and validation procedures.
#
#######################################################################

data_IKOVAF
_symmetry_cell_setting           orthorhombic
_symmetry_space_group_name_H-M   'P 21 21 21'
_symmetry_Int_Tables_number      19
_space_group_name_Hall           'P 2ac 2ab'
loop_
_symmetry_equiv_pos_site_id
_symmetry_equiv_pos_as_xyz
1 x,y,z
2 1/2-x,-y,1/2+z
3 -x,1/2+y,1/2-z
4 1/2+x,1/2-y,-z
_cell_length_a                   8.8500(7)
_cell_length_b                   11.2033(8)
_cell_length_c                   13.7538(11)
_cell_angle_alpha                90
_cell_angle_beta                 90
_cell_angle_gamma                90
_cell_volume                     1363.68
loop_
_atom_site_label
_atom_site_type_symbol
_atom_site_fract_x
_atom_site_fract_y
_atom_site_fract_z
Cu1 Cu 0.26143(8) 0.14989(6) 0.05186(5)
N1 N 0.4047(5) 0.0339(5) 0.1116(4)
C1 C 0.5326(7) 0.0556(6) 0.1617(5)
H1 H 0.5679 0.1336 0.1656
C2 C 0.6127(8) -0.0332(7) 0.2074(5)
H2 H 0.6994 -0.0153 0.2426
C3 C 0.5626(7) -0.1484(7) 0.2001(5)
H3 H 0.6168 -0.2100 0.2292
C4 C 0.4326(7) -0.1729(6) 0.1501(5)
H4 H 0.3958 -0.2505 0.1468
C5 C 0.3567(7) -0.0809(5) 0.1046(4)
C6 C 0.2173(6) -0.0990(5) 0.0444(4)
H5 H 0.2448 -0.1142 -0.0227
H6 H 0.1609 -0.1671 0.0684
N2 N 0.1240(5) 0.0100(4) 0.0508(4)
H7 H 0.067(7) 0.020(5) 0.109(4)
C7 C 0.0079(7) 0.0289(5) -0.0248(4)
H8 H 0.0490 0.0019 -0.0872
C8 C -0.0188(6) 0.1647(5) -0.0310(4)
C9 C -0.1369(8) -0.0410(6) -0.0044(5)
H9 H -0.1142 -0.1247 -0.0013
H10 H -0.2085 -0.0267 -0.0556
H11 H -0.1791 -0.0155 0.0564
O1 O 0.0808(4) 0.2325(4) 0.0025(3)
O2 O -0.1399(5) 0.1977(3) -0.0699(3)
O3 O 0.3294(11) 0.1081(7) -0.1110(5)
H12 H 0.290(8) 0.144(7) -0.143(4)
H13 H 0.405(6) 0.122(8) -0.120(4)
O2C O 0.3601(5) 0.3023(3) 0.0699(3)
Cu1C Cu -0.23857(8) 0.35011(6) -0.05186(5)
Cl1 Cl 0.02087(19) 0.18112(15) 0.28321(12)
O4 O 0.1630(5) 0.1348(6) 0.2552(4)
O5 O -0.0192(7) 0.1375(6) 0.3759(4)
O6 O 0.0344(7) 0.3091(5) 0.2875(4)
O7 O -0.0888(6) 0.1525(6) 0.2127(4)
loop_
_geom_bond_atom_site_label_1
_geom_bond_atom_site_label_2
_geom_bond_site_symmetry_1
_geom_bond_site_symmetry_2
Cu1 N1 1_555 1_555
N1 C1 1_555 1_555
C1 H1 1_555 1_555
C2 C1 1_555 1_555
H2 C2 1_555 1_555
C3 C2 1_555 1_555
H3 C3 1_555 1_555
C4 C3 1_555 1_555
H4 C4 1_555 1_555
C5 N1 1_555 1_555
C6 C5 1_555 1_555
H5 C6 1_555 1_555
H6 C6 1_555 1_555
N2 Cu1 1_555 1_555
H7 N2 1_555 1_555
C7 N2 1_555 1_555
H8 C7 1_555 1_555
C8 C7 1_555 1_555
C9 C7 1_555 1_555
H9 C9 1_555 1_555
H10 C9 1_555 1_555
H11 C9 1_555 1_555
O1 Cu1 1_555 1_555
O2 C8 1_555 1_555
O3 Cu1 1_555 1_555
H12 O3 1_555 1_555
H13 O3 1_555 1_555
Cl1 O4 1_555 1_555
O5 Cl1 1_555 1_555
O6 Cl1 1_555 1_555
O7 Cl1 1_555 1_555
O2C Cu1 1_555 1_555
Cu1C O2 1_555 1_555
C4 C5 1_555 1_555
C6 N2 1_555 1_555
C8 O1 1_555 1_555

#END
