
#######################################################################
#
#                 Cambridge Crystallographic Data Centre
#                                CCDC 
#
#######################################################################
#
# If this CIF has been generated from an entry in the Cambridge 
# Structural Database, then it will include bibliographic, chemical, 
# crystal, experimental, refinement or atomic coordinate data resulting 
# from the CCDC's data processing and validation procedures.
#
#######################################################################

data_IKOWOU
_symmetry_cell_setting           orthorhombic
_symmetry_space_group_name_H-M   'P b c n'
_symmetry_Int_Tables_number      60
_space_group_name_Hall           '-P 2n 2ab'
loop_
_symmetry_equiv_pos_site_id
_symmetry_equiv_pos_as_xyz
1 x,y,z
2 1/2+x,1/2+y,1/2-z
3 x,-y,1/2+z
4 1/2-x,1/2+y,z
5 -x,-y,-z
6 1/2-x,1/2-y,1/2+z
7 -x,y,1/2-z
8 1/2+x,1/2-y,-z
_cell_length_a                   7.1361(6)
_cell_length_b                   30.910(2)
_cell_length_c                   11.9478(9)
_cell_angle_alpha                90
_cell_angle_beta                 90
_cell_angle_gamma                90
_cell_volume                     2635.41
loop_
_atom_site_label
_atom_site_type_symbol
_atom_site_fract_x
_atom_site_fract_y
_atom_site_fract_z
Ag1 Ag 0.5000 0.5000 0.5000
N1 N 0.2323(2) 0.36896(5) 0.67943(13)
N2 N 0.3488(2) 0.44451(5) 0.57282(12)
C1 C 0.3100(2) 0.44405(6) 0.68270(15)
H1 H 0.3226 0.4699 0.7249
C2 C 0.2513(3) 0.40616(6) 0.73611(15)
C3 C 0.2150(2) 0.40590(6) 0.85867(15)
C4 C 0.1619(3) 0.44371(6) 0.91485(15)
H2 H 0.1460 0.4699 0.8743
C5 C 0.1323(3) 0.44297(7) 1.03034(17)
H3 H 0.0955 0.4686 1.0682
C6 C 0.1563(3) 0.40494(7) 1.08991(15)
H4 H 0.1376 0.4046 1.1686
C7 C 0.2073(3) 0.36747(7) 1.03472(18)
H5 H 0.2233 0.3414 1.0756
C8 C 0.2353(3) 0.36777(6) 0.91976(16)
H6 H 0.2686 0.3417 0.8824
C9 C 0.2649(2) 0.36968(5) 0.56901(15)
C10 C 0.3233(3) 0.40787(6) 0.51597(15)
H7 H 0.3453 0.4076 0.4375
C11 C 0.2321(3) 0.32938(6) 0.50411(14)
C12 C 0.2740(3) 0.32676(6) 0.39022(15)
H8 H 0.3330 0.3505 0.3539
C13 C 0.2302(3) 0.28982(6) 0.32949(16)
H9 H 0.2579 0.2885 0.2518
C14 C 0.1462(3) 0.25479(6) 0.38199(17)
H10 H 0.1151 0.2296 0.3403
C15 C 0.1081(3) 0.25668(7) 0.49508(15)
H11 H 0.0529 0.2325 0.5314
C16 C 0.1497(2) 0.29363(6) 0.55628(16)
H12 H 0.1220 0.2946 0.6340
N3 N 0.5000 0.44482(8) 0.2500
O1 O 0.3780(2) 0.46551(4) 0.30509(11)
O2 O 0.5000 0.40476(6) 0.2500
N2D N 0.6512(2) 0.55549(5) 0.42718(12)
C1D C 0.6900(2) 0.55595(6) 0.31730(15)
H1D H 0.6774 0.5301 0.2751
C2D C 0.7487(3) 0.59384(6) 0.26389(15)
N1D N 0.7677(2) 0.63104(5) 0.32057(13)
C9D C 0.7351(2) 0.63032(5) 0.43099(15)
C10D C 0.6767(3) 0.59213(6) 0.48403(15)
H7D H 0.6547 0.5924 0.5625
C11D C 0.7679(3) 0.67062(6) 0.49589(14)
C12D C 0.7260(3) 0.67324(6) 0.60978(15)
H8D H 0.6670 0.6495 0.6461
C13D C 0.7698(3) 0.71018(6) 0.67051(16)
H9D H 0.7421 0.7115 0.7482
C14D C 0.8538(3) 0.74521(6) 0.61801(17)
H10D H 0.8849 0.7704 0.6597
C15D C 0.8919(3) 0.74332(7) 0.50492(15)
H11D H 0.9471 0.7675 0.4686
C16D C 0.8503(2) 0.70637(6) 0.44372(16)
H12D H 0.8780 0.7054 0.3660
C3D C 0.7850(2) 0.59410(6) 0.14133(15)
C4D C 0.8381(3) 0.55629(6) 0.08515(15)
H2D H 0.8540 0.5301 0.1257
C5D C 0.8677(3) 0.55703(7) -0.03034(17)
H3D H 0.9045 0.5314 -0.0682
C6D C 0.8437(3) 0.59506(7) -0.08991(15)
H4D H 0.8624 0.5954 -0.1686
C7D C 0.7927(3) 0.63253(7) -0.03472(18)
H5D H 0.7767 0.6586 -0.0756
C8D C 0.7647(3) 0.63223(6) 0.08024(16)
H6D H 0.7314 0.6583 0.1176
O1F O 0.6220(2) 0.46551(4) 0.19491(11)
Ag1F Ag 0.5000 0.5000 0.0000
O1D O 0.6220(2) 0.53449(4) 0.69491(11)
loop_
_geom_bond_atom_site_label_1
_geom_bond_atom_site_label_2
_geom_bond_site_symmetry_1
_geom_bond_site_symmetry_2
Ag1 N2 1_555 1_555
N1 C2 1_555 1_555
N2 C1 1_555 1_555
C1 H1 1_555 1_555
C2 C1 1_555 1_555
C3 C2 1_555 1_555
C4 C3 1_555 1_555
H2 C4 1_555 1_555
C5 C4 1_555 1_555
H3 C5 1_555 1_555
C6 C5 1_555 1_555
H4 C6 1_555 1_555
C7 C6 1_555 1_555
H5 C7 1_555 1_555
C8 C3 1_555 1_555
H6 C8 1_555 1_555
C9 N1 1_555 1_555
C10 N2 1_555 1_555
H7 C10 1_555 1_555
C11 C9 1_555 1_555
C12 C11 1_555 1_555
H8 C12 1_555 1_555
C13 C12 1_555 1_555
H9 C13 1_555 1_555
C14 C13 1_555 1_555
H10 C14 1_555 1_555
C15 C14 1_555 1_555
H11 C15 1_555 1_555
C16 C11 1_555 1_555
H12 C16 1_555 1_555
N3 O1 1_555 1_555
O1 Ag1 1_555 1_555
O2 N3 1_555 1_555
N2D Ag1 1_555 1_555
C1D N2D 1_555 1_555
H1D C1D 1_555 1_555
C2D C1D 1_555 1_555
N1D C2D 1_555 1_555
C9D N1D 1_555 1_555
C10D N2D 1_555 1_555
H7D C10D 1_555 1_555
C11D C9D 1_555 1_555
C12D C11D 1_555 1_555
H8D C12D 1_555 1_555
C13D C12D 1_555 1_555
H9D C13D 1_555 1_555
C14D C13D 1_555 1_555
H10D C14D 1_555 1_555
C15D C14D 1_555 1_555
H11D C15D 1_555 1_555
C16D C11D 1_555 1_555
H12D C16D 1_555 1_555
C3D C2D 1_555 1_555
C4D C3D 1_555 1_555
H2D C4D 1_555 1_555
C5D C4D 1_555 1_555
H3D C5D 1_555 1_555
C6D C5D 1_555 1_555
H4D C6D 1_555 1_555
C7D C6D 1_555 1_555
H5D C7D 1_555 1_555
C8D C3D 1_555 1_555
H6D C8D 1_555 1_555
O1F N3 1_555 1_555
Ag1F O1F 1_555 1_555
O1D Ag1 1_555 1_555
C7 C8 1_555 1_555
C9 C10 1_555 1_555
C15 C16 1_555 1_555
C9D C10D 1_555 1_555
C15D C16D 1_555 1_555
C7D C8D 1_555 1_555

#END
