
#######################################################################
#
#                 Cambridge Crystallographic Data Centre
#                                CCDC 
#
#######################################################################
#
# If this CIF has been generated from an entry in the Cambridge 
# Structural Database, then it will include bibliographic, chemical, 
# crystal, experimental, refinement or atomic coordinate data resulting 
# from the CCDC's data processing and validation procedures.
#
#######################################################################

data_IKOWUA
_symmetry_cell_setting           triclinic
_symmetry_space_group_name_H-M   'P -1'
_symmetry_Int_Tables_number      2
_space_group_name_Hall           '-P 1'
loop_
_symmetry_equiv_pos_site_id
_symmetry_equiv_pos_as_xyz
1 x,y,z
2 -x,-y,-z
_cell_length_a                   4.5443(4)
_cell_length_b                   14.3428(13)
_cell_length_c                   15.3996(14)
_cell_angle_alpha                89.317(2)
_cell_angle_beta                 84.737(2)
_cell_angle_gamma                87.086(2)
_cell_volume                     998.164
loop_
_atom_site_label
_atom_site_type_symbol
_atom_site_fract_x
_atom_site_fract_y
_atom_site_fract_z
Ag1 Ag 0.76446(4) -0.459080(11) 0.448250(11)
F1 F 0.6816(4) -0.77642(11) 0.35550(10)
F2 F 0.6847(4) -0.81591(10) 0.49094(11)
F3 F 1.0864(4) -0.82849(11) 0.40486(13)
O1 O 0.7572(4) -0.61109(12) 0.41986(14)
O2 O 1.1078(4) -0.67287(12) 0.50011(13)
N1 N 0.4266(4) -0.43513(13) 0.34198(13)
N2 N 0.0180(4) -0.41515(13) 0.21781(13)
C1 C 0.2988(5) -0.35193(15) 0.32425(15)
H1 H 0.3520 -0.2983 0.3537
C2 C 0.0893(5) -0.34175(15) 0.26357(15)
C3 C -0.0674(5) -0.25015(14) 0.24939(15)
C4 C -0.1053(5) -0.18483(15) 0.31659(16)
H2 H -0.0274 -0.1989 0.3707
C5 C -0.2560(6) -0.09933(16) 0.30500(17)
C6 C -0.3677(6) -0.08001(16) 0.22600(18)
H3 H -0.4698 -0.0215 0.2179
C7 C -0.3348(5) -0.14410(16) 0.15757(17)
C8 C -0.1843(5) -0.22977(15) 0.17047(16)
H4 H -0.1616 -0.2745 0.1250
C9 C -0.2959(8) -0.02944(18) 0.3788(2)
H5 H -0.4720 0.0114 0.3721
H6 H -0.1214 0.0082 0.3772
H7 H -0.3201 -0.0628 0.4347
C10 C -0.4587(7) -0.11997(19) 0.07265(19)
H8 H -0.3988 -0.1693 0.0303
H9 H -0.3830 -0.0606 0.0505
H10 H -0.6751 -0.1142 0.0817
C11 C 0.3509(5) -0.50895(15) 0.29760(15)
H11 H 0.4361 -0.5691 0.3094
C12 C 0.1484(5) -0.49914(14) 0.23412(14)
C13 C 0.0674(5) -0.58054(14) 0.18396(14)
C14 C 0.1678(5) -0.67166(15) 0.20466(15)
H12 H 0.2868 -0.6818 0.2518
C15 C 0.0939(5) -0.74736(15) 0.15650(16)
C16 C -0.0824(5) -0.73127(15) 0.08855(15)
H13 H -0.1352 -0.7829 0.0562
C17 C -0.1850(5) -0.64152(15) 0.06607(15)
C18 C -0.1102(5) -0.56637(15) 0.11546(15)
H14 H -0.1816 -0.5049 0.1021
C19 C 0.2030(6) -0.84486(16) 0.17898(18)
H15 H 0.2855 -0.8769 0.1257
H16 H 0.0379 -0.8793 0.2065
H17 H 0.3566 -0.8418 0.2194
C20 C -0.3729(5) -0.62586(16) -0.00859(15)
H18 H -0.3330 -0.6771 -0.0502
H19 H -0.3260 -0.5666 -0.0378
H20 H -0.5823 -0.6236 0.0135
C21 C 0.9112(5) -0.67555(15) 0.44976(15)
C22 C 0.8403(5) -0.77507(16) 0.42414(17)
Ag1A Ag 0.23554(4) -0.540920(11) 0.551750(11)
Ag1A_2 Ag 1.23554(4) -0.540920(11) 0.551750(11)
O2A O 0.8922(4) -0.32713(12) 0.49989(13)
loop_
_geom_bond_atom_site_label_1
_geom_bond_atom_site_label_2
_geom_bond_site_symmetry_1
_geom_bond_site_symmetry_2
Ag1 O1 1_555 1_555
F1 C22 1_555 1_555
F2 C22 1_555 1_555
F3 C22 1_555 1_555
O1 C21 1_555 1_555
O2 C21 1_555 1_555
N1 Ag1 1_555 1_555
N2 C2 1_555 1_555
C1 N1 1_555 1_555
H1 C1 1_555 1_555
C2 C1 1_555 1_555
C3 C2 1_555 1_555
C4 C3 1_555 1_555
H2 C4 1_555 1_555
C5 C4 1_555 1_555
C6 C5 1_555 1_555
H3 C6 1_555 1_555
C7 C6 1_555 1_555
C8 C3 1_555 1_555
H4 C8 1_555 1_555
C9 C5 1_555 1_555
H5 C9 1_555 1_555
H6 C9 1_555 1_555
H7 C9 1_555 1_555
C10 C7 1_555 1_555
H8 C10 1_555 1_555
H9 C10 1_555 1_555
H10 C10 1_555 1_555
C11 N1 1_555 1_555
H11 C11 1_555 1_555
C12 N2 1_555 1_555
C13 C12 1_555 1_555
C14 C13 1_555 1_555
H12 C14 1_555 1_555
C15 C14 1_555 1_555
C16 C15 1_555 1_555
H13 C16 1_555 1_555
C17 C16 1_555 1_555
C18 C13 1_555 1_555
H14 C18 1_555 1_555
C19 C15 1_555 1_555
H15 C19 1_555 1_555
H16 C19 1_555 1_555
H17 C19 1_555 1_555
C20 C17 1_555 1_555
H18 C20 1_555 1_555
H19 C20 1_555 1_555
H20 C20 1_555 1_555
C21 C22 1_555 1_555
Ag1A Ag1 1_555 1_555
Ag1A_2 Ag1 1_555 1_555
O2A Ag1 1_555 1_555
O2 Ag1A_2 1_555 1_555
C7 C8 1_555 1_555
C11 C12 1_555 1_555
C17 C18 1_555 1_555

#END
