
#######################################################################
#
#                 Cambridge Crystallographic Data Centre
#                                CCDC 
#
#######################################################################
#
# If this CIF has been generated from an entry in the Cambridge 
# Structural Database, then it will include bibliographic, chemical, 
# crystal, experimental, refinement or atomic coordinate data resulting 
# from the CCDC's data processing and validation procedures.
#
#######################################################################

data_IKOYIQ
_symmetry_cell_setting           triclinic
_symmetry_space_group_name_H-M   'P -1'
_symmetry_Int_Tables_number      2
_space_group_name_Hall           '-P 1'
loop_
_symmetry_equiv_pos_site_id
_symmetry_equiv_pos_as_xyz
1 x,y,z
2 -x,-y,-z
_cell_length_a                   9.664(2)
_cell_length_b                   10.584(3)
_cell_length_c                   19.798(3)
_cell_angle_alpha                83.446(11)
_cell_angle_beta                 84.365(10)
_cell_angle_gamma                63.884(12)
_cell_volume                     1803.78
loop_
_atom_site_label
_atom_site_type_symbol
_atom_site_fract_x
_atom_site_fract_y
_atom_site_fract_z
Yb1 Yb -0.712990(16) 0.090930(14) 0.244770(6)
Co1 Co -0.26754(5) -0.45608(5) 0.22638(2)
O1 O -0.6809(3) 0.2843(3) 0.18562(13)
H1 H -0.7365 0.3274 0.1530
H2 H -0.6377 0.3368 0.1890
O2 O -0.7347(4) -0.0141(3) 0.35004(12)
H3 H -0.7458 -0.0887 0.3570
H4 H -0.7100 0.0011 0.3873
O3 O -0.7093(3) 0.0756(3) 0.12757(12)
H5 H -0.7576 0.1465 0.1020
H6 H -0.7416 0.0175 0.1191
O4 O -0.8569(3) -0.0311(3) 0.23274(12)
H7 H -0.9093 -0.0076 0.1981
H8 H -0.8255 -0.1178 0.2341
N1 N -0.5242(4) -0.1531(3) 0.23029(15)
N2 N -0.3243(5) -0.4934(4) 0.38057(17)
N3 N -0.0359(4) -0.3414(4) 0.2440(2)
N4 N 0.0250(4) -0.7346(3) 0.22753(15)
N5 N -0.1992(4) -0.4222(4) 0.07286(16)
N6 N -0.4953(4) -0.5795(3) 0.21106(16)
N7 N -0.4733(4) 0.0863(3) 0.28148(14)
N8 N -0.7560(4) 0.2569(3) 0.33403(15)
C1 C -0.4315(4) -0.2687(4) 0.22762(17)
C2 C -0.3002(4) -0.4811(4) 0.32264(19)
C3 C -0.1255(4) -0.3814(4) 0.23755(19)
C4 C -0.0916(4) -0.6347(4) 0.22668(16)
C5 C -0.2309(4) -0.4320(4) 0.13049(18)
C6 C -0.4075(4) -0.5350(4) 0.21571(16)
C7 C -0.3351(4) 0.0015(4) 0.25462(19)
H21 H -0.3304 -0.0603 0.2223
C8 C -0.1984(5) -0.0006(4) 0.2717(2)
H22 H -0.1025 -0.0629 0.2516
C9 C -0.2033(5) 0.0884(5) 0.3181(2)
H23 H -0.1111 0.0894 0.3302
C10 C -0.3453(5) 0.1769(5) 0.3467(2)
H24 H -0.3516 0.2386 0.3794
C11 C -0.4792(5) 0.1747(4) 0.32727(17)
C12 C -0.6347(5) 0.2681(4) 0.35613(18)
C13 C -0.6532(6) 0.3610(5) 0.4050(2)
H25 H -0.5662 0.3679 0.4196
C14 C -0.7995(6) 0.4422(5) 0.4314(2)
H26 H -0.8142 0.5062 0.4644
C15 C -0.9236(6) 0.4304(4) 0.4101(2)
H27 H -1.0253 0.4852 0.4279
C16 C -0.8966(5) 0.3362(4) 0.36186(19)
H28 H -0.9825 0.3270 0.3475
N4_2 N -0.9750(4) 0.2654(3) 0.22753(15)
Yb1_2 Yb 0.287010(16) -0.909070(14) 0.244770(6)
O5 O -0.8606(3) 0.3480(3) 0.06652(13)
H9 H -0.8306 0.3624 0.0255
H10 H -0.9490 0.4114 0.0648
O6 O -0.7701(3) -0.3168(3) 0.25721(15)
H11 H -0.6987 -0.3857 0.2401
H12 H -0.8397 -0.3415 0.2519
O9 O -0.7809(13) -0.2656(10) 0.5206(4)
H17 H -0.7341 -0.3333 0.5482
H18 H -0.7005 -0.2730 0.4969
O10 O -0.6674(8) -0.2985(6) 0.3797(3)
H19 H -0.7031 -0.2904 0.4210
H20 H -0.7147 -0.3120 0.3496
N9 N 0.2458(4) -0.1486(3) 0.08839(15)
N10 N -0.0436(4) 0.0521(4) 0.11609(16)
C17 C 0.3901(5) -0.2508(4) 0.08121(17)
H29 H 0.4735 -0.2284 0.0860
C18 C 0.4244(5) -0.3879(4) 0.06719(18)
H30 H 0.5283 -0.4565 0.0616
C19 C 0.3026(5) -0.4211(4) 0.0617(2)
H31 H 0.3214 -0.5138 0.0530
C20 C 0.1530(5) -0.3169(4) 0.06910(19)
H32 H 0.0680 -0.3377 0.0657
C21 C 0.1277(4) -0.1806(4) 0.08166(17)
C22 C -0.0305(5) -0.0624(4) 0.08771(17)
C23 C -0.1572(5) -0.0711(5) 0.0643(2)
H33 H -0.1457 -0.1543 0.0457
C24 C -0.3007(5) 0.0445(5) 0.0686(2)
H34 H -0.3890 0.0409 0.0533
C25 C -0.3140(5) 0.1645(5) 0.09527(19)
H35 H -0.4105 0.2454 0.0978
C26 C -0.1823(5) 0.1637(5) 0.1183(2)
H36 H -0.1909 0.2462 0.1366
N11 N -0.6937(6) 0.0355(4) 0.48073(17)
C27 C -0.8394(8) 0.1048(6) 0.5051(2)
H37 H -0.9188 0.0979 0.4832
C28 C -0.8814(8) 0.1859(5) 0.5604(2)
H38 H -0.9859 0.2307 0.5770
C29 C -0.7663(8) 0.1994(5) 0.5906(2)
H39 H -0.7912 0.2579 0.6272
C30 C -0.6151(8) 0.1277(5) 0.5673(2)
H40 H -0.5348 0.1356 0.5879
C31 C -0.5807(7) 0.0424(4) 0.51276(19)
C31A C -0.4193(7) -0.0424(4) 0.48724(19)
N11A N -0.3063(6) -0.0355(4) 0.51927(17)
C27A C -0.1606(8) -0.1048(6) 0.4949(2)
H37A H -0.0812 -0.0979 0.5168
C28A C -0.1186(8) -0.1859(5) 0.4396(2)
H38A H -0.0141 -0.2307 0.4230
C29A C -0.2337(8) -0.1994(5) 0.4094(2)
H39A H -0.2088 -0.2579 0.3728
C30A C -0.3849(8) -0.1277(5) 0.4327(2)
H40A H -0.4652 -0.1356 0.4121
O7? O -0.5770(12) -0.3967(10) 0.4847(4)
H13? H -0.5610 -0.4621 0.4602
H14? H -0.5707 -0.4120 0.5278
O8? O -0.7752(14) -0.2385(10) 0.3843(4)
H15? H -0.7141 -0.2834 0.4148
H16? H -0.7282 -0.2954 0.3543
loop_
_geom_bond_atom_site_label_1
_geom_bond_atom_site_label_2
_geom_bond_site_symmetry_1
_geom_bond_site_symmetry_2
Yb1 O1 1_555 1_555
Co1 C1 1_555 1_555
O1 H1 1_555 1_555
H2 O1 1_555 1_555
O2 Yb1 1_555 1_555
H3 O2 1_555 1_555
H4 O2 1_555 1_555
O3 Yb1 1_555 1_555
H5 O3 1_555 1_555
H6 O3 1_555 1_555
O4 Yb1 1_555 1_555
H7 O4 1_555 1_555
H8 O4 1_555 1_555
O5 H9 1_555 1_555
H10 O5 1_555 1_555
O6 H11 1_555 1_555
H12 O6 1_555 1_555
O9 H17 1_555 1_555
H18 O9 1_555 1_555
O10 H19 1_555 1_555
H20 O10 1_555 1_555
N1 Yb1 1_555 1_555
N2 C2 1_555 1_555
N3 C3 1_555 1_555
N4 C4 1_555 1_555
N5 C5 1_555 1_555
N6 C6 1_555 1_555
N7 Yb1 1_555 1_555
N8 Yb1 1_555 1_555
N9 C17 1_555 1_555
N10 C22 1_555 1_555
N11 C27 1_555 1_555
C1 N1 1_555 1_555
C2 Co1 1_555 1_555
C3 Co1 1_555 1_555
C4 Co1 1_555 1_555
C5 Co1 1_555 1_555
C6 Co1 1_555 1_555
C7 N7 1_555 1_555
H21 C7 1_555 1_555
C8 C7 1_555 1_555
H22 C8 1_555 1_555
C9 C8 1_555 1_555
H23 C9 1_555 1_555
C10 C9 1_555 1_555
H24 C10 1_555 1_555
C11 N7 1_555 1_555
C12 N8 1_555 1_555
C13 C12 1_555 1_555
H25 C13 1_555 1_555
C14 C13 1_555 1_555
H26 C14 1_555 1_555
C15 C14 1_555 1_555
H27 C15 1_555 1_555
C16 N8 1_555 1_555
H28 C16 1_555 1_555
C17 H29 1_555 1_555
C18 C17 1_555 1_555
H30 C18 1_555 1_555
C19 C18 1_555 1_555
H31 C19 1_555 1_555
C20 C19 1_555 1_555
H32 C20 1_555 1_555
C21 N9 1_555 1_555
C22 C21 1_555 1_555
C23 C22 1_555 1_555
H33 C23 1_555 1_555
C24 C23 1_555 1_555
H34 C24 1_555 1_555
C25 C24 1_555 1_555
H35 C25 1_555 1_555
C26 N10 1_555 1_555
H36 C26 1_555 1_555
C27 H37 1_555 1_555
C28 C27 1_555 1_555
H38 C28 1_555 1_555
C29 C28 1_555 1_555
H39 C29 1_555 1_555
C30 C29 1_555 1_555
H40 C30 1_555 1_555
C31 N11 1_555 1_555
C31A C31 1_555 1_555
N11A C31A 1_555 1_555
C27A N11A 1_555 1_555
H37A C27A 1_555 1_555
C28A C27A 1_555 1_555
H38A C28A 1_555 1_555
C29A C28A 1_555 1_555
H39A C29A 1_555 1_555
C30A C31A 1_555 1_555
H40A C30A 1_555 1_555
N4_2 Yb1 1_555 1_555
Yb1_2 N4 1_555 1_555
C10 C11 1_555 1_555
C11 C12 1_555 1_555
C15 C16 1_555 1_555
C20 C21 1_555 1_555
C25 C26 1_555 1_555
C30 C31 1_555 1_555
C29A C30A 1_555 1_555

#END
