
#######################################################################
#
#                 Cambridge Crystallographic Data Centre
#                                CCDC 
#
#######################################################################
#
# If this CIF has been generated from an entry in the Cambridge 
# Structural Database, then it will include bibliographic, chemical, 
# crystal, experimental, refinement or atomic coordinate data resulting 
# from the CCDC's data processing and validation procedures.
#
#######################################################################

data_IKOZUD
_symmetry_cell_setting           monoclinic
_symmetry_space_group_name_H-M   'C 2/c'
_symmetry_Int_Tables_number      15
_space_group_name_Hall           '-C 2yn'
loop_
_symmetry_equiv_pos_site_id
_symmetry_equiv_pos_as_xyz
1 x,y,z
2 1/2+x,1/2+y,z
3 x,-y,1/2+z
4 1/2+x,1/2-y,1/2+z
5 -x,-y,-z
6 1/2-x,1/2-y,-z
7 -x,y,1/2-z
8 1/2-x,1/2+y,1/2-z
_cell_length_a                   21.923(2)
_cell_length_b                   8.2447(9)
_cell_length_c                   16.1765(17)
_cell_angle_alpha                90.00
_cell_angle_beta                 110.967(2)
_cell_angle_gamma                90.00
_cell_volume                     2730.28
loop_
_atom_site_label
_atom_site_type_symbol
_atom_site_fract_x
_atom_site_fract_y
_atom_site_fract_z
As1 As 0.27187(2) 1.04339(5) 0.12338(3)
Cu1 Cu 0.26421(2) 0.72032(6) 0.20560(3)
V1 V 0.16913(3) 1.12193(9) -0.08153(4)
O1 O 0.20096(17) 1.0867(4) 0.0388(2)
O2 O 0.32983(17) 1.1573(4) 0.1041(2)
O3 O 0.29224(15) 0.8497(4) 0.12299(18)
O4 O 0.26510(16) 1.0860(4) 0.2187(2)
O5 O 0.28941(17) 0.4768(4) 0.1308(2)
O6 O 0.09359(16) 1.0662(4) -0.1230(2)
N1 N 0.35320(18) 0.7417(4) 0.2976(2)
N2 N 0.67124(17) 0.7708(4) 0.6203(2)
C1 C 0.3633(2) 0.8132(5) 0.3759(3)
H1 H 0.3281 0.8608 0.3857
C2 C 0.4242(2) 0.8188(6) 0.4426(3)
H2 H 0.4293 0.8665 0.4967
C3 C 0.4042(2) 0.6758(6) 0.2835(3)
H3 H 0.3974 0.6258 0.2294
C4 C 0.4667(2) 0.6788(6) 0.3459(3)
H4 H 0.5012 0.6324 0.3335
C5 C 0.4778(2) 0.7519(5) 0.4275(3)
C6 C 0.5446(2) 0.7585(5) 0.4946(3)
C7 C 0.5566(2) 0.7328(6) 0.5855(3)
H5 H 0.5224 0.7109 0.6050
C8 C 0.6199(2) 0.7408(6) 0.6449(3)
H6 H 0.6275 0.7248 0.7047
C9 C 0.5976(2) 0.7904(6) 0.4704(3)
H7 H 0.5916 0.8086 0.4112
C10 C 0.6599(2) 0.7952(6) 0.5342(3)
H8 H 0.6951 0.8162 0.5165
O4G O 0.23490(16) 0.5860(4) 0.2813(2)
N2C N 0.17124(17) 0.7292(4) 0.1203(2)
O2E O 0.17017(17) 1.3427(4) -0.1041(2)
O5E O 0.21059(17) 1.0232(4) -0.1308(2)
V1E V 0.33087(3) 1.37807(9) 0.08153(4)
Cu1G Cu 0.23579(2) 1.22032(6) 0.29440(3)
V1E_2 V 0.33087(3) 0.37807(9) 0.08153(4)
Cu1C Cu 0.76421(2) 0.77968(6) 0.70560(3)
loop_
_geom_bond_atom_site_label_1
_geom_bond_atom_site_label_2
_geom_bond_site_symmetry_1
_geom_bond_site_symmetry_2
As1 O1 1_555 1_555
Cu1 O3 1_555 1_555
V1 O1 1_555 1_555
O2 As1 1_555 1_555
O3 As1 1_555 1_555
O4 As1 1_555 1_555
O5 Cu1 1_555 1_555
O6 V1 1_555 1_555
N1 Cu1 1_555 1_555
N2 C8 1_555 1_555
C1 N1 1_555 1_555
H1 C1 1_555 1_555
C2 C1 1_555 1_555
H2 C2 1_555 1_555
C3 N1 1_555 1_555
H3 C3 1_555 1_555
C4 C3 1_555 1_555
H4 C4 1_555 1_555
C5 C2 1_555 1_555
C6 C5 1_555 1_555
C7 C6 1_555 1_555
H5 C7 1_555 1_555
C8 C7 1_555 1_555
H6 C8 1_555 1_555
C9 C6 1_555 1_555
H7 C9 1_555 1_555
C10 N2 1_555 1_555
H8 C10 1_555 1_555
O4G Cu1 1_555 1_555
N2C Cu1 1_555 1_555
O2E V1 1_555 1_555
O5E V1 1_555 1_555
V1E O2 1_555 1_555
Cu1G O4 1_555 1_555
V1E_2 O5 1_555 1_555
Cu1C N2 1_555 1_555
C4 C5 1_555 1_555
C9 C10 1_555 1_555

#END
