
#######################################################################
#
#                 Cambridge Crystallographic Data Centre
#                                CCDC 
#
#######################################################################
#
# If this CIF has been generated from an entry in the Cambridge 
# Structural Database, then it will include bibliographic, chemical, 
# crystal, experimental, refinement or atomic coordinate data resulting 
# from the CCDC's data processing and validation procedures.
#
#######################################################################

data_IKUHEB
_symmetry_cell_setting           monoclinic
_symmetry_space_group_name_H-M   'P 21/c'
_symmetry_Int_Tables_number      14
_space_group_name_Hall           '-P 2ybc'
loop_
_symmetry_equiv_pos_site_id
_symmetry_equiv_pos_as_xyz
1 x,y,z
2 -x,1/2+y,1/2-z
3 -x,-y,-z
4 x,1/2-y,1/2+z
_cell_length_a                   9.826(9)
_cell_length_b                   10.891(9)
_cell_length_c                   17.11(1)
_cell_angle_alpha                90
_cell_angle_beta                 106.61(1)
_cell_angle_gamma                90
_cell_volume                     1754.62
loop_
_atom_site_label
_atom_site_type_symbol
_atom_site_fract_x
_atom_site_fract_y
_atom_site_fract_z
Cu1 Cu 1.0000 0.5000 0.0000
O1 O 0.8096(2) 0.5389(2) 0.06136(11)
N1 N 1.1363(2) 0.4775(2) 0.11248(11)
N2 N 1.2349(2) 0.4668(2) 0.24528(11)
N3 N 1.0441(2) 0.8197(2) 0.50770(11)
N4 N 1.1287(2) 0.6407(2) 0.48330(10)
N5 N 1.6023(2) 0.1387(2) 0.55201(13)
N6 N 1.4529(2) 0.2950(2) 0.51404(11)
C1 C 1.1124(3) 0.4788(2) 0.18486(13)
C2 C 1.2807(3) 0.4638(3) 0.1281(2)
C3 C 1.3431(3) 0.4572(3) 0.2090(2)
C4 C 1.0936(3) 0.7561(2) 0.45626(13)
C5 C 1.0464(3) 0.7401(2) 0.5710(1)
C6 C 1.0982(3) 0.6297(2) 0.55729(13)
C7 C 1.5218(3) 0.2005(3) 0.4905(2)
C8 C 1.5849(3) 0.1960(3) 0.6199(2)
C9 C 1.4931(3) 0.2910(3) 0.5984(1)
C10 C 1.2510(3) 0.4661(2) 0.33163(13)
C11 C 1.1765(2) 0.5516(2) 0.36345(13)
C12 C 1.1978(2) 0.5509(2) 0.44719(13)
C13 C 1.2885(3) 0.4671(2) 0.49726(13)
C14 C 1.3599(2) 0.3820(2) 0.46309(13)
C15 C 1.3426(3) 0.3823(2) 0.37956(13)
H1 H 1.0195(3) 0.4871(2) 0.19356(13)
H2 H 1.3299(3) 0.4588(3) 0.0866(2)
H3 H 1.4435(3) 0.4481(3) 0.2366(2)
H4 H 1.1038(3) 0.7881(2) 0.40534(13)
H5 H 1.0150(3) 0.7606(2) 0.6183(1)
H6 H 1.1119(3) 0.5576(2) 0.59196(13)
H7 H 1.5128(3) 0.1810(3) 0.4339(2)
H8 H 1.6318(3) 0.1714(3) 0.6756(2)
H9 H 1.4613(3) 0.3455(3) 0.6345(1)
H10 H 1.1123(2) 0.6098(2) 0.32858(13)
H11 H 1.3025(3) 0.4684(2) 0.55572(13)
H12 H 1.3939(3) 0.3242(2) 0.35554(13)
H13 H 0.737(4) 0.489(3) 0.055(2)
H14 H 0.810(3) 0.588(3) 0.094(2)
O1B O 1.1904(2) 0.4611(2) -0.06136(11)
H13B H 1.263(4) 0.511(3) -0.055(2)
H14B H 1.190(3) 0.412(3) -0.094(2)
N1B N 0.8637(2) 0.5225(2) -0.11248(11)
N2B N 0.7651(2) 0.5332(2) -0.24528(11)
N3B N 0.9559(2) 0.1803(2) -0.50770(11)
N4B N 0.8713(2) 0.3593(2) -0.48330(10)
N5B N 0.3977(2) 0.8613(2) -0.55201(13)
N6B N 0.5471(2) 0.7050(2) -0.51404(11)
C1B C 0.8876(3) 0.5212(2) -0.18486(13)
C2B C 0.7193(3) 0.5362(3) -0.1281(2)
C3B C 0.6569(3) 0.5428(3) -0.2090(2)
C4B C 0.9064(3) 0.2439(2) -0.45626(13)
C5B C 0.9536(3) 0.2599(2) -0.5710(1)
C6B C 0.9018(3) 0.3703(2) -0.55729(13)
C7B C 0.4782(3) 0.7995(3) -0.4905(2)
C8B C 0.4151(3) 0.8040(3) -0.6199(2)
C9B C 0.5069(3) 0.7090(3) -0.5984(1)
C10B C 0.7490(3) 0.5339(2) -0.33163(13)
C11B C 0.8235(2) 0.4484(2) -0.36345(13)
C12B C 0.8022(2) 0.4491(2) -0.44719(13)
C13B C 0.7115(3) 0.5329(2) -0.49726(13)
C14B C 0.6401(2) 0.6180(2) -0.46309(13)
C15B C 0.6574(3) 0.6177(2) -0.37956(13)
H1B H 0.9805(3) 0.5129(2) -0.19356(13)
H2B H 0.6701(3) 0.5412(3) -0.0866(2)
H3B H 0.5565(3) 0.5519(3) -0.2366(2)
H4B H 0.8962(3) 0.2119(2) -0.40534(13)
H5B H 0.9850(3) 0.2394(2) -0.6183(1)
H6B H 0.8881(3) 0.4424(2) -0.59196(13)
H7B H 0.4872(3) 0.8190(3) -0.4339(2)
H8B H 0.3682(3) 0.8286(3) -0.6756(2)
H9B H 0.5387(3) 0.6545(3) -0.6345(1)
H10B H 0.8877(2) 0.3902(2) -0.32858(13)
H11B H 0.6975(3) 0.5316(2) -0.55572(13)
H12B H 0.6061(3) 0.6758(2) -0.35554(13)
N3C N 1.0441(2) 0.6803(2) 0.00770(11)
N3A N 0.9559(2) 0.3197(2) -0.00770(11)
Cu1C Cu 1.0000 1.0000 0.5000
Cu1C_2 Cu 1.0000 0.0000 -0.5000
Cl1 Cl 0.21902(6) 0.10359(6) 0.23874(3)
O2 O 0.1868(2) 0.1411(2) 0.15505(10)
O3 O 0.3670(2) 0.1212(2) 0.27845(13)
O4 O 0.1813(2) -0.0239(2) 0.24272(11)
O5 O 0.1373(2) 0.1771(2) 0.27935(11)
loop_
_geom_bond_atom_site_label_1
_geom_bond_atom_site_label_2
_geom_bond_site_symmetry_1
_geom_bond_site_symmetry_2
Cu1 O1 1_555 1_555
O1 H13 1_555 1_555
N1 Cu1 1_555 1_555
N2 C1 1_555 1_555
N3 C4 1_555 1_555
N4 C4 1_555 1_555
N5 C7 1_555 1_555
N6 C7 1_555 1_555
C1 N1 1_555 1_555
C2 N1 1_555 1_555
C3 N2 1_555 1_555
C4 H4 1_555 1_555
C5 N3 1_555 1_555
C6 N4 1_555 1_555
C7 H7 1_555 1_555
C8 N5 1_555 1_555
C9 N6 1_555 1_555
C10 N2 1_555 1_555
C11 C10 1_555 1_555
C12 N4 1_555 1_555
C13 C12 1_555 1_555
C14 N6 1_555 1_555
C15 C10 1_555 1_555
H1 C1 1_555 1_555
H2 C2 1_555 1_555
H3 C3 1_555 1_555
H5 C5 1_555 1_555
H6 C6 1_555 1_555
H8 C8 1_555 1_555
H9 C9 1_555 1_555
H10 C11 1_555 1_555
H11 C13 1_555 1_555
H12 C15 1_555 1_555
H14 O1 1_555 1_555
Cl1 O2 1_555 1_555
O3 Cl1 1_555 1_555
O4 Cl1 1_555 1_555
O5 Cl1 1_555 1_555
O1B Cu1 1_555 1_555
H13B O1B 1_555 1_555
H14B O1B 1_555 1_555
N1B Cu1 1_555 1_555
N2B C1B 1_555 1_555
N3B C4B 1_555 1_555
N4B C4B 1_555 1_555
N5B C7B 1_555 1_555
N6B C7B 1_555 1_555
C1B N1B 1_555 1_555
C2B N1B 1_555 1_555
C3B N2B 1_555 1_555
C4B H4B 1_555 1_555
C5B N3B 1_555 1_555
C6B N4B 1_555 1_555
C7B H7B 1_555 1_555
C8B N5B 1_555 1_555
C9B N6B 1_555 1_555
C10B N2B 1_555 1_555
C11B C10B 1_555 1_555
C12B N4B 1_555 1_555
C13B C12B 1_555 1_555
C14B N6B 1_555 1_555
C15B C10B 1_555 1_555
H1B C1B 1_555 1_555
H2B C2B 1_555 1_555
H3B C3B 1_555 1_555
H5B C5B 1_555 1_555
H6B C6B 1_555 1_555
H8B C8B 1_555 1_555
H9B C9B 1_555 1_555
H10B C11B 1_555 1_555
H11B C13B 1_555 1_555
H12B C15B 1_555 1_555
N3C Cu1 1_555 1_555
N3A Cu1 1_555 1_555
Cu1C N3 1_555 1_555
Cu1C_2 N3B 1_555 1_555
C2 C3 1_555 1_555
C5 C6 1_555 1_555
C8 C9 1_555 1_555
C11 C12 1_555 1_555
C13 C14 1_555 1_555
C14 C15 1_555 1_555
C2B C3B 1_555 1_555
C5B C6B 1_555 1_555
C8B C9B 1_555 1_555
C11B C12B 1_555 1_555
C13B C14B 1_555 1_555
C14B C15B 1_555 1_555

#END
