
#######################################################################
#
#                 Cambridge Crystallographic Data Centre
#                                CCDC 
#
#######################################################################
#
# If this CIF has been generated from an entry in the Cambridge 
# Structural Database, then it will include bibliographic, chemical, 
# crystal, experimental, refinement or atomic coordinate data resulting 
# from the CCDC's data processing and validation procedures.
#
#######################################################################

data_IKUREL
_symmetry_cell_setting           triclinic
_symmetry_space_group_name_H-M   'P -1'
_symmetry_Int_Tables_number      2
_space_group_name_Hall           '-P 1'
loop_
_symmetry_equiv_pos_site_id
_symmetry_equiv_pos_as_xyz
1 x,y,z
2 -x,-y,-z
_cell_length_a                   9.577(3)
_cell_length_b                   10.306(3)
_cell_length_c                   10.850(4)
_cell_angle_alpha                72.28(3)
_cell_angle_beta                 65.31(3)
_cell_angle_gamma                63.25(2)
_cell_volume                     859.888
loop_
_atom_site_label
_atom_site_type_symbol
_atom_site_fract_x
_atom_site_fract_y
_atom_site_fract_z
Rh1 Rh 0.62293(7) 0.50657(7) 0.49679(8)
O1 O 0.4800(7) 0.7082(7) 0.5601(7)
O2 O 0.2506(6) 0.6949(6) 0.5661(7)
O3 O 0.6514(7) 0.6088(7) 0.2978(7)
O4 O 0.4203(7) 0.5920(7) 0.3052(7)
N1 N 0.8558(8) 0.4988(8) 0.5000(9)
C1 C 0.2275(9) 0.9102(9) 0.6180(9)
C2 C 0.301(1) 0.9904(10) 0.6341(10)
C3 C 0.210(1) 1.125(1) 0.673(1)
C4 C 0.042(1) 1.185(1) 0.700(1)
C5 C -0.037(1) 1.111(1) 0.680(1)
C6 C 0.059(1) 0.970(1) 0.642(1)
C7 C 0.3266(9) 0.7579(9) 0.5797(9)
C8 C 0.567(1) 0.706(1) 0.104(1)
C9 C 0.679(1) 0.777(1) 0.041(1)
C10 C 0.697(2) 0.852(2) -0.092(2)
C11 C 0.602(2) 0.851(2) -0.163(1)
C12 C 0.496(2) 0.781(2) -0.103(1)
C13 C 0.476(1) 0.704(1) 0.030(1)
C14 C 0.5459(9) 0.6297(9) 0.2437(10)
C15 C 0.8552(9) 0.5703(9) 0.5855(10)
C16 C 1.0024(9) 0.4371(9) 0.4091(9)
H1 H 0.4171 0.9500 0.6176
H2 H 0.2627 1.1790 0.6821
H3 H -0.0215 1.2776 0.7323
H4 H -0.1522 1.1553 0.6923
H5 H 0.0068 0.9149 0.6329
H6 H 0.7430 0.7745 0.0895
H7 H 0.7711 0.9025 -0.1345
H8 H 0.6130 0.9014 -0.2541
H9 H 0.4326 0.7831 -0.1523
H10 H 0.4036 0.6517 0.0694
H11 H 0.7521 0.6276 0.6437
H12 H 1.0090 0.3984 0.3339
C16A C 0.9976(9) 0.5629(9) 0.5909(9)
N1A N 1.1442(8) 0.5012(8) 0.5000(9)
C15A C 1.1448(9) 0.4297(9) 0.4145(10)
H11A H 1.2479 0.3724 0.3563
H12A H 0.9910 0.6016 0.6661
O1A O 0.5200(7) 0.2918(7) 0.4399(7)
O2A O 0.7494(6) 0.3051(6) 0.4339(7)
C1A C 0.7725(9) 0.0898(9) 0.3820(9)
C2A C 0.699(1) 0.0096(10) 0.3659(10)
C3A C 0.790(1) -0.125(1) 0.327(1)
C4A C 0.958(1) -0.185(1) 0.300(1)
C5A C 1.037(1) -0.111(1) 0.320(1)
C6A C 0.941(1) 0.030(1) 0.358(1)
C7A C 0.6734(9) 0.2421(9) 0.4203(9)
H1A H 0.5829 0.0500 0.3824
H2A H 0.7373 -0.1790 0.3179
H3A H 1.0215 -0.2776 0.2677
H4A H 1.1522 -0.1553 0.3077
H5A H 0.9932 0.0851 0.3671
O3A O 0.3486(7) 0.3912(7) 0.7022(7)
O4A O 0.5797(7) 0.4080(7) 0.6948(7)
C8A C 0.433(1) 0.294(1) 0.896(1)
C9A C 0.321(1) 0.223(1) 0.959(1)
C10A C 0.303(2) 0.148(2) 1.092(2)
C11A C 0.398(2) 0.149(2) 1.163(1)
C12A C 0.504(2) 0.219(2) 1.103(1)
C13A C 0.524(1) 0.296(1) 0.970(1)
C14A C 0.4541(9) 0.3703(9) 0.7563(10)
H6A H 0.2570 0.2255 0.9105
H7A H 0.2289 0.0975 1.1345
H8A H 0.3870 0.0986 1.2541
H9A H 0.5674 0.2169 1.1523
H10A H 0.5964 0.3483 0.9306
Rh1A Rh 0.37707(7) 0.49343(7) 0.50321(8)
Rh1A_2 Rh 1.37707(7) 0.49343(7) 0.50321(8)
N1A_2 N 0.1442(8) 0.5012(8) 0.5000(9)
O5 O 1.007(5) 0.903(3) 0.980(2)
C17 C 1.0000 1.0000 1.0000
O5A O 0.993(5) 1.097(3) 1.020(2)
loop_
_geom_bond_atom_site_label_1
_geom_bond_atom_site_label_2
_geom_bond_site_symmetry_1
_geom_bond_site_symmetry_2
Rh1 O1 1_555 1_555
O1 C7 1_555 1_555
O2 C7 1_555 1_555
O3 Rh1 1_555 1_555
O4 C14 1_555 1_555
O5 C17 1_555 1_555
N1 Rh1 1_555 1_555
C1 C2 1_555 1_555
C2 C3 1_555 1_555
C3 C4 1_555 1_555
C4 C5 1_555 1_555
C5 C6 1_555 1_555
C6 C1 1_555 1_555
C7 C1 1_555 1_555
C8 C9 1_555 1_555
C9 C10 1_555 1_555
C10 C11 1_555 1_555
C11 C12 1_555 1_555
C12 C13 1_555 1_555
C13 C8 1_555 1_555
C14 O3 1_555 1_555
C15 N1 1_555 1_555
C16 N1 1_555 1_555
C17 O5A 1_555 1_555
H1 C2 1_555 1_555
H2 C3 1_555 1_555
H3 C4 1_555 1_555
H4 C5 1_555 1_555
H5 C6 1_555 1_555
H6 C9 1_555 1_555
H7 C10 1_555 1_555
H8 C11 1_555 1_555
H9 C12 1_555 1_555
H10 C13 1_555 1_555
H11 C15 1_555 1_555
H12 C16 1_555 1_555
C16A C15 1_555 1_555
N1A C16A 1_555 1_555
C15A C16 1_555 1_555
H11A C15A 1_555 1_555
H12A C16A 1_555 1_555
O1A C7A 1_555 1_555
O2A Rh1 1_555 1_555
C1A C2A 1_555 1_555
C2A C3A 1_555 1_555
C3A C4A 1_555 1_555
C4A C5A 1_555 1_555
C5A C6A 1_555 1_555
C6A C1A 1_555 1_555
C7A O2A 1_555 1_555
H1A C2A 1_555 1_555
H2A C3A 1_555 1_555
H3A C4A 1_555 1_555
H4A C5A 1_555 1_555
H5A C6A 1_555 1_555
O3A C14A 1_555 1_555
O4A Rh1 1_555 1_555
C8A C9A 1_555 1_555
C9A C10A 1_555 1_555
C10A C11A 1_555 1_555
C11A C12A 1_555 1_555
C12A C13A 1_555 1_555
C13A C8A 1_555 1_555
C14A O4A 1_555 1_555
H6A C9A 1_555 1_555
H7A C10A 1_555 1_555
H8A C11A 1_555 1_555
H9A C12A 1_555 1_555
H10A C13A 1_555 1_555
Rh1A Rh1 1_555 1_555
Rh1A_2 N1A 1_555 1_555
N1A_2 Rh1A 1_555 1_555
O2 Rh1A 1_555 1_555
O4 Rh1A 1_555 1_555
C8 C14 1_555 1_555
N1A C15A 1_555 1_555
O1A Rh1A 1_555 1_555
C1A C7A 1_555 1_555
O3A Rh1A 1_555 1_555
C8A C14A 1_555 1_555

#END
