
#######################################################################
#
#                 Cambridge Crystallographic Data Centre
#                                CCDC 
#
#######################################################################
#
# If this CIF has been generated from an entry in the Cambridge 
# Structural Database, then it will include bibliographic, chemical, 
# crystal, experimental, refinement or atomic coordinate data resulting 
# from the CCDC's data processing and validation procedures.
#
#######################################################################

data_ILAKOW
_symmetry_cell_setting           orthorhombic
_symmetry_space_group_name_H-M   'P n m a'
_symmetry_Int_Tables_number      62
_space_group_name_Hall           '-P 2ac 2n'
loop_
_symmetry_equiv_pos_site_id
_symmetry_equiv_pos_as_xyz
1 x,y,z
2 1/2-x,-y,1/2+z
3 -x,1/2+y,-z
4 1/2+x,1/2-y,1/2-z
5 -x,-y,-z
6 1/2+x,y,1/2-z
7 x,1/2-y,z
8 1/2-x,1/2+y,1/2+z
_cell_length_a                   7.466(2)
_cell_length_b                   13.030(4)
_cell_length_c                   10.910(3)
_cell_angle_alpha                90
_cell_angle_beta                 90
_cell_angle_gamma                90
_cell_volume                     1061.35
loop_
_atom_site_label
_atom_site_type_symbol
_atom_site_fract_x
_atom_site_fract_y
_atom_site_fract_z
C1 C 0.0380(9) 0.7500 0.4039(7)
C2 C 0.0206(9) 0.7500 0.2707(7)
C3 C 0.0192(8) 0.6580(4) 0.2066(6)
H1 H 0.0150 0.5956 0.2480
C4 C 0.0241(8) 0.6606(4) 0.0822(6)
H2 H 0.0249 0.5993 0.0386
Cu1 Cu 0.0000 0.5000 0.5000
Mo1 Mo 0.22251(7) 0.60835(3) 0.74893(3)
N1 N 0.1083(5) 0.7000(3) 0.5824(3)
N2 N 0.0623(6) 0.6658(3) 0.4720(4)
N3 N 0.0276(9) 0.7500 0.0209(6)
O1 O 0.4418(4) 0.6206(2) 0.6909(3)
O2 O 0.2099(6) 0.7500 0.8065(4)
O3 O 0.1366(4) 0.5124(2) 0.6458(3)
O4 O 0.2371(4) 0.4563(2) 0.3837(3)
C3F C 0.0192(8) 0.8420(4) 0.2066(6)
H1F H 0.0150 0.9044 0.2480
C4F C 0.0241(8) 0.8394(4) 0.0822(6)
H2F H 0.0249 0.9007 0.0386
Cu1B Cu 0.0000 1.0000 0.5000
Mo1F Mo 0.22251(7) 0.89165(3) 0.74893(3)
Mo1E Mo 0.72251(7) 0.60835(3) 0.75107(3)
Mo1A Mo 0.27749(7) 0.39165(3) 0.24893(3)
Mo1D Mo -0.22251(7) 0.39165(3) 0.25107(3)
Mo1E_2 Mo -0.27749(7) 0.60835(3) 0.75107(3)
N1F N 0.1083(5) 0.8000(3) 0.5824(3)
N2F N 0.0623(6) 0.8342(3) 0.4720(4)
N2D N -0.0623(6) 0.3342(3) 0.5280(4)
O1E O -0.0582(4) 0.6206(2) 0.8091(3)
O1F O 0.4418(4) 0.8794(2) 0.6909(3)
O1C O -0.0582(4) 0.8794(2) 0.8091(3)
O3D O -0.1366(4) 0.4876(2) 0.3542(3)
O3F O 0.1366(4) 0.9876(2) 0.6458(3)
O4D O -0.2371(4) 0.5437(2) 0.6163(3)
O4A O 0.2629(4) 0.5437(2) 0.8837(3)
O4G O 0.2629(4) 0.9563(2) 0.8837(3)
loop_
_geom_bond_atom_site_label_1
_geom_bond_atom_site_label_2
_geom_bond_site_symmetry_1
_geom_bond_site_symmetry_2
C1 C2 1_555 1_555
C2 C3 1_555 1_555
C3 H1 1_555 1_555
C4 C3 1_555 1_555
H2 C4 1_555 1_555
Cu1 N2 1_555 1_555
Mo1 N1 1_555 1_555
N1 N2 1_555 1_555
N2 C1 1_555 1_555
N3 C4 1_555 1_555
O1 Mo1 1_555 1_555
O2 Mo1 1_555 1_555
O3 Cu1 1_555 1_555
O4 Cu1 1_555 1_555
C3F C2 1_555 1_555
H1F C3F 1_555 1_555
C4F N3 1_555 1_555
H2F C4F 1_555 1_555
Cu1B N2F 1_555 1_555
Mo1F O2 1_555 1_555
Mo1E O1 1_555 1_555
Mo1A O4 1_555 1_555
Mo1D O3D 1_555 1_555
Mo1E_2 O1E 1_555 1_555
N1F N1 1_555 1_555
N2F C1 1_555 1_555
N2D Cu1 1_555 1_555
O1E Mo1 1_555 1_555
O1F Mo1F 1_555 1_555
O1C Mo1F 1_555 1_555
O3D Cu1 1_555 1_555
O3F Cu1B 1_555 1_555
O4D Cu1 1_555 1_555
O4A Mo1 1_555 1_555
O4G Mo1F 1_555 1_555
Mo1 O3 1_555 1_555
C3F C4F 1_555 1_555
Mo1F N1F 1_555 1_555
Mo1F O3F 1_555 1_555
Mo1E_2 O4D 1_555 1_555
N1F N2F 1_555 1_555

#END
