
#######################################################################
#
#                 Cambridge Crystallographic Data Centre
#                                CCDC 
#
#######################################################################
#
# If this CIF has been generated from an entry in the Cambridge 
# Structural Database, then it will include bibliographic, chemical, 
# crystal, experimental, refinement or atomic coordinate data resulting 
# from the CCDC's data processing and validation procedures.
#
#######################################################################

data_ILAKUB
_symmetry_cell_setting           monoclinic
_symmetry_space_group_name_H-M   'C 2/c'
_symmetry_Int_Tables_number      15
_space_group_name_Hall           '-C 2yn'
loop_
_symmetry_equiv_pos_site_id
_symmetry_equiv_pos_as_xyz
1 x,y,z
2 1/2+x,1/2+y,z
3 x,-y,1/2+z
4 1/2+x,1/2-y,1/2+z
5 -x,-y,-z
6 1/2-x,1/2-y,-z
7 -x,y,1/2-z
8 1/2-x,1/2+y,1/2-z
_cell_length_a                   23.175(7)
_cell_length_b                   7.431(4)
_cell_length_c                   14.542(16)
_cell_angle_alpha                90
_cell_angle_beta                 93.673(19)
_cell_angle_gamma                90
_cell_volume                     2499.18
loop_
_atom_site_label
_atom_site_type_symbol
_atom_site_fract_x
_atom_site_fract_y
_atom_site_fract_z
Cu1 Cu 0.73450(3) 0.79258(13) 0.59643(5)
S1 S 0.55805(8) 0.8144(4) 0.68679(14)
O1 O 0.69942(16) 0.6893(6) 0.4804(3)
O2 O 0.75432(18) 0.9412(7) 0.7075(3)
O3 O 0.7212(2) 1.0251(8) 0.8416(3)
N1 N 0.6630(2) 0.7676(8) 0.6525(4)
C1 C 0.6434(3) 0.6860(9) 0.4553(4)
C2 C 0.6252(3) 0.6393(11) 0.3658(5)
H1 H 0.6529 0.6137 0.3242
C3 C 0.5685(3) 0.6297(13) 0.3368(5)
H2 H 0.5582 0.5954 0.2765
C4 C 0.5265(3) 0.6696(16) 0.3949(6)
H3 H 0.4878 0.6668 0.3739
C5 C 0.5419(3) 0.7140(14) 0.4845(5)
H4 H 0.5130 0.7385 0.5244
C6 C 0.6008(3) 0.7237(11) 0.5182(5)
C7 C 0.6132(3) 0.7661(10) 0.6139(5)
C8 C 0.6097(3) 0.8800(15) 0.7784(5)
H5 H 0.6108 1.0100 0.7848
H6 H 0.5998 0.8278 0.8365
C9 C 0.6675(3) 0.8096(10) 0.7512(4)
H7 H 0.6762 0.6982 0.7854
C10 C 0.7182(3) 0.9384(10) 0.7681(4)
O1E O 0.80058(16) 0.8107(6) 0.5196(3)
O3G O 0.7788(2) 0.5251(8) 0.6584(3)
Cu1E Cu 0.76550(3) 0.70742(13) 0.40357(5)
Cu1G Cu 0.76550(3) 1.29258(13) 0.90357(5)
O4 O 0.6904(5) 1.0733(12) 0.5176(6)
H8 H 0.6971 1.0661 0.4630
C11 C 0.6682(9) 1.2343(18) 0.5340(11)
H9 H 0.6990 1.3209 0.5270
H10 H 0.6392 1.2575 0.4844
C12 C 0.6450(8) 1.275(2) 0.6092(13)
H11 H 0.6409 1.4035 0.6131
H12 H 0.6692 1.2331 0.6608
H13 H 0.6077 1.2196 0.6098
loop_
_geom_bond_atom_site_label_1
_geom_bond_atom_site_label_2
_geom_bond_site_symmetry_1
_geom_bond_site_symmetry_2
Cu1 O1 1_555 1_555
S1 C7 1_555 1_555
O1 C1 1_555 1_555
O2 Cu1 1_555 1_555
O3 C10 1_555 1_555
N1 Cu1 1_555 1_555
C1 C2 1_555 1_555
C2 H1 1_555 1_555
C3 C2 1_555 1_555
H2 C3 1_555 1_555
C4 C3 1_555 1_555
H3 C4 1_555 1_555
C5 C4 1_555 1_555
H4 C5 1_555 1_555
C6 C1 1_555 1_555
C7 N1 1_555 1_555
C8 S1 1_555 1_555
H5 C8 1_555 1_555
H6 C8 1_555 1_555
C9 N1 1_555 1_555
H7 C9 1_555 1_555
C10 O2 1_555 1_555
O4 H8 1_555 1_555
C11 O4 1_555 1_555
H9 C11 1_555 1_555
H10 C11 1_555 1_555
C12 C11 1_555 1_555
H11 C12 1_555 1_555
H12 C12 1_555 1_555
H13 C12 1_555 1_555
O1E Cu1 1_555 1_555
O3G Cu1 1_555 1_555
Cu1E O1 1_555 1_555
Cu1G O3 1_555 1_555
C5 C6 1_555 1_555
C6 C7 1_555 1_555
C8 C9 1_555 1_555
C9 C10 1_555 1_555
O1E Cu1E 1_555 1_555

#END
