
#######################################################################
#
#                 Cambridge Crystallographic Data Centre
#                                CCDC 
#
#######################################################################
#
# If this CIF has been generated from an entry in the Cambridge 
# Structural Database, then it will include bibliographic, chemical, 
# crystal, experimental, refinement or atomic coordinate data resulting 
# from the CCDC's data processing and validation procedures.
#
#######################################################################

data_ILAMEN
_symmetry_cell_setting           monoclinic
_symmetry_space_group_name_H-M   'P 21'
_symmetry_Int_Tables_number      4
_space_group_name_Hall           'P 2yb'
loop_
_symmetry_equiv_pos_site_id
_symmetry_equiv_pos_as_xyz
1 x,y,z
2 -x,1/2+y,-z
_cell_length_a                   7.5158(6)
_cell_length_b                   7.5207(6)
_cell_length_c                   17.9669(15)
_cell_angle_alpha                90
_cell_angle_beta                 100.0120(10)
_cell_angle_gamma                90
_cell_volume                     1000.1
loop_
_atom_site_label
_atom_site_type_symbol
_atom_site_fract_x
_atom_site_fract_y
_atom_site_fract_z
Cu1 Cu 0.14679(4) 0.77044(4) 0.660359(19)
Cu2 Cu -0.01854(4) 1.22253(4) 0.719950(18)
Cl1 Cl -0.09024(9) 0.57843(9) 0.63996(4)
Cl2 Cl 0.11751(10) 0.85342(10) 0.77999(4)
Cl3 Cl -0.07885(10) 1.06289(10) 0.61261(4)
Cl4 Cl -0.28406(9) 1.21068(10) 0.76017(4)
O1 O 0.2310(2) 0.2694(3) 0.69904(9)
N1 N 0.2217(3) 0.6873(3) 0.56230(12)
H1 H 0.1185 0.6923 0.5253
N2 N 0.3814(3) 0.9071(3) 0.66921(13)
H2 H 0.3726 1.0066 0.6991
N3 N 0.4076(3) 0.5108(3) 0.70455(13)
N4 N 0.0661(3) 0.3914(3) 0.80505(13)
H3 H 0.0053 0.4974 0.7957
H4 H 0.0386 0.3451 0.8491
C1 C 0.4416(4) 0.4627(4) 0.62847(15)
H5 H 0.4724 0.3347 0.6280
H6 H 0.5471 0.5308 0.6178
C2 C 0.2817(4) 0.4988(4) 0.56646(15)
H7 H 0.3143 0.4648 0.5173
H8 H 0.1795 0.4227 0.5748
C3 C 0.3548(4) 0.8110(4) 0.53782(16)
H9 H 0.3096 0.8523 0.4856
H10 H 0.4710 0.7486 0.5383
C4 C 0.3834(4) 0.9693(4) 0.59110(16)
H11 H 0.5006 1.0267 0.5884
H12 H 0.2863 1.0579 0.5762
C5 C 0.5527(4) 0.8110(4) 0.70163(16)
H13 H 0.6330 0.8943 0.7344
H14 H 0.6149 0.7760 0.6596
C6 C 0.5266(4) 0.6459(4) 0.74739(16)
H15 H 0.6461 0.5916 0.7658
H16 H 0.4747 0.6818 0.7921
C7 C 0.3039(4) 0.4018(4) 0.73570(15)
C8 C 0.2620(4) 0.4249(4) 0.81511(15)
H17 H 0.2915 0.5481 0.8343
C9 C 0.3662(4) 0.2865(4) 0.86785(15)
H18 H 0.3477 0.1676 0.8441
H19 H 0.4969 0.3140 0.8752
C10 C 0.3057(4) 0.2827(4) 0.94380(15)
C11 C 0.3697(4) 0.4071(5) 0.99839(17)
H20 H 0.4566 0.4922 0.9891
C12 C 0.3078(5) 0.4087(5) 1.06682(18)
H21 H 0.3534 0.4944 1.1041
C13 C 0.1819(4) 0.2881(5) 1.08101(17)
H22 H 0.1387 0.2908 1.1276
C14 C 0.1181(5) 0.1625(5) 1.02698(19)
H23 H 0.0309 0.0778 1.0365
C15 C 0.1812(4) 0.1595(4) 0.95828(18)
H24 H 0.1379 0.0718 0.9215
O1_2 O 0.2310(2) 1.2694(3) 0.69904(9)
N4_2 N 0.0661(3) 1.3914(3) 0.80505(13)
Cu2_2 Cu -0.01854(4) 0.22253(4) 0.719950(18)
H3_2 H 0.0053 1.4974 0.7957
H4_2 H 0.0386 1.3451 0.8491
loop_
_geom_bond_atom_site_label_1
_geom_bond_atom_site_label_2
_geom_bond_site_symmetry_1
_geom_bond_site_symmetry_2
Cu1 Cl1 1_555 1_555
Cu2 Cl3 1_555 1_555
Cl2 Cu1 1_555 1_555
Cl3 Cu1 1_555 1_555
Cl4 Cu2 1_555 1_555
O1 C7 1_555 1_555
N1 Cu1 1_555 1_555
H1 N1 1_555 1_555
N2 Cu1 1_555 1_555
H2 N2 1_555 1_555
N3 C1 1_555 1_555
N4 H3 1_555 1_555
H4 N4 1_555 1_555
C1 H5 1_555 1_555
H6 C1 1_555 1_555
C2 N1 1_555 1_555
H7 C2 1_555 1_555
H8 C2 1_555 1_555
C3 N1 1_555 1_555
H9 C3 1_555 1_555
H10 C3 1_555 1_555
C4 N2 1_555 1_555
H11 C4 1_555 1_555
H12 C4 1_555 1_555
C5 N2 1_555 1_555
H13 C5 1_555 1_555
H14 C5 1_555 1_555
C6 N3 1_555 1_555
H15 C6 1_555 1_555
H16 C6 1_555 1_555
C7 N3 1_555 1_555
C8 N4 1_555 1_555
H17 C8 1_555 1_555
C9 C8 1_555 1_555
H18 C9 1_555 1_555
H19 C9 1_555 1_555
C10 C9 1_555 1_555
C11 C10 1_555 1_555
H20 C11 1_555 1_555
C12 C11 1_555 1_555
H21 C12 1_555 1_555
C13 C12 1_555 1_555
H22 C13 1_555 1_555
C14 C13 1_555 1_555
H23 C14 1_555 1_555
C15 C10 1_555 1_555
H24 C15 1_555 1_555
O1_2 Cu2 1_555 1_555
N4_2 Cu2 1_555 1_555
Cu2_2 O1 1_555 1_555
H3_2 N4_2 1_555 1_555
H4_2 N4_2 1_555 1_555
N4 Cu2_2 1_555 1_555
C1 C2 1_555 1_555
C3 C4 1_555 1_555
C5 C6 1_555 1_555
C7 C8 1_555 1_555
C14 C15 1_555 1_555

#END
