
#######################################################################
#
#                 Cambridge Crystallographic Data Centre
#                                CCDC 
#
#######################################################################
#
# If this CIF has been generated from an entry in the Cambridge 
# Structural Database, then it will include bibliographic, chemical, 
# crystal, experimental, refinement or atomic coordinate data resulting 
# from the CCDC's data processing and validation procedures.
#
#######################################################################

data_ILAMAK
_symmetry_cell_setting           hexagonal
_symmetry_space_group_name_H-M   'P 63/m'
_symmetry_Int_Tables_number      176
_space_group_name_Hall           '-P 6c'
loop_
_symmetry_equiv_pos_site_id
_symmetry_equiv_pos_as_xyz
1 x,y,z
2 x-y,x,1/2+z
3 -y,x-y,z
4 -x,-y,1/2+z
5 -x+y,-x,z
6 y,-x+y,1/2+z
7 -x,-y,-z
8 -x+y,-x,1/2-z
9 y,-x+y,-z
10 x,y,1/2-z
11 x-y,x,-z
12 -y,x-y,1/2-z
_cell_length_a                   10.4800(3)
_cell_length_b                   10.4800(3)
_cell_length_c                   17.8377(12)
_cell_angle_alpha                90
_cell_angle_beta                 90
_cell_angle_gamma                120
_cell_volume                     1696.65
loop_
_atom_site_label
_atom_site_type_symbol
_atom_site_fract_x
_atom_site_fract_y
_atom_site_fract_z
Co1 Co 0.0000 0.0000 0.0000
N1 N 0.1819(11) 0.1628(11) 0.0670(5)
C1 C 0.1922(15) 0.1753(15) 0.1400(8)
H1 H 0.1154 0.1173 0.1743
N2 N 0.3315(12) 0.2857(11) 0.1596(5)
C2 C 0.3142(15) 0.2602(14) 0.0403(7)
H2 H 0.3383 0.2709 -0.0116
C3 C 0.4108(16) 0.3421(17) 0.0947(7)
H3 H 0.5096 0.4200 0.0893
C4 C 0.3851(13) 0.3228(14) 0.2500
C5 C 0.5288(12) 0.3285(12) 0.2500
C6 C 0.5328(10) 0.1970(10) 0.2500
C7 C 0.3909(13) 0.0492(14) 0.2500
C8 C 0.364(3) -0.025(2) 0.1684(10)
H4 H 0.3488 0.0361 0.1318
H5 H 0.2759 -0.1235 0.1697
H6 H 0.4494 -0.0333 0.1538
Co1A Co 0.0000 0.0000 0.5000
Co1_2 Co 1.0000 0.0000 0.0000
Co1A_2 Co 1.0000 0.0000 0.5000
Co1_3 Co 1.0000 1.0000 0.0000
Co1A_3 Co 1.0000 1.0000 0.5000
Co1A_4 Co 0.0000 0.0000 -0.5000
Co1A_5 Co 1.0000 1.0000 -0.5000
Co1_4 Co 0.0000 1.0000 0.0000
Co1A_6 Co 0.0000 1.0000 -0.5000
N1I N 0.1819(11) 0.1628(11) 0.4330(5)
N1B N 0.8372(11) 0.0191(16) 0.0670(5)
N1K N 0.8372(11) 0.0191(16) 0.4330(5)
N1D N 0.9809(16) 0.8181(11) 0.0670(5)
N1G N 0.9809(16) 0.8181(11) 0.4330(5)
N1B_2 N -0.1628(11) 0.0191(16) 0.0670(5)
N1D_2 N -0.0191(16) -0.1819(11) 0.0670(5)
N1F N -0.1819(11) -0.1628(11) -0.0670(5)
N1H N 0.1628(11) -0.0191(16) -0.0670(5)
N1J N 0.0191(16) 0.1819(11) -0.0670(5)
N1A N 0.0191(16) 0.1819(11) -0.4330(5)
N1F_2 N 0.8181(11) 0.8372(11) -0.0670(5)
N1C N 0.8181(11) 0.8372(11) -0.4330(5)
N1H_2 N 0.1628(11) 0.9809(16) -0.0670(5)
N1E N 0.1628(11) 0.9809(16) -0.4330(5)
C1I C 0.1922(15) 0.1753(15) 0.3600(8)
C1B C 0.8247(15) 0.0169(21) 0.1400(8)
C1K C 0.8247(15) 0.0169(21) 0.3600(8)
C1D C 0.9831(21) 0.8078(15) 0.1400(8)
C1G C 0.9831(21) 0.8078(15) 0.3600(8)
C1J C 0.0169(21) 0.1922(15) -0.1400(8)
C1A C 0.0169(21) 0.1922(15) -0.3600(8)
C1F C 0.8078(15) 0.8247(15) -0.1400(8)
C1C C 0.8078(15) 0.8247(15) -0.3600(8)
C1H C 0.1753(15) 0.9831(21) -0.1400(8)
C1E C 0.1753(15) 0.9831(21) -0.3600(8)
H1I H 0.1154 0.1173 0.3257
H1B H 0.8827 -0.0019 0.1743
H1K H 0.8827 -0.0019 0.3257
H1D H 1.0019 0.8846 0.1743
H1G H 1.0019 0.8846 0.3257
H1J H -0.0019 0.1154 -0.1743
H1A H -0.0019 0.1154 -0.3257
H1F H 0.8846 0.8827 -0.1743
H1C H 0.8846 0.8827 -0.3257
H1H H 0.1173 1.0019 -0.1743
H1E H 0.1173 1.0019 -0.3257
N2I N 0.3315(12) 0.2857(11) 0.3404(5)
N2B N 0.7143(11) 0.0458(16) 0.1596(5)
N2K N 0.7143(11) 0.0458(16) 0.3404(5)
N2D N 0.9542(16) 0.6685(12) 0.1596(5)
N2G N 0.9542(16) 0.6685(12) 0.3404(5)
N2J N 0.0458(16) 0.3315(12) -0.1596(5)
N2A N 0.0458(16) 0.3315(12) -0.3404(5)
N2F N 0.6685(12) 0.7143(11) -0.1596(5)
N2C N 0.6685(12) 0.7143(11) -0.3404(5)
N2H N 0.2857(11) 0.9542(16) -0.1596(5)
N2E N 0.2857(11) 0.9542(16) -0.3404(5)
C2I C 0.3142(15) 0.2602(14) 0.4597(7)
C2B C 0.7398(14) 0.0540(21) 0.0403(7)
C2K C 0.7398(14) 0.0540(21) 0.4597(7)
C2D C 0.9460(21) 0.6858(15) 0.0403(7)
C2G C 0.9460(21) 0.6858(15) 0.4597(7)
C2J C 0.0540(21) 0.3142(15) -0.0403(7)
C2A C 0.0540(21) 0.3142(15) -0.4597(7)
C2F C 0.6858(15) 0.7398(14) -0.0403(7)
C2C C 0.6858(15) 0.7398(14) -0.4597(7)
C2H C 0.2602(14) 0.9460(21) -0.0403(7)
C2E C 0.2602(14) 0.9460(21) -0.4597(7)
H2I H 0.3383 0.2709 0.5116
H2B H 0.7291 0.0674 -0.0116
H2K H 0.7291 0.0674 0.5116
H2D H 0.9326 0.6617 -0.0116
H2G H 0.9326 0.6617 0.5116
H2J H 0.0674 0.3383 0.0116
H2A H 0.0674 0.3383 -0.5116
H2F H 0.6617 0.7291 0.0116
H2C H 0.6617 0.7291 -0.5116
H2H H 0.2709 0.9326 0.0116
H2E H 0.2709 0.9326 -0.5116
C3I C 0.4108(16) 0.3421(17) 0.4053(7)
C3B C 0.6579(17) 0.0687(23) 0.0947(7)
C3K C 0.6579(17) 0.0687(23) 0.4053(7)
C3D C 0.9313(23) 0.5892(16) 0.0947(7)
C3G C 0.9313(23) 0.5892(16) 0.4053(7)
C3J C 0.0687(23) 0.4108(16) -0.0947(7)
C3A C 0.0687(23) 0.4108(16) -0.4053(7)
C3F C 0.5892(16) 0.6579(17) -0.0947(7)
C3C C 0.5892(16) 0.6579(17) -0.4053(7)
C3H C 0.3421(17) 0.9313(23) -0.0947(7)
C3E C 0.3421(17) 0.9313(23) -0.4053(7)
H3I H 0.5096 0.4200 0.4107
H3B H 0.5800 0.0896 0.0893
H3K H 0.5800 0.0896 0.4107
H3D H 0.9104 0.4904 0.0893
H3G H 0.9104 0.4904 0.4107
H3J H 0.0896 0.5096 -0.0893
H3A H 0.0896 0.5096 -0.4107
H3F H 0.4904 0.5800 -0.0893
H3C H 0.4904 0.5800 -0.4107
H3H H 0.4200 0.9104 -0.0893
H3E H 0.4200 0.9104 -0.4107
C4B C 0.6772(14) 0.0623(19) 0.2500
C4D C 0.9377(19) 0.6149(13) 0.2500
C4A C 0.0623(19) 0.3851(13) -0.2500
C4C C 0.6149(13) 0.6772(14) -0.2500
C4E C 0.3228(14) 0.9377(19) -0.2500
C5B C 0.6715(12) 0.2003(17) 0.2500
C5D C 0.7997(17) 0.4712(12) 0.2500
C5A C 0.2003(17) 0.5288(12) -0.2500
C5C C 0.4712(12) 0.6715(12) -0.2500
C5E C 0.3285(12) 0.7997(17) -0.2500
C6B C 0.8030(10) 0.3358(14) 0.2500
C6D C 0.6642(14) 0.4672(10) 0.2500
C6A C 0.3358(14) 0.5328(10) -0.2500
C6E C 0.1970(10) 0.6642(14) -0.2500
C6C C 0.4672(10) 0.8030(10) -0.2500
C7D C 0.6583(19) 0.6091(13) 0.2500
C7B C 0.9508(14) 0.3417(19) 0.2500
C7A C 0.3417(19) 0.3909(13) -0.2500
C7E C 0.0492(14) 0.6583(19) -0.2500
C7C C 0.6091(13) 0.9508(14) -0.2500
C8D C 0.611(4) 0.636(3) 0.1684(10)
C8G C 0.611(4) 0.636(3) 0.3316(10)
C8B C 1.025(2) 0.389(4) 0.1684(10)
C8K C 1.025(2) 0.389(4) 0.3316(10)
C8I C 0.364(3) -0.025(2) 0.3316(10)
C8J C 0.389(4) 0.364(3) -0.1684(10)
C8A C 0.389(4) 0.364(3) -0.3316(10)
C8H C -0.025(2) 0.611(4) -0.1684(10)
C8E C -0.025(2) 0.611(4) -0.3316(10)
C8F C 0.636(3) 1.025(2) -0.1684(10)
C8C C 0.636(3) 1.025(2) -0.3316(10)
H4D H 0.6873 0.6512 0.1318
H4G H 0.6873 0.6512 0.3682
H4B H 0.9639 0.3127 0.1318
H4K H 0.9639 0.3127 0.3682
H4I H 0.3488 0.0361 0.3682
H4J H 0.3127 0.3488 -0.1318
H4A H 0.3127 0.3488 -0.3682
H4H H 0.0361 0.6873 -0.1318
H4E H 0.0361 0.6873 -0.3682
H4F H 0.6512 0.9639 -0.1318
H4C H 0.6512 0.9639 -0.3682
H5D H 0.6006 0.7241 0.1697
H5G H 0.6006 0.7241 0.3303
H5B H 1.1235 0.3994 0.1697
H5K H 1.1235 0.3994 0.3303
H5I H 0.2759 -0.1235 0.3303
H5J H 0.3994 0.2759 -0.1697
H5A H 0.3994 0.2759 -0.3303
H5H H -0.1235 0.6006 -0.1697
H5E H -0.1235 0.6006 -0.3303
H5F H 0.7241 1.1235 -0.1697
H5C H 0.7241 1.1235 -0.3303
H6D H 0.5173 0.5506 0.1538
H6G H 0.5173 0.5506 0.3462
H6B H 1.0333 0.4827 0.1538
H6K H 1.0333 0.4827 0.3462
H6I H 0.4494 -0.0333 0.3462
H6J H 0.4827 0.4494 -0.1538
H6A H 0.4827 0.4494 -0.3462
H6H H -0.0333 0.5173 -0.1538
H6E H -0.0333 0.5173 -0.3462
H6F H 0.5506 1.0333 -0.1538
H6C H 0.5506 1.0333 -0.3462
O1 O 0.3333 -0.3333 0.2500
Cl1? Cl 0.0000 0.0000 0.1927(3)
loop_
_geom_bond_atom_site_label_1
_geom_bond_atom_site_label_2
_geom_bond_site_symmetry_1
_geom_bond_site_symmetry_2
Co1 N1 1_555 1_555
N1 C1 1_555 1_555
C1 H1 1_555 1_555
N2 C1 1_555 1_555
C2 N1 1_555 1_555
H2 C2 1_555 1_555
C3 N2 1_555 1_555
H3 C3 1_555 1_555
C4 N2 1_555 1_555
C5 C4 1_555 1_555
C6 C5 1_555 1_555
C7 C6 1_555 1_555
C8 C7 1_555 1_555
H4 C8 1_555 1_555
H5 C8 1_555 1_555
H6 C8 1_555 1_555
Co1A N1I 1_555 1_555
Co1_2 N1B 1_555 1_555
Co1A_2 N1K 1_555 1_555
Co1_3 N1D 1_555 1_555
Co1A_3 N1G 1_555 1_555
Co1A_4 N1A 1_555 1_555
Co1A_5 N1C 1_555 1_555
Co1_4 N1H_2 1_555 1_555
Co1A_6 N1E 1_555 1_555
N1I C1I 1_555 1_555
N1B C1B 1_555 1_555
N1K C1K 1_555 1_555
N1D C1D 1_555 1_555
N1G C1G 1_555 1_555
N1B_2 Co1 1_555 1_555
N1D_2 Co1 1_555 1_555
N1F Co1 1_555 1_555
N1H Co1 1_555 1_555
N1J Co1 1_555 1_555
N1A C1A 1_555 1_555
N1F_2 Co1_3 1_555 1_555
N1C C1C 1_555 1_555
N1H_2 C1H 1_555 1_555
N1E C1E 1_555 1_555
C1I H1I 1_555 1_555
C1B H1B 1_555 1_555
C1K H1K 1_555 1_555
C1D H1D 1_555 1_555
C1G H1G 1_555 1_555
C1J N1J 1_555 1_555
C1A H1A 1_555 1_555
C1F N1F_2 1_555 1_555
C1C H1C 1_555 1_555
C1H H1H 1_555 1_555
C1E H1E 1_555 1_555
H1J C1J 1_555 1_555
H1F C1F 1_555 1_555
N2I C4 1_555 1_555
N2B C1B 1_555 1_555
N2K C1K 1_555 1_555
N2D C1D 1_555 1_555
N2G C1G 1_555 1_555
N2J C1J 1_555 1_555
N2A C1A 1_555 1_555
N2F C1F 1_555 1_555
N2C C1C 1_555 1_555
N2H C1H 1_555 1_555
N2E C1E 1_555 1_555
C2I N1I 1_555 1_555
C2B N1B 1_555 1_555
C2K N1K 1_555 1_555
C2D N1D 1_555 1_555
C2G N1G 1_555 1_555
C2J N1J 1_555 1_555
C2A N1A 1_555 1_555
C2F N1F_2 1_555 1_555
C2C N1C 1_555 1_555
C2H N1H_2 1_555 1_555
C2E N1E 1_555 1_555
H2I C2I 1_555 1_555
H2B C2B 1_555 1_555
H2K C2K 1_555 1_555
H2D C2D 1_555 1_555
H2G C2G 1_555 1_555
H2J C2J 1_555 1_555
H2A C2A 1_555 1_555
H2F C2F 1_555 1_555
H2C C2C 1_555 1_555
H2H C2H 1_555 1_555
H2E C2E 1_555 1_555
C3I N2I 1_555 1_555
C3B N2B 1_555 1_555
C3K N2K 1_555 1_555
C3D N2D 1_555 1_555
C3G N2G 1_555 1_555
C3J N2J 1_555 1_555
C3A N2A 1_555 1_555
C3F N2F 1_555 1_555
C3C N2C 1_555 1_555
C3H N2H 1_555 1_555
C3E N2E 1_555 1_555
H3I C3I 1_555 1_555
H3B C3B 1_555 1_555
H3K C3K 1_555 1_555
H3D C3D 1_555 1_555
H3G C3G 1_555 1_555
H3J C3J 1_555 1_555
H3A C3A 1_555 1_555
H3F C3F 1_555 1_555
H3C C3C 1_555 1_555
H3H C3H 1_555 1_555
H3E C3E 1_555 1_555
C4B N2B 1_555 1_555
C4D N2D 1_555 1_555
C4A N2J 1_555 1_555
C4C N2F 1_555 1_555
C4E N2H 1_555 1_555
C5B C6 1_555 1_555
C5D C4D 1_555 1_555
C5A C4A 1_555 1_555
C5C C4C 1_555 1_555
C5E C4E 1_555 1_555
C6B C5B 1_555 1_555
C6D C5 1_555 1_555
C6A C5A 1_555 1_555
C6E C5A 1_555 1_555
C6C C5C 1_555 1_555
C7D C6D 1_555 1_555
C7B C6B 1_555 1_555
C7A C6A 1_555 1_555
C7E C6E 1_555 1_555
C7C C6C 1_555 1_555
C8D C7D 1_555 1_555
C8G C7D 1_555 1_555
C8B C7B 1_555 1_555
C8K C7B 1_555 1_555
C8I C7 1_555 1_555
C8J C7A 1_555 1_555
C8A C7A 1_555 1_555
C8H C7E 1_555 1_555
C8E C7E 1_555 1_555
C8F C7C 1_555 1_555
C8C C7C 1_555 1_555
H4D C8D 1_555 1_555
H4G C8G 1_555 1_555
H4B C8B 1_555 1_555
H4K C8K 1_555 1_555
H4I C8I 1_555 1_555
H4J C8J 1_555 1_555
H4A C8A 1_555 1_555
H4H C8H 1_555 1_555
H4E C8E 1_555 1_555
H4F C8F 1_555 1_555
H4C C8C 1_555 1_555
H5D C8D 1_555 1_555
H5G C8G 1_555 1_555
H5B C8B 1_555 1_555
H5K C8K 1_555 1_555
H5I C8I 1_555 1_555
H5J C8J 1_555 1_555
H5A C8A 1_555 1_555
H5H C8H 1_555 1_555
H5E C8E 1_555 1_555
H5F C8F 1_555 1_555
H5C C8C 1_555 1_555
H6D C8D 1_555 1_555
H6G C8G 1_555 1_555
H6B C8B 1_555 1_555
H6K C8K 1_555 1_555
H6I C8I 1_555 1_555
H6J C8J 1_555 1_555
H6A C8A 1_555 1_555
H6H C8H 1_555 1_555
H6E C8E 1_555 1_555
H6F C8F 1_555 1_555
H6C C8C 1_555 1_555
C2 C3 1_555 1_555
C1I N2I 1_555 1_555
N2K C4B 1_555 1_555
N2G C4D 1_555 1_555
N2A C4A 1_555 1_555
N2C C4C 1_555 1_555
N2E C4E 1_555 1_555
C2I C3I 1_555 1_555
C2B C3B 1_555 1_555
C2K C3K 1_555 1_555
C2D C3D 1_555 1_555
C2G C3G 1_555 1_555
C2J C3J 1_555 1_555
C2A C3A 1_555 1_555
C2F C3F 1_555 1_555
C2C C3C 1_555 1_555
C2H C3H 1_555 1_555
C2E C3E 1_555 1_555
C4B C5B 1_555 1_555
C5D C6B 1_555 1_555
C5D C6D 1_555 1_555
C5C C6A 1_555 1_555
C5E C6E 1_555 1_555
C5E C6C 1_555 1_555

#END
