
#######################################################################
#
#                 Cambridge Crystallographic Data Centre
#                                CCDC 
#
#######################################################################
#
# If this CIF has been generated from an entry in the Cambridge 
# Structural Database, then it will include bibliographic, chemical, 
# crystal, experimental, refinement or atomic coordinate data resulting 
# from the CCDC's data processing and validation procedures.
#
#######################################################################

data_ILAMIS
_symmetry_cell_setting           monoclinic
_symmetry_space_group_name_H-M   'P 21/c'
_symmetry_Int_Tables_number      14
_space_group_name_Hall           '-P 2ybc'
loop_
_symmetry_equiv_pos_site_id
_symmetry_equiv_pos_as_xyz
1 x,y,z
2 -x,1/2+y,1/2-z
3 -x,-y,-z
4 x,1/2-y,1/2+z
_cell_length_a                   12.675(4)
_cell_length_b                   20.932(7)
_cell_length_c                   9.027(3)
_cell_angle_alpha                90
_cell_angle_beta                 92.544(14)
_cell_angle_gamma                90
_cell_volume                     2392.62
loop_
_atom_site_label
_atom_site_type_symbol
_atom_site_fract_x
_atom_site_fract_y
_atom_site_fract_z
Mn1 Mn 0.74908(15) 0.11299(9) 0.4320(2)
Cl1 Cl 0.7376(3) 0.22783(15) 0.3757(4)
N1 N 0.7486(8) 0.0891(5) 0.1916(12)
C1 C 0.7509(10) 0.0311(6) 0.1284(16)
H1 H 0.7530 -0.0077 0.1832
Cl2 Cl 0.7572(3) -0.00440(15) 0.4826(4)
N2 N 0.7499(8) 0.0334(5) -0.0171(12)
C2 C 0.7439(11) 0.1300(7) 0.0746(17)
H2 H 0.7405 0.1752 0.0832
N3 N 1.1051(9) -0.1289(5) 0.4352(14)
C3 C 0.7448(11) 0.0975(6) -0.0577(19)
H3 H 0.7425 0.1149 -0.1550
N4 N 0.9847(9) -0.1666(6) 0.2759(12)
C4 C 0.7517(11) -0.0205(6) -0.1257(16)
H4 H 0.8177 -0.0189 -0.1802
H5 H 0.6913 -0.0166 -0.1985
N5 N 0.3874(9) -0.1221(5) 0.4218(13)
C5 C 0.7450(11) -0.0840(6) -0.0423(15)
N6 N 0.4953(9) -0.1530(5) 0.2511(12)
C6 C 0.8406(11) -0.1143(6) 0.0087(17)
C7 C 0.9435(11) -0.0871(7) -0.0323(17)
H6 H 0.9985 -0.0996 0.0434
H7 H 0.9385 -0.0399 -0.0323
C8 C 0.9766(12) -0.1097(9) -0.1850(17)
H8 H 1.0447 -0.0905 -0.2068
H9 H 0.9232 -0.0966 -0.2608
H10 H 0.9830 -0.1563 -0.1851
C9 C 0.8336(11) -0.1717(6) 0.0920(15)
C10 C 0.9372(12) -0.2012(7) 0.1487(17)
H11 H 0.9247 -0.2461 0.1777
H12 H 0.9874 -0.2015 0.0677
C11 C 1.0818(11) -0.1736(7) 0.3339(15)
H13 H 1.1290 -0.2064 0.3068
C12 C 1.0145(11) -0.0925(7) 0.4406(16)
H14 H 1.0071 -0.0562 0.5024
C13 C 0.9373(13) -0.1155(7) 0.3458(17)
H15 H 0.8671 -0.1003 0.3308
C14 C 0.7342(11) -0.1958(7) 0.1258(16)
C15 C 0.7306(11) -0.2592(6) 0.2145(14)
H16 H 0.7919 -0.2616 0.2861
H17 H 0.6653 -0.2609 0.2707
C16 C 0.7329(12) -0.3155(7) 0.1075(15)
H18 H 0.7307 -0.3556 0.1633
H19 H 0.7978 -0.3138 0.0526
H20 H 0.6716 -0.3132 0.0376
C17 C 0.6410(11) -0.1660(6) 0.0774(17)
C18 C 0.5335(12) -0.1896(7) 0.1224(17)
H21 H 0.4819 -0.1852 0.0373
H22 H 0.5383 -0.2355 0.1486
C19 C 0.4143(10) -0.1693(6) 0.3354(14)
H23 H 0.3808 -0.2099 0.3327
C20 C 0.4518(12) -0.0708(7) 0.3899(16)
H24 H 0.4492 -0.0298 0.4346
C21 C 0.5189(12) -0.0885(7) 0.2850(16)
H25 H 0.5714 -0.0628 0.2426
C22 C 0.6467(10) -0.1100(6) -0.0103(14)
C23 C 0.5452(11) -0.0782(6) -0.0732(16)
H26 H 0.5537 -0.0312 -0.0679
H27 H 0.4861 -0.0900 -0.0104
C24 C 0.5164(11) -0.0972(7) -0.2345(16)
H28 H 0.4517 -0.0751 -0.2685
H29 H 0.5051 -0.1435 -0.2402
H30 H 0.5742 -0.0853 -0.2977
Mn1B Mn 1.25092(15) -0.11299(9) 0.5680(2)
Mn1B_2 Mn 0.25092(15) -0.11299(9) 0.5680(2)
N3B N 0.8949(9) 0.1289(5) 0.5648(14)
N5B N 0.6126(9) 0.1221(5) 0.5782(13)
loop_
_geom_bond_atom_site_label_1
_geom_bond_atom_site_label_2
_geom_bond_site_symmetry_1
_geom_bond_site_symmetry_2
Mn1 Cl1 1_555 1_555
N1 Mn1 1_555 1_555
C1 N1 1_555 1_555
H1 C1 1_555 1_555
Cl2 Mn1 1_555 1_555
N2 C1 1_555 1_555
C2 N1 1_555 1_555
H2 C2 1_555 1_555
N3 C11 1_555 1_555
C3 N2 1_555 1_555
H3 C3 1_555 1_555
N4 C10 1_555 1_555
C4 N2 1_555 1_555
H4 C4 1_555 1_555
H5 C4 1_555 1_555
N5 C19 1_555 1_555
C5 C4 1_555 1_555
N6 C18 1_555 1_555
C6 C5 1_555 1_555
C7 C6 1_555 1_555
H6 C7 1_555 1_555
H7 C7 1_555 1_555
C8 C7 1_555 1_555
H8 C8 1_555 1_555
H9 C8 1_555 1_555
H10 C8 1_555 1_555
C9 C6 1_555 1_555
C10 C9 1_555 1_555
H11 C10 1_555 1_555
H12 C10 1_555 1_555
C11 N4 1_555 1_555
H13 C11 1_555 1_555
C12 N3 1_555 1_555
H14 C12 1_555 1_555
C13 N4 1_555 1_555
H15 C13 1_555 1_555
C14 C9 1_555 1_555
C15 C14 1_555 1_555
H16 C15 1_555 1_555
H17 C15 1_555 1_555
C16 C15 1_555 1_555
H18 C16 1_555 1_555
H19 C16 1_555 1_555
H20 C16 1_555 1_555
C17 C14 1_555 1_555
C18 C17 1_555 1_555
H21 C18 1_555 1_555
H22 C18 1_555 1_555
C19 N6 1_555 1_555
H23 C19 1_555 1_555
C20 N5 1_555 1_555
H24 C20 1_555 1_555
C21 N6 1_555 1_555
H25 C21 1_555 1_555
C22 C5 1_555 1_555
C23 C22 1_555 1_555
H26 C23 1_555 1_555
H27 C23 1_555 1_555
C24 C23 1_555 1_555
H28 C24 1_555 1_555
H29 C24 1_555 1_555
H30 C24 1_555 1_555
Mn1B N3 1_555 1_555
Mn1B_2 N5 1_555 1_555
N3B Mn1 1_555 1_555
N5B Mn1 1_555 1_555
C2 C3 1_555 1_555
C12 C13 1_555 1_555
C17 C22 1_555 1_555
C20 C21 1_555 1_555

#END
