
#######################################################################
#
#                 Cambridge Crystallographic Data Centre
#                                CCDC 
#
#######################################################################
#
# If this CIF has been generated from an entry in the Cambridge 
# Structural Database, then it will include bibliographic, chemical, 
# crystal, experimental, refinement or atomic coordinate data resulting 
# from the CCDC's data processing and validation procedures.
#
#######################################################################

data_ILECUY
_symmetry_cell_setting           monoclinic
_symmetry_space_group_name_H-M   'P 21/n'
_symmetry_Int_Tables_number      14
_space_group_name_Hall           '-P 2yn'
loop_
_symmetry_equiv_pos_site_id
_symmetry_equiv_pos_as_xyz
1 x,y,z
2 1/2-x,1/2+y,1/2-z
3 -x,-y,-z
4 1/2+x,1/2-y,1/2+z
_cell_length_a                   7.4349(8)
_cell_length_b                   18.7203(14)
_cell_length_c                   13.2271(11)
_cell_angle_alpha                90
_cell_angle_beta                 95.592(1)
_cell_angle_gamma                90
_cell_volume                     1832.23
loop_
_atom_site_label
_atom_site_type_symbol
_atom_site_fract_x
_atom_site_fract_y
_atom_site_fract_z
Ag1 Ag 0.54489(11) 0.24272(3) 0.40376(5)
N1 N 0.5458(11) 0.2467(3) 0.5738(5)
N2 N 0.6233(9) 0.0584(4) 0.2169(5)
N3 N 0.6008(9) 0.1377(3) 0.3379(5)
N4 N 0.4021(8) 0.4155(3) 0.1905(4)
N5 N 0.4701(9) 0.3410(3) 0.3169(5)
O1 O 0.5385(10) 0.3786(3) 0.6149(5)
O2 O 0.8218(8) 0.3169(3) 0.6305(4)
O3 O 0.4088(10) 0.1404(4) 0.6007(5)
S1 S 0.6314(3) 0.31360(10) 0.63763(14)
C1 C 0.4740(12) 0.1965(5) 0.6333(6)
C2 C 0.5011(12) 0.2174(5) 0.7419(6)
C3 C 0.5886(10) 0.2807(4) 0.7568(5)
C4 C 0.6332(12) 0.3102(5) 0.8527(6)
H1 H 0.6943 0.3534 0.8617
C5 C 0.5821(16) 0.2719(7) 0.9322(8)
H2 H 0.6090 0.2892 0.9979
C6 C 0.4929(16) 0.2093(8) 0.9181(7)
H3 H 0.4598 0.1851 0.9749
C7 C 0.4494(13) 0.1800(6) 0.8251(7)
H4 H 0.3877 0.1368 0.8174
C8 C 0.6478(11) 0.1265(4) 0.2457(6)
H5 H 0.6926 0.1617 0.2054
C9 C 0.5404(12) 0.0727(5) 0.3687(6)
H6 H 0.4979 0.0636 0.4313
C10 C 0.5520(12) 0.0239(5) 0.2947(7)
H7 H 0.5181 -0.0239 0.2963
C11 C 0.6543(12) 0.0306(5) 0.1172(7)
H8 H 0.7287 -0.0120 0.1259
H9 H 0.7206 0.0658 0.0820
C12 C 0.4814(11) 0.0122(4) 0.0522(6)
H10 H 0.4183 -0.0253 0.0850
H11 H 0.4036 0.0539 0.0462
C13 C 0.4418(11) 0.3484(4) 0.2183(6)
H12 H 0.4485 0.3110 0.1726
C14 C 0.4495(12) 0.4073(4) 0.3560(6)
H13 H 0.4622 0.4190 0.4247
C15 C 0.4074(12) 0.4539(5) 0.2786(6)
H14 H 0.3862 0.5026 0.2844
C16 C 0.3665(12) 0.4418(5) 0.0859(6)
H15 H 0.2584 0.4711 0.0807
H16 H 0.3443 0.4015 0.0404
C17 C 0.5217(11) 0.4850(5) 0.0532(6)
H17 H 0.6284 0.4551 0.0547
H18 H 0.5481 0.5241 0.1006
Ag1B Ag 0.45511(11) -0.24272(3) -0.40376(5)
Ag1B_2 Ag 0.45511(11) 0.75728(3) -0.40376(5)
N1B N 0.4542(11) -0.2467(3) -0.5738(5)
N2B N 0.3767(9) -0.0584(4) -0.2169(5)
N3B N 0.3992(9) -0.1377(3) -0.3379(5)
N4B N 0.5979(8) 0.5845(3) -0.1905(4)
N5B N 0.5299(9) 0.6590(3) -0.3169(5)
N5B_2 N 0.5299(9) -0.3410(3) -0.3169(5)
O1B O 0.4615(10) -0.3786(3) -0.6149(5)
O2B O 0.1782(8) -0.3169(3) -0.6305(4)
O3B O 0.5912(10) -0.1404(4) -0.6007(5)
S1B S 0.3686(3) -0.31360(10) -0.63763(14)
C1B C 0.5260(12) -0.1965(5) -0.6333(6)
C2B C 0.4989(12) -0.2174(5) -0.7419(6)
C3B C 0.4114(10) -0.2807(4) -0.7568(5)
C4B C 0.3668(12) -0.3102(5) -0.8527(6)
H1B H 0.3057 -0.3534 -0.8617
C5B C 0.4179(16) -0.2719(7) -0.9322(8)
H2B H 0.3910 -0.2892 -0.9979
C6B C 0.5071(16) -0.2093(8) -0.9181(7)
H3B H 0.5402 -0.1851 -0.9749
C7B C 0.5506(13) -0.1800(6) -0.8251(7)
H4B H 0.6123 -0.1368 -0.8174
C8B C 0.3522(11) -0.1265(4) -0.2457(6)
H5B H 0.3074 -0.1617 -0.2054
C9B C 0.4596(12) -0.0727(5) -0.3687(6)
H6B H 0.5021 -0.0636 -0.4313
C10B C 0.4480(12) -0.0239(5) -0.2947(7)
H7B H 0.4819 0.0239 -0.2963
C11B C 0.3457(12) -0.0306(5) -0.1172(7)
H8B H 0.2713 0.0120 -0.1259
H9B H 0.2794 -0.0658 -0.0820
C12B C 0.5186(11) -0.0122(4) -0.0522(6)
H10B H 0.5817 0.0253 -0.0850
H11B H 0.5964 -0.0539 -0.0462
C13B C 0.5582(11) 0.6516(4) -0.2183(6)
H12B H 0.5515 0.6890 -0.1726
C14B C 0.5505(12) 0.5927(4) -0.3560(6)
H13B H 0.5378 0.5810 -0.4247
C15B C 0.5926(12) 0.5461(5) -0.2786(6)
H14B H 0.6138 0.4974 -0.2844
C16B C 0.6335(12) 0.5582(5) -0.0859(6)
H15B H 0.7416 0.5289 -0.0807
H16B H 0.6557 0.5985 -0.0404
C17B C 0.4783(11) 0.5150(5) -0.0532(6)
H17B H 0.3716 0.5449 -0.0547
H18B H 0.4519 0.4759 -0.1006
loop_
_geom_bond_atom_site_label_1
_geom_bond_atom_site_label_2
_geom_bond_site_symmetry_1
_geom_bond_site_symmetry_2
Ag1 N1 1_555 1_555
N1 S1 1_555 1_555
N2 C8 1_555 1_555
N3 Ag1 1_555 1_555
N4 C13 1_555 1_555
N5 Ag1 1_555 1_555
O1 S1 1_555 1_555
O2 S1 1_555 1_555
O3 C1 1_555 1_555
S1 C3 1_555 1_555
C1 N1 1_555 1_555
C2 C1 1_555 1_555
C3 C2 1_555 1_555
C4 C3 1_555 1_555
H1 C4 1_555 1_555
C5 C4 1_555 1_555
H2 C5 1_555 1_555
C6 C5 1_555 1_555
H3 C6 1_555 1_555
C7 C2 1_555 1_555
H4 C7 1_555 1_555
C8 N3 1_555 1_555
H5 C8 1_555 1_555
C9 N3 1_555 1_555
H6 C9 1_555 1_555
C10 N2 1_555 1_555
H7 C10 1_555 1_555
C11 N2 1_555 1_555
H8 C11 1_555 1_555
H9 C11 1_555 1_555
C12 C11 1_555 1_555
H10 C12 1_555 1_555
H11 C12 1_555 1_555
C13 N5 1_555 1_555
H12 C13 1_555 1_555
C14 N5 1_555 1_555
H13 C14 1_555 1_555
C15 N4 1_555 1_555
H14 C15 1_555 1_555
C16 N4 1_555 1_555
H15 C16 1_555 1_555
H16 C16 1_555 1_555
C17 C16 1_555 1_555
H17 C17 1_555 1_555
H18 C17 1_555 1_555
Ag1B N1B 1_555 1_555
Ag1B_2 N5B 1_555 1_555
N1B S1B 1_555 1_555
N2B C8B 1_555 1_555
N3B Ag1B 1_555 1_555
N4B C13B 1_555 1_555
N5B C13B 1_555 1_555
N5B_2 Ag1B 1_555 1_555
O1B S1B 1_555 1_555
O2B S1B 1_555 1_555
O3B C1B 1_555 1_555
S1B C3B 1_555 1_555
C1B N1B 1_555 1_555
C2B C1B 1_555 1_555
C3B C2B 1_555 1_555
C4B C3B 1_555 1_555
H1B C4B 1_555 1_555
C5B C4B 1_555 1_555
H2B C5B 1_555 1_555
C6B C5B 1_555 1_555
H3B C6B 1_555 1_555
C7B C2B 1_555 1_555
H4B C7B 1_555 1_555
C8B N3B 1_555 1_555
H5B C8B 1_555 1_555
C9B N3B 1_555 1_555
H6B C9B 1_555 1_555
C10B N2B 1_555 1_555
H7B C10B 1_555 1_555
C11B N2B 1_555 1_555
H8B C11B 1_555 1_555
H9B C11B 1_555 1_555
C12B C12 1_555 1_555
H10B C12B 1_555 1_555
H11B C12B 1_555 1_555
C13B H12B 1_555 1_555
C14B N5B 1_555 1_555
H13B C14B 1_555 1_555
C15B N4B 1_555 1_555
H14B C15B 1_555 1_555
C16B N4B 1_555 1_555
H15B C16B 1_555 1_555
H16B C16B 1_555 1_555
C17B C17 1_555 1_555
H17B C17B 1_555 1_555
H18B C17B 1_555 1_555
C6 C7 1_555 1_555
C9 C10 1_555 1_555
C14 C15 1_555 1_555
C6B C7B 1_555 1_555
C9B C10B 1_555 1_555
C11B C12B 1_555 1_555
C14B C15B 1_555 1_555
C16B C17B 1_555 1_555

#END
