
#######################################################################
#
#                 Cambridge Crystallographic Data Centre
#                                CCDC 
#
#######################################################################
#
# If this CIF has been generated from an entry in the Cambridge 
# Structural Database, then it will include bibliographic, chemical, 
# crystal, experimental, refinement or atomic coordinate data resulting 
# from the CCDC's data processing and validation procedures.
#
#######################################################################

data_ILEJOZ
_symmetry_cell_setting           monoclinic
_symmetry_space_group_name_H-M   'P 21/c'
_symmetry_Int_Tables_number      14
_space_group_name_Hall           '-P 2ybc'
loop_
_symmetry_equiv_pos_site_id
_symmetry_equiv_pos_as_xyz
1 x,y,z
2 -x,1/2+y,1/2-z
3 -x,-y,-z
4 x,1/2-y,1/2+z
_cell_length_a                   9.3776(6)
_cell_length_b                   13.4011(9)
_cell_length_c                   19.5267(11)
_cell_angle_alpha                90
_cell_angle_beta                 111.197(2)
_cell_angle_gamma                90
_cell_volume                     2287.9
loop_
_atom_site_label
_atom_site_type_symbol
_atom_site_fract_x
_atom_site_fract_y
_atom_site_fract_z
Cu1 Cu 0.03660(3) 0.601758(17) 0.405185(12)
O1 O 0.1793(3) 0.42332(14) 0.11165(12)
O2 O 0.1787(2) 0.50697(14) 0.01811(10)
O3 O 0.0562(2) 0.75900(12) 0.30942(8)
O4 O 0.01153(19) 0.93687(11) 0.08480(8)
O5 O -0.03506(17) 0.84743(12) -0.01797(8)
O6 O 0.10742(17) 0.59559(11) 0.32148(8)
N1 N 0.45072(19) 0.54595(13) 0.57488(9)
N2 N 0.6092(2) 0.78691(13) 0.77740(9)
N3 N 0.82270(19) 0.87391(13) 0.83315(9)
N4 N 0.2516(2) 0.59528(12) 0.47806(9)
N5 N 0.1611(2) 0.50060(14) 0.07681(11)
C1 C 0.0533(2) 0.76158(15) 0.16737(11)
H1 H 0.0346 0.8203 0.1881
C2 C 0.1180(2) 0.59091(15) 0.10793(12)
C3 C 0.0496(2) 0.76285(15) 0.09540(10)
C4 C 0.5021(2) 0.62564(15) 0.54480(11)
C5 C 0.0842(2) 0.67449(15) 0.20873(10)
C6 C 0.0819(2) 0.67867(17) 0.28595(11)
C7 C 0.6175(2) 0.85761(15) 0.72683(11)
C8 C 0.7344(2) 0.80073(15) 0.83890(11)
H2 H 0.7558 0.7622 0.8810
C9 C 0.7520(2) 0.91094(15) 0.76178(11)
C10 C 0.1158(2) 0.58707(16) 0.17846(12)
H3 H 0.1349 0.5277 0.2049
C11 C 0.0836(2) 0.67638(15) 0.06520(11)
H4 H 0.0833 0.6759 0.0175
C12 C 0.0063(2) 0.85825(15) 0.05108(11)
C13 C 0.3753(2) 0.65720(16) 0.48452(11)
C14 C 0.4450(2) 0.64607(17) 0.70551(12)
H5 H 0.3508 0.6459 0.6670
H6 H 0.3600 0.6076 0.7072
C15 C 0.5737(3) 0.57590(18) 0.70947(12)
H7 H 0.6048 0.5402 0.7558
H8 H 0.6605 0.6150 0.7092
C16 C 0.3021(2) 0.53197(15) 0.53316(11)
H9 H 0.2415 0.4827 0.5424
C17 C 0.7967(3) 0.98736(16) 0.72527(12)
H10 H 0.8861 1.0234 0.7482
C18 C 0.3869(3) 0.74033(17) 0.44370(12)
H11 H 0.3038 0.7629 0.4039
C19 C 0.5331(3) 0.49951(16) 0.64648(12)
H12 H 0.6262 0.4690 0.6457
H13 H 0.4701 0.4473 0.6553
C20 C 0.4840(3) 0.71650(18) 0.77008(13)
H14 H 0.4326 0.7155 0.8029
H15 H 0.3928 0.7539 0.7640
C21 C 0.7033(3) 1.00733(18) 0.65386(13)
H16 H 0.7312 1.0569 0.6278
C22 C 0.6532(3) 0.75438(19) 0.52403(14)
H17 H 0.7456 0.7882 0.5360
C23 C 0.5669(3) 0.95426(19) 0.61969(13)
H18 H 0.5058 0.9704 0.5717
C24 C 0.6441(2) 0.67267(18) 0.56511(12)
H19 H 0.7282 0.6501 0.6044
C25 C 0.5269(3) 0.78750(18) 0.46488(13)
H20 H 0.5374 0.8433 0.4388
C26 C 0.5211(3) 0.87940(18) 0.65494(13)
H21 H 0.4303 0.8448 0.6321
Cu1A Cu -0.03660(3) 1.101758(17) 0.094815(12)
Cu1C Cu 0.03660(3) 0.898242(17) -0.094815(12)
Cu1C_2 Cu 1.03660(3) 0.898242(17) 0.905185(12)
O4A O -0.01153(19) 0.43687(11) 0.41520(8)
O5C O -0.03506(17) 0.65257(12) 0.48203(8)
N3C N -0.17730(19) 0.62609(13) 0.33315(9)
loop_
_geom_bond_atom_site_label_1
_geom_bond_atom_site_label_2
_geom_bond_site_symmetry_1
_geom_bond_site_symmetry_2
Cu1 O6 1_555 1_555
O1 N5 1_555 1_555
O2 N5 1_555 1_555
O3 C6 1_555 1_555
O4 C12 1_555 1_555
O5 C12 1_555 1_555
O6 C6 1_555 1_555
N1 C4 1_555 1_555
N2 C7 1_555 1_555
N3 C8 1_555 1_555
N4 Cu1 1_555 1_555
N5 C2 1_555 1_555
C1 H1 1_555 1_555
C2 C10 1_555 1_555
C3 C1 1_555 1_555
C4 C13 1_555 1_555
C5 C1 1_555 1_555
C6 C5 1_555 1_555
C7 C9 1_555 1_555
C8 N2 1_555 1_555
H2 C8 1_555 1_555
C9 N3 1_555 1_555
C10 C5 1_555 1_555
H3 C10 1_555 1_555
C11 C2 1_555 1_555
H4 C11 1_555 1_555
C12 C3 1_555 1_555
C13 N4 1_555 1_555
C14 H5 1_555 1_555
H6 C14 1_555 1_555
C15 C14 1_555 1_555
H7 C15 1_555 1_555
H8 C15 1_555 1_555
C16 N1 1_555 1_555
H9 C16 1_555 1_555
C17 C9 1_555 1_555
H10 C17 1_555 1_555
C18 C13 1_555 1_555
H11 C18 1_555 1_555
C19 N1 1_555 1_555
H12 C19 1_555 1_555
H13 C19 1_555 1_555
C20 N2 1_555 1_555
H14 C20 1_555 1_555
H15 C20 1_555 1_555
C21 C17 1_555 1_555
H16 C21 1_555 1_555
C22 H17 1_555 1_555
C23 C21 1_555 1_555
H18 C23 1_555 1_555
C24 C4 1_555 1_555
H19 C24 1_555 1_555
C25 C18 1_555 1_555
H20 C25 1_555 1_555
C26 C7 1_555 1_555
H21 C26 1_555 1_555
Cu1A O4 1_555 1_555
Cu1C O5 1_555 1_555
Cu1C_2 N3 1_555 1_555
O4A Cu1 1_555 1_555
O5C Cu1 1_555 1_555
N3C Cu1 1_555 1_555
N4 C16 1_555 1_555
C3 C11 1_555 1_555
C14 C20 1_555 1_555
C15 C19 1_555 1_555
C22 C24 1_555 1_555
C22 C25 1_555 1_555
C23 C26 1_555 1_555

#END
