
#######################################################################
#
#                 Cambridge Crystallographic Data Centre
#                                CCDC 
#
#######################################################################
#
# If this CIF has been generated from an entry in the Cambridge 
# Structural Database, then it will include bibliographic, chemical, 
# crystal, experimental, refinement or atomic coordinate data resulting 
# from the CCDC's data processing and validation procedures.
#
#######################################################################

data_ILEXUS
_symmetry_cell_setting           monoclinic
_symmetry_space_group_name_H-M   'C 2/c'
_symmetry_Int_Tables_number      15
_space_group_name_Hall           '-C 2yn'
loop_
_symmetry_equiv_pos_site_id
_symmetry_equiv_pos_as_xyz
1 x,y,z
2 1/2+x,1/2+y,z
3 x,-y,1/2+z
4 1/2+x,1/2-y,1/2+z
5 -x,-y,-z
6 1/2-x,1/2-y,-z
7 -x,y,1/2-z
8 1/2-x,1/2+y,1/2-z
_cell_length_a                   18.7581(11)
_cell_length_b                   49.196(3)
_cell_length_c                   13.7580(8)
_cell_angle_alpha                90
_cell_angle_beta                 132.6500(10)
_cell_angle_gamma                90
_cell_volume                     9338.14
loop_
_atom_site_label
_atom_site_type_symbol
_atom_site_fract_x
_atom_site_fract_y
_atom_site_fract_z
C1 C 0.4919(3) 0.08561(7) 0.3741(4)
C2 C 0.5554(3) 0.08113(8) 0.5100(4)
H1 H 0.6022 0.0670 0.5492
C3 C 0.5505(3) 0.09731(10) 0.5886(4)
H2 H 0.5936 0.0940 0.6809
C4 C 0.4838(3) 0.11806(10) 0.5333(5)
H3 H 0.4811 0.1291 0.5873
C5 C 0.4211(3) 0.12266(9) 0.3994(5)
H4 H 0.3753 0.1370 0.3610
C6 C 0.4243(3) 0.10641(8) 0.3202(4)
H5 H 0.3797 0.1095 0.2276
C7 C 0.5000 0.02019(11) 0.2500
C8 C 0.5038(3) 0.00563(9) 0.1671(4)
H6 H 0.5065 0.0152 0.1096
C9 C 0.5037(3) -0.02237(9) 0.1664(5)
H7 H 0.5062 -0.0321 0.1090
C10 C 0.5000 -0.03606(13) 0.2500
H8 H 0.5000 -0.0554 0.2500
C11 C 0.9933(3) 0.08247(7) 0.8763(4)
C12 C 0.9232(3) 0.07686(9) 0.8801(4)
H9 H 0.8772 0.0629 0.8258
C13 C 0.9194(3) 0.09163(10) 0.9633(5)
H10 H 0.8713 0.0875 0.9659
C14 C 0.9844(4) 0.11194(10) 1.0407(5)
H11 H 0.9811 0.1220 1.0966
C15 C 1.0557(3) 0.11802(9) 1.0380(5)
H12 H 1.1005 0.1323 1.0910
C16 C 1.0605(3) 0.10298(8) 0.9571(4)
H13 H 1.1100 0.1067 0.9568
C17 C 1.0000 0.01810(11) 0.7500
C18 C 1.0070(3) 0.00355(8) 0.6705(4)
H14 H 1.0119 0.0131 0.6152
C19 C 1.0071(3) -0.02475(9) 0.6702(5)
H15 H 1.0119 -0.0344 0.6151
C20 C 1.0000 -0.03851(13) 0.7500
H16 H 1.0000 -0.0578 0.7500
C21 C 0.7510(3) 0.01909(8) 0.4497(4)
C22 C 0.7604(3) 0.02049(8) 0.3580(4)
C23 C 0.7628(3) -0.00431(9) 0.3110(4)
H17 H 0.7702 -0.0043 0.2492
C24 C 0.7547(3) -0.02886(9) 0.3519(4)
H18 H 0.7547 -0.0453 0.3155
C25 C 0.7466(3) -0.03012(8) 0.4441(4)
C26 C 0.7447(3) -0.00566(8) 0.4931(4)
H19 H 0.7391 -0.0058 0.5567
C27 C 0.7673(4) 0.04668(10) 0.3076(5)
H20 H 0.7044 0.0559 0.2506
H21 H 0.7854 0.0427 0.2570
H22 H 0.8165 0.0584 0.3826
C28 C 0.7397(3) -0.05681(9) 0.4895(4)
H23 H 0.7188 -0.0709 0.4243
H24 H 0.6926 -0.0554 0.4990
H25 H 0.8034 -0.0616 0.5748
O1 O 0.66452(17) 0.06542(5) 0.4049(2)
O2 O 0.83579(17) 0.06402(5) 0.5829(2)
O3 O 0.73384(19) 0.04068(5) 0.6056(3)
S1 S 0.74582(6) 0.048777(19) 0.51716(9)
Sn1 Sn 0.5000 0.063153(7) 0.2500
Sn2 Sn 1.0000 0.060999(7) 0.7500
C9F C 0.4963(3) -0.02237(9) 0.3336(5)
C8F C 0.4962(3) 0.00563(9) 0.3329(4)
H6F H 0.4935 0.0152 0.3904
H7F H 0.4938 -0.0321 0.3910
C19F C 0.9929(3) -0.02475(9) 0.8298(5)
C18F C 0.9930(3) 0.00355(8) 0.8295(4)
H14F H 0.9881 0.0131 0.8848
H15F H 0.9881 -0.0344 0.8849
C1F C 0.5081(3) 0.08561(7) 0.1259(4)
C2F C 0.4446(3) 0.08113(8) -0.0100(4)
H1F H 0.3978 0.0670 -0.0492
C3F C 0.4495(3) 0.09731(10) -0.0886(4)
H2F H 0.4064 0.0940 -0.1809
C4F C 0.5162(3) 0.11806(10) -0.0333(5)
H3F H 0.5189 0.1291 -0.0873
C5F C 0.5789(3) 0.12266(9) 0.1006(5)
H4F H 0.6247 0.1370 0.1390
C6F C 0.5757(3) 0.10641(8) 0.1798(4)
H5F H 0.6203 0.1095 0.2724
C21F C 0.2490(3) 0.01909(8) 0.0503(4)
C22F C 0.2396(3) 0.02049(8) 0.1420(4)
C23F C 0.2372(3) -0.00431(9) 0.1890(4)
H17F H 0.2298 -0.0043 0.2508
C24F C 0.2453(3) -0.02886(9) 0.1481(4)
H18F H 0.2453 -0.0453 0.1845
C25F C 0.2534(3) -0.03012(8) 0.0559(4)
C26F C 0.2553(3) -0.00566(8) 0.0069(4)
H19F H 0.2609 -0.0058 -0.0567
C27F C 0.2327(4) 0.04668(10) 0.1924(5)
H20F H 0.2956 0.0559 0.2494
H21F H 0.2146 0.0427 0.2430
H22F H 0.1835 0.0584 0.1174
C28F C 0.2603(3) -0.05681(9) 0.0105(4)
H23F H 0.2812 -0.0709 0.0757
H24F H 0.3074 -0.0554 0.0010
H25F H 0.1966 -0.0616 -0.0748
O1F O 0.33548(17) 0.06542(5) 0.0951(2)
O2F O 0.16421(17) 0.06402(5) -0.0829(2)
O3F O 0.26616(19) 0.04068(5) -0.1056(3)
S1F S 0.25418(6) 0.048777(19) -0.01716(9)
C11F C 1.0067(3) 0.08247(7) 0.6237(4)
C12F C 1.0768(3) 0.07686(9) 0.6199(4)
H9F H 1.1228 0.0629 0.6742
C13F C 1.0806(3) 0.09163(10) 0.5367(5)
H10F H 1.1287 0.0875 0.5341
C14F C 1.0156(4) 0.11194(10) 0.4593(5)
H11F H 1.0189 0.1220 0.4034
C15F C 0.9443(3) 0.11802(9) 0.4620(5)
H12F H 0.8995 0.1323 0.4090
C16F C 0.9395(3) 0.10298(8) 0.5429(4)
H13F H 0.8900 0.1067 0.5432
O2F_2 O 1.16421(17) 0.06402(5) 0.9171(2)
Sn2_2 Sn 0.0000 0.060999(7) -0.2500
C29 C 0.8666(3) 0.16570(8) 0.1056(3)
C30 C 0.8381(3) 0.14593(9) 0.1444(4)
H26 H 0.8778 0.1420 0.2357
C31 C 0.7518(3) 0.13167(9) 0.0515(5)
H27 H 0.7338 0.1179 0.0798
C32 C 0.6933(3) 0.13737(10) -0.0793(4)
H28 H 0.6342 0.1278 -0.1425
C33 C 0.7203(3) 0.15700(13) -0.1189(5)
H29 H 0.6795 0.1610 -0.2103
C34 C 0.8066(3) 0.17115(11) -0.0273(4)
H30 H 0.8244 0.1847 -0.0567
C35 C 1.0000 0.22985(11) 0.2500
C36 C 1.0856(3) 0.24420(9) 0.3407(4)
H31 H 1.1448 0.2347 0.4042
C37 C 1.0854(4) 0.27257(10) 0.3397(5)
H32 H 1.1446 0.2822 0.4013
C38 C 1.0000 0.28663(14) 0.2500
H33 H 1.0000 0.3059 0.2500
C39 C 1.1347(3) 0.16570(7) 0.8479(4)
C40 C 1.1470(3) 0.14771(9) 0.7827(4)
H34 H 1.0943 0.1441 0.6916
C41 C 1.2356(3) 0.13493(10) 0.8492(5)
H35 H 1.2430 0.1225 0.8036
C42 C 1.3126(3) 0.14027(9) 0.9809(5)
H36 H 1.3731 0.1315 1.0267
C43 C 1.3018(3) 0.15830(9) 1.0456(4)
H37 H 1.3551 0.1622 1.1363
C44 C 1.2139(3) 0.17090(9) 0.9802(4)
H38 H 1.2075 0.1834 1.0267
C45 C 1.0000 0.22858(10) 0.7500
C46 C 1.0857(3) 0.24277(8) 0.8160(4)
H39 H 1.1446 0.2331 0.8609
C47 C 1.0859(3) 0.27112(9) 0.8169(4)
H40 H 1.1450 0.2808 0.8634
C48 C 1.0000 0.28506(12) 0.7500
H41 H 1.0000 0.3044 0.7500
C49 C 0.9149(3) 0.22956(8) 0.4173(4)
C50 C 0.8144(3) 0.22740(9) 0.3103(4)
C51 C 0.7637(3) 0.25189(9) 0.2646(4)
H42 H 0.6952 0.2515 0.1937
C52 C 0.8095(3) 0.27688(9) 0.3189(4)
H43 H 0.7717 0.2930 0.2859
C53 C 0.9084(3) 0.27864(8) 0.4192(4)
C54 C 0.9607(3) 0.25442(8) 0.4694(4)
H44 H 1.0291 0.2550 0.5406
C55 C 0.7616(3) 0.20135(9) 0.2435(4)
H45 H 0.7621 0.1973 0.1743
H46 H 0.6944 0.2031 0.2040
H47 H 0.7935 0.1866 0.3086
C56 C 0.9594(4) 0.30580(9) 0.4738(5)
H48 H 1.0166 0.3040 0.5683
H49 H 0.9151 0.3193 0.4609
H50 H 0.9795 0.3117 0.4274
O4 O 0.97024(18) 0.18407(5) 0.3862(2)
O5 O 0.95676(18) 0.18424(5) 0.5472(2)
O6 O 1.08783(18) 0.20912(5) 0.5912(3)
S2 S 0.98955(6) 0.200280(18) 0.49262(8)
Sn3 Sn 1.0000 0.186881(7) 0.2500
Sn4 Sn 1.0000 0.185485(7) 0.7500
C37F C 0.9146(4) 0.27257(10) 0.1603(5)
C36F C 0.9144(3) 0.24420(9) 0.1593(4)
H31F H 0.8552 0.2347 0.0958
H32F H 0.8554 0.2822 0.0987
C47F C 0.9141(3) 0.27112(9) 0.6831(4)
C46F C 0.9143(3) 0.24277(8) 0.6840(4)
H39F H 0.8554 0.2331 0.6391
H40F H 0.8550 0.2808 0.6366
C29F C 1.1334(3) 0.16570(8) 0.3944(3)
C30F C 1.1619(3) 0.14593(9) 0.3556(4)
H26F H 1.1222 0.1420 0.2643
C31F C 1.2482(3) 0.13167(9) 0.4485(5)
H27F H 1.2662 0.1179 0.4202
C32F C 1.3067(3) 0.13737(10) 0.5793(4)
H28F H 1.3658 0.1278 0.6425
C33F C 1.2797(3) 0.15700(13) 0.6189(5)
H29F H 1.3205 0.1610 0.7103
C34F C 1.1934(3) 0.17115(11) 0.5273(4)
H30F H 1.1756 0.1847 0.5567
C49F C 1.0851(3) 0.22956(8) 0.0827(4)
C50F C 1.1856(3) 0.22740(9) 0.1897(4)
C51F C 1.2363(3) 0.25189(9) 0.2354(4)
H42F H 1.3048 0.2515 0.3063
C52F C 1.1905(3) 0.27688(9) 0.1811(4)
H43F H 1.2283 0.2930 0.2141
C53F C 1.0916(3) 0.27864(8) 0.0808(4)
C54F C 1.0393(3) 0.25442(8) 0.0306(4)
H44F H 0.9709 0.2550 -0.0406
C55F C 1.2384(3) 0.20135(9) 0.2565(4)
H45F H 1.2379 0.1973 0.3257
H46F H 1.3056 0.2031 0.2960
H47F H 1.2065 0.1866 0.1914
C56F C 1.0406(4) 0.30580(9) 0.0262(5)
H48F H 0.9834 0.3040 -0.0683
H49F H 1.0849 0.3193 0.0391
H50F H 1.0205 0.3117 0.0726
O4F O 1.02976(18) 0.18407(5) 0.1138(2)
O5F O 1.04324(18) 0.18424(5) -0.0472(2)
O6F O 0.91217(18) 0.20912(5) -0.0912(3)
S2F S 1.01045(6) 0.200280(18) 0.00738(8)
C39F C 0.8653(3) 0.16570(7) 0.6521(4)
C40F C 0.8530(3) 0.14771(9) 0.7173(4)
H34F H 0.9057 0.1441 0.8084
C41F C 0.7644(3) 0.13493(10) 0.6508(5)
H35F H 0.7570 0.1225 0.6964
C42F C 0.6874(3) 0.14027(9) 0.5191(5)
H36F H 0.6269 0.1315 0.4733
C43F C 0.6982(3) 0.15830(9) 0.4544(4)
H37F H 0.6449 0.1622 0.3637
C44F C 0.7861(3) 0.17090(9) 0.5198(4)
H38F H 0.7925 0.1834 0.4733
O5F_2 O 1.04324(18) 0.18424(5) 0.9528(2)
Sn4_2 Sn 1.0000 0.185485(7) -0.2500
loop_
_geom_bond_atom_site_label_1
_geom_bond_atom_site_label_2
_geom_bond_site_symmetry_1
_geom_bond_site_symmetry_2
C1 C2 1_555 1_555
C2 H1 1_555 1_555
C3 C2 1_555 1_555
H2 C3 1_555 1_555
C4 C3 1_555 1_555
H3 C4 1_555 1_555
C5 C4 1_555 1_555
H4 C5 1_555 1_555
C6 C1 1_555 1_555
H5 C6 1_555 1_555
C7 C8 1_555 1_555
C8 H6 1_555 1_555
C9 C8 1_555 1_555
H7 C9 1_555 1_555
C10 C9 1_555 1_555
H8 C10 1_555 1_555
C11 C12 1_555 1_555
C12 H9 1_555 1_555
C13 C12 1_555 1_555
H10 C13 1_555 1_555
C14 C13 1_555 1_555
H11 C14 1_555 1_555
C15 C14 1_555 1_555
H12 C15 1_555 1_555
C16 C11 1_555 1_555
H13 C16 1_555 1_555
C17 C18 1_555 1_555
C18 H14 1_555 1_555
C19 C18 1_555 1_555
H15 C19 1_555 1_555
C20 C19 1_555 1_555
H16 C20 1_555 1_555
C21 C22 1_555 1_555
C22 C23 1_555 1_555
C23 H17 1_555 1_555
C24 C23 1_555 1_555
H18 C24 1_555 1_555
C25 C24 1_555 1_555
C26 C21 1_555 1_555
H19 C26 1_555 1_555
C27 C22 1_555 1_555
H20 C27 1_555 1_555
H21 C27 1_555 1_555
H22 C27 1_555 1_555
C28 C25 1_555 1_555
H23 C28 1_555 1_555
H24 C28 1_555 1_555
H25 C28 1_555 1_555
C29 C30 1_555 1_555
C30 H26 1_555 1_555
C31 C30 1_555 1_555
H27 C31 1_555 1_555
C32 C31 1_555 1_555
H28 C32 1_555 1_555
C33 C32 1_555 1_555
H29 C33 1_555 1_555
C34 C29 1_555 1_555
H30 C34 1_555 1_555
C35 C36 1_555 1_555
C36 H31 1_555 1_555
C37 C36 1_555 1_555
H32 C37 1_555 1_555
C38 C37 1_555 1_555
H33 C38 1_555 1_555
C39 C40 1_555 1_555
C40 H34 1_555 1_555
C41 C40 1_555 1_555
H35 C41 1_555 1_555
C42 C41 1_555 1_555
H36 C42 1_555 1_555
C43 C42 1_555 1_555
H37 C43 1_555 1_555
C44 C39 1_555 1_555
H38 C44 1_555 1_555
C45 C46 1_555 1_555
C46 H39 1_555 1_555
C47 C46 1_555 1_555
H40 C47 1_555 1_555
C48 C47 1_555 1_555
H41 C48 1_555 1_555
C49 C50 1_555 1_555
C50 C51 1_555 1_555
C51 H42 1_555 1_555
C52 C51 1_555 1_555
H43 C52 1_555 1_555
C53 C52 1_555 1_555
C54 C49 1_555 1_555
H44 C54 1_555 1_555
C55 C50 1_555 1_555
H45 C55 1_555 1_555
H46 C55 1_555 1_555
H47 C55 1_555 1_555
C56 C53 1_555 1_555
H48 C56 1_555 1_555
H49 C56 1_555 1_555
H50 C56 1_555 1_555
O1 S1 1_555 1_555
O2 S1 1_555 1_555
O3 S1 1_555 1_555
O4 S2 1_555 1_555
O5 S2 1_555 1_555
O6 S2 1_555 1_555
S1 C21 1_555 1_555
S2 C49 1_555 1_555
Sn1 C1 1_555 1_555
Sn2 C11 1_555 1_555
Sn3 C29 1_555 1_555
Sn4 C39 1_555 1_555
C9F C10 1_555 1_555
C8F C7 1_555 1_555
H6F C8F 1_555 1_555
H7F C9F 1_555 1_555
C19F C20 1_555 1_555
C18F C17 1_555 1_555
H14F C18F 1_555 1_555
H15F C19F 1_555 1_555
C37F C38 1_555 1_555
C36F C35 1_555 1_555
H31F C36F 1_555 1_555
H32F C37F 1_555 1_555
C47F C48 1_555 1_555
C46F C45 1_555 1_555
H39F C46F 1_555 1_555
H40F C47F 1_555 1_555
C1F Sn1 1_555 1_555
C2F C1F 1_555 1_555
H1F C2F 1_555 1_555
C3F C2F 1_555 1_555
H2F C3F 1_555 1_555
C4F C3F 1_555 1_555
H3F C4F 1_555 1_555
C5F C4F 1_555 1_555
H4F C5F 1_555 1_555
C6F C1F 1_555 1_555
H5F C6F 1_555 1_555
C21F C22F 1_555 1_555
C22F C23F 1_555 1_555
C23F H17F 1_555 1_555
C24F C23F 1_555 1_555
H18F C24F 1_555 1_555
C25F C24F 1_555 1_555
C26F C21F 1_555 1_555
H19F C26F 1_555 1_555
C27F C22F 1_555 1_555
H20F C27F 1_555 1_555
H21F C27F 1_555 1_555
H22F C27F 1_555 1_555
C28F C25F 1_555 1_555
H23F C28F 1_555 1_555
H24F C28F 1_555 1_555
H25F C28F 1_555 1_555
O1F Sn1 1_555 1_555
O2F S1F 1_555 1_555
O3F S1F 1_555 1_555
S1F C21F 1_555 1_555
C11F Sn2 1_555 1_555
C12F C11F 1_555 1_555
H9F C12F 1_555 1_555
C13F C12F 1_555 1_555
H10F C13F 1_555 1_555
C14F C13F 1_555 1_555
H11F C14F 1_555 1_555
C15F C14F 1_555 1_555
H12F C15F 1_555 1_555
C16F C11F 1_555 1_555
H13F C16F 1_555 1_555
C29F Sn3 1_555 1_555
C30F C29F 1_555 1_555
H26F C30F 1_555 1_555
C31F C30F 1_555 1_555
H27F C31F 1_555 1_555
C32F C31F 1_555 1_555
H28F C32F 1_555 1_555
C33F C32F 1_555 1_555
H29F C33F 1_555 1_555
C34F C29F 1_555 1_555
H30F C34F 1_555 1_555
C49F C50F 1_555 1_555
C50F C51F 1_555 1_555
C51F H42F 1_555 1_555
C52F C51F 1_555 1_555
H43F C52F 1_555 1_555
C53F C52F 1_555 1_555
C54F C49F 1_555 1_555
H44F C54F 1_555 1_555
C55F C50F 1_555 1_555
H45F C55F 1_555 1_555
H46F C55F 1_555 1_555
H47F C55F 1_555 1_555
C56F C53F 1_555 1_555
H48F C56F 1_555 1_555
H49F C56F 1_555 1_555
H50F C56F 1_555 1_555
O4F Sn3 1_555 1_555
O5F S2F 1_555 1_555
O6F S2F 1_555 1_555
S2F C49F 1_555 1_555
C39F Sn4 1_555 1_555
C40F C39F 1_555 1_555
H34F C40F 1_555 1_555
C41F C40F 1_555 1_555
H35F C41F 1_555 1_555
C42F C41F 1_555 1_555
H36F C42F 1_555 1_555
C43F C42F 1_555 1_555
H37F C43F 1_555 1_555
C44F C39F 1_555 1_555
H38F C44F 1_555 1_555
O2F_2 Sn2 1_555 1_555
O5F_2 Sn4 1_555 1_555
Sn2_2 O2F 1_555 1_555
Sn4_2 O5F 1_555 1_555
C5 C6 1_555 1_555
C7 Sn1 1_555 1_555
C15 C16 1_555 1_555
C17 Sn2 1_555 1_555
C25 C26 1_555 1_555
C33 C34 1_555 1_555
C35 Sn3 1_555 1_555
C43 C44 1_555 1_555
C45 Sn4 1_555 1_555
C53 C54 1_555 1_555
O1 Sn1 1_555 1_555
O2 Sn2 1_555 1_555
O4 Sn3 1_555 1_555
O5 Sn4 1_555 1_555
C9F C8F 1_555 1_555
C19F C18F 1_555 1_555
C37F C36F 1_555 1_555
C47F C46F 1_555 1_555
C5F C6F 1_555 1_555
C25F C26F 1_555 1_555
O1F S1F 1_555 1_555
C15F C16F 1_555 1_555
C33F C34F 1_555 1_555
C53F C54F 1_555 1_555
O4F S2F 1_555 1_555
C43F C44F 1_555 1_555

#END
