
#######################################################################
#
#                 Cambridge Crystallographic Data Centre
#                                CCDC 
#
#######################################################################
#
# If this CIF has been generated from an entry in the Cambridge 
# Structural Database, then it will include bibliographic, chemical, 
# crystal, experimental, refinement or atomic coordinate data resulting 
# from the CCDC's data processing and validation procedures.
#
#######################################################################

data_ILIGOZ
_symmetry_cell_setting           orthorhombic
_symmetry_space_group_name_H-M   'P b c a'
_symmetry_Int_Tables_number      61
_space_group_name_Hall           '-P 2ac 2ab'
loop_
_symmetry_equiv_pos_site_id
_symmetry_equiv_pos_as_xyz
1 x,y,z
2 1/2+x,y,1/2-z
3 x,1/2-y,1/2+z
4 1/2-x,1/2+y,z
5 -x,-y,-z
6 1/2-x,-y,1/2+z
7 -x,1/2+y,1/2-z
8 1/2+x,1/2-y,-z
_cell_length_a                   10.761(4)
_cell_length_b                   19.427(7)
_cell_length_c                   19.681(7)
_cell_angle_alpha                90
_cell_angle_beta                 90
_cell_angle_gamma                90
_cell_volume                     4114.39
loop_
_atom_site_label
_atom_site_type_symbol
_atom_site_fract_x
_atom_site_fract_y
_atom_site_fract_z
O1 O -0.0389(7) 0.7405(4) 0.5710(4)
O2 O 0.5734(8) 1.0593(5) 0.9293(4)
O3 O 0.0999(8) 0.8380(4) 0.9395(4)
O4 O -0.1912(9) 0.6925(5) 0.9748(4)
O5 O 0.1761(8) 0.8190(4) 0.5707(4)
O6 O -0.2589(5) 1.3838(3) 0.8108(3)
O7 O 0.2479(6) 1.1873(3) 0.6819(4)
O8 O -0.1354(5) 1.2837(3) 0.6859(3)
O9 O 0.1988(5) 1.1008(3) 0.7485(4)
O10 O 0.1239(6) 1.2787(3) 0.8027(3)
C1 C -0.0715(8) 1.2991(4) 0.7475(4)
H1 H -0.1183 1.2792 0.7855
C2 C 0.0538(7) 1.2640(4) 0.7437(4)
H2 H 0.0984 1.2839 0.7050
O11 O -0.2156(5) 1.4578(3) 0.7306(4)
C3 C -0.0598(8) 1.3759(4) 0.7590(4)
H3 H -0.0119 1.3837 0.8006
O12 O -0.0196(6) 1.0254(3) 0.7002(3)
O13 O -0.0005(5) 1.4108(3) 0.7042(3)
C4 C 0.0449(7) 1.1872(4) 0.7315(5)
H4 H -0.0065 1.1790 0.6912
C5 C -0.1885(8) 1.4082(4) 0.7674(5)
C6 C 0.1741(8) 1.1570(4) 0.7194(5)
O14 O 0.0391(5) 1.1012(3) 0.9217(3)
O15 O 0.2573(6) 1.0545(4) 0.8814(3)
C7 C 0.0633(8) 0.9990(4) 0.9847(4)
H5 H 0.1194 0.9735 1.0148
O16 O 0.3368(6) 1.0637(4) 0.9849(4)
C8 C 0.1168(8) 1.0705(5) 0.9713(5)
H6 H 0.1166 1.0979 1.0131
C9 C 0.2494(9) 1.0632(5) 0.9440(5)
Eu1 Eu 0.06754(4) 1.03365(2) 0.81643(2)
O17 O -0.1520(5) 1.0295(3) 0.8400(3)
O18 O -0.0087(5) 1.1522(3) 0.7879(3)
O19 O 0.0587(6) 0.9663(3) 0.9203(3)
C7D C -0.0633(8) 1.0010(4) 1.0153(4)
H5D H -0.1194 1.0265 0.9852
C8D C -0.1168(8) 0.9295(5) 1.0287(5)
O14D O -0.0391(5) 0.8988(3) 1.0783(3)
H6D H -0.1166 0.9021 0.9869
C9D C -0.2494(9) 0.9368(5) 1.0560(5)
O15D O -0.2573(6) 0.9455(4) 1.1186(3)
O16D O -0.3368(6) 0.9363(4) 1.0151(4)
O19D O -0.0587(6) 1.0337(3) 1.0797(3)
O6F O 0.2589(5) 0.8838(3) 0.6892(3)
O7F O -0.2479(6) 0.6873(3) 0.8181(4)
O8F O 0.1354(5) 0.7837(3) 0.8141(3)
O9F O -0.1988(5) 0.6008(3) 0.7515(4)
O10F O -0.1239(6) 0.7787(3) 0.6973(3)
C1F C 0.0715(8) 0.7991(4) 0.7525(4)
H1F H 0.1183 0.7792 0.7145
C2F C -0.0538(7) 0.7640(4) 0.7563(4)
H2F H -0.0984 0.7839 0.7950
O11F O 0.2156(5) 0.9578(3) 0.7694(4)
C3F C 0.0598(8) 0.8759(4) 0.7410(4)
H3F H 0.0119 0.8837 0.6994
O13F O 0.0005(5) 0.9108(3) 0.7958(3)
C4F C -0.0449(7) 0.6872(4) 0.7685(5)
H4F H 0.0065 0.6790 0.8088
C5F C 0.1885(8) 0.9082(4) 0.7326(5)
C6F C -0.1741(8) 0.6570(4) 0.7806(5)
O18F O 0.0087(5) 0.6522(3) 0.7121(3)
Eu1F Eu -0.06754(4) 0.53365(2) 0.68357(2)
O12F O 0.0196(6) 0.5254(3) 0.7998(3)
O17F O 0.1520(5) 0.5295(3) 0.6600(3)
Eu1F_2 Eu -0.06754(4) 1.53365(2) 0.68357(2)
Eu1D Eu -0.06754(4) 0.96635(2) 1.18357(2)
O11_2 O -0.2156(5) 0.4578(3) 0.7306(4)
O13_2 O -0.0005(5) 0.4108(3) 0.7042(3)
O14F O -0.0391(5) 0.6012(3) 0.5783(3)
O15F O -0.2573(6) 0.5545(4) 0.6186(3)
O19F O -0.0587(6) 0.4663(3) 0.5797(3)
loop_
_geom_bond_atom_site_label_1
_geom_bond_atom_site_label_2
_geom_bond_site_symmetry_1
_geom_bond_site_symmetry_2
O6 C5 1_555 1_555
O7 C6 1_555 1_555
O8 C1 1_555 1_555
O9 C6 1_555 1_555
O10 C2 1_555 1_555
C1 H1 1_555 1_555
C2 C1 1_555 1_555
H2 C2 1_555 1_555
O11 C5 1_555 1_555
C3 C1 1_555 1_555
H3 C3 1_555 1_555
O12 Eu1 1_555 1_555
O13 C3 1_555 1_555
C4 C2 1_555 1_555
H4 C4 1_555 1_555
C5 C3 1_555 1_555
C6 C4 1_555 1_555
O14 C8 1_555 1_555
O15 C9 1_555 1_555
C7 H5 1_555 1_555
O16 C9 1_555 1_555
C8 C7 1_555 1_555
H6 C8 1_555 1_555
C9 C8 1_555 1_555
Eu1 O9 1_555 1_555
O17 Eu1 1_555 1_555
O18 C4 1_555 1_555
O19 C7 1_555 1_555
C7D C7 1_555 1_555
H5D C7D 1_555 1_555
C8D C7D 1_555 1_555
O14D C8D 1_555 1_555
H6D C8D 1_555 1_555
C9D C8D 1_555 1_555
O15D C9D 1_555 1_555
O16D C9D 1_555 1_555
O19D C7D 1_555 1_555
O6F C5F 1_555 1_555
O7F C6F 1_555 1_555
O8F C1F 1_555 1_555
O9F C6F 1_555 1_555
O10F C2F 1_555 1_555
C1F H1F 1_555 1_555
C2F C1F 1_555 1_555
H2F C2F 1_555 1_555
O11F Eu1 1_555 1_555
C3F C1F 1_555 1_555
H3F C3F 1_555 1_555
O13F Eu1 1_555 1_555
C4F C2F 1_555 1_555
H4F C4F 1_555 1_555
C5F O11F 1_555 1_555
C6F C4F 1_555 1_555
O18F C4F 1_555 1_555
Eu1F O9F 1_555 1_555
O12F Eu1F 1_555 1_555
O17F Eu1F 1_555 1_555
Eu1F_2 O11 1_555 1_555
Eu1D O14D 1_555 1_555
O11_2 Eu1F 1_555 1_555
O13_2 Eu1F 1_555 1_555
O14F Eu1F 1_555 1_555
O15F Eu1F 1_555 1_555
O19F Eu1F 1_555 1_555
O13 Eu1F_2 1_555 1_555
O14 Eu1 1_555 1_555
O15 Eu1 1_555 1_555
Eu1 O18 1_555 1_555
Eu1 O19 1_555 1_555
O15D Eu1D 1_555 1_555
O19D Eu1D 1_555 1_555
C3F C5F 1_555 1_555
C3F O13F 1_555 1_555
O18F Eu1F 1_555 1_555

#END
