
#######################################################################
#
#                 Cambridge Crystallographic Data Centre
#                                CCDC 
#
#######################################################################
#
# If this CIF has been generated from an entry in the Cambridge 
# Structural Database, then it will include bibliographic, chemical, 
# crystal, experimental, refinement or atomic coordinate data resulting 
# from the CCDC's data processing and validation procedures.
#
#######################################################################

data_ILIGIT
_symmetry_cell_setting           orthorhombic
_symmetry_space_group_name_H-M   'P b c a'
_symmetry_Int_Tables_number      61
_space_group_name_Hall           '-P 2ac 2ab'
loop_
_symmetry_equiv_pos_site_id
_symmetry_equiv_pos_as_xyz
1 x,y,z
2 1/2+x,y,1/2-z
3 x,1/2-y,1/2+z
4 1/2-x,1/2+y,z
5 -x,-y,-z
6 1/2-x,-y,1/2+z
7 -x,1/2+y,1/2-z
8 1/2+x,1/2-y,-z
_cell_length_a                   10.8647(9)
_cell_length_b                   19.6810(16)
_cell_length_c                   19.9740(17)
_cell_angle_alpha                90
_cell_angle_beta                 90
_cell_angle_gamma                90
_cell_volume                     4271
loop_
_atom_site_label
_atom_site_type_symbol
_atom_site_fract_x
_atom_site_fract_y
_atom_site_fract_z
O1 O -0.2598(4) 1.3832(2) 0.8104(2)
O2 O 0.2469(4) 1.1887(2) 0.6822(2)
O3 O -0.1349(4) 1.2843(2) 0.6859(2)
O4 O 0.1977(4) 1.1017(2) 0.7469(2)
O5 O 0.1227(4) 1.2787(2) 0.8023(2)
C1 C -0.0723(5) 1.2993(3) 0.7472(3)
H1 H -0.1192 1.2796 0.7843
C2 C 0.0539(5) 1.2640(3) 0.7439(3)
H2 H 0.0986 1.2840 0.7061
O6 O -0.2166(4) 1.4570(2) 0.7296(2)
C3 C -0.0604(5) 1.3758(3) 0.7589(3)
H3 H -0.0130 1.3834 0.7999
O7 O -0.0220(4) 1.0252(2) 0.6986(2)
O8 O -0.0005(4) 1.4104(2) 0.7047(2)
C4 C 0.0444(5) 1.1882(3) 0.7306(3)
H4 H -0.0068 1.1806 0.6909
C5 C -0.1878(5) 1.4079(3) 0.7673(3)
C6 C 0.1733(5) 1.1580(3) 0.7186(3)
O9 O 0.0370(4) 1.1012(2) 0.9232(2)
O10 O 0.2575(4) 1.0561(3) 0.8817(2)
C7 C 0.0643(5) 0.9990(3) 0.9854(3)
H5 H 0.1193 0.9740 1.0155
O11 O 0.3363(4) 1.0643(3) 0.9859(2)
C8 C 0.1161(6) 1.0712(3) 0.9726(3)
H6 H 0.1160 1.0981 1.0139
C9 C 0.2479(6) 1.0640(3) 0.9445(3)
Nd1 Nd 0.06667(3) 1.034010(15) 0.816411(15)
O17 O -0.1568(4) 1.0296(2) 0.8411(2)
O18 O -0.0095(4) 1.1531(2) 0.7874(2)
O19 O 0.0598(4) 0.9658(2) 0.9213(2)
C7D C -0.0643(5) 1.0010(3) 1.0146(3)
H5D H -0.1193 1.0260 0.9845
C8D C -0.1161(6) 0.9288(3) 1.0274(3)
O9D O -0.0370(4) 0.8988(2) 1.0768(2)
H6D H -0.1160 0.9019 0.9861
C9D C -0.2479(6) 0.9360(3) 1.0555(3)
O10D O -0.2575(4) 0.9439(3) 1.1183(2)
O11D O -0.3363(4) 0.9357(3) 1.0141(2)
O19D O -0.0598(4) 1.0342(2) 1.0787(2)
O1F O 0.2598(4) 0.8832(2) 0.6896(2)
O2F O -0.2469(4) 0.6887(2) 0.8178(2)
O3F O 0.1349(4) 0.7843(2) 0.8141(2)
O4F O -0.1977(4) 0.6017(2) 0.7531(2)
O5F O -0.1227(4) 0.7787(2) 0.6977(2)
C1F C 0.0723(5) 0.7993(3) 0.7528(3)
H1F H 0.1192 0.7796 0.7157
C2F C -0.0539(5) 0.7640(3) 0.7561(3)
H2F H -0.0986 0.7840 0.7939
O6F O 0.2166(4) 0.9570(2) 0.7704(2)
C3F C 0.0604(5) 0.8758(3) 0.7411(3)
H3F H 0.0130 0.8834 0.7001
O8F O 0.0005(4) 0.9104(2) 0.7953(2)
C4F C -0.0444(5) 0.6882(3) 0.7694(3)
H4F H 0.0068 0.6806 0.8091
C5F C 0.1878(5) 0.9079(3) 0.7327(3)
C6F C -0.1733(5) 0.6580(3) 0.7814(3)
O18F O 0.0095(4) 0.6531(2) 0.7126(2)
Nd1F Nd -0.06667(3) 0.534010(15) 0.683589(15)
O7F O 0.0220(4) 0.5252(2) 0.8014(2)
O17F O 0.1568(4) 0.5296(2) 0.6589(2)
Nd1F_2 Nd -0.06667(3) 1.534010(15) 0.683589(15)
Nd1D Nd -0.06667(3) 0.965990(15) 1.183589(15)
O6_2 O -0.2166(4) 0.4570(2) 0.7296(2)
O8_2 O -0.0005(4) 0.4104(2) 0.7047(2)
O9F O -0.0370(4) 0.6012(2) 0.5768(2)
O10F O -0.2575(4) 0.5561(3) 0.6183(2)
O19F O -0.0598(4) 0.4658(2) 0.5787(2)
O12 O -0.0383(5) 0.7398(2) 0.5717(2)
O13 O 0.5720(6) 1.0607(4) 0.9300(3)
O14 O 0.1010(6) 0.8383(3) 0.9392(3)
O15 O -0.1914(6) 0.6937(4) 0.9762(3)
O16 O 0.1763(5) 0.8184(3) 0.5717(3)
loop_
_geom_bond_atom_site_label_1
_geom_bond_atom_site_label_2
_geom_bond_site_symmetry_1
_geom_bond_site_symmetry_2
O1 C5 1_555 1_555
O2 C6 1_555 1_555
O3 C1 1_555 1_555
O4 C6 1_555 1_555
O5 C2 1_555 1_555
C1 H1 1_555 1_555
C2 C1 1_555 1_555
H2 C2 1_555 1_555
O6 C5 1_555 1_555
C3 C1 1_555 1_555
H3 C3 1_555 1_555
O7 Nd1 1_555 1_555
O8 C3 1_555 1_555
C4 C2 1_555 1_555
H4 C4 1_555 1_555
C5 C3 1_555 1_555
C6 C4 1_555 1_555
O9 C8 1_555 1_555
O10 C9 1_555 1_555
C7 H5 1_555 1_555
O11 C9 1_555 1_555
C8 C7 1_555 1_555
H6 C8 1_555 1_555
C9 C8 1_555 1_555
Nd1 O4 1_555 1_555
O17 Nd1 1_555 1_555
O18 C4 1_555 1_555
O19 C7 1_555 1_555
C7D C7 1_555 1_555
H5D C7D 1_555 1_555
C8D C7D 1_555 1_555
O9D C8D 1_555 1_555
H6D C8D 1_555 1_555
C9D C8D 1_555 1_555
O10D C9D 1_555 1_555
O11D C9D 1_555 1_555
O19D C7D 1_555 1_555
O1F C5F 1_555 1_555
O2F C6F 1_555 1_555
O3F C1F 1_555 1_555
O4F C6F 1_555 1_555
O5F C2F 1_555 1_555
C1F H1F 1_555 1_555
C2F C1F 1_555 1_555
H2F C2F 1_555 1_555
O6F Nd1 1_555 1_555
C3F C1F 1_555 1_555
H3F C3F 1_555 1_555
O8F Nd1 1_555 1_555
C4F C2F 1_555 1_555
H4F C4F 1_555 1_555
C5F O6F 1_555 1_555
C6F C4F 1_555 1_555
O18F C4F 1_555 1_555
Nd1F O4F 1_555 1_555
O7F Nd1F 1_555 1_555
O17F Nd1F 1_555 1_555
Nd1F_2 O6 1_555 1_555
Nd1D O9D 1_555 1_555
O6_2 Nd1F 1_555 1_555
O8_2 Nd1F 1_555 1_555
O9F Nd1F 1_555 1_555
O10F Nd1F 1_555 1_555
O19F Nd1F 1_555 1_555
O8 Nd1F_2 1_555 1_555
O9 Nd1 1_555 1_555
O10 Nd1 1_555 1_555
Nd1 O18 1_555 1_555
Nd1 O19 1_555 1_555
O10D Nd1D 1_555 1_555
O19D Nd1D 1_555 1_555
C3F C5F 1_555 1_555
C3F O8F 1_555 1_555
O18F Nd1F 1_555 1_555

#END
