
#######################################################################
#
#                 Cambridge Crystallographic Data Centre
#                                CCDC 
#
#######################################################################
#
# If this CIF has been generated from an entry in the Cambridge 
# Structural Database, then it will include bibliographic, chemical, 
# crystal, experimental, refinement or atomic coordinate data resulting 
# from the CCDC's data processing and validation procedures.
#
#######################################################################

data_ILIGOA
_symmetry_cell_setting           monoclinic
_symmetry_space_group_name_H-M   'P 21/c'
_symmetry_Int_Tables_number      14
_space_group_name_Hall           '-P 2ybc'
loop_
_symmetry_equiv_pos_site_id
_symmetry_equiv_pos_as_xyz
1 x,y,z
2 -x,1/2+y,1/2-z
3 -x,-y,-z
4 x,1/2-y,1/2+z
_cell_length_a                   11.994(3)
_cell_length_b                   9.112(2)
_cell_length_c                   15.451(3)
_cell_angle_alpha                90
_cell_angle_beta                 116.703(15)
_cell_angle_gamma                90
_cell_volume                     1508.53
loop_
_atom_site_label
_atom_site_type_symbol
_atom_site_fract_x
_atom_site_fract_y
_atom_site_fract_z
Zn1 Zn 1.07139(3) 0.56254(3) 0.65192(2)
O1 O 0.4252(2) 0.2953(2) 0.42544(18)
O2 O 0.4421(2) 0.1247(3) 0.32883(19)
H1 H 0.3994 0.0765 0.3476
O3 O 0.92018(18) 1.0531(2) 0.72001(13)
O4 O 0.71488(19) 1.0345(2) 0.63380(17)
Cl1 Cl 1.13833(7) 0.75417(7) 0.60304(6)
N1 N 0.88347(19) 0.5258(2) 0.58142(15)
N2 N 0.68927(18) 0.4872(2) 0.47371(15)
N3 N 0.85738(19) 0.6297(2) 0.36636(15)
N4 N 0.78112(19) 0.8085(2) 0.41966(15)
C1 C 0.7959(2) 0.5617(2) 0.49417(17)
C2 C 0.8299(3) 0.4236(3) 0.6172(2)
H2 H 0.8698 0.3784 0.6774
C3 C 0.7113(3) 0.3995(3) 0.5515(2)
H3 H 0.6551 0.3353 0.5577
C4 C 0.5729(2) 0.4997(3) 0.3840(2)
H4 H 0.5841 0.5710 0.3419
H5 H 0.5076 0.5355 0.3991
C5 C 0.5320(3) 0.3541(4) 0.3304(2)
H6 H 0.4796 0.3738 0.2622
H7 H 0.6053 0.3020 0.3357
C6 C 0.4612(3) 0.2565(3) 0.3679(2)
C7 C 0.8116(2) 0.6642(2) 0.42730(17)
C8 C 0.8580(3) 0.7580(3) 0.3193(2)
H8 H 0.8857 0.7670 0.2721
C9 C 0.8123(3) 0.8684(3) 0.3520(2)
H9 H 0.8036 0.9660 0.3325
C10 C 0.7383(2) 0.8897(3) 0.4814(2)
H10 H 0.6996 0.8225 0.5085
H11 H 0.6764 0.9620 0.4428
C11 C 0.8475(3) 0.9656(3) 0.5623(2)
H12 H 0.9170 0.8975 0.5889
H13 H 0.8727 1.0478 0.5352
C12 C 0.8224(2) 1.0213(3) 0.64360(19)
Zn1A Zn 0.92861(3) 1.06254(3) 0.84808(2)
Zn1B Zn 0.92861(3) 0.43746(3) 0.34808(2)
O3A O 1.07982(18) 0.5531(2) 0.77999(13)
N3B N 1.14262(19) 0.3703(2) 0.63364(15)
loop_
_geom_bond_atom_site_label_1
_geom_bond_atom_site_label_2
_geom_bond_site_symmetry_1
_geom_bond_site_symmetry_2
Zn1 Cl1 1_555 1_555
O1 C6 1_555 1_555
O2 H1 1_555 1_555
O3 C12 1_555 1_555
O4 C12 1_555 1_555
N1 Zn1 1_555 1_555
N2 C1 1_555 1_555
N3 C7 1_555 1_555
N4 C7 1_555 1_555
C1 N1 1_555 1_555
C2 N1 1_555 1_555
H2 C2 1_555 1_555
C3 N2 1_555 1_555
H3 C3 1_555 1_555
C4 N2 1_555 1_555
H4 C4 1_555 1_555
H5 C4 1_555 1_555
C5 C4 1_555 1_555
H6 C5 1_555 1_555
H7 C5 1_555 1_555
C6 O2 1_555 1_555
C7 C1 1_555 1_555
C8 N3 1_555 1_555
H8 C8 1_555 1_555
C9 N4 1_555 1_555
H9 C9 1_555 1_555
C10 N4 1_555 1_555
H10 C10 1_555 1_555
H11 C10 1_555 1_555
C11 C10 1_555 1_555
H12 C11 1_555 1_555
H13 C11 1_555 1_555
C12 C11 1_555 1_555
Zn1A O3 1_555 1_555
Zn1B N3 1_555 1_555
O3A Zn1 1_555 1_555
N3B Zn1 1_555 1_555
C2 C3 1_555 1_555
C5 C6 1_555 1_555
C8 C9 1_555 1_555

#END
