
#######################################################################
#
#                 Cambridge Crystallographic Data Centre
#                                CCDC 
#
#######################################################################
#
# If this CIF has been generated from an entry in the Cambridge 
# Structural Database, then it will include bibliographic, chemical, 
# crystal, experimental, refinement or atomic coordinate data resulting 
# from the CCDC's data processing and validation procedures.
#
#######################################################################

data_ILIMUM
_symmetry_cell_setting           triclinic
_symmetry_space_group_name_H-M   'P -1'
_symmetry_Int_Tables_number      2
_space_group_name_Hall           '-P 1'
loop_
_symmetry_equiv_pos_site_id
_symmetry_equiv_pos_as_xyz
1 x,y,z
2 -x,-y,-z
_cell_length_a                   8.4666(3)
_cell_length_b                   10.5796(5)
_cell_length_c                   10.7969(4)
_cell_angle_alpha                89.873(4)
_cell_angle_beta                 95.912(4)
_cell_angle_gamma                93.725(2)
_cell_volume                     959.927
loop_
_atom_site_label
_atom_site_type_symbol
_atom_site_fract_x
_atom_site_fract_y
_atom_site_fract_z
C1 C 1.0113(7) 0.1987(6) 0.2057(6)
C2 C 0.9009(7) 0.3102(5) 0.2090(6)
C3 C 0.7969(7) 0.4351(5) 0.3725(6)
C4 C 0.7073(7) 0.5219(6) 0.3066(6)
H1 H 0.6947 0.517 0.2183
C5 C 0.6347(7) 0.6166(6) 0.3653(6)
C6 C 0.6536(7) 0.6228(5) 0.4967(6)
C7 C 0.7410(7) 0.5341(6) 0.5635(6)
H2 H 0.7529 0.5387 0.6518
C8 C 0.8111(7) 0.4396(5) 0.5057(5)
C9 C 0.9328(7) 0.3200(5) 0.6817(6)
C10 C 1.0369(7) 0.2044(5) 0.6991(6)
C11 C 0.5384(8) 0.7084(6) 0.2901(7)
H3 H 0.5382 0.6892 0.2014
H4 H 0.5847 0.7947 0.3071
H5 H 0.4289 0.7016 0.3125
C12 C 0.5794(8) 0.7250(6) 0.5623(7)
H6 H 0.5235 0.7789 0.5007
H7 H 0.6626 0.7764 0.6128
H8 H 0.5036 0.6865 0.6164
Cu1 Cu 0.97885(8) 0.23053(6) 0.44957(7)
Mn1 Mn 0.95632(11) 0.27981(9) 0.94778(9)
N1 N 0.8789(6) 0.3379(5) 0.3235(5)
N2 N 0.8999(6) 0.3438(5) 0.5629(5)
O1 O 1.0623(5) 0.1497(4) 0.3075(4)
O2 O 1.0445(5) 0.1645(4) 0.1017(4)
O3 O 0.8492(5) 0.3590(4) 0.1069(4)
O4 O 1.0777(5) 0.1516(4) 0.6045(4)
O5 O 1.0715(5) 0.1713(4) 0.8097(4)
O6 O 0.8926(5) 0.3739(4) 0.7755(4)
O7 O 0.7712(5) 0.0679(4) 0.4386(4)
H9 H 0.6835 0.044 0.4669
H10 H 0.8103 0.0012 0.4132
O8 O 0.7404(5) 0.1540(4) 0.9133(4)
H11 H 0.6569 0.1955 0.91
H12 H 0.7356 0.1021 0.9739
O9 O 1.1741(6) 0.4011(4) 0.9952(5)
H13 H 1.1861 0.4106 1.0749
H14 H 1.189 0.4749 0.9645
Mn1_2 Mn 0.95632(11) 0.27981(9) -0.05222(9)
O2_2 O 1.0445(5) 0.1645(4) 1.1017(4)
O3_2 O 0.8492(5) 0.3590(4) 1.1069(4)
O10 O 0.4649(6) 0.2682(5) 0.0552(5)
H15 H 0.4348 0.3281 0.0067
H16 H 0.5417 0.2999 0.1058
O11 O 0.5463(5) 0.0892(4) 0.2380(4)
H17 H 0.564 0.1522 0.2881
H18 H 0.4507 0.0923 0.2044
O12 O 0.7222(5) 0.0337(4) 0.6862(4)
H19 H 0.7697 0.1001 0.7212
H20 H 0.791 -0.0219 0.6865
O13 O 0.6850(5) -0.0468(4) 0.0700(4)
H21 H 0.5995 -0.083 0.0929
H22 H 0.7607 -0.0928 0.096
loop_
_geom_bond_atom_site_label_1
_geom_bond_atom_site_label_2
_geom_bond_site_symmetry_1
_geom_bond_site_symmetry_2
C1 C2 1_555 1_555
C2 N1 1_555 1_555
C3 C4 1_555 1_555
C4 H1 1_555 1_555
C5 C4 1_555 1_555
C6 C5 1_555 1_555
C7 C6 1_555 1_555
H2 C7 1_555 1_555
C8 C3 1_555 1_555
C9 C10 1_555 1_555
C10 O4 1_555 1_555
C11 C5 1_555 1_555
H3 C11 1_555 1_555
H4 C11 1_555 1_555
H5 C11 1_555 1_555
C12 C6 1_555 1_555
H6 C12 1_555 1_555
H7 C12 1_555 1_555
H8 C12 1_555 1_555
Cu1 N1 1_555 1_555
Mn1 O5 1_555 1_555
N1 C3 1_555 1_555
N2 C8 1_555 1_555
O1 C1 1_555 1_555
O2 C1 1_555 1_555
O3 C2 1_555 1_555
O4 Cu1 1_555 1_555
O5 C10 1_555 1_555
O6 C9 1_555 1_555
O7 Cu1 1_555 1_555
H9 O7 1_555 1_555
H10 O7 1_555 1_555
O8 Mn1 1_555 1_555
H11 O8 1_555 1_555
H12 O8 1_555 1_555
O9 Mn1 1_555 1_555
H13 O9 1_555 1_555
H14 O9 1_555 1_555
O10 H15 1_555 1_555
H16 O10 1_555 1_555
O11 H17 1_555 1_555
H18 O11 1_555 1_555
O12 H19 1_555 1_555
H20 O12 1_555 1_555
O13 H21 1_555 1_555
H22 O13 1_555 1_555
Mn1_2 O2 1_555 1_555
O2_2 Mn1 1_555 1_555
O3_2 Mn1 1_555 1_555
C7 C8 1_555 1_555
C9 N2 1_555 1_555
Cu1 N2 1_555 1_555
Cu1 O1 1_555 1_555
Mn1 O6 1_555 1_555
O3 Mn1_2 1_555 1_555

#END
