
#######################################################################
#
#                 Cambridge Crystallographic Data Centre
#                                CCDC 
#
#######################################################################
#
# If this CIF has been generated from an entry in the Cambridge 
# Structural Database, then it will include bibliographic, chemical, 
# crystal, experimental, refinement or atomic coordinate data resulting 
# from the CCDC's data processing and validation procedures.
#
#######################################################################

data_ILIXUW
_symmetry_cell_setting           monoclinic
_symmetry_space_group_name_H-M   'P 21/c'
_symmetry_Int_Tables_number      14
_space_group_name_Hall           '-P 2ybc'
loop_
_symmetry_equiv_pos_site_id
_symmetry_equiv_pos_as_xyz
1 x,y,z
2 x,1/2-y,1/2+z
3 -x,-y,-z
4 -x,1/2+y,1/2-z
_cell_length_a                   12.5610(7)
_cell_length_b                   8.5159(4)
_cell_length_c                   8.2206(4)
_cell_angle_alpha                90
_cell_angle_beta                 105.093(2)
_cell_angle_gamma                90
_cell_volume                     849.01
loop_
_atom_site_label
_atom_site_type_symbol
_atom_site_fract_x
_atom_site_fract_y
_atom_site_fract_z
Mn1 Mn 0.5000 0.5000 0.0000
N1 N 0.64413(19) 0.3291(3) 0.0772(3)
N2 N 0.9626(2) 0.0556(4) 0.4545(4)
N3 N 0.5571(3) 0.6064(4) 0.2503(4)
N4 N 0.5814(2) 0.7215(3) 0.3259(3)
N5 N 0.6070(3) 0.8309(4) 0.4122(5)
C1 C 0.7390(3) 0.3749(4) 0.1848(4)
H1 H 0.7513 0.4819 0.2039
C2 C 0.8189(2) 0.2717(4) 0.2677(5)
H2 H 0.8830 0.3093 0.3418
C3 C 0.8039(2) 0.1117(3) 0.2410(4)
C4 C 0.7078(3) 0.0646(4) 0.1262(4)
H3 H 0.6949 -0.0414 0.1013
C5 C 0.6312(2) 0.1758(3) 0.0487(4)
H4 H 0.5670 0.1415 -0.0275
C6 C 0.8858(2) -0.0032(4) 0.3375(4)
C7 C 0.8720(3) -0.1733(4) 0.2931(6)
H5 H 0.9307 -0.2322 0.3657
H6 H 0.8740 -0.1877 0.1781
H7 H 0.8025 -0.2095 0.3069
N2B N 1.0374(2) -0.0556(4) 0.5455(4)
C6B C 1.1142(2) 0.0032(4) 0.6625(4)
C3B C 1.1961(2) -0.1117(3) 0.7590(4)
C2B C 1.1811(2) -0.2717(4) 0.7323(5)
C1B C 1.2610(3) -0.3749(4) 0.8152(4)
N1B N 1.35587(19) -0.3291(3) 0.9228(3)
C5B C 1.3688(2) -0.1758(3) 0.9513(4)
C4B C 1.2922(3) -0.0646(4) 0.8738(4)
H3B H 1.3051 0.0414 0.8987
H4B H 1.4330 -0.1415 1.0275
H1B H 1.2487 -0.4819 0.7961
H2B H 1.1170 -0.3093 0.6582
C7B C 1.1280(3) 0.1733(4) 0.7069(6)
H5B H 1.0693 0.2322 0.6343
H6B H 1.1260 0.1877 0.8219
H7B H 1.1975 0.2095 0.6931
N3B N 0.4429(3) 0.3936(4) -0.2503(4)
N4B N 0.4186(2) 0.2785(3) -0.3259(3)
N5B N 0.3930(3) 0.1691(4) -0.4122(5)
N1B_2 N 0.35587(19) 0.6709(3) -0.0772(3)
N5A N 0.6070(3) 0.6691(4) -0.0878(5)
N5C N 0.3930(3) 0.3309(4) 0.0878(5)
Mn1A Mn 0.5000 1.0000 0.5000
Mn1_2 Mn 1.5000 -0.5000 1.0000
Mn1A_2 Mn 0.5000 0.0000 -0.5000
loop_
_geom_bond_atom_site_label_1
_geom_bond_atom_site_label_2
_geom_bond_site_symmetry_1
_geom_bond_site_symmetry_2
Mn1 N1 1_555 1_555
N1 C1 1_555 1_555
N2 C6 1_555 1_555
N3 Mn1 1_555 1_555
N4 N3 1_555 1_555
N5 N4 1_555 1_555
C1 H1 1_555 1_555
C2 C1 1_555 1_555
H2 C2 1_555 1_555
C3 C2 1_555 1_555
C4 C3 1_555 1_555
H3 C4 1_555 1_555
C5 N1 1_555 1_555
H4 C5 1_555 1_555
C6 C3 1_555 1_555
C7 C6 1_555 1_555
H5 C7 1_555 1_555
H6 C7 1_555 1_555
H7 C7 1_555 1_555
N2B N2 1_555 1_555
C6B N2B 1_555 1_555
C3B C6B 1_555 1_555
C2B C3B 1_555 1_555
C1B C2B 1_555 1_555
N1B C1B 1_555 1_555
C5B N1B 1_555 1_555
C4B C3B 1_555 1_555
H3B C4B 1_555 1_555
H4B C5B 1_555 1_555
H1B C1B 1_555 1_555
H2B C2B 1_555 1_555
C7B C6B 1_555 1_555
H5B C7B 1_555 1_555
H6B C7B 1_555 1_555
H7B C7B 1_555 1_555
N3B Mn1 1_555 1_555
N4B N3B 1_555 1_555
N5B N4B 1_555 1_555
N1B_2 Mn1 1_555 1_555
N5A Mn1 1_555 1_555
N5C Mn1 1_555 1_555
Mn1A N5 1_555 1_555
Mn1_2 N1B 1_555 1_555
Mn1A_2 N5B 1_555 1_555
C4 C5 1_555 1_555
C5B C4B 1_555 1_555

#END
