
#######################################################################
#
#                 Cambridge Crystallographic Data Centre
#                                CCDC 
#
#######################################################################
#
# If this CIF has been generated from an entry in the Cambridge 
# Structural Database, then it will include bibliographic, chemical, 
# crystal, experimental, refinement or atomic coordinate data resulting 
# from the CCDC's data processing and validation procedures.
#
#######################################################################

data_ILIXOR
_symmetry_cell_setting           monoclinic
_symmetry_space_group_name_H-M   'C 2/c'
_symmetry_Int_Tables_number      15
_space_group_name_Hall           '-C 2yn'
loop_
_symmetry_equiv_pos_site_id
_symmetry_equiv_pos_as_xyz
1 x,y,z
2 -x,y,1/2-z
3 1/2+x,1/2+y,z
4 1/2-x,1/2+y,1/2-z
5 -x,-y,-z
6 x,-y,1/2+z
7 1/2-x,1/2-y,-z
8 1/2+x,1/2-y,1/2+z
_cell_length_a                   25.6184(3)
_cell_length_b                   13.4358(2)
_cell_length_c                   16.0851(2)
_cell_angle_alpha                90
_cell_angle_beta                 104.7520(10)
_cell_angle_gamma                90
_cell_volume                     5354.05
loop_
_atom_site_label
_atom_site_type_symbol
_atom_site_fract_x
_atom_site_fract_y
_atom_site_fract_z
Cu1 Cu 0.481223(12) 0.72806(3) 1.16703(2)
Cu2 Cu 0.446619(12) 0.57976(2) 1.25338(2)
I1 I 0.472584(6) 0.543306(13) 1.105961(10)
I2 I 0.413516(6) 0.767492(13) 1.263974(11)
S1 S 0.45944(2) 0.84280(5) 1.05754(4)
S2 S 0.37639(2) 0.52897(5) 0.75303(4)
O1 O 0.27507(7) 0.60443(16) 0.85287(14)
O2 O 0.28838(7) 0.79462(16) 0.91199(14)
O3 O 0.43501(7) 0.84781(15) 0.84665(12)
O4 O 0.37225(9) 0.81190(15) 0.66935(13)
C1 C 0.23194(11) 0.6577(2) 0.8743(2)
H1 H 0.2334 0.6486 0.9359
H2 H 0.1967 0.6329 0.8397
C2 C 0.23864(11) 0.7650(2) 0.8554(2)
H3 H 0.2397 0.7740 0.7948
H4 H 0.2084 0.8048 0.8659
C3 C 0.30557(10) 0.8908(2) 0.90844(18)
C4 C 0.27484(12) 0.9658(3) 0.8594(2)
H5 H 0.2399 0.9517 0.8241
C5 C 0.29564(14) 1.0600(3) 0.8628(2)
H6 H 0.2749 1.1113 0.8293
C6 C 0.34602(14) 1.0814(2) 0.9139(2)
H7 H 0.3598 1.1472 0.9161
C7 C 0.37707(12) 1.0058(2) 0.9629(2)
H8 H 0.4119 1.0207 0.9984
C8 C 0.35732(10) 0.9097(2) 0.95976(17)
C9 C 0.38803(9) 0.8234(2) 1.00953(18)
H9 H 0.3841 0.7655 0.9704
H10 H 0.3707 0.8057 1.0559
C10 C 0.49197(11) 0.7912(2) 0.9789(2)
H11 H 0.5306 0.7801 1.0073
H12 H 0.4757 0.7255 0.9603
C11 C 0.48805(12) 0.8546(3) 0.9003(2)
H13 H 0.4966 0.9247 0.9175
H14 H 0.5143 0.8312 0.8689
C12 C 0.42614(13) 0.9198(2) 0.7797(2)
H15 H 0.4557 0.9163 0.7503
H16 H 0.4262 0.9873 0.8044
C13 C 0.37365(12) 0.9015(2) 0.71654(19)
H17 H 0.3448 0.8992 0.7475
H18 H 0.3658 0.9580 0.6758
C14 C 0.35498(13) 0.7256(2) 0.7058(2)
H19 H 0.3212 0.7000 0.6671
H20 H 0.3477 0.7424 0.7617
C15 C 0.39850(11) 0.6469(2) 0.71860(18)
H21 H 0.4308 0.6703 0.7623
H22 H 0.4089 0.6371 0.6640
C16 C 0.38039(10) 0.5559(2) 0.86593(17)
H23 H 0.4181 0.5474 0.9003
H24 H 0.3698 0.6259 0.8716
C17 C 0.34423(10) 0.4884(2) 0.90023(17)
C18 C 0.36302(13) 0.4001(2) 0.9420(2)
H25 H 0.3989 0.3791 0.9454
C19 C 0.33055(18) 0.3425(3) 0.9786(2)
H26 H 0.3439 0.2825 1.0074
C20 C 0.27832(18) 0.3728(3) 0.9730(3)
H27 H 0.2558 0.3328 0.9980
C21 C 0.25823(13) 0.4593(3) 0.9320(2)
H28 H 0.2222 0.4793 0.9288
C22 C 0.29129(10) 0.5174(2) 0.89521(18)
Cu1A Cu 0.518777(12) 0.72806(3) 1.33297(2)
Cu2A Cu 0.553381(12) 0.57976(2) 1.24662(2)
Cu2E Cu 0.446619(12) 0.42024(2) 0.75338(2)
I1A I 0.527416(6) 0.543306(13) 1.394039(10)
I2A I 0.586484(6) 0.767492(13) 1.236026(11)
S2E S 0.37639(2) 0.47103(5) 1.25303(4)
loop_
_geom_bond_atom_site_label_1
_geom_bond_atom_site_label_2
_geom_bond_site_symmetry_1
_geom_bond_site_symmetry_2
Cu1 I1 1_555 1_555
Cu2 I1 1_555 1_555
I1 Cu2A 1_555 1_555
I2 Cu1 1_555 1_555
S1 Cu1 1_555 1_555
S2 C15 1_555 1_555
O1 C1 1_555 1_555
O2 C2 1_555 1_555
O3 C11 1_555 1_555
O4 C13 1_555 1_555
C1 H1 1_555 1_555
H2 C1 1_555 1_555
C2 C1 1_555 1_555
H3 C2 1_555 1_555
H4 C2 1_555 1_555
C3 O2 1_555 1_555
C4 C3 1_555 1_555
H5 C4 1_555 1_555
C5 C4 1_555 1_555
H6 C5 1_555 1_555
C6 C5 1_555 1_555
H7 C6 1_555 1_555
C7 C6 1_555 1_555
H8 C7 1_555 1_555
C8 C3 1_555 1_555
C9 S1 1_555 1_555
H9 C9 1_555 1_555
H10 C9 1_555 1_555
C10 S1 1_555 1_555
H11 C10 1_555 1_555
H12 C10 1_555 1_555
C11 C10 1_555 1_555
H13 C11 1_555 1_555
H14 C11 1_555 1_555
C12 O3 1_555 1_555
H15 C12 1_555 1_555
H16 C12 1_555 1_555
C13 C12 1_555 1_555
H17 C13 1_555 1_555
H18 C13 1_555 1_555
C14 O4 1_555 1_555
H19 C14 1_555 1_555
H20 C14 1_555 1_555
C15 C14 1_555 1_555
H21 C15 1_555 1_555
H22 C15 1_555 1_555
C16 S2 1_555 1_555
H23 C16 1_555 1_555
H24 C16 1_555 1_555
C17 C16 1_555 1_555
C18 C17 1_555 1_555
H25 C18 1_555 1_555
C19 C18 1_555 1_555
H26 C19 1_555 1_555
C20 C19 1_555 1_555
H27 C20 1_555 1_555
C21 C20 1_555 1_555
H28 C21 1_555 1_555
C22 O1 1_555 1_555
Cu1A I2 1_555 1_555
Cu2A I1A 1_555 1_555
Cu2E S2 1_555 1_555
I1A Cu2 1_555 1_555
I2A Cu1 1_555 1_555
S2E Cu2 1_555 1_555
Cu2 I2 1_555 1_555
C7 C8 1_555 1_555
C8 C9 1_555 1_555
C17 C22 1_555 1_555
C21 C22 1_555 1_555
Cu1A I1A 1_555 1_555
Cu1A I2A 1_555 1_555
Cu2A I2A 1_555 1_555

#END
