
#######################################################################
#
#                 Cambridge Crystallographic Data Centre
#                                CCDC 
#
#######################################################################
#
# If this CIF has been generated from an entry in the Cambridge 
# Structural Database, then it will include bibliographic, chemical, 
# crystal, experimental, refinement or atomic coordinate data resulting 
# from the CCDC's data processing and validation procedures.
#
#######################################################################

data_ILIZOT
_symmetry_cell_setting           monoclinic
_symmetry_space_group_name_H-M   'P 21/c'
_symmetry_Int_Tables_number      14
_space_group_name_Hall           '-P 2ybc'
loop_
_symmetry_equiv_pos_site_id
_symmetry_equiv_pos_as_xyz
1 x,y,z
2 -x,1/2+y,1/2-z
3 -x,-y,-z
4 x,1/2-y,1/2+z
_cell_length_a                   8.7598(19)
_cell_length_b                   20.608(4)
_cell_length_c                   20.080(4)
_cell_angle_alpha                90
_cell_angle_beta                 98.586(4)
_cell_angle_gamma                90
_cell_volume                     3584.26
loop_
_atom_site_label
_atom_site_type_symbol
_atom_site_fract_x
_atom_site_fract_y
_atom_site_fract_z
Zn1 Zn -0.87359(3) 0.360138(13) 0.193026(15)
Zn2 Zn -1.10180(3) 0.142976(14) -0.173844(15)
N1 N -1.2309(3) 0.18779(11) -0.05038(12)
N2 N -1.2492(3) 0.15715(12) -0.10790(11)
N3 N -1.3834(3) 0.12139(13) -0.11684(12)
N4 N -1.4522(3) 0.13343(13) -0.06361(13)
N5 N -0.7576(3) 0.32619(11) 0.06452(12)
N6 N -0.7332(3) 0.35352(12) 0.12418(12)
N7 N -0.5976(3) 0.38806(13) 0.13261(12)
N8 N -0.5342(3) 0.37962(13) 0.07760(13)
N9 N -1.1865(3) 0.05459(11) -0.22022(12)
N10 N -0.9672(3) 0.07047(12) -0.11278(12)
N11 N -0.7883(2) 0.44321(10) 0.24772(11)
N12 N -1.0062(3) 0.43907(11) 0.13880(12)
C1 C -1.2981(3) 0.25355(13) 0.14640(13)
C2 C -1.2771(3) 0.23094(13) 0.08437(14)
H1 H -1.1835 0.2395 0.0696
C3 C -1.3864(3) 0.19622(13) 0.04244(14)
C4 C -1.5290(3) 0.18354(14) 0.06533(16)
H2 H -1.6046 0.1594 0.0388
C5 C -1.5552(4) 0.20679(15) 0.12623(16)
H3 H -1.6501 0.1991 0.1402
C6 C -1.4441(3) 0.24158(15) 0.16770(15)
H4 H -1.4642 0.2570 0.2090
C7 C -1.1786(4) 0.29024(13) 0.19083(15)
C8 C -1.3614(3) 0.17295(12) -0.02304(13)
C9 C -0.6885(3) 0.26036(12) -0.13371(13)
C10 C -0.7124(3) 0.28260(13) -0.07147(14)
H5 H -0.8040 0.2714 -0.0562
C11 C -0.6076(3) 0.32078(13) -0.03025(14)
C12 C -0.4679(3) 0.33800(15) -0.05432(15)
H6 H -0.3953 0.3642 -0.0285
C13 C -0.4419(4) 0.31574(15) -0.11533(16)
H7 H -0.3498 0.3266 -0.1303
C14 C -0.5474(3) 0.27742(15) -0.15604(15)
H8 H -0.5261 0.2630 -0.1976
C15 C -0.8006(4) 0.21862(14) -0.17643(15)
C16 C -0.6305(3) 0.34256(13) 0.03550(14)
C17 C -1.2960(3) 0.04795(16) -0.27268(17)
H9 H -1.3384 0.0848 -0.2949
C18 C -1.3498(4) -0.01325(18) -0.2957(2)
H10 H -1.4279 -0.0166 -0.3324
C19 C -1.2886(4) -0.06749(17) -0.2647(2)
H11 H -1.3213 -0.1081 -0.2812
C20 C -1.1748(4) -0.06228(15) -0.2071(2)
C21 C -1.1281(3) 0.00052(14) -0.18749(17)
C22 C -1.0112(3) 0.00930(14) -0.12914(16)
C23 C -1.1020(4) -0.11675(16) -0.1669(3)
H12 H -1.1298 -0.1589 -0.1799
C24 C -0.9972(5) -0.10745(17) -0.1121(3)
H13 H -0.9560 -0.1432 -0.0875
C25 C -0.9480(4) -0.04467(16) -0.0910(2)
C26 C -0.6785(3) 0.44399(14) 0.30083(14)
H14 H -0.6409 0.4047 0.3193
C27 C -0.6170(3) 0.50177(15) 0.33022(16)
H15 H -0.5392 0.5006 0.3672
C28 C -0.6726(3) 0.55987(14) 0.30410(16)
H16 H -0.6354 0.5986 0.3241
C29 C -0.7864(3) 0.56075(13) 0.24683(15)
C30 C -0.8403(3) 0.50070(12) 0.22019(14)
C31 C -0.9564(3) 0.49839(12) 0.16075(14)
C32 C -0.8470(3) 0.61909(14) 0.21479(17)
H17 H -0.8136 0.6590 0.2330
C33 C -0.9533(4) 0.61691(14) 0.15776(17)
H18 H -0.9903 0.6554 0.1372
C34 C -1.0085(3) 0.55643(14) 0.12927(15)
C35 C -0.8348(4) -0.0311(2) -0.0348(2)
H19 H -0.7911 -0.0650 -0.0078
C36 C -0.7897(5) 0.0304(2) -0.0200(2)
H20 H -0.7137 0.0391 0.0164
C37 C -0.8587(4) 0.08079(19) -0.06004(16)
H21 H -0.8277 0.1232 -0.0495
C38 C -1.1177(4) 0.55062(16) 0.07029(17)
H22 H -1.1550 0.5875 0.0466
C39 C -1.1678(4) 0.49142(17) 0.04845(18)
H23 H -1.2399 0.4876 0.0097
C40 C -1.1119(4) 0.43575(16) 0.08378(16)
H24 H -1.1494 0.3954 0.0685
O2 O -1.2055(3) 0.30659(11) 0.24635(11)
O3 O -1.0562(2) 0.30243(10) 0.16781(11)
O4 O -0.7718(3) 0.20026(10) -0.23162(10)
O5 O -0.9201(2) 0.20320(11) -0.15250(11)
Zn1C Zn -0.87359(3) 0.139862(13) -0.306974(15)
Zn2C Zn -1.10180(3) 0.357024(14) 0.326156(15)
O2C O -1.2055(3) 0.19341(11) -0.25365(11)
O4C O -0.7718(3) 0.29974(10) 0.26838(10)
H25 H 0.0124(13) 0.1908(11) 0.5136(7)
H26 H -0.093(3) 0.2251(5) 0.4708(13)
O1 O -0.0671(3) 0.18594(12) 0.48290(13)
loop_
_geom_bond_atom_site_label_1
_geom_bond_atom_site_label_2
_geom_bond_site_symmetry_1
_geom_bond_site_symmetry_2
Zn1 N6 1_555 1_555
Zn2 N2 1_555 1_555
N1 N2 1_555 1_555
N2 N3 1_555 1_555
N3 N4 1_555 1_555
N4 C8 1_555 1_555
N5 N6 1_555 1_555
N6 N7 1_555 1_555
N7 N8 1_555 1_555
N8 C16 1_555 1_555
N9 Zn2 1_555 1_555
N10 Zn2 1_555 1_555
N11 Zn1 1_555 1_555
N12 Zn1 1_555 1_555
C1 C2 1_555 1_555
C2 H1 1_555 1_555
C3 C2 1_555 1_555
C4 C3 1_555 1_555
H2 C4 1_555 1_555
C5 C4 1_555 1_555
H3 C5 1_555 1_555
C6 C1 1_555 1_555
H4 C6 1_555 1_555
C7 C1 1_555 1_555
C8 N1 1_555 1_555
C9 C10 1_555 1_555
C10 H5 1_555 1_555
C11 C10 1_555 1_555
C12 C11 1_555 1_555
H6 C12 1_555 1_555
C13 C12 1_555 1_555
H7 C13 1_555 1_555
C14 C9 1_555 1_555
H8 C14 1_555 1_555
C15 C9 1_555 1_555
C16 N5 1_555 1_555
C17 N9 1_555 1_555
H9 C17 1_555 1_555
C18 C17 1_555 1_555
H10 C18 1_555 1_555
C19 C18 1_555 1_555
H11 C19 1_555 1_555
C20 C19 1_555 1_555
C21 N9 1_555 1_555
C22 N10 1_555 1_555
C23 C20 1_555 1_555
H12 C23 1_555 1_555
C24 C23 1_555 1_555
H13 C24 1_555 1_555
C25 C22 1_555 1_555
C26 N11 1_555 1_555
H14 C26 1_555 1_555
C27 C26 1_555 1_555
H15 C27 1_555 1_555
C28 C27 1_555 1_555
H16 C28 1_555 1_555
C29 C28 1_555 1_555
C30 N11 1_555 1_555
C31 N12 1_555 1_555
C32 C29 1_555 1_555
H17 C32 1_555 1_555
C33 C32 1_555 1_555
H18 C33 1_555 1_555
C34 C31 1_555 1_555
C35 C25 1_555 1_555
H19 C35 1_555 1_555
C36 C35 1_555 1_555
H20 C36 1_555 1_555
C37 N10 1_555 1_555
H21 C37 1_555 1_555
C38 C34 1_555 1_555
H22 C38 1_555 1_555
C39 C38 1_555 1_555
H23 C39 1_555 1_555
C40 N12 1_555 1_555
H24 C40 1_555 1_555
H25 O1 1_555 1_555
H26 O1 1_555 1_555
O2 C7 1_555 1_555
O3 Zn1 1_555 1_555
O4 C15 1_555 1_555
O5 Zn2 1_555 1_555
Zn1C O4 1_555 1_555
Zn2C O2 1_555 1_555
O2C Zn2 1_555 1_555
O4C Zn1 1_555 1_555
C3 C8 1_555 1_555
C5 C6 1_555 1_555
C7 O3 1_555 1_555
C11 C16 1_555 1_555
C13 C14 1_555 1_555
C15 O5 1_555 1_555
C20 C21 1_555 1_555
C21 C22 1_555 1_555
C24 C25 1_555 1_555
C29 C30 1_555 1_555
C30 C31 1_555 1_555
C33 C34 1_555 1_555
C36 C37 1_555 1_555
C39 C40 1_555 1_555

#END
