
#######################################################################
#
#                 Cambridge Crystallographic Data Centre
#                                CCDC 
#
#######################################################################
#
# If this CIF has been generated from an entry in the Cambridge 
# Structural Database, then it will include bibliographic, chemical, 
# crystal, experimental, refinement or atomic coordinate data resulting 
# from the CCDC's data processing and validation procedures.
#
#######################################################################

data_ILOHUN
_symmetry_cell_setting           monoclinic
_symmetry_space_group_name_H-M   'C 2/c'
_symmetry_Int_Tables_number      15
_space_group_name_Hall           '-C 2yn'
loop_
_symmetry_equiv_pos_site_id
_symmetry_equiv_pos_as_xyz
1 x,y,z
2 -x,y,1/2-z
3 1/2+x,1/2+y,z
4 1/2-x,1/2+y,1/2-z
5 -x,-y,-z
6 x,-y,1/2+z
7 1/2-x,1/2-y,-z
8 1/2+x,1/2-y,1/2+z
_cell_length_a                   18.772(4)
_cell_length_b                   17.624(4)
_cell_length_c                   16.807(3)
_cell_angle_alpha                90
_cell_angle_beta                 101.33(3)
_cell_angle_gamma                90
_cell_volume                     5452.03
loop_
_atom_site_label
_atom_site_type_symbol
_atom_site_fract_x
_atom_site_fract_y
_atom_site_fract_z
Ag1 Ag 0.378661(18) 0.20874(2) 0.25655(2)
Ag2 Ag 0.161745(17) 0.20777(2) 0.52864(2)
N1 N 0.47246(18) 0.2251(2) 0.3507(2)
N2 N 0.25672(17) 0.22621(18) 0.62254(19)
O1 O 0.37964(16) 0.06356(17) 0.25260(18)
O2 O 0.20060(15) 0.07232(17) 0.51940(18)
O3 O 0.41341(15) -0.01839(17) 0.35429(19)
O4 O 0.35324(15) 0.10334(15) 0.46381(16)
O5 O 0.33877(15) -0.01014(15) 0.51915(17)
H1 H 0.3681 0.0068 0.5577
O6 O 0.11289(15) -0.01363(17) 0.48567(19)
C1 C 0.5010(2) 0.2935(2) 0.3714(3)
H2 H 0.4783 0.3358 0.3445
C2 C 0.5624(2) 0.3046(2) 0.4308(3)
H3 H 0.5802 0.3534 0.4427
C3 C 0.5973(2) 0.2435(2) 0.4724(2)
C4 C 0.5675(2) 0.1727(2) 0.4504(3)
H4 H 0.5891 0.1295 0.4764
C5 C 0.5068(2) 0.1658(2) 0.3908(3)
H5 H 0.4884 0.1174 0.3776
C6 C 0.66293(19) 0.2532(2) 0.5377(2)
C7 C 0.6933(2) 0.3246(2) 0.5578(2)
H6 H 0.6724 0.3674 0.5305
C8 C 0.7537(2) 0.3318(2) 0.6176(2)
H7 H 0.7729 0.3801 0.6296
C9 C 0.7577(2) 0.2039(2) 0.6412(3)
H8 H 0.7795 0.1620 0.6699
C10 C 0.6971(2) 0.1923(2) 0.5816(3)
H9 H 0.6790 0.1435 0.5708
C11 C 0.3675(2) 0.0193(2) 0.3077(2)
C12 C 0.2886(2) 0.0101(2) 0.3156(2)
C13 C 0.26751(19) 0.0168(2) 0.3902(2)
C14 C 0.1945(2) 0.0059(2) 0.3967(2)
C15 C 0.1446(2) -0.0154(2) 0.3267(3)
H10 H 0.0965 -0.0248 0.3300
C16 C 0.1657(2) -0.0226(2) 0.2531(3)
H11 H 0.1319 -0.0369 0.2074
C17 C 0.2370(2) -0.0087(2) 0.2467(3)
H12 H 0.2506 -0.0119 0.1964
C18 C 0.32394(19) 0.0421(2) 0.4621(2)
C19 C 0.1678(2) 0.0226(2) 0.4740(2)
C20 C 0.3016(2) 0.1692(2) 0.6505(2)
H13 H 0.2926 0.1216 0.6269
C21 C 0.3604(2) 0.1783(2) 0.7128(2)
H14 H 0.3895 0.1367 0.7313
C22 C 0.37701(18) 0.2493(2) 0.7487(2)
C23 C 0.3304(2) 0.3084(2) 0.7179(2)
H15 H 0.3388 0.3571 0.7389
C24 C 0.2717(2) 0.2944(2) 0.6559(3)
H16 H 0.2410 0.3346 0.6366
C25 C 0.44045(19) 0.2605(2) 0.8159(2)
C26 C 0.4768(2) 0.1991(2) 0.8562(2)
H17 H 0.4606 0.1501 0.8425
C27 C 0.5372(2) 0.2106(2) 0.9167(2)
H18 H 0.5611 0.1684 0.9425
C28 C 0.5264(2) 0.3393(2) 0.9021(3)
H19 H 0.5426 0.3878 0.9185
C29 C 0.4667(2) 0.3325(2) 0.8410(2)
H20 H 0.4438 0.3756 0.8162
N3 N 0.78690(17) 0.27250(19) 0.6600(2)
N4 N 0.56276(17) 0.27954(19) 0.9397(2)
Ag1G Ag 0.878661(18) 0.29126(2) 0.75655(2)
Ag2G Ag 0.661745(17) 0.29223(2) 1.02864(2)
N3G N 0.28690(17) 0.22750(19) 0.1600(2)
N4G N 0.06276(17) 0.22046(19) 0.4397(2)
O7 O 0.44026(18) 0.01964(19) 0.64436(19)
H23 H 0.432(3) -0.009(3) 0.679(3)
H24 H 0.487(4) 0.017(3) 0.647(4)
O8 O 0.0314(2) 0.0282(3) 0.6022(2)
H21 H 0.058(3) 0.021(3) 0.571(4)
H22 H -0.009(3) 0.025(3) 0.575(3)
loop_
_geom_bond_atom_site_label_1
_geom_bond_atom_site_label_2
_geom_bond_site_symmetry_1
_geom_bond_site_symmetry_2
Ag1 N1 1_555 1_555
Ag2 N2 1_555 1_555
N1 C1 1_555 1_555
N2 C20 1_555 1_555
O1 Ag1 1_555 1_555
O2 Ag2 1_555 1_555
O3 C11 1_555 1_555
O4 C18 1_555 1_555
O5 H1 1_555 1_555
O6 C19 1_555 1_555
C1 H2 1_555 1_555
C2 C1 1_555 1_555
H3 C2 1_555 1_555
C3 C2 1_555 1_555
C4 C3 1_555 1_555
H4 C4 1_555 1_555
C5 N1 1_555 1_555
H5 C5 1_555 1_555
C6 C3 1_555 1_555
C7 C6 1_555 1_555
H6 C7 1_555 1_555
C8 C7 1_555 1_555
H7 C8 1_555 1_555
C9 H8 1_555 1_555
C10 C6 1_555 1_555
H9 C10 1_555 1_555
C11 O1 1_555 1_555
C12 C11 1_555 1_555
C13 C12 1_555 1_555
C14 C13 1_555 1_555
C15 C14 1_555 1_555
H10 C15 1_555 1_555
C16 C15 1_555 1_555
H11 C16 1_555 1_555
C17 C12 1_555 1_555
H12 C17 1_555 1_555
C18 O5 1_555 1_555
C19 O2 1_555 1_555
C20 H13 1_555 1_555
C21 C20 1_555 1_555
H14 C21 1_555 1_555
C22 C21 1_555 1_555
C23 C22 1_555 1_555
H15 C23 1_555 1_555
C24 N2 1_555 1_555
H16 C24 1_555 1_555
C25 C22 1_555 1_555
C26 C25 1_555 1_555
H17 C26 1_555 1_555
C27 C26 1_555 1_555
H18 C27 1_555 1_555
C28 H19 1_555 1_555
C29 C25 1_555 1_555
H20 C29 1_555 1_555
N3 C8 1_555 1_555
N4 C27 1_555 1_555
O7 H23 1_555 1_555
O8 H21 1_555 1_555
H22 O8 1_555 1_555
H24 O7 1_555 1_555
Ag1G N3 1_555 1_555
Ag2G N4 1_555 1_555
N3G Ag1 1_555 1_555
N4G Ag2 1_555 1_555
C4 C5 1_555 1_555
C9 C10 1_555 1_555
C9 N3 1_555 1_555
C13 C18 1_555 1_555
C14 C19 1_555 1_555
C16 C17 1_555 1_555
C23 C24 1_555 1_555
C28 C29 1_555 1_555
C28 N4 1_555 1_555

#END
