
#######################################################################
#
#                 Cambridge Crystallographic Data Centre
#                                CCDC 
#
#######################################################################
#
# If this CIF has been generated from an entry in the Cambridge 
# Structural Database, then it will include bibliographic, chemical, 
# crystal, experimental, refinement or atomic coordinate data resulting 
# from the CCDC's data processing and validation procedures.
#
#######################################################################

data_ILOJUP
_symmetry_cell_setting           monoclinic
_symmetry_space_group_name_H-M   'P 21/c'
_symmetry_Int_Tables_number      14
_space_group_name_Hall           '-P 2ybc'
loop_
_symmetry_equiv_pos_site_id
_symmetry_equiv_pos_as_xyz
1 x,y,z
2 -x,1/2+y,1/2-z
3 -x,-y,-z
4 x,1/2-y,1/2+z
_cell_length_a                   10.1765(11)
_cell_length_b                   16.4109(18)
_cell_length_c                   17.3490(15)
_cell_angle_alpha                90
_cell_angle_beta                 119.258(5)
_cell_angle_gamma                90
_cell_volume                     2527.75
loop_
_atom_site_label
_atom_site_type_symbol
_atom_site_fract_x
_atom_site_fract_y
_atom_site_fract_z
Cu1 Cu 0.76930(4) 0.82415(2) 0.27015(3)
O1 O 0.4475(3) 0.76088(14) 0.2807(2)
O2 O 0.5822(2) 0.86033(14) 0.26654(16)
O3 O -0.0893(3) 0.96731(15) 0.2756(2)
O4 O -0.0389(2) 0.83695(13) 0.26908(17)
O5 O 0.4053(3) 1.13245(13) 0.20045(18)
O6 O 0.2379(3) 1.17981(13) 0.23752(18)
N1 N 0.6587(3) 0.82376(16) 0.1393(2)
N2 N 0.6102(5) 0.7970(2) 0.0041(3)
N3 N 0.4932(4) 0.8384(2) 0.0019(2)
N4 N 0.8778(3) 0.82103(16) 0.4005(2)
N5 N 0.9316(4) 0.8023(2) 0.5386(3)
N6 N 1.0465(3) 0.84309(19) 0.5373(2)
C1 C 0.4684(3) 0.83325(18) 0.2689(2)
C2 C 0.3523(3) 0.89577(17) 0.2577(2)
C3 C 0.2266(3) 0.87513(18) 0.2653(2)
H1 H 0.2099 0.8210 0.2738
C4 C 0.1256(3) 0.93477(18) 0.2604(2)
C5 C 0.1517(3) 1.01569(18) 0.2484(2)
H2 H 0.0870 1.0561 0.2476
C6 C 0.2735(3) 1.03648(18) 0.2375(2)
C7 C 0.3734(3) 0.97605(18) 0.2423(2)
H3 H 0.4552 0.9899 0.2350
C8 C -0.0111(3) 0.9131(2) 0.2689(2)
C9 C 0.3028(4) 1.12349(19) 0.2252(2)
C10 C 0.8318(4) 0.7899(2) 0.4560(3)
H4 H 0.7407 0.7631 0.4375
C11 C 1.0111(4) 0.8532(2) 0.4537(3)
H5 H 1.0716 0.8794 0.4350
C12 C 1.1828(5) 0.8701(3) 0.6177(3)
H6 H 1.2326 0.8238 0.6555
H7 H 1.1559 0.9084 0.6503
C13 C 1.2861(4) 0.9102(3) 0.5901(3)
C14 C 1.2750(5) 0.9907(3) 0.5704(4)
H8 H 1.2101 1.0230 0.5807
C15 C 1.3569(5) 1.0260(3) 0.5355(4)
H9 H 1.3457 1.0814 0.5226
C16 C 1.4560(4) 0.9810(2) 0.5189(2)
C17 C 1.4699(5) 0.8996(3) 0.5419(3)
H10 H 1.5369 0.8673 0.5336
C18 C 1.3872(5) 0.8652(3) 0.5769(3)
H11 H 1.4001 0.8102 0.5920
C19 C 0.0514(4) 0.9799(2) -0.0124(3)
C20 C 0.1539(6) 1.0219(3) -0.0263(3)
H12 H 0.1599 1.0781 -0.0188
C21 C 0.2485(7) 0.9844(3) -0.0508(4)
H13 H 0.3155 1.0159 -0.0600
C22 C 0.2464(5) 0.9024(3) -0.0619(3)
C23 C 0.1439(6) 0.8599(3) -0.0506(5)
H14 H 0.1373 0.8038 -0.0595
C24 C 0.0488(6) 0.8972(3) -0.0264(4)
H15 H -0.0200 0.8653 -0.0191
C25 C 0.3581(6) 0.8610(4) -0.0819(3)
H16 H 0.3132 0.8125 -0.1171
H17 H 0.3862 0.8974 -0.1155
C26 C 0.5249(4) 0.8534(2) 0.0841(2)
H18 H 0.4622 0.8808 0.1005
C27 C 0.7070(4) 0.7894(2) 0.0871(3)
H19 H 0.7993 0.7632 0.1082
Cu1_2 Cu 1.76930(4) 0.82415(2) 0.27015(3)
Cu1_3 Cu -0.23070(4) 0.82415(2) 0.27015(3)
Cu1A Cu 0.23070(4) 1.32415(2) 0.22985(3)
Cu1B Cu -0.76930(4) 1.17585(2) -0.27015(3)
Cu1B_2 Cu 2.23070(4) 1.17585(2) 0.72985(3)
Cu1A_2 Cu 1.23070(4) 1.32415(2) 0.22985(3)
O1_2 O 1.4475(3) 0.76088(14) 0.2807(2)
O2_2 O 1.5822(2) 0.86033(14) 0.26654(16)
O3_2 O 0.9107(3) 0.96731(15) 0.2756(2)
O3_3 O 1.9107(3) 0.96731(15) 0.2756(2)
O4_2 O 0.9611(2) 0.83695(13) 0.26908(17)
O4_3 O 1.9611(2) 0.83695(13) 0.26908(17)
O5_2 O 1.4053(3) 1.13245(13) 0.20045(18)
O6_2 O 1.2379(3) 1.17981(13) 0.23752(18)
O6A O 0.7621(3) 0.67981(13) 0.26248(18)
O6A_2 O 1.7621(3) 0.67981(13) 0.26248(18)
N1B N -0.6587(3) 1.17624(16) -0.1393(2)
N1_2 N 1.6587(3) 0.82376(16) 0.1393(2)
N2B N -0.6102(5) 1.2030(2) -0.0041(3)
N3B N -0.4932(4) 1.1616(2) -0.0019(2)
N4B N 2.1222(3) 1.17897(16) 0.5995(2)
N4_2 N 1.8778(3) 0.82103(16) 0.4005(2)
N5B N 2.0684(4) 1.1977(2) 0.4614(3)
N6B N 1.9535(3) 1.15691(19) 0.4627(2)
C1_2 C 1.4684(3) 0.83325(18) 0.2689(2)
C2_2 C 1.3523(3) 0.89577(17) 0.2577(2)
C3_2 C 1.2266(3) 0.87513(18) 0.2653(2)
H1_2 H 1.2099 0.8210 0.2738
C4_2 C 1.1256(3) 0.93477(18) 0.2604(2)
C5_2 C 1.1517(3) 1.01569(18) 0.2484(2)
H2_2 H 1.0870 1.0561 0.2476
C6_2 C 1.2735(3) 1.03648(18) 0.2375(2)
C7_2 C 1.3734(3) 0.97605(18) 0.2423(2)
H3_2 H 1.4552 0.9899 0.2350
C8_2 C 0.9889(3) 0.9131(2) 0.2689(2)
C9_2 C 1.3028(4) 1.12349(19) 0.2252(2)
C10B C 2.1682(4) 1.2101(2) 0.5440(3)
H4B H 2.2593 1.2369 0.5625
C11B C 1.9889(4) 1.1468(2) 0.5463(3)
H5B H 1.9284 1.1206 0.5650
C12B C 1.8172(5) 1.1299(3) 0.3823(3)
H6B H 1.7674 1.1762 0.3445
H7B H 1.8441 1.0916 0.3497
C13B C 1.7139(4) 1.0898(3) 0.4099(3)
C14B C 1.7250(5) 1.0093(3) 0.4296(4)
H8B H 1.7899 0.9770 0.4193
C15B C 1.6431(5) 0.9740(3) 0.4645(4)
H9B H 1.6543 0.9186 0.4774
C16B C 1.5440(4) 1.0190(2) 0.4811(2)
C17B C 1.5301(5) 1.1004(3) 0.4581(3)
H10B H 1.4631 1.1327 0.4664
C18B C 1.6128(5) 1.1348(3) 0.4231(3)
H11B H 1.5999 1.1898 0.4080
C19B C -0.0514(4) 1.0201(2) 0.0124(3)
C20B C -0.1539(6) 0.9781(3) 0.0263(3)
H12B H -0.1599 0.9219 0.0188
C21B C -0.2485(7) 1.0156(3) 0.0508(4)
H13B H -0.3155 0.9841 0.0600
C22B C -0.2464(5) 1.0976(3) 0.0619(3)
C23B C -0.1439(6) 1.1401(3) 0.0506(5)
H14B H -0.1373 1.1962 0.0595
C24B C -0.0488(6) 1.1028(3) 0.0264(4)
H15B H 0.0200 1.1347 0.0191
C25B C -0.3581(6) 1.1390(4) 0.0819(3)
H16B H -0.3132 1.1875 0.1171
H17B H -0.3862 1.1026 0.1155
C26B C -0.5249(4) 1.1466(2) -0.0841(2)
H18B H -0.4622 1.1192 -0.1005
C27B C -0.7070(4) 1.2106(2) -0.0871(3)
H19B H -0.7993 1.2368 -0.1082
O7 O 0.058(2) 0.8159(13) 0.7421(13)
loop_
_geom_bond_atom_site_label_1
_geom_bond_atom_site_label_2
_geom_bond_site_symmetry_1
_geom_bond_site_symmetry_2
Cu1 O2 1_555 1_555
O1 C1 1_555 1_555
O2 C1 1_555 1_555
O3 C8 1_555 1_555
O4 C8 1_555 1_555
O5 C9 1_555 1_555
O6 C9 1_555 1_555
N1 Cu1 1_555 1_555
N2 N3 1_555 1_555
N3 C25 1_555 1_555
N4 Cu1 1_555 1_555
N5 N6 1_555 1_555
N6 C11 1_555 1_555
C1 C2 1_555 1_555
C2 C3 1_555 1_555
C3 H1 1_555 1_555
C4 C3 1_555 1_555
C5 C4 1_555 1_555
H2 C5 1_555 1_555
C6 C5 1_555 1_555
C7 C2 1_555 1_555
H3 C7 1_555 1_555
C8 C4 1_555 1_555
C9 C6 1_555 1_555
C10 N4 1_555 1_555
H4 C10 1_555 1_555
C11 N4 1_555 1_555
H5 C11 1_555 1_555
C12 N6 1_555 1_555
H6 C12 1_555 1_555
H7 C12 1_555 1_555
C13 C12 1_555 1_555
C14 C13 1_555 1_555
H8 C14 1_555 1_555
C15 C14 1_555 1_555
H9 C15 1_555 1_555
C16 C15 1_555 1_555
C17 C16 1_555 1_555
H10 C17 1_555 1_555
C18 C13 1_555 1_555
H11 C18 1_555 1_555
C19 C20 1_555 1_555
C20 H12 1_555 1_555
C21 C20 1_555 1_555
H13 C21 1_555 1_555
C22 C21 1_555 1_555
C23 C22 1_555 1_555
H14 C23 1_555 1_555
C24 C19 1_555 1_555
H15 C24 1_555 1_555
C25 C22 1_555 1_555
H16 C25 1_555 1_555
H17 C25 1_555 1_555
C26 N1 1_555 1_555
H18 C26 1_555 1_555
C27 N1 1_555 1_555
H19 C27 1_555 1_555
Cu1_2 O2_2 1_555 1_555
Cu1_3 O3 1_555 1_555
Cu1A O6 1_555 1_555
Cu1B N1B 1_555 1_555
Cu1B_2 N4B 1_555 1_555
Cu1A_2 O6_2 1_555 1_555
O1_2 C1_2 1_555 1_555
O2_2 C1_2 1_555 1_555
O3_2 Cu1 1_555 1_555
O3_3 Cu1_2 1_555 1_555
O4_2 Cu1 1_555 1_555
O4_3 Cu1_2 1_555 1_555
O5_2 C9_2 1_555 1_555
O6_2 C9_2 1_555 1_555
O6A Cu1 1_555 1_555
O6A_2 Cu1_2 1_555 1_555
N1B C26B 1_555 1_555
N1_2 Cu1_2 1_555 1_555
N2B N3B 1_555 1_555
N3B C25B 1_555 1_555
N4B C10B 1_555 1_555
N4_2 Cu1_2 1_555 1_555
N5B N6B 1_555 1_555
N6B C11B 1_555 1_555
C1_2 C2_2 1_555 1_555
C2_2 C3_2 1_555 1_555
C3_2 H1_2 1_555 1_555
C4_2 C3_2 1_555 1_555
C5_2 C4_2 1_555 1_555
H2_2 C5_2 1_555 1_555
C6_2 C5_2 1_555 1_555
C7_2 C2_2 1_555 1_555
H3_2 C7_2 1_555 1_555
C8_2 O3_2 1_555 1_555
C9_2 C6_2 1_555 1_555
C10B N5B 1_555 1_555
H4B C10B 1_555 1_555
C11B N4B 1_555 1_555
H5B C11B 1_555 1_555
C12B N6B 1_555 1_555
H6B C12B 1_555 1_555
H7B C12B 1_555 1_555
C13B C12B 1_555 1_555
C14B C13B 1_555 1_555
H8B C14B 1_555 1_555
C15B C14B 1_555 1_555
H9B C15B 1_555 1_555
C16B C16 1_555 1_555
C17B C16B 1_555 1_555
H10B C17B 1_555 1_555
C18B C13B 1_555 1_555
H11B C18B 1_555 1_555
C19B C19 1_555 1_555
C20B C19B 1_555 1_555
H12B C20B 1_555 1_555
C21B C20B 1_555 1_555
H13B C21B 1_555 1_555
C22B C21B 1_555 1_555
C23B C22B 1_555 1_555
H14B C23B 1_555 1_555
C24B C19B 1_555 1_555
H15B C24B 1_555 1_555
C25B C22B 1_555 1_555
H16B C25B 1_555 1_555
H17B C25B 1_555 1_555
C26B N3B 1_555 1_555
H18B C26B 1_555 1_555
C27B N1B 1_555 1_555
H19B C27B 1_555 1_555
O4 Cu1_3 1_555 1_555
N2 C27 1_555 1_555
N3 C26 1_555 1_555
N5 C10 1_555 1_555
C6 C7 1_555 1_555
C17 C18 1_555 1_555
C23 C24 1_555 1_555
O4_2 C8_2 1_555 1_555
N2B C27B 1_555 1_555
C4_2 C8_2 1_555 1_555
C6_2 C7_2 1_555 1_555
C15B C16B 1_555 1_555
C17B C18B 1_555 1_555
C23B C24B 1_555 1_555

#END
