
#######################################################################
#
#                 Cambridge Crystallographic Data Centre
#                                CCDC 
#
#######################################################################
#
# If this CIF has been generated from an entry in the Cambridge 
# Structural Database, then it will include bibliographic, chemical, 
# crystal, experimental, refinement or atomic coordinate data resulting 
# from the CCDC's data processing and validation procedures.
#
#######################################################################

data_ILOKUP
_symmetry_cell_setting           monoclinic
_symmetry_space_group_name_H-M   'P 21/a'
_symmetry_Int_Tables_number      14
_space_group_name_Hall           '-P 2yab'
loop_
_symmetry_equiv_pos_site_id
_symmetry_equiv_pos_as_xyz
1 x,y,z
2 1/2+x,1/2-y,z
3 -x,-y,-z
4 1/2-x,1/2+y,-z
_cell_length_a                   6.540(3)
_cell_length_b                   26.966(10)
_cell_length_c                   8.068(2)
_cell_angle_alpha                90
_cell_angle_beta                 110.51(3)
_cell_angle_gamma                90
_cell_volume                     1332.66
loop_
_atom_site_label
_atom_site_type_symbol
_atom_site_fract_x
_atom_site_fract_y
_atom_site_fract_z
Cs1 Cs 0.83846(11) 0.52204(2) -0.29032(9)
V1 V 0.3226(3) 0.43504(6) -0.2060(2)
S1 S 0.6968(5) 0.42030(11) -0.0566(4)
S2 S 0.9440(5) 0.33889(11) 0.1512(4)
O1 O 0.0759(12) 0.4148(3) -0.4059(10)
O2 O 0.2231(13) 0.4558(3) -0.0619(11)
O3 O 0.3809(13) 0.4823(2) -0.3070(10)
N1 N 0.3318(13) 0.3559(3) -0.1451(11)
N2 N 0.5211(14) 0.3317(3) -0.0283(12)
C1 C -0.0495(17) 0.3405(4) -0.3149(14)
C2 C -0.0860(17) 0.3835(4) -0.4182(14)
C3 C -0.2878(19) 0.3920(4) -0.5430(16)
H1 H -0.3091 0.4193 -0.6173
C4 C -0.4609(18) 0.3602(5) -0.5598(19)
H2 H -0.5985 0.3666 -0.6426
C5 C -0.4256(18) 0.3177(5) -0.4495(18)
H3 H -0.5418 0.2969 -0.4571
C6 C -0.225(2) 0.3075(4) -0.3340(16)
H4 H -0.2020 0.2787 -0.2665
C7 C 0.1623(18) 0.3278(4) -0.1877(13)
H5 H 0.1770 0.2970 -0.1328
C8 C 0.6901(18) 0.3601(4) 0.0131(14)
C9 C 0.881(2) 0.2816(4) 0.2372(18)
H6 H 1.0068 0.2703 0.3325
H7 H 0.8386 0.2572 0.1450
H8 H 0.7627 0.2870 0.2800
Cs1B Cs 0.16154(11) 0.47796(2) -0.70968(9)
Cs1B_2 Cs 1.16154(11) 0.47796(2) -0.70968(9)
Cs1B_3 Cs 1.16154(11) 0.47796(2) 0.29032(9)
S1B S 1.3032(5) 0.57970(11) 0.0566(4)
O1_2 O 1.0759(12) 0.4148(3) -0.4059(10)
O1B O 0.9241(12) 0.5852(3) -0.5941(10)
O2B O 0.7769(13) 0.5442(3) 0.0619(11)
O3_2 O 1.3809(13) 0.4823(2) -0.3070(10)
O3B O 0.6191(13) 0.5177(2) -0.6930(10)
Cs1_2 Cs -0.16154(11) 0.52204(2) -0.29032(9)
O2_2 O 1.2231(13) 0.4558(3) -0.0619(11)
Cs1B_4 Cs 0.16154(11) 0.47796(2) 0.29032(9)
loop_
_geom_bond_atom_site_label_1
_geom_bond_atom_site_label_2
_geom_bond_site_symmetry_1
_geom_bond_site_symmetry_2
Cs1 S1 1_555 1_555
V1 S1 1_555 1_555
S1 C8 1_555 1_555
S2 C8 1_555 1_555
O1 V1 1_555 1_555
O2 V1 1_555 1_555
O3 Cs1 1_555 1_555
N1 V1 1_555 1_555
N2 N1 1_555 1_555
C1 C2 1_555 1_555
C2 O1 1_555 1_555
C3 C2 1_555 1_555
H1 C3 1_555 1_555
C4 C3 1_555 1_555
H2 C4 1_555 1_555
C5 C4 1_555 1_555
H3 C5 1_555 1_555
C6 C1 1_555 1_555
H4 C6 1_555 1_555
C7 N1 1_555 1_555
H5 C7 1_555 1_555
C8 N2 1_555 1_555
C9 S2 1_555 1_555
H6 C9 1_555 1_555
H7 C9 1_555 1_555
H8 C9 1_555 1_555
Cs1B O1 1_555 1_555
Cs1B_2 O1_2 1_555 1_555
Cs1B_3 S1 1_555 1_555
S1B Cs1 1_555 1_555
O1_2 Cs1 1_555 1_555
O1B Cs1 1_555 1_555
O2B Cs1 1_555 1_555
O3_2 Cs1 1_555 1_555
O3B Cs1 1_555 1_555
Cs1_2 O1 1_555 1_555
O2_2 Cs1 1_555 1_555
Cs1B_4 O2 1_555 1_555
V1 O3 1_555 1_555
O2 Cs1_2 1_555 1_555
O3 Cs1_2 1_555 1_555
O3 Cs1B 1_555 1_555
C1 C7 1_555 1_555
C5 C6 1_555 1_555
Cs1B O3B 1_555 1_555
Cs1B_2 O1B 1_555 1_555
Cs1B_2 O3_2 1_555 1_555
Cs1B_2 O3B 1_555 1_555
Cs1B_3 O2_2 1_555 1_555
Cs1B_3 S1B 1_555 1_555
Cs1B_3 O2B 1_555 1_555

#END
