
#######################################################################
#
#                 Cambridge Crystallographic Data Centre
#                                CCDC 
#
#######################################################################
#
# If this CIF has been generated from an entry in the Cambridge 
# Structural Database, then it will include bibliographic, chemical, 
# crystal, experimental, refinement or atomic coordinate data resulting 
# from the CCDC's data processing and validation procedures.
#
#######################################################################

data_ILORUW
_symmetry_cell_setting           monoclinic
_symmetry_space_group_name_H-M   'P 21/n'
_symmetry_Int_Tables_number      14
_space_group_name_Hall           '-P 2yn'
loop_
_symmetry_equiv_pos_site_id
_symmetry_equiv_pos_as_xyz
1 x,y,z
2 1/2+x,1/2-y,1/2+z
3 -x,-y,-z
4 1/2-x,1/2+y,1/2-z
_cell_length_a                   14.558(3)
_cell_length_b                   14.257(3)
_cell_length_c                   19.171(4)
_cell_angle_alpha                90
_cell_angle_beta                 94.50(3)
_cell_angle_gamma                90
_cell_volume                     3966.74
loop_
_atom_site_label
_atom_site_type_symbol
_atom_site_fract_x
_atom_site_fract_y
_atom_site_fract_z
Ga1 Ga 0.95342(3) 0.27657(3) 0.13735(2)
Fe1 Fe 0.83468(3) 0.18412(4) 0.08940(3)
K1 K 0.60980(7) 0.42835(7) 0.21562(6)
O1 O 0.6825(2) 0.0803(2) 0.01622(17)
O2 O 0.9203(2) 0.0245(2) 0.16460(16)
O3 O 0.9026(2) 0.2546(3) -0.04078(16)
O4 O 0.7241(2) 0.2994(2) 0.17668(18)
N1 N 0.96021(19) 0.4052(2) 0.15917(16)
N2 N 1.08064(19) 0.2693(2) 0.16028(15)
N3 N 0.4989(3) 0.3402(3) 0.1052(2)
N4 N 0.4765(3) 0.3049(3) 0.2597(2)
C1 C 1.0520(2) 0.4281(3) 0.18034(19)
H1 H 1.0696 0.4901 0.1937
C2 C 1.1137(2) 0.3581(3) 0.18072(19)
H2 H 1.1771 0.3684 0.1943
C3 C 0.8897(2) 0.4684(3) 0.17556(19)
C4 C 0.8378(2) 0.5146(3) 0.1213(2)
C5 C 0.7701(3) 0.5782(3) 0.1388(2)
H3 H 0.7345 0.6103 0.1026
C6 C 0.7541(3) 0.5953(3) 0.2080(2)
H4 H 0.7090 0.6400 0.2191
C7 C 0.8036(3) 0.5473(3) 0.2604(2)
H5 H 0.7915 0.5585 0.3077
C8 C 0.8713(3) 0.4826(3) 0.2460(2)
C9 C 0.8586(3) 0.5025(3) 0.0452(2)
H6 H 0.8970 0.4447 0.0423
C10 C 0.7727(4) 0.4895(6) -0.0040(3)
H7 H 0.7362 0.5473 -0.0054
H8 H 0.7359 0.4377 0.0127
H9 H 0.7905 0.4750 -0.0511
C11 C 0.9157(4) 0.5850(4) 0.0228(3)
H10 H 0.9292 0.5768 -0.0261
H11 H 0.9736 0.5879 0.0525
H12 H 0.8812 0.6433 0.0276
C12 C 0.9201(3) 0.4267(3) 0.3050(2)
H13 H 0.9614 0.3806 0.2836
C13 C 0.9806(3) 0.4884(4) 0.3555(2)
H14 H 1.0271 0.5203 0.3298
H15 H 1.0112 0.4491 0.3923
H16 H 0.9421 0.5352 0.3767
C14 C 0.8509(4) 0.3708(4) 0.3451(3)
H17 H 0.8092 0.4142 0.3665
H18 H 0.8843 0.3332 0.3816
H19 H 0.8151 0.3292 0.3126
C15 C 1.1399(2) 0.1910(3) 0.17526(19)
C16 C 1.1758(2) 0.1409(3) 0.1200(2)
C17 C 1.2362(3) 0.0667(3) 0.1368(2)
H20 H 1.2610 0.0321 0.1003
C18 C 1.2606(3) 0.0427(3) 0.2056(2)
H21 H 1.3036 -0.0064 0.2160
C19 C 1.2227(3) 0.0897(3) 0.2591(2)
H22 H 1.2388 0.0715 0.3062
C20 C 1.1613(3) 0.1635(3) 0.2455(2)
C21 C 1.1488(3) 0.1634(3) 0.0441(2)
H23 H 1.1105 0.2217 0.0429
C22 C 1.0895(3) 0.0851(3) 0.0106(2)
H24 H 1.1250 0.0267 0.0117
H25 H 1.0705 0.1017 -0.0380
H26 H 1.0347 0.0766 0.0366
C23 C 1.2317(3) 0.1823(4) 0.0017(2)
H27 H 1.2666 0.2358 0.0219
H28 H 1.2102 0.1963 -0.0468
H29 H 1.2715 0.1267 0.0030
C24 C 1.1132(3) 0.2089(3) 0.3044(2)
H30 H 1.0860 0.2693 0.2861
C25 C 1.1758(4) 0.2317(5) 0.3696(3)
H31 H 1.1998 0.1734 0.3910
H32 H 1.1406 0.2657 0.4030
H33 H 1.2271 0.2708 0.3566
C26 C 1.0340(4) 0.1470(4) 0.3236(3)
H34 H 0.9940 0.1328 0.2815
H35 H 0.9984 0.1798 0.3575
H36 H 1.0586 0.0884 0.3444
C27 C 0.7424(3) 0.1210(3) 0.0451(2)
C28 C 0.8895(3) 0.0887(3) 0.1333(2)
C29 C 0.8765(3) 0.2275(3) 0.0106(2)
C30 C 0.7687(3) 0.2549(3) 0.1411(2)
C31 C 0.4686(7) 0.4069(7) 0.0535(5)
H37 H 0.5199 0.4482 0.0439
H38 H 0.4184 0.4444 0.0704
H39 H 0.4464 0.3741 0.0105
C32 C 0.5425(6) 0.2681(6) 0.0693(5)
H40 H 0.4959 0.2314 0.0415
H41 H 0.5764 0.2269 0.1033
H42 H 0.5855 0.2959 0.0383
C33 C 0.4174(7) 0.3131(8) 0.1363(5)
H43 H 0.3784 0.2772 0.1010
H44 H 0.3832 0.3708 0.1466
C34 C 0.4277(5) 0.2569(5) 0.2005(4)
H45 H 0.3657 0.2388 0.2137
H46 H 0.4613 0.1985 0.1908
C35 C 0.4145(4) 0.3608(4) 0.2981(3)
H47 H 0.3654 0.3208 0.3138
H48 H 0.3873 0.4105 0.2678
H49 H 0.4488 0.3891 0.3389
C36 C 0.5211(6) 0.2373(6) 0.3079(4)
H50 H 0.5575 0.2706 0.3453
H51 H 0.5618 0.1969 0.2827
H52 H 0.4742 0.1988 0.3282
O2C O 0.5797(2) 0.5245(2) 0.33540(16)
K1C K 0.89020(7) -0.07165(7) 0.28438(6)
loop_
_geom_bond_atom_site_label_1
_geom_bond_atom_site_label_2
_geom_bond_site_symmetry_1
_geom_bond_site_symmetry_2
Ga1 Fe1 1_555 1_555
Fe1 C27 1_555 1_555
K1 O4 1_555 1_555
O1 C27 1_555 1_555
O2 C28 1_555 1_555
O3 C29 1_555 1_555
O4 C30 1_555 1_555
N1 Ga1 1_555 1_555
N2 Ga1 1_555 1_555
N3 K1 1_555 1_555
N4 K1 1_555 1_555
C1 N1 1_555 1_555
H1 C1 1_555 1_555
C2 N2 1_555 1_555
H2 C2 1_555 1_555
C3 N1 1_555 1_555
C4 C3 1_555 1_555
C5 C4 1_555 1_555
H3 C5 1_555 1_555
C6 K1 1_555 1_555
H4 C6 1_555 1_555
C7 K1 1_555 1_555
H5 C7 1_555 1_555
C8 C3 1_555 1_555
C9 C4 1_555 1_555
H6 C9 1_555 1_555
C10 C9 1_555 1_555
H7 C10 1_555 1_555
H8 C10 1_555 1_555
H9 C10 1_555 1_555
C11 C9 1_555 1_555
H10 C11 1_555 1_555
H11 C11 1_555 1_555
H12 C11 1_555 1_555
C12 C8 1_555 1_555
H13 C12 1_555 1_555
C13 C12 1_555 1_555
H14 C13 1_555 1_555
H15 C13 1_555 1_555
H16 C13 1_555 1_555
C14 C12 1_555 1_555
H17 C14 1_555 1_555
H18 C14 1_555 1_555
H19 C14 1_555 1_555
C15 N2 1_555 1_555
C16 C15 1_555 1_555
C17 C16 1_555 1_555
H20 C17 1_555 1_555
C18 C17 1_555 1_555
H21 C18 1_555 1_555
C19 C18 1_555 1_555
H22 C19 1_555 1_555
C20 C15 1_555 1_555
C21 C16 1_555 1_555
H23 C21 1_555 1_555
C22 C21 1_555 1_555
H24 C22 1_555 1_555
H25 C22 1_555 1_555
H26 C22 1_555 1_555
C23 C21 1_555 1_555
H27 C23 1_555 1_555
H28 C23 1_555 1_555
H29 C23 1_555 1_555
C24 C20 1_555 1_555
H30 C24 1_555 1_555
C25 C24 1_555 1_555
H31 C25 1_555 1_555
H32 C25 1_555 1_555
H33 C25 1_555 1_555
C26 C24 1_555 1_555
H34 C26 1_555 1_555
H35 C26 1_555 1_555
H36 C26 1_555 1_555
C28 Fe1 1_555 1_555
C29 Fe1 1_555 1_555
C30 Fe1 1_555 1_555
C31 N3 1_555 1_555
H37 C31 1_555 1_555
H38 C31 1_555 1_555
H39 C31 1_555 1_555
C32 N3 1_555 1_555
H40 C32 1_555 1_555
H41 C32 1_555 1_555
H42 C32 1_555 1_555
C33 N3 1_555 1_555
H43 C33 1_555 1_555
H44 C33 1_555 1_555
C34 N4 1_555 1_555
H45 C34 1_555 1_555
H46 C34 1_555 1_555
C35 N4 1_555 1_555
H47 C35 1_555 1_555
H48 C35 1_555 1_555
H49 C35 1_555 1_555
C36 N4 1_555 1_555
H50 C36 1_555 1_555
H51 C36 1_555 1_555
H52 C36 1_555 1_555
O2C K1 1_555 1_555
K1C O2 1_555 1_555
C1 C2 1_555 1_555
C5 C6 1_555 1_555
C6 C7 1_555 1_555
C7 C8 1_555 1_555
C19 C20 1_555 1_555
C33 C34 1_555 1_555

#END
