
#######################################################################
#
#                 Cambridge Crystallographic Data Centre
#                                CCDC 
#
#######################################################################
#
# If this CIF has been generated from an entry in the Cambridge 
# Structural Database, then it will include bibliographic, chemical, 
# crystal, experimental, refinement or atomic coordinate data resulting 
# from the CCDC's data processing and validation procedures.
#
#######################################################################

data_ILOVUB
_symmetry_cell_setting           monoclinic
_symmetry_space_group_name_H-M   'C 2/c'
_symmetry_Int_Tables_number      15
_space_group_name_Hall           '-C 2yn'
loop_
_symmetry_equiv_pos_site_id
_symmetry_equiv_pos_as_xyz
1 x,y,z
2 -x,y,1/2-z
3 1/2+x,1/2+y,z
4 1/2-x,1/2+y,1/2-z
5 -x,-y,-z
6 x,-y,1/2+z
7 1/2-x,1/2-y,-z
8 1/2+x,1/2-y,1/2+z
_cell_length_a                   16.5187(15)
_cell_length_b                   9.6431(16)
_cell_length_c                   12.9425(17)
_cell_angle_alpha                90
_cell_angle_beta                 123.149(8)
_cell_angle_gamma                90
_cell_volume                     1726.1
loop_
_atom_site_label
_atom_site_type_symbol
_atom_site_fract_x
_atom_site_fract_y
_atom_site_fract_z
Zn1 Zn 0.7500 0.7500 0.0000
N1 N 0.80131(13) 0.5433(2) 0.06241(17)
N2 N 0.68227(15) 0.6833(3) -0.18987(19)
N3 N 0.54997(14) 0.6342(3) -0.39991(18)
N4 N 0.38197(14) 0.7003(3) -0.4912(2)
C1 C 0.8472(2) 0.4724(3) 0.0212(2)
C2 C 0.8926(3) 0.3470(3) 0.0704(3)
C3 C 0.89287(19) 0.2891(3) 0.1689(2)
C4 C 0.8416(2) 0.3606(3) 0.2079(3)
C5 C 0.79744(19) 0.4847(3) 0.1535(3)
C6 C 0.9476(2) 0.1575(2) 0.2321(3)
C7 C 0.61720(13) 0.6651(2) -0.28745(18)
C8 C 0.46115(14) 0.6720(2) -0.44342(17)
H1 H 0.848(3) 0.516(5) -0.039(3)
H2 H 0.756(3) 0.548(5) 0.176(4)
H3 H 0.921(3) 0.298(6) 0.030(4)
H4 H 0.841(3) 0.320(5) 0.282(4)
H5 H 0.920(3) 0.084(5) 0.181(4)
H6 H 0.948(3) 0.145(4) 0.311(4)
Zn1A Zn 1.2500 0.7500 0.5000
Zn1A_2 Zn 0.2500 0.7500 -0.5000
N1A N 1.19869(13) 0.5433(2) 0.43759(17)
N1F N 0.69869(13) 0.9567(2) -0.06241(17)
N2A N 0.31773(15) 0.6833(3) -0.31013(19)
N2F N 0.81773(15) 0.8167(3) 0.18987(19)
N3A N 0.45003(14) 0.6342(3) -0.10009(18)
N4A N 0.61803(14) 0.7003(3) -0.0088(2)
N4G N 0.88197(14) 0.7997(3) 0.0088(2)
C1A C 1.1528(2) 0.4724(3) 0.4788(2)
C2A C 1.1074(3) 0.3470(3) 0.4296(3)
C3A C 1.10713(19) 0.2891(3) 0.3311(2)
C4A C 1.1584(2) 0.3606(3) 0.2921(3)
C5A C 1.20256(19) 0.4847(3) 0.3465(3)
C6A C 1.0524(2) 0.1575(2) 0.2679(3)
C7A C 0.38280(13) 0.6651(2) -0.21255(18)
C8A C 0.53885(14) 0.6720(2) -0.05658(17)
H1A H 1.152(3) 0.516(5) 0.539(3)
H2A H 1.244(3) 0.548(5) 0.324(4)
H3A H 1.079(3) 0.298(6) 0.470(4)
H4A H 1.159(3) 0.320(5) 0.218(4)
H5A H 1.080(3) 0.084(5) 0.319(4)
H6A H 1.052(3) 0.145(4) 0.189(4)
loop_
_geom_bond_atom_site_label_1
_geom_bond_atom_site_label_2
_geom_bond_site_symmetry_1
_geom_bond_site_symmetry_2
Zn1 N1 1_555 1_555
N1 C1 1_555 1_555
N2 Zn1 1_555 1_555
N3 C7 1_555 1_555
N4 C8 1_555 1_555
C1 C2 1_555 1_555
C2 C3 1_555 1_555
C3 C4 1_555 1_555
C4 C5 1_555 1_555
C5 N1 1_555 1_555
C6 C3 1_555 1_555
C7 N2 1_555 1_555
C8 N3 1_555 1_555
H1 C1 1_555 1_555
H2 C5 1_555 1_555
H3 C2 1_555 1_555
H4 C4 1_555 1_555
H5 C6 1_555 1_555
H6 C6 1_555 1_555
Zn1A N1A 1_555 1_555
Zn1A_2 N4 1_555 1_555
N1A C1A 1_555 1_555
N1F Zn1 1_555 1_555
N2A Zn1A_2 1_555 1_555
N2F Zn1 1_555 1_555
N3A C7A 1_555 1_555
N4A Zn1 1_555 1_555
N4G Zn1 1_555 1_555
C1A C2A 1_555 1_555
C2A C3A 1_555 1_555
C3A C4A 1_555 1_555
C4A C5A 1_555 1_555
C5A N1A 1_555 1_555
C6A C6 1_555 1_555
C7A N2A 1_555 1_555
C8A N3A 1_555 1_555
H1A C1A 1_555 1_555
H2A C5A 1_555 1_555
H3A C2A 1_555 1_555
H4A C4A 1_555 1_555
H5A C6A 1_555 1_555
H6A C6A 1_555 1_555
N4A C8A 1_555 1_555
C3A C6A 1_555 1_555

#END
