
#######################################################################
#
#                 Cambridge Crystallographic Data Centre
#                                CCDC 
#
#######################################################################
#
# If this CIF has been generated from an entry in the Cambridge 
# Structural Database, then it will include bibliographic, chemical, 
# crystal, experimental, refinement or atomic coordinate data resulting 
# from the CCDC's data processing and validation procedures.
#
#######################################################################

data_ILUBIB
_symmetry_cell_setting           monoclinic
_symmetry_space_group_name_H-M   'P 21/c'
_symmetry_Int_Tables_number      14
_space_group_name_Hall           '-P 2ybc'
loop_
_symmetry_equiv_pos_site_id
_symmetry_equiv_pos_as_xyz
1 x,y,z
2 -x,1/2+y,1/2-z
3 -x,-y,-z
4 x,1/2-y,1/2+z
_cell_length_a                   8.9871(4)
_cell_length_b                   16.9291(6)
_cell_length_c                   12.2810(7)
_cell_angle_alpha                90
_cell_angle_beta                 106.332(5)
_cell_angle_gamma                90
_cell_volume                     1793.08
loop_
_atom_site_label
_atom_site_type_symbol
_atom_site_fract_x
_atom_site_fract_y
_atom_site_fract_z
Sb1 Sb 0.202231(17) 0.224482(8) 0.439854(12)
P2 P 0.16099(7) 0.15822(3) 0.70074(5)
H2 H 0.2120 0.0973 0.7675
O1 O 0.22970(19) 0.15596(9) 0.60148(13)
O2 O -0.0159(2) 0.15073(11) 0.66196(15)
N1 N 0.4534(2) 0.27901(11) 0.53560(16)
N2 N 0.0495(2) 0.12041(11) 0.32510(16)
O4 O 0.2156(2) 0.23038(9) 0.77522(14)
C1 C 0.3642(3) 0.14147(13) 0.41535(19)
C2 C 0.3164(3) 0.08312(13) 0.33359(19)
C3 C 0.5120(3) 0.32801(15) 0.4568(2)
H4 H 0.4376 0.3684 0.4250
H5 H 0.5274 0.2953 0.3971
H6 H 0.6086 0.3520 0.4970
C4 C -0.0957(3) 0.15117(15) 0.2491(2)
H7 H -0.1487 0.1095 0.2004
H8 H -0.0728 0.1932 0.2037
H9 H -0.1603 0.1709 0.2933
C5 C 0.6243(3) 0.09121(14) 0.4668(2)
H10 H 0.7270 0.0937 0.5108
C6 C 0.0153(3) 0.06063(14) 0.4019(2)
H11 H -0.0414 0.0846 0.4488
H12 H 0.1106 0.0392 0.4490
H13 H -0.0456 0.0191 0.3578
C7 C 0.1504(3) 0.08511(14) 0.2606(2)
H14 H 0.1439 0.1163 0.1931
H15 H 0.1157 0.0319 0.2369
C8 C 0.5557(3) 0.20919(14) 0.5724(2)
H16 H 0.5419 0.1883 0.6425
H17 H 0.6633 0.2248 0.5864
C9 C 0.5165(3) 0.14643(13) 0.48213(19)
C10 C 0.4435(3) 0.32757(15) 0.6336(2)
H19 H 0.5441 0.3484 0.6718
H20 H 0.4071 0.2956 0.6853
H21 H 0.3726 0.3704 0.6070
C11 C 0.4237(3) 0.02742(14) 0.3197(2)
H22 H 0.3932 -0.0126 0.2662
C12 C 0.5766(3) 0.03250(15) 0.3863(2)
H23 H 0.6486 -0.0042 0.3764
Sb1C Sb 0.202231(17) 0.275518(8) 0.939854(12)
O4C O 0.2156(2) 0.26962(9) 0.27522(14)
P1 P 0.91546(8) 0.39313(4) 0.42228(5)
H1 H 0.9136 0.3312 0.4971
O3 O 0.8066(2) 0.45498(10) 0.45182(16)
H3 H 0.8573 0.4845 0.5014
O5 O 1.0788(2) 0.42245(11) 0.44148(16)
O6 O 0.8408(2) 0.36202(11) 0.30411(16)
H18 H 0.9039 0.3632 0.2672
loop_
_geom_bond_atom_site_label_1
_geom_bond_atom_site_label_2
_geom_bond_site_symmetry_1
_geom_bond_site_symmetry_2
Sb1 O1 1_555 1_555
P1 H1 1_555 1_555
P2 H2 1_555 1_555
O1 P2 1_555 1_555
O2 P2 1_555 1_555
N1 Sb1 1_555 1_555
O3 P1 1_555 1_555
H3 O3 1_555 1_555
N2 Sb1 1_555 1_555
O4 P2 1_555 1_555
O5 P1 1_555 1_555
C1 Sb1 1_555 1_555
C2 C1 1_555 1_555
C3 N1 1_555 1_555
H4 C3 1_555 1_555
H5 C3 1_555 1_555
H6 C3 1_555 1_555
C4 N2 1_555 1_555
H7 C4 1_555 1_555
H8 C4 1_555 1_555
H9 C4 1_555 1_555
C5 H10 1_555 1_555
C6 N2 1_555 1_555
H11 C6 1_555 1_555
H12 C6 1_555 1_555
H13 C6 1_555 1_555
C7 N2 1_555 1_555
H14 C7 1_555 1_555
H15 C7 1_555 1_555
C8 N1 1_555 1_555
H16 C8 1_555 1_555
H17 C8 1_555 1_555
C9 C1 1_555 1_555
O6 P1 1_555 1_555
H18 O6 1_555 1_555
C10 N1 1_555 1_555
H19 C10 1_555 1_555
H20 C10 1_555 1_555
H21 C10 1_555 1_555
C11 C2 1_555 1_555
H22 C11 1_555 1_555
C12 C5 1_555 1_555
H23 C12 1_555 1_555
Sb1C O4 1_555 1_555
O4C Sb1 1_555 1_555
C2 C7 1_555 1_555
C5 C9 1_555 1_555
C8 C9 1_555 1_555
C11 C12 1_555 1_555

#END
