
#######################################################################
#
#                 Cambridge Crystallographic Data Centre
#                                CCDC 
#
#######################################################################
#
# If this CIF has been generated from an entry in the Cambridge 
# Structural Database, then it will include bibliographic, chemical, 
# crystal, experimental, refinement or atomic coordinate data resulting 
# from the CCDC's data processing and validation procedures.
#
#######################################################################

data_ILUKOP01
_symmetry_cell_setting           orthorhombic
_symmetry_space_group_name_H-M   'P 21 21 21'
_symmetry_Int_Tables_number      19
_space_group_name_Hall           'P 2ac 2ab'
loop_
_symmetry_equiv_pos_site_id
_symmetry_equiv_pos_as_xyz
1 x,y,z
2 1/2-x,-y,1/2+z
3 1/2+x,1/2-y,-z
4 -x,1/2+y,1/2-z
_cell_length_a                   7.6498(7)
_cell_length_b                   14.5434(13)
_cell_length_c                   14.9575(13)
_cell_angle_alpha                90
_cell_angle_beta                 90
_cell_angle_gamma                90
_cell_volume                     1664.08
loop_
_atom_site_label
_atom_site_type_symbol
_atom_site_fract_x
_atom_site_fract_y
_atom_site_fract_z
Mn1 Mn -0.00808(5) 0.506646(18) 0.192663(19)
Cr1 Cr 0.50103(8) 0.756166(18) 0.23928(2)
C1 C 0.3048(4) 0.66505(18) 0.20421(19)
N1 N 0.1979(4) 0.61285(17) 0.18798(18)
C2 C 0.6838(4) 0.66417(18) 0.18924(19)
N2 N 0.7850(3) 0.61136(17) 0.16619(16)
C3 C 0.6979(4) 0.84858(19) 0.2709(2)
N3 N 0.8039(3) 0.90197(17) 0.28522(19)
C4 C 0.3173(4) 0.84897(19) 0.2853(2)
N4 N 0.2167(4) 0.90224(18) 0.30711(19)
C5 C 0.4800(5) 0.81840(16) 0.11603(16)
N5 N 0.4697(6) 0.8530(2) 0.04780(18)
C6 C 0.5125(5) 0.68998(15) 0.36196(15)
N6 N 0.5198(5) 0.64936(16) 0.42737(15)
N7 N 0.0659(3) 0.4861(2) 0.54279(17)
H1 H 0.0309 0.4377 0.5111
H2 H 0.0294 0.4803 0.5990
H3 H 0.1821 0.4893 0.5418
N8 N -0.0623(3) 0.52192(15) 0.34469(14)
H4 H -0.1753 0.5383 0.3498
H5 H -0.0532 0.4651 0.3682
C7 C -0.0087(5) 0.5714(2) 0.50340(16)
H6 H 0.0342 0.6240 0.5367
H7 H -0.1348 0.5699 0.5096
C8 C 0.0372(4) 0.58384(18) 0.40498(16)
H8 H 0.1623 0.5715 0.3972
C9 C 0.0025(6) 0.68406(18) 0.38133(17)
H9 H -0.1148 0.7000 0.3980
H10 H 0.0172 0.6927 0.3181
H11 H 0.0834 0.7227 0.4129
O1 O 0.0509(3) 0.49030(13) 0.04678(12)
H12 H 0.015(5) 0.530(2) 0.029(2)
Mn1_2 Mn 0.99192(5) 0.506646(18) 0.192663(19)
Mn1C Mn 0.00808(5) 1.006646(18) 0.307337(19)
Mn1C_2 Mn 1.00808(5) 1.006646(18) 0.307337(19)
N2_2 N -0.2150(3) 0.61136(17) 0.16619(16)
N3C N 0.1961(3) 0.40197(17) 0.21478(19)
N4C N -0.2167(4) 0.40224(18) 0.19289(19)
O2 O -0.0107(7) 0.3296(2) 0.4354(2)
loop_
_geom_bond_atom_site_label_1
_geom_bond_atom_site_label_2
_geom_bond_site_symmetry_1
_geom_bond_site_symmetry_2
Mn1 N1 1_555 1_555
Cr1 C1 1_555 1_555
C1 N1 1_555 1_555
C2 Cr1 1_555 1_555
N2 C2 1_555 1_555
C3 Cr1 1_555 1_555
N3 C3 1_555 1_555
C4 Cr1 1_555 1_555
N4 C4 1_555 1_555
C5 Cr1 1_555 1_555
N5 C5 1_555 1_555
C6 Cr1 1_555 1_555
N6 C6 1_555 1_555
N7 H1 1_555 1_555
H2 N7 1_555 1_555
H3 N7 1_555 1_555
N8 Mn1 1_555 1_555
H4 N8 1_555 1_555
H5 N8 1_555 1_555
C7 N7 1_555 1_555
H6 C7 1_555 1_555
H7 C7 1_555 1_555
C8 N8 1_555 1_555
H8 C8 1_555 1_555
C9 C8 1_555 1_555
H9 C9 1_555 1_555
H10 C9 1_555 1_555
H11 C9 1_555 1_555
O1 Mn1 1_555 1_555
H12 O1 1_555 1_555
Mn1_2 N2 1_555 1_555
Mn1C N4 1_555 1_555
Mn1C_2 N3 1_555 1_555
N2_2 Mn1 1_555 1_555
N3C Mn1 1_555 1_555
N4C Mn1 1_555 1_555
C7 C8 1_555 1_555

#END
