
#######################################################################
#
#                 Cambridge Crystallographic Data Centre
#                                CCDC 
#
#######################################################################
#
# If this CIF has been generated from an entry in the Cambridge 
# Structural Database, then it will include bibliographic, chemical, 
# crystal, experimental, refinement or atomic coordinate data resulting 
# from the CCDC's data processing and validation procedures.
#
#######################################################################

data_ILUKOP
_symmetry_cell_setting           orthorhombic
_symmetry_space_group_name_H-M   'P 21 21 21'
_symmetry_Int_Tables_number      19
_space_group_name_Hall           'P 2ac 2ab'
loop_
_symmetry_equiv_pos_site_id
_symmetry_equiv_pos_as_xyz
1 x,y,z
2 1/2-x,-y,1/2+z
3 -x,1/2+y,1/2-z
4 1/2+x,1/2-y,-z
_cell_length_a                   7.6280(17)
_cell_length_b                   14.510(3)
_cell_length_c                   14.935(3)
_cell_angle_alpha                90
_cell_angle_beta                 90
_cell_angle_gamma                90
_cell_volume                     1653.04
loop_
_atom_site_label
_atom_site_type_symbol
_atom_site_fract_x
_atom_site_fract_y
_atom_site_fract_z
Cr1 Cr 1.00120(7) 0.24382(2) 0.76073(2)
Mn1 Mn 0.49165(4) 0.49337(2) 0.80745(2)
C1 C 0.8055(4) 0.3349(2) 0.7956(2)
C2 C 0.8178(4) 0.1511(2) 0.7144(2)
C3 C 1.1985(4) 0.1510(2) 0.7290(2)
C4 C 1.1852(4) 0.3359(2) 0.8111(2)
C5 C 0.9809(5) 0.18147(18) 0.88383(18)
C6 C 1.0150(4) 0.31011(16) 0.63819(17)
C7 C 0.5005(6) 0.3160(2) 0.6184(2)
C8 C 0.5364(4) 0.4165(2) 0.59489(19)
C9 C 0.4921(6) 0.4290(2) 0.49684(19)
N1 N 0.6980(4) 0.38678(18) 0.81220(19)
N2 N 0.7157(3) 0.09787(18) 0.6923(2)
N3 N 1.3034(3) 0.09789(18) 0.7147(2)
N4 N 1.2844(3) 0.38866(18) 0.83431(17)
N5 N 0.9702(6) 0.1465(2) 0.9518(2)
N6 N 1.0212(5) 0.35077(17) 0.57297(18)
N7 N 0.4370(4) 0.4780(2) 0.65549(17)
N8 N 0.5644(5) 0.5128(3) 0.4561(2)
O1 O 0.5509(3) 0.50893(13) 0.95308(12)
H1 H 0.531(12) 0.469(5) 0.985(5)
H2 H 0.521(12) 0.554(5) 0.987(5)
H3 H 0.520(5) 0.300(2) 0.681(2)
H4 H 0.599(6) 0.267(3) 0.576(3)
H5 H 0.374(4) 0.300(2) 0.600(2)
H6 H 0.445(5) 0.522(3) 0.642(3)
H7 H 0.327(5) 0.467(3) 0.650(3)
H8 H 0.664(4) 0.425(2) 0.605(2)
H9 H 0.550(4) 0.558(2) 0.480(2)
H10 H 0.664(6) 0.519(4) 0.458(3)
H11 H 0.545(6) 0.372(3) 0.465(3)
H12 H 0.368(5) 0.430(3) 0.489(2)
Mn1B Mn 0.50835(4) -0.00663(2) 0.69255(2)
Mn1B_2 Mn 1.50835(4) -0.00663(2) 0.69255(2)
Mn1_2 Mn 1.49165(4) 0.49337(2) 0.80745(2)
N2B N 0.2843(3) 0.59787(18) 0.8077(2)
N3B N 0.6966(3) 0.59789(18) 0.7853(2)
N4_2 N 0.2844(3) 0.38866(18) 0.83431(17)
O2 O 0.4848(10) 0.6701(3) 0.5643(4)
H13 H 0.584(11) 0.661(6) 0.557(7)
H14 H 0.512(11) 0.722(5) 0.546(5)
loop_
_geom_bond_atom_site_label_1
_geom_bond_atom_site_label_2
_geom_bond_site_symmetry_1
_geom_bond_site_symmetry_2
Cr1 C1 1_555 1_555
Mn1 N1 1_555 1_555
C1 N1 1_555 1_555
C2 Cr1 1_555 1_555
C3 Cr1 1_555 1_555
C4 Cr1 1_555 1_555
C5 Cr1 1_555 1_555
C6 Cr1 1_555 1_555
C7 C8 1_555 1_555
C8 C9 1_555 1_555
C9 N8 1_555 1_555
N2 C2 1_555 1_555
N3 C3 1_555 1_555
N4 C4 1_555 1_555
N5 C5 1_555 1_555
N6 C6 1_555 1_555
N7 Mn1 1_555 1_555
N8 H9 1_555 1_555
O1 Mn1 1_555 1_555
H1 O1 1_555 1_555
H2 O1 1_555 1_555
H3 C7 1_555 1_555
H4 C7 1_555 1_555
H5 C7 1_555 1_555
H6 N7 1_555 1_555
H7 N7 1_555 1_555
H8 C8 1_555 1_555
H10 N8 1_555 1_555
H11 C9 1_555 1_555
H12 C9 1_555 1_555
O2 H13 1_555 1_555
H14 O2 1_555 1_555
Mn1B N2 1_555 1_555
Mn1B_2 N3 1_555 1_555
Mn1_2 N4 1_555 1_555
N2B Mn1 1_555 1_555
N3B Mn1 1_555 1_555
N4_2 Mn1 1_555 1_555
C8 N7 1_555 1_555

#END
