
#######################################################################
#
#                 Cambridge Crystallographic Data Centre
#                                CCDC 
#
#######################################################################
#
# If this CIF has been generated from an entry in the Cambridge 
# Structural Database, then it will include bibliographic, chemical, 
# crystal, experimental, refinement or atomic coordinate data resulting 
# from the CCDC's data processing and validation procedures.
#
#######################################################################

data_ILULOQ
_symmetry_cell_setting           monoclinic
_symmetry_space_group_name_H-M   'P 21'
_symmetry_Int_Tables_number      4
_space_group_name_Hall           'P 2yb'
loop_
_symmetry_equiv_pos_site_id
_symmetry_equiv_pos_as_xyz
1 x,y,z
2 -x,1/2+y,-z
_cell_length_a                   7.6002(11)
_cell_length_b                   19.919(3)
_cell_length_c                   8.0430(12)
_cell_angle_alpha                90
_cell_angle_beta                 113.794(2)
_cell_angle_gamma                90
_cell_volume                     1114.12
loop_
_atom_site_label
_atom_site_type_symbol
_atom_site_fract_x
_atom_site_fract_y
_atom_site_fract_z
Cd1 Cd 0.16428(7) 0.44977(2) 0.18016(7)
Cd2 Cd 0.68904(7) 0.52380(2) 0.23704(7)
I1 I 0.39113(6) 0.45760(2) -0.05077(5)
I2 I 0.47076(6) 0.51204(2) 0.47366(5)
I3 I -0.08234(6) 0.56115(2) 0.01998(6)
I4 I -0.05745(6) 0.41173(2) 0.40326(6)
C1 C 0.0242(10) 0.3067(4) -0.0170(9)
C2 C -0.0799(10) 0.2577(4) -0.1354(9)
H1 H -0.0384 0.2133 -0.1135
C3 C -0.2928(11) 0.3356(4) -0.3034(10)
H2 H -0.4034 0.3476 -0.4033
C4 C -0.1895(10) 0.3852(4) -0.1826(9)
H3 H -0.2333 0.4293 -0.2021
C5 C 0.2013(10) 0.2911(4) 0.1480(9)
N1 N -0.0309(8) 0.3708(3) -0.0409(7)
N2 N -0.2404(9) 0.2722(3) -0.2823(8)
O1 O 0.2916(7) 0.3350(2) 0.2564(6)
O2 O 0.2448(8) 0.2284(3) 0.1642(7)
H4 H 0.338(9) 0.213(4) 0.255(8)
C6 C 0.8503(10) 0.6676(3) 0.4189(9)
C7 C 0.9626(11) 0.7174(4) 0.5328(9)
H5 H 0.9314 0.7623 0.5037
C8 C 1.1518(11) 0.6374(4) 0.7205(9)
H6 H 1.2550 0.6250 0.8267
C9 C 1.0406(10) 0.5869(4) 0.6053(9)
H7 H 1.0722 0.5420 0.6347
C10 C 0.6774(10) 0.6836(4) 0.2503(9)
N3 N 0.8917(8) 0.6024(3) 0.4558(7)
N4 N 1.1170(10) 0.7015(4) 0.6854(9)
O3 O 0.5705(7) 0.6394(3) 0.1575(6)
O4 O 0.6588(8) 0.7474(3) 0.2162(7)
H8 H 0.569(12) 0.769(6) 0.139(13)
I3_2 I 0.91766(6) 0.56115(2) 0.01998(6)
I4_2 I 0.94255(6) 0.41173(2) 0.40326(6)
Cd2_2 Cd -0.31096(7) 0.52380(2) 0.23704(7)
O5 O 0.5125(10) 0.1885(3) 0.4522(8)
H9 H 0.589(9) 0.213(3) 0.536(7)
H10 H 0.534(12) 0.1468(13) 0.462(10)
O6 O 0.3824(9) 0.7873(3) -0.0651(8)
H11 H 0.312(12) 0.771(5) -0.170(6)
H12 H 0.400(12) 0.8269(19) -0.094(11)
loop_
_geom_bond_atom_site_label_1
_geom_bond_atom_site_label_2
_geom_bond_site_symmetry_1
_geom_bond_site_symmetry_2
Cd1 I1 1_555 1_555
Cd2 I1 1_555 1_555
I2 Cd1 1_555 1_555
I3 Cd1 1_555 1_555
I4 Cd1 1_555 1_555
C1 C2 1_555 1_555
C2 H1 1_555 1_555
C3 H2 1_555 1_555
C4 C3 1_555 1_555
H3 C4 1_555 1_555
C5 C1 1_555 1_555
N1 Cd1 1_555 1_555
N2 C2 1_555 1_555
O1 Cd1 1_555 1_555
O2 C5 1_555 1_555
H4 O2 1_555 1_555
C6 C7 1_555 1_555
C7 H5 1_555 1_555
C8 H6 1_555 1_555
C9 C8 1_555 1_555
H7 C9 1_555 1_555
C10 C6 1_555 1_555
N3 Cd2 1_555 1_555
N4 C7 1_555 1_555
O3 Cd2 1_555 1_555
O4 C10 1_555 1_555
H8 O4 1_555 1_555
O5 H9 1_555 1_555
H10 O5 1_555 1_555
O6 H11 1_555 1_555
H12 O6 1_555 1_555
I3_2 Cd2 1_555 1_555
I4_2 Cd2 1_555 1_555
Cd2_2 I3 1_555 1_555
Cd2 I2 1_555 1_555
I4 Cd2_2 1_555 1_555
C1 N1 1_555 1_555
C3 N2 1_555 1_555
C4 N1 1_555 1_555
C5 O1 1_555 1_555
C6 N3 1_555 1_555
C8 N4 1_555 1_555
C9 N3 1_555 1_555
C10 O3 1_555 1_555

#END
