
#######################################################################
#
#                 Cambridge Crystallographic Data Centre
#                                CCDC 
#
#######################################################################
#
# If this CIF has been generated from an entry in the Cambridge 
# Structural Database, then it will include bibliographic, chemical, 
# crystal, experimental, refinement or atomic coordinate data resulting 
# from the CCDC's data processing and validation procedures.
#
#######################################################################

data_ILUSIS
_symmetry_cell_setting           orthorhombic
_symmetry_space_group_name_H-M   'P n m a'
_symmetry_Int_Tables_number      62
_space_group_name_Hall           '-P 2ac 2n'
loop_
_symmetry_equiv_pos_site_id
_symmetry_equiv_pos_as_xyz
1 x,y,z
2 1/2-x,-y,1/2+z
3 1/2+x,1/2-y,1/2-z
4 -x,1/2+y,-z
5 -x,-y,-z
6 1/2+x,y,1/2-z
7 1/2-x,1/2+y,1/2+z
8 x,1/2-y,z
_cell_length_a                   13.783(2)
_cell_length_b                   7.1672(11)
_cell_length_c                   12.599(2)
_cell_angle_alpha                90
_cell_angle_beta                 90
_cell_angle_gamma                90
_cell_volume                     1244.6
loop_
_atom_site_label
_atom_site_type_symbol
_atom_site_fract_x
_atom_site_fract_y
_atom_site_fract_z
Zn1 Zn 0.33845(2) 0.2500 0.35948(3)
Fe1 Fe 0.58729(3) 0.7500 0.25398(4)
N1 N 0.44179(15) 0.4506(3) 0.32922(18)
N2 N 0.23389(14) 0.4499(3) 0.31837(18)
N3 N 0.3274(2) 0.2500 0.5197(2)
N4 N 0.5250(2) 0.7500 0.1136(2)
N5 N 0.4116(3) 0.7500 -0.0076(3)
C1 C 0.49670(16) 0.5624(3) 0.3039(2)
C2 C 0.18005(16) 0.5615(3) 0.2903(2)
C3 C 0.3563(2) 0.2500 0.6068(3)
C4 C 0.4289(3) 0.7500 0.0971(3)
C5 C 0.4972(3) 0.7500 -0.0602(3)
C6 C 0.5690(3) 0.7500 0.0155(3)
H1 H 0.38073 0.750 0.15097
H2 H 0.50598 0.750 -0.13500
H3 H 0.63692 0.750 0.00246
H4 H 0.35386 0.750 -0.03733
Fe1_2 Fe 0.58729(3) -0.2500 0.25398(4)
Fe1B Fe 0.08729(3) -0.2500 0.24602(4)
Fe1B_2 Fe 0.08729(3) 0.7500 0.24602(4)
Fe1C Fe 0.41271(3) 0.2500 0.74602(4)
N1G N 0.44179(15) 0.0494(3) 0.32922(18)
N2G N 0.23389(14) 0.0501(3) 0.31837(18)
C1G C 0.49670(16) -0.0624(3) 0.3039(2)
C1G_2 C 0.49670(16) 0.9376(3) 0.3039(2)
C2G C 0.18005(16) -0.0615(3) 0.2903(2)
C2B C 0.68005(16) 0.9385(3) 0.2097(2)
C2E C 0.68005(16) 0.5615(3) 0.2097(2)
C3C C 0.6437(2) 0.7500 0.3932(3)
O1 O 0.1799(11) 0.2500 0.0380(12)
O2 O 0.6631(13) 0.7500 -0.146(2)
loop_
_geom_bond_atom_site_label_1
_geom_bond_atom_site_label_2
_geom_bond_site_symmetry_1
_geom_bond_site_symmetry_2
Zn1 N1 1_555 1_555
Fe1 N4 1_555 1_555
N1 C1 1_555 1_555
N2 Zn1 1_555 1_555
N3 Zn1 1_555 1_555
N4 C4 1_555 1_555
N5 C4 1_555 1_555
C1 Fe1 1_555 1_555
C2 N2 1_555 1_555
C3 N3 1_555 1_555
C4 H1 1_555 1_555
C5 N5 1_555 1_555
C6 N4 1_555 1_555
H2 C5 1_555 1_555
H3 C6 1_555 1_555
H4 N5 1_555 1_555
Fe1_2 C1G 1_555 1_555
Fe1B C2G 1_555 1_555
Fe1B_2 C2 1_555 1_555
Fe1C C3 1_555 1_555
N1G Zn1 1_555 1_555
N2G Zn1 1_555 1_555
C1G N1G 1_555 1_555
C1G_2 Fe1 1_555 1_555
C2G N2G 1_555 1_555
C2B Fe1 1_555 1_555
C2E Fe1 1_555 1_555
C3C Fe1 1_555 1_555
C5 C6 1_555 1_555

#END
