
#######################################################################
#
#                 Cambridge Crystallographic Data Centre
#                                CCDC 
#
#######################################################################
#
# If this CIF has been generated from an entry in the Cambridge 
# Structural Database, then it will include bibliographic, chemical, 
# crystal, experimental, refinement or atomic coordinate data resulting 
# from the CCDC's data processing and validation procedures.
#
#######################################################################

data_ILUWUH01
_symmetry_cell_setting           monoclinic
_symmetry_space_group_name_H-M   'P 21/c'
_symmetry_Int_Tables_number      14
_space_group_name_Hall           '-P 2ybc'
loop_
_symmetry_equiv_pos_site_id
_symmetry_equiv_pos_as_xyz
1 x,y,z
2 -x,1/2+y,1/2-z
3 -x,-y,-z
4 x,1/2-y,1/2+z
_cell_length_a                   11.6238(4)
_cell_length_b                   5.8212(2)
_cell_length_c                   13.2502(5)
_cell_angle_alpha                90
_cell_angle_beta                 99.864(2)
_cell_angle_gamma                90
_cell_volume                     883.314
loop_
_atom_site_label
_atom_site_type_symbol
_atom_site_fract_x
_atom_site_fract_y
_atom_site_fract_z
C1 C 0.2227(2) -0.1632(6) 0.2551(2)
C2 C 0.1071(3) 0.1840(7) 0.2637(3)
H1 H 0.0768 0.2990 0.3027
C3 C 0.1941(3) -0.1559(7) 0.1487(3)
H2 H 0.2222 -0.2722 0.1089
C4 C 0.0824(3) 0.1904(7) 0.1577(4)
H3 H 0.0363 0.3120 0.1244
C5 C 0.1241(3) 0.0217(8) 0.0997(2)
H4 H 0.1053 0.0261 0.0271
C6 C 0.1764(3) 0.0084(6) 0.3128(2)
O1 O 0.3154(2) -0.3566(5) 0.40386(17)
O2 O 0.35692(19) -0.4680(4) 0.25317(17)
C7 C 0.3023(3) -0.3430(6) 0.3071(2)
Cs1 Cs 0.396221(16) -0.72354(4) 0.566293(15)
O3 O 0.4938(3) -0.7895(5) 0.3670(2)
O4 O 0.1989(2) 0.0042(5) 0.41698(18)
H5 H 0.439(4) -0.706(8) 0.330(4)
H6 H 0.547(3) -0.808(9) 0.328(3)
H7 H 0.233(6) -0.139(15) 0.424(5)
Cs1B Cs 0.603779(16) -0.27646(4) 0.433707(15)
Cs1C Cs 0.396221(16) -0.77646(4) 0.066293(15)
O1B O 0.6846(2) -0.6434(5) 0.59614(17)
O2C O 0.35692(19) -1.0320(4) 0.75317(17)
O2B O 0.64308(19) -0.5320(4) 0.74683(17)
Cs1B_2 Cs 0.603779(16) -1.27646(4) 0.433707(15)
O3B O 0.5062(3) -1.2105(5) 0.6330(2)
O3B_2 O 0.5062(3) -0.2105(5) 0.6330(2)
O4_2 O 0.1989(2) -0.9958(5) 0.41698(18)
Cs1_2 Cs 0.396221(16) 0.27646(4) 0.566293(15)
H5B H 0.561(4) -1.294(8) 0.670(4)
H6B H 0.453(3) -1.192(9) 0.672(3)
H5B_2 H 0.561(4) -0.294(8) 0.670(4)
H6B_2 H 0.453(3) -0.192(9) 0.672(3)
H7_2 H 0.233(6) -1.139(15) 0.424(5)
loop_
_geom_bond_atom_site_label_1
_geom_bond_atom_site_label_2
_geom_bond_site_symmetry_1
_geom_bond_site_symmetry_2
C1 C3 1_555 1_555
C2 H1 1_555 1_555
C3 H2 1_555 1_555
C4 C2 1_555 1_555
H3 C4 1_555 1_555
C5 C3 1_555 1_555
H4 C5 1_555 1_555
C6 C1 1_555 1_555
O1 C7 1_555 1_555
O2 C7 1_555 1_555
C7 C1 1_555 1_555
Cs1 O1 1_555 1_555
O3 Cs1 1_555 1_555
O4 C6 1_555 1_555
H5 O3 1_555 1_555
H6 O3 1_555 1_555
H7 O4 1_555 1_555
Cs1B O1 1_555 1_555
Cs1C O2 1_555 1_555
O1B Cs1 1_555 1_555
O2C Cs1 1_555 1_555
O2B Cs1 1_555 1_555
Cs1B_2 O3 1_555 1_555
O3B Cs1 1_555 1_555
O3B_2 Cs1 1_555 1_555
O4_2 Cs1 1_555 1_555
Cs1_2 O4 1_555 1_555
H5B O3B 1_555 1_555
H6B O3B 1_555 1_555
H5B_2 O3B_2 1_555 1_555
H6B_2 O3B_2 1_555 1_555
H7_2 O4_2 1_555 1_555
C2 C6 1_555 1_555
C4 C5 1_555 1_555
O2 Cs1B 1_555 1_555
O3 Cs1B 1_555 1_555
Cs1B O1B 1_555 1_555
Cs1B O3B_2 1_555 1_555
Cs1B_2 O3B 1_555 1_555
O3B_2 Cs1_2 1_555 1_555

#END
