
#######################################################################
#
#                 Cambridge Crystallographic Data Centre
#                                CCDC 
#
#######################################################################
#
# If this CIF has been generated from an entry in the Cambridge 
# Structural Database, then it will include bibliographic, chemical, 
# crystal, experimental, refinement or atomic coordinate data resulting 
# from the CCDC's data processing and validation procedures.
#
#######################################################################

data_ILUZIZ
_symmetry_cell_setting           monoclinic
_symmetry_space_group_name_H-M   'P 21/n'
_symmetry_Int_Tables_number      14
_space_group_name_Hall           '-P 2yn'
loop_
_symmetry_equiv_pos_site_id
_symmetry_equiv_pos_as_xyz
1 x,y,z
2 1/2-x,1/2+y,1/2-z
3 -x,-y,-z
4 1/2+x,1/2-y,1/2+z
_cell_length_a                   15.235(5)
_cell_length_b                   18.531(5)
_cell_length_c                   19.469(5)
_cell_angle_alpha                90
_cell_angle_beta                 105.849(5)
_cell_angle_gamma                90
_cell_volume                     5287.53
loop_
_atom_site_label
_atom_site_type_symbol
_atom_site_fract_x
_atom_site_fract_y
_atom_site_fract_z
Tb1 Tb 0.238090(12) 0.211010(10) 0.038430(10)
Co1 Co -0.00623(3) 0.08291(3) -0.23708(3)
O1 O 0.1923(2) 0.08573(18) 0.01974(18)
O2 O 0.1395(2) 0.31736(19) 0.02067(19)
O3 O -0.1833(2) 0.21377(16) -0.37257(17)
O4 O 0.3132(2) 0.29581(18) -0.01668(19)
O5 O 0.1629(2) 0.20086(17) -0.08209(16)
O6 O 0.1238(3) 0.19634(19) 0.0995(2)
O7 O 0.3617(3) 0.1507(2) 0.0112(2)
N1 N -0.0503(2) 0.15681(18) -0.31047(18)
O8 O -0.0894(2) -0.05406(16) -0.10817(17)
O9 O 0.0893(2) -0.0351(2) -0.37516(18)
N2 N 0.1175(2) 0.08556(18) -0.23154(17)
N3 N 0.1488(2) -0.01227(19) -0.09384(19)
C1 C 0.1477(3) 0.0472(2) -0.2781(2)
N4 N -0.1288(2) 0.08298(18) -0.23786(18)
O14 O 0.3138(3) 0.1358(2) 0.1412(2)
N5 N -0.0069(2) 0.01352(19) -0.31293(19)
N6 N 0.0325(2) 0.15298(19) -0.15884(18)
N7 N -0.0206(3) 0.1589(2) -0.4232(2)
N8 N 0.0001(2) 0.00769(18) -0.16683(18)
C2 C 0.1494(3) -0.1516(2) -0.1491(2)
H1 H 0.1496 -0.1981 -0.1671
C3 C -0.0777(3) -0.0072(2) -0.1514(2)
C4 C 0.0035(3) 0.1809(2) -0.3548(2)
C5 C -0.0908(3) 0.2231(2) -0.1488(2)
H2 H -0.0896 0.2463 -0.1909
C6 C 0.1216(3) 0.1638(2) -0.1358(2)
C7 C 0.1723(3) 0.1274(2) -0.1816(2)
C8 C -0.1393(3) -0.0505(3) -0.3178(3)
H3 H -0.1217 -0.0500 -0.2681
C9 C -0.1854(3) 0.1290(2) -0.2808(2)
C10 C 0.2258(3) -0.1246(3) -0.0992(2)
H4 H 0.2782 -0.1525 -0.0835
C11 C 0.2224(3) -0.0556(3) -0.0734(2)
H5 H 0.2738 -0.0380 -0.0400
C12 C -0.2763(3) 0.1327(2) -0.2801(2)
H6 H -0.3171 0.1633 -0.3110
C13 C 0.0733(3) 0.0040(2) -0.3280(2)
C14 C 0.0844(3) 0.2184(3) -0.3241(3)
H7 H 0.0963 0.2371 -0.2781
C15 C 0.0756(3) -0.0387(2) -0.1419(2)
C16 C -0.3044(3) 0.0891(3) -0.2320(3)
H8 H -0.3644 0.0915 -0.2295
C17 C -0.1543(3) 0.0402(2) -0.1915(2)
C18 C 0.1644(4) 0.3916(3) 0.0140(3)
H9 H 0.1115 0.4217 0.0077
H10 H 0.2099 0.4060 0.0565
H11 H 0.1884 0.3966 -0.0265
C19 C 0.2638(3) 0.1327(3) -0.1773(2)
H12 H 0.3023 0.1615 -0.1428
N9 N -0.0256(3) 0.1402(3) -0.0542(2)
C20 C -0.2433(3) 0.0419(2) -0.1872(2)
H13 H -0.2621 0.0123 -0.1554
C21 C -0.1928(4) -0.0523(3) -0.4656(3)
H14 H -0.2117 -0.0536 -0.5152
C22 C -0.0869(3) -0.0204(2) -0.3548(3)
C23 C -0.0278(3) 0.1747(2) -0.1182(2)
C24 C 0.0725(3) -0.1078(2) -0.1720(2)
H15 H 0.0207 -0.1238 -0.2060
C25 C 0.0399(3) 0.1705(3) -0.4614(3)
H16 H 0.0236 0.1571 -0.5093
C26 C -0.1565(3) 0.2375(3) -0.1165(3)
H17 H -0.2016 0.2706 -0.1377
C27 C -0.1605(4) 0.2053(3) -0.0531(3)
H18 H -0.2073 0.2162 -0.0325
C28 C 0.2972(3) 0.0937(3) -0.2259(3)
H19 H 0.3586 0.0968 -0.2242
C29 C -0.2175(4) -0.0815(3) -0.3538(4)
H20 H -0.2536 -0.1027 -0.3279
N10 N -0.1097(4) -0.0186(3) -0.4305(3)
C30 C 0.2396(3) 0.0503(3) -0.2769(3)
H21 H 0.2616 0.0240 -0.3093
C32 C 0.1246(4) 0.2011(3) -0.4331(3)
H22 H 0.1664 0.2043 -0.4600
C33 C -0.0934(3) 0.1568(3) -0.0216(3)
H23 H -0.0933 0.1352 0.0216
C34 C 0.1460(4) 0.2268(3) -0.3639(3)
H24 H 0.2016 0.2496 -0.3443
C35 C -0.2474(4) -0.0839(4) -0.4262(4)
H25 H -0.3025 -0.1059 -0.4490
C37 C -0.1394(3) 0.1709(2) -0.3262(2)
H38 H 0.093(4) 0.321(3) 0.015(3)
H39 H 0.114(5) 0.151(5) 0.124(4)
H40 H 0.086(7) 0.224(5) 0.123(5)
H41 H 0.298(5) 0.320(4) -0.052(4)
H42 H 0.175(5) 0.060(4) -0.025(4)
H43 H 0.360(6) 0.320(5) 0.011(5)
H44 H 0.3869 0.1089 0.0290
H45 H 0.276(3) 0.142(3) 0.158(3)
H46 H 0.3973 0.1618 -0.0112
H47 H 0.357(5) 0.155(3) 0.180(4)
H48 H 0.164(6) 0.069(5) 0.045(5)
Tb1C Tb -0.261910(12) 0.288990(10) -0.461570(10)
O3C O 0.3167(2) 0.28623(16) 0.12743(17)
S1 S -0.95792(8) 0.33527(7) -0.59788(7)
O11 O -1.0357(3) 0.3123(3) -0.5755(2)
O12 O -0.9731(3) 0.3975(2) -0.6450(2)
F4 F -1.0344(3) 0.2594(3) -0.7139(2)
F5 F -0.8891(3) 0.2683(3) -0.6921(2)
F6 F -0.9465(4) 0.1976(2) -0.6284(3)
O16 O -0.8718(3) 0.3297(3) -0.5487(3)
C36 C -0.9570(5) 0.2607(4) -0.6618(4)
S2 S -0.05568(8) 0.33599(7) -0.90917(7)
F1 F 0.0417(2) 0.45410(18) -0.87508(18)
F2 F -0.0432(3) 0.4291(2) -0.80669(19)
F3 F -0.1041(3) 0.4715(2) -0.9118(2)
O10 O -0.0389(2) 0.3437(2) -0.9786(2)
O13 O 0.0140(3) 0.29496(19) -0.8588(2)
O15 O -0.1484(2) 0.3200(2) -0.9098(2)
C31 C -0.0397(3) 0.4268(3) -0.8737(3)
O17 O -0.9420(3) 0.5400(2) -0.6030(3)
H26 H -0.9423 0.4962 -0.5969
C40 C -1.0350(6) 0.5652(5) -0.6336(6)
H35 H -1.0719 0.5522 -0.6027
H36 H -1.0595 0.5433 -0.6796
H37 H -1.0349 0.6167 -0.6389
O18 O -0.0567(3) 0.3243(2) -0.2419(2)
H27 H -0.0520 0.2867 -0.2191
C38 C -0.0263(6) 0.3830(4) -0.1945(4)
H28 H -0.0641 0.3868 -0.1624
H29 H -0.0301 0.4268 -0.2213
H30 H 0.0358 0.3749 -0.1676
O19 O -0.2360(2) 0.1173(2) -0.63151(18)
H31 H -0.1965 0.0868 -0.6296
C39 C -0.2536(6) 0.1546(4) -0.6971(3)
H32 H -0.3078 0.1832 -0.7037
H33 H -0.2620 0.1204 -0.7355
H34 H -0.2029 0.1854 -0.6969
loop_
_geom_bond_atom_site_label_1
_geom_bond_atom_site_label_2
_geom_bond_site_symmetry_1
_geom_bond_site_symmetry_2
Tb1 O1 1_555 1_555
Co1 N1 1_555 1_555
S1 O11 1_555 1_555
S2 O10 1_555 1_555
O1 H42 1_555 1_555
O2 Tb1 1_555 1_555
O3 C37 1_555 1_555
O4 Tb1 1_555 1_555
O5 Tb1 1_555 1_555
F1 C31 1_555 1_555
O6 Tb1 1_555 1_555
O7 Tb1 1_555 1_555
N1 C4 1_555 1_555
F2 C31 1_555 1_555
O8 C3 1_555 1_555
O9 C13 1_555 1_555
F3 C31 1_555 1_555
N2 Co1 1_555 1_555
O12 S1 1_555 1_555
N3 C11 1_555 1_555
O13 S2 1_555 1_555
C1 N2 1_555 1_555
N4 Co1 1_555 1_555
O14 Tb1 1_555 1_555
O15 S2 1_555 1_555
F4 C36 1_555 1_555
F5 C36 1_555 1_555
N5 Co1 1_555 1_555
N6 Co1 1_555 1_555
F6 C36 1_555 1_555
O16 S1 1_555 1_555
N7 C4 1_555 1_555
N8 Co1 1_555 1_555
C2 H1 1_555 1_555
C3 N8 1_555 1_555
C4 C14 1_555 1_555
C5 H2 1_555 1_555
C6 O5 1_555 1_555
C7 N2 1_555 1_555
C8 H3 1_555 1_555
C9 N4 1_555 1_555
C10 C2 1_555 1_555
H4 C10 1_555 1_555
C11 C10 1_555 1_555
H5 C11 1_555 1_555
C12 C9 1_555 1_555
H6 C12 1_555 1_555
C13 C1 1_555 1_555
C14 H7 1_555 1_555
C15 N3 1_555 1_555
C16 C12 1_555 1_555
H8 C16 1_555 1_555
C17 N4 1_555 1_555
C18 O2 1_555 1_555
H9 C18 1_555 1_555
H10 C18 1_555 1_555
H11 C18 1_555 1_555
C19 C7 1_555 1_555
H12 C19 1_555 1_555
N9 C23 1_555 1_555
C20 C16 1_555 1_555
H13 C20 1_555 1_555
C21 H14 1_555 1_555
C22 N5 1_555 1_555
C23 N6 1_555 1_555
C24 C2 1_555 1_555
H15 C24 1_555 1_555
C25 N7 1_555 1_555
H16 C25 1_555 1_555
C26 C5 1_555 1_555
H17 C26 1_555 1_555
C27 C26 1_555 1_555
H18 C27 1_555 1_555
C28 C19 1_555 1_555
H19 C28 1_555 1_555
C29 C8 1_555 1_555
H20 C29 1_555 1_555
N10 C21 1_555 1_555
C30 C1 1_555 1_555
H21 C30 1_555 1_555
C31 S2 1_555 1_555
C32 C25 1_555 1_555
H22 C32 1_555 1_555
C33 N9 1_555 1_555
H23 C33 1_555 1_555
C34 C14 1_555 1_555
H24 C34 1_555 1_555
C35 C21 1_555 1_555
H25 C35 1_555 1_555
C36 S1 1_555 1_555
C37 N1 1_555 1_555
O17 H26 1_555 1_555
O18 H27 1_555 1_555
C38 O18 1_555 1_555
H28 C38 1_555 1_555
H29 C38 1_555 1_555
H30 C38 1_555 1_555
O19 H31 1_555 1_555
C39 O19 1_555 1_555
H32 C39 1_555 1_555
H33 C39 1_555 1_555
H34 C39 1_555 1_555
C40 O17 1_555 1_555
H35 C40 1_555 1_555
H36 C40 1_555 1_555
H37 C40 1_555 1_555
H38 O2 1_555 1_555
H39 O6 1_555 1_555
H40 O6 1_555 1_555
H41 O4 1_555 1_555
H43 O4 1_555 1_555
H44 O7 1_555 1_555
H45 O14 1_555 1_555
H46 O7 1_555 1_555
H47 O14 1_555 1_555
H48 O1 1_555 1_555
Tb1C O3 1_555 1_555
O3C Tb1 1_555 1_555
N5 C13 1_555 1_555
N6 C6 1_555 1_555
N8 C15 1_555 1_555
C3 C17 1_555 1_555
C5 C23 1_555 1_555
C6 C7 1_555 1_555
C8 C22 1_555 1_555
C9 C37 1_555 1_555
C15 C24 1_555 1_555
C17 C20 1_555 1_555
C22 N10 1_555 1_555
C27 C33 1_555 1_555
C28 C30 1_555 1_555
C29 C35 1_555 1_555
C32 C34 1_555 1_555

#END
