
#######################################################################
#
#                 Cambridge Crystallographic Data Centre
#                                CCDC 
#
#######################################################################
#
# If this CIF has been generated from an entry in the Cambridge 
# Structural Database, then it will include bibliographic, chemical, 
# crystal, experimental, refinement or atomic coordinate data resulting 
# from the CCDC's data processing and validation procedures.
#
#######################################################################

data_ILUZEV
_symmetry_cell_setting           monoclinic
_symmetry_space_group_name_H-M   'P 21/n'
_symmetry_Int_Tables_number      14
_space_group_name_Hall           '-P 2yn'
loop_
_symmetry_equiv_pos_site_id
_symmetry_equiv_pos_as_xyz
1 x,y,z
2 1/2-x,1/2+y,1/2-z
3 -x,-y,-z
4 1/2+x,1/2-y,1/2+z
_cell_length_a                   15.225(5)
_cell_length_b                   18.546(5)
_cell_length_c                   19.479(5)
_cell_angle_alpha                90
_cell_angle_beta                 105.944(5)
_cell_angle_gamma                90
_cell_volume                     5288.56
loop_
_atom_site_label
_atom_site_type_symbol
_atom_site_fract_x
_atom_site_fract_y
_atom_site_fract_z
Eu1 Eu 0.237830(14) 0.211190(11) 0.038380(11)
Co1 Co 0.49381(4) 0.41791(3) 0.26287(3)
O1 O 0.3128(2) 0.29714(19) -0.01705(18)
O2 O 0.1922(2) 0.08441(18) 0.01996(19)
O3 O 0.6625(2) 0.29941(17) 0.41677(17)
O4 O 0.1372(2) 0.31805(18) 0.02031(18)
O5 O 0.1223(3) 0.1960(2) 0.1000(2)
O6 O 0.3169(2) 0.28671(16) 0.12816(17)
O7 O 0.5893(2) 0.53528(19) 0.12488(18)
O8 O 0.4109(2) 0.55423(17) 0.39200(17)
O10 O 0.3136(3) 0.1364(2) 0.1424(2)
O11 O 0.3632(3) 0.1507(2) 0.0112(3)
N1 N 0.6488(2) 0.5133(2) 0.40623(19)
N2 N 0.6172(2) 0.41517(19) 0.26832(18)
C1 C 0.4128(3) 0.5210(3) 0.1453(3)
N3 N 0.3717(2) 0.41807(18) 0.26223(18)
C2 C 0.2571(3) 0.4588(3) 0.3131(3)
H1 H 0.2387 0.4883 0.3451
N4 N 0.5003(2) 0.49295(19) 0.33319(19)
N5 N 0.4496(2) 0.34425(19) 0.18938(18)
C3 C 0.6483(3) 0.4535(2) 0.2220(2)
C4 C 0.5729(3) 0.4965(2) 0.1722(2)
C5 C 0.1629(4) 0.3923(3) 0.0134(3)
H2 H 0.1101 0.4227 0.0066
H3 H 0.2083 0.4067 0.0560
H4 H 0.1873 0.3968 -0.0269
N6 N 0.4937(2) 0.48752(19) 0.18744(19)
N7 N 0.4801(3) 0.3415(2) 0.0778(2)
C6 C 0.6493(3) 0.6522(3) 0.3510(2)
H5 H 0.6493 0.6987 0.3330
C7 C 0.4229(3) 0.5076(2) 0.3489(2)
C8 C 0.4071(4) 0.3432(3) 0.4782(3)
H6 H 0.4071 0.3647 0.5214
C9 C 0.6721(3) 0.3732(2) 0.3183(2)
C10 C 0.4092(3) 0.2776(2) 0.3510(2)
H7 H 0.4099 0.2549 0.3086
N8 N 0.3609(3) 0.5511(2) 0.1823(3)
C11 C 0.3147(3) 0.3720(2) 0.2194(2)
C12 C 0.5840(3) 0.2821(3) 0.1762(3)
H8 H 0.5958 0.2639 0.2224
C13 C 0.6215(3) 0.3364(2) 0.3640(2)
C14 C 0.1959(3) 0.4116(3) 0.2682(3)
H9 H 0.1357 0.4093 0.2705
C15 C 0.5038(3) 0.3195(2) 0.1455(2)
C16 C 0.2243(3) 0.3679(3) 0.2204(2)
H10 H 0.1836 0.3370 0.1898
C17 C 0.7215(3) 0.5565(3) 0.4268(2)
H11 H 0.7727 0.5391 0.4607
C18 C 0.5403(3) 0.3295(3) 0.0392(3)
H12 H 0.5239 0.3430 -0.0086
C19 C 0.4721(3) 0.3259(2) 0.3812(2)
C20 C 0.7256(3) 0.6251(3) 0.4011(2)
H13 H 0.7783 0.6527 0.4169
C21 C 0.5733(3) 0.6083(2) 0.3284(2)
H14 H 0.5215 0.6244 0.2943
C22 C 0.5757(3) 0.5394(2) 0.3576(2)
C23 C 0.3456(3) 0.4603(2) 0.3083(2)
C24 C 0.3447(4) 0.2628(3) 0.3836(3)
H15 H 0.3001 0.2292 0.3625
N9 N 0.4742(3) 0.3602(3) 0.4453(2)
C25 C 0.7633(3) 0.3676(3) 0.3218(2)
H16 H 0.8019 0.3383 0.3558
C26 C 0.7394(3) 0.4499(3) 0.2231(3)
H17 H 0.7614 0.4762 0.1907
C27 C 0.3067(4) 0.5526(3) 0.0347(3)
H18 H 0.2873 0.5534 -0.0149
C28 C 0.7967(3) 0.4067(3) 0.2734(3)
H19 H 0.8582 0.4036 0.2750
C29 C 0.2826(4) 0.5817(3) 0.1465(4)
H20 H 0.2460 0.6024 0.1723
C32 C 0.6457(4) 0.2726(3) 0.1369(3)
H21 H 0.7008 0.2491 0.1566
C33 C 0.2538(4) 0.5841(3) 0.0748(4)
H22 H 0.1990 0.6067 0.0521
C34 C 0.3898(4) 0.5198(3) 0.0707(3)
H23 H 0.4274 0.4983 0.0462
C35 C 0.3408(4) 0.2944(3) 0.4467(3)
H24 H 0.2942 0.2830 0.4673
C36 C 0.6244(4) 0.2986(3) 0.0672(3)
H25 H 0.6661 0.2950 0.0403
C37 C 0.3608(3) 0.3301(2) 0.1741(2)
N10 N 0.5323(2) 0.34800(19) 0.34071(18)
H38 H 0.0782 0.3225 0.0218
H39 H 0.110(5) 0.148(4) 0.121(4)
H40 H 0.081(5) 0.219(3) 0.113(4)
H41 H 0.327(5) 0.097(4) 0.141(4)
H42 H 0.170(5) 0.066(4) -0.023(4)
H43 H 0.402(4) 0.167(3) -0.014(3)
H44 H 0.387(5) 0.120(4) 0.025(4)
H45 H 0.3007 0.3206 -0.0618
H46 H 0.1535 0.0711 0.0512
H47 H 0.348(3) 0.317(3) 0.003(3)
H48 H 0.3426 0.1674 0.1863
Eu1C Eu 0.737830(14) 0.288810(11) 0.538380(11)
O3C O 0.1625(2) 0.20059(17) -0.08323(17)
S1 S 0.94369(8) 0.33634(7) 0.09173(8)
F1 F 0.9567(2) 0.42947(19) 0.19386(19)
F2 F 0.8949(3) 0.47160(19) 0.0894(2)
O12 O 1.0136(3) 0.29546(19) 0.1416(2)
O14 O 0.9599(2) 0.3438(2) 0.0218(2)
O15 O 0.8513(2) 0.3204(2) 0.0913(2)
C31 C 0.9600(4) 0.4267(3) 0.1269(3)
F6 F 1.0411(2) 0.45427(18) 0.12495(18)
O9 O 0.0275(3) 0.3981(2) 0.3550(2)
O13 O -0.0355(3) 0.3123(2) 0.4241(2)
F3 F 0.1109(3) 0.2686(2) 0.3081(2)
F4 F -0.0341(3) 0.2597(3) 0.2858(2)
F5 F 0.0532(4) 0.1979(2) 0.3713(3)
O16 O 0.1287(3) 0.3298(3) 0.4513(3)
C30 C 0.0424(5) 0.2615(4) 0.3377(4)
S2 S 0.04214(9) 0.33529(8) 0.40162(7)
O17 O 0.2363(2) 0.8827(2) 0.63205(18)
H26 H 0.1987 0.9146 0.6311
C38 C 0.2534(5) 0.8451(4) 0.6972(3)
H28 H 0.3059 0.8146 0.7026
H29 H 0.2013 0.8161 0.6974
H30 H 0.2648 0.8789 0.7360
O18 O 0.9436(3) 0.3240(2) 0.7584(2)
H27 H 0.9410 0.2872 0.7811
C39 C 0.9760(6) 0.3818(4) 0.8063(4)
H31 H 0.9399 0.3852 0.8395
H32 H 0.9715 0.4260 0.7799
H33 H 1.0387 0.3733 0.8318
O19 O 0.0566(3) 0.5394(2) 0.3968(3)
H34 H 0.0587 0.4953 0.3952
C40 C -0.0383(6) 0.5638(5) 0.3653(6)
H35 H -0.0745 0.5524 0.3972
H36 H -0.0632 0.5398 0.3205
H37 H -0.0389 0.6149 0.3577
loop_
_geom_bond_atom_site_label_1
_geom_bond_atom_site_label_2
_geom_bond_site_symmetry_1
_geom_bond_site_symmetry_2
Eu1 O1 1_555 1_555
Co1 N2 1_555 1_555
S1 O12 1_555 1_555
O1 H45 1_555 1_555
O2 Eu1 1_555 1_555
O3 C13 1_555 1_555
O4 Eu1 1_555 1_555
O5 Eu1 1_555 1_555
O6 Eu1 1_555 1_555
O7 C4 1_555 1_555
F1 C31 1_555 1_555
O8 C7 1_555 1_555
O9 S2 1_555 1_555
F2 C31 1_555 1_555
O10 Eu1 1_555 1_555
O11 Eu1 1_555 1_555
N1 C17 1_555 1_555
O13 S2 1_555 1_555
N2 C3 1_555 1_555
C1 N6 1_555 1_555
O14 S1 1_555 1_555
N3 Co1 1_555 1_555
C2 H1 1_555 1_555
F3 C30 1_555 1_555
N4 Co1 1_555 1_555
N5 Co1 1_555 1_555
O15 S1 1_555 1_555
C3 C4 1_555 1_555
C4 N6 1_555 1_555
C5 O4 1_555 1_555
H2 C5 1_555 1_555
H3 C5 1_555 1_555
H4 C5 1_555 1_555
F4 C30 1_555 1_555
N6 Co1 1_555 1_555
N7 C15 1_555 1_555
F5 C30 1_555 1_555
C6 H5 1_555 1_555
C7 N4 1_555 1_555
C8 H6 1_555 1_555
C9 N2 1_555 1_555
C10 H7 1_555 1_555
N8 C1 1_555 1_555
C11 N3 1_555 1_555
C12 H8 1_555 1_555
C13 C9 1_555 1_555
C14 C2 1_555 1_555
H9 C14 1_555 1_555
C15 N5 1_555 1_555
C16 C11 1_555 1_555
H10 C16 1_555 1_555
O16 S2 1_555 1_555
C17 H11 1_555 1_555
C18 N7 1_555 1_555
H12 C18 1_555 1_555
C19 C10 1_555 1_555
C20 C6 1_555 1_555
H13 C20 1_555 1_555
C21 C6 1_555 1_555
H14 C21 1_555 1_555
C22 N1 1_555 1_555
C23 N3 1_555 1_555
C24 C10 1_555 1_555
H15 C24 1_555 1_555
N9 C8 1_555 1_555
C25 C9 1_555 1_555
H16 C25 1_555 1_555
C26 C3 1_555 1_555
H17 C26 1_555 1_555
C27 H18 1_555 1_555
C28 C25 1_555 1_555
H19 C28 1_555 1_555
C29 N8 1_555 1_555
H20 C29 1_555 1_555
C30 S2 1_555 1_555
C31 S1 1_555 1_555
C32 C12 1_555 1_555
H21 C32 1_555 1_555
C33 C27 1_555 1_555
H22 C33 1_555 1_555
C34 C1 1_555 1_555
H23 C34 1_555 1_555
C35 C8 1_555 1_555
H24 C35 1_555 1_555
C36 C18 1_555 1_555
H25 C36 1_555 1_555
C37 O6 1_555 1_555
O17 H26 1_555 1_555
O18 H27 1_555 1_555
C38 O17 1_555 1_555
H28 C38 1_555 1_555
H29 C38 1_555 1_555
H30 C38 1_555 1_555
C39 O18 1_555 1_555
H31 C39 1_555 1_555
H32 C39 1_555 1_555
H33 C39 1_555 1_555
O19 H34 1_555 1_555
C40 O19 1_555 1_555
H35 C40 1_555 1_555
H36 C40 1_555 1_555
H37 C40 1_555 1_555
N10 Co1 1_555 1_555
F6 C31 1_555 1_555
H38 O4 1_555 1_555
H39 O5 1_555 1_555
H40 O5 1_555 1_555
H41 O10 1_555 1_555
H42 O2 1_555 1_555
H43 O11 1_555 1_555
H44 O11 1_555 1_555
H46 O2 1_555 1_555
H47 O1 1_555 1_555
H48 O10 1_555 1_555
Eu1C O3 1_555 1_555
O3C Eu1 1_555 1_555
C2 C23 1_555 1_555
N4 C22 1_555 1_555
N5 C37 1_555 1_555
C7 C23 1_555 1_555
C11 C37 1_555 1_555
C12 C15 1_555 1_555
C13 N10 1_555 1_555
C14 C16 1_555 1_555
C17 C20 1_555 1_555
C19 N9 1_555 1_555
C19 N10 1_555 1_555
C21 C22 1_555 1_555
C24 C35 1_555 1_555
C26 C28 1_555 1_555
C27 C34 1_555 1_555
C29 C33 1_555 1_555
C32 C36 1_555 1_555

#END
