
#######################################################################
#
#                 Cambridge Crystallographic Data Centre
#                                CCDC 
#
#######################################################################
#
# If this CIF has been generated from an entry in the Cambridge 
# Structural Database, then it will include bibliographic, chemical, 
# crystal, experimental, refinement or atomic coordinate data resulting 
# from the CCDC's data processing and validation procedures.
#
#######################################################################

data_IMACZN01
_symmetry_cell_setting           orthorhombic
_symmetry_space_group_name_H-M   'C 2 2 2'
_symmetry_Int_Tables_number      21
_space_group_name_Hall           'C 2 2'
loop_
_symmetry_equiv_pos_site_id
_symmetry_equiv_pos_as_xyz
1 x,y,z
2 -x,-y,z
3 x,-y,-z
4 -x,y,-z
5 1/2+x,1/2+y,z
6 1/2-x,1/2-y,z
7 1/2+x,1/2-y,-z
8 1/2-x,1/2+y,-z
_cell_length_a                   12.9511(18)
_cell_length_b                   17.855(2)
_cell_length_c                   6.6597(8)
_cell_angle_alpha                90
_cell_angle_beta                 90
_cell_angle_gamma                90
_cell_volume                     1540
loop_
_atom_site_label
_atom_site_type_symbol
_atom_site_fract_x
_atom_site_fract_y
_atom_site_fract_z
Zn1 Zn 0.7500 0.2500 0.11981(4)
O1 O 0.66495(16) 0.31603(10) 0.2902(3)
O2 O 0.80602(17) 0.38412(13) 0.3399(5)
O3 O 0.64809(17) 0.19955(11) -0.0514(3)
O4 O 0.6156(3) 0.30575(13) -0.2159(4)
N1 N 0.7078(3) 0.5000 0.5000
N2 N 0.5000 0.23915(16) -0.5000
C1 C 0.6436(2) 0.43494(13) 0.4365(5)
H1 H 0.5928 0.4511 0.3341
H2 H 0.6052 0.4149 0.5534
C2 C 0.7130(2) 0.37445(13) 0.3500(5)
C3 C 0.5420(2) 0.19243(13) -0.3347(4)
H3 H 0.5847 0.1518 -0.3921
H4 H 0.4841 0.1691 -0.2603
C4 C 0.6068(2) 0.23822(14) -0.1908(4)
H7 H 0.746(7) 0.511(6) 0.384(12)
H8 H 0.537(7) 0.277(5) -0.55(2)
Zn1C Zn 0.2500 0.2500 -1.11981(4)
Zn1B Zn 0.7500 0.7500 0.88019(4)
O1B O 0.66495(16) 0.68397(10) 0.7098(3)
O1E O 0.83505(16) 0.18397(10) 0.2902(3)
O2B O 0.80602(17) 0.61588(13) 0.6601(5)
O3C O 0.35191(17) 0.19955(11) -0.9486(3)
O3E O 0.85191(17) 0.30045(11) -0.0514(3)
O4C O 0.3844(3) 0.30575(13) -0.7841(4)
C1B C 0.6436(2) 0.56506(13) 0.5635(5)
H1B H 0.5928 0.5489 0.6659
H2B H 0.6052 0.5851 0.4466
C2B C 0.7130(2) 0.62555(13) 0.6500(5)
C3C C 0.4580(2) 0.19243(13) -0.6653(4)
H3C H 0.4153 0.1518 -0.6079
H4C H 0.5159 0.1691 -0.7397
C4C C 0.3932(2) 0.23822(14) -0.8092(4)
H7B H 0.746(7) 0.489(6) 0.616(12)
H8C H 0.463(7) 0.277(5) -0.45(2)
O5 O 0.7847(8) 0.5533(2) 0.1416(6)
H5 H 0.784(9) 0.597(4) 0.193(19)
H6 H 0.845(3) 0.546(7) 0.09(2)
O6 O 0.5000 0.4240(4) 0.0000
H9 H 0.442(5) 0.450(6) 0.06(3)
H9C H 0.558(5) 0.450(6) -0.06(3)
O7 O 1.0000 0.5000 0.301(3)
H10 H 0.999(12) 0.450(5) 0.23(3)
H10A H 1.001(12) 0.550(5) 0.23(3)
loop_
_geom_bond_atom_site_label_1
_geom_bond_atom_site_label_2
_geom_bond_site_symmetry_1
_geom_bond_site_symmetry_2
Zn1 O1 1_555 1_555
O1 C2 1_555 1_555
O2 C2 1_555 1_555
O3 Zn1 1_555 1_555
O4 C4 1_555 1_555
N1 C1 1_555 1_555
N2 C3 1_555 1_555
C1 H1 1_555 1_555
H2 C1 1_555 1_555
C2 C1 1_555 1_555
C3 H3 1_555 1_555
H4 C3 1_555 1_555
C4 O3 1_555 1_555
O5 H5 1_555 1_555
O6 H9 1_555 1_555
O7 H10 1_555 1_555
H6 O5 1_555 1_555
H7 N1 1_555 1_555
H8 N2 1_555 1_555
Zn1C O3C 1_555 1_555
Zn1B O1B 1_555 1_555
O1B C2B 1_555 1_555
O1E Zn1 1_555 1_555
O2B C2B 1_555 1_555
O3C C4C 1_555 1_555
O3E Zn1 1_555 1_555
O4C C4C 1_555 1_555
C1B N1 1_555 1_555
H1B C1B 1_555 1_555
H2B C1B 1_555 1_555
C2B C1B 1_555 1_555
C3C N2 1_555 1_555
H3C C3C 1_555 1_555
H4C C3C 1_555 1_555
C4C C3C 1_555 1_555
H7B N1 1_555 1_555
H8C N2 1_555 1_555
H9C O6 1_555 1_555
H10A O7 1_555 1_555
C3 C4 1_555 1_555

#END
