
#######################################################################
#
#                 Cambridge Crystallographic Data Centre
#                                CCDC 
#
#######################################################################
#
# If this CIF has been generated from an entry in the Cambridge 
# Structural Database, then it will include bibliographic, chemical, 
# crystal, experimental, refinement or atomic coordinate data resulting 
# from the CCDC's data processing and validation procedures.
#
#######################################################################

data_IMADOQ
_symmetry_cell_setting           monoclinic
_symmetry_space_group_name_H-M   'C 2/m'
_symmetry_Int_Tables_number      12
_space_group_name_Hall           '-C 2y'
loop_
_symmetry_equiv_pos_site_id
_symmetry_equiv_pos_as_xyz
1 x,y,z
2 -x,y,-z
3 1/2+x,1/2+y,z
4 1/2-x,1/2+y,-z
5 -x,-y,-z
6 x,-y,z
7 1/2-x,1/2-y,-z
8 1/2+x,1/2-y,z
_cell_length_a                   17.1133(17)
_cell_length_b                   7.3409(5)
_cell_length_c                   6.3272(5)
_cell_angle_alpha                90
_cell_angle_beta                 107.724(7)
_cell_angle_gamma                90
_cell_volume                     757.138
loop_
_atom_site_label
_atom_site_type_symbol
_atom_site_fract_x
_atom_site_fract_y
_atom_site_fract_z
Co1 Co 0.0000 0.0000 0.5000
N1 N 0.12069(12) 0.0000 0.4561(3)
N2 N 0.18650(14) 0.0000 0.6358(3)
C1 C 0.25951(19) 0.0000 0.6064(5)
H1 H 0.3054 0.0000 0.7316
C2 C 0.2719(2) 0.0000 0.4013(6)
H2 H 0.3246 0.0000 0.3881
C3 C 0.2050(2) 0.0000 0.2196(5)
H3 H 0.2098 0.0000 0.0770
C4 C 0.12946(17) 0.0000 0.2555(4)
H4 H 0.0826 0.0000 0.1331
N3 N 0.03603(9) 0.20648(19) 0.7422(2)
N4 N 0.08403(16) 0.5000 0.9109(4)
C5 C 0.05566(9) 0.3476(2) 0.8144(2)
Co1_2 Co 0.0000 1.0000 0.5000
N1A N -0.12069(12) 0.0000 0.5439(3)
N2A N -0.18650(14) 0.0000 0.3642(3)
C1A C -0.25951(19) 0.0000 0.3936(5)
H1A H -0.3054 0.0000 0.2684
C2A C -0.2719(2) 0.0000 0.5987(6)
H2A H -0.3246 0.0000 0.6119
C3A C -0.2050(2) 0.0000 0.7804(5)
H3A H -0.2098 0.0000 0.9230
C4A C -0.12946(17) 0.0000 0.7445(4)
H4A H -0.0826 0.0000 0.8669
N3E N 0.03603(9) 0.79352(19) 0.7422(2)
N3A N -0.03603(9) 0.20648(19) 0.2578(2)
N3D N -0.03603(9) 0.79352(19) 0.2578(2)
N3D_2 N -0.03603(9) -0.20648(19) 0.2578(2)
N3E_2 N 0.03603(9) -0.20648(19) 0.7422(2)
N4A N -0.08403(16) 0.5000 0.0891(4)
C5E C 0.05566(9) 0.6524(2) 0.8144(2)
C5A C -0.05566(9) 0.3476(2) 0.1856(2)
C5D C -0.05566(9) 0.6524(2) 0.1856(2)
loop_
_geom_bond_atom_site_label_1
_geom_bond_atom_site_label_2
_geom_bond_site_symmetry_1
_geom_bond_site_symmetry_2
Co1 N1 1_555 1_555
N1 N2 1_555 1_555
N2 C1 1_555 1_555
C1 H1 1_555 1_555
C2 C1 1_555 1_555
H2 C2 1_555 1_555
C3 C2 1_555 1_555
H3 C3 1_555 1_555
C4 N1 1_555 1_555
H4 C4 1_555 1_555
N3 Co1 1_555 1_555
N4 C5 1_555 1_555
C5 N3 1_555 1_555
Co1_2 N3E 1_555 1_555
N1A Co1 1_555 1_555
N2A N1A 1_555 1_555
C1A N2A 1_555 1_555
H1A C1A 1_555 1_555
C2A C1A 1_555 1_555
H2A C2A 1_555 1_555
C3A C2A 1_555 1_555
H3A C3A 1_555 1_555
C4A N1A 1_555 1_555
H4A C4A 1_555 1_555
N3E C5E 1_555 1_555
N3A Co1 1_555 1_555
N3D Co1_2 1_555 1_555
N3D_2 Co1 1_555 1_555
N3E_2 Co1 1_555 1_555
N4A C5A 1_555 1_555
C5E N4 1_555 1_555
C5A N3A 1_555 1_555
C5D N3D 1_555 1_555
C3 C4 1_555 1_555
C3A C4A 1_555 1_555
N4A C5D 1_555 1_555

#END
