
#######################################################################
#
#                 Cambridge Crystallographic Data Centre
#                                CCDC 
#
#######################################################################
#
# If this CIF has been generated from an entry in the Cambridge 
# Structural Database, then it will include bibliographic, chemical, 
# crystal, experimental, refinement or atomic coordinate data resulting 
# from the CCDC's data processing and validation procedures.
#
#######################################################################

data_IMAGEJ
_symmetry_cell_setting           monoclinic
_symmetry_space_group_name_H-M   'C 2/c'
_symmetry_Int_Tables_number      15
_space_group_name_Hall           '-C 2yn'
loop_
_symmetry_equiv_pos_site_id
_symmetry_equiv_pos_as_xyz
1 x,y,z
2 -x,y,1/2-z
3 1/2+x,1/2+y,z
4 1/2-x,1/2+y,1/2-z
5 -x,-y,-z
6 x,-y,1/2+z
7 1/2-x,1/2-y,-z
8 1/2+x,1/2-y,1/2+z
_cell_length_a                   20.866(3)
_cell_length_b                   17.281(2)
_cell_length_c                   11.1077(14)
_cell_angle_alpha                90
_cell_angle_beta                 110.479(2)
_cell_angle_gamma                90
_cell_volume                     3752.14
loop_
_atom_site_label
_atom_site_type_symbol
_atom_site_fract_x
_atom_site_fract_y
_atom_site_fract_z
Cu1 Cu 0.2500 0.2500 0.5000
C1 C 0.1525(5) 0.0541(5) -0.0189(8)
H1 H 0.1174 0.0226 -0.0701
C2 C 0.2039(5) 0.0868(5) -0.0551(8)
H2 H 0.2059 0.0765 -0.1359
C3 C 0.2513(4) 0.1338(4) 0.0279(6)
H3 H 0.2871 0.1598 0.0139
C4 C 0.2329(4) 0.1342(4) 0.1468(6)
C5 C 0.2674(3) 0.1722(3) 0.2700(5)
C6 C 0.3240(4) 0.2185(4) 0.2833(6)
H4 H 0.3402 0.2182 0.2152
C7 C 0.3585(3) 0.2647(4) 0.3866(7)
C8 C 0.4224(5) 0.3076(7) 0.3936(12)
C9 C 0.3502(2) 0.2050(3) 0.7475(4)
H5 H 0.3641 0.2561 0.7476
C10 C 0.3833(2) 0.1604(2) 0.8524(4)
H6 H 0.4176 0.1816 0.9227
C11 C 0.2824(2) 0.1052(3) 0.6460(4)
H7 H 0.2470 0.0858 0.5755
C12 C 0.3142(2) 0.0560(3) 0.7447(4)
H8 H 0.3015 0.0042 0.7388
C13 C 0.3651(2) 0.0826(2) 0.8531(4)
C14 C 0.3987(2) 0.0328(3) 0.9625(4)
C15 C 0.3994(2) -0.0447(3) 0.9622(4)
H9 H 0.3756 -0.0718 0.8876
C16 C 0.4772(2) -0.0110(2) 1.1906(3)
F1 F 0.4754(3) 0.2850(4) 0.4785(7)
F2 F 0.4157(3) 0.3806(4) 0.3901(6)
F3 F 0.4390(3) 0.2967(5) 0.2882(7)
N1 N 0.29926(17) 0.1793(2) 0.6450(3)
O1 O 0.24454(18) 0.1613(2) 0.3574(3)
O2 O 0.3436(2) 0.2790(3) 0.4849(4)
S1 S 0.16417(14) 0.08085(15) 0.1324(2)
S2 S 0.44505(6) 0.07644(6) 1.11059(10)
S3 S 0.44462(6) -0.09394(6) 1.10068(9)
Cu1A Cu 0.7500 0.2500 2.0000
C1F C 0.3475(5) 0.4459(5) 1.0189(8)
H1F H 0.3826 0.4774 1.0701
C2F C 0.2961(5) 0.4132(5) 1.0551(8)
H2F H 0.2941 0.4235 1.1359
C3F C 0.2487(4) 0.3662(4) 0.9721(6)
H3F H 0.2129 0.3402 0.9861
C4F C 0.2671(4) 0.3658(4) 0.8532(6)
C5F C 0.2326(3) 0.3278(3) 0.7300(5)
C6F C 0.1760(4) 0.2815(4) 0.7167(6)
H4F H 0.1598 0.2818 0.7848
C7F C 0.1415(3) 0.2353(4) 0.6134(7)
C8F C 0.0776(5) 0.1924(7) 0.6064(12)
C9A C 0.6498(2) 0.2050(3) 1.7525(4)
H5A H 0.6359 0.2561 1.7524
C10A C 0.6167(2) 0.1604(2) 1.6476(4)
H6A H 0.5824 0.1816 1.5773
C11A C 0.7176(2) 0.1052(3) 1.8540(4)
H7A H 0.7530 0.0858 1.9245
C12A C 0.6858(2) 0.0560(3) 1.7553(4)
H8A H 0.6985 0.0042 1.7612
C13A C 0.6349(2) 0.0826(2) 1.6469(4)
C14A C 0.6013(2) 0.0328(3) 1.5375(4)
C15A C 0.6006(2) -0.0447(3) 1.5378(4)
H9A H 0.6244 -0.0718 1.6124
C16A C 0.5228(2) -0.0110(2) 1.3094(3)
F1F F 0.0246(3) 0.2150(4) 0.5215(7)
F2F F 0.0843(3) 0.1194(4) 0.6099(6)
F3F F 0.0610(3) 0.2033(5) 0.7118(7)
N1A N 0.70074(17) 0.1793(2) 1.8550(3)
N1F N 0.20074(17) 0.3207(2) 0.3550(3)
O1F O 0.25546(18) 0.3387(2) 0.6426(3)
O2F O 0.1564(2) 0.2210(3) 0.5151(4)
S1F S 0.33583(14) 0.41915(15) 0.8676(2)
S2A S 0.55495(6) 0.07644(6) 1.38941(10)
S3A S 0.55538(6) -0.09394(6) 1.39932(9)
loop_
_geom_bond_atom_site_label_1
_geom_bond_atom_site_label_2
_geom_bond_site_symmetry_1
_geom_bond_site_symmetry_2
Cu1 N1 1_555 1_555
C1 H1 1_555 1_555
C2 C1 1_555 1_555
H2 C2 1_555 1_555
C3 C2 1_555 1_555
H3 C3 1_555 1_555
C4 C3 1_555 1_555
C5 C4 1_555 1_555
C6 C5 1_555 1_555
H4 C6 1_555 1_555
C7 C6 1_555 1_555
C8 C7 1_555 1_555
C9 H5 1_555 1_555
C10 C9 1_555 1_555
H6 C10 1_555 1_555
C11 H7 1_555 1_555
C12 C11 1_555 1_555
H8 C12 1_555 1_555
C13 C10 1_555 1_555
C14 C13 1_555 1_555
C15 C14 1_555 1_555
H9 C15 1_555 1_555
C16 S2 1_555 1_555
F1 C8 1_555 1_555
F2 C8 1_555 1_555
F3 C8 1_555 1_555
N1 C9 1_555 1_555
O1 Cu1 1_555 1_555
O2 Cu1 1_555 1_555
S1 C1 1_555 1_555
S2 C14 1_555 1_555
S3 C15 1_555 1_555
Cu1A N1A 1_555 1_555
C1F H1F 1_555 1_555
C2F C1F 1_555 1_555
H2F C2F 1_555 1_555
C3F C2F 1_555 1_555
H3F C3F 1_555 1_555
C4F C3F 1_555 1_555
C5F C4F 1_555 1_555
C6F C5F 1_555 1_555
H4F C6F 1_555 1_555
C7F C6F 1_555 1_555
C8F C7F 1_555 1_555
C9A H5A 1_555 1_555
C10A C9A 1_555 1_555
H6A C10A 1_555 1_555
C11A H7A 1_555 1_555
C12A C11A 1_555 1_555
H8A C12A 1_555 1_555
C13A C10A 1_555 1_555
C14A C13A 1_555 1_555
C15A C14A 1_555 1_555
H9A C15A 1_555 1_555
C16A C16 1_555 1_555
F1F C8F 1_555 1_555
F2F C8F 1_555 1_555
F3F C8F 1_555 1_555
N1A C9A 1_555 1_555
N1F Cu1 1_555 1_555
O1F Cu1 1_555 1_555
O2F Cu1 1_555 1_555
S1F C1F 1_555 1_555
S2A C14A 1_555 1_555
S3A C15A 1_555 1_555
C4 S1 1_555 1_555
C5 O1 1_555 1_555
C7 O2 1_555 1_555
C11 N1 1_555 1_555
C12 C13 1_555 1_555
C16 S3 1_555 1_555
C4F S1F 1_555 1_555
C5F O1F 1_555 1_555
C7F O2F 1_555 1_555
C11A N1A 1_555 1_555
C12A C13A 1_555 1_555
C16A S2A 1_555 1_555
C16A S3A 1_555 1_555

#END
