
#######################################################################
#
#                 Cambridge Crystallographic Data Centre
#                                CCDC 
#
#######################################################################
#
# If this CIF has been generated from an entry in the Cambridge 
# Structural Database, then it will include bibliographic, chemical, 
# crystal, experimental, refinement or atomic coordinate data resulting 
# from the CCDC's data processing and validation procedures.
#
#######################################################################

data_IMAWUO
_symmetry_cell_setting           monoclinic
_symmetry_space_group_name_H-M   'P 21/n'
_symmetry_Int_Tables_number      14
_space_group_name_Hall           '-P 2yn'
loop_
_symmetry_equiv_pos_site_id
_symmetry_equiv_pos_as_xyz
1 x,y,z
2 1/2+x,1/2-y,1/2+z
3 -x,-y,-z
4 1/2-x,1/2+y,1/2-z
_cell_length_a                   8.2003(5)
_cell_length_b                   5.8869(4)
_cell_length_c                   18.3769(11)
_cell_angle_alpha                90
_cell_angle_beta                 92.593(1)
_cell_angle_gamma                90
_cell_volume                     886.224
loop_
_atom_site_label
_atom_site_type_symbol
_atom_site_fract_x
_atom_site_fract_y
_atom_site_fract_z
Ag1 Ag 0.96614(4) 0.30337(5) 0.068786(14)
N1 N 1.0312(3) 0.0255(4) 0.13907(12)
N2 N 0.8756(4) 0.1848(5) 0.22781(16)
H1 H 0.8501 0.2943 0.1985
H2 H 0.8380 0.1825 0.2707
C1 C 0.9742(3) 0.0173(5) 0.20657(14)
C2 C 1.0167(4) -0.1640(5) 0.25431(16)
H3 H 0.9777 -0.1676 0.3010
C3 C 1.1154(4) -0.3336(5) 0.2311(2)
H4 H 1.1439 -0.4537 0.2621
C4 C 1.1730(4) -0.3263(6) 0.1615(2)
H5 H 1.2400 -0.4408 0.1448
C5 C 1.1286(4) -0.1455(6) 0.11761(17)
H6 H 1.1674 -0.1402 0.0709
C6 C 0.7231(3) 0.6534(5) 0.05801(15)
C7 C 0.6072(3) 0.8330(5) 0.02803(14)
C8 C 0.5495(5) 0.8268(6) -0.04405(17)
C9 C 0.5568(4) 1.0083(6) 0.07207(16)
O1 O 0.8109(3) 0.5558(4) 0.01196(12)
O2 O 0.7280(3) 0.6081(4) 0.12396(11)
H7 H 0.603(6) 1.016(8) 0.123(2)
H8 H 0.582(7) 0.712(10) -0.074(3)
C9B C 0.4432(4) 0.9917(6) -0.07207(16)
C7B C 0.3928(3) 1.1670(5) -0.02803(14)
C6B C 0.2769(3) 1.3466(5) -0.05801(15)
O1B O 0.1891(3) 1.4442(4) -0.01196(12)
O2B O 0.2720(3) 1.3919(4) -0.12396(11)
C8B C 0.4505(5) 1.1732(6) 0.04405(17)
H8B H 0.418(7) 1.288(10) 0.074(3)
H7B H 0.397(6) 0.984(8) -0.123(2)
Ag1B Ag 0.03386(4) 1.69663(5) -0.068786(14)
N1B N -0.0312(3) 1.9745(4) -0.13907(12)
N2B N 0.1244(4) 1.8152(5) -0.22781(16)
H1B H 0.1499 1.7057 -0.1985
H2B H 0.1620 1.8175 -0.2707
C1B C 0.0258(3) 1.9827(5) -0.20657(14)
C2B C -0.0167(4) 2.1640(5) -0.25431(16)
H3B H 0.0223 2.1676 -0.3010
C3B C -0.1154(4) 2.3336(5) -0.2311(2)
H4B H -0.1439 2.4537 -0.2621
C4B C -0.1730(4) 2.3263(6) -0.1615(2)
H5B H -0.2400 2.4408 -0.1448
C5B C -0.1286(4) 2.1455(6) -0.11761(17)
H6B H -0.1674 2.1402 -0.0709
O1B_2 O 1.1891(3) 0.4442(4) -0.01196(12)
Ag1B_2 Ag 1.03386(4) 0.69663(5) -0.068786(14)
Ag1_2 Ag -0.03386(4) 1.30337(5) 0.068786(14)
O1_2 O -0.1891(3) 1.5558(4) 0.01196(12)
loop_
_geom_bond_atom_site_label_1
_geom_bond_atom_site_label_2
_geom_bond_site_symmetry_1
_geom_bond_site_symmetry_2
Ag1 N1 1_555 1_555
N1 C1 1_555 1_555
N2 H1 1_555 1_555
H2 N2 1_555 1_555
C1 N2 1_555 1_555
C2 C1 1_555 1_555
H3 C2 1_555 1_555
C3 C2 1_555 1_555
H4 C3 1_555 1_555
C4 C3 1_555 1_555
H5 C4 1_555 1_555
C5 N1 1_555 1_555
H6 C5 1_555 1_555
C6 C7 1_555 1_555
C7 C8 1_555 1_555
C8 H8 1_555 1_555
C9 C7 1_555 1_555
O1 Ag1 1_555 1_555
O2 C6 1_555 1_555
H7 C9 1_555 1_555
C9B C8 1_555 1_555
C7B C9B 1_555 1_555
C6B C7B 1_555 1_555
O1B C6B 1_555 1_555
O2B C6B 1_555 1_555
C8B C9 1_555 1_555
H8B C8B 1_555 1_555
H7B C9B 1_555 1_555
Ag1B O1B 1_555 1_555
N1B Ag1B 1_555 1_555
N2B H1B 1_555 1_555
H2B N2B 1_555 1_555
C1B N1B 1_555 1_555
C2B C1B 1_555 1_555
H3B C2B 1_555 1_555
C3B C2B 1_555 1_555
H4B C3B 1_555 1_555
C4B C3B 1_555 1_555
H5B C4B 1_555 1_555
C5B N1B 1_555 1_555
H6B C5B 1_555 1_555
O1B_2 Ag1 1_555 1_555
Ag1B_2 O1 1_555 1_555
Ag1_2 O1B 1_555 1_555
O1_2 Ag1B 1_555 1_555
C4 C5 1_555 1_555
C6 O1 1_555 1_555
C7B C8B 1_555 1_555
N2B C1B 1_555 1_555
C4B C5B 1_555 1_555
O1B_2 Ag1B_2 1_555 1_555
Ag1_2 O1_2 1_555 1_555

#END
