
#######################################################################
#
#                 Cambridge Crystallographic Data Centre
#                                CCDC 
#
#######################################################################
#
# If this CIF has been generated from an entry in the Cambridge 
# Structural Database, then it will include bibliographic, chemical, 
# crystal, experimental, refinement or atomic coordinate data resulting 
# from the CCDC's data processing and validation procedures.
#
#######################################################################

data_IMAXEZ
_symmetry_cell_setting           tetragonal
_symmetry_space_group_name_H-M   'I 41/a'
_symmetry_Int_Tables_number      88
_space_group_name_Hall           '-I 4ad'
loop_
_symmetry_equiv_pos_site_id
_symmetry_equiv_pos_as_xyz
1 x,y,z
2 3/4-y,1/4+x,1/4+z
3 1/2+x,1/2+y,1/2+z
4 1/4-y,3/4+x,3/4+z
5 1/4+y,1/4-x,1/4+z
6 1/2+x,y,1/2-z
7 1/4-y,1/4+x,1/4-z
8 x,1/2+y,-z
9 -x,-y,-z
10 1/4+y,3/4-x,3/4-z
11 1/2-x,1/2-y,1/2-z
12 3/4+y,1/4-x,1/4-z
13 3/4-y,3/4+x,3/4-z
14 1/2-x,-y,1/2+z
15 3/4+y,3/4-x,3/4+z
16 -x,1/2-y,z
_cell_length_a                   22.812(3)
_cell_length_b                   22.812(3)
_cell_length_c                   11.423(3)
_cell_angle_alpha                90
_cell_angle_beta                 90
_cell_angle_gamma                90
_cell_volume                     5944.38
loop_
_atom_site_label
_atom_site_type_symbol
_atom_site_fract_x
_atom_site_fract_y
_atom_site_fract_z
Zn1 Zn 0.2500 0.2500 0.2500
O1 O 0.01271(14) 0.06809(13) 0.1621(3)
N1 N 0.17951(14) 0.24082(14) 0.3615(3)
N2 N 0.25321(15) 0.33777(14) 0.2820(3)
C1 C 0.14999(19) 0.19041(18) 0.3890(4)
C2 C 0.1030(2) 0.2041(2) 0.4685(4)
H1 H 0.0760 0.1774 0.5006
C3 C 0.1049(2) 0.2618(2) 0.4882(4)
H2 H 0.0796 0.2832 0.5370
C4 C 0.1527(2) 0.28520(19) 0.4214(4)
C5 C 0.1714(2) 0.34360(19) 0.4201(4)
H3 H 0.1498 0.3697 0.4669
C6 C 0.21779(19) 0.36767(19) 0.3581(4)
C7 C 0.2360(2) 0.42790(19) 0.3638(4)
H4 H 0.2195 0.4573 0.4112
C8 C 0.28089(19) 0.43435(19) 0.2886(4)
H5 H 0.3011 0.4694 0.2726
C9 C 0.20755(18) 0.12219(18) 0.2632(3)
C10 C 0.16348(19) 0.13444(18) 0.3451(3)
C11 C 0.12824(19) 0.08380(18) 0.3887(4)
C12 C 0.1394(2) 0.0604(2) 0.4988(4)
H6 H 0.1676 0.0783 0.5471
C13 C 0.1101(2) 0.0114(2) 0.5388(4)
H7 H 0.1179 -0.0035 0.6139
C14 C 0.0695(2) -0.0153(2) 0.4684(4)
H8 H 0.0503 -0.0494 0.4945
C15 C 0.0566(2) 0.00750(19) 0.3584(4)
H9 H 0.0286 -0.0110 0.3107
C16 C 0.08512(19) 0.05772(19) 0.3191(4)
C17 C 0.0700(2) 0.0837(2) 0.2000(4)
H10 H 0.0987 0.0701 0.1422
H11 H 0.0729 0.1265 0.2044
C18 C -0.0317(2) 0.1023(2) 0.2165(5)
H12 H -0.0699 0.0901 0.1879
H13 H -0.0300 0.0969 0.3006
H14 H -0.0257 0.1434 0.1980
C9J C 0.29245(18) 0.37781(18) 0.2368(3)
C10J C 0.33652(19) 0.36556(18) 0.1549(3)
C1J C 0.35001(19) 0.30959(18) 0.1110(4)
N1J N 0.32049(14) 0.25918(14) 0.1385(3)
C4J C 0.3473(2) 0.21480(19) 0.0786(4)
C3J C 0.3951(2) 0.2382(2) 0.0118(4)
C2J C 0.3970(2) 0.2959(2) 0.0315(4)
H1J H 0.4240 0.3226 -0.0006
H2J H 0.4204 0.2168 -0.0370
C5J C 0.3286(2) 0.15640(19) 0.0799(4)
H3J H 0.3502 0.1303 0.0331
C6J C 0.28221(19) 0.13233(19) 0.1419(4)
N2J N 0.24679(15) 0.16223(14) 0.2180(3)
C8J C 0.21911(19) 0.06565(19) 0.2114(4)
C7J C 0.2640(2) 0.07210(19) 0.1362(4)
H4J H 0.2805 0.0427 0.0888
H5J H 0.1989 0.0306 0.2274
C11J C 0.37176(19) 0.41620(18) 0.1113(4)
C12J C 0.3606(2) 0.4396(2) 0.0012(4)
H6J H 0.3324 0.4217 -0.0471
C13J C 0.3899(2) 0.4886(2) -0.0388(4)
H7J H 0.3821 0.5035 -0.1139
C14J C 0.4305(2) 0.5153(2) 0.0316(4)
H8J H 0.4497 0.5494 0.0055
C15J C 0.4434(2) 0.49250(19) 0.1416(4)
H9J H 0.4714 0.5110 0.1893
C16J C 0.41488(19) 0.44228(19) 0.1809(4)
C17J C 0.4300(2) 0.4163(2) 0.3000(4)
O1J O 0.48729(14) 0.43191(13) 0.3379(3)
C18J C 0.5317(2) 0.3977(2) 0.2835(5)
H12J H 0.5699 0.4099 0.3121
H13J H 0.5300 0.4031 0.1994
H14J H 0.5257 0.3566 0.3020
H10J H 0.4013 0.4299 0.3578
H11J H 0.4271 0.3735 0.2956
Zn1C Zn 0.0000 0.0000 0.0000
Zn1A Zn 0.5000 0.5000 0.5000
O1D O 0.31809(13) 0.23729(14) 0.4121(3)
O1F O 0.18191(13) 0.26271(14) 0.0879(3)
loop_
_geom_bond_atom_site_label_1
_geom_bond_atom_site_label_2
_geom_bond_site_symmetry_1
_geom_bond_site_symmetry_2
Zn1 N1 1_555 1_555
O1 C17 1_555 1_555
N1 C1 1_555 1_555
N2 Zn1 1_555 1_555
C1 C2 1_555 1_555
C2 H1 1_555 1_555
C3 C2 1_555 1_555
H2 C3 1_555 1_555
C4 N1 1_555 1_555
C5 C4 1_555 1_555
H3 C5 1_555 1_555
C6 N2 1_555 1_555
C7 C6 1_555 1_555
H4 C7 1_555 1_555
C8 C7 1_555 1_555
H5 C8 1_555 1_555
C9 C10 1_555 1_555
C10 C1 1_555 1_555
C11 C10 1_555 1_555
C12 C11 1_555 1_555
H6 C12 1_555 1_555
C13 C12 1_555 1_555
H7 C13 1_555 1_555
C14 C13 1_555 1_555
H8 C14 1_555 1_555
C15 C14 1_555 1_555
H9 C15 1_555 1_555
C16 C11 1_555 1_555
C17 C16 1_555 1_555
H10 C17 1_555 1_555
H11 C17 1_555 1_555
C18 O1 1_555 1_555
H12 C18 1_555 1_555
H13 C18 1_555 1_555
H14 C18 1_555 1_555
C9J N2 1_555 1_555
C10J C9J 1_555 1_555
C1J C10J 1_555 1_555
N1J Zn1 1_555 1_555
C4J N1J 1_555 1_555
C3J C4J 1_555 1_555
C2J C1J 1_555 1_555
H1J C2J 1_555 1_555
H2J C3J 1_555 1_555
C5J C4J 1_555 1_555
H3J C5J 1_555 1_555
C6J C5J 1_555 1_555
N2J Zn1 1_555 1_555
C8J C9 1_555 1_555
C7J C6J 1_555 1_555
H4J C7J 1_555 1_555
H5J C8J 1_555 1_555
C11J C10J 1_555 1_555
C12J C11J 1_555 1_555
H6J C12J 1_555 1_555
C13J C12J 1_555 1_555
H7J C13J 1_555 1_555
C14J C13J 1_555 1_555
H8J C14J 1_555 1_555
C15J C14J 1_555 1_555
H9J C15J 1_555 1_555
C16J C11J 1_555 1_555
C17J C16J 1_555 1_555
O1J C17J 1_555 1_555
C18J O1J 1_555 1_555
H12J C18J 1_555 1_555
H13J C18J 1_555 1_555
H14J C18J 1_555 1_555
H10J C17J 1_555 1_555
H11J C17J 1_555 1_555
Zn1C O1 1_555 1_555
Zn1A O1J 1_555 1_555
O1D Zn1 1_555 1_555
O1F Zn1 1_555 1_555
C3 C4 1_555 1_555
C5 C6 1_555 1_555
C8 C9J 1_555 1_555
C9 N2J 1_555 1_555
C15 C16 1_555 1_555
C1J N1J 1_555 1_555
C3J C2J 1_555 1_555
C6J N2J 1_555 1_555
C8J C7J 1_555 1_555
C15J C16J 1_555 1_555

#END
