
#######################################################################
#
#                 Cambridge Crystallographic Data Centre
#                                CCDC 
#
#######################################################################
#
# If this CIF has been generated from an entry in the Cambridge 
# Structural Database, then it will include bibliographic, chemical, 
# crystal, experimental, refinement or atomic coordinate data resulting 
# from the CCDC's data processing and validation procedures.
#
#######################################################################

data_IMEBUY
_symmetry_cell_setting           triclinic
_symmetry_space_group_name_H-M   'P -1'
_symmetry_Int_Tables_number      2
_space_group_name_Hall           '-P 1'
loop_
_symmetry_equiv_pos_site_id
_symmetry_equiv_pos_as_xyz
1 x,y,z
2 -x,-y,-z
_cell_length_a                   7.2389(18)
_cell_length_b                   8.045(2)
_cell_length_c                   9.157(2)
_cell_angle_alpha                75.421(12)
_cell_angle_beta                 68.092(9)
_cell_angle_gamma                76.021(12)
_cell_volume                     472.316
loop_
_atom_site_label
_atom_site_type_symbol
_atom_site_fract_x
_atom_site_fract_y
_atom_site_fract_z
Mn1 Mn -0.02340(4) 0.25832(3) 0.71891(3)
O1 O -0.2375(2) 0.10822(17) 0.74780(19)
O2 O -0.1969(2) -0.16738(17) 0.87598(17)
O3 O -0.06876(18) -0.30359(16) 0.55157(15)
O4 O -0.25247(19) -0.50478(15) 0.72155(16)
O5 O 0.1990(2) 0.43736(16) 0.66073(17)
H1 H 0.2343 0.4506 0.7320
H2 H 0.1286 0.5257 0.6303
O6 O -0.0876(2) 0.25543(18) 0.97046(16)
H3 H -0.0078 0.2040 1.0248
H4 H -0.1606 0.3319 1.0140
N1 N -0.7656(2) 0.03742(18) 0.71205(18)
C1 C -0.6163(3) 0.0472(2) 0.7611(2)
H7 H -0.6309 0.1413 0.8085
C2 C -0.4410(3) -0.0751(2) 0.7455(2)
C3 C -0.4204(3) -0.2162(2) 0.6757(2)
C4 C -0.5726(3) -0.2260(2) 0.6216(2)
H8 H -0.5612 -0.3180 0.5727
C5 C -0.7408(3) -0.0976(2) 0.6412(2)
H9 H -0.8412 -0.1047 0.6038
C6 C -0.2777(3) -0.0439(2) 0.7950(2)
C7 C -0.2317(3) -0.3522(2) 0.6477(2)
Mn1A Mn 0.02340(4) -0.25832(3) 0.28109(3)
Mn1_2 Mn -0.02340(4) -0.74168(3) 0.71891(3)
Mn1_3 Mn -1.02340(4) 0.25832(3) 0.71891(3)
O3A O 0.06876(18) 0.30359(16) 0.44843(15)
O4_2 O -0.25247(19) 0.49522(15) 0.72155(16)
N1_2 N 0.2344(2) 0.03742(18) 0.71205(18)
O7 O -0.3348(2) 0.54781(18) 1.09462(17)
H5 H -0.4469 0.5484 1.1385
H6 H -0.3004 0.6265 1.0166
loop_
_geom_bond_atom_site_label_1
_geom_bond_atom_site_label_2
_geom_bond_site_symmetry_1
_geom_bond_site_symmetry_2
Mn1 O1 1_555 1_555
O1 C6 1_555 1_555
O2 C6 1_555 1_555
O3 C7 1_555 1_555
O4 C7 1_555 1_555
O5 Mn1 1_555 1_555
H1 O5 1_555 1_555
H2 O5 1_555 1_555
O6 Mn1 1_555 1_555
H3 O6 1_555 1_555
H4 O6 1_555 1_555
O7 H5 1_555 1_555
H6 O7 1_555 1_555
N1 C1 1_555 1_555
C1 H7 1_555 1_555
C2 C1 1_555 1_555
C3 C2 1_555 1_555
C4 C3 1_555 1_555
H8 C4 1_555 1_555
C5 N1 1_555 1_555
H9 C5 1_555 1_555
C6 C2 1_555 1_555
C7 C3 1_555 1_555
Mn1A O3 1_555 1_555
Mn1_2 O4 1_555 1_555
Mn1_3 N1 1_555 1_555
O3A Mn1 1_555 1_555
O4_2 Mn1 1_555 1_555
N1_2 Mn1 1_555 1_555
C4 C5 1_555 1_555

#END
