
#######################################################################
#
#                 Cambridge Crystallographic Data Centre
#                                CCDC 
#
#######################################################################
#
# If this CIF has been generated from an entry in the Cambridge 
# Structural Database, then it will include bibliographic, chemical, 
# crystal, experimental, refinement or atomic coordinate data resulting 
# from the CCDC's data processing and validation procedures.
#
#######################################################################

data_IMECEJ
_symmetry_cell_setting           monoclinic
_symmetry_space_group_name_H-M   'P 21'
_symmetry_Int_Tables_number      4
_space_group_name_Hall           'P 2yb'
loop_
_symmetry_equiv_pos_site_id
_symmetry_equiv_pos_as_xyz
1 x,y,z
2 -x,1/2+y,-z
_cell_length_a                   12.8657(10)
_cell_length_b                   10.4443(8)
_cell_length_c                   14.6512(11)
_cell_angle_alpha                90
_cell_angle_beta                 90.480(1)
_cell_angle_gamma                90
_cell_volume                     1968.66
loop_
_atom_site_label
_atom_site_type_symbol
_atom_site_fract_x
_atom_site_fract_y
_atom_site_fract_z
Pb1 Pb -0.35761(3) 0.64668(4) -0.04464(3)
Pb2 Pb -0.85188(3) 0.83163(4) -0.05172(3)
Pb3 Pb 0.14779(3) 0.45780(4) 0.07787(3)
Pb4 Pb -0.35004(3) 1.01257(4) 0.09401(3)
C1 C -0.3592(12) 0.8485(14) -0.3678(8)
H1 H -0.2943 0.8130 -0.3791
C2 C -0.4178(14) 0.8936(17) -0.4383(9)
H2 H -0.3909 0.8944 -0.4970
C3 C -0.5150(11) 0.9374(14) -0.4235(8)
H3 H -0.5560 0.9642 -0.4724
C4 C -0.5536(9) 0.9426(12) -0.3362(7)
H4 H -0.6210 0.9716 -0.3268
C5 C -0.4924(9) 0.9045(12) -0.2611(7)
C6 C -0.3960(9) 0.8552(11) -0.2782(7)
H5 H -0.3547 0.8260 -0.2301
C7 C -0.4644(8) 0.9419(11) -0.0869(6)
C8 C -0.5383(9) 0.9189(10) -0.1656(6)
H6 H -0.5870 0.9909 -0.1676
C9 C -0.6007(8) 0.7990(11) -0.1432(7)
C10 C 0.0871(11) 0.7109(16) -0.3771(8)
H7 H 0.1091 0.7912 -0.3964
C11 C 0.1012(12) 0.6069(19) -0.4335(10)
H8 H 0.1335 0.6172 -0.4896
C12 C 0.0673(10) 0.4876(15) -0.4067(7)
H9 H 0.0762 0.4169 -0.4444
C13 C 0.0194(9) 0.4742(11) -0.3221(7)
H10 H -0.0027 0.3936 -0.3037
C14 C 0.0038(8) 0.5795(12) -0.2640(7)
C15 C 0.0409(9) 0.6991(11) -0.2921(7)
H11 H 0.0347 0.7700 -0.2541
C16 C 0.0383(8) 0.5302(11) -0.0971(6)
C17 C -0.0447(8) 0.5573(12) -0.1719(7)
H12 H -0.0917 0.4836 -0.1762
C18 C -0.1076(9) 0.6758(11) -0.1407(7)
C19 C -0.1556(9) 0.6822(11) 0.2585(7)
C20 C -0.2528(9) 0.7235(10) 0.2781(8)
H13 H -0.2915 0.7613 0.2314
C21 C -0.2976(10) 0.7132(13) 0.3621(8)
H14 H -0.3651 0.7423 0.3711
C22 C -0.2427(10) 0.6599(13) 0.4329(7)
H15 H -0.2725 0.6522 0.4903
C23 C -0.1426(10) 0.6177(12) 0.4181(7)
H16 H -0.1041 0.5830 0.4661
C24 C -0.0998(9) 0.6267(11) 0.3332(7)
H17 H -0.0328 0.5960 0.3240
C25 C -0.1901(8) 0.6851(11) 0.0888(7)
C26 C -0.1094(8) 0.7056(11) 0.1668(6)
H18 H -0.0882 0.7957 0.1649
C27 C -0.0129(9) 0.6246(12) 0.1420(7)
C28 C -0.6434(10) 0.7112(11) 0.3318(8)
H19 H -0.6080 0.6350 0.3214
C29 C -0.6787(12) 0.7400(13) 0.4172(8)
H20 H -0.6663 0.6836 0.4651
C30 C -0.7313(11) 0.8499(16) 0.4324(9)
H21 H -0.7542 0.8695 0.4908
C31 C -0.7513(8) 0.9342(12) 0.3598(7)
H22 H -0.7892 1.0087 0.3697
C32 C -0.7149(7) 0.9068(10) 0.2745(6)
H23 H -0.7271 0.9632 0.2265
C33 C -0.6611(9) 0.7974(13) 0.2602(7)
C34 C -0.6901(9) 0.7829(12) 0.0870(7)
C35 C -0.6151(8) 0.7612(12) 0.1668(6)
H24 H -0.5983 0.6697 0.1685
C36 C -0.5145(9) 0.8340(13) 0.1443(7)
O1 O -0.3758(5) 0.8896(7) -0.0852(5)
O2 O -0.4956(5) 1.0143(9) -0.0244(4)
O3 O -0.5496(7) 0.7014(8) -0.1155(6)
O4 O -0.6987(6) 0.7975(8) -0.1522(5)
O5 O 0.1250(6) 0.5824(8) -0.0988(5)
O6 O 0.0094(6) 0.4594(9) -0.0318(4)
O7 O -0.0562(6) 0.7604(8) -0.1000(6)
O8 O -0.2032(5) 0.6781(8) -0.1580(5)
O9 O -0.0138(6) 0.5061(9) 0.1599(4)
O10 O 0.0608(7) 0.6803(10) 0.1032(6)
O11 O -0.2237(6) 0.7804(7) 0.0484(5)
O12 O -0.2202(7) 0.5732(9) 0.0723(5)
O13 O -0.4453(6) 0.7815(9) 0.1006(6)
O14 O -0.5070(6) 0.9486(9) 0.1728(5)
O15 O -0.7244(6) 0.6874(8) 0.0424(5)
O16 O -0.7197(7) 0.8959(9) 0.0672(5)
O17 O -0.3025(6) 1.0352(8) 0.2649(5)
H25 H -0.2394 1.0305 0.2821
H26 H -0.3500 1.0478 0.3039
Pb1A Pb -0.64239(3) 1.14668(4) 0.04464(3)
Pb2_2 Pb 0.14812(3) 0.83163(4) -0.05172(3)
Pb2A Pb -0.14812(3) 0.33163(4) 0.05172(3)
Pb3A Pb -0.14779(3) 0.95780(4) -0.07787(3)
Pb4A Pb -0.64996(3) 0.51257(4) -0.09401(3)
O2A O -0.5044(5) 0.5143(9) 0.0244(4)
O3A O -0.4504(7) 1.2014(8) 0.1155(6)
O5_2 O -0.8750(6) 0.5824(8) -0.0988(5)
O6A O -1.0094(6) 0.9594(9) 0.0318(4)
O7_2 O -1.0562(6) 0.7604(8) -0.1000(6)
O7A O 0.0562(6) 0.2604(8) 0.1000(6)
O11A O 0.2237(6) 0.2804(7) -0.0484(5)
O12A O -0.7798(7) 1.0732(9) -0.0723(5)
O16A O -0.2803(7) 0.3959(9) -0.0672(5)
O18 O 0.4870(7) 0.5677(9) -0.3531(5)
H27 H 0.4807 0.4896 -0.3684
H28 H 0.5354 0.6130 -0.3756
loop_
_geom_bond_atom_site_label_1
_geom_bond_atom_site_label_2
_geom_bond_site_symmetry_1
_geom_bond_site_symmetry_2
Pb1 O1 1_555 1_555
Pb2 O4 1_555 1_555
Pb3 O6 1_555 1_555
Pb4 O2 1_555 1_555
C1 H1 1_555 1_555
C2 C1 1_555 1_555
H2 C2 1_555 1_555
C3 C2 1_555 1_555
H3 C3 1_555 1_555
C4 C3 1_555 1_555
H4 C4 1_555 1_555
C5 C4 1_555 1_555
C6 C1 1_555 1_555
H5 C6 1_555 1_555
C7 C8 1_555 1_555
C8 C5 1_555 1_555
H6 C8 1_555 1_555
C9 C8 1_555 1_555
C10 H7 1_555 1_555
C11 C10 1_555 1_555
H8 C11 1_555 1_555
C12 C11 1_555 1_555
H9 C12 1_555 1_555
C13 C12 1_555 1_555
H10 C13 1_555 1_555
C14 C13 1_555 1_555
C15 C10 1_555 1_555
H11 C15 1_555 1_555
C16 C17 1_555 1_555
C17 C14 1_555 1_555
H12 C17 1_555 1_555
C18 C17 1_555 1_555
C19 C20 1_555 1_555
C20 H13 1_555 1_555
C21 C20 1_555 1_555
H14 C21 1_555 1_555
C22 C21 1_555 1_555
H15 C22 1_555 1_555
C23 C22 1_555 1_555
H16 C23 1_555 1_555
C24 C19 1_555 1_555
H17 C24 1_555 1_555
C25 C26 1_555 1_555
C26 C19 1_555 1_555
H18 C26 1_555 1_555
C27 C26 1_555 1_555
C28 H19 1_555 1_555
C29 C28 1_555 1_555
H20 C29 1_555 1_555
C30 C29 1_555 1_555
H21 C30 1_555 1_555
C31 C30 1_555 1_555
H22 C31 1_555 1_555
C32 C31 1_555 1_555
H23 C32 1_555 1_555
C33 C28 1_555 1_555
C34 C35 1_555 1_555
C35 C33 1_555 1_555
H24 C35 1_555 1_555
C36 C35 1_555 1_555
O1 C7 1_555 1_555
O2 C7 1_555 1_555
O3 Pb1 1_555 1_555
O4 C9 1_555 1_555
O5 C16 1_555 1_555
O6 C16 1_555 1_555
O7 C18 1_555 1_555
O8 Pb1 1_555 1_555
O9 Pb3 1_555 1_555
O10 Pb3 1_555 1_555
O11 Pb1 1_555 1_555
O12 Pb1 1_555 1_555
O13 Pb1 1_555 1_555
O14 Pb4 1_555 1_555
O15 Pb2 1_555 1_555
O16 Pb2 1_555 1_555
O17 Pb4 1_555 1_555
H25 O17 1_555 1_555
H26 O17 1_555 1_555
O18 H27 1_555 1_555
H28 O18 1_555 1_555
Pb1A O2 1_555 1_555
Pb2_2 O5 1_555 1_555
Pb2A O6 1_555 1_555
Pb3A O7 1_555 1_555
Pb4A O3 1_555 1_555
O2A Pb1 1_555 1_555
O3A Pb4 1_555 1_555
O5_2 Pb2 1_555 1_555
O6A Pb2 1_555 1_555
O7_2 Pb2 1_555 1_555
O7A Pb3 1_555 1_555
O11A Pb3 1_555 1_555
O12A Pb2 1_555 1_555
O16A Pb1 1_555 1_555
Pb4 O13 1_555 1_555
C5 C6 1_555 1_555
C9 O3 1_555 1_555
C14 C15 1_555 1_555
C18 O8 1_555 1_555
C23 C24 1_555 1_555
C25 O11 1_555 1_555
C25 O12 1_555 1_555
C27 O9 1_555 1_555
C27 O10 1_555 1_555
C32 C33 1_555 1_555
C34 O15 1_555 1_555
C34 O16 1_555 1_555
C36 O13 1_555 1_555
C36 O14 1_555 1_555
O7 Pb2_2 1_555 1_555
O11 Pb3A 1_555 1_555
O12 Pb2A 1_555 1_555
O16 Pb1A 1_555 1_555
Pb1A O3A 1_555 1_555
Pb1A O12A 1_555 1_555
Pb2A O7A 1_555 1_555
Pb2A O16A 1_555 1_555
Pb4A O2A 1_555 1_555

#END
