
#######################################################################
#
#                 Cambridge Crystallographic Data Centre
#                                CCDC 
#
#######################################################################
#
# If this CIF has been generated from an entry in the Cambridge 
# Structural Database, then it will include bibliographic, chemical, 
# crystal, experimental, refinement or atomic coordinate data resulting 
# from the CCDC's data processing and validation procedures.
#
#######################################################################

data_IMEDEJ
_symmetry_cell_setting           triclinic
_symmetry_space_group_name_H-M   'P -1'
_symmetry_Int_Tables_number      2
_space_group_name_Hall           '-P 1'
loop_
_symmetry_equiv_pos_site_id
_symmetry_equiv_pos_as_xyz
1 x,y,z
2 -x,-y,-z
_cell_length_a                   7.761(1)
_cell_length_b                   10.574(1)
_cell_length_c                   12.168(2)
_cell_angle_alpha                88.338(2)
_cell_angle_beta                 77.856(2)
_cell_angle_gamma                69.773(2)
_cell_volume                     914.974
loop_
_atom_site_label
_atom_site_type_symbol
_atom_site_fract_x
_atom_site_fract_y
_atom_site_fract_z
Co1 Co 0.5000 0.5000 0.5000
Co2 Co -0.18186(12) 0.73003(9) 0.71386(7)
O1 O 0.2670(6) 0.6119(4) 0.4369(4)
O2 O 0.0390(6) 0.6299(5) 0.5862(4)
O3 O -0.0528(8) 1.1855(5) 0.2398(5)
O4 O 0.1970(7) 1.0728(5) 0.3074(4)
O5 O -0.3577(6) 0.7225(5) 0.6139(4)
O6 O -0.3800(6) 0.6534(4) 0.4491(3)
O7 O 0.3915(6) 0.5983(4) 0.6579(3)
H1 H 0.4667 0.5672 0.6986
H2 H 0.2740 0.6662 0.6728
N1 N -0.4008(8) 0.7895(6) 0.8644(5)
N2 N -0.1142(8) 0.5577(6) 0.8083(5)
C1 C -0.3303(13) 0.4846(9) 1.0940(6)
H3 H -0.3153 0.4153 1.1439
C2 C -0.4702(14) 0.6028(10) 1.1238(7)
H4 H -0.5478 0.6152 1.1951
C3 C -0.6728(12) 0.9299(9) 0.9925(7)
H5 H -0.7747 1.0104 1.0062
C4 C -0.6508(12) 0.8339(10) 1.0714(7)
H6 H -0.7345 0.8506 1.1408
C5 C -0.5397(11) 0.9051(8) 0.8906(7)
H7 H -0.5501 0.9731 0.8395
C6 C 0.0597(12) 0.3313(8) 0.8471(7)
H8 H 0.1592 0.2514 0.8228
C7 C -0.0558(12) 0.3428(8) 0.9506(7)
H9 H -0.0358 0.2702 0.9972
C8 C -0.5025(11) 0.7110(8) 1.0474(6)
C9 C -0.2296(10) 0.5684(7) 0.9114(5)
C10 C -0.2035(11) 0.4633(8) 0.9864(6)
C11 C -0.0257(8) 0.7799(6) 0.4386(5)
C12 C -0.3824(10) 0.6941(7) 0.9414(5)
C13 C 0.0258(10) 0.4420(7) 0.7779(6)
H10 H 0.1051 0.4336 0.7075
C14 C -0.2159(9) 0.8047(6) 0.4458(5)
C15 C 0.0368(11) 1.0866(7) 0.2901(6)
C16 C 0.1009(8) 0.6645(6) 0.4908(5)
C17 C 0.0556(9) 0.8697(6) 0.3830(5)
H11 H 0.1832 0.8525 0.3772
C18 C -0.3204(9) 0.9170(7) 0.3932(5)
H12 H -0.4458 0.9315 0.3939
C19 C -0.2383(10) 1.0046(7) 0.3412(6)
H13 H -0.3103 1.0794 0.3086
C20 C -0.3225(8) 0.7180(6) 0.5065(5)
C21 C -0.0507(9) 0.9848(6) 0.3359(5)
Co1_2 Co -0.5000 0.5000 0.5000
Co1_3 Co 1.5000 0.5000 0.5000
Co2A Co 1.18186(12) 0.26997(9) 0.28614(7)
Co2A_2 Co 0.18186(12) 1.26997(9) 0.28614(7)
Co2_2 Co 0.81814(12) -0.26997(9) 0.71386(7)
O1A O 0.7330(6) 0.3881(4) 0.5631(4)
O2A O 0.9610(6) 0.3701(5) 0.4138(4)
O3A O 1.0528(8) -0.1855(5) 0.7602(5)
O4A O 0.8030(7) -0.0728(5) 0.6926(4)
O4A_2 O -0.1970(7) 0.9272(5) 0.6926(4)
O4_2 O 1.1970(7) 0.0728(5) 0.3074(4)
O5A O 1.3577(6) 0.2775(5) 0.3861(4)
O6A O 1.3800(6) 0.3466(4) 0.5509(3)
O6_2 O 0.6200(6) 0.6534(4) 0.4491(3)
O6A_2 O 0.3800(6) 0.3466(4) 0.5509(3)
O7A O 0.6085(6) 0.4017(4) 0.3421(3)
H1A H 0.5333 0.4328 0.3014
H2A H 0.7260 0.3338 0.3272
N1A N 1.4008(8) 0.2105(6) 0.1356(5)
N2A N 1.1142(8) 0.4423(6) 0.1917(5)
C1A C 1.3303(13) 0.5154(9) -0.0940(6)
H3A H 1.3153 0.5847 -0.1439
C2A C 1.4702(14) 0.3972(10) -0.1238(7)
H4A H 1.5478 0.3848 -0.1951
C3A C 1.6728(12) 0.0701(9) 0.0075(7)
H5A H 1.7747 -0.0104 -0.0062
C4A C 1.6508(12) 0.1661(10) -0.0714(7)
H6A H 1.7345 0.1494 -0.1408
C5A C 1.5397(11) 0.0949(8) 0.1094(7)
H7A H 1.5501 0.0269 0.1605
C6A C 0.9403(12) 0.6687(8) 0.1529(7)
H8A H 0.8408 0.7486 0.1772
C7A C 1.0558(12) 0.6572(8) 0.0494(7)
H9A H 1.0358 0.7298 0.0028
C8A C 1.5025(11) 0.2890(8) -0.0474(6)
C9A C 1.2296(10) 0.4316(7) 0.0886(5)
C10A C 1.2035(11) 0.5367(8) 0.0136(6)
C11A C 1.0257(8) 0.2201(6) 0.5614(5)
C12A C 1.3824(10) 0.3059(7) 0.0586(5)
C13A C 0.9742(10) 0.5580(7) 0.2221(6)
H10A H 0.8949 0.5664 0.2925
C14A C 1.2159(9) 0.1953(6) 0.5542(5)
C15A C 0.9632(11) -0.0866(7) 0.7099(6)
C16A C 0.8991(8) 0.3355(6) 0.5092(5)
C17A C 0.9444(9) 0.1303(6) 0.6170(5)
H11A H 0.8168 0.1475 0.6228
C18A C 1.3204(9) 0.0830(7) 0.6068(5)
H12A H 1.4458 0.0685 0.6061
C19A C 1.2383(10) -0.0046(7) 0.6588(6)
H13A H 1.3103 -0.0794 0.6914
C20A C 1.3225(8) 0.2820(6) 0.4935(5)
C21A C 1.0507(9) 0.0152(6) 0.6641(5)
loop_
_geom_bond_atom_site_label_1
_geom_bond_atom_site_label_2
_geom_bond_site_symmetry_1
_geom_bond_site_symmetry_2
Co1 O1 1_555 1_555
Co2 O2 1_555 1_555
O1 C16 1_555 1_555
O2 C16 1_555 1_555
O3 C15 1_555 1_555
O4 C15 1_555 1_555
O5 Co2 1_555 1_555
O6 C20 1_555 1_555
O7 Co1 1_555 1_555
H1 O7 1_555 1_555
H2 O7 1_555 1_555
N1 Co2 1_555 1_555
N2 Co2 1_555 1_555
C1 H3 1_555 1_555
C2 C1 1_555 1_555
H4 C2 1_555 1_555
C3 H5 1_555 1_555
C4 C3 1_555 1_555
H6 C4 1_555 1_555
C5 N1 1_555 1_555
H7 C5 1_555 1_555
C6 H8 1_555 1_555
C7 C6 1_555 1_555
H9 C7 1_555 1_555
C8 C2 1_555 1_555
C9 N2 1_555 1_555
C10 C1 1_555 1_555
C11 C14 1_555 1_555
C12 N1 1_555 1_555
C13 N2 1_555 1_555
H10 C13 1_555 1_555
C14 C18 1_555 1_555
C15 C21 1_555 1_555
C16 C11 1_555 1_555
C17 C11 1_555 1_555
H11 C17 1_555 1_555
C18 H12 1_555 1_555
C19 C18 1_555 1_555
H13 C19 1_555 1_555
C20 O5 1_555 1_555
C21 C17 1_555 1_555
Co1_2 O6 1_555 1_555
Co1_3 O6A 1_555 1_555
Co2A O2A 1_555 1_555
Co2A_2 O4 1_555 1_555
Co2_2 O4A 1_555 1_555
O1A Co1 1_555 1_555
O2A C16A 1_555 1_555
O3A C15A 1_555 1_555
O4A C15A 1_555 1_555
O4A_2 Co2 1_555 1_555
O4_2 Co2A 1_555 1_555
O5A Co2A 1_555 1_555
O6A C20A 1_555 1_555
O6_2 Co1 1_555 1_555
O6A_2 Co1 1_555 1_555
O7A Co1 1_555 1_555
H1A O7A 1_555 1_555
H2A O7A 1_555 1_555
N1A Co2A 1_555 1_555
N2A Co2A 1_555 1_555
C1A H3A 1_555 1_555
C2A C1A 1_555 1_555
H4A C2A 1_555 1_555
C3A H5A 1_555 1_555
C4A C3A 1_555 1_555
H6A C4A 1_555 1_555
C5A N1A 1_555 1_555
H7A C5A 1_555 1_555
C6A H8A 1_555 1_555
C7A C6A 1_555 1_555
H9A C7A 1_555 1_555
C8A C2A 1_555 1_555
C9A N2A 1_555 1_555
C10A C1A 1_555 1_555
C11A C14A 1_555 1_555
C12A N1A 1_555 1_555
C13A N2A 1_555 1_555
H10A C13A 1_555 1_555
C14A C18A 1_555 1_555
C15A C21A 1_555 1_555
C16A O1A 1_555 1_555
C17A C11A 1_555 1_555
H11A C17A 1_555 1_555
C18A H12A 1_555 1_555
C19A C18A 1_555 1_555
H13A C19A 1_555 1_555
C20A O5A 1_555 1_555
C21A C17A 1_555 1_555
C3 C5 1_555 1_555
C4 C8 1_555 1_555
C6 C13 1_555 1_555
C7 C10 1_555 1_555
C8 C12 1_555 1_555
C9 C10 1_555 1_555
C9 C12 1_555 1_555
C14 C20 1_555 1_555
C19 C21 1_555 1_555
C3A C5A 1_555 1_555
C4A C8A 1_555 1_555
C6A C13A 1_555 1_555
C7A C10A 1_555 1_555
C8A C12A 1_555 1_555
C9A C10A 1_555 1_555
C9A C12A 1_555 1_555
C11A C16A 1_555 1_555
C14A C20A 1_555 1_555
C19A C21A 1_555 1_555

#END
