
#######################################################################
#
#                 Cambridge Crystallographic Data Centre
#                                CCDC 
#
#######################################################################
#
# If this CIF has been generated from an entry in the Cambridge 
# Structural Database, then it will include bibliographic, chemical, 
# crystal, experimental, refinement or atomic coordinate data resulting 
# from the CCDC's data processing and validation procedures.
#
#######################################################################

data_IMEFAI01
_symmetry_cell_setting           triclinic
_symmetry_space_group_name_H-M   'P -1'
_symmetry_Int_Tables_number      2
_space_group_name_Hall           '-P 1'
loop_
_symmetry_equiv_pos_site_id
_symmetry_equiv_pos_as_xyz
1 x,y,z
2 -x,-y,-z
_cell_length_a                   7.7480(5)
_cell_length_b                   8.4834(7)
_cell_length_c                   10.6320(8)
_cell_angle_alpha                70.992(7)
_cell_angle_beta                 87.879(6)
_cell_angle_gamma                70.382(6)
_cell_volume                     620.319
loop_
_atom_site_label
_atom_site_type_symbol
_atom_site_fract_x
_atom_site_fract_y
_atom_site_fract_z
Gd1 Gd -0.16597(3) 0.27563(3) 0.39057(2)
S1 S 0.21201(19) 0.30645(18) 0.19001(12)
O1 O 0.0650(5) 0.0185(5) 0.3731(4)
O2 O 0.2678(6) -0.2369(5) 0.3858(4)
O3 O 0.0229(5) 0.3815(5) 0.2211(4)
O4 O 0.3342(6) 0.2019(6) 0.3101(4)
O5 O 0.2759(7) 0.4415(6) 0.1000(4)
O6 O 0.0834(5) 0.2737(5) 0.5227(4)
O7 O 0.2075(5) 0.4372(5) 0.5933(4)
O8 O -0.5011(6) 0.4331(5) 0.3818(4)
H1 H -0.5642 0.4064 0.3335
H2 H -0.5294 0.5450 0.3589
O9 O -0.3244(6) 0.3991(6) 0.1662(4)
H3 H -0.4407 0.4414 0.1658
H4 H -0.3023 0.4563 0.0892
O10 O -0.3136(6) 0.0730(5) 0.3881(4)
H5 H -0.4286 0.1111 0.3957
H6 H -0.2632 -0.0303 0.4441
C1 C 0.1804(7) -0.0785(7) 0.3195(5)
C2 C 0.2106(8) -0.0135(7) 0.1747(5)
C3 C 0.2133(8) 0.1556(7) 0.1064(5)
C4 C 0.2331(10) 0.2048(8) -0.0300(6)
H7 H 0.2359 0.3178 -0.0756
C5 C 0.2486(13) 0.0892(10) -0.0986(6)
H8 H 0.2594 0.1244 -0.1901
C6 C 0.2482(13) -0.0771(9) -0.0316(7)
H9 H 0.2606 -0.1565 -0.0772
C7 C 0.2294(11) -0.1288(8) 0.1040(6)
H10 H 0.2293 -0.2430 0.1486
C8 C 0.0848(7) 0.4155(6) 0.5343(5)
O6A O -0.0834(5) 0.7263(5) 0.4773(4)
O7A O -0.2075(5) 0.5628(5) 0.4067(4)
C8A C -0.0848(7) 0.5845(6) 0.4657(5)
Gd1A Gd 0.16597(3) -0.27563(3) 0.60943(2)
S1A S -0.21201(19) -0.30645(18) 0.80999(12)
O1A O -0.0650(5) -0.0185(5) 0.6269(4)
O2A O -0.2678(6) 0.2369(5) 0.6142(4)
O3A O -0.0229(5) -0.3815(5) 0.7789(4)
O4A O -0.3342(6) -0.2019(6) 0.6899(4)
O5A O -0.2759(7) -0.4415(6) 0.9000(4)
O8A O 0.5011(6) -0.4331(5) 0.6182(4)
H1A H 0.5642 -0.4064 0.6665
H2A H 0.5294 -0.5450 0.6411
O9A O 0.3244(6) -0.3991(6) 0.8338(4)
H3A H 0.4407 -0.4414 0.8342
H4A H 0.3023 -0.4563 0.9108
O10A O 0.3136(6) -0.0730(5) 0.6119(4)
H5A H 0.4286 -0.1111 0.6043
H6A H 0.2632 0.0303 0.5559
C1A C -0.1804(7) 0.0785(7) 0.6805(5)
C2A C -0.2106(8) 0.0135(7) 0.8253(5)
C3A C -0.2133(8) -0.1556(7) 0.8936(5)
C4A C -0.2331(10) -0.2048(8) 1.0300(6)
H7A H -0.2359 -0.3178 1.0756
C5A C -0.2486(13) -0.0892(10) 1.0986(6)
H8A H -0.2594 -0.1244 1.1901
C6A C -0.2482(13) 0.0771(9) 1.0316(7)
H9A H -0.2606 0.1565 1.0772
C7A C -0.2294(11) 0.1288(8) 0.8960(6)
H10A H -0.2293 0.2430 0.8514
Gd1A_2 Gd 0.16597(3) 0.72437(3) 0.60943(2)
O6A_2 O -0.0834(5) -0.2737(5) 0.4773(4)
O7_2 O 0.2075(5) -0.5628(5) 0.5933(4)
loop_
_geom_bond_atom_site_label_1
_geom_bond_atom_site_label_2
_geom_bond_site_symmetry_1
_geom_bond_site_symmetry_2
Gd1 O1 1_555 1_555
S1 O3 1_555 1_555
O1 C1 1_555 1_555
O2 C1 1_555 1_555
O3 Gd1 1_555 1_555
O4 S1 1_555 1_555
O5 S1 1_555 1_555
O6 Gd1 1_555 1_555
O7 C8 1_555 1_555
O8 Gd1 1_555 1_555
H1 O8 1_555 1_555
H2 O8 1_555 1_555
O9 Gd1 1_555 1_555
H3 O9 1_555 1_555
H4 O9 1_555 1_555
O10 Gd1 1_555 1_555
H5 O10 1_555 1_555
H6 O10 1_555 1_555
C1 C2 1_555 1_555
C2 C3 1_555 1_555
C3 S1 1_555 1_555
C4 C3 1_555 1_555
H7 C4 1_555 1_555
C5 C4 1_555 1_555
H8 C5 1_555 1_555
C6 C5 1_555 1_555
H9 C6 1_555 1_555
C7 C2 1_555 1_555
H10 C7 1_555 1_555
C8 O6 1_555 1_555
O6A C8A 1_555 1_555
O7A Gd1 1_555 1_555
C8A C8 1_555 1_555
Gd1A O1 1_555 1_555
S1A O3A 1_555 1_555
O1A Gd1 1_555 1_555
O2A Gd1 1_555 1_555
O3A Gd1A 1_555 1_555
O4A S1A 1_555 1_555
O5A S1A 1_555 1_555
O8A Gd1A 1_555 1_555
H1A O8A 1_555 1_555
H2A O8A 1_555 1_555
O9A Gd1A 1_555 1_555
H3A O9A 1_555 1_555
H4A O9A 1_555 1_555
O10A Gd1A 1_555 1_555
H5A O10A 1_555 1_555
H6A O10A 1_555 1_555
C1A O1A 1_555 1_555
C2A C1A 1_555 1_555
C3A S1A 1_555 1_555
C4A C3A 1_555 1_555
H7A C4A 1_555 1_555
C5A C4A 1_555 1_555
H8A C5A 1_555 1_555
C6A C5A 1_555 1_555
H9A C6A 1_555 1_555
C7A C2A 1_555 1_555
H10A C7A 1_555 1_555
Gd1A_2 O7 1_555 1_555
O6A_2 Gd1A 1_555 1_555
O7_2 Gd1A 1_555 1_555
O2 Gd1A 1_555 1_555
C6 C7 1_555 1_555
O6A Gd1A_2 1_555 1_555
O7A C8A 1_555 1_555
Gd1A O1A 1_555 1_555
O2A C1A 1_555 1_555
C2A C3A 1_555 1_555
C6A C7A 1_555 1_555

#END
