
#######################################################################
#
#                 Cambridge Crystallographic Data Centre
#                                CCDC 
#
#######################################################################
#
# If this CIF has been generated from an entry in the Cambridge 
# Structural Database, then it will include bibliographic, chemical, 
# crystal, experimental, refinement or atomic coordinate data resulting 
# from the CCDC's data processing and validation procedures.
#
#######################################################################

data_IMEGEN
_symmetry_cell_setting           monoclinic
_symmetry_space_group_name_H-M   'C 2/c'
_symmetry_Int_Tables_number      15
_space_group_name_Hall           '-C 2yn'
loop_
_symmetry_equiv_pos_site_id
_symmetry_equiv_pos_as_xyz
1 x,y,z
2 -x,y,1/2-z
3 1/2+x,1/2+y,z
4 1/2-x,1/2+y,1/2-z
5 -x,-y,-z
6 x,-y,1/2+z
7 1/2-x,1/2-y,-z
8 1/2+x,1/2-y,1/2+z
_cell_length_a                   11.060(2)
_cell_length_b                   22.220(4)
_cell_length_c                   12.208(2)
_cell_angle_alpha                90
_cell_angle_beta                 95.87(3)
_cell_angle_gamma                90
_cell_volume                     2984.42
loop_
_atom_site_label
_atom_site_type_symbol
_atom_site_fract_x
_atom_site_fract_y
_atom_site_fract_z
Cu1 Cu 0.0000 0.626444(15) 0.7500
Cu2 Cu 0.0000 1.127200(16) 0.7500
S1 S 0.26518(6) 0.60462(3) 0.88780(5)
N1 N 0.0000 1.03688(12) 0.7500
N2 N 0.0000 0.21808(12) 0.7500
N3 N 0.0000 0.71719(12) 0.7500
N4 N 0.0000 0.53708(12) 0.7500
C1 C 0.0623(2) 0.81057(10) 0.8353(2)
H1 H 0.1047 0.8305 0.8943
C2 C -0.0712(2) 1.00574(11) 0.6752(2)
H2 H -0.1211 1.0268 0.6225
C3 C 0.0000 0.34460(14) 0.7500
C4 C 0.0608(2) 0.74843(10) 0.8322(2)
H3 H 0.1038 0.7273 0.8893
C5 C 0.0764(2) 0.50599(10) 0.6931(2)
H4 H 0.1304 0.5271 0.6538
C6 C -0.0949(3) 0.31159(11) 0.7864(2)
H5 H -0.1605 0.3314 0.8120
C7 C 0.0000 0.91052(14) 0.7500
C8 C -0.0738(2) 0.94350(11) 0.6730(2)
H6 H -0.1251 0.9237 0.6196
C9 C -0.0919(2) 0.24948(11) 0.7847(2)
H7 H -0.1570 0.2285 0.8088
C10 C 0.0784(2) 0.44386(10) 0.6904(2)
H8 H 0.1320 0.4239 0.6489
C11 C 0.0000 0.84347(14) 0.7500
C12 C 0.0000 0.41118(14) 0.7500
C13 C -0.2031(3) 1.10414(14) 0.4427(2)
H9 H -0.2183 1.1180 0.3672
H10 H -0.1281 1.0812 0.4497
C14 C -0.1919(3) 1.15679(12) 0.5193(3)
H11 H -0.1272 1.1830 0.5002
H12 H -0.2671 1.1796 0.5121
O1 O 0.18604(16) 0.62764(7) 0.78866(14)
O2 O 0.38961(17) 0.62756(7) 0.87965(16)
O3 O 0.26430(19) 0.53917(8) 0.88790(18)
O4 O 0.0269(2) 0.63123(9) 0.56389(16)
H13 H 0.072(3) 0.6098(15) 0.531(3)
H14 H -0.044(3) 0.6278(14) 0.532(3)
O5 O 0.22028(18) 0.62951(9) 0.98674(16)
O6 O -0.30060(19) 1.06732(9) 0.46951(18)
H15 H -0.295(3) 1.0346(16) 0.443(3)
O7 O -0.1663(2) 1.13657(10) 0.62979(18)
H16 H -0.229(4) 1.1373(17) 0.654(3)
Cu2_2 Cu 0.0000 0.127200(16) 0.7500
Cu2B Cu 0.5000 0.627200(16) 0.7500
Cu2B_2 Cu -0.5000 0.627200(16) 0.7500
S1A S -0.26518(6) 0.60462(3) 0.61220(5)
N2_2 N 0.0000 1.21808(12) 0.7500
C1A C -0.0623(2) 0.81057(10) 0.6647(2)
H1A H -0.1047 0.8305 0.6057
C2A C 0.0712(2) 1.00574(11) 0.8248(2)
H2A H 0.1211 1.0268 0.8775
C4A C -0.0608(2) 0.74843(10) 0.6678(2)
H3A H -0.1038 0.7273 0.6107
C5A C -0.0764(2) 0.50599(10) 0.8069(2)
H4A H -0.1304 0.5271 0.8462
C6A C 0.0949(3) 0.31159(11) 0.7136(2)
H5A H 0.1605 0.3314 0.6880
C8A C 0.0738(2) 0.94350(11) 0.8270(2)
H6A H 0.1251 0.9237 0.8804
C9A C 0.0919(2) 0.24948(11) 0.7153(2)
H7A H 0.1570 0.2285 0.6912
C10A C -0.0784(2) 0.44386(10) 0.8096(2)
H8A H -0.1320 0.4239 0.8511
C13A C 0.2031(3) 1.10414(14) 1.0573(2)
H9A H 0.2183 1.1180 1.1328
H10A H 0.1281 1.0812 1.0503
C14A C 0.1919(3) 1.15679(12) 0.9807(3)
H11A H 0.1272 1.1830 0.9998
H12A H 0.2671 1.1796 0.9879
O1A O -0.18604(16) 0.62764(7) 0.71134(14)
O2A O -0.38961(17) 0.62756(7) 0.62035(16)
O2B O -0.11039(17) 1.12756(7) 0.87965(16)
O2C O 0.11039(17) 1.12756(7) 0.62035(16)
O3A O -0.26430(19) 0.53917(8) 0.61210(18)
O4A O -0.0269(2) 0.63123(9) 0.93611(16)
H13A H -0.072(3) 0.6098(15) 0.969(3)
H14A H 0.044(3) 0.6278(14) 0.968(3)
O5A O -0.22028(18) 0.62951(9) 0.51326(16)
O6A O 0.30060(19) 1.06732(9) 1.03049(18)
H15A H 0.295(3) 1.0346(16) 1.057(3)
O7A O 0.1663(2) 1.13657(10) 0.87021(18)
H16A H 0.229(4) 1.1373(17) 0.846(3)
loop_
_geom_bond_atom_site_label_1
_geom_bond_atom_site_label_2
_geom_bond_site_symmetry_1
_geom_bond_site_symmetry_2
Cu1 N3 1_555 1_555
Cu2 N1 1_555 1_555
S1 O1 1_555 1_555
N1 C2 1_555 1_555
N2 C9 1_555 1_555
N3 C4 1_555 1_555
N4 Cu1 1_555 1_555
C1 H1 1_555 1_555
C2 H2 1_555 1_555
C3 C6 1_555 1_555
C4 C1 1_555 1_555
H3 C4 1_555 1_555
C5 N4 1_555 1_555
H4 C5 1_555 1_555
C6 H5 1_555 1_555
C7 C8 1_555 1_555
C8 C2 1_555 1_555
H6 C8 1_555 1_555
C9 C6 1_555 1_555
H7 C9 1_555 1_555
C10 C5 1_555 1_555
H8 C10 1_555 1_555
C11 C1 1_555 1_555
C12 C3 1_555 1_555
C13 H9 1_555 1_555
H10 C13 1_555 1_555
C14 C13 1_555 1_555
H11 C14 1_555 1_555
H12 C14 1_555 1_555
O1 Cu1 1_555 1_555
O2 S1 1_555 1_555
O3 S1 1_555 1_555
O4 Cu1 1_555 1_555
H13 O4 1_555 1_555
H14 O4 1_555 1_555
O5 S1 1_555 1_555
O6 C13 1_555 1_555
H15 O6 1_555 1_555
O7 Cu2 1_555 1_555
H16 O7 1_555 1_555
Cu2_2 N2 1_555 1_555
Cu2B O2 1_555 1_555
Cu2B_2 O2A 1_555 1_555
S1A O1A 1_555 1_555
N2_2 Cu2 1_555 1_555
C1A C11 1_555 1_555
H1A C1A 1_555 1_555
C2A N1 1_555 1_555
H2A C2A 1_555 1_555
C4A N3 1_555 1_555
H3A C4A 1_555 1_555
C5A N4 1_555 1_555
H4A C5A 1_555 1_555
C6A C3 1_555 1_555
H5A C6A 1_555 1_555
C8A C7 1_555 1_555
H6A C8A 1_555 1_555
C9A N2 1_555 1_555
H7A C9A 1_555 1_555
C10A C12 1_555 1_555
H8A C10A 1_555 1_555
C13A H9A 1_555 1_555
H10A C13A 1_555 1_555
C14A C13A 1_555 1_555
H11A C14A 1_555 1_555
H12A C14A 1_555 1_555
O1A Cu1 1_555 1_555
O2A S1A 1_555 1_555
O2B Cu2 1_555 1_555
O2C Cu2 1_555 1_555
O3A S1A 1_555 1_555
O4A Cu1 1_555 1_555
H13A O4A 1_555 1_555
H14A O4A 1_555 1_555
O5A S1A 1_555 1_555
O6A C13A 1_555 1_555
H15A O6A 1_555 1_555
O7A Cu2 1_555 1_555
H16A O7A 1_555 1_555
C7 C11 1_555 1_555
C10 C12 1_555 1_555
C14 O7 1_555 1_555
C1A C4A 1_555 1_555
C2A C8A 1_555 1_555
C5A C10A 1_555 1_555
C6A C9A 1_555 1_555
C14A O7A 1_555 1_555

#END
