
#######################################################################
#
#                 Cambridge Crystallographic Data Centre
#                                CCDC 
#
#######################################################################
#
# If this CIF has been generated from an entry in the Cambridge 
# Structural Database, then it will include bibliographic, chemical, 
# crystal, experimental, refinement or atomic coordinate data resulting 
# from the CCDC's data processing and validation procedures.
#
#######################################################################

data_IMETAW
_symmetry_cell_setting           monoclinic
_symmetry_space_group_name_H-M   'P 21/c'
_symmetry_Int_Tables_number      14
_space_group_name_Hall           '-P 2ybc'
loop_
_symmetry_equiv_pos_site_id
_symmetry_equiv_pos_as_xyz
1 x,y,z
2 -x,1/2+y,1/2-z
3 -x,-y,-z
4 x,1/2-y,1/2+z
_cell_length_a                   8.5010(3)
_cell_length_b                   12.9761(4)
_cell_length_c                   16.8519(5)
_cell_angle_alpha                90
_cell_angle_beta                 97.538(2)
_cell_angle_gamma                90
_cell_volume                     1842.87
loop_
_atom_site_label
_atom_site_type_symbol
_atom_site_fract_x
_atom_site_fract_y
_atom_site_fract_z
Cu1 Cu -0.22789(2) 0.524996(16) 0.091281(11)
Cu2 Cu 0.15671(2) 0.513680(16) 0.082130(11)
Cu3 Cu 0.02608(2) 0.609681(17) 0.243824(11)
N1 N 0.21320(16) 0.58275(11) 0.33440(8)
N2 N -0.11088(18) 0.54972(14) 0.31975(9)
H1 H -0.1737 0.5992 0.3360
H2 H -0.1733 0.5004 0.2948
N3 N 0.01504(16) 0.45131(11) 0.15425(8)
N4 N 0.01228(16) 0.36568(11) 0.17899(8)
N5 N 0.0055(2) 0.28514(15) 0.20518(14)
N6 N 0.17073(17) 0.63319(11) 0.15945(8)
N7 N 0.20026(17) 0.71969(12) 0.13790(9)
N8 N 0.2307(3) 0.80010(15) 0.11862(15)
N9 N -0.11276(16) 0.59062(11) 0.00643(8)
N10 N -0.12385(17) 0.68338(12) -0.00491(9)
N11 N -0.1326(3) 0.77043(15) -0.01423(14)
N12 N -0.27074(17) 0.41956(12) 0.00208(8)
N13 N -0.39908(17) 0.38046(12) -0.01694(8)
N14 N -0.5182(2) 0.34241(18) -0.03478(11)
N15 N -0.16956(17) 0.64457(12) 0.16498(8)
N16 N -0.27875(18) 0.68828(12) 0.19162(9)
N17 N -0.3794(2) 0.72995(16) 0.21623(12)
N18 N -0.34926(19) 0.45636(14) 0.16827(9)
N19 N -0.48550(17) 0.43526(12) 0.15091(8)
N20 N -0.61741(19) 0.41215(15) 0.13715(10)
O1 O 0.55416(17) 0.55576(15) 0.37938(11)
C1 C 0.1351(2) 0.5706(2) 0.40732(11)
H3 H 0.1072 0.6378 0.4265
H4 H 0.2076 0.5379 0.4490
C2 C -0.0124(3) 0.5058(2) 0.38905(13)
H5 H 0.0163 0.4355 0.3776
H6 H -0.0706 0.5049 0.4348
C3 C 0.3016(3) 0.48890(16) 0.31539(13)
H7 H 0.3314 0.4958 0.2620
H8 H 0.2322 0.4296 0.3153
C4 C 0.4502(3) 0.46994(19) 0.37433(16)
H9 H 0.4200 0.4559 0.4268
H10 H 0.5050 0.4098 0.3576
C5 C 0.4764(2) 0.64482(19) 0.40184(14)
H11 H 0.5489 0.7028 0.4044
H12 H 0.4457 0.6349 0.4547
C6 C 0.3302(2) 0.66904(16) 0.34317(12)
H13 H 0.2794 0.7301 0.3612
H14 H 0.3624 0.6842 0.2913
Cu2B Cu -0.15671(2) 0.486320(16) -0.082130(11)
Cu2_2 Cu -0.84329(2) 0.513680(16) 0.082130(11)
Cu3A Cu -0.02608(2) 0.109681(17) 0.256176(11)
N5A N -0.0055(2) 0.78514(15) 0.29482(14)
N9B N 0.11276(16) 0.40938(11) -0.00643(8)
N12B N 0.27074(17) 0.58044(12) -0.00208(8)
N20_2 N 0.38259(19) 0.41215(15) 0.13715(10)
loop_
_geom_bond_atom_site_label_1
_geom_bond_atom_site_label_2
_geom_bond_site_symmetry_1
_geom_bond_site_symmetry_2
Cu1 N3 1_555 1_555
Cu2 N3 1_555 1_555
Cu3 N1 1_555 1_555
N1 C1 1_555 1_555
N2 Cu3 1_555 1_555
H1 N2 1_555 1_555
H2 N2 1_555 1_555
N3 Cu3 1_555 1_555
N4 N3 1_555 1_555
N5 N4 1_555 1_555
N6 Cu2 1_555 1_555
N7 N6 1_555 1_555
N8 N7 1_555 1_555
N9 Cu1 1_555 1_555
N10 N9 1_555 1_555
N11 N10 1_555 1_555
N12 Cu1 1_555 1_555
N13 N12 1_555 1_555
N14 N13 1_555 1_555
N15 Cu1 1_555 1_555
N16 N15 1_555 1_555
N17 N16 1_555 1_555
N18 Cu1 1_555 1_555
N19 N18 1_555 1_555
N20 N19 1_555 1_555
O1 C4 1_555 1_555
C1 H3 1_555 1_555
H4 C1 1_555 1_555
C2 N2 1_555 1_555
H5 C2 1_555 1_555
H6 C2 1_555 1_555
C3 N1 1_555 1_555
H7 C3 1_555 1_555
H8 C3 1_555 1_555
C4 C3 1_555 1_555
H9 C4 1_555 1_555
H10 C4 1_555 1_555
C5 O1 1_555 1_555
H11 C5 1_555 1_555
H12 C5 1_555 1_555
C6 N1 1_555 1_555
H13 C6 1_555 1_555
H14 C6 1_555 1_555
Cu2B N9 1_555 1_555
Cu2_2 N20 1_555 1_555
Cu3A N5 1_555 1_555
N5A Cu3 1_555 1_555
N9B Cu2 1_555 1_555
N12B Cu2 1_555 1_555
N20_2 Cu2 1_555 1_555
Cu2 N9 1_555 1_555
Cu3 N6 1_555 1_555
Cu3 N15 1_555 1_555
N12 Cu2B 1_555 1_555
C1 C2 1_555 1_555
C5 C6 1_555 1_555
Cu2B N9B 1_555 1_555

#END
