
#######################################################################
#
#                 Cambridge Crystallographic Data Centre
#                                CCDC 
#
#######################################################################
#
# If this CIF has been generated from an entry in the Cambridge 
# Structural Database, then it will include bibliographic, chemical, 
# crystal, experimental, refinement or atomic coordinate data resulting 
# from the CCDC's data processing and validation procedures.
#
#######################################################################

data_IMIBOW
_symmetry_cell_setting           monoclinic
_symmetry_space_group_name_H-M   'C 2/c'
_symmetry_Int_Tables_number      15
_space_group_name_Hall           '-C 2yn'
loop_
_symmetry_equiv_pos_site_id
_symmetry_equiv_pos_as_xyz
1 x,y,z
2 -x,y,1/2-z
3 1/2+x,1/2+y,z
4 1/2-x,1/2+y,1/2-z
5 -x,-y,-z
6 x,-y,1/2+z
7 1/2-x,1/2-y,-z
8 1/2+x,1/2-y,1/2+z
_cell_length_a                   12.3339(6)
_cell_length_b                   25.1322(12)
_cell_length_c                   7.2905(3)
_cell_angle_alpha                90
_cell_angle_beta                 93.907(3)
_cell_angle_gamma                90
_cell_volume                     2254.64
loop_
_atom_site_label
_atom_site_type_symbol
_atom_site_fract_x
_atom_site_fract_y
_atom_site_fract_z
Cu1 Cu -0.05278(3) 0.043345(13) 0.06722(5)
Br1 Br 0.14170(2) 0.031826(10) 0.12860(3)
O1 O -0.5000 0.25801(9) -0.7500
N1 N -0.22634(15) 0.15904(7) -0.2186(2)
N2 N -0.2045(2) 0.18289(9) -0.0548(3)
N3 N -0.1412(2) 0.15171(9) 0.0428(3)
N4 N -0.12182(17) 0.10774(8) -0.0517(3)
C1 C -0.43447(18) 0.23003(9) -0.6208(3)
C2 C -0.3798(2) 0.18474(12) -0.6615(4)
H1 H -0.382(2) 0.1719(11) -0.768(4)
C3 C -0.3109(2) 0.16070(12) -0.5304(4)
H2 H -0.272(2) 0.1306(11) -0.547(4)
C4 C -0.29761(17) 0.18322(9) -0.3581(3)
C5 C -0.3505(2) 0.22881(10) -0.3174(4)
H3 H -0.335(2) 0.2412(10) -0.205(4)
C6 C -0.4193(2) 0.25275(10) -0.4505(4)
H4 H -0.4497(18) 0.2834(10) -0.423(3)
C7 C -0.1735(2) 0.11353(11) -0.2114(4)
H5 H -0.171(2) 0.0956(11) -0.313(4)
Cu1A Cu 0.05278(3) 0.043345(13) 0.43278(5)
Cu1D Cu 0.05278(3) -0.043345(13) -0.06722(5)
Cu1A_2 Cu -0.94722(3) 0.043345(13) -1.56722(5)
Cu1E Cu -0.05278(3) -0.043345(13) 0.56722(5)
Br1A Br -0.14170(2) 0.031826(10) 0.37140(3)
Br1D Br -0.14170(2) -0.031826(10) -0.12860(3)
Br1E Br 0.14170(2) -0.031826(10) 0.62860(3)
N1A N -0.77366(15) 0.15904(7) -1.2814(2)
N2A N -0.7955(2) 0.18289(9) -1.4452(3)
N3A N -0.8588(2) 0.15171(9) -1.5428(3)
N4A N -0.87818(17) 0.10774(8) -1.4483(3)
N4A_2 N 0.12182(17) 0.10774(8) 0.5517(3)
C1A C -0.56553(18) 0.23003(9) -0.8792(3)
C2A C -0.6202(2) 0.18474(12) -0.8385(4)
H1A H -0.618(2) 0.1719(11) -0.732(4)
C3A C -0.6891(2) 0.16070(12) -0.9696(4)
H2A H -0.728(2) 0.1306(11) -0.953(4)
C4A C -0.70239(17) 0.18322(9) -1.1419(3)
C5A C -0.6495(2) 0.22881(10) -1.1826(4)
H3A H -0.665(2) 0.2412(10) -1.295(4)
C6A C -0.5807(2) 0.25275(10) -1.0495(4)
H4A H -0.5503(18) 0.2834(10) -1.077(3)
C7A C -0.8265(2) 0.11353(11) -1.2886(4)
H5A H -0.829(2) 0.0956(11) -1.187(4)
loop_
_geom_bond_atom_site_label_1
_geom_bond_atom_site_label_2
_geom_bond_site_symmetry_1
_geom_bond_site_symmetry_2
Cu1 Br1 1_555 1_555
Br1 Cu1A 1_555 1_555
O1 C1 1_555 1_555
N1 N2 1_555 1_555
N2 N3 1_555 1_555
N3 N4 1_555 1_555
N4 Cu1 1_555 1_555
C1 C2 1_555 1_555
C2 H1 1_555 1_555
C3 C2 1_555 1_555
H2 C3 1_555 1_555
C4 N1 1_555 1_555
C5 C4 1_555 1_555
H3 C5 1_555 1_555
C6 C1 1_555 1_555
H4 C6 1_555 1_555
C7 N1 1_555 1_555
H5 C7 1_555 1_555
Cu1A Br1A 1_555 1_555
Cu1D Br1 1_555 1_555
Cu1A_2 N4A 1_555 1_555
Cu1E Br1A 1_555 1_555
Br1A Cu1 1_555 1_555
Br1D Cu1 1_555 1_555
Br1E Cu1A 1_555 1_555
N1A N2A 1_555 1_555
N2A N3A 1_555 1_555
N3A N4A 1_555 1_555
N4A C7A 1_555 1_555
N4A_2 Cu1A 1_555 1_555
C1A O1 1_555 1_555
C2A C1A 1_555 1_555
H1A C2A 1_555 1_555
C3A C2A 1_555 1_555
H2A C3A 1_555 1_555
C4A N1A 1_555 1_555
C5A C4A 1_555 1_555
H3A C5A 1_555 1_555
C6A C1A 1_555 1_555
H4A C6A 1_555 1_555
C7A N1A 1_555 1_555
H5A C7A 1_555 1_555
N4 C7 1_555 1_555
C3 C4 1_555 1_555
C5 C6 1_555 1_555
Cu1D Br1D 1_555 1_555
Cu1E Br1E 1_555 1_555
C3A C4A 1_555 1_555
C5A C6A 1_555 1_555

#END
