
#######################################################################
#
#                 Cambridge Crystallographic Data Centre
#                                CCDC 
#
#######################################################################
#
# If this CIF has been generated from an entry in the Cambridge 
# Structural Database, then it will include bibliographic, chemical, 
# crystal, experimental, refinement or atomic coordinate data resulting 
# from the CCDC's data processing and validation procedures.
#
#######################################################################

data_IMIDZB09
_symmetry_cell_setting           tetragonal
_symmetry_space_group_name_H-M   'I 41'
_symmetry_Int_Tables_number      80
_space_group_name_Hall           'I 4bw'
loop_
_symmetry_equiv_pos_site_id
_symmetry_equiv_pos_as_xyz
1 x,y,z
2 1/2-x,1/2-y,1/2+z
3 -y,1/2+x,1/4+z
4 1/2+y,-x,3/4+z
5 1/2+x,1/2+y,1/2+z
6 -x,-y,z
7 1/2-y,x,3/4+z
8 y,1/2-x,1/4+z
_cell_length_a                   22.5999(8)
_cell_length_b                   22.5999(8)
_cell_length_c                   13.0994(5)
_cell_angle_alpha                90
_cell_angle_beta                 90
_cell_angle_gamma                90
_cell_volume                     6690.59
loop_
_atom_site_label
_atom_site_type_symbol
_atom_site_fract_x
_atom_site_fract_y
_atom_site_fract_z
Zn1 Zn 0.339935(17) 0.599250(18) 0.24890(3)
C1 C 0.37045(17) 0.47580(16) 0.3195(3)
H1 H 0.3888 0.4903 0.3798
Zn2 Zn 0.699320(17) 0.588410(18) 0.74992(3)
N1 N 0.62242(15) 0.66563(14) 0.5022(3)
Zn3 Zn 0.594176(18) 0.651928(18) 0.36172(3)
N2 N 0.41274(14) 0.62429(14) 0.3232(2)
Zn4 Zn 0.151795(18) 0.601304(18) 0.56587(3)
N3 N 0.34260(14) 0.51094(14) 0.2497(3)
N4 N 0.27125(13) 0.62822(14) 0.3299(2)
N5 N 0.33150(13) 0.62751(14) 0.1058(2)
N6 N 0.22951(15) 0.45146(14) 0.6901(3)
N7 N 0.62034(14) 0.77459(13) 0.1320(2)
N8 N 0.50647(13) 0.64267(14) 0.3672(2)
N9 N -0.02425(14) 0.63899(14) 0.5027(3)
C2 C 0.22909(17) 0.50363(17) 0.6413(3)
H2 H 0.2639 0.5262 0.6295
N10 N 0.61857(13) 0.71810(14) 0.2726(2)
C3 C 0.58870(16) 0.73867(15) 0.1922(3)
H3 H 0.5486 0.7287 0.1788
C4 C 0.46920(16) 0.62784(17) 0.2934(3)
H4 H 0.4815 0.6204 0.2252
C5 C 0.47130(18) 0.6499(2) 0.4527(3)
H5 H 0.4846 0.6609 0.5188
C6 C 0.41422(17) 0.63856(19) 0.4254(3)
H6 H 0.3809 0.6402 0.4697
N11 N 0.36901(14) 0.41813(14) 0.2933(3)
C7 C 0.24694(16) 0.59941(17) 0.4089(3)
H7 H 0.2596 0.5615 0.4312
C8 C 0.17046(19) 0.43457(18) 0.6905(4)
H8 H 0.1551 0.3994 0.7199
N12 N 0.20275(14) 0.62975(14) 0.4533(2)
C9 C 0.19867(16) 0.68161(17) 0.3987(3)
H9 H 0.1715 0.7128 0.4114
C10 C 0.67407(15) 0.74323(16) 0.2641(3)
H10 H 0.7060 0.7376 0.3101
N13 N 0.66706(14) 0.64565(15) 0.6511(2)
C11 C 0.37234(16) 0.63969(17) 0.0351(3)
H11 H 0.4136 0.6397 0.0489
C12 C 0.24049(15) 0.68065(16) 0.3229(3)
H12 H 0.2471 0.7110 0.2740
C13 C 0.13858(19) 0.47648(18) 0.6421(3)
H13 H 0.0970 0.4754 0.6313
C14 C 0.67526(15) 0.77774(15) 0.1779(3)
H14 H 0.7082 0.7999 0.1540
C15 C 0.66125(16) 0.63197(17) 0.5526(3)
H15 H 0.6829 0.6009 0.5209
N14 N 0.06801(14) 0.60371(15) 0.5210(3)
N15 N 0.34974(14) 0.65184(14) -0.0568(2)
C16 C 0.27805(17) 0.6329(2) 0.0547(3)
H16 H 0.2399 0.6277 0.0837
N16 N 0.17581(15) 0.52104(14) 0.6110(3)
C17 C 0.28977(17) 0.6469(2) -0.0438(3)
H17 H 0.2609 0.6525 -0.0957
C18 C 0.33876(17) 0.41653(17) 0.2014(3)
H18 H 0.3303 0.3819 0.1628
C19 C 0.62790(18) 0.6916(2) 0.6669(4)
H19 H 0.6205 0.7108 0.7302
C20 C 0.02773(16) 0.64290(18) 0.5523(3)
H20 H 0.0351 0.6710 0.6047
C21 C 0.6016(2) 0.70466(19) 0.5757(4)
H21 H 0.5736 0.7354 0.5645
C22 C 0.32310(19) 0.47275(18) 0.1755(3)
H22 H 0.3021 0.4838 0.1156
C23 C 0.0402(3) 0.5740(3) 0.4440(6)
H23 H 0.0575 0.5437 0.4037
C24 C -0.0163(2) 0.5944(3) 0.4339(6)
H24 H -0.0450 0.5802 0.3870
Zn2E Zn 0.300680(17) 0.411590(18) 0.74992(3)
Zn2G Zn 0.588410(18) 0.800680(17) -0.00008(3)
Zn2F Zn -0.088410(18) 0.699320(17) 0.49992(3)
Zn3E Zn 0.405824(18) 0.348072(18) 0.36172(3)
Zn4B Zn 0.398696(18) 0.651795(18) -0.18413(3)
N6E N 0.77049(15) 0.54854(14) 0.6901(3)
N7F N 0.72541(13) 0.62034(14) 0.8820(2)
N9G N 0.63899(14) 0.52425(14) 0.7527(3)
N11E N 0.63099(14) 0.58187(14) 0.2933(3)
N15C N 0.15184(14) 0.65026(14) 0.6932(2)
loop_
_geom_bond_atom_site_label_1
_geom_bond_atom_site_label_2
_geom_bond_site_symmetry_1
_geom_bond_site_symmetry_2
Zn1 N2 1_555 1_555
C1 H1 1_555 1_555
Zn2 N13 1_555 1_555
N1 Zn3 1_555 1_555
Zn3 N8 1_555 1_555
N2 C4 1_555 1_555
Zn4 N12 1_555 1_555
N3 Zn1 1_555 1_555
N4 Zn1 1_555 1_555
N5 Zn1 1_555 1_555
N6 C2 1_555 1_555
N7 C3 1_555 1_555
N8 C4 1_555 1_555
N9 C20 1_555 1_555
C2 H2 1_555 1_555
N10 Zn3 1_555 1_555
C3 N10 1_555 1_555
H3 C3 1_555 1_555
C4 H4 1_555 1_555
C5 N8 1_555 1_555
H5 C5 1_555 1_555
C6 N2 1_555 1_555
H6 C6 1_555 1_555
N11 C1 1_555 1_555
C7 N4 1_555 1_555
H7 C7 1_555 1_555
C8 N6 1_555 1_555
H8 C8 1_555 1_555
N12 C7 1_555 1_555
C9 N12 1_555 1_555
H9 C9 1_555 1_555
C10 N10 1_555 1_555
H10 C10 1_555 1_555
N13 C15 1_555 1_555
C11 N5 1_555 1_555
H11 C11 1_555 1_555
C12 N4 1_555 1_555
H12 C12 1_555 1_555
C13 C8 1_555 1_555
H13 C13 1_555 1_555
C14 N7 1_555 1_555
H14 C14 1_555 1_555
C15 N1 1_555 1_555
H15 C15 1_555 1_555
N14 Zn4 1_555 1_555
N15 C11 1_555 1_555
C16 N5 1_555 1_555
H16 C16 1_555 1_555
N16 Zn4 1_555 1_555
C17 N15 1_555 1_555
H17 C17 1_555 1_555
C18 N11 1_555 1_555
H18 C18 1_555 1_555
C19 N13 1_555 1_555
H19 C19 1_555 1_555
C20 N14 1_555 1_555
H20 C20 1_555 1_555
C21 N1 1_555 1_555
H21 C21 1_555 1_555
C22 N3 1_555 1_555
H22 C22 1_555 1_555
C23 N14 1_555 1_555
H23 C23 1_555 1_555
C24 N9 1_555 1_555
H24 C24 1_555 1_555
Zn2E N6 1_555 1_555
Zn2G N7 1_555 1_555
Zn2F N9 1_555 1_555
Zn3E N11 1_555 1_555
Zn4B N15 1_555 1_555
N6E Zn2 1_555 1_555
N7F Zn2 1_555 1_555
N9G Zn2 1_555 1_555
N11E Zn3 1_555 1_555
N15C Zn4 1_555 1_555
C1 N3 1_555 1_555
C2 N16 1_555 1_555
C5 C6 1_555 1_555
C9 C12 1_555 1_555
C10 C14 1_555 1_555
C13 N16 1_555 1_555
C16 C17 1_555 1_555
C18 C22 1_555 1_555
C19 C21 1_555 1_555
C23 C24 1_555 1_555

#END
