
#######################################################################
#
#                 Cambridge Crystallographic Data Centre
#                                CCDC 
#
#######################################################################
#
# If this CIF has been generated from an entry in the Cambridge 
# Structural Database, then it will include bibliographic, chemical, 
# crystal, experimental, refinement or atomic coordinate data resulting 
# from the CCDC's data processing and validation procedures.
#
#######################################################################

data_IMIDFE
_symmetry_cell_setting           monoclinic
_symmetry_space_group_name_H-M   'P 21/c'
_symmetry_Int_Tables_number      14
_space_group_name_Hall           '-P 2ybc'
loop_
_symmetry_equiv_pos_site_id
_symmetry_equiv_pos_as_xyz
1 x,y,z
2 -x,1/2+y,1/2-z
3 -x,-y,-z
4 x,1/2-y,1/2+z
_cell_length_a                   10.516(2)
_cell_length_b                   12.914(2)
_cell_length_c                   10.588(2)
_cell_angle_alpha                90
_cell_angle_beta                 92.79(1)
_cell_angle_gamma                90
_cell_volume                     1436.18
loop_
_atom_site_label
_atom_site_type_symbol
_atom_site_fract_x
_atom_site_fract_y
_atom_site_fract_z
Fe1 Fe -0.01210 0.13080 -0.26040
Fe2 Fe -0.50000 0.00000 0.00000
N1 N -0.04020 0.17040 -0.44660
N2 N -0.03620 0.25280 -0.63140
N3 N -0.16820 0.04350 -0.22460
N4 N -0.34950 0.00100 -0.13520
N5 N -0.64360 0.03540 -0.14700
N6 N -0.82830 0.08980 -0.23900
N7 N -0.53270 -0.16950 -0.02940
N8 N -0.63530 -0.31280 -0.07970
C1 C -0.00470 0.25590 -0.50850
C2 C -0.90770 -0.34150 0.15150
C3 C -0.09460 0.10850 -0.53950
C4 C -0.26220 0.07250 -0.15010
C5 C -0.31060 -0.08060 -0.20730
C6 C -0.20190 -0.05440 -0.26150
C7 C -0.76750 0.05000 -0.13590
C8 C -0.73480 0.10210 -0.32340
C9 C -0.62390 0.06950 -0.26710
C10 C -0.61520 -0.21330 -0.10860
C11 C -0.55850 -0.33520 0.02200
C12 C -0.49550 -0.24850 0.05130
H1 H 0.06100 0.31500 -0.47000
H2 H -0.87400 -0.35700 0.24700
H3 H -0.14200 0.03900 -0.52000
H4 H -0.25700 0.13500 -0.10700
H5 H -0.35300 -0.14300 -0.21500
H6 H -0.15600 -0.09700 -0.29900
H7 H -0.80800 0.03300 -0.05700
H8 H -0.75400 0.13500 -0.41400
H9 H -0.54300 0.06700 -0.29900
H10 H -0.67000 -0.17600 -0.16300
H11 H -0.55000 -0.40300 0.04900
H12 H -0.43900 -0.24000 0.11000
H13 H -0.69400 -0.35300 -0.11700
N2C N -0.03620 0.24720 -0.13140
Fe1C Fe -0.01210 0.36920 -0.76040
Fe1A Fe -0.98790 -0.36920 -0.23960
N1A N -0.95980 -0.32960 -0.05340
C1A C -0.99530 -0.24410 0.00850
N2A N -0.96380 -0.24720 0.13140
Fe1B Fe -0.98790 -0.13080 0.26040
N1B N -0.95980 -0.17040 0.44660
N3B N -0.83180 -0.04350 0.22460
N6B N -1.17170 -0.08980 0.23900
C3A C -0.90540 -0.39150 0.03950
H3A H -0.85800 -0.46100 0.02000
H1A H -1.06100 -0.18500 -0.03000
C2A C -0.09230 0.15850 -0.65150
H2A H -0.12600 0.14300 -0.74700
N4B N -0.65050 -0.00100 0.13520
N5B N -0.35640 -0.03540 0.14700
N7B N -0.46730 0.16950 0.02940
C4B C -0.73780 -0.07250 0.15010
C6B C -0.79810 0.05440 0.26150
C5B C -0.68940 0.08060 0.20730
C7B C -0.23250 -0.05000 0.13590
C9B C -0.37610 -0.06950 0.26710
C10B C -0.38480 0.21330 0.10860
C12B C -0.50450 0.24850 -0.05130
N6_2 N 0.17170 0.08980 -0.23900
H4B H -0.74300 -0.13500 0.10700
H6B H -0.84400 0.09700 0.29900
H5B H -0.64700 0.14300 0.21500
N6B_2 N -0.17170 -0.08980 0.23900
H7B H -0.19200 -0.03300 0.05700
C8B C -0.26520 -0.10210 0.32340
H9B H -0.45700 -0.06700 0.29900
N8B N -0.36470 0.31280 0.07970
H10B H -0.33000 0.17600 0.16300
C11B C -0.44150 0.33520 -0.02200
H12B H -0.56100 0.24000 -0.11000
Fe1_2 Fe -1.01210 0.13080 -0.26040
Fe1B_2 Fe 0.01210 -0.13080 0.26040
H8B H -0.24600 -0.13500 0.41400
H13B H -0.30600 0.35300 0.11700
H11B H -0.45000 0.40300 -0.04900
loop_
_geom_bond_atom_site_label_1
_geom_bond_atom_site_label_2
_geom_bond_site_symmetry_1
_geom_bond_site_symmetry_2
Fe1 N1 1_555 1_555
Fe2 N4 1_555 1_555
N1 C1 1_555 1_555
N2 C1 1_555 1_555
N3 Fe1 1_555 1_555
N4 C4 1_555 1_555
N5 Fe2 1_555 1_555
N6 C7 1_555 1_555
N7 Fe2 1_555 1_555
N8 C10 1_555 1_555
C1 H1 1_555 1_555
C2 H2 1_555 1_555
C3 N1 1_555 1_555
C4 N3 1_555 1_555
C5 N4 1_555 1_555
C6 N3 1_555 1_555
C7 N5 1_555 1_555
C8 N6 1_555 1_555
C9 N5 1_555 1_555
C10 N7 1_555 1_555
C11 N8 1_555 1_555
C12 N7 1_555 1_555
H3 C3 1_555 1_555
H4 C4 1_555 1_555
H5 C5 1_555 1_555
H6 C6 1_555 1_555
H7 C7 1_555 1_555
H8 C8 1_555 1_555
H9 C9 1_555 1_555
H10 C10 1_555 1_555
H11 C11 1_555 1_555
H12 C12 1_555 1_555
H13 N8 1_555 1_555
N2C Fe1 1_555 1_555
Fe1C N2 1_555 1_555
Fe1A N1A 1_555 1_555
N1A C1A 1_555 1_555
C1A N2A 1_555 1_555
N2A C2 1_555 1_555
Fe1B N2A 1_555 1_555
N1B Fe1B 1_555 1_555
N3B Fe1B 1_555 1_555
N6B Fe1B 1_555 1_555
C3A C2 1_555 1_555
H3A C3A 1_555 1_555
H1A C1A 1_555 1_555
C2A N2 1_555 1_555
H2A C2A 1_555 1_555
N4B Fe2 1_555 1_555
N5B Fe2 1_555 1_555
N7B Fe2 1_555 1_555
C4B N3B 1_555 1_555
C6B N3B 1_555 1_555
C5B N4B 1_555 1_555
C7B N5B 1_555 1_555
C9B N5B 1_555 1_555
C10B N7B 1_555 1_555
C12B N7B 1_555 1_555
N6_2 Fe1 1_555 1_555
H4B C4B 1_555 1_555
H6B C6B 1_555 1_555
H5B C5B 1_555 1_555
N6B_2 C7B 1_555 1_555
H7B C7B 1_555 1_555
C8B C9B 1_555 1_555
H9B C9B 1_555 1_555
N8B C10B 1_555 1_555
H10B C10B 1_555 1_555
C11B C12B 1_555 1_555
H12B C12B 1_555 1_555
Fe1_2 N6 1_555 1_555
Fe1B_2 N6B_2 1_555 1_555
H8B C8B 1_555 1_555
H13B N8B 1_555 1_555
H11B C11B 1_555 1_555
C3 C2A 1_555 1_555
C5 C6 1_555 1_555
C8 C9 1_555 1_555
C11 C12 1_555 1_555
N1A C3A 1_555 1_555
N4B C4B 1_555 1_555
C6B C5B 1_555 1_555
N6B_2 C8B 1_555 1_555
N8B C11B 1_555 1_555

#END
