
#######################################################################
#
#                 Cambridge Crystallographic Data Centre
#                                CCDC 
#
#######################################################################
#
# If this CIF has been generated from an entry in the Cambridge 
# Structural Database, then it will include bibliographic, chemical, 
# crystal, experimental, refinement or atomic coordinate data resulting 
# from the CCDC's data processing and validation procedures.
#
#######################################################################

data_IMIDZB03
_symmetry_cell_setting           tetragonal
_symmetry_space_group_name_H-M   'I 41 c d'
_symmetry_Int_Tables_number      110
_space_group_name_Hall           'I 4bw -2c'
loop_
_symmetry_equiv_pos_site_id
_symmetry_equiv_pos_as_xyz
1 x,y,z
2 1/2-x,1/2-y,1/2+z
3 -y,1/2+x,1/4+z
4 1/2+y,-x,3/4+z
5 x,-y,1/2+z
6 1/2-x,1/2+y,z
7 -y,1/2-x,3/4+z
8 1/2+y,x,1/4+z
9 1/2+x,1/2+y,1/2+z
10 -x,-y,z
11 1/2-y,x,3/4+z
12 y,1/2-x,1/4+z
13 1/2+x,1/2-y,z
14 -x,y,1/2+z
15 1/2-y,-x,1/4+z
16 y,1/2+x,3/4+z
_cell_length_a                   23.4856(6)
_cell_length_b                   23.4856(6)
_cell_length_c                   12.4521(7)
_cell_angle_alpha                90
_cell_angle_beta                 90
_cell_angle_gamma                90
_cell_volume                     6868.25
loop_
_atom_site_label
_atom_site_type_symbol
_atom_site_fract_x
_atom_site_fract_y
_atom_site_fract_z
Zn1 Zn 1.64875(17) 1.40358(17) -0.0021(3)
Zn2 Zn 1.85068(17) 1.39949(16) 0.2930(3)
C1 C 1.6238(9) 1.5268(9) 0.0152(15)
H1 H 1.5989 1.5202 0.0718
C2 C 1.6820(8) 1.5134(8) -0.1107(14)
H2 H 1.7069 1.4968 -0.1596
C3 C 1.6685(8) 1.5691(9) -0.1071(16)
H3 H 1.6821 1.5966 -0.1542
C4 C 1.5262(10) 1.3815(10) 0.0156(13)
H4 H 1.5211 1.3928 -0.0554
C5 C 1.5654(9) 1.3662(10) 0.1645(15)
H5 H 1.5921 1.3633 0.2195
C6 C 1.5098(10) 1.3530(10) 0.1722(15)
H6 H 1.4918 1.3401 0.2342
C7 C 1.6445(8) 1.3811(6) -0.2321(18)
H7 H 1.6428 1.4200 -0.2461
C8 C 1.6546(10) 1.3039(8) -0.1501(13)
H8 H 1.6603 1.2769 -0.0967
C9 C 1.6455(7) 1.2928(10) -0.2548(15)
H9 H 1.6449 1.2568 -0.2856
C10 C 1.7500(12) 1.4065(6) 0.144(2)
H10 H 1.7587 1.4438 0.1253
C11 C 1.7076(7) 1.3280(8) 0.1521(15)
H11 H 1.6816 1.2987 0.1415
C12 C 1.7529(8) 1.3261(7) 0.2180(13)
H12 H 1.7637 1.2953 0.2604
N1 N 1.6533(8) 1.4846(7) -0.0311(18)
N2 N 1.6321(7) 1.5791(9) -0.0245(17)
N3 N 1.5760(8) 1.3842(9) 0.0651(17)
N4 N 1.4837(8) 1.3612(8) 0.0764(18)
N5 N 1.6542(9) 1.3607(10) -0.1356(15)
N6 N 1.6373(10) 1.3422(10) -0.3080(14)
N7 N 1.7060(8) 1.3791(9) 0.1041(13)
N8 N 1.7803(9) 1.3771(9) 0.2118(15)
Zn2B Zn 1.60051(16) 1.35068(17) -0.4570(3)
Zn2F Zn 1.60051(16) 1.64932(17) 0.0430(3)
Zn2O Zn 1.39949(16) 1.35068(17) 0.0430(3)
N2N N 1.9209(9) 1.3679(7) 0.2255(17)
N4G N 1.8612(8) 1.4837(8) 0.3264(18)
N6C N 1.8422(10) 1.3627(10) 0.4420(14)
loop_
_geom_bond_atom_site_label_1
_geom_bond_atom_site_label_2
_geom_bond_site_symmetry_1
_geom_bond_site_symmetry_2
Zn1 N1 1_555 1_555
Zn2 N8 1_555 1_555
C1 H1 1_555 1_555
C2 H2 1_555 1_555
C3 C2 1_555 1_555
H3 C3 1_555 1_555
C4 H4 1_555 1_555
C5 H5 1_555 1_555
C6 C5 1_555 1_555
H6 C6 1_555 1_555
C7 H7 1_555 1_555
C8 H8 1_555 1_555
C9 C8 1_555 1_555
H9 C9 1_555 1_555
C10 H10 1_555 1_555
C11 H11 1_555 1_555
C12 C11 1_555 1_555
H12 C12 1_555 1_555
N1 C1 1_555 1_555
N2 C1 1_555 1_555
N3 Zn1 1_555 1_555
N4 C4 1_555 1_555
N5 Zn1 1_555 1_555
N6 C7 1_555 1_555
N7 Zn1 1_555 1_555
N8 C10 1_555 1_555
Zn2B N6 1_555 1_555
Zn2F N2 1_555 1_555
Zn2O N4 1_555 1_555
N2N Zn2 1_555 1_555
N4G Zn2 1_555 1_555
N6C Zn2 1_555 1_555
C2 N1 1_555 1_555
C3 N2 1_555 1_555
C4 N3 1_555 1_555
C5 N3 1_555 1_555
C6 N4 1_555 1_555
C7 N5 1_555 1_555
C8 N5 1_555 1_555
C9 N6 1_555 1_555
C10 N7 1_555 1_555
C11 N7 1_555 1_555
C12 N8 1_555 1_555

#END
