
#######################################################################
#
#                 Cambridge Crystallographic Data Centre
#                                CCDC 
#
#######################################################################
#
# If this CIF has been generated from an entry in the Cambridge 
# Structural Database, then it will include bibliographic, chemical, 
# crystal, experimental, refinement or atomic coordinate data resulting 
# from the CCDC's data processing and validation procedures.
#
#######################################################################

data_IMIRAY
_symmetry_cell_setting           monoclinic
_symmetry_space_group_name_H-M   'P 21/n'
_symmetry_Int_Tables_number      14
_space_group_name_Hall           '-P 2yn'
loop_
_symmetry_equiv_pos_site_id
_symmetry_equiv_pos_as_xyz
1 x,y,z
2 1/2-x,1/2+y,1/2-z
3 -x,-y,-z
4 1/2+x,1/2-y,1/2+z
_cell_length_a                   11.585(1)
_cell_length_b                   15.389(1)
_cell_length_c                   11.870(2)
_cell_angle_alpha                90
_cell_angle_beta                 100.829(1)
_cell_angle_gamma                90
_cell_volume                     2078.52
loop_
_atom_site_label
_atom_site_type_symbol
_atom_site_fract_x
_atom_site_fract_y
_atom_site_fract_z
Mo1 Mo 0.13935(5) 0.12498(4) -0.08954(5)
Mo2 Mo 0.21988(5) 0.13145(4) 0.18800(5)
Mo3 Mo -0.12238(5) 0.06730(4) -0.06772(5)
Mo4 Mo 0.04680(5) -0.07377(4) -0.20527(5)
Cu1 Cu 0.17253(9) 0.08893(8) -0.39209(10)
Cu2 Cu 0.16184(8) 0.34033(7) 0.04124(9)
O1 O 0.1032(4) -0.0288(3) -0.3152(4)
O2 O 0.0439(4) 0.0769(3) 0.0538(4)
O3 O 0.2354(4) -0.0151(3) 0.1620(4)
O4 O 0.0953(5) -0.1776(3) -0.1969(4)
O5 O 0.1630(4) -0.0256(3) -0.0737(4)
O6 O 0.2174(5) 0.1259(3) -0.1981(4)
O7 O -0.1637(4) 0.1720(3) -0.0658(4)
O8 O 0.3506(5) 0.1336(3) 0.2803(4)
O9 O 0.1125(4) 0.0860(3) 0.2783(4)
O10 O -0.0093(4) 0.0717(3) -0.1685(4)
O11 O 0.0920(4) 0.2295(3) -0.0826(4)
O12 O 0.1729(5) 0.2376(3) 0.1794(5)
O13 O 0.2627(4) 0.1234(3) 0.0396(4)
N1 N -0.1795(5) 0.1535(4) -0.4880(5)
N2 N 0.0153(5) 0.1344(4) -0.4515(5)
N3 N -0.0149(5) 0.1993(4) -0.5302(5)
N4 N -0.0206(5) 0.6091(4) -0.0784(6)
N5 N 0.0838(5) 0.5180(4) -0.1578(5)
N6 N 0.1600(5) 0.5778(4) -0.1001(5)
C1 C -0.0212(6) 0.5389(5) -0.1414(7)
H1 H -0.0887 0.5075 -0.1711
C2 C 0.0752(7) 0.4424(5) -0.3438(7)
H2 H -0.0073 0.4581 -0.3614
H3 H 0.1193 0.4852 -0.3783
C3 C -0.1296(6) 0.2081(5) -0.5504(6)
H4 H -0.1706 0.2478 -0.6021
C4 C 0.0592(7) 0.3478(5) -0.5208(7)
H5 H -0.0213 0.3675 -0.5437
H6 H 0.1091 0.3873 -0.5538
C5 C 0.0702(6) 0.2567(5) -0.5692(7)
H7 H 0.1492 0.2347 -0.5432
H8 H 0.0551 0.2587 -0.6524
C6 C -0.0877(6) 0.1087(5) -0.4304(6)
H9 H -0.0956 0.0636 -0.3802
C7 C 0.0920(6) 0.6309(5) -0.0556(7)
H10 H 0.1203 0.6793 -0.0122
C8 C 0.1176(7) 0.4405(5) -0.2148(7)
H11 H 0.2025 0.4352 -0.1986
H12 H 0.0854 0.3896 -0.1836
C9 C 0.0930(7) 0.3515(5) -0.3919(7)
H13 H 0.0461 0.3098 -0.3589
H14 H 0.1748 0.3349 -0.3691
Mo3B Mo 0.12238(5) -0.06730(4) 0.06772(5)
Mo4B Mo -0.04680(5) 0.07377(4) 0.20527(5)
Cu1A Cu 0.32747(9) 0.58893(8) -0.10791(10)
Cu2C Cu -0.33816(8) 0.15967(7) -0.45876(9)
Cu2B Cu -0.16184(8) 0.65967(7) -0.04124(9)
O2B O -0.0439(4) -0.0769(3) -0.0538(4)
O3B O -0.2354(4) 0.0151(3) -0.1620(4)
O5B O -0.1630(4) 0.0256(3) 0.0737(4)
O9B O -0.1125(4) -0.0860(3) -0.2783(4)
N1C N 0.3205(5) 0.3465(4) 0.0120(5)
N4B N 0.0206(5) 0.3909(4) 0.0784(6)
N6A N 0.3400(5) 0.0778(4) -0.3999(5)
loop_
_geom_bond_atom_site_label_1
_geom_bond_atom_site_label_2
_geom_bond_site_symmetry_1
_geom_bond_site_symmetry_2
Mo1 O2 1_555 1_555
Mo2 O2 1_555 1_555
Mo3 O2 1_555 1_555
Mo4 O1 1_555 1_555
Cu1 O1 1_555 1_555
Cu2 O11 1_555 1_555
O2 Mo3B 1_555 1_555
O3 Mo2 1_555 1_555
O4 Mo4 1_555 1_555
O5 Mo1 1_555 1_555
O6 Mo1 1_555 1_555
O7 Mo3 1_555 1_555
O8 Mo2 1_555 1_555
O9 Mo2 1_555 1_555
O10 Mo1 1_555 1_555
O11 Mo1 1_555 1_555
O12 Mo2 1_555 1_555
O13 Mo1 1_555 1_555
N1 C3 1_555 1_555
N2 Cu1 1_555 1_555
N3 N2 1_555 1_555
N4 C1 1_555 1_555
N5 N6 1_555 1_555
N6 C7 1_555 1_555
C1 N5 1_555 1_555
H1 C1 1_555 1_555
C2 H2 1_555 1_555
H3 C2 1_555 1_555
C3 N3 1_555 1_555
H4 C3 1_555 1_555
C4 H5 1_555 1_555
H6 C4 1_555 1_555
C5 N3 1_555 1_555
H7 C5 1_555 1_555
H8 C5 1_555 1_555
C6 N1 1_555 1_555
H9 C6 1_555 1_555
C7 N4 1_555 1_555
H10 C7 1_555 1_555
C8 N5 1_555 1_555
H11 C8 1_555 1_555
H12 C8 1_555 1_555
C9 C2 1_555 1_555
H13 C9 1_555 1_555
H14 C9 1_555 1_555
Mo3B O3 1_555 1_555
Mo4B O2 1_555 1_555
Cu1A N6 1_555 1_555
Cu2C N1 1_555 1_555
Cu2B N4 1_555 1_555
O2B Mo3 1_555 1_555
O3B Mo3 1_555 1_555
O5B Mo3 1_555 1_555
O9B Mo4 1_555 1_555
N1C Cu2 1_555 1_555
N4B Cu2 1_555 1_555
N6A Cu1 1_555 1_555
Mo2 O13 1_555 1_555
Mo3 O10 1_555 1_555
Mo4 O5 1_555 1_555
Mo4 O10 1_555 1_555
Mo4 O2B 1_555 1_555
Cu1 O6 1_555 1_555
Cu2 O12 1_555 1_555
O5 Mo3B 1_555 1_555
O9 Mo4B 1_555 1_555
N2 C6 1_555 1_555
C2 C8 1_555 1_555
C4 C5 1_555 1_555
C4 C9 1_555 1_555
Mo3B O2B 1_555 1_555
Mo4B O5B 1_555 1_555

#END
