
#######################################################################
#
#                 Cambridge Crystallographic Data Centre
#                                CCDC 
#
#######################################################################
#
# If this CIF has been generated from an entry in the Cambridge 
# Structural Database, then it will include bibliographic, chemical, 
# crystal, experimental, refinement or atomic coordinate data resulting 
# from the CCDC's data processing and validation procedures.
#
#######################################################################

data_IMIXIM
_symmetry_cell_setting           rhombohedral
_symmetry_space_group_name_H-M   'R -3'
_symmetry_Int_Tables_number      148
_space_group_name_Hall           '-R 3'
loop_
_symmetry_equiv_pos_site_id
_symmetry_equiv_pos_as_xyz
1 x,y,z
2 -y,x-y,z
3 -x+y,-x,z
4 2/3+x,1/3+y,1/3+z
5 2/3-y,1/3+x-y,1/3+z
6 2/3-x+y,1/3-x,1/3+z
7 1/3+x,2/3+y,2/3+z
8 1/3-y,2/3+x-y,2/3+z
9 1/3-x+y,2/3-x,2/3+z
10 -x,-y,-z
11 y,-x+y,-z
12 x-y,x,-z
13 1/3-x,2/3-y,2/3-z
14 1/3+y,2/3-x+y,2/3-z
15 1/3+x-y,2/3+x,2/3-z
16 2/3-x,1/3-y,1/3-z
17 2/3+y,1/3-x+y,1/3-z
18 2/3+x-y,1/3+x,1/3-z
_cell_length_a                   29.758(2)
_cell_length_b                   29.758(2)
_cell_length_c                   11.8240(12)
_cell_angle_alpha                90
_cell_angle_beta                 90
_cell_angle_gamma                120
_cell_volume                     9067.81
loop_
_atom_site_label
_atom_site_type_symbol
_atom_site_fract_x
_atom_site_fract_y
_atom_site_fract_z
F1 F 0.6326(7) 0.2690(6) 0.0170(8)
O1 O 0.6667 0.3333 0.2281(6)
Cu1 Cu 0.63308(2) 0.26177(2) 0.19486(7)
Cu2 Cu 0.56532(2) 0.01104(2) 0.04201(5)
N1 N 0.61050(17) 0.18787(18) 0.1784(4)
C1 C 0.5617(2) 0.1482(2) 0.1606(6)
H1 H 0.5332 0.1541 0.163
C2 C 0.5533(2) 0.0983(2) 0.1386(6)
H2 H 0.519 0.0709 0.1246
N2 N 0.59179(17) 0.08832(16) 0.1369(4)
C3 C 0.6404(2) 0.1276(2) 0.1582(5)
H3 H 0.6684 0.1209 0.1592
C4 C 0.6500(2) 0.1779(2) 0.1788(5)
C5 C 0.7018(2) 0.2231(2) 0.1945(5)
C6 C 0.7489(2) 0.2168(2) 0.2029(5)
H4 H 0.754 0.2035 0.131
H5 H 0.7438 0.1922 0.2636
H6 H 0.7796 0.2504 0.2195
N3 N 0.70214(17) 0.26587(17) 0.2007(4)
O2 O 0.74622(16) 0.31065(14) 0.2148(4)
N4 N 0.36727(15) -0.04249(15) 0.0412(4)
C7 C 0.37168(18) -0.05314(18) 0.1510(5)
C8 C 0.32997(19) -0.06952(19) 0.2239(4)
H7 H 0.3339 -0.0749 0.3016
N5 N 0.28444(14) -0.07778(15) 0.1856(4)
C9 C 0.27865(18) -0.07098(19) 0.0765(4)
H8 H 0.2456 -0.0786 0.0489
C10 C 0.32022(19) -0.0529(2) 0.0027(4)
H9 H 0.3157 -0.0477 -0.0748
C11 C 0.42308(19) -0.0444(2) 0.1831(5)
C12 C 0.4333(3) -0.0569(3) 0.3001(6)
H10 H 0.4015 -0.0708 0.3452
H11 H 0.4606 -0.0253 0.3358
H12 H 0.4445 -0.0827 0.2955
N6 N 0.45670(15) -0.02785(16) 0.1028(4)
O3 O 0.50307(14) -0.02241(16) 0.1274(3)
Cu1A Cu 0.73823(2) 0.37131(3) 0.19486(7)
Cu1B Cu 0.62869(3) 0.36692(2) 0.19486(7)
Cu2I Cu 0.43468(2) -0.01104(2) -0.04201(5)
Cu2Q Cu 0.22095(3) -0.10135(2) 0.29132(5)
O2B O 0.56443(21) 0.25378(16) 0.2148(4)
N4I N 0.63273(15) 0.04249(15) -0.0412(4)
N5P N 0.58889(15) -0.02889(21) 0.1477(4)
N6I N 0.54330(15) 0.02785(16) -0.1028(4)
loop_
_geom_bond_atom_site_label_1
_geom_bond_atom_site_label_2
_geom_bond_site_symmetry_1
_geom_bond_site_symmetry_2
O1 Cu1 1_555 1_555
Cu1 N1 1_555 1_555
Cu2 N2 1_555 1_555
N1 C1 1_555 1_555
C1 H1 1_555 1_555
C2 C1 1_555 1_555
H2 C2 1_555 1_555
N2 C2 1_555 1_555
C3 N2 1_555 1_555
H3 C3 1_555 1_555
C4 N1 1_555 1_555
C5 C4 1_555 1_555
C6 C5 1_555 1_555
H4 C6 1_555 1_555
H5 C6 1_555 1_555
H6 C6 1_555 1_555
N3 Cu1 1_555 1_555
O2 N3 1_555 1_555
N4 C7 1_555 1_555
C7 C8 1_555 1_555
C8 H7 1_555 1_555
N5 C8 1_555 1_555
C9 N5 1_555 1_555
H8 C9 1_555 1_555
C10 N4 1_555 1_555
H9 C10 1_555 1_555
C11 C7 1_555 1_555
C12 C11 1_555 1_555
H10 C12 1_555 1_555
H11 C12 1_555 1_555
H12 C12 1_555 1_555
N6 C11 1_555 1_555
O3 Cu2 1_555 1_555
Cu1A O1 1_555 1_555
Cu1B O1 1_555 1_555
Cu2I N4 1_555 1_555
Cu2Q N5 1_555 1_555
O2B Cu1 1_555 1_555
N4I Cu2 1_555 1_555
N5P Cu2 1_555 1_555
N6I Cu2 1_555 1_555
C3 C4 1_555 1_555
C5 N3 1_555 1_555
O2 Cu1A 1_555 1_555
C9 C10 1_555 1_555
N6 O3 1_555 1_555
N6 Cu2I 1_555 1_555

#END
