
#######################################################################
#
#                 Cambridge Crystallographic Data Centre
#                                CCDC 
#
#######################################################################
#
# If this CIF has been generated from an entry in the Cambridge 
# Structural Database, then it will include bibliographic, chemical, 
# crystal, experimental, refinement or atomic coordinate data resulting 
# from the CCDC's data processing and validation procedures.
#
#######################################################################

data_IMIXAE
_symmetry_cell_setting           monoclinic
_symmetry_space_group_name_H-M   'C c'
_symmetry_Int_Tables_number      9
_space_group_name_Hall           'C -2yc'
loop_
_symmetry_equiv_pos_site_id
_symmetry_equiv_pos_as_xyz
1 x,y,z
2 x,-y,1/2+z
3 1/2+x,1/2+y,z
4 1/2+x,1/2-y,1/2+z
_cell_length_a                   24.315(11)
_cell_length_b                   10.174(5)
_cell_length_c                   26.310(8)
_cell_angle_alpha                90
_cell_angle_beta                 117.522(14)
_cell_angle_gamma                90
_cell_volume                     5772.03
loop_
_atom_site_label
_atom_site_type_symbol
_atom_site_fract_x
_atom_site_fract_y
_atom_site_fract_z
Cu1 Cu 0.82699(4) 0.49586(9) 0.63870(4)
Cu2 Cu 0.68731(4) 0.42269(10) 0.60104(4)
Cu3 Cu 0.79258(4) 0.29834(9) 0.71806(3)
Cu4 Cu 0.68813(4) 0.91955(10) 0.93294(4)
Cu5 Cu 0.79049(4) 0.79036(9) 0.90215(3)
Cu6 Cu 0.83122(4) 0.98568(9) 1.01108(3)
O1 O 0.7679(2) 0.4543(5) 0.66814(19)
H1 H 0.752(4) 0.525(6) 0.679(3)
O2 O 0.7666(2) 0.9435(5) 0.9328(2)
H2 H 0.7580(18) 1.023(4) 0.916(4)
O3 O 0.8810(3) 0.3140(6) 0.7380(2)
O4 O 0.7675(3) 0.5843(6) 0.5700(2)
O5 O 0.6606(3) 0.3001(6) 0.6408(2)
O6 O 0.6568(3) 0.7900(6) 0.8711(2)
O7 O 0.8766(2) 0.8053(5) 0.9504(2)
O8 O 0.7745(3) 1.0632(6) 1.0348(2)
N1 N 0.8897(3) 0.3763(7) 0.6983(2)
N2 N 0.7102(3) 0.5349(8) 0.5520(3)
N3 N 0.7055(3) 0.2353(6) 0.6839(2)
N4 N 0.7035(3) 0.7268(6) 0.8665(2)
N5 N 0.8912(3) 0.8796(6) 0.9956(2)
N6 N 0.7158(3) 1.0239(7) 1.0038(3)
N7 N 0.8920(2) 0.5005(5) 0.6132(2)
C1 C 0.8873(2) 0.5615(6) 0.5641(2)
H3 H 0.8519 0.6092 0.5408
C2 C 0.9355(3) 0.5511(7) 0.5498(2)
H4 H 0.9324 0.5919 0.5169
N8 N 0.9884(2) 0.4798(7) 0.5847(2)
C3 C 0.9931(2) 0.4188(6) 0.6338(2)
H5 H 1.0285 0.3711 0.6571
C4 C 0.9449(2) 0.4292(5) 0.64808(18)
C5 C 0.9404(4) 0.3610(8) 0.6950(3)
C6 C 0.9888(5) 0.2708(11) 0.7336(4)
H6 H 0.9777 0.2374 0.7617
H7 H 1.0276 0.3170 0.7525
H8 H 0.9929 0.1991 0.7118
N9 N 0.6097(2) 0.4164(6) 0.53027(16)
C7 C 0.5548(3) 0.3568(6) 0.5223(2)
H9 H 0.5539 0.3071 0.5515
C8 C 0.5013(2) 0.3714(7) 0.4705(2)
H10 H 0.4646 0.3315 0.4651
N10 N 0.5027(2) 0.4456(6) 0.42674(19)
C9 C 0.5575(3) 0.5053(6) 0.43475(18)
H11 H 0.5584 0.5550 0.4055
C10 C 0.6110(2) 0.4907(6) 0.4865(2)
C11 C 0.6693(4) 0.5509(9) 0.5013(3)
C12 C 0.6828(4) 0.6239(10) 0.4574(3)
H12 H 0.7172 0.6825 0.4770
H13 H 0.6469 0.6734 0.4322
H14 H 0.6928 0.5616 0.4355
N11 N 0.7989(2) -0.0812(4) 0.82779(19)
C13 C 0.85506(18) -0.0208(5) 0.84065(17)
H15 H 0.8915 -0.0513 0.8711
C14 C 0.85686(16) 0.0850(5) 0.80807(19)
H16 H 0.8945 0.1254 0.8167
N12 N 0.8025(2) 0.1305(4) 0.76262(16)
C15 C 0.74625(16) 0.0702(4) 0.74975(16)
C16 C 0.74445(18) -0.0357(5) 0.7823(2)
H17 H 0.7068 -0.0761 0.7737
C17 C 0.6943(4) 0.1260(8) 0.7026(3)
C18 C 0.6321(5) 0.0763(10) 0.6852(5)
H18 H 0.6031 0.1230 0.6518
H19 H 0.6215 0.0886 0.7158
H20 H 0.6306 -0.0157 0.6764
N13 N 0.7942(2) 0.4262(4) 0.79094(17)
C19 C 0.84963(17) 0.4931(5) 0.8224(2)
H21 H 0.8848 0.4703 0.8189
C20 C 0.85252(16) 0.5940(5) 0.85921(19)
H22 H 0.8896 0.6387 0.8803
N14 N 0.8000(2) 0.6281(4) 0.86448(17)
C21 C 0.74463(16) 0.5612(5) 0.83298(19)
C22 C 0.74174(17) 0.4603(5) 0.79621(18)
H23 H 0.7047 0.4155 0.7751
C23 C 0.6926(3) 0.6178(7) 0.8365(2)
C24 C 0.6253(6) 0.5604(13) 0.8062(5)
H24 H 0.5983 0.6141 0.8150
H25 H 0.6255 0.4724 0.8194
H26 H 0.6106 0.5594 0.7655
N15 N 0.90796(19) 1.0279(5) 1.08228(17)
C25 C 0.9132(2) 1.1139(6) 1.1253(2)
H27 H 0.8778 1.1510 1.1244
C26 C 0.9713(3) 1.1444(7) 1.1698(2)
H28 H 0.9747 1.2019 1.1986
N16 N 1.0242(2) 1.0890(7) 1.1711(2)
C27 C 1.0190(2) 1.0030(7) 1.1280(3)
H29 H 1.0544 0.9659 1.1290
C28 C 0.9609(2) 0.9725(6) 1.0836(2)
C29 C 0.9492(3) 0.8898(8) 1.0358(3)
C30 C 1.0002(4) 0.8182(9) 1.0312(3)
H30 H 0.9882 0.8003 0.9916
H31 H 1.0082 0.7369 1.0519
H32 H 1.0370 0.8712 1.0471
N17 N 0.6103(2) 0.9258(6) 0.9404(2)
C31 C 0.5530(2) 0.8738(6) 0.9026(2)
H33 H 0.5488 0.8249 0.8712
C32 C 0.5018(2) 0.8948(7) 0.9119(3)
H34 H 0.4634 0.8600 0.8866
N18 N 0.5080(2) 0.9679(8) 0.9588(3)
C33 C 0.5654(3) 1.0199(7) 0.9966(2)
H35 H 0.5695 1.0688 1.0280
C34 C 0.6165(2) 0.9989(6) 0.9874(2)
C35 C 0.6776(4) 1.0455(9) 1.0242(4)
C36 C 0.6912(5) 1.1124(13) 1.0801(5)
H36 H 0.7234 1.1765 1.0891
H37 H 0.7044 1.0482 1.1101
H38 H 0.6543 1.1552 1.0765
N19 N 0.7663(4) 0.7439(8) 1.0452(3)
O9 O 0.8235(5) 0.7581(11) 1.0509(5)
O10 O 0.7254(4) 0.7319(8) 0.9991(3)
O11 O 0.7674(5) 0.7245(9) 1.0928(3)
N21 N 0.8305(5) 1.2315(9) 0.9256(3)
O15 O 0.8590(4) 1.1787(8) 0.9738(3)
O16 O 0.7811(4) 1.1798(7) 0.8911(3)
O17 O 0.8669(5) 1.2966(11) 0.9088(4)
O21 O 0.8723(4) 0.6763(8) 0.7006(3)
C37 C 0.8444(6) 0.7892(12) 0.7126(5)
H39 H 0.8763 0.8455 0.7394
H40 H 0.8181 0.7607 0.7286
H41 H 0.8202 0.8366 0.6777
O22 O 0.6455(4) 1.0938(8) 0.8648(3)
C38 C 0.63697(19) 1.1212(5) 0.80868(17)
H42 H 0.6194 1.2074 0.7973
H43 H 0.6095 1.0572 0.7824
H44 H 0.6763 1.1177 0.8084
Cu5_2 Cu 0.79049(4) -0.20964(9) 0.90215(3)
N11_2 N 0.7989(2) 0.9188(4) 0.82779(19)
N20 N 0.6665(3) 0.6724(8) 0.6776(3)
O12 O 0.6417(3) 0.6145(8) 0.6293(3)
O13 O 0.6305(4) 0.7357(8) 0.6932(4)
O14 O 0.7225(3) 0.6665(7) 0.7084(3)
N22 N 0.9920(4) 0.7125(10) 0.8328(4)
O18 O 0.9560(6) 0.7213(13) 0.8491(6)
O19 O 1.0419(4) 0.6940(10) 0.8796(4)
O20 O 0.9719(5) 0.6109(10) 0.7991(4)
loop_
_geom_bond_atom_site_label_1
_geom_bond_atom_site_label_2
_geom_bond_site_symmetry_1
_geom_bond_site_symmetry_2
Cu1 O1 1_555 1_555
Cu2 O1 1_555 1_555
Cu3 O1 1_555 1_555
Cu4 O2 1_555 1_555
Cu5 O2 1_555 1_555
Cu6 O2 1_555 1_555
O1 H1 1_555 1_555
O2 H2 1_555 1_555
O3 Cu3 1_555 1_555
O4 Cu1 1_555 1_555
O5 Cu2 1_555 1_555
O6 Cu4 1_555 1_555
O7 Cu5 1_555 1_555
O8 Cu6 1_555 1_555
N1 Cu1 1_555 1_555
N2 Cu2 1_555 1_555
N3 Cu3 1_555 1_555
N4 Cu5 1_555 1_555
N5 Cu6 1_555 1_555
N6 Cu4 1_555 1_555
N7 Cu1 1_555 1_555
C1 N7 1_555 1_555
H3 C1 1_555 1_555
C2 C1 1_555 1_555
H4 C2 1_555 1_555
N8 C2 1_555 1_555
C3 N8 1_555 1_555
H5 C3 1_555 1_555
C4 N7 1_555 1_555
C5 N1 1_555 1_555
C6 C5 1_555 1_555
H6 C6 1_555 1_555
H7 C6 1_555 1_555
H8 C6 1_555 1_555
N9 Cu2 1_555 1_555
C7 N9 1_555 1_555
H9 C7 1_555 1_555
C8 C7 1_555 1_555
H10 C8 1_555 1_555
N10 C8 1_555 1_555
C9 N10 1_555 1_555
H11 C9 1_555 1_555
C10 N9 1_555 1_555
C11 N2 1_555 1_555
C12 C11 1_555 1_555
H12 C12 1_555 1_555
H13 C12 1_555 1_555
H14 C12 1_555 1_555
N11 C13 1_555 1_555
C13 H15 1_555 1_555
C14 C13 1_555 1_555
H16 C14 1_555 1_555
N12 Cu3 1_555 1_555
C15 N12 1_555 1_555
C16 N11 1_555 1_555
H17 C16 1_555 1_555
C17 N3 1_555 1_555
C18 C17 1_555 1_555
H18 C18 1_555 1_555
H19 C18 1_555 1_555
H20 C18 1_555 1_555
N13 Cu3 1_555 1_555
C19 N13 1_555 1_555
H21 C19 1_555 1_555
C20 C19 1_555 1_555
H22 C20 1_555 1_555
N14 Cu5 1_555 1_555
C21 N14 1_555 1_555
C22 N13 1_555 1_555
H23 C22 1_555 1_555
C23 N4 1_555 1_555
C24 C23 1_555 1_555
H24 C24 1_555 1_555
H25 C24 1_555 1_555
H26 C24 1_555 1_555
N15 Cu6 1_555 1_555
C25 N15 1_555 1_555
H27 C25 1_555 1_555
C26 C25 1_555 1_555
H28 C26 1_555 1_555
N16 C26 1_555 1_555
C27 N16 1_555 1_555
H29 C27 1_555 1_555
C28 N15 1_555 1_555
C29 N5 1_555 1_555
C30 C29 1_555 1_555
H30 C30 1_555 1_555
H31 C30 1_555 1_555
H32 C30 1_555 1_555
N17 Cu4 1_555 1_555
C31 N17 1_555 1_555
H33 C31 1_555 1_555
C32 C31 1_555 1_555
H34 C32 1_555 1_555
N18 C32 1_555 1_555
C33 N18 1_555 1_555
H35 C33 1_555 1_555
C34 N17 1_555 1_555
C35 N6 1_555 1_555
C36 C35 1_555 1_555
H36 C36 1_555 1_555
H37 C36 1_555 1_555
H38 C36 1_555 1_555
N19 O9 1_555 1_555
O10 Cu4 1_555 1_555
O11 N19 1_555 1_555
N20 O12 1_555 1_555
O13 N20 1_555 1_555
O14 N20 1_555 1_555
N21 O15 1_555 1_555
O15 Cu6 1_555 1_555
O16 N21 1_555 1_555
O17 N21 1_555 1_555
N22 O18 1_555 1_555
O19 N22 1_555 1_555
O20 N22 1_555 1_555
O21 Cu1 1_555 1_555
C37 O21 1_555 1_555
H39 C37 1_555 1_555
H40 C37 1_555 1_555
H41 C37 1_555 1_555
O22 Cu4 1_555 1_555
C38 O22 1_555 1_555
H42 C38 1_555 1_555
H43 C38 1_555 1_555
H44 C38 1_555 1_555
Cu5_2 N11 1_555 1_555
N11_2 Cu5 1_555 1_555
O3 N1 1_555 1_555
O4 N2 1_555 1_555
O5 N3 1_555 1_555
O6 N4 1_555 1_555
O7 N5 1_555 1_555
O8 N6 1_555 1_555
C3 C4 1_555 1_555
C4 C5 1_555 1_555
C9 C10 1_555 1_555
C10 C11 1_555 1_555
C14 N12 1_555 1_555
C15 C16 1_555 1_555
C15 C17 1_555 1_555
C20 N14 1_555 1_555
C21 C22 1_555 1_555
C21 C23 1_555 1_555
C27 C28 1_555 1_555
C28 C29 1_555 1_555
C33 C34 1_555 1_555
C34 C35 1_555 1_555
N19 O10 1_555 1_555

#END
