
#######################################################################
#
#                 Cambridge Crystallographic Data Centre
#                                CCDC 
#
#######################################################################
#
# If this CIF has been generated from an entry in the Cambridge 
# Structural Database, then it will include bibliographic, chemical, 
# crystal, experimental, refinement or atomic coordinate data resulting 
# from the CCDC's data processing and validation procedures.
#
#######################################################################

data_IMORIM
_symmetry_cell_setting           monoclinic
_symmetry_space_group_name_H-M   'P 21'
_symmetry_Int_Tables_number      4
_space_group_name_Hall           'P 2yb'
loop_
_symmetry_equiv_pos_site_id
_symmetry_equiv_pos_as_xyz
1 x,y,z
2 -x,1/2+y,-z
_cell_length_a                   8.462(2)
_cell_length_b                   10.293(2)
_cell_length_c                   26.698(5)
_cell_angle_alpha                90
_cell_angle_beta                 98.33(3)
_cell_angle_gamma                90
_cell_volume                     2300.85
loop_
_atom_site_label
_atom_site_type_symbol
_atom_site_fract_x
_atom_site_fract_y
_atom_site_fract_z
Cu1 Cu 0.24200(12) 0.09419(9) 0.60217(3)
Cu2 Cu 0.72332(14) -0.00073(13) 1.10332(4)
S1 S 0.5579(4) 0.3121(4) 0.41760(12)
S2 S 1.0649(5) -0.2064(4) 0.92249(13)
S3 S -0.1398(6) -0.0920(5) 0.79351(14)
S4 S 0.2957(6) -0.0854(5) 1.28827(17)
N1 N 0.6447(10) 0.0196(9) 1.0278(3)
N2 N -0.2008(10) 0.0060(10) 0.1784(3)
N3 N 0.1571(8) 0.1070(8) 0.5279(2)
N4 N 0.3310(9) 0.0597(7) 0.6757(3)
O1 O 0.8387(11) -0.2483(9) 1.1024(3)
O2 O 0.9363(8) -0.0530(7) 1.0895(2)
O3 O 0.5326(10) 0.1483(11) 1.1242(3)
O4 O 0.0455(7) 0.0002(7) 0.6139(2)
O5 O -0.0053(10) 0.2053(8) 0.6311(3)
O6 O 0.4448(8) 0.1692(6) 0.5896(2)
O7 O 0.3507(9) 0.3629(7) 0.6041(3)
O8 O 0.4844(10) -0.0544(11) 1.1204(3)
C1 C -0.1513(11) 0.0192(9) 0.7074(4)
C2 C -0.0456(11) 0.0871(12) 0.6299(3)
C3 C 0.5745(13) 0.1275(10) 1.0111(4)
H1 H 0.5531 0.1907 1.0342
C4 C 0.1686(12) 0.2100(9) 0.4989(3)
H2 H 0.2127 0.2846 0.5149
C5 C 0.0535(10) 0.1086(10) 0.4223(3)
C6 C 0.6776(12) -0.0722(9) 0.9948(4)
H3 H 0.7334 -0.1466 1.0066
C7 C 0.0374(11) -0.0025(11) 0.4508(3)
H4 H -0.0068 -0.0774 0.4351
C8 C 0.6026(12) 0.3099(10) 0.5140(4)
C9 C 0.4180(12) 0.1461(8) 0.7040(3)
H5 H 0.4477 0.2214 0.6885
C10 C -0.0693(11) 0.0216(9) 0.3400(3)
H6 H -0.0967 -0.0517 0.3572
C11 C 0.1214(12) 0.2172(9) 0.4474(3)
H7 H 0.1350 0.2935 0.4298
C12 C 0.0876(10) -0.0016(11) 0.5029(3)
H8 H 0.0741 -0.0761 0.5215
C13 C 0.4729(10) -0.0044(11) 0.8354(3)
H9 H 0.4775 -0.0902 0.8464
C14 C -0.1827(12) -0.0888(9) 0.2606(3)
H10 H -0.2047 -0.1597 0.2800
C15 C 0.4244(11) 0.0184(10) 0.7798(3)
C16 C 0.5092(10) 0.0846(11) 0.8696(3)
H11 H 0.5050 0.1705 0.8587
C17 C 0.4520(12) 0.2912(11) 0.5898(4)
C18 C 1.0363(15) -0.2758(12) 0.9786(4)
H12 H 0.9819 -0.3536 0.9809
C19 C 0.6279(12) -0.0557(10) 0.9428(3)
H13 H 0.6423 -0.1226 0.9205
C20 C 0.5397(13) 0.3844(11) 0.4740(4)
H14 H 0.4923 0.4650 0.4771
C21 C -0.0888(12) 0.1260(10) 0.2521(3)
H15 H -0.0420 0.2022 0.2659
C22 C 0.9442(12) -0.1839(9) 1.0896(3)
C23 C -0.1350(12) 0.1150(12) 0.2007(3)
H16 H -0.1202 0.1860 0.1804
C24 C 0.6018(13) 0.3497(10) 0.5694(4)
H17 H 0.5997 0.4437 0.5719
H18 H 0.6984 0.3188 0.5899
C25 C -0.1917(13) 0.0436(10) 0.6516(4)
H19 H -0.2737 0.1100 0.6456
H20 H -0.2334 -0.0354 0.6347
C26 C 0.4675(11) 0.1312(9) 0.7553(3)
H21 H 0.5287 0.1952 0.7735
C27 C 0.0028(10) 0.1134(9) 0.3676(3)
H22 H 0.0244 0.1895 0.3510
C28 C 0.6720(13) 0.1976(11) 0.4998(4)
H23 H 0.7261 0.1390 0.5227
C29 C 0.5303(12) 0.1499(10) 0.9586(3)
H24 H 0.4820 0.2282 0.9479
C30 C 1.1020(12) -0.2046(10) 1.0200(4)
C31 C 0.3389(12) -0.0740(9) 0.7505(3)
H25 H 0.3107 -0.1515 0.7648
C32 C -0.1136(11) 0.0198(10) 0.2839(3)
C33 C 1.0909(13) -0.2387(12) 1.0748(4)
H26 H 1.0906 -0.3324 1.0788
H27 H 1.1831 -0.2044 1.0966
C34 C 0.5563(12) 0.0615(9) 0.9242(3)
C35 C -0.2204(14) -0.0939(11) 0.2082(3)
H28 H -0.2611 -0.1710 0.1933
C36 C 1.1763(14) -0.0896(12) 1.0034(5)
H29 H 1.2260 -0.0277 1.0258
C37 C 0.2947(11) -0.0502(9) 0.6989(3)
H30 H 0.2369 -0.1138 0.6795
C38 C 0.6528(14) 0.1813(12) 0.4483(5)
H31 H 0.6869 0.1087 0.4321
C39 C 1.1675(15) -0.0790(12) 0.9517(5)
H32 H 1.2116 -0.0116 0.9351
C40 C -0.2006(14) -0.0942(11) 0.7294(4)
H33 H -0.2579 -0.1611 0.7118
C41 C -0.0694(14) 0.0976(14) 0.7437(4)
H34 H -0.0267 0.1771 0.7359
C42 C 0.4464(15) 0.0556(16) 1.1302(4)
C43 C 0.2963(13) 0.0778(13) 1.1524(4)
H35 H 0.2677 0.1690 1.1494
H36 H 0.2102 0.0280 1.1336
C44 C 0.3154(12) 0.0391(10) 1.2070(4)
C45 C 0.4159(15) 0.1002(15) 1.2459(4)
H37 H 0.4794 0.1702 1.2395
C46 C 0.2443(13) -0.0692(11) 1.2267(4)
H38 H 0.1755 -0.1258 1.2070
C47 C 0.4182(13) 0.0471(9) 1.3005(4)
H39 H 0.4709 0.0784 1.3311
C48 C -0.0540(17) 0.0489(12) 0.7940(5)
H40 H -0.0028 0.0912 0.8226
Cu2_2 Cu -0.27668(14) -0.00073(13) 0.10332(4)
N2_2 N 0.7992(10) 0.0060(10) 1.1784(3)
loop_
_geom_bond_atom_site_label_1
_geom_bond_atom_site_label_2
_geom_bond_site_symmetry_1
_geom_bond_site_symmetry_2
Cu1 N3 1_555 1_555
Cu2 N1 1_555 1_555
S1 C20 1_555 1_555
S2 C18 1_555 1_555
S3 C40 1_555 1_555
S4 C46 1_555 1_555
N1 C3 1_555 1_555
N2 C23 1_555 1_555
N3 C4 1_555 1_555
N4 Cu1 1_555 1_555
O1 C22 1_555 1_555
O2 Cu2 1_555 1_555
O3 C42 1_555 1_555
O4 Cu1 1_555 1_555
O5 C2 1_555 1_555
O6 Cu1 1_555 1_555
O7 C17 1_555 1_555
O8 Cu2 1_555 1_555
C1 C25 1_555 1_555
C2 O4 1_555 1_555
C3 H1 1_555 1_555
C4 H2 1_555 1_555
C5 C7 1_555 1_555
C6 N1 1_555 1_555
H3 C6 1_555 1_555
C7 H4 1_555 1_555
C8 C20 1_555 1_555
C9 N4 1_555 1_555
H5 C9 1_555 1_555
C10 H6 1_555 1_555
C11 C4 1_555 1_555
H7 C11 1_555 1_555
C12 N3 1_555 1_555
H8 C12 1_555 1_555
C13 H9 1_555 1_555
C14 H10 1_555 1_555
C15 C13 1_555 1_555
C16 C13 1_555 1_555
H11 C16 1_555 1_555
C17 O6 1_555 1_555
C18 H12 1_555 1_555
C19 C6 1_555 1_555
H13 C19 1_555 1_555
C20 H14 1_555 1_555
C21 H15 1_555 1_555
C22 O2 1_555 1_555
C23 C21 1_555 1_555
H16 C23 1_555 1_555
C24 C8 1_555 1_555
H17 C24 1_555 1_555
H18 C24 1_555 1_555
C25 C2 1_555 1_555
H19 C25 1_555 1_555
H20 C25 1_555 1_555
C26 C9 1_555 1_555
H21 C26 1_555 1_555
C27 C5 1_555 1_555
H22 C27 1_555 1_555
C28 C8 1_555 1_555
H23 C28 1_555 1_555
C29 C3 1_555 1_555
H24 C29 1_555 1_555
C30 C18 1_555 1_555
C31 C15 1_555 1_555
H25 C31 1_555 1_555
C32 C10 1_555 1_555
C33 C22 1_555 1_555
H26 C33 1_555 1_555
H27 C33 1_555 1_555
C34 C16 1_555 1_555
C35 N2 1_555 1_555
H28 C35 1_555 1_555
C36 C30 1_555 1_555
H29 C36 1_555 1_555
C37 N4 1_555 1_555
H30 C37 1_555 1_555
C38 S1 1_555 1_555
H31 C38 1_555 1_555
C39 S2 1_555 1_555
H32 C39 1_555 1_555
C40 C1 1_555 1_555
H33 C40 1_555 1_555
C41 C1 1_555 1_555
H34 C41 1_555 1_555
C42 O8 1_555 1_555
C43 C42 1_555 1_555
H35 C43 1_555 1_555
H36 C43 1_555 1_555
C44 C43 1_555 1_555
C45 C44 1_555 1_555
H37 C45 1_555 1_555
C46 C44 1_555 1_555
H38 C46 1_555 1_555
C47 S4 1_555 1_555
H39 C47 1_555 1_555
C48 S3 1_555 1_555
H40 C48 1_555 1_555
Cu2_2 N2 1_555 1_555
N2_2 Cu2 1_555 1_555
C5 C11 1_555 1_555
C7 C12 1_555 1_555
C10 C27 1_555 1_555
C14 C32 1_555 1_555
C14 C35 1_555 1_555
C15 C26 1_555 1_555
C17 C24 1_555 1_555
C19 C34 1_555 1_555
C21 C32 1_555 1_555
C28 C38 1_555 1_555
C29 C34 1_555 1_555
C30 C33 1_555 1_555
C31 C37 1_555 1_555
C36 C39 1_555 1_555
C41 C48 1_555 1_555
C45 C47 1_555 1_555

#END
