
#######################################################################
#
#                 Cambridge Crystallographic Data Centre
#                                CCDC 
#
#######################################################################
#
# If this CIF has been generated from an entry in the Cambridge 
# Structural Database, then it will include bibliographic, chemical, 
# crystal, experimental, refinement or atomic coordinate data resulting 
# from the CCDC's data processing and validation procedures.
#
#######################################################################

data_IMOTIO
_symmetry_cell_setting           monoclinic
_symmetry_space_group_name_H-M   'P 21/m'
_symmetry_Int_Tables_number      11
_space_group_name_Hall           '-P 2yb'
loop_
_symmetry_equiv_pos_site_id
_symmetry_equiv_pos_as_xyz
1 x,y,z
2 -x,1/2+y,-z
3 -x,-y,-z
4 x,1/2-y,z
_cell_length_a                   9.0757(7)
_cell_length_b                   29.649(2)
_cell_length_c                   10.9453(8)
_cell_angle_alpha                90
_cell_angle_beta                 109.2940(10)
_cell_angle_gamma                90
_cell_volume                     2779.8
loop_
_atom_site_label
_atom_site_type_symbol
_atom_site_fract_x
_atom_site_fract_y
_atom_site_fract_z
S1 S 0.11973(17) 0.36636(4) 0.60350(11)
Zn1 Zn -0.33037(7) 0.524484(18) -0.02203(5)
Zn2 Zn 0.34190(9) 0.2500 0.14375(7)
O1 O -0.2031(4) 0.47250(10) 0.0767(3)
O3 O -0.2310(4) 0.48493(11) 0.2699(3)
O5 O 0.2433(4) 0.30187(11) 0.2009(3)
O7 O 0.1371(5) 0.34602(11) 0.0296(3)
O8 O -0.0216(5) 0.34718(14) 0.6139(3)
O9 O 0.1633(5) 0.40845(12) 0.6733(3)
O10 O 0.2500(5) 0.33482(12) 0.6341(3)
O11 O -0.5386(4) 0.47198(11) -0.1102(3)
H7 H -0.509(6) 0.4443(8) -0.127(5)
H8 H -0.608(5) 0.4844(15) -0.180(3)
O12 O -0.1681(5) 0.57262(12) 0.0807(3)
H9 H -0.147(7) 0.5986(10) 0.047(5)
H10 H -0.134(6) 0.5781(18) 0.1661(14)
O13 O 0.1950(10) 0.2500 -0.0403(7)
H11 H 0.255(10) 0.272(2) -0.054(10)
N1 N -0.4627(5) 0.57540(12) -0.1503(4)
N2 N -0.2708(5) 0.51149(12) -0.1893(4)
N3 N 0.5551(8) 0.2500 0.1065(6)
N4 N 0.5126(7) 0.2500 0.3377(5)
C1 C -0.0592(5) 0.42681(15) 0.2538(4)
C2 C 0.0027(6) 0.40074(14) 0.1767(4)
H12 H -0.0225 0.4075 0.0892
C3 C 0.1011(5) 0.36496(14) 0.2287(4)
C4 C 0.1381(6) 0.35510(15) 0.3598(4)
H13 H 0.2048 0.3312 0.3957
C5 C 0.0766(6) 0.38047(15) 0.4370(4)
C6 C -0.0219(6) 0.41621(15) 0.3842(4)
H14 H -0.0635 0.4333 0.4363
C7 C -0.1724(6) 0.46462(14) 0.1965(4)
C8 C 0.1649(6) 0.33596(15) 0.1445(5)
C9 C -0.5517(6) 0.60772(15) -0.1287(5)
H15 H -0.5577 0.6109 -0.0459
C10 C -0.6368(6) 0.63704(16) -0.2259(5)
H16 H -0.6989 0.6592 -0.2076
C11 C -0.6294(6) 0.63332(17) -0.3472(5)
H17 H -0.6879 0.6524 -0.4127
C12 C -0.5333(6) 0.60056(16) -0.3731(5)
C13 C -0.4508(6) 0.57208(15) -0.2707(4)
C14 C -0.5147(7) 0.59437(18) -0.4971(5)
H18 H -0.5690 0.6130 -0.5655
C15 C -0.4219(7) 0.56268(18) -0.5164(5)
H19 H -0.4129 0.5596 -0.5981
C16 C -0.3351(6) 0.53308(16) -0.4145(4)
C17 C -0.3513(5) 0.53814(15) -0.2923(4)
C18 C -0.2309(6) 0.49920(17) -0.4284(5)
H20 H -0.2158 0.4950 -0.5076
C19 C -0.1535(6) 0.47292(17) -0.3253(5)
H21 H -0.0861 0.4504 -0.3338
C20 C -0.1761(6) 0.47998(16) -0.2074(5)
H22 H -0.1224 0.4618 -0.1377
C21 C 0.5718(12) 0.2500 -0.0116(10)
H23 H 0.4843 0.2500 -0.0859
C22 C 0.7212(15) 0.2500 -0.0212(11)
H24 H 0.7312 0.2500 -0.1031
C23 C 0.8543(13) 0.2500 0.0853(11)
H25 H 0.9528 0.2500 0.0765
C24 C 0.8366(10) 0.2500 0.2060(9)
C25 C 0.6845(9) 0.2500 0.2124(7)
C26 C 0.9664(10) 0.2500 0.3209(11)
H26 H 1.0672 0.2500 0.3168
C27 C 0.9440(11) 0.2500 0.4369(10)
H27 H 1.0308 0.2500 0.5117
C28 C 0.7929(10) 0.2500 0.4490(8)
C29 C 0.6591(9) 0.2500 0.3361(7)
C30 C 0.7639(14) 0.2500 0.5655(9)
H28 H 0.8468 0.2500 0.6431
C31 C 0.6106(14) 0.2500 0.5669(9)
H29 H 0.5889 0.2500 0.6442
C32 C 0.4924(11) 0.2500 0.4485(7)
H30 H 0.3902 0.2500 0.4491
S1C S 0.11973(17) 0.13364(4) 0.60350(11)
Zn1C Zn -0.33037(7) -0.024484(18) -0.02203(5)
Zn1B Zn -0.66963(7) 0.475516(18) 0.02203(5)
O1C O -0.2031(4) 0.02750(10) 0.0767(3)
O3C O -0.2310(4) 0.01507(11) 0.2699(3)
O5C O 0.2433(4) 0.19813(11) 0.2009(3)
O7C O 0.1371(5) 0.15398(11) 0.0296(3)
O8C O -0.0216(5) 0.15282(14) 0.6139(3)
O9C O 0.1633(5) 0.09155(12) 0.6733(3)
O10C O 0.2500(5) 0.16518(12) 0.6341(3)
O11B O -0.4614(4) 0.52802(11) 0.1102(3)
O11C O -0.5386(4) 0.02802(11) -0.1102(3)
O11A O -0.4614(4) -0.02802(11) 0.1102(3)
H7B H -0.491(6) 0.5557(8) 0.127(5)
H7C H -0.509(6) 0.0557(8) -0.127(5)
H7A H -0.491(6) -0.0557(8) 0.127(5)
H8B H -0.392(5) 0.5156(15) 0.180(3)
H8C H -0.608(5) 0.0156(15) -0.180(3)
H8A H -0.392(5) -0.0156(15) 0.180(3)
O12C O -0.1681(5) -0.07262(12) 0.0807(3)
H9C H -0.147(7) -0.0986(10) 0.047(5)
H10C H -0.134(6) -0.0781(18) 0.1661(14)
H11C H 0.255(10) 0.228(2) -0.054(10)
N1C N -0.4627(5) -0.07540(12) -0.1503(4)
N2C N -0.2708(5) -0.01149(12) -0.1893(4)
C1C C -0.0592(5) 0.07319(15) 0.2538(4)
C2C C 0.0027(6) 0.09926(14) 0.1767(4)
H12C H -0.0225 0.0925 0.0892
C3C C 0.1011(5) 0.13504(14) 0.2287(4)
C4C C 0.1381(6) 0.14490(15) 0.3598(4)
H13C H 0.2048 0.1688 0.3957
C5C C 0.0766(6) 0.11953(15) 0.4370(4)
C6C C -0.0219(6) 0.08379(15) 0.3842(4)
H14C H -0.0635 0.0667 0.4363
C7C C -0.1724(6) 0.03538(14) 0.1965(4)
C8C C 0.1649(6) 0.16404(15) 0.1445(5)
C9C C -0.5517(6) -0.10772(15) -0.1287(5)
H15C H -0.5577 -0.1109 -0.0459
C10C C -0.6368(6) -0.13704(16) -0.2259(5)
H16C H -0.6989 -0.1592 -0.2076
C11C C -0.6294(6) -0.13332(17) -0.3472(5)
H17C H -0.6879 -0.1524 -0.4127
C12C C -0.5333(6) -0.10056(16) -0.3731(5)
C13C C -0.4508(6) -0.07208(15) -0.2707(4)
C14C C -0.5147(7) -0.09437(18) -0.4971(5)
H18C H -0.5690 -0.1130 -0.5655
C15C C -0.4219(7) -0.06268(18) -0.5164(5)
H19C H -0.4129 -0.0596 -0.5981
C16C C -0.3351(6) -0.03308(16) -0.4145(4)
C17C C -0.3513(5) -0.03814(15) -0.2923(4)
C18C C -0.2309(6) 0.00080(17) -0.4284(5)
H20C H -0.2158 0.0050 -0.5076
C19C C -0.1535(6) 0.02708(17) -0.3253(5)
H21C H -0.0861 0.0496 -0.3338
C20C C -0.1761(6) 0.02002(16) -0.2074(5)
H22C H -0.1224 0.0382 -0.1377
O2 O -0.5375(5) 0.61309(14) 0.1813(4)
H1 H -0.451(5) 0.626(2) 0.234(5)
H2 H -0.606(6) 0.6343(17) 0.185(6)
O4 O 0.2675(12) 0.2500 -0.2589(7)
H3 H 0.1625(19) 0.2500 -0.294(13)
H4 H 0.322(13) 0.2500 -0.315(10)
O6 O -0.1712(6) 0.3507(2) 0.8094(5)
H5 H -0.088(7) 0.347(3) 0.881(5)
H6 H -0.119(9) 0.358(3) 0.755(6)
loop_
_geom_bond_atom_site_label_1
_geom_bond_atom_site_label_2
_geom_bond_site_symmetry_1
_geom_bond_site_symmetry_2
S1 O8 1_555 1_555
Zn1 O1 1_555 1_555
Zn2 O5 1_555 1_555
O1 C7 1_555 1_555
O2 H1 1_555 1_555
H2 O2 1_555 1_555
O3 C7 1_555 1_555
O4 H3 1_555 1_555
H4 O4 1_555 1_555
O5 C8 1_555 1_555
O6 H5 1_555 1_555
H6 O6 1_555 1_555
O7 C8 1_555 1_555
O9 S1 1_555 1_555
O10 S1 1_555 1_555
O11 Zn1 1_555 1_555
H7 O11 1_555 1_555
H8 O11 1_555 1_555
O12 Zn1 1_555 1_555
H9 O12 1_555 1_555
H10 O12 1_555 1_555
O13 Zn2 1_555 1_555
H11 O13 1_555 1_555
N1 Zn1 1_555 1_555
N2 Zn1 1_555 1_555
N3 Zn2 1_555 1_555
N4 Zn2 1_555 1_555
C1 C2 1_555 1_555
C2 H12 1_555 1_555
C3 C2 1_555 1_555
C4 C3 1_555 1_555
H13 C4 1_555 1_555
C5 S1 1_555 1_555
C6 C1 1_555 1_555
H14 C6 1_555 1_555
C7 C1 1_555 1_555
C8 C3 1_555 1_555
C9 N1 1_555 1_555
H15 C9 1_555 1_555
C10 C9 1_555 1_555
H16 C10 1_555 1_555
C11 C10 1_555 1_555
H17 C11 1_555 1_555
C12 C11 1_555 1_555
C13 N1 1_555 1_555
C14 C12 1_555 1_555
H18 C14 1_555 1_555
C15 C14 1_555 1_555
H19 C15 1_555 1_555
C16 C15 1_555 1_555
C17 N2 1_555 1_555
C18 C16 1_555 1_555
H20 C18 1_555 1_555
C19 C18 1_555 1_555
H21 C19 1_555 1_555
C20 N2 1_555 1_555
H22 C20 1_555 1_555
C21 N3 1_555 1_555
H23 C21 1_555 1_555
C22 C21 1_555 1_555
H24 C22 1_555 1_555
C23 C22 1_555 1_555
H25 C23 1_555 1_555
C24 C23 1_555 1_555
C25 N3 1_555 1_555
C26 C24 1_555 1_555
H26 C26 1_555 1_555
C27 C26 1_555 1_555
H27 C27 1_555 1_555
C28 C27 1_555 1_555
C29 N4 1_555 1_555
C30 C28 1_555 1_555
H28 C30 1_555 1_555
C31 C30 1_555 1_555
H29 C31 1_555 1_555
C32 N4 1_555 1_555
H30 C32 1_555 1_555
S1C O8C 1_555 1_555
Zn1C O1C 1_555 1_555
Zn1B O11 1_555 1_555
O1C C7C 1_555 1_555
O3C C7C 1_555 1_555
O5C Zn2 1_555 1_555
O7C C8C 1_555 1_555
O9C S1C 1_555 1_555
O10C S1C 1_555 1_555
O11B Zn1 1_555 1_555
O11C Zn1C 1_555 1_555
O11A Zn1C 1_555 1_555
H7B O11B 1_555 1_555
H7C O11C 1_555 1_555
H7A O11A 1_555 1_555
H8B O11B 1_555 1_555
H8C O11C 1_555 1_555
H8A O11A 1_555 1_555
O12C Zn1C 1_555 1_555
H9C O12C 1_555 1_555
H10C O12C 1_555 1_555
H11C O13 1_555 1_555
N1C Zn1C 1_555 1_555
N2C Zn1C 1_555 1_555
C1C C2C 1_555 1_555
C2C H12C 1_555 1_555
C3C C2C 1_555 1_555
C4C C3C 1_555 1_555
H13C C4C 1_555 1_555
C5C S1C 1_555 1_555
C6C C1C 1_555 1_555
H14C C6C 1_555 1_555
C7C C1C 1_555 1_555
C8C O5C 1_555 1_555
C9C N1C 1_555 1_555
H15C C9C 1_555 1_555
C10C C9C 1_555 1_555
H16C C10C 1_555 1_555
C11C C10C 1_555 1_555
H17C C11C 1_555 1_555
C12C C11C 1_555 1_555
C13C N1C 1_555 1_555
C14C C12C 1_555 1_555
H18C C14C 1_555 1_555
C15C C14C 1_555 1_555
H19C C15C 1_555 1_555
C16C C15C 1_555 1_555
C17C N2C 1_555 1_555
C18C C16C 1_555 1_555
H20C C18C 1_555 1_555
C19C C18C 1_555 1_555
H21C C19C 1_555 1_555
C20C N2C 1_555 1_555
H22C C20C 1_555 1_555
C4 C5 1_555 1_555
C5 C6 1_555 1_555
C12 C13 1_555 1_555
C13 C17 1_555 1_555
C16 C17 1_555 1_555
C19 C20 1_555 1_555
C24 C25 1_555 1_555
C25 C29 1_555 1_555
C28 C29 1_555 1_555
C31 C32 1_555 1_555
Zn1B O11B 1_555 1_555
C3C C8C 1_555 1_555
C4C C5C 1_555 1_555
C5C C6C 1_555 1_555
C12C C13C 1_555 1_555
C13C C17C 1_555 1_555
C16C C17C 1_555 1_555
C19C C20C 1_555 1_555

#END
