
#######################################################################
#
#                 Cambridge Crystallographic Data Centre
#                                CCDC 
#
#######################################################################
#
# If this CIF has been generated from an entry in the Cambridge 
# Structural Database, then it will include bibliographic, chemical, 
# crystal, experimental, refinement or atomic coordinate data resulting 
# from the CCDC's data processing and validation procedures.
#
#######################################################################

data_IMOVIQ
_symmetry_cell_setting           orthorhombic
_symmetry_space_group_name_H-M   'F d d 2'
_symmetry_Int_Tables_number      43
_space_group_name_Hall           'F 2 -2d'
loop_
_symmetry_equiv_pos_site_id
_symmetry_equiv_pos_as_xyz
1 x,y,z
2 -x,-y,z
3 1/4-x,1/4+y,1/4+z
4 3/4+x,3/4-y,1/4+z
5 x,1/2+y,1/2+z
6 -x,1/2-y,1/2+z
7 1/4-x,3/4+y,3/4+z
8 3/4+x,1/4-y,3/4+z
9 1/2+x,y,1/2+z
10 1/2-x,-y,1/2+z
11 3/4-x,1/4+y,3/4+z
12 1/4+x,3/4-y,3/4+z
13 1/2+x,1/2+y,z
14 1/2-x,1/2-y,z
15 3/4-x,3/4+y,1/4+z
16 1/4+x,1/4-y,1/4+z
_cell_length_a                   28.708(8)
_cell_length_b                   29.606(9)
_cell_length_c                   3.6835(11)
_cell_angle_alpha                90
_cell_angle_beta                 90
_cell_angle_gamma                90
_cell_volume                     3130.71
loop_
_atom_site_label
_atom_site_type_symbol
_atom_site_fract_x
_atom_site_fract_y
_atom_site_fract_z
Ag1 Ag 1.006396(6) 0.374357(6) 0.48128(11)
C1 C 0.90926(7) 0.35699(7) 0.1479(6)
C2 C 0.86321(8) 0.36635(7) 0.0268(7)
C3 C 0.93483(7) 0.31508(7) 0.0482(5)
C4 C 0.93657(8) 0.23707(7) -0.1372(6)
H1 H 0.9591 0.2469 -0.3206
H2 H 0.9146 0.2157 -0.2464
H3 H 0.9530 0.2224 0.0639
C5 C 0.86343(7) 0.26847(8) 0.1315(6)
H4 H 0.8612 0.2377 0.2275
H5 H 0.8414 0.2722 -0.0694
H6 H 0.8560 0.2901 0.3241
N1 N 0.93360(7) 0.38889(6) 0.3181(5)
N2 N 0.82649(7) 0.37262(6) -0.0822(6)
N3 N 0.91090(6) 0.27656(5) 0.0001(5)
O1 O 0.97785(5) 0.31685(5) 0.0037(4)
O2 O 0.91372(6) 0.42654(5) 0.3858(5)
Ag1_2 Ag 1.006396(6) 0.374357(6) -0.51872(11)
Ag1C Ag 0.756396(6) 0.375643(6) -0.26872(11)
N2K N 1.07649(7) 0.37738(6) 0.6678(6)
O1_2 O 0.97785(5) 0.31685(5) 1.0037(4)
loop_
_geom_bond_atom_site_label_1
_geom_bond_atom_site_label_2
_geom_bond_site_symmetry_1
_geom_bond_site_symmetry_2
Ag1 N1 1_555 1_555
C1 C2 1_555 1_555
C2 N2 1_555 1_555
C3 C1 1_555 1_555
C4 H1 1_555 1_555
H2 C4 1_555 1_555
H3 C4 1_555 1_555
C5 H4 1_555 1_555
H5 C5 1_555 1_555
H6 C5 1_555 1_555
N1 C1 1_555 1_555
N2 Ag1C 1_555 1_555
N3 C3 1_555 1_555
O1 Ag1 1_555 1_555
O2 N1 1_555 1_555
Ag1_2 O1 1_555 1_555
N2K Ag1 1_555 1_555
O1_2 Ag1 1_555 1_555
C3 O1 1_555 1_555
C4 N3 1_555 1_555
C5 N3 1_555 1_555

#END
