
#######################################################################
#
#                 Cambridge Crystallographic Data Centre
#                                CCDC 
#
#######################################################################
#
# If this CIF has been generated from an entry in the Cambridge 
# Structural Database, then it will include bibliographic, chemical, 
# crystal, experimental, refinement or atomic coordinate data resulting 
# from the CCDC's data processing and validation procedures.
#
#######################################################################

data_IMUCUP
_symmetry_cell_setting           monoclinic
_symmetry_space_group_name_H-M   'P 21/c'
_symmetry_Int_Tables_number      14
_space_group_name_Hall           '-P 2ybc'
loop_
_symmetry_equiv_pos_site_id
_symmetry_equiv_pos_as_xyz
1 x,y,z
2 -x,1/2+y,1/2-z
3 -x,-y,-z
4 x,1/2-y,1/2+z
_cell_length_a                   11.782(2)
_cell_length_b                   7.1452(13)
_cell_length_c                   24.309(4)
_cell_angle_alpha                90
_cell_angle_beta                 100.926(3)
_cell_angle_gamma                90
_cell_volume                     2009.35
loop_
_atom_site_label
_atom_site_type_symbol
_atom_site_fract_x
_atom_site_fract_y
_atom_site_fract_z
C1 C 0.7116(3) 0.2358(6) 0.00003(17)
C2 C 0.6278(4) 0.2078(6) -0.04713(19)
H1 H 0.6501 0.1778 -0.0808
C3 C 0.5121(3) 0.2230(6) -0.04569(18)
H2 H 0.4578 0.2011 -0.0782
C4 C 0.4756(4) 0.2695(6) 0.00222(18)
H3 H 0.3971 0.2774 0.0031
C5 C 0.5565(3) 0.3043(6) 0.04880(18)
H4 H 0.5324 0.3378 0.0817
C6 C 0.6741(4) 0.2913(7) 0.04881(19)
C7 C 0.7545(4) 0.3349(6) 0.10222(17)
C8 C 1.2397(3) 0.6165(6) 0.17923(17)
C9 C 1.3287(4) 0.7375(7) 0.19932(18)
H5 H 1.3117 0.8541 0.2127
C10 C 1.4418(3) 0.6907(6) 0.20016(17)
H6 H 1.4998 0.7771 0.2129
C11 C 1.4699(4) 0.5199(6) 0.18254(18)
H7 H 1.5470 0.4888 0.1838
C12 C 1.3824(4) 0.3900(7) 0.16244(18)
H8 H 1.4011 0.2719 0.1508
C13 C 1.2687(4) 0.4390(6) 0.16017(17)
C14 C 1.1765(4) 0.3009(6) 0.13756(17)
Co1 Co 0.97409(5) 0.54104(8) 0.06136(2)
Co2 Co 0.88860(5) 0.37845(8) 0.19446(2)
Co3 Co 1.04658(5) 0.02149(8) 0.10408(2)
O1 O 0.9293(3) 0.3521(4) -0.00437(12)
O2 O 0.8971(2) 0.0660(4) 0.05384(12)
O3 O 0.8539(2) 0.0489(4) -0.05065(12)
O4 O 0.8486(2) 0.4258(4) 0.10445(12)
O5 O 0.7304(2) 0.2757(4) 0.14753(11)
O6 O 1.0442(2) 0.4863(4) 0.20164(11)
O7 O 1.0279(2) 0.7356(4) 0.12509(12)
O8 O 1.0954(2) 0.8271(4) 0.22440(12)
O9 O 1.1005(2) 0.3371(4) 0.09595(12)
O10 O 1.1836(3) 0.1392(4) 0.16017(12)
O11 O 0.8366(2) 0.7108(4) 0.02064(12)
H9 H 0.8571 0.7686 -0.0064
H10 H 0.8191 0.7862 0.0430
O12 O 0.8012(2) 0.6228(4) 0.21645(13)
H11 H 0.8450 0.7178 0.2175
H12 H 0.7846 0.6086 0.2487
O13 O 0.9490(3) 0.0947(4) 0.17323(12)
H13 H 0.8888 0.0265 0.1673
H14 H 0.9906 0.0541 0.2033
P1 P 0.85814(9) 0.17437(16) -0.00107(5)
P2 P 1.09272(9) 0.66816(16) 0.18338(5)
Co1B Co 1.02591(5) 0.45896(8) -0.06136(2)
Co2A Co 1.11140(5) 0.87845(8) 0.30554(2)
Co3B Co 0.95342(5) -0.02149(8) -0.10408(2)
Co3_2 Co 1.04658(5) 1.02149(8) 0.10408(2)
O1B O 1.0707(3) 0.6479(4) 0.00437(12)
O3B O 1.1461(2) -0.0489(4) 0.05065(12)
O7_2 O 1.0279(2) -0.2644(4) 0.12509(12)
O8A O 0.9046(2) 0.3271(4) 0.27560(12)
O14 O 0.7466(3) 0.8843(4) 0.13290(12)
H15 H 0.7067 0.9514 0.1075
H16 H 0.7018 0.8157 0.1478
loop_
_geom_bond_atom_site_label_1
_geom_bond_atom_site_label_2
_geom_bond_site_symmetry_1
_geom_bond_site_symmetry_2
C1 C2 1_555 1_555
C2 H1 1_555 1_555
C3 C2 1_555 1_555
H2 C3 1_555 1_555
C4 C3 1_555 1_555
H3 C4 1_555 1_555
C5 C4 1_555 1_555
H4 C5 1_555 1_555
C6 C1 1_555 1_555
C7 C6 1_555 1_555
C8 C9 1_555 1_555
C9 H5 1_555 1_555
C10 C9 1_555 1_555
H6 C10 1_555 1_555
C11 C10 1_555 1_555
H7 C11 1_555 1_555
C12 C11 1_555 1_555
H8 C12 1_555 1_555
C13 C8 1_555 1_555
C14 C13 1_555 1_555
Co1 O1 1_555 1_555
Co2 O4 1_555 1_555
Co3 O2 1_555 1_555
O1 P1 1_555 1_555
O2 P1 1_555 1_555
O3 P1 1_555 1_555
O4 C7 1_555 1_555
O5 C7 1_555 1_555
O6 Co2 1_555 1_555
O7 Co1 1_555 1_555
O8 P2 1_555 1_555
O9 C14 1_555 1_555
O10 C14 1_555 1_555
O11 Co1 1_555 1_555
H9 O11 1_555 1_555
H10 O11 1_555 1_555
O12 Co2 1_555 1_555
H11 O12 1_555 1_555
H12 O12 1_555 1_555
O13 Co2 1_555 1_555
H13 O13 1_555 1_555
H14 O13 1_555 1_555
O14 H15 1_555 1_555
H16 O14 1_555 1_555
P1 C1 1_555 1_555
P2 C8 1_555 1_555
Co1B O1 1_555 1_555
Co2A O8 1_555 1_555
Co3B O3 1_555 1_555
Co3_2 O7 1_555 1_555
O1B Co1 1_555 1_555
O3B Co3 1_555 1_555
O7_2 Co3 1_555 1_555
O8A Co2 1_555 1_555
C5 C6 1_555 1_555
C12 C13 1_555 1_555
Co1 O4 1_555 1_555
Co1 O9 1_555 1_555
Co2 O5 1_555 1_555
Co3 O9 1_555 1_555
Co3 O10 1_555 1_555
Co3 O13 1_555 1_555
O6 P2 1_555 1_555
O7 P2 1_555 1_555
Co1B O1B 1_555 1_555

#END
