
#######################################################################
#
#                 Cambridge Crystallographic Data Centre
#                                CCDC 
#
#######################################################################
#
# If this CIF has been generated from an entry in the Cambridge 
# Structural Database, then it will include bibliographic, chemical, 
# crystal, experimental, refinement or atomic coordinate data resulting 
# from the CCDC's data processing and validation procedures.
#
#######################################################################

data_IMULIL
_symmetry_cell_setting           orthorhombic
_symmetry_space_group_name_H-M   'P b c a'
_symmetry_Int_Tables_number      61
_space_group_name_Hall           '-P 2ac 2ab'
loop_
_symmetry_equiv_pos_site_id
_symmetry_equiv_pos_as_xyz
1 x,y,z
2 1/2+x,y,1/2-z
3 x,1/2-y,1/2+z
4 1/2-x,1/2+y,z
5 -x,-y,-z
6 1/2-x,-y,1/2+z
7 -x,1/2+y,1/2-z
8 1/2+x,1/2-y,-z
_cell_length_a                   16.4866(2)
_cell_length_b                   15.2905(2)
_cell_length_c                   22.4722(4)
_cell_angle_alpha                90
_cell_angle_beta                 90
_cell_angle_gamma                90
_cell_volume                     5664.98
loop_
_atom_site_label
_atom_site_type_symbol
_atom_site_fract_x
_atom_site_fract_y
_atom_site_fract_z
Co1 Co 0.12253(2) 0.000618(18) 0.338738(14)
S1 S -0.16841(6) -0.03000(8) 0.35994(6)
S2 S 0.40887(7) 0.02216(10) 0.37425(7)
N1 N 0.14332(14) -0.09788(14) 0.40889(9)
N2 N 0.10546(14) 0.10635(14) 0.40349(9)
N3 N 0.12564(14) -0.39942(14) 0.76932(10)
N4 N 0.11380(13) 0.40837(14) 0.76408(10)
N5 N -0.00182(16) -0.01926(16) 0.34508(10)
N6 N 0.24671(17) 0.01931(15) 0.34028(10)
C1 C 0.17549(17) -0.07468(18) 0.46121(11)
H1 H 0.1962 -0.0184 0.4651
C2 C 0.17944(17) -0.13013(18) 0.50978(11)
H2 H 0.1996 -0.1095 0.5458
C3 C 0.15346(16) -0.21679(16) 0.50507(12)
C4 C 0.12632(17) -0.24193(19) 0.44930(12)
H3 H 0.1121 -0.2999 0.4423
C5 C 0.12039(17) -0.18093(19) 0.40408(12)
H4 H 0.0989 -0.1992 0.3679
C6 C 0.15188(19) -0.27596(18) 0.55682(13)
C7 C 0.1422(2) -0.2444(2) 0.61078(13)
H5 H 0.1380 -0.1840 0.6144
C8 C 0.1595(3) -0.3727(2) 0.54423(15)
H6 H 0.1697 -0.4034 0.5807
H7 H 0.2037 -0.3824 0.5172
H8 H 0.1101 -0.3937 0.5268
C9 C 0.05899(18) 0.09188(17) 0.45199(11)
H9 H 0.0290 0.0405 0.4541
C10 C 0.05445(17) 0.15061(19) 0.49851(11)
H10 H 0.0240 0.1367 0.5321
C11 C 0.09501(17) 0.23049(18) 0.49575(12)
C12 C 0.13856(19) 0.2470(2) 0.44454(13)
H11 H 0.1638 0.3007 0.4390
C13 C 0.14419(19) 0.18190(19) 0.40111(13)
H12 H 0.1773 0.1924 0.3684
C14 C 0.09343(19) 0.29421(18) 0.54630(13)
C15 C 0.0934(2) 0.2629(2) 0.60108(13)
H13 H 0.0900 0.2025 0.6055
C16 C 0.0916(2) 0.39062(18) 0.53098(14)
H14 H 0.0752 0.4235 0.5653
H15 H 0.0538 0.4004 0.4992
H16 H 0.1447 0.4091 0.5187
C17 C 0.19075(19) -0.35024(18) 0.75848(13)
H17 H 0.2331 -0.3509 0.7858
C18 C 0.1980(2) -0.2985(2) 0.70869(14)
H18 H 0.2442 -0.2645 0.7034
C19 C 0.1373(2) -0.2968(2) 0.66664(13)
C20 C 0.0685(2) -0.3470(2) 0.67809(13)
H19 H 0.0253 -0.3469 0.6515
C21 C 0.06496(19) -0.39710(18) 0.72941(12)
H20 H 0.0188 -0.4304 0.7365
C22 C 0.16681(18) 0.41914(17) 0.71972(12)
H21 H 0.2103 0.4570 0.7254
C23 C 0.15985(18) 0.3766(2) 0.66608(12)
H22 H 0.1968 0.3882 0.6358
C24 C 0.09839(19) 0.3165(2) 0.65662(12)
C25 C 0.0472(2) 0.3027(2) 0.70300(13)
H23 H 0.0064 0.2610 0.6997
C26 C 0.05519(19) 0.35043(19) 0.75539(12)
H24 H 0.0177 0.3412 0.7857
C27 C -0.0708(2) -0.02301(19) 0.35063(13)
C28 C 0.3135(2) 0.0208(2) 0.35320(14)
N3B N 0.12564(14) -0.10058(14) 0.26932(10)
N4B N 0.11380(13) 0.09163(14) 0.26408(10)
Co1B Co 0.12253(2) -0.500618(18) 0.838738(14)
Co1B_2 Co 0.12253(2) 0.499382(18) 0.838738(14)
loop_
_geom_bond_atom_site_label_1
_geom_bond_atom_site_label_2
_geom_bond_site_symmetry_1
_geom_bond_site_symmetry_2
Co1 N1 1_555 1_555
S1 C27 1_555 1_555
S2 C28 1_555 1_555
N1 C1 1_555 1_555
N2 Co1 1_555 1_555
N3 C17 1_555 1_555
N4 C22 1_555 1_555
N5 Co1 1_555 1_555
N6 Co1 1_555 1_555
C1 H1 1_555 1_555
C2 C1 1_555 1_555
H2 C2 1_555 1_555
C3 C2 1_555 1_555
C4 C3 1_555 1_555
H3 C4 1_555 1_555
C5 N1 1_555 1_555
H4 C5 1_555 1_555
C6 C3 1_555 1_555
C7 C6 1_555 1_555
H5 C7 1_555 1_555
C8 C6 1_555 1_555
H6 C8 1_555 1_555
H7 C8 1_555 1_555
H8 C8 1_555 1_555
C9 N2 1_555 1_555
H9 C9 1_555 1_555
C10 C9 1_555 1_555
H10 C10 1_555 1_555
C11 C10 1_555 1_555
C12 C11 1_555 1_555
H11 C12 1_555 1_555
C13 N2 1_555 1_555
H12 C13 1_555 1_555
C14 C11 1_555 1_555
C15 C14 1_555 1_555
H13 C15 1_555 1_555
C16 C14 1_555 1_555
H14 C16 1_555 1_555
H15 C16 1_555 1_555
H16 C16 1_555 1_555
C17 H17 1_555 1_555
C18 C17 1_555 1_555
H18 C18 1_555 1_555
C19 C7 1_555 1_555
C20 C19 1_555 1_555
H19 C20 1_555 1_555
C21 N3 1_555 1_555
H20 C21 1_555 1_555
C22 H21 1_555 1_555
C23 C22 1_555 1_555
H22 C23 1_555 1_555
C24 C15 1_555 1_555
C25 C24 1_555 1_555
H23 C25 1_555 1_555
C26 N4 1_555 1_555
H24 C26 1_555 1_555
C27 N5 1_555 1_555
C28 N6 1_555 1_555
N3B Co1 1_555 1_555
N4B Co1 1_555 1_555
Co1B N3 1_555 1_555
Co1B_2 N4 1_555 1_555
C4 C5 1_555 1_555
C12 C13 1_555 1_555
C18 C19 1_555 1_555
C20 C21 1_555 1_555
C23 C24 1_555 1_555
C25 C26 1_555 1_555

#END
