
#######################################################################
#
#                 Cambridge Crystallographic Data Centre
#                                CCDC 
#
#######################################################################
#
# If this CIF has been generated from an entry in the Cambridge 
# Structural Database, then it will include bibliographic, chemical, 
# crystal, experimental, refinement or atomic coordinate data resulting 
# from the CCDC's data processing and validation procedures.
#
#######################################################################

data_IMUQEN
_symmetry_cell_setting           triclinic
_symmetry_space_group_name_H-M   'P -1'
_symmetry_Int_Tables_number      2
_space_group_name_Hall           '-P 1'
loop_
_symmetry_equiv_pos_site_id
_symmetry_equiv_pos_as_xyz
1 x,y,z
2 -x,-y,-z
_cell_length_a                   5.7913(2)
_cell_length_b                   11.3198(3)
_cell_length_c                   11.5138(3)
_cell_angle_alpha                91.983(2)
_cell_angle_beta                 93.853(2)
_cell_angle_gamma                102.984(2)
_cell_volume                     732.883
loop_
_atom_site_label
_atom_site_type_symbol
_atom_site_fract_x
_atom_site_fract_y
_atom_site_fract_z
Ni1 Ni 0.5000 0.5000 0.5000
S1 S -0.17436(10) 0.28078(5) 0.22085(5)
O1 O 0.2377(2) 0.45869(11) 0.36211(11)
O2 O 0.4595(3) 0.47580(18) 0.21086(14)
O3 O 0.0484(4) -0.27589(17) 0.1568(2)
O4 O 0.3554(4) -0.16595(16) 0.07634(17)
H1 H 0.393(5) -0.231(2) 0.064(3)
O5 O 0.2213(3) 0.47242(12) 0.60763(12)
H2 H 0.119(3) 0.5124(19) 0.6094(18)
H3 H 0.296(4) 0.483(2) 0.6730(15)
N1 N 0.5032(3) 0.68606(12) 0.49080(13)
C1 C 0.0892(4) -0.06297(19) 0.15397(17)
C2 C -0.1172(4) -0.0631(2) 0.20956(19)
H6 H -0.2077 -0.1357 0.2330
C3 C -0.1886(4) 0.0431(2) 0.23002(19)
H7 H -0.3269 0.0417 0.2671
C4 C -0.0551(4) 0.1531(2) 0.19553(17)
C5 C 0.1538(4) 0.1542(2) 0.14208(19)
H8 H 0.2466 0.2272 0.1206
C6 C 0.2232(4) 0.0466(2) 0.12096(18)
H9 H 0.3616 0.0479 0.0841
C7 C 0.1595(4) -0.1793(2) 0.1303(2)
C8 C 0.0429(4) 0.4059(2) 0.17255(17)
H10 H 0.0905 0.3821 0.0977
H11 H -0.0321 0.4735 0.1606
C9 C 0.2650(4) 0.44959(17) 0.25479(17)
C10 C 0.3194(4) 0.72602(16) 0.4448(2)
H12 H 0.1890 0.6694 0.4102
C11 C 0.3126(4) 0.84729(16) 0.44574(19)
H13 H 0.1805 0.8703 0.4115
C12 C 0.5011(3) 0.93446(14) 0.49734(15)
C13 C 0.6935(4) 0.89270(16) 0.54319(19)
H14 H 0.8267 0.9475 0.5777
C14 C 0.6883(3) 0.77013(16) 0.53789(18)
H15 H 0.8207 0.7449 0.5688
Ni1_2 Ni 0.5000 1.5000 0.5000
S1A S 1.17436(10) 0.71922(5) 0.77915(5)
O1A O 0.7623(2) 0.54131(11) 0.63789(11)
O2A O 0.5405(3) 0.52420(18) 0.78914(14)
O3A O 0.9516(4) 1.27589(17) 0.8432(2)
O4A O 0.6446(4) 1.16595(16) 0.92366(17)
H1A H 0.607(5) 1.231(2) 0.936(3)
O5A O 0.7787(3) 0.52758(12) 0.39237(12)
H2A H 0.881(3) 0.4876(19) 0.3906(18)
H3A H 0.704(4) 0.517(2) 0.3270(15)
N1A N 0.4968(3) 1.31394(12) 0.50920(13)
N1A_2 N 0.4968(3) 0.31394(12) 0.50920(13)
C1A C 0.9108(4) 1.06297(19) 0.84603(17)
C2A C 1.1172(4) 1.0631(2) 0.79044(19)
H6A H 1.2077 1.1357 0.7670
C3A C 1.1886(4) 0.9569(2) 0.76998(19)
H7A H 1.3269 0.9583 0.7329
C4A C 1.0551(4) 0.8469(2) 0.80447(17)
C5A C 0.8462(4) 0.8458(2) 0.85792(19)
H8A H 0.7534 0.7728 0.8794
C6A C 0.7768(4) 0.9534(2) 0.87904(18)
H9A H 0.6384 0.9521 0.9159
C7A C 0.8405(4) 1.1793(2) 0.8697(2)
C8A C 0.9571(4) 0.5941(2) 0.82745(17)
H10A H 0.9095 0.6179 0.9023
H11A H 1.0321 0.5265 0.8394
C9A C 0.7350(4) 0.55041(17) 0.74521(17)
C10A C 0.6806(4) 1.27398(16) 0.5552(2)
H12A H 0.8110 1.3306 0.5898
C11A C 0.6874(4) 1.15271(16) 0.55426(19)
H13A H 0.8195 1.1297 0.5885
C12A C 0.4989(3) 1.06554(14) 0.50266(15)
C13A C 0.3065(4) 1.10730(16) 0.45681(19)
H14A H 0.1733 1.0525 0.4223
C14A C 0.3117(3) 1.22987(16) 0.46211(18)
H15A H 0.1793 1.2551 0.4312
O6 O -0.5327(7) -0.6458(2) -0.0437(3)
H4 H -0.558(8) -0.614(4) -0.107(2)
H5 H -0.397(5) -0.602(4) -0.023(4)
loop_
_geom_bond_atom_site_label_1
_geom_bond_atom_site_label_2
_geom_bond_site_symmetry_1
_geom_bond_site_symmetry_2
Ni1 O1 1_555 1_555
S1 C4 1_555 1_555
O1 C9 1_555 1_555
O2 C9 1_555 1_555
O3 C7 1_555 1_555
O4 H1 1_555 1_555
O5 Ni1 1_555 1_555
H2 O5 1_555 1_555
H3 O5 1_555 1_555
O6 H4 1_555 1_555
H5 O6 1_555 1_555
N1 Ni1 1_555 1_555
C1 C2 1_555 1_555
C2 H6 1_555 1_555
C3 C2 1_555 1_555
H7 C3 1_555 1_555
C4 C3 1_555 1_555
C5 C4 1_555 1_555
H8 C5 1_555 1_555
C6 C1 1_555 1_555
H9 C6 1_555 1_555
C7 O4 1_555 1_555
C8 S1 1_555 1_555
H10 C8 1_555 1_555
H11 C8 1_555 1_555
C9 C8 1_555 1_555
C10 N1 1_555 1_555
H12 C10 1_555 1_555
C11 C10 1_555 1_555
H13 C11 1_555 1_555
C12 C11 1_555 1_555
C13 C12 1_555 1_555
H14 C13 1_555 1_555
C14 N1 1_555 1_555
H15 C14 1_555 1_555
Ni1_2 N1A 1_555 1_555
S1A C4A 1_555 1_555
O1A Ni1 1_555 1_555
O2A C9A 1_555 1_555
O3A C7A 1_555 1_555
O4A H1A 1_555 1_555
O5A Ni1 1_555 1_555
H2A O5A 1_555 1_555
H3A O5A 1_555 1_555
N1A C10A 1_555 1_555
N1A_2 Ni1 1_555 1_555
C1A C2A 1_555 1_555
C2A H6A 1_555 1_555
C3A C2A 1_555 1_555
H7A C3A 1_555 1_555
C4A C3A 1_555 1_555
C5A C4A 1_555 1_555
H8A C5A 1_555 1_555
C6A C1A 1_555 1_555
H9A C6A 1_555 1_555
C7A O4A 1_555 1_555
C8A S1A 1_555 1_555
H10A C8A 1_555 1_555
H11A C8A 1_555 1_555
C9A O1A 1_555 1_555
C10A H12A 1_555 1_555
C11A C10A 1_555 1_555
H13A C11A 1_555 1_555
C12A C12 1_555 1_555
C13A C12A 1_555 1_555
H14A C13A 1_555 1_555
C14A N1A 1_555 1_555
H15A C14A 1_555 1_555
C1 C7 1_555 1_555
C5 C6 1_555 1_555
C13 C14 1_555 1_555
C1A C7A 1_555 1_555
C5A C6A 1_555 1_555
C8A C9A 1_555 1_555
C11A C12A 1_555 1_555
C13A C14A 1_555 1_555

#END
