
#######################################################################
#
#                 Cambridge Crystallographic Data Centre
#                                CCDC 
#
#######################################################################
#
# If this CIF has been generated from an entry in the Cambridge 
# Structural Database, then it will include bibliographic, chemical, 
# crystal, experimental, refinement or atomic coordinate data resulting 
# from the CCDC's data processing and validation procedures.
#
#######################################################################

data_IMUQAJ
_symmetry_cell_setting           triclinic
_symmetry_space_group_name_H-M   'P -1'
_symmetry_Int_Tables_number      2
_space_group_name_Hall           '-P 1'
loop_
_symmetry_equiv_pos_site_id
_symmetry_equiv_pos_as_xyz
1 x,y,z
2 -x,-y,-z
_cell_length_a                   5.7958(2)
_cell_length_b                   11.4119(3)
_cell_length_c                   11.5085(3)
_cell_angle_alpha                91.569(2)
_cell_angle_beta                 93.381(2)
_cell_angle_gamma                103.506(2)
_cell_volume                     738.182
loop_
_atom_site_label
_atom_site_type_symbol
_atom_site_fract_x
_atom_site_fract_y
_atom_site_fract_z
Zn1 Zn 0.5000 0.5000 0.5000
S1 S -0.17446(10) 0.27530(5) 0.22186(5)
O1 O 0.2342(2) 0.45841(11) 0.35886(11)
O2 O 0.4590(3) 0.46936(19) 0.20784(14)
O3 O 0.0379(4) -0.27776(18) 0.1567(2)
O4 O 0.3478(4) -0.16811(17) 0.07551(18)
H1 H 0.379(6) -0.2355(19) 0.070(3)
O5 O 0.2152(3) 0.47308(13) 0.61103(13)
H2 H 0.107(3) 0.508(2) 0.610(2)
H3 H 0.286(4) 0.483(2) 0.6753(16)
N1 N 0.5062(3) 0.68916(13) 0.48939(14)
C1 C 0.0829(4) -0.0659(2) 0.15331(18)
C2 C -0.1236(4) -0.0663(2) 0.2094(2)
H6 H -0.2154 -0.1387 0.2332
C3 C -0.1934(4) 0.0388(2) 0.2300(2)
H7 H -0.3323 0.0370 0.2671
C4 C -0.0574(4) 0.1486(2) 0.19564(18)
C5 C 0.1518(4) 0.1499(2) 0.14209(19)
H8 H 0.2465 0.2226 0.1206
C6 C 0.2194(4) 0.0434(2) 0.12068(19)
H9 H 0.3586 0.0450 0.0838
C7 C 0.1513(5) -0.1814(2) 0.1295(2)
C8 C 0.0423(4) 0.4003(2) 0.17054(18)
H10 H 0.0908 0.3761 0.0961
H11 H -0.0334 0.4665 0.1574
C9 C 0.2640(4) 0.44574(17) 0.25214(17)
C10 C 0.3254(4) 0.72839(17) 0.4412(2)
H12 H 0.1979 0.6721 0.4044
C11 C 0.3173(4) 0.84833(16) 0.4430(2)
H13 H 0.1867 0.8708 0.4075
C12 C 0.5018(3) 0.93508(14) 0.49708(15)
C13 C 0.6914(4) 0.89411(16) 0.54534(19)
H14 H 0.8217 0.9486 0.5822
C14 C 0.6876(3) 0.77260(16) 0.53896(19)
H15 H 0.8187 0.7479 0.5710
Zn1_2 Zn 0.5000 1.5000 0.5000
S1A S 1.17446(10) 0.72470(5) 0.77814(5)
O1A O 0.7658(2) 0.54159(11) 0.64114(11)
O2A O 0.5410(3) 0.53064(19) 0.79216(14)
O3A O 0.9621(4) 1.27776(18) 0.8433(2)
O4A O 0.6522(4) 1.16811(17) 0.92449(18)
H1A H 0.621(6) 1.2355(19) 0.930(3)
O5A O 0.7848(3) 0.52692(13) 0.38897(13)
H2A H 0.893(3) 0.492(2) 0.390(2)
H3A H 0.714(4) 0.517(2) 0.3247(16)
N1A N 0.4938(3) 1.31084(13) 0.51061(14)
N1A_2 N 0.4938(3) 0.31084(13) 0.51061(14)
C1A C 0.9171(4) 1.0659(2) 0.84669(18)
C2A C 1.1236(4) 1.0663(2) 0.7906(2)
H6A H 1.2154 1.1387 0.7668
C3A C 1.1934(4) 0.9612(2) 0.7700(2)
H7A H 1.3323 0.9630 0.7329
C4A C 1.0574(4) 0.8514(2) 0.80436(18)
C5A C 0.8482(4) 0.8501(2) 0.85791(19)
H8A H 0.7535 0.7774 0.8794
C6A C 0.7806(4) 0.9566(2) 0.87932(19)
H9A H 0.6414 0.9550 0.9162
C7A C 0.8487(5) 1.1814(2) 0.8705(2)
C8A C 0.9577(4) 0.5997(2) 0.82946(18)
H10A H 0.9092 0.6239 0.9039
H11A H 1.0334 0.5335 0.8426
C9A C 0.7360(4) 0.55426(17) 0.74786(17)
C10A C 0.6746(4) 1.27161(17) 0.5588(2)
H12A H 0.8021 1.3279 0.5956
C11A C 0.6827(4) 1.15167(16) 0.5570(2)
H13A H 0.8133 1.1292 0.5925
C12A C 0.4982(3) 1.06492(14) 0.50292(15)
C13A C 0.3086(4) 1.10589(16) 0.45466(19)
H14A H 0.1783 1.0514 0.4178
C14A C 0.3124(3) 1.22740(16) 0.46104(19)
H15A H 0.1813 1.2521 0.4290
O6 O -0.5085(8) -0.6416(3) -0.0360(3)
H4 H -0.585(8) -0.655(5) -0.103(3)
H5 H -0.417(7) -0.577(3) -0.046(4)
loop_
_geom_bond_atom_site_label_1
_geom_bond_atom_site_label_2
_geom_bond_site_symmetry_1
_geom_bond_site_symmetry_2
Zn1 O1 1_555 1_555
S1 C4 1_555 1_555
O1 C9 1_555 1_555
O2 C9 1_555 1_555
O3 C7 1_555 1_555
O4 H1 1_555 1_555
O5 Zn1 1_555 1_555
H2 O5 1_555 1_555
H3 O5 1_555 1_555
O6 H4 1_555 1_555
H5 O6 1_555 1_555
N1 Zn1 1_555 1_555
C1 C2 1_555 1_555
C2 H6 1_555 1_555
C3 C2 1_555 1_555
H7 C3 1_555 1_555
C4 C3 1_555 1_555
C5 C4 1_555 1_555
H8 C5 1_555 1_555
C6 C1 1_555 1_555
H9 C6 1_555 1_555
C7 O4 1_555 1_555
C8 S1 1_555 1_555
H10 C8 1_555 1_555
H11 C8 1_555 1_555
C9 C8 1_555 1_555
C10 N1 1_555 1_555
H12 C10 1_555 1_555
C11 C10 1_555 1_555
H13 C11 1_555 1_555
C12 C11 1_555 1_555
C13 C12 1_555 1_555
H14 C13 1_555 1_555
C14 N1 1_555 1_555
H15 C14 1_555 1_555
Zn1_2 N1A 1_555 1_555
S1A C4A 1_555 1_555
O1A Zn1 1_555 1_555
O2A C9A 1_555 1_555
O3A C7A 1_555 1_555
O4A H1A 1_555 1_555
O5A Zn1 1_555 1_555
H2A O5A 1_555 1_555
H3A O5A 1_555 1_555
N1A C10A 1_555 1_555
N1A_2 Zn1 1_555 1_555
C1A C2A 1_555 1_555
C2A H6A 1_555 1_555
C3A C2A 1_555 1_555
H7A C3A 1_555 1_555
C4A C3A 1_555 1_555
C5A C4A 1_555 1_555
H8A C5A 1_555 1_555
C6A C1A 1_555 1_555
H9A C6A 1_555 1_555
C7A O4A 1_555 1_555
C8A S1A 1_555 1_555
H10A C8A 1_555 1_555
H11A C8A 1_555 1_555
C9A O1A 1_555 1_555
C10A H12A 1_555 1_555
C11A C10A 1_555 1_555
H13A C11A 1_555 1_555
C12A C12 1_555 1_555
C13A C12A 1_555 1_555
H14A C13A 1_555 1_555
C14A N1A 1_555 1_555
H15A C14A 1_555 1_555
C1 C7 1_555 1_555
C5 C6 1_555 1_555
C13 C14 1_555 1_555
C1A C7A 1_555 1_555
C5A C6A 1_555 1_555
C8A C9A 1_555 1_555
C11A C12A 1_555 1_555
C13A C14A 1_555 1_555

#END
