
#######################################################################
#
#                 Cambridge Crystallographic Data Centre
#                                CCDC 
#
#######################################################################
#
# If this CIF has been generated from an entry in the Cambridge 
# Structural Database, then it will include bibliographic, chemical, 
# crystal, experimental, refinement or atomic coordinate data resulting 
# from the CCDC's data processing and validation procedures.
#
#######################################################################

data_IMUXAP
_symmetry_cell_setting           monoclinic
_symmetry_space_group_name_H-M   'P 2/c'
_symmetry_Int_Tables_number      13
_space_group_name_Hall           '-P 2yc'
loop_
_symmetry_equiv_pos_site_id
_symmetry_equiv_pos_as_xyz
1 x,y,z
2 x,-y,1/2+z
3 -x,-y,-z
4 -x,y,1/2-z
_cell_length_a                   5.477(3)
_cell_length_b                   8.370(5)
_cell_length_c                   12.711(7)
_cell_angle_alpha                90
_cell_angle_beta                 93.762(10)
_cell_angle_gamma                90
_cell_volume                     581.448
loop_
_atom_site_label
_atom_site_type_symbol
_atom_site_fract_x
_atom_site_fract_y
_atom_site_fract_z
Ag1 Ag 1.0000 0.24619(6) 0.2500
C1 C 0.5000 0.4824(9) 0.2500
H1 H 0.3583 0.5501 0.2485
N1 N 0.6810(9) 0.2859(5) 0.1342(4)
C2 C 0.4902(9) 0.3827(6) 0.1496(3)
C3 C 0.2911(9) 0.3932(6) 0.0762(4)
H2 H 0.1572 0.4610 0.0890
C4 C 0.2891(11) 0.3030(7) -0.0169(4)
H3 H 0.1536 0.3075 -0.0675
C5 C 0.4897(11) 0.2069(7) -0.0334(5)
H4 H 0.4957 0.1471 -0.0967
C6 C 0.6802(10) 0.1991(7) 0.0431(4)
H5 H 0.8151 0.1311 0.0320
N2 N 1.0000 -0.1161(8) 0.2500
O1 O 0.9191(9) -0.0397(5) 0.3256(3)
O2 O 1.0000 -0.2664(6) 0.2500
H1C H 0.6417 0.5501 0.2515
C2C C 0.5098(9) 0.3827(6) 0.3504(3)
N1C N 0.3190(9) 0.2859(5) 0.3658(4)
C6C C 0.3198(10) 0.1991(7) 0.4569(4)
C5C C 0.5103(11) 0.2069(7) 0.5334(5)
C4C C 0.7109(11) 0.3030(7) 0.5169(4)
C3C C 0.7089(9) 0.3932(6) 0.4238(4)
H2C H 0.8428 0.4610 0.4110
H3C H 0.8464 0.3075 0.5675
H4C H 0.5043 0.1471 0.5967
H5C H 0.1849 0.1311 0.4680
O1C O 1.0809(9) -0.0397(5) 0.1744(3)
N1C_2 N 1.3190(9) 0.2859(5) 0.3658(4)
Ag1_2 Ag 0.0000 0.24619(6) 0.2500
loop_
_geom_bond_atom_site_label_1
_geom_bond_atom_site_label_2
_geom_bond_site_symmetry_1
_geom_bond_site_symmetry_2
Ag1 N1 1_555 1_555
C1 H1 1_555 1_555
N1 C2 1_555 1_555
C2 C1 1_555 1_555
C3 C2 1_555 1_555
H2 C3 1_555 1_555
C4 C3 1_555 1_555
H3 C4 1_555 1_555
C5 C4 1_555 1_555
H4 C5 1_555 1_555
C6 N1 1_555 1_555
H5 C6 1_555 1_555
N2 O1 1_555 1_555
O1 Ag1 1_555 1_555
O2 N2 1_555 1_555
H1C C1 1_555 1_555
C2C C1 1_555 1_555
N1C C2C 1_555 1_555
C6C N1C 1_555 1_555
C5C C6C 1_555 1_555
C4C C5C 1_555 1_555
C3C C2C 1_555 1_555
H2C C3C 1_555 1_555
H3C C4C 1_555 1_555
H4C C5C 1_555 1_555
H5C C6C 1_555 1_555
O1C Ag1 1_555 1_555
N1C_2 Ag1 1_555 1_555
Ag1_2 N1C 1_555 1_555
C5 C6 1_555 1_555
N2 O1C 1_555 1_555
C4C C3C 1_555 1_555

#END
