
#######################################################################
#
#                 Cambridge Crystallographic Data Centre
#                                CCDC 
#
#######################################################################
#
# If this CIF has been generated from an entry in the Cambridge 
# Structural Database, then it will include bibliographic, chemical, 
# crystal, experimental, refinement or atomic coordinate data resulting 
# from the CCDC's data processing and validation procedures.
#
#######################################################################

data_IMUYEU
_symmetry_cell_setting           monoclinic
_symmetry_space_group_name_H-M   'P 21/c'
_symmetry_Int_Tables_number      14
_space_group_name_Hall           '-P 2ybc'
loop_
_symmetry_equiv_pos_site_id
_symmetry_equiv_pos_as_xyz
1 x,y,z
2 x,1/2-y,1/2+z
3 -x,-y,-z
4 -x,1/2+y,1/2-z
_cell_length_a                   9.478(3)
_cell_length_b                   14.189(4)
_cell_length_c                   9.136(3)
_cell_angle_alpha                90
_cell_angle_beta                 110.702(4)
_cell_angle_gamma                90
_cell_volume                     1149.31
loop_
_atom_site_label
_atom_site_type_symbol
_atom_site_fract_x
_atom_site_fract_y
_atom_site_fract_z
Ag1 Ag -0.00249(3) 0.163154(18) 0.05043(3)
C1 C 0.1272(3) 0.3605(2) -0.0624(4)
H1 H 0.1626 0.3688 0.0526
H2 H 0.1607 0.4163 -0.1064
N1 N 0.1596(3) 0.18839(18) -0.0657(3)
C2 C 0.2037(3) 0.2741(2) -0.0977(3)
C3 C 0.3203(3) 0.2832(2) -0.1540(4)
H3 H 0.3501 0.3438 -0.1761
C4 C 0.3937(3) 0.2037(2) -0.1781(4)
H4 H 0.4747 0.2094 -0.2159
C5 C 0.3479(3) 0.1158(2) -0.1466(4)
H5 H 0.3963 0.0602 -0.1624
C6 C 0.2308(3) 0.1114(2) -0.0920(3)
H6 H 0.1980 0.0511 -0.0716
N2 N -0.1151(3) 0.34707(16) -0.2788(3)
C7 C -0.0428(3) 0.3590(2) -0.1239(4)
C8 C -0.1237(4) 0.3752(2) -0.0261(4)
H7 H -0.0721 0.3826 0.0832
C9 C -0.2797(4) 0.3807(2) -0.0876(4)
H8 H -0.3357 0.3927 -0.0215
C10 C -0.3519(3) 0.3684(2) -0.2456(4)
H9 H -0.4587 0.3723 -0.2911
C11 C -0.2667(3) 0.3504(2) -0.3362(4)
H10 H -0.3171 0.3397 -0.4450
N2A N -0.1151(3) 0.15293(16) 0.2212(3)
Ag1A Ag -0.00249(3) 0.336846(18) -0.44957(3)
N3 N 0.2596(3) -0.05888(19) 0.2093(3)
O1 O 0.2684(3) -0.14546(15) 0.1914(3)
O2 O 0.1321(3) -0.01995(17) 0.1579(3)
O3 O 0.3746(3) -0.01184(18) 0.2772(3)
loop_
_geom_bond_atom_site_label_1
_geom_bond_atom_site_label_2
_geom_bond_site_symmetry_1
_geom_bond_site_symmetry_2
Ag1 N1 1_555 1_555
C1 H1 1_555 1_555
H2 C1 1_555 1_555
N1 C2 1_555 1_555
C2 C1 1_555 1_555
C3 C2 1_555 1_555
H3 C3 1_555 1_555
C4 C3 1_555 1_555
H4 C4 1_555 1_555
C5 C4 1_555 1_555
H5 C5 1_555 1_555
C6 N1 1_555 1_555
H6 C6 1_555 1_555
N2 C7 1_555 1_555
C7 C1 1_555 1_555
C8 C7 1_555 1_555
H7 C8 1_555 1_555
C9 C8 1_555 1_555
H8 C9 1_555 1_555
C10 C9 1_555 1_555
H9 C10 1_555 1_555
C11 N2 1_555 1_555
H10 C11 1_555 1_555
N3 O1 1_555 1_555
O2 N3 1_555 1_555
O3 N3 1_555 1_555
N2A Ag1 1_555 1_555
Ag1A N2 1_555 1_555
C5 C6 1_555 1_555
C10 C11 1_555 1_555

#END
