
#######################################################################
#
#                 Cambridge Crystallographic Data Centre
#                                CCDC 
#
#######################################################################
#
# If this CIF has been generated from an entry in the Cambridge 
# Structural Database, then it will include bibliographic, chemical, 
# crystal, experimental, refinement or atomic coordinate data resulting 
# from the CCDC's data processing and validation procedures.
#
#######################################################################

data_IMZYCO
_symmetry_cell_setting           tetragonal
_symmetry_space_group_name_H-M   'I 41'
_symmetry_Int_Tables_number      80
_space_group_name_Hall           'I 4bw'
loop_
_symmetry_equiv_pos_site_id
_symmetry_equiv_pos_as_xyz
1 x,y,z
2 1/2+x,1/2+y,1/2+z
3 -y,1/2+x,1/4+z
4 1/2-y,x,3/4+z
5 -x,-y,z
6 1/2-x,1/2-y,1/2+z
7 y,1/2-x,1/4+z
8 1/2+y,-x,3/4+z
_cell_length_a                   22.872(4)
_cell_length_b                   22.872(4)
_cell_length_c                   12.981
_cell_angle_alpha                90
_cell_angle_beta                 90
_cell_angle_gamma                90
_cell_volume                     6790.73
loop_
_atom_site_label
_atom_site_type_symbol
_atom_site_fract_x
_atom_site_fract_y
_atom_site_fract_z
Co1 Co 0.58437 -0.20094 0.33728
Co2 Co 0.59428 -0.35001 0.69953
Co3 Co 0.34194 -0.40079 0.59824
Co4 Co 0.39593 -0.34893 0.15944
C1 C 0.58780 -0.26470 0.52900
C2 C 0.67040 -0.25720 0.60200
C3 C 0.67020 -0.22370 0.51680
C4 C 0.62810 -0.16100 0.14060
C5 C 0.69010 -0.13730 0.25220
C6 C 0.70340 -0.10970 0.16260
C7 C 0.62710 -0.47690 0.65900
C8 C 0.67700 -0.47580 0.52170
C9 C 0.66180 -0.42030 0.54440
C10 C 0.35540 -0.47190 0.14250
C11 C 0.40370 -0.51340 0.02620
C12 C 0.42360 -0.45950 0.03480
C13 C 0.37210 -0.36050 0.38120
C14 C 0.29030 -0.35450 0.30330
C15 C 0.28000 -0.36760 0.40300
C16 C 0.24760 -0.39910 0.75410
C17 C 0.24410 -0.32000 0.66890
C18 C 0.20240 -0.31820 0.74300
C19 C 0.46930 -0.37400 0.63920
C20 C 0.47450 -0.34820 0.79490
C21 C 0.41780 -0.35890 0.77100
C22 C 0.49250 -0.27330 0.23660
C23 C 0.52090 -0.35800 0.22900
C24 C 0.56220 -0.32670 0.27550
H1 H 0.54500 -0.27700 0.51400
H2 H 0.70500 -0.26200 0.65300
H3 H 0.70500 -0.19900 0.49100
H4 H 0.59200 -0.18000 0.10600
H5 H 0.71300 -0.13400 0.32000
H6 H 0.73800 -0.08200 0.15100
H7 H 0.60500 -0.49200 0.72300
H8 H 0.70100 -0.48900 0.45800
H9 H 0.67300 -0.38400 0.50200
H10 H 0.32500 -0.46500 0.20100
H11 H 0.42000 -0.54500 -0.02400
H12 H 0.45700 -0.44100 -0.01000
H13 H 0.41700 -0.36000 0.39600
H14 H 0.25900 -0.34900 0.24700
H15 H 0.23900 -0.37300 0.43600
H16 H 0.26000 -0.44000 0.77900
H17 H 0.25200 -0.28800 0.61500
H18 H 0.17400 -0.28400 0.75600
H19 H 0.48200 -0.38400 0.56400
H20 H 0.49000 -0.33500 0.86600
H21 H 0.38300 -0.35500 0.82100
H22 H 0.46600 -0.23700 0.23200
H23 H 0.52400 -0.40200 0.21600
H24 H 0.60100 -0.34300 0.30500
N1 N 0.61710 -0.22820 0.46940
N2 N 0.61730 -0.28440 0.60950
N3 N 0.66340 -0.12530 0.09030
N4 N 0.64200 -0.17030 0.23830
N5 N 0.62960 -0.42050 0.63340
N6 N 0.65530 -0.51260 0.59630
N7 N 0.39320 -0.43080 0.11260
N8 N 0.35920 -0.52170 0.09290
N9 N 0.33200 -0.37220 0.45400
N10 N 0.34960 -0.34950 0.28970
N11 N 0.20330 -0.36920 0.79830
N12 N 0.27310 -0.37190 0.67780
N13 N 0.41450 -0.37610 0.67010
N14 N 0.50770 -0.35830 0.71080
N15 N 0.54450 -0.27020 0.27800
N16 N 0.47560 -0.32430 0.20150
N6D N 0.34470 -0.48740 0.59630
N8B N 0.52170 -0.14080 0.34290
Co3D Co 0.65806 -0.59921 0.59824
Co1G Co 0.29906 -0.58437 0.08728
N11B N 0.36920 -0.29670 0.04830
N3C N 0.62530 -0.33660 0.84030
Co4G Co 0.15107 -0.39593 0.90944
Co2F Co 0.64999 -0.09428 -0.05047
loop_
_geom_bond_atom_site_label_1
_geom_bond_atom_site_label_2
_geom_bond_site_symmetry_1
_geom_bond_site_symmetry_2
Co1 N1 1_555 1_555
Co2 N2 1_555 1_555
Co3 N9 1_555 1_555
Co4 N7 1_555 1_555
C1 H1 1_555 1_555
C2 C3 1_555 1_555
C3 H3 1_555 1_555
C4 H4 1_555 1_555
C5 C6 1_555 1_555
C6 H6 1_555 1_555
C7 H7 1_555 1_555
C8 C9 1_555 1_555
C9 H9 1_555 1_555
C10 H10 1_555 1_555
C11 C12 1_555 1_555
C12 H12 1_555 1_555
C13 H13 1_555 1_555
C14 C15 1_555 1_555
C15 H15 1_555 1_555
C16 H16 1_555 1_555
C17 C18 1_555 1_555
C18 H18 1_555 1_555
C19 H19 1_555 1_555
C20 C21 1_555 1_555
C21 H21 1_555 1_555
C22 H22 1_555 1_555
C23 C24 1_555 1_555
C24 H24 1_555 1_555
H2 C2 1_555 1_555
H5 C5 1_555 1_555
H8 C8 1_555 1_555
H11 C11 1_555 1_555
H14 C14 1_555 1_555
H17 C17 1_555 1_555
H20 C20 1_555 1_555
H23 C23 1_555 1_555
N1 C1 1_555 1_555
N2 C1 1_555 1_555
N3 C4 1_555 1_555
N4 Co1 1_555 1_555
N5 Co2 1_555 1_555
N6 C7 1_555 1_555
N7 C10 1_555 1_555
N8 C10 1_555 1_555
N9 C13 1_555 1_555
N10 Co4 1_555 1_555
N11 C16 1_555 1_555
N12 Co3 1_555 1_555
N13 Co3 1_555 1_555
N14 Co2 1_555 1_555
N15 Co1 1_555 1_555
N16 Co4 1_555 1_555
N6D Co3 1_555 1_555
N8B Co1 1_555 1_555
Co3D N6 1_555 1_555
Co1G N8 1_555 1_555
N11B Co4 1_555 1_555
N3C Co2 1_555 1_555
Co4G N11 1_555 1_555
Co2F N3 1_555 1_555
C2 N2 1_555 1_555
C3 N1 1_555 1_555
C4 N4 1_555 1_555
C5 N4 1_555 1_555
C6 N3 1_555 1_555
C7 N5 1_555 1_555
C8 N6 1_555 1_555
C9 N5 1_555 1_555
C11 N8 1_555 1_555
C12 N7 1_555 1_555
C13 N10 1_555 1_555
C14 N10 1_555 1_555
C15 N9 1_555 1_555
C16 N12 1_555 1_555
C17 N12 1_555 1_555
C18 N11 1_555 1_555
C19 N13 1_555 1_555
C19 N14 1_555 1_555
C20 N14 1_555 1_555
C21 N13 1_555 1_555
C22 N15 1_555 1_555
C22 N16 1_555 1_555
C23 N16 1_555 1_555
C24 N15 1_555 1_555

#END
