
#######################################################################
#
#                 Cambridge Crystallographic Data Centre
#                                CCDC 
#
#######################################################################
#
# If this CIF has been generated from an entry in the Cambridge 
# Structural Database, then it will include bibliographic, chemical, 
# crystal, experimental, refinement or atomic coordinate data resulting 
# from the CCDC's data processing and validation procedures.
#
#######################################################################

data_INADAD
_symmetry_cell_setting           monoclinic
_symmetry_space_group_name_H-M   'P 21'
_symmetry_Int_Tables_number      4
_space_group_name_Hall           'P 2yb'
loop_
_symmetry_equiv_pos_site_id
_symmetry_equiv_pos_as_xyz
1 x,y,z
2 -x,1/2+y,-z
_cell_length_a                   7.529(2)
_cell_length_b                   21.071(3)
_cell_length_c                   14.626(2)
_cell_angle_alpha                90
_cell_angle_beta                 94.400(17)
_cell_angle_gamma                90
_cell_volume                     2313.48
loop_
_atom_site_label
_atom_site_type_symbol
_atom_site_fract_x
_atom_site_fract_y
_atom_site_fract_z
Cu1 Cu 1.03375(19) 0.26602(6) -0.11707(10)
Cu2 Cu 0.83096(19) 0.10039(7) 0.25174(11)
Cu3 Cu 0.65657(18) -0.05210(6) 0.62985(10)
S1 S 1.0938(4) 0.29946(14) 0.1032(2)
S2 S 0.5938(5) -0.09046(19) 0.4136(3)
O1 O 1.0335(13) 0.3086(4) 0.0053(6)
O2 O 1.1621(13) 0.3603(4) 0.1391(7)
O3 O 0.9387(12) 0.2832(5) 0.1516(7)
O4 O 1.2322(12) 0.2512(4) 0.1146(7)
O5 O 1.0297(13) 0.3509(4) -0.1750(7)
O6 O 0.9673(13) 0.0767(4) -0.1167(6)
O7 O 0.7414(14) 0.0035(4) 0.2206(7)
O8 O 0.6615(11) -0.1315(4) 0.6914(6)
O9 O 0.6720(14) -0.0953(4) 0.5098(7)
O10 O 0.483(3) -0.1428(9) 0.3918(11)
O11 O 0.7397(18) -0.0858(8) 0.3516(9)
O12 O 0.4849(18) -0.0345(8) 0.4032(8)
O13 O 0.7190(14) 0.1405(4) 0.6258(7)
N1 N 0.9715(13) -0.0464(5) 0.6347(8)
N2 N 1.3402(14) -0.0547(6) 0.6249(8)
N3 N 1.0135(13) 0.0375(5) 0.4225(7)
N4 N 0.8829(14) 0.0737(5) 0.3773(8)
N5 N 0.7858(13) 0.0451(5) 0.5099(7)
N6 N 0.6839(14) 0.0355(5) 0.5830(7)
N7 N 0.5988(12) 0.1292(4) 0.3050(7)
N8 N 0.3036(15) 0.1589(5) 0.4007(8)
N9 N 0.6204(14) 0.0042(5) 0.7477(7)
N10 N 0.5114(15) 0.0924(6) 0.8756(8)
N11 N 1.0663(13) 0.0762(5) 0.1977(7)
N12 N 1.3600(15) 0.0424(5) 0.1019(7)
N13 N 0.7981(12) 0.1403(5) 0.1298(7)
N14 N 0.6694(13) 0.1774(5) 0.0864(7)
N15 N 0.9010(13) 0.1700(4) 0.0035(6)
N16 N 1.0058(12) 0.1810(4) -0.0725(7)
N17 N 0.7203(13) 0.2659(5) -0.1233(7)
N18 N 0.3544(13) 0.2727(5) -0.1192(7)
N19 N 1.0684(12) 0.2130(5) -0.2379(7)
N20 N 1.1789(18) 0.1272(6) -0.3659(8)
C1 C 1.0773(19) -0.0813(7) 0.6939(10)
H1 H 1.0245 -0.1044 0.7388
C2 C 1.2603(18) -0.0845(6) 0.6912(10)
H2 H 1.3280 -0.1074 0.7356
C3 C 1.2390(17) -0.0214(6) 0.5652(10)
H3 H 1.2921 0.0003 0.5191
C4 C 1.0582(17) -0.0176(5) 0.5688(10)
C5 C 0.9549(15) 0.0214(6) 0.5013(9)
C6 C 0.7472(17) 0.0782(6) 0.4294(9)
C7 C 0.5858(15) 0.1124(6) 0.3948(9)
C8 C 0.4641(17) 0.1624(5) 0.2678(9)
H4 H 0.4670 0.1755 0.2073
C9 C 0.3175(17) 0.1787(6) 0.3151(9)
H5 H 0.2279 0.2038 0.2866
C10 C 0.4404(16) 0.1256(6) 0.4382(9)
H6 H 0.4346 0.1108 0.4978
C11 C 0.6794(16) 0.0854(5) 0.6404(9)
C12 C 0.6161(15) 0.0649(5) 0.7292(8)
C13 C 0.5566(17) 0.1080(6) 0.7911(10)
H7 H 0.5472 0.1503 0.7734
C14 C 0.5239(19) 0.0307(7) 0.8945(10)
H8 H 0.4938 0.0164 0.9515
C15 C 0.5809(19) -0.0134(7) 0.8316(10)
H9 H 0.5915 -0.0559 0.8484
C16 C 1.1889(17) 0.0352(6) 0.2355(9)
H10 H 1.1785 0.0189 0.2939
C17 C 1.3318(17) 0.0177(7) 0.1852(11)
H11 H 1.4117 -0.0124 0.2101
C18 C 1.2403(17) 0.0832(6) 0.0661(9)
H12 H 1.2552 0.1014 0.0092
C19 C 1.0876(15) 0.0994(6) 0.1143(8)
C20 C 0.9376(16) 0.1367(5) 0.0801(9)
C21 C 0.7356(15) 0.1953(6) 0.0079(8)
C22 C 0.6348(16) 0.2346(5) -0.0572(8)
C23 C 0.6184(18) 0.2991(6) -0.1840(10)
H13 H 0.6715 0.3196 -0.2312
C24 C 0.4385(19) 0.3041(7) -0.1798(10)
H14 H 0.3741 0.3306 -0.2210
C25 C 0.4537(16) 0.2392(6) -0.0564(8)
H15 H 0.3974 0.2183 -0.0107
C26 C 1.0084(15) 0.1321(6) -0.1290(9)
C27 C 1.0729(15) 0.1517(6) -0.2197(9)
C28 C 1.1271(17) 0.1096(7) -0.2826(10)
H16 H 1.1287 0.0667 -0.2678
C29 C 1.167(2) 0.1882(7) -0.3844(10)
H17 H 1.1941 0.2026 -0.4417
C30 C 1.1135(19) 0.2313(7) -0.3208(10)
H18 H 1.1089 0.2742 -0.3359
Cu1_2 Cu 0.03375(19) 0.26602(6) -0.11707(10)
Cu3_2 Cu 1.65657(18) -0.05210(6) 0.62985(10)
N2_2 N 0.3402(14) -0.0547(6) 0.6249(8)
N18_2 N 1.3544(13) 0.2727(5) -0.1192(7)
O14 O 0.763(2) 0.9322(5) 0.0707(8)
O15 O 0.421(2) 0.8990(6) 0.0089(9)
O16 O 0.4297(18) 0.7860(6) 0.6184(12)
O17 O 0.050(2) 0.9548(6) 0.9517(10)
O18 O 0.947(2) 0.8032(7) 0.5360(10)
O19 O 0.8977(15) 0.2276(7) 0.3140(9)
O20 O 0.5796(14) 0.3205(5) 0.1393(8)
O21 O 0.9005(17) 0.3873(6) 0.6591(9)
O22 O 0.302(4) 0.7663(16) 0.444(2)
loop_
_geom_bond_atom_site_label_1
_geom_bond_atom_site_label_2
_geom_bond_site_symmetry_1
_geom_bond_site_symmetry_2
Cu1 O1 1_555 1_555
Cu2 O7 1_555 1_555
Cu3 O8 1_555 1_555
S1 O1 1_555 1_555
S2 O9 1_555 1_555
O2 S1 1_555 1_555
O3 S1 1_555 1_555
O4 S1 1_555 1_555
O5 Cu1 1_555 1_555
O6 C26 1_555 1_555
O9 Cu3 1_555 1_555
O10 S2 1_555 1_555
O11 S2 1_555 1_555
O12 S2 1_555 1_555
O13 C11 1_555 1_555
N1 Cu3 1_555 1_555
N2 C2 1_555 1_555
N3 N4 1_555 1_555
N4 Cu2 1_555 1_555
N5 N6 1_555 1_555
N6 Cu3 1_555 1_555
N7 Cu2 1_555 1_555
N8 C9 1_555 1_555
N9 Cu3 1_555 1_555
N10 C13 1_555 1_555
N11 Cu2 1_555 1_555
N12 C17 1_555 1_555
N13 Cu2 1_555 1_555
N14 N13 1_555 1_555
N15 N16 1_555 1_555
N16 Cu1 1_555 1_555
N17 Cu1 1_555 1_555
N18 C24 1_555 1_555
N19 Cu1 1_555 1_555
N20 C28 1_555 1_555
C1 N1 1_555 1_555
H1 C1 1_555 1_555
C2 C1 1_555 1_555
H2 C2 1_555 1_555
C3 N2 1_555 1_555
H3 C3 1_555 1_555
C4 N1 1_555 1_555
C5 N3 1_555 1_555
C6 N4 1_555 1_555
C7 N7 1_555 1_555
C8 N7 1_555 1_555
H4 C8 1_555 1_555
C9 C8 1_555 1_555
H5 C9 1_555 1_555
C10 N8 1_555 1_555
H6 C10 1_555 1_555
C11 N6 1_555 1_555
C12 N9 1_555 1_555
C13 C12 1_555 1_555
H7 C13 1_555 1_555
C14 N10 1_555 1_555
H8 C14 1_555 1_555
C15 N9 1_555 1_555
H9 C15 1_555 1_555
C16 N11 1_555 1_555
H10 C16 1_555 1_555
C17 C16 1_555 1_555
H11 C17 1_555 1_555
C18 N12 1_555 1_555
H12 C18 1_555 1_555
C19 N11 1_555 1_555
C20 N13 1_555 1_555
C21 N14 1_555 1_555
C22 N17 1_555 1_555
C23 N17 1_555 1_555
H13 C23 1_555 1_555
C24 C23 1_555 1_555
H14 C24 1_555 1_555
C25 N18 1_555 1_555
H15 C25 1_555 1_555
C26 N16 1_555 1_555
C27 N19 1_555 1_555
C28 C27 1_555 1_555
H16 C28 1_555 1_555
C29 N20 1_555 1_555
H17 C29 1_555 1_555
C30 N19 1_555 1_555
H18 C30 1_555 1_555
Cu1_2 N18 1_555 1_555
Cu3_2 N2 1_555 1_555
N2_2 Cu3 1_555 1_555
N18_2 Cu1 1_555 1_555
N5 C5 1_555 1_555
N5 C6 1_555 1_555
N15 C20 1_555 1_555
N15 C21 1_555 1_555
C3 C4 1_555 1_555
C4 C5 1_555 1_555
C6 C7 1_555 1_555
C7 C10 1_555 1_555
C11 C12 1_555 1_555
C14 C15 1_555 1_555
C18 C19 1_555 1_555
C19 C20 1_555 1_555
C21 C22 1_555 1_555
C22 C25 1_555 1_555
C26 C27 1_555 1_555
C29 C30 1_555 1_555

#END
