
#######################################################################
#
#                 Cambridge Crystallographic Data Centre
#                                CCDC 
#
#######################################################################
#
# If this CIF has been generated from an entry in the Cambridge 
# Structural Database, then it will include bibliographic, chemical, 
# crystal, experimental, refinement or atomic coordinate data resulting 
# from the CCDC's data processing and validation procedures.
#
#######################################################################

data_INAMIT
_symmetry_cell_setting           monoclinic
_symmetry_space_group_name_H-M   'C 2/c'
_symmetry_Int_Tables_number      15
_space_group_name_Hall           '-C 2yn'
loop_
_symmetry_equiv_pos_site_id
_symmetry_equiv_pos_as_xyz
1 x,y,z
2 x,-y,1/2+z
3 1/2+x,1/2+y,z
4 1/2+x,1/2-y,1/2+z
5 -x,-y,-z
6 -x,y,1/2-z
7 1/2-x,1/2-y,-z
8 1/2-x,1/2+y,1/2-z
_cell_length_a                   15.705(3)
_cell_length_b                   13.049(3)
_cell_length_c                   6.8912(14)
_cell_angle_alpha                90
_cell_angle_beta                 104.59(3)
_cell_angle_gamma                90
_cell_volume                     1366.7
loop_
_atom_site_label
_atom_site_type_symbol
_atom_site_fract_x
_atom_site_fract_y
_atom_site_fract_z
Cd1 Cd 0.0000 0.77865(7) 0.2500
S1 S 0.0000 0.8472(2) -0.2500
O1 O -0.0251(4) 0.7818(4) -0.1003(7)
O2 O -0.0747(4) 0.9140(4) -0.3494(8)
O3 O -0.1071(5) 0.8930(5) 0.2511(10)
H1 H -0.101(4) 0.898(4) 0.363(7)
H2 H -0.092(6) 0.944(4) 0.211(9)
N1 N -0.0864(4) 0.6368(5) 0.2228(9)
C1 C -0.1744(7) 0.6409(6) 0.2007(12)
H3 H -0.194(4) 0.703(3) 0.206(10)
C2 C -0.2276(6) 0.5546(8) 0.1896(14)
H4 H -0.2853(17) 0.560(6) 0.173(12)
C3 C -0.1866(7) 0.4621(7) 0.2034(13)
H5 H -0.217(4) 0.406(4) 0.201(12)
C4 C -0.0964(6) 0.4555(7) 0.2286(11)
H6 H -0.078(5) 0.393(2) 0.248(11)
C5 C -0.0482(5) 0.5448(5) 0.2363(10)
O1E O 0.0251(4) 0.7818(4) -0.3997(7)
O2E O 0.0747(4) 0.9140(4) -0.1506(8)
C5E C 0.0482(5) 0.5448(5) 0.2637(10)
N1E N 0.0864(4) 0.6368(5) 0.2772(9)
C1E C 0.1744(7) 0.6409(6) 0.2993(12)
H3E H 0.194(4) 0.703(3) 0.294(10)
C2E C 0.2276(6) 0.5546(8) 0.3104(14)
H4E H 0.2853(17) 0.560(6) 0.327(12)
C3E C 0.1866(7) 0.4621(7) 0.2966(13)
H5E H 0.217(4) 0.406(4) 0.299(12)
C4E C 0.0964(6) 0.4555(7) 0.2714(11)
H6E H 0.078(5) 0.393(2) 0.252(11)
O3E O 0.1071(5) 0.8930(5) 0.2489(10)
H1E H 0.101(4) 0.898(4) 0.137(7)
H2E H 0.092(6) 0.944(4) 0.289(9)
O1E_2 O 0.0251(4) 0.7818(4) 0.6003(7)
Cd1_2 Cd 0.0000 0.77865(7) -0.7500
loop_
_geom_bond_atom_site_label_1
_geom_bond_atom_site_label_2
_geom_bond_site_symmetry_1
_geom_bond_site_symmetry_2
Cd1 O1 1_555 1_555
S1 O1 1_555 1_555
O2 S1 1_555 1_555
O3 Cd1 1_555 1_555
H1 O3 1_555 1_555
H2 O3 1_555 1_555
N1 Cd1 1_555 1_555
C1 N1 1_555 1_555
H3 C1 1_555 1_555
C2 C1 1_555 1_555
H4 C2 1_555 1_555
C3 C2 1_555 1_555
H5 C3 1_555 1_555
C4 C3 1_555 1_555
H6 C4 1_555 1_555
C5 N1 1_555 1_555
O1E S1 1_555 1_555
O2E S1 1_555 1_555
C5E C5 1_555 1_555
N1E Cd1 1_555 1_555
C1E N1E 1_555 1_555
H3E C1E 1_555 1_555
C2E C1E 1_555 1_555
H4E C2E 1_555 1_555
C3E C2E 1_555 1_555
H5E C3E 1_555 1_555
C4E C5E 1_555 1_555
H6E C4E 1_555 1_555
O3E Cd1 1_555 1_555
H1E O3E 1_555 1_555
H2E O3E 1_555 1_555
O1E_2 Cd1 1_555 1_555
Cd1_2 O1E 1_555 1_555
C4 C5 1_555 1_555
C5E N1E 1_555 1_555
C3E C4E 1_555 1_555

#END
