
#######################################################################
#
#                 Cambridge Crystallographic Data Centre
#                                CCDC 
#
#######################################################################
#
# If this CIF has been generated from an entry in the Cambridge 
# Structural Database, then it will include bibliographic, chemical, 
# crystal, experimental, refinement or atomic coordinate data resulting 
# from the CCDC's data processing and validation procedures.
#
#######################################################################

data_INAMUF
_symmetry_cell_setting           triclinic
_symmetry_space_group_name_H-M   'P -1'
_symmetry_Int_Tables_number      2
_space_group_name_Hall           '-P 1'
loop_
_symmetry_equiv_pos_site_id
_symmetry_equiv_pos_as_xyz
1 x,y,z
2 -x,-y,-z
_cell_length_a                   12.8119(3)
_cell_length_b                   13.8902(4)
_cell_length_c                   15.4534(5)
_cell_angle_alpha                70.6980(10)
_cell_angle_beta                 68.7570(10)
_cell_angle_gamma                85.3380(10)
_cell_volume                     2416.83
loop_
_atom_site_label
_atom_site_type_symbol
_atom_site_fract_x
_atom_site_fract_y
_atom_site_fract_z
Ag1 Ag 0.08294(7) 0.35500(6) 0.03864(6)
Ag2 Ag 0.29259(7) 0.72587(7) -0.21635(7)
Ag3 Ag 0.57387(7) 0.83413(6) -0.50396(7)
S1 S 0.1453(2) 0.54002(18) -0.13404(17)
S2 S -0.0679(2) 0.1752(2) 0.10475(18)
S3 S 0.4222(2) 0.67498(19) -0.41802(18)
S4 S 0.5673(2) 1.0415(2) -0.6413(2)
N1 N -0.0285(6) 0.6197(6) -0.1805(6)
N2 N 0.1117(7) 0.5572(6) -0.2987(6)
N3 N 0.1442(5) 0.2945(5) -0.0858(5)
N4 N -0.1441(7) 0.1191(6) -0.0119(6)
N5 N -0.2624(6) 0.2132(6) 0.0881(5)
N6 N 0.2480(7) 0.7779(6) -0.3541(5)
N7 N 0.2819(7) 0.7606(6) -0.5104(6)
N8 N 0.5545(6) 0.8095(5) -0.6341(6)
N9 N 0.4112(9) 1.0406(7) -0.7182(7)
N10 N 0.3671(7) 1.1108(6) -0.5895(6)
N11 N 0.4393(9) 0.6284(10) -0.1893(9)
C1 C -0.0852(8) 0.6497(8) -0.2419(8)
H1 H -0.1518 0.6825 -0.2233
C2 C -0.0498(11) 0.6342(9) -0.3302(9)
H2 H -0.0913 0.6543 -0.3712
C3 C 0.0504(10) 0.5872(8) -0.3564(8)
H3 H 0.0765 0.5759 -0.4166
C4 C 0.0688(8) 0.5756(7) -0.2153(7)
C5 C 0.2475(8) 0.4565(7) -0.1877(7)
H4 H 0.3030 0.4416 -0.1564
H5 H 0.2859 0.4928 -0.2568
C6 C 0.1975(7) 0.3569(7) -0.1778(6)
C7 C 0.2077(8) 0.3319(7) -0.2586(7)
H6 H 0.2423 0.3778 -0.3212
C8 C 0.1656(9) 0.2369(8) -0.2466(8)
H7 H 0.1705 0.2185 -0.3006
C9 C 0.1167(8) 0.1713(7) -0.1528(7)
H8 H 0.0900 0.1066 -0.1424
C10 C 0.1076(7) 0.2013(6) -0.0753(7)
C11 C 0.0567(7) 0.1309(7) 0.0289(7)
H9 H 0.0385 0.0652 0.0273
H10 H 0.1126 0.1203 0.0595
C12 C -0.1658(7) 0.1677(6) 0.0526(7)
C13 C -0.2253(10) 0.1189(9) -0.0479(9)
H11 H -0.2127 0.0882 -0.0958
C14 C -0.3253(9) 0.1621(10) -0.0165(9)
H12 H -0.3809 0.1596 -0.0413
C15 C -0.3420(9) 0.2087(9) 0.0513(8)
H13 H -0.4101 0.2383 0.0732
C16 C 0.1642(9) 0.8376(8) -0.3660(8)
H14 H 0.1238 0.8647 -0.3166
C17 C 0.1343(9) 0.8612(9) -0.4462(8)
H15 H 0.0756 0.9035 -0.4525
C18 C 0.1954(9) 0.8192(9) -0.5174(8)
H16 H 0.1758 0.8322 -0.5725
C19 C 0.3034(7) 0.7459(7) -0.4310(7)
C20 C 0.4716(9) 0.6381(8) -0.5255(8)
H17 H 0.5349 0.5953 -0.5229
H18 H 0.4128 0.5959 -0.5226
C21 C 0.5078(7) 0.7220(7) -0.6254(7)
C22 C 0.4981(9) 0.7019(9) -0.7030(9)
H19 H 0.4676 0.6395 -0.6944
C23 C 0.5340(12) 0.7753(11) -0.7939(9)
H20 H 0.5290 0.7635 -0.8481
C24 C 0.5777(10) 0.8668(10) -0.8026(8)
H21 H 0.6014 0.9185 -0.8630
C25 C 0.5861(8) 0.8812(8) -0.7222(8)
C26 C 0.6388(10) 0.9804(8) -0.7327(9)
H22 H 0.6454 1.0286 -0.7965
H23 H 0.7141 0.9673 -0.7323
C27 C 0.4346(9) 1.0657(7) -0.6512(7)
C28 C 0.3059(12) 1.0592(9) -0.7177(10)
H24 H 0.2850 1.0427 -0.7631
C29 C 0.2292(11) 1.1005(9) -0.6545(9)
H25 H 0.1561 1.1091 -0.6536
C30 C 0.2630(9) 1.1292(8) -0.5919(8)
H26 H 0.2137 1.1618 -0.5505
C31 C 0.5906(12) 0.5069(12) -0.1472(11)
H27 H 0.6405 0.5402 -0.1313
H28 H 0.6326 0.4847 -0.2022
H29 H 0.5532 0.4489 -0.0918
C32 C 0.5062(11) 0.5793(11) -0.1725(9)
N1A N 0.0285(6) 0.3803(6) 0.1805(6)
N5A N 0.2624(6) 0.7868(6) -0.0881(5)
N10A N 0.6329(7) 0.8892(6) -0.4105(6)
Ag1A Ag -0.08294(7) 0.64500(6) -0.03864(6)
Ag2A Ag -0.29259(7) 0.27413(7) 0.21635(7)
Ag3A Ag 0.42613(7) 1.16587(6) -0.49604(7)
B1 B 0.0045(16) 1.0624(13) -0.3185(13)
F1 F 0.0006(9) 1.0789(13) -0.4053(8)
F2 F -0.0648(14) 1.1065(11) -0.2665(11)
F3 F 0.1103(9) 1.0574(7) -0.3208(8)
F4 F -0.0414(8) 0.9573(9) -0.2753(10)
B2 B 0.7447(14) 0.5846(12) -0.4547(12)
F5 F 0.674(2) 0.5286(9) -0.449(3)
F6 F 0.716(2) 0.590(3) -0.3695(13)
F7 F 0.7217(10) 0.6775(8) -0.5039(10)
F12 F 0.8408(15) 0.5599(13) -0.4678(17)
B3 B 0.3485(13) 0.2704(17) 0.0537(12)
F8 F 0.4221(15) 0.220(2) 0.0100(13)
F9 F 0.3800(8) 0.2751(8) 0.1259(7)
F10 F 0.3328(15) 0.3602(12) -0.0031(12)
F11 F 0.2498(10) 0.2225(9) 0.0921(9)
O1 O 0.1146(13) 0.6220(10) 0.1537(17)
O2 O -0.105(2) 1.3528(14) -0.272(3)
loop_
_geom_bond_atom_site_label_1
_geom_bond_atom_site_label_2
_geom_bond_site_symmetry_1
_geom_bond_site_symmetry_2
Ag1 S1 1_555 1_555
Ag2 S1 1_555 1_555
Ag3 S3 1_555 1_555
S1 C4 1_555 1_555
S2 Ag1 1_555 1_555
S3 C19 1_555 1_555
S4 Ag3 1_555 1_555
N1 C1 1_555 1_555
N2 C3 1_555 1_555
N3 Ag1 1_555 1_555
N4 C12 1_555 1_555
N5 C12 1_555 1_555
N6 Ag2 1_555 1_555
N7 C18 1_555 1_555
N8 Ag3 1_555 1_555
N9 C27 1_555 1_555
N10 C27 1_555 1_555
N11 Ag2 1_555 1_555
C1 H1 1_555 1_555
C2 C1 1_555 1_555
H2 C2 1_555 1_555
C3 C2 1_555 1_555
H3 C3 1_555 1_555
C4 N1 1_555 1_555
C5 S1 1_555 1_555
H4 C5 1_555 1_555
H5 C5 1_555 1_555
C6 N3 1_555 1_555
C7 C6 1_555 1_555
H6 C7 1_555 1_555
C8 C7 1_555 1_555
H7 C8 1_555 1_555
C9 C8 1_555 1_555
H8 C9 1_555 1_555
C10 N3 1_555 1_555
C11 S2 1_555 1_555
H9 C11 1_555 1_555
H10 C11 1_555 1_555
C12 S2 1_555 1_555
C13 N4 1_555 1_555
H11 C13 1_555 1_555
C14 C13 1_555 1_555
H12 C14 1_555 1_555
C15 N5 1_555 1_555
H13 C15 1_555 1_555
C16 N6 1_555 1_555
H14 C16 1_555 1_555
C17 C16 1_555 1_555
H15 C17 1_555 1_555
C18 C17 1_555 1_555
H16 C18 1_555 1_555
C19 N6 1_555 1_555
C20 S3 1_555 1_555
H17 C20 1_555 1_555
H18 C20 1_555 1_555
C21 N8 1_555 1_555
C22 C21 1_555 1_555
H19 C22 1_555 1_555
C23 C22 1_555 1_555
H20 C23 1_555 1_555
C24 C23 1_555 1_555
H21 C24 1_555 1_555
C25 N8 1_555 1_555
C26 S4 1_555 1_555
H22 C26 1_555 1_555
H23 C26 1_555 1_555
C27 S4 1_555 1_555
C28 N9 1_555 1_555
H24 C28 1_555 1_555
C29 C28 1_555 1_555
H25 C29 1_555 1_555
C30 N10 1_555 1_555
H26 C30 1_555 1_555
C31 H27 1_555 1_555
H28 C31 1_555 1_555
H29 C31 1_555 1_555
C32 N11 1_555 1_555
B1 F1 1_555 1_555
B2 F5 1_555 1_555
B3 F8 1_555 1_555
F2 B1 1_555 1_555
F3 B1 1_555 1_555
F4 B1 1_555 1_555
F6 B2 1_555 1_555
F7 B2 1_555 1_555
F9 B3 1_555 1_555
F10 B3 1_555 1_555
F11 B3 1_555 1_555
F12 B2 1_555 1_555
N1A Ag1 1_555 1_555
N5A Ag2 1_555 1_555
N10A Ag3 1_555 1_555
Ag1A N1 1_555 1_555
Ag2A N5 1_555 1_555
Ag3A N10 1_555 1_555
N2 C4 1_555 1_555
N7 C19 1_555 1_555
C5 C6 1_555 1_555
C9 C10 1_555 1_555
C10 C11 1_555 1_555
C14 C15 1_555 1_555
C20 C21 1_555 1_555
C24 C25 1_555 1_555
C25 C26 1_555 1_555
C29 C30 1_555 1_555
C31 C32 1_555 1_555

#END
