
#######################################################################
#
#                 Cambridge Crystallographic Data Centre
#                                CCDC 
#
#######################################################################
#
# If this CIF has been generated from an entry in the Cambridge 
# Structural Database, then it will include bibliographic, chemical, 
# crystal, experimental, refinement or atomic coordinate data resulting 
# from the CCDC's data processing and validation procedures.
#
#######################################################################

data_INASEV
_symmetry_cell_setting           triclinic
_symmetry_space_group_name_H-M   'P -1'
_symmetry_Int_Tables_number      2
_space_group_name_Hall           '-P 1'
loop_
_symmetry_equiv_pos_site_id
_symmetry_equiv_pos_as_xyz
1 x,y,z
2 -x,-y,-z
_cell_length_a                   8.774(4)
_cell_length_b                   12.977(6)
_cell_length_c                   14.017(4)
_cell_angle_alpha                112.59(2)
_cell_angle_beta                 96.74(2)
_cell_angle_gamma                107.81(1)
_cell_volume                     1351.91
loop_
_atom_site_label
_atom_site_type_symbol
_atom_site_fract_x
_atom_site_fract_y
_atom_site_fract_z
Ru1 Ru 0.06485(4) 0.08343(3) -0.01165(2)
K1 K 0.5000 0.5000 0.0000
O1 O 0.2001(4) 0.2457(3) -0.0322(2)
O2 O -0.1638(3) 0.0679(3) -0.0864(2)
O3 O -0.2893(3) -0.0960(3) -0.0634(2)
O4 O -0.0413(6) 0.1347(3) -0.5072(3)
O5 O 0.0053(6) 0.3261(4) -0.4276(3)
O6 O 0.5518(4) 0.4613(3) -0.1998(2)
O7 O 0.3610(4) 0.5985(3) -0.1209(3)
O8 O 0.3744(4) 0.6741(3) 0.0989(3)
N1 N -0.0381(4) -0.1928(3) -0.1339(3)
N2 N 0.0895(4) -0.0220(3) -0.1552(3)
N3 N 0.0019(6) 0.2302(4) -0.4251(3)
C1 C -0.0923(5) -0.3139(4) -0.1690(3)
C2 C -0.0700(6) -0.3907(4) -0.2600(4)
C3 C 0.0160(6) -0.3410(4) -0.3202(3)
C4 C 0.0729(6) -0.2204(4) -0.2878(3)
C5 C 0.0449(5) -0.1415(4) -0.1932(3)
C6 C 0.1849(5) 0.0413(4) -0.2114(3)
C7 C 0.1304(5) 0.1377(4) -0.2213(3)
C8 C 0.0800(5) 0.1351(4) -0.3188(3)
C9 C 0.0508(5) 0.2332(4) -0.3231(3)
C10 C 0.0738(5) 0.3348(4) -0.2302(3)
C11 C 0.1203(5) 0.3377(4) -0.1331(3)
C12 C 0.1505(5) 0.2404(4) -0.1239(3)
C13 C -0.2919(5) -0.0185(4) -0.0966(3)
C14 C -0.4584(5) -0.0298(4) -0.1500(4)
C15 C 0.5622(7) 0.3465(4) -0.2575(4)
C16 C 0.4578(6) 0.4925(5) -0.2655(4)
C17 C 0.4510(6) 0.6116(5) -0.1984(4)
C18 C 0.3441(6) 0.7069(4) -0.0565(4)
C19 C 0.2621(6) 0.6892(4) 0.0279(4)
C20 C 0.6860(7) 0.3332(5) -0.1873(4)
H1 H -0.1493 -0.3475 -0.1277
H2 H -0.1116 -0.4754 -0.2819
H3 H 0.0342 -0.3921 -0.3838
H4 H 0.1327 -0.1874 -0.3284
H5 H 0.2988 0.0784 -0.1727
H6 H 0.1719 -0.0172 -0.2815
H7 H 0.0652 0.0668 -0.3831
H8 H 0.0570 0.4020 -0.2347
H9 H 0.1327 0.4065 -0.0699
H10 H -0.4774 0.0410 -0.1107
H11 H -0.4609 -0.0395 -0.2210
H12 H -0.5424 -0.0981 -0.1523
H13 H 0.5087 0.4981 -0.3205
H14 H 0.3483 0.4325 -0.2969
H15 H 0.3956 0.6363 -0.2428
H16 H 0.5605 0.6702 -0.1622
H17 H 0.4505 0.7706 -0.0231
H18 H 0.2774 0.7266 -0.0999
H19 H 0.1620 0.6193 -0.0050
H20 H 0.2382 0.7578 0.0667
O8A O 0.6256(4) 0.3259(3) -0.0989(3)
C19A C 0.7379(6) 0.3108(4) -0.0279(4)
C18A C 0.6559(6) 0.2931(4) 0.0565(4)
O7A O 0.6390(4) 0.4015(3) 0.1209(3)
C17A C 0.5490(6) 0.3884(5) 0.1984(4)
C16A C 0.5422(6) 0.5075(5) 0.2655(4)
O6A O 0.4482(4) 0.5387(3) 0.1998(2)
C15A C 0.4378(7) 0.6535(4) 0.2575(4)
C20A C 0.3140(7) 0.6668(5) 0.1873(4)
H13A H 0.4913 0.5019 0.3205
H14A H 0.6517 0.5675 0.2969
H15A H 0.6044 0.3637 0.2428
H16A H 0.4395 0.3298 0.1622
H17A H 0.5495 0.2294 0.0231
H18A H 0.7226 0.2734 0.0999
H19A H 0.8380 0.3807 0.0050
H20A H 0.7618 0.2422 -0.0667
O1A O 0.7999(4) 0.7543(3) 0.0322(2)
O4A O 1.0413(6) 0.8653(3) 0.5072(3)
O5A O 0.9947(6) 0.6739(4) 0.4276(3)
N1A N 1.0381(4) 1.1928(3) 0.1339(3)
N2A N 0.9105(4) 1.0220(3) 0.1552(3)
N3A N 0.9981(6) 0.7698(4) 0.4251(3)
C1A C 1.0923(5) 1.3139(4) 0.1690(3)
C2A C 1.0700(6) 1.3907(4) 0.2600(4)
C3A C 0.9840(6) 1.3410(4) 0.3202(3)
C4A C 0.9271(6) 1.2204(4) 0.2878(3)
C5A C 0.9551(5) 1.1415(4) 0.1932(3)
C6A C 0.8151(5) 0.9587(4) 0.2114(3)
C7A C 0.8696(5) 0.8623(4) 0.2213(3)
C8A C 0.9200(5) 0.8649(4) 0.3188(3)
C9A C 0.9492(5) 0.7668(4) 0.3231(3)
C10A C 0.9262(5) 0.6652(4) 0.2302(3)
C11A C 0.8797(5) 0.6623(4) 0.1331(3)
C12A C 0.8495(5) 0.7596(4) 0.1239(3)
H1A H 1.1493 1.3475 0.1277
H2A H 1.1116 1.4754 0.2819
H3A H 0.9658 1.3921 0.3838
H4A H 0.8673 1.1874 0.3284
H5A H 0.7012 0.9216 0.1727
H6A H 0.8281 1.0172 0.2815
H7A H 0.9348 0.9332 0.3831
H8A H 0.9430 0.5980 0.2347
H9A H 0.8673 0.5935 0.0699
Ru1A Ru 0.93515(4) 0.91657(3) 0.01165(2)
O2A O 0.1638(3) -0.0679(3) 0.0864(2)
O3A O 0.2893(3) 0.0960(3) 0.0634(2)
C13A C 0.2919(5) 0.0185(4) 0.0966(3)
C14A C 0.4584(5) 0.0298(4) 0.1500(4)
H10A H 0.4774 -0.0410 0.1107
H11A H 0.4609 0.0395 0.2210
H12A H 0.5424 0.0981 0.1523
Ru1A_2 Ru -0.06485(4) -0.08343(3) 0.01165(2)
N1A_2 N 0.0381(4) 0.1928(3) 0.1339(3)
Ru1_2 Ru 1.06485(4) 1.08343(3) -0.01165(2)
O2A_2 O 1.1638(3) 0.9321(3) 0.0864(2)
O3_2 O 0.7107(3) 0.9040(3) -0.0634(2)
N1_2 N 0.9619(4) 0.8072(3) -0.1339(3)
C21 C 0.645(1) 0.0004(10) -0.3907(8)
C22 C 0.582(1) -0.1299(7) -0.4164(5)
C23 C 0.6846(8) -0.1842(8) -0.3967(6)
C24 C 0.617(1) -0.2982(9) -0.4133(7)
C25 C 0.455(1) -0.3647(8) -0.4526(6)
C26 C 0.3501(9) -0.3121(7) -0.4675(5)
C27 C 0.4132(9) -0.1930(7) -0.4502(5)
H21 H 0.7632 0.0325 -0.3683
H22 H 0.6095 0.0091 -0.4526
H23 H 0.6038 0.0419 -0.3347
H24 H 0.8016 -0.1410 -0.3715
H25 H 0.6888 -0.3348 -0.3967
H26 H 0.4135 -0.4484 -0.4697
H27 H 0.2335 -0.3565 -0.4897
H28 H 0.3406 -0.1553 -0.4621
loop_
_geom_bond_atom_site_label_1
_geom_bond_atom_site_label_2
_geom_bond_site_symmetry_1
_geom_bond_site_symmetry_2
Ru1 O1 1_555 1_555
K1 O1 1_555 1_555
O1 C12 1_555 1_555
O2 Ru1 1_555 1_555
O3 C13 1_555 1_555
O4 N3 1_555 1_555
O5 N3 1_555 1_555
O6 K1 1_555 1_555
O7 K1 1_555 1_555
O8 K1 1_555 1_555
N1 C1 1_555 1_555
N2 Ru1 1_555 1_555
N3 C9 1_555 1_555
C1 C2 1_555 1_555
C2 C3 1_555 1_555
C3 C4 1_555 1_555
C4 C5 1_555 1_555
C5 N1 1_555 1_555
C6 N2 1_555 1_555
C7 C6 1_555 1_555
C8 C7 1_555 1_555
C9 C8 1_555 1_555
C10 C9 1_555 1_555
C11 C10 1_555 1_555
C12 C7 1_555 1_555
C13 O2 1_555 1_555
C14 C13 1_555 1_555
C15 O6 1_555 1_555
C16 O6 1_555 1_555
C17 O7 1_555 1_555
C18 O7 1_555 1_555
C19 O8 1_555 1_555
C20 C15 1_555 1_555
C21 C22 1_555 1_555
C22 C23 1_555 1_555
C23 C24 1_555 1_555
C24 C25 1_555 1_555
C25 C26 1_555 1_555
C26 C27 1_555 1_555
C27 C22 1_555 1_555
H1 C1 1_555 1_555
H2 C2 1_555 1_555
H3 C3 1_555 1_555
H4 C4 1_555 1_555
H5 C6 1_555 1_555
H6 C6 1_555 1_555
H7 C8 1_555 1_555
H8 C10 1_555 1_555
H9 C11 1_555 1_555
H10 C14 1_555 1_555
H11 C14 1_555 1_555
H12 C14 1_555 1_555
H13 C16 1_555 1_555
H14 C16 1_555 1_555
H15 C17 1_555 1_555
H16 C17 1_555 1_555
H17 C18 1_555 1_555
H18 C18 1_555 1_555
H19 C19 1_555 1_555
H20 C19 1_555 1_555
H21 C21 1_555 1_555
H22 C21 1_555 1_555
H23 C21 1_555 1_555
H24 C23 1_555 1_555
H25 C24 1_555 1_555
H26 C25 1_555 1_555
H27 C26 1_555 1_555
H28 C27 1_555 1_555
O8A K1 1_555 1_555
C19A O8A 1_555 1_555
C18A C19A 1_555 1_555
O7A K1 1_555 1_555
C17A O7A 1_555 1_555
C16A C17A 1_555 1_555
O6A K1 1_555 1_555
C15A O6A 1_555 1_555
C20A O8 1_555 1_555
H13A C16A 1_555 1_555
H14A C16A 1_555 1_555
H15A C17A 1_555 1_555
H16A C17A 1_555 1_555
H17A C18A 1_555 1_555
H18A C18A 1_555 1_555
H19A C19A 1_555 1_555
H20A C19A 1_555 1_555
O1A K1 1_555 1_555
O4A N3A 1_555 1_555
O5A N3A 1_555 1_555
N1A C1A 1_555 1_555
N2A C5A 1_555 1_555
N3A C9A 1_555 1_555
C1A C2A 1_555 1_555
C2A C3A 1_555 1_555
C3A C4A 1_555 1_555
C4A C5A 1_555 1_555
C5A N1A 1_555 1_555
C6A N2A 1_555 1_555
C7A C6A 1_555 1_555
C8A C7A 1_555 1_555
C9A C8A 1_555 1_555
C10A C9A 1_555 1_555
C11A C10A 1_555 1_555
C12A O1A 1_555 1_555
H1A C1A 1_555 1_555
H2A C2A 1_555 1_555
H3A C3A 1_555 1_555
H4A C4A 1_555 1_555
H5A C6A 1_555 1_555
H6A C6A 1_555 1_555
H7A C8A 1_555 1_555
H8A C10A 1_555 1_555
H9A C11A 1_555 1_555
Ru1A O1A 1_555 1_555
O2A C13A 1_555 1_555
O3A Ru1 1_555 1_555
C13A O3A 1_555 1_555
C14A C13A 1_555 1_555
H10A C14A 1_555 1_555
H11A C14A 1_555 1_555
H12A C14A 1_555 1_555
Ru1A_2 Ru1 1_555 1_555
N1A_2 Ru1 1_555 1_555
Ru1_2 N1A 1_555 1_555
O2A_2 Ru1A 1_555 1_555
O3_2 Ru1A 1_555 1_555
N1_2 Ru1A 1_555 1_555
O3 Ru1A_2 1_555 1_555
N1 Ru1A_2 1_555 1_555
N2 C5 1_555 1_555
C11 C12 1_555 1_555
C16 C17 1_555 1_555
C18 C19 1_555 1_555
C20 O8A 1_555 1_555
C18A O7A 1_555 1_555
C16A O6A 1_555 1_555
C15A C20A 1_555 1_555
N2A Ru1A 1_555 1_555
C7A C12A 1_555 1_555
C11A C12A 1_555 1_555
Ru1A Ru1_2 1_555 1_555
O2A Ru1A_2 1_555 1_555

#END
