
#######################################################################
#
#                 Cambridge Crystallographic Data Centre
#                                CCDC 
#
#######################################################################
#
# If this CIF has been generated from an entry in the Cambridge 
# Structural Database, then it will include bibliographic, chemical, 
# crystal, experimental, refinement or atomic coordinate data resulting 
# from the CCDC's data processing and validation procedures.
#
#######################################################################

data_INAXIE
_symmetry_cell_setting           monoclinic
_symmetry_space_group_name_H-M   'P 21/c'
_symmetry_Int_Tables_number      14
_space_group_name_Hall           '-P 2ybc'
loop_
_symmetry_equiv_pos_site_id
_symmetry_equiv_pos_as_xyz
1 x,y,z
2 x,1/2-y,1/2+z
3 -x,-y,-z
4 -x,1/2+y,1/2-z
_cell_length_a                   11.8517(15)
_cell_length_b                   11.7867(17)
_cell_length_c                   9.6046(11)
_cell_angle_alpha                90
_cell_angle_beta                 102.929(8)
_cell_angle_gamma                90
_cell_volume                     1307.68
loop_
_atom_site_label
_atom_site_type_symbol
_atom_site_fract_x
_atom_site_fract_y
_atom_site_fract_z
Cu1 Cu 0.19602(2) 0.90885(2) 0.13079(3)
O1 O 0.09180(15) 0.98756(14) 0.22547(17)
O2 O 0.28667(14) 0.84338(14) 0.00097(16)
O3 O 0.27627(16) 0.72542(16) -0.18273(19)
N1 N 0.07128(16) 0.81933(16) 0.01678(19)
N2 N 0.32611(18) 1.01423(17) 0.2188(2)
C1 C -0.0831(2) 0.8824(2) 0.1252(2)
C2 C -0.0165(2) 0.96307(19) 0.2201(2)
C3 C -0.0745(2) 1.0188(2) 0.3153(3)
H1 H -0.0349 1.0736 0.3771
C4 C -0.1869(3) 0.9942(3) 0.3186(3)
H2 H -0.2216 1.0322 0.3829
C5 C -0.2501(3) 0.9135(3) 0.2277(3)
H3 H -0.3260 0.8967 0.2317
C6 C -0.1983(2) 0.8592(3) 0.1324(3)
H4 H -0.2403 0.8057 0.0707
C7 C -0.0355(2) 0.8192(2) 0.0233(2)
H5 H -0.0862 0.7750 -0.0428
C8 C 0.1077(2) 0.7499(2) -0.0909(2)
H6 H 0.0587 0.7659 -0.1841
H7 H 0.0991 0.6702 -0.0700
C9 C 0.2330(2) 0.77428(19) -0.0932(2)
C10 C 0.3323(3) 1.0586(3) 0.3488(3)
H8 H 0.2746 1.0409 0.3969
C11 C 0.4211(3) 1.1295(3) 0.4141(4)
H9 H 0.4243 1.1569 0.5057
C12 C 0.5052(3) 1.1593(3) 0.3419(4)
H10 H 0.5647 1.2086 0.3828
C13 C 0.4994(3) 1.1146(3) 0.2084(4)
H11 H 0.5549 1.1331 0.1574
C14 C 0.4098(2) 1.0421(3) 0.1512(3)
H12 H 0.4072 1.0111 0.0616
O3A O 0.27627(16) 0.77458(16) 0.31727(19)
Cu1A Cu 0.19602(2) 0.59115(2) -0.36921(3)
loop_
_geom_bond_atom_site_label_1
_geom_bond_atom_site_label_2
_geom_bond_site_symmetry_1
_geom_bond_site_symmetry_2
Cu1 O1 1_555 1_555
O1 C2 1_555 1_555
O2 Cu1 1_555 1_555
O3 C9 1_555 1_555
N1 Cu1 1_555 1_555
N2 Cu1 1_555 1_555
C1 C2 1_555 1_555
C2 C3 1_555 1_555
C3 H1 1_555 1_555
C4 C3 1_555 1_555
H2 C4 1_555 1_555
C5 C4 1_555 1_555
H3 C5 1_555 1_555
C6 C1 1_555 1_555
H4 C6 1_555 1_555
C7 N1 1_555 1_555
H5 C7 1_555 1_555
C8 N1 1_555 1_555
H6 C8 1_555 1_555
H7 C8 1_555 1_555
C9 O2 1_555 1_555
C10 N2 1_555 1_555
H8 C10 1_555 1_555
C11 C10 1_555 1_555
H9 C11 1_555 1_555
C12 C11 1_555 1_555
H10 C12 1_555 1_555
C13 C12 1_555 1_555
H11 C13 1_555 1_555
C14 N2 1_555 1_555
H12 C14 1_555 1_555
O3A Cu1 1_555 1_555
Cu1A O3 1_555 1_555
C1 C7 1_555 1_555
C5 C6 1_555 1_555
C8 C9 1_555 1_555
C13 C14 1_555 1_555

#END
