
#######################################################################
#
#                 Cambridge Crystallographic Data Centre
#                                CCDC 
#
#######################################################################
#
# If this CIF has been generated from an entry in the Cambridge 
# Structural Database, then it will include bibliographic, chemical, 
# crystal, experimental, refinement or atomic coordinate data resulting 
# from the CCDC's data processing and validation procedures.
#
#######################################################################

data_INEFEN
_symmetry_cell_setting           monoclinic
_symmetry_space_group_name_H-M   'C 2'
_symmetry_Int_Tables_number      5
_space_group_name_Hall           'C 2y'
loop_
_symmetry_equiv_pos_site_id
_symmetry_equiv_pos_as_xyz
1 x,y,z
2 -x,y,-z
3 1/2+x,1/2+y,z
4 1/2-x,1/2+y,-z
_cell_length_a                   19.3447(9)
_cell_length_b                   8.9864(5)
_cell_length_c                   9.2291(5)
_cell_angle_alpha                90
_cell_angle_beta                 95.750(5)
_cell_angle_gamma                90
_cell_volume                     1596.31
loop_
_atom_site_label
_atom_site_type_symbol
_atom_site_fract_x
_atom_site_fract_y
_atom_site_fract_z
Zn1 Zn 0.5000 0.35921(4) 0.0000
O1 O 0.33409(13) 0.0454(3) -0.6554(2)
O2 O 0.43919(10) -0.5599(2) -0.8656(2)
O3 O 0.39272(11) -0.4452(3) -1.0609(2)
N1 N 0.44662(12) 0.2157(3) -0.1450(2)
N2 N 0.35278(11) -0.0878(2) -0.4467(2)
H3 H 0.3458 -0.1735 -0.4094
C1 C 0.40717(16) 0.1546(4) -0.3924(3)
H4 H 0.4024 0.1833 -0.4897
C2 C 0.43874(17) 0.2478(4) -0.2860(3)
H5 H 0.4555 0.3388 -0.3153
C3 C 0.42217(16) 0.0854(4) -0.1066(3)
H6 H 0.4262 0.0612 -0.0081
C4 C 0.39112(15) -0.0164(4) -0.2041(3)
H7 H 0.3758 -0.1074 -0.1717
C5 C 0.38307(14) 0.0186(3) -0.3510(3)
C6 C 0.33251(16) -0.0737(4) -0.5935(3)
C7 C 0.31161(16) -0.2185(4) -0.6682(3)
H8 H 0.2876 -0.2797 -0.6011
C8 C 0.26314(15) -0.1963(3) -0.8084(3)
H9 H 0.2153 -0.2152 -0.7913
H10 H 0.2667 -0.0955 -0.8445
C9 C 0.28745(16) -0.3086(4) -0.9173(3)
H11 H 0.2482 -0.3656 -0.9612
H12 H 0.3086 -0.2570 -0.9940
C10 C 0.34038(13) -0.4121(3) -0.8349(3)
C11 C 0.37582(15) -0.3072(3) -0.7123(3)
C12 C 0.42815(16) -0.2063(4) -0.7747(4)
H13 H 0.4065 -0.1573 -0.8600
H14 H 0.4668 -0.2644 -0.8003
H15 H 0.4443 -0.1332 -0.7034
C13 C 0.41170(17) -0.3939(4) -0.5819(3)
H16 H 0.4342 -0.3252 -0.5128
H17 H 0.4456 -0.4604 -0.6152
H18 H 0.3776 -0.4501 -0.5363
C14 C 0.30410(16) -0.5432(4) -0.7714(3)
H19 H 0.3381 -0.6071 -0.7204
H20 H 0.2786 -0.5979 -0.8485
H21 H 0.2727 -0.5075 -0.7050
C15 C 0.39364(15) -0.4753(3) -0.9303(3)
Zn1_2 Zn 0.5000 -0.64079(4) -1.0000
Zn1_3 Zn 0.5000 -0.64079(4) 1.0000
O1A O 0.66591(13) 0.0454(3) 0.6554(2)
O2_2 O 0.43919(10) 0.4401(2) 0.1344(2)
O2A O 0.56081(10) 0.4401(2) -0.1344(2)
O2A_2 O 0.56081(10) -0.5599(2) 0.8656(2)
O3A O 0.60728(11) -0.4452(3) 1.0609(2)
N1A N 0.55338(12) 0.2157(3) 0.1450(2)
N2A N 0.64722(11) -0.0878(2) 0.4467(2)
H3A H 0.6542 -0.1735 0.4094
C1A C 0.59283(16) 0.1546(4) 0.3924(3)
H4A H 0.5976 0.1833 0.4897
C2A C 0.56126(17) 0.2478(4) 0.2860(3)
H5A H 0.5445 0.3388 0.3153
C3A C 0.57783(16) 0.0854(4) 0.1066(3)
H6A H 0.5738 0.0612 0.0081
C4A C 0.60888(15) -0.0164(4) 0.2041(3)
H7A H 0.6242 -0.1074 0.1717
C5A C 0.61693(14) 0.0186(3) 0.3510(3)
C6A C 0.66749(16) -0.0737(4) 0.5935(3)
C7A C 0.68839(16) -0.2185(4) 0.6682(3)
H8A H 0.7124 -0.2797 0.6011
C8A C 0.73686(15) -0.1963(3) 0.8084(3)
H9A H 0.7847 -0.2152 0.7913
H10A H 0.7333 -0.0955 0.8445
C9A C 0.71255(16) -0.3086(4) 0.9173(3)
H11A H 0.7518 -0.3656 0.9612
H12A H 0.6914 -0.2570 0.9940
C10A C 0.65962(13) -0.4121(3) 0.8349(3)
C11A C 0.62418(15) -0.3072(3) 0.7123(3)
C12A C 0.57185(16) -0.2063(4) 0.7747(4)
H13A H 0.5935 -0.1573 0.8600
H14A H 0.5332 -0.2644 0.8003
H15A H 0.5557 -0.1332 0.7034
C13A C 0.58830(17) -0.3939(4) 0.5819(3)
H16A H 0.5658 -0.3252 0.5128
H17A H 0.5544 -0.4604 0.6152
H18A H 0.6224 -0.4501 0.5363
C14A C 0.69590(16) -0.5432(4) 0.7714(3)
H19A H 0.6619 -0.6071 0.7204
H20A H 0.7214 -0.5979 0.8485
H21A H 0.7273 -0.5075 0.7050
C15A C 0.60636(15) -0.4753(3) 0.9303(3)
O4 O 0.31003(12) -0.3451(3) -1.2996(3)
H1 H 0.2683(9) -0.360(5) -1.298(4)
H2 H 0.3377(14) -0.382(4) -1.235(3)
loop_
_geom_bond_atom_site_label_1
_geom_bond_atom_site_label_2
_geom_bond_site_symmetry_1
_geom_bond_site_symmetry_2
Zn1 N1 1_555 1_555
O1 C6 1_555 1_555
O2 C15 1_555 1_555
O3 C15 1_555 1_555
O4 H1 1_555 1_555
H2 O4 1_555 1_555
N1 C2 1_555 1_555
N2 H3 1_555 1_555
C1 H4 1_555 1_555
C2 C1 1_555 1_555
H5 C2 1_555 1_555
C3 N1 1_555 1_555
H6 C3 1_555 1_555
C4 C3 1_555 1_555
H7 C4 1_555 1_555
C5 N2 1_555 1_555
C6 N2 1_555 1_555
C7 C6 1_555 1_555
H8 C7 1_555 1_555
C8 C7 1_555 1_555
H9 C8 1_555 1_555
H10 C8 1_555 1_555
C9 C8 1_555 1_555
H11 C9 1_555 1_555
H12 C9 1_555 1_555
C10 C9 1_555 1_555
C11 C7 1_555 1_555
C12 C11 1_555 1_555
H13 C12 1_555 1_555
H14 C12 1_555 1_555
H15 C12 1_555 1_555
C13 C11 1_555 1_555
H16 C13 1_555 1_555
H17 C13 1_555 1_555
H18 C13 1_555 1_555
C14 C10 1_555 1_555
H19 C14 1_555 1_555
H20 C14 1_555 1_555
H21 C14 1_555 1_555
C15 C10 1_555 1_555
Zn1_2 O2 1_555 1_555
Zn1_3 O2A_2 1_555 1_555
O1A C6A 1_555 1_555
O2_2 Zn1 1_555 1_555
O2A Zn1 1_555 1_555
O2A_2 C15A 1_555 1_555
O3A C15A 1_555 1_555
N1A Zn1 1_555 1_555
N2A H3A 1_555 1_555
C1A H4A 1_555 1_555
C2A N1A 1_555 1_555
H5A C2A 1_555 1_555
C3A N1A 1_555 1_555
H6A C3A 1_555 1_555
C4A C3A 1_555 1_555
H7A C4A 1_555 1_555
C5A N2A 1_555 1_555
C6A N2A 1_555 1_555
C7A C6A 1_555 1_555
H8A C7A 1_555 1_555
C8A C7A 1_555 1_555
H9A C8A 1_555 1_555
H10A C8A 1_555 1_555
C9A C8A 1_555 1_555
H11A C9A 1_555 1_555
H12A C9A 1_555 1_555
C10A C9A 1_555 1_555
C11A C7A 1_555 1_555
C12A C11A 1_555 1_555
H13A C12A 1_555 1_555
H14A C12A 1_555 1_555
H15A C12A 1_555 1_555
C13A C11A 1_555 1_555
H16A C13A 1_555 1_555
H17A C13A 1_555 1_555
H18A C13A 1_555 1_555
C14A C10A 1_555 1_555
H19A C14A 1_555 1_555
H20A C14A 1_555 1_555
H21A C14A 1_555 1_555
C15A C10A 1_555 1_555
C1 C5 1_555 1_555
C4 C5 1_555 1_555
C10 C11 1_555 1_555
C1A C2A 1_555 1_555
C1A C5A 1_555 1_555
C4A C5A 1_555 1_555
C10A C11A 1_555 1_555

#END
