
#######################################################################
#
#                 Cambridge Crystallographic Data Centre
#                                CCDC 
#
#######################################################################
#
# If this CIF has been generated from an entry in the Cambridge 
# Structural Database, then it will include bibliographic, chemical, 
# crystal, experimental, refinement or atomic coordinate data resulting 
# from the CCDC's data processing and validation procedures.
#
#######################################################################

data_INEYIK
_symmetry_cell_setting           monoclinic
_symmetry_space_group_name_H-M   'P 21'
_symmetry_Int_Tables_number      4
_space_group_name_Hall           'P 2yb'
loop_
_symmetry_equiv_pos_site_id
_symmetry_equiv_pos_as_xyz
1 x,y,z
2 -x,1/2+y,-z
_cell_length_a                   9.568(2)
_cell_length_b                   6.6381(16)
_cell_length_c                   16.165(4)
_cell_angle_alpha                90
_cell_angle_beta                 99.196(4)
_cell_angle_gamma                90
_cell_volume                     1013.5
loop_
_atom_site_label
_atom_site_type_symbol
_atom_site_fract_x
_atom_site_fract_y
_atom_site_fract_z
Ca1 Ca 0.58440(9) 0.39214(14) 0.46404(5)
O1 O 0.5512(5) 0.7256(6) 0.4145(2)
O2 O 0.5413(5) 1.0509(6) 0.4320(3)
O3 O 0.6610(6) 0.3286(8) 0.0686(3)
C1 C 0.5590(11) 0.1693(13) 0.0508(5)
H1 H 0.5851 0.0838 0.0079
H2 H 0.4671 0.2260 0.0320
H3 H 0.5566 0.0917 0.1007
C2 C 0.6404(7) 0.4663(10) 0.1287(4)
C3 C 0.7352(7) 0.6219(12) 0.1410(4)
H4 H 0.8097 0.6263 0.1104
C4 C 0.7218(6) 0.7730(10) 0.1983(3)
H5 H 0.7878 0.8768 0.2065
C5 C 0.6089(6) 0.7701(8) 0.2441(3)
C6 C 0.5148(6) 0.6115(8) 0.2310(3)
H6 H 0.4392 0.6070 0.2607
C7 C 0.5300(7) 0.4579(9) 0.1742(3)
H7 H 0.4665 0.3508 0.1671
C8 C 0.5897(8) 0.9427(8) 0.3008(4)
H8 H 0.5121 1.0240 0.2727
H9 H 0.6743 1.0250 0.3058
C9 C 0.5607(4) 0.9017(10) 0.3888(3)
O4 O 0.7820(5) 0.5522(7) 0.5633(3)
O5 O 0.7784(4) 0.2246(7) 0.5622(3)
O6 O 0.8170(6) 0.7943(10) 0.9479(3)
C10 C 0.8860(11) 0.9751(17) 0.9756(6)
H10 H 0.8522 1.0213 1.0251
H11 H 0.8666 1.0752 0.9324
H12 H 0.9862 0.9521 0.9881
C11 C 0.8519(7) 0.7071(11) 0.8772(4)
C12 C 0.9371(8) 0.7909(11) 0.8270(4)
H13 H 0.9735 0.9194 0.8388
C13 C 0.9703(8) 0.6875(12) 0.7585(4)
H14 H 1.0284 0.7486 0.7249
C14 C 0.9196(6) 0.4964(10) 0.7386(4)
C15 C 0.8308(7) 0.4143(13) 0.7897(4)
H15 H 0.7929 0.2867 0.7775
C16 C 0.7972(8) 0.5173(13) 0.8582(5)
H16 H 0.7376 0.4586 0.8916
C17 C 0.9519(6) 0.3830(14) 0.6631(4)
H17 H 1.0337 0.4434 0.6443
H18 H 0.9758 0.2448 0.6791
C18 C 0.8297(5) 0.3836(13) 0.5920(3)
O7 O 0.7663(2) 0.3907(5) 0.37610(14)
H19 H 0.7425 0.4793 0.3414
H20 H 0.8456 0.4014 0.4038
O8 O 0.3550(2) 0.3887(5) 0.37703(14)
H21 H 0.3181 0.2771 0.3712
H22 H 0.2917 0.4728 0.3749
Ca1_2 Ca 0.58440(9) 1.39214(14) 0.46404(5)
Ca1A Ca 0.41560(9) 0.89214(14) 0.53596(5)
O1A O 0.4488(5) 0.2256(6) 0.5855(2)
O2_2 O 0.5413(5) 0.0509(6) 0.4320(3)
O2A O 0.4587(5) 0.5509(6) 0.5680(3)
O9 O 1.0388(2) 0.3896(5) 0.46226(14)
H23 H 1.1003 0.4768 0.4688
H24 H 1.0907 0.3205 0.4381
loop_
_geom_bond_atom_site_label_1
_geom_bond_atom_site_label_2
_geom_bond_site_symmetry_1
_geom_bond_site_symmetry_2
Ca1 O1 1_555 1_555
O1 C9 1_555 1_555
O2 C9 1_555 1_555
O3 C1 1_555 1_555
C1 H1 1_555 1_555
H2 C1 1_555 1_555
H3 C1 1_555 1_555
C2 O3 1_555 1_555
C3 C2 1_555 1_555
H4 C3 1_555 1_555
C4 C3 1_555 1_555
H5 C4 1_555 1_555
C5 C4 1_555 1_555
C6 C5 1_555 1_555
H6 C6 1_555 1_555
C7 C2 1_555 1_555
H7 C7 1_555 1_555
C8 C5 1_555 1_555
H8 C8 1_555 1_555
H9 C8 1_555 1_555
C9 C8 1_555 1_555
O4 Ca1 1_555 1_555
O5 Ca1 1_555 1_555
O6 C10 1_555 1_555
C10 H10 1_555 1_555
H11 C10 1_555 1_555
H12 C10 1_555 1_555
C11 O6 1_555 1_555
C12 C11 1_555 1_555
H13 C12 1_555 1_555
C13 C12 1_555 1_555
H14 C13 1_555 1_555
C14 C13 1_555 1_555
C15 C14 1_555 1_555
H15 C15 1_555 1_555
C16 C11 1_555 1_555
H16 C16 1_555 1_555
C17 C14 1_555 1_555
H17 C17 1_555 1_555
H18 C17 1_555 1_555
C18 O4 1_555 1_555
O7 Ca1 1_555 1_555
H19 O7 1_555 1_555
H20 O7 1_555 1_555
O8 Ca1 1_555 1_555
H21 O8 1_555 1_555
H22 O8 1_555 1_555
O9 H23 1_555 1_555
H24 O9 1_555 1_555
Ca1_2 O2 1_555 1_555
Ca1A O1 1_555 1_555
O1A Ca1 1_555 1_555
O2_2 Ca1 1_555 1_555
O2A Ca1 1_555 1_555
O2 Ca1A 1_555 1_555
C6 C7 1_555 1_555
O5 C18 1_555 1_555
C15 C16 1_555 1_555
C17 C18 1_555 1_555
Ca1A O2A 1_555 1_555

#END
