
#######################################################################
#
#                 Cambridge Crystallographic Data Centre
#                                CCDC 
#
#######################################################################
#
# If this CIF has been generated from an entry in the Cambridge 
# Structural Database, then it will include bibliographic, chemical, 
# crystal, experimental, refinement or atomic coordinate data resulting 
# from the CCDC's data processing and validation procedures.
#
#######################################################################

data_INICLA10
_symmetry_cell_setting           monoclinic
_symmetry_space_group_name_H-M   'P 21/c'
_symmetry_Int_Tables_number      14
_space_group_name_Hall           '-P 2ybc'
loop_
_symmetry_equiv_pos_site_id
_symmetry_equiv_pos_as_xyz
1 x,y,z
2 -x,1/2+y,1/2-z
3 -x,-y,-z
4 x,1/2-y,1/2+z
_cell_length_a                   9.744(3)
_cell_length_b                   19.908(9)
_cell_length_c                   11.607(4)
_cell_angle_alpha                90
_cell_angle_beta                 68.20(2)
_cell_angle_gamma                90
_cell_volume                     2090.55
loop_
_atom_site_label
_atom_site_type_symbol
_atom_site_fract_x
_atom_site_fract_y
_atom_site_fract_z
C1 C 0.58240 0.33940 0.30620
C2 C 0.19240 0.47970 0.13000
C3 C 0.05480 0.29160 0.43310
C4 C 0.68500 0.30530 0.31300
C5 C 0.31720 0.44260 0.11870
C6 C 0.15300 0.25710 0.45900
C7 C 0.71300 0.23910 0.26600
C8 C 0.41600 0.43000 0.00090
C9 C 0.19000 0.19110 0.41500
C10 C 0.54200 0.24510 0.19600
C11 C 0.17300 0.50620 0.02540
C12 C 0.06600 0.19770 0.30400
C13 C 0.50700 0.31150 0.23900
C14 C 0.28390 0.49140 -0.09000
C15 C 0.00200 0.26040 0.36200
C16 C 0.00930 0.36220 0.48290
C17 C 0.07040 0.49170 0.25700
C18 C 0.54160 0.40800 0.36040
La1 La 0.21820 0.49940 0.51010
N1 N 0.65000 0.21060 0.21000
N2 N 0.40250 0.45480 -0.10460
N3 N 0.15100 0.16480 0.33000
O1 O 0.08590 0.38980 0.53330
O2 O -0.10530 0.38510 0.47210
O3 O 0.10560 0.49030 0.35110
O4 O -0.05640 0.49970 0.26100
O5 O 0.42410 0.43420 0.35980
O6 O 0.62470 0.43560 0.40610
O7 O 0.28670 0.57600 0.33540
O8 O 0.32220 0.41620 0.63060
O2B O 0.10530 0.61490 0.52790
O3B O -0.10560 0.50970 0.64890
O4B O 0.05640 0.50030 0.73900
O6B O 0.37530 0.56440 0.59390
La1B La -0.21820 0.50060 0.48990
La1B_2 La 0.78180 0.50060 0.48990
loop_
_geom_bond_atom_site_label_1
_geom_bond_atom_site_label_2
_geom_bond_site_symmetry_1
_geom_bond_site_symmetry_2
C1 C4 1_555 1_555
C2 C5 1_555 1_555
C3 C6 1_555 1_555
C4 C7 1_555 1_555
C5 C8 1_555 1_555
C6 C9 1_555 1_555
C7 N1 1_555 1_555
C8 N2 1_555 1_555
C9 N3 1_555 1_555
C10 C13 1_555 1_555
C11 C2 1_555 1_555
C12 C15 1_555 1_555
C13 C1 1_555 1_555
C14 C11 1_555 1_555
C15 C3 1_555 1_555
C16 C3 1_555 1_555
C17 C2 1_555 1_555
C18 C1 1_555 1_555
La1 O1 1_555 1_555
N1 C10 1_555 1_555
N2 C14 1_555 1_555
N3 C12 1_555 1_555
O1 C16 1_555 1_555
O2 C16 1_555 1_555
O3 C17 1_555 1_555
O4 C17 1_555 1_555
O5 C18 1_555 1_555
O6 C18 1_555 1_555
O7 La1 1_555 1_555
O8 La1 1_555 1_555
O2B La1 1_555 1_555
O3B La1 1_555 1_555
O4B La1 1_555 1_555
O6B La1 1_555 1_555
La1B O2 1_555 1_555
La1B_2 O6 1_555 1_555
La1 O3 1_555 1_555
La1 O5 1_555 1_555
O3 La1B 1_555 1_555
O4 La1B 1_555 1_555
O3B La1B 1_555 1_555

#END
