
#######################################################################
#
#                 Cambridge Crystallographic Data Centre
#                                CCDC 
#
#######################################################################
#
# If this CIF has been generated from an entry in the Cambridge 
# Structural Database, then it will include bibliographic, chemical, 
# crystal, experimental, refinement or atomic coordinate data resulting 
# from the CCDC's data processing and validation procedures.
#
#######################################################################

data_INIROM
_symmetry_cell_setting           monoclinic
_symmetry_space_group_name_H-M   'P 21/c'
_symmetry_Int_Tables_number      14
_space_group_name_Hall           '-P 2ybc'
loop_
_symmetry_equiv_pos_site_id
_symmetry_equiv_pos_as_xyz
1 x,y,z
2 x,1/2-y,1/2+z
3 -x,-y,-z
4 -x,1/2+y,1/2-z
_cell_length_a                   15.512(3)
_cell_length_b                   4.8857(9)
_cell_length_c                   9.365(2)
_cell_angle_alpha                90
_cell_angle_beta                 99.979(3)
_cell_angle_gamma                90
_cell_volume                     699.008
loop_
_atom_site_label
_atom_site_type_symbol
_atom_site_fract_x
_atom_site_fract_y
_atom_site_fract_z
Co1 Co 0.5000 0.5000 1.0000
O1 O 0.4632(1) 0.7575(3) 0.8277(1)
O2 O 0.4057(1) 0.7633(3) 0.5923(2)
O3 O 0.3972(1) 0.2764(3) 0.8744(2)
C1 C 0.4145(1) 0.6587(4) 0.7153(2)
C2 C 0.3622(1) 0.3980(5) 0.7349(2)
C3 C 0.2656(2) 0.4557(5) 0.7225(3)
C4 C 0.2351(2) 0.6466(6) 0.8127(3)
C5 C 0.1456(2) 0.6868(7) 0.8042(4)
C6 C 0.0869(2) 0.5403(7) 0.7062(5)
C7 C 0.1162(2) 0.3523(9) 0.6169(4)
C8 C 0.2059(2) 0.3085(6) 0.6249(3)
H1 H 0.3700 0.2718 0.6610
H2 H 0.2754 0.7492 0.8798
H3 H 0.1249 0.8159 0.8662
H4 H 0.0258 0.5695 0.7003
H5 H 0.0754 0.2517 0.5495
H6 H 0.2260 0.1774 0.5633
O1B O 0.5368(1) 0.2425(3) 1.1723(1)
O2B O 0.5943(1) 0.2367(3) 1.4077(2)
O3B O 0.6028(1) 0.7236(3) 1.1256(2)
C1B C 0.5855(1) 0.3413(4) 1.2847(2)
C2B C 0.6378(1) 0.6020(5) 1.2651(2)
C3B C 0.7344(2) 0.5443(5) 1.2775(3)
C4B C 0.7649(2) 0.3534(6) 1.1873(3)
C5B C 0.8544(2) 0.3132(7) 1.1958(4)
C6B C 0.9131(2) 0.4597(7) 1.2938(5)
C7B C 0.8838(2) 0.6477(9) 1.3831(4)
C8B C 0.7941(2) 0.6915(6) 1.3751(3)
H1B H 0.6300 0.7282 1.3390
H2B H 0.7246 0.2508 1.1202
H3B H 0.8751 0.1841 1.1338
H4B H 0.9742 0.4305 1.2997
H5B H 0.9246 0.7483 1.4505
H6B H 0.7740 0.8226 1.4367
O2A O 0.4057(1) 0.7367(3) 1.0923(2)
O2C O 0.5943(1) 0.2633(3) 0.9077(2)
Co1A Co 0.5000 1.0000 0.5000
Co1A_2 Co 0.5000 0.0000 1.5000
loop_
_geom_bond_atom_site_label_1
_geom_bond_atom_site_label_2
_geom_bond_site_symmetry_1
_geom_bond_site_symmetry_2
Co1 O1 1_555 1_555
O1 C1 1_555 1_555
O2 C1 1_555 1_555
O3 Co1 1_555 1_555
C1 C2 1_555 1_555
C2 O3 1_555 1_555
C3 C2 1_555 1_555
C4 C3 1_555 1_555
C5 C4 1_555 1_555
C6 C5 1_555 1_555
C7 C6 1_555 1_555
C8 C3 1_555 1_555
H1 C2 1_555 1_555
H2 C4 1_555 1_555
H3 C5 1_555 1_555
H4 C6 1_555 1_555
H5 C7 1_555 1_555
H6 C8 1_555 1_555
O1B Co1 1_555 1_555
O2B C1B 1_555 1_555
O3B Co1 1_555 1_555
C1B O1B 1_555 1_555
C2B O3B 1_555 1_555
C3B C2B 1_555 1_555
C4B C3B 1_555 1_555
C5B C4B 1_555 1_555
C6B C5B 1_555 1_555
C7B C6B 1_555 1_555
C8B C3B 1_555 1_555
H1B C2B 1_555 1_555
H2B C4B 1_555 1_555
H3B C5B 1_555 1_555
H4B C6B 1_555 1_555
H5B C7B 1_555 1_555
H6B C8B 1_555 1_555
O2A Co1 1_555 1_555
O2C Co1 1_555 1_555
Co1A O2 1_555 1_555
Co1A_2 O2B 1_555 1_555
C7 C8 1_555 1_555
C1B C2B 1_555 1_555
C7B C8B 1_555 1_555

#END
