
#######################################################################
#
#                 Cambridge Crystallographic Data Centre
#                                CCDC 
#
#######################################################################
#
# If this CIF has been generated from an entry in the Cambridge 
# Structural Database, then it will include bibliographic, chemical, 
# crystal, experimental, refinement or atomic coordinate data resulting 
# from the CCDC's data processing and validation procedures.
#
#######################################################################

data_INIYEJ
_symmetry_cell_setting           monoclinic
_symmetry_space_group_name_H-M   'P 21/n'
_symmetry_Int_Tables_number      14
_space_group_name_Hall           '-P 2yn'
loop_
_symmetry_equiv_pos_site_id
_symmetry_equiv_pos_as_xyz
1 x,y,z
2 1/2+x,1/2-y,1/2+z
3 -x,-y,-z
4 1/2-x,1/2+y,1/2-z
_cell_length_a                   7.2794(7)
_cell_length_b                   12.5009(12)
_cell_length_c                   14.4436(14)
_cell_angle_alpha                90
_cell_angle_beta                 104.021(2)
_cell_angle_gamma                90
_cell_volume                     1275.2
loop_
_atom_site_label
_atom_site_type_symbol
_atom_site_fract_x
_atom_site_fract_y
_atom_site_fract_z
Cu1 Cu 0.12671(5) 0.51437(3) 0.28264(2)
O1 O 0.4480(3) 0.4500(2) 0.24253(15)
O2 O 0.2239(3) 0.56356(19) 0.17381(14)
O3 O 0.9161(3) 0.44152(18) 0.19560(14)
O4 O 0.8016(3) 0.59946(19) 0.22122(15)
N1 N 0.1225(3) 0.4282(2) 0.39770(16)
N2 N 0.2687(3) 0.6143(2) 0.38029(16)
C1 C 0.0426(4) 0.3322(3) 0.3988(2)
H1 H -0.0242 0.3022 0.3416
C2 C 0.0567(4) 0.2764(3) 0.4827(2)
H2 H 0.0002 0.2096 0.4819
C3 C 0.1547(4) 0.3203(3) 0.5674(2)
H3 H 0.1661 0.2834 0.6244
C4 C 0.2364(4) 0.4200(2) 0.5671(2)
H4 H 0.3016 0.4517 0.6238
C5 C 0.2193(4) 0.4722(2) 0.4807(2)
C6 C 0.2981(4) 0.5794(2) 0.47109(18)
C7 C 0.3906(4) 0.6431(2) 0.5471(2)
H5 H 0.4128 0.6180 0.6094
C8 C 0.4487(4) 0.7443(3) 0.5284(2)
H6 H 0.5097 0.7885 0.5782
C9 C 0.4154(5) 0.7792(3) 0.4349(2)
H7 H 0.4526 0.8473 0.4211
C10 C 0.3270(4) 0.7120(3) 0.3631(2)
H8 H 0.3069 0.7351 0.3003
C11 C 0.7911(4) 0.5153(2) 0.17650(19)
C12 C 0.6350(4) 0.5008(2) 0.08769(19)
C13 C 0.3111(4) 0.5072(2) -0.00192(19)
H9 H 0.1830 0.5123 -0.0033
C14 C 0.4422(4) 0.5076(2) 0.08563(19)
C15 C 0.3708(4) 0.5075(2) 0.1755(2)
C13B C 0.6889(4) 0.4928(2) 0.00192(19)
H9B H 0.8170 0.4877 0.0033
C14B C 0.5578(4) 0.4924(2) -0.08563(19)
C12B C 0.3650(4) 0.4992(2) -0.08769(19)
C11B C 0.2089(4) 0.4847(2) -0.17650(19)
O3B O 0.0839(3) 0.55848(18) -0.19560(14)
O4B O 0.1984(3) 0.40054(19) -0.22122(15)
C15B C 0.6292(4) 0.4925(2) -0.1755(2)
O1B O 0.5520(3) 0.5500(2) -0.24253(15)
O2B O 0.7761(3) 0.43644(19) -0.17381(14)
Cu1B Cu 0.87329(5) 0.48563(3) -0.28264(2)
N1B N 0.8775(3) 0.5718(2) -0.39770(16)
N2B N 0.7313(3) 0.3857(2) -0.38029(16)
C1B C 0.9574(4) 0.6678(3) -0.3988(2)
H1B H 1.0242 0.6978 -0.3416
C2B C 0.9433(4) 0.7236(3) -0.4827(2)
H2B H 0.9998 0.7904 -0.4819
C3B C 0.8453(4) 0.6797(3) -0.5674(2)
H3B H 0.8339 0.7166 -0.6244
C4B C 0.7636(4) 0.5800(2) -0.5671(2)
H4B H 0.6984 0.5483 -0.6238
C5B C 0.7807(4) 0.5278(2) -0.4807(2)
C6B C 0.7019(4) 0.4206(2) -0.47109(18)
C7B C 0.6094(4) 0.3569(2) -0.5471(2)
H5B H 0.5872 0.3820 -0.6094
C8B C 0.5513(4) 0.2557(3) -0.5284(2)
H6B H 0.4903 0.2115 -0.5782
C9B C 0.5846(5) 0.2208(3) -0.4349(2)
H7B H 0.5474 0.1527 -0.4211
C10B C 0.6730(4) 0.2880(3) -0.3631(2)
H8B H 0.6931 0.2649 -0.3003
O3_2 O -0.0839(3) 0.44152(18) 0.19560(14)
Cu1_2 Cu 1.12671(5) 0.51437(3) 0.28264(2)
Cu1B_2 Cu -0.12671(5) 0.48563(3) -0.28264(2)
O3B_2 O 1.0839(3) 0.55848(18) -0.19560(14)
loop_
_geom_bond_atom_site_label_1
_geom_bond_atom_site_label_2
_geom_bond_site_symmetry_1
_geom_bond_site_symmetry_2
Cu1 O2 1_555 1_555
O1 C15 1_555 1_555
O2 C15 1_555 1_555
O3 C11 1_555 1_555
O4 C11 1_555 1_555
N1 Cu1 1_555 1_555
N2 Cu1 1_555 1_555
C1 N1 1_555 1_555
H1 C1 1_555 1_555
C2 C1 1_555 1_555
H2 C2 1_555 1_555
C3 C2 1_555 1_555
H3 C3 1_555 1_555
C4 C3 1_555 1_555
H4 C4 1_555 1_555
C5 N1 1_555 1_555
C6 N2 1_555 1_555
C7 C6 1_555 1_555
H5 C7 1_555 1_555
C8 C7 1_555 1_555
H6 C8 1_555 1_555
C9 C8 1_555 1_555
H7 C9 1_555 1_555
C10 N2 1_555 1_555
H8 C10 1_555 1_555
C11 C12 1_555 1_555
C12 C14 1_555 1_555
C13 H9 1_555 1_555
C14 C13 1_555 1_555
C15 C14 1_555 1_555
C13B C12 1_555 1_555
H9B C13B 1_555 1_555
C14B C13B 1_555 1_555
C12B C13 1_555 1_555
C11B C12B 1_555 1_555
O3B C11B 1_555 1_555
O4B C11B 1_555 1_555
C15B C14B 1_555 1_555
O1B C15B 1_555 1_555
O2B C15B 1_555 1_555
Cu1B O2B 1_555 1_555
N1B Cu1B 1_555 1_555
N2B Cu1B 1_555 1_555
C1B N1B 1_555 1_555
H1B C1B 1_555 1_555
C2B C1B 1_555 1_555
H2B C2B 1_555 1_555
C3B C2B 1_555 1_555
H3B C3B 1_555 1_555
C4B C3B 1_555 1_555
H4B C4B 1_555 1_555
C5B N1B 1_555 1_555
C6B N2B 1_555 1_555
C7B C6B 1_555 1_555
H5B C7B 1_555 1_555
C8B C7B 1_555 1_555
H6B C8B 1_555 1_555
C9B C8B 1_555 1_555
H7B C9B 1_555 1_555
C10B N2B 1_555 1_555
H8B C10B 1_555 1_555
O3_2 Cu1 1_555 1_555
Cu1_2 O3 1_555 1_555
Cu1B_2 O3B 1_555 1_555
O3B_2 Cu1B 1_555 1_555
C4 C5 1_555 1_555
C5 C6 1_555 1_555
C9 C10 1_555 1_555
C14B C12B 1_555 1_555
C4B C5B 1_555 1_555
C5B C6B 1_555 1_555
C9B C10B 1_555 1_555

#END
