
#######################################################################
#
#                 Cambridge Crystallographic Data Centre
#                                CCDC 
#
#######################################################################
#
# If this CIF has been generated from an entry in the Cambridge 
# Structural Database, then it will include bibliographic, chemical, 
# crystal, experimental, refinement or atomic coordinate data resulting 
# from the CCDC's data processing and validation procedures.
#
#######################################################################

data_INIZOV
_symmetry_cell_setting           triclinic
_symmetry_space_group_name_H-M   'P -1'
_symmetry_Int_Tables_number      2
_space_group_name_Hall           '-P 1'
loop_
_symmetry_equiv_pos_site_id
_symmetry_equiv_pos_as_xyz
1 x,y,z
2 -x,-y,-z
_cell_length_a                   8.5840(10)
_cell_length_b                   9.7963(11)
_cell_length_c                   13.2390(14)
_cell_angle_alpha                91.5130(10)
_cell_angle_beta                 97.7130(10)
_cell_angle_gamma                110.4150(10)
_cell_volume                     1030.7
loop_
_atom_site_label
_atom_site_type_symbol
_atom_site_fract_x
_atom_site_fract_y
_atom_site_fract_z
O5 O 0.520(9) 0.564(6) 1.015(6)
O5A O 0.480(9) 0.436(6) 0.985(6)
Pb1 Pb 0.68030(2) 0.02206(2) 0.167301(12)
O1 O 0.8129(5) -0.1545(6) 0.0868(3)
O2 O 0.8717(5) -0.0937(5) 0.2525(3)
O3 O 1.4141(5) -0.1414(5) 0.0478(3)
O4 O 1.4690(4) -0.1975(4) 0.2050(2)
N1 N 0.6853(5) 0.0855(5) 0.3608(3)
N2 N 0.4509(6) 0.1242(5) 0.2143(3)
N3 N 0.4497(5) 0.3135(5) 0.6081(3)
H1 H 0.4935 0.3192 0.6658
N4 N 0.2678(6) 0.3561(6) 0.4872(3)
N5 N 0.0796(9) 0.5642(7) 0.6993(6)
C1 C 0.8029(7) 0.0705(7) 0.4317(4)
H2 H 0.8771 0.0293 0.4108
C2 C 0.8210(7) 0.1128(7) 0.5351(4)
H3 H 0.9049 0.0999 0.5818
C3 C 0.7125(6) 0.1737(7) 0.5665(4)
H4 H 0.7209 0.2017 0.6353
C4 C 0.5887(6) 0.1937(6) 0.4944(3)
C5 C 0.4718(6) 0.2590(6) 0.5174(4)
C6 C 0.3582(6) 0.2847(6) 0.4437(4)
C7 C 0.3453(6) 0.2402(6) 0.3389(4)
C8 C 0.2327(7) 0.2622(8) 0.2599(4)
H5 H 0.1587 0.3077 0.2744
C9 C 0.2318(7) 0.2168(8) 0.1617(4)
H6 H 0.1579 0.2314 0.1088
C10 C 0.3432(7) 0.1478(7) 0.1414(4)
H7 H 0.3418 0.1172 0.0741
C11 C 0.4546(6) 0.1703(6) 0.3130(3)
C12 C 0.5784(6) 0.1479(6) 0.3909(3)
C13 C 0.3252(6) 0.3708(6) 0.5858(4)
C14 C 0.2700(7) 0.4470(6) 0.6624(4)
C15 C 0.1365(9) 0.4944(8) 0.6308(6)
H8 H 0.0864 0.4781 0.5626
C16 C 0.1589(9) 0.5893(7) 0.7963(6)
H9 H 0.1217 0.6390 0.8429
C17 C 0.2871(8) 0.5478(7) 0.8298(5)
H10 H 0.3374 0.5687 0.8979
C18 C 0.3441(8) 0.4744(7) 0.7635(4)
H11 H 0.4323 0.4430 0.7863
C19 C 0.8994(6) -0.1484(6) 0.1717(4)
C20 C 1.0416(6) -0.2042(6) 0.1821(4)
H12 H 1.0267 -0.2716 0.2354
H13 H 1.1455 -0.1226 0.2043
C21 C 1.0603(6) -0.2815(7) 0.0850(4)
H14 H 1.0827 -0.2133 0.0324
H15 H 0.9557 -0.3612 0.0605
C22 C 1.2045(6) -0.3419(6) 0.1050(4)
H16 H 1.1937 -0.3950 0.1660
H17 H 1.1963 -0.4095 0.0479
C23 C 1.3729(6) -0.2210(6) 0.1185(4)
Pb1_2 Pb 1.68030(2) 0.02206(2) 0.167301(12)
O3_2 O 0.4141(5) -0.1414(5) 0.0478(3)
O4_2 O 0.4690(4) -0.1975(4) 0.2050(2)
loop_
_geom_bond_atom_site_label_1
_geom_bond_atom_site_label_2
_geom_bond_site_symmetry_1
_geom_bond_site_symmetry_2
Pb1 O1 1_555 1_555
O1 C19 1_555 1_555
O2 Pb1 1_555 1_555
O3 C23 1_555 1_555
O4 C23 1_555 1_555
N1 Pb1 1_555 1_555
N2 Pb1 1_555 1_555
N3 H1 1_555 1_555
N4 C6 1_555 1_555
N5 C15 1_555 1_555
C1 N1 1_555 1_555
H2 C1 1_555 1_555
C2 C1 1_555 1_555
H3 C2 1_555 1_555
C3 C2 1_555 1_555
H4 C3 1_555 1_555
C4 C3 1_555 1_555
C5 N3 1_555 1_555
C6 C5 1_555 1_555
C7 C6 1_555 1_555
C8 C7 1_555 1_555
H5 C8 1_555 1_555
C9 C8 1_555 1_555
H6 C9 1_555 1_555
C10 N2 1_555 1_555
H7 C10 1_555 1_555
C11 N2 1_555 1_555
C12 N1 1_555 1_555
C13 N3 1_555 1_555
C14 C13 1_555 1_555
C15 C14 1_555 1_555
H8 C15 1_555 1_555
C16 N5 1_555 1_555
H9 C16 1_555 1_555
C17 C16 1_555 1_555
H10 C17 1_555 1_555
C18 C14 1_555 1_555
H11 C18 1_555 1_555
C19 O2 1_555 1_555
C20 C19 1_555 1_555
H12 C20 1_555 1_555
H13 C20 1_555 1_555
C21 C20 1_555 1_555
H14 C21 1_555 1_555
H15 C21 1_555 1_555
C22 C21 1_555 1_555
H16 C22 1_555 1_555
H17 C22 1_555 1_555
C23 C22 1_555 1_555
O5 O5A 1_555 1_555
Pb1_2 O3 1_555 1_555
O3_2 Pb1 1_555 1_555
O4_2 Pb1 1_555 1_555
O4 Pb1_2 1_555 1_555
N4 C13 1_555 1_555
C4 C5 1_555 1_555
C4 C12 1_555 1_555
C7 C11 1_555 1_555
C9 C10 1_555 1_555
C11 C12 1_555 1_555
C17 C18 1_555 1_555

#END
