
#######################################################################
#
#                 Cambridge Crystallographic Data Centre
#                                CCDC 
#
#######################################################################
#
# If this CIF has been generated from an entry in the Cambridge 
# Structural Database, then it will include bibliographic, chemical, 
# crystal, experimental, refinement or atomic coordinate data resulting 
# from the CCDC's data processing and validation procedures.
#
#######################################################################

data_INODEV
_symmetry_cell_setting           orthorhombic
_symmetry_space_group_name_H-M   'P b c a'
_symmetry_Int_Tables_number      61
_space_group_name_Hall           '-P 2ac 2ab'
loop_
_symmetry_equiv_pos_site_id
_symmetry_equiv_pos_as_xyz
1 x,y,z
2 1/2-x,-y,1/2+z
3 -x,1/2+y,1/2-z
4 1/2+x,1/2-y,-z
5 -x,-y,-z
6 1/2+x,y,1/2-z
7 x,1/2-y,1/2+z
8 1/2-x,1/2+y,z
_cell_length_a                   19.3385(14)
_cell_length_b                   8.2962(6)
_cell_length_c                   21.9447(17)
_cell_angle_alpha                90
_cell_angle_beta                 90
_cell_angle_gamma                90
_cell_volume                     3520.72
loop_
_atom_site_label
_atom_site_type_symbol
_atom_site_fract_x
_atom_site_fract_y
_atom_site_fract_z
Cu1 Cu 0.322750(18) -0.15949(5) 0.188100(16)
O1 O 0.35935(11) -0.0241(3) 0.01614(9)
O2 O 0.15259(9) -0.3943(3) 0.23229(10)
N1 N 0.30429(11) -0.1053(3) 0.10474(11)
N2 N 0.42192(11) -0.1761(3) 0.15802(11)
N3 N 0.31978(12) -0.2547(3) 0.27132(11)
N4 N 0.22357(12) -0.1933(3) 0.19233(11)
C1 C 0.23108(14) -0.0656(4) 0.09361(13)
H1 H 0.2239 0.0441 0.1089
C2 C 0.20373(16) -0.0682(4) 0.02876(14)
H2 H 0.2305 0.0052 0.0037
H3 H 0.2085 -0.1758 0.0119
C3 C 0.12823(16) -0.0188(4) 0.02792(15)
H4 H 0.1249 0.0944 0.0385
H5 H 0.1105 -0.0315 -0.0131
C4 C 0.08351(16) -0.1154(5) 0.07122(15)
H6 H 0.0793 -0.2249 0.0563
H7 H 0.0376 -0.0686 0.0726
C5 C 0.11375(15) -0.1181(4) 0.13501(15)
H8 H 0.1121 -0.0105 0.1523
H9 H 0.0864 -0.1886 0.1607
C6 C 0.18758(14) -0.1767(4) 0.13362(13)
H10 H 0.1874 -0.2831 0.1143
C7 C 0.35725(15) -0.0784(4) 0.06852(14)
C8 C 0.42412(15) -0.1302(3) 0.09869(14)
C9 C 0.48613(15) -0.1332(4) 0.06640(15)
H11 H 0.4871 -0.1046 0.0254
C10 C 0.54552(16) -0.1783(4) 0.09536(17)
H12 H 0.5876 -0.1768 0.0748
C11 C 0.54235(17) -0.2257(4) 0.15479(16)
H13 H 0.5826 -0.2578 0.1746
C12 C 0.48065(15) -0.2271(4) 0.18600(15)
C13 C 0.47588(16) -0.2907(4) 0.24904(14)
H14 H 0.5225 -0.3081 0.2639
H15 H 0.4534 -0.3952 0.2473
C14 C 0.43696(15) -0.1863(4) 0.29652(14)
H16 H 0.4655 -0.1756 0.3327
H17 H 0.4300 -0.0793 0.2798
C15 C 0.36937(16) -0.2541(4) 0.31408(15)
C16 C 0.35629(17) -0.3226(4) 0.37054(15)
H18 H 0.3906 -0.3228 0.4003
C17 C 0.29289(18) -0.3904(5) 0.38288(16)
H19 H 0.2841 -0.4363 0.4208
C18 C 0.24221(18) -0.3895(4) 0.33803(15)
H20 H 0.1993 -0.4371 0.3448
C19 C 0.25715(15) -0.3169(4) 0.28385(14)
C20 C 0.20481(15) -0.3033(4) 0.23194(14)
Cu1G Cu 0.177250(18) -0.65949(5) 0.188100(16)
O2G O 0.34741(9) 0.1057(3) 0.23229(10)
loop_
_geom_bond_atom_site_label_1
_geom_bond_atom_site_label_2
_geom_bond_site_symmetry_1
_geom_bond_site_symmetry_2
Cu1 N1 1_555 1_555
O1 C7 1_555 1_555
O2 C20 1_555 1_555
N1 C1 1_555 1_555
N2 Cu1 1_555 1_555
N3 Cu1 1_555 1_555
N4 Cu1 1_555 1_555
C1 H1 1_555 1_555
C2 C1 1_555 1_555
H2 C2 1_555 1_555
H3 C2 1_555 1_555
C3 C2 1_555 1_555
H4 C3 1_555 1_555
H5 C3 1_555 1_555
C4 C3 1_555 1_555
H6 C4 1_555 1_555
H7 C4 1_555 1_555
C5 C4 1_555 1_555
H8 C5 1_555 1_555
H9 C5 1_555 1_555
C6 N4 1_555 1_555
H10 C6 1_555 1_555
C7 N1 1_555 1_555
C8 N2 1_555 1_555
C9 C8 1_555 1_555
H11 C9 1_555 1_555
C10 C9 1_555 1_555
H12 C10 1_555 1_555
C11 C10 1_555 1_555
H13 C11 1_555 1_555
C12 N2 1_555 1_555
C13 C12 1_555 1_555
H14 C13 1_555 1_555
H15 C13 1_555 1_555
C14 C13 1_555 1_555
H16 C14 1_555 1_555
H17 C14 1_555 1_555
C15 N3 1_555 1_555
C16 C15 1_555 1_555
H18 C16 1_555 1_555
C17 C16 1_555 1_555
H19 C17 1_555 1_555
C18 C17 1_555 1_555
H20 C18 1_555 1_555
C19 N3 1_555 1_555
C20 N4 1_555 1_555
Cu1G O2 1_555 1_555
O2G Cu1 1_555 1_555
C1 C6 1_555 1_555
C5 C6 1_555 1_555
C7 C8 1_555 1_555
C11 C12 1_555 1_555
C14 C15 1_555 1_555
C18 C19 1_555 1_555
C19 C20 1_555 1_555

#END
