
#######################################################################
#
#                 Cambridge Crystallographic Data Centre
#                                CCDC 
#
#######################################################################
#
# If this CIF has been generated from an entry in the Cambridge 
# Structural Database, then it will include bibliographic, chemical, 
# crystal, experimental, refinement or atomic coordinate data resulting 
# from the CCDC's data processing and validation procedures.
#
#######################################################################

data_INOVEM
_symmetry_cell_setting           monoclinic
_symmetry_space_group_name_H-M   'P 21/c'
_symmetry_Int_Tables_number      14
_space_group_name_Hall           '-P 2ybc'
loop_
_symmetry_equiv_pos_site_id
_symmetry_equiv_pos_as_xyz
1 x,y,z
2 x,1/2-y,1/2+z
3 -x,-y,-z
4 -x,1/2+y,1/2-z
_cell_length_a                   14.739(4)
_cell_length_b                   37.863(9)
_cell_length_c                   19.329(5)
_cell_angle_alpha                90
_cell_angle_beta                 102.324(4)
_cell_angle_gamma                90
_cell_volume                     10538.2
loop_
_atom_site_label
_atom_site_type_symbol
_atom_site_fract_x
_atom_site_fract_y
_atom_site_fract_z
Zn1 Zn 0.45033(5) 0.027356(18) 0.68835(4)
Zn2 Zn 0.77350(5) 0.182988(18) 0.60594(4)
Zn3 Zn 0.21488(5) 0.161910(18) 0.91928(4)
N1 N 0.3266(3) 0.05379(12) 0.6705(2)
N2 N 0.4741(3) 0.03756(12) 0.7949(2)
N3 N 0.5350(4) 0.06788(13) 0.6582(3)
N4 N 0.7418(3) 0.13604(12) 0.5556(2)
N5 N 0.6569(3) 0.18100(12) 0.6466(2)
N6 N 0.8719(3) 0.16580(13) 0.6993(3)
N7 N 1.1598(3) 0.19929(12) 0.8459(2)
N8 N 1.0881(3) 0.13767(12) 0.9105(2)
N9 N 0.2745(3) 0.12490(13) 0.8569(3)
C1 C 0.4759(5) -0.01694(17) 0.6434(4)
H1 H 0.4799 -0.0363 0.6784
H2 H 0.4228 -0.0222 0.6039
C2 C 0.5570(12) -0.0168(3) 0.6173(10)
H3 H 0.5634 -0.0395 0.5943
H4 H 0.6106 -0.0132 0.6564
H5 H 0.5541 0.0023 0.5827
C3 C 0.2110(4) 0.09574(17) 0.6940(3)
H6 H 0.1812 0.0904 0.6448
H7 H 0.2245 0.1211 0.6987
H8 H 0.1692 0.0892 0.7251
C4 C 0.3009(4) 0.07499(15) 0.7148(3)
C5 C 0.3517(4) 0.08099(15) 0.7864(3)
C6 C 0.4300(4) 0.06100(15) 0.8253(3)
C7 C 0.4593(4) 0.06863(17) 0.9031(3)
H9 H 0.5129 0.0539 0.9237
H10 H 0.4079 0.0634 0.9263
H11 H 0.4764 0.0936 0.9100
C8 C 0.2657(4) 0.04541(15) 0.6027(3)
C9 C 0.2100(4) 0.01553(16) 0.6002(3)
C10 C 0.1537(5) 0.00582(18) 0.5352(4)
H12 H 0.1145 -0.0143 0.5319
C11 C 0.1560(5) 0.0259(2) 0.4758(4)
H13 H 0.1185 0.0190 0.4315
C12 C 0.2107(5) 0.05520(19) 0.4789(4)
H14 H 0.2107 0.0684 0.4371
C13 C 0.2666(4) 0.06603(16) 0.5430(3)
C14 C 0.2081(5) -0.00688(17) 0.6644(4)
H15 H 0.2637 -0.0005 0.7018
C15 C 0.2130(6) -0.04620(19) 0.6503(4)
H16 H 0.2695 -0.0514 0.6331
H17 H 0.1585 -0.0533 0.6145
H18 H 0.2141 -0.0593 0.6942
C16 C 0.1228(6) 0.0008(2) 0.6935(4)
H19 H 0.1201 0.0262 0.7034
H20 H 0.1259 -0.0125 0.7373
H21 H 0.0672 -0.0061 0.6586
C17 C 0.3255(4) 0.09903(16) 0.5456(3)
H22 H 0.3622 0.1020 0.5951
C18 C 0.2642(5) 0.13175(17) 0.5261(4)
H23 H 0.2212 0.1338 0.5583
H24 H 0.2287 0.1296 0.4773
H25 H 0.3034 0.1529 0.5303
C19 C 0.3933(5) 0.09590(19) 0.4962(4)
H26 H 0.4329 0.0751 0.5094
H27 H 0.4319 0.1172 0.5003
H28 H 0.3584 0.0934 0.4473
C20 C 0.5433(4) 0.01528(16) 0.8372(3)
C21 C 0.6375(4) 0.02405(17) 0.8496(3)
C22 C 0.7018(5) 0.0003(2) 0.8874(4)
H29 H 0.7659 0.0061 0.8967
C23 C 0.6747(5) -0.0312(2) 0.9113(4)
H30 H 0.7200 -0.0468 0.9370
C24 C 0.5826(5) -0.04018(18) 0.8984(3)
H31 H 0.5644 -0.0621 0.9151
C25 C 0.5159(4) -0.01744(17) 0.8611(3)
C26 C 0.6692(5) 0.0586(2) 0.8245(4)
H32 H 0.6133 0.0709 0.7965
C27 C 0.7377(5) 0.0528(2) 0.7749(4)
H33 H 0.7087 0.0376 0.7353
H34 H 0.7944 0.0415 0.8015
H35 H 0.7534 0.0756 0.7567
C28 C 0.7125(6) 0.0827(2) 0.8865(5)
H36 H 0.6679 0.0864 0.9169
H37 H 0.7285 0.1055 0.8682
H38 H 0.7688 0.0716 0.9141
C29 C 0.4143(5) -0.02848(18) 0.8495(4)
H39 H 0.3770 -0.0110 0.8163
C30 C 0.3780(6) -0.0281(2) 0.9181(5)
H40 H 0.3124 -0.0349 0.9078
H41 H 0.3844 -0.0043 0.9384
H42 H 0.4139 -0.0448 0.9520
C31 C 0.3983(6) -0.0648(2) 0.8151(4)
H43 H 0.3323 -0.0710 0.8080
H44 H 0.4355 -0.0824 0.8460
H45 H 0.4167 -0.0644 0.7693
C32 C 0.5814(4) 0.08974(17) 0.6429(3)
C33 C 0.8261(5) 0.22497(19) 0.5704(4)
H46 H 0.8601 0.2413 0.6033
C34 C 0.8149(8) 0.2314(3) 0.4983(6)
H47 H 0.8458 0.2536 0.4911
H48 H 0.7485 0.2332 0.4767
H49 H 0.8423 0.2120 0.4762
C35 C 0.6850(4) 0.07466(16) 0.5440(3)
H50 H 0.7250 0.0731 0.5096
H51 H 0.6206 0.0696 0.5202
H52 H 0.7054 0.0574 0.5819
C36 C 0.6908(4) 0.11145(15) 0.5750(3)
C37 C 0.6352(4) 0.11848(15) 0.6268(3)
C38 C 0.6134(4) 0.15160(16) 0.6547(3)
C39 C 0.5372(4) 0.15170(16) 0.6952(3)
H53 H 0.5284 0.1757 0.7113
H54 H 0.5539 0.1360 0.7362
H55 H 0.4794 0.1434 0.6644
C40 C 0.7801(4) 0.13094(15) 0.4938(3)
C41 C 0.7230(4) 0.13715(15) 0.4267(3)
C42 C 0.7646(5) 0.13665(18) 0.3680(4)
H56 H 0.7271 0.1403 0.3221
C43 C 0.8583(5) 0.1310(2) 0.3749(4)
H57 H 0.8856 0.1316 0.3346
C44 C 0.9116(5) 0.12440(18) 0.4406(4)
H58 H 0.9759 0.1197 0.4450
C45 C 0.8749(4) 0.12437(17) 0.5010(3)
C46 C 0.6193(5) 0.14367(16) 0.4164(3)
H59 H 0.6032 0.1428 0.4641
C47 C 0.5939(6) 0.18004(18) 0.3855(4)
H60 H 0.5269 0.1838 0.3799
H61 H 0.6107 0.1818 0.3393
H62 H 0.6276 0.1980 0.4175
C48 C 0.5610(5) 0.11603(19) 0.3701(4)
H63 H 0.5762 0.0926 0.3908
H64 H 0.5743 0.1167 0.3226
H65 H 0.4950 0.1210 0.3671
C49 C 0.9375(4) 0.11658(17) 0.5729(4)
H66 H 0.8990 0.1197 0.6093
C50 C 0.9725(5) 0.07835(19) 0.5783(4)
H67 H 0.9194 0.0622 0.5671
H68 H 1.0075 0.0738 0.6265
H69 H 1.0129 0.0746 0.5447
C51 C 1.0174(4) 0.14293(18) 0.5903(4)
H70 H 0.9926 0.1670 0.5866
H71 H 1.0583 0.1399 0.5569
H72 H 1.0527 0.1388 0.6387
C52 C 0.6246(4) 0.21391(15) 0.6701(3)
C53 C 0.6527(4) 0.22419(16) 0.7407(3)
C54 C 0.6167(5) 0.25535(19) 0.7610(4)
H73 H 0.6337 0.2627 0.8090
C55 C 0.5565(5) 0.27602(19) 0.7129(4)
H74 H 0.5320 0.2972 0.7281
C56 C 0.5325(5) 0.26594(18) 0.6435(4)
H75 H 0.4916 0.2805 0.6108
C57 C 0.5659(4) 0.23521(16) 0.6193(3)
C58 C 0.7221(4) 0.20379(18) 0.7955(3)
H76 H 0.7371 0.1815 0.7727
C59 C 0.8123(5) 0.22515(19) 0.8165(4)
H77 H 0.8348 0.2314 0.7739
H78 H 0.8594 0.2109 0.8480
H79 H 0.8004 0.2467 0.8411
C60 C 0.6854(5) 0.19355(19) 0.8609(4)
H80 H 0.6278 0.1800 0.8463
H81 H 0.6730 0.2150 0.8858
H82 H 0.7318 0.1791 0.8924
C61 C 0.5378(4) 0.22446(17) 0.5425(3)
H83 H 0.5877 0.2087 0.5322
C62 C 0.5282(6) 0.25537(18) 0.4911(4)
H84 H 0.5863 0.2688 0.4997
H85 H 0.4775 0.2708 0.4982
H86 H 0.5146 0.2464 0.4424
C63 C 0.4479(5) 0.2028(2) 0.5301(4)
H87 H 0.4558 0.1828 0.5631
H88 H 0.4336 0.1940 0.4813
H89 H 0.3968 0.2178 0.5381
C64 C 0.9377(4) 0.16609(15) 0.7450(3)
C65 C 0.3095(5) 0.17031(17) 1.0065(3)
H90 H 0.3528 0.1886 0.9961
H91 H 0.2779 0.1803 1.0424
C66 C 0.3643(8) 0.1400(3) 1.0378(5)
H92 H 0.4084 0.1475 1.0807
H93 H 0.3984 0.1304 1.0038
H94 H 0.3229 0.1219 1.0500
C67 C 1.0558(4) 0.22150(16) 0.7386(3)
H95 H 1.1051 0.2391 0.7415
H96 H 0.9979 0.2333 0.7424
H97 H 1.0469 0.2091 0.6932
C68 C 1.0831(4) 0.19510(14) 0.7988(3)
C69 C 1.0174(4) 0.16703(15) 0.8011(3)
C70 C 1.0167(4) 0.14262(15) 0.8583(3)
C71 C 0.9271(4) 0.12340(17) 0.8555(3)
H98 H 0.9340 0.1072 0.8958
H99 H 0.9108 0.1100 0.8112
H100 H 0.8778 0.1405 0.8576
C72 C 1.2109(4) 0.23168(15) 0.8454(3)
C73 C 1.2837(4) 0.23341(16) 0.8098(3)
C74 C 1.3304(5) 0.26508(17) 0.8099(4)
H101 H 1.3796 0.2668 0.7853
C75 C 1.3067(5) 0.29454(17) 0.8455(4)
H102 H 1.3393 0.3162 0.8451
C76 C 1.2367(4) 0.29199(18) 0.8805(4)
H103 H 1.2217 0.3122 0.9050
C77 C 1.1853(4) 0.26111(17) 0.8825(3)
C78 C 1.3139(4) 0.20139(17) 0.7727(3)
H104 H 1.2679 0.1822 0.7742
C79 C 1.3146(5) 0.2083(2) 0.6943(4)
H105 H 1.2528 0.2160 0.6694
H106 H 1.3314 0.1866 0.6726
H107 H 1.3602 0.2268 0.6910
C80 C 1.4077(4) 0.18851(18) 0.8138(4)
H108 H 1.4041 0.1838 0.8630
H109 H 1.4548 0.2066 0.8126
H110 H 1.4246 0.1667 0.7922
C81 C 1.1098(5) 0.25975(18) 0.9238(4)
H111 H 1.0808 0.2358 0.9167
C82 C 1.1477(6) 0.2646(2) 1.0030(4)
H112 H 1.1954 0.2467 1.0197
H113 H 1.0972 0.2619 1.0283
H114 H 1.1750 0.2882 1.0118
C83 C 1.0342(5) 0.2867(2) 0.8969(5)
H115 H 1.0100 0.2830 0.8461
H116 H 1.0600 0.3105 0.9049
H117 H 0.9838 0.2838 0.9223
C84 C 1.0818(4) 0.11386(15) 0.9679(3)
C85 C 1.0750(4) 0.12809(17) 1.0332(3)
C86 C 1.0716(4) 0.1045(2) 1.0884(4)
H118 H 1.0677 0.1135 1.1336
C87 C 1.0739(5) 0.06851(19) 1.0780(4)
H119 H 1.0708 0.0530 1.1160
C88 C 1.0806(4) 0.05488(18) 1.0140(4)
H120 H 1.0820 0.0300 1.0080
C89 C 1.0854(4) 0.07707(17) 0.9570(3)
C90 C 1.0688(5) 0.16736(17) 1.0430(3)
H121 H 1.1054 0.1791 1.0115
C91 C 1.1079(6) 0.1797(2) 1.1195(4)
H122 H 1.1730 0.1724 1.1341
H123 H 1.0718 0.1690 1.1512
H124 H 1.1037 0.2055 1.1219
C92 C 0.9675(5) 0.1799(2) 1.0206(4)
H125 H 0.9418 0.1724 0.9718
H126 H 0.9654 0.2058 1.0234
H127 H 0.9308 0.1696 1.0522
C93 C 1.0963(4) 0.06012(17) 0.8880(3)
H128 H 1.0948 0.0793 0.8523
C94 C 1.0182(5) 0.03410(19) 0.8585(4)
H129 H 0.9581 0.0461 0.8529
H130 H 1.0206 0.0142 0.8912
H131 H 1.0258 0.0254 0.8123
C95 C 1.1903(5) 0.04122(17) 0.8976(4)
H132 H 1.2404 0.0580 0.9156
H133 H 1.1978 0.0318 0.8519
H134 H 1.1926 0.0218 0.9314
C96 C 0.3109(4) 0.10515(17) 0.8258(3)
N7_2 N 0.1598(3) 0.19929(12) 0.8459(2)
N8_2 N 0.0881(3) 0.13767(12) 0.9105(2)
Zn3_2 Zn 1.21488(5) 0.161910(18) 0.91928(4)
C97 C 0.1768(6) 0.1173(2) 0.2884(4)
H135 H 0.2003 0.1408 0.2902
C98 C 0.0948(6) 0.1114(2) 0.3093(3)
H136 H 0.0622 0.1301 0.3259
C99 C 0.0615(6) 0.0773(2) 0.3055(4)
H137 H 0.0048 0.0725 0.3196
C100 C 0.1080(7) 0.0502(2) 0.2819(4)
H138 H 0.0832 0.0270 0.2789
C101 C 0.1905(7) 0.0568(2) 0.2626(4)
H139 H 0.2236 0.0378 0.2473
C102 C 0.2266(6) 0.0907(3) 0.2648(4)
C103 C 0.3146(7) 0.0987(3) 0.2396(6)
H140 H 0.3278 0.1240 0.2444
H141 H 0.3067 0.0917 0.1899
H142 H 0.3663 0.0854 0.2683
C104 C 0.1357(7) -0.1321(3) 0.8302(6)
H143 H 0.0785 -0.1277 0.7979
C105 C 0.1731(10) -0.1091(5) 0.8761(7)
H144 H 0.1459 -0.0866 0.8794
C106 C 0.2526(11) -0.1188(5) 0.9188(8)
H145 H 0.2724 -0.1003 0.9518
C107 C 0.321(2) -0.1474(6) 0.9334(14)
H146 H 0.3780 -0.1497 0.9666
C108 C 0.2740(9) -0.1691(5) 0.8841(8)
H147 H 0.3028 -0.1915 0.8828
C109 C 0.1850(13) -0.1649(4) 0.8303(7)
C110 C 0.1561(13) -0.1885(4) 0.7950(9)
H148 H 0.2011 -0.2079 0.8033
H149 H 0.1449 -0.1813 0.7452
H150 H 0.0977 -0.1963 0.8065
loop_
_geom_bond_atom_site_label_1
_geom_bond_atom_site_label_2
_geom_bond_site_symmetry_1
_geom_bond_site_symmetry_2
Zn1 N1 1_555 1_555
Zn2 N4 1_555 1_555
Zn3 N9 1_555 1_555
N1 C4 1_555 1_555
N2 Zn1 1_555 1_555
N3 Zn1 1_555 1_555
N4 C36 1_555 1_555
N5 Zn2 1_555 1_555
N6 Zn2 1_555 1_555
N7 C68 1_555 1_555
N8 C70 1_555 1_555
N9 C96 1_555 1_555
C1 Zn1 1_555 1_555
H1 C1 1_555 1_555
H2 C1 1_555 1_555
C2 C1 1_555 1_555
H3 C2 1_555 1_555
H4 C2 1_555 1_555
H5 C2 1_555 1_555
C3 H6 1_555 1_555
H7 C3 1_555 1_555
H8 C3 1_555 1_555
C4 C3 1_555 1_555
C5 C4 1_555 1_555
C6 N2 1_555 1_555
C7 C6 1_555 1_555
H9 C7 1_555 1_555
H10 C7 1_555 1_555
H11 C7 1_555 1_555
C8 N1 1_555 1_555
C9 C8 1_555 1_555
C10 C9 1_555 1_555
H12 C10 1_555 1_555
C11 C10 1_555 1_555
H13 C11 1_555 1_555
C12 C11 1_555 1_555
H14 C12 1_555 1_555
C13 C8 1_555 1_555
C14 C9 1_555 1_555
H15 C14 1_555 1_555
C15 C14 1_555 1_555
H16 C15 1_555 1_555
H17 C15 1_555 1_555
H18 C15 1_555 1_555
C16 C14 1_555 1_555
H19 C16 1_555 1_555
H20 C16 1_555 1_555
H21 C16 1_555 1_555
C17 C13 1_555 1_555
H22 C17 1_555 1_555
C18 C17 1_555 1_555
H23 C18 1_555 1_555
H24 C18 1_555 1_555
H25 C18 1_555 1_555
C19 C17 1_555 1_555
H26 C19 1_555 1_555
H27 C19 1_555 1_555
H28 C19 1_555 1_555
C20 N2 1_555 1_555
C21 C20 1_555 1_555
C22 C21 1_555 1_555
H29 C22 1_555 1_555
C23 C22 1_555 1_555
H30 C23 1_555 1_555
C24 C23 1_555 1_555
H31 C24 1_555 1_555
C25 C20 1_555 1_555
C26 C21 1_555 1_555
H32 C26 1_555 1_555
C27 C26 1_555 1_555
H33 C27 1_555 1_555
H34 C27 1_555 1_555
H35 C27 1_555 1_555
C28 C26 1_555 1_555
H36 C28 1_555 1_555
H37 C28 1_555 1_555
H38 C28 1_555 1_555
C29 C25 1_555 1_555
H39 C29 1_555 1_555
C30 C29 1_555 1_555
H40 C30 1_555 1_555
H41 C30 1_555 1_555
H42 C30 1_555 1_555
C31 C29 1_555 1_555
H43 C31 1_555 1_555
H44 C31 1_555 1_555
H45 C31 1_555 1_555
C32 N3 1_555 1_555
C33 Zn2 1_555 1_555
H46 C33 1_555 1_555
C34 C33 1_555 1_555
H47 C34 1_555 1_555
H48 C34 1_555 1_555
H49 C34 1_555 1_555
C35 H50 1_555 1_555
H51 C35 1_555 1_555
H52 C35 1_555 1_555
C36 C35 1_555 1_555
C37 C32 1_555 1_555
C38 N5 1_555 1_555
C39 C38 1_555 1_555
H53 C39 1_555 1_555
H54 C39 1_555 1_555
H55 C39 1_555 1_555
C40 N4 1_555 1_555
C41 C40 1_555 1_555
C42 C41 1_555 1_555
H56 C42 1_555 1_555
C43 C42 1_555 1_555
H57 C43 1_555 1_555
C44 C43 1_555 1_555
H58 C44 1_555 1_555
C45 C40 1_555 1_555
C46 C41 1_555 1_555
H59 C46 1_555 1_555
C47 C46 1_555 1_555
H60 C47 1_555 1_555
H61 C47 1_555 1_555
H62 C47 1_555 1_555
C48 C46 1_555 1_555
H63 C48 1_555 1_555
H64 C48 1_555 1_555
H65 C48 1_555 1_555
C49 C45 1_555 1_555
H66 C49 1_555 1_555
C50 C49 1_555 1_555
H67 C50 1_555 1_555
H68 C50 1_555 1_555
H69 C50 1_555 1_555
C51 C49 1_555 1_555
H70 C51 1_555 1_555
H71 C51 1_555 1_555
H72 C51 1_555 1_555
C52 N5 1_555 1_555
C53 C52 1_555 1_555
C54 C53 1_555 1_555
H73 C54 1_555 1_555
C55 C54 1_555 1_555
H74 C55 1_555 1_555
C56 C55 1_555 1_555
H75 C56 1_555 1_555
C57 C52 1_555 1_555
C58 C53 1_555 1_555
H76 C58 1_555 1_555
C59 C58 1_555 1_555
H77 C59 1_555 1_555
H78 C59 1_555 1_555
H79 C59 1_555 1_555
C60 C58 1_555 1_555
H80 C60 1_555 1_555
H81 C60 1_555 1_555
H82 C60 1_555 1_555
C61 C57 1_555 1_555
H83 C61 1_555 1_555
C62 C61 1_555 1_555
H84 C62 1_555 1_555
H85 C62 1_555 1_555
H86 C62 1_555 1_555
C63 C61 1_555 1_555
H87 C63 1_555 1_555
H88 C63 1_555 1_555
H89 C63 1_555 1_555
C64 N6 1_555 1_555
C65 Zn3 1_555 1_555
H90 C65 1_555 1_555
H91 C65 1_555 1_555
C66 C65 1_555 1_555
H92 C66 1_555 1_555
H93 C66 1_555 1_555
H94 C66 1_555 1_555
C67 H95 1_555 1_555
H96 C67 1_555 1_555
H97 C67 1_555 1_555
C68 C67 1_555 1_555
C69 C64 1_555 1_555
C70 C69 1_555 1_555
C71 C70 1_555 1_555
H98 C71 1_555 1_555
H99 C71 1_555 1_555
H100 C71 1_555 1_555
C72 N7 1_555 1_555
C73 C72 1_555 1_555
C74 C73 1_555 1_555
H101 C74 1_555 1_555
C75 C74 1_555 1_555
H102 C75 1_555 1_555
C76 C75 1_555 1_555
H103 C76 1_555 1_555
C77 C72 1_555 1_555
C78 C73 1_555 1_555
H104 C78 1_555 1_555
C79 C78 1_555 1_555
H105 C79 1_555 1_555
H106 C79 1_555 1_555
H107 C79 1_555 1_555
C80 C78 1_555 1_555
H108 C80 1_555 1_555
H109 C80 1_555 1_555
H110 C80 1_555 1_555
C81 C77 1_555 1_555
H111 C81 1_555 1_555
C82 C81 1_555 1_555
H112 C82 1_555 1_555
H113 C82 1_555 1_555
H114 C82 1_555 1_555
C83 C81 1_555 1_555
H115 C83 1_555 1_555
H116 C83 1_555 1_555
H117 C83 1_555 1_555
C84 N8 1_555 1_555
C85 C84 1_555 1_555
C86 C85 1_555 1_555
H118 C86 1_555 1_555
C87 C86 1_555 1_555
H119 C87 1_555 1_555
C88 C87 1_555 1_555
H120 C88 1_555 1_555
C89 C84 1_555 1_555
C90 C85 1_555 1_555
H121 C90 1_555 1_555
C91 C90 1_555 1_555
H122 C91 1_555 1_555
H123 C91 1_555 1_555
H124 C91 1_555 1_555
C92 C90 1_555 1_555
H125 C92 1_555 1_555
H126 C92 1_555 1_555
H127 C92 1_555 1_555
C93 C89 1_555 1_555
H128 C93 1_555 1_555
C94 C93 1_555 1_555
H129 C94 1_555 1_555
H130 C94 1_555 1_555
H131 C94 1_555 1_555
C95 C93 1_555 1_555
H132 C95 1_555 1_555
H133 C95 1_555 1_555
H134 C95 1_555 1_555
C96 C5 1_555 1_555
C97 H135 1_555 1_555
C98 C97 1_555 1_555
H136 C98 1_555 1_555
C99 C98 1_555 1_555
H137 C99 1_555 1_555
C100 C99 1_555 1_555
H138 C100 1_555 1_555
C101 C100 1_555 1_555
H139 C101 1_555 1_555
C102 C97 1_555 1_555
C103 C102 1_555 1_555
H140 C103 1_555 1_555
H141 C103 1_555 1_555
H142 C103 1_555 1_555
C104 H143 1_555 1_555
C105 C104 1_555 1_555
H144 C105 1_555 1_555
C106 C105 1_555 1_555
H145 C106 1_555 1_555
C107 C106 1_555 1_555
H146 C107 1_555 1_555
C108 C107 1_555 1_555
H147 C108 1_555 1_555
C109 C104 1_555 1_555
C110 C109 1_555 1_555
H148 C110 1_555 1_555
H149 C110 1_555 1_555
H150 C110 1_555 1_555
N7_2 Zn3 1_555 1_555
N8_2 Zn3 1_555 1_555
Zn3_2 N7 1_555 1_555
N8 Zn3_2 1_555 1_555
C5 C6 1_555 1_555
C12 C13 1_555 1_555
C24 C25 1_555 1_555
C36 C37 1_555 1_555
C37 C38 1_555 1_555
C44 C45 1_555 1_555
C56 C57 1_555 1_555
C68 C69 1_555 1_555
C76 C77 1_555 1_555
C88 C89 1_555 1_555
C101 C102 1_555 1_555
C108 C109 1_555 1_555

#END
