
#######################################################################
#
#                 Cambridge Crystallographic Data Centre
#                                CCDC 
#
#######################################################################
#
# If this CIF has been generated from an entry in the Cambridge 
# Structural Database, then it will include bibliographic, chemical, 
# crystal, experimental, refinement or atomic coordinate data resulting 
# from the CCDC's data processing and validation procedures.
#
#######################################################################

data_INOVIR
_symmetry_cell_setting           monoclinic
_symmetry_space_group_name_H-M   'P 21/c'
_symmetry_Int_Tables_number      14
_space_group_name_Hall           '-P 2ybc'
loop_
_symmetry_equiv_pos_site_id
_symmetry_equiv_pos_as_xyz
1 x,y,z
2 -x,1/2+y,1/2-z
3 -x,-y,-z
4 x,1/2-y,1/2+z
_cell_length_a                   9.716(5)
_cell_length_b                   16.988(8)
_cell_length_c                   6.509(3)
_cell_angle_alpha                90
_cell_angle_beta                 103.729(8)
_cell_angle_gamma                90
_cell_volume                     1043.65
loop_
_atom_site_label
_atom_site_type_symbol
_atom_site_fract_x
_atom_site_fract_y
_atom_site_fract_z
Na1 Na 0.19372(14) 0.20277(8) 0.9648(2)
Cd1 Cd 0.19804(2) 0.019863(12) 0.72905(4)
O1 O 0.0383(2) 0.11304(13) 0.7482(4)
O2 O 0.1154(3) 0.17173(17) 1.2751(6)
H1 H 0.039(5) 0.152(3) 1.251(7)
H2 H 0.153(6) 0.155(3) 1.357(8)
O3 O -0.1167(2) 0.01808(12) 0.6295(4)
O4 O 0.3234(4) 0.07526(16) 1.0759(5)
H3 H 0.405(5) 0.074(2) 1.102(7)
H4 H 0.296(7) 0.056(4) 1.168(10)
O5 O -0.6291(3) 0.07381(13) 0.6058(4)
O6 O -0.6854(2) 0.19429(14) 0.6896(4)
O7 O -0.3714(2) 0.41412(12) 0.6523(4)
O8 O -0.1432(2) 0.39527(12) 0.6899(4)
H5 H -0.089(3) 0.2465(17) 0.675(5)
H6 H -0.363(3) 0.0659(19) 0.639(5)
H7 H -0.499(3) 0.2874(19) 0.645(5)
C1 C -0.1814(3) 0.22770(17) 0.6668(5)
C2 C -0.2073(3) 0.14694(17) 0.6638(5)
C3 C -0.3451(3) 0.11979(17) 0.6444(5)
C4 C -0.4551(3) 0.17294(17) 0.6399(5)
C5 C -0.4274(3) 0.25323(19) 0.6439(5)
C6 C -0.2914(3) 0.28121(17) 0.6532(5)
C7 C -0.0877(3) 0.08840(17) 0.6811(5)
C8 C -0.6000(3) 0.14576(19) 0.6463(5)
C9 C -0.2688(3) 0.36848(17) 0.6623(5)
Na1C Na 0.19372(14) 0.29723(8) 1.4648(2)
Na1_2 Na -0.80628(14) 0.20277(8) 0.9648(2)
Na1C_2 Na -0.80628(14) 0.29723(8) 0.4648(2)
Cd1B Cd -0.19804(2) -0.019863(12) 0.27095(4)
Cd1_2 Cd -0.80196(2) 0.019863(12) 0.72905(4)
Cd1A Cd -0.19804(2) 0.519863(12) 0.77095(4)
O2C O 0.1154(3) 0.32827(17) 0.7751(6)
H1C H 0.039(5) 0.348(3) 0.751(7)
H2C H 0.153(6) 0.345(3) 0.857(8)
O3B O 0.1167(2) -0.01808(12) 0.3705(4)
O5_2 O 0.3709(3) 0.07381(13) 0.6058(4)
O6_2 O 0.3146(2) 0.19429(14) 0.6896(4)
O6C O 0.3146(2) 0.30571(14) 1.1896(4)
O7A O 0.3714(2) -0.08588(12) 0.8477(4)
O8A O 0.1432(2) -0.10473(12) 0.8101(4)
loop_
_geom_bond_atom_site_label_1
_geom_bond_atom_site_label_2
_geom_bond_site_symmetry_1
_geom_bond_site_symmetry_2
Na1 O1 1_555 1_555
Cd1 O1 1_555 1_555
O1 C7 1_555 1_555
O2 Na1 1_555 1_555
H1 O2 1_555 1_555
H2 O2 1_555 1_555
O3 C7 1_555 1_555
O4 Na1 1_555 1_555
H3 O4 1_555 1_555
H4 O4 1_555 1_555
O5 C8 1_555 1_555
O6 C8 1_555 1_555
O7 C9 1_555 1_555
O8 C9 1_555 1_555
H5 C1 1_555 1_555
H6 C3 1_555 1_555
H7 C5 1_555 1_555
C1 C2 1_555 1_555
C2 C3 1_555 1_555
C3 C4 1_555 1_555
C4 C5 1_555 1_555
C5 C6 1_555 1_555
C6 C1 1_555 1_555
C7 C2 1_555 1_555
C8 C4 1_555 1_555
C9 C6 1_555 1_555
Na1C O2 1_555 1_555
Na1_2 O6 1_555 1_555
Na1C_2 O6 1_555 1_555
Cd1B O3 1_555 1_555
Cd1_2 O5 1_555 1_555
Cd1A O7 1_555 1_555
O2C Na1 1_555 1_555
H1C O2C 1_555 1_555
H2C O2C 1_555 1_555
O3B Cd1 1_555 1_555
O5_2 Cd1 1_555 1_555
O6_2 Na1 1_555 1_555
O6C Na1 1_555 1_555
O7A Cd1 1_555 1_555
O8A Cd1 1_555 1_555
Cd1 O4 1_555 1_555
O8 Cd1A 1_555 1_555
Na1C O6C 1_555 1_555

#END
