
#######################################################################
#
#                 Cambridge Crystallographic Data Centre
#                                CCDC 
#
#######################################################################
#
# If this CIF has been generated from an entry in the Cambridge 
# Structural Database, then it will include bibliographic, chemical, 
# crystal, experimental, refinement or atomic coordinate data resulting 
# from the CCDC's data processing and validation procedures.
#
#######################################################################

data_INOZIU
_symmetry_cell_setting           monoclinic
_symmetry_space_group_name_H-M   'P 21'
_symmetry_Int_Tables_number      4
_space_group_name_Hall           'P 2yb'
loop_
_symmetry_equiv_pos_site_id
_symmetry_equiv_pos_as_xyz
1 x,y,z
2 -x,1/2+y,-z
_cell_length_a                   5.0811(10)
_cell_length_b                   13.412(3)
_cell_length_c                   12.121(2)
_cell_angle_alpha                90
_cell_angle_beta                 90.21(3)
_cell_angle_gamma                90
_cell_volume                     826.013
loop_
_atom_site_label
_atom_site_type_symbol
_atom_site_fract_x
_atom_site_fract_y
_atom_site_fract_z
Hg1 Hg -1.00344(9) 0.50390(9) 1.22418(4)
I1 I -1.07651(18) 0.5026(3) 1.00565(7)
I2 I -1.24099(16) 0.5046(2) 1.42120(6)
N1 N -0.727(4) 0.3603(14) 1.245(2)
N2 N -0.747(5) -0.3446(18) 1.2429(14)
C1 C -0.753(5) 0.3041(10) 1.324(2)
H1 H -0.8902 0.3165 1.3726
C2 C -0.578(5) 0.216(2) 1.348(2)
H2 H -0.5778 0.1828 1.4148
C3 C -0.409(7) 0.1890(19) 1.2566(18)
C4 C -0.417(5) 0.255(2) 1.173(2)
H3 H -0.3002 0.2457 1.1148
C5 C -0.576(7) 0.3298(15) 1.167(3)
H4 H -0.5828 0.3647 1.1007
C6 C -0.241(5) 0.093(2) 1.294(3)
H5 H -0.0728 0.0923 1.2567
H6 H -0.2078 0.0955 1.3732
C7 C -0.396(2) -0.002(2) 1.2657(11)
H7 H -0.5503 -0.0057 1.3126
H8 H -0.4562 0.0023 1.1898
C8 C -0.234(5) -0.0951(13) 1.280(2)
H9 H -0.1148 -0.1026 1.2187
H10 H -0.1298 -0.0901 1.3474
C9 C -0.570(5) -0.312(2) 1.161(2)
H11 H -0.5643 -0.3451 1.0939
C10 C -0.396(7) -0.227(3) 1.182(3)
H12 H -0.2818 -0.2039 1.1282
C11 C -0.411(8) -0.183(2) 1.287(2)
C12 C -0.574(8) -0.217(2) 1.359(3)
H13 H -0.5911 -0.1822 1.4246
C13 C -0.716(7) -0.296(3) 1.347(2)
H14 H -0.8018 -0.3224 1.4085
N2_2 N -0.747(5) 0.6554(18) 1.2429(14)
Hg1_2 Hg -1.00344(9) -0.49610(9) 1.22418(4)
loop_
_geom_bond_atom_site_label_1
_geom_bond_atom_site_label_2
_geom_bond_site_symmetry_1
_geom_bond_site_symmetry_2
Hg1 I1 1_555 1_555
I2 Hg1 1_555 1_555
N1 Hg1 1_555 1_555
N2 C9 1_555 1_555
C1 N1 1_555 1_555
H1 C1 1_555 1_555
C2 C1 1_555 1_555
H2 C2 1_555 1_555
C3 C2 1_555 1_555
C4 C3 1_555 1_555
H3 C4 1_555 1_555
C5 N1 1_555 1_555
H4 C5 1_555 1_555
C6 C3 1_555 1_555
H5 C6 1_555 1_555
H6 C6 1_555 1_555
C7 C6 1_555 1_555
H7 C7 1_555 1_555
H8 C7 1_555 1_555
C8 C7 1_555 1_555
H9 C8 1_555 1_555
H10 C8 1_555 1_555
C9 H11 1_555 1_555
C10 C9 1_555 1_555
H12 C10 1_555 1_555
C11 C8 1_555 1_555
C12 C11 1_555 1_555
H13 C12 1_555 1_555
C13 N2 1_555 1_555
H14 C13 1_555 1_555
N2_2 Hg1 1_555 1_555
Hg1_2 N2 1_555 1_555
C4 C5 1_555 1_555
C10 C11 1_555 1_555
C12 C13 1_555 1_555

#END
