
#######################################################################
#
#                 Cambridge Crystallographic Data Centre
#                                CCDC 
#
#######################################################################
#
# If this CIF has been generated from an entry in the Cambridge 
# Structural Database, then it will include bibliographic, chemical, 
# crystal, experimental, refinement or atomic coordinate data resulting 
# from the CCDC's data processing and validation procedures.
#
#######################################################################

data_INOZOA
_symmetry_cell_setting           orthorhombic
_symmetry_space_group_name_H-M   'P n m a'
_symmetry_Int_Tables_number      62
_space_group_name_Hall           '-P 2ac 2n'
loop_
_symmetry_equiv_pos_site_id
_symmetry_equiv_pos_as_xyz
1 x,y,z
2 1/2+x,y,1/2-z
3 x,1/2-y,z
4 1/2-x,1/2+y,1/2+z
5 -x,-y,-z
6 1/2-x,-y,1/2+z
7 -x,1/2+y,-z
8 1/2+x,1/2-y,1/2-z
_cell_length_a                   8.581(2)
_cell_length_b                   13.943(3)
_cell_length_c                   11.954(2)
_cell_angle_alpha                90
_cell_angle_beta                 90
_cell_angle_gamma                90
_cell_volume                     1430.23
loop_
_atom_site_label
_atom_site_type_symbol
_atom_site_fract_x
_atom_site_fract_y
_atom_site_fract_z
Hg1 Hg -0.10476(9) 0.2500 0.45370(7)
I1 I -0.3410(2) 0.2500 0.59493(14)
I2 I -0.0050(2) 0.2500 0.24445(11)
N1 N 0.0722(12) 0.3708(8) 0.5376(9)
N2 N 0.4479(13) 0.4772(8) 0.4734(9)
C1 C 0.0395(16) 0.4125(10) 0.6364(9)
H1 H -0.0515(16) 0.3953(10) 0.6735(9)
C2 C 0.1350(16) 0.4792(10) 0.6842(12)
H2 H 0.1063(16) 0.5077(10) 0.7515(12)
C3 C 0.2720(16) 0.5046(10) 0.6344(12)
H3 H 0.3378(16) 0.5500(10) 0.6665(12)
C4 C 0.3092(15) 0.4603(9) 0.5345(11)
C5 C 0.2087(15) 0.3940(9) 0.4906(12)
H4 H 0.2367(15) 0.3635(9) 0.4245(12)
N2D N 0.5521(13) 0.5228(8) 0.5266(9)
C4D C 0.6908(15) 0.5397(9) 0.4655(11)
C3D C 0.7280(16) 0.4954(10) 0.3656(12)
C2D C 0.8650(16) 0.5208(10) 0.3158(12)
C1D C 0.9605(16) 0.5875(10) 0.3636(9)
N1D N 0.9278(12) 0.6292(8) 0.4624(9)
C5D C 0.7913(15) 0.6060(9) 0.5094(12)
H4D H 0.7633(15) 0.6365(9) 0.5755(12)
H1D H 1.0515(16) 0.6047(10) 0.3265(9)
H2D H 0.8937(16) 0.4923(10) 0.2485(12)
H3D H 0.6622(16) 0.4500(10) 0.3335(12)
N1B N 0.0722(12) 0.1292(8) 0.5376(9)
Hg1D Hg 1.10476(9) 0.7500 0.54630(7)
loop_
_geom_bond_atom_site_label_1
_geom_bond_atom_site_label_2
_geom_bond_site_symmetry_1
_geom_bond_site_symmetry_2
Hg1 I1 1_555 1_555
I2 Hg1 1_555 1_555
N1 Hg1 1_555 1_555
N2 C4 1_555 1_555
C1 N1 1_555 1_555
H1 C1 1_555 1_555
C2 C1 1_555 1_555
H2 C2 1_555 1_555
C3 C2 1_555 1_555
H3 C3 1_555 1_555
C4 C3 1_555 1_555
C5 N1 1_555 1_555
H4 C5 1_555 1_555
N2D N2 1_555 1_555
C4D N2D 1_555 1_555
C3D C4D 1_555 1_555
C2D C3D 1_555 1_555
C1D C2D 1_555 1_555
N1D C1D 1_555 1_555
C5D C4D 1_555 1_555
H4D C5D 1_555 1_555
H1D C1D 1_555 1_555
H2D C2D 1_555 1_555
H3D C3D 1_555 1_555
N1B Hg1 1_555 1_555
Hg1D N1D 1_555 1_555
C4 C5 1_555 1_555
N1D C5D 1_555 1_555

#END
