
#######################################################################
#
#                 Cambridge Crystallographic Data Centre
#                                CCDC 
#
#######################################################################
#
# If this CIF has been generated from an entry in the Cambridge 
# Structural Database, then it will include bibliographic, chemical, 
# crystal, experimental, refinement or atomic coordinate data resulting 
# from the CCDC's data processing and validation procedures.
#
#######################################################################

data_INUKOR
_symmetry_cell_setting           monoclinic
_symmetry_space_group_name_H-M   'P 21/c'
_symmetry_Int_Tables_number      14
_space_group_name_Hall           '-P 2ybc'
loop_
_symmetry_equiv_pos_site_id
_symmetry_equiv_pos_as_xyz
1 x,y,z
2 x,1/2-y,1/2+z
3 -x,-y,-z
4 -x,1/2+y,1/2-z
_cell_length_a                   9.8921(6)
_cell_length_b                   9.0151(4)
_cell_length_c                   20.1628(17)
_cell_angle_alpha                90
_cell_angle_beta                 100.31(2)
_cell_angle_gamma                90
_cell_volume                     1769.05
loop_
_atom_site_label
_atom_site_type_symbol
_atom_site_fract_x
_atom_site_fract_y
_atom_site_fract_z
Ni1 Ni 0.69481(4) -0.55454(4) 0.60593(2)
O1 O 0.6233(2) -0.5475(2) 0.69443(11)
O2 O 0.4235(2) -0.6646(3) 0.66397(13)
O3 O 0.23614(19) -0.8322(2) 0.87295(11)
O4 O 0.43221(18) -0.8780(2) 0.93854(11)
O5 O 0.55831(19) -0.7191(2) 0.56721(11)
N1 N 0.7915(2) -0.5864(2) 0.52324(13)
N2 N 0.8617(2) -0.6801(3) 0.65027(13)
C1 C 0.7546(3) -0.5385(3) 0.46069(17)
H1 H 0.6789 -0.4759 0.4507
C2 C 0.8246(3) -0.5779(4) 0.40899(18)
H2 H 0.7960 -0.5415 0.3656
C3 C 0.9350(3) -0.6700(4) 0.42272(19)
H3 H 0.9821 -0.6973 0.3886
C4 C 0.9776(3) -0.7239(3) 0.48862(18)
C5 C 0.9017(3) -0.6790(3) 0.53751(16)
C6 C 0.9410(3) -0.7267(3) 0.60533(16)
C7 C 1.0581(3) -0.8156(3) 0.62445(18)
C8 C 1.0939(3) -0.8546(4) 0.6920(2)
H4 H 1.1719 -0.9117 0.7067
C9 C 1.0143(3) -0.8087(4) 0.73620(18)
H5 H 1.0367 -0.8347 0.7815
C10 C 0.8977(3) -0.7218(3) 0.71311(18)
H6 H 0.8434 -0.6923 0.7440
C11 C 1.0936(3) -0.8184(4) 0.5087(2)
H7 H 1.1429 -0.8521 0.4764
C12 C 1.1327(3) -0.8597(4) 0.5733(2)
H8 H 1.2105 -0.9185 0.5850
C13 C 0.5094(3) -0.5919(3) 0.70568(17)
C14 C 0.4770(3) -0.5524(3) 0.77480(16)
C15 C 0.3269(3) -0.5722(4) 0.77960(17)
H9 H 0.3002 -0.6740 0.7685
H10 H 0.2715 -0.5084 0.7467
C16 C 0.2975(3) -0.5363(3) 0.84876(16)
H11 H 0.3116 -0.4310 0.8571
H12 H 0.2018 -0.5579 0.8496
C17 C 0.3873(3) -0.6226(3) 0.90537(16)
C18 C 0.5396(3) -0.6032(3) 0.89913(16)
H13 H 0.5664 -0.5009 0.9088
H14 H 0.5960 -0.6653 0.9324
C19 C 0.5665(3) -0.6435(3) 0.82964(16)
H15 H 0.5478 -0.7481 0.8214
H16 H 0.6626 -0.6261 0.8278
C20 C 0.3495(3) -0.7860(3) 0.90490(15)
O3C O 0.76386(19) -0.3322(2) 0.62705(11)
O4C O 0.56779(18) -0.3780(2) 0.56146(11)
Ni1C Ni 0.30519(4) -1.05454(4) 0.89407(2)
loop_
_geom_bond_atom_site_label_1
_geom_bond_atom_site_label_2
_geom_bond_site_symmetry_1
_geom_bond_site_symmetry_2
Ni1 O1 1_555 1_555
O1 C13 1_555 1_555
O2 C13 1_555 1_555
O3 C20 1_555 1_555
O4 C20 1_555 1_555
O5 Ni1 1_555 1_555
N1 Ni1 1_555 1_555
N2 Ni1 1_555 1_555
C1 N1 1_555 1_555
H1 C1 1_555 1_555
C2 C1 1_555 1_555
H2 C2 1_555 1_555
C3 C2 1_555 1_555
H3 C3 1_555 1_555
C4 C3 1_555 1_555
C5 N1 1_555 1_555
C6 N2 1_555 1_555
C7 C6 1_555 1_555
C8 C7 1_555 1_555
H4 C8 1_555 1_555
C9 C8 1_555 1_555
H5 C9 1_555 1_555
C10 N2 1_555 1_555
H6 C10 1_555 1_555
C11 C4 1_555 1_555
H7 C11 1_555 1_555
C12 C7 1_555 1_555
H8 C12 1_555 1_555
C13 C14 1_555 1_555
C14 C15 1_555 1_555
C15 H9 1_555 1_555
H10 C15 1_555 1_555
C16 C15 1_555 1_555
H11 C16 1_555 1_555
H12 C16 1_555 1_555
C17 C16 1_555 1_555
C18 C17 1_555 1_555
H13 C18 1_555 1_555
H14 C18 1_555 1_555
C19 C14 1_555 1_555
H15 C19 1_555 1_555
H16 C19 1_555 1_555
C20 C17 1_555 1_555
O3C Ni1 1_555 1_555
O4C Ni1 1_555 1_555
Ni1C O3 1_555 1_555
O4 Ni1C 1_555 1_555
C4 C5 1_555 1_555
C5 C6 1_555 1_555
C9 C10 1_555 1_555
C11 C12 1_555 1_555
C18 C19 1_555 1_555

#END
