
#######################################################################
#
#                 Cambridge Crystallographic Data Centre
#                                CCDC 
#
#######################################################################
#
# If this CIF has been generated from an entry in the Cambridge 
# Structural Database, then it will include bibliographic, chemical, 
# crystal, experimental, refinement or atomic coordinate data resulting 
# from the CCDC's data processing and validation procedures.
#
#######################################################################

data_INUNAH
_symmetry_cell_setting           monoclinic
_symmetry_space_group_name_H-M   'C 2/c'
_symmetry_Int_Tables_number      15
_space_group_name_Hall           '-C 2yn'
loop_
_symmetry_equiv_pos_site_id
_symmetry_equiv_pos_as_xyz
1 x,y,z
2 -x,y,1/2-z
3 1/2+x,1/2+y,z
4 1/2-x,1/2+y,1/2-z
5 -x,-y,-z
6 x,-y,1/2+z
7 1/2-x,1/2-y,-z
8 1/2+x,1/2-y,1/2+z
_cell_length_a                   30.6320(13)
_cell_length_b                   13.6735(15)
_cell_length_c                   14.9266(16)
_cell_angle_alpha                90
_cell_angle_beta                 95.758(2)
_cell_angle_gamma                90
_cell_volume                     6220.41
loop_
_atom_site_label
_atom_site_type_symbol
_atom_site_fract_x
_atom_site_fract_y
_atom_site_fract_z
C1 C -0.19993(9) 0.2718(2) -0.0796(2)
C2 C -0.15547(9) 0.3074(2) -0.09677(19)
C3 C -0.14959(10) 0.3951(2) -0.1419(2)
H1 H -0.1741 0.4317 -0.1629
C4 C -0.10858(10) 0.4290(2) -0.1560(2)
H2 H -0.1054 0.4882 -0.1853
C5 C -0.07101(9) 0.3724(2) -0.1254(2)
C6 C -0.07657(10) 0.2838(2) -0.0824(2)
H3 H -0.0523 0.2446 -0.0655
C7 C -0.11673(10) 0.2542(2) -0.0651(2)
H4 H -0.1194 0.1976 -0.0316
C8 C 0.00872(9) 0.4099(2) -0.0936(2)
C9 C 0.04415(5) 0.34394(15) 0.05315(10)
C10 C 0.08490(6) 0.31593(16) 0.02854(9)
H5 H 0.0904 0.3183 -0.0316
C11 C 0.11743(5) 0.28438(16) 0.09377(11)
H6 H 0.1447 0.2656 0.0773
C12 C 0.10920(5) 0.28084(15) 0.18361(10)
C13 C 0.06845(6) 0.30885(15) 0.20823(9)
H7 H 0.0629 0.3065 0.2683
C14 C 0.03592(5) 0.34041(16) 0.14299(12)
H8 H 0.0087 0.3591 0.1595
C15 C 0.14414(9) 0.2485(2) 0.2551(2)
C16 C 0.17670(10) 0.43479(19) 0.4062(2)
H9 H 0.1536 0.4038 0.4307
C17 C 0.17694(11) 0.5340(2) 0.4023(2)
H10 H 0.1542 0.5696 0.4234
C18 C 0.21170(11) 0.5828(2) 0.3665(2)
C19 C 0.24419(11) 0.5246(2) 0.3380(2)
H11 H 0.2680 0.5533 0.3144
C20 C 0.24188(11) 0.4245(2) 0.3441(2)
H12 H 0.2647 0.3875 0.3252
C21 C 0.21618(12) 0.6916(2) 0.3598(2)
H13 H 0.2429 0.7204 0.3506
C22 C 0.17777(11) 0.7501(2) 0.3682(2)
H14 H 0.1503 0.7231 0.3734
C23 C 0.18597(11) 0.8589(2) 0.3678(2)
C24 C 0.15785(12) 0.9181(2) 0.3152(2)
H15 H 0.1351 0.8914 0.2771
C25 C 0.16398(11) 1.0197(2) 0.3198(2)
H16 H 0.1450 1.0590 0.2830
C26 C 0.22404(11) 1.0066(2) 0.4095(2)
H17 H 0.2493 1.0347 0.4382
C27 C 0.22212(12) 0.9056(2) 0.4103(2)
H18 H 0.2451 0.8695 0.4393
Co1 Co 0.203583(12) 0.21982(3) 0.37926(2)
N1 N -0.03058(8) 0.4103(2) -0.14473(18)
H19 H -0.0253 0.3806 -0.1963
N2 N 0.00858(8) 0.3726(2) -0.00996(17)
H20 H -0.0068 0.4162 0.0193
N3 N 0.20888(8) 0.37860(17) 0.37555(18)
N4 N 0.19608(8) 1.06379(17) 0.37504(18)
O1 O -0.23139(6) 0.30109(13) -0.12992(13)
O2 O -0.20150(7) 0.21424(14) -0.01317(14)
O3 O 0.13547(6) 0.24055(15) 0.33406(15)
O4 O 0.18201(7) 0.23184(14) 0.23323(14)
S1 S 0.05235(2) 0.46027(6) -0.13469(5)
C1G C 0.30007(9) 0.2282(2) 0.4204(2)
C2G C 0.34453(9) 0.1926(2) 0.40323(19)
C3G C 0.35041(10) 0.1049(2) 0.3581(2)
H1G H 0.3259 0.0683 0.3371
C4G C 0.39142(10) 0.0710(2) 0.3440(2)
H2G H 0.3946 0.0118 0.3147
C5G C 0.42899(9) 0.1276(2) 0.3746(2)
C6G C 0.42343(10) 0.2162(2) 0.4176(2)
H3G H 0.4477 0.2554 0.4345
C7G C 0.38327(10) 0.2458(2) 0.4349(2)
H4G H 0.3806 0.3024 0.4684
C8G C 0.50872(9) 0.0901(2) 0.4064(2)
C9G C 0.54415(5) 0.15606(15) 0.55315(10)
C10G C 0.58490(6) 0.18407(16) 0.52854(9)
H5G H 0.5904 0.1817 0.4684
C11G C 0.61743(5) 0.21562(16) 0.59377(11)
H6G H 0.6447 0.2344 0.5773
C12G C 0.60920(5) 0.21916(15) 0.68361(10)
C13G C 0.56845(6) 0.19115(15) 0.70823(9)
H7G H 0.5629 0.1935 0.7683
C14G C 0.53592(5) 0.15959(16) 0.64299(12)
H8G H 0.5087 0.1409 0.6595
C15G C 0.64414(9) 0.2515(2) 0.7551(2)
C16_2 C 0.17670(10) -0.56521(19) 0.4062(2)
H9_2 H 0.1536 -0.5962 0.4307
C17_2 C 0.17694(11) -0.4660(2) 0.4023(2)
H10_2 H 0.1542 -0.4304 0.4234
C18_2 C 0.21170(11) -0.4172(2) 0.3665(2)
C19_2 C 0.24419(11) -0.4754(2) 0.3380(2)
H11_2 H 0.2680 -0.4467 0.3144
C20_2 C 0.24188(11) -0.5755(2) 0.3441(2)
H12_2 H 0.2647 -0.6125 0.3252
C21_2 C 0.21618(12) -0.3084(2) 0.3598(2)
H13_2 H 0.2429 -0.2796 0.3506
C22_2 C 0.17777(11) -0.2499(2) 0.3682(2)
H14_2 H 0.1503 -0.2769 0.3734
C23_2 C 0.18597(11) -0.1411(2) 0.3678(2)
C24_2 C 0.15785(12) -0.0819(2) 0.3152(2)
H15_2 H 0.1351 -0.1086 0.2771
C25_2 C 0.16398(11) 0.0197(2) 0.3198(2)
H16_2 H 0.1450 0.0590 0.2830
C26_2 C 0.22404(11) 0.0066(2) 0.4095(2)
H17_2 H 0.2493 0.0347 0.4382
C27_2 C 0.22212(12) -0.0944(2) 0.4103(2)
H18_2 H 0.2451 -0.1305 0.4393
Co1_2 Co 0.203583(12) -0.78018(3) 0.37926(2)
Co1_3 Co 0.203583(12) 1.21982(3) 0.37926(2)
Co1G Co -0.296417(12) 0.28018(3) -0.12074(2)
Co1A Co -0.203583(12) 0.21982(3) 0.12074(2)
Co1F Co 0.296417(12) 0.28018(3) 0.62074(2)
Co1G_2 Co 0.703583(12) 0.28018(3) 0.87926(2)
N1G N 0.46942(8) 0.0897(2) 0.35527(18)
H19G H 0.4747 0.1194 0.3037
N2G N 0.50858(8) 0.1274(2) 0.49004(17)
H20G H 0.4932 0.0838 0.5193
N3_2 N 0.20888(8) -0.62140(17) 0.37555(18)
N4_2 N 0.19608(8) 0.06379(17) 0.37504(18)
N4_3 N 0.19608(8) -0.93621(17) 0.37504(18)
O1G O 0.26861(6) 0.19891(13) 0.37008(13)
O1G_2 O 0.26861(6) -0.80109(13) 0.37008(13)
O2G O 0.29850(7) 0.28576(14) 0.48683(14)
O2A O 0.20150(7) 0.21424(14) 0.51317(14)
O2A_2 O 0.20150(7) -0.78576(14) 0.51317(14)
O3G O 0.63547(6) 0.25945(15) 0.83406(15)
O3_2 O 0.13547(6) -0.75945(15) 0.33406(15)
O4G O 0.68201(7) 0.26816(14) 0.73323(14)
O4_2 O 0.18201(7) -0.76816(14) 0.23323(14)
S1G S 0.55235(2) 0.03973(6) 0.36531(5)
O5 O 0.16081(18) 1.0193(4) 0.0776(4)
H21 H 0.1850 0.9973 0.0627
H22 H 0.1425 0.9727 0.0788
O6 O 0.4518(2) 0.4508(4) 0.4696(4)
H23 H 0.4306 0.4197 0.4413
H24 H 0.4728 0.4554 0.4366
O7 O 0.98890(18) 0.1477(5) 0.5522(4)
H25 H 0.9732 0.0997 0.5320
H26 H 0.9866 0.1546 0.6081
O8 O 0.5000 0.4393(3) 0.7500
H27 H 0.5111 0.4624 0.8000
H27A H 0.4889 0.4624 0.7000
O9 O 0.43017(19) 0.6349(4) 0.6163(4)
H28 H 0.4455 0.5922 0.6463
H29 H 0.4298 0.6225 0.5604
H30? H 0.4747 0.4164 0.7560
loop_
_geom_bond_atom_site_label_1
_geom_bond_atom_site_label_2
_geom_bond_site_symmetry_1
_geom_bond_site_symmetry_2
C1 C2 1_555 1_555
C2 C3 1_555 1_555
C3 H1 1_555 1_555
C4 C3 1_555 1_555
H2 C4 1_555 1_555
C5 C4 1_555 1_555
C6 C5 1_555 1_555
H3 C6 1_555 1_555
C7 C2 1_555 1_555
H4 C7 1_555 1_555
C8 N1 1_555 1_555
C9 C10 1_555 1_555
C10 H5 1_555 1_555
C11 C10 1_555 1_555
H6 C11 1_555 1_555
C12 C11 1_555 1_555
C13 C12 1_555 1_555
H7 C13 1_555 1_555
C14 C9 1_555 1_555
H8 C14 1_555 1_555
C15 C12 1_555 1_555
C16 H9 1_555 1_555
C17 C16 1_555 1_555
H10 C17 1_555 1_555
C18 C17 1_555 1_555
C19 C18 1_555 1_555
H11 C19 1_555 1_555
C20 C19 1_555 1_555
H12 C20 1_555 1_555
C21 C18 1_555 1_555
H13 C21 1_555 1_555
C22 C21 1_555 1_555
H14 C22 1_555 1_555
C23 C22 1_555 1_555
C24 C23 1_555 1_555
H15 C24 1_555 1_555
C25 C24 1_555 1_555
H16 C25 1_555 1_555
C26 H17 1_555 1_555
C27 C23 1_555 1_555
H18 C27 1_555 1_555
Co1 N3 1_555 1_555
N1 C5 1_555 1_555
H19 N1 1_555 1_555
N2 C8 1_555 1_555
H20 N2 1_555 1_555
N3 C16 1_555 1_555
N4 C25 1_555 1_555
O1 C1 1_555 1_555
O2 C1 1_555 1_555
O3 C15 1_555 1_555
O4 C15 1_555 1_555
O5 H21 1_555 1_555
H22 O5 1_555 1_555
O6 H23 1_555 1_555
H24 O6 1_555 1_555
O7 H25 1_555 1_555
H26 O7 1_555 1_555
O8 H27 1_555 1_555
O9 H28 1_555 1_555
H29 O9 1_555 1_555
S1 C8 1_555 1_555
C1G C2G 1_555 1_555
C2G C3G 1_555 1_555
C3G H1G 1_555 1_555
C4G C3G 1_555 1_555
H2G C4G 1_555 1_555
C5G C4G 1_555 1_555
C6G C5G 1_555 1_555
H3G C6G 1_555 1_555
C7G C2G 1_555 1_555
H4G C7G 1_555 1_555
C8G N1G 1_555 1_555
C9G C10G 1_555 1_555
C10G H5G 1_555 1_555
C11G C10G 1_555 1_555
H6G C11G 1_555 1_555
C12G C11G 1_555 1_555
C13G C12G 1_555 1_555
H7G C13G 1_555 1_555
C14G C9G 1_555 1_555
H8G C14G 1_555 1_555
C15G C12G 1_555 1_555
C16_2 H9_2 1_555 1_555
C17_2 C16_2 1_555 1_555
H10_2 C17_2 1_555 1_555
C18_2 C17_2 1_555 1_555
C19_2 C18_2 1_555 1_555
H11_2 C19_2 1_555 1_555
C20_2 C19_2 1_555 1_555
H12_2 C20_2 1_555 1_555
C21_2 C18_2 1_555 1_555
H13_2 C21_2 1_555 1_555
C22_2 C21_2 1_555 1_555
H14_2 C22_2 1_555 1_555
C23_2 C22_2 1_555 1_555
C24_2 C23_2 1_555 1_555
H15_2 C24_2 1_555 1_555
C25_2 C24_2 1_555 1_555
H16_2 C25_2 1_555 1_555
C26_2 H17_2 1_555 1_555
C27_2 C23_2 1_555 1_555
H18_2 C27_2 1_555 1_555
Co1_2 N3_2 1_555 1_555
Co1_3 N4 1_555 1_555
Co1G O1 1_555 1_555
Co1A O2 1_555 1_555
Co1F O2G 1_555 1_555
Co1G_2 O3G 1_555 1_555
N1G C5G 1_555 1_555
H19G N1G 1_555 1_555
N2G C8G 1_555 1_555
H20G N2G 1_555 1_555
N3_2 C16_2 1_555 1_555
N4_2 Co1 1_555 1_555
N4_3 Co1_2 1_555 1_555
O1G Co1 1_555 1_555
O1G_2 Co1_2 1_555 1_555
O2G C1G 1_555 1_555
O2A Co1 1_555 1_555
O2A_2 Co1_2 1_555 1_555
O3G C15G 1_555 1_555
O3_2 Co1_2 1_555 1_555
O4G C15G 1_555 1_555
O4_2 Co1_2 1_555 1_555
H27A O8 1_555 1_555
S1G C8G 1_555 1_555
C6 C7 1_555 1_555
C9 N2 1_555 1_555
C13 C14 1_555 1_555
C20 N3 1_555 1_555
C26 C27 1_555 1_555
C26 N4 1_555 1_555
Co1 O3 1_555 1_555
Co1 O4 1_555 1_555
C1G O1G 1_555 1_555
C6G C7G 1_555 1_555
C9G N2G 1_555 1_555
C13G C14G 1_555 1_555
C20_2 N3_2 1_555 1_555
C25_2 N4_2 1_555 1_555
C26_2 C27_2 1_555 1_555
C26_2 N4_2 1_555 1_555
Co1G_2 O4G 1_555 1_555

#END
