
#######################################################################
#
#                 Cambridge Crystallographic Data Centre
#                                CCDC 
#
#######################################################################
#
# If this CIF has been generated from an entry in the Cambridge 
# Structural Database, then it will include bibliographic, chemical, 
# crystal, experimental, refinement or atomic coordinate data resulting 
# from the CCDC's data processing and validation procedures.
#
#######################################################################

data_INUNEL
_symmetry_cell_setting           monoclinic
_symmetry_space_group_name_H-M   'C 2/c'
_symmetry_Int_Tables_number      15
_space_group_name_Hall           '-C 2yn'
loop_
_symmetry_equiv_pos_site_id
_symmetry_equiv_pos_as_xyz
1 x,y,z
2 -x,y,1/2-z
3 1/2+x,1/2+y,z
4 1/2-x,1/2+y,1/2-z
5 -x,-y,-z
6 x,-y,1/2+z
7 1/2-x,1/2-y,-z
8 1/2+x,1/2-y,1/2+z
_cell_length_a                   31.561(3)
_cell_length_b                   11.4596(10)
_cell_length_c                   14.6190(13)
_cell_angle_alpha                90
_cell_angle_beta                 96.1150(10)
_cell_angle_gamma                90
_cell_volume                     5257.26
loop_
_atom_site_label
_atom_site_type_symbol
_atom_site_fract_x
_atom_site_fract_y
_atom_site_fract_z
C1 C -0.20032(8) 0.2366(2) -0.08125(18)
C2 C -0.15600(8) 0.2042(2) -0.09933(18)
C3 C -0.12221(9) 0.2701(3) -0.0620(2)
H1 H -0.1272 0.3357 -0.0272
C4 C -0.08061(9) 0.2407(3) -0.0752(3)
H2 H -0.0580 0.2878 -0.0516
C5 C -0.07322(9) 0.1420(3) -0.1231(2)
C6 C -0.10689(9) 0.0741(3) -0.1622(2)
H3 H -0.1016 0.0074 -0.1954
C7 C -0.14758(9) 0.1060(3) -0.1515(2)
H4 H -0.1702 0.0620 -0.1793
C8 C 0.00659(10) 0.1079(3) -0.0898(2)
C9 C 0.04160(9) 0.1902(3) 0.0564(2)
C10 C 0.08032(9) 0.2254(3) 0.0284(2)
H5 H 0.0844 0.2274 -0.0337
C11 C 0.11282(9) 0.2573(3) 0.0952(2)
H6 H 0.1390 0.2798 0.0772
C12 C 0.10742(9) 0.2567(2) 0.1877(2)
C13 C 0.06899(9) 0.2237(2) 0.2139(2)
H7 H 0.0648 0.2246 0.2759
C14 C 0.03622(9) 0.1891(3) 0.1497(2)
H8 H 0.0104 0.1649 0.1687
C15 C 0.14430(8) 0.2844(2) 0.2585(2)
C16 C 0.16849(10) 0.5515(3) 0.3596(3)
H9 H 0.1432 0.5098 0.3475
C17 C 0.16636(10) 0.6698(3) 0.3571(3)
H10 H 0.1401 0.7067 0.3443
C18 C 0.20386(9) 0.7370(2) 0.3740(2)
C19 C 0.24138(9) 0.6742(3) 0.3919(2)
H11 H 0.2673 0.7132 0.4025
C20 C 0.24034(9) 0.5563(3) 0.3941(2)
H12 H 0.2661 0.5174 0.4073
C21 C 0.20354(10) 0.8669(2) 0.3727(2)
C22 C 0.16988(9) 0.9288(2) 0.4034(2)
H13 H 0.1468 0.8901 0.4242
C23 C 0.17159(9) 1.0505(2) 0.4022(2)
H14 H 0.1489 1.0915 0.4223
C24 C 0.23527(9) 1.0485(2) 0.34451(19)
H15 H 0.2580 1.0883 0.3232
C25 C 0.23619(9) 0.9280(2) 0.3436(2)
H16 H 0.2592 0.8891 0.3230
Co1 Co 0.205870(11) 0.30070(3) 0.37984(3)
N1 N 0.00670(8) 0.1565(3) -0.00642(19)
H17 H -0.0082 0.1067 0.0253
N2 N -0.03169(7) 0.1036(3) -0.14118(18)
H18 H -0.0273 0.1398 -0.1940
N3 N 0.20492(8) 0.4907(2) 0.37867(18)
N4 N 0.20370(7) 1.11183(18) 0.37426(17)
O1 O 0.13808(5) 0.29184(16) 0.34099(13)
O2 O 0.18108(6) 0.29659(19) 0.23362(13)
O3 O -0.23059(6) 0.19129(16) -0.13387(13)
O4 O -0.20529(6) 0.30767(16) -0.01704(12)
S1 S 0.04932(2) 0.05037(8) -0.13261(6)
Co1_2 Co 0.205870(11) 1.30070(3) 0.37984(3)
Co1G Co -0.294130(11) 0.19930(3) -0.12016(3)
Co1A Co -0.205870(11) 0.30070(3) 0.12016(3)
N4_2 N 0.20370(7) 0.11183(18) 0.37426(17)
O3G O 0.26941(6) 0.30871(16) 0.36613(13)
O4A O 0.20529(6) 0.30767(16) 0.51704(12)
O5 O 1.03227(13) 0.4993(5) 0.6749(3)
H19 H 1.0054 0.4908 0.6719
H20 H 1.0441 0.4327 0.6748
O6 O 0.95951(13) 0.4991(3) 0.5711(3)
H21 H 0.9638 0.5136 0.5159
H22 H 0.9433 0.5509 0.5900
loop_
_geom_bond_atom_site_label_1
_geom_bond_atom_site_label_2
_geom_bond_site_symmetry_1
_geom_bond_site_symmetry_2
C1 C2 1_555 1_555
C2 C3 1_555 1_555
C3 H1 1_555 1_555
C4 C3 1_555 1_555
H2 C4 1_555 1_555
C5 C4 1_555 1_555
C6 C5 1_555 1_555
H3 C6 1_555 1_555
C7 C2 1_555 1_555
H4 C7 1_555 1_555
C8 N1 1_555 1_555
C9 C10 1_555 1_555
C10 H5 1_555 1_555
C11 C10 1_555 1_555
H6 C11 1_555 1_555
C12 C11 1_555 1_555
C13 C12 1_555 1_555
H7 C13 1_555 1_555
C14 C9 1_555 1_555
H8 C14 1_555 1_555
C15 C12 1_555 1_555
C16 H9 1_555 1_555
C17 C16 1_555 1_555
H10 C17 1_555 1_555
C18 C17 1_555 1_555
C19 C18 1_555 1_555
H11 C19 1_555 1_555
C20 C19 1_555 1_555
H12 C20 1_555 1_555
C21 C18 1_555 1_555
C22 C21 1_555 1_555
H13 C22 1_555 1_555
C23 C22 1_555 1_555
H14 C23 1_555 1_555
C24 H15 1_555 1_555
C25 C21 1_555 1_555
H16 C25 1_555 1_555
Co1 N3 1_555 1_555
N1 C9 1_555 1_555
H17 N1 1_555 1_555
N2 C5 1_555 1_555
H18 N2 1_555 1_555
N3 C16 1_555 1_555
N4 C23 1_555 1_555
O1 C15 1_555 1_555
O2 C15 1_555 1_555
O3 C1 1_555 1_555
O4 C1 1_555 1_555
O5 H19 1_555 1_555
H20 O5 1_555 1_555
O6 H21 1_555 1_555
H22 O6 1_555 1_555
S1 C8 1_555 1_555
Co1_2 N4 1_555 1_555
Co1G O3 1_555 1_555
Co1A O4 1_555 1_555
N4_2 Co1 1_555 1_555
O3G Co1 1_555 1_555
O4A Co1 1_555 1_555
C6 C7 1_555 1_555
C8 N2 1_555 1_555
C13 C14 1_555 1_555
C20 N3 1_555 1_555
C24 C25 1_555 1_555
C24 N4 1_555 1_555
Co1 O1 1_555 1_555
Co1 O2 1_555 1_555

#END
