
#######################################################################
#
#                 Cambridge Crystallographic Data Centre
#                                CCDC 
#
#######################################################################
#
# If this CIF has been generated from an entry in the Cambridge 
# Structural Database, then it will include bibliographic, chemical, 
# crystal, experimental, refinement or atomic coordinate data resulting 
# from the CCDC's data processing and validation procedures.
#
#######################################################################

data_INUPEN
_symmetry_cell_setting           triclinic
_symmetry_space_group_name_H-M   'P -1'
_symmetry_Int_Tables_number      2
_space_group_name_Hall           '-P 1'
loop_
_symmetry_equiv_pos_site_id
_symmetry_equiv_pos_as_xyz
1 x,y,z
2 -x,-y,-z
_cell_length_a                   9.154(3)
_cell_length_b                   10.453(4)
_cell_length_c                   10.477(4)
_cell_angle_alpha                114.017(4)
_cell_angle_beta                 105.089(4)
_cell_angle_gamma                93.360(5)
_cell_volume                     868.618
loop_
_atom_site_label
_atom_site_type_symbol
_atom_site_fract_x
_atom_site_fract_y
_atom_site_fract_z
W1 W -0.21711(7) 0.05732(7) 0.06128(7)
V2 V -0.10745(8) -0.23992(8) -0.12803(8)
W3 W 0.09552(6) -0.03170(6) 0.21069(5)
O1 O -0.0990(8) 0.0202(8) 0.2224(8)
O2 O -0.2544(9) 0.0742(8) -0.1145(8)
O3 O -0.2739(7) -0.1491(8) -0.0514(8)
O4 O -0.0815(9) 0.2394(8) 0.1586(8)
O5 O 0.1716(10) -0.0545(10) 0.3650(10)
O6 O -0.1758(8) -0.1640(8) -0.2718(8)
O7 O -0.4846(10) -0.2663(10) -0.3376(9)
H1 H -0.3978 -0.1926 -0.3182
H2 H -0.5608 -0.3408 -0.4345
O8 O -0.1979(10) -0.4079(9) -0.2241(10)
O9 O -0.3724(8) 0.0994(8) 0.1129(8)
O10 O -0.0156(9) -0.2194(8) 0.0660(8)
O11 O 0.0000 0.0000 0.0000
Cu1 Cu -0.47902(15) -0.27301(15) -0.14779(14)
N1 N -0.4896(10) -0.2887(10) 0.0328(10)
N2 N -0.6652(11) -0.4275(10) -0.2414(10)
C1 C -0.7415(15) -0.4990(14) -0.3869(14)
H3 H -0.7028 -0.4834 -0.4540
C2 C -0.8805(17) -0.5979(16) -0.4378(17)
H4 H -0.9336 -0.6455 -0.5378
C3 C -0.9345(17) -0.6224(15) -0.3417(18)
H5 H -1.0272 -0.6849 -0.3750
C4 C -0.8521(15) -0.5541(15) -0.1892(16)
H6 H -0.8856 -0.5748 -0.1220
C5 C -0.6590(16) -0.3811(14) 0.1276(16)
H7 H -0.7511 -0.4369 0.1112
C6 C -0.5614(17) -0.3060(16) 0.2674(15)
H8 H -0.5847 -0.3127 0.3459
C7 C -0.4265(17) -0.2193(16) 0.2911(15)
H9 H -0.3597 -0.1648 0.3857
C8 C -0.3937(15) -0.2159(13) 0.1693(13)
H10 H -0.3018 -0.1611 0.1840
C9 C -0.7188(13) -0.4547(13) -0.1442(14)
C10 C -0.6233(14) -0.3752(13) 0.0129(13)
W1A W 0.21711(7) -0.05732(7) -0.06128(7)
V2A V 0.10745(8) 0.23992(8) 0.12803(8)
W3A W -0.09552(6) 0.03170(6) -0.21069(5)
O1A O 0.0990(8) -0.0202(8) -0.2224(8)
O2A O 0.2544(9) -0.0742(8) 0.1145(8)
O3A O 0.2739(7) 0.1491(8) 0.0514(8)
O4A O 0.0815(9) -0.2394(8) -0.1586(8)
O5A O -0.1716(10) 0.0545(10) -0.3650(10)
O6A O 0.1758(8) 0.1640(8) 0.2718(8)
O7A O 0.4846(10) 0.2663(10) 0.3376(9)
H1A H 0.3978 0.1926 0.3182
H2A H 0.5608 0.3408 0.4345
O8A O 0.1979(10) 0.4079(9) 0.2241(10)
O9A O -0.6276(8) -0.0994(8) -0.1129(8)
O9A_2 O 0.3724(8) -0.0994(8) -0.1129(8)
O9_2 O 0.6276(8) 0.0994(8) 0.1129(8)
O10A O 0.0156(9) 0.2194(8) -0.0660(8)
Cu1A Cu -0.52098(15) 0.27301(15) 0.14779(14)
Cu1A_2 Cu 0.47902(15) 0.27301(15) 0.14779(14)
Cu1_2 Cu 0.52098(15) -0.27301(15) -0.14779(14)
N1A N 0.4896(10) 0.2887(10) -0.0328(10)
N2A N 0.6652(11) 0.4275(10) 0.2414(10)
C1A C 0.7415(15) 0.4990(14) 0.3869(14)
H3A H 0.7028 0.4834 0.4540
C2A C 0.8805(17) 0.5979(16) 0.4378(17)
H4A H 0.9336 0.6455 0.5378
C3A C 0.9345(17) 0.6224(15) 0.3417(18)
H5A H 1.0272 0.6849 0.3750
C4A C 0.8521(15) 0.5541(15) 0.1892(16)
H6A H 0.8856 0.5748 0.1220
C5A C 0.6590(16) 0.3811(14) -0.1276(16)
H7A H 0.7511 0.4369 -0.1112
C6A C 0.5614(17) 0.3060(16) -0.2674(15)
H8A H 0.5847 0.3127 -0.3459
C7A C 0.4265(17) 0.2193(16) -0.2911(15)
H9A H 0.3597 0.1648 -0.3857
C8A C 0.3937(15) 0.2159(13) -0.1693(13)
H10A H 0.3018 0.1611 -0.1840
C9A C 0.7188(13) 0.4547(13) 0.1442(14)
C10A C 0.6233(14) 0.3752(13) -0.0129(13)
O12 O 0.2763(12) 0.8440(12) 0.5723(10)
V1? V -0.21711(7) 0.05732(7) 0.06128(7)
W2? W 0.10745(8) 0.23992(8) 0.12803(8)
V3? V 0.09552(6) -0.03170(6) 0.21069(5)
loop_
_geom_bond_atom_site_label_1
_geom_bond_atom_site_label_2
_geom_bond_site_symmetry_1
_geom_bond_site_symmetry_2
W1 O1 1_555 1_555
V2 O3 1_555 1_555
W3 O1 1_555 1_555
O2 W1 1_555 1_555
O3 W1 1_555 1_555
O4 W1 1_555 1_555
O5 W3 1_555 1_555
O6 V2 1_555 1_555
O7 H1 1_555 1_555
H2 O7 1_555 1_555
O8 V2 1_555 1_555
O9 W1 1_555 1_555
O10 V2 1_555 1_555
O11 W1 1_555 1_555
Cu1 O3 1_555 1_555
N1 Cu1 1_555 1_555
N2 Cu1 1_555 1_555
C1 N2 1_555 1_555
H3 C1 1_555 1_555
C2 C1 1_555 1_555
H4 C2 1_555 1_555
C3 C2 1_555 1_555
H5 C3 1_555 1_555
C4 C3 1_555 1_555
H6 C4 1_555 1_555
C5 H7 1_555 1_555
C6 C5 1_555 1_555
H8 C6 1_555 1_555
C7 C6 1_555 1_555
H9 C7 1_555 1_555
C8 N1 1_555 1_555
H10 C8 1_555 1_555
C9 N2 1_555 1_555
C10 N1 1_555 1_555
W1A O11 1_555 1_555
V2A O4 1_555 1_555
W3A O2 1_555 1_555
O1A W1A 1_555 1_555
O2A W3 1_555 1_555
O3A W1A 1_555 1_555
O4A V2 1_555 1_555
O5A W3A 1_555 1_555
O6A W3 1_555 1_555
O7A H1A 1_555 1_555
H2A O7A 1_555 1_555
O8A V2A 1_555 1_555
O9A Cu1 1_555 1_555
O9A_2 W1A 1_555 1_555
O9_2 Cu1A_2 1_555 1_555
O10A V2A 1_555 1_555
Cu1A O9 1_555 1_555
Cu1A_2 O3A 1_555 1_555
Cu1_2 O9A_2 1_555 1_555
N1A Cu1A_2 1_555 1_555
N2A Cu1A_2 1_555 1_555
C1A N2A 1_555 1_555
H3A C1A 1_555 1_555
C2A C1A 1_555 1_555
H4A C2A 1_555 1_555
C3A C2A 1_555 1_555
H5A C3A 1_555 1_555
C4A C3A 1_555 1_555
H6A C4A 1_555 1_555
C5A H7A 1_555 1_555
C6A C5A 1_555 1_555
H8A C6A 1_555 1_555
C7A C6A 1_555 1_555
H9A C7A 1_555 1_555
C8A N1A 1_555 1_555
H10A C8A 1_555 1_555
C9A N2A 1_555 1_555
C10A N1A 1_555 1_555
V2 O11 1_555 1_555
W3 O10 1_555 1_555
W3 O11 1_555 1_555
O6 W3A 1_555 1_555
O7 Cu1 1_555 1_555
O11 V2A 1_555 1_555
O11 W3A 1_555 1_555
C4 C9 1_555 1_555
C5 C10 1_555 1_555
C7 C8 1_555 1_555
C9 C10 1_555 1_555
W1A O2A 1_555 1_555
W1A O4A 1_555 1_555
V2A O3A 1_555 1_555
V2A O6A 1_555 1_555
W3A O1A 1_555 1_555
W3A O10A 1_555 1_555
O7A Cu1A_2 1_555 1_555
C4A C9A 1_555 1_555
C5A C10A 1_555 1_555
C7A C8A 1_555 1_555
C9A C10A 1_555 1_555

#END
