
#######################################################################
#
#                 Cambridge Crystallographic Data Centre
#                                CCDC 
#
#######################################################################
#
# If this CIF has been generated from an entry in the Cambridge 
# Structural Database, then it will include bibliographic, chemical, 
# crystal, experimental, refinement or atomic coordinate data resulting 
# from the CCDC's data processing and validation procedures.
#
#######################################################################

data_INUSAL
_symmetry_cell_setting           monoclinic
_symmetry_space_group_name_H-M   'C 2/c'
_symmetry_Int_Tables_number      15
_space_group_name_Hall           '-C 2yn'
loop_
_symmetry_equiv_pos_site_id
_symmetry_equiv_pos_as_xyz
1 x,y,z
2 1/2+x,1/2+y,z
3 x,-y,1/2+z
4 1/2+x,1/2-y,1/2+z
5 -x,-y,-z
6 1/2-x,1/2-y,-z
7 -x,y,1/2-z
8 1/2-x,1/2+y,1/2-z
_cell_length_a                   27.6785(5)
_cell_length_b                   13.6572(3)
_cell_length_c                   19.7535(4)
_cell_angle_alpha                90
_cell_angle_beta                 105.8280(10)
_cell_angle_gamma                90
_cell_volume                     7183.92
loop_
_atom_site_label
_atom_site_type_symbol
_atom_site_fract_x
_atom_site_fract_y
_atom_site_fract_z
La1 La 0.646997(6) 0.596673(13) 0.231390(7)
C1 C 0.68897(11) 0.6151(2) 0.41972(14)
O1 O 0.68797(8) 0.6181(2) 0.35599(10)
C2 C 0.64955(12) 0.6029(2) 0.45833(15)
O2 O 0.60386(8) 0.5951(2) 0.44197(11)
C3 C 0.69216(12) 0.6055(3) 0.52535(15)
O3 O 0.69512(8) 0.5970(2) 0.58868(10)
C4 C 0.72717(12) 0.6199(2) 0.48376(14)
C5 C 0.78064(11) 0.6322(3) 0.50014(14)
C6 C 0.81077(12) 0.6265(3) 0.56951(15)
H1 H 0.79559(12) 0.6148(3) 0.60647(15)
C7 C 0.86192(12) 0.6374(3) 0.5850(2)
H2 H 0.88199(12) 0.6319(3) 0.6323(2)
C8 C 0.88436(12) 0.6566(3) 0.5310(2)
C9 C 0.85514(12) 0.6636(3) 0.4618(2)
H3 H 0.87038(12) 0.6771(3) 0.4251(2)
C10 C 0.80382(12) 0.6510(3) 0.4466(2)
H4 H 0.78390(12) 0.6551(3) 0.3992(2)
O4 O 0.93569(8) 0.6656(2) 0.55132(11)
C11 C 0.95924(14) 0.6985(4) 0.4987(2)
H5 H 0.99566(14) 0.7020(4) 0.5193(2)
H6 H 0.94638(14) 0.7635(4) 0.4819(2)
H7 H 0.95169(14) 0.6524(4) 0.4592(2)
C12 C 0.69435(12) 0.8414(3) 0.25212(15)
O5 O 0.66569(9) 0.7710(2) 0.25049(12)
C13 C 0.74960(11) 0.8536(3) 0.25837(15)
O6 O 0.78506(9) 0.8011(2) 0.25841(12)
C14 C 0.74048(11) 0.9621(3) 0.25721(13)
O7 O 0.76754(7) 1.0354(2) 0.26038(10)
C15 C 0.68784(11) 0.9447(2) 0.24769(13)
C16 C 0.64340(11) 1.0063(3) 0.23235(14)
C17 C 0.64691(11) 1.1077(3) 0.23004(15)
H8 H 0.67899(11) 1.1382(3) 0.24257(15)
C18 C 0.60459(13) 1.1639(3) 0.2099(2)
H9 H 0.60749(13) 1.2332(3) 0.2090(2)
C19 C 0.55734(13) 1.1208(4) 0.1906(2)
C20 C 0.55282(12) 1.0210(4) 0.1940(2)
H10 H 0.52051(12) 0.9916(4) 0.1820(2)
C21 C 0.59553(12) 0.9632(3) 0.2150(2)
H11 H 0.59237(12) 0.8941(3) 0.2176(2)
O8 O 0.51742(10) 1.1836(3) 0.16991(14)
C22 C 0.4682(2) 1.1426(5) 0.1401(2)
H12 H 0.4434(2) 1.1956(5) 0.1277(2)
H13 H 0.4595(2) 1.0992(5) 0.1745(2)
H14 H 0.4681(2) 1.1052(5) 0.0977(2)
C23 C 0.62903(12) 0.6403(3) -0.0470(2)
O9 O 0.61336(9) 0.6361(2) -0.11205(11)
C24 C 0.60261(13) 0.6513(3) 0.0095(2)
O10 O 0.55875(8) 0.6555(2) 0.01173(11)
C25 C 0.65301(12) 0.6528(3) 0.0609(2)
O11 O 0.66864(8) 0.6637(2) 0.12642(10)
C26 C 0.67671(12) 0.6399(3) 0.00565(15)
C27 C 0.72837(12) 0.6310(3) 0.00512(15)
C28 C 0.76704(12) 0.6321(3) 0.0681(2)
H15 H 0.75900(12) 0.6378(3) 0.1117(2)
C29 C 0.81657(12) 0.6249(3) 0.0674(2)
H16 H 0.84245(12) 0.6263(3) 0.1104(2)
C30 C 0.82864(12) 0.6157(3) 0.0039(2)
C31 C 0.79130(12) 0.6132(3) -0.0591(2)
H17 H 0.79968(12) 0.6062(3) -0.1024(2)
C32 C 0.74142(12) 0.6211(3) -0.0582(2)
H18 H 0.71571(12) 0.6196(3) -0.1013(2)
O12 O 0.87865(8) 0.6101(2) 0.00829(11)
C33 C 0.89285(13) 0.5937(3) -0.0551(2)
H19 H 0.92955(13) 0.5913(3) -0.0444(2)
H20 H 0.88005(13) 0.6471(3) -0.0883(2)
H21 H 0.87870(13) 0.5314(3) -0.0761(2)
O13 O 0.64318(9) 0.4248(2) 0.27726(11)
H22 H 0.6618(14) 0.3771(22) 0.2655(22)
H23 H 0.6352(17) 0.3994(34) 0.3148(15)
O14 O 0.57815(8) 0.6021(2) 0.29646(11)
H24 H 0.5526(11) 0.5610(26) 0.2777(19)
H25 H 0.5894(14) 0.5957(30) 0.3435(3)
O15 O 0.56362(8) 0.6525(2) 0.15411(11)
H26 H 0.5549(18) 0.6544(43) 0.1068(2)
H27 H 0.5366(9) 0.6846(27) 0.1598(19)
O16 O 0.61921(8) 0.4771(2) 0.13105(10)
H28 H 0.6415(11) 0.4456(28) 0.1131(18)
H29 H 0.5901(9) 0.4443(31) 0.1159(20)
O7G O 0.73246(7) 0.5354(2) 0.23962(10)
La1G La 0.853003(6) 1.096673(13) 0.268610(7)
O18 O 0.4845(3) 0.3571(6) 0.1637(3)
O21 O 0.5356(10) 0.4118(24) 0.0666(14)
O24 O 0.9841(2) 0.7488(5) 0.6817(3)
O17? O 0.5231(4) 0.3833(8) 0.1234(6)
O19? O 0.5210(6) 0.4516(15) 0.0670(9)
O20? O 0.5184(15) 0.3904(33) 0.1057(16)
O22? O 0.5320(12) 0.4461(28) 0.0322(17)
O23? O 0.5021(3) 0.4818(4) 0.2335(3)
O25? O 1.0045(2) 0.7009(5) 0.6778(2)
loop_
_geom_bond_atom_site_label_1
_geom_bond_atom_site_label_2
_geom_bond_site_symmetry_1
_geom_bond_site_symmetry_2
La1 O1 1_555 1_555
C1 O1 1_555 1_555
C2 C1 1_555 1_555
O2 C2 1_555 1_555
C3 C2 1_555 1_555
O3 C3 1_555 1_555
C4 C1 1_555 1_555
C5 C4 1_555 1_555
C6 C5 1_555 1_555
H1 C6 1_555 1_555
C7 C6 1_555 1_555
H2 C7 1_555 1_555
C8 C7 1_555 1_555
C9 C8 1_555 1_555
H3 C9 1_555 1_555
C10 C5 1_555 1_555
H4 C10 1_555 1_555
O4 C8 1_555 1_555
C11 O4 1_555 1_555
H5 C11 1_555 1_555
H6 C11 1_555 1_555
H7 C11 1_555 1_555
C12 O5 1_555 1_555
O5 La1 1_555 1_555
C13 C12 1_555 1_555
O6 C13 1_555 1_555
C14 C13 1_555 1_555
O7 C14 1_555 1_555
C15 C12 1_555 1_555
C16 C15 1_555 1_555
C17 C16 1_555 1_555
H8 C17 1_555 1_555
C18 C17 1_555 1_555
H9 C18 1_555 1_555
C19 C18 1_555 1_555
C20 C19 1_555 1_555
H10 C20 1_555 1_555
C21 C16 1_555 1_555
H11 C21 1_555 1_555
O8 C19 1_555 1_555
C22 O8 1_555 1_555
H12 C22 1_555 1_555
H13 C22 1_555 1_555
H14 C22 1_555 1_555
C23 O9 1_555 1_555
C24 C23 1_555 1_555
O10 C24 1_555 1_555
C25 C24 1_555 1_555
O11 La1 1_555 1_555
C26 C23 1_555 1_555
C27 C26 1_555 1_555
C28 C27 1_555 1_555
H15 C28 1_555 1_555
C29 C28 1_555 1_555
H16 C29 1_555 1_555
C30 C29 1_555 1_555
C31 C30 1_555 1_555
H17 C31 1_555 1_555
C32 C27 1_555 1_555
H18 C32 1_555 1_555
O12 C30 1_555 1_555
C33 O12 1_555 1_555
H19 C33 1_555 1_555
H20 C33 1_555 1_555
H21 C33 1_555 1_555
O13 La1 1_555 1_555
H22 O13 1_555 1_555
H23 O13 1_555 1_555
O14 La1 1_555 1_555
H24 O14 1_555 1_555
H25 O14 1_555 1_555
O15 La1 1_555 1_555
H26 O15 1_555 1_555
H27 O15 1_555 1_555
O16 La1 1_555 1_555
H28 O16 1_555 1_555
H29 O16 1_555 1_555
O7G La1 1_555 1_555
La1G O7 1_555 1_555
C3 C4 1_555 1_555
C9 C10 1_555 1_555
C14 C15 1_555 1_555
C20 C21 1_555 1_555
C25 O11 1_555 1_555
C25 C26 1_555 1_555
C31 C32 1_555 1_555

#END
