
#######################################################################
#
#                 Cambridge Crystallographic Data Centre
#                                CCDC 
#
#######################################################################
#
# If this CIF has been generated from an entry in the Cambridge 
# Structural Database, then it will include bibliographic, chemical, 
# crystal, experimental, refinement or atomic coordinate data resulting 
# from the CCDC's data processing and validation procedures.
#
#######################################################################

data_INUTIU
_symmetry_cell_setting           monoclinic
_symmetry_space_group_name_H-M   'P 21/c'
_symmetry_Int_Tables_number      14
_space_group_name_Hall           '-P 2ybc'
loop_
_symmetry_equiv_pos_site_id
_symmetry_equiv_pos_as_xyz
1 x,y,z
2 x,1/2-y,1/2+z
3 -x,-y,-z
4 -x,1/2+y,1/2-z
_cell_length_a                   9.66820(10)
_cell_length_b                   15.3770(3)
_cell_length_c                   16.4646(3)
_cell_angle_alpha                90
_cell_angle_beta                 90.1073(7)
_cell_angle_gamma                90
_cell_volume                     2447.75
loop_
_atom_site_label
_atom_site_type_symbol
_atom_site_fract_x
_atom_site_fract_y
_atom_site_fract_z
La1 La 0.70057(2) 0.587108(10) 0.099013(10)
La2 La 0.72127(2) 1.092100(10) 0.098430(10)
C1 C 0.7977(3) 0.7927(2) 0.1843(2)
O1 O 0.7755(2) 0.73895(14) 0.12745(14)
C2 C 0.8078(3) 0.8876(2) 0.1875(2)
O2 O 0.7978(2) 0.94627(14) 0.13482(14)
C3 C 0.8301(3) 0.8840(2) 0.2746(2)
O3 O 0.8481(2) 0.94016(15) 0.32885(13)
C4 C 0.8200(3) 0.7879(2) 0.2717(2)
O4 O 0.8258(2) 0.72680(14) 0.32205(13)
C5 C 0.8248(3) 0.3877(2) 0.1845(2)
O5 O 0.8006(2) 0.44512(14) 0.13253(14)
C6 C 0.8306(3) 0.2929(2) 0.1809(2)
O6 O 0.8157(2) 0.23891(14) 0.12399(13)
C7 C 0.8531(3) 0.2893(2) 0.2685(2)
O7 O 0.8653(2) 0.22966(14) 0.31970(14)
C8 C 0.8487(3) 0.3844(2) 0.2720(2)
O8 O 0.8573(2) 0.44108(14) 0.32714(13)
C9 C 0.4909(3) 0.4052(2) 0.1454(2)
O9 O 0.4965(2) 0.48789(14) 0.14350(13)
C10 C 0.4687(3) 0.3361(2) 0.0852(2)
O10 O 0.4366(2) 0.33136(13) 0.01186(14)
C11 C 0.5048(3) 0.2710(2) 0.1476(2)
O11 O 0.5274(2) 0.19095(14) 0.14759(14)
C12 C 0.5090(3) 0.3404(2) 0.2094(2)
O12 O 0.5238(2) 0.34240(13) 0.28507(14)
O13 O 0.4982(2) 0.67103(15) 0.15876(15)
H1 H 0.4443(34) 0.6362(22) 0.1891(21)
H2 H 0.4993(52) 0.7277(8) 0.1723(29)
O14 O 0.8739(2) 0.6219(2) -0.01205(15)
H3 H 0.8715(64) 0.6009(32) -0.0631(12)
H4 H 0.9625(15) 0.6346(32) 0.0000(28)
O15 O 0.9508(3) 0.59080(14) 0.1555(2)
H5 H 0.9971(39) 0.5402(14) 0.1600(27)
H6 H 1.0005(35) 0.6381(16) 0.1692(24)
O16 O 0.6742(2) 0.47746(14) -0.01427(13)
H7 H 0.6206(36) 0.4819(29) -0.0588(15)
H8 H 0.7344(34) 0.4328(18) -0.0133(27)
O17 O 0.7044(2) 0.57905(14) 0.26028(14)
H9 H 0.7343(52) 0.6321(15) 0.2753(31)
H10 H 0.7628(36) 0.5393(21) 0.2811(26)
O18 O 0.5981(3) 1.1738(2) -0.0233(2)
H11 H 0.5375(38) 1.2182(20) -0.0245(32)
H12 H 0.6250(62) 1.1643(39) -0.0749(13)
O19 O 0.8980(3) 1.1158(2) -0.01356(15)
H13 H 0.8780(70) 1.1047(40) -0.0659(12)
H14 H 0.9804(24) 1.1354(32) 0.0041(29)
O20 O 0.9704(3) 1.09009(13) 0.1539(2)
H15 H 1.0111(38) 1.0390(13) 0.1659(25)
H16 H 1.0124(42) 1.1398(16) 0.1690(27)
O21 O 0.6693(2) 0.98553(15) -0.01354(14)
H17 H 0.7133(45) 0.9340(15) -0.0114(31)
H18 H 0.6195(43) 0.9876(34) -0.0597(16)
O22 O 0.5062(2) 1.00762(14) 0.14924(14)
H19 H 0.4604(37) 1.0411(23) 0.1850(20)
H20 H 0.5003(56) 0.9495(5) 0.1550(33)
O23 O 0.7223(2) 1.09211(13) 0.25853(15)
H21 H 0.7687(41) 1.1389(18) 0.2768(26)
H22 H 0.7538(43) 1.0423(15) 0.2805(25)
O10B O 0.5634(2) 0.66864(13) -0.01186(14)
O6_2 O 0.8157(2) 1.23891(14) 0.12399(13)
O11_2 O 0.5274(2) 1.19095(14) 0.14759(14)
La2_2 La 0.72127(2) 0.092100(10) 0.098430(10)
La1B La 0.29943(2) 0.412892(10) -0.099013(10)
O24 O 0.8486(3) 0.33238(15) -0.0210(2)
H23 H 0.8486(59) 0.3025(31) 0.0260(17)
H24 H 0.8469(47) 0.3032(26) -0.0684(14)
O25 O 0.8235(3) 0.66720(14) 0.4820(2)
H25 H 0.8254(48) 0.6989(25) 0.4361(15)
H26 H 0.8049(51) 0.6992(28) 0.5265(18)
loop_
_geom_bond_atom_site_label_1
_geom_bond_atom_site_label_2
_geom_bond_site_symmetry_1
_geom_bond_site_symmetry_2
La1 O1 1_555 1_555
La2 O2 1_555 1_555
C1 O1 1_555 1_555
C2 C1 1_555 1_555
O2 C2 1_555 1_555
C3 C2 1_555 1_555
O3 C3 1_555 1_555
C4 C1 1_555 1_555
O4 C4 1_555 1_555
C5 O5 1_555 1_555
O5 La1 1_555 1_555
C6 C5 1_555 1_555
O6 C6 1_555 1_555
C7 C6 1_555 1_555
O7 C7 1_555 1_555
C8 C5 1_555 1_555
O8 C8 1_555 1_555
C9 O9 1_555 1_555
O9 La1 1_555 1_555
C10 C9 1_555 1_555
O10 C10 1_555 1_555
C11 C10 1_555 1_555
O11 C11 1_555 1_555
C12 C9 1_555 1_555
O12 C12 1_555 1_555
O13 La1 1_555 1_555
H1 O13 1_555 1_555
H2 O13 1_555 1_555
O14 La1 1_555 1_555
H3 O14 1_555 1_555
H4 O14 1_555 1_555
O15 La1 1_555 1_555
H5 O15 1_555 1_555
H6 O15 1_555 1_555
O16 La1 1_555 1_555
H7 O16 1_555 1_555
H8 O16 1_555 1_555
O17 La1 1_555 1_555
H9 O17 1_555 1_555
H10 O17 1_555 1_555
O18 La2 1_555 1_555
H11 O18 1_555 1_555
H12 O18 1_555 1_555
O19 La2 1_555 1_555
H13 O19 1_555 1_555
H14 O19 1_555 1_555
O20 La2 1_555 1_555
H15 O20 1_555 1_555
H16 O20 1_555 1_555
O21 La2 1_555 1_555
H17 O21 1_555 1_555
H18 O21 1_555 1_555
O22 La2 1_555 1_555
H19 O22 1_555 1_555
H20 O22 1_555 1_555
O23 La2 1_555 1_555
H21 O23 1_555 1_555
H22 O23 1_555 1_555
O24 H23 1_555 1_555
H24 O24 1_555 1_555
O25 H25 1_555 1_555
H26 O25 1_555 1_555
O10B La1 1_555 1_555
O6_2 La2 1_555 1_555
O11_2 La2 1_555 1_555
La2_2 O6 1_555 1_555
La1B O10 1_555 1_555
C3 C4 1_555 1_555
C7 C8 1_555 1_555
C11 C12 1_555 1_555
O11 La2_2 1_555 1_555

#END
