
#######################################################################
#
#                 Cambridge Crystallographic Data Centre
#                                CCDC 
#
#######################################################################
#
# If this CIF has been generated from an entry in the Cambridge 
# Structural Database, then it will include bibliographic, chemical, 
# crystal, experimental, refinement or atomic coordinate data resulting 
# from the CCDC's data processing and validation procedures.
#
#######################################################################

data_IPAFUB
_symmetry_cell_setting           monoclinic
_symmetry_space_group_name_H-M   'P 21/c'
_symmetry_Int_Tables_number      14
_space_group_name_Hall           '-P 2ybc'
loop_
_symmetry_equiv_pos_site_id
_symmetry_equiv_pos_as_xyz
1 x,y,z
2 -x,1/2+y,1/2-z
3 -x,-y,-z
4 x,1/2-y,1/2+z
_cell_length_a                   18.73(2)
_cell_length_b                   6.391(8)
_cell_length_c                   7.348(9)
_cell_angle_alpha                90
_cell_angle_beta                 93.29(2)
_cell_angle_gamma                90
_cell_volume                     878.131
loop_
_atom_site_label
_atom_site_type_symbol
_atom_site_fract_x
_atom_site_fract_y
_atom_site_fract_z
Co1 Co 0.5000 1.0000 0.0000
F1 F 0.94843(14) 0.8020(4) 0.5505(4)
O1 O 0.58052(14) 0.9192(4) 0.1964(3)
O2 O 0.55909(15) 0.5852(4) 0.2749(3)
O3 O 0.44654(16) 0.7112(4) 0.0018(4)
C1 C 0.8304(2) 0.6866(7) 0.4816(5)
H1 H 0.8194 0.8167 0.4240
C2 C 0.8984(2) 0.6469(7) 0.5582(6)
C3 C 0.9178(3) 0.4601(8) 0.6447(6)
H2 H 0.9650 0.4396 0.6963
C4 C 0.8664(3) 0.3041(7) 0.6536(6)
H3 H 0.8786 0.1740 0.7097
C5 C 0.7968(2) 0.3385(7) 0.5800(6)
H4 H 0.7618 0.2322 0.5898
C6 C 0.7776(2) 0.5284(7) 0.4911(6)
C7 C 0.7043(2) 0.5560(6) 0.4146(5)
H5 H 0.6736 0.4379 0.4178
C8 C 0.6761(2) 0.7319(6) 0.3400(6)
H6 H 0.7056 0.8523 0.3335
C9 C 0.6006(2) 0.7451(6) 0.2673(5)
H7 H 0.446(2) 0.644(6) -0.094(3)
H8 H 0.443(3) 0.636(7) 0.090(4)
Co1A Co 0.5000 0.5000 0.5000
Co1A_2 Co 0.5000 1.5000 -0.5000
F1B F 0.05157(14) 1.1980(4) -0.5505(4)
O1B O 0.41948(14) 1.0808(4) -0.1964(3)
O2B O 0.44091(15) 1.4148(4) -0.2749(3)
O2A O 0.44091(15) 1.0852(4) 0.2251(3)
O2C O 0.55909(15) 0.9148(4) -0.2251(3)
O3B O 0.55346(16) 1.2888(4) -0.0018(4)
C1B C 0.1696(2) 1.3134(7) -0.4816(5)
H1B H 0.1806 1.1833 -0.4240
C2B C 0.1016(2) 1.3531(7) -0.5582(6)
C3B C 0.0822(3) 1.5399(8) -0.6447(6)
H2B H 0.0350 1.5604 -0.6963
C4B C 0.1336(3) 1.6959(7) -0.6536(6)
H3B H 0.1214 1.8260 -0.7097
C5B C 0.2032(2) 1.6615(7) -0.5800(6)
H4B H 0.2382 1.7678 -0.5898
C6B C 0.2224(2) 1.4716(7) -0.4911(6)
C7B C 0.2957(2) 1.4440(6) -0.4146(5)
H5B H 0.3264 1.5621 -0.4178
C8B C 0.3239(2) 1.2681(6) -0.3400(6)
H6B H 0.2944 1.1477 -0.3335
C9B C 0.3994(2) 1.2549(6) -0.2673(5)
H7B H 0.554(2) 1.356(6) 0.094(3)
H8B H 0.557(3) 1.364(7) -0.090(4)
loop_
_geom_bond_atom_site_label_1
_geom_bond_atom_site_label_2
_geom_bond_site_symmetry_1
_geom_bond_site_symmetry_2
Co1 O1 1_555 1_555
F1 C2 1_555 1_555
O1 C9 1_555 1_555
O2 C9 1_555 1_555
O3 Co1 1_555 1_555
C1 H1 1_555 1_555
C2 C1 1_555 1_555
C3 C2 1_555 1_555
H2 C3 1_555 1_555
C4 C3 1_555 1_555
H3 C4 1_555 1_555
C5 C4 1_555 1_555
H4 C5 1_555 1_555
C6 C1 1_555 1_555
C7 C6 1_555 1_555
H5 C7 1_555 1_555
C8 C7 1_555 1_555
H6 C8 1_555 1_555
C9 C8 1_555 1_555
H7 O3 1_555 1_555
H8 O3 1_555 1_555
Co1A O2 1_555 1_555
Co1A_2 O2B 1_555 1_555
F1B C2B 1_555 1_555
O1B Co1 1_555 1_555
O2B C9B 1_555 1_555
O2A Co1 1_555 1_555
O2C Co1 1_555 1_555
O3B Co1 1_555 1_555
C1B H1B 1_555 1_555
C2B C1B 1_555 1_555
C3B C2B 1_555 1_555
H2B C3B 1_555 1_555
C4B C3B 1_555 1_555
H3B C4B 1_555 1_555
C5B C4B 1_555 1_555
H4B C5B 1_555 1_555
C6B C1B 1_555 1_555
C7B C6B 1_555 1_555
H5B C7B 1_555 1_555
C8B C7B 1_555 1_555
H6B C8B 1_555 1_555
C9B O1B 1_555 1_555
H7B O3B 1_555 1_555
H8B O3B 1_555 1_555
C5 C6 1_555 1_555
C5B C6B 1_555 1_555
C8B C9B 1_555 1_555

#END
