
#######################################################################
#
#                 Cambridge Crystallographic Data Centre
#                                CCDC 
#
#######################################################################
#
# If this CIF has been generated from an entry in the Cambridge 
# Structural Database, then it will include bibliographic, chemical, 
# crystal, experimental, refinement or atomic coordinate data resulting 
# from the CCDC's data processing and validation procedures.
#
#######################################################################

data_IPANET
_symmetry_cell_setting           monoclinic
_symmetry_space_group_name_H-M   'P 2/c'
_symmetry_Int_Tables_number      13
_space_group_name_Hall           '-P 2yc'
loop_
_symmetry_equiv_pos_site_id
_symmetry_equiv_pos_as_xyz
1 x,y,z
2 -x,y,1/2-z
3 -x,-y,-z
4 x,-y,1/2+z
_cell_length_a                   23.315(3)
_cell_length_b                   9.7287(13)
_cell_length_c                   11.8332(16)
_cell_angle_alpha                90
_cell_angle_beta                 104.487(7)
_cell_angle_gamma                90
_cell_volume                     2598.72
loop_
_atom_site_label
_atom_site_type_symbol
_atom_site_fract_x
_atom_site_fract_y
_atom_site_fract_z
Co1 Co 0.01958(2) 0.36110(5) 0.55504(4)
Co2 Co 0.0000 0.42744(7) 0.2500
C1 C 0.10432(17) 0.2929(4) 0.4077(3)
C2 C 0.16598(18) 0.2500(4) 0.4039(4)
H1 H 0.1909 0.2503 0.4830
H2 H 0.1817 0.3182 0.3599
C3 C 0.17048(17) 0.1105(4) 0.3509(3)
C4 C 0.19606(18) 0.0955(5) 0.2580(4)
H3 H 0.2064 0.1732 0.2218
C5 C 0.2065(2) -0.0334(5) 0.2183(4)
H4 H 0.2255 -0.0423 0.1583
C6 C 0.18873(19) -0.1485(5) 0.2678(4)
H5 H 0.1962 -0.2351 0.2415
C7 C 0.15975(18) -0.1370(4) 0.3565(3)
C8 C 0.15152(17) -0.0070(4) 0.3977(3)
H6 H 0.1328 0.0018 0.4582
C9 C 0.13524(19) -0.2628(4) 0.4034(3)
H7 H 0.1231 -0.2372 0.4732
H8 H 0.1665 -0.3306 0.4255
C10 C 0.08279(17) -0.3279(4) 0.3171(3)
C23 C -0.0247(2) 0.0919(4) 0.4208(4)
H19 H -0.0426 0.1536 0.3626
C24 C -0.0279(2) -0.0461(4) 0.3961(4)
H20 H -0.0481 -0.0747 0.3218
N2 N 0.00316(15) 0.1406(3) 0.5250(3)
O1 O 0.09769(12) 0.3398(3) 0.5019(2)
O2 O 0.06452(12) 0.2813(3) 0.3149(2)
O3 O 0.07578(12) -0.3006(3) 0.2130(2)
O4 O 0.05097(12) -0.4103(3) 0.3575(2)
O5 O 0.03265(11) 0.4306(2) 0.1000(2)
H21 H 0.0681 0.3803 0.1213
Co1A Co -0.01958(2) 0.36110(5) -0.05504(4)
Co1C Co 0.01958(2) -0.36110(5) 0.05504(4)
Co1B Co -0.01958(2) -0.36110(5) 0.44496(4)
Co1C_2 Co 0.01958(2) 0.63890(5) 0.05504(4)
Co1B_2 Co -0.01958(2) 0.63890(5) 0.44496(4)
Co2_2 Co 0.0000 -0.57256(7) 0.2500
C1A C -0.10432(17) 0.2929(4) 0.0923(3)
C2A C -0.16598(18) 0.2500(4) 0.0961(4)
H1A H -0.1909 0.2503 0.0170
H2A H -0.1817 0.3182 0.1401
C3A C -0.17048(17) 0.1105(4) 0.1491(3)
C4A C -0.19606(18) 0.0955(5) 0.2420(4)
H3A H -0.2064 0.1732 0.2782
C5A C -0.2065(2) -0.0334(5) 0.2817(4)
H4A H -0.2255 -0.0423 0.3417
C6A C -0.18873(19) -0.1485(5) 0.2322(4)
H5A H -0.1962 -0.2351 0.2585
C7A C -0.15975(18) -0.1370(4) 0.1435(3)
C8A C -0.15152(17) -0.0070(4) 0.1023(3)
H6A H -0.1328 0.0018 0.0418
C9A C -0.13524(19) -0.2628(4) 0.0966(3)
H7A H -0.1231 -0.2372 0.0268
H8A H -0.1665 -0.3306 0.0745
C10A C -0.08279(17) -0.3279(4) 0.1829(3)
C23B C 0.0247(2) -0.0919(4) 0.5792(4)
H19B H 0.0426 -0.1536 0.6374
C24B C 0.0279(2) 0.0461(4) 0.6039(4)
H20B H 0.0481 0.0747 0.6782
N2B N -0.00316(15) -0.1406(3) 0.4750(3)
N2A N -0.00316(15) 0.1406(3) -0.0250(3)
O1A O -0.09769(12) 0.3398(3) -0.0019(2)
O2A O -0.06452(12) 0.2813(3) 0.1851(2)
O3A O -0.07578(12) -0.3006(3) 0.2870(2)
O3C O 0.07578(12) 0.3006(3) 0.7130(2)
O3B O -0.07578(12) 0.3006(3) -0.2130(2)
O4A O -0.05097(12) -0.4103(3) 0.1425(2)
O4B O -0.05097(12) 0.4103(3) 0.6425(2)
O4_2 O 0.05097(12) 0.5897(3) 0.3575(2)
O4A_2 O -0.05097(12) 0.5897(3) 0.1425(2)
O4C O 0.05097(12) 0.4103(3) -0.1425(2)
O5A O -0.03265(11) 0.4306(2) 0.4000(2)
O5C O 0.03265(11) 0.5694(2) 0.6000(2)
O5B O -0.03265(11) 0.5694(2) -0.1000(2)
H21A H -0.0681 0.3803 0.3787
H21C H 0.0681 0.6197 0.6213
H21B H -0.0681 0.6197 -0.1213
Co3 Co 0.48068(2) 0.13904(5) 0.53562(4)
Co4 Co 0.5000 0.06986(7) 0.2500
C11 C 0.39519(17) 0.2004(4) 0.3043(3)
C12 C 0.33286(18) 0.2422(4) 0.2417(4)
H9 H 0.3166 0.1731 0.1832
H10 H 0.3087 0.2429 0.2975
C13 C 0.32805(17) 0.3802(4) 0.1830(3)
C14 C 0.30126(19) 0.3951(4) 0.0653(4)
H11 H 0.2883 0.3177 0.0199
C15 C 0.2936(2) 0.5242(5) 0.0146(4)
H12 H 0.2746 0.5329 -0.0642
C16 C 0.31351(19) 0.6391(4) 0.0791(4)
H13 H 0.3083 0.7252 0.0439
C17 C 0.34171(17) 0.6277(4) 0.1978(4)
C18 C 0.34859(17) 0.4980(4) 0.2473(3)
H14 H 0.3675 0.4892 0.3261
C19 C 0.36598(19) 0.7539(4) 0.2697(4)
H15 H 0.3788 0.7273 0.3511
H16 H 0.3342 0.8202 0.2626
C20 C 0.41746(17) 0.8231(4) 0.2348(3)
C21 C 0.52378(19) 0.4083(4) 0.4428(4)
H17 H 0.5410 0.3470 0.4007
C22 C 0.5268(2) 0.5450(4) 0.4228(4)
H18 H 0.5462 0.5737 0.3672
N1 N 0.49675(15) 0.3594(3) 0.5213(3)
O6 O 0.40272(12) 0.1552(3) 0.4061(2)
O7 O 0.43457(12) 0.2136(3) 0.2506(2)
O8 O 0.42435(12) 0.7990(3) 0.1366(2)
O9 O 0.44902(12) 0.9068(3) 0.3070(2)
O10 O 0.46784(11) 0.0689(2) 0.0689(2)
H22 H 0.4291 0.1083 0.0543
Co3A Co 0.51932(2) 0.13904(5) -0.03562(4)
Co3C Co 0.48068(2) 0.86096(5) 0.03562(4)
Co3B Co 0.51932(2) 0.86096(5) 0.46438(4)
Co3C_2 Co 0.48068(2) -0.13904(5) 0.03562(4)
Co3B_2 Co 0.51932(2) -0.13904(5) 0.46438(4)
Co4_2 Co 0.5000 1.06986(7) 0.2500
C11A C 0.60481(17) 0.2004(4) 0.1957(3)
C12A C 0.66714(18) 0.2422(4) 0.2583(4)
H9A H 0.6834 0.1731 0.3168
H10A H 0.6913 0.2429 0.2025
C13A C 0.67195(17) 0.3802(4) 0.3170(3)
C14A C 0.69874(19) 0.3951(4) 0.4347(4)
H11A H 0.7117 0.3177 0.4801
C15A C 0.7064(2) 0.5242(5) 0.4854(4)
H12A H 0.7254 0.5329 0.5642
C16A C 0.68649(19) 0.6391(4) 0.4209(4)
H13A H 0.6917 0.7252 0.4561
C17A C 0.65829(17) 0.6277(4) 0.3022(4)
C18A C 0.65141(17) 0.4980(4) 0.2527(3)
H14A H 0.6325 0.4892 0.1739
C19A C 0.63402(19) 0.7539(4) 0.2303(4)
H15A H 0.6212 0.7273 0.1489
H16A H 0.6658 0.8202 0.2374
C20A C 0.58254(17) 0.8231(4) 0.2652(3)
C21B C 0.47622(19) 0.5917(4) 0.5572(4)
H17B H 0.4590 0.6530 0.5993
C22B C 0.4732(2) 0.4550(4) 0.5772(4)
H18B H 0.4538 0.4263 0.6328
N1B N 0.50325(15) 0.6406(3) 0.4787(3)
N1A N 0.50325(15) 0.3594(3) -0.0213(3)
O6A O 0.59728(12) 0.1552(3) 0.0939(2)
O7A O 0.56543(12) 0.2136(3) 0.2494(2)
O8A O 0.57565(12) 0.7990(3) 0.3634(2)
O8C O 0.42435(12) 0.2010(3) 0.6366(2)
O8B O 0.57565(12) 0.2010(3) -0.1366(2)
O9A O 0.55098(12) 0.9068(3) 0.1930(2)
O9B O 0.55098(12) 0.0932(3) 0.6930(2)
O9_2 O 0.44902(12) -0.0932(3) 0.3070(2)
O9A_2 O 0.55098(12) -0.0932(3) 0.1930(2)
O9C O 0.44902(12) 0.0932(3) -0.1930(2)
O10A O 0.53216(11) 0.0689(2) 0.4311(2)
O10C O 0.46784(11) -0.0689(2) 0.5689(2)
O10B O 0.53216(11) -0.0689(2) -0.0689(2)
H22A H 0.5709 0.1083 0.4457
H22C H 0.4291 -0.1083 0.5543
H22B H 0.5709 -0.1083 -0.0543
O11 O 0.3230(2) 0.9882(4) 0.4973(3)
H23 H 0.3503 1.0432 0.4861
H24 H 0.3010 0.9555 0.4330
H25 H 0.1462 0.4598 0.6399
H26 H 0.1934 0.5462 0.6211
O12 O 0.17563(19) 0.5136(4) 0.6702(4)
loop_
_geom_bond_atom_site_label_1
_geom_bond_atom_site_label_2
_geom_bond_site_symmetry_1
_geom_bond_site_symmetry_2
Co1 N2 1_555 1_555
Co2 O2 1_555 1_555
Co3 N1 1_555 1_555
Co4 O7 1_555 1_555
C1 C2 1_555 1_555
C2 H1 1_555 1_555
H2 C2 1_555 1_555
C3 C2 1_555 1_555
C4 C3 1_555 1_555
H3 C4 1_555 1_555
C5 C4 1_555 1_555
H4 C5 1_555 1_555
C6 C5 1_555 1_555
H5 C6 1_555 1_555
C7 C6 1_555 1_555
C8 C3 1_555 1_555
H6 C8 1_555 1_555
C9 C7 1_555 1_555
H7 C9 1_555 1_555
H8 C9 1_555 1_555
C10 C9 1_555 1_555
C11 C12 1_555 1_555
C12 H9 1_555 1_555
H10 C12 1_555 1_555
C13 C12 1_555 1_555
C14 C13 1_555 1_555
H11 C14 1_555 1_555
C15 C14 1_555 1_555
H12 C15 1_555 1_555
C16 C15 1_555 1_555
H13 C16 1_555 1_555
C17 C16 1_555 1_555
C18 C13 1_555 1_555
H14 C18 1_555 1_555
C19 C17 1_555 1_555
H15 C19 1_555 1_555
H16 C19 1_555 1_555
C20 C19 1_555 1_555
C21 H17 1_555 1_555
C22 C21 1_555 1_555
H18 C22 1_555 1_555
C23 H19 1_555 1_555
C24 C23 1_555 1_555
H20 C24 1_555 1_555
N1 C21 1_555 1_555
N2 C23 1_555 1_555
O1 Co1 1_555 1_555
O2 C1 1_555 1_555
O3 C10 1_555 1_555
O4 C10 1_555 1_555
O5 Co2 1_555 1_555
O6 Co3 1_555 1_555
O7 C11 1_555 1_555
O8 C20 1_555 1_555
O9 C20 1_555 1_555
O10 Co4 1_555 1_555
O11 H23 1_555 1_555
H21 O5 1_555 1_555
H22 O10 1_555 1_555
H24 O11 1_555 1_555
H25 O12 1_555 1_555
H26 O12 1_555 1_555
Co1A O5 1_555 1_555
Co1C O3 1_555 1_555
Co1B O4 1_555 1_555
Co1C_2 O5 1_555 1_555
Co1B_2 O4_2 1_555 1_555
Co2_2 O4 1_555 1_555
Co3A O10 1_555 1_555
Co3C O8 1_555 1_555
Co3B O9 1_555 1_555
Co3C_2 O10 1_555 1_555
Co3B_2 O9_2 1_555 1_555
Co4_2 O9 1_555 1_555
C1A C2A 1_555 1_555
C2A H1A 1_555 1_555
H2A C2A 1_555 1_555
C3A C2A 1_555 1_555
C4A C3A 1_555 1_555
H3A C4A 1_555 1_555
C5A C4A 1_555 1_555
H4A C5A 1_555 1_555
C6A C5A 1_555 1_555
H5A C6A 1_555 1_555
C7A C6A 1_555 1_555
C8A C3A 1_555 1_555
H6A C8A 1_555 1_555
C9A C7A 1_555 1_555
H7A C9A 1_555 1_555
H8A C9A 1_555 1_555
C10A C9A 1_555 1_555
C11A C12A 1_555 1_555
C12A H9A 1_555 1_555
H10A C12A 1_555 1_555
C13A C12A 1_555 1_555
C14A C13A 1_555 1_555
H11A C14A 1_555 1_555
C15A C14A 1_555 1_555
H12A C15A 1_555 1_555
C16A C15A 1_555 1_555
H13A C16A 1_555 1_555
C17A C16A 1_555 1_555
C18A C13A 1_555 1_555
H14A C18A 1_555 1_555
C19A C17A 1_555 1_555
H15A C19A 1_555 1_555
H16A C19A 1_555 1_555
C20A C19A 1_555 1_555
C21B H17B 1_555 1_555
C22B N1 1_555 1_555
H18B C22B 1_555 1_555
C23B H19B 1_555 1_555
C24B N2 1_555 1_555
H20B C24B 1_555 1_555
N1B C22 1_555 1_555
N1A Co3A 1_555 1_555
N2B C24 1_555 1_555
N2A Co1A 1_555 1_555
O1A Co1A 1_555 1_555
O2A Co2 1_555 1_555
O3A Co1B 1_555 1_555
O3C Co1 1_555 1_555
O3B Co1A 1_555 1_555
O4A Co1C 1_555 1_555
O4B Co1 1_555 1_555
O4_2 Co2 1_555 1_555
O4A_2 Co2 1_555 1_555
O4C Co1A 1_555 1_555
O5A Co1 1_555 1_555
O5C Co1 1_555 1_555
O5B Co1A 1_555 1_555
O6A Co3A 1_555 1_555
O7A Co4 1_555 1_555
O8A Co3B 1_555 1_555
O8C Co3 1_555 1_555
O8B Co3A 1_555 1_555
O9A Co3C 1_555 1_555
O9B Co3 1_555 1_555
O9_2 Co4 1_555 1_555
O9A_2 Co4 1_555 1_555
O9C Co3A 1_555 1_555
O10A Co3 1_555 1_555
O10C Co3 1_555 1_555
O10B Co3A 1_555 1_555
H21A O5A 1_555 1_555
H21C O5C 1_555 1_555
H21B O5B 1_555 1_555
H22A O10A 1_555 1_555
H22C O10C 1_555 1_555
H22B O10B 1_555 1_555
Co2 O5A 1_555 1_555
Co4 O10A 1_555 1_555
C1 O1 1_555 1_555
C7 C8 1_555 1_555
C11 O6 1_555 1_555
C17 C18 1_555 1_555
Co1B N2B 1_555 1_555
Co1C_2 O4A_2 1_555 1_555
Co1C_2 O5B 1_555 1_555
Co1B_2 O5A 1_555 1_555
Co1B_2 O5C 1_555 1_555
Co2_2 O4A 1_555 1_555
Co3B N1B 1_555 1_555
Co3C_2 O9A_2 1_555 1_555
Co3C_2 O10B 1_555 1_555
Co3B_2 O10A 1_555 1_555
Co3B_2 O10C 1_555 1_555
Co4_2 O9A 1_555 1_555
C1A O1A 1_555 1_555
C1A O2A 1_555 1_555
C7A C8A 1_555 1_555
C10A O3A 1_555 1_555
C10A O4A 1_555 1_555
C11A O6A 1_555 1_555
C11A O7A 1_555 1_555
C17A C18A 1_555 1_555
C20A O8A 1_555 1_555
C20A O9A 1_555 1_555
C21B C22B 1_555 1_555
C21B N1B 1_555 1_555
C23B C24B 1_555 1_555
C23B N2B 1_555 1_555

#END
