
#######################################################################
#
#                 Cambridge Crystallographic Data Centre
#                                CCDC 
#
#######################################################################
#
# If this CIF has been generated from an entry in the Cambridge 
# Structural Database, then it will include bibliographic, chemical, 
# crystal, experimental, refinement or atomic coordinate data resulting 
# from the CCDC's data processing and validation procedures.
#
#######################################################################

data_IPAXON
_symmetry_cell_setting           orthorhombic
_symmetry_space_group_name_H-M   'P n m a'
_symmetry_Int_Tables_number      62
_space_group_name_Hall           '-P 2ac 2n'
loop_
_symmetry_equiv_pos_site_id
_symmetry_equiv_pos_as_xyz
1 x,y,z
2 1/2-x,-y,1/2+z
3 -x,1/2+y,-z
4 1/2+x,1/2-y,1/2-z
5 -x,-y,-z
6 1/2+x,y,1/2-z
7 x,1/2-y,z
8 1/2-x,1/2+y,1/2+z
_cell_length_a                   14.8986(8)
_cell_length_b                   6.4002(4)
_cell_length_c                   10.9570(6)
_cell_angle_alpha                90
_cell_angle_beta                 90
_cell_angle_gamma                90
_cell_volume                     1044.79
loop_
_atom_site_label
_atom_site_type_symbol
_atom_site_fract_x
_atom_site_fract_y
_atom_site_fract_z
Co1 Co 0.5000 0.0000 1.0000
C1 C 0.3041(2) 0.2500 1.3354(4)
H1 H 0.3237 0.2500 1.2520
H2 H 0.2686 0.3725 1.3506
C2 C 0.3705(3) 0.2500 1.5397(3)
H3 H 0.3123 0.2500 1.5703
C3 C 0.4407(3) 0.2500 1.6185(3)
H4 H 0.4308 0.2500 1.7023
C4 C 0.5273(3) 0.2500 1.5727(3)
H5 H 0.5762 0.2500 1.6254
C5 C 0.5401(2) 0.2500 1.4485(3)
H6 H 0.5980 0.2500 1.4167
C6 C 0.4667(2) 0.2500 1.3703(3)
C7 C 0.4792(2) 0.2500 1.2326(3)
N1 N 0.40866(18) 0.2500 0.9558(3)
N2 N 0.3311(2) 0.2500 0.9839(3)
N3 N 0.2568(3) 0.2500 1.0102(4)
N4 N 0.59582(19) 0.2500 0.9761(2)
N5 N 0.64163(18) 0.2500 0.8853(3)
N6 N 0.6871(2) 0.2500 0.8004(3)
N7 N 0.38335(19) 0.2500 1.4172(2)
O1 O 0.48422(11) 0.0742(3) 1.18538(14)
Co1B Co 0.5000 0.5000 1.0000
H2F H 0.2686 0.1275 1.3506
N1B N 0.59134(18) -0.2500 1.0442(3)
N4B N 0.40418(19) -0.2500 1.0239(2)
O1F O 0.48422(11) 0.4258(3) 1.18538(14)
O1D O 0.51578(11) -0.0742(3) 0.81462(14)
loop_
_geom_bond_atom_site_label_1
_geom_bond_atom_site_label_2
_geom_bond_site_symmetry_1
_geom_bond_site_symmetry_2
Co1 N1 1_555 1_555
C1 H1 1_555 1_555
H2 C1 1_555 1_555
C2 H3 1_555 1_555
C3 C2 1_555 1_555
H4 C3 1_555 1_555
C4 C3 1_555 1_555
H5 C4 1_555 1_555
C5 C4 1_555 1_555
H6 C5 1_555 1_555
C6 C5 1_555 1_555
C7 C6 1_555 1_555
N1 N2 1_555 1_555
N2 N3 1_555 1_555
N4 Co1 1_555 1_555
N5 N4 1_555 1_555
N6 N5 1_555 1_555
N7 C1 1_555 1_555
O1 Co1 1_555 1_555
Co1B N1 1_555 1_555
H2F C1 1_555 1_555
N1B Co1 1_555 1_555
N4B Co1 1_555 1_555
O1F C7 1_555 1_555
O1D Co1 1_555 1_555
C2 N7 1_555 1_555
C6 N7 1_555 1_555
C7 O1 1_555 1_555
N4 Co1B 1_555 1_555
Co1B O1F 1_555 1_555

#END
