
#######################################################################
#
#                 Cambridge Crystallographic Data Centre
#                                CCDC 
#
#######################################################################
#
# If this CIF has been generated from an entry in the Cambridge 
# Structural Database, then it will include bibliographic, chemical, 
# crystal, experimental, refinement or atomic coordinate data resulting 
# from the CCDC's data processing and validation procedures.
#
#######################################################################

data_IPAXAY
_symmetry_cell_setting           orthorhombic
_symmetry_space_group_name_H-M   'C m c m'
_symmetry_Int_Tables_number      63
_space_group_name_Hall           '-C 2n 2'
loop_
_symmetry_equiv_pos_site_id
_symmetry_equiv_pos_as_xyz
1 x,y,z
2 1/2+x,1/2+y,z
3 x,y,1/2-z
4 x,-y,1/2+z
5 -x,y,z
6 1/2+x,1/2+y,1/2-z
7 1/2+x,1/2-y,1/2+z
8 1/2-x,1/2+y,z
9 -x,-y,-z
10 1/2-x,1/2-y,-z
11 -x,-y,1/2+z
12 -x,y,1/2-z
13 x,-y,-z
14 1/2-x,1/2-y,1/2+z
15 1/2-x,1/2+y,1/2-z
16 1/2+x,1/2-y,-z
_cell_length_a                   10.377(4)
_cell_length_b                   13.594(5)
_cell_length_c                   15.999(6)
_cell_angle_alpha                90
_cell_angle_beta                 90
_cell_angle_gamma                90
_cell_volume                     2256.9
loop_
_atom_site_label
_atom_site_type_symbol
_atom_site_fract_x
_atom_site_fract_y
_atom_site_fract_z
Co1 Co 0.0000 0.5000 0.0000
N1 N 0.1408(4) 0.4015(3) 0.0506(2)
N2 N 0.1151(3) 0.3058(3) 0.0678(2)
N3 N 0.0000 0.5785(4) 0.1132(3)
N4 N 0.0000 0.6567(6) 0.2500
C1 C 0.2063(5) 0.2653(4) 0.1164(3)
H1 H 0.2081 0.2008 0.1358
C2 C 0.2950(5) 0.3358(4) 0.1317(3)
H2 H 0.3699 0.3298 0.1633
C3 C 0.2507(5) 0.4191(4) 0.0906(3)
H3 H 0.2926 0.4796 0.0909
C4 C 0.0000 0.2606(5) 0.0339(4)
H4 H 0.0000 0.1910 0.0471
H5 H 0.0000 0.2674 -0.0264
C5 C 0.0000 0.6096(5) 0.1792(4)
N2D N -0.1151(3) 0.3058(3) 0.0678(2)
N1D N -0.1408(4) 0.4015(3) 0.0506(2)
C3D C -0.2507(5) 0.4191(4) 0.0906(3)
C2D C -0.2950(5) 0.3358(4) 0.1317(3)
C1D C -0.2063(5) 0.2653(4) 0.1164(3)
H1D H -0.2081 0.2008 0.1358
H2D H -0.3699 0.3298 0.1633
H3D H -0.2926 0.4796 0.0909
C5B C 0.0000 0.6096(5) 0.3208(4)
N3B N 0.0000 0.5785(4) 0.3868(3)
N1H N -0.1408(4) 0.5985(3) -0.0506(2)
N2H N -0.1151(3) 0.6942(3) -0.0678(2)
C1H C -0.2063(5) 0.7347(4) -0.1164(3)
H1H H -0.2081 0.7992 -0.1358
C2H C -0.2950(5) 0.6642(4) -0.1317(3)
H2H H -0.3699 0.6702 -0.1633
C3H C -0.2507(5) 0.5809(4) -0.0906(3)
H3H H -0.2926 0.5204 -0.0909
C4H C 0.0000 0.7394(5) -0.0339(4)
H4H H 0.0000 0.8090 -0.0471
H5H H 0.0000 0.7326 0.0264
N2L N 0.1151(3) 0.6942(3) -0.0678(2)
N1L N 0.1408(4) 0.5985(3) -0.0506(2)
C3L C 0.2507(5) 0.5809(4) -0.0906(3)
C2L C 0.2950(5) 0.6642(4) -0.1317(3)
C1L C 0.2063(5) 0.7347(4) -0.1164(3)
H1L H 0.2081 0.7992 -0.1358
H2L H 0.3699 0.6702 -0.1633
H3L H 0.2926 0.5204 -0.0909
N3H N 0.0000 0.4215(4) -0.1132(3)
Co1B Co 0.0000 0.5000 0.5000
Cl1 Cl 0.5000 0.5576(3) 0.2500
O1 O 0.5000 0.4533(6) 0.2500
O2 O 0.5000 0.5722(10) 0.3378(5)
O4 O 0.5000 0.6632(8) 0.2500
O2B O 0.5000 0.5722(10) 0.1622(5)
O3? O 0.6450(8) 0.5766(9) 0.2500
loop_
_geom_bond_atom_site_label_1
_geom_bond_atom_site_label_2
_geom_bond_site_symmetry_1
_geom_bond_site_symmetry_2
Co1 N1 1_555 1_555
N1 N2 1_555 1_555
N2 C1 1_555 1_555
N3 Co1 1_555 1_555
N4 C5 1_555 1_555
C1 H1 1_555 1_555
C2 C1 1_555 1_555
H2 C2 1_555 1_555
C3 N1 1_555 1_555
H3 C3 1_555 1_555
C4 N2 1_555 1_555
H4 C4 1_555 1_555
H5 C4 1_555 1_555
C5 N3 1_555 1_555
Cl1 O1 1_555 1_555
O2 Cl1 1_555 1_555
O4 Cl1 1_555 1_555
N2D C4 1_555 1_555
N1D Co1 1_555 1_555
C3D N1D 1_555 1_555
C2D C3D 1_555 1_555
C1D N2D 1_555 1_555
H1D C1D 1_555 1_555
H2D C2D 1_555 1_555
H3D C3D 1_555 1_555
C5B N4 1_555 1_555
N3B C5B 1_555 1_555
O2B Cl1 1_555 1_555
N1H Co1 1_555 1_555
N2H N1H 1_555 1_555
C1H N2H 1_555 1_555
H1H C1H 1_555 1_555
C2H C1H 1_555 1_555
H2H C2H 1_555 1_555
C3H N1H 1_555 1_555
H3H C3H 1_555 1_555
C4H N2H 1_555 1_555
H4H C4H 1_555 1_555
H5H C4H 1_555 1_555
N2L C4H 1_555 1_555
N1L Co1 1_555 1_555
C3L N1L 1_555 1_555
C2L C3L 1_555 1_555
C1L N2L 1_555 1_555
H1L C1L 1_555 1_555
H2L C2L 1_555 1_555
H3L C3L 1_555 1_555
N3H Co1 1_555 1_555
Co1B N3B 1_555 1_555
C2 C3 1_555 1_555
N2D N1D 1_555 1_555
C2D C1D 1_555 1_555
C2H C3H 1_555 1_555
N2L N1L 1_555 1_555
C2L C1L 1_555 1_555

#END
