
#######################################################################
#
#                 Cambridge Crystallographic Data Centre
#                                CCDC 
#
#######################################################################
#
# If this CIF has been generated from an entry in the Cambridge 
# Structural Database, then it will include bibliographic, chemical, 
# crystal, experimental, refinement or atomic coordinate data resulting 
# from the CCDC's data processing and validation procedures.
#
#######################################################################

data_IPAZUV
_symmetry_cell_setting           orthorhombic
_symmetry_space_group_name_H-M   'P b c a'
_symmetry_Int_Tables_number      61
_space_group_name_Hall           '-P 2ac 2ab'
loop_
_symmetry_equiv_pos_site_id
_symmetry_equiv_pos_as_xyz
1 x,y,z
2 1/2-x,-y,1/2+z
3 1/2+x,1/2-y,-z
4 -x,1/2+y,1/2-z
5 -x,-y,-z
6 1/2+x,y,1/2-z
7 1/2-x,1/2+y,z
8 x,1/2-y,1/2+z
_cell_length_a                   16.6595(6)
_cell_length_b                   12.7896(5)
_cell_length_c                   17.4093(6)
_cell_angle_alpha                90
_cell_angle_beta                 90
_cell_angle_gamma                90
_cell_volume                     3709.37
loop_
_atom_site_label
_atom_site_type_symbol
_atom_site_fract_x
_atom_site_fract_y
_atom_site_fract_z
C1 C 0.4546(2) -0.1329(2) -0.0517(2)
C2 C 0.45066(16) -0.2085(2) -0.11717(19)
C3 C 0.40351(18) -0.1806(2) -0.1779(2)
H1 H 0.3746 -0.1184 -0.1760
C4 C 0.39819(19) -0.2446(3) -0.24290(19)
H2 H 0.3673 -0.2225 -0.2843
C5 C 0.42486(19) -0.3990(3) -0.3196(2)
C6 C 0.43693(18) -0.3383(2) -0.24743(19)
C7 C 0.48455(18) -0.3723(2) -0.1838(2)
C8 C 0.49298(17) -0.3065(3) -0.11847(19)
C9 C 0.5389(2) -0.3399(3) -0.0556(2)
H3 H 0.5445 -0.2966 -0.0130
C10 C 0.5754(2) -0.4348(3) -0.0563(3)
H4 H 0.6060 -0.4559 -0.0144
C11 C 0.5672(2) -0.5005(4) -0.1191(2)
H5 H 0.5923 -0.5655 -0.1188
C12 C 0.5227(2) -0.4710(3) -0.1813(2)
H6 H 0.5173 -0.5165 -0.2226
C13 C 0.2693(2) 0.1079(3) -0.0132(2)
H7 H 0.2768 0.0691 -0.0578
C14 C 0.2216(2) 0.1917(3) -0.0068(3)
H8 H 0.1905 0.2215 -0.0454
C15 C 0.27895(18) 0.1607(3) 0.1032(2)
C16 C 0.2997(2) 0.1723(3) 0.1830(3)
C17 C 0.3000(2) 0.0842(4) 0.2309(3)
H9 H 0.2859 0.0191 0.2111
C18 C 0.3213(3) 0.0939(4) 0.3088(4)
H10 H 0.3197 0.0363 0.3415
C19 C 0.3441(3) 0.1881(4) 0.3349(4)
H11 H 0.3612 0.1930 0.3857
C20 C 0.3438(3) 0.2746(5) 0.2930(4)
H12 H 0.3586 0.3382 0.3147
C21 C 0.3206(2) 0.2690(4) 0.2137(3)
H13 H 0.3195 0.3289 0.1834
O1 O 0.38959(12) -0.09174(16) -0.03081(13)
O2 O 0.52068(12) -0.11331(16) -0.01992(12)
O3 O 0.46983(13) -0.47196(17) -0.33945(13)
O4 O 0.36717(14) -0.37346(17) -0.36289(14)
Zn1 Zn 0.404313(18) 0.00066(4) 0.060158(19)
N1 N 0.30512(14) 0.0882(2) 0.05547(19)
N2 N 0.22737(16) 0.2243(2) 0.0664(2)
H14 H 0.2025 0.2766 0.0862
O2D O 0.47932(12) 0.11331(16) 0.01992(12)
O3G O 0.46983(13) -0.02804(17) 0.16055(13)
O4G O 0.36717(14) -0.12654(17) 0.13711(14)
Zn1D Zn 0.595687(18) -0.00066(4) -0.060158(19)
Zn1G Zn 0.404313(18) -0.50066(4) -0.439842(19)
loop_
_geom_bond_atom_site_label_1
_geom_bond_atom_site_label_2
_geom_bond_site_symmetry_1
_geom_bond_site_symmetry_2
C1 C2 1_555 1_555
C2 C3 1_555 1_555
C3 H1 1_555 1_555
C4 C3 1_555 1_555
H2 C4 1_555 1_555
C5 C6 1_555 1_555
C6 C4 1_555 1_555
C7 C6 1_555 1_555
C8 C2 1_555 1_555
C9 C8 1_555 1_555
H3 C9 1_555 1_555
C10 C9 1_555 1_555
H4 C10 1_555 1_555
C11 C10 1_555 1_555
H5 C11 1_555 1_555
C12 C7 1_555 1_555
H6 C12 1_555 1_555
C13 H7 1_555 1_555
C14 C13 1_555 1_555
H8 C14 1_555 1_555
C15 C16 1_555 1_555
C16 C17 1_555 1_555
C17 H9 1_555 1_555
C18 C17 1_555 1_555
H10 C18 1_555 1_555
C19 C18 1_555 1_555
H11 C19 1_555 1_555
C20 C19 1_555 1_555
H12 C20 1_555 1_555
C21 C16 1_555 1_555
H13 C21 1_555 1_555
O1 C1 1_555 1_555
O2 C1 1_555 1_555
O3 C5 1_555 1_555
O4 C5 1_555 1_555
Zn1 O1 1_555 1_555
N1 C13 1_555 1_555
N2 C14 1_555 1_555
H14 N2 1_555 1_555
O2D Zn1 1_555 1_555
O3G Zn1 1_555 1_555
O4G Zn1 1_555 1_555
Zn1D O2 1_555 1_555
Zn1G O3 1_555 1_555
C7 C8 1_555 1_555
C11 C12 1_555 1_555
C15 N1 1_555 1_555
C15 N2 1_555 1_555
C20 C21 1_555 1_555
O4 Zn1G 1_555 1_555
Zn1 N1 1_555 1_555

#END
