
#######################################################################
#
#                 Cambridge Crystallographic Data Centre
#                                CCDC 
#
#######################################################################
#
# If this CIF has been generated from an entry in the Cambridge 
# Structural Database, then it will include bibliographic, chemical, 
# crystal, experimental, refinement or atomic coordinate data resulting 
# from the CCDC's data processing and validation procedures.
#
#######################################################################

data_IPEBAH
_symmetry_cell_setting           monoclinic
_symmetry_space_group_name_H-M   'C 2/c'
_symmetry_Int_Tables_number      15
_space_group_name_Hall           '-C 2yn'
loop_
_symmetry_equiv_pos_site_id
_symmetry_equiv_pos_as_xyz
1 x,y,z
2 -x,y,1/2-z
3 1/2+x,1/2+y,z
4 1/2-x,1/2+y,1/2-z
5 -x,-y,-z
6 x,-y,1/2+z
7 1/2-x,1/2-y,-z
8 1/2+x,1/2-y,1/2+z
_cell_length_a                   17.779(4)
_cell_length_b                   18.305(4)
_cell_length_c                   15.540(4)
_cell_angle_alpha                90
_cell_angle_beta                 123.389(4)
_cell_angle_gamma                90
_cell_volume                     4222.7
loop_
_atom_site_label
_atom_site_type_symbol
_atom_site_fract_x
_atom_site_fract_y
_atom_site_fract_z
C1 C 0.3056(4) -0.0215(3) 0.0878(4)
H1 H 0.3546 0.0100 0.1171
C2 C 0.2864(5) -0.0732(3) 0.0162(5)
H2 H 0.3189 -0.0832 -0.0130
C3 C 0.1863(4) -0.0762(3) 0.0536(4)
H3 H 0.1363 -0.0902 0.0542
C4 C 0.1665(5) -0.1694(3) -0.0749(5)
H4 H 0.1739 -0.1651 -0.1320
H5 H 0.1025 -0.1678 -0.1027
C5 C 0.2045(4) -0.2422(4) -0.0214(6)
H6 H 0.1939 -0.2459 0.0334
H7 H 0.1693 -0.2804 -0.0708
C6 C 0.1168(4) -0.0213(3) 0.2827(5)
H8 H 0.0665 0.0086 0.2453
C7 C 0.1318(5) -0.0676(4) 0.3579(5)
H9 H 0.0949 -0.0751 0.3823
C8 C 0.2407(5) -0.0737(3) 0.3378(5)
H10 H 0.2950 -0.0874 0.3468
C9 C 0.2602(6) -0.1524(3) 0.4783(5)
H11 H 0.3229 -0.1533 0.5003
H12 H 0.2577 -0.1350 0.5357
C10 C 0.2248(6) -0.2248(3) 0.4525(5)
H13 H 0.2307 -0.2437 0.3982
H14 H 0.1612 -0.2239 0.4270
C11 C 0.3655(5) 0.1300(4) 0.3046(5)
C12 C 0.4262(4) 0.1869(3) 0.3833(4)
C13 C 0.4802(4) 0.1720(3) 0.4907(4)
C14 C 0.4876(4) 0.1024(3) 0.5314(5)
H15 H 0.4579 0.0634 0.4869
C15 C 0.5374(5) 0.0903(4) 0.6352(5)
H16 H 0.5402 0.0438 0.6608
C16 C 0.5841(5) 0.1480(4) 0.7027(5)
H17 H 0.6176 0.1398 0.7734
C17 C 0.5813(4) 0.2154(4) 0.6665(5)
H18 H 0.6138 0.2530 0.7126
C18 C 0.5294(3) 0.2300(3) 0.5591(4)
C19 C 0.5254(4) 0.3013(3) 0.5196(4)
C20 C 0.4752(5) 0.3111(4) 0.4155(5)
H19 H 0.4739 0.3569 0.3889
C21 C 0.4260(5) 0.2548(4) 0.3485(5)
H20 H 0.3921 0.2637 0.2780
C22 C 0.5762(6) 0.3639(4) 0.5899(6)
N1 N 0.2416(3) -0.0230(2) 0.1101(3)
N2 N 0.2112(3) -0.1074(2) -0.0044(3)
N3 N 0.1852(3) -0.0246(2) 0.2700(3)
N4 N 0.2101(4) -0.1008(3) 0.3905(4)
O1 O 0.3195(4) 0.0925(3) 0.3214(3)
O2 O 0.3593(4) 0.1286(3) 0.2217(4)
O3 O 0.6378(4) 0.3851(3) 0.5986(6)
O4 O 0.5682(7) 0.3718(4) 0.6671(7)
Zn1 Zn 0.21981(4) 0.04395(3) 0.19611(4)
C1F C 0.1944(4) -0.4785(3) -0.0878(4)
H1F H 0.1454 -0.5100 -0.1171
C2F C 0.2136(5) -0.4268(3) -0.0162(5)
H2F H 0.1811 -0.4168 0.0130
C3F C 0.3137(4) -0.4238(3) -0.0536(4)
H3F H 0.3637 -0.4098 -0.0542
C4F C 0.3335(5) -0.3306(3) 0.0749(5)
H4F H 0.3261 -0.3349 0.1320
H5F H 0.3975 -0.3322 0.1027
C5F C 0.2955(4) -0.2578(4) 0.0214(6)
H6F H 0.3061 -0.2541 -0.0334
H7F H 0.3307 -0.2196 0.0708
C6F C 0.3832(4) -0.4787(3) 0.7173(5)
H8F H 0.4335 -0.5086 0.7547
C7F C 0.3682(5) -0.4324(4) 0.6421(5)
H9F H 0.4051 -0.4249 0.6177
C8F C 0.2593(5) -0.4263(3) 0.6622(5)
H10F H 0.2050 -0.4126 0.6532
C9F C 0.2398(6) -0.3476(3) 0.5217(5)
H11F H 0.1771 -0.3467 0.4997
H12F H 0.2423 -0.3650 0.4643
C10F C 0.2752(6) -0.2752(3) 0.5475(5)
H13F H 0.2693 -0.2563 0.6018
H14F H 0.3388 -0.2761 0.5730
C11G C -0.1345(5) 0.3700(4) -0.1954(5)
C12G C -0.0738(4) 0.3131(3) -0.1167(4)
C13G C -0.0198(4) 0.3280(3) -0.0093(4)
C14G C -0.0124(4) 0.3976(3) 0.0314(5)
H15G H -0.0421 0.4366 -0.0131
C15G C 0.0374(5) 0.4097(4) 0.1352(5)
H16G H 0.0402 0.4562 0.1608
C16G C 0.0841(5) 0.3520(4) 0.2027(5)
H17G H 0.1176 0.3602 0.2734
C17G C 0.0813(4) 0.2846(4) 0.1665(5)
H18G H 0.1138 0.2470 0.2126
C18G C 0.0294(3) 0.2700(3) 0.0591(4)
C19G C 0.0254(4) 0.1987(3) 0.0196(4)
C20G C -0.0248(5) 0.1889(4) -0.0845(5)
H19G H -0.0261 0.1431 -0.1111
C21G C -0.0740(5) 0.2452(4) -0.1515(5)
H20G H -0.1079 0.2363 -0.2220
C22G C 0.0762(6) 0.1361(4) 0.0899(6)
N1F N 0.2584(3) -0.4770(2) -0.1101(3)
N2F N 0.2888(3) -0.3926(2) 0.0044(3)
N3F N 0.3148(3) -0.4754(2) 0.7300(3)
N3F_2 N 0.3148(3) -0.4754(2) -0.2700(3)
N4F N 0.2899(4) -0.3992(3) 0.6095(4)
O1G O -0.1805(4) 0.4075(3) -0.1786(3)
O1F O 0.1805(4) -0.5925(3) -0.3214(3)
O2G O -0.1407(4) 0.3714(3) -0.2783(4)
O3G O 0.1378(4) 0.1149(3) 0.0986(6)
O3A O 0.3622(4) -0.6149(3) -0.0986(6)
O4G O 0.0682(7) 0.1282(4) 0.1671(7)
Zn1F Zn 0.28019(4) -0.54395(3) -0.19611(4)
Zn1G Zn 0.71981(4) 0.45605(3) 0.69611(4)
Zn1F_2 Zn 0.28019(4) -0.54395(3) 0.80389(4)
Zn1G_2 Zn -0.28019(4) 0.45605(3) -0.30389(4)
O5 O 0.5000 0.0757(10) 0.2500
O6? O 0.5339(9) 0.4288(9) 0.5596(16)
loop_
_geom_bond_atom_site_label_1
_geom_bond_atom_site_label_2
_geom_bond_site_symmetry_1
_geom_bond_site_symmetry_2
C1 H1 1_555 1_555
C2 C1 1_555 1_555
H2 C2 1_555 1_555
C3 H3 1_555 1_555
C4 H4 1_555 1_555
H5 C4 1_555 1_555
C5 C4 1_555 1_555
H6 C5 1_555 1_555
H7 C5 1_555 1_555
C6 H8 1_555 1_555
C7 C6 1_555 1_555
H9 C7 1_555 1_555
C8 H10 1_555 1_555
C9 H11 1_555 1_555
H12 C9 1_555 1_555
C10 C9 1_555 1_555
H13 C10 1_555 1_555
H14 C10 1_555 1_555
C11 C12 1_555 1_555
C12 C13 1_555 1_555
C13 C14 1_555 1_555
C14 H15 1_555 1_555
C15 C14 1_555 1_555
H16 C15 1_555 1_555
C16 C15 1_555 1_555
H17 C16 1_555 1_555
C17 C16 1_555 1_555
H18 C17 1_555 1_555
C18 C13 1_555 1_555
C19 C18 1_555 1_555
C20 C19 1_555 1_555
H19 C20 1_555 1_555
C21 C12 1_555 1_555
H20 C21 1_555 1_555
C22 C19 1_555 1_555
N1 C1 1_555 1_555
N2 C2 1_555 1_555
N3 C6 1_555 1_555
N4 C7 1_555 1_555
O1 C11 1_555 1_555
O2 C11 1_555 1_555
O3 C22 1_555 1_555
O4 C22 1_555 1_555
Zn1 N1 1_555 1_555
C1F H1F 1_555 1_555
C2F C1F 1_555 1_555
H2F C2F 1_555 1_555
C3F H3F 1_555 1_555
C4F H4F 1_555 1_555
H5F C4F 1_555 1_555
C5F C5 1_555 1_555
H6F C5F 1_555 1_555
H7F C5F 1_555 1_555
C6F H8F 1_555 1_555
C7F C6F 1_555 1_555
H9F C7F 1_555 1_555
C8F H10F 1_555 1_555
C9F H11F 1_555 1_555
H12F C9F 1_555 1_555
C10F C10 1_555 1_555
H13F C10F 1_555 1_555
H14F C10F 1_555 1_555
C11G C12G 1_555 1_555
C12G C13G 1_555 1_555
C13G C14G 1_555 1_555
C14G H15G 1_555 1_555
C15G C14G 1_555 1_555
H16G C15G 1_555 1_555
C16G C15G 1_555 1_555
H17G C16G 1_555 1_555
C17G C16G 1_555 1_555
H18G C17G 1_555 1_555
C18G C13G 1_555 1_555
C19G C18G 1_555 1_555
C20G C19G 1_555 1_555
H19G C20G 1_555 1_555
C21G C12G 1_555 1_555
H20G C21G 1_555 1_555
C22G C19G 1_555 1_555
N1F C1F 1_555 1_555
N2F C2F 1_555 1_555
N3F C6F 1_555 1_555
N3F_2 Zn1F 1_555 1_555
N4F C7F 1_555 1_555
O1G C11G 1_555 1_555
O1F Zn1F 1_555 1_555
O2G C11G 1_555 1_555
O3G Zn1 1_555 1_555
O3A Zn1F 1_555 1_555
O4G C22G 1_555 1_555
Zn1F N1F 1_555 1_555
Zn1G O3 1_555 1_555
Zn1F_2 N3F 1_555 1_555
Zn1G_2 O1G 1_555 1_555
C3 N1 1_555 1_555
C3 N2 1_555 1_555
C4 N2 1_555 1_555
C8 N3 1_555 1_555
C8 N4 1_555 1_555
C9 N4 1_555 1_555
C17 C18 1_555 1_555
C20 C21 1_555 1_555
N3 Zn1 1_555 1_555
O1 Zn1 1_555 1_555
C3F N1F 1_555 1_555
C3F N2F 1_555 1_555
C4F C5F 1_555 1_555
C4F N2F 1_555 1_555
C8F N3F 1_555 1_555
C8F N4F 1_555 1_555
C9F C10F 1_555 1_555
C9F N4F 1_555 1_555
C17G C18G 1_555 1_555
C20G C21G 1_555 1_555
C22G O3G 1_555 1_555

#END
