
#######################################################################
#
#                 Cambridge Crystallographic Data Centre
#                                CCDC 
#
#######################################################################
#
# If this CIF has been generated from an entry in the Cambridge 
# Structural Database, then it will include bibliographic, chemical, 
# crystal, experimental, refinement or atomic coordinate data resulting 
# from the CCDC's data processing and validation procedures.
#
#######################################################################

data_IPECEL09
_symmetry_cell_setting           monoclinic
_symmetry_space_group_name_H-M   'P 2'
_symmetry_Int_Tables_number      3
_space_group_name_Hall           'P 2y'
loop_
_symmetry_equiv_pos_site_id
_symmetry_equiv_pos_as_xyz
1 x,y,z
2 -x,y,-z
_cell_length_a                   8.865(2)
_cell_length_b                   4.1781(8)
_cell_length_c                   8.876(2)
_cell_angle_alpha                90
_cell_angle_beta                 96.00(3)
_cell_angle_gamma                90
_cell_volume                     326.956
loop_
_atom_site_label
_atom_site_type_symbol
_atom_site_fract_x
_atom_site_fract_y
_atom_site_fract_z
Cd1 Cd 0.0000 -0.2527(14) 0.0000
I1 I 0.16166(7) -0.7565(3) -0.16159(7)
N1 N 0.1998(9) -0.2443(85) 0.2008(9)
C1 C 0.1731(14) -0.263(11) 0.3452(14)
H1 H 0.0742(14) -0.296(11) 0.3679(14)
C2 C 0.2882(13) -0.233(13) 0.4633(13)
H2 H 0.2645(13) -0.185(13) 0.5604(13)
C3 C 0.4378(12) -0.276(10) 0.4369(12)
C4 C 0.4623(13) -0.275(13) 0.2878(14)
H3 H 0.5613(13) -0.281(13) 0.2620(14)
C5 C 0.3438(13) -0.2654(93) 0.1751(14)
H4 H 0.3661(13) -0.2742(93) 0.0751(14)
Cd1_2 Cd 0.0000 -1.2527(14) 0.0000
Cd1_3 Cd 1.0000 -0.2527(14) 1.0000
I1_2 I 0.16166(7) 0.2435(3) -0.16159(7)
I1A I -0.16166(7) -0.7565(3) 0.16159(7)
I1A_2 I -0.16166(7) 0.2435(3) 0.16159(7)
N1A N -0.1998(9) -0.2443(85) -0.2008(9)
N1A_2 N 0.8002(9) -0.2443(85) 0.7992(9)
C1A C 0.8269(14) -0.263(11) 0.6548(14)
H1A H 0.9258(14) -0.296(11) 0.6321(14)
C2A C 0.7118(13) -0.233(13) 0.5367(13)
H2A H 0.7355(13) -0.185(13) 0.4396(13)
C3A C 0.5622(12) -0.276(10) 0.5631(12)
C4A C 0.5377(13) -0.275(13) 0.7122(14)
H3A H 0.4387(13) -0.281(13) 0.7380(14)
C5A C 0.6562(13) -0.2654(93) 0.8249(14)
H4A H 0.6339(13) -0.2742(93) 0.9249(14)
loop_
_geom_bond_atom_site_label_1
_geom_bond_atom_site_label_2
_geom_bond_site_symmetry_1
_geom_bond_site_symmetry_2
Cd1 I1 1_555 1_555
I1 Cd1_2 1_555 1_555
N1 Cd1 1_555 1_555
C1 N1 1_555 1_555
H1 C1 1_555 1_555
C2 C1 1_555 1_555
H2 C2 1_555 1_555
C3 C2 1_555 1_555
C4 C3 1_555 1_555
H3 C4 1_555 1_555
C5 N1 1_555 1_555
H4 C5 1_555 1_555
Cd1_2 I1A 1_555 1_555
Cd1_3 N1A_2 1_555 1_555
I1_2 Cd1 1_555 1_555
I1A Cd1 1_555 1_555
I1A_2 Cd1 1_555 1_555
N1A Cd1 1_555 1_555
N1A_2 C1A 1_555 1_555
C1A H1A 1_555 1_555
C2A C1A 1_555 1_555
H2A C2A 1_555 1_555
C3A C3 1_555 1_555
C4A C3A 1_555 1_555
H3A C4A 1_555 1_555
C5A N1A_2 1_555 1_555
H4A C5A 1_555 1_555
C4 C5 1_555 1_555
C2A C3A 1_555 1_555
C4A C5A 1_555 1_555

#END
