
#######################################################################
#
#                 Cambridge Crystallographic Data Centre
#                                CCDC 
#
#######################################################################
#
# If this CIF has been generated from an entry in the Cambridge 
# Structural Database, then it will include bibliographic, chemical, 
# crystal, experimental, refinement or atomic coordinate data resulting 
# from the CCDC's data processing and validation procedures.
#
#######################################################################

data_IPECEL07
_symmetry_cell_setting           orthorhombic
_symmetry_space_group_name_H-M   'C m m m'
_symmetry_Int_Tables_number      65
_space_group_name_Hall           '-C 2 2'
loop_
_symmetry_equiv_pos_site_id
_symmetry_equiv_pos_as_xyz
1 x,y,z
2 -x,-y,z
3 x,-y,-z
4 -x,y,-z
5 1/2+x,1/2+y,z
6 1/2-x,1/2-y,z
7 1/2+x,1/2-y,-z
8 1/2-x,1/2+y,-z
9 -x,-y,-z
10 x,y,-z
11 -x,y,z
12 x,-y,z
13 1/2-x,1/2-y,-z
14 1/2+x,1/2+y,-z
15 1/2-x,1/2+y,z
16 1/2+x,1/2-y,z
_cell_length_a                   11.850(4)
_cell_length_b                   13.169(5)
_cell_length_c                   4.1661(16)
_cell_angle_alpha                90
_cell_angle_beta                 90
_cell_angle_gamma                90
_cell_volume                     650.131
loop_
_atom_site_label
_atom_site_type_symbol
_atom_site_fract_x
_atom_site_fract_y
_atom_site_fract_z
Cd1 Cd 0.0000 0.0000 0.0000
I1 I 0.0000 0.1620(1) -0.5000
N1 N -0.2002(5) 0.0000 0.0000
C1 C -0.2585(5) -0.0856(4) 0.0000
C2 C -0.3756(5) -0.0890(5) 0.0000
C3 C -0.4372(6) 0.0000 0.0000
H1 H -0.2182 -0.1479 0.0000
H2 H -0.4134 -0.1526 0.0000
C2B C -0.3756(5) 0.0890(5) 0.0000
C1B C -0.2585(5) 0.0856(4) 0.0000
H1B H -0.2182 0.1479 0.0000
H2B H -0.4134 0.1526 0.0000
C3A C -0.5628(6) 0.0000 0.0000
C2A C -0.6244(5) 0.0890(5) 0.0000
C1A C -0.7415(5) 0.0856(4) 0.0000
N1A N -0.7998(5) 0.0000 0.0000
C1C C -0.7415(5) -0.0856(4) 0.0000
C2C C -0.6244(5) -0.0890(5) 0.0000
H2C H -0.5866 -0.1526 0.0000
H1C H -0.7818 -0.1479 0.0000
H1A H -0.7818 0.1479 0.0000
H2A H -0.5866 0.1526 0.0000
I1_2 I 0.0000 0.1620(1) 0.5000
I1A I 0.0000 -0.1620(1) -0.5000
I1A_2 I 0.0000 -0.1620(1) 0.5000
N1A_2 N 0.2002(5) 0.0000 0.0000
Cd1_2 Cd 0.0000 0.0000 -1.0000
Cd1_3 Cd -1.0000 0.0000 0.0000
Cd1_4 Cd 0.0000 0.0000 1.0000
loop_
_geom_bond_atom_site_label_1
_geom_bond_atom_site_label_2
_geom_bond_site_symmetry_1
_geom_bond_site_symmetry_2
Cd1 I1 1_555 1_555
I1 Cd1_2 1_555 1_555
N1 Cd1 1_555 1_555
C1 N1 1_555 1_555
C2 C1 1_555 1_555
C3 C2 1_555 1_555
H1 C1 1_555 1_555
H2 C2 1_555 1_555
C2B C3 1_555 1_555
C1B N1 1_555 1_555
H1B C1B 1_555 1_555
H2B C2B 1_555 1_555
C3A C3 1_555 1_555
C2A C3A 1_555 1_555
C1A C2A 1_555 1_555
N1A C1A 1_555 1_555
C1C N1A 1_555 1_555
C2C C3A 1_555 1_555
H2C C2C 1_555 1_555
H1C C1C 1_555 1_555
H1A C1A 1_555 1_555
H2A C2A 1_555 1_555
I1_2 Cd1 1_555 1_555
I1A Cd1 1_555 1_555
I1A_2 Cd1 1_555 1_555
N1A_2 Cd1 1_555 1_555
Cd1_2 I1A 1_555 1_555
Cd1_3 N1A 1_555 1_555
Cd1_4 I1_2 1_555 1_555
C2B C1B 1_555 1_555
C1C C2C 1_555 1_555
I1A_2 Cd1_4 1_555 1_555

#END
