
#######################################################################
#
#                 Cambridge Crystallographic Data Centre
#                                CCDC 
#
#######################################################################
#
# If this CIF has been generated from an entry in the Cambridge 
# Structural Database, then it will include bibliographic, chemical, 
# crystal, experimental, refinement or atomic coordinate data resulting 
# from the CCDC's data processing and validation procedures.
#
#######################################################################

data_IPEDUC
_symmetry_cell_setting           monoclinic
_symmetry_space_group_name_H-M   'P 21/c'
_symmetry_Int_Tables_number      14
_space_group_name_Hall           '-P 2ybc'
loop_
_symmetry_equiv_pos_site_id
_symmetry_equiv_pos_as_xyz
1 x,y,z
2 -x,1/2+y,1/2-z
3 -x,-y,-z
4 x,1/2-y,1/2+z
_cell_length_a                   10.161(4)
_cell_length_b                   10.957(4)
_cell_length_c                   14.433(6)
_cell_angle_alpha                90
_cell_angle_beta                 100.532(6)
_cell_angle_gamma                90
_cell_volume                     1579.81
loop_
_atom_site_label
_atom_site_type_symbol
_atom_site_fract_x
_atom_site_fract_y
_atom_site_fract_z
Mn1 Mn 0.15151(5) 0.41209(5) 0.23779(3)
N1 N 0.2688(2) 0.5768(3) 0.30149(17)
N2 N 0.3521(3) 0.3431(3) 0.31059(17)
N3 N 0.0622(3) 0.3691(3) 0.36085(19)
N4 N -0.0250(3) 0.3399(3) 0.5062(2)
N5 N 0.0850(3) 0.2530(3) 0.6561(2)
N6 N 0.2563(3) 0.4565(3) 0.1103(2)
N7 N 0.2174(4) 0.4279(4) -0.0568(2)
N8 N 0.0183(3) 0.4808(3) -0.1724(2)
C1 C 0.2287(4) 0.6921(4) 0.2957(2)
H1 H 0.1411 0.7089 0.2669
C2 C 0.3115(4) 0.7892(4) 0.3305(3)
H2 H 0.2795 0.8688 0.3244
C3 C 0.4392(4) 0.7665(4) 0.3735(3)
H3 H 0.4948 0.8306 0.3979
C4 C 0.4873(4) 0.6463(4) 0.3810(2)
C5 C 0.6201(4) 0.6140(4) 0.4246(3)
H4 H 0.6797 0.6750 0.4496
C6 C 0.6606(4) 0.4976(4) 0.4301(2)
H5 H 0.7476 0.4791 0.4593
C7 C 0.5730(3) 0.4019(4) 0.3922(2)
C8 C 0.6097(4) 0.2780(5) 0.3974(3)
H6 H 0.6959 0.2554 0.4257
C9 C 0.5194(4) 0.1916(4) 0.3612(3)
H7 H 0.5427 0.1094 0.3653
C10 C 0.3905(4) 0.2274(4) 0.3176(2)
H8 H 0.3294 0.1675 0.2925
C11 C 0.4416(3) 0.4296(3) 0.3479(2)
C12 C 0.3976(3) 0.5538(3) 0.3431(2)
C13 C 0.0276(3) 0.3533(3) 0.4311(3)
C14 C 0.0392(3) 0.2927(3) 0.5846(2)
C15 C 0.2314(3) 0.4495(3) 0.0303(2)
C16 C 0.1077(4) 0.4581(3) -0.1152(2)
N5C N 0.0850(3) 0.2470(3) 0.1561(2)
N8B N -0.0183(3) 0.5192(3) 0.1724(2)
Mn1C Mn 0.15151(5) 0.08791(5) 0.73779(3)
Mn1B Mn -0.15151(5) 0.58791(5) -0.23779(3)
loop_
_geom_bond_atom_site_label_1
_geom_bond_atom_site_label_2
_geom_bond_site_symmetry_1
_geom_bond_site_symmetry_2
Mn1 N1 1_555 1_555
N1 C1 1_555 1_555
N2 Mn1 1_555 1_555
N3 Mn1 1_555 1_555
N4 C13 1_555 1_555
N5 C14 1_555 1_555
N6 Mn1 1_555 1_555
N7 C15 1_555 1_555
N8 C16 1_555 1_555
C1 H1 1_555 1_555
C2 C1 1_555 1_555
H2 C2 1_555 1_555
C3 C2 1_555 1_555
H3 C3 1_555 1_555
C4 C3 1_555 1_555
C5 C4 1_555 1_555
H4 C5 1_555 1_555
C6 C5 1_555 1_555
H5 C6 1_555 1_555
C7 C6 1_555 1_555
C8 C7 1_555 1_555
H6 C8 1_555 1_555
C9 C8 1_555 1_555
H7 C9 1_555 1_555
C10 N2 1_555 1_555
H8 C10 1_555 1_555
C11 N2 1_555 1_555
C12 N1 1_555 1_555
C13 N3 1_555 1_555
C14 N4 1_555 1_555
C15 N6 1_555 1_555
C16 N7 1_555 1_555
N5C Mn1 1_555 1_555
N8B Mn1 1_555 1_555
Mn1C N5 1_555 1_555
Mn1B N8 1_555 1_555
C4 C12 1_555 1_555
C7 C11 1_555 1_555
C9 C10 1_555 1_555
C11 C12 1_555 1_555

#END
