
#######################################################################
#
#                 Cambridge Crystallographic Data Centre
#                                CCDC 
#
#######################################################################
#
# If this CIF has been generated from an entry in the Cambridge 
# Structural Database, then it will include bibliographic, chemical, 
# crystal, experimental, refinement or atomic coordinate data resulting 
# from the CCDC's data processing and validation procedures.
#
#######################################################################

data_IPEDUC02
_symmetry_cell_setting           monoclinic
_symmetry_space_group_name_H-M   'P 21/c'
_symmetry_Int_Tables_number      14
_space_group_name_Hall           '-P 2ybc'
loop_
_symmetry_equiv_pos_site_id
_symmetry_equiv_pos_as_xyz
1 x,y,z
2 -x,1/2+y,1/2-z
3 -x,-y,-z
4 x,1/2-y,1/2+z
_cell_length_a                   10.087(4)
_cell_length_b                   10.824(5)
_cell_length_c                   14.387(6)
_cell_angle_alpha                90
_cell_angle_beta                 100.024(7)
_cell_angle_gamma                90
_cell_volume                     1546.82
loop_
_atom_site_label
_atom_site_type_symbol
_atom_site_fract_x
_atom_site_fract_y
_atom_site_fract_z
Mn1 Mn 0.14992(2) 0.07203(2) 0.236508(15)
N1 N 0.26975(12) -0.09255(12) 0.30391(8)
N2 N 0.35032(13) 0.14669(12) 0.30659(8)
N3 N 0.08294(15) 0.23754(14) 0.15094(10)
N4 N -0.02722(15) 0.33981(16) 0.00543(10)
N5 N 0.05980(14) 0.37844(13) -0.14061(9)
N6 N 0.25414(15) 0.02196(15) 0.10967(9)
N7 N 0.21526(15) 0.09444(15) -0.05431(10)
N8 N 0.02032(16) 0.03980(15) -0.17388(10)
C1 C 0.23024(16) -0.20983(15) 0.29999(11)
H1 H 0.1410 -0.2287 0.2700
C2 C 0.31466(18) -0.30706(17) 0.33821(12)
H2 H 0.2829 -0.3898 0.3338
C3 C 0.44283(18) -0.28128(16) 0.38175(12)
H3 H 0.5006 -0.3460 0.4087
C4 C 0.48916(16) -0.15835(16) 0.38659(10)
C5 C 0.62212(17) -0.12260(18) 0.43068(11)
H4 H 0.6832 -0.1839 0.4594
C6 C 0.66215(16) -0.00372(18) 0.43218(11)
H5 H 0.7511 0.0171 0.4615
C7 C 0.57269(16) 0.09202(16) 0.39029(10)
C8 C 0.60852(17) 0.21821(17) 0.39196(11)
H6 H 0.6966 0.2434 0.4200
C9 C 0.51585(18) 0.30404(17) 0.35300(11)
H7 H 0.5382 0.3894 0.3549
C10 C 0.38718(17) 0.26442(16) 0.31019(11)
H8 H 0.3237 0.3246 0.2826
C11 C 0.44082(15) 0.06090(14) 0.34708(10)
C12 C 0.39822(15) -0.06648(14) 0.34547(10)
C13 C 0.03713(16) 0.28437(15) 0.08047(11)
C14 C 0.02543(15) 0.35752(14) -0.07003(10)
C15 C 0.23062(15) 0.05206(14) 0.03148(11)
C16 C 0.10936(17) 0.06278(14) -0.11495(11)
Mn1B Mn -0.14992(2) -0.07203(2) -0.236508(15)
Mn1C Mn 0.14992(2) 0.42797(2) -0.263492(15)
N5C N 0.05980(14) 0.12156(13) 0.35939(9)
N8B N -0.02032(16) -0.03980(15) 0.17388(10)
loop_
_geom_bond_atom_site_label_1
_geom_bond_atom_site_label_2
_geom_bond_site_symmetry_1
_geom_bond_site_symmetry_2
Mn1 N1 1_555 1_555
N1 C1 1_555 1_555
N2 Mn1 1_555 1_555
N3 Mn1 1_555 1_555
N4 C13 1_555 1_555
N5 C14 1_555 1_555
N6 Mn1 1_555 1_555
N7 C15 1_555 1_555
N8 C16 1_555 1_555
C1 H1 1_555 1_555
C2 C1 1_555 1_555
H2 C2 1_555 1_555
C3 C2 1_555 1_555
H3 C3 1_555 1_555
C4 C3 1_555 1_555
C5 C4 1_555 1_555
H4 C5 1_555 1_555
C6 C5 1_555 1_555
H5 C6 1_555 1_555
C7 C6 1_555 1_555
C8 C7 1_555 1_555
H6 C8 1_555 1_555
C9 C8 1_555 1_555
H7 C9 1_555 1_555
C10 N2 1_555 1_555
H8 C10 1_555 1_555
C11 N2 1_555 1_555
C12 N1 1_555 1_555
C13 N3 1_555 1_555
C14 N4 1_555 1_555
C15 N6 1_555 1_555
C16 N7 1_555 1_555
Mn1B N8 1_555 1_555
Mn1C N5 1_555 1_555
N5C Mn1 1_555 1_555
N8B Mn1 1_555 1_555
C4 C12 1_555 1_555
C7 C11 1_555 1_555
C9 C10 1_555 1_555
C11 C12 1_555 1_555

#END
