
#######################################################################
#
#                 Cambridge Crystallographic Data Centre
#                                CCDC 
#
#######################################################################
#
# If this CIF has been generated from an entry in the Cambridge 
# Structural Database, then it will include bibliographic, chemical, 
# crystal, experimental, refinement or atomic coordinate data resulting 
# from the CCDC's data processing and validation procedures.
#
#######################################################################

data_IPEJAP
_symmetry_cell_setting           monoclinic
_symmetry_space_group_name_H-M   'P 21/n'
_symmetry_Int_Tables_number      14
_space_group_name_Hall           '-P 2yn'
loop_
_symmetry_equiv_pos_site_id
_symmetry_equiv_pos_as_xyz
1 x,y,z
2 1/2-x,1/2+y,1/2-z
3 -x,-y,-z
4 1/2+x,1/2-y,1/2+z
_cell_length_a                   7.7400(16)
_cell_length_b                   15.388(3)
_cell_length_c                   18.991(4)
_cell_angle_alpha                90
_cell_angle_beta                 98.107(2)
_cell_angle_gamma                90
_cell_volume                     2239.28
loop_
_atom_site_label
_atom_site_type_symbol
_atom_site_fract_x
_atom_site_fract_y
_atom_site_fract_z
C1 C 0.1825(5) 0.4820(3) 0.2206(2)
H1 H 0.1974 0.5117 0.2637
C2 C 0.1111(6) 0.3980(3) 0.2176(3)
H2 H 0.0782 0.3730 0.2582
C3 C 0.0902(5) 0.3534(3) 0.1554(3)
H3 H 0.0434 0.2976 0.1536
C4 C 0.1385(5) 0.3907(2) 0.0942(2)
C5 C 0.2057(4) 0.4751(2) 0.10107(18)
C6 C 0.2552(4) 0.5181(2) 0.04019(17)
C7 C 0.2361(4) 0.4764(2) -0.0264(2)
C8 C 0.1658(5) 0.3908(3) -0.0315(2)
H4 H 0.1521 0.3625 -0.0752
C9 C 0.1189(5) 0.3502(2) 0.0253(3)
H5 H 0.0726 0.2944 0.0201
C10 C 0.2882(5) 0.5230(3) -0.08338(19)
H6 H 0.2785 0.4979 -0.1283
C11 C 0.3524(5) 0.6043(3) -0.0729(2)
H7 H 0.3871 0.6356 -0.1104
C12 C 0.3659(4) 0.6403(2) -0.00546(18)
H8 H 0.4104 0.6963 0.0011
C13 C 0.5764(5) 0.6424(2) 0.24892(17)
C14 C 0.7372(4) 0.6534(2) 0.30197(17)
C15 C 0.8908(5) 0.6781(2) 0.2774(2)
H9 H 0.8919 0.6843 0.2288
C16 C 0.8916(5) 0.6566(2) 0.4209(2)
H10 H 0.8927 0.6483 0.4695
C17 C 0.7415(5) 0.6419(2) 0.37465(18)
C18 C 0.3028(5) 0.2828(2) 0.37162(17)
C19 C 0.3853(5) 0.3701(2) 0.38213(17)
C20 C 0.2984(5) 0.4382(2) 0.40849(17)
H11 H 0.1884 0.4289 0.4214
C21 C 0.3712(5) 0.5196(2) 0.41612(17)
H12 H 0.3123 0.5644 0.4354
C22 C 0.5314(5) 0.5347(2) 0.39519(17)
C23 C 0.6223(5) 0.4681(2) 0.3698(2)
H13 H 0.7320 0.4780 0.3567
C24 C 0.5495(5) 0.3856(2) 0.3636(2)
H14 H 0.6116 0.3402 0.3469
C25 C 1.0409(5) 0.6933(3) 0.3235(3)
H15 H 1.1424 0.7102 0.3062
C26 C 1.0400(5) 0.6834(3) 0.3953(3)
H16 H 1.1406 0.6950 0.4269
Ni1 Ni 0.33325(6) 0.64161(3) 0.15253(2)
N1 N 0.3190(3) 0.59945(16) 0.04993(14)
N2 N 0.2293(4) 0.52026(17) 0.16350(15)
O1 O 0.5926(3) 0.61921(14) 0.40419(12)
O2 O 0.4276(3) 0.66293(15) 0.26274(11)
O3 O 0.1416(3) 0.27403(14) 0.37589(12)
O4 O 0.3911(3) 0.21794(14) 0.35680(12)
O5 O 0.5948(3) 0.61577(15) 0.18711(12)
Ni1A Ni 0.16675(6) 0.14161(3) 0.34747(2)
O3A O 0.3584(3) 0.77403(14) 0.12411(12)
O4A O 0.1089(3) 0.71794(14) 0.14320(12)
loop_
_geom_bond_atom_site_label_1
_geom_bond_atom_site_label_2
_geom_bond_site_symmetry_1
_geom_bond_site_symmetry_2
C1 H1 1_555 1_555
C2 C1 1_555 1_555
H2 C2 1_555 1_555
C3 C2 1_555 1_555
H3 C3 1_555 1_555
C4 C3 1_555 1_555
C5 C4 1_555 1_555
C6 C5 1_555 1_555
C7 C6 1_555 1_555
C8 C7 1_555 1_555
H4 C8 1_555 1_555
C9 C4 1_555 1_555
H5 C9 1_555 1_555
C10 C7 1_555 1_555
H6 C10 1_555 1_555
C11 C10 1_555 1_555
H7 C11 1_555 1_555
C12 C11 1_555 1_555
H8 C12 1_555 1_555
C13 C14 1_555 1_555
C14 C15 1_555 1_555
C15 H9 1_555 1_555
C16 H10 1_555 1_555
C17 C14 1_555 1_555
C18 C19 1_555 1_555
C19 C20 1_555 1_555
C20 H11 1_555 1_555
C21 C20 1_555 1_555
H12 C21 1_555 1_555
C22 C21 1_555 1_555
C23 C22 1_555 1_555
H13 C23 1_555 1_555
C24 C19 1_555 1_555
H14 C24 1_555 1_555
C25 C15 1_555 1_555
H15 C25 1_555 1_555
C26 C16 1_555 1_555
H16 C26 1_555 1_555
Ni1 N1 1_555 1_555
N1 C6 1_555 1_555
N2 C1 1_555 1_555
O1 C17 1_555 1_555
O2 C13 1_555 1_555
O3 C18 1_555 1_555
O4 C18 1_555 1_555
O5 C13 1_555 1_555
Ni1A O3 1_555 1_555
O3A Ni1 1_555 1_555
O4A Ni1 1_555 1_555
C5 N2 1_555 1_555
C8 C9 1_555 1_555
C12 N1 1_555 1_555
C16 C17 1_555 1_555
C22 O1 1_555 1_555
C23 C24 1_555 1_555
C25 C26 1_555 1_555
Ni1 N2 1_555 1_555
Ni1 O2 1_555 1_555
Ni1 O5 1_555 1_555
O4 Ni1A 1_555 1_555

#END
