
#######################################################################
#
#                 Cambridge Crystallographic Data Centre
#                                CCDC 
#
#######################################################################
#
# If this CIF has been generated from an entry in the Cambridge 
# Structural Database, then it will include bibliographic, chemical, 
# crystal, experimental, refinement or atomic coordinate data resulting 
# from the CCDC's data processing and validation procedures.
#
#######################################################################

data_IPEPIC
_symmetry_cell_setting           monoclinic
_symmetry_space_group_name_H-M   'C c'
_symmetry_Int_Tables_number      9
_space_group_name_Hall           'C -2yc'
loop_
_symmetry_equiv_pos_site_id
_symmetry_equiv_pos_as_xyz
1 x,y,z
2 x,-y,1/2+z
3 1/2+x,1/2+y,z
4 1/2+x,1/2-y,1/2+z
_cell_length_a                   14.270(7)
_cell_length_b                   9.143(5)
_cell_length_c                   12.371(6)
_cell_angle_alpha                90
_cell_angle_beta                 118.612(7)
_cell_angle_gamma                90
_cell_volume                     1416.95
loop_
_atom_site_label
_atom_site_type_symbol
_atom_site_fract_x
_atom_site_fract_y
_atom_site_fract_z
Cu1 Cu 0.31444(4) 0.77593(5) 0.57943(4)
N1 N 0.3066(3) 0.9840(4) 0.6252(3)
N2 N 0.4081(3) 0.8654(4) 0.5202(3)
N3 N 0.2499(4) 0.6950(5) 0.6747(4)
N4 N 0.1981(5) 0.5806(8) 0.8142(6)
N5 N 0.2859(4) 0.4012(5) 0.9768(4)
C1 C 0.2471(5) 1.0337(6) 0.6746(5)
H1 H 0.2107 0.9671 0.6977
C2 C 0.2385(5) 1.1818(7) 0.6921(5)
H2 H 0.1980 1.2149 0.7278
C3 C 0.2923(6) 1.2797(6) 0.6545(6)
H3 H 0.2871 1.3799 0.6637
C4 C 0.3522(4) 1.2285(6) 0.6044(5)
H4 H 0.3901 1.2930 0.5818
C5 C 0.3563(4) 1.0789(5) 0.5873(4)
C6 C 0.4150(4) 1.0117(5) 0.5285(4)
C7 C 0.4715(5) 1.0892(6) 0.4823(5)
H5 H 0.4750 1.1907 0.4872
C8 C 0.5223(4) 1.0140(7) 0.4291(5)
H6 H 0.5590 1.0646 0.3957
C9 C 0.5186(4) 0.8649(7) 0.4254(5)
H7 H 0.5545 0.8126 0.3920
C10 C 0.4609(4) 0.7935(6) 0.4719(5)
H8 H 0.4584 0.6918 0.4696
C11 C 0.2305(4) 0.6380(6) 0.7429(5)
C12 C 0.2496(4) 0.4834(6) 0.8985(5)
Cl1 Cl 0.54441(10) 0.56960(15) 0.82745(12)
O1 O 0.4884(6) 0.6504(17) 0.7268(8)
O2 O 0.6333(7) 0.6444(13) 0.8972(8)
O3 O 0.4847(7) 0.5420(9) 0.8889(8)
O4 O 0.5883(13) 0.4409(9) 0.8119(15)
N5A N 0.2859(4) 0.5988(5) 0.4768(4)
O2C O 0.1333(7) 0.8556(13) 0.3972(8)
Cu1A Cu 0.31444(4) 0.22407(5) 1.07943(4)
Cu1C Cu 0.81444(4) 0.72407(5) 1.07943(4)
loop_
_geom_bond_atom_site_label_1
_geom_bond_atom_site_label_2
_geom_bond_site_symmetry_1
_geom_bond_site_symmetry_2
Cu1 N1 1_555 1_555
N1 C1 1_555 1_555
N2 Cu1 1_555 1_555
N3 Cu1 1_555 1_555
N4 C11 1_555 1_555
N5 C12 1_555 1_555
C1 H1 1_555 1_555
C2 C1 1_555 1_555
H2 C2 1_555 1_555
C3 C2 1_555 1_555
H3 C3 1_555 1_555
C4 C3 1_555 1_555
H4 C4 1_555 1_555
C5 N1 1_555 1_555
C6 N2 1_555 1_555
C7 C6 1_555 1_555
H5 C7 1_555 1_555
C8 C7 1_555 1_555
H6 C8 1_555 1_555
C9 C8 1_555 1_555
H7 C9 1_555 1_555
C10 N2 1_555 1_555
H8 C10 1_555 1_555
C11 N3 1_555 1_555
C12 N4 1_555 1_555
Cl1 O1 1_555 1_555
O1 Cu1 1_555 1_555
O2 Cl1 1_555 1_555
O3 Cl1 1_555 1_555
O4 Cl1 1_555 1_555
N5A Cu1 1_555 1_555
O2C Cu1 1_555 1_555
Cu1A N5 1_555 1_555
Cu1C O2 1_555 1_555
C4 C5 1_555 1_555
C5 C6 1_555 1_555
C9 C10 1_555 1_555

#END
