
#######################################################################
#
#                 Cambridge Crystallographic Data Centre
#                                CCDC 
#
#######################################################################
#
# If this CIF has been generated from an entry in the Cambridge 
# Structural Database, then it will include bibliographic, chemical, 
# crystal, experimental, refinement or atomic coordinate data resulting 
# from the CCDC's data processing and validation procedures.
#
#######################################################################

data_IPIHOF
_symmetry_cell_setting           monoclinic
_symmetry_space_group_name_H-M   'C 2/c'
_symmetry_Int_Tables_number      15
_space_group_name_Hall           '-C 2yn'
loop_
_symmetry_equiv_pos_site_id
_symmetry_equiv_pos_as_xyz
1 x,y,z
2 -x,y,1/2-z
3 1/2+x,1/2+y,z
4 1/2-x,1/2+y,1/2-z
5 -x,-y,-z
6 x,-y,1/2+z
7 1/2-x,1/2-y,-z
8 1/2+x,1/2-y,1/2+z
_cell_length_a                   15.413(3)
_cell_length_b                   8.4003(16)
_cell_length_c                   9.8892(19)
_cell_angle_alpha                90
_cell_angle_beta                 115.889(3)
_cell_angle_gamma                90
_cell_volume                     1151.89
loop_
_atom_site_label
_atom_site_type_symbol
_atom_site_fract_x
_atom_site_fract_y
_atom_site_fract_z
C1 C 0.13860(15) 0.0265(3) 0.3374(2)
C2 C 0.24571(15) 0.0474(3) 0.4204(2)
C3 C 0.29155(15) 0.1625(3) 0.3731(2)
H1 H 0.2548 0.2303 0.2909
C4 C 0.39113(15) 0.1776(3) 0.4465(2)
C5 C 0.44027(15) 0.0763(3) 0.5685(2)
H2 H 0.5080 0.0899 0.6237
C6 C 0.30147(15) -0.0515(3) 0.5399(2)
H3 H 0.2701 -0.1309 0.5711
Mn1 Mn 0.5000 0.23688(5) 0.2500
Mn2 Mn 0.5000 0.5000 0.5000
N1 N 0.39796(13) -0.0390(2) 0.6127(2)
O1 O 0.09892(10) -0.06981(18) 0.39449(16)
O2 O 0.09597(11) 0.10083(18) 0.21711(17)
O3 O 0.43995(11) 0.28021(17) 0.40317(16)
C1A C 0.86140(15) 0.0265(3) 0.1626(2)
C2A C 0.75429(15) 0.0474(3) 0.0796(2)
C3A C 0.70845(15) 0.1625(3) 0.1269(2)
H1A H 0.7452 0.2303 0.2091
C4A C 0.60887(15) 0.1776(3) 0.0535(2)
C5A C 0.55973(15) 0.0763(3) -0.0685(2)
H2A H 0.4920 0.0899 -0.1237
C6A C 0.69853(15) -0.0515(3) -0.0399(2)
H3A H 0.7299 -0.1309 -0.0711
Mn1B Mn 0.0000 -0.26312(5) 0.2500
Mn1B_2 Mn 1.0000 -0.26312(5) 0.2500
Mn1D Mn 0.5000 -0.23688(5) -0.2500
Mn1D_2 Mn 0.5000 -0.23688(5) 0.7500
Mn2B Mn 0.0000 0.0000 0.5000
Mn2B_2 Mn 1.0000 0.0000 0.5000
Mn2C Mn 0.0000 0.0000 0.0000
Mn2C_2 Mn 1.0000 0.0000 0.0000
Mn2A Mn 0.5000 0.5000 0.0000
N1A N 0.60204(13) -0.0390(2) -0.1127(2)
N1D N 0.60204(13) 0.0390(2) 0.3873(2)
N1E N 0.39796(13) 0.0390(2) 0.1127(2)
O1A O 0.90108(10) -0.06981(18) 0.10551(16)
O1B O 0.59892(10) 0.43019(18) 0.39449(16)
O1C O 0.40108(10) 0.43019(18) 0.10551(16)
O1F O 0.40108(10) 0.56981(18) 0.60551(16)
O2A O 0.90403(11) 0.10083(18) 0.28289(17)
O2C O 0.40403(11) 0.60083(18) 0.28289(17)
O2G O 0.59597(11) 0.39917(18) 0.71711(17)
O3A O 0.56005(11) 0.28021(17) 0.09683(16)
O3D O 0.56005(11) 0.71979(17) 0.59683(16)
loop_
_geom_bond_atom_site_label_1
_geom_bond_atom_site_label_2
_geom_bond_site_symmetry_1
_geom_bond_site_symmetry_2
C1 C2 1_555 1_555
C2 C3 1_555 1_555
C3 H1 1_555 1_555
C4 C3 1_555 1_555
C5 C4 1_555 1_555
H2 C5 1_555 1_555
C6 C2 1_555 1_555
H3 C6 1_555 1_555
Mn1 O3 1_555 1_555
Mn2 O3 1_555 1_555
N1 C5 1_555 1_555
O1 C1 1_555 1_555
O2 C1 1_555 1_555
O3 C4 1_555 1_555
C1A C2A 1_555 1_555
C2A C3A 1_555 1_555
C3A H1A 1_555 1_555
C4A C3A 1_555 1_555
C5A C4A 1_555 1_555
H2A C5A 1_555 1_555
C6A C2A 1_555 1_555
H3A C6A 1_555 1_555
Mn1B O1 1_555 1_555
Mn1B_2 O1A 1_555 1_555
Mn1D N1A 1_555 1_555
Mn1D_2 N1 1_555 1_555
Mn2B O1 1_555 1_555
Mn2B_2 O2A 1_555 1_555
Mn2C O2 1_555 1_555
Mn2C_2 O1A 1_555 1_555
Mn2A O1C 1_555 1_555
N1A C5A 1_555 1_555
N1D Mn1 1_555 1_555
N1E Mn1 1_555 1_555
O1A C1A 1_555 1_555
O1B Mn1 1_555 1_555
O1C Mn1 1_555 1_555
O1F Mn2 1_555 1_555
O2A C1A 1_555 1_555
O2C Mn2 1_555 1_555
O2G Mn2 1_555 1_555
O3A Mn1 1_555 1_555
O3D Mn2 1_555 1_555
C6 N1 1_555 1_555
Mn2 O1B 1_555 1_555
C4A O3A 1_555 1_555
C6A N1A 1_555 1_555
Mn2A O3A 1_555 1_555

#END
