
#######################################################################
#
#                 Cambridge Crystallographic Data Centre
#                                CCDC 
#
#######################################################################
#
# If this CIF has been generated from an entry in the Cambridge 
# Structural Database, then it will include bibliographic, chemical, 
# crystal, experimental, refinement or atomic coordinate data resulting 
# from the CCDC's data processing and validation procedures.
#
#######################################################################

data_IPIHIZ
_symmetry_cell_setting           triclinic
_symmetry_space_group_name_H-M   'P -1'
_symmetry_Int_Tables_number      2
_space_group_name_Hall           '-P 1'
loop_
_symmetry_equiv_pos_site_id
_symmetry_equiv_pos_as_xyz
1 x,y,z
2 -x,-y,-z
_cell_length_a                   11.248(4)
_cell_length_b                   14.088(6)
_cell_length_c                   14.448(5)
_cell_angle_alpha                105.95(3)
_cell_angle_beta                 92.54(3)
_cell_angle_gamma                113.05(4)
_cell_volume                     1995.49
loop_
_atom_site_label
_atom_site_type_symbol
_atom_site_fract_x
_atom_site_fract_y
_atom_site_fract_z
Mn1 Mn 0.533426(19) 0.566849(16) 0.421315(14)
Mn2 Mn 0.43018(2) 0.306912(16) 0.314518(14)
Mn3 Mn 0.248546(19) 0.432563(16) 0.281911(14)
Ca1 Ca 0.54872(3) 0.49816(2) 0.132411(18)
O1 O 0.40656(8) 0.43635(7) 0.33312(6)
O2 O 0.63777(8) 0.69174(7) 0.52688(6)
O3 O 0.29982(8) 0.58264(7) 0.35229(6)
N1 N 0.43016(10) 0.64633(9) 0.39296(7)
C1 C 0.68320(13) 0.79224(11) 0.51707(9)
C2 C 0.60538(13) 0.82417(11) 0.46374(9)
C3 C 0.66030(14) 0.93116(11) 0.46042(10)
H1 H 0.6090 0.9546 0.4261
C4 C 0.78709(15) 1.00352(12) 0.50580(11)
H2 H 0.8226 1.0750 0.5012
C5 C 0.86218(14) 0.97094(12) 0.55811(10)
H3 H 0.9489 1.0206 0.5901
C6 C 0.81092(13) 0.86670(11) 0.56365(9)
H4 H 0.8629 0.8451 0.5995
C7 C 0.46909(13) 0.75076(11) 0.41511(9)
C8 C 0.37615(14) 0.79613(12) 0.39121(12)
H5 H 0.3859 0.8082 0.3278
H6 H 0.3956 0.8653 0.4418
H7 H 0.2860 0.7446 0.3883
O4 O 0.45172(9) 0.18000(7) 0.30619(6)
O5 O 0.61867(8) 0.48780(7) 0.46632(6)
N2 N 0.60595(11) 0.39107(9) 0.39894(7)
C9 C 0.56350(14) 0.16857(11) 0.30991(9)
C10 C 0.68896(14) 0.25565(11) 0.35049(9)
C11 C 0.79953(15) 0.23203(13) 0.34949(10)
H8 H 0.8840 0.2900 0.3753
C12 C 0.78882(16) 0.12728(13) 0.31207(10)
H9 H 0.8650 0.1134 0.3119
C13 C 0.66550(17) 0.04226(13) 0.27461(10)
H10 H 0.6572 -0.0303 0.2497
C14 C 0.55523(15) 0.06226(12) 0.27332(10)
H11 H 0.4717 0.0031 0.2472
C15 C 0.70563(13) 0.36622(11) 0.40327(9)
C16 C 0.83533(13) 0.44763(12) 0.46467(10)
H12 H 0.8297 0.5165 0.4960
H13 H 0.9029 0.4595 0.4232
H14 H 0.8582 0.4201 0.5150
O6 O 0.07566(8) 0.41680(7) 0.27004(6)
O7 O 0.25449(9) 0.21955(7) 0.24858(6)
N3 N 0.17861(11) 0.26876(9) 0.22652(7)
C17 C -0.01837(13) 0.34725(11) 0.19326(10)
C18 C -0.02609(13) 0.24319(11) 0.14191(9)
C19 C -0.12637(13) 0.17761(12) 0.06020(10)
H15 H -0.1327 0.1076 0.0251
C20 C -0.21579(14) 0.21240(13) 0.02979(11)
H16 H -0.2811 0.1677 -0.0266
C21 C -0.20912(13) 0.31354(12) 0.08268(10)
H17 H -0.2713 0.3374 0.0629
C22 C -0.11280(13) 0.37979(12) 0.16375(10)
H18 H -0.1105 0.4481 0.1999
C23 C 0.06451(13) 0.20161(11) 0.17180(9)
C24 C 0.03020(14) 0.08191(11) 0.14075(11)
H19 H 0.0736 0.0632 0.0857
H20 H -0.0650 0.0410 0.1208
H21 H 0.0596 0.0634 0.1955
O8 O 0.31461(9) 0.45490(7) 0.15051(6)
O9 O 0.36560(9) 0.47511(8) 0.01042(6)
C25 C 0.28753(13) 0.47037(11) 0.07001(10)
C26 C 0.16597(13) 0.48664(12) 0.04972(10)
H22 H 0.0882 0.4230 0.0526
H23 H 0.1569 0.4917 -0.0170
C27 C 0.17067(16) 0.58992(13) 0.12355(11)
H24 H 0.1740 0.5831 0.1892
H25 H 0.0921 0.6001 0.1066
H26 H 0.2489 0.6527 0.1221
O10 O 0.64308(9) 0.59496(7) 0.30736(6)
O11 O 0.78144(9) 0.57924(8) 0.20736(6)
C28 C 0.76083(13) 0.61383(11) 0.29177(10)
C29 C 0.87199(13) 0.68203(12) 0.37717(9)
H27 H 0.8475 0.6562 0.4337
H28 H 0.8822 0.7582 0.3951
C30 C 1.00368(14) 0.68072(13) 0.35968(11)
H29 H 0.9954 0.6058 0.3425
H30 H 1.0690 0.7257 0.4192
H31 H 1.0316 0.7097 0.3061
O12 O 0.50947(9) 0.33337(7) 0.18411(6)
O13 O 0.48817(10) 0.31208(8) 0.02714(6)
C31 C 0.47874(13) 0.27132(11) 0.09542(10)
C32 C 0.43457(15) 0.15080(11) 0.07333(9)
H32 H 0.3569 0.1227 0.1043
H33 H 0.5052 0.1378 0.1033
C33 C 0.39978(15) 0.08719(12) -0.03496(10)
H34 H 0.3256 0.0952 -0.0645
H35 H 0.3758 0.0101 -0.0437
H36 H 0.4755 0.1152 -0.0666
O14 O 0.55589(10) 0.67761(8) 0.15788(6)
H40 H 0.5475 0.6966 0.1086
H41 H 0.6207 0.7327 0.1939
Mn1A Mn 0.466574(19) 0.433151(16) 0.578685(14)
Mn2A Mn 0.56982(2) 0.693088(16) 0.685482(14)
Ca1A Ca 0.45128(3) 0.50184(2) -0.132411(18)
O2A O 0.36223(8) 0.30826(7) 0.47312(6)
O5A O 0.38133(8) 0.51220(7) 0.53368(6)
O9A O 0.63440(9) 0.52489(8) -0.01042(6)
N4 N 0.8257(2) 0.86754(15) 0.24674(14)
C34 C 0.8693(6) 0.8286(5) 0.1888(4)
C35 C 0.9265(4) 0.7780(3) 0.1169(3)
H37 H 0.9059 0.7042 0.1184
H38 H 1.0218 0.8204 0.1304
H39 H 0.8912 0.7746 0.0522
O15 O 1.2302(2) 0.9665(2) 0.22761(18)
H42 H 1.1809 0.9194 0.2505
H43 H 1.2781 1.0269 0.2691
C36? C 0.9752(17) 0.8639(18) 0.2147(16)
C37? C 0.8940(6) 0.8368(6) 0.2049(4)
C38? C 1.1080(17) 0.8799(19) 0.2109(16)
C39? C 0.9830(6) 0.7996(6) 0.1551(5)
H44? H 1.1159 0.8120 0.2066
H45? H 1.1648 0.9372 0.2702
H46? H 1.1345 0.9015 0.1535
H47? H 1.0731 0.8473 0.1890
H48? H 0.9745 0.8011 0.0878
H49? H 0.9621 0.7251 0.1545
N5? N 0.8693(18) 0.845(3) 0.221(2)
N6? N 0.8257(2) 0.86754(15) 0.24674(14)
loop_
_geom_bond_atom_site_label_1
_geom_bond_atom_site_label_2
_geom_bond_site_symmetry_1
_geom_bond_site_symmetry_2
Mn1 O1 1_555 1_555
Mn2 O1 1_555 1_555
Mn3 O1 1_555 1_555
Ca1 O8 1_555 1_555
O2 Mn1 1_555 1_555
O3 Mn3 1_555 1_555
N1 Mn1 1_555 1_555
C1 O2 1_555 1_555
C2 C1 1_555 1_555
C3 C2 1_555 1_555
H1 C3 1_555 1_555
C4 C3 1_555 1_555
H2 C4 1_555 1_555
C5 C4 1_555 1_555
H3 C5 1_555 1_555
C6 C1 1_555 1_555
H4 C6 1_555 1_555
C7 N1 1_555 1_555
C8 C7 1_555 1_555
H5 C8 1_555 1_555
H6 C8 1_555 1_555
H7 C8 1_555 1_555
O4 Mn2 1_555 1_555
O5 Mn1 1_555 1_555
N2 Mn2 1_555 1_555
C9 O4 1_555 1_555
C10 C9 1_555 1_555
C11 C10 1_555 1_555
H8 C11 1_555 1_555
C12 C11 1_555 1_555
H9 C12 1_555 1_555
C13 C12 1_555 1_555
H10 C13 1_555 1_555
C14 C9 1_555 1_555
H11 C14 1_555 1_555
C15 N2 1_555 1_555
C16 C15 1_555 1_555
H12 C16 1_555 1_555
H13 C16 1_555 1_555
H14 C16 1_555 1_555
O6 Mn3 1_555 1_555
O7 Mn2 1_555 1_555
N3 Mn3 1_555 1_555
C17 O6 1_555 1_555
C18 C17 1_555 1_555
C19 C18 1_555 1_555
H15 C19 1_555 1_555
C20 C19 1_555 1_555
H16 C20 1_555 1_555
C21 C20 1_555 1_555
H17 C21 1_555 1_555
C22 C17 1_555 1_555
H18 C22 1_555 1_555
C23 N3 1_555 1_555
C24 C23 1_555 1_555
H19 C24 1_555 1_555
H20 C24 1_555 1_555
H21 C24 1_555 1_555
O8 Mn3 1_555 1_555
O9 Ca1 1_555 1_555
C25 O8 1_555 1_555
C26 C25 1_555 1_555
H22 C26 1_555 1_555
H23 C26 1_555 1_555
C27 C26 1_555 1_555
H24 C27 1_555 1_555
H25 C27 1_555 1_555
H26 C27 1_555 1_555
O10 Mn1 1_555 1_555
O11 Ca1 1_555 1_555
C28 O10 1_555 1_555
C29 C28 1_555 1_555
H27 C29 1_555 1_555
H28 C29 1_555 1_555
C30 C29 1_555 1_555
H29 C30 1_555 1_555
H30 C30 1_555 1_555
H31 C30 1_555 1_555
O12 Mn2 1_555 1_555
O13 Ca1 1_555 1_555
C31 O12 1_555 1_555
C32 C31 1_555 1_555
H32 C32 1_555 1_555
H33 C32 1_555 1_555
C33 C32 1_555 1_555
H34 C33 1_555 1_555
H35 C33 1_555 1_555
H36 C33 1_555 1_555
N4 C34 1_555 1_555
C34 C35 1_555 1_555
C35 H37 1_555 1_555
H38 C35 1_555 1_555
H39 C35 1_555 1_555
O14 Ca1 1_555 1_555
H40 O14 1_555 1_555
H41 O14 1_555 1_555
O15 H42 1_555 1_555
H43 O15 1_555 1_555
Mn1A O5 1_555 1_555
Mn2A O2 1_555 1_555
Ca1A O9 1_555 1_555
O2A Mn2 1_555 1_555
O5A Mn1 1_555 1_555
O9A Ca1 1_555 1_555
Ca1 O10 1_555 1_555
Ca1 O12 1_555 1_555
O3 N1 1_555 1_555
C2 C7 1_555 1_555
C5 C6 1_555 1_555
O5 N2 1_555 1_555
C10 C15 1_555 1_555
C13 C14 1_555 1_555
O7 N3 1_555 1_555
C18 C23 1_555 1_555
C21 C22 1_555 1_555
O9 C25 1_555 1_555
O11 C28 1_555 1_555
O13 C31 1_555 1_555
Mn1A O2A 1_555 1_555
Mn1A O5A 1_555 1_555
Ca1A O9A 1_555 1_555

#END
