
#######################################################################
#
#                 Cambridge Crystallographic Data Centre
#                                CCDC 
#
#######################################################################
#
# If this CIF has been generated from an entry in the Cambridge 
# Structural Database, then it will include bibliographic, chemical, 
# crystal, experimental, refinement or atomic coordinate data resulting 
# from the CCDC's data processing and validation procedures.
#
#######################################################################

data_IPIJIB
_symmetry_cell_setting           monoclinic
_symmetry_space_group_name_H-M   'P 21'
_symmetry_Int_Tables_number      4
_space_group_name_Hall           'P 2yb'
loop_
_symmetry_equiv_pos_site_id
_symmetry_equiv_pos_as_xyz
1 x,y,z
2 -x,1/2+y,-z
_cell_length_a                   7.471(2)
_cell_length_b                   17.123(5)
_cell_length_c                   17.192(5)
_cell_angle_alpha                90
_cell_angle_beta                 96.056(4)
_cell_angle_gamma                90
_cell_volume                     2187.03
loop_
_atom_site_label
_atom_site_type_symbol
_atom_site_fract_x
_atom_site_fract_y
_atom_site_fract_z
Cd1 Cd -0.78905(5) 0.285228(17) 0.10385(2)
Cd2 Cd -0.20324(5) 0.467543(15) 0.394641(19)
O1 O 0.2157(9) 0.0956(4) 0.6635(4)
O2 O -0.0354(8) 0.0498(4) 0.6089(5)
O3 O -0.0502(7) 0.4103(4) 0.5009(4)
O4 O -0.2796(8) 0.3395(4) 0.4549(3)
O5 O -1.0595(7) -0.1545(4) 0.0062(4)
O6 O -1.2877(9) -0.0859(4) -0.0441(3)
O7 O -0.8008(10) 0.1609(4) 0.1732(3)
O8 O -1.0164(7) 0.2035(4) 0.0970(5)
N1 N -0.2344(7) 0.4004(4) 0.2784(3)
N2 N -0.5401(7) 0.2550(4) 0.0445(3)
N3 N -0.2875(7) 0.2933(6) -0.0033(3)
H1 H -0.1844 0.3151 -0.0053
N4 N -0.7641(7) 0.3513(4) 0.2211(3)
N5 N -0.4517(6) 0.4947(3) 0.4547(3)
N6 N -0.6998(6) 0.4562(5) 0.5048(3)
H2 H -0.8019 0.4339 0.5079
C1 C -0.6273(15) 0.1678(6) -0.1540(5)
H3 H -0.7091 0.1379 -0.1859
C2 C -0.3450(13) 0.2316(7) -0.1382(4)
H4 H -0.2365 0.2459 -0.1561
C3 C -0.2503(11) 0.4023(5) 0.1392(4)
H5 H -0.2262 0.4281 0.0939
C4 C -0.3852(10) 0.2522(5) -0.0628(4)
C5 C -0.3006(10) 0.3270(5) 0.2732(4)
H6 H -0.3136 0.3001 0.3192
C6 C -0.5429(10) 0.2301(5) -0.0334(4)
C7 C -0.2112(10) 0.4367(5) 0.2110(4)
H7 H -0.1665 0.4875 0.2131
C8 C -0.6725(13) 0.1873(6) -0.0782(5)
H8 H -0.7806 0.1724 -0.0602
C9 C -0.3268(8) 0.3282(4) 0.1353(3)
C10 C -0.3852(7) 0.2927(5) 0.0588(3)
C11 C -0.3485(8) 0.2909(6) 0.2048(3)
H9 H -0.3963 0.2407 0.2042
C12 C -0.4437(8) 0.5200(4) 0.5317(3)
C13 C -0.5986(9) 0.4965(5) 0.5630(4)
C14 C -0.6274(12) 0.5132(7) 0.6392(4)
H10 H -0.7284 0.4956 0.6613
C15 C -0.3320(12) 0.5757(7) 0.6529(4)
H11 H -0.2406 0.5991 0.6857
C16 C -0.7415(11) 0.3470(5) 0.3610(4)
H12 H -0.7585 0.3189 0.4060
C17 C -0.7878(9) 0.3148(5) 0.2871(4)
H13 H -0.8380 0.2651 0.2840
C18 C -0.4950(14) 0.5580(8) 0.6806(5)
H14 H -0.5166 0.5771 0.7294
C19 C -0.6983(8) 0.4234(5) 0.2252(3)
H15 H -0.6823 0.4499 0.1791
C20 C -0.6709(7) 0.4203(5) 0.3659(3)
C21 C -0.6055(7) 0.4589(5) 0.4415(3)
C22 C -0.6517(9) 0.4610(6) 0.2980(3)
H16 H -0.6091 0.5121 0.3000
C23 C -0.1352(11) 0.3044(4) 0.5835(4)
C24 C -0.1190(8) 0.2171(3) 0.5682(3)
C25 C -0.0426(11) 0.1834(5) 0.6471(4)
H17 H -0.1389 0.1783 0.6813
C26 C 0.097(2) 0.2493(6) 0.6810(6)
H18 H 0.0801 0.2612 0.7349
H19 H 0.2199 0.2316 0.6789
C27 C 0.0588(15) 0.3216(5) 0.6292(5)
H20 H 0.1489 0.3275 0.5929
H21 H 0.0566 0.3685 0.6606
C28 C 0.0031(19) 0.2008(6) 0.5048(6)
H22 H -0.0488 0.2229 0.4562
H23 H 0.0162 0.1454 0.4988
H24 H 0.1191 0.2237 0.5192
C29 C -0.1548(9) 0.3533(5) 0.5077(4)
C30 C 0.0502(9) 0.1038(5) 0.6395(4)
C31 C -1.1561(11) -0.0477(5) 0.0810(4)
C32 C -1.0466(14) 0.0742(5) 0.1429(4)
H25 H -1.0269 0.0542 0.1965
C33 C -1.1690(10) -0.0976(5) 0.0090(4)
C34 C -0.9453(10) 0.1490(5) 0.1389(3)
C35 C -1.0014(9) 0.0123(4) 0.0891(4)
C36 C -0.3029(11) 0.1811(6) 0.5521(8)
H26 H -0.3735 0.1937 0.5940
H27 H -0.2914 0.1254 0.5484
H28 H -0.3610 0.2012 0.5038
C37 C -1.2646(11) 0.0834(5) 0.1187(7)
H29 H -1.3265 0.0920 0.1648
H30 H -1.2897 0.1268 0.0831
C38 C -1.3226(11) 0.0086(6) 0.0804(8)
H31 H -1.3729 0.0184 0.0269
H32 H -1.4149 -0.0155 0.1081
C39 C -0.3067(11) 0.5593(6) 0.5796(5)
H33 H -0.2001 0.5734 0.5598
C40 C -0.986(2) 0.0469(8) 0.0049(7)
H34 H -1.1038 0.0607 -0.0191
H35 H -0.9341 0.0085 -0.0267
H36 H -0.9112 0.0926 0.0091
C41 C -0.8326(15) -0.0236(8) 0.1286(11)
H37 H -0.8579 -0.0476 0.1767
H38 H -0.7430 0.0162 0.1394
H39 H -0.7890 -0.0624 0.0949
C42 C -0.4698(14) 0.1901(7) -0.1838(4)
H40 H -0.4501 0.1768 -0.2347
C43 C -0.285(2) 0.3297(8) 0.6298(7)
H41 H -0.3991 0.3188 0.6005
H42 H -0.2755 0.3848 0.6401
H43 H -0.2770 0.3018 0.6785
C44 C -1.171(3) -0.0987(9) 0.1481(7)
H44 H -1.1671 -0.0678 0.1948
H45 H -1.0719 -0.1349 0.1528
H46 H -1.2820 -0.1270 0.1408
Cd1A Cd -1.21095(5) -0.214772(17) -0.10385(2)
Cd2A Cd 0.20324(5) -0.032457(15) 0.605359(19)
O1A O -0.2157(9) 0.5956(4) 0.3365(4)
O2A O 0.0354(8) 0.5498(4) 0.3911(5)
O5A O -0.9405(7) 0.3455(4) -0.0062(4)
O6A O -0.7123(9) 0.4141(4) 0.0441(3)
loop_
_geom_bond_atom_site_label_1
_geom_bond_atom_site_label_2
_geom_bond_site_symmetry_1
_geom_bond_site_symmetry_2
Cd1 O7 1_555 1_555
Cd2 O3 1_555 1_555
O1 C30 1_555 1_555
O2 C30 1_555 1_555
O3 C29 1_555 1_555
O4 Cd2 1_555 1_555
O5 C33 1_555 1_555
O6 C33 1_555 1_555
O7 C34 1_555 1_555
O8 Cd1 1_555 1_555
N1 Cd2 1_555 1_555
N2 Cd1 1_555 1_555
N3 H1 1_555 1_555
N4 Cd1 1_555 1_555
N5 Cd2 1_555 1_555
N6 H2 1_555 1_555
C1 H3 1_555 1_555
C2 H4 1_555 1_555
C3 H5 1_555 1_555
C4 N3 1_555 1_555
C5 N1 1_555 1_555
H6 C5 1_555 1_555
C6 N2 1_555 1_555
C7 N1 1_555 1_555
H7 C7 1_555 1_555
C8 C1 1_555 1_555
H8 C8 1_555 1_555
C9 C3 1_555 1_555
C10 N2 1_555 1_555
C11 C5 1_555 1_555
H9 C11 1_555 1_555
C12 N5 1_555 1_555
C13 N6 1_555 1_555
C14 C13 1_555 1_555
H10 C14 1_555 1_555
C15 H11 1_555 1_555
C16 H12 1_555 1_555
C17 N4 1_555 1_555
H13 C17 1_555 1_555
C18 C14 1_555 1_555
H14 C18 1_555 1_555
C19 N4 1_555 1_555
H15 C19 1_555 1_555
C20 C16 1_555 1_555
C21 N5 1_555 1_555
C22 C19 1_555 1_555
H16 C22 1_555 1_555
C23 C24 1_555 1_555
C24 C25 1_555 1_555
C25 H17 1_555 1_555
C26 C25 1_555 1_555
H18 C26 1_555 1_555
H19 C26 1_555 1_555
C27 C23 1_555 1_555
H20 C27 1_555 1_555
H21 C27 1_555 1_555
C28 C24 1_555 1_555
H22 C28 1_555 1_555
H23 C28 1_555 1_555
H24 C28 1_555 1_555
C29 O4 1_555 1_555
C30 C25 1_555 1_555
C31 C33 1_555 1_555
C32 H25 1_555 1_555
C34 O8 1_555 1_555
C35 C31 1_555 1_555
C36 C24 1_555 1_555
H26 C36 1_555 1_555
H27 C36 1_555 1_555
H28 C36 1_555 1_555
C37 C32 1_555 1_555
H29 C37 1_555 1_555
H30 C37 1_555 1_555
C38 C31 1_555 1_555
H31 C38 1_555 1_555
H32 C38 1_555 1_555
C39 C12 1_555 1_555
H33 C39 1_555 1_555
C40 C35 1_555 1_555
H34 C40 1_555 1_555
H35 C40 1_555 1_555
H36 C40 1_555 1_555
C41 C35 1_555 1_555
H37 C41 1_555 1_555
H38 C41 1_555 1_555
H39 C41 1_555 1_555
C42 C1 1_555 1_555
H40 C42 1_555 1_555
C43 C23 1_555 1_555
H41 C43 1_555 1_555
H42 C43 1_555 1_555
H43 C43 1_555 1_555
C44 C31 1_555 1_555
H44 C44 1_555 1_555
H45 C44 1_555 1_555
H46 C44 1_555 1_555
Cd1A O5 1_555 1_555
Cd2A O1 1_555 1_555
O1A Cd2 1_555 1_555
O2A Cd2 1_555 1_555
O5A Cd1 1_555 1_555
O6A Cd1 1_555 1_555
O2 Cd2A 1_555 1_555
O6 Cd1A 1_555 1_555
N3 C10 1_555 1_555
N6 C21 1_555 1_555
C2 C4 1_555 1_555
C2 C42 1_555 1_555
C3 C7 1_555 1_555
C4 C6 1_555 1_555
C6 C8 1_555 1_555
C9 C10 1_555 1_555
C9 C11 1_555 1_555
C12 C13 1_555 1_555
C15 C18 1_555 1_555
C15 C39 1_555 1_555
C16 C17 1_555 1_555
C20 C21 1_555 1_555
C20 C22 1_555 1_555
C23 C29 1_555 1_555
C26 C27 1_555 1_555
C32 C34 1_555 1_555
C32 C35 1_555 1_555
C37 C38 1_555 1_555

#END
