
#######################################################################
#
#                 Cambridge Crystallographic Data Centre
#                                CCDC 
#
#######################################################################
#
# If this CIF has been generated from an entry in the Cambridge 
# Structural Database, then it will include bibliographic, chemical, 
# crystal, experimental, refinement or atomic coordinate data resulting 
# from the CCDC's data processing and validation procedures.
#
#######################################################################

data_IPIMIE
_symmetry_cell_setting           monoclinic
_symmetry_space_group_name_H-M   'C 2/c'
_symmetry_Int_Tables_number      15
_space_group_name_Hall           '-C 2yn'
loop_
_symmetry_equiv_pos_site_id
_symmetry_equiv_pos_as_xyz
1 x,y,z
2 -x,y,1/2-z
3 1/2+x,1/2+y,z
4 1/2-x,1/2+y,1/2-z
5 -x,-y,-z
6 x,-y,1/2+z
7 1/2-x,1/2-y,-z
8 1/2+x,1/2-y,1/2+z
_cell_length_a                   10.080(3)
_cell_length_b                   12.607(3)
_cell_length_c                   16.157(4)
_cell_angle_alpha                90
_cell_angle_beta                 104.053(4)
_cell_angle_gamma                90
_cell_volume                     1991.76
loop_
_atom_site_label
_atom_site_type_symbol
_atom_site_fract_x
_atom_site_fract_y
_atom_site_fract_z
Co1 Co -0.2500 0.2500 0.0000
Co2 Co 0.2500 0.2500 0.0000
C1 C 0.0000 0.5305(3) 0.2500
H1 H 0.0000 0.6058 0.2500
C2 C -0.1201(3) 0.4757(2) 0.21471(16)
H2 H -0.2011 0.5137 0.1892
C3 C -0.1217(2) 0.36501(18) 0.21665(14)
C4 C 0.0000 0.3092(2) 0.2500
C5 C 0.0000 0.1902(2) 0.2500
C6 C 0.0185(2) 0.13438(17) 0.17855(14)
C7 C 0.0207(3) 0.02370(19) 0.17998(16)
H3 H 0.0366 -0.0143 0.1325
C8 C 0.0000 -0.0312(3) 0.2500
H4 H 0.0000 -0.1065 0.2500
C9 C -0.2569(2) 0.30637(18) 0.18739(16)
C10 C 0.0420(2) 0.19197(17) 0.10198(14)
C11 C -0.3589(4) 0.0564(2) 0.0847(2)
H5 H -0.4027 0.1008 0.1176
C12 C -0.2422(3) 0.00014(16) 0.00566(16)
H6 H -0.1844 -0.0013 -0.0329
N1 N -0.2795(2) 0.08991(15) 0.03650(13)
N2 N -0.3689(4) -0.0487(2) 0.0806(3)
H7 H -0.4264 -0.0941 0.0972
N3 N -0.2912(2) -0.08709(15) 0.03253(13)
O1 O -0.31642(17) 0.30675(13) 0.10781(11)
O2 O -0.3057(2) 0.26475(17) 0.24283(14)
O3 O 0.15157(18) 0.17243(13) 0.08219(11)
O4 O -0.04596(19) 0.25770(12) 0.06331(13)
O5 O 0.4165(2) 0.24496(12) 0.10500(13)
H8 H 0.4996 0.2648 0.1187
H9 H 0.3936 0.2565 0.1515
Co1A Co 0.2500 0.2500 0.5000
Co2B Co -0.2500 -0.2500 0.0000
Co2B_2 Co -0.2500 0.7500 0.0000
Co2A Co -0.2500 0.2500 0.5000
C2A C 0.1201(3) 0.4757(2) 0.28529(16)
H2A H 0.2011 0.5137 0.3108
C3A C 0.1217(2) 0.36501(18) 0.28335(14)
C6A C -0.0185(2) 0.13438(17) 0.32145(14)
C7A C -0.0207(3) 0.02370(19) 0.32002(16)
H3A H -0.0366 -0.0143 0.3675
C9A C 0.2569(2) 0.30637(18) 0.31261(16)
C10A C -0.0420(2) 0.19197(17) 0.39802(14)
C11F C -0.1411(4) 0.4436(2) -0.0847(2)
H5F H -0.0973 0.3992 -0.1176
C12F C -0.2578(3) 0.49986(16) -0.00566(16)
H6F H -0.3156 0.5013 0.0329
N1F N -0.2205(2) 0.41009(15) -0.03650(13)
N2F N -0.1311(4) 0.5487(2) -0.0806(3)
H7F H -0.0736 0.5941 -0.0972
N3F N -0.2088(2) 0.58709(15) -0.03253(13)
N3B N 0.2088(2) 0.41291(15) 0.03253(13)
N3D N 0.2912(2) 0.08709(15) -0.03253(13)
O1A O 0.31642(17) 0.30675(13) 0.39219(11)
O1F O -0.18358(17) 0.19325(13) -0.10781(11)
O2A O 0.3057(2) 0.26475(17) 0.25717(14)
O3A O -0.15157(18) 0.17243(13) 0.41781(11)
O3F O 0.34843(18) 0.32757(13) -0.08219(11)
O4A O 0.04596(19) 0.25770(12) 0.43669(13)
O4F O -0.45404(19) 0.24230(12) -0.06331(13)
O5F O 0.0835(2) 0.25504(12) -0.10500(13)
H8F H 0.0004 0.2352 -0.1187
H9F H 0.1064 0.2435 -0.1515
loop_
_geom_bond_atom_site_label_1
_geom_bond_atom_site_label_2
_geom_bond_site_symmetry_1
_geom_bond_site_symmetry_2
Co1 N1 1_555 1_555
Co2 O3 1_555 1_555
C1 H1 1_555 1_555
C2 C1 1_555 1_555
H2 C2 1_555 1_555
C3 C2 1_555 1_555
C4 C3 1_555 1_555
C5 C4 1_555 1_555
C6 C5 1_555 1_555
C7 C6 1_555 1_555
H3 C7 1_555 1_555
C8 C7 1_555 1_555
H4 C8 1_555 1_555
C9 C3 1_555 1_555
C10 C6 1_555 1_555
C11 H5 1_555 1_555
C12 H6 1_555 1_555
N1 C11 1_555 1_555
N2 C11 1_555 1_555
H7 N2 1_555 1_555
N3 C12 1_555 1_555
O1 Co1 1_555 1_555
O2 C9 1_555 1_555
O3 C10 1_555 1_555
O4 Co1 1_555 1_555
O5 Co2 1_555 1_555
H8 O5 1_555 1_555
H9 O5 1_555 1_555
Co1A O1A 1_555 1_555
Co2B N3 1_555 1_555
Co2B_2 N3F 1_555 1_555
Co2A O3A 1_555 1_555
C2A C1 1_555 1_555
H2A C2A 1_555 1_555
C3A C4 1_555 1_555
C6A C5 1_555 1_555
C7A C8 1_555 1_555
H3A C7A 1_555 1_555
C9A C3A 1_555 1_555
C10A C6A 1_555 1_555
C11F H5F 1_555 1_555
C12F H6F 1_555 1_555
N1F Co1 1_555 1_555
N2F C11F 1_555 1_555
H7F N2F 1_555 1_555
N3F C12F 1_555 1_555
N3B Co2 1_555 1_555
N3D Co2 1_555 1_555
O1A C9A 1_555 1_555
O1F Co1 1_555 1_555
O2A C9A 1_555 1_555
O3A C10A 1_555 1_555
O3F Co2 1_555 1_555
O4A Co1A 1_555 1_555
O4F Co1 1_555 1_555
O5F Co2 1_555 1_555
H8F O5F 1_555 1_555
H9F O5F 1_555 1_555
C9 O1 1_555 1_555
C10 O4 1_555 1_555
C12 N1 1_555 1_555
N2 N3 1_555 1_555
C2A C3A 1_555 1_555
C6A C7A 1_555 1_555
C10A O4A 1_555 1_555
C11F N1F 1_555 1_555
C12F N1F 1_555 1_555
N2F N3F 1_555 1_555

#END
