
#######################################################################
#
#                 Cambridge Crystallographic Data Centre
#                                CCDC 
#
#######################################################################
#
# If this CIF has been generated from an entry in the Cambridge 
# Structural Database, then it will include bibliographic, chemical, 
# crystal, experimental, refinement or atomic coordinate data resulting 
# from the CCDC's data processing and validation procedures.
#
#######################################################################

data_IPIWIO04
_symmetry_cell_setting           orthorhombic
_symmetry_space_group_name_H-M   'F d d d'
_symmetry_Int_Tables_number      70
_space_group_name_Hall           '-F 2uv 2vw'
loop_
_symmetry_equiv_pos_site_id
_symmetry_equiv_pos_as_xyz
1 x,y,z
2 3/4-x,3/4-y,z
3 3/4-x,y,3/4-z
4 x,3/4-y,3/4-z
5 x,1/2+y,1/2+z
6 3/4-x,1/4-y,1/2+z
7 3/4-x,1/2+y,1/4-z
8 x,1/4-y,1/4-z
9 1/2+x,y,1/2+z
10 1/4-x,3/4-y,1/2+z
11 1/4-x,y,1/4-z
12 1/2+x,3/4-y,1/4-z
13 1/2+x,1/2+y,z
14 1/4-x,1/4-y,z
15 1/4-x,1/2+y,3/4-z
16 1/2+x,1/4-y,3/4-z
17 -x,-y,-z
18 1/4+x,1/4+y,-z
19 1/4+x,-y,1/4+z
20 -x,1/4+y,1/4+z
21 -x,1/2-y,1/2-z
22 1/4+x,3/4+y,1/2-z
23 1/4+x,1/2-y,3/4+z
24 -x,3/4+y,3/4+z
25 1/2-x,-y,1/2-z
26 3/4+x,1/4+y,1/2-z
27 3/4+x,-y,3/4+z
28 1/2-x,1/4+y,3/4+z
29 1/2-x,1/2-y,-z
30 3/4+x,3/4+y,-z
31 3/4+x,1/2-y,1/4+z
32 1/2-x,3/4+y,1/4+z
_cell_length_a                   11.7584(6)
_cell_length_b                   25.0390(19)
_cell_length_c                   51.481(3)
_cell_angle_alpha                90
_cell_angle_beta                 90
_cell_angle_gamma                90
_cell_volume                     15157
loop_
_atom_site_label
_atom_site_type_symbol
_atom_site_fract_x
_atom_site_fract_y
_atom_site_fract_z
Cu1 Cu 0.56110(4) 0.55111(2) 0.022779(11)
Cu2 Cu 0.3750 0.3750 0.070913(13)
O1 O 0.5641(3) 0.51305(17) 0.06157(7)
O2 O 0.4492(2) 0.44490(15) 0.05283(6)
O3 O 0.2267(2) 0.40708(15) 0.06982(5)
O4 O 0.1203(3) 0.47559(17) 0.08200(6)
N1 N 0.3988(3) 0.43057(15) 0.10439(6)
N2 N 0.7171(3) 0.53747(15) 0.01449(7)
N3 N 0.4105(3) 0.57840(14) 0.02144(6)
C1 C 0.5000(4) 0.4623(2) 0.09711(8)
H1 H 0.5682 0.4431 0.1021
H2 H 0.4990 0.4959 0.1065
C2 C 0.5036(4) 0.4734(2) 0.06796(9)
C3 C 0.2950(3) 0.46387(19) 0.10407(8)
H3 H 0.3169 0.5007 0.1011
H4 H 0.2595 0.4621 0.1211
C4 C 0.2076(4) 0.4480(2) 0.08367(8)
C5 C 0.4156(3) 0.39876(19) 0.12829(7)
H5 H 0.4924 0.3837 0.1271
C6 C 0.4133(4) 0.43175(19) 0.15373(7)
H6 H 0.4763 0.4568 0.1538
H7 H 0.3432 0.4521 0.1546
C7 C 0.4217(4) 0.3956(2) 0.17733(8)
H8 H 0.4949 0.3777 0.1773
H9 H 0.4167 0.4169 0.1930
C8 C 0.7929(3) 0.52696(19) 0.03354(8)
H10 H 0.7685 0.5301 0.0512
C9 C 0.9030(3) 0.51281(17) 0.02832(7)
H11 H 0.9528 0.5063 0.0420
C10 C 0.9414(3) 0.50812(14) 0.00306(7)
C11 C 0.8631(3) 0.51985(17) -0.01629(7)
H12 H 0.8843 0.5181 -0.0337
C12 C 0.7540(3) 0.53409(17) -0.00960(8)
H13 H 0.7031 0.5418 -0.0229
C13 C 0.3493(3) 0.58234(19) 0.04330(8)
H14 H 0.3833 0.5722 0.0589
C14 C 0.2380(3) 0.60068(17) 0.04401(8)
H15 H 0.1996 0.6032 0.0597
C15 C 0.1848(3) 0.61510(15) 0.02116(7)
C16 C 0.2473(3) 0.61183(16) -0.00157(8)
H16 H 0.2155 0.6225 -0.0173
C17 C 0.3614(3) 0.59185(13) -0.00074(7)
H17 H 0.4019 0.5882 -0.0162
Cu1A Cu 0.18890(4) 0.19889(2) 0.022779(11)
Cu1M Cu -0.31110(4) 0.69889(2) 0.022779(11)
Cu1P Cu 1.43890(4) 0.44889(2) -0.022779(11)
O1A O 0.1859(3) 0.23695(17) 0.06157(7)
O2A O 0.3008(2) 0.30510(15) 0.05283(6)
O3A O 0.5233(2) 0.34292(15) 0.06982(5)
O4A O 0.6297(3) 0.27441(17) 0.08200(6)
N1A N 0.3512(3) 0.31943(15) 0.10439(6)
N2P N 1.2829(3) 0.46253(15) -0.01449(7)
N2A N 0.0329(3) 0.21253(15) 0.01449(7)
N3M N -0.1605(3) 0.67160(14) 0.02144(6)
N3A N 0.3395(3) 0.17160(14) 0.02144(6)
C1A C 0.2500(4) 0.2877(2) 0.09711(8)
H1A H 0.1818 0.3069 0.1021
H2A H 0.2510 0.2541 0.1065
C2A C 0.2464(4) 0.2766(2) 0.06796(9)
C3A C 0.4550(3) 0.28613(19) 0.10407(8)
H3A H 0.4331 0.2493 0.1011
H4A H 0.4905 0.2879 0.1211
C4A C 0.5424(4) 0.3020(2) 0.08367(8)
C5A C 0.3344(3) 0.35124(19) 0.12829(7)
H5A H 0.2576 0.3663 0.1271
C6A C 0.3367(4) 0.31825(19) 0.15373(7)
H6A H 0.2737 0.2932 0.1538
H7A H 0.4068 0.2979 0.1546
C7A C 0.3283(4) 0.3544(2) 0.17733(8)
H8A H 0.2551 0.3723 0.1773
H9A H 0.3333 0.3331 0.1930
C8P C 1.2071(3) 0.47304(19) -0.03354(8)
H10P H 1.2315 0.4699 -0.0512
C9P C 1.0970(3) 0.48719(17) -0.02832(7)
H11P H 1.0472 0.4937 -0.0420
C10P C 1.0586(3) 0.49188(14) -0.00306(7)
C11P C 1.1369(3) 0.48015(17) 0.01629(7)
H12P H 1.1157 0.4819 0.0337
C12P C 1.2460(3) 0.46591(17) 0.00960(8)
H13P H 1.2969 0.4582 0.0229
C13M C -0.0993(3) 0.66766(19) 0.04330(8)
H14M H -0.1333 0.6778 0.0589
C14M C 0.0120(3) 0.64932(17) 0.04401(8)
H15M H 0.0504 0.6468 0.0597
C15M C 0.0652(3) 0.63490(15) 0.02116(7)
C16M C 0.0027(3) 0.63817(16) -0.00157(8)
H16M H 0.0345 0.6275 -0.0173
C17M C -0.1114(3) 0.65815(13) -0.00074(7)
H17M H -0.1519 0.6618 -0.0162
O5 O 0.6807(3) 0.17815(13) 0.10040(7)
H18 H 0.6449 0.1969 0.0891
H19 H 0.6699 0.1926 0.1153
O6 O 1.0857(13) 0.1670(6) 0.0935(3)
H20 H 1.1110 0.1782 0.0781
H21 H 1.1174 0.1365 0.0952
O7 O 0.9052(17) 0.1511(9) 0.1051(3)
H22 H 0.8409 0.1648 0.1014
H23 H 0.9579 0.1738 0.1023
H24? H 0.6493 0.1474 0.1009
H25? H 1.0134 0.1585 0.0908
H26? H 0.9034 0.1378 0.1205
loop_
_geom_bond_atom_site_label_1
_geom_bond_atom_site_label_2
_geom_bond_site_symmetry_1
_geom_bond_site_symmetry_2
Cu1 O1 1_555 1_555
Cu2 O2 1_555 1_555
O1 C2 1_555 1_555
O2 C2 1_555 1_555
O3 Cu2 1_555 1_555
O4 C4 1_555 1_555
N1 Cu2 1_555 1_555
N2 Cu1 1_555 1_555
N3 Cu1 1_555 1_555
C1 N1 1_555 1_555
H1 C1 1_555 1_555
H2 C1 1_555 1_555
C2 C1 1_555 1_555
C3 N1 1_555 1_555
H3 C3 1_555 1_555
H4 C3 1_555 1_555
C4 O3 1_555 1_555
C5 N1 1_555 1_555
H5 C5 1_555 1_555
C6 C5 1_555 1_555
H6 C6 1_555 1_555
H7 C6 1_555 1_555
C7 C6 1_555 1_555
H8 C7 1_555 1_555
H9 C7 1_555 1_555
C8 N2 1_555 1_555
H10 C8 1_555 1_555
C9 C8 1_555 1_555
H11 C9 1_555 1_555
C10 C9 1_555 1_555
C11 C10 1_555 1_555
H12 C11 1_555 1_555
C12 N2 1_555 1_555
H13 C12 1_555 1_555
C13 N3 1_555 1_555
H14 C13 1_555 1_555
C14 C13 1_555 1_555
H15 C14 1_555 1_555
C15 C14 1_555 1_555
C16 C15 1_555 1_555
H16 C16 1_555 1_555
C17 N3 1_555 1_555
H17 C17 1_555 1_555
O5 H18 1_555 1_555
H19 O5 1_555 1_555
O6 H20 1_555 1_555
H21 O6 1_555 1_555
O7 H22 1_555 1_555
H23 O7 1_555 1_555
Cu1A O1A 1_555 1_555
Cu1M N3M 1_555 1_555
Cu1P N2P 1_555 1_555
O1A C2A 1_555 1_555
O2A Cu2 1_555 1_555
O3A Cu2 1_555 1_555
O4A C4A 1_555 1_555
N1A Cu2 1_555 1_555
N2P C8P 1_555 1_555
N2A Cu1A 1_555 1_555
N3M C13M 1_555 1_555
N3A Cu1A 1_555 1_555
C1A N1A 1_555 1_555
H1A C1A 1_555 1_555
H2A C1A 1_555 1_555
C2A O2A 1_555 1_555
C3A N1A 1_555 1_555
H3A C3A 1_555 1_555
H4A C3A 1_555 1_555
C4A O3A 1_555 1_555
C5A C5 1_555 1_555
H5A C5A 1_555 1_555
C6A C5A 1_555 1_555
H6A C6A 1_555 1_555
H7A C6A 1_555 1_555
C7A C7 1_555 1_555
H8A C7A 1_555 1_555
H9A C7A 1_555 1_555
C8P H10P 1_555 1_555
C9P C8P 1_555 1_555
H11P C9P 1_555 1_555
C10P C10 1_555 1_555
C11P C10P 1_555 1_555
H12P C11P 1_555 1_555
C12P N2P 1_555 1_555
H13P C12P 1_555 1_555
C13M H14M 1_555 1_555
C14M C13M 1_555 1_555
H15M C14M 1_555 1_555
C15M C15 1_555 1_555
C16M C15M 1_555 1_555
H16M C16M 1_555 1_555
C17M N3M 1_555 1_555
H17M C17M 1_555 1_555
C3 C4 1_555 1_555
C11 C12 1_555 1_555
C16 C17 1_555 1_555
N1A C5A 1_555 1_555
C1A C2A 1_555 1_555
C3A C4A 1_555 1_555
C6A C7A 1_555 1_555
C9P C10P 1_555 1_555
C11P C12P 1_555 1_555
C14M C15M 1_555 1_555
C16M C17M 1_555 1_555

#END
