
#######################################################################
#
#                 Cambridge Crystallographic Data Centre
#                                CCDC 
#
#######################################################################
#
# If this CIF has been generated from an entry in the Cambridge 
# Structural Database, then it will include bibliographic, chemical, 
# crystal, experimental, refinement or atomic coordinate data resulting 
# from the CCDC's data processing and validation procedures.
#
#######################################################################

data_IPIWIO01
_symmetry_cell_setting           orthorhombic
_symmetry_space_group_name_H-M   'F d d d'
_symmetry_Int_Tables_number      70
_space_group_name_Hall           '-F 2uv 2vw'
loop_
_symmetry_equiv_pos_site_id
_symmetry_equiv_pos_as_xyz
1 x,y,z
2 3/4-x,3/4-y,z
3 3/4-x,y,3/4-z
4 x,3/4-y,3/4-z
5 x,1/2+y,1/2+z
6 3/4-x,1/4-y,1/2+z
7 3/4-x,1/2+y,1/4-z
8 x,1/4-y,1/4-z
9 1/2+x,y,1/2+z
10 1/4-x,3/4-y,1/2+z
11 1/4-x,y,1/4-z
12 1/2+x,3/4-y,1/4-z
13 1/2+x,1/2+y,z
14 1/4-x,1/4-y,z
15 1/4-x,1/2+y,3/4-z
16 1/2+x,1/4-y,3/4-z
17 -x,-y,-z
18 1/4+x,1/4+y,-z
19 1/4+x,-y,1/4+z
20 -x,1/4+y,1/4+z
21 -x,1/2-y,1/2-z
22 1/4+x,3/4+y,1/2-z
23 1/4+x,1/2-y,3/4+z
24 -x,3/4+y,3/4+z
25 1/2-x,-y,1/2-z
26 3/4+x,1/4+y,1/2-z
27 3/4+x,-y,3/4+z
28 1/2-x,1/4+y,3/4+z
29 1/2-x,1/2-y,-z
30 3/4+x,3/4+y,-z
31 3/4+x,1/2-y,1/4+z
32 1/2-x,3/4+y,1/4+z
_cell_length_a                   11.7434(19)
_cell_length_b                   24.892(4)
_cell_length_c                   50.997(8)
_cell_angle_alpha                90
_cell_angle_beta                 90
_cell_angle_gamma                90
_cell_volume                     14907.3
loop_
_atom_site_label
_atom_site_type_symbol
_atom_site_fract_x
_atom_site_fract_y
_atom_site_fract_z
Cu1 Cu 0.56065(4) 0.551295(18) 0.021973(9)
Cu2 Cu 0.3750 0.3750 0.070487(12)
O1 O 0.5616(2) 0.51256(15) 0.06076(6)
O2 O 0.4459(2) 0.44450(14) 0.05240(5)
O3 O 0.2255(2) 0.40546(15) 0.06940(5)
O4 O 0.1179(3) 0.47337(19) 0.08196(6)
N1 N 0.3978(3) 0.43063(16) 0.10407(6)
N2 N 0.7162(2) 0.53680(12) 0.01416(6)
N3 N 0.4098(2) 0.57911(12) 0.02065(6)
C1 C 0.4969(3) 0.4627(2) 0.09674(7)
H1 H 0.5672(3) 0.4438(2) 0.10219(7)
H2 H 0.4940(3) 0.4975(2) 0.10615(7)
C2 C 0.5007(3) 0.4740(2) 0.06751(8)
C3 C 0.2923(3) 0.4630(2) 0.10373(8)
H3 H 0.3126(3) 0.5011(2) 0.10063(8)
H4 H 0.2565(3) 0.4607(2) 0.12127(8)
C4 C 0.2057(4) 0.4462(2) 0.08346(8)
C5 C 0.4160(3) 0.39877(18) 0.12809(7)
H5 H 0.4944(3) 0.38333(18) 0.12682(7)
C6 C 0.4121(4) 0.43131(18) 0.15344(7)
H6 H 0.3397(4) 0.45162(18) 0.15419(7)
H7 H 0.4754(4) 0.45755(18) 0.15343(7)
C7 C 0.4216(5) 0.39541(19) 0.17742(8)
H8 H 0.4966(5) 0.37728(19) 0.17749(8)
H9 H 0.4160(5) 0.41766(19) 0.19346(8)
C8 C 0.7913(3) 0.52726(16) 0.03330(7)
H10 H 0.7669(3) 0.53052(16) 0.05099(7)
C9 C 0.9027(3) 0.51284(15) 0.02847(7)
H11 H 0.9532(3) 0.50663(15) 0.04270(7)
C10 C 0.9408(3) 0.50784(13) 0.00300(6)
C11 C 0.8630(3) 0.51883(14) -0.01667(7)
H12 H 0.8855(3) 0.51664(14) -0.03453(7)
C12 C 0.7534(3) 0.53323(14) -0.01029(7)
H13 H 0.7017(3) 0.54101(14) -0.02411(7)
C13 C 0.3495(3) 0.58317(15) 0.04268(7)
H14 H 0.3852(3) 0.57356(15) 0.05872(7)
C14 C 0.2386(3) 0.60058(15) 0.04350(7)
H15 H 0.1992(3) 0.60226(15) 0.05974(7)
C15 C 0.1850(3) 0.61566(13) 0.02055(6)
C16 C 0.2483(3) 0.61243(13) -0.00227(7)
H16 H 0.2155(3) 0.62284(13) -0.01852(7)
C17 C 0.3591(3) 0.59364(13) -0.00153(7)
H17 H 0.4005(3) 0.59097(13) -0.01749(7)
Cu1A Cu 0.18935(4) 0.198705(18) 0.021973(9)
Cu1M Cu -0.31065(4) 0.698705(18) 0.021973(9)
Cu1P Cu 1.43935(4) 0.448705(18) -0.021973(9)
O1A O 0.1884(2) 0.23744(15) 0.06076(6)
O2A O 0.3041(2) 0.30550(14) 0.05240(5)
O3A O 0.5245(2) 0.34454(15) 0.06940(5)
O4A O 0.6321(3) 0.27663(19) 0.08196(6)
N1A N 0.3522(3) 0.31937(16) 0.10407(6)
N2P N 1.2838(2) 0.46320(12) -0.01416(6)
N2A N 0.0338(2) 0.21320(12) 0.01416(6)
N3M N -0.1598(2) 0.67089(12) 0.02065(6)
N3A N 0.3402(2) 0.17089(12) 0.02065(6)
C1A C 0.2531(3) 0.2873(2) 0.09674(7)
H1A H 0.1828(3) 0.3062(2) 0.10219(7)
H2A H 0.2560(3) 0.2525(2) 0.10615(7)
C2A C 0.2493(3) 0.2760(2) 0.06751(8)
C3A C 0.4577(3) 0.2870(2) 0.10373(8)
H3A H 0.4374(3) 0.2489(2) 0.10063(8)
H4A H 0.4935(3) 0.2893(2) 0.12127(8)
C4A C 0.5443(4) 0.3038(2) 0.08346(8)
C5A C 0.3340(3) 0.35123(18) 0.12809(7)
H5A H 0.2556(3) 0.36667(18) 0.12682(7)
C6A C 0.3379(4) 0.31869(18) 0.15344(7)
H6A H 0.4103(4) 0.29838(18) 0.15419(7)
H7A H 0.2746(4) 0.29245(18) 0.15343(7)
C7A C 0.3284(5) 0.35459(19) 0.17742(8)
H8A H 0.2534(5) 0.37272(19) 0.17749(8)
H9A H 0.3340(5) 0.33234(19) 0.19346(8)
C8P C 1.2087(3) 0.47274(16) -0.03330(7)
H10P H 1.2331(3) 0.46948(16) -0.05099(7)
C9P C 1.0973(3) 0.48716(15) -0.02847(7)
H11P H 1.0468(3) 0.49337(15) -0.04270(7)
C10P C 1.0592(3) 0.49216(13) -0.00300(6)
C11P C 1.1370(3) 0.48117(14) 0.01667(7)
H12P H 1.1145(3) 0.48336(14) 0.03453(7)
C12P C 1.2466(3) 0.46677(14) 0.01029(7)
H13P H 1.2983(3) 0.45899(14) 0.02411(7)
C13M C -0.0995(3) 0.66683(15) 0.04268(7)
H14M H -0.1352(3) 0.67644(15) 0.05872(7)
C14M C 0.0114(3) 0.64942(15) 0.04350(7)
H15M H 0.0508(3) 0.64774(15) 0.05974(7)
C15M C 0.0650(3) 0.63434(13) 0.02055(6)
C16M C 0.0017(3) 0.63757(13) -0.00227(7)
H16M H 0.0345(3) 0.62716(13) -0.01852(7)
C17M C -0.1091(3) 0.65636(13) -0.00153(7)
H17M H -0.1505(3) 0.65903(13) -0.01749(7)
O5 O 0.6769(5) 0.1802(2) 0.09954(13)
D1 D 0.6402 0.1991 0.0883
D2 D 0.6652 0.1948 0.1145
O6 O 1.0781(7) 0.1743(4) 0.0944(3)
D3 D 1.1045 0.1856 0.0787
D4 D 1.1109 0.1439 0.0959
O7 O 0.8929(8) 0.1566(6) 0.1046(3)
D5 D 0.8281 0.1707 0.1011
D6 D 0.9451 0.1797 0.1021
D7? D 0.6446 0.1496 0.1000
D8? D 1.0069 0.1659 0.0915
D9? D 0.8906 0.1437 0.1202
loop_
_geom_bond_atom_site_label_1
_geom_bond_atom_site_label_2
_geom_bond_site_symmetry_1
_geom_bond_site_symmetry_2
Cu1 O1 1_555 1_555
Cu2 O2 1_555 1_555
O1 C2 1_555 1_555
O2 C2 1_555 1_555
O3 Cu2 1_555 1_555
O4 C4 1_555 1_555
N1 Cu2 1_555 1_555
N2 Cu1 1_555 1_555
N3 Cu1 1_555 1_555
C1 N1 1_555 1_555
H1 C1 1_555 1_555
H2 C1 1_555 1_555
C2 C1 1_555 1_555
C3 N1 1_555 1_555
H3 C3 1_555 1_555
H4 C3 1_555 1_555
C4 O3 1_555 1_555
C5 N1 1_555 1_555
H5 C5 1_555 1_555
C6 C5 1_555 1_555
H6 C6 1_555 1_555
H7 C6 1_555 1_555
C7 C6 1_555 1_555
H8 C7 1_555 1_555
H9 C7 1_555 1_555
C8 N2 1_555 1_555
H10 C8 1_555 1_555
C9 C8 1_555 1_555
H11 C9 1_555 1_555
C10 C9 1_555 1_555
C11 C10 1_555 1_555
H12 C11 1_555 1_555
C12 N2 1_555 1_555
H13 C12 1_555 1_555
C13 N3 1_555 1_555
H14 C13 1_555 1_555
C14 C13 1_555 1_555
H15 C14 1_555 1_555
C15 C14 1_555 1_555
C16 C15 1_555 1_555
H16 C16 1_555 1_555
C17 N3 1_555 1_555
H17 C17 1_555 1_555
O5 D1 1_555 1_555
D2 O5 1_555 1_555
O6 D3 1_555 1_555
D4 O6 1_555 1_555
O7 D5 1_555 1_555
D6 O7 1_555 1_555
Cu1A O1A 1_555 1_555
Cu1M N3M 1_555 1_555
Cu1P N2P 1_555 1_555
O1A C2A 1_555 1_555
O2A Cu2 1_555 1_555
O3A Cu2 1_555 1_555
O4A C4A 1_555 1_555
N1A Cu2 1_555 1_555
N2P C8P 1_555 1_555
N2A Cu1A 1_555 1_555
N3M C13M 1_555 1_555
N3A Cu1A 1_555 1_555
C1A N1A 1_555 1_555
H1A C1A 1_555 1_555
H2A C1A 1_555 1_555
C2A O2A 1_555 1_555
C3A N1A 1_555 1_555
H3A C3A 1_555 1_555
H4A C3A 1_555 1_555
C4A O3A 1_555 1_555
C5A C5 1_555 1_555
H5A C5A 1_555 1_555
C6A C5A 1_555 1_555
H6A C6A 1_555 1_555
H7A C6A 1_555 1_555
C7A C7 1_555 1_555
H8A C7A 1_555 1_555
H9A C7A 1_555 1_555
C8P H10P 1_555 1_555
C9P C8P 1_555 1_555
H11P C9P 1_555 1_555
C10P C10 1_555 1_555
C11P C10P 1_555 1_555
H12P C11P 1_555 1_555
C12P N2P 1_555 1_555
H13P C12P 1_555 1_555
C13M H14M 1_555 1_555
C14M C13M 1_555 1_555
H15M C14M 1_555 1_555
C15M C15 1_555 1_555
C16M C15M 1_555 1_555
H16M C16M 1_555 1_555
C17M N3M 1_555 1_555
H17M C17M 1_555 1_555
C3 C4 1_555 1_555
C11 C12 1_555 1_555
C16 C17 1_555 1_555
N1A C5A 1_555 1_555
C1A C2A 1_555 1_555
C3A C4A 1_555 1_555
C6A C7A 1_555 1_555
C9P C10P 1_555 1_555
C11P C12P 1_555 1_555
C14M C15M 1_555 1_555
C16M C17M 1_555 1_555

#END
