
#######################################################################
#
#                 Cambridge Crystallographic Data Centre
#                                CCDC 
#
#######################################################################
#
# If this CIF has been generated from an entry in the Cambridge 
# Structural Database, then it will include bibliographic, chemical, 
# crystal, experimental, refinement or atomic coordinate data resulting 
# from the CCDC's data processing and validation procedures.
#
#######################################################################

data_IPIWIO
_symmetry_cell_setting           orthorhombic
_symmetry_space_group_name_H-M   'F d d d'
_symmetry_Int_Tables_number      70
_space_group_name_Hall           '-F 2uv 2vw'
loop_
_symmetry_equiv_pos_site_id
_symmetry_equiv_pos_as_xyz
1 x,y,z
2 3/4-x,3/4-y,z
3 3/4-x,y,3/4-z
4 x,3/4-y,3/4-z
5 x,1/2+y,1/2+z
6 3/4-x,1/4-y,1/2+z
7 3/4-x,1/2+y,1/4-z
8 x,1/4-y,1/4-z
9 1/2+x,y,1/2+z
10 1/4-x,3/4-y,1/2+z
11 1/4-x,y,1/4-z
12 1/2+x,3/4-y,1/4-z
13 1/2+x,1/2+y,z
14 1/4-x,1/4-y,z
15 1/4-x,1/2+y,3/4-z
16 1/2+x,1/4-y,3/4-z
17 -x,-y,-z
18 1/4+x,1/4+y,-z
19 1/4+x,-y,1/4+z
20 -x,1/4+y,1/4+z
21 -x,1/2-y,1/2-z
22 1/4+x,3/4+y,1/2-z
23 1/4+x,1/2-y,3/4+z
24 -x,3/4+y,3/4+z
25 1/2-x,-y,1/2-z
26 3/4+x,1/4+y,1/2-z
27 3/4+x,-y,3/4+z
28 1/2-x,1/4+y,3/4+z
29 1/2-x,1/2-y,-z
30 3/4+x,3/4+y,-z
31 3/4+x,1/2-y,1/4+z
32 1/2-x,3/4+y,1/4+z
_cell_length_a                   11.8037(5)
_cell_length_b                   24.8742(12)
_cell_length_c                   51.423(3)
_cell_angle_alpha                90
_cell_angle_beta                 90
_cell_angle_gamma                90
_cell_volume                     15098.2
loop_
_atom_site_label
_atom_site_type_symbol
_atom_site_fract_x
_atom_site_fract_y
_atom_site_fract_z
Cu1 Cu 0.56076(4) 0.55134(2) 0.022025(9)
Cu2 Cu 0.3750 0.3750 0.070619(11)
O1 O 0.5625(2) 0.51281(15) 0.06089(6)
O2 O 0.4462(2) 0.44489(14) 0.05249(5)
O3 O 0.2257(2) 0.40558(15) 0.06943(5)
O4 O 0.1179(3) 0.47402(17) 0.08185(5)
N1 N 0.3984(2) 0.43088(16) 0.10413(6)
N2 N 0.7164(2) 0.53688(13) 0.01417(6)
N3 N 0.4104(2) 0.57913(13) 0.02066(6)
C1 C 0.4976(3) 0.4632(2) 0.09703(7)
H1 H 0.5673 0.4439 0.1022
H2 H 0.4953 0.4977 0.1066
C2 C 0.5014(3) 0.4745(2) 0.06763(7)
C3 C 0.2920(3) 0.4632(2) 0.10377(8)
H3 H 0.3120 0.5013 0.1006
H4 H 0.2565 0.4611 0.1212
C4 C 0.2053(3) 0.4462(2) 0.08367(8)
C5 C 0.4152(3) 0.39890(19) 0.12809(6)
H5 H 0.4933 0.3835 0.1269
C6 C 0.4121(4) 0.43177(19) 0.15362(7)
H6 H 0.4758 0.4577 0.1537
H7 H 0.3405 0.4524 0.1545
C7 C 0.4210(5) 0.39521(19) 0.17727(8)
H8 H 0.4952 0.3767 0.1771
H9 H 0.4164 0.4171 0.1933
C8 C 0.7922(3) 0.52724(17) 0.03331(7)
H10 H 0.7677 0.5303 0.0510
C9 C 0.9023(3) 0.51308(17) 0.02849(7)
H11 H 0.9526 0.5067 0.0426
C10 C 0.9409(3) 0.50795(14) 0.00307(7)
C11 C 0.8626(3) 0.51917(15) -0.01659(7)
H12 H 0.8848 0.5171 -0.0343
C12 C 0.7538(3) 0.53313(15) -0.01030(7)
H13 H 0.7023 0.5405 -0.0240
C13 C 0.3495(3) 0.58310(16) 0.04271(7)
H14 H 0.3851 0.5734 0.0586
C14 C 0.2383(3) 0.60047(16) 0.04363(7)
H15 H 0.1988 0.6020 0.0597
C15 C 0.1852(3) 0.61562(14) 0.02060(7)
C16 C 0.2481(3) 0.61221(14) -0.00226(7)
H16 H 0.2153 0.6227 -0.0183
C17 C 0.3597(2) 0.59324(12) -0.00146(6)
H17 H 0.4008 0.5903 -0.0173
Cu1A Cu 0.18924(4) 0.19866(2) 0.022025(9)
Cu1P Cu 1.43924(4) 0.44866(2) -0.022025(9)
Cu1M Cu -0.31076(4) 0.69866(2) 0.022025(9)
O1A O 0.1875(2) 0.23719(15) 0.06089(6)
O2A O 0.3038(2) 0.30511(14) 0.05249(5)
O3A O 0.5243(2) 0.34442(15) 0.06943(5)
O4A O 0.6321(3) 0.27598(17) 0.08185(5)
N1A N 0.3516(2) 0.31912(16) 0.10413(6)
N2P N 1.2836(2) 0.46312(13) -0.01417(6)
N2A N 0.0336(2) 0.21312(13) 0.01417(6)
N3M N -0.1604(2) 0.67087(13) 0.02066(6)
N3A N 0.3396(2) 0.17087(13) 0.02066(6)
C1A C 0.2524(3) 0.2868(2) 0.09703(7)
H1A H 0.1827 0.3061 0.1022
H2A H 0.2547 0.2523 0.1066
C2A C 0.2486(3) 0.2755(2) 0.06763(7)
C3A C 0.4580(3) 0.2868(2) 0.10377(8)
H3A H 0.4380 0.2487 0.1006
H4A H 0.4935 0.2889 0.1212
C4A C 0.5447(3) 0.3038(2) 0.08367(8)
C5A C 0.3348(3) 0.35110(19) 0.12809(6)
H5A H 0.2567 0.3665 0.1269
C6A C 0.3379(4) 0.31823(19) 0.15362(7)
H6A H 0.2742 0.2923 0.1537
H7A H 0.4095 0.2976 0.1545
C7A C 0.3290(5) 0.35479(19) 0.17727(8)
H8A H 0.2548 0.3733 0.1771
H9A H 0.3336 0.3329 0.1933
C8P C 1.2078(3) 0.47276(17) -0.03331(7)
H10P H 1.2323 0.4697 -0.0510
C9P C 1.0977(3) 0.48692(17) -0.02849(7)
H11P H 1.0474 0.4933 -0.0426
C10P C 1.0591(3) 0.49205(14) -0.00307(7)
C11P C 1.1374(3) 0.48083(15) 0.01659(7)
H12P H 1.1152 0.4829 0.0343
C12P C 1.2462(3) 0.46687(15) 0.01030(7)
H13P H 1.2977 0.4595 0.0240
C13M C -0.0995(3) 0.66690(16) 0.04271(7)
H14M H -0.1351 0.6766 0.0586
C14M C 0.0117(3) 0.64953(16) 0.04363(7)
H15M H 0.0512 0.6480 0.0597
C15M C 0.0648(3) 0.63438(14) 0.02060(7)
C16M C 0.0019(3) 0.63779(14) -0.00226(7)
H16M H 0.0347 0.6273 -0.0183
C17M C -0.1097(2) 0.65676(12) -0.00146(6)
H17M H -0.1508 0.6597 -0.0173
O5 O 0.6789(2) 0.17955(12) 0.09968(6)
H18 H 0.6432 0.1983 0.0884
H19 H 0.6681 0.1940 0.1146
O6 O 1.0782(7) 0.1722(4) 0.0940(3)
H20 H 1.1036 0.1834 0.0785
H21 H 1.1100 0.1417 0.0957
O7 O 0.8973(8) 0.1581(6) 0.1054(3)
H23 H 0.8330 0.1718 0.1016
H24 H 0.8955 0.1448 0.1207
H22? H 1.0059 0.1637 0.0912
H25? H 0.9500 0.1808 0.1026
H26? H 0.6475 0.1488 0.1002
loop_
_geom_bond_atom_site_label_1
_geom_bond_atom_site_label_2
_geom_bond_site_symmetry_1
_geom_bond_site_symmetry_2
Cu1 O1 1_555 1_555
Cu2 O2 1_555 1_555
O1 C2 1_555 1_555
O2 C2 1_555 1_555
O3 Cu2 1_555 1_555
O4 C4 1_555 1_555
N1 Cu2 1_555 1_555
N2 Cu1 1_555 1_555
N3 Cu1 1_555 1_555
C1 N1 1_555 1_555
H1 C1 1_555 1_555
H2 C1 1_555 1_555
C2 C1 1_555 1_555
C3 N1 1_555 1_555
H3 C3 1_555 1_555
H4 C3 1_555 1_555
C4 O3 1_555 1_555
C5 N1 1_555 1_555
H5 C5 1_555 1_555
C6 C5 1_555 1_555
H6 C6 1_555 1_555
H7 C6 1_555 1_555
C7 C6 1_555 1_555
H8 C7 1_555 1_555
H9 C7 1_555 1_555
C8 N2 1_555 1_555
H10 C8 1_555 1_555
C9 C8 1_555 1_555
H11 C9 1_555 1_555
C10 C9 1_555 1_555
C11 C10 1_555 1_555
H12 C11 1_555 1_555
C12 N2 1_555 1_555
H13 C12 1_555 1_555
C13 N3 1_555 1_555
H14 C13 1_555 1_555
C14 C13 1_555 1_555
H15 C14 1_555 1_555
C15 C14 1_555 1_555
C16 C15 1_555 1_555
H16 C16 1_555 1_555
C17 N3 1_555 1_555
H17 C17 1_555 1_555
O5 H18 1_555 1_555
H19 O5 1_555 1_555
O6 H20 1_555 1_555
H21 O6 1_555 1_555
O7 H23 1_555 1_555
H24 O7 1_555 1_555
Cu1A O1A 1_555 1_555
Cu1P N2P 1_555 1_555
Cu1M N3M 1_555 1_555
O1A C2A 1_555 1_555
O2A Cu2 1_555 1_555
O3A Cu2 1_555 1_555
O4A C4A 1_555 1_555
N1A Cu2 1_555 1_555
N2P C8P 1_555 1_555
N2A Cu1A 1_555 1_555
N3M C13M 1_555 1_555
N3A Cu1A 1_555 1_555
C1A N1A 1_555 1_555
H1A C1A 1_555 1_555
H2A C1A 1_555 1_555
C2A O2A 1_555 1_555
C3A N1A 1_555 1_555
H3A C3A 1_555 1_555
H4A C3A 1_555 1_555
C4A O3A 1_555 1_555
C5A C5 1_555 1_555
H5A C5A 1_555 1_555
C6A C5A 1_555 1_555
H6A C6A 1_555 1_555
H7A C6A 1_555 1_555
C7A C7 1_555 1_555
H8A C7A 1_555 1_555
H9A C7A 1_555 1_555
C8P H10P 1_555 1_555
C9P C8P 1_555 1_555
H11P C9P 1_555 1_555
C10P C10 1_555 1_555
C11P C10P 1_555 1_555
H12P C11P 1_555 1_555
C12P N2P 1_555 1_555
H13P C12P 1_555 1_555
C13M H14M 1_555 1_555
C14M C13M 1_555 1_555
H15M C14M 1_555 1_555
C15M C15 1_555 1_555
C16M C15M 1_555 1_555
H16M C16M 1_555 1_555
C17M N3M 1_555 1_555
H17M C17M 1_555 1_555
C3 C4 1_555 1_555
C11 C12 1_555 1_555
C16 C17 1_555 1_555
N1A C5A 1_555 1_555
C1A C2A 1_555 1_555
C3A C4A 1_555 1_555
C6A C7A 1_555 1_555
C9P C10P 1_555 1_555
C11P C12P 1_555 1_555
C14M C15M 1_555 1_555
C16M C17M 1_555 1_555

#END
