
#######################################################################
#
#                 Cambridge Crystallographic Data Centre
#                                CCDC 
#
#######################################################################
#
# If this CIF has been generated from an entry in the Cambridge 
# Structural Database, then it will include bibliographic, chemical, 
# crystal, experimental, refinement or atomic coordinate data resulting 
# from the CCDC's data processing and validation procedures.
#
#######################################################################

data_IPIWIO03
_symmetry_cell_setting           orthorhombic
_symmetry_space_group_name_H-M   'F d d d'
_symmetry_Int_Tables_number      70
_space_group_name_Hall           '-F 2uv 2vw'
loop_
_symmetry_equiv_pos_site_id
_symmetry_equiv_pos_as_xyz
1 x,y,z
2 3/4-x,3/4-y,z
3 3/4-x,y,3/4-z
4 x,3/4-y,3/4-z
5 x,1/2+y,1/2+z
6 3/4-x,1/4-y,1/2+z
7 3/4-x,1/2+y,1/4-z
8 x,1/4-y,1/4-z
9 1/2+x,y,1/2+z
10 1/4-x,3/4-y,1/2+z
11 1/4-x,y,1/4-z
12 1/2+x,3/4-y,1/4-z
13 1/2+x,1/2+y,z
14 1/4-x,1/4-y,z
15 1/4-x,1/2+y,3/4-z
16 1/2+x,1/4-y,3/4-z
17 -x,-y,-z
18 1/4+x,1/4+y,-z
19 1/4+x,-y,1/4+z
20 -x,1/4+y,1/4+z
21 -x,1/2-y,1/2-z
22 1/4+x,3/4+y,1/2-z
23 1/4+x,1/2-y,3/4+z
24 -x,3/4+y,3/4+z
25 1/2-x,-y,1/2-z
26 3/4+x,1/4+y,1/2-z
27 3/4+x,-y,3/4+z
28 1/2-x,1/4+y,3/4+z
29 1/2-x,1/2-y,-z
30 3/4+x,3/4+y,-z
31 3/4+x,1/2-y,1/4+z
32 1/2-x,3/4+y,1/4+z
_cell_length_a                   11.7630(6)
_cell_length_b                   25.1910(18)
_cell_length_c                   51.501(3)
_cell_angle_alpha                90
_cell_angle_beta                 90
_cell_angle_gamma                90
_cell_volume                     15260.9
loop_
_atom_site_label
_atom_site_type_symbol
_atom_site_fract_x
_atom_site_fract_y
_atom_site_fract_z
Cu1 Cu 0.56085(4) 0.55115(2) 0.022519(10)
Cu2 Cu 0.3750 0.3750 0.070736(12)
O1 O 0.5629(2) 0.51224(15) 0.06128(6)
O2 O 0.4481(2) 0.44429(14) 0.05254(5)
O3 O 0.2260(2) 0.40636(14) 0.06962(5)
O4 O 0.1198(3) 0.47490(15) 0.08177(6)
N1 N 0.3983(2) 0.42974(15) 0.10418(6)
N2 N 0.7168(2) 0.53723(13) 0.01445(6)
N3 N 0.4103(2) 0.57894(13) 0.02106(6)
C1 C 0.4986(3) 0.4627(2) 0.09695(8)
H1 H 0.5676 0.4443 0.1020
H2 H 0.4957 0.4960 0.1064
C2 C 0.5020(3) 0.4741(2) 0.06772(8)
C3 C 0.2941(3) 0.46350(19) 0.10386(7)
H3 H 0.3163 0.5000 0.1007
H4 H 0.2586 0.4620 0.1208
C4 C 0.2072(3) 0.4471(2) 0.08348(8)
C5 C 0.4156(3) 0.39879(17) 0.12808(6)
H5 H 0.4925 0.3839 0.1269
C6 C 0.4122(4) 0.43046(19) 0.15356(7)
H6 H 0.4743 0.4558 0.1537
H7 H 0.3416 0.4503 0.1543
C7 C 0.4210(4) 0.39595(19) 0.17709(7)
H8 H 0.4142 0.4176 0.1926
H9 H 0.4950 0.3789 0.1774
C8 C 0.7924(3) 0.52691(19) 0.03333(7)
H10 H 0.7679 0.5300 0.0510
C9 C 0.9027(3) 0.51217(17) 0.02824(7)
H11 H 0.9518 0.5050 0.0419
C10 C 0.9412(2) 0.50797(13) 0.00304(6)
C11 C 0.8628(3) 0.51943(15) -0.01632(7)
H12 H 0.8840 0.5175 -0.0337
C12 C 0.7538(3) 0.53367(16) -0.00975(7)
H13 H 0.7031 0.5413 -0.0231
C13 C 0.3492(3) 0.58253(18) 0.04303(8)
H14 H 0.3830 0.5721 0.0585
C14 C 0.2384(3) 0.60096(16) 0.04366(7)
H15 H 0.2002 0.6036 0.0594
C15 C 0.1845(3) 0.61553(14) 0.02081(7)
C16 C 0.2479(3) 0.61196(15) -0.00192(7)
H16 H 0.2158 0.6219 -0.0177
C17 C 0.3610(3) 0.59329(12) -0.00110(6)
H17 H 0.4021 0.5910 -0.0165
Cu1A Cu 0.18915(4) 0.19885(2) 0.022519(10)
Cu1P Cu 1.43915(4) 0.44885(2) -0.022519(10)
Cu1M Cu -0.31085(4) 0.69885(2) 0.022519(10)
O1A O 0.1871(2) 0.23776(15) 0.06128(6)
O2A O 0.3019(2) 0.30571(14) 0.05254(5)
O3A O 0.5240(2) 0.34364(14) 0.06962(5)
O4A O 0.6302(3) 0.27510(15) 0.08177(6)
N1A N 0.3517(2) 0.32026(15) 0.10418(6)
N2P N 1.2832(2) 0.46277(13) -0.01445(6)
N2A N 0.0332(2) 0.21277(13) 0.01445(6)
N3M N -0.1603(2) 0.67106(13) 0.02106(6)
N3A N 0.3397(2) 0.17106(13) 0.02106(6)
C1A C 0.2514(3) 0.2873(2) 0.09695(8)
H1A H 0.1824 0.3057 0.1020
H2A H 0.2543 0.2540 0.1064
C2A C 0.2480(3) 0.2759(2) 0.06772(8)
C3A C 0.4559(3) 0.28650(19) 0.10386(7)
H3A H 0.4337 0.2500 0.1007
H4A H 0.4914 0.2880 0.1208
C4A C 0.5428(3) 0.3029(2) 0.08348(8)
C5A C 0.3344(3) 0.35121(17) 0.12808(6)
H5A H 0.2575 0.3661 0.1269
C6A C 0.3378(4) 0.31954(19) 0.15356(7)
H6A H 0.2757 0.2942 0.1537
H7A H 0.4084 0.2997 0.1543
C7A C 0.3290(4) 0.35405(19) 0.17709(7)
H8A H 0.3358 0.3324 0.1926
H9A H 0.2550 0.3711 0.1774
C8P C 1.2076(3) 0.47309(19) -0.03333(7)
H10P H 1.2321 0.4700 -0.0510
C9P C 1.0973(3) 0.48783(17) -0.02824(7)
H11P H 1.0482 0.4950 -0.0419
C10P C 1.0588(2) 0.49203(13) -0.00304(6)
C11P C 1.1372(3) 0.48057(15) 0.01632(7)
H12P H 1.1160 0.4825 0.0337
C12P C 1.2462(3) 0.46633(16) 0.00975(7)
H13P H 1.2969 0.4587 0.0231
C13M C -0.0992(3) 0.66747(18) 0.04303(8)
H14M H -0.1330 0.6779 0.0585
C14M C 0.0116(3) 0.64904(16) 0.04366(7)
H15M H 0.0498 0.6464 0.0594
C15M C 0.0655(3) 0.63447(14) 0.02081(7)
C16M C 0.0021(3) 0.63804(15) -0.00192(7)
H16M H 0.0342 0.6281 -0.0177
C17M C -0.1110(3) 0.65671(12) -0.00110(6)
H17M H -0.1521 0.6590 -0.0165
O5 O 0.6802(3) 0.17960(12) 0.10004(6)
H18 H 0.6445 0.1983 0.0888
H19 H 0.6694 0.1940 0.1150
O6 O 1.0827(9) 0.1739(5) 0.0948(3)
H20 H 1.1080 0.1851 0.0793
H21 H 1.1144 0.1434 0.0965
O7 O 0.9025(11) 0.1556(7) 0.1052(3)
H23 H 0.8382 0.1692 0.1014
H24 H 0.9007 0.1423 0.1205
H22? H 1.0104 0.1654 0.0921
H25? H 0.9552 0.1782 0.1024
H26? H 0.6488 0.1488 0.1005
loop_
_geom_bond_atom_site_label_1
_geom_bond_atom_site_label_2
_geom_bond_site_symmetry_1
_geom_bond_site_symmetry_2
Cu1 O1 1_555 1_555
Cu2 O2 1_555 1_555
O1 C2 1_555 1_555
O2 C2 1_555 1_555
O3 Cu2 1_555 1_555
O4 C4 1_555 1_555
N1 Cu2 1_555 1_555
N2 Cu1 1_555 1_555
N3 Cu1 1_555 1_555
C1 N1 1_555 1_555
H1 C1 1_555 1_555
H2 C1 1_555 1_555
C2 C1 1_555 1_555
C3 N1 1_555 1_555
H3 C3 1_555 1_555
H4 C3 1_555 1_555
C4 O3 1_555 1_555
C5 N1 1_555 1_555
H5 C5 1_555 1_555
C6 C5 1_555 1_555
H6 C6 1_555 1_555
H7 C6 1_555 1_555
C7 C6 1_555 1_555
H8 C7 1_555 1_555
H9 C7 1_555 1_555
C8 N2 1_555 1_555
H10 C8 1_555 1_555
C9 C8 1_555 1_555
H11 C9 1_555 1_555
C10 C9 1_555 1_555
C11 C10 1_555 1_555
H12 C11 1_555 1_555
C12 N2 1_555 1_555
H13 C12 1_555 1_555
C13 N3 1_555 1_555
H14 C13 1_555 1_555
C14 C13 1_555 1_555
H15 C14 1_555 1_555
C15 C14 1_555 1_555
C16 C15 1_555 1_555
H16 C16 1_555 1_555
C17 N3 1_555 1_555
H17 C17 1_555 1_555
O5 H18 1_555 1_555
H19 O5 1_555 1_555
O6 H20 1_555 1_555
H21 O6 1_555 1_555
O7 H23 1_555 1_555
H24 O7 1_555 1_555
Cu1A O1A 1_555 1_555
Cu1P N2P 1_555 1_555
Cu1M N3M 1_555 1_555
O1A C2A 1_555 1_555
O2A Cu2 1_555 1_555
O3A Cu2 1_555 1_555
O4A C4A 1_555 1_555
N1A Cu2 1_555 1_555
N2P C8P 1_555 1_555
N2A Cu1A 1_555 1_555
N3M C13M 1_555 1_555
N3A Cu1A 1_555 1_555
C1A N1A 1_555 1_555
H1A C1A 1_555 1_555
H2A C1A 1_555 1_555
C2A O2A 1_555 1_555
C3A N1A 1_555 1_555
H3A C3A 1_555 1_555
H4A C3A 1_555 1_555
C4A O3A 1_555 1_555
C5A C5 1_555 1_555
H5A C5A 1_555 1_555
C6A C5A 1_555 1_555
H6A C6A 1_555 1_555
H7A C6A 1_555 1_555
C7A C7 1_555 1_555
H8A C7A 1_555 1_555
H9A C7A 1_555 1_555
C8P H10P 1_555 1_555
C9P C8P 1_555 1_555
H11P C9P 1_555 1_555
C10P C10 1_555 1_555
C11P C10P 1_555 1_555
H12P C11P 1_555 1_555
C12P N2P 1_555 1_555
H13P C12P 1_555 1_555
C13M H14M 1_555 1_555
C14M C13M 1_555 1_555
H15M C14M 1_555 1_555
C15M C15 1_555 1_555
C16M C15M 1_555 1_555
H16M C16M 1_555 1_555
C17M N3M 1_555 1_555
H17M C17M 1_555 1_555
C3 C4 1_555 1_555
C11 C12 1_555 1_555
C16 C17 1_555 1_555
N1A C5A 1_555 1_555
C1A C2A 1_555 1_555
C3A C4A 1_555 1_555
C6A C7A 1_555 1_555
C9P C10P 1_555 1_555
C11P C12P 1_555 1_555
C14M C15M 1_555 1_555
C16M C17M 1_555 1_555

#END
