
#######################################################################
#
#                 Cambridge Crystallographic Data Centre
#                                CCDC 
#
#######################################################################
#
# If this CIF has been generated from an entry in the Cambridge 
# Structural Database, then it will include bibliographic, chemical, 
# crystal, experimental, refinement or atomic coordinate data resulting 
# from the CCDC's data processing and validation procedures.
#
#######################################################################

data_IPIWIO05
_symmetry_cell_setting           orthorhombic
_symmetry_space_group_name_H-M   'F d d d'
_symmetry_Int_Tables_number      70
_space_group_name_Hall           '-F 2uv 2vw'
loop_
_symmetry_equiv_pos_site_id
_symmetry_equiv_pos_as_xyz
1 x,y,z
2 3/4-x,3/4-y,z
3 3/4-x,y,3/4-z
4 x,3/4-y,3/4-z
5 x,1/2+y,1/2+z
6 3/4-x,1/4-y,1/2+z
7 3/4-x,1/2+y,1/4-z
8 x,1/4-y,1/4-z
9 1/2+x,y,1/2+z
10 1/4-x,3/4-y,1/2+z
11 1/4-x,y,1/4-z
12 1/2+x,3/4-y,1/4-z
13 1/2+x,1/2+y,z
14 1/4-x,1/4-y,z
15 1/4-x,1/2+y,3/4-z
16 1/2+x,1/4-y,3/4-z
17 -x,-y,-z
18 1/4+x,1/4+y,-z
19 1/4+x,-y,1/4+z
20 -x,1/4+y,1/4+z
21 -x,1/2-y,1/2-z
22 1/4+x,3/4+y,1/2-z
23 1/4+x,1/2-y,3/4+z
24 -x,3/4+y,3/4+z
25 1/2-x,-y,1/2-z
26 3/4+x,1/4+y,1/2-z
27 3/4+x,-y,3/4+z
28 1/2-x,1/4+y,3/4+z
29 1/2-x,1/2-y,-z
30 3/4+x,3/4+y,-z
31 3/4+x,1/2-y,1/4+z
32 1/2-x,3/4+y,1/4+z
_cell_length_a                   11.7658(4)
_cell_length_b                   25.2002(17)
_cell_length_c                   51.440(2)
_cell_angle_alpha                90
_cell_angle_beta                 90
_cell_angle_gamma                90
_cell_volume                     15252
loop_
_atom_site_label
_atom_site_type_symbol
_atom_site_fract_x
_atom_site_fract_y
_atom_site_fract_z
Cu1 Cu 0.56076(4) 0.551014(19) 0.022610(10)
Cu2 Cu 0.3750 0.3750 0.070738(12)
O1 O 0.5625(3) 0.51242(13) 0.06141(6)
O2 O 0.4485(2) 0.44434(12) 0.05253(5)
O3 O 0.2260(2) 0.40624(12) 0.06958(5)
O4 O 0.1200(3) 0.47430(13) 0.08166(6)
N1 N 0.3984(3) 0.43039(13) 0.10422(5)
N2 N 0.7166(3) 0.53715(11) 0.01447(6)
N3 N 0.4099(2) 0.57872(12) 0.02109(6)
C1 C 0.4994(4) 0.46180(18) 0.09690(7)
H1 H 0.5675 0.4425 0.1018
H2 H 0.4989 0.4950 0.1064
C2 C 0.5027(3) 0.47343(19) 0.06763(8)
C3 C 0.2944(3) 0.46275(16) 0.10365(7)
H3 H 0.3157 0.4994 0.1007
H4 H 0.2586 0.4609 0.1206
C4 C 0.2077(3) 0.44700(19) 0.08333(7)
C5 C 0.4163(3) 0.39858(14) 0.12802(6)
H5 H 0.4930 0.3837 0.1268
C6 C 0.4118(4) 0.43087(15) 0.15345(6)
H6 H 0.4735 0.4564 0.1536
H7 H 0.3408 0.4503 0.1542
C7 C 0.4215(4) 0.39553(15) 0.17707(7)
H8 H 0.4949 0.3780 0.1771
H9 H 0.4161 0.4169 0.1927
C8 C 0.7924(3) 0.52698(15) 0.03332(7)
H10 H 0.7680 0.5301 0.0510
C9 C 0.9024(3) 0.51221(14) 0.02829(7)
H11 H 0.9515 0.5050 0.0420
C10 C 0.9411(3) 0.50796(12) 0.00298(6)
C11 C 0.8628(3) 0.51986(13) -0.01613(7)
H12 H 0.8843 0.5184 -0.0335
C12 C 0.7541(3) 0.53376(14) -0.00972(7)
H13 H 0.7036 0.5413 -0.0231
C13 C 0.3488(3) 0.58277(16) 0.04310(8)
H14 H 0.3831 0.5732 0.0587
C14 C 0.2382(3) 0.60026(15) 0.04370(7)
H15 H 0.1993 0.6019 0.0594
C15 C 0.1845(3) 0.61553(12) 0.02084(6)
C16 C 0.2481(3) 0.61156(13) -0.00185(7)
H16 H 0.2159 0.6211 -0.0177
C17 C 0.3623(3) 0.59299(11) -0.00100(6)
H17 H 0.4040 0.5909 -0.0163
Cu1A Cu 0.18924(4) 0.198986(19) 0.022610(10)
Cu1P Cu 1.43924(4) 0.448986(19) -0.022610(10)
Cu1M Cu -0.31076(4) 0.698986(19) 0.022610(10)
O1A O 0.1875(3) 0.23758(13) 0.06141(6)
O2A O 0.3015(2) 0.30566(12) 0.05253(5)
O3A O 0.5240(2) 0.34376(12) 0.06958(5)
O4A O 0.6300(3) 0.27570(13) 0.08166(6)
N1A N 0.3516(3) 0.31961(13) 0.10422(5)
N2P N 1.2834(3) 0.46285(11) -0.01447(6)
N2A N 0.0334(3) 0.21285(11) 0.01447(6)
N3M N -0.1599(2) 0.67128(12) 0.02109(6)
N3A N 0.3401(2) 0.17128(12) 0.02109(6)
C1A C 0.2506(4) 0.28820(18) 0.09690(7)
H1A H 0.1825 0.3075 0.1018
H2A H 0.2511 0.2550 0.1064
C2A C 0.2473(3) 0.27657(19) 0.06763(8)
C3A C 0.4556(3) 0.28725(16) 0.10365(7)
H3A H 0.4343 0.2506 0.1007
H4A H 0.4914 0.2891 0.1206
C4A C 0.5423(3) 0.30300(19) 0.08333(7)
C5A C 0.3337(3) 0.35142(14) 0.12802(6)
H5A H 0.2570 0.3663 0.1268
C6A C 0.3382(4) 0.31913(15) 0.15345(6)
H6A H 0.2765 0.2936 0.1536
H7A H 0.4092 0.2997 0.1542
C7A C 0.3285(4) 0.35447(15) 0.17707(7)
H8A H 0.2551 0.3720 0.1771
H9A H 0.3339 0.3331 0.1927
C8P C 1.2076(3) 0.47302(15) -0.03332(7)
H10P H 1.2320 0.4699 -0.0510
C9P C 1.0976(3) 0.48779(14) -0.02829(7)
H11P H 1.0485 0.4950 -0.0420
C10P C 1.0589(3) 0.49204(12) -0.00298(6)
C11P C 1.1372(3) 0.48014(13) 0.01613(7)
H12P H 1.1157 0.4816 0.0335
C12P C 1.2459(3) 0.46624(14) 0.00972(7)
H13P H 1.2964 0.4587 0.0231
C13M C -0.0988(3) 0.66723(16) 0.04310(8)
H14M H -0.1331 0.6768 0.0587
C14M C 0.0118(3) 0.64974(15) 0.04370(7)
H15M H 0.0507 0.6481 0.0594
C15M C 0.0655(3) 0.63447(12) 0.02084(6)
C16M C 0.0019(3) 0.63844(13) -0.00185(7)
H16M H 0.0341 0.6289 -0.0177
C17M C -0.1123(3) 0.65701(11) -0.00100(6)
H17M H -0.1540 0.6591 -0.0163
O5 O 0.6815(3) 0.17930(11) 0.10014(6)
H18 H 0.6458 0.1980 0.0889
H19 H 0.6707 0.1937 0.1151
O6 O 1.0854(10) 0.1719(4) 0.0949(2)
H20 H 1.1107 0.1831 0.0794
H22 H 1.0131 0.1634 0.0921
O7 O 0.9047(12) 0.1552(7) 0.1054(2)
H23 H 0.8405 0.1688 0.1017
H24 H 0.9029 0.1419 0.1208
H21? H 1.1171 0.1415 0.0966
H25? H 0.9575 0.1779 0.1026
H26? H 0.6501 0.1485 0.1006
loop_
_geom_bond_atom_site_label_1
_geom_bond_atom_site_label_2
_geom_bond_site_symmetry_1
_geom_bond_site_symmetry_2
Cu1 O1 1_555 1_555
Cu2 O2 1_555 1_555
O1 C2 1_555 1_555
O2 C2 1_555 1_555
O3 Cu2 1_555 1_555
O4 C4 1_555 1_555
N1 Cu2 1_555 1_555
N2 Cu1 1_555 1_555
N3 Cu1 1_555 1_555
C1 N1 1_555 1_555
H1 C1 1_555 1_555
H2 C1 1_555 1_555
C2 C1 1_555 1_555
C3 N1 1_555 1_555
H3 C3 1_555 1_555
H4 C3 1_555 1_555
C4 O3 1_555 1_555
C5 N1 1_555 1_555
H5 C5 1_555 1_555
C6 C5 1_555 1_555
H6 C6 1_555 1_555
H7 C6 1_555 1_555
C7 C6 1_555 1_555
H8 C7 1_555 1_555
H9 C7 1_555 1_555
C8 N2 1_555 1_555
H10 C8 1_555 1_555
C9 C8 1_555 1_555
H11 C9 1_555 1_555
C10 C9 1_555 1_555
C11 C10 1_555 1_555
H12 C11 1_555 1_555
C12 N2 1_555 1_555
H13 C12 1_555 1_555
C13 N3 1_555 1_555
H14 C13 1_555 1_555
C14 C13 1_555 1_555
H15 C14 1_555 1_555
C15 C14 1_555 1_555
C16 C15 1_555 1_555
H16 C16 1_555 1_555
C17 N3 1_555 1_555
H17 C17 1_555 1_555
O5 H18 1_555 1_555
H19 O5 1_555 1_555
O6 H20 1_555 1_555
H22 O6 1_555 1_555
O7 H23 1_555 1_555
H24 O7 1_555 1_555
Cu1A O1A 1_555 1_555
Cu1P N2P 1_555 1_555
Cu1M N3M 1_555 1_555
O1A C2A 1_555 1_555
O2A Cu2 1_555 1_555
O3A Cu2 1_555 1_555
O4A C4A 1_555 1_555
N1A Cu2 1_555 1_555
N2P C8P 1_555 1_555
N2A Cu1A 1_555 1_555
N3M C13M 1_555 1_555
N3A Cu1A 1_555 1_555
C1A N1A 1_555 1_555
H1A C1A 1_555 1_555
H2A C1A 1_555 1_555
C2A O2A 1_555 1_555
C3A N1A 1_555 1_555
H3A C3A 1_555 1_555
H4A C3A 1_555 1_555
C4A O3A 1_555 1_555
C5A C5 1_555 1_555
H5A C5A 1_555 1_555
C6A C5A 1_555 1_555
H6A C6A 1_555 1_555
H7A C6A 1_555 1_555
C7A C7 1_555 1_555
H8A C7A 1_555 1_555
H9A C7A 1_555 1_555
C8P H10P 1_555 1_555
C9P C8P 1_555 1_555
H11P C9P 1_555 1_555
C10P C10 1_555 1_555
C11P C10P 1_555 1_555
H12P C11P 1_555 1_555
C12P N2P 1_555 1_555
H13P C12P 1_555 1_555
C13M H14M 1_555 1_555
C14M C13M 1_555 1_555
H15M C14M 1_555 1_555
C15M C15 1_555 1_555
C16M C15M 1_555 1_555
H16M C16M 1_555 1_555
C17M N3M 1_555 1_555
H17M C17M 1_555 1_555
C3 C4 1_555 1_555
C11 C12 1_555 1_555
C16 C17 1_555 1_555
N1A C5A 1_555 1_555
C1A C2A 1_555 1_555
C3A C4A 1_555 1_555
C6A C7A 1_555 1_555
C9P C10P 1_555 1_555
C11P C12P 1_555 1_555
C14M C15M 1_555 1_555
C16M C17M 1_555 1_555

#END
