
#######################################################################
#
#                 Cambridge Crystallographic Data Centre
#                                CCDC 
#
#######################################################################
#
# If this CIF has been generated from an entry in the Cambridge 
# Structural Database, then it will include bibliographic, chemical, 
# crystal, experimental, refinement or atomic coordinate data resulting 
# from the CCDC's data processing and validation procedures.
#
#######################################################################

data_IPOWOA
_symmetry_cell_setting           monoclinic
_symmetry_space_group_name_H-M   'C 2/c'
_symmetry_Int_Tables_number      15
_space_group_name_Hall           '-C 2yn'
loop_
_symmetry_equiv_pos_site_id
_symmetry_equiv_pos_as_xyz
1 x,y,z
2 -x,y,1/2-z
3 1/2+x,1/2+y,z
4 1/2-x,1/2+y,1/2-z
5 -x,-y,-z
6 x,-y,1/2+z
7 1/2-x,1/2-y,-z
8 1/2+x,1/2-y,1/2+z
_cell_length_a                   17.101(3)
_cell_length_b                   8.3971(17)
_cell_length_c                   27.654(6)
_cell_angle_alpha                90
_cell_angle_beta                 104.63(3)
_cell_angle_gamma                90
_cell_volume                     3842.33
loop_
_atom_site_label
_atom_site_type_symbol
_atom_site_fract_x
_atom_site_fract_y
_atom_site_fract_z
Cu1 Cu 0.179972(18) 0.21399(4) 0.224407(11)
Cu2 Cu 0.564456(19) 0.48275(4) 0.418184(11)
Cu3 Cu 0.5000 0.23789(5) 0.2500
C1 C 0.30284(14) 0.2454(3) 0.33145(8)
H1 H 0.3057 0.1576 0.3086
C2 C 0.38574(14) 0.2481(3) 0.37015(8)
H2 H 0.3932 0.1380 0.3823
C3 C 0.39158(14) 0.3474(3) 0.41816(8)
H3 H 0.4417 0.3143 0.4420
C4 C 0.32200(14) 0.2994(3) 0.44143(8)
H4 H 0.3328 0.1876 0.4509
C5 C 0.23689(14) 0.2976(3) 0.40487(8)
H5 H 0.2023 0.2399 0.4223
C6 C 0.23797(14) 0.1962(3) 0.35862(8)
H6 H 0.2562 0.0914 0.3726
C7 C 0.28860(14) 0.3962(3) 0.29911(8)
O1 O 0.23313(11) 0.4001(2) 0.25903(6)
O2 O 0.33673(11) 0.5112(2) 0.31264(6)
C8 C 0.45341(14) 0.2724(3) 0.34408(9)
O3 O 0.43915(11) 0.2207(2) 0.30064(7)
O4 O 0.52146(11) 0.3287(2) 0.36700(7)
C9 C 0.39667(15) 0.5290(3) 0.41348(8)
O5 O 0.46365(11) 0.5912(2) 0.41051(7)
O6 O 0.33755(11) 0.6112(2) 0.41598(7)
C10 C 0.32774(15) 0.3850(3) 0.49095(9)
O7 O 0.39674(11) 0.3893(2) 0.52088(7)
O8 O 0.26503(11) 0.4414(2) 0.50076(7)
C11 C 0.19375(15) 0.4539(3) 0.38813(9)
O9 O 0.17007(12) 0.5413(2) 0.42193(7)
H7 H 0.1941 0.5148 0.4503
O10 O 0.17299(13) 0.4902(2) 0.34436(7)
C12 C 0.15215(15) 0.1654(3) 0.32712(9)
O11 O 0.09777(11) 0.1509(2) 0.34984(7)
O12 O 0.13819(11) 0.1426(2) 0.27996(6)
O13 O 0.05004(12) 0.3064(3) 0.18618(8)
H8 H 0.0469 0.3582 0.1612
H9 H 0.0151 0.2391 0.1803
O14 O 0.20855(12) 0.3108(2) 0.16534(7)
H10 H 0.2577 0.3127 0.1704
H11 H 0.1983 0.2515 0.1409
O15 O 0.66894(12) 0.3788(2) 0.42274(7)
H12 H 0.7025 0.4091 0.4476
H13 H 0.6683 0.2811 0.4256
O16 O 0.37139(12) 0.2792(2) 0.19117(7)
H14 H 0.3621 0.1864 0.1829
H15 H 0.3979 0.3129 0.1725
O17 O 0.5000 0.4705(3) 0.2500
H16 H 0.4567 0.5161 0.2400
O18 O 0.5000 0.0074(4) 0.2500
H17 H 0.4871 -0.0516 0.2697
Cu1A Cu 0.820028(18) 0.21399(4) 0.275593(11)
Cu1C Cu 0.320028(18) 0.71399(4) 0.275593(11)
Cu1B Cu 0.679972(18) 0.71399(4) 0.224407(11)
Cu2A Cu 0.435544(19) 0.48275(4) 0.081816(11)
Cu2D Cu 0.435544(19) 0.51725(4) 0.581816(11)
Cu2B Cu 0.064456(19) -0.01725(4) 0.418184(11)
Cu2E Cu 0.564456(19) 0.51725(4) -0.081816(11)
Cu2C Cu 0.935544(19) -0.01725(4) 0.081816(11)
C1A C 0.69716(14) 0.2454(3) 0.16855(8)
H1A H 0.6943 0.1576 0.1914
C2A C 0.61426(14) 0.2481(3) 0.12985(8)
H2A H 0.6068 0.1380 0.1177
C3A C 0.60842(14) 0.3474(3) 0.08184(8)
H3A H 0.5583 0.3143 0.0580
C4A C 0.67800(14) 0.2994(3) 0.05857(8)
H4A H 0.6672 0.1876 0.0491
C5A C 0.76311(14) 0.2976(3) 0.09513(8)
H5A H 0.7977 0.2399 0.0777
C6A C 0.76203(14) 0.1962(3) 0.14138(8)
H6A H 0.7438 0.0914 0.1274
C7A C 0.71140(14) 0.3962(3) 0.20089(8)
O1A O 0.76687(11) 0.4001(2) 0.24097(6)
O2A O 0.66327(11) 0.5112(2) 0.18736(6)
O2C O 0.16327(11) 0.0112(2) 0.18736(6)
O2B O 0.83673(11) 0.0112(2) 0.31264(6)
C8A C 0.54659(14) 0.2724(3) 0.15592(9)
O3A O 0.56085(11) 0.2207(2) 0.19936(7)
O4A O 0.47854(11) 0.3287(2) 0.13300(7)
C9A C 0.60333(15) 0.5290(3) 0.08652(8)
O5A O 0.53635(11) 0.5912(2) 0.08949(7)
O6A O 0.66245(11) 0.6112(2) 0.08402(7)
C10A C 0.67226(15) 0.3850(3) 0.00905(9)
O7A O 0.60326(11) 0.3893(2) -0.02088(7)
O7D O 0.60326(11) 0.6107(2) 0.47912(7)
O7E O 0.39674(11) 0.6107(2) 0.02088(7)
O8A O 0.73497(11) 0.4414(2) -0.00076(7)
C11A C 0.80625(15) 0.4539(3) 0.11187(9)
O9A O 0.82993(12) 0.5413(2) 0.07807(7)
H7A H 0.8059 0.5148 0.0497
O10A O 0.82701(13) 0.4902(2) 0.15564(7)
C12A C 0.84785(15) 0.1654(3) 0.17288(9)
O11A O 0.90223(11) 0.1509(2) 0.15016(7)
O11B O 0.59777(11) 0.6509(2) 0.34984(7)
O11C O 0.40223(11) 0.6509(2) 0.15016(7)
O12A O 0.86181(11) 0.1426(2) 0.22004(6)
O13A O 0.94996(12) 0.3064(3) 0.31382(8)
H8A H 0.9531 0.3582 0.3388
H9A H 0.9849 0.2391 0.3197
O14A O 0.79145(12) 0.3108(2) 0.33466(7)
H10A H 0.7423 0.3127 0.3296
H11A H 0.8017 0.2515 0.3591
O15A O 0.33106(12) 0.3788(2) 0.07726(7)
H12A H 0.2975 0.4091 0.0524
H13A H 0.3317 0.2811 0.0744
O16A O 0.62861(12) 0.2792(2) 0.30883(7)
H14A H 0.6379 0.1864 0.3171
H15A H 0.6021 0.3129 0.3275
H16A H 0.5433 0.5161 0.2600
H17A H 0.5129 -0.0516 0.2303
O19 O 0.4953(2) 0.9293(4) 0.42201(15)
H18 H 0.4629 0.9148 0.4382
H19 H 0.4881 0.8369 0.4143
O20 O 0.3780(9) 0.8759(16) 0.4834(5)
O21? O 0.4035(9) 0.8065(16) 0.5029(5)
loop_
_geom_bond_atom_site_label_1
_geom_bond_atom_site_label_2
_geom_bond_site_symmetry_1
_geom_bond_site_symmetry_2
Cu1 O1 1_555 1_555
Cu2 O4 1_555 1_555
Cu3 O3 1_555 1_555
C1 H1 1_555 1_555
C2 C1 1_555 1_555
H2 C2 1_555 1_555
C3 C2 1_555 1_555
H3 C3 1_555 1_555
C4 C3 1_555 1_555
H4 C4 1_555 1_555
C5 C4 1_555 1_555
H5 C5 1_555 1_555
C6 C1 1_555 1_555
H6 C6 1_555 1_555
C7 C1 1_555 1_555
O1 C7 1_555 1_555
O2 C7 1_555 1_555
C8 C2 1_555 1_555
O3 C8 1_555 1_555
O4 C8 1_555 1_555
C9 C3 1_555 1_555
O5 Cu2 1_555 1_555
O6 C9 1_555 1_555
C10 C4 1_555 1_555
O7 C10 1_555 1_555
O8 C10 1_555 1_555
C11 C5 1_555 1_555
O9 C11 1_555 1_555
H7 O9 1_555 1_555
O10 C11 1_555 1_555
C12 C6 1_555 1_555
O11 C12 1_555 1_555
O12 Cu1 1_555 1_555
O13 Cu1 1_555 1_555
H8 O13 1_555 1_555
H9 O13 1_555 1_555
O14 Cu1 1_555 1_555
H10 O14 1_555 1_555
H11 O14 1_555 1_555
O15 Cu2 1_555 1_555
H12 O15 1_555 1_555
H13 O15 1_555 1_555
O16 Cu3 1_555 1_555
H14 O16 1_555 1_555
H15 O16 1_555 1_555
O17 Cu3 1_555 1_555
H16 O17 1_555 1_555
O18 Cu3 1_555 1_555
H17 O18 1_555 1_555
O19 H18 1_555 1_555
H19 O19 1_555 1_555
Cu1A O1A 1_555 1_555
Cu1C O2 1_555 1_555
Cu1B O2A 1_555 1_555
Cu2A O4A 1_555 1_555
Cu2D O7 1_555 1_555
Cu2B O11 1_555 1_555
Cu2E O7A 1_555 1_555
Cu2C O11A 1_555 1_555
C1A H1A 1_555 1_555
C2A C1A 1_555 1_555
H2A C2A 1_555 1_555
C3A C2A 1_555 1_555
H3A C3A 1_555 1_555
C4A C3A 1_555 1_555
H4A C4A 1_555 1_555
C5A C4A 1_555 1_555
H5A C5A 1_555 1_555
C6A C1A 1_555 1_555
H6A C6A 1_555 1_555
C7A C1A 1_555 1_555
O1A C7A 1_555 1_555
O2A C7A 1_555 1_555
O2C Cu1 1_555 1_555
O2B Cu1A 1_555 1_555
C8A C2A 1_555 1_555
O3A Cu3 1_555 1_555
O4A C8A 1_555 1_555
C9A C3A 1_555 1_555
O5A Cu2A 1_555 1_555
O6A C9A 1_555 1_555
C10A C4A 1_555 1_555
O7A C10A 1_555 1_555
O7D Cu2 1_555 1_555
O7E Cu2A 1_555 1_555
O8A C10A 1_555 1_555
C11A C5A 1_555 1_555
O9A C11A 1_555 1_555
H7A O9A 1_555 1_555
O10A C11A 1_555 1_555
C12A C6A 1_555 1_555
O11A C12A 1_555 1_555
O11B Cu2 1_555 1_555
O11C Cu2A 1_555 1_555
O12A Cu1A 1_555 1_555
O13A Cu1A 1_555 1_555
H8A O13A 1_555 1_555
H9A O13A 1_555 1_555
O14A Cu1A 1_555 1_555
H10A O14A 1_555 1_555
H11A O14A 1_555 1_555
O15A Cu2A 1_555 1_555
H12A O15A 1_555 1_555
H13A O15A 1_555 1_555
O16A Cu3 1_555 1_555
H14A O16A 1_555 1_555
H15A O16A 1_555 1_555
H16A O17 1_555 1_555
H17A O18 1_555 1_555
C5 C6 1_555 1_555
C9 O5 1_555 1_555
C12 O12 1_555 1_555
C5A C6A 1_555 1_555
C8A O3A 1_555 1_555
C9A O5A 1_555 1_555
C12A O12A 1_555 1_555

#END
