
#######################################################################
#
#                 Cambridge Crystallographic Data Centre
#                                CCDC 
#
#######################################################################
#
# If this CIF has been generated from an entry in the Cambridge 
# Structural Database, then it will include bibliographic, chemical, 
# crystal, experimental, refinement or atomic coordinate data resulting 
# from the CCDC's data processing and validation procedures.
#
#######################################################################

data_IPOYIW
_symmetry_cell_setting           monoclinic
_symmetry_space_group_name_H-M   'C 2/c'
_symmetry_Int_Tables_number      15
_space_group_name_Hall           '-C 2yn'
loop_
_symmetry_equiv_pos_site_id
_symmetry_equiv_pos_as_xyz
1 x,y,z
2 -x,y,1/2-z
3 1/2+x,1/2+y,z
4 1/2-x,1/2+y,1/2-z
5 -x,-y,-z
6 x,-y,1/2+z
7 1/2-x,1/2-y,-z
8 1/2+x,1/2-y,1/2+z
_cell_length_a                   18.885(6)
_cell_length_b                   14.900(5)
_cell_length_c                   7.402(2)
_cell_angle_alpha                90
_cell_angle_beta                 111.104(3)
_cell_angle_gamma                90
_cell_volume                     1943.12
loop_
_atom_site_label
_atom_site_type_symbol
_atom_site_fract_x
_atom_site_fract_y
_atom_site_fract_z
U1 U 0.2500 0.2500 0.0000
K1 K 0.05732(10) 0.18281(13) 0.0425(3)
N1 N 0.3047(4) 0.0840(5) 0.0820(10)
O1 O 0.2163(7) 0.2430(3) 0.1926(18)
O2 O 0.1707(3) 0.1212(4) -0.1476(9)
O3 O 0.1398(3) -0.0213(4) -0.2259(9)
O4 O 0.3804(3) 0.2255(5) 0.2219(10)
O5 O 0.4779(3) 0.1508(4) 0.4308(8)
O6 O 0.0000 0.0623(6) -0.2500
O7 O -0.0861(4) 0.1676(4) 0.0670(9)
C1 C 0.1840(4) 0.0368(5) -0.1382(12)
C2 C 0.2615(4) 0.0131(7) -0.0044(10)
C3 C 0.2883(4) -0.0742(5) 0.0354(12)
H1 H 0.2576 -0.1222 -0.0261
C4 C 0.3606(4) -0.0896(5) 0.1665(13)
H2 H 0.3792 -0.1478 0.1945
C5 C 0.4051(5) -0.0167(5) 0.2557(12)
H3 H 0.4543 -0.0247 0.3436
C6 C 0.3740(4) 0.0696(5) 0.2097(10)
C7 C 0.4166(4) 0.1537(5) 0.2986(11)
K1F K 0.44268(10) 0.31719(13) -0.0425(3)
K1E K 0.05732(10) -0.18281(13) -0.4575(3)
K1G K 0.55732(10) 0.31719(13) 0.5425(3)
K1A K -0.05732(10) 0.18281(13) -0.5425(3)
K1A_2 K -0.05732(10) 0.18281(13) 0.4575(3)
K1C K 0.44268(10) 0.68281(13) 0.4575(3)
N1F N 0.1953(4) 0.4160(5) -0.0820(10)
O1F O 0.2837(7) 0.2570(3) -0.1926(18)
O2F O 0.3293(3) 0.3788(4) 0.1476(9)
O3F O 0.3602(3) 0.5213(4) 0.2259(9)
O3E O 0.1398(3) 0.0213(4) 0.2741(9)
O3C O 0.3602(3) 0.4787(4) -0.2741(9)
O4F O 0.1196(3) 0.2745(5) -0.2219(10)
O5F O 0.0221(3) 0.3492(4) -0.4308(8)
O5G O -0.0221(3) 0.3492(4) -0.0692(8)
O5A O 0.5221(3) 0.1508(4) 0.0692(8)
O6F O 0.5000 0.4377(6) 0.2500
O7A O 0.0861(4) 0.1676(4) 0.4330(9)
O7F O 0.5861(4) 0.3324(4) -0.0670(9)
O7G O 0.4139(4) 0.3324(4) -0.4330(9)
C1F C 0.3160(4) 0.4632(5) 0.1382(12)
C2F C 0.2385(4) 0.4869(7) 0.0044(10)
C3F C 0.2117(4) 0.5742(5) -0.0354(12)
H1F H 0.2424 0.6222 0.0261
C4F C 0.1394(4) 0.5896(5) -0.1665(13)
H2F H 0.1208 0.6478 -0.1945
C5F C 0.0949(5) 0.5167(5) -0.2557(12)
H3F H 0.0457 0.5247 -0.3436
C6F C 0.1260(4) 0.4304(5) -0.2097(10)
C7F C 0.0834(4) 0.3463(5) -0.2986(11)
loop_
_geom_bond_atom_site_label_1
_geom_bond_atom_site_label_2
_geom_bond_site_symmetry_1
_geom_bond_site_symmetry_2
U1 N1 1_555 1_555
K1 O1 1_555 1_555
N1 C2 1_555 1_555
O1 U1 1_555 1_555
O2 U1 1_555 1_555
O3 C1 1_555 1_555
O4 U1 1_555 1_555
O5 C7 1_555 1_555
O6 K1 1_555 1_555
O7 K1 1_555 1_555
C1 O2 1_555 1_555
C2 C1 1_555 1_555
C3 C2 1_555 1_555
H1 C3 1_555 1_555
C4 C3 1_555 1_555
H2 C4 1_555 1_555
C5 C4 1_555 1_555
H3 C5 1_555 1_555
C6 N1 1_555 1_555
C7 O4 1_555 1_555
K1F O4 1_555 1_555
K1E O3 1_555 1_555
K1G O5 1_555 1_555
K1A O6 1_555 1_555
K1A_2 O7 1_555 1_555
K1C O3F 1_555 1_555
N1F U1 1_555 1_555
O1F U1 1_555 1_555
O2F U1 1_555 1_555
O3F C1F 1_555 1_555
O3E K1 1_555 1_555
O3C K1F 1_555 1_555
O4F U1 1_555 1_555
O5F K1A 1_555 1_555
O5G K1 1_555 1_555
O5A K1F 1_555 1_555
O6F K1F 1_555 1_555
O7A K1 1_555 1_555
O7F K1F 1_555 1_555
O7G K1F 1_555 1_555
C1F O2F 1_555 1_555
C2F N1F 1_555 1_555
C3F C2F 1_555 1_555
H1F C3F 1_555 1_555
C4F C3F 1_555 1_555
H2F C4F 1_555 1_555
C5F C4F 1_555 1_555
H3F C5F 1_555 1_555
C6F N1F 1_555 1_555
C7F O4F 1_555 1_555
K1 O2 1_555 1_555
K1 O4F 1_555 1_555
C5 C6 1_555 1_555
C6 C7 1_555 1_555
K1F O1F 1_555 1_555
K1F O2F 1_555 1_555
K1G O6F 1_555 1_555
K1A_2 O7A 1_555 1_555
O5F C7F 1_555 1_555
C1F C2F 1_555 1_555
C5F C6F 1_555 1_555
C6F C7F 1_555 1_555

#END
