
#######################################################################
#
#                 Cambridge Crystallographic Data Centre
#                                CCDC 
#
#######################################################################
#
# If this CIF has been generated from an entry in the Cambridge 
# Structural Database, then it will include bibliographic, chemical, 
# crystal, experimental, refinement or atomic coordinate data resulting 
# from the CCDC's data processing and validation procedures.
#
#######################################################################

data_IPUBIE
_symmetry_cell_setting           monoclinic
_symmetry_space_group_name_H-M   'C 2/c'
_symmetry_Int_Tables_number      15
_space_group_name_Hall           '-C 2yn'
loop_
_symmetry_equiv_pos_site_id
_symmetry_equiv_pos_as_xyz
1 x,y,z
2 -x,y,1/2-z
3 1/2+x,1/2+y,z
4 1/2-x,1/2+y,1/2-z
5 -x,-y,-z
6 x,-y,1/2+z
7 1/2-x,1/2-y,-z
8 1/2+x,1/2-y,1/2+z
_cell_length_a                   13.6957(16)
_cell_length_b                   25.900(3)
_cell_length_c                   14.9505(16)
_cell_angle_alpha                90
_cell_angle_beta                 99.088(2)
_cell_angle_gamma                90
_cell_volume                     5236.65
loop_
_atom_site_label
_atom_site_type_symbol
_atom_site_fract_x
_atom_site_fract_y
_atom_site_fract_z
N4 N 0.5662(6) 0.4596(2) 0.1179(5)
O4 O 0.5153(8) 0.4332(4) 0.1712(8)
O5 O 0.6555(7) 0.4588(4) 0.1470(7)
C25 C 0.4592(15) 0.4663(6) 0.0827(11)
C26 C 0.6283(12) 0.4877(6) 0.0478(13)
C27 C 0.5197(8) 0.4850(4) 0.0438(9)
C28 C 0.4182(5) 0.4890(3) 0.0170(6)
C26D C 0.3717(12) 0.5123(6) -0.0478(13)
N4D N 0.4338(6) 0.5404(2) -0.1179(5)
O4D O 0.4847(8) 0.5668(4) -0.1712(8)
C25D C 0.5408(15) 0.5337(6) -0.0827(11)
O5D O 0.3445(7) 0.5412(4) -0.1470(7)
C27D C 0.4803(8) 0.5150(4) -0.0438(9)
C28D C 0.5818(5) 0.5110(3) -0.0170(6)
O6 O 0.2350(20) -0.1345(17) -0.1733(10)
O7 O 0.1730(14) -0.2085(10) -0.2193(11)
N5 N 0.1820(30) -0.1691(7) -0.2042(15)
C29 C 0.0874(10) -0.1381(6) -0.2246(6)
C30 C 0.0850(20) -0.0859(7) -0.2237(11)
C31 C 0.0000 -0.0605(13) -0.2500
C32 C 0.0000 -0.1670(5) -0.2500
C30A C -0.0850(20) -0.0859(7) -0.2763(11)
C29A C -0.0874(10) -0.1381(6) -0.2754(6)
N5A N -0.1820(30) -0.1691(7) -0.2958(15)
O6A O -0.2350(20) -0.1345(17) -0.3267(10)
O7A O -0.1730(14) -0.2085(10) -0.2807(11)
Cd1 Cd 0.5000 -0.0005(1) 0.2500
N1 N 0.4192(3) 0.0650(1) 0.1621(3)
C1 C 0.3209(4) 0.0732(2) 0.1525(3)
C2 C 0.2772(4) 0.1174(2) 0.1130(3)
C3 C 0.3340(3) 0.1553(2) 0.0820(3)
C4 C 0.4346(4) 0.1463(2) 0.0917(4)
C5 C 0.4744(4) 0.1012(2) 0.1307(4)
C6 C 0.2904(3) 0.2039(2) 0.0404(3)
C7 C 0.2362(3) 0.2027(2) -0.0476(3)
C8 C 0.2208(3) 0.1560(2) -0.0988(3)
C9 C 0.1675(4) 0.1552(2) -0.1837(3)
C10 C 0.1276(4) 0.2011(2) -0.2242(3)
C11 C 0.1421(3) 0.2470(2) -0.1791(3)
C12 C 0.3042(3) 0.2503(2) 0.0892(3)
N2 N 0.4017(3) -0.0657(1) 0.1768(3)
C13 C 0.3820(4) -0.0678(2) 0.0863(3)
C14 C 0.3417(4) -0.1110(2) 0.0406(3)
C15 C 0.3239(3) -0.1546(2) 0.0879(3)
C16 C 0.3432(3) -0.1522(2) 0.1816(3)
C17 C 0.3806(3) -0.1074(2) 0.2228(3)
C18 C 0.2854(3) -0.2033(2) 0.0421(3)
C19 C 0.1833(3) -0.2097(2) 0.0126(3)
C20 C 0.1134(3) -0.1703(2) 0.0243(3)
C21 C 0.0156(3) -0.1767(2) -0.0047(3)
C22 C -0.0203(3) -0.2231(2) -0.0475(3)
C23 C 0.0438(3) -0.2616(2) -0.0601(3)
C24 C 0.3530(3) -0.2430(2) 0.0301(3)
N3 N 0.6668(4) -0.0122(2) 0.1218(3)
O1 O 0.7038(5) -0.0288(2) 0.0643(4)
O2 O 0.5901(5) -0.0090(4) 0.1297(5)
O3 O 0.7126(11) 0.0016(6) 0.1844(7)
H1 H 0.2803 0.0476 0.1737
H2 H 0.2076 0.1217 0.1071
H3 H 0.4767 0.1714 0.0714
H4 H 0.5436 0.0956 0.1353
H5 H 0.2486 0.1248 -0.0730
H6 H 0.1571 0.1235 -0.2157
H7 H 0.0903 0.2002 -0.2834
H8 H 0.1159 0.2778 -0.2081
H9 H 0.3964 -0.0385 0.0524
H10 H 0.3263 -0.1105 -0.0236
H11 H 0.3308 -0.1812 0.2170
H12 H 0.3920 -0.1059 0.2871
H13 H 0.1361 -0.1389 0.0532
H14 H -0.0293 -0.1499 0.0038
H15 H -0.0891 -0.2275 -0.0675
H16 H 0.0187 -0.2923 -0.0897
C12F C 0.1958(3) 0.2497(2) -0.0892(3)
C6F C 0.2096(3) 0.2961(2) -0.0404(3)
C3F C 0.1660(3) 0.3447(2) -0.0820(3)
C2F C 0.2228(4) 0.3826(2) -0.1130(3)
C1F C 0.1791(4) 0.4268(2) -0.1525(3)
N1F N 0.0808(3) 0.4350(1) -0.1621(3)
C5F C 0.0256(4) 0.3988(2) -0.1307(4)
C4F C 0.0654(4) 0.3537(2) -0.0917(4)
H3F H 0.0233 0.3286 -0.0714
H4F H -0.0436 0.4044 -0.1353
H1F H 0.2197 0.4524 -0.1737
H2F H 0.2924 0.3783 -0.1071
C7F C 0.2638(3) 0.2973(2) 0.0476(3)
C8F C 0.2792(3) 0.3440(2) 0.0988(3)
C9F C 0.3325(4) 0.3448(2) 0.1837(3)
C10F C 0.3724(4) 0.2989(2) 0.2242(3)
C11F C 0.3579(3) 0.2530(2) 0.1791(3)
H8F H 0.3841 0.2222 0.2081
H7F H 0.4097 0.2998 0.2834
H6F H 0.3429 0.3765 0.2157
H5F H 0.2514 0.3752 0.0730
C24F C 0.1470(3) -0.2570(2) -0.0301(3)
C18F C 0.2146(3) -0.2967(2) -0.0421(3)
C15F C 0.1761(3) -0.3454(2) -0.0879(3)
C14F C 0.1583(4) -0.3890(2) -0.0406(3)
C13F C 0.1180(4) -0.4322(2) -0.0863(3)
N2F N 0.0983(3) -0.4343(1) -0.1768(3)
C17F C 0.1194(3) -0.3926(2) -0.2228(3)
C16F C 0.1568(3) -0.3478(2) -0.1816(3)
H11F H 0.1692 -0.3188 -0.2170
H12F H 0.1080 -0.3941 -0.2871
H9F H 0.1036 -0.4615 -0.0524
H10F H 0.1737 -0.3895 0.0236
C19F C 0.3167(3) -0.2903(2) -0.0126(3)
C20F C 0.3866(3) -0.3297(2) -0.0243(3)
C21F C 0.4844(3) -0.3233(2) 0.0047(3)
C22F C 0.5203(3) -0.2769(2) 0.0475(3)
C23F C 0.4562(3) -0.2384(2) 0.0601(3)
H16F H 0.4813 -0.2077 0.0897
H15F H 0.5891 -0.2725 0.0675
H14F H 0.5293 -0.3501 -0.0038
H13F H 0.3639 -0.3611 -0.0532
N3A N 0.3332(4) -0.0122(2) 0.3782(3)
O1A O 0.2962(5) -0.0288(2) 0.4357(4)
O2A O 0.4099(5) -0.0090(4) 0.3703(5)
O3A O 0.2874(11) 0.0016(6) 0.3156(7)
N1A N 0.5808(3) 0.0650(1) 0.3379(3)
N2A N 0.5983(3) -0.0657(1) 0.3232(3)
Cd1F Cd 0.0000 0.5005(1) -0.2500
Cd1F_2 Cd 0.0000 -0.4995(1) -0.2500
loop_
_geom_bond_atom_site_label_1
_geom_bond_atom_site_label_2
_geom_bond_site_symmetry_1
_geom_bond_site_symmetry_2
Cd1 N1 1_555 1_555
N1 C1 1_555 1_555
C1 C2 1_555 1_555
C2 C3 1_555 1_555
C3 C4 1_555 1_555
C4 C5 1_555 1_555
C5 N1 1_555 1_555
C6 C3 1_555 1_555
C7 C6 1_555 1_555
C8 C7 1_555 1_555
C9 C8 1_555 1_555
C10 C9 1_555 1_555
C11 C10 1_555 1_555
C12 C6 1_555 1_555
N2 Cd1 1_555 1_555
C13 N2 1_555 1_555
C14 C13 1_555 1_555
C15 C14 1_555 1_555
C16 C15 1_555 1_555
C17 N2 1_555 1_555
C18 C15 1_555 1_555
C19 C18 1_555 1_555
C20 C19 1_555 1_555
C21 C20 1_555 1_555
C22 C21 1_555 1_555
C23 C22 1_555 1_555
C24 C18 1_555 1_555
N3 O1 1_555 1_555
O2 Cd1 1_555 1_555
O3 N3 1_555 1_555
N4 O4 1_555 1_555
O4 C25 1_555 1_555
O5 N4 1_555 1_555
C25 N4 1_555 1_555
C26 N4 1_555 1_555
C27 N4 1_555 1_555
C28 C25 1_555 1_555
O6 N5 1_555 1_555
O7 N5 1_555 1_555
N5 C29 1_555 1_555
C29 C30 1_555 1_555
C30 C31 1_555 1_555
C31 C30A 1_555 1_555
C32 C29 1_555 1_555
H1 C1 1_555 1_555
H2 C2 1_555 1_555
H3 C4 1_555 1_555
H4 C5 1_555 1_555
H5 C8 1_555 1_555
H6 C9 1_555 1_555
H7 C10 1_555 1_555
H8 C11 1_555 1_555
H9 C13 1_555 1_555
H10 C14 1_555 1_555
H11 C16 1_555 1_555
H12 C17 1_555 1_555
H13 C20 1_555 1_555
H14 C21 1_555 1_555
H15 C22 1_555 1_555
H16 C23 1_555 1_555
C12F C7 1_555 1_555
C6F C12F 1_555 1_555
C3F C6F 1_555 1_555
C2F C3F 1_555 1_555
C1F C2F 1_555 1_555
N1F C1F 1_555 1_555
C5F N1F 1_555 1_555
C4F C3F 1_555 1_555
H3F C4F 1_555 1_555
H4F C5F 1_555 1_555
H1F C1F 1_555 1_555
H2F C2F 1_555 1_555
C7F C12 1_555 1_555
C8F C7F 1_555 1_555
C9F C8F 1_555 1_555
C10F C9F 1_555 1_555
C11F C12 1_555 1_555
H8F C11F 1_555 1_555
H7F C10F 1_555 1_555
H6F C9F 1_555 1_555
H5F C8F 1_555 1_555
C24F C19 1_555 1_555
C18F C24F 1_555 1_555
C15F C18F 1_555 1_555
C14F C15F 1_555 1_555
C13F C14F 1_555 1_555
N2F C13F 1_555 1_555
C17F N2F 1_555 1_555
C16F C15F 1_555 1_555
H11F C16F 1_555 1_555
H12F C17F 1_555 1_555
H9F C13F 1_555 1_555
H10F C14F 1_555 1_555
C19F C24 1_555 1_555
C20F C19F 1_555 1_555
C21F C20F 1_555 1_555
C22F C21F 1_555 1_555
C23F C24 1_555 1_555
H16F C23F 1_555 1_555
H15F C22F 1_555 1_555
H14F C21F 1_555 1_555
H13F C20F 1_555 1_555
C26D C28 1_555 1_555
N4D C26D 1_555 1_555
O4D N4D 1_555 1_555
C25D N4D 1_555 1_555
O5D C26D 1_555 1_555
C27D C27 1_555 1_555
C28D C26 1_555 1_555
C30A C29A 1_555 1_555
C29A C32 1_555 1_555
N5A C29A 1_555 1_555
O6A N5A 1_555 1_555
O7A N5A 1_555 1_555
N3A O1A 1_555 1_555
O2A Cd1 1_555 1_555
O3A N3A 1_555 1_555
N1A Cd1 1_555 1_555
N2A Cd1 1_555 1_555
Cd1F N1F 1_555 1_555
Cd1F_2 N2F 1_555 1_555
C11 C12F 1_555 1_555
C16 C17 1_555 1_555
C23 C24F 1_555 1_555
N3 O2 1_555 1_555
O5 C26 1_555 1_555
C25 C27 1_555 1_555
C26 C27 1_555 1_555
C27 C28D 1_555 1_555
C27 C28 1_555 1_555
C28 C27D 1_555 1_555
C6F C7F 1_555 1_555
C5F C4F 1_555 1_555
C10F C11F 1_555 1_555
C18F C19F 1_555 1_555
C17F C16F 1_555 1_555
C22F C23F 1_555 1_555
C26D C27D 1_555 1_555
N4D O5D 1_555 1_555
N4D C27D 1_555 1_555
O4D C25D 1_555 1_555
C25D C27D 1_555 1_555
C25D C28D 1_555 1_555
C27D C28D 1_555 1_555
N3A O2A 1_555 1_555

#END
