
#######################################################################
#
#                 Cambridge Crystallographic Data Centre
#                                CCDC 
#
#######################################################################
#
# If this CIF has been generated from an entry in the Cambridge 
# Structural Database, then it will include bibliographic, chemical, 
# crystal, experimental, refinement or atomic coordinate data resulting 
# from the CCDC's data processing and validation procedures.
#
#######################################################################

data_IPUBOK
_symmetry_cell_setting           monoclinic
_symmetry_space_group_name_H-M   'C 2/c'
_symmetry_Int_Tables_number      15
_space_group_name_Hall           '-C 2yn'
loop_
_symmetry_equiv_pos_site_id
_symmetry_equiv_pos_as_xyz
1 x,y,z
2 -x,y,1/2-z
3 1/2+x,1/2+y,z
4 1/2-x,1/2+y,1/2-z
5 -x,-y,-z
6 x,-y,1/2+z
7 1/2-x,1/2-y,-z
8 1/2+x,1/2-y,1/2+z
_cell_length_a                   13.3188(12)
_cell_length_b                   25.745(2)
_cell_length_c                   15.6180(14)
_cell_angle_alpha                90
_cell_angle_beta                 96.499(2)
_cell_angle_gamma                90
_cell_volume                     5320.88
loop_
_atom_site_label
_atom_site_type_symbol
_atom_site_fract_x
_atom_site_fract_y
_atom_site_fract_z
N3 N -0.3223(8) 0.1790(4) -0.2095(5)
O1 O -0.2442(8) 0.1598(5) -0.1753(6)
O2 O -0.3353(9) 0.2237(3) -0.2304(6)
C25 C -0.4142(4) 0.1414(3) -0.2260(3)
C26 C -0.4096(7) 0.0903(3) -0.2215(4)
C27 C -0.5000 0.0605(4) -0.2500
C28 C -0.5000 0.1688(3) -0.2500
C26A C -0.5904(7) 0.0903(3) -0.2785(4)
C25A C -0.5858(4) 0.1414(3) -0.2740(3)
N3A N -0.6777(8) 0.1790(4) -0.2905(5)
O1A O -0.7558(8) 0.1598(5) -0.3247(6)
O2A O -0.6647(9) 0.2237(3) -0.2696(6)
Cd1 Cd 0.0000 0.0011(1) 0.2500
I1 I -0.1626(1) 0.0044(1) 0.3660(1)
N1 N -0.0788(2) -0.0679(1) 0.1663(2)
C1 C -0.0213(2) -0.1051(1) 0.1381(2)
C2 C -0.0590(2) -0.1498(1) 0.0976(2)
C3 C -0.1626(2) -0.1571(1) 0.0838(2)
C4 C -0.2228(2) -0.1183(1) 0.1126(2)
C5 C -0.1790(2) -0.0748(1) 0.1532(2)
C6 C -0.2072(2) -0.2051(1) 0.0405(2)
C7 C -0.2581(2) -0.2012(1) -0.0431(2)
C8 C -0.1978(2) -0.2528(1) 0.0842(2)
C9 C -0.2674(2) -0.1532(1) -0.0894(2)
C10 C -0.3187(3) -0.1502(1) -0.1692(2)
C11 C -0.3628(3) -0.1953(1) -0.2099(2)
C12 C -0.1459(2) -0.2582(1) 0.1702(2)
N2 N -0.0898(2) 0.0679(1) 0.1711(2)
C13 C -0.1182(2) 0.1090(1) 0.2145(2)
C14 C -0.1575(2) 0.1536(1) 0.1745(2)
C15 C -0.1723(2) 0.1555(1) 0.0850(2)
C16 C -0.1460(2) 0.1120(1) 0.0403(2)
C17 C -0.1036(2) 0.0698(1) 0.0853(2)
C18 C -0.2119(2) 0.2037(1) 0.0406(2)
C19 C -0.1457(2) 0.2454(1) 0.0303(2)
C20 C -0.3157(2) 0.2079(1) 0.0113(2)
C21 C -0.0400(2) 0.2430(1) 0.0606(2)
C22 C 0.0220(2) 0.2834(1) 0.0494(2)
C23 C -0.3848(2) 0.1668(1) 0.0220(2)
C24 C -0.0156(2) 0.3289(1) 0.0074(2)
H1 H 0.0499 -0.1005 0.1464
H2 H -0.0144 -0.1753 0.0794
H3 H -0.2942 -0.1216 0.1045
H4 H -0.2217 -0.0488 0.1725
H5 H -0.2370 -0.1228 -0.0636
H6 H -0.3252 -0.1177 -0.1981
H7 H -0.3988 -0.1927 -0.2658
H8 H -0.1173 -0.2283 0.1993
H9 H -0.1110 0.1076 0.2757
H10 H -0.1743 0.1826 0.2077
H11 H -0.1569 0.1113 -0.0209
H12 H -0.0834 0.0408 0.0538
H13 H -0.0132 0.2125 0.0889
H14 H 0.0917 0.2811 0.0702
H15 H -0.3608 0.1357 0.0503
H16 H 0.0291 0.3568 -0.0005
C8F C -0.3022(2) -0.2472(1) -0.0842(2)
C6F C -0.2928(2) -0.2949(1) -0.0405(2)
C3F C -0.3374(2) -0.3429(1) -0.0838(2)
C2F C -0.4410(2) -0.3502(1) -0.0976(2)
C1F C -0.4787(2) -0.3949(1) -0.1381(2)
N1F N -0.4212(2) -0.4321(1) -0.1663(2)
C5F C -0.3210(2) -0.4252(1) -0.1532(2)
C4F C -0.2772(2) -0.3817(1) -0.1126(2)
H3F H -0.2058 -0.3784 -0.1045
H4F H -0.2783 -0.4512 -0.1725
H1F H -0.5499 -0.3995 -0.1464
H2F H -0.4856 -0.3247 -0.0794
C7F C -0.2419(2) -0.2988(1) 0.0431(2)
C11F C -0.1372(3) -0.3047(1) 0.2099(2)
C10F C -0.1813(3) -0.3498(1) 0.1692(2)
C9F C -0.2326(2) -0.3468(1) 0.0894(2)
H5F H -0.2630 -0.3772 0.0636
H6F H -0.1748 -0.3823 0.1981
H7F H -0.1012 -0.3073 0.2658
C12F C -0.3541(2) -0.2418(1) -0.1702(2)
H8F H -0.3827 -0.2717 -0.1993
C20F C -0.1843(2) 0.2921(1) -0.0113(2)
C18F C -0.2881(2) 0.2963(1) -0.0406(2)
C15F C -0.3277(2) 0.3445(1) -0.0850(2)
C14F C -0.3425(2) 0.3464(1) -0.1745(2)
C13F C -0.3818(2) 0.3910(1) -0.2145(2)
N2F N -0.4102(2) 0.4321(1) -0.1711(2)
C17F C -0.3964(2) 0.4302(1) -0.0853(2)
C16F C -0.3540(2) 0.3880(1) -0.0403(2)
H11F H -0.3431 0.3887 0.0209
H12F H -0.4166 0.4592 -0.0538
H9F H -0.3890 0.3924 -0.2757
H10F H -0.3257 0.3174 -0.2077
C19F C -0.3543(2) 0.2546(1) -0.0303(2)
C24F C -0.4844(2) 0.1711(1) -0.0074(2)
C22F C -0.5220(2) 0.2166(1) -0.0494(2)
C21F C -0.4600(2) 0.2570(1) -0.0606(2)
H13F H -0.4868 0.2875 -0.0889
H14F H -0.5917 0.2189 -0.0702
H16F H -0.5291 0.1432 0.0005
C23F C -0.1152(2) 0.3332(1) -0.0220(2)
H15F H -0.1392 0.3643 -0.0503
I1A I 0.1626(1) 0.0044(1) 0.1340(1)
N1A N 0.0788(2) -0.0679(1) 0.3337(2)
N2A N 0.0898(2) 0.0679(1) 0.3289(2)
Cd1F Cd -0.5000 -0.5011(1) -0.2500
Cd1F_2 Cd -0.5000 0.4989(1) -0.2500
N4? N 0.5703(10) 0.0451(5) 0.1244(11)
O3? O 0.5160(7) 0.0635(3) 0.1702(6)
O4? O 0.6594(6) 0.0448(3) 0.1406(5)
C29? C 0.5234(9) 0.0175(4) 0.0490(9)
C30? C 0.4160(20) 0.0123(12) 0.0362(15)
C31? C 0.3686(14) -0.0110(6) -0.0385(14)
C32? C 0.5630(30) 0.0313(8) 0.0965(17)
C33? C 0.4460(30) 0.0277(9) 0.0807(14)
C34? C 0.4180(30) 0.0046(15) 0.0040(20)
loop_
_geom_bond_atom_site_label_1
_geom_bond_atom_site_label_2
_geom_bond_site_symmetry_1
_geom_bond_site_symmetry_2
Cd1 I1 1_555 1_555
N1 Cd1 1_555 1_555
C1 N1 1_555 1_555
C2 C1 1_555 1_555
C3 C2 1_555 1_555
C4 C3 1_555 1_555
C5 N1 1_555 1_555
C6 C3 1_555 1_555
C7 C6 1_555 1_555
C8 C6 1_555 1_555
C9 C7 1_555 1_555
C10 C9 1_555 1_555
C11 C10 1_555 1_555
C12 C8 1_555 1_555
N2 Cd1 1_555 1_555
C13 N2 1_555 1_555
C14 C13 1_555 1_555
C15 C14 1_555 1_555
C16 C15 1_555 1_555
C17 N2 1_555 1_555
C18 C15 1_555 1_555
C19 C18 1_555 1_555
C20 C18 1_555 1_555
C21 C19 1_555 1_555
C22 C21 1_555 1_555
C23 C20 1_555 1_555
C24 C22 1_555 1_555
N3 O1 1_555 1_555
O2 N3 1_555 1_555
C25 N3 1_555 1_555
C26 C25 1_555 1_555
C27 C26 1_555 1_555
C28 C25 1_555 1_555
H1 C1 1_555 1_555
H2 C2 1_555 1_555
H3 C4 1_555 1_555
H4 C5 1_555 1_555
H5 C9 1_555 1_555
H6 C10 1_555 1_555
H7 C11 1_555 1_555
H8 C12 1_555 1_555
H9 C13 1_555 1_555
H10 C14 1_555 1_555
H11 C16 1_555 1_555
H12 C17 1_555 1_555
H13 C21 1_555 1_555
H14 C22 1_555 1_555
H15 C23 1_555 1_555
H16 C24 1_555 1_555
C8F C7 1_555 1_555
C6F C8F 1_555 1_555
C3F C6F 1_555 1_555
C2F C3F 1_555 1_555
C1F C2F 1_555 1_555
N1F C1F 1_555 1_555
C5F N1F 1_555 1_555
C4F C3F 1_555 1_555
H3F C4F 1_555 1_555
H4F C5F 1_555 1_555
H1F C1F 1_555 1_555
H2F C2F 1_555 1_555
C7F C8 1_555 1_555
C11F C12 1_555 1_555
C10F C11F 1_555 1_555
C9F C7F 1_555 1_555
H5F C9F 1_555 1_555
H6F C10F 1_555 1_555
H7F C11F 1_555 1_555
C12F C11 1_555 1_555
H8F C12F 1_555 1_555
C20F C19 1_555 1_555
C18F C20F 1_555 1_555
C15F C18F 1_555 1_555
C14F C15F 1_555 1_555
C13F C14F 1_555 1_555
N2F C13F 1_555 1_555
C17F N2F 1_555 1_555
C16F C15F 1_555 1_555
H11F C16F 1_555 1_555
H12F C17F 1_555 1_555
H9F C13F 1_555 1_555
H10F C14F 1_555 1_555
C19F C20 1_555 1_555
C24F C23 1_555 1_555
C22F C24F 1_555 1_555
C21F C19F 1_555 1_555
H13F C21F 1_555 1_555
H14F C22F 1_555 1_555
H16F C24F 1_555 1_555
C23F C24 1_555 1_555
H15F C23F 1_555 1_555
C26A C27 1_555 1_555
C25A C28 1_555 1_555
N3A C25A 1_555 1_555
O1A N3A 1_555 1_555
O2A N3A 1_555 1_555
I1A Cd1 1_555 1_555
N1A Cd1 1_555 1_555
N2A Cd1 1_555 1_555
Cd1F N1F 1_555 1_555
Cd1F_2 N2F 1_555 1_555
C4 C5 1_555 1_555
C16 C17 1_555 1_555
C8F C12F 1_555 1_555
C6F C7F 1_555 1_555
C5F C4F 1_555 1_555
C10F C9F 1_555 1_555
C20F C23F 1_555 1_555
C18F C19F 1_555 1_555
C17F C16F 1_555 1_555
C22F C21F 1_555 1_555
C26A C25A 1_555 1_555

#END
