
#######################################################################
#
#                 Cambridge Crystallographic Data Centre
#                                CCDC 
#
#######################################################################
#
# If this CIF has been generated from an entry in the Cambridge 
# Structural Database, then it will include bibliographic, chemical, 
# crystal, experimental, refinement or atomic coordinate data resulting 
# from the CCDC's data processing and validation procedures.
#
#######################################################################

data_IPUDAY
_symmetry_cell_setting           monoclinic
_symmetry_space_group_name_H-M   'C 2/c'
_symmetry_Int_Tables_number      15
_space_group_name_Hall           '-C 2yn'
loop_
_symmetry_equiv_pos_site_id
_symmetry_equiv_pos_as_xyz
1 x,y,z
2 -x,y,1/2-z
3 1/2+x,1/2+y,z
4 1/2-x,1/2+y,1/2-z
5 -x,-y,-z
6 x,-y,1/2+z
7 1/2-x,1/2-y,-z
8 1/2+x,1/2-y,1/2+z
_cell_length_a                   16.4275(14)
_cell_length_b                   7.0865(6)
_cell_length_c                   23.269(2)
_cell_angle_alpha                90
_cell_angle_beta                 105.632(2)
_cell_angle_gamma                90
_cell_volume                     2608.63
loop_
_atom_site_label
_atom_site_type_symbol
_atom_site_fract_x
_atom_site_fract_y
_atom_site_fract_z
Cd1 Cd 0.0000 -0.0310(1) 0.2500
I1 I 0.1261(1) 0.1488(1) 0.2175(1)
N1 N 0.0713(2) -0.2463(5) 0.3192(1)
C1 C 0.1494(3) -0.2067(7) 0.3523(2)
C2 C 0.1945(3) -0.3261(7) 0.3961(2)
C3 C 0.1592(2) -0.4948(6) 0.4074(2)
C4 C 0.0794(2) -0.5377(6) 0.3707(2)
C5 C 0.0379(2) -0.4119(6) 0.3287(2)
C6 C 0.2059(2) -0.6257(5) 0.4550(2)
C7 C 0.2651(2) -0.7505(6) 0.4427(2)
C8 C 0.2815(3) -0.7614(6) 0.3853(2)
C9 C 0.3375(3) -0.8855(7) 0.3743(2)
C10 C 0.3829(3) -1.0082(7) 0.4196(2)
C11 C 0.3697(3) -1.0041(6) 0.4749(2)
C12 C 0.1902(2) -0.6210(5) 0.5115(2)
H1 H 0.1748 -0.0915 0.3454
H2 H 0.2500 -0.2927 0.4186
H3 H 0.0538 -0.6551 0.3750
H4 H -0.0172 -0.4432 0.3050
H5 H 0.2523 -0.6792 0.3544
H6 H 0.3466 -0.8908 0.3357
H7 H 0.4229 -1.0939 0.4114
H8 H 0.4010 -1.0865 0.5050
N1F N 0.4287(2) -1.2537(5) 0.6808(1)
C1F C 0.3506(3) -1.2933(7) 0.6477(2)
C2F C 0.3055(3) -1.1739(7) 0.6039(2)
C3F C 0.3408(2) -1.0052(6) 0.5926(2)
C4F C 0.4206(2) -0.9623(6) 0.6293(2)
C5F C 0.4621(2) -1.0881(6) 0.6713(2)
C6F C 0.2941(2) -0.8743(5) 0.5450(2)
C7F C 0.2349(2) -0.7495(6) 0.5573(2)
C8F C 0.2185(3) -0.7386(6) 0.6147(2)
C9F C 0.1625(3) -0.6145(7) 0.6257(2)
C10F C 0.1171(3) -0.4918(7) 0.5804(2)
C11F C 0.1303(3) -0.4959(6) 0.5251(2)
C12F C 0.3098(2) -0.8790(5) 0.4885(2)
H1F H 0.3252 -1.4085 0.6546
H2F H 0.2500 -1.2073 0.5814
H3F H 0.4462 -0.8449 0.6250
H4F H 0.5172 -1.0568 0.6950
H5F H 0.2477 -0.8208 0.6456
H6F H 0.1534 -0.6092 0.6643
H7F H 0.0771 -0.4061 0.5886
H8F H 0.0990 -0.4135 0.4950
I1A I -0.1261(1) 0.1488(1) 0.2825(1)
Cd1F Cd 0.5000 -1.4690(1) 0.7500
N1A N -0.0713(2) -0.2463(5) 0.1808(1)
O1? O 0.4834(11) -1.4770(30) 0.5258(7)
C13? C 0.5033(16) -1.5550(40) 0.5696(12)
loop_
_geom_bond_atom_site_label_1
_geom_bond_atom_site_label_2
_geom_bond_site_symmetry_1
_geom_bond_site_symmetry_2
Cd1 I1 1_555 1_555
N1 Cd1 1_555 1_555
C1 N1 1_555 1_555
C2 C1 1_555 1_555
C3 C2 1_555 1_555
C4 C3 1_555 1_555
C5 N1 1_555 1_555
C6 C3 1_555 1_555
C7 C6 1_555 1_555
C8 C7 1_555 1_555
C9 C8 1_555 1_555
C10 C9 1_555 1_555
C11 C10 1_555 1_555
C12 C6 1_555 1_555
H1 C1 1_555 1_555
H2 C2 1_555 1_555
H3 C4 1_555 1_555
H4 C5 1_555 1_555
H5 C8 1_555 1_555
H6 C9 1_555 1_555
H7 C10 1_555 1_555
H8 C11 1_555 1_555
N1F C1F 1_555 1_555
C1F C2F 1_555 1_555
C2F C3F 1_555 1_555
C3F C4F 1_555 1_555
C4F C5F 1_555 1_555
C5F N1F 1_555 1_555
C6F C3F 1_555 1_555
C7F C12 1_555 1_555
C8F C7F 1_555 1_555
C9F C8F 1_555 1_555
C10F C9F 1_555 1_555
C11F C12 1_555 1_555
C12F C7 1_555 1_555
H1F C1F 1_555 1_555
H2F C2F 1_555 1_555
H3F C4F 1_555 1_555
H4F C5F 1_555 1_555
H5F C8F 1_555 1_555
H6F C9F 1_555 1_555
H7F C10F 1_555 1_555
H8F C11F 1_555 1_555
I1A Cd1 1_555 1_555
Cd1F N1F 1_555 1_555
N1A Cd1 1_555 1_555
C4 C5 1_555 1_555
C11 C12F 1_555 1_555
C6F C7F 1_555 1_555
C6F C12F 1_555 1_555
C10F C11F 1_555 1_555

#END
