
#######################################################################
#
#                 Cambridge Crystallographic Data Centre
#                                CCDC 
#
#######################################################################
#
# If this CIF has been generated from an entry in the Cambridge 
# Structural Database, then it will include bibliographic, chemical, 
# crystal, experimental, refinement or atomic coordinate data resulting 
# from the CCDC's data processing and validation procedures.
#
#######################################################################

data_IPUGOQ
_symmetry_cell_setting           monoclinic
_symmetry_space_group_name_H-M   'C 2/c'
_symmetry_Int_Tables_number      15
_space_group_name_Hall           '-C 2yn'
loop_
_symmetry_equiv_pos_site_id
_symmetry_equiv_pos_as_xyz
1 x,y,z
2 -x,y,1/2-z
3 1/2+x,1/2+y,z
4 1/2-x,1/2+y,1/2-z
5 -x,-y,-z
6 x,-y,1/2+z
7 1/2-x,1/2-y,-z
8 1/2+x,1/2-y,1/2+z
_cell_length_a                   34.955(9)
_cell_length_b                   9.075(2)
_cell_length_c                   9.583(3)
_cell_angle_alpha                90
_cell_angle_beta                 103.511(5)
_cell_angle_gamma                90
_cell_volume                     2955.76
loop_
_atom_site_label
_atom_site_type_symbol
_atom_site_fract_x
_atom_site_fract_y
_atom_site_fract_z
Zn1 Zn 0.0000 -0.05239(6) 0.2500
N1 N 0.06348(7) -0.0745(3) 0.2704(3)
N2 N 0.26895(9) -0.1476(4) 0.3346(4)
O1 O 0.01265(6) 0.1082(2) 0.4153(2)
O2 O -0.01101(6) 0.2137(2) 0.5893(2)
O3 O -0.16919(7) 0.3873(4) 0.1191(3)
O4 O -0.15418(8) 0.3411(4) 0.3518(3)
C1 C 0.08979(10) 0.0139(4) 0.3536(4)
H1 H 0.0805 0.0903 0.4012
C2 C 0.12977(10) -0.0012(4) 0.3732(4)
H2 H 0.1467 0.0641 0.4323
C3 C 0.14485(9) -0.1150(4) 0.3039(4)
C4 C 0.11768(10) -0.2096(4) 0.2236(4)
H3 H 0.1262 -0.2900 0.1787
C5 C 0.07802(9) -0.1863(4) 0.2089(4)
H4 H 0.0605 -0.2520 0.1531
C6 C 0.18799(10) -0.1315(4) 0.3170(4)
C7 C 0.21517(10) -0.0675(4) 0.4276(4)
H5 H 0.2067 -0.0170 0.4994
C8 C 0.25479(11) -0.0779(5) 0.4328(5)
H6 H 0.2724 -0.0337 0.5091
C9 C 0.24280(11) -0.2124(5) 0.2288(5)
H7 H 0.2521 -0.2634 0.1594
C10 C 0.20255(10) -0.2083(5) 0.2163(4)
H8 H 0.1856 -0.2565 0.1411
C11 C -0.00949(9) 0.1968(4) 0.4603(4)
C12 C -0.03614(9) 0.2928(4) 0.3518(3)
C13 C -0.02156(9) 0.3685(3) 0.2476(3)
C14 C -0.04765(9) 0.4460(4) 0.1417(4)
H9 H -0.0381 0.4997 0.0743
C15 C -0.08739(10) 0.4446(4) 0.1347(4)
H10 H -0.1047 0.4913 0.0591
C16 C -0.10186(9) 0.3731(4) 0.2411(4)
C17 C -0.07575(9) 0.3004(4) 0.3499(4)
H11 H -0.0850 0.2558 0.4231
C18 C -0.14488(10) 0.3704(4) 0.2298(4)
H12 H -0.1792(4) 0.351(7) 0.333(6)
Zn1D Zn 0.0000 0.05239(6) -0.2500
Zn1D_2 Zn 0.0000 0.05239(6) 0.7500
N1A N -0.06348(7) -0.0745(3) 0.2296(3)
N2A N -0.26895(9) -0.1476(4) 0.1654(4)
O1A O -0.01265(6) 0.1082(2) 0.0847(2)
O2A O 0.01101(6) 0.2137(2) -0.0893(2)
O2D O 0.01101(6) -0.2137(2) 0.4107(2)
O2E O -0.01101(6) -0.2137(2) 0.0893(2)
O3A O 0.16919(7) 0.3873(4) 0.3809(3)
O4A O 0.15418(8) 0.3411(4) 0.1482(3)
C1A C -0.08979(10) 0.0139(4) 0.1464(4)
H1A H -0.0805 0.0903 0.0988
C2A C -0.12977(10) -0.0012(4) 0.1268(4)
H2A H -0.1467 0.0641 0.0677
C3A C -0.14485(9) -0.1150(4) 0.1961(4)
C4A C -0.11768(10) -0.2096(4) 0.2764(4)
H3A H -0.1262 -0.2900 0.3213
C5A C -0.07802(9) -0.1863(4) 0.2911(4)
H4A H -0.0605 -0.2520 0.3469
C6A C -0.18799(10) -0.1315(4) 0.1830(4)
C7A C -0.21517(10) -0.0675(4) 0.0724(4)
H5A H -0.2067 -0.0170 0.0006
C8A C -0.25479(11) -0.0779(5) 0.0672(5)
H6A H -0.2724 -0.0337 -0.0091
C9A C -0.24280(11) -0.2124(5) 0.2712(5)
H7A H -0.2521 -0.2634 0.3406
C10A C -0.20255(10) -0.2083(5) 0.2837(4)
H8A H -0.1856 -0.2565 0.3589
C11A C 0.00949(9) 0.1968(4) 0.0397(4)
C12A C 0.03614(9) 0.2928(4) 0.1482(3)
C13A C 0.02156(9) 0.3685(3) 0.2524(3)
C14A C 0.04765(9) 0.4460(4) 0.3583(4)
H9A H 0.0381 0.4997 0.4257
C15A C 0.08739(10) 0.4446(4) 0.3653(4)
H10A H 0.1047 0.4913 0.4409
C16A C 0.10186(9) 0.3731(4) 0.2589(4)
C17A C 0.07575(9) 0.3004(4) 0.1501(4)
H11A H 0.0850 0.2558 0.0769
C18A C 0.14488(10) 0.3704(4) 0.2702(4)
H12A H 0.1792(4) 0.351(7) 0.167(6)
loop_
_geom_bond_atom_site_label_1
_geom_bond_atom_site_label_2
_geom_bond_site_symmetry_1
_geom_bond_site_symmetry_2
Zn1 N1 1_555 1_555
N1 C1 1_555 1_555
N2 C8 1_555 1_555
O1 Zn1 1_555 1_555
O2 C11 1_555 1_555
O3 C18 1_555 1_555
O4 C18 1_555 1_555
C1 H1 1_555 1_555
C2 C1 1_555 1_555
H2 C2 1_555 1_555
C3 C2 1_555 1_555
C4 C3 1_555 1_555
H3 C4 1_555 1_555
C5 N1 1_555 1_555
H4 C5 1_555 1_555
C6 C3 1_555 1_555
C7 C6 1_555 1_555
H5 C7 1_555 1_555
C8 C7 1_555 1_555
H6 C8 1_555 1_555
C9 N2 1_555 1_555
H7 C9 1_555 1_555
C10 C6 1_555 1_555
H8 C10 1_555 1_555
C11 O1 1_555 1_555
C12 C11 1_555 1_555
C13 C12 1_555 1_555
C14 C13 1_555 1_555
H9 C14 1_555 1_555
C15 C14 1_555 1_555
H10 C15 1_555 1_555
C16 C15 1_555 1_555
C17 C12 1_555 1_555
H11 C17 1_555 1_555
C18 C16 1_555 1_555
H12 O4 1_555 1_555
Zn1D O2A 1_555 1_555
Zn1D_2 O2 1_555 1_555
N1A Zn1 1_555 1_555
N2A C8A 1_555 1_555
O1A Zn1 1_555 1_555
O2A C11A 1_555 1_555
O2D Zn1 1_555 1_555
O2E Zn1 1_555 1_555
O3A C18A 1_555 1_555
O4A C18A 1_555 1_555
C1A N1A 1_555 1_555
H1A C1A 1_555 1_555
C2A C1A 1_555 1_555
H2A C2A 1_555 1_555
C3A C2A 1_555 1_555
C4A C3A 1_555 1_555
H3A C4A 1_555 1_555
C5A N1A 1_555 1_555
H4A C5A 1_555 1_555
C6A C3A 1_555 1_555
C7A C6A 1_555 1_555
H5A C7A 1_555 1_555
C8A C7A 1_555 1_555
H6A C8A 1_555 1_555
C9A N2A 1_555 1_555
H7A C9A 1_555 1_555
C10A C6A 1_555 1_555
H8A C10A 1_555 1_555
C11A O1A 1_555 1_555
C12A C11A 1_555 1_555
C13A C13 1_555 1_555
C14A C13A 1_555 1_555
H9A C14A 1_555 1_555
C15A C14A 1_555 1_555
H10A C15A 1_555 1_555
C16A C15A 1_555 1_555
C17A C12A 1_555 1_555
H11A C17A 1_555 1_555
C18A C16A 1_555 1_555
H12A O4A 1_555 1_555
C4 C5 1_555 1_555
C9 C10 1_555 1_555
C16 C17 1_555 1_555
C4A C5A 1_555 1_555
C9A C10A 1_555 1_555
C12A C13A 1_555 1_555
C16A C17A 1_555 1_555

#END
