
#######################################################################
#
#                 Cambridge Crystallographic Data Centre
#                                CCDC 
#
#######################################################################
#
# If this CIF has been generated from an entry in the Cambridge 
# Structural Database, then it will include bibliographic, chemical, 
# crystal, experimental, refinement or atomic coordinate data resulting 
# from the CCDC's data processing and validation procedures.
#
#######################################################################

data_IPUGUW
_symmetry_cell_setting           orthorhombic
_symmetry_space_group_name_H-M   'P 21 21 21'
_symmetry_Int_Tables_number      19
_space_group_name_Hall           'P 2ac 2ab'
loop_
_symmetry_equiv_pos_site_id
_symmetry_equiv_pos_as_xyz
1 x,y,z
2 1/2-x,-y,1/2+z
3 -x,1/2+y,1/2-z
4 1/2+x,1/2-y,-z
_cell_length_a                   7.431(18)
_cell_length_b                   17.13(4)
_cell_length_c                   20.92(5)
_cell_angle_alpha                90
_cell_angle_beta                 90
_cell_angle_gamma                90
_cell_volume                     2662.97
loop_
_atom_site_label
_atom_site_type_symbol
_atom_site_fract_x
_atom_site_fract_y
_atom_site_fract_z
Cd1 Cd 0.09602(5) 0.044373(19) 0.833890(18)
O1 O 0.3039(5) -0.0331(3) 0.87706(19)
O2 O 0.4291(9) 0.0798(2) 0.90278(18)
O3 O 0.6240(7) 0.0668(2) 1.13612(18)
O4 O 0.7374(5) -0.0464(2) 1.17035(16)
H1 H 0.7342 -0.0249 1.2054
O5 O 0.9007(5) -0.0509(2) 0.87662(17)
O6 O 0.8125(6) -0.0054(2) 0.78520(18)
O7 O 0.5699(8) -0.2323(2) 0.64892(17)
O8 O 0.4781(6) -0.3372(2) 0.70193(18)
H2 H 0.4868 -0.3581 0.6668
N1 N -0.0288(6) 0.1366(2) 0.9018(2)
N2 N 0.0643(6) 0.1613(2) 0.77985(19)
N3 N 0.2179(5) 0.0347(2) 0.7301(2)
C1 C 0.5344(6) -0.0349(3) 0.9548(2)
C2 C 0.5648(7) 0.0005(3) 1.0132(2)
H3 H 0.5282 0.0518 1.0194
C3 C 0.6488(5) -0.0391(3) 1.0628(2)
C4 C 0.7054(7) -0.1151(3) 1.0530(2)
H4 H 0.7617 -0.1423 1.0859
C5 C 0.6788(7) -0.1508(3) 0.9946(2)
H5 H 0.7162 -0.2021 0.9888
C6 C 0.5970(7) -0.1114(2) 0.9440(2)
C7 C 0.4172(9) 0.0080(3) 0.9067(2)
C8 C 0.6693(7) 0.0008(3) 1.1267(3)
C9 C 0.6641(6) -0.1183(2) 0.8252(2)
C10 C 0.6370(6) -0.1550(3) 0.7668(2)
H6 H 0.6826 -0.1321 0.7299
C11 C 0.5443(6) -0.2245(3) 0.7620(2)
C12 C 0.4727(6) -0.2581(3) 0.8160(2)
H7 H 0.4137 -0.3058 0.8134
C13 C 0.4890(7) -0.2202(3) 0.8748(3)
H8 H 0.4368 -0.2423 0.9110
C14 C 0.5821(7) -0.1500(2) 0.8803(2)
C15 C 0.7983(6) -0.0536(3) 0.8293(2)
C16 C 0.5314(7) -0.2635(3) 0.6978(3)
C17 C -0.0652(9) 0.1227(3) 0.9647(3)
H9 H -0.0565 0.0718 0.9798
C18 C -0.1139(10) 0.1801(4) 1.0063(3)
H10 H -0.1403 0.1685 1.0487
C19 C -0.1228(10) 0.2545(4) 0.9844(3)
H11 H -0.1513 0.2949 1.0123
C20 C -0.0898(10) 0.2704(3) 0.9209(3)
H12 H -0.0983 0.3212 0.9055
C21 C -0.0441(6) 0.2100(3) 0.8804(3)
C22 C -0.0154(6) 0.2202(3) 0.8098(2)
C23 C -0.0719(8) 0.2859(3) 0.7766(3)
H13 H -0.1228 0.3280 0.7981
C24 C -0.0510(7) 0.2875(3) 0.7112(3)
H14 H -0.0919 0.3302 0.6879
C25 C 0.0303(6) 0.2258(3) 0.6800(3)
H15 H 0.0448 0.2264 0.6358
C26 C 0.0899(7) 0.1628(2) 0.7161(2)
C27 C 0.1869(7) 0.0942(3) 0.6892(3)
C28 C 0.2479(8) 0.0913(3) 0.6260(3)
H16 H 0.2281 0.1330 0.5984
C29 C 0.3379(8) 0.0255(4) 0.6053(3)
H17 H 0.3766 0.0219 0.5632
C30 C 0.3699(8) -0.0344(4) 0.6469(3)
H18 H 0.4320 -0.0787 0.6338
C31 C 0.3083(7) -0.0278(3) 0.7086(3)
H19 H 0.3304 -0.0686 0.7369
Cd1_2 Cd 1.09602(5) 0.044373(19) 0.833890(18)
O5_2 O -0.0993(5) -0.0509(2) 0.87662(17)
O6_2 O -0.1875(6) -0.0054(2) 0.78520(18)
O9 O 0.1229(7) -0.1476(3) 0.9623(2)
H20 H 0.1622 -0.1223 0.9931
H21 H 0.0681 -0.1187 0.9369
loop_
_geom_bond_atom_site_label_1
_geom_bond_atom_site_label_2
_geom_bond_site_symmetry_1
_geom_bond_site_symmetry_2
Cd1 O1 1_555 1_555
O1 C7 1_555 1_555
O2 C7 1_555 1_555
O3 C8 1_555 1_555
O4 H1 1_555 1_555
O5 C15 1_555 1_555
O6 C15 1_555 1_555
O7 C16 1_555 1_555
O8 H2 1_555 1_555
N1 Cd1 1_555 1_555
N2 Cd1 1_555 1_555
N3 Cd1 1_555 1_555
C1 C2 1_555 1_555
C2 H3 1_555 1_555
C3 C2 1_555 1_555
C4 C3 1_555 1_555
H4 C4 1_555 1_555
C5 C4 1_555 1_555
H5 C5 1_555 1_555
C6 C1 1_555 1_555
C7 C1 1_555 1_555
C8 O4 1_555 1_555
C9 C10 1_555 1_555
C10 H6 1_555 1_555
C11 C10 1_555 1_555
C12 C11 1_555 1_555
H7 C12 1_555 1_555
C13 C12 1_555 1_555
H8 C13 1_555 1_555
C14 C6 1_555 1_555
C15 C9 1_555 1_555
C16 O8 1_555 1_555
C17 N1 1_555 1_555
H9 C17 1_555 1_555
C18 C17 1_555 1_555
H10 C18 1_555 1_555
C19 C18 1_555 1_555
H11 C19 1_555 1_555
C20 C19 1_555 1_555
H12 C20 1_555 1_555
C21 N1 1_555 1_555
C22 N2 1_555 1_555
C23 C22 1_555 1_555
H13 C23 1_555 1_555
C24 C23 1_555 1_555
H14 C24 1_555 1_555
C25 C24 1_555 1_555
H15 C25 1_555 1_555
C26 N2 1_555 1_555
C27 N3 1_555 1_555
C28 C27 1_555 1_555
H16 C28 1_555 1_555
C29 C28 1_555 1_555
H17 C29 1_555 1_555
C30 C29 1_555 1_555
H18 C30 1_555 1_555
C31 N3 1_555 1_555
H19 C31 1_555 1_555
O9 H20 1_555 1_555
H21 O9 1_555 1_555
Cd1_2 O5 1_555 1_555
O5_2 Cd1 1_555 1_555
O6_2 Cd1 1_555 1_555
O6 Cd1_2 1_555 1_555
C3 C8 1_555 1_555
C5 C6 1_555 1_555
C9 C14 1_555 1_555
C11 C16 1_555 1_555
C13 C14 1_555 1_555
C20 C21 1_555 1_555
C21 C22 1_555 1_555
C25 C26 1_555 1_555
C26 C27 1_555 1_555
C30 C31 1_555 1_555

#END
