
#######################################################################
#
#                 Cambridge Crystallographic Data Centre
#                                CCDC 
#
#######################################################################
#
# If this CIF has been generated from an entry in the Cambridge 
# Structural Database, then it will include bibliographic, chemical, 
# crystal, experimental, refinement or atomic coordinate data resulting 
# from the CCDC's data processing and validation procedures.
#
#######################################################################

data_IPUJEI
_symmetry_cell_setting           orthorhombic
_symmetry_space_group_name_H-M   'P b c a'
_symmetry_Int_Tables_number      61
_space_group_name_Hall           '-P 2ac 2ab'
loop_
_symmetry_equiv_pos_site_id
_symmetry_equiv_pos_as_xyz
1 x,y,z
2 1/2+x,y,1/2-z
3 x,1/2-y,1/2+z
4 1/2-x,1/2+y,z
5 -x,-y,-z
6 1/2-x,-y,1/2+z
7 -x,1/2+y,1/2-z
8 1/2+x,1/2-y,-z
_cell_length_a                   7.5311(2)
_cell_length_b                   7.9335(2)
_cell_length_c                   29.0604(8)
_cell_angle_alpha                90
_cell_angle_beta                 90
_cell_angle_gamma                90
_cell_volume                     1736.3
loop_
_atom_site_label
_atom_site_type_symbol
_atom_site_fract_x
_atom_site_fract_y
_atom_site_fract_z
Rb1 Rb 0.21426(3) 0.19561(3) 0.012056(7)
O1 O 0.0336(2) -0.0993(2) 0.06166(5)
C1 C -0.0729(3) 0.0038(3) 0.07948(7)
C2 C -0.1572(3) 0.1806(3) 0.14732(8)
C3 C -0.0475(3) 0.0542(3) 0.12927(7)
N1 N 0.2034(3) -0.1366(3) 0.14161(9)
C4 C 0.0838(3) -0.0180(3) 0.15782(7)
C5 C -0.0129(4) 0.1642(3) 0.22028(8)
C6 C 0.0973(3) 0.0398(3) 0.20340(8)
C7 C -0.1414(4) 0.2364(3) 0.19221(8)
O2 O -0.1999(2) 0.0705(2) 0.05766(5)
O3 O 0.4516(2) -0.0257(3) 0.06387(7)
H1 H -0.239(3) 0.225(3) 0.1291(9)
H2 H 0.182(4) -0.011(3) 0.2222(10)
H3 H 0.171(4) -0.186(3) 0.1203(11)
H4 H -0.007(4) 0.198(3) 0.2519(10)
H5 H -0.217(4) 0.322(4) 0.2019(11)
H6 H 0.247(5) -0.188(4) 0.1609(13)
H7 H 0.411(5) -0.036(4) 0.0896(5)
H8 H 0.5528(19) 0.006(4) 0.0684(12)
Rb1G Rb -0.28574(3) 0.30439(3) -0.012056(7)
O1C O 0.4664(2) 0.4007(2) 0.06166(5)
O1D O -0.0336(2) 0.0993(2) -0.06166(5)
O2D O 0.1999(2) -0.0705(2) -0.05766(5)
O2G O 0.3001(2) 0.4295(2) -0.05766(5)
O3C O 0.0484(2) 0.4743(3) 0.06387(7)
Rb1C Rb 0.28574(3) -0.30439(3) 0.012056(7)
Rb1D Rb -0.21426(3) -0.19561(3) -0.012056(7)
H7C H 0.089(5) 0.464(4) 0.0896(5)
H8C H -0.0528(19) 0.506(4) 0.0684(12)
loop_
_geom_bond_atom_site_label_1
_geom_bond_atom_site_label_2
_geom_bond_site_symmetry_1
_geom_bond_site_symmetry_2
Rb1 O1 1_555 1_555
O1 C1 1_555 1_555
C1 C3 1_555 1_555
C2 C3 1_555 1_555
C3 C4 1_555 1_555
N1 C4 1_555 1_555
C4 C6 1_555 1_555
C5 C6 1_555 1_555
C6 H2 1_555 1_555
C7 C2 1_555 1_555
O2 C1 1_555 1_555
O3 Rb1 1_555 1_555
H1 C2 1_555 1_555
H3 N1 1_555 1_555
H4 C5 1_555 1_555
H5 C7 1_555 1_555
H6 N1 1_555 1_555
H7 O3 1_555 1_555
H8 O3 1_555 1_555
Rb1G O2 1_555 1_555
O1C Rb1 1_555 1_555
O1D Rb1 1_555 1_555
O2D Rb1 1_555 1_555
O2G Rb1 1_555 1_555
O3C Rb1 1_555 1_555
Rb1C O1 1_555 1_555
Rb1D O1 1_555 1_555
H7C O3C 1_555 1_555
H8C O3C 1_555 1_555
C5 C7 1_555 1_555
O2 Rb1D 1_555 1_555
O3 Rb1C 1_555 1_555
Rb1G O1D 1_555 1_555
O1D Rb1D 1_555 1_555
O2D Rb1C 1_555 1_555

#END
