
#######################################################################
#
#                 Cambridge Crystallographic Data Centre
#                                CCDC 
#
#######################################################################
#
# If this CIF has been generated from an entry in the Cambridge 
# Structural Database, then it will include bibliographic, chemical, 
# crystal, experimental, refinement or atomic coordinate data resulting 
# from the CCDC's data processing and validation procedures.
#
#######################################################################

data_IPUKEK
_symmetry_cell_setting           monoclinic
_symmetry_space_group_name_H-M   'C 2'
_symmetry_Int_Tables_number      5
_space_group_name_Hall           'C 2y'
loop_
_symmetry_equiv_pos_site_id
_symmetry_equiv_pos_as_xyz
1 x,y,z
2 -x,y,-z
3 1/2+x,1/2+y,z
4 1/2-x,1/2+y,-z
_cell_length_a                   35.478(10)
_cell_length_b                   17.354(5)
_cell_length_c                   26.470(7)
_cell_angle_alpha                90
_cell_angle_beta                 114.170(3)
_cell_angle_gamma                90
_cell_volume                     14868.5
loop_
_atom_site_label
_atom_site_type_symbol
_atom_site_fract_x
_atom_site_fract_y
_atom_site_fract_z
Cd1 Cd 0.0000 -0.06826(7) 1.5000
Cd2 Cd 0.24078(2) 0.46693(5) 1.13258(3)
Cd3 Cd 0.486267(19) -0.04603(4) 0.75826(2)
Cd4 Cd 0.74054(2) 0.43888(4) 0.37984(2)
Cd5 Cd 1.0000 -0.03349(6) 0.0000
O1 O 0.9647(2) 0.0515(5) 0.0276(3)
O2 O 1.0158(2) 0.0553(6) 0.1094(3)
O3 O 0.7741(2) 0.3528(5) 0.3516(3)
O4 O 0.7252(2) 0.3560(6) 0.2654(3)
O5 O 0.7034(2) 0.3528(5) 0.4058(3)
O6 O 0.7568(2) 0.3526(5) 0.4883(3)
O7 O 0.4673(2) 0.0313(7) 0.6426(3)
O8 O 0.5176(2) 0.0394(6) 0.7254(3)
O9 O 0.4518(2) 0.0434(5) 0.7871(3)
O10 O 0.5081(2) 0.0485(7) 0.8631(3)
O11 O 0.2722(2) 0.3854(5) 1.0957(3)
O12 O 0.2162(2) 0.3807(6) 1.0183(3)
O13 O 0.2095(2) 0.3737(4) 1.1624(3)
O14 O 0.2689(3) 0.3614(6) 1.2375(3)
O15 O 0.0310(2) 0.0167(6) 1.4674(3)
O16 O -0.0287(2) 0.0310(6) 1.3917(3)
N1 N 0.9982(3) -0.1227(4) 0.0693(3)
N2 N 1.0696(3) -0.0709(5) 0.0609(3)
N3 N 1.1487(3) -0.1859(5) 0.2446(3)
H1 H 1.1743 -0.1758 0.2534
N4 N 1.0904(3) -0.2323(6) 0.2507(3)
N5 N 0.6704(2) 0.4775(5) 0.3190(3)
N6 N 0.7391(2) 0.5324(5) 0.3123(3)
N7 N 0.6499(3) 0.6318(6) 0.1280(3)
H2 H 0.6655 0.6480 0.1125
N8 N 0.5935(3) 0.5982(6) 0.1363(4)
N9 N 0.7415(2) 0.5225(5) 0.4505(3)
N10 N 0.8110(2) 0.4728(5) 0.4398(3)
N11 N 0.8893(3) 0.5834(6) 0.6249(3)
H3 H 0.9150 0.5750 0.6328
N12 N 0.8341(3) 0.6252(5) 0.6345(3)
N13 N 0.4156(2) -0.0855(5) 0.6997(3)
N14 N 0.4843(3) -0.1342(7) 0.6931(4)
N15 N 0.3926(3) -0.2413(6) 0.5059(3)
N16 N 0.3355(3) -0.1932(6) 0.5140(3)
H4 H 0.3099 -0.1824 0.5049
N17 N 0.4902(3) -0.1292(5) 0.8318(3)
N18 N 0.5565(3) -0.0787(6) 0.8151(3)
N19 N 0.5871(3) -0.2183(7) 1.0152(4)
H5 H 0.5727 -0.2403 1.0304
N20 N 0.6399(3) -0.1721(6) 1.0051(3)
N21 N 0.2449(3) 0.5445(6) 1.2106(3)
N22 N 0.3112(2) 0.5008(6) 1.1898(3)
N23 N 0.3406(3) 0.6201(6) 1.3964(3)
H6 H 0.3256 0.6376 1.4124
N24 N 0.3979(3) 0.5815(6) 1.3804(3)
N25 N 0.1676(3) 0.4995(5) 1.0780(3)
N26 N 0.2353(2) 0.5572(5) 1.0642(3)
N27 N 0.0843(3) 0.6041(6) 0.8925(4)
H7 H 0.0589 0.5947 0.8860
N28 N 0.1393(3) 0.6459(6) 0.8778(3)
N29 N 0.0024(3) -0.1478(5) 1.5761(4)
N30 N 0.0703(3) -0.1004(6) 1.5564(4)
N31 N 0.1003(4) -0.2192(8) 1.7686(5)
H8 H 0.0854 -0.2327 1.7859
N32 N 0.1559(3) -0.1873(5) 1.7513(4)
C1 C 1.1034(3) -0.0461(7) 0.0567(4)
H9 H 1.1001 -0.0184 0.0250
C2 C 1.1435(3) -0.0582(6) 0.0958(4)
H10 H 1.1661 -0.0391 0.0906
C3 C 1.1485(3) -0.0987(6) 0.1418(4)
H11 H 1.1749 -0.1096 0.1682
C4 C 1.11194(13) -0.1255(3) 0.1498(2)
C5 C 1.07346(16) -0.1120(3) 0.10714(17)
C6 C 1.03796(13) -0.1398(2) 0.11093(15)
C7 C 1.04093(13) -0.1810(3) 0.15741(17)
C8 C 1.07940(15) -0.1946(3) 0.20011(17)
C9 C 1.11490(12) -0.1668(3) 0.19632(19)
C10 C 1.00164(16) -0.2055(4) 0.1606(3)
H12 H 1.0031 -0.2336 0.1912
C11 C 0.9627(3) -0.1881(5) 0.1193(4)
H13 H 0.9378 -0.2018 0.1209
C12 C 0.9660(3) -0.1437(5) 0.0714(4)
H14 H 0.9416 -0.1316 0.0413
C13 C 1.1318(3) -0.2240(6) 0.2743(3)
H15 H 1.1478 -0.2435 0.3093
C14 C 0.9790(3) 0.0675(7) 0.0790(4)
C15 C 0.95097(18) 0.1079(4) 0.0995(2)
C16 C 0.90931(19) 0.1179(5) 0.06576(19)
H16 H 0.8988 0.1017 0.0291
C17 C 0.88336(14) 0.1521(5) 0.0868(2)
H17 H 0.8555 0.1588 0.0642
C18 C 0.89907(18) 0.1763(5) 0.1417(3)
C19 C 0.9407(2) 0.1663(5) 0.17545(19)
H18 H 0.9512 0.1825 0.2121
C20 C 0.96669(15) 0.1321(5) 0.1544(2)
H19 H 0.9946 0.1254 0.1770
C21 C 0.8694(3) 0.2050(7) 0.1638(4)
H20 H 0.8426 0.2143 0.1379
C22 C 0.8767(3) 0.2187(8) 0.2152(5)
H21 H 0.9030 0.2067 0.2414
C23 C 0.8470(2) 0.2517(5) 0.2370(3)
C24 C 0.8080(2) 0.2762(6) 0.20048(18)
H22 H 0.8004 0.2732 0.1625
C25 C 0.78043(18) 0.3053(5) 0.2208(2)
H23 H 0.7544 0.3217 0.1963
C26 C 0.79180(19) 0.3099(5) 0.2776(3)
C27 C 0.8308(2) 0.2854(5) 0.31406(19)
H24 H 0.8384 0.2884 0.3521
C28 C 0.85837(16) 0.2563(5) 0.2938(2)
H25 H 0.8844 0.2399 0.3182
C29 C 0.7613(3) 0.3414(7) 0.3005(4)
C30 C 0.7772(4) 0.5590(9) 0.3108(5)
H26 H 0.8023 0.5512 0.3408
C31 C 0.7756(4) 0.5943(9) 0.2666(5)
H27 H 0.7998 0.6105 0.2640
C32 C 0.7376(4) 0.6076(9) 0.2234(5)
H28 H 0.7372 0.6349 0.1929
C33 C 0.70034(17) 0.5834(4) 0.2222(2)
C34 C 0.70273(13) 0.5432(4) 0.2689(2)
C35 C 0.66682(14) 0.5188(3) 0.27310(17)
C36 C 0.62852(13) 0.5345(3) 0.2307(2)
C37 C 0.62613(16) 0.5747(4) 0.1840(2)
C38 C 0.6620(2) 0.5992(4) 0.1798(2)
C39 C 0.6357(2) 0.4567(5) 0.3235(3)
H29 H 0.6385 0.4322 0.3561
C40 C 0.5957(3) 0.4684(7) 0.2837(4)
H30 H 0.5730 0.4501 0.2891
C41 C 0.5905(3) 0.5085(6) 0.2355(4)
H31 H 0.5645 0.5182 0.2079
C42 C 0.6079(4) 0.6328(9) 0.1070(5)
H32 H 0.5916 0.6570 0.0739
C43 C 0.7093(3) 0.5555(8) 0.4570(5)
H33 H 0.6835 0.5495 0.4279
C44 C 0.7103(4) 0.5954(9) 0.5002(5)
H34 H 0.6857 0.6137 0.5003
C45 C 0.7455(3) 0.6098(7) 0.5432(4)
H35 H 0.7464 0.6378 0.5736
C46 C 0.8900(3) 0.4954(6) 0.5221(4)
H36 H 0.9163 0.4993 0.5504
C47 C 0.8843(3) 0.4617(7) 0.4729(4)
H37 H 0.9070 0.4472 0.4659
C48 C 0.8442(3) 0.4492(7) 0.4332(4)
H38 H 0.8407 0.4233 0.4008
C49 C 0.85390(14) 0.5255(4) 0.5295(2)
C50 C 0.81513(17) 0.5130(3) 0.48721(18)
C51 C 0.77995(14) 0.5395(4) 0.49248(19)
C52 C 0.78354(13) 0.5786(4) 0.5401(2)
C53 C 0.82230(15) 0.5912(3) 0.58238(18)
C54 C 0.85748(12) 0.5647(3) 0.57711(18)
C55 C 0.8740(2) 0.6180(5) 0.6587(2)
H39 H 0.8901 0.6345 0.6946
C56 C 0.7205(3) 0.3334(7) 0.4555(4)
C57 C 0.69482(17) 0.2919(4) 0.4799(3)
C58 C 0.71177(15) 0.2735(5) 0.5359(2)
H40 H 0.7392 0.2856 0.5579
C59 C 0.6877(2) 0.2372(5) 0.5592(2)
H41 H 0.6991 0.2249 0.5966
C60 C 0.6467(2) 0.2192(5) 0.5264(3)
C61 C 0.62979(15) 0.2376(5) 0.4703(3)
H42 H 0.6024 0.2255 0.4484
C62 C 0.65383(18) 0.2739(4) 0.4471(2)
H43 H 0.6425 0.2862 0.4096
C63 C 0.6185(4) 0.1826(9) 0.5475(5)
H44 H 0.5951 0.1613 0.5200
C64 C 0.6200(5) 0.1749(10) 0.5939(6)
H45 H 0.6439 0.1922 0.6230
C65 C 0.5870(3) 0.1400(7) 0.6091(4)
C66 C 0.6009(2) 0.1273(6) 0.6657(4)
H46 H 0.6284 0.1367 0.6890
C67 C 0.5738(3) 0.1005(6) 0.6875(3)
H47 H 0.5831 0.0921 0.7254
C68 C 0.5327(2) 0.0865(6) 0.6527(4)
C69 C 0.5188(2) 0.0992(7) 0.5961(3)
H48 H 0.4913 0.0898 0.5728
C70 C 0.5459(3) 0.1259(7) 0.5743(3)
H49 H 0.5366 0.1344 0.5364
C71 C 0.5030(4) 0.0505(8) 0.6729(5)
C72 C 0.5148(4) -0.1615(8) 0.6867(5)
H50 H 0.5402 -0.1513 0.7156
C73 C 0.5171(4) -0.2069(8) 0.6413(4)
H51 H 0.5418 -0.2258 0.6419
C74 C 0.4796(4) -0.2190(7) 0.5978(4)
H52 H 0.4786 -0.2451 0.5665
C75 C 0.4440(3) -0.1935(6) 0.5997(4)
C76 C 0.4482(3) -0.1526(6) 0.6496(4)
C77 C 0.4094(3) -0.1228(5) 0.6539(3)
C78 C 0.3823(3) -0.0572(6) 0.7075(4)
H53 H 0.3860 -0.0297 0.7393
C79 C 0.3421(3) -0.0707(7) 0.6660(4)
H54 H 0.3195 -0.0510 0.6709
C80 C 0.3359(3) -0.1108(7) 0.6204(4)
H55 H 0.3091 -0.1212 0.5947
C81 C 0.3701(3) -0.1372(6) 0.6113(4)
C82 C 0.3690(3) -0.1776(7) 0.5631(4)
C83 C 0.4041(3) -0.2027(6) 0.5583(4)
C84 C 0.3533(4) -0.2302(8) 0.4835(4)
H56 H 0.3374 -0.2468 0.4477
C85 C 0.4557(4) -0.1504(10) 0.8369(5)
H57 H 0.4298 -0.1375 0.8101
C86 C 0.4597(4) -0.1924(9) 0.8836(5)
H58 H 0.4366 -0.2162 0.8849
C87 C 0.4962(3) -0.1991(8) 0.9265(5)
H59 H 0.4976 -0.2170 0.9604
C88 C 0.60216(13) -0.1224(3) 0.90664(17)
C89 C 0.56295(15) -0.1141(4) 0.86441(17)
C90 C 0.52865(12) -0.1421(4) 0.8713(2)
C91 C 0.53355(14) -0.1784(4) 0.9204(2)
C92 C 0.57276(16) -0.1868(4) 0.96262(19)
C93 C 0.60706(13) -0.1587(4) 0.95574(17)
C94 C 0.63642(16) -0.0911(4) 0.8972(3)
H60 H 0.6632 -0.0969 0.9239
C95 C 0.6294(3) -0.0527(6) 0.8485(4)
H61 H 0.6508 -0.0298 0.8421
C96 C 0.5897(3) -0.0501(7) 0.8104(4)
H62 H 0.5851 -0.0256 0.7771
C97 C 0.6266(3) -0.2077(7) 1.0365(3)
H63 H 0.6438 -0.2246 1.0719
C98 C 0.4709(3) 0.0629(6) 0.8359(4)
C99 C 0.44852(17) 0.1080(4) 0.8631(2)
C100 C 0.40640(17) 0.1216(4) 0.83497(18)
H64 H 0.3924 0.1040 0.7988
C101 C 0.38517(14) 0.1613(4) 0.8608(2)
H65 H 0.3570 0.1703 0.8420
C102 C 0.40606(18) 0.1875(4) 0.9148(2)
C103 C 0.44819(18) 0.1740(5) 0.9430(2)
H66 H 0.4622 0.1915 0.9791
C104 C 0.46942(14) 0.1342(4) 0.9171(2)
H67 H 0.4976 0.1252 0.9360
C105 C 0.3853(3) 0.2243(6) 0.9481(4)
H68 H 0.4016 0.2396 0.9842
C106 C 0.3448(3) 0.2362(6) 0.9287(4)
H69 H 0.3286 0.2189 0.8931
C107 C 0.25905(13) 0.3183(3) 0.96183(18)
H70 H 0.2306 0.3254 0.9439
C108 C 0.28068(18) 0.2865(3) 0.93340(17)
H71 H 0.2667 0.2725 0.8964
C109 C 0.32314(17) 0.2758(3) 0.9602(2)
C110 C 0.34396(13) 0.2968(3) 1.0154(2)
H72 H 0.3724 0.2896 1.0334
C111 C 0.32233(13) 0.3285(3) 1.04389(16)
H73 H 0.3363 0.3425 1.0808
C112 C 0.27987(12) 0.3392(2) 1.01708(16)
C113 C 0.25338(16) 0.3713(3) 1.0458(2)
C114 C 0.2683(3) 0.5886(3) 1.0580(4)
H74 H 0.2941 0.5840 1.0873
C115 C 0.2659(4) 0.6293(8) 1.0081(5)
H75 H 0.2891 0.6471 1.0037
C116 C 0.2250(4) 0.6392(7) 0.9671(5)
H76 H 0.2215 0.6687 0.9362
C117 C 0.1905(3) 0.6080(7) 0.9702(4)
C118 C 0.1972(3) 0.5691(6) 1.0207(4)
C119 C 0.1611(3) 0.5378(5) 1.0293(4)
C120 C 0.1203(3) 0.5448(6) 0.9874(4)
C121 C 0.0874(3) 0.5169(7) 0.9959(4)
H77 H 0.0607 0.5196 0.9686
C122 C 0.0960(3) 0.4837(7) 1.0481(4)
H78 H 0.0749 0.4669 1.0576
C123 C 0.1368(3) 0.4771(7) 1.0843(4)
H79 H 0.1418 0.4526 1.1177
C124 C 0.1169(3) 0.5854(7) 0.9392(4)
C125 C 0.1502(3) 0.6161(6) 0.9297(4)
C126 C 0.0982(4) 0.6421(8) 0.8550(5)
H80 H 0.0811 0.6611 0.8203
C127 C 0.2116(3) 0.5623(7) 1.2176(4)
H81 H 0.1858 0.5516 1.1896
C128 C 0.2139(3) 0.5975(8) 1.2669(4)
H82 H 0.1903 0.6080 1.2727
C129 C 0.2534(3) 0.6162(8) 1.3070(4)
H83 H 0.2564 0.6483 1.3365
C130 C 0.35725(12) 0.5376(3) 1.28257(18)
C131 C 0.31764(13) 0.5295(3) 1.24124(15)
C132 C 0.28368(12) 0.5532(4) 1.25074(19)
C133 C 0.28932(15) 0.5849(4) 1.3016(2)
C134 C 0.32893(17) 0.5929(4) 1.34290(17)
C135 C 0.36290(14) 0.5692(4) 1.33340(17)
C136 C 0.3439(2) 0.4797(6) 1.1793(2)
H84 H 0.3391 0.4582 1.1450
C137 C 0.3843(3) 0.4891(7) 1.2180(4)
H85 H 0.4062 0.4776 1.2084
C138 C 0.3920(3) 0.5150(7) 1.2697(4)
H86 H 0.4190 0.5183 1.2965
C139 C 0.3830(4) 0.6115(7) 1.4169(4)
H87 H 0.4003 0.6250 1.4530
C140 C 0.2304(4) 0.3508(7) 1.2112(5)
C141 C 0.2077(2) 0.3078(4) 1.2405(3)
C142 C 0.22829(15) 0.2798(5) 1.2940(3)
H88 H 0.2566 0.2869 1.3127
C143 C 0.2065(2) 0.2411(5) 1.3196(2)
H89 H 0.2203 0.2223 1.3554
C144 C 0.1641(2) 0.2305(4) 1.2916(3)
C145 C 0.14351(15) 0.2585(4) 1.2381(3)
H90 H 0.1151 0.2514 1.2194
C146 C 0.1653(2) 0.2972(4) 1.2125(2)
H91 H 0.1515 0.3159 1.1767
C147 C 0.1396(3) 0.1911(7) 1.3199(4)
H92 H 0.1550 0.1693 1.3544
C148 C 0.1020(3) 0.1846(7) 1.3029(4)
H93 H 0.0860 0.2018 1.2673
C149 C 0.03738(19) 0.1395(5) 1.3070(2)
H94 H 0.0240 0.1561 1.2705
C150 C 0.07969(19) 0.1507(4) 1.3355(2)
C151 C 0.09973(15) 0.1258(5) 1.3900(2)
H95 H 0.1280 0.1333 1.4090
C152 C 0.07746(19) 0.0898(5) 1.41596(19)
H96 H 0.0909 0.0732 1.4524
C153 C 0.03516(19) 0.0787(4) 1.3875(2)
C154 C 0.01511(15) 0.1036(5) 1.3330(2)
H97 H -0.0132 0.0961 1.3139
C155 C 0.0114(4) 0.0419(8) 1.4167(5)
C156 C 0.1015(4) -0.0768(8) 1.5501(5)
H98 H 0.0964 -0.0511 1.5171
C157 C 0.1440(4) -0.0845(8) 1.5874(5)
H99 H 0.1653 -0.0681 1.5782
C158 C 0.1510(4) -0.1160(8) 1.6351(5)
H100 H 0.1782 -0.1232 1.6605
C159 C 0.11514(19) -0.1417(4) 1.6504(3)
C160 C 0.12065(17) -0.1718(5) 1.7016(3)
C161 C 0.0866(2) -0.1934(5) 1.7116(2)
C162 C 0.04698(18) -0.1849(4) 1.6703(2)
C163 C 0.04147(18) -0.1549(3) 1.6190(2)
C164 C 0.0755(2) -0.1333(4) 1.6091(2)
C165 C 0.0116(2) -0.2087(5) 1.6778(4)
H101 H 0.0132 -0.2293 1.7111
C166 C -0.0249(5) -0.1992(7) 1.6331(6)
H102 H -0.0491 -0.2138 1.6360
C167 C -0.0276(5) -0.1685(6) 1.5825(7)
H103 H -0.0534 -0.1641 1.5532
C168 C 0.1395(4) -0.2171(8) 1.7868(5)
H104 H 0.1564 -0.2346 1.8220
O1A O 1.0353(2) 0.0515(5) -0.0276(3)
O15A O -0.0310(2) 0.0167(6) 1.5326(3)
N1A N 1.0018(3) -0.1227(4) -0.0693(3)
N2A N 0.9304(3) -0.0709(5) -0.0609(3)
N29A N -0.0024(3) -0.1478(5) 1.4239(4)
N30A N -0.0703(3) -0.1004(6) 1.4436(4)
loop_
_geom_bond_atom_site_label_1
_geom_bond_atom_site_label_2
_geom_bond_site_symmetry_1
_geom_bond_site_symmetry_2
Cd1 O15 1_555 1_555
Cd2 O11 1_555 1_555
Cd3 O8 1_555 1_555
Cd4 O3 1_555 1_555
Cd5 O1 1_555 1_555
O1 C14 1_555 1_555
O2 C14 1_555 1_555
O3 C29 1_555 1_555
O4 C29 1_555 1_555
O5 Cd4 1_555 1_555
O6 C56 1_555 1_555
O7 C71 1_555 1_555
O8 C71 1_555 1_555
O9 Cd3 1_555 1_555
O10 C98 1_555 1_555
O11 C113 1_555 1_555
O12 C113 1_555 1_555
O13 Cd2 1_555 1_555
O14 C140 1_555 1_555
O15 C155 1_555 1_555
O16 C155 1_555 1_555
N1 Cd5 1_555 1_555
N2 Cd5 1_555 1_555
N3 H1 1_555 1_555
N4 C8 1_555 1_555
N5 Cd4 1_555 1_555
N6 Cd4 1_555 1_555
N7 H2 1_555 1_555
N8 C37 1_555 1_555
N9 Cd4 1_555 1_555
N10 Cd4 1_555 1_555
N11 H3 1_555 1_555
N12 C53 1_555 1_555
N13 Cd3 1_555 1_555
N14 Cd3 1_555 1_555
N15 C83 1_555 1_555
N16 H4 1_555 1_555
N17 Cd3 1_555 1_555
N18 Cd3 1_555 1_555
N19 H5 1_555 1_555
N20 C93 1_555 1_555
N21 Cd2 1_555 1_555
N22 Cd2 1_555 1_555
N23 H6 1_555 1_555
N24 C135 1_555 1_555
N25 Cd2 1_555 1_555
N26 Cd2 1_555 1_555
N27 H7 1_555 1_555
N28 C125 1_555 1_555
N29 Cd1 1_555 1_555
N30 Cd1 1_555 1_555
N31 H8 1_555 1_555
N32 C160 1_555 1_555
C1 N2 1_555 1_555
H9 C1 1_555 1_555
C2 C1 1_555 1_555
H10 C2 1_555 1_555
C3 C2 1_555 1_555
H11 C3 1_555 1_555
C4 C3 1_555 1_555
C5 N2 1_555 1_555
C6 N1 1_555 1_555
C7 C6 1_555 1_555
C8 C7 1_555 1_555
C9 N3 1_555 1_555
C10 C7 1_555 1_555
H12 C10 1_555 1_555
C11 C10 1_555 1_555
H13 C11 1_555 1_555
C12 N1 1_555 1_555
H14 C12 1_555 1_555
C13 N3 1_555 1_555
H15 C13 1_555 1_555
C14 C15 1_555 1_555
C15 C16 1_555 1_555
C16 H16 1_555 1_555
C17 C16 1_555 1_555
H17 C17 1_555 1_555
C18 C17 1_555 1_555
C19 C18 1_555 1_555
H18 C19 1_555 1_555
C20 C15 1_555 1_555
H19 C20 1_555 1_555
C21 C18 1_555 1_555
H20 C21 1_555 1_555
C22 C21 1_555 1_555
H21 C22 1_555 1_555
C23 C22 1_555 1_555
C24 C23 1_555 1_555
H22 C24 1_555 1_555
C25 C24 1_555 1_555
H23 C25 1_555 1_555
C26 C25 1_555 1_555
C27 C26 1_555 1_555
H24 C27 1_555 1_555
C28 C23 1_555 1_555
H25 C28 1_555 1_555
C29 C26 1_555 1_555
C30 N6 1_555 1_555
H26 C30 1_555 1_555
C31 C30 1_555 1_555
H27 C31 1_555 1_555
C32 C31 1_555 1_555
H28 C32 1_555 1_555
C33 C32 1_555 1_555
C34 N6 1_555 1_555
C35 N5 1_555 1_555
C36 C35 1_555 1_555
C37 C36 1_555 1_555
C38 N7 1_555 1_555
C39 N5 1_555 1_555
H29 C39 1_555 1_555
C40 C39 1_555 1_555
H30 C40 1_555 1_555
C41 C36 1_555 1_555
H31 C41 1_555 1_555
C42 N7 1_555 1_555
H32 C42 1_555 1_555
C43 N9 1_555 1_555
H33 C43 1_555 1_555
C44 C43 1_555 1_555
H34 C44 1_555 1_555
C45 C44 1_555 1_555
H35 C45 1_555 1_555
C46 H36 1_555 1_555
C47 C46 1_555 1_555
H37 C47 1_555 1_555
C48 N10 1_555 1_555
H38 C48 1_555 1_555
C49 C46 1_555 1_555
C50 N10 1_555 1_555
C51 N9 1_555 1_555
C52 C45 1_555 1_555
C53 C52 1_555 1_555
C54 N11 1_555 1_555
C55 N11 1_555 1_555
H39 C55 1_555 1_555
C56 O5 1_555 1_555
C57 C56 1_555 1_555
C58 C57 1_555 1_555
H40 C58 1_555 1_555
C59 C58 1_555 1_555
H41 C59 1_555 1_555
C60 C59 1_555 1_555
C61 C60 1_555 1_555
H42 C61 1_555 1_555
C62 C57 1_555 1_555
H43 C62 1_555 1_555
C63 C60 1_555 1_555
H44 C63 1_555 1_555
C64 C63 1_555 1_555
H45 C64 1_555 1_555
C65 C64 1_555 1_555
C66 C65 1_555 1_555
H46 C66 1_555 1_555
C67 C66 1_555 1_555
H47 C67 1_555 1_555
C68 C67 1_555 1_555
C69 C68 1_555 1_555
H48 C69 1_555 1_555
C70 C65 1_555 1_555
H49 C70 1_555 1_555
C71 C68 1_555 1_555
C72 N14 1_555 1_555
H50 C72 1_555 1_555
C73 C72 1_555 1_555
H51 C73 1_555 1_555
C74 C73 1_555 1_555
H52 C74 1_555 1_555
C75 C74 1_555 1_555
C76 N14 1_555 1_555
C77 N13 1_555 1_555
C78 N13 1_555 1_555
H53 C78 1_555 1_555
C79 C78 1_555 1_555
H54 C79 1_555 1_555
C80 C79 1_555 1_555
H55 C80 1_555 1_555
C81 C77 1_555 1_555
C82 N16 1_555 1_555
C83 C75 1_555 1_555
C84 N15 1_555 1_555
H56 C84 1_555 1_555
C85 N17 1_555 1_555
H57 C85 1_555 1_555
C86 C85 1_555 1_555
H58 C86 1_555 1_555
C87 C86 1_555 1_555
H59 C87 1_555 1_555
C88 C89 1_555 1_555
C89 N18 1_555 1_555
C90 N17 1_555 1_555
C91 C87 1_555 1_555
C92 N19 1_555 1_555
C93 C88 1_555 1_555
C94 C88 1_555 1_555
H60 C94 1_555 1_555
C95 C94 1_555 1_555
H61 C95 1_555 1_555
C96 N18 1_555 1_555
H62 C96 1_555 1_555
C97 N19 1_555 1_555
H63 C97 1_555 1_555
C98 O9 1_555 1_555
C99 C98 1_555 1_555
C100 C99 1_555 1_555
H64 C100 1_555 1_555
C101 C100 1_555 1_555
H65 C101 1_555 1_555
C102 C101 1_555 1_555
C103 C102 1_555 1_555
H66 C103 1_555 1_555
C104 C99 1_555 1_555
H67 C104 1_555 1_555
C105 C102 1_555 1_555
H68 C105 1_555 1_555
C106 C105 1_555 1_555
H69 C106 1_555 1_555
C107 H70 1_555 1_555
C108 C107 1_555 1_555
H71 C108 1_555 1_555
C109 C106 1_555 1_555
C110 C109 1_555 1_555
H72 C110 1_555 1_555
C111 C110 1_555 1_555
H73 C111 1_555 1_555
C112 C107 1_555 1_555
C113 C112 1_555 1_555
C114 N26 1_555 1_555
H74 C114 1_555 1_555
C115 C114 1_555 1_555
H75 C115 1_555 1_555
C116 C115 1_555 1_555
H76 C116 1_555 1_555
C117 C116 1_555 1_555
C118 N26 1_555 1_555
C119 N25 1_555 1_555
C120 C119 1_555 1_555
C121 C120 1_555 1_555
H77 C121 1_555 1_555
C122 C121 1_555 1_555
H78 C122 1_555 1_555
C123 N25 1_555 1_555
H79 C123 1_555 1_555
C124 N27 1_555 1_555
C125 C117 1_555 1_555
C126 N27 1_555 1_555
H80 C126 1_555 1_555
C127 N21 1_555 1_555
H81 C127 1_555 1_555
C128 C127 1_555 1_555
H82 C128 1_555 1_555
C129 C128 1_555 1_555
H83 C129 1_555 1_555
C130 C131 1_555 1_555
C131 N22 1_555 1_555
C132 N21 1_555 1_555
C133 C129 1_555 1_555
C134 N23 1_555 1_555
C135 C130 1_555 1_555
C136 N22 1_555 1_555
H84 C136 1_555 1_555
C137 C136 1_555 1_555
H85 C137 1_555 1_555
C138 C130 1_555 1_555
H86 C138 1_555 1_555
C139 N23 1_555 1_555
H87 C139 1_555 1_555
C140 O13 1_555 1_555
C141 C140 1_555 1_555
C142 C141 1_555 1_555
H88 C142 1_555 1_555
C143 C142 1_555 1_555
H89 C143 1_555 1_555
C144 C143 1_555 1_555
C145 C144 1_555 1_555
H90 C145 1_555 1_555
C146 C141 1_555 1_555
H91 C146 1_555 1_555
C147 C144 1_555 1_555
H92 C147 1_555 1_555
C148 C147 1_555 1_555
H93 C148 1_555 1_555
C149 H94 1_555 1_555
C150 C148 1_555 1_555
C151 C150 1_555 1_555
H95 C151 1_555 1_555
C152 C151 1_555 1_555
H96 C152 1_555 1_555
C153 C152 1_555 1_555
C154 C149 1_555 1_555
H97 C154 1_555 1_555
C155 C153 1_555 1_555
C156 N30 1_555 1_555
H98 C156 1_555 1_555
C157 C156 1_555 1_555
H99 C157 1_555 1_555
C158 C157 1_555 1_555
H100 C158 1_555 1_555
C159 C158 1_555 1_555
C160 C159 1_555 1_555
C161 N31 1_555 1_555
C162 C161 1_555 1_555
C163 N29 1_555 1_555
C164 N30 1_555 1_555
C165 C162 1_555 1_555
H101 C165 1_555 1_555
C166 C165 1_555 1_555
H102 C166 1_555 1_555
C167 N29 1_555 1_555
H103 C167 1_555 1_555
C168 N31 1_555 1_555
H104 C168 1_555 1_555
O1A Cd5 1_555 1_555
O15A Cd1 1_555 1_555
N1A Cd5 1_555 1_555
N2A Cd5 1_555 1_555
N29A Cd1 1_555 1_555
N30A Cd1 1_555 1_555
N4 C13 1_555 1_555
N8 C42 1_555 1_555
N12 C55 1_555 1_555
N16 C84 1_555 1_555
N20 C97 1_555 1_555
N24 C139 1_555 1_555
N28 C126 1_555 1_555
N32 C168 1_555 1_555
C4 C5 1_555 1_555
C4 C9 1_555 1_555
C5 C6 1_555 1_555
C8 C9 1_555 1_555
C11 C12 1_555 1_555
C19 C20 1_555 1_555
C27 C28 1_555 1_555
C33 C34 1_555 1_555
C33 C38 1_555 1_555
C34 C35 1_555 1_555
C37 C38 1_555 1_555
C40 C41 1_555 1_555
C47 C48 1_555 1_555
C49 C50 1_555 1_555
C49 C54 1_555 1_555
C50 C51 1_555 1_555
C51 C52 1_555 1_555
C53 C54 1_555 1_555
C61 C62 1_555 1_555
C69 C70 1_555 1_555
C75 C76 1_555 1_555
C76 C77 1_555 1_555
C80 C81 1_555 1_555
C81 C82 1_555 1_555
C82 C83 1_555 1_555
C89 C90 1_555 1_555
C90 C91 1_555 1_555
C91 C92 1_555 1_555
C92 C93 1_555 1_555
C95 C96 1_555 1_555
C103 C104 1_555 1_555
C108 C109 1_555 1_555
C111 C112 1_555 1_555
C117 C118 1_555 1_555
C118 C119 1_555 1_555
C120 C124 1_555 1_555
C122 C123 1_555 1_555
C124 C125 1_555 1_555
C131 C132 1_555 1_555
C132 C133 1_555 1_555
C133 C134 1_555 1_555
C134 C135 1_555 1_555
C137 C138 1_555 1_555
C145 C146 1_555 1_555
C149 C150 1_555 1_555
C153 C154 1_555 1_555
C159 C164 1_555 1_555
C160 C161 1_555 1_555
C162 C163 1_555 1_555
C163 C164 1_555 1_555
C166 C167 1_555 1_555

#END
