
#######################################################################
#
#                 Cambridge Crystallographic Data Centre
#                                CCDC 
#
#######################################################################
#
# If this CIF has been generated from an entry in the Cambridge 
# Structural Database, then it will include bibliographic, chemical, 
# crystal, experimental, refinement or atomic coordinate data resulting 
# from the CCDC's data processing and validation procedures.
#
#######################################################################

data_IPUSIV
_symmetry_cell_setting           monoclinic
_symmetry_space_group_name_H-M   'P 21/c'
_symmetry_Int_Tables_number      14
_space_group_name_Hall           '-P 2ybc'
loop_
_symmetry_equiv_pos_site_id
_symmetry_equiv_pos_as_xyz
1 x,y,z
2 x,1/2-y,1/2+z
3 -x,-y,-z
4 -x,1/2+y,1/2-z
_cell_length_a                   7.321(2)
_cell_length_b                   9.682(3)
_cell_length_c                   22.817(3)
_cell_angle_alpha                90
_cell_angle_beta                 96.54(2)
_cell_angle_gamma                90
_cell_volume                     1606.79
loop_
_atom_site_label
_atom_site_type_symbol
_atom_site_fract_x
_atom_site_fract_y
_atom_site_fract_z
I1 I 0.34144(4) 0.41155(2) -0.096170(10)
Cu1 Cu 0.88551(7) 0.08434(4) 0.14709(2)
S1 S 0.40517(13) 0.15508(8) 0.13030(4)
O1 O 0.5548(4) 0.0596(3) 0.14827(12)
O2 O 0.9348(4) 0.0282(3) 0.22977(11)
O3 O 0.4571(4) 0.2996(2) 0.13827(12)
O4 O 0.8929(4) 0.2803(2) 0.16990(13)
O5 O 0.2417(4) 0.1209(3) 0.15911(12)
O6 O 0.1482(4) 0.1109(2) -0.12523(11)
N1 N 0.1485(4) -0.1149(3) -0.06065(14)
C1 C 0.1371(5) -0.2304(3) -0.02964(18)
C2 C 0.1897(5) -0.2350(3) 0.03078(17)
C3 C 0.2591(6) -0.1189(3) 0.06010(17)
C4 C 0.3422(5) 0.1344(3) 0.05364(15)
C5 C 0.3560(5) 0.2470(3) 0.01727(17)
C6 C 0.2980(5) 0.2403(3) -0.04399(16)
C7 C 0.2186(5) 0.1223(3) -0.06933(16)
C8 C 0.2724(5) 0.0060(3) 0.02887(15)
C9 C 0.2139(5) 0.0031(3) -0.03196(16)
H1 H 0.91240 0.08760 0.25220
H2 H 0.09270 -0.31020 -0.04900
H3 H 0.86620 -0.03380 0.23430
H4 H 0.17800 -0.31670 0.05140
H5 H 0.95520 0.33960 0.15630
H6 H 0.29720 -0.12260 0.10040
H7 H 0.81400 0.31770 0.18590
H8 H 0.40450 0.32910 0.03340
O5_2 O 1.2417(4) 0.1209(3) 0.15911(12)
I1B I 0.65856(4) -0.41155(2) 0.096170(10)
S1B S 0.59483(13) -0.15508(8) -0.13030(4)
O1B O 0.4452(4) -0.0596(3) -0.14827(12)
O3B O 0.5429(4) -0.2996(2) -0.13827(12)
O5B O 0.7583(4) -0.1209(3) -0.15911(12)
O6B O 0.8518(4) -0.1109(2) 0.12523(11)
N1B N 0.8515(4) 0.1149(3) 0.06065(14)
C1B C 0.8629(5) 0.2304(3) 0.02964(18)
C2B C 0.8103(5) 0.2350(3) -0.03078(17)
C3B C 0.7409(6) 0.1189(3) -0.06010(17)
C4B C 0.6578(5) -0.1344(3) -0.05364(15)
C5B C 0.6440(5) -0.2470(3) -0.01727(17)
C6B C 0.7020(5) -0.2403(3) 0.04399(16)
C7B C 0.7814(5) -0.1223(3) 0.06933(16)
C8B C 0.7276(5) -0.0060(3) -0.02887(15)
C9B C 0.7861(5) -0.0031(3) 0.03196(16)
H2B H 0.90730 0.31020 0.04900
H4B H 0.82200 0.31670 -0.05140
H6B H 0.70280 0.12260 -0.10040
H8B H 0.59550 -0.32910 -0.03340
Cu1B Cu 0.11449(7) -0.08434(4) -0.14709(2)
Cu1_2 Cu -0.11449(7) 0.08434(4) 0.14709(2)
Cu1B_2 Cu 1.11449(7) -0.08434(4) -0.14709(2)
O2B O 0.0652(4) -0.0282(3) -0.22977(11)
H1B H 0.08760 -0.08760 -0.25220
H3B H 0.13380 0.03380 -0.23430
O4B O 0.1071(4) -0.2803(2) -0.16990(13)
H5B H 0.04480 -0.33960 -0.15630
H7B H 0.18600 -0.31770 -0.18590
O5B_2 O -0.2417(4) -0.1209(3) -0.15911(12)
O7 O 0.8883(4) 0.2100(3) 0.31770(13)
H9 H 0.81620 0.26030 0.30080
H10 H 0.96350 0.26370 0.33390
O8 O 1.1320(4) 0.4534(3) 0.12729(14)
H11 H 1.14120 0.53060 0.14080
H12 H 1.23310 0.41880 0.13460
O9 O 0.6697(5) 0.3983(3) 0.25235(17)
H13 H 0.56370 0.38990 0.25890
H14 H 0.69750 0.47040 0.27640
O10 O 0.7048(5) -0.1894(3) 0.23890(13)
H15 H 0.73320 -0.25040 0.26220
H16 H 0.68270 -0.22340 0.20640
loop_
_geom_bond_atom_site_label_1
_geom_bond_atom_site_label_2
_geom_bond_site_symmetry_1
_geom_bond_site_symmetry_2
I1 C6 1_555 1_555
Cu1 O1 1_555 1_555
S1 O1 1_555 1_555
O2 Cu1 1_555 1_555
O3 S1 1_555 1_555
O4 Cu1 1_555 1_555
O5 S1 1_555 1_555
O6 C7 1_555 1_555
N1 C1 1_555 1_555
C1 C2 1_555 1_555
C2 C3 1_555 1_555
C3 C8 1_555 1_555
C4 S1 1_555 1_555
C5 C4 1_555 1_555
C6 C5 1_555 1_555
C7 C6 1_555 1_555
C8 C4 1_555 1_555
C9 N1 1_555 1_555
O7 H9 1_555 1_555
O8 H11 1_555 1_555
O9 H13 1_555 1_555
O10 H15 1_555 1_555
H1 O2 1_555 1_555
H2 C1 1_555 1_555
H3 O2 1_555 1_555
H4 C2 1_555 1_555
H5 O4 1_555 1_555
H6 C3 1_555 1_555
H7 O4 1_555 1_555
H8 C5 1_555 1_555
H10 O7 1_555 1_555
H12 O8 1_555 1_555
H14 O9 1_555 1_555
H16 O10 1_555 1_555
O5_2 Cu1 1_555 1_555
I1B C6B 1_555 1_555
S1B O1B 1_555 1_555
O1B Cu1B 1_555 1_555
O3B S1B 1_555 1_555
O5B S1B 1_555 1_555
O6B Cu1 1_555 1_555
N1B Cu1 1_555 1_555
C1B N1B 1_555 1_555
C2B C1B 1_555 1_555
C3B C2B 1_555 1_555
C4B S1B 1_555 1_555
C5B C4B 1_555 1_555
C6B C5B 1_555 1_555
C7B O6B 1_555 1_555
C8B C3B 1_555 1_555
C9B N1B 1_555 1_555
H2B C1B 1_555 1_555
H4B C2B 1_555 1_555
H6B C3B 1_555 1_555
H8B C5B 1_555 1_555
Cu1B O6 1_555 1_555
Cu1_2 O5 1_555 1_555
Cu1B_2 O5B 1_555 1_555
O2B Cu1B 1_555 1_555
H1B O2B 1_555 1_555
H3B O2B 1_555 1_555
O4B Cu1B 1_555 1_555
H5B O4B 1_555 1_555
H7B O4B 1_555 1_555
O5B_2 Cu1B 1_555 1_555
N1 Cu1B 1_555 1_555
C7 C9 1_555 1_555
C8 C9 1_555 1_555
C4B C8B 1_555 1_555
C6B C7B 1_555 1_555
C7B C9B 1_555 1_555
C8B C9B 1_555 1_555

#END
