
#######################################################################
#
#                 Cambridge Crystallographic Data Centre
#                                CCDC 
#
#######################################################################
#
# If this CIF has been generated from an entry in the Cambridge 
# Structural Database, then it will include bibliographic, chemical, 
# crystal, experimental, refinement or atomic coordinate data resulting 
# from the CCDC's data processing and validation procedures.
#
#######################################################################

data_IQEFEP
_symmetry_cell_setting           orthorhombic
_symmetry_space_group_name_H-M   'P 21 21 21'
_symmetry_Int_Tables_number      19
_space_group_name_Hall           'P 2ac 2ab'
loop_
_symmetry_equiv_pos_site_id
_symmetry_equiv_pos_as_xyz
1 x,y,z
2 1/2-x,-y,1/2+z
3 -x,1/2+y,1/2-z
4 1/2+x,1/2-y,-z
_cell_length_a                   9.272(4)
_cell_length_b                   11.154(2)
_cell_length_c                   24.981(10)
_cell_angle_alpha                90
_cell_angle_beta                 90
_cell_angle_gamma                90
_cell_volume                     2583.53
loop_
_atom_site_label
_atom_site_type_symbol
_atom_site_fract_x
_atom_site_fract_y
_atom_site_fract_z
Ag1 Ag -0.12002(17) 0.64854(8) 0.35957(3)
Ag2 Ag 0.11528(19) 1.12121(8) 0.36807(3)
N1 N 0.1111(14) 0.7027(7) 0.3790(3)
H1 H 0.1685 0.6548 0.3594
N2 N 0.0545(14) 0.9121(7) 0.3908(3)
H2 H -0.0092 0.9645 0.3770
N3 N 0.0599(16) 0.7393(7) 0.1009(3)
H3 H 0.1447 0.7055 0.1097
N4 N 0.1631(14) 0.9441(7) 0.1076(3)
H4 H 0.2239 0.9842 0.1292
N5 N -0.3327(17) 0.7152(12) 0.3325(5)
H5 H -0.3510 0.7850 0.3493
H6 H -0.3998 0.6622 0.3434
N6 N -0.3443(18) 0.6233(11) 0.1562(5)
H7 H -0.3918 0.5831 0.1304
H8 H -0.3732 0.7002 0.1536
C1 C 0.1560(16) 0.6874(10) 0.4348(4)
H9 H 0.2549 0.7107 0.4392
H10 H 0.1460 0.6053 0.4456
C2 C 0.065(2) 0.7740(10) 0.4697(3)
H11 H 0.0854 0.7650 0.5071
H12 H -0.0347 0.7552 0.4635
C3 C 0.088(2) 0.9022(11) 0.4497(4)
H13 H 0.0332 0.9596 0.4697
H14 H 0.1890 0.9189 0.4549
C4 C 0.1365(15) 0.8272(9) 0.3597(4)
H15 H 0.2366 0.8456 0.3650
C5 C 0.1085(17) 0.8342(8) 0.2992(3)
C6 C 0.2008(17) 0.7694(11) 0.2653(4)
H16 H 0.2776 0.7219 0.2799
C7 C 0.1805(18) 0.7735(10) 0.2095(4)
H17 H 0.2408 0.7275 0.1859
C8 C 0.0718(17) 0.8469(9) 0.1878(4)
C9 C -0.0180(16) 0.9134(10) 0.2214(4)
H18 H -0.0917 0.9639 0.2065
C10 C 0.0016(16) 0.9036(10) 0.2776(4)
H19 H -0.0611 0.9473 0.3012
C11 C 0.0556(13) 0.8593(8) 0.1264(4)
H20 H -0.0378 0.8927 0.1191
C12 C 0.056(2) 0.7515(11) 0.0407(4)
H21 H -0.0336 0.7884 0.0312
H22 H 0.0613 0.6746 0.0236
C13 C 0.176(2) 0.8338(11) 0.0211(4)
H23 H 0.1764 0.8405 -0.0172
H24 H 0.2664 0.7995 0.0322
C14 C 0.1611(19) 0.9560(10) 0.0481(3)
H25 H 0.2361 1.0094 0.0366
H26 H 0.0700 0.9891 0.0373
C15 C -0.352(3) 0.734(2) 0.2688(12)
H27 H -0.2694 0.7748 0.2540
H28 H -0.4392 0.7735 0.2581
C16 C -0.341(2) 0.609(3) 0.2563(10)
H29 H -0.4012 0.5687 0.2819
H30 H -0.2452 0.5779 0.2594
C17 C -0.396(3) 0.582(2) 0.2036(7)
H31 H -0.3983 0.4965 0.1995
H32 H -0.4951 0.6076 0.2041
N4B N -0.1631(14) 0.4441(7) 0.3924(3)
N3B N -0.0599(16) 1.2393(7) 0.3991(3)
N6B N 0.3443(18) 1.1233(11) 0.3438(5)
Ag2B Ag -0.11528(19) 0.62121(8) 0.13193(3)
Ag1B Ag 0.12002(17) 1.14854(8) 0.14043(3)
H4B H -0.2239 0.4842 0.3708
H3B H -0.1447 1.2055 0.3903
H7B H 0.3918 1.0831 0.3696
H8B H 0.3732 1.2002 0.3464
Cl1 Cl 0.4156(5) 0.4558(4) 0.38002(17)
O1 O 0.350(2) 0.5285(13) 0.3411(5)
O2 O 0.313(2) 0.3867(13) 0.4075(6)
O3 O 0.5176(13) 0.3785(9) 0.3529(5)
O4 O 0.4928(17) 0.5287(12) 0.4167(5)
Cl2 Cl -0.1499(6) 1.0123(3) -0.08205(13)
O5 O -0.212(2) 0.9864(14) -0.1313(5)
O6 O -0.0155(17) 1.0734(12) -0.0872(6)
O7 O -0.132(3) 0.9111(18) -0.0567(9)
O8 O -0.245(2) 1.090(2) -0.0575(8)
loop_
_geom_bond_atom_site_label_1
_geom_bond_atom_site_label_2
_geom_bond_site_symmetry_1
_geom_bond_site_symmetry_2
Ag1 N1 1_555 1_555
Ag2 N2 1_555 1_555
N1 H1 1_555 1_555
N2 H2 1_555 1_555
N3 H3 1_555 1_555
N4 H4 1_555 1_555
N5 Ag1 1_555 1_555
H5 N5 1_555 1_555
H6 N5 1_555 1_555
N6 H7 1_555 1_555
H8 N6 1_555 1_555
C1 N1 1_555 1_555
H9 C1 1_555 1_555
H10 C1 1_555 1_555
C2 C1 1_555 1_555
H11 C2 1_555 1_555
H12 C2 1_555 1_555
C3 N2 1_555 1_555
H13 C3 1_555 1_555
H14 C3 1_555 1_555
C4 N1 1_555 1_555
H15 C4 1_555 1_555
C5 C4 1_555 1_555
C6 C5 1_555 1_555
H16 C6 1_555 1_555
C7 C6 1_555 1_555
H17 C7 1_555 1_555
C8 C7 1_555 1_555
C9 C8 1_555 1_555
H18 C9 1_555 1_555
C10 C5 1_555 1_555
H19 C10 1_555 1_555
C11 N3 1_555 1_555
H20 C11 1_555 1_555
C12 N3 1_555 1_555
H21 C12 1_555 1_555
H22 C12 1_555 1_555
C13 C12 1_555 1_555
H23 C13 1_555 1_555
H24 C13 1_555 1_555
C14 N4 1_555 1_555
H25 C14 1_555 1_555
H26 C14 1_555 1_555
C15 N5 1_555 1_555
H27 C15 1_555 1_555
H28 C15 1_555 1_555
C16 C15 1_555 1_555
H29 C16 1_555 1_555
H30 C16 1_555 1_555
C17 N6 1_555 1_555
H31 C17 1_555 1_555
H32 C17 1_555 1_555
Cl1 O1 1_555 1_555
O2 Cl1 1_555 1_555
O3 Cl1 1_555 1_555
O4 Cl1 1_555 1_555
Cl2 O5 1_555 1_555
O6 Cl2 1_555 1_555
O7 Cl2 1_555 1_555
O8 Cl2 1_555 1_555
N4B Ag1 1_555 1_555
N3B Ag2 1_555 1_555
N6B Ag2 1_555 1_555
Ag2B N3 1_555 1_555
Ag1B N4 1_555 1_555
H4B N4B 1_555 1_555
H3B N3B 1_555 1_555
H7B N6B 1_555 1_555
H8B N6B 1_555 1_555
N2 C4 1_555 1_555
N4 C11 1_555 1_555
N6 Ag2B 1_555 1_555
C2 C3 1_555 1_555
C8 C11 1_555 1_555
C9 C10 1_555 1_555
C13 C14 1_555 1_555
C16 C17 1_555 1_555

#END
