
#######################################################################
#
#                 Cambridge Crystallographic Data Centre
#                                CCDC 
#
#######################################################################
#
# If this CIF has been generated from an entry in the Cambridge 
# Structural Database, then it will include bibliographic, chemical, 
# crystal, experimental, refinement or atomic coordinate data resulting 
# from the CCDC's data processing and validation procedures.
#
#######################################################################

data_IQEHAO
_symmetry_cell_setting           monoclinic
_symmetry_space_group_name_H-M   'P 21/c'
_symmetry_Int_Tables_number      14
_space_group_name_Hall           '-P 2ybc'
loop_
_symmetry_equiv_pos_site_id
_symmetry_equiv_pos_as_xyz
1 x,y,z
2 -x,1/2+y,1/2-z
3 -x,-y,-z
4 x,1/2-y,1/2+z
_cell_length_a                   13.8265(8)
_cell_length_b                   14.2642(8)
_cell_length_c                   25.1428(14)
_cell_angle_alpha                90
_cell_angle_beta                 92.711(2)
_cell_angle_gamma                90
_cell_volume                     4953.21
loop_
_atom_site_label
_atom_site_type_symbol
_atom_site_fract_x
_atom_site_fract_y
_atom_site_fract_z
K1 K 0.49419(8) -0.04274(7) 0.84872(4)
K2 K 0.01350(8) 0.11739(7) 0.81917(4)
C1 C 0.4159(3) 0.1465(3) 0.93394(18)
C2 C 0.3141(3) 0.2782(3) 0.93644(18)
C3 C 0.2824(3) 0.2030(3) 0.97824(17)
C4 C 0.1507(3) 0.2392(3) 0.91914(18)
C5 C 0.3548(3) 0.0453(3) 1.00560(18)
H1 H 0.3346 0.0612 1.0418
H2 H 0.4223 0.0222 1.0090
C6 C 0.1191(3) 0.1216(3) 0.98816(18)
H3 H 0.0519 0.1440 0.9812
H4 H 0.1349 0.1283 1.0268
C7 C 0.1939(3) -0.0428(3) 0.99697(17)
C8 C 0.3289(3) -0.1021(3) 0.95511(17)
C9 C 0.0618(3) -0.0176(3) 0.93684(17)
C10 C 0.1657(3) -0.1377(3) 0.96788(18)
C11 C 0.2640(3) -0.2464(3) 0.91091(18)
H5 H 0.3317 -0.2691 0.9145
H6 H 0.2218 -0.2966 0.9240
C12 C 0.0316(3) -0.1740(3) 0.89667(18)
H7 H -0.0363 -0.1518 0.8932
H8 H 0.0313 -0.2363 0.9140
C13 C 0.1447(3) -0.2485(3) 0.83047(18)
C14 C 0.3078(3) -0.2098(3) 0.81915(18)
C15 C 0.0389(3) -0.1283(3) 0.80175(18)
C16 C 0.1600(3) -0.2255(3) 0.77000(18)
C17 C 0.3124(3) -0.1846(3) 0.72185(18)
H9 H 0.2846 -0.2258 0.6934
H10 H 0.3810 -0.2027 0.7286
C18 C 0.0733(3) -0.1094(3) 0.70661(18)
H11 H 0.0064 -0.0843 0.7047
H12 H 0.0767 -0.1598 0.6797
C19 C 0.2315(3) -0.0493(3) 0.66937(18)
C20 C 0.3816(3) -0.0256(3) 0.71417(17)
C21 C 0.1153(3) 0.0572(3) 0.69671(17)
C22 C 0.2679(3) 0.0546(3) 0.66012(18)
C23 C 0.4234(3) 0.1390(3) 0.69356(18)
H13 H 0.4910 0.1162 0.6977
H14 H 0.4166 0.1733 0.6594
C24 C 0.1886(3) 0.2122(3) 0.68053(18)
H15 H 0.2209 0.2359 0.6489
H16 H 0.1205 0.2338 0.6778
C25 C 0.3365(3) 0.2794(3) 0.73281(18)
C26 C 0.4524(3) 0.1969(3) 0.78545(18)
C27 C 0.1856(3) 0.2755(3) 0.77225(18)
C28 C 0.3458(3) 0.3242(3) 0.79062(18)
C29 C 0.4516(3) 0.2770(3) 0.87266(18)
H17 H 0.4541 0.3445 0.8819
H18 H 0.5181 0.2516 0.8779
C30 C 0.2186(3) 0.3562(3) 0.85827(19)
H19 H 0.1505 0.3766 0.8523
H20 H 0.2582 0.4129 0.8656
N1 N 0.3890(3) 0.2294(3) 0.90898(15)
N2 N 0.2253(3) 0.2957(3) 0.90501(15)
N3 N 0.3523(3) 0.1298(3) 0.97346(15)
N4 N 0.1838(3) 0.1803(3) 0.95938(15)
N5 N 0.2933(3) -0.0293(3) 0.98437(15)
N6 N 0.1241(3) 0.0229(3) 0.97387(15)
N7 N 0.2545(3) -0.1640(3) 0.94418(15)
N8 N 0.0866(3) -0.1098(3) 0.93067(15)
N9 N 0.2390(3) -0.2297(3) 0.85524(16)
N10 N 0.0683(3) -0.1843(3) 0.84363(15)
N11 N 0.2609(3) -0.2001(3) 0.76986(16)
N12 N 0.0933(3) -0.1493(3) 0.75905(15)
N13 N 0.3083(3) -0.0879(3) 0.70336(16)
N14 N 0.1395(3) -0.0350(3) 0.69332(15)
N15 N 0.3584(3) 0.0584(3) 0.69137(15)
N16 N 0.1898(3) 0.1103(3) 0.67949(15)
N17 N 0.4054(3) 0.2031(3) 0.73657(15)
N18 N 0.2357(3) 0.2528(3) 0.72790(15)
N19 N 0.4207(3) 0.2674(3) 0.81691(15)
N20 N 0.2498(3) 0.3132(3) 0.81022(16)
O1 O 0.4847(2) 0.0983(2) 0.92343(13)
O2 O 0.4123(2) -0.1112(2) 0.94269(13)
O3 O 0.3943(2) -0.2029(2) 0.82891(14)
O4 O 0.4571(2) -0.0440(2) 0.73965(13)
O5 O 0.5160(3) 0.1403(2) 0.79799(14)
O6 O 0.0677(2) 0.2415(2) 0.90015(13)
O7 O -0.0077(2) 0.0214(2) 0.91388(13)
O8 O -0.0261(2) -0.0705(2) 0.80150(13)
O9 O 0.0381(2) 0.0874(2) 0.71202(13)
O10 O 0.0992(2) 0.2667(2) 0.77668(13)
O11 O 0.3534(3) 0.3585(3) 0.95947(16)
H21 H 0.3989 0.3438 0.9812
O12 O 0.2837(2) 0.2330(2) 1.03077(13)
H22 H 0.3391 0.2533 1.0398
O13 O 0.1898(2) -0.0458(2) 1.05215(13)
H23 H 0.1322 -0.0537 1.0604
O14 O 0.1311(3) -0.2067(2) 1.00025(14)
H24 H 0.1723 -0.2180 1.0250
O15 O 0.1217(3) -0.3409(2) 0.84113(14)
H25 H 0.0669 -0.3535 0.8271
O16 O 0.1381(3) -0.2990(2) 0.73534(13)
O17 O 0.2211(3) -0.1045(3) 0.62415(14)
H26 H 0.1767 -0.0827 0.6038
O18 O 0.2866(3) 0.0770(3) 0.60805(13)
H27 H 0.2349 0.0751 0.5892
O19 O 0.3605(2) 0.3390(2) 0.69173(13)
O20 O 0.3677(2) 0.4188(2) 0.79226(14)
H28 H 0.4233 0.4273 0.7811
O22 O 0.6718(3) 0.0859(4) 0.86400(18)
N21 N 0.2454(3) 0.0403(3) 0.83295(14)
O31 O 0.3183(5) 0.0050(6) 0.8462(3)
O32 O 0.2339(6) 0.0834(6) 0.7947(3)
O33 O 0.1742(6) 0.0211(6) 0.8553(3)
K1A K 0.50581(8) 0.45726(7) 0.65128(4)
K2A K -0.01350(8) -0.38261(7) 0.68083(4)
O16A O -0.1381(3) 0.2010(2) 0.76466(13)
O19A O 0.6395(2) -0.1610(2) 0.80827(13)
Cl1 Cl 0.11142(11) 0.13986(11) 0.54259(7)
O21 O 0.2918(3) -0.2466(3) 0.56326(18)
H29 H 0.3139 -0.2915 0.5824
H30 H 0.3388 -0.2187 0.5495
O23 O 0.4755(3) 0.2818(3) 1.06566(19)
H31 H 0.5028 0.2284 1.0668
H32 H 0.5036 0.3154 1.0432
O24 O 0.2060(4) 0.4252(4) 0.6507(2)
O25 O 0.4162(4) -0.1327(4) 0.5092(2)
O26 O 0.0547(4) -0.1082(4) 0.5710(2)
O27 O 0.2851(7) 0.5248(4) 0.9504(4)
O28 O 0.4730(5) -0.0014(4) 0.5855(2)
O29 O 0.0999(5) -0.0433(5) 0.4680(3)
O30 O 0.2830(6) -0.4172(5) 0.7488(3)
H33 H 0.3081 -0.4665 0.7624
H34 H 0.2955 -0.4156 0.7160
loop_
_geom_bond_atom_site_label_1
_geom_bond_atom_site_label_2
_geom_bond_site_symmetry_1
_geom_bond_site_symmetry_2
K1 O1 1_555 1_555
K2 O6 1_555 1_555
C1 N1 1_555 1_555
C2 C3 1_555 1_555
C3 N3 1_555 1_555
C4 N2 1_555 1_555
C5 H1 1_555 1_555
H2 C5 1_555 1_555
C6 H3 1_555 1_555
H4 C6 1_555 1_555
C7 C10 1_555 1_555
C8 N5 1_555 1_555
C9 N6 1_555 1_555
C10 N7 1_555 1_555
C11 H5 1_555 1_555
H6 C11 1_555 1_555
C12 H7 1_555 1_555
H8 C12 1_555 1_555
C13 C16 1_555 1_555
C14 N9 1_555 1_555
C15 N10 1_555 1_555
C16 N11 1_555 1_555
C17 H9 1_555 1_555
H10 C17 1_555 1_555
C18 H11 1_555 1_555
H12 C18 1_555 1_555
C19 C22 1_555 1_555
C20 N13 1_555 1_555
C21 N14 1_555 1_555
C22 N15 1_555 1_555
C23 H13 1_555 1_555
H14 C23 1_555 1_555
C24 H15 1_555 1_555
H16 C24 1_555 1_555
C25 C28 1_555 1_555
C26 N17 1_555 1_555
C27 N18 1_555 1_555
C28 N19 1_555 1_555
C29 H17 1_555 1_555
H18 C29 1_555 1_555
C30 H19 1_555 1_555
H20 C30 1_555 1_555
N1 C2 1_555 1_555
N2 C2 1_555 1_555
N3 C1 1_555 1_555
N4 C3 1_555 1_555
N5 C5 1_555 1_555
N6 C6 1_555 1_555
N7 C8 1_555 1_555
N8 C9 1_555 1_555
N9 C11 1_555 1_555
N10 C12 1_555 1_555
N11 C14 1_555 1_555
N12 C15 1_555 1_555
N13 C17 1_555 1_555
N14 C18 1_555 1_555
N15 C20 1_555 1_555
N16 C21 1_555 1_555
N17 C23 1_555 1_555
N18 C24 1_555 1_555
N19 C26 1_555 1_555
N20 C27 1_555 1_555
O1 C1 1_555 1_555
O2 K1 1_555 1_555
O3 K1 1_555 1_555
O4 K1 1_555 1_555
O5 K1 1_555 1_555
O6 C4 1_555 1_555
O7 K2 1_555 1_555
O8 K2 1_555 1_555
O9 K2 1_555 1_555
O10 K2 1_555 1_555
O11 C2 1_555 1_555
H21 O11 1_555 1_555
O12 C3 1_555 1_555
H22 O12 1_555 1_555
O13 C7 1_555 1_555
H23 O13 1_555 1_555
O14 C10 1_555 1_555
H24 O14 1_555 1_555
O15 C13 1_555 1_555
H25 O15 1_555 1_555
O16 C16 1_555 1_555
O17 C19 1_555 1_555
H26 O17 1_555 1_555
O18 C22 1_555 1_555
H27 O18 1_555 1_555
O19 C25 1_555 1_555
O20 C28 1_555 1_555
H28 O20 1_555 1_555
O21 H29 1_555 1_555
H30 O21 1_555 1_555
O22 K1 1_555 1_555
O23 H31 1_555 1_555
H32 O23 1_555 1_555
O30 H33 1_555 1_555
H34 O30 1_555 1_555
N21 O31 1_555 1_555
O31 K1 1_555 1_555
O32 N21 1_555 1_555
O33 K2 1_555 1_555
K1A O19 1_555 1_555
K2A O16 1_555 1_555
O16A K2 1_555 1_555
O19A K1 1_555 1_555
C4 N4 1_555 1_555
C5 N3 1_555 1_555
C6 N4 1_555 1_555
C7 N5 1_555 1_555
C7 N6 1_555 1_555
C8 O2 1_555 1_555
C9 O7 1_555 1_555
C10 N8 1_555 1_555
C11 N7 1_555 1_555
C12 N8 1_555 1_555
C13 N9 1_555 1_555
C13 N10 1_555 1_555
C14 O3 1_555 1_555
C15 O8 1_555 1_555
C16 N12 1_555 1_555
C17 N11 1_555 1_555
C18 N12 1_555 1_555
C19 N13 1_555 1_555
C19 N14 1_555 1_555
C20 O4 1_555 1_555
C21 O9 1_555 1_555
C22 N16 1_555 1_555
C23 N15 1_555 1_555
C24 N16 1_555 1_555
C25 N17 1_555 1_555
C25 N18 1_555 1_555
C26 O5 1_555 1_555
C27 O10 1_555 1_555
C28 N20 1_555 1_555
C29 N1 1_555 1_555
C29 N19 1_555 1_555
C30 N2 1_555 1_555
C30 N20 1_555 1_555
N21 O33 1_555 1_555

#END
