
#######################################################################
#
#                 Cambridge Crystallographic Data Centre
#                                CCDC 
#
#######################################################################
#
# If this CIF has been generated from an entry in the Cambridge 
# Structural Database, then it will include bibliographic, chemical, 
# crystal, experimental, refinement or atomic coordinate data resulting 
# from the CCDC's data processing and validation procedures.
#
#######################################################################

data_IQEJUJ
_symmetry_cell_setting           monoclinic
_symmetry_space_group_name_H-M   'P 21/n'
_symmetry_Int_Tables_number      14
_space_group_name_Hall           '-P 2yn'
loop_
_symmetry_equiv_pos_site_id
_symmetry_equiv_pos_as_xyz
1 x,y,z
2 1/2+x,1/2-y,1/2+z
3 -x,-y,-z
4 1/2-x,1/2+y,1/2-z
_cell_length_a                   10.4574(9)
_cell_length_b                   11.4294(8)
_cell_length_c                   14.5785(11)
_cell_angle_alpha                90
_cell_angle_beta                 104.217(7)
_cell_angle_gamma                90
_cell_volume                     1689.08
loop_
_atom_site_label
_atom_site_type_symbol
_atom_site_fract_x
_atom_site_fract_y
_atom_site_fract_z
Cu1 Cu 0.0000 0.5000 0.0000
N1 N -0.03727(15) 0.56182(13) 0.30617(10)
N2 N -0.13799(14) 0.49261(12) 0.26739(10)
N3 N -0.13892(13) 0.45714(13) 0.18161(10)
N4 N -0.03383(13) 0.50486(11) 0.16101(10)
C1 C 0.02595(17) 0.56796(15) 0.23774(12)
N5 N 0.25153(13) 0.78927(13) 0.01988(10)
N6 N 0.15861(13) 0.82084(12) 0.06322(9)
N7 N 0.07180(13) 0.73961(12) 0.06678(10)
N8 N 0.10908(13) 0.64741(12) 0.02404(9)
C2 C 0.21831(16) 0.67971(15) -0.00275(12)
N9 N -0.19416(14) 0.22858(13) 0.62473(10)
N10 N -0.16473(13) 0.19094(12) 0.54574(9)
N11 N -0.24718(13) 0.11348(12) 0.49803(10)
N12 N -0.33651(13) 0.09804(11) 0.54781(9)
C3 C -0.30240(17) 0.16815(15) 0.62403(12)
C4 C -0.24088(17) 0.45667(17) 0.31512(13)
C5 C -0.20756(16) 0.34129(15) 0.36852(12)
C6 C 0.14777(18) 0.94046(15) 0.09775(12)
C7 C 0.07222(17) 1.01775(14) 0.01788(13)
C8 C -0.05523(16) 0.23904(15) 0.50987(12)
C9 C -0.09409(16) 0.35348(15) 0.45694(12)
H1 H 0.103(2) 0.6103(17) 0.2453(14)
H2 H 0.2612(19) 0.6303(18) -0.0293(14)
H3 H -0.350(2) 0.1745(18) 0.6724(15)
H4 H -0.246(2) 0.5227(18) 0.3572(15)
H5 H -0.3154(19) 0.4500(18) 0.2665(14)
H6 H -0.2891(19) 0.3161(17) 0.3865(13)
H7 H -0.1875(19) 0.2814(18) 0.3261(14)
H8 H 0.1063(18) 0.9323(16) 0.1467(14)
H9 H 0.239(2) 0.9685(19) 0.1236(15)
H10 H 0.1185(19) 1.0160(15) -0.0345(14)
H11 H 0.0822(18) 1.0972(17) 0.0458(13)
H12 H 0.0136(19) 0.2504(17) 0.5622(14)
H13 H -0.0330(18) 0.1802(17) 0.4689(14)
H14 H -0.014(2) 0.3806(18) 0.4396(14)
H15 H -0.1168(18) 0.4143(17) 0.5006(13)
C7B C -0.07222(17) 0.98225(14) -0.01788(13)
C6B C -0.14777(18) 1.05954(15) -0.09775(12)
N6B N -0.15861(13) 1.17916(12) -0.06322(9)
N5B N -0.25153(13) 1.21073(13) -0.01988(10)
C2B C -0.21831(16) 1.32029(15) 0.00275(12)
N8B N -0.10908(13) 1.35259(12) -0.02404(9)
N7B N -0.07180(13) 1.26039(12) -0.06678(10)
H2B H -0.2612(19) 1.3697(18) 0.0293(14)
H8B H -0.1063(18) 1.0677(16) -0.1467(14)
H9B H -0.239(2) 1.0315(19) -0.1236(15)
H10B H -0.1185(19) 0.9840(15) 0.0345(14)
H11B H -0.0822(18) 0.9028(17) -0.0458(13)
N1B N 0.03727(15) 0.43818(13) -0.30617(10)
N2B N 0.13799(14) 0.50739(12) -0.26739(10)
N3B N 0.13892(13) 0.54286(13) -0.18161(10)
N4B N 0.03383(13) 0.49514(11) -0.16101(10)
C1B C -0.02595(17) 0.43204(15) -0.23774(12)
N9B N 0.19416(14) 0.77142(13) -0.62473(10)
N10B N 0.16473(13) 0.80906(12) -0.54574(9)
N11B N 0.24718(13) 0.88652(12) -0.49803(10)
N12B N 0.33651(13) 0.90196(11) -0.54781(9)
C3B C 0.30240(17) 0.83185(15) -0.62403(12)
C4B C 0.24088(17) 0.54333(17) -0.31512(13)
C5B C 0.20756(16) 0.65871(15) -0.36852(12)
C8B C 0.05523(16) 0.76096(15) -0.50987(12)
C9B C 0.09409(16) 0.64652(15) -0.45694(12)
H1B H -0.103(2) 0.3897(17) -0.2453(14)
H3B H 0.350(2) 0.8255(18) -0.6724(15)
H4B H 0.246(2) 0.4773(18) -0.3572(15)
H5B H 0.3154(19) 0.5500(18) -0.2665(14)
H6B H 0.2891(19) 0.6839(17) -0.3865(13)
H7B H 0.1875(19) 0.7186(18) -0.3261(14)
H12B H -0.0136(19) 0.7496(17) -0.5622(14)
H13B H 0.0330(18) 0.8198(17) -0.4689(14)
H14B H 0.014(2) 0.6194(18) -0.4396(14)
H15B H 0.1168(18) 0.5857(17) -0.5006(13)
N8B_2 N -0.10908(13) 0.35259(12) -0.02404(9)
N12A N 0.16349(13) 0.40196(11) 0.04781(9)
N12C N -0.16349(13) 0.59804(11) -0.04781(9)
Cu1A Cu -0.5000 0.0000 0.5000
Cu1_2 Cu 0.0000 1.5000 0.0000
Cu1A_2 Cu 0.5000 1.0000 -0.5000
B1 B 0.55448(19) 0.35025(19) -0.22892(14)
F1 F 0.47597(11) 0.36715(11) -0.31977(8)
F2 F 0.55655(11) 0.23124(10) -0.20683(8)
F3 F 0.68247(11) 0.38683(11) -0.22550(8)
F4 F 0.50502(13) 0.41437(11) -0.16409(8)
loop_
_geom_bond_atom_site_label_1
_geom_bond_atom_site_label_2
_geom_bond_site_symmetry_1
_geom_bond_site_symmetry_2
Cu1 N4 1_555 1_555
N1 N2 1_555 1_555
N2 N3 1_555 1_555
N3 N4 1_555 1_555
N4 C1 1_555 1_555
C1 N1 1_555 1_555
N5 N6 1_555 1_555
N6 N7 1_555 1_555
N7 N8 1_555 1_555
N8 Cu1 1_555 1_555
C2 N5 1_555 1_555
N9 N10 1_555 1_555
N10 N11 1_555 1_555
N11 N12 1_555 1_555
N12 C3 1_555 1_555
C3 N9 1_555 1_555
C4 N2 1_555 1_555
C5 C4 1_555 1_555
C6 N6 1_555 1_555
C7 C6 1_555 1_555
C8 N10 1_555 1_555
C9 C5 1_555 1_555
B1 F1 1_555 1_555
F2 B1 1_555 1_555
F3 B1 1_555 1_555
F4 B1 1_555 1_555
H1 C1 1_555 1_555
H2 C2 1_555 1_555
H3 C3 1_555 1_555
H4 C4 1_555 1_555
H5 C4 1_555 1_555
H6 C5 1_555 1_555
H7 C5 1_555 1_555
H8 C6 1_555 1_555
H9 C6 1_555 1_555
H10 C7 1_555 1_555
H11 C7 1_555 1_555
H12 C8 1_555 1_555
H13 C8 1_555 1_555
H14 C9 1_555 1_555
H15 C9 1_555 1_555
C7B C7 1_555 1_555
C6B C7B 1_555 1_555
N6B C6B 1_555 1_555
N5B N6B 1_555 1_555
C2B N5B 1_555 1_555
N8B C2B 1_555 1_555
N7B N6B 1_555 1_555
H2B C2B 1_555 1_555
H8B C6B 1_555 1_555
H9B C6B 1_555 1_555
H10B C7B 1_555 1_555
H11B C7B 1_555 1_555
N1B N2B 1_555 1_555
N2B N3B 1_555 1_555
N3B N4B 1_555 1_555
N4B Cu1 1_555 1_555
C1B N1B 1_555 1_555
N9B N10B 1_555 1_555
N10B N11B 1_555 1_555
N11B N12B 1_555 1_555
N12B C3B 1_555 1_555
C3B N9B 1_555 1_555
C4B N2B 1_555 1_555
C5B C4B 1_555 1_555
C8B N10B 1_555 1_555
C9B C5B 1_555 1_555
H1B C1B 1_555 1_555
H3B C3B 1_555 1_555
H4B C4B 1_555 1_555
H5B C4B 1_555 1_555
H6B C5B 1_555 1_555
H7B C5B 1_555 1_555
H12B C8B 1_555 1_555
H13B C8B 1_555 1_555
H14B C9B 1_555 1_555
H15B C9B 1_555 1_555
N8B_2 Cu1 1_555 1_555
N12A Cu1 1_555 1_555
N12C Cu1 1_555 1_555
Cu1A N12 1_555 1_555
Cu1_2 N8B 1_555 1_555
Cu1A_2 N12B 1_555 1_555
N8 C2 1_555 1_555
C8 C9 1_555 1_555
N8B N7B 1_555 1_555
N4B C1B 1_555 1_555
C8B C9B 1_555 1_555

#END
