
#######################################################################
#
#                 Cambridge Crystallographic Data Centre
#                                CCDC 
#
#######################################################################
#
# If this CIF has been generated from an entry in the Cambridge 
# Structural Database, then it will include bibliographic, chemical, 
# crystal, experimental, refinement or atomic coordinate data resulting 
# from the CCDC's data processing and validation procedures.
#
#######################################################################

data_IQEJEU
_symmetry_cell_setting           monoclinic
_symmetry_space_group_name_H-M   'C 2/c'
_symmetry_Int_Tables_number      15
_space_group_name_Hall           '-C 2yn'
loop_
_symmetry_equiv_pos_site_id
_symmetry_equiv_pos_as_xyz
1 x,y,z
2 -x,y,1/2-z
3 1/2+x,1/2+y,z
4 1/2-x,1/2+y,1/2-z
5 -x,-y,-z
6 x,-y,1/2+z
7 1/2-x,1/2-y,-z
8 1/2+x,1/2-y,1/2+z
_cell_length_a                   21.332(1)
_cell_length_b                   8.884(3)
_cell_length_c                   26.584(6)
_cell_angle_alpha                90
_cell_angle_beta                 103.110(4)
_cell_angle_gamma                90
_cell_volume                     4906.72
loop_
_atom_site_label
_atom_site_type_symbol
_atom_site_fract_x
_atom_site_fract_y
_atom_site_fract_z
Cd1 Cd -0.565429(14) 0.79030(4) 1.386218(13)
C1 C -0.6082(3) 0.5531(6) 1.31858(19)
C2 C -0.61652(19) 0.4001(5) 1.29487(16)
C3 C -0.6767(2) 0.3430(5) 1.2764(2)
H1 H -0.7125 0.4012 1.2778
C4 C -0.6852(2) 0.1997(5) 1.2558(2)
H2 H -0.7267 0.1632 1.2432
C5 C -0.6334(2) 0.1104(5) 1.25342(18)
C6 C -0.5735(2) 0.1655(6) 1.2737(2)
H3 H -0.5377 0.1054 1.2739
C7 C -0.5648(3) 0.3077(6) 1.2939(2)
H4 H -0.5233 0.3427 1.3073
C8 C -0.6397(2) -0.0450(5) 1.2306(2)
H5 H -0.6847 -0.0741 1.2230
H6 H -0.6163 -0.1151 1.2561
C9 C -0.64693(19) -0.0093(4) 1.13639(19)
C10 C -0.7097(2) 0.0492(5) 1.1285(2)
H7 H -0.7288 0.0607 1.1565
C11 C -0.7430(3) 0.0894(6) 1.0801(3)
H8 H -0.7838 0.1309 1.0760
C12 C -0.7182(3) 0.0704(7) 1.0381(3)
H9 H -0.7422 0.0941 1.0053
C13 C -0.6558(3) 0.0147(5) 1.0449(2)
H10 H -0.6383 0.0020 1.0161
C14 C -0.61925(19) -0.0221(4) 1.09285(18)
C15 C -0.5523(2) -0.0759(5) 1.0982(2)
C16 C -0.9274(2) 0.8150(5) 1.5005(2)
H11 H -0.9336 0.7158 1.4893
C17 C -0.9175(2) 1.0101(5) 1.5467(2)
H12 H -0.9152 1.0736 1.5749
C18 C -0.9134(2) 1.0535(6) 1.4996(2)
H13 H -0.9075 1.1514 1.4892
C19 C -0.9188(3) 0.9230(7) 1.4154(2)
H14 H -0.9574 0.9706 1.3953
H15 H -0.9189 0.8187 1.4046
C20 C -0.8552(3) 1.0083(8) 1.4043(2)
H16 H -0.8556 1.1133 1.4142
H17 H -0.8165 0.9623 1.4249
C21 C -0.8548(3) 0.9972(8) 1.3506(3)
H18 H -0.8966 1.0262 1.3299
H19 H -0.8466 0.8939 1.3422
C22 C -0.8042(3) 1.0971(6) 1.3384(3)
H20 H -0.8071 1.0920 1.3015
H21 H -0.8142 1.1998 1.3463
C23 C -0.7025(2) 0.9469(5) 1.3577(2)
H22 H -0.7186 0.8652 1.3369
N1 N -0.64278(17) 0.9582(4) 1.38352(15)
C24 C -0.6970(3) 1.1591(6) 1.3974(2)
H23 H -0.7072 1.2518 1.4097
N2 N -0.92544(16) 0.8578(4) 1.54705(16)
N3 N -0.91939(18) 0.9297(5) 1.47001(17)
N4 N -0.73779(19) 1.0668(4) 1.36465(17)
C25 C -0.6396(3) 1.0919(6) 1.4086(2)
H24 H -0.6028 1.1310 1.4304
O1 O -0.5311(2) -0.0926(5) 1.05832(18)
O2 O -0.51740(15) -0.1078(4) 1.14084(14)
O3 O -0.65401(17) 0.6300(4) 1.32255(15)
O4 O -0.54970(17) 0.5952(4) 1.33621(16)
N5 N -0.61579(19) -0.0573(4) 1.18374(17)
H27 H -0.579(2) -0.080(5) 1.187(2)
Cd1F Cd -0.934571(14) 0.70970(4) 1.613782(13)
Cd1A Cd -0.434571(14) -0.20970(4) 1.113782(13)
Cd1G Cd -1.065429(14) 1.70970(4) 1.886218(13)
C1F C -0.8918(3) 0.9469(6) 1.68142(19)
C2F C -0.88348(19) 1.0999(5) 1.70513(16)
C3F C -0.8233(2) 1.1570(5) 1.7236(2)
H1F H -0.7875 1.0988 1.7222
C4F C -0.8148(2) 1.3003(5) 1.7442(2)
H2F H -0.7733 1.3368 1.7568
C5F C -0.8666(2) 1.3896(5) 1.74658(18)
C6F C -0.9265(2) 1.3345(6) 1.7263(2)
H3F H -0.9623 1.3946 1.7261
C7F C -0.9352(3) 1.1923(6) 1.7061(2)
H4F H -0.9767 1.1573 1.6927
C8F C -0.8603(2) 1.5450(5) 1.7694(2)
H5F H -0.8153 1.5741 1.7770
H6F H -0.8837 1.6151 1.7439
C9F C -0.85307(19) 1.5093(4) 1.86361(19)
C10F C -0.7903(2) 1.4508(5) 1.8715(2)
H7F H -0.7712 1.4393 1.8435
C11F C -0.7570(3) 1.4106(6) 1.9199(3)
H8F H -0.7162 1.3691 1.9240
C12F C -0.7818(3) 1.4296(7) 1.9619(3)
H9F H -0.7578 1.4059 1.9947
C13F C -0.8442(3) 1.4853(5) 1.9551(2)
H10F H -0.8617 1.4980 1.9839
C14F C -0.88075(19) 1.5221(4) 1.90715(18)
C15F C -0.9477(2) 1.5759(5) 1.9018(2)
C16F C -0.5726(2) 0.6850(5) 1.4995(2)
H11F H -0.5664 0.7842 1.5107
C17F C -0.5825(2) 0.4899(5) 1.4533(2)
H12F H -0.5848 0.4264 1.4251
C18F C -0.5866(2) 0.4465(6) 1.5004(2)
H13F H -0.5925 0.3486 1.5108
C19F C -0.5812(3) 0.5770(7) 1.5846(2)
H14F H -0.5426 0.5294 1.6047
H15F H -0.5811 0.6813 1.5954
C20F C -0.6448(3) 0.4917(8) 1.5957(2)
H16F H -0.6444 0.3867 1.5858
H17F H -0.6835 0.5377 1.5751
C21F C -0.6452(3) 0.5028(8) 1.6494(3)
H18F H -0.6034 0.4738 1.6701
H19F H -0.6534 0.6061 1.6578
C22F C -0.6958(3) 0.4029(6) 1.6616(3)
H20F H -0.6929 0.4080 1.6985
H21F H -0.6858 0.3002 1.6537
C23F C -0.7975(2) 0.5531(5) 1.6423(2)
H22F H -0.7814 0.6348 1.6631
N1F N -0.85722(17) 0.5418(4) 1.61648(15)
C24F C -0.8030(3) 0.3409(6) 1.6026(2)
H23F H -0.7928 0.2482 1.5903
N2F N -0.57456(16) 0.6422(4) 1.45295(16)
N3F N -0.58061(18) 0.5703(5) 1.52999(17)
N4F N -0.76221(19) 0.4332(4) 1.63535(17)
C25F C -0.8604(3) 0.4081(6) 1.5914(2)
H24F H -0.8972 0.3690 1.5696
O1F O -0.9689(2) 1.5926(5) 1.94168(18)
O2A O -0.48260(15) 0.8922(4) 1.35916(14)
O2G O -1.01740(15) 0.6078(4) 1.64084(14)
O2F O -0.98260(15) 1.6078(4) 1.85916(14)
O3F O -0.84599(17) 0.8700(4) 1.67745(15)
O4F O -0.95030(17) 0.9048(4) 1.66379(16)
N5F N -0.88421(19) 1.5573(4) 1.81626(17)
H27F H -0.921(2) 1.580(5) 1.813(2)
O5 O 0.0000 -1.2467(8) 0.7500
H26 H -0.001(11) -1.216(17) 0.780(3)
H26A H 0.001(11) -1.216(17) 0.720(3)
H25? H 0.013(10) -1.179(17) 0.732(5)
loop_
_geom_bond_atom_site_label_1
_geom_bond_atom_site_label_2
_geom_bond_site_symmetry_1
_geom_bond_site_symmetry_2
Cd1 N1 1_555 1_555
C1 C2 1_555 1_555
C2 C3 1_555 1_555
C3 H1 1_555 1_555
C4 C3 1_555 1_555
H2 C4 1_555 1_555
C5 C4 1_555 1_555
C6 C5 1_555 1_555
H3 C6 1_555 1_555
C7 C2 1_555 1_555
H4 C7 1_555 1_555
C8 C5 1_555 1_555
H5 C8 1_555 1_555
H6 C8 1_555 1_555
C9 C10 1_555 1_555
C10 H7 1_555 1_555
C11 C10 1_555 1_555
H8 C11 1_555 1_555
C12 C11 1_555 1_555
H9 C12 1_555 1_555
C13 C12 1_555 1_555
H10 C13 1_555 1_555
C14 C9 1_555 1_555
C15 C14 1_555 1_555
C16 H11 1_555 1_555
C17 H12 1_555 1_555
C18 C17 1_555 1_555
H13 C18 1_555 1_555
C19 H14 1_555 1_555
H15 C19 1_555 1_555
C20 C19 1_555 1_555
H16 C20 1_555 1_555
H17 C20 1_555 1_555
C21 C20 1_555 1_555
H18 C21 1_555 1_555
H19 C21 1_555 1_555
C22 C21 1_555 1_555
H20 C22 1_555 1_555
H21 C22 1_555 1_555
C23 H22 1_555 1_555
N1 C23 1_555 1_555
C24 H23 1_555 1_555
N2 C16 1_555 1_555
N3 C16 1_555 1_555
N4 C22 1_555 1_555
C25 N1 1_555 1_555
H24 C25 1_555 1_555
O1 C15 1_555 1_555
O2 C15 1_555 1_555
O3 C1 1_555 1_555
O4 Cd1 1_555 1_555
O5 H26 1_555 1_555
N5 C8 1_555 1_555
H27 N5 1_555 1_555
Cd1F N2 1_555 1_555
Cd1A O2 1_555 1_555
Cd1G O2F 1_555 1_555
C1F C2F 1_555 1_555
C2F C3F 1_555 1_555
C3F H1F 1_555 1_555
C4F C3F 1_555 1_555
H2F C4F 1_555 1_555
C5F C4F 1_555 1_555
C6F C5F 1_555 1_555
H3F C6F 1_555 1_555
C7F C2F 1_555 1_555
H4F C7F 1_555 1_555
C8F C5F 1_555 1_555
H5F C8F 1_555 1_555
H6F C8F 1_555 1_555
C9F C10F 1_555 1_555
C10F H7F 1_555 1_555
C11F C10F 1_555 1_555
H8F C11F 1_555 1_555
C12F C11F 1_555 1_555
H9F C12F 1_555 1_555
C13F C12F 1_555 1_555
H10F C13F 1_555 1_555
C14F C9F 1_555 1_555
C15F C14F 1_555 1_555
C16F H11F 1_555 1_555
C17F H12F 1_555 1_555
C18F C17F 1_555 1_555
H13F C18F 1_555 1_555
C19F H14F 1_555 1_555
H15F C19F 1_555 1_555
C20F C19F 1_555 1_555
H16F C20F 1_555 1_555
H17F C20F 1_555 1_555
C21F C20F 1_555 1_555
H18F C21F 1_555 1_555
H19F C21F 1_555 1_555
C22F C21F 1_555 1_555
H20F C22F 1_555 1_555
H21F C22F 1_555 1_555
C23F H22F 1_555 1_555
N1F Cd1F 1_555 1_555
C24F H23F 1_555 1_555
N2F Cd1 1_555 1_555
N3F C16F 1_555 1_555
N4F C22F 1_555 1_555
C25F N1F 1_555 1_555
H24F C25F 1_555 1_555
O1F C15F 1_555 1_555
O2A Cd1 1_555 1_555
O2G Cd1F 1_555 1_555
O2F C15F 1_555 1_555
O3F C1F 1_555 1_555
O4F Cd1F 1_555 1_555
H26A O5 1_555 1_555
N5F C8F 1_555 1_555
H27F N5F 1_555 1_555
C1 O4 1_555 1_555
C6 C7 1_555 1_555
C9 N5 1_555 1_555
C13 C14 1_555 1_555
C17 N2 1_555 1_555
C18 N3 1_555 1_555
C19 N3 1_555 1_555
C23 N4 1_555 1_555
C24 N4 1_555 1_555
C24 C25 1_555 1_555
C1F O4F 1_555 1_555
C6F C7F 1_555 1_555
C9F N5F 1_555 1_555
C13F C14F 1_555 1_555
C16F N2F 1_555 1_555
C17F N2F 1_555 1_555
C18F N3F 1_555 1_555
C19F N3F 1_555 1_555
C23F N1F 1_555 1_555
C23F N4F 1_555 1_555
C24F N4F 1_555 1_555
C24F C25F 1_555 1_555

#END
