
#######################################################################
#
#                 Cambridge Crystallographic Data Centre
#                                CCDC 
#
#######################################################################
#
# If this CIF has been generated from an entry in the Cambridge 
# Structural Database, then it will include bibliographic, chemical, 
# crystal, experimental, refinement or atomic coordinate data resulting 
# from the CCDC's data processing and validation procedures.
#
#######################################################################

data_IQEJOD
_symmetry_cell_setting           monoclinic
_symmetry_space_group_name_H-M   'P 21/n'
_symmetry_Int_Tables_number      14
_space_group_name_Hall           '-P 2yn'
loop_
_symmetry_equiv_pos_site_id
_symmetry_equiv_pos_as_xyz
1 x,y,z
2 1/2+x,1/2-y,1/2+z
3 -x,-y,-z
4 1/2-x,1/2+y,1/2-z
_cell_length_a                   10.5593(9)
_cell_length_b                   11.3897(8)
_cell_length_c                   14.6978(11)
_cell_angle_alpha                90
_cell_angle_beta                 103.731(7)
_cell_angle_gamma                90
_cell_volume                     1717.15
loop_
_atom_site_label
_atom_site_type_symbol
_atom_site_fract_x
_atom_site_fract_y
_atom_site_fract_z
Cu1 Cu 0.0000 0.5000 0.0000
N1 N -0.03314(15) 0.56232(14) 0.30781(10)
N2 N -0.13331(14) 0.49328(12) 0.27017(10)
N3 N -0.13626(14) 0.45950(13) 0.18471(10)
N4 N -0.03286(14) 0.50760(12) 0.16288(10)
C1 C 0.02772(17) 0.56969(16) 0.23847(12)
N5 N 0.24931(13) 0.78861(13) 0.01193(10)
N6 N 0.15963(13) 0.82082(12) 0.05772(9)
N7 N 0.07416(13) 0.73933(12) 0.06373(10)
N8 N 0.10913(13) 0.64667(12) 0.02015(9)
C2 C 0.21582(16) 0.67837(15) -0.00947(11)
N9 N -0.19638(14) 0.22616(13) 0.62501(10)
N10 N -0.16723(13) 0.19063(12) 0.54589(9)
N11 N -0.24986(13) 0.11462(12) 0.49755(9)
N12 N -0.33868(13) 0.09809(11) 0.54662(9)
C3 C -0.30432(17) 0.16591(15) 0.62360(12)
C4 C -0.23512(17) 0.45787(17) 0.31810(13)
C5 C -0.20413(16) 0.34259(16) 0.37132(12)
C6 C 0.15071(18) 0.94031(15) 0.09243(12)
C7 C 0.07174(17) 1.01810(14) 0.01503(13)
C8 C -0.05736(16) 0.23868(15) 0.51180(12)
C9 C -0.09393(17) 0.35359(15) 0.45920(12)
H1 H 0.107(2) 0.6185(18) 0.2429(14)
H2 H 0.259(2) 0.6279(18) -0.0411(14)
H3 H -0.349(2) 0.1679(18) 0.6715(15)
H4 H -0.242(2) 0.520(2) 0.3563(16)
H5 H -0.3105(19) 0.4551(17) 0.2719(14)
H6 H -0.2807(19) 0.3159(17) 0.3868(13)
H7 H -0.182(2) 0.2835(18) 0.3328(15)
H8 H 0.110(2) 0.9370(18) 0.1422(15)
H9 H 0.2418(19) 0.9684(17) 0.1130(13)
H10 H 0.1113(19) 1.0162(15) -0.0354(14)
H11 H 0.0844(19) 1.0993(18) 0.0421(14)
H12 H 0.0133(19) 0.2493(16) 0.5665(14)
H13 H -0.036(2) 0.1799(18) 0.4711(14)
H14 H -0.0220(19) 0.3816(16) 0.4407(13)
H15 H -0.1106(19) 0.4148(18) 0.5015(14)
C7B C -0.07174(17) 0.98190(14) -0.01503(13)
C6B C -0.15071(18) 1.05969(15) -0.09243(12)
N6B N -0.15963(13) 1.17918(12) -0.05772(9)
N5B N -0.24931(13) 1.21139(13) -0.01193(10)
C2B C -0.21582(16) 1.32163(15) 0.00947(11)
N8B N -0.10913(13) 1.35333(12) -0.02015(9)
N7B N -0.07416(13) 1.26067(12) -0.06373(10)
H2B H -0.259(2) 1.3721(18) 0.0411(14)
H8B H -0.110(2) 1.0630(18) -0.1422(15)
H9B H -0.2418(19) 1.0316(17) -0.1130(13)
H10B H -0.1113(19) 0.9838(15) 0.0354(14)
H11B H -0.0844(19) 0.9007(18) -0.0421(14)
N1B N 0.03314(15) 0.43768(14) -0.30781(10)
N2B N 0.13331(14) 0.50672(12) -0.27017(10)
N3B N 0.13626(14) 0.54050(13) -0.18471(10)
N4B N 0.03286(14) 0.49240(12) -0.16288(10)
C1B C -0.02772(17) 0.43031(16) -0.23847(12)
N9B N 0.19638(14) 0.77384(13) -0.62501(10)
N10B N 0.16723(13) 0.80937(12) -0.54589(9)
N11B N 0.24986(13) 0.88538(12) -0.49755(9)
N12B N 0.33868(13) 0.90191(11) -0.54662(9)
C3B C 0.30432(17) 0.83409(15) -0.62360(12)
C4B C 0.23512(17) 0.54213(17) -0.31810(13)
C5B C 0.20413(16) 0.65741(16) -0.37132(12)
C8B C 0.05736(16) 0.76132(15) -0.51180(12)
C9B C 0.09393(17) 0.64641(15) -0.45920(12)
H1B H -0.107(2) 0.3815(18) -0.2429(14)
H3B H 0.349(2) 0.8321(18) -0.6715(15)
H4B H 0.242(2) 0.480(2) -0.3563(16)
H5B H 0.3105(19) 0.5449(17) -0.2719(14)
H6B H 0.2807(19) 0.6841(17) -0.3868(13)
H7B H 0.182(2) 0.7165(18) -0.3328(15)
H12B H -0.0133(19) 0.7507(16) -0.5665(14)
H13B H 0.036(2) 0.8201(18) -0.4711(14)
H14B H 0.0220(19) 0.6184(16) -0.4407(13)
H15B H 0.1106(19) 0.5852(18) -0.5015(14)
N8B_2 N -0.10913(13) 0.35333(12) -0.02015(9)
N12A N 0.16132(13) 0.40191(11) 0.04662(9)
N12C N -0.16132(13) 0.59809(11) -0.04662(9)
Cu1A Cu -0.5000 0.0000 0.5000
Cu1_2 Cu 0.0000 1.5000 0.0000
Cu1A_2 Cu 0.5000 1.0000 -0.5000
Cl1 Cl 0.55449(4) 0.35547(4) -0.22543(3)
O1 O 0.47716(13) 0.36762(13) -0.31980(9)
O2 O 0.56293(13) 0.23317(12) -0.19996(9)
O3 O 0.68362(13) 0.40000(14) -0.22033(11)
O4 O 0.49497(16) 0.42027(13) -0.16263(10)
loop_
_geom_bond_atom_site_label_1
_geom_bond_atom_site_label_2
_geom_bond_site_symmetry_1
_geom_bond_site_symmetry_2
Cu1 N4 1_555 1_555
N1 N2 1_555 1_555
N2 N3 1_555 1_555
N3 N4 1_555 1_555
N4 C1 1_555 1_555
C1 N1 1_555 1_555
N5 N6 1_555 1_555
N6 N7 1_555 1_555
N7 N8 1_555 1_555
N8 Cu1 1_555 1_555
C2 N5 1_555 1_555
N9 N10 1_555 1_555
N10 N11 1_555 1_555
N11 N12 1_555 1_555
N12 C3 1_555 1_555
C3 N9 1_555 1_555
C4 N2 1_555 1_555
C5 C4 1_555 1_555
C6 N6 1_555 1_555
C7 C6 1_555 1_555
C8 N10 1_555 1_555
C9 C5 1_555 1_555
Cl1 O1 1_555 1_555
O2 Cl1 1_555 1_555
O3 Cl1 1_555 1_555
O4 Cl1 1_555 1_555
H1 C1 1_555 1_555
H2 C2 1_555 1_555
H3 C3 1_555 1_555
H4 C4 1_555 1_555
H5 C4 1_555 1_555
H6 C5 1_555 1_555
H7 C5 1_555 1_555
H8 C6 1_555 1_555
H9 C6 1_555 1_555
H10 C7 1_555 1_555
H11 C7 1_555 1_555
H12 C8 1_555 1_555
H13 C8 1_555 1_555
H14 C9 1_555 1_555
H15 C9 1_555 1_555
C7B C7 1_555 1_555
C6B C7B 1_555 1_555
N6B C6B 1_555 1_555
N5B N6B 1_555 1_555
C2B N5B 1_555 1_555
N8B C2B 1_555 1_555
N7B N6B 1_555 1_555
H2B C2B 1_555 1_555
H8B C6B 1_555 1_555
H9B C6B 1_555 1_555
H10B C7B 1_555 1_555
H11B C7B 1_555 1_555
N1B N2B 1_555 1_555
N2B N3B 1_555 1_555
N3B N4B 1_555 1_555
N4B Cu1 1_555 1_555
C1B N1B 1_555 1_555
N9B N10B 1_555 1_555
N10B N11B 1_555 1_555
N11B N12B 1_555 1_555
N12B C3B 1_555 1_555
C3B N9B 1_555 1_555
C4B N2B 1_555 1_555
C5B C4B 1_555 1_555
C8B N10B 1_555 1_555
C9B C5B 1_555 1_555
H1B C1B 1_555 1_555
H3B C3B 1_555 1_555
H4B C4B 1_555 1_555
H5B C4B 1_555 1_555
H6B C5B 1_555 1_555
H7B C5B 1_555 1_555
H12B C8B 1_555 1_555
H13B C8B 1_555 1_555
H14B C9B 1_555 1_555
H15B C9B 1_555 1_555
N8B_2 Cu1 1_555 1_555
N12A Cu1 1_555 1_555
N12C Cu1 1_555 1_555
Cu1A N12 1_555 1_555
Cu1_2 N8B 1_555 1_555
Cu1A_2 N12B 1_555 1_555
N8 C2 1_555 1_555
C8 C9 1_555 1_555
N8B N7B 1_555 1_555
N4B C1B 1_555 1_555
C8B C9B 1_555 1_555

#END
