
#######################################################################
#
#                 Cambridge Crystallographic Data Centre
#                                CCDC 
#
#######################################################################
#
# If this CIF has been generated from an entry in the Cambridge 
# Structural Database, then it will include bibliographic, chemical, 
# crystal, experimental, refinement or atomic coordinate data resulting 
# from the CCDC's data processing and validation procedures.
#
#######################################################################

data_IQEJIY
_symmetry_cell_setting           monoclinic
_symmetry_space_group_name_H-M   'P 21/n'
_symmetry_Int_Tables_number      14
_space_group_name_Hall           '-P 2yn'
loop_
_symmetry_equiv_pos_site_id
_symmetry_equiv_pos_as_xyz
1 x,y,z
2 1/2-x,1/2+y,1/2-z
3 -x,-y,-z
4 1/2+x,1/2-y,1/2+z
_cell_length_a                   10.2094(3)
_cell_length_b                   14.3216(3)
_cell_length_c                   17.7147(5)
_cell_angle_alpha                90
_cell_angle_beta                 99.170(3)
_cell_angle_gamma                90
_cell_volume                     2557.05
loop_
_atom_site_label
_atom_site_type_symbol
_atom_site_fract_x
_atom_site_fract_y
_atom_site_fract_z
C1 C 0.0637(3) 1.08707(18) 0.15989(15)
C2 C -0.0116(3) 1.00516(16) 0.12210(15)
C3 C 0.0540(3) 0.9311(2) 0.09602(19)
H1 H 0.1462 0.9291 0.1054
C4 C -0.0164(4) 0.8590(2) 0.0558(2)
H2 H 0.0298 0.8100 0.0378
C5 C -0.1531(3) 0.85832(17) 0.04184(15)
C6 C -0.2176(3) 0.92998(19) 0.07182(18)
H3 H -0.3098 0.9297 0.0655
C7 C -0.1482(3) 1.00291(18) 0.11143(17)
H4 H -0.1944 1.0508 0.1310
C8 C -0.2291(4) 0.78594(18) -0.00929(16)
H5 H -0.3210 0.7876 -0.0016
H6 H -0.2270 0.8032 -0.0620
C9 C -0.1960(3) 0.63844(17) 0.06422(15)
C10 C -0.2829(3) 0.66205(19) 0.11427(17)
H7 H -0.3343 0.7157 0.1054
C11 C -0.2937(3) 0.60675(19) 0.17701(17)
H8 H -0.3529 0.6234 0.2095
C12 C -0.2181(3) 0.52749(18) 0.19207(16)
H9 H -0.2227 0.4924 0.2358
C13 C -0.1343(3) 0.50027(17) 0.14109(15)
C14 C -0.1247(3) 0.55472(17) 0.07816(16)
H10 H -0.0695 0.5356 0.0441
C15 C -0.0560(3) 0.41118(18) 0.15250(18)
C16 C 0.2914(3) 0.39825(19) 0.17405(18)
H11 H 0.2311 0.4443 0.1547
C17 C 0.4233(3) 0.4051(2) 0.18096(18)
H12 H 0.4707 0.4563 0.1676
C18 C 0.3733(3) 0.2703(2) 0.22177(16)
H13 H 0.3815 0.2103 0.2421
C19 C 0.6149(3) 0.2969(2) 0.22743(17)
H14 H 0.6307 0.2632 0.2755
H15 H 0.6690 0.3529 0.2332
C20 C 0.6571(3) 0.2370(2) 0.16614(16)
H16 H 0.6072 0.1791 0.1631
H17 H 0.7502 0.2214 0.1808
C21 C 0.6378(3) 0.2819(2) 0.08731(16)
H18 H 0.5438 0.2867 0.0676
H19 H 0.6749 0.3445 0.0910
C22 C 0.7053(4) 0.2242(2) 0.03357(16)
H20 H 0.7995 0.2213 0.0532
H21 H 0.6707 0.1611 0.0322
C23 C 0.7315(4) 0.3444(2) -0.0658(2)
H22 H 0.7781 0.3893 -0.0345
C24 C 0.6950(4) 0.3491(2) -0.14196(19)
H23 H 0.7126 0.3991 -0.1723
C25 C 0.6269(3) 0.2188(2) -0.10675(17)
H24 H 0.5884 0.1599 -0.1072
N1 N 0.2594(2) 0.31306(14) 0.19987(12)
N2 N 0.4751(2) 0.32368(16) 0.21107(13)
N3 N 0.6869(3) 0.26121(17) -0.04380(13)
N4 N 0.6283(2) 0.27018(16) -0.16842(13)
O1 O -0.00819(19) 1.15813(12) 0.17112(11)
O2 O 0.1844(2) 1.08594(13) 0.17736(12)
O3 O -0.0339(2) 0.37741(12) 0.22067(12)
O4 O -0.0158(2) 0.37378(13) 0.09781(12)
Zn1 Zn 0.08275(3) 0.26646(2) 0.219833(18)
N5 N -0.1814(3) 0.69160(17) 0.00219(15)
H25 H -0.125(2) 0.6709(17) -0.0213(14)
N4C N 0.1283(2) 0.22982(16) 0.33158(13)
O1_2 O -0.00819(19) 0.15813(12) 0.17112(11)
Zn1C Zn 0.58275(3) 0.23354(2) -0.280167(18)
Zn1_2 Zn 0.08275(3) 1.26646(2) 0.219833(18)
O5 O 0.5674(3) -0.0105(2) -0.14887(17)
H26 H 0.536(4) 0.009(3) -0.1962(15)
H27 H 0.646(3) -0.035(3) -0.154(3)
loop_
_geom_bond_atom_site_label_1
_geom_bond_atom_site_label_2
_geom_bond_site_symmetry_1
_geom_bond_site_symmetry_2
C1 C2 1_555 1_555
C2 C3 1_555 1_555
C3 H1 1_555 1_555
C4 C3 1_555 1_555
H2 C4 1_555 1_555
C5 C4 1_555 1_555
C6 C5 1_555 1_555
H3 C6 1_555 1_555
C7 C2 1_555 1_555
H4 C7 1_555 1_555
C8 C5 1_555 1_555
H5 C8 1_555 1_555
H6 C8 1_555 1_555
C9 C10 1_555 1_555
C10 H7 1_555 1_555
C11 C10 1_555 1_555
H8 C11 1_555 1_555
C12 C11 1_555 1_555
H9 C12 1_555 1_555
C13 C12 1_555 1_555
C14 C9 1_555 1_555
H10 C14 1_555 1_555
C15 C13 1_555 1_555
C16 H11 1_555 1_555
C17 C16 1_555 1_555
H12 C17 1_555 1_555
C18 H13 1_555 1_555
C19 H14 1_555 1_555
H15 C19 1_555 1_555
C20 C19 1_555 1_555
H16 C20 1_555 1_555
H17 C20 1_555 1_555
C21 C20 1_555 1_555
H18 C21 1_555 1_555
H19 C21 1_555 1_555
C22 C21 1_555 1_555
H20 C22 1_555 1_555
H21 C22 1_555 1_555
C23 H22 1_555 1_555
C24 C23 1_555 1_555
H23 C24 1_555 1_555
C25 H24 1_555 1_555
N1 C16 1_555 1_555
N2 C17 1_555 1_555
N3 C22 1_555 1_555
N4 C24 1_555 1_555
O1 C1 1_555 1_555
O2 C1 1_555 1_555
O3 C15 1_555 1_555
O4 C15 1_555 1_555
Zn1 N1 1_555 1_555
N5 C8 1_555 1_555
H25 N5 1_555 1_555
O5 H26 1_555 1_555
H27 O5 1_555 1_555
N4C Zn1 1_555 1_555
O1_2 Zn1 1_555 1_555
Zn1C N4 1_555 1_555
Zn1_2 O1 1_555 1_555
C6 C7 1_555 1_555
C9 N5 1_555 1_555
C13 C14 1_555 1_555
C18 N1 1_555 1_555
C18 N2 1_555 1_555
C19 N2 1_555 1_555
C23 N3 1_555 1_555
C25 N3 1_555 1_555
C25 N4 1_555 1_555
O3 Zn1 1_555 1_555

#END
