
#######################################################################
#
#                 Cambridge Crystallographic Data Centre
#                                CCDC 
#
#######################################################################
#
# If this CIF has been generated from an entry in the Cambridge 
# Structural Database, then it will include bibliographic, chemical, 
# crystal, experimental, refinement or atomic coordinate data resulting 
# from the CCDC's data processing and validation procedures.
#
#######################################################################

data_IQEKOF
_symmetry_cell_setting           monoclinic
_symmetry_space_group_name_H-M   'C 2/c'
_symmetry_Int_Tables_number      15
_space_group_name_Hall           '-C 2yn'
loop_
_symmetry_equiv_pos_site_id
_symmetry_equiv_pos_as_xyz
1 x,y,z
2 -x,y,1/2-z
3 1/2+x,1/2+y,z
4 1/2-x,1/2+y,1/2-z
5 -x,-y,-z
6 x,-y,1/2+z
7 1/2-x,1/2-y,-z
8 1/2+x,1/2-y,1/2+z
_cell_length_a                   14.081(5)
_cell_length_b                   14.731(3)
_cell_length_c                   22.623(4)
_cell_angle_alpha                90
_cell_angle_beta                 101.225(4)
_cell_angle_gamma                90
_cell_volume                     4602.86
loop_
_atom_site_label
_atom_site_type_symbol
_atom_site_fract_x
_atom_site_fract_y
_atom_site_fract_z
Cd1 Cd 0.466176(17) 0.267223(17) 0.521242(12)
C1 C 0.4323(3) 0.4283(3) 0.61148(19)
H1 H 0.4765 0.4650 0.5971
C2 C 0.3415(3) 0.3173(3) 0.6240(2)
H2 H 0.3111 0.2609 0.6201
C3 C 0.3246(3) 0.3837(3) 0.6611(2)
H3 H 0.2808 0.3820 0.6870
C4 C 0.3880(4) 0.5413(3) 0.6846(2)
H4 H 0.3228 0.5611 0.6861
H5 H 0.4164 0.5859 0.6617
C5 C 0.4474(4) 0.5375(3) 0.7487(2)
H6 H 0.4308 0.5893 0.7711
H7 H 0.4301 0.4830 0.7683
C6 C 0.3665(2) 0.1033(2) 0.49288(18)
C7 C 0.3304(2) 0.0100(2) 0.47385(16)
C8 C 0.2464(2) -0.0235(2) 0.48912(15)
H8 H 0.2115 0.0120 0.5114
C9 C 0.2146(2) -0.1099(2) 0.47119(15)
C10 C 0.2673(2) -0.1638(2) 0.43855(16)
H9 H 0.2448 -0.2214 0.4260
C11 C 0.3538(2) -0.1321(2) 0.42450(15)
C12 C 0.3837(2) -0.0445(2) 0.44144(16)
H10 H 0.4399 -0.0218 0.4311
C13 C 0.1239(2) -0.1473(2) 0.48759(17)
C14 C 0.4653(3) -0.1514(3) 0.35222(19)
H11 H 0.4958 -0.2004 0.3343
H12 H 0.5165 -0.1128 0.3737
C15 C 0.4046(3) -0.0960(3) 0.30176(19)
C16 C 0.3370(4) -0.1368(3) 0.2580(2)
H13 H 0.3277 -0.1992 0.2592
C17 C 0.2826(4) -0.0862(3) 0.2122(2)
H14 H 0.2380 -0.1148 0.1822
C18 C 0.2944(3) 0.0072(3) 0.2109(2)
C19 C 0.3609(4) 0.0484(3) 0.2539(2)
H15 H 0.3694 0.1110 0.2529
C20 C 0.4163(3) -0.0029(3) 0.2995(2)
H16 H 0.4619 0.0258 0.3289
C21 C 0.2329(4) 0.0639(3) 0.1630(2)
N1 N 0.4103(2) 0.3452(2) 0.59274(15)
N2 N 0.3833(2) 0.4535(2) 0.65361(15)
O1 O 0.33114(19) 0.14621(18) 0.53053(14)
O2 O 0.43573(18) 0.13417(16) 0.47127(13)
O3 O 0.09254(18) -0.11273(19) 0.53089(13)
O4 O 0.08130(18) -0.21225(17) 0.45898(13)
O5 O 0.1793(3) 0.0171(2) 0.12021(16)
H17 H 0.1480 0.0518 0.0955
O6 O 0.2307(3) 0.1459(3) 0.1644(2)
O7 O 0.3543(2) 0.3380(2) 0.44704(16)
H18 H 0.367(3) 0.378(3) 0.423(2)
H19 H 0.300(2) 0.341(3) 0.457(2)
N3 N 0.4118(2) -0.1910(2) 0.39681(14)
H21 H 0.381(3) -0.232(2) 0.3807(18)
Cd1A Cd 0.533824(17) 0.267223(17) 0.978758(12)
Cd1B Cd -0.033824(17) -0.232777(17) 0.521242(12)
Cd1D Cd 0.533824(17) -0.267223(17) 0.478758(12)
Cd1B_2 Cd 0.966176(17) 0.767223(17) 0.521242(12)
Cd1F Cd 1.033824(17) 0.232777(17) 0.478758(12)
C1A C 0.5677(3) 0.4283(3) 0.88852(19)
H1A H 0.5235 0.4650 0.9029
C2A C 0.6585(3) 0.3173(3) 0.8760(2)
H2A H 0.6889 0.2609 0.8799
C3A C 0.6754(3) 0.3837(3) 0.8389(2)
H3A H 0.7192 0.3820 0.8130
C4A C 0.6120(4) 0.5413(3) 0.8154(2)
H4A H 0.6772 0.5611 0.8139
H5A H 0.5836 0.5859 0.8383
C5A C 0.5526(4) 0.5375(3) 0.7513(2)
H6A H 0.5692 0.5893 0.7289
H7A H 0.5699 0.4830 0.7317
C6B C 0.8665(2) 0.6033(2) 0.49288(18)
C7B C 0.8304(2) 0.5100(2) 0.47385(16)
C8B C 0.7464(2) 0.4765(2) 0.48912(15)
H8B H 0.7115 0.5120 0.5114
C9B C 0.7146(2) 0.3901(2) 0.47119(15)
C10B C 0.7673(2) 0.3362(2) 0.43855(16)
H9B H 0.7448 0.2786 0.4260
C11B C 0.8538(2) 0.3679(2) 0.42450(15)
C12B C 0.8837(2) 0.4555(2) 0.44144(16)
H10B H 0.9399 0.4782 0.4311
C13B C 0.6239(2) 0.3527(2) 0.48759(17)
C14B C 0.9653(3) 0.3486(3) 0.35222(19)
H11B H 0.9958 0.2996 0.3343
H12B H 1.0165 0.3872 0.3737
C15B C 0.9046(3) 0.4040(3) 0.30176(19)
C16B C 0.8370(4) 0.3632(3) 0.2580(2)
H13B H 0.8277 0.3008 0.2592
C17B C 0.7826(4) 0.4138(3) 0.2122(2)
H14B H 0.7380 0.3852 0.1822
C18B C 0.7944(3) 0.5072(3) 0.2109(2)
C19B C 0.8609(4) 0.5484(3) 0.2539(2)
H15B H 0.8694 0.6110 0.2529
C20B C 0.9163(3) 0.4971(3) 0.2995(2)
H16B H 0.9619 0.5258 0.3289
C21B C 0.7329(4) 0.5639(3) 0.1630(2)
N1A N 0.5897(2) 0.3452(2) 0.90726(15)
N2A N 0.6167(2) 0.4535(2) 0.84639(15)
O1B O 0.83114(19) 0.64621(18) 0.53053(14)
O1A O 0.66886(19) 0.14621(18) 0.96947(14)
O2B O 0.93573(18) 0.63417(16) 0.47127(13)
O2A O 0.56427(18) 0.13417(16) 1.02873(13)
O3B O 0.59254(18) 0.38727(19) 0.53089(13)
O3C O 0.40746(18) 0.38727(19) 0.96911(13)
O4B O 0.58130(18) 0.28775(17) 0.45898(13)
O4C O 0.41870(18) 0.28775(17) 1.04102(13)
O5B O 0.6793(3) 0.5171(2) 0.12021(16)
H17B H 0.6480 0.5518 0.0955
O6B O 0.7307(3) 0.6459(3) 0.1644(2)
O7A O 0.6457(2) 0.3380(2) 1.05296(16)
H18A H 0.633(3) 0.378(3) 1.077(2)
H19A H 0.700(2) 0.341(3) 1.043(2)
N3B N 0.9118(2) 0.3090(2) 0.39681(14)
N3D N 0.5882(2) 0.1910(2) 0.60319(14)
N3E N 0.4118(2) 0.1910(2) 0.89681(14)
H21B H 0.881(3) 0.268(2) 0.3807(18)
H21D H 0.619(3) 0.232(2) 0.6193(18)
H21E H 0.381(3) 0.232(2) 0.8807(18)
O8 O 0.3815(5) 0.2376(5) 0.3494(3)
O9 O 0.5802(8) 0.1109(7) 0.3967(5)
O10 O 0.5639(11) 0.2490(10) 0.3043(8)
H20? H 0.436(5) 0.240(9) 0.340(7)
loop_
_geom_bond_atom_site_label_1
_geom_bond_atom_site_label_2
_geom_bond_site_symmetry_1
_geom_bond_site_symmetry_2
Cd1 N1 1_555 1_555
C1 H1 1_555 1_555
C2 H2 1_555 1_555
C3 C2 1_555 1_555
H3 C3 1_555 1_555
C4 H4 1_555 1_555
H5 C4 1_555 1_555
C5 C4 1_555 1_555
H6 C5 1_555 1_555
H7 C5 1_555 1_555
C6 C7 1_555 1_555
C7 C8 1_555 1_555
C8 H8 1_555 1_555
C9 C8 1_555 1_555
C10 C9 1_555 1_555
H9 C10 1_555 1_555
C11 C10 1_555 1_555
C12 C7 1_555 1_555
H10 C12 1_555 1_555
C13 C9 1_555 1_555
C14 H11 1_555 1_555
H12 C14 1_555 1_555
C15 C14 1_555 1_555
C16 C15 1_555 1_555
H13 C16 1_555 1_555
C17 C16 1_555 1_555
H14 C17 1_555 1_555
C18 C17 1_555 1_555
C19 C18 1_555 1_555
H15 C19 1_555 1_555
C20 C15 1_555 1_555
H16 C20 1_555 1_555
C21 C18 1_555 1_555
N1 C1 1_555 1_555
N2 C1 1_555 1_555
O1 Cd1 1_555 1_555
O2 Cd1 1_555 1_555
O3 C13 1_555 1_555
O4 C13 1_555 1_555
O5 C21 1_555 1_555
H17 O5 1_555 1_555
O6 C21 1_555 1_555
O7 Cd1 1_555 1_555
H18 O7 1_555 1_555
H19 O7 1_555 1_555
N3 C11 1_555 1_555
H21 N3 1_555 1_555
Cd1A N1A 1_555 1_555
Cd1B O3 1_555 1_555
Cd1D N3 1_555 1_555
Cd1B_2 O1B 1_555 1_555
Cd1F N3B 1_555 1_555
C1A H1A 1_555 1_555
C2A H2A 1_555 1_555
C3A C2A 1_555 1_555
H3A C3A 1_555 1_555
C4A H4A 1_555 1_555
H5A C4A 1_555 1_555
C5A C5 1_555 1_555
H6A C5A 1_555 1_555
H7A C5A 1_555 1_555
C6B C7B 1_555 1_555
C7B C8B 1_555 1_555
C8B H8B 1_555 1_555
C9B C8B 1_555 1_555
C10B C9B 1_555 1_555
H9B C10B 1_555 1_555
C11B C10B 1_555 1_555
C12B C7B 1_555 1_555
H10B C12B 1_555 1_555
C13B C9B 1_555 1_555
C14B H11B 1_555 1_555
H12B C14B 1_555 1_555
C15B C14B 1_555 1_555
C16B C15B 1_555 1_555
H13B C16B 1_555 1_555
C17B C16B 1_555 1_555
H14B C17B 1_555 1_555
C18B C17B 1_555 1_555
C19B C18B 1_555 1_555
H15B C19B 1_555 1_555
C20B C15B 1_555 1_555
H16B C20B 1_555 1_555
C21B C18B 1_555 1_555
N1A C1A 1_555 1_555
N2A C1A 1_555 1_555
O1B C6B 1_555 1_555
O1A Cd1A 1_555 1_555
O2B Cd1B_2 1_555 1_555
O2A Cd1A 1_555 1_555
O3B Cd1 1_555 1_555
O3C Cd1A 1_555 1_555
O4B Cd1 1_555 1_555
O4C Cd1A 1_555 1_555
O5B C21B 1_555 1_555
H17B O5B 1_555 1_555
O6B C21B 1_555 1_555
O7A Cd1A 1_555 1_555
H18A O7A 1_555 1_555
H19A O7A 1_555 1_555
N3B C11B 1_555 1_555
N3D Cd1 1_555 1_555
N3E Cd1A 1_555 1_555
H21B N3B 1_555 1_555
H21D N3D 1_555 1_555
H21E N3E 1_555 1_555
C2 N1 1_555 1_555
C3 N2 1_555 1_555
C4 N2 1_555 1_555
C6 O1 1_555 1_555
C6 O2 1_555 1_555
C11 C12 1_555 1_555
C14 N3 1_555 1_555
C19 C20 1_555 1_555
O4 Cd1B 1_555 1_555
C2A N1A 1_555 1_555
C3A N2A 1_555 1_555
C4A C5A 1_555 1_555
C4A N2A 1_555 1_555
C6B O2B 1_555 1_555
C11B C12B 1_555 1_555
C13B O3B 1_555 1_555
C13B O4B 1_555 1_555
C14B N3B 1_555 1_555
C19B C20B 1_555 1_555

#END
