
#######################################################################
#
#                 Cambridge Crystallographic Data Centre
#                                CCDC 
#
#######################################################################
#
# If this CIF has been generated from an entry in the Cambridge 
# Structural Database, then it will include bibliographic, chemical, 
# crystal, experimental, refinement or atomic coordinate data resulting 
# from the CCDC's data processing and validation procedures.
#
#######################################################################

data_IQEKAR
_symmetry_cell_setting           orthorhombic
_symmetry_space_group_name_H-M   'P n a 21'
_symmetry_Int_Tables_number      33
_space_group_name_Hall           'P 2c -2n'
loop_
_symmetry_equiv_pos_site_id
_symmetry_equiv_pos_as_xyz
1 x,y,z
2 -x,-y,1/2+z
3 1/2-x,1/2+y,1/2+z
4 1/2+x,1/2-y,z
_cell_length_a                   18.3946(7)
_cell_length_b                   9.8739(3)
_cell_length_c                   13.2948(5)
_cell_angle_alpha                90
_cell_angle_beta                 90
_cell_angle_gamma                90
_cell_volume                     2414.69
loop_
_atom_site_label
_atom_site_type_symbol
_atom_site_fract_x
_atom_site_fract_y
_atom_site_fract_z
Co1 Co 0.059640(16) 0.07863(3) -0.72225(3)
C1 C 0.09292(13) -0.2241(3) -0.7338(3)
H1 H 0.0815 -0.2276 -0.8019
C2 C 0.11530(17) -0.1516(3) -0.5880(2)
H2 H 0.1224 -0.0939 -0.5336
C3 C 0.12235(17) -0.2871(4) -0.5843(3)
H3 H 0.1349 -0.3390 -0.5286
C4 C 0.10936(13) -0.4726(2) -0.7122(3)
H4 H 0.0760 -0.4832 -0.7682
H5 H 0.0927 -0.5308 -0.6582
C5 C 0.18509(13) -0.5183(2) -0.7451(2)
H6 H 0.2186 -0.5049 -0.6897
H7 H 0.1837 -0.6145 -0.7599
C6 C 0.21328(14) -0.4446(3) -0.8355(2)
H8 H 0.2206 -0.3502 -0.8179
H9 H 0.1768 -0.4480 -0.8881
C7 C 0.28355(13) -0.5011(3) -0.8761(2)
H10 H 0.2769 -0.5966 -0.8905
H11 H 0.2949 -0.4560 -0.9390
C8 C 0.35573(15) -0.3837(3) -0.7411(3)
H12 H 0.3230 -0.3154 -0.7250
C9 C 0.40546(15) -0.5602(3) -0.8065(2)
H13 H 0.4121 -0.6370 -0.8459
C10 C 0.42335(14) -0.4004(3) -0.7024(3)
H14 H 0.4451 -0.3440 -0.6551
C11 C 0.07523(17) 0.2285(3) 0.1259(3)
C12 C 0.09488(16) 0.3175(3) 0.0391(2)
C13 C 0.04942(15) 0.4260(3) 0.0138(2)
H15 H 0.0057 0.4372 0.0478
C14 C 0.06814(15) 0.5153(3) -0.0595(2)
H16 H 0.0361 0.5846 -0.0764
C15 C 0.13378(16) 0.5055(3) -0.1096(2)
C16 C 0.17896(17) 0.3970(3) -0.0872(2)
H17 H 0.2228 0.3866 -0.1213
C17 C 0.15869(15) 0.3030(3) -0.0134(2)
H18 H 0.1889 0.2297 0.0002
C18 C 0.15355(17) 0.6113(3) -0.1844(2)
H19 H 0.1090 0.6445 -0.2147
H20 H 0.1753 0.6865 -0.1483
C19 C 0.18196(17) 0.4810(3) -0.3399(2)
C20 C 0.11136(15) 0.4357(3) -0.3482(2)
H21 H 0.0763 0.4650 -0.3027
C21 C 0.09250(15) 0.3465(3) -0.4244(2)
H22 H 0.0448 0.3156 -0.4285
C22 C 0.14235(15) 0.3025(3) -0.4940(2)
C23 C 0.21362(15) 0.3467(3) -0.4851(2)
H23 H 0.2485 0.3165 -0.5305
C24 C 0.23326(14) 0.4348(3) -0.4095(2)
H24 H 0.2812 0.4639 -0.4047
C25 C 0.11982(18) 0.2117(3) -0.5792(2)
N1 N 0.09650(11) -0.1105(2) -0.68145(17)
N2 N 0.10748(11) -0.3328(2) -0.67830(19)
N3 N 0.34497(12) -0.4858(2) -0.80780(17)
N4 N 0.45450(11) -0.51355(19) -0.74401(18)
O1 O 0.10741(11) 0.11624(19) 0.13710(14)
O2 O 0.02923(10) 0.26732(18) 0.18888(15)
O3 O 0.05292(11) 0.17670(19) -0.58585(15)
O4 O 0.16481(11) 0.17266(19) -0.64155(16)
N5 N 0.20304(15) 0.5726(3) -0.2656(2)
H25 H 0.2421(15) 0.586(3) -0.244(3)
Co1C Co 0.559640(16) -0.57863(3) -0.72225(3)
Co1_2 Co 0.059640(16) 0.07863(3) 0.27775(3)
N4C N -0.04550(11) 0.01355(19) -0.74401(18)
O1_2 O 0.10741(11) 0.11624(19) -0.86290(14)
O2_2 O 0.02923(10) 0.26732(18) -0.81112(15)
O5 O 0.07950(17) -0.1426(3) -0.9722(2)
H26 H 0.054(2) -0.144(4) -1.026(2)
H27 H 0.075(3) -0.068(3) -0.940(3)
loop_
_geom_bond_atom_site_label_1
_geom_bond_atom_site_label_2
_geom_bond_site_symmetry_1
_geom_bond_site_symmetry_2
Co1 N1 1_555 1_555
C1 H1 1_555 1_555
C2 H2 1_555 1_555
C3 C2 1_555 1_555
H3 C3 1_555 1_555
C4 H4 1_555 1_555
H5 C4 1_555 1_555
C5 C4 1_555 1_555
H6 C5 1_555 1_555
H7 C5 1_555 1_555
C6 C5 1_555 1_555
H8 C6 1_555 1_555
H9 C6 1_555 1_555
C7 C6 1_555 1_555
H10 C7 1_555 1_555
H11 C7 1_555 1_555
C8 H12 1_555 1_555
C9 H13 1_555 1_555
C10 C8 1_555 1_555
H14 C10 1_555 1_555
C11 C12 1_555 1_555
C12 C13 1_555 1_555
C13 H15 1_555 1_555
C14 C13 1_555 1_555
H16 C14 1_555 1_555
C15 C14 1_555 1_555
C16 C15 1_555 1_555
H17 C16 1_555 1_555
C17 C12 1_555 1_555
H18 C17 1_555 1_555
C18 C15 1_555 1_555
H19 C18 1_555 1_555
H20 C18 1_555 1_555
C19 C20 1_555 1_555
C20 H21 1_555 1_555
C21 C20 1_555 1_555
H22 C21 1_555 1_555
C22 C21 1_555 1_555
C23 C22 1_555 1_555
H23 C23 1_555 1_555
C24 C19 1_555 1_555
H24 C24 1_555 1_555
C25 C22 1_555 1_555
N1 C1 1_555 1_555
N2 C1 1_555 1_555
N3 C7 1_555 1_555
N4 C9 1_555 1_555
O1 C11 1_555 1_555
O2 C11 1_555 1_555
O3 Co1 1_555 1_555
O4 C25 1_555 1_555
N5 C18 1_555 1_555
H25 N5 1_555 1_555
O5 H26 1_555 1_555
H27 O5 1_555 1_555
Co1C N4 1_555 1_555
Co1_2 O1 1_555 1_555
N4C Co1 1_555 1_555
O1_2 Co1 1_555 1_555
O2_2 Co1 1_555 1_555
C2 N1 1_555 1_555
C3 N2 1_555 1_555
C4 N2 1_555 1_555
C8 N3 1_555 1_555
C9 N3 1_555 1_555
C10 N4 1_555 1_555
C16 C17 1_555 1_555
C19 N5 1_555 1_555
C23 C24 1_555 1_555
C25 O3 1_555 1_555
O2 Co1_2 1_555 1_555

#END
