
#######################################################################
#
#                 Cambridge Crystallographic Data Centre
#                                CCDC 
#
#######################################################################
#
# If this CIF has been generated from an entry in the Cambridge 
# Structural Database, then it will include bibliographic, chemical, 
# crystal, experimental, refinement or atomic coordinate data resulting 
# from the CCDC's data processing and validation procedures.
#
#######################################################################

data_IQIPAZ
_symmetry_cell_setting           triclinic
_symmetry_space_group_name_H-M   'P -1'
_symmetry_Int_Tables_number      2
_space_group_name_Hall           '-P 1'
loop_
_symmetry_equiv_pos_site_id
_symmetry_equiv_pos_as_xyz
1 x,y,z
2 -x,-y,-z
_cell_length_a                   9.997(2)
_cell_length_b                   13.1442(15)
_cell_length_c                   16.458(2)
_cell_angle_alpha                101.096(8)
_cell_angle_beta                 92.796(14)
_cell_angle_gamma                96.03(2)
_cell_volume                     2105.17
loop_
_atom_site_label
_atom_site_type_symbol
_atom_site_fract_x
_atom_site_fract_y
_atom_site_fract_z
Mn1 Mn 0.88297(5) 0.74018(4) 0.26189(3)
Mn2 Mn 0.91640(5) 1.13242(3) 0.23824(3)
Mn3 Mn 0.53986(5) 0.77702(4) -0.25879(3)
Mn4 Mn 0.37677(5) 0.63014(3) 0.24243(3)
O1 O 0.7862(2) 0.8682(2) 0.22192(12)
O2 O 0.8695(3) 0.9827(2) 0.14856(14)
O3 O 0.7081(2) 0.6470(2) 0.19139(13)
O4 O 0.5058(2) 0.6865(2) 0.15353(13)
O5 O 0.6607(3) 0.5180(2) -0.15476(14)
O6 O 0.5835(3) 0.6346(2) -0.21916(14)
O7 O 0.9449(2) 0.8353(2) -0.14853(13)
O8 O 0.7410(2) 0.8425(2) -0.20498(13)
C1 C 0.7650(3) 0.8195(2) 0.0746(2)
C2 C 0.6830(3) 0.7261(2) 0.0722(2)
C3 C 0.6444(3) 0.6619(2) -0.0052(2)
C4 C 0.6823(3) 0.6889(2) -0.0795(2)
C5 C 0.7634(3) 0.7830(2) -0.0762(2)
C6 C 0.8048(3) 0.8453(2) 0.0007(2)
C7 C 0.8112(3) 0.8954(2) 0.1540(2)
C8 C 0.6290(3) 0.6855(2) 0.1463(2)
C9 C 0.6393(3) 0.6088(2) -0.1579(2)
C10 C 0.8192(3) 0.8214(2) -0.1502(2)
O9 O 0.9273(2) 0.2658(2) 0.33410(14)
O10 O 1.1058(2) 0.3651(2) 0.30462(15)
O11 O 0.8492(3) 0.4820(2) 0.29024(14)
O12 O 0.9618(3) 0.6403(2) 0.33123(15)
C11 C 0.9982(3) 0.4250(2) 0.4268(2)
C12 C 0.9640(3) 0.5248(2) 0.4239(2)
C13 C 1.0335(3) 0.4010(2) 0.5031(2)
C14 C 1.0112(3) 0.3466(2) 0.3481(2)
C15 C 0.9208(3) 0.5505(2) 0.3415(2)
O13 O 0.5484(2) 1.2304(2) -0.33160(13)
O14 O 0.7401(2) 1.2220(2) -0.39486(14)
O15 O 0.6790(2) 1.0389(2) -0.29672(13)
O16 O 0.5023(2) 0.9193(2) -0.29883(13)
C16 C 0.5600(3) 1.0895(2) -0.4433(2)
C17 C 0.5334(3) 0.9940(2) -0.4183(2)
C18 C 0.5254(3) 1.0938(2) -0.5255(2)
C19 C 0.6223(3) 1.1875(2) -0.3850(2)
C20 C 0.5756(3) 0.9836(2) -0.3313(2)
C21 C 1.1211(3) 0.6373(2) 0.0394(2)
C22 C 1.2425(4) 0.6107(3) 0.0102(2)
C23 C 1.2503(4) 0.5765(3) -0.0741(2)
N1 N 1.1429(3) 0.5697(2) -0.1268(2)
C24 C 1.0247(4) 0.5955(3) -0.1008(2)
C25 C 1.0114(4) 0.6295(3) -0.0175(2)
C26 C 1.1063(3) 0.6759(2) 0.1328(2)
O17 O 1.2070(2) 0.6817(2) 0.18077(14)
O18 O 0.9923(2) 0.6991(2) 0.15056(14)
C27 C 0.6768(3) 1.1336(2) 0.0314(2)
C28 C 0.8017(4) 1.1183(3) 0.0008(2)
C29 C 0.8096(4) 1.0891(3) -0.0838(2)
N2 N 0.6992(3) 1.0766(2) -0.1351(2)
C30 C 0.5781(4) 1.0911(3) -0.1076(2)
C31 C 0.5640(4) 1.1189(3) -0.0234(2)
C32 C 0.6614(3) 1.1680(2) 0.1238(2)
O19 O 0.7653(2) 1.1949(2) 0.17119(14)
O20 O 0.5434(2) 1.1699(2) 0.14405(14)
O21 O 1.0417(3) 0.8587(2) 0.3196(2)
O22 O 0.7411(3) 0.7726(2) 0.3652(2)
O23 O 1.0806(3) 1.0747(2) 0.30801(15)
O24 O 0.7700(2) 1.0598(2) 0.31626(15)
O25 O 0.3622(3) 0.6946(3) -0.3324(2)
O26 O 0.6662(3) 0.7289(2) -0.3630(2)
O27 O 0.2421(3) 0.5646(2) 0.3266(2)
O28 O 0.5449(3) 0.5588(2) 0.30032(15)
H1 H 0.5946(37) 0.6010(26) -0.0066(21)
H2 H 0.8625(37) 0.9065(26) 0.0045(21)
H3 H 1.0553(37) 0.3356(27) 0.5072(21)
H4 H 0.5454(37) 1.1512(27) -0.5463(22)
H5 H 1.3126(38) 0.6173(27) 0.0456(22)
H6 H 1.3309(38) 0.5567(27) -0.0986(22)
H7 H 1.1481(37) 0.5422(26) -0.1826(23)
H8 H 0.9556(38) 0.5923(27) -0.1374(22)
H9 H 0.9355(38) 0.6500(27) 0.0013(22)
H10 H 0.8862(37) 1.1327(26) 0.0388(21)
H11 H 0.8891(38) 1.0721(27) -0.1074(22)
H12 H 0.7001(37) 1.0609(26) -0.1920(23)
H13 H 0.5030(38) 1.0800(27) -0.1475(22)
H14 H 0.4835(38) 1.1316(27) 0.0001(22)
H15 H 1.1224(51) 0.8343(37) 0.3250(30)
H16 H 1.0624(55) 0.9116(37) 0.3134(32)
H17 H 0.6727(53) 0.7896(41) 0.3593(33)
H18 H 0.7596(52) 0.8183(37) 0.4117(31)
H19 H 1.0936(55) 1.0947(38) 0.3519(30)
H20 H 1.1565(51) 1.0889(35) 0.2771(29)
H21 H 0.6922(52) 1.0681(38) 0.3087(31)
H22 H 0.7605(52) 0.9969(37) 0.2997(30)
H23 H 0.2961(54) 0.7030(41) -0.3168(33)
H24 H 0.3617(56) 0.6602(40) -0.3723(33)
H25 H 0.6489(52) 0.6916(38) -0.4110(31)
H26 H 0.7228(53) 0.6974(38) -0.3470(32)
H27 H 0.1978(54) 0.6009(38) 0.3418(33)
H28 H 0.1990(52) 0.5032(37) 0.3183(30)
H29 H 0.6231(52) 0.5734(37) 0.2791(30)
H30 H 0.5356(54) 0.4989(37) 0.2876(31)
C13A C 0.9665(3) 0.5990(2) 0.4969(2)
C11A C 1.0018(3) 0.5750(2) 0.5732(2)
C12A C 1.0360(3) 0.4752(2) 0.5761(2)
C15A C 1.0792(3) 0.4495(2) 0.6585(2)
O11A O 1.1508(3) 0.5180(2) 0.70976(14)
O12A O 1.0382(3) 0.3597(2) 0.66877(15)
C14A C 0.9888(3) 0.6534(2) 0.6519(2)
O9A O 1.0727(2) 0.7342(2) 0.66590(14)
O10A O 0.8942(2) 0.6349(2) 0.69538(15)
H3A H 0.9447(37) 0.6644(27) 0.4928(21)
C18A C 0.4746(3) 0.9062(2) -0.4745(2)
C16A C 0.4400(3) 0.9105(2) -0.5567(2)
C17A C 0.4666(3) 1.0060(2) -0.5817(2)
C20A C 0.4244(3) 1.0164(2) -0.6687(2)
O15A O 0.3210(2) 0.9611(2) -0.70328(13)
O16A O 0.4977(2) 1.0807(2) -0.70117(13)
C19A C 0.3777(3) 0.8125(2) -0.6150(2)
O13A O 0.4516(2) 0.7696(2) -0.66840(13)
O14A O 0.2599(2) 0.7780(2) -0.60514(14)
H4A H 0.4546(37) 0.8488(27) -0.4537(22)
Mn1A Mn 1.11703(5) 0.25982(4) 0.73811(3)
Mn2A Mn 1.08360(5) 0.86758(3) -0.23824(3)
Mn4A Mn 0.62323(5) 0.36986(3) -0.24243(3)
O1A O 1.2138(2) 1.1318(2) -0.22192(12)
O2A O 1.1305(3) 1.0173(2) -0.14856(14)
O3A O 1.2919(2) 1.3530(2) -0.19139(13)
O4A O 1.4942(2) 1.3135(2) -0.15353(13)
O5A O 1.3393(3) 1.4820(2) 0.15476(14)
O6A O 1.4165(3) 1.3654(2) 0.21916(14)
O7A O 1.0551(2) 1.1647(2) 0.14853(13)
O8A O 1.2590(2) 1.1575(2) 0.20498(13)
C1A C 1.2350(3) 1.1805(2) -0.0746(2)
C2A C 1.3170(3) 1.2739(2) -0.0722(2)
C3A C 1.3556(3) 1.3381(2) 0.0052(2)
C4A C 1.3177(3) 1.3111(2) 0.0795(2)
C5A C 1.2366(3) 1.2170(2) 0.0762(2)
C6A C 1.1952(3) 1.1547(2) -0.0007(2)
C7A C 1.1888(3) 1.1046(2) -0.1540(2)
C8A C 1.3710(3) 1.3145(2) -0.1463(2)
C9A C 1.3607(3) 1.3912(2) 0.1579(2)
C10A C 1.1808(3) 1.1786(2) 0.1502(2)
H1A H 1.4054(37) 1.3990(26) 0.0066(21)
H2A H 1.1375(37) 1.0935(26) -0.0045(21)
C27A C 0.3232(3) 0.8664(2) -0.0314(2)
C28A C 0.1983(4) 0.8817(3) -0.0008(2)
C29A C 0.1904(4) 0.9109(3) 0.0838(2)
N2A N 0.3008(3) 0.9234(2) 0.1351(2)
C30A C 0.4219(4) 0.9089(3) 0.1076(2)
C31A C 0.4360(4) 0.8811(3) 0.0234(2)
C32A C 0.3386(3) 0.8320(2) -0.1238(2)
O19A O 0.2347(2) 0.8051(2) -0.17119(14)
O20A O 0.4566(2) 0.8301(2) -0.14405(14)
H10A H 0.1138(37) 0.8673(26) -0.0388(21)
H11A H 0.1109(38) 0.9279(27) 0.1074(22)
H12A H 0.2999(37) 0.9391(26) 0.1920(23)
H13A H 0.4970(38) 0.9200(27) 0.1475(22)
H14A H 0.5165(38) 0.8684(27) -0.0001(22)
C21_2 C 0.1211(3) 0.6373(2) 0.0394(2)
C22_2 C 0.2425(4) 0.6107(3) 0.0102(2)
C23_2 C 0.2503(4) 0.5765(3) -0.0741(2)
N1_2 N 0.1429(3) 0.5697(2) -0.1268(2)
C24_2 C 0.0247(4) 0.5955(3) -0.1008(2)
C25_2 C 0.0114(4) 0.6295(3) -0.0175(2)
C26_2 C 0.1063(3) 0.6759(2) 0.1328(2)
O17_2 O 0.2070(2) 0.6817(2) 0.18077(14)
O18_2 O -0.0077(2) 0.6991(2) 0.15056(14)
H5_2 H 0.3126(38) 0.6173(27) 0.0456(22)
H6_2 H 0.3309(38) 0.5567(27) -0.0986(22)
H7_2 H 0.1481(37) 0.5422(26) -0.1826(23)
H8_2 H -0.0444(38) 0.5923(27) -0.1374(22)
H9_2 H -0.0645(38) 0.6500(27) 0.0013(22)
O21A O 0.9583(3) 0.1413(2) 0.6804(2)
H15A H 0.8776(51) 0.1657(37) 0.6750(30)
H16A H 0.9376(55) 0.0884(37) 0.6866(32)
O22A O 1.2589(3) 0.2274(2) 0.6348(2)
H17A H 1.3273(53) 0.2104(41) 0.6407(33)
H18A H 1.2404(52) 0.1817(37) 0.5883(31)
O23A O 0.9194(3) 0.9253(2) -0.30801(15)
H19A H 0.9064(55) 0.9053(38) -0.3519(30)
H20A H 0.8435(51) 0.9111(35) -0.2771(29)
O24A O 1.2300(2) 0.9402(2) -0.31626(15)
H21A H 1.3078(52) 0.9319(38) -0.3087(31)
H22A H 1.2395(52) 1.0031(37) -0.2997(30)
O27A O 0.7579(3) 0.4354(2) -0.3266(2)
H27A H 0.8022(54) 0.3991(38) -0.3418(33)
H28A H 0.8010(52) 0.4968(37) -0.3183(30)
O28A O 0.4551(3) 0.4412(2) -0.30032(15)
H29A H 0.3769(52) 0.4266(37) -0.2791(30)
H30A H 0.4644(54) 0.5011(37) -0.2876(31)
Mn3A Mn 1.46014(5) 1.22298(4) 0.25879(3)
O25A O 1.6378(3) 1.3054(3) 0.3324(2)
H23A H 1.7039(54) 1.2970(41) 0.3168(33)
H24A H 1.6383(56) 1.3398(40) 0.3723(33)
O26A O 1.3338(3) 1.2711(2) 0.3630(2)
H25A H 1.3511(52) 1.3084(38) 0.4110(31)
H26A H 1.2772(53) 1.3026(38) 0.3470(32)
O9_2 O 0.9273(2) 1.2658(2) 0.33410(14)
O5A_2 O 0.3393(3) 0.4820(2) 0.15476(14)
O13A_2 O 0.4516(2) 0.7696(2) 0.33160(13)
Mn2_2 Mn 0.91640(5) 0.13242(3) 0.23824(3)
Mn4A_2 Mn 0.62323(5) 1.36986(3) -0.24243(3)
Mn4_2 Mn 1.37677(5) 0.63014(3) 0.24243(3)
Mn3A_2 Mn 0.46014(5) 1.22298(4) 0.25879(3)
Mn2A_2 Mn 1.08360(5) 0.86758(3) 0.76176(3)
Mn3A_3 Mn 0.46014(5) 1.22298(4) -0.74121(3)
Mn4_3 Mn 0.37677(5) 0.63014(3) -0.75757(3)
O1A_2 O 1.2138(2) 0.1318(2) 0.77808(12)
O3A_2 O 1.2919(2) 0.3530(2) 0.80861(13)
O18A O 1.0077(2) 0.3009(2) 0.84944(14)
O9A_2 O 1.0727(2) 0.7342(2) -0.33410(14)
O19A_2 O 1.2347(2) 0.8051(2) -0.17119(14)
O4A_2 O 0.4942(2) 0.3135(2) -0.15353(13)
O13_2 O 0.5484(2) 0.2304(2) -0.33160(13)
O17A O 0.7930(2) 0.3183(2) -0.18077(14)
Mn1A_2 Mn 1.11703(5) 1.25982(4) -0.26189(3)
Mn4A_3 Mn 1.62323(5) 1.36986(3) -0.24243(3)
Mn4_4 Mn 1.37677(5) 1.63014(3) 0.24243(3)
Mn2A_3 Mn 0.08360(5) 0.86758(3) -0.23824(3)
Mn1_2 Mn -0.11703(5) 0.74018(4) 0.26189(3)
O16A_2 O 1.4977(2) 1.0807(2) 0.29883(13)
O20_2 O 1.5434(2) 1.1699(2) 0.14405(14)
O29 O 1.1323(3) 1.9004(3) 0.5147(2)
H31 H 1.1701(53) 1.9024(38) 0.5596(31)
H32 H 1.1688(52) 1.8562(37) 0.4800(31)
O30 O 1.3763(5) 1.3820(4) 0.5221(2)
H33 H 1.4631(54) 1.4000(42) 0.5194(33)
H34 H 1.3574(59) 1.3833(43) 0.5642(31)
O31 O 0.8608(3) 0.8937(2) 0.5169(2)
H35 H 0.9402(53) 0.8902(40) 0.5131(32)
H36 H 0.8449(55) 0.9518(38) 0.5144(32)
O32 O 1.6462(5) 1.4136(4) 0.4969(2)
H37 H 1.6835(56) 1.4161(41) 0.5395(31)
H38 H 1.6821(53) 1.3676(31) 0.4714(31)
loop_
_geom_bond_atom_site_label_1
_geom_bond_atom_site_label_2
_geom_bond_site_symmetry_1
_geom_bond_site_symmetry_2
Mn1 O1 1_555 1_555
Mn2 O2 1_555 1_555
Mn3 O6 1_555 1_555
Mn4 O4 1_555 1_555
O1 C7 1_555 1_555
O2 C7 1_555 1_555
O3 Mn1 1_555 1_555
O4 C8 1_555 1_555
O5 C9 1_555 1_555
O6 C9 1_555 1_555
O7 C10 1_555 1_555
O8 Mn3 1_555 1_555
C1 C2 1_555 1_555
C2 C3 1_555 1_555
C3 C4 1_555 1_555
C4 C5 1_555 1_555
C5 C6 1_555 1_555
C6 C1 1_555 1_555
C7 C1 1_555 1_555
C8 O3 1_555 1_555
C9 C4 1_555 1_555
C10 O8 1_555 1_555
O9 C14 1_555 1_555
O10 C14 1_555 1_555
O11 C15 1_555 1_555
O12 Mn1 1_555 1_555
C11 C12 1_555 1_555
C12 C15 1_555 1_555
C13 C11 1_555 1_555
C14 C11 1_555 1_555
C15 O12 1_555 1_555
O13 C19 1_555 1_555
O14 C19 1_555 1_555
O15 C20 1_555 1_555
O16 Mn3 1_555 1_555
C16 C17 1_555 1_555
C17 C20 1_555 1_555
C18 C16 1_555 1_555
C19 C16 1_555 1_555
C20 O16 1_555 1_555
C21 C22 1_555 1_555
C22 C23 1_555 1_555
C23 N1 1_555 1_555
N1 C24 1_555 1_555
C24 C25 1_555 1_555
C25 C21 1_555 1_555
C26 C21 1_555 1_555
O17 C26 1_555 1_555
O18 Mn1 1_555 1_555
C27 C28 1_555 1_555
C28 C29 1_555 1_555
C29 N2 1_555 1_555
N2 C30 1_555 1_555
C30 C31 1_555 1_555
C31 C27 1_555 1_555
C32 C27 1_555 1_555
O19 Mn2 1_555 1_555
O20 C32 1_555 1_555
O21 Mn1 1_555 1_555
O22 Mn1 1_555 1_555
O23 Mn2 1_555 1_555
O24 Mn2 1_555 1_555
O25 Mn3 1_555 1_555
O26 Mn3 1_555 1_555
O27 Mn4 1_555 1_555
O28 Mn4 1_555 1_555
O29 H31 1_555 1_555
O30 H33 1_555 1_555
O31 H35 1_555 1_555
O32 H37 1_555 1_555
H1 C3 1_555 1_555
H2 C6 1_555 1_555
H3 C13 1_555 1_555
H4 C18 1_555 1_555
H5 C22 1_555 1_555
H6 C23 1_555 1_555
H7 N1 1_555 1_555
H8 C24 1_555 1_555
H9 C25 1_555 1_555
H10 C28 1_555 1_555
H11 C29 1_555 1_555
H12 N2 1_555 1_555
H13 C30 1_555 1_555
H14 C31 1_555 1_555
H15 O21 1_555 1_555
H16 O21 1_555 1_555
H17 O22 1_555 1_555
H18 O22 1_555 1_555
H19 O23 1_555 1_555
H20 O23 1_555 1_555
H21 O24 1_555 1_555
H22 O24 1_555 1_555
H23 O25 1_555 1_555
H24 O25 1_555 1_555
H25 O26 1_555 1_555
H26 O26 1_555 1_555
H27 O27 1_555 1_555
H28 O27 1_555 1_555
H29 O28 1_555 1_555
H30 O28 1_555 1_555
H32 O29 1_555 1_555
H34 O30 1_555 1_555
H36 O31 1_555 1_555
H38 O32 1_555 1_555
C13A C12 1_555 1_555
C11A C13A 1_555 1_555
C12A C13 1_555 1_555
C15A C12A 1_555 1_555
O11A C15A 1_555 1_555
O12A C15A 1_555 1_555
C14A C11A 1_555 1_555
O9A C14A 1_555 1_555
O10A C14A 1_555 1_555
H3A C13A 1_555 1_555
C18A C17 1_555 1_555
C16A C18A 1_555 1_555
C17A C18 1_555 1_555
C20A C17A 1_555 1_555
O15A C20A 1_555 1_555
O16A C20A 1_555 1_555
C19A C16A 1_555 1_555
O13A C19A 1_555 1_555
O14A C19A 1_555 1_555
H4A C18A 1_555 1_555
Mn1A O12A 1_555 1_555
Mn2A O7 1_555 1_555
Mn4A O5 1_555 1_555
O1A C7A 1_555 1_555
O2A Mn2A 1_555 1_555
O3A C8A 1_555 1_555
O4A C8A 1_555 1_555
O5A C9A 1_555 1_555
O6A C9A 1_555 1_555
O7A Mn2 1_555 1_555
O8A C10A 1_555 1_555
C1A C2A 1_555 1_555
C2A C3A 1_555 1_555
C3A C4A 1_555 1_555
C4A C5A 1_555 1_555
C5A C6A 1_555 1_555
C6A C1A 1_555 1_555
C7A O2A 1_555 1_555
C8A C2A 1_555 1_555
C9A C4A 1_555 1_555
C10A O7A 1_555 1_555
H1A C3A 1_555 1_555
H2A C6A 1_555 1_555
C27A C28A 1_555 1_555
C28A C29A 1_555 1_555
C29A N2A 1_555 1_555
N2A C30A 1_555 1_555
C30A C31A 1_555 1_555
C31A C27A 1_555 1_555
C32A C27A 1_555 1_555
O19A C32A 1_555 1_555
O20A Mn3 1_555 1_555
H10A C28A 1_555 1_555
H11A C29A 1_555 1_555
H12A N2A 1_555 1_555
H13A C30A 1_555 1_555
H14A C31A 1_555 1_555
C21_2 C22_2 1_555 1_555
C22_2 C23_2 1_555 1_555
C23_2 N1_2 1_555 1_555
N1_2 C24_2 1_555 1_555
C24_2 C25_2 1_555 1_555
C25_2 C21_2 1_555 1_555
C26_2 C21_2 1_555 1_555
O17_2 Mn4 1_555 1_555
O18_2 C26_2 1_555 1_555
H5_2 C22_2 1_555 1_555
H6_2 C23_2 1_555 1_555
H7_2 N1_2 1_555 1_555
H8_2 C24_2 1_555 1_555
H9_2 C25_2 1_555 1_555
O21A Mn1A 1_555 1_555
H15A O21A 1_555 1_555
H16A O21A 1_555 1_555
O22A Mn1A 1_555 1_555
H17A O22A 1_555 1_555
H18A O22A 1_555 1_555
O23A Mn2A 1_555 1_555
H19A O23A 1_555 1_555
H20A O23A 1_555 1_555
O24A Mn2A 1_555 1_555
H21A O24A 1_555 1_555
H22A O24A 1_555 1_555
O27A Mn4A 1_555 1_555
H27A O27A 1_555 1_555
H28A O27A 1_555 1_555
O28A Mn4A 1_555 1_555
H29A O28A 1_555 1_555
H30A O28A 1_555 1_555
Mn3A O6A 1_555 1_555
O25A Mn3A 1_555 1_555
H23A O25A 1_555 1_555
H24A O25A 1_555 1_555
O26A Mn3A 1_555 1_555
H25A O26A 1_555 1_555
H26A O26A 1_555 1_555
O9_2 Mn2 1_555 1_555
O5A_2 Mn4 1_555 1_555
O13A_2 Mn4 1_555 1_555
Mn2_2 O9 1_555 1_555
Mn4A_2 O13 1_555 1_555
Mn4_2 O17 1_555 1_555
Mn3A_2 O20 1_555 1_555
Mn2A_2 O9A 1_555 1_555
Mn3A_3 O16A 1_555 1_555
Mn4_3 O13A 1_555 1_555
O1A_2 Mn1A 1_555 1_555
O3A_2 Mn1A 1_555 1_555
O18A Mn1A 1_555 1_555
O9A_2 Mn2A 1_555 1_555
O19A_2 Mn2A 1_555 1_555
O4A_2 Mn4A 1_555 1_555
O13_2 Mn4A 1_555 1_555
O17A Mn4A 1_555 1_555
Mn1A_2 O1A 1_555 1_555
Mn4A_3 O4A 1_555 1_555
Mn4_4 O5A 1_555 1_555
Mn2A_3 O19A 1_555 1_555
Mn1_2 O18_2 1_555 1_555
O16A_2 Mn3A 1_555 1_555
O20_2 Mn3A 1_555 1_555
C2 C8 1_555 1_555
C5 C10 1_555 1_555
C26 O18 1_555 1_555
C32 O19 1_555 1_555
C11A C12A 1_555 1_555
C16A C17A 1_555 1_555
O3A Mn1A_2 1_555 1_555
O8A Mn3A 1_555 1_555
C1A C7A 1_555 1_555
C5A C10A 1_555 1_555
C32A O20A 1_555 1_555
C26_2 O17_2 1_555 1_555

#END
