
#######################################################################
#
#                 Cambridge Crystallographic Data Centre
#                                CCDC 
#
#######################################################################
#
# If this CIF has been generated from an entry in the Cambridge 
# Structural Database, then it will include bibliographic, chemical, 
# crystal, experimental, refinement or atomic coordinate data resulting 
# from the CCDC's data processing and validation procedures.
#
#######################################################################

data_IQIROP
_symmetry_cell_setting           monoclinic
_symmetry_space_group_name_H-M   'P 21/m'
_symmetry_Int_Tables_number      11
_space_group_name_Hall           '-P 2yb'
loop_
_symmetry_equiv_pos_site_id
_symmetry_equiv_pos_as_xyz
1 x,y,z
2 x,1/2-y,z
3 -x,-y,-z
4 -x,1/2+y,-z
_cell_length_a                   9.813(2)
_cell_length_b                   6.5337(13)
_cell_length_c                   10.030(2)
_cell_angle_alpha                90
_cell_angle_beta                 103.01(3)
_cell_angle_gamma                90
_cell_volume                     626.568
loop_
_atom_site_label
_atom_site_type_symbol
_atom_site_fract_x
_atom_site_fract_y
_atom_site_fract_z
As1 As -0.11972(6) -0.2500 -0.09567(6)
V1 V -0.21016(9) 0.2500 -0.07625(9)
O1 O -0.2369(4) 0.2500 0.0755(4)
O2 O -0.0378(5) -0.2500 -0.2312(4)
H1 H 0.035(8) -0.2500 -0.209(9)
O3 O -0.2250(3) -0.0473(4) -0.1119(3)
O4 O 0.0042(3) -0.2500 0.0486(3)
N1 N -0.4271(4) 0.2500 -0.1795(4)
N2 N -0.2131(4) 0.2500 -0.3053(4)
C1 C -0.5316(6) 0.2500 -0.1175(6)
H2 H -0.5114 0.2500 -0.0224
C2 C -0.6706(6) 0.2500 -0.1873(7)
H3 H -0.7417 0.2500 -0.1397
C3 C -0.7013(6) 0.2500 -0.3268(7)
H4 H -0.7941 0.2500 -0.3751
C4 C -0.5944(5) 0.2500 -0.3968(6)
C5 C -0.6185(6) 0.2500 -0.5425(6)
H5 H -0.7098 0.2500 -0.5945
C6 C -0.5114(6) 0.2500 -0.6063(6)
H6 H -0.5299 0.2500 -0.7014
C7 C -0.3699(6) 0.2500 -0.5295(5)
C8 C -0.2524(6) 0.2500 -0.5877(6)
H7 H -0.2641 0.2500 -0.6823
C9 C -0.1223(6) 0.2500 -0.5062(6)
H8 H -0.0443 0.2500 -0.5445
C10 C -0.1056(6) 0.2500 -0.3649(6)
H9 H -0.0156 0.2500 -0.3101
C11 C -0.3432(5) 0.2500 -0.3860(5)
C12 C -0.4573(5) 0.2500 -0.3192(5)
O3A O -0.2250(3) -0.4527(4) -0.1119(3)
O3A_2 O -0.2250(3) 0.5473(4) -0.1119(3)
O4B O -0.0042(3) 0.2500 -0.0486(3)
V1B V 0.21016(9) -0.2500 0.07625(9)
V1_2 V -0.21016(9) -0.7500 -0.07625(9)
loop_
_geom_bond_atom_site_label_1
_geom_bond_atom_site_label_2
_geom_bond_site_symmetry_1
_geom_bond_site_symmetry_2
As1 O2 1_555 1_555
V1 O1 1_555 1_555
O2 H1 1_555 1_555
O3 As1 1_555 1_555
O4 As1 1_555 1_555
N1 V1 1_555 1_555
N2 V1 1_555 1_555
C1 N1 1_555 1_555
H2 C1 1_555 1_555
C2 C1 1_555 1_555
H3 C2 1_555 1_555
C3 C2 1_555 1_555
H4 C3 1_555 1_555
C4 C3 1_555 1_555
C5 C4 1_555 1_555
H5 C5 1_555 1_555
C6 C5 1_555 1_555
H6 C6 1_555 1_555
C7 C6 1_555 1_555
C8 C7 1_555 1_555
H7 C8 1_555 1_555
C9 C8 1_555 1_555
H8 C9 1_555 1_555
C10 N2 1_555 1_555
H9 C10 1_555 1_555
C11 N2 1_555 1_555
C12 N1 1_555 1_555
O3A As1 1_555 1_555
O3A_2 V1 1_555 1_555
O4B V1 1_555 1_555
V1B O4 1_555 1_555
V1_2 O3A 1_555 1_555
V1 O3 1_555 1_555
C4 C12 1_555 1_555
C7 C11 1_555 1_555
C9 C10 1_555 1_555
C11 C12 1_555 1_555

#END
