
#######################################################################
#
#                 Cambridge Crystallographic Data Centre
#                                CCDC 
#
#######################################################################
#
# If this CIF has been generated from an entry in the Cambridge 
# Structural Database, then it will include bibliographic, chemical, 
# crystal, experimental, refinement or atomic coordinate data resulting 
# from the CCDC's data processing and validation procedures.
#
#######################################################################

data_IQIVAG
_symmetry_cell_setting           triclinic
_symmetry_space_group_name_H-M   'P -1'
_symmetry_Int_Tables_number      2
_space_group_name_Hall           '-P 1'
loop_
_symmetry_equiv_pos_site_id
_symmetry_equiv_pos_as_xyz
1 x,y,z
2 -x,-y,-z
_cell_length_a                   11.4131(3)
_cell_length_b                   12.2396(3)
_cell_length_c                   14.6560(4)
_cell_angle_alpha                66.6830(10)
_cell_angle_beta                 83.2390(10)
_cell_angle_gamma                80.2260(10)
_cell_volume                     1849.94
loop_
_atom_site_label
_atom_site_type_symbol
_atom_site_fract_x
_atom_site_fract_y
_atom_site_fract_z
C1 C 0.1805(6) 0.0162(6) 1.7049(5)
H1 H 0.2193 -0.0168 1.7642
C2 C 0.1859(6) 0.1106(8) 1.5381(5)
H2 H 0.2283 0.1464 1.4782
C3 C 0.0659(6) 0.1095(8) 1.5355(5)
H3 H 0.0301 0.1415 1.4749
C4 C 0.0585(5) 0.0130(6) 1.7098(4)
H4 H 0.0176 -0.0211 1.7709
C5 C -0.0008(5) 0.0611(5) 1.6226(4)
C6 C -0.1299(5) 0.0612(5) 1.6207(4)
C7 C -0.1974(6) 0.1490(6) 1.5463(5)
H5 H -0.1614 0.2106 1.4967
C8 C -0.1891(6) -0.0275(6) 1.6933(4)
H6 H -0.1488 -0.0871 1.7460
C9 C -0.3175(6) 0.1457(6) 1.5453(5)
H7 H -0.3604 0.2067 1.4951
C10 C -0.3096(5) -0.0255(6) 1.6857(4)
H8 H -0.3476 -0.0865 1.7339
C11 C 0.4356(5) 0.1448(6) 1.7475(5)
C12 C 0.4628(6) 0.1962(7) 1.8199(6)
H9 H 0.4324 0.2811 1.7963
H10 H 0.4236 0.1564 1.8844
C13 C 0.5969(6) 0.1792(6) 1.8302(5)
C14 C 0.6488(6) 0.0962(6) 1.9156(5)
H11 H 0.6012 0.0484 1.9667
C15 C 0.7711(6) 0.0822(5) 1.9270(5)
C16 C 0.8420(6) 0.1493(6) 1.8491(5)
H12 H 0.9237 0.1396 1.8549
C17 C 0.7916(7) 0.2319(7) 1.7614(6)
H13 H 0.8397 0.2774 1.7091
C18 C 0.6698(7) 0.2459(7) 1.7526(5)
H14 H 0.6366 0.3007 1.6940
C19 C 0.8242(6) -0.0088(6) 2.0224(5)
H15 H 0.7632 -0.0203 2.0761
H16 H 0.8873 0.0240 2.0378
C20 C 0.8741(5) -0.1296(5) 2.0190(5)
C21 C 0.6854(5) -0.4239(5) 2.0696(5)
H17 H 0.7292 -0.4891 2.1160
C22 C 0.6753(5) -0.2414(6) 1.9414(4)
H18 H 0.7129 -0.1775 1.8970
C23 C 0.5549(5) -0.2353(5) 1.9356(4)
H19 H 0.5129 -0.1692 1.8885
C24 C 0.5666(5) -0.4259(5) 2.0694(5)
H20 H 0.5318 -0.4914 2.1147
C25 C 0.4967(5) -0.3299(5) 2.0015(4)
C26 C 0.3668(5) -0.3289(5) 2.0017(4)
C27 C 0.3034(5) -0.2690(6) 1.9153(5)
H21 H 0.3422 -0.2268 1.8551
C28 C 0.3012(5) -0.3861(5) 2.0882(4)
H22 H 0.3390 -0.4270 2.1476
C29 C 0.1831(5) -0.2736(6) 1.9206(4)
H23 H 0.1435 -0.2361 1.8619
C30 C 0.1796(5) -0.3830(6) 2.0871(5)
H24 H 0.1377 -0.4208 2.1468
C31 C 1.0052(5) -0.4101(5) 1.8320(4)
C32 C 1.0107(6) -0.3561(8) 1.7181(5)
H25 H 1.0129 -0.2704 1.6947
H26 H 1.0833 -0.3914 1.6931
C33 C 0.9069(5) -0.3773(6) 1.6784(4)
C34 C 0.9224(8) -0.4382(8) 1.6122(6)
H27 H 0.9992 -0.4665 1.5952
C35 C 0.8283(9) -0.4570(9) 1.5725(7)
H28 H 0.8415 -0.4954 1.5279
C36 C 0.7141(8) -0.4182(8) 1.5994(6)
H29 H 0.6498 -0.4303 1.5726
C37 C 0.6942(6) -0.3611(5) 1.6664(5)
C38 C 0.7885(6) -0.3432(6) 1.7036(5)
H30 H 0.7737 -0.3059 1.7489
C39 C 0.5665(6) -0.3146(6) 1.6903(4)
H31 H 0.5596 -0.3194 1.7584
H32 H 0.5135 -0.3660 1.6856
C40 C 0.5271(5) -0.1850(5) 1.6208(4)
N1 N 0.2446(4) 0.0635(4) 1.6208(4)
N2 N -0.3756(4) 0.0593(4) 1.6127(3)
N3 N 0.7427(4) -0.3346(4) 2.0076(3)
N4 N 0.1192(4) -0.3281(4) 2.0041(4)
O1 O 0.4302(4) 0.0352(4) 1.7750(3)
O2 O 0.4234(4) 0.2136(4) 1.6579(3)
O4 O 0.8826(4) -0.2206(4) 2.0981(3)
O6 O 0.9062(4) -0.1385(4) 1.9359(3)
O7 O 1.0598(4) -0.5118(4) 1.8718(4)
O8 O 0.9472(4) -0.3451(5) 1.8729(4)
O9 O 0.4572(4) -0.1216(4) 1.6589(3)
O10 O 0.5657(4) -0.1509(4) 1.5323(3)
Co1 Co 0.43495(6) 0.05964(6) 1.61593(5)
Co2 Co 0.93211(6) -0.33242(6) 2.00769(5)
N2_2 N 0.6244(4) 0.0593(4) 1.6127(3)
N4_2 N 1.1192(4) -0.3281(4) 2.0041(4)
O7A O 0.9402(4) -0.4882(4) 2.1282(4)
O10A O 0.4343(4) 0.1509(4) 1.4677(3)
Co1_2 Co -0.56505(6) 0.05964(6) 1.61593(5)
Co1A Co 0.56505(6) -0.05964(6) 1.38407(5)
Co2_2 Co -0.06789(6) -0.33242(6) 2.00769(5)
Co2A Co 1.06789(6) -0.66758(6) 1.99231(5)
O3 O 0.1862(9) 0.3563(9) 0.6983(7)
O5? O 0.5065(17) -0.4439(16) 1.4500(13)
loop_
_geom_bond_atom_site_label_1
_geom_bond_atom_site_label_2
_geom_bond_site_symmetry_1
_geom_bond_site_symmetry_2
C1 H1 1_555 1_555
C2 H2 1_555 1_555
C3 C2 1_555 1_555
H3 C3 1_555 1_555
C4 C1 1_555 1_555
H4 C4 1_555 1_555
C5 C3 1_555 1_555
C6 C5 1_555 1_555
C7 C6 1_555 1_555
H5 C7 1_555 1_555
C8 C6 1_555 1_555
H6 C8 1_555 1_555
C9 C7 1_555 1_555
H7 C9 1_555 1_555
C10 C8 1_555 1_555
H8 C10 1_555 1_555
C11 C12 1_555 1_555
C12 H9 1_555 1_555
H10 C12 1_555 1_555
C13 C12 1_555 1_555
C14 C13 1_555 1_555
H11 C14 1_555 1_555
C15 C14 1_555 1_555
C16 C15 1_555 1_555
H12 C16 1_555 1_555
C17 C16 1_555 1_555
H13 C17 1_555 1_555
C18 C13 1_555 1_555
H14 C18 1_555 1_555
C19 C15 1_555 1_555
H15 C19 1_555 1_555
H16 C19 1_555 1_555
C20 C19 1_555 1_555
C21 H17 1_555 1_555
C22 H18 1_555 1_555
C23 C22 1_555 1_555
H19 C23 1_555 1_555
C24 C21 1_555 1_555
H20 C24 1_555 1_555
C25 C23 1_555 1_555
C26 C25 1_555 1_555
C27 C26 1_555 1_555
H21 C27 1_555 1_555
C28 C26 1_555 1_555
H22 C28 1_555 1_555
C29 C27 1_555 1_555
H23 C29 1_555 1_555
C30 C28 1_555 1_555
H24 C30 1_555 1_555
C31 C32 1_555 1_555
C32 H25 1_555 1_555
H26 C32 1_555 1_555
C33 C32 1_555 1_555
C34 C33 1_555 1_555
H27 C34 1_555 1_555
C35 C34 1_555 1_555
H28 C35 1_555 1_555
C36 C35 1_555 1_555
H29 C36 1_555 1_555
C37 C36 1_555 1_555
C38 C33 1_555 1_555
H30 C38 1_555 1_555
C39 C37 1_555 1_555
H31 C39 1_555 1_555
H32 C39 1_555 1_555
C40 C39 1_555 1_555
N1 C1 1_555 1_555
N2 C9 1_555 1_555
N3 C21 1_555 1_555
N4 C29 1_555 1_555
O1 C11 1_555 1_555
O2 C11 1_555 1_555
O4 C20 1_555 1_555
O6 C20 1_555 1_555
O7 C31 1_555 1_555
O8 C31 1_555 1_555
O9 C40 1_555 1_555
O10 C40 1_555 1_555
Co1 N1 1_555 1_555
Co2 N3 1_555 1_555
N2_2 Co1 1_555 1_555
N4_2 Co2 1_555 1_555
O7A Co2 1_555 1_555
O10A Co1 1_555 1_555
Co1_2 N2 1_555 1_555
Co1A O10 1_555 1_555
Co2_2 N4 1_555 1_555
Co2A O7 1_555 1_555
C2 N1 1_555 1_555
C4 C5 1_555 1_555
C10 N2 1_555 1_555
C17 C18 1_555 1_555
C22 N3 1_555 1_555
C24 C25 1_555 1_555
C30 N4 1_555 1_555
C37 C38 1_555 1_555
O1 Co1 1_555 1_555
O2 Co1 1_555 1_555
O4 Co2 1_555 1_555
O6 Co2 1_555 1_555
O8 Co2 1_555 1_555
O9 Co1 1_555 1_555

#END
