
#######################################################################
#
#                 Cambridge Crystallographic Data Centre
#                                CCDC 
#
#######################################################################
#
# If this CIF has been generated from an entry in the Cambridge 
# Structural Database, then it will include bibliographic, chemical, 
# crystal, experimental, refinement or atomic coordinate data resulting 
# from the CCDC's data processing and validation procedures.
#
#######################################################################

data_IQIWUA
_symmetry_cell_setting           monoclinic
_symmetry_space_group_name_H-M   'P 21/c'
_symmetry_Int_Tables_number      14
_space_group_name_Hall           '-P 2ybc'
loop_
_symmetry_equiv_pos_site_id
_symmetry_equiv_pos_as_xyz
1 x,y,z
2 x,1/2-y,1/2+z
3 -x,-y,-z
4 -x,1/2+y,1/2-z
_cell_length_a                   8.53170(10)
_cell_length_b                   40.5665(2)
_cell_length_c                   16.63820(10)
_cell_angle_alpha                90.00
_cell_angle_beta                 104.5090(10)
_cell_angle_gamma                90.00
_cell_volume                     5574.85
loop_
_atom_site_label
_atom_site_type_symbol
_atom_site_fract_x
_atom_site_fract_y
_atom_site_fract_z
Cd1 Cd 0.03794(7) 0.166017(14) 0.13287(4)
Cd2 Cd -0.17319(8) 0.008180(16) 0.24528(4)
Cd3 Cd -0.53136(7) 0.153944(14) 0.61296(4)
S1 S -0.5638(2) 0.04842(5) 0.23555(13)
S2 S -0.2882(3) 0.08856(5) -0.29635(13)
N1 N -0.0529(8) 0.04654(16) 0.3451(4)
N2 N -0.2474(8) -0.00414(18) 0.3652(4)
N3 N 0.2297(8) 0.19941(16) 0.2219(4)
N4 N -0.0306(8) 0.22129(16) 0.1069(4)
N5 N -0.4116(8) 0.20311(17) 0.6697(4)
N6 N -0.6623(8) 0.19912(17) 0.5346(4)
N7 N -0.1723(9) 0.02633(18) 0.1146(4)
N8 N -0.2653(9) -0.03502(17) 0.1551(4)
C1 C -0.4523(9) 0.08301(19) 0.2860(5)
C2 C -0.3476(10) 0.09970(19) 0.2489(5)
H1 H -0.3342 0.0927 0.1978
C3 C -0.2622(9) 0.1270(2) 0.2880(5)
C4 C -0.2841(9) 0.13710(19) 0.3633(5)
H2 H -0.2238 0.1547 0.3907
C5 C -0.3955(9) 0.12133(19) 0.3994(5)
C6 C -0.4765(9) 0.09402(19) 0.3605(5)
H3 H -0.5483 0.0829 0.3846
C7 C -0.1444(10) 0.1451(2) 0.2482(5)
C8 C -0.4308(11) 0.1342(2) 0.4783(5)
C9 C -0.1261(9) 0.11394(19) -0.2431(5)
C10 C -0.0081(10) 0.1232(2) -0.2813(5)
H4 H -0.0151 0.1166 -0.3357
C11 C 0.1224(10) 0.1422(2) -0.2390(5)
C12 C 0.1280(10) 0.1532(2) -0.1595(5)
H5 H 0.2138 0.1662 -0.1313
C13 C 0.0049(9) 0.14464(19) -0.1217(5)
C14 C -0.1196(10) 0.12469(19) -0.1626(5)
H6 H -0.1995 0.1183 -0.1366
C15 C 0.2558(10) 0.1500(2) -0.2801(5)
C16 C 0.0152(11) 0.1563(2) -0.0342(5)
C17 C 0.0476(10) 0.0707(2) 0.3348(5)
H7 H 0.0763 0.0717 0.2846
C18 C 0.1101(10) 0.0939(2) 0.3931(6)
H8 H 0.1808 0.1100 0.3834
C19 C 0.0651(11) 0.0928(2) 0.4672(6)
H9 H 0.1045 0.1083 0.5085
C20 C -0.0386(11) 0.0685(2) 0.4788(5)
H10 H -0.0735 0.0680 0.5274
C21 C -0.0919(9) 0.0446(2) 0.4183(5)
C22 C -0.1946(10) 0.0161(2) 0.4292(5)
C23 C -0.2318(11) 0.0105(2) 0.5046(5)
H11 H -0.1950 0.0248 0.5489
C24 C -0.3236(11) -0.0164(2) 0.5131(6)
H12 H -0.3476 -0.0206 0.5637
C25 C -0.3795(11) -0.0370(2) 0.4475(6)
H13 H -0.4408 -0.0555 0.4523
C26 C -0.3421(12) -0.0294(3) 0.3743(6)
H14 H -0.3850 -0.0426 0.3283
C27 C 0.3529(11) 0.1876(2) 0.2821(6)
H15 H 0.3709 0.1649 0.2847
C28 C 0.4528(10) 0.2071(2) 0.3396(5)
H16 H 0.5349 0.1979 0.3811
C29 C 0.4302(11) 0.2409(2) 0.3353(5)
H17 H 0.4976 0.2548 0.3731
C30 C 0.3053(11) 0.2534(2) 0.2737(5)
H18 H 0.2882 0.2761 0.2694
C31 C 0.2059(10) 0.23250(18) 0.2184(5)
C32 C 0.0673(9) 0.24414(19) 0.1507(5)
C33 C 0.0397(11) 0.2778(2) 0.1343(6)
H19 H 0.1098 0.2933 0.1652
C34 C -0.0900(12) 0.2878(2) 0.0732(6)
H20 H -0.1111 0.3101 0.0632
C35 C -0.1887(11) 0.2645(3) 0.0268(6)
H21 H -0.2760 0.2706 -0.0164
C36 C -0.1552(11) 0.2313(2) 0.0456(6)
H22 H -0.2224 0.2154 0.0143
C37 C -0.2879(11) 0.2035(2) 0.7369(5)
H23 H -0.2485 0.1836 0.7618
C38 C -0.2167(12) 0.2325(3) 0.7707(6)
H24 H -0.1313 0.2322 0.8181
C39 C -0.2725(13) 0.2617(2) 0.7340(6)
H25 H -0.2233 0.2815 0.7548
C40 C -0.4035(11) 0.2615(2) 0.6656(6)
H26 H -0.4455 0.2812 0.6407
C41 C -0.4715(10) 0.23179(18) 0.6345(5)
C42 C -0.6143(10) 0.22981(19) 0.5600(5)
C43 C -0.6933(11) 0.2574(2) 0.5210(6)
H27 H -0.6578 0.2784 0.5396
C44 C -0.8240(11) 0.2535(2) 0.4550(6)
H28 H -0.8794 0.2719 0.4288
C45 C -0.8739(11) 0.2221(2) 0.4271(6)
H29 H -0.9616 0.2189 0.3817
C46 C -0.7896(11) 0.1959(2) 0.4688(6)
H30 H -0.8225 0.1748 0.4505
C47 C -0.1173(12) 0.0559(2) 0.0968(6)
H31 H -0.0841 0.0711 0.1393
C48 C -0.1084(15) 0.0643(3) 0.0185(7)
H32 H -0.0667 0.0846 0.0082
C49 C -0.1623(18) 0.0420(3) -0.0445(7)
H33 H -0.1578 0.0472 -0.0983
C50 C -0.2227(16) 0.0122(3) -0.0282(6)
H34 H -0.2602 -0.0028 -0.0709
C51 C -0.2274(11) 0.0045(2) 0.0525(5)
C52 C -0.2895(11) -0.0279(2) 0.0741(5)
C53 C -0.3752(15) -0.0488(3) 0.0130(7)
H35 H -0.3970 -0.0428 -0.0426
C54 C -0.4279(17) -0.0787(3) 0.0360(8)
H36 H -0.4805 -0.0936 -0.0045
C55 C -0.4032(13) -0.0865(2) 0.1174(7)
H37 H -0.4397 -0.1063 0.1341
C56 C -0.3224(13) -0.0640(2) 0.1743(7)
H38 H -0.3059 -0.0691 0.2302
O1 O -0.1443(8) 0.13624(16) 0.1746(4)
O2 O -0.0592(8) 0.16688(16) 0.2862(4)
O3 O -0.3370(7) 0.15477(16) 0.5214(4)
O4 O -0.5561(7) 0.12406(14) 0.4957(3)
O5 O 0.2350(7) 0.14144(15) -0.3550(4)
O6 O 0.3800(8) 0.16471(15) -0.2397(4)
O7 O 0.1396(7) 0.17042(15) 0.0052(4)
O8 O -0.1031(7) 0.15040(16) -0.0038(3)
O9 O -0.4518(7) 0.03057(13) 0.1981(3)
O10 O -0.6147(7) 0.02994(14) 0.2991(3)
O11 O -0.7004(7) 0.06158(15) 0.1727(4)
O12 O -0.2525(8) 0.07916(18) -0.3728(4)
O13 O -0.4326(7) 0.10928(15) -0.3080(4)
O14 O -0.2942(8) 0.06170(14) -0.2419(4)
O15 O 0.2494(8) 0.12848(15) 0.1516(4)
O16 O 0.1018(7) -0.00853(15) 0.2651(4)
O5_2 O -0.7650(7) 0.14144(15) 0.6450(4)
O13_2 O -0.4326(7) 0.10928(15) 0.6920(4)
Cd3_2 Cd 0.46864(7) 0.153944(14) -0.38704(4)
Cd3_3 Cd -0.53136(7) 0.153944(14) -0.38704(4)
O17 O 0.5097(9) 0.15424(19) 0.0882(5)
O18 O -1.4325(9) 0.1726(2) -0.0729(5)
loop_
_geom_bond_atom_site_label_1
_geom_bond_atom_site_label_2
_geom_bond_site_symmetry_1
_geom_bond_site_symmetry_2
Cd1 N3 1_555 1_555
Cd2 N1 1_555 1_555
Cd3 N5 1_555 1_555
S1 C1 1_555 1_555
S2 C9 1_555 1_555
N1 C17 1_555 1_555
N2 Cd2 1_555 1_555
N3 C27 1_555 1_555
N4 Cd1 1_555 1_555
N5 C37 1_555 1_555
N6 Cd3 1_555 1_555
N7 Cd2 1_555 1_555
N8 Cd2 1_555 1_555
C1 C2 1_555 1_555
C2 H1 1_555 1_555
C3 C2 1_555 1_555
C4 C3 1_555 1_555
H2 C4 1_555 1_555
C5 C4 1_555 1_555
C6 C1 1_555 1_555
H3 C6 1_555 1_555
C7 C3 1_555 1_555
C8 C5 1_555 1_555
C9 C10 1_555 1_555
C10 H4 1_555 1_555
C11 C10 1_555 1_555
C12 C11 1_555 1_555
H5 C12 1_555 1_555
C13 C12 1_555 1_555
C14 C9 1_555 1_555
H6 C14 1_555 1_555
C15 C11 1_555 1_555
C16 C13 1_555 1_555
C17 H7 1_555 1_555
C18 C17 1_555 1_555
H8 C18 1_555 1_555
C19 C18 1_555 1_555
H9 C19 1_555 1_555
C20 C19 1_555 1_555
H10 C20 1_555 1_555
C21 N1 1_555 1_555
C22 N2 1_555 1_555
C23 C22 1_555 1_555
H11 C23 1_555 1_555
C24 C23 1_555 1_555
H12 C24 1_555 1_555
C25 C24 1_555 1_555
H13 C25 1_555 1_555
C26 N2 1_555 1_555
H14 C26 1_555 1_555
C27 H15 1_555 1_555
C28 C27 1_555 1_555
H16 C28 1_555 1_555
C29 C28 1_555 1_555
H17 C29 1_555 1_555
C30 C29 1_555 1_555
H18 C30 1_555 1_555
C31 N3 1_555 1_555
C32 N4 1_555 1_555
C33 C32 1_555 1_555
H19 C33 1_555 1_555
C34 C33 1_555 1_555
H20 C34 1_555 1_555
C35 C34 1_555 1_555
H21 C35 1_555 1_555
C36 N4 1_555 1_555
H22 C36 1_555 1_555
C37 H23 1_555 1_555
C38 C37 1_555 1_555
H24 C38 1_555 1_555
C39 C38 1_555 1_555
H25 C39 1_555 1_555
C40 C39 1_555 1_555
H26 C40 1_555 1_555
C41 N5 1_555 1_555
C42 N6 1_555 1_555
C43 C42 1_555 1_555
H27 C43 1_555 1_555
C44 C43 1_555 1_555
H28 C44 1_555 1_555
C45 C44 1_555 1_555
H29 C45 1_555 1_555
C46 N6 1_555 1_555
H30 C46 1_555 1_555
C47 N7 1_555 1_555
H31 C47 1_555 1_555
C48 C47 1_555 1_555
H32 C48 1_555 1_555
C49 C48 1_555 1_555
H33 C49 1_555 1_555
C50 C49 1_555 1_555
H34 C50 1_555 1_555
C51 N7 1_555 1_555
C52 N8 1_555 1_555
C53 C52 1_555 1_555
H35 C53 1_555 1_555
C54 C53 1_555 1_555
H36 C54 1_555 1_555
C55 C54 1_555 1_555
H37 C55 1_555 1_555
C56 N8 1_555 1_555
H38 C56 1_555 1_555
O1 Cd1 1_555 1_555
O2 C7 1_555 1_555
O3 Cd3 1_555 1_555
O4 Cd3 1_555 1_555
O5 C15 1_555 1_555
O6 C15 1_555 1_555
O7 Cd1 1_555 1_555
O8 Cd1 1_555 1_555
O9 Cd2 1_555 1_555
O10 S1 1_555 1_555
O11 S1 1_555 1_555
O12 S2 1_555 1_555
O13 S2 1_555 1_555
O14 S2 1_555 1_555
O15 Cd1 1_555 1_555
O16 Cd2 1_555 1_555
O5_2 Cd3 1_555 1_555
O13_2 Cd3 1_555 1_555
Cd3_2 O5 1_555 1_555
Cd3_3 O13 1_555 1_555
S1 O9 1_555 1_555
C5 C6 1_555 1_555
C7 O1 1_555 1_555
C8 O3 1_555 1_555
C8 O4 1_555 1_555
C13 C14 1_555 1_555
C16 O7 1_555 1_555
C16 O8 1_555 1_555
C20 C21 1_555 1_555
C21 C22 1_555 1_555
C25 C26 1_555 1_555
C30 C31 1_555 1_555
C31 C32 1_555 1_555
C35 C36 1_555 1_555
C40 C41 1_555 1_555
C41 C42 1_555 1_555
C45 C46 1_555 1_555
C50 C51 1_555 1_555
C51 C52 1_555 1_555
C55 C56 1_555 1_555

#END
