
#######################################################################
#
#                 Cambridge Crystallographic Data Centre
#                                CCDC 
#
#######################################################################
#
# If this CIF has been generated from an entry in the Cambridge 
# Structural Database, then it will include bibliographic, chemical, 
# crystal, experimental, refinement or atomic coordinate data resulting 
# from the CCDC's data processing and validation procedures.
#
#######################################################################

data_IQIXAH
_symmetry_cell_setting           triclinic
_symmetry_space_group_name_H-M   'P -1'
_symmetry_Int_Tables_number      2
_space_group_name_Hall           '-P 1'
loop_
_symmetry_equiv_pos_site_id
_symmetry_equiv_pos_as_xyz
1 x,y,z
2 -x,-y,-z
_cell_length_a                   8.7273(3)
_cell_length_b                   9.5184(4)
_cell_length_c                   13.7818(6)
_cell_angle_alpha                96.608(2)
_cell_angle_beta                 94.816(2)
_cell_angle_gamma                117.269(2)
_cell_volume                     998.675
loop_
_atom_site_label
_atom_site_type_symbol
_atom_site_fract_x
_atom_site_fract_y
_atom_site_fract_z
Zn1 Zn 0.90520(10) 0.66454(10) 0.01262(6)
S1 S 1.7458(2) 0.9819(2) 0.33208(13)
N1 N 0.7517(7) 0.6486(7) -0.1136(4)
N2 N 0.2291(9) 0.5694(10) -0.5529(5)
H1 H 0.1664 0.5615 -0.6069
C1 C 0.8108(9) 0.7541(9) -0.1757(5)
H2 H 0.9229 0.8400 -0.1587
C2 C 0.7133(9) 0.7410(9) -0.2634(6)
H3 H 0.7597 0.8161 -0.3046
C3 C 0.5448(9) 0.6145(8) -0.2897(5)
C4 C 0.4836(9) 0.5044(9) -0.2258(5)
H4 H 0.3718 0.4177 -0.2405
C5 C 0.5905(9) 0.5260(9) -0.1418(6)
H5 H 0.5485 0.4500 -0.1007
C6 C 0.4331(10) 0.5966(9) -0.3824(6)
C7 C 0.3039(11) 0.4491(10) -0.4308(6)
H6 H 0.2869 0.3571 -0.4059
C8 C 0.1993(12) 0.4360(12) -0.5159(7)
H7 H 0.1095 0.3366 -0.5471
C9 C 0.3538(11) 0.7136(12) -0.5077(6)
H8 H 0.3698 0.8038 -0.5346
C10 C 0.4579(10) 0.7314(10) -0.4233(6)
H9 H 0.5450 0.8328 -0.3930
C11 C 1.4765(9) 0.9560(8) 0.1983(5)
H10 H 1.4071 0.8608 0.2197
C12 C 1.4065(9) 1.0091(8) 0.1253(5)
C13 C 1.5110(9) 1.1477(8) 0.0916(5)
H11 H 1.4637 1.1821 0.0424
C14 C 1.6889(8) 1.2370(8) 0.1312(5)
C15 C 1.7570(9) 1.1846(8) 0.2054(5)
H12 H 1.8744 1.2429 0.2324
C16 C 1.6509(9) 1.0472(8) 0.2385(5)
C17 C 1.2200(8) 0.9101(8) 0.0767(5)
C18 C 1.8084(9) 1.3822(8) 0.0910(5)
O1 O 1.1298(6) 0.7784(6) 0.1067(4)
O2 O 1.1578(6) 0.9515(6) 0.0076(4)
O3 O 1.7431(6) 1.4611(6) 0.0535(4)
O4 O 1.9677(6) 1.4174(5) 0.0973(4)
O5 O 1.6063(8) 0.8527(9) 0.3634(6)
O6 O 1.8462(9) 1.1180(7) 0.4083(5)
O7 O 1.8578(9) 0.9319(9) 0.2846(5)
O8 O 0.7882(6) 0.7965(6) 0.0850(4)
O3_2 O 0.7431(6) 0.4611(6) 0.0535(4)
O4A O 1.0323(6) 0.5826(5) -0.0973(4)
Zn1_2 Zn 1.90520(10) 1.66454(10) 0.01262(6)
Zn1A Zn 2.09480(10) 1.33546(10) -0.01262(6)
O9 O 0.1392(9) 0.9136(9) 0.3849(5)
O10 O 0.0706(10) 0.6098(9) 0.2888(5)
loop_
_geom_bond_atom_site_label_1
_geom_bond_atom_site_label_2
_geom_bond_site_symmetry_1
_geom_bond_site_symmetry_2
Zn1 N1 1_555 1_555
S1 C16 1_555 1_555
N1 C1 1_555 1_555
N2 H1 1_555 1_555
C1 H2 1_555 1_555
C2 C1 1_555 1_555
H3 C2 1_555 1_555
C3 C2 1_555 1_555
C4 C3 1_555 1_555
H4 C4 1_555 1_555
C5 N1 1_555 1_555
H5 C5 1_555 1_555
C6 C3 1_555 1_555
C7 C6 1_555 1_555
H6 C7 1_555 1_555
C8 N2 1_555 1_555
H7 C8 1_555 1_555
C9 N2 1_555 1_555
H8 C9 1_555 1_555
C10 C6 1_555 1_555
H9 C10 1_555 1_555
C11 H10 1_555 1_555
C12 C11 1_555 1_555
C13 C12 1_555 1_555
H11 C13 1_555 1_555
C14 C13 1_555 1_555
C15 C14 1_555 1_555
H12 C15 1_555 1_555
C16 C11 1_555 1_555
C17 C12 1_555 1_555
C18 C14 1_555 1_555
O1 Zn1 1_555 1_555
O2 Zn1 1_555 1_555
O3 C18 1_555 1_555
O4 C18 1_555 1_555
O5 S1 1_555 1_555
O6 S1 1_555 1_555
O7 S1 1_555 1_555
O8 Zn1 1_555 1_555
O3_2 Zn1 1_555 1_555
O4A Zn1 1_555 1_555
Zn1_2 O3 1_555 1_555
Zn1A O4 1_555 1_555
C4 C5 1_555 1_555
C7 C8 1_555 1_555
C9 C10 1_555 1_555
C15 C16 1_555 1_555
C17 O1 1_555 1_555
C17 O2 1_555 1_555

#END
