
#######################################################################
#
#                 Cambridge Crystallographic Data Centre
#                                CCDC 
#
#######################################################################
#
# If this CIF has been generated from an entry in the Cambridge 
# Structural Database, then it will include bibliographic, chemical, 
# crystal, experimental, refinement or atomic coordinate data resulting 
# from the CCDC's data processing and validation procedures.
#
#######################################################################

data_IQOVUG
_symmetry_cell_setting           monoclinic
_symmetry_space_group_name_H-M   'C 2/c'
_symmetry_Int_Tables_number      15
_space_group_name_Hall           '-C 2yn'
loop_
_symmetry_equiv_pos_site_id
_symmetry_equiv_pos_as_xyz
1 x,y,z
2 -x,y,1/2-z
3 1/2+x,1/2+y,z
4 1/2-x,1/2+y,1/2-z
5 -x,-y,-z
6 x,-y,1/2+z
7 1/2-x,1/2-y,-z
8 1/2+x,1/2-y,1/2+z
_cell_length_a                   14.4621(10)
_cell_length_b                   17.0741(11)
_cell_length_c                   9.1373(6)
_cell_angle_alpha                90
_cell_angle_beta                 115.4250(10)
_cell_angle_gamma                90
_cell_volume                     2037.73
loop_
_atom_site_label
_atom_site_type_symbol
_atom_site_fract_x
_atom_site_fract_y
_atom_site_fract_z
Nd1 Nd 0.0000 0.406904(13) -0.2500
Ag1 Ag 0.0000 0.14133(3) -1.2500
C1 C 0.2356(3) 0.1723(2) -0.2491(5)
H1 H 0.2504 0.1812 -0.1409
C2 C 0.1646(3) 0.2188(2) -0.3688(5)
C3 C 0.1376(3) 0.2029(2) -0.5322(4)
H2 H 0.0890 0.2334 -0.6128
C4 C 0.1838(3) 0.1417(2) -0.5719(4)
C5 C 0.2589(3) 0.0970(2) -0.4535(5)
H3 H 0.2917 0.0571 -0.4823
C6 C 0.2845(3) 0.1125(2) -0.2909(4)
C7 C 0.1143(3) 0.1640(3) -0.8727(5)
H4 H 0.1081 0.2183 -0.8744
C8 C 0.1462(4) 0.0453(3) -0.7937(5)
H5 H 0.1668 0.0012 -0.7277
C9 C 0.1107(4) 0.2850(2) -0.3270(6)
C10 C 0.3604(3) 0.0596(2) -0.1628(4)
N1 N 0.1507(3) 0.11951(19) -0.7380(4)
N2 N 0.0891(3) 0.1201(2) -0.9996(4)
N3 N 0.1096(3) 0.0435(3) -0.9509(4)
O1 O 0.1224(3) 0.2919(2) -0.1841(4)
O2 O 0.0512(3) 0.32860(19) -0.4382(4)
O3 O 0.3730(2) 0.06886(17) -0.0198(3)
O4 O 0.4034(2) 0.00773(18) -0.2078(3)
Nd1F Nd 0.5000 0.093096(13) 0.2500
Nd1B Nd 0.5000 -0.093096(13) -0.2500
Nd1F_2 Nd -0.5000 0.093096(13) -0.7500
Nd1B_2 Nd -0.5000 -0.093096(13) -0.2500
Ag1_2 Ag 0.0000 0.14133(3) 0.7500
C1A C -0.2356(3) 0.1723(2) -0.2509(5)
H1A H -0.2504 0.1812 -0.3591
C2A C -0.1646(3) 0.2188(2) -0.1312(5)
C3A C -0.1376(3) 0.2029(2) 0.0322(4)
H2A H -0.0890 0.2334 0.1128
C4A C -0.1838(3) 0.1417(2) 0.0719(4)
C5A C -0.2589(3) 0.0970(2) -0.0465(5)
H3A H -0.2917 0.0571 -0.0177
C6A C -0.2845(3) 0.1125(2) -0.2091(4)
C7A C -0.1143(3) 0.1640(3) 0.3727(5)
H4A H -0.1081 0.2183 0.3744
C8A C -0.1462(4) 0.0453(3) 0.2937(5)
H5A H -0.1668 0.0012 0.2277
C9A C -0.1107(4) 0.2850(2) -0.1730(6)
C10A C -0.3604(3) 0.0596(2) -0.3372(4)
N1A N -0.1507(3) 0.11951(19) 0.2380(4)
N2A N -0.0891(3) 0.1201(2) 0.4996(4)
N2A_2 N -0.0891(3) 0.1201(2) -1.5004(4)
N3A N -0.1096(3) 0.0435(3) 0.4509(4)
O1A O -0.1224(3) 0.2919(2) -0.3159(4)
O2A O -0.0512(3) 0.32860(19) -0.0618(4)
O3A O -0.3730(2) 0.06886(17) -0.4802(3)
O3F O 0.1270(2) 0.43114(17) 0.0198(3)
O3G O -0.1270(2) 0.43114(17) -0.5198(3)
O4A O -0.4034(2) 0.00773(18) -0.2922(3)
O4B O -0.0966(2) 0.50773(18) -0.2078(3)
O4C O 0.0966(2) 0.50773(18) -0.2922(3)
loop_
_geom_bond_atom_site_label_1
_geom_bond_atom_site_label_2
_geom_bond_site_symmetry_1
_geom_bond_site_symmetry_2
Nd1 O1 1_555 1_555
Ag1 N2 1_555 1_555
C1 H1 1_555 1_555
C2 C1 1_555 1_555
C3 C2 1_555 1_555
H2 C3 1_555 1_555
C4 C3 1_555 1_555
C5 C4 1_555 1_555
H3 C5 1_555 1_555
C6 C1 1_555 1_555
C7 H4 1_555 1_555
C8 H5 1_555 1_555
C9 C2 1_555 1_555
C10 C6 1_555 1_555
N1 C4 1_555 1_555
N2 C7 1_555 1_555
N3 C8 1_555 1_555
O1 C9 1_555 1_555
O2 Nd1 1_555 1_555
O3 C10 1_555 1_555
O4 C10 1_555 1_555
Nd1F O3 1_555 1_555
Nd1B O4 1_555 1_555
Nd1F_2 O3A 1_555 1_555
Nd1B_2 O4A 1_555 1_555
Ag1_2 N2A 1_555 1_555
C1A H1A 1_555 1_555
C2A C1A 1_555 1_555
C3A C2A 1_555 1_555
H2A C3A 1_555 1_555
C4A C3A 1_555 1_555
C5A C4A 1_555 1_555
H3A C5A 1_555 1_555
C6A C1A 1_555 1_555
C7A H4A 1_555 1_555
C8A H5A 1_555 1_555
C9A C2A 1_555 1_555
C10A C6A 1_555 1_555
N1A C4A 1_555 1_555
N2A C7A 1_555 1_555
N2A_2 Ag1 1_555 1_555
N3A C8A 1_555 1_555
O1A Nd1 1_555 1_555
O2A Nd1 1_555 1_555
O3A C10A 1_555 1_555
O3F Nd1 1_555 1_555
O3G Nd1 1_555 1_555
O4A C10A 1_555 1_555
O4B Nd1 1_555 1_555
O4C Nd1 1_555 1_555
C5 C6 1_555 1_555
C7 N1 1_555 1_555
C8 N1 1_555 1_555
C9 O2 1_555 1_555
N2 N3 1_555 1_555
C5A C6A 1_555 1_555
C7A N1A 1_555 1_555
C8A N1A 1_555 1_555
C9A O1A 1_555 1_555
C9A O2A 1_555 1_555
N2A N3A 1_555 1_555

#END
