
#######################################################################
#
#                 Cambridge Crystallographic Data Centre
#                                CCDC 
#
#######################################################################
#
# If this CIF has been generated from an entry in the Cambridge 
# Structural Database, then it will include bibliographic, chemical, 
# crystal, experimental, refinement or atomic coordinate data resulting 
# from the CCDC's data processing and validation procedures.
#
#######################################################################

data_IQOYOD
_symmetry_cell_setting           monoclinic
_symmetry_space_group_name_H-M   'P 21'
_symmetry_Int_Tables_number      4
_space_group_name_Hall           'P 2yb'
loop_
_symmetry_equiv_pos_site_id
_symmetry_equiv_pos_as_xyz
1 x,y,z
2 -x,1/2+y,-z
_cell_length_a                   15.993(2)
_cell_length_b                   5.3401(7)
_cell_length_c                   18.709(2)
_cell_angle_alpha                90
_cell_angle_beta                 101.289(2)
_cell_angle_gamma                90
_cell_volume                     1566.91
loop_
_atom_site_label
_atom_site_type_symbol
_atom_site_fract_x
_atom_site_fract_y
_atom_site_fract_z
Br1 Br 0.71887(5) 0.1449(3) -1.25802(4)
C1 C 0.8845(5) 0.4584(16) -0.3219(4)
H1 H 0.8834 0.3926 -0.2761
C2 C 0.8613(4) 0.5106(12) -0.4385(3)
C3 C 0.9133(4) 0.7068(13) -0.4069(4)
C4 C 0.9400(4) 0.8992(13) -0.4478(4)
H2 H 0.9739 1.0310 -0.4263
C5 C 0.9127(4) 0.8800(12) -0.5220(4)
H3 H 0.9277 1.0058 -0.5515
C6 C 0.8634(3) 0.6803(15) -0.5552(3)
C7 C 0.8371(4) 0.4934(11) -0.5133(3)
H4 H 0.8042 0.3601 -0.5349
C8 C 0.8413(3) 0.662(2) -0.6365(3)
C9 C 0.9340(5) 0.4000(14) -0.8231(4)
C10 C 0.9102(4) 0.5293(14) -0.8954(4)
C11 C 0.9517(4) 0.7535(12) -0.9070(4)
H5 H 0.9888 0.8263 -0.8680
C12 C 0.9392(4) 0.8685(13) -0.9738(4)
H6 H 0.9657 1.0193 -0.9805
C13 C 0.8852(4) 0.7499(13) -1.0310(4)
C14 C 0.8103(4) 0.6224(19) -1.1360(3)
H7 H 0.7877 0.6148 -1.1857
C15 C 0.8420(4) 0.5324(14) -1.0206(4)
C16 C 0.8522(4) 0.4187(12) -0.9527(3)
H8 H 0.8219 0.2753 -0.9455
C17 C 0.5815(5) -0.1712(15) -1.1644(4)
H9 H 0.5712 -0.1092 -1.2118
C18 C 0.6292(4) -0.2113(12) -1.0499(3)
C19 C 0.5752(4) -0.4106(13) -1.0711(3)
C20 C 0.5612(4) -0.5999(12) -1.0234(4)
H10 H 0.5255 -0.7353 -1.0387
C21 C 0.6037(4) -0.5732(12) -0.9520(4)
H11 H 0.5969 -0.6952 -0.9181
C22 C 0.6569(3) -0.3673(15) -0.9290(3)
C23 C 0.6706(4) -0.1855(12) -0.9778(3)
H12 H 0.7063 -0.0501 -0.9628
C24 C 0.7011(3) -0.349(2) -0.8506(3)
C25 C 0.6059(5) -0.1017(14) -0.6987(4)
C26 C 0.6067(4) -0.2250(13) -0.6259(4)
C27 C 0.6527(4) -0.1211(12) -0.5623(4)
H13 H 0.6855 0.0221 -0.5635
C28 C 0.6483(4) -0.2370(12) -0.4968(4)
C29 C 0.6005(4) -0.4528(14) -0.4960(4)
C30 C 0.5554(5) -0.5631(14) -0.5574(4)
H14 H 0.5246 -0.7099 -0.5558
C31 C 0.5586(4) -0.4429(14) -0.6222(4)
H15 H 0.5275 -0.5093 -0.6653
C32 C 0.6606(4) -0.344(2) -0.3833(3)
H16 H 0.6761 -0.3444 -0.3327
N1 N 0.8445(3) 0.3556(10) -0.3828(3)
N2 N 0.9268(3) 0.6663(17) -0.3321(2)
H17 H 0.9567 0.7578 -0.2988
N3 N 0.8633(4) 0.8010(11) -1.1055(3)
H18 H 0.8809 0.9257 -1.1276
N4 N 0.7932(4) 0.4575(11) -1.0888(3)
N5 N 0.6336(3) -0.0610(11) -1.1102(3)
N6 N 0.5449(3) -0.3788(14) -1.1456(3)
H19 H 0.5096 -0.4742 -1.1738
N7 N 0.6103(4) -0.5186(11) -0.4219(3)
H20 H 0.5883 -0.6464 -0.4046
N8 N 0.6855(4) -0.1706(11) -0.4251(3)
O1 O 0.7043(4) -0.5392(10) -0.8120(3)
O2 O 0.7335(4) -0.1384(10) -0.8297(3)
O3 O 0.8813(3) 0.2507(9) -0.8031(2)
O4 O 1.0064(3) 0.4430(11) -0.7871(3)
O5 O 0.8209(4) 0.4535(10) -0.6630(3)
O6 O 0.8458(4) 0.8596(11) -0.6734(3)
O7 O 0.6631(3) 0.0610(9) -0.7010(2)
O8 O 0.5497(3) -0.1630(10) -0.7499(3)
Cu1 Cu 0.76294(5) 0.09182(16) -0.39058(4)
Cu2 Cu 0.71236(5) 0.1977(2) -1.11371(4)
Er1 Er 0.776100(16) 0.15581(6) -0.746650(13)
Br1_2 Br 0.71887(5) 0.1449(3) -0.25802(4)
O1_2 O 0.7043(4) 0.4608(10) -0.8120(3)
O6_2 O 0.8458(4) -0.1404(11) -0.6734(3)
Cu1_2 Cu 0.76294(5) 0.09182(16) -1.39058(4)
Er1_2 Er 0.776100(16) 1.15581(6) -0.746650(13)
Er1_3 Er 0.776100(16) -0.84419(6) -0.746650(13)
loop_
_geom_bond_atom_site_label_1
_geom_bond_atom_site_label_2
_geom_bond_site_symmetry_1
_geom_bond_site_symmetry_2
Br1 Cu2 1_555 1_555
C1 H1 1_555 1_555
C2 C3 1_555 1_555
C3 C4 1_555 1_555
C4 H2 1_555 1_555
C5 C4 1_555 1_555
H3 C5 1_555 1_555
C6 C5 1_555 1_555
C7 C2 1_555 1_555
H4 C7 1_555 1_555
C8 C6 1_555 1_555
C9 C10 1_555 1_555
C10 C11 1_555 1_555
C11 H5 1_555 1_555
C12 C11 1_555 1_555
H6 C12 1_555 1_555
C13 C12 1_555 1_555
C14 H7 1_555 1_555
C15 C13 1_555 1_555
C16 C10 1_555 1_555
H8 C16 1_555 1_555
C17 H9 1_555 1_555
C18 C19 1_555 1_555
C19 C20 1_555 1_555
C20 H10 1_555 1_555
C21 C20 1_555 1_555
H11 C21 1_555 1_555
C22 C21 1_555 1_555
C23 C18 1_555 1_555
H12 C23 1_555 1_555
C24 C22 1_555 1_555
C25 C26 1_555 1_555
C26 C27 1_555 1_555
C27 H13 1_555 1_555
C28 C27 1_555 1_555
C29 C28 1_555 1_555
C30 C29 1_555 1_555
H14 C30 1_555 1_555
C31 C26 1_555 1_555
H15 C31 1_555 1_555
C32 H16 1_555 1_555
N1 C1 1_555 1_555
N2 C1 1_555 1_555
H17 N2 1_555 1_555
N3 C13 1_555 1_555
H18 N3 1_555 1_555
N4 C14 1_555 1_555
N5 C17 1_555 1_555
N6 C17 1_555 1_555
H19 N6 1_555 1_555
N7 C29 1_555 1_555
H20 N7 1_555 1_555
N8 C28 1_555 1_555
O1 C24 1_555 1_555
O2 C24 1_555 1_555
O3 C9 1_555 1_555
O4 C9 1_555 1_555
O5 C8 1_555 1_555
O6 C8 1_555 1_555
O7 C25 1_555 1_555
O8 C25 1_555 1_555
Cu1 N1 1_555 1_555
Cu2 N4 1_555 1_555
Er1 O2 1_555 1_555
Br1_2 Cu1 1_555 1_555
O1_2 Er1 1_555 1_555
O6_2 Er1 1_555 1_555
Cu1_2 Br1 1_555 1_555
Er1_2 O6 1_555 1_555
Er1_3 O1 1_555 1_555
C2 N1 1_555 1_555
C3 N2 1_555 1_555
C6 C7 1_555 1_555
C14 N3 1_555 1_555
C15 C16 1_555 1_555
C15 N4 1_555 1_555
C18 N5 1_555 1_555
C19 N6 1_555 1_555
C22 C23 1_555 1_555
C30 C31 1_555 1_555
C32 N7 1_555 1_555
C32 N8 1_555 1_555
N5 Cu2 1_555 1_555
N8 Cu1 1_555 1_555
O3 Er1 1_555 1_555
O5 Er1 1_555 1_555
O7 Er1 1_555 1_555

#END
