
#######################################################################
#
#                 Cambridge Crystallographic Data Centre
#                                CCDC 
#
#######################################################################
#
# If this CIF has been generated from an entry in the Cambridge 
# Structural Database, then it will include bibliographic, chemical, 
# crystal, experimental, refinement or atomic coordinate data resulting 
# from the CCDC's data processing and validation procedures.
#
#######################################################################

data_IQOZOE
_symmetry_cell_setting           monoclinic
_symmetry_space_group_name_H-M   'P 21/c'
_symmetry_Int_Tables_number      14
_space_group_name_Hall           '-P 2ybc'
loop_
_symmetry_equiv_pos_site_id
_symmetry_equiv_pos_as_xyz
1 x,y,z
2 -x,1/2+y,1/2-z
3 -x,-y,-z
4 x,1/2-y,1/2+z
_cell_length_a                   10.446(3)
_cell_length_b                   16.862(2)
_cell_length_c                   7.3912(15)
_cell_angle_alpha                90
_cell_angle_beta                 96.063(19)
_cell_angle_gamma                90
_cell_volume                     1294.61
loop_
_atom_site_label
_atom_site_type_symbol
_atom_site_fract_x
_atom_site_fract_y
_atom_site_fract_z
Co1 Co 0.358060(14) -0.073500(9) 0.23007(3)
O1 O 0.36875(8) -0.06610(5) -0.04911(13)
H1 H 0.4133(2) -0.0939(2) -0.1172(4)
H2 H 0.29755(18) -0.0917(2) -0.0528(10)
O2 O 0.37046(8) -0.06994(5) 0.51221(12)
H3 H 0.45296(17) -0.0732(8) 0.5301(8)
H4 H 0.3518(3) -0.0689(9) 0.6228(3)
O5 O -0.41357(8) -0.43911(5) 0.26031(14)
O6 O -0.21681(8) -0.48418(5) 0.27989(15)
O7 O -0.32062(10) -0.06491(6) 0.2683(2)
O8 O -0.48625(8) -0.14799(6) 0.24991(15)
N1 N 0.06588(9) -0.24090(6) 0.21499(15)
N2 N 0.11354(9) -0.16779(6) 0.23133(17)
N3 N 0.23655(9) -0.17279(6) 0.20780(15)
C1 C -0.28075(11) -0.20323(7) 0.25470(18)
C2 C -0.32530(11) -0.28023(8) 0.26317(18)
H5 H -0.4124 -0.2893 0.2705
C3 C -0.24279(11) -0.34354(7) 0.26092(18)
C4 C -0.11220(11) -0.33196(7) 0.24384(18)
H6 H -0.0562 -0.3747 0.2395
C5 C -0.06872(10) -0.25384(7) 0.23344(18)
C6 C -0.15000(11) -0.19027(7) 0.23636(19)
H7 H -0.1189 -0.1390 0.2263
C7 C -0.36814(12) -0.13284(7) 0.2566(2)
C8 C -0.29345(11) -0.42651(7) 0.26610(19)
C9 C 0.15822(12) -0.29287(8) 0.1788(2)
H8 H 0.1492 -0.3472 0.1604
C10 C 0.26488(12) -0.24988(8) 0.1748(2)
H9 H 0.3452 -0.2693 0.1532
Co1A Co -0.358060(14) -0.573500(9) 0.26993(3)
Co1_2 Co -0.641940(14) -0.073500(9) 0.23007(3)
O5A O 0.41357(8) 0.06089(5) 0.23969(14)
O6A O 0.21681(8) 0.01582(5) 0.22011(15)
O8_2 O 0.51375(8) -0.14799(6) 0.24991(15)
O3 O 0.0947(3) -0.47937(15) 0.1103(5)
O4 O 0.0583(3) -0.4944(2) 0.3651(10)
loop_
_geom_bond_atom_site_label_1
_geom_bond_atom_site_label_2
_geom_bond_site_symmetry_1
_geom_bond_site_symmetry_2
Co1 O1 1_555 1_555
O1 H1 1_555 1_555
H2 O1 1_555 1_555
O2 Co1 1_555 1_555
H3 O2 1_555 1_555
H4 O2 1_555 1_555
O5 C8 1_555 1_555
O6 C8 1_555 1_555
O7 C7 1_555 1_555
O8 C7 1_555 1_555
N1 N2 1_555 1_555
N2 N3 1_555 1_555
N3 Co1 1_555 1_555
C1 C2 1_555 1_555
C2 H5 1_555 1_555
C3 C2 1_555 1_555
C4 C3 1_555 1_555
H6 C4 1_555 1_555
C5 N1 1_555 1_555
C6 C1 1_555 1_555
H7 C6 1_555 1_555
C7 C1 1_555 1_555
C8 C3 1_555 1_555
C9 N1 1_555 1_555
H8 C9 1_555 1_555
C10 N3 1_555 1_555
H9 C10 1_555 1_555
Co1A O5 1_555 1_555
Co1_2 O8 1_555 1_555
O5A Co1 1_555 1_555
O6A Co1 1_555 1_555
O8_2 Co1 1_555 1_555
O6 Co1A 1_555 1_555
C4 C5 1_555 1_555
C5 C6 1_555 1_555
C9 C10 1_555 1_555

#END
