
#######################################################################
#
#                 Cambridge Crystallographic Data Centre
#                                CCDC 
#
#######################################################################
#
# If this CIF has been generated from an entry in the Cambridge 
# Structural Database, then it will include bibliographic, chemical, 
# crystal, experimental, refinement or atomic coordinate data resulting 
# from the CCDC's data processing and validation procedures.
#
#######################################################################

data_IQUFUV
_symmetry_cell_setting           triclinic
_symmetry_space_group_name_H-M   'P -1'
_symmetry_Int_Tables_number      2
_space_group_name_Hall           '-P 1'
loop_
_symmetry_equiv_pos_site_id
_symmetry_equiv_pos_as_xyz
1 x,y,z
2 -x,-y,-z
_cell_length_a                   9.4730(10)
_cell_length_b                   10.6940(10)
_cell_length_c                   17.900(2)
_cell_angle_alpha                79.413(2)
_cell_angle_beta                 86.879(3)
_cell_angle_gamma                64.923(2)
_cell_volume                     1613.9
loop_
_atom_site_label
_atom_site_type_symbol
_atom_site_fract_x
_atom_site_fract_y
_atom_site_fract_z
Mn1 Mn 0.36821(6) 0.37240(5) -0.47905(2)
Mn2 Mn 0.54958(6) -0.11682(5) -0.09655(2)
O1 O 0.3370(3) 0.2618(3) -0.35760(10)
O2 O 0.1801(3) 0.4814(3) -0.39830(10)
O3 O -0.0056(3) 0.6301(3) -0.3074(2)
O4 O 0.3198(3) 0.2379(3) -0.00240(10)
O5 O 0.4183(4) 0.0850(2) -0.07820(10)
O6 O 0.5839(3) -0.0082(2) -0.2174(2)
O7 O 0.7828(3) -0.1035(3) -0.13660(10)
O8 O 1.0181(3) -0.0451(3) -0.1599(2)
O9 O 0.7434(3) 0.4492(2) -0.43780(10)
O10 O 0.5523(3) 0.3821(3) -0.42510(10)
N1 N 0.2682(3) 0.2413(3) -0.52030(10)
N2 N 0.5362(3) 0.2519(3) -0.5621(2)
N3 N 0.3565(3) -0.1809(3) -0.0505(2)
N4 N 0.5593(3) -0.2896(3) -0.15460(10)
C1 C 0.2405(4) 0.3768(4) -0.3451(2)
C2 C 0.1942(3) 0.3983(3) -0.2655(2)
C3 C 0.0785(4) 0.5246(3) -0.2510(2)
C4 C 0.0439(4) 0.5446(3) -0.1764(2)
C5 C 0.1239(3) 0.4400(3) -0.1174(2)
C6 C 0.2405(3) 0.3126(3) -0.1305(2)
C7 C 0.2735(3) 0.2933(3) -0.2048(2)
C8 C 0.3325(4) 0.2032(3) -0.0664(2)
C9 C 0.7134(4) -0.0193(3) -0.1962(2)
C10 C 0.7865(3) 0.0690(3) -0.2394(2)
C11 C 0.9323(4) 0.0558(3) -0.2174(2)
C12 C 0.9920(4) 0.1476(3) -0.2545(2)
C13 C 0.9121(4) 0.2482(3) -0.3152(2)
C14 C 0.7691(3) 0.2608(3) -0.3402(2)
C15 C 0.7065(3) 0.1724(3) -0.3006(2)
C16 C 0.6817(4) 0.3711(3) -0.4056(2)
C17 C 0.1316(4) 0.2416(4) -0.4978(2)
C18 C 0.0781(5) 0.1514(5) -0.5178(2)
C19 C 0.1671(5) 0.0592(5) -0.5631(3)
C20 C 0.3057(5) 0.0581(4) -0.5873(2)
C21 C 0.3549(4) 0.1517(3) -0.5657(2)
C22 C 0.4993(4) 0.1634(3) -0.5927(2)
C23 C 0.5864(4) 0.0963(4) -0.6487(2)
C24 C 0.7106(5) 0.1235(5) -0.6758(3)
C25 C 0.7480(5) 0.2135(5) -0.6454(3)
C26 C 0.6586(4) 0.2747(4) -0.5884(2)
C27 C 0.2587(5) -0.1244(4) 0.0029(2)
C28 C 0.1677(6) -0.1837(6) 0.0414(3)
C29 C 0.1823(7) -0.3108(7) 0.0273(3)
C30 C 0.2812(6) -0.3695(5) -0.0275(3)
C31 C 0.3638(4) -0.3014(4) -0.0666(2)
C32 C 0.4671(4) -0.3539(4) -0.1295(2)
C33 C 0.4661(6) -0.4594(5) -0.1630(3)
C34 C 0.5619(6) -0.5015(5) -0.2217(3)
C35 C 0.6573(5) -0.4370(4) -0.2476(3)
C36 C 0.6514(4) -0.3311(3) -0.2126(2)
H1 H 0.0317 0.6115 -0.3485
H2 H 0.9685 -0.0890 -0.1403
H3 H -0.0335 0.6289 -0.1666
H4 H 0.1001 0.4542 -0.0676
H5 H 0.3501 0.2085 -0.2144
H6 H 1.0869 0.1410 -0.2382
H7 H 0.9538 0.3088 -0.3400
H8 H 0.6090 0.1826 -0.3154
H9 H 0.0704 0.3055 -0.4674
H10 H -0.0170 0.1530 -0.5007
H11 H 0.1329 -0.0028 -0.5774
H12 H 0.3672 -0.0049 -0.6180
H13 H 0.5617 0.0330 -0.6682
H14 H 0.7691 0.0806 -0.7148
H15 H 0.8322 0.2328 -0.6628
H16 H 0.6847 0.3353 -0.5670
H17 H 0.2524 -0.0408 0.0144
H18 H 0.0971 -0.1390 0.0765
H19 H 0.1256 -0.3559 0.0546
H20 H 0.2924 -0.4551 -0.0381
H21 H 0.4001 -0.5020 -0.1456
H22 H 0.5624 -0.5736 -0.2441
H23 H 0.7239 -0.4641 -0.2875
H24 H 0.7149 -0.2859 -0.2303
O9A O 0.2566(3) 0.5508(2) -0.56220(10)
Mn1A Mn 0.63179(6) 0.62760(5) -0.52095(2)
Mn2A Mn 0.45042(6) 0.11682(5) 0.09655(2)
O4A O 0.6802(3) -0.2379(3) 0.00240(10)
loop_
_geom_bond_atom_site_label_1
_geom_bond_atom_site_label_2
_geom_bond_site_symmetry_1
_geom_bond_site_symmetry_2
Mn1 O1 1_555 1_555
Mn2 O5 1_555 1_555
O1 C1 1_555 1_555
O2 Mn1 1_555 1_555
O3 C3 1_555 1_555
O4 C8 1_555 1_555
O5 C8 1_555 1_555
O6 Mn2 1_555 1_555
O7 Mn2 1_555 1_555
O8 C11 1_555 1_555
O9 C16 1_555 1_555
O10 Mn1 1_555 1_555
N1 Mn1 1_555 1_555
N2 Mn1 1_555 1_555
N3 Mn2 1_555 1_555
N4 Mn2 1_555 1_555
C1 O2 1_555 1_555
C2 C1 1_555 1_555
C3 C2 1_555 1_555
C4 C3 1_555 1_555
C5 C4 1_555 1_555
C6 C5 1_555 1_555
C7 C2 1_555 1_555
C8 C6 1_555 1_555
C9 O6 1_555 1_555
C10 C9 1_555 1_555
C11 C10 1_555 1_555
C12 C11 1_555 1_555
C13 C12 1_555 1_555
C14 C13 1_555 1_555
C15 C10 1_555 1_555
C16 O10 1_555 1_555
C17 N1 1_555 1_555
C18 C17 1_555 1_555
C19 C18 1_555 1_555
C20 C19 1_555 1_555
C21 N1 1_555 1_555
C22 N2 1_555 1_555
C23 C22 1_555 1_555
C24 C23 1_555 1_555
C25 C24 1_555 1_555
C26 N2 1_555 1_555
C27 N3 1_555 1_555
C28 C27 1_555 1_555
C29 C28 1_555 1_555
C30 C29 1_555 1_555
C31 N3 1_555 1_555
C32 N4 1_555 1_555
C33 C32 1_555 1_555
C34 C33 1_555 1_555
C35 C34 1_555 1_555
C36 N4 1_555 1_555
H1 O3 1_555 1_555
H2 O8 1_555 1_555
H3 C4 1_555 1_555
H4 C5 1_555 1_555
H5 C7 1_555 1_555
H6 C12 1_555 1_555
H7 C13 1_555 1_555
H8 C15 1_555 1_555
H9 C17 1_555 1_555
H10 C18 1_555 1_555
H11 C19 1_555 1_555
H12 C20 1_555 1_555
H13 C23 1_555 1_555
H14 C24 1_555 1_555
H15 C25 1_555 1_555
H16 C26 1_555 1_555
H17 C27 1_555 1_555
H18 C28 1_555 1_555
H19 C29 1_555 1_555
H20 C30 1_555 1_555
H21 C33 1_555 1_555
H22 C34 1_555 1_555
H23 C35 1_555 1_555
H24 C36 1_555 1_555
O9A Mn1 1_555 1_555
Mn1A O9 1_555 1_555
Mn2A O4 1_555 1_555
O4A Mn2 1_555 1_555
O7 C9 1_555 1_555
C6 C7 1_555 1_555
C14 C15 1_555 1_555
C14 C16 1_555 1_555
C20 C21 1_555 1_555
C21 C22 1_555 1_555
C25 C26 1_555 1_555
C30 C31 1_555 1_555
C31 C32 1_555 1_555
C35 C36 1_555 1_555

#END
