
#######################################################################
#
#                 Cambridge Crystallographic Data Centre
#                                CCDC 
#
#######################################################################
#
# If this CIF has been generated from an entry in the Cambridge 
# Structural Database, then it will include bibliographic, chemical, 
# crystal, experimental, refinement or atomic coordinate data resulting 
# from the CCDC's data processing and validation procedures.
#
#######################################################################

data_IQUNAJ01
_symmetry_cell_setting           tetragonal
_symmetry_space_group_name_H-M   'I 41/a'
_symmetry_Int_Tables_number      88
_space_group_name_Hall           '-I 4ad'
loop_
_symmetry_equiv_pos_site_id
_symmetry_equiv_pos_as_xyz
1 x,y,z
2 1/2-x,-y,1/2+z
3 3/4-y,1/4+x,1/4+z
4 3/4+y,3/4-x,3/4+z
5 1/2+x,1/2+y,1/2+z
6 -x,1/2-y,z
7 1/4-y,3/4+x,3/4+z
8 1/4+y,1/4-x,1/4+z
9 -x,-y,-z
10 1/2+x,y,1/2-z
11 1/4+y,3/4-x,3/4-z
12 1/4-y,1/4+x,1/4-z
13 1/2-x,1/2-y,1/2-z
14 x,1/2+y,-z
15 3/4+y,1/4-x,1/4-z
16 3/4-y,3/4+x,3/4-z
_cell_length_a                   11.4734(16)
_cell_length_b                   11.4734(16)
_cell_length_c                   8.9206(18)
_cell_angle_alpha                90
_cell_angle_beta                 90
_cell_angle_gamma                90
_cell_volume                     1174.3
loop_
_atom_site_label
_atom_site_type_symbol
_atom_site_fract_x
_atom_site_fract_y
_atom_site_fract_z
Y1 Y 0.0000 0.2500 0.1250
K1 K 0.0000 0.2500 -0.3750
C1 C 0.0021(6) 0.4764(5) -0.0799(7)
O1 O 0.0047(5) 0.3682(4) -0.0948(5)
O2 O -0.1982(5) 0.2467(4) 0.0663(5)
O3 O -0.1432(10) 0.0452(8) -0.4187(10)
Y1C Y 0.0000 0.7500 -0.1250
Y1B Y -0.5000 0.2500 0.3750
K1_2 K 0.0000 0.2500 0.6250
K1C K 0.0000 0.7500 0.3750
K1B K -0.5000 0.2500 -0.1250
C1K C -0.2264(5) 0.2521(6) 0.3299(7)
C1H C -0.0021(6) 0.5236(5) 0.0799(7)
C1G C -0.2736(5) 0.2479(6) 0.1701(7)
O1E O -0.0047(5) 0.1318(4) -0.0948(5)
O1K O -0.1182(4) 0.2547(5) 0.3448(5)
O1N O 0.1182(4) 0.2453(5) 0.3448(5)
O1K_2 O -0.1182(4) 0.2547(5) -0.6552(5)
O1N_2 O 0.1182(4) 0.2453(5) -0.6552(5)
O1H O -0.0047(5) 0.6318(4) 0.0948(5)
O1G O -0.3818(4) 0.2453(5) 0.1552(5)
O2E O 0.1982(5) 0.2533(4) 0.0663(5)
O2N O -0.0033(4) 0.4482(5) 0.1837(5)
O2K O 0.0033(4) 0.0518(5) 0.1837(5)
O2F O 0.0033(4) 0.5518(5) -0.1837(5)
O2L O -0.3018(5) 0.2533(4) 0.4337(5)
O3E O 0.1432(10) 0.4548(8) -0.4187(10)
O3K O 0.2048(8) 0.1068(10) -0.3313(10)
O3N O -0.2048(8) 0.3932(10) -0.3313(10)
loop_
_geom_bond_atom_site_label_1
_geom_bond_atom_site_label_2
_geom_bond_site_symmetry_1
_geom_bond_site_symmetry_2
Y1 O1 1_555 1_555
K1 O1 1_555 1_555
C1 O1 1_555 1_555
O2 Y1 1_555 1_555
O3 K1 1_555 1_555
Y1C O1H 1_555 1_555
Y1B O1G 1_555 1_555
K1_2 O1K 1_555 1_555
K1C O1H 1_555 1_555
K1B O1G 1_555 1_555
C1K C1G 1_555 1_555
C1H C1 1_555 1_555
C1G O2 1_555 1_555
O1E Y1 1_555 1_555
O1K Y1 1_555 1_555
O1N Y1 1_555 1_555
O1K_2 K1 1_555 1_555
O1N_2 K1 1_555 1_555
O1H C1H 1_555 1_555
O1G C1G 1_555 1_555
O2E Y1 1_555 1_555
O2N Y1 1_555 1_555
O2K Y1 1_555 1_555
O2F C1 1_555 1_555
O2L Y1B 1_555 1_555
O3E K1 1_555 1_555
O3K K1 1_555 1_555
O3N K1 1_555 1_555
K1 O1E 1_555 1_555
Y1C O2F 1_555 1_555
K1_2 O1N 1_555 1_555
C1K O1K 1_555 1_555
C1K O2L 1_555 1_555
C1H O2N 1_555 1_555

#END
