
#######################################################################
#
#                 Cambridge Crystallographic Data Centre
#                                CCDC 
#
#######################################################################
#
# If this CIF has been generated from an entry in the Cambridge 
# Structural Database, then it will include bibliographic, chemical, 
# crystal, experimental, refinement or atomic coordinate data resulting 
# from the CCDC's data processing and validation procedures.
#
#######################################################################

data_IQUYEY
_symmetry_cell_setting           monoclinic
_symmetry_space_group_name_H-M   'P 21/c'
_symmetry_Int_Tables_number      14
_space_group_name_Hall           '-P 2ybc'
loop_
_symmetry_equiv_pos_site_id
_symmetry_equiv_pos_as_xyz
1 x,y,z
2 x,1/2-y,1/2+z
3 -x,-y,-z
4 -x,1/2+y,1/2-z
_cell_length_a                   14.4981(9)
_cell_length_b                   13.2267(8)
_cell_length_c                   19.1270(11)
_cell_angle_alpha                90
_cell_angle_beta                 91.5420(10)
_cell_angle_gamma                90
_cell_volume                     3666.5
loop_
_atom_site_label
_atom_site_type_symbol
_atom_site_fract_x
_atom_site_fract_y
_atom_site_fract_z
Cu1 Cu 0.04804(2) 0.87851(3) 0.522569(18)
Cu2 Cu 0.48414(2) 0.87542(3) 0.439451(18)
Cu3 Cu 0.54091(2) 0.59290(3) 0.46179(2)
Cu4 Cu -0.24785(2) 0.63495(3) 0.481900(18)
Cu5 Cu -0.03597(2) 0.61453(3) 0.50095(2)
N1 N 0.10579(16) 0.91688(17) 0.61556(12)
N2 N 0.03649(15) 0.84446(18) 0.42070(12)
N3 N 0.42411(16) 0.90503(17) 0.34531(12)
N4 N 0.49899(16) 0.86921(17) 0.54456(13)
N5 N 0.17993(16) 0.87279(17) 0.49935(12)
N6 N 0.35343(16) 0.87867(17) 0.46527(12)
N7 N -0.07718(16) 0.92761(18) 0.52795(14)
N8 N -0.13660(17) 0.91620(18) 0.56872(14)
N9 N -0.1977(2) 0.9112(2) 0.60668(16)
N10 N 0.60766(17) 0.91244(19) 0.41412(14)
N11 N 0.67554(17) 0.86461(18) 0.42921(13)
N12 N 0.74289(18) 0.8221(2) 0.44276(15)
N13 N 0.47571(17) 0.70661(18) 0.41551(14)
N14 N 0.42072(18) 0.68778(19) 0.36735(14)
N15 N 0.3684(2) 0.6754(2) 0.32177(16)
N16 N 0.44193(18) 0.5608(2) 0.52783(16)
N17 N 0.37245(19) 0.6087(2) 0.53449(15)
N18 N 0.3069(2) 0.6543(3) 0.5426(2)
N19 N 0.65611(17) 0.60820(19) 0.40638(13)
N20 N 0.65882(17) 0.6609(2) 0.35392(14)
N21 N 0.6621(2) 0.7083(2) 0.30431(16)
N22 N 0.64580(18) 0.6420(2) 0.54351(14)
N23 N 0.64038(17) 0.6079(2) 0.60226(15)
N24 N 0.6299(2) 0.5790(3) 0.65785(16)
N25 N -0.13929(18) 0.6000(2) 0.42614(14)
N26 N -0.12892(17) 0.5738(2) 0.36596(14)
N27 N -0.1158(2) 0.5507(2) 0.30942(15)
N28 N -0.14730(17) 0.6651(2) 0.55040(14)
N29 N -0.14967(18) 0.6802(2) 0.61243(14)
N30 N -0.1505(3) 0.6942(3) 0.67112(17)
N31 N 0.04886(18) 0.70778(18) 0.55208(15)
N32 N 0.10059(18) 0.68826(19) 0.60032(14)
N33 N 0.1505(2) 0.6764(3) 0.64717(17)
N34 N 0.05075(18) 0.5426(2) 0.44256(15)
N35 N 0.12796(19) 0.5670(2) 0.42907(15)
N36 N 0.2012(3) 0.5847(3) 0.4140(2)
C1 C 0.0602(2) 0.9430(2) 0.67285(15)
H1 H -0.0052 0.9389 0.6716
C2 C 0.1044(2) 0.9754(2) 0.73343(16)
H2 H 0.0700 0.9914 0.7735
C3 C 0.1992(2) 0.9842(2) 0.73521(16)
H3 H 0.2310 1.0083 0.7760
C4 C 0.2473(2) 0.9571(2) 0.67611(15)
H4 H 0.3126 0.9637 0.6757
C5 C 0.19937(18) 0.9206(2) 0.61784(15)
C6 C -0.0428(2) 0.8209(2) 0.38761(16)
H5 H -0.0990 0.8300 0.4113
C7 C -0.0461(2) 0.7835(2) 0.31975(17)
H6 H -0.1035 0.7706 0.2963
C8 C 0.0356(2) 0.7658(2) 0.28747(16)
H7 H 0.0352 0.7391 0.2414
C9 C 0.1190(2) 0.7869(2) 0.32185(16)
H8 H 0.1759 0.7717 0.3007
C10 C 0.11739(19) 0.8305(2) 0.38781(15)
C11 C 0.46860(19) 0.9232(2) 0.28628(15)
H9 H 0.5341 0.9221 0.2873
C12 C 0.4218(2) 0.9434(2) 0.22367(16)
H10 H 0.4548 0.9537 0.1820
C13 C 0.3265(2) 0.9485(2) 0.22259(15)
H11 H 0.2932 0.9633 0.1803
C14 C 0.2801(2) 0.9318(2) 0.28401(15)
H12 H 0.2149 0.9381 0.2850
C15 C 0.33051(19) 0.9056(2) 0.34384(15)
C16 C 0.57961(19) 0.8561(2) 0.57992(16)
H13 H 0.6355 0.8672 0.5563
C17 C 0.5839(2) 0.8271(2) 0.64932(16)
H14 H 0.6415 0.8222 0.6739
C18 C 0.5026(2) 0.8055(2) 0.68204(16)
H15 H 0.5039 0.7815 0.7289
C19 C 0.4188(2) 0.8189(2) 0.64632(16)
H16 H 0.3624 0.8031 0.6681
C20 C 0.41878(19) 0.8557(2) 0.57823(15)
C21 C 0.24196(18) 0.8875(2) 0.55125(14)
C22 C 0.19924(19) 0.8604(2) 0.43141(14)
C23 C 0.29033(18) 0.8795(2) 0.41294(15)
C24 C 0.33517(19) 0.8747(2) 0.53406(15)
N16B N 0.55807(18) 0.4392(2) 0.47217(16)
N19_2 N -0.34389(17) 0.60820(19) 0.40638(13)
N22_2 N -0.35420(18) 0.6420(2) 0.54351(14)
N34B N -0.05075(18) 0.4574(2) 0.55744(15)
Cu3B Cu 0.45909(2) 0.40710(3) 0.53821(2)
Cu4_2 Cu 0.75215(2) 0.63495(3) 0.481900(18)
Cu5B Cu 0.03597(2) 0.38547(3) 0.49905(2)
loop_
_geom_bond_atom_site_label_1
_geom_bond_atom_site_label_2
_geom_bond_site_symmetry_1
_geom_bond_site_symmetry_2
Cu1 N1 1_555 1_555
Cu2 N3 1_555 1_555
Cu3 N13 1_555 1_555
Cu4 N25 1_555 1_555
Cu5 N25 1_555 1_555
N1 C1 1_555 1_555
N2 Cu1 1_555 1_555
N3 C11 1_555 1_555
N4 Cu2 1_555 1_555
N5 Cu1 1_555 1_555
N6 Cu2 1_555 1_555
N7 Cu1 1_555 1_555
N8 N7 1_555 1_555
N9 N8 1_555 1_555
N10 Cu2 1_555 1_555
N11 N10 1_555 1_555
N12 N11 1_555 1_555
N13 Cu2 1_555 1_555
N14 N13 1_555 1_555
N15 N14 1_555 1_555
N16 Cu3 1_555 1_555
N17 N16 1_555 1_555
N18 N17 1_555 1_555
N19 Cu3 1_555 1_555
N20 N19 1_555 1_555
N21 N20 1_555 1_555
N22 Cu3 1_555 1_555
N23 N22 1_555 1_555
N24 N23 1_555 1_555
N25 N26 1_555 1_555
N26 N27 1_555 1_555
N28 Cu4 1_555 1_555
N29 N28 1_555 1_555
N30 N29 1_555 1_555
N31 Cu1 1_555 1_555
N32 N31 1_555 1_555
N33 N32 1_555 1_555
N34 Cu5 1_555 1_555
N35 N34 1_555 1_555
N36 N35 1_555 1_555
C1 H1 1_555 1_555
C2 C1 1_555 1_555
H2 C2 1_555 1_555
C3 C2 1_555 1_555
H3 C3 1_555 1_555
C4 C3 1_555 1_555
H4 C4 1_555 1_555
C5 N1 1_555 1_555
C6 N2 1_555 1_555
H5 C6 1_555 1_555
C7 C6 1_555 1_555
H6 C7 1_555 1_555
C8 C7 1_555 1_555
H7 C8 1_555 1_555
C9 C8 1_555 1_555
H8 C9 1_555 1_555
C10 N2 1_555 1_555
C11 H9 1_555 1_555
C12 C11 1_555 1_555
H10 C12 1_555 1_555
C13 C12 1_555 1_555
H11 C13 1_555 1_555
C14 C13 1_555 1_555
H12 C14 1_555 1_555
C15 N3 1_555 1_555
C16 N4 1_555 1_555
H13 C16 1_555 1_555
C17 C16 1_555 1_555
H14 C17 1_555 1_555
C18 C17 1_555 1_555
H15 C18 1_555 1_555
C19 C18 1_555 1_555
H16 C19 1_555 1_555
C20 N4 1_555 1_555
C21 N5 1_555 1_555
C22 N5 1_555 1_555
C23 N6 1_555 1_555
C24 N6 1_555 1_555
N16B Cu3 1_555 1_555
N19_2 Cu4 1_555 1_555
N22_2 Cu4 1_555 1_555
N34B Cu5 1_555 1_555
Cu3B N16 1_555 1_555
Cu4_2 N19 1_555 1_555
Cu5B N34 1_555 1_555
Cu5 N31 1_555 1_555
Cu5 N28 1_555 1_555
N22 Cu4_2 1_555 1_555
C4 C5 1_555 1_555
C5 C21 1_555 1_555
C9 C10 1_555 1_555
C10 C22 1_555 1_555
C14 C15 1_555 1_555
C15 C23 1_555 1_555
C19 C20 1_555 1_555
C20 C24 1_555 1_555
C21 C24 1_555 1_555
C22 C23 1_555 1_555
N16B Cu3B 1_555 1_555
N34B Cu5B 1_555 1_555

#END
