
#######################################################################
#
#                 Cambridge Crystallographic Data Centre
#                                CCDC 
#
#######################################################################
#
# If this CIF has been generated from an entry in the Cambridge 
# Structural Database, then it will include bibliographic, chemical, 
# crystal, experimental, refinement or atomic coordinate data resulting 
# from the CCDC's data processing and validation procedures.
#
#######################################################################

data_IQUZID
_symmetry_cell_setting           monoclinic
_symmetry_space_group_name_H-M   'P 21'
_symmetry_Int_Tables_number      4
_space_group_name_Hall           'P 2yb'
loop_
_symmetry_equiv_pos_site_id
_symmetry_equiv_pos_as_xyz
1 x,y,z
2 -x,1/2+y,-z
_cell_length_a                   12.4287(5)
_cell_length_b                   8.1038(4)
_cell_length_c                   13.0208(6)
_cell_angle_alpha                90
_cell_angle_beta                 106.313(2)
_cell_angle_gamma                90
_cell_volume                     1258.65
loop_
_atom_site_label
_atom_site_type_symbol
_atom_site_fract_x
_atom_site_fract_y
_atom_site_fract_z
C1 C 0.1831(5) 1.0217(7) 0.8907(5)
H1 H 0.1650 1.0244 0.8109
C2 C 0.2840(5) 0.9083(6) 0.9326(5)
H2 H 0.3047 0.9060 1.0118
H3 H 0.3487 0.9526 0.9110
C3 C 0.2589(5) 0.7324(6) 0.8894(5)
H4 H 0.2478 0.7367 0.8104
C4 C 0.1519(5) 0.6637(7) 0.9078(5)
H5 H 0.1668 0.6359 0.9846
H6 H 0.1324 0.5599 0.8667
C5 C 0.0507(5) 0.7793(7) 0.8763(4)
H7 H -0.0085 0.7353 0.9076
C6 C 0.0815(5) 0.9528(7) 0.9197(5)
H8 H 0.0168 1.0269 0.8909
H9 H 0.0974 0.9509 0.9986
C7 C 0.2573(5) 0.1257(6) 0.6220(4)
H10 H 0.2710 0.1264 0.7015
C8 C 0.1610(5) 0.2433(6) 0.5730(4)
H11 H 0.1466 0.2437 0.4943
H12 H 0.0923 0.2032 0.5893
C9 C 0.1856(5) 0.4185(6) 0.6149(4)
H13 H 0.1936 0.4167 0.6935
C10 C 0.2961(5) 0.4810(7) 0.5992(5)
H14 H 0.3153 0.5870 0.6379
H15 H 0.2846 0.5036 0.5222
C11 C 0.3961(4) 0.3631(7) 0.6375(4)
H16 H 0.4575 0.4019 0.6075
C12 C 0.3635(5) 0.1873(7) 0.5968(5)
H17 H 0.3515 0.1846 0.5184
H18 H 0.4262 0.1117 0.6298
N1 N 0.3525(4) 0.6165(5) 0.9352(4)
H19 H 0.3642 0.6134 1.0081
H20 H 0.4164 0.6590 0.9228
N2 N 0.0033(4) 0.7858(6) 0.7567(3)
H21 H -0.0460 0.8730 0.7424
H22 H -0.0390 0.6918 0.7374
N3 N 0.0971(4) 0.5380(5) 0.5653(3)
H23 H 0.0294 0.4927 0.5661
H24 H 0.0960 0.5499 0.4948
N4 N 0.4398(3) 0.3626(6) 0.7572(3)
H25 H 0.4805 0.4583 0.7755
H26 H 0.4905 0.2772 0.7745
N5 N 0.2116(4) 1.1919(5) 0.9307(4)
H27 H 0.240(4) 1.185(7) 1.0016(17)
H28 H 0.149(3) 1.250(6) 0.922(4)
N6 N 0.2282(4) -0.0446(5) 0.5831(4)
H29 H 0.295(3) -0.097(6) 0.600(4)
H30 H 0.209(5) -0.046(7) 0.5112(16)
Ag1 Ag 0.33024(3) 0.34194(4) 0.87046(3)
Ag2 Ag 0.10854(3) 0.80839(4) 0.64267(3)
Ag1_2 Ag 0.33024(3) 1.34194(4) 0.87046(3)
Ag2_2 Ag 0.10854(3) -0.19161(4) 0.64267(3)
N5_2 N 0.2116(4) 0.1919(5) 0.9307(4)
N6_2 N 0.2282(4) 0.9554(5) 0.5831(4)
H27_2 H 0.240(4) 0.185(7) 1.0016(17)
H28_2 H 0.149(3) 0.250(6) 0.922(4)
H29_2 H 0.295(3) 0.903(6) 0.600(4)
H30_2 H 0.209(5) 0.954(7) 0.5112(16)
S1 S 0.54194(10) 0.84263(19) 0.79875(9)
C13 C 0.6261(7) 0.8051(9) 0.7102(6)
O1 O 0.4292(3) 0.8142(6) 0.7331(3)
O2 O 0.5798(4) 0.7198(6) 0.8801(4)
O3 O 0.5646(4) 1.0118(6) 0.8319(3)
F1 F 0.6077(5) 0.9187(6) 0.6322(4)
F2 F 0.6027(5) 0.6564(5) 0.6628(4)
F3 F 0.7346(4) 0.8083(7) 0.7604(5)
S2 S -0.09392(10) 0.30919(18) 0.72189(9)
C14 C -0.2310(5) 0.2934(10) 0.7447(5)
O4 O -0.1050(4) 0.4502(6) 0.6525(4)
O5 O -0.0215(3) 0.3347(6) 0.8280(3)
O6 O -0.0818(5) 0.1553(6) 0.6728(4)
F4 F -0.2537(4) 0.4227(7) 0.7947(4)
F5 F -0.3104(3) 0.2779(7) 0.6522(3)
F6 F -0.2338(5) 0.1606(7) 0.8041(5)
loop_
_geom_bond_atom_site_label_1
_geom_bond_atom_site_label_2
_geom_bond_site_symmetry_1
_geom_bond_site_symmetry_2
C1 H1 1_555 1_555
C2 C1 1_555 1_555
H2 C2 1_555 1_555
H3 C2 1_555 1_555
C3 C2 1_555 1_555
H4 C3 1_555 1_555
C4 C3 1_555 1_555
H5 C4 1_555 1_555
H6 C4 1_555 1_555
C5 C4 1_555 1_555
H7 C5 1_555 1_555
C6 C1 1_555 1_555
H8 C6 1_555 1_555
H9 C6 1_555 1_555
C7 H10 1_555 1_555
C8 C7 1_555 1_555
H11 C8 1_555 1_555
H12 C8 1_555 1_555
C9 C8 1_555 1_555
H13 C9 1_555 1_555
C10 C9 1_555 1_555
H14 C10 1_555 1_555
H15 C10 1_555 1_555
C11 C10 1_555 1_555
H16 C11 1_555 1_555
C12 C7 1_555 1_555
H17 C12 1_555 1_555
H18 C12 1_555 1_555
N1 C3 1_555 1_555
H19 N1 1_555 1_555
H20 N1 1_555 1_555
N2 C5 1_555 1_555
H21 N2 1_555 1_555
H22 N2 1_555 1_555
N3 C9 1_555 1_555
H23 N3 1_555 1_555
H24 N3 1_555 1_555
N4 C11 1_555 1_555
H25 N4 1_555 1_555
H26 N4 1_555 1_555
N5 C1 1_555 1_555
H27 N5 1_555 1_555
H28 N5 1_555 1_555
N6 C7 1_555 1_555
H29 N6 1_555 1_555
H30 N6 1_555 1_555
S1 C13 1_555 1_555
C13 F1 1_555 1_555
O1 S1 1_555 1_555
O2 S1 1_555 1_555
O3 S1 1_555 1_555
F2 C13 1_555 1_555
F3 C13 1_555 1_555
Ag1 N1 1_555 1_555
S2 C14 1_555 1_555
C14 F4 1_555 1_555
O4 S2 1_555 1_555
O5 S2 1_555 1_555
O6 S2 1_555 1_555
F5 C14 1_555 1_555
F6 C14 1_555 1_555
Ag2 N2 1_555 1_555
Ag1_2 N5 1_555 1_555
Ag2_2 N6 1_555 1_555
N5_2 Ag1 1_555 1_555
N6_2 Ag2 1_555 1_555
H27_2 N5_2 1_555 1_555
H28_2 N5_2 1_555 1_555
H29_2 N6_2 1_555 1_555
H30_2 N6_2 1_555 1_555
C5 C6 1_555 1_555
C11 C12 1_555 1_555
N3 Ag2 1_555 1_555
N4 Ag1 1_555 1_555

#END
