
#######################################################################
#
#                 Cambridge Crystallographic Data Centre
#                                CCDC 
#
#######################################################################
#
# If this CIF has been generated from an entry in the Cambridge 
# Structural Database, then it will include bibliographic, chemical, 
# crystal, experimental, refinement or atomic coordinate data resulting 
# from the CCDC's data processing and validation procedures.
#
#######################################################################

data_IRAROI
_symmetry_cell_setting           monoclinic
_symmetry_space_group_name_H-M   'P 21/n'
_symmetry_Int_Tables_number      14
_space_group_name_Hall           '-P 2yn'
loop_
_symmetry_equiv_pos_site_id
_symmetry_equiv_pos_as_xyz
1 x,y,z
2 1/2+x,1/2-y,1/2+z
3 -x,-y,-z
4 1/2-x,1/2+y,1/2-z
_cell_length_a                   10.604(4)
_cell_length_b                   11.094(3)
_cell_length_c                   16.570(5)
_cell_angle_alpha                90
_cell_angle_beta                 106.712(7)
_cell_angle_gamma                90
_cell_volume                     1866.97
loop_
_atom_site_label
_atom_site_type_symbol
_atom_site_fract_x
_atom_site_fract_y
_atom_site_fract_z
Ni1 Ni 1.0000 0.0000 0.0000
O1 O 0.7627(5) 0.2911(4) 0.1471(3)
O2 O 1.1363(5) 0.3627(4) 0.3637(3)
O3 O 1.0080(4) -0.1766(3) 0.0305(2)
O4 O 0.7957(5) -0.2316(3) -0.0064(3)
O5 O 0.8019(3) 0.0063(3) -0.00507(19)
C1 C 1.1174(5) -0.0242(5) 0.1901(3)
H1 H 1.1505 -0.0962 0.1759
C2 C 1.1466(6) 0.0073(6) 0.2726(3)
H2 H 1.1980 -0.0433 0.3139
C3 C 1.1000(6) 0.1138(5) 0.2949(3)
H3 H 1.1213 0.1369 0.3512
C4 C 1.0212(5) 0.1865(5) 0.2331(3)
C5 C 0.9944(5) 0.1461(4) 0.1504(3)
H4 H 0.9393 0.1927 0.1080
C6 C 0.9645(6) 0.2999(5) 0.2502(3)
C7 C 0.9482(6) 0.4949(6) 0.3018(4)
C8 C 0.8119(6) 0.4532(5) 0.2487(4)
C9 C 0.7225(7) 0.4070(6) 0.3007(4)
H5 H 0.7707 0.3511 0.3425
H6 H 0.6472 0.3673 0.2640
H7 H 0.6940 0.4737 0.3279
C10 C 0.7383(7) 0.5434(6) 0.1820(4)
H8 H 0.7952 0.5704 0.1499
H9 H 0.7113 0.6112 0.2091
H10 H 0.6620 0.5053 0.1451
C11 C 0.9535(8) 0.5456(7) 0.3870(5)
H11 H 0.9107 0.4911 0.4157
H12 H 0.9096 0.6222 0.3802
H13 H 1.0437 0.5558 0.4196
C12 C 1.0163(8) 0.5807(7) 0.2541(5)
H14 H 1.0107 0.5476 0.1996
H15 H 1.1072 0.5901 0.2855
H16 H 0.9735 0.6578 0.2474
C13 C 0.9171(7) -0.2525(5) 0.0109(3)
C14 C 0.9612(6) -0.3823(5) 0.0060(3)
C15 C 0.8681(6) -0.4755(4) -0.0103(3)
H17 H 0.7797 -0.4585 -0.0171
C16 C 1.0919(6) -0.4082(5) 0.0161(3)
H18 H 1.1535 -0.3462 0.0270
N1 N 1.0428(4) 0.0448(4) 0.1283(3)
N2 N 0.8470(5) 0.3431(4) 0.2075(3)
N3 N 1.0228(5) 0.3776(4) 0.3112(3)
C16B C 0.9081(6) -0.5918(5) -0.0161(3)
C14B C 1.0388(6) -0.6177(5) -0.0060(3)
C13B C 1.0829(7) -0.7475(5) -0.0109(3)
O3B O 0.9920(4) -0.8234(3) -0.0305(2)
O4B O 1.2043(5) -0.7684(3) 0.0064(3)
C15B C 1.1319(6) -0.5245(4) 0.0103(3)
H17B H 1.2203 -0.5415 0.0171
H18B H 0.8465 -0.6538 -0.0270
O5B O 1.1981(3) -0.0063(3) 0.00507(19)
O1B O 1.2373(5) -0.2911(4) -0.1471(3)
O2B O 0.8637(5) -0.3627(4) -0.3637(3)
C1B C 0.8826(5) 0.0242(5) -0.1901(3)
H1B H 0.8495 0.0962 -0.1759
C2B C 0.8534(6) -0.0073(6) -0.2726(3)
H2B H 0.8020 0.0433 -0.3139
C3B C 0.9000(6) -0.1138(5) -0.2949(3)
H3B H 0.8787 -0.1369 -0.3512
C4B C 0.9788(5) -0.1865(5) -0.2331(3)
C5B C 1.0056(5) -0.1461(4) -0.1504(3)
H4B H 1.0607 -0.1927 -0.1080
C6B C 1.0355(6) -0.2999(5) -0.2502(3)
C7B C 1.0518(6) -0.4949(6) -0.3018(4)
C8B C 1.1881(6) -0.4532(5) -0.2487(4)
C9B C 1.2775(7) -0.4070(6) -0.3007(4)
H5B H 1.2293 -0.3511 -0.3425
H6B H 1.3528 -0.3673 -0.2640
H7B H 1.3060 -0.4737 -0.3279
C10B C 1.2617(7) -0.5434(6) -0.1820(4)
H8B H 1.2048 -0.5704 -0.1499
H9B H 1.2887 -0.6112 -0.2091
H10B H 1.3380 -0.5053 -0.1451
C11B C 1.0465(8) -0.5456(7) -0.3870(5)
H11B H 1.0893 -0.4911 -0.4157
H12B H 1.0904 -0.6222 -0.3802
H13B H 0.9563 -0.5558 -0.4196
C12B C 0.9837(8) -0.5807(7) -0.2541(5)
H14B H 0.9893 -0.5476 -0.1996
H15B H 0.8928 -0.5901 -0.2855
H16B H 1.0265 -0.6578 -0.2474
N1B N 0.9572(4) -0.0448(4) -0.1283(3)
N2B N 1.1530(5) -0.3431(4) -0.2075(3)
N3B N 0.9772(5) -0.3776(4) -0.3112(3)
O3B_2 O 0.9920(4) 0.1766(3) -0.0305(2)
Ni1_2 Ni 1.0000 -1.0000 0.0000
loop_
_geom_bond_atom_site_label_1
_geom_bond_atom_site_label_2
_geom_bond_site_symmetry_1
_geom_bond_site_symmetry_2
Ni1 O3 1_555 1_555
O1 N2 1_555 1_555
O2 N3 1_555 1_555
O3 C13 1_555 1_555
O4 C13 1_555 1_555
O5 Ni1 1_555 1_555
C1 H1 1_555 1_555
C2 C1 1_555 1_555
H2 C2 1_555 1_555
C3 C2 1_555 1_555
H3 C3 1_555 1_555
C4 C3 1_555 1_555
C5 C4 1_555 1_555
H4 C5 1_555 1_555
C6 C4 1_555 1_555
C7 C8 1_555 1_555
C8 C9 1_555 1_555
C9 H5 1_555 1_555
H6 C9 1_555 1_555
H7 C9 1_555 1_555
C10 C8 1_555 1_555
H8 C10 1_555 1_555
H9 C10 1_555 1_555
H10 C10 1_555 1_555
C11 C7 1_555 1_555
H11 C11 1_555 1_555
H12 C11 1_555 1_555
H13 C11 1_555 1_555
C12 C7 1_555 1_555
H14 C12 1_555 1_555
H15 C12 1_555 1_555
H16 C12 1_555 1_555
C13 C14 1_555 1_555
C14 C15 1_555 1_555
C15 H17 1_555 1_555
C16 C14 1_555 1_555
H18 C16 1_555 1_555
N1 Ni1 1_555 1_555
N2 C6 1_555 1_555
N3 C6 1_555 1_555
C16B C15 1_555 1_555
C14B C16B 1_555 1_555
C13B C14B 1_555 1_555
O3B C13B 1_555 1_555
O4B C13B 1_555 1_555
C15B C16 1_555 1_555
H17B C15B 1_555 1_555
H18B C16B 1_555 1_555
O5B Ni1 1_555 1_555
O1B N2B 1_555 1_555
O2B N3B 1_555 1_555
C1B H1B 1_555 1_555
C2B C1B 1_555 1_555
H2B C2B 1_555 1_555
C3B C2B 1_555 1_555
H3B C3B 1_555 1_555
C4B C3B 1_555 1_555
C5B C4B 1_555 1_555
H4B C5B 1_555 1_555
C6B C4B 1_555 1_555
C7B C8B 1_555 1_555
C8B C9B 1_555 1_555
C9B H5B 1_555 1_555
H6B C9B 1_555 1_555
H7B C9B 1_555 1_555
C10B C8B 1_555 1_555
H8B C10B 1_555 1_555
H9B C10B 1_555 1_555
H10B C10B 1_555 1_555
C11B C7B 1_555 1_555
H11B C11B 1_555 1_555
H12B C11B 1_555 1_555
H13B C11B 1_555 1_555
C12B C7B 1_555 1_555
H14B C12B 1_555 1_555
H15B C12B 1_555 1_555
H16B C12B 1_555 1_555
N1B Ni1 1_555 1_555
N2B C6B 1_555 1_555
N3B C6B 1_555 1_555
O3B_2 Ni1 1_555 1_555
Ni1_2 O3B 1_555 1_555
C1 N1 1_555 1_555
C5 N1 1_555 1_555
C7 N3 1_555 1_555
C8 N2 1_555 1_555
C14B C15B 1_555 1_555
C1B N1B 1_555 1_555
C5B N1B 1_555 1_555
C7B N3B 1_555 1_555
C8B N2B 1_555 1_555

#END
