
#######################################################################
#
#                 Cambridge Crystallographic Data Centre
#                                CCDC 
#
#######################################################################
#
# If this CIF has been generated from an entry in the Cambridge 
# Structural Database, then it will include bibliographic, chemical, 
# crystal, experimental, refinement or atomic coordinate data resulting 
# from the CCDC's data processing and validation procedures.
#
#######################################################################

data_IRAXOP
_symmetry_cell_setting           monoclinic
_symmetry_space_group_name_H-M   'C 2/c'
_symmetry_Int_Tables_number      15
_space_group_name_Hall           '-C 2yn'
loop_
_symmetry_equiv_pos_site_id
_symmetry_equiv_pos_as_xyz
1 x,y,z
2 -x,y,1/2-z
3 1/2+x,1/2+y,z
4 1/2-x,1/2+y,1/2-z
5 -x,-y,-z
6 x,-y,1/2+z
7 1/2-x,1/2-y,-z
8 1/2+x,1/2-y,1/2+z
_cell_length_a                   26.2546(4)
_cell_length_b                   9.46050(10)
_cell_length_c                   18.2111(3)
_cell_angle_alpha                90
_cell_angle_beta                 106.6650(10)
_cell_angle_gamma                90
_cell_volume                     4333.31
loop_
_atom_site_label
_atom_site_type_symbol
_atom_site_fract_x
_atom_site_fract_y
_atom_site_fract_z
Cu1 Cu 0.5000 0.22792(5) 0.7500
N1 N 0.52768(8) 0.3803(2) 0.83009(12)
N2 N 0.53234(8) 1.0750(2) 0.82846(11)
C1 C 0.49534(11) 0.4777(3) 0.84668(16)
C2 C 0.51205(11) 0.5721(3) 0.90656(15)
C3 C 0.56399(9) 0.5688(3) 0.95260(12)
C4 C 0.59746(11) 0.4704(3) 0.93392(15)
C5 C 0.57845(10) 0.3799(3) 0.87348(14)
C6 C 0.58434(12) 0.6672(3) 1.01938(14)
C7 C 0.61911(11) 0.7864(3) 1.00201(15)
C8 C 0.58835(10) 0.8860(2) 0.94083(13)
C9 C 0.55726(10) 0.9926(3) 0.95789(14)
C10 C 0.52981(10) 1.0831(3) 0.90094(14)
C11 C 0.56104(10) 0.9696(3) 0.81130(13)
C12 C 0.58935(10) 0.8745(3) 0.86529(13)
N3 N 0.32950(9) 0.2559(3) 0.77348(14)
O1 O 0.41755(8) 0.2404(2) 0.78465(12)
C13 C 0.37528(11) 0.1881(3) 0.78638(14)
C14 C 0.32558(15) 0.4040(4) 0.7533(2)
H1 H 0.3581 0.4340 0.7416
H2 H 0.3210 0.4596 0.7963
H3 H 0.2950 0.4188 0.7082
C15 C 0.28161(14) 0.1845(5) 0.7763(3)
H4 H 0.2679 0.2284 0.8156
H5 H 0.2895 0.0847 0.7890
H6 H 0.2549 0.1918 0.7263
H7 H 0.4583(12) 0.472(3) 0.8192(16)
H8 H 0.4871(13) 0.643(4) 0.9141(18)
H9 H 0.6375(14) 0.465(4) 0.9624(19)
H10 H 0.5986(12) 0.309(3) 0.8591(16)
H11 H 0.5561(12) 0.706(3) 1.0337(16)
H12 H 0.6037(11) 0.611(3) 1.0618(15)
H13 H 0.6317(13) 0.836(4) 1.0485(19)
H14 H 0.6463(11) 0.744(3) 0.9856(16)
H15 H 0.5577(10) 1.008(3) 1.0104(15)
H16 H 0.5046(11) 1.161(3) 0.9081(15)
H17 H 0.5638(10) 0.967(3) 0.7609(15)
H18 H 0.6086(12) 0.800(3) 0.8534(17)
H19 H 0.3729(14) 0.088(4) 0.7984(19)
Cu1_2 Cu 0.5000 1.22792(5) 0.7500
N1A N 0.47232(8) 0.3803(2) 0.66991(12)
N2A N 0.46766(8) 1.0750(2) 0.67154(11)
N2_2 N 0.53234(8) 0.0750(2) 0.82846(11)
N2A_2 N 0.46766(8) 0.0750(2) 0.67154(11)
C1A C 0.50466(11) 0.4777(3) 0.65332(16)
C2A C 0.48795(11) 0.5721(3) 0.59344(15)
C3A C 0.43601(9) 0.5688(3) 0.54740(12)
C4A C 0.40254(11) 0.4704(3) 0.56608(15)
C5A C 0.42155(10) 0.3799(3) 0.62652(14)
C6A C 0.41566(12) 0.6672(3) 0.48062(14)
C7A C 0.38089(11) 0.7864(3) 0.49799(15)
C8A C 0.41165(10) 0.8860(2) 0.55917(13)
C9A C 0.44274(10) 0.9926(3) 0.54211(14)
C10A C 0.47019(10) 1.0831(3) 0.59906(14)
C11A C 0.43896(10) 0.9696(3) 0.68870(13)
C12A C 0.41065(10) 0.8745(3) 0.63471(13)
N3A N 0.67050(9) 0.2559(3) 0.72652(14)
O1A O 0.58245(8) 0.2404(2) 0.71535(12)
C13A C 0.62472(11) 0.1881(3) 0.71362(14)
C14A C 0.67442(15) 0.4040(4) 0.7467(2)
H1A H 0.6419 0.4340 0.7584
H2A H 0.6790 0.4596 0.7037
H3A H 0.7050 0.4188 0.7918
C15A C 0.71839(14) 0.1845(5) 0.7237(3)
H4A H 0.7321 0.2284 0.6844
H5A H 0.7105 0.0847 0.7110
H6A H 0.7451 0.1918 0.7737
H7A H 0.5417(12) 0.472(3) 0.6808(16)
H8A H 0.5129(13) 0.643(4) 0.5859(18)
H9A H 0.3625(14) 0.465(4) 0.5376(19)
H10A H 0.4014(12) 0.309(3) 0.6409(16)
H11A H 0.4439(12) 0.706(3) 0.4663(16)
H12A H 0.3963(11) 0.611(3) 0.4382(15)
H13A H 0.3683(13) 0.836(4) 0.4515(19)
H14A H 0.3537(11) 0.744(3) 0.5144(16)
H15A H 0.4423(10) 1.008(3) 0.4896(15)
H16A H 0.4954(11) 1.161(3) 0.5919(15)
H17A H 0.4362(10) 0.967(3) 0.7391(15)
H18A H 0.3914(12) 0.800(3) 0.6466(17)
H19A H 0.6271(14) 0.088(4) 0.7016(19)
Cl1 Cl 0.37314(3) 0.78395(7) 0.84707(4)
O2 O 0.37832(13) 0.6584(3) 0.88879(19)
O3 O 0.33581(14) 0.8723(4) 0.8674(3)
O4 O 0.35561(15) 0.7572(4) 0.76880(16)
O5 O 0.42276(9) 0.8590(3) 0.86463(13)
N4 N 0.27251(11) 0.9667(3) 1.03152(17)
O6 O 0.3146(2) 0.7925(7) 1.0938(4)
C16 C 0.30690(19) 0.8509(5) 1.0465(4)
C17 C 0.2521(2) 1.0224(6) 1.0919(3)
C18 C 0.25543(17) 1.0266(5) 0.9592(3)
O7? O 0.2279(2) 1.1141(6) 0.9501(3)
loop_
_geom_bond_atom_site_label_1
_geom_bond_atom_site_label_2
_geom_bond_site_symmetry_1
_geom_bond_site_symmetry_2
Cu1 N1 1_555 1_555
N1 C1 1_555 1_555
N2 C10 1_555 1_555
C1 C2 1_555 1_555
C2 C3 1_555 1_555
C3 C4 1_555 1_555
C4 C5 1_555 1_555
C5 N1 1_555 1_555
C6 C3 1_555 1_555
C7 C6 1_555 1_555
C8 C7 1_555 1_555
C9 C8 1_555 1_555
C10 C9 1_555 1_555
C11 N2 1_555 1_555
C12 C8 1_555 1_555
N3 C13 1_555 1_555
O1 Cu1 1_555 1_555
C13 O1 1_555 1_555
C14 N3 1_555 1_555
H1 C14 1_555 1_555
H2 C14 1_555 1_555
H3 C14 1_555 1_555
C15 N3 1_555 1_555
H4 C15 1_555 1_555
H5 C15 1_555 1_555
H6 C15 1_555 1_555
Cl1 O2 1_555 1_555
O3 Cl1 1_555 1_555
O4 Cl1 1_555 1_555
O5 Cl1 1_555 1_555
N4 C16 1_555 1_555
O6 C16 1_555 1_555
C17 N4 1_555 1_555
C18 N4 1_555 1_555
H7 C1 1_555 1_555
H8 C2 1_555 1_555
H9 C4 1_555 1_555
H10 C5 1_555 1_555
H11 C6 1_555 1_555
H12 C6 1_555 1_555
H13 C7 1_555 1_555
H14 C7 1_555 1_555
H15 C9 1_555 1_555
H16 C10 1_555 1_555
H17 C11 1_555 1_555
H18 C12 1_555 1_555
H19 C13 1_555 1_555
Cu1_2 N2 1_555 1_555
N1A Cu1 1_555 1_555
N2A Cu1_2 1_555 1_555
N2_2 Cu1 1_555 1_555
N2A_2 Cu1 1_555 1_555
C1A N1A 1_555 1_555
C2A C1A 1_555 1_555
C3A C2A 1_555 1_555
C4A C3A 1_555 1_555
C5A N1A 1_555 1_555
C6A C3A 1_555 1_555
C7A C6A 1_555 1_555
C8A C7A 1_555 1_555
C9A C8A 1_555 1_555
C10A N2A 1_555 1_555
C11A N2A 1_555 1_555
C12A C8A 1_555 1_555
N3A C13A 1_555 1_555
O1A Cu1 1_555 1_555
C13A O1A 1_555 1_555
C14A N3A 1_555 1_555
H1A C14A 1_555 1_555
H2A C14A 1_555 1_555
H3A C14A 1_555 1_555
C15A N3A 1_555 1_555
H4A C15A 1_555 1_555
H5A C15A 1_555 1_555
H6A C15A 1_555 1_555
H7A C1A 1_555 1_555
H8A C2A 1_555 1_555
H9A C4A 1_555 1_555
H10A C5A 1_555 1_555
H11A C6A 1_555 1_555
H12A C6A 1_555 1_555
H13A C7A 1_555 1_555
H14A C7A 1_555 1_555
H15A C9A 1_555 1_555
H16A C10A 1_555 1_555
H17A C11A 1_555 1_555
H18A C12A 1_555 1_555
H19A C13A 1_555 1_555
C11 C12 1_555 1_555
C4A C5A 1_555 1_555
C9A C10A 1_555 1_555
C11A C12A 1_555 1_555

#END
