
#######################################################################
#
#                 Cambridge Crystallographic Data Centre
#                                CCDC 
#
#######################################################################
#
# If this CIF has been generated from an entry in the Cambridge 
# Structural Database, then it will include bibliographic, chemical, 
# crystal, experimental, refinement or atomic coordinate data resulting 
# from the CCDC's data processing and validation procedures.
#
#######################################################################

data_IRAXUV
_symmetry_cell_setting           monoclinic
_symmetry_space_group_name_H-M   'P 21/a'
_symmetry_Int_Tables_number      14
_space_group_name_Hall           '-P 2yab'
loop_
_symmetry_equiv_pos_site_id
_symmetry_equiv_pos_as_xyz
1 x,y,z
2 1/2-x,1/2+y,-z
3 -x,-y,-z
4 1/2+x,1/2-y,z
_cell_length_a                   17.5449(3)
_cell_length_b                   13.3798(2)
_cell_length_c                   24.2480(4)
_cell_angle_alpha                90
_cell_angle_beta                 104.6180(10)
_cell_angle_gamma                90
_cell_volume                     5507.9
loop_
_atom_site_label
_atom_site_type_symbol
_atom_site_fract_x
_atom_site_fract_y
_atom_site_fract_z
Cu1 Cu 0.75410(2) 0.44072(3) 0.749184(16)
N1 N 0.75433(13) 0.2881(2) 0.74405(10)
N2 N 0.75398(14) -0.4078(2) 0.75567(11)
C1 C 0.76012(19) 0.2411(2) 0.69611(14)
C2 C 0.7592(2) 0.1387(2) 0.69071(15)
C3 C 0.75149(18) 0.0793(3) 0.73648(15)
C4 C 0.7465(2) 0.1281(2) 0.78537(15)
C5 C 0.74728(19) 0.2306(2) 0.78772(14)
C6 C 0.7501(2) -0.0334(3) 0.73020(18)
C7 C 0.7493(3) -0.0918(3) 0.78456(17)
C8 C 0.7507(2) -0.2015(3) 0.77449(16)
C9 C 0.6824(2) -0.2544(3) 0.74945(18)
C10 C 0.6861(2) -0.3556(3) 0.74045(16)
C11 C 0.8199(2) -0.3567(3) 0.77925(16)
C12 C 0.8206(2) -0.2555(3) 0.78871(17)
N3 N 0.68446(17) 0.44807(19) 0.66942(12)
C13 C 0.7071(2) 0.4963(3) 0.62789(16)
C14 C 0.6610(2) 0.5025(3) 0.57295(16)
C15 C 0.5878(2) 0.4558(3) 0.55906(15)
C16 C 0.5652(2) 0.4058(3) 0.60159(16)
C17 C 0.6138(2) 0.4028(3) 0.65548(15)
C18 C 0.5342(3) 0.4643(4) 0.50010(17)
H1 H 0.5645 0.4894 0.4736
H2 H 0.5132 0.3975 0.4868
N4 N 0.82076(16) 0.43479(18) 0.83064(12)
C19 C 0.8951(2) 0.4019(3) 0.84244(16)
C20 C 0.9444(2) 0.4050(3) 0.89662(16)
C21 C 0.9179(2) 0.4434(3) 0.94072(15)
C22 C 0.8410(2) 0.4775(3) 0.92865(16)
C23 C 0.7945(2) 0.4716(3) 0.87407(15)
C24 C 0.9719(3) 0.4559(4) 0.99927(18)
O1 O 0.86942(15) 0.4524(2) 0.71473(12)
C25 C 0.9131(3) 0.4041(4) 0.69388(19)
N5 N 0.9901(2) 0.4121(3) 0.70544(18)
C26 C 1.0327(3) 0.4860(6) 0.7459(3)
H3 H 1.0657 0.5267 0.7275
H4 H 0.9950 0.5291 0.7582
H5 H 1.0660 0.4517 0.7790
C27 C 1.0365(4) 0.3467(6) 0.6797(4)
H6 H 1.0834 0.3252 0.7086
H7 H 1.0051 0.2880 0.6639
H8 H 1.0525 0.3823 0.6492
O2 O 0.63594(15) 0.44156(19) 0.78558(12)
C28 C 0.5910(2) 0.3906(3) 0.80422(18)
N6 N 0.51386(19) 0.4001(3) 0.79241(18)
C29 C 0.4647(3) 0.3343(5) 0.8147(3)
H9 H 0.4196 0.3136 0.7839
H10 H 0.4950 0.2752 0.8312
H11 H 0.4457 0.3690 0.8442
C30 C 0.4725(3) 0.4778(5) 0.7543(3)
H12 H 0.4417 0.5188 0.7743
H13 H 0.5109 0.5201 0.7421
H14 H 0.4372 0.4469 0.7208
H29 H 0.7707(19) 0.289(3) 0.6615(14)
H30 H 0.766(2) 0.109(3) 0.6491(15)
H31 H 0.735(2) 0.083(3) 0.8153(16)
H32 H 0.749(2) 0.264(3) 0.8219(19)
H33 H 0.798(3) -0.055(3) 0.7216(19)
H34 H 0.700(3) -0.045(3) 0.695(2)
H35 H 0.794(2) -0.073(3) 0.8122(19)
H36 H 0.699(3) -0.085(4) 0.801(2)
H37 H 0.631(2) -0.213(3) 0.7355(17)
H38 H 0.639(2) -0.395(3) 0.7245(14)
H39 H 0.870(2) -0.392(3) 0.7885(16)
H40 H 0.869(3) -0.215(4) 0.803(2)
H41 H 0.749(2) 0.525(3) 0.6405(17)
H42 H 0.680(2) 0.547(3) 0.548(2)
H43 H 0.519(2) 0.370(3) 0.5931(16)
H44 H 0.596(2) 0.373(3) 0.6875(16)
H45 H 0.909(2) 0.379(3) 0.8123(18)
H46 H 0.997(3) 0.382(4) 0.902(2)
H47 H 0.811(3) 0.498(3) 0.960(2)
H48 H 0.742(2) 0.488(3) 0.8643(16)
H49 H 1.002(2) 0.408(3) 1.0051(17)
H50 H 0.941(2) 0.467(3) 1.029(2)
H51 H 0.883(4) 0.345(5) 0.663(3)
H52 H 0.614(3) 0.341(4) 0.8328(19)
Cu1_2 Cu 0.75410(2) 1.44072(3) 0.749184(16)
Cu1_3 Cu 0.75410(2) -0.55928(3) 0.749184(16)
Cu1B Cu 0.24590(2) 0.55928(3) 0.250816(16)
Cu1B_2 Cu 1.24590(2) 0.55928(3) 1.250816(16)
N1_2 N 0.75433(13) 1.2881(2) 0.74405(10)
N2_2 N 0.75398(14) 0.5922(2) 0.75567(11)
N2_3 N 0.75398(14) 1.5922(2) 0.75567(11)
C1_2 C 0.76012(19) 1.2411(2) 0.69611(14)
C2_2 C 0.7592(2) 1.1387(2) 0.69071(15)
C3_2 C 0.75149(18) 1.0793(3) 0.73648(15)
C4_2 C 0.7465(2) 1.1281(2) 0.78537(15)
C5_2 C 0.74728(19) 1.2306(2) 0.78772(14)
C6_2 C 0.7501(2) 0.9666(3) 0.73020(18)
C7_2 C 0.7493(3) 0.9082(3) 0.78456(17)
C8_2 C 0.7507(2) 0.7985(3) 0.77449(16)
C9_2 C 0.6824(2) 0.7456(3) 0.74945(18)
C10_2 C 0.6861(2) 0.6444(3) 0.74045(16)
C11_2 C 0.8199(2) 0.6433(3) 0.77925(16)
C12_2 C 0.8206(2) 0.7445(3) 0.78871(17)
N3B N 0.31554(17) 0.55193(19) 0.33058(12)
N3_2 N 0.68446(17) 1.44807(19) 0.66942(12)
C13B C 0.2929(2) 0.5037(3) 0.37211(16)
C14B C 0.3390(2) 0.4975(3) 0.42705(16)
C15B C 0.4122(2) 0.5442(3) 0.44094(15)
C16B C 0.4348(2) 0.5942(3) 0.39841(16)
C17B C 0.3862(2) 0.5972(3) 0.34452(15)
C18B C 0.4658(3) 0.5357(4) 0.49990(17)
H1B H 0.4355 0.5106 0.5264
H2B H 0.4868 0.6025 0.5132
N4B N 1.17924(16) 0.56521(18) 1.16936(12)
N4_2 N 0.82076(16) 1.43479(18) 0.83064(12)
C19B C 1.1049(2) 0.5981(3) 1.15756(16)
C20B C 1.0556(2) 0.5950(3) 1.10338(16)
C21B C 1.0821(2) 0.5566(3) 1.05928(15)
C22B C 1.1590(2) 0.5225(3) 1.07135(16)
C23B C 1.2055(2) 0.5284(3) 1.12593(15)
C24B C 1.0281(3) 0.5441(4) 1.00073(18)
O1_2 O 0.86942(15) 1.4524(2) 0.71473(12)
C25_2 C 0.9131(3) 1.4041(4) 0.69388(19)
N5_2 N 0.9901(2) 1.4121(3) 0.70544(18)
C26_2 C 1.0327(3) 1.4860(6) 0.7459(3)
H3_2 H 1.0657 1.5267 0.7275
H4_2 H 0.9950 1.5291 0.7582
H5_2 H 1.0660 1.4517 0.7790
C27_2 C 1.0365(4) 1.3467(6) 0.6797(4)
H6_2 H 1.0834 1.3252 0.7086
H7_2 H 1.0051 1.2880 0.6639
H8_2 H 1.0525 1.3823 0.6492
O2_2 O 0.63594(15) 1.44156(19) 0.78558(12)
C28_2 C 0.5910(2) 1.3906(3) 0.80422(18)
N6_2 N 0.51386(19) 1.4001(3) 0.79241(18)
C29_2 C 0.4647(3) 1.3343(5) 0.8147(3)
H9_2 H 0.4196 1.3136 0.7839
H10_2 H 0.4950 1.2752 0.8312
H11_2 H 0.4457 1.3690 0.8442
C30_2 C 0.4725(3) 1.4778(5) 0.7543(3)
H12_2 H 0.4417 1.5188 0.7743
H13_2 H 0.5109 1.5201 0.7421
H14_2 H 0.4372 1.4469 0.7208
H29_2 H 0.7707(19) 1.289(3) 0.6615(14)
H30_2 H 0.766(2) 1.109(3) 0.6491(15)
H31_2 H 0.735(2) 1.083(3) 0.8153(16)
H32_2 H 0.749(2) 1.264(3) 0.8219(19)
H33_2 H 0.798(3) 0.945(3) 0.7216(19)
H34_2 H 0.700(3) 0.955(3) 0.695(2)
H35_2 H 0.794(2) 0.927(3) 0.8122(19)
H36_2 H 0.699(3) 0.915(4) 0.801(2)
H37_2 H 0.631(2) 0.787(3) 0.7355(17)
H38_2 H 0.639(2) 0.605(3) 0.7245(14)
H39_2 H 0.870(2) 0.608(3) 0.7885(16)
H40_2 H 0.869(3) 0.785(4) 0.803(2)
H41B H 0.251(2) 0.475(3) 0.3595(17)
H42B H 0.320(2) 0.453(3) 0.452(2)
H43B H 0.481(2) 0.630(3) 0.4069(16)
H44B H 0.404(2) 0.627(3) 0.3125(16)
H45B H 1.091(2) 0.621(3) 1.1877(18)
H46B H 1.003(3) 0.618(4) 1.098(2)
H47B H 1.189(3) 0.502(3) 1.040(2)
H48B H 1.258(2) 0.512(3) 1.1357(16)
H49B H 0.998(2) 0.592(3) 0.9949(17)
H50B H 1.059(2) 0.533(3) 0.971(2)
H51_2 H 0.883(4) 1.345(5) 0.663(3)
H52_2 H 0.614(3) 1.341(4) 0.8328(19)
Cl1 Cl 0.31443(7) 0.85010(9) 0.07321(5)
O7 O 0.3746(3) 0.8387(5) 0.1239(2)
O8 O 0.2901(4) 0.9483(5) 0.0798(4)
O9 O 0.3448(4) 0.8417(4) 0.0259(2)
O10 O 0.2543(4) 0.7860(5) 0.0750(2)
O3 O 0.2005(3) 0.7005(3) 0.43230(18)
O4 O 0.1085(3) 0.7714(4) 0.4768(2)
O5 O 0.2157(4) 0.8617(5) 0.4660(3)
O6 O 0.1181(3) 0.8270(4) 0.3886(2)
Cl2 Cl 0.16100(8) 0.78681(10) 0.44280(5)
O11 O 0.4926(3) 0.1675(4) 0.1681(3)
N7 N 0.3799(3) 0.2304(4) 0.1164(2)
C31 C 0.4285(3) 0.1594(5) 0.1376(3)
H15 H 0.4107 0.0931 0.1277
C32 C 0.3057(5) 0.2045(9) 0.0800(4)
H16 H 0.2966 0.2439 0.0449
H17 H 0.2641 0.2187 0.0993
H18 H 0.3053 0.1332 0.0708
C33 C 0.4027(6) 0.3326(6) 0.1307(4)
H19 H 0.3893 0.3737 0.0961
H20 H 0.4597 0.3357 0.1476
H21 H 0.3748 0.3578 0.1581
O12 O 0.5734(3) 0.4586(5) 0.1113(3)
C34 C 0.5995(4) 0.4723(6) 0.0711(4)
H22 H 0.6314 0.5300 0.0720
N8 N 0.5882(3) 0.4146(4) 0.0250(3)
C35 C 0.5371(6) 0.3284(6) 0.0193(4)
H23 H 0.5500 0.2813 -0.0079
H24 H 0.4821 0.3498 0.0056
H25 H 0.5445 0.2957 0.0565
C36 C 0.6227(4) 0.4363(6) -0.0236(3)
H26 H 0.6509 0.3772 -0.0319
H27 H 0.6595 0.4925 -0.0138
H28 H 0.5805 0.4535 -0.0572
O13 O -0.0018(6) 0.1543(10) 0.3358(7)
C37 C 0.0541(9) 0.1979(15) 0.3368(7)
N9 N 0.1306(5) 0.1905(7) 0.3677(4)
C38 C 0.1862(9) 0.2719(9) 0.3626(5)
C39 C 0.1658(12) 0.1086(10) 0.4061(6)
O14? O 0.0627(8) 0.5816(11) 0.6228(6)
C40? C -0.0316(9) 0.3770(13) 0.4220(7)
N10? N 0.0380(7) 0.3918(8) 0.4559(5)
C41? C -0.0922(8) 0.5301(9) 0.5553(6)
C42? C -0.0769(6) 0.6619(8) 0.4860(5)
N11? N -0.1084(8) 0.5654(12) 0.4952(7)
C43? C -0.1267(13) 0.4856(15) 0.439(3)
O15? O -0.095(6) 0.483(4) 0.4021(18)
O16? O 0.235(2) 0.157(3) 0.4029(11)
loop_
_geom_bond_atom_site_label_1
_geom_bond_atom_site_label_2
_geom_bond_site_symmetry_1
_geom_bond_site_symmetry_2
Cu1 N1 1_555 1_555
N1 C1 1_555 1_555
N2 C10 1_555 1_555
C1 C2 1_555 1_555
C2 C3 1_555 1_555
C3 C4 1_555 1_555
C4 C5 1_555 1_555
C5 N1 1_555 1_555
C6 C3 1_555 1_555
C7 C6 1_555 1_555
C8 C7 1_555 1_555
C9 C8 1_555 1_555
C10 C9 1_555 1_555
C11 N2 1_555 1_555
C12 C8 1_555 1_555
N3 Cu1 1_555 1_555
C13 N3 1_555 1_555
C14 C13 1_555 1_555
C15 C14 1_555 1_555
C16 C15 1_555 1_555
C17 N3 1_555 1_555
C18 C15 1_555 1_555
H1 C18 1_555 1_555
H2 C18 1_555 1_555
N4 Cu1 1_555 1_555
C19 N4 1_555 1_555
C20 C19 1_555 1_555
C21 C20 1_555 1_555
C22 C21 1_555 1_555
C23 N4 1_555 1_555
C24 C21 1_555 1_555
O1 Cu1 1_555 1_555
C25 O1 1_555 1_555
N5 C25 1_555 1_555
C26 N5 1_555 1_555
H3 C26 1_555 1_555
H4 C26 1_555 1_555
H5 C26 1_555 1_555
C27 N5 1_555 1_555
H6 C27 1_555 1_555
H7 C27 1_555 1_555
H8 C27 1_555 1_555
O2 Cu1 1_555 1_555
C28 O2 1_555 1_555
N6 C28 1_555 1_555
C29 N6 1_555 1_555
H9 C29 1_555 1_555
H10 C29 1_555 1_555
H11 C29 1_555 1_555
C30 N6 1_555 1_555
H12 C30 1_555 1_555
H13 C30 1_555 1_555
H14 C30 1_555 1_555
Cl1 O7 1_555 1_555
O3 Cl2 1_555 1_555
O4 Cl2 1_555 1_555
O5 Cl2 1_555 1_555
O6 Cl2 1_555 1_555
O8 Cl1 1_555 1_555
O9 Cl1 1_555 1_555
O10 Cl1 1_555 1_555
O11 C31 1_555 1_555
N7 C31 1_555 1_555
C31 H15 1_555 1_555
C32 N7 1_555 1_555
H16 C32 1_555 1_555
H17 C32 1_555 1_555
H18 C32 1_555 1_555
C33 N7 1_555 1_555
H19 C33 1_555 1_555
H20 C33 1_555 1_555
H21 C33 1_555 1_555
O12 C34 1_555 1_555
C34 H22 1_555 1_555
N8 C34 1_555 1_555
C35 N8 1_555 1_555
H23 C35 1_555 1_555
H24 C35 1_555 1_555
H25 C35 1_555 1_555
C36 N8 1_555 1_555
H26 C36 1_555 1_555
H27 C36 1_555 1_555
H28 C36 1_555 1_555
O13 C37 1_555 1_555
C37 N9 1_555 1_555
N9 C38 1_555 1_555
C39 N9 1_555 1_555
H29 C1 1_555 1_555
H30 C2 1_555 1_555
H31 C4 1_555 1_555
H32 C5 1_555 1_555
H33 C6 1_555 1_555
H34 C6 1_555 1_555
H35 C7 1_555 1_555
H36 C7 1_555 1_555
H37 C9 1_555 1_555
H38 C10 1_555 1_555
H39 C11 1_555 1_555
H40 C12 1_555 1_555
H41 C13 1_555 1_555
H42 C14 1_555 1_555
H43 C16 1_555 1_555
H44 C17 1_555 1_555
H45 C19 1_555 1_555
H46 C20 1_555 1_555
H47 C22 1_555 1_555
H48 C23 1_555 1_555
H49 C24 1_555 1_555
H50 C24 1_555 1_555
H51 C25 1_555 1_555
H52 C28 1_555 1_555
Cu1_2 N1_2 1_555 1_555
Cu1_3 N2 1_555 1_555
Cu1B N3B 1_555 1_555
Cu1B_2 N4B 1_555 1_555
N1_2 C1_2 1_555 1_555
N2_2 Cu1 1_555 1_555
N2_3 Cu1_2 1_555 1_555
C1_2 C2_2 1_555 1_555
C2_2 C3_2 1_555 1_555
C3_2 C4_2 1_555 1_555
C4_2 C5_2 1_555 1_555
C5_2 N1_2 1_555 1_555
C6_2 C3_2 1_555 1_555
C7_2 C6_2 1_555 1_555
C8_2 C7_2 1_555 1_555
C9_2 C8_2 1_555 1_555
C10_2 N2_2 1_555 1_555
C11_2 N2_2 1_555 1_555
C12_2 C8_2 1_555 1_555
N3B C13B 1_555 1_555
N3_2 Cu1_2 1_555 1_555
C13B C14B 1_555 1_555
C14B C15B 1_555 1_555
C15B C16B 1_555 1_555
C16B C17B 1_555 1_555
C17B N3B 1_555 1_555
C18B C18 1_555 1_555
H1B C18B 1_555 1_555
H2B C18B 1_555 1_555
N4B C19B 1_555 1_555
N4_2 Cu1_2 1_555 1_555
C19B C20B 1_555 1_555
C20B C21B 1_555 1_555
C21B C22B 1_555 1_555
C22B C23B 1_555 1_555
C23B N4B 1_555 1_555
C24B C24 1_555 1_555
O1_2 Cu1_2 1_555 1_555
C25_2 O1_2 1_555 1_555
N5_2 C25_2 1_555 1_555
C26_2 N5_2 1_555 1_555
H3_2 C26_2 1_555 1_555
H4_2 C26_2 1_555 1_555
H5_2 C26_2 1_555 1_555
C27_2 N5_2 1_555 1_555
H6_2 C27_2 1_555 1_555
H7_2 C27_2 1_555 1_555
H8_2 C27_2 1_555 1_555
O2_2 Cu1_2 1_555 1_555
C28_2 O2_2 1_555 1_555
N6_2 C28_2 1_555 1_555
C29_2 N6_2 1_555 1_555
H9_2 C29_2 1_555 1_555
H10_2 C29_2 1_555 1_555
H11_2 C29_2 1_555 1_555
C30_2 N6_2 1_555 1_555
H12_2 C30_2 1_555 1_555
H13_2 C30_2 1_555 1_555
H14_2 C30_2 1_555 1_555
H29_2 C1_2 1_555 1_555
H30_2 C2_2 1_555 1_555
H31_2 C4_2 1_555 1_555
H32_2 C5_2 1_555 1_555
H33_2 C6_2 1_555 1_555
H34_2 C6_2 1_555 1_555
H35_2 C7_2 1_555 1_555
H36_2 C7_2 1_555 1_555
H37_2 C9_2 1_555 1_555
H38_2 C10_2 1_555 1_555
H39_2 C11_2 1_555 1_555
H40_2 C12_2 1_555 1_555
H41B C13B 1_555 1_555
H42B C14B 1_555 1_555
H43B C16B 1_555 1_555
H44B C17B 1_555 1_555
H45B C19B 1_555 1_555
H46B C20B 1_555 1_555
H47B C22B 1_555 1_555
H48B C23B 1_555 1_555
H49B C24B 1_555 1_555
H50B C24B 1_555 1_555
H51_2 C25_2 1_555 1_555
H52_2 C28_2 1_555 1_555
C11 C12 1_555 1_555
C16 C17 1_555 1_555
C22 C23 1_555 1_555
C9_2 C10_2 1_555 1_555
C11_2 C12_2 1_555 1_555
C15B C18B 1_555 1_555
C21B C24B 1_555 1_555

#END
