
#######################################################################
#
#                 Cambridge Crystallographic Data Centre
#                                CCDC 
#
#######################################################################
#
# If this CIF has been generated from an entry in the Cambridge 
# Structural Database, then it will include bibliographic, chemical, 
# crystal, experimental, refinement or atomic coordinate data resulting 
# from the CCDC's data processing and validation procedures.
#
#######################################################################

data_IREBOX
_symmetry_cell_setting           monoclinic
_symmetry_space_group_name_H-M   'P 21/n'
_symmetry_Int_Tables_number      14
_space_group_name_Hall           '-P 2yn'
loop_
_symmetry_equiv_pos_site_id
_symmetry_equiv_pos_as_xyz
1 x,y,z
2 1/2-x,1/2+y,1/2-z
3 -x,-y,-z
4 1/2+x,1/2-y,1/2+z
_cell_length_a                   8.771(2)
_cell_length_b                   14.003(4)
_cell_length_c                   12.458(3)
_cell_angle_alpha                90
_cell_angle_beta                 95.577(9)
_cell_angle_gamma                90
_cell_volume                     1522.85
loop_
_atom_site_label
_atom_site_type_symbol
_atom_site_fract_x
_atom_site_fract_y
_atom_site_fract_z
Fe1 Fe 0.75352(19) 0.36344(12) 0.40058(13)
S1 S 0.7732(4) 0.3968(2) 0.9408(3)
N1 N 0.7804(11) 0.3947(7) 0.5733(8)
N2 N 0.7439(11) 0.7089(7) 1.0435(8)
N3 N 0.5045(11) 0.3560(6) 0.3968(7)
N4 N 0.2423(12) 0.3223(9) 0.3294(9)
N5 N 0.0009(13) 0.3572(7) 0.3985(8)
N6 N 0.7349(13) 0.3143(7) 0.2341(8)
N7 N 0.8076(15) 0.1872(8) 0.1120(10)
N8 N 0.7656(13) 0.0139(8) 0.1299(8)
C1 C 0.8978(14) 0.3601(10) 0.6400(10)
H1 H 0.9799 0.3317 0.6087
C2 C 0.9053(16) 0.3636(10) 0.7521(10)
H2 H 0.9909 0.3395 0.7948
C3 C 0.7849(14) 0.4029(9) 0.7985(10)
C4 C 0.6638(14) 0.4420(9) 0.7322(10)
H3 H 0.5813 0.4716 0.7617
C5 C 0.6683(16) 0.4361(8) 0.6230(10)
H4 H 0.5863 0.4633 0.5792
C6 C 0.6721(15) 0.6384(10) 1.0897(11)
H5 H 0.6135 0.6551 1.1461
C7 C 0.6763(16) 0.5439(9) 1.0622(11)
H6 H 0.6224 0.4980 1.0985
C8 C 0.7637(15) 0.5176(8) 0.9780(10)
C9 C 0.8401(15) 0.5891(10) 0.9285(10)
H7 H 0.9000 0.5745 0.8720
C10 C 0.8271(16) 0.6829(9) 0.9633(10)
H8 H 0.8795 0.7308 0.9288
C11 C 0.3804(16) 0.3424(8) 0.3716(8)
C12 C 0.1162(15) 0.3456(8) 0.3725(10)
C13 C 0.7650(14) 0.2509(9) 0.1790(9)
C14 C 0.7793(13) 0.0968(9) 0.1254(9)
Fe1_2 Fe -0.24648(19) 0.36344(12) 0.40058(13)
Fe1A Fe 0.74648(19) -0.13656(12) 0.09942(13)
Fe1A_2 Fe 0.74648(19) 0.86344(12) 1.09942(13)
N2A N 0.7561(11) 0.2089(7) 0.4565(8)
N5_2 N 1.0009(13) 0.3572(7) 0.3985(8)
N8A N 0.7344(13) 0.5139(8) 0.3701(8)
loop_
_geom_bond_atom_site_label_1
_geom_bond_atom_site_label_2
_geom_bond_site_symmetry_1
_geom_bond_site_symmetry_2
Fe1 N1 1_555 1_555
S1 C3 1_555 1_555
N1 C1 1_555 1_555
N2 C6 1_555 1_555
N3 Fe1 1_555 1_555
N4 C11 1_555 1_555
N5 C12 1_555 1_555
N6 Fe1 1_555 1_555
N7 C13 1_555 1_555
N8 C14 1_555 1_555
C1 H1 1_555 1_555
C2 C1 1_555 1_555
H2 C2 1_555 1_555
C3 C2 1_555 1_555
C4 C3 1_555 1_555
H3 C4 1_555 1_555
C5 N1 1_555 1_555
H4 C5 1_555 1_555
C6 H5 1_555 1_555
C7 C6 1_555 1_555
H6 C7 1_555 1_555
C8 S1 1_555 1_555
C9 C8 1_555 1_555
H7 C9 1_555 1_555
C10 N2 1_555 1_555
H8 C10 1_555 1_555
C11 N3 1_555 1_555
C12 N4 1_555 1_555
C13 N6 1_555 1_555
C14 N7 1_555 1_555
Fe1_2 N5 1_555 1_555
Fe1A N8 1_555 1_555
Fe1A_2 N2 1_555 1_555
N2A Fe1 1_555 1_555
N5_2 Fe1 1_555 1_555
N8A Fe1 1_555 1_555
C4 C5 1_555 1_555
C7 C8 1_555 1_555
C9 C10 1_555 1_555

#END
