
#######################################################################
#
#                 Cambridge Crystallographic Data Centre
#                                CCDC 
#
#######################################################################
#
# If this CIF has been generated from an entry in the Cambridge 
# Structural Database, then it will include bibliographic, chemical, 
# crystal, experimental, refinement or atomic coordinate data resulting 
# from the CCDC's data processing and validation procedures.
#
#######################################################################

data_IREGOB
_symmetry_cell_setting           triclinic
_symmetry_space_group_name_H-M   'P -1'
_symmetry_Int_Tables_number      2
_space_group_name_Hall           '-P 1'
loop_
_symmetry_equiv_pos_site_id
_symmetry_equiv_pos_as_xyz
1 x,y,z
2 -x,-y,-z
_cell_length_a                   6.510(9)
_cell_length_b                   13.076(15)
_cell_length_c                   14.554(16)
_cell_angle_alpha                82.220(10)
_cell_angle_beta                 80.860(10)
_cell_angle_gamma                82.700(10)
_cell_volume                     1204.84
loop_
_atom_site_label
_atom_site_type_symbol
_atom_site_fract_x
_atom_site_fract_y
_atom_site_fract_z
Tb1 Tb -0.33687(7) -0.18511(3) -0.19248(3)
N1 N -0.1401(18) -0.1662(9) -0.5006(8)
H1 H -0.0990 -0.2316 -0.4976
C1 C -0.1890(18) -0.1245(9) -0.4191(7)
C2 C -0.2645(18) -0.0160(9) -0.4272(8)
C3 C -0.2660(19) 0.0384(11) -0.5154(8)
H2 H -0.3062 0.1095 -0.5210
C4 C -0.209(2) -0.0111(12) -0.5967(8)
H3 H -0.2108 0.0263 -0.6557
C5 C -0.151(2) -0.1130(12) -0.5872(9)
H4 H -0.1176 -0.1480 -0.6401
C6 C -0.3379(18) 0.0386(8) -0.3419(8)
O1 O -0.3885(14) -0.0158(6) -0.2645(6)
O2 O -0.3534(18) 0.1344(7) -0.3504(7)
O3 O -0.1603(13) -0.1814(6) -0.3449(5)
N2 N -0.3330(17) -0.3945(7) 0.0859(7)
H5 H -0.3699 -0.3427 0.1178
C7 C -0.3115(16) -0.3733(7) -0.0090(7)
C8 C -0.2498(17) -0.4619(8) -0.0609(8)
C9 C -0.218(2) -0.5600(9) -0.0099(9)
H6 H -0.1785 -0.6177 -0.0422
C10 C -0.244(2) -0.5737(9) 0.0866(10)
H7 H -0.2220 -0.6396 0.1188
C11 C -0.3021(19) -0.4886(9) 0.1348(9)
H8 H -0.3199 -0.4961 0.1999
C12 C -0.220(2) -0.4503(8) -0.1641(9)
O4 O -0.3529(13) -0.2811(5) -0.0423(5)
O5 O -0.2310(15) -0.3604(6) -0.2095(6)
O6 O -0.181(2) -0.5303(7) -0.2029(8)
N3 N -0.3027(14) -0.0733(6) 0.0772(6)
H9 H -0.4315 -0.0472 0.0848
C13 C -0.2129(17) -0.0922(7) -0.0128(7)
C14 C 0.0034(15) -0.1333(7) -0.0212(7)
C15 C 0.1011(17) -0.1498(8) 0.0559(8)
H10 H 0.2418 -0.1756 0.0496
C16 C -0.001(2) -0.1298(10) 0.1432(8)
H11 H 0.0706 -0.1419 0.1949
C17 C -0.2059(19) -0.0922(9) 0.1526(8)
H12 H -0.2782 -0.0797 0.2111
C18 C 0.1197(16) -0.1549(7) -0.1157(7)
O7 O -0.3217(11) -0.0699(5) -0.0779(4)
O8 O 0.0213(12) -0.1768(5) -0.1800(5)
O9 O 0.3117(11) -0.1521(6) -0.1237(5)
O10 O -0.5808(15) -0.2306(9) -0.2915(7)
O9_2 O -0.6883(11) -0.1521(6) -0.1237(5)
Tb1_2 Tb 0.66313(7) -0.18511(3) -0.19248(3)
O11 O 0.533(3) 0.2752(11) -0.2262(13)
O12 O 0.681(9) -0.541(5) -0.350(4)
O13 O 0.109(7) -0.653(3) -0.310(3)
loop_
_geom_bond_atom_site_label_1
_geom_bond_atom_site_label_2
_geom_bond_site_symmetry_1
_geom_bond_site_symmetry_2
Tb1 O1 1_555 1_555
N1 H1 1_555 1_555
C1 N1 1_555 1_555
C2 C1 1_555 1_555
C3 C2 1_555 1_555
H2 C3 1_555 1_555
C4 C3 1_555 1_555
H3 C4 1_555 1_555
C5 N1 1_555 1_555
H4 C5 1_555 1_555
C6 C2 1_555 1_555
O1 C6 1_555 1_555
O2 C6 1_555 1_555
O3 Tb1 1_555 1_555
N2 H5 1_555 1_555
C7 N2 1_555 1_555
C8 C7 1_555 1_555
C9 C8 1_555 1_555
H6 C9 1_555 1_555
C10 C9 1_555 1_555
H7 C10 1_555 1_555
C11 N2 1_555 1_555
H8 C11 1_555 1_555
C12 C8 1_555 1_555
O4 Tb1 1_555 1_555
O5 Tb1 1_555 1_555
O6 C12 1_555 1_555
N3 H9 1_555 1_555
C13 N3 1_555 1_555
C14 C13 1_555 1_555
C15 C14 1_555 1_555
H10 C15 1_555 1_555
C16 C15 1_555 1_555
H11 C16 1_555 1_555
C17 N3 1_555 1_555
H12 C17 1_555 1_555
C18 C14 1_555 1_555
O7 Tb1 1_555 1_555
O8 Tb1 1_555 1_555
O9 C18 1_555 1_555
O10 Tb1 1_555 1_555
O9_2 Tb1 1_555 1_555
Tb1_2 O9 1_555 1_555
C1 O3 1_555 1_555
C4 C5 1_555 1_555
C7 O4 1_555 1_555
C10 C11 1_555 1_555
C12 O5 1_555 1_555
C13 O7 1_555 1_555
C16 C17 1_555 1_555
C18 O8 1_555 1_555

#END
