
#######################################################################
#
#                 Cambridge Crystallographic Data Centre
#                                CCDC 
#
#######################################################################
#
# If this CIF has been generated from an entry in the Cambridge 
# Structural Database, then it will include bibliographic, chemical, 
# crystal, experimental, refinement or atomic coordinate data resulting 
# from the CCDC's data processing and validation procedures.
#
#######################################################################

data_IREXAE
_symmetry_cell_setting           monoclinic
_symmetry_space_group_name_H-M   'P 21/c'
_symmetry_Int_Tables_number      14
_space_group_name_Hall           '-P 2ybc'
loop_
_symmetry_equiv_pos_site_id
_symmetry_equiv_pos_as_xyz
1 x,y,z
2 -x,1/2+y,1/2-z
3 -x,-y,-z
4 x,1/2-y,1/2+z
_cell_length_a                   16.864(3)
_cell_length_b                   12.091(2)
_cell_length_c                   26.466(5)
_cell_angle_alpha                90
_cell_angle_beta                 97.28(3)
_cell_angle_gamma                90
_cell_volume                     5352.98
loop_
_atom_site_label
_atom_site_type_symbol
_atom_site_fract_x
_atom_site_fract_y
_atom_site_fract_z
Ge1 Ge 0.15833(5) -0.47572(7) 0.03383(4)
Ge2 Ge 0.35336(5) -0.47345(7) 0.04874(3)
Ge3 Ge 0.25396(5) -0.55085(7) -0.02668(3)
Ge4 Ge 0.25533(5) -0.36730(7) 0.09750(3)
Ge5 Ge 0.33931(5) -0.25511(7) 0.03877(3)
Ge6 Ge 0.16777(5) -0.25754(7) 0.02663(3)
Ge7 Ge 0.34606(5) -0.38725(7) -0.04124(3)
Ge8 Ge 0.15814(6) -0.39080(7) -0.05589(4)
Ge9 Ge 0.25086(5) -0.22133(7) -0.04734(3)
Rb1 Rb -0.45198(5) -0.34690(8) 0.03437(4)
Rb2 Rb -0.03523(7) -0.34399(10) 0.03991(5)
K1 K -0.26494(8) -0.25172(12) -0.06956(6)
K2 K 0.25537(10) -0.23987(15) 0.22926(7)
O1 O -0.1049(3) -0.1722(5) -0.0306(2)
O2 O -0.1272(3) -0.2518(5) -0.1320(3)
O3 O -0.4291(3) -0.2385(5) -0.1354(2)
O4 O -0.4081(3) -0.1645(4) -0.0326(2)
O5 O 0.0938(3) -0.1972(5) 0.2378(2)
O6 O 0.1795(3) -0.0485(5) 0.1808(2)
O7 O 0.4233(3) -0.2695(5) 0.2279(2)
O8 O 0.3312(4) -0.4245(5) 0.2796(2)
N1 N -0.2878(4) -0.3352(6) -0.1721(3)
H1 H -0.2886 -0.4097 -0.1674
N2 N -0.2488(4) -0.0672(6) 0.0013(3)
H2 H -0.2529 -0.0011 -0.0153
N3 N 0.1849(4) -0.3466(6) 0.3105(3)
H3 H 0.2005 -0.3076 0.3394
N4 N 0.3337(4) -0.1134(5) 0.1619(3)
H4 H 0.3257 -0.1532 0.1325
N5 N 0.0435(5) -0.3609(7) 0.1414(3)
H5 H 0.0898 -0.3986 0.1428
H6 H 0.0526 -0.2941 0.1560
N6 N -0.1266(5) -0.2995(8) 0.1286(4)
H7 H -0.1323 -0.2261 0.1323
H8 H -0.1756 -0.3298 0.1224
N7 N 0.4057(7) 0.0784(11) 0.3639(4)
H9 H 0.4470 0.0958 0.3469
H10 H 0.4054 0.0042 0.3660
N8 N 0.2817(7) -0.0888(9) 0.3174(4)
H11 H 0.2363 -0.0767 0.3311
H12 H 0.3195 -0.1147 0.3415
C1 C -0.0434(4) -0.1718(8) -0.0627(3)
H13 H -0.0451 -0.1032 -0.0818
H14 H 0.0084 -0.1770 -0.0422
C2 C -0.0548(5) -0.2684(8) -0.0988(3)
H15 H -0.0577 -0.3366 -0.0799
H16 H -0.0101 -0.2734 -0.1184
C3 C -0.1426(6) -0.3419(9) -0.1673(4)
H17 H -0.0997 -0.3478 -0.1883
H18 H -0.1456 -0.4109 -0.1489
C4 C -0.2210(6) -0.3204(10) -0.2003(4)
H19 H -0.2262 -0.3706 -0.2291
H20 H -0.2213 -0.2454 -0.2133
C5 C -0.3643(6) -0.3141(8) -0.2021(3)
H21 H -0.3645 -0.2396 -0.2157
H22 H -0.3713 -0.3651 -0.2306
C6 C -0.4329(5) -0.3268(7) -0.1714(3)
H23 H -0.4293 -0.3974 -0.1539
H24 H -0.4833 -0.3242 -0.1937
C7 C -0.4871(5) -0.2506(8) -0.1020(4)
H25 H -0.5399 -0.2523 -0.1214
H26 H -0.4787 -0.3198 -0.0836
C8 C -0.4817(4) -0.1571(7) -0.0655(4)
H27 H -0.5261 -0.1599 -0.0456
H28 H -0.4842 -0.0875 -0.0838
C9 C -0.3936(5) -0.0719(7) 0.0015(3)
H29 H -0.3954 -0.0038 -0.0179
H30 H -0.4349 -0.0686 0.0239
C10 C -0.3146(6) -0.0832(7) 0.0323(3)
H31 H -0.3103 -0.1562 0.0476
H32 H -0.3100 -0.0292 0.0595
C11 C -0.1694(5) -0.0805(8) 0.0322(4)
H33 H -0.1678 -0.1510 0.0497
H34 H -0.1624 -0.0226 0.0578
C12 C -0.1032(5) -0.0755(7) 0.0013(4)
H35 H -0.0527 -0.0721 0.0234
H36 H -0.1080 -0.0095 -0.0197
C13 C 0.0980(5) -0.3392(9) 0.3009(4)
H37 H 0.0755 -0.3613 0.3313
H38 H 0.0785 -0.3902 0.2739
C14 C 0.0700(6) -0.2261(9) 0.2862(4)
H39 H 0.0122 -0.2227 0.2843
H40 H 0.0926 -0.1736 0.3118
C15 C 0.0664(6) -0.0916(9) 0.2217(4)
H41 H 0.0852 -0.0376 0.2476
H42 H 0.0084 -0.0907 0.2175
C16 C 0.0952(5) -0.0605(8) 0.1726(4)
H43 H 0.0805 -0.1173 0.1473
H44 H 0.0707 0.0085 0.1602
C17 C 0.2105(5) -0.0146(7) 0.1352(3)
H45 H 0.1880 0.0563 0.1238
H46 H 0.1964 -0.0683 0.1083
C18 C 0.2997(5) -0.0056(7) 0.1465(3)
H47 H 0.3217 0.0202 0.1165
H48 H 0.3135 0.0475 0.1737
C19 C 0.4208(5) -0.1124(7) 0.1737(3)
H49 H 0.4360 -0.0668 0.2035
H50 H 0.4441 -0.0803 0.1454
C20 C 0.4523(5) -0.2261(8) 0.1834(4)
H51 H 0.4351 -0.2730 0.1544
H52 H 0.5103 -0.2247 0.1884
C21 C 0.4421(5) -0.3820(8) 0.2351(4)
H53 H 0.4994 -0.3923 0.2362
H54 H 0.4158 -0.4246 0.2067
C22 C 0.4157(5) -0.4220(9) 0.2837(4)
H55 H 0.4367 -0.4956 0.2914
H56 H 0.4364 -0.3733 0.3114
C23 C 0.3051(7) -0.4621(9) 0.3265(4)
H57 H 0.3262 -0.4144 0.3545
H58 H 0.3237 -0.5369 0.3341
C24 C 0.2142(6) -0.4586(8) 0.3194(4)
H59 H 0.1939 -0.5048 0.2907
H60 H 0.1946 -0.4881 0.3496
C25 C -0.0173(5) -0.4226(9) 0.1638(4)
H61 H 0.0068 -0.4585 0.1948
H62 H -0.0392 -0.4795 0.1403
C26 C -0.0835(6) -0.3469(11) 0.1759(4)
H63 H -0.1206 -0.3881 0.1939
H64 H -0.0611 -0.2876 0.1980
C27 C 0.3388(8) 0.1048(13) 0.3314(6)
H65 H 0.3503 0.1688 0.3115
H66 H 0.2965 0.1252 0.3514
C28 C 0.3077(8) 0.0081(11) 0.2939(4)
H67 H 0.2636 0.0359 0.2702
H68 H 0.3503 -0.0122 0.2743
Rb2B Rb 0.03523(7) -0.65601(10) -0.03991(5)
Rb1_2 Rb 0.54802(5) -0.34690(8) 0.03437(4)
Rb1B Rb 0.45198(5) -0.65310(8) -0.03437(4)
Ge2_2 Ge -0.64664(5) -0.47345(7) 0.04874(3)
Ge2B Ge -0.35336(5) -0.52655(7) -0.04874(3)
Ge3B Ge -0.25396(5) -0.44915(7) 0.02668(3)
Ge5_2 Ge -0.66069(5) -0.25511(7) 0.03877(3)
Ge7_2 Ge -0.65394(5) -0.38725(7) -0.04124(3)
Ge7B Ge -0.34606(5) -0.61275(7) 0.04124(3)
N7A N -0.4057(7) -0.4216(11) 0.1361(4)
Ge1B Ge -0.15833(5) -0.52428(7) -0.03383(4)
Ge8B Ge -0.15814(6) -0.60920(7) 0.05589(4)
K1B K 0.26494(8) -0.74828(12) 0.06956(6)
Rb1A Rb 0.45198(5) 0.15310(8) 0.46563(4)
H9A H -0.4470 -0.4042 0.1531
H10A H -0.4054 -0.4958 0.1340
loop_
_geom_bond_atom_site_label_1
_geom_bond_atom_site_label_2
_geom_bond_site_symmetry_1
_geom_bond_site_symmetry_2
Ge1 Ge3 1_555 1_555
Ge2 Ge3 1_555 1_555
Ge3 Ge7 1_555 1_555
Ge4 Ge1 1_555 1_555
Ge5 Ge2 1_555 1_555
Ge6 Ge1 1_555 1_555
Ge7 Ge2 1_555 1_555
Ge8 Ge1 1_555 1_555
Ge9 Ge5 1_555 1_555
Rb1 O4 1_555 1_555
Rb2 Ge1 1_555 1_555
K1 O1 1_555 1_555
K2 Ge4 1_555 1_555
O1 Rb2 1_555 1_555
O2 K1 1_555 1_555
O3 K1 1_555 1_555
O4 K1 1_555 1_555
O5 K2 1_555 1_555
O6 K2 1_555 1_555
O7 K2 1_555 1_555
O8 K2 1_555 1_555
N1 K1 1_555 1_555
H1 N1 1_555 1_555
N2 K1 1_555 1_555
H2 N2 1_555 1_555
N3 K2 1_555 1_555
H3 N3 1_555 1_555
N4 K2 1_555 1_555
H4 N4 1_555 1_555
N5 Rb2 1_555 1_555
H5 N5 1_555 1_555
H6 N5 1_555 1_555
N6 Rb2 1_555 1_555
H7 N6 1_555 1_555
H8 N6 1_555 1_555
N7 H9 1_555 1_555
H10 N7 1_555 1_555
N8 K2 1_555 1_555
H11 N8 1_555 1_555
H12 N8 1_555 1_555
C1 O1 1_555 1_555
H13 C1 1_555 1_555
H14 C1 1_555 1_555
C2 O2 1_555 1_555
H15 C2 1_555 1_555
H16 C2 1_555 1_555
C3 O2 1_555 1_555
H17 C3 1_555 1_555
H18 C3 1_555 1_555
C4 N1 1_555 1_555
H19 C4 1_555 1_555
H20 C4 1_555 1_555
C5 N1 1_555 1_555
H21 C5 1_555 1_555
H22 C5 1_555 1_555
C6 O3 1_555 1_555
H23 C6 1_555 1_555
H24 C6 1_555 1_555
C7 O3 1_555 1_555
H25 C7 1_555 1_555
H26 C7 1_555 1_555
C8 O4 1_555 1_555
H27 C8 1_555 1_555
H28 C8 1_555 1_555
C9 O4 1_555 1_555
H29 C9 1_555 1_555
H30 C9 1_555 1_555
C10 N2 1_555 1_555
H31 C10 1_555 1_555
H32 C10 1_555 1_555
C11 N2 1_555 1_555
H33 C11 1_555 1_555
H34 C11 1_555 1_555
C12 O1 1_555 1_555
H35 C12 1_555 1_555
H36 C12 1_555 1_555
C13 N3 1_555 1_555
H37 C13 1_555 1_555
H38 C13 1_555 1_555
C14 O5 1_555 1_555
H39 C14 1_555 1_555
H40 C14 1_555 1_555
C15 O5 1_555 1_555
H41 C15 1_555 1_555
H42 C15 1_555 1_555
C16 O6 1_555 1_555
H43 C16 1_555 1_555
H44 C16 1_555 1_555
C17 O6 1_555 1_555
H45 C17 1_555 1_555
H46 C17 1_555 1_555
C18 N4 1_555 1_555
H47 C18 1_555 1_555
H48 C18 1_555 1_555
C19 N4 1_555 1_555
H49 C19 1_555 1_555
H50 C19 1_555 1_555
C20 O7 1_555 1_555
H51 C20 1_555 1_555
H52 C20 1_555 1_555
C21 O7 1_555 1_555
H53 C21 1_555 1_555
H54 C21 1_555 1_555
C22 O8 1_555 1_555
H55 C22 1_555 1_555
H56 C22 1_555 1_555
C23 O8 1_555 1_555
H57 C23 1_555 1_555
H58 C23 1_555 1_555
C24 N3 1_555 1_555
H59 C24 1_555 1_555
H60 C24 1_555 1_555
C25 N5 1_555 1_555
H61 C25 1_555 1_555
H62 C25 1_555 1_555
C26 N6 1_555 1_555
H63 C26 1_555 1_555
H64 C26 1_555 1_555
C27 N7 1_555 1_555
H65 C27 1_555 1_555
H66 C27 1_555 1_555
C28 N8 1_555 1_555
H67 C28 1_555 1_555
H68 C28 1_555 1_555
Rb2B Ge1 1_555 1_555
Rb1_2 Ge2 1_555 1_555
Rb1B Ge2 1_555 1_555
Ge2_2 Rb1 1_555 1_555
Ge2B Rb1 1_555 1_555
Ge3B Rb1 1_555 1_555
Ge5_2 Rb1 1_555 1_555
Ge7_2 Rb1 1_555 1_555
Ge7B Rb1 1_555 1_555
N7A Rb1 1_555 1_555
Ge1B Rb2 1_555 1_555
Ge8B Rb2 1_555 1_555
K1B Ge1 1_555 1_555
Rb1A N7 1_555 1_555
H9A N7A 1_555 1_555
H10A N7A 1_555 1_555
Ge2 Ge4 1_555 1_555
Ge2 K1B 1_555 1_555
Ge3 Ge8 1_555 1_555
Ge3 Rb2B 1_555 1_555
Ge3 Rb1B 1_555 1_555
Ge3 K1B 1_555 1_555
Ge4 Ge5 1_555 1_555
Ge4 Ge6 1_555 1_555
Ge5 Ge6 1_555 1_555
Ge5 Ge7 1_555 1_555
Ge5 Rb1_2 1_555 1_555
Ge6 Ge8 1_555 1_555
Ge6 Ge9 1_555 1_555
Ge6 Rb2 1_555 1_555
Ge7 Ge9 1_555 1_555
Ge7 Rb1_2 1_555 1_555
Ge7 Rb1B 1_555 1_555
Ge8 Ge9 1_555 1_555
Ge8 Rb2B 1_555 1_555
Rb2 Ge3B 1_555 1_555
K1 Ge2B 1_555 1_555
K1 Ge3B 1_555 1_555
K1 Ge1B 1_555 1_555
C1 C2 1_555 1_555
C3 C4 1_555 1_555
C5 C6 1_555 1_555
C7 C8 1_555 1_555
C9 C10 1_555 1_555
C11 C12 1_555 1_555
C13 C14 1_555 1_555
C15 C16 1_555 1_555
C17 C18 1_555 1_555
C19 C20 1_555 1_555
C21 C22 1_555 1_555
C23 C24 1_555 1_555
C25 C26 1_555 1_555
C27 C28 1_555 1_555
Rb2B Ge1B 1_555 1_555
Ge2_2 Ge5_2 1_555 1_555
Ge2_2 Ge7_2 1_555 1_555
Ge2B Ge3B 1_555 1_555
Ge2B Ge7B 1_555 1_555
Ge3B Ge7B 1_555 1_555
Ge3B Ge1B 1_555 1_555
Ge3B Ge8B 1_555 1_555
Ge5_2 Ge7_2 1_555 1_555
Ge1B Ge8B 1_555 1_555

#END
