
#######################################################################
#
#                 Cambridge Crystallographic Data Centre
#                                CCDC 
#
#######################################################################
#
# If this CIF has been generated from an entry in the Cambridge 
# Structural Database, then it will include bibliographic, chemical, 
# crystal, experimental, refinement or atomic coordinate data resulting 
# from the CCDC's data processing and validation procedures.
#
#######################################################################

data_IREYAG
_symmetry_cell_setting           monoclinic
_symmetry_space_group_name_H-M   'P 21/a'
_symmetry_Int_Tables_number      14
_space_group_name_Hall           '-P 2yab'
loop_
_symmetry_equiv_pos_site_id
_symmetry_equiv_pos_as_xyz
1 x,y,z
2 1/2-x,1/2+y,-z
3 -x,-y,-z
4 1/2+x,1/2-y,z
_cell_length_a                   14.4552(6)
_cell_length_b                   16.8840(8)
_cell_length_c                   25.0547(10)
_cell_angle_alpha                90
_cell_angle_beta                 103.119(3)
_cell_angle_gamma                90
_cell_volume                     5955.3
loop_
_atom_site_label
_atom_site_type_symbol
_atom_site_fract_x
_atom_site_fract_y
_atom_site_fract_z
C1 C 1.0609(6) 0.7148(4) 0.2588(4)
H1 H 1.0407 0.7005 0.2221
C2 C 1.0635(7) 0.7941(5) 0.2729(4)
H2 H 1.0436 0.8325 0.2462
C3 C 1.0949(8) 0.8150(5) 0.3256(5)
H3 H 1.0978 0.8683 0.3353
C4 C 1.1229(7) 0.7584(5) 0.3654(4)
H4 H 1.1431 0.7724 0.4021
C5 C 1.1200(6) 0.6786(5) 0.3489(4)
C6 C 1.1508(7) 0.6148(5) 0.3908(3)
H5 H 1.2163 0.6237 0.4098
H6 H 1.1118 0.6167 0.4176
C7 C 1.1646(6) 0.4764(5) 0.3961(3)
H7 H 1.1846 0.4868 0.4334
C8 C 1.1621(6) 0.3933(4) 0.3796(3)
C9 C 1.1833(8) 0.3391(5) 0.4225(4)
H8 H 1.1960 0.3581 0.4583
C10 C 1.1863(8) 0.2588(6) 0.4144(4)
C11 C 1.2082(13) 0.2007(7) 0.4622(5)
H9 H 1.2107 0.1478 0.4485
H10 H 1.1594 0.2038 0.4825
H11 H 1.2683 0.2138 0.4859
C12 C 1.1716(7) 0.2332(5) 0.3617(4)
H12 H 1.1729 0.1789 0.3554
C13 C 1.1544(6) 0.2849(4) 0.3156(3)
C14 C 1.1473(5) 0.3666(4) 0.3249(3)
C15 C 1.1480(7) 0.2484(5) 0.2631(4)
H13 H 1.1449 0.1934 0.2619
C16 C 1.1487(8) 0.2402(5) 0.1691(4)
H14 H 1.1110 0.1925 0.1683
H15 H 1.2137 0.2241 0.1707
C17 C 1.1134(7) 0.2845(5) 0.1184(4)
C18 C 1.0999(10) 0.2514(7) 0.0658(5)
H16 H 1.1142 0.1983 0.0620
C19 C 1.0669(10) 0.2954(9) 0.0208(5)
H17 H 1.0593 0.2731 -0.0139
C20 C 1.0446(9) 0.3728(7) 0.0265(5)
H18 H 1.0203 0.4036 -0.0043
C21 C 1.0584(7) 0.4054(7) 0.0782(4)
H19 H 1.0428 0.4583 0.0817
C22 C 0.2368(8) 0.5225(6) 0.0757(4)
H20 H 0.2459 0.4698 0.0866
C23 C 0.2305(10) 0.5421(9) 0.0214(5)
H21 H 0.2373 0.5031 -0.0036
C24 C 0.2143(11) 0.6189(9) 0.0046(5)
H22 H 0.2062 0.6322 -0.0322
C25 C 0.2103(9) 0.6760(8) 0.0430(5)
H23 H 0.2040 0.7290 0.0326
C26 C 0.2153(7) 0.6559(5) 0.0960(4)
C27 C 0.2057(8) 0.7134(5) 0.1406(4)
H24 H 0.2400 0.7616 0.1366
H25 H 0.1392 0.7270 0.1365
C28 C 0.2804(7) 0.7267(5) 0.2333(4)
H26 H 0.2836 0.7799 0.2243
C29 C 0.3199(6) 0.7060(4) 0.2897(4)
C30 C 0.3461(7) 0.7661(5) 0.3277(5)
H27 H 0.3362 0.8181 0.3154
C31 C 0.3853(8) 0.7543(6) 0.3820(5)
C32 C 0.4116(10) 0.8236(8) 0.4218(6)
H28 H 0.3961 0.8726 0.4024
H29 H 0.4785 0.8222 0.4380
H30 H 0.3769 0.8196 0.4501
C33 C 0.4013(7) 0.6775(6) 0.3993(4)
H31 H 0.4288 0.6678 0.4361
C34 C 0.3775(6) 0.6126(5) 0.3635(4)
C35 C 0.3358(6) 0.6243(5) 0.3080(3)
C36 C 0.3987(7) 0.5348(5) 0.3883(3)
H32 H 0.4213 0.5337 0.4261
C37 C 0.4191(8) 0.3960(6) 0.3965(4)
H33 H 0.3805 0.3902 0.4233
H34 H 0.4848 0.4013 0.4161
C38 C 0.4086(6) 0.3251(5) 0.3616(4)
C39 C 0.4229(8) 0.2483(6) 0.3853(5)
H35 H 0.4353 0.2425 0.4232
C40 C 0.4184(9) 0.1838(6) 0.3533(5)
H36 H 0.4255 0.1332 0.3684
C41 C 0.4028(8) 0.1950(6) 0.2966(5)
H37 H 0.4029 0.1517 0.2736
C42 C 0.3875(7) 0.2689(5) 0.2751(4)
H38 H 0.3764 0.2757 0.2373
C43 C 0.8603(7) 0.5163(5) 0.2792(4)
C44 C 0.5740(7) 0.4805(6) 0.2657(4)
Ag1 Ag 0.71708(5) 0.50016(5) 0.27227(4)
N1 N 1.0872(5) 0.6578(4) 0.2969(3)
N2 N 1.1420(5) 0.5362(3) 0.3645(3)
N3 N 1.1461(5) 0.2841(3) 0.2179(3)
N4 N 1.0934(5) 0.3635(4) 0.1235(3)
N5 N 0.2300(5) 0.5783(4) 0.1131(3)
N6 N 0.2420(5) 0.6810(4) 0.1950(3)
N7 N 0.3897(5) 0.4674(4) 0.3636(3)
N8 N 0.3881(5) 0.3328(4) 0.3076(3)
N9 N 0.9378(5) 0.5181(4) 0.2803(3)
N10 N 0.4964(5) 0.4725(4) 0.2640(3)
O1 O 1.1300(4) 0.4189(3) 0.2845(2)
O2 O 1.1037(4) 0.5261(3) 0.2067(2)
H47 H 1.0508 0.5450 0.1778
O3 O 0.9541(6) 0.3931(5) 0.1885(3)
O4 O 0.3110(4) 0.5651(3) 0.2746(2)
O5 O 0.2708(3) 0.4429(3) 0.2095(2)
H48 H 0.2976 0.4210 0.1801
Zn1 Zn 1.07838(6) 0.53422(5) 0.28272(3)
Zn2 Zn 1.12658(7) 0.40379(5) 0.20363(4)
Zn3 Zn 0.23303(7) 0.56007(5) 0.19591(4)
Zn4 Zn 0.36812(6) 0.45124(5) 0.28025(4)
O2_2 O 0.1037(4) 0.5261(3) 0.2067(2)
H47_2 H 0.0508 0.5450 0.1778
O5_2 O 1.2708(3) 0.4429(3) 0.2095(2)
H48_2 H 1.2976 0.4210 0.1801
Zn2_2 Zn 0.12658(7) 0.40379(5) 0.20363(4)
Zn3_2 Zn 1.23303(7) 0.56007(5) 0.19591(4)
C45 C 1.5889(14) 0.9215(13) 0.5183(11)
O18 O 1.5078(12) 0.9690(9) 0.5214(7)
C46 C 0.9844(19) 0.887(2) 0.1258(15)
H39 H 0.9461 0.9207 0.1436
H40 H 0.9621 0.8325 0.1243
C47 C 0.996(2) 0.918(3) 0.0711(13)
H41 H 0.9452 0.9557 0.0575
H42 H 0.9883 0.8746 0.0454
C48 C 1.090(2) 0.9589(18) 0.0712(13)
H43 H 1.0810 1.0099 0.0529
H44 H 1.1313 0.9260 0.0551
C49 C 1.125(2) 0.967(2) 0.1328(13)
H45 H 1.1940 0.9674 0.1440
H46 H 1.0997 1.0136 0.1471
O19 O 1.0849(19) 0.8948(15) 0.1479(9)
Cl1 Cl 1.6673(2) 0.52993(17) 0.45161(11)
O6 O 1.6237(9) 0.5004(7) 0.4002(4)
O7 O 1.7649(9) 0.5269(10) 0.4602(6)
O8 O 1.6420(10) 0.4809(6) 0.4920(4)
O9 O 1.6352(12) 0.6099(7) 0.4609(6)
Cl2 Cl 0.8790(2) 0.18650(18) 0.10752(13)
O10 O 0.9561(11) 0.156(2) 0.1373(14)
O11 O 0.8835(12) 0.2661(6) 0.1092(6)
O12 O 0.8068(8) 0.1559(6) 0.1287(5)
O13 O 0.871(2) 0.1669(11) 0.0582(7)
Cl3 Cl 0.8936(2) 0.6098(2) 0.11809(11)
O14 O 0.9906(7) 0.6100(8) 0.1142(4)
O15 O 0.8810(10) 0.6294(9) 0.1683(4)
O16 O 0.8292(7) 0.6331(7) 0.0734(4)
O17 O 0.8633(16) 0.5187(9) 0.1168(8)
loop_
_geom_bond_atom_site_label_1
_geom_bond_atom_site_label_2
_geom_bond_site_symmetry_1
_geom_bond_site_symmetry_2
C1 H1 1_555 1_555
C2 C1 1_555 1_555
H2 C2 1_555 1_555
C3 C2 1_555 1_555
H3 C3 1_555 1_555
C4 C3 1_555 1_555
H4 C4 1_555 1_555
C5 C4 1_555 1_555
C6 C5 1_555 1_555
H5 C6 1_555 1_555
H6 C6 1_555 1_555
C7 H7 1_555 1_555
C8 C7 1_555 1_555
C9 C8 1_555 1_555
H8 C9 1_555 1_555
C10 C9 1_555 1_555
C11 C10 1_555 1_555
H9 C11 1_555 1_555
H10 C11 1_555 1_555
H11 C11 1_555 1_555
C12 C10 1_555 1_555
H12 C12 1_555 1_555
C13 C12 1_555 1_555
C14 C8 1_555 1_555
C15 C13 1_555 1_555
H13 C15 1_555 1_555
C16 H14 1_555 1_555
H15 C16 1_555 1_555
C17 C16 1_555 1_555
C18 C17 1_555 1_555
H16 C18 1_555 1_555
C19 C18 1_555 1_555
H17 C19 1_555 1_555
C20 C19 1_555 1_555
H18 C20 1_555 1_555
C21 C20 1_555 1_555
H19 C21 1_555 1_555
C22 H20 1_555 1_555
C23 C22 1_555 1_555
H21 C23 1_555 1_555
C24 C23 1_555 1_555
H22 C24 1_555 1_555
C25 C24 1_555 1_555
H23 C25 1_555 1_555
C26 C25 1_555 1_555
C27 C26 1_555 1_555
H24 C27 1_555 1_555
H25 C27 1_555 1_555
C28 H26 1_555 1_555
C29 C28 1_555 1_555
C30 C29 1_555 1_555
H27 C30 1_555 1_555
C31 C30 1_555 1_555
C32 C31 1_555 1_555
H28 C32 1_555 1_555
H29 C32 1_555 1_555
H30 C32 1_555 1_555
C33 C31 1_555 1_555
H31 C33 1_555 1_555
C34 C33 1_555 1_555
C35 C29 1_555 1_555
C36 C34 1_555 1_555
H32 C36 1_555 1_555
C37 H33 1_555 1_555
H34 C37 1_555 1_555
C38 C37 1_555 1_555
C39 C38 1_555 1_555
H35 C39 1_555 1_555
C40 C39 1_555 1_555
H36 C40 1_555 1_555
C41 C40 1_555 1_555
H37 C41 1_555 1_555
C42 C41 1_555 1_555
H38 C42 1_555 1_555
C43 Ag1 1_555 1_555
C44 Ag1 1_555 1_555
C45 O18 1_555 1_555
C46 H39 1_555 1_555
H40 C46 1_555 1_555
C47 C46 1_555 1_555
H41 C47 1_555 1_555
H42 C47 1_555 1_555
C48 C47 1_555 1_555
H43 C48 1_555 1_555
H44 C48 1_555 1_555
C49 C48 1_555 1_555
H45 C49 1_555 1_555
H46 C49 1_555 1_555
Cl1 O6 1_555 1_555
Cl2 O10 1_555 1_555
Cl3 O14 1_555 1_555
N1 C1 1_555 1_555
N2 C6 1_555 1_555
N3 C15 1_555 1_555
N4 C17 1_555 1_555
N5 C22 1_555 1_555
N6 C27 1_555 1_555
N7 C36 1_555 1_555
N8 C38 1_555 1_555
N9 C43 1_555 1_555
N10 C44 1_555 1_555
O1 C14 1_555 1_555
O2 H47 1_555 1_555
O3 Zn2 1_555 1_555
O4 C35 1_555 1_555
O5 H48 1_555 1_555
O7 Cl1 1_555 1_555
O8 Cl1 1_555 1_555
O9 Cl1 1_555 1_555
O11 Cl2 1_555 1_555
O12 Cl2 1_555 1_555
O13 Cl2 1_555 1_555
O15 Cl3 1_555 1_555
O16 Cl3 1_555 1_555
O17 Cl3 1_555 1_555
O19 C46 1_555 1_555
Zn1 N1 1_555 1_555
Zn2 N3 1_555 1_555
Zn3 N5 1_555 1_555
Zn4 N7 1_555 1_555
O2_2 Zn3 1_555 1_555
H47_2 O2_2 1_555 1_555
O5_2 Zn2 1_555 1_555
H48_2 O5_2 1_555 1_555
Zn2_2 O5 1_555 1_555
Zn3_2 O2 1_555 1_555
C5 N1 1_555 1_555
C7 N2 1_555 1_555
C13 C14 1_555 1_555
C16 N3 1_555 1_555
C21 N4 1_555 1_555
C26 N5 1_555 1_555
C28 N6 1_555 1_555
C34 C35 1_555 1_555
C37 N7 1_555 1_555
C42 N8 1_555 1_555
C49 O19 1_555 1_555
N2 Zn1 1_555 1_555
N4 Zn2 1_555 1_555
N6 Zn3 1_555 1_555
N8 Zn4 1_555 1_555
N9 Zn1 1_555 1_555
N10 Zn4 1_555 1_555
O1 Zn1 1_555 1_555
O1 Zn2 1_555 1_555
O2 Zn1 1_555 1_555
O2 Zn2 1_555 1_555
O4 Zn3 1_555 1_555
O4 Zn4 1_555 1_555
O5 Zn3 1_555 1_555
O5 Zn4 1_555 1_555
O2_2 Zn2_2 1_555 1_555
O5_2 Zn3_2 1_555 1_555

#END
