
#######################################################################
#
#                 Cambridge Crystallographic Data Centre
#                                CCDC 
#
#######################################################################
#
# If this CIF has been generated from an entry in the Cambridge 
# Structural Database, then it will include bibliographic, chemical, 
# crystal, experimental, refinement or atomic coordinate data resulting 
# from the CCDC's data processing and validation procedures.
#
#######################################################################

data_IRIPAB
_symmetry_cell_setting           monoclinic
_symmetry_space_group_name_H-M   'P 21/n'
_symmetry_Int_Tables_number      14
_space_group_name_Hall           '-P 2yn'
loop_
_symmetry_equiv_pos_site_id
_symmetry_equiv_pos_as_xyz
1 x,y,z
2 1/2-x,1/2+y,1/2-z
3 -x,-y,-z
4 1/2+x,1/2-y,1/2+z
_cell_length_a                   8.831(5)
_cell_length_b                   7.911(5)
_cell_length_c                   19.094(5)
_cell_angle_alpha                90
_cell_angle_beta                 97.703(5)
_cell_angle_gamma                90
_cell_volume                     1321.91
loop_
_atom_site_label
_atom_site_type_symbol
_atom_site_fract_x
_atom_site_fract_y
_atom_site_fract_z
Ag1 Ag 0.59347(2) 0.39715(2) 0.679520(10)
O1 O 0.8274(3) 0.5526(3) 0.65537(10)
O2 O 0.7568(2) 0.6509(2) 0.75189(10)
O3 O 0.9537(2) 0.7582(3) 0.71116(11)
N1 N 1.3804(2) -0.0474(3) 0.65461(11)
N2 N 0.6390(2) 0.3014(3) 0.56642(11)
N3 N 0.6439(3) 0.4956(3) 0.35885(12)
N4 N 0.8465(3) 0.6537(3) 0.70601(11)
C1 C 1.5265(3) -0.0946(3) 0.63259(14)
H1 H 1.5862 -0.1557 0.6700
H2 H 1.5805 0.0055 0.6220
H3 H 1.5090 -0.1647 0.5913
C2 C 1.3495(3) -0.0982(3) 0.72483(13)
H4 H 1.4359 -0.1587 0.7484
H5 H 1.2609 -0.1697 0.7205
H6 H 1.3315 0.0005 0.7518
C3 C 1.2756(3) 0.0405(3) 0.61061(12)
C4 C 1.3054(3) 0.0906(3) 0.54261(13)
H7 H 1.3994 0.0656 0.5282
C5 C 1.1974(3) 0.1755(3) 0.49781(13)
H8 H 1.2200 0.2068 0.4534
C6 C 1.0525(3) 0.2172(3) 0.51681(12)
C7 C 1.0242(3) 0.1696(3) 0.58523(13)
H9 H 0.9308 0.1968 0.5998
C8 C 1.1312(3) 0.0845(3) 0.63064(13)
H10 H 1.1090 0.0550 0.6753
C9 C 0.9489(3) 0.3022(3) 0.46510(13)
C10 C 0.8001(3) 0.3523(3) 0.46593(12)
C11 C 0.7130(3) 0.3246(3) 0.52228(13)
C12 C 0.7171(3) 0.4332(3) 0.40580(14)
H11 H 0.987(3) 0.327(4) 0.4226(15)
Ag1A Ag 0.90653(2) 0.89715(2) 0.820480(10)
Ag1B Ag 0.40653(2) 0.60285(2) 0.320480(10)
O2A O 0.7432(2) 0.1509(2) 0.74811(10)
O3A O 0.5463(2) 0.2582(3) 0.78884(11)
N3B N 0.3561(3) 0.5044(3) 0.64115(12)
loop_
_geom_bond_atom_site_label_1
_geom_bond_atom_site_label_2
_geom_bond_site_symmetry_1
_geom_bond_site_symmetry_2
Ag1 O1 1_555 1_555
O1 N4 1_555 1_555
O2 N4 1_555 1_555
O3 N4 1_555 1_555
N1 C1 1_555 1_555
N2 Ag1 1_555 1_555
N3 C12 1_555 1_555
C1 H1 1_555 1_555
H2 C1 1_555 1_555
H3 C1 1_555 1_555
C2 N1 1_555 1_555
H4 C2 1_555 1_555
H5 C2 1_555 1_555
H6 C2 1_555 1_555
C3 N1 1_555 1_555
C4 C3 1_555 1_555
H7 C4 1_555 1_555
C5 C4 1_555 1_555
H8 C5 1_555 1_555
C6 C5 1_555 1_555
C7 C6 1_555 1_555
H9 C7 1_555 1_555
C8 C3 1_555 1_555
H10 C8 1_555 1_555
C9 C6 1_555 1_555
C10 C9 1_555 1_555
C11 N2 1_555 1_555
C12 C10 1_555 1_555
H11 C9 1_555 1_555
Ag1A O2 1_555 1_555
Ag1B N3 1_555 1_555
O2A Ag1 1_555 1_555
O3A Ag1 1_555 1_555
N3B Ag1 1_555 1_555
O3 Ag1A 1_555 1_555
C7 C8 1_555 1_555
C10 C11 1_555 1_555

#END
