
#######################################################################
#
#                 Cambridge Crystallographic Data Centre
#                                CCDC 
#
#######################################################################
#
# If this CIF has been generated from an entry in the Cambridge 
# Structural Database, then it will include bibliographic, chemical, 
# crystal, experimental, refinement or atomic coordinate data resulting 
# from the CCDC's data processing and validation procedures.
#
#######################################################################

data_IROFOL01
_symmetry_cell_setting           monoclinic
_symmetry_space_group_name_H-M   'P 21/n'
_symmetry_Int_Tables_number      14
_space_group_name_Hall           '-P 2yn'
loop_
_symmetry_equiv_pos_site_id
_symmetry_equiv_pos_as_xyz
1 x,y,z
2 1/2-x,1/2+y,1/2-z
3 -x,-y,-z
4 1/2+x,1/2-y,1/2+z
_cell_length_a                   10.501(2)
_cell_length_b                   16.761(3)
_cell_length_c                   12.788(3)
_cell_angle_alpha                90
_cell_angle_beta                 93.95(3)
_cell_angle_gamma                90
_cell_volume                     2245.43
loop_
_atom_site_label
_atom_site_type_symbol
_atom_site_fract_x
_atom_site_fract_y
_atom_site_fract_z
Cu1 Cu 0.32789(9) 0.24156(5) 0.78766(7)
V1 V 0.53165(14) 0.07121(7) 0.66856(10)
N1 N 0.1638(6) 0.1854(4) 0.7340(5)
O1 O 0.4359(5) 0.1380(3) 0.7143(4)
C1 C -0.0665(9) 0.1097(6) 0.6785(7)
H1 H -0.1423 0.0837 0.6576
V2 V 0.61577(12) 0.09265(8) 0.42142(9)
N2 N 0.4912(6) 0.2985(4) 0.8417(4)
C2 C 0.0430(8) 0.0658(6) 0.7098(7)
H2 H 0.0400 0.0104 0.7135
O2 O 0.6537(7) 0.0671(5) 0.7516(6)
N3 N 0.3272(6) 0.1780(3) 0.9258(5)
C3 C 0.1545(8) 0.1059(5) 0.7349(6)
H3 H 0.2275 0.0763 0.7535
O3 O 0.5569(6) 0.1060(4) 0.5389(5)
N4 N 0.3299(6) 0.3094(4) 0.6537(5)
O4 O 0.6986(6) 0.1605(4) 0.3691(5)
C4 C 0.0563(8) 0.2259(5) 0.7057(6)
H4 H 0.0609 0.2813 0.7041
O5 O 0.5330(6) 0.0260(4) 0.3350(5)
C5 C -0.0606(9) 0.1907(6) 0.6789(6)
H5 H -0.1327 0.2214 0.6617
O6 O 0.7469(6) 0.0287(4) 0.4528(5)
C6 C 0.7108(10) 0.3848(6) 0.9041(8)
H6 H 0.7826 0.4151 0.9241
C7 C 0.7180(9) 0.3231(6) 0.8333(8)
H7 H 0.7944 0.3092 0.8054
C8 C 0.6059(9) 0.2830(6) 0.8061(8)
H8 H 0.6101 0.2412 0.7586
C9 C 0.4882(9) 0.3562(5) 0.9109(7)
H9 H 0.4105 0.3675 0.9385
C10 C 0.5930(10) 0.4011(5) 0.9453(7)
H10 H 0.5857 0.4413 0.9947
C11 C 0.4381(12) 0.0942(5) 1.0513(8)
H11 H 0.5120 0.0681 1.0768
C12 C 0.4315(9) 0.1355(5) 0.9595(7)
H12 H 0.5012 0.1343 0.9184
C13 C 0.2246(9) 0.1776(5) 0.9780(6)
H13 H 0.1538 0.2068 0.9527
C14 C 0.2186(10) 0.1346(5) 1.0702(7)
H14 H 0.1457 0.1329 1.1075
C15 C 0.3311(11) 0.0939(5) 1.1025(8)
H15 H 0.3315 0.0644 1.1642
C16 C 0.3055(10) 0.4379(5) 0.5724(7)
H16 H 0.2911 0.4925 0.5771
C17 C 0.2974(9) 0.3874(5) 0.6602(6)
H17 H 0.2698 0.4077 0.7224
C18 C 0.3610(9) 0.2799(5) 0.5638(6)
H18 H 0.3777 0.2255 0.5594
C19 C 0.3696(9) 0.3247(6) 0.4787(6)
H19 H 0.3990 0.3023 0.4183
C20 C 0.3355(6) 0.4031(4) 0.4796(5)
H20 H 0.3326 0.4329 0.4182
O7 O 0.4793(6) 0.1568(4) 0.3972(5)
Cu1C Cu 0.82789(9) 0.25844(5) 0.28766(7)
V1B V 0.46835(14) -0.07121(7) 0.33144(10)
O4C O 0.1986(6) 0.3395(4) 0.8691(5)
O5B O 0.4670(6) -0.0260(4) 0.6650(5)
loop_
_geom_bond_atom_site_label_1
_geom_bond_atom_site_label_2
_geom_bond_site_symmetry_1
_geom_bond_site_symmetry_2
Cu1 N1 1_555 1_555
V1 O1 1_555 1_555
N1 C3 1_555 1_555
O1 Cu1 1_555 1_555
C1 H1 1_555 1_555
V2 O3 1_555 1_555
N2 Cu1 1_555 1_555
C2 C1 1_555 1_555
H2 C2 1_555 1_555
O2 V1 1_555 1_555
N3 Cu1 1_555 1_555
C3 C2 1_555 1_555
H3 C3 1_555 1_555
O3 V1 1_555 1_555
N4 Cu1 1_555 1_555
O4 V2 1_555 1_555
C4 N1 1_555 1_555
H4 C4 1_555 1_555
O5 V2 1_555 1_555
C5 C1 1_555 1_555
H5 C5 1_555 1_555
O6 V2 1_555 1_555
C6 H6 1_555 1_555
C7 C6 1_555 1_555
H7 C7 1_555 1_555
C8 N2 1_555 1_555
H8 C8 1_555 1_555
C9 N2 1_555 1_555
H9 C9 1_555 1_555
C10 C6 1_555 1_555
H10 C10 1_555 1_555
C11 H11 1_555 1_555
C12 N3 1_555 1_555
H12 C12 1_555 1_555
C13 N3 1_555 1_555
H13 C13 1_555 1_555
C14 C13 1_555 1_555
H14 C14 1_555 1_555
C15 C11 1_555 1_555
H15 C15 1_555 1_555
C16 H16 1_555 1_555
C17 N4 1_555 1_555
H17 C17 1_555 1_555
C18 N4 1_555 1_555
H18 C18 1_555 1_555
C19 C18 1_555 1_555
H19 C19 1_555 1_555
C20 C16 1_555 1_555
H20 C20 1_555 1_555
O7 V2 1_555 1_555
Cu1C O4 1_555 1_555
V1B O5 1_555 1_555
O4C Cu1 1_555 1_555
O5B V1 1_555 1_555
C4 C5 1_555 1_555
C7 C8 1_555 1_555
C9 C10 1_555 1_555
C11 C12 1_555 1_555
C14 C15 1_555 1_555
C16 C17 1_555 1_555
C19 C20 1_555 1_555

#END
