
#######################################################################
#
#                 Cambridge Crystallographic Data Centre
#                                CCDC 
#
#######################################################################
#
# If this CIF has been generated from an entry in the Cambridge 
# Structural Database, then it will include bibliographic, chemical, 
# crystal, experimental, refinement or atomic coordinate data resulting 
# from the CCDC's data processing and validation procedures.
#
#######################################################################

data_IROPOV
_symmetry_cell_setting           monoclinic
_symmetry_space_group_name_H-M   'P 21/n'
_symmetry_Int_Tables_number      14
_space_group_name_Hall           '-P 2yn'
loop_
_symmetry_equiv_pos_site_id
_symmetry_equiv_pos_as_xyz
1 x,y,z
2 1/2-x,1/2+y,1/2-z
3 -x,-y,-z
4 1/2+x,1/2-y,1/2+z
_cell_length_a                   20.4796(8)
_cell_length_b                   12.5996(5)
_cell_length_c                   23.1723(12)
_cell_angle_alpha                90
_cell_angle_beta                 104.953(5)
_cell_angle_gamma                90
_cell_volume                     5776.79
loop_
_atom_site_label
_atom_site_type_symbol
_atom_site_fract_x
_atom_site_fract_y
_atom_site_fract_z
Cu2 Cu 0.85405(4) 0.99037(7) 0.83529(4)
N8 N 0.8186(3) 1.1417(4) 0.8530(3)
N9 N 0.9321(3) 1.0805(5) 0.8250(2)
N10 N 0.9792(3) 1.2382(5) 0.8322(3)
H3 H 0.9842 1.3074 0.8363
N11 N 0.8206(3) 0.9564(5) 0.9100(3)
N12 N 0.7912(3) 1.0284(5) 0.9875(3)
H4 H 0.7836 1.0782 1.0116
N13 N 0.7775(3) 1.0262(5) 0.7544(3)
N14 N 0.6775(3) 1.0960(5) 0.7209(3)
C27 C 0.8548(3) 1.2248(5) 0.8295(3)
H25 H 0.8597 1.2889 0.8550
H26 H 0.8293 1.2445 0.7885
C28 C 0.9220(4) 1.1831(6) 0.8290(3)
C29 C 0.9989(4) 1.0667(7) 0.8228(3)
C30 C 1.0354(4) 0.9790(7) 0.8171(3)
H27 H 1.0160 0.9100 0.8131
C31 C 1.1034(4) 0.9956(8) 0.8174(3)
H28 H 1.1299 0.9359 0.8128
C32 C 1.1339(4) 1.0952(8) 0.8241(3)
H29 H 1.1804 1.1018 0.8253
C33 C 1.0972(4) 1.1830(7) 0.8290(3)
H30 H 1.1166 1.2519 0.8328
C34 C 1.0283(4) 1.1662(7) 0.8281(3)
C35 C 0.8318(4) 1.1498(5) 0.9174(3)
H31 H 0.8037 1.2063 0.9285
H32 H 0.8800 1.1666 0.9355
C36 C 0.8141(4) 1.0437(6) 0.9385(4)
C37 C 0.7991(4) 0.8759(6) 0.9430(4)
C38 C 0.7966(4) 0.7645(6) 0.9352(4)
H33 H 0.8090 0.7314 0.9027
C39 C 0.7755(4) 0.7069(6) 0.9771(4)
H34 H 0.7740 0.6318 0.9736
C40 C 0.7564(4) 0.7528(7) 1.0241(4)
H35 H 0.7404 0.7085 1.0507
C41 C 0.7596(4) 0.8607(7) 1.0340(4)
H36 H 0.7474 0.8924 1.0670
C42 C 0.7815(4) 0.9186(7) 0.9931(4)
C43 C 0.7446(3) 1.1441(5) 0.8245(3)
H37 H 0.7199 1.1064 0.8500
H38 H 0.7283 1.2184 0.8195
C44 C 0.7327(4) 1.0922(6) 0.7666(4)
C45 C 0.7520(4) 0.9934(6) 0.6965(4)
C46 C 0.7799(4) 0.9285(6) 0.6584(4)
H39 H 0.8230 0.8967 0.6731
C47 C 0.7444(4) 0.9124(6) 0.6009(4)
H40 H 0.7637 0.8717 0.5750
C48 C 0.6802(5) 0.9549(6) 0.5796(4)
H41 H 0.6557 0.9403 0.5396
C49 C 0.6511(4) 1.0174(6) 0.6147(4)
H42 H 0.6072 1.0468 0.5999
C50 C 0.6887(4) 1.0355(6) 0.6727(4)
C51 C 0.6250(4) 1.1791(6) 0.7148(4)
H43 H 0.6114 1.1853 0.7527
H44 H 0.5846 1.1589 0.6829
C52 C 0.6526(5) 1.2875(6) 0.6994(4)
O3 O 0.6076(2) 1.3570(4) 0.6791(2)
O4 O 0.7145(3) 1.2965(4) 0.7108(2)
Cu2A Cu 0.64595(4) 1.49037(7) 0.66471(4)
O3A O 0.8924(2) 0.8570(4) 0.8209(2)
N15 N 0.6569(4) 0.7448(6) 0.4180(4)
O5 O 0.6284(4) 0.7812(6) 0.4549(3)
O6 O 0.6298(3) 0.7623(5) 0.3663(3)
O7 O 0.7095(3) 0.6950(5) 0.4375(3)
N16 N 0.1060(7) 0.2661(12) 0.3920(7)
O8 O 0.1202(5) 0.2276(9) 0.4397(4)
O9 O 0.0720(4) 0.2238(6) 0.3418(4)
O10 O 0.1261(5) 0.3576(7) 0.3884(5)
O11 O 0.0080(3) 0.0522(5) 0.3711(3)
C53 C 0.0341(5) 0.0149(8) 0.4316(4)
H45 H 0.0752 -0.0268 0.4343
H46 H 0.0002 -0.0297 0.4428
H47 H 0.0447 0.0757 0.4587
O12 O 0.4945(3) 0.9456(5) 0.6400(3)
C54 C 0.4528(5) 0.9488(9) 0.5770(5)
H48 H 0.4107 0.9875 0.5751
H49 H 0.4421 0.8762 0.5624
H50 H 0.4780 0.9849 0.5521
O13 O 0.4663(2) 0.1044(4) 0.7029(3)
Cu1 Cu 0.12891(4) 0.43016(7) 0.68605(4)
N1 N 0.1662(3) 0.2845(4) 0.6557(3)
N2 N 0.0513(3) 0.3200(5) 0.6945(3)
N3 N 0.0182(3) 0.1498(5) 0.6784(2)
H1 H 0.0206 0.0810 0.6726
N4 N 0.1039(3) 0.4593(5) 0.5995(3)
N5 N 0.1237(3) 0.4222(5) 0.5115(3)
H2 H 0.1371 0.3865 0.4840
N6 N 0.2083(3) 0.4010(4) 0.7566(3)
N7 N 0.3119(3) 0.3355(5) 0.7838(3)
C1 C 0.1390(4) 0.1951(5) 0.6842(3)
H5 H 0.1672 0.1841 0.7255
H6 H 0.1393 0.1289 0.6613
C2 C 0.0682(4) 0.2230(6) 0.6851(3)
C3 C -0.0169(4) 0.3132(6) 0.6932(3)
C4 C -0.0632(4) 0.3925(6) 0.6990(3)
H7 H -0.0502 0.4645 0.7068
C5 C -0.1288(4) 0.3583(7) 0.6926(3)
H8 H -0.1613 0.4097 0.6966
C6 C -0.1505(4) 0.2554(8) 0.6808(3)
H9 H -0.1968 0.2382 0.6758
C7 C -0.1053(4) 0.1778(7) 0.6763(3)
H10 H -0.1188 0.1058 0.6691
C8 C -0.0382(4) 0.2093(6) 0.6827(3)
C9 C 0.1453(3) 0.2814(6) 0.5895(3)
H11 H 0.1065 0.2325 0.5758
H12 H 0.1831 0.2555 0.5739
C10 C 0.1257(3) 0.3909(6) 0.5670(4)
C11 C 0.0840(4) 0.5439(6) 0.5614(4)
C12 C 0.0517(4) 0.6384(7) 0.5703(4)
H13 H 0.0415 0.6540 0.6071
C13 C 0.0355(4) 0.7078(6) 0.5223(5)
H14 H 0.0126 0.7719 0.5262
C14 C 0.0517(4) 0.6869(7) 0.4688(4)
H15 H 0.0426 0.7389 0.4380
C15 C 0.0802(4) 0.5932(8) 0.4598(4)
H16 H 0.0890 0.5769 0.4225
C16 C 0.0957(4) 0.5228(7) 0.5066(4)
C17 C 0.2401(3) 0.2930(5) 0.6815(3)
H17 H 0.2609 0.2215 0.6849
H18 H 0.2605 0.3367 0.6552
C18 C 0.2526(4) 0.3424(6) 0.7411(4)
C19 C 0.2377(4) 0.4367(6) 0.8140(4)
C20 C 0.2137(4) 0.5015(6) 0.8512(4)
H19 H 0.1696 0.5309 0.8392
C21 C 0.2552(4) 0.5222(6) 0.9060(4)
H20 H 0.2393 0.5667 0.9326
C22 C 0.3197(4) 0.4807(6) 0.9243(3)
H21 H 0.3471 0.4965 0.9631
C23 C 0.3445(4) 0.4168(6) 0.8869(4)
H22 H 0.3890 0.3889 0.8988
C24 C 0.3028(4) 0.3948(6) 0.8320(4)
C25 C 0.3678(4) 0.2560(6) 0.7835(3)
H23 H 0.4086 0.2746 0.8153
H24 H 0.3795 0.2598 0.7447
C26 C 0.3458(4) 0.1416(6) 0.7936(3)
O1 O 0.3916(2) 0.0738(4) 0.7895(2)
O2 O 0.2927(3) 0.1245(4) 0.8056(2)
Cu1A Cu 0.37109(4) -0.06984(7) 0.81395(4)
O1A O 0.1084(2) 0.5738(4) 0.7105(2)
C55? C 0.4766(8) 0.7144(13) 0.4712(9)
C56? C 0.5088(15) 0.4231(11) 0.5075(10)
C57? C 0.5392(13) 0.4720(10) 0.4673(9)
C58? C 0.5308(10) 0.5803(9) 0.4565(7)
C59? C 0.4920(10) 0.6397(10) 0.4859(6)
C60? C 0.4617(12) 0.5908(12) 0.5261(8)
C61? C 0.4701(14) 0.4825(12) 0.5369(9)
loop_
_geom_bond_atom_site_label_1
_geom_bond_atom_site_label_2
_geom_bond_site_symmetry_1
_geom_bond_site_symmetry_2
Cu1 N1 1_555 1_555
Cu2 N8 1_555 1_555
N1 C1 1_555 1_555
N2 Cu1 1_555 1_555
N3 H1 1_555 1_555
N4 Cu1 1_555 1_555
N5 H2 1_555 1_555
N6 Cu1 1_555 1_555
N7 C18 1_555 1_555
N8 C27 1_555 1_555
N9 Cu2 1_555 1_555
N10 H3 1_555 1_555
N11 Cu2 1_555 1_555
N12 H4 1_555 1_555
N13 Cu2 1_555 1_555
N14 C44 1_555 1_555
C1 H5 1_555 1_555
H6 C1 1_555 1_555
C2 N2 1_555 1_555
C3 N2 1_555 1_555
C4 C3 1_555 1_555
H7 C4 1_555 1_555
C5 C4 1_555 1_555
H8 C5 1_555 1_555
C6 C5 1_555 1_555
H9 C6 1_555 1_555
C7 C6 1_555 1_555
H10 C7 1_555 1_555
C8 N3 1_555 1_555
C9 N1 1_555 1_555
H11 C9 1_555 1_555
H12 C9 1_555 1_555
C10 N4 1_555 1_555
C11 N4 1_555 1_555
C12 C11 1_555 1_555
H13 C12 1_555 1_555
C13 C12 1_555 1_555
H14 C13 1_555 1_555
C14 C13 1_555 1_555
H15 C14 1_555 1_555
C15 C14 1_555 1_555
H16 C15 1_555 1_555
C16 N5 1_555 1_555
C17 N1 1_555 1_555
H17 C17 1_555 1_555
H18 C17 1_555 1_555
C18 N6 1_555 1_555
C19 N6 1_555 1_555
C20 C19 1_555 1_555
H19 C20 1_555 1_555
C21 C20 1_555 1_555
H20 C21 1_555 1_555
C22 C21 1_555 1_555
H21 C22 1_555 1_555
C23 C22 1_555 1_555
H22 C23 1_555 1_555
C24 N7 1_555 1_555
C25 N7 1_555 1_555
H23 C25 1_555 1_555
H24 C25 1_555 1_555
C26 C25 1_555 1_555
C27 H25 1_555 1_555
H26 C27 1_555 1_555
C28 N9 1_555 1_555
C29 N9 1_555 1_555
C30 C29 1_555 1_555
H27 C30 1_555 1_555
C31 C30 1_555 1_555
H28 C31 1_555 1_555
C32 C31 1_555 1_555
H29 C32 1_555 1_555
C33 C32 1_555 1_555
H30 C33 1_555 1_555
C34 N10 1_555 1_555
C35 N8 1_555 1_555
H31 C35 1_555 1_555
H32 C35 1_555 1_555
C36 N11 1_555 1_555
C37 N11 1_555 1_555
C38 C37 1_555 1_555
H33 C38 1_555 1_555
C39 C38 1_555 1_555
H34 C39 1_555 1_555
C40 C39 1_555 1_555
H35 C40 1_555 1_555
C41 C40 1_555 1_555
H36 C41 1_555 1_555
C42 N12 1_555 1_555
C43 N8 1_555 1_555
H37 C43 1_555 1_555
H38 C43 1_555 1_555
C44 N13 1_555 1_555
C45 N13 1_555 1_555
C46 C45 1_555 1_555
H39 C46 1_555 1_555
C47 C46 1_555 1_555
H40 C47 1_555 1_555
C48 C47 1_555 1_555
H41 C48 1_555 1_555
C49 C48 1_555 1_555
H42 C49 1_555 1_555
C50 N14 1_555 1_555
C51 N14 1_555 1_555
H43 C51 1_555 1_555
H44 C51 1_555 1_555
C52 C51 1_555 1_555
O1 C26 1_555 1_555
O2 C26 1_555 1_555
O3 C52 1_555 1_555
O4 C52 1_555 1_555
N15 O5 1_555 1_555
O6 N15 1_555 1_555
O7 N15 1_555 1_555
N16 O8 1_555 1_555
O9 N16 1_555 1_555
O10 N16 1_555 1_555
O11 C53 1_555 1_555
C53 H45 1_555 1_555
H46 C53 1_555 1_555
H47 C53 1_555 1_555
O12 C54 1_555 1_555
C54 H48 1_555 1_555
H49 C54 1_555 1_555
H50 C54 1_555 1_555
Cu1A O1 1_555 1_555
Cu2A O3 1_555 1_555
O1A Cu1 1_555 1_555
O3A Cu2 1_555 1_555
N3 C2 1_555 1_555
N5 C10 1_555 1_555
N10 C28 1_555 1_555
N12 C36 1_555 1_555
C1 C2 1_555 1_555
C3 C8 1_555 1_555
C7 C8 1_555 1_555
C9 C10 1_555 1_555
C11 C16 1_555 1_555
C15 C16 1_555 1_555
C17 C18 1_555 1_555
C19 C24 1_555 1_555
C23 C24 1_555 1_555
C27 C28 1_555 1_555
C29 C34 1_555 1_555
C33 C34 1_555 1_555
C35 C36 1_555 1_555
C37 C42 1_555 1_555
C41 C42 1_555 1_555
C43 C44 1_555 1_555
C45 C50 1_555 1_555
C49 C50 1_555 1_555

#END
