
#######################################################################
#
#                 Cambridge Crystallographic Data Centre
#                                CCDC 
#
#######################################################################
#
# If this CIF has been generated from an entry in the Cambridge 
# Structural Database, then it will include bibliographic, chemical, 
# crystal, experimental, refinement or atomic coordinate data resulting 
# from the CCDC's data processing and validation procedures.
#
#######################################################################

data_IROPEL
_symmetry_cell_setting           monoclinic
_symmetry_space_group_name_H-M   'C 2/c'
_symmetry_Int_Tables_number      15
_space_group_name_Hall           '-C 2yn'
loop_
_symmetry_equiv_pos_site_id
_symmetry_equiv_pos_as_xyz
1 x,y,z
2 -x,y,1/2-z
3 1/2+x,1/2+y,z
4 1/2-x,1/2+y,1/2-z
5 -x,-y,-z
6 x,-y,1/2+z
7 1/2-x,1/2-y,-z
8 1/2+x,1/2-y,1/2+z
_cell_length_a                   24.7325(8)
_cell_length_b                   12.9895(7)
_cell_length_c                   20.3885(8)
_cell_angle_alpha                90
_cell_angle_beta                 105.252(4)
_cell_angle_gamma                90
_cell_volume                     6319.36
loop_
_atom_site_label
_atom_site_type_symbol
_atom_site_fract_x
_atom_site_fract_y
_atom_site_fract_z
Cu1 Cu 0.679759(18) -0.44696(4) 0.63672(2)
N1 N 0.65123(10) -0.3001(2) 0.66617(13)
N2 N 0.68626(10) -0.3513(3) 0.55449(14)
N3 N 0.67987(11) -0.1930(3) 0.51365(14)
H1 H 0.6771 -0.1255 0.5126
N4 N 0.59689(10) -0.4755(2) 0.61228(13)
N5 N 0.51124(11) -0.4205(3) 0.60376(14)
H2 H 0.4837 -0.3784 0.6054
N6 N 0.74116(10) -0.4118(2) 0.72053(14)
N7 N 0.76519(11) -0.3350(2) 0.82175(14)
C1 C 0.67968(14) -0.2182(3) 0.63666(17)
H3 H 0.7180 -0.2067 0.6659
H4 H 0.6586 -0.1528 0.6333
C2 C 0.68208(13) -0.2530(3) 0.56711(17)
C3 C 0.68712(13) -0.3553(4) 0.48645(19)
C4 C 0.68888(17) -0.4394(4) 0.4443(2)
H5 H 0.6917 -0.5082 0.4607
C5 C 0.68630(17) -0.4162(5) 0.3767(2)
H6 H 0.6875 -0.4715 0.3466
C6 C 0.68214(17) -0.3178(5) 0.3514(2)
H7 H 0.6804 -0.3071 0.3048
C7 C 0.68050(15) -0.2357(5) 0.3916(2)
H8 H 0.6780 -0.1675 0.3743
C8 C 0.68267(14) -0.2554(4) 0.46055(18)
C9 C 0.58885(13) -0.2931(3) 0.63937(19)
H9 H 0.5724 -0.2643 0.6747
H10 H 0.5792 -0.2468 0.5994
C10 C 0.56594(13) -0.3965(3) 0.61982(16)
C11 C 0.56015(12) -0.5573(3) 0.58953(16)
C12 C 0.56844(13) -0.6572(3) 0.57208(18)
H11 H 0.6050 -0.6816 0.5737
C13 C 0.52290(14) -0.7206(3) 0.5523(2)
H12 H 0.5279 -0.7897 0.5398
C14 C 0.46868(15) -0.6847(4) 0.55016(19)
H13 H 0.4379 -0.7309 0.5377
C15 C 0.45928(14) -0.5858(3) 0.56536(18)
H14 H 0.4226 -0.5616 0.5631
C16 C 0.50567(12) -0.5212(3) 0.58449(16)
C17 C 0.66949(14) -0.2976(3) 0.74144(17)
H15 H 0.6426 -0.3355 0.7608
H16 H 0.6719 -0.2257 0.7580
C18 C 0.72572(13) -0.3475(3) 0.76157(16)
C19 C 0.79525(13) -0.4434(3) 0.75400(18)
C20 C 0.83301(14) -0.5058(3) 0.7325(2)
H17 H 0.8234 -0.5371 0.6888
C21 C 0.88481(14) -0.5202(3) 0.7770(2)
H18 H 0.9116 -0.5620 0.7638
C22 C 0.89886(15) -0.4745(3) 0.8416(2)
H19 H 0.9346 -0.4882 0.8716
C23 C 0.86238(15) -0.4101(3) 0.8629(2)
H20 H 0.8725 -0.3780 0.9062
C24 C 0.81031(14) -0.3946(3) 0.81782(18)
C25 C 0.76562(15) -0.2512(3) 0.86981(18)
H21 H 0.7899 -0.2706 0.9149
H22 H 0.7272 -0.2408 0.8746
C26 C 0.78724(13) -0.1488(3) 0.84631(18)
O1 O 0.79773(12) -0.1456(2) 0.79268(13)
O2 O 0.79104(9) -0.0762(2) 0.88987(12)
Cu1C Cu 0.820241(18) 0.05304(4) 0.86328(2)
O2C O 0.70896(9) -0.5762(2) 0.61013(12)
Cl1 Cl 0.60683(5) 0.23994(11) 0.40763(6)
O3 O 0.6163(2) 0.3460(3) 0.4062(3)
O4 O 0.62596(13) 0.1863(3) 0.35729(16)
O5 O 0.63379(18) 0.1967(4) 0.47324(17)
O6 O 0.54643(14) 0.2225(4) 0.39272(19)
O7 O 0.5502(3) 0.4467(6) 0.2562(4)
N8 N 0.5000 0.4794(5) 0.2500
C27 C 0.5000 0.5935(6) 0.2500
C28 C 0.54767(19) 0.6448(5) 0.2452(2)
H23 H 0.5803 0.6084 0.2422
C29 C 0.5462(2) 0.7527(5) 0.2450(3)
H24 H 0.5784 0.7897 0.2413
C30 C 0.5000 0.8063(9) 0.2500
H25 H 0.5000 0.8795 0.2500
O7A O 0.4498(3) 0.4467(6) 0.2438(4)
C28A C 0.45233(19) 0.6448(5) 0.2548(2)
H23A H 0.4197 0.6084 0.2578
C29A C 0.4538(2) 0.7527(5) 0.2550(3)
H24A H 0.4216 0.7897 0.2587
O9 O 0.5666(4) -0.0488(7) 0.3951(5)
O10 O 0.7040(2) 0.0260(6) 0.4749(4)
O11 O 1.0000 -0.6607(13) 0.7500
O8? O 0.4585(3) 0.4225(7) 0.2374(4)
O12? O 0.5665(4) -0.0246(7) 0.4642(4)
O13? O 0.6425(3) -0.0095(6) 0.4739(5)
O14? O 0.5244(7) 0.0480(14) 0.4711(8)
loop_
_geom_bond_atom_site_label_1
_geom_bond_atom_site_label_2
_geom_bond_site_symmetry_1
_geom_bond_site_symmetry_2
Cu1 N1 1_555 1_555
N1 C1 1_555 1_555
N2 Cu1 1_555 1_555
N3 H1 1_555 1_555
N4 Cu1 1_555 1_555
N5 H2 1_555 1_555
N6 Cu1 1_555 1_555
N7 C18 1_555 1_555
C1 H3 1_555 1_555
H4 C1 1_555 1_555
C2 N2 1_555 1_555
C3 N2 1_555 1_555
C4 C3 1_555 1_555
H5 C4 1_555 1_555
C5 C4 1_555 1_555
H6 C5 1_555 1_555
C6 C5 1_555 1_555
H7 C6 1_555 1_555
C7 C6 1_555 1_555
H8 C7 1_555 1_555
C8 N3 1_555 1_555
C9 N1 1_555 1_555
H9 C9 1_555 1_555
H10 C9 1_555 1_555
C10 N4 1_555 1_555
C11 N4 1_555 1_555
C12 C11 1_555 1_555
H11 C12 1_555 1_555
C13 C12 1_555 1_555
H12 C13 1_555 1_555
C14 C13 1_555 1_555
H13 C14 1_555 1_555
C15 C14 1_555 1_555
H14 C15 1_555 1_555
C16 N5 1_555 1_555
C17 N1 1_555 1_555
H15 C17 1_555 1_555
H16 C17 1_555 1_555
C18 N6 1_555 1_555
C19 N6 1_555 1_555
C20 C19 1_555 1_555
H17 C20 1_555 1_555
C21 C20 1_555 1_555
H18 C21 1_555 1_555
C22 C21 1_555 1_555
H19 C22 1_555 1_555
C23 C22 1_555 1_555
H20 C23 1_555 1_555
C24 N7 1_555 1_555
C25 N7 1_555 1_555
H21 C25 1_555 1_555
H22 C25 1_555 1_555
C26 C25 1_555 1_555
O1 C26 1_555 1_555
O2 C26 1_555 1_555
Cl1 O3 1_555 1_555
O4 Cl1 1_555 1_555
O5 Cl1 1_555 1_555
O6 Cl1 1_555 1_555
O7 N8 1_555 1_555
N8 C27 1_555 1_555
C27 C28 1_555 1_555
C28 H23 1_555 1_555
C29 C28 1_555 1_555
H24 C29 1_555 1_555
C30 C29 1_555 1_555
H25 C30 1_555 1_555
Cu1C O2 1_555 1_555
O2C Cu1 1_555 1_555
O7A N8 1_555 1_555
C28A C27 1_555 1_555
H23A C28A 1_555 1_555
C29A C30 1_555 1_555
H24A C29A 1_555 1_555
N3 C2 1_555 1_555
N5 C10 1_555 1_555
C1 C2 1_555 1_555
C3 C8 1_555 1_555
C7 C8 1_555 1_555
C9 C10 1_555 1_555
C11 C16 1_555 1_555
C15 C16 1_555 1_555
C17 C18 1_555 1_555
C19 C24 1_555 1_555
C23 C24 1_555 1_555
C28A C29A 1_555 1_555

#END
