
#######################################################################
#
#                 Cambridge Crystallographic Data Centre
#                                CCDC 
#
#######################################################################
#
# If this CIF has been generated from an entry in the Cambridge 
# Structural Database, then it will include bibliographic, chemical, 
# crystal, experimental, refinement or atomic coordinate data resulting 
# from the CCDC's data processing and validation procedures.
#
#######################################################################

data_IROPAH
_symmetry_cell_setting           monoclinic
_symmetry_space_group_name_H-M   'P 21/n'
_symmetry_Int_Tables_number      14
_space_group_name_Hall           '-P 2yn'
loop_
_symmetry_equiv_pos_site_id
_symmetry_equiv_pos_as_xyz
1 x,y,z
2 1/2-x,1/2+y,1/2-z
3 -x,-y,-z
4 1/2+x,1/2-y,1/2+z
_cell_length_a                   13.9659(5)
_cell_length_b                   13.2766(5)
_cell_length_c                   18.0272(6)
_cell_angle_alpha                90
_cell_angle_beta                 104.667(3)
_cell_angle_gamma                90
_cell_volume                     3233.67
loop_
_atom_site_label
_atom_site_type_symbol
_atom_site_fract_x
_atom_site_fract_y
_atom_site_fract_z
Cu1 Cu 0.57631(3) 0.16205(3) 0.22376(2)
N1 N 0.58701(17) 0.0176(2) 0.27752(14)
N2 N 0.53133(18) 0.1961(2) 0.32217(15)
N3 N 0.44447(18) 0.1374(2) 0.40063(15)
H1 H 0.4162 0.0939 0.4252
N4 N 0.48707(17) 0.0795(2) 0.13712(15)
N5 N 0.4417(2) -0.0727(2) 0.09157(16)
H2 H 0.4380 -0.1389 0.0893
N6 N 0.72405(18) 0.1284(2) 0.23702(15)
N7 N 0.85532(19) 0.0458(2) 0.30641(15)
C1 C 0.5101(2) 0.0129(2) 0.32150(18)
H3 H 0.4469 -0.0118 0.2882
H4 H 0.5312 -0.0337 0.3655
C2 C 0.4971(2) 0.1155(3) 0.34912(18)
C3 C 0.5007(2) 0.2773(3) 0.35913(19)
C4 C 0.5156(2) 0.3811(3) 0.35513(19)
H5 H 0.5550 0.4077 0.3239
C5 C 0.4720(2) 0.4433(3) 0.3973(2)
H6 H 0.4822 0.5139 0.3956
C6 C 0.4122(3) 0.4056(3) 0.4434(2)
H7 H 0.3817 0.4512 0.4711
C7 C 0.3978(3) 0.3039(3) 0.4489(2)
H8 H 0.3580 0.2775 0.4799
C8 C 0.4437(2) 0.2424(3) 0.40724(19)
C9 C 0.5702(2) -0.0592(2) 0.21646(18)
H9 H 0.5440 -0.1217 0.2339
H10 H 0.6333 -0.0754 0.2036
C10 C 0.4979(2) -0.0181(3) 0.14809(19)
C11 C 0.4183(2) 0.0891(3) 0.0661(2)
C12 C 0.3792(2) 0.1737(3) 0.0246(2)
H11 H 0.3976 0.2395 0.0437
C13 C 0.3126(3) 0.1593(4) -0.0456(2)
H12 H 0.2846 0.2159 -0.0755
C14 C 0.2862(3) 0.0623(4) -0.0728(2)
H13 H 0.2408 0.0547 -0.1216
C15 C 0.3228(3) -0.0219(3) -0.0325(2)
H14 H 0.3033 -0.0876 -0.0512
C16 C 0.3903(2) -0.0061(3) 0.0374(2)
C17 C 0.6868(2) 0.0110(3) 0.32971(17)
H15 H 0.7056 -0.0603 0.3410
H16 H 0.6886 0.0459 0.3786
C18 C 0.7565(2) 0.0608(3) 0.28958(19)
C19 C 0.8070(2) 0.1599(3) 0.21374(18)
C20 C 0.8155(2) 0.2276(3) 0.1573(2)
H17 H 0.7594 0.2622 0.1273
C21 C 0.9091(3) 0.2430(3) 0.1464(2)
H18 H 0.9172 0.2870 0.1069
C22 C 0.9913(3) 0.1949(3) 0.1924(2)
H19 H 1.0548 0.2101 0.1852
C23 C 0.9845(2) 0.1262(3) 0.2481(2)
H20 H 1.0412 0.0929 0.2784
C24 C 0.8901(2) 0.1082(3) 0.25759(19)
C25 C 0.9080(2) -0.0404(2) 0.34828(19)
H21 H 0.8898 -0.0475 0.3977
H22 H 0.9801 -0.0279 0.3597
C26 C 0.8836(3) -0.1393(3) 0.3024(2)
O1 O 0.94133(16) -0.21151(18) 0.32982(12)
O2 O 0.81341(16) -0.14032(17) 0.24546(13)
Cu1A Cu 0.92369(3) -0.33795(3) 0.27624(2)
O1A O 0.55867(16) 0.28849(18) 0.17018(12)
S1 S 0.24948(7) 0.50074(8) 0.04806(5)
C27 C 0.2401(2) 0.3856(3) 0.0951(2)
C28 C 0.2956(3) 0.3690(3) 0.1692(2)
H23 H 0.3350 0.4213 0.1974
C29 C 0.2929(3) 0.2758(4) 0.2016(2)
H24 H 0.3300 0.2657 0.2530
C30 C 0.2392(2) 0.1961(3) 0.1633(2)
C31 C 0.1810(2) 0.2153(3) 0.0887(2)
H25 H 0.1409 0.1632 0.0609
C32 C 0.1813(2) 0.3089(3) 0.0552(2)
H26 H 0.1413 0.3207 0.0049
C33 C 0.2443(3) 0.0935(3) 0.1984(2)
H27 H 0.2869 0.0501 0.1764
H28 H 0.1777 0.0645 0.1878
H29 H 0.2718 0.0986 0.2540
O3 O 0.29193(17) 0.57344(19) 0.10845(13)
O4 O 0.14734(15) 0.52769(17) 0.00624(12)
O5 O 0.31243(15) 0.47992(18) -0.00308(12)
C34 C 0.4634(4) -0.3238(4) 0.0369(3)
H30 H 0.4536 -0.3010 -0.0162
H31 H 0.4494 -0.3961 0.0374
H32 H 0.5320 -0.3112 0.0653
O6 O 0.3999(3) -0.2718(2) 0.0711(2)
H33 H 0.3619 -0.3127 0.0850
loop_
_geom_bond_atom_site_label_1
_geom_bond_atom_site_label_2
_geom_bond_site_symmetry_1
_geom_bond_site_symmetry_2
Cu1 N1 1_555 1_555
S1 C27 1_555 1_555
N1 C1 1_555 1_555
N2 Cu1 1_555 1_555
N3 H1 1_555 1_555
N4 Cu1 1_555 1_555
N5 H2 1_555 1_555
N6 Cu1 1_555 1_555
N7 C18 1_555 1_555
C1 H3 1_555 1_555
H4 C1 1_555 1_555
C2 N2 1_555 1_555
C3 N2 1_555 1_555
C4 C3 1_555 1_555
H5 C4 1_555 1_555
C5 C4 1_555 1_555
H6 C5 1_555 1_555
C6 C5 1_555 1_555
H7 C6 1_555 1_555
C7 C6 1_555 1_555
H8 C7 1_555 1_555
C8 N3 1_555 1_555
C9 N1 1_555 1_555
H9 C9 1_555 1_555
H10 C9 1_555 1_555
C10 N4 1_555 1_555
C11 N4 1_555 1_555
C12 C11 1_555 1_555
H11 C12 1_555 1_555
C13 C12 1_555 1_555
H12 C13 1_555 1_555
C14 C13 1_555 1_555
H13 C14 1_555 1_555
C15 C14 1_555 1_555
H14 C15 1_555 1_555
C16 N5 1_555 1_555
C17 N1 1_555 1_555
H15 C17 1_555 1_555
H16 C17 1_555 1_555
C18 N6 1_555 1_555
C19 N6 1_555 1_555
C20 C19 1_555 1_555
H17 C20 1_555 1_555
C21 C20 1_555 1_555
H18 C21 1_555 1_555
C22 C21 1_555 1_555
H19 C22 1_555 1_555
C23 C22 1_555 1_555
H20 C23 1_555 1_555
C24 N7 1_555 1_555
C25 N7 1_555 1_555
H21 C25 1_555 1_555
H22 C25 1_555 1_555
C26 C25 1_555 1_555
C27 C28 1_555 1_555
C28 H23 1_555 1_555
C29 C28 1_555 1_555
H24 C29 1_555 1_555
C30 C29 1_555 1_555
C31 C30 1_555 1_555
H25 C31 1_555 1_555
C32 C27 1_555 1_555
H26 C32 1_555 1_555
C33 C30 1_555 1_555
H27 C33 1_555 1_555
H28 C33 1_555 1_555
H29 C33 1_555 1_555
C34 H30 1_555 1_555
H31 C34 1_555 1_555
H32 C34 1_555 1_555
O1 C26 1_555 1_555
O2 C26 1_555 1_555
O3 S1 1_555 1_555
O4 S1 1_555 1_555
O5 S1 1_555 1_555
O6 C34 1_555 1_555
H33 O6 1_555 1_555
Cu1A O1 1_555 1_555
O1A Cu1 1_555 1_555
N3 C2 1_555 1_555
N5 C10 1_555 1_555
C1 C2 1_555 1_555
C3 C8 1_555 1_555
C7 C8 1_555 1_555
C9 C10 1_555 1_555
C11 C16 1_555 1_555
C15 C16 1_555 1_555
C17 C18 1_555 1_555
C19 C24 1_555 1_555
C23 C24 1_555 1_555
C31 C32 1_555 1_555

#END
