
#######################################################################
#
#                 Cambridge Crystallographic Data Centre
#                                CCDC 
#
#######################################################################
#
# If this CIF has been generated from an entry in the Cambridge 
# Structural Database, then it will include bibliographic, chemical, 
# crystal, experimental, refinement or atomic coordinate data resulting 
# from the CCDC's data processing and validation procedures.
#
#######################################################################

data_IROPUA
_symmetry_cell_setting           monoclinic
_symmetry_space_group_name_H-M   'P c'
_symmetry_Int_Tables_number      7
_space_group_name_Hall           'P -2yc'
loop_
_symmetry_equiv_pos_site_id
_symmetry_equiv_pos_as_xyz
1 x,y,z
2 x,-y,1/2+z
_cell_length_a                   5.23190(10)
_cell_length_b                   16.2576(3)
_cell_length_c                   9.60440(10)
_cell_angle_alpha                90
_cell_angle_beta                 96.5300(10)
_cell_angle_gamma                90
_cell_volume                     811.632
loop_
_atom_site_label
_atom_site_type_symbol
_atom_site_fract_x
_atom_site_fract_y
_atom_site_fract_z
Cu1 Cu 0.36104(8) 0.20165(3) 0.75965(7)
O1 O 0.5828(8) 0.2631(2) 0.6472(4)
O2 O 0.0957(7) 0.1468(2) 0.8587(4)
O3 O -0.2754(7) 0.1748(2) 0.9430(4)
O4 O 0.2575(9) 0.3256(3) 1.3647(4)
O5 O 0.5298(8) 0.2184(2) 1.3767(4)
H1 H 0.5760 0.2371 1.4572
N1 N 0.2319(9) 0.3007(3) 0.8415(5)
N2 N 0.4145(8) 0.0965(3) 0.6633(5)
N3 N 0.3345(11) -0.0142(3) 0.5366(5)
H2 H 0.2625 -0.0477 0.4715
C1 C 0.2842(13) 0.3752(4) 0.8116(7)
H3 H 0.1888 0.4175 0.8503
C2 C 0.4789(13) 0.4001(4) 0.7227(7)
C3 C 0.5174(13) 0.4855(4) 0.7117(7)
H4 H 0.4216 0.5222 0.7625
C4 C 0.6907(14) 0.5162(4) 0.6287(8)
H5 H 0.7164 0.5738 0.6213
C5 C 0.8288(13) 0.4609(4) 0.5552(7)
H6 H 0.9504 0.4815 0.4977
C6 C 0.7933(11) 0.3765(4) 0.5639(6)
H7 H 0.8922 0.3405 0.5135
C7 C 0.6143(11) 0.3442(4) 0.6458(6)
C8 C 0.0189(11) 0.2856(3) 0.9271(6)
H8 H -0.1290 0.3219 0.8923
C9 C 0.0956(10) 0.3036(3) 1.0849(5)
H9 H 0.1582 0.3610 1.0949
H10 H -0.0599 0.2993 1.1343
C10 C 0.3008(12) 0.2470(4) 1.1558(6)
H11 H 0.2410 0.1893 1.1464
H12 H 0.4596 0.2521 1.1094
C11 C 0.3589(11) 0.2685(4) 1.3095(6)
C12 C -0.0663(10) 0.1957(3) 0.9081(5)
C13 C 0.5907(12) 0.0364(3) 0.7099(7)
H13 H 0.7246 0.0422 0.7848
C14 C 0.5410(12) -0.0321(4) 0.6311(7)
H14 H 0.6322 -0.0827 0.6401
C15 C 0.2585(11) 0.0637(3) 0.5596(6)
C16 C 0.0393(13) 0.1046(4) 0.4758(7)
H15 H 0.0341 0.1627 0.5025
H16 H -0.1216 0.0778 0.4935
H17 H 0.0604 0.1003 0.3760
O3_2 O 0.7246(7) 0.1748(2) 0.9430(4)
Cu1_2 Cu -0.63896(8) 0.20165(3) 0.75965(7)
loop_
_geom_bond_atom_site_label_1
_geom_bond_atom_site_label_2
_geom_bond_site_symmetry_1
_geom_bond_site_symmetry_2
Cu1 O1 1_555 1_555
O1 C7 1_555 1_555
O2 Cu1 1_555 1_555
O3 C12 1_555 1_555
O4 C11 1_555 1_555
O5 H1 1_555 1_555
N1 Cu1 1_555 1_555
N2 Cu1 1_555 1_555
N3 H2 1_555 1_555
C1 N1 1_555 1_555
H3 C1 1_555 1_555
C2 C1 1_555 1_555
C3 C2 1_555 1_555
H4 C3 1_555 1_555
C4 C3 1_555 1_555
H5 C4 1_555 1_555
C5 C4 1_555 1_555
H6 C5 1_555 1_555
C6 C5 1_555 1_555
H7 C6 1_555 1_555
C7 C2 1_555 1_555
C8 N1 1_555 1_555
H8 C8 1_555 1_555
C9 C8 1_555 1_555
H9 C9 1_555 1_555
H10 C9 1_555 1_555
C10 C9 1_555 1_555
H11 C10 1_555 1_555
H12 C10 1_555 1_555
C11 O5 1_555 1_555
C12 O2 1_555 1_555
C13 N2 1_555 1_555
H13 C13 1_555 1_555
C14 N3 1_555 1_555
H14 C14 1_555 1_555
C15 N2 1_555 1_555
C16 C15 1_555 1_555
H15 C16 1_555 1_555
H16 C16 1_555 1_555
H17 C16 1_555 1_555
O3_2 Cu1 1_555 1_555
Cu1_2 O3 1_555 1_555
N3 C15 1_555 1_555
C6 C7 1_555 1_555
C8 C12 1_555 1_555
C10 C11 1_555 1_555
C13 C14 1_555 1_555

#END
