
#######################################################################
#
#                 Cambridge Crystallographic Data Centre
#                                CCDC 
#
#######################################################################
#
# If this CIF has been generated from an entry in the Cambridge 
# Structural Database, then it will include bibliographic, chemical, 
# crystal, experimental, refinement or atomic coordinate data resulting 
# from the CCDC's data processing and validation procedures.
#
#######################################################################

data_IROTEP
_symmetry_cell_setting           monoclinic
_symmetry_space_group_name_H-M   'P 21/c'
_symmetry_Int_Tables_number      14
_space_group_name_Hall           '-P 2ybc'
loop_
_symmetry_equiv_pos_site_id
_symmetry_equiv_pos_as_xyz
1 x,y,z
2 -x,1/2+y,1/2-z
3 -x,-y,-z
4 x,1/2-y,1/2+z
_cell_length_a                   10.6427(14)
_cell_length_b                   13.0324(17)
_cell_length_c                   15.2079(15)
_cell_angle_alpha                90
_cell_angle_beta                 126.823(6)
_cell_angle_gamma                90
_cell_volume                     1688.5
loop_
_atom_site_label
_atom_site_type_symbol
_atom_site_fract_x
_atom_site_fract_y
_atom_site_fract_z
C1 C 0.5275(8) 0.5562(5) 0.6270(6)
H1 H 0.4414 0.5881 0.5650
C2 C 0.6587(8) 0.6156(5) 0.7047(6)
H2 H 0.6585 0.6861 0.6949
C3 C 0.7857(8) 0.5696(6) 0.7942(6)
H3 H 0.8715 0.6091 0.8468
C4 C 0.7895(8) 0.4631(5) 0.8085(6)
C5 C 0.9183(8) 0.4057(6) 0.8973(6)
H4 H 1.0115 0.4395 0.9498
C6 C 0.9077(8) 0.3042(6) 0.9065(5)
H5 H 0.9920 0.2697 0.9671
C7 C 0.7694(8) 0.2475(5) 0.8250(5)
C8 C 0.7509(8) 0.1405(6) 0.8275(6)
H6 H 0.8305 0.1012 0.8857
C9 C 0.6148(9) 0.0958(5) 0.7434(6)
H7 H 0.6020 0.0253 0.7435
C10 C 0.6422(7) 0.3013(5) 0.7361(5)
C11 C 0.6526(7) 0.4103(5) 0.7290(5)
C12 C 0.1076(7) 0.3045(4) 0.3401(5)
C13 C 0.0894(7) 0.4164(4) 0.3497(5)
C14 C -0.1348(7) 0.4154(4) 0.1706(5)
C15 C -0.2658(7) 0.4662(5) 0.0815(5)
H8 H -0.2794 0.5357 0.0871
C16 C -0.3736(8) 0.4153(5) -0.0133(5)
H9 H -0.4610 0.4499 -0.0714
C17 C -0.3536(8) 0.3111(5) -0.0237(6)
H10 H -0.4270 0.2768 -0.0889
C18 C -0.2268(7) 0.2601(5) 0.0615(5)
H11 H -0.2139 0.1908 0.0541
C19 C -0.1161(7) 0.3103(4) 0.1596(5)
C20 C 0.4939(8) 0.1552(5) 0.6568(6)
H12 H 0.4021 0.1233 0.5997
Cl1 Cl 0.21307(19) 0.35344(11) 0.65239(13)
Cu1 Cu 0.34445(10) 0.35664(6) 0.54676(7)
Cu2 Cu 0.05223(10) 0.11538(6) 0.22359(7)
N1 N 0.5229(6) 0.4559(4) 0.6393(4)
N2 N 0.5078(6) 0.2561(4) 0.6545(4)
N3 N -0.0274(6) 0.4684(3) 0.2671(4)
N4 N 0.0106(5) 0.2551(4) 0.2470(4)
O1 O 0.1986(5) 0.4583(3) 0.4418(3)
O2 O 0.2232(5) 0.2588(3) 0.4265(4)
Cl1C Cl 0.21307(19) 0.14656(11) 0.15239(13)
Cu2A Cu -0.05223(10) 0.61538(6) 0.27641(7)
Cu2C Cu 0.05223(10) 0.38462(6) 0.72359(7)
N3A N 0.0274(6) -0.0316(3) 0.2329(4)
loop_
_geom_bond_atom_site_label_1
_geom_bond_atom_site_label_2
_geom_bond_site_symmetry_1
_geom_bond_site_symmetry_2
C1 H1 1_555 1_555
C2 C1 1_555 1_555
H2 C2 1_555 1_555
C3 C2 1_555 1_555
H3 C3 1_555 1_555
C4 C3 1_555 1_555
C5 C4 1_555 1_555
H4 C5 1_555 1_555
C6 C5 1_555 1_555
H5 C6 1_555 1_555
C7 C6 1_555 1_555
C8 C7 1_555 1_555
H6 C8 1_555 1_555
C9 C8 1_555 1_555
H7 C9 1_555 1_555
C10 C7 1_555 1_555
C11 C4 1_555 1_555
C12 C13 1_555 1_555
C13 N3 1_555 1_555
C14 C15 1_555 1_555
C15 H8 1_555 1_555
C16 C15 1_555 1_555
H9 C16 1_555 1_555
C17 C16 1_555 1_555
H10 C17 1_555 1_555
C18 C17 1_555 1_555
H11 C18 1_555 1_555
C19 C14 1_555 1_555
C20 C9 1_555 1_555
H12 C20 1_555 1_555
Cl1 Cu1 1_555 1_555
Cu1 N1 1_555 1_555
Cu2 N4 1_555 1_555
N1 C1 1_555 1_555
N2 C10 1_555 1_555
N3 C14 1_555 1_555
N4 C12 1_555 1_555
O1 C13 1_555 1_555
O2 C12 1_555 1_555
Cl1C Cu2 1_555 1_555
Cu2A N3 1_555 1_555
Cu2C Cl1 1_555 1_555
N3A Cu2 1_555 1_555
C10 C11 1_555 1_555
C11 N1 1_555 1_555
C18 C19 1_555 1_555
C19 N4 1_555 1_555
C20 N2 1_555 1_555
Cu1 N2 1_555 1_555
Cu1 O1 1_555 1_555
Cu1 O2 1_555 1_555

#END
