
#######################################################################
#
#                 Cambridge Crystallographic Data Centre
#                                CCDC 
#
#######################################################################
#
# If this CIF has been generated from an entry in the Cambridge 
# Structural Database, then it will include bibliographic, chemical, 
# crystal, experimental, refinement or atomic coordinate data resulting 
# from the CCDC's data processing and validation procedures.
#
#######################################################################

data_IRUJOV
_symmetry_cell_setting           monoclinic
_symmetry_space_group_name_H-M   'P 21/c'
_symmetry_Int_Tables_number      14
_space_group_name_Hall           '-P 2ybc'
loop_
_symmetry_equiv_pos_site_id
_symmetry_equiv_pos_as_xyz
1 x,y,z
2 -x,1/2+y,1/2-z
3 -x,-y,-z
4 x,1/2-y,1/2+z
_cell_length_a                   11.6736(4)
_cell_length_b                   28.3206(8)
_cell_length_c                   13.2080(3)
_cell_angle_alpha                90
_cell_angle_beta                 106.597(2)
_cell_angle_gamma                90
_cell_volume                     4184.69
loop_
_atom_site_label
_atom_site_type_symbol
_atom_site_fract_x
_atom_site_fract_y
_atom_site_fract_z
Cu1 Cu 0.78172(4) 0.020570(13) 2.03783(3)
Cu2 Cu 0.63657(4) -0.009724(14) 1.80027(3)
Cu3 Cu 0.5000 0.0000 2.0000
O1 O 0.6056(2) 0.05843(8) 1.80399(18)
O2 O 0.7556(2) 0.07791(8) 1.94719(19)
O3 O 0.5774(2) 0.46269(8) 1.7296(2)
O4 O 0.5781(2) 0.44321(8) 1.5653(2)
O5 O 0.3872(3) 0.17823(11) 1.5790(3)
O6 O 0.4154(3) 0.25164(10) 1.6146(2)
O7 O 0.5937(4) 0.33460(13) 1.9789(3)
O8 O 0.5307(3) 0.26673(11) 1.9152(3)
O9 O 0.9798(3) -0.05892(11) 2.1106(3)
O10 O 0.8057(2) -0.03486(8) 2.13259(18)
O11 O 0.7079(3) -0.39866(9) 2.4479(2)
O12 O 0.6676(2) -0.42256(8) 2.28127(18)
O13 O 1.1557(3) -0.18962(13) 2.3561(4)
O14 O 1.0645(3) -0.25472(10) 2.3123(3)
O15 O 0.9685(4) -0.26342(12) 2.5518(3)
O16 O 0.9053(4) -0.20114(11) 2.4653(2)
O17 O 0.8661(3) -0.00799(10) 1.9047(3)
O18 O 0.6398(2) -0.01347(7) 1.95016(17)
N1 N 0.4440(3) 0.21071(12) 1.6302(3)
N2 N 0.5721(3) 0.30555(13) 1.9082(3)
N3 N 1.0663(3) -0.21201(12) 2.3140(3)
N4 N 0.9117(3) -0.24350(11) 2.4725(3)
N5 N 0.6444(3) -0.00070(10) 1.6537(2)
N6 N 0.6569(3) -0.01942(11) 1.4954(2)
N7 N 1.1143(3) -0.06133(10) 1.8527(2)
N8 N 1.0749(3) -0.10210(12) 1.7049(3)
C1 C 0.6338(3) 0.23373(12) 1.7680(3)
C2 C 0.5529(3) 0.19906(12) 1.7166(3)
C3 C 0.5678(3) 0.15213(12) 1.7461(3)
H1 H 0.5131 0.1298 1.7098
C4 C 0.6635(3) 0.13832(11) 1.8291(3)
C5 C 0.7467(4) 0.17186(13) 1.8803(3)
H2 H 0.8124 0.1629 1.9354
C6 C 0.7316(4) 0.21842(13) 1.8492(3)
H3 H 0.7888 0.2404 1.8835
C7 C 0.6760(3) 0.08699(12) 1.8634(3)
C8 C 0.6225(3) 0.28537(12) 1.7417(3)
C9 C 0.5969(3) 0.31919(12) 1.8086(3)
C10 C 0.5883(3) 0.36687(12) 1.7843(3)
H4 H 0.5704 0.3885 1.8305
C11 C 0.6066(3) 0.38210(11) 1.6908(3)
C12 C 0.6380(4) 0.34948(13) 1.6250(3)
H5 H 0.6526 0.3596 1.5629
C13 C 0.6476(4) 0.30192(13) 1.6509(3)
H6 H 0.6712 0.2807 1.6070
C14 C 0.5867(3) 0.43386(12) 1.6625(3)
C15 C 0.8444(3) -0.20583(11) 2.2484(3)
C16 C 0.9565(3) -0.18568(12) 2.2619(3)
C17 C 0.9711(3) -0.14046(12) 2.2270(3)
H7 H 1.0474 -0.1287 2.2344
C18 C 0.8714(3) -0.11292(12) 2.1812(3)
C19 C 0.7589(3) -0.13144(12) 2.1698(3)
H8 H 0.6916 -0.1130 2.1409
C20 C 0.7457(3) -0.17750(12) 2.2014(3)
H9 H 0.6692 -0.1897 2.1908
C21 C 0.8885(4) -0.06475(12) 2.1389(3)
C22 C 0.8185(3) -0.25496(11) 2.2793(3)
C23 C 0.8464(3) -0.27258(12) 2.3823(3)
C24 C 0.8103(3) -0.31634(12) 2.4062(3)
H10 H 0.8292 -0.3264 2.4760
C25 C 0.7452(3) -0.34556(11) 2.3252(3)
C26 C 0.7204(3) -0.32975(12) 2.2215(3)
H11 H 0.6800 -0.3494 2.1665
C27 C 0.7552(3) -0.28513(12) 2.1993(3)
H12 H 0.7359 -0.2750 2.1294
C28 C 0.7048(3) -0.39273(11) 2.3553(3)
C29 C 0.6438(4) -0.03529(13) 1.5865(3)
H13 H 0.6352 -0.0670 1.6009
C30 C 0.6591(5) 0.03967(14) 1.6010(3)
H14 H 0.6631 0.0701 1.6282
C31 C 0.6670(4) 0.02847(15) 1.5038(3)
H15 H 0.6772 0.0493 1.4526
C32 C 0.6721(5) -0.04884(15) 1.4080(3)
H16 H 0.6292 -0.0346 1.3411
H17 H 0.6382 -0.0798 1.4116
C33 C 0.8017(5) -0.05393(18) 1.4129(3)
H18 H 0.8365 -0.0227 1.4151
H19 H 0.8072 -0.0693 1.3488
C34 C 0.8747(5) -0.08219(17) 1.5081(4)
H20 H 0.8689 -0.0670 1.5722
H21 H 0.8404 -0.1135 1.5056
C35 C 1.0039(5) -0.0868(2) 1.5129(4)
H22 H 1.0089 -0.0991 1.4458
H23 H 1.0392 -0.0555 1.5213
C36 C 1.0768(5) -0.1176(2) 1.5990(4)
H24 H 1.0468 -0.1496 1.5874
H25 H 1.1588 -0.1178 1.5958
C37 C 1.1252(3) -0.06302(13) 1.7558(3)
H26 H 1.1630 -0.0400 1.7267
C38 C 1.0532(4) -0.10158(14) 1.8646(4)
H27 H 1.0327 -0.1101 1.9251
C39 C 1.0280(4) -0.12661(15) 1.7740(4)
H28 H 0.9866 -0.1551 1.7606
H29 H 0.665(4) -0.0411(9) 1.960(4)
H30 H 0.912(4) 0.0091(13) 1.878(3)
H31 H 0.910(4) -0.0295(12) 1.940(3)
Cu1B Cu 0.21828(4) -0.020570(13) 1.96217(3)
Cu1_2 Cu -0.21828(4) 0.020570(13) 2.03783(3)
Cu1A Cu 0.21828(4) -0.479430(13) 2.46217(3)
Cu1B_2 Cu 1.21828(4) -0.020570(13) 1.96217(3)
Cu1C Cu 0.78172(4) 0.479430(13) 1.53783(3)
Cu2B Cu 0.36343(4) 0.009724(14) 2.19973(3)
Cu2A Cu 0.36343(4) 0.490276(14) 1.69973(3)
Cu2C Cu 0.63657(4) -0.490276(14) 2.30027(3)
Cu3A Cu 0.5000 -0.5000 2.5000
Cu3A_2 Cu 0.5000 0.5000 1.5000
O1B O 0.3944(2) -0.05843(8) 2.19601(18)
O2B O 0.2444(2) -0.07791(8) 2.05281(19)
O3B O 0.4226(2) -0.46269(8) 2.2704(2)
O3A O 0.4226(2) -0.03731(8) 1.7704(2)
O3C O 0.5774(2) 0.03731(8) 2.2296(2)
O4B O 0.4219(2) -0.44321(8) 2.4347(2)
O4A O 0.4219(2) -0.05679(8) 1.9347(2)
O4C O 0.5781(2) 0.05679(8) 2.0653(2)
O5B O 0.6128(3) -0.17823(11) 2.4210(3)
O6B O 0.5846(3) -0.25164(10) 2.3854(2)
O7B O 0.4063(4) -0.33460(13) 2.0211(3)
O8B O 0.4693(3) -0.26673(11) 2.0848(3)
O9B O 0.0202(3) 0.05892(11) 1.8894(3)
O10B O 0.1943(2) 0.03486(8) 1.86741(18)
O11B O 0.2921(3) 0.39866(9) 1.5521(2)
O12B O 0.3324(2) 0.42256(8) 1.71873(18)
O12A O 0.3324(2) 0.07744(8) 2.21873(18)
O12C O 0.6676(2) -0.07744(8) 1.78127(18)
O13B O -0.1557(3) 0.18962(13) 1.6439(4)
O14B O -0.0645(3) 0.25472(10) 1.6877(3)
O15B O 0.0315(4) 0.26342(12) 1.4482(3)
O16B O 0.0947(4) 0.20114(11) 1.5347(2)
O17B O 0.1339(3) 0.00799(10) 2.0953(3)
O18B O 0.3602(2) 0.01347(7) 2.04984(17)
N1B N 0.5560(3) -0.21071(12) 2.3698(3)
N2B N 0.4279(3) -0.30555(13) 2.0918(3)
N3B N -0.0663(3) 0.21201(12) 1.6860(3)
N4B N 0.0883(3) 0.24350(11) 1.5275(3)
N5B N 0.3556(3) 0.00070(10) 2.3463(2)
N6B N 0.3431(3) 0.01942(11) 2.5046(2)
N7B N -0.1143(3) 0.06133(10) 2.1473(2)
N7_2 N 0.1143(3) -0.06133(10) 1.8527(2)
N7B_2 N 0.8857(3) 0.06133(10) 2.1473(2)
N8B N -0.0749(3) 0.10210(12) 2.2951(3)
C1B C 0.3662(3) -0.23373(12) 2.2320(3)
C2B C 0.4471(3) -0.19906(12) 2.2834(3)
C3B C 0.4322(3) -0.15213(12) 2.2539(3)
H1B H 0.4869 -0.1298 2.2902
C4B C 0.3365(3) -0.13832(11) 2.1709(3)
C5B C 0.2533(4) -0.17186(13) 2.1197(3)
H2B H 0.1876 -0.1629 2.0646
C6B C 0.2684(4) -0.21842(13) 2.1508(3)
H3B H 0.2112 -0.2404 2.1165
C7B C 0.3240(3) -0.08699(12) 2.1366(3)
C8B C 0.3775(3) -0.28537(12) 2.2583(3)
C9B C 0.4031(3) -0.31919(12) 2.1914(3)
C10B C 0.4117(3) -0.36687(12) 2.2157(3)
H4B H 0.4296 -0.3885 2.1695
C11B C 0.3934(3) -0.38210(11) 2.3092(3)
C12B C 0.3620(4) -0.34948(13) 2.3750(3)
H5B H 0.3474 -0.3596 2.4371
C13B C 0.3524(4) -0.30192(13) 2.3491(3)
H6B H 0.3288 -0.2807 2.3930
C14B C 0.4133(3) -0.43386(12) 2.3375(3)
C15B C 0.1556(3) 0.20583(11) 1.7516(3)
C16B C 0.0435(3) 0.18568(12) 1.7381(3)
C17B C 0.0289(3) 0.14046(12) 1.7730(3)
H7B H -0.0474 0.1287 1.7656
C18B C 0.1286(3) 0.11292(12) 1.8188(3)
C19B C 0.2411(3) 0.13144(12) 1.8302(3)
H8B H 0.3084 0.1130 1.8591
C20B C 0.2543(3) 0.17750(12) 1.7986(3)
H9B H 0.3308 0.1897 1.8092
C21B C 0.1115(4) 0.06475(12) 1.8611(3)
C22B C 0.1815(3) 0.25496(11) 1.7207(3)
C23B C 0.1536(3) 0.27258(12) 1.6177(3)
C24B C 0.1897(3) 0.31634(12) 1.5938(3)
H10B H 0.1708 0.3264 1.5240
C25B C 0.2548(3) 0.34556(11) 1.6748(3)
C26B C 0.2796(3) 0.32975(12) 1.7785(3)
H11B H 0.3200 0.3494 1.8335
C27B C 0.2448(3) 0.28513(12) 1.8007(3)
H12B H 0.2641 0.2750 1.8706
C28B C 0.2952(3) 0.39273(11) 1.6447(3)
C29B C 0.3562(4) 0.03529(13) 2.4135(3)
H13B H 0.3648 0.0670 2.3991
C30B C 0.3409(5) -0.03967(14) 2.3990(3)
H14B H 0.3369 -0.0701 2.3718
C31B C 0.3330(4) -0.02847(15) 2.4962(3)
H15B H 0.3228 -0.0493 2.5474
C32B C 0.3279(5) 0.04884(15) 2.5920(3)
H16B H 0.3708 0.0346 2.6589
H17B H 0.3618 0.0798 2.5884
C33B C 0.1983(5) 0.05393(18) 2.5871(3)
H18B H 0.1635 0.0227 2.5849
H19B H 0.1928 0.0693 2.6512
C34B C 0.1253(5) 0.08219(17) 2.4919(4)
H20B H 0.1311 0.0670 2.4278
H21B H 0.1596 0.1135 2.4944
C35B C -0.0039(5) 0.0868(2) 2.4871(4)
H22B H -0.0089 0.0991 2.5542
H23B H -0.0392 0.0555 2.4787
C36B C -0.0768(5) 0.1176(2) 2.4010(4)
H24B H -0.0468 0.1496 2.4126
H25B H -0.1588 0.1178 2.4042
C37B C -0.1252(3) 0.06302(13) 2.2442(3)
H26B H -0.1630 0.0400 2.2733
C38B C -0.0532(4) 0.10158(14) 2.1354(4)
H27B H -0.0327 0.1101 2.0749
C39B C -0.0280(4) 0.12661(15) 2.2260(4)
H28B H 0.0134 0.1551 2.2394
H29B H 0.335(4) 0.0411(9) 2.040(4)
H30B H 0.088(4) -0.0091(13) 2.122(3)
H31B H 0.090(4) 0.0295(12) 2.060(3)
loop_
_geom_bond_atom_site_label_1
_geom_bond_atom_site_label_2
_geom_bond_site_symmetry_1
_geom_bond_site_symmetry_2
Cu1 O2 1_555 1_555
Cu2 O1 1_555 1_555
Cu3 O18 1_555 1_555
O1 C7 1_555 1_555
O2 C7 1_555 1_555
O3 C14 1_555 1_555
O4 C14 1_555 1_555
O5 N1 1_555 1_555
O6 N1 1_555 1_555
O7 N2 1_555 1_555
O8 N2 1_555 1_555
O9 C21 1_555 1_555
O10 Cu1 1_555 1_555
O11 C28 1_555 1_555
O12 C28 1_555 1_555
O13 N3 1_555 1_555
O14 N3 1_555 1_555
O15 N4 1_555 1_555
O16 N4 1_555 1_555
O17 Cu1 1_555 1_555
O18 Cu1 1_555 1_555
N1 C2 1_555 1_555
N2 C9 1_555 1_555
N3 C16 1_555 1_555
N4 C23 1_555 1_555
N5 Cu2 1_555 1_555
N6 C29 1_555 1_555
N7 C37 1_555 1_555
N8 C36 1_555 1_555
C1 C2 1_555 1_555
C2 C3 1_555 1_555
C3 H1 1_555 1_555
C4 C3 1_555 1_555
C5 C4 1_555 1_555
H2 C5 1_555 1_555
C6 C1 1_555 1_555
H3 C6 1_555 1_555
C7 C4 1_555 1_555
C8 C1 1_555 1_555
C9 C8 1_555 1_555
C10 C9 1_555 1_555
H4 C10 1_555 1_555
C11 C10 1_555 1_555
C12 C11 1_555 1_555
H5 C12 1_555 1_555
C13 C8 1_555 1_555
H6 C13 1_555 1_555
C14 C11 1_555 1_555
C15 C16 1_555 1_555
C16 C17 1_555 1_555
C17 H7 1_555 1_555
C18 C17 1_555 1_555
C19 C18 1_555 1_555
H8 C19 1_555 1_555
C20 C15 1_555 1_555
H9 C20 1_555 1_555
C21 O10 1_555 1_555
C22 C15 1_555 1_555
C23 C22 1_555 1_555
C24 C23 1_555 1_555
H10 C24 1_555 1_555
C25 C24 1_555 1_555
C26 C25 1_555 1_555
H11 C26 1_555 1_555
C27 C22 1_555 1_555
H12 C27 1_555 1_555
C28 C25 1_555 1_555
C29 N5 1_555 1_555
H13 C29 1_555 1_555
C30 N5 1_555 1_555
H14 C30 1_555 1_555
C31 N6 1_555 1_555
H15 C31 1_555 1_555
C32 N6 1_555 1_555
H16 C32 1_555 1_555
H17 C32 1_555 1_555
C33 C32 1_555 1_555
H18 C33 1_555 1_555
H19 C33 1_555 1_555
C34 C33 1_555 1_555
H20 C34 1_555 1_555
H21 C34 1_555 1_555
C35 C34 1_555 1_555
H22 C35 1_555 1_555
H23 C35 1_555 1_555
C36 C35 1_555 1_555
H24 C36 1_555 1_555
H25 C36 1_555 1_555
C37 N8 1_555 1_555
H26 C37 1_555 1_555
C38 N7 1_555 1_555
H27 C38 1_555 1_555
C39 N8 1_555 1_555
H28 C39 1_555 1_555
H29 O18 1_555 1_555
H30 O17 1_555 1_555
H31 O17 1_555 1_555
Cu1B O2B 1_555 1_555
Cu1_2 N7B 1_555 1_555
Cu1A O4B 1_555 1_555
Cu1B_2 N7 1_555 1_555
Cu1C O4 1_555 1_555
Cu2B O1B 1_555 1_555
Cu2A O3 1_555 1_555
Cu2C O12 1_555 1_555
Cu3A O4B 1_555 1_555
Cu3A_2 O4 1_555 1_555
O1B C7B 1_555 1_555
O2B C7B 1_555 1_555
O3B Cu2C 1_555 1_555
O3A Cu2 1_555 1_555
O3C Cu2B 1_555 1_555
O4B C14B 1_555 1_555
O4A Cu3 1_555 1_555
O4C Cu1 1_555 1_555
O5B N1B 1_555 1_555
O6B N1B 1_555 1_555
O7B N2B 1_555 1_555
O8B N2B 1_555 1_555
O9B C21B 1_555 1_555
O10B Cu1B 1_555 1_555
O11B C28B 1_555 1_555
O12B Cu2A 1_555 1_555
O12A Cu2B 1_555 1_555
O12C Cu2 1_555 1_555
O13B N3B 1_555 1_555
O14B N3B 1_555 1_555
O15B N4B 1_555 1_555
O16B N4B 1_555 1_555
O17B Cu1B 1_555 1_555
O18B Cu3 1_555 1_555
N1B C2B 1_555 1_555
N2B C9B 1_555 1_555
N3B C16B 1_555 1_555
N4B C23B 1_555 1_555
N5B Cu2B 1_555 1_555
N6B C29B 1_555 1_555
N7B C37B 1_555 1_555
N7_2 Cu1B 1_555 1_555
N7B_2 Cu1 1_555 1_555
N8B C36B 1_555 1_555
C1B C2B 1_555 1_555
C2B C3B 1_555 1_555
C3B H1B 1_555 1_555
C4B C3B 1_555 1_555
C5B C4B 1_555 1_555
H2B C5B 1_555 1_555
C6B C1B 1_555 1_555
H3B C6B 1_555 1_555
C7B C4B 1_555 1_555
C8B C1B 1_555 1_555
C9B C8B 1_555 1_555
C10B C9B 1_555 1_555
H4B C10B 1_555 1_555
C11B C10B 1_555 1_555
C12B C11B 1_555 1_555
H5B C12B 1_555 1_555
C13B C8B 1_555 1_555
H6B C13B 1_555 1_555
C14B O3B 1_555 1_555
C15B C16B 1_555 1_555
C16B C17B 1_555 1_555
C17B H7B 1_555 1_555
C18B C17B 1_555 1_555
C19B C18B 1_555 1_555
H8B C19B 1_555 1_555
C20B C15B 1_555 1_555
H9B C20B 1_555 1_555
C21B O10B 1_555 1_555
C22B C15B 1_555 1_555
C23B C22B 1_555 1_555
C24B C23B 1_555 1_555
H10B C24B 1_555 1_555
C25B C24B 1_555 1_555
C26B C25B 1_555 1_555
H11B C26B 1_555 1_555
C27B C22B 1_555 1_555
H12B C27B 1_555 1_555
C28B O12B 1_555 1_555
C29B N5B 1_555 1_555
H13B C29B 1_555 1_555
C30B N5B 1_555 1_555
H14B C30B 1_555 1_555
C31B N6B 1_555 1_555
H15B C31B 1_555 1_555
C32B N6B 1_555 1_555
H16B C32B 1_555 1_555
H17B C32B 1_555 1_555
C33B C32B 1_555 1_555
H18B C33B 1_555 1_555
H19B C33B 1_555 1_555
C34B C33B 1_555 1_555
H20B C34B 1_555 1_555
H21B C34B 1_555 1_555
C35B C34B 1_555 1_555
H22B C35B 1_555 1_555
H23B C35B 1_555 1_555
C36B C35B 1_555 1_555
H24B C36B 1_555 1_555
H25B C36B 1_555 1_555
C37B N8B 1_555 1_555
H26B C37B 1_555 1_555
C38B N7B 1_555 1_555
H27B C38B 1_555 1_555
C39B N8B 1_555 1_555
H28B C39B 1_555 1_555
H29B O18B 1_555 1_555
H30B O17B 1_555 1_555
H31B O17B 1_555 1_555
Cu2 O17 1_555 1_555
Cu2 O18 1_555 1_555
Cu3 O4C 1_555 1_555
C5 C6 1_555 1_555
C12 C13 1_555 1_555
C18 C21 1_555 1_555
C19 C20 1_555 1_555
C26 C27 1_555 1_555
C30 C31 1_555 1_555
C38 C39 1_555 1_555
Cu1B O4A 1_555 1_555
Cu1B O18B 1_555 1_555
Cu2B O17B 1_555 1_555
Cu2B O18B 1_555 1_555
C5B C6B 1_555 1_555
C11B C14B 1_555 1_555
C12B C13B 1_555 1_555
C18B C21B 1_555 1_555
C19B C20B 1_555 1_555
C25B C28B 1_555 1_555
C26B C27B 1_555 1_555
C30B C31B 1_555 1_555
C38B C39B 1_555 1_555

#END
