
#######################################################################
#
#                 Cambridge Crystallographic Data Centre
#                                CCDC 
#
#######################################################################
#
# If this CIF has been generated from an entry in the Cambridge 
# Structural Database, then it will include bibliographic, chemical, 
# crystal, experimental, refinement or atomic coordinate data resulting 
# from the CCDC's data processing and validation procedures.
#
#######################################################################

data_ISAGUE
_symmetry_cell_setting           tetragonal
_symmetry_space_group_name_H-M   'P 4 n c'
_symmetry_Int_Tables_number      104
_space_group_name_Hall           'P 4 -2n'
loop_
_symmetry_equiv_pos_site_id
_symmetry_equiv_pos_as_xyz
1 x,y,z
2 -x,-y,z
3 -y,x,z
4 y,-x,z
5 1/2+x,1/2-y,1/2+z
6 1/2-x,1/2+y,1/2+z
7 1/2-y,1/2-x,1/2+z
8 1/2+y,1/2+x,1/2+z
_cell_length_a                   10.9004(14)
_cell_length_b                   10.9004(14)
_cell_length_c                   13.093(2)
_cell_angle_alpha                90
_cell_angle_beta                 90
_cell_angle_gamma                90
_cell_volume                     1555.69
loop_
_atom_site_label
_atom_site_type_symbol
_atom_site_fract_x
_atom_site_fract_y
_atom_site_fract_z
Co1 Co 0.0000 -1.0000 0.74746(4)
Si1 Si 0.0000 -0.5000 0.57612(10)
S1 S 0.0000 -1.0000 1.1138(2)
S2 S 0.0000 -1.0000 0.37612(11)
N1 N 0.07195(14) -0.18587(13) 0.74403(19)
N2 N 0.0000 -1.0000 0.5917(5)
N3 N 0.0000 -1.0000 0.9051(5)
C1 C 0.03013(18) -0.26782(19) 0.6756(2)
H1 H -0.0350 -0.2422 0.6311
C2 C 0.0738(2) -0.38612(19) 0.6646(2)
C3 C 0.1716(2) -0.4175(2) 0.7288(3)
H2 H 0.2076 -0.4977 0.7242
C4 C 0.2163(2) -0.3351(2) 0.7979(3)
H3 H 0.2843 -0.3565 0.8409
C5 C 0.1632(2) -0.2217(2) 0.8052(2)
H4 H 0.1927 -0.1658 0.8562
C6 C 0.1179(3) -0.5780(3) 0.4968(3)
H5 H 0.1772 -0.6166 0.5405
H6 H 0.1582 -0.5187 0.4542
H7 H 0.0792 -0.6389 0.4548
C7 C 0.0000 -1.0000 0.5023(5)
C8 C 0.0000 -1.0000 0.9913(5)
C2A C -0.0738(2) -0.61388(19) 0.6646(2)
C1A C -0.03013(18) -0.73218(19) 0.6756(2)
N1A N -0.07195(14) -0.81413(13) 0.74403(19)
Co1_2 Co 0.0000 0.0000 0.74746(4)
N1_2 N 0.07195(14) -1.18587(13) 0.74403(19)
N1C N -0.18587(13) -1.07195(14) 0.74403(19)
C1C C -0.26782(19) -1.03013(18) 0.6756(2)
H1C H -0.2422 -0.9650 0.6311
C2C C -0.38612(19) -1.0738(2) 0.6646(2)
Si1C Si -0.5000 -1.0000 0.57612(10)
C2B C -0.61388(19) -0.9262(2) 0.6646(2)
C1B C -0.73218(19) -0.96987(18) 0.6756(2)
N1B N -0.81413(13) -0.92805(14) 0.74403(19)
Co1_3 Co -1.0000 -1.0000 0.74746(4)
C5B C -0.7783(2) -0.8368(2) 0.8052(2)
C4B C -0.6649(2) -0.7837(2) 0.7979(3)
C3B C -0.5825(2) -0.8284(2) 0.7288(3)
H2B H -0.5023 -0.7924 0.7242
H3B H -0.6435 -0.7157 0.8409
H4B H -0.8342 -0.8073 0.8562
H1B H -0.7578 -1.0350 0.6311
C6C C -0.5780(3) -1.1179(3) 0.4968(3)
H5C H -0.6166 -1.1772 0.5405
H6C H -0.5187 -1.1582 0.4542
H7C H -0.6389 -1.0792 0.4548
C6B C -0.4220(3) -0.8821(3) 0.4968(3)
H5B H -0.3834 -0.8228 0.5405
H6B H -0.4813 -0.8418 0.4542
H7B H -0.3611 -0.9208 0.4548
C3C C -0.4175(2) -1.1716(2) 0.7288(3)
H2C H -0.4977 -1.2076 0.7242
C4C C -0.3351(2) -1.2163(2) 0.7979(3)
H3C H -0.3565 -1.2843 0.8409
C5C C -0.2217(2) -1.1632(2) 0.8052(2)
H4C H -0.1658 -1.1927 0.8562
N1B_2 N 0.18587(13) -0.92805(14) 0.74403(19)
C5A C -0.1632(2) -0.7783(2) 0.8052(2)
C4A C -0.2163(2) -0.6649(2) 0.7979(3)
C3A C -0.1716(2) -0.5825(2) 0.7288(3)
H2A H -0.2076 -0.5023 0.7242
H3A H -0.2843 -0.6435 0.8409
H4A H -0.1927 -0.8342 0.8562
H1A H 0.0350 -0.7578 0.6311
C6A C -0.1179(3) -0.4220(3) 0.4968(3)
H5A H -0.1772 -0.3834 0.5405
H6A H -0.1582 -0.4813 0.4542
H7A H -0.0792 -0.3611 0.4548
loop_
_geom_bond_atom_site_label_1
_geom_bond_atom_site_label_2
_geom_bond_site_symmetry_1
_geom_bond_site_symmetry_2
Co1 N2 1_555 1_555
Si1 C2 1_555 1_555
S1 C8 1_555 1_555
S2 C7 1_555 1_555
N1 C1 1_555 1_555
N2 C7 1_555 1_555
N3 Co1 1_555 1_555
C1 H1 1_555 1_555
C2 C1 1_555 1_555
C3 C2 1_555 1_555
H2 C3 1_555 1_555
C4 C3 1_555 1_555
H3 C4 1_555 1_555
C5 N1 1_555 1_555
H4 C5 1_555 1_555
C6 Si1 1_555 1_555
H5 C6 1_555 1_555
H6 C6 1_555 1_555
H7 C6 1_555 1_555
C8 N3 1_555 1_555
C2A Si1 1_555 1_555
C1A C2A 1_555 1_555
N1A Co1 1_555 1_555
Co1_2 N1 1_555 1_555
N1_2 Co1 1_555 1_555
N1C Co1 1_555 1_555
C1C N1C 1_555 1_555
H1C C1C 1_555 1_555
C2C C1C 1_555 1_555
Si1C C2C 1_555 1_555
C2B Si1C 1_555 1_555
C1B C2B 1_555 1_555
N1B C1B 1_555 1_555
Co1_3 N1B 1_555 1_555
C5B N1B 1_555 1_555
C4B C5B 1_555 1_555
C3B C2B 1_555 1_555
H2B C3B 1_555 1_555
H3B C4B 1_555 1_555
H4B C5B 1_555 1_555
H1B C1B 1_555 1_555
C6C Si1C 1_555 1_555
H5C C6C 1_555 1_555
H6C C6C 1_555 1_555
H7C C6C 1_555 1_555
C6B Si1C 1_555 1_555
H5B C6B 1_555 1_555
H6B C6B 1_555 1_555
H7B C6B 1_555 1_555
C3C C2C 1_555 1_555
H2C C3C 1_555 1_555
C4C C3C 1_555 1_555
H3C C4C 1_555 1_555
C5C N1C 1_555 1_555
H4C C5C 1_555 1_555
N1B_2 Co1 1_555 1_555
C5A N1A 1_555 1_555
C4A C5A 1_555 1_555
C3A C2A 1_555 1_555
H2A C3A 1_555 1_555
H3A C4A 1_555 1_555
H4A C5A 1_555 1_555
H1A C1A 1_555 1_555
C6A Si1 1_555 1_555
H5A C6A 1_555 1_555
H6A C6A 1_555 1_555
H7A C6A 1_555 1_555
C4 C5 1_555 1_555
C1A N1A 1_555 1_555
C4B C3B 1_555 1_555
C4C C5C 1_555 1_555
C4A C3A 1_555 1_555

#END
