
#######################################################################
#
#                 Cambridge Crystallographic Data Centre
#                                CCDC 
#
#######################################################################
#
# If this CIF has been generated from an entry in the Cambridge 
# Structural Database, then it will include bibliographic, chemical, 
# crystal, experimental, refinement or atomic coordinate data resulting 
# from the CCDC's data processing and validation procedures.
#
#######################################################################

data_ISAYAD
_symmetry_cell_setting           monoclinic
_symmetry_space_group_name_H-M   'P 21/c'
_symmetry_Int_Tables_number      14
_space_group_name_Hall           '-P 2ybc'
loop_
_symmetry_equiv_pos_site_id
_symmetry_equiv_pos_as_xyz
1 x,y,z
2 -x,1/2+y,1/2-z
3 -x,-y,-z
4 x,1/2-y,1/2+z
_cell_length_a                   9.5388(11)
_cell_length_b                   12.6589(14)
_cell_length_c                   21.400(2)
_cell_angle_alpha                90
_cell_angle_beta                 98.5390(10)
_cell_angle_gamma                90
_cell_volume                     2555.42
loop_
_atom_site_label
_atom_site_type_symbol
_atom_site_fract_x
_atom_site_fract_y
_atom_site_fract_z
Gd1 Gd 0.23187(3) 0.47896(3) 0.495689(16)
Cu1 Cu 0.48905(12) 0.83009(10) 0.73655(6)
Cu2 Cu 0.36048(10) -0.05740(8) 0.37544(5)
Cu3 Cu 0.49387(13) -0.10681(11) 0.26759(6)
Cl1 Cl 0.5019(2) -0.21584(15) 0.35562(10)
Cl2 Cl 0.6415(2) 0.96293(17) 0.75062(10)
Cl3 Cl 0.6236(3) 0.68044(19) 0.69970(12)
O1 O 0.1562(5) 0.5733(4) 0.5810(2)
O2 O 0.3980(5) 0.4442(4) 0.5979(2)
H1 H 0.3645 0.4696 0.6294
H2 H 0.4078 0.3800 0.6094
O3 O -0.0710(5) 0.6146(4) 0.5804(2)
O4 O 0.3096(6) 0.5051(4) 0.3910(2)
H3 H 0.3906 0.5332 0.4016
H4 H 0.3179 0.4415 0.3793
O5 O 0.3759(5) 0.3303(4) 0.4794(2)
O6 O 0.5974(5) 0.3886(4) 0.4942(2)
O7 O 0.0849(5) 0.6128(4) 0.4496(2)
O8 O -0.1421(5) 0.6561(4) 0.4438(2)
N1 N 0.2850(7) 0.7934(5) 0.7181(3)
N2 N 0.4971(7) 0.0403(5) 0.4192(3)
N3 N 0.1693(6) 0.8890(5) 0.3604(3)
C1 C 0.1004(7) 0.6971(5) 0.6551(3)
C2 C 0.2414(7) 0.7264(6) 0.6718(3)
H5 H 0.3099 0.6969 0.6489
C3 C 0.1882(9) 0.8330(6) 0.7516(4)
H6 H 0.2188 0.8791 0.7860
C4 C 0.0476(10) 0.8088(6) 0.7378(4)
H7 H -0.0182 0.8390 0.7620
C5 C 0.0009(8) 0.7408(6) 0.6889(3)
H8 H -0.0969 0.7241 0.6785
C6 C 0.0579(8) 0.6211(6) 0.6007(3)
C7 C 0.5555(7) 0.2112(5) 0.4614(3)
C8 C 0.4598(7) 0.1365(6) 0.4368(3)
H9 H 0.3618 0.1537 0.4320
C9 C 0.6366(8) 0.0164(6) 0.4279(4)
H10 H 0.6650 -0.0525 0.4174
C10 C 0.7393(8) 0.0885(6) 0.4515(4)
H11 H 0.8367 0.0695 0.4570
C11 C 0.6988(8) 0.1886(6) 0.4671(3)
H12 H 0.7677 0.2407 0.4815
C12 C 0.5067(7) 0.3192(5) 0.4799(3)
C13 C 0.0037(7) 0.7651(5) 0.3934(3)
C14 C 0.1402(7) 0.7984(6) 0.3888(3)
H13 H 0.2172 0.7551 0.4067
C15 C 0.0580(9) 0.9438(6) 0.3317(4)
H14 H 0.0759 1.0070 0.3103
C16 C -0.0804(9) 0.9142(7) 0.3314(5)
H15 H -0.1557 0.9544 0.3090
C17 C -0.1078(8) 0.8250(6) 0.3642(4)
H16 H -0.2027 0.8049 0.3667
C18 C -0.0190(8) 0.6697(5) 0.4317(3)
Gd1B Gd -0.23187(3) 0.52104(3) 0.504311(16)
Gd1B_2 Gd 0.76813(3) 0.52104(3) 0.504311(16)
Cu2_2 Cu 0.36048(10) 0.94260(8) 0.37544(5)
Cu3B Cu 0.50613(13) 1.10681(11) 0.73241(6)
Cu3C Cu 0.49387(13) 0.60681(11) 0.76759(6)
Cl2B Cl 0.3585(2) 0.03707(17) 0.24938(10)
Cl3C Cl 0.6236(3) -0.18044(19) 0.19970(12)
O3B O 0.0710(5) 0.3854(4) 0.4196(2)
O6B O 0.4026(5) 0.6114(4) 0.5058(2)
O8B O 0.1421(5) 0.3439(4) 0.5562(2)
N3_2 N 0.1693(6) -0.1110(5) 0.3604(3)
O9 O 0.1089(12) 0.1450(9) 0.4653(6)
H17 H 0.1054 0.1867 0.4962
H18 H 0.0727 0.1870 0.4363
loop_
_geom_bond_atom_site_label_1
_geom_bond_atom_site_label_2
_geom_bond_site_symmetry_1
_geom_bond_site_symmetry_2
Gd1 O1 1_555 1_555
Cu1 Cl2 1_555 1_555
Cu2 Cl1 1_555 1_555
Cu3 Cl1 1_555 1_555
Cl2 Cu3B 1_555 1_555
Cl3 Cu1 1_555 1_555
O1 C6 1_555 1_555
O2 Gd1 1_555 1_555
H1 O2 1_555 1_555
H2 O2 1_555 1_555
O3 C6 1_555 1_555
O4 Gd1 1_555 1_555
H3 O4 1_555 1_555
H4 O4 1_555 1_555
O5 Gd1 1_555 1_555
O6 C12 1_555 1_555
O7 Gd1 1_555 1_555
O8 C18 1_555 1_555
N1 Cu1 1_555 1_555
N2 Cu2 1_555 1_555
N3 C14 1_555 1_555
C1 C2 1_555 1_555
C2 N1 1_555 1_555
H5 C2 1_555 1_555
C3 N1 1_555 1_555
H6 C3 1_555 1_555
C4 C3 1_555 1_555
H7 C4 1_555 1_555
C5 C1 1_555 1_555
H8 C5 1_555 1_555
C6 C1 1_555 1_555
C7 C8 1_555 1_555
C8 N2 1_555 1_555
H9 C8 1_555 1_555
C9 N2 1_555 1_555
H10 C9 1_555 1_555
C10 C9 1_555 1_555
H11 C10 1_555 1_555
C11 C7 1_555 1_555
H12 C11 1_555 1_555
C12 O5 1_555 1_555
C13 C14 1_555 1_555
C14 H13 1_555 1_555
C15 N3 1_555 1_555
H14 C15 1_555 1_555
C16 C15 1_555 1_555
H15 C16 1_555 1_555
C17 C13 1_555 1_555
H16 C17 1_555 1_555
C18 O7 1_555 1_555
O9 H17 1_555 1_555
H18 O9 1_555 1_555
Gd1B O3 1_555 1_555
Gd1B_2 O6 1_555 1_555
Cu2_2 N3 1_555 1_555
Cu3C Cl3 1_555 1_555
Cl2B Cu3 1_555 1_555
Cl3C Cu3 1_555 1_555
O3B Gd1 1_555 1_555
O6B Gd1 1_555 1_555
O8B Gd1 1_555 1_555
N3_2 Cu2 1_555 1_555
O8 Gd1B 1_555 1_555
C4 C5 1_555 1_555
C7 C12 1_555 1_555
C10 C11 1_555 1_555
C13 C18 1_555 1_555
C16 C17 1_555 1_555

#END
