
#######################################################################
#
#                 Cambridge Crystallographic Data Centre
#                                CCDC 
#
#######################################################################
#
# If this CIF has been generated from an entry in the Cambridge 
# Structural Database, then it will include bibliographic, chemical, 
# crystal, experimental, refinement or atomic coordinate data resulting 
# from the CCDC's data processing and validation procedures.
#
#######################################################################

data_ISEFUI
_symmetry_cell_setting           rhombohedral
_symmetry_space_group_name_H-M   'R 3 c'
_symmetry_Int_Tables_number      161
_space_group_name_Hall           'R 3 -2"c'
loop_
_symmetry_equiv_pos_site_id
_symmetry_equiv_pos_as_xyz
1 x,y,z
2 -y,x-y,z
3 -x+y,-x,z
4 -y,-x,1/2+z
5 -x+y,y,1/2+z
6 x,x-y,1/2+z
7 2/3+x,1/3+y,1/3+z
8 2/3-y,1/3+x-y,1/3+z
9 2/3-x+y,1/3-x,1/3+z
10 2/3-y,1/3-x,5/6+z
11 2/3-x+y,1/3+y,5/6+z
12 2/3+x,1/3+x-y,5/6+z
13 1/3+x,2/3+y,2/3+z
14 1/3-y,2/3+x-y,2/3+z
15 1/3-x+y,2/3-x,2/3+z
16 1/3-y,2/3-x,1/6+z
17 1/3-x+y,2/3+y,1/6+z
18 1/3+x,2/3+x-y,1/6+z
_cell_length_a                   9.9962(14)
_cell_length_b                   9.9962(14)
_cell_length_c                   37.368(8)
_cell_angle_alpha                90
_cell_angle_beta                 90
_cell_angle_gamma                120
_cell_volume                     3233.7
loop_
_atom_site_label
_atom_site_type_symbol
_atom_site_fract_x
_atom_site_fract_y
_atom_site_fract_z
Co1 Co 0.6667 0.3333 0.83678(4)
Na1 Na 0.6667 0.3333 0.74959(11)
N1 N 0.5929(8) -0.0520(7) 0.77404(17)
H1 H 0.5517 -0.0318 0.7562
O1 O 0.6110(7) 0.1549(7) 0.80058(14)
C1 C 0.6410(8) 0.0484(8) 0.8029(2)
C2 C 0.7133(8) 0.0142(8) 0.83130(18)
C3 C 0.7299(13) -0.1148(10) 0.8281(2)
H2 H 0.7784 -0.1381 0.8463
C4 C 0.6744(14) -0.2123(12) 0.7976(3)
H3 H 0.6864 -0.2985 0.7959
C5 C 0.6065(12) -0.1796(10) 0.7721(2)
H4 H 0.5671 -0.2447 0.7524
O2 O 0.7609(6) 0.2311(6) 0.86721(14)
O3 O 0.8389(7) 0.0750(7) 0.88691(14)
C6 C 0.7757(8) 0.1138(8) 0.86404(18)
Na1O Na 1.0000 -0.0000 0.91626(11)
Na1Q Na 1.0000 1.0001 0.91626(11)
Na1P Na -0.0001 -0.0000 0.91626(11)
N1A N 1.0520(7) 0.6449(11) 0.77404(17)
N1B N 0.3551(11) 0.4071(8) 0.77404(17)
H1A H 1.0318 0.5835 0.7562
H1B H 0.4165 0.4483 0.7562
O1A O 0.8451(7) 0.4561(10) 0.80058(14)
O1B O 0.5439(10) 0.3890(7) 0.80058(14)
C1A C 0.9516(8) 0.5926(11) 0.8029(2)
C1B C 0.4074(11) 0.3590(8) 0.8029(2)
C2A C 0.9858(8) 0.6991(11) 0.83130(18)
C2B C 0.3009(11) 0.2867(8) 0.83130(18)
C3A C 1.1148(10) 0.8447(16) 0.8281(2)
C3B C 0.1553(16) 0.2701(13) 0.8281(2)
H2A H 1.1381 0.9165 0.8463
H2B H 0.0835 0.2216 0.8463
C4A C 1.2123(12) 0.8867(18) 0.7976(3)
C4B C 0.1133(18) 0.3256(14) 0.7976(3)
H3A H 1.2985 0.9849 0.7959
H3B H 0.0151 0.3136 0.7959
C5A C 1.1796(10) 0.7861(16) 0.7721(2)
C5B C 0.2139(16) 0.3935(12) 0.7721(2)
H4A H 1.2447 0.8118 0.7524
H4B H 0.1882 0.4329 0.7524
O2A O 0.7689(6) 0.5298(8) 0.86721(14)
O2B O 0.4702(8) 0.2391(6) 0.86721(14)
O3A O 0.9250(7) 0.7639(10) 0.88691(14)
O3B O 0.2361(10) 0.1611(7) 0.88691(14)
O3I O 0.5917(7) 0.4944(7) 0.72024(14)
O3J O 0.9028(10) 0.4083(7) 0.72024(14)
O3K O 0.5056(7) 0.0972(10) 0.72024(14)
C6A C 0.8862(8) 0.6619(11) 0.86404(18)
C6B C 0.3381(11) 0.2243(8) 0.86404(18)
loop_
_geom_bond_atom_site_label_1
_geom_bond_atom_site_label_2
_geom_bond_site_symmetry_1
_geom_bond_site_symmetry_2
Co1 O1 1_555 1_555
Na1 O1 1_555 1_555
N1 H1 1_555 1_555
O1 C1 1_555 1_555
C1 N1 1_555 1_555
C2 C1 1_555 1_555
C3 C2 1_555 1_555
H2 C3 1_555 1_555
C4 C3 1_555 1_555
H3 C4 1_555 1_555
C5 N1 1_555 1_555
H4 C5 1_555 1_555
O2 Co1 1_555 1_555
O3 C6 1_555 1_555
C6 C2 1_555 1_555
Na1O O3 1_555 1_555
Na1Q O3A 1_555 1_555
Na1P O3B 1_555 1_555
N1A H1A 1_555 1_555
N1B H1B 1_555 1_555
O1A Co1 1_555 1_555
O1B Co1 1_555 1_555
C1A N1A 1_555 1_555
C1B N1B 1_555 1_555
C2A C1A 1_555 1_555
C2B C1B 1_555 1_555
C3A C2A 1_555 1_555
C3B C2B 1_555 1_555
H2A C3A 1_555 1_555
H2B C3B 1_555 1_555
C4A C3A 1_555 1_555
C4B C3B 1_555 1_555
H3A C4A 1_555 1_555
H3B C4B 1_555 1_555
C5A N1A 1_555 1_555
C5B N1B 1_555 1_555
H4A C5A 1_555 1_555
H4B C5B 1_555 1_555
O2A Co1 1_555 1_555
O2B Co1 1_555 1_555
O3A C6A 1_555 1_555
O3B C6B 1_555 1_555
O3I Na1 1_555 1_555
O3J Na1 1_555 1_555
O3K Na1 1_555 1_555
C6A C2A 1_555 1_555
C6B C2B 1_555 1_555
Na1 O1A 1_555 1_555
Na1 O1B 1_555 1_555
C4 C5 1_555 1_555
O2 C6 1_555 1_555
O1A C1A 1_555 1_555
O1B C1B 1_555 1_555
C4A C5A 1_555 1_555
C4B C5B 1_555 1_555
O2A C6A 1_555 1_555
O2B C6B 1_555 1_555

#END
