
#######################################################################
#
#                 Cambridge Crystallographic Data Centre
#                                CCDC 
#
#######################################################################
#
# If this CIF has been generated from an entry in the Cambridge 
# Structural Database, then it will include bibliographic, chemical, 
# crystal, experimental, refinement or atomic coordinate data resulting 
# from the CCDC's data processing and validation procedures.
#
#######################################################################

data_ISEKOH
_symmetry_cell_setting           monoclinic
_symmetry_space_group_name_H-M   'P 21/n'
_symmetry_Int_Tables_number      14
_space_group_name_Hall           '-P 2yn'
loop_
_symmetry_equiv_pos_site_id
_symmetry_equiv_pos_as_xyz
1 x,y,z
2 1/2-x,1/2+y,1/2-z
3 -x,-y,-z
4 1/2+x,1/2-y,1/2+z
_cell_length_a                   9.716(3)
_cell_length_b                   25.147(6)
_cell_length_c                   20.340(4)
_cell_angle_alpha                90
_cell_angle_beta                 102.824(9)
_cell_angle_gamma                90
_cell_volume                     4845.68
loop_
_atom_site_label
_atom_site_type_symbol
_atom_site_fract_x
_atom_site_fract_y
_atom_site_fract_z
Zn1 Zn 0.39847(5) 0.376443(16) 0.57634(2)
Zn2 Zn 0.88224(5) 0.138230(16) 0.56848(2)
C1 C 0.4565(4) 0.26907(15) 0.6113(2)
C2 C 0.4305(4) 0.22006(13) 0.64876(17)
C3 C 0.3127(4) 0.21540(14) 0.67579(19)
H1 H 0.2510 0.2440 0.6732
C4 C 0.2852(4) 0.16928(14) 0.70629(17)
H2 H 0.2026 0.1664 0.7219
C5 C 0.3790(4) 0.12662(13) 0.71428(18)
C6 C 0.4983(5) 0.13149(14) 0.68824(19)
H3 H 0.5630 0.1037 0.6935
C7 C 0.5229(4) 0.17716(14) 0.65445(18)
H4 H 0.6015 0.1792 0.6355
C8 C 0.3514(4) 0.07892(14) 0.75248(18)
C9 C 0.2165(5) 0.05944(15) 0.7464(2)
H5 H 0.1425 0.0741 0.7146
C10 C 0.1901(5) 0.01835(15) 0.78709(19)
H6 H 0.0985 0.0055 0.7818
C11 C 0.2968(4) -0.00393(14) 0.83533(18)
C12 C 0.2667(5) -0.04558(15) 0.8830(2)
C13 C 0.4316(5) 0.01474(15) 0.8403(2)
H7 H 0.5054 0.0002 0.8723
C14 C 0.4596(4) 0.05481(14) 0.7985(2)
H8 H 0.5522 0.0657 0.8015
C15 C 0.7206(5) 0.05228(14) 0.5980(2)
C16 C 0.6900(4) 0.00965(13) 0.64475(17)
C17 C 0.5611(4) -0.01526(15) 0.6322(2)
H9 H 0.4920 -0.0054 0.5948
C18 C 0.5325(4) -0.05496(15) 0.6745(2)
H10 H 0.4429 -0.0700 0.6665
C19 C 0.6353(4) -0.07258(13) 0.72849(17)
C20 C 0.7646(5) -0.04768(16) 0.7407(2)
H11 H 0.8354 -0.0584 0.7770
C21 C 0.7901(4) -0.00661(16) 0.69944(19)
H12 H 0.8775 0.0103 0.7092
C22 C 0.6114(4) -0.11919(13) 0.76950(17)
C23 C 0.4920(4) -0.12375(13) 0.79586(18)
H13 H 0.4240 -0.0971 0.7875
C24 C 0.4721(4) -0.16740(13) 0.83454(18)
H14 H 0.3938 -0.1689 0.8538
C25 C 0.5687(4) -0.20863(13) 0.84449(17)
C26 C 0.5506(4) -0.25570(14) 0.88790(19)
C27 C 0.6863(4) -0.20514(14) 0.81662(18)
H15 H 0.7504 -0.2331 0.8218
C28 C 0.7089(4) -0.16018(14) 0.78106(17)
H16 H 0.7907 -0.1575 0.7647
C29 C 0.6761(5) 0.37452(17) 0.5410(2)
H17 H 0.6752 0.3375 0.5402
C30 C 0.6230(6) 0.45535(17) 0.5552(2)
H18 H 0.5768 0.4853 0.5664
C31 C 0.7390(6) 0.45618(19) 0.5299(2)
H19 H 0.7871 0.4862 0.5204
C32 C 0.8802(5) 0.38420(19) 0.4876(2)
H20 H 0.9285 0.3545 0.5131
H21 H 0.9494 0.4118 0.4864
C33 C 0.8155(5) 0.36648(17) 0.4169(2)
H22 H 0.7575 0.3946 0.3924
H23 H 0.8888 0.3577 0.3932
C34 C 0.6470(5) 0.30534(18) 0.3596(2)
H24 H 0.7054 0.2948 0.3289
H25 H 0.5869 0.3345 0.3395
C35 C 0.5582(5) 0.25897(19) 0.3731(2)
H26 H 0.5008 0.2699 0.4041
H27 H 0.4953 0.2481 0.3312
C36 C 0.6858(4) 0.20328(16) 0.46736(19)
H28 H 0.6543 0.2216 0.5009
C37 C 0.7939(5) 0.14867(18) 0.4160(2)
H29 H 0.8519 0.1212 0.4078
C38 C 0.7154(5) 0.18009(18) 0.3686(2)
H30 H 0.7097 0.1787 0.3223
C39 C 0.1954(4) 0.31648(17) 0.4719(2)
H31 H 0.1602 0.2984 0.5046
C40 C 0.3132(5) 0.37028(17) 0.4234(2)
H32 H 0.3745 0.3971 0.4166
C41 C 0.2333(5) 0.34040(19) 0.3747(2)
H33 H 0.2307 0.3423 0.3287
C42 C 0.0635(5) 0.26403(19) 0.3737(2)
H34 H 0.0022 0.2772 0.3326
H35 H 0.0045 0.2528 0.4039
C43 C 0.1449(5) 0.21707(19) 0.3570(2)
H36 H 0.0807 0.1895 0.3355
H37 H 0.2039 0.2275 0.3265
C44 C 0.3070(5) 0.15129(17) 0.4118(2)
H38 H 0.3823 0.1593 0.3890
H39 H 0.2457 0.1247 0.3858
C45 C 0.3674(5) 0.13088(18) 0.4818(2)
H40 H 0.4343 0.1026 0.4797
H41 H 0.4176 0.1594 0.5092
C46 C 0.1602(5) 0.14030(16) 0.5334(2)
H42 H 0.1603 0.1773 0.5338
C47 C 0.1068(5) 0.05884(16) 0.5455(2)
H43 H 0.0614 0.0285 0.5560
C48 C 0.2236(5) 0.05923(18) 0.5205(2)
H44 H 0.2724 0.0297 0.5103
N1 N 0.5826(4) 0.40374(13) 0.56234(16)
N2 N 0.7727(4) 0.40445(14) 0.52071(17)
N3 N 0.6463(4) 0.21409(14) 0.40169(17)
N4 N 0.7753(4) 0.16335(12) 0.47855(15)
N5 N 0.2901(4) 0.35496(13) 0.48495(16)
N6 N 0.1566(4) 0.30682(14) 0.40536(17)
N7 N 0.2567(4) 0.11077(14) 0.51298(16)
N8 N 0.0645(4) 0.11070(12) 0.55300(15)
O1 O 0.5223(3) 0.26775(10) 0.56728(14)
O2 O 0.3986(3) 0.31207(10) 0.62940(12)
O3 O 0.3505(4) -0.05447(13) 0.93517(17)
O4 O 0.1491(4) -0.06916(11) 0.86433(14)
O5 O 0.7319(3) 0.32108(11) 0.42162(13)
O6 O 0.2290(3) 0.19820(11) 0.41820(14)
O7 O 0.6542(3) 0.05420(11) 0.53936(14)
O8 O 0.8205(3) 0.08415(10) 0.62328(13)
O9 O 0.6100(3) -0.29934(9) 0.87385(12)
O10 O 0.4849(3) -0.25129(10) 0.93238(14)
Zn1A Zn 0.10153(5) -0.123557(16) 0.92366(2)
Zn2_2 Zn -0.11776(5) 0.138230(16) 0.56848(2)
Zn2A Zn 0.61776(5) -0.361770(16) 0.93152(2)
N8_2 N 1.0645(4) 0.11070(12) 0.55300(15)
O4A O 0.3509(4) 0.43084(11) 0.63567(14)
O9A O 0.8900(3) 0.20066(9) 0.62615(12)
O11 O 0.1008(5) 0.86084(18) 0.74246(18)
H45 H 0.101(8) 0.8953(6) 0.753(3)
H46 H 0.115(8) 0.8422(18) 0.7807(16)
O12 O -0.1196(5) 0.14494(17) 0.74669(15)
H47 H -0.143(7) 0.1158(10) 0.722(2)
H48 H -0.132(7) 0.1729(11) 0.720(2)
loop_
_geom_bond_atom_site_label_1
_geom_bond_atom_site_label_2
_geom_bond_site_symmetry_1
_geom_bond_site_symmetry_2
Zn1 N1 1_555 1_555
Zn2 N4 1_555 1_555
C1 C2 1_555 1_555
C2 C3 1_555 1_555
C3 H1 1_555 1_555
C4 C3 1_555 1_555
H2 C4 1_555 1_555
C5 C4 1_555 1_555
C6 C5 1_555 1_555
H3 C6 1_555 1_555
C7 C2 1_555 1_555
H4 C7 1_555 1_555
C8 C5 1_555 1_555
C9 C8 1_555 1_555
H5 C9 1_555 1_555
C10 C9 1_555 1_555
H6 C10 1_555 1_555
C11 C10 1_555 1_555
C12 C11 1_555 1_555
C13 C11 1_555 1_555
H7 C13 1_555 1_555
C14 C8 1_555 1_555
H8 C14 1_555 1_555
C15 C16 1_555 1_555
C16 C17 1_555 1_555
C17 H9 1_555 1_555
C18 C17 1_555 1_555
H10 C18 1_555 1_555
C19 C18 1_555 1_555
C20 C19 1_555 1_555
H11 C20 1_555 1_555
C21 C16 1_555 1_555
H12 C21 1_555 1_555
C22 C19 1_555 1_555
C23 C22 1_555 1_555
H13 C23 1_555 1_555
C24 C23 1_555 1_555
H14 C24 1_555 1_555
C25 C24 1_555 1_555
C26 C25 1_555 1_555
C27 C25 1_555 1_555
H15 C27 1_555 1_555
C28 C22 1_555 1_555
H16 C28 1_555 1_555
C29 H17 1_555 1_555
C30 H18 1_555 1_555
C31 C30 1_555 1_555
H19 C31 1_555 1_555
C32 H20 1_555 1_555
H21 C32 1_555 1_555
C33 C32 1_555 1_555
H22 C33 1_555 1_555
H23 C33 1_555 1_555
C34 H24 1_555 1_555
H25 C34 1_555 1_555
C35 C34 1_555 1_555
H26 C35 1_555 1_555
H27 C35 1_555 1_555
C36 H28 1_555 1_555
C37 H29 1_555 1_555
C38 C37 1_555 1_555
H30 C38 1_555 1_555
C39 H31 1_555 1_555
C40 H32 1_555 1_555
C41 C40 1_555 1_555
H33 C41 1_555 1_555
C42 H34 1_555 1_555
H35 C42 1_555 1_555
C43 C42 1_555 1_555
H36 C43 1_555 1_555
H37 C43 1_555 1_555
C44 H38 1_555 1_555
H39 C44 1_555 1_555
C45 C44 1_555 1_555
H40 C45 1_555 1_555
H41 C45 1_555 1_555
C46 H42 1_555 1_555
C47 H43 1_555 1_555
C48 C47 1_555 1_555
H44 C48 1_555 1_555
N1 C29 1_555 1_555
N2 C29 1_555 1_555
N3 C35 1_555 1_555
N4 C36 1_555 1_555
N5 Zn1 1_555 1_555
N6 C39 1_555 1_555
N7 C45 1_555 1_555
N8 C46 1_555 1_555
O1 C1 1_555 1_555
O2 Zn1 1_555 1_555
O3 C12 1_555 1_555
O4 C12 1_555 1_555
O5 C33 1_555 1_555
O6 C43 1_555 1_555
O7 C15 1_555 1_555
O8 Zn2 1_555 1_555
O9 C26 1_555 1_555
O10 C26 1_555 1_555
O11 H45 1_555 1_555
H46 O11 1_555 1_555
O12 H47 1_555 1_555
H48 O12 1_555 1_555
Zn1A O4 1_555 1_555
Zn2_2 N8 1_555 1_555
Zn2A O9 1_555 1_555
N8_2 Zn2 1_555 1_555
O4A Zn1 1_555 1_555
O9A Zn2 1_555 1_555
C1 O2 1_555 1_555
C6 C7 1_555 1_555
C13 C14 1_555 1_555
C15 O8 1_555 1_555
C20 C21 1_555 1_555
C27 C28 1_555 1_555
C30 N1 1_555 1_555
C31 N2 1_555 1_555
C32 N2 1_555 1_555
C34 O5 1_555 1_555
C36 N3 1_555 1_555
C37 N4 1_555 1_555
C38 N3 1_555 1_555
C39 N5 1_555 1_555
C40 N5 1_555 1_555
C41 N6 1_555 1_555
C42 N6 1_555 1_555
C44 O6 1_555 1_555
C46 N7 1_555 1_555
C47 N8 1_555 1_555
C48 N7 1_555 1_555

#END
