
#######################################################################
#
#                 Cambridge Crystallographic Data Centre
#                                CCDC 
#
#######################################################################
#
# If this CIF has been generated from an entry in the Cambridge 
# Structural Database, then it will include bibliographic, chemical, 
# crystal, experimental, refinement or atomic coordinate data resulting 
# from the CCDC's data processing and validation procedures.
#
#######################################################################

data_ISEKUN
_symmetry_cell_setting           monoclinic
_symmetry_space_group_name_H-M   'P 21/n'
_symmetry_Int_Tables_number      14
_space_group_name_Hall           '-P 2yn'
loop_
_symmetry_equiv_pos_site_id
_symmetry_equiv_pos_as_xyz
1 x,y,z
2 1/2-x,1/2+y,1/2-z
3 -x,-y,-z
4 1/2+x,1/2-y,1/2+z
_cell_length_a                   17.704(5)
_cell_length_b                   11.517(3)
_cell_length_c                   26.168(7)
_cell_angle_alpha                90
_cell_angle_beta                 105.041(4)
_cell_angle_gamma                90
_cell_volume                     5152.78
loop_
_atom_site_label
_atom_site_type_symbol
_atom_site_fract_x
_atom_site_fract_y
_atom_site_fract_z
C1 C 0.4243(3) -0.1350(5) 0.2700(2)
H1 H 0.4654 -0.1663 0.2584
C2 C 0.3657(3) -0.2089(5) 0.2774(2)
H2 H 0.3691 -0.2882 0.2716
C3 C 0.3037(3) -0.1661(4) 0.2931(2)
H3 H 0.2637 -0.2147 0.2973
C4 C 0.3017(3) -0.0464(4) 0.30274(18)
C5 C 0.3643(3) 0.0229(4) 0.29620(18)
C6 C 0.3675(3) 0.1460(4) 0.30858(19)
C7 C 0.4341(4) 0.3187(5) 0.3137(3)
H4 H 0.4765 0.3608 0.3086
C8 C 0.3784(4) 0.3769(5) 0.3328(3)
H5 H 0.3840 0.4556 0.3410
C9 C 0.3163(4) 0.3174(5) 0.3392(3)
H6 H 0.2785 0.3547 0.3521
C10 C 0.3084(3) 0.1995(4) 0.3265(2)
C11 C 0.2435(3) 0.1279(4) 0.3310(2)
C12 C 0.2404(3) 0.0126(4) 0.31951(19)
C13 C 0.1359(3) 0.0675(5) 0.3414(2)
C14 C 0.0577(4) 0.0588(5) 0.3521(3)
C15 C 0.0469(4) 0.0610(7) 0.4016(4)
C16 C -0.0258(7) 0.0428(9) 0.4120(5)
H7 H -0.0304 0.0392 0.4466
C17 C -0.0887(6) 0.0306(12) 0.3710(7)
H8 H -0.1378 0.0210 0.3771
C18 C -0.0818(6) 0.0320(10) 0.3223(6)
H9 H -0.1269 0.0254 0.2947
C19 C -0.0092(4) 0.0432(7) 0.3097(5)
C20 C 0.8336(4) 0.2557(6) 0.1220(3)
H10 H 0.7852 0.2657 0.1291
C21 C 0.8648(5) 0.1462(7) 0.1252(3)
H11 H 0.8379 0.0839 0.1347
C22 C 0.9347(4) 0.1287(6) 0.1145(3)
H12 H 0.9559 0.0545 0.1165
C23 C 0.9748(3) 0.2229(5) 0.1004(2)
C24 C 0.9396(3) 0.3325(4) 0.09871(19)
C25 C 0.9785(3) 0.4347(4) 0.08507(16)
C26 C 0.9777(3) 0.6332(5) 0.0734(2)
H13 H 0.9541 0.7049 0.0748
C27 C 1.0461(3) 0.6306(4) 0.0579(2)
H14 H 1.0667 0.6987 0.0480
C28 C 1.0837(3) 0.5273(4) 0.05708(19)
H15 H 1.1307 0.5243 0.0475
C29 C 1.0499(3) 0.4260(4) 0.07096(17)
C30 C 1.0826(3) 0.3116(4) 0.07226(19)
C31 C 1.0483(3) 0.2151(4) 0.0874(2)
C32 C 1.1542(4) 0.1588(5) 0.0716(2)
C33 C 1.2197(4) 0.0838(5) 0.0664(3)
C34 C 1.2313(5) 0.0529(6) 0.0169(3)
C35 C 1.2907(6) -0.0238(7) 0.0129(5)
H16 H 1.2977 -0.0451 -0.0198
C36 C 1.3390(5) -0.0669(8) 0.0598(6)
H17 H 1.3787 -0.1186 0.0581
C37 C 1.3300(5) -0.0365(7) 0.1064(4)
H18 H 1.3636 -0.0670 0.1368
C38 C 1.2728(4) 0.0386(5) 0.1111(3)
C39 C 0.2798(3) 0.3784(5) -0.0158(2)
C40 C 0.3488(3) 0.3099(5) 0.01469(19)
C41 C 0.4015(4) 0.2625(6) -0.0108(2)
H19 H 0.3938 0.2740 -0.0470
C42 C 0.4647(4) 0.1992(7) 0.0164(3)
H20 H 0.5002 0.1701 -0.0010
C43 C 0.4756(4) 0.1787(6) 0.0695(2)
H21 H 0.5176 0.1338 0.0877
C44 C 0.4243(3) 0.2246(5) 0.0961(2)
C45 C 0.4370(3) 0.2017(5) 0.1542(2)
C46 C 0.3617(3) 0.2897(4) 0.06850(19)
H22 H 0.3273 0.3208 0.0863
C47 C 0.8316(3) 0.4615(5) 0.2195(2)
C48 C 0.8126(3) 0.4187(5) 0.2689(2)
C49 C 0.8654(4) 0.4374(8) 0.3178(2)
H23 H 0.9122 0.4761 0.3196
C50 C 0.8483(5) 0.3982(9) 0.3640(3)
H24 H 0.8838 0.4094 0.3967
C51 C 0.7774(4) 0.3418(7) 0.3606(2)
H25 H 0.7649 0.3173 0.3913
C52 C 0.7257(3) 0.3223(5) 0.3120(2)
C53 C 0.7434(3) 0.3637(4) 0.2668(2)
H26 H 0.7073 0.3539 0.2343
C54 C 0.6500(3) 0.2585(5) 0.3081(2)
N1 N 0.4235(2) -0.0210(4) 0.27897(16)
N2 N 0.4303(2) 0.2076(4) 0.30237(16)
N3 N 0.1767(3) 0.1638(4) 0.3445(2)
N4 N 0.1707(2) -0.0256(4) 0.32668(17)
H27 H 0.1528 -0.0953 0.3226
N5 N 0.8689(3) 0.3457(4) 0.10957(18)
N6 N 0.9433(2) 0.5392(4) 0.08654(15)
N7 N 1.1502(3) 0.2743(3) 0.06165(17)
H28 H 1.1834 0.3157 0.0509
N8 N 1.0942(3) 0.1188(4) 0.0873(2)
O1 O 0.2808(2) 0.4095(4) -0.06234(14)
O2 O 0.2249(2) 0.4026(4) 0.00421(16)
O3 O 0.4033(2) 0.2618(3) 0.18123(14)
O4 O 0.4823(2) 0.1178(3) 0.17278(14)
O5 O 0.7758(2) 0.4761(4) 0.17980(14)
O6 O 0.9014(2) 0.4782(3) 0.21904(14)
O7 O 0.6372(2) 0.2156(3) 0.34984(15)
O8 O 0.6032(2) 0.2493(4) 0.26329(16)
Cd1 Cd 0.50912(2) 0.12090(3) 0.259007(14)
Cd2 Cd 0.82961(2) 0.53767(3) 0.114460(14)
Cl1 Cl 1.17149(18) 0.1126(2) -0.03830(10)
Cl2 Cl 0.1175(2) 0.0892(3) 0.45085(14)
F1 F 1.2664(2) 0.0685(3) 0.16123(15)
F2 F -0.0072(2) 0.0571(3) 0.25131(13)
O1B O 0.7192(2) 0.5905(4) 0.06234(14)
O6A O 0.5986(2) -0.0218(3) 0.28096(14)
O7A O 0.8628(2) 0.7156(3) 0.15016(15)
Cd1A Cd 0.99088(2) 0.62090(3) 0.240993(14)
Cd2B Cd 0.17039(2) 0.46233(3) -0.114460(14)
Cd2A Cd 0.67039(2) 0.03767(3) 0.385540(14)
O9 O 0.4650(16) -0.5981(14) 0.4674(8)
loop_
_geom_bond_atom_site_label_1
_geom_bond_atom_site_label_2
_geom_bond_site_symmetry_1
_geom_bond_site_symmetry_2
C1 H1 1_555 1_555
C2 C1 1_555 1_555
H2 C2 1_555 1_555
C3 C2 1_555 1_555
H3 C3 1_555 1_555
C4 C3 1_555 1_555
C5 C4 1_555 1_555
C6 C5 1_555 1_555
C7 H4 1_555 1_555
C8 C7 1_555 1_555
H5 C8 1_555 1_555
C9 C8 1_555 1_555
H6 C9 1_555 1_555
C10 C6 1_555 1_555
C11 C10 1_555 1_555
C12 C4 1_555 1_555
C13 C14 1_555 1_555
C14 C15 1_555 1_555
C15 C16 1_555 1_555
C16 H7 1_555 1_555
C17 C16 1_555 1_555
H8 C17 1_555 1_555
C18 C17 1_555 1_555
H9 C18 1_555 1_555
C19 C14 1_555 1_555
C20 H10 1_555 1_555
C21 C20 1_555 1_555
H11 C21 1_555 1_555
C22 C21 1_555 1_555
H12 C22 1_555 1_555
C23 C22 1_555 1_555
C24 C23 1_555 1_555
C25 C24 1_555 1_555
C26 H13 1_555 1_555
C27 C26 1_555 1_555
H14 C27 1_555 1_555
C28 C27 1_555 1_555
H15 C28 1_555 1_555
C29 C25 1_555 1_555
C30 C29 1_555 1_555
C31 C23 1_555 1_555
C32 C33 1_555 1_555
C33 C34 1_555 1_555
C34 C35 1_555 1_555
C35 H16 1_555 1_555
C36 C35 1_555 1_555
H17 C36 1_555 1_555
C37 C36 1_555 1_555
H18 C37 1_555 1_555
C38 C33 1_555 1_555
C39 C40 1_555 1_555
C40 C41 1_555 1_555
C41 H19 1_555 1_555
C42 C41 1_555 1_555
H20 C42 1_555 1_555
C43 C42 1_555 1_555
H21 C43 1_555 1_555
C44 C43 1_555 1_555
C45 C44 1_555 1_555
C46 C40 1_555 1_555
H22 C46 1_555 1_555
C47 C48 1_555 1_555
C48 C49 1_555 1_555
C49 H23 1_555 1_555
C50 C49 1_555 1_555
H24 C50 1_555 1_555
C51 C50 1_555 1_555
H25 C51 1_555 1_555
C52 C51 1_555 1_555
C53 C48 1_555 1_555
H26 C53 1_555 1_555
C54 C52 1_555 1_555
N1 C1 1_555 1_555
N2 C6 1_555 1_555
N3 C11 1_555 1_555
N4 C12 1_555 1_555
H27 N4 1_555 1_555
N5 C20 1_555 1_555
N6 C25 1_555 1_555
N7 C30 1_555 1_555
H28 N7 1_555 1_555
N8 C31 1_555 1_555
O1 C39 1_555 1_555
O2 C39 1_555 1_555
O3 C45 1_555 1_555
O4 C45 1_555 1_555
O5 C47 1_555 1_555
O6 C47 1_555 1_555
O7 C54 1_555 1_555
O8 C54 1_555 1_555
Cd1 N1 1_555 1_555
Cd2 N5 1_555 1_555
Cl1 C34 1_555 1_555
Cl2 C15 1_555 1_555
F1 C38 1_555 1_555
F2 C19 1_555 1_555
O1B Cd2 1_555 1_555
O6A Cd1 1_555 1_555
O7A Cd2 1_555 1_555
Cd1A O6 1_555 1_555
Cd2B O1 1_555 1_555
Cd2A O7 1_555 1_555
C5 N1 1_555 1_555
C7 N2 1_555 1_555
C9 C10 1_555 1_555
C11 C12 1_555 1_555
C13 N3 1_555 1_555
C13 N4 1_555 1_555
C18 C19 1_555 1_555
C24 N5 1_555 1_555
C26 N6 1_555 1_555
C28 C29 1_555 1_555
C30 C31 1_555 1_555
C32 N7 1_555 1_555
C32 N8 1_555 1_555
C37 C38 1_555 1_555
C44 C46 1_555 1_555
C52 C53 1_555 1_555
N2 Cd1 1_555 1_555
N6 Cd2 1_555 1_555
O4 Cd1 1_555 1_555
O5 Cd2 1_555 1_555
O8 Cd1 1_555 1_555

#END
