
#######################################################################
#
#                 Cambridge Crystallographic Data Centre
#                                CCDC 
#
#######################################################################
#
# If this CIF has been generated from an entry in the Cambridge 
# Structural Database, then it will include bibliographic, chemical, 
# crystal, experimental, refinement or atomic coordinate data resulting 
# from the CCDC's data processing and validation procedures.
#
#######################################################################

data_ISELAU
_symmetry_cell_setting           orthorhombic
_symmetry_space_group_name_H-M   'I m a 2'
_symmetry_Int_Tables_number      46
_space_group_name_Hall           'I 2 -2a'
loop_
_symmetry_equiv_pos_site_id
_symmetry_equiv_pos_as_xyz
1 x,y,z
2 -x,-y,z
3 1/2+x,-y,z
4 1/2-x,y,z
5 1/2+x,1/2+y,1/2+z
6 1/2-x,1/2-y,1/2+z
7 x,1/2-y,1/2+z
8 -x,1/2+y,1/2+z
_cell_length_a                   21.269(11)
_cell_length_b                   7.817(4)
_cell_length_c                   11.698(6)
_cell_angle_alpha                90
_cell_angle_beta                 90
_cell_angle_gamma                90
_cell_volume                     1944.91
loop_
_atom_site_label
_atom_site_type_symbol
_atom_site_fract_x
_atom_site_fract_y
_atom_site_fract_z
Co1 Co 0.5000 0.0000 0.50519(6)
C1 C 0.7500 0.4503(5) 0.9102(3)
H1 H 0.7500 0.5096 0.9791
C2 C 0.69414(13) 0.4064(3) 0.8592(2)
H2 H 0.6564 0.4356 0.8942
C3 C 0.69328(12) 0.3187(3) 0.7558(2)
C4 C 0.7500 0.2768(5) 0.7046(3)
H3 H 0.7500 0.2198 0.6348
C5 C 0.63365(12) 0.2732(4) 0.7011(2)
C6 C 0.61716(13) 0.1477(4) 0.6258(2)
H4 H 0.6448 0.0675 0.5953
C7 C 0.53231(14) 0.2862(4) 0.6623(3)
H5 H 0.4906 0.3217 0.6627
C8 C 0.28271(14) 0.3151(4) 0.2599(3)
H6 H 0.3043 0.2745 0.1963
C9 C 0.31606(13) 0.3743(4) 0.3529(3)
C10 C 0.28232(13) 0.4341(4) 0.4462(3)
H7 H 0.3038 0.4749 0.5099
C11 C 0.38679(14) 0.3727(5) 0.3524(3)
H8 H 0.4019 0.4857 0.3729
H9 H 0.4012 0.3484 0.2754
C12 C 0.41591(13) 0.2412(4) 0.4344(3)
N1 N 0.55410(11) 0.1561(3) 0.6013(2)
N2 N 0.57819(10) 0.3600(3) 0.7231(2)
H10 H 0.5740 0.4462 0.7680
O1 O 0.44994(10) 0.1237(3) 0.38769(17)
O2 O 0.40737(10) 0.2495(3) 0.53691(19)
Co1B Co 1.0000 0.0000 0.50519(6)
Co1B_2 Co 0.0000 0.0000 0.50519(6)
C2C C 0.80586(13) 0.4064(3) 0.8592(2)
H2C H 0.8436 0.4356 0.8942
C3C C 0.80672(12) 0.3187(3) 0.7558(2)
C5C C 0.86635(12) 0.2732(4) 0.7011(2)
C6C C 0.88284(13) 0.1477(4) 0.6258(2)
H4C H 0.8552 0.0675 0.5953
C7C C 0.96769(14) 0.2862(4) 0.6623(3)
H5C H 1.0094 0.3217 0.6627
C8C C 0.21729(14) 0.3151(4) 0.2599(3)
H6C H 0.1957 0.2745 0.1963
C9C C 0.18394(13) 0.3743(4) 0.3529(3)
C10C C 0.21768(13) 0.4341(4) 0.4462(3)
H7C H 0.1962 0.4749 0.5099
C11C C 0.11321(14) 0.3727(5) 0.3524(3)
H8C H 0.0981 0.4857 0.3729
H9C H 0.0988 0.3484 0.2754
C12C C 0.08409(13) 0.2412(4) 0.4344(3)
N1C N 0.94590(11) 0.1561(3) 0.6013(2)
N1A N 0.44590(11) -0.1561(3) 0.6013(2)
N2C N 0.92181(10) 0.3600(3) 0.7231(2)
H10C H 0.9260 0.4462 0.7680
O1C O 0.05006(10) 0.1237(3) 0.38769(17)
O1A O 0.55006(10) -0.1237(3) 0.38769(17)
O2C O 0.09263(10) 0.2495(3) 0.53691(19)
loop_
_geom_bond_atom_site_label_1
_geom_bond_atom_site_label_2
_geom_bond_site_symmetry_1
_geom_bond_site_symmetry_2
Co1 N1 1_555 1_555
C1 H1 1_555 1_555
C2 C1 1_555 1_555
H2 C2 1_555 1_555
C3 C2 1_555 1_555
C4 C3 1_555 1_555
H3 C4 1_555 1_555
C5 C3 1_555 1_555
C6 C5 1_555 1_555
H4 C6 1_555 1_555
C7 H5 1_555 1_555
C8 H6 1_555 1_555
C9 C8 1_555 1_555
C10 C9 1_555 1_555
H7 C10 1_555 1_555
C11 C9 1_555 1_555
H8 C11 1_555 1_555
H9 C11 1_555 1_555
C12 C11 1_555 1_555
N1 C6 1_555 1_555
N2 C5 1_555 1_555
H10 N2 1_555 1_555
O1 Co1 1_555 1_555
O2 C12 1_555 1_555
Co1B N1C 1_555 1_555
Co1B_2 O1C 1_555 1_555
C2C C1 1_555 1_555
H2C C2C 1_555 1_555
C3C C4 1_555 1_555
C5C C3C 1_555 1_555
C6C C5C 1_555 1_555
H4C C6C 1_555 1_555
C7C H5C 1_555 1_555
C8C C8 1_555 1_555
H6C C8C 1_555 1_555
C9C C8C 1_555 1_555
C10C C10 1_555 1_555
H7C C10C 1_555 1_555
C11C C9C 1_555 1_555
H8C C11C 1_555 1_555
H9C C11C 1_555 1_555
C12C C11C 1_555 1_555
N1C C6C 1_555 1_555
N1A Co1 1_555 1_555
N2C C5C 1_555 1_555
H10C N2C 1_555 1_555
O1C C12C 1_555 1_555
O1A Co1 1_555 1_555
O2C C12C 1_555 1_555
C7 N1 1_555 1_555
C7 N2 1_555 1_555
C12 O1 1_555 1_555
C2C C3C 1_555 1_555
C7C N1C 1_555 1_555
C7C N2C 1_555 1_555
C9C C10C 1_555 1_555

#END
