
#######################################################################
#
#                 Cambridge Crystallographic Data Centre
#                                CCDC 
#
#######################################################################
#
# If this CIF has been generated from an entry in the Cambridge 
# Structural Database, then it will include bibliographic, chemical, 
# crystal, experimental, refinement or atomic coordinate data resulting 
# from the CCDC's data processing and validation procedures.
#
#######################################################################

data_ISEMAV
_symmetry_cell_setting           orthorhombic
_symmetry_space_group_name_H-M   'P b c a'
_symmetry_Int_Tables_number      61
_space_group_name_Hall           '-P 2ac 2ab'
loop_
_symmetry_equiv_pos_site_id
_symmetry_equiv_pos_as_xyz
1 x,y,z
2 1/2-x,-y,1/2+z
3 -x,1/2+y,1/2-z
4 1/2+x,1/2-y,-z
5 -x,-y,-z
6 1/2+x,y,1/2-z
7 x,1/2-y,1/2+z
8 1/2-x,1/2+y,z
_cell_length_a                   7.3872(5)
_cell_length_b                   15.3323(9)
_cell_length_c                   23.1195(14)
_cell_angle_alpha                90
_cell_angle_beta                 90
_cell_angle_gamma                90
_cell_volume                     2618.58
loop_
_atom_site_label
_atom_site_type_symbol
_atom_site_fract_x
_atom_site_fract_y
_atom_site_fract_z
Mn1 Mn 0.49606(3) 0.302652(16) 0.224008(10)
C1 C 0.8953(2) 0.19231(9) 0.09972(7)
C2 C 0.7964(2) 0.12479(10) 0.07396(7)
C3 C 0.8434(3) 0.09850(13) 0.01838(8)
H1 H 0.7791 0.0534 0.0010
C4 C 0.9829(3) 0.13759(16) -0.01177(8)
H2 H 1.0106 0.1196 -0.0492
C5 C 1.0808(3) 0.20349(13) 0.01409(8)
H3 H 1.1761 0.2297 -0.0056
C6 C 1.0372(2) 0.23051(12) 0.06918(8)
H4 H 1.1038 0.2751 0.0863
C7 C 0.6503(2) 0.07638(10) 0.10433(7)
C8 C 0.4788(2) 0.06649(13) 0.07997(8)
H5 H 0.4522 0.0939 0.0451
C9 C 0.3474(2) 0.01628(12) 0.10709(7)
H6 H 0.2334 0.0106 0.0904
C10 C 0.3853(2) -0.02535(10) 0.15875(7)
C11 C 0.5513(3) -0.01162(14) 0.18426(9)
H7 H 0.5753 -0.0361 0.2202
C12 C 0.6829(2) 0.03805(13) 0.15728(9)
H8 H 0.7947 0.0457 0.1751
C13 C 0.2501(2) -0.08407(10) 0.18655(7)
C14 C 0.8462(2) 0.22899(10) 0.15797(7)
O1 O 0.68472(14) 0.24483(8) 0.16781(5)
O2 O 0.97432(14) 0.24265(9) 0.19268(6)
O3 O 0.29163(15) -0.12543(7) 0.23249(5)
O4 O 0.09540(16) -0.09298(8) 0.16526(5)
O5 O 0.32642(18) 0.20027(10) 0.18803(8)
H9 H 0.209(3) 0.2056(18) 0.1852(12)
H10 H 0.359(3) 0.1752(18) 0.1594(10)
Mn1E Mn 0.99606(3) 0.302652(16) 0.275992(10)
Mn1B Mn 0.50394(3) -0.197348(16) 0.275992(10)
Mn1G Mn 0.00394(3) -0.197348(16) 0.224008(10)
O2E O 0.47432(14) 0.24265(9) 0.30732(6)
O3B O 0.70837(15) 0.37457(7) 0.26751(5)
O3G O 0.20837(15) 0.37457(7) 0.23249(5)
O4G O 0.40460(16) 0.40702(8) 0.16526(5)
loop_
_geom_bond_atom_site_label_1
_geom_bond_atom_site_label_2
_geom_bond_site_symmetry_1
_geom_bond_site_symmetry_2
Mn1 O1 1_555 1_555
C1 C2 1_555 1_555
C2 C3 1_555 1_555
C3 H1 1_555 1_555
C4 C3 1_555 1_555
H2 C4 1_555 1_555
C5 C4 1_555 1_555
H3 C5 1_555 1_555
C6 C1 1_555 1_555
H4 C6 1_555 1_555
C7 C2 1_555 1_555
C8 C7 1_555 1_555
H5 C8 1_555 1_555
C9 C8 1_555 1_555
H6 C9 1_555 1_555
C10 C9 1_555 1_555
C11 C10 1_555 1_555
H7 C11 1_555 1_555
C12 C7 1_555 1_555
H8 C12 1_555 1_555
C13 C10 1_555 1_555
C14 C1 1_555 1_555
O1 C14 1_555 1_555
O2 C14 1_555 1_555
O3 C13 1_555 1_555
O4 C13 1_555 1_555
O5 Mn1 1_555 1_555
H9 O5 1_555 1_555
H10 O5 1_555 1_555
Mn1E O2 1_555 1_555
Mn1B O3 1_555 1_555
Mn1G O3 1_555 1_555
O2E Mn1 1_555 1_555
O3B Mn1 1_555 1_555
O3G Mn1 1_555 1_555
O4G Mn1 1_555 1_555
C5 C6 1_555 1_555
C11 C12 1_555 1_555
O4 Mn1G 1_555 1_555
Mn1E O3B 1_555 1_555

#END
