
#######################################################################
#
#                 Cambridge Crystallographic Data Centre
#                                CCDC 
#
#######################################################################
#
# If this CIF has been generated from an entry in the Cambridge 
# Structural Database, then it will include bibliographic, chemical, 
# crystal, experimental, refinement or atomic coordinate data resulting 
# from the CCDC's data processing and validation procedures.
#
#######################################################################

data_ISENAW
_symmetry_cell_setting           monoclinic
_symmetry_space_group_name_H-M   'P 21/n'
_symmetry_Int_Tables_number      14
_space_group_name_Hall           '-P 2yn'
loop_
_symmetry_equiv_pos_site_id
_symmetry_equiv_pos_as_xyz
1 x,y,z
2 1/2-x,1/2+y,1/2-z
3 -x,-y,-z
4 1/2+x,1/2-y,1/2+z
_cell_length_a                   10.0945(10)
_cell_length_b                   15.3548(16)
_cell_length_c                   14.8526(15)
_cell_angle_alpha                90
_cell_angle_beta                 108.4390(10)
_cell_angle_gamma                90
_cell_volume                     2183.95
loop_
_atom_site_label
_atom_site_type_symbol
_atom_site_fract_x
_atom_site_fract_y
_atom_site_fract_z
Co1 Co 0.77312(3) 0.68793(2) 0.53256(3)
N1 N 0.8021(2) 0.60195(14) 0.63887(16)
N2 N 0.8123(3) 0.47680(15) 0.71203(17)
N3 N 1.2327(2) -0.13284(15) 0.90422(16)
N4 N 1.1954(3) -0.03429(16) 0.79247(18)
O1 O 0.61993(17) 0.77098(11) 0.52343(14)
O2 O 0.50243(18) 0.64644(12) 0.50424(14)
O3 O 0.03681(19) 0.64589(12) 0.54746(15)
O4 O -0.07056(16) 0.77097(11) 0.55190(13)
Br1 Br 0.24751(3) 1.033195(18) 0.48932(2)
C1 C 0.3827(2) 0.77669(16) 0.51554(18)
C2 C 0.2703(2) 0.73229(17) 0.52780(17)
H1 H 0.2737 0.6719 0.5334
C3 C 0.1528(2) 0.77643(16) 0.53188(17)
C4 C 0.1460(2) 0.86624(16) 0.52034(17)
H2 H 0.0668 0.8966 0.5214
C5 C 0.2577(2) 0.90973(17) 0.50727(17)
C6 C 0.3768(2) 0.86635(16) 0.50566(18)
H3 H 0.4521 0.8970 0.4980
C7 C 0.5093(3) 0.72629(19) 0.51322(19)
C8 C 0.0329(2) 0.72652(18) 0.54546(18)
C9 C 0.8974(4) 0.6074(2) 0.7273(2)
H4 H 0.9496 0.6567 0.7524
C10 C 0.9052(4) 0.5310(2) 0.7730(2)
H5 H 0.9624 0.5178 0.8341
C11 C 0.7530(3) 0.52199(18) 0.6330(2)
H6 H 0.6852 0.4997 0.5800
C12 C 0.8006(3) 0.38294(19) 0.7246(2)
H7 H 0.7169 0.3611 0.6775
H8 H 0.7931 0.3713 0.7870
C13 C 0.9285(3) 0.33645(18) 0.7140(2)
H9 H 0.9352 0.3487 0.6515
H10 H 1.0116 0.3595 0.7606
C14 C 0.9241(3) 0.23914(19) 0.7267(2)
H11 H 0.9105 0.2270 0.7872
H12 H 0.8447 0.2156 0.6772
C15 C 1.2658(3) -0.05495(19) 0.8821(2)
H13 H 1.3304 -0.0186 0.9238
C16 C 1.1111(4) -0.1042(2) 0.7546(2)
H14 H 1.0490 -0.1091 0.6934
C17 C 1.1364(3) -0.1636(2) 0.8237(2)
H15 H 1.0945 -0.2181 0.8177
C18 C 1.1895(4) 0.0523(2) 0.7506(2)
H16 H 1.2696 0.0861 0.7871
H17 H 1.1930 0.0471 0.6863
C19 C 1.0567(3) 0.09835(19) 0.7494(2)
H18 H 0.9779 0.0695 0.7043
H19 H 1.0453 0.0934 0.8117
C20 C 1.0550(3) 0.1938(2) 0.7233(2)
H20 H 1.0619 0.1988 0.6598
H21 H 1.1357 0.2224 0.7668
Co1C Co 1.27312(3) -0.18793(2) 1.03256(3)
Co1_2 Co -0.22688(3) 0.68793(2) 0.53256(3)
N3C N 0.7327(2) 0.63284(15) 0.40422(16)
O4_2 O 0.92944(16) 0.77097(11) 0.55190(13)
loop_
_geom_bond_atom_site_label_1
_geom_bond_atom_site_label_2
_geom_bond_site_symmetry_1
_geom_bond_site_symmetry_2
Co1 N1 1_555 1_555
N1 C9 1_555 1_555
N2 C10 1_555 1_555
N3 C15 1_555 1_555
N4 C15 1_555 1_555
O1 Co1 1_555 1_555
O2 C7 1_555 1_555
O3 C8 1_555 1_555
O4 C8 1_555 1_555
Br1 C5 1_555 1_555
C1 C2 1_555 1_555
C2 H1 1_555 1_555
C3 C2 1_555 1_555
C4 C3 1_555 1_555
H2 C4 1_555 1_555
C5 C4 1_555 1_555
C6 C1 1_555 1_555
H3 C6 1_555 1_555
C7 O1 1_555 1_555
C8 C3 1_555 1_555
C9 H4 1_555 1_555
C10 C9 1_555 1_555
H5 C10 1_555 1_555
C11 N1 1_555 1_555
H6 C11 1_555 1_555
C12 N2 1_555 1_555
H7 C12 1_555 1_555
H8 C12 1_555 1_555
C13 C12 1_555 1_555
H9 C13 1_555 1_555
H10 C13 1_555 1_555
C14 C13 1_555 1_555
H11 C14 1_555 1_555
H12 C14 1_555 1_555
C15 H13 1_555 1_555
C16 N4 1_555 1_555
H14 C16 1_555 1_555
C17 N3 1_555 1_555
H15 C17 1_555 1_555
C18 N4 1_555 1_555
H16 C18 1_555 1_555
H17 C18 1_555 1_555
C19 C18 1_555 1_555
H18 C19 1_555 1_555
H19 C19 1_555 1_555
C20 C14 1_555 1_555
H20 C20 1_555 1_555
H21 C20 1_555 1_555
Co1C N3 1_555 1_555
Co1_2 O4 1_555 1_555
N3C Co1 1_555 1_555
O4_2 Co1 1_555 1_555
N2 C11 1_555 1_555
C1 C7 1_555 1_555
C5 C6 1_555 1_555
C16 C17 1_555 1_555
C19 C20 1_555 1_555

#END
