
#######################################################################
#
#                 Cambridge Crystallographic Data Centre
#                                CCDC 
#
#######################################################################
#
# If this CIF has been generated from an entry in the Cambridge 
# Structural Database, then it will include bibliographic, chemical, 
# crystal, experimental, refinement or atomic coordinate data resulting 
# from the CCDC's data processing and validation procedures.
#
#######################################################################

data_ISEPUS
_symmetry_cell_setting           monoclinic
_symmetry_space_group_name_H-M   'P 21/m'
_symmetry_Int_Tables_number      11
_space_group_name_Hall           '-P 2yb'
loop_
_symmetry_equiv_pos_site_id
_symmetry_equiv_pos_as_xyz
1 x,y,z
2 -x,1/2+y,-z
3 -x,-y,-z
4 x,1/2-y,z
_cell_length_a                   9.834(2)
_cell_length_b                   17.914(4)
_cell_length_c                   15.605(3)
_cell_angle_alpha                90
_cell_angle_beta                 100.51(3)
_cell_angle_gamma                90
_cell_volume                     2702.95
loop_
_atom_site_label
_atom_site_type_symbol
_atom_site_fract_x
_atom_site_fract_y
_atom_site_fract_z
C1 C 0.1443(9) -0.1029(5) 1.1107(6)
H1 H 0.1743 -0.1316 1.0680
C2 C 0.0141(9) -0.1186(5) 1.1310(6)
H2 H -0.0399 -0.1569 1.1025
C3 C -0.0324(9) -0.0770(5) 1.1929(6)
H3 H -0.1189 -0.0861 1.2068
C4 C 0.0528(9) -0.0201(5) 1.2350(6)
C5 C 0.0199(9) 0.0243(5) 1.3042(6)
C6 C 0.1077(9) 0.0783(5) 1.3466(6)
C7 C 0.2397(9) 0.0911(5) 1.3237(6)
C8 C 0.3366(9) 0.1419(5) 1.3665(6)
H4 H 0.3145 0.1721 1.4105
C9 C 0.4629(9) 0.1469(5) 1.3439(6)
H5 H 0.5285 0.1804 1.3719
C10 C 0.4926(9) 0.1006(5) 1.2773(6)
H6 H 0.5800 0.1037 1.2627
C11 C 0.2773(9) 0.0472(5) 1.2571(6)
C12 C 0.1825(9) -0.0086(5) 1.2120(6)
C13 C -0.0665(9) 0.0742(5) 1.4105(6)
C14 C -0.1585(9) 0.0884(6) 1.4746(6)
C15 C -0.2708(10) 0.0461(6) 1.4792(6)
H7 H -0.2946 0.0068 1.4403
C16 C -0.3506(10) 0.0614(6) 1.5422(6)
H8 H -0.4299 0.0332 1.5428
C17 C -0.3182(10) 0.1135(6) 1.6000(6)
H9 H -0.3815 0.1294 1.6337
C18 C -0.1913(10) 0.1444(6) 1.6102(6)
H10 H -0.1572 0.1728 1.6593
C19 C -0.1113(10) 0.1328(6) 1.5453(6)
H11 H -0.0252 0.1556 1.5504
C20 C 0.3426(8) -0.1106(4) 0.9283(5)
C21 C 0.2836(8) -0.1824(4) 0.8872(5)
C22 C 0.2015(8) -0.1829(4) 0.8053(5)
H12 H 0.1770 -0.1380 0.7767
C23 C 0.1550(11) -0.2500 0.7652(7)
H13 H 0.0936 -0.2500 0.7123
C24 C 0.3205(11) -0.2500 0.9301(7)
H14 H 0.3695 -0.2500 0.9871
C25 C 0.5946(8) -0.1127(5) 1.2738(5)
C26 C 0.6490(8) -0.1827(5) 1.3203(5)
C27 C 0.7432(8) -0.1834(5) 1.3988(5)
H15 H 0.7756 -0.1386 1.4250
C28 C 0.7883(12) -0.2500 1.4377(8)
H16 H 0.8497 -0.2500 1.4906
C29 C 0.6013(12) -0.2500 1.2839(8)
H17 H 0.5350 -0.2500 1.2331
C30 C 0.3322(8) 0.1108(5) 0.9821(5)
C31 C 0.2823(8) 0.1829(5) 1.0153(5)
C32 C 0.2130(8) 0.1831(5) 1.0849(6)
H18 H 0.1925 0.1382 1.1098
C33 C 0.1745(12) 0.2500 1.1175(8)
H19 H 0.1223 0.2500 1.1616
C34 C 0.3143(11) 0.2500 0.9785(8)
H20 H 0.3566 0.2500 0.9299
N1 N 0.2267(6) -0.0497(4) 1.1488(4)
N2 N 0.4035(6) 0.0530(3) 1.2343(4)
N3 N -0.0917(7) 0.0232(4) 1.3461(4)
H21 H -0.1637 -0.0047 1.3336
N4 N 0.0523(7) 0.1098(4) 1.4126(5)
O1 O 0.3726(5) -0.1071(3) 1.0095(3)
O2 O 0.3635(5) -0.0587(3) 0.8774(3)
O3 O 0.4792(6) -0.1186(3) 1.2234(4)
O4 O 0.6606(7) -0.0540(3) 1.2797(5)
O5 O 0.3540(6) 0.0565(3) 1.0340(4)
O6 O 0.3557(5) 0.1093(3) 0.9058(3)
Tm1 Tm 0.47000(3) -0.029970(16) 1.121330(19)
C1C C 0.1443(9) -0.3971(5) 1.1107(6)
H1C H 0.1743 -0.3684 1.0680
C2C C 0.0141(9) -0.3814(5) 1.1310(6)
H2C H -0.0399 -0.3431 1.1025
C3C C -0.0324(9) -0.4230(5) 1.1929(6)
H3C H -0.1189 -0.4139 1.2068
C4C C 0.0528(9) -0.4799(5) 1.2350(6)
C5C C 0.0199(9) -0.5243(5) 1.3042(6)
C6C C 0.1077(9) -0.5783(5) 1.3466(6)
C7C C 0.2397(9) -0.5911(5) 1.3237(6)
C8C C 0.3366(9) -0.6419(5) 1.3665(6)
H4C H 0.3145 -0.6721 1.4105
C9C C 0.4629(9) -0.6469(5) 1.3439(6)
H5C H 0.5285 -0.6804 1.3719
C10C C 0.4926(9) -0.6006(5) 1.2773(6)
H6C H 0.5800 -0.6037 1.2627
C11C C 0.2773(9) -0.5472(5) 1.2571(6)
C12C C 0.1825(9) -0.4914(5) 1.2120(6)
C13C C -0.0665(9) -0.5742(5) 1.4105(6)
C14C C -0.1585(9) -0.5884(6) 1.4746(6)
C15C C -0.2708(10) -0.5461(6) 1.4792(6)
H7C H -0.2946 -0.5068 1.4403
C16C C -0.3506(10) -0.5614(6) 1.5422(6)
H8C H -0.4299 -0.5332 1.5428
C17C C -0.3182(10) -0.6135(6) 1.6000(6)
H9C H -0.3815 -0.6294 1.6337
C18C C -0.1913(10) -0.6444(6) 1.6102(6)
H10C H -0.1572 -0.6728 1.6593
C19C C -0.1113(10) -0.6328(6) 1.5453(6)
H11C H -0.0252 -0.6556 1.5504
C20C C 0.3426(8) -0.3894(4) 0.9283(5)
C21C C 0.2836(8) -0.3176(4) 0.8872(5)
C22C C 0.2015(8) -0.3171(4) 0.8053(5)
H12C H 0.1770 -0.3620 0.7767
C25C C 0.5946(8) -0.3873(5) 1.2738(5)
C26C C 0.6490(8) -0.3173(5) 1.3203(5)
C27C C 0.7432(8) -0.3166(5) 1.3988(5)
H15C H 0.7756 -0.3614 1.4250
C30C C 0.3322(8) 0.3892(5) 0.9821(5)
C31C C 0.2823(8) 0.3171(5) 1.0153(5)
C32C C 0.2130(8) 0.3169(5) 1.0849(6)
H18C H 0.1925 0.3618 1.1098
N1C N 0.2267(6) -0.4503(4) 1.1488(4)
N2C N 0.4035(6) -0.5530(3) 1.2343(4)
N3C N -0.0917(7) -0.5232(4) 1.3461(4)
H21C H -0.1637 -0.4953 1.3336
N4C N 0.0523(7) -0.6098(4) 1.4126(5)
O1C O 0.3726(5) -0.3929(3) 1.0095(3)
O2C O 0.3635(5) -0.4413(3) 0.8774(3)
O2B O 0.6365(5) 0.0587(3) 1.1226(3)
O2A O 0.6365(5) -0.5587(3) 1.1226(3)
O3C O 0.4792(6) -0.3814(3) 1.2234(4)
O4C O 0.6606(7) -0.4460(3) 1.2797(5)
O5C O 0.3540(6) 0.4435(3) 1.0340(4)
O5C_2 O 0.3540(6) -0.5565(3) 1.0340(4)
O6C O 0.3557(5) 0.3907(3) 0.9058(3)
O6B O 0.6443(5) -0.1093(3) 1.0942(3)
O6A O 0.6443(5) -0.3907(3) 1.0942(3)
Tm1C Tm 0.47000(3) -0.470030(16) 1.121330(19)
Tm1B Tm 0.53000(3) 0.029970(16) 0.878670(19)
Tm1A Tm 0.53000(3) -0.529970(16) 0.878670(19)
Tm1C_2 Tm 0.47000(3) 0.529970(16) 1.121330(19)
Tm1A_2 Tm 0.53000(3) 0.470030(16) 0.878670(19)
O7 O 0.280(7) -0.2500 1.199(5)
loop_
_geom_bond_atom_site_label_1
_geom_bond_atom_site_label_2
_geom_bond_site_symmetry_1
_geom_bond_site_symmetry_2
C1 H1 1_555 1_555
C2 C1 1_555 1_555
H2 C2 1_555 1_555
C3 C2 1_555 1_555
H3 C3 1_555 1_555
C4 C3 1_555 1_555
C5 C4 1_555 1_555
C6 C5 1_555 1_555
C7 C6 1_555 1_555
C8 C7 1_555 1_555
H4 C8 1_555 1_555
C9 C8 1_555 1_555
H5 C9 1_555 1_555
C10 C9 1_555 1_555
H6 C10 1_555 1_555
C11 C7 1_555 1_555
C12 C4 1_555 1_555
C13 C14 1_555 1_555
C14 C15 1_555 1_555
C15 H7 1_555 1_555
C16 C15 1_555 1_555
H8 C16 1_555 1_555
C17 C16 1_555 1_555
H9 C17 1_555 1_555
C18 C17 1_555 1_555
H10 C18 1_555 1_555
C19 C14 1_555 1_555
H11 C19 1_555 1_555
C20 C21 1_555 1_555
C21 C22 1_555 1_555
C22 H12 1_555 1_555
C23 C22 1_555 1_555
H13 C23 1_555 1_555
C24 C21 1_555 1_555
H14 C24 1_555 1_555
C25 C26 1_555 1_555
C26 C27 1_555 1_555
C27 H15 1_555 1_555
C28 C27 1_555 1_555
H16 C28 1_555 1_555
C29 C26 1_555 1_555
H17 C29 1_555 1_555
C30 C31 1_555 1_555
C31 C32 1_555 1_555
C32 H18 1_555 1_555
C33 C32 1_555 1_555
H19 C33 1_555 1_555
C34 C31 1_555 1_555
H20 C34 1_555 1_555
N1 C1 1_555 1_555
N2 C10 1_555 1_555
N3 C5 1_555 1_555
H21 N3 1_555 1_555
N4 C6 1_555 1_555
O1 C20 1_555 1_555
O2 C20 1_555 1_555
O3 C25 1_555 1_555
O4 C25 1_555 1_555
O5 C30 1_555 1_555
O6 C30 1_555 1_555
Tm1 N1 1_555 1_555
C1C H1C 1_555 1_555
C2C C1C 1_555 1_555
H2C C2C 1_555 1_555
C3C C2C 1_555 1_555
H3C C3C 1_555 1_555
C4C C3C 1_555 1_555
C5C C4C 1_555 1_555
C6C C5C 1_555 1_555
C7C C6C 1_555 1_555
C8C C7C 1_555 1_555
H4C C8C 1_555 1_555
C9C C8C 1_555 1_555
H5C C9C 1_555 1_555
C10C C9C 1_555 1_555
H6C C10C 1_555 1_555
C11C C7C 1_555 1_555
C12C C4C 1_555 1_555
C13C C14C 1_555 1_555
C14C C15C 1_555 1_555
C15C H7C 1_555 1_555
C16C C15C 1_555 1_555
H8C C16C 1_555 1_555
C17C C16C 1_555 1_555
H9C C17C 1_555 1_555
C18C C17C 1_555 1_555
H10C C18C 1_555 1_555
C19C C14C 1_555 1_555
H11C C19C 1_555 1_555
C20C C21C 1_555 1_555
C21C C24 1_555 1_555
C22C C23 1_555 1_555
H12C C22C 1_555 1_555
C25C C26C 1_555 1_555
C26C C29 1_555 1_555
C27C C28 1_555 1_555
H15C C27C 1_555 1_555
C30C C31C 1_555 1_555
C31C C34 1_555 1_555
C32C C33 1_555 1_555
H18C C32C 1_555 1_555
N1C C1C 1_555 1_555
N2C C10C 1_555 1_555
N3C C5C 1_555 1_555
H21C N3C 1_555 1_555
N4C C6C 1_555 1_555
O1C C20C 1_555 1_555
O2C C20C 1_555 1_555
O2B Tm1 1_555 1_555
O2A Tm1C 1_555 1_555
O3C C25C 1_555 1_555
O4C C25C 1_555 1_555
O5C C30C 1_555 1_555
O5C_2 Tm1C 1_555 1_555
O6C C30C 1_555 1_555
O6B Tm1 1_555 1_555
O6A Tm1C 1_555 1_555
Tm1C N1C 1_555 1_555
Tm1B O2 1_555 1_555
Tm1A O2C 1_555 1_555
Tm1C_2 O5C 1_555 1_555
Tm1A_2 O6C 1_555 1_555
C11 C12 1_555 1_555
C11 N2 1_555 1_555
C12 N1 1_555 1_555
C13 N3 1_555 1_555
C13 N4 1_555 1_555
C18 C19 1_555 1_555
N2 Tm1 1_555 1_555
O1 Tm1 1_555 1_555
O3 Tm1 1_555 1_555
O4 Tm1 1_555 1_555
O5 Tm1 1_555 1_555
O6 Tm1B 1_555 1_555
C11C C12C 1_555 1_555
C11C N2C 1_555 1_555
C12C N1C 1_555 1_555
C13C N3C 1_555 1_555
C13C N4C 1_555 1_555
C18C C19C 1_555 1_555
C21C C22C 1_555 1_555
C26C C27C 1_555 1_555
C31C C32C 1_555 1_555
N2C Tm1C 1_555 1_555
O1C Tm1C 1_555 1_555
O3C Tm1C 1_555 1_555
O4C Tm1C 1_555 1_555

#END
