
#######################################################################
#
#                 Cambridge Crystallographic Data Centre
#                                CCDC 
#
#######################################################################
#
# If this CIF has been generated from an entry in the Cambridge 
# Structural Database, then it will include bibliographic, chemical, 
# crystal, experimental, refinement or atomic coordinate data resulting 
# from the CCDC's data processing and validation procedures.
#
#######################################################################

data_ISERAA
_symmetry_cell_setting           monoclinic
_symmetry_space_group_name_H-M   'C 2/m'
_symmetry_Int_Tables_number      12
_space_group_name_Hall           '-C 2y'
loop_
_symmetry_equiv_pos_site_id
_symmetry_equiv_pos_as_xyz
1 x,y,z
2 -x,y,-z
3 1/2+x,1/2+y,z
4 1/2-x,1/2+y,-z
5 -x,-y,-z
6 x,-y,z
7 1/2-x,1/2-y,-z
8 1/2+x,1/2-y,z
_cell_length_a                   10.2419(3)
_cell_length_b                   10.4256(3)
_cell_length_c                   7.2847(3)
_cell_angle_alpha                90
_cell_angle_beta                 117.5260(17)
_cell_angle_gamma                90
_cell_volume                     689.794
loop_
_atom_site_label
_atom_site_type_symbol
_atom_site_fract_x
_atom_site_fract_y
_atom_site_fract_z
Fe1 Fe 0.00000 0.00000 0.50000
Se1 Se 0.3571(4) 0.00000 1.2401(4)
C1 C 0.2065(16) 0.00000 0.9803(17)
N1 N 0.0916(13) 0.00000 0.8148(10)
N2 N 0.1530(9) 0.1641(11) 0.5055(11)
C2 C 0.2921(10) 0.1764(12) 0.6631(19)
C3 C 0.1250(18) 0.2219(12) 0.3270(14)
Fe1B Fe 0.50000 0.50000 0.50000
Fe1B_2 Fe -0.50000 0.50000 0.50000
Se1A Se -0.3571(4) 0.00000 -0.2401(4)
C1A C -0.2065(16) 0.00000 0.0197(17)
N1A N -0.0916(13) 0.00000 0.1852(10)
N2F N 0.3470(9) 0.3359(11) 0.4945(11)
N2A N -0.1530(9) 0.1641(11) 0.4945(11)
N2G N -0.3470(9) 0.3359(11) 0.5055(11)
N2D N -0.1530(9) -0.1641(11) 0.4945(11)
N2E N 0.1530(9) -0.1641(11) 0.5055(11)
C2F C 0.2079(10) 0.3236(12) 0.3369(19)
C2A C -0.2921(10) 0.1764(12) 0.3369(19)
C2G C -0.2079(10) 0.3236(12) 0.6631(19)
C3F C 0.3750(18) 0.2781(12) 0.6730(14)
C3A C -0.1250(18) 0.2219(12) 0.6730(14)
C3G C -0.3750(18) 0.2781(12) 0.3270(14)
loop_
_geom_bond_atom_site_label_1
_geom_bond_atom_site_label_2
_geom_bond_site_symmetry_1
_geom_bond_site_symmetry_2
Fe1 N1 1_555 1_555
Se1 C1 1_555 1_555
C1 N1 1_555 1_555
N2 Fe1 1_555 1_555
C2 N2 1_555 1_555
C3 N2 1_555 1_555
Fe1B N2F 1_555 1_555
Fe1B_2 N2G 1_555 1_555
Se1A C1A 1_555 1_555
C1A N1A 1_555 1_555
N1A Fe1 1_555 1_555
N2F C2F 1_555 1_555
N2A Fe1 1_555 1_555
N2G C2G 1_555 1_555
N2D Fe1 1_555 1_555
N2E Fe1 1_555 1_555
C2F C3 1_555 1_555
C2A N2A 1_555 1_555
C2G C3A 1_555 1_555
C3F C2 1_555 1_555
C3A N2A 1_555 1_555
C3G N2G 1_555 1_555
N2F C3F 1_555 1_555
C2A C3G 1_555 1_555

#END
