
#######################################################################
#
#                 Cambridge Crystallographic Data Centre
#                                CCDC 
#
#######################################################################
#
# If this CIF has been generated from an entry in the Cambridge 
# Structural Database, then it will include bibliographic, chemical, 
# crystal, experimental, refinement or atomic coordinate data resulting 
# from the CCDC's data processing and validation procedures.
#
#######################################################################

data_ISEREE
_symmetry_cell_setting           monoclinic
_symmetry_space_group_name_H-M   'C 2/m'
_symmetry_Int_Tables_number      12
_space_group_name_Hall           '-C 2y'
loop_
_symmetry_equiv_pos_site_id
_symmetry_equiv_pos_as_xyz
1 x,y,z
2 -x,y,-z
3 1/2+x,1/2+y,z
4 1/2-x,1/2+y,-z
5 -x,-y,-z
6 x,-y,z
7 1/2-x,1/2-y,-z
8 1/2+x,1/2-y,z
_cell_length_a                   10.1134(12)
_cell_length_b                   10.3808(14)
_cell_length_c                   7.3383(9)
_cell_angle_alpha                90
_cell_angle_beta                 117.504(12)
_cell_angle_gamma                90
_cell_volume                     683.34
loop_
_atom_site_label
_atom_site_type_symbol
_atom_site_fract_x
_atom_site_fract_y
_atom_site_fract_z
Co1 Co 0.0000 0.0000 0.5000
Se1 Se 0.35498(8) 0.0000 1.23195(12)
C1 C 0.2008(6) 0.0000 0.9817(9)
N1 N 0.1037(5) 0.0000 0.8150(8)
N2 N 0.1551(3) 0.1537(3) 0.5066(6)
C2 C 0.2902(4) 0.1734(4) 0.6610(7)
H1 H 0.3223 0.1220 0.7775
C3 C 0.1141(4) 0.2315(3) 0.3451(7)
H2 H 0.0197 0.2224 0.2340
Co1B Co 0.5000 0.5000 0.5000
Co1B_2 Co -0.5000 0.5000 0.5000
Se1A Se -0.35498(8) 0.0000 -0.23195(12)
C1A C -0.2008(6) 0.0000 0.0183(9)
N1A N -0.1037(5) 0.0000 0.1850(8)
N2F N 0.3449(3) 0.3463(3) 0.4934(6)
N2A N -0.1551(3) 0.1537(3) 0.4934(6)
N2G N -0.3449(3) 0.3463(3) 0.5066(6)
N2D N -0.1551(3) -0.1537(3) 0.4934(6)
N2E N 0.1551(3) -0.1537(3) 0.5066(6)
C2F C 0.2098(4) 0.3266(4) 0.3390(7)
C2A C -0.2902(4) 0.1734(4) 0.3390(7)
C2G C -0.2098(4) 0.3266(4) 0.6610(7)
H1F H 0.1777 0.3780 0.2225
H1A H -0.3223 0.1220 0.2225
H1G H -0.1777 0.3780 0.7775
C3F C 0.3859(4) 0.2685(3) 0.6549(7)
C3A C -0.1141(4) 0.2315(3) 0.6549(7)
C3G C -0.3859(4) 0.2685(3) 0.3451(7)
H2F H 0.4803 0.2776 0.7660
H2A H -0.0197 0.2224 0.7660
H2G H -0.4803 0.2776 0.2340
loop_
_geom_bond_atom_site_label_1
_geom_bond_atom_site_label_2
_geom_bond_site_symmetry_1
_geom_bond_site_symmetry_2
Co1 N1 1_555 1_555
Se1 C1 1_555 1_555
C1 N1 1_555 1_555
N2 Co1 1_555 1_555
C2 N2 1_555 1_555
H1 C2 1_555 1_555
C3 N2 1_555 1_555
H2 C3 1_555 1_555
Co1B N2F 1_555 1_555
Co1B_2 N2G 1_555 1_555
Se1A C1A 1_555 1_555
C1A N1A 1_555 1_555
N1A Co1 1_555 1_555
N2F C2F 1_555 1_555
N2A Co1 1_555 1_555
N2G C2G 1_555 1_555
N2D Co1 1_555 1_555
N2E Co1 1_555 1_555
C2F C3 1_555 1_555
C2A N2A 1_555 1_555
C2G H1G 1_555 1_555
H1F C2F 1_555 1_555
H1A C2A 1_555 1_555
C3F C2 1_555 1_555
C3A N2A 1_555 1_555
C3G N2G 1_555 1_555
H2F C3F 1_555 1_555
H2A C3A 1_555 1_555
H2G C3G 1_555 1_555
N2F C3F 1_555 1_555
C2A C3G 1_555 1_555
C2G C3A 1_555 1_555

#END
