
#######################################################################
#
#                 Cambridge Crystallographic Data Centre
#                                CCDC 
#
#######################################################################
#
# If this CIF has been generated from an entry in the Cambridge 
# Structural Database, then it will include bibliographic, chemical, 
# crystal, experimental, refinement or atomic coordinate data resulting 
# from the CCDC's data processing and validation procedures.
#
#######################################################################

data_ISERII
_symmetry_cell_setting           monoclinic
_symmetry_space_group_name_H-M   'C 2/m'
_symmetry_Int_Tables_number      12
_space_group_name_Hall           '-C 2y'
loop_
_symmetry_equiv_pos_site_id
_symmetry_equiv_pos_as_xyz
1 x,y,z
2 -x,y,-z
3 1/2+x,1/2+y,z
4 1/2-x,1/2+y,-z
5 -x,-y,-z
6 x,-y,z
7 1/2-x,1/2-y,-z
8 1/2+x,1/2-y,z
_cell_length_a                   9.9778(3)
_cell_length_b                   10.1998(3)
_cell_length_c                   7.3545(2)
_cell_angle_alpha                90
_cell_angle_beta                 117.3659(11)
_cell_angle_gamma                90
_cell_volume                     664.716
loop_
_atom_site_label
_atom_site_type_symbol
_atom_site_fract_x
_atom_site_fract_y
_atom_site_fract_z
Ni1 Ni 0.00000 0.00000 0.50000
Se1 Se 0.3543(3) 0.00000 1.2268(3)
C1 C 0.2047(10) 0.00000 0.9601(11)
N1 N 0.0776(8) 0.00000 0.7958(9)
N2 N 0.1519(8) 0.1635(7) 0.4966(9)
C2 C 0.2832(8) 0.1676(8) 0.6729(10)
C3 C 0.1168(11) 0.2326(8) 0.3237(11)
Ni1B Ni 0.50000 -0.50000 0.50000
Ni1B_2 Ni 0.50000 0.50000 0.50000
Se1A Se -0.3543(3) 0.00000 -0.2268(3)
C1A C -0.2047(10) 0.00000 0.0399(11)
N1A N -0.0776(8) 0.00000 0.2042(9)
N2F N 0.3481(8) 0.3365(7) 0.5034(9)
N2E N 0.1519(8) -0.1635(7) 0.4966(9)
N2C N 0.3481(8) -0.3365(7) 0.5034(9)
N2D N -0.1519(8) -0.1635(7) 0.5034(9)
N2A N -0.1519(8) 0.1635(7) 0.5034(9)
C2F C 0.2168(8) 0.3324(8) 0.3271(10)
C2E C 0.2832(8) -0.1676(8) 0.6729(10)
C2C C 0.2168(8) -0.3324(8) 0.3271(10)
C3F C 0.3832(11) 0.2674(8) 0.6763(11)
C3E C 0.1168(11) -0.2326(8) 0.3237(11)
C3C C 0.3832(11) -0.2674(8) 0.6763(11)
loop_
_geom_bond_atom_site_label_1
_geom_bond_atom_site_label_2
_geom_bond_site_symmetry_1
_geom_bond_site_symmetry_2
Ni1 N1 1_555 1_555
Se1 C1 1_555 1_555
C1 N1 1_555 1_555
N2 Ni1 1_555 1_555
C2 N2 1_555 1_555
C3 N2 1_555 1_555
Ni1B N2C 1_555 1_555
Ni1B_2 N2F 1_555 1_555
Se1A C1A 1_555 1_555
C1A N1A 1_555 1_555
N1A Ni1 1_555 1_555
N2F C2F 1_555 1_555
N2E Ni1 1_555 1_555
N2C C2C 1_555 1_555
N2D Ni1 1_555 1_555
N2A Ni1 1_555 1_555
C2F C3 1_555 1_555
C2E N2E 1_555 1_555
C2C C3E 1_555 1_555
C3F C2 1_555 1_555
C3E N2E 1_555 1_555
C3C N2C 1_555 1_555
N2F C3F 1_555 1_555
C2E C3C 1_555 1_555

#END
