
#######################################################################
#
#                 Cambridge Crystallographic Data Centre
#                                CCDC 
#
#######################################################################
#
# If this CIF has been generated from an entry in the Cambridge 
# Structural Database, then it will include bibliographic, chemical, 
# crystal, experimental, refinement or atomic coordinate data resulting 
# from the CCDC's data processing and validation procedures.
#
#######################################################################

data_ISEYIO
_symmetry_cell_setting           monoclinic
_symmetry_space_group_name_H-M   'P 21/c'
_symmetry_Int_Tables_number      14
_space_group_name_Hall           '-P 2ybc'
loop_
_symmetry_equiv_pos_site_id
_symmetry_equiv_pos_as_xyz
1 x,y,z
2 x,1/2-y,1/2+z
3 -x,-y,-z
4 -x,1/2+y,1/2-z
_cell_length_a                   9.4253(10)
_cell_length_b                   10.9373(10)
_cell_length_c                   23.6378(10)
_cell_angle_alpha                90
_cell_angle_beta                 98.733(4)
_cell_angle_gamma                90
_cell_volume                     2408.51
loop_
_atom_site_label
_atom_site_type_symbol
_atom_site_fract_x
_atom_site_fract_y
_atom_site_fract_z
Cu1 Cu 0.10528(4) 0.11754(4) 0.052313(16)
S1 S 0.60033(14) -0.15535(12) 0.18896(6)
S2 S -0.47695(14) 0.46941(13) -0.08722(6)
O1 O 0.3129(3) 0.1250(2) 0.07561(10)
O2 O 0.2804(3) 0.2764(3) 0.13508(12)
O3 O -0.0950(3) 0.0790(2) 0.01696(10)
O4 O -0.1548(3) 0.2489(2) 0.05812(11)
N1 N 0.0839(3) 0.0327(3) 0.12678(11)
N2 N 0.1225(3) 0.2599(3) 0.49008(11)
C1 C 0.0242(4) -0.1468(3) 0.28392(14)
H1 H 0.1028 -0.2034 0.2951
H2 H -0.0636 -0.1942 0.2763
C2 C 0.0138(4) -0.0595(3) 0.33359(13)
H3 H -0.0203 -0.1043 0.3643
H4 H -0.0560 0.0037 0.3208
C3 C 0.1563(4) 0.0002(4) 0.35649(14)
H5 H 0.1927 0.0414 0.3253
H6 H 0.2247 -0.0629 0.3709
C4 C 0.3569(4) 0.2005(3) 0.11524(15)
C5 C 0.5171(4) 0.1922(4) 0.13913(17)
H7 H 0.5729 0.2008 0.1081
H8 H 0.5430 0.2586 0.1659
C6 C -0.1839(4) 0.1650(3) 0.02473(14)
C7 C -0.3306(4) 0.1564(4) -0.01195(15)
H9 H -0.3325 0.0874 -0.0378
H10 H -0.4034 0.1432 0.0124
C8 C -0.0305(4) 0.0557(3) 0.15271(13)
H11 H -0.0988 0.1112 0.1358
C9 C -0.0510(4) 0.0013(3) 0.20273(14)
H12 H -0.1320 0.0205 0.2190
C10 C 0.0479(4) -0.0827(3) 0.22977(13)
C11 C 0.1666(4) -0.1047(3) 0.20319(15)
H13 H 0.2370 -0.1591 0.2195
C12 C 0.1810(4) -0.0460(3) 0.15253(15)
H14 H 0.2620 -0.0621 0.1357
C13 C 0.1360(4) 0.1406(3) 0.50129(14)
H15 H 0.1371 0.1142 0.5388
C14 C 0.1484(4) 0.0543(3) 0.45928(14)
H16 H 0.1581 -0.0280 0.4689
C15 C 0.1463(3) 0.0905(3) 0.40313(13)
C16 C 0.1328(4) 0.2150(3) 0.39224(14)
H17 H 0.1315 0.2440 0.3552
C17 C 0.1215(4) 0.2957(3) 0.43595(14)
H18 H 0.1128 0.3786 0.4275
C18 C 0.5517(4) 0.0724(4) 0.16880(15)
C19 C 0.5617(4) 0.0540(4) 0.22900(17)
H19 H 0.5526 0.1168 0.2547
C20 C 0.5868(4) -0.0685(4) 0.24561(15)
H20 H 0.5947 -0.0970 0.2830
C21 C 0.5725(4) -0.0346(4) 0.14203(16)
H21 H 0.5718 -0.0417 0.1028
C22 C -0.3628(4) 0.2710(3) -0.04558(14)
C23 C -0.2699(4) 0.3239(4) -0.08162(16)
H22 H -0.1834 0.2886 -0.0872
C24 C -0.3189(4) 0.4293(4) -0.10658(17)
H23 H -0.2714 0.4742 -0.1314
C25 C -0.4790(4) 0.3426(4) -0.04545(19)
H24 H -0.5527 0.3247 -0.0247
N2A N 0.1225(3) 0.2401(3) -0.00992(11)
Cu1A Cu 0.10528(4) 0.38246(4) 0.552313(16)
loop_
_geom_bond_atom_site_label_1
_geom_bond_atom_site_label_2
_geom_bond_site_symmetry_1
_geom_bond_site_symmetry_2
Cu1 O1 1_555 1_555
S1 C20 1_555 1_555
S2 C24 1_555 1_555
O1 C4 1_555 1_555
O2 C4 1_555 1_555
O3 Cu1 1_555 1_555
O4 C6 1_555 1_555
N1 Cu1 1_555 1_555
N2 C13 1_555 1_555
C1 H1 1_555 1_555
H2 C1 1_555 1_555
C2 C1 1_555 1_555
H3 C2 1_555 1_555
H4 C2 1_555 1_555
C3 C2 1_555 1_555
H5 C3 1_555 1_555
H6 C3 1_555 1_555
C4 C5 1_555 1_555
C5 H7 1_555 1_555
H8 C5 1_555 1_555
C6 O3 1_555 1_555
C7 C6 1_555 1_555
H9 C7 1_555 1_555
H10 C7 1_555 1_555
C8 N1 1_555 1_555
H11 C8 1_555 1_555
C9 C8 1_555 1_555
H12 C9 1_555 1_555
C10 C1 1_555 1_555
C11 C10 1_555 1_555
H13 C11 1_555 1_555
C12 N1 1_555 1_555
H14 C12 1_555 1_555
C13 H15 1_555 1_555
C14 C13 1_555 1_555
H16 C14 1_555 1_555
C15 C3 1_555 1_555
C16 C15 1_555 1_555
H17 C16 1_555 1_555
C17 N2 1_555 1_555
H18 C17 1_555 1_555
C18 C5 1_555 1_555
C19 C18 1_555 1_555
H19 C19 1_555 1_555
C20 C19 1_555 1_555
H20 C20 1_555 1_555
C21 S1 1_555 1_555
H21 C21 1_555 1_555
C22 C7 1_555 1_555
C23 C22 1_555 1_555
H22 C23 1_555 1_555
C24 C23 1_555 1_555
H23 C24 1_555 1_555
C25 S2 1_555 1_555
H24 C25 1_555 1_555
N2A Cu1 1_555 1_555
Cu1A N2 1_555 1_555
C9 C10 1_555 1_555
C11 C12 1_555 1_555
C14 C15 1_555 1_555
C16 C17 1_555 1_555
C18 C21 1_555 1_555
C22 C25 1_555 1_555

#END
