
#######################################################################
#
#                 Cambridge Crystallographic Data Centre
#                                CCDC 
#
#######################################################################
#
# If this CIF has been generated from an entry in the Cambridge 
# Structural Database, then it will include bibliographic, chemical, 
# crystal, experimental, refinement or atomic coordinate data resulting 
# from the CCDC's data processing and validation procedures.
#
#######################################################################

data_ISIDAP
_symmetry_cell_setting           monoclinic
_symmetry_space_group_name_H-M   'P 21/c'
_symmetry_Int_Tables_number      14
_space_group_name_Hall           '-P 2ybc'
loop_
_symmetry_equiv_pos_site_id
_symmetry_equiv_pos_as_xyz
1 x,y,z
2 x,1/2-y,1/2+z
3 -x,-y,-z
4 -x,1/2+y,1/2-z
_cell_length_a                   9.5567(6)
_cell_length_b                   11.3061(8)
_cell_length_c                   11.2561(8)
_cell_angle_alpha                90
_cell_angle_beta                 105.692(5)
_cell_angle_gamma                90
_cell_volume                     1170.88
loop_
_atom_site_label
_atom_site_type_symbol
_atom_site_fract_x
_atom_site_fract_y
_atom_site_fract_z
Tl1 Tl -0.36769(6) 0.41802(4) 0.27935(5)
S1 S -0.5315(5) 0.2007(4) 0.2558(5)
F1 F 0.012(3) 0.285(3) 0.292(3)
F2 F 0.021(3) 0.275(3) 0.450(5)
F3 F 0.1293(15) 0.1613(14) 0.393(2)
N1 N -0.2450(13) 0.1923(11) 0.3128(12)
N2 N -0.3696(10) 0.0088(11) 0.2792(9)
C1 C -0.3671(14) 0.1282(16) 0.2853(11)
C2 C -0.1201(15) 0.1315(16) 0.3343(16)
C3 C -0.1141(18) 0.0112(14) 0.3327(18)
H1 H -0.0259 -0.0289 0.3506
C4 C -0.2469(16) -0.0493(14) 0.3029(17)
H2 H -0.2477 -0.1315 0.3000
C5 C 0.014(2) 0.209(2) 0.368(3)
C6 C -0.343(3) 0.4125(14) 0.098(2)
H3 H -0.4333 0.3893 0.0411
H4 H -0.2690 0.3562 0.0943
H5 H -0.3157 0.4893 0.0755
C7 C -0.319(3) 0.440(2) 0.4762(16)
H6 H -0.4046 0.4240 0.5028
H7 H -0.2883 0.5203 0.4975
H8 H -0.2430 0.3869 0.5162
Tl1C Tl -0.63231(6) -0.08198(4) 0.22065(5)
N2C N -0.6304(10) 0.5088(11) 0.2208(9)
S1C S -0.4685(5) 0.7007(4) 0.2442(5)
loop_
_geom_bond_atom_site_label_1
_geom_bond_atom_site_label_2
_geom_bond_site_symmetry_1
_geom_bond_site_symmetry_2
Tl1 S1 1_555 1_555
S1 C1 1_555 1_555
F1 C5 1_555 1_555
F2 C5 1_555 1_555
F3 C5 1_555 1_555
N1 Tl1 1_555 1_555
N2 C1 1_555 1_555
C1 N1 1_555 1_555
C2 N1 1_555 1_555
C3 C2 1_555 1_555
H1 C3 1_555 1_555
C4 N2 1_555 1_555
H2 C4 1_555 1_555
C5 C2 1_555 1_555
C6 Tl1 1_555 1_555
H3 C6 1_555 1_555
H4 C6 1_555 1_555
H5 C6 1_555 1_555
C7 Tl1 1_555 1_555
H6 C7 1_555 1_555
H7 C7 1_555 1_555
H8 C7 1_555 1_555
Tl1C S1 1_555 1_555
N2C Tl1 1_555 1_555
S1C Tl1 1_555 1_555
N2 Tl1C 1_555 1_555
C3 C4 1_555 1_555

#END
