
#######################################################################
#
#                 Cambridge Crystallographic Data Centre
#                                CCDC 
#
#######################################################################
#
# If this CIF has been generated from an entry in the Cambridge 
# Structural Database, then it will include bibliographic, chemical, 
# crystal, experimental, refinement or atomic coordinate data resulting 
# from the CCDC's data processing and validation procedures.
#
#######################################################################

data_ISIGOH
_symmetry_cell_setting           triclinic
_symmetry_space_group_name_H-M   'P -1'
_symmetry_Int_Tables_number      2
_space_group_name_Hall           '-P 1'
loop_
_symmetry_equiv_pos_site_id
_symmetry_equiv_pos_as_xyz
1 x,y,z
2 -x,-y,-z
_cell_length_a                   9.2522(10)
_cell_length_b                   13.6140(16)
_cell_length_c                   15.0644(18)
_cell_angle_alpha                72.269(3)
_cell_angle_beta                 73.549(3)
_cell_angle_gamma                87.260(2)
_cell_volume                     1731.84
loop_
_atom_site_label
_atom_site_type_symbol
_atom_site_fract_x
_atom_site_fract_y
_atom_site_fract_z
Cd1 Cd 1.11752(12) 1.08978(8) 0.28144(8)
Cd2 Cd 1.01215(11) 1.19378(7) 0.68600(7)
Cd3 Cd 0.98693(11) 1.52801(7) 0.28854(7)
C1 C 1.4200(13) 0.8647(10) 0.2015(9)
C2 C 1.5254(13) 0.8216(10) 0.2525(9)
H1 H 1.5407 0.8490 0.2988
C3 C 1.6063(14) 0.7384(10) 0.2339(10)
C4 C 1.5815(16) 0.6988(10) 0.1641(10)
H2 H 1.6332 0.6416 0.1525
C5 C 1.4823(15) 0.7425(10) 0.1121(10)
H3 H 1.4708 0.7172 0.0636
C6 C 1.3979(14) 0.8258(9) 0.1326(10)
C7 C 1.2924(14) 0.8706(9) 0.0739(9)
C8 C 1.1937(14) 0.8072(9) 0.0596(9)
C9 C 1.1185(15) 0.8441(10) -0.0111(10)
H4 H 1.0538 0.7998 -0.0197
C10 C 1.1390(14) 0.9466(10) -0.0691(9)
C11 C 1.2275(15) 1.0099(10) -0.0508(10)
H5 H 1.2377 1.0795 -0.0863
C12 C 1.3036(14) 0.9741(10) 0.0194(10)
H6 H 1.3630 1.0201 0.0302
C13 C 1.3251(14) 0.9481(9) 0.2311(9)
C14 C 1.7147(16) 0.6882(11) 0.2911(10)
C15 C 1.1515(15) 0.6974(11) 0.1259(9)
C16 C 1.0691(15) 0.9856(11) -0.1493(10)
C17 C 0.6899(16) 1.1758(11) 0.4721(12)
H7 H 0.5901 1.1923 0.4942
C18 C 0.7545(18) 1.1562(12) 0.3890(12)
H8 H 0.7057 1.1565 0.3428
C19 C 0.9283(15) 1.1411(9) 0.4611(10)
C20 C 1.0736(16) 1.1244(10) 0.4796(10)
C21 C 1.3045(17) 1.0852(10) 0.4503(11)
H9 H 1.3998 1.0660 0.4214
C22 C 1.2616(16) 1.1032(10) 0.5366(12)
H10 H 1.3252 1.1004 0.5753
C23 C 1.3724(17) 1.2729(11) 0.1378(11)
H11 H 1.4478 1.2252 0.1373
C24 C 1.3956(19) 1.3771(11) 0.1016(12)
H12 H 1.4880 1.4135 0.0734
C25 C 1.1523(18) 1.3397(11) 0.1587(10)
C26 C 0.9917(17) 1.3513(11) 0.1803(10)
C27 C 0.7581(18) 1.3304(12) 0.1815(13)
H13 H 0.6703 1.3044 0.1769
C28 C 0.7724(17) 1.4150(11) 0.2071(12)
H14 H 0.6941 1.4574 0.2235
C29 C 0.7562(16) 1.4136(11) 0.5157(12)
H15 H 0.6629 1.4371 0.5085
C30 C 0.7832(16) 1.3545(11) 0.6005(11)
H16 H 0.7111 1.3326 0.6606
C31 C 0.9908(15) 1.3813(10) 0.4860(9)
C32 C 1.1461(16) 1.3905(11) 0.4292(10)
C33 C 1.3432(16) 1.4429(11) 0.3070(11)
H17 H 1.4047 1.4743 0.2446
C34 C 1.3909(15) 1.3912(11) 0.3842(11)
H18 H 1.4904 1.3803 0.3855
N1 N 0.9055(13) 1.1351(8) 0.3807(8)
N2 N 1.1862(12) 1.0997(8) 0.4121(8)
N3 N 1.1111(12) 1.1265(8) 0.5610(9)
N4 N 0.8009(14) 1.1667(9) 0.5197(9)
H19 H 0.7909 1.1755 0.5752
N5 N 1.2174(13) 1.2485(9) 0.1762(9)
N6 N 0.8951(13) 1.2910(9) 0.1639(10)
H20 H 0.9179 1.2369 0.1455
N7 N 1.2560(14) 1.4175(9) 0.1150(9)
H21 H 1.2378 1.4821 0.0983
N8 N 0.9237(13) 1.4307(9) 0.2056(9)
N9 N 0.8873(12) 1.4321(8) 0.4447(8)
N10 N 1.1855(13) 1.4418(8) 0.3361(8)
N11 N 0.9331(11) 1.3328(7) 0.5830(8)
N12 N 1.2657(12) 1.3582(8) 0.4595(9)
H22 H 1.2641 1.3221 0.5177
O1 O 1.1871(10) 0.9242(7) 0.2776(7)
O2 O 1.3812(12) 1.0350(7) 0.2124(9)
O3 O 1.7483(10) 0.7339(7) 0.3430(7)
O4 O 1.7702(11) 0.6060(7) 0.2761(8)
O5 O 1.0865(11) 0.6908(7) 0.2162(7)
O6 O 1.1732(13) 0.6228(7) 0.0977(8)
O7 O 1.0185(12) 0.9156(8) -0.1759(8)
O8 O 1.0730(11) 1.0792(6) -0.1909(7)
Cd1A Cd 0.88248(12) 0.91022(8) -0.28144(8)
Cd2A Cd 0.98785(11) 0.80622(7) 0.31400(7)
Cd2A_2 Cd 1.98785(11) 0.80622(7) 0.31400(7)
Cd2_2 Cd 1.01215(11) 1.19378(7) -0.31400(7)
Cd3_2 Cd 1.98693(11) 0.52801(7) 0.28854(7)
Cd3_3 Cd 0.98693(11) 0.52801(7) 0.28854(7)
O1A O 0.8129(10) 1.0758(7) 0.7224(7)
O3A O 1.2517(10) 1.2661(7) 0.6570(7)
O4_2 O 0.7702(11) 1.6060(7) 0.2761(8)
O5A O 0.9135(11) 1.3092(7) 0.7838(7)
O5_2 O 1.0865(11) 1.6908(7) 0.2162(7)
O7A O 0.9815(12) 1.0844(8) 0.1759(8)
O8_2 O 1.0730(11) 1.0792(6) 0.8091(7)
loop_
_geom_bond_atom_site_label_1
_geom_bond_atom_site_label_2
_geom_bond_site_symmetry_1
_geom_bond_site_symmetry_2
Cd1 N1 1_555 1_555
Cd2 N3 1_555 1_555
Cd3 N8 1_555 1_555
C1 C2 1_555 1_555
C2 H1 1_555 1_555
C3 C2 1_555 1_555
C4 C3 1_555 1_555
H2 C4 1_555 1_555
C5 C4 1_555 1_555
H3 C5 1_555 1_555
C6 C1 1_555 1_555
C7 C6 1_555 1_555
C8 C7 1_555 1_555
C9 C8 1_555 1_555
H4 C9 1_555 1_555
C10 C9 1_555 1_555
C11 C10 1_555 1_555
H5 C11 1_555 1_555
C12 C7 1_555 1_555
H6 C12 1_555 1_555
C13 C1 1_555 1_555
C14 C3 1_555 1_555
C15 C8 1_555 1_555
C16 C10 1_555 1_555
C17 H7 1_555 1_555
C18 C17 1_555 1_555
H8 C18 1_555 1_555
C19 C20 1_555 1_555
C20 N2 1_555 1_555
C21 H9 1_555 1_555
C22 C21 1_555 1_555
H10 C22 1_555 1_555
C23 H11 1_555 1_555
C24 C23 1_555 1_555
H12 C24 1_555 1_555
C25 C26 1_555 1_555
C26 N6 1_555 1_555
C27 H13 1_555 1_555
C28 C27 1_555 1_555
H14 C28 1_555 1_555
C29 H15 1_555 1_555
C30 C29 1_555 1_555
H16 C30 1_555 1_555
C31 C32 1_555 1_555
C32 N10 1_555 1_555
C33 H17 1_555 1_555
C34 C33 1_555 1_555
H18 C34 1_555 1_555
N1 C18 1_555 1_555
N2 Cd1 1_555 1_555
N3 C20 1_555 1_555
N4 C17 1_555 1_555
H19 N4 1_555 1_555
N5 Cd1 1_555 1_555
N6 C27 1_555 1_555
H20 N6 1_555 1_555
N7 C24 1_555 1_555
H21 N7 1_555 1_555
N8 C26 1_555 1_555
N9 Cd3 1_555 1_555
N10 Cd3 1_555 1_555
N11 Cd2 1_555 1_555
N12 C32 1_555 1_555
H22 N12 1_555 1_555
O1 Cd1 1_555 1_555
O2 Cd1 1_555 1_555
O3 C14 1_555 1_555
O4 C14 1_555 1_555
O5 C15 1_555 1_555
O6 C15 1_555 1_555
O7 C16 1_555 1_555
O8 C16 1_555 1_555
Cd1A O7 1_555 1_555
Cd2A O1 1_555 1_555
Cd2A_2 O3 1_555 1_555
Cd2_2 O8 1_555 1_555
Cd3_2 O4 1_555 1_555
Cd3_3 O5 1_555 1_555
O1A Cd2 1_555 1_555
O3A Cd2 1_555 1_555
O4_2 Cd3 1_555 1_555
O5A Cd2 1_555 1_555
O5_2 Cd3 1_555 1_555
O7A Cd1 1_555 1_555
O8_2 Cd2 1_555 1_555
C5 C6 1_555 1_555
C11 C12 1_555 1_555
C13 O1 1_555 1_555
C13 O2 1_555 1_555
C19 N1 1_555 1_555
C19 N4 1_555 1_555
C21 N2 1_555 1_555
C22 N3 1_555 1_555
C23 N5 1_555 1_555
C25 N5 1_555 1_555
C25 N7 1_555 1_555
C28 N8 1_555 1_555
C29 N9 1_555 1_555
C30 N11 1_555 1_555
C31 N9 1_555 1_555
C31 N11 1_555 1_555
C33 N10 1_555 1_555
C34 N12 1_555 1_555
O5 Cd2A 1_555 1_555

#END
