
#######################################################################
#
#                 Cambridge Crystallographic Data Centre
#                                CCDC 
#
#######################################################################
#
# If this CIF has been generated from an entry in the Cambridge 
# Structural Database, then it will include bibliographic, chemical, 
# crystal, experimental, refinement or atomic coordinate data resulting 
# from the CCDC's data processing and validation procedures.
#
#######################################################################

data_ISIKIF
_symmetry_cell_setting           monoclinic
_symmetry_space_group_name_H-M   'P 21/n'
_symmetry_Int_Tables_number      14
_space_group_name_Hall           '-P 2yn'
loop_
_symmetry_equiv_pos_site_id
_symmetry_equiv_pos_as_xyz
1 x,y,z
2 1/2-x,1/2+y,1/2-z
3 -x,-y,-z
4 1/2+x,1/2-y,1/2+z
_cell_length_a                   13.2052(7)
_cell_length_b                   14.1208(5)
_cell_length_c                   14.5661(8)
_cell_angle_alpha                90
_cell_angle_beta                 114.031(6)
_cell_angle_gamma                90
_cell_volume                     2480.69
loop_
_atom_site_label
_atom_site_type_symbol
_atom_site_fract_x
_atom_site_fract_y
_atom_site_fract_z
Co1 Co 0.51780(5) 0.39792(5) 0.26107(6)
Co2 Co 1.33761(6) 0.26693(5) 1.07533(6)
O1 O 0.8975(3) 0.6910(3) 0.6518(3)
O2 O 1.2822(3) 0.4053(3) 1.0676(3)
O3 O 1.0677(3) 0.6773(3) 0.8511(4)
O4 O 1.3856(3) 0.4834(3) 1.2086(3)
O5 O 0.6362(3) 0.4988(3) 0.2682(4)
O6 O 0.6020(4) 0.4915(3) 0.3983(4)
C1 C 1.1804(5) 0.5840(5) 0.9864(5)
H1 H 1.1947 0.5474 0.9400
C2 C 0.9940(5) 0.7570(4) 0.8137(5)
H2 H 1.0286 0.8142 0.8497
H3 H 0.9257 0.7462 0.8222
C3 C 1.3043(4) 0.4769(4) 1.1237(5)
C4 C 0.7815(4) 0.6162(4) 0.5046(5)
H4 H 0.7545 0.5803 0.5433
C5 C 1.2056(4) 0.6162(4) 1.1553(5)
H5 H 1.2388 0.6026 1.2237
C6 C 0.9009(4) 0.7384(4) 0.4929(5)
H6 H 0.9547 0.7843 0.5233
C7 C 1.2291(4) 0.5599(4) 1.0880(5)
C8 C 1.1338(4) 0.6916(4) 1.1221(5)
C9 C 0.8613(4) 0.6841(4) 0.5502(5)
C10 C 1.1111(4) 0.6616(4) 0.9537(4)
C11 C 1.0861(5) 0.7141(4) 1.0206(5)
H7 H 1.0371 0.7647 0.9981
C12 C 0.9704(5) 0.7665(4) 0.7046(5)
H8 H 0.9359 0.8272 0.6793
H9 H 1.0389 0.7627 0.6951
C13 C 0.7407(4) 0.6006(4) 0.4018(5)
C14 C 0.8600(4) 0.7242(4) 0.3901(4)
C15 C 0.7805(4) 0.6547(4) 0.3447(5)
H10 H 0.7541 0.6447 0.2758
C16 C 0.6566(4) 0.5264(4) 0.3541(4)
O7 O 0.8483(3) 0.7909(3) 0.2357(4)
C17 C 0.9030(4) 0.7813(4) 0.3289(4)
O8 O 0.9951(3) 0.8254(2) 0.3689(3)
O9 O 1.1765(3) 0.2146(3) 1.0248(4)
O10 O 1.3233(3) 0.2885(3) 0.9285(4)
O11 O 1.3956(4) 0.1307(3) 1.0662(4)
C18 C 1.1032(4) 0.7479(4) 1.1934(4)
O17 O 1.1542(3) 0.7337(3) 1.2844(3)
O18 O 1.0259(3) 0.8077(3) 1.1575(3)
Co1_2 Co 1.51780(5) 0.39792(5) 1.26107(6)
Co1A Co 0.98220(5) 0.89792(5) 0.23893(6)
Co1A_2 Co 0.98220(5) 0.89792(5) 1.23893(6)
Co2A Co 1.16239(6) 0.76693(5) 0.42467(6)
Co2A_2 Co 1.16239(6) 0.76693(5) 1.42467(6)
O4_2 O 0.3856(3) 0.4834(3) 0.2086(3)
O7A O 0.6517(3) 0.2909(3) 0.2643(4)
O8A O 0.5049(3) 0.3254(2) 0.1311(3)
O8A_2 O 1.5049(3) 0.3254(2) 1.1311(3)
O17A O 1.3458(3) 0.2337(3) 1.2156(3)
O18A O 0.4741(3) 0.3077(3) 0.3425(3)
O12 O 1.1255(4) 0.0501(4) 1.0948(5)
O13 O 1.3710(5) 0.0962(4) 0.8661(5)
O14 O 0.9932(6) 0.4963(5) 0.7156(6)
O15 O 1.1011(7) 0.3870(6) 0.8721(7)
O16 O 1.4023(8) 0.4687(7) 0.9277(8)
loop_
_geom_bond_atom_site_label_1
_geom_bond_atom_site_label_2
_geom_bond_site_symmetry_1
_geom_bond_site_symmetry_2
Co1 O5 1_555 1_555
Co2 O2 1_555 1_555
O1 C9 1_555 1_555
O2 C3 1_555 1_555
O3 C2 1_555 1_555
O4 C3 1_555 1_555
O5 C16 1_555 1_555
O6 Co1 1_555 1_555
C1 H1 1_555 1_555
C2 H2 1_555 1_555
H3 C2 1_555 1_555
C3 C7 1_555 1_555
C4 H4 1_555 1_555
C5 H5 1_555 1_555
C6 H6 1_555 1_555
C7 C1 1_555 1_555
C8 C5 1_555 1_555
C9 C4 1_555 1_555
C10 O3 1_555 1_555
C11 C8 1_555 1_555
H7 C11 1_555 1_555
C12 O1 1_555 1_555
H8 C12 1_555 1_555
H9 C12 1_555 1_555
C13 C4 1_555 1_555
C14 C6 1_555 1_555
C15 C13 1_555 1_555
H10 C15 1_555 1_555
C16 O6 1_555 1_555
O7 C17 1_555 1_555
C17 C14 1_555 1_555
O8 C17 1_555 1_555
O9 Co2 1_555 1_555
O10 Co2 1_555 1_555
O11 Co2 1_555 1_555
C18 C8 1_555 1_555
O17 C18 1_555 1_555
O18 C18 1_555 1_555
Co1_2 O4 1_555 1_555
Co1A O7 1_555 1_555
Co1A_2 O18 1_555 1_555
Co2A O8 1_555 1_555
Co2A_2 O17 1_555 1_555
O4_2 Co1 1_555 1_555
O7A Co1 1_555 1_555
O8A Co1 1_555 1_555
O8A_2 Co2 1_555 1_555
O17A Co2 1_555 1_555
O18A Co1 1_555 1_555
C1 C10 1_555 1_555
C2 C12 1_555 1_555
C5 C7 1_555 1_555
C6 C9 1_555 1_555
C10 C11 1_555 1_555
C13 C16 1_555 1_555
C14 C15 1_555 1_555
O8 Co1A 1_555 1_555
Co1_2 O8A_2 1_555 1_555

#END
