
#######################################################################
#
#                 Cambridge Crystallographic Data Centre
#                                CCDC 
#
#######################################################################
#
# If this CIF has been generated from an entry in the Cambridge 
# Structural Database, then it will include bibliographic, chemical, 
# crystal, experimental, refinement or atomic coordinate data resulting 
# from the CCDC's data processing and validation procedures.
#
#######################################################################

data_ISIKUQ
_symmetry_cell_setting           orthorhombic
_symmetry_space_group_name_H-M   'P c c a'
_symmetry_Int_Tables_number      54
_space_group_name_Hall           '-P 2a 2ac'
loop_
_symmetry_equiv_pos_site_id
_symmetry_equiv_pos_as_xyz
1 x,y,z
2 1/2+x,y,-z
3 x,-y,1/2+z
4 1/2-x,y,1/2+z
5 -x,-y,-z
6 1/2-x,-y,z
7 -x,y,1/2-z
8 1/2+x,-y,1/2-z
_cell_length_a                   15.9401(8)
_cell_length_b                   9.0137(4)
_cell_length_c                   22.0831(11)
_cell_angle_alpha                90
_cell_angle_beta                 90
_cell_angle_gamma                90
_cell_volume                     3172.88
loop_
_atom_site_label
_atom_site_type_symbol
_atom_site_fract_x
_atom_site_fract_y
_atom_site_fract_z
Cd1 Cd 0.133942(10) 0.855394(18) 0.087193(8)
O1 O 0.20323(12) 0.64423(18) 0.05592(7)
O2 O 0.17985(10) 0.73259(18) 0.17739(7)
O3 O 0.2500 0.5000 0.25867(10)
O4 O 0.2500 1.0000 0.05741(10)
O5 O 0.11610(10) 0.8921(2) -0.01663(8)
O6 O 0.16816(15) 0.9266(3) -0.14576(9)
N1 N 0.09561(12) 1.0559(2) 0.14264(9)
N2 N 0.00202(12) 0.7538(2) 0.09146(9)
C1 C 0.22807(14) 0.5699(3) 0.10025(10)
C2 C 0.21529(14) 0.6147(2) 0.16284(10)
C3 C 0.2500 0.5000 0.20359(14)
C4 C 0.2500 1.0000 -0.00054(14)
C5 C 0.18299(14) 0.9457(2) -0.03698(10)
C6 C 0.20752(17) 0.9636(3) -0.10122(11)
C7 C 0.12847(14) 1.0837(3) 0.19685(12)
H1 H 0.1626 1.0119 0.2144
C8 C 0.11461(15) 1.2119(3) 0.22796(11)
H2 H 0.1388 1.2258 0.2659
C9 C 0.06465(14) 1.3213(3) 0.20310(11)
C10 C 0.03024(18) 1.2925(3) 0.14712(13)
H3 H -0.0037 1.3629 0.1284
C11 C 0.04607(19) 1.1600(3) 0.11900(13)
H4 H 0.0211 1.1418 0.0817
C12 C 0.04527(15) 1.4601(3) 0.23773(13)
H5 H 0.0530 1.5453 0.2115
H6 H 0.0842 1.4693 0.2713
C13 C -0.04623(15) 0.7677(3) 0.14049(11)
H7 H -0.0243 0.8167 0.1740
C14 C -0.12675(15) 0.7135(3) 0.14408(12)
H8 H -0.1574 0.7239 0.1797
C15 C -0.16161(16) 0.6439(3) 0.09486(11)
C16 C -0.11131(18) 0.6287(3) 0.04402(13)
H9 H -0.1318 0.5806 0.0098
C17 C -0.03137(17) 0.6846(3) 0.04421(12)
H10 H 0.0011 0.6735 0.0095
C18 C -0.24946(15) 0.5842(3) 0.09588(11)
H11 H -0.2796 0.6204 0.0607
H12 H -0.2780 0.6203 0.1317
C1E C 0.27193(14) 0.4301(3) 0.10025(10)
O1E O 0.29677(12) 0.35577(18) 0.05592(7)
C2E C 0.28471(14) 0.3853(2) 0.16284(10)
O2E O 0.32015(10) 0.26741(18) 0.17739(7)
C6E C 0.29248(17) 1.0364(3) -0.10122(11)
O6E O 0.33184(15) 1.0734(3) -0.14576(9)
C5E C 0.31701(14) 1.0543(2) -0.03698(10)
O5E O 0.38390(10) 1.1079(2) -0.01663(8)
C12F C -0.04527(15) 1.4601(3) 0.26227(13)
C9F C -0.06465(14) 1.3213(3) 0.29690(11)
C8F C -0.11461(15) 1.2119(3) 0.27204(11)
C7F C -0.12847(14) 1.0837(3) 0.30315(12)
N1F N -0.09561(12) 1.0559(2) 0.35736(9)
C11F C -0.04607(19) 1.1600(3) 0.38100(13)
C10F C -0.03024(18) 1.2925(3) 0.35288(13)
H3F H 0.0037 1.3629 0.3716
H4F H -0.0211 1.1418 0.4183
H1F H -0.1626 1.0119 0.2856
H2F H -0.1388 1.2258 0.2341
H5F H -0.0530 1.5453 0.2885
H6F H -0.0842 1.4693 0.2287
C18E C -0.25054(15) 0.4158(3) 0.09588(11)
C15E C -0.33839(16) 0.3561(3) 0.09486(11)
C14E C -0.37325(15) 0.2865(3) 0.14408(12)
C13E C -0.45377(15) 0.2323(3) 0.14049(11)
N2E N -0.50202(12) 0.2462(2) 0.09146(9)
C17E C -0.46863(17) 0.3154(3) 0.04421(12)
C16E C -0.38869(18) 0.3713(3) 0.04402(13)
H9E H -0.3682 0.4194 0.0098
H10E H -0.5011 0.3265 0.0095
H7E H -0.4757 0.1833 0.1740
H8E H -0.3426 0.2761 0.1797
H11E H -0.2204 0.3796 0.0607
H12E H -0.2220 0.3797 0.1317
Cd1E Cd 0.366058(10) 0.144606(18) 0.087193(8)
Cd1E_2 Cd 0.366058(10) 1.144606(18) 0.087193(8)
Cd1F Cd -0.133942(10) 0.855394(18) 0.412807(8)
Cd1E_3 Cd -0.633942(10) 0.144606(18) 0.087193(8)
O4_2 O 0.2500 0.0000 0.05741(10)
O5E_2 O 0.38390(10) 0.1079(2) -0.01663(8)
N1E N 0.40439(12) -0.0559(2) 0.14264(9)
N2E_2 N 0.49798(12) 0.2462(2) 0.09146(9)
loop_
_geom_bond_atom_site_label_1
_geom_bond_atom_site_label_2
_geom_bond_site_symmetry_1
_geom_bond_site_symmetry_2
Cd1 O1 1_555 1_555
O1 C1 1_555 1_555
O2 Cd1 1_555 1_555
O3 C3 1_555 1_555
O4 Cd1 1_555 1_555
O5 Cd1 1_555 1_555
O6 C6 1_555 1_555
N1 Cd1 1_555 1_555
N2 Cd1 1_555 1_555
C1 C2 1_555 1_555
C2 O2 1_555 1_555
C3 C2 1_555 1_555
C4 O4 1_555 1_555
C5 O5 1_555 1_555
C6 C5 1_555 1_555
C7 N1 1_555 1_555
H1 C7 1_555 1_555
C8 C7 1_555 1_555
H2 C8 1_555 1_555
C9 C8 1_555 1_555
C10 C9 1_555 1_555
H3 C10 1_555 1_555
C11 N1 1_555 1_555
H4 C11 1_555 1_555
C12 C9 1_555 1_555
H5 C12 1_555 1_555
H6 C12 1_555 1_555
C13 N2 1_555 1_555
H7 C13 1_555 1_555
C14 C13 1_555 1_555
H8 C14 1_555 1_555
C15 C14 1_555 1_555
C16 C15 1_555 1_555
H9 C16 1_555 1_555
C17 N2 1_555 1_555
H10 C17 1_555 1_555
C18 C15 1_555 1_555
H11 C18 1_555 1_555
H12 C18 1_555 1_555
C1E C1 1_555 1_555
O1E C1E 1_555 1_555
C2E C3 1_555 1_555
O2E C2E 1_555 1_555
C6E C6 1_555 1_555
O6E C6E 1_555 1_555
C5E C4 1_555 1_555
O5E C5E 1_555 1_555
C12F C12 1_555 1_555
C9F C12F 1_555 1_555
C8F C9F 1_555 1_555
C7F C8F 1_555 1_555
N1F C7F 1_555 1_555
C11F N1F 1_555 1_555
C10F C9F 1_555 1_555
H3F C10F 1_555 1_555
H4F C11F 1_555 1_555
H1F C7F 1_555 1_555
H2F C8F 1_555 1_555
H5F C12F 1_555 1_555
H6F C12F 1_555 1_555
C18E C18 1_555 1_555
C15E C18E 1_555 1_555
C14E C15E 1_555 1_555
C13E C14E 1_555 1_555
N2E C13E 1_555 1_555
C17E N2E 1_555 1_555
C16E C15E 1_555 1_555
H9E C16E 1_555 1_555
H10E C17E 1_555 1_555
H7E C13E 1_555 1_555
H8E C14E 1_555 1_555
H11E C18E 1_555 1_555
H12E C18E 1_555 1_555
Cd1E O1E 1_555 1_555
Cd1E_2 O4 1_555 1_555
Cd1F N1F 1_555 1_555
Cd1E_3 N2E 1_555 1_555
O4_2 Cd1E 1_555 1_555
O5E_2 Cd1E 1_555 1_555
N1E Cd1E 1_555 1_555
N2E_2 Cd1E 1_555 1_555
C4 C5 1_555 1_555
C10 C11 1_555 1_555
C16 C17 1_555 1_555
C1E C2E 1_555 1_555
O2E Cd1E 1_555 1_555
C6E C5E 1_555 1_555
O5E Cd1E_2 1_555 1_555
C11F C10F 1_555 1_555
C17E C16E 1_555 1_555

#END
