
#######################################################################
#
#                 Cambridge Crystallographic Data Centre
#                                CCDC 
#
#######################################################################
#
# If this CIF has been generated from an entry in the Cambridge 
# Structural Database, then it will include bibliographic, chemical, 
# crystal, experimental, refinement or atomic coordinate data resulting 
# from the CCDC's data processing and validation procedures.
#
#######################################################################

data_ISILIG
_symmetry_cell_setting           orthorhombic
_symmetry_space_group_name_H-M   'P 21 a b'
_symmetry_Int_Tables_number      29
_space_group_name_Hall           'P -2b 2a'
loop_
_symmetry_equiv_pos_site_id
_symmetry_equiv_pos_as_xyz
1 x,y,z
2 1/2+x,-y,-z
3 1/2+x,1/2-y,z
4 x,1/2+y,-z
_cell_length_a                   17.3533(4)
_cell_length_b                   18.3104(7)
_cell_length_c                   18.9124(8)
_cell_angle_alpha                90
_cell_angle_beta                 90
_cell_angle_gamma                90
_cell_volume                     6009.34
loop_
_atom_site_label
_atom_site_type_symbol
_atom_site_fract_x
_atom_site_fract_y
_atom_site_fract_z
Co1 Co 1.10881(3) -0.73133(3) 0.96805(4)
Co2 Co 1.31565(3) -1.19256(4) 0.53426(4)
O1 O 1.20906(18) -0.7374(2) 1.0160(2)
O2 O 1.55961(19) -0.66825(19) 1.0313(2)
O3 O 1.49760(19) -0.7677(2) 1.0032(2)
O4 O 1.51823(19) -0.4229(2) 1.2839(2)
N1 N 1.2583(2) -0.9723(3) 0.5670(2)
O5 O 1.38135(18) -0.5469(2) 1.2123(2)
N2 N 1.1245(2) -0.8670(3) 0.7876(3)
O6 O 1.15774(19) -0.6658(2) 1.0970(2)
N3 N 1.3098(3) -1.0827(2) 0.5585(2)
N4 N 1.3329(2) -0.3113(3) 0.7236(2)
C1 C 1.4306(3) -0.6785(3) 1.0745(3)
N5 N 1.3309(2) -0.2399(2) 0.6306(2)
C2 C 1.5002(3) -0.7064(3) 1.0339(3)
N6 N 1.1143(3) -0.6253(2) 0.9333(2)
N7 N 1.1084(3) -0.7867(2) 0.8737(2)
C3 C 1.3779(3) -0.6001(3) 1.1603(3)
C4 C 1.3579(3) -0.7045(3) 1.0567(3)
H1 H 1.3517 -0.7407 1.0227
C5 C 1.2354(3) -0.3460(4) 0.6329(3)
C6 C 1.2080(3) -0.8834(4) 0.8938(3)
C7 C 1.1472(3) -0.8459(3) 0.8539(3)
C8 C 1.2086(3) -0.9114(3) 0.5842(3)
H2 H 1.1568 -0.9298 0.5916
H3 H 1.2070 -0.8787 0.5439
N8 N 1.1522(3) -0.5214(3) 0.8893(3)
C9 C 1.4408(3) -0.6280(3) 1.1252(3)
H4 H 1.4901 -0.6120 1.1366
C10 C 1.2497(3) -1.0450(3) 0.5798(3)
C11 C 1.2776(3) -0.8468(4) 0.9041(3)
H5 H 1.2836 -0.7988 0.8888
C12 C 1.4453(3) -0.4493(4) 1.2709(4)
H6 H 1.4133 -0.4122 1.2490
H7 H 1.4209 -0.4654 1.3143
C13 C 1.3609(3) -1.0315(3) 0.5325(3)
H8 H 1.4090 -1.0424 0.5136
C14 C 1.3043(3) -0.6238(3) 1.1439(3)
H9 H 1.2619 -0.6055 1.1683
C15 C 1.1636(3) -0.3171(3) 0.6237(3)
H10 H 1.1556 -0.2676 0.6320
C16 C 1.1818(3) -1.0754(3) 0.6144(3)
C17 C 1.2946(3) -0.6745(3) 1.0916(3)
C18 C 1.2317(3) -0.8686(3) 0.6478(3)
H11 H 1.1962 -0.8282 0.6538
H12 H 1.2827 -0.8483 0.6401
C19 C 1.1551(3) -0.9292(3) 0.7472(3)
H13 H 1.1188 -0.9420 0.7103
H14 H 1.1602 -0.9709 0.7784
C20 C 1.3317(3) -0.9642(3) 0.5381(3)
H15 H 1.3556 -0.9207 0.5253
C21 C 1.3005(3) -0.2980(3) 0.6606(3)
C22 C 1.2300(3) -0.6278(3) 0.8558(4)
C23 C 1.0920(4) -0.5063(4) 0.9320(4)
H16 H 1.0710 -0.4605 0.9410
C24 C 1.2327(3) -0.9129(4) 0.7140(3)
H17 H 1.2641 -0.8876 0.7486
H18 H 1.2579 -0.9591 0.7038
C25 C 1.4577(3) -0.5123(4) 1.2215(3)
H19 H 1.4775 -0.4953 1.1765
H20 H 1.4941 -0.5467 1.2416
C26 C 1.2014(4) -0.9535(4) 0.9193(4)
H21 H 1.1553 -0.9785 0.9126
C27 C 1.0679(3) -0.5713(3) 0.9595(3)
H22 H 1.0270 -0.5778 0.9907
C28 C 1.3104(4) -0.3673(3) 0.7772(3)
H23 H 1.3517 -0.3725 0.8114
H24 H 1.3037 -0.4140 0.7539
C29 C 1.2128(3) -0.6948(3) 1.0670(4)
C30 C 1.0688(3) -0.8171(4) 0.7673(4)
H25 H 1.0427 -0.8175 0.7243
C31 C 1.0580(3) -0.7683(4) 0.8187(4)
H26 H 1.0236 -0.7294 0.8181
C32 C 1.1662(3) -0.5932(3) 0.8922(3)
C33 C 1.3858(3) -0.2557(4) 0.7363(3)
H27 H 1.4160 -0.2485 0.7764
C34 C 1.2495(4) -0.4190(4) 0.6182(3)
H28 H 1.2990 -0.4383 0.6216
C35 C 1.1305(5) -1.1389(4) 0.7164(4)
H29 H 1.1370 -1.1620 0.7597
C36 C 1.1093(4) -1.0708(3) 0.5856(3)
H30 H 1.1020 -1.0477 0.5424
C37 C 1.1891(5) -0.4617(4) 0.5989(4)
H31 H 1.1968 -0.5113 0.5914
C38 C 1.1189(5) -0.4338(5) 0.5907(4)
H32 H 1.0789 -0.4643 0.5767
C39 C 1.1921(4) -1.1099(3) 0.6795(4)
H33 H 1.2414 -1.1135 0.6985
C40 C 1.3634(4) -0.6605(4) 0.8486(4)
H34 H 1.4126 -0.6586 0.8681
C41 C 1.0456(4) -1.1015(5) 0.6220(5)
H35 H 0.9963 -1.1007 0.6026
C42 C 1.2582(5) -0.9867(4) 0.9530(4)
H36 H 1.2504 -1.0334 0.9710
C43 C 1.3382(4) -0.8830(5) 0.9375(3)
H37 H 1.3855 -0.8600 0.9438
C44 C 1.3523(4) -0.6945(4) 0.7844(4)
H38 H 1.3936 -0.7152 0.7602
C45 C 1.3833(3) -0.2150(3) 0.6781(3)
H39 H 1.4141 -0.1741 0.6707
C46 C 1.1035(4) -0.3597(5) 0.6025(3)
H40 H 1.0544 -0.3404 0.5961
C47 C 1.3269(5) -0.9544(5) 0.9615(4)
H41 H 1.3669 -0.9795 0.9834
C48 C 1.1871(4) -0.4677(4) 0.8374(5)
H42 H 1.2298 -0.4910 0.8130
H43 H 1.1487 -0.4548 0.8022
C49 C 1.2179(4) -0.6619(4) 0.7934(4)
H44 H 1.1686 -0.6621 0.7742
C50 C 1.2372(4) -0.3477(3) 0.8154(4)
H45 H 1.1963 -0.3411 0.7811
H46 H 1.2445 -0.3016 0.8399
C51 C 1.2127(5) -0.4061(4) 0.8691(5)
H47 H 1.2563 -0.4180 0.8991
H48 H 1.1722 -0.3865 0.8989
C52 C 1.3022(4) -0.6290(4) 0.8846(3)
H49 H 1.3104 -0.6085 0.9289
C53 C 1.0590(5) -1.1319(4) 0.6858(5)
H50 H 1.0168 -1.1495 0.7110
C54 C 1.2782(4) -0.6974(4) 0.7564(4)
H51 H 1.2684 -0.7220 0.7143
C55 C 1.6056(3) -0.3661(3) 1.3614(3)
H52 H 1.6452 -0.3909 1.3386
C56 C 1.6214(3) -0.3214(3) 1.4169(3)
C57 C 1.5291(3) -0.3745(3) 1.3386(3)
C58 C 1.7006(3) -0.3181(3) 1.4466(4)
C59 C 1.4865(3) -0.2910(3) 1.4297(3)
C60 C 1.5617(3) -0.2820(3) 1.4505(3)
H53 H 1.5734 -0.2498 1.4870
C61 C 1.4702(3) -0.3373(3) 1.3724(3)
H54 H 1.4196 -0.3431 1.3572
O10 O 1.70937(19) -0.2827(2) 1.5046(2)
O11 O 1.7536(2) -0.3509(2) 1.4162(2)
C62 C 1.4206(3) -0.2575(4) 1.4683(3)
O12 O 1.3594(2) -0.28928(19) 1.4734(2)
O13 O 1.43132(19) -0.1951(2) 1.4965(2)
Co1B Co 1.60881(3) -0.76867(3) 0.96805(4)
Co2_2 Co 1.31565(3) -0.19256(4) 0.53426(4)
Co2B Co 1.81565(3) -0.30744(4) 1.53426(4)
Co2_3 Co 1.31565(3) -0.19256(4) 1.53426(4)
O2B O 1.05961(19) -0.83175(19) 1.0313(2)
O3B O 0.99760(19) -0.7323(2) 1.0032(2)
N5_2 N 1.3309(2) -1.2399(2) 0.6306(2)
O10B O 1.20937(19) -1.2173(2) 0.5046(2)
O12_2 O 1.3594(2) -1.28928(19) 0.4734(2)
O13_2 O 1.43132(19) -1.1951(2) 0.4965(2)
O7 O 0.9978(2) -0.6401(3) 0.1282(2)
O8 O 1.0069(3) -0.4019(3) 0.3950(3)
O9 O 1.3692(4) -0.0575(4) 0.3391(4)
loop_
_geom_bond_atom_site_label_1
_geom_bond_atom_site_label_2
_geom_bond_site_symmetry_1
_geom_bond_site_symmetry_2
Co1 O1 1_555 1_555
Co2 N3 1_555 1_555
O1 C29 1_555 1_555
O2 C2 1_555 1_555
O3 C2 1_555 1_555
O4 C12 1_555 1_555
N1 C8 1_555 1_555
O5 C3 1_555 1_555
N2 C7 1_555 1_555
O6 C29 1_555 1_555
N3 C10 1_555 1_555
N4 C21 1_555 1_555
C1 C2 1_555 1_555
N5 C21 1_555 1_555
N6 Co1 1_555 1_555
N7 Co1 1_555 1_555
C3 C9 1_555 1_555
C4 C1 1_555 1_555
H1 C4 1_555 1_555
C5 C15 1_555 1_555
C6 C7 1_555 1_555
C7 N7 1_555 1_555
C8 H2 1_555 1_555
H3 C8 1_555 1_555
N8 C23 1_555 1_555
C9 C1 1_555 1_555
H4 C9 1_555 1_555
C10 N1 1_555 1_555
C11 C6 1_555 1_555
H5 C11 1_555 1_555
C12 H6 1_555 1_555
H7 C12 1_555 1_555
C13 N3 1_555 1_555
H8 C13 1_555 1_555
C14 C3 1_555 1_555
H9 C14 1_555 1_555
C15 H10 1_555 1_555
C16 C10 1_555 1_555
C17 C4 1_555 1_555
C18 C8 1_555 1_555
H11 C18 1_555 1_555
H12 C18 1_555 1_555
C19 N2 1_555 1_555
H13 C19 1_555 1_555
H14 C19 1_555 1_555
C20 N1 1_555 1_555
H15 C20 1_555 1_555
C21 C5 1_555 1_555
C22 C32 1_555 1_555
C23 H16 1_555 1_555
C24 C18 1_555 1_555
H17 C24 1_555 1_555
H18 C24 1_555 1_555
C25 O5 1_555 1_555
H19 C25 1_555 1_555
H20 C25 1_555 1_555
C26 C6 1_555 1_555
H21 C26 1_555 1_555
C27 N6 1_555 1_555
H22 C27 1_555 1_555
C28 N4 1_555 1_555
H23 C28 1_555 1_555
H24 C28 1_555 1_555
C29 C17 1_555 1_555
C30 N2 1_555 1_555
H25 C30 1_555 1_555
C31 N7 1_555 1_555
H26 C31 1_555 1_555
C32 N6 1_555 1_555
C33 N4 1_555 1_555
H27 C33 1_555 1_555
C34 C5 1_555 1_555
H28 C34 1_555 1_555
C35 H29 1_555 1_555
C36 C16 1_555 1_555
H30 C36 1_555 1_555
C37 C34 1_555 1_555
H31 C37 1_555 1_555
C38 C37 1_555 1_555
H32 C38 1_555 1_555
C39 C16 1_555 1_555
H33 C39 1_555 1_555
C40 H34 1_555 1_555
C41 C36 1_555 1_555
H35 C41 1_555 1_555
C42 C26 1_555 1_555
H36 C42 1_555 1_555
C43 C11 1_555 1_555
H37 C43 1_555 1_555
C44 C40 1_555 1_555
H38 C44 1_555 1_555
C45 N5 1_555 1_555
H39 C45 1_555 1_555
C46 C15 1_555 1_555
H40 C46 1_555 1_555
C47 C42 1_555 1_555
H41 C47 1_555 1_555
C48 N8 1_555 1_555
H42 C48 1_555 1_555
H43 C48 1_555 1_555
C49 C22 1_555 1_555
H44 C49 1_555 1_555
C50 C28 1_555 1_555
H45 C50 1_555 1_555
H46 C50 1_555 1_555
C51 C48 1_555 1_555
H47 C51 1_555 1_555
H48 C51 1_555 1_555
C52 C22 1_555 1_555
H49 C52 1_555 1_555
C53 C35 1_555 1_555
H50 C53 1_555 1_555
C54 C44 1_555 1_555
H51 C54 1_555 1_555
C55 H52 1_555 1_555
C56 C55 1_555 1_555
C57 O4 1_555 1_555
C58 C56 1_555 1_555
C59 C60 1_555 1_555
C60 C56 1_555 1_555
H53 C60 1_555 1_555
C61 C57 1_555 1_555
H54 C61 1_555 1_555
O10 C58 1_555 1_555
O11 C58 1_555 1_555
C62 C59 1_555 1_555
O12 C62 1_555 1_555
O13 C62 1_555 1_555
Co1B O2 1_555 1_555
Co2_2 N5 1_555 1_555
Co2B O10 1_555 1_555
Co2_3 O12 1_555 1_555
O2B Co1 1_555 1_555
O3B Co1 1_555 1_555
N5_2 Co2 1_555 1_555
O10B Co2 1_555 1_555
O12_2 Co2 1_555 1_555
O13_2 Co2 1_555 1_555
O3 Co1B 1_555 1_555
N8 C32 1_555 1_555
C12 C25 1_555 1_555
C13 C20 1_555 1_555
C14 C17 1_555 1_555
C19 C24 1_555 1_555
C23 C27 1_555 1_555
C30 C31 1_555 1_555
C33 C45 1_555 1_555
C35 C39 1_555 1_555
C38 C46 1_555 1_555
C40 C52 1_555 1_555
C41 C53 1_555 1_555
C43 C47 1_555 1_555
C49 C54 1_555 1_555
C50 C51 1_555 1_555
C55 C57 1_555 1_555
C59 C61 1_555 1_555
O13 Co2_3 1_555 1_555

#END
