
#######################################################################
#
#                 Cambridge Crystallographic Data Centre
#                                CCDC 
#
#######################################################################
#
# If this CIF has been generated from an entry in the Cambridge 
# Structural Database, then it will include bibliographic, chemical, 
# crystal, experimental, refinement or atomic coordinate data resulting 
# from the CCDC's data processing and validation procedures.
#
#######################################################################

data_ISILOM
_symmetry_cell_setting           triclinic
_symmetry_space_group_name_H-M   'P -1'
_symmetry_Int_Tables_number      2
_space_group_name_Hall           '-P 1'
loop_
_symmetry_equiv_pos_site_id
_symmetry_equiv_pos_as_xyz
1 x,y,z
2 -x,-y,-z
_cell_length_a                   8.7580(8)
_cell_length_b                   10.2209(9)
_cell_length_c                   14.2237(10)
_cell_angle_alpha                90.062(6)
_cell_angle_beta                 97.300(7)
_cell_angle_gamma                95.220(7)
_cell_volume                     1257.57
loop_
_atom_site_label
_atom_site_type_symbol
_atom_site_fract_x
_atom_site_fract_y
_atom_site_fract_z
Ni1 Ni 0.11463(8) -1.20311(6) 1.30699(4)
O1 O 0.0717(5) -1.5290(3) 1.3893(2)
O2 O 0.4508(5) -1.6293(3) 1.0763(2)
O3 O 0.8982(4) -0.9953(3) 0.7084(2)
O4 O 0.6655(4) -0.9533(3) 0.7369(2)
O5 O 0.1976(4) -1.3782(3) 1.3066(2)
N1 N -0.3329(5) -1.2858(4) 1.3828(3)
C1 C 0.1575(6) -1.4939(5) 1.3301(3)
N2 N 0.2634(5) -1.2165(4) 1.5985(3)
N3 N 0.0742(6) -1.2137(5) 2.0047(3)
N4 N -0.1133(5) -1.2412(4) 1.3236(3)
N5 N 0.2005(5) -1.1761(4) 1.4480(2)
C2 C 0.7650(7) -1.0301(5) 0.7309(3)
N6 N 0.0676(5) -1.2312(4) 2.1593(3)
C3 C 0.2580(7) -1.2802(5) 1.6904(3)
H1 H 0.1833 -1.3568 1.6833
H2 H 0.3585 -1.3093 1.7128
C4 C 0.3719(6) -1.6568(5) 1.1528(3)
C5 C 0.2282(6) -1.5997(4) 1.2766(3)
C6 C 0.1247(7) -1.1637(5) 2.0918(3)
H3 H 0.1933 -1.0888 2.1028
C7 C -0.3671(7) -1.2213(5) 1.3013(4)
H4 H -0.4641 -1.1994 1.2751
C8 C 0.3106(6) -1.5619(5) 1.2029(3)
H5 H 0.3248 -1.4738 1.1871
C9 C 0.2020(6) -1.7306(4) 1.2986(3)
H6 H 0.1416 -1.7555 1.3460
C10 C 0.1824(6) -1.2585(5) 1.5166(3)
H7 H 0.1200 -1.3374 1.5093
C11 C 0.1757(7) -1.2531(5) 1.8528(3)
H8 H 0.2685 -1.2847 1.8862
H9 H 0.1005 -1.3281 1.8373
C12 C -0.4397(6) -1.3308(5) 1.4496(4)
H10 H -0.4080 -1.2859 1.5100
H11 H -0.5425 -1.3078 1.4260
C13 C 0.4621(7) -1.4978(5) 1.0440(4)
H12 H 0.3604 -1.4666 1.0304
H13 H 0.5239 -1.4401 1.0913
C14 C -0.4448(6) -1.4777(5) 1.4643(4)
H14 H -0.4784 -1.5228 1.4042
H15 H -0.3419 -1.5011 1.4871
C15 C 0.2135(7) -1.1860(5) 1.7621(3)
H16 H 0.2980 -1.1182 1.7776
H17 H 0.1242 -1.1437 1.7339
C16 C 0.6475(6) -1.2122(4) 0.8226(3)
H18 H 0.6026 -1.1495 0.8547
C17 C 0.3002(7) -1.0740(5) 1.4887(3)
H19 H 0.3359 -1.0000 1.4572
C18 C 0.7330(5) -1.1743(4) 0.7509(3)
C19 C -0.0252(7) -1.3319(6) 2.1131(4)
H20 H -0.0824 -1.3976 2.1423
C20 C -0.1802(6) -1.2974(5) 1.3926(4)
H21 H -0.1278 -1.3404 1.4426
C21 C -0.0216(8) -1.3218(6) 2.0178(4)
H22 H -0.0747 -1.3782 1.9709
C22 C 0.3378(7) -1.0981(5) 1.5813(3)
H23 H 0.4023 -1.0442 1.6252
C23 C -0.2329(7) -1.1950(5) 1.2652(4)
H24 H -0.2227 -1.1516 1.2086
C24 C 0.1117(8) -1.1583(6) 1.9153(3)
H25 H 0.0190 -1.1276 1.8811
H26 H 0.1868 -1.0827 1.9287
Ni1A Ni 0.88537(8) -0.79689(6) 0.69301(4)
Ni1_2 Ni 0.11463(8) -2.20311(6) 1.30699(4)
Ni1A_2 Ni 0.88537(8) -1.79689(6) 0.69301(4)
Ni1_3 Ni 2.11463(8) -0.20311(6) 0.30699(4)
Ni1A_3 Ni -1.11463(8) -1.79689(6) 1.69301(4)
Ni1_4 Ni 0.11463(8) -1.20311(6) 2.30699(4)
O1A O 0.9283(5) -1.4710(3) 0.6107(2)
O2A O 0.5492(5) -1.3707(3) 0.9237(2)
O3A O 0.1018(4) -1.0047(3) 1.2916(2)
O3A_2 O 0.1018(4) -2.0047(3) 1.2916(2)
O4A O 0.3345(4) -1.0467(3) 1.2631(2)
O4A_2 O 0.3345(4) -2.0467(3) 1.2631(2)
O5A O 0.8024(4) -0.6218(3) 0.6934(2)
O5A_2 O 0.8024(4) -1.6218(3) 0.6934(2)
N1A N 1.3329(5) -0.7142(4) 0.6172(3)
N1A_2 N -0.6671(5) -1.7142(4) 1.6172(3)
N1_2 N 1.6671(5) -0.2858(4) 0.3828(3)
C1A C 0.8425(6) -1.5061(5) 0.6699(3)
N4A N 1.1133(5) -0.7588(4) 0.6764(3)
N4_2 N 1.8867(5) -0.2412(4) 0.3236(3)
N4A_2 N -0.8867(5) -1.7588(4) 1.6764(3)
N5A N 0.7995(5) -0.8239(4) 0.5520(2)
C2A C 0.2350(7) -1.9699(5) 1.2691(3)
N6_2 N 0.0676(5) -1.2312(4) 1.1593(3)
N6A N 0.9324(5) -0.7688(4) 0.8407(3)
C4A C 0.6281(6) -1.3432(5) 0.8472(3)
C5A C 0.7718(6) -1.4003(4) 0.7234(3)
C7A C 1.3671(7) -0.7787(5) 0.6987(4)
C7A_2 C -0.6329(7) -1.7787(5) 1.6987(4)
C7_2 C 1.6329(7) -0.2213(5) 0.3013(4)
H4A H 1.4641 -0.8006 0.7249
H4A_2 H -0.5359 -1.8006 1.7249
H4_2 H 1.5359 -0.1994 0.2751
C8A C 0.6894(6) -1.4381(5) 0.7971(3)
H5A H 0.6752 -1.5262 0.8129
C9A C 0.7980(6) -1.2694(4) 0.7014(3)
H6A H 0.8584 -1.2445 0.6540
C12A C 1.4397(6) -0.6692(5) 0.5504(4)
C12A_2 C -0.5603(6) -1.6692(5) 1.5504(4)
C12_2 C 1.5603(6) -0.3308(5) 0.4496(4)
H10A H 1.4080 -0.7141 0.4900
H10A_2 H -0.5920 -1.7141 1.4900
H10_2 H 1.5920 -0.2859 0.5100
H11A H 1.5425 -0.6922 0.5740
H11A_2 H -0.4575 -1.6922 1.5740
H11_2 H 1.4575 -0.3078 0.4260
C13A C 0.5379(7) -1.5022(5) 0.9560(4)
H12A H 0.6396 -1.5334 0.9696
H13A H 0.4761 -1.5599 0.9087
C14A C 1.4448(6) -0.5223(5) 0.5357(4)
C14A_2 C -0.5552(6) -1.5223(5) 1.5357(4)
C14_2 C 1.5552(6) -0.4777(5) 0.4643(4)
H14A H 1.4784 -0.4772 0.5958
H14A_2 H -0.5216 -1.4772 1.5958
H14_2 H 1.5216 -0.5228 0.4042
H15A H 1.3419 -0.4989 0.5129
H15A_2 H -0.6581 -1.4989 1.5129
H15_2 H 1.6581 -0.5011 0.4871
C16A C 0.3525(6) -1.7878(4) 1.1774(3)
H18A H 0.3974 -1.8505 1.1453
C18A C 0.2670(5) -1.8257(4) 1.2491(3)
C20A C 1.1802(6) -0.7026(5) 0.6074(4)
C20A_2 C -0.8198(6) -1.7026(5) 1.6074(4)
C20_2 C 1.8198(6) -0.2974(5) 0.3926(4)
H21A H 1.1278 -0.6596 0.5574
H21A_2 H -0.8722 -1.6596 1.5574
H21_2 H 1.8722 -0.3404 0.4426
C23A C 1.2329(7) -0.8050(5) 0.7348(4)
C23A_2 C -0.7671(7) -1.8050(5) 1.7348(4)
C23_2 C 1.7671(7) -0.1950(5) 0.2652(4)
H24A H 1.2227 -0.8484 0.7914
H24A_2 H -0.7773 -1.8484 1.7914
H24_2 H 1.7773 -0.1516 0.2086
loop_
_geom_bond_atom_site_label_1
_geom_bond_atom_site_label_2
_geom_bond_site_symmetry_1
_geom_bond_site_symmetry_2
Ni1 O5 1_555 1_555
O1 C1 1_555 1_555
O2 C4 1_555 1_555
O3 C2 1_555 1_555
O4 C2 1_555 1_555
O5 C1 1_555 1_555
N1 C7 1_555 1_555
C1 C5 1_555 1_555
N2 C3 1_555 1_555
N3 C6 1_555 1_555
N4 Ni1 1_555 1_555
N5 Ni1 1_555 1_555
C2 C18 1_555 1_555
N6 C6 1_555 1_555
C3 H1 1_555 1_555
H2 C3 1_555 1_555
C4 C8 1_555 1_555
C5 C8 1_555 1_555
C6 H3 1_555 1_555
C7 H4 1_555 1_555
C8 H5 1_555 1_555
C9 C5 1_555 1_555
H6 C9 1_555 1_555
C10 N2 1_555 1_555
H7 C10 1_555 1_555
C11 H8 1_555 1_555
H9 C11 1_555 1_555
C12 N1 1_555 1_555
H10 C12 1_555 1_555
H11 C12 1_555 1_555
C13 O2 1_555 1_555
H12 C13 1_555 1_555
H13 C13 1_555 1_555
C14 C12 1_555 1_555
H14 C14 1_555 1_555
H15 C14 1_555 1_555
C15 C3 1_555 1_555
H16 C15 1_555 1_555
H17 C15 1_555 1_555
C16 H18 1_555 1_555
C17 N5 1_555 1_555
H19 C17 1_555 1_555
C18 C16 1_555 1_555
C19 N6 1_555 1_555
H20 C19 1_555 1_555
C20 N1 1_555 1_555
H21 C20 1_555 1_555
C21 N3 1_555 1_555
H22 C21 1_555 1_555
C22 N2 1_555 1_555
H23 C22 1_555 1_555
C23 N4 1_555 1_555
H24 C23 1_555 1_555
C24 N3 1_555 1_555
H25 C24 1_555 1_555
H26 C24 1_555 1_555
Ni1A O3 1_555 1_555
Ni1_2 O3A_2 1_555 1_555
Ni1A_2 O5A_2 1_555 1_555
Ni1_3 N4_2 1_555 1_555
Ni1A_3 N4A_2 1_555 1_555
Ni1_4 N6 1_555 1_555
O1A C1A 1_555 1_555
O2A C4A 1_555 1_555
O3A Ni1 1_555 1_555
O3A_2 C2A 1_555 1_555
O4A Ni1 1_555 1_555
O4A_2 Ni1_2 1_555 1_555
O5A Ni1A 1_555 1_555
O5A_2 C1A 1_555 1_555
N1A C7A 1_555 1_555
N1A_2 C7A_2 1_555 1_555
N1_2 C7_2 1_555 1_555
C1A C5A 1_555 1_555
N4A Ni1A 1_555 1_555
N4_2 C20_2 1_555 1_555
N4A_2 C20A_2 1_555 1_555
N5A Ni1A 1_555 1_555
C2A O4A_2 1_555 1_555
N6_2 Ni1 1_555 1_555
N6A Ni1A 1_555 1_555
C4A C16 1_555 1_555
C5A C8A 1_555 1_555
C7A H4A 1_555 1_555
C7A_2 H4A_2 1_555 1_555
C7_2 H4_2 1_555 1_555
C8A C4A 1_555 1_555
H5A C8A 1_555 1_555
C9A C18 1_555 1_555
H6A C9A 1_555 1_555
C12A N1A 1_555 1_555
C12A_2 N1A_2 1_555 1_555
C12_2 N1_2 1_555 1_555
H10A C12A 1_555 1_555
H10A_2 C12A_2 1_555 1_555
H10_2 C12_2 1_555 1_555
H11A C12A 1_555 1_555
H11A_2 C12A_2 1_555 1_555
H11_2 C12_2 1_555 1_555
C13A C13 1_555 1_555
H12A C13A 1_555 1_555
H13A C13A 1_555 1_555
C14A C12A 1_555 1_555
C14A_2 C14 1_555 1_555
C14_2 C12_2 1_555 1_555
H14A C14A 1_555 1_555
H14A_2 C14A_2 1_555 1_555
H14_2 C14_2 1_555 1_555
H15A C14A 1_555 1_555
H15A_2 C14A_2 1_555 1_555
H15_2 C14_2 1_555 1_555
C16A C4 1_555 1_555
H18A C16A 1_555 1_555
C18A C9 1_555 1_555
C20A N1A 1_555 1_555
C20A_2 N1A_2 1_555 1_555
C20_2 N1_2 1_555 1_555
H21A C20A 1_555 1_555
H21A_2 C20A_2 1_555 1_555
H21_2 C20_2 1_555 1_555
C23A N4A 1_555 1_555
C23A_2 N4A_2 1_555 1_555
C23_2 N4_2 1_555 1_555
H24A C23A 1_555 1_555
H24A_2 C23A_2 1_555 1_555
H24_2 C23_2 1_555 1_555
O4 Ni1A 1_555 1_555
N4 C20 1_555 1_555
N5 C10 1_555 1_555
C7 C23 1_555 1_555
C11 C15 1_555 1_555
C11 C24 1_555 1_555
C17 C22 1_555 1_555
C19 C21 1_555 1_555
O2A C13A 1_555 1_555
N4A C20A 1_555 1_555
C2A C18A 1_555 1_555
C5A C9A 1_555 1_555
C7A C23A 1_555 1_555
C7A_2 C23A_2 1_555 1_555
C7_2 C23_2 1_555 1_555
C12A_2 C14A_2 1_555 1_555
C14A C14_2 1_555 1_555
C16A C18A 1_555 1_555

#END
