
#######################################################################
#
#                 Cambridge Crystallographic Data Centre
#                                CCDC 
#
#######################################################################
#
# If this CIF has been generated from an entry in the Cambridge 
# Structural Database, then it will include bibliographic, chemical, 
# crystal, experimental, refinement or atomic coordinate data resulting 
# from the CCDC's data processing and validation procedures.
#
#######################################################################

data_ISIMED
_symmetry_cell_setting           monoclinic
_symmetry_space_group_name_H-M   'P 21/n'
_symmetry_Int_Tables_number      14
_space_group_name_Hall           '-P 2yn'
loop_
_symmetry_equiv_pos_site_id
_symmetry_equiv_pos_as_xyz
1 x,y,z
2 1/2-x,1/2+y,1/2-z
3 -x,-y,-z
4 1/2+x,1/2-y,1/2+z
_cell_length_a                   7.9869(3)
_cell_length_b                   16.3832(8)
_cell_length_c                   16.8378(7)
_cell_angle_alpha                90
_cell_angle_beta                 99.348(4)
_cell_angle_gamma                90
_cell_volume                     2173.98
loop_
_atom_site_label
_atom_site_type_symbol
_atom_site_fract_x
_atom_site_fract_y
_atom_site_fract_z
Zn1 Zn 0.98746(4) 0.19287(2) 0.304139(18)
O1 O 1.8538(2) 0.04954(14) 0.55317(11)
O2 O 1.1678(2) 0.16519(13) 0.39191(11)
O3 O 1.3072(3) 0.22569(14) 0.68015(12)
O4 O 1.5802(2) 0.23118(13) 0.73104(11)
C1 C 1.5011(3) 0.16228(17) 0.60631(15)
O5 O 1.3454(3) 0.09696(16) 0.32748(12)
N1 N 0.8727(3) 0.09292(15) 0.25403(14)
N2 N 0.6772(3) 0.01715(16) 0.18371(15)
N3 N -0.3331(3) -0.25325(16) 0.12717(15)
C2 C -0.2293(6) -0.1992(2) 0.0273(3)
H1 H -0.2192 -0.1792 -0.0234
C3 C 1.3863(3) 0.16102(17) 0.53502(16)
H2 H 1.2800 0.1848 0.5331
C4 C 1.6976(3) 0.08638(18) 0.54192(16)
C5 C 1.4285(3) 0.12465(16) 0.46679(15)
C6 C 0.0779(6) -0.0808(4) 0.0933(4)
H3 H 0.0567 -0.0577 0.1438
H4 H -0.0106 -0.0617 0.0511
C7 C 0.0703(6) -0.1640(3) 0.0976(4)
H5 H 0.1363 -0.1816 0.1482
H6 H 0.1227 -0.1870 0.0545
C8 C 1.9144(3) 0.01755(19) 0.48471(16)
H7 H 1.9228 0.0604 0.4458
H8 H 1.8384 -0.0244 0.4592
C9 C 1.5856(3) 0.08723(17) 0.47002(16)
H9 H 1.6152 0.0630 0.4243
C10 C 1.6568(3) 0.12475(18) 0.60951(16)
H10 H 1.7344 0.1252 0.6571
C11 C 0.5381(4) -0.0053(2) 0.1198(2)
H11 H 0.5808 -0.0435 0.0839
H12 H 0.5011 0.0432 0.0888
C12 C 1.4560(4) 0.20891(17) 0.67691(17)
C13 C 0.7784(4) -0.0336(2) 0.2363(2)
H13 H 0.7660 -0.0896 0.2418
N4 N -0.1081(4) -0.19789(19) 0.0914(2)
C14 C 0.3875(4) -0.0427(2) 0.1484(2)
H14 H 0.3502 -0.0082 0.1891
H15 H 0.4172 -0.0958 0.1720
C15 C 0.8980(4) 0.0139(2) 0.27795(18)
H16 H 0.9854 -0.0044 0.3173
C16 C 0.7374(4) 0.0920(2) 0.19749(19)
H17 H 0.6902 0.1382 0.1706
C17 C 1.3068(3) 0.12751(18) 0.38836(17)
C18 C -0.1743(4) -0.2300(2) 0.1494(2)
H18 H -0.1158 -0.2361 0.2015
C19 C -0.3730(5) -0.2350(2) 0.0481(2)
H19 H -0.4756 -0.2445 0.0145
C20 C 0.2470(5) -0.0512(4) 0.0767(3)
H20 H 0.2302 0.0015 0.0504
H21 H 0.2856 -0.0885 0.0387
Zn1B Zn 3.01254(4) -0.19287(2) 0.695861(18)
Zn1A Zn -0.48746(4) -0.30713(2) 0.195861(18)
Zn1A_2 Zn 2.51254(4) -0.30713(2) 0.195861(18)
Zn1C Zn 1.48746(4) 0.30713(2) 0.804139(18)
Zn1C_2 Zn 4.48746(4) 0.30713(2) 0.804139(18)
O1B O 2.1462(2) -0.04954(14) 0.44683(11)
O2B O 2.8322(2) -0.16519(13) 0.60809(11)
O3B O 2.6928(3) -0.22569(14) 0.31985(12)
O4B O 2.4198(2) -0.23118(13) 0.26896(11)
O4A O 2.9198(2) -0.26882(13) 0.76896(11)
O4C O 1.0802(2) 0.26882(13) 0.23104(11)
C1B C 2.4989(3) -0.16228(17) 0.39369(15)
O5B O 2.6546(3) -0.09696(16) 0.67252(12)
N1B N 3.1273(3) -0.09292(15) 0.74597(14)
N2B N 3.3228(3) -0.01715(16) 0.81629(15)
N3B N 4.3331(3) 0.25325(16) 0.87283(15)
N3A N 0.8331(3) 0.24675(16) 0.37283(15)
N3C N 3.1669(3) -0.24675(16) 0.62717(15)
C2B C 4.2293(6) 0.1992(2) 0.9727(3)
H1B H 4.2192 0.1792 1.0234
C3B C 2.6137(3) -0.16102(17) 0.46498(16)
H2B H 2.7200 -0.1848 0.4669
C4B C 2.3024(3) -0.08638(18) 0.45808(16)
C5B C 2.5715(3) -0.12465(16) 0.53321(15)
C6B C 3.9221(6) 0.0808(4) 0.9067(4)
H3B H 3.9433 0.0577 0.8562
H4B H 4.0106 0.0617 0.9489
C7B C 3.9297(6) 0.1640(3) 0.9024(4)
H5B H 3.8637 0.1816 0.8518
H6B H 3.8773 0.1870 0.9455
C8B C 2.0856(3) -0.01755(19) 0.51529(16)
H7B H 2.0772 -0.0604 0.5542
H8B H 2.1616 0.0244 0.5408
C9B C 2.4144(3) -0.08723(17) 0.52998(16)
H9B H 2.3848 -0.0630 0.5757
C10B C 2.3432(3) -0.12475(18) 0.39049(16)
H10B H 2.2656 -0.1252 0.3429
C11B C 3.4619(4) 0.0053(2) 0.8802(2)
H11B H 3.4192 0.0435 0.9161
H12B H 3.4989 -0.0432 0.9112
C12B C 2.5440(4) -0.20891(17) 0.32309(17)
C13B C 3.2216(4) 0.0336(2) 0.7637(2)
H13B H 3.2340 0.0896 0.7582
N4B N 4.1081(4) 0.19789(19) 0.9086(2)
C14B C 3.6125(4) 0.0427(2) 0.8516(2)
H14B H 3.6498 0.0082 0.8109
H15B H 3.5828 0.0958 0.8280
C15B C 3.1020(4) -0.0139(2) 0.72205(18)
H16B H 3.0146 0.0044 0.6827
C16B C 3.2626(4) -0.0920(2) 0.80251(19)
H17B H 3.3098 -0.1382 0.8294
C17B C 2.6932(3) -0.12751(18) 0.61164(17)
C18B C 4.1743(4) 0.2300(2) 0.8506(2)
H18B H 4.1158 0.2361 0.7985
C19B C 4.3730(5) 0.2350(2) 0.9519(2)
H19B H 4.4756 0.2445 0.9855
C20B C 3.7530(5) 0.0512(4) 0.9233(3)
H20B H 3.7698 -0.0015 0.9496
H21B H 3.7144 0.0885 0.9613
O6 O 1.3521(5) 0.1735(3) 0.1800(3)
H22 H 1.264(5) 0.143(3) 0.176(5)
H23 H 1.340(8) 0.220(2) 0.201(4)
loop_
_geom_bond_atom_site_label_1
_geom_bond_atom_site_label_2
_geom_bond_site_symmetry_1
_geom_bond_site_symmetry_2
Zn1 O2 1_555 1_555
O1 C4 1_555 1_555
O2 C17 1_555 1_555
O3 C12 1_555 1_555
O4 C12 1_555 1_555
C1 C3 1_555 1_555
O5 C17 1_555 1_555
N1 Zn1 1_555 1_555
N2 C11 1_555 1_555
N3 C18 1_555 1_555
C2 H1 1_555 1_555
C3 H2 1_555 1_555
C4 C9 1_555 1_555
C5 C3 1_555 1_555
C6 H3 1_555 1_555
H4 C6 1_555 1_555
C7 C6 1_555 1_555
H5 C7 1_555 1_555
H6 C7 1_555 1_555
C8 O1 1_555 1_555
H7 C8 1_555 1_555
H8 C8 1_555 1_555
C9 C5 1_555 1_555
H9 C9 1_555 1_555
C10 C1 1_555 1_555
H10 C10 1_555 1_555
C11 H11 1_555 1_555
H12 C11 1_555 1_555
C12 C1 1_555 1_555
C13 N2 1_555 1_555
H13 C13 1_555 1_555
N4 C2 1_555 1_555
C14 C11 1_555 1_555
H14 C14 1_555 1_555
H15 C14 1_555 1_555
C15 N1 1_555 1_555
H16 C15 1_555 1_555
C16 N1 1_555 1_555
H17 C16 1_555 1_555
C17 C5 1_555 1_555
C18 N4 1_555 1_555
H18 C18 1_555 1_555
C19 N3 1_555 1_555
H19 C19 1_555 1_555
C20 C6 1_555 1_555
H20 C20 1_555 1_555
H21 C20 1_555 1_555
O6 H22 1_555 1_555
H23 O6 1_555 1_555
Zn1B O2B 1_555 1_555
Zn1A N3 1_555 1_555
Zn1A_2 O4B 1_555 1_555
Zn1C O4 1_555 1_555
Zn1C_2 N3B 1_555 1_555
O1B C4B 1_555 1_555
O2B C17B 1_555 1_555
O3B C12B 1_555 1_555
O4B C12B 1_555 1_555
O4A Zn1B 1_555 1_555
O4C Zn1 1_555 1_555
C1B C3B 1_555 1_555
O5B C17B 1_555 1_555
N1B Zn1B 1_555 1_555
N2B C11B 1_555 1_555
N3B C18B 1_555 1_555
N3A Zn1 1_555 1_555
N3C Zn1B 1_555 1_555
C2B H1B 1_555 1_555
C3B H2B 1_555 1_555
C4B C9B 1_555 1_555
C5B C3B 1_555 1_555
C6B H3B 1_555 1_555
H4B C6B 1_555 1_555
C7B C6B 1_555 1_555
H5B C7B 1_555 1_555
H6B C7B 1_555 1_555
C8B C8 1_555 1_555
H7B C8B 1_555 1_555
H8B C8B 1_555 1_555
C9B C5B 1_555 1_555
H9B C9B 1_555 1_555
C10B C1B 1_555 1_555
H10B C10B 1_555 1_555
C11B H11B 1_555 1_555
H12B C11B 1_555 1_555
C12B C1B 1_555 1_555
C13B N2B 1_555 1_555
H13B C13B 1_555 1_555
N4B C2B 1_555 1_555
C14B C11B 1_555 1_555
H14B C14B 1_555 1_555
H15B C14B 1_555 1_555
C15B N1B 1_555 1_555
H16B C15B 1_555 1_555
C16B N1B 1_555 1_555
H17B C16B 1_555 1_555
C17B C5B 1_555 1_555
C18B N4B 1_555 1_555
H18B C18B 1_555 1_555
C19B N3B 1_555 1_555
H19B C19B 1_555 1_555
C20B C6B 1_555 1_555
H20B C20B 1_555 1_555
H21B C20B 1_555 1_555
N2 C16 1_555 1_555
C2 C19 1_555 1_555
C4 C10 1_555 1_555
C7 N4 1_555 1_555
C13 C15 1_555 1_555
C14 C20 1_555 1_555
O1B C8B 1_555 1_555
N2B C16B 1_555 1_555
C2B C19B 1_555 1_555
C4B C10B 1_555 1_555
C7B N4B 1_555 1_555
C13B C15B 1_555 1_555
C14B C20B 1_555 1_555

#END
