
#######################################################################
#
#                 Cambridge Crystallographic Data Centre
#                                CCDC 
#
#######################################################################
#
# If this CIF has been generated from an entry in the Cambridge 
# Structural Database, then it will include bibliographic, chemical, 
# crystal, experimental, refinement or atomic coordinate data resulting 
# from the CCDC's data processing and validation procedures.
#
#######################################################################

data_ISIQUX
_symmetry_cell_setting           monoclinic
_symmetry_space_group_name_H-M   'P 21/c'
_symmetry_Int_Tables_number      14
_space_group_name_Hall           '-P 2ybc'
loop_
_symmetry_equiv_pos_site_id
_symmetry_equiv_pos_as_xyz
1 x,y,z
2 -x,1/2+y,1/2-z
3 -x,-y,-z
4 x,1/2-y,1/2+z
_cell_length_a                   6.630(3)
_cell_length_b                   13.829(7)
_cell_length_c                   9.001(4)
_cell_angle_alpha                90
_cell_angle_beta                 97.128(9)
_cell_angle_gamma                90
_cell_volume                     818.89
loop_
_atom_site_label
_atom_site_type_symbol
_atom_site_fract_x
_atom_site_fract_y
_atom_site_fract_z
Sm1 Sm 0.77432(4) 0.91132(2) 0.21402(3)
Ag1 Ag 0.28608(7) 0.74717(6) 0.22457(6)
S1 S 0.72955(19) 0.97165(11) -0.19091(14)
O1 O 0.5582(5) 0.7938(3) 0.0513(4)
O2 O 0.9667(6) 0.6669(3) -0.0595(4)
O3 O 0.7773(6) 1.0939(3) 0.1343(4)
H1 H 0.687(5) 1.098(4) 0.058(4)
H2 H 0.889(4) 1.103(5) 0.098(5)
O4 O 0.8306(6) 0.9256(3) -0.0526(4)
O5 O 0.5658(5) 1.0348(3) -0.1499(4)
O6 O 0.6475(6) 0.8996(3) -0.2984(5)
O7 O 0.8824(6) 1.0327(4) -0.2536(4)
O8 O 0.7292(7) 1.0172(4) 0.4225(4)
H3 H 0.798(7) 1.025(5) 0.509(3)
H4 H 0.613(5) 1.041(5) 0.435(6)
O9 O 0.9572(5) 0.7696(3) 0.1310(4)
C1 C 0.8781(8) 0.7219(4) 0.0184(6)
O10 O 0.5695(5) 0.6873(3) -0.1345(4)
C2 C 0.6472(8) 0.7352(4) -0.0236(5)
Sm1C Sm 0.77432(4) 0.58868(2) -0.28598(3)
Sm1B Sm 0.22568(4) 1.08868(2) -0.21402(3)
Sm1B_2 Sm 1.22568(4) 1.08868(2) -0.21402(3)
Ag1A Ag 0.71392(7) 1.24717(6) 0.27543(6)
Ag1_2 Ag 1.28608(7) 0.74717(6) 0.22457(6)
Ag1C Ag 0.28608(7) 0.75283(6) -0.27543(6)
O2C O 0.9667(6) 0.8331(3) 0.4405(4)
O3A O 0.2227(6) 0.5939(3) 0.3657(4)
H1A H 0.313(5) 0.598(4) 0.442(4)
H2A H 0.111(4) 0.603(5) 0.402(5)
O5B O 0.4342(5) 0.9652(3) 0.1499(4)
O7B O 1.1176(6) 0.9673(4) 0.2536(4)
O9_2 O -0.0428(5) 0.7696(3) 0.1310(4)
O10C O 0.5695(5) 0.8127(3) 0.3655(4)
loop_
_geom_bond_atom_site_label_1
_geom_bond_atom_site_label_2
_geom_bond_site_symmetry_1
_geom_bond_site_symmetry_2
Sm1 O1 1_555 1_555
Ag1 O1 1_555 1_555
S1 O4 1_555 1_555
O1 C2 1_555 1_555
O2 C1 1_555 1_555
O3 Sm1 1_555 1_555
H1 O3 1_555 1_555
H2 O3 1_555 1_555
O4 Sm1 1_555 1_555
O5 S1 1_555 1_555
O6 S1 1_555 1_555
O7 S1 1_555 1_555
O8 Sm1 1_555 1_555
H3 O8 1_555 1_555
H4 O8 1_555 1_555
O9 Sm1 1_555 1_555
C1 O9 1_555 1_555
O10 C2 1_555 1_555
C2 C1 1_555 1_555
Sm1C O2 1_555 1_555
Sm1B O5 1_555 1_555
Sm1B_2 O7 1_555 1_555
Ag1A O3 1_555 1_555
Ag1_2 O9 1_555 1_555
Ag1C O10 1_555 1_555
O2C Sm1 1_555 1_555
O3A Ag1 1_555 1_555
H1A O3A 1_555 1_555
H2A O3A 1_555 1_555
O5B Sm1 1_555 1_555
O7B Sm1 1_555 1_555
O9_2 Ag1 1_555 1_555
O10C Sm1 1_555 1_555
Ag1 O10C 1_555 1_555
O10 Sm1C 1_555 1_555

#END
