
#######################################################################
#
#                 Cambridge Crystallographic Data Centre
#                                CCDC 
#
#######################################################################
#
# If this CIF has been generated from an entry in the Cambridge 
# Structural Database, then it will include bibliographic, chemical, 
# crystal, experimental, refinement or atomic coordinate data resulting 
# from the CCDC's data processing and validation procedures.
#
#######################################################################

data_ISIRAE
_symmetry_cell_setting           monoclinic
_symmetry_space_group_name_H-M   'C 2/m'
_symmetry_Int_Tables_number      12
_space_group_name_Hall           '-C 2y'
loop_
_symmetry_equiv_pos_site_id
_symmetry_equiv_pos_as_xyz
1 x,y,z
2 -x,y,-z
3 1/2+x,1/2+y,z
4 1/2-x,1/2+y,-z
5 -x,-y,-z
6 x,-y,z
7 1/2-x,1/2-y,-z
8 1/2+x,1/2-y,z
_cell_length_a                   13.683(7)
_cell_length_b                   6.881(3)
_cell_length_c                   9.080(4)
_cell_angle_alpha                90
_cell_angle_beta                 116.731(7)
_cell_angle_gamma                90
_cell_volume                     763.541
loop_
_atom_site_label
_atom_site_type_symbol
_atom_site_fract_x
_atom_site_fract_y
_atom_site_fract_z
Dy1 Dy 0.24452(2) 0.0000 0.26490(4)
Ag1 Ag 0.08430(6) 0.0000 -0.32498(8)
S1 S 0.32893(14) 0.0000 0.7047(2)
O1 O 0.1179(4) 0.0000 -0.0262(6)
O2 O -0.0561(4) 0.0000 -0.2151(6)
O3 O 0.4111(3) 0.1909(5) 0.4112(4)
O4 O 0.2590(5) 0.0000 0.5255(6)
O5 O 0.3001(3) 0.1713(5) 0.7760(5)
O6 O 0.4428(5) 0.0000 0.7431(8)
C1 C 0.0177(6) 0.0000 -0.0699(9)
C2 C 0.5000 0.1120(10) 0.5000
O7 O 0.3358(5) 0.0000 0.1010(7)
H1 H 0.3196 0.0000 -0.0011
H2 H 0.4052 0.0000 0.1547
Dy1A Dy -0.24452(2) 0.0000 -0.26490(4)
Dy1C Dy 0.25548(2) 0.5000 0.73510(4)
Dy1C_2 Dy 0.25548(2) -0.5000 0.73510(4)
Dy1A_2 Dy 0.75548(2) 0.0000 0.73510(4)
Dy1_2 Dy 0.24452(2) -1.0000 0.26490(4)
Ag1A Ag -0.08430(6) 0.0000 0.32498(8)
Ag1C Ag 0.41570(6) 0.5000 0.32498(8)
Ag1B Ag 0.58430(6) 0.5000 0.67502(8)
Ag1B_2 Ag 0.58430(6) -0.5000 0.67502(8)
Ag1C_2 Ag 0.41570(6) -0.5000 0.32498(8)
S1C S 0.17107(14) -0.5000 0.2953(2)
O1A O -0.1179(4) 0.0000 0.0262(6)
O2A O 0.0561(4) 0.0000 0.2151(6)
O3A O 0.5889(3) 0.1909(5) 0.5888(4)
O3D O 0.5889(3) -0.1909(5) 0.5888(4)
O3E O 0.4111(3) -0.1909(5) 0.4112(4)
O3C O 0.0889(3) -0.3091(5) -0.4112(4)
O3F O 0.0889(3) 0.3091(5) -0.4112(4)
O3A_2 O -0.4111(3) 0.1909(5) -0.4112(4)
O3D_2 O -0.4111(3) -0.1909(5) -0.4112(4)
O3B O -0.0889(3) -0.3091(5) 0.4112(4)
O3G O -0.0889(3) 0.3091(5) 0.4112(4)
O4C O 0.2410(5) -0.5000 0.4745(6)
O4A O -0.2590(5) 0.0000 -0.5255(6)
O5E O 0.3001(3) -0.1713(5) 0.7760(5)
O5C O 0.1999(3) -0.3287(5) 0.2240(5)
O5F O 0.1999(3) -0.6713(5) 0.2240(5)
O5F_2 O 0.1999(3) 0.3287(5) 0.2240(5)
O5B O -0.1999(3) -0.3287(5) -0.2240(5)
O5G O -0.1999(3) 0.3287(5) -0.2240(5)
O6C O 0.0572(5) -0.5000 0.2569(8)
C1A C -0.0177(6) 0.0000 0.0699(9)
C2D C 0.5000 -0.1120(10) 0.5000
O7A O -0.3358(5) 0.0000 -0.1010(7)
H1A H -0.3196 0.0000 0.0011
H2A H -0.4052 0.0000 -0.1547
loop_
_geom_bond_atom_site_label_1
_geom_bond_atom_site_label_2
_geom_bond_site_symmetry_1
_geom_bond_site_symmetry_2
Dy1 O1 1_555 1_555
Ag1 O1 1_555 1_555
S1 O4 1_555 1_555
O1 C1 1_555 1_555
O2 Ag1 1_555 1_555
O3 Dy1 1_555 1_555
O4 Dy1 1_555 1_555
O5 S1 1_555 1_555
O6 S1 1_555 1_555
C1 O2 1_555 1_555
C2 O3 1_555 1_555
O7 Dy1 1_555 1_555
H1 O7 1_555 1_555
H2 O7 1_555 1_555
Dy1A O2 1_555 1_555
Dy1C O5 1_555 1_555
Dy1C_2 O4C 1_555 1_555
Dy1A_2 O3A 1_555 1_555
Dy1_2 O5F 1_555 1_555
Ag1A O1A 1_555 1_555
Ag1C O3 1_555 1_555
Ag1B O3A 1_555 1_555
Ag1B_2 O3D 1_555 1_555
Ag1C_2 O3E 1_555 1_555
S1C O4C 1_555 1_555
O1A Dy1A 1_555 1_555
O2A Dy1 1_555 1_555
O3A C2 1_555 1_555
O3D Dy1A_2 1_555 1_555
O3E Dy1 1_555 1_555
O3C Ag1 1_555 1_555
O3F Ag1 1_555 1_555
O3A_2 Dy1A 1_555 1_555
O3D_2 Dy1A 1_555 1_555
O3B Ag1A 1_555 1_555
O3G Ag1A 1_555 1_555
O4A Dy1A 1_555 1_555
O5E S1 1_555 1_555
O5C Dy1 1_555 1_555
O5F S1C 1_555 1_555
O5F_2 Dy1 1_555 1_555
O5B Dy1A 1_555 1_555
O5G Dy1A 1_555 1_555
O6C S1C 1_555 1_555
C1A C1 1_555 1_555
C2D C2 1_555 1_555
O7A Dy1A 1_555 1_555
H1A O7A 1_555 1_555
H2A O7A 1_555 1_555
Dy1C_2 O5E 1_555 1_555
Ag1A O2A 1_555 1_555
S1C O5C 1_555 1_555
O1A C1A 1_555 1_555
O2A C1A 1_555 1_555
O3D C2D 1_555 1_555
O3E C2D 1_555 1_555

#END
