
#######################################################################
#
#                 Cambridge Crystallographic Data Centre
#                                CCDC 
#
#######################################################################
#
# If this CIF has been generated from an entry in the Cambridge 
# Structural Database, then it will include bibliographic, chemical, 
# crystal, experimental, refinement or atomic coordinate data resulting 
# from the CCDC's data processing and validation procedures.
#
#######################################################################

data_ISITIO
_symmetry_cell_setting           orthorhombic
_symmetry_space_group_name_H-M   'P c c n'
_symmetry_Int_Tables_number      56
_space_group_name_Hall           '-P 2ab 2ac'
loop_
_symmetry_equiv_pos_site_id
_symmetry_equiv_pos_as_xyz
1 x,y,z
2 1/2-x,1/2-y,z
3 -x,1/2+y,1/2-z
4 1/2+x,-y,1/2-z
5 -x,-y,-z
6 1/2+x,1/2+y,-z
7 x,1/2-y,1/2+z
8 1/2-x,y,1/2+z
_cell_length_a                   16.6439(16)
_cell_length_b                   17.6983(16)
_cell_length_c                   19.7571(18)
_cell_angle_alpha                90
_cell_angle_beta                 90
_cell_angle_gamma                90
_cell_volume                     5819.82
loop_
_atom_site_label
_atom_site_type_symbol
_atom_site_fract_x
_atom_site_fract_y
_atom_site_fract_z
Ag1 Ag 0.14198(7) 0.24879(6) 0.22734(8)
C1 C 0.2342(6) 0.4031(6) 0.2549(7)
H1 H 0.2387 0.4111 0.2085
C2 C 0.2068(10) 0.3504(9) 0.3437(9)
H2 H 0.1874 0.3150 0.3744
C3 C 0.2966(7) 0.5248(6) 0.2935(8)
H3 H 0.3276 0.5254 0.2519
H4 H 0.3336 0.5317 0.3309
C4 C 0.2379(7) 0.5893(6) 0.2925(8)
C5 C 0.2183(7) 0.6229(7) 0.2308(8)
H5 H 0.2388 0.6040 0.1904
C6 C 0.1684(8) 0.6842(7) 0.2310(7)
H6 H 0.1553 0.7055 0.1894
C7 C 0.1364(6) 0.7165(5) 0.2877(6)
C8 C 0.1566(8) 0.6814(7) 0.3468(7)
H7 H 0.1349 0.7001 0.3868
C9 C 0.2072(9) 0.6199(7) 0.3508(8)
H8 H 0.2204 0.5993 0.3927
C10 C 0.0858(6) 0.7853(6) 0.2882(6)
C11 C 0.0566(9) 0.8158(7) 0.2305(6)
H9 H 0.0680 0.7909 0.1902
C12 C 0.0110(9) 0.8814(7) 0.2265(7)
H10 H -0.0059 0.9000 0.1849
C13 C -0.0083(6) 0.9178(6) 0.2848(7)
C14 C 0.0164(8) 0.8864(7) 0.3435(6)
H11 H 0.0018 0.9093 0.3840
C15 C 0.0625(8) 0.8213(6) 0.3454(6)
H12 H 0.0779 0.8018 0.3872
C16 C -0.0571(7) 0.9903(6) 0.2816(8)
H13 H -0.0846 0.9933 0.2384
H14 H -0.0974 0.9900 0.3171
C17 C 0.0295(7) 1.1006(7) 0.2442(8)
H15 H 0.0224 1.0953 0.1978
C18 C 0.0672(10) 1.1382(9) 0.3392(11)
H16 H 0.0922 1.1673 0.3722
C19 C 0.0957(10) 0.2098(9) 0.0760(11)
H17 H 0.0690 0.1685 0.0944
C20 C 0.1671(11) 0.3076(10) 0.0680(11)
H18 H 0.2014 0.3471 0.0793
C21 C 0.0435(16) 0.1982(10) -0.0414(9)
H19 H 0.0508 0.1438 -0.0407
H20 H 0.0640 0.2159 -0.0845
C22 C -0.0414(10) 0.2123(9) -0.0410(6)
C23 C -0.0698(11) 0.2865(9) -0.0272(7)
H21 H -0.0340 0.3257 -0.0186
C24 C -0.1506(10) 0.2989(7) -0.0268(6)
H22 H -0.1690 0.3477 -0.0187
C25 C -0.2069(8) 0.2425(7) -0.0378(4)
C26 C -0.1786(10) 0.1711(7) -0.0508(6)
H23 H -0.2147 0.1323 -0.0600
C27 C -0.0971(11) 0.1563(8) -0.0502(7)
H24 H -0.0796 0.1068 -0.0563
N1 N 0.2049(6) 0.3443(5) 0.2808(7)
N2 N 0.2573(6) 0.4515(5) 0.3004(7)
N3 N 0.2418(11) 0.4171(11) 0.3598(9)
N4 N -0.0038(6) 1.0574(5) 0.2900(6)
N5 N 0.0216(10) 1.0792(10) 0.3544(7)
N6 N 0.0747(6) 1.1528(5) 0.2733(8)
N7 N 0.1366(8) 0.2517(8) 0.1102(7)
N8 N 0.0910(8) 0.2274(8) 0.0074(9)
N9 N 0.1365(11) 0.2917(12) 0.0084(14)
Ag1A Ag -0.64198(7) 0.25121(6) 0.22734(8)
Ag1_2 Ag 0.14198(7) 1.24879(6) 0.22734(8)
Ag1A_2 Ag -0.64198(7) -0.74879(6) 0.22734(8)
C1A C -0.7342(6) 0.0969(6) 0.2549(7)
H1A H -0.7387 0.0889 0.2085
C2A C -0.7068(10) 0.1496(9) 0.3437(9)
H2A H -0.6874 0.1850 0.3744
C3A C -0.7966(7) -0.0248(6) 0.2935(8)
H3A H -0.8276 -0.0254 0.2519
H4A H -0.8336 -0.0317 0.3309
C4A C -0.7379(7) -0.0893(6) 0.2925(8)
C5A C -0.7183(7) -0.1229(7) 0.2308(8)
H5A H -0.7388 -0.1040 0.1904
C6A C -0.6684(8) -0.1842(7) 0.2310(7)
H6A H -0.6553 -0.2055 0.1894
C7A C -0.6364(6) -0.2165(5) 0.2877(6)
C8A C -0.6566(8) -0.1814(7) 0.3468(7)
H7A H -0.6349 -0.2001 0.3868
C9A C -0.7072(9) -0.1199(7) 0.3508(8)
H8A H -0.7204 -0.0993 0.3927
C10A C -0.5858(6) -0.2853(6) 0.2882(6)
C11A C -0.5566(9) -0.3158(7) 0.2305(6)
H9A H -0.5680 -0.2909 0.1902
C12A C -0.5110(9) -0.3814(7) 0.2265(7)
H10A H -0.4941 -0.4000 0.1849
C13A C -0.4917(6) -0.4178(6) 0.2848(7)
C14A C -0.5164(8) -0.3864(7) 0.3435(6)
H11A H -0.5018 -0.4093 0.3840
C15A C -0.5625(8) -0.3213(6) 0.3454(6)
H12A H -0.5779 -0.3018 0.3872
C16A C -0.4429(7) -0.4903(6) 0.2816(8)
H13A H -0.4154 -0.4933 0.2384
H14A H -0.4026 -0.4900 0.3171
C17A C -0.5295(7) -0.6006(7) 0.2442(8)
H15A H -0.5224 -0.5953 0.1978
C18A C -0.5672(10) -0.6382(9) 0.3392(11)
H16A H -0.5922 -0.6673 0.3722
C19A C -0.5957(10) 0.2902(9) 0.0760(11)
H17A H -0.5690 0.3315 0.0944
C20A C -0.6671(11) 0.1924(10) 0.0680(11)
H18A H -0.7014 0.1529 0.0793
C21A C -0.5435(16) 0.3018(10) -0.0414(9)
H19A H -0.5508 0.3562 -0.0407
H20A H -0.5640 0.2841 -0.0845
C22A C -0.4586(10) 0.2877(9) -0.0410(6)
C23A C -0.4302(11) 0.2135(9) -0.0272(7)
H21A H -0.4660 0.1743 -0.0186
C24A C -0.3494(10) 0.2011(7) -0.0268(6)
H22A H -0.3310 0.1523 -0.0187
C25A C -0.2931(8) 0.2575(7) -0.0378(4)
C26A C -0.3214(10) 0.3289(7) -0.0508(6)
H23A H -0.2853 0.3677 -0.0600
C27A C -0.4029(11) 0.3437(8) -0.0502(7)
H24A H -0.4204 0.3932 -0.0563
N1A N -0.7049(6) 0.1557(5) 0.2808(7)
N2A N -0.7573(6) 0.0485(5) 0.3004(7)
N3A N -0.7418(11) 0.0829(11) 0.3598(9)
N4A N -0.4962(6) -0.5574(5) 0.2900(6)
N5A N -0.5216(10) -0.5792(10) 0.3544(7)
N6A N -0.5747(6) -0.6528(5) 0.2733(8)
N6_2 N 0.0747(6) 0.1528(5) 0.2733(8)
N6A_2 N -0.5747(6) 0.3472(5) 0.2733(8)
N7A N -0.6366(8) 0.2483(8) 0.1102(7)
N8A N -0.5910(8) 0.2726(8) 0.0074(9)
N9A N -0.6365(11) 0.2083(12) 0.0084(14)
N10 N 0.3020(15) 0.465(5) 0.0667(19)
O1 O 0.232(2) 0.4791(10) 0.0923(8)
O2 O 0.3570(16) 0.4736(8) 0.1124(16)
O3 O 0.357(3) 0.4660(10) 0.0207(12)
O4 O 0.5208(14) 0.4707(8) 0.0911(9)
H25 H 0.4714 0.4709 0.0800
H26 H 0.5513 0.5079 0.0825
O5 O 1.0000 1.0000 0.5000
H27 H 0.9952 0.9523 0.4966
H27D H 1.0048 1.0477 0.5034
O6 O 0.1590(11) 0.5044(9) 0.9829(8)
loop_
_geom_bond_atom_site_label_1
_geom_bond_atom_site_label_2
_geom_bond_site_symmetry_1
_geom_bond_site_symmetry_2
Ag1 N1 1_555 1_555
C1 H1 1_555 1_555
C2 H2 1_555 1_555
C3 H3 1_555 1_555
H4 C3 1_555 1_555
C4 C3 1_555 1_555
C5 C4 1_555 1_555
H5 C5 1_555 1_555
C6 C5 1_555 1_555
H6 C6 1_555 1_555
C7 C6 1_555 1_555
C8 C7 1_555 1_555
H7 C8 1_555 1_555
C9 C4 1_555 1_555
H8 C9 1_555 1_555
C10 C7 1_555 1_555
C11 C10 1_555 1_555
H9 C11 1_555 1_555
C12 C11 1_555 1_555
H10 C12 1_555 1_555
C13 C12 1_555 1_555
C14 C13 1_555 1_555
H11 C14 1_555 1_555
C15 C10 1_555 1_555
H12 C15 1_555 1_555
C16 C13 1_555 1_555
H13 C16 1_555 1_555
H14 C16 1_555 1_555
C17 H15 1_555 1_555
C18 H16 1_555 1_555
C19 H17 1_555 1_555
C20 H18 1_555 1_555
C21 H19 1_555 1_555
H20 C21 1_555 1_555
C22 C21 1_555 1_555
C23 C22 1_555 1_555
H21 C23 1_555 1_555
C24 C23 1_555 1_555
H22 C24 1_555 1_555
C25 C24 1_555 1_555
C26 C25 1_555 1_555
H23 C26 1_555 1_555
C27 C22 1_555 1_555
H24 C27 1_555 1_555
N1 C1 1_555 1_555
N2 C1 1_555 1_555
N3 C2 1_555 1_555
N4 C16 1_555 1_555
N5 C18 1_555 1_555
N6 C17 1_555 1_555
N7 Ag1 1_555 1_555
N8 C19 1_555 1_555
N9 C20 1_555 1_555
N10 O1 1_555 1_555
O2 N10 1_555 1_555
O3 N10 1_555 1_555
O4 H25 1_555 1_555
H26 O4 1_555 1_555
O5 H27 1_555 1_555
Ag1A N1A 1_555 1_555
Ag1_2 N6 1_555 1_555
Ag1A_2 N6A 1_555 1_555
C1A H1A 1_555 1_555
C2A H2A 1_555 1_555
C3A H3A 1_555 1_555
H4A C3A 1_555 1_555
C4A C3A 1_555 1_555
C5A C4A 1_555 1_555
H5A C5A 1_555 1_555
C6A C5A 1_555 1_555
H6A C6A 1_555 1_555
C7A C6A 1_555 1_555
C8A C7A 1_555 1_555
H7A C8A 1_555 1_555
C9A C4A 1_555 1_555
H8A C9A 1_555 1_555
C10A C7A 1_555 1_555
C11A C10A 1_555 1_555
H9A C11A 1_555 1_555
C12A C11A 1_555 1_555
H10A C12A 1_555 1_555
C13A C12A 1_555 1_555
C14A C13A 1_555 1_555
H11A C14A 1_555 1_555
C15A C10A 1_555 1_555
H12A C15A 1_555 1_555
C16A C13A 1_555 1_555
H13A C16A 1_555 1_555
H14A C16A 1_555 1_555
C17A H15A 1_555 1_555
C18A H16A 1_555 1_555
C19A H17A 1_555 1_555
C20A H18A 1_555 1_555
C21A H19A 1_555 1_555
H20A C21A 1_555 1_555
C22A C21A 1_555 1_555
C23A C22A 1_555 1_555
H21A C23A 1_555 1_555
C24A C23A 1_555 1_555
H22A C24A 1_555 1_555
C25A C25 1_555 1_555
C26A C25A 1_555 1_555
H23A C26A 1_555 1_555
C27A C22A 1_555 1_555
H24A C27A 1_555 1_555
N1A C1A 1_555 1_555
N2A C1A 1_555 1_555
N3A C2A 1_555 1_555
N4A C16A 1_555 1_555
N5A C18A 1_555 1_555
N6A C17A 1_555 1_555
N6_2 Ag1 1_555 1_555
N6A_2 Ag1A 1_555 1_555
N7A Ag1A 1_555 1_555
N8A C19A 1_555 1_555
N9A C20A 1_555 1_555
H27D O5 1_555 1_555
C2 N1 1_555 1_555
C3 N2 1_555 1_555
C8 C9 1_555 1_555
C14 C15 1_555 1_555
C17 N4 1_555 1_555
C18 N6 1_555 1_555
C19 N7 1_555 1_555
C20 N7 1_555 1_555
C21 N8 1_555 1_555
C26 C27 1_555 1_555
N2 N3 1_555 1_555
N4 N5 1_555 1_555
N8 N9 1_555 1_555
C2A N1A 1_555 1_555
C3A N2A 1_555 1_555
C8A C9A 1_555 1_555
C14A C15A 1_555 1_555
C17A N4A 1_555 1_555
C18A N6A 1_555 1_555
C19A N7A 1_555 1_555
C20A N7A 1_555 1_555
C21A N8A 1_555 1_555
C24A C25A 1_555 1_555
C26A C27A 1_555 1_555
N2A N3A 1_555 1_555
N4A N5A 1_555 1_555
N8A N9A 1_555 1_555

#END
