
#######################################################################
#
#                 Cambridge Crystallographic Data Centre
#                                CCDC 
#
#######################################################################
#
# If this CIF has been generated from an entry in the Cambridge 
# Structural Database, then it will include bibliographic, chemical, 
# crystal, experimental, refinement or atomic coordinate data resulting 
# from the CCDC's data processing and validation procedures.
#
#######################################################################

data_ISITOU
_symmetry_cell_setting           monoclinic
_symmetry_space_group_name_H-M   'P 21/c'
_symmetry_Int_Tables_number      14
_space_group_name_Hall           '-P 2ybc'
loop_
_symmetry_equiv_pos_site_id
_symmetry_equiv_pos_as_xyz
1 x,y,z
2 -x,1/2+y,1/2-z
3 -x,-y,-z
4 x,1/2-y,1/2+z
_cell_length_a                   14.752(3)
_cell_length_b                   5.5035(10)
_cell_length_c                   12.324(2)
_cell_angle_alpha                90
_cell_angle_beta                 91.713(2)
_cell_angle_gamma                90
_cell_volume                     1000.11
loop_
_atom_site_label
_atom_site_type_symbol
_atom_site_fract_x
_atom_site_fract_y
_atom_site_fract_z
Ag1 Ag 0.000996(16) 0.20367(5) 0.596865(19)
C1 C 0.15308(19) -0.1922(5) 0.6442(2)
H1 H 0.1141 -0.2899 0.6829
N1 N 0.27841(16) -0.0428(5) 0.5799(2)
C2 C 0.2989(2) -0.3858(5) 0.7058(3)
H2 H 0.3373 -0.4722 0.6562
H3 H 0.2607 -0.5046 0.7404
C3 C 0.35802(19) -0.2637(5) 0.7916(2)
C4 C 0.43964(19) -0.3699(5) 0.8234(2)
H4 H 0.4578 -0.5122 0.7897
C5 C 0.49461(18) -0.2695(5) 0.9040(2)
H5 H 0.5489 -0.3457 0.9236
C6 C 0.47027(17) -0.0554(5) 0.95669(19)
C7 C 0.38879(19) 0.0508(5) 0.9231(2)
H6 H 0.3712 0.1954 0.9553
C8 C 0.33295(19) -0.0516(6) 0.8432(2)
H7 H 0.2781 0.0226 0.8241
N2 N 0.12733(15) -0.0080(4) 0.58098(18)
C9 C 0.2066(2) 0.0746(6) 0.5445(2)
H8 H 0.2100 0.2060 0.4974
N3 N 0.24164(16) -0.2166(4) 0.64403(19)
N4 N -0.09314(19) 0.5058(5) 0.5967(2)
N5 N -0.08344(16) 0.6808(4) 0.6511(2)
N6 N -0.0773(2) 0.8565(5) 0.7028(2)
Ag1B Ag 0.999004(16) -0.20367(5) 1.403135(19)
Ag1B_2 Ag -0.000996(16) -0.20367(5) 0.403135(19)
Ag1_2 Ag 0.000996(16) 1.20367(5) 0.596865(19)
Ag1_3 Ag 0.000996(16) -0.79633(5) 0.596865(19)
Ag1_4 Ag 1.000996(16) 0.20367(5) 1.596865(19)
C1B C 0.84692(19) 0.1922(5) 1.3558(2)
H1B H 0.8859 0.2899 1.3171
N1B N 0.72159(16) 0.0428(5) 1.4201(2)
C2B C 0.7011(2) 0.3858(5) 1.2942(3)
H2B H 0.6627 0.4722 1.3438
H3B H 0.7393 0.5046 1.2596
C3B C 0.64198(19) 0.2637(5) 1.2084(2)
C4B C 0.56036(19) 0.3699(5) 1.1766(2)
H4B H 0.5422 0.5122 1.2103
C5B C 0.50539(18) 0.2695(5) 1.0960(2)
H5B H 0.4511 0.3457 1.0764
C6B C 0.52973(17) 0.0554(5) 1.04331(19)
C7B C 0.61121(19) -0.0508(5) 1.0769(2)
H6B H 0.6288 -0.1954 1.0447
C8B C 0.66705(19) 0.0516(6) 1.1568(2)
H7B H 0.7219 -0.0226 1.1759
N2B N 0.87267(15) 0.0080(4) 1.41902(18)
C9B C 0.7934(2) -0.0746(6) 1.4555(2)
H8B H 0.7900 -0.2060 1.5026
N3B N 0.75836(16) 0.2166(4) 1.35597(19)
N4_2 N -0.09314(19) -0.4942(5) 0.5967(2)
N4B N 1.09314(19) -0.5058(5) 1.4033(2)
N5_2 N -0.08344(16) -0.3192(4) 0.6511(2)
N6_2 N -0.0773(2) -0.1435(5) 0.7028(2)
N6B N 1.0773(2) 0.1435(5) 1.2972(2)
loop_
_geom_bond_atom_site_label_1
_geom_bond_atom_site_label_2
_geom_bond_site_symmetry_1
_geom_bond_site_symmetry_2
Ag1 N2 1_555 1_555
C1 H1 1_555 1_555
N1 C9 1_555 1_555
C2 H2 1_555 1_555
H3 C2 1_555 1_555
C3 C2 1_555 1_555
C4 C3 1_555 1_555
H4 C4 1_555 1_555
C5 C4 1_555 1_555
H5 C5 1_555 1_555
C6 C5 1_555 1_555
C7 C6 1_555 1_555
H6 C7 1_555 1_555
C8 C3 1_555 1_555
H7 C8 1_555 1_555
N2 C1 1_555 1_555
C9 N2 1_555 1_555
H8 C9 1_555 1_555
N3 C1 1_555 1_555
N4 Ag1 1_555 1_555
N5 N4 1_555 1_555
N6 N5 1_555 1_555
Ag1B Ag1_4 1_555 1_555
Ag1B_2 Ag1 1_555 1_555
Ag1_2 N6 1_555 1_555
Ag1_3 N4_2 1_555 1_555
C1B H1B 1_555 1_555
N1B C9B 1_555 1_555
C2B H2B 1_555 1_555
H3B C2B 1_555 1_555
C3B C2B 1_555 1_555
C4B C3B 1_555 1_555
H4B C4B 1_555 1_555
C5B C4B 1_555 1_555
H5B C5B 1_555 1_555
C6B C6 1_555 1_555
C7B C6B 1_555 1_555
H6B C7B 1_555 1_555
C8B C3B 1_555 1_555
H7B C8B 1_555 1_555
N2B Ag1B 1_555 1_555
C9B N2B 1_555 1_555
H8B C9B 1_555 1_555
N3B C1B 1_555 1_555
N4_2 N5_2 1_555 1_555
N4B Ag1B 1_555 1_555
N5_2 N6_2 1_555 1_555
N6_2 Ag1 1_555 1_555
N6B Ag1B 1_555 1_555
N1 N3 1_555 1_555
C2 N3 1_555 1_555
C7 C8 1_555 1_555
C1B N2B 1_555 1_555
N1B N3B 1_555 1_555
C2B N3B 1_555 1_555
C5B C6B 1_555 1_555
C7B C8B 1_555 1_555

#END
