
#######################################################################
#
#                 Cambridge Crystallographic Data Centre
#                                CCDC 
#
#######################################################################
#
# If this CIF has been generated from an entry in the Cambridge 
# Structural Database, then it will include bibliographic, chemical, 
# crystal, experimental, refinement or atomic coordinate data resulting 
# from the CCDC's data processing and validation procedures.
#
#######################################################################

data_ISITEK
_symmetry_cell_setting           monoclinic
_symmetry_space_group_name_H-M   'C 2/c'
_symmetry_Int_Tables_number      15
_space_group_name_Hall           '-C 2yn'
loop_
_symmetry_equiv_pos_site_id
_symmetry_equiv_pos_as_xyz
1 x,y,z
2 -x,y,1/2-z
3 1/2+x,1/2+y,z
4 1/2-x,1/2+y,1/2-z
5 -x,-y,-z
6 x,-y,1/2+z
7 1/2-x,1/2-y,-z
8 1/2+x,1/2-y,1/2+z
_cell_length_a                   29.358(4)
_cell_length_b                   4.2576(5)
_cell_length_c                   17.341(2)
_cell_angle_alpha                90
_cell_angle_beta                 113.6050(10)
_cell_angle_gamma                90
_cell_volume                     1986.17
loop_
_atom_site_label
_atom_site_type_symbol
_atom_site_fract_x
_atom_site_fract_y
_atom_site_fract_z
F1 F -0.0350(3) 0.9831(10) 0.2606(5)
F2 F 0.0454(4) 0.773(3) 0.3844(8)
F3 F 0.0453(4) 1.101(6) 0.3785(8)
B1 B 0.0257(5) 0.965(3) 0.3177(9)
F1A F 0.0350(3) 0.9831(10) 0.2394(5)
F2A F -0.0454(4) 0.773(3) 0.1156(8)
F3A F -0.0453(4) 1.101(6) 0.1215(8)
B1A B -0.0257(5) 0.965(3) 0.1823(9)
Ag1 Ag 0.5000 0.5000 1.0000
C1 C 0.42851(16) 0.9730(8) 0.8656(3)
H1 H 0.4506 1.0068 0.8401
C2 C 0.39487(14) 0.8172(10) 0.9445(2)
H2 H 0.3901 0.7136 0.9878
C3 C 0.35815(15) 1.3094(9) 0.7693(2)
H3 H 0.3375 1.4541 0.7843
H4 H 0.3826 1.4322 0.7579
C4 C 0.32600(13) 1.1341(9) 0.6904(2)
C5 C 0.27644(19) 1.0801(14) 0.6706(3)
H5 H 0.2624 1.1477 0.7072
C6 C 0.24727(18) 0.9269(15) 0.5974(3)
H6 H 0.2140 0.8895 0.5864
C7 C 0.26577(12) 0.8277(8) 0.5401(2)
C8 C 0.34528(18) 1.0322(11) 0.6352(3)
H7 H 0.3788 1.0656 0.6472
C9 C 0.31594(15) 0.8805(14) 0.5617(3)
H8 H 0.3303 0.8117 0.5256
N1 N 0.43726(11) 0.7906(8) 0.93194(19)
N2 N 0.38404(11) 1.0993(8) 0.84109(18)
N3 N 0.36117(15) 0.9997(7) 0.8910(3)
Ag1B Ag 0.0000 1.0000 0.0000
C1F C 0.07149(16) 0.5270(8) 0.1344(3)
H1F H 0.0494 0.4932 0.1599
C2F C 0.10513(14) 0.6828(10) 0.0555(2)
H2F H 0.1099 0.7864 0.0122
C3F C 0.14185(15) 0.1906(9) 0.2307(2)
H3F H 0.1625 0.0459 0.2157
H4F H 0.1174 0.0678 0.2421
C4F C 0.17400(13) 0.3659(9) 0.3096(2)
C5F C 0.22356(19) 0.4199(14) 0.3294(3)
H5F H 0.2376 0.3523 0.2928
C6F C 0.25273(18) 0.5731(15) 0.4026(3)
H6F H 0.2860 0.6105 0.4136
C7F C 0.23423(12) 0.6723(8) 0.4599(2)
C8F C 0.15472(18) 0.4678(11) 0.3648(3)
H7F H 0.1212 0.4344 0.3528
C9F C 0.18406(15) 0.6195(14) 0.4383(3)
H8F H 0.1697 0.6883 0.4744
N1F N 0.06274(11) 0.7094(8) 0.06806(19)
N1D N 0.56274(11) 0.2094(8) 1.06806(19)
N2F N 0.11596(11) 0.4007(8) 0.15891(18)
N3F N 0.13883(15) 0.5003(7) 0.1090(3)
loop_
_geom_bond_atom_site_label_1
_geom_bond_atom_site_label_2
_geom_bond_site_symmetry_1
_geom_bond_site_symmetry_2
Ag1 N1 1_555 1_555
C1 H1 1_555 1_555
C2 H2 1_555 1_555
C3 H3 1_555 1_555
H4 C3 1_555 1_555
C4 C3 1_555 1_555
C5 C4 1_555 1_555
H5 C5 1_555 1_555
C6 C5 1_555 1_555
H6 C6 1_555 1_555
C7 C6 1_555 1_555
C8 C4 1_555 1_555
H7 C8 1_555 1_555
C9 C7 1_555 1_555
H8 C9 1_555 1_555
N1 C1 1_555 1_555
N2 C1 1_555 1_555
N3 C2 1_555 1_555
F1 B1 1_555 1_555
F2 F3 1_555 1_555
F3 B1 1_555 1_555
B1 F2 1_555 1_555
Ag1B N1F 1_555 1_555
C1F H1F 1_555 1_555
C2F H2F 1_555 1_555
C3F H3F 1_555 1_555
H4F C3F 1_555 1_555
C4F C3F 1_555 1_555
C5F C4F 1_555 1_555
H5F C5F 1_555 1_555
C6F C5F 1_555 1_555
H6F C6F 1_555 1_555
C7F C7 1_555 1_555
C8F C4F 1_555 1_555
H7F C8F 1_555 1_555
C9F C7F 1_555 1_555
H8F C9F 1_555 1_555
N1F C1F 1_555 1_555
N1D Ag1 1_555 1_555
N2F C1F 1_555 1_555
N3F C2F 1_555 1_555
F1A B1 1_555 1_555
F2A F3A 1_555 1_555
F3A B1A 1_555 1_555
B1A F1 1_555 1_555
C2 N1 1_555 1_555
C3 N2 1_555 1_555
C8 C9 1_555 1_555
N2 N3 1_555 1_555
C2F N1F 1_555 1_555
C3F N2F 1_555 1_555
C6F C7F 1_555 1_555
C8F C9F 1_555 1_555
N2F N3F 1_555 1_555
F1A B1A 1_555 1_555
F2A B1A 1_555 1_555

#END
