
#######################################################################
#
#                 Cambridge Crystallographic Data Centre
#                                CCDC 
#
#######################################################################
#
# If this CIF has been generated from an entry in the Cambridge 
# Structural Database, then it will include bibliographic, chemical, 
# crystal, experimental, refinement or atomic coordinate data resulting 
# from the CCDC's data processing and validation procedures.
#
#######################################################################

data_ISODUP
_symmetry_cell_setting           monoclinic
_symmetry_space_group_name_H-M   'P 21/n'
_symmetry_Int_Tables_number      14
_space_group_name_Hall           '-P 2yn'
loop_
_symmetry_equiv_pos_site_id
_symmetry_equiv_pos_as_xyz
1 x,y,z
2 1/2-x,1/2+y,1/2-z
3 -x,-y,-z
4 1/2+x,1/2-y,1/2+z
_cell_length_a                   16.0691(10)
_cell_length_b                   7.9677(5)
_cell_length_c                   16.3441(10)
_cell_angle_alpha                90
_cell_angle_beta                 96.9230(10)
_cell_angle_gamma                90
_cell_volume                     2077.34
loop_
_atom_site_label
_atom_site_type_symbol
_atom_site_fract_x
_atom_site_fract_y
_atom_site_fract_z
Zn1 Zn 0.250681(13) 0.05574(3) 0.141356(13)
N1 N 0.28865(11) 0.1079(2) 0.01900(10)
C1 C 0.26160(15) -0.0415(3) -0.03087(13)
H1 H 0.3034 -0.1323 -0.0189
H2 H 0.2588 -0.0133 -0.0901
N2 N 0.15679(11) -0.0669(2) 0.06339(10)
C2 C 0.17703(15) -0.1024(3) -0.01251(13)
C3 C 0.12547(18) -0.1927(3) -0.06922(14)
H3 H 0.1407 -0.2135 -0.1227
C4 C 0.05038(19) -0.2534(4) -0.04653(16)
H4 H 0.0144 -0.3193 -0.0842
C5 C 0.02825(15) -0.2184(3) 0.02988(15)
H5 H -0.0228 -0.2599 0.0458
C6 C 0.08248(13) -0.1198(3) 0.08459(13)
N3 N 0.06237(13) -0.0789(3) 0.15915(13)
H6 H 0.0240(18) -0.108(4) 0.1708(17)
H7 H 0.0901(18) -0.013(4) 0.1892(17)
C7 C 0.37957(13) 0.1414(3) 0.02045(13)
H8 H 0.4110 0.0380 0.0378
H9 H 0.3963 0.2292 0.0621
C8 C 0.40410(14) 0.1979(3) -0.06191(14)
H10 H 0.4652 0.2194 -0.0567
H11 H 0.3908 0.1083 -0.1034
N4 N 0.35754(12) 0.3544(3) -0.08938(12)
H12 H 0.3747(17) 0.425(3) -0.0512(17)
C9 C 0.38013(18) 0.4159(4) -0.17018(16)
H13 H 0.3492 0.5194 -0.1856
H14 H 0.3655 0.3303 -0.2125
H15 H 0.4405 0.4383 -0.1654
C10 C 0.26532(14) 0.3240(3) -0.09350(14)
H16 H 0.2480 0.2404 -0.1371
H17 H 0.2348 0.4298 -0.1083
C11 C 0.24204(13) 0.2606(3) -0.01187(13)
H18 H 0.2528 0.3508 0.0297
H19 H 0.1812 0.2358 -0.0181
O1 O 0.24588(9) -0.12780(18) 0.22982(9)
O2 O 0.32161(9) -0.24812(18) 0.33748(9)
C12 C 0.30796(12) -0.1345(2) 0.28354(11)
C13 C 0.37250(14) 0.0042(3) 0.28794(13)
H20 H 0.3678 0.0736 0.3375
H21 H 0.4293 -0.0460 0.2937
N5 N 0.36207(11) 0.1119(2) 0.21476(11)
H22 H 0.3588(17) 0.217(4) 0.2317(17)
H23 H 0.4036(19) 0.106(4) 0.1939(17)
O2A O 0.17839(9) 0.25188(18) 0.16252(9)
Zn1A Zn 0.249319(13) -0.44426(3) 0.358644(13)
Cl1 Cl 0.39532(3) -0.13246(7) -0.23875(3)
O3 O 0.45742(11) -0.1512(3) -0.16860(12)
O4 O 0.31513(12) -0.1452(4) -0.21332(13)
O5 O 0.40420(12) -0.2608(3) -0.29801(12)
O6 O 0.4054(2) 0.0242(4) -0.2762(2)
Cl2 Cl 0.37406(3) -0.37709(6) 0.10553(3)
O7 O 0.40090(13) -0.2161(2) 0.13692(13)
O8 O 0.40070(15) -0.5050(3) 0.16308(14)
O9 O 0.28511(13) -0.3836(3) 0.08750(15)
O10 O 0.41238(15) -0.4059(3) 0.03124(13)
loop_
_geom_bond_atom_site_label_1
_geom_bond_atom_site_label_2
_geom_bond_site_symmetry_1
_geom_bond_site_symmetry_2
Zn1 N1 1_555 1_555
N1 C1 1_555 1_555
C1 H1 1_555 1_555
H2 C1 1_555 1_555
N2 Zn1 1_555 1_555
C2 C1 1_555 1_555
C3 C2 1_555 1_555
H3 C3 1_555 1_555
C4 C3 1_555 1_555
H4 C4 1_555 1_555
C5 C4 1_555 1_555
H5 C5 1_555 1_555
C6 N2 1_555 1_555
N3 C6 1_555 1_555
H6 N3 1_555 1_555
H7 N3 1_555 1_555
C7 N1 1_555 1_555
H8 C7 1_555 1_555
H9 C7 1_555 1_555
C8 C7 1_555 1_555
H10 C8 1_555 1_555
H11 C8 1_555 1_555
N4 C8 1_555 1_555
H12 N4 1_555 1_555
C9 N4 1_555 1_555
H13 C9 1_555 1_555
H14 C9 1_555 1_555
H15 C9 1_555 1_555
C10 N4 1_555 1_555
H16 C10 1_555 1_555
H17 C10 1_555 1_555
C11 N1 1_555 1_555
H18 C11 1_555 1_555
H19 C11 1_555 1_555
O1 Zn1 1_555 1_555
O2 C12 1_555 1_555
C12 O1 1_555 1_555
C13 C12 1_555 1_555
H20 C13 1_555 1_555
H21 C13 1_555 1_555
N5 Zn1 1_555 1_555
H22 N5 1_555 1_555
H23 N5 1_555 1_555
Cl1 O3 1_555 1_555
O4 Cl1 1_555 1_555
O5 Cl1 1_555 1_555
O6 Cl1 1_555 1_555
Cl2 O7 1_555 1_555
O8 Cl2 1_555 1_555
O9 Cl2 1_555 1_555
O10 Cl2 1_555 1_555
O2A Zn1 1_555 1_555
Zn1A O2 1_555 1_555
N2 C2 1_555 1_555
C5 C6 1_555 1_555
C10 C11 1_555 1_555
C13 N5 1_555 1_555

#END
