
#######################################################################
#
#                 Cambridge Crystallographic Data Centre
#                                CCDC 
#
#######################################################################
#
# If this CIF has been generated from an entry in the Cambridge 
# Structural Database, then it will include bibliographic, chemical, 
# crystal, experimental, refinement or atomic coordinate data resulting 
# from the CCDC's data processing and validation procedures.
#
#######################################################################

data_ISOJUW
_symmetry_cell_setting           monoclinic
_symmetry_space_group_name_H-M   'C 2/c'
_symmetry_Int_Tables_number      15
_space_group_name_Hall           '-C 2yn'
loop_
_symmetry_equiv_pos_site_id
_symmetry_equiv_pos_as_xyz
1 x,y,z
2 -x,y,1/2-z
3 1/2+x,1/2+y,z
4 1/2-x,1/2+y,1/2-z
5 -x,-y,-z
6 x,-y,1/2+z
7 1/2-x,1/2-y,-z
8 1/2+x,1/2-y,1/2+z
_cell_length_a                   29.394(16)
_cell_length_b                   5.317(2)
_cell_length_c                   18.588(10)
_cell_angle_alpha                90
_cell_angle_beta                 118.972(7)
_cell_angle_gamma                90
_cell_volume                     2541.53
loop_
_atom_site_label
_atom_site_type_symbol
_atom_site_fract_x
_atom_site_fract_y
_atom_site_fract_z
Cu1 Cu 0.24580(2) 0.02119(12) 0.27890(4)
Cu2 Cu 0.03173(2) -0.25598(10) 0.03685(4)
C1 C 0.07947(18) -0.6565(9) -0.0142(3)
C2 C 0.13239(17) -0.0711(9) 0.1681(3)
C3 C 0.14200(17) -0.3890(10) 0.1035(3)
C4 C 0.10909(17) 0.1254(9) 0.1931(3)
C5 C 0.0727(2) -0.8378(10) -0.0740(3)
H1 H 0.0392 -0.8810 -0.1139
C6 C 0.05499(18) 0.1687(9) 0.1505(3)
C7 C 0.1725(2) -0.7051(12) 0.0388(4)
H2 H 0.2063 -0.6575 0.0757
C8 C 0.13111(18) -0.5859(9) 0.0425(3)
C9 C 0.03507(19) 0.3511(10) 0.1823(3)
H3 H -0.0007 0.3752 0.1571
C10 C 0.1198(2) 0.4586(10) 0.2891(3)
H4 H 0.1415 0.5590 0.3337
C11 C 0.1403(2) 0.2728(10) 0.2624(3)
H5 H 0.1759 0.2435 0.2909
C12 C 0.1644(2) -0.8908(13) -0.0179(4)
H6 H 0.1924 -0.9733 -0.0176
C13 C 0.0667(2) 0.4950(10) 0.2492(3)
H7 H 0.0523 0.6176 0.2678
C14 C 0.1142(2) -0.9518(11) -0.0750(4)
H8 H 0.1083 -1.0723 -0.1149
N1 N 0.18353(14) -0.1263(8) 0.2046(2)
N2 N 0.18937(15) -0.3307(8) 0.1638(3)
N3 N 0.10658(14) -0.2333(7) 0.1051(2)
O1 O 0.03754(12) -0.5612(6) -0.0135(2)
O2 O 0.02193(12) 0.0493(6) 0.0814(2)
Cu1C Cu 0.25420(2) -0.47881(12) 0.22110(4)
Cu2D Cu -0.03173(2) -0.74402(10) -0.03685(4)
Cu2D_2 Cu -0.03173(2) 0.25598(10) -0.03685(4)
N2C N 0.31063(15) 0.1693(8) 0.3362(3)
O1D O -0.03754(12) -0.4388(6) 0.0135(2)
O2D O -0.02193(12) -0.0493(6) -0.0814(2)
loop_
_geom_bond_atom_site_label_1
_geom_bond_atom_site_label_2
_geom_bond_site_symmetry_1
_geom_bond_site_symmetry_2
Cu1 N1 1_555 1_555
Cu2 N3 1_555 1_555
C1 C5 1_555 1_555
C2 C4 1_555 1_555
C3 C8 1_555 1_555
C4 C6 1_555 1_555
C5 H1 1_555 1_555
C6 C9 1_555 1_555
C7 H2 1_555 1_555
C8 C1 1_555 1_555
C9 H3 1_555 1_555
C10 H4 1_555 1_555
C11 C4 1_555 1_555
H5 C11 1_555 1_555
C12 C7 1_555 1_555
H6 C12 1_555 1_555
C13 C9 1_555 1_555
H7 C13 1_555 1_555
C14 C5 1_555 1_555
H8 C14 1_555 1_555
N1 C2 1_555 1_555
N2 C3 1_555 1_555
N3 C2 1_555 1_555
O1 Cu2 1_555 1_555
O2 Cu2 1_555 1_555
Cu1C N2 1_555 1_555
Cu2D O1 1_555 1_555
Cu2D_2 O2 1_555 1_555
N2C Cu1 1_555 1_555
O1D Cu2 1_555 1_555
O2D Cu2 1_555 1_555
C1 O1 1_555 1_555
C3 N3 1_555 1_555
C6 O2 1_555 1_555
C7 C8 1_555 1_555
C10 C11 1_555 1_555
C10 C13 1_555 1_555
C12 C14 1_555 1_555
N1 N2 1_555 1_555
Cu2D O1D 1_555 1_555
Cu2D_2 O2D 1_555 1_555

#END
