
#######################################################################
#
#                 Cambridge Crystallographic Data Centre
#                                CCDC 
#
#######################################################################
#
# If this CIF has been generated from an entry in the Cambridge 
# Structural Database, then it will include bibliographic, chemical, 
# crystal, experimental, refinement or atomic coordinate data resulting 
# from the CCDC's data processing and validation procedures.
#
#######################################################################

data_ISOJOP
_symmetry_cell_setting           monoclinic
_symmetry_space_group_name_H-M   'P 21/n'
_symmetry_Int_Tables_number      14
_space_group_name_Hall           '-P 2yn'
loop_
_symmetry_equiv_pos_site_id
_symmetry_equiv_pos_as_xyz
1 x,y,z
2 1/2+x,1/2-y,1/2+z
3 -x,-y,-z
4 1/2-x,1/2+y,1/2-z
_cell_length_a                   15.885(3)
_cell_length_b                   8.4890(17)
_cell_length_c                   19.189(4)
_cell_angle_alpha                90.00
_cell_angle_beta                 106.02(3)
_cell_angle_gamma                90.00
_cell_volume                     2487.11
loop_
_atom_site_label
_atom_site_type_symbol
_atom_site_fract_x
_atom_site_fract_y
_atom_site_fract_z
Tb1 Tb 0.35077(3) 0.22283(5) 0.20482(2)
Tb2 Tb 0.42334(3) 0.18293(5) 0.01393(2)
O1 O 0.2488(4) 0.4380(8) 0.1255(3)
O2 O 0.3138(4) 0.2618(7) 0.0755(3)
O3 O 0.3626(5) 0.4275(8) -0.0359(4)
O4 O 0.3073(5) 0.6675(8) -0.0309(4)
O5 O 0.5003(4) 0.1158(8) 0.2591(3)
O6 O 0.4512(4) 0.1198(8) 0.1409(3)
O7 O 0.5564(4) 0.0412(8) 0.0607(3)
O8 O 0.6506(4) -0.1380(8) 0.1153(4)
O9 O 0.4400(4) 0.4426(8) 0.1934(4)
O10 O 0.4578(5) 0.7039(8) 0.1911(4)
O11 O 0.3184(4) 0.4136(8) 0.2829(3)
O12 O 0.2981(4) 0.6673(8) 0.3044(4)
O13 O 0.3655(5) 0.0917(8) 0.3187(4)
O14 O 0.3244(4) -0.0589(8) 0.1702(4)
O15 O 0.5220(4) 0.2743(8) -0.0517(4)
O16 O 0.5182(4) 0.3781(8) 0.0864(4)
O17 O 0.3165(5) -0.0231(8) 0.0174(4)
C1 C 0.2624(6) 0.3810(10) 0.0693(5)
C2 C 0.3037(6) 0.5206(11) -0.0266(5)
C3 C 0.2259(6) 0.4476(11) -0.0059(5)
C4 C 0.1730(6) 0.3170(12) -0.0576(5)
H1 H 0.1849 0.2107 -0.0390
H2 H 0.1765 0.3245 -0.1071
C5 C 0.0882(7) 0.3918(14) -0.0450(6)
H3 H 0.0414 0.4074 -0.0891
H4 H 0.0670 0.3380 -0.0085
C6 C 0.1412(7) 0.5422(12) -0.0170(5)
H5 H 0.1341 0.6245 -0.0532
H6 H 0.1322 0.5830 0.0276
C7 C 0.5134(6) 0.0937(10) 0.1976(5)
C8 C 0.6035(6) -0.0216(11) 0.1191(5)
C9 C 0.6037(6) 0.0471(11) 0.1929(5)
C10 C 0.6735(6) 0.1852(11) 0.2115(5)
H7 H 0.6903 0.2249 0.1699
H8 H 0.6578 0.2705 0.2391
C11 C 0.7396(6) 0.0664(12) 0.2582(5)
H9 H 0.7700 0.1058 0.3060
H10 H 0.7806 0.0237 0.2339
C12 C 0.6623(6) -0.0457(11) 0.2577(5)
H11 H 0.6725 -0.1541 0.2463
H12 H 0.6429 -0.0396 0.3014
C13 C 0.4472(6) 0.5800(11) 0.2226(5)
C14 C 0.3452(6) 0.5556(11) 0.2956(4)
C15 C 0.4410(6) 0.5837(11) 0.3013(5)
C16 C 0.4879(6) 0.7235(11) 0.3479(5)
H13 H 0.5036 0.8082 0.3200
H14 H 0.4575 0.7636 0.3816
C17 C 0.5643(8) 0.6114(14) 0.3827(7)
H15 H 0.5822 0.6153 0.4352
H16 H 0.6143 0.6235 0.3634
C18 C 0.5067(7) 0.4679(11) 0.3518(5)
H17 H 0.4831 0.4143 0.3869
H18 H 0.5338 0.3940 0.3261
H19 H 0.3300 0.0718 0.3489
H20 H 0.3980 0.0038 0.3318
H21 H 0.2798 -0.0909 0.1962
H22 H 0.3688 -0.1295 0.1829
H23 H 0.5232 0.3039 -0.1000
H24 H 0.5751 0.2916 -0.0368
H25 H 0.5479 0.4338 0.0633
H26 H 0.4829 0.4627 0.0933
H27 H 0.2958 -0.0997 -0.0151
H28 H 0.3228 -0.0384 0.0638
O12C O 0.2019(4) 0.1673(8) 0.1956(4)
O7B O 0.4436(4) -0.0412(8) -0.0607(3)
O8B O 0.3494(4) 0.1380(8) -0.1153(4)
Tb2B Tb 0.57666(3) -0.18293(5) -0.01393(2)
Tb1C Tb 0.14923(3) 0.72283(5) 0.29518(2)
loop_
_geom_bond_atom_site_label_1
_geom_bond_atom_site_label_2
_geom_bond_site_symmetry_1
_geom_bond_site_symmetry_2
Tb1 O1 1_555 1_555
Tb2 O2 1_555 1_555
O1 C1 1_555 1_555
O2 Tb1 1_555 1_555
O3 Tb2 1_555 1_555
O4 C2 1_555 1_555
O5 Tb1 1_555 1_555
O6 Tb1 1_555 1_555
O7 Tb2 1_555 1_555
O8 C8 1_555 1_555
O9 Tb1 1_555 1_555
O10 C13 1_555 1_555
O11 Tb1 1_555 1_555
O12 C14 1_555 1_555
O13 Tb1 1_555 1_555
O14 Tb1 1_555 1_555
O15 Tb2 1_555 1_555
O16 Tb2 1_555 1_555
O17 Tb2 1_555 1_555
C1 O2 1_555 1_555
C2 O3 1_555 1_555
C3 C1 1_555 1_555
C4 C3 1_555 1_555
H1 C4 1_555 1_555
H2 C4 1_555 1_555
C5 C4 1_555 1_555
H3 C5 1_555 1_555
H4 C5 1_555 1_555
C6 C3 1_555 1_555
H5 C6 1_555 1_555
H6 C6 1_555 1_555
C7 O5 1_555 1_555
C8 O7 1_555 1_555
C9 C7 1_555 1_555
C10 C9 1_555 1_555
H7 C10 1_555 1_555
H8 C10 1_555 1_555
C11 C10 1_555 1_555
H9 C11 1_555 1_555
H10 C11 1_555 1_555
C12 C9 1_555 1_555
H11 C12 1_555 1_555
H12 C12 1_555 1_555
C13 O9 1_555 1_555
C14 O11 1_555 1_555
C15 C13 1_555 1_555
C16 C15 1_555 1_555
H13 C16 1_555 1_555
H14 C16 1_555 1_555
C17 C16 1_555 1_555
H15 C17 1_555 1_555
H16 C17 1_555 1_555
C18 C15 1_555 1_555
H17 C18 1_555 1_555
H18 C18 1_555 1_555
H19 O13 1_555 1_555
H20 O13 1_555 1_555
H21 O14 1_555 1_555
H22 O14 1_555 1_555
H23 O15 1_555 1_555
H24 O15 1_555 1_555
H25 O16 1_555 1_555
H26 O16 1_555 1_555
H27 O17 1_555 1_555
H28 O17 1_555 1_555
O12C Tb1 1_555 1_555
O7B Tb2 1_555 1_555
O8B Tb2 1_555 1_555
Tb2B O7 1_555 1_555
Tb1C O12 1_555 1_555
Tb2 O6 1_555 1_555
O6 C7 1_555 1_555
O8 Tb2B 1_555 1_555
C2 C3 1_555 1_555
C5 C6 1_555 1_555
C8 C9 1_555 1_555
C11 C12 1_555 1_555
C14 C15 1_555 1_555
C17 C18 1_555 1_555
O7B Tb2B 1_555 1_555

#END
