
#######################################################################
#
#                 Cambridge Crystallographic Data Centre
#                                CCDC 
#
#######################################################################
#
# If this CIF has been generated from an entry in the Cambridge 
# Structural Database, then it will include bibliographic, chemical, 
# crystal, experimental, refinement or atomic coordinate data resulting 
# from the CCDC's data processing and validation procedures.
#
#######################################################################

data_ISOPOV01
_symmetry_cell_setting           monoclinic
_symmetry_space_group_name_H-M   'P 21/m'
_symmetry_Int_Tables_number      11
_space_group_name_Hall           '-P 2yb'
loop_
_symmetry_equiv_pos_site_id
_symmetry_equiv_pos_as_xyz
1 x,y,z
2 -x,1/2+y,-z
3 -x,-y,-z
4 x,1/2-y,z
_cell_length_a                   6.3113(8)
_cell_length_b                   9.8980(13)
_cell_length_c                   7.4380(9)
_cell_angle_alpha                90
_cell_angle_beta                 109.871(14)
_cell_angle_gamma                90
_cell_volume                     436.981
loop_
_atom_site_label
_atom_site_type_symbol
_atom_site_fract_x
_atom_site_fract_y
_atom_site_fract_z
I1 I 0.72224(7) 0.2500 0.72725(7)
I2 I 0.36274(9) 0.2500 0.10967(7)
Zn1 Zn 0.35896(14) 0.2500 0.44727(13)
N1 N 0.1489(7) 0.0957(4) 0.4769(7)
C1 C -0.0411(8) 0.0642(5) 0.3331(8)
H1 H -0.0738 0.1079 0.2130
C2 C 0.1907(8) 0.0315(5) 0.6424(7)
H2 H 0.3249 0.0512 0.7456
Zn1B Zn -0.35896(14) -0.2500 0.55273(13)
N1B N -0.1489(7) -0.0957(4) 0.5231(7)
N1C N 0.1489(7) 0.4043(4) 0.4769(7)
C1B C 0.0411(8) -0.0642(5) 0.6669(8)
H1B H 0.0738 -0.1079 0.7870
C2B C -0.1907(8) -0.0315(5) 0.3576(7)
H2B H -0.3249 -0.0512 0.2544
loop_
_geom_bond_atom_site_label_1
_geom_bond_atom_site_label_2
_geom_bond_site_symmetry_1
_geom_bond_site_symmetry_2
I1 Zn1 1_555 1_555
I2 Zn1 1_555 1_555
Zn1 N1 1_555 1_555
N1 C1 1_555 1_555
C1 H1 1_555 1_555
C2 N1 1_555 1_555
H2 C2 1_555 1_555
Zn1B N1B 1_555 1_555
N1B C1B 1_555 1_555
N1C Zn1 1_555 1_555
C1B C2 1_555 1_555
H1B C1B 1_555 1_555
C2B C1 1_555 1_555
H2B C2B 1_555 1_555
N1B C2B 1_555 1_555

#END
