
#######################################################################
#
#                 Cambridge Crystallographic Data Centre
#                                CCDC 
#
#######################################################################
#
# If this CIF has been generated from an entry in the Cambridge 
# Structural Database, then it will include bibliographic, chemical, 
# crystal, experimental, refinement or atomic coordinate data resulting 
# from the CCDC's data processing and validation procedures.
#
#######################################################################

data_ISOQAI
_symmetry_cell_setting           monoclinic
_symmetry_space_group_name_H-M   'C 2/c'
_symmetry_Int_Tables_number      15
_space_group_name_Hall           '-C 2yn'
loop_
_symmetry_equiv_pos_site_id
_symmetry_equiv_pos_as_xyz
1 x,y,z
2 1/2+x,1/2+y,z
3 x,-y,1/2+z
4 1/2+x,1/2-y,1/2+z
5 -x,-y,-z
6 1/2-x,1/2-y,-z
7 -x,y,1/2-z
8 1/2-x,1/2+y,1/2-z
_cell_length_a                   15.928(3)
_cell_length_b                   6.3448(12)
_cell_length_c                   15.582(3)
_cell_angle_alpha                90
_cell_angle_beta                 94.698(3)
_cell_angle_gamma                90
_cell_volume                     1569.43
loop_
_atom_site_label
_atom_site_type_symbol
_atom_site_fract_x
_atom_site_fract_y
_atom_site_fract_z
C1 C 1.3248(3) -0.3085(8) 0.1842(3)
H1 H 1.3453 -0.1869 0.2118
C2 C 1.2469(3) -0.2983(7) 0.1391(3)
H2 H 1.2166 -0.1728 0.1364
C3 C 1.2143(3) -0.4774(7) 0.0979(2)
C4 C 1.2615(3) -0.6608(7) 0.1085(3)
H3 H 1.2406 -0.7869 0.0850
C5 C 1.3387(3) -0.6557(7) 0.1538(3)
H4 H 1.3693 -0.7805 0.1591
C6 C 1.0856(3) -0.2182(7) 0.0296(3)
H5 H 1.1320 -0.1302 0.0146
H6 H 1.0405 -0.2026 -0.0156
C7 C 1.0551(2) -0.1372(7) 0.1124(3)
Co1 Co 1.0000 0.02187(12) 0.2500
O1 O 1.0539(2) 0.0582(5) 0.1244(2)
O2 O 1.0309(2) -0.2606(5) 0.1673(2)
O3 O 1.0000 0.3614(7) 0.2500
S1 S 1.11983(7) -0.48727(18) 0.03160(7)
N1 N 1.3731(2) -0.4820(5) 0.1909(2)
H7 H 1.008(4) 0.441(10) 0.208(4)
H7F H 0.992(4) 0.441(10) 0.292(4)
C1F C 0.6752(3) -0.3085(8) 0.3158(3)
H1F H 0.6547 -0.1869 0.2882
C2F C 0.7531(3) -0.2983(7) 0.3609(3)
H2F H 0.7834 -0.1728 0.3636
C3F C 0.7857(3) -0.4774(7) 0.4021(2)
C4F C 0.7385(3) -0.6608(7) 0.3915(3)
H3F H 0.7594 -0.7869 0.4150
C5F C 0.6613(3) -0.6557(7) 0.3462(3)
H4F H 0.6307 -0.7805 0.3409
C6F C 0.9144(3) -0.2182(7) 0.4704(3)
H5F H 0.8680 -0.1302 0.4854
H6F H 0.9595 -0.2026 0.5156
C7F C 0.9449(2) -0.1372(7) 0.3876(3)
O1F O 0.9461(2) 0.0582(5) 0.3756(2)
O2F O 0.9691(2) -0.2606(5) 0.3327(2)
S1F S 0.88017(7) -0.48727(18) 0.46840(7)
N1F N 0.6269(2) -0.4820(5) 0.3091(2)
N1A N 0.8731(2) 0.0180(5) 0.1909(2)
N1G N 1.1269(2) 0.0180(5) 0.3091(2)
Co1A Co 1.5000 -0.47813(12) 0.2500
Co1A_2 Co 0.5000 -0.47813(12) 0.2500
loop_
_geom_bond_atom_site_label_1
_geom_bond_atom_site_label_2
_geom_bond_site_symmetry_1
_geom_bond_site_symmetry_2
C1 H1 1_555 1_555
C2 C1 1_555 1_555
H2 C2 1_555 1_555
C3 C2 1_555 1_555
C4 C3 1_555 1_555
H3 C4 1_555 1_555
C5 C4 1_555 1_555
H4 C5 1_555 1_555
C6 H5 1_555 1_555
H6 C6 1_555 1_555
C7 C6 1_555 1_555
Co1 O1 1_555 1_555
O1 C7 1_555 1_555
O2 C7 1_555 1_555
O3 Co1 1_555 1_555
S1 C3 1_555 1_555
N1 C1 1_555 1_555
H7 O3 1_555 1_555
H7F O3 1_555 1_555
C1F H1F 1_555 1_555
C2F C1F 1_555 1_555
H2F C2F 1_555 1_555
C3F C2F 1_555 1_555
C4F C3F 1_555 1_555
H3F C4F 1_555 1_555
C5F C4F 1_555 1_555
H4F C5F 1_555 1_555
C6F H5F 1_555 1_555
H6F C6F 1_555 1_555
C7F C6F 1_555 1_555
O1F Co1 1_555 1_555
O2F Co1 1_555 1_555
S1F C3F 1_555 1_555
N1F C1F 1_555 1_555
N1A Co1 1_555 1_555
N1G Co1 1_555 1_555
Co1A N1 1_555 1_555
Co1A_2 N1F 1_555 1_555
C5 N1 1_555 1_555
C6 S1 1_555 1_555
Co1 O2 1_555 1_555
C5F N1F 1_555 1_555
C6F S1F 1_555 1_555
C7F O1F 1_555 1_555
C7F O2F 1_555 1_555

#END
