
#######################################################################
#
#                 Cambridge Crystallographic Data Centre
#                                CCDC 
#
#######################################################################
#
# If this CIF has been generated from an entry in the Cambridge 
# Structural Database, then it will include bibliographic, chemical, 
# crystal, experimental, refinement or atomic coordinate data resulting 
# from the CCDC's data processing and validation procedures.
#
#######################################################################

data_ISOROX
_symmetry_cell_setting           monoclinic
_symmetry_space_group_name_H-M   'P 21/c'
_symmetry_Int_Tables_number      14
_space_group_name_Hall           '-P 2ybc'
loop_
_symmetry_equiv_pos_site_id
_symmetry_equiv_pos_as_xyz
1 x,y,z
2 -x,1/2+y,1/2-z
3 -x,-y,-z
4 x,1/2-y,1/2+z
_cell_length_a                   9.4795(15)
_cell_length_b                   18.986(3)
_cell_length_c                   10.7621(17)
_cell_angle_alpha                90
_cell_angle_beta                 92.300(2)
_cell_angle_gamma                90
_cell_volume                     1935.38
loop_
_atom_site_label
_atom_site_type_symbol
_atom_site_fract_x
_atom_site_fract_y
_atom_site_fract_z
Sm1 Sm 0.252683(18) 0.510205(8) 0.456209(15)
O1 O 0.1045(3) 0.46253(12) 0.6080(2)
O2 O -0.0964(3) 0.44133(13) 0.6983(2)
O3 O 0.4164(2) 0.42758(12) 0.5374(2)
O4 O 0.6220(2) 0.38720(12) 0.6115(2)
O5 O 0.1446(2) 0.61220(11) 0.5825(2)
O6 O 0.3461(2) 0.56651(12) 0.6492(2)
O7 O 0.1385(3) 0.40502(15) 0.3650(3)
O8 O 0.3842(3) 0.47249(15) 0.2772(3)
N1 N 0.2552(4) 0.42465(18) 1.0540(3)
N2 N 0.2822(4) 0.20803(16) 0.7621(3)
N3 N 0.2399(4) 0.7221(2) 1.0070(3)
C1 C 0.0353(4) 0.44622(16) 0.6997(3)
C2 C 0.1134(4) 0.43427(17) 0.8231(3)
C3 C 0.2584(4) 0.43974(18) 0.8342(3)
H1 H 0.3112 0.4471 0.7644
C4 C 0.3237(4) 0.4341(2) 0.9502(4)
H2 H 0.4217 0.4371 0.9562
C5 C 0.1163(5) 0.4174(2) 1.0419(4)
H3 H 0.0661 0.4092 1.1130
C6 C 0.0423(4) 0.4213(2) 0.9287(3)
H4 H -0.0551 0.4152 0.9244
C7 C 0.4922(4) 0.38232(17) 0.5949(3)
C8 C 0.4188(4) 0.31925(16) 0.6489(3)
C9 C 0.2808(4) 0.30331(19) 0.6179(4)
H5 H 0.2304 0.3298 0.5587
C10 C 0.2185(4) 0.2479(2) 0.6753(4)
H6 H 0.1253 0.2374 0.6521
C11 C 0.4165(4) 0.22277(19) 0.7892(4)
H7 H 0.4649 0.1949 0.8477
C12 C 0.4881(4) 0.27696(18) 0.7355(3)
H8 H 0.5826 0.2850 0.7574
C13 C 0.2427(4) 0.60743(17) 0.6633(3)
C14 C 0.2396(4) 0.64823(18) 0.7819(3)
C15 C 0.1677(4) 0.71062(19) 0.7923(3)
H9 H 0.1158 0.7288 0.7244
C16 C 0.1731(4) 0.7462(2) 0.9046(4)
H10 H 0.1273 0.7894 0.9087
C17 C 0.3065(5) 0.6619(3) 0.9950(4)
H11 H 0.3534 0.6437 1.0655
C18 C 0.3126(4) 0.6236(2) 0.8865(4)
H12 H 0.3646 0.5821 0.8839
H13 H 0.353(4) 0.4573(19) 0.216(3)
H14 H 0.067(4) 0.395(2) 0.384(4)
H15 H 0.465(4) 0.458(2) 0.293(4)
H16 H 0.175(5) 0.370(2) 0.332(4)
Sm1B Sm -0.252683(18) 0.489795(8) 0.543791(15)
Sm1B_2 Sm 0.747317(18) 0.489795(8) 0.543791(15)
O2B O 0.0964(3) 0.55867(13) 0.3017(2)
O4B O 0.3780(2) 0.61280(12) 0.3885(2)
loop_
_geom_bond_atom_site_label_1
_geom_bond_atom_site_label_2
_geom_bond_site_symmetry_1
_geom_bond_site_symmetry_2
Sm1 O1 1_555 1_555
O1 C1 1_555 1_555
O2 C1 1_555 1_555
O3 Sm1 1_555 1_555
O4 C7 1_555 1_555
O5 Sm1 1_555 1_555
O6 Sm1 1_555 1_555
O7 Sm1 1_555 1_555
O8 Sm1 1_555 1_555
N1 C4 1_555 1_555
N2 C10 1_555 1_555
N3 C16 1_555 1_555
C1 C2 1_555 1_555
C2 C3 1_555 1_555
C3 H1 1_555 1_555
C4 C3 1_555 1_555
H2 C4 1_555 1_555
C5 N1 1_555 1_555
H3 C5 1_555 1_555
C6 C2 1_555 1_555
H4 C6 1_555 1_555
C7 O3 1_555 1_555
C8 C7 1_555 1_555
C9 C8 1_555 1_555
H5 C9 1_555 1_555
C10 C9 1_555 1_555
H6 C10 1_555 1_555
C11 N2 1_555 1_555
H7 C11 1_555 1_555
C12 C8 1_555 1_555
H8 C12 1_555 1_555
C13 O5 1_555 1_555
C14 C13 1_555 1_555
C15 C14 1_555 1_555
H9 C15 1_555 1_555
C16 C15 1_555 1_555
H10 C16 1_555 1_555
C17 N3 1_555 1_555
H11 C17 1_555 1_555
C18 C14 1_555 1_555
H12 C18 1_555 1_555
H13 O8 1_555 1_555
H14 O7 1_555 1_555
H15 O8 1_555 1_555
H16 O7 1_555 1_555
Sm1B O2 1_555 1_555
Sm1B_2 O4 1_555 1_555
O2B Sm1 1_555 1_555
O4B Sm1 1_555 1_555
O6 C13 1_555 1_555
C5 C6 1_555 1_555
C11 C12 1_555 1_555
C17 C18 1_555 1_555

#END
