
#######################################################################
#
#                 Cambridge Crystallographic Data Centre
#                                CCDC 
#
#######################################################################
#
# If this CIF has been generated from an entry in the Cambridge 
# Structural Database, then it will include bibliographic, chemical, 
# crystal, experimental, refinement or atomic coordinate data resulting 
# from the CCDC's data processing and validation procedures.
#
#######################################################################

data_ISUBII
_symmetry_cell_setting           monoclinic
_symmetry_space_group_name_H-M   'P 2/n'
_symmetry_Int_Tables_number      13
_space_group_name_Hall           '-P 2yac'
loop_
_symmetry_equiv_pos_site_id
_symmetry_equiv_pos_as_xyz
1 x,y,z
2 1/2-x,y,1/2-z
3 -x,-y,-z
4 1/2+x,-y,1/2+z
_cell_length_a                   13.106(3)
_cell_length_b                   10.7290(18)
_cell_length_c                   13.434(2)
_cell_angle_alpha                90
_cell_angle_beta                 106.41(2)
_cell_angle_gamma                90
_cell_volume                     1812.06
loop_
_atom_site_label
_atom_site_type_symbol
_atom_site_fract_x
_atom_site_fract_y
_atom_site_fract_z
Ag1 Ag 0.2500 0.41629(9) 0.2500
Ag2 Ag 0.2500 -0.34923(9) 0.7500
Br1 Br -0.09935(7) 0.72856(9) 0.00008(7)
O1 O 0.1563(4) 0.2475(5) 0.3093(4)
O2 O 0.1319(5) -0.1571(6) 0.7123(4)
O3 O 0.0848(5) 0.0082(6) 0.7913(4)
N1 N 0.0730(4) 0.4762(6) 0.2123(5)
N2 N -0.1019(5) 0.4842(6) 0.2334(5)
N3 N 0.0267(5) 0.3647(6) 0.3454(4)
H1 H -0.0084 0.3744 0.3902
C1 C 0.0416(6) 0.5596(7) 0.1343(6)
H2 H 0.0892 0.5828 0.0977
C2 C -0.0583(6) 0.6111(7) 0.1073(5)
C3 C -0.1288(6) 0.5691(8) 0.1581(6)
H3 H -0.1977 0.6009 0.1394
C4 C 0.0003(6) 0.4451(7) 0.2597(5)
C5 C 0.1023(6) 0.2719(8) 0.3660(6)
C6 C 0.1096(6) 0.1977(8) 0.4629(6)
C7 C 0.0855(6) 0.2429(8) 0.5489(6)
H4 H 0.0657 0.3259 0.5506
C8 C 0.0901(6) 0.1671(8) 0.6332(6)
H5 H 0.0747 0.1998 0.6914
C9 C 0.1175(6) 0.0425(8) 0.6312(6)
C10 C 0.1420(6) -0.0022(9) 0.5454(7)
H6 H 0.1618 -0.0852 0.5437
C11 C 0.1378(6) 0.0745(8) 0.4599(6)
H7 H 0.1539 0.0425 0.4018
C12 C 0.1134(6) -0.0461(9) 0.7148(7)
C13 C 0.0730(8) -0.0732(10) 0.8736(7)
H8 H 0.0527 -0.0248 0.9250
H9 H 0.1394 -0.1144 0.9050
H10 H 0.0192 -0.1344 0.8452
Ag2B Ag -0.2500 0.34923(9) 0.2500
Ag2_2 Ag 0.2500 -0.34923(9) -0.2500
Ag2B_2 Ag 0.7500 0.34923(9) 0.2500
Br1A Br 0.59935(7) 0.72856(9) 0.49992(7)
O1A O 0.3437(4) 0.2475(5) 0.1907(4)
O2A O 0.3681(5) -0.1571(6) -0.2123(4)
O2A_2 O 0.3681(5) -0.1571(6) 0.7877(4)
O3A O 0.4152(5) 0.0082(6) -0.2913(4)
N1A N 0.4270(4) 0.4762(6) 0.2877(5)
N2A N 0.6019(5) 0.4842(6) 0.2666(5)
N2B N 0.1019(5) -0.4842(6) 0.7666(5)
N2C N 0.3981(5) -0.4842(6) 0.7334(5)
N3A N 0.4733(5) 0.3647(6) 0.1546(4)
H1A H 0.5084 0.3744 0.1098
C1A C 0.4584(6) 0.5596(7) 0.3657(6)
H2A H 0.4108 0.5828 0.4023
C2A C 0.5583(6) 0.6111(7) 0.3927(5)
C3A C 0.6288(6) 0.5691(8) 0.3419(6)
H3A H 0.6977 0.6009 0.3606
C4A C 0.4997(6) 0.4451(7) 0.2403(5)
C5A C 0.3977(6) 0.2719(8) 0.1340(6)
C6A C 0.3904(6) 0.1977(8) 0.0371(6)
C7A C 0.4145(6) 0.2429(8) -0.0489(6)
H4A H 0.4343 0.3259 -0.0506
C8A C 0.4099(6) 0.1671(8) -0.1332(6)
H5A H 0.4253 0.1998 -0.1914
C9A C 0.3825(6) 0.0425(8) -0.1312(6)
C10A C 0.3580(6) -0.0022(9) -0.0454(7)
H6A H 0.3382 -0.0852 -0.0437
C11A C 0.3622(6) 0.0745(8) 0.0401(6)
H7A H 0.3461 0.0425 0.0982
C12A C 0.3866(6) -0.0461(9) -0.2148(7)
C13A C 0.4270(8) -0.0732(10) -0.3736(7)
H8A H 0.4473 -0.0248 -0.4250
H9A H 0.3606 -0.1144 -0.4050
H10A H 0.4808 -0.1344 -0.3452
O4 O 0.2500 -0.2269(18) 0.2500
C14 C 0.1654(12) -0.1389(12) 0.1853(13)
H11 H 0.1563 -0.1522 0.1119
H12 H 0.0977 -0.1532 0.1995
C15 C 0.1991(7) -0.0238(11) 0.2120(9)
H13 H 0.1480 0.0191 0.2397
H14 H 0.2042 0.0211 0.1509
C14A C 0.3346(12) -0.1389(12) 0.3147(13)
H11A H 0.3437 -0.1522 0.3881
H12A H 0.4023 -0.1532 0.3005
C15A C 0.3009(7) -0.0238(11) 0.2880(9)
H13A H 0.3520 0.0191 0.2603
H14A H 0.2958 0.0211 0.3491
B1 B 0.3122(9) 0.6143(10) 0.0192(8)
F1 F 0.3653(4) 0.5634(6) -0.0483(4)
F2 F 0.2403(6) 0.6970(6) -0.0368(5)
F3 F 0.3841(5) 0.6683(6) 0.1015(4)
F4 F 0.2599(4) 0.5210(5) 0.0543(4)
loop_
_geom_bond_atom_site_label_1
_geom_bond_atom_site_label_2
_geom_bond_site_symmetry_1
_geom_bond_site_symmetry_2
Ag1 O1 1_555 1_555
Ag2 O2 1_555 1_555
Br1 C2 1_555 1_555
O1 C5 1_555 1_555
O2 C12 1_555 1_555
O3 C12 1_555 1_555
O4 C14 1_555 1_555
N1 Ag1 1_555 1_555
N2 C3 1_555 1_555
N3 H1 1_555 1_555
C1 N1 1_555 1_555
H2 C1 1_555 1_555
C2 C1 1_555 1_555
C3 C2 1_555 1_555
H3 C3 1_555 1_555
C4 N1 1_555 1_555
C5 N3 1_555 1_555
C6 C5 1_555 1_555
C7 C6 1_555 1_555
H4 C7 1_555 1_555
C8 C7 1_555 1_555
H5 C8 1_555 1_555
C9 C8 1_555 1_555
C10 C9 1_555 1_555
H6 C10 1_555 1_555
C11 C6 1_555 1_555
H7 C11 1_555 1_555
C12 C9 1_555 1_555
C13 O3 1_555 1_555
H8 C13 1_555 1_555
H9 C13 1_555 1_555
H10 C13 1_555 1_555
C14 H11 1_555 1_555
H12 C14 1_555 1_555
C15 C14 1_555 1_555
H13 C15 1_555 1_555
H14 C15 1_555 1_555
B1 F1 1_555 1_555
F2 B1 1_555 1_555
F3 B1 1_555 1_555
F4 B1 1_555 1_555
Ag2B N2 1_555 1_555
Ag2_2 O2A 1_555 1_555
Ag2B_2 N2A 1_555 1_555
Br1A C2A 1_555 1_555
O1A Ag1 1_555 1_555
O2A C12A 1_555 1_555
O2A_2 Ag2 1_555 1_555
O3A C12A 1_555 1_555
N1A Ag1 1_555 1_555
N2A C3A 1_555 1_555
N2B Ag2 1_555 1_555
N2C Ag2 1_555 1_555
N3A H1A 1_555 1_555
C1A N1A 1_555 1_555
H2A C1A 1_555 1_555
C2A C1A 1_555 1_555
C3A C2A 1_555 1_555
H3A C3A 1_555 1_555
C4A N1A 1_555 1_555
C5A O1A 1_555 1_555
C6A C5A 1_555 1_555
C7A C6A 1_555 1_555
H4A C7A 1_555 1_555
C8A C7A 1_555 1_555
H5A C8A 1_555 1_555
C9A C8A 1_555 1_555
C10A C9A 1_555 1_555
H6A C10A 1_555 1_555
C11A C6A 1_555 1_555
H7A C11A 1_555 1_555
C12A C9A 1_555 1_555
C13A O3A 1_555 1_555
H8A C13A 1_555 1_555
H9A C13A 1_555 1_555
H10A C13A 1_555 1_555
C14A O4 1_555 1_555
H11A C14A 1_555 1_555
H12A C14A 1_555 1_555
C15A C15 1_555 1_555
H13A C15A 1_555 1_555
H14A C15A 1_555 1_555
N2 C4 1_555 1_555
N3 C4 1_555 1_555
C10 C11 1_555 1_555
N2A C4A 1_555 1_555
N3A C4A 1_555 1_555
N3A C5A 1_555 1_555
C10A C11A 1_555 1_555
C14A C15A 1_555 1_555

#END
