
#######################################################################
#
#                 Cambridge Crystallographic Data Centre
#                                CCDC 
#
#######################################################################
#
# If this CIF has been generated from an entry in the Cambridge 
# Structural Database, then it will include bibliographic, chemical, 
# crystal, experimental, refinement or atomic coordinate data resulting 
# from the CCDC's data processing and validation procedures.
#
#######################################################################

data_ISUCAA
_symmetry_cell_setting           orthorhombic
_symmetry_space_group_name_H-M   'P n a 21'
_symmetry_Int_Tables_number      33
_space_group_name_Hall           'P 2c -2n'
loop_
_symmetry_equiv_pos_site_id
_symmetry_equiv_pos_as_xyz
1 x,y,z
2 -x,-y,1/2+z
3 1/2+x,1/2-y,z
4 1/2-x,1/2+y,1/2+z
_cell_length_a                   8.604(2)
_cell_length_b                   27.271(6)
_cell_length_c                   5.9140(10)
_cell_angle_alpha                90
_cell_angle_beta                 90
_cell_angle_gamma                90
_cell_volume                     1387.66
loop_
_atom_site_label
_atom_site_type_symbol
_atom_site_fract_x
_atom_site_fract_y
_atom_site_fract_z
Zn1 Zn 0.33986(7) 0.595051(17) 0.21902(16)
O1 O 0.4292(5) 0.64105(13) 0.4354(7)
O2 O 0.5326(5) 0.57999(13) 0.6328(7)
O3 O 0.6805(5) 0.64030(13) 0.9048(8)
O4 O 1.0172(5) 0.64130(13) 1.5185(7)
O5 O 1.2569(5) 0.64131(13) 2.0007(7)
O6 O 1.1441(4) 0.58064(13) 1.8075(7)
O7 O 0.1770(5) 0.55237(14) 0.3504(8)
O8 O 0.4861(5) 0.54992(13) 0.0791(8)
C1 C 0.5126(6) 0.62376(19) 0.5932(9)
C2 C 0.5891(6) 0.66310(17) 0.7405(14)
H1 H 0.6531 0.6843 0.6475
H2 H 0.5098 0.6830 0.8124
C3 C 0.7584(6) 0.66886(19) 1.0566(10)
C4 C 0.7537(6) 0.71957(18) 1.0605(10)
H3 H 0.6936 0.7367 0.9563
C5 C 0.8400(6) 0.74457(15) 1.2225(18)
H4 H 0.8370 0.7787 1.2250
C6 C 0.9289(6) 0.72054(18) 1.3773(11)
H5 H 0.9856 0.7379 1.4847
C7 C 0.9331(6) 0.66971(19) 1.3717(10)
C8 C 0.8491(6) 0.64395(15) 1.2104(16)
H6 H 0.8540 0.6099 1.2061
C9 C 1.0997(6) 0.66450(17) 1.6983(13)
H7 H 1.0295 0.6846 1.7871
H8 H 1.1808 0.6854 1.6377
C10 C 1.1700(6) 0.62504(18) 1.8444(9)
O5_2 O 0.2569(5) 0.64131(13) 0.0007(7)
Zn1_2 Zn 1.33986(7) 0.595051(17) 2.21902(16)
O9 O 0.7430(6) 0.51800(14) 0.2754(9)
O10 O 0.1595(4) 0.45763(12) 0.2333(15)
loop_
_geom_bond_atom_site_label_1
_geom_bond_atom_site_label_2
_geom_bond_site_symmetry_1
_geom_bond_site_symmetry_2
Zn1 O1 1_555 1_555
O1 C1 1_555 1_555
O2 C1 1_555 1_555
O3 C2 1_555 1_555
O4 C7 1_555 1_555
O5 C10 1_555 1_555
O6 C10 1_555 1_555
O7 Zn1 1_555 1_555
O8 Zn1 1_555 1_555
C1 C2 1_555 1_555
C2 H1 1_555 1_555
H2 C2 1_555 1_555
C3 O3 1_555 1_555
C4 C3 1_555 1_555
H3 C4 1_555 1_555
C5 C4 1_555 1_555
H4 C5 1_555 1_555
C6 C5 1_555 1_555
H5 C6 1_555 1_555
C7 C6 1_555 1_555
C8 C3 1_555 1_555
H6 C8 1_555 1_555
C9 O4 1_555 1_555
H7 C9 1_555 1_555
H8 C9 1_555 1_555
C10 C9 1_555 1_555
O5_2 Zn1 1_555 1_555
Zn1_2 O5 1_555 1_555
C7 C8 1_555 1_555

#END
