
#######################################################################
#
#                 Cambridge Crystallographic Data Centre
#                                CCDC 
#
#######################################################################
#
# If this CIF has been generated from an entry in the Cambridge 
# Structural Database, then it will include bibliographic, chemical, 
# crystal, experimental, refinement or atomic coordinate data resulting 
# from the CCDC's data processing and validation procedures.
#
#######################################################################

data_ISUFIL01
_symmetry_cell_setting           monoclinic
_symmetry_space_group_name_H-M   'C 2/c'
_symmetry_Int_Tables_number      15
_space_group_name_Hall           '-C 2yn'
loop_
_symmetry_equiv_pos_site_id
_symmetry_equiv_pos_as_xyz
1 x,y,z
2 x,-y,1/2+z
3 1/2+x,1/2+y,z
4 1/2+x,1/2-y,1/2+z
5 -x,-y,-z
6 -x,y,1/2-z
7 1/2-x,1/2-y,-z
8 1/2-x,1/2+y,1/2-z
_cell_length_a                   15.8338(10)
_cell_length_b                   6.3209(4)
_cell_length_c                   15.5019(10)
_cell_angle_alpha                90
_cell_angle_beta                 93.7030(10)
_cell_angle_gamma                90
_cell_volume                     1548.25
loop_
_atom_site_label
_atom_site_type_symbol
_atom_site_fract_x
_atom_site_fract_y
_atom_site_fract_z
Mn1 Mn 0.0000 0.52556(5) 0.2500
S1 S 0.11880(3) 0.01135(7) 0.02967(3)
O1 O 0.05628(9) 0.5576(2) 0.11945(8)
O2 O 0.02907(8) 0.24140(19) 0.16365(8)
O3 O 0.0000 0.8724(3) 0.2500
N1 N 0.36661(9) 0.0188(2) 0.18962(10)
C1 C 0.05512(9) 0.3632(3) 0.10907(10)
C2 C 0.08552(10) 0.2788(3) 0.02602(10)
C3 C 0.33355(11) -0.1558(3) 0.15326(12)
C4 C 0.25750(11) -0.1612(3) 0.10760(11)
C5 C 0.21146(11) 0.0227(2) 0.09560(11)
C6 C 0.24359(10) 0.2023(3) 0.13540(12)
C7 C 0.32014(11) 0.1925(3) 0.18094(12)
H1 H 0.0109(19) 0.957(4) 0.2105(16)
H2 H 0.1270(9) 0.372(3) 0.0060(11)
H3 H 0.0391(10) 0.281(3) -0.0157(11)
H4 H 0.3666(11) -0.280(2) 0.1605(13)
H5 H 0.2386(13) -0.290(2) 0.0826(13)
H6 H 0.2171(12) 0.335(2) 0.1330(13)
H7 H 0.3432(13) 0.318(2) 0.2064(12)
H1E H -0.0109(19) 0.957(4) 0.2895(16)
S1E S -0.11880(3) 0.01135(7) 0.47033(3)
O1E O -0.05628(9) 0.5576(2) 0.38055(8)
O2E O -0.02907(8) 0.24140(19) 0.33635(8)
N1E N -0.36661(9) 0.0188(2) 0.31038(10)
C1E C -0.05512(9) 0.3632(3) 0.39093(10)
C2E C -0.08552(10) 0.2788(3) 0.47398(10)
C3E C -0.33355(11) -0.1558(3) 0.34674(12)
C4E C -0.25750(11) -0.1612(3) 0.39240(11)
C5E C -0.21146(11) 0.0227(2) 0.40440(11)
C6E C -0.24359(10) 0.2023(3) 0.36460(12)
C7E C -0.32014(11) 0.1925(3) 0.31906(12)
H2E H -0.1270(9) 0.372(3) 0.4940(11)
H3E H -0.0391(10) 0.281(3) 0.5157(11)
H4E H -0.3666(11) -0.280(2) 0.3395(13)
H5E H -0.2386(13) -0.290(2) 0.4174(13)
H6E H -0.2171(12) 0.335(2) 0.3670(13)
H7E H -0.3432(13) 0.318(2) 0.2936(12)
N1B N -0.13339(9) 0.5188(2) 0.18962(10)
N1G N 0.13339(9) 0.5188(2) 0.31038(10)
Mn1B Mn 0.5000 0.02556(5) 0.2500
Mn1B_2 Mn -0.5000 0.02556(5) 0.2500
loop_
_geom_bond_atom_site_label_1
_geom_bond_atom_site_label_2
_geom_bond_site_symmetry_1
_geom_bond_site_symmetry_2
Mn1 O1 1_555 1_555
S1 C2 1_555 1_555
O1 C1 1_555 1_555
O2 Mn1 1_555 1_555
O3 Mn1 1_555 1_555
N1 C3 1_555 1_555
C1 O2 1_555 1_555
C2 C1 1_555 1_555
C3 C4 1_555 1_555
C4 C5 1_555 1_555
C5 S1 1_555 1_555
C6 C5 1_555 1_555
C7 N1 1_555 1_555
H1 O3 1_555 1_555
H2 C2 1_555 1_555
H3 C2 1_555 1_555
H4 C3 1_555 1_555
H5 C4 1_555 1_555
H6 C6 1_555 1_555
H7 C7 1_555 1_555
H1E O3 1_555 1_555
S1E C2E 1_555 1_555
O1E Mn1 1_555 1_555
O2E Mn1 1_555 1_555
N1E C3E 1_555 1_555
C1E O1E 1_555 1_555
C2E C1E 1_555 1_555
C3E C4E 1_555 1_555
C4E C5E 1_555 1_555
C5E S1E 1_555 1_555
C6E C5E 1_555 1_555
C7E N1E 1_555 1_555
H2E C2E 1_555 1_555
H3E C2E 1_555 1_555
H4E C3E 1_555 1_555
H5E C4E 1_555 1_555
H6E C6E 1_555 1_555
H7E C7E 1_555 1_555
N1B Mn1 1_555 1_555
N1G Mn1 1_555 1_555
Mn1B N1 1_555 1_555
Mn1B_2 N1E 1_555 1_555
C6 C7 1_555 1_555
O2E C1E 1_555 1_555
C6E C7E 1_555 1_555

#END
