
#######################################################################
#
#                 Cambridge Crystallographic Data Centre
#                                CCDC 
#
#######################################################################
#
# If this CIF has been generated from an entry in the Cambridge 
# Structural Database, then it will include bibliographic, chemical, 
# crystal, experimental, refinement or atomic coordinate data resulting 
# from the CCDC's data processing and validation procedures.
#
#######################################################################

data_ISUHAF
_symmetry_cell_setting           orthorhombic
_symmetry_space_group_name_H-M   'P 21 21 21'
_symmetry_Int_Tables_number      19
_space_group_name_Hall           'P 2ac 2ab'
loop_
_symmetry_equiv_pos_site_id
_symmetry_equiv_pos_as_xyz
1 x,y,z
2 1/2-x,-y,1/2+z
3 1/2+x,1/2-y,-z
4 -x,1/2+y,1/2-z
_cell_length_a                   6.4920(10)
_cell_length_b                   9.857(2)
_cell_length_c                   28.154(6)
_cell_angle_alpha                90
_cell_angle_beta                 90
_cell_angle_gamma                90
_cell_volume                     1801.62
loop_
_atom_site_label
_atom_site_type_symbol
_atom_site_fract_x
_atom_site_fract_y
_atom_site_fract_z
Sn1 Sn 0.42149(2) 0.321170(15) 0.769873(5)
O1 O 0.3375(3) 0.18160(18) 0.82535(6)
O2 O 0.4675(3) 0.00183(18) 0.78748(6)
O3 O 0.4216(3) 0.1307(2) 0.95182(7)
O4 O -0.1017(3) 0.0149(2) 0.85278(8)
N1 N 0.1931(3) 0.0408(2) 0.89766(6)
C1 C 0.2645(5) 0.4790(3) 0.80569(10)
H1 H 0.3531 0.5159 0.8308
H2 H 0.1378 0.4432 0.8198
H3 H 0.2300 0.5511 0.7831
C2 C 0.7420(4) 0.3028(3) 0.78196(10)
H4 H 0.7962 0.2265 0.7635
H5 H 0.7671 0.2868 0.8158
H6 H 0.8112 0.3866 0.7722
C3 C 0.2573(4) 0.2265(3) 0.71381(9)
H7 H 0.3428 0.1552 0.6997
H8 H 0.2230 0.2941 0.6896
H9 H 0.1302 0.1864 0.7263
C4 C 0.3855(3) 0.0561(2) 0.82228(7)
C5 C 0.3424(4) -0.0278(2) 0.86735(7)
H10 H 0.4744 -0.0310 0.8856
C6 C 0.2830(4) -0.1753(3) 0.85694(8)
H11 H 0.1512 -0.1763 0.8393
H12 H 0.3896 -0.2162 0.8363
C7 C 0.2603(5) -0.2613(2) 0.90111(8)
C8 C 0.0749(5) -0.3209(3) 0.91215(11)
H13 H -0.0412 -0.3056 0.8923
C9 C 0.0550(7) -0.4036(4) 0.95202(14)
H14 H -0.0742 -0.4438 0.9592
C10 C 0.2210(7) -0.4272(4) 0.98079(12)
H15 H 0.2076 -0.4841 1.0078
C11 C 0.4042(7) -0.3690(4) 0.97054(14)
H16 H 0.5193 -0.3850 0.9906
C12 C 0.4259(5) -0.2860(4) 0.93100(12)
H17 H 0.5557 -0.2457 0.9243
C13 C 0.2491(4) 0.1227(3) 0.93545(8)
C14 C 0.0600(5) 0.1966(3) 0.95058(10)
H18 H 0.0499 0.2572 0.9767
C15 C -0.0895(4) 0.1638(3) 0.92174(10)
H19 H -0.2264 0.1975 0.9234
C16 C -0.0118(4) 0.0652(3) 0.88583(10)
O2C O 0.5325(3) 0.50183(18) 0.71252(6)
Sn1C Sn 0.57851(2) -0.178830(15) 0.730127(5)
loop_
_geom_bond_atom_site_label_1
_geom_bond_atom_site_label_2
_geom_bond_site_symmetry_1
_geom_bond_site_symmetry_2
Sn1 O1 1_555 1_555
O1 C4 1_555 1_555
O2 C4 1_555 1_555
O3 C13 1_555 1_555
O4 C16 1_555 1_555
N1 C5 1_555 1_555
C1 Sn1 1_555 1_555
H1 C1 1_555 1_555
H2 C1 1_555 1_555
H3 C1 1_555 1_555
C2 Sn1 1_555 1_555
H4 C2 1_555 1_555
H5 C2 1_555 1_555
H6 C2 1_555 1_555
C3 Sn1 1_555 1_555
H7 C3 1_555 1_555
H8 C3 1_555 1_555
H9 C3 1_555 1_555
C4 C5 1_555 1_555
C5 H10 1_555 1_555
C6 C5 1_555 1_555
H11 C6 1_555 1_555
H12 C6 1_555 1_555
C7 C6 1_555 1_555
C8 C7 1_555 1_555
H13 C8 1_555 1_555
C9 C8 1_555 1_555
H14 C9 1_555 1_555
C10 C9 1_555 1_555
H15 C10 1_555 1_555
C11 C10 1_555 1_555
H16 C11 1_555 1_555
C12 C7 1_555 1_555
H17 C12 1_555 1_555
C13 N1 1_555 1_555
C14 C13 1_555 1_555
H18 C14 1_555 1_555
C15 C14 1_555 1_555
H19 C15 1_555 1_555
C16 N1 1_555 1_555
O2C Sn1 1_555 1_555
Sn1C O2 1_555 1_555
C11 C12 1_555 1_555
C15 C16 1_555 1_555

#END
