
#######################################################################
#
#                 Cambridge Crystallographic Data Centre
#                                CCDC 
#
#######################################################################
#
# If this CIF has been generated from an entry in the Cambridge 
# Structural Database, then it will include bibliographic, chemical, 
# crystal, experimental, refinement or atomic coordinate data resulting 
# from the CCDC's data processing and validation procedures.
#
#######################################################################

data_ISUJOV
_symmetry_cell_setting           triclinic
_symmetry_space_group_name_H-M   'P -1'
_symmetry_Int_Tables_number      2
_space_group_name_Hall           '-P 1'
loop_
_symmetry_equiv_pos_site_id
_symmetry_equiv_pos_as_xyz
1 x,y,z
2 -x,-y,-z
_cell_length_a                   8.4365(5)
_cell_length_b                   9.0109(7)
_cell_length_c                   15.4080(13)
_cell_angle_alpha                97.991(2)
_cell_angle_beta                 100.883(2)
_cell_angle_gamma                97.866(2)
_cell_volume                     1122.95
loop_
_atom_site_label
_atom_site_type_symbol
_atom_site_fract_x
_atom_site_fract_y
_atom_site_fract_z
Nd1 Nd 0.75067(4) 0.52135(4) 0.49793(2)
O1 O 0.6374(5) 0.6903(5) 0.4025(3)
O2 O 0.6247(6) 0.9290(6) 0.4577(3)
O3 O 0.0268(4) 0.4484(5) -0.4203(3)
O4 O -0.1578(5) 0.4908(6) -0.3418(3)
O5 O 0.4550(5) 0.3875(5) 0.4245(3)
O6 O 0.6403(5) 0.3627(5) 0.3429(3)
O7 O -0.0773(5) -0.2391(6) -0.4279(3)
O8 O -0.1466(8) -0.0130(6) -0.4114(4)
H1 H -0.1988 -0.0394 -0.4632
O9 O 0.7299(6) 0.2407(5) 0.5067(4)
C1 C 0.5847(7) 0.8108(8) 0.3968(4)
C2 C 0.4666(8) 0.8302(8) 0.3133(4)
H2 H 0.3636 0.8458 0.3294
H3 H 0.5104 0.9213 0.2930
C3 C 0.4330(8) 0.6989(8) 0.2367(4)
H4 H 0.3770 0.6102 0.2542
H5 H 0.5365 0.6755 0.2246
C4 C 0.3304(8) 0.7301(9) 0.1515(5)
H6 H 0.2244 0.7465 0.1629
H7 H 0.3827 0.8235 0.1370
C5 C 0.3041(8) 0.6069(8) 0.0716(5)
H8 H 0.2439 0.5157 0.0844
H9 H 0.4101 0.5846 0.0634
C6 C 0.2135(9) 0.6417(9) -0.0153(4)
H10 H 0.1054 0.6594 -0.0083
H11 H 0.2710 0.7350 -0.0273
C7 C 0.1953(8) 0.5187(8) -0.0948(4)
H12 H 0.1401 0.4250 -0.0822
H13 H 0.3035 0.5027 -0.1026
C8 C 0.1011(8) 0.5517(8) -0.1820(5)
H14 H -0.0089 0.5627 -0.1752
H15 H 0.1532 0.6480 -0.1931
C9 C 0.0897(8) 0.4331(8) -0.2619(4)
H16 H 0.0475 0.3349 -0.2488
H17 H 0.1988 0.4292 -0.2727
C10 C -0.0181(7) 0.4602(7) -0.3460(4)
C11 C 0.4945(7) 0.3421(7) 0.3505(4)
C12 C 0.3637(7) 0.2572(8) 0.2728(4)
H18 H 0.2709 0.3106 0.2676
H19 H 0.3274 0.1575 0.2860
C13 C 0.4144(8) 0.2366(8) 0.1823(4)
H20 H 0.4596 0.3350 0.1707
H21 H 0.4994 0.1739 0.1848
C14 C 0.2719(7) 0.1633(8) 0.1064(4)
H22 H 0.1860 0.2247 0.1057
H23 H 0.2288 0.0642 0.1179
C15 C 0.3144(7) 0.1436(8) 0.0140(4)
H24 H 0.3605 0.2420 0.0030
H25 H 0.3976 0.0792 0.0138
C16 C 0.1691(7) 0.0745(8) -0.0614(4)
H26 H 0.0865 0.1396 -0.0614
H27 H 0.1222 -0.0233 -0.0498
C17 C 0.2094(8) 0.0523(9) -0.1543(4)
H28 H 0.2567 0.1497 -0.1662
H29 H 0.2908 -0.0140 -0.1550
C18 C 0.0616(8) -0.0152(8) -0.2277(4)
H30 H -0.0191 0.0518 -0.2273
H31 H 0.0135 -0.1119 -0.2152
C19 C 0.1005(7) -0.0399(8) -0.3206(4)
H32 H 0.1495 0.0564 -0.3333
H33 H 0.1798 -0.1083 -0.3217
C20 C -0.0513(8) -0.1060(8) -0.3929(5)
O3_2 O 1.0268(4) 0.4484(5) 0.5797(3)
O3A O 0.9732(4) 0.5516(5) 0.4203(3)
O4_2 O 0.8422(5) 0.4908(6) 0.6582(3)
O5A O 0.5450(5) 0.6125(5) 0.5755(3)
O7_2 O 0.9227(5) 0.7609(6) 0.5721(3)
Nd1_2 Nd -0.24933(4) 0.52135(4) -0.50207(2)
Nd1A Nd 0.24933(4) 0.47865(4) -0.49793(2)
Nd1A_2 Nd 0.24933(4) 0.47865(4) 0.50207(2)
Nd1_3 Nd -0.24933(4) -0.47865(4) -0.50207(2)
loop_
_geom_bond_atom_site_label_1
_geom_bond_atom_site_label_2
_geom_bond_site_symmetry_1
_geom_bond_site_symmetry_2
Nd1 O1 1_555 1_555
O1 C1 1_555 1_555
O2 C1 1_555 1_555
O3 C10 1_555 1_555
O4 C10 1_555 1_555
O5 Nd1 1_555 1_555
O6 Nd1 1_555 1_555
O7 C20 1_555 1_555
O8 H1 1_555 1_555
O9 Nd1 1_555 1_555
C1 C2 1_555 1_555
C2 H2 1_555 1_555
H3 C2 1_555 1_555
C3 C2 1_555 1_555
H4 C3 1_555 1_555
H5 C3 1_555 1_555
C4 C3 1_555 1_555
H6 C4 1_555 1_555
H7 C4 1_555 1_555
C5 C4 1_555 1_555
H8 C5 1_555 1_555
H9 C5 1_555 1_555
C6 C5 1_555 1_555
H10 C6 1_555 1_555
H11 C6 1_555 1_555
C7 C6 1_555 1_555
H12 C7 1_555 1_555
H13 C7 1_555 1_555
C8 C7 1_555 1_555
H14 C8 1_555 1_555
H15 C8 1_555 1_555
C9 C8 1_555 1_555
H16 C9 1_555 1_555
H17 C9 1_555 1_555
C10 C9 1_555 1_555
C11 O5 1_555 1_555
C12 C11 1_555 1_555
H18 C12 1_555 1_555
H19 C12 1_555 1_555
C13 C12 1_555 1_555
H20 C13 1_555 1_555
H21 C13 1_555 1_555
C14 C13 1_555 1_555
H22 C14 1_555 1_555
H23 C14 1_555 1_555
C15 C14 1_555 1_555
H24 C15 1_555 1_555
H25 C15 1_555 1_555
C16 C15 1_555 1_555
H26 C16 1_555 1_555
H27 C16 1_555 1_555
C17 C16 1_555 1_555
H28 C17 1_555 1_555
H29 C17 1_555 1_555
C18 C17 1_555 1_555
H30 C18 1_555 1_555
H31 C18 1_555 1_555
C19 C18 1_555 1_555
H32 C19 1_555 1_555
H33 C19 1_555 1_555
C20 O8 1_555 1_555
O3_2 Nd1 1_555 1_555
O3A Nd1 1_555 1_555
O4_2 Nd1 1_555 1_555
O5A Nd1 1_555 1_555
O7_2 Nd1 1_555 1_555
Nd1_2 O3 1_555 1_555
Nd1A O3 1_555 1_555
Nd1A_2 O5 1_555 1_555
Nd1_3 O7 1_555 1_555
O4 Nd1_2 1_555 1_555
O6 C11 1_555 1_555
C19 C20 1_555 1_555
O5A Nd1A_2 1_555 1_555

#END
