
#######################################################################
#
#                 Cambridge Crystallographic Data Centre
#                                CCDC 
#
#######################################################################
#
# If this CIF has been generated from an entry in the Cambridge 
# Structural Database, then it will include bibliographic, chemical, 
# crystal, experimental, refinement or atomic coordinate data resulting 
# from the CCDC's data processing and validation procedures.
#
#######################################################################

data_ISUKEM01
_symmetry_cell_setting           monoclinic
_symmetry_space_group_name_H-M   'P 21/m'
_symmetry_Int_Tables_number      11
_space_group_name_Hall           '-P 2yb'
loop_
_symmetry_equiv_pos_site_id
_symmetry_equiv_pos_as_xyz
1 x,y,z
2 -x,1/2+y,-z
3 -x,-y,-z
4 x,1/2-y,z
_cell_length_a                   5.2255(4)
_cell_length_b                   12.9296(10)
_cell_length_c                   10.5169(8)
_cell_angle_alpha                90
_cell_angle_beta                 94.1890(10)
_cell_angle_gamma                90
_cell_volume                     708.662
loop_
_atom_site_label
_atom_site_type_symbol
_atom_site_fract_x
_atom_site_fract_y
_atom_site_fract_z
Zn1 Zn 0.45878(5) 0.7500 0.72080(2)
Cl1 Cl 0.74975(12) 0.7500 0.88829(6)
Cl2 Cl 0.54593(13) 0.7500 0.51604(6)
N1 N 0.2456(2) 0.61884(9) 0.74106(12)
C1 C 0.0529(3) 0.59356(13) 0.65596(16)
H1 H 0.0223 0.6353 0.5844
C2 C -0.1027(4) 0.50861(13) 0.66925(17)
H2 H -0.2373 0.4950 0.6088
C3 C -0.0570(3) 0.44345(11) 0.77365(16)
C4 C 0.1441(4) 0.46999(13) 0.86084(16)
H3 H 0.1819 0.4287 0.9322
C5 C 0.2879(3) 0.55692(12) 0.84244(16)
H4 H 0.4203 0.5735 0.9030
C6 C -0.2125(3) 0.34768(12) 0.79196(17)
H5 H -0.3679 0.3502 0.7356
H6 H -0.2621 0.3454 0.8790
C7 C -0.0625(4) 0.2500 0.7644(2)
H7 H 0.0986 0.2500 0.8164
H8 H -0.0235 0.2500 0.6756
Zn1_2 Zn 0.45878(5) -0.2500 0.72080(2)
N1C N 0.2456(2) -0.11884(9) 0.74106(12)
N1C_2 N 0.2456(2) 0.88116(9) 0.74106(12)
C1C C 0.0529(3) -0.09356(13) 0.65596(16)
H1C H 0.0223 -0.1353 0.5844
C2C C -0.1027(4) -0.00861(13) 0.66925(17)
H2C H -0.2373 0.0050 0.6088
C3C C -0.0570(3) 0.05655(11) 0.77365(16)
C4C C 0.1441(4) 0.03001(13) 0.86084(16)
H3C H 0.1819 0.0713 0.9322
C5C C 0.2879(3) -0.05692(12) 0.84244(16)
H4C H 0.4203 -0.0735 0.9030
C6C C -0.2125(3) 0.15232(12) 0.79196(17)
H5C H -0.3679 0.1498 0.7356
H6C H -0.2621 0.1546 0.8790
loop_
_geom_bond_atom_site_label_1
_geom_bond_atom_site_label_2
_geom_bond_site_symmetry_1
_geom_bond_site_symmetry_2
Zn1 Cl1 1_555 1_555
Cl2 Zn1 1_555 1_555
N1 Zn1 1_555 1_555
C1 N1 1_555 1_555
H1 C1 1_555 1_555
C2 C1 1_555 1_555
H2 C2 1_555 1_555
C3 C2 1_555 1_555
C4 C3 1_555 1_555
H3 C4 1_555 1_555
C5 N1 1_555 1_555
H4 C5 1_555 1_555
C6 C3 1_555 1_555
H5 C6 1_555 1_555
H6 C6 1_555 1_555
C7 C6 1_555 1_555
H7 C7 1_555 1_555
H8 C7 1_555 1_555
Zn1_2 N1C 1_555 1_555
N1C C1C 1_555 1_555
N1C_2 Zn1 1_555 1_555
C1C H1C 1_555 1_555
C2C C1C 1_555 1_555
H2C C2C 1_555 1_555
C3C C2C 1_555 1_555
C4C C3C 1_555 1_555
H3C C4C 1_555 1_555
C5C N1C 1_555 1_555
H4C C5C 1_555 1_555
C6C C7 1_555 1_555
H5C C6C 1_555 1_555
H6C C6C 1_555 1_555
C4 C5 1_555 1_555
C3C C6C 1_555 1_555
C4C C5C 1_555 1_555

#END
