
#######################################################################
#
#                 Cambridge Crystallographic Data Centre
#                                CCDC 
#
#######################################################################
#
# If this CIF has been generated from an entry in the Cambridge 
# Structural Database, then it will include bibliographic, chemical, 
# crystal, experimental, refinement or atomic coordinate data resulting 
# from the CCDC's data processing and validation procedures.
#
#######################################################################

data_ISULOX
_symmetry_cell_setting           monoclinic
_symmetry_space_group_name_H-M   'P 21/c'
_symmetry_Int_Tables_number      14
_space_group_name_Hall           '-P 2ybc'
loop_
_symmetry_equiv_pos_site_id
_symmetry_equiv_pos_as_xyz
1 x,y,z
2 x,1/2-y,1/2+z
3 -x,-y,-z
4 -x,1/2+y,1/2-z
_cell_length_a                   12.3427(3)
_cell_length_b                   10.4806(3)
_cell_length_c                   15.7966(4)
_cell_angle_alpha                90
_cell_angle_beta                 101.9470(10)
_cell_angle_gamma                90
_cell_volume                     1999.17
loop_
_atom_site_label
_atom_site_type_symbol
_atom_site_fract_x
_atom_site_fract_y
_atom_site_fract_z
Eu1 Eu -0.332950(18) -0.077620(19) 0.133360(13)
O1 O -0.3344(3) -0.2790(3) 0.1956(2)
O2 O -0.3613(3) -0.4166(3) 0.2976(2)
O3 O -0.5649(3) -0.3816(3) 0.3781(2)
O4 O -0.4223(3) -0.3828(4) 0.4898(2)
O5 O -0.1439(3) -0.0801(3) 0.2304(2)
O6 O -0.2253(3) 0.1025(3) 0.2223(2)
O7 O -0.0608(3) 0.0810(3) 0.3027(3)
O8 O -0.5350(3) -0.1294(4) 0.1255(3)
H1 H -0.5409 -0.2068 0.1569
H2 H -0.5694 -0.0609 0.1508
N1 N -0.2267(3) 0.0478(4) 0.0357(3)
N2 N -0.2022(3) -0.2092(4) 0.0604(2)
N3 N -0.3751(3) -0.0815(3) 0.2877(2)
N4 N -0.4614(4) -0.1093(4) 0.4354(3)
N5 N -0.1406(4) 0.0354(4) 0.2530(3)
C1 C -0.2336(5) 0.1738(5) 0.0249(4)
H7 H -0.2680 0.2207 0.0618
C2 C -0.1928(5) 0.2393(5) -0.0378(4)
H8 H -0.2003 0.3275 -0.0430
C3 C -0.1416(5) 0.1725(7) -0.0916(4)
H9 H -0.1139 0.2151 -0.1343
C4 C -0.1301(4) 0.0398(6) -0.0837(4)
C5 C -0.0782(5) -0.0364(7) -0.1388(4)
H10 H -0.0495 0.0025 -0.1822
C6 C -0.0704(5) -0.1625(7) -0.1288(4)
H11 H -0.0379 -0.2100 -0.1666
C7 C -0.1107(4) -0.2271(6) -0.0613(3)
C8 C -0.0976(5) -0.3576(6) -0.0461(4)
H12 H -0.0632 -0.4080 -0.0812
C9 C -0.1355(5) -0.4100(5) 0.0206(5)
H13 H -0.1274 -0.4970 0.0315
C10 C -0.1864(5) -0.3336(5) 0.0725(4)
H14 H -0.2109 -0.3718 0.1183
C11 C -0.1738(4) -0.0184(5) -0.0177(3)
C12 C -0.1621(4) -0.1540(5) -0.0057(3)
C13 C -0.3602(4) -0.3080(4) 0.2672(3)
C14 C -0.3928(4) -0.1974(4) 0.3169(3)
C15 C -0.4399(4) -0.2107(4) 0.3902(3)
C16 C -0.4402(5) 0.0046(5) 0.4060(3)
H15 H -0.4534 0.0768 0.4365
C17 C -0.3992(4) 0.0195(5) 0.3320(3)
H16 H -0.3882 0.1012 0.3124
C18 C -0.4771(4) -0.3369(4) 0.4212(3)
Eu1C Eu -0.667050(18) -0.577620(19) 0.366640(13)
Eu1A Eu -0.332950(18) -0.422380(19) 0.633360(13)
O3C O -0.4351(3) 0.1184(3) 0.1219(2)
O4A O -0.4223(3) -0.1172(4) -0.0102(2)
O9 O -0.6496(9) -0.3388(9) 0.7435(6)
H4 H -0.6168 -0.2700 0.7661
O10 O -0.7358(10) -0.3970(9) 0.8223(6)
H6 H -0.7493 -0.4758 0.8065
H3? H -0.6796 -0.3642 0.7933
H5? H -0.6796 -0.3642 0.7933
loop_
_geom_bond_atom_site_label_1
_geom_bond_atom_site_label_2
_geom_bond_site_symmetry_1
_geom_bond_site_symmetry_2
Eu1 O1 1_555 1_555
O1 C13 1_555 1_555
O2 C13 1_555 1_555
O3 C18 1_555 1_555
O4 C18 1_555 1_555
O5 Eu1 1_555 1_555
O6 Eu1 1_555 1_555
O7 N5 1_555 1_555
O8 Eu1 1_555 1_555
H1 O8 1_555 1_555
H2 O8 1_555 1_555
O9 H4 1_555 1_555
O10 H6 1_555 1_555
N1 Eu1 1_555 1_555
N2 Eu1 1_555 1_555
N3 Eu1 1_555 1_555
N4 C15 1_555 1_555
N5 O5 1_555 1_555
C1 N1 1_555 1_555
H7 C1 1_555 1_555
C2 C1 1_555 1_555
H8 C2 1_555 1_555
C3 C2 1_555 1_555
H9 C3 1_555 1_555
C4 C3 1_555 1_555
C5 C4 1_555 1_555
H10 C5 1_555 1_555
C6 C5 1_555 1_555
H11 C6 1_555 1_555
C7 C6 1_555 1_555
C8 C7 1_555 1_555
H12 C8 1_555 1_555
C9 C8 1_555 1_555
H13 C9 1_555 1_555
C10 N2 1_555 1_555
H14 C10 1_555 1_555
C11 N1 1_555 1_555
C12 N2 1_555 1_555
C13 C14 1_555 1_555
C14 N3 1_555 1_555
C15 C14 1_555 1_555
C16 N4 1_555 1_555
H15 C16 1_555 1_555
C17 N3 1_555 1_555
H16 C17 1_555 1_555
C18 C15 1_555 1_555
Eu1C O3 1_555 1_555
Eu1A O4 1_555 1_555
O3C Eu1 1_555 1_555
O4A Eu1 1_555 1_555
O6 N5 1_555 1_555
C4 C11 1_555 1_555
C7 C12 1_555 1_555
C9 C10 1_555 1_555
C11 C12 1_555 1_555
C16 C17 1_555 1_555

#END
