
#######################################################################
#
#                 Cambridge Crystallographic Data Centre
#                                CCDC 
#
#######################################################################
#
# If this CIF has been generated from an entry in the Cambridge 
# Structural Database, then it will include bibliographic, chemical, 
# crystal, experimental, refinement or atomic coordinate data resulting 
# from the CCDC's data processing and validation procedures.
#
#######################################################################

data_ITEBIT
_symmetry_cell_setting           orthorhombic
_symmetry_space_group_name_H-M   'P b c n'
_symmetry_Int_Tables_number      60
_space_group_name_Hall           '-P 2n 2ab'
loop_
_symmetry_equiv_pos_site_id
_symmetry_equiv_pos_as_xyz
1 x,y,z
2 1/2-x,1/2-y,1/2+z
3 -x,y,1/2-z
4 1/2+x,1/2-y,-z
5 -x,-y,-z
6 1/2+x,1/2+y,1/2-z
7 x,-y,1/2+z
8 1/2-x,1/2+y,z
_cell_length_a                   11.8023(17)
_cell_length_b                   16.000(2)
_cell_length_c                   22.979(3)
_cell_angle_alpha                90
_cell_angle_beta                 90
_cell_angle_gamma                90
_cell_volume                     4339.28
loop_
_atom_site_label
_atom_site_type_symbol
_atom_site_fract_x
_atom_site_fract_y
_atom_site_fract_z
Mn1 Mn 0.48845(6) 0.22399(5) 0.47789(4)
N1 N 0.3120(4) 0.1731(3) 0.4686(2)
N2 N 0.2327(4) 0.1952(3) 0.4952(2)
N3 N 0.1574(4) 0.2157(3) 0.5234(2)
N4 N 0.4357(4) 0.3156(3) 0.5337(2)
N5 N 0.4612(4) 0.2917(3) 0.4051(2)
O1 O 0.5196(3) 0.1545(2) 0.54222(16)
O2 O 0.5412(3) 0.1340(2) 0.43151(16)
C1 C 0.5498(4) 0.1748(3) 0.5959(2)
C2 C 0.6016(5) 0.1140(3) 0.6308(3)
C3 C 0.6339(5) 0.1328(4) 0.6870(3)
H1 H 0.6687 0.0924 0.7099
C4 C 0.6144(6) 0.2125(4) 0.7094(3)
H2 H 0.6370 0.2251 0.7472
C5 C 0.5624(6) 0.2726(4) 0.6763(3)
H3 H 0.5493 0.3254 0.6917
C6 C 0.5291(5) 0.2546(3) 0.6195(3)
C7 C 0.4656(5) 0.3171(3) 0.5879(3)
H4 H 0.4436 0.3639 0.6091
C8 C 0.3614(5) 0.3841(3) 0.5140(3)
H5 H 0.3612 0.4280 0.5431
H6 H 0.2846 0.3632 0.5103
C9 C 0.3983(5) 0.4204(4) 0.4565(3)
H7 H 0.4782 0.4343 0.4586
H8 H 0.3568 0.4718 0.4496
C10 C 0.3791(5) 0.3615(4) 0.4058(3)
H9 H 0.3029 0.3390 0.4081
H10 H 0.3854 0.3926 0.3697
C11 C 0.5129(5) 0.2767(3) 0.3567(2)
H11 H 0.5007 0.3146 0.3267
C12 C 0.5870(4) 0.2079(3) 0.3442(2)
C13 C 0.6451(5) 0.2074(4) 0.2907(3)
H12 H 0.6403 0.2534 0.2661
C14 C 0.7085(6) 0.1398(4) 0.2748(3)
H13 H 0.7476 0.1405 0.2396
C15 C 0.7150(5) 0.0697(4) 0.3107(3)
H14 H 0.7576 0.0236 0.2993
C16 C 0.6585(4) 0.0690(3) 0.3627(2)
C17 C 0.5942(4) 0.1384(3) 0.3816(2)
O3 O 0.6195(3) 0.0380(2) 0.60452(16)
C18 C 0.6622(5) -0.0279(4) 0.6410(3)
H15 H 0.7367 -0.0136 0.6544
H16 H 0.6656 -0.0789 0.6191
H17 H 0.6127 -0.0352 0.6737
O4 O 0.6588(3) 0.0024(2) 0.40112(16)
C19 C 0.7115(5) -0.0730(3) 0.3810(3)
H18 H 0.6802 -0.0883 0.3439
H19 H 0.6981 -0.1170 0.4085
H20 H 0.7916 -0.0641 0.3770
K1 K 0.5000 0.0000 0.5000
Mn1D Mn 0.51155(6) -0.22399(5) 0.52211(4)
Mn1C Mn -0.01155(6) 0.27601(5) 0.52211(4)
Mn1C_2 Mn 0.98845(6) 0.27601(5) 0.52211(4)
N1C N 0.8120(4) 0.3269(3) 0.5314(2)
N1D N 0.6880(4) -0.1731(3) 0.5314(2)
N2C N 0.7327(4) 0.3048(3) 0.5048(2)
N3C N 0.6574(4) 0.2843(3) 0.4766(2)
N3G N 0.3426(4) -0.2843(3) 0.5234(2)
N4D N 0.5643(4) -0.3156(3) 0.4663(2)
N5D N 0.5388(4) -0.2917(3) 0.5949(2)
O1D O 0.4804(3) -0.1545(2) 0.45778(16)
O2D O 0.4588(3) -0.1340(2) 0.56849(16)
C1D C 0.4502(4) -0.1748(3) 0.4041(2)
C2D C 0.3984(5) -0.1140(3) 0.3692(3)
C3D C 0.3661(5) -0.1328(4) 0.3130(3)
H1D H 0.3313 -0.0924 0.2901
C4D C 0.3856(6) -0.2125(4) 0.2906(3)
H2D H 0.3630 -0.2251 0.2528
C5D C 0.4376(6) -0.2726(4) 0.3237(3)
H3D H 0.4507 -0.3254 0.3083
C6D C 0.4709(5) -0.2546(3) 0.3805(3)
C7D C 0.5344(5) -0.3171(3) 0.4121(3)
H4D H 0.5564 -0.3639 0.3909
C8D C 0.6386(5) -0.3841(3) 0.4860(3)
H5D H 0.6388 -0.4280 0.4569
H6D H 0.7154 -0.3632 0.4897
C9D C 0.6017(5) -0.4204(4) 0.5435(3)
H7D H 0.5218 -0.4343 0.5414
H8D H 0.6432 -0.4718 0.5504
C10D C 0.6209(5) -0.3615(4) 0.5942(3)
H9D H 0.6971 -0.3390 0.5919
H10D H 0.6146 -0.3926 0.6303
C11D C 0.4871(5) -0.2767(3) 0.6433(2)
H11D H 0.4993 -0.3146 0.6733
C12D C 0.4130(4) -0.2079(3) 0.6558(2)
C13D C 0.3549(5) -0.2074(4) 0.7093(3)
H12D H 0.3597 -0.2534 0.7339
C14D C 0.2915(6) -0.1398(4) 0.7252(3)
H13D H 0.2524 -0.1405 0.7604
C15D C 0.2850(5) -0.0697(4) 0.6893(3)
H14D H 0.2424 -0.0236 0.7007
C16D C 0.3415(4) -0.0690(3) 0.6373(2)
C17D C 0.4058(4) -0.1384(3) 0.6184(2)
O3D O 0.3805(3) -0.0380(2) 0.39548(16)
C18D C 0.3378(5) 0.0279(4) 0.3590(3)
H15D H 0.2633 0.0136 0.3456
H16D H 0.3344 0.0789 0.3809
H17D H 0.3873 0.0352 0.3263
O4D O 0.3412(3) -0.0024(2) 0.59888(16)
C19D C 0.2885(5) 0.0730(3) 0.6190(3)
H18D H 0.3198 0.0883 0.6561
H19D H 0.3019 0.1170 0.5915
H20D H 0.2084 0.0641 0.6230
Cl1 Cl 0.5000 0.52752(12) 0.7500
O5 O 0.5990(3) 0.5793(2) 0.75092(18)
O6 O 0.4972(5) 0.4781(4) 0.8013(4)
O5B O 0.4010(3) 0.5793(2) 0.74908(18)
O6B O 0.5028(5) 0.4781(4) 0.6987(4)
loop_
_geom_bond_atom_site_label_1
_geom_bond_atom_site_label_2
_geom_bond_site_symmetry_1
_geom_bond_site_symmetry_2
Mn1 N1 1_555 1_555
N1 N2 1_555 1_555
N2 N3 1_555 1_555
N3 Mn1C 1_555 1_555
N4 Mn1 1_555 1_555
N5 Mn1 1_555 1_555
O1 Mn1 1_555 1_555
O2 Mn1 1_555 1_555
C1 O1 1_555 1_555
C2 C1 1_555 1_555
C3 C2 1_555 1_555
H1 C3 1_555 1_555
C4 C3 1_555 1_555
H2 C4 1_555 1_555
C5 C4 1_555 1_555
H3 C5 1_555 1_555
C6 C1 1_555 1_555
C7 N4 1_555 1_555
H4 C7 1_555 1_555
C8 N4 1_555 1_555
H5 C8 1_555 1_555
H6 C8 1_555 1_555
C9 C8 1_555 1_555
H7 C9 1_555 1_555
H8 C9 1_555 1_555
C10 N5 1_555 1_555
H9 C10 1_555 1_555
H10 C10 1_555 1_555
C11 N5 1_555 1_555
H11 C11 1_555 1_555
C12 C11 1_555 1_555
C13 C12 1_555 1_555
H12 C13 1_555 1_555
C14 C13 1_555 1_555
H13 C14 1_555 1_555
C15 C14 1_555 1_555
H14 C15 1_555 1_555
C16 C15 1_555 1_555
C17 O2 1_555 1_555
O3 C2 1_555 1_555
C18 O3 1_555 1_555
H15 C18 1_555 1_555
H16 C18 1_555 1_555
H17 C18 1_555 1_555
O4 C16 1_555 1_555
C19 O4 1_555 1_555
H18 C19 1_555 1_555
H19 C19 1_555 1_555
H20 C19 1_555 1_555
K1 O1 1_555 1_555
Cl1 O5 1_555 1_555
O6 Cl1 1_555 1_555
Mn1D N1D 1_555 1_555
Mn1C_2 N1C 1_555 1_555
N1C N2C 1_555 1_555
N2C N3C 1_555 1_555
N3C Mn1 1_555 1_555
N3G Mn1D 1_555 1_555
N4D Mn1D 1_555 1_555
N5D Mn1D 1_555 1_555
O1D K1 1_555 1_555
O2D K1 1_555 1_555
C1D O1D 1_555 1_555
C2D C1D 1_555 1_555
C3D C2D 1_555 1_555
H1D C3D 1_555 1_555
C4D C3D 1_555 1_555
H2D C4D 1_555 1_555
C5D C4D 1_555 1_555
H3D C5D 1_555 1_555
C6D C1D 1_555 1_555
C7D N4D 1_555 1_555
H4D C7D 1_555 1_555
C8D N4D 1_555 1_555
H5D C8D 1_555 1_555
H6D C8D 1_555 1_555
C9D C8D 1_555 1_555
H7D C9D 1_555 1_555
H8D C9D 1_555 1_555
C10D N5D 1_555 1_555
H9D C10D 1_555 1_555
H10D C10D 1_555 1_555
C11D N5D 1_555 1_555
H11D C11D 1_555 1_555
C12D C11D 1_555 1_555
C13D C12D 1_555 1_555
H12D C13D 1_555 1_555
C14D C13D 1_555 1_555
H13D C14D 1_555 1_555
C15D C14D 1_555 1_555
H14D C15D 1_555 1_555
C16D C15D 1_555 1_555
C17D O2D 1_555 1_555
O3D K1 1_555 1_555
C18D O3D 1_555 1_555
H15D C18D 1_555 1_555
H16D C18D 1_555 1_555
H17D C18D 1_555 1_555
O4D K1 1_555 1_555
C19D O4D 1_555 1_555
H18D C19D 1_555 1_555
H19D C19D 1_555 1_555
H20D C19D 1_555 1_555
O5B Cl1 1_555 1_555
O6B Cl1 1_555 1_555
O2 K1 1_555 1_555
C5 C6 1_555 1_555
C6 C7 1_555 1_555
C9 C10 1_555 1_555
C12 C17 1_555 1_555
C16 C17 1_555 1_555
O3 K1 1_555 1_555
O4 K1 1_555 1_555
Mn1D O1D 1_555 1_555
Mn1D O2D 1_555 1_555
C2D O3D 1_555 1_555
C5D C6D 1_555 1_555
C6D C7D 1_555 1_555
C9D C10D 1_555 1_555
C12D C17D 1_555 1_555
C16D C17D 1_555 1_555
C16D O4D 1_555 1_555

#END
