
#######################################################################
#
#                 Cambridge Crystallographic Data Centre
#                                CCDC 
#
#######################################################################
#
# If this CIF has been generated from an entry in the Cambridge 
# Structural Database, then it will include bibliographic, chemical, 
# crystal, experimental, refinement or atomic coordinate data resulting 
# from the CCDC's data processing and validation procedures.
#
#######################################################################

data_ITEBOZ
_symmetry_cell_setting           monoclinic
_symmetry_space_group_name_H-M   'C 2/c'
_symmetry_Int_Tables_number      15
_space_group_name_Hall           '-C 2yn'
loop_
_symmetry_equiv_pos_site_id
_symmetry_equiv_pos_as_xyz
1 x,y,z
2 -x,y,1/2-z
3 1/2+x,1/2+y,z
4 1/2-x,1/2+y,1/2-z
5 -x,-y,-z
6 x,-y,1/2+z
7 1/2-x,1/2-y,-z
8 1/2+x,1/2-y,1/2+z
_cell_length_a                   21(3)
_cell_length_b                   23(3)
_cell_length_c                   19.352(3)
_cell_angle_alpha                90
_cell_angle_beta                 107.76(3)
_cell_angle_gamma                90
_cell_volume                     8901.56
loop_
_atom_site_label
_atom_site_type_symbol
_atom_site_fract_x
_atom_site_fract_y
_atom_site_fract_z
Mn1 Mn -0.12028(6) 0.29242(5) -0.13954(6)
Mn2 Mn 0.11292(6) 0.27850(5) 0.13392(6)
N1 N -0.0166(4) 0.3231(3) -0.0759(4)
N2 N 0.0256(4) 0.2954(3) -0.0303(4)
N3 N 0.0686(3) 0.2690(3) 0.0116(4)
N4 N -0.1586(3) 0.3564(3) -0.0923(3)
N5 N -0.1153(3) 0.2319(3) -0.0607(3)
N6 N -0.3305(4) 0.2154(3) -0.2446(4)
N7 N -0.2792(4) 0.2410(3) -0.2165(3)
N8 N -0.2301(4) 0.2670(3) -0.1890(4)
N9 N 0.1750(3) 0.2133(3) 0.1193(3)
N10 N 0.1730(3) 0.3447(3) 0.1205(3)
O1 O -0.1190(2) 0.3437(2) -0.2154(3)
O2 O -0.0877(2) 0.2372(2) -0.1936(3)
O3 O -0.1242(2) 0.3795(2) -0.3469(3)
O4 O -0.0764(2) 0.1846(2) -0.3105(3)
O5 O 0.0543(2) 0.2220(2) 0.1533(3)
O6 O -0.0553(2) 0.1720(2) 0.1672(2)
O7 O 0.0471(2) 0.3328(2) 0.1422(3)
O8 O -0.0591(2) 0.3840(2) 0.1646(3)
Rb1 Rb 0.0000 0.30505(5) -0.2500
Rb2 Rb 0.0000 0.27949(5) 0.2500
C1 C -0.1616(4) 0.3872(3) -0.2422(4)
C2 C -0.1641(4) 0.4076(3) -0.3129(4)
C3 C -0.2058(4) 0.4537(3) -0.3432(4)
H1 H -0.2070 0.4680 -0.3896
C4 C -0.2465(4) 0.4796(3) -0.3050(5)
H2 H -0.2763 0.5101 -0.3267
C5 C -0.2431(4) 0.4605(3) -0.2360(4)
H3 H -0.2690 0.4791 -0.2097
C6 C -0.2011(4) 0.4134(3) -0.2048(4)
C7 C -0.1937(4) 0.3987(4) -0.1298(4)
H4 H -0.2171 0.4226 -0.1055
C8 C -0.1497(4) 0.3553(3) -0.0132(4)
H5 H -0.1793 0.3850 -0.0020
H6 H -0.1026 0.3656 0.0135
C9 C -0.1659(4) 0.2965(3) 0.0138(4)
H7 H -0.2106 0.2837 -0.0174
H8 H -0.1687 0.3011 0.0637
C10 C -0.1141(4) 0.2496(4) 0.0143(4)
H9 H -0.0687 0.2640 0.0410
H10 H -0.1232 0.2152 0.0404
C11 C -0.1064(4) 0.1485(3) -0.1375(4)
C12 C -0.1092(4) 0.0874(4) -0.1416(5)
H11 H -0.1157 0.0659 -0.1024
C13 C -0.1024(4) 0.0583(4) -0.2016(5)
H12 H -0.1049 0.0173 -0.2039
C14 C -0.0920(4) 0.0904(4) -0.2593(4)
H13 H -0.0881 0.0705 -0.3008
C15 C -0.0873(4) 0.1496(4) -0.2567(5)
C16 C -0.0942(3) 0.1809(4) -0.1949(4)
C17 C -0.1362(4) 0.3898(3) -0.4240(4)
H14 H -0.1040 0.3673 -0.4408
H15 H -0.1306 0.4310 -0.4322
H16 H -0.1821 0.3778 -0.4508
C18 C -0.0717(4) 0.1560(3) -0.3755(4)
H17 H -0.0344 0.1283 -0.3625
H18 H -0.0637 0.1848 -0.4091
H19 H -0.1138 0.1354 -0.3989
C19 C 0.0433(4) 0.1685(3) 0.1294(4)
C20 C -0.0158(4) 0.1401(3) 0.1366(4)
C21 C -0.0305(4) 0.0837(4) 0.1100(4)
H20 H -0.0706 0.0654 0.1123
C22 C 0.0137(4) 0.0533(4) 0.0798(4)
H21 H 0.0036 0.0147 0.0628
C23 C 0.0715(4) 0.0799(4) 0.0750(4)
H22 H 0.1010 0.0597 0.0545
C24 C 0.0868(4) 0.1370(3) 0.1004(4)
C25 C 0.1508(4) 0.1606(3) 0.1024(4)
H23 H 0.1803 0.1343 0.0896
C26 C 0.2463(4) 0.2240(3) 0.1224(4)
H24 H 0.2620 0.1917 0.0981
H25 H 0.2747 0.2248 0.1737
C27 C 0.2551(4) 0.2804(3) 0.0864(4)
H26 H 0.3009 0.2814 0.0813
H27 H 0.2224 0.2816 0.0371
C28 C 0.2453(4) 0.3333(3) 0.1279(4)
H28 H 0.2705 0.3282 0.1799
H29 H 0.2643 0.3674 0.1100
C29 C 0.0408(4) 0.3892(4) 0.1298(4)
C30 C -0.0155(4) 0.4183(4) 0.1409(4)
C31 C -0.0237(4) 0.4783(4) 0.1292(4)
H30 H -0.0608 0.4975 0.1376
C32 C 0.0227(5) 0.5095(4) 0.1053(5)
H31 H 0.0159 0.5497 0.0958
C33 C 0.0789(4) 0.4828(4) 0.0950(4)
H32 H 0.1099 0.5046 0.0785
C34 C 0.0894(4) 0.4224(3) 0.1094(4)
C35 C -0.1124(4) 0.1430(3) 0.1794(4)
H33 H -0.1424 0.1288 0.1331
H34 H -0.1369 0.1703 0.2008
H35 H -0.0966 0.1103 0.2125
C36 C -0.1179(4) 0.4118(3) 0.1770(4)
H36 H -0.1029 0.4389 0.2177
H37 H -0.1468 0.3822 0.1882
H38 H -0.1431 0.4329 0.1332
C37 C 0.1527(4) 0.3982(4) 0.1081(4)
H39 H 0.1833 0.4243 0.0969
C38 C -0.1101(4) 0.1765(4) -0.0712(4)
H40 H -0.1086 0.1518 -0.0314
Mn1A Mn 0.12028(6) 0.29242(5) -0.36046(6)
Mn2A Mn -0.11292(6) 0.27850(5) -0.63392(6)
Mn2G Mn -0.38708(6) 0.22150(5) -0.36608(6)
Mn2F Mn 0.38708(6) 0.22150(5) -0.13392(6)
N1A N 0.0166(4) 0.3231(3) -0.4241(4)
N2A N -0.0256(4) 0.2954(3) -0.4697(4)
N3A N -0.0686(3) 0.2690(3) -0.5116(4)
N4A N 0.1586(3) 0.3564(3) -0.4077(3)
N5A N 0.1153(3) 0.2319(3) -0.4393(3)
N6A N 0.3305(4) 0.2154(3) -0.2554(4)
N6G N 0.1695(4) 0.2846(3) 0.2554(4)
N6F N -0.1695(4) 0.2846(3) -0.7554(4)
N7A N 0.2792(4) 0.2410(3) -0.2835(3)
N8A N 0.2301(4) 0.2670(3) -0.3110(4)
N9A N -0.1750(3) 0.2133(3) -0.6193(3)
N10A N -0.1730(3) 0.3447(3) -0.6205(3)
O1A O 0.1190(2) 0.3437(2) -0.2846(3)
O2A O 0.0877(2) 0.2372(2) -0.3064(3)
O3A O 0.1242(2) 0.3795(2) -0.1531(3)
O4A O 0.0764(2) 0.1846(2) -0.1895(3)
O5A O -0.0543(2) 0.2220(2) -0.6533(3)
O5A_2 O -0.0543(2) 0.2220(2) 0.3467(3)
O6A O 0.0553(2) 0.1720(2) -0.6672(2)
O6A_2 O 0.0553(2) 0.1720(2) 0.3328(2)
O7A O -0.0471(2) 0.3328(2) -0.6422(3)
O7A_2 O -0.0471(2) 0.3328(2) 0.3578(3)
O8A O 0.0591(2) 0.3840(2) -0.6646(3)
O8A_2 O 0.0591(2) 0.3840(2) 0.3354(3)
Rb2_2 Rb 0.0000 0.27949(5) -0.7500
C1A C 0.1616(4) 0.3872(3) -0.2578(4)
C2A C 0.1641(4) 0.4076(3) -0.1871(4)
C3A C 0.2058(4) 0.4537(3) -0.1568(4)
H1A H 0.2070 0.4680 -0.1104
C4A C 0.2465(4) 0.4796(3) -0.1950(5)
H2A H 0.2763 0.5101 -0.1733
C5A C 0.2431(4) 0.4605(3) -0.2640(4)
H3A H 0.2690 0.4791 -0.2903
C6A C 0.2011(4) 0.4134(3) -0.2952(4)
C7A C 0.1937(4) 0.3987(4) -0.3702(4)
H4A H 0.2171 0.4226 -0.3945
C8A C 0.1497(4) 0.3553(3) -0.4868(4)
H5A H 0.1793 0.3850 -0.4980
H6A H 0.1026 0.3656 -0.5135
C9A C 0.1659(4) 0.2965(3) -0.5138(4)
H7A H 0.2106 0.2837 -0.4826
H8A H 0.1687 0.3011 -0.5637
C10A C 0.1141(4) 0.2496(4) -0.5143(4)
H9A H 0.0687 0.2640 -0.5410
H10A H 0.1232 0.2152 -0.5404
C11A C 0.1064(4) 0.1485(3) -0.3625(4)
C12A C 0.1092(4) 0.0874(4) -0.3584(5)
H11A H 0.1157 0.0659 -0.3976
C13A C 0.1024(4) 0.0583(4) -0.2984(5)
H12A H 0.1049 0.0173 -0.2961
C14A C 0.0920(4) 0.0904(4) -0.2407(4)
H13A H 0.0881 0.0705 -0.1992
C15A C 0.0873(4) 0.1496(4) -0.2433(5)
C16A C 0.0942(3) 0.1809(4) -0.3051(4)
C17A C 0.1362(4) 0.3898(3) -0.0760(4)
H14A H 0.1040 0.3673 -0.0592
H15A H 0.1306 0.4310 -0.0678
H16A H 0.1821 0.3778 -0.0492
C18A C 0.0717(4) 0.1560(3) -0.1245(4)
H17A H 0.0344 0.1283 -0.1375
H18A H 0.0637 0.1848 -0.0909
H19A H 0.1138 0.1354 -0.1011
C19A C -0.0433(4) 0.1685(3) -0.6294(4)
C20A C 0.0158(4) 0.1401(3) -0.6366(4)
C21A C 0.0305(4) 0.0837(4) -0.6100(4)
H20A H 0.0706 0.0654 -0.6123
C22A C -0.0137(4) 0.0533(4) -0.5798(4)
H21A H -0.0036 0.0147 -0.5628
C23A C -0.0715(4) 0.0799(4) -0.5750(4)
H22A H -0.1010 0.0597 -0.5545
C24A C -0.0868(4) 0.1370(3) -0.6004(4)
C25A C -0.1508(4) 0.1606(3) -0.6024(4)
H23A H -0.1803 0.1343 -0.5896
C26A C -0.2463(4) 0.2240(3) -0.6224(4)
H24A H -0.2620 0.1917 -0.5981
H25A H -0.2747 0.2248 -0.6737
C27A C -0.2551(4) 0.2804(3) -0.5864(4)
H26A H -0.3009 0.2814 -0.5813
H27A H -0.2224 0.2816 -0.5371
C28A C -0.2453(4) 0.3333(3) -0.6279(4)
H28A H -0.2705 0.3282 -0.6799
H29A H -0.2643 0.3674 -0.6100
C29A C -0.0408(4) 0.3892(4) -0.6298(4)
C30A C 0.0155(4) 0.4183(4) -0.6409(4)
C31A C 0.0237(4) 0.4783(4) -0.6292(4)
H30A H 0.0608 0.4975 -0.6376
C32A C -0.0227(5) 0.5095(4) -0.6053(5)
H31A H -0.0159 0.5497 -0.5958
C33A C -0.0789(4) 0.4828(4) -0.5950(4)
H32A H -0.1099 0.5046 -0.5785
C34A C -0.0894(4) 0.4224(3) -0.6094(4)
C35A C 0.1124(4) 0.1430(3) -0.6794(4)
H33A H 0.1424 0.1288 -0.6331
H34A H 0.1369 0.1703 -0.7008
H35A H 0.0966 0.1103 -0.7125
C36A C 0.1179(4) 0.4118(3) -0.6770(4)
H36A H 0.1029 0.4389 -0.7177
H37A H 0.1468 0.3822 -0.6882
H38A H 0.1431 0.4329 -0.6332
C37A C -0.1527(4) 0.3982(4) -0.6081(4)
H39A H -0.1833 0.4243 -0.5969
C38A C 0.1101(4) 0.1765(4) -0.4288(4)
H40A H 0.1086 0.1518 -0.4686
O9 O 0.1729(3) -0.0072(2) 0.8885(3)
O10 O 0.2767(3) -0.0026(2) 0.9816(3)
O11 O 0.1795(3) -0.0326(3) 1.0093(3)
O12 O 0.1925(3) 0.0644(2) 0.9811(3)
Cl1 Cl 0.20459(10) 0.00515(9) 0.96543(11)
loop_
_geom_bond_atom_site_label_1
_geom_bond_atom_site_label_2
_geom_bond_site_symmetry_1
_geom_bond_site_symmetry_2
Mn1 N1 1_555 1_555
Mn2 N3 1_555 1_555
N1 N2 1_555 1_555
N2 N3 1_555 1_555
N4 Mn1 1_555 1_555
N5 Mn1 1_555 1_555
N6 N7 1_555 1_555
N7 N8 1_555 1_555
N8 Mn1 1_555 1_555
N9 Mn2 1_555 1_555
N10 Mn2 1_555 1_555
O1 Mn1 1_555 1_555
O2 Mn1 1_555 1_555
O3 Rb1 1_555 1_555
O4 Rb1 1_555 1_555
O5 Mn2 1_555 1_555
O6 Rb2 1_555 1_555
O7 Mn2 1_555 1_555
O8 Rb2 1_555 1_555
O9 Cl1 1_555 1_555
O10 Cl1 1_555 1_555
O11 Cl1 1_555 1_555
O12 Cl1 1_555 1_555
Rb1 O1 1_555 1_555
Rb2 O5 1_555 1_555
C1 O1 1_555 1_555
C2 O3 1_555 1_555
C3 C2 1_555 1_555
H1 C3 1_555 1_555
C4 C3 1_555 1_555
H2 C4 1_555 1_555
C5 C4 1_555 1_555
H3 C5 1_555 1_555
C6 C1 1_555 1_555
C7 N4 1_555 1_555
H4 C7 1_555 1_555
C8 N4 1_555 1_555
H5 C8 1_555 1_555
H6 C8 1_555 1_555
C9 C8 1_555 1_555
H7 C9 1_555 1_555
H8 C9 1_555 1_555
C10 N5 1_555 1_555
H9 C10 1_555 1_555
H10 C10 1_555 1_555
C11 C12 1_555 1_555
C12 H11 1_555 1_555
C13 C12 1_555 1_555
H12 C13 1_555 1_555
C14 C13 1_555 1_555
H13 C14 1_555 1_555
C15 O4 1_555 1_555
C16 O2 1_555 1_555
C17 O3 1_555 1_555
H14 C17 1_555 1_555
H15 C17 1_555 1_555
H16 C17 1_555 1_555
C18 O4 1_555 1_555
H17 C18 1_555 1_555
H18 C18 1_555 1_555
H19 C18 1_555 1_555
C19 O5 1_555 1_555
C20 O6 1_555 1_555
C21 C20 1_555 1_555
H20 C21 1_555 1_555
C22 C21 1_555 1_555
H21 C22 1_555 1_555
C23 C22 1_555 1_555
H22 C23 1_555 1_555
C24 C19 1_555 1_555
C25 N9 1_555 1_555
H23 C25 1_555 1_555
C26 N9 1_555 1_555
H24 C26 1_555 1_555
H25 C26 1_555 1_555
C27 C26 1_555 1_555
H26 C27 1_555 1_555
H27 C27 1_555 1_555
C28 N10 1_555 1_555
H28 C28 1_555 1_555
H29 C28 1_555 1_555
C29 O7 1_555 1_555
C30 O8 1_555 1_555
C31 C30 1_555 1_555
H30 C31 1_555 1_555
C32 C31 1_555 1_555
H31 C32 1_555 1_555
C33 C32 1_555 1_555
H32 C33 1_555 1_555
C34 C29 1_555 1_555
C35 O6 1_555 1_555
H33 C35 1_555 1_555
H34 C35 1_555 1_555
H35 C35 1_555 1_555
C36 O8 1_555 1_555
H36 C36 1_555 1_555
H37 C36 1_555 1_555
H38 C36 1_555 1_555
C37 N10 1_555 1_555
H39 C37 1_555 1_555
C38 N5 1_555 1_555
H40 C38 1_555 1_555
Mn1A N1A 1_555 1_555
Mn2A N3A 1_555 1_555
Mn2G N6 1_555 1_555
Mn2F N6A 1_555 1_555
N1A N2A 1_555 1_555
N2A N3A 1_555 1_555
N4A Mn1A 1_555 1_555
N5A Mn1A 1_555 1_555
N6A N7A 1_555 1_555
N6G Mn2 1_555 1_555
N6F Mn2A 1_555 1_555
N7A N8A 1_555 1_555
N8A Mn1A 1_555 1_555
N9A Mn2A 1_555 1_555
N10A Mn2A 1_555 1_555
O1A Rb1 1_555 1_555
O2A Rb1 1_555 1_555
O3A Rb1 1_555 1_555
O4A Rb1 1_555 1_555
O5A Mn2A 1_555 1_555
O5A_2 Rb2 1_555 1_555
O6A Rb2_2 1_555 1_555
O6A_2 Rb2 1_555 1_555
O7A Mn2A 1_555 1_555
O7A_2 Rb2 1_555 1_555
O8A Rb2_2 1_555 1_555
O8A_2 Rb2 1_555 1_555
Rb2_2 O5A 1_555 1_555
C1A O1A 1_555 1_555
C2A O3A 1_555 1_555
C3A C2A 1_555 1_555
H1A C3A 1_555 1_555
C4A C3A 1_555 1_555
H2A C4A 1_555 1_555
C5A C4A 1_555 1_555
H3A C5A 1_555 1_555
C6A C1A 1_555 1_555
C7A N4A 1_555 1_555
H4A C7A 1_555 1_555
C8A N4A 1_555 1_555
H5A C8A 1_555 1_555
H6A C8A 1_555 1_555
C9A C8A 1_555 1_555
H7A C9A 1_555 1_555
H8A C9A 1_555 1_555
C10A N5A 1_555 1_555
H9A C10A 1_555 1_555
H10A C10A 1_555 1_555
C11A C12A 1_555 1_555
C12A H11A 1_555 1_555
C13A C12A 1_555 1_555
H12A C13A 1_555 1_555
C14A C13A 1_555 1_555
H13A C14A 1_555 1_555
C15A O4A 1_555 1_555
C16A O2A 1_555 1_555
C17A O3A 1_555 1_555
H14A C17A 1_555 1_555
H15A C17A 1_555 1_555
H16A C17A 1_555 1_555
C18A O4A 1_555 1_555
H17A C18A 1_555 1_555
H18A C18A 1_555 1_555
H19A C18A 1_555 1_555
C19A O5A 1_555 1_555
C20A O6A 1_555 1_555
C21A C20A 1_555 1_555
H20A C21A 1_555 1_555
C22A C21A 1_555 1_555
H21A C22A 1_555 1_555
C23A C22A 1_555 1_555
H22A C23A 1_555 1_555
C24A C19A 1_555 1_555
C25A N9A 1_555 1_555
H23A C25A 1_555 1_555
C26A N9A 1_555 1_555
H24A C26A 1_555 1_555
H25A C26A 1_555 1_555
C27A C26A 1_555 1_555
H26A C27A 1_555 1_555
H27A C27A 1_555 1_555
C28A N10A 1_555 1_555
H28A C28A 1_555 1_555
H29A C28A 1_555 1_555
C29A O7A 1_555 1_555
C30A O8A 1_555 1_555
C31A C30A 1_555 1_555
H30A C31A 1_555 1_555
C32A C31A 1_555 1_555
H31A C32A 1_555 1_555
C33A C32A 1_555 1_555
H32A C33A 1_555 1_555
C34A C29A 1_555 1_555
C35A O6A 1_555 1_555
H33A C35A 1_555 1_555
H34A C35A 1_555 1_555
H35A C35A 1_555 1_555
C36A O8A 1_555 1_555
H36A C36A 1_555 1_555
H37A C36A 1_555 1_555
H38A C36A 1_555 1_555
C37A N10A 1_555 1_555
H39A C37A 1_555 1_555
C38A N5A 1_555 1_555
H40A C38A 1_555 1_555
O2 Rb1 1_555 1_555
O7 Rb2 1_555 1_555
C1 C2 1_555 1_555
C5 C6 1_555 1_555
C6 C7 1_555 1_555
C9 C10 1_555 1_555
C11 C16 1_555 1_555
C11 C38 1_555 1_555
C14 C15 1_555 1_555
C15 C16 1_555 1_555
C19 C20 1_555 1_555
C23 C24 1_555 1_555
C24 C25 1_555 1_555
C27 C28 1_555 1_555
C29 C30 1_555 1_555
C33 C34 1_555 1_555
C34 C37 1_555 1_555
Mn1A O1A 1_555 1_555
Mn1A O2A 1_555 1_555
O7A Rb2_2 1_555 1_555
C1A C2A 1_555 1_555
C5A C6A 1_555 1_555
C6A C7A 1_555 1_555
C9A C10A 1_555 1_555
C11A C16A 1_555 1_555
C11A C38A 1_555 1_555
C14A C15A 1_555 1_555
C15A C16A 1_555 1_555
C19A C20A 1_555 1_555
C23A C24A 1_555 1_555
C24A C25A 1_555 1_555
C27A C28A 1_555 1_555
C29A C30A 1_555 1_555
C33A C34A 1_555 1_555
C34A C37A 1_555 1_555

#END
