
#######################################################################
#
#                 Cambridge Crystallographic Data Centre
#                                CCDC 
#
#######################################################################
#
# If this CIF has been generated from an entry in the Cambridge 
# Structural Database, then it will include bibliographic, chemical, 
# crystal, experimental, refinement or atomic coordinate data resulting 
# from the CCDC's data processing and validation procedures.
#
#######################################################################

data_ITIBIX
_symmetry_cell_setting           monoclinic
_symmetry_space_group_name_H-M   'P 21/n'
_symmetry_Int_Tables_number      14
_space_group_name_Hall           '-P 2yn'
loop_
_symmetry_equiv_pos_site_id
_symmetry_equiv_pos_as_xyz
1 x,y,z
2 1/2-x,1/2+y,1/2-z
3 -x,-y,-z
4 1/2+x,1/2-y,1/2+z
_cell_length_a                   9.055(5)
_cell_length_b                   7.869(9)
_cell_length_c                   18.195(6)
_cell_angle_alpha                90
_cell_angle_beta                 102.535(5)
_cell_angle_gamma                90
_cell_volume                     1265.56
loop_
_atom_site_label
_atom_site_type_symbol
_atom_site_fract_x
_atom_site_fract_y
_atom_site_fract_z
Zn1 Zn -0.31341(2) 0.40666(3) -0.047257(10)
Zn2 Zn -0.00049(2) 0.07247(2) 0.235930(10)
O1 O -0.01762(13) 0.21306(16) 0.14019(6)
O2 O -0.20573(16) 0.6414(2) -0.04252(9)
C1 C -0.21681(19) 0.2204(2) -0.24648(10)
H1 H -0.2387 0.2048 -0.2984
N1 N -0.10370(16) 0.1404(2) -0.19960(8)
O3 O -0.43716(15) 0.15987(18) -0.06341(8)
O4 O -0.27616(13) 0.47177(17) 0.31214(7)
N2 N -0.37066(16) 0.41246(18) 0.06387(8)
C2 C -0.25450(17) 0.3593(2) 0.11873(9)
N3 N -0.29391(15) 0.32332(18) -0.21186(7)
O5 O -0.09073(14) 0.31067(18) 0.28682(7)
N4 N -0.47766(15) 0.47373(18) 0.09669(8)
C3 C -0.12046(18) 0.2859(2) 0.09472(9)
O6 O -0.11900(14) 0.30508(19) 0.02627(7)
N5 N -0.43152(15) 0.46319(18) 0.17101(7)
C4 C -0.1150(2) 0.2019(2) -0.13235(10)
H2 H -0.0507 0.1702 -0.0873
C5 C -0.21274(18) 0.3890(2) 0.26783(9)
C6 C -0.29273(18) 0.3935(2) 0.18695(9)
N6 N -0.22670(15) 0.31205(19) -0.13653(8)
H3 H -0.471(3) 0.147(3) -0.1100(6)
H4 H -0.5174(19) 0.152(4) -0.0459(13)
H5 H -0.1120(11) 0.648(3) -0.0373(13)
H6 H -0.233(2) 0.723(2) -0.0184(13)
Zn1B Zn -0.68659(2) 0.59334(3) 0.047257(10)
Zn2B Zn 0.00049(2) -0.07247(2) -0.235930(10)
Zn2A Zn -0.49951(2) 0.57247(2) 0.264070(10)
Zn2C Zn -0.50049(2) 0.42753(2) -0.264070(10)
N1B N 0.10370(16) -0.1404(2) 0.19960(8)
O4A O -0.22384(13) -0.02823(17) 0.18786(7)
N3C N 0.20609(15) 0.17668(18) 0.28814(7)
N4B N -0.52234(15) 0.52627(18) -0.09669(8)
N5A N -0.06848(15) -0.03681(18) 0.32899(7)
O7 O -0.28044(19) 0.90637(19) 0.03449(9)
H7 H -0.303(3) 0.996(2) 0.0092(13)
H8 H -0.257(3) 0.935(3) 0.0802(6)
loop_
_geom_bond_atom_site_label_1
_geom_bond_atom_site_label_2
_geom_bond_site_symmetry_1
_geom_bond_site_symmetry_2
Zn1 O2 1_555 1_555
Zn2 O1 1_555 1_555
O1 C3 1_555 1_555
O2 H5 1_555 1_555
C1 H1 1_555 1_555
N1 C1 1_555 1_555
O3 Zn1 1_555 1_555
O4 C5 1_555 1_555
N2 Zn1 1_555 1_555
C2 N2 1_555 1_555
N3 C1 1_555 1_555
O5 Zn2 1_555 1_555
N4 N2 1_555 1_555
C3 C2 1_555 1_555
O6 Zn1 1_555 1_555
N5 N4 1_555 1_555
C4 N1 1_555 1_555
H2 C4 1_555 1_555
C5 O5 1_555 1_555
C6 C2 1_555 1_555
N6 Zn1 1_555 1_555
H3 O3 1_555 1_555
H4 O3 1_555 1_555
H6 O2 1_555 1_555
O7 H7 1_555 1_555
H8 O7 1_555 1_555
Zn1B N4 1_555 1_555
Zn2B N1 1_555 1_555
Zn2A O4 1_555 1_555
Zn2C N3 1_555 1_555
N1B Zn2 1_555 1_555
O4A Zn2 1_555 1_555
N3C Zn2 1_555 1_555
N4B Zn1 1_555 1_555
N5A Zn2 1_555 1_555
N3 N6 1_555 1_555
C3 O6 1_555 1_555
N5 C6 1_555 1_555
N5 Zn2A 1_555 1_555
C4 N6 1_555 1_555
C5 C6 1_555 1_555

#END
