
#######################################################################
#
#                 Cambridge Crystallographic Data Centre
#                                CCDC 
#
#######################################################################
#
# If this CIF has been generated from an entry in the Cambridge 
# Structural Database, then it will include bibliographic, chemical, 
# crystal, experimental, refinement or atomic coordinate data resulting 
# from the CCDC's data processing and validation procedures.
#
#######################################################################

data_ITIBUJ
_symmetry_cell_setting           monoclinic
_symmetry_space_group_name_H-M   'C 2/c'
_symmetry_Int_Tables_number      15
_space_group_name_Hall           '-C 2yn'
loop_
_symmetry_equiv_pos_site_id
_symmetry_equiv_pos_as_xyz
1 x,y,z
2 -x,y,1/2-z
3 1/2+x,1/2+y,z
4 1/2-x,1/2+y,1/2-z
5 -x,-y,-z
6 x,-y,1/2+z
7 1/2-x,1/2-y,-z
8 1/2+x,1/2-y,1/2+z
_cell_length_a                   16.858(4)
_cell_length_b                   9.427(3)
_cell_length_c                   9.5637(19)
_cell_angle_alpha                90
_cell_angle_beta                 98.93(2)
_cell_angle_gamma                90
_cell_volume                     1501.44
loop_
_atom_site_label
_atom_site_type_symbol
_atom_site_fract_x
_atom_site_fract_y
_atom_site_fract_z
Ni1 Ni 1.0000 0.22518(4) 0.2500
O1 O 1.09190(10) 0.37489(17) 0.29346(19)
H1 H 1.087(2) 0.444(3) 0.362(3)
H2 H 1.089(3) 0.416(4) 0.203(2)
O2 O 0.91313(11) 0.07176(17) 0.20558(19)
O3 O 0.91673(11) 0.41991(18) 0.49158(19)
O4 O 0.99069(11) 0.22631(17) 0.46082(17)
N1 N 0.83369(13) -0.1028(2) 0.2671(2)
C1 C 0.96298(14) 0.3197(2) 0.5339(2)
C2 C 0.8155(2) -0.2048(3) 0.3735(4)
H3 H 0.7700 -0.2611 0.3345
H4 H 0.8036 -0.1546 0.4551
H5 H 0.8611 -0.2654 0.4006
C3 C 0.89409(14) -0.0123(3) 0.2944(3)
H6 H 0.9238 -0.0117 0.3849
C4 C 0.98903(15) 0.3097(2) 0.6875(3)
C5 C 0.7886(2) -0.1129(4) 0.1257(4)
H7 H 0.7471 -0.1829 0.1244
H8 H 0.8239 -0.1398 0.0607
H9 H 0.7647 -0.0226 0.0983
Ni1_2 Ni 1.0000 0.22518(4) 1.2500
O1A O 0.90810(10) 0.37489(17) 0.20654(19)
H1A H 0.913(2) 0.444(3) 0.138(3)
H2A H 0.911(3) 0.416(4) 0.297(2)
O2A O 1.08687(11) 0.07176(17) 0.29442(19)
O3A O 1.08327(11) 0.41991(18) 1.00842(19)
O4A O 1.00931(11) 0.22631(17) 1.03918(17)
O4A_2 O 1.00931(11) 0.22631(17) 0.03918(17)
N1A N 1.16631(13) -0.1028(2) 0.2329(2)
C1A C 1.03702(14) 0.3197(2) 0.9661(2)
C2A C 1.1845(2) -0.2048(3) 0.1265(4)
H3A H 1.2300 -0.2611 0.1655
H4A H 1.1964 -0.1546 0.0449
H5A H 1.1389 -0.2654 0.0994
C3A C 1.10591(14) -0.0123(3) 0.2056(3)
H6A H 1.0762 -0.0117 0.1151
C4A C 1.01097(15) 0.3097(2) 0.8125(3)
C5A C 1.2114(2) -0.1129(4) 0.3743(4)
H7A H 1.2529 -0.1829 0.3756
H8A H 1.1761 -0.1398 0.4393
H9A H 1.2353 -0.0226 0.4017
loop_
_geom_bond_atom_site_label_1
_geom_bond_atom_site_label_2
_geom_bond_site_symmetry_1
_geom_bond_site_symmetry_2
Ni1 O1 1_555 1_555
O1 H1 1_555 1_555
H2 O1 1_555 1_555
O2 Ni1 1_555 1_555
O3 C1 1_555 1_555
O4 Ni1 1_555 1_555
N1 C2 1_555 1_555
C1 O4 1_555 1_555
C2 H3 1_555 1_555
H4 C2 1_555 1_555
H5 C2 1_555 1_555
C3 O2 1_555 1_555
H6 C3 1_555 1_555
C4 C1 1_555 1_555
C5 N1 1_555 1_555
H7 C5 1_555 1_555
H8 C5 1_555 1_555
H9 C5 1_555 1_555
Ni1_2 O4A 1_555 1_555
O1A Ni1 1_555 1_555
H1A O1A 1_555 1_555
H2A O1A 1_555 1_555
O2A Ni1 1_555 1_555
O3A C1A 1_555 1_555
O4A C1A 1_555 1_555
O4A_2 Ni1 1_555 1_555
N1A C2A 1_555 1_555
C1A C4A 1_555 1_555
C2A H3A 1_555 1_555
H4A C2A 1_555 1_555
H5A C2A 1_555 1_555
C3A O2A 1_555 1_555
H6A C3A 1_555 1_555
C4A C4 1_555 1_555
C5A N1A 1_555 1_555
H7A C5A 1_555 1_555
H8A C5A 1_555 1_555
H9A C5A 1_555 1_555
N1 C3 1_555 1_555
N1A C3A 1_555 1_555

#END
