
#######################################################################
#
#                 Cambridge Crystallographic Data Centre
#                                CCDC 
#
#######################################################################
#
# If this CIF has been generated from an entry in the Cambridge 
# Structural Database, then it will include bibliographic, chemical, 
# crystal, experimental, refinement or atomic coordinate data resulting 
# from the CCDC's data processing and validation procedures.
#
#######################################################################

data_ITICAQ
_symmetry_cell_setting           monoclinic
_symmetry_space_group_name_H-M   'C 2/c'
_symmetry_Int_Tables_number      15
_space_group_name_Hall           '-C 2yn'
loop_
_symmetry_equiv_pos_site_id
_symmetry_equiv_pos_as_xyz
1 x,y,z
2 -x,y,1/2-z
3 1/2+x,1/2+y,z
4 1/2-x,1/2+y,1/2-z
5 -x,-y,-z
6 x,-y,1/2+z
7 1/2-x,1/2-y,-z
8 1/2+x,1/2-y,1/2+z
_cell_length_a                   16.909(3)
_cell_length_b                   9.4941(10)
_cell_length_c                   9.5949(15)
_cell_angle_alpha                90
_cell_angle_beta                 99.151(13)
_cell_angle_gamma                90
_cell_volume                     1520.72
loop_
_atom_site_label
_atom_site_type_symbol
_atom_site_fract_x
_atom_site_fract_y
_atom_site_fract_z
Zn1 Zn 1.0000 0.22269(4) 0.2500
O1 O 1.09426(10) 0.37486(18) 0.29561(16)
H1 H 1.091(2) 0.443(3) 0.367(3)
H2 H 1.096(2) 0.414(4) 0.2046(19)
O2 O 0.91237(11) 0.06671(19) 0.20636(17)
O3 O 0.98997(11) 0.22870(17) 0.46238(16)
O4 O 0.91618(10) 0.42051(19) 0.49139(16)
N1 N 0.83374(12) -0.1058(2) 0.2689(2)
C1 C 0.96236(13) 0.3219(2) 0.5341(2)
C2 C 0.98887(14) 0.3135(3) 0.6876(2)
C3 C 0.89333(14) -0.0158(3) 0.2952(2)
H3 H 0.9228 -0.0141 0.3857
C4 C 0.8154(2) -0.2058(4) 0.3750(4)
H4 H 0.7701 -0.2621 0.3358
H5 H 0.8032 -0.1553 0.4556
H6 H 0.8608 -0.2658 0.4033
C5 C 0.7890(2) -0.1183(5) 0.1267(3)
H7 H 0.7479 -0.1880 0.1257
H8 H 0.8247 -0.1458 0.0631
H9 H 0.7651 -0.0292 0.0976
Zn1_2 Zn 1.0000 0.22269(4) 1.2500
O1A O 0.90574(10) 0.37486(18) 0.20439(16)
H1A H 0.909(2) 0.443(3) 0.133(3)
H2A H 0.904(2) 0.414(4) 0.2954(19)
O2A O 1.08763(11) 0.06671(19) 0.29364(17)
O3A O 1.01003(11) 0.22870(17) 1.03762(16)
O3A_2 O 1.01003(11) 0.22870(17) 0.03762(16)
O4A O 1.08382(10) 0.42051(19) 1.00861(16)
N1A N 1.16626(12) -0.1058(2) 0.2311(2)
C1A C 1.03764(13) 0.3219(2) 0.9659(2)
C2A C 1.01113(14) 0.3135(3) 0.8124(2)
C3A C 1.10667(14) -0.0158(3) 0.2048(2)
H3A H 1.0772 -0.0141 0.1143
C4A C 1.1846(2) -0.2058(4) 0.1250(4)
H4A H 1.2299 -0.2621 0.1642
H5A H 1.1968 -0.1553 0.0444
H6A H 1.1392 -0.2658 0.0967
C5A C 1.2110(2) -0.1183(5) 0.3733(3)
H7A H 1.2521 -0.1880 0.3743
H8A H 1.1753 -0.1458 0.4369
H9A H 1.2349 -0.0292 0.4024
loop_
_geom_bond_atom_site_label_1
_geom_bond_atom_site_label_2
_geom_bond_site_symmetry_1
_geom_bond_site_symmetry_2
Zn1 O1 1_555 1_555
O1 H1 1_555 1_555
H2 O1 1_555 1_555
O2 Zn1 1_555 1_555
O3 Zn1 1_555 1_555
O4 C1 1_555 1_555
N1 C3 1_555 1_555
C1 O3 1_555 1_555
C2 C1 1_555 1_555
C3 O2 1_555 1_555
H3 C3 1_555 1_555
C4 N1 1_555 1_555
H4 C4 1_555 1_555
H5 C4 1_555 1_555
H6 C4 1_555 1_555
C5 N1 1_555 1_555
H7 C5 1_555 1_555
H8 C5 1_555 1_555
H9 C5 1_555 1_555
Zn1_2 O3A 1_555 1_555
O1A Zn1 1_555 1_555
H1A O1A 1_555 1_555
H2A O1A 1_555 1_555
O2A Zn1 1_555 1_555
O3A C1A 1_555 1_555
O3A_2 Zn1 1_555 1_555
O4A C1A 1_555 1_555
N1A C3A 1_555 1_555
C1A C2A 1_555 1_555
C2A C2 1_555 1_555
C3A O2A 1_555 1_555
H3A C3A 1_555 1_555
C4A N1A 1_555 1_555
H4A C4A 1_555 1_555
H5A C4A 1_555 1_555
H6A C4A 1_555 1_555
C5A N1A 1_555 1_555
H7A C5A 1_555 1_555
H8A C5A 1_555 1_555
H9A C5A 1_555 1_555

#END
