
#######################################################################
#
#                 Cambridge Crystallographic Data Centre
#                                CCDC 
#
#######################################################################
#
# If this CIF has been generated from an entry in the Cambridge 
# Structural Database, then it will include bibliographic, chemical, 
# crystal, experimental, refinement or atomic coordinate data resulting 
# from the CCDC's data processing and validation procedures.
#
#######################################################################

data_ITIHUP
_symmetry_cell_setting           monoclinic
_symmetry_space_group_name_H-M   'P 21/c'
_symmetry_Int_Tables_number      14
_space_group_name_Hall           '-P 2ybc'
loop_
_symmetry_equiv_pos_site_id
_symmetry_equiv_pos_as_xyz
1 x,y,z
2 -x,1/2+y,1/2-z
3 -x,-y,-z
4 x,1/2-y,1/2+z
_cell_length_a                   17.3303(13)
_cell_length_b                   9.5903(7)
_cell_length_c                   18.8701(17)
_cell_angle_alpha                90
_cell_angle_beta                 100.299(8)
_cell_angle_gamma                90
_cell_volume                     3085.73
loop_
_atom_site_label
_atom_site_type_symbol
_atom_site_fract_x
_atom_site_fract_y
_atom_site_fract_z
Mn1 Mn 0.23433(3) 0.01618(6) 0.47055(3)
C1 C 0.3464(2) 0.1659(4) 0.5983(2)
H1 H 0.3279 0.0928 0.6230
C2 C 0.4030(2) 0.2499(4) 0.6350(2)
H2 H 0.4228 0.2325 0.6833
C3 C 0.4316(2) 0.3622(4) 0.6003(2)
C4 C 0.4000(2) 0.3801(4) 0.5283(2)
H3 H 0.4169 0.4532 0.5025
C5 C 0.3435(2) 0.2893(4) 0.4949(2)
H4 H 0.3235 0.3028 0.4463
C6 C 0.3078(2) 0.7512(4) 0.5633(2)
H5 H 0.2559 0.7370 0.5680
C7 C 0.3638(2) 0.6633(4) 0.6001(2)
H6 H 0.3494 0.5934 0.6292
C8 C 0.4423(2) 0.6788(4) 0.5936(2)
C9 C 0.4590(2) 0.7906(4) 0.5515(2)
H7 H 0.5106 0.8079 0.5466
C10 C 0.4004(2) 0.8745(4) 0.5174(2)
H8 H 0.4138 0.9484 0.4901
C11 C 0.5040(2) 0.5881(4) 0.6300(2)
C12 C 0.4957(2) 0.4468(4) 0.6405(2)
C13 C 0.6113(2) 0.4520(4) 0.7352(2)
H9 H 0.6543 0.3899 0.7539
H10 H 0.5911 0.4914 0.7756
C14 C 0.6401(2) 0.5688(4) 0.6908(3)
H11 H 0.6777 0.6266 0.7220
H12 H 0.6663 0.5284 0.6544
N1 N 0.31590(18) 0.1830(3) 0.52853(18)
N2 N 0.32359(19) 0.8559(3) 0.5213(2)
N3 N 0.55015(19) 0.3760(3) 0.68913(19)
H13 H 0.5480 0.2866 0.6922
N4 N 0.57549(18) 0.6530(3) 0.65683(19)
H14 H 0.5805 0.7418 0.6534
C15 C 0.0660(2) 0.8857(4) 0.4402(2)
H15 H 0.0590 0.9633 0.4680
C16 C 0.0031(2) 0.8012(4) 0.4191(2)
H16 H -0.0452 0.8240 0.4309
C17 C 0.0109(2) 0.6798(4) 0.3797(2)
C18 C 0.0851(2) 0.6600(4) 0.3610(2)
H17 H 0.0941 0.5826 0.3340
C19 C 0.1435(2) 0.7529(4) 0.3821(2)
H18 H 0.1909 0.7382 0.3667
C20 C 0.1317(2) 0.2904(4) 0.4644(2)
H19 H 0.1611 0.3024 0.5103
C21 C 0.0682(2) 0.3761(4) 0.4410(2)
H20 H 0.0550 0.4441 0.4719
C22 C 0.0238(2) 0.3633(4) 0.3728(2)
C23 C 0.0454(2) 0.2583(4) 0.3282(2)
H21 H 0.0174 0.2434 0.2819
C24 C 0.1100(2) 0.1780(5) 0.3560(2)
H22 H 0.1252 0.1104 0.3260
C25 C -0.0482(2) 0.4444(4) 0.3483(2)
C26 C -0.0550(2) 0.5852(4) 0.3590(2)
C27 C -0.1956(2) 0.5510(4) 0.3443(3)
H23 H -0.2432 0.6024 0.3259
H24 H -0.2005 0.5129 0.3909
C28 C -0.1866(2) 0.4320(4) 0.2929(2)
H25 H -0.2286 0.3648 0.2923
H26 H -0.1891 0.4676 0.2445
N5 N 0.13787(19) 0.8653(3) 0.4239(2)
N6 N 0.1515(2) 0.1888(3) 0.4208(2)
N7 N -0.12966(18) 0.6447(3) 0.3528(2)
H27 H -0.1359 0.7337 0.3531
N8 N -0.11174(19) 0.3662(4) 0.3175(2)
H28 H -0.1070 0.2775 0.3130
S1 S 0.40430(6) -0.00869(12) 0.28972(7)
C29 C 0.3392(2) 0.0057(4) 0.3420(2)
N9 N 0.29210(19) 0.0176(4) 0.37818(19)
S2 S 0.15606(7) -0.00637(14) 0.70975(7)
C30 C 0.1711(2) 0.0021(4) 0.6264(2)
N10 N 0.18256(19) 0.0088(4) 0.5682(2)
Mn1_2 Mn 0.23433(3) 1.01618(6) 0.47055(3)
N2_2 N 0.32359(19) -0.1441(3) 0.5213(2)
N5_2 N 0.13787(19) -0.1347(3) 0.4239(2)
loop_
_geom_bond_atom_site_label_1
_geom_bond_atom_site_label_2
_geom_bond_site_symmetry_1
_geom_bond_site_symmetry_2
Mn1 N1 1_555 1_555
C1 H1 1_555 1_555
C2 C1 1_555 1_555
H2 C2 1_555 1_555
C3 C2 1_555 1_555
C4 C3 1_555 1_555
H3 C4 1_555 1_555
C5 C4 1_555 1_555
H4 C5 1_555 1_555
C6 H5 1_555 1_555
C7 C6 1_555 1_555
H6 C7 1_555 1_555
C8 C7 1_555 1_555
C9 C8 1_555 1_555
H7 C9 1_555 1_555
C10 C9 1_555 1_555
H8 C10 1_555 1_555
C11 C8 1_555 1_555
C12 C3 1_555 1_555
C13 H9 1_555 1_555
H10 C13 1_555 1_555
C14 C13 1_555 1_555
H11 C14 1_555 1_555
H12 C14 1_555 1_555
N1 C1 1_555 1_555
N2 C6 1_555 1_555
N3 C12 1_555 1_555
H13 N3 1_555 1_555
N4 C11 1_555 1_555
H14 N4 1_555 1_555
C15 H15 1_555 1_555
C16 C15 1_555 1_555
H16 C16 1_555 1_555
C17 C16 1_555 1_555
C18 C17 1_555 1_555
H17 C18 1_555 1_555
C19 C18 1_555 1_555
H18 C19 1_555 1_555
C20 H19 1_555 1_555
C21 C20 1_555 1_555
H20 C21 1_555 1_555
C22 C21 1_555 1_555
C23 C22 1_555 1_555
H21 C23 1_555 1_555
C24 C23 1_555 1_555
H22 C24 1_555 1_555
C25 C22 1_555 1_555
C26 C17 1_555 1_555
C27 H23 1_555 1_555
H24 C27 1_555 1_555
C28 C27 1_555 1_555
H25 C28 1_555 1_555
H26 C28 1_555 1_555
N5 C15 1_555 1_555
N6 Mn1 1_555 1_555
N7 C26 1_555 1_555
H27 N7 1_555 1_555
N8 C25 1_555 1_555
H28 N8 1_555 1_555
S1 C29 1_555 1_555
C29 N9 1_555 1_555
N9 Mn1 1_555 1_555
S2 C30 1_555 1_555
C30 N10 1_555 1_555
N10 Mn1 1_555 1_555
Mn1_2 N2 1_555 1_555
N2_2 Mn1 1_555 1_555
N5_2 Mn1 1_555 1_555
C5 N1 1_555 1_555
C10 N2 1_555 1_555
C11 C12 1_555 1_555
C13 N3 1_555 1_555
C14 N4 1_555 1_555
C19 N5 1_555 1_555
C20 N6 1_555 1_555
C24 N6 1_555 1_555
C25 C26 1_555 1_555
C27 N7 1_555 1_555
C28 N8 1_555 1_555
N5 Mn1_2 1_555 1_555

#END
