
#######################################################################
#
#                 Cambridge Crystallographic Data Centre
#                                CCDC 
#
#######################################################################
#
# If this CIF has been generated from an entry in the Cambridge 
# Structural Database, then it will include bibliographic, chemical, 
# crystal, experimental, refinement or atomic coordinate data resulting 
# from the CCDC's data processing and validation procedures.
#
#######################################################################

data_ITOSEQ
_symmetry_cell_setting           monoclinic
_symmetry_space_group_name_H-M   'P 21/c'
_symmetry_Int_Tables_number      14
_space_group_name_Hall           '-P 2ybc'
loop_
_symmetry_equiv_pos_site_id
_symmetry_equiv_pos_as_xyz
1 x,y,z
2 -x,1/2+y,1/2-z
3 -x,-y,-z
4 x,1/2-y,1/2+z
_cell_length_a                   10.8928(2)
_cell_length_b                   8.79170(10)
_cell_length_c                   27.7665(4)
_cell_angle_alpha                90
_cell_angle_beta                 101.0510(10)
_cell_angle_gamma                90
_cell_volume                     2609.79
loop_
_atom_site_label
_atom_site_type_symbol
_atom_site_fract_x
_atom_site_fract_y
_atom_site_fract_z
Zn1 Zn 0.62956(3) -0.96692(4) -0.199058(11)
Zn2 Zn 0.87284(3) -0.76219(4) -0.295995(11)
P1 P 0.88172(7) -1.04710(8) -0.23217(3)
P2 P 0.61328(7) -0.69500(8) -0.27101(3)
O1 O 0.8878(2) -0.9796(2) -0.28177(7)
O2 O 0.95466(18) -1.1955(2) -0.22300(8)
O3 O 0.74679(18) -1.0796(2) -0.22810(8)
O4 O 0.9396(2) -0.9247(2) -0.19322(7)
O5 O 0.75207(18) -0.6523(2) -0.26639(7)
O6 O 0.5880(2) -0.7607(2) -0.22339(7)
O7 O 0.5844(2) -0.8247(2) -0.31067(7)
O8 O 0.6680(2) -0.9354(3) -0.12854(8)
O9 O 0.8365(2) -0.7622(3) 0.13210(8)
O10 O 0.8769(2) -0.9420(3) -0.10832(8)
O11 O 0.6284(2) -0.7848(3) 0.11091(8)
C14 C 0.7720(3) -0.9270(4) -0.09831(11)
C15 C 0.7632(3) -0.8973(3) -0.04570(10)
C16 C 0.6477(3) -0.8963(4) -0.03191(11)
C17 C 0.6392(3) -0.8605(4) 0.01566(11)
C18 C 0.7468(3) -0.8308(4) 0.05056(10)
C19 C 0.8623(3) -0.8378(4) 0.03730(11)
C20 C 0.8709(3) -0.8695(4) -0.01092(12)
C21 C 0.7355(3) -0.7904(4) 0.10215(11)
H1 H 0.9243 -0.9437 -0.1615
H2 H 0.6011 -0.7895 -0.3379
H7 H 0.5764 -0.9179 -0.0548
H8 H 0.5614 -0.8581 0.0243
H9 H 0.9345 -0.8236 0.0608
H10 H 0.9484 -0.8710 -0.0196
O12 O 0.5337(2) -0.5580(3) -0.28629(9)
Zn1A Zn 0.37044(3) -0.46692(4) -0.300942(11)
Zn2A Zn 1.12716(3) -1.26219(4) -0.204005(11)
Zn2C Zn 0.87284(3) -0.73781(4) 0.204005(11)
O2A O 1.04534(18) -0.6955(2) -0.27700(8)
O9C O 0.8365(2) -0.7378(3) -0.36790(8)
O12A O 0.4663(2) -1.0580(3) -0.21371(9)
N1 N 0.8225(2) -0.4519(3) -0.19068(9)
N2 N 0.6137(3) -0.3218(3) 0.17196(10)
C1 C 0.7042(3) -0.3977(4) -0.17658(12)
C2 C 0.8884(3) -0.5653(4) -0.15522(12)
C3 C 0.7310(3) -0.3314(4) -0.12548(12)
C4 C 0.9137(3) -0.5022(5) -0.10349(12)
C5 C 0.7960(3) -0.4446(4) -0.08754(11)
C6 C 0.8308(3) -0.3783(5) -0.03566(12)
C7 C 0.7253(3) -0.3470(4) -0.00833(12)
C8 C 0.7822(3) -0.2979(5) 0.04390(12)
C9 C 0.6947(3) -0.2626(4) 0.07883(11)
C10 C 0.6138(3) -0.3978(4) 0.08614(12)
C11 C 0.7722(3) -0.2165(4) 0.12876(12)
C12 C 0.5356(3) -0.3696(4) 0.12420(12)
C13 C 0.6929(4) -0.1856(4) 0.16635(13)
H3 H 0.8764 -0.3808 -0.1909
H4 H 0.7984 -0.5058 -0.2220
H5 H 0.6631 -0.4001 0.1861
H6 H 0.5696 -0.2922 0.1971
H11 H 0.6528 -0.2990 -0.1169
H12 H 0.7832 -0.2412 -0.1252
H13 H 0.7402 -0.5301 -0.0866
H14 H 0.9731 -0.4194 -0.1015
H15 H 0.9512 -0.5808 -0.0808
H16 H 0.9668 -0.5932 -0.1641
H17 H 0.8375 -0.6571 -0.1563
H18 H 0.8895 -0.4454 -0.0159
H19 H 0.8738 -0.2816 -0.0379
H20 H 0.6761 -0.4378 -0.0079
H21 H 0.6716 -0.2669 -0.0248
H22 H 0.8322 -0.2084 0.0419
H23 H 0.8380 -0.3781 0.0586
H24 H 0.6402 -0.1776 0.0654
H25 H 0.5578 -0.4217 0.0554
H26 H 0.6663 -0.4851 0.0962
H27 H 0.4746 -0.2902 0.1125
H28 H 0.4905 -0.4609 0.1290
H29 H 0.7457 -0.1623 0.1975
H30 H 0.6382 -0.0991 0.1561
H31 H 0.8312 -0.2954 0.1407
H32 H 0.8183 -0.1242 0.1247
H33 H 0.6464 -0.4823 -0.1775
H34 H 0.6698 -0.3312 -0.2005
loop_
_geom_bond_atom_site_label_1
_geom_bond_atom_site_label_2
_geom_bond_site_symmetry_1
_geom_bond_site_symmetry_2
Zn1 O3 1_555 1_555
Zn2 O1 1_555 1_555
P1 O1 1_555 1_555
P2 O5 1_555 1_555
O2 P1 1_555 1_555
O3 P1 1_555 1_555
O4 P1 1_555 1_555
O5 Zn2 1_555 1_555
O6 Zn1 1_555 1_555
O7 P2 1_555 1_555
O8 Zn1 1_555 1_555
O9 C21 1_555 1_555
O10 C14 1_555 1_555
O11 C21 1_555 1_555
N1 C1 1_555 1_555
N2 C12 1_555 1_555
C1 C3 1_555 1_555
C2 N1 1_555 1_555
C3 C5 1_555 1_555
C4 C2 1_555 1_555
C5 C4 1_555 1_555
C6 C5 1_555 1_555
C7 C6 1_555 1_555
C8 C7 1_555 1_555
C9 C8 1_555 1_555
C10 C9 1_555 1_555
C11 C9 1_555 1_555
C12 C10 1_555 1_555
C13 N2 1_555 1_555
C14 O8 1_555 1_555
C15 C14 1_555 1_555
C16 C15 1_555 1_555
C17 C16 1_555 1_555
C18 C17 1_555 1_555
C19 C18 1_555 1_555
C20 C15 1_555 1_555
C21 C18 1_555 1_555
H1 O4 1_555 1_555
H2 O7 1_555 1_555
H3 N1 1_555 1_555
H4 N1 1_555 1_555
H5 N2 1_555 1_555
H6 N2 1_555 1_555
H7 C16 1_555 1_555
H8 C17 1_555 1_555
H9 C19 1_555 1_555
H10 C20 1_555 1_555
H11 C3 1_555 1_555
H12 C3 1_555 1_555
H13 C5 1_555 1_555
H14 C4 1_555 1_555
H15 C4 1_555 1_555
H16 C2 1_555 1_555
H17 C2 1_555 1_555
H18 C6 1_555 1_555
H19 C6 1_555 1_555
H20 C7 1_555 1_555
H21 C7 1_555 1_555
H22 C8 1_555 1_555
H23 C8 1_555 1_555
H24 C9 1_555 1_555
H25 C10 1_555 1_555
H26 C10 1_555 1_555
H27 C12 1_555 1_555
H28 C12 1_555 1_555
H29 C13 1_555 1_555
H30 C13 1_555 1_555
H31 C11 1_555 1_555
H32 C11 1_555 1_555
H33 C1 1_555 1_555
H34 C1 1_555 1_555
O12 P2 1_555 1_555
Zn1A O12 1_555 1_555
Zn2A O2 1_555 1_555
Zn2C O9 1_555 1_555
O2A Zn2 1_555 1_555
O9C Zn2 1_555 1_555
O12A Zn1 1_555 1_555
P2 O6 1_555 1_555
C11 C13 1_555 1_555
C19 C20 1_555 1_555

#END
