
#######################################################################
#
#                 Cambridge Crystallographic Data Centre
#                                CCDC 
#
#######################################################################
#
# If this CIF has been generated from an entry in the Cambridge 
# Structural Database, then it will include bibliographic, chemical, 
# crystal, experimental, refinement or atomic coordinate data resulting 
# from the CCDC's data processing and validation procedures.
#
#######################################################################

data_IVAHIW
_symmetry_cell_setting           trigonal
_symmetry_space_group_name_H-M   'P -3'
_symmetry_Int_Tables_number      147
_space_group_name_Hall           '-P 3'
loop_
_symmetry_equiv_pos_site_id
_symmetry_equiv_pos_as_xyz
1 x,y,z
2 -y,x-y,z
3 -x+y,-x,z
4 -x,-y,-z
5 y,-x+y,-z
6 x-y,x,-z
_cell_length_a                   10.636(2)
_cell_length_b                   10.636(2)
_cell_length_c                   17.934(7)
_cell_angle_alpha                90
_cell_angle_beta                 90
_cell_angle_gamma                120
_cell_volume                     1756.97
loop_
_atom_site_label
_atom_site_type_symbol
_atom_site_fract_x
_atom_site_fract_y
_atom_site_fract_z
Cd1 Cd 0.0000 0.0000 0.5000
S1 S 0.2462(4) 0.2481(4) 0.6173(2)
C1 C 0.0889(17) 0.3157(18) 0.7115(8)
H1 H 0.0280 0.2984 0.6709
C2 C 0.060(2) 0.358(3) 0.7799(11)
H2 H -0.0210 0.3686 0.7860
C3 C 0.152(3) 0.382(3) 0.8369(12)
H3 H 0.1343 0.4136 0.8821
C4 C 0.265(3) 0.364(3) 0.8318(11)
H4 H 0.3240 0.3806 0.8731
C5 C 0.295(2) 0.320(3) 0.7658(11)
H5 H 0.3731 0.3039 0.7620
C6 C 0.2077(16) 0.3005(15) 0.7053(8)
C7 C 0.3769(16) 0.4251(16) 0.5874(8)
H6 H 0.3319 0.4850 0.5857
H7 H 0.4549 0.4675 0.6237
C8 C 0.4417(16) 0.4274(15) 0.5099(8)
H8 H 0.4792 0.3609 0.5100
H9 H 0.3656 0.3942 0.4726
O1 O 0.1117(9) 0.2071(9) 0.5692(4)
C8C C 0.5583(16) 0.5726(15) 0.4901(8)
C7C C 0.6231(16) 0.5749(16) 0.4126(8)
S1C S 0.7538(4) 0.7519(4) 0.3827(2)
C6C C 0.7923(16) 0.6995(15) 0.2947(8)
C1C C 0.9111(17) 0.6843(18) 0.2885(8)
H1C H 0.9720 0.7016 0.3291
C2C C 0.940(2) 0.642(3) 0.2201(11)
H2C H 1.0210 0.6314 0.2140
C3C C 0.848(3) 0.618(3) 0.1631(12)
H3C H 0.8657 0.5864 0.1179
C4C C 0.735(3) 0.636(3) 0.1682(11)
H4C H 0.6760 0.6194 0.1269
C5C C 0.705(2) 0.680(3) 0.2342(11)
H5C H 0.6269 0.6961 0.2380
O1C O 0.8883(9) 0.7929(9) 0.4308(4)
H6C H 0.6681 0.5150 0.4143
H7C H 0.5451 0.5325 0.3763
H8C H 0.5208 0.6391 0.4900
H9C H 0.6344 0.6058 0.5274
S1A S -0.2481(4) -0.0019(6) 0.6173(2)
C1A C -0.3157(18) -0.2268(25) 0.7115(8)
H1A H -0.2984 -0.2704 0.6709
C2A C -0.358(3) -0.298(4) 0.7799(11)
H2A H -0.3686 -0.3896 0.7860
C3A C -0.382(3) -0.230(4) 0.8369(12)
H3A H -0.4136 -0.2793 0.8821
C4A C -0.364(3) -0.099(4) 0.8318(11)
H4A H -0.3806 -0.0566 0.8731
C5A C -0.320(3) -0.025(4) 0.7658(11)
H5A H -0.3039 0.0692 0.7620
C6A C -0.3005(15) -0.0928(22) 0.7053(8)
C7A C -0.4251(16) -0.0482(23) 0.5874(8)
H6A H -0.4850 -0.1531 0.5857
H7A H -0.4675 -0.0126 0.6237
C8A C -0.4274(15) 0.0143(22) 0.5099(8)
H8A H -0.3609 0.1183 0.5100
H9A H -0.3942 -0.0286 0.4726
O1A O -0.2071(9) -0.0954(13) 0.5692(4)
C8D C -0.5726(15) -0.0143(22) 0.4901(8)
C7D C -0.5749(16) 0.0482(23) 0.4126(8)
S1D S -0.7519(4) 0.0019(6) 0.3827(2)
C6D C -0.6995(15) 0.0928(22) 0.2947(8)
C1D C -0.6843(18) 0.2268(25) 0.2885(8)
H1D H -0.7016 0.2704 0.3291
C2D C -0.642(3) 0.298(4) 0.2201(11)
H2D H -0.6314 0.3896 0.2140
C3D C -0.618(3) 0.230(4) 0.1631(12)
H3D H -0.5864 0.2793 0.1179
C4D C -0.636(3) 0.099(4) 0.1682(11)
H4D H -0.6194 0.0566 0.1269
C5D C -0.680(3) 0.025(4) 0.2342(11)
H5D H -0.6961 -0.0692 0.2380
O1D O -0.7929(9) 0.0954(13) 0.4308(4)
H6D H -0.5150 0.1531 0.4143
H7D H -0.5325 0.0126 0.3763
H8D H -0.6391 -0.1183 0.4900
H9D H -0.6058 0.0286 0.5274
S1B S 0.0019(6) -0.2462(4) 0.6173(2)
C1B C 0.2268(25) -0.0889(17) 0.7115(8)
H1B H 0.2704 -0.0280 0.6709
C2B C 0.298(4) -0.060(2) 0.7799(11)
H2B H 0.3896 0.0210 0.7860
C3B C 0.230(4) -0.152(3) 0.8369(12)
H3B H 0.2793 -0.1343 0.8821
C4B C 0.099(4) -0.265(3) 0.8318(11)
H4B H 0.0566 -0.3240 0.8731
C5B C 0.025(4) -0.295(2) 0.7658(11)
H5B H -0.0692 -0.3731 0.7620
C6B C 0.0928(22) -0.2077(16) 0.7053(8)
C7B C 0.0482(23) -0.3769(16) 0.5874(8)
H6B H 0.1531 -0.3319 0.5857
H7B H 0.0126 -0.4549 0.6237
C8B C -0.0143(22) -0.4417(16) 0.5099(8)
H8B H -0.1183 -0.4792 0.5100
H9B H 0.0286 -0.3656 0.4726
O1B O 0.0954(13) -0.1117(9) 0.5692(4)
C8E C 0.0143(22) -0.5583(16) 0.4901(8)
C7E C -0.0482(23) -0.6231(16) 0.4126(8)
S1E S -0.0019(6) -0.7538(4) 0.3827(2)
C6E C -0.0928(22) -0.7923(16) 0.2947(8)
C1E C -0.2268(25) -0.9111(17) 0.2885(8)
H1E H -0.2704 -0.9720 0.3291
C2E C -0.298(4) -0.940(2) 0.2201(11)
H2E H -0.3896 -1.0210 0.2140
C3E C -0.230(4) -0.848(3) 0.1631(12)
H3E H -0.2793 -0.8657 0.1179
C4E C -0.099(4) -0.735(3) 0.1682(11)
H4E H -0.0566 -0.6760 0.1269
C5E C -0.025(4) -0.705(2) 0.2342(11)
H5E H 0.0692 -0.6269 0.2380
O1E O -0.0954(13) -0.8883(9) 0.4308(4)
H6E H -0.1531 -0.6681 0.4143
H7E H -0.0126 -0.5451 0.3763
H8E H 0.1183 -0.5208 0.4900
H9E H -0.0286 -0.6344 0.5274
O1C_2 O -0.1117(9) -0.2071(9) 0.4308(4)
O1D_2 O 0.2071(9) 0.0954(13) 0.4308(4)
O1E_2 O -0.0954(13) 0.1117(9) 0.4308(4)
Cd1_2 Cd 1.0000 1.0000 0.5000
Cd1_3 Cd -1.0000 0.0000 0.5000
Cd1_4 Cd 0.0000 -1.0000 0.5000
Cl1 Cl 0.6667 0.3333 0.6832(3)
O2 O 0.7781(18) 0.3099(18) 0.6599(13)
O3 O 0.6667 0.3333 0.7554(15)
O2A O 0.6901(18) 0.4682(25) 0.6599(13)
O2B O 0.5318(25) 0.2219(18) 0.6599(13)
Cl2 Cl 0.8274(15) 0.350(2) 0.9596(7)
C9 C 0.6667 0.3333 0.926(3)
H10 H 0.6667 0.3333 0.8714
Cl2B Cl 0.5226(25) 0.1726(15) 0.9596(7)
Cl2A Cl 0.650(2) 0.4774(25) 0.9596(7)
loop_
_geom_bond_atom_site_label_1
_geom_bond_atom_site_label_2
_geom_bond_site_symmetry_1
_geom_bond_site_symmetry_2
Cd1 O1 1_555 1_555
Cl1 O2 1_555 1_555
Cl2 C9 1_555 1_555
S1 C6 1_555 1_555
C1 H1 1_555 1_555
C2 C1 1_555 1_555
H2 C2 1_555 1_555
C3 C2 1_555 1_555
H3 C3 1_555 1_555
C4 C3 1_555 1_555
H4 C4 1_555 1_555
C5 C4 1_555 1_555
H5 C5 1_555 1_555
C6 C1 1_555 1_555
C7 S1 1_555 1_555
H6 C7 1_555 1_555
H7 C7 1_555 1_555
C8 C7 1_555 1_555
H8 C8 1_555 1_555
H9 C8 1_555 1_555
C9 H10 1_555 1_555
O1 S1 1_555 1_555
O3 Cl1 1_555 1_555
O2A Cl1 1_555 1_555
O2B Cl1 1_555 1_555
Cl2B C9 1_555 1_555
Cl2A C9 1_555 1_555
C8C C8 1_555 1_555
C7C C8C 1_555 1_555
S1C C7C 1_555 1_555
C6C S1C 1_555 1_555
C1C C6C 1_555 1_555
H1C C1C 1_555 1_555
C2C C1C 1_555 1_555
H2C C2C 1_555 1_555
C3C C2C 1_555 1_555
H3C C3C 1_555 1_555
C4C C3C 1_555 1_555
H4C C4C 1_555 1_555
C5C C6C 1_555 1_555
H5C C5C 1_555 1_555
O1C S1C 1_555 1_555
H6C C7C 1_555 1_555
H7C C7C 1_555 1_555
H8C C8C 1_555 1_555
H9C C8C 1_555 1_555
S1A C6A 1_555 1_555
C1A H1A 1_555 1_555
C2A C1A 1_555 1_555
H2A C2A 1_555 1_555
C3A C2A 1_555 1_555
H3A C3A 1_555 1_555
C4A C3A 1_555 1_555
H4A C4A 1_555 1_555
C5A C4A 1_555 1_555
H5A C5A 1_555 1_555
C6A C1A 1_555 1_555
C7A S1A 1_555 1_555
H6A C7A 1_555 1_555
H7A C7A 1_555 1_555
C8A C7A 1_555 1_555
H8A C8A 1_555 1_555
H9A C8A 1_555 1_555
O1A Cd1 1_555 1_555
C8D C8A 1_555 1_555
C7D C8D 1_555 1_555
S1D C7D 1_555 1_555
C6D S1D 1_555 1_555
C1D C6D 1_555 1_555
H1D C1D 1_555 1_555
C2D C1D 1_555 1_555
H2D C2D 1_555 1_555
C3D C2D 1_555 1_555
H3D C3D 1_555 1_555
C4D C3D 1_555 1_555
H4D C4D 1_555 1_555
C5D C6D 1_555 1_555
H5D C5D 1_555 1_555
O1D S1D 1_555 1_555
H6D C7D 1_555 1_555
H7D C7D 1_555 1_555
H8D C8D 1_555 1_555
H9D C8D 1_555 1_555
S1B C6B 1_555 1_555
C1B H1B 1_555 1_555
C2B C1B 1_555 1_555
H2B C2B 1_555 1_555
C3B C2B 1_555 1_555
H3B C3B 1_555 1_555
C4B C3B 1_555 1_555
H4B C4B 1_555 1_555
C5B C4B 1_555 1_555
H5B C5B 1_555 1_555
C6B C1B 1_555 1_555
C7B S1B 1_555 1_555
H6B C7B 1_555 1_555
H7B C7B 1_555 1_555
C8B C7B 1_555 1_555
H8B C8B 1_555 1_555
H9B C8B 1_555 1_555
O1B Cd1 1_555 1_555
C8E C8B 1_555 1_555
C7E C8E 1_555 1_555
S1E C7E 1_555 1_555
C6E S1E 1_555 1_555
C1E C6E 1_555 1_555
H1E C1E 1_555 1_555
C2E C1E 1_555 1_555
H2E C2E 1_555 1_555
C3E C2E 1_555 1_555
H3E C3E 1_555 1_555
C4E C3E 1_555 1_555
H4E C4E 1_555 1_555
C5E C6E 1_555 1_555
H5E C5E 1_555 1_555
O1E S1E 1_555 1_555
H6E C7E 1_555 1_555
H7E C7E 1_555 1_555
H8E C8E 1_555 1_555
H9E C8E 1_555 1_555
O1C_2 Cd1 1_555 1_555
O1D_2 Cd1 1_555 1_555
O1E_2 Cd1 1_555 1_555
Cd1_2 O1C 1_555 1_555
Cd1_3 O1D 1_555 1_555
Cd1_4 O1E 1_555 1_555
C5 C6 1_555 1_555
C4C C5C 1_555 1_555
S1A O1A 1_555 1_555
C5A C6A 1_555 1_555
C4D C5D 1_555 1_555
S1B O1B 1_555 1_555
C5B C6B 1_555 1_555
C4E C5E 1_555 1_555

#END
