
#######################################################################
#
#                 Cambridge Crystallographic Data Centre
#                                CCDC 
#
#######################################################################
#
# If this CIF has been generated from an entry in the Cambridge 
# Structural Database, then it will include bibliographic, chemical, 
# crystal, experimental, refinement or atomic coordinate data resulting 
# from the CCDC's data processing and validation procedures.
#
#######################################################################

data_IVAPUR
_symmetry_cell_setting           triclinic
_symmetry_space_group_name_H-M   'P -1'
_symmetry_Int_Tables_number      2
_space_group_name_Hall           '-P 1'
loop_
_symmetry_equiv_pos_site_id
_symmetry_equiv_pos_as_xyz
1 x,y,z
2 -x,-y,-z
_cell_length_a                   9.4532(16)
_cell_length_b                   11.4897(19)
_cell_length_c                   13.012(2)
_cell_angle_alpha                90.013(4)
_cell_angle_beta                 92.552(5)
_cell_angle_gamma                98.336(5)
_cell_volume                     1396.94
loop_
_atom_site_label
_atom_site_type_symbol
_atom_site_fract_x
_atom_site_fract_y
_atom_site_fract_z
Cu1 Cu 0.38130(4) 0.15618(3) 0.84964(3)
Cu2 Cu 0.44073(5) 0.65640(3) 0.74826(3)
Cu3 Cu 0.47979(4) -0.11273(3) 0.58560(3)
Cl1 Cl 0.48284(9) 0.01144(7) 0.76841(6)
Cl2 Cl 0.63623(9) 0.77603(7) 0.65553(7)
Cl3 Cl 0.28863(8) 0.74888(7) 0.62015(6)
Cl4 Cl 0.33585(9) -0.00759(8) 0.48808(7)
S1 S 0.33720(12) 0.42562(8) 0.87230(8)
S2 S 0.10239(10) 0.24494(9) 0.93130(9)
S3 S 0.35714(11) 0.28806(10) 1.06125(7)
N1 N 0.4637(3) 0.2928(2) 0.7465(2)
N2 N 0.4824(3) 0.4980(2) 0.7127(2)
N3 N 0.1780(3) 0.0876(2) 0.8008(2)
N4 N -0.0691(3) 0.0824(3) 0.8327(3)
N5 N 0.5394(2) 0.1730(2) 0.9660(2)
N6 N 0.6132(3) 0.2595(2) 1.1299(2)
C1 C 0.2939(3) 0.2812(2) 0.9288(2)
C2 C 0.4370(3) 0.4008(2) 0.7667(2)
C3 C 0.5445(5) 0.2802(3) 0.6665(3)
C4 C 0.5971(6) 0.3748(3) 0.6069(3)
C5 C 0.5634(4) 0.4829(3) 0.6330(3)
C6 C 0.0690(3) 0.1261(3) 0.8460(2)
C7 C 0.1423(4) 0.0006(3) 0.7310(3)
C8 C 0.0012(4) -0.0481(3) 0.7096(3)
C9 C -0.1009(4) -0.0057(4) 0.7649(3)
C10 C 0.5191(3) 0.2353(2) 1.0499(2)
C11 C 0.6659(3) 0.1322(3) 0.9631(2)
C12 C 0.7679(3) 0.1528(3) 1.0424(2)
C13 C 0.7369(3) 0.2163(3) 1.1255(2)
H1 H 0.565(5) 0.199(4) 0.654(3)
H2 H 0.647(5) 0.362(4) 0.554(4)
H3 H 0.595(4) 0.548(4) 0.594(3)
H4 H 0.214(4) -0.022(3) 0.701(3)
H5 H -0.022(4) -0.110(3) 0.655(3)
H6 H -0.194(4) -0.035(3) 0.761(3)
H7 H 0.685(4) 0.095(3) 0.904(3)
H8 H 0.854(4) 0.120(3) 1.043(3)
H9 H 0.798(4) 0.229(3) 1.182(3)
Cu2A Cu 0.55927(5) 0.34360(3) 1.25174(3)
Cu3_2 Cu 0.47979(4) 0.88727(3) 0.58560(3)
Cu3A Cu 0.52021(4) 0.11273(3) 0.41440(3)
Cl2_2 Cl 0.63623(9) -0.22397(7) 0.65553(7)
Cl3_2 Cl 0.28863(8) -0.25112(7) 0.62015(6)
Cl4A Cl 0.66415(9) 0.00759(8) 0.51192(7)
N6A N 0.3868(3) 0.7405(2) 0.8701(2)
Cl5 Cl -0.1946(2) 0.44199(16) 0.90653(17)
Cl6 Cl -0.08945(17) 0.62095(14) 0.76232(13)
C14 C -0.0587(7) 0.4914(6) 0.8228(6)
Cl7 Cl -0.0321(2) 0.24182(19) 1.61674(19)
Cl8 Cl 0.16608(18) 0.44603(15) 1.56791(13)
C15 C 0.0693(7) 0.3135(5) 1.5190(5)
loop_
_geom_bond_atom_site_label_1
_geom_bond_atom_site_label_2
_geom_bond_site_symmetry_1
_geom_bond_site_symmetry_2
Cu1 Cl1 1_555 1_555
Cu2 Cl2 1_555 1_555
Cu3 Cl1 1_555 1_555
Cl2 Cu3_2 1_555 1_555
Cl3 Cu2 1_555 1_555
Cl4 Cu3 1_555 1_555
Cl5 C14 1_555 1_555
Cl6 C14 1_555 1_555
Cl7 C15 1_555 1_555
Cl8 C15 1_555 1_555
S1 C1 1_555 1_555
S2 C1 1_555 1_555
S3 C1 1_555 1_555
N1 Cu1 1_555 1_555
N2 Cu2 1_555 1_555
N3 Cu1 1_555 1_555
N4 C6 1_555 1_555
N5 Cu1 1_555 1_555
N6 C10 1_555 1_555
C1 Cu1 1_555 1_555
C2 S1 1_555 1_555
C3 N1 1_555 1_555
C4 C3 1_555 1_555
C5 N2 1_555 1_555
C6 S2 1_555 1_555
C7 N3 1_555 1_555
C8 C7 1_555 1_555
C9 N4 1_555 1_555
C10 S3 1_555 1_555
C11 N5 1_555 1_555
C12 C11 1_555 1_555
C13 N6 1_555 1_555
H1 C3 1_555 1_555
H2 C4 1_555 1_555
H3 C5 1_555 1_555
H4 C7 1_555 1_555
H5 C8 1_555 1_555
H6 C9 1_555 1_555
H7 C11 1_555 1_555
H8 C12 1_555 1_555
H9 C13 1_555 1_555
Cu2A N6 1_555 1_555
Cu3_2 Cl3 1_555 1_555
Cu3A Cl4 1_555 1_555
Cl2_2 Cu3 1_555 1_555
Cl3_2 Cu3 1_555 1_555
Cl4A Cu3 1_555 1_555
N6A Cu2 1_555 1_555
N1 C2 1_555 1_555
N2 C2 1_555 1_555
N3 C6 1_555 1_555
N5 C10 1_555 1_555
C4 C5 1_555 1_555
C8 C9 1_555 1_555
C12 C13 1_555 1_555
Cu3A Cl4A 1_555 1_555

#END
