
#######################################################################
#
#                 Cambridge Crystallographic Data Centre
#                                CCDC 
#
#######################################################################
#
# If this CIF has been generated from an entry in the Cambridge 
# Structural Database, then it will include bibliographic, chemical, 
# crystal, experimental, refinement or atomic coordinate data resulting 
# from the CCDC's data processing and validation procedures.
#
#######################################################################

data_IVAQAY
_symmetry_cell_setting           triclinic
_symmetry_space_group_name_H-M   'P -1'
_symmetry_Int_Tables_number      2
_space_group_name_Hall           '-P 1'
loop_
_symmetry_equiv_pos_site_id
_symmetry_equiv_pos_as_xyz
1 x,y,z
2 -x,-y,-z
_cell_length_a                   11.507(2)
_cell_length_b                   11.8065(19)
_cell_length_c                   17.381(3)
_cell_angle_alpha                87.052(8)
_cell_angle_beta                 89.384(8)
_cell_angle_gamma                79.463(6)
_cell_volume                     2318.44
loop_
_atom_site_label
_atom_site_type_symbol
_atom_site_fract_x
_atom_site_fract_y
_atom_site_fract_z
Cu1 Cu 0.88204(5) 0.37717(5) 0.29196(3)
Cu3 Cu 0.60314(5) 0.08352(5) 0.46785(3)
Cu4 Cu 0.71822(6) 0.74770(6) 0.49680(4)
Cl1 Cl 0.90101(12) 0.39648(12) 0.16072(7)
Cl3 Cl 0.76878(12) -0.05374(11) 0.47474(9)
Cl4 Cl 0.54719(13) 0.02675(13) 0.58875(7)
Cl5 Cl 0.48767(12) 0.26079(12) 0.47966(9)
S1 S 0.77854(12) 0.48735(11) 0.44791(7)
S2 S 0.80525(12) 0.23670(11) 0.43881(7)
S3 S 1.01299(11) 0.34484(12) 0.45417(7)
N1 N 0.8203(3) 0.5523(3) 0.3026(2)
N2 N 0.7632(3) 0.2631(3) 0.2876(2)
N3 N 1.0613(3) 0.3022(3) 0.3066(2)
N4 N 0.7507(3) 0.6995(3) 0.3894(2)
N5 N 0.6561(3) 0.1409(3) 0.3611(2)
N6 N 1.2213(3) 0.2731(3) 0.3951(2)
C1 C 0.8697(4) 0.3611(4) 0.4098(2)
C2 C 0.7864(4) 0.5897(4) 0.3720(2)
C3 C 0.7350(4) 0.2122(4) 0.3543(2)
C4 C 1.1063(4) 0.3017(3) 0.3768(2)
C5 C 0.7459(5) 0.7784(5) 0.3303(3)
C6 C 0.7758(6) 0.7484(5) 0.2566(3)
C7 C 0.8157(5) 0.6341(4) 0.2448(3)
C8 C 0.6109(4) 0.1133(4) 0.2952(3)
C9 C 0.6381(5) 0.1581(4) 0.2241(3)
C10 C 0.7152(4) 0.2355(4) 0.2232(2)
C11 C 1.2958(5) 0.2424(5) 0.3361(3)
C12 C 1.2564(5) 0.2379(5) 0.2623(3)
C13 C 1.1367(5) 0.2688(5) 0.2494(3)
H1 H 0.7209 0.8576 0.3400
H2 H 0.7691 0.8049 0.2152
H3 H 0.8408 0.6117 0.1947
H4 H 0.5578 0.0604 0.2978
H5 H 0.6057 0.1371 0.1780
H6 H 0.7345 0.2700 0.1753
H7 H 1.3782 0.2233 0.3461
H8 H 1.3097 0.2144 0.2216
H9 H 1.1069 0.2665 0.1989
Cu1A Cu 1.11796(5) 0.62283(5) 0.70804(3)
Cu3_2 Cu 0.60314(5) 1.08352(5) 0.46785(3)
Cu3A Cu 0.39686(5) -0.08352(5) 0.53215(3)
Cu3A_2 Cu 0.39686(5) 0.91648(5) 0.53215(3)
Cu3A_3 Cu 1.39686(5) 0.91648(5) 0.53215(3)
Cu4A Cu 1.28178(6) 0.25230(6) 0.50320(4)
Cu4_2 Cu 0.71822(6) -0.25230(6) 0.49680(4)
Cu4A_2 Cu 0.28178(6) 0.25230(6) 0.50320(4)
Cl1A Cl 1.09899(12) 0.60352(12) 0.83928(7)
Cl3_2 Cl 0.76878(12) 0.94626(11) 0.47474(9)
Cl3A Cl 1.23122(12) 0.05374(11) 0.52526(9)
Cl4A Cl 0.45281(13) -0.02675(13) 0.41125(7)
Cl4_2 Cl 0.54719(13) 1.02675(13) 0.58875(7)
Cl4A_2 Cl 0.45281(13) 0.97325(13) 0.41125(7)
Cl5A Cl 0.51233(12) 0.73921(12) 0.52034(9)
Cl5_2 Cl 1.48767(12) 0.26079(12) 0.47966(9)
Cl5_3 Cl 0.48767(12) 1.26079(12) 0.47966(9)
S1A S 1.22146(12) 0.51265(11) 0.55209(7)
S2A S 1.19475(12) 0.76330(11) 0.56119(7)
S3A S 0.98701(11) 0.65516(12) 0.54583(7)
N1A N 1.1797(3) 0.4477(3) 0.6974(2)
N2A N 1.2368(3) 0.7369(3) 0.7124(2)
N3A N 0.9387(3) 0.6978(3) 0.6934(2)
N4A N 1.2493(3) 0.3005(3) 0.6106(2)
N5A N 1.3439(3) 0.8591(3) 0.6389(2)
N5_2 N 0.6561(3) 1.1409(3) 0.3611(2)
N6A N 0.7787(3) 0.7269(3) 0.6049(2)
C1A C 1.1303(4) 0.6389(4) 0.5902(2)
C2A C 1.2136(4) 0.4103(4) 0.6280(2)
C3A C 1.2650(4) 0.7878(4) 0.6457(2)
C4A C 0.8937(4) 0.6983(3) 0.6232(2)
C5A C 1.2541(5) 0.2216(5) 0.6697(3)
C6A C 1.2242(6) 0.2516(5) 0.7434(3)
C7A C 1.1843(5) 0.3659(4) 0.7552(3)
C8A C 1.3891(4) 0.8867(4) 0.7048(3)
C9A C 1.3619(5) 0.8419(4) 0.7759(3)
C10A C 1.2848(4) 0.7645(4) 0.7768(2)
C11A C 0.7042(5) 0.7576(5) 0.6639(3)
C12A C 0.7436(5) 0.7621(5) 0.7377(3)
C13A C 0.8633(5) 0.7312(5) 0.7506(3)
H1A H 1.2791 0.1424 0.6600
H2A H 1.2309 0.1951 0.7848
H3A H 1.1592 0.3883 0.8053
H4A H 1.4422 0.9396 0.7022
H5A H 1.3943 0.8629 0.8220
H6A H 1.2655 0.7300 0.8247
H7A H 0.6218 0.7767 0.6539
H8A H 0.6903 0.7856 0.7784
H9A H 0.8931 0.7335 0.8011
Cu2 Cu 0.74531(5) 0.30719(5) -0.05646(4)
Cu5 Cu 0.74695(6) 0.78523(5) 0.00069(4)
Cu6 Cu 0.5000 1.0000 0.0000
Cl2 Cl 0.61213(12) 0.20302(12) -0.00400(10)
Cl6 Cl 0.64031(11) 0.92138(10) 0.09085(7)
Cl7 Cl 0.38529(11) 1.09687(11) 0.09439(7)
S4 S 0.82615(14) 0.55021(12) -0.07760(10)
S5 S 1.01250(12) 0.34287(13) -0.07071(10)
S6 S 0.86283(16) 0.40488(16) -0.20712(9)
N7 N 0.6822(3) 0.4445(3) 0.0107(2)
N8 N 0.8885(3) 0.2018(3) 0.0054(2)
N9 N 0.7282(4) 0.2509(4) -0.1637(3)
N10 N 0.6908(3) 0.6399(3) 0.0327(2)
N11 N 1.0968(3) 0.1736(3) 0.0266(2)
N12 N 0.7696(5) 0.2788(5) -0.2980(3)
C14 C 0.8635(4) 0.4024(4) -0.1038(2)
C15 C 0.7239(4) 0.5420(4) -0.0045(3)
C16 C 0.9950(4) 0.2288(4) -0.0065(2)
C17 C 0.7783(5) 0.2993(5) -0.2235(3)
C18 C 0.6135(4) 0.6380(4) 0.0898(3)
C19 C 0.5683(5) 0.5394(4) 0.1107(3)
C20 C 0.6043(4) 0.4453(4) 0.0691(3)
C21 C 1.0876(4) 0.0869(4) 0.0770(3)
C22 C 0.9810(4) 0.0536(4) 0.0947(3)
C23 C 0.8832(4) 0.1138(4) 0.0566(3)
C24 C 0.7045(8) 0.1984(7) -0.3119(4)
C25 C 0.6542(10) 0.1396(7) -0.2545(5)
C26 C 0.6680(7) 0.1684(6) -0.1808(4)
H10 H 0.5884 0.7058 0.1172
H11 H 0.5144 0.5381 0.1523
H12 H 0.5734 0.3774 0.0816
H13 H 1.1572 0.0463 0.1019
H14 H 0.9756 -0.0077 0.1314
H15 H 0.8088 0.0922 0.0668
H16 H 0.6930 0.1816 -0.3638
H17 H 0.6113 0.0809 -0.2657
H18 H 0.6338 0.1288 -0.1401
Cu2A Cu 1.25469(5) 0.69281(5) 0.05646(4)
Cu5A Cu 0.25305(6) 1.21477(5) -0.00069(4)
Cu5A_2 Cu 1.25305(6) 0.21477(5) -0.00069(4)
Cl2A Cl 1.38787(12) 0.79698(12) 0.00400(10)
Cl6A Cl 0.35969(11) 1.07862(10) -0.09085(7)
Cl7A Cl 0.61471(11) 0.90313(11) -0.09439(7)
S4A S 1.17385(14) 0.44979(12) 0.07760(10)
S5A S 0.98750(12) 0.65713(13) 0.07071(10)
S6A S 1.13717(16) 0.59512(16) 0.20712(9)
N7A N 1.3178(3) 0.5555(3) -0.0107(2)
N8A N 1.1115(3) 0.7982(3) -0.0054(2)
N9A N 1.2718(4) 0.7491(4) 0.1637(3)
N10A N 1.3092(3) 0.3601(3) -0.0327(2)
N10A_2 N 0.3092(3) 1.3601(3) -0.0327(2)
N11A N 0.9032(3) 0.8264(3) -0.0266(2)
N11_2 N 0.0968(3) 1.1736(3) 0.0266(2)
N12A N 1.2304(5) 0.7212(5) 0.2980(3)
C14A C 1.1365(4) 0.5976(4) 0.1038(2)
C15A C 1.2761(4) 0.4580(4) 0.0045(3)
C16A C 1.0050(4) 0.7712(4) 0.0065(2)
C17A C 1.2217(5) 0.7007(5) 0.2235(3)
C18A C 1.3865(4) 0.3620(4) -0.0898(3)
C19A C 1.4317(5) 0.4606(4) -0.1107(3)
C20A C 1.3957(4) 0.5547(4) -0.0691(3)
C21A C 0.9124(4) 0.9131(4) -0.0770(3)
C22A C 1.0190(4) 0.9464(4) -0.0947(3)
C23A C 1.1168(4) 0.8862(4) -0.0566(3)
C24A C 1.2955(8) 0.8016(7) 0.3119(4)
C25A C 1.3458(10) 0.8604(7) 0.2545(5)
C26A C 1.3320(7) 0.8316(6) 0.1808(4)
H10A H 1.4116 0.2942 -0.1172
H11A H 1.4856 0.4619 -0.1523
H12A H 1.4266 0.6226 -0.0816
H13A H 0.8428 0.9537 -0.1019
H14A H 1.0244 1.0077 -0.1314
H15A H 1.1912 0.9078 -0.0668
H16A H 1.3070 0.8184 0.3638
H17A H 1.3887 0.9191 0.2657
H18A H 1.3662 0.8712 0.1401
N13 N 0.9196(9) -0.0200(9) 0.2717(5)
C27 C 1.0458(8) -0.0314(13) 0.3901(5)
C28 C 0.9791(8) -0.0256(8) 0.3237(5)
H19 H 1.0781 0.0395 0.3930
H20 H 1.1108 -0.0978 0.3891
H21 H 0.9958 -0.0402 0.4352
N14 N 0.4779(13) 0.4241(11) 0.2684(7)
C29 C 0.4417(11) 0.5364(8) 0.3930(5)
C30 C 0.4683(10) 0.4801(12) 0.3256(7)
H22 H 0.3961 0.6137 0.3809
H23 H 0.5151 0.5427 0.4191
H24 H 0.3950 0.4927 0.4266
loop_
_geom_bond_atom_site_label_1
_geom_bond_atom_site_label_2
_geom_bond_site_symmetry_1
_geom_bond_site_symmetry_2
Cu1 Cl1 1_555 1_555
Cu2 Cl2 1_555 1_555
Cu3 Cl3 1_555 1_555
Cu4 N4 1_555 1_555
Cu5 Cl6 1_555 1_555
Cu6 Cl6 1_555 1_555
Cl3 Cu4_2 1_555 1_555
Cl4 Cu3 1_555 1_555
Cl5 Cu3 1_555 1_555
Cl7 Cu6 1_555 1_555
S1 C1 1_555 1_555
S2 C1 1_555 1_555
S3 C1 1_555 1_555
S4 C14 1_555 1_555
S5 C14 1_555 1_555
S6 C14 1_555 1_555
N1 Cu1 1_555 1_555
N2 Cu1 1_555 1_555
N3 Cu1 1_555 1_555
N4 C2 1_555 1_555
N5 Cu3 1_555 1_555
N6 C4 1_555 1_555
N7 Cu2 1_555 1_555
N8 Cu2 1_555 1_555
N9 Cu2 1_555 1_555
N10 Cu5 1_555 1_555
N11 C16 1_555 1_555
N12 C17 1_555 1_555
N13 C28 1_555 1_555
N14 C30 1_555 1_555
C1 Cu1 1_555 1_555
C2 S1 1_555 1_555
C3 S2 1_555 1_555
C4 S3 1_555 1_555
C5 N4 1_555 1_555
C6 C5 1_555 1_555
C7 N1 1_555 1_555
C8 N5 1_555 1_555
C9 C8 1_555 1_555
C10 N2 1_555 1_555
C11 N6 1_555 1_555
C12 C11 1_555 1_555
C13 N3 1_555 1_555
C14 Cu2 1_555 1_555
C15 S4 1_555 1_555
C16 S5 1_555 1_555
C17 S6 1_555 1_555
C18 N10 1_555 1_555
C19 C18 1_555 1_555
C20 N7 1_555 1_555
C21 N11 1_555 1_555
C22 C21 1_555 1_555
C23 N8 1_555 1_555
C24 N12 1_555 1_555
C25 C24 1_555 1_555
C26 N9 1_555 1_555
C27 C28 1_555 1_555
C29 C30 1_555 1_555
H1 C5 1_555 1_555
H2 C6 1_555 1_555
H3 C7 1_555 1_555
H4 C8 1_555 1_555
H5 C9 1_555 1_555
H6 C10 1_555 1_555
H7 C11 1_555 1_555
H8 C12 1_555 1_555
H9 C13 1_555 1_555
H10 C18 1_555 1_555
H11 C19 1_555 1_555
H12 C20 1_555 1_555
H13 C21 1_555 1_555
H14 C22 1_555 1_555
H15 C23 1_555 1_555
H16 C24 1_555 1_555
H17 C25 1_555 1_555
H18 C26 1_555 1_555
H19 C27 1_555 1_555
H20 C27 1_555 1_555
H21 C27 1_555 1_555
H22 C29 1_555 1_555
H23 C29 1_555 1_555
H24 C29 1_555 1_555
Cu1A Cl1A 1_555 1_555
Cu2A Cl2A 1_555 1_555
Cu3_2 Cl3_2 1_555 1_555
Cu3A Cl4 1_555 1_555
Cu3A_2 Cl4_2 1_555 1_555
Cu3A_3 N5A 1_555 1_555
Cu4A N6 1_555 1_555
Cu4A_2 Cl5 1_555 1_555
Cu5A Cl7 1_555 1_555
Cu5A_2 N11 1_555 1_555
Cl3_2 Cu4 1_555 1_555
Cl3A Cu4A 1_555 1_555
Cl4A Cu3 1_555 1_555
Cl4_2 Cu3_2 1_555 1_555
Cl4A_2 Cu3_2 1_555 1_555
Cl5A Cu4 1_555 1_555
Cl5_2 Cu4A 1_555 1_555
Cl5_3 Cu3_2 1_555 1_555
Cl6A Cu6 1_555 1_555
Cl7A Cu5 1_555 1_555
S1A C1A 1_555 1_555
S2A C1A 1_555 1_555
S3A C1A 1_555 1_555
S4A C14A 1_555 1_555
S5A C14A 1_555 1_555
S6A C14A 1_555 1_555
N1A Cu1A 1_555 1_555
N2A Cu1A 1_555 1_555
N3A Cu1A 1_555 1_555
N4A Cu4A 1_555 1_555
N5A C3A 1_555 1_555
N5_2 Cu3_2 1_555 1_555
N6A Cu4 1_555 1_555
N7A Cu2A 1_555 1_555
N8A Cu2A 1_555 1_555
N9A Cu2A 1_555 1_555
N10A Cu5A_2 1_555 1_555
N10A_2 Cu5A 1_555 1_555
N11A Cu5 1_555 1_555
N11_2 Cu5A 1_555 1_555
N12A C17A 1_555 1_555
C1A Cu1A 1_555 1_555
C2A S1A 1_555 1_555
C3A S2A 1_555 1_555
C4A S3A 1_555 1_555
C5A N4A 1_555 1_555
C6A C5A 1_555 1_555
C7A N1A 1_555 1_555
C8A N5A 1_555 1_555
C9A C8A 1_555 1_555
C10A N2A 1_555 1_555
C11A N6A 1_555 1_555
C12A C11A 1_555 1_555
C13A N3A 1_555 1_555
C14A Cu2A 1_555 1_555
C15A S4A 1_555 1_555
C16A S5A 1_555 1_555
C17A S6A 1_555 1_555
C18A N10A 1_555 1_555
C19A C18A 1_555 1_555
C20A N7A 1_555 1_555
C21A N11A 1_555 1_555
C22A C21A 1_555 1_555
C23A N8A 1_555 1_555
C24A N12A 1_555 1_555
C25A C24A 1_555 1_555
C26A N9A 1_555 1_555
H1A C5A 1_555 1_555
H2A C6A 1_555 1_555
H3A C7A 1_555 1_555
H4A C8A 1_555 1_555
H5A C9A 1_555 1_555
H6A C10A 1_555 1_555
H7A C11A 1_555 1_555
H8A C12A 1_555 1_555
H9A C13A 1_555 1_555
H10A C18A 1_555 1_555
H11A C19A 1_555 1_555
H12A C20A 1_555 1_555
H13A C21A 1_555 1_555
H14A C22A 1_555 1_555
H15A C23A 1_555 1_555
H16A C24A 1_555 1_555
H17A C25A 1_555 1_555
H18A C26A 1_555 1_555
Cu6 Cl7A 1_555 1_555
N1 C2 1_555 1_555
N2 C3 1_555 1_555
N3 C4 1_555 1_555
N5 C3 1_555 1_555
N7 C15 1_555 1_555
N8 C16 1_555 1_555
N9 C17 1_555 1_555
N10 C15 1_555 1_555
C6 C7 1_555 1_555
C9 C10 1_555 1_555
C12 C13 1_555 1_555
C19 C20 1_555 1_555
C22 C23 1_555 1_555
C25 C26 1_555 1_555
Cu3A Cl4A 1_555 1_555
Cu3A_2 Cl4A_2 1_555 1_555
Cu3A_2 Cl5A 1_555 1_555
Cu5A Cl6A 1_555 1_555
N1A C2A 1_555 1_555
N2A C3A 1_555 1_555
N3A C4A 1_555 1_555
N4A C2A 1_555 1_555
N6A C4A 1_555 1_555
N7A C15A 1_555 1_555
N8A C16A 1_555 1_555
N9A C17A 1_555 1_555
N10A C15A 1_555 1_555
N11A C16A 1_555 1_555
C6A C7A 1_555 1_555
C9A C10A 1_555 1_555
C12A C13A 1_555 1_555
C19A C20A 1_555 1_555
C22A C23A 1_555 1_555
C25A C26A 1_555 1_555

#END
