
#######################################################################
#
#                 Cambridge Crystallographic Data Centre
#                                CCDC 
#
#######################################################################
#
# If this CIF has been generated from an entry in the Cambridge 
# Structural Database, then it will include bibliographic, chemical, 
# crystal, experimental, refinement or atomic coordinate data resulting 
# from the CCDC's data processing and validation procedures.
#
#######################################################################

data_IVARAZ
_symmetry_cell_setting           triclinic
_symmetry_space_group_name_H-M   'P -1'
_symmetry_Int_Tables_number      2
_space_group_name_Hall           '-P 1'
loop_
_symmetry_equiv_pos_site_id
_symmetry_equiv_pos_as_xyz
1 x,y,z
2 -x,-y,-z
_cell_length_a                   10.0643(5)
_cell_length_b                   10.3072(6)
_cell_length_c                   10.9995(6)
_cell_angle_alpha                67.388(5)
_cell_angle_beta                 80.325(4)
_cell_angle_gamma                69.143(5)
_cell_volume                     983.654
loop_
_atom_site_label
_atom_site_type_symbol
_atom_site_fract_x
_atom_site_fract_y
_atom_site_fract_z
Cd1 Cd 0.086613(18) 0.531598(18) -0.293740(16)
C1 C -0.0603(3) 0.1574(3) -0.1742(2)
C2 C 0.0016(3) 0.0450(3) -0.2261(2)
H1 H 0.0736 0.0525 -0.2911
C3 C -0.0437(3) -0.0789(3) -0.1811(2)
C4 C -0.1520(3) -0.0886(3) -0.0844(2)
H2 H -0.1815 -0.1720 -0.0527
C5 C -0.2164(3) 0.0250(3) -0.0349(2)
C6 C -0.1703(3) 0.1486(3) -0.0792(2)
H3 H -0.2129 0.2246 -0.0456
C7 C -0.0077(3) 0.2893(3) -0.2176(2)
C8 C 0.0201(3) -0.2031(3) -0.2352(3)
C9 C 0.3839(3) 0.3101(3) -0.1181(2)
H4 H 0.4268 0.2705 -0.1834
C10 C 0.2354(3) 0.4428(3) -0.0185(2)
H5 H 0.1562 0.5123 0.0032
C11 C 0.3621(3) 0.3319(3) 0.1954(2)
H6 H 0.3712 0.2303 0.2519
H7 H 0.2790 0.3967 0.2262
C12 C 0.4942(3) 0.3671(3) 0.2045(3)
H8 H 0.5756 0.3081 0.1665
H9 H 0.4814 0.4708 0.1533
C13 C 0.5240(3) 0.3356(3) 0.3459(3)
H10 H 0.5304 0.2336 0.3984
H11 H 0.6152 0.3471 0.3476
C14 C 0.2869(3) 0.6314(3) 0.4329(3)
H12 H 0.2448 0.7315 0.4214
C15 C 0.3343(3) 0.3998(3) 0.5134(2)
H13 H 0.3360 0.3040 0.5665
N1 N 0.2576(2) 0.4206(2) -0.1324(2)
N2 N 0.4404(2) 0.2640(2) -0.0026(2)
N3 N 0.3427(2) 0.3515(2) 0.0599(2)
N4 N 0.4142(2) 0.4340(2) 0.4050(2)
N5 N 0.3860(2) 0.5842(3) 0.3510(2)
N6 N 0.2510(2) 0.5224(2) 0.5354(2)
O1 O -0.06314(19) 0.38679(19) -0.16689(18)
O2 O 0.0925(2) 0.2970(2) -0.30400(18)
O3 O 0.1170(2) -0.1974(2) -0.32377(19)
O4 O -0.0292(2) -0.31018(19) -0.18650(18)
O5 O -0.3231(2) 0.0098(2) 0.06031(18)
H14 H -0.3885 0.0914 0.0520
O6 O -0.0897(2) 0.6841(2) -0.44318(18)
H15 H -0.1188 0.7729 -0.4450
H16 H -0.0870 0.6842 -0.5215
Cd1_2 Cd 0.086613(18) 0.531598(18) 0.706260(16)
Cd1_3 Cd 0.086613(18) -0.468402(18) -0.293740(16)
N6_2 N 0.2510(2) 0.5224(2) -0.4646(2)
O3_2 O 0.1170(2) 0.8026(2) -0.32377(19)
O4_2 O -0.0292(2) 0.68982(19) -0.18650(18)
O7 O 0.6137(2) 0.0759(3) 0.6932(2)
H17 H 0.6466 0.0365 0.7712
H18 H 0.5435 0.0466 0.6932
O8 O 0.3734(2) 0.0317(2) 0.6686(2)
H19 H 0.4508 0.0524 0.6535
H20 H 0.3206 0.0503 0.7322
O9 O 0.2161(2) 1.0154(2) 0.4974(2)
H21 H 0.2683 0.9868 0.4382
H22 H 0.1803 0.9511 0.5521
loop_
_geom_bond_atom_site_label_1
_geom_bond_atom_site_label_2
_geom_bond_site_symmetry_1
_geom_bond_site_symmetry_2
Cd1 N1 1_555 1_555
C1 C2 1_555 1_555
C2 H1 1_555 1_555
C3 C2 1_555 1_555
C4 C3 1_555 1_555
H2 C4 1_555 1_555
C5 C4 1_555 1_555
C6 C1 1_555 1_555
H3 C6 1_555 1_555
C7 C1 1_555 1_555
C8 C3 1_555 1_555
C9 H4 1_555 1_555
C10 H5 1_555 1_555
C11 H6 1_555 1_555
H7 C11 1_555 1_555
C12 C11 1_555 1_555
H8 C12 1_555 1_555
H9 C12 1_555 1_555
C13 C12 1_555 1_555
H10 C13 1_555 1_555
H11 C13 1_555 1_555
C14 H12 1_555 1_555
C15 H13 1_555 1_555
N1 C9 1_555 1_555
N2 C9 1_555 1_555
N3 C10 1_555 1_555
N4 C13 1_555 1_555
N5 C14 1_555 1_555
N6 C14 1_555 1_555
O1 Cd1 1_555 1_555
O2 Cd1 1_555 1_555
O3 C8 1_555 1_555
O4 C8 1_555 1_555
O5 C5 1_555 1_555
H14 O5 1_555 1_555
O6 Cd1 1_555 1_555
H15 O6 1_555 1_555
H16 O6 1_555 1_555
O7 H17 1_555 1_555
H18 O7 1_555 1_555
O8 H19 1_555 1_555
H20 O8 1_555 1_555
O9 H21 1_555 1_555
H22 O9 1_555 1_555
Cd1_2 N6 1_555 1_555
Cd1_3 O3 1_555 1_555
N6_2 Cd1 1_555 1_555
O3_2 Cd1 1_555 1_555
O4_2 Cd1 1_555 1_555
C5 C6 1_555 1_555
C7 O1 1_555 1_555
C7 O2 1_555 1_555
C10 N1 1_555 1_555
C11 N3 1_555 1_555
C15 N4 1_555 1_555
C15 N6 1_555 1_555
N2 N3 1_555 1_555
N4 N5 1_555 1_555
O4 Cd1_3 1_555 1_555

#END
