
#######################################################################
#
#                 Cambridge Crystallographic Data Centre
#                                CCDC 
#
#######################################################################
#
# If this CIF has been generated from an entry in the Cambridge 
# Structural Database, then it will include bibliographic, chemical, 
# crystal, experimental, refinement or atomic coordinate data resulting 
# from the CCDC's data processing and validation procedures.
#
#######################################################################

data_IVARAZ01
_symmetry_cell_setting           triclinic
_symmetry_space_group_name_H-M   'P -1'
_symmetry_Int_Tables_number      2
_space_group_name_Hall           '-P 1'
loop_
_symmetry_equiv_pos_site_id
_symmetry_equiv_pos_as_xyz
1 x,y,z
2 -x,-y,-z
_cell_length_a                   10.2663(11)
_cell_length_b                   10.3459(11)
_cell_length_c                   11.0363(12)
_cell_angle_alpha                67.9840(10)
_cell_angle_beta                 80.1980(10)
_cell_angle_gamma                69.4640(10)
_cell_volume                     1016.66
loop_
_atom_site_label
_atom_site_type_symbol
_atom_site_fract_x
_atom_site_fract_y
_atom_site_fract_z
C1 C 0.4765(5) 0.7012(4) 0.2364(5)
C2 C 0.5409(4) 0.5751(4) 0.1830(4)
C3 C 0.6496(5) 0.5837(4) 0.0880(5)
H1 H 0.6789 0.6664 0.0567
C4 C 0.7142(5) 0.4681(5) 0.0401(5)
C5 C 0.6668(4) 0.3471(4) 0.0834(4)
H2 H 0.7086 0.2709 0.0503
C6 C 0.5572(4) 0.3398(4) 0.1763(4)
C7 C 0.4954(4) 0.4533(4) 0.2266(4)
H3 H 0.4232 0.4473 0.2899
C8 C 0.5058(4) 0.2077(4) 0.2195(4)
C9 C 0.1205(5) 0.1863(5) 0.1197(5)
H4 H 0.0776 0.2251 0.1853
C10 C 0.2672(4) 0.0569(5) 0.0178(4)
H5 H 0.3455 -0.0099 -0.0057
C11 C 0.1425(5) 0.1618(5) -0.1926(4)
H6 H 0.2240 0.0981 -0.2240
H7 H 0.1329 0.2624 -0.2485
C12 C 0.0144(5) 0.1246(6) -0.2000(5)
H8 H -0.0653 0.1822 -0.1609
H9 H 0.0279 0.0217 -0.1497
C13 C -0.0158(5) 0.1545(7) -0.3399(5)
H10 H -0.1052 0.1422 -0.3400
H11 H -0.0227 0.2558 -0.3914
C14 C 0.1693(5) 0.0941(5) -0.5094(4)
H12 H 0.1689 0.1892 -0.5596
C15 C 0.2153(5) -0.1334(5) -0.4355(5)
H13 H 0.2567 -0.2320 -0.4263
Cd1 Cd 0.41205(3) -0.03364(3) 0.29316(2)
N1 N 0.2452(4) 0.0786(4) 0.1325(4)
N2 N 0.0659(4) 0.2308(5) 0.0052(4)
N3 N 0.1618(4) 0.1439(4) -0.0569(3)
N4 N 0.2491(4) -0.0256(4) -0.5350(3)
N5 N 0.0900(4) 0.0585(4) -0.4018(3)
N6 N 0.1193(5) -0.0894(5) -0.3518(4)
O1 O 0.8225(3) 0.4859(4) -0.0660(5)
H14 H 0.7869 0.5188 -0.1369
O2 O 0.4092(4) 0.1993(4) 0.3074(4)
O3 O 0.5581(4) 0.1124(3) 0.1679(4)
O4 O 0.3812(4) 0.6959(4) 0.3221(4)
O5 O 0.5243(4) 0.8074(3) 0.1869(4)
O6 O 0.5856(4) -0.1854(4) 0.4425(3)
H15 H 0.6010 -0.2744 0.4503
H16 H 0.5590 -0.1747 0.5163
Cd1_2 Cd 0.41205(3) -0.03364(3) -0.70684(2)
Cd1_3 Cd 0.41205(3) 0.96636(3) 0.29316(2)
N4_2 N 0.2491(4) -0.0256(4) 0.4650(3)
O4_2 O 0.3812(4) -0.3041(4) 0.3221(4)
O5_2 O 0.5243(4) -0.1926(3) 0.1869(4)
O7 O 0.8693(6) 0.5382(8) 0.6679(7)
H17 H 0.9439 0.5556 0.6694
H18 H 0.8692 0.4573 0.7277
O8 O 0.7191(6) 0.5135(5) 0.4901(5)
H19 H 0.7832 0.4843 0.5429
H20 H 0.6539 0.4664 0.5176
O9 O 0.1044(6) 0.5624(8) 0.7042(6)
H21 H 0.1192 0.6125 0.7402
H22 H 0.1932 0.5101 0.6913
loop_
_geom_bond_atom_site_label_1
_geom_bond_atom_site_label_2
_geom_bond_site_symmetry_1
_geom_bond_site_symmetry_2
C1 C2 1_555 1_555
C2 C3 1_555 1_555
C3 H1 1_555 1_555
C4 C3 1_555 1_555
C5 C4 1_555 1_555
H2 C5 1_555 1_555
C6 C5 1_555 1_555
C7 C2 1_555 1_555
H3 C7 1_555 1_555
C8 C6 1_555 1_555
C9 H4 1_555 1_555
C10 H5 1_555 1_555
C11 H6 1_555 1_555
H7 C11 1_555 1_555
C12 C11 1_555 1_555
H8 C12 1_555 1_555
H9 C12 1_555 1_555
C13 C12 1_555 1_555
H10 C13 1_555 1_555
H11 C13 1_555 1_555
C14 H12 1_555 1_555
C15 H13 1_555 1_555
Cd1 N1 1_555 1_555
N1 C9 1_555 1_555
N2 C9 1_555 1_555
N3 C10 1_555 1_555
N4 C14 1_555 1_555
N5 C13 1_555 1_555
N6 C15 1_555 1_555
O1 C4 1_555 1_555
H14 O1 1_555 1_555
O2 C8 1_555 1_555
O3 C8 1_555 1_555
O4 C1 1_555 1_555
O5 C1 1_555 1_555
O6 Cd1 1_555 1_555
H15 O6 1_555 1_555
H16 O6 1_555 1_555
O7 H17 1_555 1_555
H18 O7 1_555 1_555
O8 H19 1_555 1_555
H20 O8 1_555 1_555
O9 H21 1_555 1_555
H22 O9 1_555 1_555
Cd1_2 N4 1_555 1_555
Cd1_3 O4 1_555 1_555
N4_2 Cd1 1_555 1_555
O4_2 Cd1 1_555 1_555
O5_2 Cd1 1_555 1_555
C6 C7 1_555 1_555
C10 N1 1_555 1_555
C11 N3 1_555 1_555
C14 N5 1_555 1_555
C15 N4 1_555 1_555
Cd1 O2 1_555 1_555
Cd1 O3 1_555 1_555
N2 N3 1_555 1_555
N5 N6 1_555 1_555
O5 Cd1_3 1_555 1_555

#END
