
#######################################################################
#
#                 Cambridge Crystallographic Data Centre
#                                CCDC 
#
#######################################################################
#
# If this CIF has been generated from an entry in the Cambridge 
# Structural Database, then it will include bibliographic, chemical, 
# crystal, experimental, refinement or atomic coordinate data resulting 
# from the CCDC's data processing and validation procedures.
#
#######################################################################

data_IVATIJ
_symmetry_cell_setting           monoclinic
_symmetry_space_group_name_H-M   'P 21/c'
_symmetry_Int_Tables_number      14
_space_group_name_Hall           '-P 2ybc'
loop_
_symmetry_equiv_pos_site_id
_symmetry_equiv_pos_as_xyz
1 x,y,z
2 -x,1/2+y,1/2-z
3 -x,-y,-z
4 x,1/2-y,1/2+z
_cell_length_a                   16.048(4)
_cell_length_b                   14.866(4)
_cell_length_c                   9.382(3)
_cell_angle_alpha                90
_cell_angle_beta                 90.00
_cell_angle_gamma                90
_cell_volume                     2238.26
loop_
_atom_site_label
_atom_site_type_symbol
_atom_site_fract_x
_atom_site_fract_y
_atom_site_fract_z
Ag1 Ag 0.48497(3) 0.42429(3) 0.60493(5)
Ag2 Ag 0.59411(3) 0.56820(3) 0.74118(5)
Ag3 Ag 0.56176(3) 0.77244(3) 1.08079(5)
O1 O 0.4287(3) 0.7342(3) 1.0266(4)
O2 O 0.4686(2) 0.6204(3) 0.7860(4)
O3 O 0.4013(3) 0.5421(3) 0.6204(4)
O4 O 0.4160(3) 0.8286(3) 0.8412(4)
C1 C 0.3951(4) 0.7602(4) 0.9124(6)
C2 C 0.4042(4) 0.5977(4) 0.7203(6)
C3 C 0.2491(4) 0.5971(4) 0.7286(6)
H1 H 0.2509 0.5466 0.6665
C4 C 0.3204(4) 0.7108(4) 0.8621(6)
C5 C 0.3231(4) 0.6370(4) 0.7693(6)
O5 O 0.5833(2) 0.6116(3) 1.1371(4)
O6 O 0.6301(3) 0.7736(3) 1.3198(5)
O7 O 0.6597(3) 0.6512(3) 1.4455(4)
O8 O 0.6492(3) 0.5192(3) 0.9880(4)
C6 C 0.6477(4) 0.5806(4) 1.0793(6)
C7 C 0.6697(3) 0.7019(4) 1.3399(6)
C8 C 0.7396(4) 0.6759(4) 1.2407(6)
C9 C 0.1709(4) 0.7016(5) 0.8661(7)
H2 H 0.1189 0.7246 0.8977
C10 C 0.7303(4) 0.6204(4) 1.1226(6)
C11 C 0.8003(4) 0.5980(4) 1.0422(6)
H3 H 0.7943 0.5609 0.9605
C12 C 0.1731(4) 0.6277(5) 0.7747(7)
H4 H 0.1231 0.5991 0.7450
C13 C 0.8187(4) 0.7065(4) 1.2773(7)
H5 H 0.8252 0.7443 1.3581
C14 C 0.8878(4) 0.6828(4) 1.1980(7)
H6 H 0.9415 0.7035 1.2252
C15 C 0.8788(4) 0.6292(4) 1.0799(7)
H7 H 0.9260 0.6135 1.0242
C16 C 0.2436(4) 0.7413(4) 0.9106(7)
H8 H 0.2413 0.7903 0.9754
N1 N 0.6906(3) 0.4862(4) 0.6365(5)
H9 H 0.6744 0.4271 0.6464
H10 H 0.6878 0.4992 0.5407
N2 N 1.0094(4) 0.6687(5) 0.5216(7)
C17 C 0.9447(4) 0.4931(5) 0.7423(7)
H11 H 1.0025 0.4937 0.7645
C18 C 0.8925(5) 0.4317(5) 0.8046(8)
H12 H 0.9147 0.3896 0.8708
C19 C 0.8090(4) 0.4296(4) 0.7735(7)
H13 H 0.7738 0.3870 0.8191
C20 C 0.7758(4) 0.4901(4) 0.6746(6)
C21 C 0.8273(4) 0.5529(4) 0.6125(7)
H14 H 0.8051 0.5953 0.5467
C22 C 0.9114(4) 0.5545(5) 0.6457(7)
C23 C 0.9660(5) 0.6182(5) 0.5776(8)
Ag4 Ag 0.45462(3) 0.57665(3) 1.05494(5)
Ag1A Ag 0.51503(3) 0.92429(3) 0.89507(5)
Ag3C Ag 0.56176(3) 0.72756(3) 1.58079(5)
O4A O 0.5840(3) 0.3286(3) 0.6588(4)
O7C O 0.6597(3) 0.8488(3) 0.9455(4)
O8B O 0.3508(3) 0.4808(3) 1.0120(4)
Ag4B Ag 0.54538(3) 0.42335(3) 0.94506(5)
loop_
_geom_bond_atom_site_label_1
_geom_bond_atom_site_label_2
_geom_bond_site_symmetry_1
_geom_bond_site_symmetry_2
Ag1 O3 1_555 1_555
Ag2 O2 1_555 1_555
Ag3 O1 1_555 1_555
O1 C1 1_555 1_555
O2 C2 1_555 1_555
O3 C2 1_555 1_555
O4 C1 1_555 1_555
C1 C4 1_555 1_555
C2 C5 1_555 1_555
C3 H1 1_555 1_555
C4 C5 1_555 1_555
C5 C3 1_555 1_555
O5 Ag3 1_555 1_555
O6 Ag3 1_555 1_555
O7 C7 1_555 1_555
O8 C6 1_555 1_555
C6 O5 1_555 1_555
C7 O6 1_555 1_555
C8 C7 1_555 1_555
C9 H2 1_555 1_555
C10 C6 1_555 1_555
C11 C10 1_555 1_555
H3 C11 1_555 1_555
C12 C3 1_555 1_555
H4 C12 1_555 1_555
C13 C8 1_555 1_555
H5 C13 1_555 1_555
C14 C13 1_555 1_555
H6 C14 1_555 1_555
C15 C11 1_555 1_555
H7 C15 1_555 1_555
C16 C4 1_555 1_555
H8 C16 1_555 1_555
N1 Ag2 1_555 1_555
H9 N1 1_555 1_555
H10 N1 1_555 1_555
N2 C23 1_555 1_555
C17 H11 1_555 1_555
C18 C17 1_555 1_555
H12 C18 1_555 1_555
C19 C18 1_555 1_555
H13 C19 1_555 1_555
C20 N1 1_555 1_555
C21 C20 1_555 1_555
H14 C21 1_555 1_555
C22 C17 1_555 1_555
C23 C22 1_555 1_555
Ag4 O1 1_555 1_555
Ag1A O4 1_555 1_555
Ag3C O7 1_555 1_555
O4A Ag1 1_555 1_555
O7C Ag3 1_555 1_555
O8B Ag4 1_555 1_555
Ag4B O8 1_555 1_555
O5 Ag4 1_555 1_555
C8 C10 1_555 1_555
C9 C12 1_555 1_555
C9 C16 1_555 1_555
C14 C15 1_555 1_555
C19 C20 1_555 1_555
C21 C22 1_555 1_555

#END
