
#######################################################################
#
#                 Cambridge Crystallographic Data Centre
#                                CCDC 
#
#######################################################################
#
# If this CIF has been generated from an entry in the Cambridge 
# Structural Database, then it will include bibliographic, chemical, 
# crystal, experimental, refinement or atomic coordinate data resulting 
# from the CCDC's data processing and validation procedures.
#
#######################################################################

data_IVECUI
_symmetry_cell_setting           monoclinic
_symmetry_space_group_name_H-M   'P 21/n'
_symmetry_Int_Tables_number      14
_space_group_name_Hall           '-P 2yn'
loop_
_symmetry_equiv_pos_site_id
_symmetry_equiv_pos_as_xyz
1 x,y,z
2 1/2-x,1/2+y,1/2-z
3 -x,-y,-z
4 1/2+x,1/2-y,1/2+z
_cell_length_a                   6.9411(10)
_cell_length_b                   13.536(2)
_cell_length_c                   22.360(4)
_cell_angle_alpha                90
_cell_angle_beta                 96.869(3)
_cell_angle_gamma                90
_cell_volume                     2085.75
loop_
_atom_site_label
_atom_site_type_symbol
_atom_site_fract_x
_atom_site_fract_y
_atom_site_fract_z
Cd1 Cd 0.29338(3) 0.237957(15) 0.052190(9)
O1 O 0.6239(3) 0.26621(15) 0.09766(10)
O2 O 0.3852(3) 0.31424(16) 0.14667(9)
O3 O 0.9924(3) 0.05621(14) 0.36269(8)
O4 O 0.7828(3) 0.12982(16) 0.49382(10)
O5 O 1.0206(3) 0.19974(16) 0.45147(10)
O6 O -0.0136(3) 0.30068(19) 0.06399(13)
N1 N 0.3092(3) 0.08517(18) 0.10191(11)
N2 N 0.2263(4) 0.11138(17) -0.01786(11)
C1 C 0.7777(4) 0.2661(2) 0.23593(13)
C2 C 0.6631(5) 0.2337(2) 0.27849(15)
H1 H 0.5399 0.2606 0.2787
C3 C 0.7261(4) 0.1625(2) 0.32084(13)
H2 H 0.6455 0.1414 0.3487
C4 C 0.9104(4) 0.1231(2) 0.32124(12)
C5 C 1.0235(4) 0.1518(2) 0.27732(13)
H3 H 1.1448 0.1232 0.2762
C6 C 0.9581(5) 0.2224(2) 0.23526(14)
H4 H 1.0359 0.2409 0.2061
C7 C 0.7075(5) 0.3482(2) 0.19235(13)
H5 H 0.6467 0.3997 0.2137
H6 H 0.8172 0.3769 0.1755
C8 C 0.5633(4) 0.30820(19) 0.14206(13)
C9 C 0.8995(4) 0.0420(2) 0.41552(12)
H7 H 0.9616 -0.0127 0.4383
H8 H 0.7652 0.0239 0.4036
C10 C 0.9053(4) 0.1325(2) 0.45609(12)
C11 C 0.3487(5) 0.0754(2) 0.16177(14)
H9 H 0.3574 0.1323 0.1853
C12 C 0.3770(6) -0.0145(3) 0.19017(17)
H10 H 0.4033 -0.0187 0.2319
C13 C 0.3651(6) -0.0977(3) 0.15501(18)
H11 H 0.3844 -0.1597 0.1727
C14 C 0.3246(5) -0.0894(2) 0.09351(17)
H12 H 0.3163 -0.1456 0.0694
C15 C 0.2965(4) 0.0032(2) 0.06775(14)
C16 C 0.2506(4) 0.0177(2) 0.00148(13)
C17 C 0.2343(4) -0.0608(2) -0.03836(16)
H13 H 0.2535 -0.1251 -0.0242
C18 C 0.1894(5) -0.0433(3) -0.09909(17)
H14 H 0.1779 -0.0955 -0.1263
C19 C 0.1621(5) 0.0515(3) -0.11865(16)
H15 H 0.1307 0.0652 -0.1594
C20 C 0.1820(5) 0.1271(2) -0.07677(15)
H16 H 0.1637 0.1918 -0.0903
H17 H -0.123(3) 0.285(2) 0.0730(17)
H18 H 0.013(5) 0.3574(16) 0.0768(16)
Cd1C Cd 0.79338(3) 0.262043(15) 0.552190(9)
O4C O 0.2828(3) 0.37018(16) -0.00618(10)
O7 O 0.1002(4) 0.4654(2) 0.13762(16)
H19 H 0.112(5) 0.511(2) 0.1132(14)
H20 H 0.207(3) 0.440(2) 0.1488(15)
O8 O 0.1090(4) 0.6490(2) 0.07847(13)
H21 H 0.173(5) 0.6970(19) 0.0837(14)
H22 H 0.084(5) 0.627(2) 0.0450(10)
loop_
_geom_bond_atom_site_label_1
_geom_bond_atom_site_label_2
_geom_bond_site_symmetry_1
_geom_bond_site_symmetry_2
Cd1 O1 1_555 1_555
O1 C8 1_555 1_555
O2 Cd1 1_555 1_555
O3 C4 1_555 1_555
O4 C10 1_555 1_555
O5 C10 1_555 1_555
O6 Cd1 1_555 1_555
N1 Cd1 1_555 1_555
N2 Cd1 1_555 1_555
C1 C2 1_555 1_555
C2 H1 1_555 1_555
C3 C2 1_555 1_555
H2 C3 1_555 1_555
C4 C3 1_555 1_555
C5 C4 1_555 1_555
H3 C5 1_555 1_555
C6 C1 1_555 1_555
H4 C6 1_555 1_555
C7 C1 1_555 1_555
H5 C7 1_555 1_555
H6 C7 1_555 1_555
C8 O2 1_555 1_555
C9 O3 1_555 1_555
H7 C9 1_555 1_555
H8 C9 1_555 1_555
C10 C9 1_555 1_555
C11 N1 1_555 1_555
H9 C11 1_555 1_555
C12 C11 1_555 1_555
H10 C12 1_555 1_555
C13 C12 1_555 1_555
H11 C13 1_555 1_555
C14 C13 1_555 1_555
H12 C14 1_555 1_555
C15 N1 1_555 1_555
C16 N2 1_555 1_555
C17 C16 1_555 1_555
H13 C17 1_555 1_555
C18 C17 1_555 1_555
H14 C18 1_555 1_555
C19 C18 1_555 1_555
H15 C19 1_555 1_555
C20 N2 1_555 1_555
H16 C20 1_555 1_555
H17 O6 1_555 1_555
H18 O6 1_555 1_555
O7 H19 1_555 1_555
H20 O7 1_555 1_555
O8 H21 1_555 1_555
H22 O8 1_555 1_555
Cd1C O4 1_555 1_555
O4C Cd1 1_555 1_555
C5 C6 1_555 1_555
C7 C8 1_555 1_555
C14 C15 1_555 1_555
C15 C16 1_555 1_555
C19 C20 1_555 1_555

#END
