
#######################################################################
#
#                 Cambridge Crystallographic Data Centre
#                                CCDC 
#
#######################################################################
#
# If this CIF has been generated from an entry in the Cambridge 
# Structural Database, then it will include bibliographic, chemical, 
# crystal, experimental, refinement or atomic coordinate data resulting 
# from the CCDC's data processing and validation procedures.
#
#######################################################################

data_IVEFUL
_symmetry_cell_setting           monoclinic
_symmetry_space_group_name_H-M   'C c'
_symmetry_Int_Tables_number      9
_space_group_name_Hall           'C -2yc'
loop_
_symmetry_equiv_pos_site_id
_symmetry_equiv_pos_as_xyz
1 x,y,z
2 x,-y,1/2+z
3 1/2+x,1/2+y,z
4 1/2+x,1/2-y,1/2+z
_cell_length_a                   18.3061(16)
_cell_length_b                   20.0855(17)
_cell_length_c                   13.0089(11)
_cell_angle_alpha                90
_cell_angle_beta                 109.8600(10)
_cell_angle_gamma                90
_cell_volume                     4498.73
loop_
_atom_site_label
_atom_site_type_symbol
_atom_site_fract_x
_atom_site_fract_y
_atom_site_fract_z
Cu1 Cu 0.37260(2) 1.185027(19) 0.22204(3)
Cu2 Cu 0.71077(2) 0.93475(2) 0.56240(3)
Cu3 Cu 0.37263(2) 1.68498(2) 0.22204(3)
Cu4 Cu 0.71078(2) 1.43476(3) 0.56241(3)
N1 N 0.44563(15) 1.11050(13) 0.2330(2)
N2 N 0.63335(16) 0.86147(14) 0.5491(2)
N3 N 0.44552(19) 1.61055(16) 0.2330(3)
N4 N 0.6332(2) 1.36132(18) 0.5489(3)
N5 N 0.29060(15) 1.25582(13) 0.1979(2)
N6 N 0.79027(18) 1.00445(15) 0.5852(3)
N7 N 0.29061(18) 1.75575(16) 0.1974(3)
N8 N 0.7901(2) 1.50467(18) 0.5849(3)
O1 O 0.33581(14) 1.15913(13) 0.0694(2)
O2 O 0.37768(16) 1.10503(14) -0.0519(2)
O3 O 0.65427(12) 0.96273(11) 0.40918(19)
O4 O 0.60296(13) 1.02428(12) 0.50713(19)
O5 O 0.74669(17) 0.90980(14) 0.7170(2)
O6 O 0.70873(17) 0.85476(15) 0.8373(2)
O7 O 0.42748(14) 0.71272(13) 0.3736(2)
O8 O 0.48009(15) 0.77408(14) 0.2733(2)
O9 O 0.33582(17) 1.65921(17) 0.0693(3)
O10 O 0.37799(19) 1.60493(18) -0.0517(3)
O11 O 0.65454(15) 1.46284(14) 0.4095(2)
O12 O 0.60308(16) 1.52411(15) 0.5071(2)
O13 O 0.7468(2) 1.40950(18) 0.7173(3)
O14 O 0.7087(2) 1.35493(19) 0.8375(3)
O15 O 0.42758(18) 1.21283(16) 0.3737(3)
O16 O 0.48013(19) 1.27421(17) 0.2733(3)
C1 C 0.38229(18) 1.11900(16) 0.0392(3)
C2 C 0.44469(16) 1.09119(14) 0.1374(3)
C3 C 0.49812(17) 1.04156(16) 0.1221(3)
H1 H 0.4963 1.0279 0.0513
C4 C 0.55129(19) 1.01548(16) 0.2151(3)
H2 H 0.5881 0.9835 0.2100
C5 C 0.55092(18) 1.03597(15) 0.3154(3)
C6 C 0.50077(19) 1.08380(16) 0.3252(3)
H3 H 0.5036 1.0989 0.3957
C7 C 0.60848(18) 1.00487(15) 0.4187(2)
C8 C 0.7019(2) 0.87112(18) 0.7428(3)
C9 C 0.6369(2) 0.83828(19) 0.6512(3)
C10 C 0.5877(2) 0.7950(2) 0.6618(3)
H4 H 0.5900 0.7817 0.7329
C11 C 0.5313(2) 0.76758(18) 0.5706(3)
H5 H 0.4949 0.7364 0.5796
C12 C 0.52872(19) 0.78619(18) 0.4656(3)
C13 C 0.5841(2) 0.83622(18) 0.4632(3)
H6 H 0.5842 0.8514 0.3940
C14 C 0.47663(19) 0.75851(17) 0.3624(3)
C15 C 0.3823(2) 1.6187(2) 0.0398(4)
C16 C 0.4451(2) 1.59108(18) 0.1375(3)
C17 C 0.4984(2) 1.5415(2) 0.1219(3)
H7 H 0.4967 1.5280 0.0512
C18 C 0.5512(2) 1.5154(2) 0.2150(4)
H8 H 0.5876 1.4831 0.2097
C19 C 0.5513(2) 1.53585(18) 0.3152(3)
C20 C 0.5008(2) 1.5837(2) 0.3249(3)
H9 H 0.5036 1.5986 0.3954
C21 C 0.6084(2) 1.50482(19) 0.4191(3)
C22 C 0.2739(2) 1.28316(17) 0.2801(3)
H10 H 0.2983 1.2651 0.3510
C23 C 0.2253(2) 1.33423(18) 0.2700(3)
H11 H 0.2194 1.3555 0.3320
C24 C 0.1819(2) 1.35549(18) 0.1600(3)
H12 H 0.1420 1.3878 0.1482
C25 C 0.1970(2) 1.33088(17) 0.0774(3)
H13 H 0.1718 1.3469 0.0053
C26 C 0.2543(2) 1.27736(16) 0.1001(3)
H14 H 0.2655 1.2576 0.0406
C27 C 0.8308(2) 1.0293(2) 0.6881(3)
H15 H 0.8212 1.0110 0.7496
C28 C 0.8813(2) 1.0767(2) 0.7032(4)
H16 H 0.9090 1.0914 0.7754
C29 C 0.8963(3) 1.1077(2) 0.6119(4)
H17 H 0.9305 1.1445 0.6220
C30 C 0.8610(2) 1.0830(2) 0.5158(4)
H18 H 0.8743 1.0988 0.4556
C31 C 0.8027(2) 1.03296(19) 0.4977(3)
H19 H 0.7729 1.0197 0.4254
C32 C 0.2737(3) 1.7833(2) 0.2797(4)
H20 H 0.2979 1.7651 0.3505
C33 C 0.2253(3) 1.8347(2) 0.2703(4)
H21 H 0.2198 1.8562 0.3323
C34 C 0.1821(3) 1.8552(2) 0.1598(4)
H22 H 0.1418 1.8872 0.1477
C35 C 0.1972(3) 1.8308(2) 0.0771(4)
H23 H 0.1721 1.8468 0.0050
C36 C 0.2543(3) 1.7776(2) 0.0999(4)
H24 H 0.2655 1.7580 0.0404
C37 C 0.8309(2) 1.5294(2) 0.6878(4)
H25 H 0.8213 1.5109 0.7492
C38 C 0.8817(3) 1.5766(3) 0.7039(4)
H26 H 0.9095 1.5912 0.7761
C39 C 0.8960(3) 1.6074(2) 0.6114(5)
H27 H 0.9302 1.6442 0.6211
C40 C 0.8606(3) 1.5830(3) 0.5156(5)
H28 H 0.8739 1.5987 0.4553
C41 C 0.8025(2) 1.5331(2) 0.4974(4)
H29 H 0.7726 1.5199 0.4252
C42 C 0.7017(3) 1.3707(2) 0.7433(4)
C43 C 0.6368(3) 1.3388(2) 0.6515(4)
C44 C 0.5877(3) 1.2952(2) 0.6619(4)
H30 H 0.5900 1.2818 0.7330
C45 C 0.5315(3) 1.2678(2) 0.5706(4)
H31 H 0.4952 1.2365 0.5795
C46 C 0.5289(2) 1.2865(2) 0.4659(4)
C47 C 0.5841(3) 1.3363(2) 0.4634(4)
H32 H 0.5840 1.3515 0.3942
C48 C 0.4768(2) 1.2587(2) 0.3625(4)
Cu3_2 Cu 0.37263(2) 0.68498(2) 0.22204(3)
O7_2 O 0.42748(14) 1.71272(13) 0.3736(2)
O8_2 O 0.48009(15) 1.77408(14) 0.2733(2)
loop_
_geom_bond_atom_site_label_1
_geom_bond_atom_site_label_2
_geom_bond_site_symmetry_1
_geom_bond_site_symmetry_2
Cu1 N1 1_555 1_555
Cu2 N2 1_555 1_555
Cu3 N3 1_555 1_555
Cu4 N4 1_555 1_555
N1 C2 1_555 1_555
N2 C9 1_555 1_555
N3 C16 1_555 1_555
N4 C43 1_555 1_555
N5 Cu1 1_555 1_555
N6 Cu2 1_555 1_555
N7 Cu3 1_555 1_555
N8 Cu4 1_555 1_555
O1 Cu1 1_555 1_555
O2 C1 1_555 1_555
O3 Cu2 1_555 1_555
O4 Cu2 1_555 1_555
O5 Cu2 1_555 1_555
O6 C8 1_555 1_555
O7 C14 1_555 1_555
O8 C14 1_555 1_555
O9 Cu3 1_555 1_555
O10 C15 1_555 1_555
O11 Cu4 1_555 1_555
O12 Cu4 1_555 1_555
O13 Cu4 1_555 1_555
O14 C42 1_555 1_555
O15 Cu1 1_555 1_555
O16 Cu1 1_555 1_555
C1 O1 1_555 1_555
C2 C1 1_555 1_555
C3 C2 1_555 1_555
H1 C3 1_555 1_555
C4 C3 1_555 1_555
H2 C4 1_555 1_555
C5 C4 1_555 1_555
C6 N1 1_555 1_555
H3 C6 1_555 1_555
C7 O3 1_555 1_555
C8 O5 1_555 1_555
C9 C8 1_555 1_555
C10 C9 1_555 1_555
H4 C10 1_555 1_555
C11 C10 1_555 1_555
H5 C11 1_555 1_555
C12 C11 1_555 1_555
C13 N2 1_555 1_555
H6 C13 1_555 1_555
C14 C12 1_555 1_555
C15 O9 1_555 1_555
C16 C15 1_555 1_555
C17 C16 1_555 1_555
H7 C17 1_555 1_555
C18 C17 1_555 1_555
H8 C18 1_555 1_555
C19 C18 1_555 1_555
C20 N3 1_555 1_555
H9 C20 1_555 1_555
C21 O11 1_555 1_555
C22 N5 1_555 1_555
H10 C22 1_555 1_555
C23 C22 1_555 1_555
H11 C23 1_555 1_555
C24 C23 1_555 1_555
H12 C24 1_555 1_555
C25 C24 1_555 1_555
H13 C25 1_555 1_555
C26 N5 1_555 1_555
H14 C26 1_555 1_555
C27 N6 1_555 1_555
H15 C27 1_555 1_555
C28 C27 1_555 1_555
H16 C28 1_555 1_555
C29 C28 1_555 1_555
H17 C29 1_555 1_555
C30 C29 1_555 1_555
H18 C30 1_555 1_555
C31 N6 1_555 1_555
H19 C31 1_555 1_555
C32 N7 1_555 1_555
H20 C32 1_555 1_555
C33 C32 1_555 1_555
H21 C33 1_555 1_555
C34 C33 1_555 1_555
H22 C34 1_555 1_555
C35 C34 1_555 1_555
H23 C35 1_555 1_555
C36 N7 1_555 1_555
H24 C36 1_555 1_555
C37 N8 1_555 1_555
H25 C37 1_555 1_555
C38 C37 1_555 1_555
H26 C38 1_555 1_555
C39 C38 1_555 1_555
H27 C39 1_555 1_555
C40 C39 1_555 1_555
H28 C40 1_555 1_555
C41 N8 1_555 1_555
H29 C41 1_555 1_555
C42 O13 1_555 1_555
C43 C42 1_555 1_555
C44 C43 1_555 1_555
H30 C44 1_555 1_555
C45 C44 1_555 1_555
H31 C45 1_555 1_555
C46 C45 1_555 1_555
C47 N4 1_555 1_555
H32 C47 1_555 1_555
C48 O15 1_555 1_555
Cu3_2 O7 1_555 1_555
O7_2 Cu3 1_555 1_555
O8_2 Cu3 1_555 1_555
O4 C7 1_555 1_555
O8 Cu3_2 1_555 1_555
O12 C21 1_555 1_555
O16 C48 1_555 1_555
C5 C6 1_555 1_555
C5 C7 1_555 1_555
C12 C13 1_555 1_555
C19 C20 1_555 1_555
C19 C21 1_555 1_555
C25 C26 1_555 1_555
C30 C31 1_555 1_555
C35 C36 1_555 1_555
C40 C41 1_555 1_555
C46 C47 1_555 1_555
C46 C48 1_555 1_555

#END
