
#######################################################################
#
#                 Cambridge Crystallographic Data Centre
#                                CCDC 
#
#######################################################################
#
# If this CIF has been generated from an entry in the Cambridge 
# Structural Database, then it will include bibliographic, chemical, 
# crystal, experimental, refinement or atomic coordinate data resulting 
# from the CCDC's data processing and validation procedures.
#
#######################################################################

data_IVEHAS
_symmetry_cell_setting           monoclinic
_symmetry_space_group_name_H-M   'P 21/n'
_symmetry_Int_Tables_number      14
_space_group_name_Hall           '-P 2yn'
loop_
_symmetry_equiv_pos_site_id
_symmetry_equiv_pos_as_xyz
1 x,y,z
2 1/2+x,1/2-y,1/2+z
3 -x,-y,-z
4 1/2-x,1/2+y,1/2-z
_cell_length_a                   7.25462(13)
_cell_length_b                   30.2752(7)
_cell_length_c                   9.28295(17)
_cell_angle_alpha                90
_cell_angle_beta                 92.4523(20)
_cell_angle_gamma                90
_cell_volume                     2036.99
loop_
_atom_site_label
_atom_site_type_symbol
_atom_site_fract_x
_atom_site_fract_y
_atom_site_fract_z
Cu1 Cu 0.2096(8) 0.09101(20) 0.3688(6)
Cu2 Cu 0.0036(7) 0.20739(20) -0.0408(4)
Br1 Br 0.5487(5) 0.11353(15) 0.4515(4)
Br2 Br 0.2482(6) 0.03580(16) 0.1896(5)
O1 O 0.1468(27) 0.1421(5) 0.2274(16)
O2 O 0.0166(23) 0.2084(5) 0.2162(15)
O3 O -0.0405(22) 0.2711(5) 0.4670(22)
O4 O -0.3284(25) 0.2440(6) 0.4599(20)
N1 N 0.0782(24) 0.1306(5) 0.4941(16)
N2 N -0.1371(25) 0.1839(4) 0.6472(16)
N3 N 0.1680(27) 0.0490(5) 0.5442(12)
N4 N -0.1755(25) 0.1567(5) 0.9498(18)
C1 C 0.0136(29) 0.1687(5) 0.4398(14)
C2 C -0.0913(25) 0.1963(4) 0.5241(14)
C3 C -0.0845(22) 0.1453(5) 0.6991(16)
C4 C 0.0354(22) 0.1186(4) 0.6215(16)
C5 C 0.0638(33) 0.1751(5) 0.2827(14)
C6 C -0.1592(19) 0.2393(4) 0.4671(14)
C7 C 0.1073(28) 0.0713(5) 0.6585(12)
C8 C 0.1265(30) 0.0541(6) 0.7872(13)
C9 C 0.2113(28) 0.0121(6) 0.8060(15)
C10 C 0.2676(26) -0.0103(4) 0.6908(20)
C11 C 0.2476(31) 0.0071(6) 0.5619(16)
C12 C -0.1675(16) 0.1287(4) 0.8334(13)
C13 C -0.2837(29) 0.0929(5) 0.8245(19)
C14 C -0.3897(31) 0.0829(7) 0.9365(24)
C15 C -0.3918(30) 0.1100(8) 1.0525(19)
C16 C -0.2902(32) 0.1484(7) 1.0548(17)
O5 O 0.1956(27) 0.1609(5) -0.0384(12)
O6 O -0.1901(23) 0.2544(6) -0.0434(12)
H1 H 0.083(6) 0.0723(9) 0.8797(17)
H2 H 0.223(6) -0.0026(10) 0.9120(19)
H3 H 0.320(6) -0.0436(7) 0.7036(29)
H4 H 0.293(7) -0.0109(10) 0.4692(22)
H5 H -0.285(5) 0.0717(11) 0.7309(29)
H6 H -0.470(6) 0.0529(10) 0.934(4)
H7 H -0.473(6) 0.1015(13) 1.1432(32)
H8 H -0.296(6) 0.1707(12) 1.1453(32)
H9 H 0.237(27) 0.155(6) -0.167(10)
H10 H 0.331(6) 0.1760(13) 0.035(31)
H11 H -0.195(20) 0.270(5) -0.158(13)
H12 H -0.146(20) 0.280(5) 0.044(12)
O4A O 0.1716(25) 0.2560(6) -0.0401(20)
N4_2 N -0.1755(25) 0.1567(5) -0.0502(18)
Cu2A Cu -0.4964(7) 0.29261(20) 0.4592(4)
Cu2_2 Cu 0.0036(7) 0.20739(20) 0.9592(4)
O7 O -0.1044(24) 0.3120(6) 0.1677(20)
loop_
_geom_bond_atom_site_label_1
_geom_bond_atom_site_label_2
_geom_bond_site_symmetry_1
_geom_bond_site_symmetry_2
Cu1 Br1 1_555 1_555
Cu2 O2 1_555 1_555
Br2 Cu1 1_555 1_555
O1 Cu1 1_555 1_555
O2 C5 1_555 1_555
O3 C6 1_555 1_555
O4 C6 1_555 1_555
N1 Cu1 1_555 1_555
N2 C2 1_555 1_555
N3 Cu1 1_555 1_555
N4 C12 1_555 1_555
C1 N1 1_555 1_555
C2 C1 1_555 1_555
C3 N2 1_555 1_555
C4 N1 1_555 1_555
C5 O1 1_555 1_555
C6 C2 1_555 1_555
C7 N3 1_555 1_555
C8 C7 1_555 1_555
C9 C8 1_555 1_555
C10 C9 1_555 1_555
C11 N3 1_555 1_555
C12 C3 1_555 1_555
C13 C12 1_555 1_555
C14 C13 1_555 1_555
C15 C14 1_555 1_555
C16 N4 1_555 1_555
O5 Cu2 1_555 1_555
O6 Cu2 1_555 1_555
H1 C8 1_555 1_555
H2 C9 1_555 1_555
H3 C10 1_555 1_555
H4 C11 1_555 1_555
H5 C13 1_555 1_555
H6 C14 1_555 1_555
H7 C15 1_555 1_555
H8 C16 1_555 1_555
H9 O5 1_555 1_555
H10 O5 1_555 1_555
H11 O6 1_555 1_555
H12 O6 1_555 1_555
O4A Cu2 1_555 1_555
N4_2 Cu2 1_555 1_555
Cu2A O4 1_555 1_555
Cu2_2 N4 1_555 1_555
C1 C5 1_555 1_555
C3 C4 1_555 1_555
C4 C7 1_555 1_555
C10 C11 1_555 1_555
C15 C16 1_555 1_555

#END
