
#######################################################################
#
#                 Cambridge Crystallographic Data Centre
#                                CCDC 
#
#######################################################################
#
# If this CIF has been generated from an entry in the Cambridge 
# Structural Database, then it will include bibliographic, chemical, 
# crystal, experimental, refinement or atomic coordinate data resulting 
# from the CCDC's data processing and validation procedures.
#
#######################################################################

data_IVIJUT
_symmetry_cell_setting           triclinic
_symmetry_space_group_name_H-M   'P -1'
_symmetry_Int_Tables_number      2
_space_group_name_Hall           '-P 1'
loop_
_symmetry_equiv_pos_site_id
_symmetry_equiv_pos_as_xyz
1 x,y,z
2 -x,-y,-z
_cell_length_a                   7.7115(6)
_cell_length_b                   9.7515(7)
_cell_length_c                   12.6997(10)
_cell_angle_alpha                76.4650(10)
_cell_angle_beta                 76.8020(10)
_cell_angle_gamma                88.1130(10)
_cell_volume                     903.742
loop_
_atom_site_label
_atom_site_type_symbol
_atom_site_fract_x
_atom_site_fract_y
_atom_site_fract_z
Cd1 Cd 0.67263(2) 0.646944(18) -0.005831(13)
O1 O 0.9538(3) 0.6983(2) 0.01183(17)
O2 O 0.7405(3) 0.8126(2) 0.09782(18)
O3 O 1.2240(3) 0.50069(19) 0.11578(16)
O4 O 1.3817(2) 0.6992(2) 0.02977(16)
N1 N 0.6385(3) 0.4850(2) 0.16837(18)
N2 N 0.6771(3) -0.1867(2) 0.82733(19)
C1 C 0.8989(3) 0.7766(3) 0.0769(2)
C2 C 1.0347(4) 0.8292(3) 0.1307(2)
H1 H 1.1180 0.8946 0.0720
C3 C 1.1446(3) 0.7077(3) 0.1845(2)
H2 H 1.2306 0.7535 0.2121
C4 C 1.0313(4) 0.6099(3) 0.2870(2)
H3 H 1.1052 0.5368 0.3190
H4 H 0.9387 0.5648 0.2657
C5 C 0.9462(5) 0.6929(4) 0.3737(3)
H5 H 0.8697 0.6304 0.4369
H6 H 1.0384 0.7312 0.4000
C6 C 0.8377(5) 0.8119(4) 0.3226(3)
H7 H 0.7896 0.8665 0.3771
H8 H 0.7382 0.7722 0.3040
C7 C 0.9466(4) 0.9096(4) 0.2186(3)
H9 H 1.0381 0.9577 0.2386
H10 H 0.8696 0.9805 0.1873
C8 C 1.2567(3) 0.6294(3) 0.1024(2)
C9 C 0.7359(4) 0.3690(3) 0.1785(2)
H11 H 0.8080 0.3484 0.1149
C10 C 0.7328(4) 0.2784(3) 0.2806(3)
H12 H 0.8019 0.1982 0.2846
C11 C 0.6266(4) 0.3067(3) 0.3776(3)
C12 C 0.5271(4) 0.4278(4) 0.3642(2)
H13 H 0.4533 0.4516 0.4259
C13 C 0.5367(4) 0.5120(3) 0.2611(2)
H14 H 0.4686 0.5927 0.2548
C14 C 0.6154(5) 0.2186(4) 0.4902(3)
H15 H 0.5462 0.2505 0.5495
C15 C 0.6956(5) 0.0987(4) 0.5128(3)
H16 H 0.7672 0.0693 0.4529
C16 C 0.6837(4) 0.0050(3) 0.6243(3)
C17 C 0.7829(5) -0.1162(3) 0.6308(2)
H17 H 0.8546 -0.1355 0.5665
C18 C 0.7758(4) -0.2082(3) 0.7318(2)
H18 H 0.8430 -0.2893 0.7337
C19 C 0.5803(4) -0.0699(3) 0.8225(3)
H19 H 0.5100 -0.0534 0.8881
C20 C 0.5807(4) 0.0274(3) 0.7237(3)
H20 H 0.5120 0.1076 0.7238
Cd1A Cd 1.32737(2) 0.353056(18) 0.005831(13)
Cd1_2 Cd 1.67263(2) 0.646944(18) -0.005831(13)
Cd1_3 Cd 0.67263(2) -0.353056(18) 0.994169(13)
O3A O 0.7760(3) 0.49931(19) -0.11578(16)
O4_2 O 0.3817(2) 0.6992(2) 0.02977(16)
N2_2 N 0.6771(3) 0.8133(2) -0.17267(19)
loop_
_geom_bond_atom_site_label_1
_geom_bond_atom_site_label_2
_geom_bond_site_symmetry_1
_geom_bond_site_symmetry_2
Cd1 O1 1_555 1_555
O1 C1 1_555 1_555
O2 Cd1 1_555 1_555
O3 C8 1_555 1_555
O4 C8 1_555 1_555
N1 Cd1 1_555 1_555
N2 C18 1_555 1_555
C1 O2 1_555 1_555
C2 C1 1_555 1_555
H1 C2 1_555 1_555
C3 C2 1_555 1_555
H2 C3 1_555 1_555
C4 C3 1_555 1_555
H3 C4 1_555 1_555
H4 C4 1_555 1_555
C5 C4 1_555 1_555
H5 C5 1_555 1_555
H6 C5 1_555 1_555
C6 C5 1_555 1_555
H7 C6 1_555 1_555
H8 C6 1_555 1_555
C7 C2 1_555 1_555
H9 C7 1_555 1_555
H10 C7 1_555 1_555
C8 C3 1_555 1_555
C9 N1 1_555 1_555
H11 C9 1_555 1_555
C10 C9 1_555 1_555
H12 C10 1_555 1_555
C11 C10 1_555 1_555
C12 C11 1_555 1_555
H13 C12 1_555 1_555
C13 N1 1_555 1_555
H14 C13 1_555 1_555
C14 C11 1_555 1_555
H15 C14 1_555 1_555
C15 C14 1_555 1_555
H16 C15 1_555 1_555
C16 C15 1_555 1_555
C17 C16 1_555 1_555
H17 C17 1_555 1_555
C18 C17 1_555 1_555
H18 C18 1_555 1_555
C19 N2 1_555 1_555
H19 C19 1_555 1_555
C20 C16 1_555 1_555
H20 C20 1_555 1_555
Cd1A O3 1_555 1_555
Cd1_2 O4 1_555 1_555
Cd1_3 N2 1_555 1_555
O3A Cd1 1_555 1_555
O4_2 Cd1 1_555 1_555
N2_2 Cd1 1_555 1_555
C6 C7 1_555 1_555
C12 C13 1_555 1_555
C19 C20 1_555 1_555

#END
