
#######################################################################
#
#                 Cambridge Crystallographic Data Centre
#                                CCDC 
#
#######################################################################
#
# If this CIF has been generated from an entry in the Cambridge 
# Structural Database, then it will include bibliographic, chemical, 
# crystal, experimental, refinement or atomic coordinate data resulting 
# from the CCDC's data processing and validation procedures.
#
#######################################################################

data_IVOMOW
_symmetry_cell_setting           monoclinic
_symmetry_space_group_name_H-M   'P 21/c'
_symmetry_Int_Tables_number      14
_space_group_name_Hall           '-P 2ybc'
loop_
_symmetry_equiv_pos_site_id
_symmetry_equiv_pos_as_xyz
1 x,y,z
2 -x,1/2+y,1/2-z
3 -x,-y,-z
4 x,1/2-y,1/2+z
_cell_length_a                   30.678(3)
_cell_length_b                   10.4667(11)
_cell_length_c                   15.0729(16)
_cell_angle_alpha                90
_cell_angle_beta                 96.983(7)
_cell_angle_gamma                90
_cell_volume                     4803.97
loop_
_atom_site_label
_atom_site_type_symbol
_atom_site_fract_x
_atom_site_fract_y
_atom_site_fract_z
Ag1 Ag 0.513749(12) 0.38317(4) 0.62610(3)
Ag2 Ag 1.010267(14) 0.93212(5) 0.61396(4)
C1 C 0.79488(14) 0.6274(4) 0.7059(3)
H1 H 0.7972 0.5436 0.7334
H2 H 0.8242 0.6630 0.7093
C2 C 0.77677(15) 0.6133(5) 0.6102(3)
H3 H 0.7758 0.6958 0.5807
H4 H 0.7952 0.5566 0.5801
C3 C 0.69911(14) 0.6423(5) 0.5922(3)
C4 C 0.65715(14) 0.5847(4) 0.6126(3)
C5 C 0.65396(16) 0.4651(5) 0.6483(4)
H5 H 0.6793 0.4171 0.6634
C6 C 0.61935(15) 0.6532(5) 0.5948(3)
H6 H 0.6199 0.7363 0.5732
C7 C 0.61437(17) 0.4158(5) 0.6620(4)
H7 H 0.6133 0.3347 0.6868
C8 C 0.57963(16) 0.5963(5) 0.6096(4)
H8 H 0.5539 0.6433 0.5967
C9 C 0.77447(14) 0.6766(5) 0.8510(3)
H9 H 0.7709 0.7530 0.8859
H10 H 0.8042 0.6454 0.8668
C10 C 0.74270(14) 0.5774(5) 0.8738(4)
H11 H 0.7428 0.5049 0.8337
H12 H 0.7504 0.5477 0.9346
C11 C 0.66727(14) 0.5677(5) 0.8880(3)
C12 C 0.62547(13) 0.6430(4) 0.8817(3)
C13 C 0.62022(16) 0.7613(5) 0.8420(3)
H13 H 0.6432 0.7985 0.8164
C14 C 0.59006(15) 0.5938(4) 0.9200(3)
H14 H 0.5922 0.5155 0.9493
C15 C 0.58106(16) 0.8236(5) 0.8404(3)
H15 H 0.5782 0.9032 0.8129
C16 C 0.55228(14) 0.6624(5) 0.9137(3)
H16 H 0.5285 0.6267 0.9376
C17 C 0.77243(13) 0.8447(4) 0.7388(3)
H17 H 0.7760 0.8574 0.6764
H18 H 0.7984 0.8775 0.7747
C18 C 0.73208(14) 0.9184(4) 0.7609(3)
H19 H 0.7058 0.8799 0.7298
H20 H 0.7303 0.9134 0.8246
C19 C 0.72056(15) 1.0688(5) 0.6395(3)
H21 H 0.6896 1.0907 0.6310
H22 H 0.7241 0.9886 0.6090
C20 C 0.74583(16) 1.1699(6) 0.5990(4)
H23 H 0.7326 1.1876 0.5385
H24 H 0.7457 1.2480 0.6336
C21 C 0.82300(18) 1.1962(5) 0.6301(3)
C22 C 0.86641(15) 1.1329(4) 0.6325(3)
C23 C 0.86993(17) 1.0095(5) 0.6024(4)
H25 H 0.8449 0.9627 0.5821
C24 C 0.90439(18) 1.1947(5) 0.6630(4)
H26 H 0.9034 1.2772 0.6856
C25 C 0.94420(18) 1.1348(6) 0.6604(4)
H27 H 0.9697 1.1791 0.6809
C26 C 0.91063(18) 0.9570(5) 0.6027(4)
H28 H 0.9126 0.8735 0.5825
C27 C 0.70982(14) 1.1366(5) 0.7875(3)
H29 H 0.6803 1.1028 0.7865
H30 H 0.7074 1.2200 0.7593
C28 C 0.72903(14) 1.1527(5) 0.8818(3)
H31 H 0.7093 1.2030 0.9135
H32 H 0.7326 1.0697 0.9104
C29 C 0.80682(15) 1.1422(5) 0.9079(3)
C30 C 0.84881(14) 1.2141(4) 0.9053(3)
C31 C 0.88726(16) 1.1615(5) 0.9424(4)
H33 H 0.8874 1.0823 0.9704
C32 C 0.85057(16) 1.3308(5) 0.8660(4)
H34 H 0.8250 1.3709 0.8409
C33 C 0.89065(19) 1.3886(5) 0.8639(5)
H35 H 0.8914 1.4673 0.8355
C34 C 0.92610(16) 1.2266(6) 0.9380(4)
H36 H 0.9521 1.1889 0.9634
N1 N 0.76810(11) 0.7091(3) 0.7561(2)
N2 N 0.73457(11) 1.0525(3) 0.7342(2)
N3 N 0.57682(12) 0.4805(4) 0.6407(3)
N4 N 0.54675(11) 0.7769(4) 0.8759(2)
N5 N 0.94763(14) 1.0185(5) 0.6304(3)
N6 N 0.92818(13) 1.3382(4) 0.9000(3)
O1 O 0.73267(10) 0.5607(3) 0.6067(2)
O2 O 0.70229(11) 0.7506(3) 0.5659(2)
O3 O 0.70002(9) 0.6379(3) 0.8640(2)
O4 O 0.67042(11) 0.4605(3) 0.9121(3)
O5 O 0.79043(11) 1.1254(3) 0.5981(2)
O6 O 0.81893(14) 1.3034(4) 0.6554(4)
O7 O 0.77148(10) 1.2161(3) 0.8868(2)
O8 O 0.80547(11) 1.0307(4) 0.9268(2)
Ag1A Ag 0.486251(12) 0.88317(4) 0.87390(3)
Ag2A Ag 0.989733(14) 1.43212(5) 0.88604(4)
N4A N 0.45325(11) 0.2769(4) 0.6241(2)
N6A N 1.07182(13) 0.8382(4) 0.6000(3)
C35 C 0.53228(19) 0.2872(6) 0.8565(4)
H37 H 0.5010 0.2777 0.8520
H38 H 0.5413 0.2874 0.7977
H39 H 0.5407 0.3663 0.8859
C36 C 0.55329(16) 0.1814(5) 0.9078(3)
C37 C 0.60221(17) 0.1778(7) 0.9221(4)
H40 H 0.6117 0.1035 0.9564
H41 H 0.6130 0.2532 0.9538
H42 H 0.6134 0.1746 0.8654
O18 O 0.53147(13) 0.1000(4) 0.9389(3)
C38 C 0.8931(2) 0.7672(8) 0.8947(6)
H43 H 0.8832 0.6868 0.9154
H44 H 0.8821 0.7782 0.8328
H45 H 0.8826 0.8353 0.9291
C39 C 0.9405(2) 0.7691(6) 0.9047(5)
C40 C 0.9633(3) 0.8813(7) 0.8755(6)
H46 H 0.9945 0.8676 0.8861
H47 H 0.9557 0.9548 0.9084
H48 H 0.9548 0.8950 0.8128
O17 O 0.96219(17) 0.6816(5) 0.9387(3)
Cl1 Cl 0.56975(5) 0.05355(12) 0.64640(9)
O9 O 0.6060(2) 0.0809(9) 0.6975(6)
O10 O 0.5700(3) -0.0687(5) 0.6248(4)
O11 O 0.55734(19) 0.1293(5) 0.5731(3)
O12 O 0.5384(2) 0.0642(7) 0.7089(3)
Cl2 Cl 0.93909(5) 0.59945(14) 0.65895(11)
O13 O 0.9361(4) 0.5467(11) 0.5788(6)
O14 O 0.9485(2) 0.4963(7) 0.7153(5)
O15 O 0.9023(3) 0.6599(9) 0.6701(10)
O16 O 0.97322(17) 0.6815(5) 0.6594(5)
loop_
_geom_bond_atom_site_label_1
_geom_bond_atom_site_label_2
_geom_bond_site_symmetry_1
_geom_bond_site_symmetry_2
Ag1 N3 1_555 1_555
Ag2 N5 1_555 1_555
C1 H1 1_555 1_555
H2 C1 1_555 1_555
C2 C1 1_555 1_555
H3 C2 1_555 1_555
H4 C2 1_555 1_555
C3 C4 1_555 1_555
C4 C5 1_555 1_555
C5 H5 1_555 1_555
C6 C4 1_555 1_555
H6 C6 1_555 1_555
C7 C5 1_555 1_555
H7 C7 1_555 1_555
C8 C6 1_555 1_555
H8 C8 1_555 1_555
C9 H9 1_555 1_555
H10 C9 1_555 1_555
C10 C9 1_555 1_555
H11 C10 1_555 1_555
H12 C10 1_555 1_555
C11 C12 1_555 1_555
C12 C13 1_555 1_555
C13 H13 1_555 1_555
C14 C12 1_555 1_555
H14 C14 1_555 1_555
C15 C13 1_555 1_555
H15 C15 1_555 1_555
C16 C14 1_555 1_555
H16 C16 1_555 1_555
C17 H17 1_555 1_555
H18 C17 1_555 1_555
C18 C17 1_555 1_555
H19 C18 1_555 1_555
H20 C18 1_555 1_555
C19 H21 1_555 1_555
H22 C19 1_555 1_555
C20 C19 1_555 1_555
H23 C20 1_555 1_555
H24 C20 1_555 1_555
C21 C22 1_555 1_555
C22 C23 1_555 1_555
C23 H25 1_555 1_555
C24 C22 1_555 1_555
H26 C24 1_555 1_555
C25 C24 1_555 1_555
H27 C25 1_555 1_555
C26 C23 1_555 1_555
H28 C26 1_555 1_555
C27 H29 1_555 1_555
H30 C27 1_555 1_555
C28 C27 1_555 1_555
H31 C28 1_555 1_555
H32 C28 1_555 1_555
C29 C30 1_555 1_555
C30 C31 1_555 1_555
C31 H33 1_555 1_555
C32 C30 1_555 1_555
H34 C32 1_555 1_555
C33 C32 1_555 1_555
H35 C33 1_555 1_555
C34 C31 1_555 1_555
H36 C34 1_555 1_555
C35 H37 1_555 1_555
H38 C35 1_555 1_555
H39 C35 1_555 1_555
C36 C35 1_555 1_555
C37 C36 1_555 1_555
H40 C37 1_555 1_555
H41 C37 1_555 1_555
H42 C37 1_555 1_555
C38 H43 1_555 1_555
H44 C38 1_555 1_555
H45 C38 1_555 1_555
C39 C38 1_555 1_555
C40 C39 1_555 1_555
H46 C40 1_555 1_555
H47 C40 1_555 1_555
H48 C40 1_555 1_555
Cl1 O9 1_555 1_555
Cl2 O13 1_555 1_555
N1 C1 1_555 1_555
N2 C18 1_555 1_555
N3 C7 1_555 1_555
N4 C15 1_555 1_555
N5 C25 1_555 1_555
N6 C33 1_555 1_555
O1 C2 1_555 1_555
O2 C3 1_555 1_555
O3 C10 1_555 1_555
O4 C11 1_555 1_555
O5 C20 1_555 1_555
O6 C21 1_555 1_555
O7 C28 1_555 1_555
O8 C29 1_555 1_555
O10 Cl1 1_555 1_555
O11 Cl1 1_555 1_555
O12 Cl1 1_555 1_555
O14 Cl2 1_555 1_555
O15 Cl2 1_555 1_555
O16 Cl2 1_555 1_555
O17 C39 1_555 1_555
O18 C36 1_555 1_555
Ag1A N4 1_555 1_555
Ag2A N6 1_555 1_555
N4A Ag1 1_555 1_555
N6A Ag2 1_555 1_555
C3 O1 1_555 1_555
C8 N3 1_555 1_555
C9 N1 1_555 1_555
C11 O3 1_555 1_555
C16 N4 1_555 1_555
C17 N1 1_555 1_555
C19 N2 1_555 1_555
C21 O5 1_555 1_555
C26 N5 1_555 1_555
C27 N2 1_555 1_555
C29 O7 1_555 1_555
C34 N6 1_555 1_555

#END
