
#######################################################################
#
#                 Cambridge Crystallographic Data Centre
#                                CCDC 
#
#######################################################################
#
# If this CIF has been generated from an entry in the Cambridge 
# Structural Database, then it will include bibliographic, chemical, 
# crystal, experimental, refinement or atomic coordinate data resulting 
# from the CCDC's data processing and validation procedures.
#
#######################################################################

data_IVOMUC
_symmetry_cell_setting           monoclinic
_symmetry_space_group_name_H-M   'C 2/c'
_symmetry_Int_Tables_number      15
_space_group_name_Hall           '-C 2yn'
loop_
_symmetry_equiv_pos_site_id
_symmetry_equiv_pos_as_xyz
1 x,y,z
2 -x,y,1/2-z
3 1/2+x,1/2+y,z
4 1/2-x,1/2+y,1/2-z
5 -x,-y,-z
6 x,-y,1/2+z
7 1/2-x,1/2-y,-z
8 1/2+x,1/2-y,1/2+z
_cell_length_a                   30.105(3)
_cell_length_b                   11.2513(11)
_cell_length_c                   13.6718(11)
_cell_angle_alpha                90
_cell_angle_beta                 91.907(6)
_cell_angle_gamma                90
_cell_volume                     4628.35
loop_
_atom_site_label
_atom_site_type_symbol
_atom_site_fract_x
_atom_site_fract_y
_atom_site_fract_z
Ag1 Ag 1.02550(5) 0.57135(16) 0.85192(9)
O1 O 0.8259(4) 0.2576(9) 0.9465(7)
O2 O 0.8065(4) 0.4468(7) 0.9721(6)
O3 O 0.7669(3) 0.8175(9) 0.7706(6)
O4 O 0.7466(4) 0.6266(9) 0.7364(6)
N1 N 0.9629(5) 0.4979(16) 0.8921(9)
N2 N 0.9091(7) 0.6199(18) 0.6856(9)
N3 N 0.7329(4) 0.6074(8) 0.9397(7)
C1 C 0.9515(7) 0.3826(18) 0.8795(10)
H1 H 0.9729 0.3315 0.8559
C2 C 0.9117(6) 0.3363(16) 0.8985(12)
H2 H 0.9060 0.2558 0.8887
C3 C 0.8797(6) 0.4098(14) 0.9324(9)
C4 C 0.8904(6) 0.5322(14) 0.9487(9)
H3 H 0.8698 0.5849 0.9732
C5 C 0.9333(7) 0.5694(19) 0.9263(11)
H4 H 0.9410 0.6486 0.9363
C6 C 0.8345(5) 0.3551(16) 0.9510(8)
C7 C 0.7611(5) 0.4073(10) 0.9859(9)
H5 H 0.7605 0.3466 1.0362
H6 H 0.7485 0.3745 0.9255
C8 C 0.7348(5) 0.5157(11) 1.0165(8)
H7 H 0.7049 0.4916 1.0312
H8 H 0.7485 0.5491 1.0756
C9 C 0.6986(5) 0.5784(11) 0.8663(8)
H9 H 0.6698 0.5971 0.8921
H10 H 0.6993 0.4936 0.8537
C10 C 0.7036(5) 0.6440(12) 0.7708(10)
H11 H 0.6817 0.6150 0.7227
H12 H 0.6983 0.7281 0.7806
C11 C 0.7755(6) 0.721(2) 0.7497(9)
C12 C 0.8222(6) 0.6784(14) 0.7304(9)
C13 C 0.8345(6) 0.5662(16) 0.7102(9)
H13 H 0.8129 0.5071 0.7077
C14 C 0.8788(8) 0.535(2) 0.6926(11)
H14 H 0.8867 0.4555 0.6859
C15 C 0.8970(7) 0.728(2) 0.7025(12)
H15 H 0.9187 0.7868 0.6986
C16 C 0.8557(7) 0.7647(15) 0.7255(10)
H16 H 0.8497 0.8444 0.7375
C17 C 0.7266(4) 0.7279(9) 0.9819(9)
H17 H 0.7066 0.7244 1.0359
H18 H 0.7141 0.7815 0.9326
Ag1F Ag 0.47450(5) 0.92865(16) 1.14808(9)
Ag1A Ag 0.97450(5) 0.57135(16) 0.64808(9)
Ag1G Ag 0.52550(5) 0.92865(16) 1.35192(9)
O1F O 0.6741(4) 1.2424(9) 1.0535(7)
O2F O 0.6935(4) 1.0532(7) 1.0279(6)
O3F O 0.7331(3) 0.6825(9) 1.2294(6)
O4F O 0.7534(4) 0.8734(9) 1.2636(6)
N1F N 0.5371(5) 1.0021(16) 1.1079(9)
N2F N 0.5909(7) 0.8801(18) 1.3144(9)
N2A N 1.0909(7) 0.6199(18) 0.8144(9)
N2G N 0.4091(7) 0.8801(18) 1.1856(9)
N3F N 0.7671(4) 0.8926(8) 1.0603(7)
C1F C 0.5485(7) 1.1174(18) 1.1205(10)
H1F H 0.5271 1.1685 1.1441
C2F C 0.5883(6) 1.1637(16) 1.1015(12)
H2F H 0.5940 1.2442 1.1113
C3F C 0.6203(6) 1.0902(14) 1.0676(9)
C4F C 0.6096(6) 0.9678(14) 1.0513(9)
H3F H 0.6302 0.9151 1.0268
C5F C 0.5667(7) 0.9306(19) 1.0737(11)
H4F H 0.5590 0.8514 1.0637
C6F C 0.6655(5) 1.1449(16) 1.0490(8)
C7F C 0.7389(5) 1.0927(10) 1.0141(9)
H5F H 0.7395 1.1534 0.9638
H6F H 0.7515 1.1255 1.0745
C8F C 0.7652(5) 0.9843(11) 0.9835(8)
H7F H 0.7951 1.0084 0.9688
H8F H 0.7515 0.9509 0.9244
C9F C 0.8014(5) 0.9216(11) 1.1337(8)
H9F H 0.8302 0.9029 1.1079
H10F H 0.8007 1.0064 1.1463
C10F C 0.7964(5) 0.8560(12) 1.2292(10)
H11F H 0.8183 0.8850 1.2773
H12F H 0.8017 0.7719 1.2194
C11F C 0.7245(6) 0.779(2) 1.2503(9)
C12F C 0.6778(6) 0.8216(14) 1.2696(9)
C13F C 0.6655(6) 0.9338(16) 1.2898(9)
H13F H 0.6871 0.9929 1.2923
C14F C 0.6212(8) 0.965(2) 1.3074(11)
H14F H 0.6133 1.0445 1.3141
C15F C 0.6030(7) 0.772(2) 1.2975(12)
H15F H 0.5813 0.7132 1.3014
C16F C 0.6443(7) 0.7353(15) 1.2745(10)
H16F H 0.6503 0.6556 1.2625
C17F C 0.7734(4) 0.7721(9) 1.0181(9)
H17F H 0.7934 0.7756 0.9641
H18F H 0.7859 0.7185 1.0674
F1 F 0.9480(5) 0.3018(15) 0.6579(11)
F2 F 0.9204(6) 0.1280(16) 0.6921(13)
F3 F 0.9263(11) 0.1817(15) 0.5472(11)
F4 F 0.8834(6) 0.2624(12) 0.632(2)
B1 B 0.9228(11) 0.224(3) 0.6397(18)
O5 O 0.9971(6) 0.7980(17) 0.8732(12)
H19 H 1.0266 0.8087 0.9004
H20 H 0.9799 0.7650 0.9181
loop_
_geom_bond_atom_site_label_1
_geom_bond_atom_site_label_2
_geom_bond_site_symmetry_1
_geom_bond_site_symmetry_2
Ag1 N1 1_555 1_555
O1 C6 1_555 1_555
O2 C6 1_555 1_555
O3 C11 1_555 1_555
O4 C10 1_555 1_555
N1 C1 1_555 1_555
N2 C14 1_555 1_555
N3 C8 1_555 1_555
C1 H1 1_555 1_555
C2 C1 1_555 1_555
H2 C2 1_555 1_555
C3 C2 1_555 1_555
C4 C3 1_555 1_555
H3 C4 1_555 1_555
C5 N1 1_555 1_555
H4 C5 1_555 1_555
C6 C3 1_555 1_555
C7 O2 1_555 1_555
H5 C7 1_555 1_555
H6 C7 1_555 1_555
C8 C7 1_555 1_555
H7 C8 1_555 1_555
H8 C8 1_555 1_555
C9 N3 1_555 1_555
H9 C9 1_555 1_555
H10 C9 1_555 1_555
C10 C9 1_555 1_555
H11 C10 1_555 1_555
H12 C10 1_555 1_555
C11 O4 1_555 1_555
C12 C11 1_555 1_555
C13 C12 1_555 1_555
H13 C13 1_555 1_555
C14 C13 1_555 1_555
H14 C14 1_555 1_555
C15 N2 1_555 1_555
H15 C15 1_555 1_555
C16 C12 1_555 1_555
H16 C16 1_555 1_555
C17 N3 1_555 1_555
H17 C17 1_555 1_555
H18 C17 1_555 1_555
F1 B1 1_555 1_555
F2 B1 1_555 1_555
F3 B1 1_555 1_555
F4 B1 1_555 1_555
O5 H19 1_555 1_555
H20 O5 1_555 1_555
Ag1F N1F 1_555 1_555
Ag1A N2 1_555 1_555
Ag1G N2F 1_555 1_555
O1F C6F 1_555 1_555
O2F C6F 1_555 1_555
O3F C11F 1_555 1_555
O4F C10F 1_555 1_555
N1F C1F 1_555 1_555
N2F C14F 1_555 1_555
N2A Ag1 1_555 1_555
N2G Ag1F 1_555 1_555
N3F C8F 1_555 1_555
C1F H1F 1_555 1_555
C2F C1F 1_555 1_555
H2F C2F 1_555 1_555
C3F C2F 1_555 1_555
C4F C3F 1_555 1_555
H3F C4F 1_555 1_555
C5F N1F 1_555 1_555
H4F C5F 1_555 1_555
C6F C3F 1_555 1_555
C7F O2F 1_555 1_555
H5F C7F 1_555 1_555
H6F C7F 1_555 1_555
C8F C7F 1_555 1_555
H7F C8F 1_555 1_555
H8F C8F 1_555 1_555
C9F N3F 1_555 1_555
H9F C9F 1_555 1_555
H10F C9F 1_555 1_555
C10F C9F 1_555 1_555
H11F C10F 1_555 1_555
H12F C10F 1_555 1_555
C11F O4F 1_555 1_555
C12F C11F 1_555 1_555
C13F C12F 1_555 1_555
H13F C13F 1_555 1_555
C14F C13F 1_555 1_555
H14F C14F 1_555 1_555
C15F N2F 1_555 1_555
H15F C15F 1_555 1_555
C16F C12F 1_555 1_555
H16F C16F 1_555 1_555
C17F C17 1_555 1_555
H17F C17F 1_555 1_555
H18F C17F 1_555 1_555
C4 C5 1_555 1_555
C15 C16 1_555 1_555
N3F C17F 1_555 1_555
C4F C5F 1_555 1_555
C15F C16F 1_555 1_555

#END
