
#######################################################################
#
#                 Cambridge Crystallographic Data Centre
#                                CCDC 
#
#######################################################################
#
# If this CIF has been generated from an entry in the Cambridge 
# Structural Database, then it will include bibliographic, chemical, 
# crystal, experimental, refinement or atomic coordinate data resulting 
# from the CCDC's data processing and validation procedures.
#
#######################################################################

data_IVONAI01
_symmetry_cell_setting           monoclinic
_symmetry_space_group_name_H-M   'P 21/n'
_symmetry_Int_Tables_number      14
_space_group_name_Hall           '-P 2yn'
loop_
_symmetry_equiv_pos_site_id
_symmetry_equiv_pos_as_xyz
1 x,y,z
2 1/2-x,1/2+y,1/2-z
3 -x,-y,-z
4 1/2+x,1/2-y,1/2+z
_cell_length_a                   7.0738(7)
_cell_length_b                   33.236(3)
_cell_length_c                   11.0043(11)
_cell_angle_alpha                90
_cell_angle_beta                 102.453(2)
_cell_angle_gamma                90
_cell_volume                     2526.3
loop_
_atom_site_label
_atom_site_type_symbol
_atom_site_fract_x
_atom_site_fract_y
_atom_site_fract_z
Mn1 Mn 0.11390(8) 1.058551(15) 0.66607(5)
V1 V -0.17856(9) 1.152880(17) 0.59952(6)
V2 V -0.02523(8) 1.129370(17) 0.31269(5)
V3 V 0.24291(8) 0.956902(17) 0.62278(5)
V4 V 0.41570(9) 1.093860(19) 0.45686(6)
O1 O 0.2368(4) 0.99970(7) 0.6977(2)
O2 O -0.0662(4) 1.15076(9) 0.1773(2)
O3 O -0.4014(4) 1.12682(8) 0.5074(3)
O4 O -0.1018(4) 1.16017(8) 0.4089(2)
O5 O 0.2342(4) 1.11986(9) 0.3553(3)
O6 O 0.1528(4) 0.91799(8) 0.7050(2)
O7 O -0.1119(4) 1.03917(8) 0.5189(2)
O8 O -0.0152(4) 1.11657(8) 0.6268(3)
O9 O 0.4923(4) 0.94541(8) 0.6213(3)
O10 O 0.3354(4) 1.07574(9) 0.5734(3)
O11 O -0.2416(4) 1.15981(9) 0.7313(3)
C1 C 0.0153(5) 1.05824(11) 0.9257(3)
C2 C 0.2008(5) 1.08037(11) 0.9464(3)
C3 C -0.0109(6) 1.23767(11) 0.6250(4)
C4 C -0.2126(7) 1.24483(12) 0.5601(4)
C5 C 0.3610(7) 1.21788(16) 0.7381(5)
C6 C -0.2939(10) 1.28281(16) 0.5321(5)
C7 C 0.1250(8) 1.26737(14) 0.6674(5)
C8 C 0.3099(8) 1.25754(15) 0.7251(5)
C9 C -0.5813(9) 1.2522(2) 0.4263(5)
C10 C -0.4801(10) 1.28596(18) 0.4644(5)
C11 C -0.4977(8) 1.21520(17) 0.4600(4)
C12 C 0.2214(6) 1.18947(13) 0.6945(4)
C13 C 0.4659(7) 1.11565(13) 1.0752(4)
C14 C 0.4504(6) 1.10430(12) 0.8614(4)
C15 C 0.2907(6) 1.09580(14) 1.0626(4)
C16 C 0.5452(7) 1.12055(13) 0.9733(4)
C17 C -0.3209(6) 1.01466(14) 0.8748(4)
C18 C -0.2221(6) 1.02454(13) 0.7837(4)
C19 C -0.2479(7) 1.02722(15) 0.9943(4)
C20 C -0.0802(6) 1.04958(14) 1.0205(4)
N1 N 0.2825(4) 1.08449(9) 0.8472(3)
N2 N -0.0571(4) 1.04579(9) 0.8078(3)
N3 N -0.3169(5) 1.21120(10) 0.5256(3)
N4 N 0.0396(5) 1.19856(9) 0.6411(3)
H1 H 0.505(5) 1.1071(11) 0.793(3)
H2 H 0.662(6) 1.1336(13) 0.974(4)
H3 H 0.543(6) 1.1262(13) 1.157(4)
H4 H 0.232(7) 1.0934(14) 1.129(4)
H5 H -0.035(6) 1.0606(12) 1.105(4)
H6 H -0.423(6) 1.0006(13) 0.857(4)
H7 H -0.259(6) 1.0153(12) 0.705(4)
H8 H 0.247(6) 1.1644(12) 0.698(4)
H9 H 0.402(8) 1.2757(15) 0.759(4)
H10 H 0.494(8) 1.2099(15) 0.766(5)
H11 H 0.104(7) 1.2901(15) 0.657(5)
H12 H -0.545(8) 1.3089(18) 0.447(5)
H13 H -0.711(10) 1.254(2) 0.379(6)
H14 H -0.558(6) 1.1950(12) 0.445(3)
H15 H -0.306(6) 1.0202(12) 1.067(3)
H16 H -0.238(7) 1.3023(16) 0.555(5)
V2B V 0.02523(8) 0.870630(17) 0.68731(5)
V3B V -0.24291(8) 1.043098(17) 0.37722(5)
V4_2 V -0.58430(9) 1.093860(19) 0.45686(6)
V4B V 0.58430(9) 0.906140(19) 0.54314(6)
O3_2 O 0.5986(4) 1.12682(8) 0.5074(3)
O6B O -0.1528(4) 1.08201(8) 0.2950(2)
O7B O 0.1119(4) 0.96083(8) 0.4811(2)
O9B O 0.5077(4) 1.05459(8) 0.3787(3)
loop_
_geom_bond_atom_site_label_1
_geom_bond_atom_site_label_2
_geom_bond_site_symmetry_1
_geom_bond_site_symmetry_2
Mn1 O1 1_555 1_555
V1 O3 1_555 1_555
V2 O2 1_555 1_555
V3 O1 1_555 1_555
V4 O5 1_555 1_555
O3 V4_2 1_555 1_555
O4 V1 1_555 1_555
O5 V2 1_555 1_555
O6 V3 1_555 1_555
O7 Mn1 1_555 1_555
O8 Mn1 1_555 1_555
O9 V3 1_555 1_555
O10 Mn1 1_555 1_555
O11 V1 1_555 1_555
C1 C2 1_555 1_555
C2 C15 1_555 1_555
C3 C4 1_555 1_555
C4 C6 1_555 1_555
C5 C8 1_555 1_555
C6 C10 1_555 1_555
C7 C3 1_555 1_555
C8 C7 1_555 1_555
C9 C10 1_555 1_555
C10 H12 1_555 1_555
C11 C9 1_555 1_555
C12 C5 1_555 1_555
C13 C15 1_555 1_555
C14 C16 1_555 1_555
C15 H4 1_555 1_555
C16 C13 1_555 1_555
C17 C18 1_555 1_555
C18 N2 1_555 1_555
C19 C17 1_555 1_555
C20 C1 1_555 1_555
N1 Mn1 1_555 1_555
N2 Mn1 1_555 1_555
N3 V1 1_555 1_555
N4 V1 1_555 1_555
H1 C14 1_555 1_555
H2 C16 1_555 1_555
H3 C13 1_555 1_555
H5 C20 1_555 1_555
H6 C17 1_555 1_555
H7 C18 1_555 1_555
H8 C12 1_555 1_555
H9 C8 1_555 1_555
H10 C5 1_555 1_555
H11 C7 1_555 1_555
H13 C9 1_555 1_555
H14 C11 1_555 1_555
H15 C19 1_555 1_555
H16 C6 1_555 1_555
V2B O6 1_555 1_555
V3B O7 1_555 1_555
V4B O9 1_555 1_555
O3_2 V4 1_555 1_555
O6B V2 1_555 1_555
O7B V3 1_555 1_555
O9B V4 1_555 1_555
V1 O8 1_555 1_555
V2 O4 1_555 1_555
V4 O10 1_555 1_555
C1 N2 1_555 1_555
C2 N1 1_555 1_555
C3 N4 1_555 1_555
C4 N3 1_555 1_555
C11 N3 1_555 1_555
C12 N4 1_555 1_555
C14 N1 1_555 1_555
C19 C20 1_555 1_555
V3B O6B 1_555 1_555

#END
