
#######################################################################
#
#                 Cambridge Crystallographic Data Centre
#                                CCDC 
#
#######################################################################
#
# If this CIF has been generated from an entry in the Cambridge 
# Structural Database, then it will include bibliographic, chemical, 
# crystal, experimental, refinement or atomic coordinate data resulting 
# from the CCDC's data processing and validation procedures.
#
#######################################################################

data_IVOPAL
_symmetry_cell_setting           orthorhombic
_symmetry_space_group_name_H-M   'P n m a'
_symmetry_Int_Tables_number      62
_space_group_name_Hall           '-P 2ac 2n'
loop_
_symmetry_equiv_pos_site_id
_symmetry_equiv_pos_as_xyz
1 x,y,z
2 1/2-x,-y,1/2+z
3 1/2+x,1/2-y,1/2-z
4 -x,1/2+y,-z
5 -x,-y,-z
6 1/2+x,y,1/2-z
7 1/2-x,1/2+y,1/2+z
8 x,1/2-y,z
_cell_length_a                   8.178(3)
_cell_length_b                   21.922(7)
_cell_length_c                   8.569(3)
_cell_angle_alpha                90
_cell_angle_beta                 90
_cell_angle_gamma                90
_cell_volume                     1536.23
loop_
_atom_site_label
_atom_site_type_symbol
_atom_site_fract_x
_atom_site_fract_y
_atom_site_fract_z
Br1 Br 0.31942(9) 0.03328(3) 0.78756(9)
Cu1 Cu 0.54686(12) 0.2500 0.41832(9)
N1 N 0.5259(6) 0.1820(2) 0.5923(4)
N2 N 0.5384(5) 0.1955(2) 0.7487(4)
C1 C 0.4224(10) 0.0981(3) 0.4309(7)
H1 H 0.4288 0.1283 0.3484
H2 H 0.3140 0.0801 0.4320
H3 H 0.5031 0.0665 0.4126
C2 C 0.4552(7) 0.1279(3) 0.5845(6)
C3 C 0.4185(7) 0.1078(3) 0.7339(6)
C4 C 0.4746(6) 0.1502(2) 0.8392(6)
C5 C 0.4679(8) 0.1514(3) 1.0119(6)
H4 H 0.3810 0.1785 1.0454
H5 H 0.5715 0.1658 1.0526
H6 H 0.4468 0.1106 1.0507
C6 C 0.6262(10) 0.2500 0.7952(9)
H7 H 0.7348 0.2500 0.7469
H8 H 0.6407 0.2500 0.9087
C7 C 0.7149(11) 0.2500 0.2670(9)
N3 N 0.8183(9) 0.2500 0.1740(7)
Br1G Br 0.31942(9) 0.46672(3) 0.78756(9)
Cu1B Cu 1.04686(12) 0.2500 0.08168(9)
N1G N 0.5259(6) 0.3180(2) 0.5923(4)
N2G N 0.5384(5) 0.3045(2) 0.7487(4)
C1G C 0.4224(10) 0.4019(3) 0.4309(7)
H1G H 0.4288 0.3717 0.3484
H2G H 0.3140 0.4199 0.4320
H3G H 0.5031 0.4335 0.4126
C2G C 0.4552(7) 0.3721(3) 0.5845(6)
C3G C 0.4185(7) 0.3922(3) 0.7339(6)
C4G C 0.4746(6) 0.3498(2) 0.8392(6)
C5G C 0.4679(8) 0.3486(3) 1.0119(6)
H4G H 0.3810 0.3215 1.0454
H5G H 0.5715 0.3342 1.0526
H6G H 0.4468 0.3894 1.0507
N3B N 0.3183(9) 0.2500 0.3260(7)
loop_
_geom_bond_atom_site_label_1
_geom_bond_atom_site_label_2
_geom_bond_site_symmetry_1
_geom_bond_site_symmetry_2
Br1 C3 1_555 1_555
Cu1 N1 1_555 1_555
N1 N2 1_555 1_555
N2 C4 1_555 1_555
C1 H1 1_555 1_555
H2 C1 1_555 1_555
H3 C1 1_555 1_555
C2 N1 1_555 1_555
C3 C2 1_555 1_555
C4 C3 1_555 1_555
C5 C4 1_555 1_555
H4 C5 1_555 1_555
H5 C5 1_555 1_555
H6 C5 1_555 1_555
C6 N2 1_555 1_555
H7 C6 1_555 1_555
H8 C6 1_555 1_555
C7 Cu1 1_555 1_555
N3 C7 1_555 1_555
Br1G C3G 1_555 1_555
Cu1B N3 1_555 1_555
N1G Cu1 1_555 1_555
N2G C6 1_555 1_555
C1G H1G 1_555 1_555
H2G C1G 1_555 1_555
H3G C1G 1_555 1_555
C2G N1G 1_555 1_555
C3G C2G 1_555 1_555
C4G N2G 1_555 1_555
C5G C4G 1_555 1_555
H4G C5G 1_555 1_555
H5G C5G 1_555 1_555
H6G C5G 1_555 1_555
N3B Cu1 1_555 1_555
C1 C2 1_555 1_555
N1G N2G 1_555 1_555
C1G C2G 1_555 1_555
C3G C4G 1_555 1_555

#END
