
#######################################################################
#
#                 Cambridge Crystallographic Data Centre
#                                CCDC 
#
#######################################################################
#
# If this CIF has been generated from an entry in the Cambridge 
# Structural Database, then it will include bibliographic, chemical, 
# crystal, experimental, refinement or atomic coordinate data resulting 
# from the CCDC's data processing and validation procedures.
#
#######################################################################

data_IVOQEQ
_symmetry_cell_setting           orthorhombic
_symmetry_space_group_name_H-M   'P 21 21 21'
_symmetry_Int_Tables_number      19
_space_group_name_Hall           'P 2ac 2ab'
loop_
_symmetry_equiv_pos_site_id
_symmetry_equiv_pos_as_xyz
1 x,y,z
2 1/2-x,-y,1/2+z
3 -x,1/2+y,1/2-z
4 1/2+x,1/2-y,-z
_cell_length_a                   7.255(2)
_cell_length_b                   12.166(4)
_cell_length_c                   16.001(5)
_cell_angle_alpha                90
_cell_angle_beta                 90
_cell_angle_gamma                90
_cell_volume                     1412.32
loop_
_atom_site_label
_atom_site_type_symbol
_atom_site_fract_x
_atom_site_fract_y
_atom_site_fract_z
Cu1 Cu -0.04089(7) 0.38045(4) -0.04047(3)
N1 N 0.0158(4) 0.4940(2) 0.0372(2)
O1 O 0.1186(5) 0.2753(2) 0.0134(2)
O2 O 0.3352(5) 0.2322(2) 0.1052(2)
O3 O -0.0949(4) 0.4790(2) -0.12730(18)
C1 C 0.1999(7) 0.2881(3) 0.0832(3)
C2 C 0.1308(5) 0.3692(3) 0.1460(2)
C3 C 0.0435(6) 0.4674(3) 0.1237(3)
C4 C -0.0158(6) 0.5392(3) 0.1853(3)
H1 H -0.0792 0.6027 0.1705
C5 C 0.0185(7) 0.5172(4) 0.2688(3)
H2 H -0.0203 0.5663 0.3098
C6 C 0.1106(7) 0.4222(4) 0.2910(3)
H3 H 0.1366 0.4080 0.3469
C7 C 0.1638(6) 0.3489(3) 0.2305(3)
H4 H 0.2230 0.2844 0.2462
C8 C 0.0325(6) 0.5994(3) 0.0174(2)
H5 H 0.0770 0.6461 0.0587
C9 C -0.0107(5) 0.6476(3) -0.0606(2)
C10 C -0.0753(5) 0.5854(3) -0.1286(3)
C11 C -0.1263(6) 0.6410(3) -0.2042(3)
H6 H -0.1705 0.6003 -0.2491
C12 C -0.1114(7) 0.7508(4) -0.2112(3)
H7 H -0.1461 0.7841 -0.2611
C13 C -0.0451(7) 0.8167(3) -0.1457(3)
C14 C 0.0033(5) 0.7688(3) -0.0677(2)
C15 C 0.0546(7) 0.8367(3) -0.0028(3)
H8 H 0.0855 0.8061 0.0486
C16 C 0.0611(7) 0.9506(3) -0.0130(3)
H9 H 0.0913 0.9952 0.0322
C17 C 0.0228(7) 0.9976(3) -0.0897(3)
H10 H 0.0331 1.0732 -0.0969
C18 C -0.0300(7) 0.9328(3) -0.1543(3)
H11 H -0.0569 0.9650 -0.2056
Cu1C Cu 0.45911(7) 0.11955(4) 0.04047(3)
O2C O -0.1648(5) 0.2678(2) -0.1052(2)
loop_
_geom_bond_atom_site_label_1
_geom_bond_atom_site_label_2
_geom_bond_site_symmetry_1
_geom_bond_site_symmetry_2
Cu1 N1 1_555 1_555
N1 C3 1_555 1_555
O1 Cu1 1_555 1_555
O2 C1 1_555 1_555
O3 Cu1 1_555 1_555
C1 O1 1_555 1_555
C2 C1 1_555 1_555
C3 C2 1_555 1_555
C4 C3 1_555 1_555
H1 C4 1_555 1_555
C5 C4 1_555 1_555
H2 C5 1_555 1_555
C6 C5 1_555 1_555
H3 C6 1_555 1_555
C7 C2 1_555 1_555
H4 C7 1_555 1_555
C8 N1 1_555 1_555
H5 C8 1_555 1_555
C9 C8 1_555 1_555
C10 O3 1_555 1_555
C11 C10 1_555 1_555
H6 C11 1_555 1_555
C12 C11 1_555 1_555
H7 C12 1_555 1_555
C13 C12 1_555 1_555
C14 C9 1_555 1_555
C15 C14 1_555 1_555
H8 C15 1_555 1_555
C16 C15 1_555 1_555
H9 C16 1_555 1_555
C17 C16 1_555 1_555
H10 C17 1_555 1_555
C18 C13 1_555 1_555
H11 C18 1_555 1_555
Cu1C O2 1_555 1_555
O2C Cu1 1_555 1_555
C6 C7 1_555 1_555
C9 C10 1_555 1_555
C13 C14 1_555 1_555
C17 C18 1_555 1_555

#END
