
#######################################################################
#
#                 Cambridge Crystallographic Data Centre
#                                CCDC 
#
#######################################################################
#
# If this CIF has been generated from an entry in the Cambridge 
# Structural Database, then it will include bibliographic, chemical, 
# crystal, experimental, refinement or atomic coordinate data resulting 
# from the CCDC's data processing and validation procedures.
#
#######################################################################

data_IVOWUM
_symmetry_cell_setting           triclinic
_symmetry_space_group_name_H-M   'P -1'
_symmetry_Int_Tables_number      2
_space_group_name_Hall           '-P 1'
loop_
_symmetry_equiv_pos_site_id
_symmetry_equiv_pos_as_xyz
1 x,y,z
2 -x,-y,-z
_cell_length_a                   6.9859(8)
_cell_length_b                   7.0796(8)
_cell_length_c                   16.7118(18)
_cell_angle_alpha                98.3220(10)
_cell_angle_beta                 91.5810(10)
_cell_angle_gamma                109.7450(10)
_cell_volume                     767.135
loop_
_atom_site_label
_atom_site_type_symbol
_atom_site_fract_x
_atom_site_fract_y
_atom_site_fract_z
Cd1 Cd 0.30605(3) 0.64680(3) 0.028197(14)
O1 O 0.3196(6) 0.2573(6) 0.4058(2)
O2 O 0.6022(4) 1.0147(4) -0.08021(15)
O3 O 0.0357(4) 1.3311(4) -0.03031(17)
O4 O 0.3453(4) 1.3260(4) -0.04303(17)
O5 O 0.3208(4) 0.7372(4) -0.09411(17)
N1 N 0.1504(6) 0.4672(5) 0.45087(19)
N2 N 0.2804(5) 0.5448(5) 0.1542(2)
C1 C 0.1796(7) 1.0370(6) -0.3271(3)
H1 H 0.1207 1.0597 -0.3751
C2 C 0.1199(8) 0.3879(8) 0.5275(3)
H2 H 0.2144 0.4874 0.5714
H3 H 0.1499 0.2598 0.5226
C3 C 0.0886(6) 1.0496(6) -0.2551(2)
H4 H -0.0311 1.0848 -0.2539
C4 C 0.0984(7) 0.6514(6) 0.4518(2)
H5 H 0.1157 0.6947 0.3980
H6 H 0.1918 0.7626 0.4925
C5 C 0.1053(6) 0.5069(6) 0.1909(2)
H7 H -0.0114 0.5119 0.1620
C6 C 0.1688(5) 1.0118(5) -0.1842(2)
C7 C 0.4430(6) 0.9558(6) -0.2591(2)
H8 H 0.5669 0.9283 -0.2601
C8 C 0.2557(6) 0.4530(6) 0.3119(2)
C9 C 0.2461(7) 0.3865(7) 0.3933(3)
C10 C 0.4309(5) 0.9030(5) -0.1139(2)
C11 C 0.3586(7) 0.9906(7) -0.3288(3)
H9 H 0.4225 0.9830 -0.3780
C12 C 0.3460(5) 0.9612(5) -0.1870(2)
C13 C 0.0869(6) 0.4613(6) 0.2684(2)
H10 H -0.0398 0.4359 0.2919
C14 C 0.4341(6) 0.4849(5) 0.2732(2)
H11 H 0.5514 0.4756 0.3001
C15 C 0.4414(6) 0.5300(6) 0.1956(2)
H12 H 0.5653 0.5515 0.1702
C16 C 0.1536(5) 1.2405(5) -0.0571(2)
C17 C 0.0645(6) 1.0288(6) -0.1063(3)
H13 H -0.0832 0.9963 -0.1197
H14 H 0.0805 0.9285 -0.0735
Cd1A Cd -0.30605(3) 0.35320(3) 0.971803(14)
Cd1_2 Cd -0.69395(3) -0.35320(3) 1.028197(14)
Cd1_3 Cd 0.30605(3) -0.35320(3) 1.028197(14)
Cd1_4 Cd 0.30605(3) 1.64680(3) 0.028197(14)
Cd1A_2 Cd -0.30605(3) -0.64680(3) 0.971803(14)
Cd1A_3 Cd -0.30605(3) 1.35320(3) -0.028197(14)
Cd1A_4 Cd 0.69395(3) 1.35320(3) -0.028197(14)
O1A O -0.3196(6) 0.7427(6) 0.5942(2)
O2A O -0.6022(4) -0.0147(4) 1.08021(15)
O2_2 O -0.3978(4) 0.0147(4) 0.91979(15)
O2A_2 O 0.3978(4) 0.9853(4) 0.08021(15)
O3A O -0.0357(4) -0.3311(4) 1.03031(17)
O3_2 O 0.0357(4) 0.3311(4) -0.03031(17)
O3_3 O 0.0357(4) 0.3311(4) 0.96969(17)
O3A_2 O -0.0357(4) 0.6689(4) 0.03031(17)
O3A_3 O -0.0357(4) 0.6689(4) 1.03031(17)
O4A O -0.3453(4) -0.3260(4) 1.04303(17)
O4_2 O -0.6547(4) 0.3260(4) 0.95697(17)
O4_3 O 0.3453(4) 0.3260(4) -0.04303(17)
O4A_2 O -0.3453(4) 0.6740(4) 1.04303(17)
O4A_3 O 0.6547(4) 0.6740(4) 0.04303(17)
O5A O -0.3208(4) 0.2628(4) 1.09411(17)
N1A N -0.1504(6) 0.5328(5) 0.54913(19)
N2A N -0.2804(5) 0.4552(5) 0.8458(2)
C1A C -0.1796(7) -0.0370(6) 1.3271(3)
H1A H -0.1207 -0.0597 1.3751
C2A C -0.1199(8) 0.6121(8) 0.4725(3)
H2A H -0.2144 0.5126 0.4286
H3A H -0.1499 0.7402 0.4774
C3A C -0.0886(6) -0.0496(6) 1.2551(2)
H4A H 0.0311 -0.0848 1.2539
C4A C -0.0984(7) 0.3486(6) 0.5482(2)
H5A H -0.1157 0.3053 0.6020
H6A H -0.1918 0.2374 0.5075
C5A C -0.1053(6) 0.4931(6) 0.8091(2)
H7A H 0.0114 0.4881 0.8380
C6A C -0.1688(5) -0.0118(5) 1.1842(2)
C7A C -0.4430(6) 0.0442(6) 1.2591(2)
H8A H -0.5669 0.0717 1.2601
C8A C -0.2557(6) 0.5470(6) 0.6881(2)
C9A C -0.2461(7) 0.6135(7) 0.6067(3)
C10A C -0.4309(5) 0.0970(5) 1.1139(2)
C11A C -0.3586(7) 0.0094(7) 1.3288(3)
H9A H -0.4225 0.0170 1.3780
C12A C -0.3460(5) 0.0388(5) 1.1870(2)
C13A C -0.0869(6) 0.5387(6) 0.7316(2)
H10A H 0.0398 0.5641 0.7081
C14A C -0.4341(6) 0.5151(5) 0.7268(2)
H11A H -0.5514 0.5244 0.6999
C15A C -0.4414(6) 0.4700(6) 0.8044(2)
H12A H -0.5653 0.4485 0.8298
C16A C -0.1536(5) -0.2405(5) 1.0571(2)
C17A C -0.0645(6) -0.0288(6) 1.1063(3)
H13A H 0.0832 0.0037 1.1197
H14A H -0.0805 0.0715 1.0735
loop_
_geom_bond_atom_site_label_1
_geom_bond_atom_site_label_2
_geom_bond_site_symmetry_1
_geom_bond_site_symmetry_2
Cd1 O5 1_555 1_555
O1 C9 1_555 1_555
O2 C10 1_555 1_555
O3 C16 1_555 1_555
O4 C16 1_555 1_555
O5 C10 1_555 1_555
N1 C2 1_555 1_555
N2 Cd1 1_555 1_555
C1 H1 1_555 1_555
C2 H2 1_555 1_555
H3 C2 1_555 1_555
C3 C1 1_555 1_555
H4 C3 1_555 1_555
C4 N1 1_555 1_555
H5 C4 1_555 1_555
H6 C4 1_555 1_555
C5 N2 1_555 1_555
H7 C5 1_555 1_555
C6 C3 1_555 1_555
C7 H8 1_555 1_555
C8 C9 1_555 1_555
C9 N1 1_555 1_555
C10 C12 1_555 1_555
C11 C1 1_555 1_555
H9 C11 1_555 1_555
C12 C6 1_555 1_555
C13 C5 1_555 1_555
H10 C13 1_555 1_555
C14 C8 1_555 1_555
H11 C14 1_555 1_555
C15 N2 1_555 1_555
H12 C15 1_555 1_555
C16 C17 1_555 1_555
C17 C6 1_555 1_555
H13 C17 1_555 1_555
H14 C17 1_555 1_555
Cd1A O2_2 1_555 1_555
Cd1_2 O2A 1_555 1_555
Cd1_3 O3A 1_555 1_555
Cd1_4 O3 1_555 1_555
Cd1A_2 O3A 1_555 1_555
Cd1A_3 O3 1_555 1_555
Cd1A_4 O2 1_555 1_555
O1A C9A 1_555 1_555
O2A C10A 1_555 1_555
O2A_2 Cd1 1_555 1_555
O3A C16A 1_555 1_555
O3_2 Cd1 1_555 1_555
O3_3 Cd1A 1_555 1_555
O3A_2 Cd1 1_555 1_555
O3A_3 Cd1A 1_555 1_555
O4A Cd1_2 1_555 1_555
O4_2 Cd1A 1_555 1_555
O4_3 Cd1 1_555 1_555
O4A_2 Cd1A 1_555 1_555
O4A_3 Cd1 1_555 1_555
O5A Cd1A 1_555 1_555
N1A C2A 1_555 1_555
N2A Cd1A 1_555 1_555
C1A H1A 1_555 1_555
C2A C4 1_555 1_555
H2A C2A 1_555 1_555
H3A C2A 1_555 1_555
C3A C1A 1_555 1_555
H4A C3A 1_555 1_555
C4A C2 1_555 1_555
H5A C4A 1_555 1_555
H6A C4A 1_555 1_555
C5A N2A 1_555 1_555
H7A C5A 1_555 1_555
C6A C3A 1_555 1_555
C7A H8A 1_555 1_555
C8A C9A 1_555 1_555
C9A N1A 1_555 1_555
C10A O5A 1_555 1_555
C11A C1A 1_555 1_555
H9A C11A 1_555 1_555
C12A C6A 1_555 1_555
C13A C5A 1_555 1_555
H10A C13A 1_555 1_555
C14A C8A 1_555 1_555
H11A C14A 1_555 1_555
C15A N2A 1_555 1_555
H12A C15A 1_555 1_555
C16A O4A 1_555 1_555
C17A C6A 1_555 1_555
H13A C17A 1_555 1_555
H14A C17A 1_555 1_555
O4 Cd1_4 1_555 1_555
O4 Cd1A_4 1_555 1_555
C7 C11 1_555 1_555
C7 C12 1_555 1_555
C8 C13 1_555 1_555
C14 C15 1_555 1_555
Cd1A_2 O4A 1_555 1_555
N1A C4A 1_555 1_555
C7A C11A 1_555 1_555
C7A C12A 1_555 1_555
C8A C13A 1_555 1_555
C10A C12A 1_555 1_555
C14A C15A 1_555 1_555
C16A C17A 1_555 1_555

#END
