
#######################################################################
#
#                 Cambridge Crystallographic Data Centre
#                                CCDC 
#
#######################################################################
#
# If this CIF has been generated from an entry in the Cambridge 
# Structural Database, then it will include bibliographic, chemical, 
# crystal, experimental, refinement or atomic coordinate data resulting 
# from the CCDC's data processing and validation procedures.
#
#######################################################################

data_IVUNOC
_symmetry_cell_setting           orthorhombic
_symmetry_space_group_name_H-M   'P 21 21 21'
_symmetry_Int_Tables_number      19
_space_group_name_Hall           'P 2ac 2ab'
loop_
_symmetry_equiv_pos_site_id
_symmetry_equiv_pos_as_xyz
1 x,y,z
2 1/2-x,-y,1/2+z
3 -x,1/2+y,1/2-z
4 1/2+x,1/2-y,-z
_cell_length_a                   5.13790(10)
_cell_length_b                   11.5277(2)
_cell_length_c                   24.9844(3)
_cell_angle_alpha                90
_cell_angle_beta                 90
_cell_angle_gamma                90
_cell_volume                     1479.78
loop_
_atom_site_label
_atom_site_type_symbol
_atom_site_fract_x
_atom_site_fract_y
_atom_site_fract_z
Cu1 Cu 0.42725(4) 0.816076(19) 0.923003(9)
O1 O -0.3433(3) 0.91487(14) 0.68756(6)
O2 O -0.1294(4) 1.03547(15) 0.74224(8)
O3 O 0.6686(3) 0.92096(11) 0.95680(5)
O4 O 0.5213(3) 0.69685(13) 0.97616(6)
H1 H 0.422(6) 0.671(2) 0.9945(10)
H2 H 0.617(6) 0.646(2) 0.9674(10)
O5 O 0.1269(3) 0.72757(12) 0.89843(6)
O6 O -0.2588(3) 0.75266(13) 0.85859(6)
N1 N 0.2976(3) 0.93142(14) 0.87370(7)
C1 C 0.3809(4) 1.03576(17) 0.86856(8)
H3 H 0.2960 1.0836 0.8430
C2 C 0.5928(4) 1.08654(15) 0.89840(7)
C3 C 0.6661(5) 1.20060(18) 0.88469(9)
H4 H 0.5750 1.2394 0.8569
C4 C 0.8658(5) 1.25726(18) 0.91041(9)
H5 H 0.9143 1.3336 0.9002
C5 C 0.9956(4) 1.20060(17) 0.95175(9)
H6 H 1.1333 1.2389 0.9700
C6 C 0.9262(5) 1.08906(16) 0.96662(8)
H7 H 1.0164 1.0525 0.9952
C7 C 0.7260(4) 1.02878(16) 0.94052(8)
C8 C 0.0826(4) 0.88965(16) 0.84011(7)
H8 H -0.0535 0.9512 0.8367
C9 C 0.1865(4) 0.85601(19) 0.78426(8)
H9 H 0.2971 0.9198 0.7706
H10 H 0.2975 0.7862 0.7878
C10 C -0.0279(4) 0.83130(17) 0.74348(8)
H11 H 0.0495 0.7928 0.7118
H12 H -0.1556 0.7771 0.7595
C11 C -0.1672(4) 0.93937(19) 0.72566(8)
C12 C -0.4852(5) 1.0133(2) 0.66616(11)
H13 H -0.5869 1.0497 0.6948
H14 H -0.6026 0.9870 0.6377
H15 H -0.3619 1.0699 0.6515
C13 C -0.0313(4) 0.78316(16) 0.86749(8)
O6_2 O 0.7412(3) 0.75266(13) 0.85859(6)
Cu1_2 Cu -0.57275(4) 0.816076(19) 0.923003(9)
O7 O -0.1173(3) 0.54504(14) 0.94607(8)
H16 H -0.049(5) 0.584(2) 0.9274(11)
H17 H -0.025(7) 0.545(3) 0.9682(14)
loop_
_geom_bond_atom_site_label_1
_geom_bond_atom_site_label_2
_geom_bond_site_symmetry_1
_geom_bond_site_symmetry_2
Cu1 O3 1_555 1_555
O1 C11 1_555 1_555
O2 C11 1_555 1_555
O3 C7 1_555 1_555
O4 Cu1 1_555 1_555
H1 O4 1_555 1_555
H2 O4 1_555 1_555
O5 Cu1 1_555 1_555
O6 C13 1_555 1_555
N1 Cu1 1_555 1_555
C1 N1 1_555 1_555
H3 C1 1_555 1_555
C2 C1 1_555 1_555
C3 C2 1_555 1_555
H4 C3 1_555 1_555
C4 C3 1_555 1_555
H5 C4 1_555 1_555
C5 C4 1_555 1_555
H6 C5 1_555 1_555
C6 C5 1_555 1_555
H7 C6 1_555 1_555
C7 C2 1_555 1_555
C8 N1 1_555 1_555
H8 C8 1_555 1_555
C9 C8 1_555 1_555
H9 C9 1_555 1_555
H10 C9 1_555 1_555
C10 C9 1_555 1_555
H11 C10 1_555 1_555
H12 C10 1_555 1_555
C11 C10 1_555 1_555
C12 O1 1_555 1_555
H13 C12 1_555 1_555
H14 C12 1_555 1_555
H15 C12 1_555 1_555
C13 O5 1_555 1_555
O7 H16 1_555 1_555
H17 O7 1_555 1_555
O6_2 Cu1 1_555 1_555
Cu1_2 O6 1_555 1_555
C6 C7 1_555 1_555
C8 C13 1_555 1_555

#END
