
#######################################################################
#
#                 Cambridge Crystallographic Data Centre
#                                CCDC 
#
#######################################################################
#
# If this CIF has been generated from an entry in the Cambridge 
# Structural Database, then it will include bibliographic, chemical, 
# crystal, experimental, refinement or atomic coordinate data resulting 
# from the CCDC's data processing and validation procedures.
#
#######################################################################

data_IVUXIH
_symmetry_cell_setting           triclinic
_symmetry_space_group_name_H-M   'P -1'
_symmetry_Int_Tables_number      2
_space_group_name_Hall           '-P 1'
loop_
_symmetry_equiv_pos_site_id
_symmetry_equiv_pos_as_xyz
1 x,y,z
2 -x,-y,-z
_cell_length_a                   7.2012(6)
_cell_length_b                   10.3660(9)
_cell_length_c                   16.8411(14)
_cell_angle_alpha                73.0770(10)
_cell_angle_beta                 88.0190(10)
_cell_angle_gamma                88.3270(10)
_cell_volume                     1201.75
loop_
_atom_site_label
_atom_site_type_symbol
_atom_site_fract_x
_atom_site_fract_y
_atom_site_fract_z
Ce1 Ce 0.349729(19) 0.880005(13) 0.766139(8)
N1 N -0.3250(4) 1.3634(3) 0.54490(19)
N3 N 0.4474(5) 0.5009(3) 0.7559(2)
C1 C 0.3761(4) 0.5261(3) 0.82961(18)
C2 C 0.3254(3) 0.4160(2) 0.89279(15)
H1 H 0.2825 0.4295 0.9425
C3 C 0.3340(4) 0.2879(3) 0.88732(18)
H2 H 0.2932 0.2172 0.9319
C4 C 0.4018(4) 0.2624(3) 0.81696(18)
C5 C 0.4614(4) 0.3728(3) 0.75023(19)
H3 H 0.5106 0.3575 0.7019
C6 C 0.4081(4) 0.1239(3) 0.80884(18)
C7 C -0.0090(4) 1.0704(3) 0.64070(18)
C8 C -0.0871(4) 1.2112(3) 0.60932(18)
C9 C 0.0007(4) 1.3222(3) 0.62415(19)
H4 H 0.1127 1.3080 0.6516
C10 C -0.0745(4) 1.4491(3) 0.5994(2)
H5 H -0.0126 1.5202 0.6093
C11 C -0.2474(4) 1.4740(3) 0.5583(2)
C12 C -0.2502(4) 1.2364(3) 0.5695(2)
H6 H -0.3120 1.1660 0.5587
O2 O 0.4277(4) 0.9519(3) 0.61233(15)
O3 O 0.1406(3) 0.7499(3) 0.69231(17)
O4 O 0.6645(3) 0.8013(3) 0.72448(16)
O5 O 0.5599(3) 0.8162(2) 0.89443(14)
O6 O 0.0556(3) 0.8295(2) 0.85289(15)
O7 O 0.1255(3) 1.0550(2) 0.68840(13)
O8 O -0.0806(3) 0.9773(2) 0.61898(14)
O9 O -0.3297(3) 1.5859(2) 0.53449(17)
O10 O 0.3595(3) 0.64039(19) 0.84116(13)
O11 O 0.3091(3) 0.03485(19) 0.85815(13)
O12 O 0.5062(3) 0.0999(2) 0.75099(14)
H12 H 0.509(7) 0.920(5) 0.594(3)
H13 H 0.379(6) 1.006(4) 0.578(3)
H14 H 0.092(8) 0.704(6) 0.720(3)
H15 H 0.064(6) 0.816(5) 0.662(3)
H16 H 0.725(5) 0.739(4) 0.755(2)
H17 H 0.727(5) 0.851(4) 0.699(2)
H18 H 0.636(5) 0.874(4) 0.898(3)
H19 H 0.626(5) 0.746(3) 0.906(3)
H20 H -0.010(4) 0.764(3) 0.856(2)
H21 H -0.011(6) 0.877(4) 0.871(3)
H23 H -0.414(6) 1.378(4) 0.518(3)
H24 H 0.500(5) 0.575(3) 0.714(2)
Ce1_2 Ce 0.349729(19) -0.119995(13) 0.766139(8)
O11_2 O 0.3091(3) 1.03485(19) 0.85815(13)
O12_2 O 0.5062(3) 1.0999(2) 0.75099(14)
N2 N 0.2297(4) 0.8430(2) 0.02228(16)
C13 C 0.1665(4) 0.8999(3) 0.08211(18)
C14 C 0.1003(4) 0.8066(3) 0.15717(19)
H7 H 0.0562 0.8381 0.2008
C15 C 0.1011(4) 0.6722(3) 0.16553(18)
H8 H 0.0561 0.6135 0.2149
C16 C 0.1681(4) 0.6190(3) 0.10174(17)
C17 C 0.2312(4) 0.7089(3) 0.03005(18)
H9 H 0.2756 0.6780 -0.0138
C18 C 0.1734(4) 0.4707(3) 0.11141(18)
O13 O 0.1099(3) 0.3941(2) 0.17881(14)
O14 O 0.2434(4) 0.4293(2) 0.05417(14)
O15 O 0.1719(3) 1.0258(2) 0.06796(14)
H22 H 0.273(6) 0.896(4) -0.022(3)
O1 O 0.2879(4) 0.1439(3) 0.47878(15)
H10 H 0.206(6) 0.113(5) 0.459(3)
H11 H 0.274(7) 0.228(2) 0.472(3)
loop_
_geom_bond_atom_site_label_1
_geom_bond_atom_site_label_2
_geom_bond_site_symmetry_1
_geom_bond_site_symmetry_2
Ce1 O2 1_555 1_555
N1 C11 1_555 1_555
N2 C13 1_555 1_555
N3 C1 1_555 1_555
C1 C2 1_555 1_555
C2 H1 1_555 1_555
C3 C2 1_555 1_555
H2 C3 1_555 1_555
C4 C3 1_555 1_555
C5 N3 1_555 1_555
H3 C5 1_555 1_555
C6 C4 1_555 1_555
C7 C8 1_555 1_555
C8 C9 1_555 1_555
C9 H4 1_555 1_555
C10 C9 1_555 1_555
H5 C10 1_555 1_555
C11 C10 1_555 1_555
C12 N1 1_555 1_555
H6 C12 1_555 1_555
C13 C14 1_555 1_555
C14 H7 1_555 1_555
C15 C14 1_555 1_555
H8 C15 1_555 1_555
C16 C15 1_555 1_555
C17 N2 1_555 1_555
H9 C17 1_555 1_555
C18 C16 1_555 1_555
O1 H10 1_555 1_555
O2 H12 1_555 1_555
O3 Ce1 1_555 1_555
O4 Ce1 1_555 1_555
O5 Ce1 1_555 1_555
O6 Ce1 1_555 1_555
O7 Ce1 1_555 1_555
O8 C7 1_555 1_555
O9 C11 1_555 1_555
O10 Ce1 1_555 1_555
O11 C6 1_555 1_555
O12 C6 1_555 1_555
O13 C18 1_555 1_555
O14 C18 1_555 1_555
O15 C13 1_555 1_555
H11 O1 1_555 1_555
H13 O2 1_555 1_555
H14 O3 1_555 1_555
H15 O3 1_555 1_555
H16 O4 1_555 1_555
H17 O4 1_555 1_555
H18 O5 1_555 1_555
H19 O5 1_555 1_555
H20 O6 1_555 1_555
H21 O6 1_555 1_555
H22 N2 1_555 1_555
H23 N1 1_555 1_555
H24 N3 1_555 1_555
Ce1_2 O11 1_555 1_555
O11_2 Ce1 1_555 1_555
O12_2 Ce1 1_555 1_555
C1 O10 1_555 1_555
C4 C5 1_555 1_555
C7 O7 1_555 1_555
C8 C12 1_555 1_555
C16 C17 1_555 1_555
O12 Ce1_2 1_555 1_555

#END
