
#######################################################################
#
#                 Cambridge Crystallographic Data Centre
#                                CCDC 
#
#######################################################################
#
# If this CIF has been generated from an entry in the Cambridge 
# Structural Database, then it will include bibliographic, chemical, 
# crystal, experimental, refinement or atomic coordinate data resulting 
# from the CCDC's data processing and validation procedures.
#
#######################################################################

data_IVUXIG
_symmetry_cell_setting           triclinic
_symmetry_space_group_name_H-M   'P -1'
_symmetry_Int_Tables_number      2
_space_group_name_Hall           '-P 1'
loop_
_symmetry_equiv_pos_site_id
_symmetry_equiv_pos_as_xyz
1 x,y,z
2 -x,-y,-z
_cell_length_a                   10.048(2)
_cell_length_b                   13.430(3)
_cell_length_c                   9.949(2)
_cell_angle_alpha                99.96(3)
_cell_angle_beta                 103.55(3)
_cell_angle_gamma                72.01(3)
_cell_volume                     1234.02
loop_
_atom_site_label
_atom_site_type_symbol
_atom_site_fract_x
_atom_site_fract_y
_atom_site_fract_z
Cu1 Cu 0.79576(5) 0.69234(3) 0.58862(5)
N1 N 0.8399(3) 0.5786(2) 0.7095(3)
N2 N 0.9532(3) 0.4322(2) 0.8091(3)
N3 N 0.7248(4) 0.0099(2) 0.5741(4)
N4 N 0.7444(3) -0.1613(2) 0.5373(3)
O1 O 1.0271(4) 0.7590(3) 0.8025(4)
O2 O 0.9962(3) 0.6702(2) 0.5937(3)
O3 O 0.7154(3) 0.5887(2) 0.3774(3)
O4 O 0.5936(3) 0.68792(19) 0.5338(3)
C1 C 0.6442(5) 0.6431(3) 0.8520(4)
H2 H 0.5951 0.7043 0.8099
C2 C 0.5991(5) 0.6172(4) 0.9591(5)
H3 H 0.5177 0.6615 0.9891
C3 C 0.6725(5) 0.5267(4) 1.0226(5)
H4 H 0.6396 0.5129 1.0954
C4 C 0.7926(5) 0.4562(3) 0.9823(4)
H5 H 0.8404 0.3951 1.0248
C5 C 0.8380(4) 0.4818(3) 0.8739(4)
C6 C 0.7662(4) 0.5740(3) 0.8097(4)
C7 C 0.9500(4) 0.4931(3) 0.7150(4)
H6 H 1.0178 0.4772 0.6591
C8 C 1.0625(5) 0.3324(3) 0.8403(5)
H7 H 1.0819 0.3277 0.9396
H8 H 1.1501 0.3323 0.8151
C9 C 1.0179(8) 0.2389(4) 0.7650(9)
H9 H 1.0860 0.2088 0.7038
H10 H 1.0457 0.1914 0.8362
C10 C 0.9173(7) 0.2218(4) 0.7006(12)
H11 H 0.8841 0.2719 0.6322
H12 H 0.8500 0.2455 0.7631
C11 C 0.8868(5) 0.1217(3) 0.6202(7)
H13 H 0.8787 0.1240 0.5217
H14 H 0.9655 0.0614 0.6487
C12 C 0.7522(6) 0.1092(3) 0.6449(5)
H15 H 0.7584 0.1111 0.7441
H16 H 0.6729 0.1678 0.6119
C13 C 0.7765(5) -0.0834(3) 0.6264(4)
H17 H 0.8293 -0.0921 0.7159
C14 C 0.6531(4) -0.0073(3) 0.4405(4)
C15 C 0.6651(4) -0.1156(3) 0.4178(4)
C16 C 0.6050(5) -0.1594(3) 0.2904(4)
H18 H 0.6131 -0.2311 0.2734
C17 C 0.5325(5) -0.0924(3) 0.1897(5)
H19 H 0.4910 -0.1196 0.1032
C18 C 0.5205(5) 0.0147(3) 0.2148(5)
H20 H 0.4705 0.0572 0.1445
C19 C 0.5797(5) 0.0600(3) 0.3395(5)
H21 H 0.5711 0.1319 0.3555
C20 C 1.0727(5) 0.7064(3) 0.6987(5)
C21 C 1.2291(5) 0.6825(4) 0.6922(7)
H22 H 1.2465 0.6409 0.6061
H23 H 1.2868 0.6443 0.7685
H24 H 1.2528 0.7473 0.6978
C22 C 0.6047(5) 0.6226(3) 0.4251(4)
C23 C 0.4728(5) 0.5878(4) 0.3535(5)
H25 H 0.4932 0.5385 0.2736
H26 H 0.3961 0.6480 0.3246
H27 H 0.4457 0.5548 0.4170
N4_2 N 0.7444(3) 0.8387(2) 0.5373(3)
Cu1_2 Cu 0.79576(5) -0.30766(3) 0.58862(5)
O5 O 1.1953(6) 0.8695(4) 0.9925(5)
H1 H 1.1547 0.8298 0.9384
C24 C 1.1741(8) 0.9589(6) 0.9323(8)
H28 H 1.0737 0.9910 0.9051
H29 H 1.2175 0.9410 0.8519
H30 H 1.2163 1.0073 0.9979
loop_
_geom_bond_atom_site_label_1
_geom_bond_atom_site_label_2
_geom_bond_site_symmetry_1
_geom_bond_site_symmetry_2
Cu1 N1 1_555 1_555
N1 C6 1_555 1_555
N2 C5 1_555 1_555
N3 C12 1_555 1_555
N4 C13 1_555 1_555
O1 C20 1_555 1_555
O2 Cu1 1_555 1_555
O3 Cu1 1_555 1_555
O4 Cu1 1_555 1_555
O5 H1 1_555 1_555
C1 H2 1_555 1_555
C2 C1 1_555 1_555
H3 C2 1_555 1_555
C3 C2 1_555 1_555
H4 C3 1_555 1_555
C4 C3 1_555 1_555
H5 C4 1_555 1_555
C5 C4 1_555 1_555
C6 C1 1_555 1_555
C7 N1 1_555 1_555
H6 C7 1_555 1_555
C8 N2 1_555 1_555
H7 C8 1_555 1_555
H8 C8 1_555 1_555
C9 C8 1_555 1_555
H9 C9 1_555 1_555
H10 C9 1_555 1_555
C10 C9 1_555 1_555
H11 C10 1_555 1_555
H12 C10 1_555 1_555
C11 C10 1_555 1_555
H13 C11 1_555 1_555
H14 C11 1_555 1_555
C12 C11 1_555 1_555
H15 C12 1_555 1_555
H16 C12 1_555 1_555
C13 N3 1_555 1_555
H17 C13 1_555 1_555
C14 N3 1_555 1_555
C15 N4 1_555 1_555
C16 C15 1_555 1_555
H18 C16 1_555 1_555
C17 C16 1_555 1_555
H19 C17 1_555 1_555
C18 C17 1_555 1_555
H20 C18 1_555 1_555
C19 C14 1_555 1_555
H21 C19 1_555 1_555
C20 O2 1_555 1_555
C21 C20 1_555 1_555
H22 C21 1_555 1_555
H23 C21 1_555 1_555
H24 C21 1_555 1_555
C22 O3 1_555 1_555
C23 C22 1_555 1_555
H25 C23 1_555 1_555
H26 C23 1_555 1_555
H27 C23 1_555 1_555
C24 O5 1_555 1_555
H28 C24 1_555 1_555
H29 C24 1_555 1_555
H30 C24 1_555 1_555
N4_2 Cu1 1_555 1_555
Cu1_2 N4 1_555 1_555
N2 C7 1_555 1_555
O4 C22 1_555 1_555
C5 C6 1_555 1_555
C14 C15 1_555 1_555
C18 C19 1_555 1_555

#END
