
#######################################################################
#
#                 Cambridge Crystallographic Data Centre
#                                CCDC 
#
#######################################################################
#
# If this CIF has been generated from an entry in the Cambridge 
# Structural Database, then it will include bibliographic, chemical, 
# crystal, experimental, refinement or atomic coordinate data resulting 
# from the CCDC's data processing and validation procedures.
#
#######################################################################

data_IVUXUS
_symmetry_cell_setting           monoclinic
_symmetry_space_group_name_H-M   'P 21'
_symmetry_Int_Tables_number      4
_space_group_name_Hall           'P 2yb'
loop_
_symmetry_equiv_pos_site_id
_symmetry_equiv_pos_as_xyz
1 x,y,z
2 -x,1/2+y,-z
_cell_length_a                   9.996(7)
_cell_length_b                   19.506(14)
_cell_length_c                   12.281(9)
_cell_angle_alpha                90
_cell_angle_beta                 93.07
_cell_angle_gamma                90
_cell_volume                     2391.14
loop_
_atom_site_label
_atom_site_type_symbol
_atom_site_fract_x
_atom_site_fract_y
_atom_site_fract_z
Zn1 Zn 0.05456(16) 0.60524(7) 0.52758(12)
Zn2 Zn 0.16408(17) 0.54957(8) 1.20706(13)
Zn3 Zn 0.37342(17) 0.33308(8) 1.14136(13)
O1 O 0.1683(11) 0.5139(5) 1.0522(8)
O2 O 0.2897(12) 0.4296(5) 1.1262(8)
O3 O 0.3841(11) 0.3286(6) 0.9793(7)
O4 O 0.2055(16) 0.4943(7) 0.5459(9)
O5 O 0.1293(11) 0.5667(6) 0.6700(9)
O6 O -0.0268(11) 0.5095(6) 0.2283(8)
O7 O 0.0328(9) 0.5746(5) 0.3725(7)
O8 O -0.1369(10) 0.5677(6) 0.5504(7)
O9 O -0.5799(10) 0.3714(5) 0.3220(9)
O10 O -0.4296(11) 0.3687(6) 0.1953(9)
N1 N 0.1790(13) 0.2846(7) 1.1610(12)
N2 N 0.4223(13) 0.2265(6) 1.1716(12)
N3 N 0.2452(14) 0.6612(6) 0.4927(10)
N4 N 0.0032(13) 0.7112(6) 0.5309(10)
N5 N 0.0994(16) 0.6559(7) 1.1686(11)
N6 N 0.3512(14) 0.6031(8) 1.1890(11)
C1 C 0.2441(14) 0.4586(7) 1.0416(11)
C2 C 0.2688(14) 0.4356(7) 0.9289(10)
C3 C 0.3400(15) 0.3737(7) 0.9053(10)
C4 C 0.3556(17) 0.3586(8) 0.7922(12)
H1 H 0.3954 0.3158 0.7718
C5 C 0.3082(18) 0.4009(9) 0.7109(12)
H2 H 0.3184 0.3895 0.6354
C6 C 0.2429(13) 0.4632(7) 0.7309(10)
C7 C 0.2222(13) 0.4780(7) 0.8422(11)
H3 H 0.1767 0.5198 0.8598
C8 C 0.1919(17) 0.5099(9) 0.6440(12)
C9 C -0.0498(14) 0.5305(7) 0.3271(12)
C10 C -0.1714(12) 0.5056(7) 0.3812(13)
C11 C -0.2088(15) 0.5271(7) 0.4871(11)
C12 C -0.3313(14) 0.5028(7) 0.5225(13)
H4 H -0.3580 0.5163 0.5940
C13 C -0.4119(15) 0.4574(8) 0.4629(12)
H5 H -0.4943 0.4407 0.4919
C14 C -0.3744(13) 0.4348(7) 0.3580(11)
C15 C -0.2555(13) 0.4588(7) 0.3197(11)
H6 H -0.2281 0.4438 0.2492
C16 C -0.4679(15) 0.3890(7) 0.2910(11)
C17 C 0.0617(19) 0.3177(10) 1.1634(16)
H7 H 0.0641 0.3669 1.1616
C18 C -0.061(2) 0.2808(11) 1.162(2)
H8 H -0.1421 0.3073 1.1653
C19 C -0.056(2) 0.2121(11) 1.163(3)
H9 H -0.1384 0.1871 1.1695
C20 C 0.0639(17) 0.1770(10) 1.1662(19)
H10 H 0.0722 0.1280 1.1624
C21 C 0.1805(15) 0.2159(8) 1.1658(14)
C22 C 0.3158(18) 0.1836(8) 1.1718(14)
C23 C 0.344(2) 0.1136(11) 1.177(2)
H11 H 0.2720 0.0810 1.1741
C24 C 0.468(3) 0.0872(10) 1.188(3)
H12 H 0.4849 0.0388 1.1835
C25 C 0.575(2) 0.1339(11) 1.194(2)
H13 H 0.6653 0.1174 1.2058
C26 C 0.5477(16) 0.2025(9) 1.1841(18)
H14 H 0.6194 0.2353 1.1803
C27 C 0.3653(16) 0.6320(9) 0.4814(15)
H15 H 0.3724 0.5831 0.4891
C28 C 0.4779(19) 0.6721(12) 0.4596(18)
H16 H 0.5653 0.6513 0.4616
C29 C 0.465(2) 0.7405(12) 0.449(2)
H17 H 0.5380 0.7705 0.4332
C30 C 0.340(2) 0.7706(9) 0.4657(19)
H18 H 0.3273 0.8184 0.4490
C31 C 0.2316(17) 0.7301(7) 0.4876(14)
C32 C 0.0973(18) 0.7575(7) 0.5029(14)
C33 C 0.066(2) 0.8271(11) 0.501(2)
H19 H 0.1344 0.8586 0.4792
C34 C -0.058(2) 0.8492(10) 0.521(2)
H20 H -0.0787 0.8972 0.5186
C35 C -0.155(2) 0.8017(10) 0.5509(17)
H21 H -0.2438 0.8175 0.5661
C36 C -0.1247(18) 0.7318(10) 0.5518(15)
H22 H -0.1918 0.6988 0.5705
C37 C -0.023(2) 0.6786(11) 1.173(2)
H23 H -0.0950 0.6476 1.1892
C38 C -0.055(3) 0.7482(14) 1.161(3)
H24 H -0.1477 0.7617 1.1572
C39 C 0.049(3) 0.7943(11) 1.152(3)
H25 H 0.0286 0.8419 1.1396
C40 C 0.177(3) 0.7692(9) 1.146(2)
H26 H 0.2523 0.7986 1.1333
C41 C 0.2018(17) 0.7000(7) 1.1537(13)
C42 C 0.3389(18) 0.6682(8) 1.1513(13)
C43 C 0.4487(19) 0.7040(10) 1.1127(17)
H27 H 0.4422 0.7499 1.0844
C44 C 0.568(2) 0.6716(12) 1.1112(18)
H28 H 0.6440 0.6936 1.0804
C45 C 0.5854(18) 0.6024(13) 1.1498(18)
H29 H 0.6704 0.5792 1.1548
C46 C 0.4705(17) 0.5718(9) 1.1870(15)
H30 H 0.4740 0.5261 1.2160
O11 O 0.2540(11) 0.4891(6) 1.3314(8)
H31 H 0.3374 0.4987 1.3334
H32 H 0.2469 0.4477 1.3105
O6_2 O -0.0268(11) 0.5095(6) 1.2283(8)
O9_2 O 0.4201(10) 0.3714(5) 1.3220(9)
O10_2 O 0.5704(11) 0.3687(6) 1.1953(9)
Zn2_2 Zn 0.16408(17) 0.54957(8) 0.20706(13)
Zn3_2 Zn -0.62658(17) 0.33308(8) 0.14136(13)
O12 O -0.1025(17) 0.5077(13) -0.0396(15)
O13 O -0.357(2) 0.4140(14) -0.213(2)
O14 O -0.1188(16) 0.4672(10) -0.2637(15)
O15 O -0.316(3) 0.4250(18) 0.012(2)
loop_
_geom_bond_atom_site_label_1
_geom_bond_atom_site_label_2
_geom_bond_site_symmetry_1
_geom_bond_site_symmetry_2
Zn1 O5 1_555 1_555
Zn2 O1 1_555 1_555
Zn3 O2 1_555 1_555
O1 C1 1_555 1_555
O2 C1 1_555 1_555
O3 Zn3 1_555 1_555
O4 C8 1_555 1_555
O5 C8 1_555 1_555
O6 C9 1_555 1_555
O7 Zn1 1_555 1_555
O8 Zn1 1_555 1_555
O9 C16 1_555 1_555
O10 C16 1_555 1_555
N1 Zn3 1_555 1_555
N2 Zn3 1_555 1_555
N3 Zn1 1_555 1_555
N4 Zn1 1_555 1_555
N5 Zn2 1_555 1_555
N6 Zn2 1_555 1_555
C1 C2 1_555 1_555
C2 C3 1_555 1_555
C3 O3 1_555 1_555
C4 C3 1_555 1_555
H1 C4 1_555 1_555
C5 C4 1_555 1_555
H2 C5 1_555 1_555
C6 C5 1_555 1_555
C7 C2 1_555 1_555
H3 C7 1_555 1_555
C8 C6 1_555 1_555
C9 O7 1_555 1_555
C10 C9 1_555 1_555
C11 O8 1_555 1_555
C12 C11 1_555 1_555
H4 C12 1_555 1_555
C13 C12 1_555 1_555
H5 C13 1_555 1_555
C14 C13 1_555 1_555
C15 C10 1_555 1_555
H6 C15 1_555 1_555
C16 C14 1_555 1_555
C17 N1 1_555 1_555
H7 C17 1_555 1_555
C18 C17 1_555 1_555
H8 C18 1_555 1_555
C19 C18 1_555 1_555
H9 C19 1_555 1_555
C20 C19 1_555 1_555
H10 C20 1_555 1_555
C21 N1 1_555 1_555
C22 N2 1_555 1_555
C23 C22 1_555 1_555
H11 C23 1_555 1_555
C24 C23 1_555 1_555
H12 C24 1_555 1_555
C25 C24 1_555 1_555
H13 C25 1_555 1_555
C26 N2 1_555 1_555
H14 C26 1_555 1_555
C27 N3 1_555 1_555
H15 C27 1_555 1_555
C28 C27 1_555 1_555
H16 C28 1_555 1_555
C29 C28 1_555 1_555
H17 C29 1_555 1_555
C30 C29 1_555 1_555
H18 C30 1_555 1_555
C31 N3 1_555 1_555
C32 N4 1_555 1_555
C33 C32 1_555 1_555
H19 C33 1_555 1_555
C34 C33 1_555 1_555
H20 C34 1_555 1_555
C35 C34 1_555 1_555
H21 C35 1_555 1_555
C36 N4 1_555 1_555
H22 C36 1_555 1_555
C37 N5 1_555 1_555
H23 C37 1_555 1_555
C38 C37 1_555 1_555
H24 C38 1_555 1_555
C39 C38 1_555 1_555
H25 C39 1_555 1_555
C40 C39 1_555 1_555
H26 C40 1_555 1_555
C41 N5 1_555 1_555
C42 N6 1_555 1_555
C43 C42 1_555 1_555
H27 C43 1_555 1_555
C44 C43 1_555 1_555
H28 C44 1_555 1_555
C45 C44 1_555 1_555
H29 C45 1_555 1_555
C46 N6 1_555 1_555
H30 C46 1_555 1_555
O11 Zn2 1_555 1_555
H31 O11 1_555 1_555
H32 O11 1_555 1_555
O6_2 Zn2 1_555 1_555
O9_2 Zn3 1_555 1_555
O10_2 Zn3 1_555 1_555
Zn2_2 O6 1_555 1_555
Zn3_2 O9 1_555 1_555
O10 Zn3_2 1_555 1_555
C6 C7 1_555 1_555
C10 C11 1_555 1_555
C14 C15 1_555 1_555
C20 C21 1_555 1_555
C21 C22 1_555 1_555
C25 C26 1_555 1_555
C30 C31 1_555 1_555
C31 C32 1_555 1_555
C35 C36 1_555 1_555
C40 C41 1_555 1_555
C41 C42 1_555 1_555
C45 C46 1_555 1_555

#END
