
#######################################################################
#
#                 Cambridge Crystallographic Data Centre
#                                CCDC 
#
#######################################################################
#
# If this CIF has been generated from an entry in the Cambridge 
# Structural Database, then it will include bibliographic, chemical, 
# crystal, experimental, refinement or atomic coordinate data resulting 
# from the CCDC's data processing and validation procedures.
#
#######################################################################

data_IVUYAZ
_symmetry_cell_setting           monoclinic
_symmetry_space_group_name_H-M   'P 21'
_symmetry_Int_Tables_number      4
_space_group_name_Hall           'P 2yb'
loop_
_symmetry_equiv_pos_site_id
_symmetry_equiv_pos_as_xyz
1 x,y,z
2 -x,1/2+y,-z
_cell_length_a                   9.951(8)
_cell_length_b                   19.497(15)
_cell_length_c                   12.255(8)
_cell_angle_alpha                90
_cell_angle_beta                 91.68
_cell_angle_gamma                90
_cell_volume                     2376.63
loop_
_atom_site_label
_atom_site_type_symbol
_atom_site_fract_x
_atom_site_fract_y
_atom_site_fract_z
Co1 Co 0.06100(12) 0.59876(6) 0.52736(10)
Co2 Co 0.17063(12) 0.55352(6) 1.22073(10)
Co3 Co 0.37307(12) 0.33507(6) 1.14710(10)
O1 O 0.1871(7) 0.5224(3) 1.0621(5)
O2 O 0.2991(7) 0.4344(4) 1.1341(5)
O3 O 0.3793(7) 0.3315(4) 0.9842(5)
O4 O 0.1756(7) 0.4978(4) 0.5552(5)
O5 O 0.1369(7) 0.5746(3) 0.6838(5)
O6 O -0.0168(7) 0.5039(4) 0.2322(6)
O7 O 0.0358(6) 0.5743(3) 0.3669(5)
O8 O -0.1241(6) 0.5613(4) 0.5545(5)
O9 O -0.5790(6) 0.3716(4) 0.3235(5)
O10 O -0.4241(7) 0.3703(4) 0.1957(6)
N1 N 0.1831(8) 0.2905(4) 1.1680(7)
N2 N 0.4217(8) 0.2321(4) 1.1681(8)
N3 N 0.2483(9) 0.6554(4) 0.4938(7)
N4 N 0.0028(9) 0.7048(4) 0.5260(7)
N5 N 0.1128(9) 0.6575(4) 1.1755(8)
N6 N 0.3604(8) 0.6069(4) 1.1999(7)
C1 C 0.2541(8) 0.4664(4) 1.0492(7)
C2 C 0.2726(9) 0.4403(4) 0.9377(8)
C3 C 0.3340(9) 0.3760(5) 0.9122(8)
C4 C 0.3448(11) 0.3602(6) 0.7959(8)
H1 H 0.3846 0.3173 0.7755
C5 C 0.2981(11) 0.4047(5) 0.7136(9)
H2 H 0.3083 0.3933 0.6381
C6 C 0.2375(10) 0.4676(5) 0.7405(7)
C7 C 0.2250(9) 0.4837(4) 0.8506(7)
H3 H 0.1795 0.5255 0.8681
C8 C 0.1820(9) 0.5151(5) 0.6558(7)
C9 C -0.0446(9) 0.5276(5) 0.3255(7)
C10 C -0.1648(8) 0.5028(5) 0.3826(7)
C11 C -0.2004(9) 0.5231(5) 0.4910(7)
C12 C -0.3250(10) 0.4962(6) 0.5286(8)
H4 H -0.3518 0.5097 0.6001
C13 C -0.4091(9) 0.4530(5) 0.4683(7)
H5 H -0.4914 0.4363 0.4974
C14 C -0.3707(8) 0.4321(5) 0.3632(8)
C15 C -0.2490(8) 0.4571(5) 0.3208(8)
H6 H -0.2216 0.4421 0.2503
C16 C -0.4606(9) 0.3887(5) 0.2911(7)
C17 C 0.0620(10) 0.3243(6) 1.1718(10)
H7 H 0.0645 0.3735 1.1700
C18 C -0.0607(12) 0.2889(7) 1.1778(13)
H8 H -0.1418 0.3154 1.1810
C19 C -0.0584(14) 0.2182(8) 1.1761(17)
H9 H -0.1409 0.1931 1.1824
C20 C 0.0625(12) 0.1817(6) 1.1707(12)
H10 H 0.0709 0.1327 1.1669
C21 C 0.1790(11) 0.2205(5) 1.1670(9)
C22 C 0.3174(11) 0.1875(5) 1.1679(9)
C23 C 0.3379(12) 0.1165(6) 1.1662(13)
H11 H 0.2656 0.0838 1.1630
C24 C 0.4683(14) 0.0902(7) 1.1740(16)
H12 H 0.4851 0.0418 1.1695
C25 C 0.5750(13) 0.1369(7) 1.1844(16)
H13 H 0.6651 0.1204 1.1967
C26 C 0.5469(12) 0.2069(6) 1.1747(13)
H14 H 0.6186 0.2397 1.1709
C27 C 0.3713(11) 0.6271(7) 0.4868(10)
H15 H 0.3784 0.5782 0.4945
C28 C 0.4883(13) 0.6661(8) 0.4654(12)
H16 H 0.5757 0.6453 0.4674
C29 C 0.4686(14) 0.7361(8) 0.4478(15)
H17 H 0.5419 0.7660 0.4316
C30 C 0.3445(16) 0.7652(6) 0.4537(16)
H18 H 0.3323 0.8130 0.4371
C31 C 0.2354(10) 0.7252(5) 0.4790(9)
C32 C 0.0964(13) 0.7511(5) 0.4965(9)
C33 C 0.0659(15) 0.8217(7) 0.4873(14)
H19 H 0.1343 0.8532 0.4656
C34 C -0.0644(18) 0.8430(7) 0.5116(15)
H20 H -0.0851 0.8911 0.5088
C35 C -0.1581(14) 0.7979(7) 0.5418(13)
H21 H -0.2469 0.8138 0.5570
C36 C -0.1212(13) 0.7276(7) 0.5476(10)
H22 H -0.1883 0.6946 0.5663
C37 C -0.0139(15) 0.6833(8) 1.1757(13)
H23 H -0.0856 0.6523 1.1916
C38 C -0.043(2) 0.7510(9) 1.1506(17)
H24 H -0.1354 0.7645 1.1472
C39 C 0.0600(19) 0.7958(7) 1.1346(17)
H25 H 0.0400 0.8433 1.1223
C40 C 0.1916(17) 0.7714(6) 1.1353(15)
H26 H 0.2669 0.8008 1.1223
C41 C 0.2143(12) 0.7012(5) 1.1559(9)
C42 C 0.3502(12) 0.6714(5) 1.1587(10)
C43 C 0.4650(14) 0.7044(7) 1.1157(11)
H27 H 0.4586 0.7502 1.0874
C44 C 0.5873(14) 0.6696(8) 1.1199(12)
H28 H 0.6637 0.6916 1.0890
C45 C 0.5949(13) 0.6043(9) 1.1609(11)
H29 H 0.6799 0.5810 1.1659
C46 C 0.4802(11) 0.5737(6) 1.2025(10)
H30 H 0.4836 0.5280 1.2315
O11 O 0.2617(7) 0.4922(4) 1.3440(6)
H31 H 0.3451 0.5018 1.3460
H32 H 0.2546 0.4507 1.3231
O6_2 O -0.0168(7) 0.5039(4) 1.2322(6)
O7_2 O 0.0358(6) 0.5743(3) 1.3669(5)
O9_2 O 0.4210(6) 0.3716(4) 1.3235(5)
O10_2 O 0.5759(7) 0.3703(4) 1.1957(6)
Co2_2 Co 0.17063(12) 0.55352(6) 0.22073(10)
Co3_2 Co -0.62693(12) 0.33507(6) 0.14710(10)
O12 O -0.0895(11) 0.5170(8) -0.0319(10)
O13 O -0.3595(13) 0.4154(9) -0.2073(13)
O14 O -0.1187(10) 0.4715(7) -0.2532(9)
O15 O -0.3066(17) 0.4304(11) 0.0162(12)
loop_
_geom_bond_atom_site_label_1
_geom_bond_atom_site_label_2
_geom_bond_site_symmetry_1
_geom_bond_site_symmetry_2
Co1 O4 1_555 1_555
Co2 O1 1_555 1_555
Co3 O2 1_555 1_555
O1 C1 1_555 1_555
O2 C1 1_555 1_555
O3 Co3 1_555 1_555
O4 C8 1_555 1_555
O5 Co1 1_555 1_555
O6 C9 1_555 1_555
O7 Co1 1_555 1_555
O8 Co1 1_555 1_555
O9 C16 1_555 1_555
O10 C16 1_555 1_555
N1 Co3 1_555 1_555
N2 Co3 1_555 1_555
N3 Co1 1_555 1_555
N4 Co1 1_555 1_555
N5 Co2 1_555 1_555
N6 Co2 1_555 1_555
C1 C2 1_555 1_555
C2 C3 1_555 1_555
C3 O3 1_555 1_555
C4 C3 1_555 1_555
H1 C4 1_555 1_555
C5 C4 1_555 1_555
H2 C5 1_555 1_555
C6 C5 1_555 1_555
C7 C2 1_555 1_555
H3 C7 1_555 1_555
C8 O5 1_555 1_555
C9 O7 1_555 1_555
C10 C9 1_555 1_555
C11 O8 1_555 1_555
C12 C11 1_555 1_555
H4 C12 1_555 1_555
C13 C12 1_555 1_555
H5 C13 1_555 1_555
C14 C13 1_555 1_555
C15 C10 1_555 1_555
H6 C15 1_555 1_555
C16 C14 1_555 1_555
C17 N1 1_555 1_555
H7 C17 1_555 1_555
C18 C17 1_555 1_555
H8 C18 1_555 1_555
C19 C18 1_555 1_555
H9 C19 1_555 1_555
C20 C19 1_555 1_555
H10 C20 1_555 1_555
C21 N1 1_555 1_555
C22 N2 1_555 1_555
C23 C22 1_555 1_555
H11 C23 1_555 1_555
C24 C23 1_555 1_555
H12 C24 1_555 1_555
C25 C24 1_555 1_555
H13 C25 1_555 1_555
C26 N2 1_555 1_555
H14 C26 1_555 1_555
C27 N3 1_555 1_555
H15 C27 1_555 1_555
C28 C27 1_555 1_555
H16 C28 1_555 1_555
C29 C28 1_555 1_555
H17 C29 1_555 1_555
C30 C29 1_555 1_555
H18 C30 1_555 1_555
C31 N3 1_555 1_555
C32 N4 1_555 1_555
C33 C32 1_555 1_555
H19 C33 1_555 1_555
C34 C33 1_555 1_555
H20 C34 1_555 1_555
C35 C34 1_555 1_555
H21 C35 1_555 1_555
C36 N4 1_555 1_555
H22 C36 1_555 1_555
C37 N5 1_555 1_555
H23 C37 1_555 1_555
C38 C37 1_555 1_555
H24 C38 1_555 1_555
C39 C38 1_555 1_555
H25 C39 1_555 1_555
C40 C39 1_555 1_555
H26 C40 1_555 1_555
C41 N5 1_555 1_555
C42 N6 1_555 1_555
C43 C42 1_555 1_555
H27 C43 1_555 1_555
C44 C43 1_555 1_555
H28 C44 1_555 1_555
C45 C44 1_555 1_555
H29 C45 1_555 1_555
C46 N6 1_555 1_555
H30 C46 1_555 1_555
O11 Co2 1_555 1_555
H31 O11 1_555 1_555
H32 O11 1_555 1_555
O6_2 Co2 1_555 1_555
O7_2 Co2 1_555 1_555
O9_2 Co3 1_555 1_555
O10_2 Co3 1_555 1_555
Co2_2 O6 1_555 1_555
Co3_2 O9 1_555 1_555
O7 Co2_2 1_555 1_555
O10 Co3_2 1_555 1_555
C6 C7 1_555 1_555
C6 C8 1_555 1_555
C10 C11 1_555 1_555
C14 C15 1_555 1_555
C20 C21 1_555 1_555
C21 C22 1_555 1_555
C25 C26 1_555 1_555
C30 C31 1_555 1_555
C31 C32 1_555 1_555
C35 C36 1_555 1_555
C40 C41 1_555 1_555
C41 C42 1_555 1_555
C45 C46 1_555 1_555

#END
