
#######################################################################
#
#                 Cambridge Crystallographic Data Centre
#                                CCDC 
#
#######################################################################
#
# If this CIF has been generated from an entry in the Cambridge 
# Structural Database, then it will include bibliographic, chemical, 
# crystal, experimental, refinement or atomic coordinate data resulting 
# from the CCDC's data processing and validation procedures.
#
#######################################################################

data_IVUYED
_symmetry_cell_setting           orthorhombic
_symmetry_space_group_name_H-M   'P c c n'
_symmetry_Int_Tables_number      56
_space_group_name_Hall           '-P 2ab 2ac'
loop_
_symmetry_equiv_pos_site_id
_symmetry_equiv_pos_as_xyz
1 x,y,z
2 1/2+x,1/2+y,-z
3 x,1/2-y,1/2+z
4 1/2-x,y,1/2+z
5 -x,-y,-z
6 1/2-x,1/2-y,z
7 -x,1/2+y,1/2-z
8 1/2+x,-y,1/2-z
_cell_length_a                   13.174(10)
_cell_length_b                   16.821(12)
_cell_length_c                   19.216(9)
_cell_angle_alpha                90
_cell_angle_beta                 90
_cell_angle_gamma                90
_cell_volume                     4258.26
loop_
_atom_site_label
_atom_site_type_symbol
_atom_site_fract_x
_atom_site_fract_y
_atom_site_fract_z
Cd1 Cd -0.2500 0.7500 0.04981(6)
Cd2 Cd 0.00070(7) 0.31220(5) 0.36661(5)
O1 O -0.1387(7) 0.3289(5) 0.2667(6)
O2 O -0.0416(6) 0.4252(5) 0.3119(4)
O3 O -0.3188(5) 0.6422(4) 0.1119(4)
O4 O -0.1049(5) 0.6987(4) 0.0963(4)
O5 O -0.0591(7) 0.7069(5) 0.2069(4)
N1 N -0.0099(7) 0.3362(6) 0.4891(5)
N2 N -0.1195(7) 0.2236(6) 0.4203(5)
N3 N -0.1890(7) 0.6835(6) -0.0514(5)
C1 C -0.1136(9) 0.4009(7) 0.2701(7)
C2 C -0.1658(8) 0.4627(6) 0.2261(6)
C3 C -0.2616(8) 0.4484(6) 0.1955(6)
H1 H -0.2870 0.3950 0.1983
C4 C -0.3121(9) 0.5070(7) 0.1586(6)
H2 H -0.3806 0.4981 0.1435
C5 C -0.2658(8) 0.5847(6) 0.1473(5)
C6 C -0.1648(8) 0.5960(6) 0.1738(5)
C7 C -0.1205(8) 0.5365(6) 0.2151(5)
H3 H -0.0551 0.5475 0.2350
C8 C -0.1060(7) 0.6731(6) 0.1581(6)
C9 C 0.0442(10) 0.3944(8) 0.5207(7)
H4 H 0.0750 0.4346 0.4923
C10 C 0.0513(11) 0.3999(10) 0.5933(9)
H5 H 0.0939 0.4397 0.6140
C11 C 0.0046(12) 0.3432(11) 0.6343(8)
H6 H 0.0083 0.3467 0.6841
C12 C -0.0529(10) 0.2821(9) 0.6026(7)
H7 H -0.0880 0.2432 0.6301
C13 C -0.0613(8) 0.2801(7) 0.5281(6)
C14 C -0.1179(9) 0.2169(7) 0.4901(6)
C15 C -0.1673(11) 0.1533(9) 0.5241(7)
H8 H -0.1674 0.1500 0.5740
C16 C -0.2199(11) 0.0959(8) 0.4844(9)
H9 H -0.2475 0.0503 0.5076
C17 C -0.2208(10) 0.1037(9) 0.4135(9)
H10 H -0.2609 0.0670 0.3870
C18 C -0.1683(10) 0.1706(8) 0.3839(8)
H11 H -0.1636 0.1753 0.3342
C19 C -0.2163(9) 0.7143(7) -0.1149(6)
C20 C -0.1856(11) 0.6741(9) -0.1770(7)
H12 H -0.2059 0.6942 -0.2216
C21 C -0.1217(11) 0.6094(10) -0.1741(9)
H13 H -0.1012 0.5831 -0.2162
C22 C -0.0931(11) 0.5808(9) -0.1084(9)
H14 H -0.0541 0.5328 -0.1050
C23 C -0.1270(10) 0.6191(8) -0.0483(8)
H15 H -0.0993 0.6047 -0.0039
C19E C -0.2837(9) 0.7857(7) -0.1149(6)
N3E N -0.3110(7) 0.8165(6) -0.0514(5)
C23E C -0.3730(10) 0.8809(8) -0.0483(8)
C22E C -0.4069(11) 0.9192(9) -0.1084(9)
C21E C -0.3783(11) 0.8906(10) -0.1741(9)
C20E C -0.3144(11) 0.8259(9) -0.1770(7)
H12E H -0.2941 0.8058 -0.2216
H13E H -0.3988 0.9169 -0.2162
H14E H -0.4459 0.9672 -0.1050
H15E H -0.4007 0.8953 -0.0039
O1E O -0.3613(7) 1.1711(5) 0.2667(6)
O2E O -0.4584(6) 1.0748(5) 0.3119(4)
O3E O -0.1812(5) 0.8578(4) 0.1119(4)
O4E O -0.3951(5) 0.8013(4) 0.0963(4)
O5E O -0.4409(7) 0.7931(5) 0.2069(4)
C1E C -0.3864(9) 1.0991(7) 0.2701(7)
C2E C -0.3342(8) 1.0373(6) 0.2261(6)
C3E C -0.2384(8) 1.0516(6) 0.1955(6)
H1E H -0.2130 1.1050 0.1983
C4E C -0.1879(9) 0.9930(7) 0.1586(6)
H2E H -0.1194 1.0019 0.1435
C5E C -0.2342(8) 0.9153(6) 0.1473(5)
C6E C -0.3352(8) 0.9040(6) 0.1738(5)
C7E C -0.3795(8) 0.9635(6) 0.2151(5)
H3E H -0.4449 0.9525 0.2350
C8E C -0.3940(7) 0.8269(6) 0.1581(6)
Cd2E Cd -0.50070(7) 1.18780(5) 0.36661(5)
N1E N -0.4901(7) 1.1638(6) 0.4891(5)
N2E N -0.3805(7) 1.2764(6) 0.4203(5)
C9E C -0.5442(10) 1.1056(8) 0.5207(7)
H4E H -0.5750 1.0654 0.4923
C10E C -0.5513(11) 1.1001(10) 0.5933(9)
H5E H -0.5939 1.0603 0.6140
C11E C -0.5046(12) 1.1568(11) 0.6343(8)
H6E H -0.5083 1.1533 0.6841
C12E C -0.4471(10) 1.2179(9) 0.6026(7)
H7E H -0.4120 1.2568 0.6301
C13E C -0.4387(8) 1.2199(7) 0.5281(6)
C14E C -0.3821(9) 1.2831(7) 0.4901(6)
C15E C -0.3327(11) 1.3467(9) 0.5241(7)
H8E H -0.3326 1.3500 0.5740
C16E C -0.2801(11) 1.4041(8) 0.4844(9)
H9E H -0.2525 1.4497 0.5076
C17E C -0.2792(10) 1.3963(9) 0.4135(9)
H10E H -0.2391 1.4330 0.3870
C18E C -0.3317(10) 1.3294(8) 0.3839(8)
H11E H -0.3364 1.3247 0.3342
O3G O 0.1812(5) 0.3578(4) 0.3881(4)
O4F O 0.1049(5) 0.1987(4) 0.4037(4)
O5F O 0.0591(7) 0.2069(5) 0.2931(4)
Cd2G Cd -0.49930(7) 0.68780(5) 0.13339(5)
Cd2F Cd -0.00070(7) 0.81220(5) 0.13339(5)
O3F O -0.6812(5) 1.1422(4) 0.3881(4)
O4G O -0.6049(5) 1.3013(4) 0.4037(4)
O5G O -0.5591(7) 1.2931(5) 0.2931(4)
loop_
_geom_bond_atom_site_label_1
_geom_bond_atom_site_label_2
_geom_bond_site_symmetry_1
_geom_bond_site_symmetry_2
Cd1 O3 1_555 1_555
Cd2 O2 1_555 1_555
O1 C1 1_555 1_555
O2 C1 1_555 1_555
O3 C5 1_555 1_555
O4 Cd1 1_555 1_555
O5 C8 1_555 1_555
N1 Cd2 1_555 1_555
N2 Cd2 1_555 1_555
N3 Cd1 1_555 1_555
C1 C2 1_555 1_555
C2 C3 1_555 1_555
C3 H1 1_555 1_555
C4 C3 1_555 1_555
H2 C4 1_555 1_555
C5 C4 1_555 1_555
C6 C5 1_555 1_555
C7 C2 1_555 1_555
H3 C7 1_555 1_555
C8 O4 1_555 1_555
C9 N1 1_555 1_555
H4 C9 1_555 1_555
C10 C9 1_555 1_555
H5 C10 1_555 1_555
C11 C10 1_555 1_555
H6 C11 1_555 1_555
C12 C11 1_555 1_555
H7 C12 1_555 1_555
C13 N1 1_555 1_555
C14 N2 1_555 1_555
C15 C14 1_555 1_555
H8 C15 1_555 1_555
C16 C15 1_555 1_555
H9 C16 1_555 1_555
C17 C16 1_555 1_555
H10 C17 1_555 1_555
C18 N2 1_555 1_555
H11 C18 1_555 1_555
C19 N3 1_555 1_555
C20 C19 1_555 1_555
H12 C20 1_555 1_555
C21 C20 1_555 1_555
H13 C21 1_555 1_555
C22 C21 1_555 1_555
H14 C22 1_555 1_555
C23 N3 1_555 1_555
H15 C23 1_555 1_555
C19E C19 1_555 1_555
N3E Cd1 1_555 1_555
C23E N3E 1_555 1_555
C22E C23E 1_555 1_555
C21E C22E 1_555 1_555
C20E C19E 1_555 1_555
H12E C20E 1_555 1_555
H13E C21E 1_555 1_555
H14E C22E 1_555 1_555
H15E C23E 1_555 1_555
O1E C1E 1_555 1_555
O2E C1E 1_555 1_555
O3E Cd1 1_555 1_555
O4E Cd1 1_555 1_555
O5E C8E 1_555 1_555
C1E C2E 1_555 1_555
C2E C3E 1_555 1_555
C3E H1E 1_555 1_555
C4E C3E 1_555 1_555
H2E C4E 1_555 1_555
C5E O3E 1_555 1_555
C6E C5E 1_555 1_555
C7E C2E 1_555 1_555
H3E C7E 1_555 1_555
C8E O4E 1_555 1_555
Cd2E O2E 1_555 1_555
N1E Cd2E 1_555 1_555
N2E Cd2E 1_555 1_555
C9E N1E 1_555 1_555
H4E C9E 1_555 1_555
C10E C9E 1_555 1_555
H5E C10E 1_555 1_555
C11E C10E 1_555 1_555
H6E C11E 1_555 1_555
C12E C11E 1_555 1_555
H7E C12E 1_555 1_555
C13E N1E 1_555 1_555
C14E N2E 1_555 1_555
C15E C14E 1_555 1_555
H8E C15E 1_555 1_555
C16E C15E 1_555 1_555
H9E C16E 1_555 1_555
C17E C16E 1_555 1_555
H10E C17E 1_555 1_555
C18E N2E 1_555 1_555
H11E C18E 1_555 1_555
O3G Cd2 1_555 1_555
O4F Cd2 1_555 1_555
O5F Cd2 1_555 1_555
Cd2G O3 1_555 1_555
Cd2F O4 1_555 1_555
O3F Cd2E 1_555 1_555
O4G Cd2E 1_555 1_555
O5G Cd2E 1_555 1_555
O5 Cd2F 1_555 1_555
C6 C7 1_555 1_555
C6 C8 1_555 1_555
C12 C13 1_555 1_555
C13 C14 1_555 1_555
C17 C18 1_555 1_555
C22 C23 1_555 1_555
C19E N3E 1_555 1_555
C21E C20E 1_555 1_555
O3E Cd2F 1_555 1_555
O4E Cd2G 1_555 1_555
O5E Cd2G 1_555 1_555
C4E C5E 1_555 1_555
C6E C7E 1_555 1_555
C6E C8E 1_555 1_555
C12E C13E 1_555 1_555
C13E C14E 1_555 1_555
C17E C18E 1_555 1_555

#END
