
#######################################################################
#
#                 Cambridge Crystallographic Data Centre
#                                CCDC 
#
#######################################################################
#
# If this CIF has been generated from an entry in the Cambridge 
# Structural Database, then it will include bibliographic, chemical, 
# crystal, experimental, refinement or atomic coordinate data resulting 
# from the CCDC's data processing and validation procedures.
#
#######################################################################

data_IVUYIH
_symmetry_cell_setting           monoclinic
_symmetry_space_group_name_H-M   'C 2/c'
_symmetry_Int_Tables_number      15
_space_group_name_Hall           '-C 2yn'
loop_
_symmetry_equiv_pos_site_id
_symmetry_equiv_pos_as_xyz
1 x,y,z
2 1/2+x,1/2+y,z
3 x,-y,1/2+z
4 1/2+x,1/2-y,1/2+z
5 -x,-y,-z
6 1/2-x,1/2-y,-z
7 -x,y,1/2-z
8 1/2-x,1/2+y,1/2-z
_cell_length_a                   14.816(2)
_cell_length_b                   11.7871(18)
_cell_length_c                   14.038(2)
_cell_angle_alpha                90
_cell_angle_beta                 106.478(3)
_cell_angle_gamma                90
_cell_volume                     2350.87
loop_
_atom_site_label
_atom_site_type_symbol
_atom_site_fract_x
_atom_site_fract_y
_atom_site_fract_z
Ni1 Ni 0.7500 0.2500 0.5000
N1 N 0.77885(19) 0.0783(2) 0.51884(19)
N2 N 0.68318(17) 0.2594(2) 0.61301(18)
C1 C 0.6330(2) 0.1607(3) 0.6435(2)
C2 C 0.6903(2) 0.0528(3) 0.6418(2)
C3 C 0.7231(3) -0.1170(3) 0.5480(3)
C4 C 0.7031(2) 0.0104(3) 0.5429(2)
C5 C 0.6294(3) 0.1778(3) 0.7508(2)
C6 C 0.8053(3) 0.0410(3) 0.4295(2)
C7 C 0.6329(3) 0.3693(3) 0.5969(3)
C8 C 0.9355(2) 0.3209(2) 0.6801(2)
C9 C 0.5323(2) 0.1508(3) 0.5756(2)
N3 N 1.0000 0.3726(3) 0.7500
N4 N 0.87538(18) 0.2901(2) 0.61400(18)
H1 H 0.755(2) 0.063(2) 0.690(2)
H2 H 0.662(2) -0.005(3) 0.669(2)
H3 H 0.819(2) 0.071(2) 0.561(2)
H4 H 0.649(2) 0.024(2) 0.494(2)
H5 H 0.731(2) 0.272(2) 0.660(2)
H6 H 0.577(2) 0.363(3) 0.545(2)
H7 H 0.608(2) 0.392(3) 0.655(2)
H8 H 0.839(2) -0.038(3) 0.441(2)
H9 H 0.748(2) 0.031(3) 0.378(2)
H10 H 0.4901(19) 0.213(2) 0.5869(18)
H11 H 0.504(2) 0.082(3) 0.587(2)
H12 H 0.531(2) 0.148(3) 0.505(2)
H13 H 0.601(2) 0.117(3) 0.774(2)
H14 H 0.596(2) 0.247(3) 0.756(2)
H15 H 0.693(3) 0.187(3) 0.796(3)
H16 H 0.673(2) -0.155(3) 0.567(2)
H17 H 0.782(2) -0.128(3) 0.599(2)
H18 H 0.729(2) -0.146(3) 0.483(3)
C6E C 0.6947(3) 0.4590(3) 0.5705(2)
N1E N 0.72115(19) 0.4217(2) 0.48116(19)
C4E C 0.7969(2) 0.4896(3) 0.4571(2)
C2E C 0.8097(2) 0.4472(3) 0.3582(2)
C1E C 0.8670(2) 0.3393(3) 0.3565(2)
N2E N 0.81682(17) 0.2406(2) 0.38699(18)
C7E C 0.8671(3) 0.1307(3) 0.4031(3)
H6E H 0.923(2) 0.137(3) 0.455(2)
H7E H 0.892(2) 0.108(3) 0.345(2)
H5E H 0.769(2) 0.228(2) 0.340(2)
C5E C 0.8706(3) 0.3222(3) 0.2492(2)
H13E H 0.899(2) 0.383(3) 0.226(2)
H14E H 0.904(2) 0.253(3) 0.244(2)
H15E H 0.807(3) 0.313(3) 0.204(3)
C9E C 0.9677(2) 0.3492(3) 0.4244(2)
H10E H 1.0099(19) 0.287(2) 0.4131(18)
H11E H 0.996(2) 0.418(3) 0.413(2)
H12E H 0.969(2) 0.352(3) 0.495(2)
H1E H 0.745(2) 0.437(2) 0.310(2)
H2E H 0.838(2) 0.505(3) 0.331(2)
C3E C 0.7769(3) 0.6170(3) 0.4520(3)
H16E H 0.827(2) 0.655(3) 0.433(2)
H17E H 0.718(2) 0.628(3) 0.401(2)
H18E H 0.771(2) 0.646(3) 0.517(3)
H4E H 0.851(2) 0.476(2) 0.506(2)
H3E H 0.681(2) 0.429(2) 0.439(2)
H8E H 0.661(2) 0.538(3) 0.559(2)
H9E H 0.752(2) 0.469(3) 0.622(2)
C8F C 1.0645(2) 0.3209(2) 0.8199(2)
N4F N 1.12462(18) 0.2901(2) 0.88600(18)
N4E N 0.62462(18) 0.2099(2) 0.38600(18)
Ni1C Ni 1.2500 0.2500 1.0000
O1 O 0.55640(17) 0.3951(2) 0.20528(18)
O2 O 0.56039(16) 0.5359(2) 0.32441(17)
Cl1 Cl 0.5000 0.46481(9) 0.2500
O1F O 0.44360(17) 0.3951(2) 0.29472(18)
O2F O 0.43961(16) 0.5359(2) 0.17559(17)
loop_
_geom_bond_atom_site_label_1
_geom_bond_atom_site_label_2
_geom_bond_site_symmetry_1
_geom_bond_site_symmetry_2
Ni1 N1 1_555 1_555
O1 Cl1 1_555 1_555
O2 Cl1 1_555 1_555
N1 C4 1_555 1_555
N2 Ni1 1_555 1_555
C1 N2 1_555 1_555
C2 C1 1_555 1_555
C3 C4 1_555 1_555
C4 C2 1_555 1_555
C5 C1 1_555 1_555
C6 N1 1_555 1_555
C7 N2 1_555 1_555
C8 N3 1_555 1_555
C9 C1 1_555 1_555
N3 C8F 1_555 1_555
Cl1 O1F 1_555 1_555
N4 Ni1 1_555 1_555
H1 C2 1_555 1_555
H2 C2 1_555 1_555
H3 N1 1_555 1_555
H4 C4 1_555 1_555
H5 N2 1_555 1_555
H6 C7 1_555 1_555
H7 C7 1_555 1_555
H8 C6 1_555 1_555
H9 C6 1_555 1_555
H10 C9 1_555 1_555
H11 C9 1_555 1_555
H12 C9 1_555 1_555
H13 C5 1_555 1_555
H14 C5 1_555 1_555
H15 C5 1_555 1_555
H16 C3 1_555 1_555
H17 C3 1_555 1_555
H18 C3 1_555 1_555
O2F Cl1 1_555 1_555
C6E C7 1_555 1_555
N1E Ni1 1_555 1_555
C4E N1E 1_555 1_555
C2E C4E 1_555 1_555
C1E C2E 1_555 1_555
N2E Ni1 1_555 1_555
C7E C6 1_555 1_555
H6E C7E 1_555 1_555
H7E C7E 1_555 1_555
H5E N2E 1_555 1_555
C5E C1E 1_555 1_555
H13E C5E 1_555 1_555
H14E C5E 1_555 1_555
H15E C5E 1_555 1_555
C9E C1E 1_555 1_555
H10E C9E 1_555 1_555
H11E C9E 1_555 1_555
H12E C9E 1_555 1_555
H1E C2E 1_555 1_555
H2E C2E 1_555 1_555
C3E C4E 1_555 1_555
H16E C3E 1_555 1_555
H17E C3E 1_555 1_555
H18E C3E 1_555 1_555
H4E C4E 1_555 1_555
H3E N1E 1_555 1_555
H8E C6E 1_555 1_555
H9E C6E 1_555 1_555
C8F N4F 1_555 1_555
N4F Ni1C 1_555 1_555
N4E Ni1 1_555 1_555
C8 N4 1_555 1_555
C6E N1E 1_555 1_555
C1E N2E 1_555 1_555
N2E C7E 1_555 1_555

#END
