
#######################################################################
#
#                 Cambridge Crystallographic Data Centre
#                                CCDC 
#
#######################################################################
#
# If this CIF has been generated from an entry in the Cambridge 
# Structural Database, then it will include bibliographic, chemical, 
# crystal, experimental, refinement or atomic coordinate data resulting 
# from the CCDC's data processing and validation procedures.
#
#######################################################################

data_IWATUW
_symmetry_cell_setting           monoclinic
_symmetry_space_group_name_H-M   'P 21/c'
_symmetry_Int_Tables_number      14
_space_group_name_Hall           '-P 2ybc'
loop_
_symmetry_equiv_pos_site_id
_symmetry_equiv_pos_as_xyz
1 x,y,z
2 -x,1/2+y,1/2-z
3 -x,-y,-z
4 x,1/2-y,1/2+z
_cell_length_a                   11.7606(19)
_cell_length_b                   13.304(2)
_cell_length_c                   19.695(3)
_cell_angle_alpha                90
_cell_angle_beta                 98.584(3)
_cell_angle_gamma                90
_cell_volume                     3047.02
loop_
_atom_site_label
_atom_site_type_symbol
_atom_site_fract_x
_atom_site_fract_y
_atom_site_fract_z
Zn1 Zn 0.50060(2) 1.119419(17) -0.001813(12)
Zn2 Zn 0.29514(2) 0.970684(17) 0.073430(12)
O1 O 0.54723(14) 1.21996(11) -0.07521(8)
O2 O 0.63270(14) 1.13630(10) -0.15176(8)
O3 O 0.67777(13) 1.12807(11) 0.05257(8)
O4 O 0.79844(13) 1.13854(11) -0.02398(8)
O5 O 0.34225(13) 1.11815(12) -0.06186(8)
O6 O 0.21062(14) 1.07536(12) 0.00395(8)
O7 O 0.45337(12) 1.00847(10) 0.06096(7)
N1 N 0.52520(16) 1.75436(12) -0.06117(9)
N2 N 1.2681(2) 1.5059(2) 0.00609(14)
N3 N 0.22344(15) 1.45988(12) -0.34896(8)
C1 C 0.58798(18) 1.21312(15) -0.13025(11)
C2 C 0.58655(18) 1.30769(15) -0.17273(11)
C3 C 0.6215(2) 1.30804(17) -0.23682(12)
H1 H 0.6411 1.2480 -0.2563
C4 C 0.6274(2) 1.39769(17) -0.27215(12)
H2 H 0.6478 1.3973 -0.3160
C5 C 0.6031(2) 1.48744(16) -0.24224(12)
H3 H 0.6105 1.5476 -0.2652
C6 C 0.56759(19) 1.48872(15) -0.17797(11)
C7 C 0.55787(17) 1.39809(15) -0.14471(11)
H4 H 0.5314 1.3979 -0.1025
C8 C 0.54790(18) 1.58338(15) -0.14180(11)
C9 C 0.6092(2) 1.67075(16) -0.14908(12)
H5 H 0.6592 1.6740 -0.1815
C10 C 0.5961(2) 1.75263(16) -0.10837(12)
H6 H 0.6390 1.8100 -0.1139
C11 C 0.46369(19) 1.67109(15) -0.05575(11)
H7 H 0.4125 1.6706 -0.0240
C12 C 0.47175(19) 1.58631(16) -0.09423(11)
H8 H 0.4262 1.5307 -0.0885
C13 C 0.76418(18) 1.16370(15) 0.03146(11)
C14 C 0.83342(18) 1.24312(15) 0.07387(11)
C15 C 0.92895(18) 1.28561(16) 0.05182(11)
H9 H 0.9534 1.2613 0.0121
C16 C 0.9893(2) 1.36395(17) 0.08774(12)
C17 C 0.9516(2) 1.39744(18) 0.14749(13)
H10 H 0.9912 1.4489 0.1728
C18 C 0.8569(2) 1.35563(19) 0.16971(12)
H11 H 0.8328 1.3790 0.2097
C19 C 0.7974(2) 1.27912(17) 0.13290(11)
H12 H 0.7328 1.2516 0.1479
C20 C 1.0877(2) 1.41179(18) 0.06125(12)
C21 C 1.1527(2) 1.3608(2) 0.01945(14)
H13 H 1.1378 1.2935 0.0091
C22 C 1.2399(2) 1.4102(3) -0.00697(16)
H14 H 1.2814 1.3743 -0.0356
C23 C 1.2066(2) 1.5531(2) 0.04669(16)
H15 H 1.2249 1.6199 0.0571
C24 C 1.1173(2) 1.51151(19) 0.07494(15)
H16 H 1.0772 1.5499 0.1030
C25 C 0.24177(19) 1.11312(15) -0.04858(11)
C26 C 0.15094(18) 1.16261(16) -0.09964(11)
C27 C 0.18474(19) 1.22546(16) -0.14906(11)
H17 H 0.2626 1.2319 -0.1521
C28 C 0.10510(19) 1.27890(16) -0.19411(11)
C29 C -0.01117(19) 1.26797(18) -0.18901(11)
H18 H -0.0659 1.3038 -0.2184
C30 C -0.0456(2) 1.20436(18) -0.14065(11)
H19 H -0.1235 1.1968 -0.1381
C31 C 0.03453(19) 1.15183(17) -0.09594(11)
H20 H 0.0106 1.1093 -0.0634
C32 C 0.14373(18) 1.34503(16) -0.24657(11)
C33 C 0.2476(2) 1.39610(17) -0.23484(11)
H21 H 0.2932 1.3921 -0.1921
C34 C 0.28314(19) 1.45239(17) -0.28597(11)
H22 H 0.3523 1.4871 -0.2763
C35 C 0.12256(19) 1.41220(17) -0.36040(11)
H23 H 0.0789 1.4172 -0.4037
C36 C 0.08026(19) 1.35613(17) -0.31131(11)
H24 H 0.0087 1.3255 -0.3215
H25 H 0.5048 1.0008 0.1000
Zn1B Zn 0.49940(2) 0.880581(17) 0.001813(12)
Zn1_2 Zn 0.50060(2) 0.119419(17) -0.001813(12)
Zn1B_2 Zn 0.49940(2) 1.880581(17) 0.001813(12)
Zn2B Zn 0.70486(2) 1.029316(17) -0.073430(12)
Zn2A Zn 0.70486(2) 0.470684(17) 0.426570(12)
Zn2C Zn 0.29514(2) 1.529316(17) -0.426570(12)
O1B O 0.45277(14) 0.78004(11) 0.07521(8)
O2B O 0.36730(14) 0.86370(10) 0.15176(8)
O3B O 0.32223(13) 0.87193(11) -0.05257(8)
O4B O 0.20156(13) 0.86146(11) 0.02398(8)
O5B O 0.65775(13) 0.88185(12) 0.06186(8)
O6B O 0.78938(14) 0.92464(12) -0.00395(8)
O7B O 0.54663(12) 0.99153(10) -0.06096(7)
N1B N 0.47480(16) 0.24564(12) 0.06117(9)
N1_2 N 0.52520(16) 0.75436(12) -0.06117(9)
N1B_2 N 0.47480(16) 1.24564(12) 0.06117(9)
N2B N -0.2681(2) 0.4941(2) -0.00609(14)
N3B N 0.77656(15) 0.54012(12) 0.34896(8)
N3A N 0.77656(15) 0.95988(12) -0.15104(8)
N3C N 0.22344(15) 1.04012(12) 0.15104(8)
C1B C 0.41202(18) 0.78688(15) 0.13025(11)
C2B C 0.41345(18) 0.69231(15) 0.17273(11)
C3B C 0.3785(2) 0.69196(17) 0.23682(12)
H1B H 0.3589 0.7520 0.2563
C4B C 0.3726(2) 0.60231(17) 0.27215(12)
H2B H 0.3522 0.6027 0.3160
C5B C 0.3969(2) 0.51256(16) 0.24224(12)
H3B H 0.3895 0.4524 0.2652
C6B C 0.43241(19) 0.51128(15) 0.17797(11)
C7B C 0.44213(17) 0.60191(15) 0.14471(11)
H4B H 0.4686 0.6021 0.1025
C8B C 0.45210(18) 0.41662(15) 0.14180(11)
C9B C 0.3908(2) 0.32925(16) 0.14908(12)
H5B H 0.3408 0.3260 0.1815
C10B C 0.4039(2) 0.24737(16) 0.10837(12)
H6B H 0.3610 0.1900 0.1139
C11B C 0.53631(19) 0.32891(15) 0.05575(11)
H7B H 0.5875 0.3294 0.0240
C12B C 0.52825(19) 0.41369(16) 0.09423(11)
H8B H 0.5738 0.4693 0.0885
C13B C 0.23582(18) 0.83630(15) -0.03146(11)
C14B C 0.16658(18) 0.75688(15) -0.07387(11)
C15B C 0.07105(18) 0.71439(16) -0.05182(11)
H9B H 0.0466 0.7387 -0.0121
C16B C 0.0107(2) 0.63605(17) -0.08774(12)
C17B C 0.0484(2) 0.60256(18) -0.14749(13)
H10B H 0.0088 0.5511 -0.1728
C18B C 0.1431(2) 0.64437(19) -0.16971(12)
H11B H 0.1672 0.6210 -0.2097
C19B C 0.2026(2) 0.72088(17) -0.13290(11)
H12B H 0.2672 0.7484 -0.1479
C20B C -0.0877(2) 0.58821(18) -0.06125(12)
C21B C -0.1527(2) 0.6392(2) -0.01945(14)
H13B H -0.1378 0.7065 -0.0091
C22B C -0.2399(2) 0.5898(3) 0.00697(16)
H14B H -0.2814 0.6257 0.0356
C23B C -0.2066(2) 0.4469(2) -0.04669(16)
H15B H -0.2249 0.3801 -0.0571
C24B C -0.1173(2) 0.48849(19) -0.07494(15)
H16B H -0.0772 0.4501 -0.1030
C25B C 0.75823(19) 0.88688(15) 0.04858(11)
C26B C 0.84906(18) 0.83739(16) 0.09964(11)
C27B C 0.81526(19) 0.77454(16) 0.14906(11)
H17B H 0.7374 0.7681 0.1521
C28B C 0.89490(19) 0.72110(16) 0.19411(11)
C29B C 1.01117(19) 0.73203(18) 0.18901(11)
H18B H 1.0659 0.6962 0.2184
C30B C 1.0456(2) 0.79564(18) 0.14065(11)
H19B H 1.1235 0.8032 0.1381
C31B C 0.96547(19) 0.84817(17) 0.09594(11)
H20B H 0.9894 0.8907 0.0634
C32B C 0.85627(18) 0.65497(16) 0.24657(11)
C33B C 0.7524(2) 0.60390(17) 0.23484(11)
H21B H 0.7068 0.6079 0.1921
C34B C 0.71686(19) 0.54761(17) 0.28597(11)
H22B H 0.6477 0.5129 0.2763
C35B C 0.87744(19) 0.58780(17) 0.36040(11)
H23B H 0.9211 0.5828 0.4037
C36B C 0.91974(19) 0.64387(17) 0.31131(11)
H24B H 0.9913 0.6745 0.3215
H25B H 0.4952 0.9992 -0.1000
loop_
_geom_bond_atom_site_label_1
_geom_bond_atom_site_label_2
_geom_bond_site_symmetry_1
_geom_bond_site_symmetry_2
Zn1 O1 1_555 1_555
Zn2 O6 1_555 1_555
O1 C1 1_555 1_555
O2 C1 1_555 1_555
O3 Zn1 1_555 1_555
O4 C13 1_555 1_555
O5 Zn1 1_555 1_555
O6 C25 1_555 1_555
O7 Zn1 1_555 1_555
N1 C10 1_555 1_555
N2 C22 1_555 1_555
N3 C34 1_555 1_555
C1 C2 1_555 1_555
C2 C3 1_555 1_555
C3 H1 1_555 1_555
C4 C3 1_555 1_555
H2 C4 1_555 1_555
C5 C4 1_555 1_555
H3 C5 1_555 1_555
C6 C5 1_555 1_555
C7 C2 1_555 1_555
H4 C7 1_555 1_555
C8 C6 1_555 1_555
C9 C8 1_555 1_555
H5 C9 1_555 1_555
C10 C9 1_555 1_555
H6 C10 1_555 1_555
C11 N1 1_555 1_555
H7 C11 1_555 1_555
C12 C8 1_555 1_555
H8 C12 1_555 1_555
C13 O3 1_555 1_555
C14 C13 1_555 1_555
C15 C14 1_555 1_555
H9 C15 1_555 1_555
C16 C15 1_555 1_555
C17 C16 1_555 1_555
H10 C17 1_555 1_555
C18 C17 1_555 1_555
H11 C18 1_555 1_555
C19 C14 1_555 1_555
H12 C19 1_555 1_555
C20 C16 1_555 1_555
C21 C20 1_555 1_555
H13 C21 1_555 1_555
C22 C21 1_555 1_555
H14 C22 1_555 1_555
C23 N2 1_555 1_555
H15 C23 1_555 1_555
C24 C20 1_555 1_555
H16 C24 1_555 1_555
C25 O5 1_555 1_555
C26 C25 1_555 1_555
C27 C26 1_555 1_555
H17 C27 1_555 1_555
C28 C27 1_555 1_555
C29 C28 1_555 1_555
H18 C29 1_555 1_555
C30 C29 1_555 1_555
H19 C30 1_555 1_555
C31 C26 1_555 1_555
H20 C31 1_555 1_555
C32 C28 1_555 1_555
C33 C32 1_555 1_555
H21 C33 1_555 1_555
C34 C33 1_555 1_555
H22 C34 1_555 1_555
C35 N3 1_555 1_555
H23 C35 1_555 1_555
C36 C32 1_555 1_555
H24 C36 1_555 1_555
H25 O7 1_555 1_555
Zn1B O7 1_555 1_555
Zn1_2 N1B 1_555 1_555
Zn1B_2 N1 1_555 1_555
Zn2B O2 1_555 1_555
Zn2A N3B 1_555 1_555
Zn2C N3 1_555 1_555
O1B Zn1B 1_555 1_555
O2B Zn2 1_555 1_555
O3B Zn1B 1_555 1_555
O4B Zn2 1_555 1_555
O5B Zn1B 1_555 1_555
O6B Zn2B 1_555 1_555
O7B Zn1 1_555 1_555
N1B C10B 1_555 1_555
N1_2 Zn1B 1_555 1_555
N1B_2 Zn1 1_555 1_555
N2B C22B 1_555 1_555
N3B C34B 1_555 1_555
N3A Zn2B 1_555 1_555
N3C Zn2 1_555 1_555
C1B O1B 1_555 1_555
C2B C1B 1_555 1_555
C3B C2B 1_555 1_555
H1B C3B 1_555 1_555
C4B C3B 1_555 1_555
H2B C4B 1_555 1_555
C5B C4B 1_555 1_555
H3B C5B 1_555 1_555
C6B C5B 1_555 1_555
C7B C2B 1_555 1_555
H4B C7B 1_555 1_555
C8B C6B 1_555 1_555
C9B C8B 1_555 1_555
H5B C9B 1_555 1_555
C10B C9B 1_555 1_555
H6B C10B 1_555 1_555
C11B N1B 1_555 1_555
H7B C11B 1_555 1_555
C12B C8B 1_555 1_555
H8B C12B 1_555 1_555
C13B O3B 1_555 1_555
C14B C13B 1_555 1_555
C15B C14B 1_555 1_555
H9B C15B 1_555 1_555
C16B C15B 1_555 1_555
C17B C16B 1_555 1_555
H10B C17B 1_555 1_555
C18B C17B 1_555 1_555
H11B C18B 1_555 1_555
C19B C14B 1_555 1_555
H12B C19B 1_555 1_555
C20B C16B 1_555 1_555
C21B C20B 1_555 1_555
H13B C21B 1_555 1_555
C22B C21B 1_555 1_555
H14B C22B 1_555 1_555
C23B N2B 1_555 1_555
H15B C23B 1_555 1_555
C24B C20B 1_555 1_555
H16B C24B 1_555 1_555
C25B O5B 1_555 1_555
C26B C25B 1_555 1_555
C27B C26B 1_555 1_555
H17B C27B 1_555 1_555
C28B C27B 1_555 1_555
C29B C28B 1_555 1_555
H18B C29B 1_555 1_555
C30B C29B 1_555 1_555
H19B C30B 1_555 1_555
C31B C26B 1_555 1_555
H20B C31B 1_555 1_555
C32B C28B 1_555 1_555
C33B C32B 1_555 1_555
H21B C33B 1_555 1_555
C34B C33B 1_555 1_555
H22B C34B 1_555 1_555
C35B N3B 1_555 1_555
H23B C35B 1_555 1_555
C36B C32B 1_555 1_555
H24B C36B 1_555 1_555
H25B O7B 1_555 1_555
Zn2 O7 1_555 1_555
O4 Zn2B 1_555 1_555
C6 C7 1_555 1_555
C11 C12 1_555 1_555
C18 C19 1_555 1_555
C23 C24 1_555 1_555
C30 C31 1_555 1_555
C35 C36 1_555 1_555
Zn1B O7B 1_555 1_555
Zn2B O7B 1_555 1_555
O2B C1B 1_555 1_555
O4B C13B 1_555 1_555
O6B C25B 1_555 1_555
C6B C7B 1_555 1_555
C11B C12B 1_555 1_555
C18B C19B 1_555 1_555
C23B C24B 1_555 1_555
C30B C31B 1_555 1_555
C35B C36B 1_555 1_555

#END
