
#######################################################################
#
#                 Cambridge Crystallographic Data Centre
#                                CCDC 
#
#######################################################################
#
# If this CIF has been generated from an entry in the Cambridge 
# Structural Database, then it will include bibliographic, chemical, 
# crystal, experimental, refinement or atomic coordinate data resulting 
# from the CCDC's data processing and validation procedures.
#
#######################################################################

data_IWAWUZ01
_symmetry_cell_setting           orthorhombic
_symmetry_space_group_name_H-M   'P n m a'
_symmetry_Int_Tables_number      62
_space_group_name_Hall           '-P 2ac 2n'
loop_
_symmetry_equiv_pos_site_id
_symmetry_equiv_pos_as_xyz
1 x,y,z
2 1/2-x,-y,1/2+z
3 1/2+x,1/2-y,1/2-z
4 -x,1/2+y,-z
5 -x,-y,-z
6 1/2+x,y,1/2-z
7 1/2-x,1/2+y,1/2+z
8 x,1/2-y,z
_cell_length_a                   9.3658(5)
_cell_length_b                   14.5640(7)
_cell_length_c                   18.5427(9)
_cell_angle_alpha                90
_cell_angle_beta                 90
_cell_angle_gamma                90
_cell_volume                     2529.29
loop_
_atom_site_label
_atom_site_type_symbol
_atom_site_fract_x
_atom_site_fract_y
_atom_site_fract_z
Cu1 Cu 0.41099(9) 0.7500 0.06669(4)
Cu2 Cu 0.00547(8) 0.7500 0.19197(4)
S1 S 0.3134(3) 0.7500 -0.18397(10)
S2 S 0.9403(2) 0.7500 0.02746(13)
O1 O 0.2034(4) 0.7500 0.1625(2)
O2 O 0.3072(5) 0.7500 0.2725(2)
O3 O 0.4397(4) 0.7500 0.1728(2)
N1 N 0.3536(7) 0.7500 -0.0353(3)
N2 N 0.6425(7) 0.7500 0.0518(3)
N3 N 0.0035(4) 0.6115(3) 0.1877(2)
N4 N 0.3820(4) 0.8879(3) 0.07009(19)
C1 C 0.3372(8) 0.7500 -0.0972(4)
C2 C 0.7670(8) 0.7500 0.0423(4)
C3 C 0.3163(7) 0.7500 0.2032(4)
C4 C -0.1018(5) 0.5664(4) 0.1534(3)
H1 H -0.1739 0.6006 0.1318
C5 C -0.1084(6) 0.4726(4) 0.1487(3)
H2 H -0.1828 0.4442 0.1241
C6 C -0.0030(6) 0.4213(4) 0.1810(3)
H3 H -0.0054 0.3575 0.1795
C7 C 0.1063(6) 0.4669(4) 0.2158(3)
H4 H 0.1801 0.4341 0.2373
C8 C 0.1049(5) 0.5617(4) 0.2183(3)
H5 H 0.1783 0.5918 0.2424
C9 C 0.2653(6) 0.9275(4) 0.0414(3)
H6 H 0.1963 0.8903 0.0204
C10 C 0.2444(6) 1.0214(4) 0.0422(3)
H7 H 0.163 1.0468 0.0214
C11 C 0.3451(7) 1.0767(4) 0.0738(3)
H8 H 0.3334 1.14 0.0748
C12 C 0.4632(7) 1.0366(4) 0.1039(3)
H9 H 0.5329 1.0726 0.1257
C13 C 0.4777(6) 0.9426(4) 0.1015(3)
H10 H 0.5577 0.9162 0.1228
N3G N 0.0035(4) 0.8885(3) 0.1877(2)
N4G N 0.3820(4) 0.6121(3) 0.07009(19)
C4G C -0.1018(5) 0.9336(4) 0.1534(3)
H1G H -0.1739 0.8994 0.1318
C5G C -0.1084(6) 1.0274(4) 0.1487(3)
H2G H -0.1828 1.0558 0.1241
C6G C -0.0030(6) 1.0787(4) 0.1810(3)
H3G H -0.0054 1.1425 0.1795
C7G C 0.1063(6) 1.0331(4) 0.2158(3)
H4G H 0.1801 1.0659 0.2373
C8G C 0.1049(5) 0.9383(4) 0.2183(3)
H5G H 0.1783 0.9082 0.2424
C9G C 0.2653(6) 0.5725(4) 0.0414(3)
H6G H 0.1963 0.6097 0.0204
C10G C 0.2444(6) 0.4786(4) 0.0422(3)
H7G H 0.163 0.4532 0.0214
C11G C 0.3451(7) 0.4233(4) 0.0738(3)
H8G H 0.3334 0.36 0.0748
C12G C 0.4632(7) 0.4634(4) 0.1039(3)
H9G H 0.5329 0.4274 0.1257
C13G C 0.4777(6) 0.5574(4) 0.1015(3)
H10G H 0.5577 0.5838 0.1228
Cu2B Cu 0.50547(8) 0.7500 0.30803(4)
O2B O -0.1928(5) 0.7500 0.2275(2)
O3B O -0.0603(4) 0.7500 0.3272(2)
loop_
_geom_bond_atom_site_label_1
_geom_bond_atom_site_label_2
_geom_bond_site_symmetry_1
_geom_bond_site_symmetry_2
Cu1 O1 1_555 1_555
Cu2 O1 1_555 1_555
S1 C1 1_555 1_555
S2 C2 1_555 1_555
O1 C3 1_555 1_555
O2 C3 1_555 1_555
O3 Cu1 1_555 1_555
N1 Cu1 1_555 1_555
N2 Cu1 1_555 1_555
N3 Cu2 1_555 1_555
N4 Cu1 1_555 1_555
C1 N1 1_555 1_555
C2 N2 1_555 1_555
C3 O3 1_555 1_555
C4 N3 1_555 1_555
H1 C4 1_555 1_555
C5 C4 1_555 1_555
H2 C5 1_555 1_555
C6 C5 1_555 1_555
H3 C6 1_555 1_555
C7 C6 1_555 1_555
H4 C7 1_555 1_555
C8 N3 1_555 1_555
H5 C8 1_555 1_555
C9 N4 1_555 1_555
H6 C9 1_555 1_555
C10 C9 1_555 1_555
H7 C10 1_555 1_555
C11 C10 1_555 1_555
H8 C11 1_555 1_555
C12 C11 1_555 1_555
H9 C12 1_555 1_555
C13 N4 1_555 1_555
H10 C13 1_555 1_555
N3G Cu2 1_555 1_555
N4G Cu1 1_555 1_555
C4G N3G 1_555 1_555
H1G C4G 1_555 1_555
C5G C4G 1_555 1_555
H2G C5G 1_555 1_555
C6G C5G 1_555 1_555
H3G C6G 1_555 1_555
C7G C6G 1_555 1_555
H4G C7G 1_555 1_555
C8G N3G 1_555 1_555
H5G C8G 1_555 1_555
C9G N4G 1_555 1_555
H6G C9G 1_555 1_555
C10G C9G 1_555 1_555
H7G C10G 1_555 1_555
C11G C10G 1_555 1_555
H8G C11G 1_555 1_555
C12G C11G 1_555 1_555
H9G C12G 1_555 1_555
C13G N4G 1_555 1_555
H10G C13G 1_555 1_555
Cu2B O2 1_555 1_555
O2B Cu2 1_555 1_555
O3B Cu2 1_555 1_555
O3 Cu2B 1_555 1_555
C7 C8 1_555 1_555
C12 C13 1_555 1_555
C7G C8G 1_555 1_555
C12G C13G 1_555 1_555

#END
