
#######################################################################
#
#                 Cambridge Crystallographic Data Centre
#                                CCDC 
#
#######################################################################
#
# If this CIF has been generated from an entry in the Cambridge 
# Structural Database, then it will include bibliographic, chemical, 
# crystal, experimental, refinement or atomic coordinate data resulting 
# from the CCDC's data processing and validation procedures.
#
#######################################################################

data_IWEVAH
_symmetry_cell_setting           triclinic
_symmetry_space_group_name_H-M   'P -1'
_symmetry_Int_Tables_number      2
_space_group_name_Hall           '-P 1'
loop_
_symmetry_equiv_pos_site_id
_symmetry_equiv_pos_as_xyz
1 x,y,z
2 -x,-y,-z
_cell_length_a                   8.680(1)
_cell_length_b                   10.035(1)
_cell_length_c                   13.445(1)
_cell_angle_alpha                77.35(1)
_cell_angle_beta                 71.171(1)
_cell_angle_gamma                80.135(1)
_cell_volume                     1075.09
loop_
_atom_site_label
_atom_site_type_symbol
_atom_site_fract_x
_atom_site_fract_y
_atom_site_fract_z
Cd1 Cd 0.4406(1) 0.9303(1) 0.3977(1)
O1 O 0.3836(3) 0.8264(2) 0.2679(2)
O3 O 0.2142(3) 0.9986(5) 0.3315(2)
O5 O 0.3604(3) 1.1010(2) 0.5028(2)
O6 O 0.3134(3) 1.2288(2) 0.6236(2)
N1 N -0.0982(5) 0.5677(3) 0.8784(3)
N2 N -0.0020(3) 0.2887(3) 0.9210(2)
N3 N 0.2954(3) 0.7805(2) 0.5398(2)
N4 N -0.4095(3) 0.0806(2) 1.2568(2)
C1 C 0.0351(4) 0.5105(3) 0.8122(3)
C3 C 0.0829(4) 0.3700(3) 0.8366(2)
C5 C -0.13766 0.34633 0.98548
C6 C -0.1836(5) 0.4871(4) 0.9628(3)
C7 C 0.1247(4) 0.6015(3) 0.7176(2)
C8 C 0.0630(4) 0.7385(3) 0.6932(3)
C9 C 0.1498(4) 0.8228(3) 0.6054(2)
C10 C 0.3531(5) 0.6484(3) 0.5635(3)
C11 C 0.2734(5) 0.5575(3) 0.6486(3)
C12 C -0.2333(4) 0.2574(3) 1.0785(2)
C13 C -0.3692(4) 0.3066(3) 1.1566(3)
C14 C -0.4513(4) 0.2178(3) 1.2416(3)
C15 C -0.2793(4) 0.0327(3) 1.1827(2)
C16 C -0.1902(3) 0.1155(3) 1.0951(2)
C17 C 0.2578(4) 0.9137(4) 0.2702(3)
C18 C 0.1597(5) 0.9133(5) 0.1960(3)
C19 C 0.2731(4) 1.1939(3) 0.5525(2)
C20 C 0.1205(5) 1.2627(5) 0.5262(4)
O5A O 0.6396(3) 0.8990(2) 0.4972(2)
O6A O 0.6866(3) 0.7712(2) 0.3764(2)
N4_2 N 0.5905(3) 1.0806(2) 0.2568(2)
Cd1A Cd 0.5594(1) 1.0697(1) 0.6023(1)
Cd1_2 Cd -0.5594(1) -0.0697(1) 1.3977(1)
O2 O 0.4560(4) 1.3003(3) -0.0915(3)
C2 C 0.3960(5) 1.1924(4) -0.0093(4)
O4 O 0.3496(8) 1.5379(5) 0.3390(5)
C4 C 0.25298 1.52426 0.28476
loop_
_geom_bond_atom_site_label_1
_geom_bond_atom_site_label_2
_geom_bond_site_symmetry_1
_geom_bond_site_symmetry_2
Cd1 O1 1_555 1_555
O1 C17 1_555 1_555
O2 C2 1_555 1_555
O3 Cd1 1_555 1_555
O4 C4 1_555 1_555
O5 Cd1 1_555 1_555
O6 C19 1_555 1_555
N1 C1 1_555 1_555
N2 C3 1_555 1_555
N3 Cd1 1_555 1_555
N4 C14 1_555 1_555
C1 C3 1_555 1_555
C5 N2 1_555 1_555
C6 N1 1_555 1_555
C7 C1 1_555 1_555
C8 C7 1_555 1_555
C9 N3 1_555 1_555
C10 N3 1_555 1_555
C11 C7 1_555 1_555
C12 C5 1_555 1_555
C13 C12 1_555 1_555
C14 C13 1_555 1_555
C15 N4 1_555 1_555
C16 C12 1_555 1_555
C17 O3 1_555 1_555
C18 C17 1_555 1_555
C19 O5 1_555 1_555
C20 C19 1_555 1_555
O5A Cd1 1_555 1_555
O6A Cd1 1_555 1_555
N4_2 Cd1 1_555 1_555
Cd1A O5 1_555 1_555
Cd1_2 N4 1_555 1_555
O6 Cd1A 1_555 1_555
C5 C6 1_555 1_555
C8 C9 1_555 1_555
C10 C11 1_555 1_555
C15 C16 1_555 1_555
O5A Cd1A 1_555 1_555

#END
