
#######################################################################
#
#                 Cambridge Crystallographic Data Centre
#                                CCDC 
#
#######################################################################
#
# If this CIF has been generated from an entry in the Cambridge 
# Structural Database, then it will include bibliographic, chemical, 
# crystal, experimental, refinement or atomic coordinate data resulting 
# from the CCDC's data processing and validation procedures.
#
#######################################################################

data_IWEVEL
_symmetry_cell_setting           triclinic
_symmetry_space_group_name_H-M   'P -1'
_symmetry_Int_Tables_number      2
_space_group_name_Hall           '-P 1'
loop_
_symmetry_equiv_pos_site_id
_symmetry_equiv_pos_as_xyz
1 x,y,z
2 -x,-y,-z
_cell_length_a                   9.306(1)
_cell_length_b                   9.733(1)
_cell_length_c                   11.550(1)
_cell_angle_alpha                78.86(1)
_cell_angle_beta                 76.73(1)
_cell_angle_gamma                85.91(1)
_cell_volume                     998.628
loop_
_atom_site_label
_atom_site_type_symbol
_atom_site_fract_x
_atom_site_fract_y
_atom_site_fract_z
Cd1 Cd 0.1609(1) 0.3819(1) 0.9278(1)
N1 N 0.1915(2) 0.0327(2) 1.3829(2)
N2 N 0.1476(2) -0.2473(2) 1.4932(2)
N3 N 0.0460(2) 0.1971(2) 1.0657(2)
N4 N 0.2768(2) -0.4201(2) 1.8105(2)
O1 O 0.3921(2) 0.3054(2) 0.9901(1)
O2 O 0.3493(2) 0.2331(2) 0.8325(1)
O3 O -0.0869(2) 0.4886(2) 0.9164(2)
O4 O 0.0230(2) 0.3742(2) 0.7744(1)
C1 C 0.2501(3) -0.0267(2) 1.4769(2)
C2 C 0.2288(2) -0.1660(2) 1.5331(2)
C3 C 0.0882(3) -0.1870(2) 1.3999(2)
C4 C 0.0409(3) 0.0173(2) 1.2409(2)
C5 C 0.1089(2) -0.0475(2) 1.3438(2)
C6 C -0.0863(3) -0.0335(2) 1.2222(2)
C7 C -0.1471(3) 0.0351(2) 1.1265(2)
C8 C -0.0784(3) 0.1492(2) 1.0508(2)
C9 C 0.1036(2) 0.1321(2) 1.1592(2)
C10 C 0.2903(2) -0.2314(2) 1.6393(2)
C11 C 0.4046(3) -0.1753(2) 1.6731(2)
C12 C 0.4537(3) -0.2440(2) 1.7747(2)
C13 C 0.3873(3) -0.3649(2) 1.8413(2)
C14 C 0.2312(3) -0.3540(2) 1.7109(2)
C15 C 0.4326(3) 0.2401(2) 0.9040(2)
C16 C 0.5825(3) 0.1665(3) 0.8841(3)
C17 C -0.0804(3) 0.4539(2) 0.8160(2)
C18 C -0.1942(4) 0.5136(3) 0.7437(3)
N4_2 N 0.2768(2) 0.5799(2) 0.8105(2)
O3A O 0.0869(2) 0.5114(2) 1.0836(2)
Cd1_2 Cd 0.1609(1) -0.6181(1) 1.9278(1)
Cd1A Cd -0.1609(1) 0.6181(1) 1.0722(1)
C19 C 0.3492(4) 0.3289(3) 0.5415(3)
O5 O 0.4005(2) 0.1977(2) 0.5961(2)
loop_
_geom_bond_atom_site_label_1
_geom_bond_atom_site_label_2
_geom_bond_site_symmetry_1
_geom_bond_site_symmetry_2
Cd1 N3 1_555 1_555
N1 C1 1_555 1_555
N2 C2 1_555 1_555
N3 C8 1_555 1_555
N4 C13 1_555 1_555
O1 Cd1 1_555 1_555
O2 Cd1 1_555 1_555
O3 Cd1 1_555 1_555
O4 Cd1 1_555 1_555
C1 C2 1_555 1_555
C2 C10 1_555 1_555
C3 N2 1_555 1_555
C4 C5 1_555 1_555
C5 N1 1_555 1_555
C6 C4 1_555 1_555
C7 C6 1_555 1_555
C8 C7 1_555 1_555
C9 N3 1_555 1_555
C10 C11 1_555 1_555
C11 C12 1_555 1_555
C12 C13 1_555 1_555
C14 N4 1_555 1_555
C15 O1 1_555 1_555
C16 C15 1_555 1_555
C17 O3 1_555 1_555
C18 C17 1_555 1_555
C19 O5 1_555 1_555
N4_2 Cd1 1_555 1_555
O3A Cd1 1_555 1_555
Cd1_2 N4 1_555 1_555
Cd1A O3 1_555 1_555
O2 C15 1_555 1_555
O4 C17 1_555 1_555
C3 C5 1_555 1_555
C4 C9 1_555 1_555
C10 C14 1_555 1_555
O3A Cd1A 1_555 1_555

#END
