
#######################################################################
#
#                 Cambridge Crystallographic Data Centre
#                                CCDC 
#
#######################################################################
#
# If this CIF has been generated from an entry in the Cambridge 
# Structural Database, then it will include bibliographic, chemical, 
# crystal, experimental, refinement or atomic coordinate data resulting 
# from the CCDC's data processing and validation procedures.
#
#######################################################################

data_IWEYEP
_symmetry_cell_setting           monoclinic
_symmetry_space_group_name_H-M   'C 2/c'
_symmetry_Int_Tables_number      15
_space_group_name_Hall           '-C 2yn'
loop_
_symmetry_equiv_pos_site_id
_symmetry_equiv_pos_as_xyz
1 x,y,z
2 -x,y,1/2-z
3 1/2+x,1/2+y,z
4 1/2-x,1/2+y,1/2-z
5 -x,-y,-z
6 x,-y,1/2+z
7 1/2-x,1/2-y,-z
8 1/2+x,1/2-y,1/2+z
_cell_length_a                   22.836(4)
_cell_length_b                   9.3900(13)
_cell_length_c                   18.112(3)
_cell_angle_alpha                90
_cell_angle_beta                 115.826(3)
_cell_angle_gamma                90
_cell_volume                     3495.85
loop_
_atom_site_label
_atom_site_type_symbol
_atom_site_fract_x
_atom_site_fract_y
_atom_site_fract_z
Zn1 Zn 0.198067(11) 0.72612(2) 0.324570(13)
O1 O 0.23747(7) 0.58372(15) 0.45204(9)
O2 O 0.26747(8) 0.56813(14) 0.35275(9)
O3 O 0.29122(7) 0.29544(15) 0.27481(8)
O4 O 0.38183(8) 0.42406(17) 0.33293(10)
O5 O 0.26633(7) 0.88297(17) 0.39863(10)
H1 H 0.2529(14) 0.952(3) 0.3715(19)
H2 H 0.2614(15) 0.898(3) 0.441(2)
N1 N 0.07401(8) 0.85108(17) 0.42769(10)
N2 N 0.04806(9) 0.94290(19) 0.36342(11)
N3 N 0.12838(8) 0.81517(18) 0.35664(10)
N4 N 0.07567(9) 0.60230(18) 0.66741(11)
N5 N 0.02886(10) 0.5006(2) 0.65007(14)
N6 N 0.12512(9) 0.42518(18) 0.74756(11)
C1 C 0.05165(10) 0.8534(2) 0.49243(13)
H5 H 0.0042 0.8626 0.4673
H6 H 0.0702 0.9365 0.5277
C2 C 0.07131(12) 0.7192(2) 0.54441(14)
H7 H 0.0457 0.6385 0.5121
H8 H 0.1174 0.6990 0.5603
C3 C 0.06041(12) 0.7358(2) 0.62079(14)
H9 H 0.0882 0.8123 0.6551
H10 H 0.0150 0.7619 0.6051
C4 C 0.08250(10) 0.9175(2) 0.32252(13)
H11 H 0.0759 0.9658 0.2741
C5 C 0.12162(10) 0.7770(2) 0.42265(13)
H12 H 0.1468 0.7076 0.4605
C6 C 0.06116(12) 0.3969(3) 0.70048(15)
H13 H 0.0416 0.3105 0.7036
C7 C 0.13224(11) 0.5542(2) 0.72329(13)
H14 H 0.1717 0.6046 0.7428
C8 C 0.31015(9) 0.39478(19) 0.45851(12)
C9 C 0.34073(9) 0.3168(2) 0.41942(12)
C10 C 0.37654(11) 0.1961(2) 0.45786(13)
H15 H 0.3972 0.1433 0.4318
C11 C 0.38224(11) 0.1525(2) 0.53365(13)
H16 H 0.4063 0.0704 0.5586
C12 C 0.35231(12) 0.2304(2) 0.57275(13)
H17 H 0.3566 0.2023 0.6247
C13 C 0.31618(10) 0.3494(2) 0.53492(12)
H18 H 0.2953 0.4008 0.5611
C14 C 0.26939(10) 0.5235(2) 0.41959(12)
C15 C 0.33803(10) 0.3526(2) 0.33677(12)
Zn1C Zn 0.301933(11) 0.22612(2) 0.175430(13)
Zn1E Zn 0.198067(11) 0.27388(2) 0.824570(13)
O3C O 0.20878(7) 0.79544(15) 0.22519(8)
N6E N 0.12512(9) 0.57482(18) 0.24756(11)
O6 O 0.20874(10) 1.11161(19) 0.30055(11)
H3 H 0.1887(15) 1.072(3) 0.261(2)
H4 H 0.2346(14) 1.161(3) 0.2938(17)
loop_
_geom_bond_atom_site_label_1
_geom_bond_atom_site_label_2
_geom_bond_site_symmetry_1
_geom_bond_site_symmetry_2
Zn1 O1 1_555 1_555
O1 C14 1_555 1_555
O2 Zn1 1_555 1_555
O3 C15 1_555 1_555
O4 C15 1_555 1_555
O5 Zn1 1_555 1_555
H1 O5 1_555 1_555
H2 O5 1_555 1_555
O6 H3 1_555 1_555
H4 O6 1_555 1_555
N1 N2 1_555 1_555
N2 C4 1_555 1_555
N3 Zn1 1_555 1_555
N4 N5 1_555 1_555
N5 C6 1_555 1_555
N6 C6 1_555 1_555
C1 N1 1_555 1_555
H5 C1 1_555 1_555
H6 C1 1_555 1_555
C2 C1 1_555 1_555
H7 C2 1_555 1_555
H8 C2 1_555 1_555
C3 N4 1_555 1_555
H9 C3 1_555 1_555
H10 C3 1_555 1_555
C4 N3 1_555 1_555
H11 C4 1_555 1_555
C5 N1 1_555 1_555
H12 C5 1_555 1_555
C6 H13 1_555 1_555
C7 N4 1_555 1_555
H14 C7 1_555 1_555
C8 C9 1_555 1_555
C9 C10 1_555 1_555
C10 H15 1_555 1_555
C11 C10 1_555 1_555
H16 C11 1_555 1_555
C12 C11 1_555 1_555
H17 C12 1_555 1_555
C13 C8 1_555 1_555
H18 C13 1_555 1_555
C14 O2 1_555 1_555
C15 C9 1_555 1_555
Zn1C O3 1_555 1_555
Zn1E N6 1_555 1_555
O3C Zn1 1_555 1_555
N6E Zn1 1_555 1_555
N3 C5 1_555 1_555
N6 C7 1_555 1_555
C2 C3 1_555 1_555
C8 C14 1_555 1_555
C12 C13 1_555 1_555

#END
