
#######################################################################
#
#                 Cambridge Crystallographic Data Centre
#                                CCDC 
#
#######################################################################
#
# If this CIF has been generated from an entry in the Cambridge 
# Structural Database, then it will include bibliographic, chemical, 
# crystal, experimental, refinement or atomic coordinate data resulting 
# from the CCDC's data processing and validation procedures.
#
#######################################################################

data_IWIGOK
_symmetry_cell_setting           orthorhombic
_symmetry_space_group_name_H-M   'C 2 2 21'
_symmetry_Int_Tables_number      20
_space_group_name_Hall           'C 2n 2'
loop_
_symmetry_equiv_pos_site_id
_symmetry_equiv_pos_as_xyz
1 x,y,z
2 -x,-y,1/2+z
3 -x,y,1/2-z
4 x,-y,-z
5 1/2+x,1/2+y,z
6 1/2-x,1/2-y,1/2+z
7 1/2-x,1/2+y,1/2-z
8 1/2+x,1/2-y,-z
_cell_length_a                   7.2472(9)
_cell_length_b                   15.9465(18)
_cell_length_c                   10.3672(13)
_cell_angle_alpha                90
_cell_angle_beta                 90
_cell_angle_gamma                90
_cell_volume                     1198.11
loop_
_atom_site_label
_atom_site_type_symbol
_atom_site_fract_x
_atom_site_fract_y
_atom_site_fract_z
V1 V -0.5000 1.35917(3) -0.2500
Na1 Na -0.5000 1.11719(8) -0.2500
Na2 Na -0.9225(3) 1.5000 0.0000
O1 O -0.6636(3) 1.38130(13) -0.09757(18)
O2 O -0.2813(3) 1.37773(15) -0.1372(2)
O3 O -0.5000 0.97156(15) -0.2500
O4 O -0.5000 1.49856(17) -0.2500
O5 O -0.5000 1.25986(16) -0.2500
O6 O -0.7194(3) 1.39495(14) 0.1102(2)
O7 O -0.1443(3) 1.39203(15) 0.0514(2)
C1 C -0.6206(4) 1.36953(17) 0.0207(3)
C2 C -0.2755(4) 1.36829(18) -0.0142(3)
C3 C -0.4393(4) 1.32551(19) 0.0499(3)
H1 H -0.4202 1.3245 0.1425
H2 H -0.4465 1.2679 0.0201
O1B O -0.3364(3) 1.38130(13) -0.40243(18)
O2B O -0.7187(3) 1.37773(15) -0.3628(2)
O6B O -0.2806(3) 1.39495(14) -0.6102(2)
O7B O -0.8557(3) 1.39203(15) -0.5514(2)
C1B C -0.3794(4) 1.36953(17) -0.5207(3)
C2B C -0.7245(4) 1.36829(18) -0.4858(3)
C3B C -0.5607(4) 1.32551(19) -0.5499(3)
H1B H -0.5798 1.3245 -0.6425
H2B H -0.5535 1.2679 -0.5201
Na2D Na -0.4225(3) 1.0000 0.0000
Na2E Na -0.5775(3) 1.0000 -0.5000
O6E O -0.7806(3) 1.10505(14) -0.3898(2)
O6G O -0.2194(3) 1.10505(14) -0.1102(2)
O7E O -0.3557(3) 1.10797(15) -0.4486(2)
O7G O -0.6443(3) 1.10797(15) -0.0514(2)
Na1D Na -1.0000 1.61719(8) -0.2500
Na1E Na -1.0000 1.38281(8) 0.2500
O1C O -0.6636(3) 1.61870(13) 0.09757(18)
O3D O -1.0000 1.47156(15) -0.2500
O3E O -1.0000 1.52844(15) 0.2500
O6C O -0.7194(3) 1.60505(14) -0.1102(2)
O7_2 O -1.1443(3) 1.39203(15) 0.0514(2)
O7C O -1.1443(3) 1.60797(15) -0.0514(2)
Na1E_2 Na 0.0000 1.38281(8) 0.2500
Na2_2 Na 0.0775(3) 1.5000 0.0000
Na2A Na -0.0775(3) 1.5000 -0.5000
Na1E_3 Na 0.0000 1.38281(8) -0.7500
Na1E_4 Na -1.0000 1.38281(8) -0.7500
Na2A_2 Na -1.0775(3) 1.5000 -0.5000
loop_
_geom_bond_atom_site_label_1
_geom_bond_atom_site_label_2
_geom_bond_site_symmetry_1
_geom_bond_site_symmetry_2
V1 O1 1_555 1_555
Na1 O3 1_555 1_555
Na2 O1 1_555 1_555
O1 C1 1_555 1_555
O2 V1 1_555 1_555
O3 Na2D 1_555 1_555
O4 V1 1_555 1_555
O5 V1 1_555 1_555
O6 Na2 1_555 1_555
O7 C2 1_555 1_555
C1 O6 1_555 1_555
C2 O2 1_555 1_555
C3 C1 1_555 1_555
H1 C3 1_555 1_555
H2 C3 1_555 1_555
O1B V1 1_555 1_555
O2B V1 1_555 1_555
O6B C1B 1_555 1_555
O7B C2B 1_555 1_555
C1B O1B 1_555 1_555
C2B O2B 1_555 1_555
C3B C1B 1_555 1_555
H1B C3B 1_555 1_555
H2B C3B 1_555 1_555
Na2D O6G 1_555 1_555
Na2E O3 1_555 1_555
O6E Na1 1_555 1_555
O6G Na1 1_555 1_555
O7E Na1 1_555 1_555
O7G Na1 1_555 1_555
Na1D O3D 1_555 1_555
Na1E O6 1_555 1_555
O1C Na2 1_555 1_555
O3D Na2 1_555 1_555
O3E Na2 1_555 1_555
O6C Na2 1_555 1_555
O7_2 Na2 1_555 1_555
O7C Na2 1_555 1_555
Na1E_2 O7 1_555 1_555
Na2_2 O7 1_555 1_555
Na2A O1B 1_555 1_555
Na1E_3 O6B 1_555 1_555
Na1E_4 O7B 1_555 1_555
Na2A_2 O7B 1_555 1_555
Na1 O5 1_555 1_555
C2 C3 1_555 1_555
O6B Na2A 1_555 1_555
C2B C3B 1_555 1_555
Na2D O7G 1_555 1_555
Na2E O6E 1_555 1_555
Na2E O7E 1_555 1_555
Na1D O6C 1_555 1_555
Na1D O7C 1_555 1_555
Na1E O3E 1_555 1_555
Na1E O7_2 1_555 1_555
O3D Na2A_2 1_555 1_555

#END
