
#######################################################################
#
#                 Cambridge Crystallographic Data Centre
#                                CCDC 
#
#######################################################################
#
# If this CIF has been generated from an entry in the Cambridge 
# Structural Database, then it will include bibliographic, chemical, 
# crystal, experimental, refinement or atomic coordinate data resulting 
# from the CCDC's data processing and validation procedures.
#
#######################################################################

data_IWIMIL
_symmetry_cell_setting           monoclinic
_symmetry_space_group_name_H-M   'P 21/c'
_symmetry_Int_Tables_number      14
_space_group_name_Hall           '-P 2ybc'
loop_
_symmetry_equiv_pos_site_id
_symmetry_equiv_pos_as_xyz
1 x,y,z
2 -x,1/2+y,1/2-z
3 -x,-y,-z
4 x,1/2-y,1/2+z
_cell_length_a                   14.863(3)
_cell_length_b                   5.5805(11)
_cell_length_c                   9.3076(18)
_cell_angle_alpha                90
_cell_angle_beta                 105.968(3)
_cell_angle_gamma                90
_cell_volume                     742.213
loop_
_atom_site_label
_atom_site_type_symbol
_atom_site_fract_x
_atom_site_fract_y
_atom_site_fract_z
C1 C 0.7603(2) 0.0422(5) 0.5884(3)
C2 C 0.7415(2) 0.2477(5) 0.6621(4)
H1 H 0.7899 0.3475 0.7130
C3 C 0.6498(2) 0.2997(5) 0.6578(3)
H2 H 0.6364 0.4347 0.7068
C4 C 0.57742(19) 0.1512(5) 0.5806(3)
C5 C 0.59697(19) -0.0523(5) 0.5066(3)
C6 C 0.68956(19) -0.1067(5) 0.5116(3)
H3 H 0.7033 -0.2424 0.4636
C7 C 0.47885(19) 0.2116(5) 0.5785(3)
Ca1 Ca 1.0000 0.5000 0.5000
O1 O 0.90413(15) 0.1741(4) 0.5053(2)
O2 O 0.93132(16) -0.0032(4) 0.7474(3)
O3 O 0.87975(15) -0.2480(4) 0.5273(3)
O4 O 0.46229(16) 0.3866(4) 0.6458(3)
S1 S 0.87835(5) -0.01415(11) 0.59362(8)
C1B C 0.2397(2) -0.0422(5) 0.4116(3)
C2B C 0.2585(2) -0.2477(5) 0.3379(4)
H1B H 0.2101 -0.3475 0.2870
C3B C 0.3502(2) -0.2997(5) 0.3422(3)
H2B H 0.3636 -0.4347 0.2932
C4B C 0.42258(19) -0.1512(5) 0.4194(3)
C5B C 0.40303(19) 0.0523(5) 0.4934(3)
C6B C 0.31044(19) 0.1067(5) 0.4884(3)
H3B H 0.2967 0.2424 0.5364
C7B C 0.52115(19) -0.2116(5) 0.4215(3)
Ca1_2 Ca 0.0000 -0.5000 0.5000
Ca1_3 Ca 0.0000 0.5000 0.5000
Ca1_4 Ca 1.0000 -0.5000 0.5000
Ca1A Ca 0.0000 0.0000 0.0000
Ca1A_2 Ca 1.0000 0.0000 1.0000
O1B O 0.09587(15) -0.1741(4) 0.4947(2)
O1B_2 O 1.09587(15) 0.8259(4) 0.4947(2)
O2B O 0.06868(16) 0.0032(4) 0.2526(3)
O2A O 1.06868(16) 0.4968(4) 0.7526(3)
O2C O 0.93132(16) 0.5032(4) 0.2474(3)
O3B O 0.12025(15) 0.2480(4) 0.4727(3)
O3_2 O 0.87975(15) 0.7520(4) 0.5273(3)
O3B_2 O 1.12025(15) 0.2480(4) 0.4727(3)
O4B O 0.53771(16) -0.3866(4) 0.3542(3)
S1B S 0.12165(5) 0.01415(11) 0.40638(8)
loop_
_geom_bond_atom_site_label_1
_geom_bond_atom_site_label_2
_geom_bond_site_symmetry_1
_geom_bond_site_symmetry_2
C1 C2 1_555 1_555
C2 H1 1_555 1_555
C3 C2 1_555 1_555
H2 C3 1_555 1_555
C4 C3 1_555 1_555
C5 C4 1_555 1_555
C6 C1 1_555 1_555
H3 C6 1_555 1_555
C7 C4 1_555 1_555
Ca1 O1 1_555 1_555
O1 S1 1_555 1_555
O2 S1 1_555 1_555
O3 S1 1_555 1_555
O4 C7 1_555 1_555
S1 C1 1_555 1_555
C1B C2B 1_555 1_555
C2B H1B 1_555 1_555
C3B C2B 1_555 1_555
H2B C3B 1_555 1_555
C4B C3B 1_555 1_555
C5B C7 1_555 1_555
C6B C1B 1_555 1_555
H3B C6B 1_555 1_555
C7B C5 1_555 1_555
Ca1_2 O1B 1_555 1_555
Ca1_3 O3B 1_555 1_555
Ca1_4 O3 1_555 1_555
Ca1A O2B 1_555 1_555
Ca1A_2 O2 1_555 1_555
O1B S1B 1_555 1_555
O1B_2 Ca1 1_555 1_555
O2B S1B 1_555 1_555
O2A Ca1 1_555 1_555
O2C Ca1 1_555 1_555
O3B S1B 1_555 1_555
O3_2 Ca1 1_555 1_555
O3B_2 Ca1 1_555 1_555
O4B C7B 1_555 1_555
S1B C1B 1_555 1_555
C5 C6 1_555 1_555
C4B C5B 1_555 1_555
C4B C7B 1_555 1_555
C5B C6B 1_555 1_555

#END
