
#######################################################################
#
#                 Cambridge Crystallographic Data Centre
#                                CCDC 
#
#######################################################################
#
# If this CIF has been generated from an entry in the Cambridge 
# Structural Database, then it will include bibliographic, chemical, 
# crystal, experimental, refinement or atomic coordinate data resulting 
# from the CCDC's data processing and validation procedures.
#
#######################################################################

data_IWOKUA
_symmetry_cell_setting           monoclinic
_symmetry_space_group_name_H-M   'P 21/c'
_symmetry_Int_Tables_number      14
_space_group_name_Hall           '-P 2ybc'
loop_
_symmetry_equiv_pos_site_id
_symmetry_equiv_pos_as_xyz
1 x,y,z
2 x,1/2-y,1/2+z
3 -x,-y,-z
4 -x,1/2+y,1/2-z
_cell_length_a                   7.5703(3)
_cell_length_b                   19.5133(13)
_cell_length_c                   9.7623(7)
_cell_angle_alpha                90
_cell_angle_beta                 111.273(4)
_cell_angle_gamma                90
_cell_volume                     1343.84
loop_
_atom_site_label
_atom_site_type_symbol
_atom_site_fract_x
_atom_site_fract_y
_atom_site_fract_z
K1 K 0.12626(5) 0.713027(18) 0.45320(4)
O1 O -0.2902(2) 0.48752(6) -0.26015(12)
O2 O -0.14688(16) 0.58633(6) -0.20246(11)
O3 O -0.16871(18) 0.69312(6) 0.17143(12)
O4 O -0.07291(19) 0.66976(6) -0.01060(13)
O5 O -0.2872(2) 0.52371(6) 0.48050(13)
O6 O -0.1790(2) 0.41962(6) 0.46505(13)
O7 O -0.2081(2) 0.32285(6) 0.18439(17)
O8 O -0.47382(18) 0.36127(7) 0.20607(16)
O9 O -0.1945(2) 0.67490(8) 0.53668(15)
O10 O 0.4189(3) 0.65118(8) 0.3662(2)
O11 O 0.4726(2) 0.75897(7) 0.67675(16)
H1 H -0.294(3) 0.4233(9) -0.058(2)
H2 H -0.197(2) 0.5943(9) 0.2999(19)
H3 H 0.455(4) 0.7891(15) 0.734(3)
H4 H -0.179(4) 0.7126(14) 0.584(3)
H5 H -0.485(3) 0.3204(14) 0.232(3)
H6 H 0.566(5) 0.7684(16) 0.667(3)
H7 H -0.291(4) 0.5098(15) 0.567(4)
H8 H 0.529(5) 0.6544(16) 0.427(3)
H9 H -0.169(4) 0.6430(16) 0.602(3)
H10 H 0.394(5) 0.6118(18) 0.347(3)
H11 H -0.101(4) 0.6246(14) -0.107(3)
C1 C -0.23070(19) 0.52571(7) -0.01663(14)
C2 C -0.1998(2) 0.57735(7) 0.09181(14)
C3 C -0.2143(2) 0.55963(7) 0.22648(15)
C4 C -0.2485(2) 0.49295(7) 0.25925(15)
C5 C -0.2789(2) 0.44214(7) 0.15253(15)
C6 C -0.2722(2) 0.45935(7) 0.01637(15)
C7 C -0.2236(2) 0.53371(8) -0.16963(15)
C8 C -0.1465(2) 0.65175(8) 0.08265(15)
C9 C -0.2368(2) 0.47454(7) 0.41150(15)
C10 C -0.3147(2) 0.36893(7) 0.18273(15)
O4A O -0.07291(19) 0.83024(6) 0.48940(13)
O6B O 0.1790(2) 0.58038(6) 0.53495(13)
O7C O 0.2081(2) 0.82285(6) 0.31561(17)
K1A K 0.12626(5) 0.786973(18) -0.04680(4)
K1B K -0.12626(5) 0.286973(18) 0.54680(4)
K1C K -0.12626(5) 0.213027(18) 0.04680(4)
loop_
_geom_bond_atom_site_label_1
_geom_bond_atom_site_label_2
_geom_bond_site_symmetry_1
_geom_bond_site_symmetry_2
K1 O3 1_555 1_555
O1 C7 1_555 1_555
O2 H11 1_555 1_555
O3 C8 1_555 1_555
O4 C8 1_555 1_555
O5 H7 1_555 1_555
O6 C9 1_555 1_555
O7 C10 1_555 1_555
O8 H5 1_555 1_555
O9 K1 1_555 1_555
O10 K1 1_555 1_555
O11 K1 1_555 1_555
H1 C6 1_555 1_555
H2 C3 1_555 1_555
H3 O11 1_555 1_555
H4 O9 1_555 1_555
H6 O11 1_555 1_555
H8 O10 1_555 1_555
H9 O9 1_555 1_555
H10 O10 1_555 1_555
C1 C2 1_555 1_555
C2 C3 1_555 1_555
C3 C4 1_555 1_555
C4 C5 1_555 1_555
C5 C6 1_555 1_555
C6 C1 1_555 1_555
C7 O2 1_555 1_555
C8 C2 1_555 1_555
C9 O5 1_555 1_555
C10 O8 1_555 1_555
O4A K1 1_555 1_555
O6B K1 1_555 1_555
O7C K1 1_555 1_555
K1A O4 1_555 1_555
K1B O6 1_555 1_555
K1C O7 1_555 1_555
C1 C7 1_555 1_555
C4 C9 1_555 1_555
C5 C10 1_555 1_555

#END
