
#######################################################################
#
#                 Cambridge Crystallographic Data Centre
#                                CCDC 
#
#######################################################################
#
# If this CIF has been generated from an entry in the Cambridge 
# Structural Database, then it will include bibliographic, chemical, 
# crystal, experimental, refinement or atomic coordinate data resulting 
# from the CCDC's data processing and validation procedures.
#
#######################################################################

data_IWOQIV
_symmetry_cell_setting           monoclinic
_symmetry_space_group_name_H-M   'C 2'
_symmetry_Int_Tables_number      5
_space_group_name_Hall           'C 2y'
loop_
_symmetry_equiv_pos_site_id
_symmetry_equiv_pos_as_xyz
1 x,y,z
2 -x,y,-z
3 1/2+x,1/2+y,z
4 1/2-x,1/2+y,-z
_cell_length_a                   26.8700(6)
_cell_length_b                   11.5749(2)
_cell_length_c                   14.8955(3)
_cell_angle_alpha                90
_cell_angle_beta                 121.146(3)
_cell_angle_gamma                90
_cell_volume                     3964.96
loop_
_atom_site_label
_atom_site_type_symbol
_atom_site_fract_x
_atom_site_fract_y
_atom_site_fract_z
Fe1 Fe 1.0000 0.96099(6) 1.5000
O1 O 0.91885(8) 0.9617(2) 1.37629(15)
C1 C 0.89731(13) 0.9688(3) 1.2765(2)
N1 N 1.02832(11) 0.9569(3) 1.38785(19)
C2 C 0.83680(15) 0.9805(3) 1.2085(3)
H1 H 0.8128 0.9843 1.2379
N2 N 1.0000 0.7686(4) 1.5000
C3 C 0.81089(16) 0.9869(3) 1.1008(3)
H2 H 0.7699 0.9943 1.0581
N3 N 1.0000 0.1544(4) 1.5000
C4 C 0.84452(16) 0.9824(4) 1.0545(3)
H3 H 0.8269 0.9872 0.9805
C5 C 0.90395(15) 0.9707(4) 1.1186(2)
H4 H 0.9270 0.9665 1.0873
C6 C 0.93168(13) 0.9650(3) 1.2283(2)
C7 C 0.99419(14) 0.9565(3) 1.2869(2)
H5 H 1.0124 0.9498 1.2469
C8 C 1.09140(14) 0.9551(3) 1.4277(2)
H6 H 1.1112 0.9482 1.5057
C9 C 1.10989(18) 1.0720(4) 1.4063(3)
H7 H 1.0937 1.1342 1.4282
H8 H 1.0954 1.0792 1.3312
H9 H 1.1524 1.0773 1.4459
C10 C 1.11099(14) 0.8505(4) 1.3910(2)
C11 C 1.08654(16) 0.7424(3) 1.3832(3)
H10 H 1.0551 0.7350 1.3948
C12 C 1.10734(17) 0.6450(3) 1.3587(3)
H11 H 1.0901 0.5719 1.3539
C13 C 1.15302(16) 0.6537(4) 1.3412(3)
H12 H 1.1676 0.5871 1.3252
C14 C 1.17689(15) 0.7612(4) 1.3476(3)
H13 H 1.2083 0.7688 1.3358
C15 C 1.15545(14) 0.8576(4) 1.3710(3)
H14 H 1.1719 0.9310 1.3733
C16 C 0.95862(15) 0.7073(3) 1.4186(3)
H15 H 0.9288 0.7486 1.3606
C17 C 0.95689(15) 0.5877(3) 1.4143(3)
H16 H 0.9270 0.5489 1.3543
C18 C 1.0000 0.5246(4) 1.5000
C19 C 1.0000 0.3971(4) 1.5000
C20 C 0.94888(15) 0.3337(3) 1.4446(3)
H17 H 0.9127 0.3726 1.4054
C21 C 0.95057(15) 0.2152(3) 1.4462(3)
H18 H 0.9150 0.1741 1.4074
Fe1_2 Fe 1.0000 -0.03901(6) 1.5000
O1A O 1.08115(8) 0.9617(2) 1.62371(15)
C1A C 1.10269(13) 0.9688(3) 1.7235(2)
N1A N 0.97168(11) 0.9569(3) 1.61215(19)
C2A C 1.16320(15) 0.9805(3) 1.7915(3)
H1A H 1.1872 0.9843 1.7621
C3A C 1.18911(16) 0.9869(3) 1.8992(3)
H2A H 1.2301 0.9943 1.9419
N3_2 N 1.0000 1.1544(4) 1.5000
C4A C 1.15548(16) 0.9824(4) 1.9455(3)
H3A H 1.1731 0.9872 2.0195
C5A C 1.09605(15) 0.9707(4) 1.8814(2)
H4A H 1.0730 0.9665 1.9127
C6A C 1.06832(13) 0.9650(3) 1.7717(2)
C7A C 1.00581(14) 0.9565(3) 1.7131(2)
H5A H 0.9876 0.9498 1.7531
C8A C 0.90860(14) 0.9551(3) 1.5723(2)
H6A H 0.8888 0.9482 1.4943
C9A C 0.89011(18) 1.0720(4) 1.5937(3)
H7A H 0.9063 1.1342 1.5718
H8A H 0.9046 1.0792 1.6688
H9A H 0.8476 1.0773 1.5541
C10A C 0.88901(14) 0.8505(4) 1.6090(2)
C11A C 0.91346(16) 0.7424(3) 1.6168(3)
H10A H 0.9449 0.7350 1.6052
C12A C 0.89266(17) 0.6450(3) 1.6413(3)
H11A H 0.9099 0.5719 1.6461
C13A C 0.84698(16) 0.6537(4) 1.6588(3)
H12A H 0.8324 0.5871 1.6748
C14A C 0.82311(15) 0.7612(4) 1.6524(3)
H13A H 0.7917 0.7688 1.6642
C15A C 0.84455(14) 0.8576(4) 1.6290(3)
H14A H 0.8281 0.9310 1.6267
C16A C 1.04138(15) 0.7073(3) 1.5814(3)
H15A H 1.0712 0.7486 1.6394
C17A C 1.04311(15) 0.5877(3) 1.5857(3)
H16A H 1.0730 0.5489 1.6457
C20A C 1.05112(15) 0.3337(3) 1.5554(3)
H17A H 1.0873 0.3726 1.5946
C21A C 1.04943(15) 0.2152(3) 1.5538(3)
H18A H 1.0850 0.1741 1.5926
Fe2 Fe 1.0000 0.36442(6) 1.0000
O2 O 0.94196(9) 0.3614(2) 0.84570(16)
N4 N 0.92631(11) 0.3765(2) 1.0210(2)
N5 N 1.0000 0.5580(4) 1.0000
N6 N 1.0000 1.1712(4) 1.0000
C22 C 0.88556(13) 0.3565(3) 0.7903(3)
C23 C 0.85665(16) 0.3404(3) 0.6803(3)
H19 H 0.8792 0.3305 0.6484
C24 C 0.79696(17) 0.3386(4) 0.6182(3)
H20 H 0.7790 0.3287 0.5445
C25 C 0.76321(16) 0.3511(4) 0.6624(3)
H21 H 0.7220 0.3522 0.6194
C26 C 0.78978(15) 0.3620(4) 0.7692(3)
H22 H 0.7662 0.3678 0.7994
C27 C 0.85024(14) 0.3650(3) 0.8354(2)
C28 C 0.87278(14) 0.3777(3) 0.9465(3)
H23 H 0.8448 0.3881 0.9667
C29 C 0.94033(15) 0.3894(3) 1.1322(3)
H24 H 0.9791 0.4283 1.1718
C30 C 0.94812(18) 0.2702(4) 1.1790(3)
H25 H 0.9586 0.2769 1.2524
H26 H 0.9791 0.2295 1.1757
H27 H 0.9117 0.2268 1.1394
C31 C 0.89789(14) 0.4665(4) 1.1414(2)
C32 C 0.90190(17) 0.5878(3) 1.1331(3)
H28 H 0.9314 0.6188 1.1229
C33 C 0.86350(16) 0.6613(3) 1.1397(3)
H29 H 0.8664 0.7423 1.1332
C34 C 0.82052(18) 0.6169(4) 1.1557(3)
H30 H 0.7942 0.6677 1.1606
C35 C 0.81624(15) 0.5009(4) 1.1641(3)
H31 H 0.7868 0.4708 1.1749
C36 C 0.85475(15) 0.4255(3) 1.1571(3)
H32 H 0.8512 0.3447 1.1633
C37 C 1.03720(16) 0.6179(3) 1.0845(3)
H33 H 1.0644 0.5769 1.1458
C38 C 1.03803(16) 0.7372(3) 1.0874(3)
H34 H 1.0651 0.7759 1.1503
C39 C 1.0000 0.8007(4) 1.0000
C40 C 1.0000 0.9285(4) 1.0000
C41 C 1.04915(14) 0.9912(3) 1.0703(2)
H35 H 1.0837 0.9523 1.1203
C42 C 1.04735(15) 1.1107(3) 1.0668(3)
H36 H 1.0816 1.1520 1.1144
Fe2_2 Fe 1.0000 1.36442(6) 1.0000
O2A O 1.05804(9) 0.3614(2) 1.15430(16)
N4A N 1.07369(11) 0.3765(2) 0.9790(2)
N6_2 N 1.0000 0.1712(4) 1.0000
C22A C 1.11444(13) 0.3565(3) 1.2097(3)
C23A C 1.14335(16) 0.3404(3) 1.3197(3)
H19A H 1.1208 0.3305 1.3516
C24A C 1.20304(17) 0.3386(4) 1.3818(3)
H20A H 1.2210 0.3287 1.4555
C25A C 1.23679(16) 0.3511(4) 1.3376(3)
H21A H 1.2780 0.3522 1.3806
C26A C 1.21022(15) 0.3620(4) 1.2308(3)
H22A H 1.2338 0.3678 1.2006
C27A C 1.14976(14) 0.3650(3) 1.1646(2)
C28A C 1.12722(14) 0.3777(3) 1.0535(3)
H23A H 1.1552 0.3881 1.0333
C29A C 1.05967(15) 0.3894(3) 0.8678(3)
H24A H 1.0209 0.4283 0.8282
C30A C 1.05188(18) 0.2702(4) 0.8210(3)
H25A H 1.0414 0.2769 0.7476
H26A H 1.0209 0.2295 0.8243
H27A H 1.0883 0.2268 0.8606
C31A C 1.10211(14) 0.4665(4) 0.8586(2)
C32A C 1.09810(17) 0.5878(3) 0.8669(3)
H28A H 1.0686 0.6188 0.8771
C33A C 1.13650(16) 0.6613(3) 0.8603(3)
H29A H 1.1336 0.7423 0.8668
C34A C 1.17948(18) 0.6169(4) 0.8443(3)
H30A H 1.2058 0.6677 0.8394
C35A C 1.18376(15) 0.5009(4) 0.8359(3)
H31A H 1.2132 0.4708 0.8251
C36A C 1.14525(15) 0.4255(3) 0.8429(3)
H32A H 1.1488 0.3447 0.8367
C37A C 0.96280(16) 0.6179(3) 0.9155(3)
H33A H 0.9356 0.5769 0.8542
C38A C 0.96197(16) 0.7372(3) 0.9126(3)
H34A H 0.9349 0.7759 0.8497
C41A C 0.95085(14) 0.9912(3) 0.9297(2)
H35A H 0.9163 0.9523 0.8797
C42A C 0.95265(15) 1.1107(3) 0.9332(3)
H36A H 0.9184 1.1520 0.8856
N7 N 0.69600(15) 0.7652(4) 0.6906(3)
C43 C 0.73532(19) 0.7354(4) 0.7664(4)
C44 C 0.7877(2) 0.6998(5) 0.8634(3)
H37 H 0.7933 0.6164 0.8616
H38 H 0.7836 0.7184 0.9234
H39 H 0.8215 0.7408 0.8703
N8 N 0.69515(15) 0.5233(3) 1.2164(3)
C45 C 0.73773(18) 0.5393(4) 1.2916(3)
C46 C 0.79275(19) 0.5558(5) 1.3897(3)
H40 H 0.7875 0.5394 1.4488
H41 H 0.8057 0.6359 1.3942
H42 H 0.8220 0.5033 1.3920
loop_
_geom_bond_atom_site_label_1
_geom_bond_atom_site_label_2
_geom_bond_site_symmetry_1
_geom_bond_site_symmetry_2
Fe1 O1 1_555 1_555
O1 C1 1_555 1_555
C1 C2 1_555 1_555
N1 Fe1 1_555 1_555
C2 H1 1_555 1_555
N2 Fe1 1_555 1_555
C3 C2 1_555 1_555
H2 C3 1_555 1_555
N3 C21 1_555 1_555
C4 C3 1_555 1_555
H3 C4 1_555 1_555
C5 C4 1_555 1_555
H4 C5 1_555 1_555
C6 C1 1_555 1_555
C7 N1 1_555 1_555
H5 C7 1_555 1_555
C8 N1 1_555 1_555
H6 C8 1_555 1_555
C9 C8 1_555 1_555
H7 C9 1_555 1_555
H8 C9 1_555 1_555
H9 C9 1_555 1_555
C10 C8 1_555 1_555
C11 C10 1_555 1_555
H10 C11 1_555 1_555
C12 C11 1_555 1_555
H11 C12 1_555 1_555
C13 C12 1_555 1_555
H12 C13 1_555 1_555
C14 C13 1_555 1_555
H13 C14 1_555 1_555
C15 C10 1_555 1_555
H14 C15 1_555 1_555
C16 N2 1_555 1_555
H15 C16 1_555 1_555
C17 C16 1_555 1_555
H16 C17 1_555 1_555
C18 C17 1_555 1_555
C19 C18 1_555 1_555
C20 C19 1_555 1_555
H17 C20 1_555 1_555
C21 C20 1_555 1_555
H18 C21 1_555 1_555
Fe2 O2 1_555 1_555
O2 C22 1_555 1_555
N4 Fe2 1_555 1_555
N5 Fe2 1_555 1_555
N6 C42 1_555 1_555
C22 C23 1_555 1_555
C23 H19 1_555 1_555
C24 C23 1_555 1_555
H20 C24 1_555 1_555
C25 C24 1_555 1_555
H21 C25 1_555 1_555
C26 C25 1_555 1_555
H22 C26 1_555 1_555
C27 C22 1_555 1_555
C28 N4 1_555 1_555
H23 C28 1_555 1_555
C29 N4 1_555 1_555
H24 C29 1_555 1_555
C30 C29 1_555 1_555
H25 C30 1_555 1_555
H26 C30 1_555 1_555
H27 C30 1_555 1_555
C31 C29 1_555 1_555
C32 C31 1_555 1_555
H28 C32 1_555 1_555
C33 C32 1_555 1_555
H29 C33 1_555 1_555
C34 C33 1_555 1_555
H30 C34 1_555 1_555
C35 C34 1_555 1_555
H31 C35 1_555 1_555
C36 C31 1_555 1_555
H32 C36 1_555 1_555
C37 N5 1_555 1_555
H33 C37 1_555 1_555
C38 C37 1_555 1_555
H34 C38 1_555 1_555
C39 C38 1_555 1_555
C40 C39 1_555 1_555
C41 C40 1_555 1_555
H35 C41 1_555 1_555
C42 C41 1_555 1_555
H36 C42 1_555 1_555
N7 C43 1_555 1_555
C43 C44 1_555 1_555
C44 H37 1_555 1_555
H38 C44 1_555 1_555
H39 C44 1_555 1_555
N8 C45 1_555 1_555
C45 C46 1_555 1_555
C46 H40 1_555 1_555
H41 C46 1_555 1_555
H42 C46 1_555 1_555
Fe1_2 N3 1_555 1_555
O1A Fe1 1_555 1_555
C1A O1A 1_555 1_555
N1A Fe1 1_555 1_555
C2A C1A 1_555 1_555
H1A C2A 1_555 1_555
C3A C2A 1_555 1_555
H2A C3A 1_555 1_555
N3_2 Fe1 1_555 1_555
C4A C3A 1_555 1_555
H3A C4A 1_555 1_555
C5A C4A 1_555 1_555
H4A C5A 1_555 1_555
C6A C1A 1_555 1_555
C7A N1A 1_555 1_555
H5A C7A 1_555 1_555
C8A N1A 1_555 1_555
H6A C8A 1_555 1_555
C9A C8A 1_555 1_555
H7A C9A 1_555 1_555
H8A C9A 1_555 1_555
H9A C9A 1_555 1_555
C10A C8A 1_555 1_555
C11A C10A 1_555 1_555
H10A C11A 1_555 1_555
C12A C11A 1_555 1_555
H11A C12A 1_555 1_555
C13A C12A 1_555 1_555
H12A C13A 1_555 1_555
C14A C13A 1_555 1_555
H13A C14A 1_555 1_555
C15A C10A 1_555 1_555
H14A C15A 1_555 1_555
C16A N2 1_555 1_555
H15A C16A 1_555 1_555
C17A C18 1_555 1_555
H16A C17A 1_555 1_555
C20A C19 1_555 1_555
H17A C20A 1_555 1_555
C21A N3 1_555 1_555
H18A C21A 1_555 1_555
Fe2_2 N6 1_555 1_555
O2A Fe2 1_555 1_555
N4A Fe2 1_555 1_555
N6_2 Fe2 1_555 1_555
C22A O2A 1_555 1_555
C23A C22A 1_555 1_555
H19A C23A 1_555 1_555
C24A C23A 1_555 1_555
H20A C24A 1_555 1_555
C25A C24A 1_555 1_555
H21A C25A 1_555 1_555
C26A C25A 1_555 1_555
H22A C26A 1_555 1_555
C27A C22A 1_555 1_555
C28A N4A 1_555 1_555
H23A C28A 1_555 1_555
C29A N4A 1_555 1_555
H24A C29A 1_555 1_555
C30A C29A 1_555 1_555
H25A C30A 1_555 1_555
H26A C30A 1_555 1_555
H27A C30A 1_555 1_555
C31A C29A 1_555 1_555
C32A C31A 1_555 1_555
H28A C32A 1_555 1_555
C33A C32A 1_555 1_555
H29A C33A 1_555 1_555
C34A C33A 1_555 1_555
H30A C34A 1_555 1_555
C35A C34A 1_555 1_555
H31A C35A 1_555 1_555
C36A C31A 1_555 1_555
H32A C36A 1_555 1_555
C37A N5 1_555 1_555
H33A C37A 1_555 1_555
C38A C39 1_555 1_555
H34A C38A 1_555 1_555
C41A C40 1_555 1_555
H35A C41A 1_555 1_555
C42A N6 1_555 1_555
H36A C42A 1_555 1_555
C5 C6 1_555 1_555
C6 C7 1_555 1_555
C14 C15 1_555 1_555
C26 C27 1_555 1_555
C27 C28 1_555 1_555
C35 C36 1_555 1_555
C5A C6A 1_555 1_555
C6A C7A 1_555 1_555
C14A C15A 1_555 1_555
C16A C17A 1_555 1_555
C20A C21A 1_555 1_555
C26A C27A 1_555 1_555
C27A C28A 1_555 1_555
C35A C36A 1_555 1_555
C37A C38A 1_555 1_555
C41A C42A 1_555 1_555

#END
