
#######################################################################
#
#                 Cambridge Crystallographic Data Centre
#                                CCDC 
#
#######################################################################
#
# If this CIF has been generated from an entry in the Cambridge 
# Structural Database, then it will include bibliographic, chemical, 
# crystal, experimental, refinement or atomic coordinate data resulting 
# from the CCDC's data processing and validation procedures.
#
#######################################################################

data_IWOSET
_symmetry_cell_setting           triclinic
_symmetry_space_group_name_H-M   'P -1'
_symmetry_Int_Tables_number      2
_space_group_name_Hall           '-P 1'
loop_
_symmetry_equiv_pos_site_id
_symmetry_equiv_pos_as_xyz
1 x,y,z
2 -x,-y,-z
_cell_length_a                   7.5940(15)
_cell_length_b                   8.4230(17)
_cell_length_c                   13.829(3)
_cell_angle_alpha                96.64(3)
_cell_angle_beta                 98.38(3)
_cell_angle_gamma                99.03(3)
_cell_volume                     855.544
loop_
_atom_site_label
_atom_site_type_symbol
_atom_site_fract_x
_atom_site_fract_y
_atom_site_fract_z
Ho1 Ho 0.13643(8) 0.07546(8) 0.29350(5)
Ho2 Ho 0.59754(8) -0.01311(8) 0.20882(5)
O1 O 0.6487(11) 0.1593(11) 0.3623(6)
C1 C 0.6779(17) 0.1667(18) 0.6326(10)
O2 O 0.3863(11) 0.2214(12) 0.4009(7)
O3 O -0.1418(11) 0.8944(11) 0.3011(7)
O4 O 0.1077(12) 0.3625(12) 0.2801(7)
O5 O -0.3652(12) 0.7059(12) 0.2229(7)
O6 O 0.5494(11) 0.1850(12) 0.0994(6)
C2 C -0.209(2) 0.7456(17) 0.2679(12)
O7 O 0.0184(13) 0.1695(12) 0.4385(7)
O8 O 0.7855(12) 0.0997(11) 0.5859(7)
C3 C -0.0550(18) 0.3251(18) 0.2464(9)
O9 O 0.3679(11) -0.1690(11) 0.0868(7)
O10 O 0.6420(11) 0.1121(11) 0.7097(7)
O11 O -0.1250(11) 0.1761(11) 0.2252(7)
O12 O 0.3350(11) 0.1493(12) 0.1860(7)
O13 O 0.2511(11) 0.0897(12) -0.0825(6)
C4 C 0.4004(17) 0.2164(17) 0.1195(10)
C5 C 0.1038(16) 0.1416(16) -0.0728(11)
C6 C 0.6591(16) 0.3541(17) 0.5017(10)
H1 H 0.6351 0.4618 0.4932
H2 H 0.7878 0.3558 0.5045
C7 C 0.5557(17) 0.2335(16) 0.4162(10)
C8 C -0.1735(18) 0.4509(18) 0.2341(12)
H3 H -0.2053 0.4567 0.1643
H4 H -0.2845 0.4163 0.2587
C9 C 0.6027(19) 0.3076(17) 0.5974(10)
H5 H 0.4718 0.2818 0.5878
H6 H 0.6412 0.4009 0.6484
C10 C 0.3042(18) 0.3382(16) 0.0700(10)
H7 H 0.3732 0.3804 0.0220
H8 H 0.2992 0.4284 0.1193
C11 C 0.1109(17) 0.2632(18) 0.0180(10)
H9 H 0.0467 0.2098 0.0644
H10 H 0.0485 0.3497 -0.0011
C12 C -0.0883(19) 0.6174(18) 0.2863(12)
H11 H 0.0257 0.6503 0.2642
H12 H -0.0626 0.6134 0.3567
O14 O -0.0423(10) 0.1028(10) -0.1329(6)
Ho1_2 Ho 0.13643(8) 1.07546(8) 0.29350(5)
Ho1A Ho 0.86357(8) -0.07546(8) 0.70650(5)
Ho1A_2 Ho -0.13643(8) -0.07546(8) -0.29350(5)
Ho2_2 Ho -0.40246(8) 0.98689(8) 0.20882(5)
Ho2A Ho 0.40246(8) 0.01311(8) 0.79118(5)
Ho2_3 Ho -0.40246(8) -0.01311(8) 0.20882(5)
Ho2A_2 Ho 0.40246(8) 0.01311(8) -0.20882(5)
O3_2 O -0.1418(11) -0.1056(11) 0.3011(7)
O3_3 O 0.8582(11) -0.1056(11) 0.3011(7)
O5_2 O 0.6348(12) -0.2941(12) 0.2229(7)
O8A O 0.2145(12) -0.0997(11) 0.4141(7)
O10A O 0.3580(11) -0.1121(11) 0.2903(7)
O11_2 O 0.8750(11) 0.1761(11) 0.2252(7)
O13A O 0.7489(11) -0.0897(12) 0.0825(6)
O14A O 0.0423(10) -0.1028(10) 0.1329(6)
loop_
_geom_bond_atom_site_label_1
_geom_bond_atom_site_label_2
_geom_bond_site_symmetry_1
_geom_bond_site_symmetry_2
Ho1 O2 1_555 1_555
Ho2 O1 1_555 1_555
O1 C7 1_555 1_555
C1 O8 1_555 1_555
O2 C7 1_555 1_555
O3 C2 1_555 1_555
O4 Ho1 1_555 1_555
O5 C2 1_555 1_555
O6 Ho2 1_555 1_555
C2 C12 1_555 1_555
O7 Ho1 1_555 1_555
O8 Ho1A 1_555 1_555
C3 O4 1_555 1_555
O9 Ho2 1_555 1_555
O10 C1 1_555 1_555
O11 Ho1 1_555 1_555
O12 Ho1 1_555 1_555
O13 C5 1_555 1_555
C4 O6 1_555 1_555
C5 C11 1_555 1_555
C6 H1 1_555 1_555
H2 C6 1_555 1_555
C7 C6 1_555 1_555
C8 C3 1_555 1_555
H3 C8 1_555 1_555
H4 C8 1_555 1_555
C9 C1 1_555 1_555
H5 C9 1_555 1_555
H6 C9 1_555 1_555
C10 C4 1_555 1_555
H7 C10 1_555 1_555
H8 C10 1_555 1_555
C11 C10 1_555 1_555
H9 C11 1_555 1_555
H10 C11 1_555 1_555
C12 C8 1_555 1_555
H11 C12 1_555 1_555
H12 C12 1_555 1_555
O14 C5 1_555 1_555
Ho1_2 O3 1_555 1_555
Ho1A O10 1_555 1_555
Ho1A_2 O14 1_555 1_555
Ho2_2 O3 1_555 1_555
Ho2A O10 1_555 1_555
Ho2_3 O11 1_555 1_555
Ho2A_2 O13 1_555 1_555
O3_2 Ho1 1_555 1_555
O3_3 Ho2 1_555 1_555
O5_2 Ho2 1_555 1_555
O8A Ho1 1_555 1_555
O10A Ho1 1_555 1_555
O11_2 Ho2 1_555 1_555
O13A Ho2 1_555 1_555
O14A Ho1 1_555 1_555
Ho2 O12 1_555 1_555
Ho2 O10A 1_555 1_555
O5 Ho2_2 1_555 1_555
C3 O11 1_555 1_555
O12 C4 1_555 1_555
C6 C9 1_555 1_555
Ho2_3 O3_2 1_555 1_555

#END
