
#######################################################################
#
#                 Cambridge Crystallographic Data Centre
#                                CCDC 
#
#######################################################################
#
# If this CIF has been generated from an entry in the Cambridge 
# Structural Database, then it will include bibliographic, chemical, 
# crystal, experimental, refinement or atomic coordinate data resulting 
# from the CCDC's data processing and validation procedures.
#
#######################################################################

data_IWOWIB
_symmetry_cell_setting           monoclinic
_symmetry_space_group_name_H-M   'C 2'
_symmetry_Int_Tables_number      5
_space_group_name_Hall           'C 2y'
loop_
_symmetry_equiv_pos_site_id
_symmetry_equiv_pos_as_xyz
1 x,y,z
2 -x,y,-z
3 1/2+x,1/2+y,z
4 1/2-x,1/2+y,-z
_cell_length_a                   24.455(2)
_cell_length_b                   5.6790(5)
_cell_length_c                   10.8405(10)
_cell_angle_alpha                90
_cell_angle_beta                 115.223(2)
_cell_angle_gamma                90
_cell_volume                     1361.99
loop_
_atom_site_label
_atom_site_type_symbol
_atom_site_fract_x
_atom_site_fract_y
_atom_site_fract_z
Zn1 Zn 0.5000 0.36291(6) 0.5000
O1 O 0.42862(7) 0.5711(3) 0.4184(2)
O2 O 0.37773(12) 0.2777(5) 0.4553(3)
O3 O 0.20880(10) 1.2370(5) 0.0698(3)
O4 O 0.30229(9) 1.2083(5) 0.1085(2)
O5 O 0.11679(9) 0.6742(6) 0.2464(3)
O6 O 0.16771(9) 0.3858(7) 0.3692(3)
N1 N 0.51234(9) 0.1480(4) 0.6600(2)
N2 N 0.16360(10) 0.5685(6) 0.3069(3)
N3 N 0.25835(10) 1.1414(4) 0.1245(2)
C1 C 0.48912(11) -0.2021(4) 0.7498(3)
H1 H 0.4644 -0.3336 0.7341
C2 C 0.47897(11) -0.0425(5) 0.6465(3)
H2 H 0.4468 -0.0702 0.5623
C3 C 0.55864(11) 0.1855(6) 0.7835(3)
H3 H 0.5829 0.3175 0.7958
C4 C 0.57109(11) 0.0349(5) 0.8916(3)
H4 H 0.6031 0.0678 0.9753
C5 C 0.53634(9) -0.1659(6) 0.8772(2)
C6 C 0.55190(11) -0.3307(5) 0.9968(3)
H5 H 0.5693 -0.2382 1.0798
H6 H 0.5829 -0.4384 0.9979
C7 C 0.5000 -0.4761(7) 1.0000
H7 H 0.5159 -0.5770 1.0798
C8 C 0.38013(13) 0.4726(6) 0.4141(3)
C9 C 0.32325(10) 0.6190(5) 0.3484(3)
C10 C 0.27230(11) 0.5385(5) 0.3620(3)
H8 H 0.2745 0.4046 0.4132
C11 C 0.21876(11) 0.6595(5) 0.2986(3)
C12 C 0.21337(9) 0.8597(8) 0.2230(2)
H9 H 0.1771 0.9418 0.1829
C13 C 0.26411(11) 0.9330(5) 0.2093(3)
C14 C 0.31915(10) 0.8194(5) 0.2715(2)
H10 H 0.3528 0.8762 0.2622
Zn1_2 Zn 0.5000 0.36291(6) 1.5000
O1A O 0.57138(7) 0.5711(3) 0.5816(2)
O2A O 0.62227(12) 0.2777(5) 0.5447(3)
O3A O 0.79120(10) 1.2370(5) 0.9302(3)
O4A O 0.69771(9) 1.2083(5) 0.8915(2)
O5A O 0.88321(9) 0.6742(6) 0.7536(3)
O6A O 0.83229(9) 0.3858(7) 0.6308(3)
N1A N 0.48766(9) 0.1480(4) 1.3400(2)
N1A_2 N 0.48766(9) 0.1480(4) 0.3400(2)
N2A N 0.83640(10) 0.5685(6) 0.6931(3)
N3A N 0.74165(10) 1.1414(4) 0.8755(2)
C1A C 0.51088(11) -0.2021(4) 1.2502(3)
H1A H 0.5356 -0.3336 1.2659
C2A C 0.52103(11) -0.0425(5) 1.3535(3)
H2A H 0.5532 -0.0702 1.4377
C3A C 0.44136(11) 0.1855(6) 1.2165(3)
H3A H 0.4171 0.3175 1.2042
C4A C 0.42891(11) 0.0349(5) 1.1084(3)
H4A H 0.3969 0.0678 1.0247
C5A C 0.46366(9) -0.1659(6) 1.1228(2)
C6A C 0.44810(11) -0.3307(5) 1.0032(3)
H5A H 0.4307 -0.2382 0.9202
H6A H 0.4171 -0.4384 1.0021
H7A H 0.4841 -0.5770 0.9202
C8A C 0.61987(13) 0.4726(6) 0.5859(3)
C9A C 0.67675(10) 0.6190(5) 0.6516(3)
C10A C 0.72770(11) 0.5385(5) 0.6380(3)
H8A H 0.7255 0.4046 0.5868
C11A C 0.78124(11) 0.6595(5) 0.7014(3)
C12A C 0.78663(9) 0.8597(8) 0.7770(2)
H9A H 0.8229 0.9418 0.8171
C13A C 0.73589(11) 0.9330(5) 0.7907(3)
C14A C 0.68085(10) 0.8194(5) 0.7285(2)
H10A H 0.6472 0.8762 0.7378
loop_
_geom_bond_atom_site_label_1
_geom_bond_atom_site_label_2
_geom_bond_site_symmetry_1
_geom_bond_site_symmetry_2
Zn1 O1 1_555 1_555
O1 C8 1_555 1_555
O2 C8 1_555 1_555
O3 N3 1_555 1_555
O4 N3 1_555 1_555
O5 N2 1_555 1_555
O6 N2 1_555 1_555
N1 Zn1 1_555 1_555
N2 C11 1_555 1_555
N3 C13 1_555 1_555
C1 H1 1_555 1_555
C2 N1 1_555 1_555
H2 C2 1_555 1_555
C3 N1 1_555 1_555
H3 C3 1_555 1_555
C4 C3 1_555 1_555
H4 C4 1_555 1_555
C5 C1 1_555 1_555
C6 C5 1_555 1_555
H5 C6 1_555 1_555
H6 C6 1_555 1_555
C7 C6 1_555 1_555
H7 C7 1_555 1_555
C8 C9 1_555 1_555
C9 C10 1_555 1_555
C10 H8 1_555 1_555
C11 C10 1_555 1_555
C12 C11 1_555 1_555
H9 C12 1_555 1_555
C13 C12 1_555 1_555
C14 C9 1_555 1_555
H10 C14 1_555 1_555
Zn1_2 N1A 1_555 1_555
O1A Zn1 1_555 1_555
O2A C8A 1_555 1_555
O3A N3A 1_555 1_555
O4A N3A 1_555 1_555
O5A N2A 1_555 1_555
O6A N2A 1_555 1_555
N1A C2A 1_555 1_555
N1A_2 Zn1 1_555 1_555
N2A C11A 1_555 1_555
N3A C13A 1_555 1_555
C1A H1A 1_555 1_555
C2A C1A 1_555 1_555
H2A C2A 1_555 1_555
C3A N1A 1_555 1_555
H3A C3A 1_555 1_555
C4A C3A 1_555 1_555
H4A C4A 1_555 1_555
C5A C1A 1_555 1_555
C6A C7 1_555 1_555
H5A C6A 1_555 1_555
H6A C6A 1_555 1_555
H7A C7 1_555 1_555
C8A O1A 1_555 1_555
C9A C8A 1_555 1_555
C10A C9A 1_555 1_555
H8A C10A 1_555 1_555
C11A C10A 1_555 1_555
C12A C11A 1_555 1_555
H9A C12A 1_555 1_555
C13A C12A 1_555 1_555
C14A C9A 1_555 1_555
H10A C14A 1_555 1_555
C1 C2 1_555 1_555
C4 C5 1_555 1_555
C13 C14 1_555 1_555
C4A C5A 1_555 1_555
C5A C6A 1_555 1_555
C13A C14A 1_555 1_555

#END
