
#######################################################################
#
#                 Cambridge Crystallographic Data Centre
#                                CCDC 
#
#######################################################################
#
# If this CIF has been generated from an entry in the Cambridge 
# Structural Database, then it will include bibliographic, chemical, 
# crystal, experimental, refinement or atomic coordinate data resulting 
# from the CCDC's data processing and validation procedures.
#
#######################################################################

data_IWUZAC
_symmetry_cell_setting           monoclinic
_symmetry_space_group_name_H-M   'C 2/c'
_symmetry_Int_Tables_number      15
_space_group_name_Hall           '-C 2yn'
loop_
_symmetry_equiv_pos_site_id
_symmetry_equiv_pos_as_xyz
1 x,y,z
2 -x,y,1/2-z
3 1/2+x,1/2+y,z
4 1/2-x,1/2+y,1/2-z
5 -x,-y,-z
6 x,-y,1/2+z
7 1/2-x,1/2-y,-z
8 1/2+x,1/2-y,1/2+z
_cell_length_a                   7.1490(2)
_cell_length_b                   18.7059(6)
_cell_length_c                   39.2863(13)
_cell_angle_alpha                90
_cell_angle_beta                 91.979(2)
_cell_angle_gamma                90
_cell_volume                     5250.56
loop_
_atom_site_label
_atom_site_type_symbol
_atom_site_fract_x
_atom_site_fract_y
_atom_site_fract_z
Zn1 Zn 0.0000 0.41188(3) 1.2500
Zn2 Zn 1.0000 0.28798(3) 0.7500
Zn3 Zn 0.76207(6) 0.35069(2) 1.018737(9)
O1 O 0.1259(4) 0.40960(15) 1.20447(6)
O2 O -0.1145(4) 0.43557(17) 1.16868(6)
O3 O 0.4823(4) 0.34950(18) 1.03744(7)
O4 O 0.7105(4) 0.40775(16) 1.06351(7)
C1 C 0.3756(5) 0.4159(2) 1.15124(8)
H1 H 0.4262 0.4197 1.1733
C2 C 0.0533(5) 0.42151(18) 1.17520(8)
C3 C 0.4176(5) 0.40046(18) 1.09126(8)
C4 C 0.2253(5) 0.4004(2) 1.08563(8)
H2 H 0.1748 0.3943 1.0637
C5 C 0.1075(5) 0.4096(2) 1.11278(8)
H3 H -0.0215 0.4114 1.1089
C6 C 0.4933(5) 0.4098(2) 1.12402(9)
H4 H 0.6224 0.4119 1.1277
C7 C 0.1830(5) 0.41623(18) 1.14573(8)
C8 C 0.5436(5) 0.3859(2) 1.06224(9)
C9 C 1.1946(5) 0.36067(19) 0.91423(8)
C10 C 1.2271(4) 0.34650(18) 0.87775(8)
C11 C 1.2387(6) 0.2778(2) 0.86457(9)
H5 H 1.2381 0.2388 0.8792
C12 C 1.1089(7) 0.4410(2) 0.95902(10)
H6 H 1.0901 0.4875 0.9666
C13 C 1.1223(6) 0.3186(2) 0.97034(9)
H7 H 1.1128 0.2813 0.9858
C14 C 1.2331(6) 0.4021(2) 0.85449(9)
H8 H 1.2274 0.4491 0.8622
C15 C 1.1778(6) 0.3048(2) 0.93783(9)
H9 H 1.2043 0.2581 0.9314
C16 C 1.2473(6) 0.3890(2) 0.82026(9)
H10 H 1.2516 0.4270 0.8051
C17 C 1.1644(7) 0.4292(2) 0.92642(10)
H11 H 1.1824 0.4680 0.9121
C18 C 1.2512(6) 0.2668(2) 0.83042(9)
H12 H 1.2571 0.2203 0.8221
C19 C 0.6855(5) 0.3131(2) 0.91356(8)
C20 C 0.7207(5) 0.3920(2) 0.86584(9)
H13 H 0.7232 0.4381 0.8570
C21 C 0.7451(4) 0.33322(18) 0.84444(8)
C22 C 0.6929(6) 0.3815(2) 0.90021(9)
H14 H 0.6790 0.4208 0.9144
C23 C 0.7036(5) 0.2545(2) 0.89196(9)
H15 H 0.6944 0.2084 0.9006
C24 C 0.7353(5) 0.2649(2) 0.85757(9)
H16 H 0.7499 0.2256 0.8434
C25 C 0.7951(5) 0.3462(2) 0.80776(8)
N1 N 1.2549(4) 0.32178(17) 0.80866(7)
N2 N 1.0816(4) 0.38598(18) 0.98001(7)
O5 O 0.8675(4) 0.29330(16) 0.79310(6)
O6 O 0.7727(5) 0.40624(16) 0.79525(7)
O7 O 1.2584(4) 0.31021(16) 0.77508(6)
O8 O 1.0116(4) 0.39841(15) 1.01061(6)
O9 O -0.2747(4) 0.41872(15) 1.22580(7)
O10 O 0.0000 0.2984(2) 1.2500
O11 O 0.0000 0.5270(2) 1.2500
O12 O 1.0000 0.1817(2) 0.7500
O13 O 0.6932(4) 0.35547(16) 0.96986(6)
C26 C 0.6702(5) 0.3018(2) 0.95124(8)
O14 O 0.6373(5) 0.24002(17) 0.96222(7)
H17 H -0.335(8) 0.456(3) 1.2317(13)
H18 H -0.241(8) 0.429(3) 1.2037(15)
H19 H 0.074(7) 0.275(3) 1.2439(13)
H21 H 0.043(7) 0.547(3) 1.2361(11)
H22 H 0.915(7) 0.164(3) 0.7601(15)
Zn2F Zn 0.5000 0.21202(3) 1.2500
Zn2_2 Zn -1.0000 0.28798(3) 1.7500
Zn3A Zn -0.76207(6) 0.35069(2) 1.481263(9)
Zn3F Zn 0.73793(6) 0.14931(2) 0.981263(9)
O1A O -0.1259(4) 0.40960(15) 1.29553(6)
O2A O 0.1145(4) 0.43557(17) 1.33132(6)
O3A O -0.4823(4) 0.34950(18) 1.46256(7)
O4A O -0.7105(4) 0.40775(16) 1.43649(7)
C1A C -0.3756(5) 0.4159(2) 1.34876(8)
H1A H -0.4262 0.4197 1.3267
C2A C -0.0533(5) 0.42151(18) 1.32480(8)
C3A C -0.4176(5) 0.40046(18) 1.40874(8)
C4A C -0.2253(5) 0.4004(2) 1.41437(8)
H2A H -0.1748 0.3943 1.4363
C5A C -0.1075(5) 0.4096(2) 1.38722(8)
H3A H 0.0215 0.4114 1.3911
C6A C -0.4933(5) 0.4098(2) 1.37598(9)
H4A H -0.6224 0.4119 1.3723
C7A C -0.1830(5) 0.41623(18) 1.35427(8)
C8A C -0.5436(5) 0.3859(2) 1.43776(9)
C9A C -1.1946(5) 0.36067(19) 1.58577(8)
C10A C -1.2271(4) 0.34650(18) 1.62225(8)
C11A C -1.2387(6) 0.2778(2) 1.63543(9)
H5A H -1.2381 0.2388 1.6208
C12A C -1.1089(7) 0.4410(2) 1.54098(10)
H6A H -1.0901 0.4875 1.5334
C13A C -1.1223(6) 0.3186(2) 1.52966(9)
H7A H -1.1128 0.2813 1.5142
C14A C -1.2331(6) 0.4021(2) 1.64551(9)
H8A H -1.2274 0.4491 1.6378
C15A C -1.1778(6) 0.3048(2) 1.56217(9)
H9A H -1.2043 0.2581 1.5686
C16A C -1.2473(6) 0.3890(2) 1.67974(9)
H10A H -1.2516 0.4270 1.6949
C17A C -1.1644(7) 0.4292(2) 1.57358(10)
H11A H -1.1824 0.4680 1.5879
C18A C -1.2512(6) 0.2668(2) 1.66958(9)
H12A H -1.2571 0.2203 1.6779
C19F C 0.8145(5) 0.1869(2) 1.08644(8)
C20F C 0.7793(5) 0.1080(2) 1.13416(9)
H13F H 0.7768 0.0619 1.1430
C21F C 0.7549(4) 0.16678(18) 1.15556(8)
C22F C 0.8071(6) 0.1185(2) 1.09979(9)
H14F H 0.8210 0.0792 1.0856
C23F C 0.7964(5) 0.2455(2) 1.10804(9)
H15F H 0.8056 0.2916 1.0994
C24F C 0.7647(5) 0.2351(2) 1.14243(9)
H16F H 0.7501 0.2744 1.1566
C25F C 0.7049(5) 0.1538(2) 1.19224(8)
N1A N -1.2549(4) 0.32178(17) 1.69134(7)
N2A N -1.0816(4) 0.38598(18) 1.51999(7)
O5F O 0.6325(4) 0.20670(16) 1.20690(6)
O5A O 1.1325(4) 0.29330(16) 0.70690(6)
O6F O 0.7273(5) 0.09376(16) 1.20475(7)
O7A O -1.2584(4) 0.31021(16) 1.72492(6)
O7A_2 O 0.7416(4) 0.31021(16) 0.72492(6)
O8A O -1.0116(4) 0.39841(15) 1.48939(6)
O9A O 0.2747(4) 0.41872(15) 1.27420(7)
O13F O 0.8068(4) 0.14453(16) 1.03014(6)
O13A O -0.6932(4) 0.35547(16) 1.53014(6)
C26F C 0.8298(5) 0.1982(2) 1.04876(8)
O14F O 0.8627(5) 0.25998(17) 1.03778(7)
O14G O -0.8627(5) 0.25998(17) 1.46222(7)
H17A H 0.335(8) 0.456(3) 1.2683(13)
H18A H 0.241(8) 0.429(3) 1.2963(15)
H19A H -0.074(7) 0.275(3) 1.2561(13)
H21A H -0.043(7) 0.547(3) 1.2639(11)
H22A H 1.085(7) 0.164(3) 0.7399(15)
O15 O 0.5000 0.5303(2) 0.2500
H20 H 0.563(8) 0.545(3) 0.2644(12)
H20A H 0.437(8) 0.545(3) 0.2356(12)
loop_
_geom_bond_atom_site_label_1
_geom_bond_atom_site_label_2
_geom_bond_site_symmetry_1
_geom_bond_site_symmetry_2
Zn1 O1 1_555 1_555
Zn2 O5 1_555 1_555
Zn3 O3 1_555 1_555
O1 C2 1_555 1_555
O2 C2 1_555 1_555
O3 C8 1_555 1_555
O4 Zn3 1_555 1_555
C1 H1 1_555 1_555
C2 C7 1_555 1_555
C3 C4 1_555 1_555
C4 H2 1_555 1_555
C5 C4 1_555 1_555
H3 C5 1_555 1_555
C6 C1 1_555 1_555
H4 C6 1_555 1_555
C7 C1 1_555 1_555
C8 O4 1_555 1_555
C9 C10 1_555 1_555
C10 C11 1_555 1_555
C11 H5 1_555 1_555
C12 H6 1_555 1_555
C13 H7 1_555 1_555
C14 C10 1_555 1_555
H8 C14 1_555 1_555
C15 C9 1_555 1_555
H9 C15 1_555 1_555
C16 C14 1_555 1_555
H10 C16 1_555 1_555
C17 C9 1_555 1_555
H11 C17 1_555 1_555
C18 C11 1_555 1_555
H12 C18 1_555 1_555
C19 C22 1_555 1_555
C20 H13 1_555 1_555
C21 C20 1_555 1_555
C22 C20 1_555 1_555
H14 C22 1_555 1_555
C23 C19 1_555 1_555
H15 C23 1_555 1_555
C24 C21 1_555 1_555
H16 C24 1_555 1_555
C25 C21 1_555 1_555
N1 C16 1_555 1_555
N2 C12 1_555 1_555
O5 C25 1_555 1_555
O6 C25 1_555 1_555
O7 Zn2 1_555 1_555
O8 Zn3 1_555 1_555
O9 Zn1 1_555 1_555
O10 Zn1 1_555 1_555
O11 Zn1 1_555 1_555
O12 Zn2 1_555 1_555
O13 Zn3 1_555 1_555
C26 C19 1_555 1_555
O14 C26 1_555 1_555
O15 H20 1_555 1_555
H17 O9 1_555 1_555
H18 O9 1_555 1_555
H19 O10 1_555 1_555
H21 O11 1_555 1_555
H22 O12 1_555 1_555
Zn2F O5F 1_555 1_555
Zn2_2 O7A 1_555 1_555
Zn3A O3A 1_555 1_555
Zn3F O14 1_555 1_555
O1A Zn1 1_555 1_555
O2A C2A 1_555 1_555
O3A C8A 1_555 1_555
O4A Zn3A 1_555 1_555
C1A H1A 1_555 1_555
C2A O1A 1_555 1_555
C3A C4A 1_555 1_555
C4A H2A 1_555 1_555
C5A C4A 1_555 1_555
H3A C5A 1_555 1_555
C6A C1A 1_555 1_555
H4A C6A 1_555 1_555
C7A C1A 1_555 1_555
C8A O4A 1_555 1_555
C9A C10A 1_555 1_555
C10A C11A 1_555 1_555
C11A H5A 1_555 1_555
C12A H6A 1_555 1_555
C13A H7A 1_555 1_555
C14A C10A 1_555 1_555
H8A C14A 1_555 1_555
C15A C9A 1_555 1_555
H9A C15A 1_555 1_555
C16A C14A 1_555 1_555
H10A C16A 1_555 1_555
C17A C9A 1_555 1_555
H11A C17A 1_555 1_555
C18A C11A 1_555 1_555
H12A C18A 1_555 1_555
C19F C22F 1_555 1_555
C20F H13F 1_555 1_555
C21F C20F 1_555 1_555
C22F C20F 1_555 1_555
H14F C22F 1_555 1_555
C23F C19F 1_555 1_555
H15F C23F 1_555 1_555
C24F C21F 1_555 1_555
H16F C24F 1_555 1_555
C25F C21F 1_555 1_555
N1A C16A 1_555 1_555
N2A C12A 1_555 1_555
O5F C25F 1_555 1_555
O5A Zn2 1_555 1_555
O6F C25F 1_555 1_555
O7A N1A 1_555 1_555
O7A_2 Zn2 1_555 1_555
O8A Zn3A 1_555 1_555
O9A Zn1 1_555 1_555
O13F Zn3F 1_555 1_555
O13A Zn3A 1_555 1_555
C26F C19F 1_555 1_555
O14F Zn3 1_555 1_555
O14G Zn3A 1_555 1_555
H17A O9A 1_555 1_555
H18A O9A 1_555 1_555
H19A O10 1_555 1_555
H20A O15 1_555 1_555
H21A O11 1_555 1_555
H22A O12 1_555 1_555
C3 C6 1_555 1_555
C3 C8 1_555 1_555
C5 C7 1_555 1_555
C12 C17 1_555 1_555
C13 C15 1_555 1_555
C13 N2 1_555 1_555
C18 N1 1_555 1_555
C23 C24 1_555 1_555
N1 O7 1_555 1_555
N2 O8 1_555 1_555
O13 C26 1_555 1_555
C2A C7A 1_555 1_555
C3A C6A 1_555 1_555
C3A C8A 1_555 1_555
C5A C7A 1_555 1_555
C12A C17A 1_555 1_555
C13A C15A 1_555 1_555
C13A N2A 1_555 1_555
C18A N1A 1_555 1_555
C23F C24F 1_555 1_555
N2A O8A 1_555 1_555
O13F C26F 1_555 1_555
C26F O14F 1_555 1_555

#END
