
#######################################################################
#
#                 Cambridge Crystallographic Data Centre
#                                CCDC 
#
#######################################################################
#
# If this CIF has been generated from an entry in the Cambridge 
# Structural Database, then it will include bibliographic, chemical, 
# crystal, experimental, refinement or atomic coordinate data resulting 
# from the CCDC's data processing and validation procedures.
#
#######################################################################

data_IWUZEG
_symmetry_cell_setting           triclinic
_symmetry_space_group_name_H-M   'P -1'
_symmetry_Int_Tables_number      2
_space_group_name_Hall           '-P 1'
loop_
_symmetry_equiv_pos_site_id
_symmetry_equiv_pos_as_xyz
1 x,y,z
2 -x,-y,-z
_cell_length_a                   10.7302(7)
_cell_length_b                   10.8063(8)
_cell_length_c                   17.2987(12)
_cell_angle_alpha                88.083(4)
_cell_angle_beta                 83.829(4)
_cell_angle_gamma                61.760(3)
_cell_volume                     1756.51
loop_
_atom_site_label
_atom_site_type_symbol
_atom_site_fract_x
_atom_site_fract_y
_atom_site_fract_z
Zn1 Zn -0.00842(10) 0.90723(10) 0.06241(6)
Zn2 Zn 0.91590(10) 0.00956(10) 0.43572(6)
C1 C -0.4301(9) 1.1947(10) 0.0058(5)
C2 C -0.2716(9) 1.1273(10) 0.0093(5)
C3 C -0.5080(10) 1.1394(10) 0.0480(6)
H1 H -0.4642 1.0653 0.0813
C4 C -0.4974(11) 1.3090(12) -0.0397(7)
H2 H -0.4458 1.3490 -0.0663
C5 C -0.7186(11) 1.3068(13) -0.0064(7)
H3 H -0.8152 1.3433 -0.0110
C6 C -0.6525(11) 1.1948(12) 0.0405(8)
H4 H -0.7044 1.1553 0.0675
C7 C -0.6426(11) 1.3657(14) -0.0467(8)
H5 H -0.6875 1.4424 -0.0782
C8 C 0.0084(9) 0.8128(10) -0.0927(6)
C9 C 0.0285(9) 0.7086(10) -0.1552(5)
C10 C 0.0522(10) 0.5749(10) -0.1357(6)
H6 H 0.0476 0.5516 -0.0836
C11 C 0.0827(12) 0.4759(11) -0.1926(7)
H7 H 0.1008 0.3852 -0.1793
C12 C 0.0303(12) 0.7443(12) -0.2331(6)
H8 H 0.0124 0.8348 -0.2465
C13 C 0.0585(16) 0.6466(16) -0.2905(7)
H9 H 0.0585 0.6715 -0.3425
C14 C 0.0861(15) 0.5134(15) -0.2712(7)
H10 H 0.1074 0.4469 -0.3101
C15 C 0.3570(10) 0.4979(10) 0.2331(5)
C16 C 0.6125(10) 0.2411(11) 0.3670(6)
H11 H 0.6178 0.2270 0.4201
C17 C 0.4863(10) 0.3799(10) 0.2632(5)
C18 C 0.5956(10) 0.2812(11) 0.2118(5)
H12 H 0.5918 0.2921 0.1584
C19 C 0.4981(10) 0.3572(11) 0.3413(5)
H13 H 0.4280 0.4208 0.3773
C20 C 0.7076(10) 0.1690(11) 0.2400(5)
H14 H 0.7801 0.1049 0.2052
C21 C 0.1925(11) 0.5926(10) 0.1370(5)
H15 H 0.1666 0.5853 0.0884
C22 C 0.3148(10) 0.4864(10) 0.1619(5)
H16 H 0.3696 0.4063 0.1309
C23 C 0.1484(11) 0.7234(10) 0.2505(5)
H17 H 0.0910 0.8045 0.2804
C24 C 0.2714(11) 0.6216(11) 0.2768(6)
H18 H 0.2981 0.6349 0.3240
C25 C 1.1056(11) -0.2663(9) 0.4851(5)
C26 C 1.1748(10) -0.4255(9) 0.4842(6)
C27 C 1.2779(13) -0.4989(10) 0.5335(7)
H19 H 1.3111 -0.4527 0.5633
C28 C 1.3315(17) -0.6454(11) 0.5375(8)
H20 H 1.3991 -0.6961 0.5714
C29 C 1.1300(12) -0.4950(11) 0.4369(8)
H21 H 1.0639 -0.4457 0.4019
C30 C 1.1861(13) -0.6403(12) 0.4429(9)
H22 H 1.1555 -0.6883 0.4128
C31 C 1.2871(15) -0.7131(12) 0.4935(8)
H23 H 1.3245 -0.8100 0.4969
C32 C 1.2136(10) -0.0183(9) 0.4065(6)
C33 C 1.3360(10) -0.0376(10) 0.3469(6)
C34 C 1.4580(11) -0.0461(10) 0.3693(7)
H24 H 1.4644 -0.0349 0.4216
C35 C 1.5744(12) -0.0719(12) 0.3138(8)
H25 H 1.6572 -0.0776 0.3295
C36 C 1.3270(14) -0.0510(13) 0.2673(7)
H26 H 1.2437 -0.0421 0.2506
C37 C 1.4433(17) -0.0775(16) 0.2142(8)
H27 H 1.4380 -0.0880 0.1617
O1 O 0.8250(7) 0.0310(7) 0.3396(4)
O2 O -0.0132(6) 0.8054(6) 0.1595(3)
O3 O -0.2175(6) 1.0311(7) 0.0570(4)
O4 O 1.0181(7) -0.2019(6) 0.4373(4)
O5 O -0.2051(7) 1.1746(7) -0.0374(4)
O6 O 1.1046(8) -0.0072(9) 0.3811(5)
O7 O -0.0004(8) 0.7786(8) -0.0229(4)
O8 O 0.0032(8) 0.9262(8) -0.1145(4)
O9 O 1.1440(8) -0.2111(7) 0.5343(4)
N1 N 0.7162(7) 0.1485(8) 0.3167(4)
N2 N 0.1107(7) 0.7061(7) 0.1820(4)
C38 C 1.5652(17) -0.0883(16) 0.2374(9)
H28 H 1.6425 -0.1070 0.2008
O10 O 1.2311(8) -0.0171(8) 0.4761(4)
Zn1A Zn 0.00842(10) 1.09277(10) -0.06241(6)
Zn2A Zn 1.08410(10) -0.00956(10) 0.56428(6)
O5A O 0.2051(7) 0.8254(7) 0.0374(4)
O8A O -0.0032(8) 1.0738(8) 0.1145(4)
O9A O 0.8560(8) 0.2111(7) 0.4657(4)
O10A O 0.7689(8) 0.0171(8) 0.5239(4)
loop_
_geom_bond_atom_site_label_1
_geom_bond_atom_site_label_2
_geom_bond_site_symmetry_1
_geom_bond_site_symmetry_2
Zn1 O2 1_555 1_555
Zn2 O1 1_555 1_555
C1 C2 1_555 1_555
C2 O3 1_555 1_555
C3 C1 1_555 1_555
H1 C3 1_555 1_555
C4 C1 1_555 1_555
H2 C4 1_555 1_555
C5 H3 1_555 1_555
C6 C3 1_555 1_555
H4 C6 1_555 1_555
C7 C4 1_555 1_555
H5 C7 1_555 1_555
C8 C9 1_555 1_555
C9 C10 1_555 1_555
C10 H6 1_555 1_555
C11 C10 1_555 1_555
H7 C11 1_555 1_555
C12 C9 1_555 1_555
H8 C12 1_555 1_555
C13 C12 1_555 1_555
H9 C13 1_555 1_555
C14 C11 1_555 1_555
H10 C14 1_555 1_555
C15 C17 1_555 1_555
C16 H11 1_555 1_555
C17 C18 1_555 1_555
C18 H12 1_555 1_555
C19 C16 1_555 1_555
H13 C19 1_555 1_555
C20 C18 1_555 1_555
H14 C20 1_555 1_555
C21 H15 1_555 1_555
C22 C15 1_555 1_555
H16 C22 1_555 1_555
C23 H17 1_555 1_555
C24 C15 1_555 1_555
H18 C24 1_555 1_555
C25 C26 1_555 1_555
C26 C27 1_555 1_555
C27 H19 1_555 1_555
C28 C27 1_555 1_555
H20 C28 1_555 1_555
C29 C26 1_555 1_555
H21 C29 1_555 1_555
C30 C29 1_555 1_555
H22 C30 1_555 1_555
C31 C28 1_555 1_555
H23 C31 1_555 1_555
C32 C33 1_555 1_555
C33 C34 1_555 1_555
C34 H24 1_555 1_555
C35 C34 1_555 1_555
H25 C35 1_555 1_555
C36 C33 1_555 1_555
H26 C36 1_555 1_555
C37 C36 1_555 1_555
H27 C37 1_555 1_555
O1 N1 1_555 1_555
O2 N2 1_555 1_555
O3 Zn1 1_555 1_555
O4 Zn2 1_555 1_555
O5 C2 1_555 1_555
O6 Zn2 1_555 1_555
O7 Zn1 1_555 1_555
O8 C8 1_555 1_555
O9 C25 1_555 1_555
N1 C16 1_555 1_555
N2 C21 1_555 1_555
C38 C35 1_555 1_555
H28 C38 1_555 1_555
O10 C32 1_555 1_555
Zn1A O5 1_555 1_555
Zn2A O9 1_555 1_555
O5A Zn1 1_555 1_555
O8A Zn1 1_555 1_555
O9A Zn2 1_555 1_555
O10A Zn2 1_555 1_555
C5 C6 1_555 1_555
C5 C7 1_555 1_555
C8 O7 1_555 1_555
C13 C14 1_555 1_555
C17 C19 1_555 1_555
C20 N1 1_555 1_555
C21 C22 1_555 1_555
C23 C24 1_555 1_555
C23 N2 1_555 1_555
C25 O4 1_555 1_555
C30 C31 1_555 1_555
C32 O6 1_555 1_555
C37 C38 1_555 1_555
O8 Zn1A 1_555 1_555
O10 Zn2A 1_555 1_555

#END
