
#######################################################################
#
#                 Cambridge Crystallographic Data Centre
#                                CCDC 
#
#######################################################################
#
# If this CIF has been generated from an entry in the Cambridge 
# Structural Database, then it will include bibliographic, chemical, 
# crystal, experimental, refinement or atomic coordinate data resulting 
# from the CCDC's data processing and validation procedures.
#
#######################################################################

data_IWUZUW
_symmetry_cell_setting           monoclinic
_symmetry_space_group_name_H-M   'P 21/c'
_symmetry_Int_Tables_number      14
_space_group_name_Hall           '-P 2ybc'
loop_
_symmetry_equiv_pos_site_id
_symmetry_equiv_pos_as_xyz
1 x,y,z
2 -x,1/2+y,1/2-z
3 -x,-y,-z
4 x,1/2-y,1/2+z
_cell_length_a                   10.8299(15)
_cell_length_b                   22.931(3)
_cell_length_c                   12.2905(15)
_cell_angle_alpha                90
_cell_angle_beta                 105.145(3)
_cell_angle_gamma                90
_cell_volume                     2946.22
loop_
_atom_site_label
_atom_site_type_symbol
_atom_site_fract_x
_atom_site_fract_y
_atom_site_fract_z
Cd1 Cd 0.760850(15) 0.064664(6) 0.198118(11)
Cd2 Cd 0.5000 0.0000 0.0000
O1 O 0.68670(17) 0.13715(7) 0.07512(13)
O2 O 0.58187(19) 0.07807(7) -0.06216(15)
O3 O 0.70313(15) -0.02196(6) 0.10495(12)
O4 O 0.81233(18) -0.03815(7) 0.27993(13)
O5 O 0.45546(18) 0.04961(8) 0.14893(13)
O6 O 0.61805(17) 0.06907(8) 0.29778(14)
O7 O 0.89317(16) 0.11466(7) 0.34137(12)
O8 O 0.93964(17) 0.06943(8) 1.13202(13)
N1 N 0.88577(17) 0.10949(8) 0.44777(13)
N2 N 0.92161(19) 0.07785(9) 1.02192(15)
C1 C 0.8743(3) 0.05687(10) 0.49160(19)
H1 H 0.8652 0.0238 0.4463
C2 C 0.8935(3) 0.15763(10) 0.51106(19)
H2 H 0.8982 0.1940 0.4790
C3 C 0.8943(3) 0.15378(10) 0.62236(19)
H3 H 0.9000 0.1876 0.6652
C4 C 0.8868(2) 0.10009(10) 0.67208(17)
C5 C 0.8759(3) 0.05169(10) 0.60282(19)
H4 H 0.8696 0.0149 0.6326
C6 C 0.8949(2) 0.09372(10) 0.79360(17)
C7 C 0.8499(3) 0.04436(11) 0.83545(19)
H5 H 0.8091 0.0156 0.7855
C8 C 0.6262(2) 0.12662(10) -0.02541(19)
C9 C 0.6084(2) 0.17570(10) -0.10855(19)
C10 C 0.5671(3) 0.16402(12) -0.2227(2)
H6 H 0.5511 0.1257 -0.2474
C11 C 0.6314(3) 0.23313(10) -0.0738(2)
H7 H 0.6598 0.2418 0.0026
C12 C 0.9639(3) 0.12693(12) 0.9855(2)
H8 H 1.0020 0.1555 1.0370
C13 C 0.9515(3) 0.13557(11) 0.87243(19)
H9 H 0.9815 0.1700 0.8484
C14 C 0.8639(3) 0.03683(11) 0.94800(19)
H10 H 0.8333 0.0031 0.9738
C15 C 0.5011(2) 0.06383(9) 0.24989(18)
C16 C 0.4105(2) 0.07612(9) 0.32019(18)
C17 C 0.2844(2) 0.09149(10) 0.2710(2)
H11 H 0.2564 0.0950 0.1930
C18 C 0.2002(3) 0.10165(12) 0.3351(2)
H12 H 0.1166 0.1128 0.3008
C19 C 0.7044(3) -0.14083(11) 0.0522(2)
H13 H 0.6796 -0.1143 -0.0067
C20 C 0.7444(2) -0.12087(9) 0.16223(19)
C21 C 0.7792(3) -0.16071(11) 0.2486(2)
H14 H 0.8063 -0.1479 0.3229
C22 C 0.7536(2) -0.05693(9) 0.18678(18)
C23 C 0.6121(3) 0.27753(12) -0.1522(3)
H15 H 0.6269 0.3160 -0.1281
C24 C 0.5718(3) 0.26573(15) -0.2644(3)
H16 H 0.5593 0.2959 -0.3167
C25 C 0.4496(3) 0.07145(12) 0.4366(2)
H17 H 0.5343 0.0624 0.4718
C26 C 0.3635(3) 0.08021(14) 0.5007(2)
H18 H 0.3900 0.0758 0.5786
C27 C 0.2401(3) 0.09525(12) 0.4504(3)
H19 H 0.1827 0.1012 0.4940
C28 C 0.7010(3) -0.19974(13) 0.0298(3)
H20 H 0.6748 -0.2129 -0.0442
C29 C 0.7739(4) -0.22011(14) 0.2250(4)
H21 H 0.7960 -0.2470 0.2836
C30 C 0.7363(4) -0.23891(14) 0.1165(4)
H22 H 0.7346 -0.2786 0.1010
C31 C 0.5494(4) 0.20873(15) -0.3001(3)
H23 H 0.5222 0.2005 -0.3767
Cd1B Cd 0.239150(15) -0.064664(6) -0.198118(11)
Cd1_2 Cd 0.760850(15) 0.064664(6) 1.198118(11)
Cd1_3 Cd 0.760850(15) 0.064664(6) -0.801882(11)
O1B O 0.31330(17) -0.13715(7) -0.07512(13)
O2B O 0.41813(19) -0.07807(7) 0.06216(15)
O3B O 0.29687(15) 0.02196(6) -0.10495(12)
O4B O 0.18767(18) 0.03815(7) -0.27993(13)
O5B O 0.54454(18) -0.04961(8) -0.14893(13)
O6B O 0.38195(17) -0.06907(8) -0.29778(14)
O7_2 O 0.89317(16) 0.11466(7) -0.65863(12)
O7B O 0.10683(16) -0.11466(7) -0.34137(12)
O8_2 O 0.93964(17) 0.06943(8) 0.13202(13)
O8B O 0.06036(17) -0.06943(8) -0.13202(13)
N1_2 N 0.88577(17) 0.10949(8) -0.55223(13)
N2_2 N 0.92161(19) 0.07785(9) 0.02192(15)
C1_2 C 0.8743(3) 0.05687(10) -0.50840(19)
H1_2 H 0.8652 0.0238 -0.5537
C2_2 C 0.8935(3) 0.15763(10) -0.48894(19)
H2_2 H 0.8982 0.1940 -0.5210
C3_2 C 0.8943(3) 0.15378(10) -0.37764(19)
H3_2 H 0.9000 0.1876 -0.3348
C4_2 C 0.8868(2) 0.10009(10) -0.32792(17)
C5_2 C 0.8759(3) 0.05169(10) -0.39718(19)
H4_2 H 0.8696 0.0149 -0.3674
C6_2 C 0.8949(2) 0.09372(10) -0.20640(17)
C7_2 C 0.8499(3) 0.04436(11) -0.16455(19)
H5_2 H 0.8091 0.0156 -0.2145
C8B C 0.3738(2) -0.12662(10) 0.02541(19)
C9B C 0.3916(2) -0.17570(10) 0.10855(19)
C10B C 0.4329(3) -0.16402(12) 0.2227(2)
H6B H 0.4489 -0.1257 0.2474
C11B C 0.3686(3) -0.23313(10) 0.0738(2)
H7B H 0.3402 -0.2418 -0.0026
C12_2 C 0.9639(3) 0.12693(12) -0.0145(2)
H8_2 H 1.0020 0.1555 0.0370
C13_2 C 0.9515(3) 0.13557(11) -0.12757(19)
H9_2 H 0.9815 0.1700 -0.1516
C14_2 C 0.8639(3) 0.03683(11) -0.05200(19)
H10_2 H 0.8333 0.0031 -0.0262
C15B C 0.4989(2) -0.06383(9) -0.24989(18)
C16B C 0.5895(2) -0.07612(9) -0.32019(18)
C17B C 0.7156(2) -0.09149(10) -0.2710(2)
H11B H 0.7436 -0.0950 -0.1930
C18B C 0.7998(3) -0.10165(12) -0.3351(2)
H12B H 0.8834 -0.1128 -0.3008
C19B C 0.2956(3) 0.14083(11) -0.0522(2)
H13B H 0.3204 0.1143 0.0067
C20B C 0.2556(2) 0.12087(9) -0.16223(19)
C21B C 0.2208(3) 0.16071(11) -0.2486(2)
H14B H 0.1937 0.1479 -0.3229
C22B C 0.2464(2) 0.05693(9) -0.18678(18)
C23B C 0.3879(3) -0.27753(12) 0.1522(3)
H15B H 0.3731 -0.3160 0.1281
C24B C 0.4282(3) -0.26573(15) 0.2644(3)
H16B H 0.4407 -0.2959 0.3167
C25B C 0.5504(3) -0.07145(12) -0.4366(2)
H17B H 0.4657 -0.0624 -0.4718
C26B C 0.6365(3) -0.08021(14) -0.5007(2)
H18B H 0.6100 -0.0758 -0.5786
C27B C 0.7599(3) -0.09525(12) -0.4504(3)
H19B H 0.8173 -0.1012 -0.4940
C28B C 0.2990(3) 0.19974(13) -0.0298(3)
H20B H 0.3252 0.2129 0.0442
C29B C 0.2261(4) 0.22011(14) -0.2250(4)
H21B H 0.2040 0.2470 -0.2836
C30B C 0.2637(4) 0.23891(14) -0.1165(4)
H22B H 0.2654 0.2786 -0.1010
C31B C 0.4506(4) -0.20873(15) 0.3001(3)
H23B H 0.4778 -0.2005 0.3767
O9 O 0.9025(3) 0.21219(11) 0.1919(3)
H24 H 0.920(6) 0.222(2) 0.261(2)
H25 H 0.834(5) 0.201(3) 0.146(6)
loop_
_geom_bond_atom_site_label_1
_geom_bond_atom_site_label_2
_geom_bond_site_symmetry_1
_geom_bond_site_symmetry_2
Cd1 O1 1_555 1_555
Cd2 O2 1_555 1_555
O1 C8 1_555 1_555
O2 C8 1_555 1_555
O3 Cd1 1_555 1_555
O4 Cd1 1_555 1_555
O5 Cd2 1_555 1_555
O6 Cd1 1_555 1_555
O7 Cd1 1_555 1_555
O8 N2 1_555 1_555
N1 O7 1_555 1_555
N2 C12 1_555 1_555
C1 N1 1_555 1_555
H1 C1 1_555 1_555
C2 N1 1_555 1_555
H2 C2 1_555 1_555
C3 C2 1_555 1_555
H3 C3 1_555 1_555
C4 C3 1_555 1_555
C5 C1 1_555 1_555
H4 C5 1_555 1_555
C6 C4 1_555 1_555
C7 C6 1_555 1_555
H5 C7 1_555 1_555
C8 C9 1_555 1_555
C9 C10 1_555 1_555
C10 H6 1_555 1_555
C11 C9 1_555 1_555
H7 C11 1_555 1_555
C12 H8 1_555 1_555
C13 C6 1_555 1_555
H9 C13 1_555 1_555
C14 N2 1_555 1_555
H10 C14 1_555 1_555
C15 O5 1_555 1_555
C16 C15 1_555 1_555
C17 C16 1_555 1_555
H11 C17 1_555 1_555
C18 C17 1_555 1_555
H12 C18 1_555 1_555
C19 H13 1_555 1_555
C20 C19 1_555 1_555
C21 C20 1_555 1_555
H14 C21 1_555 1_555
C22 O3 1_555 1_555
C23 C11 1_555 1_555
H15 C23 1_555 1_555
C24 C23 1_555 1_555
H16 C24 1_555 1_555
C25 C16 1_555 1_555
H17 C25 1_555 1_555
C26 C25 1_555 1_555
H18 C26 1_555 1_555
C27 C18 1_555 1_555
H19 C27 1_555 1_555
C28 C19 1_555 1_555
H20 C28 1_555 1_555
C29 C21 1_555 1_555
H21 C29 1_555 1_555
C30 C28 1_555 1_555
H22 C30 1_555 1_555
C31 C10 1_555 1_555
H23 C31 1_555 1_555
O9 H24 1_555 1_555
H25 O9 1_555 1_555
Cd1B O1B 1_555 1_555
Cd1_2 O8 1_555 1_555
Cd1_3 O7_2 1_555 1_555
O1B C8B 1_555 1_555
O2B Cd2 1_555 1_555
O3B Cd2 1_555 1_555
O4B Cd1B 1_555 1_555
O5B Cd2 1_555 1_555
O6B Cd1B 1_555 1_555
O7_2 N1_2 1_555 1_555
O7B Cd1B 1_555 1_555
O8_2 Cd1 1_555 1_555
O8B Cd1B 1_555 1_555
N1_2 C1_2 1_555 1_555
N2_2 O8_2 1_555 1_555
C1_2 H1_2 1_555 1_555
C2_2 N1_2 1_555 1_555
H2_2 C2_2 1_555 1_555
C3_2 C2_2 1_555 1_555
H3_2 C3_2 1_555 1_555
C4_2 C3_2 1_555 1_555
C5_2 C1_2 1_555 1_555
H4_2 C5_2 1_555 1_555
C6_2 C4_2 1_555 1_555
C7_2 C6_2 1_555 1_555
H5_2 C7_2 1_555 1_555
C8B O2B 1_555 1_555
C9B C8B 1_555 1_555
C10B C9B 1_555 1_555
H6B C10B 1_555 1_555
C11B C9B 1_555 1_555
H7B C11B 1_555 1_555
C12_2 N2_2 1_555 1_555
H8_2 C12_2 1_555 1_555
C13_2 C6_2 1_555 1_555
H9_2 C13_2 1_555 1_555
C14_2 N2_2 1_555 1_555
H10_2 C14_2 1_555 1_555
C15B O5B 1_555 1_555
C16B C15B 1_555 1_555
C17B C16B 1_555 1_555
H11B C17B 1_555 1_555
C18B C17B 1_555 1_555
H12B C18B 1_555 1_555
C19B H13B 1_555 1_555
C20B C19B 1_555 1_555
C21B C20B 1_555 1_555
H14B C21B 1_555 1_555
C22B O3B 1_555 1_555
C23B C11B 1_555 1_555
H15B C23B 1_555 1_555
C24B C23B 1_555 1_555
H16B C24B 1_555 1_555
C25B C16B 1_555 1_555
H17B C25B 1_555 1_555
C26B C25B 1_555 1_555
H18B C26B 1_555 1_555
C27B C18B 1_555 1_555
H19B C27B 1_555 1_555
C28B C19B 1_555 1_555
H20B C28B 1_555 1_555
C29B C21B 1_555 1_555
H21B C29B 1_555 1_555
C30B C28B 1_555 1_555
H22B C30B 1_555 1_555
C31B C10B 1_555 1_555
H23B C31B 1_555 1_555
Cd2 O3 1_555 1_555
O4 C22 1_555 1_555
O6 C15 1_555 1_555
C4 C5 1_555 1_555
C7 C14 1_555 1_555
C12 C13 1_555 1_555
C20 C22 1_555 1_555
C24 C31 1_555 1_555
C26 C27 1_555 1_555
C29 C30 1_555 1_555
Cd1B O3B 1_555 1_555
O4B C22B 1_555 1_555
O6B C15B 1_555 1_555
C4_2 C5_2 1_555 1_555
C7_2 C14_2 1_555 1_555
C12_2 C13_2 1_555 1_555
C20B C22B 1_555 1_555
C24B C31B 1_555 1_555
C26B C27B 1_555 1_555
C29B C30B 1_555 1_555

#END
