
#######################################################################
#
#                 Cambridge Crystallographic Data Centre
#                                CCDC 
#
#######################################################################
#
# If this CIF has been generated from an entry in the Cambridge 
# Structural Database, then it will include bibliographic, chemical, 
# crystal, experimental, refinement or atomic coordinate data resulting 
# from the CCDC's data processing and validation procedures.
#
#######################################################################

data_IXABAK
_symmetry_cell_setting           orthorhombic
_symmetry_space_group_name_H-M   'P b c a'
_symmetry_Int_Tables_number      61
_space_group_name_Hall           '-P 2ac 2ab'
loop_
_symmetry_equiv_pos_site_id
_symmetry_equiv_pos_as_xyz
1 x,y,z
2 1/2+x,y,1/2-z
3 1/2-x,1/2+y,z
4 x,1/2-y,1/2+z
5 -x,-y,-z
6 1/2-x,-y,1/2+z
7 1/2+x,1/2-y,-z
8 -x,1/2+y,1/2-z
_cell_length_a                   12.7397(8)
_cell_length_b                   15.6191(10)
_cell_length_c                   25.0173(15)
_cell_angle_alpha                90
_cell_angle_beta                 90
_cell_angle_gamma                90
_cell_volume                     4978.01
loop_
_atom_site_label
_atom_site_type_symbol
_atom_site_fract_x
_atom_site_fract_y
_atom_site_fract_z
Cu1 Cu 0.258106(14) 0.246556(11) 0.888115(7)
Cl1 Cl 0.12214(3) 0.23207(2) 0.946571(16)
Cl2 Cl 0.41284(3) 0.17983(2) 0.881891(16)
N1 N 0.31159(10) 0.35134(8) 0.92320(5)
N2 N 0.13333(11) 0.58478(10) 0.62402(6)
N3 N -0.31121(9) 0.19506(8) 0.67544(5)
O1 O 0.20341(9) 0.40468(7) 0.86257(4)
O2 O 0.21694(10) 0.45370(8) 0.63090(5)
O3 O -0.19873(9) 0.27730(7) 0.72054(4)
C1 C 0.09479(12) 0.43670(9) 0.78885(6)
C2 C 0.13373(12) 0.44433(9) 0.73707(6)
H1 H 0.1968 0.4751 0.7308
C3 C 0.08046(12) 0.40698(9) 0.69456(6)
C4 C -0.01071(12) 0.36012(10) 0.70435(6)
H2 H -0.0465 0.3335 0.6754
C5 C -0.04974(12) 0.35195(9) 0.75585(6)
C6 C 0.00265(12) 0.39152(10) 0.79810(6)
H3 H -0.0248 0.3876 0.8333
C7 C 0.15194(13) 0.47514(10) 0.83562(6)
H4 H 0.2043 0.5176 0.8232
H5 H 0.1020 0.5040 0.8600
C8 C 0.26378(11) 0.42215(9) 0.90547(6)
C9 C 0.27648(13) 0.50153(9) 0.92970(6)
H6 H 0.2407 0.5508 0.9170
C10 C 0.34357(13) 0.50577(10) 0.97320(6)
H7 H 0.3542 0.5588 0.9910
C11 C 0.39517(12) 0.43303(10) 0.99084(6)
H8 H 0.4422 0.4358 1.0202
C12 C 0.37699(12) 0.35674(10) 0.96502(6)
H9 H 0.4117 0.3065 0.9772
C13 C 0.11640(14) 0.41382(12) 0.63708(7)
H10 H 0.1194 0.3556 0.6214
H11 H 0.0637 0.4471 0.6167
C14 C 0.21925(13) 0.53869(11) 0.61827(6)
C15 C 0.31503(13) 0.57044(12) 0.59954(7)
H12 H 0.3755 0.5350 0.5976
C16 C 0.31850(14) 0.65475(13) 0.58406(7)
H13 H 0.3816 0.6785 0.5702
C17 C 0.22878(14) 0.70507(12) 0.58879(7)
H14 H 0.2293 0.7635 0.5783
C18 C 0.13935(14) 0.66797(12) 0.60902(7)
H15 H 0.0784 0.7026 0.6127
C19 C -0.14401(12) 0.29807(10) 0.76901(6)
H16 H -0.1215 0.2449 0.7872
H17 H -0.1912 0.3299 0.7934
C20 C -0.27689(11) 0.21950(10) 0.72358(6)
C21 C -0.31981(13) 0.18844(11) 0.77089(6)
H18 H -0.2933 0.2062 0.8046
C22 C -0.40191(13) 0.13107(11) 0.76751(7)
H19 H -0.4335 0.1093 0.7991
C23 C -0.43812(13) 0.10525(11) 0.71784(7)
H20 H -0.4941 0.0653 0.7149
C24 C -0.39131(12) 0.13861(10) 0.67289(6)
H21 H -0.4163 0.1213 0.6388
N3A N 0.18879(9) 0.19506(8) 0.82456(5)
Cu1A Cu -0.241894(14) 0.246556(11) 0.611885(7)
C25 C -0.0728(2) 0.39986(15) 0.98157(9)
H22 H -0.0230 0.3973 1.0114
H23 H -0.1179 0.3491 0.9823
H24 H -0.1161 0.4514 0.9849
O4 O -0.01724(15) 0.40236(12) 0.93297(6)
H25 H 0.0232(18) 0.3645(13) 0.9286(9)
loop_
_geom_bond_atom_site_label_1
_geom_bond_atom_site_label_2
_geom_bond_site_symmetry_1
_geom_bond_site_symmetry_2
Cu1 Cl1 1_555 1_555
Cl2 Cu1 1_555 1_555
N1 Cu1 1_555 1_555
N2 C14 1_555 1_555
N3 C20 1_555 1_555
O1 C7 1_555 1_555
O2 C13 1_555 1_555
O3 C19 1_555 1_555
C1 C2 1_555 1_555
C2 H1 1_555 1_555
C3 C2 1_555 1_555
C4 C3 1_555 1_555
H2 C4 1_555 1_555
C5 C4 1_555 1_555
C6 C1 1_555 1_555
H3 C6 1_555 1_555
C7 C1 1_555 1_555
H4 C7 1_555 1_555
H5 C7 1_555 1_555
C8 N1 1_555 1_555
C9 C8 1_555 1_555
H6 C9 1_555 1_555
C10 C9 1_555 1_555
H7 C10 1_555 1_555
C11 C10 1_555 1_555
H8 C11 1_555 1_555
C12 N1 1_555 1_555
H9 C12 1_555 1_555
C13 C3 1_555 1_555
H10 C13 1_555 1_555
H11 C13 1_555 1_555
C14 O2 1_555 1_555
C15 C14 1_555 1_555
H12 C15 1_555 1_555
C16 C15 1_555 1_555
H13 C16 1_555 1_555
C17 C16 1_555 1_555
H14 C17 1_555 1_555
C18 N2 1_555 1_555
H15 C18 1_555 1_555
C19 C5 1_555 1_555
H16 C19 1_555 1_555
H17 C19 1_555 1_555
C20 O3 1_555 1_555
C21 C20 1_555 1_555
H18 C21 1_555 1_555
C22 C21 1_555 1_555
H19 C22 1_555 1_555
C23 C22 1_555 1_555
H20 C23 1_555 1_555
C24 N3 1_555 1_555
H21 C24 1_555 1_555
C25 H22 1_555 1_555
H23 C25 1_555 1_555
H24 C25 1_555 1_555
O4 C25 1_555 1_555
H25 O4 1_555 1_555
N3A Cu1 1_555 1_555
Cu1A N3 1_555 1_555
O1 C8 1_555 1_555
C5 C6 1_555 1_555
C11 C12 1_555 1_555
C17 C18 1_555 1_555
C23 C24 1_555 1_555

#END
