
#######################################################################
#
#                 Cambridge Crystallographic Data Centre
#                                CCDC 
#
#######################################################################
#
# If this CIF has been generated from an entry in the Cambridge 
# Structural Database, then it will include bibliographic, chemical, 
# crystal, experimental, refinement or atomic coordinate data resulting 
# from the CCDC's data processing and validation procedures.
#
#######################################################################

data_IXAJIB
_symmetry_cell_setting           monoclinic
_symmetry_space_group_name_H-M   'C 2'
_symmetry_Int_Tables_number      5
_space_group_name_Hall           'C 2y'
loop_
_symmetry_equiv_pos_site_id
_symmetry_equiv_pos_as_xyz
1 x,y,z
2 -x,y,-z
3 1/2+x,1/2+y,z
4 1/2-x,1/2+y,-z
_cell_length_a                   19.1846(6)
_cell_length_b                   14.7042(5)
_cell_length_c                   12.3100(4)
_cell_angle_alpha                90
_cell_angle_beta                 111.921(2)
_cell_angle_gamma                90
_cell_volume                     3221.51
loop_
_atom_site_label
_atom_site_type_symbol
_atom_site_fract_x
_atom_site_fract_y
_atom_site_fract_z
C1 C -0.02954(17) 1.0640(2) 0.8498(3)
C2 C -0.01757(19) 1.1591(2) 0.8516(3)
H1 H 0.0264 1.1823 0.8432
C3 C -0.0703(2) 1.2190(3) 0.8656(4)
H2 H -0.0623 1.2827 0.8655
C4 C -0.1352(2) 1.1856(3) 0.8797(3)
H3 H -0.1711 1.2265 0.8885
C5 C -0.1463(2) 1.0914(3) 0.8805(3)
H4 H -0.1897 1.0686 0.8911
C6 C -0.09419(19) 1.0304(3) 0.8658(3)
H5 H -0.1023 0.9667 0.8666
C7 C 0.02625(18) 0.9982(2) 0.8327(3)
C8 C -0.1803(2) 1.2287(3) 0.6336(3)
C9 C -0.2092(2) 1.0600(3) 0.6223(4)
C10 C -0.0854(2) 1.1118(2) 0.6085(3)
C11 C 0.2715(2) 0.8035(2) 1.1433(3)
C12 C 0.3263(2) 0.7337(2) 1.1699(3)
H6 H 0.3302 0.6972 1.1087
C13 C 0.3750(2) 0.7181(2) 1.2858(3)
H7 H 0.4106 0.6701 1.3034
C14 C 0.3706(2) 0.7740(3) 1.3761(3)
H8 H 0.4055 0.7657 1.4540
C15 C 0.3157(3) 0.8412(3) 1.3526(4)
H9 H 0.3115 0.8766 1.4144
C16 C 0.2665(2) 0.8561(3) 1.2357(3)
H10 H 0.2294 0.9024 1.2192
C17 C 0.2252(2) 0.8256(3) 1.0176(3)
C18 C 0.3687(3) 0.9888(3) 1.2317(4)
C19 C 0.4073(2) 0.8755(3) 1.1100(4)
C20 C 0.4818(3) 0.8831(4) 1.3319(4)
C21 C 0.4022(3) 1.4040(3) 0.4214(4)
H11 H 0.4112 1.4674 0.4188
C22 C 0.4139(3) 1.3647(4) 0.5288(4)
H12 H 0.4314 1.4009 0.5977
C23 C 0.4004(5) 1.2734(4) 0.5367(5)
C24 C 0.3809(4) 1.2238(3) 0.4330(4)
H13 H 0.3749 1.1598 0.4343
C25 C 0.3701(3) 1.2672(3) 0.3282(4)
H14 H 0.3559 1.2318 0.2587
C26 C 0.3965(4) 1.2300(5) 0.6524(5)
H15 H 0.4114 1.2759 0.7159
H16 H 0.3444 1.2107 0.6380
C27 C 0.4484(4) 1.1489(5) 0.6892(6)
H17 H 0.4999 1.1669 0.6976
H18 H 0.4310 1.1005 0.6292
C28 C 0.4485(4) 1.1136(4) 0.8071(5)
H19 H 0.4895 1.0684 0.8368
H20 H 0.4624 1.1653 0.8626
C29 C 0.2786(3) 0.9627(4) 0.7486(5)
H21 H 0.2538 0.9157 0.6952
C30 C 0.3428(3) 1.0000(4) 0.7412(5)
H22 H 0.3620 0.9772 0.6857
C31 C 0.3791(3) 1.0707(3) 0.8147(4)
C32 C 0.3492(3) 1.0980(3) 0.8975(4)
H23 H 0.3724 1.1457 0.9509
C33 C 0.2860(3) 1.0553(3) 0.9012(4)
H24 H 0.2674 1.0738 0.9592
N1 N 0.37891(18) 1.3573(2) 0.3209(3)
N2 N 0.24953(18) 0.9887(3) 0.8264(3)
O1 O 0.08380(14) 1.03319(17) 0.8206(3)
O2 O 0.01438(16) 0.91502(18) 0.8305(3)
O3 O -0.2107(2) 1.2910(2) 0.5837(3)
O4 O -0.2598(3) 1.0198(3) 0.5588(4)
O5 O -0.0577(2) 1.1008(2) 0.5415(3)
O6 O 0.18644(17) 0.8994(2) 0.9998(3)
O7 O 0.22867(19) 0.7747(3) 0.9395(3)
O8 O 0.3594(3) 1.0659(3) 1.2235(5)
O9 O 0.4224(2) 0.8847(2) 1.0290(3)
O10 O 0.5432(2) 0.8949(4) 1.3893(4)
Cr1 Cr -0.12913(3) 1.12819(3) 0.71716(4)
Cr2 Cr 0.38197(3) 0.86475(4) 1.24032(5)
Zn1 Zn 0.15246(2) 0.92777(3) 0.83189(4)
N1C N 0.12109(18) 0.8573(2) 0.6791(3)
Zn1C Zn 0.34754(2) 1.42777(3) 0.16811(4)
O11 O 0.5000 1.2948(5) 1.0000
loop_
_geom_bond_atom_site_label_1
_geom_bond_atom_site_label_2
_geom_bond_site_symmetry_1
_geom_bond_site_symmetry_2
C1 C2 1_555 1_555
C2 H1 1_555 1_555
C3 C2 1_555 1_555
H2 C3 1_555 1_555
C4 C3 1_555 1_555
H3 C4 1_555 1_555
C5 C4 1_555 1_555
H4 C5 1_555 1_555
C6 C1 1_555 1_555
H5 C6 1_555 1_555
C7 C1 1_555 1_555
C8 O3 1_555 1_555
C9 O4 1_555 1_555
C10 O5 1_555 1_555
C11 C12 1_555 1_555
C12 H6 1_555 1_555
C13 C12 1_555 1_555
H7 C13 1_555 1_555
C14 C13 1_555 1_555
H8 C14 1_555 1_555
C15 C14 1_555 1_555
H9 C15 1_555 1_555
C16 C11 1_555 1_555
H10 C16 1_555 1_555
C17 C11 1_555 1_555
C18 O8 1_555 1_555
C19 O9 1_555 1_555
C20 O10 1_555 1_555
C21 H11 1_555 1_555
C22 C21 1_555 1_555
H12 C22 1_555 1_555
C23 C22 1_555 1_555
C24 C23 1_555 1_555
H13 C24 1_555 1_555
C25 C24 1_555 1_555
H14 C25 1_555 1_555
C26 C23 1_555 1_555
H15 C26 1_555 1_555
H16 C26 1_555 1_555
C27 C26 1_555 1_555
H17 C27 1_555 1_555
H18 C27 1_555 1_555
C28 C27 1_555 1_555
H19 C28 1_555 1_555
H20 C28 1_555 1_555
C29 H21 1_555 1_555
C30 C29 1_555 1_555
H22 C30 1_555 1_555
C31 C28 1_555 1_555
C32 C31 1_555 1_555
H23 C32 1_555 1_555
C33 C32 1_555 1_555
H24 C33 1_555 1_555
N1 C21 1_555 1_555
N2 C29 1_555 1_555
O1 C7 1_555 1_555
O2 C7 1_555 1_555
O6 C17 1_555 1_555
O7 C17 1_555 1_555
Cr1 C1 1_555 1_555
Cr2 C11 1_555 1_555
Zn1 N2 1_555 1_555
N1C Zn1 1_555 1_555
Zn1C N1 1_555 1_555
C2 Cr1 1_555 1_555
C3 Cr1 1_555 1_555
C4 Cr1 1_555 1_555
C5 C6 1_555 1_555
C5 Cr1 1_555 1_555
C6 Cr1 1_555 1_555
C8 Cr1 1_555 1_555
C9 Cr1 1_555 1_555
C10 Cr1 1_555 1_555
C12 Cr2 1_555 1_555
C13 Cr2 1_555 1_555
C14 Cr2 1_555 1_555
C15 C16 1_555 1_555
C15 Cr2 1_555 1_555
C16 Cr2 1_555 1_555
C18 Cr2 1_555 1_555
C19 Cr2 1_555 1_555
C20 Cr2 1_555 1_555
C25 N1 1_555 1_555
C30 C31 1_555 1_555
C33 N2 1_555 1_555
O1 Zn1 1_555 1_555
O6 Zn1 1_555 1_555

#END
