
#######################################################################
#
#                 Cambridge Crystallographic Data Centre
#                                CCDC 
#
#######################################################################
#
# If this CIF has been generated from an entry in the Cambridge 
# Structural Database, then it will include bibliographic, chemical, 
# crystal, experimental, refinement or atomic coordinate data resulting 
# from the CCDC's data processing and validation procedures.
#
#######################################################################

data_IXAJEX
_symmetry_cell_setting           orthorhombic
_symmetry_space_group_name_H-M   'P n a 21'
_symmetry_Int_Tables_number      33
_space_group_name_Hall           'P 2c -2n'
loop_
_symmetry_equiv_pos_site_id
_symmetry_equiv_pos_as_xyz
1 x,y,z
2 -x,-y,1/2+z
3 1/2-x,1/2+y,1/2+z
4 1/2+x,1/2-y,z
_cell_length_a                   21.705(4)
_cell_length_b                   6.2555(13)
_cell_length_c                   29.712(6)
_cell_angle_alpha                90
_cell_angle_beta                 90
_cell_angle_gamma                90
_cell_volume                     4034.17
loop_
_atom_site_label
_atom_site_type_symbol
_atom_site_fract_x
_atom_site_fract_y
_atom_site_fract_z
C1 C -0.1247(3) 2.1170(11) 0.2287(2)
C2 C -0.0955(3) 2.3191(10) 0.2247(2)
H1 H -0.0779 2.3601 0.1967
C3 C -0.0923(3) 2.4572(11) 0.2609(2)
H2 H -0.0728 2.5922 0.2576
C4 C -0.1177(4) 2.3993(12) 0.3030(2)
H3 H -0.1151 2.4938 0.3279
C5 C -0.1471(3) 2.1988(12) 0.3074(2)
H4 H -0.1648 2.1589 0.3354
C6 C -0.1502(3) 2.0570(10) 0.27030(17)
H5 H -0.1695 1.9215 0.2735
C7 C -0.1273(2) 1.9650(9) 0.1894(2)
C8 C -0.0417(3) 1.9218(11) 0.3207(2)
C9 C 0.0069(3) 2.0260(13) 0.2451(2)
C10 C 0.0117(4) 2.2777(12) 0.3112(4)
C11 C -0.1221(3) 2.0910(11) -0.0274(2)
C12 C -0.1491(4) 2.2938(12) -0.0233(2)
H6 H -0.1639 2.3411 0.0051
C13 C -0.1543(4) 2.4285(11) -0.0616(2)
H7 H -0.1732 2.5650 -0.0592
C14 C -0.1312(4) 2.3575(15) -0.1029(3)
H8 H -0.1335 2.4487 -0.1284
C15 C -0.1051(4) 2.1575(16) -0.1072(2)
H9 H -0.0905 2.1113 -0.1358
C16 C -0.1000(3) 2.0210(12) -0.06959(19)
H10 H -0.0818 1.8836 -0.0726
C17 C -0.1167(3) 1.9441(12) 0.0126(2)
C18 C -0.2553(4) 2.0300(18) -0.0395(3)
C19 C -0.2609(5) 2.2481(12) -0.1101(3)
C20 C -0.2121(4) 1.8957(12) -0.1140(3)
C21 C -0.0026(3) 1.6841(11) 0.1365(2)
H11 H -0.0039 1.8133 0.1532
C22 C 0.0465(3) 1.5481(10) 0.14236(19)
H12 H 0.0786 1.5849 0.1627
C23 C 0.0492(3) 1.3571(10) 0.11865(18)
C24 C 0.0003(3) 1.3128(10) 0.08999(19)
H13 H -0.0001 1.1832 0.0733
C25 C -0.0471(2) 1.4529(9) 0.08559(19)
H14 H -0.0803 1.4176 0.0661
C26 C 0.1042(3) 1.2126(12) 0.1218(3)
H15 H 0.0910 1.0618 0.1185
H16 H 0.1240 1.2292 0.1516
C27 C 0.1502(3) 1.2698(10) 0.0845(3)
H17 H 0.1302 1.2526 0.0547
H18 H 0.1629 1.4210 0.0877
C28 C 0.3039(3) 1.0396(9) 0.11869(19)
H19 H 0.3377 1.0769 0.1374
C29 C 0.2553(3) 1.1802(10) 0.11507(18)
H20 H 0.2556 1.3109 0.1314
C30 C 0.2056(3) 1.1286(9) 0.08715(18)
C31 C 0.2079(3) 0.9337(11) 0.06487(19)
H21 H 0.1749 0.8915 0.0458
C32 C 0.2582(3) 0.8015(11) 0.0705(2)
H22 H 0.2591 0.6689 0.0550
N1 N -0.04869(18) 1.6407(7) 0.10792(16)
N2 N 0.30531(18) 0.8525(7) 0.09688(17)
O1 O -0.11232(19) 2.0465(7) 0.15162(12)
O2 O -0.1425(3) 1.7788(7) 0.19590(18)
O3 O -0.0355(3) 1.7794(8) 0.3463(2)
O4 O 0.0452(3) 1.9595(12) 0.22301(19)
O5 O 0.0525(3) 2.3503(11) 0.3309(2)
O6 O -0.12806(17) 2.0374(7) 0.05075(13)
O7 O -0.1021(3) 1.7586(6) 0.0086(2)
O8 O -0.2949(3) 1.9709(15) -0.0144(2)
O9 O -0.3035(3) 2.3131(11) -0.1296(2)
O10 O -0.2211(4) 1.7489(10) -0.1381(3)
Cr1 Cr -0.05206(4) 2.14502(15) 0.28212(2)
Cr2 Cr -0.19778(5) 2.12186(16) -0.07826(3)
Zn1 Zn -0.12081(3) 1.84332(8) 0.10180(2)
N2C N -0.19469(18) 1.6475(7) 0.09688(17)
Zn1C Zn 0.37919(3) 0.65668(8) 0.10180(2)
C33 C 0.0901(7) 1.837(2) -0.0679(4)
H23 H 0.0953 1.7598 -0.0963
H24 H 0.1307 1.8720 -0.0554
H25 H 0.0672 1.9697 -0.0734
C34 C 0.0409(7) 1.4881(18) -0.0490(4)
H26 H 0.0539 1.4661 -0.0803
H27 H -0.0036 1.4653 -0.0466
H28 H 0.0625 1.3865 -0.0295
C35 C 0.0451(4) 1.7801(14) 0.0041(3)
H29 H 0.0232 1.6924 0.0247
N3 N 0.0555(3) 1.7017(11) -0.0355(2)
O11 O 0.0608(3) 1.9561(10) 0.0173(2)
C36 C 0.2142(5) 1.9973(15) 0.2505(4)
H30 H 0.2021 2.0279 0.2816
H31 H 0.1924 2.0945 0.2301
H32 H 0.2588 2.0176 0.2472
C37 C 0.1696(6) 1.6572(18) 0.2731(3)
H33 H 0.1648 1.7432 0.3005
H34 H 0.1949 1.5313 0.2798
H35 H 0.1290 1.6113 0.2624
C38 C 0.2098(4) 1.7005(15) 0.1993(3)
H36 H 0.2296 1.7934 0.1785
N4 N 0.1986(3) 1.7804(9) 0.2396(2)
O12 O 0.1981(3) 1.5258(10) 0.1858(2)
loop_
_geom_bond_atom_site_label_1
_geom_bond_atom_site_label_2
_geom_bond_site_symmetry_1
_geom_bond_site_symmetry_2
C1 C2 1_555 1_555
C2 H1 1_555 1_555
C3 C2 1_555 1_555
H2 C3 1_555 1_555
C4 C3 1_555 1_555
H3 C4 1_555 1_555
C5 C4 1_555 1_555
H4 C5 1_555 1_555
C6 C1 1_555 1_555
H5 C6 1_555 1_555
C7 C1 1_555 1_555
C8 O3 1_555 1_555
C9 O4 1_555 1_555
C10 O5 1_555 1_555
C11 C12 1_555 1_555
C12 H6 1_555 1_555
C13 C12 1_555 1_555
H7 C13 1_555 1_555
C14 C13 1_555 1_555
H8 C14 1_555 1_555
C15 C14 1_555 1_555
H9 C15 1_555 1_555
C16 C11 1_555 1_555
H10 C16 1_555 1_555
C17 C11 1_555 1_555
C18 O8 1_555 1_555
C19 O9 1_555 1_555
C20 O10 1_555 1_555
C21 H11 1_555 1_555
C22 C21 1_555 1_555
H12 C22 1_555 1_555
C23 C22 1_555 1_555
C24 C23 1_555 1_555
H13 C24 1_555 1_555
C25 C24 1_555 1_555
H14 C25 1_555 1_555
C26 C23 1_555 1_555
H15 C26 1_555 1_555
H16 C26 1_555 1_555
C27 C26 1_555 1_555
H17 C27 1_555 1_555
H18 C27 1_555 1_555
C28 H19 1_555 1_555
C29 C28 1_555 1_555
H20 C29 1_555 1_555
C30 C27 1_555 1_555
C31 C30 1_555 1_555
H21 C31 1_555 1_555
C32 C31 1_555 1_555
H22 C32 1_555 1_555
C33 H23 1_555 1_555
H24 C33 1_555 1_555
H25 C33 1_555 1_555
C34 H26 1_555 1_555
H27 C34 1_555 1_555
H28 C34 1_555 1_555
C35 H29 1_555 1_555
C36 H30 1_555 1_555
H31 C36 1_555 1_555
H32 C36 1_555 1_555
C37 H33 1_555 1_555
H34 C37 1_555 1_555
H35 C37 1_555 1_555
C38 H36 1_555 1_555
N1 C21 1_555 1_555
N2 C28 1_555 1_555
N3 C33 1_555 1_555
N4 C36 1_555 1_555
O1 C7 1_555 1_555
O2 C7 1_555 1_555
O6 C17 1_555 1_555
O7 C17 1_555 1_555
O11 C35 1_555 1_555
O12 C38 1_555 1_555
Cr1 C1 1_555 1_555
Cr2 C11 1_555 1_555
Zn1 N1 1_555 1_555
N2C Zn1 1_555 1_555
Zn1C N2 1_555 1_555
C2 Cr1 1_555 1_555
C3 Cr1 1_555 1_555
C4 Cr1 1_555 1_555
C5 C6 1_555 1_555
C5 Cr1 1_555 1_555
C6 Cr1 1_555 1_555
C8 Cr1 1_555 1_555
C9 Cr1 1_555 1_555
C10 Cr1 1_555 1_555
C12 Cr2 1_555 1_555
C13 Cr2 1_555 1_555
C14 Cr2 1_555 1_555
C15 C16 1_555 1_555
C15 Cr2 1_555 1_555
C16 Cr2 1_555 1_555
C18 Cr2 1_555 1_555
C19 Cr2 1_555 1_555
C20 Cr2 1_555 1_555
C25 N1 1_555 1_555
C29 C30 1_555 1_555
C32 N2 1_555 1_555
C34 N3 1_555 1_555
C35 N3 1_555 1_555
C37 N4 1_555 1_555
C38 N4 1_555 1_555
O1 Zn1 1_555 1_555
O6 Zn1 1_555 1_555

#END
