
#######################################################################
#
#                 Cambridge Crystallographic Data Centre
#                                CCDC 
#
#######################################################################
#
# If this CIF has been generated from an entry in the Cambridge 
# Structural Database, then it will include bibliographic, chemical, 
# crystal, experimental, refinement or atomic coordinate data resulting 
# from the CCDC's data processing and validation procedures.
#
#######################################################################

data_IXEDOE
_symmetry_cell_setting           monoclinic
_symmetry_space_group_name_H-M   'C c'
_symmetry_Int_Tables_number      9
_space_group_name_Hall           'C -2yc'
loop_
_symmetry_equiv_pos_site_id
_symmetry_equiv_pos_as_xyz
1 x,y,z
2 x,-y,1/2+z
3 1/2+x,1/2+y,z
4 1/2+x,1/2-y,1/2+z
_cell_length_a                   13.520(2)
_cell_length_b                   22.575(3)
_cell_length_c                   23.688(3)
_cell_angle_alpha                90
_cell_angle_beta                 103.924(2)
_cell_angle_gamma                90
_cell_volume                     7017.46
loop_
_atom_site_label
_atom_site_type_symbol
_atom_site_fract_x
_atom_site_fract_y
_atom_site_fract_z
La1 La 0.28403(2) 0.152883(14) 0.245530(18)
O1 O 0.3111(4) 0.0437(2) 0.2629(3)
O2 O 0.1910(4) 0.1199(2) 0.3174(2)
O3 O 0.4597(4) 0.1506(2) 0.3034(2)
O4 O 0.1169(3) 0.2065(2) 0.2287(2)
O5 O 0.8071(4) 0.2538(2) 0.6946(2)
O6 O 0.1782(4) -0.1249(2) 0.6493(2)
O7 O -0.5988(4) 0.1272(2) 0.1814(2)
O8 O 0.8195(4) -0.2656(2) 0.3189(2)
N1 N 0.3829(5) 0.0021(2) 0.2715(3)
C1 C 0.4803(6) 0.0167(3) 0.2805(3)
H1 H 0.4986 0.0574 0.2806
C2 C 0.5554(6) -0.0257(3) 0.2898(3)
H2 H 0.6247 -0.0143 0.2949
C3 C 0.5302(6) -0.0856(3) 0.2916(3)
C4 C 0.4277(6) -0.0982(3) 0.2839(3)
H3 H 0.4072 -0.1383 0.2858
C5 C 0.3548(6) -0.0546(3) 0.2736(3)
H4 H 0.2848 -0.0646 0.2680
N2 N 0.1948(5) 0.0843(2) 0.3617(3)
C6 C 0.1626(7) 0.0279(3) 0.3536(3)
H5 H 0.1393 0.0129 0.3152
C7 C 0.1632(6) -0.0081(3) 0.4003(3)
H6 H 0.1413 -0.0480 0.3940
C8 C 0.1950(6) 0.0129(3) 0.4564(3)
C9 C 0.2284(6) 0.0713(3) 0.4636(3)
H7 H 0.2514 0.0873 0.5016
C10 C 0.2281(6) 0.1057(3) 0.4162(3)
H8 H 0.2517 0.1454 0.4217
N3 N 0.5057(5) 0.1666(2) 0.3568(3)
C11 C 0.5752(7) 0.2098(3) 0.3654(3)
H9 H 0.5879 0.2304 0.3328
C12 C 0.6286(7) 0.2251(3) 0.4205(3)
H10 H 0.6806 0.2543 0.4257
C13 C 0.6068(6) 0.1981(3) 0.4679(3)
C14 C 0.5320(6) 0.1554(4) 0.4577(3)
H11 H 0.5138 0.1369 0.4898
C15 C 0.4835(6) 0.1393(3) 0.4028(4)
H12 H 0.4338 0.1087 0.3968
N4 N 0.0195(4) 0.1962(2) 0.2237(3)
C16 C -0.0132(6) 0.1403(3) 0.2314(4)
H13 H 0.0342 0.1087 0.2406
C17 C -0.1145(6) 0.1303(3) 0.2257(4)
H14 H -0.1367 0.0911 0.2307
C18 C -0.1861(6) 0.1751(3) 0.2127(3)
C19 C -0.1491(6) 0.2318(3) 0.2061(4)
H15 H -0.1950 0.2642 0.1970
C20 C -0.0467(5) 0.2407(3) 0.2127(4)
H16 H -0.0224 0.2798 0.2094
N5 N 0.7602(5) 0.2419(2) 0.6400(2)
C21 C 0.6607(6) 0.2255(4) 0.6282(3)
H17 H 0.6260 0.2238 0.6586
C22 C 0.6102(6) 0.2114(4) 0.5725(4)
H18 H 0.5405 0.2000 0.5644
C23 C 0.6601(6) 0.2136(3) 0.5278(3)
C24 C 0.7619(7) 0.2312(3) 0.5415(3)
H19 H 0.7979 0.2334 0.5117
C25 C 0.8103(6) 0.2453(4) 0.5974(3)
H20 H 0.8795 0.2575 0.6063
N6 N 0.1866(4) -0.0932(2) 0.6034(3)
C26 C 0.1505(7) -0.1146(4) 0.5500(3)
H21 H 0.1233 -0.1536 0.5455
C27 C 0.1513(7) -0.0819(3) 0.5016(3)
H22 H 0.1224 -0.0974 0.4640
C28 C 0.1954(6) -0.0249(3) 0.5078(3)
C29 C 0.2358(6) -0.0060(3) 0.5629(3)
H23 H 0.2676 0.0318 0.5688
C30 C 0.2320(6) -0.0401(3) 0.6105(3)
H24 H 0.2617 -0.0260 0.6486
N7 N -0.5006(4) 0.1385(2) 0.1889(3)
C31 C -0.4384(5) 0.0958(3) 0.1798(3)
H25 H -0.4650 0.0576 0.1680
C32 C -0.3364(6) 0.1064(3) 0.1871(3)
H26 H -0.2927 0.0756 0.1805
C33 C -0.2959(5) 0.1629(3) 0.2044(3)
C34 C -0.3643(5) 0.2062(3) 0.2117(3)
H27 H -0.3403 0.2452 0.2221
C35 C -0.4651(5) 0.1942(3) 0.2042(3)
H28 H -0.5107 0.2245 0.2096
N8 N 0.7526(4) -0.2221(3) 0.3148(2)
C36 C 0.7697(6) -0.1701(3) 0.2888(3)
H29 H 0.8301 -0.1649 0.2756
C37 C 0.6981(5) -0.1254(3) 0.2821(3)
H30 H 0.7095 -0.0894 0.2640
C38 C 0.6102(6) -0.1323(3) 0.3012(3)
C39 C 0.5970(6) -0.1853(3) 0.3287(3)
H31 H 0.5377 -0.1914 0.3429
C40 C 0.6698(6) -0.2284(3) 0.3351(3)
H32 H 0.6608 -0.2640 0.3547
O5C O 0.3071(4) 0.2462(2) 0.1946(2)
O6A O 0.1782(4) 0.1249(2) 0.1493(2)
O7_2 O 0.4012(4) 0.1272(2) 0.1814(2)
O8B O 0.3195(4) 0.2344(2) 0.3189(2)
La1C La 0.78403(2) 0.347117(14) 0.745530(18)
La1A La 0.28403(2) -0.152883(14) 0.745530(18)
La1_2 La -0.71597(2) 0.152883(14) 0.245530(18)
La1B La 0.78403(2) -0.347117(14) 0.245530(18)
Cl1 Cl 0.60663(17) 0.35291(9) 0.30060(10)
O9 O 0.5240(5) 0.3254(3) 0.2601(3)
O10 O 0.6220(5) 0.4118(3) 0.2816(3)
O11 O 0.5878(8) 0.3557(3) 0.3579(3)
O12 O 0.6966(6) 0.3178(3) 0.3038(4)
Cl2 Cl 0.44028(16) 0.09862(9) 0.63110(9)
O13 O 0.5255(5) 0.1319(3) 0.6617(3)
O14 O 0.4457(7) 0.0393(3) 0.6501(3)
O15 O 0.3495(6) 0.1234(4) 0.6435(4)
O16 O 0.4325(6) 0.1019(3) 0.5703(3)
Cl3 Cl 0.0153(8) 0.2026(3) 0.4448(4)
O17 O 0.0025(12) 0.1714(7) 0.3889(6)
O18 O 0.0328(12) 0.2650(6) 0.4366(6)
O19 O 0.1103(14) 0.1800(8) 0.4853(8)
O20 O -0.0652(13) 0.1926(7) 0.4714(8)
C41 C 0.8934(9) 0.0410(6) 0.4149(5)
H33 H 0.9424 0.0615 0.3959
Cl5 Cl 0.8602(4) -0.02796(18) 0.3811(2)
Cl6 Cl 0.9533(2) 0.02960(17) 0.49066(14)
C42 C 0.8041(9) 0.0791(5) 0.4113(5)
H34 H 0.8286 0.1168 0.4321
Cl7 Cl 0.7124(3) 0.04896(19) 0.4439(2)
Cl8 Cl 0.7492(3) 0.09724(14) 0.33768(14)
C43 C -0.0463(8) 0.3784(5) 0.4848(4)
Cl9 Cl -0.1505(2) 0.37072(14) 0.42476(12)
Cl10 Cl -0.0857(2) 0.36758(12) 0.54968(11)
C44 C 0.0347(12) 0.4239(7) 0.4923(7)
Cl11 Cl 0.1001(4) 0.4164(2) 0.43764(18)
Cl12 Cl -0.0300(5) 0.4911(2) 0.4880(3)
C46 C 0.9346(10) 0.0509(5) 0.6756(6)
H35 H 0.9579 0.0930 0.6813
Cl15 Cl 1.0391(3) 0.00622(15) 0.6683(2)
Cl16 Cl 0.8928(2) 0.02765(11) 0.73819(14)
C47 C 0.8512(11) 0.0471(5) 0.6213(6)
H36 H 0.8779 0.0642 0.5890
Cl17 Cl 0.7477(3) 0.09044(14) 0.62803(17)
Cl18 Cl 0.8116(3) -0.02570(12) 0.60141(15)
C48 C 0.2651(11) 0.2925(5) 0.5116(6)
Cl19 Cl 0.1967(8) 0.3174(5) 0.5650(5)
Cl20 Cl 0.3188(3) 0.22108(14) 0.53260(18)
C49 C 0.3478(11) 0.3372(6) 0.5088(6)
Cl21 Cl 0.4380(3) 0.3437(2) 0.57662(19)
Cl22 Cl 0.4072(3) 0.31636(19) 0.45284(16)
O25 O -0.0004(8) 0.1552(5) 0.5930(5)
H37 H -0.0133 0.1522 0.5566
C52 C 0.1088(11) 0.1515(7) 0.6167(8)
H38 H 0.1368 0.1194 0.5974
H39 H 0.1229 0.1436 0.6585
H40 H 0.1406 0.1891 0.6101
Cl4? Cl -0.0202(6) 0.2060(3) 0.4192(4)
O21? O 0.0164(15) 0.1492(7) 0.4104(9)
O22? O 0.0627(12) 0.2446(7) 0.4427(7)
O23? O -0.0670(17) 0.2293(10) 0.3607(9)
O24? O -0.0949(14) 0.2073(8) 0.4484(8)
C45? C -0.036(2) 0.4481(9) 0.4876(12)
Cl13? Cl 0.0724(5) 0.4722(3) 0.5384(3)
Cl14? Cl -0.0377(6) 0.4847(3) 0.4192(3)
C50? C 0.280(2) 0.3026(8) 0.4838(14)
Cl23? Cl 0.2686(10) 0.3791(3) 0.4671(4)
Cl24? Cl 0.3672(8) 0.2609(5) 0.4568(4)
C51? C 0.2990(16) 0.2879(17) 0.5450(13)
Cl25? Cl 0.4153(10) 0.3186(7) 0.5828(6)
Cl26? Cl 0.1924(13) 0.3190(6) 0.5646(7)
loop_
_geom_bond_atom_site_label_1
_geom_bond_atom_site_label_2
_geom_bond_site_symmetry_1
_geom_bond_site_symmetry_2
La1 O1 1_555 1_555
O1 N1 1_555 1_555
O2 La1 1_555 1_555
O3 La1 1_555 1_555
O4 La1 1_555 1_555
O5 N5 1_555 1_555
O6 N6 1_555 1_555
O7 N7 1_555 1_555
O8 N8 1_555 1_555
N1 C1 1_555 1_555
C1 H1 1_555 1_555
C2 C1 1_555 1_555
H2 C2 1_555 1_555
C3 C2 1_555 1_555
C4 C3 1_555 1_555
H3 C4 1_555 1_555
C5 N1 1_555 1_555
H4 C5 1_555 1_555
N2 O2 1_555 1_555
C6 N2 1_555 1_555
H5 C6 1_555 1_555
C7 C6 1_555 1_555
H6 C7 1_555 1_555
C8 C7 1_555 1_555
C9 C8 1_555 1_555
H7 C9 1_555 1_555
C10 N2 1_555 1_555
H8 C10 1_555 1_555
N3 O3 1_555 1_555
C11 N3 1_555 1_555
H9 C11 1_555 1_555
C12 C11 1_555 1_555
H10 C12 1_555 1_555
C13 C12 1_555 1_555
C14 C13 1_555 1_555
H11 C14 1_555 1_555
C15 N3 1_555 1_555
H12 C15 1_555 1_555
N4 O4 1_555 1_555
C16 N4 1_555 1_555
H13 C16 1_555 1_555
C17 C16 1_555 1_555
H14 C17 1_555 1_555
C18 C17 1_555 1_555
C19 C18 1_555 1_555
H15 C19 1_555 1_555
C20 N4 1_555 1_555
H16 C20 1_555 1_555
N5 C21 1_555 1_555
C21 H17 1_555 1_555
C22 C21 1_555 1_555
H18 C22 1_555 1_555
C23 C13 1_555 1_555
C24 C23 1_555 1_555
H19 C24 1_555 1_555
C25 N5 1_555 1_555
H20 C25 1_555 1_555
N6 C26 1_555 1_555
C26 H21 1_555 1_555
C27 C26 1_555 1_555
H22 C27 1_555 1_555
C28 C8 1_555 1_555
C29 C28 1_555 1_555
H23 C29 1_555 1_555
C30 N6 1_555 1_555
H24 C30 1_555 1_555
N7 C31 1_555 1_555
C31 H25 1_555 1_555
C32 C31 1_555 1_555
H26 C32 1_555 1_555
C33 C18 1_555 1_555
C34 C33 1_555 1_555
H27 C34 1_555 1_555
C35 N7 1_555 1_555
H28 C35 1_555 1_555
N8 C36 1_555 1_555
C36 H29 1_555 1_555
C37 C36 1_555 1_555
H30 C37 1_555 1_555
C38 C3 1_555 1_555
C39 C38 1_555 1_555
H31 C39 1_555 1_555
C40 N8 1_555 1_555
H32 C40 1_555 1_555
Cl1 O9 1_555 1_555
O10 Cl1 1_555 1_555
O11 Cl1 1_555 1_555
O12 Cl1 1_555 1_555
Cl2 O13 1_555 1_555
O14 Cl2 1_555 1_555
O15 Cl2 1_555 1_555
O16 Cl2 1_555 1_555
Cl3 O17 1_555 1_555
O18 Cl3 1_555 1_555
O19 Cl3 1_555 1_555
O20 Cl3 1_555 1_555
C41 H33 1_555 1_555
Cl5 C41 1_555 1_555
Cl6 C41 1_555 1_555
C42 C41 1_555 1_555
H34 C42 1_555 1_555
Cl7 C42 1_555 1_555
Cl8 C42 1_555 1_555
C43 Cl9 1_555 1_555
Cl10 C43 1_555 1_555
C44 C43 1_555 1_555
Cl11 C44 1_555 1_555
Cl12 C44 1_555 1_555
C46 H35 1_555 1_555
Cl15 C46 1_555 1_555
Cl16 C46 1_555 1_555
C47 C46 1_555 1_555
H36 C47 1_555 1_555
Cl17 C47 1_555 1_555
Cl18 C47 1_555 1_555
C48 Cl19 1_555 1_555
Cl20 C48 1_555 1_555
C49 C48 1_555 1_555
Cl21 C49 1_555 1_555
Cl22 C49 1_555 1_555
O25 H37 1_555 1_555
C52 O25 1_555 1_555
H38 C52 1_555 1_555
H39 C52 1_555 1_555
H40 C52 1_555 1_555
O5C La1 1_555 1_555
O6A La1 1_555 1_555
O7_2 La1 1_555 1_555
O8B La1 1_555 1_555
La1C O5 1_555 1_555
La1A O6 1_555 1_555
La1_2 O7 1_555 1_555
La1B O8 1_555 1_555
C4 C5 1_555 1_555
C9 C10 1_555 1_555
C14 C15 1_555 1_555
C19 C20 1_555 1_555
C22 C23 1_555 1_555
C24 C25 1_555 1_555
C27 C28 1_555 1_555
C29 C30 1_555 1_555
C32 C33 1_555 1_555
C34 C35 1_555 1_555
C37 C38 1_555 1_555
C39 C40 1_555 1_555

#END
