
#######################################################################
#
#                 Cambridge Crystallographic Data Centre
#                                CCDC 
#
#######################################################################
#
# If this CIF has been generated from an entry in the Cambridge 
# Structural Database, then it will include bibliographic, chemical, 
# crystal, experimental, refinement or atomic coordinate data resulting 
# from the CCDC's data processing and validation procedures.
#
#######################################################################

data_IXELIH
_symmetry_cell_setting           triclinic
_symmetry_space_group_name_H-M   'P -1'
_symmetry_Int_Tables_number      2
_space_group_name_Hall           '-P 1'
loop_
_symmetry_equiv_pos_site_id
_symmetry_equiv_pos_as_xyz
1 x,y,z
2 -x,-y,-z
_cell_length_a                   10.449(5)
_cell_length_b                   15.150(3)
_cell_length_c                   26.857(2)
_cell_angle_alpha                74.102(2)
_cell_angle_beta                 87.250(5)
_cell_angle_gamma                74.714(4)
_cell_volume                     3942.9
loop_
_atom_site_label
_atom_site_type_symbol
_atom_site_fract_x
_atom_site_fract_y
_atom_site_fract_z
Cd1 Cd 0.0000 0.0000 0.5000
Cd2 Cd -1.00860(4) -0.66501(3) 0.174727(15)
O1 O -0.1551(4) -0.0587(3) 0.55477(16)
O2 O -0.8382(4) -0.6259(3) 0.11958(16)
O3 O -1.1790(4) -0.6943(3) 0.23227(15)
C1 C -0.0209(6) -0.5105(4) 0.5687(2)
H1 H -0.0988 -0.5214 0.5593
N1 N 0.1143(5) -0.1613(3) 0.51954(18)
N2 N 0.1492(5) -0.3174(3) 0.54165(19)
N3 N 0.0415(5) -0.6683(4) 0.6345(2)
N4 N -0.0527(5) -0.6903(3) 0.6165(2)
N5 N -0.1027(5) -0.0155(4) 0.43015(19)
N6 N -0.2093(5) -0.0642(4) 0.37885(19)
N7 N -0.5194(6) -0.2621(4) 0.3092(2)
N8 N -0.5434(5) -0.3288(4) 0.3433(2)
N9 N -0.8534(5) -0.5370(3) 0.28341(19)
N10 N -0.9340(5) -0.6110(3) 0.23802(19)
N11 N -1.1241(5) -0.5095(3) 0.13262(18)
N12 N -1.1593(5) -0.3562(3) 0.09283(19)
N13 N -1.0463(5) -0.0071(4) -0.0096(2)
N14 N -0.1080(5) -1.1813(3) 0.78212(18)
N15 N -0.1537(5) -1.0325(3) 0.73467(18)
N16 N -1.0889(5) -0.7106(3) 0.10998(18)
N17 N -1.1801(5) -0.7792(3) 0.06431(17)
N18 N -1.4758(5) -1.0111(4) 0.02226(18)
N19 N -1.3802(5) -0.6814(4) 0.2701(2)
N20 N -0.6652(5) -0.6076(4) 0.0683(2)
N21 N -0.3353(5) -0.0797(4) 0.6009(2)
C2 C 0.0575(6) -0.2324(4) 0.5349(2)
H2 H -0.0328 -0.2252 0.5402
C3 C 0.2478(6) -0.2034(5) 0.5164(3)
H3 H 0.3127 -0.1706 0.5067
C4 C 0.2706(6) -0.2994(4) 0.5296(3)
H4 H 0.3516 -0.3438 0.5303
C5 C 0.1236(6) -0.4093(4) 0.5614(2)
C6 C 0.0078(6) -0.4241(4) 0.5457(2)
H5 H -0.0489 -0.3774 0.5205
C7 C 0.0647(6) -0.5803(4) 0.6052(3)
C8 C 0.1814(7) -0.5649(5) 0.6186(3)
H6 H 0.2400 -0.6126 0.6427
C9 C 0.2120(6) -0.4794(4) 0.5965(3)
H7 H 0.2912 -0.4696 0.6053
C10 C -0.0782(6) -0.7761(4) 0.6482(2)
C11 C -0.1585(7) -0.8162(4) 0.6275(3)
H8 H -0.1952 -0.7868 0.5943
C12 C -0.1850(6) -0.9004(4) 0.6557(2)
H9 H -0.2372 -0.9286 0.6412
C13 C -0.1334(6) -0.9425(4) 0.7057(2)
C14 C -0.0548(6) -0.9013(4) 0.7271(3)
H10 H -0.0207 -0.9299 0.7607
C15 C -0.0263(6) -0.8178(4) 0.6989(2)
H11 H 0.0264 -0.7899 0.7133
C16 C -0.2771(6) -0.0390(4) 0.5600(2)
H12 H -0.3302 0.0071 0.5334
C17 C -0.2565(8) -0.1591(5) 0.6410(3)
H13 H -0.3134 -0.1806 0.6681
H14 H -0.1900 -0.1386 0.6549
H15 H -0.2145 -0.2101 0.6262
C18 C -0.4785(7) -0.0549(6) 0.6059(3)
H16 H -0.5011 -0.0921 0.6386
H17 H -0.5192 -0.0677 0.5783
H18 H -0.5098 0.0114 0.6042
C19 C -0.1599(6) -0.0812(4) 0.4274(2)
H19 H -0.1659 -0.1326 0.4550
C20 C -0.1132(6) 0.0467(4) 0.3811(2)
H20 H -0.0800 0.1001 0.3714
C21 C -0.1792(6) 0.0172(5) 0.3497(2)
H21 H -0.2005 0.0465 0.3149
C22 C -0.2827(6) -0.1189(5) 0.3618(2)
C23 C -0.2970(6) -0.1089(4) 0.3093(3)
H22 H -0.2530 -0.0713 0.2851
C24 C -0.3768(6) -0.1553(4) 0.2934(3)
H23 H -0.3899 -0.1468 0.2583
C25 C -0.4384(6) -0.2149(4) 0.3295(3)
C26 C -0.4222(7) -0.2261(5) 0.3820(3)
H24 H -0.4622 -0.2665 0.4063
C27 C -0.3451(7) -0.1758(5) 0.3975(3)
H25 H -0.3358 -0.1809 0.4325
C28 C -0.6259(6) -0.3771(5) 0.3244(3)
C29 C -0.6862(6) -0.3458(5) 0.2747(3)
H26 H -0.6741 -0.2911 0.2510
C30 C -0.7637(6) -0.3979(5) 0.2616(3)
H27 H -0.8061 -0.3778 0.2292
C31 C -0.7775(6) -0.4801(4) 0.2971(2)
C32 C -0.7190(6) -0.5105(5) 0.3460(2)
H28 H -0.7301 -0.5657 0.3695
C33 C -0.6437(7) -0.4576(5) 0.3594(3)
H29 H -0.6049 -0.4766 0.3924
C34 C -0.9735(6) -0.6362(4) 0.2880(2)
H30 H -1.0255 -0.6785 0.3004
C35 C -0.9260(6) -0.5907(4) 0.3164(2)
H31 H -0.9396 -0.5948 0.3514
C36 C -1.3014(6) -0.6776(4) 0.2300(2)
H32 H -1.3413 -0.6610 0.1974
C37 C -1.3276(8) -0.7046(7) 0.3227(3)
H33 H -1.3993 -0.7036 0.3465
H34 H -1.2817 -0.6587 0.3252
H35 H -1.2671 -0.7668 0.3312
C38 C -1.5233(6) -0.6620(5) 0.2644(3)
H36 H -1.5625 -0.6681 0.2978
H37 H -1.5440 -0.7065 0.2486
H38 H -1.5581 -0.5985 0.2429
C39 C -0.7184(6) -0.6462(4) 0.1108(2)
H39 H -0.6621 -0.6924 0.1363
C40 C -0.7455(7) -0.5324(5) 0.0270(3)
H40 H -0.6898 -0.5133 -0.0011
H41 H -0.7875 -0.4790 0.0400
H42 H -0.8121 -0.5555 0.0151
C41 C -0.5207(7) -0.6327(6) 0.0609(3)
H43 H -0.5013 -0.5971 0.0273
H44 H -0.4898 -0.6994 0.0637
H45 H -0.4769 -0.6178 0.0870
C42 C -0.0576(6) -1.1102(4) 0.7588(2)
H46 H 0.0323 -1.1128 0.7589
C43 C -0.2433(6) -1.1474(4) 0.7723(2)
H47 H -0.3053 -1.1823 0.7837
C44 C -0.2715(6) -1.0559(4) 0.7436(3)
H48 H -0.3552 -1.0165 0.7322
C45 C -1.0681(6) -0.4377(4) 0.1166(2)
H49 H -0.9786 -0.4425 0.1211
C46 C -1.2579(6) -0.4716(4) 0.1185(2)
H50 H -1.3220 -0.5055 0.1249
C47 C -1.2806(6) -0.3777(4) 0.0941(2)
H51 H -1.3614 -0.3359 0.0808
C48 C -1.1318(6) -0.2666(4) 0.0699(3)
C49 C -1.1981(7) -0.2082(5) 0.0244(3)
H52 H -1.2625 -0.2260 0.0096
C50 C -1.1670(7) -0.1223(5) 0.0010(3)
H53 H -1.2137 -0.0814 -0.0287
C51 C -1.0686(7) -0.0981(5) 0.0214(3)
C52 C -1.0027(7) -0.1557(5) 0.0670(3)
H54 H -0.9366 -0.1383 0.0811
C53 C -1.0360(7) -0.2403(5) 0.0918(3)
H55 H -0.9939 -0.2786 0.1230
C54 C -1.1583(5) -0.7714(4) 0.1122(2)
H56 H -1.1889 -0.8051 0.1426
C55 C -1.0650(6) -0.6761(4) 0.0588(2)
H57 H -1.0174 -0.6312 0.0457
C56 C -1.1209(6) -0.7175(4) 0.0300(2)
H58 H -1.1196 -0.7063 -0.0058
C57 C -1.2528(5) -0.8384(4) 0.0523(2)
C58 C -1.3156(6) -0.8105(4) 0.0041(2)
H59 H -1.3091 -0.7547 -0.0200
C59 C -1.3883(6) -0.8671(4) -0.0076(2)
H60 H -1.4289 -0.8505 -0.0402
C60 C -1.4000(6) -0.9495(4) 0.0298(2)
C61 C -1.3362(6) -0.9755(4) 0.0776(2)
H61 H -1.3448 -1.0301 0.1022
C62 C -1.2601(6) -0.9219(4) 0.0892(2)
H62 H -1.2146 -0.9409 0.1209
C69 C -0.8601(6) -0.5523(4) 0.2363(2)
H77 H -0.8183 -0.5250 0.2070
Cd1_2 Cd -3.0000 -2.0000 -0.5000
Cd2A Cd -1.99140(4) -1.33499(3) -0.174727(15)
Cd2_2 Cd -0.00860(4) 1.33499(3) 0.174727(15)
Cd2A_2 Cd -0.99140(4) 0.66501(3) -0.174727(15)
Cd2A_3 Cd 0.00860(4) -1.33499(3) 0.825273(15)
O1A O 0.1551(4) 0.0587(3) 0.44523(16)
O2A O -2.1618(4) -1.3741(3) -0.11958(16)
O3A O -1.8210(4) -1.3057(3) -0.23227(15)
C1A C 0.0209(6) 0.5105(4) 0.4313(2)
H1A H 0.0988 0.5214 0.4407
N1A N -0.1143(5) 0.1613(3) 0.48046(18)
N2A N -0.1492(5) 0.3174(3) 0.45835(19)
N3A N -0.0415(5) 0.6683(4) 0.3655(2)
N4A N 0.0527(5) 0.6903(3) 0.3835(2)
N5A N -2.8973(5) -1.9845(4) -0.43015(19)
N5A_2 N 0.1027(5) 0.0155(4) 0.56985(19)
N6A N -2.7907(5) -1.9358(4) -0.37885(19)
N7A N -2.4806(6) -1.7379(4) -0.3092(2)
N8A N -2.4566(5) -1.6712(4) -0.3433(2)
N9A N -2.1466(5) -1.4630(3) -0.28341(19)
N10A N -2.0660(5) -1.3890(3) -0.23802(19)
N11A N -0.8759(5) 0.5095(3) -0.13262(18)
N11A_2 N -1.8759(5) -1.4905(3) -0.13262(18)
N12A N -0.8407(5) 0.3562(3) -0.09283(19)
N13A N -0.9537(5) 0.0071(4) 0.0096(2)
N14A N 0.1080(5) 1.1813(3) 0.21788(18)
N14_2 N -2.1080(5) -1.1813(3) -0.21788(18)
N14A_2 N -0.8920(5) -0.8187(3) 0.21788(18)
N15A N 0.1537(5) 1.0325(3) 0.26533(18)
N16A N -1.9111(5) -1.2894(3) -0.10998(18)
N17A N -1.8199(5) -1.2208(3) -0.06431(17)
N18A N -1.5242(5) -0.9889(4) -0.02226(18)
N19A N -1.6198(5) -1.3186(4) -0.2701(2)
N20A N -2.3348(5) -1.3924(4) -0.0683(2)
N21A N 0.3353(5) 0.0797(4) 0.3991(2)
C2A C -0.0575(6) 0.2324(4) 0.4651(2)
H2A H 0.0328 0.2252 0.4598
C3A C -0.2478(6) 0.2034(5) 0.4836(3)
H3A H -0.3127 0.1706 0.4933
C4A C -0.2706(6) 0.2994(4) 0.4704(3)
H4A H -0.3516 0.3438 0.4697
C5A C -0.1236(6) 0.4093(4) 0.4386(2)
C6A C -0.0078(6) 0.4241(4) 0.4543(2)
H5A H 0.0489 0.3774 0.4795
C7A C -0.0647(6) 0.5803(4) 0.3948(3)
C8A C -0.1814(7) 0.5649(5) 0.3814(3)
H6A H -0.2400 0.6126 0.3573
C9A C -0.2120(6) 0.4794(4) 0.4035(3)
H7A H -0.2912 0.4696 0.3947
C10A C 0.0782(6) 0.7761(4) 0.3518(2)
C11A C 0.1585(7) 0.8162(4) 0.3725(3)
H8A H 0.1952 0.7868 0.4057
C12A C 0.1850(6) 0.9004(4) 0.3443(2)
H9A H 0.2372 0.9286 0.3588
C13A C 0.1334(6) 0.9425(4) 0.2943(2)
C14A C 0.0548(6) 0.9013(4) 0.2729(3)
H10A H 0.0207 0.9299 0.2393
C15A C 0.0263(6) 0.8178(4) 0.3011(2)
H11A H -0.0264 0.7899 0.2867
C16A C 0.2771(6) 0.0390(4) 0.4400(2)
H12A H 0.3302 -0.0071 0.4666
C17A C 0.2565(8) 0.1591(5) 0.3590(3)
H13A H 0.3134 0.1806 0.3319
H14A H 0.1900 0.1386 0.3451
H15A H 0.2145 0.2101 0.3738
C18A C 0.4785(7) 0.0549(6) 0.3941(3)
H16A H 0.5011 0.0921 0.3614
H17A H 0.5192 0.0677 0.4217
H18A H 0.5098 -0.0114 0.3958
C19A C -2.8401(6) -1.9188(4) -0.4274(2)
H19A H -2.8341 -1.8674 -0.4550
C20A C -2.8868(6) -2.0467(4) -0.3811(2)
H20A H -2.9200 -2.1001 -0.3714
C21A C -2.8208(6) -2.0172(5) -0.3497(2)
H21A H -2.7995 -2.0465 -0.3149
C22A C -2.7173(6) -1.8811(5) -0.3618(2)
C23A C -2.7030(6) -1.8911(4) -0.3093(3)
H22A H -2.7470 -1.9287 -0.2851
C24A C -2.6232(6) -1.8447(4) -0.2934(3)
H23A H -2.6101 -1.8532 -0.2583
C25A C -2.5616(6) -1.7851(4) -0.3295(3)
C26A C -2.5778(7) -1.7739(5) -0.3820(3)
H24A H -2.5378 -1.7335 -0.4063
C27A C -2.6549(7) -1.8242(5) -0.3975(3)
H25A H -2.6642 -1.8191 -0.4325
C28A C -2.3741(6) -1.6229(5) -0.3244(3)
C29A C -2.3138(6) -1.6542(5) -0.2747(3)
H26A H -2.3259 -1.7089 -0.2510
C30A C -2.2363(6) -1.6021(5) -0.2616(3)
H27A H -2.1939 -1.6222 -0.2292
C31A C -2.2225(6) -1.5199(4) -0.2971(2)
C32A C -2.2810(6) -1.4895(5) -0.3460(2)
H28A H -2.2699 -1.4343 -0.3695
C33A C -2.3563(7) -1.5424(5) -0.3594(3)
H29A H -2.3951 -1.5234 -0.3924
C34A C -2.0265(6) -1.3638(4) -0.2880(2)
H30A H -1.9745 -1.3215 -0.3004
C35A C -2.0740(6) -1.4093(4) -0.3164(2)
H31A H -2.0604 -1.4052 -0.3514
C36A C -1.6986(6) -1.3224(4) -0.2300(2)
H32A H -1.6587 -1.3390 -0.1974
C37A C -1.6724(8) -1.2954(7) -0.3227(3)
H33A H -1.6007 -1.2964 -0.3465
H34A H -1.7183 -1.3413 -0.3252
H35A H -1.7329 -1.2332 -0.3312
C38A C -1.4767(6) -1.3380(5) -0.2644(3)
H36A H -1.4375 -1.3319 -0.2978
H37A H -1.4560 -1.2935 -0.2486
H38A H -1.4419 -1.4015 -0.2429
C39A C -2.2816(6) -1.3538(4) -0.1108(2)
H39A H -2.3379 -1.3076 -0.1363
C40A C -2.2545(7) -1.4676(5) -0.0270(3)
H40A H -2.3102 -1.4867 0.0011
H41A H -2.2125 -1.5210 -0.0400
H42A H -2.1879 -1.4445 -0.0151
C41A C -2.4793(7) -1.3673(6) -0.0609(3)
H43A H -2.4987 -1.4029 -0.0273
H44A H -2.5102 -1.3006 -0.0637
H45A H -2.5231 -1.3822 -0.0870
C42A C 0.0576(6) 1.1102(4) 0.2412(2)
H46A H -0.0323 1.1128 0.2411
C43A C 0.2433(6) 1.1474(4) 0.2277(2)
H47A H 0.3053 1.1823 0.2163
C44A C 0.2715(6) 1.0559(4) 0.2564(3)
H48A H 0.3552 1.0165 0.2678
C45A C -0.9319(6) 0.4377(4) -0.1166(2)
H49A H -1.0214 0.4425 -0.1211
C46A C -0.7421(6) 0.4716(4) -0.1185(2)
H50A H -0.6780 0.5055 -0.1249
C47A C -0.7194(6) 0.3777(4) -0.0941(2)
H51A H -0.6386 0.3359 -0.0808
C48A C -0.8682(6) 0.2666(4) -0.0699(3)
C49A C -0.8019(7) 0.2082(5) -0.0244(3)
H52A H -0.7375 0.2260 -0.0096
C50A C -0.8330(7) 0.1223(5) -0.0010(3)
H53A H -0.7863 0.0814 0.0287
C51A C -0.9314(7) 0.0981(5) -0.0214(3)
C52A C -0.9973(7) 0.1557(5) -0.0670(3)
H54A H -1.0634 0.1383 -0.0811
C53A C -0.9640(7) 0.2403(5) -0.0918(3)
H55A H -1.0061 0.2786 -0.1230
C54A C -1.8417(5) -1.2286(4) -0.1122(2)
H56A H -1.8111 -1.1949 -0.1426
C55A C -1.9350(6) -1.3239(4) -0.0588(2)
H57A H -1.9826 -1.3688 -0.0457
C56A C -1.8791(6) -1.2825(4) -0.0300(2)
H58A H -1.8804 -1.2937 0.0058
C57A C -1.7472(5) -1.1616(4) -0.0523(2)
C58A C -1.6844(6) -1.1895(4) -0.0041(2)
H59A H -1.6909 -1.2453 0.0200
C59A C -1.6117(6) -1.1329(4) 0.0076(2)
H60A H -1.5711 -1.1495 0.0402
C60A C -1.6000(6) -1.0505(4) -0.0298(2)
C61A C -1.6638(6) -1.0245(4) -0.0776(2)
H61A H -1.6552 -0.9699 -0.1022
C62A C -1.7399(6) -1.0781(4) -0.0892(2)
H62A H -1.7854 -1.0591 -0.1209
C69A C -2.1399(6) -1.4477(4) -0.2363(2)
H77A H -2.1817 -1.4750 -0.2070
Cl1 Cl -0.39390(14) -0.88606(11) 0.21675(6)
O6 O -0.4477(4) -0.7966(3) 0.17839(17)
O7 O -0.4215(5) -0.9614(3) 0.20110(17)
O8 O -0.4512(4) -0.8822(3) 0.26654(17)
O9 O -0.2523(4) -0.9009(3) 0.22123(16)
Cl2 Cl -0.61260(15) -0.75134(12) 0.45996(6)
O10 O -0.7514(4) -0.7478(3) 0.46173(19)
O11 O -0.5712(5) -0.7295(4) 0.40747(19)
O12 O -0.5892(5) -0.6844(4) 0.4840(2)
O13 O -0.5398(5) -0.8461(4) 0.48735(19)
Cl3 Cl -0.63366(15) -0.41048(11) 0.12424(6)
O14 O -0.6322(7) -0.3256(4) 0.1365(2)
O15 O -0.5739(5) -0.4099(4) 0.07534(18)
O16 O -0.7670(5) -0.4166(4) 0.1226(2)
O17 O -0.5614(6) -0.4909(5) 0.1628(2)
O4 O -0.3399(8) -0.2037(5) 0.1683(3)
N22 N -0.2837(5) -0.3523(4) 0.2213(2)
C66 C -0.3277(8) -0.4394(5) 0.2438(3)
H70 H -0.2576 -0.4868 0.2653
H71 H -0.3499 -0.4629 0.2164
H72 H -0.4044 -0.4253 0.2643
C67 C -0.1448(9) -0.3483(8) 0.2310(4)
H73 H -0.0978 -0.4074 0.2542
H74 H -0.1485 -0.2973 0.2462
H75 H -0.0995 -0.3378 0.1988
C68 C -0.3651(8) -0.2775(5) 0.1896(3)
H76 H -0.4491 -0.2829 0.1833
O5 O -0.9667(8) -1.0006(6) 0.1470(2)
N23 N -0.7529(9) -0.9941(7) 0.1371(3)
C63 C -0.8841(7) -0.9598(6) 0.1336(3)
H63 H -0.9148 -0.8948 0.1185
C64 C -0.6729(13) -0.9219(19) 0.1180(5)
H64 H -0.5800 -0.9536 0.1221
H65 H -0.6937 -0.8761 0.1378
H66 H -0.6944 -0.8901 0.0821
C65 C -0.695(2) -1.0916(13) 0.1574(5)
H67 H -0.6004 -1.1036 0.1569
H68 H -0.7233 -1.1262 0.1368
H69 H -0.7228 -1.1117 0.1924
loop_
_geom_bond_atom_site_label_1
_geom_bond_atom_site_label_2
_geom_bond_site_symmetry_1
_geom_bond_site_symmetry_2
Cd1 O1 1_555 1_555
Cd2 O2 1_555 1_555
Cl1 O6 1_555 1_555
Cl2 O10 1_555 1_555
Cl3 O14 1_555 1_555
O1 C16 1_555 1_555
O2 C39 1_555 1_555
O3 Cd2 1_555 1_555
O4 C68 1_555 1_555
O5 C63 1_555 1_555
O7 Cl1 1_555 1_555
O8 Cl1 1_555 1_555
O9 Cl1 1_555 1_555
O11 Cl2 1_555 1_555
O12 Cl2 1_555 1_555
O13 Cl2 1_555 1_555
O15 Cl3 1_555 1_555
O16 Cl3 1_555 1_555
O17 Cl3 1_555 1_555
C1 H1 1_555 1_555
N1 Cd1 1_555 1_555
N2 C2 1_555 1_555
N3 N4 1_555 1_555
N4 C10 1_555 1_555
N5 Cd1 1_555 1_555
N6 C19 1_555 1_555
N7 N8 1_555 1_555
N8 C28 1_555 1_555
N9 C31 1_555 1_555
N10 Cd2 1_555 1_555
N11 Cd2 1_555 1_555
N12 C45 1_555 1_555
N13 C51 1_555 1_555
N14 C42 1_555 1_555
N15 C13 1_555 1_555
N16 Cd2 1_555 1_555
N17 C54 1_555 1_555
N18 C60 1_555 1_555
N19 C36 1_555 1_555
N20 C39 1_555 1_555
N21 C16 1_555 1_555
N22 C66 1_555 1_555
N23 C63 1_555 1_555
C2 N1 1_555 1_555
H2 C2 1_555 1_555
C3 N1 1_555 1_555
H3 C3 1_555 1_555
C4 N2 1_555 1_555
H4 C4 1_555 1_555
C5 N2 1_555 1_555
C6 C1 1_555 1_555
H5 C6 1_555 1_555
C7 C1 1_555 1_555
C8 C7 1_555 1_555
H6 C8 1_555 1_555
C9 C5 1_555 1_555
H7 C9 1_555 1_555
C10 C11 1_555 1_555
C11 H8 1_555 1_555
C12 C11 1_555 1_555
H9 C12 1_555 1_555
C13 C12 1_555 1_555
C14 C13 1_555 1_555
H10 C14 1_555 1_555
C15 C10 1_555 1_555
H11 C15 1_555 1_555
C16 H12 1_555 1_555
C17 N21 1_555 1_555
H13 C17 1_555 1_555
H14 C17 1_555 1_555
H15 C17 1_555 1_555
C18 N21 1_555 1_555
H16 C18 1_555 1_555
H17 C18 1_555 1_555
H18 C18 1_555 1_555
C19 N5 1_555 1_555
H19 C19 1_555 1_555
C20 N5 1_555 1_555
H20 C20 1_555 1_555
C21 N6 1_555 1_555
H21 C21 1_555 1_555
C22 N6 1_555 1_555
C23 C22 1_555 1_555
H22 C23 1_555 1_555
C24 C23 1_555 1_555
H23 C24 1_555 1_555
C25 N7 1_555 1_555
C26 C25 1_555 1_555
H24 C26 1_555 1_555
C27 C22 1_555 1_555
H25 C27 1_555 1_555
C28 C29 1_555 1_555
C29 H26 1_555 1_555
C30 C29 1_555 1_555
H27 C30 1_555 1_555
C31 C30 1_555 1_555
C32 C31 1_555 1_555
H28 C32 1_555 1_555
C33 C28 1_555 1_555
H29 C33 1_555 1_555
C34 N10 1_555 1_555
H30 C34 1_555 1_555
C35 N9 1_555 1_555
H31 C35 1_555 1_555
C36 O3 1_555 1_555
H32 C36 1_555 1_555
C37 N19 1_555 1_555
H33 C37 1_555 1_555
H34 C37 1_555 1_555
H35 C37 1_555 1_555
C38 N19 1_555 1_555
H36 C38 1_555 1_555
H37 C38 1_555 1_555
H38 C38 1_555 1_555
C39 H39 1_555 1_555
C40 N20 1_555 1_555
H40 C40 1_555 1_555
H41 C40 1_555 1_555
H42 C40 1_555 1_555
C41 N20 1_555 1_555
H43 C41 1_555 1_555
H44 C41 1_555 1_555
H45 C41 1_555 1_555
C42 N15 1_555 1_555
H46 C42 1_555 1_555
C43 N14 1_555 1_555
H47 C43 1_555 1_555
C44 N15 1_555 1_555
H48 C44 1_555 1_555
C45 N11 1_555 1_555
H49 C45 1_555 1_555
C46 N11 1_555 1_555
H50 C46 1_555 1_555
C47 N12 1_555 1_555
H51 C47 1_555 1_555
C48 N12 1_555 1_555
C49 C48 1_555 1_555
H52 C49 1_555 1_555
C50 C49 1_555 1_555
H53 C50 1_555 1_555
C51 C50 1_555 1_555
C52 C51 1_555 1_555
H54 C52 1_555 1_555
C53 C48 1_555 1_555
H55 C53 1_555 1_555
C54 N16 1_555 1_555
H56 C54 1_555 1_555
C55 N16 1_555 1_555
H57 C55 1_555 1_555
C56 N17 1_555 1_555
H58 C56 1_555 1_555
C57 N17 1_555 1_555
C58 C57 1_555 1_555
H59 C58 1_555 1_555
C59 C58 1_555 1_555
H60 C59 1_555 1_555
C60 C59 1_555 1_555
C61 C60 1_555 1_555
H61 C61 1_555 1_555
C62 C57 1_555 1_555
H62 C62 1_555 1_555
C63 H63 1_555 1_555
C64 N23 1_555 1_555
H64 C64 1_555 1_555
H65 C64 1_555 1_555
H66 C64 1_555 1_555
C65 N23 1_555 1_555
H67 C65 1_555 1_555
H68 C65 1_555 1_555
H69 C65 1_555 1_555
C66 H70 1_555 1_555
H71 C66 1_555 1_555
H72 C66 1_555 1_555
C67 N22 1_555 1_555
H73 C67 1_555 1_555
H74 C67 1_555 1_555
H75 C67 1_555 1_555
C68 N22 1_555 1_555
H76 C68 1_555 1_555
C69 N9 1_555 1_555
H77 C69 1_555 1_555
Cd1_2 N5A 1_555 1_555
Cd2A O2A 1_555 1_555
Cd2_2 N14A 1_555 1_555
Cd2A_2 N11A 1_555 1_555
Cd2A_3 N14 1_555 1_555
O1A Cd1 1_555 1_555
O2A C39A 1_555 1_555
O3A Cd2A 1_555 1_555
C1A H1A 1_555 1_555
N1A Cd1 1_555 1_555
N2A C2A 1_555 1_555
N3A N4A 1_555 1_555
N4A C10A 1_555 1_555
N5A C19A 1_555 1_555
N5A_2 Cd1 1_555 1_555
N6A C19A 1_555 1_555
N7A N8A 1_555 1_555
N8A C28A 1_555 1_555
N9A C31A 1_555 1_555
N10A Cd2A 1_555 1_555
N11A C45A 1_555 1_555
N11A_2 Cd2A 1_555 1_555
N12A C45A 1_555 1_555
N13A N13 1_555 1_555
N14A C42A 1_555 1_555
N14_2 Cd2A 1_555 1_555
N14A_2 Cd2 1_555 1_555
N15A C13A 1_555 1_555
N16A Cd2A 1_555 1_555
N17A C54A 1_555 1_555
N18A N18 1_555 1_555
N19A C36A 1_555 1_555
N20A C39A 1_555 1_555
N21A C16A 1_555 1_555
C2A N1A 1_555 1_555
H2A C2A 1_555 1_555
C3A N1A 1_555 1_555
H3A C3A 1_555 1_555
C4A N2A 1_555 1_555
H4A C4A 1_555 1_555
C5A N2A 1_555 1_555
C6A C1A 1_555 1_555
H5A C6A 1_555 1_555
C7A C1A 1_555 1_555
C8A C7A 1_555 1_555
H6A C8A 1_555 1_555
C9A C5A 1_555 1_555
H7A C9A 1_555 1_555
C10A C11A 1_555 1_555
C11A H8A 1_555 1_555
C12A C11A 1_555 1_555
H9A C12A 1_555 1_555
C13A C12A 1_555 1_555
C14A C13A 1_555 1_555
H10A C14A 1_555 1_555
C15A C10A 1_555 1_555
H11A C15A 1_555 1_555
C16A O1A 1_555 1_555
H12A C16A 1_555 1_555
C17A N21A 1_555 1_555
H13A C17A 1_555 1_555
H14A C17A 1_555 1_555
H15A C17A 1_555 1_555
C18A N21A 1_555 1_555
H16A C18A 1_555 1_555
H17A C18A 1_555 1_555
H18A C18A 1_555 1_555
C19A H19A 1_555 1_555
C20A N5A 1_555 1_555
H20A C20A 1_555 1_555
C21A N6A 1_555 1_555
H21A C21A 1_555 1_555
C22A N6A 1_555 1_555
C23A C22A 1_555 1_555
H22A C23A 1_555 1_555
C24A C23A 1_555 1_555
H23A C24A 1_555 1_555
C25A N7A 1_555 1_555
C26A C25A 1_555 1_555
H24A C26A 1_555 1_555
C27A C22A 1_555 1_555
H25A C27A 1_555 1_555
C28A C29A 1_555 1_555
C29A H26A 1_555 1_555
C30A C29A 1_555 1_555
H27A C30A 1_555 1_555
C31A C30A 1_555 1_555
C32A C31A 1_555 1_555
H28A C32A 1_555 1_555
C33A C28A 1_555 1_555
H29A C33A 1_555 1_555
C34A N10A 1_555 1_555
H30A C34A 1_555 1_555
C35A N9A 1_555 1_555
H31A C35A 1_555 1_555
C36A O3A 1_555 1_555
H32A C36A 1_555 1_555
C37A N19A 1_555 1_555
H33A C37A 1_555 1_555
H34A C37A 1_555 1_555
H35A C37A 1_555 1_555
C38A N19A 1_555 1_555
H36A C38A 1_555 1_555
H37A C38A 1_555 1_555
H38A C38A 1_555 1_555
C39A H39A 1_555 1_555
C40A N20A 1_555 1_555
H40A C40A 1_555 1_555
H41A C40A 1_555 1_555
H42A C40A 1_555 1_555
C41A N20A 1_555 1_555
H43A C41A 1_555 1_555
H44A C41A 1_555 1_555
H45A C41A 1_555 1_555
C42A N15A 1_555 1_555
H46A C42A 1_555 1_555
C43A N14A 1_555 1_555
H47A C43A 1_555 1_555
C44A N15A 1_555 1_555
H48A C44A 1_555 1_555
C45A H49A 1_555 1_555
C46A N11A 1_555 1_555
H50A C46A 1_555 1_555
C47A N12A 1_555 1_555
H51A C47A 1_555 1_555
C48A N12A 1_555 1_555
C49A C48A 1_555 1_555
H52A C49A 1_555 1_555
C50A C49A 1_555 1_555
H53A C50A 1_555 1_555
C51A N13A 1_555 1_555
C52A C51A 1_555 1_555
H54A C52A 1_555 1_555
C53A C48A 1_555 1_555
H55A C53A 1_555 1_555
C54A N16A 1_555 1_555
H56A C54A 1_555 1_555
C55A N16A 1_555 1_555
H57A C55A 1_555 1_555
C56A N17A 1_555 1_555
H58A C56A 1_555 1_555
C57A N17A 1_555 1_555
C58A C57A 1_555 1_555
H59A C58A 1_555 1_555
C59A C58A 1_555 1_555
H60A C59A 1_555 1_555
C60A N18A 1_555 1_555
C61A C60A 1_555 1_555
H61A C61A 1_555 1_555
C62A C57A 1_555 1_555
H62A C62A 1_555 1_555
C69A N9A 1_555 1_555
H77A C69A 1_555 1_555
N3 C7 1_555 1_555
N10 C69 1_555 1_555
C3 C4 1_555 1_555
C5 C6 1_555 1_555
C8 C9 1_555 1_555
C14 C15 1_555 1_555
C20 C21 1_555 1_555
C24 C25 1_555 1_555
C26 C27 1_555 1_555
C32 C33 1_555 1_555
C34 C35 1_555 1_555
C43 C44 1_555 1_555
C46 C47 1_555 1_555
C52 C53 1_555 1_555
C55 C56 1_555 1_555
C61 C62 1_555 1_555
N3A C7A 1_555 1_555
N10A C69A 1_555 1_555
C3A C4A 1_555 1_555
C5A C6A 1_555 1_555
C8A C9A 1_555 1_555
C14A C15A 1_555 1_555
C20A C21A 1_555 1_555
C24A C25A 1_555 1_555
C26A C27A 1_555 1_555
C32A C33A 1_555 1_555
C34A C35A 1_555 1_555
C43A C44A 1_555 1_555
C46A C47A 1_555 1_555
C50A C51A 1_555 1_555
C52A C53A 1_555 1_555
C55A C56A 1_555 1_555
C59A C60A 1_555 1_555
C61A C62A 1_555 1_555

#END
