
#######################################################################
#
#                 Cambridge Crystallographic Data Centre
#                                CCDC 
#
#######################################################################
#
# If this CIF has been generated from an entry in the Cambridge 
# Structural Database, then it will include bibliographic, chemical, 
# crystal, experimental, refinement or atomic coordinate data resulting 
# from the CCDC's data processing and validation procedures.
#
#######################################################################

data_IXELAZ
_symmetry_cell_setting           monoclinic
_symmetry_space_group_name_H-M   'C 2/m'
_symmetry_Int_Tables_number      12
_space_group_name_Hall           '-C 2y'
loop_
_symmetry_equiv_pos_site_id
_symmetry_equiv_pos_as_xyz
1 x,y,z
2 -x,y,-z
3 1/2+x,1/2+y,z
4 1/2-x,1/2+y,-z
5 -x,-y,-z
6 x,-y,z
7 1/2-x,1/2-y,-z
8 1/2+x,1/2-y,z
_cell_length_a                   14.436(6)
_cell_length_b                   16.301(3)
_cell_length_c                   16.996(4)
_cell_angle_alpha                90
_cell_angle_beta                 92.576(5)
_cell_angle_gamma                90
_cell_volume                     3995.48
loop_
_atom_site_label
_atom_site_type_symbol
_atom_site_fract_x
_atom_site_fract_y
_atom_site_fract_z
Cd1 Cd 1.0000 0.0000 1.0000
Cl1 Cl 1.2201(4) 0.0139(10) 0.8737(3)
O1 O 1.145(3) 0.0000 0.927(3)
O2 O 1.3138(16) 0.0000 0.901(4)
O3 O 1.219(3) -0.082(2) 0.822(2)
N1 N 0.9466(14) 0.1046(12) 0.9267(10)
N2 N 0.8929(15) 0.1835(14) 0.8263(14)
N3 N 0.769(3) 0.277(3) 0.5248(13)
C1 C 0.9266(18) 0.1083(16) 0.8507(19)
H1 H 0.9344 0.0644 0.8166
C2 C 0.926(2) 0.1856(17) 0.9570(16)
H2 H 0.9345 0.2010 1.0095
C3 C 0.892(2) 0.2377(19) 0.8960(18)
H3 H 0.8739 0.2923 0.8990
C4 C 0.8575(16) 0.2044(13) 0.7513(14)
C5 C 0.835(2) 0.144(2) 0.6990(16)
H4 H 0.8356 0.0889 0.7138
C6 C 0.811(2) 0.167(2) 0.623(2)
H5 H 0.7992 0.1268 0.5858
C7 C 0.803(2) 0.2482(17) 0.6006(17)
C8 C 0.828(2) 0.3069(17) 0.6540(16)
H6 H 0.8275 0.3620 0.6396
C9 C 0.8547(17) 0.2847(16) 0.7286(17)
H7 H 0.8711 0.3252 0.7652
Cd1B Cd 0.5000 0.5000 0.0000
Cd1B_2 Cd 1.5000 0.5000 2.0000
Cl1E Cl 1.2201(4) -0.0139(10) 0.8737(3)
Cl1A Cl 0.7799(4) 0.0139(10) 1.1263(3)
Cl1D Cl 0.7799(4) -0.0139(10) 1.1263(3)
O1A O 0.855(3) 0.0000 1.073(3)
O2A O 0.6862(16) 0.0000 1.099(4)
O3E O 1.219(3) 0.082(2) 0.822(2)
O3A O 0.781(3) -0.082(2) 1.178(2)
O3D O 0.781(3) 0.082(2) 1.178(2)
N1F N 0.5534(14) 0.3954(12) 0.0733(10)
N1A N 1.0534(14) 0.1046(12) 1.0733(10)
N1G N 1.4466(14) 0.3954(12) 1.9267(10)
N1D N 1.0534(14) -0.1046(12) 1.0733(10)
N1E N 0.9466(14) -0.1046(12) 0.9267(10)
N2F N 0.6071(15) 0.3165(14) 0.1737(14)
N2A N 1.1071(15) 0.1835(14) 1.1737(14)
N2G N 1.3929(15) 0.3165(14) 1.8263(14)
N3F N 0.731(3) 0.223(3) 0.4752(13)
N3A N 1.231(3) 0.277(3) 1.4752(13)
N3G N 1.269(3) 0.223(3) 1.5248(13)
C1F C 0.5734(18) 0.3917(16) 0.1493(19)
C1A C 1.0734(18) 0.1083(16) 1.1493(19)
C1G C 1.4266(18) 0.3917(16) 1.8507(19)
H1F H 0.5656 0.4356 0.1834
H1A H 1.0656 0.0644 1.1834
H1G H 1.4344 0.4356 1.8166
C2F C 0.574(2) 0.3144(17) 0.0430(16)
C2A C 1.074(2) 0.1856(17) 1.0430(16)
C2G C 1.426(2) 0.3144(17) 1.9570(16)
H2F H 0.5655 0.2990 -0.0095
H2A H 1.0655 0.2010 0.9905
H2G H 1.4345 0.2990 2.0095
C3F C 0.608(2) 0.2623(19) 0.1040(18)
C3A C 1.108(2) 0.2377(19) 1.1040(18)
C3G C 1.392(2) 0.2623(19) 1.8960(18)
H3F H 0.6261 0.2077 0.1010
H3A H 1.1261 0.2923 1.1010
H3G H 1.3739 0.2077 1.8990
C4F C 0.6425(16) 0.2956(13) 0.2487(14)
C4A C 1.1425(16) 0.2044(13) 1.2487(14)
C4G C 1.3575(16) 0.2956(13) 1.7513(14)
C5F C 0.665(2) 0.356(2) 0.3010(16)
C5A C 1.165(2) 0.144(2) 1.3010(16)
C5G C 1.335(2) 0.356(2) 1.6990(16)
H4F H 0.6644 0.4111 0.2862
H4A H 1.1644 0.0889 1.2862
H4G H 1.3356 0.4111 1.7138
C6F C 0.689(2) 0.333(2) 0.377(2)
C6A C 1.189(2) 0.167(2) 1.377(2)
C6G C 1.311(2) 0.333(2) 1.623(2)
H5F H 0.7008 0.3732 0.4142
H5A H 1.2008 0.1268 1.4142
H5G H 1.2992 0.3732 1.5858
C7F C 0.697(2) 0.2518(17) 0.3994(17)
C7A C 1.197(2) 0.2482(17) 1.3994(17)
C7G C 1.303(2) 0.2518(17) 1.6006(17)
C8F C 0.672(2) 0.1931(17) 0.3460(16)
C8A C 1.172(2) 0.3069(17) 1.3460(16)
C8G C 1.328(2) 0.1931(17) 1.6540(16)
H6F H 0.6725 0.1380 0.3604
H6A H 1.1725 0.3620 1.3604
H6G H 1.3275 0.1380 1.6396
C9F C 0.6453(17) 0.2153(16) 0.2714(17)
C9A C 1.1453(17) 0.2847(16) 1.2714(17)
C9G C 1.3547(17) 0.2153(16) 1.7286(17)
H7F H 0.6289 0.1748 0.2348
H7A H 1.1289 0.3252 1.2348
H7G H 1.3711 0.1748 1.7652
loop_
_geom_bond_atom_site_label_1
_geom_bond_atom_site_label_2
_geom_bond_site_symmetry_1
_geom_bond_site_symmetry_2
Cd1 O1 1_555 1_555
Cl1 O1 1_555 1_555
O1 Cl1E 1_555 1_555
O2 Cl1 1_555 1_555
O3 Cl1 1_555 1_555
N1 Cd1 1_555 1_555
N2 C1 1_555 1_555
N3 C7 1_555 1_555
C1 N1 1_555 1_555
H1 C1 1_555 1_555
C2 N1 1_555 1_555
H2 C2 1_555 1_555
C3 N2 1_555 1_555
H3 C3 1_555 1_555
C4 N2 1_555 1_555
C5 C4 1_555 1_555
H4 C5 1_555 1_555
C6 C5 1_555 1_555
H5 C6 1_555 1_555
C7 C6 1_555 1_555
C8 C7 1_555 1_555
H6 C8 1_555 1_555
C9 C4 1_555 1_555
H7 C9 1_555 1_555
Cd1B N1F 1_555 1_555
Cd1B_2 N1G 1_555 1_555
Cl1E Cl1 1_555 1_555
Cl1A Cl1D 1_555 1_555
Cl1D O1A 1_555 1_555
O1A Cd1 1_555 1_555
O2A Cl1A 1_555 1_555
O3E Cl1 1_555 1_555
O3A Cl1A 1_555 1_555
O3D Cl1A 1_555 1_555
N1F C1F 1_555 1_555
N1A Cd1 1_555 1_555
N1G C1G 1_555 1_555
N1D Cd1 1_555 1_555
N1E Cd1 1_555 1_555
N2F C1F 1_555 1_555
N2A C1A 1_555 1_555
N2G C1G 1_555 1_555
N3F N3 1_555 1_555
N3A N3G 1_555 1_555
N3G C7G 1_555 1_555
C1F H1F 1_555 1_555
C1A N1A 1_555 1_555
C1G H1G 1_555 1_555
H1A C1A 1_555 1_555
C2F N1F 1_555 1_555
C2A N1A 1_555 1_555
C2G N1G 1_555 1_555
H2F C2F 1_555 1_555
H2A C2A 1_555 1_555
H2G C2G 1_555 1_555
C3F N2F 1_555 1_555
C3A N2A 1_555 1_555
C3G N2G 1_555 1_555
H3F C3F 1_555 1_555
H3A C3A 1_555 1_555
H3G C3G 1_555 1_555
C4F N2F 1_555 1_555
C4A N2A 1_555 1_555
C4G N2G 1_555 1_555
C5F C4F 1_555 1_555
C5A C4A 1_555 1_555
C5G C4G 1_555 1_555
H4F C5F 1_555 1_555
H4A C5A 1_555 1_555
H4G C5G 1_555 1_555
C6F C5F 1_555 1_555
C6A C5A 1_555 1_555
C6G C5G 1_555 1_555
H5F C6F 1_555 1_555
H5A C6A 1_555 1_555
H5G C6G 1_555 1_555
C7F N3F 1_555 1_555
C7A N3A 1_555 1_555
C7G C6G 1_555 1_555
C8F C7F 1_555 1_555
C8A C7A 1_555 1_555
C8G C7G 1_555 1_555
H6F C8F 1_555 1_555
H6A C8A 1_555 1_555
H6G C8G 1_555 1_555
C9F C4F 1_555 1_555
C9A C4A 1_555 1_555
C9G C4G 1_555 1_555
H7F C9F 1_555 1_555
H7A C9A 1_555 1_555
H7G C9G 1_555 1_555
O2 Cl1E 1_555 1_555
O3 Cl1E 1_555 1_555
C2 C3 1_555 1_555
C8 C9 1_555 1_555
Cl1E O3E 1_555 1_555
Cl1A O1A 1_555 1_555
Cl1D O2A 1_555 1_555
Cl1D O3A 1_555 1_555
Cl1D O3D 1_555 1_555
C2F C3F 1_555 1_555
C2A C3A 1_555 1_555
C2G C3G 1_555 1_555
C6F C7F 1_555 1_555
C6A C7A 1_555 1_555
C8F C9F 1_555 1_555
C8A C9A 1_555 1_555
C8G C9G 1_555 1_555

#END
