
#######################################################################
#
#                 Cambridge Crystallographic Data Centre
#                                CCDC 
#
#######################################################################
#
# If this CIF has been generated from an entry in the Cambridge 
# Structural Database, then it will include bibliographic, chemical, 
# crystal, experimental, refinement or atomic coordinate data resulting 
# from the CCDC's data processing and validation procedures.
#
#######################################################################

data_IXIFEB
_symmetry_cell_setting           orthorhombic
_symmetry_space_group_name_H-M   'P c c n'
_symmetry_Int_Tables_number      56
_space_group_name_Hall           '-P 2ab 2ac'
loop_
_symmetry_equiv_pos_site_id
_symmetry_equiv_pos_as_xyz
1 x,y,z
2 1/2-x,1/2-y,z
3 -x,1/2+y,1/2-z
4 1/2+x,-y,1/2-z
5 -x,-y,-z
6 1/2+x,1/2+y,-z
7 x,1/2-y,1/2+z
8 1/2-x,y,1/2+z
_cell_length_a                   13.3414(9)
_cell_length_b                   8.6998(6)
_cell_length_c                   12.8810(5)
_cell_angle_alpha                90
_cell_angle_beta                 90
_cell_angle_gamma                90
_cell_volume                     1495.07
loop_
_atom_site_label
_atom_site_type_symbol
_atom_site_fract_x
_atom_site_fract_y
_atom_site_fract_z
Th1 Th 0.7500 0.2500 0.356146(14)
O1 O 0.7077(2) -0.0444(3) 0.34532(19)
O2 O 0.5884(2) 0.1165(3) 0.2983(2)
O3 O 0.6145(2) -0.5819(3) 0.40557(19)
O4 O 0.6290(2) -0.4870(3) 0.56650(19)
O5 O 0.6781(2) 0.1417(3) 0.5184(2)
O6 O 0.6876(2) 0.1311(3) 0.69197(19)
N1 N 0.5882(3) -0.3011(4) 0.3200(3)
H2 H 0.5497 -0.3605 0.2745
H3 H 0.6556 -0.3002 0.3041
C1 C 0.5522(3) -0.1483(4) 0.2825(3)
H4 H 0.4863 -0.1285 0.3113
H5 H 0.5458 -0.1514 0.2075
C2 C 0.6208(3) -0.0195(4) 0.3117(3)
C3 C 0.5856(3) -0.3140(5) 0.4350(3)
H6 H 0.5187 -0.2889 0.4593
H7 H 0.6317 -0.2398 0.4646
C4 C 0.6134(3) -0.4735(4) 0.4730(3)
C5 C 0.7118(4) 0.1840(5) 0.6051(3)
Th1_2 Th 0.7500 -0.7500 0.356146(14)
Th1F Th 0.7500 0.2500 0.856146(14)
Th1_3 Th 0.7500 1.2500 0.356146(14)
O1_2 O 0.7077(2) 0.9556(3) 0.34532(19)
O1A O 0.7923(2) 0.5444(3) 0.34532(19)
O2_2 O 0.5884(2) 1.1165(3) 0.2983(2)
O2A O 0.9116(2) 0.3835(3) 0.2983(2)
O3_2 O 0.6145(2) 0.4181(3) 0.40557(19)
O3A O 0.8855(2) 0.0819(3) 0.40557(19)
O4_2 O 0.6290(2) 0.5130(3) 0.56650(19)
O5A O 0.8219(2) 0.3583(3) 0.5184(2)
O6A O 0.8124(2) 0.3689(3) 0.69197(19)
O6F O 0.6876(2) 0.3689(3) 0.19197(19)
O6G O 0.8124(2) 0.1311(3) 0.19197(19)
N1_2 N 0.5882(3) 0.6989(4) 0.3200(3)
H2_2 H 0.5497 0.6395 0.2745
H3_2 H 0.6556 0.6998 0.3041
C1_2 C 0.5522(3) 0.8517(4) 0.2825(3)
H4_2 H 0.4863 0.8715 0.3113
H5_2 H 0.5458 0.8486 0.2075
C2_2 C 0.6208(3) 0.9805(4) 0.3117(3)
C3_2 C 0.5856(3) 0.6860(5) 0.4350(3)
H6_2 H 0.5187 0.7111 0.4593
H7_2 H 0.6317 0.7602 0.4646
C4_2 C 0.6134(3) 0.5265(4) 0.4730(3)
C5A C 0.7882(4) 0.3160(5) 0.6051(3)
O7 O 0.7500 -0.2500 0.1683(4)
H1 H 0.7404 -0.1750 0.1283
H1A H 0.7596 -0.3250 0.1283
loop_
_geom_bond_atom_site_label_1
_geom_bond_atom_site_label_2
_geom_bond_site_symmetry_1
_geom_bond_site_symmetry_2
Th1 O1 1_555 1_555
O1 C2 1_555 1_555
O2 Th1 1_555 1_555
O3 C4 1_555 1_555
O4 C4 1_555 1_555
O5 Th1 1_555 1_555
O6 C5 1_555 1_555
O7 H1 1_555 1_555
N1 H2 1_555 1_555
H3 N1 1_555 1_555
C1 N1 1_555 1_555
H4 C1 1_555 1_555
H5 C1 1_555 1_555
C2 O2 1_555 1_555
C3 N1 1_555 1_555
H6 C3 1_555 1_555
H7 C3 1_555 1_555
C4 C3 1_555 1_555
C5 O5 1_555 1_555
Th1_2 O3 1_555 1_555
Th1F O6 1_555 1_555
Th1_3 O1_2 1_555 1_555
O1_2 C2_2 1_555 1_555
O1A Th1 1_555 1_555
O2_2 Th1_3 1_555 1_555
O2A Th1 1_555 1_555
O3_2 Th1 1_555 1_555
O3A Th1 1_555 1_555
O4_2 C4_2 1_555 1_555
O5A Th1 1_555 1_555
O6A Th1F 1_555 1_555
O6F Th1 1_555 1_555
O6G Th1 1_555 1_555
H1A O7 1_555 1_555
N1_2 H2_2 1_555 1_555
H3_2 N1_2 1_555 1_555
C1_2 N1_2 1_555 1_555
H4_2 C1_2 1_555 1_555
H5_2 C1_2 1_555 1_555
C2_2 O2_2 1_555 1_555
C3_2 N1_2 1_555 1_555
H6_2 C3_2 1_555 1_555
H7_2 C3_2 1_555 1_555
C4_2 O3_2 1_555 1_555
C5A C5 1_555 1_555
C1 C2 1_555 1_555
O5A C5A 1_555 1_555
O6A C5A 1_555 1_555
C1_2 C2_2 1_555 1_555
C3_2 C4_2 1_555 1_555

#END
