
#######################################################################
#
#                 Cambridge Crystallographic Data Centre
#                                CCDC 
#
#######################################################################
#
# If this CIF has been generated from an entry in the Cambridge 
# Structural Database, then it will include bibliographic, chemical, 
# crystal, experimental, refinement or atomic coordinate data resulting 
# from the CCDC's data processing and validation procedures.
#
#######################################################################

data_IXIQOV
_symmetry_cell_setting           monoclinic
_symmetry_space_group_name_H-M   'P 21'
_symmetry_Int_Tables_number      4
_space_group_name_Hall           'P 2yb'
loop_
_symmetry_equiv_pos_site_id
_symmetry_equiv_pos_as_xyz
1 x,y,z
2 -x,1/2+y,-z
_cell_length_a                   4.8079(10)
_cell_length_b                   13.523(3)
_cell_length_c                   11.628(2)
_cell_angle_alpha                90
_cell_angle_beta                 93.70(3)
_cell_angle_gamma                90
_cell_volume                     754.445
loop_
_atom_site_label
_atom_site_type_symbol
_atom_site_fract_x
_atom_site_fract_y
_atom_site_fract_z
Hg1 Hg 0.0132(3) -0.7513(3) 0.22696(12)
Br1 Br 0.2756(9) -0.7517(7) 0.4199(3)
Br2 Br 0.0597(10) -0.7546(9) 0.0122(3)
N1 N -0.2763(71) -0.6049(26) 0.2350(36)
N2 N -0.2286(80) 0.1056(30) 0.2590(41)
C1 C -0.284(10) -0.5490(39) 0.3399(48)
H1 H -0.212(10) -0.5793(39) 0.4073(48)
C2 C -0.3757(76) -0.4651(28) 0.3485(38)
H2 H -0.2837(76) -0.4193(28) 0.3970(38)
C3 C -0.624(11) -0.4387(33) 0.2838(44)
C4 C -0.5695(97) -0.4906(34) 0.1852(42)
H3 H -0.6070(97) -0.4521(34) 0.1197(42)
C5 C -0.4860(74) -0.5730(28) 0.1593(36)
H4 H -0.5570(74) -0.6092(28) 0.0961(36)
C6 C -0.7417(81) -0.3451(24) 0.2811(43)
H5 H -0.8275(81) -0.3361(24) 0.3537(43)
H6 H -0.8916(81) -0.3457(24) 0.2212(43)
C7 C -0.5748(48) -0.2575(46) 0.2629(25)
H7 H -0.5244(48) -0.2546(46) 0.1835(25)
H8 H -0.4051(48) -0.2590(46) 0.3127(25)
C8 C -0.765(22) -0.1599(81) 0.293(11)
C9 C -0.2024(99) 0.0528(34) 0.3479(43)
H9 H -0.0480(99) 0.0604(34) 0.3996(43)
C10 C -0.443(11) -0.0298(42) 0.3723(56)
H10 H -0.491(11) -0.0495(42) 0.4450(56)
C11 C -0.5691(71) -0.0675(24) 0.2652(35)
C12 C -0.6374(80) -0.0058(28) 0.1580(37)
H11 H -0.7925(80) -0.0109(28) 0.1063(37)
C13 C -0.3783(95) 0.0710(35) 0.1541(48)
H12 H -0.3246(95) 0.0933(35) 0.0832(48)
N2_2 N -0.2286(80) -0.8944(30) 0.2590(41)
Hg1_2 Hg 0.0132(3) 0.2487(3) 0.22696(12)
loop_
_geom_bond_atom_site_label_1
_geom_bond_atom_site_label_2
_geom_bond_site_symmetry_1
_geom_bond_site_symmetry_2
Hg1 Br1 1_555 1_555
Br2 Hg1 1_555 1_555
N1 Hg1 1_555 1_555
N2 C9 1_555 1_555
C1 N1 1_555 1_555
H1 C1 1_555 1_555
C2 C1 1_555 1_555
H2 C2 1_555 1_555
C3 C2 1_555 1_555
C4 C3 1_555 1_555
H3 C4 1_555 1_555
C5 N1 1_555 1_555
H4 C5 1_555 1_555
C6 C3 1_555 1_555
H5 C6 1_555 1_555
H6 C6 1_555 1_555
C7 C6 1_555 1_555
H7 C7 1_555 1_555
H8 C7 1_555 1_555
C8 C7 1_555 1_555
C9 H9 1_555 1_555
C10 C9 1_555 1_555
H10 C10 1_555 1_555
C11 C8 1_555 1_555
C12 C11 1_555 1_555
H11 C12 1_555 1_555
C13 N2 1_555 1_555
H12 C13 1_555 1_555
N2_2 Hg1 1_555 1_555
Hg1_2 N2 1_555 1_555
C4 C5 1_555 1_555
C10 C11 1_555 1_555
C12 C13 1_555 1_555

#END
