
#######################################################################
#
#                 Cambridge Crystallographic Data Centre
#                                CCDC 
#
#######################################################################
#
# If this CIF has been generated from an entry in the Cambridge 
# Structural Database, then it will include bibliographic, chemical, 
# crystal, experimental, refinement or atomic coordinate data resulting 
# from the CCDC's data processing and validation procedures.
#
#######################################################################

data_IXOHIN
_symmetry_cell_setting           monoclinic
_symmetry_space_group_name_H-M   'P 21/n'
_symmetry_Int_Tables_number      14
_space_group_name_Hall           '-P 2yn'
loop_
_symmetry_equiv_pos_site_id
_symmetry_equiv_pos_as_xyz
1 x,y,z
2 1/2-x,1/2+y,1/2-z
3 -x,-y,-z
4 1/2+x,1/2-y,1/2+z
_cell_length_a                   9.1980(10)
_cell_length_b                   24.288(3)
_cell_length_c                   11.4782(12)
_cell_angle_alpha                90
_cell_angle_beta                 108.909(2)
_cell_angle_gamma                90
_cell_volume                     2425.86
loop_
_atom_site_label
_atom_site_type_symbol
_atom_site_fract_x
_atom_site_fract_y
_atom_site_fract_z
O1 O 0.0111(4) 0.79357(15) 0.7543(3)
O2 O -0.1096(4) 0.87021(13) 0.6867(3)
C1 C -0.0444(5) 0.82755(18) 0.6696(4)
N1 N -0.1765(4) 0.91952(13) 0.9099(3)
C2 C -0.1613(8) 0.9675(2) 0.8581(5)
H1 H -0.1255 0.9717 0.7916
C3 C -0.2054(7) 1.0088(3) 0.9168(5)
H2 H -0.2090 1.0460 0.8968
C4 C -0.2273(5) 0.93261(17) 1.0013(4)
H3 H -0.2489 0.9067 1.0531
N2 N -0.2443(5) 0.98591(14) 1.0117(3)
C5 C -0.3031(5) 1.01396(19) 1.0968(4)
C6 C -0.3041(8) 1.0698(3) 1.0986(7)
H4 H -0.2619 1.0894 1.0478
C7 C -0.3625(8) 0.9861(3) 1.1724(5)
H5 H -0.3623 0.9478 1.1725
C8 C -0.4241(9) 1.0148(3) 1.2500(5)
H6 H -0.4644 0.9956 1.3026
Co1 Co -0.11105(6) 0.84402(2) 0.86212(4)
N3 N -0.2494(4) 1.16021(13) 1.8043(3)
O3 O 0.2139(3) 0.71102(11) 0.3109(2)
N4 N -0.0871(4) 1.16824(14) 1.9924(3)
C9 C 0.0702(5) 0.77614(16) 0.5340(3)
H7 H 0.1413 0.7620 0.6050
C10 C -0.0355(5) 0.77934(16) 0.3132(3)
H8 H -0.0358 0.7671 0.2363
O4 O -0.2492(4) 0.83990(12) 0.2211(3)
H9 H -0.2510 0.8222 0.1598
C11 C 0.1914(5) 0.71858(16) 0.4120(3)
C12 C -0.4953(6) 1.1569(2) 1.4783(4)
H10 H -0.5785 1.1759 1.4253
O5 O 0.2676(3) 0.69232(11) 0.5060(2)
C13 C -0.1078(5) 1.14937(17) 1.8807(3)
H11 H -0.0331 1.1307 1.8576
C14 C 0.0719(4) 0.75900(16) 0.4195(3)
C15 C -0.1416(5) 0.83580(16) 0.4370(4)
H12 H -0.2118 0.8624 0.4428
C16 C -0.3114(5) 1.14482(17) 1.6768(4)
C17 C -0.0376(5) 0.81440(17) 0.5428(3)
C18 C -0.1421(5) 0.81794(17) 0.3223(3)
C19 C -0.4355(5) 1.17230(19) 1.6001(4)
H13 H -0.4793 1.2012 1.6301
C20 C -0.3236(5) 1.18867(19) 1.8723(4)
H14 H -0.4237 1.2021 1.8448
C21 C -0.2443(6) 1.1028(2) 1.6331(4)
H15 H -0.1590 1.0846 1.6853
O6 O -0.5038(4) 1.10010(16) 1.3133(3)
C22 C -0.4257(7) 1.0700(3) 1.2496(5)
C23 C -0.4317(6) 1.1138(2) 1.4357(4)
C24 C -0.2226(5) 1.19317(18) 1.9859(4)
H16 H -0.2420 1.2108 2.0512
C25 C -0.3045(6) 1.0877(2) 1.5107(4)
H17 H -0.2583 1.0599 1.4796
C26 C -0.3675(8) 1.0979(3) 1.1754(8)
H18 H -0.3694 1.1362 1.1750
Co1C Co 0.38895(6) 0.65598(2) 0.36212(4)
Co1B Co 0.11105(6) 1.15598(2) 2.13788(4)
O3C O -0.2861(3) 0.78898(11) 0.8109(2)
N4B N 0.0871(4) 0.83176(14) 1.0076(3)
O7 O 0.9416(13) 0.9780(3) 0.5929(7)
H19 H 0.8906 0.9484 0.5718
H20 H 1.0323 0.9733 0.5907
loop_
_geom_bond_atom_site_label_1
_geom_bond_atom_site_label_2
_geom_bond_site_symmetry_1
_geom_bond_site_symmetry_2
O1 C1 1_555 1_555
O2 C1 1_555 1_555
C1 C17 1_555 1_555
N1 C2 1_555 1_555
C2 H1 1_555 1_555
C3 C2 1_555 1_555
H2 C3 1_555 1_555
C4 N1 1_555 1_555
H3 C4 1_555 1_555
N2 C3 1_555 1_555
C5 N2 1_555 1_555
C6 C5 1_555 1_555
H4 C6 1_555 1_555
C7 C5 1_555 1_555
H5 C7 1_555 1_555
C8 C7 1_555 1_555
H6 C8 1_555 1_555
Co1 O1 1_555 1_555
N3 C13 1_555 1_555
O3 C11 1_555 1_555
N4 C13 1_555 1_555
C9 H7 1_555 1_555
C10 H8 1_555 1_555
O4 H9 1_555 1_555
C11 O5 1_555 1_555
C12 H10 1_555 1_555
C13 H11 1_555 1_555
C14 C9 1_555 1_555
C15 H12 1_555 1_555
C16 N3 1_555 1_555
C17 C9 1_555 1_555
C18 C10 1_555 1_555
C19 C12 1_555 1_555
H13 C19 1_555 1_555
C20 N3 1_555 1_555
H14 C20 1_555 1_555
C21 C16 1_555 1_555
H15 C21 1_555 1_555
O6 C22 1_555 1_555
C22 C8 1_555 1_555
C23 C12 1_555 1_555
C24 N4 1_555 1_555
H16 C24 1_555 1_555
C25 C21 1_555 1_555
H17 C25 1_555 1_555
C26 C6 1_555 1_555
H18 C26 1_555 1_555
O7 H19 1_555 1_555
H20 O7 1_555 1_555
Co1C O3 1_555 1_555
Co1B N4 1_555 1_555
O3C Co1 1_555 1_555
N4B Co1 1_555 1_555
O2 Co1 1_555 1_555
N1 Co1 1_555 1_555
C4 N2 1_555 1_555
C10 C14 1_555 1_555
O4 C18 1_555 1_555
C11 C14 1_555 1_555
C15 C17 1_555 1_555
C15 C18 1_555 1_555
C16 C19 1_555 1_555
C20 C24 1_555 1_555
O6 C23 1_555 1_555
C22 C26 1_555 1_555
C23 C25 1_555 1_555

#END
