
#######################################################################
#
#                 Cambridge Crystallographic Data Centre
#                                CCDC 
#
#######################################################################
#
# If this CIF has been generated from an entry in the Cambridge 
# Structural Database, then it will include bibliographic, chemical, 
# crystal, experimental, refinement or atomic coordinate data resulting 
# from the CCDC's data processing and validation procedures.
#
#######################################################################

data_IXOHEJ
_symmetry_cell_setting           monoclinic
_symmetry_space_group_name_H-M   'P 21/n'
_symmetry_Int_Tables_number      14
_space_group_name_Hall           '-P 2yn'
loop_
_symmetry_equiv_pos_site_id
_symmetry_equiv_pos_as_xyz
1 x,y,z
2 1/2-x,1/2+y,1/2-z
3 -x,-y,-z
4 1/2+x,1/2-y,1/2+z
_cell_length_a                   9.5126(10)
_cell_length_b                   24.370(3)
_cell_length_c                   11.7544(12)
_cell_angle_alpha                90
_cell_angle_beta                 111.403(2)
_cell_angle_gamma                90
_cell_volume                     2537.01
loop_
_atom_site_label
_atom_site_type_symbol
_atom_site_fract_x
_atom_site_fract_y
_atom_site_fract_z
C1 C 0.2037(6) 0.1954(2) 0.5303(4)
H1 H 0.2213 0.2115 0.4650
C2 C 0.3064(6) 0.1898(2) 0.6431(4)
H2 H 0.4068 0.2009 0.6702
C3 C 0.0927(6) 0.15676(19) 0.6360(4)
H3 H 0.0190 0.1409 0.6600
C4 C 0.2956(6) 0.15205(19) 0.8372(4)
C5 C 0.4137(6) 0.1820(2) 0.9164(4)
H4 H 0.4545 0.2108 0.8864
C6 C 0.4719(6) 0.1701(2) 1.0385(5)
H5 H 0.5531 0.1899 1.0912
C7 C 0.4091(7) 0.1288(3) 1.0819(5)
C8 C 0.2893(9) 0.0999(3) 1.0065(6)
H6 H 0.2456 0.0726 1.0379
C9 C 0.2326(8) 0.1114(3) 0.8825(5)
H7 H 0.1515 0.0914 0.8301
C10 C 0.4050(8) 0.0855(3) 1.2641(5)
C11 C 0.3206(12) 0.1095(3) 1.3171(10)
H8 H 0.3014 0.1469 1.3064
C12 C 0.2609(10) 0.0798(3) 1.3877(8)
H9 H 0.2009 0.0968 1.4244
C13 C 0.2905(7) 0.0246(2) 1.4037(5)
C14 C 0.3755(8) -0.0007(3) 1.3474(6)
H10 H 0.3946 -0.0381 1.3573
C15 C 0.4335(9) 0.0304(3) 1.2746(6)
H11 H 0.4902 0.0139 1.2342
C16 C 0.2260(6) -0.05916(19) 1.4937(4)
H12 H 0.2470 -0.0842 1.4423
C17 C 0.2015(10) 0.0175(3) 1.5768(7)
H13 H 0.2016 0.0546 1.5959
C18 C 0.1652(9) -0.0247(3) 1.6338(6)
H14 H 0.1332 -0.0214 1.6994
C19 C -0.3536(5) 0.22143(18) 0.4125(4)
C20 C -0.4719(5) 0.26030(17) 0.4186(4)
C21 C -0.5793(5) 0.27966(18) 0.3118(4)
H15 H -0.5805 0.2674 0.2365
C22 C -0.6855(5) 0.3175(2) 0.3178(4)
C23 C -0.6857(6) 0.33470(19) 0.4291(4)
H16 H -0.7575 0.3599 0.4326
C24 C -0.5792(5) 0.31457(19) 0.5360(4)
C25 C -0.4725(5) 0.27735(18) 0.5304(4)
H17 H -0.4009 0.2637 0.6021
C26 C -0.5853(6) 0.3300(2) 0.6571(4)
Cd1 Cd -0.14417(4) 0.157964(13) 0.36302(3)
N1 N 0.0689(5) 0.17391(17) 0.5253(3)
N2 N 0.2353(5) 0.16470(15) 0.7103(3)
N3 N 0.2380(6) -0.00467(17) 1.4856(4)
N4 N 0.1815(5) -0.07287(17) 1.5823(4)
O1 O -0.3280(3) 0.21916(13) 0.3149(3)
O2 O -0.2807(4) 0.19246(14) 0.5036(3)
O3 O -0.6712(4) 0.36800(16) 0.6636(3)
O4 O -0.5109(4) 0.30220(15) 0.7485(3)
O5 O -0.7932(5) 0.33899(15) 0.2149(3)
H18 H -0.7874 0.3242 0.1541
O6 O 0.4800(5) 0.11720(18) 1.2051(4)
Cd1B Cd 0.14417(4) -0.157964(13) 1.63698(3)
Cd1C Cd -0.64417(4) 0.342036(13) 0.86302(3)
N4B N -0.1815(5) 0.07287(17) 0.4177(4)
O3C O -0.1712(4) 0.13200(16) 0.1636(3)
O4C O -0.0109(4) 0.19780(15) 0.2485(3)
O7 O 0.145(3) 0.4630(5) 0.5189(13)
H19 H 0.2285 0.4771 0.5219
H20 H 0.0753 0.4728 0.4532
O8 O 0.052(2) 0.9845(7) 0.9191(14)
H21 H 0.0931 0.9912 0.9951
H22 H 0.0629 0.9506 0.9080
loop_
_geom_bond_atom_site_label_1
_geom_bond_atom_site_label_2
_geom_bond_site_symmetry_1
_geom_bond_site_symmetry_2
C1 H1 1_555 1_555
C2 C1 1_555 1_555
H2 C2 1_555 1_555
C3 H3 1_555 1_555
C4 C5 1_555 1_555
C5 H4 1_555 1_555
C6 C5 1_555 1_555
H5 C6 1_555 1_555
C7 C6 1_555 1_555
C8 C7 1_555 1_555
H6 C8 1_555 1_555
C9 C4 1_555 1_555
H7 C9 1_555 1_555
C10 C11 1_555 1_555
C11 H8 1_555 1_555
C12 C11 1_555 1_555
H9 C12 1_555 1_555
C13 C12 1_555 1_555
C14 C13 1_555 1_555
H10 C14 1_555 1_555
C15 C10 1_555 1_555
H11 C15 1_555 1_555
C16 H12 1_555 1_555
C17 H13 1_555 1_555
C18 C17 1_555 1_555
H14 C18 1_555 1_555
C19 C20 1_555 1_555
C20 C21 1_555 1_555
C21 H15 1_555 1_555
C22 C21 1_555 1_555
C23 C22 1_555 1_555
H16 C23 1_555 1_555
C24 C23 1_555 1_555
C25 C20 1_555 1_555
H17 C25 1_555 1_555
C26 C24 1_555 1_555
Cd1 N1 1_555 1_555
N1 C1 1_555 1_555
N2 C2 1_555 1_555
N3 C13 1_555 1_555
N4 C16 1_555 1_555
O1 C19 1_555 1_555
O2 C19 1_555 1_555
O3 C26 1_555 1_555
O4 C26 1_555 1_555
O5 C22 1_555 1_555
H18 O5 1_555 1_555
O6 C7 1_555 1_555
O7 H19 1_555 1_555
H20 O7 1_555 1_555
O8 H21 1_555 1_555
H22 O8 1_555 1_555
Cd1B N4 1_555 1_555
Cd1C O3 1_555 1_555
N4B Cd1 1_555 1_555
O3C Cd1 1_555 1_555
O4C Cd1 1_555 1_555
C3 N1 1_555 1_555
C3 N2 1_555 1_555
C4 N2 1_555 1_555
C8 C9 1_555 1_555
C10 O6 1_555 1_555
C14 C15 1_555 1_555
C16 N3 1_555 1_555
C17 N3 1_555 1_555
C18 N4 1_555 1_555
C24 C25 1_555 1_555
Cd1 O1 1_555 1_555
Cd1 O2 1_555 1_555
O4 Cd1C 1_555 1_555

#END
