
#######################################################################
#
#                 Cambridge Crystallographic Data Centre
#                                CCDC 
#
#######################################################################
#
# If this CIF has been generated from an entry in the Cambridge 
# Structural Database, then it will include bibliographic, chemical, 
# crystal, experimental, refinement or atomic coordinate data resulting 
# from the CCDC's data processing and validation procedures.
#
#######################################################################

data_IXOJAH
_symmetry_cell_setting           monoclinic
_symmetry_space_group_name_H-M   'P 21/c'
_symmetry_Int_Tables_number      14
_space_group_name_Hall           '-P 2ybc'
loop_
_symmetry_equiv_pos_site_id
_symmetry_equiv_pos_as_xyz
1 x,y,z
2 -x,1/2+y,1/2-z
3 -x,-y,-z
4 x,1/2-y,1/2+z
_cell_length_a                   11.7405(10)
_cell_length_b                   19.0544(18)
_cell_length_c                   19.8722(18)
_cell_angle_alpha                90
_cell_angle_beta                 97.039(2)
_cell_angle_gamma                90
_cell_volume                     4412.07
loop_
_atom_site_label
_atom_site_type_symbol
_atom_site_fract_x
_atom_site_fract_y
_atom_site_fract_z
N1 N 1.5080(2) 0.65873(14) -0.36373(13)
C1 C 1.5161(3) 0.5941(2) -0.39188(17)
H1 H 1.5645 0.5829 -0.4240
C2 C 1.4309(3) 0.65172(17) -0.32193(15)
H2 H 1.4078 0.6879 -0.2953
C3 C 1.4446(3) 0.54866(19) -0.36684(16)
H3 H 1.4348 0.5014 -0.3778
N2 N 1.3890(2) 0.58601(14) -0.32194(12)
C4 C 1.3039(2) 0.56048(17) -0.28230(15)
C5 C 1.2217(3) 0.60486(18) -0.26319(17)
H4 H 1.2212 0.6517 -0.2763
C6 C 1.3025(3) 0.49043(17) -0.26412(15)
H5 H 1.3572 0.4598 -0.2773
C7 C 1.2201(3) 0.46636(17) -0.22660(15)
H6 H 1.2184 0.4191 -0.2150
N3 N 1.4475(2) 0.68114(13) -0.10361(12)
C8 C 1.5105(2) 0.66916(17) -0.15257(15)
H7 H 1.5232 0.7020 -0.1854
C9 C 1.5170(3) 0.57190(18) -0.09528(15)
H8 H 1.5328 0.5263 -0.0803
N4 N 1.5545(2) 0.60372(13) -0.14976(12)
C10 C 1.6282(2) 0.57344(16) -0.19435(14)
C11 C 1.7204(3) 0.61038(17) -0.21177(15)
H9 H 1.7348 0.6554 -0.1947
C12 C 1.6083(3) 0.50624(16) -0.21804(15)
H10 H 1.5472 0.4806 -0.2052
C13 C 1.7921(3) 0.58147(17) -0.25421(16)
H11 H 1.8545 0.6068 -0.2659
C14 C 1.6790(3) 0.47701(17) -0.26075(15)
H12 H 1.6651 0.4318 -0.2773
O1 O 1.76997(18) 0.75944(12) -0.30764(10)
O2 O 1.60083(19) 0.79701(13) -0.28796(10)
C15 C 1.7046(3) 0.78381(16) -0.26856(15)
C16 C 1.7476(2) 0.79495(15) -0.19471(14)
C17 C 1.6720(2) 0.81117(15) -0.14848(14)
H13 H 1.5961 0.8223 -0.1638
O3 O 1.34059(18) 0.80825(11) -0.18186(10)
C18 C 1.2382(3) 0.79190(16) -0.20104(15)
C19 C 1.1969(2) 0.79508(15) -0.27568(14)
Mn1 Mn 1.59072(4) 0.75781(3) -0.39269(2)
Mn2 Mn 1.36147(4) 0.78063(2) -0.07628(2)
O4 O 2.01232(16) 0.77331(12) -0.07689(10)
H14 H 2.0513 0.7657 -0.1095
N5 N 2.1775(2) 0.56011(13) -0.47388(12)
O5 O 1.17203(19) 0.76993(12) -0.16128(10)
O6 O 1.28650(17) 0.77688(11) -0.50193(10)
C20 C 1.9013(2) 0.78483(16) -0.10281(15)
O7 O 1.52236(17) 0.82901(12) -0.04939(10)
C21 C 1.0442(2) 0.78050(16) -0.36766(15)
O8 O 1.66343(17) 0.80103(11) 0.03215(10)
O9 O 1.42800(17) 0.80324(12) -0.42064(10)
N6 N 2.2850(2) 0.62506(14) -0.53334(12)
N7 N 0.6677(2) 0.64853(14) 0.06427(12)
C22 C 1.8241(2) 0.79842(15) -0.05714(14)
H15 H 1.8493 0.7992 -0.0109
C23 C 1.1231(2) 0.78472(15) -0.41354(14)
H16 H 1.0988 0.7805 -0.4597
C24 C 1.3247(3) 0.79165(15) -0.44162(15)
C25 C 1.8616(2) 0.78129(15) -0.17107(14)
H17 H 1.9123 0.7695 -0.2018
C26 C 1.2389(2) 0.79525(14) -0.39111(13)
C27 C 1.6249(3) 0.81445(16) -0.02834(16)
C28 C 0.7412(2) 0.64387(17) 0.01956(15)
H18 H 0.7692 0.6825 -0.0019
C29 C 1.0172(3) 0.56996(18) -0.09226(17)
H19 H 1.0823 0.5959 -0.0983
C30 C 2.0904(2) 0.54191(16) -0.43223(14)
C31 C 1.7095(2) 0.81086(15) -0.07971(14)
N8 N 0.7713(2) 0.57748(14) 0.00829(12)
C32 C 2.2030(3) 0.62456(18) -0.49450(15)
H20 H 2.1660 0.6649 -0.4823
C33 C 0.8239(3) 0.49310(16) -0.07435(15)
H21 H 0.7588 0.4671 -0.0684
C34 C 0.8480(2) 0.55388(17) -0.03807(15)
C35 C 0.9440(3) 0.59175(17) -0.04670(15)
H22 H 0.9604 0.6326 -0.0217
C36 C 2.2501(3) 0.51557(18) -0.50209(18)
H23 H 2.2538 0.4670 -0.4976
C37 C 2.0920(3) 0.47721(16) -0.40175(15)
H24 H 2.1502 0.4455 -0.4076
O10 O 0.93299(17) 0.76894(13) -0.39271(10)
H25 H 0.8925 0.8022 -0.3799
O11 O 1.8378(2) 0.47771(12) -0.31836(12)
C38 C 1.0820(2) 0.78460(16) -0.29905(15)
H26 H 1.0292 0.7802 -0.2680
C39 C 1.2749(2) 0.80204(14) -0.32260(13)
H27 H 1.3517 0.8113 -0.3078
O12 O 1.0585(2) 0.47857(12) -0.17276(13)
C40 C 2.0079(3) 0.45922(17) -0.36261(15)
H28 H 2.0096 0.4153 -0.3420
C41 C 1.4527(3) 0.61950(18) -0.06750(16)
H29 H 1.4165 0.6118 -0.0291
C42 C 1.9219(3) 0.50531(17) -0.35371(16)
C43 C 0.7114(3) 0.53600(19) 0.04811(16)
H30 H 0.7135 0.4873 0.0513
C44 C 0.6488(3) 0.58030(19) 0.08179(16)
H31 H 0.5995 0.5665 0.1126
C45 C 1.9187(3) 0.57050(18) -0.38427(16)
H32 H 1.8604 0.6021 -0.3784
C46 C 2.3150(3) 0.5563(2) -0.53773(18)
H33 H 2.3724 0.5397 -0.5620
C47 C 2.0039(3) 0.58810(17) -0.42388(15)
H34 H 2.0022 0.6317 -0.4450
C48 C 1.1393(3) 0.58064(19) -0.22455(18)
H35 H 1.0842 0.6111 -0.2114
C49 C 0.8959(3) 0.47091(16) -0.11931(15)
H36 H 0.8799 0.4297 -0.1438
C50 C 0.9919(3) 0.50953(17) -0.12823(16)
C51 C 1.1398(3) 0.51151(18) -0.20596(17)
C52 C 1.7705(3) 0.51477(17) -0.27907(16)
Mn1C Mn 1.59072(4) 0.74219(3) 0.10731(2)
Mn1C_2 Mn 0.59072(4) 0.74219(3) 0.10731(2)
Mn2C Mn 1.36147(4) 0.71937(2) -0.57628(2)
Mn2C_2 Mn 2.36147(4) 0.71937(2) -0.57628(2)
O6C O 1.28650(17) 0.72312(11) -0.00193(10)
O8C O 1.66343(17) 0.69897(11) -0.46785(10)
N6C N 1.2850(2) 0.87494(14) -0.03334(12)
N7C N 1.6677(2) 0.85147(14) -0.43573(12)
loop_
_geom_bond_atom_site_label_1
_geom_bond_atom_site_label_2
_geom_bond_site_symmetry_1
_geom_bond_site_symmetry_2
N1 C1 1_555 1_555
C1 H1 1_555 1_555
C2 N1 1_555 1_555
H2 C2 1_555 1_555
C3 C1 1_555 1_555
H3 C3 1_555 1_555
N2 C2 1_555 1_555
C4 N2 1_555 1_555
C5 C4 1_555 1_555
H4 C5 1_555 1_555
C6 C4 1_555 1_555
H5 C6 1_555 1_555
C7 C6 1_555 1_555
H6 C7 1_555 1_555
N3 C8 1_555 1_555
C8 H7 1_555 1_555
C9 H8 1_555 1_555
N4 C8 1_555 1_555
C10 N4 1_555 1_555
C11 C10 1_555 1_555
H9 C11 1_555 1_555
C12 C10 1_555 1_555
H10 C12 1_555 1_555
C13 C11 1_555 1_555
H11 C13 1_555 1_555
C14 C12 1_555 1_555
H12 C14 1_555 1_555
O1 C15 1_555 1_555
O2 C15 1_555 1_555
C15 C16 1_555 1_555
C16 C17 1_555 1_555
C17 H13 1_555 1_555
O3 C18 1_555 1_555
C18 C19 1_555 1_555
C19 C38 1_555 1_555
Mn1 N1 1_555 1_555
Mn2 N3 1_555 1_555
O4 H14 1_555 1_555
N5 C30 1_555 1_555
O5 C18 1_555 1_555
O6 C24 1_555 1_555
C20 O4 1_555 1_555
O7 Mn2 1_555 1_555
C21 C23 1_555 1_555
O8 C27 1_555 1_555
O9 Mn1 1_555 1_555
N6 C32 1_555 1_555
N7 C28 1_555 1_555
C22 C20 1_555 1_555
H15 C22 1_555 1_555
C23 H16 1_555 1_555
C24 O9 1_555 1_555
C25 C16 1_555 1_555
H17 C25 1_555 1_555
C26 C23 1_555 1_555
C27 O7 1_555 1_555
C28 H18 1_555 1_555
C29 H19 1_555 1_555
C30 C37 1_555 1_555
C31 C17 1_555 1_555
N8 C28 1_555 1_555
C32 N5 1_555 1_555
H20 C32 1_555 1_555
C33 H21 1_555 1_555
C34 N8 1_555 1_555
C35 C29 1_555 1_555
H22 C35 1_555 1_555
C36 N5 1_555 1_555
H23 C36 1_555 1_555
C37 H24 1_555 1_555
O10 C21 1_555 1_555
H25 O10 1_555 1_555
O11 C42 1_555 1_555
C38 C21 1_555 1_555
H26 C38 1_555 1_555
C39 C19 1_555 1_555
H27 C39 1_555 1_555
O12 C50 1_555 1_555
C40 C37 1_555 1_555
H28 C40 1_555 1_555
C41 N3 1_555 1_555
H29 C41 1_555 1_555
C42 C40 1_555 1_555
C43 N8 1_555 1_555
H30 C43 1_555 1_555
C44 N7 1_555 1_555
H31 C44 1_555 1_555
C45 C42 1_555 1_555
H32 C45 1_555 1_555
C46 N6 1_555 1_555
H33 C46 1_555 1_555
C47 C30 1_555 1_555
H34 C47 1_555 1_555
C48 C5 1_555 1_555
H35 C48 1_555 1_555
C49 C33 1_555 1_555
H36 C49 1_555 1_555
C50 C29 1_555 1_555
C51 C7 1_555 1_555
C52 C13 1_555 1_555
Mn1C O8 1_555 1_555
Mn1C_2 N7 1_555 1_555
Mn2C O6 1_555 1_555
Mn2C_2 N6 1_555 1_555
O6C Mn2 1_555 1_555
O8C Mn1 1_555 1_555
N6C Mn2 1_555 1_555
N7C Mn1 1_555 1_555
C3 N2 1_555 1_555
C9 N4 1_555 1_555
C9 C41 1_555 1_555
C14 C52 1_555 1_555
O1 Mn1 1_555 1_555
O2 Mn1 1_555 1_555
O3 Mn2 1_555 1_555
Mn2 O5 1_555 1_555
C20 C25 1_555 1_555
C22 C31 1_555 1_555
C24 C26 1_555 1_555
C26 C39 1_555 1_555
C27 C31 1_555 1_555
C33 C34 1_555 1_555
C34 C35 1_555 1_555
C36 C46 1_555 1_555
O11 C52 1_555 1_555
O12 C51 1_555 1_555
C43 C44 1_555 1_555
C45 C47 1_555 1_555
C48 C51 1_555 1_555
C49 C50 1_555 1_555

#END
