
#######################################################################
#
#                 Cambridge Crystallographic Data Centre
#                                CCDC 
#
#######################################################################
#
# If this CIF has been generated from an entry in the Cambridge 
# Structural Database, then it will include bibliographic, chemical, 
# crystal, experimental, refinement or atomic coordinate data resulting 
# from the CCDC's data processing and validation procedures.
#
#######################################################################

data_IXOJEL
_symmetry_cell_setting           monoclinic
_symmetry_space_group_name_H-M   'P 21/c'
_symmetry_Int_Tables_number      14
_space_group_name_Hall           '-P 2ybc'
loop_
_symmetry_equiv_pos_site_id
_symmetry_equiv_pos_as_xyz
1 x,y,z
2 -x,1/2+y,1/2-z
3 -x,-y,-z
4 x,1/2-y,1/2+z
_cell_length_a                   8.5856(12)
_cell_length_b                   18.375(3)
_cell_length_c                   24.508(3)
_cell_angle_alpha                90
_cell_angle_beta                 90.730(3)
_cell_angle_gamma                90
_cell_volume                     3866.08
loop_
_atom_site_label
_atom_site_type_symbol
_atom_site_fract_x
_atom_site_fract_y
_atom_site_fract_z
C1 C 0.9417(4) 0.15591(16) 0.10298(11)
C2 C 0.7030(4) 0.17416(15) 0.16184(11)
H1 H 0.6425 0.1804 0.1305
C3 C 0.7265(4) 0.16995(16) 0.25901(11)
H2 H 0.6806 0.1709 0.2932
C4 C 0.6335(4) 0.17663(16) 0.21275(11)
C5 C 0.9530(4) 0.15667(15) 0.20453(11)
H3 H 1.0598 0.1493 0.2018
C6 C 0.8619(3) 0.16250(15) 0.15753(11)
C7 C 0.4610(4) 0.18526(17) 0.21643(12)
C8 C 0.8861(3) 0.16181(15) 0.25552(11)
C9 C 0.9859(4) 0.15856(16) 0.30658(11)
C10 C 1.8972(4) -0.16498(18) 0.38699(13)
H4 H 1.9018 -0.2101 0.3699
C11 C 1.8662(5) -0.0506(2) 0.39984(13)
H5 H 1.8462 -0.0013 0.3948
C12 C 1.9128(4) -0.08308(19) 0.44651(13)
H6 H 1.9292 -0.0592 0.4796
C13 C 1.8115(4) -0.09603(17) 0.30513(12)
C14 C 1.7373(4) -0.07925(18) 0.19633(12)
C15 C 1.7683(4) -0.02915(18) 0.28521(12)
H7 H 1.7638 0.0106 0.3087
C16 C 1.7312(4) -0.02035(18) 0.23040(12)
H8 H 1.7024 0.0251 0.2169
C17 C 1.8181(4) -0.15440(19) 0.27048(13)
H9 H 1.8484 -0.1997 0.2838
C18 C 1.7802(4) -0.14648(19) 0.21607(13)
H10 H 1.7835 -0.1864 0.1928
C19 C 1.4832(4) 0.08783(16) 0.05805(11)
C20 C 1.6376(4) -0.01777(17) 0.11636(12)
C21 C 1.6291(4) 0.06576(18) 0.04236(12)
H11 H 1.6758 0.0869 0.0122
C22 C 1.4144(4) 0.05728(17) 0.10286(12)
H12 H 1.3156 0.0721 0.1132
C23 C 1.7059(4) 0.01212(17) 0.07155(12)
H13 H 1.8037 -0.0036 0.0608
C24 C 1.4931(4) 0.00431(17) 0.13256(12)
H14 H 1.4480 -0.0161 0.1633
C25 C 1.2847(3) 0.18383(17) 0.04421(12)
H15 H 1.2535 0.1866 0.0804
C26 C 1.3014(4) 0.20149(18) -0.04127(12)
H16 H 1.2817 0.2191 -0.0763
C27 C 1.4143(4) 0.15409(18) -0.02801(12)
H17 H 1.4864 0.1335 -0.0514
C28 C 0.7144(4) 0.35070(18) -0.04103(12)
H18 H 0.7695 0.3644 -0.0718
C29 C 0.6539(4) 0.30370(18) 0.03507(13)
H19 H 0.6605 0.2776 0.0675
C30 C 0.5263(4) 0.33950(18) 0.01730(13)
H20 H 0.4312 0.3434 0.0348
C31 C 0.3718(4) 0.46486(18) -0.04260(12)
H21 H 0.3584 0.4650 -0.0050
C32 C 0.4723(4) 0.41626(17) -0.06599(12)
C33 C 0.2911(4) 0.51329(18) -0.07483(12)
H22 H 0.2213 0.5455 -0.0591
C34 C 0.4102(4) 0.4652(2) -0.15374(12)
H23 H 0.4229 0.4650 -0.1914
C35 C 0.4898(4) 0.4156(2) -0.12152(12)
H24 H 0.5554 0.3817 -0.1375
C36 C 0.1734(4) 0.59925(17) -0.32280(12)
C37 C 0.1249(4) 0.53454(18) -0.30020(12)
H25 H 0.0730 0.5001 -0.3215
C38 C 0.2581(5) 0.6476(2) -0.29236(13)
H26 H 0.2980 0.6893 -0.3085
C39 C 0.1545(4) 0.52160(19) -0.24526(13)
H27 H 0.1236 0.4779 -0.2296
C40 C 0.2847(5) 0.6344(2) -0.23715(14)
H28 H 0.3405 0.6677 -0.2160
C41 C 0.2282(4) 0.57228(19) -0.21438(12)
C42 C 0.0934(4) 0.56834(17) -0.41897(11)
H29 H 0.0940 0.5178 -0.4170
C43 C 0.0532(4) 0.60940(17) -0.46247(12)
H30 H 0.0207 0.5912 -0.4961
C44 C 0.1149(4) 0.68418(17) -0.39910(12)
H31 H 0.1339 0.7268 -0.3797
C45 C 0.3133(4) 0.51435(17) -0.13039(12)
N1 N 0.7731(3) 0.31104(13) -0.00133(9)
N2 N 0.5657(3) 0.36922(14) -0.03217(9)
N3 N 0.0672(3) 0.68201(13) -0.45002(9)
N4 N 0.1332(3) 0.61628(14) -0.37822(9)
N5 N 1.2190(3) 0.22036(13) 0.00419(9)
N6 N 1.4022(3) 0.14196(13) 0.02696(9)
N7 N 1.8540(3) -0.10381(14) 0.36143(10)
N8 N 1.9324(3) -0.15494(14) 0.43852(9)
Ni1 Ni 0.99525(5) 0.26504(2) 0.004604(14)
O1 O 1.0696(2) 0.33514(11) -0.05910(7)
H32 H 1.1468 0.3586 -0.0461
H33 H 1.0124 0.3663 -0.0753
O2 O 0.9101(2) 0.20650(12) 0.06977(8)
O3 O 1.0315(3) 0.10448(11) 0.09671(8)
O4 O 1.1280(3) 0.16829(14) 0.30301(8)
O5 O 0.9155(3) 0.14720(13) 0.35040(7)
O6 O 0.4124(3) 0.17578(14) 0.26674(9)
H34 H 0.3141 0.1811 0.2671
O7 O 0.3755(3) 0.19852(14) 0.17863(9)
O8 O 1.7148(3) -0.07619(12) 0.14044(8)
O9 O 0.2344(3) 0.56846(13) -0.15761(8)
N3A N 0.9328(3) 0.18201(13) -0.04998(9)
N8A N 1.0676(3) 0.34506(14) 0.06148(9)
Ni1A Ni 0.00475(5) 0.76504(2) -0.504604(14)
Ni1A_2 Ni 2.00475(5) -0.23496(2) 0.495396(14)
loop_
_geom_bond_atom_site_label_1
_geom_bond_atom_site_label_2
_geom_bond_site_symmetry_1
_geom_bond_site_symmetry_2
C1 C6 1_555 1_555
C2 H1 1_555 1_555
C3 H2 1_555 1_555
C4 C2 1_555 1_555
C5 H3 1_555 1_555
C6 C2 1_555 1_555
C7 C4 1_555 1_555
C8 C3 1_555 1_555
C9 C8 1_555 1_555
C10 H4 1_555 1_555
C11 H5 1_555 1_555
C12 C11 1_555 1_555
H6 C12 1_555 1_555
C13 C15 1_555 1_555
C14 C16 1_555 1_555
C15 H7 1_555 1_555
C16 C15 1_555 1_555
H8 C16 1_555 1_555
C17 C13 1_555 1_555
H9 C17 1_555 1_555
C18 C14 1_555 1_555
H10 C18 1_555 1_555
C19 C21 1_555 1_555
C20 C23 1_555 1_555
C21 H11 1_555 1_555
C22 C19 1_555 1_555
H12 C22 1_555 1_555
C23 C21 1_555 1_555
H13 C23 1_555 1_555
C24 C20 1_555 1_555
H14 C24 1_555 1_555
C25 H15 1_555 1_555
C26 H16 1_555 1_555
C27 C26 1_555 1_555
H17 C27 1_555 1_555
C28 H18 1_555 1_555
C29 H19 1_555 1_555
C30 C29 1_555 1_555
H20 C30 1_555 1_555
C31 H21 1_555 1_555
C32 C31 1_555 1_555
C33 C31 1_555 1_555
H22 C33 1_555 1_555
C34 H23 1_555 1_555
C35 C32 1_555 1_555
H24 C35 1_555 1_555
C36 C37 1_555 1_555
C37 H25 1_555 1_555
C38 C36 1_555 1_555
H26 C38 1_555 1_555
C39 C37 1_555 1_555
H27 C39 1_555 1_555
C40 C38 1_555 1_555
H28 C40 1_555 1_555
C41 C39 1_555 1_555
C42 H29 1_555 1_555
C43 C42 1_555 1_555
H30 C43 1_555 1_555
C44 H31 1_555 1_555
C45 C33 1_555 1_555
N1 C28 1_555 1_555
N2 C28 1_555 1_555
N3 C43 1_555 1_555
N4 C36 1_555 1_555
N5 C25 1_555 1_555
N6 C19 1_555 1_555
N7 C10 1_555 1_555
N8 C10 1_555 1_555
Ni1 N1 1_555 1_555
O1 Ni1 1_555 1_555
H32 O1 1_555 1_555
H33 O1 1_555 1_555
O2 C1 1_555 1_555
O3 C1 1_555 1_555
O4 C9 1_555 1_555
O5 C9 1_555 1_555
O6 C7 1_555 1_555
H34 O6 1_555 1_555
O7 C7 1_555 1_555
O8 C14 1_555 1_555
O9 C41 1_555 1_555
N3A Ni1 1_555 1_555
N8A Ni1 1_555 1_555
Ni1A N3 1_555 1_555
Ni1A_2 N8 1_555 1_555
C3 C4 1_555 1_555
C5 C6 1_555 1_555
C5 C8 1_555 1_555
C11 N7 1_555 1_555
C12 N8 1_555 1_555
C13 N7 1_555 1_555
C17 C18 1_555 1_555
C20 O8 1_555 1_555
C22 C24 1_555 1_555
C25 N6 1_555 1_555
C26 N5 1_555 1_555
C27 N6 1_555 1_555
C29 N1 1_555 1_555
C30 N2 1_555 1_555
C32 N2 1_555 1_555
C34 C35 1_555 1_555
C34 C45 1_555 1_555
C40 C41 1_555 1_555
C42 N4 1_555 1_555
C44 N3 1_555 1_555
C44 N4 1_555 1_555
C45 O9 1_555 1_555
N5 Ni1 1_555 1_555
Ni1 O2 1_555 1_555

#END
