
#######################################################################
#
#                 Cambridge Crystallographic Data Centre
#                                CCDC 
#
#######################################################################
#
# If this CIF has been generated from an entry in the Cambridge 
# Structural Database, then it will include bibliographic, chemical, 
# crystal, experimental, refinement or atomic coordinate data resulting 
# from the CCDC's data processing and validation procedures.
#
#######################################################################

data_IXOTAR
_symmetry_cell_setting           monoclinic
_symmetry_space_group_name_H-M   'P 21/c'
_symmetry_Int_Tables_number      14
_space_group_name_Hall           '-P 2ybc'
loop_
_symmetry_equiv_pos_site_id
_symmetry_equiv_pos_as_xyz
1 x,y,z
2 -x,1/2+y,1/2-z
3 -x,-y,-z
4 x,1/2-y,1/2+z
_cell_length_a                   18.024(4)
_cell_length_b                   8.8120(18)
_cell_length_c                   18.516(4)
_cell_angle_alpha                90
_cell_angle_beta                 98.37(3)
_cell_angle_gamma                90
_cell_volume                     2909.53
loop_
_atom_site_label
_atom_site_type_symbol
_atom_site_fract_x
_atom_site_fract_y
_atom_site_fract_z
O1 O 0.22011(16) 0.7185(4) 0.29389(17)
Zn1 Zn 0.25500(2) 0.85235(5) 0.37477(2)
O2 O 0.35468(15) 1.0072(3) 0.30026(16)
O3 O 0.29396(14) 1.0579(3) 0.39219(14)
C1 C 0.46690(19) 0.5451(4) 0.48433(19)
N1 N 0.16438(17) 0.8824(4) 0.43056(18)
N2 N 0.34157(16) 0.7157(4) 0.42441(17)
C2 C 0.33777(18) 1.0952(4) 0.3470(2)
C3 C 0.03445(18) 0.9743(4) 0.48603(19)
O4 O 0.16910(17) 0.9233(4) 0.2406(2)
C4 C 0.1810(2) 0.7849(6) 0.2410(2)
C5 C 0.5093(2) 1.2043(5) 0.3533(2)
C6 C 0.1661(2) 0.9918(5) 0.4804(2)
H1 H 0.2117 1.0389 0.4965
C7 C 0.0025(2) 0.7504(4) 0.14905(19)
C8 C 0.0330(2) 0.8597(4) 0.4342(3)
H2 H -0.0119 0.8110 0.4171
N3 N 0.5315(2) 1.3785(4) 0.2709(2)
H3 H 0.5535 1.4346 0.2424
N4 N -0.0401(2) 0.5827(4) 0.2237(2)
H4 H -0.0691 0.5314 0.2476
C9 C 0.3413(2) 0.6322(5) 0.4842(2)
H5 H 0.2981 0.6316 0.5063
C10 C 0.4408(2) 1.2797(4) 0.3275(2)
C11 C -0.0626(2) 0.6956(4) 0.1746(2)
C12 C 0.1036(2) 1.0385(5) 0.5093(2)
H6 H 0.1081 1.1139 0.5448
C13 C 0.5653(2) 1.2694(5) 0.3165(2)
C14 C 0.0642(2) 0.6635(5) 0.1848(2)
C15 C 0.6393(2) 1.2214(6) 0.3289(3)
H7 H 0.6752 1.2643 0.3037
C16 C 0.4011(2) 0.5472(5) 0.5150(2)
H8 H 0.3977 0.4904 0.5567
C17 C -0.1328(2) 0.7539(6) 0.1507(3)
H9 H -0.1751 0.7176 0.1687
C18 C 0.3666(2) 1.2557(5) 0.3536(3)
H10 H 0.3298 1.3217 0.3260
H11 H 0.3713 1.2860 0.4044
C19 C 0.4664(2) 0.6306(5) 0.4217(2)
H12 H 0.5087 0.6329 0.3983
C20 C 0.4570(3) 1.3847(5) 0.2777(3)
H13 H 0.4224 1.4507 0.2522
C21 C 0.5299(2) 1.0893(5) 0.4043(2)
H14 H 0.4945 1.0453 0.4297
C22 C -0.1381(3) 0.8659(6) 0.1002(3)
H15 H -0.1850 0.9067 0.0833
C23 C 0.1457(2) 0.6850(6) 0.1789(3)
H16 H 0.1509 0.7320 0.1326
H17 H 0.1708 0.5874 0.1813
C24 C -0.0048(3) 0.8662(5) 0.0973(2)
H18 H 0.0371 0.9050 0.0797
C25 C 0.0977(2) 0.8179(5) 0.4079(3)
H19 H 0.0950 0.7416 0.3729
C26 C 0.4041(2) 0.7117(6) 0.3942(2)
H20 H 0.4055 0.7675 0.3517
C27 C 0.0352(3) 0.5646(5) 0.2288(3)
H21 H 0.0630 0.4937 0.2586
C28 C 0.6578(3) 1.1104(7) 0.3786(3)
H22 H 0.7073 1.0780 0.3882
C29 C -0.0756(4) 0.9222(6) 0.0728(3)
H23 H -0.0816 0.9983 0.0376
C30 C 0.6037(3) 1.0426(6) 0.4162(3)
H24 H 0.6181 0.9652 0.4495
O1B O -0.22011(16) 1.2815(4) 0.70611(17)
Zn1B Zn -0.25500(2) 1.14765(5) 0.62523(2)
Zn1B_2 Zn 0.74500(2) 0.14765(5) 0.62523(2)
O2B O -0.35468(15) 0.9928(3) 0.69974(16)
O3B O -0.29396(14) 0.9421(3) 0.60781(14)
C1B C 0.53310(19) 0.4549(4) 0.51567(19)
N1B N -0.16438(17) 1.1176(4) 0.56944(18)
N2B N 0.65843(16) 0.2843(4) 0.57559(17)
N2B_2 N -0.34157(16) 1.2843(4) 0.57559(17)
C2B C -0.33777(18) 0.9048(4) 0.6530(2)
C3B C -0.03445(18) 1.0257(4) 0.51397(19)
O4B O -0.16910(17) 1.0767(4) 0.7594(2)
C4B C -0.1810(2) 1.2151(6) 0.7590(2)
C5B C -0.5093(2) 0.7957(5) 0.6467(2)
C6B C -0.1661(2) 1.0082(5) 0.5196(2)
H1B H -0.2117 0.9611 0.5035
C7B C -0.0025(2) 1.2496(4) 0.85095(19)
C8B C -0.0330(2) 1.1403(4) 0.5658(3)
H2B H 0.0119 1.1890 0.5829
N3B N -0.5315(2) 0.6215(4) 0.7291(2)
H3B H -0.5535 0.5654 0.7576
N4B N 0.0401(2) 1.4173(4) 0.7763(2)
H4B H 0.0691 1.4686 0.7524
C9B C 0.6587(2) 0.3678(5) 0.5158(2)
H5B H 0.7019 0.3684 0.4937
C10B C -0.4408(2) 0.7203(4) 0.6725(2)
C11B C 0.0626(2) 1.3044(4) 0.8254(2)
C12B C -0.1036(2) 0.9615(5) 0.4907(2)
H6B H -0.1081 0.8861 0.4552
C13B C -0.5653(2) 0.7306(5) 0.6835(2)
C14B C -0.0642(2) 1.3365(5) 0.8152(2)
C15B C -0.6393(2) 0.7786(6) 0.6711(3)
H7B H -0.6752 0.7357 0.6963
C16B C 0.5989(2) 0.4528(5) 0.4850(2)
H8B H 0.6023 0.5096 0.4433
C17B C 0.1328(2) 1.2461(6) 0.8493(3)
H9B H 0.1751 1.2824 0.8313
C18B C -0.3666(2) 0.7443(5) 0.6464(3)
H10B H -0.3298 0.6783 0.6740
H11B H -0.3713 0.7140 0.5956
C19B C 0.5336(2) 0.3694(5) 0.5783(2)
H12B H 0.4913 0.3671 0.6017
C20B C -0.4570(3) 0.6153(5) 0.7223(3)
H13B H -0.4224 0.5493 0.7478
C21B C -0.5299(2) 0.9107(5) 0.5957(2)
H14B H -0.4945 0.9547 0.5703
C22B C 0.1381(3) 1.1341(6) 0.8998(3)
H15B H 0.1850 1.0933 0.9167
C23B C -0.1457(2) 1.3150(6) 0.8211(3)
H16B H -0.1509 1.2680 0.8674
H17B H -0.1708 1.4126 0.8187
C24B C 0.0048(3) 1.1338(5) 0.9027(2)
H18B H -0.0371 1.0950 0.9203
C25B C -0.0977(2) 1.1821(5) 0.5921(3)
H19B H -0.0950 1.2584 0.6271
C26B C 0.5959(2) 0.2883(6) 0.6058(2)
H20B H 0.5945 0.2325 0.6483
C27B C -0.0352(3) 1.4354(5) 0.7712(3)
H21B H -0.0630 1.5063 0.7414
C28B C -0.6578(3) 0.8896(7) 0.6214(3)
H22B H -0.7073 0.9220 0.6118
C29B C 0.0756(4) 1.0778(6) 0.9272(3)
H23B H 0.0816 1.0017 0.9624
C30B C -0.6037(3) 0.9574(6) 0.5838(3)
H24B H -0.6181 1.0348 0.5505
O5 O 0.1656(8) 0.3594(19) 0.6234(7)
H25 H 0.1706 0.4317 0.6548
C31 C 0.2331(11) 0.2715(14) 0.6579(7)
H26 H 0.2409 0.2796 0.7107
H27 H 0.2308 0.1656 0.6436
C32 C 0.2870(12) 0.3532(16) 0.6257(8)
H28 H 0.2871 0.3184 0.5766
H29 H 0.3357 0.3374 0.6534
H30 H 0.2751 0.4594 0.6252
loop_
_geom_bond_atom_site_label_1
_geom_bond_atom_site_label_2
_geom_bond_site_symmetry_1
_geom_bond_site_symmetry_2
O1 Zn1 1_555 1_555
Zn1 O3 1_555 1_555
O2 C2 1_555 1_555
O3 C2 1_555 1_555
C1 C16 1_555 1_555
N1 Zn1 1_555 1_555
N2 Zn1 1_555 1_555
C2 C18 1_555 1_555
C3 C8 1_555 1_555
O4 C4 1_555 1_555
C4 O1 1_555 1_555
C5 C10 1_555 1_555
C6 N1 1_555 1_555
H1 C6 1_555 1_555
C7 C11 1_555 1_555
C8 H2 1_555 1_555
N3 H3 1_555 1_555
N4 H4 1_555 1_555
C9 N2 1_555 1_555
H5 C9 1_555 1_555
C10 C18 1_555 1_555
C11 N4 1_555 1_555
C12 C3 1_555 1_555
H6 C12 1_555 1_555
C13 C5 1_555 1_555
C14 C7 1_555 1_555
C15 C13 1_555 1_555
H7 C15 1_555 1_555
C16 C9 1_555 1_555
H8 C16 1_555 1_555
C17 C11 1_555 1_555
H9 C17 1_555 1_555
C18 H10 1_555 1_555
H11 C18 1_555 1_555
C19 C1 1_555 1_555
H12 C19 1_555 1_555
C20 N3 1_555 1_555
H13 C20 1_555 1_555
C21 C5 1_555 1_555
H14 C21 1_555 1_555
C22 C17 1_555 1_555
H15 C22 1_555 1_555
C23 C4 1_555 1_555
H16 C23 1_555 1_555
H17 C23 1_555 1_555
C24 C7 1_555 1_555
H18 C24 1_555 1_555
C25 N1 1_555 1_555
H19 C25 1_555 1_555
C26 N2 1_555 1_555
H20 C26 1_555 1_555
C27 N4 1_555 1_555
H21 C27 1_555 1_555
C28 C15 1_555 1_555
H22 C28 1_555 1_555
C29 C22 1_555 1_555
H23 C29 1_555 1_555
C30 C21 1_555 1_555
H24 C30 1_555 1_555
O5 H25 1_555 1_555
C31 O5 1_555 1_555
H26 C31 1_555 1_555
H27 C31 1_555 1_555
C32 C31 1_555 1_555
H28 C32 1_555 1_555
H29 C32 1_555 1_555
H30 C32 1_555 1_555
O1B Zn1B 1_555 1_555
Zn1B O3B 1_555 1_555
Zn1B_2 N2B 1_555 1_555
O2B C2B 1_555 1_555
O3B C2B 1_555 1_555
C1B C1 1_555 1_555
N1B Zn1B 1_555 1_555
N2B C9B 1_555 1_555
N2B_2 Zn1B 1_555 1_555
C2B C18B 1_555 1_555
C3B C3 1_555 1_555
O4B C4B 1_555 1_555
C4B O1B 1_555 1_555
C5B C10B 1_555 1_555
C6B N1B 1_555 1_555
H1B C6B 1_555 1_555
C7B C11B 1_555 1_555
C8B C3B 1_555 1_555
H2B C8B 1_555 1_555
N3B H3B 1_555 1_555
N4B H4B 1_555 1_555
C9B H5B 1_555 1_555
C10B C18B 1_555 1_555
C11B N4B 1_555 1_555
C12B C3B 1_555 1_555
H6B C12B 1_555 1_555
C13B C5B 1_555 1_555
C14B C7B 1_555 1_555
C15B C13B 1_555 1_555
H7B C15B 1_555 1_555
C16B C1B 1_555 1_555
H8B C16B 1_555 1_555
C17B C11B 1_555 1_555
H9B C17B 1_555 1_555
C18B H10B 1_555 1_555
H11B C18B 1_555 1_555
C19B C1B 1_555 1_555
H12B C19B 1_555 1_555
C20B N3B 1_555 1_555
H13B C20B 1_555 1_555
C21B C5B 1_555 1_555
H14B C21B 1_555 1_555
C22B C17B 1_555 1_555
H15B C22B 1_555 1_555
C23B C4B 1_555 1_555
H16B C23B 1_555 1_555
H17B C23B 1_555 1_555
C24B C7B 1_555 1_555
H18B C24B 1_555 1_555
C25B N1B 1_555 1_555
H19B C25B 1_555 1_555
C26B N2B 1_555 1_555
H20B C26B 1_555 1_555
C27B N4B 1_555 1_555
H21B C27B 1_555 1_555
C28B C15B 1_555 1_555
H22B C28B 1_555 1_555
C29B C22B 1_555 1_555
H23B C29B 1_555 1_555
C30B C21B 1_555 1_555
H24B C30B 1_555 1_555
C6 C12 1_555 1_555
C8 C25 1_555 1_555
N3 C13 1_555 1_555
C10 C20 1_555 1_555
C14 C23 1_555 1_555
C14 C27 1_555 1_555
C19 C26 1_555 1_555
C24 C29 1_555 1_555
C28 C30 1_555 1_555
C6B C12B 1_555 1_555
C8B C25B 1_555 1_555
N3B C13B 1_555 1_555
C9B C16B 1_555 1_555
C10B C20B 1_555 1_555
C14B C23B 1_555 1_555
C14B C27B 1_555 1_555
C19B C26B 1_555 1_555
C24B C29B 1_555 1_555
C28B C30B 1_555 1_555

#END
