
#######################################################################
#
#                 Cambridge Crystallographic Data Centre
#                                CCDC 
#
#######################################################################
#
# If this CIF has been generated from an entry in the Cambridge 
# Structural Database, then it will include bibliographic, chemical, 
# crystal, experimental, refinement or atomic coordinate data resulting 
# from the CCDC's data processing and validation procedures.
#
#######################################################################

data_IXOTEV
_symmetry_cell_setting           monoclinic
_symmetry_space_group_name_H-M   'C 2/c'
_symmetry_Int_Tables_number      15
_space_group_name_Hall           '-C 2yn'
loop_
_symmetry_equiv_pos_site_id
_symmetry_equiv_pos_as_xyz
1 x,y,z
2 -x,y,1/2-z
3 1/2+x,1/2+y,z
4 1/2-x,1/2+y,1/2-z
5 -x,-y,-z
6 x,-y,1/2+z
7 1/2-x,1/2-y,-z
8 1/2+x,1/2-y,1/2+z
_cell_length_a                   19.2902(3)
_cell_length_b                   7.62310(10)
_cell_length_c                   17.9032(2)
_cell_angle_alpha                90
_cell_angle_beta                 97.9750(10)
_cell_angle_gamma                90
_cell_volume                     2607.22
loop_
_atom_site_label
_atom_site_type_symbol
_atom_site_fract_x
_atom_site_fract_y
_atom_site_fract_z
Cd1 Cd 0.904494(7) 0.610108(19) 0.968576(7)
C1 C 0.97058(11) 0.7908(3) 1.12553(10)
H1 H 1.0127 0.8088 1.1069
C2 C 0.86792(11) 0.7179(3) 1.13787(11)
H2 H 0.8231 0.6715 1.1269
C3 C 1.0000 0.9458(4) 1.2500
H3 H 0.9697 1.0209 1.2749
C4 C 0.70947(10) 0.3590(3) 0.88596(11)
C5 C 0.70965(10) 0.3142(3) 0.81038(11)
H4 H 0.7484 0.3411 0.7869
C6 C 0.65295(10) 0.2305(3) 0.77016(11)
H5 H 0.6537 0.2003 0.7199
C7 C 0.59508(10) 0.1915(3) 0.80482(11)
H6 H 0.5567 0.1358 0.7776
C8 C 0.59373(9) 0.2350(3) 0.88018(10)
C9 C 0.65127(9) 0.3180(3) 0.92059(10)
H7 H 0.6509 0.3462 0.9711
C10 C 0.77141(10) 0.4493(3) 0.92896(11)
C11 C 0.53082(10) 0.1912(3) 0.91731(11)
N1 N 0.91523(8) 0.7114(2) 1.08897(9)
N2 N 0.95700(9) 0.8413(2) 1.19320(9)
N3 N 0.89036(9) 0.7947(2) 1.20188(9)
O1 O 0.82831(7) 0.4420(2) 0.89957(8)
O2 O 0.76749(7) 0.5258(2) 0.98950(8)
O3 O 0.53863(7) 0.1654(2) 0.98789(8)
O4 O 0.47241(7) 0.1801(2) 0.87751(9)
O5 O 0.83355(10) 0.8441(2) 0.92951(11)
H8 H 0.8088(14) 0.879(3) 0.9573(15)
H9 H 0.8440(14) 0.930(4) 0.9052(16)
Cd1A Cd 1.095506(7) 0.610108(19) 1.531424(7)
Cd1B Cd 0.404494(7) 0.110108(19) 0.968576(7)
Cd1F Cd 0.595506(7) -0.110108(19) 1.031424(7)
Cd1B_2 Cd 1.404494(7) 1.110108(19) 0.968576(7)
Cd1D Cd 1.095506(7) 0.389892(19) 1.031424(7)
C1A C 1.02942(11) 0.7908(3) 1.37447(10)
H1A H 0.9873 0.8088 1.3931
C2A C 1.13208(11) 0.7179(3) 1.36213(11)
H2A H 1.1769 0.6715 1.3731
H3A H 1.0303 1.0209 1.2251
C4B C 1.20947(10) 0.8590(3) 0.88596(11)
C5B C 1.20965(10) 0.8142(3) 0.81038(11)
H4B H 1.2484 0.8411 0.7869
C6B C 1.15295(10) 0.7305(3) 0.77016(11)
H5B H 1.1537 0.7003 0.7199
C7B C 1.09508(10) 0.6915(3) 0.80482(11)
H6B H 1.0567 0.6358 0.7776
C8B C 1.09373(9) 0.7350(3) 0.88018(10)
C9B C 1.15127(9) 0.8180(3) 0.92059(10)
H7B H 1.1509 0.8462 0.9711
C10B C 1.27141(10) 0.9493(3) 0.92896(11)
C11B C 1.03082(10) 0.6912(3) 0.91731(11)
N1A N 1.08477(8) 0.7114(2) 1.41103(9)
N2A N 1.04300(9) 0.8413(2) 1.30680(9)
N3A N 1.10964(9) 0.7947(2) 1.29812(9)
O1B O 1.32831(7) 0.9420(2) 0.89957(8)
O1A O 1.17169(7) 0.4420(2) 1.60043(8)
O2B O 1.26749(7) 1.0258(2) 0.98950(8)
O2A O 1.23251(7) 0.5258(2) 1.51050(8)
O3B O 1.03863(7) 0.6654(2) 0.98789(8)
O3F O 0.96137(7) 0.3346(2) 1.01211(8)
O3C O 0.96137(7) 0.6654(2) 1.51211(8)
O3G O 1.03863(7) 0.3346(2) 1.48789(8)
O4B O 0.97241(7) 0.6801(2) 0.87751(9)
O4C O 1.02759(7) 0.6801(2) 1.62249(9)
O5A O 1.16645(10) 0.8441(2) 1.57049(11)
H8A H 1.1912(14) 0.879(3) 1.5427(15)
H9A H 1.1560(14) 0.930(4) 1.5948(16)
O6 O 0.13055(10) 0.8765(2) 0.14626(11)
H10 H 0.1420(13) 0.782(4) 0.1319(14)
H11 H 0.1403(15) 0.871(4) 0.1868(17)
loop_
_geom_bond_atom_site_label_1
_geom_bond_atom_site_label_2
_geom_bond_site_symmetry_1
_geom_bond_site_symmetry_2
Cd1 N1 1_555 1_555
C1 H1 1_555 1_555
C2 H2 1_555 1_555
C3 H3 1_555 1_555
C4 C5 1_555 1_555
C5 H4 1_555 1_555
C6 C5 1_555 1_555
H5 C6 1_555 1_555
C7 C6 1_555 1_555
H6 C7 1_555 1_555
C8 C7 1_555 1_555
C9 C4 1_555 1_555
H7 C9 1_555 1_555
C10 C4 1_555 1_555
C11 C8 1_555 1_555
N1 C1 1_555 1_555
N2 C1 1_555 1_555
N3 C2 1_555 1_555
O1 Cd1 1_555 1_555
O2 Cd1 1_555 1_555
O3 C11 1_555 1_555
O4 C11 1_555 1_555
O5 Cd1 1_555 1_555
O6 H10 1_555 1_555
H8 O5 1_555 1_555
H9 O5 1_555 1_555
H11 O6 1_555 1_555
Cd1A N1A 1_555 1_555
Cd1B O3 1_555 1_555
Cd1F O3 1_555 1_555
Cd1B_2 O1B 1_555 1_555
Cd1D O3B 1_555 1_555
C1A H1A 1_555 1_555
C2A H2A 1_555 1_555
H3A C3 1_555 1_555
C4B C5B 1_555 1_555
C5B H4B 1_555 1_555
C6B C5B 1_555 1_555
H5B C6B 1_555 1_555
C7B C6B 1_555 1_555
H6B C7B 1_555 1_555
C8B C7B 1_555 1_555
C9B C4B 1_555 1_555
H7B C9B 1_555 1_555
C10B C4B 1_555 1_555
C11B C8B 1_555 1_555
N1A C1A 1_555 1_555
N2A C3 1_555 1_555
N3A C2A 1_555 1_555
O1B C10B 1_555 1_555
O1A Cd1A 1_555 1_555
O2B Cd1B_2 1_555 1_555
O2A Cd1A 1_555 1_555
O3B Cd1 1_555 1_555
O3F Cd1 1_555 1_555
O3C Cd1A 1_555 1_555
O3G Cd1A 1_555 1_555
O4B Cd1 1_555 1_555
O4C Cd1A 1_555 1_555
O5A Cd1A 1_555 1_555
H8A O5A 1_555 1_555
H9A O5A 1_555 1_555
C2 N1 1_555 1_555
C3 N2 1_555 1_555
C8 C9 1_555 1_555
C10 O1 1_555 1_555
C10 O2 1_555 1_555
N2 N3 1_555 1_555
O4 Cd1B 1_555 1_555
Cd1D O3F 1_555 1_555
C1A N2A 1_555 1_555
C2A N1A 1_555 1_555
C8B C9B 1_555 1_555
C10B O2B 1_555 1_555
C11B O3B 1_555 1_555
C11B O4B 1_555 1_555
N2A N3A 1_555 1_555

#END
