
#######################################################################
#
#                 Cambridge Crystallographic Data Centre
#                                CCDC 
#
#######################################################################
#
# If this CIF has been generated from an entry in the Cambridge 
# Structural Database, then it will include bibliographic, chemical, 
# crystal, experimental, refinement or atomic coordinate data resulting 
# from the CCDC's data processing and validation procedures.
#
#######################################################################

data_IXUFAJ
_symmetry_cell_setting           monoclinic
_symmetry_space_group_name_H-M   'P 21/n'
_symmetry_Int_Tables_number      14
_space_group_name_Hall           '-P 2yn'
loop_
_symmetry_equiv_pos_site_id
_symmetry_equiv_pos_as_xyz
1 x,y,z
2 1/2-x,1/2+y,1/2-z
3 -x,-y,-z
4 1/2+x,1/2-y,1/2+z
_cell_length_a                   12.5558(10)
_cell_length_b                   14.9158(13)
_cell_length_c                   13.5963(12)
_cell_angle_alpha                90
_cell_angle_beta                 96.231(2)
_cell_angle_gamma                90
_cell_volume                     2531.27
loop_
_atom_site_label
_atom_site_type_symbol
_atom_site_fract_x
_atom_site_fract_y
_atom_site_fract_z
Cd1 Cd 0.469930(17) 0.159700(15) 0.556355(17)
N1 N 0.2940(2) 0.16540(17) 0.5838(2)
N2 N -0.0425(3) 0.3282(2) 0.4961(2)
C1 C 0.2157(3) 0.3449(2) 0.4023(2)
N3 N 0.0264(2) 0.40827(19) 0.3798(2)
H1 H 0.0307 0.4468 0.3333
C2 C 0.1062(3) 0.3517(2) 0.4192(3)
C3 C 0.8156(2) -0.1192(2) 0.7043(2)
C4 C 0.2780(2) 0.2813(2) 0.4595(2)
C5 C 0.8807(2) -0.23490(18) 0.8334(2)
C6 C 0.6096(3) -0.1440(2) 0.7615(3)
H2 H 0.5416 -0.1529 0.7809
C7 C 0.7268(2) -0.0686(2) 0.6592(2)
N4 N 0.3836(2) 0.26952(18) 0.4504(2)
C8 C 0.9169(3) -0.1032(2) 0.6697(3)
H3 H 0.9755 -0.1380 0.6938
C9 C 0.6967(3) -0.1924(2) 0.8078(3)
H4 H 0.6857 -0.2324 0.8581
C10 C 0.7435(3) -0.0019(2) 0.5882(3)
H5 H 0.6857 0.0312 0.5591
C11 C 0.1220(3) 0.2378(2) 0.5483(2)
C12 C 0.7970(3) -0.1820(2) 0.7807(2)
C13 C 0.6235(2) -0.0841(2) 0.6884(2)
C14 C 0.8431(3) 0.0140(3) 0.5625(3)
H6 H 0.8539 0.0598 0.5183
C15 C 0.2672(3) 0.3985(2) 0.3378(3)
H7 H 0.2290 0.4419 0.2997
C16 C 0.2531(3) 0.1170(3) 0.6520(3)
H8 H 0.2974 0.0757 0.6877
C17 C 0.9294(3) -0.0382(3) 0.6022(3)
H9 H 0.9968 -0.0283 0.5820
C18 C -0.0607(3) 0.3916(2) 0.4285(3)
C19 C 0.0620(3) 0.3035(2) 0.4901(2)
C20 C 0.2303(3) 0.2265(2) 0.5317(2)
C21 C 0.4282(3) 0.3218(2) 0.3879(3)
H10 H 0.5007 0.3142 0.3819
C22 C 0.0818(3) 0.1842(3) 0.6202(3)
H11 H 0.0104 0.1893 0.6319
C23 C 0.1475(3) 0.1245(3) 0.6733(3)
H12 H 0.1223 0.0896 0.7225
C24 C 0.3735(3) 0.3866(3) 0.3313(3)
H13 H 0.4089 0.4221 0.2889
C25 C 0.5275(2) -0.0359(2) 0.6359(2)
C26 C -0.1752(3) 0.5170(2) 0.3527(3)
H14 H -0.1187 0.5375 0.3198
C27 C -0.1624(3) 0.4413(3) 0.4121(3)
C28 C -0.2472(3) 0.4125(3) 0.4607(3)
H15 H -0.2396 0.3610 0.4994
O1 O -0.2956(2) 0.6360(2) 0.2843(2)
C29 C -0.2728(3) 0.5623(2) 0.3423(3)
C30 C -0.3560(3) 0.5336(3) 0.3942(3)
C31 C -0.3427(3) 0.4587(3) 0.4531(3)
H16 H -0.3983 0.4392 0.4878
C32 C -0.2347(5) 0.6545(3) 0.2066(4)
H17 H -0.2610 0.7081 0.1732
H18 H -0.2402 0.6053 0.1608
H19 H -0.1611 0.6628 0.2324
O2 O -0.4506(2) 0.5778(2) 0.3889(2)
H20 H -0.4453 0.6257 0.3601
O3 O 0.50572(19) 0.03997(15) 0.66873(17)
O4 O 0.47549(16) -0.07323(17) 0.56457(16)
O5 O 0.97640(19) -0.24247(17) 0.80943(19)
O6 O 0.8623(2) -0.2788(2) 0.9117(2)
Cd1B Cd 0.530070(17) -0.159700(15) 0.443645(17)
Cd1A Cd 1.030070(17) -0.340300(15) 0.943645(17)
O4B O 0.52451(16) 0.07323(17) 0.43543(16)
O5A O 0.52360(19) 0.25753(17) 0.69057(19)
O6A O 0.6377(2) 0.2212(2) 0.5883(2)
loop_
_geom_bond_atom_site_label_1
_geom_bond_atom_site_label_2
_geom_bond_site_symmetry_1
_geom_bond_site_symmetry_2
Cd1 N1 1_555 1_555
N1 C16 1_555 1_555
N2 C18 1_555 1_555
C1 C2 1_555 1_555
N3 H1 1_555 1_555
C2 N3 1_555 1_555
C3 C7 1_555 1_555
C4 C1 1_555 1_555
C5 C12 1_555 1_555
C6 H2 1_555 1_555
C7 C10 1_555 1_555
N4 Cd1 1_555 1_555
C8 C3 1_555 1_555
H3 C8 1_555 1_555
C9 C6 1_555 1_555
H4 C9 1_555 1_555
C10 H5 1_555 1_555
C11 C19 1_555 1_555
C12 C3 1_555 1_555
C13 C6 1_555 1_555
C14 C10 1_555 1_555
H6 C14 1_555 1_555
C15 C1 1_555 1_555
H7 C15 1_555 1_555
C16 H8 1_555 1_555
C17 C8 1_555 1_555
H9 C17 1_555 1_555
C18 N3 1_555 1_555
C19 N2 1_555 1_555
C20 N1 1_555 1_555
C21 N4 1_555 1_555
H10 C21 1_555 1_555
C22 C11 1_555 1_555
H11 C22 1_555 1_555
C23 C16 1_555 1_555
H12 C23 1_555 1_555
C24 C15 1_555 1_555
H13 C24 1_555 1_555
C25 C13 1_555 1_555
C26 H14 1_555 1_555
C27 C18 1_555 1_555
C28 C27 1_555 1_555
H15 C28 1_555 1_555
O1 C29 1_555 1_555
C29 C26 1_555 1_555
C30 C29 1_555 1_555
C31 C28 1_555 1_555
H16 C31 1_555 1_555
C32 O1 1_555 1_555
H17 C32 1_555 1_555
H18 C32 1_555 1_555
H19 C32 1_555 1_555
O2 C30 1_555 1_555
H20 O2 1_555 1_555
O3 Cd1 1_555 1_555
O4 C25 1_555 1_555
O5 C5 1_555 1_555
O6 C5 1_555 1_555
Cd1B O4 1_555 1_555
Cd1A O5 1_555 1_555
O4B Cd1 1_555 1_555
O5A Cd1 1_555 1_555
O6A Cd1 1_555 1_555
C2 C19 1_555 1_555
C4 N4 1_555 1_555
C4 C20 1_555 1_555
C7 C13 1_555 1_555
C9 C12 1_555 1_555
C11 C20 1_555 1_555
C14 C17 1_555 1_555
C21 C24 1_555 1_555
C22 C23 1_555 1_555
C25 O3 1_555 1_555
C26 C27 1_555 1_555
C30 C31 1_555 1_555
O6 Cd1A 1_555 1_555

#END
