
#######################################################################
#
#                 Cambridge Crystallographic Data Centre
#                                CCDC 
#
#######################################################################
#
# If this CIF has been generated from an entry in the Cambridge 
# Structural Database, then it will include bibliographic, chemical, 
# crystal, experimental, refinement or atomic coordinate data resulting 
# from the CCDC's data processing and validation procedures.
#
#######################################################################

data_IYAGOE
_symmetry_cell_setting           orthorhombic
_symmetry_space_group_name_H-M   'P n m a'
_symmetry_Int_Tables_number      62
_space_group_name_Hall           '-P 2ac 2n'
loop_
_symmetry_equiv_pos_site_id
_symmetry_equiv_pos_as_xyz
1 x,y,z
2 1/2+x,y,1/2-z
3 x,1/2-y,z
4 1/2-x,1/2+y,1/2+z
5 -x,-y,-z
6 1/2-x,-y,1/2+z
7 -x,1/2+y,-z
8 1/2+x,1/2-y,1/2-z
_cell_length_a                   16.022(3)
_cell_length_b                   12.235(2)
_cell_length_c                   7.4634(13)
_cell_angle_alpha                90
_cell_angle_beta                 90
_cell_angle_gamma                90
_cell_volume                     1463.04
loop_
_atom_site_label
_atom_site_type_symbol
_atom_site_fract_x
_atom_site_fract_y
_atom_site_fract_z
Co1 Co 0.38444(3) 0.2500 0.67860(6)
N1 N 0.27089(19) 0.2500 0.8188(4)
N2 N 0.15096(19) 0.2500 1.0188(4)
N3 N 0.0041(2) 0.2500 0.9402(4)
N4 N 0.42800(18) 0.1238(3) 0.8475(3)
N5 N 0.5482(4) 0.0630(5) 1.0291(9)
N6 N 0.33706(13) 0.13201(16) 0.4759(3)
C1 C 0.2122(2) 0.2500 0.9059(5)
C2 C 0.0735(2) 0.2500 0.9673(5)
C3 C 0.4850(6) 0.0956(7) 0.9355(9)
C4 C 0.4409(5) 0.0357(8) 0.9082(8)
C5 C 0.3073(4) 0.1961(3) 0.3297(5)
H1 H 0.3390 0.1736 0.2253
H2 H 0.2501 0.1736 0.3086
C6 C 0.2711(3) 0.0617(3) 0.5459(5)
H3 H 0.2231 0.1052 0.5748
H4 H 0.2906 0.0252 0.6518
H5 H 0.2562 0.0084 0.4571
C7 C 0.4018(2) 0.0579(4) 0.4088(7)
H6 H 0.3780 0.0090 0.3223
H7 H 0.4244 0.0165 0.5068
H8 H 0.4455 0.0997 0.3536
C4D C 0.5591(5) -0.0357(8) 1.0918(8)
N4D N 0.57200(18) -0.1238(3) 1.1525(3)
C3D C 0.5150(6) -0.0956(7) 1.0645(9)
N5D N 0.4518(4) -0.0630(5) 0.9709(9)
C5B C 0.3073(4) 0.3039(3) 0.3297(5)
N6B N 0.33706(13) 0.36799(16) 0.4759(3)
C6B C 0.2711(3) 0.4383(3) 0.5459(5)
H3B H 0.2231 0.3948 0.5748
H4B H 0.2906 0.4748 0.6518
H5B H 0.2562 0.4916 0.4571
C7B C 0.4018(2) 0.4421(4) 0.4088(7)
H6B H 0.3780 0.4910 0.3223
H7B H 0.4244 0.4835 0.5068
H8B H 0.4455 0.4003 0.3536
H1B H 0.3390 0.3264 0.2253
H2B H 0.2501 0.3264 0.3086
N3A N 0.5041(2) 0.2500 0.5598(4)
N4B N 0.42800(18) 0.3762(3) 0.8475(3)
Co1A Co -0.11556(3) 0.2500 0.82140(6)
Co1D Co 0.61556(3) -0.2500 1.32140(6)
loop_
_geom_bond_atom_site_label_1
_geom_bond_atom_site_label_2
_geom_bond_site_symmetry_1
_geom_bond_site_symmetry_2
Co1 N1 1_555 1_555
N1 C1 1_555 1_555
N2 C1 1_555 1_555
N3 C2 1_555 1_555
N4 Co1 1_555 1_555
N5 C3 1_555 1_555
N6 Co1 1_555 1_555
C2 N2 1_555 1_555
C3 N4 1_555 1_555
C4 N4 1_555 1_555
C5 N6 1_555 1_555
H1 C5 1_555 1_555
H2 C5 1_555 1_555
C6 N6 1_555 1_555
H3 C6 1_555 1_555
H4 C6 1_555 1_555
H5 C6 1_555 1_555
C7 N6 1_555 1_555
H6 C7 1_555 1_555
H7 C7 1_555 1_555
H8 C7 1_555 1_555
C4D N5 1_555 1_555
N4D C4D 1_555 1_555
C3D C4D 1_555 1_555
N5D C4 1_555 1_555
C5B C5 1_555 1_555
N6B Co1 1_555 1_555
C6B N6B 1_555 1_555
H3B C6B 1_555 1_555
H4B C6B 1_555 1_555
H5B C6B 1_555 1_555
C7B N6B 1_555 1_555
H6B C7B 1_555 1_555
H7B C7B 1_555 1_555
H8B C7B 1_555 1_555
H1B C5B 1_555 1_555
H2B C5B 1_555 1_555
N3A Co1 1_555 1_555
N4B Co1 1_555 1_555
Co1A N3 1_555 1_555
Co1D N4D 1_555 1_555
C3 C4 1_555 1_555
N4D C3D 1_555 1_555
C3D N5D 1_555 1_555
C5B N6B 1_555 1_555

#END
