
#######################################################################
#
#                 Cambridge Crystallographic Data Centre
#                                CCDC 
#
#######################################################################
#
# If this CIF has been generated from an entry in the Cambridge 
# Structural Database, then it will include bibliographic, chemical, 
# crystal, experimental, refinement or atomic coordinate data resulting 
# from the CCDC's data processing and validation procedures.
#
#######################################################################

data_IYAHAR
_symmetry_cell_setting           orthorhombic
_symmetry_space_group_name_H-M   'P 21 21 21'
_symmetry_Int_Tables_number      19
_space_group_name_Hall           'P 2ac 2ab'
loop_
_symmetry_equiv_pos_site_id
_symmetry_equiv_pos_as_xyz
1 x,y,z
2 1/2-x,-y,1/2+z
3 -x,1/2+y,1/2-z
4 1/2+x,1/2-y,-z
_cell_length_a                   11.300(2)
_cell_length_b                   19.266(4)
_cell_length_c                   30.652(6)
_cell_angle_alpha                90
_cell_angle_beta                 90
_cell_angle_gamma                90
_cell_volume                     6673.12
loop_
_atom_site_label
_atom_site_type_symbol
_atom_site_fract_x
_atom_site_fract_y
_atom_site_fract_z
Ni1 Ni 0.81402(9) 0.29132(5) -0.57831(3)
Ni2 Ni 0.89635(8) 0.43183(4) -0.23061(3)
Ni3 Ni 0.32734(8) -0.21249(4) -0.55911(3)
S1 S 0.8847(2) 0.12736(11) -0.37026(7)
S2 S 0.6298(2) 0.10512(11) -0.18109(7)
O1 O 0.8397(6) 0.2867(3) -0.51175(16)
O3 O 0.7479(8) 0.3816(4) -0.48870(19)
O5 O 0.8951(5) 0.3711(3) -0.28700(15)
O7 O 0.8275(8) 0.4505(3) -0.3339(2)
O9 O 0.8817(5) 0.3421(3) -0.19318(16)
O11 O 0.9088(8) 0.3753(5) -0.1242(2)
O13 O 0.6743(5) 0.2787(3) -0.00727(16)
O15 O 0.5255(6) 0.2067(4) -0.02216(17)
O17 O 0.8538(11) 0.0894(4) -0.4093(3)
O18 O 1.0088(8) 0.1160(4) -0.3622(3)
O19 O 0.8163(12) 0.1165(4) -0.3328(4)
O20 O 0.5918(9) 0.1335(4) -0.2215(2)
O21 O 0.7338(10) 0.0660(5) -0.1853(4)
O22 O 0.5372(10) 0.0700(5) -0.1586(3)
O23 O 0.6515(6) 0.3399(3) -0.56668(19)
O24 O 0.9762(6) 0.2398(3) -0.5837(2)
O25 O 0.8929(6) 0.5236(3) -0.2651(2)
O26 O 0.8866(6) 0.4931(3) -0.1721(2)
O27 O 0.4812(5) -0.2744(3) -0.56245(18)
O28 O 0.1754(5) -0.1504(3) -0.5508(2)
N1 N 0.7319(7) 0.1944(3) -0.5740(2)
N2 N 0.4361(6) -0.1267(3) -0.5557(2)
N3 N 0.7846(6) 0.2941(3) -0.64544(19)
N4 N 0.6825(7) 0.2995(3) -0.8736(2)
N5 N 0.7093(5) 0.4323(4) -0.2304(2)
N6 N 0.0842(5) 0.4291(3) -0.2296(2)
N7 N 1.2198(6) 0.6997(3) -0.5656(2)
N8 N 0.8997(6) 0.3874(3) -0.5827(2)
C1 C 0.8682(7) 0.2168(4) -0.3832(3)
C2 C 0.8476(8) 0.2367(4) -0.4260(3)
H1 H 0.8478 0.2036 -0.4481
C3 C 0.8267(8) 0.3060(4) -0.4359(2)
C4 C 0.8315(8) 0.3553(4) -0.4022(2)
H2 H 0.8200 0.4020 -0.4085
C5 C 0.8533(7) 0.3348(4) -0.3592(2)
C6 C 0.8740(7) 0.2657(4) -0.3503(2)
H3 H 0.8919 0.2519 -0.3220
C7 C 0.8030(8) 0.3266(4) -0.4826(2)
C8 C 0.8592(7) 0.3900(4) -0.3243(2)
C9 C 0.6692(7) 0.1777(4) -0.1482(2)
C10 C 0.7466(7) 0.2277(4) -0.1642(2)
H4 H 0.7742 0.2249 -0.1927
C11 C 0.7822(7) 0.2817(4) -0.1375(2)
C12 C 0.7396(7) 0.2839(4) -0.0944(2)
H5 H 0.7660 0.3190 -0.0760
C13 C 0.6600(7) 0.2358(4) -0.0784(2)
C14 C 0.6241(8) 0.1816(4) -0.1058(2)
H6 H 0.5708 0.1484 -0.0958
C15 C 0.8633(7) 0.3380(4) -0.1528(2)
C16 C 0.6155(7) 0.2416(4) -0.0328(2)
C17 C 0.7571(9) 0.1422(5) -0.6010(3)
H7 H 0.8124 0.1500 -0.6230
C18 C 0.7061(9) 0.0775(4) -0.5983(3)
H8 H 0.7275 0.0425 -0.6176
C19 C 0.6224(8) 0.0657(4) -0.5662(3)
C20 C 0.5596(8) -0.0016(4) -0.5622(3)
C21 C 0.5924(9) -0.0587(5) -0.5868(4)
H9 H 0.6562 -0.0560 -0.6060
C22 C 0.5294(9) -0.1197(4) -0.5826(4)
H10 H 0.5527 -0.1578 -0.5992
C23 C 0.4076(8) -0.0717(4) -0.5309(3)
H11 H 0.3460 -0.0762 -0.5109
C24 C 0.4647(9) -0.0100(4) -0.5335(3)
H12 H 0.4406 0.0269 -0.5162
C25 C 0.5947(9) 0.1203(4) -0.5378(3)
H13 H 0.5381 0.1148 -0.5161
C26 C 0.6546(8) 0.1833(4) -0.5431(3)
H14 H 0.6385 0.2191 -0.5236
C27 C 0.8669(7) 0.3162(4) -0.6741(2)
H15 H 0.9406 0.3291 -0.6633
C28 C 0.8484(8) 0.3209(5) -0.7184(3)
H16 H 0.9081 0.3370 -0.7366
C29 C 0.7391(7) 0.3010(4) -0.7356(2)
C30 C 0.7171(8) 0.3021(5) -0.7833(3)
C31 C 0.6422(9) 0.2541(6) -0.8019(3)
H17 H 0.6011 0.2227 -0.7846
C32 C 0.6292(10) 0.2536(5) -0.8468(3)
H18 H 0.5810 0.2198 -0.8592
C33 C 0.7503(10) 0.3474(5) -0.8544(3)
H19 H 0.7861 0.3805 -0.8722
C34 C 0.7709(10) 0.3514(5) -0.8099(3)
H20 H 0.8191 0.3858 -0.7982
C35 C 0.6543(8) 0.2771(6) -0.7064(2)
H21 H 0.5804 0.2630 -0.7164
C36 C 0.6808(8) 0.2743(5) -0.6618(2)
H22 H 0.6232 0.2579 -0.6427
C37 C 0.6471(7) 0.4882(4) -0.2216(4)
H23 H 0.6881 0.5290 -0.2157
C38 C 0.5253(8) 0.4904(5) -0.2204(4)
H24 H 0.4859 0.5317 -0.2141
C39 C 0.4624(6) 0.4298(4) -0.2286(3)
C40 C 0.3324(7) 0.4299(4) -0.2291(3)
C41 C 0.2658(8) 0.4535(6) -0.1938(4)
H25 H 0.3036 0.4709 -0.1692
C42 C 0.1462(8) 0.4513(6) -0.1954(3)
H26 H 0.1046 0.4662 -0.1710
C43 C 0.1474(8) 0.4083(6) -0.2640(3)
H27 H 0.1070 0.3943 -0.2890
C44 C 0.2678(8) 0.4065(7) -0.2645(3)
H28 H 0.3071 0.3895 -0.2889
C45 C 0.5264(8) 0.3720(5) -0.2392(3)
H29 H 0.4873 0.3311 -0.2465
C46 C 0.6507(7) 0.3738(4) -0.2392(3)
H30 H 0.6928 0.3335 -0.2453
C47 C 1.2443(9) 0.6424(4) -0.5418(3)
H31 H 1.3055 0.6441 -0.5215
C48 C 1.1829(10) 0.5827(4) -0.5463(3)
H32 H 1.2042 0.5438 -0.5301
C49 C 1.0873(7) 0.5791(4) -0.5753(3)
C50 C 1.0231(8) 0.5132(4) -0.5803(3)
C51 C 1.0794(8) 0.4514(4) -0.5760(4)
H33 H 1.1612 0.4504 -0.5726
C52 C 1.0167(8) 0.3901(4) -0.5767(3)
H34 H 1.0577 0.3487 -0.5727
C53 C 0.8439(9) 0.4473(4) -0.5900(3)
H35 H 0.7637 0.4462 -0.5969
C54 C 0.9004(8) 0.5111(4) -0.5878(3)
H36 H 0.8576 0.5520 -0.5913
C55 C 1.0614(8) 0.6379(4) -0.5993(3)
H37 H 0.9999 0.6374 -0.6194
C56 C 1.1268(7) 0.6971(4) -0.5932(3)
H38 H 1.1062 0.7369 -0.6086
N6_2 N 1.0842(5) 0.4291(3) -0.2296(2)
O13B O 0.3257(5) -0.2213(3) -0.49273(16)
N4B N 0.3175(7) -0.2005(3) -0.6264(2)
N7_2 N 0.2198(6) -0.3003(3) -0.5656(2)
Ni3B Ni 0.67266(8) 0.28751(4) 0.05911(3)
Ni3B_2 Ni 0.67266(8) 0.28751(4) -0.94089(3)
Ni2_2 Ni -0.10365(8) 0.43183(4) -0.23061(3)
Ni3_2 Ni 1.32734(8) 0.78751(4) -0.55911(3)
O2 O 1.0824(9) 0.6094(5) -0.2577(4)
O4 O 1.0274(9) 0.1854(5) -0.6607(3)
O6 O 0.5881(9) 0.4530(4) -0.3583(3)
O8 O 0.942(3) 0.0192(11) -0.4843(9)
O10 O 0.6494(9) 0.2109(6) -0.2938(3)
O12 O 0.872(2) 0.4312(11) -0.0315(8)
O14 O 1.0309(13) 0.1043(7) -0.5555(4)
O16 O 1.124(4) -0.002(2) -0.5505(13)
loop_
_geom_bond_atom_site_label_1
_geom_bond_atom_site_label_2
_geom_bond_site_symmetry_1
_geom_bond_site_symmetry_2
Ni1 O1 1_555 1_555
Ni2 O5 1_555 1_555
Ni3 O27 1_555 1_555
S1 O17 1_555 1_555
S2 O20 1_555 1_555
O1 C7 1_555 1_555
O3 C7 1_555 1_555
O5 C8 1_555 1_555
O7 C8 1_555 1_555
O9 Ni2 1_555 1_555
O11 C15 1_555 1_555
O13 C16 1_555 1_555
O15 C16 1_555 1_555
O18 S1 1_555 1_555
O19 S1 1_555 1_555
O21 S2 1_555 1_555
O22 S2 1_555 1_555
O23 Ni1 1_555 1_555
O24 Ni1 1_555 1_555
O25 Ni2 1_555 1_555
O26 Ni2 1_555 1_555
O28 Ni3 1_555 1_555
N1 Ni1 1_555 1_555
N2 Ni3 1_555 1_555
N3 Ni1 1_555 1_555
N4 C32 1_555 1_555
N5 Ni2 1_555 1_555
N6 C42 1_555 1_555
N7 C47 1_555 1_555
N8 Ni1 1_555 1_555
C1 S1 1_555 1_555
C2 C1 1_555 1_555
H1 C2 1_555 1_555
C3 C2 1_555 1_555
C4 C3 1_555 1_555
H2 C4 1_555 1_555
C5 C4 1_555 1_555
C6 C1 1_555 1_555
H3 C6 1_555 1_555
C7 C3 1_555 1_555
C8 C5 1_555 1_555
C9 S2 1_555 1_555
C10 C9 1_555 1_555
H4 C10 1_555 1_555
C11 C10 1_555 1_555
C12 C11 1_555 1_555
H5 C12 1_555 1_555
C13 C12 1_555 1_555
C14 C9 1_555 1_555
H6 C14 1_555 1_555
C15 O9 1_555 1_555
C16 C13 1_555 1_555
C17 N1 1_555 1_555
H7 C17 1_555 1_555
C18 C17 1_555 1_555
H8 C18 1_555 1_555
C19 C18 1_555 1_555
C20 C19 1_555 1_555
C21 C20 1_555 1_555
H9 C21 1_555 1_555
C22 N2 1_555 1_555
H10 C22 1_555 1_555
C23 N2 1_555 1_555
H11 C23 1_555 1_555
C24 C20 1_555 1_555
H12 C24 1_555 1_555
C25 C19 1_555 1_555
H13 C25 1_555 1_555
C26 N1 1_555 1_555
H14 C26 1_555 1_555
C27 N3 1_555 1_555
H15 C27 1_555 1_555
C28 C27 1_555 1_555
H16 C28 1_555 1_555
C29 C28 1_555 1_555
C30 C29 1_555 1_555
C31 C30 1_555 1_555
H17 C31 1_555 1_555
C32 C31 1_555 1_555
H18 C32 1_555 1_555
C33 N4 1_555 1_555
H19 C33 1_555 1_555
C34 C30 1_555 1_555
H20 C34 1_555 1_555
C35 C29 1_555 1_555
H21 C35 1_555 1_555
C36 N3 1_555 1_555
H22 C36 1_555 1_555
C37 N5 1_555 1_555
H23 C37 1_555 1_555
C38 C37 1_555 1_555
H24 C38 1_555 1_555
C39 C38 1_555 1_555
C40 C39 1_555 1_555
C41 C40 1_555 1_555
H25 C41 1_555 1_555
C42 C41 1_555 1_555
H26 C42 1_555 1_555
C43 N6 1_555 1_555
H27 C43 1_555 1_555
C44 C40 1_555 1_555
H28 C44 1_555 1_555
C45 C39 1_555 1_555
H29 C45 1_555 1_555
C46 N5 1_555 1_555
H30 C46 1_555 1_555
C47 H31 1_555 1_555
C48 C47 1_555 1_555
H32 C48 1_555 1_555
C49 C48 1_555 1_555
C50 C49 1_555 1_555
C51 C50 1_555 1_555
H33 C51 1_555 1_555
C52 N8 1_555 1_555
H34 C52 1_555 1_555
C53 N8 1_555 1_555
H35 C53 1_555 1_555
C54 C50 1_555 1_555
H36 C54 1_555 1_555
C55 C49 1_555 1_555
H37 C55 1_555 1_555
C56 N7 1_555 1_555
H38 C56 1_555 1_555
N6_2 Ni2 1_555 1_555
O13B Ni3 1_555 1_555
N4B Ni3 1_555 1_555
N7_2 Ni3 1_555 1_555
Ni3B O13 1_555 1_555
Ni3B_2 N4 1_555 1_555
Ni2_2 N6 1_555 1_555
Ni3_2 N7 1_555 1_555
C5 C6 1_555 1_555
C11 C15 1_555 1_555
C13 C14 1_555 1_555
C21 C22 1_555 1_555
C23 C24 1_555 1_555
C25 C26 1_555 1_555
C33 C34 1_555 1_555
C35 C36 1_555 1_555
C43 C44 1_555 1_555
C45 C46 1_555 1_555
C51 C52 1_555 1_555
C53 C54 1_555 1_555
C55 C56 1_555 1_555

#END
