
#######################################################################
#
#                 Cambridge Crystallographic Data Centre
#                                CCDC 
#
#######################################################################
#
# If this CIF has been generated from an entry in the Cambridge 
# Structural Database, then it will include bibliographic, chemical, 
# crystal, experimental, refinement or atomic coordinate data resulting 
# from the CCDC's data processing and validation procedures.
#
#######################################################################

data_IYEPOR
_symmetry_cell_setting           triclinic
_symmetry_space_group_name_H-M   'P -1'
_symmetry_Int_Tables_number      2
_space_group_name_Hall           '-P 1'
loop_
_symmetry_equiv_pos_site_id
_symmetry_equiv_pos_as_xyz
1 x,y,z
2 -x,-y,-z
_cell_length_a                   12.5105(2)
_cell_length_b                   12.7713(2)
_cell_length_c                   12.9300(2)
_cell_angle_alpha                87.501(1)
_cell_angle_beta                 77.200(1)
_cell_angle_gamma                82.947(1)
_cell_volume                     1999.03
loop_
_atom_site_label
_atom_site_type_symbol
_atom_site_fract_x
_atom_site_fract_y
_atom_site_fract_z
Ag1 Ag 0.39285(3) 0.18676(3) 0.79951(3)
Ag2 Ag 0.18322(3) -0.08452(3) 0.80338(3)
S1 S 0.42913(10) 0.28161(9) 0.95466(9)
S2 S 0.53855(9) 0.29888(8) 0.69684(8)
S3 S 0.59640(10) 0.51481(9) 0.73630(9)
C1 C 0.5012(4) 0.4697(3) 0.9653(3)
C2 C 0.4940(4) 0.3919(3) 0.8925(3)
C3 C 0.5376(3) 0.3992(3) 0.7871(3)
C4 C 0.2959(4) 0.3454(5) 1.0283(4)
H1 H 0.3090 0.3951 1.0764
C5 C 0.2278(5) 0.4035(5) 0.9549(5)
H2 H 0.1591 0.4369 0.9951
H3 H 0.2684 0.4559 0.9137
H4 H 0.2136 0.3528 0.9085
C6 C 0.2405(6) 0.2565(6) 1.0919(5)
H5 H 0.1704 0.2843 1.1343
H6 H 0.2294 0.2065 1.0431
H7 H 0.2859 0.2222 1.1371
C7 C 0.4817(4) 0.3708(4) 0.5909(3)
H8 H 0.5339 0.4163 0.5540
C8 C 0.4742(4) 0.2859(4) 0.5145(4)
H9 H 0.4460 0.3181 0.4559
H10 H 0.5451 0.2469 0.4883
H11 H 0.4242 0.2389 0.5523
C9 C 0.3719(4) 0.4369(4) 0.6329(4)
H12 H 0.3454 0.4736 0.5755
H13 H 0.3194 0.3910 0.6683
H14 H 0.3816 0.4871 0.6822
C10 C 0.7333(4) 0.4655(4) 0.6605(4)
H15 H 0.7267 0.4219 0.6041
C11 C 0.8004(5) 0.4019(5) 0.7299(5)
H16 H 0.8720 0.3760 0.6891
H17 H 0.8085 0.4471 0.7845
H18 H 0.7627 0.3434 0.7617
C12 C 0.7858(4) 0.5620(4) 0.6123(4)
H19 H 0.8586 0.5429 0.5702
H20 H 0.7407 0.6003 0.5689
H21 H 0.7901 0.6056 0.6696
S4 S 0.36112(9) -0.00619(8) 0.82476(8)
S5 S 0.14936(9) -0.09218(10) 1.00290(9)
S6 S 0.29837(9) -0.10580(10) 1.16057(9)
C13 C 0.4576(3) -0.0108(3) 0.9911(3)
C14 C 0.3602(4) -0.0341(3) 0.9617(3)
C15 C 0.2761(4) -0.0723(3) 1.0335(3)
C16 C 0.4922(4) -0.0803(4) 0.7561(3)
H22 H 0.5517 -0.0610 0.7844
C17 C 0.5103(4) -0.0447(4) 0.6403(4)
H23 H 0.5781 -0.0801 0.6004
H24 H 0.4496 -0.0633 0.6135
H25 H 0.5123 0.0303 0.6337
C18 C 0.4880(4) -0.1970(4) 0.7737(4)
H26 H 0.5563 -0.2362 0.7394
H27 H 0.4730 -0.2137 0.8483
H28 H 0.4292 -0.2154 0.7439
C19 C 0.1372(4) -0.2328(4) 1.0400(4)
H29 H 0.1243 -0.2400 1.1159
C20 C 0.0344(5) -0.2571(5) 1.0053(5)
H30 H 0.0219 -0.3290 1.0235
H31 H -0.0290 -0.2107 1.0390
H32 H 0.0465 -0.2471 0.9298
C21 C 0.2406(5) -0.3036(4) 0.9921(4)
H33 H 0.2320 -0.3755 1.0137
H34 H 0.2522 -0.2974 0.9162
H35 H 0.3030 -0.2826 1.0143
C22 C 0.1672(4) -0.0691(4) 1.2553(4)
H36 H 0.1116 -0.1084 1.2406
C23 C 0.1290(5) 0.0470(4) 1.2521(4)
H37 H 0.0605 0.0622 1.3027
H38 H 0.1833 0.0866 1.2687
H39 H 0.1184 0.0665 1.1822
C24 C 0.1911(4) -0.1045(4) 1.3629(4)
H40 H 0.1264 -0.0881 1.4179
H41 H 0.2127 -0.1794 1.3624
H42 H 0.2500 -0.0688 1.3757
S7 S 0.13113(10) 0.18510(10) 0.71495(11)
O1 O 0.0997(3) 0.0942(3) 0.7791(3)
O2 O 0.0417(3) 0.2649(3) 0.7100(3)
O3 O 0.2305(3) 0.2223(3) 0.7297(3)
F1 F 0.0894(3) 0.0900(3) 0.5553(3)
F2 F 0.2580(3) 0.0564(3) 0.5768(3)
F3 F 0.2018(3) 0.2063(3) 0.5091(3)
C25 C 0.1713(5) 0.1319(5) 0.5832(5)
S8 S 0.19548(11) -0.27463(11) 0.64631(10)
O4 O 0.2380(5) -0.3224(4) 0.7311(4)
O5 O 0.2628(3) -0.2963(3) 0.5437(3)
O6 O 0.1527(3) -0.1648(3) 0.6647(3)
F4 F 0.0010(5) -0.3196(5) 0.7320(5)
F5 F 0.0970(4) -0.4374(3) 0.6271(4)
F6 F 0.0273(4) -0.2942(5) 0.5661(6)
C26 C 0.0735(6) -0.3343(7) 0.6429(7)
C1A C 0.4988(4) 0.5303(3) 1.0347(3)
C2A C 0.5060(4) 0.6081(3) 1.1075(3)
S1A S 0.57087(10) 0.71839(9) 1.04534(9)
C4A C 0.7041(4) 0.6546(5) 0.9717(4)
H1A H 0.6910 0.6049 0.9236
C5A C 0.7722(5) 0.5965(5) 1.0451(5)
H2A H 0.8409 0.5631 1.0049
H3A H 0.7316 0.5441 1.0863
H4A H 0.7864 0.6472 1.0915
C6A C 0.7595(6) 0.7435(6) 0.9081(5)
H5A H 0.8296 0.7157 0.8657
H6A H 0.7706 0.7935 0.9569
H7A H 0.7141 0.7778 0.8629
C3A C 0.4624(3) 0.6008(3) 1.2129(3)
S2A S 0.46145(9) 0.70112(8) 1.30316(8)
C7A C 0.5183(4) 0.6292(4) 1.4091(3)
H8A H 0.4661 0.5837 1.4460
C8A C 0.5258(4) 0.7141(4) 1.4855(4)
H9A H 0.5540 0.6819 1.5441
H10A H 0.4549 0.7531 1.5117
H11A H 0.5758 0.7611 1.4477
C9A C 0.6281(4) 0.5631(4) 1.3671(4)
H12A H 0.6546 0.5264 1.4245
H13A H 0.6806 0.6090 1.3317
H14A H 0.6184 0.5129 1.3178
S3A S 0.40360(10) 0.48519(9) 1.26370(9)
C10A C 0.2667(4) 0.5345(4) 1.3395(4)
H15A H 0.2733 0.5781 1.3959
C11A C 0.1996(5) 0.5981(5) 1.2701(5)
H16A H 0.1280 0.6240 1.3109
H17A H 0.1915 0.5529 1.2155
H18A H 0.2373 0.6566 1.2383
C12A C 0.2142(4) 0.4380(4) 1.3877(4)
H19A H 0.1414 0.4571 1.4298
H20A H 0.2593 0.3997 1.4311
H21A H 0.2099 0.3944 1.3304
C13A C 0.5424(3) 0.0108(3) 1.0089(3)
C14A C 0.6398(4) 0.0341(3) 1.0383(3)
S4A S 0.63888(9) 0.00619(8) 1.17524(8)
C16A C 0.5078(4) 0.0803(4) 1.2439(3)
H22A H 0.4483 0.0610 1.2156
C17A C 0.4897(4) 0.0447(4) 1.3597(4)
H23A H 0.4219 0.0801 1.3996
H24A H 0.5504 0.0633 1.3865
H25A H 0.4877 -0.0303 1.3663
C18A C 0.5120(4) 0.1970(4) 1.2263(4)
H26A H 0.4437 0.2362 1.2606
H27A H 0.5270 0.2137 1.1517
H28A H 0.5708 0.2154 1.2561
C15A C 0.7239(4) 0.0723(3) 0.9665(3)
S5A S 0.85064(9) 0.09218(10) 0.99710(9)
C19A C 0.8628(4) 0.2328(4) 0.9600(4)
H29A H 0.8757 0.2400 0.8841
C20A C 0.9656(5) 0.2571(5) 0.9947(5)
H30A H 0.9781 0.3290 0.9765
H31A H 1.0290 0.2107 0.9610
H32A H 0.9535 0.2471 1.0702
C21A C 0.7594(5) 0.3036(4) 1.0079(4)
H33A H 0.7680 0.3755 0.9863
H34A H 0.7478 0.2974 1.0838
H35A H 0.6970 0.2826 0.9857
S6A S 0.70163(9) 0.10580(10) 0.83943(9)
C22A C 0.8328(4) 0.0691(4) 0.7447(4)
H36A H 0.8884 0.1084 0.7594
C23A C 0.8710(5) -0.0470(4) 0.7479(4)
H37A H 0.9395 -0.0622 0.6973
H38A H 0.8167 -0.0866 0.7313
H39A H 0.8816 -0.0665 0.8178
C24A C 0.8089(4) 0.1045(4) 0.6371(4)
H40A H 0.8736 0.0881 0.5821
H41A H 0.7873 0.1794 0.6376
H42A H 0.7500 0.0688 0.6243
Ag1A Ag 0.60715(3) 0.81324(3) 1.20049(3)
Ag2A Ag 0.81678(3) 0.08452(3) 1.19662(3)
S7A S 0.86887(10) 0.81490(10) 1.28505(11)
O1A O 0.9003(3) 0.9058(3) 1.2209(3)
O2A O 0.9583(3) 0.7351(3) 1.2900(3)
O3A O 0.7695(3) 0.7777(3) 1.2703(3)
F1A F 0.9106(3) 0.9100(3) 1.4447(3)
F2A F 0.7420(3) 0.9436(3) 1.4232(3)
F3A F 0.7982(3) 0.7937(3) 1.4909(3)
C25A C 0.8287(5) 0.8681(5) 1.4168(5)
S8A S 0.80452(11) 0.27463(11) 1.35369(10)
O4A O 0.7620(5) 0.3224(4) 1.2689(4)
O5A O 0.7372(3) 0.2963(3) 1.4563(3)
O6A O 0.8473(3) 0.1648(3) 1.3353(3)
F4A F 0.9990(5) 0.3196(5) 1.2680(5)
F5A F 0.9030(4) 0.4374(3) 1.3729(4)
F6A F 0.9727(4) 0.2942(5) 1.4339(6)
C26A C 0.9265(6) 0.3343(7) 1.3571(7)
Ag1A_2 Ag 0.60715(3) -0.18676(3) 1.20049(3)
S4A_2 S 0.63888(9) 1.00619(8) 1.17524(8)
O1A_2 O 0.9003(3) -0.0942(3) 1.2209(3)
Ag2A_2 Ag 0.81678(3) 1.08452(3) 1.19662(3)
loop_
_geom_bond_atom_site_label_1
_geom_bond_atom_site_label_2
_geom_bond_site_symmetry_1
_geom_bond_site_symmetry_2
Ag1 S1 1_555 1_555
Ag2 S4 1_555 1_555
S1 C2 1_555 1_555
S2 Ag1 1_555 1_555
S3 C3 1_555 1_555
C1 C2 1_555 1_555
C2 C3 1_555 1_555
C3 S2 1_555 1_555
C4 S1 1_555 1_555
H1 C4 1_555 1_555
C5 C4 1_555 1_555
H2 C5 1_555 1_555
H3 C5 1_555 1_555
H4 C5 1_555 1_555
C6 C4 1_555 1_555
H5 C6 1_555 1_555
H6 C6 1_555 1_555
H7 C6 1_555 1_555
C7 S2 1_555 1_555
H8 C7 1_555 1_555
C8 C7 1_555 1_555
H9 C8 1_555 1_555
H10 C8 1_555 1_555
H11 C8 1_555 1_555
C9 C7 1_555 1_555
H12 C9 1_555 1_555
H13 C9 1_555 1_555
H14 C9 1_555 1_555
C10 S3 1_555 1_555
H15 C10 1_555 1_555
C11 C10 1_555 1_555
H16 C11 1_555 1_555
H17 C11 1_555 1_555
H18 C11 1_555 1_555
C12 C10 1_555 1_555
H19 C12 1_555 1_555
H20 C12 1_555 1_555
H21 C12 1_555 1_555
S4 Ag1 1_555 1_555
S5 Ag2 1_555 1_555
S6 C15 1_555 1_555
C13 C14 1_555 1_555
C14 S4 1_555 1_555
C15 S5 1_555 1_555
C16 S4 1_555 1_555
H22 C16 1_555 1_555
C17 C16 1_555 1_555
H23 C17 1_555 1_555
H24 C17 1_555 1_555
H25 C17 1_555 1_555
C18 C16 1_555 1_555
H26 C18 1_555 1_555
H27 C18 1_555 1_555
H28 C18 1_555 1_555
C19 S5 1_555 1_555
H29 C19 1_555 1_555
C20 C19 1_555 1_555
H30 C20 1_555 1_555
H31 C20 1_555 1_555
H32 C20 1_555 1_555
C21 C19 1_555 1_555
H33 C21 1_555 1_555
H34 C21 1_555 1_555
H35 C21 1_555 1_555
C22 S6 1_555 1_555
H36 C22 1_555 1_555
C23 C22 1_555 1_555
H37 C23 1_555 1_555
H38 C23 1_555 1_555
H39 C23 1_555 1_555
C24 C22 1_555 1_555
H40 C24 1_555 1_555
H41 C24 1_555 1_555
H42 C24 1_555 1_555
S7 O1 1_555 1_555
O1 Ag2 1_555 1_555
O2 S7 1_555 1_555
O3 Ag1 1_555 1_555
F1 C25 1_555 1_555
F2 C25 1_555 1_555
F3 C25 1_555 1_555
C25 S7 1_555 1_555
S8 O4 1_555 1_555
O5 S8 1_555 1_555
O6 Ag2 1_555 1_555
F4 C26 1_555 1_555
F5 C26 1_555 1_555
F6 C26 1_555 1_555
C26 S8 1_555 1_555
C1A C1 1_555 1_555
C2A C1A 1_555 1_555
S1A C2A 1_555 1_555
C4A S1A 1_555 1_555
H1A C4A 1_555 1_555
C5A C4A 1_555 1_555
H2A C5A 1_555 1_555
H3A C5A 1_555 1_555
H4A C5A 1_555 1_555
C6A C4A 1_555 1_555
H5A C6A 1_555 1_555
H6A C6A 1_555 1_555
H7A C6A 1_555 1_555
C3A C2A 1_555 1_555
S2A C3A 1_555 1_555
C7A S2A 1_555 1_555
H8A C7A 1_555 1_555
C8A C7A 1_555 1_555
H9A C8A 1_555 1_555
H10A C8A 1_555 1_555
H11A C8A 1_555 1_555
C9A C7A 1_555 1_555
H12A C9A 1_555 1_555
H13A C9A 1_555 1_555
H14A C9A 1_555 1_555
S3A C3A 1_555 1_555
C10A S3A 1_555 1_555
H15A C10A 1_555 1_555
C11A C10A 1_555 1_555
H16A C11A 1_555 1_555
H17A C11A 1_555 1_555
H18A C11A 1_555 1_555
C12A C10A 1_555 1_555
H19A C12A 1_555 1_555
H20A C12A 1_555 1_555
H21A C12A 1_555 1_555
C13A C13 1_555 1_555
C14A C13A 1_555 1_555
S4A C14A 1_555 1_555
C16A S4A 1_555 1_555
H22A C16A 1_555 1_555
C17A C16A 1_555 1_555
H23A C17A 1_555 1_555
H24A C17A 1_555 1_555
H25A C17A 1_555 1_555
C18A C16A 1_555 1_555
H26A C18A 1_555 1_555
H27A C18A 1_555 1_555
H28A C18A 1_555 1_555
C15A C14A 1_555 1_555
S5A C15A 1_555 1_555
C19A S5A 1_555 1_555
H29A C19A 1_555 1_555
C20A C19A 1_555 1_555
H30A C20A 1_555 1_555
H31A C20A 1_555 1_555
H32A C20A 1_555 1_555
C21A C19A 1_555 1_555
H33A C21A 1_555 1_555
H34A C21A 1_555 1_555
H35A C21A 1_555 1_555
S6A C15A 1_555 1_555
C22A S6A 1_555 1_555
H36A C22A 1_555 1_555
C23A C22A 1_555 1_555
H37A C23A 1_555 1_555
H38A C23A 1_555 1_555
H39A C23A 1_555 1_555
C24A C22A 1_555 1_555
H40A C24A 1_555 1_555
H41A C24A 1_555 1_555
H42A C24A 1_555 1_555
Ag1A S1A 1_555 1_555
Ag2A S4A 1_555 1_555
S7A O1A 1_555 1_555
O1A Ag2A_2 1_555 1_555
O2A S7A 1_555 1_555
O3A Ag1A 1_555 1_555
F1A C25A 1_555 1_555
F2A C25A 1_555 1_555
F3A C25A 1_555 1_555
C25A S7A 1_555 1_555
S8A O4A 1_555 1_555
O5A S8A 1_555 1_555
O6A Ag2A 1_555 1_555
F4A C26A 1_555 1_555
F5A C26A 1_555 1_555
F6A C26A 1_555 1_555
C26A S8A 1_555 1_555
Ag1A_2 S4A 1_555 1_555
S4A_2 Ag1A 1_555 1_555
O1A_2 Ag2A 1_555 1_555
Ag2A_2 S4A_2 1_555 1_555
C14 C15 1_555 1_555
S7 O3 1_555 1_555
S8 O6 1_555 1_555
S2A Ag1A 1_555 1_555
S5A Ag2A 1_555 1_555
S7A O3A 1_555 1_555
S8A O6A 1_555 1_555

#END
