
#######################################################################
#
#                 Cambridge Crystallographic Data Centre
#                                CCDC 
#
#######################################################################
#
# If this CIF has been generated from an entry in the Cambridge 
# Structural Database, then it will include bibliographic, chemical, 
# crystal, experimental, refinement or atomic coordinate data resulting 
# from the CCDC's data processing and validation procedures.
#
#######################################################################

data_IYEROT
_symmetry_cell_setting           orthorhombic
_symmetry_space_group_name_H-M   'P 2 21 21'
_symmetry_Int_Tables_number      18
_space_group_name_Hall           'P 2bc 2'
loop_
_symmetry_equiv_pos_site_id
_symmetry_equiv_pos_as_xyz
1 x,y,z
2 -x,1/2-y,1/2+z
3 x,-y,-z
4 -x,1/2+y,1/2-z
_cell_length_a                   9.5577(9)
_cell_length_b                   10.4800(12)
_cell_length_c                   15.639(2)
_cell_angle_alpha                90
_cell_angle_beta                 90
_cell_angle_gamma                90
_cell_volume                     1566.48
loop_
_atom_site_label
_atom_site_type_symbol
_atom_site_fract_x
_atom_site_fract_y
_atom_site_fract_z
Cu1 Cu 0.55299(11) 1.0000 1.0000
N1 N 0.7317(6) 0.8805(5) 0.9588(3)
H1 H 0.7429 0.8185 0.9990
N2 N 0.5226(7) 0.5776(6) 0.5994(4)
C1 C 0.8581(7) 0.9584(6) 0.9599(4)
H2 H 0.8558 1.0148 0.9099
C2 C 0.9936(8) 0.8799(8) 0.9559(5)
H3 H 0.9937 0.8195 1.0029
H4 H 0.9939 0.8312 0.9031
C3 C 1.1243(9) 0.9570(10) 0.9600(5)
H5 H 1.1318 1.0094 0.9091
H6 H 1.2046 0.9004 0.9618
C4 C 0.6909(7) 0.8195(6) 0.8823(3)
C5 C 0.7366(8) 0.8564(8) 0.8022(4)
H7 H 0.8001 0.9233 0.7972
C6 C 0.6899(9) 0.7959(9) 0.7297(4)
H8 H 0.7193 0.8239 0.6762
C7 C 0.5997(8) 0.6943(8) 0.7361(4)
C8 C 0.5505(9) 0.6555(8) 0.8159(4)
H9 H 0.4870 0.5886 0.8203
C9 C 0.5971(8) 0.7173(7) 0.8879(4)
H10 H 0.5658 0.6907 0.9414
C10 C 0.5549(9) 0.6290(8) 0.6593(4)
C1B C 0.8581(7) 1.0416(6) 1.0401(4)
N1B N 0.7317(6) 1.1195(5) 1.0412(3)
H1B H 0.7429 1.1815 1.0010
C4B C 0.6909(7) 1.1805(6) 1.1177(3)
C5B C 0.7366(8) 1.1436(8) 1.1978(4)
H7B H 0.8001 1.0767 1.2028
C6B C 0.6899(9) 1.2041(9) 1.2703(4)
H8B H 0.7193 1.1761 1.3238
C7B C 0.5997(8) 1.3057(8) 1.2639(4)
C8B C 0.5505(9) 1.3445(8) 1.1841(4)
H9B H 0.4870 1.4114 1.1797
C9B C 0.5971(8) 1.2827(7) 1.1121(4)
H10B H 0.5658 1.3093 1.0586
C10B C 0.5549(9) 1.3710(8) 1.3407(4)
N2B N 0.5226(7) 1.4224(6) 1.4006(4)
H2B H 0.8558 0.9852 1.0901
C2B C 0.9936(8) 1.1201(8) 1.0441(5)
H3B H 0.9937 1.1805 0.9971
H4B H 0.9939 1.1688 1.0969
C3B C 1.1243(9) 1.0430(10) 1.0400(5)
H5B H 1.1318 0.9906 1.0909
H6B H 1.2046 1.0996 1.0382
N2A N 0.4774(7) 0.9224(6) 1.0994(4)
N2C N 0.4774(7) 1.0776(6) 0.9006(4)
Cu1A Cu 0.44701(11) 0.5000 0.5000
Cu1A_2 Cu 0.44701(11) 1.5000 1.5000
P1 P 0.2591(4) 0.5000 1.0000
F1 F 0.1592(15) 0.5999(12) 1.0290(6)
F2 F 0.2582(11) 0.5478(8) 0.9062(5)
F3 F 0.3769(15) 0.5866(18) 1.0273(7)
F1B F 0.1592(15) 0.4001(12) 0.9710(6)
F2B F 0.2582(11) 0.4522(8) 1.0938(5)
F3B F 0.3769(15) 0.4134(18) 0.9727(7)
O1 O 0.7739(12) 0.7251(11) 1.1142(5)
C11 C 0.792(2) 0.6042(17) 1.1031(12)
H11 H 0.8380 0.5892 1.0487
H12 H 0.7020 0.5614 1.1021
C12 C 0.879(3) 0.552(2) 1.1735(14)
H13 H 0.8562 0.4639 1.1864
H14 H 0.9781 0.5607 1.1625
C13 C 0.832(3) 0.636(3) 1.2362(11)
H15 H 0.9010 0.6432 1.2812
H16 H 0.7454 0.6042 1.2611
C14 C 0.810(3) 0.752(2) 1.1980(10)
H17 H 0.7349 0.7980 1.2265
H18 H 0.8941 0.8037 1.2002
loop_
_geom_bond_atom_site_label_1
_geom_bond_atom_site_label_2
_geom_bond_site_symmetry_1
_geom_bond_site_symmetry_2
Cu1 N1 1_555 1_555
N1 H1 1_555 1_555
N2 C10 1_555 1_555
C1 N1 1_555 1_555
H2 C1 1_555 1_555
C2 C1 1_555 1_555
H3 C2 1_555 1_555
H4 C2 1_555 1_555
C3 C2 1_555 1_555
H5 C3 1_555 1_555
H6 C3 1_555 1_555
C4 N1 1_555 1_555
C5 C4 1_555 1_555
H7 C5 1_555 1_555
C6 C5 1_555 1_555
H8 C6 1_555 1_555
C7 C6 1_555 1_555
C8 C7 1_555 1_555
H9 C8 1_555 1_555
C9 C4 1_555 1_555
H10 C9 1_555 1_555
C10 C7 1_555 1_555
P1 F1 1_555 1_555
F2 P1 1_555 1_555
F3 P1 1_555 1_555
O1 C11 1_555 1_555
C11 H11 1_555 1_555
H12 C11 1_555 1_555
C12 C11 1_555 1_555
H13 C12 1_555 1_555
H14 C12 1_555 1_555
C13 C12 1_555 1_555
H15 C13 1_555 1_555
H16 C13 1_555 1_555
C14 O1 1_555 1_555
H17 C14 1_555 1_555
H18 C14 1_555 1_555
C1B C1 1_555 1_555
N1B Cu1 1_555 1_555
H1B N1B 1_555 1_555
C4B N1B 1_555 1_555
C5B C4B 1_555 1_555
H7B C5B 1_555 1_555
C6B C5B 1_555 1_555
H8B C6B 1_555 1_555
C7B C6B 1_555 1_555
C8B C7B 1_555 1_555
H9B C8B 1_555 1_555
C9B C4B 1_555 1_555
H10B C9B 1_555 1_555
C10B C7B 1_555 1_555
N2B C10B 1_555 1_555
H2B C1B 1_555 1_555
C2B C1B 1_555 1_555
H3B C2B 1_555 1_555
H4B C2B 1_555 1_555
C3B C3 1_555 1_555
H5B C3B 1_555 1_555
H6B C3B 1_555 1_555
F1B P1 1_555 1_555
F2B P1 1_555 1_555
F3B P1 1_555 1_555
N2A Cu1 1_555 1_555
N2C Cu1 1_555 1_555
Cu1A N2 1_555 1_555
Cu1A_2 N2B 1_555 1_555
C8 C9 1_555 1_555
C13 C14 1_555 1_555
C1B N1B 1_555 1_555
C8B C9B 1_555 1_555
C2B C3B 1_555 1_555

#END
