
#######################################################################
#
#                 Cambridge Crystallographic Data Centre
#                                CCDC 
#
#######################################################################
#
# If this CIF has been generated from an entry in the Cambridge 
# Structural Database, then it will include bibliographic, chemical, 
# crystal, experimental, refinement or atomic coordinate data resulting 
# from the CCDC's data processing and validation procedures.
#
#######################################################################

data_IYEWEO
_symmetry_cell_setting           monoclinic
_symmetry_space_group_name_H-M   'C 2/c'
_symmetry_Int_Tables_number      15
_space_group_name_Hall           '-C 2yn'
loop_
_symmetry_equiv_pos_site_id
_symmetry_equiv_pos_as_xyz
1 x,y,z
2 1/2+x,1/2+y,z
3 x,-y,1/2+z
4 1/2+x,1/2-y,1/2+z
5 -x,-y,-z
6 1/2-x,1/2-y,-z
7 -x,y,1/2-z
8 1/2-x,1/2+y,1/2-z
_cell_length_a                   24.91(3)
_cell_length_b                   5.088(7)
_cell_length_c                   17.73(2)
_cell_angle_alpha                90
_cell_angle_beta                 128.471(17)
_cell_angle_gamma                90
_cell_volume                     1759.34
loop_
_atom_site_label
_atom_site_type_symbol
_atom_site_fract_x
_atom_site_fract_y
_atom_site_fract_z
Ag1 Ag 0.06063(3) -0.08488(13) 0.00070(5)
C1 C 0.1776(5) -0.2625(17) 0.2157(7)
H1 H 0.1866 -0.3733 0.1830
C2 C 0.2182(4) -0.277(2) 0.3109(7)
H2 H 0.2541 -0.3973 0.3437
C3 C 0.2065(5) -0.113(2) 0.3594(7)
H3 H 0.2344 -0.1229 0.4262
C4 C 0.1557(5) 0.0615(19) 0.3130(7)
H4 H 0.1485 0.1778 0.3464
C5 C 0.1137(4) 0.0641(15) 0.2129(6)
C6 C 0.0328(4) 0.4354(15) 0.2192(6)
H5 H 0.0765 0.4965 0.2767
H6 H 0.0038 0.5886 0.1871
C7 C 0.0000 0.260(2) 0.2500
H7 H 0.0345 0.1480 0.3032
H8 H -0.0345 0.1480 0.1968
N1 N 0.1232(3) -0.0934(12) 0.1627(5)
N2 N 0.1208(4) 0.4066(13) -0.0224(5)
O1 O 0.1393(5) 0.6250(16) -0.0248(8)
O2 O 0.0894(5) 0.3863(14) 0.0109(6)
O3 O 0.1286(4) 0.2143(18) -0.0535(7)
S1 S 0.04708(9) 0.2883(4) 0.14060(13)
C6F C -0.0328(4) 0.4354(15) 0.2808(6)
H5F H -0.0765 0.4965 0.2233
H6F H -0.0038 0.5886 0.3129
S1F S -0.04708(9) 0.2883(4) 0.35940(13)
C5F C -0.1137(4) 0.0641(15) 0.2871(6)
C4F C -0.1557(5) 0.0615(19) 0.1870(7)
C3F C -0.2065(5) -0.113(2) 0.1406(7)
C2F C -0.2182(4) -0.277(2) 0.1891(7)
C1F C -0.1776(5) -0.2625(17) 0.2843(7)
H1F H -0.1866 -0.3733 0.3170
N1F N -0.1232(3) -0.0934(12) 0.3373(5)
H2F H -0.2541 -0.3973 0.1563
H3F H -0.2344 -0.1229 0.0738
H4F H -0.1485 0.1778 0.1536
Ag1F Ag -0.06063(3) -0.08488(13) 0.49930(5)
N2F N -0.1208(4) 0.4066(13) 0.5224(5)
O1F O -0.1393(5) 0.6250(16) 0.5248(8)
O2F O -0.0894(5) 0.3863(14) 0.4891(6)
O3F O -0.1286(4) 0.2143(18) 0.5535(7)
Ag1D Ag -0.06063(3) 0.08488(13) -0.00070(5)
S1D S -0.04708(9) -0.2883(4) -0.14060(13)
Ag1B Ag 0.06063(3) 0.08488(13) 0.50070(5)
S1B S 0.04708(9) -0.2883(4) 0.64060(13)
loop_
_geom_bond_atom_site_label_1
_geom_bond_atom_site_label_2
_geom_bond_site_symmetry_1
_geom_bond_site_symmetry_2
Ag1 N1 1_555 1_555
C1 H1 1_555 1_555
C2 C1 1_555 1_555
H2 C2 1_555 1_555
C3 C2 1_555 1_555
H3 C3 1_555 1_555
C4 C3 1_555 1_555
H4 C4 1_555 1_555
C5 C4 1_555 1_555
C6 H5 1_555 1_555
H6 C6 1_555 1_555
C7 C6 1_555 1_555
H7 C7 1_555 1_555
H8 C7 1_555 1_555
N1 C1 1_555 1_555
N2 O1 1_555 1_555
O2 Ag1 1_555 1_555
O3 N2 1_555 1_555
S1 C5 1_555 1_555
C6F C7 1_555 1_555
H5F C6F 1_555 1_555
H6F C6F 1_555 1_555
S1F C6F 1_555 1_555
C5F S1F 1_555 1_555
C4F C5F 1_555 1_555
C3F C4F 1_555 1_555
C2F C3F 1_555 1_555
C1F C2F 1_555 1_555
H1F C1F 1_555 1_555
N1F C5F 1_555 1_555
H2F C2F 1_555 1_555
H3F C3F 1_555 1_555
H4F C4F 1_555 1_555
Ag1F N1F 1_555 1_555
N2F O1F 1_555 1_555
O2F Ag1F 1_555 1_555
O3F N2F 1_555 1_555
Ag1D Ag1 1_555 1_555
S1D Ag1 1_555 1_555
Ag1B S1F 1_555 1_555
S1B Ag1F 1_555 1_555
C5 N1 1_555 1_555
C6 S1 1_555 1_555
N2 O2 1_555 1_555
S1 Ag1D 1_555 1_555
C1F N1F 1_555 1_555
Ag1F Ag1B 1_555 1_555
N2F O2F 1_555 1_555

#END
