
#######################################################################
#
#                 Cambridge Crystallographic Data Centre
#                                CCDC 
#
#######################################################################
#
# If this CIF has been generated from an entry in the Cambridge 
# Structural Database, then it will include bibliographic, chemical, 
# crystal, experimental, refinement or atomic coordinate data resulting 
# from the CCDC's data processing and validation procedures.
#
#######################################################################

data_IYICAV
_symmetry_cell_setting           monoclinic
_symmetry_space_group_name_H-M   'P 21/c'
_symmetry_Int_Tables_number      14
_space_group_name_Hall           '-P 2ybc'
loop_
_symmetry_equiv_pos_site_id
_symmetry_equiv_pos_as_xyz
1 x,y,z
2 -x,1/2+y,1/2-z
3 -x,-y,-z
4 x,1/2-y,1/2+z
_cell_length_a                   15.609(4)
_cell_length_b                   13.760(4)
_cell_length_c                   18.610(7)
_cell_angle_alpha                90
_cell_angle_beta                 112.831(12)
_cell_angle_gamma                90
_cell_volume                     3683.9
loop_
_atom_site_label
_atom_site_type_symbol
_atom_site_fract_x
_atom_site_fract_y
_atom_site_fract_z
Br1 Br 0.51493(4) 0.35583(5) 0.28299(3)
Br2 Br -0.23817(4) 0.32048(6) 0.39482(5)
Co1 Co 0.25588(4) 0.20122(5) 0.50466(4)
F1 F 0.0523(2) 0.2952(3) 0.6193(2)
F2 F 0.1732(2) 0.3743(3) 0.6886(2)
F3 F 0.0592(2) 0.4482(2) 0.6044(2)
F4 F 0.1879(2) 0.4994(2) 0.34126(19)
F5 F 0.2821(2) 0.5621(2) 0.4498(2)
F6 F 0.1340(2) 0.5748(2) 0.41534(18)
F7 F 0.3398(2) -0.0386(3) 0.3132(2)
F8 F 0.4307(2) -0.0231(3) 0.4284(2)
F9 F 0.4156(3) 0.0918(3) 0.3514(3)
F10 F -0.0254(2) 0.0919(3) 0.2707(2)
F11 F -0.0082(2) -0.0184(3) 0.3559(2)
F12 F 0.0430(2) -0.0394(3) 0.2666(2)
O1 O 0.1900(2) 0.2637(2) 0.56736(19)
O2 O 0.3254(2) 0.1337(2) 0.4470(2)
N1 N 0.2722(2) 0.0730(3) 0.5790(2)
N2 N 0.2709(3) -0.1705(3) 0.7792(3)
N3 N 0.2121(4) -0.2067(4) 0.7939(3)
N4 N 0.6079(2) -0.2443(3) 0.9160(2)
N5 N 0.2447(2) 0.3413(3) 0.4470(2)
N6 N 0.1286(2) 0.1426(3) 0.4160(2)
C1 C 0.2213(3) 0.0613(4) 0.6224(3)
C2 C 0.2395(3) -0.0050(4) 0.6809(3)
C3 C 0.3150(3) -0.0663(4) 0.6996(3)
C4 C 0.3660(3) -0.0601(3) 0.6523(3)
C5 C 0.3428(3) 0.0089(3) 0.5942(3)
C6 C 0.3420(3) -0.1350(4) 0.7653(3)
C7 C 0.5999(3) -0.1696(4) 0.8672(2)
C8 C 0.5154(3) -0.1285(3) 0.8192(2)
C9 C 0.4316(3) -0.1681(3) 0.8178(3)
C10 C 0.4404(3) -0.2440(4) 0.8702(3)
C11 C 0.5282(3) -0.2795(3) 0.9172(3)
C12 C 0.1081(4) 0.3659(4) 0.6174(3)
C13 C 0.1528(3) 0.3475(4) 0.5585(3)
C14 C 0.1520(3) 0.4189(4) 0.5082(3)
C15 C 0.2006(3) 0.4176(4) 0.4573(2)
C16 C 0.2013(4) 0.5127(4) 0.4164(3)
C17 C 0.3042(3) 0.3498(3) 0.4057(3)
C18 C 0.3926(3) 0.3916(4) 0.4419(3)
C19 C 0.4547(3) 0.3944(4) 0.4063(3)
C20 C 0.4291(3) 0.3531(4) 0.3326(3)
C21 C 0.3423(3) 0.3098(4) 0.2960(3)
C22 C 0.2811(3) 0.3072(3) 0.3327(2)
C23 C 0.3689(4) 0.0254(4) 0.3715(3)
C24 C 0.2953(3) 0.0689(4) 0.3949(3)
C25 C 0.2064(3) 0.0341(4) 0.3585(3)
C26 C 0.1269(3) 0.0726(4) 0.3683(3)
C27 C 0.0333(4) 0.0275(6) 0.3143(4)
C28 C 0.0427(3) 0.1838(4) 0.4138(3)
C29 C -0.0019(3) 0.1483(4) 0.4576(3)
C30 C -0.0846(4) 0.1890(5) 0.4552(3)
C31 C -0.1203(4) 0.2689(5) 0.4065(4)
C32 C -0.0739(4) 0.3073(5) 0.3657(4)
C33 C 0.0084(3) 0.2658(4) 0.3681(3)
H1 H 0.1688 0.1022 0.6115
H2 H 0.2000 -0.0090 0.7089
H3 H 0.4163 -0.1034 0.6602
H4 H 0.3786 0.0117 0.5630
H5 H 0.6552 -0.1432 0.8654
H6 H 0.5144 -0.0740 0.7875
H7 H 0.3864 -0.2714 0.8739
H8 H 0.5317 -0.3314 0.9518
H9 H 0.1158 0.4750 0.5067
H10 H 0.4099 0.4187 0.4926
H11 H 0.5139 0.4240 0.4314
H12 H 0.3254 0.2820 0.2457
H13 H 0.2226 0.2761 0.3081
H14 H 0.1972 -0.0196 0.3243
H15 H 0.0237 0.0943 0.4908
H16 H -0.1159 0.1632 0.4857
H17 H -0.0976 0.3635 0.3348
H18 H 0.0407 0.2930 0.3389
Co1A Co 0.74412(4) -0.29878(5) 0.99534(4)
N4A N 0.3921(2) 0.2557(3) 0.5840(2)
loop_
_geom_bond_atom_site_label_1
_geom_bond_atom_site_label_2
_geom_bond_site_symmetry_1
_geom_bond_site_symmetry_2
Br1 C20 1_555 1_555
Br2 C31 1_555 1_555
Co1 O1 1_555 1_555
F1 C12 1_555 1_555
F2 C12 1_555 1_555
F3 C12 1_555 1_555
F4 C16 1_555 1_555
F5 C16 1_555 1_555
F6 C16 1_555 1_555
F7 C23 1_555 1_555
F8 C23 1_555 1_555
F9 C23 1_555 1_555
F10 C27 1_555 1_555
F11 C27 1_555 1_555
F12 C27 1_555 1_555
O1 C13 1_555 1_555
O2 Co1 1_555 1_555
N1 Co1 1_555 1_555
N2 N3 1_555 1_555
N4 C7 1_555 1_555
N5 Co1 1_555 1_555
N6 Co1 1_555 1_555
C1 N1 1_555 1_555
C2 C1 1_555 1_555
C3 C2 1_555 1_555
C4 C3 1_555 1_555
C5 N1 1_555 1_555
C6 N2 1_555 1_555
C7 C8 1_555 1_555
C8 C9 1_555 1_555
C9 C6 1_555 1_555
C10 C9 1_555 1_555
C11 N4 1_555 1_555
C12 C13 1_555 1_555
C13 C14 1_555 1_555
C14 C15 1_555 1_555
C15 N5 1_555 1_555
C16 C15 1_555 1_555
C17 N5 1_555 1_555
C18 C17 1_555 1_555
C19 C18 1_555 1_555
C20 C19 1_555 1_555
C21 C20 1_555 1_555
C22 C17 1_555 1_555
C23 C24 1_555 1_555
C24 O2 1_555 1_555
C25 C24 1_555 1_555
C26 N6 1_555 1_555
C27 C26 1_555 1_555
C28 N6 1_555 1_555
C29 C28 1_555 1_555
C30 C29 1_555 1_555
C31 C30 1_555 1_555
C32 C31 1_555 1_555
C33 C28 1_555 1_555
H1 C1 1_555 1_555
H2 C2 1_555 1_555
H3 C4 1_555 1_555
H4 C5 1_555 1_555
H5 C7 1_555 1_555
H6 C8 1_555 1_555
H7 C10 1_555 1_555
H8 C11 1_555 1_555
H9 C14 1_555 1_555
H10 C18 1_555 1_555
H11 C19 1_555 1_555
H12 C21 1_555 1_555
H13 C22 1_555 1_555
H14 C25 1_555 1_555
H15 C29 1_555 1_555
H16 C30 1_555 1_555
H17 C32 1_555 1_555
H18 C33 1_555 1_555
Co1A N4 1_555 1_555
N4A Co1 1_555 1_555
C3 C6 1_555 1_555
C4 C5 1_555 1_555
C10 C11 1_555 1_555
C21 C22 1_555 1_555
C25 C26 1_555 1_555
C32 C33 1_555 1_555

#END
