
#######################################################################
#
#                 Cambridge Crystallographic Data Centre
#                                CCDC 
#
#######################################################################
#
# If this CIF has been generated from an entry in the Cambridge 
# Structural Database, then it will include bibliographic, chemical, 
# crystal, experimental, refinement or atomic coordinate data resulting 
# from the CCDC's data processing and validation procedures.
#
#######################################################################

data_IYIGAY
_symmetry_cell_setting           orthorhombic
_symmetry_space_group_name_H-M   'P n a 21'
_symmetry_Int_Tables_number      33
_space_group_name_Hall           'P 2c -2n'
loop_
_symmetry_equiv_pos_site_id
_symmetry_equiv_pos_as_xyz
1 x,y,z
2 -x,-y,1/2+z
3 1/2+x,1/2-y,z
4 1/2-x,1/2+y,1/2+z
_cell_length_a                   20.5479(4)
_cell_length_b                   9.34230(10)
_cell_length_c                   12.8479(3)
_cell_angle_alpha                90
_cell_angle_beta                 90
_cell_angle_gamma                90
_cell_volume                     2466.34
loop_
_atom_site_label
_atom_site_type_symbol
_atom_site_fract_x
_atom_site_fract_y
_atom_site_fract_z
Ag1 Ag -0.41379(2) 0.00167(5) -0.45483(5)
Ag2 Ag -0.25254(2) 0.49577(5) -0.54329(5)
N1 N -0.3183(2) 0.1220(5) -0.4361(4)
N2 N -0.3506(2) 0.3800(5) -0.5543(5)
N3 N -0.5209(3) 0.0014(5) -0.4785(5)
N4 N -0.6448(3) 0.0001(6) -0.5114(5)
C1 C -0.2588(3) -0.1102(7) -0.4037(7)
H1 H -0.2705 -0.1230 -0.4763
H2 H -0.2133 -0.1356 -0.3961
C2 C -0.2674(3) 0.0444(7) -0.3752(7)
H3 H -0.2262 0.0932 -0.3846
H4 H -0.2785 0.0501 -0.3019
C3 C -0.2939(3) 0.1497(6) -0.5450(6)
H5 H -0.2877 0.0593 -0.5807
H6 H -0.2522 0.1982 -0.5417
C4 C -0.3415(3) 0.2403(6) -0.6050(6)
H7 H -0.3830 0.1911 -0.6093
H8 H -0.3255 0.2546 -0.6752
C5 C -0.3298(3) 0.2634(7) -0.3875(6)
H9 H -0.3476 0.2492 -0.3183
H10 H -0.2886 0.3129 -0.3802
C6 C -0.3753(3) 0.3546(6) -0.4487(6)
H11 H -0.3810 0.4456 -0.4135
H12 H -0.4174 0.3081 -0.4527
C7 C -0.3992(3) 0.4605(7) -0.6161(7)
H13 H -0.3869 0.4555 -0.6889
H14 H -0.4410 0.4136 -0.6089
C8 C -0.4068(3) 0.6161(7) -0.5862(7)
H15 H -0.4524 0.6418 -0.5913
H16 H -0.3938 0.6277 -0.5141
C9 C -0.5382(4) -0.0916(12) -0.5655(11)
H17 H -0.5125 -0.0659 -0.6259
H18 H -0.5283 -0.1901 -0.5476
C10 C -0.5560(4) -0.0514(13) -0.3854(9)
H19 H -0.5386 -0.1436 -0.3648
H20 H -0.5499 0.0150 -0.3282
C11 C -0.5453(4) 0.1451(8) -0.4992(8)
H21 H -0.5320 0.2083 -0.4432
H22 H -0.5262 0.1804 -0.5632
C12 C -0.6296(4) -0.0661(13) -0.4100(10)
H23 H -0.6414 -0.1666 -0.4115
H24 H -0.6548 -0.0199 -0.3557
C13 C -0.6114(4) -0.0786(11) -0.5923(9)
H25 H -0.6165 -0.0295 -0.6583
H26 H -0.6303 -0.1733 -0.5989
C14 C -0.6201(3) 0.1484(8) -0.5088(7)
H27 H -0.6387 0.1990 -0.4500
H28 H -0.6326 0.1982 -0.5719
O1 O -0.3738(2) -0.2002(6) -0.3549(5)
O2 O -0.2932(3) -0.1938(6) -0.2201(4)
O3 O -0.2868(3) -0.3716(5) -0.3542(5)
O4 O -0.2918(2) 0.7059(5) -0.6435(5)
O5 O -0.3771(3) 0.7054(6) -0.7711(5)
O6 O -0.3786(3) 0.8795(5) -0.6318(4)
S1 S -0.30628(8) -0.22754(16) -0.32693(15)
S2 S -0.36033(8) 0.73644(16) -0.66471(16)
N4B N -0.1448(3) 0.4999(6) -0.5114(5)
Ag2B Ag -0.75254(2) 0.00423(5) -0.54329(5)
Ag1_2 Ag -0.41379(2) 1.00167(5) -0.45483(5)
O6_2 O -0.3786(3) -0.1205(5) -0.6318(4)
O7 O 0.3019(2) -0.4299(5) -0.6748(4)
O8 O 0.0253(3) 0.8612(9) -0.2674(7)
O9 O -0.0684(5) -0.0170(10) -0.3909(6)
O10 O 0.4286(3) -0.4682(8) -0.6068(6)
O11? O 0.498(4) -0.572(8) -0.818(5)
loop_
_geom_bond_atom_site_label_1
_geom_bond_atom_site_label_2
_geom_bond_site_symmetry_1
_geom_bond_site_symmetry_2
Ag1 N1 1_555 1_555
Ag2 N2 1_555 1_555
N1 C2 1_555 1_555
N2 C4 1_555 1_555
N3 Ag1 1_555 1_555
N4 C12 1_555 1_555
C1 H1 1_555 1_555
H2 C1 1_555 1_555
C2 C1 1_555 1_555
H3 C2 1_555 1_555
H4 C2 1_555 1_555
C3 N1 1_555 1_555
H5 C3 1_555 1_555
H6 C3 1_555 1_555
C4 C3 1_555 1_555
H7 C4 1_555 1_555
H8 C4 1_555 1_555
C5 N1 1_555 1_555
H9 C5 1_555 1_555
H10 C5 1_555 1_555
C6 N2 1_555 1_555
H11 C6 1_555 1_555
H12 C6 1_555 1_555
C7 N2 1_555 1_555
H13 C7 1_555 1_555
H14 C7 1_555 1_555
C8 C7 1_555 1_555
H15 C8 1_555 1_555
H16 C8 1_555 1_555
C9 N3 1_555 1_555
H17 C9 1_555 1_555
H18 C9 1_555 1_555
C10 N3 1_555 1_555
H19 C10 1_555 1_555
H20 C10 1_555 1_555
C11 N3 1_555 1_555
H21 C11 1_555 1_555
H22 C11 1_555 1_555
C12 C10 1_555 1_555
H23 C12 1_555 1_555
H24 C12 1_555 1_555
C13 N4 1_555 1_555
H25 C13 1_555 1_555
H26 C13 1_555 1_555
C14 N4 1_555 1_555
H27 C14 1_555 1_555
H28 C14 1_555 1_555
O1 Ag1 1_555 1_555
O2 S1 1_555 1_555
O3 S1 1_555 1_555
O4 Ag2 1_555 1_555
O5 S2 1_555 1_555
O6 S2 1_555 1_555
S1 C1 1_555 1_555
S2 C8 1_555 1_555
N4B Ag2 1_555 1_555
Ag2B N4 1_555 1_555
Ag1_2 O6 1_555 1_555
O6_2 Ag1 1_555 1_555
C5 C6 1_555 1_555
C9 C13 1_555 1_555
C11 C14 1_555 1_555
O1 S1 1_555 1_555
O4 S2 1_555 1_555

#END
