
#######################################################################
#
#                 Cambridge Crystallographic Data Centre
#                                CCDC 
#
#######################################################################
#
# If this CIF has been generated from an entry in the Cambridge 
# Structural Database, then it will include bibliographic, chemical, 
# crystal, experimental, refinement or atomic coordinate data resulting 
# from the CCDC's data processing and validation procedures.
#
#######################################################################

data_IYOHEK
_symmetry_cell_setting           monoclinic
_symmetry_space_group_name_H-M   'P 21/c'
_symmetry_Int_Tables_number      14
_space_group_name_Hall           '-P 2ybc'
loop_
_symmetry_equiv_pos_site_id
_symmetry_equiv_pos_as_xyz
1 x,y,z
2 -x,1/2+y,1/2-z
3 -x,-y,-z
4 x,1/2-y,1/2+z
_cell_length_a                   9.7312(19)
_cell_length_b                   11.277(2)
_cell_length_c                   18.980(4)
_cell_angle_alpha                90
_cell_angle_beta                 103.29(3)
_cell_angle_gamma                90
_cell_volume                     2027.06
loop_
_atom_site_label
_atom_site_type_symbol
_atom_site_fract_x
_atom_site_fract_y
_atom_site_fract_z
I1 I 0.25524(13) 0.63149(10) 0.21271(6)
I2 I -0.07358(11) 0.90544(10) 0.15229(6)
Zn1 Zn 0.18527(19) 0.84697(16) 0.19347(9)
N1 N 0.2742(13) 0.9406(10) 0.2856(7)
N2 N 0.2921(13) 1.5705(10) 0.6248(6)
N3 N 0.4528(14) 1.2411(11) 0.4810(7)
N4 N 1.1900(15) 1.1601(15) 0.5961(8)
C1 C 0.4391(15) 1.0776(13) 0.4005(8)
C2 C 0.3027(17) 1.1125(13) 0.3634(8)
H1 H 0.2649 1.1835 0.3752
C3 C 0.5192(17) 1.4940(15) 0.6155(9)
H2 H 0.6170 1.4971 0.6312
C4 C 0.4383(18) 1.5644(17) 0.6391(9)
H3 H 0.4848 1.6214 0.6713
C5 C 0.4065(18) 0.8997(15) 0.3285(10)
H4 H 0.4364 0.8227 0.3230
C6 C 0.2305(15) 1.4893(12) 0.5782(8)
H5 H 0.1325 1.4838 0.5677
C7 C 0.4874(17) 0.9730(15) 0.3767(7)
H6 H 0.5813 0.9522 0.3952
C8 C 0.5204(17) 1.1575(15) 0.4531(8)
C9 C 0.6631(15) 1.1396(15) 0.4744(8)
H7 H 0.7065 1.0790 0.4542
C10 C 0.4498(14) 1.4099(13) 0.5633(7)
C11 C 0.6754(14) 1.3015(12) 0.5566(7)
H8 H 0.7253 1.3538 0.5910
C12 C 0.3054(15) 1.4110(14) 0.5439(8)
H9 H 0.2574 1.3600 0.5081
C13 C 0.9729(16) 1.2170(16) 0.6248(10)
H10 H 0.9285 1.2434 0.6603
C14 C 0.7440(15) 1.2169(11) 0.5287(7)
C15 C 0.8980(18) 1.1950(14) 0.5516(8)
C16 C 1.118(2) 1.1956(16) 0.6382(10)
H11 H 1.1683 1.2099 0.6854
C17 C 0.9780(16) 1.1628(15) 0.5011(7)
H12 H 0.9353 1.1568 0.4521
C18 C 0.2220(17) 1.0387(16) 0.3074(11)
H13 H 0.1298 1.0605 0.2857
C19 C 1.1203(19) 1.1405(17) 0.5257(11)
H14 H 1.1707 1.1111 0.4934
C20 C 0.5305(16) 1.3107(13) 0.5341(8)
Zn1C Zn 0.18527(19) 1.65303(16) 0.69347(9)
N2C N 0.2921(13) 0.9295(10) 0.1248(6)
loop_
_geom_bond_atom_site_label_1
_geom_bond_atom_site_label_2
_geom_bond_site_symmetry_1
_geom_bond_site_symmetry_2
I1 Zn1 1_555 1_555
I2 Zn1 1_555 1_555
Zn1 N1 1_555 1_555
N1 C5 1_555 1_555
N2 C4 1_555 1_555
N3 C8 1_555 1_555
N4 C16 1_555 1_555
C1 C2 1_555 1_555
C2 H1 1_555 1_555
C3 H2 1_555 1_555
C4 C3 1_555 1_555
H3 C4 1_555 1_555
C5 H4 1_555 1_555
C6 N2 1_555 1_555
H5 C6 1_555 1_555
C7 C1 1_555 1_555
H6 C7 1_555 1_555
C8 C1 1_555 1_555
C9 C8 1_555 1_555
H7 C9 1_555 1_555
C10 C3 1_555 1_555
C11 H8 1_555 1_555
C12 C6 1_555 1_555
H9 C12 1_555 1_555
C13 H10 1_555 1_555
C14 C9 1_555 1_555
C15 C13 1_555 1_555
C16 C13 1_555 1_555
H11 C16 1_555 1_555
C17 C15 1_555 1_555
H12 C17 1_555 1_555
C18 N1 1_555 1_555
H13 C18 1_555 1_555
C19 N4 1_555 1_555
H14 C19 1_555 1_555
C20 N3 1_555 1_555
Zn1C N2 1_555 1_555
N2C Zn1 1_555 1_555
C2 C18 1_555 1_555
C5 C7 1_555 1_555
C10 C12 1_555 1_555
C10 C20 1_555 1_555
C11 C14 1_555 1_555
C11 C20 1_555 1_555
C14 C15 1_555 1_555
C17 C19 1_555 1_555

#END
