
#######################################################################
#
#                 Cambridge Crystallographic Data Centre
#                                CCDC 
#
#######################################################################
#
# If this CIF has been generated from an entry in the Cambridge 
# Structural Database, then it will include bibliographic, chemical, 
# crystal, experimental, refinement or atomic coordinate data resulting 
# from the CCDC's data processing and validation procedures.
#
#######################################################################

data_IYOYOL
_symmetry_cell_setting           monoclinic
_symmetry_space_group_name_H-M   'P 2/c'
_symmetry_Int_Tables_number      13
_space_group_name_Hall           '-P 2yc'
loop_
_symmetry_equiv_pos_site_id
_symmetry_equiv_pos_as_xyz
1 x,y,z
2 -x,y,1/2-z
3 -x,-y,-z
4 x,-y,1/2+z
_cell_length_a                   14.803(3)
_cell_length_b                   19.960(4)
_cell_length_c                   14.727(3)
_cell_angle_alpha                90
_cell_angle_beta                 103.18(3)
_cell_angle_gamma                90
_cell_volume                     4236.73
loop_
_atom_site_label
_atom_site_type_symbol
_atom_site_fract_x
_atom_site_fract_y
_atom_site_fract_z
Co1 Co 0.39136(5) 0.03101(3) 0.94900(5)
Cl1 Cl 0.54720(10) 0.05175(7) 0.93282(10)
N1 N 0.3970(4) 0.1039(2) 1.0550(3)
N2 N 0.3738(3) 0.0478(2) 1.3479(3)
N3 N 0.3504(6) 0.2348(3) 1.4966(4)
N4 N 0.3692(6) 0.4042(3) 1.3094(5)
N5 N 0.4051(5) 0.3214(3) 1.0407(4)
C1 C 0.3925(4) 0.1390(3) 1.1155(4)
C2 C 0.3742(4) 0.0997(3) 1.3158(4)
C3 C 0.3595(5) 0.2303(3) 1.4224(4)
C4 C 0.3720(5) 0.3484(3) 1.2919(4)
C5 C 0.3966(5) 0.2910(3) 1.1037(4)
C6 C 0.3847(3) 0.1835(2) 1.1896(3)
C7 C 0.3751(3) 0.1660(3) 1.2784(3)
C8 C 0.3707(4) 0.2255(3) 1.3284(3)
C9 C 0.3758(4) 0.2793(3) 1.2691(4)
C10 C 0.3862(4) 0.2533(2) 1.1833(3)
O1 O 0.2560(3) 0.0132(2) 0.9598(3)
C11 C 0.1843(9) 0.0557(7) 0.9300(16)
H1 H 0.1706 0.0597 0.8626
H2 H 0.1991 0.0998 0.9569
C12 C 0.1041(8) 0.0269(7) 0.9608(15)
H3 H 0.0868 0.0560 1.0068
H4 H 0.0514 0.0232 0.9080
C13 C 0.1280(8) -0.0365(6) 0.9995(14)
H5 H 0.0828 -0.0699 0.9711
H6 H 0.1330 -0.0362 1.0663
C14 C 0.2215(8) -0.0497(6) 0.9770(10)
H7 H 0.2631 -0.0714 1.0291
H8 H 0.2144 -0.0782 0.9225
O2 O 0.3452(3) 0.1047(2) 0.8491(3)
C15 C 0.3693(7) 0.1748(3) 0.8640(6)
H9 H 0.4308 0.1795 0.9041
H10 H 0.3252 0.1975 0.8930
C16 C 0.3668(9) 0.2034(5) 0.7714(8)
H11 H 0.3394 0.2478 0.7660
H12 H 0.4288 0.2065 0.7604
C17 C 0.3104(12) 0.1580(6) 0.7061(7)
H13 H 0.3297 0.1580 0.6474
H14 H 0.2456 0.1707 0.6945
C18 C 0.3248(9) 0.0908(4) 0.7505(5)
H15 H 0.2693 0.0636 0.7322
H16 H 0.3761 0.0677 0.7334
Co1B Co 0.60864(5) -0.03101(3) 1.05100(5)
Co1A Co 0.60864(5) 0.03101(3) 0.55100(5)
Co1C Co 0.39136(5) -0.03101(3) 1.44900(5)
Cl1B Cl 0.45280(10) -0.05175(7) 1.06718(10)
N1B N 0.6030(4) -0.1039(2) 0.9450(3)
N2B N 0.6262(3) -0.0478(2) 0.6521(3)
N2A N 0.6262(3) 0.0478(2) 1.1521(3)
N2C N 0.3738(3) -0.0478(2) 0.8479(3)
N3B N 0.6496(6) -0.2348(3) 0.5034(4)
N4B N 0.6308(6) -0.4042(3) 0.6906(5)
N5B N 0.5949(5) -0.3214(3) 0.9593(4)
C1B C 0.6075(4) -0.1390(3) 0.8845(4)
C2B C 0.6258(4) -0.0997(3) 0.6842(4)
C3B C 0.6405(5) -0.2303(3) 0.5776(4)
C4B C 0.6280(5) -0.3484(3) 0.7081(4)
C5B C 0.6034(5) -0.2910(3) 0.8963(4)
C6B C 0.6153(3) -0.1835(2) 0.8104(3)
C7B C 0.6249(3) -0.1660(3) 0.7216(3)
C8B C 0.6293(4) -0.2255(3) 0.6716(3)
C9B C 0.6242(4) -0.2793(3) 0.7309(4)
C10B C 0.6138(4) -0.2533(2) 0.8167(3)
O1B O 0.7440(3) -0.0132(2) 1.0402(3)
C11B C 0.8157(9) -0.0557(7) 1.0700(16)
H1B H 0.8294 -0.0597 1.1374
H2B H 0.8009 -0.0998 1.0431
C12B C 0.8959(8) -0.0269(7) 1.0392(15)
H3B H 0.9132 -0.0560 0.9932
H4B H 0.9486 -0.0232 1.0920
C13B C 0.8720(8) 0.0365(6) 1.0005(14)
H5B H 0.9172 0.0699 1.0289
H6B H 0.8670 0.0362 0.9337
C14B C 0.7785(8) 0.0497(6) 1.0230(10)
H7B H 0.7369 0.0714 0.9709
H8B H 0.7856 0.0782 1.0775
O2B O 0.6548(3) -0.1047(2) 1.1509(3)
C15B C 0.6307(7) -0.1748(3) 1.1360(6)
H9B H 0.5692 -0.1795 1.0959
H10B H 0.6748 -0.1975 1.1070
C16B C 0.6332(9) -0.2034(5) 1.2286(8)
H11B H 0.6606 -0.2478 1.2340
H12B H 0.5712 -0.2065 1.2396
C17B C 0.6896(12) -0.1580(6) 1.2939(7)
H13B H 0.6703 -0.1580 1.3526
H14B H 0.7544 -0.1707 1.3055
C18B C 0.6752(9) -0.0908(4) 1.2495(5)
H15B H 0.7307 -0.0636 1.2678
H16B H 0.6239 -0.0677 1.2666
Co2 Co 0.11377(7) 0.50280(4) 0.48440(6)
Cl2 Cl 0.03685(14) 0.44167(9) 0.58245(13)
N6 N 0.0971(4) 0.4221(3) 0.3853(4)
N7 N 0.1404(4) 0.4204(3) 0.0873(4)
N8 N 0.1736(5) 0.2183(3) 0.0121(4)
N9 N 0.1309(6) 0.0847(3) 0.2293(6)
N10 N 0.0903(6) 0.2106(4) 0.4704(5)
C19 C 0.1062(5) 0.3767(3) 0.3414(4)
C20 C 0.1370(5) 0.3772(3) 0.1374(4)
C21 C 0.1566(5) 0.2344(3) 0.0794(4)
C22 C 0.1296(5) 0.1426(3) 0.2344(5)
C23 C 0.1023(5) 0.2296(3) 0.4013(4)
C24 C 0.1184(4) 0.3200(3) 0.2868(4)
C25 C 0.1318(4) 0.3211(3) 0.1952(4)
C26 C 0.1389(4) 0.2546(3) 0.1673(4)
C27 C 0.1278(4) 0.2131(3) 0.2399(4)
C28 C 0.1159(4) 0.2526(3) 0.3133(4)
O3 O 0.1740(4) 0.5599(2) 0.3973(3)
C29 C 0.1587(10) 0.6315(5) 0.3810(9)
H17 H 0.1794 0.6562 0.4387
H18 H 0.0933 0.6405 0.3567
C30 C 0.2112(11) 0.6510(6) 0.3144(9)
H19 H 0.1699 0.6620 0.2551
H20 H 0.2490 0.6899 0.3366
C31 C 0.2693(12) 0.5948(6) 0.3038(11)
H21 H 0.3297 0.5985 0.3462
H22 H 0.2776 0.5921 0.2404
C32 C 0.2184(9) 0.5355(5) 0.3265(8)
H23 H 0.1730 0.5201 0.2722
H24 H 0.2607 0.4991 0.3500
O4 O 0.2515(4) 0.4641(2) 0.5429(4)
C33 C 0.3267(7) 0.5070(5) 0.5825(8)
H25 H 0.3195 0.5238 0.6423
H26 H 0.3284 0.5449 0.5417
C34 C 0.4154(12) 0.4671(7) 0.5951(13)
H27 H 0.4479 0.4775 0.5466
H28 H 0.4563 0.4759 0.6554
C35 C 0.3841(7) 0.3985(6) 0.5885(8)
H29 H 0.4203 0.3723 0.5541
H30 H 0.3920 0.3794 0.6504
C36 C 0.2833(7) 0.3970(4) 0.5390(6)
H31 H 0.2762 0.3826 0.4749
H32 H 0.2490 0.3667 0.5701
Co2B Co -0.11377(7) 0.49720(4) 0.51560(6)
Co2A Co -0.11377(7) 0.50280(4) 1.01560(6)
Co2C Co 0.11377(7) 0.49720(4) -0.01560(6)
Cl2B Cl -0.03685(14) 0.55833(9) 0.41755(13)
N6B N -0.0971(4) 0.5779(3) 0.6147(4)
N7B N -0.1404(4) 0.5796(3) 0.9127(4)
N7A N -0.1404(4) 0.4204(3) 0.4127(4)
N7C N 0.1404(4) 0.5796(3) 0.5873(4)
N8B N -0.1736(5) 0.7817(3) 0.9879(4)
N9B N -0.1309(6) 0.9153(3) 0.7707(6)
N10B N -0.0903(6) 0.7894(4) 0.5296(5)
C19B C -0.1062(5) 0.6233(3) 0.6586(4)
C20B C -0.1370(5) 0.6228(3) 0.8626(4)
C21B C -0.1566(5) 0.7656(3) 0.9206(4)
C22B C -0.1296(5) 0.8574(3) 0.7656(5)
C23B C -0.1023(5) 0.7704(3) 0.5987(4)
C24B C -0.1184(4) 0.6800(3) 0.7132(4)
C25B C -0.1318(4) 0.6789(3) 0.8048(4)
C26B C -0.1389(4) 0.7454(3) 0.8327(4)
C27B C -0.1278(4) 0.7869(3) 0.7601(4)
C28B C -0.1159(4) 0.7474(3) 0.6867(4)
O3B O -0.1740(4) 0.4401(2) 0.6027(3)
C29B C -0.1587(10) 0.3685(5) 0.6190(9)
H17B H -0.1794 0.3438 0.5613
H18B H -0.0933 0.3595 0.6433
C30B C -0.2112(11) 0.3490(6) 0.6856(9)
H19B H -0.1699 0.3380 0.7449
H20B H -0.2490 0.3101 0.6634
C31B C -0.2693(12) 0.4052(6) 0.6962(11)
H21B H -0.3297 0.4015 0.6538
H22B H -0.2776 0.4079 0.7596
C32B C -0.2184(9) 0.4645(5) 0.6735(8)
H23B H -0.1730 0.4799 0.7278
H24B H -0.2607 0.5009 0.6500
O4B O -0.2515(4) 0.5359(2) 0.4571(4)
C33B C -0.3267(7) 0.4930(5) 0.4175(8)
H25B H -0.3195 0.4762 0.3577
H26B H -0.3284 0.4551 0.4583
C34B C -0.4154(12) 0.5329(7) 0.4049(13)
H27B H -0.4479 0.5225 0.4534
H28B H -0.4563 0.5241 0.3446
C35B C -0.3841(7) 0.6015(6) 0.4115(8)
H29B H -0.4203 0.6277 0.4459
H30B H -0.3920 0.6206 0.3496
C36B C -0.2833(7) 0.6030(4) 0.4610(6)
H31B H -0.2762 0.6174 0.5251
H32B H -0.2490 0.6333 0.4299
O5 O 0.0000 0.115(3) 0.7500
C37 C -0.027(2) 0.1584(15) 0.8034(19)
C38 C -0.023(2) 0.2320(14) 0.7904(19)
H33 H 0.0075 0.1597 0.8745
H34 H -0.0928 0.1569 0.8139
H35 H 0.0110 0.2624 0.8432
H36 H -0.0852 0.2574 0.7726
C37A C 0.027(2) 0.1584(15) 0.6966(19)
C38A C 0.023(2) 0.2320(14) 0.7096(19)
H33A H -0.0075 0.1597 0.6255
H34A H 0.0928 0.1569 0.6861
H35A H -0.0110 0.2624 0.6568
H36A H 0.0852 0.2574 0.7274
loop_
_geom_bond_atom_site_label_1
_geom_bond_atom_site_label_2
_geom_bond_site_symmetry_1
_geom_bond_site_symmetry_2
Co1 Cl1 1_555 1_555
Cl1 Co1B 1_555 1_555
N1 Co1 1_555 1_555
N2 C2 1_555 1_555
N3 C3 1_555 1_555
N4 C4 1_555 1_555
N5 C5 1_555 1_555
C1 N1 1_555 1_555
C2 C7 1_555 1_555
C3 C8 1_555 1_555
C4 C9 1_555 1_555
C5 C10 1_555 1_555
C6 C1 1_555 1_555
C7 C6 1_555 1_555
C8 C7 1_555 1_555
C9 C8 1_555 1_555
C10 C6 1_555 1_555
O1 Co1 1_555 1_555
C11 O1 1_555 1_555
H1 C11 1_555 1_555
H2 C11 1_555 1_555
C12 C11 1_555 1_555
H3 C12 1_555 1_555
H4 C12 1_555 1_555
C13 C12 1_555 1_555
H5 C13 1_555 1_555
H6 C13 1_555 1_555
C14 O1 1_555 1_555
H7 C14 1_555 1_555
H8 C14 1_555 1_555
O2 Co1 1_555 1_555
C15 O2 1_555 1_555
H9 C15 1_555 1_555
H10 C15 1_555 1_555
C16 C15 1_555 1_555
H11 C16 1_555 1_555
H12 C16 1_555 1_555
C17 C16 1_555 1_555
H13 C17 1_555 1_555
H14 C17 1_555 1_555
C18 O2 1_555 1_555
H15 C18 1_555 1_555
H16 C18 1_555 1_555
Co2 Cl2 1_555 1_555
Cl2 Co2B 1_555 1_555
N6 Co2 1_555 1_555
N7 C20 1_555 1_555
N8 C21 1_555 1_555
N9 C22 1_555 1_555
N10 C23 1_555 1_555
C19 N6 1_555 1_555
C20 C25 1_555 1_555
C21 C26 1_555 1_555
C22 C27 1_555 1_555
C23 C28 1_555 1_555
C24 C19 1_555 1_555
C25 C24 1_555 1_555
C26 C25 1_555 1_555
C27 C26 1_555 1_555
C28 C24 1_555 1_555
O3 Co2 1_555 1_555
C29 O3 1_555 1_555
H17 C29 1_555 1_555
H18 C29 1_555 1_555
C30 C29 1_555 1_555
H19 C30 1_555 1_555
H20 C30 1_555 1_555
C31 C30 1_555 1_555
H21 C31 1_555 1_555
H22 C31 1_555 1_555
C32 O3 1_555 1_555
H23 C32 1_555 1_555
H24 C32 1_555 1_555
O4 Co2 1_555 1_555
C33 O4 1_555 1_555
H25 C33 1_555 1_555
H26 C33 1_555 1_555
C34 C33 1_555 1_555
H27 C34 1_555 1_555
H28 C34 1_555 1_555
C35 C34 1_555 1_555
H29 C35 1_555 1_555
H30 C35 1_555 1_555
C36 O4 1_555 1_555
H31 C36 1_555 1_555
H32 C36 1_555 1_555
O5 C37 1_555 1_555
C37 C38 1_555 1_555
C38 H35 1_555 1_555
H33 C37 1_555 1_555
H34 C37 1_555 1_555
H36 C38 1_555 1_555
Co1B Cl1B 1_555 1_555
Co1A N2B 1_555 1_555
Co1C N2 1_555 1_555
Cl1B Co1 1_555 1_555
N1B Co1B 1_555 1_555
N2B C2B 1_555 1_555
N2A Co1B 1_555 1_555
N2C Co1 1_555 1_555
N3B C3B 1_555 1_555
N4B C4B 1_555 1_555
N5B C5B 1_555 1_555
C1B N1B 1_555 1_555
C2B C7B 1_555 1_555
C3B C8B 1_555 1_555
C4B C9B 1_555 1_555
C5B C10B 1_555 1_555
C6B C1B 1_555 1_555
C7B C6B 1_555 1_555
C8B C7B 1_555 1_555
C9B C8B 1_555 1_555
C10B C6B 1_555 1_555
O1B Co1B 1_555 1_555
C11B O1B 1_555 1_555
H1B C11B 1_555 1_555
H2B C11B 1_555 1_555
C12B C11B 1_555 1_555
H3B C12B 1_555 1_555
H4B C12B 1_555 1_555
C13B C12B 1_555 1_555
H5B C13B 1_555 1_555
H6B C13B 1_555 1_555
C14B O1B 1_555 1_555
H7B C14B 1_555 1_555
H8B C14B 1_555 1_555
O2B Co1B 1_555 1_555
C15B O2B 1_555 1_555
H9B C15B 1_555 1_555
H10B C15B 1_555 1_555
C16B C15B 1_555 1_555
H11B C16B 1_555 1_555
H12B C16B 1_555 1_555
C17B C16B 1_555 1_555
H13B C17B 1_555 1_555
H14B C17B 1_555 1_555
C18B O2B 1_555 1_555
H15B C18B 1_555 1_555
H16B C18B 1_555 1_555
Co2B Cl2B 1_555 1_555
Co2A N7B 1_555 1_555
Co2C N7 1_555 1_555
Cl2B Co2 1_555 1_555
N6B Co2B 1_555 1_555
N7B C20B 1_555 1_555
N7A Co2B 1_555 1_555
N7C Co2 1_555 1_555
N8B C21B 1_555 1_555
N9B C22B 1_555 1_555
N10B C23B 1_555 1_555
C19B N6B 1_555 1_555
C20B C25B 1_555 1_555
C21B C26B 1_555 1_555
C22B C27B 1_555 1_555
C23B C28B 1_555 1_555
C24B C19B 1_555 1_555
C25B C24B 1_555 1_555
C26B C25B 1_555 1_555
C27B C26B 1_555 1_555
C28B C24B 1_555 1_555
O3B Co2B 1_555 1_555
C29B O3B 1_555 1_555
H17B C29B 1_555 1_555
H18B C29B 1_555 1_555
C30B C29B 1_555 1_555
H19B C30B 1_555 1_555
H20B C30B 1_555 1_555
C31B C30B 1_555 1_555
H21B C31B 1_555 1_555
H22B C31B 1_555 1_555
C32B O3B 1_555 1_555
H23B C32B 1_555 1_555
H24B C32B 1_555 1_555
O4B Co2B 1_555 1_555
C33B O4B 1_555 1_555
H25B C33B 1_555 1_555
H26B C33B 1_555 1_555
C34B C33B 1_555 1_555
H27B C34B 1_555 1_555
H28B C34B 1_555 1_555
C35B C34B 1_555 1_555
H29B C35B 1_555 1_555
H30B C35B 1_555 1_555
C36B O4B 1_555 1_555
H31B C36B 1_555 1_555
H32B C36B 1_555 1_555
C37A O5 1_555 1_555
C38A C38 1_555 1_555
H33A C37A 1_555 1_555
H34A C37A 1_555 1_555
H35A C38A 1_555 1_555
H36A C38A 1_555 1_555
C9 C10 1_555 1_555
C13 C14 1_555 1_555
C17 C18 1_555 1_555
C27 C28 1_555 1_555
C31 C32 1_555 1_555
C35 C36 1_555 1_555
C9B C10B 1_555 1_555
C13B C14B 1_555 1_555
C17B C18B 1_555 1_555
C27B C28B 1_555 1_555
C31B C32B 1_555 1_555
C35B C36B 1_555 1_555
C37A C38A 1_555 1_555

#END
