
#######################################################################
#
#                 Cambridge Crystallographic Data Centre
#                                CCDC 
#
#######################################################################
#
# If this CIF has been generated from an entry in the Cambridge 
# Structural Database, then it will include bibliographic, chemical, 
# crystal, experimental, refinement or atomic coordinate data resulting 
# from the CCDC's data processing and validation procedures.
#
#######################################################################

data_IYOZIF
_symmetry_cell_setting           orthorhombic
_symmetry_space_group_name_H-M   'P b c a'
_symmetry_Int_Tables_number      61
_space_group_name_Hall           '-P 2ac 2ab'
loop_
_symmetry_equiv_pos_site_id
_symmetry_equiv_pos_as_xyz
1 x,y,z
2 1/2+x,y,1/2-z
3 x,1/2-y,1/2+z
4 1/2-x,1/2+y,z
5 -x,-y,-z
6 1/2-x,-y,1/2+z
7 -x,1/2+y,1/2-z
8 1/2+x,1/2-y,-z
_cell_length_a                   19.589(3)
_cell_length_b                   12.055(2)
_cell_length_c                   20.015(4)
_cell_angle_alpha                90
_cell_angle_beta                 90
_cell_angle_gamma                90
_cell_volume                     4726.45
loop_
_atom_site_label
_atom_site_type_symbol
_atom_site_fract_x
_atom_site_fract_y
_atom_site_fract_z
Eu1 Eu 0.182616(4) 0.286912(8) 0.456889(5)
O1 O 0.11411(7) 0.25738(13) 0.35805(7)
O2 O 0.02301(9) 0.29024(16) 0.29140(9)
O3 O 0.19918(7) 0.09224(13) 0.43833(7)
O4 O 0.26544(7) -0.05154(12) 0.40993(7)
O5 O 0.17465(8) 0.40791(13) 0.55068(7)
O6 O 0.16121(8) 0.45267(14) 0.65903(8)
O7 O 0.07577(8) 0.20235(15) 0.49348(9)
O8 O 0.29998(9) 0.26993(17) 0.49803(10)
N1 N 0.08817(8) 0.43682(16) 0.43212(9)
N2 N -0.00334(10) 0.59907(18) 0.38645(10)
N3 N 0.27284(8) 0.23068(15) 0.35931(9)
N4 N 0.37256(9) 0.14232(18) 0.27325(9)
N5 N 0.18777(8) 0.19310(15) 0.57791(9)
N6 N 0.18364(12) 0.11498(18) 0.70999(10)
C1 C 0.06147(11) 0.31364(19) 0.33841(11)
C2 C 0.04894(10) 0.41977(19) 0.37768(10)
C3 C 0.00233(11) 0.4999(2) 0.35624(11)
H1 H -0.0262 0.4839 0.3191
C4 C 0.03674(12) 0.6152(2) 0.44018(12)
H2 H 0.0346 0.6844 0.4628
C5 C 0.08134(11) 0.53404(19) 0.46394(11)
H3 H 0.1072 0.5479 0.5032
C6 C 0.24728(10) 0.04779(18) 0.40550(9)
C7 C 0.28575(9) 0.12131(18) 0.35669(9)
C8 C 0.33366(10) 0.0772(2) 0.31281(10)
H4 H 0.3392 -0.0010 0.3106
C9 C 0.36190(12) 0.2512(2) 0.27809(11)
H5 H 0.3896 0.3002 0.2527
C10 C 0.31095(11) 0.29570(19) 0.31956(11)
H6 H 0.3033 0.3735 0.3195
C11 C 0.17083(9) 0.38393(19) 0.61259(10)
C12 C 0.17943(10) 0.26315(19) 0.62994(11)
C13 C 0.17824(13) 0.2228(2) 0.69535(12)
H7 H 0.1734 0.2743 0.7310
C14 C 0.19092(11) 0.0467(2) 0.65753(12)
H8 H 0.1943 -0.0308 0.6654
C15 C 0.19370(10) 0.0855(2) 0.59186(11)
H9 H 0.1999 0.0340 0.5564
H10 H 0.0447(16) 0.191(3) 0.4691(15)
H11 H 0.0649(15) 0.189(3) 0.5343(17)
H12 H 0.3260(17) 0.303(3) 0.4863(19)
H13 H 0.3091(17) 0.242(4) 0.535(2)
O4C O 0.23456(7) 0.44846(12) 0.40993(7)
Eu1C Eu 0.317384(4) -0.213088(8) 0.456889(5)
O9 O 0.40143(9) 0.41743(17) 0.45629(10)
H14 H 0.4314(18) 0.401(3) 0.4298(17)
H15 H 0.3800(19) 0.475(4) 0.4460(19)
O10 O 0.01809(9) 0.15604(19) 0.62043(10)
H16 H 0.016(2) 0.205(4) 0.638(2)
H17 H 0.0273(18) 0.105(4) 0.6521(19)
O11 O 0.47204(10) 0.03923(16) 0.18702(9)
H18 H 0.4502(18) 0.067(3) 0.2128(17)
H19 H 0.5093(19) 0.049(3) 0.2010(17)
O12 O 0.11411(9) 0.04631(16) 0.29479(10)
H20 H 0.1180(17) 0.109(3) 0.3128(18)
H21 H 0.1312(16) 0.046(3) 0.2562(19)
O13 O 0.34961(10) 0.17643(19) 0.61204(10)
H22 H 0.3881(17) 0.194(3) 0.6148(16)
H23 H 0.3517(17) 0.115(3) 0.6253(18)
O14 O 0.45775(9) 0.16765(17) 0.07523(10)
H24 H 0.4607(19) 0.130(3) 0.106(2)
H25 H 0.4413(19) 0.133(4) 0.042(2)
loop_
_geom_bond_atom_site_label_1
_geom_bond_atom_site_label_2
_geom_bond_site_symmetry_1
_geom_bond_site_symmetry_2
Eu1 O1 1_555 1_555
O1 C1 1_555 1_555
O2 C1 1_555 1_555
O3 Eu1 1_555 1_555
O4 C6 1_555 1_555
O5 Eu1 1_555 1_555
O6 C11 1_555 1_555
O7 Eu1 1_555 1_555
O8 Eu1 1_555 1_555
O9 H14 1_555 1_555
O10 H16 1_555 1_555
O11 H18 1_555 1_555
O12 H20 1_555 1_555
O13 H22 1_555 1_555
O14 H24 1_555 1_555
N1 Eu1 1_555 1_555
N2 C3 1_555 1_555
N3 Eu1 1_555 1_555
N4 C8 1_555 1_555
N5 Eu1 1_555 1_555
N6 C13 1_555 1_555
C1 C2 1_555 1_555
C2 N1 1_555 1_555
C3 C2 1_555 1_555
H1 C3 1_555 1_555
C4 N2 1_555 1_555
H2 C4 1_555 1_555
C5 N1 1_555 1_555
H3 C5 1_555 1_555
C6 O3 1_555 1_555
C7 N3 1_555 1_555
C8 C7 1_555 1_555
H4 C8 1_555 1_555
C9 N4 1_555 1_555
H5 C9 1_555 1_555
C10 N3 1_555 1_555
H6 C10 1_555 1_555
C11 O5 1_555 1_555
C12 N5 1_555 1_555
C13 C12 1_555 1_555
H7 C13 1_555 1_555
C14 N6 1_555 1_555
H8 C14 1_555 1_555
C15 N5 1_555 1_555
H9 C15 1_555 1_555
H10 O7 1_555 1_555
H11 O7 1_555 1_555
H12 O8 1_555 1_555
H13 O8 1_555 1_555
H15 O9 1_555 1_555
H17 O10 1_555 1_555
H19 O11 1_555 1_555
H21 O12 1_555 1_555
H23 O13 1_555 1_555
H25 O14 1_555 1_555
O4C Eu1 1_555 1_555
Eu1C O4 1_555 1_555
C4 C5 1_555 1_555
C6 C7 1_555 1_555
C9 C10 1_555 1_555
C11 C12 1_555 1_555
C14 C15 1_555 1_555

#END
