
#######################################################################
#
#                 Cambridge Crystallographic Data Centre
#                                CCDC 
#
#######################################################################
#
# If this CIF has been generated from an entry in the Cambridge 
# Structural Database, then it will include bibliographic, chemical, 
# crystal, experimental, refinement or atomic coordinate data resulting 
# from the CCDC's data processing and validation procedures.
#
#######################################################################

data_IYUBOU
_symmetry_cell_setting           triclinic
_symmetry_space_group_name_H-M   'P -1'
_symmetry_Int_Tables_number      2
_space_group_name_Hall           '-P 1'
loop_
_symmetry_equiv_pos_site_id
_symmetry_equiv_pos_as_xyz
1 x,y,z
2 -x,-y,-z
_cell_length_a                   11.295(2)
_cell_length_b                   11.575(2)
_cell_length_c                   11.766(2)
_cell_angle_alpha                108.150(10)
_cell_angle_beta                 110.87(2)
_cell_angle_gamma                100.62(2)
_cell_volume                     1288.11
loop_
_atom_site_label
_atom_site_type_symbol
_atom_site_fract_x
_atom_site_fract_y
_atom_site_fract_z
O1 O 0.546(2) 0.012(3) 0.683(2)
C23 C 0.4586(17) -0.0437(19) 0.7126(19)
H19 H 0.4766 -0.0578 0.7915
N5 N 0.3460(15) -0.0755(15) 0.6182(14)
C24 C 0.326(2) -0.054(2) 0.5012(18)
H20 H 0.4085 -0.0444 0.4899
H21 H 0.3028 0.0251 0.5098
H22 H 0.2526 -0.1270 0.4235
C25 C 0.227(2) -0.130(3) 0.629(3)
H23 H 0.2405 -0.1949 0.6650
H24 H 0.1502 -0.1703 0.5409
H25 H 0.2108 -0.0616 0.6892
O2 O -0.0566(16) -0.4765(15) 0.5010(16)
C26 C 0.0566(16) -0.5235(15) 0.4990(16)
O2A O 0.0566(16) -0.5235(15) 0.4990(16)
C26A C -0.0566(16) -0.4765(15) 0.5010(16)
Co1 Co -0.93252(9) -0.72931(9) -0.20613(9)
Cl1 Cl -1.04456(19) -0.58661(19) -0.20933(18)
Cl2 Cl -0.8812(2) -0.8103(2) -0.37566(19)
N1 N -0.1346(5) -0.0878(5) 0.7623(5)
C1 C -0.0674(6) -0.0083(6) 0.7270(6)
H1 H -0.0448 -0.0376 0.6551
N2 N -0.0356(5) 0.1153(5) 0.8025(5)
C2 C -0.0802(6) 0.2197(6) 0.9997(6)
H2 H -0.0385 0.3064 1.0169
C3 C -0.1376(7) 0.1899(7) 1.0760(7)
H3 H -0.1358 0.2576 1.1482
C4 C -0.1996(7) 0.0603(8) 1.0497(7)
H4 H -0.2369 0.0435 1.1060
C5 C -0.2076(6) -0.0415(7) 0.9460(6)
H5 H -0.2505 -0.1283 0.9278
C6 C -0.1503(6) -0.0110(6) 0.8701(6)
C7 C -0.0861(6) 0.1159(6) 0.8952(6)
C8 C -0.1893(6) -0.2290(6) 0.6949(7)
H6 H -0.1724 -0.2650 0.7631
H7 H -0.1416 -0.2597 0.6418
C9 C -0.3366(6) -0.2785(6) 0.6051(6)
C10 C -0.4312(7) -0.3291(6) 0.6421(6)
H8 H -0.4018 -0.3307 0.7278
C11 C -0.5660(7) -0.3767(6) 0.5575(6)
H9 H -0.6290 -0.4120 0.5841
C12 C -0.6096(6) -0.3729(6) 0.4336(6)
H10 H -0.7030 -0.4050 0.3753
C13 C -0.5183(6) -0.3224(5) 0.3934(5)
C14 C -0.3832(6) -0.2755(5) 0.4793(6)
H11 H -0.3203 -0.2404 0.4524
N3 N -0.7637(5) -0.6239(5) -0.0321(5)
C15 C -0.7453(6) -0.5098(6) 0.0530(6)
H12 H -0.8151 -0.4737 0.0481
N4 N -0.6171(5) -0.4485(5) 0.1484(4)
C16 C -0.4103(6) -0.5147(6) 0.1846(6)
H13 H -0.3473 -0.4382 0.2596
C17 C -0.3723(7) -0.6171(7) 0.1315(6)
H14 H -0.2808 -0.6113 0.1721
C18 C -0.4643(7) -0.7301(7) 0.0192(7)
H15 H -0.4339 -0.7987 -0.0137
C19 C -0.5984(7) -0.7430(6) -0.0443(6)
H16 H -0.6604 -0.8188 -0.1207
C20 C -0.6392(6) -0.6405(6) 0.0081(6)
C21 C -0.5459(6) -0.5292(6) 0.1223(6)
C22 C -0.5646(7) -0.3189(6) 0.2575(6)
H17 H -0.6358 -0.2787 0.2441
H18 H -0.4883 -0.2645 0.2541
Co1_2 Co 0.06748(9) 0.27069(9) 0.79387(9)
N2_2 N -1.0356(5) -0.8847(5) -0.1975(5)
loop_
_geom_bond_atom_site_label_1
_geom_bond_atom_site_label_2
_geom_bond_site_symmetry_1
_geom_bond_site_symmetry_2
Co1 Cl1 1_555 1_555
Cl2 Co1 1_555 1_555
N1 C1 1_555 1_555
C1 H1 1_555 1_555
N2 C1 1_555 1_555
C2 H2 1_555 1_555
C3 C2 1_555 1_555
H3 C3 1_555 1_555
C4 C3 1_555 1_555
H4 C4 1_555 1_555
C5 C4 1_555 1_555
H5 C5 1_555 1_555
C6 N1 1_555 1_555
C7 N2 1_555 1_555
C8 N1 1_555 1_555
H6 C8 1_555 1_555
H7 C8 1_555 1_555
C9 C8 1_555 1_555
C10 C9 1_555 1_555
H8 C10 1_555 1_555
C11 C10 1_555 1_555
H9 C11 1_555 1_555
C12 C11 1_555 1_555
H10 C12 1_555 1_555
C13 C12 1_555 1_555
C14 C9 1_555 1_555
H11 C14 1_555 1_555
N3 Co1 1_555 1_555
C15 N3 1_555 1_555
H12 C15 1_555 1_555
N4 C15 1_555 1_555
C16 H13 1_555 1_555
C17 C16 1_555 1_555
H14 C17 1_555 1_555
C18 C17 1_555 1_555
H15 C18 1_555 1_555
C19 C18 1_555 1_555
H16 C19 1_555 1_555
C20 N3 1_555 1_555
C21 N4 1_555 1_555
C22 C13 1_555 1_555
H17 C22 1_555 1_555
H18 C22 1_555 1_555
O1 C23 1_555 1_555
C23 H19 1_555 1_555
N5 C23 1_555 1_555
C24 N5 1_555 1_555
H20 C24 1_555 1_555
H21 C24 1_555 1_555
H22 C24 1_555 1_555
C25 N5 1_555 1_555
H23 C25 1_555 1_555
H24 C25 1_555 1_555
H25 C25 1_555 1_555
O2 C26 1_555 1_555
C26 C26A 1_555 1_555
Co1_2 N2 1_555 1_555
N2_2 Co1 1_555 1_555
O2A O2 1_555 1_555
C26A O2A 1_555 1_555
C2 C7 1_555 1_555
C5 C6 1_555 1_555
C6 C7 1_555 1_555
C13 C14 1_555 1_555
N4 C22 1_555 1_555
C16 C21 1_555 1_555
C19 C20 1_555 1_555
C20 C21 1_555 1_555

#END
