
#######################################################################
#
#                 Cambridge Crystallographic Data Centre
#                                CCDC 
#
#######################################################################
#
# If this CIF has been generated from an entry in the Cambridge 
# Structural Database, then it will include bibliographic, chemical, 
# crystal, experimental, refinement or atomic coordinate data resulting 
# from the CCDC's data processing and validation procedures.
#
#######################################################################

data_IYUWOP
_symmetry_cell_setting           rhombohedral
_symmetry_space_group_name_H-M   'R 3'
_symmetry_Int_Tables_number      146
_space_group_name_Hall           'R 3'
loop_
_symmetry_equiv_pos_site_id
_symmetry_equiv_pos_as_xyz
1 x,y,z
2 -y,x-y,z
3 -x+y,-x,z
4 2/3+x,1/3+y,1/3+z
5 2/3-y,1/3+x-y,1/3+z
6 2/3-x+y,1/3-x,1/3+z
7 1/3+x,2/3+y,2/3+z
8 1/3-y,2/3+x-y,2/3+z
9 1/3-x+y,2/3-x,2/3+z
_cell_length_a                   29.6808(3)
_cell_length_b                   29.6808(3)
_cell_length_c                   72.690(2)
_cell_angle_alpha                90
_cell_angle_beta                 90
_cell_angle_gamma                120
_cell_volume                     55457
loop_
_atom_site_label
_atom_site_type_symbol
_atom_site_fract_x
_atom_site_fract_y
_atom_site_fract_z
C1 C 0.4815(8) 0.7419(6) 0.1497(3)
C2 C 0.5337(9) 0.7689(7) 0.1546(3)
C3 C 0.5719(7) 0.7903(7) 0.1411(4)
C4 C 0.5579(8) 0.7846(6) 0.1227(3)
C5 C 0.5057(9) 0.7576(8) 0.1177(3)
C6 C 0.4675(7) 0.7363(6) 0.1312(4)
C7 C 0.4380(10) 0.7176(8) 0.1641(3)
C8 C 0.8394(7) 0.9191(5) 0.0623(3)
C9 C 0.8357(7) 0.9192(7) 0.0814(3)
C10 C 0.7871(9) 0.8950(7) 0.0898(3)
C11 C 0.7422(7) 0.8706(7) 0.0791(3)
C12 C 0.7460(8) 0.8705(7) 0.0600(3)
C13 C 0.7945(9) 0.8947(7) 0.0516(3)
C14 C 0.4934(12) 0.7520(12) 0.0967(4)
C15 C 0.5802(9) 0.4004(9) 0.31714(19)
C16 C 0.6036(7) 0.4475(8) 0.3077(3)
C17 C 0.5749(9) 0.4584(7) 0.2953(3)
C18 C 0.5228(9) 0.4223(9) 0.2922(2)
C19 C 0.4995(8) 0.3752(8) 0.3016(3)
C20 C 0.5282(9) 0.3642(8) 0.3141(2)
C21 C 0.8940(9) 0.9463(6) 0.0531(4)
C22 C 0.4024(9) 0.5751(9) 0.23015(19)
C23 C 0.4490(9) 0.5980(7) 0.2399(3)
C24 C 0.4630(8) 0.5672(9) 0.2500(3)
C25 C 0.4304(9) 0.5135(8) 0.2504(2)
C26 C 0.3838(8) 0.4907(7) 0.2407(3)
C27 C 0.3699(7) 0.5215(9) 0.2306(2)
C28 C 0.5129(12) 0.8002(13) 0.0883(6)
C29 C 0.5156(12) 0.7221(13) 0.0903(6)
C30 C 0.4386(13) 0.7230(18) 0.0936(8)
C31 C 0.6230(8) 0.8160(10) 0.1476(4)
C32 C 0.6926(10) 0.8421(11) 0.0490(5)
C33 C 0.6982(17) 0.8465(18) 0.0297(4)
C34 C 0.6646(15) 0.7886(11) 0.0537(4)
C35 C 0.6606(13) 0.8641(14) 0.0525(4)
C36 C 0.7885(9) 0.8983(10) 0.1092(3)
C37 C 0.7038(10) 0.8934(12) 0.1463(3)
C38 C 0.7162(14) 0.8967(14) 0.1680(3)
C39 C 0.7505(17) 0.9515(16) 0.1741(5)
C40 C 0.7933(15) 0.9828(14) 0.1614(5)
C41 C 0.8036(10) 0.9584(15) 0.1443(5)
C42 C 0.7494(8) 0.9124(8) 0.1358(3)
C43 C 0.6104(10) 0.3863(8) 0.3310(3)
C44 C 0.4416(10) 0.3332(11) 0.2993(5)
C45 C 0.4277(16) 0.2826(13) 0.3058(7)
C46 C 0.4269(16) 0.3260(10) 0.2807(5)
C47 C 0.4150(15) 0.3512(16) 0.3101(7)
C48 C 0.6016(10) 0.5080(9) 0.2865(5)
C49 C 0.3868(9) 0.6082(10) 0.2189(3)
C50 C 0.3492(11) 0.4308(9) 0.2421(5)
C51 C 0.3007(13) 0.4121(15) 0.2330(6)
C52 C 0.3342(9) 0.4156(13) 0.2604(5)
C53 C 0.3799(13) 0.4133(16) 0.2337(6)
C54 C 0.5096(11) 0.5977(9) 0.2584(5)
C55 C 0.6061(8) 0.5890(8) 0.2837(4)
C56 C 0.6384(17) 0.6162(13) 0.3021(6)
C57 C 0.6589(19) 0.6717(14) 0.3048(8)
C58 C 0.632(2) 0.6961(13) 0.2966(8)
C59 C 0.5971(18) 0.6719(8) 0.2799(8)
C60 C 0.5750(15) 0.6093(7) 0.2790(7)
N1 N 0.6656(10) 0.9100(7) 0.1075(2)
C61 C 0.6188(9) 0.9081(8) 0.1114(5)
C62 C 0.6150(11) 0.9528(12) 0.1101(6)
C63 C 0.6581(14) 0.9995(8) 0.1048(5)
C64 C 0.7049(11) 1.0015(7) 0.1008(5)
C65 C 0.7086(9) 0.9568(10) 0.1022(4)
N2 N 0.6683(8) 0.8462(9) 0.1384(2)
N3 N 0.6751(7) 0.7887(7) 0.1160(3)
C66 C 0.7077(9) 0.7881(8) 0.1296(4)
C67 C 0.7086(11) 0.7425(11) 0.1332(4)
C68 C 0.6768(13) 0.6976(8) 0.1232(6)
C69 C 0.6442(14) 0.6983(8) 0.1096(6)
C70 C 0.6434(11) 0.7438(10) 0.1060(4)
N4 N 0.7446(7) 0.8795(11) 0.1199(3)
N5 N 0.5191(5) 0.4796(10) 0.2488(2)
C71 C 0.5382(11) 0.5128(9) 0.2337(4)
C72 C 0.5478(12) 0.4952(13) 0.2173(3)
C73 C 0.5382(10) 0.4445(15) 0.2159(3)
C74 C 0.5191(13) 0.4113(11) 0.2309(4)
C75 C 0.5095(10) 0.4289(9) 0.2474(3)
N6 N 0.5743(8) 0.5351(8) 0.2846(4)
N7 N 0.4803(8) 0.5149(4) 0.2941(2)
C76 C 0.5065(8) 0.5176(10) 0.3103(3)
C77 C 0.4905(11) 0.5284(12) 0.3268(2)
C78 C 0.4482(11) 0.5364(9) 0.3272(3)
C79 C 0.4220(10) 0.5337(12) 0.3111(4)
C80 C 0.4380(10) 0.5229(11) 0.2945(3)
N8 N 0.5290(9) 0.5746(6) 0.2691(4)
O1 O 0.3333 0.6667 0.1875(8)
O2 O 1.0000 1.0000 0.0233(7)
O3 O 0.4481(7) 0.7321(7) 0.1820(3)
O4 O 0.3957(9) 0.6849(8) 0.1547(4)
O5 O 0.5950(6) 0.8071(8) 0.1090(4)
O6 O 0.9365(8) 0.9579(8) 0.0634(4)
O7 O 0.8852(9) 0.9528(8) 0.0354(3)
O8 O 0.6913(8) 0.8450(8) 0.0863(2)
O9 O 0.6631(8) 0.4149(8) 0.3307(3)
O10 O 0.5794(8) 0.3459(8) 0.3420(3)
O11 O 0.4934(9) 0.4334(7) 0.2798(3)
O12 O 0.4138(8) 0.6593(8) 0.2190(3)
O13 O 0.4191(9) 0.7620(9) 0.2094(3)
O14 O 0.4406(7) 0.4820(9) 0.2615(3)
Ru1 Ru 0.6696(2) 0.84860(19) 0.10945(11)
Ru2 Ru 0.5051(2) 0.4995(2) 0.27107(11)
Zn1 Zn 0.3333 0.6667 0.16633(17)
Zn2 Zn 0.40423(19) 0.70112(19) 0.20131(11)
Zn3 Zn 0.92897(19) 0.96403(18) 0.01700(11)
Zn4 Zn 1.0000 1.0000 0.05293(16)
C49A C 0.3918(10) 0.7786(13) 0.2189(3)
O4B O 0.2892(12) 0.6043(9) 0.1547(4)
O4A O 0.3151(8) 0.7108(12) 0.1547(4)
O6B O 1.0214(11) 1.0635(8) 0.0634(4)
O6A O 1.0421(8) 0.9786(11) 0.0634(4)
O9G O 0.9184(8) 0.9149(11) -0.0026(3)
O10F O 0.9127(8) 1.0126(8) 0.0087(3)
O13B O 0.3429(13) 0.5809(9) 0.2094(3)
Zn2B Zn 0.29689(27) 0.59577(19) 0.20131(11)
Zn2A Zn 0.29888(19) 0.70311(27) 0.20131(11)
Zn3A Zn 1.03597(18) 0.96494(26) 0.01700(11)
Zn3B Zn 1.03506(26) 1.07103(19) 0.01700(11)
Zn3E Zn 0.70173(26) 0.40436(19) 0.35033(11)
Zn3C Zn 0.59564(19) 0.29736(18) 0.35033(11)
loop_
_geom_bond_atom_site_label_1
_geom_bond_atom_site_label_2
_geom_bond_site_symmetry_1
_geom_bond_site_symmetry_2
C1 C2 1_555 1_555
C2 C3 1_555 1_555
C3 C4 1_555 1_555
C4 C5 1_555 1_555
C5 C6 1_555 1_555
C6 C1 1_555 1_555
C7 C1 1_555 1_555
C8 C9 1_555 1_555
C9 C10 1_555 1_555
C10 C11 1_555 1_555
C11 C12 1_555 1_555
C12 C13 1_555 1_555
C13 C8 1_555 1_555
C14 C5 1_555 1_555
C15 C16 1_555 1_555
C16 C17 1_555 1_555
C17 C18 1_555 1_555
C18 C19 1_555 1_555
C19 C20 1_555 1_555
C20 C15 1_555 1_555
C21 C8 1_555 1_555
C22 C23 1_555 1_555
C23 C24 1_555 1_555
C24 C25 1_555 1_555
C25 C26 1_555 1_555
C26 C27 1_555 1_555
C27 C22 1_555 1_555
C28 C14 1_555 1_555
C29 C14 1_555 1_555
C30 C14 1_555 1_555
C31 C3 1_555 1_555
C32 C12 1_555 1_555
C33 C32 1_555 1_555
C34 C32 1_555 1_555
C35 C32 1_555 1_555
C36 C10 1_555 1_555
C37 C38 1_555 1_555
C38 C39 1_555 1_555
C39 C40 1_555 1_555
C40 C41 1_555 1_555
C41 C42 1_555 1_555
C42 C37 1_555 1_555
C43 C15 1_555 1_555
C44 C19 1_555 1_555
C45 C44 1_555 1_555
C46 C44 1_555 1_555
C47 C44 1_555 1_555
C48 C17 1_555 1_555
C49 C22 1_555 1_555
C50 C26 1_555 1_555
C51 C50 1_555 1_555
C52 C50 1_555 1_555
C53 C50 1_555 1_555
C54 C24 1_555 1_555
C55 C56 1_555 1_555
C56 C57 1_555 1_555
C57 C58 1_555 1_555
C58 C59 1_555 1_555
C59 C60 1_555 1_555
C60 C55 1_555 1_555
N1 C61 1_555 1_555
C61 C62 1_555 1_555
C62 C63 1_555 1_555
C63 C64 1_555 1_555
C64 C65 1_555 1_555
C65 N1 1_555 1_555
N2 C31 1_555 1_555
N3 C66 1_555 1_555
C66 C67 1_555 1_555
C67 C68 1_555 1_555
C68 C69 1_555 1_555
C69 C70 1_555 1_555
C70 N3 1_555 1_555
N4 C36 1_555 1_555
N5 C71 1_555 1_555
C71 C72 1_555 1_555
C72 C73 1_555 1_555
C73 C74 1_555 1_555
C74 C75 1_555 1_555
C75 N5 1_555 1_555
N6 C48 1_555 1_555
N7 C76 1_555 1_555
C76 C77 1_555 1_555
C77 C78 1_555 1_555
C78 C79 1_555 1_555
C79 C80 1_555 1_555
C80 N7 1_555 1_555
N8 C54 1_555 1_555
O1 Zn1 1_555 1_555
O2 Zn3 1_555 1_555
O3 C7 1_555 1_555
O4 C7 1_555 1_555
O5 C4 1_555 1_555
O6 C21 1_555 1_555
O7 C21 1_555 1_555
O8 C11 1_555 1_555
O9 C43 1_555 1_555
O10 C43 1_555 1_555
O11 C18 1_555 1_555
O12 C49 1_555 1_555
O13 Zn2 1_555 1_555
O14 C25 1_555 1_555
Ru1 N1 1_555 1_555
Ru2 N5 1_555 1_555
Zn1 O4 1_555 1_555
Zn2 O1 1_555 1_555
Zn3 O7 1_555 1_555
Zn4 O2 1_555 1_555
C49A O13 1_555 1_555
O4B Zn1 1_555 1_555
O4A Zn1 1_555 1_555
O6B Zn4 1_555 1_555
O6A Zn4 1_555 1_555
O9G Zn3 1_555 1_555
O10F Zn3 1_555 1_555
O13B C49 1_555 1_555
Zn2B O1 1_555 1_555
Zn2A O1 1_555 1_555
Zn3A O2 1_555 1_555
Zn3B O2 1_555 1_555
Zn3E O9 1_555 1_555
Zn3C O10 1_555 1_555
C37 N2 1_555 1_555
C42 N4 1_555 1_555
C55 N6 1_555 1_555
C60 N8 1_555 1_555
N2 Ru1 1_555 1_555
N3 Ru1 1_555 1_555
N4 Ru1 1_555 1_555
N6 Ru2 1_555 1_555
N7 Ru2 1_555 1_555
N8 Ru2 1_555 1_555
O3 Zn2 1_555 1_555
O5 Ru1 1_555 1_555
O6 Zn4 1_555 1_555
O8 Ru1 1_555 1_555
O11 Ru2 1_555 1_555
O12 Zn2 1_555 1_555
O14 Ru2 1_555 1_555
O13B Zn2B 1_555 1_555

#END
