
#######################################################################
#
#                 Cambridge Crystallographic Data Centre
#                                CCDC 
#
#######################################################################
#
# If this CIF has been generated from an entry in the Cambridge 
# Structural Database, then it will include bibliographic, chemical, 
# crystal, experimental, refinement or atomic coordinate data resulting 
# from the CCDC's data processing and validation procedures.
#
#######################################################################

data_IZABEQ
_symmetry_cell_setting           triclinic
_symmetry_space_group_name_H-M   'P -1'
_symmetry_Int_Tables_number      2
_space_group_name_Hall           '-P 1'
loop_
_symmetry_equiv_pos_site_id
_symmetry_equiv_pos_as_xyz
1 x,y,z
2 -x,-y,-z
_cell_length_a                   12.1060(6)
_cell_length_b                   13.7927(8)
_cell_length_c                   13.8994(9)
_cell_angle_alpha                60.813(3)
_cell_angle_beta                 88.719(3)
_cell_angle_gamma                80.625(2)
_cell_volume                     1994.72
loop_
_atom_site_label
_atom_site_type_symbol
_atom_site_fract_x
_atom_site_fract_y
_atom_site_fract_z
Ni1 Ni 0.55593(4) -0.30638(4) 0.45900(5)
Ni2 Ni -0.08152(4) 0.18060(4) 0.30710(5)
O1 O 0.4030(2) -0.2489(2) 0.3734(3)
O2 O 0.3817(2) -0.3541(2) 0.2952(3)
O4 O 0.0725(2) 0.0482(2) 0.3395(2)
O5 O -0.0724(2) 0.0825(2) 0.2290(2)
O6 O -0.2912(2) 0.6105(2) 0.5514(2)
O7 O -0.3402(2) 0.5596(2) 0.4346(2)
O8 O -0.0845(2) 0.2468(2) 0.4103(3)
O9 O 0.0678(2) 0.1573(2) 0.5269(3)
O10 O 0.4857(2) -0.4406(2) 0.5903(2)
O11 O -0.1469(2) 0.0458(2) 0.4397(2)
N1 N 0.3891(3) -0.0995(3) 0.5778(3)
H1 H 0.3266 -0.0620 0.5816
N2 N 0.5098(2) -0.2048(3) 0.5287(3)
N3 N 0.7489(3) -0.0603(3) 0.2621(3)
H2 H 0.7937 -0.0163 0.2582
N4 N 0.6374(3) -0.1894(3) 0.3349(3)
N5 N -0.4025(3) 0.3772(3) 0.2384(3)
H3 H -0.4523 0.4168 0.2561
N6 N -0.2390(3) 0.2765(3) 0.2406(3)
N7 N 0.1134(3) 0.4360(3) 0.1439(4)
H4 H 0.1450 0.4865 0.1461
N8 N 0.0072(3) 0.3035(3) 0.1952(3)
C1 C 0.4051(3) -0.1533(3) 0.5195(4)
H5 H 0.3482 -0.1546 0.4764
C2 C 0.6789(3) -0.2092(4) 0.6364(4)
H6 H 0.7308 -0.2532 0.6170
C3 C 0.7105(4) -0.1707(4) 0.7038(4)
H7 H 0.7856 -0.1870 0.7279
C4 C 0.6342(4) -0.1082(4) 0.7375(4)
H8 H 0.6591 -0.0856 0.7850
C5 C 0.5227(4) -0.0791(4) 0.7019(4)
H9 H 0.4711 -0.0375 0.7243
C6 C 0.4912(3) -0.1149(3) 0.6312(4)
C7 C 0.5662(3) -0.1803(3) 0.5976(4)
C8 C 0.7050(3) -0.1332(3) 0.3538(4)
H10 H 0.7206 -0.1431 0.4236
C9 C 0.5846(4) -0.1814(4) 0.1565(4)
H11 H 0.5389 -0.2360 0.1861
C10 C 0.6026(4) -0.1272(5) 0.0448(5)
H12 H 0.5675 -0.1460 -0.0011
C11 C 0.6706(4) -0.0466(4) -0.0007(4)
H13 H 0.6801 -0.0131 -0.0761
C12 C 0.7247(4) -0.0145(4) 0.0626(4)
H14 H 0.7696 0.0407 0.0322
C13 C 0.7080(3) -0.0698(3) 0.1749(4)
C14 C 0.6380(3) -0.1502(4) 0.2217(4)
C15 C -0.2973(3) 0.3317(3) 0.2842(4)
H15 H -0.2688 0.3388 0.3416
C16 C -0.2959(3) 0.2462(4) 0.0837(4)
H16 H -0.2272 0.2059 0.0817
C17 C -0.3863(4) 0.2687(4) 0.0126(4)
H17 H -0.3781 0.2430 -0.0382
C18 C -0.4893(4) 0.3289(4) 0.0151(4)
H18 H -0.5481 0.3421 -0.0341
C19 C -0.5071(3) 0.3696(4) 0.0880(4)
H19 H -0.5763 0.4088 0.0904
C20 C -0.4156(3) 0.3485(3) 0.1577(4)
C21 C -0.3118(3) 0.2861(3) 0.1579(3)
C22 C 0.0436(4) 0.3754(4) 0.2167(4)
H20 H 0.0229 0.3839 0.2773
C23 C 0.0519(4) 0.2667(4) 0.0346(4)
H21 H 0.0065 0.2127 0.0532
C24 C 0.1161(4) 0.2977(5) -0.0563(4)
H22 H 0.1155 0.2622 -0.0984
C25 C 0.1818(4) 0.3814(5) -0.0857(5)
H23 H 0.2231 0.4010 -0.1478
C26 C 0.1870(4) 0.4346(4) -0.0267(4)
H24 H 0.2306 0.4904 -0.0471
C27 C 0.1247(3) 0.4026(4) 0.0660(4)
C28 C 0.0582(3) 0.3195(3) 0.0965(4)
C29 C 0.2386(3) -0.1989(3) 0.2583(3)
C30 C 0.1885(3) -0.1163(3) 0.2855(3)
H25 H 0.2260 -0.1047 0.3357
C31 C 0.0837(3) -0.0522(3) 0.2381(3)
C32 C 0.0310(3) -0.0661(3) 0.1589(3)
H26 H -0.0378 -0.0214 0.1245
C33 C 0.0799(3) -0.1458(3) 0.1307(3)
H27 H 0.0443 -0.1547 0.0776
C34 C 0.1826(3) -0.2126(3) 0.1822(3)
H28 H 0.2141 -0.2678 0.1648
C35 C 0.3502(3) -0.2739(3) 0.3137(4)
C36 C 0.0260(3) 0.0293(3) 0.2721(3)
C37 C -0.1663(3) 0.4638(3) 0.5424(3)
C38 C -0.1433(3) 0.3908(3) 0.4992(3)
H29 H -0.1944 0.3949 0.4478
C39 C -0.0446(3) 0.3118(3) 0.5324(3)
C40 C 0.0308(3) 0.3078(3) 0.6093(3)
H30 H 0.0971 0.2555 0.6322
C41 C 0.0084(3) 0.3798(3) 0.6515(4)
H31 H 0.0595 0.3761 0.7026
C42 C -0.0892(3) 0.4574(3) 0.6186(4)
H32 H -0.1037 0.5060 0.6476
C43 C -0.2712(3) 0.5484(3) 0.5078(3)
C44 C -0.0182(3) 0.2315(3) 0.4877(4)
H35 H 0.4240 -0.4552 0.5735
H36 H 0.5310 -0.5060 0.6104
H37 H -0.1373 0.0415 0.5079
H38 H -0.1133 -0.0272 0.4558
O6_2 O 0.7088(2) -0.3895(2) 0.5514(2)
O7_2 O 0.6598(2) -0.4404(2) 0.4346(2)
Ni1_2 Ni -0.44407(4) 0.69362(4) 0.45900(5)
O3 O 0.6946(3) -0.5006(3) 0.7864(3)
H33 H 0.7210 -0.4851 0.7228
H34 H 0.6547 -0.5524 0.7977
loop_
_geom_bond_atom_site_label_1
_geom_bond_atom_site_label_2
_geom_bond_site_symmetry_1
_geom_bond_site_symmetry_2
Ni1 O1 1_555 1_555
Ni2 O4 1_555 1_555
O1 C35 1_555 1_555
O2 C35 1_555 1_555
O3 H33 1_555 1_555
O4 C36 1_555 1_555
O5 Ni2 1_555 1_555
O6 C43 1_555 1_555
O7 C43 1_555 1_555
O8 Ni2 1_555 1_555
O9 C44 1_555 1_555
O10 Ni1 1_555 1_555
O11 Ni2 1_555 1_555
N1 H1 1_555 1_555
N2 Ni1 1_555 1_555
N3 H2 1_555 1_555
N4 Ni1 1_555 1_555
N5 H3 1_555 1_555
N6 Ni2 1_555 1_555
N7 H4 1_555 1_555
N8 Ni2 1_555 1_555
C1 N1 1_555 1_555
H5 C1 1_555 1_555
C2 H6 1_555 1_555
C3 C2 1_555 1_555
H7 C3 1_555 1_555
C4 C3 1_555 1_555
H8 C4 1_555 1_555
C5 C4 1_555 1_555
H9 C5 1_555 1_555
C6 N1 1_555 1_555
C7 N2 1_555 1_555
C8 N3 1_555 1_555
H10 C8 1_555 1_555
C9 H11 1_555 1_555
C10 C9 1_555 1_555
H12 C10 1_555 1_555
C11 C10 1_555 1_555
H13 C11 1_555 1_555
C12 C11 1_555 1_555
H14 C12 1_555 1_555
C13 N3 1_555 1_555
C14 N4 1_555 1_555
C15 N5 1_555 1_555
H15 C15 1_555 1_555
C16 H16 1_555 1_555
C17 C16 1_555 1_555
H17 C17 1_555 1_555
C18 C17 1_555 1_555
H18 C18 1_555 1_555
C19 C18 1_555 1_555
H19 C19 1_555 1_555
C20 N5 1_555 1_555
C21 N6 1_555 1_555
C22 N7 1_555 1_555
H20 C22 1_555 1_555
C23 H21 1_555 1_555
C24 C23 1_555 1_555
H22 C24 1_555 1_555
C25 C24 1_555 1_555
H23 C25 1_555 1_555
C26 C25 1_555 1_555
H24 C26 1_555 1_555
C27 N7 1_555 1_555
C28 N8 1_555 1_555
C29 C30 1_555 1_555
C30 H25 1_555 1_555
C31 C30 1_555 1_555
C32 C31 1_555 1_555
H26 C32 1_555 1_555
C33 C32 1_555 1_555
H27 C33 1_555 1_555
C34 C29 1_555 1_555
H28 C34 1_555 1_555
C35 C29 1_555 1_555
C36 O5 1_555 1_555
C37 C38 1_555 1_555
C38 H29 1_555 1_555
C39 C38 1_555 1_555
C40 C39 1_555 1_555
H30 C40 1_555 1_555
C41 C40 1_555 1_555
H31 C41 1_555 1_555
C42 C37 1_555 1_555
H32 C42 1_555 1_555
C43 C37 1_555 1_555
C44 O8 1_555 1_555
H34 O3 1_555 1_555
H35 O10 1_555 1_555
H36 O10 1_555 1_555
H37 O11 1_555 1_555
H38 O11 1_555 1_555
O6_2 Ni1 1_555 1_555
O7_2 Ni1 1_555 1_555
Ni1_2 O6 1_555 1_555
O7 Ni1_2 1_555 1_555
N2 C1 1_555 1_555
N4 C8 1_555 1_555
N6 C15 1_555 1_555
N8 C22 1_555 1_555
C2 C7 1_555 1_555
C5 C6 1_555 1_555
C6 C7 1_555 1_555
C9 C14 1_555 1_555
C12 C13 1_555 1_555
C13 C14 1_555 1_555
C16 C21 1_555 1_555
C19 C20 1_555 1_555
C20 C21 1_555 1_555
C23 C28 1_555 1_555
C26 C27 1_555 1_555
C27 C28 1_555 1_555
C31 C36 1_555 1_555
C33 C34 1_555 1_555
C39 C44 1_555 1_555
C41 C42 1_555 1_555

#END
