
#######################################################################
#
#                 Cambridge Crystallographic Data Centre
#                                CCDC 
#
#######################################################################
#
# If this CIF has been generated from an entry in the Cambridge 
# Structural Database, then it will include bibliographic, chemical, 
# crystal, experimental, refinement or atomic coordinate data resulting 
# from the CCDC's data processing and validation procedures.
#
#######################################################################

data_IZAFAR
_symmetry_cell_setting           monoclinic
_symmetry_space_group_name_H-M   'P 21/n'
_symmetry_Int_Tables_number      14
_space_group_name_Hall           '-P 2yn'
loop_
_symmetry_equiv_pos_site_id
_symmetry_equiv_pos_as_xyz
1 x,y,z
2 1/2-x,1/2+y,1/2-z
3 -x,-y,-z
4 1/2+x,1/2-y,1/2+z
_cell_length_a                   8.3513(3)
_cell_length_b                   22.4994(6)
_cell_length_c                   10.2169(4)
_cell_angle_alpha                90
_cell_angle_beta                 110.308(3)
_cell_angle_gamma                90
_cell_volume                     1800.42
loop_
_atom_site_label
_atom_site_type_symbol
_atom_site_fract_x
_atom_site_fract_y
_atom_site_fract_z
Ag1 Ag 0.81306(3) 0.472241(11) 0.43452(3)
O1 O 0.3738(3) 0.64372(10) 0.4958(2)
O2 O 0.4471(3) 0.67436(11) 0.7193(3)
O3 O 0.3643(3) 0.75844(10) 0.3532(2)
O4 O 0.2861(3) 0.78219(11) 0.1259(2)
C1 C 0.4654(4) 0.64176(14) 0.6329(3)
C2 C 0.2327(4) 0.68590(15) 0.4509(4)
H1 H 0.2477 0.7167 0.5235
H2 H 0.1235 0.6650 0.4364
C3 C 0.2293(4) 0.71429(15) 0.3177(4)
H3 H 0.2484 0.6841 0.2542
H4 H 0.1172 0.7334 0.2703
C4 C 0.3770(4) 0.78946(14) 0.2458(3)
C5 C 0.5910(4) 0.59168(14) 0.6665(3)
C6 C 0.6318(4) 0.56088(13) 0.5646(3)
H5 H 0.5808 0.5727 0.4699
N1 N 0.7411(4) 0.51490(12) 0.5955(3)
C7 C 0.8099(4) 0.49798(16) 0.7300(4)
H6 H 0.8832 0.4643 0.7522
C8 C 0.7783(5) 0.52753(17) 0.8368(4)
H7 H 0.8318 0.5150 0.9308
C9 C 0.6683(4) 0.57543(17) 0.8059(4)
H8 H 0.6459 0.5968 0.8779
C10 C 0.5148(4) 0.83509(14) 0.2930(3)
C11 C 0.5349(4) 0.87330(14) 0.1937(3)
H9 H 0.4635 0.8684 0.0991
N2 N 0.6512(3) 0.91703(12) 0.2257(3)
C12 C 0.7525(4) 0.92315(15) 0.3606(4)
H10 H 0.8352 0.9541 0.3846
C13 C 0.7408(5) 0.88646(17) 0.4645(4)
H11 H 0.8147 0.8920 0.5582
C14 C 0.6205(4) 0.84143(16) 0.4314(4)
H12 H 0.6103 0.8155 0.5015
Ag1A Ag 0.68694(3) 0.972241(11) 0.06548(3)
N2A N 0.8488(3) 0.41703(12) 0.2743(3)
S1 S 0.78151(12) 0.59573(4) 0.22560(9)
O5 O 0.8387(12) 0.5832(5) 0.1202(8)
O6 O 0.6181(8) 0.5582(3) 0.2105(9)
O7 O 0.8835(3) 0.58435(11) 0.3687(2)
C15 C 0.6946(5) 0.66922(17) 0.2283(5)
F1 F 0.6039(4) 0.68783(14) 0.1008(3)
F2 F 0.8129(4) 0.70860(12) 0.2900(4)
F3 F 0.5889(4) 0.66849(13) 0.2995(4)
O8? O 0.8990(6) 0.6113(2) 0.1448(5)
O9? O 0.6459(6) 0.5615(2) 0.1491(6)
loop_
_geom_bond_atom_site_label_1
_geom_bond_atom_site_label_2
_geom_bond_site_symmetry_1
_geom_bond_site_symmetry_2
Ag1 N1 1_555 1_555
O1 C1 1_555 1_555
O2 C1 1_555 1_555
O3 C3 1_555 1_555
O4 C4 1_555 1_555
C1 C5 1_555 1_555
C2 O1 1_555 1_555
H1 C2 1_555 1_555
H2 C2 1_555 1_555
C3 C2 1_555 1_555
H3 C3 1_555 1_555
H4 C3 1_555 1_555
C4 O3 1_555 1_555
C5 C6 1_555 1_555
C6 H5 1_555 1_555
N1 C6 1_555 1_555
C7 N1 1_555 1_555
H6 C7 1_555 1_555
C8 C7 1_555 1_555
H7 C8 1_555 1_555
C9 C5 1_555 1_555
H8 C9 1_555 1_555
C10 C4 1_555 1_555
C11 C10 1_555 1_555
H9 C11 1_555 1_555
N2 C11 1_555 1_555
C12 N2 1_555 1_555
H10 C12 1_555 1_555
C13 C12 1_555 1_555
H11 C13 1_555 1_555
C14 C10 1_555 1_555
H12 C14 1_555 1_555
S1 O5 1_555 1_555
O6 S1 1_555 1_555
O7 S1 1_555 1_555
C15 S1 1_555 1_555
F1 C15 1_555 1_555
F2 C15 1_555 1_555
F3 C15 1_555 1_555
Ag1A N2 1_555 1_555
N2A Ag1 1_555 1_555
C8 C9 1_555 1_555
C13 C14 1_555 1_555

#END
