
#######################################################################
#
#                 Cambridge Crystallographic Data Centre
#                                CCDC 
#
#######################################################################
#
# If this CIF has been generated from an entry in the Cambridge 
# Structural Database, then it will include bibliographic, chemical, 
# crystal, experimental, refinement or atomic coordinate data resulting 
# from the CCDC's data processing and validation procedures.
#
#######################################################################

data_IZATEI
_symmetry_cell_setting           monoclinic
_symmetry_space_group_name_H-M   'P 21/c'
_symmetry_Int_Tables_number      14
_space_group_name_Hall           '-P 2ybc'
loop_
_symmetry_equiv_pos_site_id
_symmetry_equiv_pos_as_xyz
1 x,y,z
2 x,1/2-y,1/2+z
3 -x,-y,-z
4 -x,1/2+y,1/2-z
_cell_length_a                   13.925(3)
_cell_length_b                   15.099(3)
_cell_length_c                   12.581(3)
_cell_angle_alpha                90
_cell_angle_beta                 114.00(3)
_cell_angle_gamma                90
_cell_volume                     2416.51
loop_
_atom_site_label
_atom_site_type_symbol
_atom_site_fract_x
_atom_site_fract_y
_atom_site_fract_z
Ni1 Ni 0.310763(15) 0.545321(13) 0.337064(15)
S1 S 0.34865(4) 0.48680(3) 0.72865(3)
S2 S 0.34706(3) 0.48577(3) 0.89089(3)
O1 O 0.35858(8) 0.49645(7) 0.51243(9)
O2 O 0.24018(8) 0.42843(8) 0.36270(9)
O3 O 0.23655(9) 0.55062(8) 1.16170(9)
O4 O 0.35868(9) 0.50460(10) 1.10235(9)
O5 O 0.43190(10) 0.46810(9) 0.32881(12)
N1 N 0.18751(11) 0.62022(10) 0.35226(13)
N2 N 0.39798(11) 0.65947(9) 0.36060(11)
C1 C 0.29389(12) 0.43317(10) 0.47049(12)
C2 C 0.27896(12) 0.36492(11) 0.54828(13)
C3 C 0.23973(15) 0.28299(11) 0.49957(15)
H1 H 0.2219 0.2735 0.4191
C4 C 0.22617(17) 0.21507(12) 0.56592(18)
H2 H 0.2005 0.1591 0.5318
C5 C 0.25042(17) 0.22956(13) 0.68237(18)
H3 H 0.2425 0.1830 0.7290
C6 C 0.28601(15) 0.31125(13) 0.73124(16)
H4 H 0.2999 0.3209 0.8108
C7 C 0.30197(12) 0.37981(11) 0.66640(13)
C8 C 0.21369(13) 0.51239(11) 0.86541(13)
C9 C 0.13389(14) 0.51484(13) 0.75260(14)
H5 H 0.1504 0.5031 0.6877
C10 C 0.03184(15) 0.53414(14) 0.73507(16)
H6 H -0.0209 0.5363 0.6580
C11 C 0.00473(15) 0.55043(14) 0.82722(17)
H7 H -0.0662 0.5621 0.8143
C12 C 0.08334(14) 0.54948(12) 0.93924(15)
H8 H 0.0657 0.5621 1.0031
C13 C 0.18730(12) 0.53040(10) 0.96011(13)
C14 C 0.26771(12) 0.52800(10) 1.08404(13)
C15 C 0.12065(18) 0.66475(16) 0.2611(2)
H9 H 0.1298 0.6631 0.1903
C16 C 0.0383(2) 0.7134(2) 0.2656(3)
H10 H -0.0078 0.7447 0.1989
C17 C 0.0236(2) 0.7162(2) 0.3660(3)
H11 H -0.0330 0.7489 0.3703
C18 C 0.0916(3) 0.6713(2) 0.4600(3)
H12 H 0.0834 0.6719 0.5314
C19 C 0.17262(19) 0.62487(16) 0.4499(2)
H13 H 0.2205 0.5945 0.5164
C20 C 0.42270(18) 0.70668(15) 0.45765(16)
H14 H 0.4043 0.6839 0.5172
C21 C 0.4736(2) 0.78675(16) 0.47544(19)
H15 H 0.4896 0.8184 0.5458
C22 C 0.50099(16) 0.82030(13) 0.39099(17)
H16 H 0.5347 0.8763 0.4006
C23 C 0.47898(16) 0.77182(13) 0.29287(17)
H17 H 0.4987 0.7927 0.2334
C24 C 0.42769(16) 0.69209(13) 0.28075(16)
H18 H 0.4128 0.6588 0.2118
H19 H 0.4258(17) 0.4740(14) 0.268(2)
H20 H 0.489(2) 0.4813(16) 0.368(2)
O3_2 O 0.23655(9) 0.55062(8) 0.16170(9)
Ni1_2 Ni 0.310763(15) 0.545321(13) 1.337064(15)
loop_
_geom_bond_atom_site_label_1
_geom_bond_atom_site_label_2
_geom_bond_site_symmetry_1
_geom_bond_site_symmetry_2
Ni1 O1 1_555 1_555
S1 S2 1_555 1_555
S2 C8 1_555 1_555
O1 C1 1_555 1_555
O2 Ni1 1_555 1_555
O3 C14 1_555 1_555
O4 C14 1_555 1_555
O5 Ni1 1_555 1_555
N1 Ni1 1_555 1_555
N2 Ni1 1_555 1_555
C1 O2 1_555 1_555
C2 C1 1_555 1_555
C3 C2 1_555 1_555
H1 C3 1_555 1_555
C4 C3 1_555 1_555
H2 C4 1_555 1_555
C5 C4 1_555 1_555
H3 C5 1_555 1_555
C6 C5 1_555 1_555
H4 C6 1_555 1_555
C7 S1 1_555 1_555
C8 C9 1_555 1_555
C9 H5 1_555 1_555
C10 C9 1_555 1_555
H6 C10 1_555 1_555
C11 C10 1_555 1_555
H7 C11 1_555 1_555
C12 C11 1_555 1_555
H8 C12 1_555 1_555
C13 C8 1_555 1_555
C14 C13 1_555 1_555
C15 N1 1_555 1_555
H9 C15 1_555 1_555
C16 C15 1_555 1_555
H10 C16 1_555 1_555
C17 C16 1_555 1_555
H11 C17 1_555 1_555
C18 C17 1_555 1_555
H12 C18 1_555 1_555
C19 N1 1_555 1_555
H13 C19 1_555 1_555
C20 N2 1_555 1_555
H14 C20 1_555 1_555
C21 C20 1_555 1_555
H15 C21 1_555 1_555
C22 C21 1_555 1_555
H16 C22 1_555 1_555
C23 C22 1_555 1_555
H17 C23 1_555 1_555
C24 N2 1_555 1_555
H18 C24 1_555 1_555
H19 O5 1_555 1_555
H20 O5 1_555 1_555
O3_2 Ni1 1_555 1_555
Ni1_2 O3 1_555 1_555
C2 C7 1_555 1_555
C6 C7 1_555 1_555
C12 C13 1_555 1_555
C18 C19 1_555 1_555
C23 C24 1_555 1_555

#END
