
#######################################################################
#
#                 Cambridge Crystallographic Data Centre
#                                CCDC 
#
#######################################################################
#
# If this CIF has been generated from an entry in the Cambridge 
# Structural Database, then it will include bibliographic, chemical, 
# crystal, experimental, refinement or atomic coordinate data resulting 
# from the CCDC's data processing and validation procedures.
#
#######################################################################

data_IZAVUA
_symmetry_cell_setting           monoclinic
_symmetry_space_group_name_H-M   'P 21/n'
_symmetry_Int_Tables_number      14
_space_group_name_Hall           '-P 2yn'
loop_
_symmetry_equiv_pos_site_id
_symmetry_equiv_pos_as_xyz
1 x,y,z
2 1/2+x,1/2-y,1/2+z
3 -x,-y,-z
4 1/2-x,1/2+y,1/2-z
_cell_length_a                   7.9902(2)
_cell_length_b                   15.4229(4)
_cell_length_c                   10.5753(2)
_cell_angle_alpha                90
_cell_angle_beta                 92.6060(10)
_cell_angle_gamma                90
_cell_volume                     1301.87
loop_
_atom_site_label
_atom_site_type_symbol
_atom_site_fract_x
_atom_site_fract_y
_atom_site_fract_z
La1 La 0.499634(16) 0.839870(8) 0.543278(12)
S1 S 0.20380(8) 0.84055(3) 0.83036(6)
O1 O 0.3581(2) 0.83021(11) 0.76215(17)
O2 O 0.1661(2) 0.76389(11) 0.90281(16)
O3 O 0.0647(2) 0.86916(12) 0.74665(16)
O4 O 0.0477(2) 1.17926(12) 0.88963(16)
O5 O 0.2293(2) 1.22867(12) 1.03367(18)
O6 O 0.4610(2) 1.01780(12) 1.34810(15)
O7 O 0.4232(2) 0.87713(12) 1.31483(16)
O8 O 0.2101(2) 0.91684(12) 0.52846(17)
O9 O 0.7663(2) 0.90711(13) 0.4851(2)
O10 O 0.7504(2) 0.78516(12) 0.68595(17)
C1 C 0.2272(3) 1.07620(16) 0.9956(2)
C2 C 0.3096(3) 1.05780(16) 1.1107(2)
H1 H 0.3373 1.1028 1.1662
C3 C 0.3515(3) 0.97327(15) 1.1444(2)
C4 C 0.3201(3) 0.90653(16) 1.0583(2)
H2 H 0.3509 0.8499 1.0786
C5 C 0.2419(3) 0.92546(16) 0.9412(2)
C6 C 0.1911(3) 1.00914(15) 0.9100(2)
H3 H 0.1338 1.0203 0.8333
C7 C 0.1668(3) 1.16634(15) 0.9702(2)
C8 C 0.4194(3) 0.95473(15) 1.2780(2)
H4 H 0.156(3) 0.9052(18) 0.5920(16)
H5 H 0.162(3) 0.9000(18) 0.4620(15)
H6 H 0.835(3) 0.8180(15) 0.687(2)
H7 H 0.762(3) 0.7463(14) 0.741(2)
H10 H 0.826(3) 0.8823(14) 0.437(2)
H11 H 0.772(3) 0.9600(10) 0.485(2)
O2A O 0.6661(2) 0.73611(11) 0.40281(16)
O4C O 0.4523(2) 0.67926(12) 0.61037(16)
O5C O 0.2707(2) 0.72867(12) 0.46633(18)
O6B O 0.5390(2) 0.98220(12) 0.65190(15)
O7_2 O 0.4232(2) 0.87713(12) 0.31483(16)
La1A La -0.000366(16) 0.660130(8) 1.043278(12)
La1C La 0.000366(16) 1.339870(8) 0.956722(12)
La1B La 0.500366(16) 1.160130(8) 1.456722(12)
La1_2 La 0.499634(16) 0.839870(8) 1.543278(12)
O11 O -0.0152(3) 1.16204(12) 0.6450(2)
H8 H -0.037(3) 1.2097(13) 0.616(2)
H9 H -0.001(4) 1.1613(15) 0.7244(16)
loop_
_geom_bond_atom_site_label_1
_geom_bond_atom_site_label_2
_geom_bond_site_symmetry_1
_geom_bond_site_symmetry_2
La1 O1 1_555 1_555
S1 O1 1_555 1_555
O2 S1 1_555 1_555
O3 S1 1_555 1_555
O4 C7 1_555 1_555
O5 C7 1_555 1_555
O6 C8 1_555 1_555
O7 C8 1_555 1_555
O8 La1 1_555 1_555
O9 La1 1_555 1_555
O10 La1 1_555 1_555
O11 H8 1_555 1_555
C1 C2 1_555 1_555
C2 H1 1_555 1_555
C3 C2 1_555 1_555
C4 C3 1_555 1_555
H2 C4 1_555 1_555
C5 S1 1_555 1_555
C6 C1 1_555 1_555
H3 C6 1_555 1_555
C7 C1 1_555 1_555
C8 C3 1_555 1_555
H4 O8 1_555 1_555
H5 O8 1_555 1_555
H6 O10 1_555 1_555
H7 O10 1_555 1_555
H9 O11 1_555 1_555
H10 O9 1_555 1_555
H11 O9 1_555 1_555
O2A La1 1_555 1_555
O4C La1 1_555 1_555
O5C La1 1_555 1_555
O6B La1 1_555 1_555
O7_2 La1 1_555 1_555
La1A O2 1_555 1_555
La1C O4 1_555 1_555
La1B O6 1_555 1_555
La1_2 O7 1_555 1_555
O5 La1C 1_555 1_555
C4 C5 1_555 1_555
C5 C6 1_555 1_555

#END
