
#######################################################################
#
#                 Cambridge Crystallographic Data Centre
#                                CCDC 
#
#######################################################################
#
# If this CIF has been generated from an entry in the Cambridge 
# Structural Database, then it will include bibliographic, chemical, 
# crystal, experimental, refinement or atomic coordinate data resulting 
# from the CCDC's data processing and validation procedures.
#
#######################################################################

data_IZAWUC
_symmetry_cell_setting           triclinic
_symmetry_space_group_name_H-M   'P -1'
_symmetry_Int_Tables_number      2
_space_group_name_Hall           '-P 1'
loop_
_symmetry_equiv_pos_site_id
_symmetry_equiv_pos_as_xyz
1 x,y,z
2 -x,-y,-z
_cell_length_a                   9.6241(19)
_cell_length_b                   10.416(2)
_cell_length_c                   14.286(3)
_cell_angle_alpha                70.11(3)
_cell_angle_beta                 73.99(3)
_cell_angle_gamma                86.24(3)
_cell_volume                     1293.8
loop_
_atom_site_label
_atom_site_type_symbol
_atom_site_fract_x
_atom_site_fract_y
_atom_site_fract_z
Pr1 Pr 0.88220(2) 0.56568(2) 0.126412(15)
Pr2 Pr 0.62231(2) 0.68741(2) 0.384679(16)
N1 N 0.4096(5) 0.1006(5) 0.3610(3)
N2 N 0.3053(5) 0.0219(5) 0.4408(4)
N3 N 0.2834(5) 0.0664(4) 0.5185(3)
N4 N 0.3721(4) 0.1740(4) 0.4922(3)
N5 N 1.0621(4) 0.7799(4) 0.0384(3)
N6 N 1.1249(5) 0.8279(4) -0.0643(3)
N7 N 1.1977(5) 0.9410(4) -0.0870(3)
N8 N 1.1841(5) 0.9718(4) -0.0014(3)
N9 N 1.0846(4) 0.5241(4) 0.2211(3)
N10 N 1.0565(4) 0.5006(4) 0.3236(3)
N11 N 1.1797(5) 0.4989(5) 0.3461(3)
N12 N 1.2901(4) 0.5214(5) 0.2602(3)
O1 O 0.4977(3) 0.4489(3) 0.4234(2)
O2 O 0.6975(3) 0.4929(3) 0.2975(2)
O3 O 0.8394(3) 0.7358(3) 0.2186(2)
O4 O 0.8737(4) 0.8033(4) 0.3401(3)
O5 O 1.1184(3) 0.5046(3) 0.0264(2)
O6 O 1.33355(13) 0.52522(12) -0.08037(9)
O7 O 0.51164(13) 0.70336(12) 0.23822(9)
H1 H 0.5675 0.7159 0.1781
H2 H 0.4726 0.6240 0.2601
O8 O 0.60909(13) 0.92939(12) 0.27830(9)
H3 H 0.5437 0.9846 0.2913
H4 H 0.6859 0.9762 0.2407
O9 O 0.36257(13) 0.75072(12) 0.44036(9)
H5 H 0.3218 0.8262 0.4384
H6 H 0.3329 0.6952 0.5017
O10 O 0.78837(13) 0.51363(12) 0.46640(9)
H7 H 0.8707 0.5212 0.4230
H8 H 0.8017 0.5182 0.5216
O11 O 0.76536(13) 0.75891(12) 0.01772(9)
H9 H 0.7355 0.8300 0.0327
H10 H 0.7477 0.7666 -0.0390
O12 O 0.89660(13) 0.31426(12) 0.19094(9)
H11 H 0.8824 0.2534 0.2504
H12 H 0.9096 0.2737 0.1468
C1 C 0.5885(5) 0.4161(4) 0.3534(3)
C2 C 0.5719(7) 0.2883(6) 0.3308(4)
H21 H 0.5672 0.3155 0.2598
H22 H 0.6597 0.2378 0.3346
C3 C 0.4489(5) 0.1929(4) 0.3951(3)
C4 C 0.9171(5) 0.7960(4) 0.2517(3)
C5 C 1.0630(5) 0.8606(5) 0.1858(3)
H23 H 1.0673 0.9518 0.1888
H24 H 1.1365 0.8084 0.2161
C6 C 1.1008(5) 0.8708(5) 0.0743(3)
C7 C 1.3166(5) 0.5693(6) 0.0752(3)
H25 H 1.4085 0.5251 0.0756
H26 H 1.3372 0.6670 0.0462
C8 C 1.2537(4) 0.5294(4) 0.0027(3)
C9 C 1.2287(5) 0.5374(5) 0.1854(3)
Pr1A Pr 0.11780(2) 0.43432(2) 0.873588(15)
Pr1_2 Pr -0.11780(2) 0.56568(2) 1.126412(15)
Pr1A_2 Pr 1.11780(2) 0.43432(2) -0.126412(15)
Pr2A Pr 0.37769(2) 0.31259(2) 0.615321(16)
N1A N 0.5904(5) 0.8994(5) 0.6390(3)
N2A N 0.6947(5) 0.9781(5) 0.5592(4)
N3A N 0.7166(5) 0.9336(4) 0.4815(3)
N4A N 0.6279(4) 0.8260(4) 0.5078(3)
N5A N -0.0621(4) 0.2201(4) 0.9616(3)
N6A N -0.1249(5) 0.1721(4) 1.0643(3)
N7A N -0.1977(5) 0.0590(4) 1.0870(3)
N8A N -0.1841(5) 0.0282(4) 1.0014(3)
N9A N -0.0846(4) 0.4759(4) 0.7789(3)
N10A N -0.0565(4) 0.4994(4) 0.6764(3)
N11A N -0.1797(5) 0.5011(5) 0.6539(3)
N12A N -0.2901(4) 0.4786(5) 0.7398(3)
O1A O 0.5023(3) 0.5511(3) 0.5766(2)
O2A O 0.3025(3) 0.5071(3) 0.7025(2)
O3A O 0.1606(3) 0.2642(3) 0.7814(2)
O4A O 0.1263(4) 0.1967(4) 0.6599(3)
O5A O -0.1184(3) 0.4954(3) 0.9736(2)
O5_2 O 0.1184(3) 0.5046(3) 1.0264(2)
O5A_2 O 0.8816(3) 0.4954(3) -0.0264(2)
O6A O -0.33355(13) 0.47478(12) 1.08037(9)
O6_2 O 0.33355(13) 0.52522(12) 0.91963(9)
O6A_2 O 0.66645(13) 0.47478(12) 0.08037(9)
O7A O 0.48836(13) 0.29664(12) 0.76178(9)
H1A H 0.4325 0.2841 0.8219
H2A H 0.5274 0.3760 0.7399
O8A O 0.39091(13) 0.07061(12) 0.72170(9)
H3A H 0.4563 0.0154 0.7087
H4A H 0.3141 0.0238 0.7593
O9A O 0.63743(13) 0.24928(12) 0.55964(9)
H5A H 0.6782 0.1738 0.5616
H6A H 0.6671 0.3048 0.4983
O10A O 0.21163(13) 0.48637(12) 0.53360(9)
H7A H 0.1293 0.4788 0.5770
H8A H 0.1983 0.4818 0.4784
O11A O 0.23464(13) 0.24109(12) 0.98228(9)
H9A H 0.2645 0.1700 0.9673
H10A H 0.2523 0.2334 1.0390
O12A O 0.10340(13) 0.68574(12) 0.80906(9)
H11A H 0.1176 0.7466 0.7496
H12A H 0.0904 0.7263 0.8532
C1A C 0.4115(5) 0.5839(4) 0.6466(3)
C2A C 0.4281(7) 0.7117(6) 0.6692(4)
H21A H 0.4328 0.6845 0.7402
H22A H 0.3403 0.7622 0.6654
C3A C 0.5511(5) 0.8071(4) 0.6049(3)
C4A C 0.0829(5) 0.2040(4) 0.7483(3)
C5A C -0.0630(5) 0.1394(5) 0.8142(3)
H23A H -0.0673 0.0482 0.8112
H24A H -0.1365 0.1916 0.7839
C6A C -0.1008(5) 0.1292(5) 0.9257(3)
C7A C -0.3166(5) 0.4307(6) 0.9248(3)
H25A H -0.4085 0.4749 0.9244
H26A H -0.3372 0.3330 0.9538
C8A C -0.2537(4) 0.4706(4) 0.9973(3)
C9A C -0.2287(5) 0.4626(5) 0.8146(3)
O13 O 0.96797(13) 0.11487(12) 0.35202(9)
H13 H 0.9387 0.0317 0.3781
H14 H 0.9858 0.1375 0.3995
O14 O 1.04543(13) 0.80146(12) 0.47810(9)
H15 H 0.9952 0.7872 0.4419
H16 H 1.0435 0.7280 0.5284
O15 O 0.43756(13) 0.95369(12) 0.10720(9)
H17 H 0.4735 0.8921 0.1498
H18 H 0.3708 0.9162 0.0960
O16 O 0.73765(13) 0.82397(12) 0.81293(9)
H19 H 0.6873 0.8933 0.7940
H20 H 0.8238 0.8430 0.7747
loop_
_geom_bond_atom_site_label_1
_geom_bond_atom_site_label_2
_geom_bond_site_symmetry_1
_geom_bond_site_symmetry_2
Pr1 N5 1_555 1_555
Pr2 O1 1_555 1_555
N1 N2 1_555 1_555
N2 N3 1_555 1_555
N3 N4 1_555 1_555
N4 C3 1_555 1_555
N5 N6 1_555 1_555
N6 N7 1_555 1_555
N7 N8 1_555 1_555
N8 C6 1_555 1_555
N9 Pr1 1_555 1_555
N10 N9 1_555 1_555
N11 N10 1_555 1_555
N12 N11 1_555 1_555
O1 C1 1_555 1_555
O2 Pr1 1_555 1_555
O3 Pr1 1_555 1_555
O4 Pr2 1_555 1_555
O5 Pr1 1_555 1_555
O6 C8 1_555 1_555
O7 Pr2 1_555 1_555
H1 O7 1_555 1_555
H2 O7 1_555 1_555
O8 Pr2 1_555 1_555
H3 O8 1_555 1_555
H4 O8 1_555 1_555
O9 Pr2 1_555 1_555
H5 O9 1_555 1_555
H6 O9 1_555 1_555
O10 Pr2 1_555 1_555
H7 O10 1_555 1_555
H8 O10 1_555 1_555
O11 Pr1 1_555 1_555
H9 O11 1_555 1_555
H10 O11 1_555 1_555
O12 Pr1 1_555 1_555
H11 O12 1_555 1_555
H12 O12 1_555 1_555
O13 H13 1_555 1_555
H14 O13 1_555 1_555
O14 H15 1_555 1_555
H16 O14 1_555 1_555
O15 H17 1_555 1_555
H18 O15 1_555 1_555
O16 H19 1_555 1_555
H20 O16 1_555 1_555
C1 O2 1_555 1_555
C2 C1 1_555 1_555
H21 C2 1_555 1_555
H22 C2 1_555 1_555
C3 N1 1_555 1_555
C4 O3 1_555 1_555
C5 C4 1_555 1_555
H23 C5 1_555 1_555
H24 C5 1_555 1_555
C6 N5 1_555 1_555
C7 H25 1_555 1_555
H26 C7 1_555 1_555
C8 O5 1_555 1_555
C9 N9 1_555 1_555
Pr1A N5A 1_555 1_555
Pr1_2 O5A 1_555 1_555
Pr1A_2 O5 1_555 1_555
Pr2A N4 1_555 1_555
N1A N2A 1_555 1_555
N2A N3A 1_555 1_555
N3A N4A 1_555 1_555
N4A Pr2 1_555 1_555
N5A N6A 1_555 1_555
N6A N7A 1_555 1_555
N7A N8A 1_555 1_555
N8A C6A 1_555 1_555
N9A Pr1A 1_555 1_555
N10A N9A 1_555 1_555
N11A N10A 1_555 1_555
N12A N11A 1_555 1_555
O1A Pr2 1_555 1_555
O2A Pr1A 1_555 1_555
O3A Pr1A 1_555 1_555
O4A Pr2A 1_555 1_555
O5A Pr1A 1_555 1_555
O5_2 Pr1A 1_555 1_555
O5A_2 Pr1 1_555 1_555
O6A Pr1_2 1_555 1_555
O6_2 Pr1A 1_555 1_555
O6A_2 Pr1 1_555 1_555
O7A Pr2A 1_555 1_555
H1A O7A 1_555 1_555
H2A O7A 1_555 1_555
O8A Pr2A 1_555 1_555
H3A O8A 1_555 1_555
H4A O8A 1_555 1_555
O9A Pr2A 1_555 1_555
H5A O9A 1_555 1_555
H6A O9A 1_555 1_555
O10A Pr2A 1_555 1_555
H7A O10A 1_555 1_555
H8A O10A 1_555 1_555
O11A Pr1A 1_555 1_555
H9A O11A 1_555 1_555
H10A O11A 1_555 1_555
O12A Pr1A 1_555 1_555
H11A O12A 1_555 1_555
H12A O12A 1_555 1_555
C1A O1A 1_555 1_555
C2A C1A 1_555 1_555
H21A C2A 1_555 1_555
H22A C2A 1_555 1_555
C3A N1A 1_555 1_555
C4A O3A 1_555 1_555
C5A C4A 1_555 1_555
H23A C5A 1_555 1_555
H24A C5A 1_555 1_555
C6A N5A 1_555 1_555
C7A H25A 1_555 1_555
H26A C7A 1_555 1_555
C8A O5A 1_555 1_555
C9A N9A 1_555 1_555
Pr2 O2 1_555 1_555
Pr2 O3 1_555 1_555
N12 C9 1_555 1_555
O1 Pr2A 1_555 1_555
O4 C4 1_555 1_555
O6 Pr1A_2 1_555 1_555
C2 C3 1_555 1_555
C5 C6 1_555 1_555
C7 C8 1_555 1_555
C7 C9 1_555 1_555
Pr1_2 O5_2 1_555 1_555
Pr1A_2 O5A_2 1_555 1_555
Pr2A O1A 1_555 1_555
Pr2A O2A 1_555 1_555
Pr2A O3A 1_555 1_555
N4A C3A 1_555 1_555
N12A C9A 1_555 1_555
O2A C1A 1_555 1_555
O4A C4A 1_555 1_555
O6A C8A 1_555 1_555
C2A C3A 1_555 1_555
C5A C6A 1_555 1_555
C7A C8A 1_555 1_555
C7A C9A 1_555 1_555

#END
