
#######################################################################
#
#                 Cambridge Crystallographic Data Centre
#                                CCDC 
#
#######################################################################
#
# If this CIF has been generated from an entry in the Cambridge 
# Structural Database, then it will include bibliographic, chemical, 
# crystal, experimental, refinement or atomic coordinate data resulting 
# from the CCDC's data processing and validation procedures.
#
#######################################################################

data_IZAXUD
_symmetry_cell_setting           monoclinic
_symmetry_space_group_name_H-M   'C 2/c'
_symmetry_Int_Tables_number      15
_space_group_name_Hall           '-C 2yn'
loop_
_symmetry_equiv_pos_site_id
_symmetry_equiv_pos_as_xyz
1 x,y,z
2 -x,y,1/2-z
3 1/2+x,1/2+y,z
4 1/2-x,1/2+y,1/2-z
5 -x,-y,-z
6 x,-y,1/2+z
7 1/2-x,1/2-y,-z
8 1/2+x,1/2-y,1/2+z
_cell_length_a                   20.868(4)
_cell_length_b                   9.4775(18)
_cell_length_c                   28.249(5)
_cell_angle_alpha                90
_cell_angle_beta                 106.454(2)
_cell_angle_gamma                90
_cell_volume                     5358.19
loop_
_atom_site_label
_atom_site_type_symbol
_atom_site_fract_x
_atom_site_fract_y
_atom_site_fract_z
Tb1 Tb 0.313058(13) 0.68663(3) 0.784124(10)
Tb2 Tb 0.5000 0.25455(4) 0.7500
O1 O 0.2029(2) 0.6016(5) 0.78066(18)
H1 H 0.1661 0.6452 0.7758
H2 H 0.1974 0.5183 0.7900
O2 O 0.3817(2) 0.8721(5) 0.77410(17)
O3 O 0.2493(2) 0.3289(4) 0.77991(17)
O4 O 0.4102(2) 0.5881(5) 0.77402(19)
O5 O 0.2144(2) 0.0546(5) 0.78908(17)
O6 O 0.2674(2) -0.1359(5) 0.82463(16)
O7 O 0.3293(2) 0.4636(5) 0.82608(18)
O8 O 0.3813(3) 0.7140(6) 0.8666(2)
H3 H 0.4106 0.6666 0.8876
H4 H 0.3834 0.7988 0.8767
O9 O 0.4456(2) 1.0576(5) 0.77327(18)
O10 O 0.5033(2) 0.4635(5) 0.80097(19)
N1 N 0.5748(3) 0.6905(5) 0.8439(2)
H5 H 0.5957 0.6121 0.8522
C1 C 0.4723(3) 0.5759(7) 0.7962(2)
C2 C 0.5098(3) 0.7042(7) 0.8162(2)
N2 N 0.5567(3) 0.9188(6) 0.8364(2)
C3 C 0.4383(3) 0.9317(6) 0.7842(2)
C4 C 0.4989(3) 0.8488(6) 0.8115(2)
O11 O 0.6133(2) 0.3325(5) 0.7642(2)
H6 H 0.6321 0.3024 0.7932
H7 H 0.6240 0.4188 0.7631
O12 O 0.5544(3) 0.2038(5) 0.8327(2)
H8 H 0.5463 0.2427 0.8575
H9 H 0.5582 0.1156 0.8382
N3 N 0.3772(3) 0.0120(5) 0.87551(19)
C5 C 0.3242(3) 0.0799(7) 0.8430(2)
C6 C 0.2646(3) -0.0041(6) 0.8168(2)
C7 C 0.3030(3) 0.3456(6) 0.8133(2)
C8 C 0.6007(3) 0.8210(7) 0.8560(3)
C9 C 0.6695(3) 0.8458(8) 0.8876(3)
C10 C 0.7097(4) 0.7366(9) 0.9111(4)
H10 H 0.6940 0.6442 0.9080
C11 C 0.6951(4) 0.9794(10) 0.8940(4)
H11 H 0.6698 1.0555 0.8782
C12 C 0.7588(5) 0.9999(11) 0.9240(4)
H12 H 0.7760 1.0911 0.9275
C13 C 0.7735(5) 0.7677(11) 0.9392(4)
H13 H 0.8015 0.6925 0.9524
N4 N 0.7980(4) 0.8953(11) 0.9488(4)
N5 N 0.4006(3) 0.2379(6) 0.8729(2)
H14 H 0.4223 0.3161 0.8791
C14 C 0.4226(3) 0.1130(6) 0.8927(2)
C15 C 0.3380(3) 0.2218(6) 0.8411(2)
C16 C 0.4887(3) 0.0870(7) 0.9278(3)
C17 C 0.5119(4) -0.0449(8) 0.9407(3)
H15 H 0.4856 -0.1225 0.9276
C18 C 0.5753(4) -0.0651(9) 0.9735(3)
H16 H 0.5899 -0.1571 0.9814
N6 N 0.6163(3) 0.0415(8) 0.9942(2)
C19 C 0.5316(4) 0.1963(9) 0.9481(3)
H17 H 0.5189 0.2888 0.9392
C20 C 0.5919(4) 0.1705(9) 0.9808(3)
H18 H 0.6180 0.2476 0.9948
Tb1A Tb 0.686942(13) 0.68663(3) 0.715876(10)
Tb1_2 Tb 0.313058(13) -0.31337(3) 0.784124(10)
Tb1A_2 Tb 0.686942(13) -0.31337(3) 0.715876(10)
Tb1B Tb 0.813058(13) 0.18663(3) 0.784124(10)
Tb1C Tb 0.186942(13) 0.18663(3) 0.715876(10)
Tb2_2 Tb 0.5000 1.25455(4) 0.7500
O1A O 0.7971(2) 0.6016(5) 0.71934(18)
H1A H 0.8339 0.6452 0.7242
H2A H 0.8026 0.5183 0.7100
O2A O 0.6183(2) 0.8721(5) 0.72590(17)
O3A O 0.7507(2) 0.3289(4) 0.72009(17)
O3B O 0.7493(2) 0.8289(4) 0.77991(17)
O3C O 0.2507(2) 0.8289(4) 0.72009(17)
O4A O 0.5898(2) 0.5881(5) 0.72598(19)
O5A O 0.7856(2) 0.0546(5) 0.71092(17)
O5B O 0.7144(2) 0.5546(5) 0.78908(17)
O5C O 0.2856(2) 0.5546(5) 0.71092(17)
O6A O 0.7326(2) -0.1359(5) 0.67537(16)
O6_2 O 0.2674(2) 0.8641(5) 0.82463(16)
O6A_2 O 0.7326(2) 0.8641(5) 0.67537(16)
O7A O 0.6707(2) 0.4636(5) 0.67392(18)
O8A O 0.6187(3) 0.7140(6) 0.6334(2)
H3A H 0.5894 0.6666 0.6124
H4A H 0.6166 0.7988 0.6233
O9A O 0.5544(2) 1.0576(5) 0.72673(18)
O9_2 O 0.4456(2) 0.0576(5) 0.77327(18)
O9A_2 O 0.5544(2) 0.0576(5) 0.72673(18)
O10A O 0.4967(2) 0.4635(5) 0.69903(19)
N1A N 0.4252(3) 0.6905(5) 0.6561(2)
H5A H 0.4043 0.6121 0.6478
C1A C 0.5277(3) 0.5759(7) 0.7038(2)
C2A C 0.4902(3) 0.7042(7) 0.6838(2)
N2A N 0.4433(3) 0.9188(6) 0.6636(2)
C3A C 0.5617(3) 0.9317(6) 0.7158(2)
C4A C 0.5011(3) 0.8488(6) 0.6885(2)
O11A O 0.3867(2) 0.3325(5) 0.7358(2)
H6A H 0.3679 0.3024 0.7068
H7A H 0.3760 0.4188 0.7369
O12A O 0.4456(3) 0.2038(5) 0.6673(2)
H8A H 0.4537 0.2427 0.6425
H9A H 0.4418 0.1156 0.6618
N3A N 0.6228(3) 0.0120(5) 0.62449(19)
C5A C 0.6758(3) 0.0799(7) 0.6570(2)
C6A C 0.7354(3) -0.0041(6) 0.6832(2)
C7A C 0.6970(3) 0.3456(6) 0.6867(2)
C8A C 0.3993(3) 0.8210(7) 0.6440(3)
C9A C 0.3305(3) 0.8458(8) 0.6124(3)
C10A C 0.2903(4) 0.7366(9) 0.5889(4)
H10A H 0.3060 0.6442 0.5920
C11A C 0.3049(4) 0.9794(10) 0.6060(4)
H11A H 0.3302 1.0555 0.6218
C12A C 0.2412(5) 0.9999(11) 0.5760(4)
H12A H 0.2240 1.0911 0.5725
C13A C 0.2265(5) 0.7677(11) 0.5608(4)
H13A H 0.1985 0.6925 0.5476
N4A N 0.2020(4) 0.8953(11) 0.5512(4)
N5A N 0.5994(3) 0.2379(6) 0.6271(2)
H14A H 0.5777 0.3161 0.6209
C14A C 0.5774(3) 0.1130(6) 0.6073(2)
C15A C 0.6620(3) 0.2218(6) 0.6589(2)
C16A C 0.5113(3) 0.0870(7) 0.5722(3)
C17A C 0.4881(4) -0.0449(8) 0.5593(3)
H15A H 0.5144 -0.1225 0.5724
C18A C 0.4247(4) -0.0651(9) 0.5265(3)
H16A H 0.4101 -0.1571 0.5186
N6A N 0.3837(3) 0.0415(8) 0.5058(2)
C19A C 0.4684(4) 0.1963(9) 0.5519(3)
H17A H 0.4811 0.2888 0.5608
C20A C 0.4081(4) 0.1705(9) 0.5192(3)
H18A H 0.3820 0.2476 0.5052
O13 O 0.7340(3) 0.1291(9) 0.0712(2)
H19 H 0.7279 0.1039 0.0985
H20 H 0.6980 0.1134 0.0486
O14 O 0.6314(3) 0.4138(7) 0.8924(3)
H21 H 0.6240 0.3488 0.8708
H22 H 0.6308 0.3765 0.9197
N7 N 0.5176(4) 0.5501(4) 0.9446(3)
O15 O 0.5794(3) 0.5387(9) 0.9644(4)
O16 O 0.4832(5) 0.6042(13) 0.9686(4)
O17 O 0.4868(6) 0.5119(11) 0.9028(3)
loop_
_geom_bond_atom_site_label_1
_geom_bond_atom_site_label_2
_geom_bond_site_symmetry_1
_geom_bond_site_symmetry_2
Tb1 O1 1_555 1_555
Tb2 O10 1_555 1_555
O1 H1 1_555 1_555
H2 O1 1_555 1_555
O2 Tb1 1_555 1_555
O3 C7 1_555 1_555
O4 Tb1 1_555 1_555
O5 C6 1_555 1_555
O6 C6 1_555 1_555
O7 Tb1 1_555 1_555
O8 Tb1 1_555 1_555
H3 O8 1_555 1_555
H4 O8 1_555 1_555
O9 C3 1_555 1_555
O10 C1 1_555 1_555
N1 H5 1_555 1_555
C1 O4 1_555 1_555
C2 N1 1_555 1_555
N2 C4 1_555 1_555
C3 O2 1_555 1_555
C4 C2 1_555 1_555
O11 Tb2 1_555 1_555
H6 O11 1_555 1_555
H7 O11 1_555 1_555
O12 Tb2 1_555 1_555
H8 O12 1_555 1_555
H9 O12 1_555 1_555
N3 C5 1_555 1_555
C5 C6 1_555 1_555
C7 O7 1_555 1_555
C8 N1 1_555 1_555
C9 C8 1_555 1_555
C10 C9 1_555 1_555
H10 C10 1_555 1_555
C11 C9 1_555 1_555
H11 C11 1_555 1_555
C12 C11 1_555 1_555
H12 C12 1_555 1_555
C13 C10 1_555 1_555
H13 C13 1_555 1_555
N4 C12 1_555 1_555
N5 H14 1_555 1_555
C14 N3 1_555 1_555
C15 C5 1_555 1_555
C16 C14 1_555 1_555
C17 C16 1_555 1_555
H15 C17 1_555 1_555
C18 C17 1_555 1_555
H16 C18 1_555 1_555
N6 C18 1_555 1_555
C19 C16 1_555 1_555
H17 C19 1_555 1_555
C20 N6 1_555 1_555
H18 C20 1_555 1_555
O13 H19 1_555 1_555
H20 O13 1_555 1_555
O14 H21 1_555 1_555
H22 O14 1_555 1_555
N7 O15 1_555 1_555
O16 N7 1_555 1_555
O17 N7 1_555 1_555
Tb1A O1A 1_555 1_555
Tb1_2 O6 1_555 1_555
Tb1A_2 O6A 1_555 1_555
Tb1B O3A 1_555 1_555
Tb1C O3 1_555 1_555
Tb2_2 O9 1_555 1_555
O1A H1A 1_555 1_555
H2A O1A 1_555 1_555
O2A Tb1A 1_555 1_555
O3A C7A 1_555 1_555
O3B Tb1A 1_555 1_555
O3C Tb1 1_555 1_555
O4A Tb1A 1_555 1_555
O5A Tb1B 1_555 1_555
O5B Tb1A 1_555 1_555
O5C Tb1 1_555 1_555
O6A C6A 1_555 1_555
O6_2 Tb1 1_555 1_555
O6A_2 Tb1A 1_555 1_555
O7A Tb1A 1_555 1_555
O8A Tb1A 1_555 1_555
H3A O8A 1_555 1_555
H4A O8A 1_555 1_555
O9A Tb2_2 1_555 1_555
O9_2 Tb2 1_555 1_555
O9A_2 Tb2 1_555 1_555
O10A Tb2 1_555 1_555
N1A H5A 1_555 1_555
C1A O4A 1_555 1_555
C2A N1A 1_555 1_555
N2A C4A 1_555 1_555
C3A O2A 1_555 1_555
C4A C2A 1_555 1_555
O11A Tb2 1_555 1_555
H6A O11A 1_555 1_555
H7A O11A 1_555 1_555
O12A Tb2 1_555 1_555
H8A O12A 1_555 1_555
H9A O12A 1_555 1_555
N3A C5A 1_555 1_555
C5A C6A 1_555 1_555
C6A O5A 1_555 1_555
C7A O7A 1_555 1_555
C8A N1A 1_555 1_555
C9A C8A 1_555 1_555
C10A C9A 1_555 1_555
H10A C10A 1_555 1_555
C11A C9A 1_555 1_555
H11A C11A 1_555 1_555
C12A C11A 1_555 1_555
H12A C12A 1_555 1_555
C13A C10A 1_555 1_555
H13A C13A 1_555 1_555
N4A C12A 1_555 1_555
N5A H14A 1_555 1_555
C14A N3A 1_555 1_555
C15A C5A 1_555 1_555
C16A C14A 1_555 1_555
C17A C16A 1_555 1_555
H15A C17A 1_555 1_555
C18A C17A 1_555 1_555
H16A C18A 1_555 1_555
N6A C18A 1_555 1_555
C19A C16A 1_555 1_555
H17A C19A 1_555 1_555
C20A N6A 1_555 1_555
H18A C20A 1_555 1_555
O5 Tb1C 1_555 1_555
C1 C2 1_555 1_555
N2 C8 1_555 1_555
C3 C4 1_555 1_555
C7 C15 1_555 1_555
C13 N4 1_555 1_555
N5 C14 1_555 1_555
N5 C15 1_555 1_555
C19 C20 1_555 1_555
O9A C3A 1_555 1_555
O10A C1A 1_555 1_555
C1A C2A 1_555 1_555
N2A C8A 1_555 1_555
C3A C4A 1_555 1_555
C7A C15A 1_555 1_555
C13A N4A 1_555 1_555
N5A C14A 1_555 1_555
N5A C15A 1_555 1_555
C19A C20A 1_555 1_555

#END
