
#######################################################################
#
#                 Cambridge Crystallographic Data Centre
#                                CCDC 
#
#######################################################################
#
# If this CIF has been generated from an entry in the Cambridge 
# Structural Database, then it will include bibliographic, chemical, 
# crystal, experimental, refinement or atomic coordinate data resulting 
# from the CCDC's data processing and validation procedures.
#
#######################################################################

data_IZAYUE02
_symmetry_cell_setting           orthorhombic
_symmetry_space_group_name_H-M   'P b c a'
_symmetry_Int_Tables_number      61
_space_group_name_Hall           '-P 2ac 2ab'
loop_
_symmetry_equiv_pos_site_id
_symmetry_equiv_pos_as_xyz
1 x,y,z
2 1/2-x,-y,1/2+z
3 -x,1/2+y,1/2-z
4 1/2+x,1/2-y,-z
5 -x,-y,-z
6 1/2+x,y,1/2-z
7 x,1/2-y,1/2+z
8 1/2-x,1/2+y,z
_cell_length_a                   12.7080(5)
_cell_length_b                   7.1786(3)
_cell_length_c                   25.3307(10)
_cell_angle_alpha                90
_cell_angle_beta                 90
_cell_angle_gamma                90
_cell_volume                     2310.81
loop_
_atom_site_label
_atom_site_type_symbol
_atom_site_fract_x
_atom_site_fract_y
_atom_site_fract_z
Zn1 Zn 0.74062(2) 0.20601(3) 0.57742(2)
O1 O 1.15826(12) 1.26112(19) 0.49851(6)
O2 O 1.18735(11) 1.02619(18) 0.44690(5)
O3 O 0.86329(10) 0.60810(18) 0.62613(5)
O4 O 0.86226(12) 0.29760(18) 0.61858(7)
C1 C 0.90080(14) 0.4487(2) 0.63391(7)
C2 C 0.99904(14) 0.4408(2) 0.66657(7)
C3 C 1.00442(16) 0.3102(3) 0.70713(8)
H1 H 0.9520 0.2204 0.7101
C4 C 1.08604(18) 0.3115(3) 0.74303(9)
H2 H 1.0874 0.2256 0.7705
C5 C 1.16580(17) 0.4410(3) 0.73801(8)
H3 H 1.2206 0.4436 0.7623
C6 C 1.16378(15) 0.5667(3) 0.69673(8)
H4 H 1.2191 0.6504 0.6928
C7 C 1.08047(14) 0.5710(2) 0.66062(7)
C8 C 1.08645(13) 0.7075(2) 0.61663(7)
C9 C 1.10689(16) 0.8948(3) 0.62709(7)
H5 H 1.1086 0.9364 0.6619
C10 C 1.12482(16) 1.0203(3) 0.58625(8)
H6 H 1.1381 1.1449 0.5938
C11 C 1.12280(13) 0.9591(2) 0.53415(7)
C12 C 1.09780(14) 0.7743(3) 0.52334(7)
H7 H 1.0930 0.7343 0.4885
C13 C 1.07997(14) 0.6492(3) 0.56416(7)
H8 H 1.0636 0.5259 0.5565
C14 C 1.15578(13) 1.0899(3) 0.49175(7)
Zn1C Zn 1.24062(2) 1.29399(3) 0.42258(2)
Zn1D Zn 1.25938(2) 0.79399(3) 0.42258(2)
Zn1G Zn 0.75938(2) 0.70601(3) 0.57742(2)
O1C O 0.65826(12) 0.23888(19) 0.50149(6)
O2C O 0.68735(11) 0.47381(18) 0.55310(5)
O2D O 0.81265(11) -0.02619(18) 0.55310(5)
O3G O 0.63671(10) 0.10810(18) 0.62613(5)
loop_
_geom_bond_atom_site_label_1
_geom_bond_atom_site_label_2
_geom_bond_site_symmetry_1
_geom_bond_site_symmetry_2
Zn1 O4 1_555 1_555
O1 C14 1_555 1_555
O2 C14 1_555 1_555
O3 C1 1_555 1_555
O4 C1 1_555 1_555
C1 C2 1_555 1_555
C2 C3 1_555 1_555
C3 H1 1_555 1_555
C4 C3 1_555 1_555
H2 C4 1_555 1_555
C5 C4 1_555 1_555
H3 C5 1_555 1_555
C6 C5 1_555 1_555
H4 C6 1_555 1_555
C7 C2 1_555 1_555
C8 C7 1_555 1_555
C9 C8 1_555 1_555
H5 C9 1_555 1_555
C10 C9 1_555 1_555
H6 C10 1_555 1_555
C11 C10 1_555 1_555
C12 C11 1_555 1_555
H7 C12 1_555 1_555
C13 C8 1_555 1_555
H8 C13 1_555 1_555
C14 C11 1_555 1_555
Zn1C O1 1_555 1_555
Zn1D O2 1_555 1_555
Zn1G O3 1_555 1_555
O1C Zn1 1_555 1_555
O2C Zn1 1_555 1_555
O2D Zn1 1_555 1_555
O3G Zn1 1_555 1_555
O2 Zn1C 1_555 1_555
C6 C7 1_555 1_555
C12 C13 1_555 1_555
Zn1G O2C 1_555 1_555

#END
