
#######################################################################
#
#                 Cambridge Crystallographic Data Centre
#                                CCDC 
#
#######################################################################
#
# If this CIF has been generated from an entry in the Cambridge 
# Structural Database, then it will include bibliographic, chemical, 
# crystal, experimental, refinement or atomic coordinate data resulting 
# from the CCDC's data processing and validation procedures.
#
#######################################################################

data_IZAYIS
_symmetry_cell_setting           triclinic
_symmetry_space_group_name_H-M   'P -1'
_symmetry_Int_Tables_number      2
_space_group_name_Hall           '-P 1'
loop_
_symmetry_equiv_pos_site_id
_symmetry_equiv_pos_as_xyz
1 x,y,z
2 -x,-y,-z
_cell_length_a                   10.897(3)
_cell_length_b                   15.178(4)
_cell_length_c                   15.655(3)
_cell_angle_alpha                70.119(2)
_cell_angle_beta                 81.876(3)
_cell_angle_gamma                74.231(2)
_cell_volume                     2339.87
loop_
_atom_site_label
_atom_site_type_symbol
_atom_site_fract_x
_atom_site_fract_y
_atom_site_fract_z
C1 C 0.9640(7) 0.3639(5) 0.9923(6)
H1 H 0.9661 0.4114 1.0167
C2 C 0.8421(8) 0.3524(6) 0.9760(6)
C3 C 0.8477(8) 0.2730(6) 0.9446(6)
H2 H 0.7716 0.2621 0.9349
C4 C 0.9572(8) 0.2142(7) 0.9286(6)
C5 C 1.0696(8) 0.2297(5) 0.9393(5)
H3 H 1.1455 0.1899 0.9250
C6 C 1.0747(8) 0.3058(6) 0.9721(5)
C7 C 0.7291(8) 0.4209(6) 0.9894(5)
C8 C 1.2033(8) 0.3131(6) 0.9892(5)
C9 C 1.0546(9) 0.0633(6) 0.8929(5)
C10 C 1.0302(8) -0.0110(5) 0.8623(5)
C11 C 0.9082(9) -0.0266(6) 0.8602(6)
H4 H 0.8361 0.0169 0.8738
C12 C 0.8926(11) -0.1011(7) 0.8395(7)
H5 H 0.8102 -0.1065 0.8372
C13 C 1.1071(10) -0.1557(7) 0.8181(7)
H6 H 1.1760 -0.2002 0.8024
C14 C 1.1323(10) -0.0762(6) 0.8369(6)
H7 H 1.2152 -0.0687 0.8322
C15 C -0.1563(8) -0.2732(6) 0.5887(5)
H8 H -0.2417 -0.2748 0.5932
C16 C -0.0716(9) -0.3424(6) 0.5599(7)
H9 H -0.0993 -0.3875 0.5444
C17 C 0.0505(9) -0.3443(6) 0.5543(6)
C18 C 0.0899(10) -0.2698(6) 0.5813(6)
H10 H 0.1746 -0.2680 0.5810
C19 C 0.1519(9) -0.4232(7) 0.5276(6)
C20 C 0.3439(8) -0.4522(6) 0.4343(5)
C21 C 0.3901(7) -0.5520(6) 0.4805(6)
H11 H 0.3651 -0.5778 0.5413
C22 C 0.4717(7) -0.6111(6) 0.4357(5)
C23 C 0.5128(10) -0.5730(6) 0.3466(5)
H12 H 0.5722 -0.6122 0.3180
C24 C 0.4641(8) -0.4734(7) 0.2982(6)
C25 C 0.3873(9) -0.4141(6) 0.3446(6)
H13 H 0.3641 -0.3479 0.3156
C26 C 0.5207(8) -0.7160(6) 0.4876(6)
C27 C 0.5051(9) -0.4337(7) 0.2022(5)
C28 C 1.0921(9) -0.9338(6) 0.6011(7)
H14 H 1.0921 -0.9803 0.5749
C29 C 1.2082(9) -0.9168(6) 0.6124(5)
C30 C 1.2027(7) -0.8400(6) 0.6466(6)
H15 H 1.2780 -0.8242 0.6503
C31 C 1.0903(8) -0.7893(5) 0.6740(6)
C32 C 0.9718(8) -0.8129(5) 0.6709(5)
H16 H 0.8953 -0.7838 0.6957
C33 C 0.9779(7) -0.8818(6) 0.6287(5)
C34 C 0.8541(8) -0.8947(5) 0.6111(6)
C35 C 1.3251(7) -0.9658(6) 0.5770(5)
C36 C 0.9851(8) -0.6426(6) 0.7146(6)
C37 C 0.9985(8) -0.5660(6) 0.7471(5)
C38 C 1.1026(9) -0.4666(6) 0.7845(5)
H17 H 1.1781 -0.4510 0.7886
C39 C 0.8851(8) -0.4303(5) 0.7949(5)
H18 H 0.8079 -0.3927 0.8101
C40 C 0.8865(8) -0.5048(5) 0.7645(5)
H19 H 0.8094 -0.5145 0.7553
C41 C -0.0127(9) -0.2039(6) 0.6067(7)
H20 H 0.0045 -0.1547 0.6224
C42 C 1.1095(8) -0.5482(5) 0.7590(5)
H21 H 1.1879 -0.5889 0.7505
C43 C 0.5151(12) 0.1310(7) 1.0975(8)
H22 H 0.5030 0.0944 1.0638
Cu1 Cu 0.98022(10) -0.29156(7) 0.82318(7)
Gd1 Gd 0.61814(4) -0.91316(3) 0.57843(3)
Gd2 Gd 0.42750(4) 0.37125(3) 0.98857(3)
N1 N 0.9931(7) -0.1690(5) 0.8218(5)
N2 N -0.1328(8) -0.2078(5) 0.6097(6)
N3 N 0.9941(6) -0.4119(4) 0.8028(4)
N4 N 1.0896(6) -0.7134(4) 0.7066(4)
H23 H 1.1609 -0.7116 0.7227
N5 N 0.2513(7) -0.3893(5) 0.4751(4)
H24 H 0.2579 -0.3318 0.4669
N6 N 0.9554(7) 0.1360(5) 0.9021(5)
H25 H 0.8820 0.1336 0.8901
O1 O 1.1623(7) 0.0564(5) 0.9099(5)
O2 O 0.6223(6) 0.4035(5) 0.9814(5)
O3 O 0.7340(5) 0.4937(4) 1.0045(4)
O4 O 1.2212(5) 0.3172(4) 1.0618(4)
O5 O 1.2843(6) 0.3241(4) 0.9227(4)
O6 O 0.5249(5) 0.2121(4) 1.0499(5)
O7 O 0.4714(6) -0.3438(5) 0.1587(4)
O8 O 0.5649(5) -0.4927(5) 0.1604(4)
O9 O 0.5934(6) -0.7689(4) 0.4459(4)
O10 O 0.4872(5) -0.7487(4) 0.5698(4)
O11 O 0.1365(6) -0.5014(5) 0.5489(4)
O12 O 0.7511(5) -0.8324(4) 0.6218(4)
O13 O 0.8511(5) -0.9641(4) 0.5885(4)
O14 O 1.4218(6) -0.9374(5) 0.5741(4)
O15 O 1.3246(6) -1.0288(4) 0.5436(4)
O16 O 0.8824(6) -0.6385(5) 0.6925(6)
O17 O 0.5175(7) 0.0860(5) 1.1815(5)
O18 O 0.4441(6) 0.3677(5) 1.1440(4)
H26 H 0.4845 0.3033 1.1794
H27 H 0.4947 0.4111 1.1425
O19 O 0.5449(6) -0.9262(5) 0.7345(4)
H28 H 0.6098 -0.9184 0.7650
H29 H 0.5274 -0.9884 0.7647
O20 O 0.6720(7) -1.0795(5) 0.6588(5)
H30 H 0.7596 -1.0986 0.6744
H31 H 0.6605 -1.1151 0.6214
Gd1_2 Gd 1.61814(4) -0.91316(3) 0.57843(3)
Gd1A Gd 1.38186(4) -1.08684(3) 0.42157(3)
Gd2A Gd 0.57250(4) 0.62875(3) 1.01143(3)
Gd2_2 Gd 1.42750(4) 0.37125(3) 0.98857(3)
Gd2A_2 Gd 0.57250(4) -0.37125(3) 0.01143(3)
O3A O 0.2660(5) 0.5063(4) 0.9955(4)
O4_2 O 0.2212(5) 0.3172(4) 1.0618(4)
O5_2 O 0.2843(6) 0.3241(4) 0.9227(4)
O7A O 0.5286(6) 0.3438(5) 0.8413(4)
O8A O 0.4351(5) 0.4927(5) 0.8396(4)
O14_2 O 0.4218(6) -0.9374(5) 0.5741(4)
O15A O 0.6754(6) -0.9712(4) 0.4564(4)
O21 O 0.4533(7) 0.7927(5) 0.7194(4)
H32 H 0.3772 0.7984 0.7077
H33 H 0.4993 0.7994 0.6701
O22 O 0.3612(6) 0.2718(5) 0.7394(4)
H34 H 0.3819 0.3125 0.7572
H35 H 0.4023 0.2666 0.6903
O23 O 0.3048(8) 0.8288(4) 0.1690(4)
H36 H 0.3736 0.8205 0.1364
H37 H 0.2791 0.7769 0.1885
loop_
_geom_bond_atom_site_label_1
_geom_bond_atom_site_label_2
_geom_bond_site_symmetry_1
_geom_bond_site_symmetry_2
C1 H1 1_555 1_555
C2 C1 1_555 1_555
C3 C2 1_555 1_555
H2 C3 1_555 1_555
C4 C3 1_555 1_555
C5 C4 1_555 1_555
H3 C5 1_555 1_555
C6 C1 1_555 1_555
C7 C2 1_555 1_555
C8 C6 1_555 1_555
C9 C10 1_555 1_555
C10 C11 1_555 1_555
C11 H4 1_555 1_555
C12 C11 1_555 1_555
H5 C12 1_555 1_555
C13 H6 1_555 1_555
C14 C10 1_555 1_555
H7 C14 1_555 1_555
C15 H8 1_555 1_555
C16 C15 1_555 1_555
H9 C16 1_555 1_555
C17 C16 1_555 1_555
C18 C17 1_555 1_555
H10 C18 1_555 1_555
C19 C17 1_555 1_555
C20 C21 1_555 1_555
C21 H11 1_555 1_555
C22 C21 1_555 1_555
C23 C22 1_555 1_555
H12 C23 1_555 1_555
C24 C23 1_555 1_555
C25 C20 1_555 1_555
H13 C25 1_555 1_555
C26 C22 1_555 1_555
C27 C24 1_555 1_555
C28 H14 1_555 1_555
C29 C28 1_555 1_555
C30 C29 1_555 1_555
H15 C30 1_555 1_555
C31 C30 1_555 1_555
C32 C31 1_555 1_555
H16 C32 1_555 1_555
C33 C28 1_555 1_555
C34 C33 1_555 1_555
C35 C29 1_555 1_555
C36 C37 1_555 1_555
C37 C40 1_555 1_555
C38 H17 1_555 1_555
C39 H18 1_555 1_555
C40 C39 1_555 1_555
H19 C40 1_555 1_555
C41 C18 1_555 1_555
H20 C41 1_555 1_555
C42 C37 1_555 1_555
H21 C42 1_555 1_555
C43 H22 1_555 1_555
Cu1 N1 1_555 1_555
Gd1 O9 1_555 1_555
Gd2 O2 1_555 1_555
N1 C12 1_555 1_555
N2 C15 1_555 1_555
N3 C38 1_555 1_555
N4 C31 1_555 1_555
H23 N4 1_555 1_555
N5 C19 1_555 1_555
H24 N5 1_555 1_555
N6 C4 1_555 1_555
H25 N6 1_555 1_555
O1 C9 1_555 1_555
O2 C7 1_555 1_555
O3 C7 1_555 1_555
O4 C8 1_555 1_555
O5 C8 1_555 1_555
O6 C43 1_555 1_555
O7 C27 1_555 1_555
O8 C27 1_555 1_555
O9 C26 1_555 1_555
O10 C26 1_555 1_555
O11 C19 1_555 1_555
O12 C34 1_555 1_555
O13 C34 1_555 1_555
O14 C35 1_555 1_555
O15 C35 1_555 1_555
O16 C36 1_555 1_555
O17 C43 1_555 1_555
O18 Gd2 1_555 1_555
H26 O18 1_555 1_555
H27 O18 1_555 1_555
O19 Gd1 1_555 1_555
H28 O19 1_555 1_555
H29 O19 1_555 1_555
O20 Gd1 1_555 1_555
H30 O20 1_555 1_555
H31 O20 1_555 1_555
O21 H32 1_555 1_555
H33 O21 1_555 1_555
O22 H34 1_555 1_555
H35 O22 1_555 1_555
O23 H36 1_555 1_555
H37 O23 1_555 1_555
Gd1_2 O14 1_555 1_555
Gd1A O15 1_555 1_555
Gd2A O3 1_555 1_555
Gd2_2 O4 1_555 1_555
Gd2A_2 O7 1_555 1_555
O3A Gd2 1_555 1_555
O4_2 Gd2 1_555 1_555
O5_2 Gd2 1_555 1_555
O7A Gd2 1_555 1_555
O8A Gd2 1_555 1_555
O14_2 Gd1 1_555 1_555
O15A Gd1 1_555 1_555
C5 C6 1_555 1_555
C9 N6 1_555 1_555
C13 C14 1_555 1_555
C13 N1 1_555 1_555
C20 N5 1_555 1_555
C24 C25 1_555 1_555
C32 C33 1_555 1_555
C36 N4 1_555 1_555
C38 C42 1_555 1_555
C39 N3 1_555 1_555
C41 N2 1_555 1_555
Cu1 N3 1_555 1_555
Gd1 O10 1_555 1_555
Gd1 O12 1_555 1_555
Gd1 O13 1_555 1_555
Gd2 O6 1_555 1_555
O5 Gd2_2 1_555 1_555
O8 Gd2A_2 1_555 1_555

#END
