
#######################################################################
#
#                 Cambridge Crystallographic Data Centre
#                                CCDC 
#
#######################################################################
#
# If this CIF has been generated from an entry in the Cambridge 
# Structural Database, then it will include bibliographic, chemical, 
# crystal, experimental, refinement or atomic coordinate data resulting 
# from the CCDC's data processing and validation procedures.
#
#######################################################################

data_IZEBIZ
_symmetry_cell_setting           monoclinic
_symmetry_space_group_name_H-M   'P 21/c'
_symmetry_Int_Tables_number      14
_space_group_name_Hall           '-P 2ybc'
loop_
_symmetry_equiv_pos_site_id
_symmetry_equiv_pos_as_xyz
1 x,y,z
2 -x,1/2+y,1/2-z
3 -x,-y,-z
4 x,1/2-y,1/2+z
_cell_length_a                   10.8460(7)
_cell_length_b                   6.9288(4)
_cell_length_c                   16.7202(15)
_cell_angle_alpha                90
_cell_angle_beta                 103.978(8)
_cell_angle_gamma                90
_cell_volume                     1219.31
loop_
_atom_site_label
_atom_site_type_symbol
_atom_site_fract_x
_atom_site_fract_y
_atom_site_fract_z
Cu1 Cu 1.19553(6) 0.68525(8) 0.38765(4)
N1 N 1.2395(3) 0.8896(5) 0.1870(2)
N2 N 1.3362(3) 0.6522(5) 0.3263(2)
O1 O 0.9641(2) 1.1550(4) 0.07455(18)
O2 O 1.0093(3) 1.0369(4) 0.2015(2)
O3 O 1.2496(2) 0.4300(4) 0.42931(19)
O4 O 1.4153(3) 0.2311(4) 0.4550(2)
O5 O 1.3679(3) 1.1330(4) 0.24676(19)
C1 C 1.0392(4) 1.0708(5) 0.1358(3)
C2 C 1.1681(4) 1.0130(6) 0.1223(3)
H1 H 1.1553 0.9450 0.0689
H2 H 1.2181 1.1311 0.1192
C3 C 1.3322(4) 0.9651(6) 0.2477(3)
C4 C 1.4019(4) 0.8343(6) 0.3146(3)
H3 H 1.4846 0.8007 0.3029
H4 H 1.4202 0.9067 0.3672
C5 C 1.1919(4) 0.6909(6) 0.1886(3)
H5 H 1.1721 0.6368 0.1322
H6 H 1.1125 0.6925 0.2079
C6 C 1.2879(4) 0.5652(6) 0.2444(3)
H7 H 1.2486 0.4390 0.2508
H8 H 1.3599 0.5419 0.2189
C7 C 1.4273(4) 0.5176(6) 0.3784(3)
H9 H 1.4916 0.5923 0.4186
H10 H 1.4721 0.4437 0.3433
C8 C 1.3612(4) 0.3782(6) 0.4243(3)
O6 O 1.1484(3) 0.9457(4) 0.3482(2)
O7 O 1.3214(3) 0.8388(5) 0.5052(2)
H11 H 1.123(4) 1.010(6) 0.3843(17)
H12 H 1.109(4) 0.981(6) 0.3003(10)
H13 H 1.3989(17) 0.813(5) 0.528(3)
H14 H 1.311(3) 0.9605(18) 0.505(3)
Cu1A Cu 0.80447(6) 1.18525(8) 0.11235(4)
O1A O 1.0359(2) 0.6550(4) 0.42545(18)
O8 O 1.0975(4) 1.1508(5) 0.4704(3)
H15 H 1.047(5) 1.184(8) 0.489(3)
H16 H 1.145(5) 1.233(6) 0.470(3)
loop_
_geom_bond_atom_site_label_1
_geom_bond_atom_site_label_2
_geom_bond_site_symmetry_1
_geom_bond_site_symmetry_2
Cu1 N2 1_555 1_555
N1 C2 1_555 1_555
N2 C4 1_555 1_555
O1 C1 1_555 1_555
O2 C1 1_555 1_555
O3 Cu1 1_555 1_555
O4 C8 1_555 1_555
O5 C3 1_555 1_555
C1 C2 1_555 1_555
C2 H1 1_555 1_555
H2 C2 1_555 1_555
C3 N1 1_555 1_555
C4 C3 1_555 1_555
H3 C4 1_555 1_555
H4 C4 1_555 1_555
C5 N1 1_555 1_555
H5 C5 1_555 1_555
H6 C5 1_555 1_555
C6 N2 1_555 1_555
H7 C6 1_555 1_555
H8 C6 1_555 1_555
C7 N2 1_555 1_555
H9 C7 1_555 1_555
H10 C7 1_555 1_555
C8 O3 1_555 1_555
O6 Cu1 1_555 1_555
O7 Cu1 1_555 1_555
O8 H15 1_555 1_555
H11 O6 1_555 1_555
H12 O6 1_555 1_555
H13 O7 1_555 1_555
H14 O7 1_555 1_555
H16 O8 1_555 1_555
Cu1A O1 1_555 1_555
O1A Cu1 1_555 1_555
C5 C6 1_555 1_555
C7 C8 1_555 1_555

#END
