
#######################################################################
#
#                 Cambridge Crystallographic Data Centre
#                                CCDC 
#
#######################################################################
#
# If this CIF has been generated from an entry in the Cambridge 
# Structural Database, then it will include bibliographic, chemical, 
# crystal, experimental, refinement or atomic coordinate data resulting 
# from the CCDC's data processing and validation procedures.
#
#######################################################################

data_IZECIA
_symmetry_cell_setting           monoclinic
_symmetry_space_group_name_H-M   'C 2/c'
_symmetry_Int_Tables_number      15
_space_group_name_Hall           '-C 2yn'
loop_
_symmetry_equiv_pos_site_id
_symmetry_equiv_pos_as_xyz
1 x,y,z
2 -x,y,1/2-z
3 1/2+x,1/2+y,z
4 1/2-x,1/2+y,1/2-z
5 -x,-y,-z
6 x,-y,1/2+z
7 1/2-x,1/2-y,-z
8 1/2+x,1/2-y,1/2+z
_cell_length_a                   10.223(3)
_cell_length_b                   10.319(3)
_cell_length_c                   13.613(4)
_cell_angle_alpha                90
_cell_angle_beta                 105.922(6)
_cell_angle_gamma                90
_cell_volume                     1380.96
loop_
_atom_site_label
_atom_site_type_symbol
_atom_site_fract_x
_atom_site_fract_y
_atom_site_fract_z
C1 C 0.3092(4) 0.6000(4) 0.3497(3)
C2 C 0.2324(4) 0.4977(4) 0.3907(3)
C3 C 0.2109(4) 0.5077(4) 0.4869(3)
H1 H 0.2423 0.5805 0.5295
C4 C 0.1417(4) 0.4070(4) 0.5184(3)
C5 C 0.0894(4) 0.3071(4) 0.4510(3)
H2 H 0.0402 0.2397 0.4725
C6 C 0.1796(4) 0.3939(4) 0.3279(3)
H3 H 0.1960 0.3876 0.2627
N1 N 0.1056(3) 0.3018(3) 0.3578(3)
O1 O 0.4052(3) 0.5532(3) 0.3147(2)
O2 O 0.2817(3) 0.7154(3) 0.3521(2)
O3 O 0.1263(3) 0.4113(3) 0.6150(2)
H6 H 0.0797 0.3476 0.6239
Zn1 Zn 0.0000 0.17760(6) 0.2500
C1A C -0.3092(4) 0.6000(4) 0.1503(3)
C2A C -0.2324(4) 0.4977(4) 0.1093(3)
C3A C -0.2109(4) 0.5077(4) 0.0131(3)
H1A H -0.2423 0.5805 -0.0295
C4A C -0.1417(4) 0.4070(4) -0.0184(3)
C5A C -0.0894(4) 0.3071(4) 0.0490(3)
H2A H -0.0402 0.2397 0.0275
C6A C -0.1796(4) 0.3939(4) 0.1721(3)
H3A H -0.1960 0.3876 0.2373
N1A N -0.1056(3) 0.3018(3) 0.1422(3)
O1A O -0.4052(3) 0.5532(3) 0.1853(2)
O1B O -0.0948(3) 0.0532(3) 0.3147(2)
O1C O 0.0948(3) 0.0532(3) 0.1853(2)
O2A O -0.2817(3) 0.7154(3) 0.1479(2)
O3A O -0.1263(3) 0.4113(3) -0.1150(2)
H6A H -0.0797 0.3476 -0.1239
Zn1B Zn -0.5000 0.67760(6) 0.2500
Zn1B_2 Zn 0.5000 0.67760(6) 0.2500
H4 H 0.405(4) 0.736(6) 0.636(5)
H5 H 0.523(5) 0.636(3) 0.654(4)
O4 O 0.4777(3) 0.7034(3) 0.6293(3)
loop_
_geom_bond_atom_site_label_1
_geom_bond_atom_site_label_2
_geom_bond_site_symmetry_1
_geom_bond_site_symmetry_2
C1 C2 1_555 1_555
C2 C3 1_555 1_555
C3 H1 1_555 1_555
C4 C3 1_555 1_555
C5 C4 1_555 1_555
H2 C5 1_555 1_555
C6 C2 1_555 1_555
H3 C6 1_555 1_555
H4 O4 1_555 1_555
H5 O4 1_555 1_555
N1 C5 1_555 1_555
O1 C1 1_555 1_555
O2 C1 1_555 1_555
O3 C4 1_555 1_555
H6 O3 1_555 1_555
Zn1 N1 1_555 1_555
C1A C2A 1_555 1_555
C2A C3A 1_555 1_555
C3A H1A 1_555 1_555
C4A C3A 1_555 1_555
C5A C4A 1_555 1_555
H2A C5A 1_555 1_555
C6A C2A 1_555 1_555
H3A C6A 1_555 1_555
N1A Zn1 1_555 1_555
O1A C1A 1_555 1_555
O1B Zn1 1_555 1_555
O1C Zn1 1_555 1_555
O2A C1A 1_555 1_555
O3A C4A 1_555 1_555
H6A O3A 1_555 1_555
Zn1B O1A 1_555 1_555
Zn1B_2 O1 1_555 1_555
C6 N1 1_555 1_555
C5A N1A 1_555 1_555
C6A N1A 1_555 1_555

#END
