
#######################################################################
#
#                 Cambridge Crystallographic Data Centre
#                                CCDC 
#
#######################################################################
#
# If this CIF has been generated from an entry in the Cambridge 
# Structural Database, then it will include bibliographic, chemical, 
# crystal, experimental, refinement or atomic coordinate data resulting 
# from the CCDC's data processing and validation procedures.
#
#######################################################################

data_IZESOW
_symmetry_cell_setting           monoclinic
_symmetry_space_group_name_H-M   'P 2'
_symmetry_Int_Tables_number      3
_space_group_name_Hall           'P 2y'
loop_
_symmetry_equiv_pos_site_id
_symmetry_equiv_pos_as_xyz
1 x,y,z
2 -x,y,-z
_cell_length_a                   9.2912(15)
_cell_length_b                   9.7508(16)
_cell_length_c                   12.792(2)
_cell_angle_alpha                90
_cell_angle_beta                 96.845(3)
_cell_angle_gamma                90
_cell_volume                     1150.65
loop_
_atom_site_label
_atom_site_type_symbol
_atom_site_fract_x
_atom_site_fract_y
_atom_site_fract_z
C1 C -0.2072(7) 0.3833(7) 1.3258(5)
C2 C -0.2040(7) 0.2429(6) 1.3369(5)
C3 C -0.2575(8) 0.2015(7) 1.4350(6)
C4 C -0.2806(5) 0.3077(7) 1.5056(4)
N1 N -0.0777(3) 0.65835(17) 1.10072(15)
C5 C -0.2080(3) 0.68025(16) 1.14138(15)
H1 H -0.2648 0.7560 1.1199
C6 C -0.2534(2) 0.58898(15) 1.21422(13)
H2 H -0.3406 0.6036 1.2414
C7 C -0.16854(17) 0.47580(14) 1.24640(11)
C8 C -0.03824(17) 0.45390(15) 1.20574(11)
H3 H 0.0186 0.3782 1.2273
C9 C 0.0072(2) 0.54517(17) 1.13290(13)
H4 H 0.0944 0.5305 1.1057
N2 N -0.0646(2) -0.02485(17) 1.10942(12)
C10 C -0.1893(2) 0.05321(17) 1.08539(10)
H5 H -0.2422 0.0467 1.0191
C11 C -0.23502(16) 0.14101(16) 1.16043(9)
H6 H -0.3185 0.1932 1.1444
C12 C -0.15601(14) 0.15075(14) 1.25949(9)
C13 C -0.03221(15) 0.07302(15) 1.27765(10)
H7 H 0.0234 0.0822 1.3427
C14 C 0.01446(19) -0.01511(16) 1.20848(12)
H8 H 0.0971 -0.0680 1.2263
N3 N -0.1914(2) -0.19652(19) 1.55492(14)
C15 C -0.3057(2) -0.16785(17) 1.47767(14)
H9 H -0.3690 -0.2373 1.4523
C16 C -0.32532(17) -0.03539(17) 1.43840(11)
H10 H -0.4018 -0.0162 1.3867
C17 C -0.23066(14) 0.06841(17) 1.47639(9)
C18 C -0.11637(15) 0.03974(19) 1.55364(10)
H11 H -0.0560 0.1090 1.5833
C19 C -0.0950(2) -0.0986(2) 1.58563(12)
H12 H -0.0114 -0.1219 1.6294
N4 N -0.3939(2) 0.3276(3) 1.81420(10)
C20 C -0.3855(2) 0.2027(3) 1.76289(10)
H13 H -0.4040 0.1215 1.7970
C21 C -0.34940(16) 0.1992(2) 1.66056(9)
H14 H -0.3437 0.1156 1.6262
C22 C -0.32176(16) 0.3205(2) 1.60952(9)
C23 C -0.3302(2) 0.4454(2) 1.66082(11)
H15 H -0.3117 0.5266 1.6267
C24 C -0.3663(2) 0.4489(3) 1.76316(11)
H16 H -0.3720 0.5325 1.7975
C25 C -0.3201(5) 0.8273(8) 0.8655(4)
Co1 Co 0.0000 0.81987(10) 1.0000
N5 N -0.2058(3) 0.8304(6) 0.9166(3)
S1 S -0.25920(17) 0.45716(16) 1.43781(12)
S2 S -0.46134(15) 0.8341(2) 0.78955(12)
C1_2 C -0.2072(7) 1.3833(7) 1.3258(5)
C2_2 C -0.2040(7) 1.2429(6) 1.3369(5)
C3_2 C -0.2575(8) 1.2015(7) 1.4350(6)
C4_2 C -0.2806(5) 1.3077(7) 1.5056(4)
N1_2 N -0.0777(3) 1.65835(17) 1.10072(15)
N1A N 0.0777(3) 0.65835(17) 0.89928(15)
C5_2 C -0.2080(3) 1.68025(16) 1.14138(15)
H1_2 H -0.2648 1.7560 1.1199
C6_2 C -0.2534(2) 1.58898(15) 1.21422(13)
H2_2 H -0.3406 1.6036 1.2414
C7_2 C -0.16854(17) 1.47580(14) 1.24640(11)
C8_2 C -0.03824(17) 1.45390(15) 1.20574(11)
H3_2 H 0.0186 1.3782 1.2273
C9_2 C 0.0072(2) 1.54517(17) 1.13290(13)
H4_2 H 0.0944 1.5305 1.1057
N2_2 N -0.0646(2) 0.97515(17) 1.10942(12)
N2A N 0.0646(2) 0.97515(17) 0.89058(12)
C10_2 C -0.1893(2) 1.05321(17) 1.08539(10)
H5_2 H -0.2422 1.0467 1.0191
C11_2 C -0.23502(16) 1.14101(16) 1.16043(9)
H6_2 H -0.3185 1.1932 1.1444
C12_2 C -0.15601(14) 1.15075(14) 1.25949(9)
C13_2 C -0.03221(15) 1.07302(15) 1.27765(10)
H7_2 H 0.0234 1.0822 1.3427
C14_2 C 0.01446(19) 0.98489(16) 1.20848(12)
H8_2 H 0.0971 0.9320 1.2263
N3_2 N -0.1914(2) 0.80348(19) 1.55492(14)
C15_2 C -0.3057(2) 0.83215(17) 1.47767(14)
H9_2 H -0.3690 0.7627 1.4523
C16_2 C -0.32532(17) 0.96461(17) 1.43840(11)
H10_2 H -0.4018 0.9838 1.3867
C17_2 C -0.23066(14) 1.06841(17) 1.47639(9)
C18_2 C -0.11637(15) 1.03974(19) 1.55364(10)
H11_2 H -0.0560 1.1090 1.5833
C19_2 C -0.0950(2) 0.9014(2) 1.58563(12)
H12_2 H -0.0114 0.8781 1.6294
N4_2 N -0.3939(2) 1.3276(3) 1.81420(10)
C20_2 C -0.3855(2) 1.2027(3) 1.76289(10)
H13_2 H -0.4040 1.1215 1.7970
C21_2 C -0.34940(16) 1.1992(2) 1.66056(9)
H14_2 H -0.3437 1.1156 1.6262
C22_2 C -0.32176(16) 1.3205(2) 1.60952(9)
C23_2 C -0.3302(2) 1.4454(2) 1.66082(11)
H15_2 H -0.3117 1.5266 1.6267
C24_2 C -0.3663(2) 1.4489(3) 1.76316(11)
H16_2 H -0.3720 1.5325 1.7975
C25A C 0.3201(5) 0.8273(8) 1.1345(4)
Co1_2 Co 0.0000 -0.18013(10) 1.0000
Co1_3 Co 0.0000 1.81987(10) 1.0000
N5A N 0.2058(3) 0.8304(6) 1.0834(3)
S1_2 S -0.25920(17) 1.45716(16) 1.43781(12)
S2A S 0.46134(15) 0.8341(2) 1.21045(12)
O1 O 0.0000 0.2701(7) 0.0000
O2 O 0.5000 0.2767(10) 1.0000
H17 H 0.5655 0.2520 0.9629
H17A H 0.4345 0.2520 1.0371
H18? H 0.0511 0.2064 0.0356
H19? H -0.0022 0.3404 -0.0417
H20? H 0.4827 0.3622 0.9953
O3? O 0.5000 0.4509(10) 1.0000
H21? H 0.4137 0.4800 1.0000
H22? H 0.5521 0.4800 1.0546
loop_
_geom_bond_atom_site_label_1
_geom_bond_atom_site_label_2
_geom_bond_site_symmetry_1
_geom_bond_site_symmetry_2
C1 C2 1_555 1_555
C2 C3 1_555 1_555
C3 C4 1_555 1_555
C4 C22 1_555 1_555
N1 C5 1_555 1_555
C5 H1 1_555 1_555
C6 C5 1_555 1_555
H2 C6 1_555 1_555
C7 C1 1_555 1_555
C8 C7 1_555 1_555
H3 C8 1_555 1_555
C9 N1 1_555 1_555
H4 C9 1_555 1_555
N2 C10 1_555 1_555
C10 H5 1_555 1_555
C11 C10 1_555 1_555
H6 C11 1_555 1_555
C12 C2 1_555 1_555
C13 C12 1_555 1_555
H7 C13 1_555 1_555
C14 N2 1_555 1_555
H8 C14 1_555 1_555
N3 C15 1_555 1_555
C15 H9 1_555 1_555
C16 C15 1_555 1_555
H10 C16 1_555 1_555
C17 C3 1_555 1_555
C18 C17 1_555 1_555
H11 C18 1_555 1_555
C19 N3 1_555 1_555
H12 C19 1_555 1_555
N4 C20 1_555 1_555
C20 H13 1_555 1_555
C21 C20 1_555 1_555
H14 C21 1_555 1_555
C22 C21 1_555 1_555
C23 C22 1_555 1_555
H15 C23 1_555 1_555
C24 N4 1_555 1_555
H16 C24 1_555 1_555
C25 N5 1_555 1_555
Co1 N1 1_555 1_555
N5 Co1 1_555 1_555
S1 C1 1_555 1_555
S2 C25 1_555 1_555
O2 H17 1_555 1_555
C1_2 C2_2 1_555 1_555
C2_2 C3_2 1_555 1_555
C3_2 C4_2 1_555 1_555
C4_2 C22_2 1_555 1_555
N1_2 C5_2 1_555 1_555
N1A Co1 1_555 1_555
C5_2 H1_2 1_555 1_555
C6_2 C5_2 1_555 1_555
H2_2 C6_2 1_555 1_555
C7_2 C1_2 1_555 1_555
C8_2 C7_2 1_555 1_555
H3_2 C8_2 1_555 1_555
C9_2 N1_2 1_555 1_555
H4_2 C9_2 1_555 1_555
N2_2 Co1 1_555 1_555
N2A Co1 1_555 1_555
C10_2 N2_2 1_555 1_555
H5_2 C10_2 1_555 1_555
C11_2 C10_2 1_555 1_555
H6_2 C11_2 1_555 1_555
C12_2 C2_2 1_555 1_555
C13_2 C12_2 1_555 1_555
H7_2 C13_2 1_555 1_555
C14_2 N2_2 1_555 1_555
H8_2 C14_2 1_555 1_555
N3_2 C15_2 1_555 1_555
C15_2 H9_2 1_555 1_555
C16_2 C15_2 1_555 1_555
H10_2 C16_2 1_555 1_555
C17_2 C3_2 1_555 1_555
C18_2 C17_2 1_555 1_555
H11_2 C18_2 1_555 1_555
C19_2 N3_2 1_555 1_555
H12_2 C19_2 1_555 1_555
N4_2 C20_2 1_555 1_555
C20_2 H13_2 1_555 1_555
C21_2 C20_2 1_555 1_555
H14_2 C21_2 1_555 1_555
C22_2 C21_2 1_555 1_555
C23_2 C22_2 1_555 1_555
H15_2 C23_2 1_555 1_555
C24_2 N4_2 1_555 1_555
H16_2 C24_2 1_555 1_555
C25A N5A 1_555 1_555
Co1_2 N2 1_555 1_555
Co1_3 N1_2 1_555 1_555
N5A Co1 1_555 1_555
S1_2 C1_2 1_555 1_555
S2A C25A 1_555 1_555
H17A O2 1_555 1_555
C4 S1 1_555 1_555
C6 C7 1_555 1_555
C8 C9 1_555 1_555
C11 C12 1_555 1_555
C13 C14 1_555 1_555
C16 C17 1_555 1_555
C18 C19 1_555 1_555
C23 C24 1_555 1_555
C4_2 S1_2 1_555 1_555
C6_2 C7_2 1_555 1_555
C8_2 C9_2 1_555 1_555
C11_2 C12_2 1_555 1_555
C13_2 C14_2 1_555 1_555
C16_2 C17_2 1_555 1_555
C18_2 C19_2 1_555 1_555
C23_2 C24_2 1_555 1_555

#END
