
#######################################################################
#
#                 Cambridge Crystallographic Data Centre
#                                CCDC 
#
#######################################################################
#
# If this CIF has been generated from an entry in the Cambridge 
# Structural Database, then it will include bibliographic, chemical, 
# crystal, experimental, refinement or atomic coordinate data resulting 
# from the CCDC's data processing and validation procedures.
#
#######################################################################

data_IZIPEM
_symmetry_cell_setting           monoclinic
_symmetry_space_group_name_H-M   'P 21'
_symmetry_Int_Tables_number      4
_space_group_name_Hall           'P 2yb'
loop_
_symmetry_equiv_pos_site_id
_symmetry_equiv_pos_as_xyz
1 x,y,z
2 -x,1/2+y,-z
_cell_length_a                   13.921(7)
_cell_length_b                   12.129(7)
_cell_length_c                   17.426(9)
_cell_angle_alpha                90
_cell_angle_beta                 93.24(4)
_cell_angle_gamma                90
_cell_volume                     2937.64
loop_
_atom_site_label
_atom_site_type_symbol
_atom_site_fract_x
_atom_site_fract_y
_atom_site_fract_z
Zn1 Zn 0.19327(4) -0.13172(10) 0.66656(3)
Zn2 Zn 0.62184(4) -0.14252(11) 0.68685(3)
O1 O 0.3023(2) -0.1318(8) 0.60276(18)
O2 O 0.2462(2) -0.1382(8) 0.48175(17)
O3 O 0.5258(3) -0.1376(10) 0.6032(2)
O5 O 0.4836(11) -0.3097(15) 0.6106(9)
N1 N 0.1842(4) 0.1468(4) 0.8017(3)
N2 N 0.2085(5) 0.0081(5) 0.7234(4)
N3 N 0.2531(4) 0.6445(4) 0.8408(3)
N4 N 0.2262(5) 0.7454(5) 0.7380(4)
N5 N 0.4704(3) 0.3256(4) 1.0917(3)
N6 N 0.4389(3) 0.3555(8) 1.2127(2)
N7 N -0.0554(2) -0.1447(7) 0.5266(2)
N8 N 0.0622(2) -0.1387(7) 0.61592(19)
N9 N 0.1742(5) -0.3951(6) 0.3025(5)
N10 N 0.2914(6) -0.5110(6) 0.3250(5)
N11 N 0.1673(5) 0.1147(6) 0.3052(4)
N12 N 0.2914(5) 0.2299(5) 0.3270(4)
C1 C 0.2151(6) 0.2926(6) 0.9004(5)
C2 C 0.2009(6) 0.4049(6) 0.8925(5)
C3 C 0.2654(7) 0.4789(8) 0.9236(5)
C4 C 0.3490(6) 0.4443(6) 0.9621(5)
C5 C 0.3665(6) 0.3302(6) 0.9683(4)
C6 C 0.2961(6) 0.2542(6) 0.9372(5)
C7 C 0.1472(5) 0.2105(7) 0.8668(4)
H1 H 0.0874 0.2488 0.8485
H2 H 0.1304 0.1582 0.9076
C8 C 0.1620(4) 0.0438(6) 0.7835(4)
H3 H 0.1180 0.0002 0.8101
C9 C 0.2635(6) 0.0963(6) 0.7007(5)
H4 H 0.3038 0.0982 0.6585
C10 C 0.2479(5) 0.1825(6) 0.7525(4)
H5 H 0.2772 0.2533 0.7526
C11 C 0.1080(5) 0.4499(6) 0.8500(4)
H6 H 0.1081 0.5306 0.8522
H7 H 0.0516 0.4214 0.8746
H8 H 0.1058 0.4261 0.7961
C12 C 0.2440(6) 0.6031(5) 0.9216(4)
H9 H 0.1782 0.6170 0.9379
H10 H 0.2901 0.6425 0.9572
C13 C 0.2043(5) 0.7293(5) 0.8090(4)
H11 H 0.1594 0.7726 0.8349
C14 C 0.2918(6) 0.6646(7) 0.7244(4)
H12 H 0.3213 0.6542 0.6770
C15 C 0.3083(5) 0.6031(6) 0.7861(4)
H13 H 0.3506 0.5418 0.7913
C16 C 0.4300(5) 0.5226(6) 0.9868(4)
H14 H 0.4404 0.5748 0.9451
H15 H 0.4891 0.4804 0.9984
H16 H 0.4129 0.5630 1.0327
C17 C 0.4570(4) 0.2904(6) 1.0123(4)
H17 H 0.4572 0.2088 1.0112
H18 H 0.5131 0.3157 0.9846
C18 C 0.4028(4) 0.3243(5) 1.1438(4)
H19 H 0.3377 0.3037 1.1328
C19 C 0.5357(4) 0.3694(12) 1.2033(3)
H20 H 0.5821 0.3849 1.2439
C20 C 0.5553(4) 0.3585(12) 1.1316(3)
H21 H 0.6158 0.3706 1.1105
C21 C 0.3209(5) 0.1317(6) 0.9455(4)
H22 H 0.2638 0.0874 0.9313
H23 H 0.3425 0.1160 0.9989
H24 H 0.3723 0.1133 0.9116
C22 C -0.0408(3) -0.1445(9) 0.3869(2)
C23 C -0.0031(6) -0.2418(6) 0.3584(5)
C24 C 0.0574(6) -0.2369(7) 0.2987(5)
C25 C 0.0892(3) -0.1354(9) 0.2702(2)
C26 C 0.0542(7) -0.0384(7) 0.3003(5)
C27 C -0.0121(5) -0.0417(6) 0.3574(4)
C28 C -0.1070(3) -0.1505(8) 0.4505(2)
H25 H -0.1536 -0.0889 0.4454
H26 H -0.1437 -0.2204 0.4465
C29 C 0.0402(3) -0.1435(7) 0.5418(3)
H27 H 0.0862 -0.1458 0.5036
C30 C -0.0232(3) -0.1394(9) 0.6507(3)
H28 H -0.0304 -0.1380 0.7045
C31 C -0.0957(4) -0.1425(10) 0.5960(3)
H29 H -0.1625 -0.1430 0.6043
C32 C -0.0317(7) -0.3491(7) 0.3953(5)
H30 H -0.0178 -0.3449 0.4509
H31 H 0.0048 -0.4099 0.3741
H32 H -0.1007 -0.3618 0.3846
C33 C 0.0876(6) -0.3455(7) 0.2628(5)
H33 H 0.0336 -0.3985 0.2640
H34 H 0.1007 -0.3324 0.2083
C34 C 0.2160(6) -0.4836(7) 0.2782(5)
H35 H 0.1955 -0.5233 0.2332
C35 C 0.2960(7) -0.4356(8) 0.3862(7)
H36 H 0.3384 -0.4357 0.4309
C36 C 0.2244(7) -0.3621(8) 0.3658(6)
H37 H 0.2122 -0.2962 0.3930
C37 C 0.1606(3) -0.1322(10) 0.2082(2)
H38 H 0.2096 -0.1891 0.2184
H39 H 0.1914 -0.0595 0.2079
H40 H 0.1271 -0.1459 0.1582
C38 C 0.0811(6) 0.0701(6) 0.2671(5)
H41 H 0.0914 0.0607 0.2117
H42 H 0.0275 0.1228 0.2719
C39 C 0.2197(7) 0.2024(7) 0.2808(5)
H43 H 0.2044 0.2398 0.2338
C40 C 0.2100(6) 0.0858(7) 0.3782(5)
H44 H 0.1926 0.0293 0.4125
C41 C 0.2809(7) 0.1589(7) 0.3859(5)
H45 H 0.3227 0.1613 0.4309
C42 C -0.0442(6) 0.0668(7) 0.3900(5)
H46 H 0.0110 0.1169 0.3959
H47 H -0.0705 0.0542 0.4402
H48 H -0.0937 0.0998 0.3549
C43 C 0.3115(4) -0.1402(15) 0.5320(3)
C46 C 0.4041(13) -0.1898(17) 0.5146(10)
H51 H 0.4349 -0.1397 0.4785
H52 H 0.3897 -0.2593 0.4864
C47 C 0.4795(15) -0.2166(19) 0.5799(14)
N4_2 N 0.2262(5) -0.2546(5) 0.7380(4)
N6A N 0.5611(3) -0.1445(8) 0.7873(2)
N10A N 0.7086(6) -0.0110(6) 0.6750(5)
N12A N 0.7086(5) -0.2701(5) 0.6730(4)
Zn1_2 Zn 0.19327(4) 0.86828(10) 0.66656(3)
Zn2A Zn 0.37816(4) 0.35748(11) 1.31315(3)
Zn2A_2 Zn 0.37816(4) -0.64252(11) 0.31315(3)
Zn2A_3 Zn 0.37816(4) 0.35748(11) 0.31315(3)
O6 O 0.0003(3) -0.1191(7) 0.8313(2)
O7 O -0.1549(3) -0.1514(7) 0.8623(2)
O8 O 0.1266(3) -0.1463(8) 0.9894(3)
O9 O 0.0730(4) 0.0281(5) 0.9854(3)
C48 C -0.0631(5) -0.1296(12) 0.8770(3)
C49 C -0.0401(4) -0.1204(10) 0.9604(3)
H53 H -0.0449 -0.1942 0.9842
H54 H -0.0880 -0.0719 0.9833
C50 C 0.0624(5) -0.0732(7) 0.9791(5)
O11 O 0.4517(11) 0.0890(16) 0.5595(10)
O12 O 0.3914(18) 0.2350(18) 0.5911(15)
O13 O 0.3584(11) -0.5227(19) 0.5631(9)
O14 O 0.1812(4) 0.1253(5) 1.0997(3)
O15 O 0.4506(6) 0.0226(7) 0.2840(4)
O16 O 0.3704(6) 0.0446(7) 0.1326(4)
O17 O 0.0803(4) 0.6596(4) 0.0634(3)
O18 O 0.2396(5) 0.5588(6) 0.1028(4)
O19 O 0.3684(9) 0.6903(9) 0.1500(7)
O20 O 0.3166(3) 0.8605(8) 0.0409(2)
O21 O 0.3379(4) 0.8644(9) 0.3350(3)
O22 O 0.4562(10) 0.6929(13) 0.2731(9)
O23 O 0.5818(7) 0.8507(14) 0.2837(8)
O4? O 0.4874(9) 0.0165(12) 0.6070(11)
O10? O 0.4641(12) -0.3785(14) 0.5731(11)
C44? C 0.4121(14) -0.087(2) 0.5023(12)
H49? H 0.4396 -0.1363 0.4637
H50? H 0.3997 -0.0142 0.4786
C45? C 0.4821(16) -0.076(2) 0.5731(13)
loop_
_geom_bond_atom_site_label_1
_geom_bond_atom_site_label_2
_geom_bond_site_symmetry_1
_geom_bond_site_symmetry_2
Zn1 O1 1_555 1_555
Zn2 O3 1_555 1_555
O1 C43 1_555 1_555
O2 C43 1_555 1_555
O3 C47 1_555 1_555
O5 C47 1_555 1_555
O6 C48 1_555 1_555
O7 C48 1_555 1_555
O8 C50 1_555 1_555
O9 C50 1_555 1_555
N1 C7 1_555 1_555
N2 Zn1 1_555 1_555
N3 C12 1_555 1_555
N4 C13 1_555 1_555
N5 C17 1_555 1_555
N6 C18 1_555 1_555
N7 C28 1_555 1_555
N8 Zn1 1_555 1_555
N9 C33 1_555 1_555
N10 C34 1_555 1_555
N11 C38 1_555 1_555
N12 C39 1_555 1_555
C1 C2 1_555 1_555
C2 C3 1_555 1_555
C3 C4 1_555 1_555
C4 C5 1_555 1_555
C5 C6 1_555 1_555
C6 C1 1_555 1_555
C7 C1 1_555 1_555
H1 C7 1_555 1_555
H2 C7 1_555 1_555
C8 N1 1_555 1_555
H3 C8 1_555 1_555
C9 N2 1_555 1_555
H4 C9 1_555 1_555
C10 N1 1_555 1_555
H5 C10 1_555 1_555
C11 C2 1_555 1_555
H6 C11 1_555 1_555
H7 C11 1_555 1_555
H8 C11 1_555 1_555
C12 C3 1_555 1_555
H9 C12 1_555 1_555
H10 C12 1_555 1_555
C13 N3 1_555 1_555
H11 C13 1_555 1_555
C14 N4 1_555 1_555
H12 C14 1_555 1_555
C15 N3 1_555 1_555
H13 C15 1_555 1_555
C16 C4 1_555 1_555
H14 C16 1_555 1_555
H15 C16 1_555 1_555
H16 C16 1_555 1_555
C17 C5 1_555 1_555
H17 C17 1_555 1_555
H18 C17 1_555 1_555
C18 N5 1_555 1_555
H19 C18 1_555 1_555
C19 N6 1_555 1_555
H20 C19 1_555 1_555
C20 N5 1_555 1_555
H21 C20 1_555 1_555
C21 C6 1_555 1_555
H22 C21 1_555 1_555
H23 C21 1_555 1_555
H24 C21 1_555 1_555
C22 C23 1_555 1_555
C23 C24 1_555 1_555
C24 C25 1_555 1_555
C25 C26 1_555 1_555
C26 C27 1_555 1_555
C27 C22 1_555 1_555
C28 C22 1_555 1_555
H25 C28 1_555 1_555
H26 C28 1_555 1_555
C29 N7 1_555 1_555
H27 C29 1_555 1_555
C30 N8 1_555 1_555
H28 C30 1_555 1_555
C31 N7 1_555 1_555
H29 C31 1_555 1_555
C32 C23 1_555 1_555
H30 C32 1_555 1_555
H31 C32 1_555 1_555
H32 C32 1_555 1_555
C33 C24 1_555 1_555
H33 C33 1_555 1_555
H34 C33 1_555 1_555
C34 N9 1_555 1_555
H35 C34 1_555 1_555
C35 N10 1_555 1_555
H36 C35 1_555 1_555
C36 N9 1_555 1_555
H37 C36 1_555 1_555
C37 C25 1_555 1_555
H38 C37 1_555 1_555
H39 C37 1_555 1_555
H40 C37 1_555 1_555
C38 C26 1_555 1_555
H41 C38 1_555 1_555
H42 C38 1_555 1_555
C39 N11 1_555 1_555
H43 C39 1_555 1_555
C40 N11 1_555 1_555
H44 C40 1_555 1_555
C41 N12 1_555 1_555
H45 C41 1_555 1_555
C42 C27 1_555 1_555
H46 C42 1_555 1_555
H47 C42 1_555 1_555
H48 C42 1_555 1_555
C43 C46 1_555 1_555
C46 H51 1_555 1_555
H52 C46 1_555 1_555
C47 C46 1_555 1_555
C48 C49 1_555 1_555
C49 H53 1_555 1_555
H54 C49 1_555 1_555
C50 C49 1_555 1_555
N4_2 Zn1 1_555 1_555
N6A Zn2 1_555 1_555
N10A Zn2 1_555 1_555
N12A Zn2 1_555 1_555
Zn1_2 N4 1_555 1_555
Zn2A N6 1_555 1_555
Zn2A_2 N10 1_555 1_555
Zn2A_3 N12 1_555 1_555
N2 C8 1_555 1_555
N8 C29 1_555 1_555
C9 C10 1_555 1_555
C14 C15 1_555 1_555
C19 C20 1_555 1_555
C30 C31 1_555 1_555
C35 C36 1_555 1_555
C40 C41 1_555 1_555

#END
