
#######################################################################
#
#                 Cambridge Crystallographic Data Centre
#                                CCDC 
#
#######################################################################
#
# If this CIF has been generated from an entry in the Cambridge 
# Structural Database, then it will include bibliographic, chemical, 
# crystal, experimental, refinement or atomic coordinate data resulting 
# from the CCDC's data processing and validation procedures.
#
#######################################################################

data_IZIQOX
_symmetry_cell_setting           triclinic
_symmetry_space_group_name_H-M   'P -1'
_symmetry_Int_Tables_number      2
_space_group_name_Hall           '-P 1'
loop_
_symmetry_equiv_pos_site_id
_symmetry_equiv_pos_as_xyz
1 x,y,z
2 -x,-y,-z
_cell_length_a                   7.676(5)
_cell_length_b                   9.217(6)
_cell_length_c                   12.851(9)
_cell_angle_alpha                100.70(5)
_cell_angle_beta                 103.16(6)
_cell_angle_gamma                94.15(6)
_cell_volume                     863.667
loop_
_atom_site_label
_atom_site_type_symbol
_atom_site_fract_x
_atom_site_fract_y
_atom_site_fract_z
Co1 Co 0.0000 0.5000 0.5000
Cl1 Cl -0.22372(6) 0.37140(5) 0.57034(4)
N1 N 0.2568(2) 1.08129(18) 0.75398(14)
N2 N 1.1745(2) 1.31327(19) 1.11281(14)
N3 N -0.0980(2) 0.70913(17) 0.55182(13)
N4 N 1.7970(2) 1.45986(17) 1.33214(14)
C1 C 0.5731(3) 1.1601(2) 0.83086(16)
C2 C 0.7151(3) 1.2694(2) 0.83930(17)
H1 H 0.7034 1.3341 0.7892
C3 C 0.8727(3) 1.2836(2) 0.92063(17)
H2 H 0.9684 1.3582 0.9262
C4 C 0.8909(3) 1.1891(2) 0.99413(17)
C5 C 0.7526(3) 1.0754(2) 0.98179(19)
H3 H 0.7668 1.0075 1.0296
C6 C 0.5951(3) 1.0606(2) 0.90081(18)
H4 H 0.5021 0.9826 0.8929
C7 C 0.3986(3) 1.1607(2) 0.75380(16)
H5 H 0.3922 1.2229 0.7021
C8 C 0.0885(3) 1.1099(2) 0.68472(18)
H6 H 0.1171 1.1592 0.6275
H7 H 0.0288 1.1793 0.7298
C9 C 0.0156(2) 0.8329(2) 0.60291(16)
H8 H 0.1412 0.8251 0.6210
C10 C -0.0411(3) 0.9714(2) 0.63065(16)
C11 C -0.2256(3) 0.9822(2) 0.60146(17)
H9 H -0.2696 1.0754 0.6172
C12 C -0.3434(3) 0.8555(2) 0.54934(17)
H10 H -0.4695 0.8604 0.5294
C13 C -0.2755(3) 0.7216(2) 0.52665(16)
H11 H -0.3575 0.6348 0.4919
C14 C 1.0458(3) 1.2093(2) 1.08955(17)
H12 H 1.0493 1.1404 1.1364
C15 C 1.3048(3) 1.3214(2) 1.21657(17)
H13 H 1.3055 1.2208 1.2332
H14 H 1.2652 1.3864 1.2751
C16 C 1.6239(3) 1.4052(2) 1.31729(17)
H15 H 1.5871 1.3820 1.3786
C17 C 1.4947(3) 1.3801(2) 1.21802(17)
C18 C 1.5478(3) 1.4128(2) 1.12851(17)
H16 H 1.4644 1.3967 1.0592
C19 C 1.7256(3) 1.4698(3) 1.14193(18)
H17 H 1.7650 1.4941 1.0817
C20 C 1.8454(3) 1.4912(2) 1.24325(17)
H18 H 1.9669 1.5296 1.2507
Cl1A Cl 0.22372(6) 0.62860(5) 0.42966(4)
N1A N -0.2568(2) -0.08129(18) 0.24602(14)
N2A N -1.1745(2) -0.31327(19) -0.11281(14)
N3A N 0.0980(2) 0.29087(17) 0.44818(13)
N4A N -1.7970(2) -0.45986(17) -0.33214(14)
C1A C -0.5731(3) -0.1601(2) 0.16914(16)
C2A C -0.7151(3) -0.2694(2) 0.16070(17)
H1A H -0.7034 -0.3341 0.2108
C3A C -0.8727(3) -0.2836(2) 0.07937(17)
H2A H -0.9684 -0.3582 0.0738
C4A C -0.8909(3) -0.1891(2) 0.00587(17)
C5A C -0.7526(3) -0.0754(2) 0.01821(19)
H3A H -0.7668 -0.0075 -0.0296
C6A C -0.5951(3) -0.0606(2) 0.09919(18)
H4A H -0.5021 0.0174 0.1071
C7A C -0.3986(3) -0.1607(2) 0.24620(16)
H5A H -0.3922 -0.2229 0.2979
C8A C -0.0885(3) -0.1099(2) 0.31528(18)
H6A H -0.1171 -0.1592 0.3725
H7A H -0.0288 -0.1793 0.2702
C9A C -0.0156(2) 0.1671(2) 0.39709(16)
H8A H -0.1412 0.1749 0.3790
C10A C 0.0411(3) 0.0286(2) 0.36935(16)
C11A C 0.2256(3) 0.0178(2) 0.39854(17)
H9A H 0.2696 -0.0754 0.3828
C12A C 0.3434(3) 0.1445(2) 0.45066(17)
H10A H 0.4695 0.1396 0.4706
C13A C 0.2755(3) 0.2784(2) 0.47335(16)
H11A H 0.3575 0.3652 0.5081
C14A C -1.0458(3) -0.2093(2) -0.08955(17)
H12A H -1.0493 -0.1404 -0.1364
C15A C -1.3048(3) -0.3214(2) -0.21657(17)
H13A H -1.3055 -0.2208 -0.2332
H14A H -1.2652 -0.3864 -0.2751
C16A C -1.6239(3) -0.4052(2) -0.31729(17)
H15A H -1.5871 -0.3820 -0.3786
C17A C -1.4947(3) -0.3801(2) -0.21802(17)
C18A C -1.5478(3) -0.4128(2) -0.12851(17)
H16A H -1.4644 -0.3967 -0.0592
C19A C -1.7256(3) -0.4698(3) -0.14193(18)
H17A H -1.7650 -0.4941 -0.0817
C20A C -1.8454(3) -0.4912(2) -0.24325(17)
H18A H -1.9669 -0.5296 -0.2507
N4_2 N -0.2030(2) 0.45986(17) 0.33214(14)
N4A_2 N 0.2030(2) 0.54014(17) 0.66786(14)
Co1_2 Co 2.0000 1.5000 1.5000
Co1_3 Co -2.0000 -0.5000 -0.5000
loop_
_geom_bond_atom_site_label_1
_geom_bond_atom_site_label_2
_geom_bond_site_symmetry_1
_geom_bond_site_symmetry_2
Co1 Cl1 1_555 1_555
N1 C7 1_555 1_555
N2 C14 1_555 1_555
N3 Co1 1_555 1_555
N4 C16 1_555 1_555
C1 C2 1_555 1_555
C2 H1 1_555 1_555
C3 C2 1_555 1_555
H2 C3 1_555 1_555
C4 C3 1_555 1_555
C5 C4 1_555 1_555
H3 C5 1_555 1_555
C6 C1 1_555 1_555
H4 C6 1_555 1_555
C7 C1 1_555 1_555
H5 C7 1_555 1_555
C8 N1 1_555 1_555
H6 C8 1_555 1_555
H7 C8 1_555 1_555
C9 N3 1_555 1_555
H8 C9 1_555 1_555
C10 C8 1_555 1_555
C11 C10 1_555 1_555
H9 C11 1_555 1_555
C12 C11 1_555 1_555
H10 C12 1_555 1_555
C13 N3 1_555 1_555
H11 C13 1_555 1_555
C14 C4 1_555 1_555
H12 C14 1_555 1_555
C15 N2 1_555 1_555
H13 C15 1_555 1_555
H14 C15 1_555 1_555
C16 H15 1_555 1_555
C17 C15 1_555 1_555
C18 C17 1_555 1_555
H16 C18 1_555 1_555
C19 C18 1_555 1_555
H17 C19 1_555 1_555
C20 N4 1_555 1_555
H18 C20 1_555 1_555
Cl1A Co1 1_555 1_555
N1A C7A 1_555 1_555
N2A C14A 1_555 1_555
N3A Co1 1_555 1_555
N4A C16A 1_555 1_555
C1A C2A 1_555 1_555
C2A H1A 1_555 1_555
C3A C2A 1_555 1_555
H2A C3A 1_555 1_555
C4A C3A 1_555 1_555
C5A C4A 1_555 1_555
H3A C5A 1_555 1_555
C6A C1A 1_555 1_555
H4A C6A 1_555 1_555
C7A C1A 1_555 1_555
H5A C7A 1_555 1_555
C8A N1A 1_555 1_555
H6A C8A 1_555 1_555
H7A C8A 1_555 1_555
C9A N3A 1_555 1_555
H8A C9A 1_555 1_555
C10A C8A 1_555 1_555
C11A C10A 1_555 1_555
H9A C11A 1_555 1_555
C12A C11A 1_555 1_555
H10A C12A 1_555 1_555
C13A N3A 1_555 1_555
H11A C13A 1_555 1_555
C14A C4A 1_555 1_555
H12A C14A 1_555 1_555
C15A N2A 1_555 1_555
H13A C15A 1_555 1_555
H14A C15A 1_555 1_555
C16A H15A 1_555 1_555
C17A C15A 1_555 1_555
C18A C17A 1_555 1_555
H16A C18A 1_555 1_555
C19A C18A 1_555 1_555
H17A C19A 1_555 1_555
C20A N4A 1_555 1_555
H18A C20A 1_555 1_555
N4_2 Co1 1_555 1_555
N4A_2 Co1 1_555 1_555
Co1_2 N4 1_555 1_555
Co1_3 N4A 1_555 1_555
C5 C6 1_555 1_555
C9 C10 1_555 1_555
C12 C13 1_555 1_555
C16 C17 1_555 1_555
C19 C20 1_555 1_555
C5A C6A 1_555 1_555
C9A C10A 1_555 1_555
C12A C13A 1_555 1_555
C16A C17A 1_555 1_555
C19A C20A 1_555 1_555

#END
