
#######################################################################
#
#                 Cambridge Crystallographic Data Centre
#                                CCDC 
#
#######################################################################
#
# If this CIF has been generated from an entry in the Cambridge 
# Structural Database, then it will include bibliographic, chemical, 
# crystal, experimental, refinement or atomic coordinate data resulting 
# from the CCDC's data processing and validation procedures.
#
#######################################################################

data_IZIRAK
_symmetry_cell_setting           monoclinic
_symmetry_space_group_name_H-M   'P 21/a'
_symmetry_Int_Tables_number      14
_space_group_name_Hall           '-P 2yab'
loop_
_symmetry_equiv_pos_site_id
_symmetry_equiv_pos_as_xyz
1 x,y,z
2 1/2+x,1/2-y,z
3 -x,-y,-z
4 1/2-x,1/2+y,-z
_cell_length_a                   11.538(11)
_cell_length_b                   13.511(11)
_cell_length_c                   12.384(11)
_cell_angle_alpha                90
_cell_angle_beta                 108.00(7)
_cell_angle_gamma                90
_cell_volume                     1836.05
loop_
_atom_site_label
_atom_site_type_symbol
_atom_site_fract_x
_atom_site_fract_y
_atom_site_fract_z
Cd1 Cd 0.747777(17) 0.427473(13) 0.705419(18)
O1 O 0.7392(2) 0.47850(16) 0.8782(2)
O2 O 0.53596(18) 0.37991(14) 0.68156(18)
O3 O 0.55959(19) 0.52772(15) 0.6241(2)
O4 O 0.38199(18) 0.47926(17) 0.6289(2)
O5 O 0.7909(2) 0.26832(15) 0.7949(2)
O6 O 0.9461(2) 0.36392(18) 0.8166(2)
O7 O 0.9650(3) 0.2300(2) 0.9170(2)
N1 N 0.73653(18) 0.35447(14) 0.53197(19)
H1 H 0.6999 0.3997 0.4750
N2 N 0.6959(3) 0.4688(3) 1.0409(3)
N3 N 0.4903(2) 0.46244(17) 0.6444(2)
N4 N 0.9027(3) 0.2862(2) 0.8444(2)
N5 N 0.65751(19) 0.07680(16) 0.29649(19)
C1 C 0.9301(2) 0.41718(18) 0.5101(2)
C2 C 1.0324(2) 0.44500(17) 0.5996(2)
H2 H 1.0554 0.4077 0.6680
C3 C 0.8996(2) 0.47280(18) 0.4114(2)
H3 H 0.8306 0.4544 0.3498
C4 C 0.8564(2) 0.32721(17) 0.5195(3)
H4 H 0.8433 0.2858 0.4508
H5 H 0.9028 0.2874 0.5859
C5 C 0.6545(2) 0.26679(19) 0.5168(3)
H6 H 0.5774 0.2881 0.5290
H7 H 0.6932 0.2177 0.5765
C6 C 0.6812(2) 0.12814(18) 0.3932(2)
H8 H 0.7404 0.1025 0.4588
C7 C 0.6245(2) 0.21648(18) 0.4034(2)
C8 C 0.5395(3) 0.25312(19) 0.3075(3)
H9 H 0.4985 0.3135 0.3107
C9 C 0.5142(3) 0.2012(2) 0.2063(3)
H10 H 0.4556 0.2252 0.1394
C10 C 0.5760(3) 0.1135(2) 0.2047(3)
H11 H 0.5593 0.0783 0.1351
C11 C 0.6905(4) 0.4376(3) 0.9392(3)
H12 H 0.6452 0.3792 0.9118
C12 C 0.7676(5) 0.5522(3) 1.0904(4)
H13 H 0.8501 0.5305 1.1329
H14 H 0.7306 0.5855 1.1420
H15 H 0.7714 0.5983 1.0304
C13 C 0.6387(8) 0.4161(7) 1.1123(5)
H16 H 0.6038 0.3541 1.0752
H17 H 0.5739 0.4570 1.1247
H18 H 0.6996 0.4013 1.1854
C3B C 1.1004(2) 0.52720(18) 0.5886(2)
C1B C 1.0699(2) 0.58282(18) 0.4899(2)
C2B C 0.9676(2) 0.55500(17) 0.4004(2)
H2B H 0.9446 0.5923 0.3320
C4B C 1.1436(2) 0.67279(17) 0.4805(3)
N1B N 1.26347(18) 0.64553(14) 0.46803(19)
H1B H 1.3001 0.6003 0.5250
C5B C 1.3455(2) 0.73321(19) 0.4832(3)
H6B H 1.4226 0.7119 0.4710
H7B H 1.3068 0.7823 0.4235
C7B C 1.3755(2) 0.78352(18) 0.5966(2)
C6B C 1.3188(2) 0.87186(18) 0.6068(2)
N5B N 1.34249(19) 0.92320(16) 0.70351(19)
C10B C 1.4240(3) 0.8865(2) 0.7953(3)
C9B C 1.4858(3) 0.7988(2) 0.7937(3)
C8B C 1.4605(3) 0.74688(19) 0.6925(3)
H9B H 1.5015 0.6865 0.6893
H10B H 1.5444 0.7748 0.8606
H11B H 1.4407 0.9217 0.8649
H8B H 1.2596 0.8975 0.5412
H4B H 1.1567 0.7142 0.5492
H5B H 1.0972 0.7126 0.4141
H3B H 1.1694 0.5456 0.6502
Cd1B Cd 1.252223(17) 0.572527(13) 0.294581(18)
O1B O 1.2608(2) 0.52150(16) 0.1218(2)
N2B N 1.3041(3) 0.5312(3) -0.0409(3)
C11B C 1.3095(4) 0.5624(3) 0.0608(3)
H12B H 1.3548 0.6208 0.0882
C12B C 1.2324(5) 0.4478(3) -0.0904(4)
H13B H 1.1499 0.4695 -0.1329
H14B H 1.2694 0.4145 -0.1420
H15B H 1.2286 0.4017 -0.0304
C13B C 1.3613(8) 0.5839(7) -0.1123(5)
H16B H 1.3962 0.6459 -0.0752
H17B H 1.4261 0.5430 -0.1247
H18B H 1.3004 0.5987 -0.1854
O2B O 1.46404(18) 0.62009(14) 0.31844(18)
O3B O 1.44041(19) 0.47228(15) 0.3759(2)
O4B O 1.61801(18) 0.52074(17) 0.3711(2)
N3B N 1.5097(2) 0.53756(17) 0.3556(2)
O5B O 1.2091(2) 0.73168(15) 0.2051(2)
O6B O 1.0539(2) 0.63608(18) 0.1834(2)
O7B O 1.0350(3) 0.7700(2) 0.0830(2)
N4B N 1.0973(3) 0.7138(2) 0.1556(2)
N5C N 0.84249(19) 0.57680(16) 0.70351(19)
Cd1C Cd 0.752223(17) -0.072527(13) 0.294581(18)
Cd1A Cd 1.247777(17) 1.072527(13) 0.705419(18)
N5A N 1.15751(19) 0.42320(16) 0.29649(19)
loop_
_geom_bond_atom_site_label_1
_geom_bond_atom_site_label_2
_geom_bond_site_symmetry_1
_geom_bond_site_symmetry_2
Cd1 O1 1_555 1_555
O1 C11 1_555 1_555
O2 Cd1 1_555 1_555
O3 Cd1 1_555 1_555
O4 N3 1_555 1_555
O5 Cd1 1_555 1_555
O6 Cd1 1_555 1_555
O7 N4 1_555 1_555
N1 Cd1 1_555 1_555
H1 N1 1_555 1_555
N2 C11 1_555 1_555
N3 O2 1_555 1_555
N4 O5 1_555 1_555
N5 C6 1_555 1_555
C1 C2 1_555 1_555
C2 H2 1_555 1_555
C3 C1 1_555 1_555
H3 C3 1_555 1_555
C4 N1 1_555 1_555
H4 C4 1_555 1_555
H5 C4 1_555 1_555
C5 N1 1_555 1_555
H6 C5 1_555 1_555
H7 C5 1_555 1_555
C6 H8 1_555 1_555
C7 C5 1_555 1_555
C8 C7 1_555 1_555
H9 C8 1_555 1_555
C9 C8 1_555 1_555
H10 C9 1_555 1_555
C10 N5 1_555 1_555
H11 C10 1_555 1_555
C11 H12 1_555 1_555
C12 N2 1_555 1_555
H13 C12 1_555 1_555
H14 C12 1_555 1_555
H15 C12 1_555 1_555
C13 N2 1_555 1_555
H16 C13 1_555 1_555
H17 C13 1_555 1_555
H18 C13 1_555 1_555
C3B C2 1_555 1_555
C1B C3B 1_555 1_555
C2B C3 1_555 1_555
H2B C2B 1_555 1_555
C4B C1B 1_555 1_555
N1B C4B 1_555 1_555
H1B N1B 1_555 1_555
C5B N1B 1_555 1_555
H6B C5B 1_555 1_555
H7B C5B 1_555 1_555
C7B C5B 1_555 1_555
C6B C7B 1_555 1_555
N5B C6B 1_555 1_555
C10B N5B 1_555 1_555
C9B C10B 1_555 1_555
C8B C7B 1_555 1_555
H9B C8B 1_555 1_555
H10B C9B 1_555 1_555
H11B C10B 1_555 1_555
H8B C6B 1_555 1_555
H4B C4B 1_555 1_555
H5B C4B 1_555 1_555
H3B C3B 1_555 1_555
Cd1B N1B 1_555 1_555
O1B Cd1B 1_555 1_555
N2B C11B 1_555 1_555
C11B O1B 1_555 1_555
H12B C11B 1_555 1_555
C12B N2B 1_555 1_555
H13B C12B 1_555 1_555
H14B C12B 1_555 1_555
H15B C12B 1_555 1_555
C13B N2B 1_555 1_555
H16B C13B 1_555 1_555
H17B C13B 1_555 1_555
H18B C13B 1_555 1_555
O2B Cd1B 1_555 1_555
O3B Cd1B 1_555 1_555
O4B N3B 1_555 1_555
N3B O2B 1_555 1_555
O5B Cd1B 1_555 1_555
O6B Cd1B 1_555 1_555
O7B N4B 1_555 1_555
N4B O5B 1_555 1_555
N5C Cd1 1_555 1_555
Cd1C N5 1_555 1_555
Cd1A N5B 1_555 1_555
N5A Cd1B 1_555 1_555
O3 N3 1_555 1_555
O6 N4 1_555 1_555
C1 C4 1_555 1_555
C6 C7 1_555 1_555
C9 C10 1_555 1_555
C1B C2B 1_555 1_555
C9B C8B 1_555 1_555
O3B N3B 1_555 1_555
O6B N4B 1_555 1_555

#END
