
#######################################################################
#
#                 Cambridge Crystallographic Data Centre
#                                CCDC 
#
#######################################################################
#
# If this CIF has been generated from an entry in the Cambridge 
# Structural Database, then it will include bibliographic, chemical, 
# crystal, experimental, refinement or atomic coordinate data resulting 
# from the CCDC's data processing and validation procedures.
#
#######################################################################

data_IZISAM
_symmetry_cell_setting           orthorhombic
_symmetry_space_group_name_H-M   'P c c n'
_symmetry_Int_Tables_number      56
_space_group_name_Hall           '-P 2ab 2ac'
loop_
_symmetry_equiv_pos_site_id
_symmetry_equiv_pos_as_xyz
1 x,y,z
2 1/2-x,1/2-y,z
3 -x,1/2+y,1/2-z
4 1/2+x,-y,1/2-z
5 -x,-y,-z
6 1/2+x,1/2+y,-z
7 x,1/2-y,1/2+z
8 1/2-x,y,1/2+z
_cell_length_a                   22.7583(15)
_cell_length_b                   23.0731(15)
_cell_length_c                   16.3886(10)
_cell_angle_alpha                90
_cell_angle_beta                 90
_cell_angle_gamma                90
_cell_volume                     8605.73
loop_
_atom_site_label
_atom_site_type_symbol
_atom_site_fract_x
_atom_site_fract_y
_atom_site_fract_z
Cu1 Cu 0.7500 0.7500 0.63913(8)
Cu2 Cu 0.2500 0.7500 0.65315(8)
Si1 Si 0.46204(10) 0.66384(11) 0.81405(16)
Si2 Si 0.52843(10) 0.84637(11) 0.74716(16)
Si3 Si 0.84271(11) 0.53535(11) 0.51463(16)
Si4 Si 0.65742(10) 0.46895(10) 0.45488(15)
N1 N 0.2906(3) 0.7030(3) 0.7416(4)
N2 N 0.7026(3) 0.7924(3) 0.7253(4)
N3 N 0.7947(3) 0.7069(3) 0.5505(4)
N4 N 0.7074(3) 0.2962(3) 0.4323(4)
C1 C 0.3496(3) 0.6998(3) 0.7476(5)
H1 H 0.3722 0.7201 0.7081
C2 C 0.2590(4) 0.6738(4) 0.7974(5)
H2 H 0.2174 0.6752 0.7938
C3 C 0.2835(4) 0.6422(4) 0.8588(6)
H3 H 0.2593 0.6223 0.8969
C4 C 0.3444(4) 0.6394(4) 0.8647(5)
H4 H 0.3622 0.6177 0.9074
C5 C 0.3798(3) 0.6690(3) 0.8073(5)
C6 C 0.4969(4) 0.7260(4) 0.7579(6)
H5 H 0.5401 0.7203 0.7582
H6 H 0.4838 0.7247 0.7004
C7 C 0.4835(4) 0.7867(4) 0.7922(6)
H7 H 0.4901 0.7861 0.8520
H8 H 0.4415 0.7954 0.7829
C8 C 0.6093(3) 0.8332(3) 0.7688(5)
C9 C 0.6439(4) 0.7991(3) 0.7178(5)
H9 H 0.6248 0.7792 0.6745
C10 C 0.7287(4) 0.8191(4) 0.7878(5)
H10 H 0.7700 0.8153 0.7937
C11 C 0.6987(4) 0.8517(4) 0.8437(6)
H11 H 0.7187 0.8687 0.8886
C12 C 0.6380(4) 0.8595(4) 0.8338(5)
H12 H 0.6167 0.8827 0.8714
C13 C 0.4808(4) 0.6669(5) 0.9247(6)
H13 H 0.5235 0.6643 0.9314
H14 H 0.4620 0.6344 0.9531
H15 H 0.4667 0.7035 0.9478
C14 C 0.4851(4) 0.5936(4) 0.7692(8)
H16 H 0.5280 0.5902 0.7720
H17 H 0.4724 0.5918 0.7121
H18 H 0.4671 0.5618 0.7999
C15 C 0.5188(4) 0.8479(5) 0.6342(6)
H19 H 0.5426 0.8792 0.6110
H20 H 0.4773 0.8546 0.6211
H21 H 0.5313 0.8108 0.6110
C16 C 0.5075(4) 0.9169(4) 0.7942(7)
H22 H 0.5312 0.9480 0.7703
H23 H 0.5144 0.9152 0.8531
H24 H 0.4658 0.9245 0.7838
C17 C 0.8208(4) 0.7348(4) 0.4890(5)
H25 H 0.8177 0.7758 0.4867
C18 C 0.8518(4) 0.7071(4) 0.4294(5)
H26 H 0.8691 0.7282 0.3858
C19 C 0.8575(4) 0.6465(4) 0.4338(6)
H27 H 0.8783 0.6263 0.3925
C20 C 0.8327(3) 0.6161(4) 0.4985(5)
C21 C 0.8012(3) 0.6489(3) 0.5547(5)
H28 H 0.7831 0.6292 0.5990
C22 C 0.7802(4) 0.4963(4) 0.4664(6)
H29 H 0.7796 0.5058 0.4075
H30 H 0.7873 0.4541 0.4714
C23 C 0.7192(4) 0.5101(4) 0.5028(5)
H31 H 0.7115 0.5521 0.4965
H32 H 0.7199 0.5014 0.5619
C24 C 0.6669(3) 0.3894(4) 0.4767(5)
C25 C 0.7010(3) 0.3547(3) 0.4250(5)
H33 H 0.7212 0.3734 0.3816
C26 C 0.6797(4) 0.2708(4) 0.4945(6)
H34 H 0.6833 0.2301 0.5009
C27 C 0.6462(4) 0.3012(4) 0.5501(6)
H35 H 0.6277 0.2815 0.5941
C28 C 0.6396(4) 0.3609(4) 0.5411(6)
H36 H 0.6165 0.3821 0.5791
C29 C 0.9137(4) 0.5136(4) 0.4667(8)
H37 H 0.9116 0.5200 0.4077
H38 H 0.9211 0.4724 0.4775
H39 H 0.9457 0.5368 0.4898
C30 C 0.8447(5) 0.5237(4) 0.6261(6)
H40 H 0.8779 0.5450 0.6496
H41 H 0.8492 0.4822 0.6375
H42 H 0.8080 0.5377 0.6504
C31 C 0.5849(4) 0.4927(4) 0.4966(7)
H43 H 0.5534 0.4706 0.4703
H44 H 0.5794 0.5341 0.4857
H45 H 0.5840 0.4858 0.5556
C32 C 0.6595(5) 0.4775(4) 0.3419(6)
H46 H 0.6270 0.4557 0.3174
H47 H 0.6969 0.4627 0.3209
H48 H 0.6557 0.5186 0.3278
N5 N 0.1470(3) 0.6405(4) 0.6277(6)
O1 O 0.1667(3) 0.6847(3) 0.6632(4)
O2 O 0.1476(4) 0.6353(3) 0.5544(5)
O3 O 0.1284(5) 0.5996(4) 0.6686(6)
O4 O 0.6350(4) 0.6545(5) 0.7408(7)
N6 N 0.6477(7) 0.6452(7) 0.6709(8)
O5 O 0.6772(3) 0.6722(3) 0.6297(5)
O6 O 0.6070(8) 0.6183(9) 0.6394(10)
Cu2D Cu 0.7500 0.2500 0.34685(8)
Cu2_2 Cu 1.2500 0.7500 0.65315(8)
Cu2D_2 Cu 0.7500 1.2500 0.34685(8)
Si1A Si 1.03796(10) 0.83616(11) 0.81405(16)
Si2A Si 0.97157(10) 0.65363(11) 0.74716(16)
Si3A Si 0.65729(11) 0.96465(11) 0.51463(16)
Si4A Si 0.84258(10) 1.03105(10) 0.45488(15)
N1A N 1.2094(3) 0.7970(3) 0.7416(4)
N1A_2 N 0.2094(3) 0.7970(3) 0.7416(4)
N2A N 0.7974(3) 0.7076(3) 0.7253(4)
N3A N 0.7053(3) 0.7931(3) 0.5505(4)
N4A N 0.7926(3) 1.2038(3) 0.4323(4)
N4D N 0.2926(3) 0.7038(3) 0.5677(4)
N4E N 0.2074(3) 0.7962(3) 0.5677(4)
C1A C 1.1504(3) 0.8002(3) 0.7476(5)
H1A H 1.1278 0.7799 0.7081
C2A C 1.2410(4) 0.8262(4) 0.7974(5)
H2A H 1.2826 0.8248 0.7938
C3A C 1.2165(4) 0.8578(4) 0.8588(6)
H3A H 1.2407 0.8777 0.8969
C4A C 1.1556(4) 0.8606(4) 0.8647(5)
H4A H 1.1378 0.8823 0.9074
C5A C 1.1202(3) 0.8310(3) 0.8073(5)
C6A C 1.0031(4) 0.7740(4) 0.7579(6)
H5A H 0.9599 0.7797 0.7582
H6A H 1.0162 0.7753 0.7004
C7A C 1.0165(4) 0.7133(4) 0.7922(6)
H7A H 1.0099 0.7139 0.8520
H8A H 1.0585 0.7046 0.7829
C8A C 0.8907(3) 0.6668(3) 0.7688(5)
C9A C 0.8561(4) 0.7009(3) 0.7178(5)
H9A H 0.8752 0.7208 0.6745
C10A C 0.7713(4) 0.6809(4) 0.7878(5)
H10A H 0.7300 0.6847 0.7937
C11A C 0.8013(4) 0.6483(4) 0.8437(6)
H11A H 0.7813 0.6313 0.8886
C12A C 0.8620(4) 0.6405(4) 0.8338(5)
H12A H 0.8833 0.6173 0.8714
C13A C 1.0192(4) 0.8331(5) 0.9247(6)
H13A H 0.9765 0.8357 0.9314
H14A H 1.0380 0.8656 0.9531
H15A H 1.0333 0.7965 0.9478
C14A C 1.0149(4) 0.9064(4) 0.7692(8)
H16A H 0.9720 0.9098 0.7720
H17A H 1.0276 0.9082 0.7121
H18A H 1.0329 0.9382 0.7999
C15A C 0.9812(4) 0.6521(5) 0.6342(6)
H19A H 0.9574 0.6208 0.6110
H20A H 1.0227 0.6454 0.6211
H21A H 0.9687 0.6892 0.6110
C16A C 0.9925(4) 0.5831(4) 0.7942(7)
H22A H 0.9688 0.5520 0.7703
H23A H 0.9856 0.5848 0.8531
H24A H 1.0342 0.5755 0.7838
C17A C 0.6792(4) 0.7652(4) 0.4890(5)
H25A H 0.6823 0.7242 0.4867
C18A C 0.6482(4) 0.7929(4) 0.4294(5)
H26A H 0.6309 0.7718 0.3858
C19A C 0.6425(4) 0.8535(4) 0.4338(6)
H27A H 0.6217 0.8737 0.3925
C20A C 0.6673(3) 0.8839(4) 0.4985(5)
C21A C 0.6988(3) 0.8511(3) 0.5547(5)
H28A H 0.7169 0.8708 0.5990
C22A C 0.7198(4) 1.0037(4) 0.4664(6)
H29A H 0.7204 0.9942 0.4075
H30A H 0.7127 1.0459 0.4714
C23A C 0.7808(4) 0.9899(4) 0.5028(5)
H31A H 0.7885 0.9479 0.4965
H32A H 0.7801 0.9986 0.5619
C24A C 0.8331(3) 1.1106(4) 0.4767(5)
C25A C 0.7990(3) 1.1453(3) 0.4250(5)
H33A H 0.7788 1.1266 0.3816
C26A C 0.8203(4) 1.2292(4) 0.4945(6)
H34A H 0.8167 1.2699 0.5009
C27A C 0.8538(4) 1.1988(4) 0.5501(6)
H35A H 0.8723 1.2185 0.5941
C28A C 0.8604(4) 1.1391(4) 0.5411(6)
H36A H 0.8835 1.1179 0.5791
C29A C 0.5863(4) 0.9864(4) 0.4667(8)
H37A H 0.5884 0.9800 0.4077
H38A H 0.5789 1.0276 0.4775
H39A H 0.5543 0.9632 0.4898
C30A C 0.6553(5) 0.9763(4) 0.6261(6)
H40A H 0.6221 0.9550 0.6496
H41A H 0.6508 1.0178 0.6375
H42A H 0.6920 0.9623 0.6504
C31A C 0.9151(4) 1.0073(4) 0.4966(7)
H43A H 0.9466 1.0294 0.4703
H44A H 0.9206 0.9659 0.4857
H45A H 0.9160 1.0142 0.5556
C32A C 0.8405(5) 1.0225(4) 0.3419(6)
H46A H 0.8730 1.0443 0.3174
H47A H 0.8031 1.0373 0.3209
H48A H 0.8443 0.9814 0.3278
N5A N 0.3530(3) 0.8595(4) 0.6277(6)
O1A O 0.3333(3) 0.8153(3) 0.6632(4)
O2A O 0.3524(4) 0.8647(3) 0.5544(5)
O3A O 0.3716(5) 0.9004(4) 0.6686(6)
O4A O 0.8650(4) 0.8455(5) 0.7408(7)
N6A N 0.8523(7) 0.8548(7) 0.6709(8)
O5A O 0.8228(3) 0.8278(3) 0.6297(5)
O6A O 0.8930(8) 0.8817(9) 0.6394(10)
O7 O 0.1697(7) 0.5434(6) 0.8041(10)
H49 H 0.2058 0.5505 0.8068
C33 C 0.1618(13) 0.4913(11) 0.7733(15)
H50 H 0.1889 0.4640 0.7994
H51 H 0.1693 0.4922 0.7144
H52 H 0.1212 0.4788 0.7831
O8 O 0.5647(7) 0.6617(10) 0.4975(8)
H53 H 0.5884 0.6582 0.5364
C34 C 0.5103(9) 0.6654(10) 0.5265(12)
H54 H 0.5086 0.6957 0.5684
H55 H 0.4990 0.6281 0.5506
H56 H 0.4832 0.6750 0.4820
loop_
_geom_bond_atom_site_label_1
_geom_bond_atom_site_label_2
_geom_bond_site_symmetry_1
_geom_bond_site_symmetry_2
Cu1 N2 1_555 1_555
Cu2 N1 1_555 1_555
Si1 C5 1_555 1_555
Si2 C7 1_555 1_555
Si3 C20 1_555 1_555
Si4 C23 1_555 1_555
N1 C1 1_555 1_555
N2 C9 1_555 1_555
N3 Cu1 1_555 1_555
N4 C25 1_555 1_555
C1 H1 1_555 1_555
C2 N1 1_555 1_555
H2 C2 1_555 1_555
C3 C2 1_555 1_555
H3 C3 1_555 1_555
C4 C3 1_555 1_555
H4 C4 1_555 1_555
C5 C1 1_555 1_555
C6 Si1 1_555 1_555
H5 C6 1_555 1_555
H6 C6 1_555 1_555
C7 C6 1_555 1_555
H7 C7 1_555 1_555
H8 C7 1_555 1_555
C8 Si2 1_555 1_555
C9 C8 1_555 1_555
H9 C9 1_555 1_555
C10 N2 1_555 1_555
H10 C10 1_555 1_555
C11 C10 1_555 1_555
H11 C11 1_555 1_555
C12 C8 1_555 1_555
H12 C12 1_555 1_555
C13 Si1 1_555 1_555
H13 C13 1_555 1_555
H14 C13 1_555 1_555
H15 C13 1_555 1_555
C14 Si1 1_555 1_555
H16 C14 1_555 1_555
H17 C14 1_555 1_555
H18 C14 1_555 1_555
C15 Si2 1_555 1_555
H19 C15 1_555 1_555
H20 C15 1_555 1_555
H21 C15 1_555 1_555
C16 Si2 1_555 1_555
H22 C16 1_555 1_555
H23 C16 1_555 1_555
H24 C16 1_555 1_555
C17 N3 1_555 1_555
H25 C17 1_555 1_555
C18 C17 1_555 1_555
H26 C18 1_555 1_555
C19 C18 1_555 1_555
H27 C19 1_555 1_555
C20 C19 1_555 1_555
C21 N3 1_555 1_555
H28 C21 1_555 1_555
C22 Si3 1_555 1_555
H29 C22 1_555 1_555
H30 C22 1_555 1_555
C23 C22 1_555 1_555
H31 C23 1_555 1_555
H32 C23 1_555 1_555
C24 Si4 1_555 1_555
C25 C24 1_555 1_555
H33 C25 1_555 1_555
C26 N4 1_555 1_555
H34 C26 1_555 1_555
C27 C26 1_555 1_555
H35 C27 1_555 1_555
C28 C24 1_555 1_555
H36 C28 1_555 1_555
C29 Si3 1_555 1_555
H37 C29 1_555 1_555
H38 C29 1_555 1_555
H39 C29 1_555 1_555
C30 Si3 1_555 1_555
H40 C30 1_555 1_555
H41 C30 1_555 1_555
H42 C30 1_555 1_555
C31 Si4 1_555 1_555
H43 C31 1_555 1_555
H44 C31 1_555 1_555
H45 C31 1_555 1_555
C32 Si4 1_555 1_555
H46 C32 1_555 1_555
H47 C32 1_555 1_555
H48 C32 1_555 1_555
N5 O1 1_555 1_555
O1 Cu2 1_555 1_555
O2 N5 1_555 1_555
O3 N5 1_555 1_555
O4 N6 1_555 1_555
N6 O5 1_555 1_555
O5 Cu1 1_555 1_555
O6 N6 1_555 1_555
O7 H49 1_555 1_555
C33 O7 1_555 1_555
H50 C33 1_555 1_555
H51 C33 1_555 1_555
H52 C33 1_555 1_555
O8 H53 1_555 1_555
C34 O8 1_555 1_555
H54 C34 1_555 1_555
H55 C34 1_555 1_555
H56 C34 1_555 1_555
Cu2D N4 1_555 1_555
Cu2_2 N1A 1_555 1_555
Cu2D_2 N4A 1_555 1_555
Si1A C5A 1_555 1_555
Si2A C7A 1_555 1_555
Si3A C20A 1_555 1_555
Si4A C23A 1_555 1_555
N1A C1A 1_555 1_555
N1A_2 Cu2 1_555 1_555
N2A Cu1 1_555 1_555
N3A Cu1 1_555 1_555
N4A C25A 1_555 1_555
N4D Cu2 1_555 1_555
N4E Cu2 1_555 1_555
C1A H1A 1_555 1_555
C2A N1A 1_555 1_555
H2A C2A 1_555 1_555
C3A C2A 1_555 1_555
H3A C3A 1_555 1_555
C4A C3A 1_555 1_555
H4A C4A 1_555 1_555
C5A C1A 1_555 1_555
C6A Si1A 1_555 1_555
H5A C6A 1_555 1_555
H6A C6A 1_555 1_555
C7A C6A 1_555 1_555
H7A C7A 1_555 1_555
H8A C7A 1_555 1_555
C8A Si2A 1_555 1_555
C9A N2A 1_555 1_555
H9A C9A 1_555 1_555
C10A N2A 1_555 1_555
H10A C10A 1_555 1_555
C11A C10A 1_555 1_555
H11A C11A 1_555 1_555
C12A C8A 1_555 1_555
H12A C12A 1_555 1_555
C13A Si1A 1_555 1_555
H13A C13A 1_555 1_555
H14A C13A 1_555 1_555
H15A C13A 1_555 1_555
C14A Si1A 1_555 1_555
H16A C14A 1_555 1_555
H17A C14A 1_555 1_555
H18A C14A 1_555 1_555
C15A Si2A 1_555 1_555
H19A C15A 1_555 1_555
H20A C15A 1_555 1_555
H21A C15A 1_555 1_555
C16A Si2A 1_555 1_555
H22A C16A 1_555 1_555
H23A C16A 1_555 1_555
H24A C16A 1_555 1_555
C17A N3A 1_555 1_555
H25A C17A 1_555 1_555
C18A C17A 1_555 1_555
H26A C18A 1_555 1_555
C19A C18A 1_555 1_555
H27A C19A 1_555 1_555
C20A C19A 1_555 1_555
C21A N3A 1_555 1_555
H28A C21A 1_555 1_555
C22A Si3A 1_555 1_555
H29A C22A 1_555 1_555
H30A C22A 1_555 1_555
C23A C22A 1_555 1_555
H31A C23A 1_555 1_555
H32A C23A 1_555 1_555
C24A Si4A 1_555 1_555
C25A C24A 1_555 1_555
H33A C25A 1_555 1_555
C26A N4A 1_555 1_555
H34A C26A 1_555 1_555
C27A C26A 1_555 1_555
H35A C27A 1_555 1_555
C28A C24A 1_555 1_555
H36A C28A 1_555 1_555
C29A Si3A 1_555 1_555
H37A C29A 1_555 1_555
H38A C29A 1_555 1_555
H39A C29A 1_555 1_555
C30A Si3A 1_555 1_555
H40A C30A 1_555 1_555
H41A C30A 1_555 1_555
H42A C30A 1_555 1_555
C31A Si4A 1_555 1_555
H43A C31A 1_555 1_555
H44A C31A 1_555 1_555
H45A C31A 1_555 1_555
C32A Si4A 1_555 1_555
H46A C32A 1_555 1_555
H47A C32A 1_555 1_555
H48A C32A 1_555 1_555
N5A O1A 1_555 1_555
O1A Cu2 1_555 1_555
O2A N5A 1_555 1_555
O3A N5A 1_555 1_555
O4A N6A 1_555 1_555
N6A O5A 1_555 1_555
O5A Cu1 1_555 1_555
O6A N6A 1_555 1_555
C4 C5 1_555 1_555
C11 C12 1_555 1_555
C20 C21 1_555 1_555
C27 C28 1_555 1_555
C4A C5A 1_555 1_555
C8A C9A 1_555 1_555
C11A C12A 1_555 1_555
C20A C21A 1_555 1_555
C27A C28A 1_555 1_555

#END
