
#######################################################################
#
#                 Cambridge Crystallographic Data Centre
#                                CCDC 
#
#######################################################################
#
# If this CIF has been generated from an entry in the Cambridge 
# Structural Database, then it will include bibliographic, chemical, 
# crystal, experimental, refinement or atomic coordinate data resulting 
# from the CCDC's data processing and validation procedures.
#
#######################################################################

data_IZITEQ
_symmetry_cell_setting           monoclinic
_symmetry_space_group_name_H-M   'P 21/n'
_symmetry_Int_Tables_number      14
_space_group_name_Hall           '-P 2yn'
loop_
_symmetry_equiv_pos_site_id
_symmetry_equiv_pos_as_xyz
1 x,y,z
2 1/2+x,1/2-y,1/2+z
3 -x,-y,-z
4 1/2-x,1/2+y,1/2-z
_cell_length_a                   10.7077(6)
_cell_length_b                   13.1843(8)
_cell_length_c                   13.3464(8)
_cell_angle_alpha                90
_cell_angle_beta                 98.373(1)
_cell_angle_gamma                90
_cell_volume                     1864.08
loop_
_atom_site_label
_atom_site_type_symbol
_atom_site_fract_x
_atom_site_fract_y
_atom_site_fract_z
Cu1 Cu 0.04946(4) 0.04993(3) 0.13652(3)
V1 V -0.16336(6) -0.10271(5) 0.40620(5)
P1 P -0.20873(8) 0.05609(7) 0.22001(7)
P2 P 0.01738(8) 0.08495(7) 0.37013(7)
O1 O -0.1310(2) 0.05846(19) 0.13341(18)
O2 O -0.2259(3) -0.0472(2) 0.2643(2)
O3 O 0.1053(2) 0.09191(19) 0.29205(18)
O4 O -0.0100(2) -0.02641(19) 0.39389(19)
O5 O 0.0606(2) 0.14758(19) 0.46590(18)
O6 O -0.1977(3) -0.2193(2) 0.3702(2)
O7 O -0.2792(3) -0.0557(2) 0.4555(2)
O8 O -0.3432(2) 0.1000(2) 0.1835(2)
H1 H -0.3367 0.1596 0.1627
N1 N 0.0904(3) 0.1978(2) 0.1014(2)
N2 N 0.2149(3) 0.0336(2) 0.0958(2)
N3 N 0.0600(3) -0.1040(2) 0.1332(2)
C1 C 0.0208(3) 0.2791(3) 0.1174(3)
H2 H -0.0654 0.2700 0.1247
C2 C 0.0711(4) 0.3760(3) 0.1236(3)
H3 H 0.0199 0.4326 0.1347
C3 C 0.1972(4) 0.3893(3) 0.1135(3)
H4 H 0.2345 0.4548 0.1202
C4 C 0.2681(3) 0.3057(3) 0.0933(3)
H5 H 0.3537 0.3133 0.0832
C5 C 0.2124(3) 0.2113(3) 0.0881(3)
C6 C 0.2785(3) 0.1148(3) 0.0715(3)
C7 C 0.3919(3) 0.1051(3) 0.0336(3)
H6 H 0.4360 0.1635 0.0158
C8 C 0.4404(3) 0.0074(3) 0.0220(2)
C9 C 0.3732(3) -0.0760(3) 0.0505(3)
H7 H 0.4052 -0.1427 0.0458
C10 C 0.2588(3) -0.0601(3) 0.0860(2)
C11 C 0.1721(3) -0.1401(3) 0.1118(3)
C12 C 0.2011(3) -0.2422(3) 0.1143(3)
H8 H 0.2805 -0.2652 0.0996
C13 C 0.1116(4) -0.3103(3) 0.1389(3)
H9 H 0.1290 -0.3810 0.1414
C14 C -0.0029(4) -0.2743(3) 0.1597(3)
H10 H -0.0655 -0.3199 0.1764
C15 C -0.0252(3) -0.1712(3) 0.1560(3)
H11 H -0.1043 -0.1469 0.1702
C16 C -0.1348(3) 0.1372(3) 0.3192(3)
H12 H -0.124(4) 0.205(3) 0.299(3)
H13 H -0.186(5) 0.145(4) 0.368(4)
C8B C 0.5596(3) -0.0074(3) -0.0220(2)
C7B C 0.6081(3) -0.1051(3) -0.0336(3)
C6B C 0.7215(3) -0.1148(3) -0.0715(3)
N2B N 0.7851(3) -0.0336(2) -0.0958(2)
C10B C 0.7412(3) 0.0601(3) -0.0860(2)
C9B C 0.6268(3) 0.0760(3) -0.0505(3)
H7B H 0.5948 0.1427 -0.0458
C11B C 0.8279(3) 0.1401(3) -0.1118(3)
N3B N 0.9400(3) 0.1040(2) -0.1332(2)
C15B C 1.0252(3) 0.1712(3) -0.1560(3)
C14B C 1.0029(4) 0.2743(3) -0.1597(3)
C13B C 0.8884(4) 0.3103(3) -0.1389(3)
C12B C 0.7989(3) 0.2422(3) -0.1143(3)
H8B H 0.7195 0.2652 -0.0996
H9B H 0.8710 0.3810 -0.1414
H10B H 1.0655 0.3199 -0.1764
H11B H 1.1043 0.1469 -0.1702
C5B C 0.7876(3) -0.2113(3) -0.0881(3)
N1B N 0.9096(3) -0.1978(2) -0.1014(2)
C1B C 0.9792(3) -0.2791(3) -0.1174(3)
H2B H 1.0654 -0.2700 -0.1247
C2B C 0.9289(4) -0.3760(3) -0.1236(3)
H3B H 0.9801 -0.4326 -0.1347
C3B C 0.8028(4) -0.3893(3) -0.1135(3)
H4B H 0.7655 -0.4548 -0.1202
C4B C 0.7319(3) -0.3057(3) -0.0933(3)
H5B H 0.6463 -0.3133 -0.0832
H6B H 0.5640 -0.1635 -0.0158
Cu1B Cu 0.95054(4) -0.04993(3) -0.13652(3)
V1B V 0.16336(6) 0.10271(5) 0.59380(5)
P1B P 0.20873(8) -0.05609(7) 0.77999(7)
P2B P -0.01738(8) -0.08495(7) 0.62987(7)
O1B O 0.1310(2) -0.05846(19) 0.86659(18)
O2B O 0.2259(3) 0.0472(2) 0.7357(2)
O3B O -0.1053(2) -0.09191(19) 0.70795(18)
O4B O 0.0100(2) 0.02641(19) 0.60611(19)
O5B O -0.0606(2) -0.14758(19) 0.53410(18)
O8B O 0.3432(2) -0.1000(2) 0.8165(2)
H1B H 0.3367 -0.1596 0.8373
C16B C 0.1348(3) -0.1372(3) 0.6808(3)
H12B H 0.124(4) -0.205(3) 0.701(3)
H13B H 0.186(5) -0.145(4) 0.632(4)
O6B O 0.1977(3) 0.2193(2) 0.6298(2)
O7B O 0.2792(3) 0.0557(2) 0.5445(2)
O1B_2 O 1.1310(2) -0.05846(19) -0.13341(18)
O3B_2 O 0.8947(2) -0.09191(19) -0.29205(18)
Cu1B_2 Cu -0.04946(4) -0.04993(3) 0.86348(3)
loop_
_geom_bond_atom_site_label_1
_geom_bond_atom_site_label_2
_geom_bond_site_symmetry_1
_geom_bond_site_symmetry_2
Cu1 O1 1_555 1_555
V1 O2 1_555 1_555
P1 O1 1_555 1_555
P2 O3 1_555 1_555
O2 P1 1_555 1_555
O3 Cu1 1_555 1_555
O4 V1 1_555 1_555
O5 P2 1_555 1_555
O6 V1 1_555 1_555
O7 V1 1_555 1_555
O8 P1 1_555 1_555
H1 O8 1_555 1_555
N1 Cu1 1_555 1_555
N2 Cu1 1_555 1_555
N3 Cu1 1_555 1_555
C1 N1 1_555 1_555
H2 C1 1_555 1_555
C2 C1 1_555 1_555
H3 C2 1_555 1_555
C3 C2 1_555 1_555
H4 C3 1_555 1_555
C4 C3 1_555 1_555
H5 C4 1_555 1_555
C5 N1 1_555 1_555
C6 N2 1_555 1_555
C7 C6 1_555 1_555
H6 C7 1_555 1_555
C8 C7 1_555 1_555
C9 C8 1_555 1_555
H7 C9 1_555 1_555
C10 N2 1_555 1_555
C11 N3 1_555 1_555
C12 C11 1_555 1_555
H8 C12 1_555 1_555
C13 C12 1_555 1_555
H9 C13 1_555 1_555
C14 C13 1_555 1_555
H10 C14 1_555 1_555
C15 N3 1_555 1_555
H11 C15 1_555 1_555
C16 P1 1_555 1_555
H12 C16 1_555 1_555
H13 C16 1_555 1_555
C8B C8 1_555 1_555
C7B C8B 1_555 1_555
C6B C7B 1_555 1_555
N2B C6B 1_555 1_555
C10B N2B 1_555 1_555
C9B C8B 1_555 1_555
H7B C9B 1_555 1_555
C11B C10B 1_555 1_555
N3B C11B 1_555 1_555
C15B N3B 1_555 1_555
C14B C15B 1_555 1_555
C13B C14B 1_555 1_555
C12B C11B 1_555 1_555
H8B C12B 1_555 1_555
H9B C13B 1_555 1_555
H10B C14B 1_555 1_555
H11B C15B 1_555 1_555
C5B C6B 1_555 1_555
N1B C5B 1_555 1_555
C1B N1B 1_555 1_555
H2B C1B 1_555 1_555
C2B C1B 1_555 1_555
H3B C2B 1_555 1_555
C3B C2B 1_555 1_555
H4B C3B 1_555 1_555
C4B C5B 1_555 1_555
H5B C4B 1_555 1_555
H6B C7B 1_555 1_555
Cu1B N2B 1_555 1_555
V1B O5 1_555 1_555
P1B O1B 1_555 1_555
P2B O3B 1_555 1_555
O1B Cu1B_2 1_555 1_555
O2B V1B 1_555 1_555
O3B Cu1B_2 1_555 1_555
O4B V1B 1_555 1_555
O5B V1 1_555 1_555
O8B P1B 1_555 1_555
H1B O8B 1_555 1_555
C16B P1B 1_555 1_555
H12B C16B 1_555 1_555
H13B C16B 1_555 1_555
O6B V1B 1_555 1_555
O7B V1B 1_555 1_555
O1B_2 Cu1B 1_555 1_555
O3B_2 Cu1B 1_555 1_555
P2 C16 1_555 1_555
P2 O4 1_555 1_555
C4 C5 1_555 1_555
C5 C6 1_555 1_555
C9 C10 1_555 1_555
C10 C11 1_555 1_555
C14 C15 1_555 1_555
C10B C9B 1_555 1_555
N3B Cu1B 1_555 1_555
C13B C12B 1_555 1_555
N1B Cu1B 1_555 1_555
C3B C4B 1_555 1_555
P1B O2B 1_555 1_555
P2B C16B 1_555 1_555
P2B O4B 1_555 1_555
P2B O5B 1_555 1_555

#END
