
#######################################################################
#
#                 Cambridge Crystallographic Data Centre
#                                CCDC 
#
#######################################################################
#
# If this CIF has been generated from an entry in the Cambridge 
# Structural Database, then it will include bibliographic, chemical, 
# crystal, experimental, refinement or atomic coordinate data resulting 
# from the CCDC's data processing and validation procedures.
#
#######################################################################

data_IZIVAO
_symmetry_cell_setting           triclinic
_symmetry_space_group_name_H-M   'P -1'
_symmetry_Int_Tables_number      2
_space_group_name_Hall           '-P 1'
loop_
_symmetry_equiv_pos_site_id
_symmetry_equiv_pos_as_xyz
1 x,y,z
2 -x,-y,-z
_cell_length_a                   9.7232(6)
_cell_length_b                   10.6767(6)
_cell_length_c                   10.9724(6)
_cell_angle_alpha                87.833(1)
_cell_angle_beta                 65.826(1)
_cell_angle_gamma                81.890(1)
_cell_volume                     1028.53
loop_
_atom_site_label
_atom_site_type_symbol
_atom_site_fract_x
_atom_site_fract_y
_atom_site_fract_z
Cu1 Cu 0.32370(2) 0.07040(2) 0.22089(2)
V1 V 0.44433(4) 0.29094(3) -0.35685(3)
P1 P 0.45682(5) 0.20004(4) -0.08471(5)
O1 O 0.33064(16) 0.17493(13) 0.04629(14)
O2 O 0.58128(17) 0.09156(13) -0.14769(17)
O3 O 0.37870(16) 0.24553(14) -0.18188(14)
O4 O 0.47596(17) 0.16032(14) -0.45914(14)
H1 H 0.4550 0.0977 -0.4132
O5 O 0.30858(18) 0.40239(16) -0.36850(16)
O6 O 0.60273(16) 0.35015(14) -0.40057(15)
N1 N 0.10794(18) 0.02429(15) 0.28654(16)
N2 N 0.20854(17) 0.21550(14) 0.33604(15)
N3 N 0.49709(17) 0.15439(15) 0.22661(16)
C1 C 0.0683(2) -0.08430(18) 0.2618(2)
H2 H 0.1435 -0.1457 0.2064
C2 C -0.0824(2) -0.10771(19) 0.3168(2)
H3 H -0.1072 -0.1838 0.2986
C3 C -0.1948(2) -0.01629(19) 0.3988(2)
H4 H -0.2961 -0.0300 0.4362
C4 C -0.1541(2) 0.09641(18) 0.4245(2)
H5 H -0.2276 0.1589 0.4798
C5 C -0.0020(2) 0.11403(17) 0.36616(19)
C6 C 0.0560(2) 0.22873(17) 0.38773(18)
C7 C -0.0303(2) 0.34030(18) 0.45327(19)
H6 H -0.1360 0.3493 0.4884
C8 C 0.0445(2) 0.43937(17) 0.46576(18)
C9 C 0.2040(2) 0.42094(17) 0.41251(18)
H7 H 0.2565 0.4846 0.4199
C10 C 0.2829(2) 0.30646(17) 0.34849(18)
C11 C 0.4507(2) 0.27089(17) 0.28646(18)
C12 C 0.5532(2) 0.34819(18) 0.28897(19)
H8 H 0.5188 0.4270 0.3320
C13 C 0.7081(2) 0.30532(19) 0.2259(2)
H9 H 0.7791 0.3555 0.2254
C14 C 0.7554(2) 0.18647(19) 0.1636(2)
H10 H 0.8585 0.1560 0.1209
C15 C 0.6465(2) 0.11395(19) 0.1661(2)
H11 H 0.6784 0.0345 0.1243
C16 C 0.5532(2) 0.32738(17) -0.07017(19)
H12 H 0.6122 0.2979 -0.0191
H13 H 0.6245 0.3461 -0.1590
C17 C 0.4525(2) 0.45036(17) -0.00497(19)
H14 H 0.3797 0.4334 0.0838
H15 H 0.3960 0.4834 -0.0572
C17A C 0.5475(2) 0.54964(17) 0.00497(19)
C16A C 0.4468(2) 0.67262(17) 0.07017(19)
P1A P 0.54318(5) 0.79996(4) 0.08471(5)
O1A O 0.66936(16) 0.82507(13) -0.04629(14)
O2A O 0.41872(17) 0.90844(13) 0.14769(17)
O3A O 0.62130(16) 0.75447(14) 0.18188(14)
H12A H 0.3878 0.7021 0.0191
H13A H 0.3755 0.6539 0.1590
H14A H 0.6203 0.5666 -0.0838
H15A H 0.6040 0.5166 0.0572
C8A C -0.0445(2) 0.56063(17) 0.53424(18)
C7A C 0.0303(2) 0.65970(18) 0.54673(19)
C6A C -0.0560(2) 0.77127(17) 0.61227(18)
N2A N -0.20854(17) 0.78450(14) 0.66396(15)
C10A C -0.2829(2) 0.69354(17) 0.65151(18)
C9A C -0.2040(2) 0.57906(17) 0.58749(18)
H7A H -0.2565 0.5154 0.5801
C11A C -0.4507(2) 0.72911(17) 0.71354(18)
N3A N -0.49709(17) 0.84561(15) 0.77339(16)
C15A C -0.6465(2) 0.88605(19) 0.8339(2)
C14A C -0.7554(2) 0.81353(19) 0.8364(2)
C13A C -0.7081(2) 0.69468(19) 0.7741(2)
C12A C -0.5532(2) 0.65181(18) 0.71103(19)
H8A H -0.5188 0.5730 0.6680
H9A H -0.7791 0.6445 0.7746
H10A H -0.8585 0.8440 0.8791
H11A H -0.6784 0.9655 0.8757
C5A C 0.0020(2) 0.88597(17) 0.63384(19)
N1A N -0.10794(18) 0.97571(15) 0.71346(16)
C1A C -0.0683(2) 1.08430(18) 0.7382(2)
H2A H -0.1435 1.1457 0.7936
C2A C 0.0824(2) 1.10771(19) 0.6832(2)
H3A H 0.1072 1.1838 0.7014
C3A C 0.1948(2) 1.01629(19) 0.6012(2)
H4A H 0.2961 1.0300 0.5638
C4A C 0.1541(2) 0.90359(18) 0.5755(2)
H5A H 0.2276 0.8411 0.5202
H6A H 0.1360 0.6507 0.5116
Cu1A Cu 0.67630(2) 0.92960(2) -0.22089(2)
V1A V 0.55567(4) 0.70906(3) 0.35685(3)
O4A O 0.52404(17) 0.83968(14) 0.45914(14)
H1A H 0.5450 0.9023 0.4132
O5A O 0.69142(18) 0.59761(16) 0.36850(16)
O6A O 0.39727(16) 0.64985(14) 0.40057(15)
O2A_2 O 0.41872(17) -0.09156(13) 0.14769(17)
Cu1A_2 Cu 0.67630(2) -0.07040(2) -0.22089(2)
Cu1_2 Cu 0.32370(2) 1.07040(2) 0.22089(2)
Cu1A_3 Cu -0.32370(2) 0.92960(2) 0.77911(2)
O2_2 O 0.58128(17) 1.09156(13) -0.14769(17)
N1A_2 N 0.89206(18) 0.97571(15) -0.28654(16)
N2A_2 N 0.79146(17) 0.78450(14) -0.33604(15)
N3A_2 N 0.50291(17) 0.84561(15) -0.22661(16)
O7 O 0.93860(18) 0.66408(17) 0.92204(18)
O8 O 0.9916(2) 0.59258(18) 0.1578(2)
loop_
_geom_bond_atom_site_label_1
_geom_bond_atom_site_label_2
_geom_bond_site_symmetry_1
_geom_bond_site_symmetry_2
Cu1 O1 1_555 1_555
V1 O3 1_555 1_555
P1 O1 1_555 1_555
O2 P1 1_555 1_555
O3 P1 1_555 1_555
O4 V1 1_555 1_555
H1 O4 1_555 1_555
O5 V1 1_555 1_555
O6 V1 1_555 1_555
N1 Cu1 1_555 1_555
N2 Cu1 1_555 1_555
N3 Cu1 1_555 1_555
C1 N1 1_555 1_555
H2 C1 1_555 1_555
C2 C1 1_555 1_555
H3 C2 1_555 1_555
C3 C2 1_555 1_555
H4 C3 1_555 1_555
C4 C3 1_555 1_555
H5 C4 1_555 1_555
C5 N1 1_555 1_555
C6 N2 1_555 1_555
C7 C6 1_555 1_555
H6 C7 1_555 1_555
C8 C7 1_555 1_555
C9 C8 1_555 1_555
H7 C9 1_555 1_555
C10 N2 1_555 1_555
C11 N3 1_555 1_555
C12 C11 1_555 1_555
H8 C12 1_555 1_555
C13 C12 1_555 1_555
H9 C13 1_555 1_555
C14 C13 1_555 1_555
H10 C14 1_555 1_555
C15 N3 1_555 1_555
H11 C15 1_555 1_555
C16 P1 1_555 1_555
H12 C16 1_555 1_555
H13 C16 1_555 1_555
C17 C16 1_555 1_555
H14 C17 1_555 1_555
H15 C17 1_555 1_555
C17A C17 1_555 1_555
C16A C17A 1_555 1_555
P1A C16A 1_555 1_555
O1A P1A 1_555 1_555
O2A P1A 1_555 1_555
O3A P1A 1_555 1_555
H12A C16A 1_555 1_555
H13A C16A 1_555 1_555
H14A C17A 1_555 1_555
H15A C17A 1_555 1_555
C8A C8 1_555 1_555
C7A C8A 1_555 1_555
C6A C7A 1_555 1_555
N2A C6A 1_555 1_555
C10A N2A 1_555 1_555
C9A C8A 1_555 1_555
H7A C9A 1_555 1_555
C11A C10A 1_555 1_555
N3A C11A 1_555 1_555
C15A N3A 1_555 1_555
C14A C15A 1_555 1_555
C13A C14A 1_555 1_555
C12A C11A 1_555 1_555
H8A C12A 1_555 1_555
H9A C13A 1_555 1_555
H10A C14A 1_555 1_555
H11A C15A 1_555 1_555
C5A C6A 1_555 1_555
N1A C5A 1_555 1_555
C1A N1A 1_555 1_555
H2A C1A 1_555 1_555
C2A C1A 1_555 1_555
H3A C2A 1_555 1_555
C3A C2A 1_555 1_555
H4A C3A 1_555 1_555
C4A C5A 1_555 1_555
H5A C4A 1_555 1_555
H6A C7A 1_555 1_555
Cu1A O1A 1_555 1_555
V1A O3A 1_555 1_555
O4A V1A 1_555 1_555
H1A O4A 1_555 1_555
O5A V1A 1_555 1_555
O6A V1A 1_555 1_555
O2A_2 Cu1 1_555 1_555
Cu1A_2 O2 1_555 1_555
Cu1_2 O2A 1_555 1_555
Cu1A_3 N2A 1_555 1_555
O2_2 Cu1A 1_555 1_555
N1A_2 Cu1A 1_555 1_555
N2A_2 Cu1A 1_555 1_555
N3A_2 Cu1A 1_555 1_555
C4 C5 1_555 1_555
C5 C6 1_555 1_555
C9 C10 1_555 1_555
C10 C11 1_555 1_555
C14 C15 1_555 1_555
C10A C9A 1_555 1_555
N3A Cu1A_3 1_555 1_555
C13A C12A 1_555 1_555
N1A Cu1A_3 1_555 1_555
C3A C4A 1_555 1_555

#END
