
#######################################################################
#
#                 Cambridge Crystallographic Data Centre
#                                CCDC 
#
#######################################################################
#
# If this CIF has been generated from an entry in the Cambridge 
# Structural Database, then it will include bibliographic, chemical, 
# crystal, experimental, refinement or atomic coordinate data resulting 
# from the CCDC's data processing and validation procedures.
#
#######################################################################

data_IZOSEV
_symmetry_cell_setting           monoclinic
_symmetry_space_group_name_H-M   'P 21/c'
_symmetry_Int_Tables_number      14
_space_group_name_Hall           '-P 2ybc'
loop_
_symmetry_equiv_pos_site_id
_symmetry_equiv_pos_as_xyz
1 x,y,z
2 x,1/2-y,1/2+z
3 -x,-y,-z
4 -x,1/2+y,1/2-z
_cell_length_a                   7.5664(2)
_cell_length_b                   12.5752(4)
_cell_length_c                   14.9926(5)
_cell_angle_alpha                90
_cell_angle_beta                 91.094(2)
_cell_angle_gamma                90
_cell_volume                     1426.27
loop_
_atom_site_label
_atom_site_type_symbol
_atom_site_fract_x
_atom_site_fract_y
_atom_site_fract_z
Se1 Se 0.27727(6) 0.19613(3) 0.50389(3)
Se2 Se 0.11977(6) 0.03728(4) 0.34691(3)
Se3 Se 0.42591(6) 0.99842(3) 0.61267(3)
Se4 Se 0.22666(6) 0.83509(4) 0.46804(3)
N1 N 0.2169(5) 0.3575(3) 0.3791(3)
N2 N 0.1036(5) 0.2183(3) 0.2428(3)
N3 N 0.4211(5) 0.8251(3) 0.7264(3)
N4 N 0.2820(5) 0.6814(3) 0.5989(3)
C1 C 0.2080(5) 0.2519(4) 0.3910(3)
C2 C 0.1462(6) 0.1832(4) 0.3244(3)
C3 C 0.1703(6) 0.3918(4) 0.2971(3)
H1 H 0.1745 0.4652 0.2850
C4 C 0.1171(6) 0.3243(4) 0.2305(3)
H2 H 0.0888 0.3527 0.1740
C5 C 0.3759(6) 0.8553(4) 0.6443(3)
C6 C 0.3017(6) 0.7859(4) 0.5806(3)
C7 C 0.3952(7) 0.7223(4) 0.7446(3)
H3 H 0.4220 0.6974 0.8024
C8 C 0.3312(7) 0.6520(4) 0.6825(4)
H4 H 0.3210 0.5800 0.6985
O1 O -0.0180(5) 0.5933(3) 0.4231(3)
O2 O 0.4971(5) 0.5836(3) 0.4139(3)
H5 H -0.025(8) 0.612(5) 0.3685(18)
H6 H -0.035(14) 0.650(5) 0.453(7)
H7 H 0.486(9) 0.594(6) 0.3586(16)
H8 H 0.511(10) 0.648(2) 0.427(5)
Na1 Na 0.2483(2) 0.50963(16) 0.49609(13)
Ni1 Ni 0.29690(7) 0.01494(4) 0.47354(4)
Ni1_2 Ni 0.29690(7) 1.01494(4) 0.47354(4)
Ni1B Ni 0.70310(7) 0.98506(4) 0.52646(4)
Na1B Na -0.2483(2) 0.49037(16) 0.50391(13)
Na1B_2 Na 0.7517(2) 0.49037(16) 0.50391(13)
O1B O 0.0180(5) 0.4067(3) 0.5769(3)
O2B O 0.5029(5) 0.4164(3) 0.5861(3)
Se3_2 Se 0.42591(6) -0.00158(3) 0.61267(3)
Se3B Se 0.57409(6) 0.00158(3) 0.38733(3)
Se4_2 Se 0.22666(6) -0.16491(4) 0.46804(3)
H5B H 0.025(8) 0.388(5) 0.6315(18)
H6B H 0.035(14) 0.350(5) 0.547(7)
H7B H 0.514(9) 0.406(6) 0.6414(16)
H8B H 0.489(10) 0.352(2) 0.573(5)
loop_
_geom_bond_atom_site_label_1
_geom_bond_atom_site_label_2
_geom_bond_site_symmetry_1
_geom_bond_site_symmetry_2
Se1 C1 1_555 1_555
Se2 C2 1_555 1_555
Se3 C5 1_555 1_555
Se4 C6 1_555 1_555
N1 C1 1_555 1_555
N2 C2 1_555 1_555
N3 C5 1_555 1_555
N4 C6 1_555 1_555
C1 C2 1_555 1_555
C3 N1 1_555 1_555
H1 C3 1_555 1_555
C4 N2 1_555 1_555
H2 C4 1_555 1_555
C5 C6 1_555 1_555
C7 N3 1_555 1_555
H3 C7 1_555 1_555
C8 N4 1_555 1_555
H4 C8 1_555 1_555
O1 H5 1_555 1_555
O2 H7 1_555 1_555
H6 O1 1_555 1_555
H8 O2 1_555 1_555
Na1 N1 1_555 1_555
Ni1 Se1 1_555 1_555
Ni1_2 Se3 1_555 1_555
Ni1B Se3 1_555 1_555
Na1B O1 1_555 1_555
Na1B_2 O2 1_555 1_555
O1B Na1 1_555 1_555
O2B Na1 1_555 1_555
Se3_2 Ni1 1_555 1_555
Se3B Ni1 1_555 1_555
Se4_2 Ni1 1_555 1_555
H5B O1B 1_555 1_555
H6B O1B 1_555 1_555
H7B O2B 1_555 1_555
H8B O2B 1_555 1_555
Se2 Ni1 1_555 1_555
Se4 Ni1_2 1_555 1_555
N4 Na1 1_555 1_555
C3 C4 1_555 1_555
C7 C8 1_555 1_555
O1 Na1 1_555 1_555
O2 Na1 1_555 1_555
Na1B O1B 1_555 1_555
Na1B_2 O2B 1_555 1_555

#END
