
#######################################################################
#
#                 Cambridge Crystallographic Data Centre
#                                CCDC 
#
#######################################################################
#
# If this CIF has been generated from an entry in the Cambridge 
# Structural Database, then it will include bibliographic, chemical, 
# crystal, experimental, refinement or atomic coordinate data resulting 
# from the CCDC's data processing and validation procedures.
#
#######################################################################

data_IZOTEW
_symmetry_cell_setting           monoclinic
_symmetry_space_group_name_H-M   'P 21'
_symmetry_Int_Tables_number      4
_space_group_name_Hall           'P 2yb'
loop_
_symmetry_equiv_pos_site_id
_symmetry_equiv_pos_as_xyz
1 x,y,z
2 -x,1/2+y,-z
_cell_length_a                   6.9479(1)
_cell_length_b                   21.1986(2)
_cell_length_c                   18.9244(2)
_cell_angle_alpha                90
_cell_angle_beta                 93.987(1)
_cell_angle_gamma                90
_cell_volume                     2780.55
loop_
_atom_site_label
_atom_site_type_symbol
_atom_site_fract_x
_atom_site_fract_y
_atom_site_fract_z
Ag1 Ag 0.77102(4) 0.447649(14) 0.765466(15)
N1 N 0.5890(6) 0.42643(17) 0.65822(19)
C1 C 0.4626(6) 0.44680(18) 0.62303(19)
Ag2 Ag 0.25861(4) 0.308864(16) 0.745926(16)
N2 N 0.0134(5) 0.50369(17) 0.72914(18)
C2 C 0.3002(5) 0.47450(18) 0.58056(19)
H1 H 0.1790 0.4543 0.5934
H2 H 0.3152 0.4658 0.5298
N3 N 0.5356(5) 0.50335(16) 0.82162(18)
C3 C 0.2859(5) 0.54588(17) 0.59155(18)
H3 H 0.3975 0.5664 0.5712
H4 H 0.1674 0.5615 0.5651
N4 N 0.2583(5) 0.37034(16) 0.84219(18)
C4 C 0.2812(5) 0.56580(17) 0.66900(19)
H5 H 0.4076 0.5566 0.6943
H6 H 0.2586 0.6118 0.6715
N5 N 0.4998(5) 0.26233(17) 0.69244(18)
C5 C 0.1283(5) 0.53230(18) 0.70384(19)
N6 N 1.0717(5) 0.34092(17) 0.64415(19)
C6 C 0.4325(5) 0.52418(17) 0.86023(19)
N7 N 1.0378(5) 0.23371(16) 0.78562(18)
C7 C 0.3036(5) 0.55054(17) 0.91009(19)
H7 H 0.2637 0.5932 0.8936
H8 H 0.3764 0.5554 0.9566
N8 N 0.7720(5) 0.36370(16) 0.8376(2)
C8 C 0.1224(5) 0.51160(18) 0.92028(19)
H9 H 0.0423 0.5107 0.8749
H10 H 0.0467 0.5329 0.9557
C9 C 0.1621(6) 0.44363(18) 0.94457(18)
H11 H 0.2659 0.4438 0.9831
H12 H 0.0445 0.4263 0.9640
C10 C 0.2195(5) 0.40211(17) 0.8870(2)
C11 C 0.6084(5) 0.23780(18) 0.65988(19)
C12 C 0.7531(5) 0.20821(17) 0.61835(19)
H13 H 0.7202 0.1631 0.6115
H14 H 0.8803 0.2105 0.6453
C13 C 0.7687(5) 0.23899(17) 0.54589(18)
H15 H 0.6496 0.2298 0.5159
H16 H 0.8780 0.2196 0.5229
C14 C 0.7986(5) 0.31082(19) 0.54887(18)
H17 H 0.8301 0.3261 0.5016
H18 H 0.6770 0.3314 0.5608
C15 C 0.9536(6) 0.32883(17) 0.6014(2)
C16 C 0.9317(5) 0.20739(18) 0.8178(2)
C17 C 0.7955(5) 0.17339(18) 0.8595(2)
H19 H 0.8629 0.1609 0.9051
H20 H 0.7556 0.1343 0.8339
C18 C 0.6152(5) 0.21054(17) 0.8746(2)
H21 H 0.5315 0.1833 0.9020
H22 H 0.5433 0.2205 0.8290
C19 C 0.6525(6) 0.27196(19) 0.9155(2)
H23 H 0.5317 0.2854 0.9359
H24 H 0.7497 0.2640 0.9553
C20 C 0.7213(5) 0.32359(17) 0.8717(2)
N2_2 N 1.0134(5) 0.50369(17) 0.72914(18)
N6_2 N 0.0717(5) 0.34092(17) 0.64415(19)
N7_2 N 0.0378(5) 0.23371(16) 0.78562(18)
Ag1_2 Ag -0.22898(4) 0.447649(14) 0.765466(15)
Ag2_2 Ag 1.25861(4) 0.308864(16) 0.745926(16)
Co1 Co 0.21557(6) 0.238782(19) 0.22108(2)
B1 B 0.1986(6) 0.2602(2) 0.4259(2)
H25 H 0.1934 0.2659 0.4846
B2 B 0.3585(6) 0.2065(2) 0.3879(2)
H26 H 0.4627 0.1770 0.4215
B3 B 0.1038(6) 0.1912(2) 0.3800(2)
H27 H 0.0372 0.1517 0.4090
B4 B -0.0133(6) 0.2651(2) 0.3669(2)
H28 H -0.1578 0.2748 0.3874
B5 B 0.1674(6) 0.32462(19) 0.3663(2)
H29 H 0.1436 0.3739 0.3852
B6 B 0.3964(6) 0.2887(2) 0.3802(2)
H30 H 0.5234 0.3134 0.4073
B7 B 0.2445(6) 0.17568(18) 0.3061(2)
H31 H 0.2737 0.1263 0.2887
B8 B 0.0093(6) 0.21295(19) 0.2925(2)
H32 H -0.1199 0.1886 0.2664
B9 B 0.0523(5) 0.29613(18) 0.2842(2)
H33 H -0.0481 0.3275 0.2513
B10 B 0.2336(5) 0.21839(18) 0.0166(2)
H34 H 0.2363 0.2123 -0.0421
B11 B 0.2658(5) 0.15337(18) 0.0765(2)
H35 H 0.2927 0.1044 0.0572
B12 B 0.4454(5) 0.21286(19) 0.0745(2)
H36 H 0.5910 0.2039 0.0547
B13 B 0.3311(6) 0.2865(2) 0.0607(2)
H37 H 0.4005 0.3261 0.0327
B14 B 0.0787(6) 0.27326(18) 0.0545(2)
H38 H -0.0193 0.3049 0.0211
B15 B 0.0364(5) 0.19072(18) 0.0631(2)
H39 H -0.0901 0.1668 0.0346
B16 B 0.0051(5) 0.24175(18) 0.13679(19)
H40 H -0.1415 0.2522 0.1550
B17 B 0.1226(5) 0.16602(18) 0.1501(2)
H41 H 0.0544 0.1253 0.1766
B18 B 0.3779(5) 0.18115(18) 0.1575(2)
H42 H 0.4819 0.1510 0.1904
C21 C 0.4035(4) 0.23840(17) 0.30861(17)
H43 H 0.5508 0.2303 0.2898
C22 C 0.2949(4) 0.30503(16) 0.29622(17)
H44 H 0.3628 0.3450 0.2683
C23 C 0.3997(5) 0.26003(16) 0.14431(18)
H45 H 0.5268 0.2850 0.1711
C24 C 0.1916(5) 0.29420(16) 0.13303(18)
H46 H 0.1683 0.3437 0.1514
Co2 Co 0.28509(6) 0.011445(18) 0.72979(2)
B19 B 0.2752(5) 0.0384(2) 0.5256(2)
H47 H 0.2741 0.0464 0.4671
B20 B 0.3622(6) -0.0328(2) 0.5664(2)
H48 H 0.4164 -0.0730 0.5349
B21 B 0.4933(6) 0.0380(2) 0.5815(2)
H49 H 0.6366 0.0453 0.5591
B22 B 0.3228(6) 0.10071(19) 0.5873(2)
H50 H 0.3514 0.1498 0.5689
B23 B 0.0908(6) 0.0674(2) 0.5768(2)
H51 H -0.0363 0.0940 0.5525
B24 B 0.1146(5) -0.0145(2) 0.5627(2)
H52 H 0.0050 -0.0423 0.5295
C25 C 0.2370(5) -0.04080(16) 0.63980(16)
H53 H 0.2027 -0.0900 0.6564
B25 B 0.1927(5) 0.08668(18) 0.66350(19)
H54 H 0.1323 0.1265 0.6940
C26 C 0.0815(4) 0.01592(16) 0.64554(17)
H55 H -0.0634 0.0073 0.6662
B26 B 0.4494(5) 0.06925(18) 0.6663(2)
H56 H 0.5615 0.0978 0.6973
C27 C 0.1409(5) -0.04036(15) 0.80078(17)
H57 H 0.0244 -0.0671 0.7698
B27 B 0.4703(5) -0.01446(19) 0.6533(2)
H58 H 0.5960 -0.0424 0.6766
C28 C 0.1233(5) 0.03437(16) 0.81228(17)
H59 H -0.0055 0.0612 0.7897
B28 B 0.3034(5) -0.01458(19) 0.9345(2)
H60 H 0.3106 -0.0217 0.9933
B29 B 0.2457(6) -0.07698(19) 0.8733(2)
H61 H 0.2114 -0.1259 0.8911
B30 B 0.0828(6) -0.0145(2) 0.8829(2)
H62 H -0.0590 -0.0218 0.9065
B31 B 0.2155(6) 0.0562(2) 0.8942(2)
H63 H 0.1600 0.0962 0.9258
B32 B 0.4654(5) 0.03767(19) 0.8936(2)
H64 H 0.5778 0.0651 0.9259
B33 B 0.4827(5) -0.04564(19) 0.88068(19)
H65 H 0.6069 -0.0740 0.9045
B34 B 0.3719(5) -0.06357(17) 0.79528(19)
H66 H 0.4201 -0.1046 0.7637
B35 B 0.5147(5) 0.00713(19) 0.80817(19)
H67 H 0.6599 0.0135 0.7869
B36 B 0.3444(6) 0.07091(19) 0.8162(2)
H68 H 0.3738 0.1204 0.7992
loop_
_geom_bond_atom_site_label_1
_geom_bond_atom_site_label_2
_geom_bond_site_symmetry_1
_geom_bond_site_symmetry_2
Ag1 N1 1_555 1_555
N1 C1 1_555 1_555
C1 C2 1_555 1_555
Ag2 N4 1_555 1_555
N2 C5 1_555 1_555
C2 H1 1_555 1_555
H2 C2 1_555 1_555
N3 Ag1 1_555 1_555
C3 C2 1_555 1_555
H3 C3 1_555 1_555
H4 C3 1_555 1_555
N4 C10 1_555 1_555
C4 C3 1_555 1_555
H5 C4 1_555 1_555
H6 C4 1_555 1_555
N5 Ag2 1_555 1_555
C5 C4 1_555 1_555
N6 C15 1_555 1_555
C6 N3 1_555 1_555
N7 C16 1_555 1_555
C7 C6 1_555 1_555
H7 C7 1_555 1_555
H8 C7 1_555 1_555
N8 Ag1 1_555 1_555
C8 C7 1_555 1_555
H9 C8 1_555 1_555
H10 C8 1_555 1_555
C9 C8 1_555 1_555
H11 C9 1_555 1_555
H12 C9 1_555 1_555
C10 C9 1_555 1_555
C11 N5 1_555 1_555
C12 C11 1_555 1_555
H13 C12 1_555 1_555
H14 C12 1_555 1_555
C13 C12 1_555 1_555
H15 C13 1_555 1_555
H16 C13 1_555 1_555
C14 C13 1_555 1_555
H17 C14 1_555 1_555
H18 C14 1_555 1_555
C15 C14 1_555 1_555
C16 C17 1_555 1_555
C17 H19 1_555 1_555
H20 C17 1_555 1_555
C18 C17 1_555 1_555
H21 C18 1_555 1_555
H22 C18 1_555 1_555
C19 C18 1_555 1_555
H23 C19 1_555 1_555
H24 C19 1_555 1_555
C20 N8 1_555 1_555
Co1 B7 1_555 1_555
B1 H25 1_555 1_555
B2 B1 1_555 1_555
H26 B2 1_555 1_555
B3 B1 1_555 1_555
H27 B3 1_555 1_555
B4 B1 1_555 1_555
H28 B4 1_555 1_555
B5 B1 1_555 1_555
H29 B5 1_555 1_555
B6 B1 1_555 1_555
H30 B6 1_555 1_555
B7 B2 1_555 1_555
H31 B7 1_555 1_555
B8 Co1 1_555 1_555
H32 B8 1_555 1_555
B9 Co1 1_555 1_555
H33 B9 1_555 1_555
B10 H34 1_555 1_555
B11 B10 1_555 1_555
H35 B11 1_555 1_555
B12 B10 1_555 1_555
H36 B12 1_555 1_555
B13 B10 1_555 1_555
H37 B13 1_555 1_555
B14 B10 1_555 1_555
H38 B14 1_555 1_555
B15 B10 1_555 1_555
H39 B15 1_555 1_555
B16 Co1 1_555 1_555
H40 B16 1_555 1_555
B17 Co1 1_555 1_555
H41 B17 1_555 1_555
B18 Co1 1_555 1_555
H42 B18 1_555 1_555
C21 Co1 1_555 1_555
H43 C21 1_555 1_555
C22 Co1 1_555 1_555
H44 C22 1_555 1_555
C23 Co1 1_555 1_555
H45 C23 1_555 1_555
C24 Co1 1_555 1_555
H46 C24 1_555 1_555
Co2 C25 1_555 1_555
B19 H47 1_555 1_555
B20 B19 1_555 1_555
H48 B20 1_555 1_555
B21 B19 1_555 1_555
H49 B21 1_555 1_555
B22 B19 1_555 1_555
H50 B22 1_555 1_555
B23 B19 1_555 1_555
H51 B23 1_555 1_555
B24 B19 1_555 1_555
H52 B24 1_555 1_555
C25 B20 1_555 1_555
H53 C25 1_555 1_555
B25 Co2 1_555 1_555
H54 B25 1_555 1_555
C26 Co2 1_555 1_555
H55 C26 1_555 1_555
B26 Co2 1_555 1_555
H56 B26 1_555 1_555
C27 Co2 1_555 1_555
H57 C27 1_555 1_555
B27 Co2 1_555 1_555
H58 B27 1_555 1_555
C28 Co2 1_555 1_555
H59 C28 1_555 1_555
B28 H60 1_555 1_555
B29 C27 1_555 1_555
H61 B29 1_555 1_555
B30 C27 1_555 1_555
H62 B30 1_555 1_555
B31 C28 1_555 1_555
H63 B31 1_555 1_555
B32 B28 1_555 1_555
H64 B32 1_555 1_555
B33 B28 1_555 1_555
H65 B33 1_555 1_555
B34 Co2 1_555 1_555
H66 B34 1_555 1_555
B35 Co2 1_555 1_555
H67 B35 1_555 1_555
B36 Co2 1_555 1_555
H68 B36 1_555 1_555
N2_2 Ag1 1_555 1_555
N6_2 Ag2 1_555 1_555
N7_2 Ag2 1_555 1_555
Ag1_2 N2 1_555 1_555
Ag2_2 N6 1_555 1_555
N7 Ag2_2 1_555 1_555
C19 C20 1_555 1_555
B2 B3 1_555 1_555
B2 B6 1_555 1_555
B2 C21 1_555 1_555
B3 B4 1_555 1_555
B3 B7 1_555 1_555
B3 B8 1_555 1_555
B4 B5 1_555 1_555
B4 B8 1_555 1_555
B4 B9 1_555 1_555
B5 B6 1_555 1_555
B5 B9 1_555 1_555
B5 C22 1_555 1_555
B6 C21 1_555 1_555
B6 C22 1_555 1_555
B7 B8 1_555 1_555
B7 C21 1_555 1_555
B8 B9 1_555 1_555
B9 C22 1_555 1_555
B11 B12 1_555 1_555
B11 B15 1_555 1_555
B11 B17 1_555 1_555
B11 B18 1_555 1_555
B12 B13 1_555 1_555
B12 B18 1_555 1_555
B12 C23 1_555 1_555
B13 B14 1_555 1_555
B13 C23 1_555 1_555
B13 C24 1_555 1_555
B14 B15 1_555 1_555
B14 B16 1_555 1_555
B14 C24 1_555 1_555
B15 B16 1_555 1_555
B15 B17 1_555 1_555
B16 B17 1_555 1_555
B16 C24 1_555 1_555
B17 B18 1_555 1_555
B18 C23 1_555 1_555
C21 C22 1_555 1_555
C23 C24 1_555 1_555
B20 B21 1_555 1_555
B20 B24 1_555 1_555
B20 B27 1_555 1_555
B21 B22 1_555 1_555
B21 B26 1_555 1_555
B21 B27 1_555 1_555
B22 B23 1_555 1_555
B22 B25 1_555 1_555
B22 B26 1_555 1_555
B23 B24 1_555 1_555
B23 B25 1_555 1_555
B23 C26 1_555 1_555
B24 C25 1_555 1_555
B24 C26 1_555 1_555
C25 C26 1_555 1_555
C25 B27 1_555 1_555
B25 C26 1_555 1_555
B25 B26 1_555 1_555
B26 B27 1_555 1_555
C27 C28 1_555 1_555
C27 B34 1_555 1_555
C28 B30 1_555 1_555
C28 B36 1_555 1_555
B28 B29 1_555 1_555
B28 B30 1_555 1_555
B28 B31 1_555 1_555
B29 B30 1_555 1_555
B29 B33 1_555 1_555
B29 B34 1_555 1_555
B30 B31 1_555 1_555
B31 B32 1_555 1_555
B31 B36 1_555 1_555
B32 B33 1_555 1_555
B32 B35 1_555 1_555
B32 B36 1_555 1_555
B33 B34 1_555 1_555
B33 B35 1_555 1_555
B34 B35 1_555 1_555
B35 B36 1_555 1_555

#END
