
#######################################################################
#
#                 Cambridge Crystallographic Data Centre
#                                CCDC 
#
#######################################################################
#
# If this CIF has been generated from an entry in the Cambridge 
# Structural Database, then it will include bibliographic, chemical, 
# crystal, experimental, refinement or atomic coordinate data resulting 
# from the CCDC's data processing and validation procedures.
#
#######################################################################

data_IZUNAT
_symmetry_cell_setting           tetragonal
_symmetry_space_group_name_H-M   'I 41/a'
_symmetry_Int_Tables_number      88
_space_group_name_Hall           '-I 4ad'
loop_
_symmetry_equiv_pos_site_id
_symmetry_equiv_pos_as_xyz
1 x,y,z
2 -x,1/2-y,z
3 3/4-y,1/4+x,1/4+z
4 1/4+y,1/4-x,1/4+z
5 1/2+x,1/2+y,1/2+z
6 1/2-x,-y,1/2+z
7 1/4-y,3/4+x,3/4+z
8 3/4+y,3/4-x,3/4+z
9 -x,-y,-z
10 x,1/2+y,-z
11 1/4+y,3/4-x,3/4-z
12 3/4-y,3/4+x,3/4-z
13 1/2-x,1/2-y,1/2-z
14 1/2+x,y,1/2-z
15 3/4+y,1/4-x,1/4-z
16 1/4-y,1/4+x,1/4-z
_cell_length_a                   15.348(5)
_cell_length_b                   15.348(5)
_cell_length_c                   22.702(5)
_cell_angle_alpha                90
_cell_angle_beta                 90
_cell_angle_gamma                90
_cell_volume                     5347.71
loop_
_atom_site_label
_atom_site_type_symbol
_atom_site_fract_x
_atom_site_fract_y
_atom_site_fract_z
Cu1 Cu 0.96224(8) 0.01813(8) 0.55612(5)
N1 N 0.7223(6) -0.1166(6) 0.5341(4)
C1 C 0.7885(7) -0.0702(6) 0.5562(5)
H1 H 0.7825 -0.0488 0.5943
N2 N 0.8642(5) -0.0518(5) 0.5272(4)
C2 C 0.8636(7) -0.0831(7) 0.4722(6)
C3 C 0.7926(9) -0.1347(8) 0.4420(6)
C4 C 0.7283(9) -0.1480(8) 0.4752(6)
N3 N 0.6562(5) -0.1970(6) 0.4496(4)
H2 H 0.6592 -0.2149 0.4138
H3 H 0.6106 -0.2080 0.4704
N4 N 0.8169(7) -0.1548(6) 0.3857(4)
C5 C 0.8988(9) -0.1177(7) 0.3847(5)
H4 H 0.9331 -0.1207 0.3510
N5 N 0.9280(5) -0.0769(5) 0.4332(4)
C6 C 0.9313(6) 0.1329(6) 0.4530(4)
O1 O 0.9187(4) 0.1156(4) 0.5059(3)
O2 O 0.9794(4) 0.0920(4) 0.4184(3)
C7 C 0.8793(6) 0.2094(6) 0.4263(4)
H5 H 0.8235 0.2104 0.4463
H6 H 0.9095 0.2623 0.4377
C8 C 0.8612(12) 0.2171(12) 0.3647(7)
H7 H 0.9159 0.2253 0.3441
H8 H 0.8264 0.2691 0.3586
C9 C 0.8158(13) 0.1438(13) 0.3382(8)
H9 H 0.7544 0.1489 0.3457
H10 H 0.8371 0.0904 0.3549
H11 H 0.8259 0.1436 0.2965
Cu1G Cu 0.76813(8) -0.21224(8) 0.30612(5)
Cu1H Cu 1.03776(8) -0.01813(8) 0.44388(5)
N4B N 0.9048(6) 0.0669(7) 0.6357(4)
N5H N 1.0720(5) 0.0769(5) 0.5668(4)
O2H O 1.0206(4) -0.0920(4) 0.5816(3)
O3 O 1.3765(11) 0.1808(12) 0.3659(7)
O4 O 1.063(3) 0.272(2) 0.2483(15)
C10? C 0.8000(17) 0.1652(17) 0.3923(11)
C11? C 0.7366(16) 0.1328(16) 0.4370(11)
H12? H 0.7722 0.2074 0.3667
H13? H 0.8209 0.1173 0.3683
H14? H 0.7296 0.1756 0.4675
H15? H 0.7579 0.0796 0.4539
H16? H 0.6814 0.1222 0.4185
O5? O 1.4069(12) 0.1981(12) 0.3988(7)
O6? O 1.0000 0.2500 0.2265(12)
loop_
_geom_bond_atom_site_label_1
_geom_bond_atom_site_label_2
_geom_bond_site_symmetry_1
_geom_bond_site_symmetry_2
Cu1 N2 1_555 1_555
N1 C1 1_555 1_555
C1 H1 1_555 1_555
N2 C1 1_555 1_555
C2 N2 1_555 1_555
C3 C2 1_555 1_555
C4 N1 1_555 1_555
N3 C4 1_555 1_555
H2 N3 1_555 1_555
H3 N3 1_555 1_555
N4 C3 1_555 1_555
C5 N4 1_555 1_555
H4 C5 1_555 1_555
N5 C2 1_555 1_555
C6 O1 1_555 1_555
O1 Cu1 1_555 1_555
O2 C6 1_555 1_555
C7 C6 1_555 1_555
H5 C7 1_555 1_555
H6 C7 1_555 1_555
C8 C7 1_555 1_555
H7 C8 1_555 1_555
H8 C8 1_555 1_555
C9 C8 1_555 1_555
H9 C9 1_555 1_555
H10 C9 1_555 1_555
H11 C9 1_555 1_555
Cu1G N4 1_555 1_555
Cu1H N5 1_555 1_555
N4B Cu1 1_555 1_555
N5H Cu1 1_555 1_555
O2H Cu1 1_555 1_555
C3 C4 1_555 1_555
C5 N5 1_555 1_555
O2 Cu1H 1_555 1_555

#END
