
#######################################################################
#
#                 Cambridge Crystallographic Data Centre
#                                CCDC 
#
#######################################################################
#
# If this CIF has been generated from an entry in the Cambridge 
# Structural Database, then it will include bibliographic, chemical, 
# crystal, experimental, refinement or atomic coordinate data resulting 
# from the CCDC's data processing and validation procedures.
#
#######################################################################

data_IZUTUT
_symmetry_cell_setting           orthorhombic
_symmetry_space_group_name_H-M   'P b c a'
_symmetry_Int_Tables_number      61
_space_group_name_Hall           '-P 2ac 2ab'
loop_
_symmetry_equiv_pos_site_id
_symmetry_equiv_pos_as_xyz
1 x,y,z
2 1/2-x,-y,1/2+z
3 -x,1/2+y,1/2-z
4 1/2+x,1/2-y,-z
5 -x,-y,-z
6 1/2+x,y,1/2-z
7 x,1/2-y,1/2+z
8 1/2-x,1/2+y,z
_cell_length_a                   23.089(2)
_cell_length_b                   22.702(2)
_cell_length_c                   15.646(1)
_cell_angle_alpha                90
_cell_angle_beta                 90
_cell_angle_gamma                90
_cell_volume                     8201.11
loop_
_atom_site_label
_atom_site_type_symbol
_atom_site_fract_x
_atom_site_fract_y
_atom_site_fract_z
Zn1 Zn -0.12164(84) 0.6025(8) 1.1025(11)
Zn2 Zn -0.62978(83) 0.53906(69) 0.7293(12)
Zn3 Zn 0.1447(8) 0.11445(83) 1.050(1)
Br1 Br -0.09168(51) 0.66178(62) 1.21635(82)
Br2 Br -0.05890(63) 0.60664(59) 0.98141(85)
Br3 Br -0.64993(56) 0.47622(65) 0.84364(92)
Br4 Br -0.70159(54) 0.59431(63) 0.66326(78)
Br5 Br 0.18327(59) 0.14390(66) 0.91838(83)
Br6 Br 0.13653(56) 0.01297(68) 1.10350(85)
N1 N -0.2016(43) 0.6323(45) 1.065(6)
C1 C -0.2381(48) 0.5987(56) 1.028(7)
C2 C -0.2865(42) 0.6162(54) 0.9958(73)
C3 C -0.301(6) 0.6793(56) 1.0053(78)
C4 C -0.2615(54) 0.7165(52) 1.0458(85)
C5 C -0.2137(57) 0.6942(53) 1.0763(76)
N2 N -0.562(4) 0.583(4) 0.7786(58)
C6 C -0.5681(42) 0.643(5) 0.7600(72)
C7 C -0.5283(49) 0.6840(54) 0.7936(75)
C8 C -0.4798(55) 0.6594(59) 0.8542(79)
C9 C -0.4773(46) 0.6014(59) 0.8666(68)
C10 C -0.5194(51) 0.5639(55) 0.8271(77)
N3 N -0.3928(43) 0.9776(38) 0.8587(58)
C11 C -0.3493(47) 0.9520(51) 0.9052(75)
C12 C -0.3513(48) 0.8942(58) 0.9227(63)
C13 C -0.4027(57) 0.8584(61) 0.8934(72)
C14 C -0.4452(49) 0.8811(53) 0.8533(74)
C15 C -0.4404(54) 0.9446(59) 0.8336(74)
C16 C -0.3488(54) 0.705(6) 0.9592(78)
N4 N -0.3920(42) 0.6682(35) 0.9301(61)
C17 C -0.4371(48) 0.696(6) 0.8920(79)
N5 N -0.4442(39) 0.7563(47) 0.8819(55)
C18 C -0.4012(55) 0.7864(55) 0.9110(71)
N6 N -0.3499(37) 0.7641(46) 0.9539(54)
N7 N -0.1343(47) 0.5139(39) 1.1406(57)
C19 C -0.0817(47) 0.4795(56) 1.1030(72)
C20 C -0.0777(52) 0.4238(52) 1.1157(73)
C21 C -0.1246(55) 0.3970(61) 1.1627(75)
C22 C -0.1685(43) 0.4279(61) 1.1916(78)
C23 C -0.1704(44) 0.489(6) 1.1798(76)
N8 N 0.0605(38) 0.1500(43) 1.0559(52)
C24 C 0.017(5) 0.1220(46) 1.099(7)
C25 C -0.0296(52) 0.1495(54) 1.1315(68)
C26 C -0.0334(52) 0.2118(52) 1.1171(78)
C27 C 0.0124(53) 0.2420(46) 1.0697(72)
C28 C 0.0574(53) 0.2128(57) 1.0428(75)
N9 N -0.3040(35) 0.1522(44) 1.3700(54)
C29 C -0.3058(46) 0.2096(55) 1.3593(76)
C30 C -0.2635(64) 0.2423(52) 1.3124(78)
C31 C -0.2202(52) 0.2110(59) 1.2749(83)
C32 C -0.2194(46) 0.1484(58) 1.2840(73)
C33 C -0.2624(53) 0.1203(44) 1.3338(85)
C34 C -0.1261(54) 0.3271(58) 1.1745(82)
N10 N -0.0836(38) 0.2987(44) 1.1407(54)
C35 C -0.0835(58) 0.2426(66) 1.1493(74)
N11 N -0.1252(45) 0.2115(35) 1.1886(62)
C36 C -0.1697(53) 0.2445(59) 1.2218(91)
N12 N -0.1717(36) 0.3028(41) 1.2188(61)
Zn2B Zn -0.37022(83) 1.03906(69) 0.7707(12)
Zn3E Zn -0.3553(8) 0.11445(83) 1.450(1)
N3B N -0.6072(43) 0.4776(38) 0.6413(58)
N9E N 0.1960(35) 0.1522(44) 1.1300(54)
loop_
_geom_bond_atom_site_label_1
_geom_bond_atom_site_label_2
_geom_bond_site_symmetry_1
_geom_bond_site_symmetry_2
Zn1 Br1 1_555 1_555
Zn2 Br3 1_555 1_555
Zn3 Br5 1_555 1_555
Br2 Zn1 1_555 1_555
Br4 Zn2 1_555 1_555
Br6 Zn3 1_555 1_555
N1 Zn1 1_555 1_555
C1 N1 1_555 1_555
C2 C1 1_555 1_555
C3 C2 1_555 1_555
C4 C3 1_555 1_555
C5 N1 1_555 1_555
N2 Zn2 1_555 1_555
C6 N2 1_555 1_555
C7 C6 1_555 1_555
C8 C7 1_555 1_555
C9 C8 1_555 1_555
C10 N2 1_555 1_555
N3 C11 1_555 1_555
C11 C12 1_555 1_555
C12 C13 1_555 1_555
C13 C14 1_555 1_555
C14 C15 1_555 1_555
C15 N3 1_555 1_555
C16 C3 1_555 1_555
N4 C16 1_555 1_555
C17 C8 1_555 1_555
N5 C17 1_555 1_555
C18 C13 1_555 1_555
N6 C16 1_555 1_555
N7 Zn1 1_555 1_555
C19 N7 1_555 1_555
C20 C19 1_555 1_555
C21 C20 1_555 1_555
C22 C21 1_555 1_555
C23 N7 1_555 1_555
N8 Zn3 1_555 1_555
C24 N8 1_555 1_555
C25 C24 1_555 1_555
C26 C25 1_555 1_555
C27 C26 1_555 1_555
C28 N8 1_555 1_555
N9 C29 1_555 1_555
C29 C30 1_555 1_555
C30 C31 1_555 1_555
C31 C32 1_555 1_555
C32 C33 1_555 1_555
C33 N9 1_555 1_555
C34 C21 1_555 1_555
N10 C34 1_555 1_555
C35 C26 1_555 1_555
N11 C35 1_555 1_555
C36 C31 1_555 1_555
N12 C34 1_555 1_555
Zn2B N3 1_555 1_555
Zn3E N9 1_555 1_555
N3B Zn2 1_555 1_555
N9E Zn3 1_555 1_555
C4 C5 1_555 1_555
C9 C10 1_555 1_555
N4 C17 1_555 1_555
N5 C18 1_555 1_555
C18 N6 1_555 1_555
C22 C23 1_555 1_555
C27 C28 1_555 1_555
N10 C35 1_555 1_555
N11 C36 1_555 1_555
C36 N12 1_555 1_555

#END
