
#######################################################################
#
#                 Cambridge Crystallographic Data Centre
#                                CCDC 
#
#######################################################################
#
# If this CIF has been generated from an entry in the Cambridge 
# Structural Database, then it will include bibliographic, chemical, 
# crystal, experimental, refinement or atomic coordinate data resulting 
# from the CCDC's data processing and validation procedures.
#
#######################################################################

data_IZUVIJ
_symmetry_cell_setting           orthorhombic
_symmetry_space_group_name_H-M   'P b c a'
_symmetry_Int_Tables_number      61
_space_group_name_Hall           '-P 2ac 2ab'
loop_
_symmetry_equiv_pos_site_id
_symmetry_equiv_pos_as_xyz
1 x,y,z
2 1/2+x,1/2-y,-z
3 -x,1/2+y,1/2-z
4 1/2-x,-y,1/2+z
5 -x,-y,-z
6 1/2-x,1/2+y,z
7 x,1/2-y,1/2+z
8 1/2+x,y,1/2-z
_cell_length_a                   17.339(6)
_cell_length_b                   14.752(6)
_cell_length_c                   18.507(7)
_cell_angle_alpha                90
_cell_angle_beta                 90
_cell_angle_gamma                90
_cell_volume                     4733.81
loop_
_atom_site_label
_atom_site_type_symbol
_atom_site_fract_x
_atom_site_fract_y
_atom_site_fract_z
Zn1 Zn -0.381410(15) -0.089350(17) -0.161090(14)
Zn2 Zn -0.231570(14) 0.654190(16) -0.517390(13)
Br1 Br -0.243740(12) 0.563510(15) -0.624670(11)
Br2 Br -0.235630(15) 0.809760(15) -0.524190(15)
Br3 Br -0.456480(14) -0.143270(16) -0.065250(15)
Br4 Br -0.371010(16) -0.160110(17) -0.273420(14)
N1 N -0.45806(10) 0.37704(12) -0.14492(10)
N2 N -0.43829(10) 0.51238(12) -0.21151(10)
N3 N -0.63049(10) 0.60064(12) -0.02300(10)
N4 N -0.40250(11) 0.04643(12) -0.17618(10)
N5 N -0.39428(10) 0.37142(12) -0.25851(10)
N6 N -0.29991(10) 0.59897(12) -0.43898(10)
C1 C -0.57034(12) 0.46431(14) -0.06363(11)
H1 H -0.5678 0.4000 -0.0628
C2 C -0.52308(12) 0.60819(15) -0.10353(12)
H2 H -0.4876 0.6439 -0.1304
C3 C -0.36538(14) 0.09038(16) -0.22899(13)
H3 H -0.3347 0.0563 -0.2616
C4 C -0.36973(14) 0.18330(16) -0.23816(13)
H4 H -0.3423 0.2123 -0.2761
C5 C -0.41495(12) 0.23332(15) -0.19080(12)
C6 C -0.35328(13) 0.46464(15) -0.38725(12)
H5 H -0.3660 0.4023 -0.3923
C7 C -0.42226(12) 0.33298(14) -0.19850(12)
C8 C -0.31370(13) 0.64334(14) -0.37679(12)
H6 H -0.2997 0.7054 -0.3732
C9 C -0.36651(12) 0.50982(15) -0.32274(11)
C10 C -0.34765(13) 0.60141(15) -0.31798(12)
H7 H -0.3579 0.6345 -0.2750
C11 C -0.62443(12) 0.50965(14) -0.02314(12)
H8 H -0.6589 0.4754 0.0059
C12 C -0.46780(12) 0.46563(14) -0.15625(11)
C13 C -0.57941(13) 0.64900(14) -0.06125(12)
H9 H -0.5818 0.7133 -0.0594
C14 C -0.45356(13) 0.18797(15) -0.13581(12)
H10 H -0.4848 0.2204 -0.1025
C15 C -0.40125(12) 0.46172(14) -0.26049(11)
C16 C -0.44572(12) 0.09450(15) -0.13024(12)
H11 H -0.4720 0.0637 -0.0925
C17 C -0.51956(12) 0.51406(14) -0.10577(11)
C18 C -0.32124(13) 0.51205(15) -0.44384(12)
H12 H -0.3139 0.4816 -0.4885
Zn1F Zn -0.381410(15) 0.589350(17) -0.661090(14)
Zn2G Zn -0.731570(14) 0.654190(16) 0.017390(13)
Br1F Br -0.243740(12) -0.063510(15) -0.124670(11)
N3G N -0.13049(10) 0.60064(12) -0.47700(10)
loop_
_geom_bond_atom_site_label_1
_geom_bond_atom_site_label_2
_geom_bond_site_symmetry_1
_geom_bond_site_symmetry_2
Zn1 Br3 1_555 1_555
Zn2 Br1 1_555 1_555
Br1 Zn1F 1_555 1_555
Br2 Zn2 1_555 1_555
Br4 Zn1 1_555 1_555
N1 C7 1_555 1_555
N2 C12 1_555 1_555
N3 C11 1_555 1_555
N4 Zn1 1_555 1_555
N5 C7 1_555 1_555
N6 Zn2 1_555 1_555
C1 H1 1_555 1_555
C2 H2 1_555 1_555
C3 N4 1_555 1_555
H3 C3 1_555 1_555
C4 C3 1_555 1_555
H4 C4 1_555 1_555
C5 C4 1_555 1_555
C6 H5 1_555 1_555
C7 C5 1_555 1_555
C8 N6 1_555 1_555
H6 C8 1_555 1_555
C9 C6 1_555 1_555
C10 C8 1_555 1_555
H7 C10 1_555 1_555
C11 C1 1_555 1_555
H8 C11 1_555 1_555
C12 N1 1_555 1_555
C13 N3 1_555 1_555
H9 C13 1_555 1_555
C14 C5 1_555 1_555
H10 C14 1_555 1_555
C15 N2 1_555 1_555
C16 N4 1_555 1_555
H11 C16 1_555 1_555
C17 C1 1_555 1_555
C18 N6 1_555 1_555
H12 C18 1_555 1_555
Zn2G N3 1_555 1_555
Br1F Zn1 1_555 1_555
N3G Zn2 1_555 1_555
N5 C15 1_555 1_555
C2 C13 1_555 1_555
C2 C17 1_555 1_555
C6 C18 1_555 1_555
C9 C10 1_555 1_555
C9 C15 1_555 1_555
C12 C17 1_555 1_555
C14 C16 1_555 1_555

#END
