
#######################################################################
#
#                 Cambridge Crystallographic Data Centre
#                                CCDC 
#
#######################################################################
#
# If this CIF has been generated from an entry in the Cambridge 
# Structural Database, then it will include bibliographic, chemical, 
# crystal, experimental, refinement or atomic coordinate data resulting 
# from the CCDC's data processing and validation procedures.
#
#######################################################################

data_JABYUH
_symmetry_cell_setting           orthorhombic
_symmetry_space_group_name_H-M   'P 21 21 21'
_symmetry_Int_Tables_number      19
_space_group_name_Hall           'P 2ac 2ab'
loop_
_symmetry_equiv_pos_site_id
_symmetry_equiv_pos_as_xyz
1 x,y,z
2 1/2-x,-y,1/2+z
3 1/2+x,1/2-y,-z
4 -x,1/2+y,1/2-z
_cell_length_a                   8.918
_cell_length_b                   9.831
_cell_length_c                   10.763
_cell_angle_alpha                90
_cell_angle_beta                 90
_cell_angle_gamma                90
_cell_volume                     943.623
loop_
_atom_site_label
_atom_site_type_symbol
_atom_site_fract_x
_atom_site_fract_y
_atom_site_fract_z
Cu1 Cu 0.039080(11) 0.199349(9) 0.892813(10)
N1 N -0.04119(8) 0.02238(7) 0.88030(7)
O1 O -0.15856(7) 0.23832(6) 0.97635(6)
N2 N 0.21489(8) 0.11293(7) 0.80491(7)
H1 H 0.2369 0.1613 0.7363
H2 H 0.2955 0.1146 0.8551
C1 C 0.02764(9) -0.07225(8) 0.81672(7)
C2 C -0.24410(10) 0.13638(8) 0.98398(8)
C3 C 0.18149(9) -0.03029(8) 0.76923(8)
H3 H 0.1769 -0.0329 0.6783
C4 C -0.19154(10) 0.00297(9) 0.92940(10)
H4 H -0.1907 -0.0669 0.993
H5 H -0.2588 -0.0255 0.8635
O2 O -0.37132(7) 0.13746(6) 1.03246(7)
O3 O -0.02008(7) -0.18947(6) 0.79541(6)
C5 C 0.30389(11) -0.12907(10) 0.80859(9)
H6 H 0.2699 -0.2209 0.7872
C6 C 0.45002(13) -0.10287(17) 0.73759(13)
H7 H 0.4312 -0.1079 0.6499
H8 H 0.523 -0.1703 0.7603
H9 H 0.4874 -0.0141 0.7581
C7 C 0.33032(15) -0.12563(14) 0.94855(10)
H10 H 0.3777 -0.0414 0.9708
H11 H 0.3938 -0.2002 0.9719
H12 H 0.236 -0.1331 0.991
O2B O 0.12868(7) 0.36254(6) 0.96754(7)
O3C O 0.02008(7) 0.31053(6) 0.70459(6)
Cu1B Cu -0.460920(11) 0.300651(9) 1.107187(10)
Cu1C Cu -0.039080(11) -0.300651(9) 0.607187(10)
loop_
_geom_bond_atom_site_label_1
_geom_bond_atom_site_label_2
_geom_bond_site_symmetry_1
_geom_bond_site_symmetry_2
Cu1 N1 1_555 1_555
N1 C1 1_555 1_555
O1 Cu1 1_555 1_555
N2 Cu1 1_555 1_555
H1 N2 1_555 1_555
H2 N2 1_555 1_555
C1 C3 1_555 1_555
C2 O1 1_555 1_555
C3 N2 1_555 1_555
H3 C3 1_555 1_555
C4 N1 1_555 1_555
H4 C4 1_555 1_555
H5 C4 1_555 1_555
O2 C2 1_555 1_555
O3 C1 1_555 1_555
C5 C3 1_555 1_555
H6 C5 1_555 1_555
C6 C5 1_555 1_555
H7 C6 1_555 1_555
H8 C6 1_555 1_555
H9 C6 1_555 1_555
C7 C5 1_555 1_555
H10 C7 1_555 1_555
H11 C7 1_555 1_555
H12 C7 1_555 1_555
O2B Cu1 1_555 1_555
O3C Cu1 1_555 1_555
Cu1B O2 1_555 1_555
Cu1C O3 1_555 1_555
C2 C4 1_555 1_555

#END
