
#######################################################################
#
#                 Cambridge Crystallographic Data Centre
#                                CCDC 
#
#######################################################################
#
# If this CIF has been generated from an entry in the Cambridge 
# Structural Database, then it will include bibliographic, chemical, 
# crystal, experimental, refinement or atomic coordinate data resulting 
# from the CCDC's data processing and validation procedures.
#
#######################################################################

data_JADVIU
_symmetry_cell_setting           orthorhombic
_symmetry_space_group_name_H-M   'P 21 21 21'
_symmetry_Int_Tables_number      19
_space_group_name_Hall           'P 2ac 2ab'
loop_
_symmetry_equiv_pos_site_id
_symmetry_equiv_pos_as_xyz
1 x,y,z
2 1/2-x,-y,1/2+z
3 1/2+x,1/2-y,-z
4 -x,1/2+y,1/2-z
_cell_length_a                   7.2495(4)
_cell_length_b                   12.0763(7)
_cell_length_c                   19.2196(13)
_cell_angle_alpha                90
_cell_angle_beta                 90
_cell_angle_gamma                90
_cell_volume                     1682.62
loop_
_atom_site_label
_atom_site_type_symbol
_atom_site_fract_x
_atom_site_fract_y
_atom_site_fract_z
Ag1 Ag 0.15795(5) 0.37381(3) 0.088019(17)
N1 N 0.1070(5) 0.1808(3) 0.27881(18)
N2 N 0.0810(6) 0.2703(3) 0.17928(19)
N3 N 0.3343(5) -0.0880(3) 0.44411(18)
N4 N 0.3873(6) -0.2425(4) 0.5022(2)
N5 N 0.2293(5) 0.2919(3) 0.51676(18)
N6 N 0.2599(5) 0.4538(3) 0.56825(19)
C1 C 0.1671(7) 0.1543(3) 0.3477(2)
C2 C 0.2193(6) 0.0465(4) 0.3619(2)
H1 H 0.2159 -0.0087 0.3268
C3 C 0.2769(6) 0.0211(4) 0.4291(2)
C4 C 0.2841(6) 0.1022(4) 0.4810(2)
H2 H 0.3270 0.0848 0.5264
C5 C 0.2273(6) 0.2080(4) 0.4644(2)
C6 C 0.1691(6) 0.2370(3) 0.39786(19)
H3 H 0.1322 0.3105 0.3872
C7 C 0.1540(8) 0.2724(4) 0.2420(2)
H4 H 0.2297 0.3304 0.2591
C8 C -0.0165(7) 0.1730(4) 0.1761(2)
H5 H -0.0845 0.1486 0.1367
C9 C -0.0028(7) 0.1171(4) 0.2362(2)
H6 H -0.0575 0.0477 0.2471
C10 C 0.3321(7) -0.1389(4) 0.5070(2)
H7 H 0.2954 -0.1042 0.5492
C11 C 0.4297(7) -0.2596(4) 0.4330(2)
H8 H 0.4739 -0.3272 0.4141
C12 C 0.3995(7) -0.1671(4) 0.3964(2)
H9 H 0.4182 -0.1570 0.3479
C13 C 0.2767(6) 0.3998(4) 0.5088(2)
H10 H 0.3166 0.4321 0.4663
C14 C 0.1997(6) 0.3781(4) 0.6170(2)
H11 H 0.1757 0.3940 0.6645
C15 C 0.1798(6) 0.2766(3) 0.5862(2)
H12 H 0.1406 0.2098 0.6076
N4A N 0.1127(6) 0.2425(4) 0.0022(2)
N6A N 0.2401(5) 0.5462(3) 0.06825(19)
Ag1A Ag 0.34205(5) -0.37381(3) 0.588019(17)
Ag1A_2 Ag 0.34205(5) 0.62619(3) 0.588019(17)
Cl1 Cl -0.48926(17) 0.49317(9) 0.31554(5)
O1 O -0.4360(7) 0.4059(3) 0.2707(2)
O2 O -0.3759(7) 0.4922(3) 0.3759(2)
O3 O -0.6778(6) 0.4751(3) 0.3393(2)
O4 O -0.4773(6) 0.5974(3) 0.2816(2)
loop_
_geom_bond_atom_site_label_1
_geom_bond_atom_site_label_2
_geom_bond_site_symmetry_1
_geom_bond_site_symmetry_2
Ag1 N2 1_555 1_555
Cl1 O1 1_555 1_555
O2 Cl1 1_555 1_555
O3 Cl1 1_555 1_555
O4 Cl1 1_555 1_555
N1 C1 1_555 1_555
N2 C7 1_555 1_555
N3 C3 1_555 1_555
N4 C10 1_555 1_555
N5 C5 1_555 1_555
N6 C13 1_555 1_555
C1 C2 1_555 1_555
C2 H1 1_555 1_555
C3 C2 1_555 1_555
C4 C3 1_555 1_555
H2 C4 1_555 1_555
C5 C4 1_555 1_555
C6 C1 1_555 1_555
H3 C6 1_555 1_555
C7 N1 1_555 1_555
H4 C7 1_555 1_555
C8 N2 1_555 1_555
H5 C8 1_555 1_555
C9 N1 1_555 1_555
H6 C9 1_555 1_555
C10 N3 1_555 1_555
H7 C10 1_555 1_555
C11 N4 1_555 1_555
H8 C11 1_555 1_555
C12 N3 1_555 1_555
H9 C12 1_555 1_555
C13 N5 1_555 1_555
H10 C13 1_555 1_555
C14 N6 1_555 1_555
H11 C14 1_555 1_555
C15 N5 1_555 1_555
H12 C15 1_555 1_555
N4A Ag1 1_555 1_555
N6A Ag1 1_555 1_555
Ag1A N4 1_555 1_555
Ag1A_2 N6 1_555 1_555
C5 C6 1_555 1_555
C8 C9 1_555 1_555
C11 C12 1_555 1_555
C14 C15 1_555 1_555

#END
