
#######################################################################
#
#                 Cambridge Crystallographic Data Centre
#                                CCDC 
#
#######################################################################
#
# If this CIF has been generated from an entry in the Cambridge 
# Structural Database, then it will include bibliographic, chemical, 
# crystal, experimental, refinement or atomic coordinate data resulting 
# from the CCDC's data processing and validation procedures.
#
#######################################################################

data_JADWER
_symmetry_cell_setting           monoclinic
_symmetry_space_group_name_H-M   'C 2/c'
_symmetry_Int_Tables_number      15
_space_group_name_Hall           '-C 2yn'
loop_
_symmetry_equiv_pos_site_id
_symmetry_equiv_pos_as_xyz
1 x,y,z
2 1/2+x,1/2+y,z
3 x,-y,1/2+z
4 1/2+x,1/2-y,1/2+z
5 -x,-y,-z
6 1/2-x,1/2-y,-z
7 -x,y,1/2-z
8 1/2-x,1/2+y,1/2-z
_cell_length_a                   18.947(2)
_cell_length_b                   9.7593(10)
_cell_length_c                   19.761(2)
_cell_angle_alpha                90
_cell_angle_beta                 97.967(2)
_cell_angle_gamma                90
_cell_volume                     3618.73
loop_
_atom_site_label
_atom_site_type_symbol
_atom_site_fract_x
_atom_site_fract_y
_atom_site_fract_z
Ag1 Ag 0.51890(2) 0.61461(4) -0.10379(2)
N1 N 0.5448(2) 0.8370(4) -0.1219(2)
N2 N 0.60764(18) 1.0235(4) -0.13424(19)
N3 N 0.57665(19) 1.5701(4) -0.3156(2)
N4 N 0.67232(18) 1.4767(4) -0.25826(18)
N5 N 0.9240(2) 1.0489(4) 0.0419(2)
N6 N 0.84565(18) 1.1551(4) -0.03304(18)
C1 C 0.6683(2) 1.1108(4) -0.1340(2)
C2 C 0.6699(2) 1.2068(5) -0.1851(2)
H1 H 0.633(2) 1.205(4) -0.219(2)
C3 C 0.7296(2) 1.2881(4) -0.1853(2)
C4 C 0.7872(2) 1.2711(4) -0.1347(2)
H2 H 0.8271(19) 1.318(4) -0.1361(18)
C5 C 0.7849(2) 1.1743(4) -0.0839(2)
C6 C 0.7247(2) 1.0958(5) -0.0823(3)
H3 H 0.723(2) 1.039(4) -0.046(2)
C7 C 0.7352(2) 1.3876(5) -0.2432(3)
H4 H 0.776(2) 1.449(4) -0.232(2)
H5 H 0.738(2) 1.334(4) -0.284(2)
C8 C 0.6254(3) 1.4741(5) -0.3151(3)
H6 H 0.629(2) 1.421(4) -0.350(2)
C9 C 0.6526(3) 1.5811(5) -0.2190(3)
H7 H 0.676(3) 1.594(4) -0.175(3)
C10 C 0.5935(3) 1.6372(5) -0.2539(3)
H8 H 0.560(2) 1.707(4) -0.244(2)
C11 C 0.8617(3) 1.0406(5) 0.0034(3)
H9 H 0.834(2) 0.969(4) 0.000(2)
C12 C 0.9026(3) 1.2417(5) -0.0168(3)
H10 H 0.903(2) 1.317(4) -0.031(2)
C13 C 0.9489(3) 1.1762(5) 0.0296(3)
H11 H 0.989(3) 1.207(5) 0.048(2)
C14 C 0.6091(2) 0.8912(5) -0.1143(3)
H12 H 0.646(2) 0.836(4) -0.096(2)
C15 C 0.5008(3) 0.9404(6) -0.1472(3)
H13 H 0.459(2) 0.930(4) -0.156(2)
C16 C 0.5374(3) 1.0544(6) -0.1548(3)
H14 H 0.524(2) 1.136(4) -0.167(2)
N3F N 0.42335(19) 0.5701(4) -0.1844(2)
N5E N 0.5760(2) 0.4511(4) -0.0419(2)
Ag1F Ag 0.48110(2) 1.61461(4) -0.39621(2)
Ag1E Ag 0.98110(2) 0.88539(4) 0.10379(2)
Cl1 Cl 0.67267(7) 0.84272(12) 0.08418(6)
O1 O 0.6586(2) 0.8706(4) 0.1510(2)
O2 O 0.6171(7) 0.785(2) 0.0441(10)
O4 O 0.7257(7) 0.7386(10) 0.0932(5)
O6 O 0.6977(13) 0.9565(10) 0.0564(8)
O3? O 0.639(2) 0.954(2) 0.0422(10)
O5? O 0.6286(18) 0.743(3) 0.0547(14)
O7? O 0.7406(9) 0.847(7) 0.0724(10)
loop_
_geom_bond_atom_site_label_1
_geom_bond_atom_site_label_2
_geom_bond_site_symmetry_1
_geom_bond_site_symmetry_2
Ag1 N1 1_555 1_555
Cl1 O1 1_555 1_555
O2 Cl1 1_555 1_555
O4 Cl1 1_555 1_555
O6 Cl1 1_555 1_555
N1 C14 1_555 1_555
N2 C1 1_555 1_555
N3 C8 1_555 1_555
N4 C7 1_555 1_555
N5 C11 1_555 1_555
N6 C5 1_555 1_555
C1 C2 1_555 1_555
C2 H1 1_555 1_555
C3 C2 1_555 1_555
C4 C3 1_555 1_555
H2 C4 1_555 1_555
C5 C4 1_555 1_555
C6 C1 1_555 1_555
H3 C6 1_555 1_555
C7 C3 1_555 1_555
H4 C7 1_555 1_555
H5 C7 1_555 1_555
C8 N4 1_555 1_555
H6 C8 1_555 1_555
C9 N4 1_555 1_555
H7 C9 1_555 1_555
C10 N3 1_555 1_555
H8 C10 1_555 1_555
C11 N6 1_555 1_555
H9 C11 1_555 1_555
C12 N6 1_555 1_555
H10 C12 1_555 1_555
C13 N5 1_555 1_555
H11 C13 1_555 1_555
C14 N2 1_555 1_555
H12 C14 1_555 1_555
C15 N1 1_555 1_555
H13 C15 1_555 1_555
C16 N2 1_555 1_555
H14 C16 1_555 1_555
N3F Ag1 1_555 1_555
N5E Ag1 1_555 1_555
Ag1F N3 1_555 1_555
Ag1E N5 1_555 1_555
C5 C6 1_555 1_555
C9 C10 1_555 1_555
C12 C13 1_555 1_555
C15 C16 1_555 1_555

#END
