
#######################################################################
#
#                 Cambridge Crystallographic Data Centre
#                                CCDC 
#
#######################################################################
#
# If this CIF has been generated from an entry in the Cambridge 
# Structural Database, then it will include bibliographic, chemical, 
# crystal, experimental, refinement or atomic coordinate data resulting 
# from the CCDC's data processing and validation procedures.
#
#######################################################################

data_JAFDEZ
_symmetry_cell_setting           monoclinic
_symmetry_space_group_name_H-M   'P 21/n'
_symmetry_Int_Tables_number      14
_space_group_name_Hall           '-P 2yn'
loop_
_symmetry_equiv_pos_site_id
_symmetry_equiv_pos_as_xyz
1 x,y,z
2 1/2-x,1/2+y,1/2-z
3 -x,-y,-z
4 1/2+x,1/2-y,1/2+z
_cell_length_a                   12.041(6)
_cell_length_b                   9.765(1)
_cell_length_c                   14.535(5)
_cell_angle_alpha                90
_cell_angle_beta                 94.81(4)
_cell_angle_gamma                90
_cell_volume                     1703.01
loop_
_atom_site_label
_atom_site_type_symbol
_atom_site_fract_x
_atom_site_fract_y
_atom_site_fract_z
Ni1 Ni 0.0897 -0.3841(1) 0.1724(1)
N1 N 0.0891(3) -0.5231(4) 0.2762(3)
C1 C 0.0932(4) -0.5745(5) 0.3478(3)
S1 S 0.1025(1) -0.6479(1) 0.4483(1)
N2 N 0.1003(3) -0.2596(4) 0.0613(3)
C2 C 0.0972(4) -0.2005(5) -0.0071(3)
S2 S 0.0908(1) -0.1180(2) -0.1052(1)
N3 N -0.0850(3) -0.3832(4) 0.1571(3)
C3 C -0.1389(4) -0.2670(5) 0.1301(3)
C4 C -0.2538(4) -0.2556(5) 0.1199(4)
N4 N -0.3015(4) -0.1371(6) 0.0802(4)
C5 C -0.3150(5) -0.3704(6) 0.1419(4)
C6 C -0.2613(5) -0.4877(6) 0.1684(4)
C7 C -0.1460(5) -0.4940(6) 0.1749(4)
N5 N 0.2718(3) -0.3817(4) 0.1992(3)
O1 O 0.0961(3) -0.5482(4) 0.0760(3)
N6 N 0.4098(3) -0.7167(4) 0.2351(2)
C8 C 0.3528(3) -0.6008(4) 0.2490(3)
C9 C 0.3351(4) -0.5008(5) 0.1825(3)
C10 C 0.3773(4) -0.5206(5) 0.0973(3)
C11 C 0.4394(4) -0.6361(5) 0.0847(3)
C12 C 0.4547(4) -0.7312(5) 0.1536(3)
N6A N 0.0902(3) -0.2167(4) 0.2649(2)
Ni1A Ni 0.4103 -0.8841(1) 0.3276(1)
O2 O 0.3218(3) -0.3204(4) 0.4009(3)
loop_
_geom_bond_atom_site_label_1
_geom_bond_atom_site_label_2
_geom_bond_site_symmetry_1
_geom_bond_site_symmetry_2
Ni1 N1 1_555 1_555
N1 C1 1_555 1_555
C1 S1 1_555 1_555
N2 Ni1 1_555 1_555
C2 N2 1_555 1_555
S2 C2 1_555 1_555
N3 Ni1 1_555 1_555
C3 N3 1_555 1_555
C4 C3 1_555 1_555
N4 C4 1_555 1_555
C5 C4 1_555 1_555
C6 C5 1_555 1_555
C7 N3 1_555 1_555
N5 Ni1 1_555 1_555
O1 Ni1 1_555 1_555
N6 C8 1_555 1_555
C8 C9 1_555 1_555
C9 N5 1_555 1_555
C10 C9 1_555 1_555
C11 C10 1_555 1_555
C12 N6 1_555 1_555
N6A Ni1 1_555 1_555
Ni1A N6 1_555 1_555
C6 C7 1_555 1_555
C11 C12 1_555 1_555

#END
