
#######################################################################
#
#                 Cambridge Crystallographic Data Centre
#                                CCDC 
#
#######################################################################
#
# If this CIF has been generated from an entry in the Cambridge 
# Structural Database, then it will include bibliographic, chemical, 
# crystal, experimental, refinement or atomic coordinate data resulting 
# from the CCDC's data processing and validation procedures.
#
#######################################################################

data_JAFPEM
_symmetry_cell_setting           orthorhombic
_symmetry_space_group_name_H-M   'P c c a'
_symmetry_Int_Tables_number      54
_space_group_name_Hall           '-P 2a 2ac'
loop_
_symmetry_equiv_pos_site_id
_symmetry_equiv_pos_as_xyz
1 x,y,z
2 1/2+x,y,-z
3 x,-y,1/2+z
4 1/2-x,y,1/2+z
5 -x,-y,-z
6 1/2-x,-y,z
7 -x,y,1/2-z
8 1/2+x,-y,1/2-z
_cell_length_a                   8.7260(10)
_cell_length_b                   14.8830(10)
_cell_length_c                   16.5660(10)
_cell_angle_alpha                90
_cell_angle_beta                 90
_cell_angle_gamma                90
_cell_volume                     2151.41
loop_
_atom_site_label
_atom_site_type_symbol
_atom_site_fract_x
_atom_site_fract_y
_atom_site_fract_z
B1 B 0.2500 0.0000 -0.1416(12)
F1 F 0.1379(10) -0.0333(7) -0.1857(5)
F2 F 0.1841(17) 0.0656(9) -0.0990(10)
F1E F 0.3621(10) 0.0333(7) -0.1857(5)
F2E F 0.3159(17) -0.0656(9) -0.0990(10)
N3 N 0.6265(22) 0.5815(10) 0.2565(9)
O3 O 0.7319(20) 0.6370(12) 0.2484(10)
O4 O 0.6580(23) 0.4984(13) 0.2641(8)
O5 O 0.5000 0.6106(9) 0.2500
N3F N 0.3735(22) 0.5815(10) 0.2435(9)
O3F O 0.2681(20) 0.6370(12) 0.2516(10)
O4F O 0.3420(23) 0.4984(13) 0.2359(8)
Ag1 Ag 0.0000 0.20475(7) 0.2500
Ag2 Ag 0.2500 0.5000 0.06250(6)
Ag3 Ag 0.57301(11) 0.42956(6) 0.12818(8)
C1 C -0.0300(10) 0.3715(6) 0.0698(4)
C2 C -0.1060(10) 0.2799(6) 0.0685(5)
H1 H -0.1653(10) 0.2729(6) 0.1176(5)
H2 H -0.1770(10) 0.2778(6) 0.0235(5)
C3 C -0.0010(10) 0.2042(5) 0.0617(5)
H3 H 0.0552(10) 0.2089(5) 0.0113(5)
H4 H -0.0596(10) 0.1488(5) 0.0602(5)
C4 C 0.2230(10) 0.1274(6) 0.1212(6)
H5 H 0.2580(10) 0.1250(6) 0.0656(6)
H6 H 0.1748(10) 0.0704(6) 0.1338(6)
C5 C 0.3577(11) 0.1414(7) 0.1758(6)
H7 H 0.3234(11) 0.1422(7) 0.2315(6)
H8 H 0.4293(11) 0.0921(7) 0.1694(6)
C6 C 0.4347(11) 0.2262(7) 0.1570(6)
N1 N 0.1096(8) 0.2004(4) 0.1299(4)
H9 H 0.1681(8) 0.2548(4) 0.1262(4)
N2 N 0.4872(10) 0.2937(6) 0.1439(5)
O1 O 0.1116(7) 0.3757(4) 0.0645(3)
O2 O -0.1201(8) 0.4395(4) 0.0751(4)
C1F C 0.0300(10) 0.3715(6) 0.4302(4)
C2F C 0.1060(10) 0.2799(6) 0.4315(5)
H1F H 0.1653(10) 0.2729(6) 0.3824(5)
H2F H 0.1770(10) 0.2778(6) 0.4765(5)
C3F C 0.0010(10) 0.2042(5) 0.4383(5)
H3F H -0.0552(10) 0.2089(5) 0.4887(5)
H4F H 0.0596(10) 0.1488(5) 0.4398(5)
C4F C -0.2230(10) 0.1274(6) 0.3788(6)
H5F H -0.2580(10) 0.1250(6) 0.4344(6)
H6F H -0.1748(10) 0.0704(6) 0.3662(6)
C5F C -0.3577(11) 0.1414(7) 0.3242(6)
H7F H -0.3234(11) 0.1422(7) 0.2685(6)
H8F H -0.4293(11) 0.0921(7) 0.3306(6)
C6F C -0.4347(11) 0.2262(7) 0.3430(6)
N1F N -0.1096(8) 0.2004(4) 0.3701(4)
H9F H -0.1681(8) 0.2548(4) 0.3738(4)
N2F N -0.4872(10) 0.2937(6) 0.3561(5)
O1F O -0.1116(7) 0.3757(4) 0.4355(3)
O2F O 0.1201(8) 0.4395(4) 0.4249(4)
Ag3F Ag -0.57301(11) 0.42956(6) 0.37182(8)
O1E O 0.3884(7) 0.6243(4) 0.0645(3)
O2E O 0.6201(8) 0.5605(4) 0.0751(4)
Ag3E Ag -0.07301(11) 0.57044(6) 0.12818(8)
Ag2F Ag -0.2500 0.5000 0.43750(6)
Ag3G Ag 0.07301(11) 0.57044(6) 0.37182(8)
O2G O -0.6201(8) 0.5605(4) 0.4249(4)
loop_
_geom_bond_atom_site_label_1
_geom_bond_atom_site_label_2
_geom_bond_site_symmetry_1
_geom_bond_site_symmetry_2
Ag1 N1 1_555 1_555
Ag2 O1 1_555 1_555
Ag3 N2 1_555 1_555
B1 F1 1_555 1_555
C1 C2 1_555 1_555
C2 H1 1_555 1_555
H2 C2 1_555 1_555
C3 C2 1_555 1_555
H3 C3 1_555 1_555
H4 C3 1_555 1_555
C4 H5 1_555 1_555
H6 C4 1_555 1_555
C5 C4 1_555 1_555
H7 C5 1_555 1_555
H8 C5 1_555 1_555
C6 C5 1_555 1_555
F2 B1 1_555 1_555
N1 C3 1_555 1_555
H9 N1 1_555 1_555
N2 C6 1_555 1_555
N3 O3 1_555 1_555
O1 C1 1_555 1_555
O2 C1 1_555 1_555
O4 N3 1_555 1_555
O5 N3 1_555 1_555
F1E B1 1_555 1_555
F2E B1 1_555 1_555
N3F O5 1_555 1_555
O3F N3F 1_555 1_555
O4F N3F 1_555 1_555
C1F C2F 1_555 1_555
C2F H1F 1_555 1_555
H2F C2F 1_555 1_555
C3F C2F 1_555 1_555
H3F C3F 1_555 1_555
H4F C3F 1_555 1_555
C4F H5F 1_555 1_555
H6F C4F 1_555 1_555
C5F C4F 1_555 1_555
H7F C5F 1_555 1_555
H8F C5F 1_555 1_555
C6F C5F 1_555 1_555
N1F Ag1 1_555 1_555
H9F N1F 1_555 1_555
N2F C6F 1_555 1_555
O1F C1F 1_555 1_555
O2F C1F 1_555 1_555
Ag3F N2F 1_555 1_555
O1E Ag2 1_555 1_555
O2E Ag3 1_555 1_555
Ag3E O2 1_555 1_555
Ag2F O1F 1_555 1_555
Ag3G O2F 1_555 1_555
O2G Ag3F 1_555 1_555
C4 N1 1_555 1_555
C3F N1F 1_555 1_555
C4F N1F 1_555 1_555

#END
