
#######################################################################
#
#                 Cambridge Crystallographic Data Centre
#                                CCDC 
#
#######################################################################
#
# If this CIF has been generated from an entry in the Cambridge 
# Structural Database, then it will include bibliographic, chemical, 
# crystal, experimental, refinement or atomic coordinate data resulting 
# from the CCDC's data processing and validation procedures.
#
#######################################################################

data_JAFYEV
_symmetry_cell_setting           triclinic
_symmetry_space_group_name_H-M   'P -1'
_symmetry_Int_Tables_number      2
_space_group_name_Hall           '-P 1'
loop_
_symmetry_equiv_pos_site_id
_symmetry_equiv_pos_as_xyz
1 x,y,z
2 -x,-y,-z
_cell_length_a                   9.5489(10)
_cell_length_b                   10.7797(12)
_cell_length_c                   15.7127(13)
_cell_angle_alpha                82.427(4)
_cell_angle_beta                 86.698(5)
_cell_angle_gamma                71.158(5)
_cell_volume                     1517.16
loop_
_atom_site_label
_atom_site_type_symbol
_atom_site_fract_x
_atom_site_fract_y
_atom_site_fract_z
Co1 Co 0.0000 0.0000 0.0000
Co2 Co 0.0000 -0.5000 0.0000
Be1 Be -0.3197(7) 0.1710(8) 0.5625(4)
S1 S 0.20892(11) -0.31278(11) 0.05579(6)
O1 O -0.1683(3) 0.1902(3) 0.5199(2)
O2 O -0.3521(7) 0.0671(8) 0.5101(3)
O3 O 0.5494(4) -0.6923(5) -0.4452(2)
O4 O 0.6905(4) -0.8832(3) -0.3376(2)
O5 O 0.1697(3) -0.1678(3) 0.0435(2)
O6 O 0.0922(3) -0.3486(3) 0.0138(2)
O7 O 0.3530(3) -0.3706(3) 0.0159(2)
O8 O 0.2114(4) -0.3586(4) 0.1478(2)
O9 O 0.1418(3) 0.1104(3) 0.0101(2)
O10 O 0.1473(3) -0.6397(3) 0.0854(2)
N1 N -0.0716(4) 0.0305(4) 0.1334(2)
N2 N 0.1561(4) -0.5667(3) -0.1027(2)
C1 C -0.1257(5) 0.1624(5) 0.4435(3)
C2 C -0.1928(6) 0.0977(6) 0.3960(3)
C3 C -0.2986(10) 0.0457(12) 0.4343(5)
C4 C -0.3541(19) -0.0435(22) 0.3927(9)
H1 H -0.4284(19) -0.0684(22) 0.4279(9)
H2 H -0.3952(19) 0.0000(22) 0.3382(9)
H3 H -0.2722(19) -0.1209(22) 0.3841(9)
C5 C 0.0025(7) 0.2031(7) 0.4077(4)
H4 H 0.0819(7) 0.1240(7) 0.3990(4)
H5 H 0.0366(7) 0.2483(7) 0.4466(4)
H6 H -0.0183(7) 0.2564(7) 0.3531(4)
C6 C -0.1818(6) 0.1355(6) 0.1531(3)
H7 H -0.2373(6) 0.1957(6) 0.1072(3)
C7 C -0.2203(6) 0.1607(6) 0.2380(3)
H8 H -0.2982(6) 0.2396(6) 0.2490(3)
C8 C -0.1469(5) 0.0759(6) 0.3048(3)
C9 C -0.0332(6) -0.0334(7) 0.2848(3)
H9 H 0.0227(6) -0.0960(7) 0.3296(3)
C10 C -0.0004(6) -0.0536(7) 0.1993(3)
H10 H 0.0776(6) -0.1315(7) 0.1868(3)
C11 C 0.4598(6) -0.6494(7) -0.3833(3)
C12 C 0.4732(5) -0.7187(5) -0.3008(2)
C13 C 0.5916(5) -0.8347(5) -0.2818(3)
C14 C 0.6094(6) -0.9100(6) -0.1942(3)
H11 H 0.6964(6) -0.9861(6) -0.1932(3)
H12 H 0.6191(6) -0.8542(6) -0.1535(3)
H13 H 0.5242(6) -0.9376(6) -0.1792(3)
C15 C 0.3423(10) -0.5250(11) -0.4047(5)
H14 H 0.3515(10) -0.4921(11) -0.4639(5)
H15 H 0.2487(10) -0.5402(11) -0.3952(5)
H16 H 0.3481(10) -0.4612(11) -0.3689(5)
C16 C 0.2957(4) -0.5643(4) -0.1023(3)
H17 H 0.3243(4) -0.5280(4) -0.0561(3)
C17 C 0.4004(5) -0.6114(5) -0.1649(3)
H18 H 0.4988(5) -0.6070(5) -0.1618(3)
C18 C 0.3631(4) -0.6658(4) -0.2319(2)
C19 C 0.2191(5) -0.6680(5) -0.2322(3)
H19 H 0.1875(5) -0.7036(5) -0.2777(3)
C20 C 0.1206(5) -0.6189(5) -0.1680(3)
H20 H 0.0216(5) -0.6223(5) -0.1700(3)
C21 C 0.2893(5) 0.0836(5) -0.0227(3)
H21 H 0.3396(5) -0.0097(5) -0.0126(3)
H22 H 0.3414(5) 0.1292(5) 0.0052(3)
H23 H 0.2892(5) 0.1116(5) -0.0833(3)
C22 C 0.1098(6) -0.6997(5) 0.1669(3)
H24 H 0.1873(6) -0.7798(5) 0.1849(3)
H25 H 0.0188(6) -0.7178(5) 0.1616(3)
H26 H 0.0939(6) -0.6387(5) 0.2086(3)
H27 H 0.0999 0.2000 -0.0017
H28 H 0.2439 -0.6383 0.0805
S1A S -0.20892(11) 0.31278(11) -0.05579(6)
O5A O -0.1697(3) 0.1678(3) -0.0435(2)
O6A O -0.0922(3) 0.3486(3) -0.0138(2)
O7A O -0.3530(3) 0.3706(3) -0.0159(2)
O8A O -0.2114(4) 0.3586(4) -0.1478(2)
O9A O -0.1418(3) -0.1104(3) -0.0101(2)
C21A C -0.2893(5) -0.0836(5) 0.0227(3)
H21A H -0.3396(5) 0.0097(5) 0.0126(3)
H22A H -0.3414(5) -0.1292(5) -0.0052(3)
H23A H -0.2892(5) -0.1116(5) 0.0833(3)
H27A H -0.0999 -0.2000 0.0017
O1A O 0.1683(3) -0.1902(3) -0.5199(2)
O2A O 0.3521(7) -0.0671(8) -0.5101(3)
N1A N 0.0716(4) -0.0305(4) -0.1334(2)
C1A C 0.1257(5) -0.1624(5) -0.4435(3)
C2A C 0.1928(6) -0.0977(6) -0.3960(3)
C3A C 0.2986(10) -0.0457(12) -0.4343(5)
C4A C 0.3541(19) 0.0435(22) -0.3927(9)
H1A H 0.4284(19) 0.0684(22) -0.4279(9)
H2A H 0.3952(19) 0.0000(22) -0.3382(9)
H3A H 0.2722(19) 0.1209(22) -0.3841(9)
C5A C -0.0025(7) -0.2031(7) -0.4077(4)
H4A H -0.0819(7) -0.1240(7) -0.3990(4)
H5A H -0.0366(7) -0.2483(7) -0.4466(4)
H6A H 0.0183(7) -0.2564(7) -0.3531(4)
C6A C 0.1818(6) -0.1355(6) -0.1531(3)
H7A H 0.2373(6) -0.1957(6) -0.1072(3)
C7A C 0.2203(6) -0.1607(6) -0.2380(3)
H8A H 0.2982(6) -0.2396(6) -0.2490(3)
C8A C 0.1469(5) -0.0759(6) -0.3048(3)
C9A C 0.0332(6) 0.0334(7) -0.2848(3)
H9A H -0.0227(6) 0.0960(7) -0.3296(3)
C10A C 0.0004(6) 0.0536(7) -0.1993(3)
H10A H -0.0776(6) 0.1315(7) -0.1868(3)
Be1A Be 0.3197(7) -0.1710(8) -0.5625(4)
O10A O -0.1473(3) -0.3603(3) -0.0854(2)
C22A C -0.1098(6) -0.3003(5) -0.1669(3)
H24A H -0.1873(6) -0.2202(5) -0.1849(3)
H25A H -0.0188(6) -0.2822(5) -0.1616(3)
H26A H -0.0939(6) -0.3613(5) -0.2086(3)
H28A H -0.2439 -0.3617 -0.0805
O3A O -0.5494(4) -0.3077(5) 0.4452(2)
O4A O -0.6905(4) -0.1168(3) 0.3376(2)
N2A N -0.1561(4) -0.4333(3) 0.1027(2)
C11A C -0.4598(6) -0.3506(7) 0.3833(3)
C12A C -0.4732(5) -0.2813(5) 0.3008(2)
C13A C -0.5916(5) -0.1653(5) 0.2818(3)
C14A C -0.6094(6) -0.0900(6) 0.1942(3)
H11A H -0.6964(6) -0.0139(6) 0.1932(3)
H12A H -0.6191(6) -0.1458(6) 0.1535(3)
H13A H -0.5242(6) -0.0624(6) 0.1792(3)
C15A C -0.3423(10) -0.4750(11) 0.4047(5)
H14A H -0.3515(10) -0.5079(11) 0.4639(5)
H15A H -0.2487(10) -0.4598(11) 0.3952(5)
H16A H -0.3481(10) -0.5388(11) 0.3689(5)
C16A C -0.2957(4) -0.4357(4) 0.1023(3)
H17A H -0.3243(4) -0.4720(4) 0.0561(3)
C17A C -0.4004(5) -0.3886(5) 0.1649(3)
H18A H -0.4988(5) -0.3930(5) 0.1618(3)
C18A C -0.3631(4) -0.3342(4) 0.2319(2)
C19A C -0.2191(5) -0.3320(5) 0.2322(3)
H19A H -0.1875(5) -0.2964(5) 0.2777(3)
C20A C -0.1206(5) -0.3811(5) 0.1680(3)
H20A H -0.0216(5) -0.3777(5) 0.1700(3)
O6A_2 O -0.0922(3) -0.6514(3) -0.0138(2)
O3_2 O -0.4506(4) 0.3077(5) 0.5548(2)
O4_2 O -0.3095(4) 0.1168(3) 0.6624(2)
Be1_2 Be 0.6803(7) -0.8290(8) -0.4375(4)
Co2_2 Co 0.0000 0.5000 0.0000
O3A_2 O 0.4506(4) -0.3077(5) -0.5548(2)
O4A_2 O 0.3095(4) -0.1168(3) -0.6624(2)
Be1A_2 Be -0.6803(7) -0.1710(8) 0.4375(4)
O11 O 0.4359(5) -0.6920(8) 0.0994(3)
O12 O 0.3932(17) -0.5912(17) 0.2434(10)
C23 C 0.3675(29) -0.5974(21) 0.3278(12)
O13? O 0.2277(25) -0.4896(21) 0.3009(9)
C24? C 0.0861(73) -0.4009(29) 0.3882(42)
O14? O 0.4388(17) -0.6929(20) 0.2776(10)
C25? C 0.4143(26) -0.7904(28) 0.3397(16)
loop_
_geom_bond_atom_site_label_1
_geom_bond_atom_site_label_2
_geom_bond_site_symmetry_1
_geom_bond_site_symmetry_2
Co1 O5 1_555 1_555
Co2 O6 1_555 1_555
Be1 O1 1_555 1_555
S1 O5 1_555 1_555
O1 C1 1_555 1_555
O2 Be1 1_555 1_555
O3 C11 1_555 1_555
O4 C13 1_555 1_555
O6 S1 1_555 1_555
O7 S1 1_555 1_555
O8 S1 1_555 1_555
O9 Co1 1_555 1_555
O10 Co2 1_555 1_555
N1 Co1 1_555 1_555
N2 Co2 1_555 1_555
C1 C2 1_555 1_555
C2 C3 1_555 1_555
C3 O2 1_555 1_555
C4 C3 1_555 1_555
H1 C4 1_555 1_555
H2 C4 1_555 1_555
H3 C4 1_555 1_555
C5 C1 1_555 1_555
H4 C5 1_555 1_555
H5 C5 1_555 1_555
H6 C5 1_555 1_555
C6 N1 1_555 1_555
H7 C6 1_555 1_555
C7 C6 1_555 1_555
H8 C7 1_555 1_555
C8 C2 1_555 1_555
C9 C8 1_555 1_555
H9 C9 1_555 1_555
C10 N1 1_555 1_555
H10 C10 1_555 1_555
C11 C12 1_555 1_555
C12 C13 1_555 1_555
C13 C14 1_555 1_555
C14 H11 1_555 1_555
H12 C14 1_555 1_555
H13 C14 1_555 1_555
C15 C11 1_555 1_555
H14 C15 1_555 1_555
H15 C15 1_555 1_555
H16 C15 1_555 1_555
C16 N2 1_555 1_555
H17 C16 1_555 1_555
C17 C16 1_555 1_555
H18 C17 1_555 1_555
C18 C12 1_555 1_555
C19 C18 1_555 1_555
H19 C19 1_555 1_555
C20 N2 1_555 1_555
H20 C20 1_555 1_555
C21 O9 1_555 1_555
H21 C21 1_555 1_555
H22 C21 1_555 1_555
H23 C21 1_555 1_555
C22 O10 1_555 1_555
H24 C22 1_555 1_555
H25 C22 1_555 1_555
H26 C22 1_555 1_555
O12 C23 1_555 1_555
H27 O9 1_555 1_555
H28 O10 1_555 1_555
S1A O5A 1_555 1_555
O5A Co1 1_555 1_555
O6A S1A 1_555 1_555
O7A S1A 1_555 1_555
O8A S1A 1_555 1_555
O9A Co1 1_555 1_555
C21A O9A 1_555 1_555
H21A C21A 1_555 1_555
H22A C21A 1_555 1_555
H23A C21A 1_555 1_555
H27A O9A 1_555 1_555
O1A C1A 1_555 1_555
O2A C3A 1_555 1_555
N1A Co1 1_555 1_555
C1A C2A 1_555 1_555
C2A C3A 1_555 1_555
C3A C4A 1_555 1_555
C4A H1A 1_555 1_555
H2A C4A 1_555 1_555
H3A C4A 1_555 1_555
C5A C1A 1_555 1_555
H4A C5A 1_555 1_555
H5A C5A 1_555 1_555
H6A C5A 1_555 1_555
C6A N1A 1_555 1_555
H7A C6A 1_555 1_555
C7A C6A 1_555 1_555
H8A C7A 1_555 1_555
C8A C2A 1_555 1_555
C9A C8A 1_555 1_555
H9A C9A 1_555 1_555
C10A N1A 1_555 1_555
H10A C10A 1_555 1_555
Be1A O1A 1_555 1_555
O10A Co2 1_555 1_555
C22A O10A 1_555 1_555
H24A C22A 1_555 1_555
H25A C22A 1_555 1_555
H26A C22A 1_555 1_555
H28A O10A 1_555 1_555
O3A C11A 1_555 1_555
O4A C13A 1_555 1_555
N2A Co2 1_555 1_555
C11A C12A 1_555 1_555
C12A C13A 1_555 1_555
C13A C14A 1_555 1_555
C14A H11A 1_555 1_555
H12A C14A 1_555 1_555
H13A C14A 1_555 1_555
C15A C11A 1_555 1_555
H14A C15A 1_555 1_555
H15A C15A 1_555 1_555
H16A C15A 1_555 1_555
C16A N2A 1_555 1_555
H17A C16A 1_555 1_555
C17A C16A 1_555 1_555
H18A C17A 1_555 1_555
C18A C12A 1_555 1_555
C19A C18A 1_555 1_555
H19A C19A 1_555 1_555
C20A N2A 1_555 1_555
H20A C20A 1_555 1_555
O6A_2 Co2 1_555 1_555
O3_2 Be1 1_555 1_555
O4_2 Be1 1_555 1_555
Be1_2 O3 1_555 1_555
Co2_2 O6A 1_555 1_555
O3A_2 Be1A 1_555 1_555
O4A_2 Be1A 1_555 1_555
Be1A_2 O3A 1_555 1_555
O4 Be1_2 1_555 1_555
C7 C8 1_555 1_555
C9 C10 1_555 1_555
C17 C18 1_555 1_555
C19 C20 1_555 1_555
O2A Be1A 1_555 1_555
C7A C8A 1_555 1_555
C9A C10A 1_555 1_555
O4A Be1A_2 1_555 1_555
C17A C18A 1_555 1_555
C19A C20A 1_555 1_555

#END
