
#######################################################################
#
#                 Cambridge Crystallographic Data Centre
#                                CCDC 
#
#######################################################################
#
# If this CIF has been generated from an entry in the Cambridge 
# Structural Database, then it will include bibliographic, chemical, 
# crystal, experimental, refinement or atomic coordinate data resulting 
# from the CCDC's data processing and validation procedures.
#
#######################################################################

data_JAFYIZ
_symmetry_cell_setting           monoclinic
_symmetry_space_group_name_H-M   'C 2/c'
_symmetry_Int_Tables_number      15
_space_group_name_Hall           '-C 2yn'
loop_
_symmetry_equiv_pos_site_id
_symmetry_equiv_pos_as_xyz
1 x,y,z
2 1/2+x,1/2+y,z
3 x,-y,1/2+z
4 1/2+x,1/2-y,1/2+z
5 -x,-y,-z
6 1/2-x,1/2-y,-z
7 -x,y,1/2-z
8 1/2-x,1/2+y,1/2-z
_cell_length_a                   26.9766(8)
_cell_length_b                   10.9883(3)
_cell_length_c                   14.3431(4)
_cell_angle_alpha                90
_cell_angle_beta                 104.0730(10)
_cell_angle_gamma                90
_cell_volume                     4124.07
loop_
_atom_site_label
_atom_site_type_symbol
_atom_site_fract_x
_atom_site_fract_y
_atom_site_fract_z
Cu1 Cu 0.5000 0.62011(3) 0.2500
Cu2 Cu 0.5000 0.31330(3) 0.2500
Cl1 Cl 0.44962(2) 0.47073(4) 0.14135(3)
Cl2 Cl 0.5000 0.10591(6) 0.2500
Be1 Be 0.69774(10) 1.0131(2) -0.0941(2)
O1 O 0.69667(5) 0.86956(12) -0.07137(10)
O2 O 0.64284(5) 1.06389(13) -0.08832(11)
O3 O 0.21086(6) 0.46597(14) 0.30391(11)
O4 O 0.24362(5) 0.42175(13) 0.48432(10)
N1 N 0.53927(6) 0.7104(2) 0.17159(11)
N2 N 0.43942(6) 0.3154(2) 0.31039(12)
C1 C 0.66662(7) 0.8252(2) -0.02356(13)
C2 C 0.62696(7) 0.8931(2) 0.00010(13)
C3 C 0.61542(7) 1.0101(2) -0.03924(15)
C4 C 0.56882(8) 1.0774(2) -0.0283(2)
H1 H 0.56735(8) 1.1550(2) -0.0596(2)
H2 H 0.53878(8) 1.0312(2) -0.0571(2)
H3 H 0.57055(8) 1.0893(2) 0.0387(2)
C5 C 0.67385(8) 0.6937(2) 0.0027(2)
H4 H 0.70249(8) 0.6623(2) -0.0184(2)
H5 H 0.68003(8) 0.6849(2) 0.0711(2)
H6 H 0.64360(8) 0.6494(2) -0.0279(2)
C6 C 0.52486(8) 0.7103(2) 0.07535(13)
H7 H 0.49499(8) 0.6646(2) 0.04472(13)
C7 C 0.55101(8) 0.7710(2) 0.01770(13)
H8 H 0.53858(8) 0.7696(2) -0.05095(13)
C8 C 0.59488(7) 0.8347(2) 0.05925(13)
C9 C 0.60952(10) 0.8377(3) 0.1591(2)
H9 H 0.63904(10) 0.8835(3) 0.1912(2)
C10 C 0.58093(10) 0.7764(3) 0.21192(15)
H10 H 0.59154(10) 0.7797(3) 0.28079(15)
C11 C 0.25430(8) 0.4283(2) 0.29449(14)
C12 C 0.29388(7) 0.3899(2) 0.37237(14)
C13 C 0.28568(7) 0.3881(2) 0.46624(13)
C14 C 0.32593(8) 0.3457(2) 0.55075(14)
H11 H 0.31333(8) 0.3512(2) 0.60770(14)
H12 H 0.35579(8) 0.3957(2) 0.55796(14)
H13 H 0.33455(8) 0.2627(2) 0.54097(14)
C15 C 0.26032(10) 0.4281(3) 0.1929(2)
H14 H 0.22932(10) 0.4566(3) 0.1504(2)
H15 H 0.26757(10) 0.3472(3) 0.1748(2)
H16 H 0.28799(10) 0.4812(3) 0.1889(2)
C16 C 0.39893(8) 0.2421(2) 0.27629(15)
H17 H 0.40284(8) 0.1749(2) 0.23592(15)
C17 C 0.35188(8) 0.2597(2) 0.2977(2)
H18 H 0.32422(8) 0.2048(2) 0.2724(2)
C18 C 0.34473(7) 0.3568(2) 0.35560(14)
C19 C 0.38762(7) 0.4281(2) 0.39443(14)
H19 H 0.38542(7) 0.4929(2) 0.43816(14)
C20 C 0.43333(8) 0.4053(2) 0.37011(14)
H20 H 0.46204(8) 0.4567(2) 0.39696(14)
Cl1F Cl 0.55038(2) 0.47073(4) 0.35865(3)
O1F O 0.30333(5) 0.86956(12) 0.57137(10)
O2F O 0.35716(5) 1.06389(13) 0.58832(11)
N1F N 0.46073(6) 0.7104(2) 0.32841(11)
C1F C 0.33338(7) 0.8252(2) 0.52356(13)
C2F C 0.37304(7) 0.8931(2) 0.49990(13)
C3F C 0.38458(7) 1.0101(2) 0.53924(15)
C4F C 0.43118(8) 1.0774(2) 0.5283(2)
H1F H 0.43265(8) 1.1550(2) 0.5596(2)
H2F H 0.46122(8) 1.0312(2) 0.5571(2)
H3F H 0.42945(8) 1.0893(2) 0.4613(2)
C5F C 0.32615(8) 0.6937(2) 0.4973(2)
H4F H 0.29751(8) 0.6623(2) 0.5184(2)
H5F H 0.31997(8) 0.6849(2) 0.4289(2)
H6F H 0.35640(8) 0.6494(2) 0.5279(2)
C6F C 0.47514(8) 0.7103(2) 0.42465(13)
H7F H 0.50501(8) 0.6646(2) 0.45528(13)
C7F C 0.44899(8) 0.7710(2) 0.48230(13)
H8F H 0.46142(8) 0.7696(2) 0.55095(13)
C8F C 0.40512(7) 0.8347(2) 0.44075(13)
C9F C 0.39048(10) 0.8377(3) 0.3409(2)
H9F H 0.36096(10) 0.8835(3) 0.3088(2)
C10F C 0.41907(10) 0.7764(3) 0.28808(15)
H10F H 0.40846(10) 0.7797(3) 0.21921(15)
Be1F Be 0.30226(10) 1.0131(2) 0.5941(2)
O3F O 0.78914(6) 0.46597(14) 0.19609(11)
O4F O 0.75638(5) 0.42175(13) 0.01568(10)
N2F N 0.56058(6) 0.3154(2) 0.18961(12)
C11F C 0.74570(8) 0.4283(2) 0.20551(14)
C12F C 0.70612(7) 0.3899(2) 0.12763(14)
C13F C 0.71432(7) 0.3881(2) 0.03376(13)
C14F C 0.67407(8) 0.3457(2) -0.05075(14)
H11F H 0.68667(8) 0.3512(2) -0.10770(14)
H12F H 0.64421(8) 0.3957(2) -0.05796(14)
H13F H 0.66545(8) 0.2627(2) -0.04097(14)
C15F C 0.73968(10) 0.4281(3) 0.3071(2)
H14F H 0.77068(10) 0.4566(3) 0.3496(2)
H15F H 0.73243(10) 0.3472(3) 0.3252(2)
H16F H 0.71201(10) 0.4812(3) 0.3111(2)
C16F C 0.60107(8) 0.2421(2) 0.22371(15)
H17F H 0.59716(8) 0.1749(2) 0.26408(15)
C17F C 0.64812(8) 0.2597(2) 0.2023(2)
H18F H 0.67578(8) 0.2048(2) 0.2276(2)
C18F C 0.65527(7) 0.3568(2) 0.14440(14)
C19F C 0.61238(7) 0.4281(2) 0.10557(14)
H19F H 0.61458(7) 0.4929(2) 0.06184(14)
C20F C 0.56667(8) 0.4053(2) 0.12989(14)
H20F H 0.53796(8) 0.4567(2) 0.10304(14)
O3C O 0.71086(6) 1.03403(14) -0.19609(11)
O4C O 0.74362(5) 1.07825(13) -0.01568(10)
Be1C Be 0.19774(10) 0.4869(2) 0.4059(2)
O3E O 0.28914(6) 1.03403(14) 0.69609(11)
O4E O 0.25638(5) 1.07825(13) 0.51568(10)
Be1E Be 0.80226(10) 0.4869(2) 0.0941(2)
loop_
_geom_bond_atom_site_label_1
_geom_bond_atom_site_label_2
_geom_bond_site_symmetry_1
_geom_bond_site_symmetry_2
Cu1 Cl1 1_555 1_555
Cu2 Cl1 1_555 1_555
Cl2 Cu2 1_555 1_555
Be1 O1 1_555 1_555
O1 C1 1_555 1_555
O2 Be1 1_555 1_555
O3 C11 1_555 1_555
O4 C13 1_555 1_555
N1 Cu1 1_555 1_555
N2 Cu2 1_555 1_555
C1 C2 1_555 1_555
C2 C3 1_555 1_555
C3 O2 1_555 1_555
C4 C3 1_555 1_555
H1 C4 1_555 1_555
H2 C4 1_555 1_555
H3 C4 1_555 1_555
C5 C1 1_555 1_555
H4 C5 1_555 1_555
H5 C5 1_555 1_555
H6 C5 1_555 1_555
C6 N1 1_555 1_555
H7 C6 1_555 1_555
C7 C6 1_555 1_555
H8 C7 1_555 1_555
C8 C2 1_555 1_555
C9 C8 1_555 1_555
H9 C9 1_555 1_555
C10 N1 1_555 1_555
H10 C10 1_555 1_555
C11 C12 1_555 1_555
C12 C13 1_555 1_555
C13 C14 1_555 1_555
C14 H11 1_555 1_555
H12 C14 1_555 1_555
H13 C14 1_555 1_555
C15 C11 1_555 1_555
H14 C15 1_555 1_555
H15 C15 1_555 1_555
H16 C15 1_555 1_555
C16 N2 1_555 1_555
H17 C16 1_555 1_555
C17 C16 1_555 1_555
H18 C17 1_555 1_555
C18 C12 1_555 1_555
C19 C18 1_555 1_555
H19 C19 1_555 1_555
C20 N2 1_555 1_555
H20 C20 1_555 1_555
Cl1F Cu1 1_555 1_555
O1F C1F 1_555 1_555
O2F C3F 1_555 1_555
N1F Cu1 1_555 1_555
C1F C2F 1_555 1_555
C2F C3F 1_555 1_555
C3F C4F 1_555 1_555
C4F H1F 1_555 1_555
H2F C4F 1_555 1_555
H3F C4F 1_555 1_555
C5F C1F 1_555 1_555
H4F C5F 1_555 1_555
H5F C5F 1_555 1_555
H6F C5F 1_555 1_555
C6F N1F 1_555 1_555
H7F C6F 1_555 1_555
C7F C6F 1_555 1_555
H8F C7F 1_555 1_555
C8F C2F 1_555 1_555
C9F C8F 1_555 1_555
H9F C9F 1_555 1_555
C10F N1F 1_555 1_555
H10F C10F 1_555 1_555
Be1F O1F 1_555 1_555
O3F C11F 1_555 1_555
O4F C13F 1_555 1_555
N2F Cu2 1_555 1_555
C11F C12F 1_555 1_555
C12F C13F 1_555 1_555
C13F C14F 1_555 1_555
C14F H11F 1_555 1_555
H12F C14F 1_555 1_555
H13F C14F 1_555 1_555
C15F C11F 1_555 1_555
H14F C15F 1_555 1_555
H15F C15F 1_555 1_555
H16F C15F 1_555 1_555
C16F N2F 1_555 1_555
H17F C16F 1_555 1_555
C17F C16F 1_555 1_555
H18F C17F 1_555 1_555
C18F C12F 1_555 1_555
C19F C18F 1_555 1_555
H19F C19F 1_555 1_555
C20F N2F 1_555 1_555
H20F C20F 1_555 1_555
O3C Be1 1_555 1_555
O4C Be1 1_555 1_555
Be1C O3 1_555 1_555
O3E Be1F 1_555 1_555
O4E Be1F 1_555 1_555
Be1E O3F 1_555 1_555
Cu2 Cl1F 1_555 1_555
O4 Be1C 1_555 1_555
C7 C8 1_555 1_555
C9 C10 1_555 1_555
C17 C18 1_555 1_555
C19 C20 1_555 1_555
O2F Be1F 1_555 1_555
C7F C8F 1_555 1_555
C9F C10F 1_555 1_555
O4F Be1E 1_555 1_555
C17F C18F 1_555 1_555
C19F C20F 1_555 1_555

#END
