
#######################################################################
#
#                 Cambridge Crystallographic Data Centre
#                                CCDC 
#
#######################################################################
#
# If this CIF has been generated from an entry in the Cambridge 
# Structural Database, then it will include bibliographic, chemical, 
# crystal, experimental, refinement or atomic coordinate data resulting 
# from the CCDC's data processing and validation procedures.
#
#######################################################################

data_JAFZIA
_symmetry_cell_setting           orthorhombic
_symmetry_space_group_name_H-M   'P 21 21 21'
_symmetry_Int_Tables_number      19
_space_group_name_Hall           'P 2ac 2ab'
loop_
_symmetry_equiv_pos_site_id
_symmetry_equiv_pos_as_xyz
1 x,y,z
2 1/2-x,-y,1/2+z
3 -x,1/2+y,1/2-z
4 1/2+x,1/2-y,-z
_cell_length_a                   14.1145(6)
_cell_length_b                   19.1011(7)
_cell_length_c                   19.2734(7)
_cell_angle_alpha                90
_cell_angle_beta                 90
_cell_angle_gamma                90
_cell_volume                     5196.16
loop_
_atom_site_label
_atom_site_type_symbol
_atom_site_fract_x
_atom_site_fract_y
_atom_site_fract_z
Gd1 Gd 0.811964(18) 0.672479(12) 0.266646(13)
Gd2 Gd 0.315298(18) 0.667701(12) 0.229809(13)
Na1 Na 0.57859(12) 0.72182(10) 0.23154(11)
Na2 Na 1.05505(13) 0.63109(10) 0.18771(11)
O1 O 0.8820(2) 0.76954(18) 0.32532(18)
O2 O 0.6996(2) 0.75506(17) 0.31243(17)
N1 N 0.8253(3) 0.8217(2) 0.3461(2)
C1 C 0.7286(4) 0.8123(3) 0.3376(3)
C2 C 0.6711(4) 0.8686(3) 0.3572(3)
H1 H 0.6043 0.8645 0.3532
C3 C 0.7093(5) 0.9294(3) 0.3820(3)
H2 H 0.6692 0.9681 0.3919
C4 C 0.8067(5) 0.9350(3) 0.3931(3)
H3 H 0.8330 0.9761 0.4132
C5 C 0.8637(4) 0.8802(3) 0.3742(3)
H4 H 0.9303 0.8832 0.3809
O3 O 0.9117(2) 0.69858(18) 0.17252(19)
O4 O 0.7292(2) 0.7185(2) 0.16903(19)
C6 C 0.8708(3) 0.7133(2) 0.1116(2)
N2 N 0.7759(3) 0.7250(2) 0.1110(3)
C7 C 0.7322(4) 0.7426(3) 0.0473(3)
H5 H 0.6661 0.7520 0.0458
C8 C 0.7849(4) 0.7460(3) -0.0123(3)
H6 H 0.7552 0.7572 -0.0551
C9 C 0.8829(4) 0.7328(3) -0.0102(3)
H7 H 0.9196 0.7341 -0.0515
C10 C 0.9244(4) 0.7182(3) 0.0523(3)
H8 H 0.9910 0.7114 0.0547
O5 O 0.8007(3) 0.56470(17) 0.20348(19)
O6 O 0.6609(2) 0.61760(16) 0.27454(18)
N3 N 0.6491(3) 0.5558(2) 0.2425(2)
C11 C 0.7234(4) 0.5284(3) 0.2056(3)
C12 C 0.7103(4) 0.4634(3) 0.1719(3)
H9 H 0.7600 0.4447 0.1443
C13 C 0.6269(5) 0.4269(3) 0.1784(4)
H10 H 0.6196 0.3823 0.1574
C14 C 0.5525(5) 0.4569(3) 0.2168(3)
H11 H 0.4938 0.4329 0.2214
C15 C 0.5654(4) 0.5209(3) 0.2474(3)
H12 H 0.5147 0.5413 0.2728
O7 O 0.8219(3) 0.61124(19) 0.37411(18)
O8 O 0.9685(2) 0.63624(18) 0.29584(18)
C16 C 0.9065(3) 0.6033(2) 0.4027(3)
N4 N 0.9834(3) 0.6176(2) 0.3603(2)
C17 C 1.0747(4) 0.6130(3) 0.3887(3)
H13 H 1.1283 0.6234 0.3607
C18 C 1.0867(4) 0.5939(3) 0.4555(3)
H14 H 1.1489 0.5912 0.4743
C19 C 1.0097(5) 0.5783(3) 0.4968(3)
H15 H 1.0184 0.5648 0.5438
C20 C 0.9204(4) 0.5825(3) 0.4691(3)
H16 H 0.8673 0.5707 0.4971
O9 O 0.4645(2) 0.64999(17) 0.17548(17)
O10 O 0.3067(3) 0.61479(19) 0.11703(18)
C21 C 0.3837(3) 0.6104(3) 0.0794(3)
N5 N 0.4666(3) 0.6279(2) 0.1104(2)
C22 C 0.5514(4) 0.6226(3) 0.0741(3)
H17 H 0.6092 0.6323 0.0974
C23 C 0.5535(4) 0.6038(3) 0.0067(3)
H18 H 0.6115 0.6017 -0.0182
C24 C 0.4663(5) 0.5875(3) -0.0258(3)
H19 H 0.4653 0.5748 -0.0734
C25 C 0.3835(4) 0.5900(3) 0.0110(3)
H20 H 0.3255 0.5775 -0.0109
O11 O 1.3335(2) 0.77911(18) 0.17759(18)
O12 O 1.1699(2) 0.72428(17) 0.20318(18)
C26 C 1.2083(3) 0.5245(2) 0.2719(3)
N6 N 1.2954(3) 0.5152(2) 0.3016(2)
C27 C 1.3188(5) 0.4522(3) 0.3297(3)
H21 H 1.3794 0.4465 0.3503
C28 C 1.2582(4) 0.3977(3) 0.3291(3)
H22 H 1.2766 0.3537 0.3475
C29 C 1.1680(4) 0.4070(3) 0.3010(3)
H23 H 1.1235 0.3697 0.3018
C30 C 1.1443(4) 0.4691(3) 0.2728(3)
H24 H 1.0831 0.4752 0.2533
O13 O 1.1909(2) 0.58498(16) 0.24268(17)
O14 O 1.3549(2) 0.56949(17) 0.30098(19)
C31 C 1.1729(3) 0.7914(2) 0.1918(2)
N7 N 1.2582(3) 0.8213(2) 0.1761(2)
C32 C 1.2659(4) 0.8913(3) 0.1610(3)
H25 H 1.3260 0.9104 0.1493
C33 C 1.1883(5) 0.9337(3) 0.1626(3)
H26 H 1.1935 0.9820 0.1513
C34 C 1.1015(4) 0.9052(3) 0.1810(3)
H27 H 1.0474 0.9345 0.1847
C35 C 1.0933(3) 0.8352(3) 0.1939(3)
H28 H 1.0330 0.8159 0.2044
O15 O 0.2623(3) 0.7212(2) 0.3343(2)
O16 O 0.4411(2) 0.70983(18) 0.3026(2)
C36 C 0.3258(4) 0.7306(2) 0.3844(2)
N8 N 0.4185(4) 0.7241(2) 0.3672(3)
C37 C 0.4882(4) 0.7320(3) 0.4177(3)
H29 H 0.5534 0.7276 0.4063
C38 C 0.4607(6) 0.7461(3) 0.4840(3)
H30 H 0.5073 0.7513 0.5192
C39 C 0.3649(6) 0.7530(3) 0.5009(3)
H31 H 0.3464 0.7638 0.5471
C40 C 0.2989(5) 0.7441(3) 0.4510(3)
H32 H 0.2335 0.7474 0.4624
O17 O 0.5193(3) 0.8185(2) 0.1667(2)
H33 H 0.529(3) 0.829(3) 0.2172(10)
H34 H 0.4503(17) 0.809(3) 0.183(2)
O18 O 0.9739(3) 0.5219(2) 0.1614(3)
H35 H 0.906(2) 0.504(3) 0.174(3)
H36 H 0.962(4) 0.483(3) 0.124(2)
O19 O 1.1202(3) 0.6279(2) 0.0735(2)
H37 H 1.101(4) 0.599(2) 0.0307(17)
H38 H 1.105(4) 0.5803(18) 0.098(2)
O11_2 O 0.3335(2) 0.77911(18) 0.17759(18)
O12_2 O 0.1699(2) 0.72428(17) 0.20318(18)
O13_2 O 0.1909(2) 0.58498(16) 0.24268(17)
O14_2 O 0.3549(2) 0.56949(17) 0.30098(19)
Gd2_2 Gd 1.315298(18) 0.667701(12) 0.229809(13)
O20 O 0.0822(3) 0.7829(2) 0.36343(19)
H39 H 0.147(2) 0.796(3) 0.384(2)
H40 H 0.075(4) 0.763(3) 0.4139(14)
O21 O 0.6610(3) 0.5676(3) 0.4392(3)
H41 H 0.627(4) 0.616(2) 0.434(4)
H42 H 0.713(3) 0.598(3) 0.414(3)
O22 O 0.4570(4) 0.5601(2) 0.4213(3)
H43 H 0.390(3) 0.570(4) 0.443(4)
H44 H 0.466(5) 0.6109(18) 0.443(4)
O23 O 0.9134(4) 0.4113(2) 0.0703(3)
H45 H 0.877(4) 0.389(3) 0.030(2)
H46 H 0.895(5) 0.363(2) 0.092(3)
O24 O 0.4891(3) 0.4179(2) 0.4548(2)
H47 H 0.512(4) 0.4703(15) 0.463(3)
H48 H 0.439(3) 0.448(3) 0.428(3)
O25 O 0.6706(5) 0.4373(3) 0.5194(4)
H49 H 0.679(7) 0.490(2) 0.497(4)
H50 H 0.637(6) 0.474(4) 0.555(3)
loop_
_geom_bond_atom_site_label_1
_geom_bond_atom_site_label_2
_geom_bond_site_symmetry_1
_geom_bond_site_symmetry_2
Gd1 O1 1_555 1_555
Gd2 O9 1_555 1_555
Na1 O2 1_555 1_555
Na2 O3 1_555 1_555
O1 N1 1_555 1_555
O2 Gd1 1_555 1_555
N1 C1 1_555 1_555
C1 O2 1_555 1_555
C2 C1 1_555 1_555
H1 C2 1_555 1_555
C3 C2 1_555 1_555
H2 C3 1_555 1_555
C4 C3 1_555 1_555
H3 C4 1_555 1_555
C5 N1 1_555 1_555
H4 C5 1_555 1_555
O3 Gd1 1_555 1_555
O4 Gd1 1_555 1_555
C6 O3 1_555 1_555
N2 O4 1_555 1_555
C7 N2 1_555 1_555
H5 C7 1_555 1_555
C8 C7 1_555 1_555
H6 C8 1_555 1_555
C9 C8 1_555 1_555
H7 C9 1_555 1_555
C10 C6 1_555 1_555
H8 C10 1_555 1_555
O5 Gd1 1_555 1_555
O6 Gd1 1_555 1_555
N3 O6 1_555 1_555
C11 O5 1_555 1_555
C12 C11 1_555 1_555
H9 C12 1_555 1_555
C13 C12 1_555 1_555
H10 C13 1_555 1_555
C14 C13 1_555 1_555
H11 C14 1_555 1_555
C15 N3 1_555 1_555
H12 C15 1_555 1_555
O7 Gd1 1_555 1_555
O8 Gd1 1_555 1_555
C16 O7 1_555 1_555
N4 O8 1_555 1_555
C17 N4 1_555 1_555
H13 C17 1_555 1_555
C18 C17 1_555 1_555
H14 C18 1_555 1_555
C19 C18 1_555 1_555
H15 C19 1_555 1_555
C20 C16 1_555 1_555
H16 C20 1_555 1_555
O9 Na1 1_555 1_555
O10 Gd2 1_555 1_555
C21 O10 1_555 1_555
N5 O9 1_555 1_555
C22 N5 1_555 1_555
H17 C22 1_555 1_555
C23 C22 1_555 1_555
H18 C23 1_555 1_555
C24 C23 1_555 1_555
H19 C24 1_555 1_555
C25 C21 1_555 1_555
H20 C25 1_555 1_555
O11 N7 1_555 1_555
O12 Na2 1_555 1_555
C26 N6 1_555 1_555
N6 C27 1_555 1_555
C27 H21 1_555 1_555
C28 C27 1_555 1_555
H22 C28 1_555 1_555
C29 C28 1_555 1_555
H23 C29 1_555 1_555
C30 C26 1_555 1_555
H24 C30 1_555 1_555
O13 Na2 1_555 1_555
O14 N6 1_555 1_555
C31 O12 1_555 1_555
N7 C31 1_555 1_555
C32 N7 1_555 1_555
H25 C32 1_555 1_555
C33 C32 1_555 1_555
H26 C33 1_555 1_555
C34 C33 1_555 1_555
H27 C34 1_555 1_555
C35 C31 1_555 1_555
H28 C35 1_555 1_555
O15 Gd2 1_555 1_555
O16 Gd2 1_555 1_555
C36 O15 1_555 1_555
N8 O16 1_555 1_555
C37 N8 1_555 1_555
H29 C37 1_555 1_555
C38 C37 1_555 1_555
H30 C38 1_555 1_555
C39 C38 1_555 1_555
H31 C39 1_555 1_555
C40 C36 1_555 1_555
H32 C40 1_555 1_555
O17 Na1 1_555 1_555
H33 O17 1_555 1_555
H34 O17 1_555 1_555
O18 Na2 1_555 1_555
H35 O18 1_555 1_555
H36 O18 1_555 1_555
O19 Na2 1_555 1_555
H37 O19 1_555 1_555
H38 O19 1_555 1_555
O20 H39 1_555 1_555
H40 O20 1_555 1_555
O21 H41 1_555 1_555
H42 O21 1_555 1_555
O22 H43 1_555 1_555
H44 O22 1_555 1_555
O23 H45 1_555 1_555
H46 O23 1_555 1_555
O24 H47 1_555 1_555
H48 O24 1_555 1_555
O25 H49 1_555 1_555
H50 O25 1_555 1_555
O11_2 Gd2 1_555 1_555
O12_2 Gd2 1_555 1_555
O13_2 Gd2 1_555 1_555
O14_2 Gd2 1_555 1_555
Gd2_2 O11 1_555 1_555
Na1 O4 1_555 1_555
Na1 O6 1_555 1_555
Na1 O16 1_555 1_555
Na2 O8 1_555 1_555
C4 C5 1_555 1_555
C6 N2 1_555 1_555
C9 C10 1_555 1_555
N3 C11 1_555 1_555
C14 C15 1_555 1_555
C16 N4 1_555 1_555
C19 C20 1_555 1_555
C21 N5 1_555 1_555
C24 C25 1_555 1_555
O12 Gd2_2 1_555 1_555
C26 O13 1_555 1_555
C29 C30 1_555 1_555
O13 Gd2_2 1_555 1_555
O14 Gd2_2 1_555 1_555
C34 C35 1_555 1_555
C36 N8 1_555 1_555
C39 C40 1_555 1_555

#END
