
#######################################################################
#
#                 Cambridge Crystallographic Data Centre
#                                CCDC 
#
#######################################################################
#
# If this CIF has been generated from an entry in the Cambridge 
# Structural Database, then it will include bibliographic, chemical, 
# crystal, experimental, refinement or atomic coordinate data resulting 
# from the CCDC's data processing and validation procedures.
#
#######################################################################

data_JAFZEW
_symmetry_cell_setting           orthorhombic
_symmetry_space_group_name_H-M   'P 21 21 21'
_symmetry_Int_Tables_number      19
_space_group_name_Hall           'P 2ac 2ab'
loop_
_symmetry_equiv_pos_site_id
_symmetry_equiv_pos_as_xyz
1 x,y,z
2 1/2-x,-y,1/2+z
3 -x,1/2+y,1/2-z
4 1/2+x,1/2-y,-z
_cell_length_a                   14.1076(5)
_cell_length_b                   19.1111(7)
_cell_length_c                   19.2936(7)
_cell_angle_alpha                90
_cell_angle_beta                 90
_cell_angle_gamma                90
_cell_volume                     5201.78
loop_
_atom_site_label
_atom_site_type_symbol
_atom_site_fract_x
_atom_site_fract_y
_atom_site_fract_z
Eu1 Eu 0.812752(9) 0.672921(6) 0.266817(6)
Eu2 Eu 0.315922(9) 0.668142(6) 0.229546(6)
Na1 Na 0.57911(7) 0.72225(6) 0.23101(7)
Na2 Na 1.05533(8) 0.63154(6) 0.18724(6)
O1 O 0.88220(15) 0.77075(11) 0.32544(12)
O2 O 0.70036(14) 0.75601(10) 0.31182(11)
N1 N 0.82546(17) 0.82302(12) 0.34617(12)
C1 C 0.7295(2) 0.81427(15) 0.33723(14)
C2 C 0.6710(2) 0.87086(16) 0.35570(17)
H1 H 0.6043 0.8672 0.3501
C3 C 0.7096(3) 0.93147(18) 0.3819(2)
H2 H 0.6696 0.9701 0.3923
C4 C 0.8074(3) 0.93667(18) 0.3933(2)
H3 H 0.8340 0.9775 0.4136
C5 C 0.8635(3) 0.88173(17) 0.37472(18)
H4 H 0.9300 0.8845 0.3818
O3 O 0.91293(14) 0.69933(11) 0.17181(10)
O4 O 0.73070(14) 0.71947(12) 0.16785(11)
C6 C 0.87149(18) 0.71416(13) 0.11075(13)
N2 N 0.7761(2) 0.72528(14) 0.11011(14)
C7 C 0.7333(2) 0.74309(16) 0.04686(16)
H5 H 0.6673 0.7532 0.0455
C8 C 0.7855(3) 0.74612(17) -0.01302(15)
H6 H 0.7561 0.7576 -0.0558
C9 C 0.8830(3) 0.73200(19) -0.01024(18)
H7 H 0.9196 0.7320 -0.0516
C10 C 0.9249(2) 0.71826(16) 0.05155(16)
H8 H 0.9915 0.7114 0.0538
O5 O 0.80022(15) 0.56550(11) 0.20291(13)
O6 O 0.66091(13) 0.61785(10) 0.27409(11)
N3 N 0.64882(17) 0.55627(13) 0.24260(13)
C11 C 0.7232(2) 0.52913(15) 0.20507(16)
C12 C 0.7095(3) 0.46472(17) 0.1727(2)
H9 H 0.7591 0.4452 0.1455
C13 C 0.6257(3) 0.4290(2) 0.1793(2)
H10 H 0.6180 0.3847 0.1577
C14 C 0.5524(3) 0.4576(2) 0.2176(2)
H11 H 0.4942 0.4330 0.2226
C15 C 0.5644(2) 0.52150(19) 0.24819(17)
H12 H 0.5137 0.5419 0.2735
O7 O 0.82411(15) 0.61125(11) 0.37427(10)
O8 O 0.97004(14) 0.63691(11) 0.29608(11)
C16 C 0.90882(19) 0.60330(14) 0.40190(14)
N4 N 0.98579(18) 0.61724(14) 0.36055(13)
C17 C 1.0762(2) 0.61260(17) 0.38787(17)
H13 H 1.1295 0.6230 0.3596
C18 C 1.0892(3) 0.59302(19) 0.45557(19)
H14 H 1.1514 0.5903 0.4742
C19 C 1.0112(3) 0.57717(19) 0.49696(18)
H15 H 1.0198 0.5632 0.5438
C20 C 0.9222(2) 0.58194(17) 0.46926(16)
H16 H 0.8688 0.5703 0.4970
O9 O 0.46570(14) 0.65056(11) 0.17435(10)
O10 O 0.30778(15) 0.61538(11) 0.11607(10)
C21 C 0.38465(19) 0.61115(14) 0.07866(14)
N5 N 0.46860(19) 0.62842(13) 0.11004(14)
C22 C 0.5528(2) 0.62354(17) 0.07337(18)
H17 H 0.6111 0.6334 0.0960
C23 C 0.5529(3) 0.6047(2) 0.00518(19)
H18 H 0.6107 0.6025 -0.0199
C24 C 0.4670(3) 0.5887(2) -0.02743(18)
H19 H 0.4660 0.5759 -0.0750
C25 C 0.3843(3) 0.59151(17) 0.00975(16)
H20 H 0.3261 0.5799 -0.0121
O11 O 1.33373(14) 0.77992(11) 0.17665(11)
O12 O 1.16972(14) 0.72519(11) 0.20290(12)
C26 C 1.20868(18) 0.52469(13) 0.27103(15)
N6 N 1.29452(18) 0.51515(14) 0.30125(15)
C27 C 1.3187(3) 0.45208(17) 0.3300(2)
H21 H 1.3795 0.4465 0.3505
C28 C 1.2571(3) 0.39735(19) 0.3297(2)
H22 H 1.2752 0.3534 0.3486
C29 C 1.1687(3) 0.40633(17) 0.3019(2)
H23 H 1.1242 0.3690 0.3032
C30 C 1.1439(2) 0.46904(16) 0.27192(18)
H24 H 1.0829 0.4746 0.2518
O13 O 1.19088(14) 0.58482(10) 0.24197(10)
O14 O 1.35451(15) 0.56914(11) 0.30116(13)
C31 C 1.17243(18) 0.79191(14) 0.19105(14)
N7 N 1.25875(18) 0.82172(14) 0.17598(12)
C32 C 1.2662(2) 0.89112(17) 0.16039(19)
H25 H 1.3260 0.9099 0.1476
C33 C 1.1879(3) 0.93437(17) 0.1629(2)
H26 H 1.1935 0.9828 0.1526
C34 C 1.1016(3) 0.9059(2) 0.18063(18)
H27 H 1.0475 0.9352 0.1837
C35 C 1.0928(2) 0.83588(19) 0.19391(17)
H28 H 1.0325 0.8169 0.2051
O15 O 0.26372(16) 0.72142(13) 0.33370(12)
O16 O 0.44176(14) 0.71022(11) 0.30178(11)
C36 C 0.3269(2) 0.73064(14) 0.38357(13)
N8 N 0.4211(2) 0.72433(14) 0.36615(14)
C37 C 0.4888(3) 0.73262(18) 0.41732(19)
H29 H 0.5541 0.7288 0.4060
C38 C 0.4620(4) 0.7464(2) 0.48453(19)
H30 H 0.5089 0.7516 0.5195
C39 C 0.3668(5) 0.7528(2) 0.5014(2)
H31 H 0.3484 0.7625 0.5478
C40 C 0.3001(3) 0.74511(19) 0.45118(18)
H32 H 0.2348 0.7497 0.4625
O17 O 0.52006(17) 0.81918(14) 0.16780(17)
H33 H 0.4669(17) 0.813(2) 0.176(2)
H34 H 0.525(3) 0.843(2) 0.1360(17)
O18 O 0.9742(2) 0.52236(17) 0.1607(2)
H35 H 0.927(2) 0.536(3) 0.177(2)
H36 H 0.961(4) 0.505(3) 0.1253(16)
O19 O 1.11986(18) 0.62761(17) 0.07386(14)
H37 H 1.105(3) 0.616(2) 0.0370(14)
H38 H 1.1734(15) 0.623(2) 0.079(2)
O11_2 O 0.33373(14) 0.77992(11) 0.17665(11)
O12_2 O 0.16972(14) 0.72519(11) 0.20290(12)
O13_2 O 0.19088(14) 0.58482(10) 0.24197(10)
O14_2 O 0.35451(15) 0.56914(11) 0.30116(13)
Eu2_2 Eu 1.315922(9) 0.668142(6) 0.229546(6)
O20 O 0.08426(19) 0.78448(16) 0.36513(14)
H39 H 0.037(2) 0.779(3) 0.348(2)
H40 H 0.127(2) 0.772(3) 0.348(3)
O21 O 0.6628(2) 0.5677(2) 0.4397(2)
H41 H 0.604(2) 0.575(3) 0.418(3)
H42 H 0.678(4) 0.6107(19) 0.418(3)
O22 O 0.4587(3) 0.55988(18) 0.4218(2)
H43 H 0.400(2) 0.559(3) 0.445(2)
H44 H 0.420(3) 0.566(3) 0.3817(16)
O23 O 0.9138(3) 0.41206(16) 0.0706(2)
H45 H 0.878(3) 0.404(3) 0.0311(16)
H46 H 0.878(3) 0.378(2) 0.092(2)
O24 O 0.4885(2) 0.41901(17) 0.45490(17)
H47 H 0.4253(19) 0.402(2) 0.449(3)
H48 H 0.463(3) 0.4636(12) 0.449(3)
O25 O 0.6704(4) 0.4360(2) 0.5189(3)
H49 H 0.681(6) 0.4834(18) 0.502(3)
H50 H 0.650(5) 0.462(3) 0.560(2)
loop_
_geom_bond_atom_site_label_1
_geom_bond_atom_site_label_2
_geom_bond_site_symmetry_1
_geom_bond_site_symmetry_2
Eu1 O1 1_555 1_555
Eu2 O9 1_555 1_555
Na1 O2 1_555 1_555
Na2 O3 1_555 1_555
O1 N1 1_555 1_555
O2 Eu1 1_555 1_555
N1 C1 1_555 1_555
C1 O2 1_555 1_555
C2 C1 1_555 1_555
H1 C2 1_555 1_555
C3 C2 1_555 1_555
H2 C3 1_555 1_555
C4 C3 1_555 1_555
H3 C4 1_555 1_555
C5 N1 1_555 1_555
H4 C5 1_555 1_555
O3 Eu1 1_555 1_555
O4 Eu1 1_555 1_555
C6 O3 1_555 1_555
N2 O4 1_555 1_555
C7 N2 1_555 1_555
H5 C7 1_555 1_555
C8 C7 1_555 1_555
H6 C8 1_555 1_555
C9 C8 1_555 1_555
H7 C9 1_555 1_555
C10 C6 1_555 1_555
H8 C10 1_555 1_555
O5 Eu1 1_555 1_555
O6 Eu1 1_555 1_555
N3 O6 1_555 1_555
C11 O5 1_555 1_555
C12 C11 1_555 1_555
H9 C12 1_555 1_555
C13 C12 1_555 1_555
H10 C13 1_555 1_555
C14 C13 1_555 1_555
H11 C14 1_555 1_555
C15 N3 1_555 1_555
H12 C15 1_555 1_555
O7 Eu1 1_555 1_555
O8 Eu1 1_555 1_555
C16 O7 1_555 1_555
N4 O8 1_555 1_555
C17 N4 1_555 1_555
H13 C17 1_555 1_555
C18 C17 1_555 1_555
H14 C18 1_555 1_555
C19 C18 1_555 1_555
H15 C19 1_555 1_555
C20 C16 1_555 1_555
H16 C20 1_555 1_555
O9 Na1 1_555 1_555
O10 Eu2 1_555 1_555
C21 O10 1_555 1_555
N5 O9 1_555 1_555
C22 N5 1_555 1_555
H17 C22 1_555 1_555
C23 C22 1_555 1_555
H18 C23 1_555 1_555
C24 C23 1_555 1_555
H19 C24 1_555 1_555
C25 C21 1_555 1_555
H20 C25 1_555 1_555
O11 N7 1_555 1_555
O12 Na2 1_555 1_555
C26 N6 1_555 1_555
N6 C27 1_555 1_555
C27 H21 1_555 1_555
C28 C27 1_555 1_555
H22 C28 1_555 1_555
C29 C28 1_555 1_555
H23 C29 1_555 1_555
C30 C26 1_555 1_555
H24 C30 1_555 1_555
O13 Na2 1_555 1_555
O14 N6 1_555 1_555
C31 O12 1_555 1_555
N7 C31 1_555 1_555
C32 N7 1_555 1_555
H25 C32 1_555 1_555
C33 C32 1_555 1_555
H26 C33 1_555 1_555
C34 C33 1_555 1_555
H27 C34 1_555 1_555
C35 C31 1_555 1_555
H28 C35 1_555 1_555
O15 Eu2 1_555 1_555
O16 Eu2 1_555 1_555
C36 O15 1_555 1_555
N8 O16 1_555 1_555
C37 N8 1_555 1_555
H29 C37 1_555 1_555
C38 C37 1_555 1_555
H30 C38 1_555 1_555
C39 C38 1_555 1_555
H31 C39 1_555 1_555
C40 C36 1_555 1_555
H32 C40 1_555 1_555
O17 Na1 1_555 1_555
H33 O17 1_555 1_555
H34 O17 1_555 1_555
O18 Na2 1_555 1_555
H35 O18 1_555 1_555
H36 O18 1_555 1_555
O19 Na2 1_555 1_555
H37 O19 1_555 1_555
H38 O19 1_555 1_555
O20 H39 1_555 1_555
H40 O20 1_555 1_555
O21 H41 1_555 1_555
H42 O21 1_555 1_555
O22 H43 1_555 1_555
H44 O22 1_555 1_555
O23 H45 1_555 1_555
H46 O23 1_555 1_555
O24 H47 1_555 1_555
H48 O24 1_555 1_555
O25 H49 1_555 1_555
H50 O25 1_555 1_555
O11_2 Eu2 1_555 1_555
O12_2 Eu2 1_555 1_555
O13_2 Eu2 1_555 1_555
O14_2 Eu2 1_555 1_555
Eu2_2 O11 1_555 1_555
Na1 O4 1_555 1_555
Na1 O6 1_555 1_555
Na1 O16 1_555 1_555
Na2 O8 1_555 1_555
C4 C5 1_555 1_555
C6 N2 1_555 1_555
C9 C10 1_555 1_555
N3 C11 1_555 1_555
C14 C15 1_555 1_555
C16 N4 1_555 1_555
C19 C20 1_555 1_555
C21 N5 1_555 1_555
C24 C25 1_555 1_555
O12 Eu2_2 1_555 1_555
C26 O13 1_555 1_555
C29 C30 1_555 1_555
O13 Eu2_2 1_555 1_555
O14 Eu2_2 1_555 1_555
C34 C35 1_555 1_555
C36 N8 1_555 1_555
C39 C40 1_555 1_555

#END
