
#######################################################################
#
#                 Cambridge Crystallographic Data Centre
#                                CCDC 
#
#######################################################################
#
# If this CIF has been generated from an entry in the Cambridge 
# Structural Database, then it will include bibliographic, chemical, 
# crystal, experimental, refinement or atomic coordinate data resulting 
# from the CCDC's data processing and validation procedures.
#
#######################################################################

data_JAGBUP
_symmetry_cell_setting           monoclinic
_symmetry_space_group_name_H-M   'P 21/c'
_symmetry_Int_Tables_number      14
_space_group_name_Hall           '-P 2ybc'
loop_
_symmetry_equiv_pos_site_id
_symmetry_equiv_pos_as_xyz
1 x,y,z
2 x,1/2-y,1/2+z
3 -x,-y,-z
4 -x,1/2+y,1/2-z
_cell_length_a                   13.70(2)
_cell_length_b                   9.979(16)
_cell_length_c                   19.23(4)
_cell_angle_alpha                90
_cell_angle_beta                 109.56(15)
_cell_angle_gamma                90
_cell_volume                     2477.26
loop_
_atom_site_label
_atom_site_type_symbol
_atom_site_fract_x
_atom_site_fract_y
_atom_site_fract_z
Cu1 Cu 0.73533(4) 0.18560(5) 0.01287(3)
N1 N 0.8026(3) 0.0278(3) -0.01482(18)
N2 N 0.6886(3) 0.0273(3) 0.0842(2)
N3 N 1.1053(3) 0.5078(3) -0.15197(18)
N4 N 1.2090(3) 0.6550(3) -0.07655(18)
N5 N 0.4723(3) 0.6267(3) 0.16850(18)
N6 N 0.3855(3) 0.7472(3) 0.07090(18)
C1 C 0.7579(4) -0.0975(4) 0.0026(3)
H1 H 0.8026 -0.1740 0.0002
H2 H 0.6887 -0.1123 -0.0348
C2 C 0.7480(4) -0.0919(5) 0.0772(3)
H3 H 0.7126 -0.1737 0.0856
H4 H 0.8178 -0.0889 0.1151
C3 C 0.8618(4) 0.0155(4) -0.0536(2)
H5 H 0.8790 -0.0729 -0.0636
C4 C 0.9054(3) 0.1260(4) -0.0839(2)
C5 C 0.9051(3) 0.2596(4) -0.0626(2)
H6 H 0.8790 0.2821 -0.0242
C6 C 0.9421(4) 0.3587(4) -0.0965(3)
H7 H 0.9431 0.4486 -0.0802
C7 C 0.9782(3) 0.3303(4) -0.1543(2)
C8 C 0.9787(4) 0.1999(4) -0.1759(2)
H8 H 1.0029 0.1785 -0.2154
C9 C 0.9435(4) 0.0972(4) -0.1403(3)
H9 H 0.9460 0.0068 -0.1551
C10 C 1.0094(3) 0.4406(4) -0.1960(2)
H10 H 0.9530 0.5076 -0.2120
H11 H 1.0188 0.4025 -0.2409
C11 C 0.7020(3) 0.0681(4) 0.1482(3)
H12 H 0.7506 0.0214 0.1878
C12 C 0.6481(3) 0.1829(4) 0.1667(2)
C13 C 0.5545(3) 0.2274(4) 0.1186(2)
H13 H 0.5240 0.1835 0.0726
C14 C 0.5049(4) 0.3352(4) 0.1370(2)
H14 H 0.4402 0.3645 0.1036
C15 C 0.5490(3) 0.4015(4) 0.2040(2)
C16 C 0.6419(4) 0.3570(4) 0.2523(2)
H15 H 0.6728 0.4012 0.2982
C17 C 0.6904(4) 0.2477(4) 0.2337(3)
H16 H 0.7540 0.2166 0.2677
C18 C 0.4944(4) 0.5197(4) 0.2238(2)
H17 H 0.5382 0.5560 0.2720
H18 H 0.4286 0.4888 0.2289
C19 C 1.1126(4) 0.6256(4) -0.1159(2)
H19 H 1.0549 0.6808 -0.1187
C20 C 1.2655(4) 0.5497(4) -0.0891(3)
H20 H 1.3386 0.5413 -0.0683
C21 C 1.2029(4) 0.4599(4) -0.1350(2)
H21 H 1.2232 0.3789 -0.1521
C22 C 0.3812(4) 0.6435(4) 0.1133(2)
H22 H 0.3220 0.5885 0.1057
C23 C 0.4849(4) 0.7958(4) 0.1012(2)
H23 H 0.5119 0.8704 0.0828
C24 C 0.5383(4) 0.7222(4) 0.1606(3)
H24 H 0.6084 0.7348 0.1909
N4B N 0.7910(3) 0.3450(3) 0.07655(18)
N6B N 0.6145(3) 0.2528(3) -0.07090(18)
Cu1B Cu 1.26467(4) 0.81440(5) -0.01287(3)
Cu1B_2 Cu 0.26467(4) 0.81440(5) -0.01287(3)
F1 F 0.7344(2) 0.8104(3) -0.17979(16)
F2 F 0.8777(4) 0.6992(5) -0.1085(3)
F4 F 0.8481(8) 0.7205(7) -0.2289(4)
F6 F 0.7538(5) 0.5824(7) -0.1904(4)
B1 B 0.7989(5) 0.7065(5) -0.1779(3)
F3? F 0.8970(7) 0.7396(10) -0.1362(6)
F5? F 0.8013(9) 0.6971(9) -0.2516(5)
F7? F 0.7508(10) 0.5978(13) -0.1630(8)
loop_
_geom_bond_atom_site_label_1
_geom_bond_atom_site_label_2
_geom_bond_site_symmetry_1
_geom_bond_site_symmetry_2
Cu1 N1 1_555 1_555
F1 B1 1_555 1_555
F2 B1 1_555 1_555
F4 B1 1_555 1_555
F6 B1 1_555 1_555
N1 C1 1_555 1_555
N2 Cu1 1_555 1_555
N3 C10 1_555 1_555
N4 C19 1_555 1_555
N5 C18 1_555 1_555
N6 C22 1_555 1_555
C1 H1 1_555 1_555
H2 C1 1_555 1_555
C2 N2 1_555 1_555
H3 C2 1_555 1_555
H4 C2 1_555 1_555
C3 N1 1_555 1_555
H5 C3 1_555 1_555
C4 C3 1_555 1_555
C5 C4 1_555 1_555
H6 C5 1_555 1_555
C6 C5 1_555 1_555
H7 C6 1_555 1_555
C7 C6 1_555 1_555
C8 C7 1_555 1_555
H8 C8 1_555 1_555
C9 C4 1_555 1_555
H9 C9 1_555 1_555
C10 C7 1_555 1_555
H10 C10 1_555 1_555
H11 C10 1_555 1_555
C11 N2 1_555 1_555
H12 C11 1_555 1_555
C12 C11 1_555 1_555
C13 C12 1_555 1_555
H13 C13 1_555 1_555
C14 C13 1_555 1_555
H14 C14 1_555 1_555
C15 C14 1_555 1_555
C16 C15 1_555 1_555
H15 C16 1_555 1_555
C17 C12 1_555 1_555
H16 C17 1_555 1_555
C18 C15 1_555 1_555
H17 C18 1_555 1_555
H18 C18 1_555 1_555
C19 N3 1_555 1_555
H19 C19 1_555 1_555
C20 N4 1_555 1_555
H20 C20 1_555 1_555
C21 N3 1_555 1_555
H21 C21 1_555 1_555
C22 N5 1_555 1_555
H22 C22 1_555 1_555
C23 N6 1_555 1_555
H23 C23 1_555 1_555
C24 N5 1_555 1_555
H24 C24 1_555 1_555
N4B Cu1 1_555 1_555
N6B Cu1 1_555 1_555
Cu1B N4 1_555 1_555
Cu1B_2 N6 1_555 1_555
C1 C2 1_555 1_555
C8 C9 1_555 1_555
C16 C17 1_555 1_555
C20 C21 1_555 1_555
C23 C24 1_555 1_555

#END
