
#######################################################################
#
#                 Cambridge Crystallographic Data Centre
#                                CCDC 
#
#######################################################################
#
# If this CIF has been generated from an entry in the Cambridge 
# Structural Database, then it will include bibliographic, chemical, 
# crystal, experimental, refinement or atomic coordinate data resulting 
# from the CCDC's data processing and validation procedures.
#
#######################################################################

data_JAGBEZ
_symmetry_cell_setting           triclinic
_symmetry_space_group_name_H-M   'P -1'
_symmetry_Int_Tables_number      2
_space_group_name_Hall           '-P 1'
loop_
_symmetry_equiv_pos_site_id
_symmetry_equiv_pos_as_xyz
1 x,y,z
2 -x,-y,-z
_cell_length_a                   8.879(7)
_cell_length_b                   9.997(12)
_cell_length_c                   35.53(3)
_cell_angle_alpha                94.69(9)
_cell_angle_beta                 90.38(7)
_cell_angle_gamma                115.90(8)
_cell_volume                     2824.34
loop_
_atom_site_label
_atom_site_type_symbol
_atom_site_fract_x
_atom_site_fract_y
_atom_site_fract_z
Ag1 Ag 0.69420(5) 0.33576(5) 0.228115(11)
Ag2 Ag 0.33998(6) -0.02463(7) 0.520961(13)
Ag3 Ag 0.65343(6) -0.37395(5) -0.014660(11)
N1 N 0.5157(5) 0.2509(5) 0.28221(11)
H1 H 0.5569 0.3296 0.3011
N2 N 0.7524(5) 0.1483(5) 0.24858(11)
H2 H 0.6722 0.0583 0.2369
N3 N 0.6617(5) 0.4261(5) 0.17167(11)
H3 H 0.7198 0.3980 0.1535
N4 N 0.8845(5) 0.5990(5) 0.23921(11)
H4 H 0.9864 0.6065 0.2485
N5 N 0.1005(7) 0.1418(8) 0.44757(13)
N6 N 0.2518(7) 0.0961(7) 0.48888(12)
N7 N 0.8641(5) 0.0388(5) 0.05444(12)
N8 N 0.7242(6) -0.1645(5) 0.01647(12)
N9 N 0.2959(6) -0.3172(5) 0.09444(13)
N10 N 0.3855(6) -0.4412(5) 0.05387(12)
N11 N 0.6359(6) 0.3687(6) 0.42161(11)
N12 N 0.6165(6) 0.1658(7) 0.44429(12)
C1 C 0.5482(7) 0.1284(6) 0.29614(14)
H5 H 0.5302 0.1256 0.3236
H6 H 0.4672 0.0315 0.2832
C2 C 0.7215(7) 0.1484(7) 0.28929(14)
H7 H 0.8028 0.2441 0.3027
H8 H 0.7384 0.0666 0.2996
C3 C 0.7441(7) 0.5916(6) 0.17804(14)
H9 H 0.6684 0.6260 0.1916
H10 H 0.7657 0.6344 0.1534
C4 C 0.9086(6) 0.6472(7) 0.20103(15)
H11 H 0.9823 0.6096 0.1878
H12 H 0.9655 0.7577 0.2027
C5 C 0.3342(6) 0.2096(7) 0.27621(13)
H13 H 0.2837 0.1181 0.2584
H14 H 0.3229 0.2905 0.2640
C6 C 0.2359(6) 0.1823(6) 0.31138(13)
C7 C 0.2122(7) 0.2968(7) 0.33090(14)
H15 H 0.2551 0.3921 0.3214
C8 C 0.1265(7) 0.2739(8) 0.36415(15)
H16 H 0.1111 0.3536 0.3771
C9 C 0.0641(7) 0.1377(8) 0.37842(15)
C10 C 0.0844(7) 0.0200(8) 0.35841(16)
H17 H 0.0393 -0.0758 0.3676
C11 C 0.1697(7) 0.0429(7) 0.32541(14)
H18 H 0.1834 -0.0372 0.3121
C12 C -0.0207(9) 0.1136(11) 0.41565(17)
H19 H -0.0747 0.1815 0.4197
H20 H -0.1093 0.0096 0.4148
C13 C 0.9163(7) 0.1555(7) 0.24008(15)
H21 H 0.9259 0.0690 0.2496
H22 H 1.0053 0.2477 0.2532
C14 C 0.9405(6) 0.1543(6) 0.19804(14)
C15 C 1.0302(6) 0.2831(6) 0.18179(16)
H23 H 1.0827 0.3743 0.1975
C16 C 1.0469(7) 0.2849(6) 0.14337(15)
H24 H 1.1089 0.3767 0.1328
C17 C 0.9729(6) 0.1520(6) 0.11989(15)
C18 C 0.8820(8) 0.0199(6) 0.13588(16)
H25 H 0.8299 -0.0716 0.1203
C19 C 0.8669(7) 0.0214(6) 0.17487(16)
H26 H 0.8055 -0.0697 0.1857
C20 C 1.0006(7) 0.1559(6) 0.07822(15)
H27 H 1.0161 0.2543 0.0708
H28 H 1.1054 0.1467 0.0733
C21 C 0.4864(7) 0.3721(6) 0.15669(17)
H29 H 0.4848 0.4259 0.1346
H30 H 0.4191 0.3931 0.1764
C22 C 0.4106(6) 0.2072(6) 0.14510(14)
C23 C 0.3926(7) 0.1536(7) 0.10726(15)
H31 H 0.4292 0.2219 0.0884
C24 C 0.3219(7) 0.0020(7) 0.09676(15)
H32 H 0.3116 -0.0333 0.0708
C25 C 0.2663(7) -0.0987(6) 0.12363(16)
C26 C 0.2887(7) -0.0421(7) 0.16165(15)
H33 H 0.2568 -0.1089 0.1808
C27 C 0.3558(7) 0.1075(6) 0.17137(14)
H34 H 0.3645 0.1431 0.1973
C28 C 0.1818(8) -0.2652(7) 0.1131(2)
H35 H 0.1421 -0.3172 0.1361
H36 H 0.0829 -0.2907 0.0959
C29 C 0.8379(8) 0.6951(6) 0.26439(14)
H37 H 0.7386 0.7000 0.2529
H38 H 0.9308 0.7973 0.2665
C30 C 0.7982(7) 0.6458(6) 0.30366(13)
C31 C 0.6709(7) 0.6642(7) 0.32245(15)
H39 H 0.6069 0.7044 0.3101
C32 C 0.6359(8) 0.6252(7) 0.35881(16)
H40 H 0.5471 0.6373 0.3710
C33 C 0.7282(8) 0.5689(6) 0.37774(14)
C34 C 0.8558(8) 0.5515(7) 0.35940(15)
H41 H 0.9201 0.5127 0.3722
C35 C 0.8922(7) 0.5887(6) 0.32317(14)
H42 H 0.9810 0.5760 0.3112
C36 C 0.6894(9) 0.5290(7) 0.41846(16)
H43 H 0.7907 0.5880 0.4352
H44 H 0.5997 0.5559 0.4271
C37 C 0.1303(8) 0.0376(8) 0.46329(17)
H45 H 0.0696 -0.0667 0.4565
C38 C 0.3018(10) 0.2476(9) 0.48973(17)
H46 H 0.3888 0.3214 0.5060
C39 C 0.2113(11) 0.2755(10) 0.46472(17)
H47 H 0.2219 0.3710 0.4597
C40 C 0.8657(7) -0.0827(6) 0.03554(14)
H48 H 0.9584 -0.1061 0.0360
C41 C 0.6225(7) -0.0937(6) 0.02371(16)
H49 H 0.5108 -0.1278 0.0139
C42 C 0.7080(7) 0.0321(7) 0.04712(17)
H50 H 0.6683 0.1019 0.0566
C43 C 0.2635(8) -0.4020(7) 0.06088(16)
H51 H 0.1669 -0.4294 0.0447
C44 C 0.5020(8) -0.3780(6) 0.08357(14)
H52 H 0.6041 -0.3864 0.0859
C45 C 0.4482(8) -0.3022(7) 0.10883(15)
H53 H 0.5041 -0.2488 0.1320
C46 C 0.6952(8) 0.3111(8) 0.44754(15)
H54 H 0.7831 0.3688 0.4658
C47 C 0.4973(7) 0.1258(8) 0.41441(14)
H55 H 0.4208 0.0270 0.4051
C48 C 0.5110(7) 0.2532(7) 0.40115(15)
H56 H 0.4446 0.2604 0.3811
Ag2A Ag 0.66002(6) 0.02463(7) 0.479039(13)
N12A N 0.3835(6) -0.1658(7) 0.55571(12)
Ag3A Ag 0.34657(6) -0.62605(5) 0.014660(11)
N10A N 0.6145(6) -0.5588(5) -0.05387(12)
Cl1 Cl 0.79792(17) 0.43589(16) 0.05224(4)
O1 O 0.8522(6) 0.5880(5) 0.04673(17)
O2 O 0.8298(6) 0.4157(6) 0.09025(12)
O3 O 0.6242(5) 0.3545(6) 0.04183(14)
O4 O 0.8891(6) 0.3763(6) 0.02790(14)
Cl2 Cl 0.36332(18) -0.30459(18) 0.23684(4)
O5 O 0.3106(8) -0.3467(6) 0.19798(14)
O6 O 0.3459(13) -0.4316(7) 0.2526(2)
O7 O 0.2680(7) -0.2365(11) 0.2526(2)
O8 O 0.5310(5) -0.1970(5) 0.24120(18)
Cl3 Cl 0.2126(4) -0.3281(2) 0.44076(6)
O9 O 0.0968(9) -0.4765(7) 0.4329(2)
O10 O 0.3591(10) -0.3053(12) 0.4558(2)
O11 O 0.1228(15) -0.2877(12) 0.4722(3)
O12 O 0.2037(12) -0.2389(9) 0.4133(2)
loop_
_geom_bond_atom_site_label_1
_geom_bond_atom_site_label_2
_geom_bond_site_symmetry_1
_geom_bond_site_symmetry_2
Ag1 N1 1_555 1_555
Ag2 N6 1_555 1_555
Ag3 N8 1_555 1_555
Cl1 O1 1_555 1_555
Cl2 O5 1_555 1_555
Cl3 O9 1_555 1_555
O2 Cl1 1_555 1_555
O3 Cl1 1_555 1_555
O4 Cl1 1_555 1_555
O6 Cl2 1_555 1_555
O7 Cl2 1_555 1_555
O8 Cl2 1_555 1_555
O10 Cl3 1_555 1_555
O11 Cl3 1_555 1_555
O12 Cl3 1_555 1_555
N1 H1 1_555 1_555
N2 Ag1 1_555 1_555
H2 N2 1_555 1_555
N3 Ag1 1_555 1_555
H3 N3 1_555 1_555
N4 Ag1 1_555 1_555
H4 N4 1_555 1_555
N5 C12 1_555 1_555
N6 C37 1_555 1_555
N7 C20 1_555 1_555
N8 C40 1_555 1_555
N9 C28 1_555 1_555
N10 C43 1_555 1_555
N11 C36 1_555 1_555
N12 C46 1_555 1_555
C1 N1 1_555 1_555
H5 C1 1_555 1_555
H6 C1 1_555 1_555
C2 N2 1_555 1_555
H7 C2 1_555 1_555
H8 C2 1_555 1_555
C3 N3 1_555 1_555
H9 C3 1_555 1_555
H10 C3 1_555 1_555
C4 N4 1_555 1_555
H11 C4 1_555 1_555
H12 C4 1_555 1_555
C5 N1 1_555 1_555
H13 C5 1_555 1_555
H14 C5 1_555 1_555
C6 C5 1_555 1_555
C7 C6 1_555 1_555
H15 C7 1_555 1_555
C8 C7 1_555 1_555
H16 C8 1_555 1_555
C9 C8 1_555 1_555
C10 C9 1_555 1_555
H17 C10 1_555 1_555
C11 C6 1_555 1_555
H18 C11 1_555 1_555
C12 C9 1_555 1_555
H19 C12 1_555 1_555
H20 C12 1_555 1_555
C13 N2 1_555 1_555
H21 C13 1_555 1_555
H22 C13 1_555 1_555
C14 C13 1_555 1_555
C15 C14 1_555 1_555
H23 C15 1_555 1_555
C16 C15 1_555 1_555
H24 C16 1_555 1_555
C17 C16 1_555 1_555
C18 C17 1_555 1_555
H25 C18 1_555 1_555
C19 C14 1_555 1_555
H26 C19 1_555 1_555
C20 C17 1_555 1_555
H27 C20 1_555 1_555
H28 C20 1_555 1_555
C21 N3 1_555 1_555
H29 C21 1_555 1_555
H30 C21 1_555 1_555
C22 C21 1_555 1_555
C23 C22 1_555 1_555
H31 C23 1_555 1_555
C24 C23 1_555 1_555
H32 C24 1_555 1_555
C25 C24 1_555 1_555
C26 C25 1_555 1_555
H33 C26 1_555 1_555
C27 C22 1_555 1_555
H34 C27 1_555 1_555
C28 C25 1_555 1_555
H35 C28 1_555 1_555
H36 C28 1_555 1_555
C29 N4 1_555 1_555
H37 C29 1_555 1_555
H38 C29 1_555 1_555
C30 C29 1_555 1_555
C31 C30 1_555 1_555
H39 C31 1_555 1_555
C32 C31 1_555 1_555
H40 C32 1_555 1_555
C33 C32 1_555 1_555
C34 C33 1_555 1_555
H41 C34 1_555 1_555
C35 C30 1_555 1_555
H42 C35 1_555 1_555
C36 C33 1_555 1_555
H43 C36 1_555 1_555
H44 C36 1_555 1_555
C37 N5 1_555 1_555
H45 C37 1_555 1_555
C38 N6 1_555 1_555
H46 C38 1_555 1_555
C39 N5 1_555 1_555
H47 C39 1_555 1_555
C40 N7 1_555 1_555
H48 C40 1_555 1_555
C41 N8 1_555 1_555
H49 C41 1_555 1_555
C42 N7 1_555 1_555
H50 C42 1_555 1_555
C43 N9 1_555 1_555
H51 C43 1_555 1_555
C44 N10 1_555 1_555
H52 C44 1_555 1_555
C45 N9 1_555 1_555
H53 C45 1_555 1_555
C46 N11 1_555 1_555
H54 C46 1_555 1_555
C47 N12 1_555 1_555
H55 C47 1_555 1_555
C48 N11 1_555 1_555
H56 C48 1_555 1_555
Ag2A Ag2 1_555 1_555
N12A Ag2 1_555 1_555
Ag3A Ag3 1_555 1_555
N10A Ag3 1_555 1_555
N10 Ag3A 1_555 1_555
N12 Ag2A 1_555 1_555
C1 C2 1_555 1_555
C3 C4 1_555 1_555
C10 C11 1_555 1_555
C18 C19 1_555 1_555
C26 C27 1_555 1_555
C34 C35 1_555 1_555
C38 C39 1_555 1_555
C41 C42 1_555 1_555
C44 C45 1_555 1_555
C47 C48 1_555 1_555

#END
