
#######################################################################
#
#                 Cambridge Crystallographic Data Centre
#                                CCDC 
#
#######################################################################
#
# If this CIF has been generated from an entry in the Cambridge 
# Structural Database, then it will include bibliographic, chemical, 
# crystal, experimental, refinement or atomic coordinate data resulting 
# from the CCDC's data processing and validation procedures.
#
#######################################################################

data_JAGBAV
_symmetry_cell_setting           monoclinic
_symmetry_space_group_name_H-M   'P 21/c'
_symmetry_Int_Tables_number      14
_space_group_name_Hall           '-P 2ybc'
loop_
_symmetry_equiv_pos_site_id
_symmetry_equiv_pos_as_xyz
1 x,y,z
2 x,1/2-y,1/2+z
3 -x,-y,-z
4 -x,1/2+y,1/2-z
_cell_length_a                   10.504(7)
_cell_length_b                   11.790(7)
_cell_length_c                   21.347(14)
_cell_angle_alpha                90
_cell_angle_beta                 97.46(3)
_cell_angle_gamma                90
_cell_volume                     2621.28
loop_
_atom_site_label
_atom_site_type_symbol
_atom_site_fract_x
_atom_site_fract_y
_atom_site_fract_z
Cd1 Cd 0.23043(3) 0.59348(2) 0.620118(13)
Br1 Br -0.03655(4) 0.62856(3) 0.594879(19)
Br2 Br 0.49356(3) 0.57906(3) 0.644118(19)
N1 N 0.2444(3) 0.4726(2) 0.53079(13)
H1 H 0.1612 0.4525 0.5143
N2 N 0.2332(3) 0.7244(2) 0.53237(13)
H2 H 0.1595 0.7685 0.5310
N3 N 0.1954(3) -0.0667(2) 0.71570(15)
N4 N 0.2362(3) -0.2402(3) 0.68283(14)
N5 N 0.2504(3) 1.1243(2) 0.28863(13)
N6 N 0.2016(3) 1.0288(2) 0.20045(13)
C1 C 0.2961(4) 0.5466(3) 0.48349(17)
H3 H 0.2924 0.5060 0.4427
H4 H 0.3870 0.5653 0.4982
C2 C 0.2181(4) 0.6544(3) 0.47455(16)
H5 H 0.2459 0.6987 0.4393
H6 H 0.1264 0.6350 0.4631
C3 C 0.3216(3) 0.3662(3) 0.53913(17)
H7 H 0.4117 0.3859 0.5550
H8 H 0.3210 0.3292 0.4975
C4 C 0.2725(3) 0.2833(3) 0.58425(17)
C5 C 0.1520(4) 0.2341(3) 0.57368(18)
H9 H 0.0971 0.2533 0.5362
C6 C 0.1080(4) 0.1577(3) 0.61577(19)
H10 H 0.0243 0.1263 0.6068
C7 C 0.1852(4) 0.1276(3) 0.67016(19)
C8 C 0.3068(4) 0.1764(3) 0.68139(18)
H11 H 0.3617 0.1568 0.7187
C9 C 0.3496(4) 0.2528(3) 0.63945(17)
H12 H 0.4330 0.2848 0.6486
C10 C 0.1368(4) 0.0473(3) 0.7174(2)
H13 H 0.1568 0.0792 0.7604
H14 H 0.0423 0.0404 0.7079
C11 C 0.3432(3) 0.8039(3) 0.53757(17)
H15 H 0.4225 0.7594 0.5355
H16 H 0.3510 0.8403 0.5797
C12 C 0.3366(3) 0.8961(3) 0.48813(16)
C13 C 0.4241(4) 0.8993(3) 0.44508(17)
H17 H 0.4881 0.8421 0.4463
C14 C 0.4201(4) 0.9850(3) 0.39998(17)
H18 H 0.4811 0.9857 0.3708
C15 C 0.3277(4) 1.0693(3) 0.39745(16)
C16 C 0.2403(4) 1.0668(3) 0.44082(17)
H19 H 0.1764 1.1241 0.4396
C17 C 0.2448(4) 0.9819(3) 0.48581(17)
H20 H 0.1847 0.9821 0.5154
C18 C 0.3221(4) 1.1617(3) 0.34783(16)
H21 H 0.2807 1.2300 0.3631
H22 H 0.4105 1.1826 0.3407
C19 C 0.1632(4) -0.1484(3) 0.67285(17)
H23 H 0.0954 -0.1414 0.6390
C20 C 0.3199(4) -0.2135(4) 0.7341(2)
H24 H 0.3864 -0.2617 0.7532
C21 C 0.2949(5) -0.1079(4) 0.7544(2)
H25 H 0.3401 -0.0699 0.7898
C22 C 0.2909(4) 1.0506(3) 0.24740(17)
H26 H 0.3744 1.0181 0.2519
C23 C 0.0982(4) 1.0925(3) 0.21226(18)
H27 H 0.0180 1.0949 0.1859
C24 C 0.1264(4) 1.1513(3) 0.26670(18)
H28 H 0.0713 1.2010 0.2857
N4_2 N 0.2362(3) 0.7598(3) 0.68283(14)
N6A N 0.2016(3) 0.4712(2) 0.70045(13)
Cd1_2 Cd 0.23043(3) -0.40652(2) 0.620118(13)
Cd1A Cd 0.23043(3) 0.90652(2) 0.120118(13)
loop_
_geom_bond_atom_site_label_1
_geom_bond_atom_site_label_2
_geom_bond_site_symmetry_1
_geom_bond_site_symmetry_2
Cd1 Br1 1_555 1_555
Br2 Cd1 1_555 1_555
N1 Cd1 1_555 1_555
H1 N1 1_555 1_555
N2 Cd1 1_555 1_555
H2 N2 1_555 1_555
N3 C10 1_555 1_555
N4 C19 1_555 1_555
N5 C18 1_555 1_555
N6 C22 1_555 1_555
C1 N1 1_555 1_555
H3 C1 1_555 1_555
H4 C1 1_555 1_555
C2 N2 1_555 1_555
H5 C2 1_555 1_555
H6 C2 1_555 1_555
C3 N1 1_555 1_555
H7 C3 1_555 1_555
H8 C3 1_555 1_555
C4 C3 1_555 1_555
C5 C4 1_555 1_555
H9 C5 1_555 1_555
C6 C5 1_555 1_555
H10 C6 1_555 1_555
C7 C6 1_555 1_555
C8 C7 1_555 1_555
H11 C8 1_555 1_555
C9 C4 1_555 1_555
H12 C9 1_555 1_555
C10 C7 1_555 1_555
H13 C10 1_555 1_555
H14 C10 1_555 1_555
C11 N2 1_555 1_555
H15 C11 1_555 1_555
H16 C11 1_555 1_555
C12 C11 1_555 1_555
C13 C12 1_555 1_555
H17 C13 1_555 1_555
C14 C13 1_555 1_555
H18 C14 1_555 1_555
C15 C14 1_555 1_555
C16 C15 1_555 1_555
H19 C16 1_555 1_555
C17 C12 1_555 1_555
H20 C17 1_555 1_555
C18 C15 1_555 1_555
H21 C18 1_555 1_555
H22 C18 1_555 1_555
C19 N3 1_555 1_555
H23 C19 1_555 1_555
C20 N4 1_555 1_555
H24 C20 1_555 1_555
C21 N3 1_555 1_555
H25 C21 1_555 1_555
C22 N5 1_555 1_555
H26 C22 1_555 1_555
C23 N6 1_555 1_555
H27 C23 1_555 1_555
C24 N5 1_555 1_555
H28 C24 1_555 1_555
N4_2 Cd1 1_555 1_555
N6A Cd1 1_555 1_555
Cd1_2 N4 1_555 1_555
Cd1A N6 1_555 1_555
C1 C2 1_555 1_555
C8 C9 1_555 1_555
C16 C17 1_555 1_555
C20 C21 1_555 1_555
C23 C24 1_555 1_555

#END
