
#######################################################################
#
#                 Cambridge Crystallographic Data Centre
#                                CCDC 
#
#######################################################################
#
# If this CIF has been generated from an entry in the Cambridge 
# Structural Database, then it will include bibliographic, chemical, 
# crystal, experimental, refinement or atomic coordinate data resulting 
# from the CCDC's data processing and validation procedures.
#
#######################################################################

data_JAGPUD
_symmetry_cell_setting           monoclinic
_symmetry_space_group_name_H-M   'C 2/c'
_symmetry_Int_Tables_number      15
_space_group_name_Hall           '-C 2yn'
loop_
_symmetry_equiv_pos_site_id
_symmetry_equiv_pos_as_xyz
1 x,y,z
2 1/2+x,1/2+y,z
3 x,-y,1/2+z
4 1/2+x,1/2-y,1/2+z
5 -x,-y,-z
6 1/2-x,1/2-y,-z
7 -x,y,1/2-z
8 1/2-x,1/2+y,1/2-z
_cell_length_a                   21.4048(7)
_cell_length_b                   9.3867(3)
_cell_length_c                   33.4862(12)
_cell_angle_alpha                90
_cell_angle_beta                 103.7330(10)
_cell_angle_gamma                90
_cell_volume                     6535.72
loop_
_atom_site_label
_atom_site_type_symbol
_atom_site_fract_x
_atom_site_fract_y
_atom_site_fract_z
Cd1 Cd 0.033211(15) 0.20319(4) 0.202493(10)
Cd2 Cd -0.323862(16) 0.59725(4) 0.008612(10)
N1 N -0.0188(2) -0.0097(5) 0.17285(13)
N2 N 0.0880(2) 0.0009(4) 0.23411(13)
O1 O -0.06223(15) 0.2713(4) 0.22438(10)
N3 N -0.37878(19) 0.3855(5) -0.01646(13)
C1 C -0.2410(2) 0.4936(5) 0.13142(13)
O2 O -0.33075(15) 0.5491(4) 0.07666(10)
C2 C -0.1793(2) 0.4392(5) 0.14177(15)
C3 C -0.1509(2) 0.3950(5) 0.18145(13)
C4 C 0.1378(3) 0.0110(7) 0.26718(17)
C5 C -0.4377(2) 0.3991(6) -0.04158(14)
C6 C -0.1858(2) 0.4082(5) 0.21140(15)
C7 C -0.2716(2) 0.5293(5) 0.08740(15)
C8 C -0.2750(2) 0.5067(6) 0.16166(15)
C9 C 0.0097(3) -0.1345(6) 0.18559(18)
C10 C -0.0717(3) -0.0102(9) 0.14162(19)
C11 C -0.4680(2) 0.5420(6) -0.04388(15)
C12 C -0.0852(2) 0.3319(5) 0.19041(15)
O3 O -0.23681(17) 0.5378(5) 0.06213(11)
C13 C -0.5195(3) 0.8070(9) -0.0458(2)
O4 O -0.05377(17) 0.3372(5) 0.16327(12)
C14 C 0.0656(3) -0.1283(5) 0.22154(17)
C15 C -0.2469(3) 0.4656(6) 0.20133(16)
N4 N -0.43138(19) 0.6484(5) -0.02407(12)
C16 C -0.3498(3) 0.2593(7) -0.0137(2)
C17 C -0.4667(4) 0.2834(8) -0.06473(19)
C18 C -0.4351(4) 0.1558(7) -0.0615(2)
C19 C -0.5310(3) 0.5648(8) -0.06517(19)
C20 C -0.4573(3) 0.7787(7) -0.0254(2)
C21 C 0.0928(4) -0.2493(8) 0.2431(3)
C22 C 0.1659(3) -0.1053(8) 0.2895(2)
C23 C -0.0121(4) -0.2622(8) 0.1666(2)
C24 C -0.5569(3) 0.6984(9) -0.0662(2)
C25 C -0.0666(5) -0.2607(11) 0.1348(3)
C26 C 0.1424(4) -0.2355(8) 0.2772(3)
O5 O 0.08648(16) 0.2266(4) 0.14658(11)
O6 O 0.09694(18) 0.3916(4) 0.19400(10)
C27 C 0.1634(2) 0.3849(5) 0.10346(14)
C28 C 0.1080(2) 0.3429(5) 0.16125(14)
C29 C 0.1495(2) 0.4314(5) 0.14005(14)
C30 C 0.2058(2) 0.4610(5) 0.08597(14)
C31 C 0.2332(3) 0.5850(6) 0.10470(17)
C32 C 0.1765(3) 0.5575(6) 0.15801(17)
C33 C 0.2179(3) 0.6342(6) 0.14010(17)
C34 C -0.3755(4) 0.1403(8) -0.0352(2)
C35 C -0.0970(4) -0.1361(12) 0.1222(2)
C36 C 0.2236(2) 0.4073(5) 0.04762(14)
O7 O 0.18384(16) 0.3303(4) 0.02303(10)
O8 O 0.27698(17) 0.4465(5) 0.04246(11)
H1 H -0.312(2) 0.545(4) 0.1555(13)
H2 H -0.266(2) 0.472(5) 0.2205(15)
H3 H 0.149(2) 0.297(5) 0.0933(13)
H4 H -0.156(2) 0.428(5) 0.1247(14)
H5 H 0.166(2) 0.600(6) 0.1831(16)
H6 H -0.167(2) 0.376(5) 0.2375(15)
H7 H 0.237(2) 0.721(6) 0.1510(16)
H8 H -0.306(3) 0.260(6) 0.0058(17)
H9 H 0.259(3) 0.641(6) 0.0930(16)
H10 H 0.154(3) 0.111(6) 0.2760(17)
H11 H -0.432(2) 0.846(6) -0.0098(16)
H12 H -0.456(3) 0.076(6) -0.0786(18)
H13 H -0.133(3) -0.111(7) 0.1047(19)
H14 H -0.535(3) 0.892(7) -0.0454(19)
H15 H -0.600(3) 0.716(7) -0.083(2)
H16 H 0.202(3) -0.092(6) 0.3129(19)
H17 H 0.079(3) -0.321(7) 0.234(2)
H18 H -0.556(3) 0.492(7) -0.079(2)
H19 H 0.011(4) -0.354(8) 0.180(2)
H20 H -0.506(3) 0.293(7) -0.0793(19)
H21 H 0.157(3) -0.321(8) 0.293(2)
H22 H -0.081(4) -0.347(9) 0.122(3)
H23 H -0.353(4) 0.052(9) -0.036(3)
H24 H -0.089(3) 0.085(6) 0.1346(17)
O1F O 0.06223(15) 0.2713(4) 0.27562(10)
O7A O -0.31616(16) 0.8303(4) 0.02303(10)
O8D O -0.27698(17) 0.5535(5) -0.04246(11)
Cd1F Cd -0.033211(15) 0.20319(4) 0.297507(10)
Cd2A Cd 0.176138(16) 0.09725(4) 0.008612(10)
Cd2D Cd 0.323862(16) 0.40275(4) -0.008612(10)
loop_
_geom_bond_atom_site_label_1
_geom_bond_atom_site_label_2
_geom_bond_site_symmetry_1
_geom_bond_site_symmetry_2
Cd1 N1 1_555 1_555
Cd2 N3 1_555 1_555
N1 C9 1_555 1_555
N2 Cd1 1_555 1_555
O1 Cd1 1_555 1_555
N3 C5 1_555 1_555
C1 C2 1_555 1_555
O2 Cd2 1_555 1_555
C2 C3 1_555 1_555
C3 C6 1_555 1_555
C4 N2 1_555 1_555
C5 C11 1_555 1_555
C6 C15 1_555 1_555
C7 C1 1_555 1_555
C8 C1 1_555 1_555
C9 C14 1_555 1_555
C10 N1 1_555 1_555
C11 N4 1_555 1_555
C12 O1 1_555 1_555
O3 Cd2 1_555 1_555
C13 C20 1_555 1_555
O4 Cd1 1_555 1_555
C14 N2 1_555 1_555
C15 C8 1_555 1_555
N4 Cd2 1_555 1_555
C16 N3 1_555 1_555
C17 C5 1_555 1_555
C18 C17 1_555 1_555
C19 C11 1_555 1_555
C20 N4 1_555 1_555
C21 C14 1_555 1_555
C22 C4 1_555 1_555
C23 C9 1_555 1_555
C24 C13 1_555 1_555
C25 C23 1_555 1_555
C26 C21 1_555 1_555
O5 Cd1 1_555 1_555
O6 Cd1 1_555 1_555
C27 C29 1_555 1_555
C28 O5 1_555 1_555
C29 C28 1_555 1_555
C30 C27 1_555 1_555
C31 C30 1_555 1_555
C32 C29 1_555 1_555
C33 C31 1_555 1_555
C34 C16 1_555 1_555
C35 C10 1_555 1_555
C36 C30 1_555 1_555
O7 C36 1_555 1_555
O8 C36 1_555 1_555
H1 C8 1_555 1_555
H2 C15 1_555 1_555
H3 C27 1_555 1_555
H4 C2 1_555 1_555
H5 C32 1_555 1_555
H6 C6 1_555 1_555
H7 C33 1_555 1_555
H8 C16 1_555 1_555
H9 C31 1_555 1_555
H10 C4 1_555 1_555
H11 C20 1_555 1_555
H12 C18 1_555 1_555
H13 C35 1_555 1_555
H14 C13 1_555 1_555
H15 C24 1_555 1_555
H16 C22 1_555 1_555
H17 C21 1_555 1_555
H18 C19 1_555 1_555
H19 C23 1_555 1_555
H20 C17 1_555 1_555
H21 C26 1_555 1_555
H22 C25 1_555 1_555
H23 C34 1_555 1_555
H24 C10 1_555 1_555
O1F Cd1 1_555 1_555
O7A Cd2 1_555 1_555
O8D Cd2 1_555 1_555
Cd1F O1 1_555 1_555
Cd2A O7 1_555 1_555
Cd2D O8 1_555 1_555
O2 C7 1_555 1_555
C3 C12 1_555 1_555
C7 O3 1_555 1_555
C12 O4 1_555 1_555
C18 C34 1_555 1_555
C19 C24 1_555 1_555
C22 C26 1_555 1_555
C25 C35 1_555 1_555
O6 C28 1_555 1_555
C32 C33 1_555 1_555
O1F Cd1F 1_555 1_555

#END
