
#######################################################################
#
#                 Cambridge Crystallographic Data Centre
#                                CCDC 
#
#######################################################################
#
# If this CIF has been generated from an entry in the Cambridge 
# Structural Database, then it will include bibliographic, chemical, 
# crystal, experimental, refinement or atomic coordinate data resulting 
# from the CCDC's data processing and validation procedures.
#
#######################################################################

data_JAGQIS
_symmetry_cell_setting           monoclinic
_symmetry_space_group_name_H-M   'P 21/c'
_symmetry_Int_Tables_number      14
_space_group_name_Hall           '-P 2ybc'
loop_
_symmetry_equiv_pos_site_id
_symmetry_equiv_pos_as_xyz
1 x,y,z
2 x,1/2-y,1/2+z
3 -x,-y,-z
4 -x,1/2+y,1/2-z
_cell_length_a                   17.7409(11)
_cell_length_b                   13.4455(8)
_cell_length_c                   14.6271(9)
_cell_angle_alpha                90.00
_cell_angle_beta                 108.2670(10)
_cell_angle_gamma                90.00
_cell_volume                     3313.25
loop_
_atom_site_label
_atom_site_type_symbol
_atom_site_fract_x
_atom_site_fract_y
_atom_site_fract_z
Cu1 Cu 0.58125(3) 0.13438(4) -0.04353(4)
Cu2 Cu 0.66156(3) 0.02764(4) 0.22919(4)
Cu3 Cu 0.06202(3) -0.07397(5) -0.42182(4)
O1 O 0.67861(19) 0.0838(3) -0.0572(3)
O2 O 0.47723(19) 0.1582(3) -0.0192(2)
O3 O 0.09617(19) 0.0090(3) -0.3029(2)
O4 O 0.6386(2) 0.2414(3) 0.0352(2)
O5 O 0.6215(2) 0.0655(3) 0.3331(2)
O6 O 0.6476(2) -0.0916(3) 0.3770(3)
O7 O 0.6463(2) 0.1835(3) 0.1806(2)
O8 O 0.04925(19) 0.0427(3) -0.5416(3)
O9 O 0.0673(3) 0.1666(4) -0.6314(4)
O11 O 0.5485(2) 0.2464(3) -0.1673(3)
N1 N 0.5185(2) 0.0310(3) -0.1251(3)
N2 N 0.4381(2) 0.0349(3) -0.1341(3)
N3 N 0.2918(2) 0.0587(3) -0.1553(3)
N4 N 0.2183(2) -0.0567(3) -0.2954(3)
N5 N 0.1722(2) -0.1072(3) -0.3778(3)
N6 N 0.2642(3) -0.2334(4) -0.3773(3)
N7 N 0.0613(2) -0.1848(3) -0.5136(3)
C1 C 0.6870(3) 0.0112(4) -0.1140(4)
C2 C 0.7638(3) -0.0100(4) -0.1194(4)
C3 C 0.7764(4) -0.0820(6) -0.1770(6)
C4 C 0.7140(4) -0.1409(7) -0.2323(7)
C5 C 0.6386(4) -0.1232(5) -0.2290(5)
C6 C 0.6231(3) -0.0485(4) -0.1705(4)
C7 C 0.5419(3) -0.0372(4) -0.1717(4)
C8 C 0.4249(3) 0.1040(3) -0.0766(3)
C9 C 0.3387(3) 0.1162(4) -0.0864(3)
C10 C 0.3070(3) 0.1825(4) -0.0357(3)
C11 C 0.2253(3) 0.1874(4) -0.0597(4)
C12 C 0.1769(3) 0.1301(4) -0.1335(4)
C13 C 0.2126(3) 0.0652(4) -0.1814(4)
C14 C 0.1714(3) 0.0023(4) -0.2653(3)
C15 C 0.1961(3) -0.1872(4) -0.4115(3)
C16 C 0.1334(3) -0.2272(4) -0.4978(4)
C17 C 0.1463(3) -0.3007(5) -0.5576(4)
C18 C 0.0811(4) -0.3323(6) -0.6337(5)
C19 C 0.0072(4) -0.2903(5) -0.6480(5)
C20 C -0.0007(3) -0.2162(5) -0.5869(4)
C21 C 0.6591(3) 0.2476(4) 0.1261(4)
C22 C 0.7019(5) 0.3417(5) 0.1690(5)
C23 C 0.6213(3) -0.0091(4) 0.3879(4)
C24 C 0.5840(5) 0.0067(6) 0.4644(6)
C25 C 0.0914(3) 0.0909(4) -0.5845(4)
C26 C 0.1723(4) 0.0483(5) -0.5727(5)
H1 H 0.290(4) -0.214(5) -0.328(5)
H2 H 0.274(4) -0.274(5) -0.406(4)
H3 H 0.8078 0.0276 -0.0809
H4 H 0.8286 -0.0935 -0.1795
H5 H 0.7222 -0.1909 -0.2749
H6 H 0.5961 -0.1630 -0.2666
H7 H 0.5038 -0.0827 -0.2088
H8 H 0.3402 0.2233 0.0137
H9 H 0.2021 0.2308 -0.0254
H10 H 0.1209 0.1348 -0.1503
H11 H 0.1976 -0.3283 -0.5472
H12 H 0.0871 -0.3832 -0.6760
H13 H -0.0376 -0.3120 -0.6988
H14 H -0.0512 -0.1859 -0.5977
H17 H 0.5213 0.3013 -0.1508
H18 H 0.5139 0.2153 -0.2237
H23 H 0.7058 0.3472 0.2345
H24 H 0.7545 0.3413 0.1632
H25 H 0.6744 0.3981 0.1345
H26 H 0.5309 0.0310 0.4372
H27 H 0.6135 0.0546 0.5101
H28 H 0.5822 -0.0539 0.4974
H29 H 0.1985 0.0323 -0.5069
H30 H 0.1671 -0.0117 -0.6100
H31 H 0.2037 0.0942 -0.5943
N2B N 0.5619(2) -0.0349(3) 0.1341(3)
N3B N 0.7082(2) -0.0587(3) 0.1553(3)
N4B N 0.7817(2) 0.0567(3) 0.2954(3)
O8B O -0.04925(19) -0.0427(3) -0.4584(3)
Cu3B Cu -0.06202(3) 0.07397(5) -0.57818(4)
Cu2B Cu 0.33844(3) -0.02764(4) -0.22919(4)
O10 O 0.0405(12) 0.8551(17) 0.1481(18)
H15 H 0.0686 0.7954 0.1669
H16 H 0.0582 0.8915 0.2125
O12 O 0.4869(3) 0.2915(4) 0.1413(3)
H19 H 0.4353 0.3034 0.1458
H20 H 0.5092 0.3541 0.1311
O13 O 0.2077(7) 0.3207(9) 0.1281(9)
H21 H 0.2034 0.3911 0.1199
H22 H 0.2191 0.3060 0.1951
loop_
_geom_bond_atom_site_label_1
_geom_bond_atom_site_label_2
_geom_bond_site_symmetry_1
_geom_bond_site_symmetry_2
Cu1 O1 1_555 1_555
Cu2 O5 1_555 1_555
Cu3 O3 1_555 1_555
O1 C1 1_555 1_555
O2 Cu1 1_555 1_555
O3 C14 1_555 1_555
O4 Cu1 1_555 1_555
O5 C23 1_555 1_555
O6 C23 1_555 1_555
O7 Cu2 1_555 1_555
O8 Cu3 1_555 1_555
O9 C25 1_555 1_555
O10 H15 1_555 1_555
O11 Cu1 1_555 1_555
O12 H19 1_555 1_555
O13 H21 1_555 1_555
N1 Cu1 1_555 1_555
N2 N1 1_555 1_555
N3 C9 1_555 1_555
N4 N5 1_555 1_555
N5 Cu3 1_555 1_555
N6 C15 1_555 1_555
N7 Cu3 1_555 1_555
C1 C2 1_555 1_555
C2 C3 1_555 1_555
C3 C4 1_555 1_555
C4 C5 1_555 1_555
C5 C6 1_555 1_555
C6 C1 1_555 1_555
C7 N1 1_555 1_555
C8 O2 1_555 1_555
C9 C8 1_555 1_555
C10 C9 1_555 1_555
C11 C10 1_555 1_555
C12 C11 1_555 1_555
C13 N3 1_555 1_555
C14 N4 1_555 1_555
C15 N5 1_555 1_555
C16 N7 1_555 1_555
C17 C16 1_555 1_555
C18 C17 1_555 1_555
C19 C18 1_555 1_555
C20 N7 1_555 1_555
C21 O4 1_555 1_555
C22 C21 1_555 1_555
C23 C24 1_555 1_555
C24 H26 1_555 1_555
C25 O8 1_555 1_555
C26 C25 1_555 1_555
H1 N6 1_555 1_555
H2 N6 1_555 1_555
H3 C2 1_555 1_555
H4 C3 1_555 1_555
H5 C4 1_555 1_555
H6 C5 1_555 1_555
H7 C7 1_555 1_555
H8 C10 1_555 1_555
H9 C11 1_555 1_555
H10 C12 1_555 1_555
H11 C17 1_555 1_555
H12 C18 1_555 1_555
H13 C19 1_555 1_555
H14 C20 1_555 1_555
H16 O10 1_555 1_555
H17 O11 1_555 1_555
H18 O11 1_555 1_555
H20 O12 1_555 1_555
H22 O13 1_555 1_555
H23 C22 1_555 1_555
H24 C22 1_555 1_555
H25 C22 1_555 1_555
H27 C24 1_555 1_555
H28 C24 1_555 1_555
H29 C26 1_555 1_555
H30 C26 1_555 1_555
H31 C26 1_555 1_555
N2B Cu2 1_555 1_555
N3B Cu2 1_555 1_555
N4B Cu2 1_555 1_555
O8B Cu3 1_555 1_555
Cu3B O8 1_555 1_555
Cu2B N2 1_555 1_555
O7 C21 1_555 1_555
N2 C8 1_555 1_555
N3 Cu2B 1_555 1_555
N4 Cu2B 1_555 1_555
C6 C7 1_555 1_555
C12 C13 1_555 1_555
C13 C14 1_555 1_555
C15 C16 1_555 1_555
C19 C20 1_555 1_555
O8B Cu3B 1_555 1_555

#END
