
#######################################################################
#
#                 Cambridge Crystallographic Data Centre
#                                CCDC 
#
#######################################################################
#
# If this CIF has been generated from an entry in the Cambridge 
# Structural Database, then it will include bibliographic, chemical, 
# crystal, experimental, refinement or atomic coordinate data resulting 
# from the CCDC's data processing and validation procedures.
#
#######################################################################

data_JAHCEA
_symmetry_cell_setting           monoclinic
_symmetry_space_group_name_H-M   'P 21/c'
_symmetry_Int_Tables_number      14
_space_group_name_Hall           '-P 2ybc'
loop_
_symmetry_equiv_pos_site_id
_symmetry_equiv_pos_as_xyz
1 x,y,z
2 -x,1/2+y,1/2-z
3 -x,-y,-z
4 x,1/2-y,1/2+z
_cell_length_a                   10.606(1)
_cell_length_b                   14.829(1)
_cell_length_c                   13.498(1)
_cell_angle_alpha                90
_cell_angle_beta                 111.63(1)
_cell_angle_gamma                90
_cell_volume                     1973.43
loop_
_atom_site_label
_atom_site_type_symbol
_atom_site_fract_x
_atom_site_fract_y
_atom_site_fract_z
Hg1 Hg 0.04882(4) 0.00418(4) 0.17538(3)
Cl1 Cl 0.0305(4) 0.1578(2) 0.1666(4)
Cl2 Cl 0.0787(4) -0.1496(2) 0.1814(4)
O1 O 0.9308(6) 0.0151(8) 0.5839(5)
O2 O -0.8044(6) -0.0187(6) -0.2374(6)
O3 O 0.5967(7) -0.1780(5) 0.3952(6)
O4 O -0.4606(7) 0.1780(4) -0.0899(6)
O5 O 0.3144(6) 0.0218(4) 0.3020(6)
O6 O -0.1745(6) -0.0175(5) -0.0104(5)
N1 N 0.7272(12) 0.0754(6) 0.4793(11)
N2 N -0.5908(11) -0.0763(6) -0.1638(11)
N3 N 0.7663(12) -0.0825(6) 0.4883(11)
N4 N -0.6342(12) 0.0793(6) -0.1687(11)
N5 N 0.5155(8) 0.1360(5) 0.3926(7)
N6 N -0.3733(8) -0.1333(5) -0.0960(7)
C1 C 0.7840(11) 0.1661(8) 0.5153(11)
C2 C -0.6490(12) -0.1673(8) -0.1880(11)
C3 C 0.8156(9) 0.0013(13) 0.5224(7)
C4 C -0.6843(10) -0.0072(11) -0.1933(7)
C5 C 0.8623(12) -0.1574(8) 0.5263(11)
C6 C -0.7317(12) 0.1552(8) -0.1982(10)
C7 C 0.6345(14) -0.0987(7) 0.4224(12)
C8 C -0.4968(14) 0.0983(7) -0.1138(11)
C9 C 0.5448(10) -0.0229(5) 0.3895(8)
C10 C -0.4053(10) 0.0253(5) -0.0905(9)
C11 C 0.5952(13) 0.0643(7) 0.4212(10)
C12 C -0.4579(13) -0.0625(7) -0.1175(11)
C13 C 0.4026(10) -0.0375(7) 0.3304(9)
C14 C -0.2649(10) 0.0419(6) -0.0365(8)
H1 H 0.374 -0.098 0.312
H2 H -0.237 0.103 -0.019
H3 H 0.855 0.161 0.583
H4 H 0.819 0.191 0.465
H5 H 0.715 0.204 0.521
H6 H -0.723 -0.167 -0.255
H7 H -0.582 -0.208 -0.191
H8 H -0.680 -0.186 -0.134
H9 H 0.835 -0.195 0.572
H10 H 0.951 -0.134 0.564
H11 H 0.863 -0.192 0.467
H12 H -0.820 0.133 -0.239
H13 H -0.733 0.183 -0.135
H14 H -0.705 0.198 -0.239
H15 H 0.422 0.129 0.351
H16 H 0.552 0.194 0.414
H17 H -0.278 -0.124 -0.063
H18 H -0.409 -0.193 -0.114
O6B O 0.1745(6) 0.0175(5) 0.0104(5)
Hg1B Hg -1.04882(4) -0.00418(4) -0.17538(3)
Hg1B_2 Hg -0.04882(4) -0.00418(4) -0.17538(3)
O2B O -0.1956(6) 0.0187(6) 0.2374(6)
loop_
_geom_bond_atom_site_label_1
_geom_bond_atom_site_label_2
_geom_bond_site_symmetry_1
_geom_bond_site_symmetry_2
Hg1 Cl1 1_555 1_555
Cl2 Hg1 1_555 1_555
O1 C3 1_555 1_555
O2 C4 1_555 1_555
O3 C7 1_555 1_555
O4 C8 1_555 1_555
O5 Hg1 1_555 1_555
O6 Hg1 1_555 1_555
N1 C1 1_555 1_555
N2 C2 1_555 1_555
N3 C3 1_555 1_555
N4 C4 1_555 1_555
N5 C11 1_555 1_555
N6 C12 1_555 1_555
C1 H3 1_555 1_555
C2 H6 1_555 1_555
C3 N1 1_555 1_555
C4 N2 1_555 1_555
C5 N3 1_555 1_555
C6 N4 1_555 1_555
C7 N3 1_555 1_555
C8 N4 1_555 1_555
C9 C7 1_555 1_555
C10 C8 1_555 1_555
C11 N1 1_555 1_555
C12 N2 1_555 1_555
C13 O5 1_555 1_555
C14 O6 1_555 1_555
H1 C13 1_555 1_555
H2 C14 1_555 1_555
H4 C1 1_555 1_555
H5 C1 1_555 1_555
H7 C2 1_555 1_555
H8 C2 1_555 1_555
H9 C5 1_555 1_555
H10 C5 1_555 1_555
H11 C5 1_555 1_555
H12 C6 1_555 1_555
H13 C6 1_555 1_555
H14 C6 1_555 1_555
H15 N5 1_555 1_555
H16 N5 1_555 1_555
H17 N6 1_555 1_555
H18 N6 1_555 1_555
O6B Hg1 1_555 1_555
Hg1B O2 1_555 1_555
Hg1B_2 O6 1_555 1_555
O2B Hg1 1_555 1_555
C9 C11 1_555 1_555
C9 C13 1_555 1_555
C10 C14 1_555 1_555
C10 C12 1_555 1_555
O6B Hg1B_2 1_555 1_555

#END
