
#######################################################################
#
#                 Cambridge Crystallographic Data Centre
#                                CCDC 
#
#######################################################################
#
# If this CIF has been generated from an entry in the Cambridge 
# Structural Database, then it will include bibliographic, chemical, 
# crystal, experimental, refinement or atomic coordinate data resulting 
# from the CCDC's data processing and validation procedures.
#
#######################################################################

data_JAHVUJ01
_symmetry_cell_setting           triclinic
_symmetry_space_group_name_H-M   'P -1'
_symmetry_Int_Tables_number      2
_space_group_name_Hall           '-P 1'
loop_
_symmetry_equiv_pos_site_id
_symmetry_equiv_pos_as_xyz
1 x,y,z
2 -x,-y,-z
_cell_length_a                   5.5625(2)
_cell_length_b                   6.9844(3)
_cell_length_c                   5.5784(2)
_cell_angle_alpha                109.554(3)
_cell_angle_beta                 113.616(3)
_cell_angle_gamma                88.813(3)
_cell_volume                     185.502
loop_
_atom_site_label
_atom_site_type_symbol
_atom_site_fract_x
_atom_site_fract_y
_atom_site_fract_z
Pb1 Pb 0.2621(6) 0.2571(6) 0.0933(6)
C1 C 0.6446(9) 0.0466(7) 0.5459(10)
C2 C 0.1293(9) 0.4992(7) 0.6294(10)
O1 O 0.6904(11) 0.1397(9) 0.4121(12)
O2 O 0.8194(12) 0.0142(9) 0.7559(12)
O3 O 0.3091(10) 0.4195(8) 0.5770(11)
O4 O 0.1245(12) 0.5782(8) 0.8582(12)
C1A C 0.3554(9) -0.0466(7) 0.4541(10)
O1A O 0.3096(11) -0.1397(9) 0.5879(12)
O2A O 0.1806(12) -0.0142(9) 0.2441(12)
C2A C -0.1293(9) 0.5008(7) 0.3706(10)
O3A O -0.3091(10) 0.5805(8) 0.4230(11)
O4A O -0.1245(12) 0.4218(8) 0.1418(12)
Pb1A Pb 0.7379(6) -0.2571(6) 0.9067(6)
O2_2 O -0.1806(12) 0.0142(9) -0.2441(12)
O3A_2 O 0.6909(10) 0.5805(8) 0.4230(11)
O4_2 O 0.1245(12) 0.5782(8) -0.1418(12)
Pb1_2 Pb 1.2621(6) 0.2571(6) 1.0933(6)
Pb1A_2 Pb 0.7379(6) 0.7429(6) 0.9067(6)
Pb1_3 Pb 0.2621(6) 0.2571(6) 1.0933(6)
Pb1A_3 Pb -0.2621(6) 0.7429(6) 0.9067(6)
Pb1A_4 Pb -0.2621(6) -0.2571(6) -0.0933(6)
Pb1_4 Pb -0.7379(6) 0.2571(6) 0.0933(6)
Pb1A_5 Pb -0.2621(6) 0.7429(6) -0.0933(6)
O2A_2 O 1.1806(12) -0.0142(9) 1.2441(12)
O3_2 O 0.3091(10) -0.5805(8) 0.5770(11)
O3A_3 O 0.6909(10) -0.4195(8) 0.4230(11)
O4_3 O 1.1245(12) -0.4218(8) 0.8582(12)
O4A_2 O 0.8755(12) -0.5782(8) 1.1418(12)
loop_
_geom_bond_atom_site_label_1
_geom_bond_atom_site_label_2
_geom_bond_site_symmetry_1
_geom_bond_site_symmetry_2
Pb1 O1 1_555 1_555
C1 O1 1_555 1_555
C2 O3 1_555 1_555
O2 C1 1_555 1_555
O3 Pb1 1_555 1_555
O4 C2 1_555 1_555
C1A C1 1_555 1_555
O1A C1A 1_555 1_555
O2A Pb1 1_555 1_555
C2A C2 1_555 1_555
O3A C2A 1_555 1_555
O4A Pb1 1_555 1_555
Pb1A O2 1_555 1_555
O2_2 Pb1 1_555 1_555
O3A_2 Pb1 1_555 1_555
O4_2 Pb1 1_555 1_555
Pb1_2 O2 1_555 1_555
Pb1A_2 O3 1_555 1_555
Pb1_3 O4 1_555 1_555
Pb1A_3 O4 1_555 1_555
Pb1A_4 O2A 1_555 1_555
Pb1_4 O3A 1_555 1_555
Pb1A_5 O4A 1_555 1_555
O2A_2 Pb1A 1_555 1_555
O3_2 Pb1A 1_555 1_555
O3A_3 Pb1A 1_555 1_555
O4_3 Pb1A 1_555 1_555
O4A_2 Pb1A 1_555 1_555
C1A O2A 1_555 1_555
O1A Pb1A 1_555 1_555
C2A O4A 1_555 1_555
O3A Pb1A_3 1_555 1_555
O2_2 Pb1A_4 1_555 1_555
O3A_2 Pb1A_2 1_555 1_555
O4_2 Pb1A_5 1_555 1_555
Pb1_2 O2A_2 1_555 1_555

#END
