
#######################################################################
#
#                 Cambridge Crystallographic Data Centre
#                                CCDC 
#
#######################################################################
#
# If this CIF has been generated from an entry in the Cambridge 
# Structural Database, then it will include bibliographic, chemical, 
# crystal, experimental, refinement or atomic coordinate data resulting 
# from the CCDC's data processing and validation procedures.
#
#######################################################################

data_JAHXEV
_symmetry_cell_setting           monoclinic
_symmetry_space_group_name_H-M   'P 21/n'
_symmetry_Int_Tables_number      14
_space_group_name_Hall           '-P 2yn'
loop_
_symmetry_equiv_pos_site_id
_symmetry_equiv_pos_as_xyz
1 x,y,z
2 1/2-x,1/2+y,1/2-z
3 -x,-y,-z
4 1/2+x,1/2-y,1/2+z
_cell_length_a                   13.388(6)
_cell_length_b                   10.278(4)
_cell_length_c                   17.350(6)
_cell_angle_alpha                90
_cell_angle_beta                 98.6(3)
_cell_angle_gamma                90
_cell_volume                     2360.55
loop_
_atom_site_label
_atom_site_type_symbol
_atom_site_fract_x
_atom_site_fract_y
_atom_site_fract_z
Sn1 Sn -0.21878(3) 0.20045(3) 0.21346(2)
N1 N 0.0462(5) -0.1449(5) -0.0137(3)
O1 O -0.1603(3) 0.0434(3) 0.1467(2)
O2 O -0.2161(3) -0.1027(4) 0.2227(2)
C1 C -0.1303(5) 0.1676(7) 0.3246(3)
C2 C -0.0267(5) 0.1117(8) 0.3274(4)
C3 C 0.0328(6) 0.1017(11) 0.4071(5)
C4 C 0.1317(7) 0.0483(10) 0.4131(6)
C5 C -0.1628(4) 0.3415(6) 0.1403(4)
C6 C -0.0503(5) 0.3673(6) 0.1612(3)
C7 C -0.0115(5) 0.4641(7) 0.1064(4)
C8 C 0.0997(6) 0.4884(8) 0.1249(5)
C9 C -0.3722(4) 0.1432(7) 0.1890(4)
C10 C -0.4265(8) 0.1576(16) 0.1211(7)
C11 C -0.5405(12) 0.1150(24) 0.1099(10)
C12 C -0.5979(15) 0.1440(21) 0.0692(12)
C13 C -0.1780(4) -0.0739(5) 0.1644(3)
C14 C -0.1548(5) -0.1803(5) 0.1094(4)
C15 C -0.0599(5) -0.1633(5) 0.0745(4)
C16 C -0.0529(5) -0.1565(6) -0.0033(4)
C17 C 0.0390(5) -0.1551(6) 0.1151(4)
C18 C 0.0808(6) -0.1563(8) 0.1924(5)
C19 C 0.1820(7) -0.1475(11) 0.2134(6)
C20 C 0.2441(6) -0.1300(11) 0.1558(7)
C21 C 0.2065(6) -0.1314(9) 0.0779(6)
C22 C 0.1036(5) -0.1411(6) 0.0579(4)
H1 H -0.4262(8) 0.2592(16) 0.1054(7)
H2 H -0.3895(8) 0.1015(16) 0.0810(7)
H3 H -0.5624(12) 0.1263(24) 0.1670(10)
H4 H -0.5385(12) 0.0129(24) 0.0957(10)
H5 H -0.6663(15) 0.0924(21) 0.0763(12)
H6 H -0.5831(15) 0.1326(21) 0.0101(12)
H7 H -0.6070(15) 0.2460(21) 0.0814(12)
H8 H -0.2172(5) -0.1854(5) 0.0622(4)
H9 H -0.1490(5) -0.2710(5) 0.1411(4)
H10 H -0.1162(5) -0.1597(6) -0.0497(4)
H11 H 0.0325(6) -0.1644(8) 0.2367(5)
H12 H 0.2146(7) -0.1535(11) 0.2741(6)
H13 H 0.3240(6) -0.1152(11) 0.1735(7)
H14 H 0.2557(6) -0.1259(9) 0.0340(6)
O2A O -0.2839(3) 0.3973(4) 0.2773(2)
Sn1A Sn -0.28122(3) -0.29955(3) 0.28654(2)
loop_
_geom_bond_atom_site_label_1
_geom_bond_atom_site_label_2
_geom_bond_site_symmetry_1
_geom_bond_site_symmetry_2
Sn1 O1 1_555 1_555
N1 C16 1_555 1_555
O1 C13 1_555 1_555
O2 C13 1_555 1_555
C1 Sn1 1_555 1_555
C2 C1 1_555 1_555
C3 C2 1_555 1_555
C4 C3 1_555 1_555
C5 Sn1 1_555 1_555
C6 C5 1_555 1_555
C7 C6 1_555 1_555
C8 C7 1_555 1_555
C9 Sn1 1_555 1_555
C10 C9 1_555 1_555
C11 C10 1_555 1_555
C12 C11 1_555 1_555
C13 C14 1_555 1_555
C14 C15 1_555 1_555
C15 C16 1_555 1_555
C16 H10 1_555 1_555
C17 C15 1_555 1_555
C18 C17 1_555 1_555
C19 C18 1_555 1_555
C20 C19 1_555 1_555
C21 C20 1_555 1_555
C22 N1 1_555 1_555
H1 C10 1_555 1_555
H2 C10 1_555 1_555
H3 C11 1_555 1_555
H4 C11 1_555 1_555
H5 C12 1_555 1_555
H6 C12 1_555 1_555
H7 C12 1_555 1_555
H8 C14 1_555 1_555
H9 C14 1_555 1_555
H11 C18 1_555 1_555
H12 C19 1_555 1_555
H13 C20 1_555 1_555
H14 C21 1_555 1_555
O2A Sn1 1_555 1_555
Sn1A O2 1_555 1_555
C17 C22 1_555 1_555
C21 C22 1_555 1_555

#END
