
#######################################################################
#
#                 Cambridge Crystallographic Data Centre
#                                CCDC 
#
#######################################################################
#
# If this CIF has been generated from an entry in the Cambridge 
# Structural Database, then it will include bibliographic, chemical, 
# crystal, experimental, refinement or atomic coordinate data resulting 
# from the CCDC's data processing and validation procedures.
#
#######################################################################

data_JAHYOG
_symmetry_cell_setting           monoclinic
_symmetry_space_group_name_H-M   'P 21/n'
_symmetry_Int_Tables_number      14
_space_group_name_Hall           '-P 2yn'
loop_
_symmetry_equiv_pos_site_id
_symmetry_equiv_pos_as_xyz
1 x,y,z
2 1/2-x,1/2+y,1/2-z
3 -x,-y,-z
4 1/2+x,1/2-y,1/2+z
_cell_length_a                   12.1527(7)
_cell_length_b                   7.8246(4)
_cell_length_c                   18.3140(8)
_cell_angle_alpha                90
_cell_angle_beta                 92.899(5)
_cell_angle_gamma                90
_cell_volume                     1739.25
loop_
_atom_site_label
_atom_site_type_symbol
_atom_site_fract_x
_atom_site_fract_y
_atom_site_fract_z
O1 O 0.3254(2) -0.5698(2) 0.4371(1)
O2 O 0.3876(2) -0.5657(2) 0.5537(1)
O3 O 0.2799(2) -0.1610(3) 0.2894(1)
O4 O 0.2798(2) 0.1153(3) 0.3129(1)
O5 O 0.3973(2) 0.0933(3) 0.5892(1)
H1 H 0.391(3) 0.171(5) 0.578(2)
N1 N 0.3327(2) -0.2452(3) 0.4228(1)
C1 C 0.4401(3) -0.5012(5) 0.2942(2)
H2 H 0.4879(3) -0.5285(5) 0.3367(2)
H3 H 0.4283(3) -0.6062(5) 0.2667(2)
C2 C 0.4993(4) -0.3795(7) 0.2480(3)
H4 H 0.5031(4) -0.2691(7) 0.2721(3)
H5 H 0.4576(4) -0.3651(7) 0.2018(3)
C3 C 0.6149(5) -0.4371(8) 0.2330(4)
H6 H 0.6529(5) -0.4651(8) 0.2793(4)
H7 H 0.6098(5) -0.5412(8) 0.2042(4)
C4 C 0.6787(7) -0.320(2) 0.1966(7)
H8 H 0.7500(7) -0.369(2) 0.1897(7)
H9 H 0.6868(7) -0.218(2) 0.2251(7)
H10 H 0.6434(7) -0.294(2) 0.1499(7)
C5 C 0.1175(3) -0.4551(5) 0.3449(2)
H11 H 0.0776(3) -0.4384(5) 0.2982(2)
H12 H 0.1051(3) -0.5718(5) 0.3603(2)
C6 C 0.0715(3) -0.3341(6) 0.4006(2)
H13 H 0.1113(3) -0.3511(6) 0.4473(2)
H14 H 0.0843(3) -0.2174(6) 0.3853(2)
C7 C -0.0502(4) -0.3581(8) 0.4106(3)
H15 H -0.0905(4) -0.3416(8) 0.3640(3)
H16 H -0.0634(4) -0.4740(8) 0.4267(3)
C8 C -0.0925(5) -0.2331(9) 0.4662(4)
H17 H -0.1698(5) -0.2521(9) 0.4715(4)
H18 H -0.0811(5) -0.1182(9) 0.4498(4)
H19 H -0.0534(5) -0.2501(9) 0.5125(4)
Sn1 Sn 0.28743(2) -0.42005(2) 0.33099(1)
C9 C 0.3587(3) -0.4956(3) 0.4958(2)
C10 C 0.3595(2) -0.3011(3) 0.4904(1)
C11 C 0.3823(2) -0.1910(3) 0.5474(1)
H20 H 0.4021(2) -0.2321(3) 0.5939(1)
C12 C 0.3748(2) -0.0145(3) 0.5339(2)
C13 C 0.3455(2) 0.0419(3) 0.4637(2)
H21 H 0.3392(2) 0.1580(3) 0.4535(2)
C14 C 0.3263(2) -0.0770(3) 0.4101(1)
C15 C 0.2929(3) -0.0345(4) 0.3323(2)
Sn1A Sn 0.21257(2) 0.07995(2) 0.16901(1)
O4A O 0.2202(2) -0.3847(3) 0.1871(1)
O3A O 0.2201(2) -0.6610(3) 0.2106(1)
loop_
_geom_bond_atom_site_label_1
_geom_bond_atom_site_label_2
_geom_bond_site_symmetry_1
_geom_bond_site_symmetry_2
O1 Sn1 1_555 1_555
O2 C9 1_555 1_555
O3 Sn1 1_555 1_555
O4 C15 1_555 1_555
O5 H1 1_555 1_555
N1 Sn1 1_555 1_555
C1 H2 1_555 1_555
H3 C1 1_555 1_555
C2 C1 1_555 1_555
H4 C2 1_555 1_555
H5 C2 1_555 1_555
C3 C2 1_555 1_555
H6 C3 1_555 1_555
H7 C3 1_555 1_555
C4 C3 1_555 1_555
H8 C4 1_555 1_555
H9 C4 1_555 1_555
H10 C4 1_555 1_555
C5 H11 1_555 1_555
H12 C5 1_555 1_555
C6 C5 1_555 1_555
H13 C6 1_555 1_555
H14 C6 1_555 1_555
C7 C6 1_555 1_555
H15 C7 1_555 1_555
H16 C7 1_555 1_555
C8 C7 1_555 1_555
H17 C8 1_555 1_555
H18 C8 1_555 1_555
H19 C8 1_555 1_555
Sn1 C1 1_555 1_555
C9 O1 1_555 1_555
C10 N1 1_555 1_555
C11 C10 1_555 1_555
H20 C11 1_555 1_555
C12 O5 1_555 1_555
C13 C12 1_555 1_555
H21 C13 1_555 1_555
C14 N1 1_555 1_555
C15 O3 1_555 1_555
Sn1A O3 1_555 1_555
O4A Sn1 1_555 1_555
O3A Sn1 1_555 1_555
O4 Sn1A 1_555 1_555
C5 Sn1 1_555 1_555
C9 C10 1_555 1_555
C11 C12 1_555 1_555
C13 C14 1_555 1_555
C14 C15 1_555 1_555

#END
