
#######################################################################
#
#                 Cambridge Crystallographic Data Centre
#                                CCDC 
#
#######################################################################
#
# If this CIF has been generated from an entry in the Cambridge 
# Structural Database, then it will include bibliographic, chemical, 
# crystal, experimental, refinement or atomic coordinate data resulting 
# from the CCDC's data processing and validation procedures.
#
#######################################################################

data_JAHYAT
_symmetry_cell_setting           triclinic
_symmetry_space_group_name_H-M   'P -1'
_symmetry_Int_Tables_number      2
_space_group_name_Hall           '-P 1'
loop_
_symmetry_equiv_pos_site_id
_symmetry_equiv_pos_as_xyz
1 x,y,z
2 -x,-y,-z
_cell_length_a                   10.52950(10)
_cell_length_b                   12.4930(2)
_cell_length_c                   23.49940(10)
_cell_angle_alpha                95.80
_cell_angle_beta                 100.8900(10)
_cell_angle_gamma                111.7400(10)
_cell_volume                     2769.64
loop_
_atom_site_label
_atom_site_type_symbol
_atom_site_fract_x
_atom_site_fract_y
_atom_site_fract_z
Gd1 Gd 0.54368(7) 0.10777(6) 0.57349(3)
Gd2 Gd 0.52123(7) 0.30942(6) 0.71185(3)
Gd3 Gd 0.32792(7) 0.38439(6) 0.15254(3)
Cu1 Cu 0.53798(19) -0.18169(17) 0.93927(7)
C1 C 0.7393(14) 0.3985(13) 0.6225(6)
C2 C 0.8773(16) 0.4924(14) 0.6200(7)
C3 C 0.9495(17) 0.4670(18) 0.5807(8)
H1 H 0.9106 0.3949 0.5551
C4 C 1.079(2) 0.549(2) 0.5797(9)
H2 H 1.1239 0.5338 0.5511
C5 C 1.142(2) 0.648(2) 0.6182(10)
H3 H 1.2330 0.6986 0.6187
C6 C 1.0720(18) 0.6797(17) 0.6589(8)
C7 C 0.9373(17) 0.5982(15) 0.6587(7)
H4 H 0.8885 0.6159 0.6848
C8 C 1.137(2) 0.7940(19) 0.7019(11)
C9 C 0.4796(13) 0.1363(13) 0.4224(6)
C10 C 0.4962(16) 0.2568(13) 0.4094(6)
C11 C 0.5658(16) 0.3533(13) 0.4557(6)
H5 H 0.5947 0.3425 0.4938
C12 C 0.5911(17) 0.4645(13) 0.4444(6)
H6 H 0.6426 0.5299 0.4742
C13 C 0.5386(18) 0.4770(15) 0.3882(7)
H7 H 0.5523 0.5519 0.3810
C14 C 0.4663(16) 0.3820(13) 0.3421(6)
C15 C 0.4473(16) 0.2719(13) 0.3536(5)
H8 H 0.4006 0.2070 0.3232
C16 C 0.4111(15) 0.3995(14) 0.2816(6)
C17 C 0.2884(15) 0.2124(12) 0.6097(7)
C18 C 0.1809(14) 0.1874(12) 0.5546(6)
C19 C 0.2142(16) 0.1949(14) 0.5001(6)
H9 H 0.3077 0.2183 0.4980
C20 C 0.1117(16) 0.1686(14) 0.4502(6)
H10 H 0.1369 0.1770 0.4145
C21 C -0.0303(15) 0.1293(14) 0.4504(6)
H11 H -0.0996 0.1083 0.4155
C22 C -0.0662(14) 0.1223(13) 0.5056(6)
C23 C 0.0429(13) 0.1563(12) 0.5566(6)
H12 H 0.0210 0.1579 0.5931
C24 C -0.2156(15) 0.0792(12) 0.5075(7)
C25 C 0.8405(16) 0.4692(15) 0.7996(6)
C26 C 0.9721(14) 0.4696(13) 0.7846(6)
C27 C 0.9687(16) 0.3886(14) 0.7393(6)
H13 H 0.8829 0.3283 0.7196
C28 C 1.0904(17) 0.3949(14) 0.7224(6)
H14 H 1.0861 0.3405 0.6912
C29 C 1.2186(18) 0.4838(14) 0.7528(6)
H15 H 1.3006 0.4885 0.7418
C30 C 1.2263(15) 0.5655(12) 0.7992(6)
C31 C 1.0998(15) 0.5571(14) 0.8143(6)
H16 H 1.1029 0.6120 0.8449
C32 C 1.3650(15) 0.6508(14) 0.8355(6)
C33 C 0.4194(15) 0.3508(13) 0.8360(6)
C34 C 0.3077(14) 0.3160(13) 0.8705(6)
C35 C 0.1663(16) 0.2583(14) 0.8402(6)
H17 H 0.1431 0.2350 0.7994
C36 C 0.0591(16) 0.2349(15) 0.8701(6)
H18 H -0.0353 0.2004 0.8495
C37 C 0.0963(16) 0.2640(15) 0.9305(6)
H19 H 0.0260 0.2479 0.9511
C38 C 0.2364(14) 0.3168(12) 0.9616(6)
C39 C 0.3410(15) 0.3418(12) 0.9307(6)
H20 H 0.4352 0.3768 0.9514
C40 C 0.2731(15) 0.3380(12) 1.0279(6)
C41 C 0.7234(16) -0.1153(13) 0.8603(6)
C42 C 0.7564(15) -0.0524(11) 0.8107(6)
C43 C 0.8656(15) -0.0550(13) 0.7852(6)
H21 H 0.9203 -0.0946 0.7999
C44 C 0.8920(16) 0.0006(13) 0.7386(7)
H22 H 0.9625 -0.0026 0.7207
C45 C 0.8104(16) 0.0622(14) 0.7186(6)
H23 H 0.8316 0.1039 0.6886
C46 C 0.7000(17) 0.0635(13) 0.7417(6)
C47 C 0.6786(15) 0.0084(13) 0.7898(6)
H24 H 0.6095 0.0130 0.8082
C48 C 0.6114(14) 0.1245(12) 0.7205(6)
C49 C 0.7962(19) 0.0248(17) 1.0088(8)
H25 H 0.8294 0.0218 0.9750
C50 C 0.879(2) 0.1135(18) 1.0545(9)
H26 H 0.9652 0.1696 1.0524
C51 C 0.829(3) 0.115(2) 1.1039(9)
H27 H 0.8796 0.1762 1.1360
C52 C 0.705(2) 0.0292(17) 1.1074(9)
H28 H 0.6741 0.0287 1.1419
C53 C 0.6280(18) -0.0563(15) 1.0580(7)
C54 C 0.4921(19) -0.1528(15) 1.0547(7)
C55 C 0.435(2) -0.1733(18) 1.1022(9)
H29 H 0.4785 -0.1232 1.1386
C56 C 0.315(3) -0.267(2) 1.0951(8)
H30 H 0.2769 -0.2831 1.1275
C57 C 0.244(2) -0.3412(18) 1.0405(10)
H31 H 0.1580 -0.4046 1.0352
C58 C 0.311(2) -0.3137(18) 0.9936(8)
H32 H 0.2697 -0.3627 0.9568
N1 N 0.6725(15) -0.0579(12) 1.0076(5)
N2 N 0.4282(13) -0.2222(12) 1.0004(5)
O1 O 0.6823(10) 0.4208(8) 0.6628(4)
O2 O 0.6879(11) 0.3053(9) 0.5854(4)
O3 O 1.253(2) 0.8607(16) 0.6950(8)
H33 H 1.2769 0.9261 0.7146
O4 O 1.077(2) 0.8180(16) 0.7363(10)
O5 O 0.4988(10) 0.1236(8) 0.4760(4)
O6 O 0.4575(11) 0.0567(9) 0.3818(4)
O7 O 0.3169(12) 0.3147(9) 0.2460(4)
O8 O 0.4630(10) 0.5014(9) 0.2670(4)
O9 O 0.2707(11) 0.2401(11) 0.6591(5)
O10 O 0.4115(10) 0.2147(9) 0.6063(4)
O11 O -0.2493(10) 0.1023(9) 0.5540(4)
O12 O -0.3072(10) 0.0195(9) 0.4589(4)
O13 O 0.8485(11) 0.5621(10) 0.8289(5)
O14 O 0.7328(11) 0.3757(10) 0.7822(4)
O15 O 1.4744(10) 0.6515(10) 0.8204(4)
O16 O 1.3676(10) 0.7211(9) 0.8787(4)
O17 O 0.5315(10) 0.4355(9) 0.8605(4)
O18 O 0.3943(10) 0.2904(9) 0.7860(4)
O19 O 0.1887(11) 0.3608(9) 1.0546(4)
O20 O 0.3873(10) 0.3356(9) 1.0564(4)
O21 O 0.6351(11) -0.0962(9) 0.8844(4)
O22 O 0.7838(10) -0.1819(8) 0.8748(4)
O23 O 0.5175(12) 0.1307(10) 0.7450(5)
O24 O 0.6315(10) 0.1765(8) 0.6771(4)
O6A O 0.5425(11) -0.0567(9) 0.6182(4)
O11_2 O 0.7507(10) 0.1023(9) 0.5540(4)
O12A O 0.3072(10) -0.0195(9) 0.5411(4)
O8A O 0.5370(10) 0.4986(9) 0.7330(4)
O13A O 0.1515(11) 0.4379(10) 0.1711(5)
O15A O 0.5256(10) 0.3485(10) 0.1796(4)
O17A O 0.4685(10) 0.5645(9) 0.1395(4)
O19_2 O 0.1887(11) 0.3608(9) 0.0546(4)
O20_2 O 0.3873(10) 0.3356(9) 0.0564(4)
O22A O 0.2162(10) 0.1819(8) 0.1252(4)
O16_2 O 0.3676(10) -0.2789(9) 0.8787(4)
O20A O 0.6127(10) -0.3356(9) 0.9436(4)
Gd1A Gd 0.45632(7) -0.10777(6) 0.42651(3)
Gd2A Gd 0.47877(7) 0.69058(6) 0.28815(3)
Gd1_2 Gd -0.45632(7) 0.10777(6) 0.57349(3)
Gd1A_2 Gd -0.54368(7) -0.10777(6) 0.42651(3)
Gd3A Gd 0.67208(7) 0.61561(6) 0.84746(3)
Gd3A_2 Gd 1.67208(7) 0.61561(6) 0.84746(3)
Cu1_2 Cu 1.53798(19) 0.81831(17) 0.93927(7)
Gd3_2 Gd 0.32792(7) 0.38439(6) 1.15254(3)
Cu1A Cu 0.46202(19) 0.18169(17) 1.06073(7)
Gd3A_3 Gd 0.67208(7) -0.38439(6) 0.84746(3)
O25 O 0.251(2) 0.048(2) 0.7701(10)
loop_
_geom_bond_atom_site_label_1
_geom_bond_atom_site_label_2
_geom_bond_site_symmetry_1
_geom_bond_site_symmetry_2
Gd1 O2 1_555 1_555
Gd2 O1 1_555 1_555
Gd3 O7 1_555 1_555
Cu1 N1 1_555 1_555
C1 C2 1_555 1_555
C2 C3 1_555 1_555
C3 H1 1_555 1_555
C4 C3 1_555 1_555
H2 C4 1_555 1_555
C5 C4 1_555 1_555
H3 C5 1_555 1_555
C6 C5 1_555 1_555
C7 C2 1_555 1_555
H4 C7 1_555 1_555
C8 C6 1_555 1_555
C9 C10 1_555 1_555
C10 C11 1_555 1_555
C11 H5 1_555 1_555
C12 C11 1_555 1_555
H6 C12 1_555 1_555
C13 C12 1_555 1_555
H7 C13 1_555 1_555
C14 C13 1_555 1_555
C15 C10 1_555 1_555
H8 C15 1_555 1_555
C16 C14 1_555 1_555
C17 C18 1_555 1_555
C18 C19 1_555 1_555
C19 H9 1_555 1_555
C20 C19 1_555 1_555
H10 C20 1_555 1_555
C21 C20 1_555 1_555
H11 C21 1_555 1_555
C22 C21 1_555 1_555
C23 C18 1_555 1_555
H12 C23 1_555 1_555
C24 C22 1_555 1_555
C25 C26 1_555 1_555
C26 C27 1_555 1_555
C27 H13 1_555 1_555
C28 C27 1_555 1_555
H14 C28 1_555 1_555
C29 C28 1_555 1_555
H15 C29 1_555 1_555
C30 C29 1_555 1_555
C31 C26 1_555 1_555
H16 C31 1_555 1_555
C32 C30 1_555 1_555
C33 C34 1_555 1_555
C34 C35 1_555 1_555
C35 H17 1_555 1_555
C36 C35 1_555 1_555
H18 C36 1_555 1_555
C37 C36 1_555 1_555
H19 C37 1_555 1_555
C38 C37 1_555 1_555
C39 C34 1_555 1_555
H20 C39 1_555 1_555
C40 C38 1_555 1_555
C41 C42 1_555 1_555
C42 C43 1_555 1_555
C43 H21 1_555 1_555
C44 C43 1_555 1_555
H22 C44 1_555 1_555
C45 C44 1_555 1_555
H23 C45 1_555 1_555
C46 C45 1_555 1_555
C47 C42 1_555 1_555
H24 C47 1_555 1_555
C48 C46 1_555 1_555
C49 H25 1_555 1_555
C50 C49 1_555 1_555
H26 C50 1_555 1_555
C51 C50 1_555 1_555
H27 C51 1_555 1_555
C52 C51 1_555 1_555
H28 C52 1_555 1_555
C53 C52 1_555 1_555
C54 C53 1_555 1_555
C55 C54 1_555 1_555
H29 C55 1_555 1_555
C56 C55 1_555 1_555
H30 C56 1_555 1_555
C57 C56 1_555 1_555
H31 C57 1_555 1_555
C58 C57 1_555 1_555
H32 C58 1_555 1_555
N1 C49 1_555 1_555
N2 Cu1 1_555 1_555
O1 C1 1_555 1_555
O2 C1 1_555 1_555
O3 C8 1_555 1_555
H33 O3 1_555 1_555
O4 C8 1_555 1_555
O5 Gd1 1_555 1_555
O6 C9 1_555 1_555
O7 C16 1_555 1_555
O8 Gd3 1_555 1_555
O9 Gd2 1_555 1_555
O10 Gd1 1_555 1_555
O11 C24 1_555 1_555
O12 C24 1_555 1_555
O13 C25 1_555 1_555
O14 Gd2 1_555 1_555
O15 C32 1_555 1_555
O16 C32 1_555 1_555
O17 C33 1_555 1_555
O18 Gd2 1_555 1_555
O19 C40 1_555 1_555
O20 C40 1_555 1_555
O21 Cu1 1_555 1_555
O22 C41 1_555 1_555
O23 Gd2 1_555 1_555
O24 Gd1 1_555 1_555
O6A Gd1 1_555 1_555
O11_2 Gd1 1_555 1_555
O12A Gd1 1_555 1_555
O8A Gd2 1_555 1_555
O13A Gd3 1_555 1_555
O15A Gd3 1_555 1_555
O17A Gd3 1_555 1_555
O19_2 Gd3 1_555 1_555
O20_2 Gd3 1_555 1_555
O22A Gd3 1_555 1_555
O16_2 Cu1 1_555 1_555
O20A Cu1 1_555 1_555
Gd1A O6 1_555 1_555
Gd2A O8 1_555 1_555
Gd1_2 O11 1_555 1_555
Gd1A_2 O12 1_555 1_555
Gd3A O13 1_555 1_555
Gd3A_2 O15 1_555 1_555
Cu1_2 O16 1_555 1_555
Gd3_2 O19 1_555 1_555
Cu1A O20 1_555 1_555
Gd3A_3 O22 1_555 1_555
Gd2 O10 1_555 1_555
Gd2 O24 1_555 1_555
C6 C7 1_555 1_555
C9 O5 1_555 1_555
C14 C15 1_555 1_555
C16 O8 1_555 1_555
C17 O9 1_555 1_555
C17 O10 1_555 1_555
C22 C23 1_555 1_555
C25 O14 1_555 1_555
C30 C31 1_555 1_555
C33 O18 1_555 1_555
C38 C39 1_555 1_555
C41 O21 1_555 1_555
C46 C47 1_555 1_555
C48 O23 1_555 1_555
C48 O24 1_555 1_555
C53 N1 1_555 1_555
C54 N2 1_555 1_555
C58 N2 1_555 1_555
O17 Gd3A 1_555 1_555
O20 Gd3_2 1_555 1_555
O8A Gd3A 1_555 1_555
O20A Gd3A_3 1_555 1_555

#END
