
#######################################################################
#
#                 Cambridge Crystallographic Data Centre
#                                CCDC 
#
#######################################################################
#
# If this CIF has been generated from an entry in the Cambridge 
# Structural Database, then it will include bibliographic, chemical, 
# crystal, experimental, refinement or atomic coordinate data resulting 
# from the CCDC's data processing and validation procedures.
#
#######################################################################

data_JAJCED
_symmetry_cell_setting           triclinic
_symmetry_space_group_name_H-M   'P -1'
_symmetry_Int_Tables_number      2
_space_group_name_Hall           '-P 1'
loop_
_symmetry_equiv_pos_site_id
_symmetry_equiv_pos_as_xyz
1 x,y,z
2 -x,-y,-z
_cell_length_a                   5.5378(8)
_cell_length_b                   6.7720(10)
_cell_length_c                   10.096(2)
_cell_angle_alpha                100.464(2)
_cell_angle_beta                 100.407(2)
_cell_angle_gamma                110.756(2)
_cell_volume                     335.574
loop_
_atom_site_label
_atom_site_type_symbol
_atom_site_fract_x
_atom_site_fract_y
_atom_site_fract_z
Ni1 Ni 1.00000 1.00000 1.00000
Cl1 Cl 1.09771(12) 0.82934(10) 0.79995(7)
O1 O 0.6924(4) 0.7038(3) 0.9985(2)
C1 C 0.5407(5) 0.5322(4) 0.8712(3)
C2 C 0.7294(5) 0.6071(4) 1.1130(3)
O3 O 0.7232(4) 1.0665(3) 0.8710(2)
H1 H 0.646(6) 0.449(5) 0.848(3)
H2 H 0.515(6) 0.601(5) 0.797(3)
H3 H 0.825(6) 0.725(5) 1.202(3)
H4 H 0.835(7) 0.521(6) 1.096(3)
H9 H 0.728(6) 1.050(6) 0.7793(14)
H10 H 0.549(3) 1.012(7) 0.873(3)
C2A C 0.2706(5) 0.3929(4) 0.8870(3)
O1A O 0.3076(4) 0.2962(3) 1.0015(2)
C1A C 0.4593(5) 0.4678(4) 1.1288(3)
H1A H 0.354(6) 0.551(5) 1.152(3)
H2A H 0.485(6) 0.399(5) 1.203(3)
H3A H 0.175(6) 0.275(5) 0.798(3)
H4A H 0.165(7) 0.479(6) 0.904(3)
Cl1A Cl 0.90229(12) 1.17066(10) 1.20005(7)
O3A O 1.2768(4) 0.9335(3) 1.1290(2)
H9A H 1.272(6) 0.950(6) 1.2207(14)
H10A H 1.451(3) 0.988(7) 1.127(3)
O1A_2 O 1.3076(4) 1.2962(3) 1.0015(2)
Ni1_2 Ni 0.00000 0.00000 1.00000
O2 O 0.2499(4) 0.9322(4) 0.4014(2)
C3 C 0.3660(6) 1.1406(5) 0.5041(3)
C4 C 0.3314(6) 0.7764(5) 0.4559(3)
H5 H 0.302(8) 1.234(7) 0.458(4)
H6 H 0.302(7) 1.129(6) 0.590(4)
H7 H 0.271(8) 0.766(6) 0.546(4)
H8 H 0.263(8) 0.645(7) 0.381(4)
C4A C 0.6686(6) 1.2236(5) 0.5441(3)
O2A O 0.7501(4) 1.0678(4) 0.5986(2)
C3A C 0.6340(6) 0.8594(5) 0.4959(3)
H5A H 0.698(8) 0.766(7) 0.542(4)
H6A H 0.698(7) 0.871(6) 0.410(4)
H7A H 0.729(8) 1.234(6) 0.454(4)
H8A H 0.737(8) 1.355(7) 0.619(4)
loop_
_geom_bond_atom_site_label_1
_geom_bond_atom_site_label_2
_geom_bond_site_symmetry_1
_geom_bond_site_symmetry_2
Ni1 Cl1 1_555 1_555
O1 Ni1 1_555 1_555
C1 O1 1_555 1_555
C2 O1 1_555 1_555
O2 C3 1_555 1_555
C3 H5 1_555 1_555
C4 O2 1_555 1_555
O3 Ni1 1_555 1_555
H1 C1 1_555 1_555
H2 C1 1_555 1_555
H3 C2 1_555 1_555
H4 C2 1_555 1_555
H6 C3 1_555 1_555
H7 C4 1_555 1_555
H8 C4 1_555 1_555
H9 O3 1_555 1_555
H10 O3 1_555 1_555
C2A C1 1_555 1_555
O1A C2A 1_555 1_555
C1A C2 1_555 1_555
H1A C1A 1_555 1_555
H2A C1A 1_555 1_555
H3A C2A 1_555 1_555
H4A C2A 1_555 1_555
C4A C3 1_555 1_555
O2A C4A 1_555 1_555
C3A C4 1_555 1_555
H5A C3A 1_555 1_555
H6A C3A 1_555 1_555
H7A C4A 1_555 1_555
H8A C4A 1_555 1_555
Cl1A Ni1 1_555 1_555
O3A Ni1 1_555 1_555
H9A O3A 1_555 1_555
H10A O3A 1_555 1_555
O1A_2 Ni1 1_555 1_555
Ni1_2 O1A 1_555 1_555
O1A C1A 1_555 1_555
O2A C3A 1_555 1_555

#END
