
#######################################################################
#
#                 Cambridge Crystallographic Data Centre
#                                CCDC 
#
#######################################################################
#
# If this CIF has been generated from an entry in the Cambridge 
# Structural Database, then it will include bibliographic, chemical, 
# crystal, experimental, refinement or atomic coordinate data resulting 
# from the CCDC's data processing and validation procedures.
#
#######################################################################

data_JAJCED01
_symmetry_cell_setting           triclinic
_symmetry_space_group_name_H-M   'P -1'
_symmetry_Int_Tables_number      2
_space_group_name_Hall           '-P 1'
loop_
_symmetry_equiv_pos_site_id
_symmetry_equiv_pos_as_xyz
1 x,y,z
2 -x,-y,-z
_cell_length_a                   5.5719(2)
_cell_length_b                   6.8196(3)
_cell_length_c                   10.1691(4)
_cell_angle_alpha                100.5540(10)
_cell_angle_beta                 100.235(2)
_cell_angle_gamma                111.160(2)
_cell_volume                     341.502
loop_
_atom_site_label
_atom_site_type_symbol
_atom_site_fract_x
_atom_site_fract_y
_atom_site_fract_z
Ni1 Ni 0.5000 0.0000 0.0000
Cl1 Cl 0.40097(8) 0.16921(7) 0.19768(4)
O1 O 0.8055(2) 0.29790(18) 0.00176(11)
O3 O 0.7757(3) -0.0628(2) 0.12883(14)
C1 C 0.7736(4) 0.3938(3) -0.1119(2)
C2 C 0.9576(4) 0.4692(3) 0.12724(18)
H1 H 0.926(5) -0.013(4) 0.129(2)
H2 H 0.784(5) -0.042(4) 0.217(3)
H3 H 0.673(4) 0.271(3) -0.196(2)
H4 H 0.676(5) 0.478(4) -0.092(2)
H5 H 0.984(4) 0.399(3) 0.1987(19)
H6 H 0.847(4) 0.553(3) 0.144(2)
Ni1_2 Ni 1.5000 1.0000 0.0000
Cl1A Cl 0.59903(8) -0.16921(7) -0.19768(4)
O1A O 1.1945(2) 0.70210(18) -0.00176(11)
O1A_2 O 0.1945(2) -0.29790(18) -0.00176(11)
O3A O 0.2243(3) 0.0628(2) -0.12883(14)
C1A C 1.2264(4) 0.6062(3) 0.1119(2)
C2A C 1.0424(4) 0.5308(3) -0.12724(18)
H1A H 0.074(5) 0.013(4) -0.129(2)
H2A H 0.216(5) 0.042(4) -0.217(3)
H3A H 1.327(4) 0.729(3) 0.196(2)
H4A H 1.324(5) 0.522(4) 0.092(2)
H5A H 1.016(4) 0.601(3) -0.1987(19)
H6A H 1.153(4) 0.447(3) -0.144(2)
O2 O 0.2450(3) 0.0668(3) -0.40126(14)
C3 C 0.1291(5) -0.1406(5) -0.5029(2)
C4 C 0.1696(5) 0.2209(4) -0.4559(2)
H7 H 0.245(5) 0.238(4) -0.539(3)
H8 H 0.257(5) 0.367(4) -0.378(3)
H9 H 0.202(5) -0.114(4) -0.587(3)
H10 H 0.184(5) -0.236(4) -0.459(3)
O2A O -0.2450(3) -0.0668(3) -0.59874(14)
C3A C -0.1291(5) 0.1406(5) -0.4971(2)
C4A C -0.1696(5) -0.2209(4) -0.5441(2)
H7A H -0.245(5) -0.238(4) -0.461(3)
H8A H -0.257(5) -0.367(4) -0.622(3)
H9A H -0.202(5) 0.114(4) -0.413(3)
H10A H -0.184(5) 0.236(4) -0.541(3)
loop_
_geom_bond_atom_site_label_1
_geom_bond_atom_site_label_2
_geom_bond_site_symmetry_1
_geom_bond_site_symmetry_2
Ni1 Cl1 1_555 1_555
O1 Ni1 1_555 1_555
O2 C3 1_555 1_555
O3 Ni1 1_555 1_555
C1 O1 1_555 1_555
C2 O1 1_555 1_555
C3 H9 1_555 1_555
C4 O2 1_555 1_555
H1 O3 1_555 1_555
H2 O3 1_555 1_555
H3 C1 1_555 1_555
H4 C1 1_555 1_555
H5 C2 1_555 1_555
H6 C2 1_555 1_555
H7 C4 1_555 1_555
H8 C4 1_555 1_555
H10 C3 1_555 1_555
Ni1_2 O1A 1_555 1_555
Cl1A Ni1 1_555 1_555
O1A C1A 1_555 1_555
O1A_2 Ni1 1_555 1_555
O2A C3A 1_555 1_555
O3A Ni1 1_555 1_555
C1A C2 1_555 1_555
C2A C1 1_555 1_555
C3A C4 1_555 1_555
C4A C3 1_555 1_555
H1A O3A 1_555 1_555
H2A O3A 1_555 1_555
H3A C1A 1_555 1_555
H4A C1A 1_555 1_555
H5A C2A 1_555 1_555
H6A C2A 1_555 1_555
H7A C4A 1_555 1_555
H8A C4A 1_555 1_555
H9A C3A 1_555 1_555
H10A C3A 1_555 1_555
O1A C2A 1_555 1_555
O2A C4A 1_555 1_555

#END
