
#######################################################################
#
#                 Cambridge Crystallographic Data Centre
#                                CCDC 
#
#######################################################################
#
# If this CIF has been generated from an entry in the Cambridge 
# Structural Database, then it will include bibliographic, chemical, 
# crystal, experimental, refinement or atomic coordinate data resulting 
# from the CCDC's data processing and validation procedures.
#
#######################################################################

data_JAKQOC
_symmetry_cell_setting           trigonal
_symmetry_space_group_name_H-M   'P -3'
_symmetry_Int_Tables_number      147
_space_group_name_Hall           '-P 3'
loop_
_symmetry_equiv_pos_site_id
_symmetry_equiv_pos_as_xyz
1 x,y,z
2 -y,x-y,z
3 -x+y,-x,z
4 -x,-y,-z
5 y,-x+y,-z
6 x-y,x,-z
_cell_length_a                   18.4013(8)
_cell_length_b                   18.4013(8)
_cell_length_c                   9.6305(9)
_cell_angle_alpha                90
_cell_angle_beta                 90
_cell_angle_gamma                120
_cell_volume                     2824.08
loop_
_atom_site_label
_atom_site_type_symbol
_atom_site_fract_x
_atom_site_fract_y
_atom_site_fract_z
O6 O -0.3333 0.3333 -0.094(2)
C21 C -0.3558(13) 0.3562(14) 0.034(2)
C21A C -0.3562(14) 0.2880(19) 0.034(2)
C21B C -0.2880(19) 0.3558(13) 0.034(2)
Cu1 Cu -0.474690(17) 0.049370(17) 0.11087(3)
O1 O -0.36976(11) 0.11701(11) 0.00961(19)
O2 O -0.57189(11) 0.01870(10) -0.18685(19)
O3 O -0.58624(10) -0.03533(10) 0.18023(18)
O4 O -0.52743(12) 0.10083(11) 0.0019(2)
C1 C -0.27524(15) 0.14890(15) -0.1765(3)
C2 C -0.21741(15) 0.22569(15) -0.1180(3)
H1 H -0.2316 0.2452 -0.0368
C3 C -0.13894(15) 0.27362(14) -0.1787(3)
C4 C -0.11695(16) 0.24491(16) -0.2971(3)
H2 H -0.0633 0.2777 -0.3385
C5 C -0.17472(17) 0.16779(16) -0.3533(3)
C6 C -0.25418(15) 0.12037(15) -0.2941(3)
H3 H -0.2939 0.0684 -0.3346
C7 C -0.35977(15) 0.09631(14) -0.1110(3)
C8 C -0.56098(14) 0.08110(14) -0.1163(3)
O5 O -0.16205(14) 0.13107(12) -0.4669(2)
C9 C -0.09467(18) 0.18066(18) -0.5607(3)
H4 H -0.0401 0.1923 -0.5215
H5 H -0.0921 0.2346 -0.5816
C10 C -0.11611(17) 0.12681(17) -0.6887(3)
C11 C -0.1700(2) 0.1280(2) -0.7876(4)
H6 H -0.1883 0.1678 -0.7799
C12 C -0.1975(2) 0.0723(2) -0.8970(4)
H7 H -0.2346 0.0740 -0.9638
C13 C -0.17144(19) 0.01412(19) -0.9104(3)
H8 H -0.1905 -0.0243 -0.9858
C14 C -0.1178(2) 0.0124(2) -0.8137(3)
H9 H -0.0994 -0.0273 -0.8225
C15 C -0.08997(19) 0.0682(2) -0.7026(3)
H10 H -0.0529 0.0663 -0.6360
N1 N -0.45293(12) 0.12687(12) 0.2920(2)
C16 C -0.46367(17) 0.19384(16) 0.2869(3)
H11 H -0.4714 0.2124 0.1989
C17 C -0.46392(18) 0.23695(17) 0.4044(3)
H12 H -0.4719 0.2840 0.3968
C18 C -0.45247(17) 0.21095(17) 0.5325(3)
H13 H -0.4521 0.2398 0.6146
C19 C -0.44142(17) 0.14153(17) 0.5391(3)
H14 H -0.4339 0.1216 0.6258
C20 C -0.44159(15) 0.10232(15) 0.4168(3)
H15 H -0.4332 0.0555 0.4216
Cu1C Cu -0.525310(17) -0.049370(17) -0.11087(3)
O1C O -0.63024(11) -0.11701(11) -0.00961(19)
C7C C -0.64023(15) -0.09631(14) 0.1110(3)
O3C O -0.41376(10) 0.03533(10) -0.18023(18)
O2C O -0.42811(11) -0.01870(10) 0.18685(19)
O4C O -0.47257(12) -0.10083(11) -0.0019(2)
N1C N -0.54707(12) -0.12687(12) -0.2920(2)
C16C C -0.53633(17) -0.19384(16) -0.2869(3)
H11C H -0.5286 -0.2124 -0.1989
C17C C -0.53608(18) -0.23695(17) -0.4044(3)
H12C H -0.5281 -0.2840 -0.3968
C18C C -0.54753(17) -0.21095(17) -0.5325(3)
H13C H -0.5479 -0.2398 -0.6146
C19C C -0.55858(17) -0.14153(17) -0.5391(3)
H14C H -0.5661 -0.1216 -0.6258
C20C C -0.55841(15) -0.10232(15) -0.4168(3)
H15C H -0.5668 -0.0555 -0.4216
Cu1D Cu -0.950630(17) -0.475940(24) -0.11087(3)
Cu1A Cu -1.049370(17) -0.524060(24) 0.11087(3)
O1A O -1.11701(11) -0.48677(16) 0.00961(19)
O4A O -1.10083(11) -0.62826(16) 0.0019(2)
O2D O -0.98130(10) -0.40941(15) 0.18685(19)
C8D C -0.91890(14) -0.35792(20) 0.1163(3)
O4D O -0.89917(11) -0.37174(16) -0.0019(2)
C3C C -0.86106(15) -0.27362(14) 0.1787(3)
C2C C -0.78259(15) -0.22569(15) 0.1180(3)
C1C C -0.72476(15) -0.14890(15) 0.1765(3)
C6C C -0.74582(15) -0.12037(15) 0.2941(3)
C5C C -0.82528(17) -0.16779(16) 0.3533(3)
C4C C -0.88305(16) -0.24491(16) 0.2971(3)
H2C H -0.9367 -0.2777 0.3385
O5C O -0.83795(14) -0.13107(12) 0.4669(2)
C9C C -0.90533(18) -0.18066(18) 0.5607(3)
H4C H -0.9599 -0.1923 0.5215
H5C H -0.9079 -0.2346 0.5816
C10C C -0.88389(17) -0.12681(17) 0.6887(3)
C11C C -0.8300(2) -0.1280(2) 0.7876(4)
H6C H -0.8117 -0.1678 0.7799
C12C C -0.8025(2) -0.0723(2) 0.8970(4)
H7C H -0.7654 -0.0740 0.9638
C13C C -0.82856(19) -0.01412(19) 0.9104(3)
H8C H -0.8095 0.0243 0.9858
C14C C -0.8822(2) -0.0124(2) 0.8137(3)
H9C H -0.9006 0.0273 0.8225
C15C C -0.91003(19) -0.0682(2) 0.7026(3)
H10C H -0.9471 -0.0663 0.6360
H3C H -0.7061 -0.0684 0.3346
H1C H -0.7684 -0.2452 0.0368
O3A O -0.96467(10) -0.55091(14) 0.18023(18)
N1A N -1.12687(12) -0.57980(17) 0.2920(2)
C16A C -1.19384(16) -0.65751(23) 0.2869(3)
H11A H -1.2124 -0.6838 0.1989
C17A C -1.23695(17) -0.70087(25) 0.4044(3)
H12A H -1.2840 -0.7559 0.3968
C18A C -1.21095(17) -0.66342(24) 0.5325(3)
H13A H -1.2398 -0.6919 0.6146
C19A C -1.14153(17) -0.58295(24) 0.5391(3)
H14A H -1.1216 -0.5555 0.6258
C20A C -1.10232(15) -0.54391(21) 0.4168(3)
H15A H -1.0555 -0.4887 0.4216
C3B C -0.58744(21) 0.13894(15) -0.1787(3)
C8A C -0.08110(14) 0.35792(20) -0.1163(3)
C2B C -0.55690(21) 0.21741(15) -0.1180(3)
C4B C -0.63814(23) 0.11695(16) -0.2971(3)
O2A O -0.01870(10) 0.40941(15) -0.18685(19)
O4A_2 O -0.10083(11) 0.37174(16) 0.0019(2)
C1B C -0.57586(21) 0.27524(15) -0.1765(3)
H1B H -0.5232 0.2316 -0.0368
H2B H -0.6590 0.0633 -0.3385
C5B C -0.65749(23) 0.17472(17) -0.3533(3)
Cu1D_2 Cu 0.049370(17) 0.524060(24) -0.11087(3)
Cu1A_2 Cu -0.049370(17) 0.475940(24) 0.11087(3)
C6B C -0.62545(21) 0.25418(15) -0.2941(3)
C7B C -0.54392(21) 0.35977(15) -0.1110(3)
O5B O -0.70688(18) 0.16205(14) -0.4669(2)
H3B H -0.6377 0.2939 -0.3346
O1B O -0.51323(16) 0.36976(11) 0.00961(19)
O3E O -0.55091(14) 0.41376(10) -0.18023(18)
C9B C -0.72467(25) 0.09467(18) -0.5607(3)
Cu1B Cu -0.475940(24) 0.474690(17) 0.11087(3)
Cu1E Cu -0.524060(24) 0.525310(17) -0.11087(3)
H4B H -0.7676 0.0401 -0.5215
H5B H -0.6733 0.0921 -0.5816
C10B C -0.75708(24) 0.11611(17) -0.6887(3)
C11B C -0.7020(3) 0.1700(2) -0.7876(4)
C15B C -0.84183(28) 0.08997(19) -0.7026(3)
H6B H -0.6439 0.1883 -0.7799
C12B C -0.7302(3) 0.1975(2) -0.8970(4)
C14B C -0.8698(3) 0.1178(2) -0.8137(3)
H10B H -0.8808 0.0529 -0.6360
H7B H -0.6914 0.2346 -0.9638
C13B C -0.81444(27) 0.17144(19) -0.9104(3)
H9B H -0.9279 0.0994 -0.8225
H8B H -0.8338 0.1905 -0.9858
loop_
_geom_bond_atom_site_label_1
_geom_bond_atom_site_label_2
_geom_bond_site_symmetry_1
_geom_bond_site_symmetry_2
Cu1 O1 1_555 1_555
O1 C7 1_555 1_555
O2 C8 1_555 1_555
O3 Cu1 1_555 1_555
O4 Cu1 1_555 1_555
C1 C2 1_555 1_555
C2 H1 1_555 1_555
C3 C2 1_555 1_555
C4 C3 1_555 1_555
H2 C4 1_555 1_555
C5 C4 1_555 1_555
C6 C1 1_555 1_555
H3 C6 1_555 1_555
C7 C1 1_555 1_555
C8 O4 1_555 1_555
O5 C5 1_555 1_555
C9 O5 1_555 1_555
H4 C9 1_555 1_555
H5 C9 1_555 1_555
C10 C9 1_555 1_555
C11 C10 1_555 1_555
H6 C11 1_555 1_555
C12 C11 1_555 1_555
H7 C12 1_555 1_555
C13 C12 1_555 1_555
H8 C13 1_555 1_555
C14 C13 1_555 1_555
H9 C14 1_555 1_555
C15 C10 1_555 1_555
H10 C15 1_555 1_555
N1 Cu1 1_555 1_555
C16 N1 1_555 1_555
H11 C16 1_555 1_555
C17 C16 1_555 1_555
H12 C17 1_555 1_555
C18 C17 1_555 1_555
H13 C18 1_555 1_555
C19 C18 1_555 1_555
H14 C19 1_555 1_555
C20 N1 1_555 1_555
H15 C20 1_555 1_555
O6 C21 1_555 1_555
C21 C21A 1_555 1_555
Cu1C Cu1 1_555 1_555
O1C Cu1C 1_555 1_555
C7C O3 1_555 1_555
O3C C7 1_555 1_555
O2C Cu1 1_555 1_555
O4C Cu1C 1_555 1_555
N1C Cu1C 1_555 1_555
C16C N1C 1_555 1_555
H11C C16C 1_555 1_555
C17C C16C 1_555 1_555
H12C C17C 1_555 1_555
C18C C17C 1_555 1_555
H13C C18C 1_555 1_555
C19C C18C 1_555 1_555
H14C C19C 1_555 1_555
C20C N1C 1_555 1_555
H15C C20C 1_555 1_555
Cu1D Cu1A 1_555 1_555
Cu1A O1A 1_555 1_555
O4A Cu1A 1_555 1_555
O2D Cu1A 1_555 1_555
C8D O2D 1_555 1_555
O4D Cu1D 1_555 1_555
C3C C8D 1_555 1_555
C2C C3C 1_555 1_555
C1C C7C 1_555 1_555
C6C C1C 1_555 1_555
C5C C6C 1_555 1_555
C4C C3C 1_555 1_555
H2C C4C 1_555 1_555
O5C C5C 1_555 1_555
C9C O5C 1_555 1_555
H4C C9C 1_555 1_555
H5C C9C 1_555 1_555
C10C C9C 1_555 1_555
C11C C10C 1_555 1_555
H6C C11C 1_555 1_555
C12C C11C 1_555 1_555
H7C C12C 1_555 1_555
C13C C12C 1_555 1_555
H8C C13C 1_555 1_555
C14C C13C 1_555 1_555
H9C C14C 1_555 1_555
C15C C10C 1_555 1_555
H10C C15C 1_555 1_555
H3C C6C 1_555 1_555
H1C C2C 1_555 1_555
O3A Cu1A 1_555 1_555
N1A Cu1A 1_555 1_555
C16A N1A 1_555 1_555
H11A C16A 1_555 1_555
C17A C16A 1_555 1_555
H12A C17A 1_555 1_555
C18A C17A 1_555 1_555
H13A C18A 1_555 1_555
C19A C18A 1_555 1_555
H14A C19A 1_555 1_555
C20A N1A 1_555 1_555
H15A C20A 1_555 1_555
C3B C8 1_555 1_555
C8A C3 1_555 1_555
C21A O6 1_555 1_555
C21B O6 1_555 1_555
C2B C3B 1_555 1_555
C4B C3B 1_555 1_555
O2A C8A 1_555 1_555
O4A_2 C8A 1_555 1_555
C1B C2B 1_555 1_555
H1B C2B 1_555 1_555
H2B C4B 1_555 1_555
C5B C4B 1_555 1_555
Cu1D_2 O2A 1_555 1_555
Cu1A_2 O4A_2 1_555 1_555
C6B C1B 1_555 1_555
C7B C1B 1_555 1_555
O5B C5B 1_555 1_555
H3B C6B 1_555 1_555
O1B C7B 1_555 1_555
O3E C7B 1_555 1_555
C9B O5B 1_555 1_555
Cu1B O1B 1_555 1_555
Cu1E O3E 1_555 1_555
H4B C9B 1_555 1_555
H5B C9B 1_555 1_555
C10B C9B 1_555 1_555
C11B C10B 1_555 1_555
C15B C10B 1_555 1_555
H6B C11B 1_555 1_555
C12B C11B 1_555 1_555
C14B C15B 1_555 1_555
H10B C15B 1_555 1_555
H7B C12B 1_555 1_555
C13B C12B 1_555 1_555
H9B C14B 1_555 1_555
H8B C13B 1_555 1_555
O2 Cu1C 1_555 1_555
C5 C6 1_555 1_555
C14 C15 1_555 1_555
C19 C20 1_555 1_555
C21 C21B 1_555 1_555
Cu1C O3C 1_555 1_555
O1C C7C 1_555 1_555
C19C C20C 1_555 1_555
C8D O4D 1_555 1_555
C2C C1C 1_555 1_555
C5C C4C 1_555 1_555
C14C C15C 1_555 1_555
C19A C20A 1_555 1_555
C21A C21B 1_555 1_555
C5B C6B 1_555 1_555
Cu1D_2 Cu1A_2 1_555 1_555
Cu1B Cu1E 1_555 1_555
C14B C13B 1_555 1_555

#END
