
#######################################################################
#
#                 Cambridge Crystallographic Data Centre
#                                CCDC 
#
#######################################################################
#
# If this CIF has been generated from an entry in the Cambridge 
# Structural Database, then it will include bibliographic, chemical, 
# crystal, experimental, refinement or atomic coordinate data resulting 
# from the CCDC's data processing and validation procedures.
#
#######################################################################

data_JAMKIS01
_symmetry_cell_setting           orthorhombic
_symmetry_space_group_name_H-M   'P b c m'
_symmetry_Int_Tables_number      57
_space_group_name_Hall           '-P 2c 2b'
loop_
_symmetry_equiv_pos_site_id
_symmetry_equiv_pos_as_xyz
1 x,y,z
2 -x,-y,1/2+z
3 -x,1/2+y,1/2-z
4 x,1/2-y,-z
5 -x,-y,-z
6 x,y,1/2-z
7 x,1/2-y,1/2+z
8 -x,1/2+y,z
_cell_length_a                   11.178(2)
_cell_length_b                   8.5420(17)
_cell_length_c                   15.015(3)
_cell_angle_alpha                90
_cell_angle_beta                 90
_cell_angle_gamma                90
_cell_volume                     1433.67
loop_
_atom_site_label
_atom_site_type_symbol
_atom_site_fract_x
_atom_site_fract_y
_atom_site_fract_z
Ni1 Ni 0.84063(5) 0.2500 0.5000
N1 N 0.9690(3) 0.2532(5) 0.6035(2)
C1 C 0.9991(4) 0.2859(5) 0.6741(2)
N2 N 1.0425(5) 0.3329(9) 0.7500
N3 N 0.8366(3) 0.0021(4) 0.4986(3)
H1 H 0.8315 -0.0321 0.4420
H2 H 0.9047 -0.0356 0.5223
C2 C 0.7335(4) -0.0558(6) 0.5498(3)
H3 H 0.7512 -0.1587 0.5737
H4 H 0.6643 -0.0648 0.5112
C3 C 0.7065(4) 0.0566(6) 0.6253(3)
H5 H 0.6311 0.0282 0.6528
H6 H 0.7687 0.0488 0.6701
N4 N 0.6997(3) 0.2196(4) 0.5923(2)
C4 C 0.5846(4) 0.2652(6) 0.5500(3)
H7 H 0.5702 0.3756 0.5607
H8 H 0.5200 0.2066 0.5773
Ni1E Ni 0.84063(5) 0.2500 1.0000
N1E N 0.9690(3) 0.2532(5) 0.8965(2)
N1C N 0.9690(3) 0.2468(5) 0.3965(2)
C1E C 0.9991(4) 0.2859(5) 0.8259(2)
N3C N 0.8366(3) 0.4979(4) 0.5014(3)
H1C H 0.8315 0.5321 0.5580
H2C H 0.9047 0.5356 0.4777
C2C C 0.7335(4) 0.5558(6) 0.4502(3)
H3C H 0.7512 0.6587 0.4263
H4C H 0.6643 0.5648 0.4888
C3C C 0.7065(4) 0.4434(6) 0.3747(3)
H5C H 0.6311 0.4718 0.3472
H6C H 0.7687 0.4512 0.3299
N4C N 0.6997(3) 0.2804(4) 0.4077(2)
C4C C 0.5846(4) 0.2348(6) 0.4500(3)
H7C H 0.5702 0.1244 0.4393
H8C H 0.5200 0.2934 0.4227
Cl1 Cl 0.32597(15) 0.0669(2) 0.7500
O1 O 0.2314(11) -0.0433(18) 0.7500
O2 O 0.4238(9) -0.0374(12) 0.7500
O3 O 0.3014(9) 0.1209(10) 0.6694(4)
O3E O 0.3014(9) 0.1209(10) 0.8306(4)
O4? O 0.379(3) 0.213(3) 0.7500
loop_
_geom_bond_atom_site_label_1
_geom_bond_atom_site_label_2
_geom_bond_site_symmetry_1
_geom_bond_site_symmetry_2
Ni1 N1 1_555 1_555
N1 C1 1_555 1_555
C1 N2 1_555 1_555
N2 C1E 1_555 1_555
N3 Ni1 1_555 1_555
H1 N3 1_555 1_555
H2 N3 1_555 1_555
C2 N3 1_555 1_555
H3 C2 1_555 1_555
H4 C2 1_555 1_555
C3 C2 1_555 1_555
H5 C3 1_555 1_555
H6 C3 1_555 1_555
N4 Ni1 1_555 1_555
C4 N4 1_555 1_555
H7 C4 1_555 1_555
H8 C4 1_555 1_555
Cl1 O1 1_555 1_555
O2 Cl1 1_555 1_555
O3 Cl1 1_555 1_555
Ni1E N1E 1_555 1_555
N1E C1E 1_555 1_555
N1C Ni1 1_555 1_555
N3C Ni1 1_555 1_555
H1C N3C 1_555 1_555
H2C N3C 1_555 1_555
C2C N3C 1_555 1_555
H3C C2C 1_555 1_555
H4C C2C 1_555 1_555
C3C C2C 1_555 1_555
H5C C3C 1_555 1_555
H6C C3C 1_555 1_555
N4C Ni1 1_555 1_555
C4C C4 1_555 1_555
H7C C4C 1_555 1_555
H8C C4C 1_555 1_555
O3E Cl1 1_555 1_555
C3 N4 1_555 1_555
C3C N4C 1_555 1_555
N4C C4C 1_555 1_555

#END
