
#######################################################################
#
#                 Cambridge Crystallographic Data Centre
#                                CCDC 
#
#######################################################################
#
# If this CIF has been generated from an entry in the Cambridge 
# Structural Database, then it will include bibliographic, chemical, 
# crystal, experimental, refinement or atomic coordinate data resulting 
# from the CCDC's data processing and validation procedures.
#
#######################################################################

data_JAMLEP
_symmetry_cell_setting           triclinic
_symmetry_space_group_name_H-M   'P -1'
_symmetry_Int_Tables_number      2
_space_group_name_Hall           '-P 1'
loop_
_symmetry_equiv_pos_site_id
_symmetry_equiv_pos_as_xyz
1 x,y,z
2 -x,-y,-z
_cell_length_a                   6.625(3)
_cell_length_b                   7.799(4)
_cell_length_c                   8.923(5)
_cell_angle_alpha                71.14(3)
_cell_angle_beta                 88.34(3)
_cell_angle_gamma                89.06(3)
_cell_volume                     436.089
loop_
_atom_site_label
_atom_site_type_symbol
_atom_site_fract_x
_atom_site_fract_y
_atom_site_fract_z
Cd1 Cd 0.40381(3) 0.62832(3) 0.80552(2)
N1 N 0.4378(4) 0.6438(4) 1.0593(4)
N2 N 0.4015(4) 0.7660(4) 1.1111(3)
N3 N 0.3657(5) 0.8818(4) 1.1608(4)
N4 N 0.0743(4) 0.5107(4) 0.8761(4)
N5 N 0.0000 0.5000 1.0000
N6 N 0.3947(4) 0.5665(4) 0.5738(3)
N7 N 0.5000 0.5000 0.5000
N8 N 0.2552(4) 0.9063(4) 0.6763(3)
C1 C 0.2784(4) 0.9718(4) 0.5190(4)
H1 H 0.3317 0.8962 0.4656
C2 C 0.2262(4) 1.1477(4) 0.4322(4)
C3 C 0.1375(5) 1.2572(4) 0.5115(4)
H2 H 0.0961 1.3746 0.4562
C4 C 0.1116(5) 1.1884(5) 0.6743(4)
H3 H 0.0529 1.2593 0.7301
C5 C 0.1739(5) 1.0136(5) 0.7530(4)
H4 H 0.1590 0.9688 0.8628
N9 N 0.2724(4) 1.2142(4) 0.2684(3)
H5 H 0.1847 1.3032 0.2143
H6 H 0.3014 1.1222 0.2270
N4A N -0.0743(4) 0.4893(4) 1.1239(4)
N6A N 0.6053(4) 0.4335(4) 0.4262(3)
N1A N 0.5622(4) 0.3562(4) 0.9407(4)
N2A N 0.5985(4) 0.2340(4) 0.8889(3)
N3A N 0.6343(5) 0.1182(4) 0.8392(4)
N8A N 0.7448(4) 1.0937(4) 0.3237(3)
C1A C 0.7216(4) 1.0282(4) 0.4810(4)
H1A H 0.6683 1.1038 0.5344
C2A C 0.7738(4) 0.8523(4) 0.5678(4)
C3A C 0.8625(5) 0.7428(4) 0.4885(4)
H2A H 0.9039 0.6254 0.5438
C4A C 0.8884(5) 0.8116(5) 0.3257(4)
H3A H 0.9471 0.7407 0.2699
C5A C 0.8261(5) 0.9864(5) 0.2470(4)
H4A H 0.8410 1.0312 0.1372
N9A N 0.7276(4) 0.7858(4) 0.7316(3)
H5A H 0.8153 0.6968 0.7857
H6A H 0.6986 0.8778 0.7730
Cd1A Cd 0.59619(3) 0.37168(3) 1.19448(2)
Cd1A_2 Cd 0.59619(3) 1.37168(3) 0.19448(2)
Cd1A_3 Cd -0.40381(3) 0.37168(3) 1.19448(2)
Cd1A_4 Cd 0.59619(3) 0.37168(3) 0.19448(2)
N4A_2 N 0.9257(4) 0.4893(4) 1.1239(4)
N6A_2 N 0.6053(4) 0.4335(4) 1.4262(3)
N8A_2 N 0.7448(4) 0.0937(4) 1.3237(3)
N9_2 N 0.2724(4) 0.2142(4) 1.2684(3)
H5_2 H 0.1847 0.3032 1.2143
H6_2 H 0.3014 0.1222 1.2270
loop_
_geom_bond_atom_site_label_1
_geom_bond_atom_site_label_2
_geom_bond_site_symmetry_1
_geom_bond_site_symmetry_2
Cd1 N1 1_555 1_555
N1 N2 1_555 1_555
N2 N3 1_555 1_555
N4 Cd1 1_555 1_555
N5 N4 1_555 1_555
N6 Cd1 1_555 1_555
N7 N6 1_555 1_555
N8 Cd1 1_555 1_555
C1 N8 1_555 1_555
H1 C1 1_555 1_555
C2 C1 1_555 1_555
C3 C2 1_555 1_555
H2 C3 1_555 1_555
C4 C3 1_555 1_555
H3 C4 1_555 1_555
C5 N8 1_555 1_555
H4 C5 1_555 1_555
N9 C2 1_555 1_555
H5 N9 1_555 1_555
H6 N9 1_555 1_555
N4A N5 1_555 1_555
N6A N7 1_555 1_555
N1A Cd1 1_555 1_555
N2A N1A 1_555 1_555
N3A N2A 1_555 1_555
N8A C1A 1_555 1_555
C1A H1A 1_555 1_555
C2A C1A 1_555 1_555
C3A C2A 1_555 1_555
H2A C3A 1_555 1_555
C4A C3A 1_555 1_555
H3A C4A 1_555 1_555
C5A N8A 1_555 1_555
H4A C5A 1_555 1_555
N9A Cd1 1_555 1_555
H5A N9A 1_555 1_555
H6A N9A 1_555 1_555
Cd1A N1 1_555 1_555
Cd1A_2 N9 1_555 1_555
Cd1A_3 N4A 1_555 1_555
Cd1A_4 N6A 1_555 1_555
N4A_2 Cd1A 1_555 1_555
N6A_2 Cd1A 1_555 1_555
N8A_2 Cd1A 1_555 1_555
N9_2 Cd1A 1_555 1_555
H5_2 N9_2 1_555 1_555
H6_2 N9_2 1_555 1_555
C4 C5 1_555 1_555
N1A Cd1A 1_555 1_555
N8A Cd1A_2 1_555 1_555
C2A N9A 1_555 1_555
C4A C5A 1_555 1_555

#END
