
#######################################################################
#
#                 Cambridge Crystallographic Data Centre
#                                CCDC 
#
#######################################################################
#
# If this CIF has been generated from an entry in the Cambridge 
# Structural Database, then it will include bibliographic, chemical, 
# crystal, experimental, refinement or atomic coordinate data resulting 
# from the CCDC's data processing and validation procedures.
#
#######################################################################

data_JAMNUH
_symmetry_cell_setting           triclinic
_symmetry_space_group_name_H-M   'P -1'
_symmetry_Int_Tables_number      2
_space_group_name_Hall           '-P 1'
loop_
_symmetry_equiv_pos_site_id
_symmetry_equiv_pos_as_xyz
1 x,y,z
2 -x,-y,-z
_cell_length_a                   8.542(2)
_cell_length_b                   13.034(4)
_cell_length_c                   14.426(4)
_cell_angle_alpha                64.526(5)
_cell_angle_beta                 78.246(6)
_cell_angle_gamma                72.686(6)
_cell_volume                     1378.94
loop_
_atom_site_label
_atom_site_type_symbol
_atom_site_fract_x
_atom_site_fract_y
_atom_site_fract_z
Ag1 Ag 0.45673(7) 0.57284(6) -0.17313(5)
Ag2 Ag 0.63232(7) 0.38064(6) -0.23062(6)
O1 O 0.3998(6) 0.3203(4) -0.1743(4)
O2 O 0.2543(6) 0.4876(4) -0.1599(4)
O3 O 0.3554(6) 0.0260(4) 0.1247(4)
O4 O 0.6955(6) -0.0412(4) 0.4411(4)
O5 O 0.8237(6) -0.5158(4) 0.7150(4)
O6 O 0.6839(6) -0.3597(4) 0.7492(4)
N1 N 0.1413(6) 0.2176(4) -0.1014(4)
N2 N 0.9338(6) -0.2454(4) 0.6554(4)
C1 C 0.2735(8) 0.3849(6) -0.1526(5)
C2 C 0.1207(8) 0.3363(5) -0.1067(5)
H1 H 0.0913 0.3351 -0.0377
H2 H 0.0301 0.3886 -0.1479
C3 C 0.2224(7) 0.1219(5) -0.0257(5)
C4 C 0.2333(8) 0.0135(5) -0.0242(5)
H3 H 0.2899 -0.0528 0.0263
C5 C 0.1634(8) 0.0004(6) -0.0947(5)
H4 H 0.1694 -0.0735 -0.0914
C6 C 0.0837(8) 0.1004(6) -0.1712(5)
H5 H 0.0364 0.0947 -0.2209
C7 C 0.0754(8) 0.2073(6) -0.1725(5)
H6 H 0.0227 0.2745 -0.2241
C8 C 0.2991(9) 0.1396(6) 0.0487(5)
H7 H 0.3902 0.1762 0.0143
H8 H 0.2190 0.1888 0.0797
C9 C 0.4380(7) 0.0156(5) 0.2021(5)
C10 C 0.4971(8) -0.0985(5) 0.2693(5)
H9 H 0.4796 -0.1603 0.2598
C11 C 0.5819(8) -0.1207(6) 0.3501(5)
H10 H 0.6201 -0.1973 0.3957
C12 C 0.6103(7) -0.0279(5) 0.3636(5)
C13 C 0.5545(8) 0.0844(5) 0.2962(5)
H11 H 0.5744 0.1460 0.3048
C14 C 0.4678(8) 0.1073(5) 0.2146(5)
H12 H 0.4303 0.1839 0.1687
C15 C 0.7633(8) -0.1567(5) 0.5095(5)
H13 H 0.8411 -0.1997 0.4720
H14 H 0.6771 -0.1980 0.5455
C16 C 0.8475(7) -0.1448(5) 0.5836(5)
C17 C 1.0129(8) -0.2399(6) 0.7239(5)
H15 H 1.0730 -0.3089 0.7701
C18 C 1.0079(9) -0.1363(6) 0.7278(6)
H16 H 1.0618 -0.1344 0.7768
C19 C 0.9218(8) -0.0352(6) 0.6582(5)
H17 H 0.9179 0.0367 0.6586
C20 C 0.8409(8) -0.0405(5) 0.5875(5)
H18 H 0.7804 0.0284 0.5415
C21 C 0.9493(8) -0.3613(5) 0.6554(5)
H19 H 1.0483 -0.4142 0.6873
H20 H 0.9624 -0.3539 0.5845
C22 C 0.8024(8) -0.4154(5) 0.7119(5)
N3 N 0.3098(8) 0.6854(5) -0.0161(5)
O7 O 0.2434(7) 0.7266(5) 0.0497(4)
O8 O 0.2346(8) 0.7066(6) -0.0879(5)
O9 O 0.4519(7) 0.6237(6) -0.0098(5)
N4 N 0.7596(11) 0.2867(8) -0.4034(7)
O10 O 0.8071(9) 0.2440(6) -0.4720(5)
O11 O 0.8181(9) 0.2437(6) -0.3195(6)
O12 O 0.6416(9) 0.3708(7) -0.4140(6)
O6_2 O 0.6839(6) 0.6403(4) -0.2508(4)
O5_2 O 0.8237(6) 0.4842(4) -0.2850(4)
O7A O 0.7566(7) 0.2734(5) -0.0497(4)
Ag2_2 Ag 0.63232(7) -0.61936(6) 0.76938(6)
Ag1_2 Ag 0.45673(7) -0.42716(6) 0.82687(5)
Ag2A Ag 0.36768(7) 0.61936(6) 0.23062(6)
O13 O 0.5749(17) 0.3194(12) -0.6053(7)
H21 H 0.6410 0.3560 -0.5934
H22 H 0.4834 0.3656 -0.6402
O14 O 0.8517(8) -0.4287(6) 0.9336(5)
H23 H 0.8161 -0.4311 0.8787
H24 H 0.7769 -0.4395 0.9908
O15 O 0.282(2) 0.4208(13) -0.416(2)
H25 H 0.3819 0.3955 -0.3889
H26 H 0.3232 0.4191 -0.4795
O16? O 0.030(3) 0.426(2) -0.4568(16)
H27? H 0.0041 0.4414 -0.3983
H28? H 0.0979 0.3518 -0.4339
loop_
_geom_bond_atom_site_label_1
_geom_bond_atom_site_label_2
_geom_bond_site_symmetry_1
_geom_bond_site_symmetry_2
Ag1 Ag2 1_555 1_555
Ag2 O1 1_555 1_555
O1 C1 1_555 1_555
O2 Ag1 1_555 1_555
O3 C8 1_555 1_555
O4 C12 1_555 1_555
O5 C22 1_555 1_555
O6 C22 1_555 1_555
N1 C2 1_555 1_555
N2 C16 1_555 1_555
C1 O2 1_555 1_555
C2 C1 1_555 1_555
H1 C2 1_555 1_555
H2 C2 1_555 1_555
C3 N1 1_555 1_555
C4 C3 1_555 1_555
H3 C4 1_555 1_555
C5 C4 1_555 1_555
H4 C5 1_555 1_555
C6 C5 1_555 1_555
H5 C6 1_555 1_555
C7 N1 1_555 1_555
H6 C7 1_555 1_555
C8 C3 1_555 1_555
H7 C8 1_555 1_555
H8 C8 1_555 1_555
C9 O3 1_555 1_555
C10 C9 1_555 1_555
H9 C10 1_555 1_555
C11 C10 1_555 1_555
H10 C11 1_555 1_555
C12 C11 1_555 1_555
C13 C12 1_555 1_555
H11 C13 1_555 1_555
C14 C9 1_555 1_555
H12 C14 1_555 1_555
C15 O4 1_555 1_555
H13 C15 1_555 1_555
H14 C15 1_555 1_555
C16 C15 1_555 1_555
C17 N2 1_555 1_555
H15 C17 1_555 1_555
C18 C17 1_555 1_555
H16 C18 1_555 1_555
C19 C18 1_555 1_555
H17 C19 1_555 1_555
C20 C16 1_555 1_555
H18 C20 1_555 1_555
C21 N2 1_555 1_555
H19 C21 1_555 1_555
H20 C21 1_555 1_555
C22 C21 1_555 1_555
N3 O7 1_555 1_555
O7 Ag2A 1_555 1_555
O8 Ag1 1_555 1_555
O9 Ag1 1_555 1_555
N4 O10 1_555 1_555
O11 Ag2 1_555 1_555
O12 Ag2 1_555 1_555
O13 H21 1_555 1_555
H22 O13 1_555 1_555
O14 H23 1_555 1_555
H24 O14 1_555 1_555
O15 H25 1_555 1_555
H26 O15 1_555 1_555
O6_2 Ag1 1_555 1_555
O5_2 Ag2 1_555 1_555
O7A Ag2 1_555 1_555
Ag2_2 O5 1_555 1_555
Ag1_2 O6 1_555 1_555
C6 C7 1_555 1_555
C13 C14 1_555 1_555
C19 C20 1_555 1_555
N3 O8 1_555 1_555
N3 O9 1_555 1_555
N4 O11 1_555 1_555
N4 O12 1_555 1_555
Ag2_2 Ag1_2 1_555 1_555

#END
