
#######################################################################
#
#                 Cambridge Crystallographic Data Centre
#                                CCDC 
#
#######################################################################
#
# If this CIF has been generated from an entry in the Cambridge 
# Structural Database, then it will include bibliographic, chemical, 
# crystal, experimental, refinement or atomic coordinate data resulting 
# from the CCDC's data processing and validation procedures.
#
#######################################################################

data_JAMPAP
_symmetry_cell_setting           monoclinic
_symmetry_space_group_name_H-M   'P 21/c'
_symmetry_Int_Tables_number      14
_space_group_name_Hall           '-P 2ybc'
loop_
_symmetry_equiv_pos_site_id
_symmetry_equiv_pos_as_xyz
1 x,y,z
2 x,1/2-y,1/2+z
3 -x,-y,-z
4 -x,1/2+y,1/2-z
_cell_length_a                   5.7404(7)
_cell_length_b                   16.541(2)
_cell_length_c                   15.913(2)
_cell_angle_alpha                90
_cell_angle_beta                 94.749(3)
_cell_angle_gamma                90
_cell_volume                     1505.78
loop_
_atom_site_label
_atom_site_type_symbol
_atom_site_fract_x
_atom_site_fract_y
_atom_site_fract_z
Ag1 Ag 0.10441(12) 0.48156(3) 0.58127(3)
O1 O 0.3503(9) 0.5782(3) 0.5474(3)
O2 O 0.2333(15) 0.4420(4) 0.7211(4)
H1 H 0.1664 0.3933 0.7051
H2 H 0.2198 0.4286 0.7766
O3 O -0.2101(10) 0.5755(3) 0.6365(4)
H3 H -0.3531 0.5704 0.6063
H4 H -0.1961 0.6309 0.6359
O4 O 0.1085(11) 0.6313(3) 0.4445(3)
O5 O -0.1509(8) 0.9015(3) 0.4479(3)
N1 N 0.3987(10) 0.7585(3) 0.4226(3)
C1 C 0.2923(14) 0.6308(3) 0.4924(4)
C2 C 0.4572(12) 0.7012(4) 0.4909(4)
H5 H 0.4584 0.7296 0.5442
H6 H 0.6138 0.6808 0.4857
C3 C 0.2214(11) 0.8086(4) 0.4290(4)
H7 H 0.1406 0.8071 0.4773
C4 C 0.1528(12) 0.8634(4) 0.3656(4)
C5 C 0.2785(15) 0.8636(5) 0.2948(4)
H8 H 0.2401 0.9003 0.2516
C6 C 0.4591(17) 0.8101(5) 0.2880(5)
H9 H 0.5406 0.8091 0.2398
C7 C 0.5163(14) 0.7585(4) 0.3535(5)
H10 H 0.6398 0.7226 0.3500
C8 C -0.0382(12) 0.9227(4) 0.3741(4)
H11 H 0.0251 0.9770 0.3796
H12 H -0.1492 0.9209 0.3248
C9 C -0.3264(11) 0.9529(4) 0.4713(4)
C10 C -0.4045(12) 1.0211(4) 0.4263(4)
H13 H -0.3379 1.0356 0.3771
C11 C -0.4197(12) 0.9331(4) 0.5450(4)
H14 H -0.3634 0.8884 0.5758
C11B C -0.5803(12) 1.0669(4) 0.4550(4)
C9B C -0.6736(11) 1.0471(4) 0.5287(4)
O5B O -0.8491(8) 1.0985(3) 0.5521(3)
C8B C -0.9618(12) 1.0773(4) 0.6259(4)
C4B C -1.1528(12) 1.1366(4) 0.6344(4)
C3B C -1.2214(11) 1.1914(4) 0.5710(4)
N1B N -1.3987(10) 1.2415(3) 0.5774(3)
C2B C -1.4572(12) 1.2988(4) 0.5091(4)
C1B C -1.2923(14) 1.3692(3) 0.5076(4)
O1B O -1.3503(9) 1.4218(3) 0.4526(3)
O4B O -1.1085(11) 1.3687(3) 0.5555(3)
H5B H -1.4584 1.2704 0.4558
H6B H -1.6138 1.3192 0.5143
C7B C -1.5163(14) 1.2415(4) 0.6465(5)
C6B C -1.4591(17) 1.1899(5) 0.7120(5)
C5B C -1.2785(15) 1.1364(5) 0.7052(4)
H8B H -1.2401 1.0997 0.7484
H9B H -1.5406 1.1909 0.7602
H10B H -1.6398 1.2774 0.6500
H7B H -1.1406 1.1929 0.5227
H11B H -1.0251 1.0230 0.6204
H12B H -0.8508 1.0791 0.6752
C10B C -0.5955(12) 0.9789(4) 0.5737(4)
H13B H -0.6621 0.9644 0.6229
H14B H -0.6366 1.1116 0.4242
Ag1B Ag -1.10441(12) 1.51844(3) 0.41873(3)
O2B O -1.2333(15) 1.5580(4) 0.2789(4)
H1B H -1.1664 1.6067 0.2949
H2B H -1.2198 1.5714 0.2234
O3B O -0.7899(10) 1.4245(3) 0.3635(4)
H3B H -0.6469 1.4296 0.3937
H4B H -0.8039 1.3691 0.3641
Ag1B_2 Ag -0.10441(12) 0.51844(3) 0.41873(3)
O4B_2 O -0.1085(11) 0.3687(3) 0.5555(3)
Ag1_2 Ag -0.89559(12) 1.48156(3) 0.58127(3)
O4_2 O -0.8915(11) 1.6313(3) 0.4445(3)
O6 O 0.6699(14) 0.4257(6) 0.7188(4)
H15 H 0.7299 0.4751 0.7053
H16 H 0.7037 0.3923 0.7644
N2 N -0.0106(16) 0.2799(4) 0.8386(5)
O7 O 0.1136(18) 0.2856(6) 0.7857(6)
O8 O -0.1670(16) 0.3223(6) 0.8482(5)
O9 O 0.0054(19) 0.2252(5) 0.8895(5)
loop_
_geom_bond_atom_site_label_1
_geom_bond_atom_site_label_2
_geom_bond_site_symmetry_1
_geom_bond_site_symmetry_2
Ag1 O1 1_555 1_555
O1 C1 1_555 1_555
O2 Ag1 1_555 1_555
H1 O2 1_555 1_555
H2 O2 1_555 1_555
O3 Ag1 1_555 1_555
H3 O3 1_555 1_555
H4 O3 1_555 1_555
O4 C1 1_555 1_555
O5 C8 1_555 1_555
N1 C2 1_555 1_555
C1 C2 1_555 1_555
C2 H5 1_555 1_555
H6 C2 1_555 1_555
C3 N1 1_555 1_555
H7 C3 1_555 1_555
C4 C3 1_555 1_555
C5 C4 1_555 1_555
H8 C5 1_555 1_555
C6 C5 1_555 1_555
H9 C6 1_555 1_555
C7 N1 1_555 1_555
H10 C7 1_555 1_555
C8 C4 1_555 1_555
H11 C8 1_555 1_555
H12 C8 1_555 1_555
C9 O5 1_555 1_555
C10 C9 1_555 1_555
H13 C10 1_555 1_555
C11 C9 1_555 1_555
H14 C11 1_555 1_555
O6 H15 1_555 1_555
H16 O6 1_555 1_555
N2 O7 1_555 1_555
O8 N2 1_555 1_555
O9 N2 1_555 1_555
C11B C10 1_555 1_555
C9B C11B 1_555 1_555
O5B C9B 1_555 1_555
C8B O5B 1_555 1_555
C4B C8B 1_555 1_555
C3B C4B 1_555 1_555
N1B C3B 1_555 1_555
C2B N1B 1_555 1_555
C1B C2B 1_555 1_555
O1B C1B 1_555 1_555
O4B C1B 1_555 1_555
H5B C2B 1_555 1_555
H6B C2B 1_555 1_555
C7B N1B 1_555 1_555
C6B C7B 1_555 1_555
C5B C4B 1_555 1_555
H8B C5B 1_555 1_555
H9B C6B 1_555 1_555
H10B C7B 1_555 1_555
H7B C3B 1_555 1_555
H11B C8B 1_555 1_555
H12B C8B 1_555 1_555
C10B C11 1_555 1_555
H13B C10B 1_555 1_555
H14B C11B 1_555 1_555
Ag1B O1B 1_555 1_555
O2B Ag1B 1_555 1_555
H1B O2B 1_555 1_555
H2B O2B 1_555 1_555
O3B Ag1B 1_555 1_555
H3B O3B 1_555 1_555
H4B O3B 1_555 1_555
Ag1B_2 Ag1 1_555 1_555
O4B_2 Ag1 1_555 1_555
Ag1_2 O4B 1_555 1_555
O4_2 Ag1B 1_555 1_555
O4 Ag1B_2 1_555 1_555
C6 C7 1_555 1_555
C9B C10B 1_555 1_555
C6B C5B 1_555 1_555
Ag1B Ag1_2 1_555 1_555

#END
