
#######################################################################
#
#                 Cambridge Crystallographic Data Centre
#                                CCDC 
#
#######################################################################
#
# If this CIF has been generated from an entry in the Cambridge 
# Structural Database, then it will include bibliographic, chemical, 
# crystal, experimental, refinement or atomic coordinate data resulting 
# from the CCDC's data processing and validation procedures.
#
#######################################################################

data_JAMROF
_symmetry_cell_setting           monoclinic
_symmetry_space_group_name_H-M   'P 21/n'
_symmetry_Int_Tables_number      14
_space_group_name_Hall           '-P 2yn'
loop_
_symmetry_equiv_pos_site_id
_symmetry_equiv_pos_as_xyz
1 x,y,z
2 1/2+x,1/2-y,1/2+z
3 -x,-y,-z
4 1/2-x,1/2+y,1/2-z
_cell_length_a                   5.2084(14)
_cell_length_b                   12.185(3)
_cell_length_c                   13.617(4)
_cell_angle_alpha                90
_cell_angle_beta                 91.103(4)
_cell_angle_gamma                90
_cell_volume                     864.034
loop_
_atom_site_label
_atom_site_type_symbol
_atom_site_fract_x
_atom_site_fract_y
_atom_site_fract_z
Co1 Co 0.61812(5) 0.67268(2) 0.218051(18)
N1 N 0.7585(3) 0.90463(13) -0.02318(12)
H1 H 0.7014 0.9684 -0.0396
N2 N 0.7444(3) 0.75804(13) 0.08886(11)
O1 O 1.3079(3) 0.72397(12) -0.18689(10)
O2 O 1.3402(3) 0.61354(12) -0.05834(10)
O3 O 0.9939(3) 0.91130(11) -0.15854(10)
O4 O 0.4995(3) 0.91364(11) 0.10716(10)
C1 C 1.2376(4) 0.69299(16) -0.10247(14)
C2 C 1.0286(4) 0.75346(16) -0.05151(14)
C3 C 0.9357(4) 0.85822(16) -0.08367(13)
C4 C 0.6629(4) 0.85956(16) 0.06105(14)
C5 C 0.9207(4) 0.71024(16) 0.03140(14)
H2 H 0.9751 0.6404 0.0499
O5 O 0.9253(3) 0.55704(12) 0.22329(11)
H3 H 0.9174 0.5162 0.2744
H4 H 1.0779 0.5574 0.2007
O6 O 0.4114(3) 0.55856(11) 0.13136(10)
H5 H 0.3791 0.5848 0.0739
H6 H 0.5024 0.5006 0.1269
O7 O 0.2816(3) 0.76920(13) 0.22342(12)
H7 H 0.3105 0.8284 0.1920
H8 H 0.1459 0.7747 0.2578
O1A O 0.8079(3) 0.77603(12) 0.31311(10)
O3A O 0.4939(3) 0.58870(11) 0.34146(10)
Co1A Co 1.11812(5) 0.82732(2) -0.281949(18)
loop_
_geom_bond_atom_site_label_1
_geom_bond_atom_site_label_2
_geom_bond_site_symmetry_1
_geom_bond_site_symmetry_2
Co1 N2 1_555 1_555
N1 H1 1_555 1_555
N2 C4 1_555 1_555
O1 C1 1_555 1_555
O2 C1 1_555 1_555
O3 C3 1_555 1_555
O4 C4 1_555 1_555
C1 C2 1_555 1_555
C2 C3 1_555 1_555
C3 N1 1_555 1_555
C4 N1 1_555 1_555
C5 N2 1_555 1_555
H2 C5 1_555 1_555
O5 Co1 1_555 1_555
H3 O5 1_555 1_555
H4 O5 1_555 1_555
O6 Co1 1_555 1_555
H5 O6 1_555 1_555
H6 O6 1_555 1_555
O7 Co1 1_555 1_555
H7 O7 1_555 1_555
H8 O7 1_555 1_555
O1A Co1 1_555 1_555
O3A Co1 1_555 1_555
Co1A O1 1_555 1_555
O3 Co1A 1_555 1_555
C2 C5 1_555 1_555

#END
