
#######################################################################
#
#                 Cambridge Crystallographic Data Centre
#                                CCDC 
#
#######################################################################
#
# If this CIF has been generated from an entry in the Cambridge 
# Structural Database, then it will include bibliographic, chemical, 
# crystal, experimental, refinement or atomic coordinate data resulting 
# from the CCDC's data processing and validation procedures.
#
#######################################################################

data_JAMRAR
_symmetry_cell_setting           monoclinic
_symmetry_space_group_name_H-M   'P 21/c'
_symmetry_Int_Tables_number      14
_space_group_name_Hall           '-P 2ybc'
loop_
_symmetry_equiv_pos_site_id
_symmetry_equiv_pos_as_xyz
1 x,y,z
2 x,1/2-y,1/2+z
3 -x,-y,-z
4 -x,1/2+y,1/2-z
_cell_length_a                   8.2588(13)
_cell_length_b                   7.6235(11)
_cell_length_c                   16.677(3)
_cell_angle_alpha                90
_cell_angle_beta                 93.224(2)
_cell_angle_gamma                90
_cell_volume                     1048.34
loop_
_atom_site_label
_atom_site_type_symbol
_atom_site_fract_x
_atom_site_fract_y
_atom_site_fract_z
Ag1 Ag 0.09374(6) 0.17172(7) 0.73177(3)
C1 C 0.3514(7) -0.4922(9) 0.8031(4)
H1 H 0.4181 -0.5871 0.8254
H2 H 0.3710 -0.4835 0.7465
C2 C 0.3154(8) -0.1662(9) 0.8154(4)
C3 C 0.4057(7) -0.3217(8) 0.8442(4)
H3 H 0.3941 -0.3335 0.9015
H4 H 0.5199 -0.3038 0.8360
C4 C 0.1775(8) -0.7553(9) 1.0392(4)
C5 C 0.1937(9) -0.7520(10) 0.9524(4)
H5 H 0.1344 -0.8491 0.9273
H6 H 0.3070 -0.7632 0.9407
C6 C 0.1263(7) -0.5788(8) 0.9196(3)
H7 H 0.1838 -0.4837 0.9473
H8 H 0.0132 -0.5704 0.9320
N1 N 0.2482(8) -0.0478(8) 0.7924(4)
N2 N 0.1615(7) -0.7493(9) 1.1057(3)
S1 S 0.14022(17) -0.54843(19) 0.81288(8)
N2A N 0.1615(7) 0.2493(9) 0.6057(3)
S1_2 S 0.14022(17) 0.45157(19) 0.81288(8)
S1C S -0.14022(17) -0.04843(19) 0.68712(8)
Ag1A Ag 0.09374(6) -0.67172(7) 1.23177(3)
Ag1_2 Ag 0.09374(6) -0.82828(7) 0.73177(3)
Ag1C Ag -0.09374(6) -0.32828(7) 0.76823(3)
O1 O 0.6411(12) 0.3796(9) 0.9339(5)
O2 O 0.5688(7) 0.0961(10) 0.8961(5)
O3 O 0.7820(8) 0.1519(8) 0.9942(3)
O4 O 0.8138(9) 0.1975(11) 0.8598(4)
Cl1 Cl 0.6985(2) 0.2054(2) 0.92146(10)
loop_
_geom_bond_atom_site_label_1
_geom_bond_atom_site_label_2
_geom_bond_site_symmetry_1
_geom_bond_site_symmetry_2
Ag1 N1 1_555 1_555
C1 H1 1_555 1_555
H2 C1 1_555 1_555
C2 C3 1_555 1_555
C3 C1 1_555 1_555
H3 C3 1_555 1_555
H4 C3 1_555 1_555
C4 C5 1_555 1_555
C5 H5 1_555 1_555
H6 C5 1_555 1_555
C6 C5 1_555 1_555
H7 C6 1_555 1_555
H8 C6 1_555 1_555
N1 C2 1_555 1_555
N2 C4 1_555 1_555
O1 Cl1 1_555 1_555
O2 Cl1 1_555 1_555
O3 Cl1 1_555 1_555
O4 Cl1 1_555 1_555
S1 C1 1_555 1_555
N2A Ag1 1_555 1_555
S1_2 Ag1 1_555 1_555
S1C Ag1 1_555 1_555
Ag1A N2 1_555 1_555
Ag1_2 S1 1_555 1_555
Ag1C S1 1_555 1_555
C6 S1 1_555 1_555
S1C Ag1C 1_555 1_555

#END
