
#######################################################################
#
#                 Cambridge Crystallographic Data Centre
#                                CCDC 
#
#######################################################################
#
# If this CIF has been generated from an entry in the Cambridge 
# Structural Database, then it will include bibliographic, chemical, 
# crystal, experimental, refinement or atomic coordinate data resulting 
# from the CCDC's data processing and validation procedures.
#
#######################################################################

data_JAMRUL
_symmetry_cell_setting           monoclinic
_symmetry_space_group_name_H-M   'P 21/n'
_symmetry_Int_Tables_number      14
_space_group_name_Hall           '-P 2yn'
loop_
_symmetry_equiv_pos_site_id
_symmetry_equiv_pos_as_xyz
1 x,y,z
2 1/2+x,1/2-y,1/2+z
3 -x,-y,-z
4 1/2-x,1/2+y,1/2-z
_cell_length_a                   5.1645(16)
_cell_length_b                   12.172(4)
_cell_length_c                   13.459(4)
_cell_angle_alpha                90
_cell_angle_beta                 91.169(5)
_cell_angle_gamma                90
_cell_volume                     845.888
loop_
_atom_site_label
_atom_site_type_symbol
_atom_site_fract_x
_atom_site_fract_y
_atom_site_fract_z
Ni1 Ni 0.61314(7) 0.67424(3) 0.21748(3)
N1 N 0.7578(5) 0.9034(2) -0.02344(19)
H1 H 0.7022 0.9676 -0.0399
N2 N 0.7402(5) 0.7572(2) 0.08902(19)
O1 O 1.3032(4) 0.7213(2) -0.18997(16)
O2 O 1.3345(5) 0.6107(2) -0.06026(17)
O3 O 0.9904(4) 0.90884(18) -0.16129(15)
O4 O 0.5004(4) 0.91485(18) 0.10868(17)
C1 C 1.2317(6) 0.6903(3) -0.1050(2)
C2 C 1.0221(6) 0.7509(3) -0.0536(2)
C3 C 0.9328(6) 0.8558(3) -0.0853(2)
C4 C 0.6620(6) 0.8592(3) 0.0620(2)
C5 C 0.9135(6) 0.7083(3) 0.0303(2)
H2 H 0.9654 0.6379 0.0485
O5 O 0.9203(4) 0.56266(19) 0.22375(16)
H3 H 0.9124 0.5218 0.2748
H4 H 1.0728 0.5631 0.2012
O6 O 0.4096(4) 0.56088(18) 0.13211(15)
H5 H 0.3773 0.5872 0.0747
H6 H 0.5006 0.5030 0.1276
O7 O 0.2793(4) 0.7684(2) 0.22124(18)
H7 H 0.3082 0.8276 0.1898
H8 H 0.1437 0.7739 0.2556
O1A O 0.8032(4) 0.7787(2) 0.31003(16)
O3A O 0.4904(4) 0.59116(18) 0.33871(15)
Ni1A Ni 1.11314(7) 0.82576(3) -0.28252(3)
loop_
_geom_bond_atom_site_label_1
_geom_bond_atom_site_label_2
_geom_bond_site_symmetry_1
_geom_bond_site_symmetry_2
Ni1 N2 1_555 1_555
N1 H1 1_555 1_555
N2 C4 1_555 1_555
O1 C1 1_555 1_555
O2 C1 1_555 1_555
O3 C3 1_555 1_555
O4 C4 1_555 1_555
C1 C2 1_555 1_555
C2 C3 1_555 1_555
C3 N1 1_555 1_555
C4 N1 1_555 1_555
C5 N2 1_555 1_555
H2 C5 1_555 1_555
O5 Ni1 1_555 1_555
H3 O5 1_555 1_555
H4 O5 1_555 1_555
O6 Ni1 1_555 1_555
H5 O6 1_555 1_555
H6 O6 1_555 1_555
O7 Ni1 1_555 1_555
H7 O7 1_555 1_555
H8 O7 1_555 1_555
O1A Ni1 1_555 1_555
O3A Ni1 1_555 1_555
Ni1A O1 1_555 1_555
O3 Ni1A 1_555 1_555
C2 C5 1_555 1_555

#END
