
#######################################################################
#
#                 Cambridge Crystallographic Data Centre
#                                CCDC 
#
#######################################################################
#
# If this CIF has been generated from an entry in the Cambridge 
# Structural Database, then it will include bibliographic, chemical, 
# crystal, experimental, refinement or atomic coordinate data resulting 
# from the CCDC's data processing and validation procedures.
#
#######################################################################

data_JAMREV
_symmetry_cell_setting           monoclinic
_symmetry_space_group_name_H-M   'P 21/c'
_symmetry_Int_Tables_number      14
_space_group_name_Hall           '-P 2ybc'
loop_
_symmetry_equiv_pos_site_id
_symmetry_equiv_pos_as_xyz
1 x,y,z
2 x,1/2-y,1/2+z
3 -x,-y,-z
4 -x,1/2+y,1/2-z
_cell_length_a                   7.7378(2)
_cell_length_b                   15.2834(5)
_cell_length_c                   9.80320(10)
_cell_angle_alpha                90
_cell_angle_beta                 95.032(2)
_cell_angle_gamma                90
_cell_volume                     1154.86
loop_
_atom_site_label
_atom_site_type_symbol
_atom_site_fract_x
_atom_site_fract_y
_atom_site_fract_z
Ag1 Ag 0.63189(5) -0.11902(3) 0.92768(4)
O1 O 0.7050(3) -0.05813(17) 0.4168(3)
C1 C 0.5952(5) -0.1260(3) 0.3667(4)
H1 H 0.6563 -0.1815 0.3738
H2 H 0.5566 -0.1158 0.2712
N1 N 0.5407(5) -0.1387(3) 0.7099(4)
C2 C 0.4408(5) -0.1281(3) 0.4520(4)
H3 H 0.3730 -0.0751 0.4356
H4 H 0.3674 -0.1775 0.4243
N2 N 1.1675(5) 0.3024(3) 0.4477(4)
O2 O 0.9298(3) 0.09717(16) 0.4084(3)
N3 N 0.2879(5) -0.0834(3) 1.0631(4)
O3 O 0.3399(6) -0.1568(3) 1.0395(4)
C3 C 0.9859(5) 0.0083(2) 0.4235(3)
H5 H 1.0979 0.0027 0.3848
C4 C 0.8610(5) -0.0561(2) 0.3511(4)
H6 H 0.8362 -0.0388 0.2562
H7 H 0.9127 -0.1139 0.3530
C5 C 0.9491(6) 0.1314(2) 0.2767(4)
H8 H 0.8617 0.1068 0.2106
H9 H 1.0626 0.1166 0.2486
O4 O 0.2106(7) -0.0660(3) 1.1607(5)
C6 C 0.4962(5) -0.1351(3) 0.5978(5)
C7 C 1.0632(6) 0.2709(3) 0.3768(4)
C8 C 0.9288(6) 0.2292(3) 0.2831(5)
O5 O 0.3224(8) -0.0251(3) 0.9802(5)
H10 H 0.937(6) 0.249(3) 0.197(5)
H11 H 0.817(7) 0.243(3) 0.323(5)
C3B C 1.0141(5) -0.0083(2) 0.5765(3)
O2B O 1.0702(3) -0.09717(16) 0.5916(3)
C5B C 1.0509(6) -0.1314(2) 0.7233(4)
H8B H 1.1383 -0.1068 0.7894
H9B H 0.9374 -0.1166 0.7514
C8B C 1.0712(6) -0.2292(3) 0.7169(5)
C7B C 0.9368(6) -0.2709(3) 0.6232(4)
N2B N 0.8325(5) -0.3024(3) 0.5523(4)
H10B H 1.063(6) -0.249(3) 0.803(5)
H11B H 1.183(7) -0.243(3) 0.677(5)
H5B H 0.9021 -0.0027 0.6152
C4B C 1.1390(5) 0.0561(2) 0.6489(4)
O1B O 1.2950(3) 0.05813(17) 0.5832(3)
C1B C 1.4048(5) 0.1260(3) 0.6333(4)
H1B H 1.3437 0.1815 0.6262
H2B H 1.4434 0.1158 0.7288
C2B C 1.5592(5) 0.1281(3) 0.5480(4)
H3B H 1.6270 0.0751 0.5644
H4B H 1.6326 0.1775 0.5757
C6B C 1.5038(5) 0.1351(3) 0.4022(5)
N1B N 1.4593(5) 0.1387(3) 0.2901(4)
H6B H 1.1638 0.0388 0.7438
H7B H 1.0873 0.1139 0.6470
N3B N 0.7121(5) 0.0834(3) 0.9369(4)
O3B O 0.6601(6) 0.1568(3) 0.9605(4)
O4B O 0.7894(7) 0.0660(3) 0.8393(5)
O5B O 0.6776(8) 0.0251(3) 1.0198(5)
Ag1B Ag 1.36811(5) 0.11902(3) 0.07232(4)
N2C N 0.8325(5) -0.1976(3) 1.0523(4)
Ag1C Ag 1.36811(5) 0.38098(3) 0.57232(4)
Ag1B_2 Ag 0.36811(5) 0.11902(3) 1.07232(4)
Ag1A Ag 0.63189(5) -0.38098(3) 0.42768(4)
N2A N 1.1675(5) 0.1976(3) -0.0523(4)
O3B_2 O 1.6601(6) 0.1568(3) -0.0395(4)
O5_2 O 1.3224(8) -0.0251(3) -0.0198(5)
loop_
_geom_bond_atom_site_label_1
_geom_bond_atom_site_label_2
_geom_bond_site_symmetry_1
_geom_bond_site_symmetry_2
Ag1 N1 1_555 1_555
O1 C1 1_555 1_555
C1 H1 1_555 1_555
H2 C1 1_555 1_555
N1 C6 1_555 1_555
C2 C1 1_555 1_555
H3 C2 1_555 1_555
H4 C2 1_555 1_555
N2 C7 1_555 1_555
O2 C3 1_555 1_555
N3 O3 1_555 1_555
O3 Ag1 1_555 1_555
C3 H5 1_555 1_555
C4 O1 1_555 1_555
H6 C4 1_555 1_555
H7 C4 1_555 1_555
C5 O2 1_555 1_555
H8 C5 1_555 1_555
H9 C5 1_555 1_555
O4 N3 1_555 1_555
C6 C2 1_555 1_555
C7 C8 1_555 1_555
C8 C5 1_555 1_555
O5 N3 1_555 1_555
H10 C8 1_555 1_555
H11 C8 1_555 1_555
C3B C3 1_555 1_555
O2B C3B 1_555 1_555
C5B O2B 1_555 1_555
H8B C5B 1_555 1_555
H9B C5B 1_555 1_555
C8B C5B 1_555 1_555
C7B C8B 1_555 1_555
N2B C7B 1_555 1_555
H10B C8B 1_555 1_555
H11B C8B 1_555 1_555
H5B C3B 1_555 1_555
C4B C3B 1_555 1_555
O1B C4B 1_555 1_555
C1B O1B 1_555 1_555
H1B C1B 1_555 1_555
H2B C1B 1_555 1_555
C2B C1B 1_555 1_555
H3B C2B 1_555 1_555
H4B C2B 1_555 1_555
C6B C2B 1_555 1_555
N1B C6B 1_555 1_555
H6B C4B 1_555 1_555
H7B C4B 1_555 1_555
N3B O3B 1_555 1_555
O3B Ag1B_2 1_555 1_555
O4B N3B 1_555 1_555
O5B Ag1 1_555 1_555
Ag1B N1B 1_555 1_555
N2C Ag1 1_555 1_555
Ag1C N2 1_555 1_555
Ag1B_2 O5 1_555 1_555
Ag1A N2B 1_555 1_555
N2A Ag1B 1_555 1_555
O3B_2 Ag1B 1_555 1_555
O5_2 Ag1B 1_555 1_555
C3 C4 1_555 1_555
N3B O5B 1_555 1_555

#END
