
#######################################################################
#
#                 Cambridge Crystallographic Data Centre
#                                CCDC 
#
#######################################################################
#
# If this CIF has been generated from an entry in the Cambridge 
# Structural Database, then it will include bibliographic, chemical, 
# crystal, experimental, refinement or atomic coordinate data resulting 
# from the CCDC's data processing and validation procedures.
#
#######################################################################

data_JAMTIB
_symmetry_cell_setting           orthorhombic
_symmetry_space_group_name_H-M   'P b c a'
_symmetry_Int_Tables_number      61
_space_group_name_Hall           '-P 2ac 2ab'
loop_
_symmetry_equiv_pos_site_id
_symmetry_equiv_pos_as_xyz
1 x,y,z
2 1/2+x,y,1/2-z
3 x,1/2-y,1/2+z
4 1/2-x,1/2+y,z
5 -x,-y,-z
6 1/2-x,-y,1/2+z
7 -x,1/2+y,1/2-z
8 1/2+x,1/2-y,-z
_cell_length_a                   15.663(3)
_cell_length_b                   18.914(4)
_cell_length_c                   24.029(5)
_cell_angle_alpha                90
_cell_angle_beta                 90
_cell_angle_gamma                90
_cell_volume                     7118.59
loop_
_atom_site_label
_atom_site_type_symbol
_atom_site_fract_x
_atom_site_fract_y
_atom_site_fract_z
Cs1 Cs 0.48100(3) 0.07664(2) 0.320713(18)
Al1 Al 0.65280(11) 0.19501(9) 0.38607(6)
Al2 Al 0.32245(10) -0.30679(8) 0.25851(6)
O1 O 0.6503(3) 0.1053(2) 0.40294(16)
O2 O 0.5474(3) 0.2214(2) 0.39710(15)
O3 O 0.3815(4) -0.2367(2) 0.28395(19)
O4 O 0.6252(3) 0.1177(2) 0.21723(15)
C1 C 0.6983(4) 0.0486(3) 0.4212(2)
C2 C 0.6376(5) -0.0034(4) 0.4517(3)
C3 C 0.7715(5) 0.0724(4) 0.4598(3)
C4 C 0.7360(5) 0.0114(4) 0.3691(3)
C5 C 0.4959(4) 0.2506(3) 0.4371(2)
C6 C 0.5315(12) 0.3288(7) 0.4544(6)
C7 C 0.4093(8) 0.2559(12) 0.4137(5)
C8 C 0.4965(9) 0.2036(8) 0.4886(4)
C9 C 0.3957(4) -0.1679(3) 0.2932(2)
C10 C 0.3643(5) -0.1228(3) 0.2434(3)
C11 C 0.3501(6) -0.1427(4) 0.3472(3)
C12 C 0.4938(6) -0.1576(5) 0.3006(5)
C13 C 0.6159(4) 0.0809(3) 0.1681(2)
C14 C 0.6271(7) 0.0020(4) 0.1819(4)
C15 C 0.6862(7) 0.1029(5) 0.1252(3)
C16 C 0.5264(6) 0.0936(7) 0.1454(4)
F1 F 0.6396(2) 0.18619(17) 0.31143(12)
F2 F 0.5638(3) -0.0100(2) 0.4245(2)
F3 F 0.6187(4) 0.0207(3) 0.50259(18)
F4 F 0.6716(4) -0.0678(2) 0.4567(2)
F5 F 0.8334(3) 0.1034(3) 0.4321(2)
F6 F 0.8044(4) 0.0187(3) 0.4881(2)
F7 F 0.7411(4) 0.1199(3) 0.49721(18)
F8 F 0.7956(3) -0.0352(3) 0.3812(2)
F9 F 0.7712(3) 0.0588(2) 0.33514(18)
F10 F 0.6738(3) -0.0205(3) 0.34025(19)
F11 F 0.5376(12) 0.3627(5) 0.4096(6)
F12 F 0.4705(7) 0.3583(4) 0.4862(4)
F13 F 0.5989(8) 0.3214(9) 0.4806(7)
F14 F 0.3498(4) 0.2741(8) 0.4508(4)
F15 F 0.3828(4) 0.1986(8) 0.3906(4)
F16 F 0.4060(10) 0.3037(8) 0.3738(4)
F17 F 0.5785(7) 0.1960(8) 0.5034(2)
F18 F 0.4565(7) 0.2335(5) 0.5312(3)
F19 F 0.4660(10) 0.1432(5) 0.4774(6)
F20 F 0.2822(3) -0.1324(3) 0.2344(2)
F21 F 0.3744(4) -0.0537(2) 0.2510(2)
F22 F 0.4041(4) -0.1399(3) 0.1972(2)
F23 F 0.2681(4) -0.1504(5) 0.3417(3)
F24 F 0.3713(5) -0.1812(3) 0.38956(18)
F25 F 0.3642(6) -0.0776(3) 0.3597(3)
F26 F 0.5160(4) -0.0910(3) 0.3110(3)
F27 F 0.5231(4) -0.1962(4) 0.3415(4)
F28 F 0.5371(4) -0.1760(5) 0.2573(4)
F29 F 0.5537(6) -0.0194(3) 0.2094(3)
F30 F 0.6359(4) -0.0370(2) 0.1353(2)
F31 F 0.6904(4) -0.0111(2) 0.21440(19)
F32 F 0.6643(4) 0.0834(3) 0.07304(17)
F33 F 0.6992(4) 0.1711(2) 0.12570(17)
F34 F 0.7622(3) 0.0700(3) 0.1404(3)
F35 F 0.4687(3) 0.0948(4) 0.1840(2)
F36 F 0.5037(3) 0.0468(4) 0.1069(2)
F37 F 0.5300(5) 0.1610(3) 0.1193(2)
F38 F 0.7505(6) 0.2560(4) 0.4006(3)
F39 F 0.1996(5) -0.3073(5) 0.2551(3)
F34A F 0.2622(3) 0.0700(3) 0.3596(3)
O4F O 0.3748(3) -0.3823(2) 0.28277(15)
F1F F 0.3604(2) -0.31381(17) 0.18857(12)
Al2F Al 0.67755(10) 0.19321(8) 0.24149(6)
Cs1A Cs 0.98100(3) 0.07664(2) 0.179287(18)
loop_
_geom_bond_atom_site_label_1
_geom_bond_atom_site_label_2
_geom_bond_site_symmetry_1
_geom_bond_site_symmetry_2
Cs1 O1 1_555 1_555
Al1 O1 1_555 1_555
Al2 O3 1_555 1_555
O1 C1 1_555 1_555
O2 Cs1 1_555 1_555
O3 C9 1_555 1_555
O4 Cs1 1_555 1_555
C1 C2 1_555 1_555
C2 F2 1_555 1_555
C3 C1 1_555 1_555
C4 C1 1_555 1_555
C5 O2 1_555 1_555
C6 C5 1_555 1_555
C7 C5 1_555 1_555
C8 C5 1_555 1_555
C9 C10 1_555 1_555
C10 F20 1_555 1_555
C11 C9 1_555 1_555
C12 C9 1_555 1_555
C13 O4 1_555 1_555
C14 C13 1_555 1_555
C15 C13 1_555 1_555
C16 C13 1_555 1_555
F1 Cs1 1_555 1_555
F2 Cs1 1_555 1_555
F3 C2 1_555 1_555
F4 C2 1_555 1_555
F5 C3 1_555 1_555
F6 C3 1_555 1_555
F7 C3 1_555 1_555
F8 C4 1_555 1_555
F9 C4 1_555 1_555
F10 Cs1 1_555 1_555
F11 C6 1_555 1_555
F12 C6 1_555 1_555
F13 C6 1_555 1_555
F14 C7 1_555 1_555
F15 Cs1 1_555 1_555
F16 C7 1_555 1_555
F17 C8 1_555 1_555
F18 C8 1_555 1_555
F19 C8 1_555 1_555
F21 Cs1 1_555 1_555
F22 C10 1_555 1_555
F23 C11 1_555 1_555
F24 C11 1_555 1_555
F25 Cs1 1_555 1_555
F26 Cs1 1_555 1_555
F27 C12 1_555 1_555
F28 C12 1_555 1_555
F29 Cs1 1_555 1_555
F30 C14 1_555 1_555
F31 C14 1_555 1_555
F32 C15 1_555 1_555
F33 C15 1_555 1_555
F34 C15 1_555 1_555
F35 Cs1 1_555 1_555
F36 C16 1_555 1_555
F37 C16 1_555 1_555
F38 Al1 1_555 1_555
F39 Al2 1_555 1_555
F34A Cs1 1_555 1_555
O4F Al2 1_555 1_555
F1F Al2 1_555 1_555
Al2F O4 1_555 1_555
Cs1A F34 1_555 1_555
Al1 O2 1_555 1_555
Al1 F1 1_555 1_555
C4 F10 1_555 1_555
C7 F15 1_555 1_555
C10 F21 1_555 1_555
C11 F25 1_555 1_555
C12 F26 1_555 1_555
C14 F29 1_555 1_555
C16 F35 1_555 1_555
F1 Al2F 1_555 1_555

#END
