
#######################################################################
#
#                 Cambridge Crystallographic Data Centre
#                                CCDC 
#
#######################################################################
#
# If this CIF has been generated from an entry in the Cambridge 
# Structural Database, then it will include bibliographic, chemical, 
# crystal, experimental, refinement or atomic coordinate data resulting 
# from the CCDC's data processing and validation procedures.
#
#######################################################################

data_JANQEV
_symmetry_cell_setting           orthorhombic
_symmetry_space_group_name_H-M   'P b c n'
_symmetry_Int_Tables_number      60
_space_group_name_Hall           '-P 2n 2ab'
loop_
_symmetry_equiv_pos_site_id
_symmetry_equiv_pos_as_xyz
1 x,y,z
2 1/2-x,1/2-y,1/2+z
3 -x,y,1/2-z
4 1/2+x,1/2-y,-z
5 -x,-y,-z
6 1/2+x,1/2+y,1/2-z
7 x,-y,1/2+z
8 1/2-x,1/2+y,z
_cell_length_a                   9.9376(12)
_cell_length_b                   17.297(2)
_cell_length_c                   8.4607(11)
_cell_angle_alpha                90
_cell_angle_beta                 90
_cell_angle_gamma                90
_cell_volume                     1454.32
loop_
_atom_site_label
_atom_site_type_symbol
_atom_site_fract_x
_atom_site_fract_y
_atom_site_fract_z
Ag1 Ag 1.0000 0.41668(3) 0.2500
N1 N 0.2081(3) 0.3967(2) 0.2041(4)
N2 N 0.2494(3) 0.3554(2) 0.0791(4)
H1 H 0.1946 0.3390 0.0013
C1 C 0.3822(3) 0.3411(2) 0.0835(5)
C2 C 0.4300(3) 0.3743(2) 0.2203(4)
C3 C 0.3171(3) 0.4086(2) 0.2948(5)
C4 C 0.3098(4) 0.4535(4) 0.4423(8)
H2 H 0.3942 0.4790 0.4602
H3 H 0.2905 0.4196 0.5293
H4 H 0.2392 0.4913 0.4357
C5 C 0.4497(5) 0.2966(4) -0.0435(6)
H5 H 0.3852 0.2821 -0.1226
H6 H 0.5189 0.3277 -0.0909
H7 H 0.4892 0.2509 0.0013
Ag1_2 Ag 0.0000 0.41668(3) 0.2500
N1B N 0.7919(3) 0.3967(2) 0.2959(4)
N1_2 N 1.2081(3) 0.3967(2) 0.2041(4)
N2B N 0.7506(3) 0.3554(2) 0.4209(4)
H1B H 0.8054 0.3390 0.4987
C1B C 0.6178(3) 0.3411(2) 0.4165(5)
C2B C 0.5700(3) 0.3743(2) 0.2797(4)
C3B C 0.6829(3) 0.4086(2) 0.2052(5)
C4B C 0.6902(4) 0.4535(4) 0.0577(8)
H2B H 0.6058 0.4790 0.0398
H3B H 0.7095 0.4196 -0.0293
H4B H 0.7608 0.4913 0.0643
C5B C 0.5503(5) 0.2966(4) 0.5435(6)
H5B H 0.6148 0.2821 0.6226
H6B H 0.4811 0.3277 0.5909
H7B H 0.5108 0.2509 0.4987
Cl1 Cl 0.5000 0.12386(11) 0.2500
O1 O 0.6164(5) 0.1708(3) 0.2376(6)
O2 O 0.4966(4) 0.0755(3) 0.1147(6)
O1B O 0.3836(5) 0.1708(3) 0.2624(6)
O2B O 0.5034(4) 0.0755(3) 0.3853(6)
loop_
_geom_bond_atom_site_label_1
_geom_bond_atom_site_label_2
_geom_bond_site_symmetry_1
_geom_bond_site_symmetry_2
Ag1 N1B 1_555 1_555
Cl1 O1 1_555 1_555
O2 Cl1 1_555 1_555
N1 N2 1_555 1_555
N2 H1 1_555 1_555
C1 N2 1_555 1_555
C2 C1 1_555 1_555
C3 N1 1_555 1_555
C4 C3 1_555 1_555
H2 C4 1_555 1_555
H3 C4 1_555 1_555
H4 C4 1_555 1_555
C5 C1 1_555 1_555
H5 C5 1_555 1_555
H6 C5 1_555 1_555
H7 C5 1_555 1_555
Ag1_2 N1 1_555 1_555
O1B Cl1 1_555 1_555
O2B Cl1 1_555 1_555
N1B N2B 1_555 1_555
N1_2 Ag1 1_555 1_555
N2B H1B 1_555 1_555
C1B N2B 1_555 1_555
C2B C2 1_555 1_555
C3B N1B 1_555 1_555
C4B C3B 1_555 1_555
H2B C4B 1_555 1_555
H3B C4B 1_555 1_555
H4B C4B 1_555 1_555
C5B C1B 1_555 1_555
H5B C5B 1_555 1_555
H6B C5B 1_555 1_555
H7B C5B 1_555 1_555
C2 C3 1_555 1_555
C1B C2B 1_555 1_555
C2B C3B 1_555 1_555

#END
