
#######################################################################
#
#                 Cambridge Crystallographic Data Centre
#                                CCDC 
#
#######################################################################
#
# If this CIF has been generated from an entry in the Cambridge 
# Structural Database, then it will include bibliographic, chemical, 
# crystal, experimental, refinement or atomic coordinate data resulting 
# from the CCDC's data processing and validation procedures.
#
#######################################################################

data_JANQUL
_symmetry_cell_setting           triclinic
_symmetry_space_group_name_H-M   'P -1'
_symmetry_Int_Tables_number      2
_space_group_name_Hall           '-P 1'
loop_
_symmetry_equiv_pos_site_id
_symmetry_equiv_pos_as_xyz
1 x,y,z
2 -x,-y,-z
_cell_length_a                   8.6957(10)
_cell_length_b                   9.9090(12)
_cell_length_c                   10.3299(13)
_cell_angle_alpha                111.513(3)
_cell_angle_beta                 102.676(3)
_cell_angle_gamma                90.937(3)
_cell_volume                     803.282
loop_
_atom_site_label
_atom_site_type_symbol
_atom_site_fract_x
_atom_site_fract_y
_atom_site_fract_z
Ag1 Ag 0.33471(3) 0.54717(2) 0.14531(3)
N1 N 0.2745(3) -0.2356(3) 0.1766(3)
N2 N 0.1606(3) -0.1727(3) 0.2430(3)
H1 H 0.092(5) -0.222(4) 0.254(4)
N3 N 0.4879(3) 0.3659(3) 0.3136(3)
H2 H 0.561(5) 0.442(5) 0.348(4)
N4 N 0.3690(3) 0.3595(3) 0.2009(3)
C1 C 0.4947(5) -0.1525(4) 0.1000(5)
H3 H 0.5905 -0.1044 0.1709
H4 H 0.4792 -0.1153 0.0249
H5 H 0.5031 -0.2552 0.0587
C2 C 0.3585(3) -0.1270(3) 0.1679(3)
C3 C 0.2974(3) 0.0067(3) 0.2291(3)
C4 C 0.1694(3) -0.0280(3) 0.2749(3)
C5 C 0.0562(4) 0.0660(3) 0.3458(4)
H6 H -0.0389 0.0079 0.3346
H7 H 0.0323 0.1374 0.3039
H8 H 0.1062 0.1172 0.4456
C6 C 0.6023(4) 0.2231(4) 0.4573(4)
H9 H 0.6818 0.3054 0.5037
H10 H 0.6493 0.1351 0.4170
H11 H 0.5488 0.2104 0.5248
C7 C 0.4836(3) 0.2433(3) 0.3402(3)
C8 C 0.3549(3) 0.1519(3) 0.2412(3)
C9 C 0.2870(3) 0.2294(3) 0.1566(3)
C10 C 0.1495(4) 0.1783(3) 0.0298(4)
H12 H 0.1553 0.0785 -0.0286
H13 H 0.1503 0.2383 -0.0248
H14 H 0.0526 0.1868 0.0609
Ag1_2 Ag 0.33471(3) -0.45283(2) 0.14531(3)
N1_2 N 0.2745(3) 0.7644(3) 0.1766(3)
S1 S 0.22728(9) -0.60477(8) -0.26626(8)
F1 F -0.0346(4) -0.5138(6) -0.3640(5)
F2 F 0.0240(4) -0.4586(4) -0.1379(4)
F3 F 0.1496(4) -0.3433(4) -0.2297(5)
O1 O 0.3431(3) -0.5425(3) -0.1313(3)
O2 O 0.1330(3) -0.7352(3) -0.2864(3)
O3 O 0.2864(3) -0.6103(3) -0.3873(3)
C11 C 0.0846(5) -0.4726(5) -0.2499(6)
loop_
_geom_bond_atom_site_label_1
_geom_bond_atom_site_label_2
_geom_bond_site_symmetry_1
_geom_bond_site_symmetry_2
Ag1 N4 1_555 1_555
N1 N2 1_555 1_555
N2 H1 1_555 1_555
N3 H2 1_555 1_555
N4 N3 1_555 1_555
C1 H3 1_555 1_555
H4 C1 1_555 1_555
H5 C1 1_555 1_555
C2 N1 1_555 1_555
C3 C2 1_555 1_555
C4 N2 1_555 1_555
C5 C4 1_555 1_555
H6 C5 1_555 1_555
H7 C5 1_555 1_555
H8 C5 1_555 1_555
C6 H9 1_555 1_555
H10 C6 1_555 1_555
H11 C6 1_555 1_555
C7 N3 1_555 1_555
C8 C3 1_555 1_555
C9 N4 1_555 1_555
C10 C9 1_555 1_555
H12 C10 1_555 1_555
H13 C10 1_555 1_555
H14 C10 1_555 1_555
S1 O1 1_555 1_555
F1 C11 1_555 1_555
F2 C11 1_555 1_555
F3 C11 1_555 1_555
O2 S1 1_555 1_555
O3 S1 1_555 1_555
C11 S1 1_555 1_555
Ag1_2 N1 1_555 1_555
N1_2 Ag1 1_555 1_555
C1 C2 1_555 1_555
C3 C4 1_555 1_555
C6 C7 1_555 1_555
C7 C8 1_555 1_555
C8 C9 1_555 1_555

#END
