
#######################################################################
#
#                 Cambridge Crystallographic Data Centre
#                                CCDC 
#
#######################################################################
#
# If this CIF has been generated from an entry in the Cambridge 
# Structural Database, then it will include bibliographic, chemical, 
# crystal, experimental, refinement or atomic coordinate data resulting 
# from the CCDC's data processing and validation procedures.
#
#######################################################################

data_JANREW
_symmetry_cell_setting           monoclinic
_symmetry_space_group_name_H-M   'P 21/n'
_symmetry_Int_Tables_number      14
_space_group_name_Hall           '-P 2yn'
loop_
_symmetry_equiv_pos_site_id
_symmetry_equiv_pos_as_xyz
1 x,y,z
2 1/2-x,1/2+y,1/2-z
3 -x,-y,-z
4 1/2+x,1/2-y,1/2+z
_cell_length_a                   13.6570(10)
_cell_length_b                   8.5840(10)
_cell_length_c                   14.0720(10)
_cell_angle_alpha                90
_cell_angle_beta                 95.230(10)
_cell_angle_gamma                90
_cell_volume                     1642.82
loop_
_atom_site_label
_atom_site_type_symbol
_atom_site_fract_x
_atom_site_fract_y
_atom_site_fract_z
Ag1 Ag 0.120560(15) 0.45303(2) -0.005330(13)
O1 O 0.22571(18) 0.6809(3) -0.05098(16)
O2 O 0.11666(17) 0.7837(2) -0.16126(15)
N1 N -0.25586(17) 0.0842(2) -0.40209(14)
N2 N -0.17185(18) 0.0058(3) -0.41284(15)
H1 H -0.176(2) -0.058(3) -0.446(2)
N3 N 0.01373(17) 0.4148(2) -0.12306(14)
N4 N 0.00461(18) 0.5172(2) -0.19729(14)
H2 H 0.032(2) 0.592(3) -0.1923(19)
C1 C 0.0076(2) 0.0020(3) -0.3602(2)
H3 H 0.0544 0.0842 -0.3657
H4 H 0.0096 -0.0701 -0.4121
H5 H 0.0227 -0.0547 -0.3019
C2 C -0.0936(2) 0.0669(3) -0.36085(17)
C3 C -0.12936(19) 0.1940(2) -0.31272(15)
C4 C -0.2303(2) 0.1996(3) -0.34070(16)
C5 C -0.3043(2) 0.3116(3) -0.30987(19)
H6 H -0.3023 0.3136 -0.2415
H7 H -0.3684 0.2808 -0.3371
H8 H -0.2908 0.4133 -0.3338
C6 C -0.0409(2) 0.1475(3) -0.09084(18)
H9 H -0.0146 0.1729 -0.0271
H10 H -0.1085 0.1168 -0.0908
H11 H -0.0050 0.0618 -0.1144
C7 C -0.03369(19) 0.2853(3) -0.15440(16)
C8 C -0.07225(18) 0.3051(3) -0.24980(15)
C9 C -0.0464(2) 0.4557(3) -0.27407(16)
C10 C -0.0665(2) 0.5420(3) -0.36544(19)
H12 H -0.0665 0.4724 -0.4188
H13 H -0.1291 0.5926 -0.3652
H14 H -0.0175 0.6213 -0.3692
C11 C 0.1969(2) 0.7733(3) -0.11449(18)
C12 C 0.2743(2) 0.8983(3) -0.1391(2)
C13 C 0.2485(3) 1.0631(3) -0.1115(3)
F1 F 0.36344(15) 0.8674(2) -0.09308(18)
F2 F 0.2845(2) 0.9016(3) -0.23441(15)
F3 F 0.32378(18) 1.1586(2) -0.1186(2)
F4 F 0.17406(17) 1.1175(2) -0.16769(19)
F5 F 0.2248(2) 1.0615(2) -0.02220(17)
Ag1C Ag -0.379440(15) 0.04697(2) -0.505330(13)
N1C N 0.24414(17) 0.4158(2) 0.09791(14)
loop_
_geom_bond_atom_site_label_1
_geom_bond_atom_site_label_2
_geom_bond_site_symmetry_1
_geom_bond_site_symmetry_2
Ag1 O1 1_555 1_555
O1 C11 1_555 1_555
O2 C11 1_555 1_555
N1 N2 1_555 1_555
N2 H1 1_555 1_555
N3 Ag1 1_555 1_555
N4 N3 1_555 1_555
H2 N4 1_555 1_555
C1 H3 1_555 1_555
H4 C1 1_555 1_555
H5 C1 1_555 1_555
C2 N2 1_555 1_555
C3 C2 1_555 1_555
C4 N1 1_555 1_555
C5 C4 1_555 1_555
H6 C5 1_555 1_555
H7 C5 1_555 1_555
H8 C5 1_555 1_555
C6 H9 1_555 1_555
H10 C6 1_555 1_555
H11 C6 1_555 1_555
C7 N3 1_555 1_555
C8 C3 1_555 1_555
C9 N4 1_555 1_555
C10 C9 1_555 1_555
H12 C10 1_555 1_555
H13 C10 1_555 1_555
H14 C10 1_555 1_555
C11 C12 1_555 1_555
C12 C13 1_555 1_555
C13 F3 1_555 1_555
F1 C12 1_555 1_555
F2 C12 1_555 1_555
F4 C13 1_555 1_555
F5 C13 1_555 1_555
Ag1C N1 1_555 1_555
N1C Ag1 1_555 1_555
C1 C2 1_555 1_555
C3 C4 1_555 1_555
C6 C7 1_555 1_555
C7 C8 1_555 1_555
C8 C9 1_555 1_555

#END
