
#######################################################################
#
#                 Cambridge Crystallographic Data Centre
#                                CCDC 
#
#######################################################################
#
# If this CIF has been generated from an entry in the Cambridge 
# Structural Database, then it will include bibliographic, chemical, 
# crystal, experimental, refinement or atomic coordinate data resulting 
# from the CCDC's data processing and validation procedures.
#
#######################################################################

data_JAPJAM01
_symmetry_cell_setting           monoclinic
_symmetry_space_group_name_H-M   'P 21/c'
_symmetry_Int_Tables_number      14
_space_group_name_Hall           '-P 2ybc'
loop_
_symmetry_equiv_pos_site_id
_symmetry_equiv_pos_as_xyz
1 x,y,z
2 -x,1/2+y,1/2-z
3 -x,-y,-z
4 x,1/2-y,1/2+z
_cell_length_a                   17.124(3)
_cell_length_b                   11.727(2)
_cell_length_c                   16.249(3)
_cell_angle_alpha                90
_cell_angle_beta                 103.84(3)
_cell_angle_gamma                90
_cell_volume                     3168.28
loop_
_atom_site_label
_atom_site_type_symbol
_atom_site_fract_x
_atom_site_fract_y
_atom_site_fract_z
Hg1 Hg 0.340571(17) 0.70129(3) 0.025233(18)
Cl1 Cl 0.26623(11) 0.60244(19) -0.09621(11)
Cl2 Cl 0.36134(14) 0.7404(2) 0.16986(12)
N1 N 0.3128(3) 0.8827(5) -0.0431(3)
N2 N 0.2428(3) 1.2150(5) -0.2402(3)
H1 H 0.2666 1.1590 -0.2608
N3 N 0.2439(3) 1.1232(5) -0.4569(3)
H2 H 0.2400 1.1545 -0.5069
N4 N 0.5327(3) 1.1690(5) -0.4896(4)
O1 O 0.2101(3) 1.2822(4) -0.1215(3)
O2 O 0.3257(3) 1.0731(5) -0.3307(3)
C1 C 0.3179(4) 0.9799(8) 0.0013(4)
H3 H 0.3406 0.9765 0.0606
C2 C 0.2925(4) 1.0844(6) -0.0337(4)
H4 H 0.2958 1.1504 0.0009
C3 C 0.2620(4) 1.0911(7) -0.1200(4)
C4 C 0.2557(4) 0.9926(7) -0.1663(4)
H5 H 0.2334 0.9944 -0.2257
C5 C 0.2816(4) 0.8907(7) -0.1267(4)
H6 H 0.2772 0.8235 -0.1601
C6 C 0.2354(4) 1.2047(7) -0.1591(4)
C7 C 0.2151(4) 1.3088(7) -0.2942(4)
C8 C 0.2433(4) 1.4198(7) -0.2694(4)
H7 H 0.2793 1.4324 -0.2158
C9 C 0.2182(4) 1.5082(7) -0.3234(5)
H8 H 0.2358 1.5832 -0.3063
C10 C 0.1659(4) 1.4908(7) -0.4051(5)
C11 C 0.1417(5) 1.5819(8) -0.4640(5)
H9 H 0.1584 1.6576 -0.4479
C12 C 0.0949(5) 1.5614(9) -0.5424(5)
H10 H 0.0797 1.6226 -0.5813
C13 C 0.0694(5) 1.4524(9) -0.5661(5)
H11 H 0.0365 1.4397 -0.6213
C14 C 0.0901(4) 1.3624(8) -0.5125(4)
H12 H 0.0713 1.2882 -0.5306
C15 C 0.1398(4) 1.3786(8) -0.4292(4)
C16 C 0.1648(4) 1.2855(7) -0.3713(4)
C17 C 0.1343(4) 1.1681(7) -0.3906(4)
C18 C 0.0661(4) 1.1305(7) -0.3607(4)
C19 C 0.0241(4) 1.2035(8) -0.3178(5)
H13 H 0.0404 1.2808 -0.3085
C20 C -0.0396(5) 1.1642(9) -0.2894(5)
H14 H -0.0671 1.2145 -0.2602
C21 C -0.0655(5) 1.0505(9) -0.3026(5)
H15 H -0.1105 1.0248 -0.2830
C22 C -0.0263(4) 0.9773(9) -0.3435(5)
H16 H -0.0439 0.9004 -0.3516
C23 C 0.0409(4) 1.0138(8) -0.3744(4)
C24 C 0.0804(4) 0.9389(8) -0.4186(4)
H17 H 0.0622 0.8627 -0.4296
C25 C 0.1448(4) 0.9774(7) -0.4454(4)
H18 H 0.1722 0.9262 -0.4741
C26 C 0.1725(4) 1.0901(7) -0.4321(4)
C27 C 0.3170(4) 1.1072(7) -0.4047(4)
C28 C 0.3905(4) 1.1306(7) -0.4382(4)
C29 C 0.4624(4) 1.1454(7) -0.3788(4)
H19 H 0.4641 1.1434 -0.3199
C30 C 0.5320(4) 1.1634(7) -0.4065(5)
H20 H 0.5814 1.1722 -0.3653
C31 C 0.4622(4) 1.1528(7) -0.5453(5)
H21 H 0.4612 1.1555 -0.6040
C32 C 0.3916(4) 1.1325(7) -0.5229(4)
H22 H 0.3435 1.1197 -0.5653
Hg1A Hg 0.659429(17) 1.20129(3) -0.525233(18)
N4A N 0.4673(3) 0.6690(5) -0.0104(4)
C33 C 0.4682(5) 1.5466(8) -0.6866(5)
H23 H 0.4521 1.6141 -0.6581
H24 H 0.4263 1.5333 -0.7394
Cl3 Cl 0.55969(12) 1.5756(2) -0.71279(13)
Cl4 Cl 0.47290(14) 1.4286(3) -0.62088(17)
loop_
_geom_bond_atom_site_label_1
_geom_bond_atom_site_label_2
_geom_bond_site_symmetry_1
_geom_bond_site_symmetry_2
Hg1 Cl1 1_555 1_555
Cl2 Hg1 1_555 1_555
N1 Hg1 1_555 1_555
N2 H1 1_555 1_555
N3 H2 1_555 1_555
N4 C30 1_555 1_555
O1 C6 1_555 1_555
O2 C27 1_555 1_555
C1 N1 1_555 1_555
H3 C1 1_555 1_555
C2 C1 1_555 1_555
H4 C2 1_555 1_555
C3 C2 1_555 1_555
C4 C3 1_555 1_555
H5 C4 1_555 1_555
C5 N1 1_555 1_555
H6 C5 1_555 1_555
C6 N2 1_555 1_555
C7 N2 1_555 1_555
C8 C7 1_555 1_555
H7 C8 1_555 1_555
C9 C8 1_555 1_555
H8 C9 1_555 1_555
C10 C9 1_555 1_555
C11 C10 1_555 1_555
H9 C11 1_555 1_555
C12 C11 1_555 1_555
H10 C12 1_555 1_555
C13 C12 1_555 1_555
H11 C13 1_555 1_555
C14 C13 1_555 1_555
H12 C14 1_555 1_555
C15 C10 1_555 1_555
C16 C7 1_555 1_555
C17 C16 1_555 1_555
C18 C17 1_555 1_555
C19 C18 1_555 1_555
H13 C19 1_555 1_555
C20 C19 1_555 1_555
H14 C20 1_555 1_555
C21 C20 1_555 1_555
H15 C21 1_555 1_555
C22 C21 1_555 1_555
H16 C22 1_555 1_555
C23 C18 1_555 1_555
C24 C23 1_555 1_555
H17 C24 1_555 1_555
C25 C24 1_555 1_555
H18 C25 1_555 1_555
C26 N3 1_555 1_555
C27 N3 1_555 1_555
C28 C27 1_555 1_555
C29 C28 1_555 1_555
H19 C29 1_555 1_555
C30 C29 1_555 1_555
H20 C30 1_555 1_555
C31 N4 1_555 1_555
H21 C31 1_555 1_555
C32 C28 1_555 1_555
H22 C32 1_555 1_555
C33 H23 1_555 1_555
H24 C33 1_555 1_555
Cl3 C33 1_555 1_555
Cl4 C33 1_555 1_555
Hg1A N4 1_555 1_555
N4A Hg1 1_555 1_555
C3 C6 1_555 1_555
C4 C5 1_555 1_555
C14 C15 1_555 1_555
C15 C16 1_555 1_555
C17 C26 1_555 1_555
C22 C23 1_555 1_555
C25 C26 1_555 1_555
C31 C32 1_555 1_555

#END
