
#######################################################################
#
#                 Cambridge Crystallographic Data Centre
#                                CCDC 
#
#######################################################################
#
# If this CIF has been generated from an entry in the Cambridge 
# Structural Database, then it will include bibliographic, chemical, 
# crystal, experimental, refinement or atomic coordinate data resulting 
# from the CCDC's data processing and validation procedures.
#
#######################################################################

data_JAPKOB
_symmetry_cell_setting           rhombohedral
_symmetry_space_group_name_H-M   'R -3'
_symmetry_Int_Tables_number      148
_space_group_name_Hall           '-R 3'
loop_
_symmetry_equiv_pos_site_id
_symmetry_equiv_pos_as_xyz
1 x,y,z
2 -y,x-y,z
3 -x+y,-x,z
4 2/3+x,1/3+y,1/3+z
5 2/3-y,1/3+x-y,1/3+z
6 2/3-x+y,1/3-x,1/3+z
7 1/3+x,2/3+y,2/3+z
8 1/3-y,2/3+x-y,2/3+z
9 1/3-x+y,2/3-x,2/3+z
10 -x,-y,-z
11 y,-x+y,-z
12 x-y,x,-z
13 1/3-x,2/3-y,2/3-z
14 1/3+y,2/3-x+y,2/3-z
15 1/3+x-y,2/3+x,2/3-z
16 2/3-x,1/3-y,1/3-z
17 2/3+y,1/3-x+y,1/3-z
18 2/3+x-y,1/3+x,1/3-z
_cell_length_a                   26.836(4)
_cell_length_b                   26.836(4)
_cell_length_c                   53.305(11)
_cell_angle_alpha                90
_cell_angle_beta                 90
_cell_angle_gamma                120.00
_cell_volume                     33245.6
loop_
_atom_site_label
_atom_site_type_symbol
_atom_site_fract_x
_atom_site_fract_y
_atom_site_fract_z
Hg1 Hg -0.27793(5) 0.19097(5) -0.04257(3)
I1 I -0.28122(8) 0.28458(8) -0.03192(3)
I2 I -0.32086(15) 0.08079(12) -0.03269(7)
Hg2 Hg -0.62317(5) -0.13545(5) -0.21885(3)
I4 I -0.62342(7) -0.22797(7) -0.20126(3)
I5 I -0.66692(11) -0.06655(10) -0.21814(5)
N1 N -0.8410(6) -0.1043(7) -0.3803(3)
C1 C -0.8198(8) -0.1396(6) -0.3726(4)
H1 H -0.8456 -0.1788 -0.3685
C2 C -0.7608(9) -0.1176(8) -0.3707(4)
H2 H -0.7462 -0.1417 -0.3654
C3 C -0.7230(6) -0.0603(9) -0.3766(4)
C4 C -0.7442(7) -0.0250(6) -0.3843(3)
H3 H -0.7183 0.0142 -0.3884
C5 C -0.8032(7) -0.0470(6) -0.3862(3)
H4 H -0.8177 -0.0229 -0.3915
C6 C -0.6599(11) -0.0424(11) -0.3713(5)
O1 O -0.6456(9) -0.0566(9) -0.3520(4)
N2 N -0.6196(9) -0.0035(10) -0.3857(5)
H5 H -0.6292 0.0069 -0.3997
C7 C -0.5618(11) 0.0213(9) -0.3791(4)
C8 C -0.5349(11) 0.0757(10) -0.3678(4)
H6 H -0.5560 0.0953 -0.3661
C9 C -0.4788(11) 0.1020(14) -0.3589(5)
H7 H -0.4623 0.1383 -0.3507
C10 C -0.4468(11) 0.0739(10) -0.3624(5)
C11 C -0.3921(13) 0.1023(17) -0.3515(6)
H8 H -0.3759 0.1385 -0.3433
C12 C -0.3643(17) 0.0703(15) -0.3544(7)
H9 H -0.3264 0.0863 -0.3478
C13 C -0.3877(15) 0.0167(15) -0.3660(7)
H10 H -0.3656 -0.0017 -0.3681
C14 C -0.4444(14) -0.0090(16) -0.3743(6)
H11 H -0.4623 -0.0474 -0.3804
C15 C -0.4760(10) 0.0196(10) -0.3741(5)
C16 C -0.5337(10) -0.0105(10) -0.3827(5)
C17 C -0.5561(8) -0.0623(8) -0.3966(3)
C18 C -0.5556(6) -0.0620(8) -0.4230(3)
C19 C -0.5363(10) -0.0126(11) -0.4379(4)
H12 H -0.5210 0.0229 -0.4291
C20 C -0.5368(13) -0.0090(12) -0.4640(4)
H13 H -0.5255 0.0257 -0.4729
C21 C -0.5557(12) -0.0623(10) -0.4755(5)
H14 H -0.5540 -0.0628 -0.4932
C22 C -0.5770(12) -0.1147(11) -0.4631(4)
H15 H -0.5925 -0.1501 -0.4719
C23 C -0.5742(9) -0.1124(8) -0.4368(3)
C24 C -0.5942(11) -0.1636(10) -0.4237(4)
H16 H -0.6067 -0.1982 -0.4330
C25 C -0.5966(11) -0.1664(10) -0.3978(4)
H17 H -0.6108 -0.2021 -0.3892
C26 C -0.5774(9) -0.1151(7) -0.3846(4)
N3 N -0.5803(11) -0.1148(10) -0.3580(4)
H18 H -0.5824 -0.0855 -0.3518
C27 C -0.5803(14) -0.1484(14) -0.3418(5)
O2 O -0.5768(11) -0.1943(11) -0.3478(4)
C28 C -0.5798(8) -0.1782(7) -0.2982(3)
H19 H -0.5664 -0.2027 -0.3042
C29 C -0.5905(7) -0.1449(7) -0.31489(19)
C30 C -0.6101(7) -0.1090(6) -0.3061(2)
H20 H -0.6175 -0.0863 -0.3175
C31 C -0.6190(7) -0.1064(6) -0.2806(2)
H21 H -0.6325 -0.0819 -0.2745
N4 N -0.6083(6) -0.1396(6) -0.26382(18)
C32 C -0.5887(7) -0.1755(6) -0.2726(2)
H22 H -0.5814 -0.1983 -0.2612
N5 N -0.5163(5) -0.0688(6) -0.2190(3)
C33 C -0.4830(7) -0.0936(5) -0.2250(3)
H23 H -0.5011 -0.1333 -0.2291
C34 C -0.4234(7) -0.0602(8) -0.2250(4)
H24 H -0.4007 -0.0772 -0.2290
C35 C -0.3969(5) -0.0021(7) -0.2190(3)
C36 C -0.4302(6) 0.0227(5) -0.2130(3)
H25 H -0.4121 0.0624 -0.2089
C37 C -0.4898(6) -0.0107(6) -0.2130(3)
H26 H -0.5126 0.0063 -0.2089
C38 C -0.3311(13) 0.0282(13) -0.2190(5)
O3 O -0.3056(8) 0.0067(8) -0.2330(4)
N6 N -0.3080(10) 0.0694(8) -0.2039(4)
H27 H -0.3285 0.0825 -0.1966
C39 C -0.2469(12) 0.0951(10) -0.1987(4)
C40 C -0.2272(11) 0.0616(12) -0.1860(4)
H28 H -0.2534 0.0220 -0.1831
C41 C -0.1696(10) 0.0857(11) -0.1775(4)
H29 H -0.1576 0.0631 -0.1685
C42 C -0.1301(11) 0.1448(11) -0.1830(5)
C43 C -0.0719(10) 0.1694(11) -0.1744(5)
H30 H -0.0588 0.1458 -0.1669
C44 C -0.0338(14) 0.2295(11) -0.1773(6)
H31 H 0.0047 0.2469 -0.1714
C45 C -0.0544(13) 0.2631(17) -0.1893(7)
H32 H -0.0295 0.3033 -0.1915
C46 C -0.1125(11) 0.2368(10) -0.1981(5)
H33 H -0.1262 0.2605 -0.2049
C47 C -0.1509(10) 0.1758(9) -0.1969(5)
C48 C -0.2090(10) 0.1536(11) -0.2056(5)
C49 C -0.2265(10) 0.1851(10) -0.2204(4)
C50 C -0.2240(7) 0.1854(8) -0.2464(4)
C51 C -0.2059(11) 0.1533(12) -0.2596(5)
H34 H -0.1927 0.1315 -0.2506
C52 C -0.2060(12) 0.1517(12) -0.2853(5)
H35 H -0.1985 0.1243 -0.2931
C53 C -0.2165(13) 0.1872(12) -0.3007(6)
H36 H -0.2092 0.1912 -0.3183
C54 C -0.2384(12) 0.2157(12) -0.2876(4)
H37 H -0.2538 0.2352 -0.2968
C55 C -0.2396(12) 0.2177(11) -0.2616(4)
C56 C -0.2560(11) 0.2524(11) -0.2494(4)
H38 H -0.2638 0.2775 -0.2592
C57 C -0.2618(13) 0.2525(13) -0.2238(4)
H39 H -0.2769 0.2740 -0.2160
C58 C -0.2448(12) 0.2201(11) -0.2097(5)
N7 N -0.2452(9) 0.2278(11) -0.1821(5)
H40 H -0.2171 0.2587 -0.1751
C59 C -0.2886(13) 0.1876(13) -0.1676(5)
O4 O -0.3326(8) 0.1448(9) -0.1768(4)
C60 C -0.2587(8) 0.2449(5) -0.1022(3)
H41 H -0.2462 0.2805 -0.0938
N8 N -0.2730(7) 0.1956(7) -0.0884(2)
C61 C -0.2913(8) 0.1435(6) -0.1006(3)
H42 H -0.3011 0.1098 -0.0912
C62 C -0.2952(8) 0.1408(6) -0.1266(3)
H43 H -0.3077 0.1052 -0.1350
C63 C -0.2809(8) 0.1902(8) -0.1404(2)
C64 C -0.2626(8) 0.2422(6) -0.1282(3)
H44 H -0.2528 0.2759 -0.1376
Hg1F Hg -0.94460(5) -0.14236(5) -0.37590(3)
N1C N -0.1743(6) 0.2290(7) -0.0470(3)
Hg3 Hg -0.6667 -0.3333 -0.3333
I6 I -0.6667 -0.3333 -0.38164(13)
I6P I -0.6666 -0.3333 -0.28503(13)
C65 C 0.112(3) 0.156(4) -0.2286(13)
H45 H 0.0980 0.1699 -0.2426
H46 H 0.0887 0.1138 -0.2279
Cl1 Cl 0.184(4) 0.176(5) -0.2341(18)
Cl2 Cl 0.106(3) 0.185(3) -0.2007(11)
O5 O -0.3333 0.3333 -0.1667
I3? I -0.9888(4) -0.2538(4) -0.3822(2)
C66? C 0.015(3) 0.227(4) -0.2446(18)
H47? H 0.0198 0.2434 -0.2275
H48? H 0.0422 0.2606 -0.2551
Cl3? Cl -0.052(3) 0.217(3) -0.2537(14)
Cl4? Cl 0.051(5) 0.188(5) -0.242(2)
H49? H -0.3608 0.3400 -0.1667
H50? H -0.3100 0.3689 -0.1667
loop_
_geom_bond_atom_site_label_1
_geom_bond_atom_site_label_2
_geom_bond_site_symmetry_1
_geom_bond_site_symmetry_2
Hg1 I1 1_555 1_555
I2 Hg1 1_555 1_555
Hg2 I4 1_555 1_555
I5 Hg2 1_555 1_555
Hg3 I6 1_555 1_555
N1 C1 1_555 1_555
C1 H1 1_555 1_555
C2 C1 1_555 1_555
H2 C2 1_555 1_555
C3 C2 1_555 1_555
C4 C3 1_555 1_555
H3 C4 1_555 1_555
C5 N1 1_555 1_555
H4 C5 1_555 1_555
C6 C3 1_555 1_555
O1 C6 1_555 1_555
N2 C6 1_555 1_555
H5 N2 1_555 1_555
C7 N2 1_555 1_555
C8 C7 1_555 1_555
H6 C8 1_555 1_555
C9 C8 1_555 1_555
H7 C9 1_555 1_555
C10 C9 1_555 1_555
C11 C10 1_555 1_555
H8 C11 1_555 1_555
C12 C11 1_555 1_555
H9 C12 1_555 1_555
C13 C12 1_555 1_555
H10 C13 1_555 1_555
C14 C13 1_555 1_555
H11 C14 1_555 1_555
C15 C10 1_555 1_555
C16 C7 1_555 1_555
C17 C16 1_555 1_555
C18 C17 1_555 1_555
C19 C18 1_555 1_555
H12 C19 1_555 1_555
C20 C19 1_555 1_555
H13 C20 1_555 1_555
C21 C20 1_555 1_555
H14 C21 1_555 1_555
C22 C21 1_555 1_555
H15 C22 1_555 1_555
C23 C18 1_555 1_555
C24 C23 1_555 1_555
H16 C24 1_555 1_555
C25 C24 1_555 1_555
H17 C25 1_555 1_555
C26 C17 1_555 1_555
N3 C26 1_555 1_555
H18 N3 1_555 1_555
C27 N3 1_555 1_555
O2 C27 1_555 1_555
C28 H19 1_555 1_555
C29 C27 1_555 1_555
C30 C29 1_555 1_555
H20 C30 1_555 1_555
C31 C30 1_555 1_555
H21 C31 1_555 1_555
N4 Hg2 1_555 1_555
C32 C28 1_555 1_555
H22 C32 1_555 1_555
N5 Hg2 1_555 1_555
C33 N5 1_555 1_555
H23 C33 1_555 1_555
C34 C33 1_555 1_555
H24 C34 1_555 1_555
C35 C34 1_555 1_555
C36 C35 1_555 1_555
H25 C36 1_555 1_555
C37 N5 1_555 1_555
H26 C37 1_555 1_555
C38 C35 1_555 1_555
O3 C38 1_555 1_555
N6 C38 1_555 1_555
H27 N6 1_555 1_555
C39 N6 1_555 1_555
C40 C39 1_555 1_555
H28 C40 1_555 1_555
C41 C40 1_555 1_555
H29 C41 1_555 1_555
C42 C41 1_555 1_555
C43 C42 1_555 1_555
H30 C43 1_555 1_555
C44 C43 1_555 1_555
H31 C44 1_555 1_555
C45 C44 1_555 1_555
H32 C45 1_555 1_555
C46 C45 1_555 1_555
H33 C46 1_555 1_555
C47 C42 1_555 1_555
C48 C39 1_555 1_555
C49 C48 1_555 1_555
C50 C49 1_555 1_555
C51 C50 1_555 1_555
H34 C51 1_555 1_555
C52 C51 1_555 1_555
H35 C52 1_555 1_555
C53 C52 1_555 1_555
H36 C53 1_555 1_555
C54 C53 1_555 1_555
H37 C54 1_555 1_555
C55 C50 1_555 1_555
C56 C55 1_555 1_555
H38 C56 1_555 1_555
C57 C56 1_555 1_555
H39 C57 1_555 1_555
C58 C49 1_555 1_555
N7 C58 1_555 1_555
H40 N7 1_555 1_555
C59 N7 1_555 1_555
O4 C59 1_555 1_555
C60 H41 1_555 1_555
N8 Hg1 1_555 1_555
C61 N8 1_555 1_555
H42 C61 1_555 1_555
C62 C61 1_555 1_555
H43 C62 1_555 1_555
C63 C59 1_555 1_555
C64 C60 1_555 1_555
H44 C64 1_555 1_555
C65 H45 1_555 1_555
H46 C65 1_555 1_555
Cl1 C65 1_555 1_555
Cl2 C65 1_555 1_555
Hg1F N1 1_555 1_555
I6P Hg3 1_555 1_555
N1C Hg1 1_555 1_555
C4 C5 1_555 1_555
C14 C15 1_555 1_555
C15 C16 1_555 1_555
C22 C23 1_555 1_555
C25 C26 1_555 1_555
C28 C29 1_555 1_555
C31 N4 1_555 1_555
N4 C32 1_555 1_555
C36 C37 1_555 1_555
C46 C47 1_555 1_555
C47 C48 1_555 1_555
C54 C55 1_555 1_555
C57 C58 1_555 1_555
C60 N8 1_555 1_555
C62 C63 1_555 1_555
C63 C64 1_555 1_555

#END
