
#######################################################################
#
#                 Cambridge Crystallographic Data Centre
#                                CCDC 
#
#######################################################################
#
# If this CIF has been generated from an entry in the Cambridge 
# Structural Database, then it will include bibliographic, chemical, 
# crystal, experimental, refinement or atomic coordinate data resulting 
# from the CCDC's data processing and validation procedures.
#
#######################################################################

data_JAPRIB
_symmetry_cell_setting           monoclinic
_symmetry_space_group_name_H-M   'P 21/c'
_symmetry_Int_Tables_number      14
_space_group_name_Hall           '-P 2ybc'
loop_
_symmetry_equiv_pos_site_id
_symmetry_equiv_pos_as_xyz
1 x,y,z
2 -x,1/2+y,1/2-z
3 -x,-y,-z
4 x,1/2-y,1/2+z
_cell_length_a                   8.693(5)
_cell_length_b                   12.991(5)
_cell_length_c                   8.110(4)
_cell_angle_alpha                90
_cell_angle_beta                 103.45(4)
_cell_angle_gamma                90
_cell_volume                     890.749
loop_
_atom_site_label
_atom_site_type_symbol
_atom_site_fract_x
_atom_site_fract_y
_atom_site_fract_z
Hg1 Hg 0.1490(1) -0.2660(1) -0.3800(1)
S1 S -0.0204(8) -0.1615(5) -0.2592(10)
O1 O 0.2784(22) -0.1469(12) -0.5728(25)
O2 O 0.4153(25) -0.2242(14) -0.3489(27)
N1 N 0.1878(22) -0.0852(12) 0.0048(26)
C1 C 0.2939(31) -0.0139(19) 0.0919(27)
C2 C 0.3180(30) 0.0775(17) 0.0198(35)
C3 C 0.1394(32) 0.0257(18) -0.2329(38)
C4 C 0.1144(29) -0.0672(17) -0.1493(33)
C5 C 0.2423(33) 0.0986(19) -0.1420(38)
C6 C 0.4084(29) -0.1683(16) -0.4772(34)
C7 C 0.5655(34) -0.1357(21) -0.5131(43)
H1 H 0.5444 -0.1332 -0.6346
H2 H 0.6364 -0.1917 -0.4724
H3 H 0.6130 -0.0722 -0.4669
O1C O 0.2784(22) -0.3531(12) -0.0728(25)
Hg1C Hg 0.1490(1) -0.2340(1) -0.8800(1)
N1C N 0.1878(22) -0.4148(12) -0.4952(26)
Hg1C_2 Hg 0.1490(1) -0.2340(1) 0.1200(1)
loop_
_geom_bond_atom_site_label_1
_geom_bond_atom_site_label_2
_geom_bond_site_symmetry_1
_geom_bond_site_symmetry_2
Hg1 S1 1_555 1_555
S1 C4 1_555 1_555
O1 Hg1 1_555 1_555
O2 Hg1 1_555 1_555
N1 C1 1_555 1_555
C1 C2 1_555 1_555
C2 C5 1_555 1_555
C3 C4 1_555 1_555
C4 N1 1_555 1_555
C5 C3 1_555 1_555
C6 O1 1_555 1_555
C7 C6 1_555 1_555
H1 C7 1_555 1_555
H2 C7 1_555 1_555
H3 C7 1_555 1_555
O1C Hg1 1_555 1_555
Hg1C O1 1_555 1_555
N1C Hg1 1_555 1_555
Hg1C_2 N1 1_555 1_555
O2 C6 1_555 1_555
O1C Hg1C_2 1_555 1_555

#END
