
#######################################################################
#
#                 Cambridge Crystallographic Data Centre
#                                CCDC 
#
#######################################################################
#
# If this CIF has been generated from an entry in the Cambridge 
# Structural Database, then it will include bibliographic, chemical, 
# crystal, experimental, refinement or atomic coordinate data resulting 
# from the CCDC's data processing and validation procedures.
#
#######################################################################

data_JAPSAV
_symmetry_cell_setting           monoclinic
_symmetry_space_group_name_H-M   'P 21/c'
_symmetry_Int_Tables_number      14
_space_group_name_Hall           '-P 2ybc'
loop_
_symmetry_equiv_pos_site_id
_symmetry_equiv_pos_as_xyz
1 x,y,z
2 -x,1/2+y,1/2-z
3 -x,-y,-z
4 x,1/2-y,1/2+z
_cell_length_a                   4.7881(7)
_cell_length_b                   11.9479(17)
_cell_length_c                   13.991(2)
_cell_angle_alpha                90
_cell_angle_beta                 96.431(3)
_cell_angle_gamma                90
_cell_volume                     795.357
loop_
_atom_site_label
_atom_site_type_symbol
_atom_site_fract_x
_atom_site_fract_y
_atom_site_fract_z
Cu1 Cu 0.0000 0.5000 0.5000
Cu2 Cu 0.26718(13) 0.87957(5) 0.38611(4)
P1 P 0.4879(2) 0.64750(9) 0.43053(8)
O1 O 0.1827(6) 0.6198(2) 0.4393(2)
O2 O 0.5296(6) 0.7717(3) 0.4121(2)
O3 O 0.6848(6) 0.6042(2) 0.5158(2)
O4 O 0.6578(7) 0.4586(3) 0.3491(2)
H1 H 0.5366 0.4378 0.3898
C1 C -0.0641(11) 0.5972(4) 0.0950(3)
H2 H -0.2099 0.6025 0.0454
C2 C 0.0980(11) 0.6887(5) 0.1167(3)
H3 H 0.0638 0.7548 0.0823
C3 C 0.3143(11) 0.6826(4) 0.1904(3)
H4 H 0.4279 0.7445 0.2062
C4 C 0.3608(9) 0.5828(4) 0.2411(3)
C5 C 0.1864(10) 0.4947(4) 0.2138(3)
H5 H 0.2154 0.4276 0.2471
N1 N -0.0245(9) 0.4996(3) 0.1415(3)
C6 C 0.5852(9) 0.5746(4) 0.3245(3)
H6 H 0.7541 0.6109 0.3056
Cu1_2 Cu 1.0000 0.5000 0.5000
Cu1_3 Cu -1.0000 0.5000 0.5000
Cu2B Cu -0.26718(13) 0.12043(5) 0.61389(4)
Cu2A Cu -0.26718(13) 0.37957(5) 0.11389(4)
Cu2C Cu 0.26718(13) 0.62043(5) 0.88611(4)
P1B P -0.4879(2) 0.35250(9) 0.56947(8)
O1B O -0.1827(6) 0.3802(2) 0.5607(2)
O2B O -0.5296(6) 0.2283(3) 0.5879(2)
O3B O -0.6848(6) 0.3958(2) 0.4842(2)
O3_2 O -0.3152(6) 0.6042(2) 0.5158(2)
O3B_2 O 0.3152(6) 0.3958(2) 0.4842(2)
O4B O -0.6578(7) 0.5414(3) 0.6509(2)
O4_2 O -0.3422(7) 0.4586(3) 0.3491(2)
O4B_2 O 0.3422(7) 0.5414(3) 0.6509(2)
H1B H -0.5366 0.5622 0.6102
H1_2 H -0.4634 0.4378 0.3898
H1B_2 H 0.4634 0.5622 0.6102
C1B C 0.0641(11) 0.4028(4) 0.9050(3)
H2B H 0.2099 0.3975 0.9546
C2B C -0.0980(11) 0.3113(5) 0.8833(3)
H3B H -0.0638 0.2452 0.9177
C3B C -0.3143(11) 0.3174(4) 0.8096(3)
H4B H -0.4279 0.2555 0.7938
C4B C -0.3608(9) 0.4172(4) 0.7589(3)
C5B C -0.1864(10) 0.5053(4) 0.7862(3)
H5B H -0.2154 0.5724 0.7529
N1B N 0.0245(9) 0.5004(3) 0.8585(3)
N1A N 0.0245(9) 0.9996(3) 0.3585(3)
N1C N -0.0245(9) 0.0004(3) 0.6415(3)
C6B C -0.5852(9) 0.4254(4) 0.6755(3)
H6B H -0.7541 0.3891 0.6944
loop_
_geom_bond_atom_site_label_1
_geom_bond_atom_site_label_2
_geom_bond_site_symmetry_1
_geom_bond_site_symmetry_2
Cu1 O1 1_555 1_555
Cu2 O2 1_555 1_555
P1 O1 1_555 1_555
O2 P1 1_555 1_555
O3 P1 1_555 1_555
O4 H1 1_555 1_555
C1 H2 1_555 1_555
C2 C1 1_555 1_555
H3 C2 1_555 1_555
C3 C2 1_555 1_555
H4 C3 1_555 1_555
C4 C3 1_555 1_555
C5 C4 1_555 1_555
H5 C5 1_555 1_555
N1 C1 1_555 1_555
C6 P1 1_555 1_555
H6 C6 1_555 1_555
Cu1_2 O3 1_555 1_555
Cu1_3 O3B 1_555 1_555
Cu2B O2B 1_555 1_555
Cu2A N1 1_555 1_555
Cu2C N1B 1_555 1_555
P1B O1B 1_555 1_555
O1B Cu1 1_555 1_555
O2B P1B 1_555 1_555
O3B P1B 1_555 1_555
O3_2 Cu1 1_555 1_555
O3B_2 Cu1 1_555 1_555
O4B Cu1_3 1_555 1_555
O4_2 Cu1 1_555 1_555
O4B_2 Cu1 1_555 1_555
H1B O4B 1_555 1_555
H1_2 O4_2 1_555 1_555
H1B_2 O4B_2 1_555 1_555
C1B H2B 1_555 1_555
C2B C1B 1_555 1_555
H3B C2B 1_555 1_555
C3B C2B 1_555 1_555
H4B C3B 1_555 1_555
C4B C3B 1_555 1_555
C5B C4B 1_555 1_555
H5B C5B 1_555 1_555
N1B C1B 1_555 1_555
N1A Cu2 1_555 1_555
N1C Cu2B 1_555 1_555
C6B P1B 1_555 1_555
H6B C6B 1_555 1_555
O4 C6 1_555 1_555
O4 Cu1_2 1_555 1_555
C4 C6 1_555 1_555
C5 N1 1_555 1_555
O4B C6B 1_555 1_555
C4B C6B 1_555 1_555
C5B N1B 1_555 1_555

#END
