
#######################################################################
#
#                 Cambridge Crystallographic Data Centre
#                                CCDC 
#
#######################################################################
#
# If this CIF has been generated from an entry in the Cambridge 
# Structural Database, then it will include bibliographic, chemical, 
# crystal, experimental, refinement or atomic coordinate data resulting 
# from the CCDC's data processing and validation procedures.
#
#######################################################################

data_JARRUQ
_symmetry_cell_setting           triclinic
_symmetry_space_group_name_H-M   'P -1'
_symmetry_Int_Tables_number      2
_space_group_name_Hall           '-P 1'
loop_
_symmetry_equiv_pos_site_id
_symmetry_equiv_pos_as_xyz
1 x,y,z
2 -x,-y,-z
_cell_length_a                   11.0693(1)
_cell_length_b                   11.6639(2)
_cell_length_c                   13.9684(2)
_cell_angle_alpha                84.381(1)
_cell_angle_beta                 72.825(1)
_cell_angle_gamma                70.132(1)
_cell_volume                     1620.49
loop_
_atom_site_label
_atom_site_type_symbol
_atom_site_fract_x
_atom_site_fract_y
_atom_site_fract_z
Tl1 Tl 0.272787(11) 0.390670(11) 0.275359(10)
N1 N 0.6170(2) 0.2135(2) 0.23848(19)
N2 N 0.4129(3) 0.1114(2) 0.2225(2)
N3 N 0.3969(3) 0.3183(2) 0.4417(2)
N4 N 0.6542(3) 0.0164(2) 0.3313(2)
N5 N 0.5079(3) 0.2167(2) 0.4251(2)
N6 N 0.5528(3) 0.3321(2) 0.2197(2)
N7 N 0.4267(3) 0.1267(2) 0.3142(2)
N8 N 1.1732(3) -0.3544(3) 0.3278(3)
C1 C 0.7387(3) 0.1734(3) 0.1712(2)
H1 H 0.8022 0.0941 0.1694
C2 C 0.3859(3) 0.3643(3) 0.5291(2)
C3 C 0.9717(3) -0.1805(3) 0.3520(2)
C4 C 0.5648(3) 0.2009(3) 0.5016(3)
H2 H 0.6427 0.1366 0.5072
C5 C 0.3006(3) 0.0822(3) 0.2423(3)
C6 C 0.6366(3) 0.3641(3) 0.1390(2)
C7 C 0.2854(4) 0.5580(4) 0.6281(3)
H3 H 0.3705 0.5512 0.6349
C8 C 0.5972(3) 0.4860(3) 0.0954(3)
C9 C 0.7554(3) 0.2660(3) 0.1061(3)
H4 H 0.8306 0.2643 0.0509
C10 C 0.2494(3) 0.0638(3) 0.1614(3)
C11 C 0.2432(3) 0.0778(4) 0.3463(3)
H5 H 0.1641 0.0590 0.3798
C12 C 0.2714(3) 0.4707(3) 0.5741(2)
C13 C 0.1434(3) 0.4856(3) 0.5671(3)
H6 H 0.1338 0.4267 0.5301
N9 N 0.0734(4) 0.0300(4) 0.1116(3)
C14 C 0.4928(4) 0.5840(3) 0.1478(3)
H7 H 0.4482 0.5757 0.2163
C15 C 1.2107(4) -0.3039(3) 0.3903(3)
H8 H 1.2930 -0.3468 0.4050
C16 C 1.0152(4) -0.1289(3) 0.4149(3)
H9 H 0.9628 -0.0510 0.4440
C17 C 1.0561(4) -0.2935(3) 0.3098(3)
H10 H 1.0284 -0.3294 0.2655
B1 B 0.5531(3) 0.1444(3) 0.3273(3)
C18 C 0.3255(3) 0.1062(3) 0.3888(3)
H11 H 0.3140 0.1109 0.4586
C19 C 0.6516(3) -0.0869(3) 0.2970(3)
H12 H 0.5804 -0.0948 0.2762
C20 C 0.4904(3) 0.2939(4) 0.5689(3)
H13 H 0.5061 0.3076 0.6294
C21 C 0.4547(5) 0.6944(4) 0.0983(4)
H14 H 0.3831 0.7620 0.1323
C22 C 1.1356(4) -0.1920(4) 0.4350(3)
H15 H 1.1662 -0.1586 0.4789
C23 C 0.1279(4) 0.0438(5) 0.1813(3)
H16 H 0.0799 0.0396 0.2495
C24 C 0.3216(5) 0.0608(6) 0.0633(4)
H17 H 0.4080 0.0690 0.0459
C25 C 0.1402(5) 0.0360(6) 0.0176(4)
H18 H 0.0999 0.0336 -0.0332
C26 C 0.2680(6) 0.0458(8) -0.0106(4)
H19 H 0.3174 0.0422 -0.0792
N10 N 0.7724(3) -0.0041(3) 0.3535(2)
N11 N 0.0340(3) 0.5777(3) 0.6091(3)
C27 C 0.8408(3) -0.1226(3) 0.3328(2)
N12 N 0.6268(4) 0.6132(3) -0.0517(3)
C28 C 0.6615(4) 0.5074(4) -0.0036(3)
H20 H 0.7349 0.4422 -0.0393
C29 C 0.7688(4) -0.1785(3) 0.2971(3)
H21 H 0.7950 -0.2611 0.2775
C30 C 0.5226(5) 0.7041(4) -0.0011(3)
H22 H 0.4938 0.7787 -0.0349
C31 C 0.0507(4) 0.6596(4) 0.6608(3)
H23 H -0.0261 0.7251 0.6921
C32 C 0.1734(4) 0.6545(4) 0.6714(3)
H24 H 0.1801 0.7159 0.7075
Tl1_2 Tl 1.272787(11) -0.609330(11) 0.275359(10)
Tl1A Tl -0.272787(11) 0.609330(11) 0.724641(10)
Tl1A_2 Tl 0.727213(11) 0.609330(11) -0.275359(10)
N8_2 N 0.1732(3) 0.6456(3) 0.3278(3)
N11A N -0.0340(3) 0.4223(3) 0.3909(3)
N12A N 0.3732(4) 0.3868(3) 0.0517(3)
O1 O 0.9411(9) -0.3896(9) 0.0674(7)
O2? O 0.9596(9) -0.4563(9) 0.1116(7)
loop_
_geom_bond_atom_site_label_1
_geom_bond_atom_site_label_2
_geom_bond_site_symmetry_1
_geom_bond_site_symmetry_2
Tl1 N2 1_555 1_555
N1 N6 1_555 1_555
N2 N7 1_555 1_555
N3 Tl1 1_555 1_555
N4 B1 1_555 1_555
N5 N3 1_555 1_555
N6 Tl1 1_555 1_555
N7 Tl1 1_555 1_555
N8 C15 1_555 1_555
C1 N1 1_555 1_555
H1 C1 1_555 1_555
C2 N3 1_555 1_555
C3 C16 1_555 1_555
C4 N5 1_555 1_555
H2 C4 1_555 1_555
C5 N2 1_555 1_555
C6 N6 1_555 1_555
C7 H3 1_555 1_555
C8 C6 1_555 1_555
C9 C1 1_555 1_555
H4 C9 1_555 1_555
C10 C5 1_555 1_555
C11 C5 1_555 1_555
H5 C11 1_555 1_555
C12 C2 1_555 1_555
C13 C12 1_555 1_555
H6 C13 1_555 1_555
N9 C23 1_555 1_555
C14 C8 1_555 1_555
H7 C14 1_555 1_555
C15 H8 1_555 1_555
C16 H9 1_555 1_555
C17 N8 1_555 1_555
H10 C17 1_555 1_555
B1 N1 1_555 1_555
C18 N7 1_555 1_555
H11 C18 1_555 1_555
C19 N4 1_555 1_555
H12 C19 1_555 1_555
C20 C2 1_555 1_555
H13 C20 1_555 1_555
C21 C14 1_555 1_555
H14 C21 1_555 1_555
C22 C15 1_555 1_555
H15 C22 1_555 1_555
C23 C10 1_555 1_555
H16 C23 1_555 1_555
C24 C10 1_555 1_555
H17 C24 1_555 1_555
C25 N9 1_555 1_555
H18 C25 1_555 1_555
C26 C24 1_555 1_555
H19 C26 1_555 1_555
N10 N4 1_555 1_555
N11 C13 1_555 1_555
C27 C3 1_555 1_555
N12 C28 1_555 1_555
C28 C8 1_555 1_555
H20 C28 1_555 1_555
C29 C19 1_555 1_555
H21 C29 1_555 1_555
C30 C21 1_555 1_555
H22 C30 1_555 1_555
C31 N11 1_555 1_555
H23 C31 1_555 1_555
C32 C7 1_555 1_555
H24 C32 1_555 1_555
Tl1_2 N8 1_555 1_555
Tl1A N11 1_555 1_555
Tl1A_2 N12 1_555 1_555
N8_2 Tl1 1_555 1_555
N11A Tl1 1_555 1_555
N12A Tl1 1_555 1_555
N5 B1 1_555 1_555
N7 B1 1_555 1_555
C3 C17 1_555 1_555
C4 C20 1_555 1_555
C6 C9 1_555 1_555
C7 C12 1_555 1_555
C11 C18 1_555 1_555
C16 C22 1_555 1_555
C25 C26 1_555 1_555
N10 C27 1_555 1_555
C27 C29 1_555 1_555
N12 C30 1_555 1_555
C31 C32 1_555 1_555

#END
