
#######################################################################
#
#                 Cambridge Crystallographic Data Centre
#                                CCDC 
#
#######################################################################
#
# If this CIF has been generated from an entry in the Cambridge 
# Structural Database, then it will include bibliographic, chemical, 
# crystal, experimental, refinement or atomic coordinate data resulting 
# from the CCDC's data processing and validation procedures.
#
#######################################################################

data_JARROK
_symmetry_cell_setting           orthorhombic
_symmetry_space_group_name_H-M   'P 21 21 21'
_symmetry_Int_Tables_number      19
_space_group_name_Hall           'P 2ac 2ab'
loop_
_symmetry_equiv_pos_site_id
_symmetry_equiv_pos_as_xyz
1 x,y,z
2 1/2-x,-y,1/2+z
3 1/2+x,1/2-y,-z
4 -x,1/2+y,1/2-z
_cell_length_a                   8.1323(3)
_cell_length_b                   11.8362(3)
_cell_length_c                   35.6666(8)
_cell_angle_alpha                90
_cell_angle_beta                 90
_cell_angle_gamma                90
_cell_volume                     3433.11
loop_
_atom_site_label
_atom_site_type_symbol
_atom_site_fract_x
_atom_site_fract_y
_atom_site_fract_z
Tl1 Tl 0.74827(5) 0.987743(17) 0.061987(8)
N1 N 0.7026(7) 0.9621(5) 0.14101(18)
N2 N 0.4210(7) 0.9951(5) 0.07915(18)
N3 N 0.3096(8) 0.7384(6) -0.0327(2)
C1 C 0.2429(13) 1.1355(5) 0.0892(2)
H1 H 0.1898 1.1986 0.1004
C2 C 0.3086(10) 0.9931(6) 0.0521(2)
N4 N 0.5528(7) 0.9988(5) 0.15334(18)
N5 N 0.3824(7) 1.0832(5) 0.10204(19)
C3 C 0.1939(8) 1.0799(6) 0.0574(3)
H2 H 0.1015 1.0968 0.0421
C4 C 1.0128(10) 0.8429(7) 0.1313(2)
H3 H 1.0141 0.9216 0.1261
C5 C 0.8701(10) 0.7922(7) 0.1464(2)
C6 C 0.4776(10) 0.9170(6) 0.1729(2)
H4 H 0.3721 0.9227 0.1842
C7 C 0.8787(11) 0.6760(7) 0.1532(3)
H5 H 0.7866 0.6363 0.1630
C8 C 0.3113(9) 0.9065(6) 0.0225(3)
B1 B 0.4842(11) 1.1104(7) 0.1366(3)
C9 C 0.5775(9) 0.8234(7) 0.1740(3)
H6 H 0.5561 0.7529 0.1858
N6 N 0.2418(10) 1.1150(4) 0.18122(15)
C10 C 0.2481(14) 0.9261(5) -0.0128(2)
H7 H 0.2014 0.9974 -0.0187
C11 C 0.7359(11) 1.2332(5) 0.1545(2)
H8 H 0.7268 1.2261 0.1809
C12 C 0.2390(12) 1.2984(6) 0.1989(2)
H9 H 0.2068 1.3669 0.2106
N7 N 0.3709(8) 1.1707(5) 0.1653(2)
C13 C 0.1619(10) 1.1920(6) 0.2019(2)
N8 N 0.6821(8) 1.2138(6) 0.09341(19)
C14 C 0.3708(10) 1.2819(6) 0.1753(2)
H10 H 0.4476 1.3376 0.1675
C15 C 0.8213(9) 1.2757(7) 0.0978(2)
N9 N 1.1573(9) 0.6683(6) 0.1305(2)
C16 C 0.8548(9) 1.2899(7) 0.1356(3)
H11 H 0.9435 1.3312 0.1462
N10 N 0.6320(8) 1.1883(5) 0.12856(19)
C17 C 0.3732(10) 0.7993(7) 0.0303(3)
H12 H 0.4167 0.7813 0.0543
C18 C 1.1489(10) 0.7787(7) 0.1242(3)
H13 H 1.2431 0.8153 0.1142
C19 C 1.0243(12) 0.6200(7) 0.1454(3)
H14 H 1.0297 0.5416 0.1510
C20 C 0.9124(8) 1.3196(5) 0.0654(2)
C21 C -0.0692(9) 1.0584(6) 0.2159(2)
H15 H -0.0286 1.0069 0.1977
C22 C 0.0129(9) 1.1592(6) 0.2229(3)
C23 C 1.0335(10) 1.4019(6) 0.0705(2)
H16 H 1.0562 1.4312 0.0947
C24 C -0.0493(10) 1.2320(7) 0.2503(2)
H17 H 0.0029 1.3017 0.2560
C25 C 0.8877(9) 1.2796(6) 0.0293(2)
H18 H 0.8063 1.2239 0.0244
C26 C 0.7196(8) 0.8558(6) 0.1537(2)
N11 N -0.2748(9) 1.1003(6) 0.26182(19)
C27 C -0.2105(9) 1.0343(7) 0.2357(2)
H19 H -0.2656 0.9655 0.2302
N12 N 1.1008(8) 1.4020(6) 0.0052(2)
C28 C 1.1192(11) 1.4398(7) 0.0397(3)
H20 H 1.1980 1.4979 0.0436
C29 C 0.9847(10) 1.3225(6) 0.0001(2)
H21 H 0.9676 1.2941 -0.0245
C30 C -0.1920(10) 1.1973(7) 0.2690(3)
H22 H -0.2339 1.2452 0.2881
C31 C 0.2530(14) 0.8411(6) -0.0398(2)
H23 H 0.2140 0.8575 -0.0643
C32 C 0.3688(12) 0.7184(8) 0.0013(3)
H24 H 0.4110 0.6452 0.0064
Tl1B Tl 0.24827(5) 0.512257(17) -0.061987(8)
Tl1B_2 Tl 1.24827(5) 1.512257(17) -0.061987(8)
N3B N 0.8096(8) 0.7616(6) 0.0327(2)
N12B N 0.6008(8) 1.0980(6) -0.0052(2)
O1 O -0.5580(7) 1.0319(6) 0.30183(19)
C33 C -0.6618(11) 0.9748(9) 0.2750(3)
H25 H -0.7720 0.9651 0.2856
H26 H -0.6149 0.9006 0.2692
H27 H -0.6689 1.0199 0.2520
O2 O 1.4195(8) 0.5811(5) 0.0873(2)
C34 C 1.4909(13) 0.4813(9) 0.0992(4)
H28 H 1.4090 0.4205 0.0984
H29 H 1.5311 0.4903 0.1249
H30 H 1.5830 0.4622 0.0827
loop_
_geom_bond_atom_site_label_1
_geom_bond_atom_site_label_2
_geom_bond_site_symmetry_1
_geom_bond_site_symmetry_2
Tl1 N1 1_555 1_555
N1 N4 1_555 1_555
N2 Tl1 1_555 1_555
N3 C31 1_555 1_555
C1 H1 1_555 1_555
C2 N2 1_555 1_555
N4 C6 1_555 1_555
N5 N2 1_555 1_555
C3 C1 1_555 1_555
H2 C3 1_555 1_555
C4 H3 1_555 1_555
C5 C4 1_555 1_555
C6 H4 1_555 1_555
C7 C5 1_555 1_555
H5 C7 1_555 1_555
C8 C2 1_555 1_555
B1 N4 1_555 1_555
C9 C6 1_555 1_555
H6 C9 1_555 1_555
N6 N7 1_555 1_555
C10 C8 1_555 1_555
H7 C10 1_555 1_555
C11 H8 1_555 1_555
C12 H9 1_555 1_555
N7 B1 1_555 1_555
C13 N6 1_555 1_555
N8 Tl1 1_555 1_555
C14 C12 1_555 1_555
H10 C14 1_555 1_555
C15 N8 1_555 1_555
N9 C18 1_555 1_555
C16 C11 1_555 1_555
H11 C16 1_555 1_555
N10 B1 1_555 1_555
C17 C8 1_555 1_555
H12 C17 1_555 1_555
C18 C4 1_555 1_555
H13 C18 1_555 1_555
C19 C7 1_555 1_555
H14 C19 1_555 1_555
C20 C15 1_555 1_555
C21 H15 1_555 1_555
C22 C13 1_555 1_555
C23 C20 1_555 1_555
H16 C23 1_555 1_555
C24 C22 1_555 1_555
H17 C24 1_555 1_555
C25 C20 1_555 1_555
H18 C25 1_555 1_555
C26 N1 1_555 1_555
N11 C27 1_555 1_555
C27 C21 1_555 1_555
H19 C27 1_555 1_555
N12 C28 1_555 1_555
C28 C23 1_555 1_555
H20 C28 1_555 1_555
C29 C25 1_555 1_555
H21 C29 1_555 1_555
C30 C24 1_555 1_555
H22 C30 1_555 1_555
C31 C10 1_555 1_555
H23 C31 1_555 1_555
C32 N3 1_555 1_555
H24 C32 1_555 1_555
O1 C33 1_555 1_555
C33 H25 1_555 1_555
H26 C33 1_555 1_555
H27 C33 1_555 1_555
O2 C34 1_555 1_555
C34 H28 1_555 1_555
H29 C34 1_555 1_555
H30 C34 1_555 1_555
Tl1B N3 1_555 1_555
Tl1B_2 N12 1_555 1_555
N3B Tl1 1_555 1_555
N12B Tl1 1_555 1_555
C1 N5 1_555 1_555
C2 C3 1_555 1_555
N5 B1 1_555 1_555
C5 C26 1_555 1_555
C9 C26 1_555 1_555
C11 N10 1_555 1_555
C12 C13 1_555 1_555
N7 C14 1_555 1_555
N8 N10 1_555 1_555
C15 C16 1_555 1_555
N9 C19 1_555 1_555
C17 C32 1_555 1_555
C21 C22 1_555 1_555
N11 C30 1_555 1_555
N12 C29 1_555 1_555

#END
