
#######################################################################
#
#                 Cambridge Crystallographic Data Centre
#                                CCDC 
#
#######################################################################
#
# If this CIF has been generated from an entry in the Cambridge 
# Structural Database, then it will include bibliographic, chemical, 
# crystal, experimental, refinement or atomic coordinate data resulting 
# from the CCDC's data processing and validation procedures.
#
#######################################################################

data_JAVMEY
_symmetry_cell_setting           triclinic
_symmetry_space_group_name_H-M   'P -1'
_symmetry_Int_Tables_number      2
_space_group_name_Hall           '-P 1'
loop_
_symmetry_equiv_pos_site_id
_symmetry_equiv_pos_as_xyz
1 x,y,z
2 -x,-y,-z
_cell_length_a                   6.028(2)
_cell_length_b                   7.610(3)
_cell_length_c                   10.052(4)
_cell_angle_alpha                92.81(3)
_cell_angle_beta                 101.08(2)
_cell_angle_gamma                94.64(3)
_cell_volume                     450.054
loop_
_atom_site_label
_atom_site_type_symbol
_atom_site_fract_x
_atom_site_fract_y
_atom_site_fract_z
Zn1 Zn 0.2365(1) 0.0512(1) 0.4526(1)
N1 N 0.5021(4) 0.1138(4) 0.6046(3)
N2 N 0.4898(5) 0.1790(4) 0.7141(3)
N3 N 0.4802(6) 0.2416(5) 0.8179(3)
N4 N 0.0129(4) -0.1605(4) 0.4500(3)
N5 N 0.0320(5) -0.3050(4) 0.4018(3)
N6 N 0.0535(6) -0.4405(4) 0.3551(4)
N7 N 0.1669(5) 0.1619(4) 0.2729(3)
C1 C 0.3053(6) 0.2756(5) 0.2234(4)
C2 C 0.2396(7) 0.3328(5) 0.0939(4)
C3 C 0.0304(7) 0.2787(5) 0.0179(4)
C4 C -0.1141(7) 0.1657(6) 0.0706(4)
C5 C -0.0403(6) 0.1090(5) 0.1961(4)
C6 C 0.5215(7) 0.3398(6) 0.3134(5)
H1 H 0.3561(7) 0.4200(5) 0.0528(4)
H2 H -0.0214(7) 0.3258(5) -0.0819(4)
H3 H -0.2820(7) 0.1225(6) 0.0137(4)
H4 H -0.1514(6) 0.0169(5) 0.2370(4)
H5 H 0.6233(49) 0.4047(46) 0.2478(31)
H6 H 0.6180(51) 0.2392(37) 0.3597(35)
H7 H 0.4998(67) 0.4306(48) 0.3948(32)
N1A N 0.4979(4) -0.1138(4) 0.3954(3)
N4A N -0.0129(4) 0.1605(4) 0.5500(3)
Zn1A Zn 0.7635(1) -0.0512(1) 0.5474(1)
Zn1A_2 Zn -0.2365(1) -0.0512(1) 0.5474(1)
N2A N 0.5102(5) -0.1790(4) 0.2859(3)
N5A N -0.0320(5) 0.3050(4) 0.5982(3)
N4_2 N 1.0129(4) -0.1605(4) 0.4500(3)
N4A_2 N 0.9871(4) 0.1605(4) 0.5500(3)
N7A N 0.8331(5) -0.1619(4) 0.7271(3)
N3A N 0.5198(6) -0.2416(5) 0.1821(3)
N6A N -0.0535(6) 0.4405(4) 0.6449(4)
C1A C 0.6947(6) -0.2756(5) 0.7766(4)
C5A C 1.0403(6) -0.1090(5) 0.8039(4)
C2A C 0.7604(7) -0.3328(5) 0.9061(4)
C6A C 0.4785(7) -0.3398(6) 0.6866(5)
C4A C 1.1141(7) -0.1657(6) 0.9294(4)
H4A H 1.1514(6) -0.0169(5) 0.7630(4)
C3A C 0.9696(7) -0.2787(5) 0.9821(4)
H1A H 0.6439(7) -0.4200(5) 0.9472(4)
H5A H 0.3767(49) -0.4047(46) 0.7522(31)
H6A H 0.3820(51) -0.2392(37) 0.6403(35)
H7A H 0.5002(67) -0.4306(48) 0.6052(32)
H3A H 1.2820(7) -0.1225(6) 0.9863(4)
H2A H 1.0214(7) -0.3258(5) 1.0819(4)
loop_
_geom_bond_atom_site_label_1
_geom_bond_atom_site_label_2
_geom_bond_site_symmetry_1
_geom_bond_site_symmetry_2
Zn1 N1 1_555 1_555
N1 N2 1_555 1_555
N2 N3 1_555 1_555
N4 Zn1 1_555 1_555
N5 N4 1_555 1_555
N6 N5 1_555 1_555
N7 Zn1 1_555 1_555
C1 N7 1_555 1_555
C2 C1 1_555 1_555
C3 C2 1_555 1_555
C4 C3 1_555 1_555
C5 N7 1_555 1_555
C6 C1 1_555 1_555
H1 C2 1_555 1_555
H2 C3 1_555 1_555
H3 C4 1_555 1_555
H4 C5 1_555 1_555
H5 C6 1_555 1_555
H6 C6 1_555 1_555
H7 C6 1_555 1_555
N1A Zn1 1_555 1_555
N4A Zn1 1_555 1_555
Zn1A N1 1_555 1_555
Zn1A_2 N4 1_555 1_555
N2A N1A 1_555 1_555
N5A N4A 1_555 1_555
N4_2 Zn1A 1_555 1_555
N4A_2 Zn1A 1_555 1_555
N7A Zn1A 1_555 1_555
N3A N2A 1_555 1_555
N6A N5A 1_555 1_555
C1A N7A 1_555 1_555
C5A N7A 1_555 1_555
C2A C1A 1_555 1_555
C6A C1A 1_555 1_555
C4A C5A 1_555 1_555
H4A C5A 1_555 1_555
C3A C2A 1_555 1_555
H1A C2A 1_555 1_555
H5A C6A 1_555 1_555
H6A C6A 1_555 1_555
H7A C6A 1_555 1_555
H3A C4A 1_555 1_555
H2A C3A 1_555 1_555
C4 C5 1_555 1_555
N1A Zn1A 1_555 1_555
N4A Zn1A_2 1_555 1_555
C4A C3A 1_555 1_555

#END
