
#######################################################################
#
#                 Cambridge Crystallographic Data Centre
#                                CCDC 
#
#######################################################################
#
# If this CIF has been generated from an entry in the Cambridge 
# Structural Database, then it will include bibliographic, chemical, 
# crystal, experimental, refinement or atomic coordinate data resulting 
# from the CCDC's data processing and validation procedures.
#
#######################################################################

data_JAVQED
_symmetry_cell_setting           monoclinic
_symmetry_space_group_name_H-M   'C 2/c'
_symmetry_Int_Tables_number      15
_space_group_name_Hall           '-C 2yn'
loop_
_symmetry_equiv_pos_site_id
_symmetry_equiv_pos_as_xyz
1 x,y,z
2 1/2+x,1/2+y,z
3 -x,y,1/2-z
4 1/2-x,1/2+y,1/2-z
5 -x,-y,-z
6 1/2-x,1/2-y,-z
7 x,-y,1/2+z
8 1/2+x,1/2-y,1/2+z
_cell_length_a                   22.1574(4)
_cell_length_b                   10.1982(2)
_cell_length_c                   30.7709(2)
_cell_angle_alpha                90
_cell_angle_beta                 102.3600(10)
_cell_angle_gamma                90
_cell_volume                     6792
loop_
_atom_site_label
_atom_site_type_symbol
_atom_site_fract_x
_atom_site_fract_y
_atom_site_fract_z
Cd1 Cd 0.086751(11) 0.32687(2) 0.475781(8)
Cd2 Cd 0.029870(11) 0.32126(2) 0.697600(8)
O1 O 0.13541(13) 0.3496(2) 0.42132(8)
O2 O 0.08633(11) 0.4515(2) 0.53818(8)
O3 O 0.01653(12) 0.4737(3) 0.43301(9)
N1 N 0.12548(12) 0.1126(3) 0.49008(9)
N2 N 0.00757(12) 0.1718(3) 0.44636(9)
O4 O 0.17758(14) 0.3695(3) 0.53960(11)
O5 O 0.09581(12) 0.4690(3) 0.68638(8)
N3 N 0.07733(13) 0.1271(3) 0.72814(9)
N4 N -0.02975(13) 0.1428(3) 0.66443(9)
O6 O 0.05049(10) 0.5410(2) 0.34340(8)
O7 O 0.06310(12) 0.6164(2) 0.27907(8)
O8 O 0.15163(12) 0.5668(2) 0.42435(8)
O9 O 0.09874(14) 0.3362(3) 0.63071(9)
C1 C 0.08582(15) 0.0121(3) 0.47625(10)
C2 C 0.04997(16) 0.0136(3) 0.71098(11)
C3 C 0.02361(15) 0.0429(3) 0.45277(10)
C4 C 0.14640(15) 0.4926(3) 0.32266(11)
C5 C 0.15108(15) 0.4575(4) 0.40644(11)
C6 C 0.17183(14) 0.5291(3) 0.59417(11)
C7 C 0.21578(16) 0.6161(4) 0.58465(12)
H1 H 0.2275 0.6099 0.5574
C8 C 0.15656(14) 0.5360(3) 0.63581(11)
C9 C 0.14340(17) 0.4399(3) 0.55591(11)
C10 C -0.08346(17) 0.1503(4) 0.63544(12)
H2 H -0.0988 0.2326 0.6258
C11 C -0.01701(16) -0.0594(3) 0.43611(11)
C12 C 0.24246(16) 0.7115(4) 0.61466(13)
H3 H 0.2711 0.7696 0.6074
C13 C 0.12821(18) -0.1127(4) 0.75887(13)
H4 H 0.1457 -0.1925 0.7695
C14 C 0.15483(18) 0.0008(4) 0.77577(13)
H5 H 0.1907 -0.0004 0.7979
C15 C 0.06079(18) -0.2218(4) 0.46582(12)
H6 H 0.0729 -0.3089 0.4706
C16 C 0.08287(16) 0.5538(3) 0.31459(11)
C17 C -0.07566(16) -0.0266(4) 0.41175(12)
H7 H -0.1039 -0.0921 0.4004
C18 C 0.17528(16) 0.4798(4) 0.28710(12)
H8 H 0.1561 0.5128 0.2594
C19 C 0.12819(17) 0.1191(4) 0.75981(12)
H9 H 0.1469 0.1964 0.7719
C20 C -0.09123(17) 0.1014(4) 0.40470(13)
H10 H -0.1299 0.1246 0.3880
C21 C 0.10414(17) -0.1191(4) 0.48163(11)
C22 C 0.17531(15) 0.4435(3) 0.36433(11)
C23 C 0.11343(15) 0.4387(3) 0.65113(11)
C24 C -0.04878(17) 0.1978(4) 0.42279(13)
H11 H -0.0605 0.2851 0.4181
C25 C 0.16649(18) -0.1452(4) 0.50093(13)
H12 H 0.1805 -0.2313 0.5047
C26 C 0.18375(17) 0.0841(4) 0.50841(12)
H13 H 0.2110 0.1528 0.5179
C27 C -0.11749(17) 0.0399(4) 0.61905(12)
H14 H -0.1558 0.0494 0.5999
C28 C 0.00300(18) -0.1936(4) 0.44426(12)
H15 H -0.0246 -0.2614 0.4344
C29 C 0.20622(18) -0.0440(4) 0.51410(13)
H16 H 0.2476 -0.0598 0.5267
C30 C 0.07415(17) -0.1103(4) 0.72520(12)
C31 C -0.00717(15) 0.0214(3) 0.67774(11)
C32 C -0.03761(17) -0.0939(3) 0.66133(12)
C33 C -0.09513(18) -0.0819(4) 0.63087(12)
H17 H -0.1172 -0.1561 0.6192
C34 C 0.23234(17) 0.3797(4) 0.36830(13)
H18 H 0.2518 0.3450 0.3957
C35 C 0.18409(15) 0.6323(3) 0.66573(11)
H19 H 0.1737 0.6378 0.6934
C36 C 0.23196(17) 0.4189(4) 0.29197(13)
H20 H 0.2510 0.4127 0.2679
C37 C 0.26012(18) 0.3674(4) 0.33265(14)
H21 H 0.2978 0.3244 0.3360
C38 C -0.0106(2) -0.2186(4) 0.67548(14)
H22 H -0.0301 -0.2950 0.6633
C39 C 0.0425(2) -0.2267(4) 0.70598(14)
H23 H 0.0590 -0.3086 0.7149
C40 C 0.22647(16) 0.7197(4) 0.65530(13)
H24 H 0.2440 0.7837 0.6756
Cd2D Cd -0.029870(11) 0.67874(2) 0.302400(8)
Cd2F Cd 0.029870(11) 0.67874(2) 0.197600(8)
O6D O -0.05049(10) 0.4590(2) 0.65660(8)
O7F O 0.06310(12) 0.3836(2) 0.77907(8)
O7D O -0.06310(12) 0.3836(2) 0.72093(8)
loop_
_geom_bond_atom_site_label_1
_geom_bond_atom_site_label_2
_geom_bond_site_symmetry_1
_geom_bond_site_symmetry_2
Cd1 O1 1_555 1_555
Cd2 O5 1_555 1_555
O1 C5 1_555 1_555
O2 Cd1 1_555 1_555
O3 Cd1 1_555 1_555
N1 Cd1 1_555 1_555
N2 Cd1 1_555 1_555
O4 Cd1 1_555 1_555
O5 C23 1_555 1_555
N3 Cd2 1_555 1_555
N4 Cd2 1_555 1_555
O6 C16 1_555 1_555
O7 C16 1_555 1_555
O8 C5 1_555 1_555
O9 C23 1_555 1_555
C1 N1 1_555 1_555
C2 N3 1_555 1_555
C3 N2 1_555 1_555
C4 C16 1_555 1_555
C5 C22 1_555 1_555
C6 C7 1_555 1_555
C7 H1 1_555 1_555
C8 C6 1_555 1_555
C9 O2 1_555 1_555
C10 N4 1_555 1_555
H2 C10 1_555 1_555
C11 C3 1_555 1_555
C12 C7 1_555 1_555
H3 C12 1_555 1_555
C13 H4 1_555 1_555
C14 C13 1_555 1_555
H5 C14 1_555 1_555
C15 H6 1_555 1_555
C17 C11 1_555 1_555
H7 C17 1_555 1_555
C18 C4 1_555 1_555
H8 C18 1_555 1_555
C19 N3 1_555 1_555
H9 C19 1_555 1_555
C20 C17 1_555 1_555
H10 C20 1_555 1_555
C21 C1 1_555 1_555
C22 C4 1_555 1_555
C23 C8 1_555 1_555
C24 N2 1_555 1_555
H11 C24 1_555 1_555
C25 C21 1_555 1_555
H12 C25 1_555 1_555
C26 N1 1_555 1_555
H13 C26 1_555 1_555
C27 C10 1_555 1_555
H14 C27 1_555 1_555
C28 C11 1_555 1_555
H15 C28 1_555 1_555
C29 C25 1_555 1_555
H16 C29 1_555 1_555
C30 C2 1_555 1_555
C31 N4 1_555 1_555
C32 C31 1_555 1_555
C33 C27 1_555 1_555
H17 C33 1_555 1_555
C34 C22 1_555 1_555
H18 C34 1_555 1_555
C35 C8 1_555 1_555
H19 C35 1_555 1_555
C36 C18 1_555 1_555
H20 C36 1_555 1_555
C37 C34 1_555 1_555
H21 C37 1_555 1_555
C38 C32 1_555 1_555
H22 C38 1_555 1_555
C39 C30 1_555 1_555
H23 C39 1_555 1_555
C40 C12 1_555 1_555
H24 C40 1_555 1_555
Cd2D O6 1_555 1_555
Cd2F O7 1_555 1_555
O6D Cd2 1_555 1_555
O7F Cd2 1_555 1_555
O7D Cd2 1_555 1_555
O4 C9 1_555 1_555
O7 Cd2D 1_555 1_555
C1 C3 1_555 1_555
C2 C31 1_555 1_555
C6 C9 1_555 1_555
C13 C30 1_555 1_555
C14 C19 1_555 1_555
C15 C21 1_555 1_555
C15 C28 1_555 1_555
C20 C24 1_555 1_555
C26 C29 1_555 1_555
C32 C33 1_555 1_555
C35 C40 1_555 1_555
C36 C37 1_555 1_555
C38 C39 1_555 1_555

#END
