
#######################################################################
#
#                 Cambridge Crystallographic Data Centre
#                                CCDC 
#
#######################################################################
#
# If this CIF has been generated from an entry in the Cambridge 
# Structural Database, then it will include bibliographic, chemical, 
# crystal, experimental, refinement or atomic coordinate data resulting 
# from the CCDC's data processing and validation procedures.
#
#######################################################################

data_JAVQIH01
_symmetry_cell_setting           orthorhombic
_symmetry_space_group_name_H-M   'P b c m'
_symmetry_Int_Tables_number      57
_space_group_name_Hall           '-P 2c 2b'
loop_
_symmetry_equiv_pos_site_id
_symmetry_equiv_pos_as_xyz
1 x,y,z
2 -x,-y,1/2+z
3 -x,1/2+y,1/2-z
4 x,1/2-y,-z
5 -x,-y,-z
6 x,y,1/2-z
7 x,1/2-y,1/2+z
8 -x,1/2+y,z
_cell_length_a                   6.4978(8)
_cell_length_b                   6.9475(9)
_cell_length_c                   18.319(2)
_cell_angle_alpha                90
_cell_angle_beta                 90
_cell_angle_gamma                90
_cell_volume                     826.983
loop_
_atom_site_label
_atom_site_type_symbol
_atom_site_fract_x
_atom_site_fract_y
_atom_site_fract_z
Cd1 Cd 0.84601(3) 0.7500 0.5000
O1 O 0.8284(2) 0.43855(19) 0.55354(6)
O2 O 1.1052(2) 0.3514(2) 0.61456(7)
O3 O 0.5002(4) 0.7500 0.5000
H1 H 0.4216 0.8248 0.5286
C1 C 0.9229(3) 0.4104(2) 0.61364(9)
C2 C 0.8137(3) 0.4433(2) 0.68428(9)
C3 C 0.6102(3) 0.5064(3) 0.68466(10)
H2 H 0.5422 0.5281 0.6408
C4 C 0.5090(4) 0.5369(4) 0.7500
H3 H 0.3728 0.5780 0.7500
C5 C 0.9154(4) 0.4104(3) 0.7500
H4 H 1.0507 0.3668 0.7500
Cd1G Cd 1.15399(3) 0.2500 0.5000
Cd1E Cd 0.84601(3) 0.7500 1.0000
Cd1A Cd 1.15399(3) 0.2500 1.0000
O1E O 0.8284(2) 0.43855(19) 0.94646(6)
O1C O 0.8284(2) 1.06145(19) 0.44646(6)
O2E O 1.1052(2) 0.3514(2) 0.88544(7)
O2G O 0.8948(2) 0.8514(2) 0.61456(7)
O2D O 0.8948(2) 0.6486(2) 0.38544(7)
H1C H 0.4216 0.6752 0.4714
C1E C 0.9229(3) 0.4104(2) 0.88636(9)
C2E C 0.8137(3) 0.4433(2) 0.81572(9)
C3E C 0.6102(3) 0.5064(3) 0.81534(10)
H2E H 0.5422 0.5281 0.8592
loop_
_geom_bond_atom_site_label_1
_geom_bond_atom_site_label_2
_geom_bond_site_symmetry_1
_geom_bond_site_symmetry_2
Cd1 O1 1_555 1_555
O1 C1 1_555 1_555
O2 C1 1_555 1_555
O3 Cd1 1_555 1_555
H1 O3 1_555 1_555
C1 C2 1_555 1_555
C2 C3 1_555 1_555
C3 H2 1_555 1_555
C4 C3 1_555 1_555
H3 C4 1_555 1_555
C5 C2 1_555 1_555
H4 C5 1_555 1_555
Cd1G O2 1_555 1_555
Cd1E O1E 1_555 1_555
Cd1A O2E 1_555 1_555
O1E C1E 1_555 1_555
O1C Cd1 1_555 1_555
O2E C1E 1_555 1_555
O2G Cd1 1_555 1_555
O2D Cd1 1_555 1_555
H1C O3 1_555 1_555
C1E C2E 1_555 1_555
C2E C5 1_555 1_555
C3E C4 1_555 1_555
H2E C3E 1_555 1_555
C2E C3E 1_555 1_555

#END
