
#######################################################################
#
#                 Cambridge Crystallographic Data Centre
#                                CCDC 
#
#######################################################################
#
# If this CIF has been generated from an entry in the Cambridge 
# Structural Database, then it will include bibliographic, chemical, 
# crystal, experimental, refinement or atomic coordinate data resulting 
# from the CCDC's data processing and validation procedures.
#
#######################################################################

data_JAVQAZ
_symmetry_cell_setting           monoclinic
_symmetry_space_group_name_H-M   'P 21/n'
_symmetry_Int_Tables_number      14
_space_group_name_Hall           '-P 2yn'
loop_
_symmetry_equiv_pos_site_id
_symmetry_equiv_pos_as_xyz
1 x,y,z
2 1/2-x,1/2+y,1/2-z
3 -x,-y,-z
4 1/2+x,1/2-y,1/2+z
_cell_length_a                   9.8105(2)
_cell_length_b                   9.9054(2)
_cell_length_c                   17.7854(2)
_cell_angle_alpha                90
_cell_angle_beta                 101.7710(10)
_cell_angle_gamma                90
_cell_volume                     1691.99
loop_
_atom_site_label
_atom_site_type_symbol
_atom_site_fract_x
_atom_site_fract_y
_atom_site_fract_z
Cd1 Cd 0.22575(3) 0.19438(3) 0.340285(15)
N1 N 0.3887(3) 0.2359(3) 0.45198(17)
N2 N 0.1991(3) 0.0325(3) 0.43394(17)
O1 O 0.0304(3) 0.3090(3) 0.33974(18)
O2 O 0.1186(3) 0.0470(3) 0.23995(15)
O3 O 0.1385(3) 0.7706(3) 0.24951(17)
O4 O 0.0776(3) 0.5759(3) 0.19463(15)
O5 O 0.1915(3) 0.4679(3) 0.35194(15)
C1 C -0.0465(4) 0.6478(4) 0.2875(2)
C2 C 0.2849(4) 0.0453(3) 0.5039(2)
C3 C 0.4879(4) 0.3298(4) 0.4555(2)
H1 H 0.4822 0.3890 0.4144
C4 C 0.3965(4) 0.1493(4) 0.5109(2)
C5 C 0.0683(4) 0.4315(4) 0.3426(2)
C6 C 0.0635(4) 0.6657(4) 0.2404(2)
C7 C 0.1008(4) -0.0638(4) 0.4248(2)
H2 H 0.0426 -0.0736 0.3768
C8 C 0.0820(4) -0.1489(4) 0.4832(3)
H3 H 0.0138 -0.2154 0.4745
C9 C 0.2690(4) -0.0368(4) 0.5652(2)
H4 H 0.3276 -0.0265 0.6130
C10 C 0.5972(4) 0.3430(4) 0.5166(2)
H5 H 0.6642 0.4095 0.5170
C11 C -0.0473(4) 0.5352(3) 0.3336(2)
C12 C -0.1568(4) 0.7399(4) 0.2787(2)
H6 H -0.1568 0.8153 0.2476
C13 C -0.1571(4) 0.5190(4) 0.3718(3)
H7 H -0.1576 0.4450 0.4040
C14 C 0.6054(4) 0.2554(4) 0.5772(2)
H8 H 0.6779 0.2625 0.6198
C15 C 0.5058(4) 0.1573(4) 0.5744(2)
H9 H 0.5113 0.0964 0.6147
C16 C -0.2639(4) 0.6099(5) 0.3628(3)
H10 H -0.3361 0.5974 0.3888
C17 C -0.2651(4) 0.7196(5) 0.3157(3)
H11 H -0.3391 0.7801 0.3087
C18 C 0.1659(5) -0.1334(4) 0.5542(3)
H12 H 0.1532 -0.1877 0.5949
Cd1A Cd 0.27425(3) 0.69438(3) 0.159715(15)
O3A O 0.3615(3) 0.2706(3) 0.25049(17)
O4A O 0.4224(3) 0.0759(3) 0.30537(15)
loop_
_geom_bond_atom_site_label_1
_geom_bond_atom_site_label_2
_geom_bond_site_symmetry_1
_geom_bond_site_symmetry_2
Cd1 N1 1_555 1_555
N1 C3 1_555 1_555
N2 Cd1 1_555 1_555
O1 Cd1 1_555 1_555
O2 Cd1 1_555 1_555
O3 C6 1_555 1_555
O4 C6 1_555 1_555
O5 Cd1 1_555 1_555
C1 C6 1_555 1_555
C2 N2 1_555 1_555
C3 H1 1_555 1_555
C4 N1 1_555 1_555
C5 O1 1_555 1_555
C7 N2 1_555 1_555
H2 C7 1_555 1_555
C8 C7 1_555 1_555
H3 C8 1_555 1_555
C9 C2 1_555 1_555
H4 C9 1_555 1_555
C10 C3 1_555 1_555
H5 C10 1_555 1_555
C11 C1 1_555 1_555
C12 C1 1_555 1_555
H6 C12 1_555 1_555
C13 C11 1_555 1_555
H7 C13 1_555 1_555
C14 C10 1_555 1_555
H8 C14 1_555 1_555
C15 C4 1_555 1_555
H9 C15 1_555 1_555
C16 C13 1_555 1_555
H10 C16 1_555 1_555
C17 C12 1_555 1_555
H11 C17 1_555 1_555
C18 C8 1_555 1_555
H12 C18 1_555 1_555
Cd1A O3 1_555 1_555
O3A Cd1 1_555 1_555
O4A Cd1 1_555 1_555
O4 Cd1A 1_555 1_555
O5 C5 1_555 1_555
C2 C4 1_555 1_555
C5 C11 1_555 1_555
C9 C18 1_555 1_555
C14 C15 1_555 1_555
C16 C17 1_555 1_555

#END
