
#######################################################################
#
#                 Cambridge Crystallographic Data Centre
#                                CCDC 
#
#######################################################################
#
# If this CIF has been generated from an entry in the Cambridge 
# Structural Database, then it will include bibliographic, chemical, 
# crystal, experimental, refinement or atomic coordinate data resulting 
# from the CCDC's data processing and validation procedures.
#
#######################################################################

data_JAWGUK01
_symmetry_cell_setting           monoclinic
_symmetry_space_group_name_H-M   'C 2/c'
_symmetry_Int_Tables_number      15
_space_group_name_Hall           '-C 2yn'
loop_
_symmetry_equiv_pos_site_id
_symmetry_equiv_pos_as_xyz
1 x,y,z
2 1/2+x,1/2+y,z
3 -x,y,1/2-z
4 1/2-x,1/2+y,1/2-z
5 -x,-y,-z
6 1/2-x,1/2-y,-z
7 x,-y,1/2+z
8 1/2+x,1/2-y,1/2+z
_cell_length_a                   21.477(6)
_cell_length_b                   12.339(3)
_cell_length_c                   9.335(2)
_cell_angle_alpha                90
_cell_angle_beta                 111.306(3)
_cell_angle_gamma                90
_cell_volume                     2304.74
loop_
_atom_site_label
_atom_site_type_symbol
_atom_site_fract_x
_atom_site_fract_y
_atom_site_fract_z
Pb1 Pb 1.0000 0.007980(12) 0.7500
F1 F 0.75259(11) 0.0603(3) 0.6888(3)
F2 F 0.73460(13) -0.0771(2) 0.5435(4)
F3 F 0.70483(11) 0.0801(3) 0.4482(3)
F4 F 0.83092(10) 0.25683(17) 0.2114(2)
F5 F 0.93590(11) 0.23136(18) 0.2628(3)
F6 F 0.90294(12) 0.32515(17) 0.4157(3)
N1 N 0.94798(13) 0.1759(2) 0.8010(3)
O1 O 0.86525(13) -0.0258(2) 0.6254(3)
O2 O 0.94110(11) 0.08215(18) 0.4684(3)
C1 C 0.7528(2) 0.0254(3) 0.5543(5)
C2 C 0.82252(17) 0.0389(3) 0.5446(4)
C3 C 0.82921(16) 0.1217(3) 0.4487(4)
H1 H 0.7927 0.1691 0.4011
C4 C 0.88826(16) 0.1359(3) 0.4217(4)
C5 C 0.88891(17) 0.2369(3) 0.3237(4)
C6 C 0.89942(17) 0.1748(3) 0.8565(4)
H2 H 0.8822 0.1069 0.8729
C7 C 0.87239(18) 0.2697(3) 0.8920(4)
H3 H 0.8378 0.2662 0.9327
C8 C 0.89653(18) 0.3675(3) 0.8672(4)
H4 H 0.8784 0.4328 0.8894
C9 C 0.94834(17) 0.3714(3) 0.8087(4)
C10 C 0.97299(16) 0.2730(3) 0.7780(4)
C11 C 0.9754(2) 0.4704(3) 0.7792(6)
H5 H 0.9588 0.5373 0.8009
Pb1F Pb 1.0000 -0.007980(12) 0.2500
Pb1F_2 Pb 1.0000 -0.007980(12) 1.2500
F1B F 1.24741(11) 0.0603(3) 0.8112(3)
F2B F 1.26540(13) -0.0771(2) 0.9565(4)
F3B F 1.29517(11) 0.0801(3) 1.0518(3)
F4B F 1.16908(10) 0.25683(17) 1.2886(2)
F5B F 1.06410(11) 0.23136(18) 1.2372(3)
F6B F 1.09706(12) 0.32515(17) 1.0843(3)
N1B N 1.05202(13) 0.1759(2) 0.6990(3)
O1B O 1.13475(13) -0.0258(2) 0.8746(3)
O2B O 1.05890(11) 0.08215(18) 1.0316(3)
O2F O 0.94110(11) -0.08215(18) 0.9684(3)
O2D O 1.05890(11) -0.08215(18) 0.5316(3)
C1B C 1.2472(2) 0.0254(3) 0.9457(5)
C2B C 1.17748(17) 0.0389(3) 0.9554(4)
C3B C 1.17079(16) 0.1217(3) 1.0513(4)
H1B H 1.2073 0.1691 1.0989
C4B C 1.11174(16) 0.1359(3) 1.0783(4)
C5B C 1.11109(17) 0.2369(3) 1.1763(4)
C6B C 1.10058(17) 0.1748(3) 0.6435(4)
H2B H 1.1178 0.1069 0.6271
C7B C 1.12761(18) 0.2697(3) 0.6080(4)
H3B H 1.1622 0.2662 0.5673
C8B C 1.10347(18) 0.3675(3) 0.6328(4)
H4B H 1.1216 0.4328 0.6106
C9B C 1.05166(17) 0.3714(3) 0.6913(4)
C10B C 1.02701(16) 0.2730(3) 0.7220(4)
C11B C 1.0246(2) 0.4704(3) 0.7208(6)
H5B H 1.0412 0.5373 0.6991
loop_
_geom_bond_atom_site_label_1
_geom_bond_atom_site_label_2
_geom_bond_site_symmetry_1
_geom_bond_site_symmetry_2
Pb1 N1 1_555 1_555
F1 C1 1_555 1_555
F2 C1 1_555 1_555
F3 C1 1_555 1_555
F4 C5 1_555 1_555
F5 C5 1_555 1_555
F6 C5 1_555 1_555
N1 C6 1_555 1_555
O1 Pb1 1_555 1_555
O2 Pb1 1_555 1_555
C1 C2 1_555 1_555
C2 O1 1_555 1_555
C3 C2 1_555 1_555
H1 C3 1_555 1_555
C4 O2 1_555 1_555
C5 C4 1_555 1_555
C6 H2 1_555 1_555
C7 C6 1_555 1_555
H3 C7 1_555 1_555
C8 C7 1_555 1_555
H4 C8 1_555 1_555
C9 C8 1_555 1_555
C10 N1 1_555 1_555
C11 C9 1_555 1_555
H5 C11 1_555 1_555
Pb1F O2 1_555 1_555
Pb1F_2 O2B 1_555 1_555
F1B C1B 1_555 1_555
F2B C1B 1_555 1_555
F3B C1B 1_555 1_555
F4B C5B 1_555 1_555
F5B C5B 1_555 1_555
F6B C5B 1_555 1_555
N1B Pb1 1_555 1_555
O1B Pb1 1_555 1_555
O2B Pb1 1_555 1_555
O2F Pb1 1_555 1_555
O2D Pb1 1_555 1_555
C1B C2B 1_555 1_555
C2B O1B 1_555 1_555
C3B C2B 1_555 1_555
H1B C3B 1_555 1_555
C4B O2B 1_555 1_555
C5B C4B 1_555 1_555
C6B N1B 1_555 1_555
H2B C6B 1_555 1_555
C7B C6B 1_555 1_555
H3B C7B 1_555 1_555
C8B C7B 1_555 1_555
H4B C8B 1_555 1_555
C9B C8B 1_555 1_555
C10B C10 1_555 1_555
C11B C11 1_555 1_555
H5B C11B 1_555 1_555
C3 C4 1_555 1_555
C9 C10 1_555 1_555
Pb1F O2D 1_555 1_555
Pb1F_2 O2F 1_555 1_555
N1B C10B 1_555 1_555
C3B C4B 1_555 1_555
C9B C10B 1_555 1_555
C9B C11B 1_555 1_555

#END
