
#######################################################################
#
#                 Cambridge Crystallographic Data Centre
#                                CCDC 
#
#######################################################################
#
# If this CIF has been generated from an entry in the Cambridge 
# Structural Database, then it will include bibliographic, chemical, 
# crystal, experimental, refinement or atomic coordinate data resulting 
# from the CCDC's data processing and validation procedures.
#
#######################################################################

data_JAWGIX
_symmetry_cell_setting           orthorhombic
_symmetry_space_group_name_H-M   'P 21 21 21'
_symmetry_Int_Tables_number      19
_space_group_name_Hall           'P 2ac 2ab'
loop_
_symmetry_equiv_pos_site_id
_symmetry_equiv_pos_as_xyz
1 x,y,z
2 1/2+x,1/2-y,-z
3 -x,1/2+y,1/2-z
4 1/2-x,-y,1/2+z
_cell_length_a                   13.452(4)
_cell_length_b                   15.086(2)
_cell_length_c                   8.650(2)
_cell_angle_alpha                90
_cell_angle_beta                 90
_cell_angle_gamma                90
_cell_volume                     1755.4
loop_
_atom_site_label
_atom_site_type_symbol
_atom_site_fract_x
_atom_site_fract_y
_atom_site_fract_z
Ag1 Ag -0.19611(6) 0.06485(7) -0.04197(10)
O1 O -0.3023(7) 0.1410(5) -0.2220(8)
O2 O -0.2502(6) 0.0190(4) -0.3197(9)
O3 O -0.3499(7) 0.1007(6) -0.4485(9)
N1 N -0.3009(7) 0.0876(5) -0.3303(9)
O4 O -0.0367(4) 0.1051(5) -0.0862(6)
P1 P 0.0569(1) 0.0948(2) 0.0036(2)
C1 C 0.1427(6) 0.1787(6) -0.0571(10)
C2 C 0.2442(7) 0.1703(7) -0.0427(13)
C3 C 0.3076(8) 0.2322(7) -0.1049(13)
C4 C 0.2714(8) 0.3025(7) -0.1828(12)
C5 C 0.1702(8) 0.3132(7) -0.1984(12)
C6 C 0.1072(7) 0.2511(6) -0.1364(12)
C7 C 0.0353(6) 0.1066(6) 0.2080(9)
C8 C -0.0037(7) 0.0331(7) 0.2891(10)
C9 C -0.0334(7) 0.0417(8) 0.4430(12)
C10 C -0.0274(8) 0.1258(8) 0.5150(10)
C11 C 0.0147(7) 0.1968(7) 0.4341(11)
C12 C 0.0443(6) 0.1873(7) 0.2814(10)
C13 C 0.1154(6) -0.0091(6) -0.0260(10)
C14 C 0.0881(8) -0.0593(7) -0.1481(12)
C15 C 0.1347(10) -0.1425(9) -0.1757(16)
C16 C 0.2108(9) -0.1703(8) -0.0809(19)
C17 C 0.2385(8) -0.1192(7) 0.0441(16)
C18 C 0.1896(7) -0.0415(6) 0.0694(12)
H1 H 0.2734 0.1161 0.016
H2 H 0.3839 0.2251 -0.091
H3 H 0.3200 0.3485 -0.231
H4 H 0.1423 0.3679 -0.257
H5 H 0.0309 0.2585 -0.151
H6 H -0.0117 -0.0279 0.235
H7 H -0.0596 -0.0129 0.504
H8 H -0.0540 0.1347 0.627
H9 H 0.0239 0.2575 0.489
H10 H 0.0737 0.2419 0.224
H11 H 0.0320 -0.0375 -0.222
H12 H 0.112 -0.1816 -0.268
H13 H 0.2471 -0.2296 -0.104
H14 H 0.2952 -0.1405 0.117
H15 H 0.2093 -0.0043 0.166
O2C O -0.2498(6) -0.0190(4) 0.1803(9)
Ag1C Ag -0.30389(6) -0.06485(7) -0.54197(10)
O3C O -0.1501(7) -0.1007(6) 0.0515(9)
loop_
_geom_bond_atom_site_label_1
_geom_bond_atom_site_label_2
_geom_bond_site_symmetry_1
_geom_bond_site_symmetry_2
Ag1 O1 1_555 1_555
O1 N1 1_555 1_555
O2 Ag1 1_555 1_555
O3 N1 1_555 1_555
N1 O2 1_555 1_555
O4 Ag1 1_555 1_555
P1 O4 1_555 1_555
C1 P1 1_555 1_555
C2 C1 1_555 1_555
C3 C2 1_555 1_555
C4 C3 1_555 1_555
C5 C4 1_555 1_555
C6 C1 1_555 1_555
C7 P1 1_555 1_555
C8 C7 1_555 1_555
C9 C8 1_555 1_555
C10 C9 1_555 1_555
C11 C10 1_555 1_555
C12 C7 1_555 1_555
C13 P1 1_555 1_555
C14 C13 1_555 1_555
C15 C14 1_555 1_555
C16 C15 1_555 1_555
C17 C16 1_555 1_555
C18 C13 1_555 1_555
H1 C2 1_555 1_555
H2 C3 1_555 1_555
H3 C4 1_555 1_555
H4 C5 1_555 1_555
H5 C6 1_555 1_555
H6 C8 1_555 1_555
H7 C9 1_555 1_555
H8 C10 1_555 1_555
H9 C11 1_555 1_555
H10 C12 1_555 1_555
H11 C14 1_555 1_555
H12 C15 1_555 1_555
H13 C16 1_555 1_555
H14 C17 1_555 1_555
H15 C18 1_555 1_555
O2C Ag1 1_555 1_555
Ag1C O2 1_555 1_555
O3C Ag1 1_555 1_555
O3 Ag1C 1_555 1_555
C5 C6 1_555 1_555
C11 C12 1_555 1_555
C17 C18 1_555 1_555

#END
