
#######################################################################
#
#                 Cambridge Crystallographic Data Centre
#                                CCDC 
#
#######################################################################
#
# If this CIF has been generated from an entry in the Cambridge 
# Structural Database, then it will include bibliographic, chemical, 
# crystal, experimental, refinement or atomic coordinate data resulting 
# from the CCDC's data processing and validation procedures.
#
#######################################################################

data_JAYCUH
_symmetry_cell_setting           triclinic
_symmetry_space_group_name_H-M   'P -1'
_symmetry_Int_Tables_number      2
_space_group_name_Hall           '-P 1'
loop_
_symmetry_equiv_pos_site_id
_symmetry_equiv_pos_as_xyz
1 x,y,z
2 -x,-y,-z
_cell_length_a                   10.933(2)
_cell_length_b                   13.257(2)
_cell_length_c                   13.705(2)
_cell_angle_alpha                103.58(1)
_cell_angle_beta                 132.24(2)
_cell_angle_gamma                91.50(2)
_cell_volume                     1381.95
loop_
_atom_site_label
_atom_site_type_symbol
_atom_site_fract_x
_atom_site_fract_y
_atom_site_fract_z
Pb1 Pb 0.1310(1) 0.17176(6) 0.07194(8)
S1 S -0.1024(8) 0.0596(5) 0.0918(6)
S2 S 0.3227(8) 0.1028(5) 0.3239(6)
S3 S 0.180(1) 0.2921(6) -0.0596(8)
S4 S 0.4939(9) 0.2597(7) 0.2422(7)
P1 P 0.1145(8) 0.0778(5) 0.2847(6)
P2 P 0.4280(9) 0.3107(5) 0.0909(8)
N1 N 0.146(2) 0.347(1) 0.214(2)
N2 N -0.133(2) 0.255(2) -0.065(2)
O1 O 0.089(2) -0.025(1) 0.317(2)
O2 O 0.142(2) 0.178(1) 0.397(2)
O3 O 0.503(2) 0.260(1) 0.033(2)
O4 O 0.519(3) 0.435(2) 0.151(3)
C1 C 0.277(3) 0.384(2) 0.355(2)
C2 C 0.295(3) 0.480(2) 0.437(2)
C3 C 0.177(4) 0.540(2) 0.372(3)
C4 C 0.042(4) 0.503(2) 0.227(3)
C5 C 0.029(3) 0.404(2) 0.151(2)
C6 C -0.116(3) 0.358(2) -0.004(2)
C7 C -0.226(4) 0.421(2) -0.081(3)
C8 C -0.362(4) 0.369(3) -0.227(3)
C9 C -0.380(3) 0.263(2) -0.289(3)
C10 C -0.262(4) 0.206(2) -0.204(2)
C11 C 0.222(5) -0.032(3) 0.458(3)
C12 C 0.174(5) -0.131(3) 0.458(4)
C13 C 0.008(5) 0.181(3) 0.394(4)
C14 C -0.054(5) 0.273(4) 0.356(4)
C15 C 0.451(5) 0.142(2) -0.035(4)
C16 C 0.448(6) 0.119(3) -0.146(4)
C17 C 0.679(6) 0.472(3) 0.212(6)
C18 C 0.725(5) 0.592(3) 0.253(4)
S1A S 0.1024(8) -0.0596(5) -0.0918(6)
Pb1A Pb -0.1310(1) -0.17176(6) -0.07194(8)
loop_
_geom_bond_atom_site_label_1
_geom_bond_atom_site_label_2
_geom_bond_site_symmetry_1
_geom_bond_site_symmetry_2
Pb1 S1 1_555 1_555
S1 P1 1_555 1_555
S2 Pb1 1_555 1_555
S3 Pb1 1_555 1_555
S4 Pb1 1_555 1_555
P1 S2 1_555 1_555
P2 S3 1_555 1_555
N1 Pb1 1_555 1_555
N2 Pb1 1_555 1_555
O1 P1 1_555 1_555
O2 P1 1_555 1_555
O3 P2 1_555 1_555
O4 P2 1_555 1_555
C1 N1 1_555 1_555
C2 C1 1_555 1_555
C3 C2 1_555 1_555
C4 C3 1_555 1_555
C5 N1 1_555 1_555
C6 N2 1_555 1_555
C7 C6 1_555 1_555
C8 C7 1_555 1_555
C9 C8 1_555 1_555
C10 N2 1_555 1_555
C11 O1 1_555 1_555
C12 C11 1_555 1_555
C13 O2 1_555 1_555
C14 C13 1_555 1_555
C15 O3 1_555 1_555
C16 C15 1_555 1_555
C17 O4 1_555 1_555
C18 C17 1_555 1_555
S1A Pb1 1_555 1_555
Pb1A S1 1_555 1_555
S4 P2 1_555 1_555
C4 C5 1_555 1_555
C5 C6 1_555 1_555
C9 C10 1_555 1_555
S1A Pb1A 1_555 1_555

#END
