
#######################################################################
#
#                 Cambridge Crystallographic Data Centre
#                                CCDC 
#
#######################################################################
#
# If this CIF has been generated from an entry in the Cambridge 
# Structural Database, then it will include bibliographic, chemical, 
# crystal, experimental, refinement or atomic coordinate data resulting 
# from the CCDC's data processing and validation procedures.
#
#######################################################################

data_JAZNEE
_symmetry_cell_setting           monoclinic
_symmetry_space_group_name_H-M   'C 2'
_symmetry_Int_Tables_number      5
_space_group_name_Hall           'C 2y'
loop_
_symmetry_equiv_pos_site_id
_symmetry_equiv_pos_as_xyz
1 x,y,z
2 -x,y,-z
3 1/2+x,1/2+y,z
4 1/2-x,1/2+y,-z
_cell_length_a                   9.108(2)
_cell_length_b                   6.5314(10)
_cell_length_c                   13.3063(19)
_cell_angle_alpha                90
_cell_angle_beta                 105.110(16)
_cell_angle_gamma                90
_cell_volume                     764.198
loop_
_atom_site_label
_atom_site_type_symbol
_atom_site_fract_x
_atom_site_fract_y
_atom_site_fract_z
Br1 Br 0.0000 0.0000 0.0000
Na1 Na 0.0000 0.9613(4) 0.5000
O1 O 0.2141(4) 0.9112(7) 0.4127(3)
O2 O 0.3398(4) 0.6433(7) 0.3714(3)
C1 C 0.2268(5) 0.7542(8) 0.3621(3)
C2 C 0.0837(7) 0.7042(11) 0.2783(6)
H1 H 0.0007 0.6975 0.3114
H2 H 0.0630 0.8192 0.2306
N1 N 0.0765(3) 0.5129(10) 0.2139(2)
C3 C 0.1048(11) 0.3230(12) 0.2801(7)
H3 H 0.0845 0.2042 0.2362
H4 H 0.0390 0.3229 0.3260
H5 H 0.2089 0.3208 0.3205
C4 C -0.0808(5) 0.5008(19) 0.1422(4)
H6 H -0.1009 0.6220 0.1001
H7 H -0.1537 0.4900 0.1826
H8 H -0.0882 0.3827 0.0982
C5 C 0.1869(5) 0.5262(13) 0.1484(3)
H9 H 0.1837 0.6612 0.1194
H10 H 0.1604 0.4275 0.0932
H11 H 0.2877 0.4985 0.1907
O3 O 0.0000 0.6019(9) 0.5000
H12 H 0.080(7) 0.528(18) 0.521(5)
Na1B Na 0.5000 0.4613(4) 0.5000
Na1B_2 Na -0.5000 0.4613(4) 0.5000
O1A O -0.2141(4) 0.9112(7) 0.5873(3)
O2A O -0.3398(4) 0.6433(7) 0.6286(3)
O2B O -0.1602(4) 1.1433(7) 0.3714(3)
O2C O 0.1602(4) 1.1433(7) 0.6286(3)
C1A C -0.2268(5) 0.7542(8) 0.6379(3)
C2A C -0.0837(7) 0.7042(11) 0.7217(6)
H1A H -0.0007 0.6975 0.6886
H2A H -0.0630 0.8192 0.7694
N1A N -0.0765(3) 0.5129(10) 0.7861(2)
C3A C -0.1048(11) 0.3230(12) 0.7199(7)
H3A H -0.0845 0.2042 0.7638
H4A H -0.0390 0.3229 0.6740
H5A H -0.2089 0.3208 0.6795
C4A C 0.0808(5) 0.5008(19) 0.8578(4)
H6A H 0.1009 0.6220 0.8999
H7A H 0.1537 0.4900 0.8174
H8A H 0.0882 0.3827 0.9018
C5A C -0.1869(5) 0.5262(13) 0.8516(3)
H9A H -0.1837 0.6612 0.8806
H10A H -0.1604 0.4275 0.9068
H11A H -0.2877 0.4985 0.8093
H12A H -0.080(7) 0.528(18) 0.479(5)
loop_
_geom_bond_atom_site_label_1
_geom_bond_atom_site_label_2
_geom_bond_site_symmetry_1
_geom_bond_site_symmetry_2
Na1 O1 1_555 1_555
O1 C1 1_555 1_555
O2 C1 1_555 1_555
C1 C2 1_555 1_555
C2 H1 1_555 1_555
H2 C2 1_555 1_555
N1 C2 1_555 1_555
C3 N1 1_555 1_555
H3 C3 1_555 1_555
H4 C3 1_555 1_555
H5 C3 1_555 1_555
C4 N1 1_555 1_555
H6 C4 1_555 1_555
H7 C4 1_555 1_555
H8 C4 1_555 1_555
C5 N1 1_555 1_555
H9 C5 1_555 1_555
H10 C5 1_555 1_555
H11 C5 1_555 1_555
O3 Na1 1_555 1_555
H12 O3 1_555 1_555
Na1B O2 1_555 1_555
Na1B_2 O2A 1_555 1_555
O1A Na1 1_555 1_555
O2A C1A 1_555 1_555
O2B Na1 1_555 1_555
O2C Na1 1_555 1_555
C1A O1A 1_555 1_555
C2A C1A 1_555 1_555
H1A C2A 1_555 1_555
H2A C2A 1_555 1_555
N1A C2A 1_555 1_555
C3A N1A 1_555 1_555
H3A C3A 1_555 1_555
H4A C3A 1_555 1_555
H5A C3A 1_555 1_555
C4A N1A 1_555 1_555
H6A C4A 1_555 1_555
H7A C4A 1_555 1_555
H8A C4A 1_555 1_555
C5A N1A 1_555 1_555
H9A C5A 1_555 1_555
H10A C5A 1_555 1_555
H11A C5A 1_555 1_555
H12A O3 1_555 1_555

#END
