
#######################################################################
#
#                 Cambridge Crystallographic Data Centre
#                                CCDC 
#
#######################################################################
#
# If this CIF has been generated from an entry in the Cambridge 
# Structural Database, then it will include bibliographic, chemical, 
# crystal, experimental, refinement or atomic coordinate data resulting 
# from the CCDC's data processing and validation procedures.
#
#######################################################################

data_JEBCUP
_symmetry_cell_setting           monoclinic
_symmetry_space_group_name_H-M   'C 2/c'
_symmetry_Int_Tables_number      15
_space_group_name_Hall           '-C 2yn'
loop_
_symmetry_equiv_pos_site_id
_symmetry_equiv_pos_as_xyz
1 x,y,z
2 1/2+x,1/2+y,z
3 -x,y,1/2-z
4 1/2-x,1/2+y,1/2-z
5 -x,-y,-z
6 1/2-x,1/2-y,-z
7 x,-y,1/2+z
8 1/2+x,1/2-y,1/2+z
_cell_length_a                   11.0766(10)
_cell_length_b                   21.4955(19)
_cell_length_c                   7.9989(7)
_cell_angle_alpha                90
_cell_angle_beta                 127.211(2)
_cell_angle_gamma                90
_cell_volume                     1516.78
loop_
_atom_site_label
_atom_site_type_symbol
_atom_site_fract_x
_atom_site_fract_y
_atom_site_fract_z
Ga1 Ga 0.0000 -0.308020(19) 0.2500
P1 P 0.30008(7) -0.31007(3) 0.73510(11)
O1 O 0.12935(19) -0.31209(8) 0.5630(3)
O2 O 0.3776(2) -0.36410(9) 0.7137(4)
O3 O 0.6317(2) -0.24777(9) 0.7488(3)
O4 O 0.3176(2) -0.32073(10) 0.9437(3)
N1 N -0.1218(2) -0.38319(10) 0.2453(4)
C1 C -0.0675(3) -0.43948(11) 0.2439(4)
C2 C -0.1349(3) -0.49573(13) 0.2334(5)
C3 C -0.2684(4) -0.49279(15) 0.2161(5)
H1 H -0.3183 -0.5290 0.2065
C4 C -0.3238(4) -0.43565(15) 0.2139(5)
H2 H -0.4129 -0.4330 0.2010
C5 C -0.2478(3) -0.38115(14) 0.2308(5)
H3 H -0.2862 -0.3428 0.2318
C6 C -0.0640(4) -0.55255(13) 0.2416(5)
H4 H -0.1076 -0.5903 0.2353
H5 H 0.5000 -0.3658 0.7500
H6 H 0.3600 -0.2857 1.0215
Ga1_2 Ga 1.0000 -0.308020(19) 1.2500
Ga1G Ga 0.5000 -0.191980(19) 0.7500
P1B P 0.69992(7) -0.31007(3) 0.76490(11)
O1B O 0.87065(19) -0.31209(8) 0.9370(3)
O1B_2 O -0.12935(19) -0.31209(8) -0.0630(3)
O2B O 0.6224(2) -0.36410(9) 0.7863(4)
O3E O -0.1317(2) -0.25223(9) 0.2512(3)
O3B O 0.3683(2) -0.24777(9) 0.7512(3)
O3G O 0.1317(2) -0.25223(9) 0.2488(3)
O4B O 0.6824(2) -0.32073(10) 0.5563(3)
N1B N 0.1218(2) -0.38319(10) 0.2547(4)
C1B C 0.0675(3) -0.43948(11) 0.2561(4)
C2B C 0.1349(3) -0.49573(13) 0.2666(5)
C3B C 0.2684(4) -0.49279(15) 0.2839(5)
H1B H 0.3183 -0.5290 0.2935
C4B C 0.3238(4) -0.43565(15) 0.2861(5)
H2B H 0.4129 -0.4330 0.2990
C5B C 0.2478(3) -0.38115(14) 0.2692(5)
H3B H 0.2862 -0.3428 0.2682
C6B C 0.0640(4) -0.55255(13) 0.2584(5)
H4B H 0.1076 -0.5903 0.2647
H6B H 0.6400 -0.2857 0.4785
O5 O 0.5000 -0.24051(14) 0.2500
H7 H 0.5294 -0.2131 0.1978
H7B H 0.4706 -0.2131 0.3022
loop_
_geom_bond_atom_site_label_1
_geom_bond_atom_site_label_2
_geom_bond_site_symmetry_1
_geom_bond_site_symmetry_2
Ga1 O1 1_555 1_555
P1 O1 1_555 1_555
O2 P1 1_555 1_555
O3 Ga1G 1_555 1_555
O4 P1 1_555 1_555
O5 H7 1_555 1_555
N1 Ga1 1_555 1_555
C1 N1 1_555 1_555
C2 C1 1_555 1_555
C3 C2 1_555 1_555
H1 C3 1_555 1_555
C4 C3 1_555 1_555
H2 C4 1_555 1_555
C5 N1 1_555 1_555
H3 C5 1_555 1_555
C6 C2 1_555 1_555
H4 C6 1_555 1_555
H5 O2 1_555 1_555
H6 O4 1_555 1_555
Ga1_2 O1B 1_555 1_555
Ga1G O3B 1_555 1_555
P1B O3 1_555 1_555
O1B P1B 1_555 1_555
O1B_2 Ga1 1_555 1_555
O2B H5 1_555 1_555
O3E Ga1 1_555 1_555
O3B P1 1_555 1_555
O3G Ga1 1_555 1_555
O4B P1B 1_555 1_555
N1B Ga1 1_555 1_555
C1B C1 1_555 1_555
C2B C1B 1_555 1_555
C3B C2B 1_555 1_555
H1B C3B 1_555 1_555
C4B C3B 1_555 1_555
H2B C4B 1_555 1_555
C5B N1B 1_555 1_555
H3B C5B 1_555 1_555
C6B C6 1_555 1_555
H4B C6B 1_555 1_555
H6B O4B 1_555 1_555
H7B O5 1_555 1_555
C4 C5 1_555 1_555
P1B O2B 1_555 1_555
N1B C1B 1_555 1_555
C2B C6B 1_555 1_555
C4B C5B 1_555 1_555

#END
