
#######################################################################
#
#                 Cambridge Crystallographic Data Centre
#                                CCDC 
#
#######################################################################
#
# If this CIF has been generated from an entry in the Cambridge 
# Structural Database, then it will include bibliographic, chemical, 
# crystal, experimental, refinement or atomic coordinate data resulting 
# from the CCDC's data processing and validation procedures.
#
#######################################################################

data_JEBDOK
_symmetry_cell_setting           rhombohedral
_symmetry_space_group_name_H-M   'R 3 c'
_symmetry_Int_Tables_number      161
_space_group_name_Hall           'R 3 -2"c'
loop_
_symmetry_equiv_pos_site_id
_symmetry_equiv_pos_as_xyz
1 x,y,z
2 -y,x-y,z
3 -x+y,-x,z
4 -y,-x,1/2+z
5 -x+y,y,1/2+z
6 x,x-y,1/2+z
7 2/3+x,1/3+y,1/3+z
8 2/3-y,1/3+x-y,1/3+z
9 2/3-x+y,1/3-x,1/3+z
10 2/3-y,1/3-x,5/6+z
11 2/3-x+y,1/3+y,5/6+z
12 2/3+x,1/3+x-y,5/6+z
13 1/3+x,2/3+y,2/3+z
14 1/3-y,2/3+x-y,2/3+z
15 1/3-x+y,2/3-x,2/3+z
16 1/3-y,2/3-x,1/6+z
17 1/3-x+y,2/3+y,1/6+z
18 1/3+x,2/3+x-y,1/6+z
_cell_length_a                   18.668(3)
_cell_length_b                   18.668(3)
_cell_length_c                   7.9530(16)
_cell_angle_alpha                90
_cell_angle_beta                 90
_cell_angle_gamma                120.00
_cell_volume                     2400.25
loop_
_atom_site_label
_atom_site_type_symbol
_atom_site_fract_x
_atom_site_fract_y
_atom_site_fract_z
In1 In -0.46422(5) 0.46928(5) 0.1146(7)
O1 O -0.5000(5) 0.4306(5) 0.3595(9)
H1 H -0.5482 0.3928 0.3598
O2 O -0.5907(4) 0.3697(4) 0.0460(9)
O3 O -0.5444(5) 0.5305(5) 0.0804(19)
O4 O -0.6042(5) 0.3879(5) 0.6784(10)
O5 O -0.4941(4) 0.3366(4) 0.6755(10)
C1 C -0.6461(6) 0.3899(6) 0.0326(11)
C2 C -0.6170(6) 0.4830(6) 0.0378(11)
O6 O -0.4612(4) 0.3489(4) 0.0826(12)
H2 H -0.4970 0.3072 0.1294
H3 H -0.4357 0.3385 0.1531
In1C In -0.46928(5) 0.46422(5) 0.6146(7)
In1_2 In -0.46422(5) 0.46928(5) 1.1146(7)
In1N In -0.73317(7) 0.13089(5) 0.7813(7)
In1C_2 In -0.46928(5) 0.46422(5) -0.3854(7)
In1K In -0.79755(5) 0.39983(7) -0.0521(7)
In1H In -0.39983(7) 0.79755(5) 0.4479(7)
O1C O -0.4306(5) 0.5000(5) 0.8595(9)
O1_2 O -0.5000(5) 0.4306(5) 1.3595(9)
O1C_2 O -0.4306(5) 0.5000(5) -0.1405(9)
H1C H -0.3928 0.5482 0.8598
H1_2 H -0.5482 0.3928 1.3598
H1C_2 H -0.3928 0.5482 -0.1402
O2_2 O -0.5907(4) 0.3697(4) 1.0460(9)
O2C O -0.3697(4) 0.5907(4) 0.5460(9)
O2N O -0.7063(6) 0.2574(4) 0.7127(9)
O3_2 O -0.5444(5) 0.5305(5) 1.0804(19)
O3C O -0.5305(5) 0.5444(5) 0.5804(19)
O3N O -0.5918(7) 0.2111(5) 0.7471(19)
O4C O -0.3879(5) 0.6042(5) 1.1784(10)
O4C_2 O -0.3879(5) 0.6042(5) 0.1784(10)
O4G O -0.7212(5) 0.3412(7) 0.0117(10)
O4J O -0.3412(7) 0.7212(5) 0.5117(10)
O5C O -0.3366(4) 0.4941(4) 1.1755(10)
O5C_2 O -0.3366(4) 0.4941(4) 0.1755(10)
O5G O -0.6699(4) 0.5026(6) 0.0088(10)
O5J O -0.5026(6) 0.6699(4) 0.5088(10)
C1C C -0.3899(6) 0.6461(6) 0.5326(11)
C1N C -0.6307(8) 0.3128(6) 0.6993(11)
C2C C -0.4830(6) 0.6170(6) 0.5378(11)
C2N C -0.5667(8) 0.2837(6) 0.7045(11)
O6_2 O -0.4612(4) 0.3489(4) 1.0826(12)
O6C O -0.3489(4) 0.4612(4) 0.5826(12)
H2_2 H -0.4970 0.3072 1.1294
H2C H -0.3072 0.4970 0.6294
H3_2 H -0.4357 0.3385 1.1531
H3C H -0.3385 0.4357 0.6531
O7 O -0.3333 0.3333 -0.171(7)
O8? O -0.3333 0.3333 -0.026(7)
H4? H -0.3189 0.3692 -0.0982
loop_
_geom_bond_atom_site_label_1
_geom_bond_atom_site_label_2
_geom_bond_site_symmetry_1
_geom_bond_site_symmetry_2
In1 O1 1_555 1_555
O1 H1 1_555 1_555
O2 In1 1_555 1_555
O3 In1 1_555 1_555
O4 In1C 1_555 1_555
O5 In1C 1_555 1_555
C1 O2 1_555 1_555
C2 O3 1_555 1_555
O6 In1 1_555 1_555
H2 O6 1_555 1_555
H3 O6 1_555 1_555
In1C O1 1_555 1_555
In1_2 O1C 1_555 1_555
In1N O2N 1_555 1_555
In1C_2 O1C_2 1_555 1_555
In1K O4G 1_555 1_555
In1H O4J 1_555 1_555
O1C In1C 1_555 1_555
O1_2 In1_2 1_555 1_555
O1C_2 In1 1_555 1_555
H1C O1C 1_555 1_555
H1_2 O1_2 1_555 1_555
H1C_2 O1C_2 1_555 1_555
O2_2 In1_2 1_555 1_555
O2C In1C 1_555 1_555
O2N C1N 1_555 1_555
O3_2 In1_2 1_555 1_555
O3C In1C 1_555 1_555
O3N In1N 1_555 1_555
O4C In1_2 1_555 1_555
O4C_2 In1 1_555 1_555
O4G C1 1_555 1_555
O4J C1C 1_555 1_555
O5C In1_2 1_555 1_555
O5C_2 In1 1_555 1_555
O5G C2 1_555 1_555
O5J In1H 1_555 1_555
C1C O2C 1_555 1_555
C1N O4 1_555 1_555
C2C O3C 1_555 1_555
C2N O5 1_555 1_555
O6_2 In1_2 1_555 1_555
O6C In1C 1_555 1_555
H2_2 O6_2 1_555 1_555
H2C O6C 1_555 1_555
H3_2 O6_2 1_555 1_555
H3C O6C 1_555 1_555
C1 C2 1_555 1_555
In1K O5G 1_555 1_555
O3N C2N 1_555 1_555
O5J C2C 1_555 1_555
C1C C2C 1_555 1_555
C1N C2N 1_555 1_555

#END
