
#######################################################################
#
#                 Cambridge Crystallographic Data Centre
#                                CCDC 
#
#######################################################################
#
# If this CIF has been generated from an entry in the Cambridge 
# Structural Database, then it will include bibliographic, chemical, 
# crystal, experimental, refinement or atomic coordinate data resulting 
# from the CCDC's data processing and validation procedures.
#
#######################################################################

data_JEBJEG
_symmetry_cell_setting           monoclinic
_symmetry_space_group_name_H-M   'P 21/n'
_symmetry_Int_Tables_number      14
_space_group_name_Hall           '-P 2yn'
loop_
_symmetry_equiv_pos_site_id
_symmetry_equiv_pos_as_xyz
1 x,y,z
2 1/2-x,1/2+y,1/2-z
3 -x,-y,-z
4 1/2+x,1/2-y,1/2+z
_cell_length_a                   15.7959(5)
_cell_length_b                   24.2073(8)
_cell_length_c                   21.3022(8)
_cell_angle_alpha                90
_cell_angle_beta                 95.382(2)
_cell_angle_gamma                90
_cell_volume                     8109.54
loop_
_atom_site_label
_atom_site_type_symbol
_atom_site_fract_x
_atom_site_fract_y
_atom_site_fract_z
W1 W 0.25441(2) 0.292750(17) -0.27538(2)
W2 W 0.13460(2) 0.405000(16) -0.20349(2)
W3 W 0.12851(3) 0.393110(17) -0.37715(2)
W4 W -0.09051(2) 0.384170(16) -0.38936(2)
W5 W 0.02787(3) 0.282090(17) -0.451100(19)
W6 W 0.14933(3) 0.182560(17) -0.34802(2)
W7 W 0.15543(3) 0.198850(17) -0.18763(2)
W8 W 0.03332(3) 0.309960(18) -0.118780(19)
W9 W -0.08680(2) 0.399400(16) -0.21764(2)
W10 W 0.91079(2) 0.180640(15) -0.360660(19)
W11 W -0.08200(2) 0.192930(16) -0.202410(19)
Cu1 Cu 0.81728(7) 0.28287(5) -0.29575(6)
Cu2 Cu 0.68944(8) 0.35740(5) -0.23210(6)
Cu3 Cu 0.69792(8) 0.21415(5) -0.18986(6)
Cu4 Cu 0.69997(8) 0.21674(5) -0.43855(6)
Cu5 Cu 0.48203(8) 0.34984(5) -0.29617(6)
Cu6 Cu 0.47056(8) 0.21578(5) -0.25244(6)
P1 P 0.02991(13) 0.29139(8) -0.28538(10)
P2 P 0.55954(17) 0.30533(11) -0.16704(12)
P3 P 0.61622(15) 0.25600(10) -0.31692(12)
O1 O 0.3631(5) 0.3069(3) -0.2725(4)
O2 O 0.2103(5) 0.3382(3) -0.3426(4)
O3 O 0.2130(4) 0.3474(3) -0.2220(4)
O4 O 0.2483(4) 0.2304(3) -0.3304(4)
O5 O 0.2523(4) 0.2413(3) -0.2068(3)
O6 O 0.1143(4) 0.2586(3) -0.2771(3)
O7 O 0.2020(5) 0.4571(3) -0.1751(4)
O8 O 0.0281(4) 0.4376(3) -0.2022(4)
O9 O 0.1163(4) 0.3674(3) -0.1274(3)
O10 O 0.1284(5) 0.4173(3) -0.2932(3)
O11 O 0.0266(4) 0.3322(3) -0.2306(3)
O12 O 0.1938(5) 0.4396(3) -0.4093(4)
O13 O 0.0195(5) 0.4224(3) -0.3979(4)
O14 O 0.1066(5) 0.3424(3) -0.4462(3)
O15 O 0.0245(4) 0.3230(3) -0.3483(3)
O16 O -0.1579(5) 0.4287(3) -0.4320(4)
O17 O -0.1626(4) 0.3330(3) -0.3643(3)
O18 O -0.0597(5) 0.3379(3) -0.4563(3)
O19 O -0.0781(4) 0.4134(3) -0.3043(3)
O20 O 0.0283(5) 0.2638(3) -0.5289(4)
O21 O -0.0506(4) 0.2323(3) -0.4211(3)
O22 O 0.1146(5) 0.2366(3) -0.4115(4)
O23 O 0.1896(5) 0.1309(4) -0.3906(5)
O24 O 0.0358(4) 0.1643(3) -0.3480(3)
O25 O 0.1737(5) 0.1570(3) -0.2632(4)
O26 O 0.1997(5) 0.1542(3) -0.1309(4)
O27 O 0.0413(5) 0.1779(3) -0.1978(3)
O28 O 0.1208(5) 0.2593(3) -0.1393(4)
O29 O 0.0371(6) 0.3036(4) -0.0393(4)
O30 O -0.0434(4) 0.2537(3) -0.1475(3)
O31 O -0.0513(5) 0.3646(3) -0.1356(3)
O32 O -0.1460(5) 0.4540(3) -0.1959(4)
O33 O 0.8336(4) 0.3460(3) -0.2357(3)
O34 O 0.8801(5) 0.1258(3) -0.4081(4)
O35 O 0.8125(4) 0.2188(3) -0.3565(3)
O36 O -0.0933(4) 0.1485(3) -0.2778(3)
O37 O -0.0436(4) 0.2509(3) -0.2852(3)
O38 O -0.1123(5) 0.1461(3) -0.1477(4)
O39 O 0.8181(4) 0.2299(3) -0.2242(3)
O40 O 0.6750(4) 0.3059(3) -0.3052(3)
O41 O 0.6541(4) 0.2966(3) -0.1786(3)
O42 O 0.6147(4) 0.2366(3) -0.3848(3)
O43 O 0.6384(4) 0.2082(3) -0.2719(3)
O44 O 0.7260(6) 0.2958(3) -0.4559(4)
O45 O 0.5222(4) 0.2732(3) -0.3058(3)
O46 O 0.5111(5) 0.2519(3) -0.1763(4)
O47 O 0.5549(5) 0.3241(3) -0.0973(4)
O48 O 0.5245(4) 0.3535(3) -0.2080(3)
N1 N 0.6768(6) 0.4243(4) -0.2859(5)
C1 C 0.6781(8) 0.4262(5) -0.3479(6)
H1 H 0.6834 0.3934 -0.3700
C2 C 0.6718(10) 0.4758(6) -0.3808(7)
H2 H 0.6741 0.4763 -0.4243
C3 C 0.6621(10) 0.5242(6) -0.3486(8)
H3 H 0.6593 0.5578 -0.3698
C4 C 0.6568(9) 0.5223(5) -0.2856(8)
H4 H 0.6481 0.5547 -0.2635
C5 C 0.6645(7) 0.4715(5) -0.2535(6)
C6 C 0.6649(7) 0.4658(5) -0.1854(6)
C7 C 0.6421(9) 0.5061(5) -0.1460(7)
H5 H 0.6255 0.5407 -0.1618
C8 C 0.6437(11) 0.4952(7) -0.0818(8)
H6 H 0.6270 0.5223 -0.0546
C9 C 0.6699(10) 0.4447(6) -0.0587(8)
H7 H 0.6744 0.4373 -0.0157
C10 C 0.6896(9) 0.4049(6) -0.1017(6)
H8 H 0.7046 0.3697 -0.0871
N2 N 0.6879(6) 0.4151(4) -0.1635(5)
N3 N 0.7461(6) 0.2161(4) -0.1017(4)
C11 C 0.7905(8) 0.2581(6) -0.0751(6)
H9 H 0.8045 0.2878 -0.0998
C12 C 0.8162(10) 0.2582(8) -0.0107(8)
H10 H 0.8430 0.2889 0.0084
C13 C 0.8016(10) 0.2131(9) 0.0233(6)
H11 H 0.8206 0.2122 0.0659
C14 C 0.7591(8) 0.1680(8) -0.0035(6)
H12 H 0.7503 0.1365 0.0201
C15 C 0.7301(7) 0.1710(5) -0.0664(5)
C16 C 0.6785(7) 0.1282(5) -0.1025(6)
C17 C 0.6454(10) 0.0833(5) -0.0741(7)
H13 H 0.6537 0.0784 -0.0306
C18 C 0.5977(12) 0.0442(6) -0.1133(10)
H14 H 0.5731 0.0136 -0.0958
C19 C 0.5888(11) 0.0527(6) -0.1772(9)
H15 H 0.5616 0.0266 -0.2041
C20 C 0.6204(9) 0.1000(5) -0.2007(7)
H16 H 0.6112 0.1064 -0.2438
N4 N 0.6630(6) 0.1369(4) -0.1657(5)
N5 N 0.6774(6) 0.1366(4) -0.4321(4)
C21 C 0.6344(8) 0.1119(5) -0.3871(6)
H17 H 0.6198 0.1327 -0.3530
C22 C 0.6125(9) 0.0572(5) -0.3911(7)
H18 H 0.5825 0.0409 -0.3604
C23 C 0.6351(12) 0.0271(6) -0.4403(8)
H19 H 0.6219 -0.0103 -0.4427
C24 C 0.6781(10) 0.0513(6) -0.4875(7)
H20 H 0.6905 0.0315 -0.5228
C25 C 0.7016(7) 0.1066(4) -0.4795(5)
C26 C 0.7549(7) 0.1370(5) -0.5216(5)
C27 C 0.8007(9) 0.1115(7) -0.5663(6)
H21 H 0.7994 0.0734 -0.5716
C28 C 0.8487(8) 0.1451(7) -0.6029(6)
H22 H 0.8789 0.1295 -0.6338
C29 C 0.8515(9) 0.2010(7) -0.5933(6)
H23 H 0.8819 0.2241 -0.6178
C30 C 0.8072(8) 0.2216(6) -0.5457(5)
H24 H 0.8107 0.2593 -0.5375
N6 N 0.7595(6) 0.1910(4) -0.5107(4)
N7 N 0.4702(6) 0.3683(4) -0.3890(5)
C31 C 0.4927(8) 0.3369(6) -0.4359(6)
H25 H 0.5114 0.3010 -0.4268
C32 C 0.4895(11) 0.3553(7) -0.4976(7)
H26 H 0.5066 0.3325 -0.5293
C33 C 0.4611(12) 0.4065(8) -0.5109(8)
H27 H 0.4585 0.4197 -0.5520
C34 C 0.4364(14) 0.4390(6) -0.4645(8)
H28 H 0.4155 0.4742 -0.4741
C35 C 0.4420(9) 0.4203(6) -0.4015(7)
C36 C 0.4214(9) 0.4533(5) -0.3472(7)
C37 C 0.3855(14) 0.5046(6) -0.3504(9)
H29 H 0.3675 0.5202 -0.3893
C38 C 0.3764(14) 0.5321(7) -0.2979(12)
H30 H 0.3579 0.5686 -0.3002
C39 C 0.3942(13) 0.5071(7) -0.2383(10)
H31 H 0.3835 0.5254 -0.2015
C40 C 0.4289(11) 0.4531(6) -0.2366(8)
H32 H 0.4438 0.4359 -0.1981
N8 N 0.4403(7) 0.4270(4) -0.2909(5)
N9 N 0.4232(6) 0.1562(4) -0.2019(5)
C41 C 0.4256(8) 0.1540(5) -0.1399(6)
H33 H 0.4493 0.1835 -0.1163
C42 C 0.3934(8) 0.1084(5) -0.1081(7)
H34 H 0.3961 0.1075 -0.0643
C43 C 0.3586(10) 0.0659(5) -0.1433(7)
H35 H 0.3366 0.0356 -0.1235
C44 C 0.3554(8) 0.0674(5) -0.2078(7)
H36 H 0.3307 0.0386 -0.2318
C45 C 0.3892(7) 0.1120(4) -0.2365(6)
C46 C 0.3948(7) 0.1177(4) -0.3051(6)
C47 C 0.3713(9) 0.0770(6) -0.3465(7)
H37 H 0.3472 0.0445 -0.3332
C48 C 0.3843(11) 0.0850(6) -0.4104(7)
H38 H 0.3666 0.0583 -0.4402
C49 C 0.4228(9) 0.1319(6) -0.4285(7)
H39 H 0.4349 0.1366 -0.4700
C50 C 0.4435(7) 0.1722(5) -0.3840(6)
H40 H 0.4673 0.2049 -0.3968
N10 N 0.4308(6) 0.1661(4) -0.3228(4)
W9_2 W 0.91320(2) 0.399400(16) -0.21764(2)
W10_2 W -0.08921(2) 0.180640(15) -0.360660(19)
W11_2 W 0.91800(2) 0.192930(16) -0.202410(19)
Cu1_2 Cu -0.18272(7) 0.28287(5) -0.29575(6)
O17_2 O 0.8374(4) 0.3330(3) -0.3643(3)
O21_2 O 0.9494(4) 0.2323(3) -0.4211(3)
O24_2 O 1.0358(4) 0.1643(3) -0.3480(3)
O33_2 O -0.1664(4) 0.3460(3) -0.2357(3)
O36_2 O 0.9067(4) 0.1485(3) -0.2778(3)
O37_2 O 0.9564(4) 0.2509(3) -0.2852(3)
O39_2 O -0.1819(4) 0.2299(3) -0.2242(3)
O49 O -0.8064(7) 0.0994(6) -0.0172(5)
loop_
_geom_bond_atom_site_label_1
_geom_bond_atom_site_label_2
_geom_bond_site_symmetry_1
_geom_bond_site_symmetry_2
W1 O1 1_555 1_555
W2 O3 1_555 1_555
W3 O2 1_555 1_555
W4 O13 1_555 1_555
W5 O14 1_555 1_555
W6 O4 1_555 1_555
W7 O5 1_555 1_555
W8 O9 1_555 1_555
W9 O8 1_555 1_555
W10 O34 1_555 1_555
W11 O27 1_555 1_555
Cu1 O33 1_555 1_555
Cu2 O33 1_555 1_555
Cu3 O39 1_555 1_555
Cu4 O35 1_555 1_555
Cu5 O1 1_555 1_555
Cu6 O45 1_555 1_555
P1 O6 1_555 1_555
P2 O41 1_555 1_555
P3 O40 1_555 1_555
O2 W1 1_555 1_555
O3 W1 1_555 1_555
O4 W1 1_555 1_555
O5 W1 1_555 1_555
O6 W1 1_555 1_555
O7 W2 1_555 1_555
O8 W2 1_555 1_555
O9 W2 1_555 1_555
O10 W2 1_555 1_555
O11 W2 1_555 1_555
O12 W3 1_555 1_555
O13 W3 1_555 1_555
O14 W3 1_555 1_555
O15 W3 1_555 1_555
O16 W4 1_555 1_555
O17 W4 1_555 1_555
O18 W4 1_555 1_555
O19 W4 1_555 1_555
O20 W5 1_555 1_555
O21 W5 1_555 1_555
O22 W5 1_555 1_555
O23 W6 1_555 1_555
O24 W6 1_555 1_555
O25 W6 1_555 1_555
O26 W7 1_555 1_555
O27 W7 1_555 1_555
O28 W7 1_555 1_555
O29 W8 1_555 1_555
O30 W8 1_555 1_555
O31 W8 1_555 1_555
O32 W9 1_555 1_555
O33 W9_2 1_555 1_555
O35 W10 1_555 1_555
O36 W11 1_555 1_555
O37 W11 1_555 1_555
O38 W11 1_555 1_555
O39 Cu1 1_555 1_555
O40 Cu1 1_555 1_555
O41 Cu2 1_555 1_555
O42 Cu4 1_555 1_555
O43 Cu3 1_555 1_555
O44 Cu4 1_555 1_555
O45 Cu5 1_555 1_555
O46 Cu6 1_555 1_555
O47 P2 1_555 1_555
O48 Cu5 1_555 1_555
N1 Cu2 1_555 1_555
C1 N1 1_555 1_555
H1 C1 1_555 1_555
C2 C1 1_555 1_555
H2 C2 1_555 1_555
C3 C2 1_555 1_555
H3 C3 1_555 1_555
C4 C3 1_555 1_555
H4 C4 1_555 1_555
C5 N1 1_555 1_555
C6 C5 1_555 1_555
C7 C6 1_555 1_555
H5 C7 1_555 1_555
C8 C7 1_555 1_555
H6 C8 1_555 1_555
C9 C8 1_555 1_555
H7 C9 1_555 1_555
C10 C9 1_555 1_555
H8 C10 1_555 1_555
N2 Cu2 1_555 1_555
N3 Cu3 1_555 1_555
C11 N3 1_555 1_555
H9 C11 1_555 1_555
C12 C11 1_555 1_555
H10 C12 1_555 1_555
C13 C12 1_555 1_555
H11 C13 1_555 1_555
C14 C13 1_555 1_555
H12 C14 1_555 1_555
C15 N3 1_555 1_555
C16 C15 1_555 1_555
C17 C16 1_555 1_555
H13 C17 1_555 1_555
C18 C17 1_555 1_555
H14 C18 1_555 1_555
C19 C18 1_555 1_555
H15 C19 1_555 1_555
C20 C19 1_555 1_555
H16 C20 1_555 1_555
N4 Cu3 1_555 1_555
N5 Cu4 1_555 1_555
C21 N5 1_555 1_555
H17 C21 1_555 1_555
C22 C21 1_555 1_555
H18 C22 1_555 1_555
C23 C22 1_555 1_555
H19 C23 1_555 1_555
C24 C23 1_555 1_555
H20 C24 1_555 1_555
C25 N5 1_555 1_555
C26 C25 1_555 1_555
C27 C26 1_555 1_555
H21 C27 1_555 1_555
C28 C27 1_555 1_555
H22 C28 1_555 1_555
C29 C28 1_555 1_555
H23 C29 1_555 1_555
C30 C29 1_555 1_555
H24 C30 1_555 1_555
N6 Cu4 1_555 1_555
N7 Cu5 1_555 1_555
C31 N7 1_555 1_555
H25 C31 1_555 1_555
C32 C31 1_555 1_555
H26 C32 1_555 1_555
C33 C32 1_555 1_555
H27 C33 1_555 1_555
C34 C33 1_555 1_555
H28 C34 1_555 1_555
C35 N7 1_555 1_555
C36 C35 1_555 1_555
C37 C36 1_555 1_555
H29 C37 1_555 1_555
C38 C37 1_555 1_555
H30 C38 1_555 1_555
C39 C38 1_555 1_555
H31 C39 1_555 1_555
C40 C39 1_555 1_555
H32 C40 1_555 1_555
N8 Cu5 1_555 1_555
N9 Cu6 1_555 1_555
C41 N9 1_555 1_555
H33 C41 1_555 1_555
C42 C41 1_555 1_555
H34 C42 1_555 1_555
C43 C42 1_555 1_555
H35 C43 1_555 1_555
C44 C43 1_555 1_555
H36 C44 1_555 1_555
C45 N9 1_555 1_555
C46 C45 1_555 1_555
C47 C46 1_555 1_555
H37 C47 1_555 1_555
C48 C47 1_555 1_555
H38 C48 1_555 1_555
C49 C48 1_555 1_555
H39 C49 1_555 1_555
C50 C49 1_555 1_555
H40 C50 1_555 1_555
N10 Cu6 1_555 1_555
W10_2 O21 1_555 1_555
W11_2 O39 1_555 1_555
Cu1_2 O17 1_555 1_555
O17_2 Cu1 1_555 1_555
O21_2 W10 1_555 1_555
O24_2 W10 1_555 1_555
O33_2 W9 1_555 1_555
O36_2 W10 1_555 1_555
O37_2 W10 1_555 1_555
O39_2 W11 1_555 1_555
W3 O10 1_555 1_555
W4 O15 1_555 1_555
W5 O15 1_555 1_555
W5 O18 1_555 1_555
W6 O6 1_555 1_555
W6 O22 1_555 1_555
W7 O6 1_555 1_555
W7 O25 1_555 1_555
W8 O11 1_555 1_555
W8 O28 1_555 1_555
W9 O11 1_555 1_555
W9 O19 1_555 1_555
W9 O31 1_555 1_555
W11 O30 1_555 1_555
Cu1 O35 1_555 1_555
Cu1 O37_2 1_555 1_555
Cu2 O40 1_555 1_555
Cu3 O41 1_555 1_555
P1 O11 1_555 1_555
P1 O15 1_555 1_555
P1 O37 1_555 1_555
P2 O46 1_555 1_555
P2 O48 1_555 1_555
P3 O42 1_555 1_555
P3 O43 1_555 1_555
P3 O45 1_555 1_555
O24 W10_2 1_555 1_555
O36 W10_2 1_555 1_555
O37 W10_2 1_555 1_555
O37 Cu1_2 1_555 1_555
C4 C5 1_555 1_555
C6 N2 1_555 1_555
C10 N2 1_555 1_555
C14 C15 1_555 1_555
C16 N4 1_555 1_555
C20 N4 1_555 1_555
C24 C25 1_555 1_555
C26 N6 1_555 1_555
C30 N6 1_555 1_555
C34 C35 1_555 1_555
C36 N8 1_555 1_555
C40 N8 1_555 1_555
C44 C45 1_555 1_555
C46 N10 1_555 1_555
C50 N10 1_555 1_555
W11_2 O36_2 1_555 1_555
W11_2 O37_2 1_555 1_555
Cu1_2 O33_2 1_555 1_555
Cu1_2 O39_2 1_555 1_555

#END
