
#######################################################################
#
#                 Cambridge Crystallographic Data Centre
#                                CCDC 
#
#######################################################################
#
# If this CIF has been generated from an entry in the Cambridge 
# Structural Database, then it will include bibliographic, chemical, 
# crystal, experimental, refinement or atomic coordinate data resulting 
# from the CCDC's data processing and validation procedures.
#
#######################################################################

data_JEBLAE
_symmetry_cell_setting           orthorhombic
_symmetry_space_group_name_H-M   'P n a 21'
_symmetry_Int_Tables_number      33
_space_group_name_Hall           'P 2c -2n'
loop_
_symmetry_equiv_pos_site_id
_symmetry_equiv_pos_as_xyz
1 x,y,z
2 -x,-y,1/2+z
3 1/2-x,1/2+y,1/2+z
4 1/2+x,1/2-y,z
_cell_length_a                   7.3530(2)
_cell_length_b                   14.5928(4)
_cell_length_c                   21.0510(7)
_cell_angle_alpha                90
_cell_angle_beta                 90
_cell_angle_gamma                90
_cell_volume                     2258.79
loop_
_atom_site_label
_atom_site_type_symbol
_atom_site_fract_x
_atom_site_fract_y
_atom_site_fract_z
Cu1 Cu -0.01148(10) 0.54730(4) 0.18586(4)
Co1 Co -0.04046(10) 0.48641(5) 0.43558(4)
S1 S -0.3825(2) 0.37112(9) 0.38608(7)
S2 S 0.2728(2) 0.63865(9) 0.44842(9)
S3 S -0.4888(2) 0.57455(11) 0.17115(8)
N1 N 0.0537(7) 0.4515(3) 0.2454(2)
N2 N 0.0787(8) 0.4610(3) 0.1255(2)
O1 O -0.0570(6) 0.6202(3) 0.2648(2)
O2 O -0.0955(6) 0.5914(3) 0.36862(18)
O3 O 0.0243(6) 0.4174(3) 0.35370(19)
O4 O -0.0314(6) 0.6290(3) 0.1096(2)
O5 O -0.0260(6) 0.6136(3) 0.00373(19)
O6 O 0.1001(6) 0.4400(3) 0.01550(19)
O7 O -0.3115(6) 0.4404(2) 0.4346(2)
O8 O 0.2319(5) 0.5382(2) 0.4383(2)
O9 O -0.3219(6) 0.5159(2) 0.1784(2)
C1 C -0.0525(9) 0.5683(5) 0.3135(3)
C2 C 0.0138(8) 0.4691(4) 0.3048(3)
C3 C 0.1138(8) 0.3695(4) 0.2175(3)
C4 C 0.1485(9) 0.2880(4) 0.2485(3)
H1 H 0.1386 0.2845 0.2934
C5 C 0.1982(8) 0.2108(4) 0.2133(3)
H2 H 0.2207 0.1544 0.2345
C6 C 0.2149(8) 0.2153(4) 0.1483(3)
H3 H 0.2495 0.1624 0.125
C7 C 0.1809(8) 0.2979(4) 0.1164(3)
H4 H 0.1927 0.3012 0.0715
C8 C 0.1304(8) 0.3740(4) 0.1505(3)
C9 C 0.0666(8) 0.4853(4) 0.0656(3)
C10 C -0.0029(8) 0.5844(5) 0.0589(3)
C11 C -0.5085(9) 0.4358(5) 0.3293(3)
H5 H -0.4244 0.4708 0.3026
H6 H -0.5904 0.4781 0.3515
H7 H -0.5799 0.3941 0.3027
C12 C -0.5679(9) 0.3172(4) 0.4252(3)
H8 H -0.5216 0.277 0.4588
H9 H -0.6372 0.2808 0.3945
H10 H -0.6471 0.364 0.4439
C13 C 0.3648(11) 0.6789(4) 0.3749(4)
H11 H 0.2675 0.6832 0.3432
H12 H 0.458 0.636 0.3599
H13 H 0.4194 0.7394 0.3812
C14 C 0.4791(10) 0.6404(5) 0.4922(4)
H14 H 0.4564 0.6188 0.5355
H15 H 0.5265 0.7032 0.4936
H16 H 0.5683 0.6004 0.4716
C15 C -0.4273(11) 0.6833(4) 0.1973(4)
H17 H -0.4101 0.6822 0.2435
H18 H -0.5235 0.7271 0.1866
H19 H -0.3135 0.7018 0.1767
C16 C -0.5078(11) 0.6043(6) 0.0893(4)
H20 H -0.5432 0.5501 0.0648
H21 H -0.3904 0.6271 0.0739
H22 H -0.6003 0.6521 0.0842
Co1A Co 0.04046(10) 0.51359(5) -0.06442(4)
O5A O 0.0260(6) 0.3864(3) 0.50373(19)
O6A O -0.1001(6) 0.5600(3) 0.51550(19)
loop_
_geom_bond_atom_site_label_1
_geom_bond_atom_site_label_2
_geom_bond_site_symmetry_1
_geom_bond_site_symmetry_2
Cu1 N1 1_555 1_555
Co1 O2 1_555 1_555
S1 O7 1_555 1_555
S2 O8 1_555 1_555
S3 O9 1_555 1_555
N1 C2 1_555 1_555
N2 Cu1 1_555 1_555
O1 Cu1 1_555 1_555
O2 C1 1_555 1_555
O3 Co1 1_555 1_555
O4 Cu1 1_555 1_555
O5 C10 1_555 1_555
O6 C9 1_555 1_555
O7 Co1 1_555 1_555
O8 Co1 1_555 1_555
O9 Cu1 1_555 1_555
C1 O1 1_555 1_555
C2 O3 1_555 1_555
C3 N1 1_555 1_555
C4 C3 1_555 1_555
H1 C4 1_555 1_555
C5 C4 1_555 1_555
H2 C5 1_555 1_555
C6 C5 1_555 1_555
H3 C6 1_555 1_555
C7 C6 1_555 1_555
H4 C7 1_555 1_555
C8 N2 1_555 1_555
C9 N2 1_555 1_555
C10 O4 1_555 1_555
C11 S1 1_555 1_555
H5 C11 1_555 1_555
H6 C11 1_555 1_555
H7 C11 1_555 1_555
C12 S1 1_555 1_555
H8 C12 1_555 1_555
H9 C12 1_555 1_555
H10 C12 1_555 1_555
C13 S2 1_555 1_555
H11 C13 1_555 1_555
H12 C13 1_555 1_555
H13 C13 1_555 1_555
C14 S2 1_555 1_555
H14 C14 1_555 1_555
H15 C14 1_555 1_555
H16 C14 1_555 1_555
C15 S3 1_555 1_555
H17 C15 1_555 1_555
H18 C15 1_555 1_555
H19 C15 1_555 1_555
C16 S3 1_555 1_555
H20 C16 1_555 1_555
H21 C16 1_555 1_555
H22 C16 1_555 1_555
Co1A O5 1_555 1_555
O5A Co1 1_555 1_555
O6A Co1 1_555 1_555
O6 Co1A 1_555 1_555
C1 C2 1_555 1_555
C3 C8 1_555 1_555
C7 C8 1_555 1_555
C9 C10 1_555 1_555

#END
