
#######################################################################
#
#                 Cambridge Crystallographic Data Centre
#                                CCDC 
#
#######################################################################
#
# If this CIF has been generated from an entry in the Cambridge 
# Structural Database, then it will include bibliographic, chemical, 
# crystal, experimental, refinement or atomic coordinate data resulting 
# from the CCDC's data processing and validation procedures.
#
#######################################################################

data_JEBLUY01
_symmetry_cell_setting           triclinic
_symmetry_space_group_name_H-M   'P -1'
_symmetry_Int_Tables_number      2
_space_group_name_Hall           '-P 1'
loop_
_symmetry_equiv_pos_site_id
_symmetry_equiv_pos_as_xyz
1 x,y,z
2 -x,-y,-z
_cell_length_a                   5.9085(7)
_cell_length_b                   7.8486(10)
_cell_length_c                   16.508(2)
_cell_angle_alpha                96.911(6)
_cell_angle_beta                 97.845(6)
_cell_angle_gamma                94.513(6)
_cell_volume                     749.329
loop_
_atom_site_label
_atom_site_type_symbol
_atom_site_fract_x
_atom_site_fract_y
_atom_site_fract_z
K1 K 0.28145(13) 0.30370(11) 0.00686(5)
P1 P 0.78263(14) 0.24587(12) 0.13868(6)
O1 O 0.5532(4) 0.1492(3) 0.11471(16)
O2 O 0.7818(4) 0.4277(3) 0.11091(16)
O3 O 0.9795(4) 0.1649(4) 0.10049(18)
C1 C 0.8615(6) 0.2700(5) 0.2482(2)
C2 C 1.0753(8) 0.3444(7) 0.2849(3)
H1 H 1.1808 0.3820 0.2524
C3 C 1.1351(10) 0.3641(8) 0.3697(3)
H2 H 1.2784 0.4175 0.3940
C4 C 0.9838(12) 0.3049(8) 0.4177(3)
H3 H 1.0247 0.3173 0.4747
C5 C 0.7739(11) 0.2282(9) 0.3825(3)
H4 H 0.6716 0.1874 0.4155
C6 C 0.7111(8) 0.2102(7) 0.2976(3)
H5 H 0.5668 0.1577 0.2739
P2 P 0.22396(14) 0.76203(11) 0.13757(5)
O4 O 0.0240(4) 0.8683(3) 0.12705(16)
O5 O 0.1623(4) 0.5754(3) 0.10260(15)
O6 O 0.4261(5) 0.8265(4) 0.09415(16)
C7 C 0.3344(6) 0.7774(5) 0.2451(2)
C8 C 0.2187(7) 0.8555(6) 0.3049(3)
H6 H 0.0838 0.9046 0.2895
C9 C 0.3044(9) 0.8603(7) 0.3874(3)
H7 H 0.2255 0.9116 0.4274
C10 C 0.5039(10) 0.7905(8) 0.4108(3)
H8 H 0.5607 0.7958 0.4665
C11 C 0.6211(8) 0.7124(8) 0.3523(3)
H9 H 0.7563 0.6643 0.3684
C12 C 0.5368(7) 0.7059(6) 0.2698(3)
H10 H 0.6159 0.6532 0.2302
H11 H 1.003(8) 0.072(7) 0.115(3)
H12 H 0.466(9) 0.918(8) 0.104(3)
K1_2 K 1.28145(13) 0.30370(11) 0.00686(5)
K1A K -0.28145(13) 0.69630(11) -0.00686(5)
K1A_2 K 0.71855(13) 0.69630(11) -0.00686(5)
O2A O 0.2182(4) 0.5723(3) -0.11091(16)
O3_2 O -0.0205(4) 0.1649(4) 0.10049(18)
O4A O -0.0240(4) 0.1317(3) -0.12705(16)
O5A O -0.1623(4) 0.4246(3) -0.10260(15)
O6A O 0.5739(5) 0.1735(4) -0.09415(16)
loop_
_geom_bond_atom_site_label_1
_geom_bond_atom_site_label_2
_geom_bond_site_symmetry_1
_geom_bond_site_symmetry_2
K1 O1 1_555 1_555
P1 O1 1_555 1_555
O2 K1 1_555 1_555
O3 P1 1_555 1_555
C1 P1 1_555 1_555
C2 C1 1_555 1_555
H1 C2 1_555 1_555
C3 C2 1_555 1_555
H2 C3 1_555 1_555
C4 C3 1_555 1_555
H3 C4 1_555 1_555
C5 C4 1_555 1_555
H4 C5 1_555 1_555
C6 C1 1_555 1_555
H5 C6 1_555 1_555
P2 O4 1_555 1_555
O4 K1A 1_555 1_555
O5 K1 1_555 1_555
O6 P2 1_555 1_555
C7 P2 1_555 1_555
C8 C7 1_555 1_555
H6 C8 1_555 1_555
C9 C8 1_555 1_555
H7 C9 1_555 1_555
C10 C9 1_555 1_555
H8 C10 1_555 1_555
C11 C10 1_555 1_555
H9 C11 1_555 1_555
C12 C7 1_555 1_555
H10 C12 1_555 1_555
H11 O3 1_555 1_555
H12 O6 1_555 1_555
K1_2 O3 1_555 1_555
K1A O5 1_555 1_555
K1A_2 O2 1_555 1_555
O2A K1 1_555 1_555
O3_2 K1 1_555 1_555
O4A K1 1_555 1_555
O5A K1 1_555 1_555
O6A K1 1_555 1_555
P1 O2 1_555 1_555
C5 C6 1_555 1_555
P2 O5 1_555 1_555
O6 K1A_2 1_555 1_555
C11 C12 1_555 1_555
K1A O5A 1_555 1_555
K1A_2 O2A 1_555 1_555

#END
