
#######################################################################
#
#                 Cambridge Crystallographic Data Centre
#                                CCDC 
#
#######################################################################
#
# If this CIF has been generated from an entry in the Cambridge 
# Structural Database, then it will include bibliographic, chemical, 
# crystal, experimental, refinement or atomic coordinate data resulting 
# from the CCDC's data processing and validation procedures.
#
#######################################################################

data_JEBLEI
_symmetry_cell_setting           triclinic
_symmetry_space_group_name_H-M   'P -1'
_symmetry_Int_Tables_number      2
_space_group_name_Hall           '-P 1'
loop_
_symmetry_equiv_pos_site_id
_symmetry_equiv_pos_as_xyz
1 x,y,z
2 -x,-y,-z
_cell_length_a                   5.4561(8)
_cell_length_b                   8.6375(12)
_cell_length_c                   15.235(3)
_cell_angle_alpha                100.255(16)
_cell_angle_beta                 91.167(15)
_cell_angle_gamma                89.902(12)
_cell_volume                     706.363
loop_
_atom_site_label
_atom_site_type_symbol
_atom_site_fract_x
_atom_site_fract_y
_atom_site_fract_z
Li1 Li 0.2495(9) 0.0046(5) 0.9998(3)
P1 P 0.00296(13) 0.22500(7) 0.88431(4)
P2 P 0.49544(13) 0.29946(7) 1.11238(4)
O1 O 0.2754(4) 0.2776(2) 0.88374(13)
H1 H 0.2846 0.3734 0.8994
O2 O -0.1537(4) 0.3662(2) 0.92531(12)
O3 O -0.0157(4) 0.0866(2) 0.93000(12)
O4 O 0.2224(4) 0.3513(2) 1.11277(13)
H2 H 0.2146 0.4451 1.1098
O5 O 0.6473(4) 0.4145(2) 1.06932(11)
H3 H 0.7936 0.4007 1.0786
O6 O 0.5151(4) 0.1318(2) 1.06825(12)
C1 C -0.0885(6) 0.1736(3) 0.76929(17)
C2 C 0.0394(8) 0.2301(4) 0.7041(2)
H4 H 0.1773 0.2930 0.7196
C3 C -0.0386(9) 0.1925(6) 0.6150(2)
H5 H 0.0472 0.2306 0.5712
C4 C -0.2424(9) 0.0992(5) 0.5919(2)
H6 H -0.2930 0.0731 0.5324
C5 C -0.3705(8) 0.0448(5) 0.6569(2)
H7 H -0.5102 -0.0163 0.6413
C6 C -0.2943(7) 0.0799(4) 0.7451(2)
H8 H -0.3807 0.0408 0.7884
C7 C 0.5940(6) 0.3267(3) 1.22656(17)
C8 C 0.4840(8) 0.4370(4) 1.2906(2)
H9 H 0.3497 0.4934 1.2750
C9 C 0.5719(9) 0.4638(5) 1.3775(2)
H10 H 0.4986 0.5393 1.4201
C10 C 0.7675(9) 0.3791(5) 1.4009(2)
H11 H 0.8246 0.3957 1.4598
C11 C 0.8793(8) 0.2706(5) 1.3384(2)
H12 H 1.0130 0.2144 1.3548
C12 C 0.7954(7) 0.2437(4) 1.2513(2)
H13 H 0.8731 0.1701 1.2089
Li1A Li -0.2495(9) -0.0046(5) 1.0002(3)
Li1A_2 Li 0.7505(9) -0.0046(5) 1.0002(3)
O3A O 0.0157(4) -0.0866(2) 1.07000(12)
O6A O 0.4849(4) -0.1318(2) 0.93175(12)
loop_
_geom_bond_atom_site_label_1
_geom_bond_atom_site_label_2
_geom_bond_site_symmetry_1
_geom_bond_site_symmetry_2
Li1 O3 1_555 1_555
P1 O1 1_555 1_555
P2 O4 1_555 1_555
O1 H1 1_555 1_555
O2 P1 1_555 1_555
O3 P1 1_555 1_555
O4 H2 1_555 1_555
O5 P2 1_555 1_555
H3 O5 1_555 1_555
O6 Li1 1_555 1_555
C1 P1 1_555 1_555
C2 C1 1_555 1_555
H4 C2 1_555 1_555
C3 C2 1_555 1_555
H5 C3 1_555 1_555
C4 C3 1_555 1_555
H6 C4 1_555 1_555
C5 C4 1_555 1_555
H7 C5 1_555 1_555
C6 C1 1_555 1_555
H8 C6 1_555 1_555
C7 P2 1_555 1_555
C8 C7 1_555 1_555
H9 C8 1_555 1_555
C9 C8 1_555 1_555
H10 C9 1_555 1_555
C10 C9 1_555 1_555
H11 C10 1_555 1_555
C11 C10 1_555 1_555
H12 C11 1_555 1_555
C12 C7 1_555 1_555
H13 C12 1_555 1_555
Li1A O3 1_555 1_555
Li1A_2 O6 1_555 1_555
O3A Li1 1_555 1_555
O6A Li1 1_555 1_555
P2 O6 1_555 1_555
C5 C6 1_555 1_555
C11 C12 1_555 1_555
Li1A O3A 1_555 1_555
Li1A_2 O6A 1_555 1_555

#END
