
#######################################################################
#
#                 Cambridge Crystallographic Data Centre
#                                CCDC 
#
#######################################################################
#
# If this CIF has been generated from an entry in the Cambridge 
# Structural Database, then it will include bibliographic, chemical, 
# crystal, experimental, refinement or atomic coordinate data resulting 
# from the CCDC's data processing and validation procedures.
#
#######################################################################

data_JEBMAF01
_symmetry_cell_setting           triclinic
_symmetry_space_group_name_H-M   'P -1'
_symmetry_Int_Tables_number      2
_space_group_name_Hall           '-P 1'
loop_
_symmetry_equiv_pos_site_id
_symmetry_equiv_pos_as_xyz
1 x,y,z
2 -x,-y,-z
_cell_length_a                   5.9560(2)
_cell_length_b                   7.8239(3)
_cell_length_c                   16.6133(7)
_cell_angle_alpha                96.913(2)
_cell_angle_beta                 93.046(2)
_cell_angle_gamma                94.081(2)
_cell_volume                     765.099
loop_
_atom_site_label
_atom_site_type_symbol
_atom_site_fract_x
_atom_site_fract_y
_atom_site_fract_z
P1 P 0.83729(12) 0.29285(9) 0.13964(4)
O1 O 0.5820(3) 0.2447(3) 0.12331(13)
O2 O 0.9695(4) 0.1530(3) 0.09641(12)
O3 O 0.8966(3) 0.4636(2) 0.11158(12)
C1 C 0.8986(5) 0.3002(3) 0.24698(17)
C2 C 1.1064(6) 0.3683(4) 0.2816(2)
H1 H 1.2141 0.4109 0.2491
C3 C 1.1561(7) 0.3740(5) 0.3638(2)
H2 H 1.2962 0.4215 0.3864
C4 C 1.0002(7) 0.3100(5) 0.4124(2)
H3 H 1.0337 0.3147 0.4680
C5 C 0.7966(7) 0.2396(6) 0.3790(2)
H4 H 0.6915 0.1940 0.4117
C6 C 0.7443(6) 0.2353(5) 0.2965(2)
H5 H 0.6036 0.1881 0.2743
H6 H 0.548(7) 0.146(5) 0.125(2)
H7 H 0.983(7) 0.059(5) 0.113(3)
Rb1 Rb 1.27149(5) 0.28332(4) -0.016252(16)
P2 P 1.71724(11) 0.17364(8) -0.15259(4)
O4 O 1.9520(3) 0.1113(2) -0.15123(12)
O5 O 1.7263(4) 0.3607(3) -0.10671(13)
O6 O 1.5422(3) 0.0693(2) -0.11347(12)
C7 C 1.6274(5) 0.1877(4) -0.25618(17)
C8 C 1.7519(6) 0.1227(4) -0.31935(19)
H8 H 1.8849 0.0719 -0.3085
C9 C 1.6765(7) 0.1338(5) -0.3993(2)
H9 H 1.7587 0.0887 -0.4418
C10 C 1.4816(7) 0.2110(6) -0.4159(2)
H10 H 1.4345 0.2201 -0.4694
C11 C 1.3571(6) 0.2742(5) -0.3537(2)
H11 H 1.2242 0.3248 -0.3651
C12 C 1.4281(5) 0.2631(4) -0.2739(2)
H12 H 1.3427 0.3062 -0.2319
H13 H 1.812(6) 0.403(5) -0.117(2)
O1_2 O 1.5820(3) 0.2447(3) 0.12331(13)
O3A O 1.1034(3) 0.5364(2) -0.11158(12)
Rb1_2 Rb 0.27149(5) 0.28332(4) -0.016252(16)
Rb1_3 Rb 2.27149(5) 0.28332(4) -0.016252(16)
Rb1A Rb 0.72851(5) 0.71668(4) 0.016252(16)
Rb1A_2 Rb 1.72851(5) 0.71668(4) 0.016252(16)
O4_2 O 0.9520(3) 0.1113(2) -0.15123(12)
O5A O 1.2737(4) 0.6393(3) 0.10671(13)
loop_
_geom_bond_atom_site_label_1
_geom_bond_atom_site_label_2
_geom_bond_site_symmetry_1
_geom_bond_site_symmetry_2
P1 O1 1_555 1_555
O1 H6 1_555 1_555
O2 P1 1_555 1_555
O3 P1 1_555 1_555
C1 P1 1_555 1_555
C2 C1 1_555 1_555
H1 C2 1_555 1_555
C3 C2 1_555 1_555
H2 C3 1_555 1_555
C4 C3 1_555 1_555
H3 C4 1_555 1_555
C5 C4 1_555 1_555
H4 C5 1_555 1_555
C6 C1 1_555 1_555
H5 C6 1_555 1_555
H7 O2 1_555 1_555
Rb1 O2 1_555 1_555
P2 O4 1_555 1_555
O4 Rb1_3 1_555 1_555
O5 Rb1 1_555 1_555
O6 Rb1 1_555 1_555
C7 P2 1_555 1_555
C8 C7 1_555 1_555
H8 C8 1_555 1_555
C9 C8 1_555 1_555
H9 C9 1_555 1_555
C10 C9 1_555 1_555
H10 C10 1_555 1_555
C11 C10 1_555 1_555
H11 C11 1_555 1_555
C12 C7 1_555 1_555
H12 C12 1_555 1_555
H13 O5 1_555 1_555
O1_2 Rb1 1_555 1_555
O3A Rb1 1_555 1_555
Rb1_2 O1 1_555 1_555
Rb1A O3 1_555 1_555
Rb1A_2 O5 1_555 1_555
O4_2 Rb1 1_555 1_555
O5A Rb1 1_555 1_555
O3 Rb1 1_555 1_555
C5 C6 1_555 1_555
P2 O5 1_555 1_555
P2 O6 1_555 1_555
C11 C12 1_555 1_555
O3A Rb1A 1_555 1_555
Rb1A_2 O5A 1_555 1_555

#END
