
#######################################################################
#
#                 Cambridge Crystallographic Data Centre
#                                CCDC 
#
#######################################################################
#
# If this CIF has been generated from an entry in the Cambridge 
# Structural Database, then it will include bibliographic, chemical, 
# crystal, experimental, refinement or atomic coordinate data resulting 
# from the CCDC's data processing and validation procedures.
#
#######################################################################

data_JECFIH
_symmetry_cell_setting           monoclinic
_symmetry_space_group_name_H-M   'C 2/c'
_symmetry_Int_Tables_number      15
_space_group_name_Hall           '-C 2yn'
loop_
_symmetry_equiv_pos_site_id
_symmetry_equiv_pos_as_xyz
1 x,y,z
2 1/2+x,1/2+y,z
3 -x,y,1/2-z
4 1/2-x,1/2+y,1/2-z
5 -x,-y,-z
6 1/2-x,1/2-y,-z
7 x,-y,1/2+z
8 1/2+x,1/2-y,1/2+z
_cell_length_a                   8.5210(4)
_cell_length_b                   21.5643(10)
_cell_length_c                   26.7853(12)
_cell_angle_alpha                90
_cell_angle_beta                 91.0070(10)
_cell_angle_gamma                90
_cell_volume                     4921.02
loop_
_atom_site_label
_atom_site_type_symbol
_atom_site_fract_x
_atom_site_fract_y
_atom_site_fract_z
C1 C 0.1670(7) 0.2782(3) 0.3753(3)
H1 H 0.1791 0.2683 0.3418
C2 C 0.2457(8) 0.3297(3) 0.3943(3)
H2 H 0.3101 0.3533 0.3740
C3 C 0.2271(8) 0.3451(3) 0.4434(3)
H3 H 0.2788 0.3794 0.4567
C4 C 0.1302(7) 0.3092(3) 0.4733(2)
C5 C 0.1038(8) 0.3217(3) 0.5250(3)
H4 H 0.1523 0.3557 0.5401
C6 C 0.0105(8) 0.2853(3) 0.5517(2)
H5 H -0.0068 0.2950 0.5850
C7 C -0.0632(6) 0.2320(3) 0.5308(2)
C8 C -0.1599(7) 0.1917(3) 0.5573(2)
H6 H -0.1791 0.1992 0.5909
C9 C -0.2258(7) 0.1417(3) 0.5343(2)
H7 H -0.2888 0.1145 0.5519
C10 C -0.1976(7) 0.1319(3) 0.4842(2)
H8 H -0.2434 0.0976 0.4687
C11 C -0.0409(6) 0.2183(2) 0.48024(19)
C12 C 0.0578(6) 0.2577(2) 0.4513(2)
C13 C 0.1876(6) 0.0885(3) 0.35292(19)
C14 C 0.3079(6) 0.0445(3) 0.33308(19)
H9 H 0.2883 0.0398 0.2971
C15 C 0.3039(7) -0.0198(3) 0.3567(3)
H10 H 0.3194 -0.0161 0.3926
H11 H 0.2016 -0.0384 0.3506
C16 C 0.4293(7) -0.0614(3) 0.3358(3)
H12 H 0.4073 -0.0687 0.3007
H13 H 0.4270 -0.1011 0.3528
C17 C 0.5936(7) -0.0328(3) 0.3420(3)
H14 H 0.6208 -0.0297 0.3772
H15 H 0.6702 -0.0595 0.3264
C18 C 0.4723(6) 0.0723(2) 0.3406(2)
H16 H 0.4758 0.1129 0.3250
H17 H 0.4937 0.0776 0.3760
C19 C 0.5984(5) 0.0310(2) 0.31834(19)
H18 H 0.5730 0.0261 0.2827
C20 C 0.7584(6) 0.0604(2) 0.32234(19)
C21 C -0.2480(6) 0.2231(3) 0.3009(2)
C22 C -0.3761(10) 0.2595(3) 0.2767(3)
H19 H -0.4366 0.2587 0.3075
C23 C -0.5000 0.2242(3) 0.2500
H20 H -0.5504 0.1975 0.2740
H21 H -0.4496 0.1975 0.2260
C24 C -0.3772(10) 0.3216(3) 0.2765(5)
H22 H -0.2771 0.3346 0.2634
H23 H -0.3779 0.3345 0.3112
C25 C -0.5000 0.3589(4) 0.2500
H24 H -0.5507 0.3855 0.2741
H25 H -0.4493 0.3855 0.2259
N1 N 0.0766(5) 0.2432(2) 0.40234(17)
N2 N -0.1086(5) 0.1689(2) 0.45722(15)
O1 O 0.1518(4) 0.08862(19) 0.39802(13)
O2 O 0.1243(4) 0.12795(18) 0.32316(13)
O3 O 0.8020(4) 0.0795(2) 0.36518(14)
O4 O 0.8391(5) 0.0633(2) 0.28421(14)
O5 O -0.1505(8) 0.1997(3) 0.2750(3)
O6 O -0.2474(7) 0.2184(3) 0.34584(17)
Mn1 Mn 0.0000 0.12699(5) 0.2500
Mn2 Mn -0.05888(9) 0.15940(4) 0.37553(3)
C1B C -0.1670(7) 0.2782(3) 0.1247(3)
H1B H -0.1791 0.2683 0.1582
C2B C -0.2457(8) 0.3297(3) 0.1057(3)
H2B H -0.3101 0.3533 0.1260
C3B C -0.2271(8) 0.3451(3) 0.0566(3)
H3B H -0.2788 0.3794 0.0433
C4B C -0.1302(7) 0.3092(3) 0.0267(2)
C5B C -0.1038(8) 0.3217(3) -0.0250(3)
H4B H -0.1523 0.3557 -0.0401
C6B C -0.0105(8) 0.2853(3) -0.0517(2)
H5B H 0.0068 0.2950 -0.0850
C7B C 0.0632(6) 0.2320(3) -0.0308(2)
C8B C 0.1599(7) 0.1917(3) -0.0573(2)
H6B H 0.1791 0.1992 -0.0909
C9B C 0.2258(7) 0.1417(3) -0.0343(2)
H7B H 0.2888 0.1145 -0.0519
C10B C 0.1976(7) 0.1319(3) 0.0158(2)
H8B H 0.2434 0.0976 0.0313
C11B C 0.0409(6) 0.2183(2) 0.01976(19)
C12B C -0.0578(6) 0.2577(2) 0.0487(2)
C13B C -0.1876(6) 0.0885(3) 0.14708(19)
C14B C -0.3079(6) 0.0445(3) 0.16692(19)
H9B H -0.2883 0.0398 0.2029
C15B C -0.3039(7) -0.0198(3) 0.1433(3)
H10B H -0.3194 -0.0161 0.1074
H11B H -0.2016 -0.0384 0.1494
C16B C -0.4293(7) -0.0614(3) 0.1642(3)
H12B H -0.4073 -0.0687 0.1993
H13B H -0.4270 -0.1011 0.1472
C17B C -0.5936(7) -0.0328(3) 0.1580(3)
H14B H -0.6208 -0.0297 0.1228
H15B H -0.6702 -0.0595 0.1736
C18B C -0.4723(6) 0.0723(2) 0.1594(2)
H16B H -0.4758 0.1129 0.1750
H17B H -0.4937 0.0776 0.1240
C19B C -0.5984(5) 0.0310(2) 0.18166(19)
H18B H -0.5730 0.0261 0.2173
C20B C -0.7584(6) 0.0604(2) 0.17766(19)
C21B C -0.7520(6) 0.2231(3) 0.1991(2)
C22B C -0.6239(10) 0.2595(3) 0.2233(3)
H19B H -0.5634 0.2587 0.1925
C24B C -0.6228(10) 0.3216(3) 0.2235(5)
H22B H -0.7229 0.3346 0.2366
H23B H -0.6221 0.3345 0.1888
N1B N -0.0766(5) 0.2432(2) 0.09766(17)
N2B N 0.1086(5) 0.1689(2) 0.04278(15)
O1B O -0.1518(4) 0.08862(19) 0.10198(13)
O2B O -0.1243(4) 0.12795(18) 0.17684(13)
O3_2 O -0.1980(4) 0.0795(2) 0.36518(14)
O3B O 0.1980(4) 0.0795(2) 0.13482(14)
O3B_2 O -0.8020(4) 0.0795(2) 0.13482(14)
O4B O 0.1609(5) 0.0633(2) 0.21579(14)
O4_2 O -0.1609(5) 0.0633(2) 0.28421(14)
O4B_2 O -0.8391(5) 0.0633(2) 0.21579(14)
O5B O 0.1505(8) 0.1997(3) 0.2250(3)
O5B_2 O -0.8495(8) 0.1997(3) 0.2250(3)
O6B O 0.2474(7) 0.2184(3) 0.15416(17)
O6B_2 O -0.7526(7) 0.2184(3) 0.15416(17)
Mn1_2 Mn 1.0000 0.12699(5) 0.2500
Mn1_3 Mn -1.0000 0.12699(5) 0.2500
Mn2_2 Mn 0.94112(9) 0.15940(4) 0.37553(3)
Mn2B Mn 0.05888(9) 0.15940(4) 0.12447(3)
Mn2B_2 Mn -0.94112(9) 0.15940(4) 0.12447(3)
O7 O 0.238(3) 0.0165(4) 0.4836(3)
O8 O -0.0710(12) -0.0209(4) 0.4328(4)
loop_
_geom_bond_atom_site_label_1
_geom_bond_atom_site_label_2
_geom_bond_site_symmetry_1
_geom_bond_site_symmetry_2
C1 H1 1_555 1_555
C2 C1 1_555 1_555
H2 C2 1_555 1_555
C3 C2 1_555 1_555
H3 C3 1_555 1_555
C4 C3 1_555 1_555
C5 C4 1_555 1_555
H4 C5 1_555 1_555
C6 C5 1_555 1_555
H5 C6 1_555 1_555
C7 C6 1_555 1_555
C8 C7 1_555 1_555
H6 C8 1_555 1_555
C9 C8 1_555 1_555
H7 C9 1_555 1_555
C10 C9 1_555 1_555
H8 C10 1_555 1_555
C11 C7 1_555 1_555
C12 C4 1_555 1_555
C13 C14 1_555 1_555
C14 H9 1_555 1_555
C15 C14 1_555 1_555
H10 C15 1_555 1_555
H11 C15 1_555 1_555
C16 C15 1_555 1_555
H12 C16 1_555 1_555
H13 C16 1_555 1_555
C17 C16 1_555 1_555
H14 C17 1_555 1_555
H15 C17 1_555 1_555
C18 C14 1_555 1_555
H16 C18 1_555 1_555
H17 C18 1_555 1_555
C19 C17 1_555 1_555
H18 C19 1_555 1_555
C20 C19 1_555 1_555
C21 C22 1_555 1_555
C22 H19 1_555 1_555
C23 C22 1_555 1_555
H20 C23 1_555 1_555
H21 C23 1_555 1_555
C24 C22 1_555 1_555
H22 C24 1_555 1_555
H23 C24 1_555 1_555
C25 C24 1_555 1_555
H24 C25 1_555 1_555
H25 C25 1_555 1_555
N1 C1 1_555 1_555
N2 C10 1_555 1_555
O1 C13 1_555 1_555
O2 C13 1_555 1_555
O3 C20 1_555 1_555
O4 C20 1_555 1_555
O5 C21 1_555 1_555
O6 C21 1_555 1_555
Mn1 O2 1_555 1_555
Mn2 N1 1_555 1_555
C1B H1B 1_555 1_555
C2B C1B 1_555 1_555
H2B C2B 1_555 1_555
C3B C2B 1_555 1_555
H3B C3B 1_555 1_555
C4B C3B 1_555 1_555
C5B C4B 1_555 1_555
H4B C5B 1_555 1_555
C6B C5B 1_555 1_555
H5B C6B 1_555 1_555
C7B C6B 1_555 1_555
C8B C7B 1_555 1_555
H6B C8B 1_555 1_555
C9B C8B 1_555 1_555
H7B C9B 1_555 1_555
C10B C9B 1_555 1_555
H8B C10B 1_555 1_555
C11B C7B 1_555 1_555
C12B C4B 1_555 1_555
C13B C14B 1_555 1_555
C14B H9B 1_555 1_555
C15B C14B 1_555 1_555
H10B C15B 1_555 1_555
H11B C15B 1_555 1_555
C16B C15B 1_555 1_555
H12B C16B 1_555 1_555
H13B C16B 1_555 1_555
C17B C16B 1_555 1_555
H14B C17B 1_555 1_555
H15B C17B 1_555 1_555
C18B C14B 1_555 1_555
H16B C18B 1_555 1_555
H17B C18B 1_555 1_555
C19B C17B 1_555 1_555
H18B C19B 1_555 1_555
C20B C19B 1_555 1_555
C21B C22B 1_555 1_555
C22B C23 1_555 1_555
H19B C22B 1_555 1_555
C24B C25 1_555 1_555
H22B C24B 1_555 1_555
H23B C24B 1_555 1_555
N1B C1B 1_555 1_555
N2B C10B 1_555 1_555
O1B C13B 1_555 1_555
O2B Mn1 1_555 1_555
O3_2 Mn2 1_555 1_555
O3B Mn2B 1_555 1_555
O3B_2 C20B 1_555 1_555
O4B Mn1 1_555 1_555
O4_2 Mn1 1_555 1_555
O4B_2 C20B 1_555 1_555
O5B Mn1 1_555 1_555
O5B_2 C21B 1_555 1_555
O6B Mn2B 1_555 1_555
O6B_2 C21B 1_555 1_555
Mn1_2 O4 1_555 1_555
Mn1_3 O4B_2 1_555 1_555
Mn2_2 O3 1_555 1_555
Mn2B N1B 1_555 1_555
Mn2B_2 O3B_2 1_555 1_555
C11 C12 1_555 1_555
C11 N2 1_555 1_555
C12 N1 1_555 1_555
C18 C19 1_555 1_555
N2 Mn2 1_555 1_555
O1 Mn2 1_555 1_555
O2 Mn2 1_555 1_555
O5 Mn1 1_555 1_555
O6 Mn2 1_555 1_555
C11B C12B 1_555 1_555
C11B N2B 1_555 1_555
C12B N1B 1_555 1_555
C13B O2B 1_555 1_555
C18B C19B 1_555 1_555
C22B C24B 1_555 1_555
N2B Mn2B 1_555 1_555
O1B Mn2B 1_555 1_555
O2B Mn2B 1_555 1_555
O5B_2 Mn1_3 1_555 1_555
O6B_2 Mn2B_2 1_555 1_555

#END
