
#######################################################################
#
#                 Cambridge Crystallographic Data Centre
#                                CCDC 
#
#######################################################################
#
# If this CIF has been generated from an entry in the Cambridge 
# Structural Database, then it will include bibliographic, chemical, 
# crystal, experimental, refinement or atomic coordinate data resulting 
# from the CCDC's data processing and validation procedures.
#
#######################################################################

data_JECGII
_symmetry_cell_setting           triclinic
_symmetry_space_group_name_H-M   'P -1'
_symmetry_Int_Tables_number      2
_space_group_name_Hall           '-P 1'
loop_
_symmetry_equiv_pos_site_id
_symmetry_equiv_pos_as_xyz
1 x,y,z
2 -x,-y,-z
_cell_length_a                   8.8827(15)
_cell_length_b                   11.856(2)
_cell_length_c                   12.321(2)
_cell_angle_alpha                76.791(2)
_cell_angle_beta                 87.930(3)
_cell_angle_gamma                68.309(2)
_cell_volume                     1172.11
loop_
_atom_site_label
_atom_site_type_symbol
_atom_site_fract_x
_atom_site_fract_y
_atom_site_fract_z
C1 C 0.6133(3) 0.3898(3) 0.7928(2)
H1 H 0.6262 0.3311 0.8598
C2 C 0.4788(3) 0.5028(3) 0.7756(3)
H2 H 0.4042 0.5181 0.8306
C3 C 0.4584(3) 0.5889(3) 0.6789(3)
H3 H 0.3690 0.6636 0.6669
C4 C 0.5712(3) 0.5664(2) 0.5963(3)
C5 C 0.5599(4) 0.6524(2) 0.4916(3)
H4 H 0.4725 0.7283 0.4758
C6 C 0.6710(4) 0.6265(3) 0.4163(3)
H5 H 0.6607 0.6851 0.3495
C7 C 0.8063(3) 0.5099(2) 0.4363(2)
C8 C 0.9283(4) 0.4779(3) 0.3609(2)
H6 H 0.9257 0.5349 0.2944
C9 C 1.0484(4) 0.3656(3) 0.3842(2)
H7 H 1.1260 0.3426 0.3324
C10 C 1.0562(3) 0.2835(2) 0.48629(19)
H8 H 1.1412 0.2062 0.5018
C11 C 0.8214(3) 0.4220(2) 0.53795(19)
C12 C 0.7028(3) 0.4505(2) 0.6202(2)
C13 C 0.7857(2) 0.0474(2) 0.76792(19)
C14 C 0.6945(3) -0.0395(2) 0.77863(19)
H9 H 0.7764 -0.1233 0.7841
C15 C 0.5855(3) -0.0117(3) 0.6768(2)
H10 H 0.6491 -0.0121 0.6111
H11 H 0.5025 0.0711 0.6680
C16 C 0.5981(3) -0.0468(3) 0.8817(2)
H12 H 0.5124 0.0337 0.8785
H13 H 0.6685 -0.0668 0.9473
C17 C 0.5243(4) -0.1449(3) 0.8914(3)
H14 H 0.6107 -0.2262 0.8996
H15 H 0.4626 -0.1467 0.9579
C18 C 0.5047(3) -0.1056(3) 0.6846(3)
H16 H 0.5867 -0.1859 0.6814
H17 H 0.4289 -0.0792 0.6207
C19 C 0.4145(3) -0.1207(2) 0.7909(2)
H18 H 0.3913 -0.1965 0.7970
C20 C 0.2527(2) -0.0161(2) 0.79078(19)
C21 C 0.9836(3) -0.27148(18) 1.05990(18)
C22 C 0.9749(3) -0.37129(18) 1.00438(17)
H19 H 0.9421 -0.3321 0.9255
C23 C 1.1451(3) -0.47088(19) 1.01006(19)
H20 H 1.1813 -0.5112 1.0874
H21 H 1.2200 -0.4321 0.9771
C24 C 0.8554(3) -0.4314(2) 1.05274(19)
H22 H 0.8849 -0.4709 1.1311
H23 H 0.7474 -0.3677 1.0472
N1 N 0.7229(2) 0.36390(18) 0.71673(17)
N2 N 0.9473(2) 0.31066(16) 0.56293(15)
O1 O 0.8250(2) 0.07539(15) 0.85241(13)
O2 O 0.8245(2) 0.09093(19) 0.67417(15)
O3 O 0.1911(2) 0.06213(16) 0.70286(15)
O4 O 0.1835(2) -0.01506(18) 0.88010(17)
O5 O 1.0239(2) -0.18729(14) 1.00045(13)
O6 O 0.9570(2) -0.28124(14) 1.16180(12)
Mn1 Mn 1.0000 0.0000 1.0000
Mn2 Mn 0.95996(4) 0.19230(3) 0.73578(3)
C1A C 1.3867(3) -0.3898(3) 1.2072(2)
H1A H 1.3738 -0.3311 1.1402
C2A C 1.5212(3) -0.5028(3) 1.2244(3)
H2A H 1.5958 -0.5181 1.1694
C3A C 1.5416(3) -0.5889(3) 1.3211(3)
H3A H 1.6310 -0.6636 1.3331
C4A C 1.4288(3) -0.5664(2) 1.4037(3)
C5A C 1.4401(4) -0.6524(2) 1.5084(3)
H4A H 1.5275 -0.7283 1.5242
C6A C 1.3290(4) -0.6265(3) 1.5837(3)
H5A H 1.3393 -0.6851 1.6505
C7A C 1.1937(3) -0.5099(2) 1.5637(2)
C8A C 1.0717(4) -0.4779(3) 1.6391(2)
H6A H 1.0743 -0.5349 1.7056
C9A C 0.9516(4) -0.3656(3) 1.6158(2)
H7A H 0.8740 -0.3426 1.6676
C10A C 0.9438(3) -0.2835(2) 1.51371(19)
H8A H 0.8588 -0.2062 1.4982
C11A C 1.1786(3) -0.4220(2) 1.46205(19)
C12A C 1.2972(3) -0.4505(2) 1.3798(2)
C13A C 1.2143(2) -0.0474(2) 1.23208(19)
C14A C 1.3055(3) 0.0395(2) 1.22137(19)
H9A H 1.2236 0.1233 1.2159
C15A C 1.4145(3) 0.0117(3) 1.3232(2)
H10A H 1.3509 0.0121 1.3889
H11A H 1.4975 -0.0711 1.3320
C16A C 1.4019(3) 0.0468(3) 1.1183(2)
H12A H 1.4876 -0.0337 1.1215
H13A H 1.3315 0.0668 1.0527
C17A C 1.4757(4) 0.1449(3) 1.1086(3)
H14A H 1.3893 0.2262 1.1004
H15A H 1.5374 0.1467 1.0421
C18A C 1.4953(3) 0.1056(3) 1.3154(3)
H16A H 1.4133 0.1859 1.3186
H17A H 1.5711 0.0792 1.3793
C19A C 1.5855(3) 0.1207(2) 1.2091(2)
H18A H 1.6087 0.1965 1.2030
C20A C 1.7473(2) 0.0161(2) 1.20922(19)
C21A C 1.0164(3) -0.72852(18) 0.94010(18)
C22A C 1.0251(3) -0.62871(18) 0.99562(17)
H19A H 1.0579 -0.6679 1.0745
C23A C 0.8549(3) -0.52912(19) 0.98994(19)
H20A H 0.8187 -0.4888 0.9126
H21A H 0.7800 -0.5679 1.0229
C24A C 1.1446(3) -0.5686(2) 0.94726(19)
H22A H 1.1151 -0.5291 0.8689
H23A H 1.2526 -0.6323 0.9528
N1A N 1.2771(2) -0.36390(18) 1.28327(17)
N2A N 1.0527(2) -0.31066(16) 1.43707(15)
O1A O 1.1750(2) -0.07539(15) 1.14759(13)
O2A O 1.1755(2) -0.09093(19) 1.32583(15)
O3A O 1.8089(2) -0.06213(16) 1.29714(15)
O3_2 O 1.1911(2) 0.06213(16) 0.70286(15)
O3A_2 O 0.8089(2) -0.06213(16) 1.29714(15)
O4A O 1.8165(2) 0.01506(18) 1.11990(17)
O4_2 O 1.1835(2) -0.01506(18) 0.88010(17)
O4A_2 O 0.8165(2) 0.01506(18) 1.11990(17)
O5A O 0.9761(2) -0.81271(14) 0.99955(13)
O5A_2 O 0.9761(2) 0.18729(14) 0.99955(13)
O6A O 1.0430(2) -0.71876(14) 0.83820(12)
O6A_2 O 1.0430(2) 0.28124(14) 0.83820(12)
Mn1_2 Mn 0.0000 0.0000 1.0000
Mn1_3 Mn 1.0000 -1.0000 1.0000
Mn1_4 Mn 2.0000 0.0000 1.0000
Mn2A Mn 1.04004(4) -0.19230(3) 1.26422(3)
Mn2_2 Mn -0.04004(4) 0.19230(3) 0.73578(3)
Mn2_3 Mn 0.95996(4) -0.80770(3) 0.73578(3)
Mn2A_2 Mn 2.04004(4) -0.19230(3) 1.26422(3)
O7 O 1.1130(3) -0.2480(2) 0.7781(2)
H24 H 1.109(4) -0.194(2) 0.7187(14)
H25 H 1.085(3) -0.214(2) 0.8329(15)
O8 O 0.8426(3) 0.1076(2) 0.43809(19)
H26 H 0.872(3) 0.1630(19) 0.397(2)
H27 H 0.856(3) 0.085(2) 0.5088(3)
loop_
_geom_bond_atom_site_label_1
_geom_bond_atom_site_label_2
_geom_bond_site_symmetry_1
_geom_bond_site_symmetry_2
C1 H1 1_555 1_555
C2 C1 1_555 1_555
H2 C2 1_555 1_555
C3 C2 1_555 1_555
H3 C3 1_555 1_555
C4 C3 1_555 1_555
C5 C4 1_555 1_555
H4 C5 1_555 1_555
C6 C5 1_555 1_555
H5 C6 1_555 1_555
C7 C6 1_555 1_555
C8 C7 1_555 1_555
H6 C8 1_555 1_555
C9 C8 1_555 1_555
H7 C9 1_555 1_555
C10 C9 1_555 1_555
H8 C10 1_555 1_555
C11 C7 1_555 1_555
C12 C4 1_555 1_555
C13 C14 1_555 1_555
C14 H9 1_555 1_555
C15 C14 1_555 1_555
H10 C15 1_555 1_555
H11 C15 1_555 1_555
C16 C14 1_555 1_555
H12 C16 1_555 1_555
H13 C16 1_555 1_555
C17 C16 1_555 1_555
H14 C17 1_555 1_555
H15 C17 1_555 1_555
C18 C15 1_555 1_555
H16 C18 1_555 1_555
H17 C18 1_555 1_555
C19 C17 1_555 1_555
H18 C19 1_555 1_555
C20 C19 1_555 1_555
C21 C22 1_555 1_555
C22 H19 1_555 1_555
C23 C22 1_555 1_555
H20 C23 1_555 1_555
H21 C23 1_555 1_555
C24 C22 1_555 1_555
H22 C24 1_555 1_555
H23 C24 1_555 1_555
N1 C1 1_555 1_555
N2 C10 1_555 1_555
O1 C13 1_555 1_555
O2 C13 1_555 1_555
O3 C20 1_555 1_555
O4 C20 1_555 1_555
O5 C21 1_555 1_555
O6 C21 1_555 1_555
O7 H24 1_555 1_555
O8 H26 1_555 1_555
Mn1 O1 1_555 1_555
Mn2 N1 1_555 1_555
H25 O7 1_555 1_555
H27 O8 1_555 1_555
C1A H1A 1_555 1_555
C2A C1A 1_555 1_555
H2A C2A 1_555 1_555
C3A C2A 1_555 1_555
H3A C3A 1_555 1_555
C4A C3A 1_555 1_555
C5A C4A 1_555 1_555
H4A C5A 1_555 1_555
C6A C5A 1_555 1_555
H5A C6A 1_555 1_555
C7A C6A 1_555 1_555
C8A C7A 1_555 1_555
H6A C8A 1_555 1_555
C9A C8A 1_555 1_555
H7A C9A 1_555 1_555
C10A C9A 1_555 1_555
H8A C10A 1_555 1_555
C11A C7A 1_555 1_555
C12A C4A 1_555 1_555
C13A C14A 1_555 1_555
C14A H9A 1_555 1_555
C15A C14A 1_555 1_555
H10A C15A 1_555 1_555
H11A C15A 1_555 1_555
C16A C14A 1_555 1_555
H12A C16A 1_555 1_555
H13A C16A 1_555 1_555
C17A C16A 1_555 1_555
H14A C17A 1_555 1_555
H15A C17A 1_555 1_555
C18A C15A 1_555 1_555
H16A C18A 1_555 1_555
H17A C18A 1_555 1_555
C19A C17A 1_555 1_555
H18A C19A 1_555 1_555
C20A C19A 1_555 1_555
C21A C22A 1_555 1_555
C22A H19A 1_555 1_555
C23A C24 1_555 1_555
H20A C23A 1_555 1_555
H21A C23A 1_555 1_555
C24A C23 1_555 1_555
H22A C24A 1_555 1_555
H23A C24A 1_555 1_555
N1A C1A 1_555 1_555
N2A C10A 1_555 1_555
O1A Mn1 1_555 1_555
O2A C13A 1_555 1_555
O3A C20A 1_555 1_555
O3_2 Mn2 1_555 1_555
O3A_2 Mn2A 1_555 1_555
O4A C20A 1_555 1_555
O4_2 Mn1 1_555 1_555
O4A_2 Mn1 1_555 1_555
O5A C21A 1_555 1_555
O5A_2 Mn1 1_555 1_555
O6A C21A 1_555 1_555
O6A_2 Mn2 1_555 1_555
Mn1_2 O4 1_555 1_555
Mn1_3 O5A 1_555 1_555
Mn1_4 O4A 1_555 1_555
Mn2A O6 1_555 1_555
Mn2_2 O3 1_555 1_555
Mn2_3 O6A 1_555 1_555
Mn2A_2 O3A 1_555 1_555
C11 C12 1_555 1_555
C11 N2 1_555 1_555
C12 N1 1_555 1_555
C18 C19 1_555 1_555
N2 Mn2 1_555 1_555
O1 Mn2 1_555 1_555
O2 Mn2 1_555 1_555
O5 Mn1 1_555 1_555
C11A C12A 1_555 1_555
C11A N2A 1_555 1_555
C12A N1A 1_555 1_555
C13A O1A 1_555 1_555
C18A C19A 1_555 1_555
C22A C23A 1_555 1_555
C22A C24A 1_555 1_555
N1A Mn2A 1_555 1_555
N2A Mn2A 1_555 1_555
O1A Mn2A 1_555 1_555
O2A Mn2A 1_555 1_555

#END
