
#######################################################################
#
#                 Cambridge Crystallographic Data Centre
#                                CCDC 
#
#######################################################################
#
# If this CIF has been generated from an entry in the Cambridge 
# Structural Database, then it will include bibliographic, chemical, 
# crystal, experimental, refinement or atomic coordinate data resulting 
# from the CCDC's data processing and validation procedures.
#
#######################################################################

data_JECRUF
_symmetry_cell_setting           monoclinic
_symmetry_space_group_name_H-M   'C 2/c'
_symmetry_Int_Tables_number      15
_space_group_name_Hall           '-C 2yn'
loop_
_symmetry_equiv_pos_site_id
_symmetry_equiv_pos_as_xyz
1 x,y,z
2 1/2+x,1/2+y,z
3 -x,y,1/2-z
4 1/2-x,1/2+y,1/2-z
5 -x,-y,-z
6 1/2-x,1/2-y,-z
7 x,-y,1/2+z
8 1/2+x,1/2-y,1/2+z
_cell_length_a                   25.409(4)
_cell_length_b                   11.1328(17)
_cell_length_c                   11.7739(17)
_cell_angle_alpha                90
_cell_angle_beta                 115.883(2)
_cell_angle_gamma                90
_cell_volume                     2996.43
loop_
_atom_site_label
_atom_site_type_symbol
_atom_site_fract_x
_atom_site_fract_y
_atom_site_fract_z
Cd1 Cd 0.5000 0.188034(13) 0.2500
F1 F 0.68621(5) 0.68562(10) 0.62400(11)
F2 F 0.80164(5) 0.72021(10) 0.75421(9)
O1 O 0.47306(6) 0.22027(11) 0.42178(10)
O2 O 0.54640(6) 0.10323(15) 0.52155(14)
O3 O 0.49235(6) 0.15945(12) 0.60997(11)
N1 N 0.56653(6) 0.34939(13) 0.33639(13)
N2 N 0.50411(6) 0.16020(12) 0.51879(12)
N3 N 0.43130(6) 0.03127(13) 0.19993(15)
C1 C 0.55268(8) 0.43259(17) 0.40216(17)
C2 C 0.60122(7) 0.38535(16) 0.28373(16)
C3 C 0.57085(8) 0.55052(17) 0.41332(17)
C4 C 0.62077(7) 0.50145(16) 0.29006(17)
C5 C 0.60450(7) 0.58837(15) 0.35444(16)
C6 C 0.62299(8) 0.71849(16) 0.3597(2)
C7 C 0.68853(7) 0.73411(14) 0.43130(16)
C8 C 0.71742(8) 0.71821(15) 0.56089(16)
C9 C 0.77677(7) 0.73474(15) 0.62756(15)
C10 C 0.37015(6) 0.05396(13) 0.15908(14)
C11 C 0.34687(7) 0.05361(16) 0.24546(16)
C12 C 0.28764(8) 0.07318(17) 0.20576(18)
C13 C 0.25137(8) 0.09481(17) 0.08004(18)
C14 C 0.27489(8) 0.09819(19) -0.00551(17)
C15 C 0.33403(7) 0.07831(17) 0.03299(16)
H1 H 0.5289(9) 0.4011(18) 0.4440(19)
H2 H 0.6116(9) 0.3278(17) 0.2389(19)
H3 H 0.5596(9) 0.6082(19) 0.4599(19)
H4 H 0.6429(7) 0.5236(16) 0.2465(16)
H5 H 0.6037(9) 0.762(2) 0.4011(18)
H6 H 0.6111(9) 0.745(2) 0.273(2)
H7 H 0.3721(8) 0.0401(18) 0.3293(18)
H8 H 0.2732(9) 0.0709(17) 0.2652(18)
H9 H 0.2125(9) 0.1046(18) 0.0541(18)
H10 H 0.2514(9) 0.1091(19) -0.085(2)
H11 H 0.3492(8) 0.0819(17) -0.0249(18)
H12 H 0.4431(9) -0.0135(19) 0.2574(19)
H13 H 0.4380(8) -0.0067(19) 0.1413(18)
Cd1G Cd 1.0000 1.311966(13) 0.7500
F1E F 0.81379(5) 0.81438(10) 0.37600(11)
F2E F 0.69836(5) 0.77979(10) 0.24579(9)
O1B O 0.52694(6) 0.22027(11) 0.07822(10)
O2B O 0.45360(6) 0.10323(15) -0.02155(14)
O3B O 0.50765(6) 0.15945(12) -0.10997(11)
N1E N 0.93347(6) 1.15061(13) 0.66361(13)
N1B N 0.43347(6) 0.34939(13) 0.16361(13)
N2B N 0.49589(6) 0.16020(12) -0.01879(12)
N3B N 0.56870(6) 0.03127(13) 0.30007(15)
C1E C 0.94732(8) 1.06741(17) 0.59784(17)
C2E C 0.89878(7) 1.11465(16) 0.71627(16)
C3E C 0.92915(8) 0.94948(17) 0.58668(17)
C4E C 0.87923(7) 0.99855(16) 0.70994(17)
C5E C 0.89550(7) 0.91163(15) 0.64556(16)
C6E C 0.87701(8) 0.78151(16) 0.6403(2)
C7E C 0.81147(7) 0.76589(14) 0.56870(16)
C8E C 0.78258(8) 0.78179(15) 0.43911(16)
C9E C 0.72323(7) 0.76526(15) 0.37244(15)
C10B C 0.62985(6) 0.05396(13) 0.34092(14)
C11B C 0.65313(7) 0.05361(16) 0.25454(16)
C12B C 0.71236(8) 0.07318(17) 0.29424(18)
C13B C 0.74863(8) 0.09481(17) 0.41996(18)
C14B C 0.72511(8) 0.09819(19) 0.50551(17)
C15B C 0.66597(7) 0.07831(17) 0.46701(16)
H1E H 0.9711(9) 1.0989(18) 0.5560(19)
H2E H 0.8884(9) 1.1722(17) 0.7611(19)
H3E H 0.9404(9) 0.8918(19) 0.5401(19)
H4E H 0.8571(7) 0.9764(16) 0.7535(16)
H5E H 0.8963(9) 0.738(2) 0.5989(18)
H6E H 0.8889(9) 0.755(2) 0.727(2)
H7B H 0.6279(8) 0.0401(18) 0.1707(18)
H8B H 0.7268(9) 0.0709(17) 0.2348(18)
H9B H 0.7875(9) 0.1046(18) 0.4459(18)
H10B H 0.7486(9) 0.1091(19) 0.585(2)
H11B H 0.6508(8) 0.0819(17) 0.5249(18)
H12B H 0.5569(9) -0.0135(19) 0.2426(19)
H13B H 0.5620(8) -0.0067(19) 0.3587(18)
loop_
_geom_bond_atom_site_label_1
_geom_bond_atom_site_label_2
_geom_bond_site_symmetry_1
_geom_bond_site_symmetry_2
Cd1 O1 1_555 1_555
F1 C8 1_555 1_555
F2 C9 1_555 1_555
O1 N2 1_555 1_555
O2 N2 1_555 1_555
O3 N2 1_555 1_555
N1 Cd1 1_555 1_555
N3 Cd1 1_555 1_555
C1 N1 1_555 1_555
C2 N1 1_555 1_555
C3 C1 1_555 1_555
C4 C2 1_555 1_555
C5 C3 1_555 1_555
C6 C5 1_555 1_555
C7 C6 1_555 1_555
C8 C7 1_555 1_555
C9 C8 1_555 1_555
C10 N3 1_555 1_555
C11 C10 1_555 1_555
C12 C11 1_555 1_555
C13 C12 1_555 1_555
C14 C13 1_555 1_555
C15 C10 1_555 1_555
H1 C1 1_555 1_555
H2 C2 1_555 1_555
H3 C3 1_555 1_555
H4 C4 1_555 1_555
H5 C6 1_555 1_555
H6 C6 1_555 1_555
H7 C11 1_555 1_555
H8 C12 1_555 1_555
H9 C13 1_555 1_555
H10 C14 1_555 1_555
H11 C15 1_555 1_555
H12 N3 1_555 1_555
H13 N3 1_555 1_555
Cd1G N1E 1_555 1_555
F1E C8E 1_555 1_555
F2E C9E 1_555 1_555
O1B Cd1 1_555 1_555
O2B N2B 1_555 1_555
O3B N2B 1_555 1_555
N1E C1E 1_555 1_555
N1B Cd1 1_555 1_555
N2B O1B 1_555 1_555
N3B Cd1 1_555 1_555
C1E C3E 1_555 1_555
C2E N1E 1_555 1_555
C3E C5E 1_555 1_555
C4E C2E 1_555 1_555
C5E C4E 1_555 1_555
C6E C5E 1_555 1_555
C7E C9 1_555 1_555
C8E C7E 1_555 1_555
C9E C7 1_555 1_555
C10B N3B 1_555 1_555
C11B C10B 1_555 1_555
C12B C11B 1_555 1_555
C13B C12B 1_555 1_555
C14B C13B 1_555 1_555
C15B C10B 1_555 1_555
H1E C1E 1_555 1_555
H2E C2E 1_555 1_555
H3E C3E 1_555 1_555
H4E C4E 1_555 1_555
H5E C6E 1_555 1_555
H6E C6E 1_555 1_555
H7B C11B 1_555 1_555
H8B C12B 1_555 1_555
H9B C13B 1_555 1_555
H10B C14B 1_555 1_555
H11B C15B 1_555 1_555
H12B N3B 1_555 1_555
H13B N3B 1_555 1_555
C4 C5 1_555 1_555
C14 C15 1_555 1_555
C6E C7E 1_555 1_555
C8E C9E 1_555 1_555
C14B C15B 1_555 1_555

#END
