
#######################################################################
#
#                 Cambridge Crystallographic Data Centre
#                                CCDC 
#
#######################################################################
#
# If this CIF has been generated from an entry in the Cambridge 
# Structural Database, then it will include bibliographic, chemical, 
# crystal, experimental, refinement or atomic coordinate data resulting 
# from the CCDC's data processing and validation procedures.
#
#######################################################################

data_JEDCOK01
_symmetry_cell_setting           monoclinic
_symmetry_space_group_name_H-M   'P 21/c'
_symmetry_Int_Tables_number      14
_space_group_name_Hall           '-P 2ybc'
loop_
_symmetry_equiv_pos_site_id
_symmetry_equiv_pos_as_xyz
1 x,y,z
2 -x,1/2+y,1/2-z
3 -x,-y,-z
4 x,1/2-y,1/2+z
_cell_length_a                   7.3004(10)
_cell_length_b                   32.252(4)
_cell_length_c                   6.5364(7)
_cell_angle_alpha                90
_cell_angle_beta                 91.145(15)
_cell_angle_gamma                90
_cell_volume                     1538.7
loop_
_atom_site_label
_atom_site_type_symbol
_atom_site_fract_x
_atom_site_fract_y
_atom_site_fract_z
Ca1 Ca 0.26210(4) -0.273940(8) 0.29568(5)
C1 C 0.17204(19) -0.13960(4) 0.3124(2)
C2 C 0.1297(2) -0.12055(5) 0.4953(3)
H1 H 0.1107 -0.1365 0.6115
C3 C 0.1157(3) -0.07776(5) 0.5055(3)
H2 H 0.0864 -0.0651 0.6284
C4 C 0.1449(3) -0.05397(5) 0.3351(4)
H3 H 0.1353 -0.0253 0.3426
C5 C 0.1884(3) -0.07259(5) 0.1535(4)
H4 H 0.2090 -0.0564 0.0385
C6 C 0.2016(2) -0.11544(5) 0.1406(3)
H5 H 0.2302 -0.1279 0.0171
C7 C 0.18634(19) -0.18595(4) 0.3002(2)
O1 O 0.17715(15) -0.20707(3) 0.46184(16)
O2 O 0.20950(15) -0.20321(3) 0.13105(16)
O5 O 0.51237(15) -0.25169(3) 0.03670(17)
O6 O 0.45748(17) -0.33318(3) 0.2878(2)
O7 O -0.05469(19) -0.29525(6) 0.2976(3)
H11 H 0.581(3) -0.2723(6) 0.003(3)
H12 H 0.579(3) -0.2328(6) 0.074(3)
H13 H 0.519(3) -0.3349(6) 0.186(4)
H14 H 0.535(3) -0.3345(6) 0.385(4)
H15 H -0.108(3) -0.3005(7) 0.399(4)
H16 H -0.111(4) -0.2994(8) 0.196(5)
Ca1C Ca 0.26210(4) -0.226060(8) 0.79568(5)
Ca1C_2 Ca 0.26210(4) -0.226060(8) -0.20432(5)
O1C O 0.17715(15) -0.29293(3) -0.03816(16)
O2C O 0.20950(15) -0.29679(3) 0.63105(16)
O5C O 0.51237(15) -0.24831(3) 0.53670(17)
H11C H 0.581(3) -0.2277(6) 0.503(3)
H12C H 0.579(3) -0.2672(6) 0.574(3)
C8 C 0.6858(2) -0.11229(4) 0.2591(3)
C9 C 0.6439(2) -0.08792(5) 0.4256(3)
H6 H 0.6227 -0.1003 0.5514
C10 C 0.6329(3) -0.04514(5) 0.4071(4)
H7 H 0.6040 -0.0291 0.5202
C11 C 0.6644(3) -0.02649(6) 0.2235(4)
H8 H 0.6570 0.0022 0.2116
C12 C 0.7070(3) -0.05020(6) 0.0565(4)
H9 H 0.7281 -0.0375 -0.0686
C13 C 0.7187(3) -0.09318(5) 0.0738(3)
H10 H 0.7487 -0.1091 -0.0395
C14 C 0.69162(19) -0.15902(4) 0.2786(2)
O3 O 0.70218(15) -0.17981(3) 0.11567(18)
O4 O 0.68227(16) -0.17474(3) 0.45358(18)
loop_
_geom_bond_atom_site_label_1
_geom_bond_atom_site_label_2
_geom_bond_site_symmetry_1
_geom_bond_site_symmetry_2
Ca1 O1 1_555 1_555
C1 C2 1_555 1_555
C2 H1 1_555 1_555
C3 C2 1_555 1_555
H2 C3 1_555 1_555
C4 C3 1_555 1_555
H3 C4 1_555 1_555
C5 C4 1_555 1_555
H4 C5 1_555 1_555
C6 C1 1_555 1_555
H5 C6 1_555 1_555
C7 C1 1_555 1_555
O1 C7 1_555 1_555
O2 Ca1 1_555 1_555
C8 C9 1_555 1_555
C9 H6 1_555 1_555
C10 C9 1_555 1_555
H7 C10 1_555 1_555
C11 C10 1_555 1_555
H8 C11 1_555 1_555
C12 C11 1_555 1_555
H9 C12 1_555 1_555
C13 C8 1_555 1_555
H10 C13 1_555 1_555
C14 C8 1_555 1_555
O3 C14 1_555 1_555
O4 C14 1_555 1_555
O5 Ca1 1_555 1_555
O6 Ca1 1_555 1_555
O7 Ca1 1_555 1_555
H11 O5 1_555 1_555
H12 O5 1_555 1_555
H13 O6 1_555 1_555
H14 O6 1_555 1_555
H15 O7 1_555 1_555
H16 O7 1_555 1_555
Ca1C O1 1_555 1_555
Ca1C_2 O2 1_555 1_555
O1C Ca1 1_555 1_555
O2C Ca1 1_555 1_555
O5C Ca1 1_555 1_555
H11C O5C 1_555 1_555
H12C O5C 1_555 1_555
C5 C6 1_555 1_555
C7 O2 1_555 1_555
C12 C13 1_555 1_555
O5 Ca1C_2 1_555 1_555
Ca1C O2C 1_555 1_555
Ca1C O5C 1_555 1_555
Ca1C_2 O1C 1_555 1_555

#END
