
#######################################################################
#
#                 Cambridge Crystallographic Data Centre
#                                CCDC 
#
#######################################################################
#
# If this CIF has been generated from an entry in the Cambridge 
# Structural Database, then it will include bibliographic, chemical, 
# crystal, experimental, refinement or atomic coordinate data resulting 
# from the CCDC's data processing and validation procedures.
#
#######################################################################

data_JEDSEQ
_symmetry_cell_setting           tetragonal
_symmetry_space_group_name_H-M   'P 4/n n c'
_symmetry_Int_Tables_number      126
_space_group_name_Hall           '-P 4a 2bc'
loop_
_symmetry_equiv_pos_site_id
_symmetry_equiv_pos_as_xyz
1 x,y,z
2 1/2-y,x,z
3 y,1/2-x,z
4 y,x,1/2-z
5 1/2+x,1/2+y,-z
6 1/2+x,-y,1/2+z
7 -x,1/2+y,1/2+z
8 1/2+y,1/2+x,1/2+z
9 -x,-y,-z
10 1/2+y,-x,-z
11 -y,1/2+x,-z
12 -y,-x,1/2+z
13 1/2-x,1/2-y,z
14 1/2-x,y,1/2-z
15 x,1/2-y,1/2-z
16 1/2-y,1/2-x,1/2-z
_cell_length_a                   14.4450(7)
_cell_length_b                   14.4450(7)
_cell_length_c                   27.129(1)
_cell_angle_alpha                90
_cell_angle_beta                 90
_cell_angle_gamma                90
_cell_volume                     5660.68
loop_
_atom_site_label
_atom_site_type_symbol
_atom_site_fract_x
_atom_site_fract_y
_atom_site_fract_z
As1 As -0.7500 0.2500 -0.8983(1)
F1 F -0.775(2) 0.134(2) -0.8937(9)
F2 F -0.7500 0.2500 -0.9586(9)
F3 F -0.7500 0.2500 -0.8385(8)
F1A F -0.634(2) 0.225(2) -0.8937(9)
F1B F -0.866(2) 0.275(2) -0.8937(9)
F1L F -0.725(2) 0.366(2) -0.8937(9)
O3 O -0.177(1) 0.814(1) -0.9011(6)
C12 C -0.7500 0.028(5) -0.7500
O4 O -0.843(2) 0.044(2) -0.761(1)
O4M O -0.657(2) 0.044(2) -0.739(1)
Ag1 Ag -0.2500 0.2500 0.2500
C1 C -0.3764(9) 0.352(1) -0.1031(4)
C2 C -0.4326(9) 0.2886(9) -0.0790(4)
C3 C -0.4432(9) 0.297(1) -0.0280(4)
C4 C -0.3958(8) 0.3675(9) -0.0035(4)
C5 C -0.3356(9) 0.4304(9) -0.0279(4)
C6 C -0.3280(9) 0.4212(9) -0.0764(5)
C7 C -0.4970(9) 0.222(1) 0.0000(5)
C8 C -0.359(1) 0.340(1) -0.1568(5)
N1 N -0.345(1) 0.327(1) -0.1962(4)
O1 O -0.4034(6) 0.3724(6) 0.0468(3)
C9 C -0.482(1) 0.428(1) 0.0636(4)
C10 C -0.476(1) 0.434(1) 0.1193(5)
O2 O -0.4036(9) 0.495(1) 0.1341(4)
C11 C -0.396(2) 0.496(2) 0.1875(7)
H1 H -0.4632 0.2408 -0.0967
H2 H -0.2889 0.4626 -0.0939
H3 H -0.5299 0.1847 -0.0228
H4 H -0.5394 0.2504 0.0221
H5 H -0.5380 0.3997 0.0540
H6 H -0.4780 0.4884 0.0497
H7 H -0.4652 0.3743 0.1324
H8 H -0.5335 0.4572 0.1316
H9 H -0.3470 0.5361 0.1969
H10 H -0.4522 0.5164 0.2015
H11 H -0.3825 0.4349 0.1989
C7I C -0.278(1) 0.4970(9) 0.0000(5)
C3I C -0.203(1) 0.4432(9) 0.0280(4)
C2I C -0.2114(9) 0.4326(9) 0.0790(4)
C1I C -0.148(1) 0.3764(9) 0.1031(4)
C6I C -0.0788(9) 0.3280(9) 0.0764(5)
C5I C -0.0696(9) 0.3356(9) 0.0279(4)
C4I C -0.1325(9) 0.3958(8) 0.0035(4)
O1I O -0.1276(6) 0.4034(6) -0.0468(3)
C9I C -0.072(1) 0.482(1) -0.0636(4)
C10I C -0.066(1) 0.476(1) -0.1193(5)
O2I O -0.005(1) 0.4036(9) -0.1341(4)
C11I C -0.004(2) 0.396(2) -0.1875(7)
H9I H 0.0361 0.3470 -0.1969
H10I H 0.0164 0.4522 -0.2015
H11I H -0.0651 0.3825 -0.1989
H7I H -0.1257 0.4652 -0.1324
H8I H -0.0428 0.5335 -0.1316
H5I H -0.1003 0.5380 -0.0540
H6I H -0.0116 0.4780 -0.0497
C7L C -0.0030(9) 0.278(1) 0.0000(5)
C3L C -0.0568(9) 0.203(1) -0.0280(4)
C2L C -0.0674(9) 0.2114(9) -0.0790(4)
C1L C -0.1236(9) 0.148(1) -0.1031(4)
C6L C -0.1720(9) 0.0788(9) -0.0764(5)
C5L C -0.1644(9) 0.0696(9) -0.0279(4)
C4L C -0.1042(8) 0.1325(9) -0.0035(4)
O1L O -0.0966(6) 0.1276(6) 0.0468(3)
C9L C -0.018(1) 0.072(1) 0.0636(4)
C10L C -0.024(1) 0.066(1) 0.1193(5)
O2L O -0.0964(9) 0.005(1) 0.1341(4)
C11L C -0.104(2) 0.004(2) 0.1875(7)
H9L H -0.1530 -0.0361 0.1969
H10L H -0.0478 -0.0164 0.2015
H11L H -0.1175 0.0651 0.1989
H7L H -0.0348 0.1257 0.1324
H8L H 0.0335 0.0428 0.1316
H5L H 0.0380 0.1003 0.0540
H6L H -0.0220 0.0116 0.0497
C7J C -0.222(1) 0.0030(9) 0.0000(5)
C3J C -0.297(1) 0.0568(9) 0.0280(4)
C2J C -0.2886(9) 0.0674(9) 0.0790(4)
C1J C -0.352(1) 0.1236(9) 0.1031(4)
C6J C -0.4212(9) 0.1720(9) 0.0764(5)
C5J C -0.4304(9) 0.1644(9) 0.0279(4)
C4J C -0.3675(9) 0.1042(8) 0.0035(4)
O1J O -0.3724(6) 0.0966(6) -0.0468(3)
C9J C -0.428(1) 0.018(1) -0.0636(4)
C10J C -0.434(1) 0.024(1) -0.1193(5)
O2J O -0.495(1) 0.0964(9) -0.1341(4)
C11J C -0.496(2) 0.104(2) -0.1875(7)
H9J H -0.5361 0.1530 -0.1969
H10J H -0.5164 0.0478 -0.2015
H11J H -0.4349 0.1175 -0.1989
H7J H -0.3743 0.0348 -0.1324
H8J H -0.4572 -0.0335 -0.1316
H5J H -0.3997 -0.0380 -0.0540
H6J H -0.4884 0.0220 -0.0497
H2J H -0.4626 0.2111 0.0939
C8J C -0.340(1) 0.141(1) 0.1568(5)
N1J N -0.327(1) 0.155(1) 0.1962(4)
Ag1G Ag -0.2500 0.2500 -0.2500
N1I N -0.173(1) 0.345(1) 0.1962(4)
C8I C -0.160(1) 0.359(1) 0.1568(5)
N1K N -0.327(1) 0.345(1) 0.3038(4)
N1G N -0.173(1) 0.155(1) 0.3038(4)
H1J H -0.2408 0.0368 0.0967
H3J H -0.1847 -0.0299 0.0228
H4J H -0.2504 -0.0394 -0.0221
H2L H -0.2111 0.0374 -0.0939
C8L C -0.141(1) 0.160(1) -0.1568(5)
N1L N -0.155(1) 0.173(1) -0.1962(4)
H1L H -0.0368 0.2592 -0.0967
H3L H 0.0299 0.3153 -0.0228
H4L H 0.0394 0.2496 0.0221
H2I H -0.0374 0.2889 0.0939
H1I H -0.2592 0.4632 0.0967
H3I H -0.3153 0.5299 0.0228
H4I H -0.2496 0.5394 -0.0221
F4? F 0.160(2) 0.170(2) 0.090(1)
loop_
_geom_bond_atom_site_label_1
_geom_bond_atom_site_label_2
_geom_bond_site_symmetry_1
_geom_bond_site_symmetry_2
Ag1 N1J 1_555 1_555
C1 C2 1_555 1_555
C2 C3 1_555 1_555
C3 C4 1_555 1_555
C4 C5 1_555 1_555
C5 C6 1_555 1_555
C6 C1 1_555 1_555
C7 C3 1_555 1_555
C8 C1 1_555 1_555
N1 C8 1_555 1_555
O1 C4 1_555 1_555
C9 O1 1_555 1_555
C10 C9 1_555 1_555
O2 C10 1_555 1_555
C11 O2 1_555 1_555
As1 F1 1_555 1_555
F2 As1 1_555 1_555
F3 As1 1_555 1_555
C12 O4 1_555 1_555
H1 C2 1_555 1_555
H2 C6 1_555 1_555
H3 C7 1_555 1_555
H4 C7 1_555 1_555
H5 C9 1_555 1_555
H6 C9 1_555 1_555
H7 C10 1_555 1_555
H8 C10 1_555 1_555
H9 C11 1_555 1_555
H10 C11 1_555 1_555
H11 C11 1_555 1_555
C7I C5 1_555 1_555
C3I C7I 1_555 1_555
C2I C3I 1_555 1_555
C1I C2I 1_555 1_555
C6I C1I 1_555 1_555
C5I C6I 1_555 1_555
C4I C3I 1_555 1_555
O1I C4I 1_555 1_555
C9I O1I 1_555 1_555
C10I C9I 1_555 1_555
O2I C10I 1_555 1_555
C11I O2I 1_555 1_555
H9I C11I 1_555 1_555
H10I C11I 1_555 1_555
H11I C11I 1_555 1_555
H7I C10I 1_555 1_555
H8I C10I 1_555 1_555
H5I C9I 1_555 1_555
H6I C9I 1_555 1_555
C7L C5I 1_555 1_555
C3L C7L 1_555 1_555
C2L C3L 1_555 1_555
C1L C2L 1_555 1_555
C6L C1L 1_555 1_555
C5L C6L 1_555 1_555
C4L C3L 1_555 1_555
O1L C4L 1_555 1_555
C9L O1L 1_555 1_555
C10L C9L 1_555 1_555
O2L C10L 1_555 1_555
C11L O2L 1_555 1_555
H9L C11L 1_555 1_555
H10L C11L 1_555 1_555
H11L C11L 1_555 1_555
H7L C10L 1_555 1_555
H8L C10L 1_555 1_555
H5L C9L 1_555 1_555
H6L C9L 1_555 1_555
C7J C5L 1_555 1_555
C3J C7J 1_555 1_555
C2J C3J 1_555 1_555
C1J C2J 1_555 1_555
C6J C1J 1_555 1_555
C5J C7 1_555 1_555
C4J C3J 1_555 1_555
O1J C4J 1_555 1_555
C9J O1J 1_555 1_555
C10J C9J 1_555 1_555
O2J C10J 1_555 1_555
C11J O2J 1_555 1_555
H9J C11J 1_555 1_555
H10J C11J 1_555 1_555
H11J C11J 1_555 1_555
H7J C10J 1_555 1_555
H8J C10J 1_555 1_555
H5J C9J 1_555 1_555
H6J C9J 1_555 1_555
H2J C6J 1_555 1_555
C8J C1J 1_555 1_555
N1J C8J 1_555 1_555
Ag1G N1 1_555 1_555
N1I Ag1 1_555 1_555
C8I C1I 1_555 1_555
N1K Ag1 1_555 1_555
N1G Ag1 1_555 1_555
H1J C2J 1_555 1_555
H3J C7J 1_555 1_555
H4J C7J 1_555 1_555
H2L C6L 1_555 1_555
C8L C1L 1_555 1_555
N1L Ag1G 1_555 1_555
H1L C2L 1_555 1_555
H3L C7L 1_555 1_555
H4L C7L 1_555 1_555
H2I C6I 1_555 1_555
H1I C2I 1_555 1_555
H3I C7I 1_555 1_555
H4I C7I 1_555 1_555
F1A As1 1_555 1_555
F1B As1 1_555 1_555
F1L As1 1_555 1_555
O4M C12 1_555 1_555
C5I C4I 1_555 1_555
C5L C4L 1_555 1_555
C6J C5J 1_555 1_555
C5J C4J 1_555 1_555
N1I C8I 1_555 1_555
C8L N1L 1_555 1_555

#END
