
#######################################################################
#
#                 Cambridge Crystallographic Data Centre
#                                CCDC 
#
#######################################################################
#
# If this CIF has been generated from an entry in the Cambridge 
# Structural Database, then it will include bibliographic, chemical, 
# crystal, experimental, refinement or atomic coordinate data resulting 
# from the CCDC's data processing and validation procedures.
#
#######################################################################

data_JEDYEX
_symmetry_cell_setting           orthorhombic
_symmetry_space_group_name_H-M   'P b c n'
_symmetry_Int_Tables_number      60
_space_group_name_Hall           '-P 2n 2ab'
loop_
_symmetry_equiv_pos_site_id
_symmetry_equiv_pos_as_xyz
1 x,y,z
2 1/2-x,1/2-y,1/2+z
3 1/2+x,1/2-y,-z
4 -x,y,1/2-z
5 -x,-y,-z
6 1/2+x,1/2+y,1/2-z
7 1/2-x,1/2+y,z
8 x,-y,1/2+z
_cell_length_a                   12.366(4)
_cell_length_b                   15.232(5)
_cell_length_c                   15.191(5)
_cell_angle_alpha                90
_cell_angle_beta                 90
_cell_angle_gamma                90
_cell_volume                     2861.36
loop_
_atom_site_label
_atom_site_type_symbol
_atom_site_fract_x
_atom_site_fract_y
_atom_site_fract_z
Ni1 Ni 0.17925(4) 0.29681(3) 0.07597(3)
C1 C 0.1479(3) 0.6043(2) 0.4476(3)
C2 C 0.1389(3) 0.5331(2) 0.3800(2)
C3 C 0.1469(3) 0.5531(3) 0.2900(3)
H1 H 0.1528 0.6129 0.2727
C4 C 0.1463(3) 0.4892(3) 0.2258(3)
H2 H 0.1483 0.5040 0.1650
C5 C 0.1427(3) 0.4016(2) 0.2535(3)
C6 C 0.1418(4) 0.2608(3) 0.2662(3)
H3 H 0.1433 0.1999 0.2527
C7 C 0.1333(3) 0.3823(2) 0.3432(2)
C8 C 0.1302(3) 0.4469(2) 0.4080(3)
H4 H 0.1226 0.4325 0.4686
C9 C 0.3972(3) 0.6467(2) 0.0831(2)
C10 C 0.4347(3) 0.5550(2) 0.0982(3)
C11 C 0.5418(3) 0.5371(2) 0.1232(3)
H5 H 0.5910 0.5846 0.1300
C12 C 0.5777(3) 0.4524(2) 0.1383(3)
H6 H 0.6498 0.4407 0.1566
C13 C 0.5029(3) 0.3850(2) 0.1254(2)
C14 C 0.4133(3) 0.2613(2) 0.1077(3)
H7 H 0.3986 0.2002 0.1044
C15 C 0.3964(3) 0.4018(2) 0.1003(2)
C16 C 0.3615(3) 0.4874(2) 0.0867(3)
H8 H 0.2889 0.4993 0.0699
N1 N 0.1478(3) 0.3227(2) 0.2062(2)
N2 N 0.1334(3) 0.2924(2) 0.3485(2)
H9 H 0.124(4) 0.259(3) 0.391(4)
N3 N 0.3410(3) 0.3226(2) 0.0900(2)
N4 N 0.5101(3) 0.2948(2) 0.1309(2)
H10 H 0.560(3) 0.268(2) 0.133(2)
O1 O 0.1295(2) 0.58492(16) 0.52761(17)
O2 O 0.1778(2) 0.68106(16) 0.42661(17)
O3 O 0.4633(2) 0.70825(16) 0.06927(17)
O4 O 0.2964(2) 0.66359(17) 0.08699(19)
Ni1G Ni 0.17925(4) 0.70319(3) 0.57597(3)
Ni1F Ni 0.32075(4) 0.79681(3) 0.07597(3)
O1G O 0.1295(2) 0.41508(16) 0.02761(17)
O2G O 0.1778(2) 0.31894(16) -0.07339(17)
O3F O 0.0367(2) 0.20825(16) 0.06927(17)
O4F O 0.2036(2) 0.16359(17) 0.08699(19)
loop_
_geom_bond_atom_site_label_1
_geom_bond_atom_site_label_2
_geom_bond_site_symmetry_1
_geom_bond_site_symmetry_2
Ni1 N1 1_555 1_555
C1 C2 1_555 1_555
C2 C3 1_555 1_555
C3 H1 1_555 1_555
C4 C3 1_555 1_555
H2 C4 1_555 1_555
C5 C4 1_555 1_555
C6 H3 1_555 1_555
C7 C5 1_555 1_555
C8 C2 1_555 1_555
H4 C8 1_555 1_555
C9 C10 1_555 1_555
C10 C11 1_555 1_555
C11 H5 1_555 1_555
C12 C11 1_555 1_555
H6 C12 1_555 1_555
C13 C12 1_555 1_555
C14 H7 1_555 1_555
C15 C13 1_555 1_555
C16 C10 1_555 1_555
H8 C16 1_555 1_555
N1 C5 1_555 1_555
N2 C6 1_555 1_555
H9 N2 1_555 1_555
N3 Ni1 1_555 1_555
N4 C13 1_555 1_555
H10 N4 1_555 1_555
O1 C1 1_555 1_555
O2 C1 1_555 1_555
O3 C9 1_555 1_555
O4 C9 1_555 1_555
Ni1G O1 1_555 1_555
Ni1F O3 1_555 1_555
O1G Ni1 1_555 1_555
O2G Ni1 1_555 1_555
O3F Ni1 1_555 1_555
O4F Ni1 1_555 1_555
C6 N1 1_555 1_555
C7 C8 1_555 1_555
C7 N2 1_555 1_555
C14 N3 1_555 1_555
C14 N4 1_555 1_555
C15 C16 1_555 1_555
C15 N3 1_555 1_555
O2 Ni1G 1_555 1_555
O4 Ni1F 1_555 1_555

#END
