
#######################################################################
#
#                 Cambridge Crystallographic Data Centre
#                                CCDC 
#
#######################################################################
#
# If this CIF has been generated from an entry in the Cambridge 
# Structural Database, then it will include bibliographic, chemical, 
# crystal, experimental, refinement or atomic coordinate data resulting 
# from the CCDC's data processing and validation procedures.
#
#######################################################################

data_JEFTIY
_symmetry_cell_setting           rhombohedral
_symmetry_space_group_name_H-M   'R 3'
_symmetry_Int_Tables_number      146
_space_group_name_Hall           'R 3'
loop_
_symmetry_equiv_pos_site_id
_symmetry_equiv_pos_as_xyz
1 x,y,z
2 -y,x-y,z
3 -x+y,-x,z
4 2/3+x,1/3+y,1/3+z
5 2/3-y,1/3+x-y,1/3+z
6 2/3-x+y,1/3-x,1/3+z
7 1/3+x,2/3+y,2/3+z
8 1/3-y,2/3+x-y,2/3+z
9 1/3-x+y,2/3-x,2/3+z
_cell_length_a                   13.7380(2)
_cell_length_b                   13.7380(2)
_cell_length_c                   32.72480(10)
_cell_angle_alpha                90
_cell_angle_beta                 90
_cell_angle_gamma                120.00
_cell_volume                     5348.78
loop_
_atom_site_label
_atom_site_type_symbol
_atom_site_fract_x
_atom_site_fract_y
_atom_site_fract_z
Cl1 Cl 0.0000 0.0000 0.32136(14)
O2 O -0.0275(9) 0.0695(10) 0.2998(5)
O4 O 0.078(2) -0.002(3) 0.3429(6)
O2A O -0.0695(10) -0.0970(13) 0.2998(5)
O2B O 0.0970(13) 0.0275(9) 0.2998(5)
O4A O 0.002(3) 0.080(4) 0.3429(6)
O4B O -0.080(4) -0.078(2) 0.3429(6)
Cl2 Cl 0.6667 0.3333 0.10005(19)
O1 O 0.7723(7) 0.3611(8) 0.1114(6)
O3 O 0.638(2) 0.371(3) 0.0644(13)
O1A O 0.6389(8) 0.4112(11) 0.1114(6)
O1B O 0.5888(11) 0.2277(7) 0.1114(6)
O3B O 0.733(4) 0.362(2) 0.0644(13)
O3A O 0.629(3) 0.267(4) 0.0644(13)
Cu1 Cu 0.3333 0.6667 0.17188(3)
Cu2 Cu 0.0000 1.0000 0.06529(3)
P1 P 0.3333 0.6667 0.23970(7)
P2 P 0.0000 1.0000 0.13408(8)
N1 N 0.1915(4) 0.6550(4) 0.14447(17)
N2 N -0.0825(4) 0.7379(4) 0.07118(16)
H1 H -0.0148 0.7937 0.0718
N3 N -0.1322(4) 0.8542(4) 0.03841(15)
C1 C -0.2072(6) 0.8655(6) 0.0145(2)
H2 H -0.1875 0.9376 0.0059
C2 C -0.3082(6) 0.7797(7) 0.0021(2)
H3 H -0.3551 0.7917 -0.0150
C3 C -0.3378(6) 0.6747(7) 0.0162(2)
H4 H -0.4079 0.6142 0.0096
C4 C -0.2655(6) 0.6575(6) 0.0399(2)
H5 H -0.2856 0.5858 0.0491
C5 C -0.1614(5) 0.7491(5) 0.04998(18)
C6 C -0.1078(6) 0.6353(6) 0.0929(3)
H6 H -0.1426 0.5720 0.0742
H7 H -0.1606 0.6222 0.1147
C7 C -0.0022(5) 0.6436(5) 0.1106(2)
C8 C 0.0979(6) 0.6868(6) 0.0892(2)
H8 H 0.1021 0.7120 0.0625
C9 C 0.1899(6) 0.6926(6) 0.1069(2)
H9 H 0.2564 0.7250 0.0920
C10 C 0.0940(6) 0.6110(6) 0.1649(2)
H10 H 0.0917 0.5848 0.1913
C11 C -0.0041(5) 0.6021(6) 0.1490(2)
H11 H -0.0702 0.5685 0.1642
C12 C 0.1314(5) 1.0226(6) 0.15712(19)
C13 C 0.1807(7) 1.0935(7) 0.1911(2)
H12 H 0.1467 1.1309 0.2027
C14 C 0.2800(8) 1.1073(8) 0.2070(3)
H13 H 0.3116 1.1519 0.2300
C15 C 0.3318(7) 1.0551(8) 0.1889(3)
H14 H 0.3990 1.0653 0.1996
C16 C 0.2854(7) 0.9881(8) 0.1553(3)
H15 H 0.3224 0.9551 0.1426
C17 C 0.1833(6) 0.9695(6) 0.1401(2)
H16 H 0.1498 0.9206 0.1183
C18 C 0.3011(5) 0.5326(5) 0.26329(19)
C19 C 0.2121(6) 0.4360(6) 0.2474(2)
H17 H 0.1713 0.4412 0.2257
C20 C 0.1829(7) 0.3321(6) 0.2631(3)
H18 H 0.1214 0.2682 0.2524
C21 C 0.2411(8) 0.3219(7) 0.2933(3)
H19 H 0.2227 0.2511 0.3031
C22 C 0.3294(9) 0.4169(8) 0.3103(4)
H20 H 0.3693 0.4102 0.3320
C23 C 0.3591(8) 0.5222(7) 0.2952(3)
H21 H 0.4188 0.5860 0.3068
Cu2_2 Cu 0.0000 0.0000 0.06529(3)
Cu2_3 Cu 1.0000 1.0000 0.06529(3)
N1A N 0.3450(4) 0.5365(6) 0.14447(17)
N1B N 0.4635(6) 0.8085(4) 0.14447(17)
N2A N 0.2621(4) 0.1796(6) 0.07118(16)
N2B N 0.8204(6) 1.0825(4) 0.07118(16)
H1A H 0.2063 0.1915 0.0718
H1B H 0.8085 1.0148 0.0718
N3A N 0.1458(4) 0.0136(6) 0.03841(15)
N3B N 0.9864(6) 1.1322(4) 0.03841(15)
N3A_2 N 0.1458(4) 1.0136(6) 0.03841(15)
N3B_2 N -0.0136(6) 1.1322(4) 0.03841(15)
C1A C 0.1345(6) -0.0727(8) 0.0145(2)
C1B C 1.0727(8) 1.2072(6) 0.0145(2)
H2A H 0.0624 -0.1251 0.0059
H2B H 1.1251 1.1875 0.0059
C2A C 0.2203(7) -0.0879(9) 0.0021(2)
C2B C 1.0879(9) 1.3082(6) 0.0021(2)
H3A H 0.2083 -0.1468 -0.0150
H3B H 1.1468 1.3551 -0.0150
C3A C 0.3253(7) -0.0125(9) 0.0162(2)
C3B C 1.0125(9) 1.3378(6) 0.0162(2)
H4A H 0.3858 -0.0221 0.0096
H4B H 1.0221 1.4079 0.0096
C4A C 0.3425(6) 0.0770(8) 0.0399(2)
C4B C 0.9230(8) 1.2655(6) 0.0399(2)
H5A H 0.4142 0.1286 0.0491
H5B H 0.8714 1.2856 0.0491
C5A C 0.2509(5) 0.0895(7) 0.04998(18)
C5B C 0.9105(7) 1.1614(5) 0.04998(18)
C6A C 0.3647(6) 0.2569(8) 0.0929(3)
C6B C 0.7431(8) 1.1078(6) 0.0929(3)
H6A H 0.4280 0.2854 0.0742
H6B H 0.7146 1.1426 0.0742
H7A H 0.3778 0.2172 0.1147
H7B H 0.7828 1.1606 0.1147
C7A C 0.3564(5) 0.3542(7) 0.1106(2)
C7B C 0.6458(7) 1.0022(5) 0.1106(2)
C8A C 0.3132(6) 0.4111(8) 0.0892(2)
C8B C 0.5889(8) 0.9021(6) 0.0892(2)
H8A H 0.2880 0.3901 0.0625
H8B H 0.6099 0.8979 0.0625
C9A C 0.3074(6) 0.4973(8) 0.1069(2)
C9B C 0.5027(8) 0.8101(6) 0.1069(2)
H9A H 0.2750 0.5314 0.0920
H9B H 0.4686 0.7436 0.0920
C10A C 0.3890(6) 0.4830(8) 0.1649(2)
C10B C 0.5170(8) 0.9060(6) 0.1649(2)
H10A H 0.4152 0.5069 0.1913
H10B H 0.4931 0.9083 0.1913
C11A C 0.3979(6) 0.3938(8) 0.1490(2)
C11B C 0.6062(8) 1.0041(5) 0.1490(2)
H11A H 0.4315 0.3613 0.1642
H11B H 0.6387 1.0702 0.1642
C12A C -0.0226(6) 1.1088(8) 0.15712(19)
C12B C -0.1088(8) 0.8686(5) 0.15712(19)
C13A C -0.0935(7) 1.0872(10) 0.1911(2)
C13B C -0.0872(10) 0.8193(7) 0.1911(2)
H12A H -0.1309 1.0158 0.2027
H12B H -0.0158 0.8533 0.2027
C14A C -0.1073(8) 1.1727(11) 0.2070(3)
C14B C -0.1727(11) 0.7200(8) 0.2070(3)
H13A H -0.1519 1.1597 0.2300
H13B H -0.1597 0.6884 0.2300
C15A C -0.0551(8) 1.2767(11) 0.1889(3)
C15B C -0.2767(11) 0.6682(7) 0.1889(3)
H14A H -0.0653 1.3337 0.1996
H14B H -0.3337 0.6010 0.1996
C16A C 0.0119(8) 1.2973(11) 0.1553(3)
C16B C -0.2973(11) 0.7146(7) 0.1553(3)
H15A H 0.0449 1.3673 0.1426
H15B H -0.3673 0.6776 0.1426
C17A C 0.0305(6) 1.2138(8) 0.1401(2)
C17B C -0.2138(8) 0.8167(6) 0.1401(2)
H16A H 0.0794 1.2292 0.1183
H16B H -0.2292 0.8502 0.1183
C18A C 0.4674(5) 0.7685(7) 0.26329(19)
C18B C 0.2315(7) 0.6989(5) 0.26329(19)
C19A C 0.5640(6) 0.7761(8) 0.2474(2)
C19B C 0.2239(8) 0.7879(6) 0.2474(2)
H17A H 0.5588 0.7301 0.2257
H17B H 0.2699 0.8287 0.2257
C20A C 0.6679(6) 0.8508(9) 0.2631(3)
C20B C 0.1492(9) 0.8171(7) 0.2631(3)
H18A H 0.7318 0.8532 0.2524
H18B H 0.1468 0.8786 0.2524
C21A C 0.6781(7) 0.9192(11) 0.2933(3)
C21B C 0.0808(11) 0.7589(8) 0.2933(3)
H19A H 0.7489 0.9716 0.3031
H19B H 0.0284 0.7773 0.3031
C22A C 0.5831(8) 0.9125(12) 0.3103(4)
C22B C 0.0875(12) 0.6706(9) 0.3103(4)
H20A H 0.5898 0.9591 0.3320
H20B H 0.0409 0.6307 0.3320
C23A C 0.4778(7) 0.8369(11) 0.2952(3)
C23B C 0.1631(11) 0.6409(8) 0.2952(3)
H21A H 0.4140 0.8328 0.3068
H21B H 0.1672 0.5812 0.3068
loop_
_geom_bond_atom_site_label_1
_geom_bond_atom_site_label_2
_geom_bond_site_symmetry_1
_geom_bond_site_symmetry_2
Cu1 P1 1_555 1_555
Cu2 P2 1_555 1_555
P1 C18 1_555 1_555
P2 C12 1_555 1_555
Cl1 O2 1_555 1_555
Cl2 O1 1_555 1_555
O1 O3B 1_555 1_555
O2 O4A 1_555 1_555
N1 Cu1 1_555 1_555
N2 H1 1_555 1_555
N3 Cu2 1_555 1_555
C1 N3 1_555 1_555
H2 C1 1_555 1_555
C2 C1 1_555 1_555
H3 C2 1_555 1_555
C3 C2 1_555 1_555
H4 C3 1_555 1_555
C4 C3 1_555 1_555
H5 C4 1_555 1_555
C5 N2 1_555 1_555
C6 N2 1_555 1_555
H6 C6 1_555 1_555
H7 C6 1_555 1_555
C7 C6 1_555 1_555
C8 C7 1_555 1_555
H8 C8 1_555 1_555
C9 N1 1_555 1_555
H9 C9 1_555 1_555
C10 N1 1_555 1_555
H10 C10 1_555 1_555
C11 C7 1_555 1_555
H11 C11 1_555 1_555
C12 C13 1_555 1_555
C13 H12 1_555 1_555
C14 C13 1_555 1_555
H13 C14 1_555 1_555
C15 C14 1_555 1_555
H14 C15 1_555 1_555
C16 C15 1_555 1_555
H15 C16 1_555 1_555
C17 C12 1_555 1_555
H16 C17 1_555 1_555
C18 C19 1_555 1_555
C19 H17 1_555 1_555
C20 C19 1_555 1_555
H18 C20 1_555 1_555
C21 C20 1_555 1_555
H19 C21 1_555 1_555
C22 C21 1_555 1_555
H20 C22 1_555 1_555
C23 C18 1_555 1_555
H21 C23 1_555 1_555
O3 Cl2 1_555 1_555
O4 Cl1 1_555 1_555
Cu2_2 N3A 1_555 1_555
Cu2_3 N3B 1_555 1_555
O1A Cl2 1_555 1_555
O1B Cl2 1_555 1_555
O2A Cl1 1_555 1_555
O2B Cl1 1_555 1_555
N1A Cu1 1_555 1_555
N1B Cu1 1_555 1_555
N2A H1A 1_555 1_555
N2B H1B 1_555 1_555
N3A C1A 1_555 1_555
N3B C1B 1_555 1_555
N3A_2 Cu2 1_555 1_555
N3B_2 Cu2 1_555 1_555
C1A H2A 1_555 1_555
C1B H2B 1_555 1_555
C2A C1A 1_555 1_555
C2B C1B 1_555 1_555
H3A C2A 1_555 1_555
H3B C2B 1_555 1_555
C3A C2A 1_555 1_555
C3B C2B 1_555 1_555
H4A C3A 1_555 1_555
H4B C3B 1_555 1_555
C4A C3A 1_555 1_555
C4B C3B 1_555 1_555
H5A C4A 1_555 1_555
H5B C4B 1_555 1_555
C5A N2A 1_555 1_555
C5B N2B 1_555 1_555
C6A N2A 1_555 1_555
C6B N2B 1_555 1_555
H6A C6A 1_555 1_555
H6B C6B 1_555 1_555
H7A C6A 1_555 1_555
H7B C6B 1_555 1_555
C7A C6A 1_555 1_555
C7B C6B 1_555 1_555
C8A C7A 1_555 1_555
C8B C7B 1_555 1_555
H8A C8A 1_555 1_555
H8B C8B 1_555 1_555
C9A N1A 1_555 1_555
C9B N1B 1_555 1_555
H9A C9A 1_555 1_555
H9B C9B 1_555 1_555
C10A N1A 1_555 1_555
C10B N1B 1_555 1_555
H10A C10A 1_555 1_555
H10B C10B 1_555 1_555
C11A C7A 1_555 1_555
C11B C7B 1_555 1_555
H11A C11A 1_555 1_555
H11B C11B 1_555 1_555
C12A P2 1_555 1_555
C12B P2 1_555 1_555
C13A C12A 1_555 1_555
C13B C12B 1_555 1_555
H12A C13A 1_555 1_555
H12B C13B 1_555 1_555
C14A C13A 1_555 1_555
C14B C13B 1_555 1_555
H13A C14A 1_555 1_555
H13B C14B 1_555 1_555
C15A C14A 1_555 1_555
C15B C14B 1_555 1_555
H14A C15A 1_555 1_555
H14B C15B 1_555 1_555
C16A C15A 1_555 1_555
C16B C15B 1_555 1_555
H15A C16A 1_555 1_555
H15B C16B 1_555 1_555
C17A C12A 1_555 1_555
C17B C12B 1_555 1_555
H16A C17A 1_555 1_555
H16B C17B 1_555 1_555
C18A P1 1_555 1_555
C18B P1 1_555 1_555
C19A C18A 1_555 1_555
C19B C18B 1_555 1_555
H17A C19A 1_555 1_555
H17B C19B 1_555 1_555
C20A C19A 1_555 1_555
C20B C19B 1_555 1_555
H18A C20A 1_555 1_555
H18B C20B 1_555 1_555
C21A C20A 1_555 1_555
C21B C20B 1_555 1_555
H19A C21A 1_555 1_555
H19B C21B 1_555 1_555
C22A C21A 1_555 1_555
C22B C21B 1_555 1_555
H20A C22A 1_555 1_555
H20B C22B 1_555 1_555
C23A C18A 1_555 1_555
C23B C18B 1_555 1_555
H21A C23A 1_555 1_555
H21B C23B 1_555 1_555
O3B Cl2 1_555 1_555
O3A Cl2 1_555 1_555
O4A Cl1 1_555 1_555
O4B Cl1 1_555 1_555
N3 C5 1_555 1_555
C4 C5 1_555 1_555
C8 C9 1_555 1_555
C10 C11 1_555 1_555
C16 C17 1_555 1_555
C22 C23 1_555 1_555
O3 O1A 1_555 1_555
O3 O3B 1_555 1_555
O3 O3A 1_555 1_555
O4 O2B 1_555 1_555
O1B O3A 1_555 1_555
O2A O4B 1_555 1_555
N3A C5A 1_555 1_555
N3B C5B 1_555 1_555
C4A C5A 1_555 1_555
C4B C5B 1_555 1_555
C8A C9A 1_555 1_555
C8B C9B 1_555 1_555
C10A C11A 1_555 1_555
C10B C11B 1_555 1_555
C16A C17A 1_555 1_555
C16B C17B 1_555 1_555
C22A C23A 1_555 1_555
C22B C23B 1_555 1_555
O3B O3A 1_555 1_555

#END
