
#######################################################################
#
#                 Cambridge Crystallographic Data Centre
#                                CCDC 
#
#######################################################################
#
# If this CIF has been generated from an entry in the Cambridge 
# Structural Database, then it will include bibliographic, chemical, 
# crystal, experimental, refinement or atomic coordinate data resulting 
# from the CCDC's data processing and validation procedures.
#
#######################################################################

data_JEFTOE
_symmetry_cell_setting           monoclinic
_symmetry_space_group_name_H-M   'P 21/c'
_symmetry_Int_Tables_number      14
_space_group_name_Hall           '-P 2ybc'
loop_
_symmetry_equiv_pos_site_id
_symmetry_equiv_pos_as_xyz
1 x,y,z
2 -x,1/2+y,1/2-z
3 -x,-y,-z
4 x,1/2-y,1/2+z
_cell_length_a                   11.352(2)
_cell_length_b                   20.224(4)
_cell_length_c                   13.821(3)
_cell_angle_alpha                90
_cell_angle_beta                 108.20(3)
_cell_angle_gamma                90
_cell_volume                     3014.32
loop_
_atom_site_label
_atom_site_type_symbol
_atom_site_fract_x
_atom_site_fract_y
_atom_site_fract_z
Cd1 Cd 0.18306(4) 0.125379(16) 0.79896(3)
Cd2 Cd -0.16866(4) 0.117948(19) 0.69819(3)
O1 O 0.2465(5) 0.0255(2) 0.8829(4)
O2 O 0.3769(5) 0.1078(3) 0.9269(4)
O3 O 0.1706(5) 0.04492(19) 0.6502(4)
O4 O 0.0117(4) 0.10607(19) 0.6515(3)
O5 O -0.1207(5) 0.0403(2) 0.8254(4)
O6 O 0.0213(4) 0.11620(18) 0.8751(4)
O7 O -0.2751(7) 0.0302(3) 0.6101(6)
O8 O -0.3557(8) 0.1158(3) 0.5553(6)
C1 C 0.3504(6) 0.0473(3) 0.9291(5)
C2 C 0.4455(6) -0.0011(5) 0.9883(7)
H1 H 0.4136 -0.0386 1.0101
C3 C 0.0594(5) 0.0594(2) 0.6141(4)
C4 C -0.0207(5) 0.0245(2) 0.5221(4)
H2 H -0.1029 0.0377 0.4945
C5 C -0.0287(6) 0.0619(2) 0.8899(4)
C6 C 0.0274(5) 0.0258(2) 0.9863(4)
H3 H 0.1039 0.0397 1.0293
C7 C -0.3628(6) 0.0573(3) 0.5576(5)
C8 C -0.4689(8) 0.0198(4) 0.4902(6)
H4 H -0.4886 0.0298 0.4212
C9 C 0.1060(6) 0.2628(3) 0.8940(5)
H5 H 0.0688 0.2333 0.9271
C10 C 0.0971(7) 0.3299(3) 0.9117(6)
H6 H 0.0535 0.3447 0.9543
C11 C 0.1532(9) 0.3731(3) 0.8659(7)
H7 H 0.1500 0.4182 0.8784
C12 C 0.2165(6) 0.3503(3) 0.7994(5)
C13 C 0.2758(8) 0.3936(3) 0.7443(6)
H8 H 0.2728 0.4391 0.7527
C14 C 0.3336(8) 0.3697(3) 0.6828(7)
H9 H 0.3695 0.3987 0.6480
C15 C 0.3425(6) 0.2992(3) 0.6684(5)
C16 C 0.4068(7) 0.2726(4) 0.6067(6)
H10 H 0.4447 0.3000 0.5712
C17 C 0.4133(6) 0.2034(4) 0.5991(6)
H11 H 0.4568 0.1843 0.5593
C18 C 0.3548(6) 0.1649(3) 0.6509(5)
H12 H 0.3606 0.1192 0.6461
C19 C 0.2857(5) 0.2551(3) 0.7192(4)
C20 C 0.2199(5) 0.2822(2) 0.7859(4)
C21 C -0.3369(6) 0.1588(3) 0.8464(5)
H13 H -0.3420 0.1133 0.8528
C22 C -0.3970(6) 0.1977(4) 0.8964(5)
H14 H -0.4439 0.1791 0.9338
C23 C -0.3864(7) 0.2652(4) 0.8899(5)
H15 H -0.4241 0.2927 0.9255
C24 C -0.3195(6) 0.2927(3) 0.8304(5)
C25 C -0.3090(8) 0.3630(3) 0.8156(6)
H16 H -0.3461 0.3921 0.8492
C26 C -0.2477(8) 0.3874(3) 0.7552(6)
H17 H -0.2408 0.4329 0.7487
C27 C -0.1923(5) 0.3426(3) 0.7000(4)
C28 C -0.1267(9) 0.3660(3) 0.6352(7)
H18 H -0.1191 0.4112 0.6259
C29 C -0.0747(7) 0.3217(3) 0.5867(5)
H19 H -0.0334 0.3364 0.5422
C30 C -0.0833(6) 0.2539(3) 0.6038(5)
H20 H -0.0460 0.2243 0.5708
C31 C -0.1964(5) 0.2737(2) 0.7130(4)
C32 C -0.2645(5) 0.2487(3) 0.7794(4)
N1 N 0.1645(4) 0.2384(2) 0.8326(3)
N2 N 0.2897(4) 0.1892(2) 0.7080(3)
N3 N -0.2711(4) 0.1818(2) 0.7888(3)
N4 N -0.1428(4) 0.2303(2) 0.6653(3)
Cd1B Cd 0.81694(4) -0.125379(16) 1.20104(3)
Cd1B_2 Cd -0.18306(4) -0.125379(16) 0.20104(3)
Cd1B_3 Cd -0.18306(4) -0.125379(16) 1.20104(3)
Cd2B Cd 0.16866(4) -0.117948(19) 0.30181(3)
Cd2B_2 Cd 0.16866(4) -0.117948(19) 1.30181(3)
Cd2B_3 Cd -0.83134(4) -0.117948(19) 0.30181(3)
O1B O 0.7535(5) -0.0255(2) 1.1171(4)
O2B O 0.6231(5) -0.1078(3) 1.0731(4)
O3B O -0.1706(5) -0.04492(19) 0.3498(4)
O3B_2 O 0.8294(5) -0.04492(19) 1.3498(4)
O4B O -0.0117(4) -0.10607(19) 0.3485(3)
O4B_2 O 0.9883(4) -0.10607(19) 1.3485(3)
O5B O 0.1207(5) -0.0403(2) 1.1746(4)
O5B_2 O 0.1207(5) -0.0403(2) 0.1746(4)
O6B O -0.0213(4) -0.11620(18) 1.1249(4)
O6B_2 O 0.9787(4) -0.11620(18) 1.1249(4)
O6B_3 O -0.0213(4) -0.11620(18) 0.1249(4)
O7B O -0.7249(7) -0.0302(3) 0.3899(6)
O7B_2 O 0.2751(7) -0.0302(3) 0.3899(6)
O8B O -0.6443(8) -0.1158(3) 0.4447(6)
O8B_2 O 0.3557(8) -0.1158(3) 0.4447(6)
C1B C 0.6496(6) -0.0473(3) 1.0709(5)
C2B C 0.5545(6) 0.0011(5) 1.0117(7)
H1B H 0.5864 0.0386 0.9899
C3B C -0.0594(5) -0.0594(2) 0.3859(4)
C4B C 0.0207(5) -0.0245(2) 0.4779(4)
H2B H 0.1029 -0.0377 0.5055
C5B C 0.0287(6) -0.0619(2) 1.1101(4)
C6B C -0.0274(5) -0.0258(2) 1.0137(4)
H3B H -0.1039 -0.0397 0.9707
C7B C -0.6372(6) -0.0573(3) 0.4424(5)
C8B C -0.5311(8) -0.0198(4) 0.5098(6)
H4B H -0.5114 -0.0298 0.5788
C9B C 0.8940(6) -0.2628(3) 1.1060(5)
H5B H 0.9312 -0.2333 1.0729
C10B C 0.9029(7) -0.3299(3) 1.0883(6)
H6B H 0.9465 -0.3447 1.0457
C11B C 0.8468(9) -0.3731(3) 1.1341(7)
H7B H 0.8500 -0.4182 1.1216
C12B C 0.7835(6) -0.3503(3) 1.2006(5)
C13B C 0.7242(8) -0.3936(3) 1.2557(6)
H8B H 0.7272 -0.4391 1.2473
C14B C 0.6664(8) -0.3697(3) 1.3172(7)
H9B H 0.6305 -0.3987 1.3520
C15B C 0.6575(6) -0.2992(3) 1.3316(5)
C16B C 0.5932(7) -0.2726(4) 1.3933(6)
H10B H 0.5553 -0.3000 1.4288
C17B C 0.5867(6) -0.2034(4) 1.4009(6)
H11B H 0.5432 -0.1843 1.4407
C18B C 0.6452(6) -0.1649(3) 1.3491(5)
H12B H 0.6394 -0.1192 1.3539
C19B C 0.7143(5) -0.2551(3) 1.2808(4)
C20B C 0.7801(5) -0.2822(2) 1.2141(4)
C21B C 0.3369(6) -0.1588(3) 0.1536(5)
H13B H 0.3420 -0.1133 0.1472
C22B C 0.3970(6) -0.1977(4) 0.1036(5)
H14B H 0.4439 -0.1791 0.0662
C23B C 0.3864(7) -0.2652(4) 0.1101(5)
H15B H 0.4241 -0.2927 0.0745
C24B C 0.3195(6) -0.2927(3) 0.1696(5)
C25B C 0.3090(8) -0.3630(3) 0.1844(6)
H16B H 0.3461 -0.3921 0.1508
C26B C 0.2477(8) -0.3874(3) 0.2448(6)
H17B H 0.2408 -0.4329 0.2513
C27B C 0.1923(5) -0.3426(3) 0.3000(4)
C28B C 0.1267(9) -0.3660(3) 0.3648(7)
H18B H 0.1191 -0.4112 0.3741
C29B C 0.0747(7) -0.3217(3) 0.4133(5)
H19B H 0.0334 -0.3364 0.4578
C30B C 0.0833(6) -0.2539(3) 0.3962(5)
H20B H 0.0460 -0.2243 0.4292
C31B C 0.1964(5) -0.2737(2) 0.2870(4)
C32B C 0.2645(5) -0.2487(3) 0.2206(4)
N1B N 0.8355(4) -0.2384(2) 1.1674(3)
N2B N 0.7103(4) -0.1892(2) 1.2920(3)
N3B N 0.2711(4) -0.1818(2) 0.2112(3)
N4B N 0.1428(4) -0.2303(2) 0.3347(3)
loop_
_geom_bond_atom_site_label_1
_geom_bond_atom_site_label_2
_geom_bond_site_symmetry_1
_geom_bond_site_symmetry_2
Cd1 O1 1_555 1_555
Cd2 O4 1_555 1_555
O1 C1 1_555 1_555
O2 Cd1 1_555 1_555
O3 Cd1 1_555 1_555
O4 Cd1 1_555 1_555
O5 Cd2 1_555 1_555
O6 Cd1 1_555 1_555
O7 Cd2 1_555 1_555
O8 Cd2 1_555 1_555
C1 O2 1_555 1_555
C2 C1 1_555 1_555
H1 C2 1_555 1_555
C3 O3 1_555 1_555
C4 C3 1_555 1_555
H2 C4 1_555 1_555
C5 O5 1_555 1_555
C6 C5 1_555 1_555
H3 C6 1_555 1_555
C7 O7 1_555 1_555
C8 C7 1_555 1_555
H4 C8 1_555 1_555
C9 H5 1_555 1_555
C10 C9 1_555 1_555
H6 C10 1_555 1_555
C11 C10 1_555 1_555
H7 C11 1_555 1_555
C12 C11 1_555 1_555
C13 C12 1_555 1_555
H8 C13 1_555 1_555
C14 C13 1_555 1_555
H9 C14 1_555 1_555
C15 C14 1_555 1_555
C16 C15 1_555 1_555
H10 C16 1_555 1_555
C17 C16 1_555 1_555
H11 C17 1_555 1_555
C18 C17 1_555 1_555
H12 C18 1_555 1_555
C19 C15 1_555 1_555
C20 C12 1_555 1_555
C21 H13 1_555 1_555
C22 C21 1_555 1_555
H14 C22 1_555 1_555
C23 C22 1_555 1_555
H15 C23 1_555 1_555
C24 C23 1_555 1_555
C25 C24 1_555 1_555
H16 C25 1_555 1_555
C26 C25 1_555 1_555
H17 C26 1_555 1_555
C27 C26 1_555 1_555
C28 C27 1_555 1_555
H18 C28 1_555 1_555
C29 C28 1_555 1_555
H19 C29 1_555 1_555
C30 C29 1_555 1_555
H20 C30 1_555 1_555
C31 C27 1_555 1_555
C32 C24 1_555 1_555
N1 Cd1 1_555 1_555
N2 Cd1 1_555 1_555
N3 Cd2 1_555 1_555
N4 Cd2 1_555 1_555
Cd1B O1B 1_555 1_555
Cd1B_2 O3B 1_555 1_555
Cd1B_3 O6B 1_555 1_555
Cd2B O4B 1_555 1_555
Cd2B_2 O5B 1_555 1_555
Cd2B_3 O7B 1_555 1_555
O1B C1B 1_555 1_555
O2B Cd1B 1_555 1_555
O3B C3B 1_555 1_555
O3B_2 Cd1B 1_555 1_555
O4B Cd1B_2 1_555 1_555
O4B_2 Cd1B 1_555 1_555
O5B C5B 1_555 1_555
O5B_2 Cd2B 1_555 1_555
O6B Cd2B_2 1_555 1_555
O6B_2 Cd1B 1_555 1_555
O6B_3 Cd1B_2 1_555 1_555
O7B C7B 1_555 1_555
O7B_2 Cd2B 1_555 1_555
O8B Cd2B_3 1_555 1_555
O8B_2 Cd2B 1_555 1_555
C1B O2B 1_555 1_555
C2B C2 1_555 1_555
H1B C2B 1_555 1_555
C3B O4B 1_555 1_555
C4B C4 1_555 1_555
H2B C4B 1_555 1_555
C5B O6B 1_555 1_555
C6B C6 1_555 1_555
H3B C6B 1_555 1_555
C7B O8B 1_555 1_555
C8B C8 1_555 1_555
H4B C8B 1_555 1_555
C9B H5B 1_555 1_555
C10B C9B 1_555 1_555
H6B C10B 1_555 1_555
C11B C10B 1_555 1_555
H7B C11B 1_555 1_555
C12B C11B 1_555 1_555
C13B C12B 1_555 1_555
H8B C13B 1_555 1_555
C14B C13B 1_555 1_555
H9B C14B 1_555 1_555
C15B C14B 1_555 1_555
C16B C15B 1_555 1_555
H10B C16B 1_555 1_555
C17B C16B 1_555 1_555
H11B C17B 1_555 1_555
C18B C17B 1_555 1_555
H12B C18B 1_555 1_555
C19B C15B 1_555 1_555
C20B C12B 1_555 1_555
C21B H13B 1_555 1_555
C22B C21B 1_555 1_555
H14B C22B 1_555 1_555
C23B C22B 1_555 1_555
H15B C23B 1_555 1_555
C24B C23B 1_555 1_555
C25B C24B 1_555 1_555
H16B C25B 1_555 1_555
C26B C25B 1_555 1_555
H17B C26B 1_555 1_555
C27B C26B 1_555 1_555
C28B C27B 1_555 1_555
H18B C28B 1_555 1_555
C29B C28B 1_555 1_555
H19B C29B 1_555 1_555
C30B C29B 1_555 1_555
H20B C30B 1_555 1_555
C31B C27B 1_555 1_555
C32B C24B 1_555 1_555
N1B Cd1B 1_555 1_555
N2B Cd1B 1_555 1_555
N3B Cd2B 1_555 1_555
N4B Cd2B 1_555 1_555
Cd2 O6 1_555 1_555
O4 C3 1_555 1_555
O6 C5 1_555 1_555
O8 C7 1_555 1_555
C9 N1 1_555 1_555
C18 N2 1_555 1_555
C19 C20 1_555 1_555
C19 N2 1_555 1_555
C20 N1 1_555 1_555
C21 N3 1_555 1_555
C30 N4 1_555 1_555
C31 C32 1_555 1_555
C31 N4 1_555 1_555
C32 N3 1_555 1_555
Cd2B O6B_3 1_555 1_555
C1B C2B 1_555 1_555
C3B C4B 1_555 1_555
C5B C6B 1_555 1_555
C7B C8B 1_555 1_555
C9B N1B 1_555 1_555
C18B N2B 1_555 1_555
C19B C20B 1_555 1_555
C19B N2B 1_555 1_555
C20B N1B 1_555 1_555
C21B N3B 1_555 1_555
C30B N4B 1_555 1_555
C31B C32B 1_555 1_555
C31B N4B 1_555 1_555
C32B N3B 1_555 1_555

#END
