
#######################################################################
#
#                 Cambridge Crystallographic Data Centre
#                                CCDC 
#
#######################################################################
#
# If this CIF has been generated from an entry in the Cambridge 
# Structural Database, then it will include bibliographic, chemical, 
# crystal, experimental, refinement or atomic coordinate data resulting 
# from the CCDC's data processing and validation procedures.
#
#######################################################################

data_JEFVUM02
_symmetry_cell_setting           tetragonal
_symmetry_space_group_name_H-M   'P 41 21 2'
_symmetry_Int_Tables_number      92
_space_group_name_Hall           'P 4abw 2nw'
loop_
_symmetry_equiv_pos_site_id
_symmetry_equiv_pos_as_xyz
1 x,y,z
2 -x,-y,1/2+z
3 1/2+x,1/2-y,3/4-z
4 1/2-x,1/2+y,1/4-z
5 -y,-x,1/2-z
6 y,x,-z
7 1/2+y,1/2-x,3/4+z
8 1/2-y,1/2+x,1/4+z
_cell_length_a                   15.089(2)
_cell_length_b                   15.089(2)
_cell_length_c                   24.861(8)
_cell_angle_alpha                90
_cell_angle_beta                 90
_cell_angle_gamma                90
_cell_volume                     5660.3
loop_
_atom_site_label
_atom_site_type_symbol
_atom_site_fract_x
_atom_site_fract_y
_atom_site_fract_z
Cu1 Cu 0.82378(4) 0.16958(4) 0.57668(2)
O1 O 0.9272(2) 0.0926(2) 0.57014(13)
C1 C 1.0622(4) 0.0264(4) 0.5897(3)
F1 F 1.1097(4) -0.0010(4) 0.6283(2)
F2 F 1.1190(3) 0.0685(3) 0.5614(3)
F3 F 1.0422(3) -0.0402(3) 0.5617(2)
C2 C 0.9855(4) 0.0857(3) 0.6050(2)
C3 C 0.9902(4) 0.1263(4) 0.6546(2)
H1 H 1.039(3) 0.120(3) 0.6708(17)
C4 C 0.9235(4) 0.1799(3) 0.6735(2)
C5 C 0.9409(4) 0.2293(4) 0.7262(2)
F4 F 0.9687(3) 0.1765(3) 0.76425(15)
F5 F 1.0000(3) 0.2912(3) 0.71871(17)
F6 F 0.8710(2) 0.2690(2) 0.74572(15)
O2 O 0.8491(2) 0.1945(2) 0.65299(13)
O3 O 0.8123(2) 0.1705(2) 0.49737(12)
C6 C 0.7550(4) 0.1968(5) 0.4118(2)
F7 F 0.6946(3) 0.2302(4) 0.38554(15)
F8 F 0.8282(3) 0.2232(4) 0.39155(16)
F9 F 0.7570(5) 0.1145(3) 0.39876(18)
C7 C 0.7521(3) 0.2089(3) 0.4723(2)
C8 C 0.6847(3) 0.2621(3) 0.4927(2)
H2 H 0.649(2) 0.291(2) 0.4670(15)
C9 C 0.6757(3) 0.2767(3) 0.5468(2)
C10 C 0.5961(4) 0.3321(4) 0.5659(3)
F10 F 0.6218(2) 0.4042(2) 0.59196(13)
F11 F 0.5443(2) 0.3589(3) 0.52625(16)
F12 F 0.5477(2) 0.2869(3) 0.60018(19)
O4 O 0.7232(2) 0.2506(2) 0.58439(14)
O5 O 0.9728(3) 0.5894(2) 0.54263(18)
N1 N 0.9785(3) 0.5058(3) 0.54058(18)
C11 C 1.0547(4) 0.4611(3) 0.5133(2)
C12 C 1.1352(4) 0.4749(5) 0.5522(3)
H3 H 1.1537 0.5357 0.5510
H4 H 1.1833 0.4374 0.5412
H5 H 1.1178 0.4600 0.5882
C13 C 1.0741(7) 0.5018(6) 0.4600(4)
H6 H 1.088(4) 0.556(4) 0.470(2)
H7 H 1.010(5) 0.489(4) 0.451(3)
H8 H 1.124(4) 0.468(4) 0.446(2)
C14 C 1.0246(3) 0.3640(3) 0.5145(2)
C15 C 0.9743(5) 0.3393(6) 0.4632(3)
H9 H 0.960(4) 0.278(4) 0.472(2)
H10 H 1.022(3) 0.332(3) 0.434(2)
H11 H 0.937(4) 0.405(5) 0.444(3)
C16 C 1.0929(5) 0.2946(4) 0.5286(4)
H12 H 1.069(4) 0.240(4) 0.516(2)
H13 H 1.113(4) 0.336(4) 0.566(2)
H14 H 1.136(3) 0.296(3) 0.499(2)
N2 N 0.9570(3) 0.3668(3) 0.55809(16)
O6 O 0.9271(3) 0.2961(2) 0.58031(17)
C17 C 0.9293(3) 0.4481(3) 0.56921(19)
C18 C 0.8622(3) 0.4726(3) 0.60732(19)
C19 C 0.8237(3) 0.4185(3) 0.6465(2)
H15 H 0.827(3) 0.359(3) 0.6522(16)
N3 N 0.7702(2) 0.4686(2) 0.67618(15)
C20 C 0.7263(4) 0.4441(4) 0.7267(2)
H16 H 0.699(2) 0.494(2) 0.7405(15)
H17 H 0.765(3) 0.441(3) 0.7565(17)
C21 C 0.6635(4) 0.3668(4) 0.72218(19)
H18 H 0.692(3) 0.321(3) 0.7043(17)
H19 H 0.616(3) 0.391(3) 0.7065(18)
N4 N 0.7703(2) 0.5542(2) 0.65899(15)
C22 C 0.8256(3) 0.5558(3) 0.61759(18)
H20 H 0.849(3) 0.608(3) 0.6024(18)
Cu1D Cu 0.83042(4) 0.17622(4) 0.92332(2)
Cu1C Cu 0.67622(4) 0.66958(4) 0.67332(2)
Cu1G Cu 0.33042(4) 0.32378(4) 0.82668(2)
O1D O 0.9074(2) 0.0728(2) 0.92986(13)
C1D C 0.9736(4) -0.0622(4) 0.9103(3)
F1D F 1.0010(4) -0.1097(4) 0.8717(2)
F2D F 0.9315(3) -0.1190(3) 0.9386(3)
F3D F 1.0402(3) -0.0422(3) 0.9383(2)
C2D C 0.9143(3) 0.0145(4) 0.8950(2)
C3D C 0.8737(4) 0.0098(4) 0.8454(2)
H1D H 0.880(3) -0.039(3) 0.8292(17)
C4D C 0.8201(3) 0.0765(4) 0.8265(2)
C5D C 0.7707(4) 0.0591(4) 0.7738(2)
F4D F 0.8235(3) 0.0313(3) 0.73575(15)
F5D F 0.7088(3) 0.0000(3) 0.78129(17)
F6D F 0.7310(2) 0.1290(2) 0.75428(15)
O2D O 0.8055(2) 0.1509(2) 0.84701(13)
O3D O 0.8295(2) 0.1877(2) 1.00263(12)
C6D C 0.8032(5) 0.2450(4) 1.0882(2)
F7D F 0.7698(4) 0.3054(3) 1.11446(15)
F8D F 0.7768(4) 0.1718(3) 1.10845(16)
F9D F 0.8855(3) 0.2430(5) 1.10124(18)
C7D C 0.7911(3) 0.2479(3) 1.0277(2)
C8D C 0.7379(3) 0.3153(3) 1.0073(2)
H2D H 0.709(2) 0.351(2) 1.0330(15)
C9D C 0.7233(3) 0.3243(3) 0.9532(2)
C10D C 0.6679(4) 0.4039(4) 0.9341(3)
F10D F 0.5958(2) 0.3782(2) 0.90804(13)
F11D F 0.6411(3) 0.4557(2) 0.97375(16)
F12D F 0.7131(3) 0.4523(2) 0.89982(19)
O4D O 0.7494(2) 0.2768(2) 0.91561(14)
O5D O 0.4106(2) 0.0272(3) 0.95737(18)
N1D N 0.4942(3) 0.0215(3) 0.95942(18)
C11D C 0.5389(3) -0.0547(4) 0.9867(2)
C12D C 0.5251(5) -0.1352(4) 0.9478(3)
H3D H 0.4643 -0.1537 0.9490
H4D H 0.5626 -0.1833 0.9588
H5D H 0.5400 -0.1178 0.9118
C13D C 0.4982(6) -0.0741(7) 1.0400(4)
H6D H 0.444(4) -0.088(4) 1.030(2)
H7D H 0.511(4) -0.010(5) 1.049(3)
H8D H 0.532(4) -0.124(4) 1.054(2)
C14D C 0.6360(3) -0.0246(3) 0.9855(2)
C15D C 0.6607(6) 0.0257(5) 1.0368(3)
H9D H 0.722(4) 0.040(4) 1.028(2)
H10D H 0.668(3) -0.022(3) 1.066(2)
H11D H 0.595(5) 0.063(4) 1.056(3)
C16D C 0.7054(4) -0.0929(5) 0.9714(4)
H12D H 0.760(4) -0.069(4) 0.984(2)
H13D H 0.664(4) -0.113(4) 0.934(2)
H14D H 0.704(3) -0.136(3) 1.001(2)
N2D N 0.6332(3) 0.0430(3) 0.94191(16)
O6D O 0.7039(2) 0.0729(3) 0.91969(17)
C17D C 0.5519(3) 0.0707(3) 0.93079(19)
C18D C 0.5274(3) 0.1378(3) 0.89268(19)
C19D C 0.5815(3) 0.1763(3) 0.8535(2)
H15D H 0.641(3) 0.173(3) 0.8478(16)
N3D N 0.5314(2) 0.2298(2) 0.82382(15)
C20D C 0.5559(4) 0.2737(4) 0.7733(2)
H16D H 0.506(2) 0.301(2) 0.7595(15)
H17D H 0.559(3) 0.235(3) 0.7435(17)
C21D C 0.6332(4) 0.3365(4) 0.77782(19)
H18D H 0.679(3) 0.308(3) 0.7957(17)
H19D H 0.609(3) 0.384(3) 0.7935(18)
N4D N 0.4458(2) 0.2297(2) 0.84101(15)
N4C N 0.7297(2) 0.0542(2) 0.59101(15)
N4G N 0.9458(2) 0.2703(2) 0.90899(15)
C22D C 0.4442(3) 0.1744(3) 0.88241(18)
H20D H 0.392(3) 0.151(3) 0.8976(18)
loop_
_geom_bond_atom_site_label_1
_geom_bond_atom_site_label_2
_geom_bond_site_symmetry_1
_geom_bond_site_symmetry_2
Cu1 O1 1_555 1_555
O1 C2 1_555 1_555
C1 F1 1_555 1_555
F2 C1 1_555 1_555
F3 C1 1_555 1_555
C2 C1 1_555 1_555
C3 C2 1_555 1_555
H1 C3 1_555 1_555
C4 C3 1_555 1_555
C5 C4 1_555 1_555
F4 C5 1_555 1_555
F5 C5 1_555 1_555
F6 C5 1_555 1_555
O2 Cu1 1_555 1_555
O3 Cu1 1_555 1_555
C6 F7 1_555 1_555
F8 C6 1_555 1_555
F9 C6 1_555 1_555
C7 O3 1_555 1_555
C8 C7 1_555 1_555
H2 C8 1_555 1_555
C9 C8 1_555 1_555
C10 C9 1_555 1_555
F10 C10 1_555 1_555
F11 C10 1_555 1_555
F12 C10 1_555 1_555
O4 Cu1 1_555 1_555
O5 N1 1_555 1_555
N1 C11 1_555 1_555
C11 C12 1_555 1_555
C12 H3 1_555 1_555
H4 C12 1_555 1_555
H5 C12 1_555 1_555
C13 C11 1_555 1_555
H6 C13 1_555 1_555
H7 C13 1_555 1_555
H8 C13 1_555 1_555
C14 C11 1_555 1_555
C15 C14 1_555 1_555
H9 C15 1_555 1_555
H10 C15 1_555 1_555
H11 C15 1_555 1_555
C16 C14 1_555 1_555
H12 C16 1_555 1_555
H13 C16 1_555 1_555
H14 C16 1_555 1_555
N2 C14 1_555 1_555
O6 Cu1 1_555 1_555
C17 N1 1_555 1_555
C18 C17 1_555 1_555
C19 C18 1_555 1_555
H15 C19 1_555 1_555
N3 C19 1_555 1_555
C20 N3 1_555 1_555
H16 C20 1_555 1_555
H17 C20 1_555 1_555
C21 C20 1_555 1_555
H18 C21 1_555 1_555
H19 C21 1_555 1_555
N4 N3 1_555 1_555
C22 C18 1_555 1_555
H20 C22 1_555 1_555
Cu1D O1D 1_555 1_555
Cu1C N4 1_555 1_555
Cu1G N4D 1_555 1_555
O1D C2D 1_555 1_555
C1D F1D 1_555 1_555
F2D C1D 1_555 1_555
F3D C1D 1_555 1_555
C2D C1D 1_555 1_555
C3D C2D 1_555 1_555
H1D C3D 1_555 1_555
C4D C3D 1_555 1_555
C5D C4D 1_555 1_555
F4D C5D 1_555 1_555
F5D C5D 1_555 1_555
F6D C5D 1_555 1_555
O2D Cu1D 1_555 1_555
O3D Cu1D 1_555 1_555
C6D F7D 1_555 1_555
F8D C6D 1_555 1_555
F9D C6D 1_555 1_555
C7D O3D 1_555 1_555
C8D C7D 1_555 1_555
H2D C8D 1_555 1_555
C9D C8D 1_555 1_555
C10D C9D 1_555 1_555
F10D C10D 1_555 1_555
F11D C10D 1_555 1_555
F12D C10D 1_555 1_555
O4D Cu1D 1_555 1_555
O5D N1D 1_555 1_555
N1D C11D 1_555 1_555
C11D C12D 1_555 1_555
C12D H3D 1_555 1_555
H4D C12D 1_555 1_555
H5D C12D 1_555 1_555
C13D C11D 1_555 1_555
H6D C13D 1_555 1_555
H7D C13D 1_555 1_555
H8D C13D 1_555 1_555
C14D C11D 1_555 1_555
C15D C14D 1_555 1_555
H9D C15D 1_555 1_555
H10D C15D 1_555 1_555
H11D C15D 1_555 1_555
C16D C14D 1_555 1_555
H12D C16D 1_555 1_555
H13D C16D 1_555 1_555
H14D C16D 1_555 1_555
N2D C14D 1_555 1_555
O6D Cu1D 1_555 1_555
C17D N1D 1_555 1_555
C18D C17D 1_555 1_555
C19D C18D 1_555 1_555
H15D C19D 1_555 1_555
N3D C19D 1_555 1_555
C20D N3D 1_555 1_555
H16D C20D 1_555 1_555
H17D C20D 1_555 1_555
C21D C21 1_555 1_555
H18D C21D 1_555 1_555
H19D C21D 1_555 1_555
N4D N3D 1_555 1_555
N4C Cu1 1_555 1_555
N4G Cu1D 1_555 1_555
C22D C18D 1_555 1_555
H20D C22D 1_555 1_555
C4 O2 1_555 1_555
C6 C7 1_555 1_555
C9 O4 1_555 1_555
N2 O6 1_555 1_555
N2 C17 1_555 1_555
N4 C22 1_555 1_555
C4D O2D 1_555 1_555
C6D C7D 1_555 1_555
C9D O4D 1_555 1_555
N2D O6D 1_555 1_555
N2D C17D 1_555 1_555
C20D C21D 1_555 1_555
N4D C22D 1_555 1_555

#END
