
#######################################################################
#
#                 Cambridge Crystallographic Data Centre
#                                CCDC 
#
#######################################################################
#
# If this CIF has been generated from an entry in the Cambridge 
# Structural Database, then it will include bibliographic, chemical, 
# crystal, experimental, refinement or atomic coordinate data resulting 
# from the CCDC's data processing and validation procedures.
#
#######################################################################

data_JEGNOZ
_symmetry_cell_setting           triclinic
_symmetry_space_group_name_H-M   'P -1'
_symmetry_Int_Tables_number      2
_space_group_name_Hall           '-P 1'
loop_
_symmetry_equiv_pos_site_id
_symmetry_equiv_pos_as_xyz
1 x,y,z
2 -x,-y,-z
_cell_length_a                   7.1317(14)
_cell_length_b                   7.3981(15)
_cell_length_c                   7.5302(15)
_cell_angle_alpha                91.46(3)
_cell_angle_beta                 109.14(3)
_cell_angle_gamma                111.31(3)
_cell_volume                     344.922
loop_
_atom_site_label
_atom_site_type_symbol
_atom_site_fract_x
_atom_site_fract_y
_atom_site_fract_z
Cu1 Cu 0.0000 0.5000 0.0000
O1 O 0.2848(2) 0.6882(2) 0.1690(2)
O2 O 0.3437(3) 0.6889(3) -0.1030(2)
O3 O 0.9164(2) 0.7160(2) 0.92128(19)
N1 N 0.7188(2) 0.8244(2) 0.3764(2)
C1 C 0.4052(3) 0.7341(3) 0.0708(3)
C2 C 0.6441(3) 0.8591(3) 0.1787(3)
H1 H 0.7283 0.8296 0.1126
H2 H 0.6686 0.9970 0.1793
C3 C 0.7332(3) 0.9444(3) 0.5234(3)
H3 H 0.6992 1.0535 0.4991
C4 C 0.7649(4) 0.6642(3) 0.4099(3)
H4 H 0.7514 0.5807 0.3080
C5 C 0.8308(4) 0.6216(3) 0.5894(3)
H5 H 0.8632 0.5110 0.6080
C6 C 0.8504(3) 0.7446(3) 0.7483(3)
C7 C 0.7963(3) 0.9095(3) 0.7059(3)
H6 H 0.8041 0.9945 0.8037
Cu1_2 Cu 1.0000 0.5000 1.0000
Cu1_3 Cu -1.0000 0.5000 -1.0000
O1A O -0.2848(2) 0.3118(2) -0.1690(2)
O2A O -0.3437(3) 0.3111(3) 0.1030(2)
O3A O -0.9164(2) 0.2840(2) -0.92128(19)
O3_2 O -0.0836(2) 0.7160(2) -0.07872(19)
O3A_2 O 0.0836(2) 0.2840(2) 0.07872(19)
N1A N -0.7188(2) 0.1756(2) -0.3764(2)
C1A C -0.4052(3) 0.2659(3) -0.0708(3)
C2A C -0.6441(3) 0.1409(3) -0.1787(3)
H1A H -0.7283 0.1704 -0.1126
H2A H -0.6686 0.0030 -0.1793
C3A C -0.7332(3) 0.0556(3) -0.5234(3)
H3A H -0.6992 -0.0535 -0.4991
C4A C -0.7649(4) 0.3358(3) -0.4099(3)
H4A H -0.7514 0.4193 -0.3080
C5A C -0.8308(4) 0.3784(3) -0.5894(3)
H5A H -0.8632 0.4890 -0.6080
C6A C -0.8504(3) 0.2554(3) -0.7483(3)
C7A C -0.7963(3) 0.0905(3) -0.7059(3)
H6A H -0.8041 0.0055 -0.8037
loop_
_geom_bond_atom_site_label_1
_geom_bond_atom_site_label_2
_geom_bond_site_symmetry_1
_geom_bond_site_symmetry_2
Cu1 O1 1_555 1_555
O1 C1 1_555 1_555
O2 Cu1 1_555 1_555
O3 C6 1_555 1_555
N1 C2 1_555 1_555
C1 O2 1_555 1_555
C2 C1 1_555 1_555
H1 C2 1_555 1_555
H2 C2 1_555 1_555
C3 N1 1_555 1_555
H3 C3 1_555 1_555
C4 N1 1_555 1_555
H4 C4 1_555 1_555
C5 C4 1_555 1_555
H5 C5 1_555 1_555
C6 C5 1_555 1_555
C7 C3 1_555 1_555
H6 C7 1_555 1_555
Cu1_2 O3 1_555 1_555
Cu1_3 O3A 1_555 1_555
O1A Cu1 1_555 1_555
O2A Cu1 1_555 1_555
O3A C6A 1_555 1_555
O3_2 Cu1 1_555 1_555
O3A_2 Cu1 1_555 1_555
N1A C2A 1_555 1_555
C1A O1A 1_555 1_555
C2A C1A 1_555 1_555
H1A C2A 1_555 1_555
H2A C2A 1_555 1_555
C3A N1A 1_555 1_555
H3A C3A 1_555 1_555
C4A N1A 1_555 1_555
H4A C4A 1_555 1_555
C5A C4A 1_555 1_555
H5A C5A 1_555 1_555
C6A C5A 1_555 1_555
C7A C3A 1_555 1_555
H6A C7A 1_555 1_555
C6 C7 1_555 1_555
O2A C1A 1_555 1_555
C6A C7A 1_555 1_555

#END
