
#######################################################################
#
#                 Cambridge Crystallographic Data Centre
#                                CCDC 
#
#######################################################################
#
# If this CIF has been generated from an entry in the Cambridge 
# Structural Database, then it will include bibliographic, chemical, 
# crystal, experimental, refinement or atomic coordinate data resulting 
# from the CCDC's data processing and validation procedures.
#
#######################################################################

data_JEHMUF
_symmetry_cell_setting           orthorhombic
_symmetry_space_group_name_H-M   'P b c n'
_symmetry_Int_Tables_number      60
_space_group_name_Hall           '-P 2n 2ab'
loop_
_symmetry_equiv_pos_site_id
_symmetry_equiv_pos_as_xyz
1 x,y,z
2 1/2-x,1/2-y,1/2+z
3 1/2+x,1/2-y,-z
4 -x,y,1/2-z
5 -x,-y,-z
6 1/2+x,1/2+y,1/2-z
7 1/2-x,1/2+y,z
8 x,-y,1/2+z
_cell_length_a                   13.9245(12)
_cell_length_b                   9.0228(12)
_cell_length_c                   24.088(2)
_cell_angle_alpha                90
_cell_angle_beta                 90
_cell_angle_gamma                90
_cell_volume                     3026.37
loop_
_atom_site_label
_atom_site_type_symbol
_atom_site_fract_x
_atom_site_fract_y
_atom_site_fract_z
Tb1 Tb -0.38838(3) -0.00711(5) 0.055764(14)
C1 C -0.3634(7) 0.1750(9) 0.1494(4)
O1 O -0.3619(6) 0.2318(7) 0.1018(3)
O2 O -0.3887(6) 0.0434(6) 0.1547(2)
C2 C -0.3414(9) 0.2695(10) 0.1988(4)
H1 H -0.3877 0.3496 0.2004
H2 H -0.2784 0.3135 0.1938
C3 C -0.3427(9) 0.1873(11) 0.2542(4)
H3 H -0.3995 0.1250 0.2555
H4 H -0.2870 0.1230 0.2561
C4 C -0.3427(13) 0.2859(13) 0.3034(5)
H5 H -0.3966 0.3538 0.3010
H6 H -0.2842 0.3442 0.3036
C5 C -0.3499(13) 0.1955(13) 0.3591(5)
H7 H -0.3901 0.1094 0.3528
H8 H -0.2863 0.1600 0.3688
C6 C -0.3866(11) 0.2740(14) 0.4042(5)
H9 H -0.4511 0.3070 0.3953
H10 H -0.3474 0.3614 0.4102
C7 C -0.3899(8) 0.1852(9) 0.4570(4)
O3 O -0.4670(5) -0.1159(6) -0.0307(2)
O4 O -0.3180(6) -0.1833(8) -0.0123(4)
C8 C -0.4615(8) -0.2465(9) 0.1149(4)
O5 O -0.5198(5) -0.1542(7) 0.0940(3)
O6 O -0.3757(7) -0.2513(7) 0.1036(4)
C9 C -0.5023(11) -0.3546(14) 0.1593(8)
H11 H -0.5483 -0.4198 0.1414
H12 H -0.4502 -0.4156 0.1731
C10 C -0.5495(17) -0.282(3) 0.2067(8)
H13 H -0.5757 -0.1890 0.1938
H14 H -0.6034 -0.3439 0.2177
C11 C -0.5000 -0.256(7) 0.2500
H15 H -0.4544 -0.1894 0.2326
H16 H -0.5456 -0.1894 0.2674
O7 O -0.2220(4) -0.0077(8) 0.0737(2)
O8 O -0.3393(6) 0.1499(8) -0.0189(3)
Tb1D Tb -0.61162(3) 0.00711(5) -0.055764(14)
Tb1G Tb -0.38838(3) 0.00711(5) -0.444236(14)
Tb1C Tb -0.61162(3) -0.00711(5) 0.444236(14)
Tb1G_2 Tb -0.38838(3) 0.00711(5) 0.555764(14)
C1G C -0.3634(7) -0.1750(9) -0.3506(4)
O1G O -0.3619(6) -0.2318(7) -0.3982(3)
O2G O -0.3887(6) -0.0434(6) -0.3453(2)
C2G C -0.3414(9) -0.2695(10) -0.3012(4)
H1G H -0.3877 -0.3496 -0.2996
H2G H -0.2784 -0.3135 -0.3062
C3G C -0.3427(9) -0.1873(11) -0.2458(4)
H3G H -0.3995 -0.1250 -0.2445
H4G H -0.2870 -0.1230 -0.2439
C4G C -0.3427(13) -0.2859(13) -0.1966(5)
H5G H -0.3966 -0.3538 -0.1990
H6G H -0.2842 -0.3442 -0.1964
C5G C -0.3499(13) -0.1955(13) -0.1409(5)
H7G H -0.3901 -0.1094 -0.1472
H8G H -0.2863 -0.1600 -0.1312
C6G C -0.3866(11) -0.2740(14) -0.0958(5)
H9G H -0.4511 -0.3070 -0.1047
H10G H -0.3474 -0.3614 -0.0898
C7G C -0.3899(8) -0.1852(9) -0.0430(4)
O3D O -0.5330(5) 0.1159(6) 0.0307(2)
O3G O -0.4670(5) 0.1159(6) -0.5307(2)
O3C O -0.5330(5) -0.1159(6) -0.4693(2)
O3G_2 O -0.4670(5) 0.1159(6) 0.4693(2)
O4G O -0.3180(6) 0.1833(8) -0.5123(4)
O4G_2 O -0.3180(6) 0.1833(8) 0.4877(4)
C8C C -0.5385(8) -0.2465(9) 0.3851(4)
O5G O -0.5198(5) 0.1542(7) -0.4060(3)
O5C O -0.4802(5) -0.1542(7) 0.4060(3)
O6G O -0.3757(7) 0.2513(7) -0.3964(4)
O6C O -0.6243(7) -0.2513(7) 0.3964(4)
C9C C -0.4977(11) -0.3546(14) 0.3407(8)
H11C H -0.4517 -0.4198 0.3586
H12C H -0.5498 -0.4156 0.3269
C10C C -0.4505(17) -0.282(3) 0.2933(8)
H13C H -0.4243 -0.1890 0.3062
H14C H -0.3966 -0.3439 0.2823
O7G O -0.2220(4) 0.0077(8) -0.4263(2)
O8G O -0.3393(6) -0.1499(8) -0.5189(3)
loop_
_geom_bond_atom_site_label_1
_geom_bond_atom_site_label_2
_geom_bond_site_symmetry_1
_geom_bond_site_symmetry_2
Tb1 O1 1_555 1_555
C1 O1 1_555 1_555
O2 Tb1 1_555 1_555
C2 C1 1_555 1_555
H1 C2 1_555 1_555
H2 C2 1_555 1_555
C3 C2 1_555 1_555
H3 C3 1_555 1_555
H4 C3 1_555 1_555
C4 C3 1_555 1_555
H5 C4 1_555 1_555
H6 C4 1_555 1_555
C5 C4 1_555 1_555
H7 C5 1_555 1_555
H8 C5 1_555 1_555
C6 C5 1_555 1_555
H9 C6 1_555 1_555
H10 C6 1_555 1_555
C7 C6 1_555 1_555
O3 Tb1 1_555 1_555
O4 Tb1 1_555 1_555
C8 O5 1_555 1_555
O5 Tb1 1_555 1_555
O6 Tb1 1_555 1_555
C9 C8 1_555 1_555
H11 C9 1_555 1_555
H12 C9 1_555 1_555
C10 C9 1_555 1_555
H13 C10 1_555 1_555
H14 C10 1_555 1_555
C11 C10 1_555 1_555
H15 C11 1_555 1_555
H16 C11 1_555 1_555
O7 Tb1 1_555 1_555
O8 Tb1 1_555 1_555
Tb1D O3 1_555 1_555
Tb1G O1G 1_555 1_555
Tb1C O3G_2 1_555 1_555
Tb1G_2 O3G_2 1_555 1_555
C1G O1G 1_555 1_555
O2G Tb1G 1_555 1_555
C2G C1G 1_555 1_555
H1G C2G 1_555 1_555
H2G C2G 1_555 1_555
C3G C2G 1_555 1_555
H3G C3G 1_555 1_555
H4G C3G 1_555 1_555
C4G C3G 1_555 1_555
H5G C4G 1_555 1_555
H6G C4G 1_555 1_555
C5G C4G 1_555 1_555
H7G C5G 1_555 1_555
H8G C5G 1_555 1_555
C6G C5G 1_555 1_555
H9G C6G 1_555 1_555
H10G C6G 1_555 1_555
C7G O3 1_555 1_555
O3D Tb1 1_555 1_555
O3G Tb1G 1_555 1_555
O3C Tb1G 1_555 1_555
O3G_2 C7 1_555 1_555
O4G Tb1G 1_555 1_555
O4G_2 C7 1_555 1_555
C8C O5C 1_555 1_555
O5G Tb1G 1_555 1_555
O5C Tb1C 1_555 1_555
O6G Tb1G 1_555 1_555
O6C Tb1C 1_555 1_555
C9C C8C 1_555 1_555
H11C C9C 1_555 1_555
H12C C9C 1_555 1_555
C10C C11 1_555 1_555
H13C C10C 1_555 1_555
H14C C10C 1_555 1_555
O7G Tb1G 1_555 1_555
O8G Tb1G 1_555 1_555
C1 O2 1_555 1_555
O4 C7G 1_555 1_555
C8 O6 1_555 1_555
Tb1D O3D 1_555 1_555
Tb1G_2 O4G_2 1_555 1_555
C1G O2G 1_555 1_555
C6G C7G 1_555 1_555
C8C O6C 1_555 1_555
C9C C10C 1_555 1_555

#END
