
#######################################################################
#
#                 Cambridge Crystallographic Data Centre
#                                CCDC 
#
#######################################################################
#
# If this CIF has been generated from an entry in the Cambridge 
# Structural Database, then it will include bibliographic, chemical, 
# crystal, experimental, refinement or atomic coordinate data resulting 
# from the CCDC's data processing and validation procedures.
#
#######################################################################

data_JEHTOG
_symmetry_cell_setting           triclinic
_symmetry_space_group_name_H-M   'P -1'
_symmetry_Int_Tables_number      2
_space_group_name_Hall           '-P 1'
loop_
_symmetry_equiv_pos_site_id
_symmetry_equiv_pos_as_xyz
1 x,y,z
2 -x,-y,-z
_cell_length_a                   10.4572(16)
_cell_length_b                   10.4738(13)
_cell_length_c                   10.961(3)
_cell_angle_alpha                97.69(2)
_cell_angle_beta                 118.148(19)
_cell_angle_gamma                93.369(11)
_cell_volume                     1038.76
loop_
_atom_site_label
_atom_site_type_symbol
_atom_site_fract_x
_atom_site_fract_y
_atom_site_fract_z
Zn1 Zn 0.00000 0.50000 0.00000
N1 N 0.35989(16) 0.69976(14) -0.02346(15)
N2 N 0.25036(17) 0.75759(16) -0.11422(17)
N3 N 0.16137(16) 0.61053(14) -0.03262(15)
N4 N 0.28966(16) 0.23559(14) 0.21833(16)
N5 N 0.2161(2) 0.15617(16) 0.09125(18)
N6 N 0.14427(16) 0.35420(14) 0.07894(15)
N7 N 0.11964(16) 0.69089(14) 0.41649(15)
N8 N 0.24153(17) 0.74163(16) 0.41642(17)
N9 N 0.09118(15) 0.60852(13) 0.21109(14)
C1 C 0.1343(2) 0.70124(18) -0.1158(2)
C2 C 0.3053(2) 0.61197(16) 0.02279(19)
C3 C 0.5121(2) 0.73793(18) 0.0114(2)
C4 C 0.5806(2) 0.86650(18) 0.1147(2)
C5 C 0.5050(2) 0.98480(17) 0.06808(19)
C6 C 0.1306(2) 0.23176(19) 0.0110(2)
C7 C 0.24645(19) 0.35185(17) 0.20989(19)
C8 C 0.4008(2) 0.19063(18) 0.3421(2)
C9 C 0.3331(2) 0.08646(19) 0.3859(2)
C10 C 0.4479(2) 0.03889(17) 0.5146(2)
C11 C 0.2193(2) 0.68985(18) 0.29084(19)
C12 C 0.03240(19) 0.61252(16) 0.29549(18)
C13 C 0.1012(2) 0.72010(18) 0.54123(19)
C14 C 0.1101(2) 0.86542(19) 0.5854(2)
C15 C -0.0043(2) 0.92806(19) 0.4742(2)
H1 H 0.043(3) 0.722(2) -0.170(2)
H2 H 0.361(2) 0.566(2) 0.085(2)
H3 H 0.507(2) 0.741(2) -0.074(2)
H4 H 0.562(2) 0.667(2) 0.051(2)
H5 H 0.586(3) 0.857(2) 0.203(3)
H6 H 0.683(3) 0.883(2) 0.133(2)
H7 H 0.560(2) 1.056(2) 0.143(2)
H8 H 0.408(2) 0.974(2) 0.056(2)
H9 H 0.066(3) 0.201(2) -0.081(3)
H10 H 0.284(3) 0.419(2) 0.285(2)
H11 H 0.448(2) 0.268(2) 0.418(2)
H12 H 0.470(2) 0.159(2) 0.315(2)
H13 H 0.261(3) 0.123(2) 0.405(3)
H14 H 0.279(3) 0.018(2) 0.309(3)
H15 H 0.394(3) -0.015(2) 0.544(2)
H16 H 0.501(2) 0.113(2) 0.588(2)
H17 H 0.288(3) 0.704(2) 0.264(3)
H18 H -0.052(3) 0.570(2) 0.276(3)
H19 H 0.176(2) 0.690(2) 0.615(2)
H20 H 0.008(3) 0.674(2) 0.517(2)
H21 H 0.100(3) 0.878(2) 0.671(3)
H22 H 0.212(3) 0.914(3) 0.614(3)
H23 H -0.104(3) 0.881(3) 0.442(3)
H24 H 0.005(3) 0.916(2) 0.386(3)
Zn1_2 Zn 1.00000 1.50000 0.00000
Zn1_3 Zn 1.00000 -0.50000 1.00000
Zn1_4 Zn 0.00000 1.50000 1.00000
N1A N 0.64011(16) 1.30024(14) 0.02346(15)
N2A N 0.74964(17) 1.24241(16) 0.11422(17)
N3A N 0.83863(16) 1.38947(14) 0.03262(15)
N3A_2 N -0.16137(16) 0.38947(14) 0.03262(15)
N4A N 0.71034(16) -0.23559(14) 0.78167(16)
N5A N 0.7839(2) -0.15617(16) 0.90875(18)
N6A N 0.85573(16) -0.35420(14) 0.92106(15)
N6A_2 N -0.14427(16) 0.64580(14) -0.07894(15)
N7A N -0.11964(16) 1.30911(14) 0.58351(15)
N8A N -0.24153(17) 1.25837(16) 0.58358(17)
N9A N -0.09118(15) 1.39148(13) 0.78891(14)
N9A_2 N -0.09118(15) 0.39148(13) -0.21109(14)
C1A C 0.8657(2) 1.29876(18) 0.1158(2)
C2A C 0.6947(2) 1.38803(16) -0.02279(19)
C3A C 0.4879(2) 1.26207(18) -0.0114(2)
C4A C 0.4194(2) 1.13350(18) -0.1147(2)
C5A C 0.4950(2) 1.01520(17) -0.06808(19)
C6A C 0.8694(2) -0.23176(19) 0.9890(2)
C7A C 0.75355(19) -0.35185(17) 0.79011(19)
C8A C 0.5992(2) -0.19063(18) 0.6579(2)
C9A C 0.6669(2) -0.08646(19) 0.6141(2)
C10A C 0.5521(2) -0.03889(17) 0.4854(2)
C11A C -0.2193(2) 1.31015(18) 0.70916(19)
C12A C -0.03240(19) 1.38748(16) 0.70451(18)
C13A C -0.1012(2) 1.27990(18) 0.45877(19)
C14A C -0.1101(2) 1.13458(19) 0.4146(2)
C15A C 0.0043(2) 1.07194(19) 0.5258(2)
H1A H 0.957(3) 1.278(2) 0.170(2)
H2A H 0.639(2) 1.434(2) -0.085(2)
H3A H 0.493(2) 1.259(2) 0.074(2)
H4A H 0.438(2) 1.333(2) -0.051(2)
H5A H 0.414(3) 1.143(2) -0.203(3)
H6A H 0.317(3) 1.117(2) -0.133(2)
H7A H 0.440(2) 0.944(2) -0.143(2)
H8A H 0.592(2) 1.026(2) -0.056(2)
H9A H 0.934(3) -0.201(2) 1.081(3)
H10A H 0.716(3) -0.419(2) 0.715(2)
H11A H 0.552(2) -0.268(2) 0.582(2)
H12A H 0.530(2) -0.159(2) 0.685(2)
H13A H 0.739(3) -0.123(2) 0.595(3)
H14A H 0.721(3) -0.018(2) 0.691(3)
H15A H 0.606(3) 0.015(2) 0.456(2)
H16A H 0.499(2) -0.113(2) 0.412(2)
H17A H -0.288(3) 1.296(2) 0.736(3)
H18A H 0.052(3) 1.430(2) 0.724(3)
H19A H -0.176(2) 1.310(2) 0.385(2)
H20A H -0.008(3) 1.326(2) 0.483(2)
H21A H -0.100(3) 1.122(2) 0.329(3)
H22A H -0.212(3) 1.086(3) 0.386(3)
H23A H 0.104(3) 1.119(3) 0.558(3)
H24A H -0.005(3) 1.084(2) 0.614(3)
Cl1 Cl 0.65500(5) 0.56032(4) 0.35930(5)
O1 O 0.5596(2) 0.6550(2) 0.3414(2)
O2 O 0.76554(19) 0.57436(19) 0.50186(17)
O3 O 0.7211(2) 0.5709(3) 0.2724(2)
O4 O 0.5734(3) 0.4348(2) 0.3123(3)
loop_
_geom_bond_atom_site_label_1
_geom_bond_atom_site_label_2
_geom_bond_site_symmetry_1
_geom_bond_site_symmetry_2
Zn1 N3 1_555 1_555
N1 N2 1_555 1_555
N2 C1 1_555 1_555
N3 C1 1_555 1_555
N4 N5 1_555 1_555
N5 C6 1_555 1_555
N6 Zn1 1_555 1_555
N7 N8 1_555 1_555
N8 C11 1_555 1_555
N9 Zn1 1_555 1_555
C1 H1 1_555 1_555
C2 N1 1_555 1_555
C3 N1 1_555 1_555
C4 C3 1_555 1_555
C5 C4 1_555 1_555
C6 N6 1_555 1_555
C7 N4 1_555 1_555
C8 N4 1_555 1_555
C9 C8 1_555 1_555
C10 C9 1_555 1_555
C11 N9 1_555 1_555
C12 N7 1_555 1_555
C13 N7 1_555 1_555
C14 C13 1_555 1_555
C15 C14 1_555 1_555
Cl1 O1 1_555 1_555
O2 Cl1 1_555 1_555
O3 Cl1 1_555 1_555
O4 Cl1 1_555 1_555
H2 C2 1_555 1_555
H3 C3 1_555 1_555
H4 C3 1_555 1_555
H5 C4 1_555 1_555
H6 C4 1_555 1_555
H7 C5 1_555 1_555
H8 C5 1_555 1_555
H9 C6 1_555 1_555
H10 C7 1_555 1_555
H11 C8 1_555 1_555
H12 C8 1_555 1_555
H13 C9 1_555 1_555
H14 C9 1_555 1_555
H15 C10 1_555 1_555
H16 C10 1_555 1_555
H17 C11 1_555 1_555
H18 C12 1_555 1_555
H19 C13 1_555 1_555
H20 C13 1_555 1_555
H21 C14 1_555 1_555
H22 C14 1_555 1_555
H23 C15 1_555 1_555
H24 C15 1_555 1_555
Zn1_2 N3A 1_555 1_555
Zn1_3 N6A 1_555 1_555
Zn1_4 N9A 1_555 1_555
N1A N2A 1_555 1_555
N2A C1A 1_555 1_555
N3A C1A 1_555 1_555
N3A_2 Zn1 1_555 1_555
N4A N5A 1_555 1_555
N5A C6A 1_555 1_555
N6A C6A 1_555 1_555
N6A_2 Zn1 1_555 1_555
N7A N8A 1_555 1_555
N8A C11A 1_555 1_555
N9A C11A 1_555 1_555
N9A_2 Zn1 1_555 1_555
C1A H1A 1_555 1_555
C2A N1A 1_555 1_555
C3A N1A 1_555 1_555
C4A C3A 1_555 1_555
C5A C5 1_555 1_555
C6A H9A 1_555 1_555
C7A N4A 1_555 1_555
C8A N4A 1_555 1_555
C9A C8A 1_555 1_555
C10A C10 1_555 1_555
C11A H17A 1_555 1_555
C12A N7A 1_555 1_555
C13A N7A 1_555 1_555
C14A C13A 1_555 1_555
C15A C15 1_555 1_555
H2A C2A 1_555 1_555
H3A C3A 1_555 1_555
H4A C3A 1_555 1_555
H5A C4A 1_555 1_555
H6A C4A 1_555 1_555
H7A C5A 1_555 1_555
H8A C5A 1_555 1_555
H10A C7A 1_555 1_555
H11A C8A 1_555 1_555
H12A C8A 1_555 1_555
H13A C9A 1_555 1_555
H14A C9A 1_555 1_555
H15A C10A 1_555 1_555
H16A C10A 1_555 1_555
H18A C12A 1_555 1_555
H19A C13A 1_555 1_555
H20A C13A 1_555 1_555
H21A C14A 1_555 1_555
H22A C14A 1_555 1_555
H23A C15A 1_555 1_555
H24A C15A 1_555 1_555
N3 C2 1_555 1_555
N6 C7 1_555 1_555
N9 C12 1_555 1_555
N3A C2A 1_555 1_555
N6A C7A 1_555 1_555
N9A C12A 1_555 1_555
C4A C5A 1_555 1_555
C9A C10A 1_555 1_555
C14A C15A 1_555 1_555

#END
