
#######################################################################
#
#                 Cambridge Crystallographic Data Centre
#                                CCDC 
#
#######################################################################
#
# If this CIF has been generated from an entry in the Cambridge 
# Structural Database, then it will include bibliographic, chemical, 
# crystal, experimental, refinement or atomic coordinate data resulting 
# from the CCDC's data processing and validation procedures.
#
#######################################################################

data_JEHTUM01
_symmetry_cell_setting           triclinic
_symmetry_space_group_name_H-M   'P -1'
_symmetry_Int_Tables_number      2
_space_group_name_Hall           '-P 1'
loop_
_symmetry_equiv_pos_site_id
_symmetry_equiv_pos_as_xyz
1 x,y,z
2 -x,-y,-z
_cell_length_a                   7.8847(3)
_cell_length_b                   8.6194(4)
_cell_length_c                   9.6966(4)
_cell_angle_alpha                78.4850(10)
_cell_angle_beta                 73.1140(10)
_cell_angle_gamma                67.8320(10)
_cell_volume                     580.949
loop_
_atom_site_label
_atom_site_type_symbol
_atom_site_fract_x
_atom_site_fract_y
_atom_site_fract_z
Mn1 Mn 0.5000 0.5000 0.5000
S1 S 0.20221(12) 0.53991(9) 0.12735(8)
N1 N 0.2553(2) 0.19444(18) 0.86387(15)
N2 N 0.2754(3) 0.1007(2) 0.75964(18)
N3 N 0.3978(2) 0.30584(18) 0.66453(15)
N4 N 0.0295(2) 0.10339(18) 1.32684(15)
N5 N 0.1065(2) 0.1648(2) 1.40256(18)
N6 N -0.2037(2) 0.31029(18) 1.43050(15)
N7 N 0.4175(3) 0.4312(2) 0.33137(18)
C1 C 0.3605(3) 0.1736(2) 0.6425(2)
H1 H 0.3925 0.1369 0.5515
C2 C 0.3282(3) 0.3150(2) 0.80550(19)
H2 H 0.3301 0.3948 0.8564
C3 C 0.1508(3) 0.1635(2) 1.01207(19)
H3 H 0.0405 0.1410 1.0088
H4 H 0.1076 0.2643 1.0608
C4 C 0.2664(3) 0.0178(2) 1.0987(2)
H5 H 0.3597 0.0501 1.1214
H6 H 0.3326 -0.0766 1.0409
C5 C 0.1443(3) -0.0361(2) 1.23863(19)
H7 H 0.0621 -0.0822 1.2156
H8 H 0.2245 -0.1244 1.2942
C6 C -0.0389(3) 0.2886(2) 1.4622(2)
H9 H -0.0297 0.3562 1.5215
C7 C -0.1533(2) 0.1908(2) 1.34478(18)
H10 H -0.2345 0.1709 1.3030
C8 C 0.3306(3) 0.4739(2) 0.2447(2)
Mn1_2 Mn -0.5000 0.5000 1.5000
Mn1_3 Mn 1.5000 0.5000 -0.5000
S1A S 0.79779(12) 0.46009(9) 0.87265(8)
N1_2 N 1.2553(2) 0.19444(18) -0.13613(15)
N2_2 N 1.2754(3) 0.1007(2) -0.24036(18)
N3_2 N 1.3978(2) 0.30584(18) -0.33547(15)
N3A N 0.6022(2) 0.69416(18) 0.33547(15)
N4_2 N 1.0295(2) 0.10339(18) 0.32684(15)
N5_2 N 1.1065(2) 0.1648(2) 0.40256(18)
N6_2 N 0.7963(2) 0.31029(18) 0.43050(15)
N6A N 0.2037(2) 0.68971(18) 0.56950(15)
N7A N 0.5825(3) 0.5688(2) 0.66863(18)
C1_2 C 1.3605(3) 0.1736(2) -0.3575(2)
H1_2 H 1.3925 0.1369 -0.4485
C2_2 C 1.3282(3) 0.3150(2) -0.19450(19)
H2_2 H 1.3301 0.3948 -0.1436
C3_2 C 1.1508(3) 0.1635(2) 0.01207(19)
H3_2 H 1.0405 0.1410 0.0088
H4_2 H 1.1076 0.2643 0.0608
C4_2 C 1.2664(3) 0.0178(2) 0.0987(2)
H5_2 H 1.3597 0.0501 0.1214
H6_2 H 1.3326 -0.0766 0.0409
C5_2 C 1.1443(3) -0.0361(2) 0.23863(19)
H7_2 H 1.0621 -0.0822 0.2156
H8_2 H 1.2245 -0.1244 0.2942
C6_2 C 0.9611(3) 0.2886(2) 0.4622(2)
H9_2 H 0.9703 0.3562 0.5215
C7_2 C 0.8467(2) 0.1908(2) 0.34478(18)
H10_2 H 0.7655 0.1709 0.3030
C8A C 0.6694(3) 0.5261(2) 0.7553(2)
loop_
_geom_bond_atom_site_label_1
_geom_bond_atom_site_label_2
_geom_bond_site_symmetry_1
_geom_bond_site_symmetry_2
Mn1 N3 1_555 1_555
S1 C8 1_555 1_555
N1 N2 1_555 1_555
N2 C1 1_555 1_555
N3 C1 1_555 1_555
N4 N5 1_555 1_555
N5 C6 1_555 1_555
N6 C6 1_555 1_555
N7 Mn1 1_555 1_555
C1 H1 1_555 1_555
C2 N1 1_555 1_555
H2 C2 1_555 1_555
C3 N1 1_555 1_555
H3 C3 1_555 1_555
H4 C3 1_555 1_555
C4 C3 1_555 1_555
H5 C4 1_555 1_555
H6 C4 1_555 1_555
C5 N4 1_555 1_555
H7 C5 1_555 1_555
H8 C5 1_555 1_555
C6 H9 1_555 1_555
C7 N4 1_555 1_555
H10 C7 1_555 1_555
C8 N7 1_555 1_555
Mn1_2 N6 1_555 1_555
Mn1_3 N3_2 1_555 1_555
S1A C8A 1_555 1_555
N1_2 N2_2 1_555 1_555
N2_2 C1_2 1_555 1_555
N3_2 C1_2 1_555 1_555
N3A Mn1 1_555 1_555
N4_2 N5_2 1_555 1_555
N5_2 C6_2 1_555 1_555
N6_2 Mn1 1_555 1_555
N6A Mn1 1_555 1_555
N7A Mn1 1_555 1_555
C1_2 H1_2 1_555 1_555
C2_2 N1_2 1_555 1_555
H2_2 C2_2 1_555 1_555
C3_2 N1_2 1_555 1_555
H3_2 C3_2 1_555 1_555
H4_2 C3_2 1_555 1_555
C4_2 C3_2 1_555 1_555
H5_2 C4_2 1_555 1_555
H6_2 C4_2 1_555 1_555
C5_2 N4_2 1_555 1_555
H7_2 C5_2 1_555 1_555
H8_2 C5_2 1_555 1_555
C6_2 N6_2 1_555 1_555
H9_2 C6_2 1_555 1_555
C7_2 N4_2 1_555 1_555
H10_2 C7_2 1_555 1_555
C8A N7A 1_555 1_555
N3 C2 1_555 1_555
N6 C7 1_555 1_555
C4 C5 1_555 1_555
N3_2 C2_2 1_555 1_555
N6_2 C7_2 1_555 1_555
C4_2 C5_2 1_555 1_555

#END
