
#######################################################################
#
#                 Cambridge Crystallographic Data Centre
#                                CCDC 
#
#######################################################################
#
# If this CIF has been generated from an entry in the Cambridge 
# Structural Database, then it will include bibliographic, chemical, 
# crystal, experimental, refinement or atomic coordinate data resulting 
# from the CCDC's data processing and validation procedures.
#
#######################################################################

data_JEHVAU
_symmetry_cell_setting           orthorhombic
_symmetry_space_group_name_H-M   'C m c m'
_symmetry_Int_Tables_number      63
_space_group_name_Hall           '-C 2n 2'
loop_
_symmetry_equiv_pos_site_id
_symmetry_equiv_pos_as_xyz
1 x,y,z
2 1/2+x,1/2+y,z
3 -x,-y,1/2+z
4 x,-y,-z
5 -x,y,1/2-z
6 1/2-x,1/2-y,1/2+z
7 1/2+x,1/2-y,-z
8 1/2-x,1/2+y,1/2-z
9 -x,-y,-z
10 1/2-x,1/2-y,-z
11 x,y,1/2-z
12 -x,y,z
13 x,-y,1/2+z
14 1/2+x,1/2+y,1/2-z
15 1/2-x,1/2+y,z
16 1/2+x,1/2-y,1/2+z
_cell_length_a                   12.6023(15)
_cell_length_b                   9.5024(15)
_cell_length_c                   17.8237(10)
_cell_angle_alpha                90
_cell_angle_beta                 90
_cell_angle_gamma                90
_cell_volume                     2134.43
loop_
_atom_site_label
_atom_site_type_symbol
_atom_site_fract_x
_atom_site_fract_y
_atom_site_fract_z
Fe1 Fe 0.50000 0.50000 0.50000
S1 S 0.50000 0.97083(8) 0.61549(5)
N1 N 0.50000 0.7087(3) 0.54431(14)
N2 N 0.28372(14) 0.43649(17) 0.68286(9)
N3 N 0.28080(18) 0.30069(18) 0.65774(12)
N4 N 0.38118(14) 0.43687(17) 0.58268(9)
C1 C 0.50000 0.8186(3) 0.57246(17)
C2 C 0.3403(2) 0.3068(2) 0.59735(13)
C3 C 0.34380(17) 0.5142(2) 0.63803(11)
C4 C 0.2271(2) 0.4777(3) 0.75000
H1 H 0.354(2) 0.228(3) 0.5667(13)
H2 H 0.356(2) 0.610(3) 0.6440(12)
H3 H 0.161(3) 0.432(3) 0.75000
H4 H 0.215(3) 0.580(4) 0.75000
Fe1J Fe 0.50000 0.50000 1.00000
S1H S 0.50000 0.02917(8) 0.38451(5)
N1H N 0.50000 0.2913(3) 0.45569(14)
N2J N 0.28372(14) 0.43649(17) 0.81714(9)
N2K N 0.71628(14) 0.43649(17) 0.68286(9)
N2D N 0.71628(14) 0.43649(17) 0.81714(9)
N3J N 0.28080(18) 0.30069(18) 0.84226(12)
N3K N 0.71920(18) 0.30069(18) 0.65774(12)
N3D N 0.71920(18) 0.30069(18) 0.84226(12)
N4J N 0.38118(14) 0.43687(17) 0.91732(9)
N4K N 0.61882(14) 0.43687(17) 0.58268(9)
N4D N 0.61882(14) 0.43687(17) 0.91732(9)
N4H N 0.61882(14) 0.56313(17) 0.41732(9)
N4C N 0.38118(14) 0.56313(17) 0.41732(9)
C1H C 0.50000 0.1814(3) 0.42754(17)
C2J C 0.3403(2) 0.3068(2) 0.90265(13)
C2K C 0.6597(2) 0.3068(2) 0.59735(13)
C2D C 0.6597(2) 0.3068(2) 0.90265(13)
C3J C 0.34380(17) 0.5142(2) 0.86197(11)
C3K C 0.65620(17) 0.5142(2) 0.63803(11)
C3D C 0.65620(17) 0.5142(2) 0.86197(11)
C4K C 0.7729(2) 0.4777(3) 0.75000
H1J H 0.354(2) 0.228(3) 0.9333(13)
H1K H 0.646(2) 0.228(3) 0.5667(13)
H1D H 0.646(2) 0.228(3) 0.9333(13)
H2J H 0.356(2) 0.610(3) 0.8560(12)
H2K H 0.644(2) 0.610(3) 0.6440(12)
H2D H 0.644(2) 0.610(3) 0.8560(12)
H3K H 0.839(3) 0.432(3) 0.75000
H4K H 0.785(3) 0.580(4) 0.75000
O1 O 0.50000 0.7214(4) 0.75000
H5 H 0.50000 0.776(8) 0.695(3)
H5J H 0.50000 0.776(8) 0.805(3)
loop_
_geom_bond_atom_site_label_1
_geom_bond_atom_site_label_2
_geom_bond_site_symmetry_1
_geom_bond_site_symmetry_2
Fe1 N1 1_555 1_555
S1 C1 1_555 1_555
N1 C1 1_555 1_555
N2 N3 1_555 1_555
N3 C2 1_555 1_555
N4 Fe1 1_555 1_555
C2 N4 1_555 1_555
C3 N2 1_555 1_555
C4 N2 1_555 1_555
H1 C2 1_555 1_555
H2 C3 1_555 1_555
H3 C4 1_555 1_555
H4 C4 1_555 1_555
O1 H5 1_555 1_555
Fe1J N4J 1_555 1_555
S1H C1H 1_555 1_555
N1H Fe1 1_555 1_555
N2J C4 1_555 1_555
N2K N3K 1_555 1_555
N2D N3D 1_555 1_555
N3J N2J 1_555 1_555
N3K C2K 1_555 1_555
N3D C2D 1_555 1_555
N4J C2J 1_555 1_555
N4K Fe1 1_555 1_555
N4D Fe1J 1_555 1_555
N4H Fe1 1_555 1_555
N4C Fe1 1_555 1_555
C1H N1H 1_555 1_555
C2J N3J 1_555 1_555
C2K N4K 1_555 1_555
C2D N4D 1_555 1_555
C3J N2J 1_555 1_555
C3K N2K 1_555 1_555
C3D N2D 1_555 1_555
C4K N2K 1_555 1_555
H1J C2J 1_555 1_555
H1K C2K 1_555 1_555
H1D C2D 1_555 1_555
H2J C3J 1_555 1_555
H2K C3K 1_555 1_555
H2D C3D 1_555 1_555
H3K C4K 1_555 1_555
H4K C4K 1_555 1_555
H5J O1 1_555 1_555
N4 C3 1_555 1_555
N2D C4K 1_555 1_555
N4J C3J 1_555 1_555
N4K C3K 1_555 1_555
N4D C3D 1_555 1_555

#END
