
#######################################################################
#
#                 Cambridge Crystallographic Data Centre
#                                CCDC 
#
#######################################################################
#
# If this CIF has been generated from an entry in the Cambridge 
# Structural Database, then it will include bibliographic, chemical, 
# crystal, experimental, refinement or atomic coordinate data resulting 
# from the CCDC's data processing and validation procedures.
#
#######################################################################

data_JEJKUF
_symmetry_cell_setting           triclinic
_symmetry_space_group_name_H-M   'P -1'
_symmetry_Int_Tables_number      2
_space_group_name_Hall           '-P 1'
loop_
_symmetry_equiv_pos_site_id
_symmetry_equiv_pos_as_xyz
1 x,y,z
2 -x,-y,-z
_cell_length_a                   10.544(2)
_cell_length_b                   10.677(2)
_cell_length_c                   14.528(3)
_cell_angle_alpha                103.72(3)
_cell_angle_beta                 99.96(3)
_cell_angle_gamma                115.21(3)
_cell_volume                     1365.91
loop_
_atom_site_label
_atom_site_type_symbol
_atom_site_fract_x
_atom_site_fract_y
_atom_site_fract_z
O3 O 0.9315(4) 0.1150(5) 0.4350(3)
O4 O 1.0235(12) 0.0439(14) 0.7171(7)
I1 I 1.0000 0.0000 1.0000
Mo1 Mo 0.67059(4) -0.15447(5) 0.83793(3)
Mo2 Mo 1.19550(4) 0.36583(5) 1.10692(3)
Mo3 Mo 0.86320(4) 0.21027(5) 0.94286(3)
La1 La 0.55762(3) -0.21833(3) 0.530309(17)
O5 O 0.9688(4) 0.1527(4) 1.0694(2)
O6 O 0.9166(3) 0.0194(4) 0.8821(2)
O7 O 1.1913(3) 0.1471(4) 1.0177(2)
O8 O 0.6938(3) 0.0265(4) 0.9269(2)
O9 O 0.7392(4) -0.2904(4) 0.7976(2)
O10 O 1.0731(4) 0.3324(4) 0.9784(2)
O11 O 0.8174(4) 0.3212(4) 1.0190(3)
O12 O 0.8160(4) 0.2167(4) 0.8262(2)
O13 O 0.5100(4) -0.2641(4) 0.8542(2)
O14 O 0.6288(4) -0.1326(4) 0.7241(2)
O15 O 1.1546(5) 0.4789(5) 1.1859(3)
O16 O 1.3571(4) 0.4756(5) 1.0932(3)
O17 O 0.4041(4) -0.1025(4) 0.5688(2)
O18 O 0.4564(4) 0.1328(4) 0.6152(2)
O19 O 0.3798(4) -0.4171(4) 0.5843(2)
O20 O 0.4666(4) -0.5708(4) 0.5991(2)
C1 C 0.4590(6) 0.1393(7) 0.9031(4)
H1 H 0.5028 0.2253 0.9586
C2 C 0.4813(5) 0.1457(6) 0.8134(3)
H2 H 0.5399 0.2356 0.8074
C3 C 0.4145(5) 0.0152(6) 0.7319(3)
C4 C 0.3299(6) -0.1181(7) 0.7431(4)
H3 H 0.2857 -0.2066 0.6897
C5 C 0.3130(7) -0.1162(7) 0.8347(4)
H4 H 0.2577 -0.2042 0.8442
C6 C 0.4268(5) 0.0161(6) 0.6296(3)
C7 C 0.1333(6) -0.5404(7) 0.7734(4)
H5 H 0.0596 -0.5166 0.7806
C8 C 0.1994(6) -0.5115(6) 0.7025(3)
H6 H 0.1726 -0.4651 0.6623
C9 C 0.3071(5) -0.5512(5) 0.6898(3)
C10 C 0.3400(6) -0.6242(7) 0.7485(4)
H7 H 0.4060 -0.6583 0.7384
C11 C 0.2764(7) -0.6465(8) 0.8212(4)
H8 H 0.3024 -0.6914 0.8630
C12 C 0.3906(5) -0.5087(6) 0.6176(3)
N2 N 0.3756(5) 0.0113(6) 0.9099(3)
H9 H 0.3607 0.0098 0.9661
N3 N 0.1757(5) -0.6032(6) 0.8321(3)
H10 H 0.1371 -0.6166 0.8789
O21 O 0.7276(4) 0.0704(4) 0.6161(2)
O22 O 0.7282(4) -0.3103(5) 0.6048(2)
O23 O 0.2897(4) -0.3656(6) 0.4009(3)
O24 O 0.7996(4) -0.1280(5) 0.4891(3)
Mo1A Mo 1.32941(4) 0.15447(5) 1.16207(3)
Mo2A Mo 0.80450(4) -0.36583(5) 0.89308(3)
Mo3A Mo 1.13680(4) -0.21027(5) 1.05714(3)
La1A La 1.44238(3) 0.21833(3) 1.469691(17)
La1A_2 La 0.44238(3) 0.21833(3) 0.469691(17)
La1A_3 La 0.44238(3) -0.78167(3) 0.469691(17)
O5A O 1.0312(4) -0.1527(4) 0.9306(2)
O6A O 1.0834(3) -0.0194(4) 1.1179(2)
O7A O 0.8087(3) -0.1471(4) 0.9823(2)
O8A O 1.3062(3) -0.0265(4) 1.0731(2)
O9A O 1.2608(4) 0.2904(4) 1.2024(2)
O10A O 0.9269(4) -0.3324(4) 1.0216(2)
O11A O 1.1826(4) -0.3212(4) 0.9810(3)
O12A O 1.1840(4) -0.2167(4) 1.1738(2)
O13A O 1.4900(4) 0.2641(4) 1.1458(2)
O14A O 1.3712(4) 0.1326(4) 1.2759(2)
O15A O 0.8454(5) -0.4789(5) 0.8141(3)
O16A O 0.6429(4) -0.4756(5) 0.9068(3)
O17A O 0.5959(4) 0.1025(4) 0.4312(2)
O17A_2 O 1.5959(4) 0.1025(4) 1.4312(2)
O18A O 0.5436(4) -0.1328(4) 0.3848(2)
O18_2 O 1.4564(4) 0.1328(4) 1.6152(2)
O19A O 0.6202(4) -0.5829(4) 0.4157(2)
O19A_2 O 1.6202(4) 0.4171(4) 1.4157(2)
O20A O 0.5334(4) -0.4292(4) 0.4009(2)
O20_2 O 1.4666(4) 0.4292(4) 1.5991(2)
C1A C 0.5410(6) -0.1393(7) 0.0969(4)
H1A H 0.4972 -0.2253 0.0414
C2A C 0.5187(5) -0.1457(6) 0.1866(3)
H2A H 0.4601 -0.2356 0.1926
C3A C 0.5855(5) -0.0152(6) 0.2681(3)
C4A C 0.6701(6) 0.1181(7) 0.2569(4)
H3A H 0.7143 0.2066 0.3103
C5A C 0.6870(7) 0.1162(7) 0.1653(4)
H4A H 0.7423 0.2042 0.1558
C6A C 0.5732(5) -0.0161(6) 0.3704(3)
C7A C 0.8667(6) -0.4596(7) 0.2266(4)
H5A H 0.9404 -0.4834 0.2194
C8A C 0.8006(6) -0.4885(6) 0.2975(3)
H6A H 0.8274 -0.5349 0.3377
C9A C 0.6929(5) -0.4488(5) 0.3102(3)
C10A C 0.6600(6) -0.3758(7) 0.2515(4)
H7A H 0.5940 -0.3417 0.2616
C11A C 0.7236(7) -0.3535(8) 0.1788(4)
H8A H 0.6976 -0.3086 0.1370
C12A C 0.6094(5) -0.4913(6) 0.3824(3)
N2A N 0.6244(5) -0.0113(6) 0.0901(3)
H9A H 0.6393 -0.0098 0.0339
N3A N 0.8243(5) -0.3968(6) 0.1679(3)
H10A H 0.8629 -0.3834 0.1211
O21A O 1.2724(4) -0.0704(4) 1.3839(2)
O22A O 1.2718(4) 0.3103(5) 1.3952(2)
O23A O 1.7103(4) 0.3656(6) 1.5991(3)
O24A O 1.2004(4) 0.1280(5) 1.5109(3)
O1 O -0.0371(10) -0.4304(13) 0.5882(7)
O2 O 0.0595(16) -0.3884(17) 0.5385(9)
N1 N -0.0065(15) -0.4737(13) 0.5128(9)
O1A O 0.0371(10) -0.5696(13) 0.4118(7)
O2A O -0.0595(16) -0.6116(17) 0.4615(9)
N1A N 0.0065(15) -0.5263(13) 0.4872(9)
O25? O 0.0775(10) -0.3690(11) 0.4844(7)
O26? O 1.0611(15) -0.0564(19) 0.7560(7)
loop_
_geom_bond_atom_site_label_1
_geom_bond_atom_site_label_2
_geom_bond_site_symmetry_1
_geom_bond_site_symmetry_2
O1 O2 1_555 1_555
O2 N1 1_555 1_555
N1 O1 1_555 1_555
I1 O5 1_555 1_555
Mo1 O6 1_555 1_555
Mo2 O5 1_555 1_555
Mo3 O5 1_555 1_555
La1 O14 1_555 1_555
O6 I1 1_555 1_555
O7 I1 1_555 1_555
O8 Mo1 1_555 1_555
O9 Mo1 1_555 1_555
O10 Mo2 1_555 1_555
O11 Mo3 1_555 1_555
O12 Mo3 1_555 1_555
O13 Mo1 1_555 1_555
O14 Mo1 1_555 1_555
O15 Mo2 1_555 1_555
O16 Mo2 1_555 1_555
O17 La1 1_555 1_555
O18 C6 1_555 1_555
O19 La1 1_555 1_555
O20 C12 1_555 1_555
C1 H1 1_555 1_555
C2 C1 1_555 1_555
H2 C2 1_555 1_555
C3 C2 1_555 1_555
C4 C3 1_555 1_555
H3 C4 1_555 1_555
C5 C4 1_555 1_555
H4 C5 1_555 1_555
C6 O17 1_555 1_555
C7 H5 1_555 1_555
C8 C7 1_555 1_555
H6 C8 1_555 1_555
C9 C8 1_555 1_555
C10 C9 1_555 1_555
H7 C10 1_555 1_555
C11 C10 1_555 1_555
H8 C11 1_555 1_555
C12 O19 1_555 1_555
N2 C1 1_555 1_555
H9 N2 1_555 1_555
N3 C7 1_555 1_555
H10 N3 1_555 1_555
O21 La1 1_555 1_555
O22 La1 1_555 1_555
O23 La1 1_555 1_555
O24 La1 1_555 1_555
O1A O2A 1_555 1_555
O2A N1 1_555 1_555
N1A O2 1_555 1_555
Mo1A O7 1_555 1_555
Mo2A O9 1_555 1_555
Mo3A O5A 1_555 1_555
La1A O14A 1_555 1_555
La1A_2 O18 1_555 1_555
La1A_3 O20 1_555 1_555
O5A I1 1_555 1_555
O6A I1 1_555 1_555
O7A I1 1_555 1_555
O8A Mo1A 1_555 1_555
O9A Mo2 1_555 1_555
O10A Mo2A 1_555 1_555
O11A Mo3A 1_555 1_555
O12A Mo3A 1_555 1_555
O13A Mo1A 1_555 1_555
O14A Mo1A 1_555 1_555
O15A Mo2A 1_555 1_555
O16A Mo2A 1_555 1_555
O17A La1A_2 1_555 1_555
O17A_2 La1A 1_555 1_555
O18A La1 1_555 1_555
O18_2 La1A 1_555 1_555
O19A La1A_3 1_555 1_555
O19A_2 La1A 1_555 1_555
O20A La1 1_555 1_555
O20_2 La1A 1_555 1_555
C1A H1A 1_555 1_555
C2A C1A 1_555 1_555
H2A C2A 1_555 1_555
C3A C2A 1_555 1_555
C4A C3A 1_555 1_555
H3A C4A 1_555 1_555
C5A C4A 1_555 1_555
H4A C5A 1_555 1_555
C6A O17A 1_555 1_555
C7A H5A 1_555 1_555
C8A C7A 1_555 1_555
H6A C8A 1_555 1_555
C9A C8A 1_555 1_555
C10A C9A 1_555 1_555
H7A C10A 1_555 1_555
C11A C10A 1_555 1_555
H8A C11A 1_555 1_555
C12A O19A 1_555 1_555
N2A C1A 1_555 1_555
H9A N2A 1_555 1_555
N3A C7A 1_555 1_555
H10A N3A 1_555 1_555
O21A La1A 1_555 1_555
O22A La1A 1_555 1_555
O23A La1A 1_555 1_555
O24A La1A 1_555 1_555
N1 N1A 1_555 1_555
Mo1 O7A 1_555 1_555
Mo2 O7 1_555 1_555
Mo3 O6 1_555 1_555
Mo3 O8 1_555 1_555
Mo3 O10 1_555 1_555
C3 C6 1_555 1_555
C5 N2 1_555 1_555
C9 C12 1_555 1_555
C11 N3 1_555 1_555
O1A N1A 1_555 1_555
O2A N1A 1_555 1_555
Mo1A O6A 1_555 1_555
Mo1A O9A 1_555 1_555
Mo2A O5A 1_555 1_555
Mo2A O7A 1_555 1_555
Mo3A O6A 1_555 1_555
Mo3A O8A 1_555 1_555
Mo3A O10A 1_555 1_555
O18A C6A 1_555 1_555
O20A C12A 1_555 1_555
C3A C6A 1_555 1_555
C5A N2A 1_555 1_555
C9A C12A 1_555 1_555
C11A N3A 1_555 1_555

#END
