
#######################################################################
#
#                 Cambridge Crystallographic Data Centre
#                                CCDC 
#
#######################################################################
#
# If this CIF has been generated from an entry in the Cambridge 
# Structural Database, then it will include bibliographic, chemical, 
# crystal, experimental, refinement or atomic coordinate data resulting 
# from the CCDC's data processing and validation procedures.
#
#######################################################################

data_JEJKAL
_symmetry_cell_setting           tetragonal
_symmetry_space_group_name_H-M   'I -4 2 d'
_symmetry_Int_Tables_number      122
_space_group_name_Hall           'I -4 2bw'
loop_
_symmetry_equiv_pos_site_id
_symmetry_equiv_pos_as_xyz
1 x,y,z
2 y,-x,-z
3 -y,x,-z
4 1/2+x,-y,3/4-z
5 1/2-x,y,3/4-z
6 -x,-y,z
7 1/2-y,-x,3/4+z
8 1/2+y,x,3/4+z
9 1/2+x,1/2+y,1/2+z
10 1/2+y,1/2-x,1/2-z
11 1/2-y,1/2+x,1/2-z
12 x,1/2-y,1/4-z
13 -x,1/2+y,1/4-z
14 1/2-x,1/2-y,1/2+z
15 -y,1/2-x,1/4+z
16 y,1/2+x,1/4+z
_cell_length_a                   18.4920(5)
_cell_length_b                   18.4920(5)
_cell_length_c                   28.562(1)
_cell_angle_alpha                90
_cell_angle_beta                 90
_cell_angle_gamma                90
_cell_volume                     9766.89
loop_
_atom_site_label
_atom_site_type_symbol
_atom_site_fract_x
_atom_site_fract_y
_atom_site_fract_z
Li1 Li 0.2500 0.7658(3) -0.1250
Li2 Li 0.2500 0.6238(3) -0.1250
Li3 Li 0.48540(19) 0.92970(17) -0.03594(12)
O1 O 0.30163(7) 0.69330(7) -0.09044(5)
O2 O 0.20190(7) 0.55389(7) -0.07871(5)
O3 O 0.15321(8) 0.51209(7) -0.01027(5)
O4 O 0.44161(7) 0.88005(7) -0.09478(5)
O5 O 0.33513(7) 0.83909(7) -0.12293(5)
O6 O 0.57108(7) 0.98390(7) -0.03592(5)
Br1 Br 0.363919(13) 0.620764(12) 0.110592(8)
Br2 Br 0.892240(11) 0.932860(10) -0.025960(8)
C1 C 0.31964(10) 0.68069(10) -0.04659(7)
C2 C 0.28558(11) 0.71922(11) -0.00928(8)
C3 C 0.30003(11) 0.70213(11) 0.03660(8)
H1 H 0.2768 0.7267 0.0607
C4 C 0.34962(11) 0.64777(11) 0.04674(7)
C5 C 0.38702(11) 0.61315(11) 0.01177(7)
H2 H 0.4213 0.5783 0.0194
C6 C 0.37404(10) 0.62970(10) -0.03507(7)
C7 C 0.23232(11) 0.77812(11) -0.02211(8)
H3 H 0.2149 0.8009 0.0059
H4 H 0.1924 0.7574 -0.0389
H5 H 0.2559 0.8134 -0.0415
C8 C 0.41714(11) 0.59536(11) -0.07377(8)
H6 H 0.4493 0.5599 -0.0608
H7 H 0.4448 0.6318 -0.0897
H8 H 0.3849 0.5725 -0.0956
C9 C 0.24351(11) 0.49233(11) -0.06332(7)
H9 H 0.2947 0.5001 -0.0686
H10 H 0.2286 0.4488 -0.0796
C10 C 0.22722(10) 0.48695(11) -0.01187(7)
H11 H 0.2313 0.4375 -0.0008
H12 H 0.2589 0.5178 0.0064
C11 C 0.15271(11) 0.57159(12) -0.04163(7)
H13 H 0.1682 0.6153 -0.0257
H14 H 0.1044 0.5793 -0.0540
C12 C 0.40372(11) 0.81633(11) -0.10620(8)
H15 H 0.4293 0.7893 -0.1301
H16 H 0.3983 0.7858 -0.0788
C13 C 0.34529(11) 0.91052(11) -0.14260(9)
H17 H 0.3355 0.9105 -0.1760
H18 H 0.3138 0.9454 -0.1275
C14 C 0.42414(12) 0.92762(11) -0.13300(8)
H19 H 0.4304 0.9779 -0.1241
H20 H 0.4539 0.9175 -0.1602
C15 C 0.64136(10) 0.97216(10) -0.03410(7)
C16 C 0.67354(10) 0.91542(11) -0.06025(7)
C17 C 0.74824(10) 0.90572(11) -0.05831(7)
H21 H 0.7699 0.8695 -0.0761
C18 C 0.79015(10) 0.94949(10) -0.03024(8)
C19 C 0.76002(11) 1.00418(11) -0.00399(7)
H22 H 0.7891 1.0327 0.0151
C20 C 0.68605(11) 1.01676(11) -0.00608(7)
C21 C 0.62697(11) 0.86624(11) -0.08950(7)
H23 H 0.6570 0.8319 -0.1055
H24 H 0.5936 0.8410 -0.0696
H25 H 0.6006 0.8944 -0.1120
C22 C 0.65231(12) 1.07734(11) 0.02102(8)
H26 H 0.6345 1.1133 -0.0003
H27 H 0.6130 1.0589 0.0394
H28 H 0.6878 1.0986 0.0413
Li3D Li 0.01460(19) 0.92970(17) -0.21406(12)
Li3B Li 0.07030(17) 0.48540(19) 0.03594(12)
Li3E Li 0.51460(19) 1.07030(17) -0.03594(12)
Li3G Li 0.42970(17) 0.48540(19) -0.28594(12)
O1D O 0.19837(7) 0.69330(7) -0.15956(5)
O2D O 0.29810(7) 0.55389(7) -0.17129(5)
O3D O 0.34679(8) 0.51209(7) -0.23973(5)
O3A O 0.51209(7) 0.84679(8) 0.01027(5)
O3F O -0.01209(7) 0.84679(8) -0.26027(5)
O4D O 0.05839(7) 0.88005(7) -0.15522(5)
O5D O 0.16487(7) 0.83909(7) -0.12707(5)
O6E O 0.42892(7) 1.01610(7) -0.03592(5)
O6C O 0.07108(7) 1.01610(7) -0.21408(5)
O6D O -0.07108(7) 0.98390(7) -0.21408(5)
Br1D Br 0.136081(13) 0.620764(12) -0.360592(8)
Br2E Br 0.107760(11) 1.067140(10) -0.025960(8)
C1D C 0.18036(10) 0.68069(10) -0.20341(7)
C2D C 0.21442(11) 0.71922(11) -0.24072(8)
C3D C 0.19997(11) 0.70213(11) -0.28660(8)
H1D H 0.2232 0.7267 -0.3107
C4D C 0.15038(11) 0.64777(11) -0.29674(7)
C5D C 0.11298(11) 0.61315(11) -0.26177(7)
H2D H 0.0787 0.5783 -0.2694
C6D C 0.12596(10) 0.62970(10) -0.21493(7)
C7D C 0.26768(11) 0.77812(11) -0.22789(8)
H3D H 0.2851 0.8009 -0.2559
H4D H 0.3076 0.7574 -0.2111
H5D H 0.2441 0.8134 -0.2085
C8D C 0.08286(11) 0.59536(11) -0.17623(8)
H6D H 0.0507 0.5599 -0.1892
H7D H 0.0552 0.6318 -0.1603
H8D H 0.1151 0.5725 -0.1544
C9D C 0.25649(11) 0.49233(11) -0.18668(7)
H9D H 0.2053 0.5001 -0.1814
H10D H 0.2714 0.4488 -0.1704
C10D C 0.27278(10) 0.48695(11) -0.23813(7)
H11D H 0.2687 0.4375 -0.2492
H12D H 0.2411 0.5178 -0.2564
C11D C 0.34729(11) 0.57159(12) -0.20837(7)
H13D H 0.3318 0.6153 -0.2243
H14D H 0.3956 0.5793 -0.1960
C12D C 0.09628(11) 0.81633(11) -0.14380(8)
H15D H 0.0707 0.7893 -0.1199
H16D H 0.1017 0.7858 -0.1712
C13D C 0.15471(11) 0.91052(11) -0.10740(9)
H17D H 0.1645 0.9105 -0.0740
H18D H 0.1862 0.9454 -0.1225
C14D C 0.07586(12) 0.92762(11) -0.11700(8)
H19D H 0.0696 0.9779 -0.1259
H20D H 0.0461 0.9175 -0.0898
C15E C 0.35864(10) 1.02784(10) -0.03410(7)
C16E C 0.32646(10) 1.08458(11) -0.06025(7)
C17E C 0.25176(10) 1.09428(11) -0.05831(7)
H21E H 0.2301 1.1305 -0.0761
C18E C 0.20985(10) 1.05051(10) -0.03024(8)
C19E C 0.23998(11) 0.99582(11) -0.00399(7)
H22E H 0.2109 0.9673 0.0151
C20E C 0.31395(11) 0.98324(11) -0.00608(7)
C21E C 0.37303(11) 1.13376(11) -0.08950(7)
H23E H 0.3430 1.1681 -0.1055
H24E H 0.4064 1.1590 -0.0696
H25E H 0.3994 1.1056 -0.1120
C22E C 0.34769(12) 0.92266(11) 0.02102(8)
H26E H 0.3655 0.8867 -0.0003
H27E H 0.3870 0.9411 0.0394
H28E H 0.3122 0.9014 0.0413
loop_
_geom_bond_atom_site_label_1
_geom_bond_atom_site_label_2
_geom_bond_site_symmetry_1
_geom_bond_site_symmetry_2
Li1 O1 1_555 1_555
Li2 O1 1_555 1_555
Li3 O4 1_555 1_555
O1 C1 1_555 1_555
O2 Li2 1_555 1_555
O3 C10 1_555 1_555
O4 C12 1_555 1_555
O5 Li1 1_555 1_555
O6 Li3 1_555 1_555
Br1 C4 1_555 1_555
Br2 C18 1_555 1_555
C1 C2 1_555 1_555
C2 C3 1_555 1_555
C3 H1 1_555 1_555
C4 C3 1_555 1_555
C5 C4 1_555 1_555
H2 C5 1_555 1_555
C6 C1 1_555 1_555
C7 C2 1_555 1_555
H3 C7 1_555 1_555
H4 C7 1_555 1_555
H5 C7 1_555 1_555
C8 C6 1_555 1_555
H6 C8 1_555 1_555
H7 C8 1_555 1_555
H8 C8 1_555 1_555
C9 O2 1_555 1_555
H9 C9 1_555 1_555
H10 C9 1_555 1_555
C10 C9 1_555 1_555
H11 C10 1_555 1_555
H12 C10 1_555 1_555
C11 O2 1_555 1_555
H13 C11 1_555 1_555
H14 C11 1_555 1_555
C12 O5 1_555 1_555
H15 C12 1_555 1_555
H16 C12 1_555 1_555
C13 O5 1_555 1_555
H17 C13 1_555 1_555
H18 C13 1_555 1_555
C14 O4 1_555 1_555
H19 C14 1_555 1_555
H20 C14 1_555 1_555
C15 O6 1_555 1_555
C16 C15 1_555 1_555
C17 C16 1_555 1_555
H21 C17 1_555 1_555
C18 C17 1_555 1_555
C19 C18 1_555 1_555
H22 C19 1_555 1_555
C20 C15 1_555 1_555
C21 C16 1_555 1_555
H23 C21 1_555 1_555
H24 C21 1_555 1_555
H25 C21 1_555 1_555
C22 C20 1_555 1_555
H26 C22 1_555 1_555
H27 C22 1_555 1_555
H28 C22 1_555 1_555
Li3D O3F 1_555 1_555
Li3B O3 1_555 1_555
Li3E O6 1_555 1_555
Li3G O3D 1_555 1_555
O1D Li1 1_555 1_555
O2D Li2 1_555 1_555
O3D C10D 1_555 1_555
O3A Li3 1_555 1_555
O4D Li3D 1_555 1_555
O5D Li1 1_555 1_555
O6E Li3 1_555 1_555
O6C Li3D 1_555 1_555
O6D Li3D 1_555 1_555
Br1D C4D 1_555 1_555
Br2E C18E 1_555 1_555
C1D O1D 1_555 1_555
C2D C1D 1_555 1_555
C3D C2D 1_555 1_555
H1D C3D 1_555 1_555
C4D C3D 1_555 1_555
C5D C4D 1_555 1_555
H2D C5D 1_555 1_555
C6D C1D 1_555 1_555
C7D C2D 1_555 1_555
H3D C7D 1_555 1_555
H4D C7D 1_555 1_555
H5D C7D 1_555 1_555
C8D C6D 1_555 1_555
H6D C8D 1_555 1_555
H7D C8D 1_555 1_555
H8D C8D 1_555 1_555
C9D O2D 1_555 1_555
H9D C9D 1_555 1_555
H10D C9D 1_555 1_555
C10D C9D 1_555 1_555
H11D C10D 1_555 1_555
H12D C10D 1_555 1_555
C11D O2D 1_555 1_555
H13D C11D 1_555 1_555
H14D C11D 1_555 1_555
C12D O4D 1_555 1_555
H15D C12D 1_555 1_555
H16D C12D 1_555 1_555
C13D O5D 1_555 1_555
H17D C13D 1_555 1_555
H18D C13D 1_555 1_555
C14D O4D 1_555 1_555
H19D C14D 1_555 1_555
H20D C14D 1_555 1_555
C15E O6E 1_555 1_555
C16E C15E 1_555 1_555
C17E C16E 1_555 1_555
H21E C17E 1_555 1_555
C18E C17E 1_555 1_555
C19E C18E 1_555 1_555
H22E C19E 1_555 1_555
C20E C15E 1_555 1_555
C21E C16E 1_555 1_555
H23E C21E 1_555 1_555
H24E C21E 1_555 1_555
H25E C21E 1_555 1_555
C22E C20E 1_555 1_555
H26E C22E 1_555 1_555
H27E C22E 1_555 1_555
H28E C22E 1_555 1_555
Li2 O1D 1_555 1_555
O3 C11 1_555 1_555
C5 C6 1_555 1_555
C13 C14 1_555 1_555
C19 C20 1_555 1_555
Li3E O6E 1_555 1_555
O3D C11D 1_555 1_555
O5D C12D 1_555 1_555
C5D C6D 1_555 1_555
C13D C14D 1_555 1_555
C19E C20E 1_555 1_555

#END
