
#######################################################################
#
#                 Cambridge Crystallographic Data Centre
#                                CCDC 
#
#######################################################################
#
# If this CIF has been generated from an entry in the Cambridge 
# Structural Database, then it will include bibliographic, chemical, 
# crystal, experimental, refinement or atomic coordinate data resulting 
# from the CCDC's data processing and validation procedures.
#
#######################################################################

data_JEKJOY08
_symmetry_cell_setting           tetragonal
_symmetry_space_group_name_H-M   'I 41/a'
_symmetry_Int_Tables_number      88
_space_group_name_Hall           '-I 4ad'
loop_
_symmetry_equiv_pos_site_id
_symmetry_equiv_pos_as_xyz
1 x,y,z
2 1/4-y,3/4+x,3/4+z
3 1/4+y,1/4-x,1/4+z
4 -x,1/2-y,z
5 1/2+x,1/2+y,1/2+z
6 3/4-y,1/4+x,1/4+z
7 3/4+y,3/4-x,3/4+z
8 1/2-x,-y,1/2+z
9 -x,-y,-z
10 3/4+y,1/4-x,1/4-z
11 3/4-y,3/4+x,3/4-z
12 x,1/2+y,-z
13 1/2-x,1/2-y,1/2-z
14 1/4+y,3/4-x,3/4-z
15 1/4-y,1/4+x,1/4-z
16 1/2+x,y,1/2-z
_cell_length_a                   17.9136(4)
_cell_length_b                   17.9136(4)
_cell_length_c                   22.6760(5)
_cell_angle_alpha                90
_cell_angle_beta                 90
_cell_angle_gamma                90
_cell_volume                     7276.66
loop_
_atom_site_label
_atom_site_type_symbol
_atom_site_fract_x
_atom_site_fract_y
_atom_site_fract_z
Au1 Au 0.765326(7) 0.527146(7) 0.573760(5)
Au2 Au 0.784759(7) 0.511507(7) 0.694634(5)
S1 S 0.74965(5) 0.65352(5) 0.58339(4)
S2 S 0.82970(5) 0.63123(5) 0.70306(4)
S3 S 0.78228(5) 0.40173(5) 0.55778(4)
S4 S 0.74444(5) 0.38967(4) 0.69077(4)
N1 N 0.79418(16) 0.75985(16) 0.65416(12)
N2 N 0.76181(15) 0.27828(15) 0.61730(11)
C1 C 0.79110(18) 0.68611(17) 0.64748(14)
C2 C 0.8276(2) 0.79631(19) 0.70665(15)
H1 H 0.8220 0.7630 0.7412
H2 H 0.8004 0.8432 0.7151
C3 C 0.9092(2) 0.8135(2) 0.69733(18)
H3 H 0.9367 0.7669 0.6913
H4 H 0.9289 0.8393 0.7321
H5 H 0.9149 0.8455 0.6626
C4 C 0.7677(2) 0.8118(2) 0.60819(17)
H6 H 0.7801 0.7912 0.5689
H7 H 0.7940 0.8601 0.6125
C5 C 0.6846(3) 0.8247(2) 0.6120(2)
H8 H 0.6582 0.7788 0.6013
H9 H 0.6703 0.8648 0.5848
H10 H 0.6713 0.8390 0.6524
C6 C 0.76333(18) 0.35206(18) 0.62153(14)
C7 C 0.7473(2) 0.22860(18) 0.66804(15)
H11 H 0.7704 0.2503 0.7038
H12 H 0.7710 0.1796 0.6607
C8 C 0.6646(2) 0.2173(2) 0.67885(15)
H13 H 0.6412 0.2655 0.6876
H14 H 0.6576 0.1835 0.7124
H15 H 0.6415 0.1956 0.6436
C9 C 0.7752(2) 0.23908(19) 0.56101(14)
H16 H 0.7579 0.2707 0.5279
H17 H 0.7461 0.1921 0.5603
C10 C 0.8574(2) 0.2214(2) 0.55300(17)
H18 H 0.8859 0.2680 0.5512
H19 H 0.8644 0.1934 0.5163
H20 H 0.8749 0.1913 0.5863
Au1B Au 0.777146(7) 0.484674(7) 0.823760(5)
Au2A Au 0.738493(7) 0.534759(7) 0.444634(5)
loop_
_geom_bond_atom_site_label_1
_geom_bond_atom_site_label_2
_geom_bond_site_symmetry_1
_geom_bond_site_symmetry_2
Au1 Au2 1_555 1_555
Au2 S2 1_555 1_555
S1 Au1 1_555 1_555
S2 C1 1_555 1_555
S3 Au1 1_555 1_555
S4 Au2 1_555 1_555
N1 C1 1_555 1_555
N2 C6 1_555 1_555
C1 S1 1_555 1_555
C2 N1 1_555 1_555
H1 C2 1_555 1_555
H2 C2 1_555 1_555
C3 C2 1_555 1_555
H3 C3 1_555 1_555
H4 C3 1_555 1_555
H5 C3 1_555 1_555
C4 N1 1_555 1_555
H6 C4 1_555 1_555
H7 C4 1_555 1_555
C5 C4 1_555 1_555
H8 C5 1_555 1_555
H9 C5 1_555 1_555
H10 C5 1_555 1_555
C6 S3 1_555 1_555
C7 N2 1_555 1_555
H11 C7 1_555 1_555
H12 C7 1_555 1_555
C8 C7 1_555 1_555
H13 C8 1_555 1_555
H14 C8 1_555 1_555
H15 C8 1_555 1_555
C9 N2 1_555 1_555
H16 C9 1_555 1_555
H17 C9 1_555 1_555
C10 C9 1_555 1_555
H18 C10 1_555 1_555
H19 C10 1_555 1_555
H20 C10 1_555 1_555
Au1B Au2 1_555 1_555
Au2A Au1 1_555 1_555
S4 C6 1_555 1_555

#END
