
#######################################################################
#
#                 Cambridge Crystallographic Data Centre
#                                CCDC 
#
#######################################################################
#
# If this CIF has been generated from an entry in the Cambridge 
# Structural Database, then it will include bibliographic, chemical, 
# crystal, experimental, refinement or atomic coordinate data resulting 
# from the CCDC's data processing and validation procedures.
#
#######################################################################

data_JEKJOY03
_symmetry_cell_setting           orthorhombic
_symmetry_space_group_name_H-M   'F d d d'
_symmetry_Int_Tables_number      70
_space_group_name_Hall           '-F 2uv 2vw'
loop_
_symmetry_equiv_pos_site_id
_symmetry_equiv_pos_as_xyz
1 x,y,z
2 3/4-x,3/4-y,z
3 3/4-x,y,3/4-z
4 x,3/4-y,3/4-z
5 x,1/2+y,1/2+z
6 3/4-x,1/4-y,1/2+z
7 3/4-x,1/2+y,1/4-z
8 x,1/4-y,1/4-z
9 1/2+x,y,1/2+z
10 1/4-x,3/4-y,1/2+z
11 1/4-x,y,1/4-z
12 1/2+x,3/4-y,1/4-z
13 1/2+x,1/2+y,z
14 1/4-x,1/4-y,z
15 1/4-x,1/2+y,3/4-z
16 1/2+x,1/4-y,3/4-z
17 -x,-y,-z
18 1/4+x,1/4+y,-z
19 1/4+x,-y,1/4+z
20 -x,1/4+y,1/4+z
21 -x,1/2-y,1/2-z
22 1/4+x,3/4+y,1/2-z
23 1/4+x,1/2-y,3/4+z
24 -x,3/4+y,3/4+z
25 1/2-x,-y,1/2-z
26 3/4+x,1/4+y,1/2-z
27 3/4+x,-y,3/4+z
28 1/2-x,1/4+y,3/4+z
29 1/2-x,1/2-y,-z
30 3/4+x,3/4+y,-z
31 3/4+x,1/2-y,1/4+z
32 1/2-x,3/4+y,1/4+z
_cell_length_a                   24.253(8)
_cell_length_b                   26.423(8)
_cell_length_c                   44.786(3)
_cell_angle_alpha                90
_cell_angle_beta                 90
_cell_angle_gamma                90
_cell_volume                     28700.5
loop_
_atom_site_label
_atom_site_type_symbol
_atom_site_fract_x
_atom_site_fract_y
_atom_site_fract_z
Au1 Au 0.32545(10) 0.11722(8) 0.09209(4)
Au2 Au 0.32538(11) 0.09816(9) 0.03128(4)
Au3 Au 0.34658(11) 0.08975(9) -0.03370(4)
Au4 Au 0.37499(12) 0.07201(9) -0.09237(4)
S1 S 0.4240(7) 0.1451(6) -0.0941(2)
S2 S 0.3991(7) 0.0448(6) 0.0342(2)
S3 S 0.4249(7) 0.1392(6) -0.0258(3)
S4 S 0.3856(6) 0.0525(5) 0.1031(2)
S5 S 0.2662(7) 0.0444(6) -0.0411(3)
S6 S 0.3366(7) -0.0058(6) -0.0904(3)
S7 S 0.2695(7) 0.1834(6) 0.0856(2)
S8 S 0.2463(7) 0.1442(6) 0.0237(3)
C1 C 0.168(2) 0.2503(16) 0.0240(10)
H1 H 0.1489 0.2793 0.0321
H2 H 0.1891 0.2588 0.0062
C2 C 0.4163(18) 0.0298(17) 0.0708(3)
N1 N 0.4494(17) -0.0097(12) 0.0723(7)
N2 N 0.4917(13) 0.1924(16) -0.0594(7)
C3 C 0.4442(18) 0.1680(14) -0.0591(3)
N3 N 0.1985(13) 0.2196(15) 0.0462(7)
C4 C 0.2810(15) -0.0038(13) -0.0662(9)
C5 C 0.4855(17) -0.023(2) 0.0479(9)
H3 H 0.4624 -0.0216 0.0303
H4 H 0.4943 -0.0582 0.0510
C6 C 0.2432(19) 0.1921(11) 0.0505(5)
C7 C 0.199(2) 0.2643(15) 0.0674(10)
H5 H 0.2055 0.2487 0.0867
H6 H 0.1609 0.2751 0.0678
C8 C 0.521(2) 0.2095(18) -0.0326(9)
H7 H 0.5399 0.2407 -0.0374
H8 H 0.4936 0.2174 -0.0174
C9 C 0.505(2) 0.2179(16) -0.0877(8)
H9 H 0.4958 0.1953 -0.1040
H10 H 0.5441 0.2243 -0.0884
C10 C 0.4787(18) -0.0332(18) 0.0984(8)
H11 H 0.5092 -0.0534 0.0910
H12 H 0.4939 -0.0066 0.1108
C11 C 0.5382(18) 0.0013(19) 0.0390(9)
H13 H 0.5528 0.0202 0.0555
H14 H 0.5317 0.0238 0.0225
H15 H 0.5640 -0.0243 0.0331
C12 C 0.474(2) 0.2678(16) -0.0925(9)
H16 H 0.4660 0.2828 -0.0735
H17 H 0.4408 0.2616 -0.1032
H18 H 0.4973 0.2904 -0.1038
C13 C 0.248(2) -0.0835(14) -0.0895(9)
H19 H 0.2112 -0.0925 -0.0957
H20 H 0.2684 -0.0724 -0.1070
C14 C 0.136(3) 0.2035(19) 0.0223(11)
H21 H 0.1231 0.1946 0.0418
H22 H 0.1589 0.1768 0.0146
H23 H 0.1052 0.2086 0.0092
C15 C 0.443(2) -0.0653(18) 0.1167(9)
H24 H 0.4459 -0.0557 0.1373
H25 H 0.4532 -0.1001 0.1144
H26 H 0.4051 -0.0611 0.1103
C16 C 0.565(2) 0.1713(19) -0.0182(11)
H27 H 0.5665 0.1766 0.0030
H28 H 0.6005 0.1774 -0.0268
H29 H 0.5539 0.1371 -0.0222
N4 N 0.2456(16) -0.0413(13) -0.0674(8)
C17 C 0.276(2) -0.1293(19) -0.0764(11)
H30 H 0.2837 -0.1233 -0.0556
H31 H 0.3102 -0.1354 -0.0868
H32 H 0.2525 -0.1582 -0.0784
C18 C 0.1998(18) -0.043(2) -0.0449(10)
H33 H 0.2098 -0.0216 -0.0282
H34 H 0.1973 -0.0775 -0.0374
C19 C 0.231(2) 0.3144(18) 0.0697(10)
H35 H 0.2443 0.3187 0.0897
H36 H 0.2071 0.3420 0.0646
H37 H 0.2618 0.3137 0.0562
C20 C 0.144(2) -0.028(2) -0.0555(10)
H38 H 0.1303 -0.0012 -0.0429
H39 H 0.1197 -0.0563 -0.0546
H40 H 0.1467 -0.0159 -0.0757
Au1G Au 0.32545(10) 0.13278(8) 0.15791(4)
Au4B Au 0.37501(12) 0.07201(9) -0.15763(4)
loop_
_geom_bond_atom_site_label_1
_geom_bond_atom_site_label_2
_geom_bond_site_symmetry_1
_geom_bond_site_symmetry_2
Au1 Au2 1_555 1_555
Au2 Au3 1_555 1_555
Au3 Au4 1_555 1_555
Au4 S1 1_555 1_555
S1 C3 1_555 1_555
S2 Au2 1_555 1_555
S3 Au3 1_555 1_555
S4 Au1 1_555 1_555
S5 Au3 1_555 1_555
S6 Au4 1_555 1_555
S7 Au1 1_555 1_555
S8 Au2 1_555 1_555
C1 H1 1_555 1_555
H2 C1 1_555 1_555
C2 S2 1_555 1_555
N1 C2 1_555 1_555
N2 C3 1_555 1_555
C3 S3 1_555 1_555
N3 C1 1_555 1_555
C4 S5 1_555 1_555
C5 N1 1_555 1_555
H3 C5 1_555 1_555
H4 C5 1_555 1_555
C6 S7 1_555 1_555
C7 N3 1_555 1_555
H5 C7 1_555 1_555
H6 C7 1_555 1_555
C8 N2 1_555 1_555
H7 C8 1_555 1_555
H8 C8 1_555 1_555
C9 N2 1_555 1_555
H9 C9 1_555 1_555
H10 C9 1_555 1_555
C10 N1 1_555 1_555
H11 C10 1_555 1_555
H12 C10 1_555 1_555
C11 C5 1_555 1_555
H13 C11 1_555 1_555
H14 C11 1_555 1_555
H15 C11 1_555 1_555
C12 C9 1_555 1_555
H16 C12 1_555 1_555
H17 C12 1_555 1_555
H18 C12 1_555 1_555
C13 H19 1_555 1_555
H20 C13 1_555 1_555
C14 C1 1_555 1_555
H21 C14 1_555 1_555
H22 C14 1_555 1_555
H23 C14 1_555 1_555
C15 C10 1_555 1_555
H24 C15 1_555 1_555
H25 C15 1_555 1_555
H26 C15 1_555 1_555
C16 C8 1_555 1_555
H27 C16 1_555 1_555
H28 C16 1_555 1_555
H29 C16 1_555 1_555
N4 C4 1_555 1_555
C17 C13 1_555 1_555
H30 C17 1_555 1_555
H31 C17 1_555 1_555
H32 C17 1_555 1_555
C18 N4 1_555 1_555
H33 C18 1_555 1_555
H34 C18 1_555 1_555
C19 C7 1_555 1_555
H35 C19 1_555 1_555
H36 C19 1_555 1_555
H37 C19 1_555 1_555
C20 C18 1_555 1_555
H38 C20 1_555 1_555
H39 C20 1_555 1_555
H40 C20 1_555 1_555
Au1G Au1 1_555 1_555
Au4B Au4 1_555 1_555
S4 C2 1_555 1_555
S6 C4 1_555 1_555
S8 C6 1_555 1_555
N3 C6 1_555 1_555
C13 N4 1_555 1_555

#END
