
#######################################################################
#
#                 Cambridge Crystallographic Data Centre
#                                CCDC 
#
#######################################################################
#
# If this CIF has been generated from an entry in the Cambridge 
# Structural Database, then it will include bibliographic, chemical, 
# crystal, experimental, refinement or atomic coordinate data resulting 
# from the CCDC's data processing and validation procedures.
#
#######################################################################

data_JEKRUN
_symmetry_cell_setting           triclinic
_symmetry_space_group_name_H-M   'P -1'
_symmetry_Int_Tables_number      2
_space_group_name_Hall           '-P 1'
loop_
_symmetry_equiv_pos_site_id
_symmetry_equiv_pos_as_xyz
1 x,y,z
2 -x,-y,-z
_cell_length_a                   6.915(2)
_cell_length_b                   7.166(2)
_cell_length_c                   10.363(3)
_cell_angle_alpha                73.250(4)
_cell_angle_beta                 84.429(4)
_cell_angle_gamma                61.605(3)
_cell_volume                     432.082
loop_
_atom_site_label
_atom_site_type_symbol
_atom_site_fract_x
_atom_site_fract_y
_atom_site_fract_z
Zn1 Zn 0.5000 0.5000 0.5000
O1 O 0.7367(5) 0.2456(5) 0.4203(3)
O2 O 0.3395(5) 0.3078(5) 0.5736(3)
N1 N 0.3105(5) 0.6483(6) 0.3076(3)
C1 C 0.0918(7) 0.7742(7) 0.3035(4)
H1 H 0.0193 0.7679 0.3862
C2 C 0.4051(7) 0.6564(8) 0.1877(5)
H2 H 0.5593 0.5651 0.1869
C3 C -0.0342(7) 0.9118(7) 0.1871(4)
H3 H -0.1888 0.9974 0.1910
C4 C 0.0639(7) 0.9261(7) 0.0637(4)
C5 C 0.2930(7) 0.7881(8) 0.0669(5)
H4 H 0.3691 0.7865 -0.0145
H7 H 0.2759 0.2727 0.5146
H8 H 0.4284 0.1698 0.6405
H9 H 0.750(9) 0.138(9) 0.461(6)
H10 H 0.845(9) 0.244(9) 0.407(5)
Zn1_2 Zn -0.5000 1.5000 -0.5000
O1A O 0.2633(5) 0.7544(5) 0.5797(3)
O2A O 0.6605(5) 0.6922(5) 0.4264(3)
N1A N -0.3105(5) 1.3517(6) -0.3076(3)
N1A_2 N 0.6895(5) 0.3517(6) 0.6924(3)
C1A C -0.0918(7) 1.2258(7) -0.3035(4)
H1A H -0.0193 1.2321 -0.3862
C2A C -0.4051(7) 1.3436(8) -0.1877(5)
H2A H -0.5593 1.4349 -0.1869
C3A C 0.0342(7) 1.0882(7) -0.1871(4)
H3A H 0.1888 1.0026 -0.1910
C4A C -0.0639(7) 1.0739(7) -0.0637(4)
C5A C -0.2930(7) 1.2119(8) -0.0669(5)
H4A H -0.3691 1.2135 0.0145
H7A H 0.7241 0.7273 0.4854
H8A H 0.5716 0.8302 0.3595
H9A H 0.250(9) 0.862(9) 0.539(6)
H10A H 0.155(9) 0.756(9) 0.593(5)
O3 O 0.1746(5) 0.1617(5) 0.4052(3)
O4 O 0.4201(5) 0.0729(5) 0.2468(3)
C6 C 0.0825(7) 0.4108(7) 0.0497(4)
H5 H 0.2100 0.3063 0.0181
C7 C 0.2355(7) 0.1936(7) 0.2827(4)
C8 C 0.0696(7) 0.3817(7) 0.1826(4)
H6 H -0.0544 0.4892 0.2147
O3A O -0.1746(5) 0.8383(5) -0.4052(3)
O4A O -0.4201(5) 0.9271(5) -0.2468(3)
C6A C -0.0825(7) 0.5892(7) -0.0497(4)
H5A H -0.2100 0.6937 -0.0181
C7A C -0.2355(7) 0.8064(7) -0.2827(4)
C8A C -0.0696(7) 0.6183(7) -0.1826(4)
H6A H 0.0544 0.5108 -0.2147
loop_
_geom_bond_atom_site_label_1
_geom_bond_atom_site_label_2
_geom_bond_site_symmetry_1
_geom_bond_site_symmetry_2
Zn1 O1 1_555 1_555
O1 H9 1_555 1_555
O2 Zn1 1_555 1_555
N1 Zn1 1_555 1_555
C1 N1 1_555 1_555
H1 C1 1_555 1_555
C2 N1 1_555 1_555
H2 C2 1_555 1_555
C3 C1 1_555 1_555
H3 C3 1_555 1_555
C4 C3 1_555 1_555
C5 C2 1_555 1_555
H4 C5 1_555 1_555
O3 C7 1_555 1_555
O4 C7 1_555 1_555
C6 H5 1_555 1_555
C7 C8 1_555 1_555
C8 C6 1_555 1_555
H6 C8 1_555 1_555
H7 O2 1_555 1_555
H8 O2 1_555 1_555
H10 O1 1_555 1_555
Zn1_2 N1A 1_555 1_555
O1A Zn1 1_555 1_555
O2A Zn1 1_555 1_555
N1A C1A 1_555 1_555
N1A_2 Zn1 1_555 1_555
C1A H1A 1_555 1_555
C2A N1A 1_555 1_555
H2A C2A 1_555 1_555
C3A C1A 1_555 1_555
H3A C3A 1_555 1_555
C4A C4 1_555 1_555
C5A C2A 1_555 1_555
H4A C5A 1_555 1_555
O3A C7A 1_555 1_555
O4A C7A 1_555 1_555
C6A C6 1_555 1_555
H5A C6A 1_555 1_555
C7A C8A 1_555 1_555
C8A C6A 1_555 1_555
H6A C8A 1_555 1_555
H7A O2A 1_555 1_555
H8A O2A 1_555 1_555
H9A O1A 1_555 1_555
H10A O1A 1_555 1_555
C4 C5 1_555 1_555
C3A C4A 1_555 1_555
C4A C5A 1_555 1_555

#END
