
#######################################################################
#
#                 Cambridge Crystallographic Data Centre
#                                CCDC 
#
#######################################################################
#
# If this CIF has been generated from an entry in the Cambridge 
# Structural Database, then it will include bibliographic, chemical, 
# crystal, experimental, refinement or atomic coordinate data resulting 
# from the CCDC's data processing and validation procedures.
#
#######################################################################

data_JELPOF
_symmetry_cell_setting           monoclinic
_symmetry_space_group_name_H-M   'P 21/n'
_symmetry_Int_Tables_number      14
_space_group_name_Hall           '-P 2yn'
loop_
_symmetry_equiv_pos_site_id
_symmetry_equiv_pos_as_xyz
1 x,y,z
2 1/2-x,1/2+y,1/2-z
3 -x,-y,-z
4 1/2+x,1/2-y,1/2+z
_cell_length_a                   9.686(4)
_cell_length_b                   9.409(3)
_cell_length_c                   21.231(4)
_cell_angle_alpha                90
_cell_angle_beta                 102.0(2)
_cell_angle_gamma                90
_cell_volume                     1892.62
loop_
_atom_site_label
_atom_site_type_symbol
_atom_site_fract_x
_atom_site_fract_y
_atom_site_fract_z
Cu1 Cu 0.1491(1) 0.4162(1) 0.4939(1)
S1 S -0.0956(2) 0.1539(2) 0.2830(1)
S2 S -0.2944(2) 0.2034(2) 0.2926(1)
O1 O 0.0458(3) 0.2405(3) 0.4731(2)
O2 O 0.1946(3) 0.1468(4) 0.4171(2)
O3 O -0.4957(3) 0.0175(3) 0.0635(1)
O4 O -0.6221(3) -0.0148(4) 0.1378(2)
N1 N 0.3118(4) 0.3312(4) 0.5547(2)
N2 N 0.2722(4) 0.5876(4) 0.5115(2)
C1 C 0.0793(5) 0.1519(5) 0.4328(2)
C2 C -0.0354(5) 0.0432(5) 0.4077(2)
C3 C -0.0479(6) 0.0060(6) 0.3377(3)
C4 C -0.4094(5) 0.0842(6) 0.2383(2)
C5 C -0.3916(5) 0.0908(6) 0.1696(2)
C6 C -0.5133(5) 0.0245(5) 0.1222(2)
C7 C 0.3205(5) 0.1949(5) 0.5747(2)
C8 C 0.4337(5) 0.1453(5) 0.6194(2)
C9 C 0.5424(5) 0.2379(6) 0.6442(2)
C10 C 0.5354(5) 0.3766(5) 0.6235(2)
C11 C 0.4182(4) 0.4201(5) 0.5780(2)
C12 C 0.3990(5) 0.5656(5) 0.5523(2)
C13 C 0.4970(5) 0.6737(5) 0.5675(2)
C14 C 0.4669(5) 0.8066(5) 0.5407(2)
C15 C 0.3368(5) 0.8296(5) 0.4995(2)
C16 C 0.2430(5) 0.7168(5) 0.4867(2)
H5 H 0.2359 0.1226 0.5550
H6 H 0.4377 0.0358 0.6349
H7 H 0.6322 0.2014 0.6796
H8 H 0.6192 0.4505 0.6422
H9 H 0.5965 0.6541 0.6002
H10 H 0.5431 0.8916 0.5512
H11 H 0.3095 0.9327 0.4781
H12 H 0.1418 0.7345 0.4551
H13 H -0.1352 0.0862 0.4138
H14 H -0.0123 -0.0526 0.4359
H15 H 0.0526 -0.0349 0.3315
H16 H -0.1275 -0.0753 0.3252
H17 H -0.5174 0.1108 0.2394
H18 H -0.3875 -0.0232 0.2555
H19 H -0.3832 0.2010 0.1567
H20 H -0.2958 0.0356 0.1661
O3A O -0.0043(3) 0.5175(3) 0.4365(1)
Cu1A Cu -0.6491(1) -0.0838(1) 0.0061(1)
O3C O 0.0043(3) 0.4825(3) 0.5635(1)
Cu1C Cu -0.3509(1) 0.0838(1) -0.0061(1)
O5 O 0.2676(4) 0.3829(4) 0.2754(2)
H2 H 0.2890 0.2879 0.2873
O6 O 0.1890(4) 0.5997(4) 0.1873(2)
H3 H 0.2372 0.6041 0.1476
H4 H 0.2206 0.5314 0.2204
H1? H 0.1950 0.5000 0.2888
loop_
_geom_bond_atom_site_label_1
_geom_bond_atom_site_label_2
_geom_bond_site_symmetry_1
_geom_bond_site_symmetry_2
Cu1 O1 1_555 1_555
S1 S2 1_555 1_555
S2 C4 1_555 1_555
O1 C1 1_555 1_555
O2 C1 1_555 1_555
O3 C6 1_555 1_555
O4 C6 1_555 1_555
O5 H2 1_555 1_555
O6 H3 1_555 1_555
N1 Cu1 1_555 1_555
N2 Cu1 1_555 1_555
C1 C2 1_555 1_555
C2 C3 1_555 1_555
C3 S1 1_555 1_555
C4 C5 1_555 1_555
C5 C6 1_555 1_555
C7 N1 1_555 1_555
C8 C7 1_555 1_555
C9 C8 1_555 1_555
C10 C9 1_555 1_555
C11 N1 1_555 1_555
C12 N2 1_555 1_555
C13 C12 1_555 1_555
C14 C13 1_555 1_555
C15 C14 1_555 1_555
C16 N2 1_555 1_555
H4 O6 1_555 1_555
H5 C7 1_555 1_555
H6 C8 1_555 1_555
H7 C9 1_555 1_555
H8 C10 1_555 1_555
H9 C13 1_555 1_555
H10 C14 1_555 1_555
H11 C15 1_555 1_555
H12 C16 1_555 1_555
H13 C2 1_555 1_555
H14 C2 1_555 1_555
H15 C3 1_555 1_555
H16 C3 1_555 1_555
H17 C4 1_555 1_555
H18 C4 1_555 1_555
H19 C5 1_555 1_555
H20 C5 1_555 1_555
O3A Cu1 1_555 1_555
Cu1A O3 1_555 1_555
O3C Cu1 1_555 1_555
Cu1C O3 1_555 1_555
C10 C11 1_555 1_555
C11 C12 1_555 1_555
C15 C16 1_555 1_555

#END
