
#######################################################################
#
#                 Cambridge Crystallographic Data Centre
#                                CCDC 
#
#######################################################################
#
# If this CIF has been generated from an entry in the Cambridge 
# Structural Database, then it will include bibliographic, chemical, 
# crystal, experimental, refinement or atomic coordinate data resulting 
# from the CCDC's data processing and validation procedures.
#
#######################################################################

data_JEMBUZ
_symmetry_cell_setting           monoclinic
_symmetry_space_group_name_H-M   'C 2/c'
_symmetry_Int_Tables_number      15
_space_group_name_Hall           '-C 2yn'
loop_
_symmetry_equiv_pos_site_id
_symmetry_equiv_pos_as_xyz
1 x,y,z
2 1/2+x,1/2+y,z
3 -x,y,1/2-z
4 1/2-x,1/2+y,1/2-z
5 -x,-y,-z
6 1/2-x,1/2-y,-z
7 x,-y,1/2+z
8 1/2+x,1/2-y,1/2+z
_cell_length_a                   15.665(2)
_cell_length_b                   14.616(2)
_cell_length_c                   12.307(2)
_cell_angle_alpha                90
_cell_angle_beta                 108.31(1)
_cell_angle_gamma                90
_cell_volume                     2675.14
loop_
_atom_site_label
_atom_site_type_symbol
_atom_site_fract_x
_atom_site_fract_y
_atom_site_fract_z
Mo1 Mo 0.5000 0.705894(18) 0.2500
Mn1 Mn 0.79807(3) 0.91930(3) 0.32488(3)
O1 O 0.68633(17) 0.97106(19) 0.1772(2)
O2 O 0.73044(18) 0.9963(2) 0.4277(2)
N1 N 0.85046(19) 0.84599(19) 0.2029(3)
N2 N 0.70229(15) 0.80048(16) 0.3210(2)
N3 N 0.39102(16) 0.62768(16) -0.0089(2)
N4 N 0.37580(16) 0.54119(16) 0.3074(2)
N5 N 0.48714(18) 0.86727(19) 0.4311(2)
N6 N 0.9083(3) 0.8238(3) 0.0637(4)
H1 H 0.9510 0.8249 0.0337
C1 C 0.9049(17) 0.8714(18) 0.1515(19)
H2 H 0.9412 0.9226 0.1757
C2 C 0.8335(7) 0.7727(8) 0.0281(8)
H3 H 0.8125 0.7381 -0.0385
C3 C 0.7962(6) 0.7836(6) 0.1129(7)
H4 H 0.7432 0.7556 0.1143
C7 C 0.63337(17) 0.76524(16) 0.2976(2)
C8 C 0.42854(16) 0.65293(16) 0.0810(2)
C9 C 0.41871(16) 0.59882(17) 0.2881(2)
C10 C 0.49220(17) 0.81134(18) 0.3679(2)
H9 H 0.680(2) 1.0248(9) 0.158(3)
H10 H 0.6394(16) 0.943(2) 0.151(4)
H11 H 0.6822(19) 1.019(4) 0.391(3)
H12 H 0.730(3) 0.982(4) 0.492(2)
Mn1B Mn 0.20193(3) 0.91930(3) 0.17512(3)
Mn1G Mn 0.29807(3) 0.58070(3) -0.17512(3)
Mn1A Mn 0.29807(3) 0.41930(3) 0.32488(3)
Mn1E Mn 0.70193(3) 0.58070(3) 0.67512(3)
Mn1C Mn 0.70193(3) 0.41930(3) 0.17512(3)
O1B O 0.31367(17) 0.97106(19) 0.3228(2)
O2B O 0.26956(18) 0.9963(2) 0.0723(2)
N1B N 0.14954(19) 0.84599(19) 0.2971(3)
N2B N 0.29771(15) 0.80048(16) 0.1790(2)
N3B N 0.60898(16) 0.62768(16) 0.5089(2)
N3G N 0.89102(16) 0.87232(16) 0.4911(2)
N3E N 0.10898(16) 0.87232(16) 0.0089(2)
N4B N 0.62420(16) 0.54119(16) 0.1926(2)
N4A N 0.87580(16) 1.04119(16) 0.3074(2)
N4C N 0.12420(16) 1.04119(16) 0.1926(2)
N5B N 0.51286(18) 0.86727(19) 0.0689(2)
N6B N 0.0917(3) 0.8238(3) 0.4363(4)
H1B H 0.0490 0.8249 0.4663
C1B C 0.0951(17) 0.8714(18) 0.3485(19)
H2B H 0.0588 0.9226 0.3243
C2B C 0.1665(7) 0.7727(8) 0.4719(8)
H3B H 0.1875 0.7381 0.5385
C3B C 0.2038(6) 0.7836(6) 0.3871(7)
H4B H 0.2568 0.7556 0.3857
C7B C 0.36663(17) 0.76524(16) 0.2024(2)
C8B C 0.57146(16) 0.65293(16) 0.4190(2)
C9B C 0.58129(16) 0.59882(17) 0.2119(2)
C10B C 0.50780(17) 0.81134(18) 0.1321(2)
H9B H 0.320(2) 1.0248(9) 0.342(3)
H10B H 0.3606(16) 0.943(2) 0.349(4)
H11B H 0.3178(19) 1.019(4) 0.109(3)
H12B H 0.270(3) 0.982(4) 0.008(2)
O3 O 0.1803(3) 0.6352(3) 0.0815(4)
O4 O 0.4483(7) 0.9618(5) 0.6398(11)
N7? N 0.4083(3) 0.3238(3) 0.0637(4)
H5? H 0.4219 0.3322 0.0020
C4? C 0.3793(15) 0.3836(16) 0.1235(18)
H6? H 0.3792 0.4463 0.1111
C5? C 0.4116(5) 0.2372(5) 0.1301(6)
H7? H 0.4326 0.1805 0.1153
C6? C 0.3783(6) 0.2577(5) 0.2150(7)
H8? H 0.3749 0.2180 0.2726
O5? O 0.1435(7) 0.6502(6) 0.1502(10)
O6? O 0.4386(11) 0.9198(9) 0.6403(12)
loop_
_geom_bond_atom_site_label_1
_geom_bond_atom_site_label_2
_geom_bond_site_symmetry_1
_geom_bond_site_symmetry_2
Mo1 C7 1_555 1_555
Mn1 O1 1_555 1_555
O1 H9 1_555 1_555
O2 Mn1 1_555 1_555
N1 Mn1 1_555 1_555
N2 Mn1 1_555 1_555
N3 C8 1_555 1_555
N4 C9 1_555 1_555
N5 C10 1_555 1_555
N6 H1 1_555 1_555
C1 N1 1_555 1_555
H2 C1 1_555 1_555
C2 N6 1_555 1_555
H3 C2 1_555 1_555
C3 N1 1_555 1_555
H4 C3 1_555 1_555
C7 N2 1_555 1_555
C8 Mo1 1_555 1_555
C9 Mo1 1_555 1_555
C10 Mo1 1_555 1_555
H10 O1 1_555 1_555
H11 O2 1_555 1_555
H12 O2 1_555 1_555
Mn1B O1B 1_555 1_555
Mn1G N3 1_555 1_555
Mn1A N4 1_555 1_555
Mn1E N3B 1_555 1_555
Mn1C N4B 1_555 1_555
O1B H9B 1_555 1_555
O2B Mn1B 1_555 1_555
N1B Mn1B 1_555 1_555
N2B Mn1B 1_555 1_555
N3B C8B 1_555 1_555
N3G Mn1 1_555 1_555
N3E Mn1B 1_555 1_555
N4B C9B 1_555 1_555
N4A Mn1 1_555 1_555
N4C Mn1B 1_555 1_555
N5B C10B 1_555 1_555
N6B H1B 1_555 1_555
C1B N1B 1_555 1_555
H2B C1B 1_555 1_555
C2B N6B 1_555 1_555
H3B C2B 1_555 1_555
C3B N1B 1_555 1_555
H4B C3B 1_555 1_555
C7B Mo1 1_555 1_555
C8B Mo1 1_555 1_555
C9B Mo1 1_555 1_555
C10B Mo1 1_555 1_555
H10B O1B 1_555 1_555
H11B O2B 1_555 1_555
H12B O2B 1_555 1_555
N6 C1 1_555 1_555
C2 C3 1_555 1_555
N2B C7B 1_555 1_555
N6B C1B 1_555 1_555
C2B C3B 1_555 1_555

#END
