
#######################################################################
#
#                 Cambridge Crystallographic Data Centre
#                                CCDC 
#
#######################################################################
#
# If this CIF has been generated from an entry in the Cambridge 
# Structural Database, then it will include bibliographic, chemical, 
# crystal, experimental, refinement or atomic coordinate data resulting 
# from the CCDC's data processing and validation procedures.
#
#######################################################################

data_JENKIX
_symmetry_cell_setting           monoclinic
_symmetry_space_group_name_H-M   'I 2/a'
_symmetry_Int_Tables_number      15
_space_group_name_Hall           '-I 2ya'
loop_
_symmetry_equiv_pos_site_id
_symmetry_equiv_pos_as_xyz
1 x,y,z
2 1/2+x,1/2+y,1/2+z
3 1/2-x,y,-z
4 -x,1/2+y,1/2-z
5 -x,-y,-z
6 1/2-x,1/2-y,1/2-z
7 1/2+x,-y,z
8 x,1/2-y,1/2+z
_cell_length_a                   34.6215(9)
_cell_length_b                   15.0763(3)
_cell_length_c                   42.9953(9)
_cell_angle_alpha                90
_cell_angle_beta                 108.373(2)
_cell_angle_gamma                90
_cell_volume                     21298
loop_
_atom_site_label
_atom_site_type_symbol
_atom_site_fract_x
_atom_site_fract_y
_atom_site_fract_z
Zn1 Zn 1.300986(12) 0.11749(3) -0.207205(9)
Zn2 Zn 1.130350(13) -0.71402(3) -0.720200(10)
Zn3 Zn 1.608860(14) -1.30292(3) -0.285830(10)
Zn4 Zn 1.281722(12) 0.25012(3) -0.268782(9)
O1 O 1.27902(6) 0.23367(13) -0.21990(5)
C1 C 1.37318(10) -0.4599(2) -0.38530(8)
C2 C 1.39977(10) -0.5256(2) -0.36780(8)
H1 H 1.4117 -0.5198 -0.3448
C3 C 1.40893(10) -0.5988(2) -0.38349(8)
C4 C 1.39073(10) -0.6062(2) -0.41744(8)
H2 H 1.3964 -0.6569 -0.4284
O2 O 1.21448(9) -0.73515(19) -0.68438(6)
O3 O 1.16147(7) -0.66015(16) -0.67912(5)
C5 C 1.36192(11) -0.3839(2) -0.36812(8)
C6 C 1.35408(12) -0.3006(2) -0.38294(9)
H3 H 1.3567 -0.2920 -0.4041
C7 C 1.34242(12) -0.2297(2) -0.36701(9)
H4 H 1.3371 -0.1736 -0.3775
C8 C 1.33842(11) -0.2400(2) -0.33604(8)
C9 C 1.34576(11) -0.3237(2) -0.32115(9)
H5 H 1.3430 -0.3323 -0.3001
C10 C 1.35704(11) -0.3939(2) -0.33714(8)
H6 H 1.3616 -0.4504 -0.3269
C11 C 1.32913(11) -0.1626(2) -0.31818(8)
C12 C 1.30296(12) -0.0952(2) -0.33439(9)
H7 H 1.2895 -0.0995 -0.3573
C13 C 1.29648(11) -0.0217(2) -0.31721(8)
H8 H 1.2789 0.0245 -0.3285
C14 C 1.31547(10) -0.0151(2) -0.28360(8)
C15 C 1.34162(10) -0.0821(2) -0.26730(8)
H9 H 1.3550 -0.0777 -0.2444
C16 C 1.34807(11) -0.1554(2) -0.28453(8)
H10 H 1.3657 -0.2013 -0.2732
C17 C 1.30896(10) 0.0633(2) -0.26486(8)
O4 O 1.28066(7) 0.11585(14) -0.27890(6)
O5 O 1.33192(7) 0.07245(14) -0.23546(5)
C18 C 1.43633(10) -0.6713(2) -0.36503(8)
C19 C 1.43751(10) -0.6935(2) -0.33324(9)
H11 H 1.4230 -0.6586 -0.3223
C20 C 1.46008(11) -0.7672(2) -0.31740(9)
H12 H 1.4604 -0.7816 -0.2958
C21 C 1.48170(10) -0.8190(2) -0.33248(9)
C22 C 1.48168(11) -0.7939(2) -0.36395(9)
H13 H 1.4972 -0.8272 -0.3746
C23 C 1.45929(11) -0.7212(2) -0.37970(9)
H14 H 1.4598 -0.7054 -0.4010
C24 C 1.50425(10) -0.9002(2) -0.31684(9)
C25 C 1.51877(10) -0.9093(2) -0.28302(9)
H15 H 1.5143 -0.8632 -0.2695
C26 C 1.53985(10) -0.9852(2) -0.26866(8)
H16 H 1.5501 -0.9901 -0.2455
C27 C 1.54595(10) -1.0541(2) -0.28838(9)
C28 C 1.53076(11) -1.0454(2) -0.32199(9)
H17 H 1.5344 -1.0923 -0.3356
C29 C 1.51038(11) -0.9700(2) -0.33613(9)
H18 H 1.5003 -0.9652 -0.3593
C30 C 1.56898(10) -1.1362(2) -0.27362(9)
O6 O 1.58455(7) -1.13719(16) -0.24272(6)
O7 O 1.57223(8) -1.19529(15) -0.29320(6)
C31 C 1.34355(11) -0.5546(2) -0.47161(8)
C32 C 1.35491(18) -0.6172(4) -0.48936(11)
H19 H 1.3789 -0.6505 -0.4793
C33 C 1.33290(18) -0.6346(4) -0.52173(11)
H20 H 1.3419 -0.6800 -0.5331
C34 C 1.29831(12) -0.5877(3) -0.53779(9)
C35 C 1.29027(16) -0.5186(3) -0.52150(10)
H21 H 1.2688 -0.4796 -0.5325
C36 C 1.31230(15) -0.5016(3) -0.48875(10)
H22 H 1.3053 -0.4517 -0.4782
C37 C 1.27278(12) -0.6103(3) -0.57213(9)
C38 C 1.28922(13) -0.6494(3) -0.59394(10)
H23 H 1.3176 -0.6610 -0.5873
C39 C 1.26572(13) -0.6720(3) -0.62508(9)
H24 H 1.2780 -0.6990 -0.6396
C40 C 1.22407(10) -0.6557(2) -0.63555(8)
C41 C 1.20744(12) -0.6135(3) -0.61427(9)
H25 H 1.1793 -0.5993 -0.6213
C42 C 1.23135(12) -0.5917(3) -0.58279(10)
H26 H 1.2193 -0.5636 -0.5683
C43 C 1.19852(12) -0.6849(2) -0.66898(8)
C44 C 1.36461(11) -0.5416(2) -0.43553(8)
C45 C 1.35660(11) -0.4685(2) -0.41923(8)
H27 H 1.3394 -0.4231 -0.4314
O8 O 1.15475(7) -0.73711(13) -0.75515(5)
C46 C 0.99603(10) -0.5686(2) -0.36407(7)
C47 C 1.02689(10) -0.5160(2) -0.34406(8)
H28 H 1.0369 -0.5278 -0.3212
C48 C 1.04329(10) -0.4466(2) -0.35686(8)
C49 C 1.02933(11) -0.4311(2) -0.39044(8)
H29 H 1.0416 -0.3859 -0.3995
C50 C 0.99748(10) -0.4812(2) -0.41109(8)
C51 C 0.98124(10) -0.5494(2) -0.39722(8)
H30 H 0.9594 -0.5836 -0.4109
C52 C 0.98015(10) -0.6458(2) -0.35003(8)
C53 C 0.97028(11) -0.7246(2) -0.36772(8)
H31 H 0.9728 -0.7283 -0.3891
C54 C 0.95693(11) -0.7971(2) -0.35462(9)
H32 H 0.9503 -0.8502 -0.3671
C55 C 0.95292(10) -0.7943(2) -0.32327(8)
C56 C 0.96175(11) -0.7145(2) -0.30629(8)
H33 H 0.9584 -0.7100 -0.2853
C57 C 0.97528(11) -0.6421(2) -0.31931(8)
H34 H 0.9814 -0.5886 -0.3070
C58 C 0.94032(11) -0.8741(2) -0.30872(8)
C59 C 0.91526(11) -0.9384(2) -0.32845(8)
H35 H 0.9055 -0.9300 -0.3515
C60 C 0.90441(11) -1.0133(2) -0.31528(8)
H36 H 0.8875 -1.0564 -0.3292
C61 C 0.91799(10) -1.0268(2) -0.28150(8)
C62 C 0.94271(10) -0.9637(2) -0.26160(8)
H37 H 0.9522 -0.9723 -0.2385
C63 C 0.95388(10) -0.8881(2) -0.27490(8)
H38 H 0.9709 -0.8453 -0.2609
C64 C 0.90524(10) -1.1078(2) -0.26741(8)
O9 O 0.88537(7) -1.16550(15) -0.28752(5)
O10 O 0.91604(7) -1.11399(14) -0.23690(5)
C65 C 1.07384(10) -0.3858(2) -0.33484(8)
C66 C 1.06179(10) -0.3366(2) -0.31204(8)
H39 H 1.0359 -0.3467 -0.3094
C67 C 1.08753(10) -0.2733(2) -0.29340(8)
H40 H 1.0789 -0.2394 -0.2782
C68 C 1.12588(10) -0.2579(2) -0.29629(8)
C69 C 1.13811(12) -0.3108(2) -0.31805(11)
H41 H 1.1647 -0.3040 -0.3197
C70 C 1.11211(12) -0.3729(3) -0.33724(11)
H42 H 1.1208 -0.4072 -0.3523
C71 C 1.15192(10) -0.1853(2) -0.27737(9)
C72 C 1.19430(11) -0.1933(2) -0.26470(11)
H43 H 1.2070 -0.2477 -0.2670
C73 C 1.21780(11) -0.1225(2) -0.24877(10)
H44 H 1.2465 -0.1287 -0.2401
C74 C 1.19979(10) -0.0430(2) -0.24545(8)
C75 C 1.15780(10) -0.0354(2) -0.25729(9)
H45 H 1.1451 0.0186 -0.2546
C76 C 1.13438(11) -0.1062(2) -0.27293(9)
H46 H 1.1056 -0.1002 -0.2808
C77 C 1.22520(10) 0.0356(2) -0.23099(8)
O11 O 1.26171(7) 0.02156(15) -0.21380(6)
O12 O 1.20919(7) 0.10997(14) -0.23744(7)
C78 C 0.98084(11) -0.4606(2) -0.44662(8)
C79 C 0.98283(13) -0.3771(3) -0.45901(9)
H47 H 0.9953 -0.3304 -0.4444
C80 C 0.96702(13) -0.3596(3) -0.49228(9)
H48 H 0.9692 -0.3014 -0.5001
C81 C 0.94826(11) -0.4248(2) -0.51431(8)
C82 C 0.94677(12) -0.5097(3) -0.50207(9)
H49 H 0.9344 -0.5561 -0.5168
C83 C 0.96278(12) -0.5280(3) -0.46901(9)
H50 H 0.9616 -0.5867 -0.4614
C84 C 0.93053(11) -0.4070(3) -0.55005(8)
C85 C 0.94796(11) -0.3491(3) -0.56650(8)
H51 H 0.9717 -0.3172 -0.5546
C86 C 0.93151(11) -0.3361(2) -0.60020(8)
H52 H 0.9445 -0.2973 -0.6112
C87 C 0.89625(11) -0.3801(2) -0.61748(8)
C88 C 0.87847(12) -0.4390(3) -0.60134(9)
H53 H 0.8543 -0.4694 -0.6132
C89 C 0.89557(12) -0.4540(3) -0.56799(9)
H54 H 0.8837 -0.4961 -0.5573
C90 C 0.87646(11) -0.3655(2) -0.65317(8)
O13 O 0.89709(7) -0.33148(15) -0.66934(5)
O14 O 0.83979(7) -0.39024(17) -0.66411(5)
Zn1A Zn 0.800986(12) -0.38251(3) -0.707205(9)
Zn2A Zn 1.630350(13) -1.21402(3) -0.220200(10)
Zn2D Zn 0.869650(13) -1.28598(3) -0.279800(10)
Zn3A Zn 1.108860(14) -0.80292(3) -0.785830(10)
Zn3E Zn 0.891140(14) -1.19708(3) -0.214170(10)
Zn3B Zn 0.891140(14) -0.30292(3) -0.714170(10)
Zn4E Zn 1.218278(12) 0.24988(3) -0.231218(9)
Zn4B Zn 1.218278(12) -0.74988(3) -0.731218(9)
O1E O 1.22098(6) 0.26633(13) -0.28010(5)
O2B O 1.28552(9) 0.26485(19) -0.31562(6)
O6A O 1.08455(7) -0.63719(16) -0.74272(6)
O8A O 1.65475(7) -1.23711(13) -0.25515(5)
O8B O 1.34525(7) 0.26289(13) -0.24485(5)
O9D O 1.11463(7) -0.83450(15) -0.71248(5)
O10E O 1.58396(7) -1.38601(14) -0.26310(5)
O12E O 1.29081(7) 0.39003(14) -0.26256(7)
O13B O 1.60291(7) -1.33148(15) -0.33066(5)
O14A O 1.33979(7) 0.10976(17) -0.16411(5)
loop_
_geom_bond_atom_site_label_1
_geom_bond_atom_site_label_2
_geom_bond_site_symmetry_1
_geom_bond_site_symmetry_2
Zn1 O1 1_555 1_555
Zn2 O3 1_555 1_555
Zn3 O7 1_555 1_555
Zn4 O1 1_555 1_555
O1 Zn4E 1_555 1_555
C1 C2 1_555 1_555
C2 H1 1_555 1_555
C3 C2 1_555 1_555
C4 C3 1_555 1_555
H2 C4 1_555 1_555
O2 C43 1_555 1_555
O3 C43 1_555 1_555
C5 C1 1_555 1_555
C6 C5 1_555 1_555
H3 C6 1_555 1_555
C7 C6 1_555 1_555
H4 C7 1_555 1_555
C8 C7 1_555 1_555
C9 C8 1_555 1_555
H5 C9 1_555 1_555
C10 C5 1_555 1_555
H6 C10 1_555 1_555
C11 C8 1_555 1_555
C12 C11 1_555 1_555
H7 C12 1_555 1_555
C13 C12 1_555 1_555
H8 C13 1_555 1_555
C14 C13 1_555 1_555
C15 C14 1_555 1_555
H9 C15 1_555 1_555
C16 C11 1_555 1_555
H10 C16 1_555 1_555
C17 C14 1_555 1_555
O4 Zn4 1_555 1_555
O5 Zn1 1_555 1_555
C18 C3 1_555 1_555
C19 C18 1_555 1_555
H11 C19 1_555 1_555
C20 C19 1_555 1_555
H12 C20 1_555 1_555
C21 C20 1_555 1_555
C22 C21 1_555 1_555
H13 C22 1_555 1_555
C23 C18 1_555 1_555
H14 C23 1_555 1_555
C24 C21 1_555 1_555
C25 C24 1_555 1_555
H15 C25 1_555 1_555
C26 C25 1_555 1_555
H16 C26 1_555 1_555
C27 C26 1_555 1_555
C28 C27 1_555 1_555
H17 C28 1_555 1_555
C29 C24 1_555 1_555
H18 C29 1_555 1_555
C30 C27 1_555 1_555
O6 C30 1_555 1_555
O7 C30 1_555 1_555
C31 C32 1_555 1_555
C32 H19 1_555 1_555
C33 C32 1_555 1_555
H20 C33 1_555 1_555
C34 C33 1_555 1_555
C35 C34 1_555 1_555
H21 C35 1_555 1_555
C36 C31 1_555 1_555
H22 C36 1_555 1_555
C37 C34 1_555 1_555
C38 C37 1_555 1_555
H23 C38 1_555 1_555
C39 C38 1_555 1_555
H24 C39 1_555 1_555
C40 C39 1_555 1_555
C41 C40 1_555 1_555
H25 C41 1_555 1_555
C42 C37 1_555 1_555
H26 C42 1_555 1_555
C43 C40 1_555 1_555
C44 C4 1_555 1_555
C45 C1 1_555 1_555
H27 C45 1_555 1_555
O8 Zn2 1_555 1_555
C46 C47 1_555 1_555
C47 H28 1_555 1_555
C48 C47 1_555 1_555
C49 C48 1_555 1_555
H29 C49 1_555 1_555
C50 C49 1_555 1_555
C51 C46 1_555 1_555
H30 C51 1_555 1_555
C52 C46 1_555 1_555
C53 C52 1_555 1_555
H31 C53 1_555 1_555
C54 C53 1_555 1_555
H32 C54 1_555 1_555
C55 C54 1_555 1_555
C56 C55 1_555 1_555
H33 C56 1_555 1_555
C57 C52 1_555 1_555
H34 C57 1_555 1_555
C58 C55 1_555 1_555
C59 C58 1_555 1_555
H35 C59 1_555 1_555
C60 C59 1_555 1_555
H36 C60 1_555 1_555
C61 C60 1_555 1_555
C62 C61 1_555 1_555
H37 C62 1_555 1_555
C63 C58 1_555 1_555
H38 C63 1_555 1_555
C64 C61 1_555 1_555
O9 C64 1_555 1_555
O10 C64 1_555 1_555
C65 C48 1_555 1_555
C66 C65 1_555 1_555
H39 C66 1_555 1_555
C67 C66 1_555 1_555
H40 C67 1_555 1_555
C68 C67 1_555 1_555
C69 C68 1_555 1_555
H41 C69 1_555 1_555
C70 C65 1_555 1_555
H42 C70 1_555 1_555
C71 C68 1_555 1_555
C72 C71 1_555 1_555
H43 C72 1_555 1_555
C73 C72 1_555 1_555
H44 C73 1_555 1_555
C74 C73 1_555 1_555
C75 C74 1_555 1_555
H45 C75 1_555 1_555
C76 C71 1_555 1_555
H46 C76 1_555 1_555
C77 C74 1_555 1_555
O11 Zn1 1_555 1_555
O12 C77 1_555 1_555
C78 C50 1_555 1_555
C79 C78 1_555 1_555
H47 C79 1_555 1_555
C80 C79 1_555 1_555
H48 C80 1_555 1_555
C81 C80 1_555 1_555
C82 C81 1_555 1_555
H49 C82 1_555 1_555
C83 C78 1_555 1_555
H50 C83 1_555 1_555
C84 C81 1_555 1_555
C85 C84 1_555 1_555
H51 C85 1_555 1_555
C86 C85 1_555 1_555
H52 C86 1_555 1_555
C87 C86 1_555 1_555
C88 C87 1_555 1_555
H53 C88 1_555 1_555
C89 C84 1_555 1_555
H54 C89 1_555 1_555
C90 C87 1_555 1_555
O13 C90 1_555 1_555
O14 C90 1_555 1_555
Zn1A O14 1_555 1_555
Zn2A O6 1_555 1_555
Zn2D O9 1_555 1_555
Zn3A O8 1_555 1_555
Zn3E O10 1_555 1_555
Zn3B O13 1_555 1_555
Zn4E O12 1_555 1_555
Zn4B O2 1_555 1_555
O1E Zn4 1_555 1_555
O2B Zn4 1_555 1_555
O6A Zn2 1_555 1_555
O8A Zn3 1_555 1_555
O8B Zn4 1_555 1_555
O9D Zn2 1_555 1_555
O10E Zn3 1_555 1_555
O12E Zn4 1_555 1_555
O13B Zn3 1_555 1_555
O14A Zn1 1_555 1_555
C9 C10 1_555 1_555
C15 C16 1_555 1_555
C17 O4 1_555 1_555
C17 O5 1_555 1_555
C22 C23 1_555 1_555
C28 C29 1_555 1_555
C31 C44 1_555 1_555
C35 C36 1_555 1_555
C41 C42 1_555 1_555
C44 C45 1_555 1_555
O8 Zn4B 1_555 1_555
C50 C51 1_555 1_555
C56 C57 1_555 1_555
C62 C63 1_555 1_555
C69 C70 1_555 1_555
C75 C76 1_555 1_555
C77 O11 1_555 1_555
C82 C83 1_555 1_555
C88 C89 1_555 1_555
Zn2A O8A 1_555 1_555
Zn4E O1E 1_555 1_555

#END
