
#######################################################################
#
#                 Cambridge Crystallographic Data Centre
#                                CCDC 
#
#######################################################################
#
# If this CIF has been generated from an entry in the Cambridge 
# Structural Database, then it will include bibliographic, chemical, 
# crystal, experimental, refinement or atomic coordinate data resulting 
# from the CCDC's data processing and validation procedures.
#
#######################################################################

data_JENROK
_symmetry_cell_setting           triclinic
_symmetry_space_group_name_H-M   'P -1'
_symmetry_Int_Tables_number      2
_space_group_name_Hall           '-P 1'
loop_
_symmetry_equiv_pos_site_id
_symmetry_equiv_pos_as_xyz
1 x,y,z
2 -x,-y,-z
_cell_length_a                   7.8105(2)
_cell_length_b                   8.3423(2)
_cell_length_c                   12.7014(3)
_cell_angle_alpha                78.663(1)
_cell_angle_beta                 74.482(1)
_cell_angle_gamma                63.923(1)
_cell_volume                     713.261
loop_
_atom_site_label
_atom_site_type_symbol
_atom_site_fract_x
_atom_site_fract_y
_atom_site_fract_z
Mn1 Mn 0.0000 0.5000 0.5000
Mn2 Mn 0.0000 0.5000 0.0000
O1 O -0.3075(2) 0.5330(2) 0.06376(15)
H1 H -0.379(5) 0.615(4) 0.020(3)
H2 H -0.370(5) 0.547(4) 0.127(3)
N1 N 0.2606(3) 0.5616(3) 0.44965(18)
N2 N 0.3641(3) 0.5767(3) 0.36481(17)
N3 N 0.4712(3) 0.5915(3) 0.28237(19)
N4 N 0.0103(3) 0.5374(3) 0.16435(16)
N5 N 0.0418(3) 0.4616(2) 0.25019(15)
N6 N 0.0728(3) 0.3868(3) 0.33660(16)
N7 N -0.1762(3) 0.7765(2) 0.42974(15)
C1 C -0.3143(3) 0.8046(3) 0.37521(18)
H3 H -0.3259 0.7035 0.3596
N8 N -0.5792(3) 0.9985(3) 0.28107(17)
H4 H -0.586(4) 0.895(4) 0.281(2)
H5 H -0.683(4) 1.087(4) 0.294(2)
C2 C -0.4415(3) 0.9755(3) 0.34034(18)
C3 C -0.4222(3) 1.1220(3) 0.36437(19)
H6 H -0.5052 1.2404 0.3419
C4 C -0.2811(4) 1.0940(3) 0.4212(2)
H7 H -0.2673 1.1927 0.4387
C5 C -0.1608(3) 0.9205(3) 0.45203(19)
H8 H -0.0637 0.9021 0.4904
N9 N 0.1027(3) 0.2047(2) 0.04907(15)
C6 C 0.2397(3) 0.0840(3) -0.01992(19)
H9 H 0.3045 0.1267 -0.0861
N10 N 0.4403(3) -0.2222(3) -0.07090(17)
H10 H 0.402(4) -0.303(4) -0.086(2)
H11 H 0.482(4) -0.162(3) -0.137(2)
C7 C 0.2903(3) -0.0985(3) 0.00091(18)
C8 C 0.1929(3) -0.1606(3) 0.0974(2)
H12 H 0.2219 -0.2848 0.1139
C9 C 0.0534(3) -0.0375(3) 0.1686(2)
H13 H -0.0140 -0.0769 0.2350
C10 C 0.0123(3) 0.1419(3) 0.14296(19)
H14 H -0.0831 0.2246 0.1931
Mn2_2 Mn 0.0000 0.5000 1.0000
O1A O 0.3075(2) 0.4670(2) -0.06376(15)
H1A H 0.379(5) 0.385(4) -0.020(3)
H2A H 0.370(5) 0.453(4) -0.127(3)
N1A N -0.2606(3) 0.4384(3) 0.55035(18)
N2A N -0.3641(3) 0.4233(3) 0.63519(17)
N3A N -0.4712(3) 0.4085(3) 0.71763(19)
N4A N -0.0103(3) 0.4626(3) 0.83565(16)
N4A_2 N -0.0103(3) 0.4626(3) -0.16435(16)
N5A N -0.0418(3) 0.5384(2) 0.74981(15)
N6A N -0.0728(3) 0.6132(3) 0.66340(16)
N7A N 0.1762(3) 0.2235(2) 0.57026(15)
C1A C 0.3143(3) 0.1954(3) 0.62479(18)
H3A H 0.3259 0.2965 0.6404
N8A N 0.5792(3) 0.0015(3) 0.71893(17)
H4A H 0.586(4) 0.105(4) 0.719(2)
H5A H 0.683(4) -0.087(4) 0.706(2)
C2A C 0.4415(3) 0.0245(3) 0.65966(18)
C3A C 0.4222(3) -0.1220(3) 0.63563(19)
H6A H 0.5052 -0.2404 0.6581
C4A C 0.2811(4) -0.0940(3) 0.5788(2)
H7A H 0.2673 -0.1927 0.5613
C5A C 0.1608(3) 0.0795(3) 0.54797(19)
H8A H 0.0637 0.0979 0.5096
N9A N -0.1027(3) 0.7953(2) -0.04907(15)
C6A C -0.2397(3) 0.9160(3) 0.01992(19)
H9A H -0.3045 0.8733 0.0861
N10A N -0.4403(3) 1.2222(3) 0.07090(17)
H10A H -0.402(4) 1.303(4) 0.086(2)
H11A H -0.482(4) 1.162(3) 0.137(2)
C7A C -0.2903(3) 1.0985(3) -0.00091(18)
C8A C -0.1929(3) 1.1606(3) -0.0974(2)
H12A H -0.2219 1.2848 -0.1139
C9A C -0.0534(3) 1.0375(3) -0.1686(2)
H13A H 0.0140 1.0769 -0.2350
C10A C -0.0123(3) 0.8581(3) -0.14296(19)
H14A H 0.0831 0.7754 -0.1931
loop_
_geom_bond_atom_site_label_1
_geom_bond_atom_site_label_2
_geom_bond_site_symmetry_1
_geom_bond_site_symmetry_2
Mn1 N1 1_555 1_555
Mn2 O1 1_555 1_555
O1 H1 1_555 1_555
H2 O1 1_555 1_555
N1 N2 1_555 1_555
N2 N3 1_555 1_555
N4 Mn2 1_555 1_555
N5 N4 1_555 1_555
N6 Mn1 1_555 1_555
N7 Mn1 1_555 1_555
C1 N7 1_555 1_555
H3 C1 1_555 1_555
N8 H4 1_555 1_555
H5 N8 1_555 1_555
C2 C1 1_555 1_555
C3 C2 1_555 1_555
H6 C3 1_555 1_555
C4 C3 1_555 1_555
H7 C4 1_555 1_555
C5 N7 1_555 1_555
H8 C5 1_555 1_555
N9 Mn2 1_555 1_555
C6 N9 1_555 1_555
H9 C6 1_555 1_555
N10 H10 1_555 1_555
H11 N10 1_555 1_555
C7 C6 1_555 1_555
C8 C7 1_555 1_555
H12 C8 1_555 1_555
C9 C8 1_555 1_555
H13 C9 1_555 1_555
C10 N9 1_555 1_555
H14 C10 1_555 1_555
Mn2_2 N4A 1_555 1_555
O1A Mn2 1_555 1_555
H1A O1A 1_555 1_555
H2A O1A 1_555 1_555
N1A Mn1 1_555 1_555
N2A N1A 1_555 1_555
N3A N2A 1_555 1_555
N4A N5A 1_555 1_555
N4A_2 Mn2 1_555 1_555
N5A N6A 1_555 1_555
N6A Mn1 1_555 1_555
N7A Mn1 1_555 1_555
C1A N7A 1_555 1_555
H3A C1A 1_555 1_555
N8A H4A 1_555 1_555
H5A N8A 1_555 1_555
C2A C1A 1_555 1_555
C3A C2A 1_555 1_555
H6A C3A 1_555 1_555
C4A C3A 1_555 1_555
H7A C4A 1_555 1_555
C5A N7A 1_555 1_555
H8A C5A 1_555 1_555
N9A Mn2 1_555 1_555
C6A N9A 1_555 1_555
H9A C6A 1_555 1_555
N10A H10A 1_555 1_555
H11A N10A 1_555 1_555
C7A C6A 1_555 1_555
C8A C7A 1_555 1_555
H12A C8A 1_555 1_555
C9A C8A 1_555 1_555
H13A C9A 1_555 1_555
C10A N9A 1_555 1_555
H14A C10A 1_555 1_555
N5 N6 1_555 1_555
N8 C2 1_555 1_555
C4 C5 1_555 1_555
N10 C7 1_555 1_555
C9 C10 1_555 1_555
N8A C2A 1_555 1_555
C4A C5A 1_555 1_555
N10A C7A 1_555 1_555
C9A C10A 1_555 1_555

#END
