
#######################################################################
#
#                 Cambridge Crystallographic Data Centre
#                                CCDC 
#
#######################################################################
#
# If this CIF has been generated from an entry in the Cambridge 
# Structural Database, then it will include bibliographic, chemical, 
# crystal, experimental, refinement or atomic coordinate data resulting 
# from the CCDC's data processing and validation procedures.
#
#######################################################################

data_JEPXOS
_symmetry_cell_setting           monoclinic
_symmetry_space_group_name_H-M   'P 21/c'
_symmetry_Int_Tables_number      14
_space_group_name_Hall           '-P 2ybc'
loop_
_symmetry_equiv_pos_site_id
_symmetry_equiv_pos_as_xyz
1 x,y,z
2 -x,1/2+y,1/2-z
3 -x,-y,-z
4 x,1/2-y,1/2+z
_cell_length_a                   15.8524(3)
_cell_length_b                   10.4636(2)
_cell_length_c                   15.8729(3)
_cell_angle_alpha                90
_cell_angle_beta                 105.0208(9)
_cell_angle_gamma                90
_cell_volume                     2542.93
loop_
_atom_site_label
_atom_site_type_symbol
_atom_site_fract_x
_atom_site_fract_y
_atom_site_fract_z
C1 C 0.54328(14) 0.9753(2) 0.22166(14)
C2 C 0.44347(14) 0.9599(2) 0.20262(14)
C3 C 0.32641(13) 0.8446(2) 0.21436(14)
C4 C 0.30690(14) 1.0358(2) 0.14727(14)
C5 C 0.20942(14) 0.6960(2) 0.22784(14)
C6 C 0.18835(14) 0.5692(2) 0.20627(15)
H1 H 0.2314 0.5122 0.2001
C7 C 0.10283(15) 0.5278(3) 0.19400(15)
H2 H 0.0895 0.4423 0.1809
C8 C 0.03675(15) 0.6110(3) 0.20092(15)
C9 C 0.05942(15) 0.7362(3) 0.22457(16)
H3 H 0.0163 0.7930 0.2308
N1 N 0.25765(11) 1.13229(19) 0.10369(12)
H4 H 0.2868 1.1901 0.0849
C10 C 0.14499(14) 0.7791(3) 0.23916(15)
H5 H 0.1590 0.8630 0.2564
C11 C -0.05706(15) 0.5677(3) 0.18258(17)
H6 H -0.0628 0.4845 0.1563
H7 H -0.0938 0.6271 0.1436
H8 H -0.0743 0.5641 0.2362
C12 C 0.16675(14) 1.1549(2) 0.08358(14)
C13 C 0.10590(15) 1.0720(3) 0.10140(16)
H9 H 0.1235 0.9935 0.1275
C14 C 0.01793(15) 1.1066(3) 0.07998(16)
H10 H -0.0224 1.0505 0.0930
C15 C -0.01120(15) 1.2219(3) 0.03997(15)
C16 C 0.05060(15) 1.3023(3) 0.02132(16)
H11 H 0.0327 1.3796 -0.0065
C17 C 0.13813(15) 1.2711(3) 0.04282(15)
H12 H 0.1783 1.3278 0.0301
N2 N 0.29728(11) 0.73461(19) 0.23998(12)
H13 H 0.3365 0.6815 0.2669
C18 C -0.10684(16) 1.2563(3) 0.01649(18)
H14 H -0.1147 1.3399 -0.0093
H15 H -0.1276 1.2559 0.0682
H16 H -0.1391 1.1950 -0.0244
C19 C 0.34844(16) 0.8858(3) 0.55615(16)
H17 H 0.3930 0.8464 0.6014
H18 H 0.2922 0.8682 0.5657
H19 H 0.3578 0.9765 0.5570
C20 C 0.34270(17) 0.6573(3) 0.47483(17)
H20 H 0.3475 0.6078 0.4254
H21 H 0.2869 0.6420 0.4861
H22 H 0.3883 0.6331 0.5250
C21 C 0.60430(17) 0.8601(3) 0.62987(16)
H23 H 0.6567 0.9099 0.6484
H24 H 0.5888 0.8261 0.6800
H25 H 0.5578 0.9132 0.5974
C22 C 0.72193(16) 0.6763(3) 0.63329(17)
H26 H 0.7449 0.6085 0.6050
H27 H 0.7112 0.6449 0.6864
H28 H 0.7633 0.7451 0.6463
N3 N 0.41497(11) 0.85318(19) 0.23142(11)
N4 N 0.39462(11) 1.05522(18) 0.15997(11)
N5 N 0.27002(11) 0.93399(19) 0.17318(12)
Na1 Na 0.52501(5) 0.75491(9) 0.35534(5)
O1 O 0.58912(9) 0.89467(17) 0.27020(10)
O2 O 0.56884(9) 1.07005(16) 0.18576(10)
O3 O 0.44507(10) 0.83982(16) 0.44741(10)
O4 O 0.64641(10) 0.79375(17) 0.48569(10)
S1 S 0.35284(4) 0.82299(7) 0.45266(4)
S2 S 0.62209(4) 0.73254(6) 0.56284(4)
N4A N 0.60538(11) 0.55522(18) 0.34003(11)
Na1A Na 0.47499(5) 1.25491(9) 0.14466(5)
O2A O 0.43116(9) 0.57005(16) 0.31424(10)
loop_
_geom_bond_atom_site_label_1
_geom_bond_atom_site_label_2
_geom_bond_site_symmetry_1
_geom_bond_site_symmetry_2
C1 C2 1_555 1_555
C2 N3 1_555 1_555
C3 N2 1_555 1_555
C4 N1 1_555 1_555
C5 C6 1_555 1_555
C6 H1 1_555 1_555
C7 C6 1_555 1_555
H2 C7 1_555 1_555
C8 C7 1_555 1_555
C9 C8 1_555 1_555
H3 C9 1_555 1_555
N1 H4 1_555 1_555
C10 C5 1_555 1_555
H5 C10 1_555 1_555
C11 C8 1_555 1_555
H6 C11 1_555 1_555
H7 C11 1_555 1_555
H8 C11 1_555 1_555
C12 N1 1_555 1_555
C13 C12 1_555 1_555
H9 C13 1_555 1_555
C14 C13 1_555 1_555
H10 C14 1_555 1_555
C15 C14 1_555 1_555
C16 C15 1_555 1_555
H11 C16 1_555 1_555
C17 C12 1_555 1_555
H12 C17 1_555 1_555
N2 C5 1_555 1_555
H13 N2 1_555 1_555
C18 C15 1_555 1_555
H14 C18 1_555 1_555
H15 C18 1_555 1_555
H16 C18 1_555 1_555
C19 H17 1_555 1_555
H18 C19 1_555 1_555
H19 C19 1_555 1_555
C20 H20 1_555 1_555
H21 C20 1_555 1_555
H22 C20 1_555 1_555
C21 H23 1_555 1_555
H24 C21 1_555 1_555
H25 C21 1_555 1_555
C22 H26 1_555 1_555
H27 C22 1_555 1_555
H28 C22 1_555 1_555
N3 C3 1_555 1_555
N4 C2 1_555 1_555
N5 C3 1_555 1_555
Na1 N3 1_555 1_555
O1 C1 1_555 1_555
O2 C1 1_555 1_555
O3 Na1 1_555 1_555
O4 Na1 1_555 1_555
S1 C19 1_555 1_555
S2 C21 1_555 1_555
N4A Na1 1_555 1_555
Na1A N4 1_555 1_555
O2A Na1 1_555 1_555
C4 N4 1_555 1_555
C4 N5 1_555 1_555
C9 C10 1_555 1_555
C16 C17 1_555 1_555
C20 S1 1_555 1_555
C22 S2 1_555 1_555
Na1 O1 1_555 1_555
O2 Na1A 1_555 1_555
O3 S1 1_555 1_555
O4 S2 1_555 1_555

#END
