
#######################################################################
#
#                 Cambridge Crystallographic Data Centre
#                                CCDC 
#
#######################################################################
#
# If this CIF has been generated from an entry in the Cambridge 
# Structural Database, then it will include bibliographic, chemical, 
# crystal, experimental, refinement or atomic coordinate data resulting 
# from the CCDC's data processing and validation procedures.
#
#######################################################################

data_JEQHUJ
_symmetry_cell_setting           monoclinic
_symmetry_space_group_name_H-M   'P 21/c'
_symmetry_Int_Tables_number      14
_space_group_name_Hall           '-P 2ybc'
loop_
_symmetry_equiv_pos_site_id
_symmetry_equiv_pos_as_xyz
1 x,y,z
2 -x,1/2+y,1/2-z
3 -x,-y,-z
4 x,1/2-y,1/2+z
_cell_length_a                   12.0273(15)
_cell_length_b                   20.111(2)
_cell_length_c                   17.171(2)
_cell_angle_alpha                90
_cell_angle_beta                 102.398(2)
_cell_angle_gamma                90
_cell_volume                     4056.48
loop_
_atom_site_label
_atom_site_type_symbol
_atom_site_fract_x
_atom_site_fract_y
_atom_site_fract_z
Cd1 Cd 0.25272(5) 0.12203(2) 0.23912(3)
Cd2 Cd -0.24599(5) 0.12149(2) 0.24009(3)
S1 S 0.00100(12) 0.21923(6) 0.24163(7)
S2 S -0.49444(12) 0.02410(6) 0.24252(7)
O1 O 0.1231(3) 0.20236(17) 0.24859(19)
O2 O -0.0603(3) 0.15699(17) 0.25442(18)
O3 O -0.0453(3) 0.24554(18) 0.16157(19)
O4 O -0.0085(3) 0.26762(17) 0.3027(2)
O5 O -0.6179(3) 0.04189(17) 0.22967(19)
O6 O -0.4810(3) -0.02550(17) 0.18274(19)
O7 O -0.4558(3) -0.00152(17) 0.32375(19)
O8 O -0.4313(3) 0.08564(17) 0.23150(18)
N1 N 0.2581(4) 0.0915(2) 0.3733(3)
N2 N 0.1242(4) 0.0372(2) 0.1925(2)
N3 N 0.2456(4) 0.1582(2) 0.1069(2)
N4 N 0.3830(4) 0.2061(2) 0.2878(2)
N5 N -0.1621(4) 0.0176(2) 0.2853(2)
N6 N -0.2260(4) 0.1451(2) 0.3757(2)
N7 N -0.3300(4) 0.2258(2) 0.1965(2)
N8 N -0.2659(4) 0.0964(2) 0.1049(2)
C1 C 0.3437(5) 0.0548(3) 0.4167(3)
H1 H 0.3985 0.0356 0.3910
C2 C 0.3534(5) 0.0443(3) 0.4974(3)
H2 H 0.4142 0.0183 0.5265
C3 C 0.2752(5) 0.0717(3) 0.5353(3)
H3 H 0.2816 0.0652 0.5909
C4 C 0.1868(5) 0.1087(3) 0.4917(3)
H4 H 0.1301 0.1271 0.5163
C5 C 0.1827(5) 0.1185(3) 0.4113(3)
H5 H 0.1238 0.1455 0.3817
C6 C 0.1442(5) -0.0230(3) 0.2257(3)
H6 H 0.2053 -0.0276 0.2707
C7 C 0.0812(5) -0.0786(3) 0.1983(3)
H7 H 0.0975 -0.1204 0.2242
C8 C -0.0063(5) -0.0720(3) 0.1321(3)
H8 H -0.0510 -0.1095 0.1113
C9 C -0.0283(5) -0.0113(3) 0.0968(3)
H9 H -0.0885 -0.0057 0.0514
C10 C 0.0394(5) 0.0419(3) 0.1287(3)
H10 H 0.0244 0.0841 0.1037
C11 C 0.1642(5) 0.1991(3) 0.0666(3)
H11 H 0.1091 0.2165 0.0934
C12 C 0.1580(5) 0.2168(3) -0.0122(3)
H12 H 0.0994 0.2454 -0.0392
C13 C 0.2385(5) 0.1919(3) -0.0508(3)
H13 H 0.2364 0.2032 -0.1048
C14 C 0.3216(5) 0.1505(3) -0.0098(3)
H14 H 0.3776 0.1326 -0.0354
C15 C 0.3234(5) 0.1350(3) 0.0686(3)
H15 H 0.3821 0.1069 0.0966
C16 C 0.3596(5) 0.2676(3) 0.2594(3)
H16 H 0.2989 0.2733 0.2144
C17 C 0.4193(5) 0.3236(3) 0.2922(3)
H17 H 0.4004 0.3665 0.2702
C18 C 0.5073(5) 0.3147(3) 0.3582(4)
H18 H 0.5501 0.3517 0.3826
C19 C 0.5322(5) 0.2520(3) 0.3881(3)
H19 H 0.5917 0.2449 0.4336
C20 C 0.4689(5) 0.1992(3) 0.3507(3)
H20 H 0.4877 0.1557 0.3710
C21 C -0.0689(5) 0.0182(3) 0.3450(3)
H21 H -0.0408 0.0599 0.3668
C22 C -0.0124(5) -0.0385(3) 0.3761(3)
H22 H 0.0526 -0.0356 0.4186
C23 C -0.0510(5) -0.0994(3) 0.3452(3)
H23 H -0.0137 -0.1393 0.3660
C24 C -0.1457(5) -0.1010(3) 0.2830(3)
H24 H -0.1737 -0.1421 0.2592
C25 C -0.1985(5) -0.0425(3) 0.2562(3)
H25 H -0.2648 -0.0444 0.2146
C26 C -0.1533(5) 0.1920(3) 0.4140(3)
H26 H -0.1084 0.2164 0.3846
C27 C -0.1424(5) 0.2053(3) 0.4932(3)
H27 H -0.0902 0.2383 0.5182
C28 C -0.2071(5) 0.1709(3) 0.5372(3)
H28 H -0.2020 0.1804 0.5920
C29 C -0.2790(5) 0.1224(3) 0.4990(3)
H29 H -0.3231 0.0967 0.5277
C30 C -0.2867(5) 0.1111(3) 0.4189(3)
H30 H -0.3375 0.0777 0.3933
C31 C -0.4210(5) 0.2267(3) 0.1362(3)
H31 H -0.4461 0.1858 0.1110
C32 C -0.4812(5) 0.2838(3) 0.1082(3)
H32 H -0.5444 0.2820 0.0642
C33 C -0.4466(5) 0.3435(3) 0.1461(3)
H33 H -0.4865 0.3835 0.1291
C34 C -0.3531(5) 0.3437(3) 0.2089(3)
H34 H -0.3281 0.3839 0.2363
C35 C -0.2963(5) 0.2845(3) 0.2313(3)
H35 H -0.2303 0.2854 0.2732
C36 C -0.3384(5) 0.0491(3) 0.0686(3)
H36 H -0.3831 0.0259 0.0991
C37 C -0.3504(5) 0.0329(3) -0.0101(3)
H37 H -0.4034 -0.0001 -0.0339
C38 C -0.2832(5) 0.0658(3) -0.0549(3)
H38 H -0.2877 0.0544 -0.1092
C39 C -0.2099(5) 0.1154(3) -0.0189(3)
H39 H -0.1639 0.1389 -0.0481
C40 C -0.2051(5) 0.1298(3) 0.0602(3)
H40 H -0.1569 0.1649 0.0843
Cd1_2 Cd -0.74728(5) 0.12203(2) 0.23912(3)
O5_2 O 0.3821(3) 0.04189(17) 0.22967(19)
loop_
_geom_bond_atom_site_label_1
_geom_bond_atom_site_label_2
_geom_bond_site_symmetry_1
_geom_bond_site_symmetry_2
Cd1 O1 1_555 1_555
Cd2 O2 1_555 1_555
S1 O1 1_555 1_555
S2 O5 1_555 1_555
O2 S1 1_555 1_555
O3 S1 1_555 1_555
O4 S1 1_555 1_555
O5 Cd1_2 1_555 1_555
O6 S2 1_555 1_555
O7 S2 1_555 1_555
O8 Cd2 1_555 1_555
N1 Cd1 1_555 1_555
N2 Cd1 1_555 1_555
N3 Cd1 1_555 1_555
N4 Cd1 1_555 1_555
N5 Cd2 1_555 1_555
N6 Cd2 1_555 1_555
N7 Cd2 1_555 1_555
N8 Cd2 1_555 1_555
C1 N1 1_555 1_555
H1 C1 1_555 1_555
C2 C1 1_555 1_555
H2 C2 1_555 1_555
C3 C2 1_555 1_555
H3 C3 1_555 1_555
C4 C3 1_555 1_555
H4 C4 1_555 1_555
C5 N1 1_555 1_555
H5 C5 1_555 1_555
C6 N2 1_555 1_555
H6 C6 1_555 1_555
C7 C6 1_555 1_555
H7 C7 1_555 1_555
C8 C7 1_555 1_555
H8 C8 1_555 1_555
C9 C8 1_555 1_555
H9 C9 1_555 1_555
C10 N2 1_555 1_555
H10 C10 1_555 1_555
C11 N3 1_555 1_555
H11 C11 1_555 1_555
C12 C11 1_555 1_555
H12 C12 1_555 1_555
C13 C12 1_555 1_555
H13 C13 1_555 1_555
C14 C13 1_555 1_555
H14 C14 1_555 1_555
C15 N3 1_555 1_555
H15 C15 1_555 1_555
C16 N4 1_555 1_555
H16 C16 1_555 1_555
C17 C16 1_555 1_555
H17 C17 1_555 1_555
C18 C17 1_555 1_555
H18 C18 1_555 1_555
C19 C18 1_555 1_555
H19 C19 1_555 1_555
C20 N4 1_555 1_555
H20 C20 1_555 1_555
C21 N5 1_555 1_555
H21 C21 1_555 1_555
C22 C21 1_555 1_555
H22 C22 1_555 1_555
C23 C22 1_555 1_555
H23 C23 1_555 1_555
C24 C23 1_555 1_555
H24 C24 1_555 1_555
C25 N5 1_555 1_555
H25 C25 1_555 1_555
C26 N6 1_555 1_555
H26 C26 1_555 1_555
C27 C26 1_555 1_555
H27 C27 1_555 1_555
C28 C27 1_555 1_555
H28 C28 1_555 1_555
C29 C28 1_555 1_555
H29 C29 1_555 1_555
C30 N6 1_555 1_555
H30 C30 1_555 1_555
C31 N7 1_555 1_555
H31 C31 1_555 1_555
C32 C31 1_555 1_555
H32 C32 1_555 1_555
C33 C32 1_555 1_555
H33 C33 1_555 1_555
C34 C33 1_555 1_555
H34 C34 1_555 1_555
C35 N7 1_555 1_555
H35 C35 1_555 1_555
C36 N8 1_555 1_555
H36 C36 1_555 1_555
C37 C36 1_555 1_555
H37 C37 1_555 1_555
C38 C37 1_555 1_555
H38 C38 1_555 1_555
C39 C38 1_555 1_555
H39 C39 1_555 1_555
C40 N8 1_555 1_555
H40 C40 1_555 1_555
O5_2 Cd1 1_555 1_555
S2 O8 1_555 1_555
C4 C5 1_555 1_555
C9 C10 1_555 1_555
C14 C15 1_555 1_555
C19 C20 1_555 1_555
C24 C25 1_555 1_555
C29 C30 1_555 1_555
C34 C35 1_555 1_555
C39 C40 1_555 1_555

#END
