
#######################################################################
#
#                 Cambridge Crystallographic Data Centre
#                                CCDC 
#
#######################################################################
#
# If this CIF has been generated from an entry in the Cambridge 
# Structural Database, then it will include bibliographic, chemical, 
# crystal, experimental, refinement or atomic coordinate data resulting 
# from the CCDC's data processing and validation procedures.
#
#######################################################################

data_JEQJAR
_symmetry_cell_setting           monoclinic
_symmetry_space_group_name_H-M   'P 21/n'
_symmetry_Int_Tables_number      14
_space_group_name_Hall           '-P 2yn'
loop_
_symmetry_equiv_pos_site_id
_symmetry_equiv_pos_as_xyz
1 x,y,z
2 1/2-x,1/2+y,1/2-z
3 -x,-y,-z
4 1/2+x,1/2-y,1/2+z
_cell_length_a                   12.8209(9)
_cell_length_b                   9.4590(7)
_cell_length_c                   16.8494(12)
_cell_angle_alpha                90
_cell_angle_beta                 108.9770(10)
_cell_angle_gamma                90
_cell_volume                     1932.32
loop_
_atom_site_label
_atom_site_type_symbol
_atom_site_fract_x
_atom_site_fract_y
_atom_site_fract_z
Cd1 Cd 0.5000 0.5000 0.0000
Cd2 Cd 1.0000 0.5000 0.0000
S1 S 0.75830(4) 0.36052(5) 0.02893(3)
O1 O 0.67933(10) 0.43310(14) 0.06406(8)
O2 O 0.85349(11) 0.45580(16) 0.04359(9)
O3 O 0.70579(11) 0.33620(14) -0.06104(8)
O4 O 0.79377(12) 0.22723(14) 0.07341(8)
O5 O 0.49589(13) 0.55248(16) 0.13420(9)
N1 N 0.44517(13) 0.27451(17) 0.02005(10)
N2 N 1.11231(13) 0.38889(16) 0.11996(10)
N3 N 1.00257(12) 0.71574(16) 0.07563(10)
C1 C 0.35086(16) 0.2176(2) -0.03031(12)
H1 H 0.3059 0.2721 -0.0760
C2 C 0.31651(17) 0.0834(2) -0.01852(13)
H2 H 0.2496 0.0462 -0.0557
C3 C 0.38117(19) 0.0035(2) 0.04848(14)
H3 H 0.3593 -0.0891 0.0581
C4 C 0.47813(17) 0.0614(2) 0.10095(13)
H4 H 0.5237 0.0094 0.1476
C5 C 0.50784(16) 0.1962(2) 0.08455(12)
H5 H 0.5751 0.2349 0.1203
C6 C 1.07986(16) 0.3700(2) 0.18748(12)
H6 H 1.0118 0.4099 0.1873
C7 C 1.14176(18) 0.2948(2) 0.25698(13)
H7 H 1.1174 0.2854 0.3043
C8 C 1.23934(17) 0.2335(2) 0.25706(13)
H8 H 1.2821 0.1789 0.3036
C9 C 1.27359(17) 0.2530(2) 0.18818(13)
H9 H 1.3409 0.2129 0.1867
C10 C 1.20845(16) 0.3319(2) 0.12135(13)
H10 H 1.2329 0.3462 0.0745
C11 C 0.95225(16) 0.7245(2) 0.13449(12)
H11 H 0.9139 0.6442 0.1446
C12 C 0.95449(17) 0.8462(2) 0.18053(13)
H12 H 0.9186 0.8488 0.2217
C13 C 1.00943(18) 0.9635(2) 0.16595(13)
H13 H 1.0116 1.0485 0.1966
C14 C 1.06105(17) 0.9550(2) 0.10602(13)
H14 H 1.1000 1.0339 0.0950
C15 C 1.05540(16) 0.8301(2) 0.06214(12)
H15 H 1.0907 0.8255 0.0206
H16 H 0.540(2) 0.606(3) 0.1677(17)
H21 H 0.433(2) 0.592(3) 0.1205(16)
Cd2_2 Cd 0.0000 0.5000 0.0000
S1B S 0.24170(4) 0.63948(5) -0.02893(3)
O1B O 0.32067(10) 0.56690(14) -0.06406(8)
O2B O 0.14651(11) 0.54420(16) -0.04359(9)
O2B_2 O 1.14651(11) 0.54420(16) -0.04359(9)
O3B O 0.29421(11) 0.66380(14) 0.06104(8)
O4B O 0.20623(12) 0.77277(14) -0.07341(8)
O5B O 0.50411(13) 0.44752(16) -0.13420(9)
N1B N 0.55483(13) 0.72549(17) -0.02005(10)
N2B N 0.88769(13) 0.61111(16) -0.11996(10)
N3B N 0.99743(12) 0.28426(16) -0.07563(10)
C1B C 0.64914(16) 0.7824(2) 0.03031(12)
H1B H 0.6941 0.7279 0.0760
C2B C 0.68349(17) 0.9166(2) 0.01852(13)
H2B H 0.7504 0.9538 0.0557
C3B C 0.61883(19) 0.9965(2) -0.04848(14)
H3B H 0.6407 1.0891 -0.0581
C4B C 0.52187(17) 0.9386(2) -0.10095(13)
H4B H 0.4763 0.9906 -0.1476
C5B C 0.49216(16) 0.8038(2) -0.08455(12)
H5B H 0.4249 0.7651 -0.1203
C6B C 0.92014(16) 0.6300(2) -0.18748(12)
H6B H 0.9882 0.5901 -0.1873
C7B C 0.85824(18) 0.7052(2) -0.25698(13)
H7B H 0.8826 0.7146 -0.3043
C8B C 0.76066(17) 0.7665(2) -0.25706(13)
H8B H 0.7179 0.8211 -0.3036
C9B C 0.72641(17) 0.7470(2) -0.18818(13)
H9B H 0.6591 0.7871 -0.1867
C10B C 0.79155(16) 0.6681(2) -0.12135(13)
H10B H 0.7671 0.6538 -0.0745
C11B C 1.04775(16) 0.2755(2) -0.13449(12)
H11B H 1.0861 0.3558 -0.1446
C12B C 1.04551(17) 0.1538(2) -0.18053(13)
H12B H 1.0814 0.1512 -0.2217
C13B C 0.99057(18) 0.0365(2) -0.16595(13)
H13B H 0.9884 -0.0485 -0.1966
C14B C 0.93895(17) 0.0450(2) -0.10602(13)
H14B H 0.9000 -0.0339 -0.0950
C15B C 0.94460(16) 0.1699(2) -0.06214(12)
H15B H 0.9093 0.1745 -0.0206
H16B H 0.460(2) 0.394(3) -0.1677(17)
H21B H 0.567(2) 0.408(3) -0.1205(16)
O6 O 0.70855(15) 0.00067(17) 0.26927(11)
H18 H 0.743(2) 0.064(3) 0.2550(19)
H19 H 0.748(3) -0.017(3) 0.321(2)
O7 O 0.84866(13) 0.21573(18) 0.24412(10)
H17 H 0.835(2) 0.304(3) 0.2545(17)
H20 H 0.844(2) 0.217(3) 0.195(2)
loop_
_geom_bond_atom_site_label_1
_geom_bond_atom_site_label_2
_geom_bond_site_symmetry_1
_geom_bond_site_symmetry_2
Cd1 O1 1_555 1_555
Cd2 O2 1_555 1_555
S1 O1 1_555 1_555
O2 S1 1_555 1_555
O3 S1 1_555 1_555
O4 S1 1_555 1_555
O5 Cd1 1_555 1_555
N1 Cd1 1_555 1_555
N2 Cd2 1_555 1_555
N3 Cd2 1_555 1_555
C1 N1 1_555 1_555
H1 C1 1_555 1_555
C2 C1 1_555 1_555
H2 C2 1_555 1_555
C3 C2 1_555 1_555
H3 C3 1_555 1_555
C4 C3 1_555 1_555
H4 C4 1_555 1_555
C5 N1 1_555 1_555
H5 C5 1_555 1_555
C6 N2 1_555 1_555
H6 C6 1_555 1_555
C7 C6 1_555 1_555
H7 C7 1_555 1_555
C8 C7 1_555 1_555
H8 C8 1_555 1_555
C9 C8 1_555 1_555
H9 C9 1_555 1_555
C10 N2 1_555 1_555
H10 C10 1_555 1_555
C11 N3 1_555 1_555
H11 C11 1_555 1_555
C12 C11 1_555 1_555
H12 C12 1_555 1_555
C13 C12 1_555 1_555
H13 C13 1_555 1_555
C14 C13 1_555 1_555
H14 C14 1_555 1_555
C15 N3 1_555 1_555
H15 C15 1_555 1_555
O6 H18 1_555 1_555
O7 H17 1_555 1_555
H16 O5 1_555 1_555
H19 O6 1_555 1_555
H20 O7 1_555 1_555
H21 O5 1_555 1_555
Cd2_2 O2B 1_555 1_555
S1B O1B 1_555 1_555
O1B Cd1 1_555 1_555
O2B S1B 1_555 1_555
O2B_2 Cd2 1_555 1_555
O3B S1B 1_555 1_555
O4B S1B 1_555 1_555
O5B Cd1 1_555 1_555
N1B Cd1 1_555 1_555
N2B Cd2 1_555 1_555
N3B Cd2 1_555 1_555
C1B N1B 1_555 1_555
H1B C1B 1_555 1_555
C2B C1B 1_555 1_555
H2B C2B 1_555 1_555
C3B C2B 1_555 1_555
H3B C3B 1_555 1_555
C4B C3B 1_555 1_555
H4B C4B 1_555 1_555
C5B N1B 1_555 1_555
H5B C5B 1_555 1_555
C6B N2B 1_555 1_555
H6B C6B 1_555 1_555
C7B C6B 1_555 1_555
H7B C7B 1_555 1_555
C8B C7B 1_555 1_555
H8B C8B 1_555 1_555
C9B C8B 1_555 1_555
H9B C9B 1_555 1_555
C10B N2B 1_555 1_555
H10B C10B 1_555 1_555
C11B N3B 1_555 1_555
H11B C11B 1_555 1_555
C12B C11B 1_555 1_555
H12B C12B 1_555 1_555
C13B C12B 1_555 1_555
H13B C13B 1_555 1_555
C14B C13B 1_555 1_555
H14B C14B 1_555 1_555
C15B N3B 1_555 1_555
H15B C15B 1_555 1_555
H16B O5B 1_555 1_555
H21B O5B 1_555 1_555
C4 C5 1_555 1_555
C9 C10 1_555 1_555
C14 C15 1_555 1_555
C4B C5B 1_555 1_555
C9B C10B 1_555 1_555
C14B C15B 1_555 1_555

#END
