
#######################################################################
#
#                 Cambridge Crystallographic Data Centre
#                                CCDC 
#
#######################################################################
#
# If this CIF has been generated from an entry in the Cambridge 
# Structural Database, then it will include bibliographic, chemical, 
# crystal, experimental, refinement or atomic coordinate data resulting 
# from the CCDC's data processing and validation procedures.
#
#######################################################################

data_JERYUA
_symmetry_cell_setting           hexagonal
_symmetry_space_group_name_H-M   'P 63'
_symmetry_Int_Tables_number      173
_space_group_name_Hall           'P 6c'
loop_
_symmetry_equiv_pos_site_id
_symmetry_equiv_pos_as_xyz
1 x,y,z
2 x-y,x,1/2+z
3 -y,x-y,z
4 -x,-y,1/2+z
5 -x+y,-x,z
6 y,-x+y,1/2+z
_cell_length_a                   13.698(3)
_cell_length_b                   13.698(3)
_cell_length_c                   10.010(3)
_cell_angle_alpha                90
_cell_angle_beta                 90
_cell_angle_gamma                120
_cell_volume                     1626.59
loop_
_atom_site_label
_atom_site_type_symbol
_atom_site_fract_x
_atom_site_fract_y
_atom_site_fract_z
Sn1 Sn 0.43803(4) 0.47550(5) 0.50000
S1 S 0.1055(3) 0.2260(3) 0.2112(4)
O1 O 0.3099(7) 0.3739(7) 0.3573(8)
O2 O 0.5706(6) 0.5787(7) 0.6851(8)
C1 C 0.3336(9) 0.3723(9) 0.2317(11)
C2 C 0.2349(8) 0.3045(9) 0.1439(12)
C3 C 0.0443(11) 0.1821(11) 0.0607(18)
C4 C 0.1181(12) 0.2230(13) -0.0377(14)
C5 C 0.2321(7) 0.2907(6) 0.0006(21)
C6 C 0.3153(10) 0.4360(13) 0.6525(12)
C7 C 0.5263(9) 0.3853(9) 0.4915(24)
C8 C 0.4879(10) 0.6319(10) 0.4014(14)
H1 H -0.0361(11) 0.1332(11) 0.0475(18)
H2 H 0.0957(12) 0.2075(13) -0.1307(14)
H3 H 0.2966(7) 0.3225(6) -0.0589(21)
H4 H 0.3521(10) 0.4733(13) 0.7350(12)
H5 H 0.2747(10) 0.3550(13) 0.6660(12)
H6 H 0.2629(10) 0.4605(13) 0.6255(12)
H7 H 0.5902(9) 0.4201(9) 0.5518(24)
H8 H 0.5528(9) 0.3863(9) 0.4013(24)
H9 H 0.4762(9) 0.3049(9) 0.5188(24)
H10 H 0.5484(10) 0.6933(10) 0.4508(14)
H11 H 0.4238(10) 0.6436(10) 0.3967(14)
H12 H 0.5135(10) 0.6295(10) 0.3118(14)
C1C C 0.6664(9) 0.6277(9) 0.7317(11)
O2C O 0.4294(6) 0.4213(7) 0.1851(8)
O1C O 0.6901(7) 0.6261(7) 0.8573(8)
C2C C 0.7651(8) 0.6955(9) 0.6439(12)
Sn1C Sn 0.56197(4) 0.52450(5) 0.00000
Sn1C_2 Sn 0.56197(4) 0.52450(5) 1.00000
S1C S 0.8945(3) 0.7740(3) 0.7112(4)
C5C C 0.7679(7) 0.7093(6) 0.5006(21)
O1C_2 O 0.6901(7) 0.6261(7) -0.1427(8)
C6C C 0.6847(10) 0.5640(13) 0.1525(12)
C7C C 0.4737(9) 0.6147(9) -0.0085(24)
C8C C 0.5121(10) 0.3681(10) -0.0986(14)
C3C C 0.9557(11) 0.8179(11) 0.5607(18)
C4C C 0.8819(12) 0.7770(13) 0.4623(14)
H3C H 0.7034(7) 0.6775(6) 0.4411(21)
H4C H 0.6479(10) 0.5267(13) 0.2350(12)
H5C H 0.7253(10) 0.6450(13) 0.1660(12)
H6C H 0.7371(10) 0.5395(13) 0.1255(12)
H7C H 0.4098(9) 0.5799(9) 0.0518(24)
H8C H 0.4472(9) 0.6137(9) -0.0987(24)
H9C H 0.5238(9) 0.6951(9) 0.0188(24)
H10C H 0.4516(10) 0.3067(10) -0.0492(14)
H11C H 0.5762(10) 0.3564(10) -0.1033(14)
H12C H 0.4865(10) 0.3705(10) -0.1882(14)
H1C H 1.0361(11) 0.8668(11) 0.5475(18)
H2C H 0.9043(12) 0.7925(13) 0.3693(14)
loop_
_geom_bond_atom_site_label_1
_geom_bond_atom_site_label_2
_geom_bond_site_symmetry_1
_geom_bond_site_symmetry_2
Sn1 O1 1_555 1_555
S1 C2 1_555 1_555
O1 C1 1_555 1_555
O2 Sn1 1_555 1_555
C1 C2 1_555 1_555
C2 C5 1_555 1_555
C3 S1 1_555 1_555
C4 C3 1_555 1_555
C5 C4 1_555 1_555
C6 Sn1 1_555 1_555
C7 Sn1 1_555 1_555
C8 Sn1 1_555 1_555
H1 C3 1_555 1_555
H2 C4 1_555 1_555
H3 C5 1_555 1_555
H4 C6 1_555 1_555
H5 C6 1_555 1_555
H6 C6 1_555 1_555
H7 C7 1_555 1_555
H8 C7 1_555 1_555
H9 C7 1_555 1_555
H10 C8 1_555 1_555
H11 C8 1_555 1_555
H12 C8 1_555 1_555
C1C O2 1_555 1_555
O2C C1 1_555 1_555
O1C C1C 1_555 1_555
C2C C1C 1_555 1_555
Sn1C O2C 1_555 1_555
Sn1C_2 O1C 1_555 1_555
S1C C2C 1_555 1_555
C5C C2C 1_555 1_555
O1C_2 Sn1C 1_555 1_555
C6C Sn1C 1_555 1_555
C7C Sn1C 1_555 1_555
C8C Sn1C 1_555 1_555
C3C S1C 1_555 1_555
C4C C5C 1_555 1_555
H3C C5C 1_555 1_555
H4C C6C 1_555 1_555
H5C C6C 1_555 1_555
H6C C6C 1_555 1_555
H7C C7C 1_555 1_555
H8C C7C 1_555 1_555
H9C C7C 1_555 1_555
H10C C8C 1_555 1_555
H11C C8C 1_555 1_555
H12C C8C 1_555 1_555
H1C C3C 1_555 1_555
H2C C4C 1_555 1_555
C3C C4C 1_555 1_555

#END
