
#######################################################################
#
#                 Cambridge Crystallographic Data Centre
#                                CCDC 
#
#######################################################################
#
# If this CIF has been generated from an entry in the Cambridge 
# Structural Database, then it will include bibliographic, chemical, 
# crystal, experimental, refinement or atomic coordinate data resulting 
# from the CCDC's data processing and validation procedures.
#
#######################################################################

data_JESXEL01
_symmetry_cell_setting           monoclinic
_symmetry_space_group_name_H-M   'C 2/c'
_symmetry_Int_Tables_number      15
_space_group_name_Hall           '-C 2yn'
loop_
_symmetry_equiv_pos_site_id
_symmetry_equiv_pos_as_xyz
1 x,y,z
2 1/2+x,1/2+y,z
3 -x,y,1/2-z
4 1/2-x,1/2+y,1/2-z
5 -x,-y,-z
6 1/2-x,1/2-y,-z
7 x,-y,1/2+z
8 1/2+x,1/2-y,1/2+z
_cell_length_a                   19.1059(15)
_cell_length_b                   7.1485(3)
_cell_length_c                   12.5575(10)
_cell_angle_alpha                90
_cell_angle_beta                 118.471(8)
_cell_angle_gamma                90
_cell_volume                     1507.66
loop_
_atom_site_label
_atom_site_type_symbol
_atom_site_fract_x
_atom_site_fract_y
_atom_site_fract_z
Cu1 Cu 0.334556(14) 0.34159(4) 0.07962(2)
Cl1 Cl 0.30286(3) 0.02245(7) 0.04269(4)
N1 N 0.36081(9) 0.4394(2) 0.24329(13)
C1 C 0.40000(10) 0.3474(3) 0.34906(16)
C2 C 0.40399(10) 0.4218(3) 0.45635(15)
N2 N 0.36809(9) 0.5832(2) 0.45464(13)
C3 C 0.33129(11) 0.6769(3) 0.34841(17)
H1 H 0.3070 0.7941 0.3456
C4 C 0.32816(11) 0.6065(3) 0.24441(16)
H2 H 0.3024 0.6770 0.1716
C5 C 0.43854(14) 0.1654(3) 0.35048(19)
H3 H 0.4225 0.1267 0.2671
H4 H 0.4219 0.0704 0.3900
H5 H 0.4965 0.1797 0.3952
C6 C 0.44785(12) 0.3211(3) 0.57509(17)
H6 H 0.4549 0.4052 0.6411
H7 H 0.5001 0.2813 0.5866
H8 H 0.4172 0.2112 0.5750
Cu1E Cu 0.165444(14) 0.15841(4) -0.07962(2)
Cu1F Cu 0.334556(14) 0.65841(4) 0.57962(2)
Cl1E Cl 0.19714(3) 0.47755(7) -0.04269(4)
N2F N 0.36809(9) 0.4168(2) -0.04536(13)
loop_
_geom_bond_atom_site_label_1
_geom_bond_atom_site_label_2
_geom_bond_site_symmetry_1
_geom_bond_site_symmetry_2
Cu1 Cl1 1_555 1_555
Cl1 Cu1E 1_555 1_555
N1 Cu1 1_555 1_555
C1 N1 1_555 1_555
C2 C1 1_555 1_555
N2 C2 1_555 1_555
C3 N2 1_555 1_555
H1 C3 1_555 1_555
C4 N1 1_555 1_555
H2 C4 1_555 1_555
C5 C1 1_555 1_555
H3 C5 1_555 1_555
H4 C5 1_555 1_555
H5 C5 1_555 1_555
C6 C2 1_555 1_555
H6 C6 1_555 1_555
H7 C6 1_555 1_555
H8 C6 1_555 1_555
Cu1E Cl1E 1_555 1_555
Cu1F N2 1_555 1_555
Cl1E Cu1 1_555 1_555
N2F Cu1 1_555 1_555
C3 C4 1_555 1_555

#END
