
#######################################################################
#
#                 Cambridge Crystallographic Data Centre
#                                CCDC 
#
#######################################################################
#
# If this CIF has been generated from an entry in the Cambridge 
# Structural Database, then it will include bibliographic, chemical, 
# crystal, experimental, refinement or atomic coordinate data resulting 
# from the CCDC's data processing and validation procedures.
#
#######################################################################

data_JESYOW
_symmetry_cell_setting           hexagonal
_symmetry_space_group_name_H-M   'P 61'
_symmetry_Int_Tables_number      169
_space_group_name_Hall           'P 61'
loop_
_symmetry_equiv_pos_site_id
_symmetry_equiv_pos_as_xyz
1 x,y,z
2 -x,-y,1/2+z
3 -y,x-y,1/3+z
4 y,-x+y,5/6+z
5 -x+y,-x,2/3+z
6 x-y,x,1/6+z
_cell_length_a                   13.4646(12)
_cell_length_b                   13.4646(12)
_cell_length_c                   9.8777(7)
_cell_angle_alpha                90
_cell_angle_beta                 90
_cell_angle_gamma                120
_cell_volume                     1550.86
loop_
_atom_site_label
_atom_site_type_symbol
_atom_site_fract_x
_atom_site_fract_y
_atom_site_fract_z
Co1 Co 0.59523(5) 0.67470(5) 0.72113(7)
O1 O 0.6577(3) 0.6615(3) 0.5343(4)
H1 H 0.704(4) 0.712(3) 0.483(5)
H2 H 0.663(5) 0.604(3) 0.514(5)
O2 O 0.5519(3) 0.6990(3) 0.9127(4)
H3 H 0.484(2) 0.665(4) 0.931(6)
H4 H 0.571(4) 0.763(3) 0.951(6)
O3 O 0.7725(3) 0.7854(3) 0.7721(4)
H5 H 0.793(5) 0.831(4) 0.836(4)
H6 H 0.782(5) 0.733(3) 0.797(5)
C1 C 0.6696(4) 0.5010(4) 0.8005(5)
C2 C 0.5448(4) 0.2936(4) 0.8008(5)
C3 C 0.4556(4) 0.3141(4) 0.7586(5)
H7 H 0.3826 0.2533 0.7402
C4 C 0.4793(4) 0.4242(4) 0.7456(5)
C5 C 0.3882(4) 0.4531(4) 0.6992(5)
N1 N 0.5834(3) 0.5176(3) 0.7676(4)
N2 N 0.6494(3) 0.3913(3) 0.8172(4)
H8 H 0.7065 0.3830 0.8396
O4 O 0.4236(3) 0.5578(3) 0.6776(4)
O5 O 0.7706(3) 0.5851(3) 0.8176(4)
O6 O 0.2871(3) 0.3742(3) 0.6879(3)
O7 O 0.5352(3) 0.1976(3) 0.8214(3)
Co1E Co 0.92053(7) 0.59523(5) 0.88780(7)
O5C O 0.5851(3) 0.8145(4) 0.6509(4)
O8 O 0.8309(5) 0.8593(8) 0.4053(11)
O9 O 0.8214(7) 0.9712(8) 0.9193(16)
loop_
_geom_bond_atom_site_label_1
_geom_bond_atom_site_label_2
_geom_bond_site_symmetry_1
_geom_bond_site_symmetry_2
Co1 O1 1_555 1_555
O1 H1 1_555 1_555
H2 O1 1_555 1_555
O2 Co1 1_555 1_555
H3 O2 1_555 1_555
H4 O2 1_555 1_555
O3 Co1 1_555 1_555
H5 O3 1_555 1_555
H6 O3 1_555 1_555
C1 N1 1_555 1_555
C2 C3 1_555 1_555
C3 H7 1_555 1_555
C4 C3 1_555 1_555
C5 C4 1_555 1_555
N1 Co1 1_555 1_555
N2 C1 1_555 1_555
H8 N2 1_555 1_555
O4 Co1 1_555 1_555
O5 C1 1_555 1_555
O6 C5 1_555 1_555
O7 C2 1_555 1_555
Co1E O5 1_555 1_555
O5C Co1 1_555 1_555
C2 N2 1_555 1_555
C4 N1 1_555 1_555
C5 O4 1_555 1_555

#END
