
#######################################################################
#
#                 Cambridge Crystallographic Data Centre
#                                CCDC 
#
#######################################################################
#
# If this CIF has been generated from an entry in the Cambridge 
# Structural Database, then it will include bibliographic, chemical, 
# crystal, experimental, refinement or atomic coordinate data resulting 
# from the CCDC's data processing and validation procedures.
#
#######################################################################

data_JETBOA
_symmetry_cell_setting           orthorhombic
_symmetry_space_group_name_H-M   'P c c a'
_symmetry_Int_Tables_number      54
_space_group_name_Hall           '-P 2a 2ac'
loop_
_symmetry_equiv_pos_site_id
_symmetry_equiv_pos_as_xyz
1 x,y,z
2 1/2-x,-y,z
3 -x,y,1/2-z
4 1/2+x,-y,1/2-z
5 -x,-y,-z
6 1/2+x,y,-z
7 x,-y,1/2+z
8 1/2-x,y,1/2+z
_cell_length_a                   9.760(2)
_cell_length_b                   6.6015(16)
_cell_length_c                   10.500(3)
_cell_angle_alpha                90
_cell_angle_beta                 90
_cell_angle_gamma                90
_cell_volume                     676.522
loop_
_atom_site_label
_atom_site_type_symbol
_atom_site_fract_x
_atom_site_fract_y
_atom_site_fract_z
Cu1 Cu 0.2500 0.5000 0.14098(15)
C1 C -0.0185(3) 0.3935(6) 0.0290(4)
O1 O 0.0679(6) 0.3185(9) 0.1019(5)
O2 O 0.1318(5) 0.6785(8) 0.0017(5)
O3 O 0.1864(6) 0.7005(9) 0.2926(5)
H1 H 0.1584 0.8266 0.2572
H2 H 0.2622 0.7209 0.3497
Cu1E Cu -0.2500 0.5000 -0.14098(15)
C1D C 0.0185(3) 0.6065(6) -0.0290(4)
O1D O -0.0679(6) 0.6815(9) -0.1019(5)
O1A O 0.4321(6) 0.6815(9) 0.1019(5)
O2D O -0.1318(5) 0.3215(8) -0.0017(5)
O2A O 0.3682(5) 0.3215(8) 0.0017(5)
O3A O 0.3136(6) 0.2995(9) 0.2926(5)
H1A H 0.3416 0.1734 0.2572
H2A H 0.2378 0.2791 0.3497
O4 O 0.0000 -0.0102(13) 0.2500
H3 H 0.0302 0.0734 0.1806
H3B H -0.0302 0.0734 0.3194
loop_
_geom_bond_atom_site_label_1
_geom_bond_atom_site_label_2
_geom_bond_site_symmetry_1
_geom_bond_site_symmetry_2
Cu1 O1 1_555 1_555
C1 O1 1_555 1_555
O2 Cu1 1_555 1_555
O3 Cu1 1_555 1_555
O4 H3 1_555 1_555
H1 O3 1_555 1_555
H2 O3 1_555 1_555
Cu1E O1D 1_555 1_555
C1D C1 1_555 1_555
O1D C1D 1_555 1_555
O1A Cu1 1_555 1_555
O2D C1 1_555 1_555
O2A Cu1 1_555 1_555
O3A Cu1 1_555 1_555
H1A O3A 1_555 1_555
H2A O3A 1_555 1_555
H3B O4 1_555 1_555
O2 C1D 1_555 1_555
Cu1E O2D 1_555 1_555

#END
