
#######################################################################
#
#                 Cambridge Crystallographic Data Centre
#                                CCDC 
#
#######################################################################
#
# If this CIF has been generated from an entry in the Cambridge 
# Structural Database, then it will include bibliographic, chemical, 
# crystal, experimental, refinement or atomic coordinate data resulting 
# from the CCDC's data processing and validation procedures.
#
#######################################################################

data_JETKUO
_symmetry_cell_setting           monoclinic
_symmetry_space_group_name_H-M   'P 21/c'
_symmetry_Int_Tables_number      14
_space_group_name_Hall           '-P 2ybc'
loop_
_symmetry_equiv_pos_site_id
_symmetry_equiv_pos_as_xyz
1 x,y,z
2 -x,1/2+y,1/2-z
3 -x,-y,-z
4 x,1/2-y,1/2+z
_cell_length_a                   11.659(8)
_cell_length_b                   10.408(9)
_cell_length_c                   14.541(9)
_cell_angle_alpha                90
_cell_angle_beta                 105.57(6)
_cell_angle_gamma                90
_cell_volume                     1699.75
loop_
_atom_site_label
_atom_site_type_symbol
_atom_site_fract_x
_atom_site_fract_y
_atom_site_fract_z
Sn1 Sn 0.06007(4) 0.38495(3) 0.64860(3)
O1 O -0.0763(4) 0.4784(4) 0.6942(3)
O2 O 0.0899(3) 0.2888(4) 0.7807(3)
O3 O 0.2272(4) 0.2221(5) 0.7131(3)
O4 O -0.0913(4) 0.5465(4) 0.5497(3)
C1 C 0.2251(5) 0.1331(5) 0.8666(5)
C2 C 0.3416(6) 0.0578(8) 0.8696(7)
C3 C 0.4033(9) 0.145(1) 0.949(1)
C4 C 0.2941(6) 0.2095(7) 0.9566(5)
C5 C 0.1797(5) 0.2173(6) 0.7805(4)
C6 C -0.1249(5) 0.5504(6) 0.6228(4)
C7 C -0.0233(7) 0.2378(7) 0.5548(5)
C8 C 0.1901(6) 0.5315(7) 0.6719(5)
C9 C -0.141(1) 0.205(1) 0.5547(9)
C10 C 0.2896(8) 0.5228(9) 0.7551(7)
C11 C -0.190(1) 0.085(1) 0.4969(9)
C12 C 0.380(1) 0.632(1) 0.768(1)
C13 C -0.229(2) 0.086(2) 0.416(1)
C14 C 0.474(2) 0.620(2) 0.845(1)
H1 H 0.3716(6) 0.0658(8) 0.8057(7)
H2 H 0.3403(6) -0.0421(8) 0.8893(7)
H3 H 0.4651(9) 0.210(1) 0.929(1)
H4 H 0.4483(9) 0.094(1) 1.013(1)
H5 H 0.2682(6) 0.1871(7) 1.0208(5)
H6 H 0.2938(6) 0.3124(7) 0.9470(5)
H7 H 0.0304(7) 0.1523(7) 0.5733(5)
H8 H -0.0249(7) 0.2673(7) 0.4832(5)
H9 H 0.1454(6) 0.6212(7) 0.6764(5)
H10 H 0.2254(6) 0.5332(7) 0.6104(5)
H11 H -0.143(1) 0.190(1) 0.6277(9)
H12 H -0.199(1) 0.285(1) 0.5250(9)
H13 H 0.2554(8) 0.5219(9) 0.8171(7)
H14 H 0.3353(8) 0.4335(9) 0.7513(7)
H15 H -0.259(1) 0.049(1) 0.5269(9)
H16 H -0.117(1) 0.018(1) 0.5103(9)
H17 H 0.335(1) 0.721(1) 0.773(1)
H18 H 0.413(1) 0.634(1) 0.705(1)
H19 H -0.257(2) -0.010(2) 0.392(1)
H20 H -0.163(2) 0.119(2) 0.382(1)
H21 H -0.305(2) 0.149(2) 0.399(1)
H22 H 0.533(2) 0.701(2) 0.847(1)
H23 H 0.521(2) 0.532(2) 0.840(1)
H24 H 0.443(2) 0.619(2) 0.908(1)
C6A C 0.1249(5) 0.0504(6) 0.8772(4)
C1A C -0.2251(5) 0.6331(5) 0.6334(5)
O1A O 0.0763(4) -0.0216(4) 0.8058(3)
O4A O 0.0913(4) 0.0465(4) 0.9503(3)
C2A C -0.3416(6) 0.5578(8) 0.6304(7)
C4A C -0.2941(6) 0.7095(7) 0.5434(5)
C5A C -0.1797(5) 0.7173(6) 0.7195(4)
Sn1A Sn -0.06007(4) -0.11505(3) 0.85140(3)
C3A C -0.4033(9) 0.645(1) 0.551(1)
H1A H -0.3716(6) 0.5658(8) 0.6943(7)
H2A H -0.3403(6) 0.4579(8) 0.6107(7)
H5A H -0.2682(6) 0.6871(7) 0.4792(5)
H6A H -0.2938(6) 0.8124(7) 0.5530(5)
O2A O -0.0899(3) 0.7888(4) 0.7193(3)
O3A O -0.2272(4) 0.7221(5) 0.7869(3)
O2A_2 O -0.0899(3) -0.2112(4) 0.7193(3)
C7A C 0.0233(7) -0.2622(7) 0.9452(5)
C8A C -0.1901(6) 0.0315(7) 0.8281(5)
H3A H -0.4651(9) 0.710(1) 0.571(1)
H4A H -0.4483(9) 0.594(1) 0.487(1)
Sn1A_2 Sn -0.06007(4) 0.88495(3) 0.85140(3)
C9A C 0.141(1) -0.295(1) 0.9453(9)
H7A H -0.0304(7) -0.3477(7) 0.9267(5)
H8A H 0.0249(7) -0.2327(7) 1.0168(5)
C10A C -0.2896(8) 0.0228(9) 0.7449(7)
H9A H -0.1454(6) 0.1212(7) 0.8236(5)
H10A H -0.2254(6) 0.0332(7) 0.8896(5)
C11A C 0.190(1) -0.415(1) 1.0031(9)
H11A H 0.143(1) -0.310(1) 0.8723(9)
H12A H 0.199(1) -0.215(1) 0.9750(9)
C12A C -0.380(1) 0.132(1) 0.732(1)
H13A H -0.2554(8) 0.0219(9) 0.6829(7)
H14A H -0.3353(8) -0.0665(9) 0.7487(7)
C13A C 0.229(2) -0.414(2) 1.084(1)
H15A H 0.259(1) -0.451(1) 0.9731(9)
H16A H 0.117(1) -0.482(1) 0.9897(9)
C14A C -0.474(2) 0.120(2) 0.655(1)
H17A H -0.335(1) 0.221(1) 0.727(1)
H18A H -0.413(1) 0.134(1) 0.795(1)
H19A H 0.257(2) -0.510(2) 1.108(1)
H20A H 0.163(2) -0.381(2) 1.118(1)
H21A H 0.305(2) -0.351(2) 1.101(1)
H22A H -0.533(2) 0.201(2) 0.653(1)
H23A H -0.521(2) 0.032(2) 0.660(1)
H24A H -0.443(2) 0.119(2) 0.592(1)
loop_
_geom_bond_atom_site_label_1
_geom_bond_atom_site_label_2
_geom_bond_site_symmetry_1
_geom_bond_site_symmetry_2
Sn1 O1 1_555 1_555
O1 C6 1_555 1_555
O2 Sn1 1_555 1_555
O3 C5 1_555 1_555
O4 C6 1_555 1_555
C1 C2 1_555 1_555
C2 C3 1_555 1_555
C3 C4 1_555 1_555
C4 C1 1_555 1_555
C5 O2 1_555 1_555
C6 C1A 1_555 1_555
C7 Sn1 1_555 1_555
C8 Sn1 1_555 1_555
C9 C7 1_555 1_555
C10 C8 1_555 1_555
C11 C9 1_555 1_555
C12 C10 1_555 1_555
C13 C11 1_555 1_555
C14 C12 1_555 1_555
H1 C2 1_555 1_555
H2 C2 1_555 1_555
H3 C3 1_555 1_555
H4 C3 1_555 1_555
H5 C4 1_555 1_555
H6 C4 1_555 1_555
H7 C7 1_555 1_555
H8 C7 1_555 1_555
H9 C8 1_555 1_555
H10 C8 1_555 1_555
H11 C9 1_555 1_555
H12 C9 1_555 1_555
H13 C10 1_555 1_555
H14 C10 1_555 1_555
H15 C11 1_555 1_555
H16 C11 1_555 1_555
H17 C12 1_555 1_555
H18 C12 1_555 1_555
H19 C13 1_555 1_555
H20 C13 1_555 1_555
H21 C13 1_555 1_555
H22 C14 1_555 1_555
H23 C14 1_555 1_555
H24 C14 1_555 1_555
C6A C1 1_555 1_555
C1A C2A 1_555 1_555
O1A C6A 1_555 1_555
O4A C6A 1_555 1_555
C2A C3A 1_555 1_555
C4A C1A 1_555 1_555
C5A C1A 1_555 1_555
Sn1A O1A 1_555 1_555
C3A C4A 1_555 1_555
H1A C2A 1_555 1_555
H2A C2A 1_555 1_555
H5A C4A 1_555 1_555
H6A C4A 1_555 1_555
O2A C5A 1_555 1_555
O3A C5A 1_555 1_555
O2A_2 Sn1A 1_555 1_555
C7A Sn1A 1_555 1_555
C8A Sn1A 1_555 1_555
H3A C3A 1_555 1_555
H4A C3A 1_555 1_555
Sn1A_2 O2A 1_555 1_555
C9A C7A 1_555 1_555
H7A C7A 1_555 1_555
H8A C7A 1_555 1_555
C10A C8A 1_555 1_555
H9A C8A 1_555 1_555
H10A C8A 1_555 1_555
C11A C9A 1_555 1_555
H11A C9A 1_555 1_555
H12A C9A 1_555 1_555
C12A C10A 1_555 1_555
H13A C10A 1_555 1_555
H14A C10A 1_555 1_555
C13A C11A 1_555 1_555
H15A C11A 1_555 1_555
H16A C11A 1_555 1_555
C14A C12A 1_555 1_555
H17A C12A 1_555 1_555
H18A C12A 1_555 1_555
H19A C13A 1_555 1_555
H20A C13A 1_555 1_555
H21A C13A 1_555 1_555
H22A C14A 1_555 1_555
H23A C14A 1_555 1_555
H24A C14A 1_555 1_555
C1 C5 1_555 1_555

#END
