
#######################################################################
#
#                 Cambridge Crystallographic Data Centre
#                                CCDC 
#
#######################################################################
#
# If this CIF has been generated from an entry in the Cambridge 
# Structural Database, then it will include bibliographic, chemical, 
# crystal, experimental, refinement or atomic coordinate data resulting 
# from the CCDC's data processing and validation procedures.
#
#######################################################################

data_JETQOP
_symmetry_cell_setting           hexagonal
_symmetry_space_group_name_H-M   'P 63'
_symmetry_Int_Tables_number      173
_space_group_name_Hall           'P 6c'
loop_
_symmetry_equiv_pos_site_id
_symmetry_equiv_pos_as_xyz
1 x,y,z
2 -y,x-y,z
3 -x+y,-x,z
4 -x,-y,1/2+z
5 y,-x+y,1/2+z
6 x-y,x,1/2+z
_cell_length_a                   11.784(4)
_cell_length_b                   11.784(4)
_cell_length_c                   8.527(4)
_cell_angle_alpha                90
_cell_angle_beta                 90
_cell_angle_gamma                120
_cell_volume                     1025.44
loop_
_atom_site_label
_atom_site_type_symbol
_atom_site_fract_x
_atom_site_fract_y
_atom_site_fract_z
Cu1 Cu 0.3333 0.6667 0.39442(8)
Cu2 Cu 0.23903(4) 0.39384(4) 0.17817(6)
I1 I 0.3333 0.6667 0.07216(3)
N1 N 0.1735(3) 0.4925(3) 0.4443(3)
N2 N 0.1342(2) 0.3849(2) 0.3500(3)
N3 N -0.0113(2) 0.3301(3) 0.5395(3)
C1 C 0.0232(3) 0.2895(3) 0.4104(4)
C2 C -0.0561(4) 0.1572(4) 0.3389(6)
H1 H -0.0118 0.1507 0.2477
H2 H -0.1404 0.1441 0.3092
H3 H -0.0671 0.0915 0.4136
C3 C 0.0854(3) 0.4571(3) 0.5567(4)
C4 C 0.0899(4) 0.5440(4) 0.6840(5)
H4 H 0.1668 0.6287 0.6723
H5 H 0.0928 0.5072 0.7834
H6 H 0.0133 0.5527 0.6792
Cu2B Cu 0.15481(6) 0.76097(4) 0.17817(6)
Cu2A Cu 0.60616(4) 0.84519(6) 0.17817(6)
Cu2E Cu -0.15481(6) 0.23903(4) 0.67817(6)
Cu2C Cu 0.76097(4) 0.60616(4) 0.67817(6)
Cu2D Cu 0.39384(4) 1.15481(6) 0.67817(6)
N1A N 0.5075(3) 0.6810(4) 0.4443(3)
N1B N 0.3190(4) 0.8265(3) 0.4443(3)
N2A N 0.6151(2) 0.7493(3) 0.3500(3)
N2B N 0.2507(3) 0.8658(2) 0.3500(3)
N3A N 0.6699(3) 0.6586(4) 0.5395(3)
N3B N 0.3414(4) 1.0113(2) 0.5395(3)
N3D N 0.3301(3) 0.3414(4) 0.0395(3)
N3C N 0.0113(2) 0.6699(3) 0.0395(3)
N3E N 0.6586(4) 0.9887(2) 0.0395(3)
C1A C 0.7105(3) 0.7337(4) 0.4104(4)
C1B C 0.2663(4) 0.9768(3) 0.4104(4)
C2A C 0.8428(4) 0.7867(6) 0.3389(6)
C2B C 0.2133(6) 1.0561(4) 0.3389(6)
H1A H 0.8493 0.8375 0.2477
H1B H 0.1625 1.0118 0.2477
H2A H 0.8559 0.7155 0.3092
H2B H 0.2845 1.1404 0.3092
H3A H 0.9085 0.8414 0.4136
H3B H 0.1586 1.0671 0.4136
C3A C 0.5429(3) 0.6283(4) 0.5567(4)
C3B C 0.3717(4) 0.9146(3) 0.5567(4)
C4A C 0.4560(4) 0.5459(6) 0.6840(5)
C4B C 0.4541(6) 0.9101(4) 0.6840(5)
H4A H 0.3713 0.5381 0.6723
H4B H 0.4619 0.8332 0.6723
H5A H 0.4928 0.5856 0.7834
H5B H 0.4144 0.9072 0.7834
H6A H 0.4473 0.4606 0.6792
H6B H 0.5394 0.9867 0.6792
loop_
_geom_bond_atom_site_label_1
_geom_bond_atom_site_label_2
_geom_bond_site_symmetry_1
_geom_bond_site_symmetry_2
Cu1 I1 1_555 1_555
Cu2 I1 1_555 1_555
I1 Cu2B 1_555 1_555
N1 Cu1 1_555 1_555
N2 Cu2 1_555 1_555
N3 C1 1_555 1_555
C1 N2 1_555 1_555
C2 C1 1_555 1_555
H1 C2 1_555 1_555
H2 C2 1_555 1_555
H3 C2 1_555 1_555
C3 N1 1_555 1_555
C4 C3 1_555 1_555
H4 C4 1_555 1_555
H5 C4 1_555 1_555
H6 C4 1_555 1_555
Cu2B N2B 1_555 1_555
Cu2A I1 1_555 1_555
Cu2E N3 1_555 1_555
Cu2C N3A 1_555 1_555
Cu2D N3B 1_555 1_555
N1A Cu1 1_555 1_555
N1B Cu1 1_555 1_555
N2A Cu2A 1_555 1_555
N2B N1B 1_555 1_555
N3A C1A 1_555 1_555
N3B C1B 1_555 1_555
N3D Cu2 1_555 1_555
N3C Cu2B 1_555 1_555
N3E Cu2A 1_555 1_555
C1A N2A 1_555 1_555
C1B N2B 1_555 1_555
C2A C1A 1_555 1_555
C2B C1B 1_555 1_555
H1A C2A 1_555 1_555
H1B C2B 1_555 1_555
H2A C2A 1_555 1_555
H2B C2B 1_555 1_555
H3A C2A 1_555 1_555
H3B C2B 1_555 1_555
C3A N1A 1_555 1_555
C3B N1B 1_555 1_555
C4A C3A 1_555 1_555
C4B C3B 1_555 1_555
H4A C4A 1_555 1_555
H4B C4B 1_555 1_555
H5A C4A 1_555 1_555
H5B C4B 1_555 1_555
H6A C4A 1_555 1_555
H6B C4B 1_555 1_555
N1 N2 1_555 1_555
N3 C3 1_555 1_555
N1A N2A 1_555 1_555
N3A C3A 1_555 1_555
N3B C3B 1_555 1_555

#END
