
#######################################################################
#
#                 Cambridge Crystallographic Data Centre
#                                CCDC 
#
#######################################################################
#
# If this CIF has been generated from an entry in the Cambridge 
# Structural Database, then it will include bibliographic, chemical, 
# crystal, experimental, refinement or atomic coordinate data resulting 
# from the CCDC's data processing and validation procedures.
#
#######################################################################

data_JETVAG
_symmetry_cell_setting           monoclinic
_symmetry_space_group_name_H-M   'P 21/n'
_symmetry_Int_Tables_number      14
_space_group_name_Hall           '-P 2yn'
loop_
_symmetry_equiv_pos_site_id
_symmetry_equiv_pos_as_xyz
1 x,y,z
2 1/2-x,1/2+y,1/2-z
3 -x,-y,-z
4 1/2+x,1/2-y,1/2+z
_cell_length_a                   10.6172(16)
_cell_length_b                   14.017(2)
_cell_length_c                   19.030(3)
_cell_angle_alpha                90
_cell_angle_beta                 91.695(2)
_cell_angle_gamma                90
_cell_volume                     2830.83
loop_
_atom_site_label
_atom_site_type_symbol
_atom_site_fract_x
_atom_site_fract_y
_atom_site_fract_z
Mo1 Mo 0.34929(3) 1.04290(3) -0.013930(17)
Mo2 Mo 0.44226(3) 0.76703(3) 0.003110(17)
Mo3 Mo 0.46974(3) 0.89752(3) -0.134930(17)
Mo4 Mo 0.55664(4) 0.83522(3) 0.158740(18)
O1 O 0.4365(3) 0.92001(19) -0.01953(12)
O2 O 0.1944(3) 1.0130(2) -0.03295(14)
O3 O 0.4203(3) 1.03036(19) -0.11963(13)
O4 O 0.6330(3) 0.8320(2) 0.04217(14)
O5 O 0.4828(3) 0.8675(2) 0.23241(15)
O6 O 0.6092(3) 0.7210(2) 0.17518(15)
O7 O 0.4176(3) 0.8080(2) 0.09818(13)
O8 O 0.4931(3) 0.6503(2) 0.01681(15)
O9 O 0.2885(3) 0.7569(2) -0.02150(15)
O10 O 0.5197(3) 0.7815(2) -0.08688(13)
O11 O 0.3245(3) 0.8606(2) -0.16445(15)
O12 O 0.5580(3) 0.8979(2) -0.20792(15)
O13 O 0.3496(3) 1.0479(2) 0.07785(13)
N1 N 0.7486(4) 0.8719(3) 0.20042(18)
N2 N 0.8091(4) 0.8138(3) 0.2460(2)
H1 H 0.7836 0.7575 0.2567
N3 N -0.0469(4) 1.1183(3) -0.06566(19)
N4 N -0.1535(4) 1.1337(3) -0.1039(2)
H2 H -0.2178 1.0963 -0.1042
N5 N -0.0252(3) 0.9023(3) -0.08286(18)
N6 N 0.0602(4) 0.8328(3) -0.0919(2)
H3 H 0.1228 0.8219 -0.0633
N7 N 0.6774(4) 0.5008(3) 0.0559(2)
N8 N 0.7014(4) 0.5519(3) 0.1138(2)
H4 H 0.6486 0.5908 0.1317
N9 N 0.3966(4) 0.4825(3) 0.09260(18)
N10 N 0.3424(4) 0.4001(3) 0.10923(19)
H5 H 0.3611 0.3464 0.0903
Co1 Co 0.5000 0.5000 0.0000
C1 C 0.9143(6) 0.8544(5) 0.2727(3)
H6 H 0.9714 0.8276 0.3050
C2 C 0.9208(6) 0.9427(4) 0.2430(3)
H7 H 0.9837 0.9880 0.2508
C3 C 0.8173(5) 0.9512(3) 0.2000(2)
H8 H 0.7971 1.0053 0.1737
C4 C 0.0266(6) 1.1909(4) -0.0791(3)
H9 H 0.1077 1.1996 -0.0604
C5 C -0.0358(7) 1.2530(5) -0.1260(4)
H10 H -0.0052 1.3104 -0.1432
C6 C -0.1476(7) 1.2138(5) -0.1412(3)
H11 H -0.2095 1.2378 -0.1720
C7 C -0.1030(5) 0.8937(4) -0.1384(2)
H12 H -0.1728 0.9326 -0.1470
C8 C -0.0676(5) 0.8200(4) -0.1818(3)
H13 H -0.1071 0.8004 -0.2236
C9 C 0.7815(5) 0.4523(4) 0.0457(3)
H14 H 0.7932 0.4105 0.0085
C10 C 0.8718(6) 0.4722(5) 0.0983(4)
H15 H 0.9525 0.4469 0.1031
C11 C 0.8171(6) 0.5358(5) 0.1406(3)
H16 H 0.8530 0.5634 0.1809
C12 C 0.2564(5) 0.4095(4) 0.1583(3)
H17 H 0.2082 0.3611 0.1775
C13 C 0.2529(5) 0.5035(4) 0.1748(3)
H18 H 0.2020 0.5330 0.2073
C14 C 0.3419(5) 0.5465(4) 0.1327(2)
H19 H 0.3603 0.6113 0.1328
C15 C 0.0364(5) 0.7829(4) -0.1504(3)
H20 H 0.0832 0.7317 -0.1665
Co2 Co 0.0000 1.0000 0.0000
Mo1B Mo 0.65071(3) 0.95710(3) 0.013930(17)
Mo2B Mo 0.55774(3) 1.23297(3) -0.003110(17)
Mo3B Mo 0.53026(3) 1.10248(3) 0.134930(17)
Mo4B Mo 0.44336(4) 1.16478(3) -0.158740(18)
O1B O 0.5635(3) 1.07999(19) 0.01953(12)
O2B O -0.1944(3) 0.9870(2) 0.03295(14)
O2B_2 O 0.8056(3) 0.9870(2) 0.03295(14)
O3B O 0.5797(3) 0.96964(19) 0.11963(13)
O4B O 0.3670(3) 1.1680(2) -0.04217(14)
O5B O 0.5172(3) 1.1325(2) -0.23241(15)
O6B O 0.3908(3) 1.2790(2) -0.17518(15)
O7B O 0.5824(3) 1.1920(2) -0.09818(13)
O8B O 0.5069(3) 0.3497(2) -0.01681(15)
O8B_2 O 0.5069(3) 1.3497(2) -0.01681(15)
O9B O 0.7115(3) 1.2431(2) 0.02150(15)
O10B O 0.4803(3) 1.2185(2) 0.08688(13)
O11B O 0.6755(3) 1.1394(2) 0.16445(15)
O12B O 0.4420(3) 1.1021(2) 0.20792(15)
O13B O 0.6504(3) 0.9521(2) -0.07785(13)
N1B N 0.2514(4) 1.1281(3) -0.20042(18)
N2B N 0.1909(4) 1.1862(3) -0.2460(2)
H1B H 0.2164 1.2425 -0.2567
N3B N 0.0469(4) 0.8817(3) 0.06566(19)
N4B N 0.1535(4) 0.8663(3) 0.1039(2)
H2B H 0.2178 0.9037 0.1042
N5B N 0.0252(3) 1.0977(3) 0.08286(18)
N6B N -0.0602(4) 1.1672(3) 0.0919(2)
H3B H -0.1228 1.1781 0.0633
N7B N 0.3226(4) 0.4992(3) -0.0559(2)
N8B N 0.2986(4) 0.4481(3) -0.1138(2)
H4B H 0.3514 0.4092 -0.1317
N9B N 0.6034(4) 0.5175(3) -0.09260(18)
N10B N 0.6576(4) 0.5999(3) -0.10923(19)
H5B H 0.6389 0.6536 -0.0903
Co1_2 Co 0.5000 1.5000 0.0000
C1B C 0.0857(6) 1.1456(5) -0.2727(3)
H6B H 0.0286 1.1724 -0.3050
C2B C 0.0792(6) 1.0573(4) -0.2430(3)
H7B H 0.0163 1.0120 -0.2508
C3B C 0.1827(5) 1.0488(3) -0.2000(2)
H8B H 0.2029 0.9947 -0.1737
C4B C -0.0266(6) 0.8091(4) 0.0791(3)
H9B H -0.1077 0.8004 0.0604
C5B C 0.0358(7) 0.7470(5) 0.1260(4)
H10B H 0.0052 0.6896 0.1432
C6B C 0.1476(7) 0.7862(5) 0.1412(3)
H11B H 0.2095 0.7622 0.1720
C7B C 0.1030(5) 1.1063(4) 0.1384(2)
H12B H 0.1728 1.0674 0.1470
C8B C 0.0676(5) 1.1800(4) 0.1818(3)
H13B H 0.1071 1.1996 0.2236
C9B C 0.2185(5) 0.5477(4) -0.0457(3)
H14B H 0.2068 0.5895 -0.0085
C10B C 0.1282(6) 0.5278(5) -0.0983(4)
H15B H 0.0475 0.5531 -0.1031
C11B C 0.1829(6) 0.4642(5) -0.1406(3)
H16B H 0.1470 0.4366 -0.1809
C12B C 0.7436(5) 0.5905(4) -0.1583(3)
H17B H 0.7918 0.6389 -0.1775
C13B C 0.7471(5) 0.4965(4) -0.1748(3)
H18B H 0.7980 0.4670 -0.2073
C14B C 0.6581(5) 0.4535(4) -0.1327(2)
H19B H 0.6397 0.3887 -0.1328
C15B C -0.0364(5) 1.2171(4) 0.1504(3)
H20B H -0.0832 1.2683 0.1665
Co2_2 Co 1.0000 1.0000 0.0000
loop_
_geom_bond_atom_site_label_1
_geom_bond_atom_site_label_2
_geom_bond_site_symmetry_1
_geom_bond_site_symmetry_2
Mo1 O1 1_555 1_555
Mo2 O1 1_555 1_555
Mo3 O1 1_555 1_555
Mo4 O4 1_555 1_555
O1 Mo1B 1_555 1_555
O2 Mo1 1_555 1_555
O3 Mo1 1_555 1_555
O4 Mo2 1_555 1_555
O5 Mo4 1_555 1_555
O6 Mo4 1_555 1_555
O7 Mo2 1_555 1_555
O8 Mo2 1_555 1_555
O9 Mo2 1_555 1_555
O10 Mo2 1_555 1_555
O11 Mo3 1_555 1_555
O12 Mo3 1_555 1_555
O13 Mo1 1_555 1_555
N1 Mo4 1_555 1_555
N2 N1 1_555 1_555
H1 N2 1_555 1_555
N3 N4 1_555 1_555
N4 H2 1_555 1_555
N5 N6 1_555 1_555
N6 H3 1_555 1_555
N7 N8 1_555 1_555
N8 H4 1_555 1_555
N9 N10 1_555 1_555
N10 H5 1_555 1_555
Co1 O8 1_555 1_555
C1 N2 1_555 1_555
H6 C1 1_555 1_555
C2 C1 1_555 1_555
H7 C2 1_555 1_555
C3 N1 1_555 1_555
H8 C3 1_555 1_555
C4 N3 1_555 1_555
H9 C4 1_555 1_555
C5 C4 1_555 1_555
H10 C5 1_555 1_555
C6 N4 1_555 1_555
H11 C6 1_555 1_555
C7 N5 1_555 1_555
H12 C7 1_555 1_555
C8 C7 1_555 1_555
H13 C8 1_555 1_555
C9 N7 1_555 1_555
H14 C9 1_555 1_555
C10 C9 1_555 1_555
H15 C10 1_555 1_555
C11 N8 1_555 1_555
H16 C11 1_555 1_555
C12 N10 1_555 1_555
H17 C12 1_555 1_555
C13 C12 1_555 1_555
H18 C13 1_555 1_555
C14 N9 1_555 1_555
H19 C14 1_555 1_555
C15 N6 1_555 1_555
H20 C15 1_555 1_555
Co2 O2 1_555 1_555
Mo1B O4 1_555 1_555
Mo2B O1B 1_555 1_555
Mo3B O13 1_555 1_555
Mo4B O3 1_555 1_555
O1B Mo1 1_555 1_555
O2B Co2 1_555 1_555
O2B_2 Mo1B 1_555 1_555
O3B Mo4 1_555 1_555
O4B Mo1 1_555 1_555
O5B Mo4B 1_555 1_555
O6B Mo4B 1_555 1_555
O7B Mo2B 1_555 1_555
O8B Co1 1_555 1_555
O8B_2 Mo2B 1_555 1_555
O9B Mo2B 1_555 1_555
O10B Mo2B 1_555 1_555
O11B Mo3B 1_555 1_555
O12B Mo3B 1_555 1_555
O13B Mo3 1_555 1_555
N1B Mo4B 1_555 1_555
N2B N1B 1_555 1_555
H1B N2B 1_555 1_555
N3B Co2 1_555 1_555
N4B N3B 1_555 1_555
H2B N4B 1_555 1_555
N5B Co2 1_555 1_555
N6B N5B 1_555 1_555
H3B N6B 1_555 1_555
N7B Co1 1_555 1_555
N8B N7B 1_555 1_555
H4B N8B 1_555 1_555
N9B Co1 1_555 1_555
N10B N9B 1_555 1_555
H5B N10B 1_555 1_555
Co1_2 O8B_2 1_555 1_555
C1B N2B 1_555 1_555
H6B C1B 1_555 1_555
C2B C1B 1_555 1_555
H7B C2B 1_555 1_555
C3B N1B 1_555 1_555
H8B C3B 1_555 1_555
C4B N3B 1_555 1_555
H9B C4B 1_555 1_555
C5B C4B 1_555 1_555
H10B C5B 1_555 1_555
C6B N4B 1_555 1_555
H11B C6B 1_555 1_555
C7B N5B 1_555 1_555
H12B C7B 1_555 1_555
C8B C7B 1_555 1_555
H13B C8B 1_555 1_555
C9B N7B 1_555 1_555
H14B C9B 1_555 1_555
C10B C9B 1_555 1_555
H15B C10B 1_555 1_555
C11B N8B 1_555 1_555
H16B C11B 1_555 1_555
C12B N10B 1_555 1_555
H17B C12B 1_555 1_555
C13B C12B 1_555 1_555
H18B C13B 1_555 1_555
C14B N9B 1_555 1_555
H19B C14B 1_555 1_555
C15B N6B 1_555 1_555
H20B C15B 1_555 1_555
Co2_2 O2B_2 1_555 1_555
Mo3 O3 1_555 1_555
Mo3 O10 1_555 1_555
Mo4 O7 1_555 1_555
N3 Co2 1_555 1_555
N5 Co2 1_555 1_555
N7 Co1 1_555 1_555
N9 Co1 1_555 1_555
C2 C3 1_555 1_555
C5 C6 1_555 1_555
C8 C15 1_555 1_555
C10 C11 1_555 1_555
C13 C14 1_555 1_555
Mo1B O1B 1_555 1_555
Mo1B O3B 1_555 1_555
Mo1B O13B 1_555 1_555
Mo2B O4B 1_555 1_555
Mo3B O1B 1_555 1_555
Mo3B O3B 1_555 1_555
Mo3B O10B 1_555 1_555
Mo4B O4B 1_555 1_555
Mo4B O7B 1_555 1_555
C2B C3B 1_555 1_555
C5B C6B 1_555 1_555
C8B C15B 1_555 1_555
C10B C11B 1_555 1_555
C13B C14B 1_555 1_555

#END
