
#######################################################################
#
#                 Cambridge Crystallographic Data Centre
#                                CCDC 
#
#######################################################################
#
# If this CIF has been generated from an entry in the Cambridge 
# Structural Database, then it will include bibliographic, chemical, 
# crystal, experimental, refinement or atomic coordinate data resulting 
# from the CCDC's data processing and validation procedures.
#
#######################################################################

data_JETXAI
_symmetry_cell_setting           monoclinic
_symmetry_space_group_name_H-M   'P 21/n'
_symmetry_Int_Tables_number      14
_space_group_name_Hall           '-P 2yn'
loop_
_symmetry_equiv_pos_site_id
_symmetry_equiv_pos_as_xyz
1 x,y,z
2 1/2-x,1/2+y,1/2-z
3 -x,-y,-z
4 1/2+x,1/2-y,1/2+z
_cell_length_a                   20.463(4)
_cell_length_b                   14.819(3)
_cell_length_c                   23.023(5)
_cell_angle_alpha                90
_cell_angle_beta                 111.75(3)
_cell_angle_gamma                90
_cell_volume                     6484.5
loop_
_atom_site_label
_atom_site_type_symbol
_atom_site_fract_x
_atom_site_fract_y
_atom_site_fract_z
Zn1 Zn 0.37968(4) 1.04109(6) 0.57298(3)
Co1 Co 0.5000 1.0000 0.5000
O1 O 0.3256(2) 0.9821(4) 0.4959(2)
O2 O 0.3962(3) 0.9889(4) 0.4423(2)
O3 O -0.0468(3) 0.5196(3) 0.1409(2)
O4 O -0.0156(2) 0.5797(3) 0.0673(2)
O5 O 0.3946(3) 1.1688(3) 0.5620(2)
O6 O 0.4844(3) 1.1197(4) 0.5414(3)
O7 O 0.3029(2) 1.0340(3) 0.6077(2)
N1 N 0.2554(4) 0.9829(5) 0.6746(3)
C1 C 0.3431(3) 0.9604(5) 0.4506(3)
C2 C 0.2923(4) 0.9022(5) 0.4008(3)
C3 C 0.2314(4) 0.8726(6) 0.4059(3)
H1 H 0.2205 0.8901 0.4405
C4 C 0.1854(4) 0.8171(6) 0.3605(4)
H2 H 0.1444 0.7970 0.3658
C5 C 0.1971(4) 0.7909(6) 0.3091(3)
C6 C 0.2571(4) 0.8266(7) 0.3017(4)
H3 H 0.2655 0.8135 0.2652
C7 C 0.3040(4) 0.8808(7) 0.3472(4)
H4 H 0.3442 0.9032 0.3414
C8 C 0.1483(4) 0.7312(5) 0.2619(3)
C9 C 0.1054(5) 0.6730(6) 0.2785(3)
H5 H 0.1094 0.6708 0.3204
C10 C 0.0564(4) 0.6174(5) 0.2349(3)
H6 H 0.0287 0.5776 0.2478
C11 C 0.0488(3) 0.6210(5) 0.1724(3)
C12 C 0.0919(4) 0.6782(7) 0.1550(4)
H7 H 0.0881 0.6801 0.1131
C13 C 0.1406(4) 0.7327(7) 0.1988(4)
H8 H 0.1690 0.7715 0.1859
C14 C -0.0058(4) 0.5673(5) 0.1250(3)
C15 C 0.4439(4) 1.1813(5) 0.5441(3)
C16 C 0.4603(4) 1.2761(5) 0.5304(4)
C17 C 0.5106(5) 1.2915(6) 0.5061(5)
H9 H 0.5361 1.2432 0.4985
C18 C 0.5241(5) 1.3803(6) 0.4925(6)
H10 H 0.5566 1.3899 0.4730
C19 C 0.4918(4) 1.4534(5) 0.5066(4)
C20 C 0.4430(5) 1.4350(6) 0.5320(5)
H11 H 0.4202 1.4834 0.5431
C21 C 0.4255(5) 1.3478(6) 0.5423(4)
H12 H 0.3894 1.3380 0.5575
C22 C 0.3083(4) 1.0024(5) 0.6590(3)
H13 H 0.3538 0.9918 0.6885
C23 C 0.2668(7) 0.9428(8) 0.7368(5)
H14 H 0.2565 0.8787 0.7320
H15 H 0.2359 0.9718 0.7544
H16 H 0.3153 0.9516 0.7644
C24 C 0.1842(5) 0.9975(9) 0.6336(6)
H17 H 0.1622 1.0404 0.6524
H18 H 0.1587 0.9408 0.6264
H19 H 0.1835 1.0211 0.5940
Zn1B Zn 0.62032(4) 0.95891(6) 0.42702(3)
Zn1C Zn -0.12032(4) 0.45891(6) 0.07298(3)
Zn1B_2 Zn 0.62032(4) 1.95891(6) 0.42702(3)
Zn1A Zn 1.12032(4) 1.54109(6) 0.92702(3)
Co1C Co 0.0000 0.5000 0.0000
Co1_2 Co 0.5000 2.0000 0.5000
Co1C_2 Co 1.0000 1.5000 1.0000
O1B O 0.6744(2) 1.0179(4) 0.5041(2)
O2B O 0.6038(3) 1.0111(4) 0.5577(2)
O3B O 1.0468(3) 1.4804(3) 0.8591(2)
O3C O 0.4532(3) 0.9804(3) 0.6409(2)
O3A O 0.5468(3) 1.0196(3) 0.3591(2)
O4B O 1.0156(2) 1.4203(3) 0.9327(2)
O4C O 0.4844(2) 0.9203(3) 0.5673(2)
O4A O 0.5156(2) 1.0797(3) 0.4327(2)
O5B O 0.6054(3) 1.8312(3) 0.4380(2)
O5B_2 O 0.6054(3) 0.8312(3) 0.4380(2)
O6B O 0.5156(3) 1.8803(4) 0.4586(3)
O6B_2 O 0.5156(3) 0.8803(4) 0.4586(3)
O7B O 0.6971(2) 0.9660(3) 0.3923(2)
N1B N 0.7446(4) 1.0171(5) 0.3254(3)
C1B C 0.6569(3) 1.0396(5) 0.5494(3)
C2B C 0.7077(4) 1.0978(5) 0.5992(3)
C3B C 0.7686(4) 1.1274(6) 0.5941(3)
H1B H 0.7795 1.1099 0.5595
C4B C 0.8146(4) 1.1829(6) 0.6395(4)
H2B H 0.8556 1.2030 0.6342
C5B C 0.8029(4) 1.2091(6) 0.6909(3)
C6B C 0.7429(4) 1.1734(7) 0.6983(4)
H3B H 0.7345 1.1865 0.7348
C7B C 0.6960(4) 1.1192(7) 0.6528(4)
H4B H 0.6558 1.0968 0.6586
C8B C 0.8517(4) 1.2688(5) 0.7381(3)
C9B C 0.8946(5) 1.3270(6) 0.7215(3)
H5B H 0.8906 1.3292 0.6796
C10B C 0.9436(4) 1.3826(5) 0.7651(3)
H6B H 0.9713 1.4224 0.7522
C11B C 0.9512(3) 1.3790(5) 0.8276(3)
C12B C 0.9081(4) 1.3218(7) 0.8450(4)
H7B H 0.9119 1.3199 0.8869
C13B C 0.8594(4) 1.2673(7) 0.8012(4)
H8B H 0.8310 1.2285 0.8141
C14B C 1.0058(4) 1.4327(5) 0.8750(3)
C15B C 0.5561(4) 1.8187(5) 0.4559(3)
C16B C 0.5397(4) 1.7239(5) 0.4696(4)
C17B C 0.4894(5) 1.7085(6) 0.4939(5)
H9B H 0.4639 1.7568 0.5015
C18B C 0.4759(5) 1.6197(6) 0.5075(6)
H10B H 0.4434 1.6101 0.5270
C19B C 0.5082(4) 1.5466(5) 0.4934(4)
C20B C 0.5570(5) 1.5650(6) 0.4680(5)
H11B H 0.5798 1.5166 0.4569
C21B C 0.5745(5) 1.6522(6) 0.4577(4)
H12B H 0.6106 1.6620 0.4425
C22B C 0.6917(4) 0.9976(5) 0.3410(3)
H13B H 0.6462 1.0082 0.3115
C23B C 0.7332(7) 1.0572(8) 0.2632(5)
H14B H 0.7435 1.1213 0.2680
H15B H 0.7641 1.0282 0.2456
H16B H 0.6847 1.0484 0.2356
C24B C 0.8158(5) 1.0025(9) 0.3664(6)
H17B H 0.8378 0.9596 0.3476
H18B H 0.8413 1.0592 0.3736
H19B H 0.8165 0.9789 0.4060
Zn2 Zn 0.37687(4) 0.04167(5) 0.06695(3)
Co2 Co 0.5000 0.0000 0.0000
O8 O 0.4332(3) -0.0290(3) 0.1412(2)
O9 O 0.5052(3) -0.0121(4) 0.0906(2)
O10 O 0.8275(2) -0.4715(3) 0.4928(2)
O11 O 0.9134(2) -0.4194(3) 0.4651(3)
O12 O 0.4087(3) 0.1638(3) 0.0656(2)
O13 O 0.4414(2) 0.1199(3) -0.01234(18)
O14 O 0.2929(3) 0.0686(4) 0.0873(3)
N2 N 0.2055(6) 0.0289(8) 0.1187(6)
C25 C 0.4910(4) -0.0437(5) 0.1351(3)
C26 C 0.5450(4) -0.0984(5) 0.1830(3)
C27 C 0.5350(3) -0.1269(5) 0.2373(3)
H20 H 0.4937 -0.1111 0.2438
C28 C 0.5857(4) -0.1778(5) 0.2806(3)
H21 H 0.5791 -0.1951 0.3174
C29 C 0.6460(3) -0.2045(5) 0.2723(3)
C30 C 0.6557(4) -0.1769(5) 0.2180(3)
H22 H 0.6963 -0.1948 0.2110
C31 C 0.6059(4) -0.1234(5) 0.1745(3)
H23 H 0.6136 -0.1038 0.1387
C32 C 0.6998(4) -0.2616(5) 0.3201(3)
C33 C 0.6784(4) -0.3285(5) 0.3515(3)
H24 H 0.6302 -0.3384 0.3421
C34 C 0.7275(4) -0.3804(5) 0.3963(3)
H25 H 0.7125 -0.4250 0.4176
C35 C 0.7987(3) -0.3674(4) 0.4102(3)
C36 C 0.8202(4) -0.3051(5) 0.3770(3)
H26 H 0.8682 -0.2989 0.3841
C37 C 0.7712(3) -0.2518(5) 0.3333(3)
H27 H 0.7866 -0.2077 0.3119
C38 C 0.8516(4) -0.4241(4) 0.4596(3)
C39 C 0.4344(3) 0.1781(4) 0.0234(3)
C40 C 0.4560(4) 0.2727(5) 0.0170(3)
C41 C 0.4739(5) 0.2987(5) -0.0322(4)
H28 H 0.4741 0.2555 -0.0620
C42 C 0.4915(5) 0.3866(6) -0.0389(4)
H29 H 0.5045 0.4024 -0.0727
C43 C 0.4905(4) 0.4519(5) 0.0038(4)
C44 C 0.4735(8) 0.4257(6) 0.0530(5)
H30 H 0.4750 0.4684 0.0836
C45 C 0.4544(7) 0.3385(6) 0.0592(5)
H31 H 0.4401 0.3234 0.0924
C46 C 0.2575(7) 0.0153(9) 0.0981(6)
H32 H 0.2666 -0.0452 0.0914
C47 C 0.1871(9) 0.1225(13) 0.1250(10)
H33 H 0.2196 0.1469 0.1640
H34 H 0.1396 0.1251 0.1247
H35 H 0.1897 0.1576 0.0903
C48 C 0.1648(8) -0.0429(11) 0.1308(7)
H36 H 0.1843 -0.1006 0.1255
H37 H 0.1164 -0.0386 0.1017
H38 H 0.1663 -0.0378 0.1733
Zn2B Zn 0.62313(4) -0.04167(5) -0.06695(3)
Zn2C Zn 0.87687(4) -0.54167(5) 0.56695(3)
Zn2B_2 Zn 0.62313(4) 0.95833(5) -0.06695(3)
Zn2A Zn 0.12313(4) 0.54167(5) -0.56695(3)
Co2C Co 1.0000 -0.5000 0.5000
Co2_2 Co 0.5000 1.0000 0.0000
Co2C_2 Co 0.0000 0.5000 -0.5000
O8B O 0.5668(3) 0.0290(3) -0.1412(2)
O9B O 0.4948(3) 0.0121(4) -0.0906(2)
O10B O 0.1725(2) 0.4715(3) -0.4928(2)
O10C O 0.3275(2) -0.0285(3) -0.0072(2)
O10A O 0.6725(2) 0.0285(3) 0.0072(2)
O11B O 0.0866(2) 0.4194(3) -0.4651(3)
O11C O 0.4134(2) -0.0806(3) -0.0349(3)
O11A O 0.5866(2) 0.0806(3) 0.0349(3)
O12B O 0.5913(3) 0.8362(3) -0.0656(2)
O12B_2 O 0.5913(3) -0.1638(3) -0.0656(2)
O13B O 0.5586(2) 0.8801(3) 0.01234(18)
O13B_2 O 0.5586(2) -0.1199(3) 0.01234(18)
O14B O 0.7071(3) -0.0686(4) -0.0873(3)
N2B N 0.7945(6) -0.0289(8) -0.1187(6)
C25B C 0.5090(4) 0.0437(5) -0.1351(3)
C26B C 0.4550(4) 0.0984(5) -0.1830(3)
C27B C 0.4650(3) 0.1269(5) -0.2373(3)
H20B H 0.5063 0.1111 -0.2438
C28B C 0.4143(4) 0.1778(5) -0.2806(3)
H21B H 0.4209 0.1951 -0.3174
C29B C 0.3540(3) 0.2045(5) -0.2723(3)
C30B C 0.3443(4) 0.1769(5) -0.2180(3)
H22B H 0.3037 0.1948 -0.2110
C31B C 0.3941(4) 0.1234(5) -0.1745(3)
H23B H 0.3864 0.1038 -0.1387
C32B C 0.3002(4) 0.2616(5) -0.3201(3)
C33B C 0.3216(4) 0.3285(5) -0.3515(3)
H24B H 0.3698 0.3384 -0.3421
C34B C 0.2725(4) 0.3804(5) -0.3963(3)
H25B H 0.2875 0.4250 -0.4176
C35B C 0.2013(3) 0.3674(4) -0.4102(3)
C36B C 0.1798(4) 0.3051(5) -0.3770(3)
H26B H 0.1318 0.2989 -0.3841
C37B C 0.2288(3) 0.2518(5) -0.3333(3)
H27B H 0.2134 0.2077 -0.3119
C38B C 0.1484(4) 0.4241(4) -0.4596(3)
C39B C 0.5656(3) 0.8219(4) -0.0234(3)
C40B C 0.5440(4) 0.7273(5) -0.0170(3)
C41B C 0.5261(5) 0.7013(5) 0.0322(4)
H28B H 0.5259 0.7445 0.0620
C42B C 0.5085(5) 0.6134(6) 0.0389(4)
H29B H 0.4955 0.5976 0.0727
C43B C 0.5095(4) 0.5481(5) -0.0038(4)
C44B C 0.5265(8) 0.5743(6) -0.0530(5)
H30B H 0.5250 0.5316 -0.0836
C45B C 0.5456(7) 0.6615(6) -0.0592(5)
H31B H 0.5599 0.6766 -0.0924
C46B C 0.7425(7) -0.0153(9) -0.0981(6)
H32B H 0.7334 0.0452 -0.0914
C47B C 0.8129(9) -0.1225(13) -0.1250(10)
H33B H 0.7804 -0.1469 -0.1640
H34B H 0.8604 -0.1251 -0.1247
H35B H 0.8103 -0.1576 -0.0903
C48B C 0.8352(8) 0.0429(11) -0.1308(7)
H36B H 0.8157 0.1006 -0.1255
H37B H 0.8836 0.0386 -0.1017
H38B H 0.8337 0.0378 -0.1733
O15 O 0.2287(14) 0.2891(13) 0.3653(16)
C49 C 0.2422(10) 0.231(2) 0.4205(13)
H39 H 0.2866 0.2055 0.4425
N3 N 0.1890(7) 0.2179(8) 0.4364(6)
C50 C 0.1261(9) 0.2635(13) 0.4133(8)
H40 H 0.1224 0.2946 0.3751
H41 H 0.1240 0.3070 0.4440
H42 H 0.0876 0.2209 0.4044
C51 C 0.1960(10) 0.1529(13) 0.4853(8)
H43 H 0.2318 0.1089 0.4870
H44 H 0.1514 0.1223 0.4764
H45 H 0.2095 0.1837 0.5252
O16 O 0.1758(8) 0.1183(13) 0.7663(8)
C52 C 0.1225(11) 0.0975(18) 0.7769(10)
H46 H 0.1224 0.0399 0.7940
N4 N 0.0712(6) 0.1425(12) 0.7677(6)
C53 C 0.0756(15) 0.234(2) 0.7383(14)
H47 H 0.1223 0.2594 0.7588
H48 H 0.0410 0.2751 0.7434
H49 H 0.0662 0.2264 0.6941
C54 C 0.0138(9) 0.1254(15) 0.7860(10)
H50 H 0.0240 0.0730 0.8131
H51 H -0.0280 0.1141 0.7492
H52 H 0.0060 0.1773 0.8082
O17 O 0.3454(5) 0.5858(6) 0.5652(5)
C55 C 0.2949(7) 0.6314(9) 0.5685(6)
H53 H 0.2539 0.5995 0.5653
N5 N 0.2941(4) 0.7177(6) 0.5760(4)
C56 C 0.2325(7) 0.7607(11) 0.5800(7)
H54 H 0.1959 0.7160 0.5737
H55 H 0.2158 0.8070 0.5481
H56 H 0.2445 0.7880 0.6210
C57 C 0.3527(8) 0.7712(9) 0.5763(8)
H57 H 0.3947 0.7529 0.6111
H58 H 0.3432 0.8344 0.5808
H59 H 0.3599 0.7623 0.5374
O18 O 0.4638(14) 0.5580(9) 0.1701(7)
C58 C 0.466(2) 0.6087(14) 0.2131(11)
H60 H 0.5047 0.6448 0.2354
N6 N 0.401(2) 0.607(2) 0.2260(15)
C59 C 0.328(3) 0.597(4) 0.198(2)
H61 H 0.3087 0.6479 0.1709
H62 H 0.3082 0.5927 0.2296
H63 H 0.3180 0.5417 0.1729
C60 C 0.4287(12) 0.6686(18) 0.2786(11)
H64 H 0.4633 0.6376 0.3136
H65 H 0.3907 0.6899 0.2905
H66 H 0.4507 0.7196 0.2666
loop_
_geom_bond_atom_site_label_1
_geom_bond_atom_site_label_2
_geom_bond_site_symmetry_1
_geom_bond_site_symmetry_2
Zn1 O1 1_555 1_555
Co1 O2 1_555 1_555
O1 C1 1_555 1_555
O2 C1 1_555 1_555
O3 C14 1_555 1_555
O4 C14 1_555 1_555
O5 Zn1 1_555 1_555
O6 Co1 1_555 1_555
O7 Zn1 1_555 1_555
N1 C22 1_555 1_555
C1 C2 1_555 1_555
C2 C3 1_555 1_555
C3 H1 1_555 1_555
C4 C3 1_555 1_555
H2 C4 1_555 1_555
C5 C4 1_555 1_555
C6 C5 1_555 1_555
H3 C6 1_555 1_555
C7 C2 1_555 1_555
H4 C7 1_555 1_555
C8 C5 1_555 1_555
C9 C8 1_555 1_555
H5 C9 1_555 1_555
C10 C9 1_555 1_555
H6 C10 1_555 1_555
C11 C10 1_555 1_555
C12 C11 1_555 1_555
H7 C12 1_555 1_555
C13 C8 1_555 1_555
H8 C13 1_555 1_555
C14 C11 1_555 1_555
C15 O5 1_555 1_555
C16 C15 1_555 1_555
C17 C16 1_555 1_555
H9 C17 1_555 1_555
C18 C17 1_555 1_555
H10 C18 1_555 1_555
C19 C18 1_555 1_555
C20 C19 1_555 1_555
H11 C20 1_555 1_555
C21 C16 1_555 1_555
H12 C21 1_555 1_555
C22 O7 1_555 1_555
H13 C22 1_555 1_555
C23 N1 1_555 1_555
H14 C23 1_555 1_555
H15 C23 1_555 1_555
H16 C23 1_555 1_555
C24 N1 1_555 1_555
H17 C24 1_555 1_555
H18 C24 1_555 1_555
H19 C24 1_555 1_555
Zn2 O8 1_555 1_555
Co2 O9 1_555 1_555
O8 C25 1_555 1_555
O9 C25 1_555 1_555
O10 C38 1_555 1_555
O11 C38 1_555 1_555
O12 Zn2 1_555 1_555
O13 Co2 1_555 1_555
O14 Zn2 1_555 1_555
N2 C46 1_555 1_555
C25 C26 1_555 1_555
C26 C27 1_555 1_555
C27 H20 1_555 1_555
C28 C27 1_555 1_555
H21 C28 1_555 1_555
C29 C28 1_555 1_555
C30 C29 1_555 1_555
H22 C30 1_555 1_555
C31 C26 1_555 1_555
H23 C31 1_555 1_555
C32 C29 1_555 1_555
C33 C32 1_555 1_555
H24 C33 1_555 1_555
C34 C33 1_555 1_555
H25 C34 1_555 1_555
C35 C34 1_555 1_555
C36 C35 1_555 1_555
H26 C36 1_555 1_555
C37 C32 1_555 1_555
H27 C37 1_555 1_555
C38 C35 1_555 1_555
C39 O12 1_555 1_555
C40 C39 1_555 1_555
C41 C40 1_555 1_555
H28 C41 1_555 1_555
C42 C41 1_555 1_555
H29 C42 1_555 1_555
C43 C42 1_555 1_555
C44 C43 1_555 1_555
H30 C44 1_555 1_555
C45 C40 1_555 1_555
H31 C45 1_555 1_555
C46 O14 1_555 1_555
H32 C46 1_555 1_555
C47 N2 1_555 1_555
H33 C47 1_555 1_555
H34 C47 1_555 1_555
H35 C47 1_555 1_555
C48 N2 1_555 1_555
H36 C48 1_555 1_555
H37 C48 1_555 1_555
H38 C48 1_555 1_555
O15 C49 1_555 1_555
C49 H39 1_555 1_555
N3 C49 1_555 1_555
C50 N3 1_555 1_555
H40 C50 1_555 1_555
H41 C50 1_555 1_555
H42 C50 1_555 1_555
C51 N3 1_555 1_555
H43 C51 1_555 1_555
H44 C51 1_555 1_555
H45 C51 1_555 1_555
O16 C52 1_555 1_555
C52 H46 1_555 1_555
N4 C52 1_555 1_555
C53 N4 1_555 1_555
H47 C53 1_555 1_555
H48 C53 1_555 1_555
H49 C53 1_555 1_555
C54 N4 1_555 1_555
H50 C54 1_555 1_555
H51 C54 1_555 1_555
H52 C54 1_555 1_555
O17 C55 1_555 1_555
C55 H53 1_555 1_555
N5 C55 1_555 1_555
C56 N5 1_555 1_555
H54 C56 1_555 1_555
H55 C56 1_555 1_555
H56 C56 1_555 1_555
C57 N5 1_555 1_555
H57 C57 1_555 1_555
H58 C57 1_555 1_555
H59 C57 1_555 1_555
O18 C58 1_555 1_555
C58 H60 1_555 1_555
N6 C58 1_555 1_555
C59 N6 1_555 1_555
H61 C59 1_555 1_555
H62 C59 1_555 1_555
H63 C59 1_555 1_555
C60 N6 1_555 1_555
H64 C60 1_555 1_555
H65 C60 1_555 1_555
H66 C60 1_555 1_555
Zn1B O1B 1_555 1_555
Zn1C O3 1_555 1_555
Zn1B_2 O5B 1_555 1_555
Zn1A O3B 1_555 1_555
Co1C O4 1_555 1_555
Co1_2 O6B 1_555 1_555
Co1C_2 O4B 1_555 1_555
O1B C1B 1_555 1_555
O2B Co1 1_555 1_555
O3B C14B 1_555 1_555
O3C Zn1 1_555 1_555
O3A Zn1B 1_555 1_555
O4B C14B 1_555 1_555
O4C Co1 1_555 1_555
O4A Co1 1_555 1_555
O5B C15B 1_555 1_555
O5B_2 Zn1B 1_555 1_555
O6B C15B 1_555 1_555
O6B_2 Co1 1_555 1_555
O7B Zn1B 1_555 1_555
N1B C22B 1_555 1_555
C1B O2B 1_555 1_555
C2B C1B 1_555 1_555
C3B C2B 1_555 1_555
H1B C3B 1_555 1_555
C4B C3B 1_555 1_555
H2B C4B 1_555 1_555
C5B C4B 1_555 1_555
C6B C5B 1_555 1_555
H3B C6B 1_555 1_555
C7B C2B 1_555 1_555
H4B C7B 1_555 1_555
C8B C5B 1_555 1_555
C9B C8B 1_555 1_555
H5B C9B 1_555 1_555
C10B C9B 1_555 1_555
H6B C10B 1_555 1_555
C11B C10B 1_555 1_555
C12B C11B 1_555 1_555
H7B C12B 1_555 1_555
C13B C8B 1_555 1_555
H8B C13B 1_555 1_555
C14B C11B 1_555 1_555
C15B C16B 1_555 1_555
C16B C17B 1_555 1_555
C17B H9B 1_555 1_555
C18B C17B 1_555 1_555
H10B C18B 1_555 1_555
C19B C19 1_555 1_555
C20B C19B 1_555 1_555
H11B C20B 1_555 1_555
C21B C16B 1_555 1_555
H12B C21B 1_555 1_555
C22B O7B 1_555 1_555
H13B C22B 1_555 1_555
C23B N1B 1_555 1_555
H14B C23B 1_555 1_555
H15B C23B 1_555 1_555
H16B C23B 1_555 1_555
C24B N1B 1_555 1_555
H17B C24B 1_555 1_555
H18B C24B 1_555 1_555
H19B C24B 1_555 1_555
Zn2B O8B 1_555 1_555
Zn2C O10 1_555 1_555
Zn2B_2 O12B 1_555 1_555
Zn2A O10B 1_555 1_555
Co2C O11 1_555 1_555
Co2_2 O13B 1_555 1_555
Co2C_2 O11B 1_555 1_555
O8B C25B 1_555 1_555
O9B Co2 1_555 1_555
O10B C38B 1_555 1_555
O10C Zn2 1_555 1_555
O10A Zn2B 1_555 1_555
O11B C38B 1_555 1_555
O11C Co2 1_555 1_555
O11A Co2 1_555 1_555
O12B C39B 1_555 1_555
O12B_2 Zn2B 1_555 1_555
O13B C39B 1_555 1_555
O13B_2 Co2 1_555 1_555
O14B Zn2B 1_555 1_555
N2B C46B 1_555 1_555
C25B O9B 1_555 1_555
C26B C25B 1_555 1_555
C27B C26B 1_555 1_555
H20B C27B 1_555 1_555
C28B C27B 1_555 1_555
H21B C28B 1_555 1_555
C29B C28B 1_555 1_555
C30B C29B 1_555 1_555
H22B C30B 1_555 1_555
C31B C26B 1_555 1_555
H23B C31B 1_555 1_555
C32B C29B 1_555 1_555
C33B C32B 1_555 1_555
H24B C33B 1_555 1_555
C34B C33B 1_555 1_555
H25B C34B 1_555 1_555
C35B C34B 1_555 1_555
C36B C35B 1_555 1_555
H26B C36B 1_555 1_555
C37B C32B 1_555 1_555
H27B C37B 1_555 1_555
C38B C35B 1_555 1_555
C39B C40B 1_555 1_555
C40B C41B 1_555 1_555
C41B H28B 1_555 1_555
C42B C41B 1_555 1_555
H29B C42B 1_555 1_555
C43B C43 1_555 1_555
C44B C43B 1_555 1_555
H30B C44B 1_555 1_555
C45B C40B 1_555 1_555
H31B C45B 1_555 1_555
C46B O14B 1_555 1_555
H32B C46B 1_555 1_555
C47B N2B 1_555 1_555
H33B C47B 1_555 1_555
H34B C47B 1_555 1_555
H35B C47B 1_555 1_555
C48B N2B 1_555 1_555
H36B C48B 1_555 1_555
H37B C48B 1_555 1_555
H38B C48B 1_555 1_555
O6 C15 1_555 1_555
C6 C7 1_555 1_555
C12 C13 1_555 1_555
C20 C21 1_555 1_555
O13 C39 1_555 1_555
C30 C31 1_555 1_555
C36 C37 1_555 1_555
C44 C45 1_555 1_555
C6B C7B 1_555 1_555
C12B C13B 1_555 1_555
C18B C19B 1_555 1_555
C20B C21B 1_555 1_555
C30B C31B 1_555 1_555
C36B C37B 1_555 1_555
C42B C43B 1_555 1_555
C44B C45B 1_555 1_555

#END
