
#######################################################################
#
#                 Cambridge Crystallographic Data Centre
#                                CCDC 
#
#######################################################################
#
# If this CIF has been generated from an entry in the Cambridge 
# Structural Database, then it will include bibliographic, chemical, 
# crystal, experimental, refinement or atomic coordinate data resulting 
# from the CCDC's data processing and validation procedures.
#
#######################################################################

data_JETXEM
_symmetry_cell_setting           monoclinic
_symmetry_space_group_name_H-M   'P 21/n'
_symmetry_Int_Tables_number      14
_space_group_name_Hall           '-P 2yn'
loop_
_symmetry_equiv_pos_site_id
_symmetry_equiv_pos_as_xyz
1 x,y,z
2 1/2-x,1/2+y,1/2-z
3 -x,-y,-z
4 1/2+x,1/2-y,1/2+z
_cell_length_a                   11.491(2)
_cell_length_b                   14.837(3)
_cell_length_c                   19.386(4)
_cell_angle_alpha                90
_cell_angle_beta                 101.53(3)
_cell_angle_gamma                90
_cell_volume                     3238.46
loop_
_atom_site_label
_atom_site_type_symbol
_atom_site_fract_x
_atom_site_fract_y
_atom_site_fract_z
Cd1 Cd 0.0000 0.0000 0.0000
Zn1 Zn 0.26799(5) 0.04379(3) 0.12524(2)
O1 O 0.1676(3) -0.0171(2) 0.17963(17)
O2 O 0.0582(3) -0.0902(2) 0.08836(16)
O3 O -0.1674(3) -0.4725(2) 0.55708(17)
O4 O -0.3238(3) -0.5063(2) 0.47489(18)
O5 O 0.2251(3) 0.1673(2) 0.10003(18)
O6 O 0.0380(3) 0.1218(2) 0.06585(17)
C1 C 0.0889(4) -0.0741(3) 0.1522(2)
C2 C 0.0362(4) -0.1293(3) 0.2032(2)
C3 C 0.0701(5) -0.1155(3) 0.2750(3)
H1 H 0.1248 -0.0687 0.2922
C4 C 0.0259(5) -0.1683(4) 0.3212(3)
H2 H 0.0512 -0.1581 0.3703
C5 C -0.0546(4) -0.2363(3) 0.2986(2)
C6 C -0.0910(5) -0.2487(4) 0.2267(3)
H3 H -0.1471 -0.2946 0.2096
C7 C -0.0467(5) -0.1950(4) 0.1793(3)
H4 H -0.0736 -0.2036 0.1302
C8 C -0.1000(5) -0.2951(3) 0.3494(2)
C9 C -0.0242(4) -0.3230(3) 0.4110(2)
H5 H 0.0564 -0.3042 0.4203
C10 C -0.0650(4) -0.3780(3) 0.4590(2)
H6 H -0.0127 -0.3962 0.5011
C11 C -0.1828(4) -0.4064(3) 0.4453(2)
C12 C -0.2576(5) -0.3791(4) 0.3839(3)
H7 H -0.3380 -0.3985 0.3742
C13 C -0.2165(5) -0.3238(4) 0.3362(3)
H8 H -0.2690 -0.3056 0.2943
C14 C -0.2297(4) -0.4658(3) 0.4959(2)
C15 C 0.1162(5) 0.1808(3) 0.0735(2)
C16 C 0.0818(5) 0.2755(3) 0.0531(3)
C17 C -0.0316(6) 0.2957(3) 0.0193(4)
H9 H -0.0894 0.2491 0.0100
C18 C -0.0636(6) 0.3838(4) -0.0016(4)
H10 H -0.1427 0.3963 -0.0251
C19 C 0.0171(5) 0.4522(3) 0.0111(3)
C20 C 0.1285(6) 0.4327(4) 0.0463(5)
H11 H 0.1854 0.4797 0.0570
C21 C 0.1610(6) 0.3446(4) 0.0671(5)
H12 H 0.2398 0.3326 0.0914
O7 O 0.4136(3) 0.0397(2) 0.20213(17)
C22 C 0.5084(5) 0.0040(4) 0.1968(3)
H13 H 0.5244 -0.0018 0.1508
N1 N 0.5862(6) -0.0255(5) 0.2477(4)
C23 C 0.6957(8) -0.0696(8) 0.2366(7)
H14 H 0.6890 -0.1349 0.2423
H15 H 0.7636 -0.0468 0.2711
H16 H 0.7076 -0.0564 0.1889
C24 C 0.5648(11) -0.0216(12) 0.3202(5)
H17 H 0.5098 0.0278 0.3240
H18 H 0.6401 -0.0113 0.3531
H19 H 0.5302 -0.0787 0.3316
Cd1C Cd -0.5000 -0.5000 0.5000
Cd1_2 Cd 0.0000 1.0000 0.0000
Cd1C_2 Cd 0.5000 0.5000 -0.5000
Zn1B Zn -0.26799(5) -0.04379(3) -0.12524(2)
Zn1C Zn -0.23201(5) -0.54379(3) 0.62524(2)
Zn1B_2 Zn -0.26799(5) 0.95621(3) -0.12524(2)
Zn1A Zn 0.23201(5) 0.54379(3) -0.62524(2)
O1B O -0.1676(3) 0.0171(2) -0.17963(17)
O2B O -0.0582(3) 0.0902(2) -0.08836(16)
O3B O 0.1674(3) 0.4725(2) -0.55708(17)
O3C O 0.3326(3) -0.0275(2) 0.05708(17)
O3A O -0.3326(3) 0.0275(2) -0.05708(17)
O4B O 0.3238(3) 0.5063(2) -0.47489(18)
O4C O 0.1762(3) 0.0063(2) -0.02511(18)
O4A O -0.1762(3) -0.0063(2) 0.02511(18)
O5B O -0.2251(3) 0.8327(2) -0.10003(18)
O5B_2 O -0.2251(3) -0.1673(2) -0.10003(18)
O6B O -0.0380(3) 0.8782(2) -0.06585(17)
O6B_2 O -0.0380(3) -0.1218(2) -0.06585(17)
C1B C -0.0889(4) 0.0741(3) -0.1522(2)
C2B C -0.0362(4) 0.1293(3) -0.2032(2)
C3B C -0.0701(5) 0.1155(3) -0.2750(3)
H1B H -0.1248 0.0687 -0.2922
C4B C -0.0259(5) 0.1683(4) -0.3212(3)
H2B H -0.0512 0.1581 -0.3703
C5B C 0.0546(4) 0.2363(3) -0.2986(2)
C6B C 0.0910(5) 0.2487(4) -0.2267(3)
H3B H 0.1471 0.2946 -0.2096
C7B C 0.0467(5) 0.1950(4) -0.1793(3)
H4B H 0.0736 0.2036 -0.1302
C8B C 0.1000(5) 0.2951(3) -0.3494(2)
C9B C 0.0242(4) 0.3230(3) -0.4110(2)
H5B H -0.0564 0.3042 -0.4203
C10B C 0.0650(4) 0.3780(3) -0.4590(2)
H6B H 0.0127 0.3962 -0.5011
C11B C 0.1828(4) 0.4064(3) -0.4453(2)
C12B C 0.2576(5) 0.3791(4) -0.3839(3)
H7B H 0.3380 0.3985 -0.3742
C13B C 0.2165(5) 0.3238(4) -0.3362(3)
H8B H 0.2690 0.3056 -0.2943
C14B C 0.2297(4) 0.4658(3) -0.4959(2)
C15B C -0.1162(5) 0.8192(3) -0.0735(2)
C16B C -0.0818(5) 0.7245(3) -0.0531(3)
C17B C 0.0316(6) 0.7043(3) -0.0193(4)
H9B H 0.0894 0.7509 -0.0100
C18B C 0.0636(6) 0.6162(4) 0.0016(4)
H10B H 0.1427 0.6037 0.0251
C19B C -0.0171(5) 0.5478(3) -0.0111(3)
C20B C -0.1285(6) 0.5673(4) -0.0463(5)
H11B H -0.1854 0.5203 -0.0570
C21B C -0.1610(6) 0.6554(4) -0.0671(5)
H12B H -0.2398 0.6674 -0.0914
O7B O -0.4136(3) -0.0397(2) -0.20213(17)
C22B C -0.5084(5) -0.0040(4) -0.1968(3)
H13B H -0.5244 0.0018 -0.1508
N1B N -0.5862(6) 0.0255(5) -0.2477(4)
C23B C -0.6957(8) 0.0696(8) -0.2366(7)
H14B H -0.6890 0.1349 -0.2423
H15B H -0.7636 0.0468 -0.2711
H16B H -0.7076 0.0564 -0.1889
C24B C -0.5648(11) 0.0216(12) -0.3202(5)
H17B H -0.5098 -0.0278 -0.3240
H18B H -0.6401 0.0113 -0.3531
H19B H -0.5302 0.0787 -0.3316
O8 O 0.3739(13) -0.4465(14) 0.0574(13)
C25 C 0.4490(18) -0.3833(18) 0.0424(12)
H20 H 0.4195 -0.3386 0.0082
N2 N 0.5526(19) -0.3814(11) 0.0708(8)
C26 C 0.6349(15) -0.3142(16) 0.0678(9)
H21 H 0.6122 -0.2811 0.0234
H22 H 0.7135 -0.3413 0.0705
H23 H 0.6374 -0.2727 0.1074
C27 C 0.580(4) -0.4580(18) 0.1146(17)
H24 H 0.6283 -0.5000 0.0930
H25 H 0.5065 -0.4878 0.1201
H26 H 0.6248 -0.4393 0.1608
O9 O 0.5460(10) -0.2856(11) 0.2208(7)
C28 C 0.4493(11) -0.3228(11) 0.2306(8)
H27 H 0.4510 -0.3736 0.2606
N3 N 0.3506(6) -0.2887(4) 0.1985(4)
C29 C 0.2417(10) -0.3341(8) 0.2046(6)
H28 H 0.2213 -0.3191 0.2500
H29 H 0.2525 -0.3994 0.2016
H30 H 0.1774 -0.3145 0.1663
C30 C 0.3441(17) -0.2120(9) 0.1574(12)
H31 H 0.3047 -0.1639 0.1786
H32 H 0.2987 -0.2252 0.1101
H33 H 0.4245 -0.1927 0.1543
loop_
_geom_bond_atom_site_label_1
_geom_bond_atom_site_label_2
_geom_bond_site_symmetry_1
_geom_bond_site_symmetry_2
Cd1 O2 1_555 1_555
Zn1 O1 1_555 1_555
O1 C1 1_555 1_555
O2 C1 1_555 1_555
O3 C14 1_555 1_555
O4 C14 1_555 1_555
O5 Zn1 1_555 1_555
O6 Cd1 1_555 1_555
C1 C2 1_555 1_555
C2 C3 1_555 1_555
C3 H1 1_555 1_555
C4 C3 1_555 1_555
H2 C4 1_555 1_555
C5 C4 1_555 1_555
C6 C5 1_555 1_555
H3 C6 1_555 1_555
C7 C2 1_555 1_555
H4 C7 1_555 1_555
C8 C5 1_555 1_555
C9 C8 1_555 1_555
H5 C9 1_555 1_555
C10 C9 1_555 1_555
H6 C10 1_555 1_555
C11 C10 1_555 1_555
C12 C11 1_555 1_555
H7 C12 1_555 1_555
C13 C8 1_555 1_555
H8 C13 1_555 1_555
C14 C11 1_555 1_555
C15 O5 1_555 1_555
C16 C15 1_555 1_555
C17 C16 1_555 1_555
H9 C17 1_555 1_555
C18 C17 1_555 1_555
H10 C18 1_555 1_555
C19 C18 1_555 1_555
C20 C19 1_555 1_555
H11 C20 1_555 1_555
C21 C16 1_555 1_555
H12 C21 1_555 1_555
O7 Zn1 1_555 1_555
C22 O7 1_555 1_555
H13 C22 1_555 1_555
N1 C22 1_555 1_555
C23 N1 1_555 1_555
H14 C23 1_555 1_555
H15 C23 1_555 1_555
H16 C23 1_555 1_555
C24 N1 1_555 1_555
H17 C24 1_555 1_555
H18 C24 1_555 1_555
H19 C24 1_555 1_555
O8 C25 1_555 1_555
C25 H20 1_555 1_555
N2 C25 1_555 1_555
C26 N2 1_555 1_555
H21 C26 1_555 1_555
H22 C26 1_555 1_555
H23 C26 1_555 1_555
C27 N2 1_555 1_555
H24 C27 1_555 1_555
H25 C27 1_555 1_555
H26 C27 1_555 1_555
O9 C28 1_555 1_555
C28 H27 1_555 1_555
N3 C28 1_555 1_555
C29 N3 1_555 1_555
H28 C29 1_555 1_555
H29 C29 1_555 1_555
H30 C29 1_555 1_555
C30 N3 1_555 1_555
H31 C30 1_555 1_555
H32 C30 1_555 1_555
H33 C30 1_555 1_555
Cd1C O4 1_555 1_555
Cd1_2 O6B 1_555 1_555
Cd1C_2 O4B 1_555 1_555
Zn1B O1B 1_555 1_555
Zn1C O3 1_555 1_555
Zn1B_2 O5B 1_555 1_555
Zn1A O3B 1_555 1_555
O1B C1B 1_555 1_555
O2B Cd1 1_555 1_555
O3B C14B 1_555 1_555
O3C Zn1 1_555 1_555
O3A Zn1B 1_555 1_555
O4B C14B 1_555 1_555
O4C Cd1 1_555 1_555
O4A Cd1 1_555 1_555
O5B C15B 1_555 1_555
O5B_2 Zn1B 1_555 1_555
O6B C15B 1_555 1_555
O6B_2 Cd1 1_555 1_555
C1B O2B 1_555 1_555
C2B C1B 1_555 1_555
C3B C2B 1_555 1_555
H1B C3B 1_555 1_555
C4B C3B 1_555 1_555
H2B C4B 1_555 1_555
C5B C4B 1_555 1_555
C6B C5B 1_555 1_555
H3B C6B 1_555 1_555
C7B C2B 1_555 1_555
H4B C7B 1_555 1_555
C8B C5B 1_555 1_555
C9B C8B 1_555 1_555
H5B C9B 1_555 1_555
C10B C9B 1_555 1_555
H6B C10B 1_555 1_555
C11B C10B 1_555 1_555
C12B C11B 1_555 1_555
H7B C12B 1_555 1_555
C13B C8B 1_555 1_555
H8B C13B 1_555 1_555
C14B C11B 1_555 1_555
C15B C16B 1_555 1_555
C16B C17B 1_555 1_555
C17B H9B 1_555 1_555
C18B C17B 1_555 1_555
H10B C18B 1_555 1_555
C19B C19 1_555 1_555
C20B C19B 1_555 1_555
H11B C20B 1_555 1_555
C21B C16B 1_555 1_555
H12B C21B 1_555 1_555
O7B Zn1B 1_555 1_555
C22B O7B 1_555 1_555
H13B C22B 1_555 1_555
N1B C22B 1_555 1_555
C23B N1B 1_555 1_555
H14B C23B 1_555 1_555
H15B C23B 1_555 1_555
H16B C23B 1_555 1_555
C24B N1B 1_555 1_555
H17B C24B 1_555 1_555
H18B C24B 1_555 1_555
H19B C24B 1_555 1_555
O6 C15 1_555 1_555
C6 C7 1_555 1_555
C12 C13 1_555 1_555
C20 C21 1_555 1_555
C6B C7B 1_555 1_555
C12B C13B 1_555 1_555
C18B C19B 1_555 1_555
C20B C21B 1_555 1_555

#END
