
#######################################################################
#
#                 Cambridge Crystallographic Data Centre
#                                CCDC 
#
#######################################################################
#
# If this CIF has been generated from an entry in the Cambridge 
# Structural Database, then it will include bibliographic, chemical, 
# crystal, experimental, refinement or atomic coordinate data resulting 
# from the CCDC's data processing and validation procedures.
#
#######################################################################

data_JEVTIN
_symmetry_cell_setting           triclinic
_symmetry_space_group_name_H-M   'P -1'
_symmetry_Int_Tables_number      2
_space_group_name_Hall           '-P 1'
loop_
_symmetry_equiv_pos_site_id
_symmetry_equiv_pos_as_xyz
1 x,y,z
2 -x,-y,-z
_cell_length_a                   11.123(3)
_cell_length_b                   16.564(5)
_cell_length_c                   8.653(3)
_cell_angle_alpha                95.16(3)
_cell_angle_beta                 95.63(3)
_cell_angle_gamma                74.71(2)
_cell_volume                     1526.98
loop_
_atom_site_label
_atom_site_type_symbol
_atom_site_fract_x
_atom_site_fract_y
_atom_site_fract_z
La1 La 0.0986(1) 0.1092(1) 0.0164(1)
La2 La -0.0051(1) 0.3646(1) -0.1068(1)
Cl1 Cl -0.0905(1) 0.2672(1) 0.1092(1)
Cl2 Cl 0.0029(1) 0.2035(1) -0.2587(1)
Cl3 Cl 0.2104(1) 0.2507(1) 0.0444(1)
Cl4 Cl 0.1278(1) -0.0642(1) 0.0848(1)
Cl5 Cl 0.2706(1) 0.0261(1) -0.1876(1)
Cl6 Cl -0.2677(1) 0.4139(1) -0.1365(1)
Cl7 Cl 0.0404(1) 0.4601(1) 0.1739(1)
Li1 Li -0.2981(7) 0.3046(4) -0.0045(8)
O1 O -0.3845(3) 0.2392(2) -0.1458(3)
C1 C -0.3479(4) 0.2146(3) -0.3032(5)
C2 C -0.4162(4) 0.1481(3) -0.3647(5)
C3 C -0.5298(4) 0.1699(3) -0.2721(5)
C4 C -0.4740(4) 0.1943(3) -0.1131(5)
O2 O -0.3982(3) 0.3351(2) 0.1729(4)
C5 C -0.4114(4) 0.2753(3) 0.2760(5)
C6 C -0.5376(4) 0.3120(3) 0.3361(5)
C7 C -0.5466(6) 0.4053(3) 0.3509(7)
C8 C -0.4684(5) 0.4163(3) 0.2233(7)
O3 O 0.2913(2) 0.0743(2) 0.2212(3)
O4 O 0.0544(2) 0.1130(2) 0.3067(3)
C9 C 0.2691(4) 0.0979(2) 0.3818(4)
C10 C 0.1543(3) 0.0734(2) 0.4151(4)
C11 C 0.4150(4) 0.0758(3) 0.1892(5)
C12 C -0.0624(4) 0.0992(3) 0.3429(4)
O5 O -0.0400(3) 0.3764(2) -0.4108(3)
O6 O 0.1855(3) 0.3706(2) -0.2505(3)
C13 C 0.0710(5) 0.3443(2) -0.4886(4)
C14 C 0.1673(4) 0.3879(3) -0.4111(5)
C15 C -0.1459(5) 0.3591(3) -0.5024(5)
C16 C 0.2794(4) 0.4074(3) -0.1673(6)
Cl4A Cl -0.1278(1) 0.0642(1) -0.0848(1)
Cl7A Cl -0.0404(1) 0.5399(1) -0.1739(1)
La1A La -0.0986(1) -0.1092(1) -0.0164(1)
La2A La 0.0051(1) 0.6354(1) 0.1068(1)
loop_
_geom_bond_atom_site_label_1
_geom_bond_atom_site_label_2
_geom_bond_site_symmetry_1
_geom_bond_site_symmetry_2
La1 Cl1 1_555 1_555
La2 Cl1 1_555 1_555
Cl1 Li1 1_555 1_555
Cl2 La1 1_555 1_555
Cl3 La1 1_555 1_555
Cl4 La1 1_555 1_555
Cl5 La1 1_555 1_555
Cl6 La2 1_555 1_555
Cl7 La2 1_555 1_555
Li1 Cl6 1_555 1_555
O1 Li1 1_555 1_555
C1 O1 1_555 1_555
C2 C1 1_555 1_555
C3 C2 1_555 1_555
C4 O1 1_555 1_555
O2 Li1 1_555 1_555
C5 O2 1_555 1_555
C6 C5 1_555 1_555
C7 C6 1_555 1_555
C8 O2 1_555 1_555
O3 La1 1_555 1_555
O4 La1 1_555 1_555
C9 O3 1_555 1_555
C10 O4 1_555 1_555
C11 O3 1_555 1_555
C12 O4 1_555 1_555
O5 La2 1_555 1_555
O6 La2 1_555 1_555
C13 O5 1_555 1_555
C14 O6 1_555 1_555
C15 O5 1_555 1_555
C16 O6 1_555 1_555
Cl4A La1 1_555 1_555
Cl7A La2 1_555 1_555
La1A Cl4 1_555 1_555
La2A Cl7 1_555 1_555
La2 Cl2 1_555 1_555
La2 Cl3 1_555 1_555
C3 C4 1_555 1_555
C7 C8 1_555 1_555
C9 C10 1_555 1_555
C13 C14 1_555 1_555
Cl4A La1A 1_555 1_555
Cl7A La2A 1_555 1_555

#END
