
#######################################################################
#
#                 Cambridge Crystallographic Data Centre
#                                CCDC 
#
#######################################################################
#
# If this CIF has been generated from an entry in the Cambridge 
# Structural Database, then it will include bibliographic, chemical, 
# crystal, experimental, refinement or atomic coordinate data resulting 
# from the CCDC's data processing and validation procedures.
#
#######################################################################

data_JEVWEM01
_symmetry_cell_setting           monoclinic
_symmetry_space_group_name_H-M   'P 21/c'
_symmetry_Int_Tables_number      14
_space_group_name_Hall           '-P 2ybc'
loop_
_symmetry_equiv_pos_site_id
_symmetry_equiv_pos_as_xyz
1 x,y,z
2 -x,1/2+y,1/2-z
3 -x,-y,-z
4 x,1/2-y,1/2+z
_cell_length_a                   7.466(1)
_cell_length_b                   9.435(2)
_cell_length_c                   15.667(3)
_cell_angle_alpha                90
_cell_angle_beta                 94.68(1)
_cell_angle_gamma                90
_cell_volume                     1099.93
loop_
_atom_site_label
_atom_site_type_symbol
_atom_site_fract_x
_atom_site_fract_y
_atom_site_fract_z
Cd1 Cd 0.2513(2) 0.4682(2) 0.4772(1)
I1 I 0.0719(2) 0.3667(2) 0.6104(1)
S1 S 0.3190(8) 0.3637(8) 0.3361(4)
S2 S 0.5688(8) 0.3023(6) 0.4909(3)
C1 C 0.530(3) 0.304(2) 0.380(1)
N1 N 0.651(2) 0.263(2) 0.331(1)
C2 C 0.831(3) 0.212(3) 0.365(2)
C3 C 0.819(5) 0.050(3) 0.383(3)
C4 C 0.623(4) 0.261(3) 0.237(2)
C5 C 0.681(5) 0.402(3) 0.198(2)
I1B I -0.0719(2) 0.6333(2) 0.3896(1)
S2B S 0.4312(8) 0.6977(6) 0.5091(3)
Cd1B Cd -0.2513(2) 0.5318(2) 0.5228(1)
Cd1B_2 Cd 0.7487(2) 0.5318(2) 0.5228(1)
C1B C 0.470(3) 0.696(2) 0.620(1)
S1B S 0.6810(8) 0.6363(8) 0.6639(4)
N1B N 0.349(2) 0.737(2) 0.669(1)
C2B C 0.169(3) 0.788(3) 0.635(2)
C4B C 0.377(4) 0.739(3) 0.763(2)
C3B C 0.181(5) 0.950(3) 0.617(3)
C5B C 0.319(5) 0.598(3) 0.802(2)
I1_2 I 1.0719(2) 0.3667(2) 0.6104(1)
I1B_2 I 0.9281(2) 0.6333(2) 0.3896(1)
loop_
_geom_bond_atom_site_label_1
_geom_bond_atom_site_label_2
_geom_bond_site_symmetry_1
_geom_bond_site_symmetry_2
Cd1 I1 1_555 1_555
I1 Cd1B 1_555 1_555
S1 Cd1 1_555 1_555
S2 Cd1 1_555 1_555
C1 S1 1_555 1_555
N1 C1 1_555 1_555
C2 N1 1_555 1_555
C3 C2 1_555 1_555
C4 N1 1_555 1_555
C5 C4 1_555 1_555
I1B Cd1 1_555 1_555
S2B Cd1 1_555 1_555
Cd1B I1B 1_555 1_555
Cd1B_2 S2 1_555 1_555
C1B S2B 1_555 1_555
S1B Cd1B_2 1_555 1_555
N1B C1B 1_555 1_555
C2B N1B 1_555 1_555
C4B N1B 1_555 1_555
C3B C2B 1_555 1_555
C5B C4B 1_555 1_555
I1_2 Cd1B_2 1_555 1_555
I1B_2 Cd1B_2 1_555 1_555
S2 C1 1_555 1_555
S2B Cd1B_2 1_555 1_555
C1B S1B 1_555 1_555

#END
