
#######################################################################
#
#                 Cambridge Crystallographic Data Centre
#                                CCDC 
#
#######################################################################
#
# If this CIF has been generated from an entry in the Cambridge 
# Structural Database, then it will include bibliographic, chemical, 
# crystal, experimental, refinement or atomic coordinate data resulting 
# from the CCDC's data processing and validation procedures.
#
#######################################################################

data_JEVZUG
_symmetry_cell_setting           monoclinic
_symmetry_space_group_name_H-M   'P 21/c'
_symmetry_Int_Tables_number      14
_space_group_name_Hall           '-P 2ybc'
loop_
_symmetry_equiv_pos_site_id
_symmetry_equiv_pos_as_xyz
1 x,y,z
2 -x,1/2+y,1/2-z
3 -x,-y,-z
4 x,1/2-y,1/2+z
_cell_length_a                   5.1510(6)
_cell_length_b                   15.0236(16)
_cell_length_c                   9.5778(11)
_cell_angle_alpha                90
_cell_angle_beta                 117.191(2)
_cell_angle_gamma                90
_cell_volume                     659.282
loop_
_atom_site_label
_atom_site_type_symbol
_atom_site_fract_x
_atom_site_fract_y
_atom_site_fract_z
Co1 Co 0.26868(8) 0.70282(2) 0.48441(4)
P1 P -0.06988(15) 0.83562(5) 0.19694(8)
O1 O 0.1729(4) 0.80831(13) 0.3554(2)
O2 O -0.3323(4) 0.77406(13) 0.1448(2)
O3 O 0.0314(4) 0.84891(13) 0.0723(2)
N1 N -0.2736(5) 1.09957(15) 0.1544(3)
C1 C -0.1723(6) 1.01859(18) 0.1443(3)
H1 H -0.0844 1.0120 0.0790
C2 C -0.1908(6) 0.94438(18) 0.2251(3)
C3 C -0.3191(7) 0.9562(2) 0.3249(4)
H2 H -0.3363 0.9086 0.3821
C4 C -0.4202(7) 1.0398(2) 0.3372(4)
H3 H -0.5038 1.0489 0.4040
C5 C -0.3961(7) 1.10935(19) 0.2500(3)
H4 H -0.4676 1.1650 0.2580
Co1C Co -0.73132(8) 0.79718(2) -0.01559(4)
Co1C_2 Co 0.26868(8) 0.79718(2) -0.01559(4)
Co1A Co -0.26868(8) 1.20282(2) 0.01559(4)
O2C O 0.6677(4) 0.72594(13) 0.6448(2)
O3C O 0.0314(4) 0.65109(13) 0.5723(2)
N1A N 0.2736(5) 0.59957(15) 0.3456(3)
loop_
_geom_bond_atom_site_label_1
_geom_bond_atom_site_label_2
_geom_bond_site_symmetry_1
_geom_bond_site_symmetry_2
Co1 O1 1_555 1_555
P1 O1 1_555 1_555
O2 P1 1_555 1_555
O3 P1 1_555 1_555
N1 C1 1_555 1_555
C1 H1 1_555 1_555
C2 P1 1_555 1_555
C3 C2 1_555 1_555
H2 C3 1_555 1_555
C4 C3 1_555 1_555
H3 C4 1_555 1_555
C5 N1 1_555 1_555
H4 C5 1_555 1_555
Co1C O2 1_555 1_555
Co1C_2 O3 1_555 1_555
Co1A N1 1_555 1_555
O2C Co1 1_555 1_555
O3C Co1 1_555 1_555
N1A Co1 1_555 1_555
C1 C2 1_555 1_555
C4 C5 1_555 1_555

#END
