
#######################################################################
#
#                 Cambridge Crystallographic Data Centre
#                                CCDC 
#
#######################################################################
#
# If this CIF has been generated from an entry in the Cambridge 
# Structural Database, then it will include bibliographic, chemical, 
# crystal, experimental, refinement or atomic coordinate data resulting 
# from the CCDC's data processing and validation procedures.
#
#######################################################################

data_JEXMOO
_symmetry_cell_setting           triclinic
_symmetry_space_group_name_H-M   'P -1'
_symmetry_Int_Tables_number      2
_space_group_name_Hall           '-P 1'
loop_
_symmetry_equiv_pos_site_id
_symmetry_equiv_pos_as_xyz
1 x,y,z
2 -x,-y,-z
_cell_length_a                   6.798(2)
_cell_length_b                   7.674(2)
_cell_length_c                   9.429(3)
_cell_angle_alpha                79.44(2)
_cell_angle_beta                 78.10(2)
_cell_angle_gamma                79.47(2)
_cell_volume                     467.764
loop_
_atom_site_label
_atom_site_type_symbol
_atom_site_fract_x
_atom_site_fract_y
_atom_site_fract_z
Hg1 Hg 0.2043(1) 0.5203(1) 0.1278(1)
Cl1 Cl 0.1289(5) 0.2654(4) 0.0673(4)
Cl2 Cl 0.2232(6) 0.7711(5) 0.2217(5)
C1 C 0.3768(19) 0.9172(16) -0.1692(13)
C2 C 0.3306(18) 1.0800(14) -0.2504(13)
C3 C 0.2665(15) 1.0829(14) -0.3771(12)
C4 C 0.2541(18) 0.9289(15) -0.4262(12)
C5 C 0.2998(18) 0.7673(15) -0.3392(13)
N1 N 0.3670(13) 0.7639(12) -0.2128(11)
N2 N 0.2177(16) 1.2575(14) -0.4707(12)
O1 O 0.4096(13) 0.6053(12) -0.1354(11)
O2 O 0.1730(21) 1.2546(15) -0.5869(12)
O3 O 0.2350(24) 1.3896(13) -0.4324(17)
H1 H 0.4179 0.9127 -0.0770
H2 H 0.3430 1.1888 -0.2187
H3 H 0.2148 0.9332 -0.5190
H4 H 0.2837 0.6576 -0.3677
Hg1A Hg -0.2043(1) 0.4797(1) -0.1278(1)
Hg1A_2 Hg 0.7957(1) 0.4797(1) -0.1278(1)
Cl1A Cl -0.1289(5) 0.7346(4) -0.0673(4)
O1A O 0.5904(13) 0.3947(12) 0.1354(11)
O2_2 O 0.1730(21) 0.2546(15) 0.4131(12)
Hg1_2 Hg 0.2043(1) 1.5203(1) -0.8722(1)
loop_
_geom_bond_atom_site_label_1
_geom_bond_atom_site_label_2
_geom_bond_site_symmetry_1
_geom_bond_site_symmetry_2
Hg1 Cl1 1_555 1_555
Cl1 Hg1A 1_555 1_555
Cl2 Hg1 1_555 1_555
C1 C2 1_555 1_555
C2 C3 1_555 1_555
C3 C4 1_555 1_555
C4 C5 1_555 1_555
C5 N1 1_555 1_555
N1 C1 1_555 1_555
N2 C3 1_555 1_555
O1 Hg1 1_555 1_555
O2 N2 1_555 1_555
O3 N2 1_555 1_555
H1 C1 1_555 1_555
H2 C2 1_555 1_555
H3 C4 1_555 1_555
H4 C5 1_555 1_555
Hg1A Cl1A 1_555 1_555
Hg1A_2 O1 1_555 1_555
Cl1A Hg1 1_555 1_555
O1A Hg1 1_555 1_555
O2_2 Hg1 1_555 1_555
Hg1_2 O2 1_555 1_555
N1 O1 1_555 1_555
Hg1A_2 O1A 1_555 1_555

#END
