
#######################################################################
#
#                 Cambridge Crystallographic Data Centre
#                                CCDC 
#
#######################################################################
#
# If this CIF has been generated from an entry in the Cambridge 
# Structural Database, then it will include bibliographic, chemical, 
# crystal, experimental, refinement or atomic coordinate data resulting 
# from the CCDC's data processing and validation procedures.
#
#######################################################################

data_JEXNOQ
_symmetry_cell_setting           triclinic
_symmetry_space_group_name_H-M   'P -1'
_symmetry_Int_Tables_number      2
_space_group_name_Hall           '-P 1'
loop_
_symmetry_equiv_pos_site_id
_symmetry_equiv_pos_as_xyz
1 x,y,z
2 -x,-y,-z
_cell_length_a                   8.8772(3)
_cell_length_b                   8.9431(3)
_cell_length_c                   15.5173(4)
_cell_angle_alpha                100.030(2)
_cell_angle_beta                 90.082(2)
_cell_angle_gamma                112.987(2)
_cell_volume                     1113.48
loop_
_atom_site_label
_atom_site_type_symbol
_atom_site_fract_x
_atom_site_fract_y
_atom_site_fract_z
Co1 Co 0.34282(4) 0.87654(4) 0.62820(2)
N1 N 0.1290(3) 0.8023(3) 0.53413(13)
N2 N 0.1614(3) 0.7085(3) 0.68326(13)
N3 N -0.0917(3) 0.5161(3) 0.67335(14)
H1 H -0.1912 0.4548 0.6531
O1 O 0.3552(2) 1.1036(2) 0.65225(11)
O2 O 0.5816(2) 1.3136(2) 0.63337(11)
O3 O 0.5322(2) 0.9361(2) 0.72274(11)
O4 O 0.6956(3) 0.8308(3) 0.65015(11)
O5 O 0.4620(3) 0.7921(3) 0.53963(12)
C1 C 0.1182(4) 0.8613(4) 0.46149(18)
H2 H 0.2116 0.9432 0.4463
C2 C -0.0234(4) 0.8066(4) 0.4088(2)
H3 H -0.0262 0.8510 0.3592
C3 C -0.1624(4) 0.6843(4) 0.4305(2)
H4 H -0.2599 0.6440 0.3951
C4 C -0.1548(4) 0.6226(4) 0.50525(18)
H5 H -0.2468 0.5408 0.5215
C5 C -0.0077(3) 0.6851(3) 0.55512(16)
C6 C 0.0178(3) 0.6342(3) 0.63612(16)
C7 C -0.0159(3) 0.5108(3) 0.75012(17)
C8 C -0.0710(4) 0.4146(4) 0.8135(2)
H6 H -0.1759 0.3315 0.8083
C9 C 0.0374(5) 0.4483(5) 0.8843(2)
H7 H 0.0053 0.3860 0.9282
C10 C 0.1937(4) 0.5729(5) 0.8923(2)
H8 H 0.2614 0.5938 0.9425
C11 C 0.2524(4) 0.6667(4) 0.82874(18)
H9 H 0.3587 0.7473 0.8338
C12 C 0.1433(3) 0.6340(3) 0.75632(16)
C13 C 0.4733(3) 1.2398(3) 0.68037(15)
C14 C 0.4796(3) 1.3191(3) 0.77460(15)
C15 C 0.3919(5) 1.2272(4) 0.83323(19)
H10 H 0.3246 1.1162 0.8139
C16 C 0.4024(5) 1.2977(4) 0.92113(19)
H11 H 0.3436 1.2319 0.9599
C17 C 0.4969(3) 1.4619(3) 0.95271(15)
C18 C 0.5854(3) 1.5537(3) 0.89301(16)
H12 H 0.6529 1.6648 0.9121
C19 C 0.5752(3) 1.4831(3) 0.80527(16)
H13 H 0.6343 1.5482 0.7663
C20 C 0.6555(3) 0.8984(3) 0.71766(16)
C21 C 0.7609(3) 0.9381(3) 0.80134(15)
C22 C 0.7260(3) 1.0113(3) 0.88070(16)
H14 H 0.6381 1.0435 0.8824
C23 C 0.8195(3) 1.0372(3) 0.95748(15)
H15 H 0.7940 1.0878 1.0097
C24 C 0.9515(3) 0.9891(3) 0.95838(15)
C25 C 0.9854(4) 0.9178(4) 0.87837(16)
H16 H 1.0727 0.8848 0.8763
C26 C 0.8940(4) 0.8941(4) 0.80169(17)
H17 H 0.9223 0.8477 0.7491
H18 H 0.464(5) 0.777(5) 0.4870(13)
H19 H 0.544(3) 0.793(5) 0.565(2)
Co1A Co 0.65718(4) 2.12346(4) 1.37180(2)
Co1A_2 Co 1.65718(4) 1.12346(4) 1.37180(2)
N1A N 0.8710(3) 2.1977(3) 1.46587(13)
N2A N 0.8386(3) 2.2915(3) 1.31674(13)
N3A N 1.0917(3) 2.4839(3) 1.32665(14)
H1A H 1.1912 2.5452 1.3469
O1A O 0.6448(2) 1.8964(2) 1.34775(11)
O2A O 0.4184(2) 1.6864(2) 1.36663(11)
O3A O 1.4678(2) 1.0639(2) 1.27726(11)
O3A_2 O 0.4678(2) 2.0639(2) 1.27726(11)
O4A O 1.3044(3) 1.1692(3) 1.34985(11)
O5A O 0.5380(3) 2.2079(3) 1.46037(12)
C1A C 0.8818(4) 2.1387(4) 1.53851(18)
H2A H 0.7884 2.0568 1.5537
C2A C 1.0234(4) 2.1934(4) 1.5912(2)
H3A H 1.0262 2.1490 1.6408
C3A C 1.1624(4) 2.3157(4) 1.5695(2)
H4A H 1.2599 2.3560 1.6049
C4A C 1.1548(4) 2.3774(4) 1.49475(18)
H5A H 1.2468 2.4592 1.4785
C5A C 1.0077(3) 2.3149(3) 1.44488(16)
C6A C 0.9822(3) 2.3658(3) 1.36388(16)
C7A C 1.0159(3) 2.4892(3) 1.24988(17)
C8A C 1.0710(4) 2.5854(4) 1.1865(2)
H6A H 1.1759 2.6685 1.1917
C9A C 0.9626(5) 2.5517(5) 1.1157(2)
H7A H 0.9947 2.6140 1.0718
C10A C 0.8063(4) 2.4271(5) 1.1077(2)
H8A H 0.7386 2.4062 1.0575
C11A C 0.7476(4) 2.3333(4) 1.17126(18)
H9A H 0.6413 2.2527 1.1662
C12A C 0.8567(3) 2.3660(3) 1.24368(16)
C13A C 0.5267(3) 1.7602(3) 1.31963(15)
C14A C 0.5204(3) 1.6809(3) 1.22540(15)
C15A C 0.6081(5) 1.7728(4) 1.16677(19)
H10A H 0.6754 1.8838 1.1861
C16A C 0.5976(5) 1.7023(4) 1.07887(19)
H11A H 0.6564 1.7681 1.0401
C17A C 0.5031(3) 1.5381(3) 1.04729(15)
C18A C 0.4146(3) 1.4463(3) 1.10699(16)
H12A H 0.3471 1.3352 1.0879
C19A C 0.4248(3) 1.5169(3) 1.19473(16)
H13A H 0.3657 1.4518 1.2337
C20A C 1.3445(3) 1.1016(3) 1.28234(16)
C21A C 1.2391(3) 1.0619(3) 1.19866(15)
C22A C 1.2740(3) 0.9887(3) 1.11930(16)
H14A H 1.3619 0.9565 1.1176
C23A C 1.1805(3) 0.9628(3) 1.04252(15)
H15A H 1.2060 0.9122 0.9903
C24A C 1.0485(3) 1.0109(3) 1.04162(15)
C25A C 1.0146(4) 1.0822(4) 1.12163(16)
H16A H 0.9273 1.1152 1.1237
C26A C 1.1060(4) 1.1059(4) 1.19831(17)
H17A H 1.0777 1.1523 1.2509
H18A H 0.536(5) 2.223(5) 1.5130(13)
H19A H 0.456(3) 2.207(5) 1.435(2)
loop_
_geom_bond_atom_site_label_1
_geom_bond_atom_site_label_2
_geom_bond_site_symmetry_1
_geom_bond_site_symmetry_2
Co1 N1 1_555 1_555
N1 C1 1_555 1_555
N2 Co1 1_555 1_555
N3 H1 1_555 1_555
O1 Co1 1_555 1_555
O2 C13 1_555 1_555
O3 Co1 1_555 1_555
O4 C20 1_555 1_555
O5 Co1 1_555 1_555
C1 H2 1_555 1_555
C2 C1 1_555 1_555
H3 C2 1_555 1_555
C3 C2 1_555 1_555
H4 C3 1_555 1_555
C4 C3 1_555 1_555
H5 C4 1_555 1_555
C5 N1 1_555 1_555
C6 N2 1_555 1_555
C7 N3 1_555 1_555
C8 C7 1_555 1_555
H6 C8 1_555 1_555
C9 C8 1_555 1_555
H7 C9 1_555 1_555
C10 C9 1_555 1_555
H8 C10 1_555 1_555
C11 C10 1_555 1_555
H9 C11 1_555 1_555
C12 N2 1_555 1_555
C13 O1 1_555 1_555
C14 C13 1_555 1_555
C15 C14 1_555 1_555
H10 C15 1_555 1_555
C16 C15 1_555 1_555
H11 C16 1_555 1_555
C17 C16 1_555 1_555
C18 C17 1_555 1_555
H12 C18 1_555 1_555
C19 C14 1_555 1_555
H13 C19 1_555 1_555
C20 O3 1_555 1_555
C21 C20 1_555 1_555
C22 C21 1_555 1_555
H14 C22 1_555 1_555
C23 C22 1_555 1_555
H15 C23 1_555 1_555
C24 C23 1_555 1_555
C25 C24 1_555 1_555
H16 C25 1_555 1_555
C26 C21 1_555 1_555
H17 C26 1_555 1_555
H18 O5 1_555 1_555
H19 O5 1_555 1_555
Co1A N1A 1_555 1_555
Co1A_2 O3A 1_555 1_555
N1A C1A 1_555 1_555
N2A Co1A 1_555 1_555
N3A H1A 1_555 1_555
O1A Co1A 1_555 1_555
O2A C13A 1_555 1_555
O3A C20A 1_555 1_555
O3A_2 Co1A 1_555 1_555
O4A C20A 1_555 1_555
O5A Co1A 1_555 1_555
C1A H2A 1_555 1_555
C2A C1A 1_555 1_555
H3A C2A 1_555 1_555
C3A C2A 1_555 1_555
H4A C3A 1_555 1_555
C4A C3A 1_555 1_555
H5A C4A 1_555 1_555
C5A N1A 1_555 1_555
C6A N2A 1_555 1_555
C7A N3A 1_555 1_555
C8A C7A 1_555 1_555
H6A C8A 1_555 1_555
C9A C8A 1_555 1_555
H7A C9A 1_555 1_555
C10A C9A 1_555 1_555
H8A C10A 1_555 1_555
C11A C10A 1_555 1_555
H9A C11A 1_555 1_555
C12A N2A 1_555 1_555
C13A O1A 1_555 1_555
C14A C13A 1_555 1_555
C15A C14A 1_555 1_555
H10A C15A 1_555 1_555
C16A C15A 1_555 1_555
H11A C16A 1_555 1_555
C17A C17 1_555 1_555
C18A C17A 1_555 1_555
H12A C18A 1_555 1_555
C19A C14A 1_555 1_555
H13A C19A 1_555 1_555
C20A C21A 1_555 1_555
C21A C22A 1_555 1_555
C22A H14A 1_555 1_555
C23A C22A 1_555 1_555
H15A C23A 1_555 1_555
C24A C24 1_555 1_555
C25A C24A 1_555 1_555
H16A C25A 1_555 1_555
C26A C21A 1_555 1_555
H17A C26A 1_555 1_555
H18A O5A 1_555 1_555
H19A O5A 1_555 1_555
N3 C6 1_555 1_555
C4 C5 1_555 1_555
C5 C6 1_555 1_555
C7 C12 1_555 1_555
C11 C12 1_555 1_555
C18 C19 1_555 1_555
C25 C26 1_555 1_555
N3A C6A 1_555 1_555
C4A C5A 1_555 1_555
C5A C6A 1_555 1_555
C7A C12A 1_555 1_555
C11A C12A 1_555 1_555
C16A C17A 1_555 1_555
C18A C19A 1_555 1_555
C23A C24A 1_555 1_555
C25A C26A 1_555 1_555

#END
