
#######################################################################
#
#                 Cambridge Crystallographic Data Centre
#                                CCDC 
#
#######################################################################
#
# If this CIF has been generated from an entry in the Cambridge 
# Structural Database, then it will include bibliographic, chemical, 
# crystal, experimental, refinement or atomic coordinate data resulting 
# from the CCDC's data processing and validation procedures.
#
#######################################################################

data_JEXPUY
_symmetry_cell_setting           monoclinic
_symmetry_space_group_name_H-M   'P 21/n'
_symmetry_Int_Tables_number      14
_space_group_name_Hall           '-P 2yn'
loop_
_symmetry_equiv_pos_site_id
_symmetry_equiv_pos_as_xyz
1 x,y,z
2 1/2-x,1/2+y,1/2-z
3 -x,-y,-z
4 1/2+x,1/2-y,1/2+z
_cell_length_a                   5.6500(11)
_cell_length_b                   4.7800(10)
_cell_length_c                   15.330(3)
_cell_angle_alpha                90
_cell_angle_beta                 98.50(3)
_cell_angle_gamma                90
_cell_volume                     409.47
loop_
_atom_site_label
_atom_site_type_symbol
_atom_site_fract_x
_atom_site_fract_y
_atom_site_fract_z
Co1 Co -0.0060(2) 0.1016(3) 0.23668(8)
P1 P 0.0446(4) 0.5355(5) 0.35928(16)
O1 O 0.2416(11) 0.3913(13) 0.3152(4)
O2 O -0.1893(11) 0.3942(14) 0.3171(4)
O3 O 0.0373(11) 0.8489(14) 0.3488(4)
O4 O -0.0461(12) 0.3973(16) 0.1315(5)
H1 H -0.142(16) 0.523(18) 0.143(8)
H2 H 0.069(14) 0.512(19) 0.140(8)
C1 C 0.0978(18) 0.448(2) 0.4744(7)
H3 H 0.108(19) 0.261(6) 0.481(7)
H4 H 0.243(9) 0.51(2) 0.499(6)
Co1B Co 0.0060(2) 0.8984(3) 0.76332(8)
Co1A Co 0.5060(2) 0.6016(3) 0.26332(8)
Co1A_2 Co -0.4940(2) 0.6016(3) 0.26332(8)
Co1_2 Co -0.0060(2) 1.1016(3) 0.23668(8)
Co1C Co -0.5060(2) 0.3984(3) 0.73668(8)
Co1C_2 Co 0.4940(2) 0.3984(3) 0.73668(8)
Co1B_2 Co 0.0060(2) -0.1016(3) 0.76332(8)
P1B P -0.0446(4) 0.4645(5) 0.64072(16)
O1B O -0.2416(11) 0.6087(13) 0.6848(4)
O1A O 0.2584(11) -0.1087(13) 0.1848(4)
O1C O -0.2584(11) 1.1087(13) 0.8152(4)
O2B O 0.1893(11) 0.6058(14) 0.6829(4)
O2A O -0.3107(11) -0.1058(14) 0.1829(4)
O2C O 0.3107(11) 1.1058(14) 0.8171(4)
O3B O -0.0373(11) 0.1511(14) 0.6512(4)
O3_2 O 0.0373(11) -0.1511(14) 0.3488(4)
O3B_2 O -0.0373(11) 1.1511(14) 0.6512(4)
O4B O 0.0461(12) 0.6027(16) 0.8685(5)
H1B H 0.142(16) 0.477(18) 0.857(8)
H2B H -0.069(14) 0.488(19) 0.860(8)
C1B C -0.0978(18) 0.552(2) 0.5256(7)
H3B H -0.108(19) 0.739(6) 0.519(7)
H4B H -0.243(9) 0.49(2) 0.501(6)
loop_
_geom_bond_atom_site_label_1
_geom_bond_atom_site_label_2
_geom_bond_site_symmetry_1
_geom_bond_site_symmetry_2
Co1 O1 1_555 1_555
P1 O1 1_555 1_555
O1 Co1A 1_555 1_555
O2 Co1 1_555 1_555
O3 P1 1_555 1_555
O4 Co1 1_555 1_555
H1 O4 1_555 1_555
H2 O4 1_555 1_555
C1 P1 1_555 1_555
H3 C1 1_555 1_555
H4 C1 1_555 1_555
Co1B O1B 1_555 1_555
Co1A_2 O2 1_555 1_555
Co1_2 O3 1_555 1_555
Co1C O1B 1_555 1_555
Co1C_2 O2B 1_555 1_555
Co1B_2 O3B 1_555 1_555
P1B O1B 1_555 1_555
O1A Co1 1_555 1_555
O1C Co1B 1_555 1_555
O2B Co1B 1_555 1_555
O2A Co1 1_555 1_555
O2C Co1B 1_555 1_555
O3B P1B 1_555 1_555
O3_2 Co1 1_555 1_555
O3B_2 Co1B 1_555 1_555
O4B Co1B 1_555 1_555
H1B O4B 1_555 1_555
H2B O4B 1_555 1_555
C1B C1 1_555 1_555
H3B C1B 1_555 1_555
H4B C1B 1_555 1_555
P1 O2 1_555 1_555
P1B O2B 1_555 1_555
P1B C1B 1_555 1_555

#END
