
#######################################################################
#
#                 Cambridge Crystallographic Data Centre
#                                CCDC 
#
#######################################################################
#
# If this CIF has been generated from an entry in the Cambridge 
# Structural Database, then it will include bibliographic, chemical, 
# crystal, experimental, refinement or atomic coordinate data resulting 
# from the CCDC's data processing and validation procedures.
#
#######################################################################

data_JEXTAH
_symmetry_cell_setting           monoclinic
_symmetry_space_group_name_H-M   'P 21/c'
_symmetry_Int_Tables_number      14
_space_group_name_Hall           '-P 2ybc'
loop_
_symmetry_equiv_pos_site_id
_symmetry_equiv_pos_as_xyz
1 x,y,z
2 -x,1/2+y,1/2-z
3 -x,-y,-z
4 x,1/2-y,1/2+z
_cell_length_a                   14.922(7)
_cell_length_b                   9.305(4)
_cell_length_c                   16.140(7)
_cell_angle_alpha                90
_cell_angle_beta                 114.50(3)
_cell_angle_gamma                90
_cell_volume                     2039.25
loop_
_atom_site_label
_atom_site_type_symbol
_atom_site_fract_x
_atom_site_fract_y
_atom_site_fract_z
Ni1 Ni -0.1998(1) 0.0333(1) 0.2079(1)
N1 N -0.2993(3) -0.0469(5) 0.0916(3)
C1 C -0.2855(4) -0.0277(6) 0.0152(4)
C2 C -0.3531(4) -0.0827(6) -0.0671(4)
C3 C -0.4330(4) -0.1591(7) -0.0659(4)
C4 C -0.4466(4) -0.1781(7) 0.0134(4)
C5 C -0.3766(4) -0.1187(6) 0.0928(4)
C6 C -0.3762(4) -0.1238(6) 0.1856(4)
C7 C -0.4634(4) -0.1868(7) 0.1968(4)
N2 N -0.2994(3) -0.0715(5) 0.2498(3)
C8 C -0.2882(4) -0.0725(6) 0.3446(4)
C9 C -0.3281(5) 0.0625(7) 0.3686(4)
C10 C -0.3042(5) 0.0694(7) 0.4698(4)
O1 O -0.3391(3) 0.2009(5) 0.4876(3)
O2 O 0.1156(3) 0.3360(4) 0.2754(2)
C11 C 0.1246(4) 0.2160(7) 0.2219(4)
C12 C 0.0363(4) 0.1153(7) 0.1921(4)
C13 C -0.0587(4) 0.1959(7) 0.1374(4)
N3 N -0.1449(3) 0.1001(5) 0.1119(3)
C14 C -0.1945(4) 0.0581(6) 0.0304(4)
C15 C -0.1719(4) 0.0848(7) -0.0513(4)
N4 N -0.27477 0.2252(5) 0.1922(3)
C16 C -0.3166(4) 0.3320(7) 0.1915(4)
S1 S -0.3775(1) 0.4793(2) 0.1869(1)
N5 N -0.0939(3) 0.0988(5) 0.3275(3)
C17 C -0.0223(4) 0.1493(7) 0.3808(4)
S2 S 0.0781(1) 0.2259(2) 0.4535(1)
H1 H -0.3448 -0.0689 -0.1225
H2 H -0.4802 -0.1994 -0.1217
H3 H -0.5020 -0.2306 0.0134
H4 H -0.5112 -0.2188 0.1387
H5 H -0.4924 -0.1153 0.2209
H6 H -0.4421 -0.2669 0.2379
H7 H -0.3234 -0.1536 0.3530
H8 H -0.2196 -0.0812 0.3842
H9 H -0.2997 0.1443 0.3523
H10 H -0.3984 0.0646 0.3351
H11 H -0.2341 0.0647 0.5041
H12 H -0.3347 -0.0095 0.4865
H13 H -0.3817 0.2389 0.5134
H14 H 0.1348 0.2928 0.3434
H15 H 0.1298 0.2530 0.1686
H16 H 0.1830 0.1627 0.2577
H17 H 0.0324 0.0745 0.2451
H18 H 0.0442 0.0398 0.1551
H19 H -0.0559 0.2335 0.0831
H20 H -0.0654 0.2737 0.1735
H21 H -0.2216 0.0408 -0.1041
H22 H -0.1088 0.0445 -0.0404
H23 H -0.1708 0.1865 -0.0611
O2A O -0.1156(3) -0.1640(4) 0.2246(2)
Ni1A Ni 0.1998(1) 0.5333(1) 0.2921(1)
H14A H -0.1348 -0.2072 0.1566
loop_
_geom_bond_atom_site_label_1
_geom_bond_atom_site_label_2
_geom_bond_site_symmetry_1
_geom_bond_site_symmetry_2
Ni1 N1 1_555 1_555
N1 C1 1_555 1_555
C1 C2 1_555 1_555
C2 C3 1_555 1_555
C3 C4 1_555 1_555
C4 C5 1_555 1_555
C5 N1 1_555 1_555
C6 C5 1_555 1_555
C7 C6 1_555 1_555
N2 Ni1 1_555 1_555
C8 N2 1_555 1_555
C9 C8 1_555 1_555
C10 C9 1_555 1_555
O1 C10 1_555 1_555
O2 C11 1_555 1_555
C11 C12 1_555 1_555
C12 C13 1_555 1_555
C13 N3 1_555 1_555
N3 Ni1 1_555 1_555
C14 C1 1_555 1_555
C15 C14 1_555 1_555
N4 Ni1 1_555 1_555
C16 N4 1_555 1_555
S1 C16 1_555 1_555
N5 Ni1 1_555 1_555
C17 N5 1_555 1_555
S2 C17 1_555 1_555
H1 C2 1_555 1_555
H2 C3 1_555 1_555
H3 C4 1_555 1_555
H4 C7 1_555 1_555
H5 C7 1_555 1_555
H6 C7 1_555 1_555
H7 C8 1_555 1_555
H8 C8 1_555 1_555
H9 C9 1_555 1_555
H10 C9 1_555 1_555
H11 C10 1_555 1_555
H12 C10 1_555 1_555
H13 O1 1_555 1_555
H14 O2 1_555 1_555
H15 C11 1_555 1_555
H16 C11 1_555 1_555
H17 C12 1_555 1_555
H18 C12 1_555 1_555
H19 C13 1_555 1_555
H20 C13 1_555 1_555
H21 C15 1_555 1_555
H22 C15 1_555 1_555
H23 C15 1_555 1_555
O2A Ni1 1_555 1_555
Ni1A O2 1_555 1_555
H14A O2A 1_555 1_555
C6 N2 1_555 1_555
N3 C14 1_555 1_555

#END
