
#######################################################################
#
#                 Cambridge Crystallographic Data Centre
#                                CCDC 
#
#######################################################################
#
# If this CIF has been generated from an entry in the Cambridge 
# Structural Database, then it will include bibliographic, chemical, 
# crystal, experimental, refinement or atomic coordinate data resulting 
# from the CCDC's data processing and validation procedures.
#
#######################################################################

data_JEXWEP
_symmetry_cell_setting           triclinic
_symmetry_space_group_name_H-M   'P 1'
_symmetry_Int_Tables_number      1
_space_group_name_Hall           'P 1'
loop_
_symmetry_equiv_pos_site_id
_symmetry_equiv_pos_as_xyz
1 x,y,z
_cell_length_a                   9.5807(14)
_cell_length_b                   9.9959(15)
_cell_length_c                   11.4230(17)
_cell_angle_alpha                84.330(3)
_cell_angle_beta                 85.224(3)
_cell_angle_gamma                62.268(3)
_cell_volume                     962.695
loop_
_atom_site_label
_atom_site_type_symbol
_atom_site_fract_x
_atom_site_fract_y
_atom_site_fract_z
C1 C 0.3067(10) 1.0903(10) 0.8147(8)
H1 H 0.3052 1.1873 0.7934
H2 H 0.2008 1.1034 0.8079
C2 C 0.3133(12) 1.1762(11) 1.0023(8)
H3 H 0.2994 1.1540 1.0858
H4 H 0.2149 1.2589 0.9752
C3 C 0.3064(10) 0.9368(9) 0.9955(8)
H5 H 0.2992 0.8756 0.9377
H6 H 0.2033 0.9897 1.0344
C4 C 0.4407(11) 1.2212(10) 0.9826(7)
C5 C 0.5616(5) 1.3571(6) 0.9838(5)
C6 C 0.6094(6) 1.4681(5) 0.9888(5)
H7 H 0.5347 1.5678 0.9990
C7 C 0.7690(6) 1.4300(5) 0.9785(5)
H8 H 0.8009 1.5042 0.9818
C8 C 0.8807(5) 1.2809(6) 0.9632(5)
H9 H 0.9874 1.2554 0.9564
C9 C 0.8329(6) 1.1700(4) 0.9583(5)
H10 H 0.9077 1.0703 0.9481
C10 C 0.6734(6) 1.2081(5) 0.9686(5)
C11 C 0.4233(11) 0.8383(9) 1.0831(7)
C12 C 0.5293(5) 0.6892(7) 1.2361(5)
C13 C 0.5733(6) 0.5908(7) 1.3365(5)
H11 H 0.4987 0.5703 1.3809
C14 C 0.7286(6) 0.5231(6) 1.3705(4)
H12 H 0.7581 0.4572 1.4377
C15 C 0.8401(5) 0.5537(7) 1.3041(5)
H13 H 0.9440 0.5084 1.3269
C16 C 0.7961(6) 0.6521(7) 1.2037(5)
H14 H 0.8707 0.6726 1.1593
C17 C 0.6407(6) 0.7199(6) 1.1697(4)
C18 C 1.0737(11) 0.5597(10) 0.7945(7)
H15 H 1.1652 0.4642 0.8141
H16 H 0.9817 0.5423 0.8030
C19 C 1.1938(11) 0.4903(10) 0.5948(8)
H17 H 1.1776 0.5257 0.5124
H18 H 1.1662 0.4081 0.6094
C20 C 0.9493(11) 0.7138(10) 0.6233(8)
H19 H 0.8792 0.7737 0.6852
H20 H 0.8997 0.6626 0.5886
C21 C 1.3631(12) 0.4332(10) 0.6195(8)
C22 C 1.6157(12) 0.2915(9) 0.6376(7)
C23 C 1.7794(11) 0.1735(10) 0.6354(8)
H21 H 1.8097 0.0734 0.6213
C24 C 1.8823(11) 0.2246(10) 0.6560(8)
H22 H 1.9883 0.1539 0.6588
C25 C 1.8444(12) 0.3708(10) 0.6732(7)
H23 H 1.9242 0.3969 0.6813
C26 C 1.6969(12) 0.4749(10) 0.6783(8)
H24 H 1.6728 0.5709 0.6997
C27 C 1.5728(11) 0.4440(10) 0.6519(7)
C28 C 0.9870(11) 0.8095(10) 0.5334(7)
C29 C 0.9646(6) 0.9774(6) 0.3840(5)
C30 C 0.9225(6) 1.0835(7) 0.2882(5)
H25 H 0.8365 1.1019 0.2450
C31 C 1.0089(7) 1.1622(6) 0.2571(4)
H26 H 0.9807 1.2333 0.1930
C32 C 1.1374(7) 1.1347(7) 0.3217(5)
H27 H 1.1952 1.1874 0.3008
C33 C 1.1795(6) 1.0286(7) 0.4175(5)
H28 H 1.2655 1.0102 0.4607
C34 C 1.0931(7) 0.9499(6) 0.4486(4)
Fe1 Fe 0.64824(13) 0.90795(13) 0.92471(10)
Fe2 Fe 1.24704(13) 0.74679(12) 0.68463(10)
N1 N 0.3530(9) 1.0428(8) 0.9388(6)
N2 N 0.5889(9) 1.1350(9) 0.9678(6)
N3 N 0.4225(10) 1.3633(9) 0.9925(7)
H29 H 0.3343 1.4432 1.0027
N4 N 0.5696(9) 0.8212(8) 1.0760(6)
N5 N 0.3935(9) 0.7695(8) 1.1693(6)
H30 H 0.3038 0.7704 1.1860
N6 N 1.0931(9) 0.6111(8) 0.6665(6)
N7 N 1.4150(9) 0.5259(8) 0.6483(6)
N8 N 1.4816(10) 0.2895(10) 0.6150(7)
H31 H 1.4723 0.2113 0.6004
N9 N 1.1048(9) 0.8427(8) 0.5351(6)
N10 N 0.9015(9) 0.8894(8) 0.4350(6)
H32 H 0.8219 0.8836 0.4108
O1 O 0.6038(8) 0.8809(7) 0.7649(5)
O2 O 0.3908(7) 0.8308(7) 0.6961(5)
O3 O 0.4445(8) 1.0410(7) 0.5973(5)
O4 O 0.8756(8) 0.7956(8) 0.9254(5)
O5 O 1.1329(7) 0.6066(7) 1.0082(5)
O6 O 1.1309(7) 0.7885(7) 0.8375(5)
P1 P 0.4439(3) 0.9498(3) 0.7098(2)
P2 P 1.0511(3) 0.6990(3) 0.9001(2)
Fe2_2 Fe 0.24704(13) 0.74679(12) 0.68463(10)
O2_2 O 1.3908(7) 0.8308(7) 0.6961(5)
O7 O 0.1494(19) 0.666(2) 0.2635(14)
H33 H 0.0549 0.6982 0.2437
H34 H 0.2117 0.5989 0.2177
O8 O 0.4361(15) 0.2502(13) 0.2793(11)
H35 H 0.4699 0.2086 0.2144
H36 H 0.5137 0.2376 0.3181
loop_
_geom_bond_atom_site_label_1
_geom_bond_atom_site_label_2
_geom_bond_site_symmetry_1
_geom_bond_site_symmetry_2
C1 H1 1_555 1_555
H2 C1 1_555 1_555
C2 H3 1_555 1_555
H4 C2 1_555 1_555
C3 H5 1_555 1_555
H6 C3 1_555 1_555
C4 C2 1_555 1_555
C5 C6 1_555 1_555
C6 H7 1_555 1_555
C7 C6 1_555 1_555
H8 C7 1_555 1_555
C8 C7 1_555 1_555
H9 C8 1_555 1_555
C9 C8 1_555 1_555
H10 C9 1_555 1_555
C10 C5 1_555 1_555
C11 C3 1_555 1_555
C12 C13 1_555 1_555
C13 H11 1_555 1_555
C14 C13 1_555 1_555
H12 C14 1_555 1_555
C15 C14 1_555 1_555
H13 C15 1_555 1_555
C16 C15 1_555 1_555
H14 C16 1_555 1_555
C17 C12 1_555 1_555
C18 H15 1_555 1_555
H16 C18 1_555 1_555
C19 H17 1_555 1_555
H18 C19 1_555 1_555
C20 H19 1_555 1_555
H20 C20 1_555 1_555
C21 C19 1_555 1_555
C22 C23 1_555 1_555
C23 H21 1_555 1_555
C24 C23 1_555 1_555
H22 C24 1_555 1_555
C25 C24 1_555 1_555
H23 C25 1_555 1_555
C26 C25 1_555 1_555
H24 C26 1_555 1_555
C27 C22 1_555 1_555
C28 C20 1_555 1_555
C29 C30 1_555 1_555
C30 H25 1_555 1_555
C31 C30 1_555 1_555
H26 C31 1_555 1_555
C32 C31 1_555 1_555
H27 C32 1_555 1_555
C33 C32 1_555 1_555
H28 C33 1_555 1_555
C34 C29 1_555 1_555
Fe1 N1 1_555 1_555
Fe2 N6 1_555 1_555
N1 C1 1_555 1_555
N2 C4 1_555 1_555
N3 C4 1_555 1_555
H29 N3 1_555 1_555
N4 C11 1_555 1_555
N5 C11 1_555 1_555
H30 N5 1_555 1_555
N6 C18 1_555 1_555
N7 C21 1_555 1_555
N8 C21 1_555 1_555
H31 N8 1_555 1_555
N9 C28 1_555 1_555
N10 C28 1_555 1_555
H32 N10 1_555 1_555
O1 Fe1 1_555 1_555
O2 P1 1_555 1_555
O3 P1 1_555 1_555
O4 Fe1 1_555 1_555
O5 P2 1_555 1_555
O6 Fe2 1_555 1_555
P1 C1 1_555 1_555
P2 C18 1_555 1_555
O7 H33 1_555 1_555
H34 O7 1_555 1_555
O8 H35 1_555 1_555
H36 O8 1_555 1_555
Fe2_2 O2 1_555 1_555
O2_2 Fe2 1_555 1_555
C2 N1 1_555 1_555
C3 N1 1_555 1_555
C5 N3 1_555 1_555
C9 C10 1_555 1_555
C10 N2 1_555 1_555
C12 N5 1_555 1_555
C16 C17 1_555 1_555
C17 N4 1_555 1_555
C19 N6 1_555 1_555
C20 N6 1_555 1_555
C22 N8 1_555 1_555
C26 C27 1_555 1_555
C27 N7 1_555 1_555
C29 N10 1_555 1_555
C33 C34 1_555 1_555
C34 N9 1_555 1_555
Fe1 N2 1_555 1_555
Fe1 N4 1_555 1_555
Fe2 N7 1_555 1_555
Fe2 N9 1_555 1_555
O1 P1 1_555 1_555
O4 P2 1_555 1_555
O6 P2 1_555 1_555

#END
