
#######################################################################
#
#                 Cambridge Crystallographic Data Centre
#                                CCDC 
#
#######################################################################
#
# If this CIF has been generated from an entry in the Cambridge 
# Structural Database, then it will include bibliographic, chemical, 
# crystal, experimental, refinement or atomic coordinate data resulting 
# from the CCDC's data processing and validation procedures.
#
#######################################################################

data_JEYSUB
_symmetry_cell_setting           triclinic
_symmetry_space_group_name_H-M   'P -1'
_symmetry_Int_Tables_number      2
_space_group_name_Hall           '-P 1'
loop_
_symmetry_equiv_pos_site_id
_symmetry_equiv_pos_as_xyz
1 x,y,z
2 -x,-y,-z
_cell_length_a                   21.129(4)
_cell_length_b                   20.383(4)
_cell_length_c                   15.172(3)
_cell_angle_alpha                121.59(3)
_cell_angle_beta                 114.53(4)
_cell_angle_gamma                96.21(3)
_cell_volume                     4594.76
loop_
_atom_site_label
_atom_site_type_symbol
_atom_site_fract_x
_atom_site_fract_y
_atom_site_fract_z
Cl2 Cl 0.8824(8) 0.3384(9) 0.2726(13)
O5 O 0.9469(31) 0.3717(35) 0.2875(51)
O6 O 0.8844(23) 0.3988(19) 0.3831(31)
O7 O 0.8730(30) 0.2648(40) 0.2711(49)
O8 O 0.8384(33) 0.3181(47) 0.1588(77)
Cl3 Cl 0.2814(9) 0.3525(11) 0.3570(16)
O9 O 0.3234(29) 0.4231(30) 0.3634(49)
O10 O 0.3146(29) 0.2926(42) 0.3420(59)
O11 O 0.2081(23) 0.3067(38) 0.2424(51)
O12 O 0.2647(34) 0.3750(31) 0.4411(54)
Cl4 Cl 0.3617(6) 0.0278(7) 0.4052(11)
O13 O 0.3097(23) 0.0202(27) 0.4421(39)
O14 O 0.3215(19) -0.0363(22) 0.2707(31)
O15 O 0.4203(19) 0.0095(28) 0.4593(40)
O16 O 0.4035(34) 0.1177(31) 0.4608(54)
Cl5 Cl 0.5009(9) 0.2538(11) 0.0373(16)
O17 O 0.5351(30) 0.3321(28) 0.1419(40)
O18 O 0.5520(30) 0.2268(38) 0.0217(55)
O19 O 0.4357(46) 0.1863(54) -0.0157(91)
O20 O 0.2515(14) 0.3907(17) 0.7287(24)
O21 O 0.8072(18) 0.2678(19) 0.4081(31)
O22 O 0.6775(23) 0.2654(35) 0.0204(41)
O23 O 0.5000 0.0000 0.0000
O24 O 0.5000 0.5000 0.0000
Ag1 Ag 0.1188(2) 0.7234(2) 0.2895(3)
Ag2 Ag -0.1355(2) 0.6062(2) 0.0313(3)
Ag3 Ag -0.1352(2) 0.7794(2) 0.2343(3)
Ag4 Ag 0.1090(2) 0.9315(2) 0.5278(3)
Ag5 Ag 0.0168(2) 1.0280(2) 0.4227(3)
Ag6 Ag -0.1018(3) 0.4558(4) -0.0999(6)
Ag7 Ag 0.0297(4) 0.5169(5) 0.1337(6)
Ag8 Ag -0.0522(4) 0.4707(4) 0.0467(6)
S1 S 0.1902(5) 0.8457(6) 0.5081(10)
C1 C 0.2844(21) 0.8970(23) 0.5464(35)
C2 C 0.3246(21) 0.9892(25) 0.6647(38)
C3 C 0.4072(25) 1.0289(30) 0.7012(44)
N1 N 0.4499(16) 0.9806(24) 0.7143(35)
C4 C 0.4146(24) 0.8985(26) 0.5914(46)
C5 C 0.5294(23) 1.0219(27) 0.7519(39)
C6 C 0.3312(21) 0.8420(28) 0.5473(46)
S2 S -0.0132(5) 0.6215(6) 0.2034(9)
C7 C -0.0213(20) 0.6311(23) 0.3254(33)
C8 C -0.0219(22) 0.7239(22) 0.4111(38)
C9 C -0.0402(28) 0.7202(35) 0.5081(38)
N2 N -0.1017(17) 0.6510(19) 0.4555(36)
C10 C -0.1107(27) 0.6591(29) 0.5536(40)
C11 C -0.0988(29) 0.5646(31) 0.3790(41)
C12 C -0.0896(22) 0.5558(22) 0.2731(40)
S3 S -0.2270(5) 0.6288(6) 0.0880(9)
C13 C -0.3134(21) 0.6248(23) -0.0258(34)
C14 C -0.2906(21) 0.6547(31) -0.0810(46)
C15 C -0.3600(25) 0.6648(37) -0.1623(50)
N3 N -0.4152(26) 0.5811(25) -0.2631(38)
C16 C -0.4884(29) 0.5749(35) -0.3594(41)
C17 C -0.4375(21) 0.5409(36) -0.2278(47)
C18 C -0.3694(22) 0.5327(27) -0.1272(38)
S4 S -0.0070(5) 0.8677(6) 0.3092(9)
C19 C 0.0209(23) 0.8338(25) 0.1968(38)
C20 C -0.0380(21) 0.8240(26) 0.0858(40)
C21 C -0.0136(27) 0.7909(28) -0.0027(39)
N4 N 0.0693(23) 0.8542(22) 0.0600(36)
C22 C 0.0885(24) 0.8327(26) -0.0294(39)
C23 C 0.1305(25) 0.8691(26) 0.1752(34)
C24 C 0.0999(23) 0.8996(25) 0.2649(39)
S5 S 0.0833(5) 0.9432(6) 0.6854(9)
C25 C 0.1550(18) 1.0513(24) 0.8373(30)
C26 C 0.1651(23) 1.0669(33) 0.9540(50)
C27 C 0.1820(30) 1.0023(29) 0.9615(38)
N5 N 0.2674(21) 1.0213(41) 0.9919(43)
C28 C 0.2915(29) 0.9560(38) 1.0142(65)
C29 C 0.2675(30) 1.0161(37) 0.8806(49)
C30 C 0.2372(21) 1.0578(25) 0.8498(39)
S6 S -0.1487(5) 0.9057(5) 0.3894(9)
C31 C -0.2185(18) 0.8673(20) 0.4117(29)
C32 C -0.2934(18) 0.8001(19) 0.2943(31)
C33 C -0.3518(19) 0.7671(23) 0.3102(33)
N6 N -0.3213(14) 0.7289(17) 0.3734(26)
C34 C -0.3776(25) 0.6898(29) 0.3924(49)
C35 C -0.2476(31) 0.7970(32) 0.4998(44)
C36 C -0.1860(16) 0.8384(20) 0.4806(36)
S7 S -0.0874(5) 0.5765(6) -0.1004(9)
C37 C -0.1692(35) 0.5174(45) -0.2673(51)
C38 C -0.2197(20) 0.4311(32) -0.3261(38)
C39 C -0.2886(26) 0.3882(40) -0.4734(48)
N7 N -0.2454(21) 0.3913(30) -0.5328(36)
C40 C -0.3108(34) 0.3395(42) -0.6752(43)
C41 C -0.1765(37) 0.4864(38) -0.4511(57)
C42 C -0.1172(29) 0.5172(29) -0.3261(46)
S8 S 0.1361(5) 0.6733(6) 0.1155(9)
C43 C 0.2337(20) 0.6885(19) 0.1783(37)
C44 C 0.2389(18) 0.6192(21) 0.0614(38)
C45 C 0.3226(23) 0.6373(25) 0.1131(42)
N8 N 0.3694(17) 0.7249(22) 0.1649(32)
C46 C 0.4632(24) 0.7505(28) 0.2221(43)
C47 C 0.3664(21) 0.7964(30) 0.2749(43)
C48 C 0.2807(20) 0.7722(29) 0.2204(34)
S5A S -0.0833(5) 1.0568(6) 0.3146(9)
S6A S 0.1487(5) 1.0943(5) 0.6106(9)
Ag7A Ag -0.0297(4) 0.4831(5) -0.1337(6)
Ag8A Ag 0.0522(4) 0.5293(4) -0.0467(6)
S8A S -0.1361(5) 0.3267(6) -0.1155(9)
S7A S 0.0874(5) 0.4235(6) 0.1004(9)
Ag6A Ag 0.1018(3) 0.5442(4) 0.0999(6)
Ag5A Ag -0.0168(2) 0.9720(2) 0.5773(3)
Cl1 Cl 0.4492(6) 0.6769(8) 0.4641(11)
O1 O 0.4236(21) 0.5941(27) 0.4366(33)
O2 O 0.3498(18) 0.6860(24) 0.4024(30)
O3 O 0.4859(26) 0.6748(27) 0.4036(45)
O4 O 0.4745(30) 0.7380(29) 0.5921(39)
O25? O 0.4662(75) 0.2533(66) -0.043(10)
Cl6? Cl 0.0584(15) 0.0615(14) 0.1353(21)
O26? O 0.1357(21) 0.0532(29) 0.1928(37)
O27? O 0.0305(32) 0.0522(27) 0.0034(61)
O28? O 0.0392(27) 0.1114(29) 0.2210(47)
loop_
_geom_bond_atom_site_label_1
_geom_bond_atom_site_label_2
_geom_bond_site_symmetry_1
_geom_bond_site_symmetry_2
Cl1 O1 1_555 1_555
O2 Cl1 1_555 1_555
O3 Cl1 1_555 1_555
O4 Cl1 1_555 1_555
Cl2 O5 1_555 1_555
O6 Cl2 1_555 1_555
O7 Cl2 1_555 1_555
O8 Cl2 1_555 1_555
Cl3 O9 1_555 1_555
O10 Cl3 1_555 1_555
O11 Cl3 1_555 1_555
O12 Cl3 1_555 1_555
Cl4 O13 1_555 1_555
O14 Cl4 1_555 1_555
O15 Cl4 1_555 1_555
O16 Cl4 1_555 1_555
Cl5 O17 1_555 1_555
O18 Cl5 1_555 1_555
O19 Cl5 1_555 1_555
Ag1 S1 1_555 1_555
Ag2 S2 1_555 1_555
Ag3 S3 1_555 1_555
Ag4 S1 1_555 1_555
Ag5 S4 1_555 1_555
Ag6 Ag7 1_555 1_555
Ag7 Ag8 1_555 1_555
Ag8 Ag6 1_555 1_555
S1 C1 1_555 1_555
C1 C2 1_555 1_555
C2 C3 1_555 1_555
C3 N1 1_555 1_555
N1 C4 1_555 1_555
C4 C6 1_555 1_555
C5 N1 1_555 1_555
C6 C1 1_555 1_555
S2 Ag1 1_555 1_555
C7 S2 1_555 1_555
C8 C7 1_555 1_555
C9 C8 1_555 1_555
N2 C9 1_555 1_555
C10 N2 1_555 1_555
C11 N2 1_555 1_555
C12 C7 1_555 1_555
S3 Ag2 1_555 1_555
C13 S3 1_555 1_555
C14 C13 1_555 1_555
C15 C14 1_555 1_555
N3 C15 1_555 1_555
C16 N3 1_555 1_555
C17 N3 1_555 1_555
C18 C13 1_555 1_555
S4 Ag3 1_555 1_555
C19 S4 1_555 1_555
C20 C19 1_555 1_555
C21 C20 1_555 1_555
N4 C21 1_555 1_555
C22 N4 1_555 1_555
C23 N4 1_555 1_555
C24 C19 1_555 1_555
S5 Ag4 1_555 1_555
C25 S5 1_555 1_555
C26 C25 1_555 1_555
C27 C26 1_555 1_555
N5 C27 1_555 1_555
C28 N5 1_555 1_555
C29 N5 1_555 1_555
C30 C25 1_555 1_555
S6 Ag3 1_555 1_555
C31 S6 1_555 1_555
C32 C31 1_555 1_555
C33 C32 1_555 1_555
N6 C33 1_555 1_555
C34 N6 1_555 1_555
C35 N6 1_555 1_555
C36 C31 1_555 1_555
S7 Ag2 1_555 1_555
C37 S7 1_555 1_555
C38 C37 1_555 1_555
C39 C38 1_555 1_555
N7 C39 1_555 1_555
C40 N7 1_555 1_555
C41 N7 1_555 1_555
C42 C37 1_555 1_555
S8 Ag1 1_555 1_555
C43 S8 1_555 1_555
C44 C43 1_555 1_555
C45 C44 1_555 1_555
N8 C45 1_555 1_555
C46 N8 1_555 1_555
C47 N8 1_555 1_555
C48 C43 1_555 1_555
S5A Ag5 1_555 1_555
S6A Ag5 1_555 1_555
Ag7A Ag6 1_555 1_555
Ag8A Ag6 1_555 1_555
S8A Ag6 1_555 1_555
S7A Ag7 1_555 1_555
Ag6A Ag7 1_555 1_555
Ag5A S5 1_555 1_555
Ag4 S4 1_555 1_555
Ag6 S7 1_555 1_555
Ag7 S2 1_555 1_555
Ag8 S2 1_555 1_555
Ag8 S8A 1_555 1_555
Ag8 Ag6A 1_555 1_555
C11 C12 1_555 1_555
C17 C18 1_555 1_555
C23 C24 1_555 1_555
C29 C30 1_555 1_555
S6 Ag5A 1_555 1_555
C35 C36 1_555 1_555
S7 Ag7A 1_555 1_555
C41 C42 1_555 1_555
S8 Ag8A 1_555 1_555
S8 Ag6A 1_555 1_555
C47 C48 1_555 1_555
Ag7A Ag8A 1_555 1_555
Ag7A Ag6A 1_555 1_555
Ag8A Ag6A 1_555 1_555
S7A Ag6A 1_555 1_555

#END
