
#######################################################################
#
#                 Cambridge Crystallographic Data Centre
#                                CCDC 
#
#######################################################################
#
# If this CIF has been generated from an entry in the Cambridge 
# Structural Database, then it will include bibliographic, chemical, 
# crystal, experimental, refinement or atomic coordinate data resulting 
# from the CCDC's data processing and validation procedures.
#
#######################################################################

data_JILXIM
_symmetry_cell_setting           monoclinic
_symmetry_space_group_name_H-M   'P 21/n'
_symmetry_Int_Tables_number      14
_space_group_name_Hall           '-P 2yn'
loop_
_symmetry_equiv_pos_site_id
_symmetry_equiv_pos_as_xyz
1 x,y,z
2 1/2-x,1/2+y,1/2-z
3 -x,-y,-z
4 1/2+x,1/2-y,1/2+z
_cell_length_a                   9.4337(6)
_cell_length_b                   32.490(2)
_cell_length_c                   10.2061(7)
_cell_angle_alpha                90
_cell_angle_beta                 105.3930(10)
_cell_angle_gamma                90
_cell_volume                     3015.96
loop_
_atom_site_label
_atom_site_type_symbol
_atom_site_fract_x
_atom_site_fract_y
_atom_site_fract_z
Cu1 Cu 0.22905(6) 1.096449(16) 0.90494(6)
Cu2 Cu -0.27024(6) 1.138450(16) 0.91027(6)
O1 O -0.2180(3) 0.91911(10) 0.7809(4)
C1 C -0.0079(5) 1.03352(12) 0.8022(4)
H1 H -0.0603 1.0575 0.7727
C2 C -0.0804(4) 0.99650(12) 0.7747(4)
H2 H -0.1800 0.9958 0.7295
C3 C -0.0041(4) 0.96032(11) 0.8150(4)
C4 C 0.1420(5) 0.96322(11) 0.8847(4)
H3 H 0.1970 0.9396 0.9145
C5 C 0.2058(5) 1.00185(13) 0.9098(4)
H4 H 0.3043 1.0034 0.9579
C6 C -0.0882(5) 0.92028(12) 0.7817(4)
C7 C 0.0101(5) 0.82175(12) 0.7104(5)
H5 H 0.1094 0.8271 0.7216
C8 C -0.0472(5) 0.77996(12) 0.6770(4)
C9 C -0.1939(5) 0.77244(13) 0.6140(5)
H6 H -0.2597 0.7942 0.5886
C10 C -0.2409(5) 0.73247(13) 0.5895(5)
H7 H -0.3398 0.7278 0.5475
C11 C -0.0100(5) 0.70782(13) 0.6818(5)
H8 H 0.0545 0.6858 0.7054
C12 C 0.0461(5) 0.74679(13) 0.7097(5)
H9 H 0.1458 0.7507 0.7501
C25 C 0.4319(5) 1.10448(12) 0.9233(4)
C26 C -0.0683(5) 1.13150(11) 0.9215(4)
N1 N 0.1341(4) 1.03672(10) 0.8690(3)
N2 N -0.0101(4) 0.88879(9) 0.7547(3)
H19 H 0.0808 0.8921 0.7564
N3 N -0.0765(4) 0.85077(10) 0.7240(3)
N4 N -0.1513(4) 0.69952(11) 0.6229(4)
N9 N 0.5522(4) 1.11185(10) 0.9292(4)
N10 N 0.0517(4) 1.12473(11) 0.9224(4)
Cu2A Cu -0.22976(6) 0.638450(16) 0.58973(6)
Cu2_2 Cu 0.72976(6) 1.138450(16) 0.91027(6)
N4A N -0.3487(4) 1.19952(11) 0.8771(4)
N9_2 N -0.4478(4) 1.11185(10) 0.9292(4)
Cu3 Cu 1.17392(6) 0.596812(17) 0.88916(7)
Cu4 Cu 0.68130(6) 0.634724(16) 0.91329(6)
O2 O 1.2415(3) 0.38481(9) 0.8018(3)
C13 C 1.0211(5) 0.51529(14) 0.7922(6)
H10 H 0.9415 0.5324 0.7549
C14 C 1.0053(5) 0.47330(12) 0.7660(5)
H11 H 0.9175 0.4627 0.7120
C15 C 1.1221(4) 0.44767(12) 0.8214(4)
C16 C 1.2492(5) 0.46510(13) 0.9019(4)
H12 H 1.3295 0.4487 0.9429
C17 C 1.2554(5) 0.50718(13) 0.9207(4)
H13 H 1.3423 0.5185 0.9735
C18 C 1.1238(4) 0.40251(12) 0.7911(4)
C19 C 0.8709(4) 0.32661(12) 0.6625(4)
H14 H 0.7872 0.3430 0.6392
C20 C 0.8629(4) 0.28274(12) 0.6302(4)
C21 C 0.9840(5) 0.25714(12) 0.6727(5)
H15 H 1.0749 0.2680 0.7185
C22 C 0.9686(5) 0.21581(13) 0.6468(5)
H16 H 1.0511 0.1991 0.6758
C23 C 0.7249(5) 0.22333(13) 0.5380(5)
H17 H 0.6354 0.2120 0.4906
C24 C 0.7322(5) 0.26514(13) 0.5596(5)
H18 H 0.6493 0.2814 0.5268
C27 C 0.8680(5) 0.62089(13) 0.9027(4)
C28 C 1.3692(5) 0.60951(12) 0.9041(4)
N5 N 1.1436(4) 0.53241(10) 0.8675(4)
N6 N 0.9947(4) 0.38331(9) 0.7534(3)
H20 H 0.9137 0.3962 0.7477
N7 N 0.9960(4) 0.34194(9) 0.7238(3)
N8 N 0.8408(4) 0.19802(11) 0.5818(4)
N11 N 0.9873(4) 0.61456(12) 0.9016(4)
N12 N 1.4904(4) 0.61590(11) 0.9136(4)
Cu4A Cu 0.81870(6) 0.134724(16) 0.58671(6)
Cu4_2 Cu 1.68130(6) 0.634724(16) 0.91329(6)
N8A N 0.6592(4) 0.69802(11) 0.9182(4)
N12_2 N 0.4904(4) 0.61590(11) 0.9136(4)
loop_
_geom_bond_atom_site_label_1
_geom_bond_atom_site_label_2
_geom_bond_site_symmetry_1
_geom_bond_site_symmetry_2
Cu1 C25 1_555 1_555
Cu2 C26 1_555 1_555
Cu3 C28 1_555 1_555
Cu4 C27 1_555 1_555
O1 C6 1_555 1_555
O2 C18 1_555 1_555
C1 H1 1_555 1_555
C2 C1 1_555 1_555
H2 C2 1_555 1_555
C3 C2 1_555 1_555
C4 C3 1_555 1_555
H3 C4 1_555 1_555
C5 C4 1_555 1_555
H4 C5 1_555 1_555
C6 C3 1_555 1_555
C7 H5 1_555 1_555
C8 C7 1_555 1_555
C9 C8 1_555 1_555
H6 C9 1_555 1_555
C10 C9 1_555 1_555
H7 C10 1_555 1_555
C11 H8 1_555 1_555
C12 C8 1_555 1_555
H9 C12 1_555 1_555
C13 H10 1_555 1_555
C14 C13 1_555 1_555
H11 C14 1_555 1_555
C15 C14 1_555 1_555
C16 C15 1_555 1_555
H12 C16 1_555 1_555
C17 C16 1_555 1_555
H13 C17 1_555 1_555
C18 C15 1_555 1_555
C19 H14 1_555 1_555
C20 C19 1_555 1_555
C21 C20 1_555 1_555
H15 C21 1_555 1_555
C22 C21 1_555 1_555
H16 C22 1_555 1_555
C23 H17 1_555 1_555
C24 C20 1_555 1_555
H18 C24 1_555 1_555
C25 N9 1_555 1_555
C26 N10 1_555 1_555
C27 N11 1_555 1_555
C28 N12 1_555 1_555
N1 Cu1 1_555 1_555
N2 C6 1_555 1_555
H19 N2 1_555 1_555
N3 C7 1_555 1_555
N4 C10 1_555 1_555
N5 Cu3 1_555 1_555
N6 C18 1_555 1_555
H20 N6 1_555 1_555
N7 C19 1_555 1_555
N8 C22 1_555 1_555
N9 Cu2_2 1_555 1_555
N10 Cu1 1_555 1_555
N11 Cu3 1_555 1_555
N12 Cu4_2 1_555 1_555
Cu2A N4 1_555 1_555
Cu4A N8 1_555 1_555
N4A Cu2 1_555 1_555
N8A Cu4 1_555 1_555
N9_2 Cu2 1_555 1_555
N12_2 Cu4 1_555 1_555
C1 N1 1_555 1_555
C5 N1 1_555 1_555
C11 C12 1_555 1_555
C11 N4 1_555 1_555
C13 N5 1_555 1_555
C17 N5 1_555 1_555
C23 C24 1_555 1_555
C23 N8 1_555 1_555
N2 N3 1_555 1_555
N6 N7 1_555 1_555

#END
