
#######################################################################
#
#                 Cambridge Crystallographic Data Centre
#                                CCDC 
#
#######################################################################
#
# If this CIF has been generated from an entry in the Cambridge 
# Structural Database, then it will include bibliographic, chemical, 
# crystal, experimental, refinement or atomic coordinate data resulting 
# from the CCDC's data processing and validation procedures.
#
#######################################################################

data_JIMCEO
_symmetry_cell_setting           monoclinic
_symmetry_space_group_name_H-M   'P 21/m'
_symmetry_Int_Tables_number      11
_space_group_name_Hall           '-P 2yb'
loop_
_symmetry_equiv_pos_site_id
_symmetry_equiv_pos_as_xyz
1 x,y,z
2 -x,1/2+y,-z
3 -x,-y,-z
4 x,1/2-y,z
_cell_length_a                   7.1402(4)
_cell_length_b                   24.0050(15)
_cell_length_c                   10.6885(7)
_cell_angle_alpha                90
_cell_angle_beta                 90.939(2)
_cell_angle_gamma                90
_cell_volume                     1831.77
loop_
_atom_site_label
_atom_site_type_symbol
_atom_site_fract_x
_atom_site_fract_y
_atom_site_fract_z
B2 B 0.1472(17) 0.7500 1.2002(15)
F4 F 0.1593(15) 0.7500 1.3346(9)
F5 F 0.3274(10) 0.7500 1.1877(10)
F6 F 0.0434(8) 0.70488(16) 1.1677(6)
F6C F 0.0434(8) 0.79512(16) 1.1677(6)
O4 O 0.179(3) 0.7500 1.017(2)
N13 N 0.530(2) 0.7500 0.5939(15)
C9 C 0.605(2) 0.7500 0.4968(16)
C10 C 0.704(2) 0.7500 0.3805(14)
O5 O -0.049(4) 0.2500 0.341(3)
Fe1 Fe 0.0000 0.5000 1.0000
N1 N -0.1830(5) 0.46787(14) 0.8522(3)
N2 N -0.3139(6) 0.49967(14) 0.7919(3)
N3 N -0.4000(6) 0.47079(16) 0.7084(3)
N4 N -0.3288(5) 0.41896(14) 0.7141(3)
C1 C -0.1953(6) 0.41800(17) 0.8017(4)
H1 H -0.1211 0.3866 0.8242
C2 C -0.3859(8) 0.3756(2) 0.6267(4)
H2 H -0.5239 0.3758 0.6160
H3 H -0.3480 0.3387 0.6600
C3 C -0.2932(8) 0.3855(2) 0.4989(4)
H4 H -0.2683 0.3497 0.4541
O2 O -0.1180(8) 0.4202(3) 0.5142(6)
B1 B 0.0692(16) 0.4046(5) 0.4839(10)
F1 F 0.1175(11) 0.3580(4) 0.5543(8)
F2 F 0.0858(9) 0.3890(3) 0.3571(6)
F3 F 0.1827(7) 0.4511(2) 0.5131(5)
C4 C -0.4003(7) 0.4245(2) 0.4208(4)
H6 H -0.5311 0.4113 0.4114
H7 H -0.4026 0.4615 0.4618
N5 N -0.3174(5) 0.42957(15) 0.2986(3)
C5 C -0.2098(6) 0.46987(16) 0.2521(4)
H8 H -0.1715 0.5027 0.2952
N6 N -0.3387(6) 0.39020(17) 0.2100(4)
N7 N -0.2479(6) 0.40632(16) 0.1135(4)
N8 N -0.1661(5) 0.45665(13) 0.1375(3)
N9 N -0.1737(5) 0.57435(13) 1.0166(3)
N10 N -0.2603(6) 0.58770(15) 1.1252(3)
N11 N -0.3608(6) 0.63187(15) 1.1096(3)
N12 N -0.3393(5) 0.64835(13) 0.9903(3)
C6 C -0.2247(6) 0.61290(16) 0.9348(4)
H9 H -0.1858 0.6149 0.8504
C7 C -0.4312(6) 0.69874(15) 0.9427(4)
H10 H -0.5617 0.7002 0.9724
H11 H -0.4350 0.6979 0.8500
C8 C -0.3251(8) 0.7500 0.9876(6)
H12 H -0.3165 0.7500 1.0810
O3 O -0.1442(7) 0.7500 0.9377(6)
Fe1_2 Fe 0.0000 0.5000 0.0000
Fe1C Fe 0.0000 1.0000 1.0000
Fe1_3 Fe 0.0000 0.5000 2.0000
N1B N 0.1830(5) 0.53213(14) 1.1478(3)
N2B N 0.3139(6) 0.50033(14) 1.2081(3)
N3B N 0.4000(6) 0.52921(16) 1.2916(3)
N4B N 0.3288(5) 0.58104(14) 1.2859(3)
C1B C 0.1953(6) 0.58200(17) 1.1983(4)
H1B H 0.1211 0.6134 1.1758
C2B C 0.3859(8) 0.6244(2) 1.3733(4)
H2B H 0.5239 0.6242 1.3840
H3B H 0.3480 0.6613 1.3400
C3B C 0.2932(8) 0.6145(2) 1.5011(4)
H4B H 0.2683 0.6503 1.5459
O2B O 0.1180(8) 0.5798(3) 1.4858(6)
B1B B -0.0692(16) 0.5954(5) 1.5161(10)
F1B F -0.1175(11) 0.6420(4) 1.4457(8)
F2B F -0.0858(9) 0.6110(3) 1.6429(6)
F3B F -0.1827(7) 0.5489(2) 1.4869(5)
C4B C 0.4003(7) 0.5755(2) 1.5792(4)
H6B H 0.5311 0.5887 1.5886
H7B H 0.4026 0.5385 1.5382
N5B N 0.3174(5) 0.57043(15) 1.7014(3)
C5B C 0.2098(6) 0.53013(16) 1.7479(4)
H8B H 0.1715 0.4973 1.7048
N6B N 0.3387(6) 0.60980(17) 1.7900(4)
N7B N 0.2479(6) 0.59368(16) 1.8865(4)
N8B N 0.1661(5) 0.54335(13) 1.8625(3)
N8_2 N -0.1661(5) 0.45665(13) 1.1375(3)
N8B_2 N 0.1661(5) 0.54335(13) 0.8625(3)
N9C N -0.1737(5) 0.92565(13) 1.0166(3)
N9B N 0.1737(5) 0.42565(13) 0.9834(3)
N10C N -0.2603(6) 0.91230(15) 1.1252(3)
N11C N -0.3608(6) 0.86813(15) 1.1096(3)
N12C N -0.3393(5) 0.85165(13) 0.9903(3)
C6C C -0.2247(6) 0.88710(16) 0.9348(4)
H9C H -0.1858 0.8851 0.8504
C7C C -0.4312(6) 0.80126(15) 0.9427(4)
H10C H -0.5617 0.7998 0.9724
H11C H -0.4350 0.8021 0.8500
H5? H -0.3216 0.3510 0.4574
O1? O -0.1108(9) 0.3799(4) 0.5176(8)
O6? O 0.055(4) 0.3208(12) 0.325(3)
O7? O -0.046(4) 0.2772(13) 0.291(3)
loop_
_geom_bond_atom_site_label_1
_geom_bond_atom_site_label_2
_geom_bond_site_symmetry_1
_geom_bond_site_symmetry_2
Fe1 N1 1_555 1_555
N1 N2 1_555 1_555
N2 N3 1_555 1_555
N3 N4 1_555 1_555
N4 C1 1_555 1_555
C1 N1 1_555 1_555
H1 C1 1_555 1_555
C2 N4 1_555 1_555
H2 C2 1_555 1_555
H3 C2 1_555 1_555
C3 C2 1_555 1_555
H4 C3 1_555 1_555
O2 C3 1_555 1_555
B1 O2 1_555 1_555
F1 B1 1_555 1_555
F2 B1 1_555 1_555
F3 B1 1_555 1_555
C4 C3 1_555 1_555
H6 C4 1_555 1_555
H7 C4 1_555 1_555
N5 C4 1_555 1_555
C5 N5 1_555 1_555
H8 C5 1_555 1_555
N6 N5 1_555 1_555
N7 N6 1_555 1_555
N8 C5 1_555 1_555
N9 Fe1 1_555 1_555
N10 N9 1_555 1_555
N11 N10 1_555 1_555
N12 N11 1_555 1_555
C6 N9 1_555 1_555
H9 C6 1_555 1_555
C7 N12 1_555 1_555
H10 C7 1_555 1_555
H11 C7 1_555 1_555
C8 C7 1_555 1_555
H12 C8 1_555 1_555
O3 C8 1_555 1_555
B2 F4 1_555 1_555
F5 B2 1_555 1_555
F6 B2 1_555 1_555
N13 C9 1_555 1_555
C9 C10 1_555 1_555
Fe1_2 N8 1_555 1_555
Fe1C N9C 1_555 1_555
Fe1_3 N8B 1_555 1_555
N1B Fe1 1_555 1_555
N2B N1B 1_555 1_555
N3B N2B 1_555 1_555
N4B N3B 1_555 1_555
C1B N1B 1_555 1_555
H1B C1B 1_555 1_555
C2B N4B 1_555 1_555
H2B C2B 1_555 1_555
H3B C2B 1_555 1_555
C3B C2B 1_555 1_555
H4B C3B 1_555 1_555
O2B C3B 1_555 1_555
B1B O2B 1_555 1_555
F1B B1B 1_555 1_555
F2B B1B 1_555 1_555
F3B B1B 1_555 1_555
C4B C3B 1_555 1_555
H6B C4B 1_555 1_555
H7B C4B 1_555 1_555
N5B C4B 1_555 1_555
C5B N5B 1_555 1_555
H8B C5B 1_555 1_555
N6B N5B 1_555 1_555
N7B N6B 1_555 1_555
N8B C5B 1_555 1_555
N8_2 Fe1 1_555 1_555
N8B_2 Fe1 1_555 1_555
N9C N10C 1_555 1_555
N9B Fe1 1_555 1_555
N10C N11C 1_555 1_555
N11C N12C 1_555 1_555
N12C C6C 1_555 1_555
C6C N9C 1_555 1_555
H9C C6C 1_555 1_555
C7C C8 1_555 1_555
H10C C7C 1_555 1_555
H11C C7C 1_555 1_555
F6C B2 1_555 1_555
N7 N8 1_555 1_555
N12 C6 1_555 1_555
N4B C1B 1_555 1_555
N7B N8B 1_555 1_555
N12C C7C 1_555 1_555

#END
