
#######################################################################
#
#                 Cambridge Crystallographic Data Centre
#                                CCDC 
#
#######################################################################
#
# If this CIF has been generated from an entry in the Cambridge 
# Structural Database, then it will include bibliographic, chemical, 
# crystal, experimental, refinement or atomic coordinate data resulting 
# from the CCDC's data processing and validation procedures.
#
#######################################################################

data_JIMGIW
_symmetry_cell_setting           monoclinic
_symmetry_space_group_name_H-M   'C 2/c'
_symmetry_Int_Tables_number      15
_space_group_name_Hall           '-C 2yn'
loop_
_symmetry_equiv_pos_site_id
_symmetry_equiv_pos_as_xyz
1 x,y,z
2 1/2+x,1/2+y,z
3 -x,y,1/2-z
4 1/2-x,1/2+y,1/2-z
5 -x,-y,-z
6 1/2-x,1/2-y,-z
7 x,-y,1/2+z
8 1/2+x,1/2-y,1/2+z
_cell_length_a                   19.896(8)
_cell_length_b                   11.484(4)
_cell_length_c                   20.429(8)
_cell_angle_alpha                90
_cell_angle_beta                 113.188(6)
_cell_angle_gamma                90
_cell_volume                     4290.66
loop_
_atom_site_label
_atom_site_type_symbol
_atom_site_fract_x
_atom_site_fract_y
_atom_site_fract_z
Co1 Co 0.5000 0.43388(5) 0.2500
O1 O 0.2996(2) 0.3253(4) 0.09513(17)
N1 N 0.50064(17) 0.6913(3) 0.50191(16)
C1 C 0.3408(2) 0.3607(4) 0.1546(2)
Co2 Co 0.5000 0.5000 0.5000
O2 O 0.39435(15) 0.4276(2) 0.16410(14)
N2 N 0.5000 0.2432(4) 0.2500
C2 C 0.3235(2) 0.3254(4) 0.2179(2)
H1 H 0.3691 0.2985 0.2566
H2 H 0.2891 0.2588 0.2037
O3 O 0.46277(14) 0.4378(2) 0.33208(13)
N3 N 0.5000 -0.3748(4) 0.2500
C3 C 0.2901(2) 0.4220(4) 0.2467(2)
O4 O 0.41282(16) 0.5121(3) 0.40212(15)
C4 C 0.2190(3) 0.4688(6) 0.1863(3)
H3 H 0.2245 0.5523 0.1774
H4 H 0.2088 0.4251 0.1416
C5 C 0.1598(5) 0.4526(11) 0.2106(6)
H5 H 0.1410 0.5295 0.2173
H6 H 0.1193 0.4095 0.1740
C6 C 0.1849(5) 0.3899(10) 0.2756(5)
H7 H 0.1597 0.3137 0.2681
H8 H 0.1729 0.4339 0.3113
C7 C 0.2629(3) 0.3715(5) 0.3021(3)
H9 H 0.2741 0.2873 0.3089
H10 H 0.2875 0.4113 0.3485
C8 C 0.3431(2) 0.5241(4) 0.2782(2)
H11 H 0.3573 0.5572 0.2407
H12 H 0.3175 0.5858 0.2934
C9 C 0.4115(2) 0.4890(3) 0.34121(19)
C10 C 0.4388(3) 0.7510(4) 0.4837(3)
H13 H 0.3941 0.7092 0.4705
C11 C 0.4365(2) 0.8714(4) 0.4833(3)
H14 H 0.3910 0.9104 0.4707
C12 C 0.5003(2) 0.9353(4) 0.50119(19)
C13 C 0.5641(3) 0.8711(4) 0.5200(3)
H15 H 0.6096 0.9101 0.5327
C14 C 0.5621(2) 0.7508(4) 0.5204(3)
H16 H 0.6069 0.7092 0.5345
C15 C 0.5222(2) 0.1828(3) 0.31047(19)
H17 H 0.5379 0.2244 0.3541
C16 C 0.5237(2) 0.0630(3) 0.3129(2)
H18 H 0.5408 0.0239 0.3575
C17 C 0.5000 -0.0006(4) 0.2500
C18 C 0.5000 -0.1308(4) 0.2500
C19 C 0.5215(2) -0.1944(3) 0.3126(2)
H19 H 0.5367 -0.1552 0.3571
C20 C 0.5209(2) -0.3133(3) 0.31034(19)
H20 H 0.5362 -0.3546 0.3541
O8 O 0.59035(16) 0.5035(2) 0.46335(16)
H27 H 0.6310(19) 0.484(5) 0.4963(19)
H28 H 0.585(3) 0.470(5) 0.4239(15)
Co1_2 Co 0.5000 -0.56612(5) 0.2500
O1B O 0.7004(2) 0.3253(4) 0.40487(17)
N1D N 0.49936(17) 1.3087(3) 0.49809(16)
N1D_2 N 0.49936(17) 0.3087(3) 0.49809(16)
C1B C 0.6592(2) 0.3607(4) 0.3454(2)
Co2_2 Co 0.5000 1.5000 0.5000
Co2F Co 0.5000 0.5000 0.0000
O2B O 0.60565(15) 0.4276(2) 0.33590(14)
C2B C 0.6765(2) 0.3254(4) 0.2821(2)
H1B H 0.6309 0.2985 0.2434
H2B H 0.7109 0.2588 0.2963
O3B O 0.53723(14) 0.4378(2) 0.16792(13)
N3_2 N 0.5000 0.6252(4) 0.2500
C3B C 0.7099(2) 0.4220(4) 0.2533(2)
O4B O 0.58718(16) 0.5121(3) 0.09788(15)
O4D O 0.58718(16) 0.4879(3) 0.59788(15)
C4B C 0.7810(3) 0.4688(6) 0.3137(3)
H3B H 0.7755 0.5523 0.3226
H4B H 0.7912 0.4251 0.3584
C5B C 0.8402(5) 0.4526(11) 0.2894(6)
H5B H 0.8590 0.5295 0.2827
H6B H 0.8807 0.4095 0.3260
C6B C 0.8151(5) 0.3899(10) 0.2244(5)
H7B H 0.8403 0.3137 0.2319
H8B H 0.8271 0.4339 0.1887
C7B C 0.7371(3) 0.3715(5) 0.1979(3)
H9B H 0.7259 0.2873 0.1911
H10B H 0.7125 0.4113 0.1515
C8B C 0.6569(2) 0.5241(4) 0.2218(2)
H11B H 0.6427 0.5572 0.2593
H12B H 0.6825 0.5858 0.2066
C9B C 0.5885(2) 0.4890(3) 0.15879(19)
C10D C 0.5612(3) 1.2490(4) 0.5163(3)
H13D H 0.6059 1.2908 0.5295
C11D C 0.5635(2) 1.1286(4) 0.5167(3)
H14D H 0.6090 1.0896 0.5293
C12D C 0.4997(2) 1.0647(4) 0.49881(19)
C13D C 0.4359(3) 1.1289(4) 0.4800(3)
H15D H 0.3904 1.0899 0.4673
C14D C 0.4379(2) 1.2492(4) 0.4796(3)
H16D H 0.3931 1.2908 0.4655
C15B C 0.4778(2) 0.1828(3) 0.18953(19)
H17B H 0.4621 0.2244 0.1459
C16B C 0.4763(2) 0.0630(3) 0.1871(2)
H18B H 0.4592 0.0239 0.1425
C19B C 0.4785(2) -0.1944(3) 0.1874(2)
H19B H 0.4633 -0.1552 0.1429
C20B C 0.4791(2) -0.3133(3) 0.18966(19)
H20B H 0.4638 -0.3546 0.1459
O8D O 0.40965(16) 0.4965(2) 0.53665(16)
H27D H 0.3690(19) 0.516(5) 0.5037(19)
H28D H 0.415(3) 0.530(5) 0.5761(15)
O5 O 0.1867(4) 0.4025(8) 0.4551(4)
H21 H 0.203(4) 0.465(4) 0.447(4)
H22 H 0.220(3) 0.356(5) 0.461(4)
O6 O 0.2086(6) 0.1692(8) 0.4087(4)
H23 H 0.202(5) 0.193(9) 0.445(3)
H24 H 0.241(4) 0.209(7) 0.441(4)
O7 O 0.2314(3) 0.1091(5) 0.0393(2)
H25 H 0.267(3) 0.119(8) 0.026(4)
H26 H 0.240(4) 0.151(6) 0.077(3)
loop_
_geom_bond_atom_site_label_1
_geom_bond_atom_site_label_2
_geom_bond_site_symmetry_1
_geom_bond_site_symmetry_2
Co1 O2 1_555 1_555
O1 C1 1_555 1_555
N1 Co2 1_555 1_555
C1 O2 1_555 1_555
Co2 O4 1_555 1_555
N2 Co1 1_555 1_555
C2 C1 1_555 1_555
H1 C2 1_555 1_555
H2 C2 1_555 1_555
O3 Co1 1_555 1_555
N3 C20 1_555 1_555
C3 C2 1_555 1_555
O4 C9 1_555 1_555
C4 C3 1_555 1_555
H3 C4 1_555 1_555
H4 C4 1_555 1_555
C5 C4 1_555 1_555
H5 C5 1_555 1_555
H6 C5 1_555 1_555
C6 C5 1_555 1_555
H7 C6 1_555 1_555
H8 C6 1_555 1_555
C7 C3 1_555 1_555
H9 C7 1_555 1_555
H10 C7 1_555 1_555
C8 C3 1_555 1_555
H11 C8 1_555 1_555
H12 C8 1_555 1_555
C9 O3 1_555 1_555
C10 N1 1_555 1_555
H13 C10 1_555 1_555
C11 C10 1_555 1_555
H14 C11 1_555 1_555
C12 C11 1_555 1_555
C13 C12 1_555 1_555
H15 C13 1_555 1_555
C14 N1 1_555 1_555
H16 C14 1_555 1_555
C15 N2 1_555 1_555
H17 C15 1_555 1_555
C16 C15 1_555 1_555
H18 C16 1_555 1_555
C17 C16 1_555 1_555
C18 C17 1_555 1_555
C19 C18 1_555 1_555
H19 C19 1_555 1_555
C20 C19 1_555 1_555
H20 C20 1_555 1_555
O5 H21 1_555 1_555
H22 O5 1_555 1_555
O6 H23 1_555 1_555
H24 O6 1_555 1_555
O7 H25 1_555 1_555
H26 O7 1_555 1_555
O8 Co2 1_555 1_555
H27 O8 1_555 1_555
H28 O8 1_555 1_555
Co1_2 N3 1_555 1_555
O1B C1B 1_555 1_555
N1D Co2_2 1_555 1_555
N1D_2 Co2 1_555 1_555
C1B O2B 1_555 1_555
Co2F O4B 1_555 1_555
O2B Co1 1_555 1_555
C2B C1B 1_555 1_555
H1B C2B 1_555 1_555
H2B C2B 1_555 1_555
O3B Co1 1_555 1_555
N3_2 Co1 1_555 1_555
C3B C2B 1_555 1_555
O4B C9B 1_555 1_555
O4D Co2 1_555 1_555
C4B C3B 1_555 1_555
H3B C4B 1_555 1_555
H4B C4B 1_555 1_555
C5B C4B 1_555 1_555
H5B C5B 1_555 1_555
H6B C5B 1_555 1_555
C6B C5B 1_555 1_555
H7B C6B 1_555 1_555
H8B C6B 1_555 1_555
C7B C3B 1_555 1_555
H9B C7B 1_555 1_555
H10B C7B 1_555 1_555
C8B C3B 1_555 1_555
H11B C8B 1_555 1_555
H12B C8B 1_555 1_555
C9B O3B 1_555 1_555
C10D N1D 1_555 1_555
H13D C10D 1_555 1_555
C11D C10D 1_555 1_555
H14D C11D 1_555 1_555
C12D C12 1_555 1_555
C13D C12D 1_555 1_555
H15D C13D 1_555 1_555
C14D N1D 1_555 1_555
H16D C14D 1_555 1_555
C15B N2 1_555 1_555
H17B C15B 1_555 1_555
C16B C17 1_555 1_555
H18B C16B 1_555 1_555
C19B C18 1_555 1_555
H19B C19B 1_555 1_555
C20B N3 1_555 1_555
H20B C20B 1_555 1_555
O8D Co2 1_555 1_555
H27D O8D 1_555 1_555
H28D O8D 1_555 1_555
C6 C7 1_555 1_555
C8 C9 1_555 1_555
C13 C14 1_555 1_555
C6B C7B 1_555 1_555
C8B C9B 1_555 1_555
C11D C12D 1_555 1_555
C13D C14D 1_555 1_555
C15B C16B 1_555 1_555
C19B C20B 1_555 1_555

#END
