
#######################################################################
#
#                 Cambridge Crystallographic Data Centre
#                                CCDC 
#
#######################################################################
#
# If this CIF has been generated from an entry in the Cambridge 
# Structural Database, then it will include bibliographic, chemical, 
# crystal, experimental, refinement or atomic coordinate data resulting 
# from the CCDC's data processing and validation procedures.
#
#######################################################################

data_JIMXAE
_symmetry_cell_setting           triclinic
_symmetry_space_group_name_H-M   'P -1'
_symmetry_Int_Tables_number      2
_space_group_name_Hall           '-P 1'
loop_
_symmetry_equiv_pos_site_id
_symmetry_equiv_pos_as_xyz
1 x,y,z
2 -x,-y,-z
_cell_length_a                   9.448(4)
_cell_length_b                   12.146(4)
_cell_length_c                   12.974(5)
_cell_angle_alpha                71.56(3)
_cell_angle_beta                 98.45(3)
_cell_angle_gamma                98.62(3)
_cell_volume                     1388.55
loop_
_atom_site_label
_atom_site_type_symbol
_atom_site_fract_x
_atom_site_fract_y
_atom_site_fract_z
Nd1 Nd 0.2520(2) 0.0348(2) 0.4930(2)
C1 C -0.0103(35) 0.0926(26) 0.3150(29)
C2 C -0.0886(47) 0.1481(34) 0.1946(30)
C3 C -0.0576(63) 0.2727(30) 0.1417(30)
C4 C -0.0779(63) 0.3434(35) 0.2020(33)
C5 C -0.0567(88) 0.4699(46) 0.1466(48)
C6 C -0.0701(81) 0.5472(41) 0.1890(45)
C7 C -0.0801(50) 0.0699(35) 0.1268(33)
C8 C -0.0941(52) -0.0565(33) 0.1637(31)
C9 C 0.5217(33) 0.0411(23) 0.6678(25)
C10 C 0.6055(56) 0.0588(29) 0.7729(37)
C11 C 0.5963(63) -0.0470(41) 0.8646(30)
C12 C 0.5445(66) -0.1518(36) 0.8876(46)
C13 C 0.5476(83) -0.2412(42) 0.9847(34)
C14 C 0.5040(92) -0.3416(44) 1.0072(42)
C15 C 0.6520(73) 0.1755(42) 0.7695(39)
C16 C 0.6652(64) 0.2688(44) 0.6957(42)
C17 C 0.3775(47) 0.3159(33) 0.3170(28)
C18 C 0.4788(54) 0.4261(36) 0.3093(45)
C19 C 0.2210(41) 0.2838(32) 0.5722(41)
C20 C 0.1699(47) 0.3888(34) 0.5478(48)
O1 O 0.1283(25) 0.1086(17) 0.3085(15)
O2 O -0.0635(28) 0.0502(18) 0.3893(16)
O3 O 0.3943(23) 0.0566(16) 0.6592(17)
O4 O 0.5823(29) 0.0198(19) 0.6016(20)
O5 O 0.1348(30) -0.1589(20) 0.4615(22)
O6 O 0.3076(24) -0.1773(18) 0.5944(21)
O7 O 0.1950(31) -0.3321(19) 0.5530(24)
O8 O 0.4135(21) 0.2179(15) 0.4102(14)
O9 O 0.1566(21) 0.2020(15) 0.5230(15)
N1 N 0.2127(41) -0.2244(28) 0.5365(27)
O2A O 0.0635(28) -0.0502(18) 0.6107(16)
Nd1A Nd -0.2520(2) -0.0348(2) 0.5070(2)
O4A O 0.4177(29) -0.0198(19) 0.3984(20)
Nd1A_2 Nd 0.7480(2) -0.0348(2) 0.5070(2)
loop_
_geom_bond_atom_site_label_1
_geom_bond_atom_site_label_2
_geom_bond_site_symmetry_1
_geom_bond_site_symmetry_2
Nd1 O1 1_555 1_555
C1 C2 1_555 1_555
C2 C3 1_555 1_555
C3 C4 1_555 1_555
C4 C5 1_555 1_555
C5 C6 1_555 1_555
C7 C2 1_555 1_555
C8 C7 1_555 1_555
C9 C10 1_555 1_555
C10 C11 1_555 1_555
C11 C12 1_555 1_555
C12 C13 1_555 1_555
C13 C14 1_555 1_555
C15 C10 1_555 1_555
C16 C15 1_555 1_555
C17 C18 1_555 1_555
C19 C20 1_555 1_555
O1 C1 1_555 1_555
O2 C1 1_555 1_555
O3 Nd1 1_555 1_555
O4 C9 1_555 1_555
O5 Nd1 1_555 1_555
O6 Nd1 1_555 1_555
O7 N1 1_555 1_555
O8 Nd1 1_555 1_555
O9 Nd1 1_555 1_555
N1 O5 1_555 1_555
O2A Nd1 1_555 1_555
Nd1A O2 1_555 1_555
O4A Nd1 1_555 1_555
Nd1A_2 O4 1_555 1_555
C9 O3 1_555 1_555
C17 O8 1_555 1_555
C19 O9 1_555 1_555
O6 N1 1_555 1_555

#END
