
#######################################################################
#
#                 Cambridge Crystallographic Data Centre
#                                CCDC 
#
#######################################################################
#
# If this CIF has been generated from an entry in the Cambridge 
# Structural Database, then it will include bibliographic, chemical, 
# crystal, experimental, refinement or atomic coordinate data resulting 
# from the CCDC's data processing and validation procedures.
#
#######################################################################

data_JIPMOL
_symmetry_cell_setting           monoclinic
_symmetry_space_group_name_H-M   'C 2/c'
_symmetry_Int_Tables_number      15
_space_group_name_Hall           '-C 2yn'
loop_
_symmetry_equiv_pos_site_id
_symmetry_equiv_pos_as_xyz
1 x,y,z
2 1/2+x,1/2+y,z
3 -x,y,1/2-z
4 1/2-x,1/2+y,1/2-z
5 -x,-y,-z
6 1/2-x,1/2-y,-z
7 x,-y,1/2+z
8 1/2+x,1/2-y,1/2+z
_cell_length_a                   17.036(3)
_cell_length_b                   14.222(3)
_cell_length_c                   10.6451(15)
_cell_angle_alpha                90
_cell_angle_beta                 94.706(12)
_cell_angle_gamma                90
_cell_volume                     2570.46
loop_
_atom_site_label
_atom_site_type_symbol
_atom_site_fract_x
_atom_site_fract_y
_atom_site_fract_z
Fe1 Fe 1.0000 0.0000 0.5000
Fe2 Fe 1.0000 0.13217(6) 0.2500
O1 O 1.01631(18) 0.1353(2) 0.5605(3)
O2 O 1.08791(17) 0.0201(2) 0.3662(3)
O3 O 1.08224(17) 0.0440(2) 0.1622(3)
O4 O 1.0180(2) 0.2225(2) 0.3872(3)
C1 C 1.1771(2) -0.0667(3) 0.2510(4)
C2 C 1.1119(2) 0.0014(3) 0.2605(4)
C3 C 1.2033(3) -0.0880(3) 0.1345(5)
C4 C 1.0604(2) 0.2939(3) 0.5801(4)
C5 C 1.0291(2) 0.2113(3) 0.5051(4)
C6 C 1.0854(3) 0.2856(4) 0.7060(5)
C7 C 1.0643(3) 0.3812(3) 0.5217(5)
C8 C 1.2116(3) -0.1109(3) 0.3583(5)
C9 C 1.2628(3) -0.1532(4) 0.1248(7)
C10 C 1.1154(3) 0.3624(4) 0.7730(6)
C11 C 1.1187(4) 0.4481(4) 0.7154(6)
C12 C 1.0937(4) 0.4584(4) 0.5907(6)
C13 C 1.2715(3) -0.1756(4) 0.3461(8)
C14 C 1.2963(4) -0.1963(4) 0.2315(8)
H1 H 1.084(3) 0.227(3) 0.744(4)
H2 H 1.190(2) -0.100(3) 0.436(4)
H3 H 1.184(2) -0.057(3) 0.061(4)
H4 H 1.046(3) 0.387(3) 0.435(5)
H5 H 1.095(3) 0.519(4) 0.548(5)
H6 H 1.285(3) -0.167(4) 0.050(5)
H7 H 1.331(4) -0.243(4) 0.209(6)
H8 H 1.137(3) 0.505(4) 0.762(5)
H9 H 1.284(3) -0.203(4) 0.414(5)
H10 H 1.123(3) 0.358(4) 0.859(5)
Fe1F Fe 1.0000 0.0000 0.0000
Fe1F_2 Fe 1.0000 0.0000 1.0000
Fe2F Fe 1.0000 -0.13217(6) 0.7500
O1D O 0.98369(18) -0.1353(2) 0.4395(3)
O2D O 0.91209(17) -0.0201(2) 0.6338(3)
O3D O 0.91776(17) -0.0440(2) 0.8378(3)
O3F O 1.08224(17) -0.0440(2) 0.6622(3)
O3B O 0.91776(17) 0.0440(2) 0.3378(3)
O4D O 0.9820(2) -0.2225(2) 0.6128(3)
O4B O 0.9820(2) 0.2225(2) 0.1128(3)
C1D C 0.8229(2) 0.0667(3) 0.7490(4)
C2D C 0.8881(2) -0.0014(3) 0.7395(4)
C3D C 0.7967(3) 0.0880(3) 0.8655(5)
C4D C 0.9396(2) -0.2939(3) 0.4199(4)
C5D C 0.9709(2) -0.2113(3) 0.4949(4)
C6D C 0.9146(3) -0.2856(4) 0.2940(5)
C7D C 0.9357(3) -0.3812(3) 0.4783(5)
C8D C 0.7884(3) 0.1109(3) 0.6417(5)
C9D C 0.7372(3) 0.1532(4) 0.8752(7)
C10D C 0.8846(3) -0.3624(4) 0.2270(6)
C11D C 0.8813(4) -0.4481(4) 0.2846(6)
C12D C 0.9063(4) -0.4584(4) 0.4093(6)
C13D C 0.7285(3) 0.1756(4) 0.6539(8)
C14D C 0.7037(4) 0.1963(4) 0.7685(8)
H1D H 0.916(3) -0.227(3) 0.256(4)
H2D H 0.810(2) 0.100(3) 0.564(4)
H3D H 0.816(2) 0.057(3) 0.939(4)
H4D H 0.954(3) -0.387(3) 0.565(5)
H5D H 0.905(3) -0.519(4) 0.452(5)
H6D H 0.715(3) 0.167(4) 0.950(5)
H7D H 0.669(4) 0.243(4) 0.791(6)
H8D H 0.863(3) -0.505(4) 0.238(5)
H9D H 0.716(3) 0.203(4) 0.586(5)
H10D H 0.877(3) -0.358(4) 0.141(5)
loop_
_geom_bond_atom_site_label_1
_geom_bond_atom_site_label_2
_geom_bond_site_symmetry_1
_geom_bond_site_symmetry_2
Fe1 O1 1_555 1_555
Fe2 O3 1_555 1_555
O1 C5 1_555 1_555
O2 Fe1 1_555 1_555
O3 C2 1_555 1_555
O4 Fe2 1_555 1_555
C1 C2 1_555 1_555
C2 O2 1_555 1_555
C3 C1 1_555 1_555
C4 C5 1_555 1_555
C5 O4 1_555 1_555
C6 C4 1_555 1_555
C7 C4 1_555 1_555
C8 C1 1_555 1_555
C9 C3 1_555 1_555
C10 C6 1_555 1_555
C11 C10 1_555 1_555
C12 C7 1_555 1_555
C13 C8 1_555 1_555
C14 C9 1_555 1_555
H1 C6 1_555 1_555
H2 C8 1_555 1_555
H3 C3 1_555 1_555
H4 C7 1_555 1_555
H5 C12 1_555 1_555
H6 C9 1_555 1_555
H7 C14 1_555 1_555
H8 C11 1_555 1_555
H9 C13 1_555 1_555
H10 C10 1_555 1_555
Fe1F O3 1_555 1_555
Fe1F_2 O3D 1_555 1_555
Fe2F O3D 1_555 1_555
O1D Fe1 1_555 1_555
O2D Fe1 1_555 1_555
O3D C2D 1_555 1_555
O3F Fe1 1_555 1_555
O3B Fe1 1_555 1_555
O4D Fe2F 1_555 1_555
O4B Fe2 1_555 1_555
C1D C2D 1_555 1_555
C2D O2D 1_555 1_555
C3D C1D 1_555 1_555
C4D C5D 1_555 1_555
C5D O1D 1_555 1_555
C6D C4D 1_555 1_555
C7D C4D 1_555 1_555
C8D C1D 1_555 1_555
C9D C3D 1_555 1_555
C10D C6D 1_555 1_555
C11D C10D 1_555 1_555
C12D C7D 1_555 1_555
C13D C8D 1_555 1_555
C14D C9D 1_555 1_555
H1D C6D 1_555 1_555
H2D C8D 1_555 1_555
H3D C3D 1_555 1_555
H4D C7D 1_555 1_555
H5D C12D 1_555 1_555
H6D C9D 1_555 1_555
H7D C14D 1_555 1_555
H8D C11D 1_555 1_555
H9D C13D 1_555 1_555
H10D C10D 1_555 1_555
Fe2 O3B 1_555 1_555
C11 C12 1_555 1_555
C13 C14 1_555 1_555
Fe2F O3F 1_555 1_555
O4D C5D 1_555 1_555
C11D C12D 1_555 1_555
C13D C14D 1_555 1_555

#END
