
#######################################################################
#
#                 Cambridge Crystallographic Data Centre
#                                CCDC 
#
#######################################################################
#
# If this CIF has been generated from an entry in the Cambridge 
# Structural Database, then it will include bibliographic, chemical, 
# crystal, experimental, refinement or atomic coordinate data resulting 
# from the CCDC's data processing and validation procedures.
#
#######################################################################

data_JIPNUS
_symmetry_cell_setting           monoclinic
_symmetry_space_group_name_H-M   'P 21/c'
_symmetry_Int_Tables_number      14
_space_group_name_Hall           '-P 2ybc'
loop_
_symmetry_equiv_pos_site_id
_symmetry_equiv_pos_as_xyz
1 x,y,z
2 -x,1/2+y,1/2-z
3 -x,-y,-z
4 x,1/2-y,1/2+z
_cell_length_a                   19.4475(16)
_cell_length_b                   13.6200(7)
_cell_length_c                   15.3901(12)
_cell_angle_alpha                90
_cell_angle_beta                 108.483(6)
_cell_angle_gamma                90
_cell_volume                     3866.18
loop_
_atom_site_label
_atom_site_type_symbol
_atom_site_fract_x
_atom_site_fract_y
_atom_site_fract_z
Pr1 Pr 0.732280(11) 0.185341(15) 0.746817(13)
Pr2 Pr 0.756237(11) 0.224429(15) 0.493984(13)
O1 O 0.76784(15) 0.3070(2) 0.65373(19)
O2 O 0.68279(15) 0.3123(2) 0.81885(19)
C1 C 0.8220(2) 0.3600(3) 0.6488(3)
O3 O 0.75754(14) 0.09292(19) 0.62380(17)
O4 O 0.83443(15) 0.2441(2) 0.89760(19)
O5 O 0.71103(16) 0.1302(2) 0.90093(19)
O6 O 0.84925(15) 0.1045(2) 0.5686(2)
O7 O 0.70422(16) 0.4367(2) 0.91537(19)
O8 O 0.86106(17) 0.1506(3) 0.7964(2)
O9 O 0.61804(15) 0.1889(2) 0.63153(19)
O10 O 0.7166(2) 0.0174(2) 0.8026(2)
O11 O 0.63670(15) 0.2309(2) 0.5009(2)
O12 O 0.84349(17) 0.3519(2) 0.5808(2)
C2 C 0.5013(3) 0.5668(4) 0.6507(4)
H1 H 0.4638 0.6029 0.6107
C3 C 0.9759(2) 0.2092(3) 1.0271(3)
H2 H 0.9469 0.2545 1.0443
C4 C 0.6815(3) -0.2064(4) 0.9729(4)
H3 H 0.6826 -0.2726 0.9585
C5 C 0.7085(2) 0.0398(3) 0.8777(3)
C6 C 0.8309(2) -0.0504(3) 0.6294(3)
C7 C 0.5247(2) 0.1576(3) 0.4921(3)
C8 C 0.9528(2) 0.1676(3) 0.9399(3)
C9 C 0.6970(3) -0.1350(3) 0.9164(3)
H4 H 0.7087 -0.1532 0.8645
C10 C 0.9201(3) 0.5606(4) 0.8635(4)
H5 H 0.9419 0.6036 0.9112
C11 C 0.5978(2) 0.1953(3) 0.5451(3)
C12 C 1.0643(2) 0.0757(3) 0.9752(3)
H6 H 1.0941 0.0319 0.9576
C13 C 0.6946(2) -0.0367(3) 0.9388(3)
C14 C 0.4790(2) 0.1175(3) 0.5366(3)
H7 H 0.4921 0.1196 0.6002
C15 C 0.6783(2) -0.0097(3) 1.0173(3)
H8 H 0.6776 0.0563 1.0327
C16 C 0.9973(2) 0.1017(3) 0.9145(3)
H9 H 0.9819 0.0745 0.8561
C17 C 0.8129(2) 0.0541(3) 0.6077(2)
C18 C 0.6120(2) 0.4589(3) 0.7711(3)
C19 C 0.8003(2) -0.1045(3) 0.6836(3)
H10 H 0.7690 -0.0745 0.7103
C20 C 0.6630(3) -0.0815(4) 1.0726(3)
H11 H 0.6517 -0.0639 1.1249
C21 C 0.9279(2) 0.4598(3) 0.7392(3)
H12 H 0.9543 0.4359 0.7029
C22 C 0.8163(3) -0.2046(3) 0.6981(3)
H13 H 0.7959 -0.2410 0.7349
C23 C 0.6698(2) 0.4012(3) 0.8386(3)
C24 C 0.8171(3) 0.4675(4) 0.7778(3)
H14 H 0.7694 0.4480 0.7673
C25 C 0.4142(2) 0.0747(3) 0.4863(3)
H15 H 0.3837 0.0484 0.5161
C26 C 1.0428(3) 0.1826(4) 1.0882(3)
H16 H 1.0584 0.2097 1.1466
C27 C 0.8486(3) 0.5329(4) 0.8471(4)
H17 H 0.8221 0.5584 0.8826
C28 C 1.0864(2) 0.1160(4) 1.0624(3)
H18 H 1.1308 0.0980 1.1039
C29 C 0.8785(3) -0.0961(4) 0.5902(3)
H19 H 0.9001 -0.0598 0.5546
C30 C 0.5040(2) 0.1544(3) 0.3966(3)
H20 H 0.5339 0.1817 0.3663
C31 C 0.8560(2) 0.4303(3) 0.7234(3)
C32 C 0.3947(2) 0.0706(3) 0.3924(3)
H21 H 0.3514 0.0407 0.3591
C33 C 0.6647(3) -0.1789(4) 1.0494(3)
H22 H 0.6542 -0.2269 1.0863
C34 C 0.6046(3) 0.5586(3) 0.7860(3)
H23 H 0.6370 0.5895 0.8363
C35 C 0.4395(2) 0.1110(3) 0.3469(3)
H24 H 0.4259 0.1087 0.2833
C36 C 0.5642(2) 0.4137(3) 0.6945(3)
H25 H 0.5693 0.3473 0.6835
C37 C 0.8936(3) -0.1953(4) 0.6045(4)
H26 H 0.9248 -0.2258 0.5779
C38 C 0.9593(3) 0.5252(4) 0.8099(3)
H27 H 1.0070 0.5452 0.8211
C39 C 0.5491(3) 0.6118(4) 0.7259(3)
H28 H 0.5440 0.6783 0.7363
C40 C 0.8621(3) -0.2491(3) 0.6582(3)
H29 H 0.8721 -0.3158 0.6674
C41 C 0.8799(2) 0.1887(3) 0.8749(3)
C42 C 0.5088(3) 0.4683(4) 0.6345(3)
H30 H 0.4768 0.4383 0.5832
Pr2C Pr 0.756237(11) 0.275571(15) 0.993984(13)
O2C O 0.68279(15) 0.1877(2) 0.31885(19)
O4C O 0.83443(15) 0.2559(2) 0.39760(19)
O5C O 0.71103(16) 0.3698(2) 0.40093(19)
O7C O 0.70422(16) 0.0633(2) 0.41537(19)
loop_
_geom_bond_atom_site_label_1
_geom_bond_atom_site_label_2
_geom_bond_site_symmetry_1
_geom_bond_site_symmetry_2
Pr1 O1 1_555 1_555
Pr2 O1 1_555 1_555
O1 C1 1_555 1_555
O2 Pr1 1_555 1_555
C1 O12 1_555 1_555
O3 Pr1 1_555 1_555
O4 Pr1 1_555 1_555
O5 Pr1 1_555 1_555
O6 Pr2 1_555 1_555
O7 C23 1_555 1_555
O8 Pr1 1_555 1_555
O9 Pr1 1_555 1_555
O10 Pr1 1_555 1_555
O11 Pr2 1_555 1_555
O12 Pr2 1_555 1_555
C2 H1 1_555 1_555
C3 H2 1_555 1_555
C4 H3 1_555 1_555
C5 O5 1_555 1_555
C6 C17 1_555 1_555
C7 C11 1_555 1_555
C8 C3 1_555 1_555
C9 C4 1_555 1_555
H4 C9 1_555 1_555
C10 H5 1_555 1_555
C11 O9 1_555 1_555
C12 H6 1_555 1_555
C13 C5 1_555 1_555
C14 C7 1_555 1_555
H7 C14 1_555 1_555
C15 C13 1_555 1_555
H8 C15 1_555 1_555
C16 C8 1_555 1_555
H9 C16 1_555 1_555
C17 O3 1_555 1_555
C18 C23 1_555 1_555
C19 C6 1_555 1_555
H10 C19 1_555 1_555
C20 C15 1_555 1_555
H11 C20 1_555 1_555
C21 H12 1_555 1_555
C22 C19 1_555 1_555
H13 C22 1_555 1_555
C23 O2 1_555 1_555
C24 H14 1_555 1_555
C25 C14 1_555 1_555
H15 C25 1_555 1_555
C26 C3 1_555 1_555
H16 C26 1_555 1_555
C27 C10 1_555 1_555
H17 C27 1_555 1_555
C28 C12 1_555 1_555
H18 C28 1_555 1_555
C29 C6 1_555 1_555
H19 C29 1_555 1_555
C30 C7 1_555 1_555
H20 C30 1_555 1_555
C31 C1 1_555 1_555
C32 C25 1_555 1_555
H21 C32 1_555 1_555
C33 C4 1_555 1_555
H22 C33 1_555 1_555
C34 C18 1_555 1_555
H23 C34 1_555 1_555
C35 C30 1_555 1_555
H24 C35 1_555 1_555
C36 C18 1_555 1_555
H25 C36 1_555 1_555
C37 C29 1_555 1_555
H26 C37 1_555 1_555
C38 C10 1_555 1_555
H27 C38 1_555 1_555
C39 C2 1_555 1_555
H28 C39 1_555 1_555
C40 C22 1_555 1_555
H29 C40 1_555 1_555
C41 O4 1_555 1_555
C42 C2 1_555 1_555
H30 C42 1_555 1_555
Pr2C O2 1_555 1_555
O2C Pr2 1_555 1_555
O4C Pr2 1_555 1_555
O5C Pr2 1_555 1_555
O7C Pr2 1_555 1_555
Pr2 O3 1_555 1_555
O4 Pr2C 1_555 1_555
O5 Pr2C 1_555 1_555
O6 C17 1_555 1_555
O7 Pr2C 1_555 1_555
O8 C41 1_555 1_555
O10 C5 1_555 1_555
O11 C11 1_555 1_555
C8 C41 1_555 1_555
C9 C13 1_555 1_555
C12 C16 1_555 1_555
C20 C33 1_555 1_555
C21 C31 1_555 1_555
C21 C38 1_555 1_555
C24 C27 1_555 1_555
C24 C31 1_555 1_555
C26 C28 1_555 1_555
C32 C35 1_555 1_555
C34 C39 1_555 1_555
C36 C42 1_555 1_555
C37 C40 1_555 1_555

#END
