
#######################################################################
#
#                 Cambridge Crystallographic Data Centre
#                                CCDC 
#
#######################################################################
#
# If this CIF has been generated from an entry in the Cambridge 
# Structural Database, then it will include bibliographic, chemical, 
# crystal, experimental, refinement or atomic coordinate data resulting 
# from the CCDC's data processing and validation procedures.
#
#######################################################################

data_JIPPAA
_symmetry_cell_setting           monoclinic
_symmetry_space_group_name_H-M   'C c'
_symmetry_Int_Tables_number      9
_space_group_name_Hall           'C -2yc'
loop_
_symmetry_equiv_pos_site_id
_symmetry_equiv_pos_as_xyz
1 x,y,z
2 x,-y,1/2+z
3 1/2+x,1/2+y,z
4 1/2+x,1/2-y,1/2+z
_cell_length_a                   16.2071(17)
_cell_length_b                   17.118(2)
_cell_length_c                   8.6171(9)
_cell_angle_alpha                90
_cell_angle_beta                 119.216(7)
_cell_angle_gamma                90
_cell_volume                     2086.54
loop_
_atom_site_label
_atom_site_type_symbol
_atom_site_fract_x
_atom_site_fract_y
_atom_site_fract_z
Nd1 Nd -0.090155(15) 0.358517(11) 0.39723(2)
Nd2 Nd 0.169350(18) 0.251960(13) 0.69884(3)
O1 O 0.0374(3) 0.3156(2) 0.7027(5)
O2 O -0.0695(3) 0.3935(2) 0.7016(5)
O3 O -0.2171(3) 0.2888(2) 0.1069(5)
O4 O 0.0130(3) 0.2584(2) 0.3782(6)
O5 O 0.0443(2) 0.4247(2) 0.4173(6)
O6 O -0.1533(3) 0.2339(2) 0.4443(6)
O7 O 0.1863(3) 0.3705(2) 0.5780(6)
O8 O -0.2604(3) 0.1717(3) 0.4815(6)
O9 O -0.3720(3) 0.3393(2) 0.3755(6)
O10 O -0.1430(3) 0.3888(2) 0.0751(5)
C1 C 0.1719(2) 0.47758(18) 0.3900(5)
H1 H 0.1222 0.5107 0.3066
H2 H 0.2189 0.5088 0.4842
H3 H 0.2003 0.4503 0.3306
O11 O -0.1179(2) 0.49930(18) 0.3777(5)
C2 C -0.2005(3) 0.3343(3) 0.0070(6)
O12 O 0.0816(4) 0.1454(2) 0.4844(7)
C3 C -0.0565(5) 0.1437(4) 0.1980(10)
H4 H -0.1018 0.1813 0.1204
H5 H -0.0880 0.1045 0.2296
H6 H -0.0261 0.1196 0.1385
C4 C 0.0019(4) 0.3503(3) 0.7880(7)
C5 C 0.0161(4) 0.1839(3) 0.3627(7)
O13 O -0.2510(3) 0.3772(2) 0.3451(6)
C6 C 0.0448(4) 0.3385(4) 0.9842(8)
H7 H 0.0980 0.3039 1.0246
H8 H -0.0014 0.3162 1.0103
H9 H 0.0654 0.3879 1.0436
C7 C -0.3254(4) 0.4735(4) 0.4373(10)
H10 H -0.2770 0.5053 0.4356
H11 H -0.3178 0.4733 0.5550
H12 H -0.3864 0.4942 0.3553
C8 C -0.3174(3) 0.3920(3) 0.3845(7)
C9 C -0.1763(4) 0.1848(3) 0.5306(7)
C10 C -0.1003(5) 0.1431(6) 0.6841(13)
H13 H -0.0400 0.1609 0.7031
H14 H -0.1060 0.0880 0.6606
H15 H -0.1057 0.1533 0.7884
C11 C 0.1316(3) 0.4194(3) 0.4661(8)
C12 C -0.2520(5) 0.3207(4) -0.1911(8)
H16 H -0.2929 0.2762 -0.2182
H17 H -0.2069 0.3111 -0.2309
H18 H -0.2889 0.3659 -0.2503
Nd2C Nd -0.330650(18) 0.248040(13) 0.19884(3)
O3C O 0.2829(3) 0.2112(2) 0.6069(5)
O6C O 0.3467(3) 0.2661(2) 0.9443(6)
O8C O 0.2396(3) 0.3283(3) 0.9815(6)
O9C O 0.1280(3) 0.1607(2) 0.8755(6)
O13C O 0.2490(3) 0.1228(2) 0.8451(6)
loop_
_geom_bond_atom_site_label_1
_geom_bond_atom_site_label_2
_geom_bond_site_symmetry_1
_geom_bond_site_symmetry_2
Nd1 O1 1_555 1_555
Nd2 O1 1_555 1_555
O1 C4 1_555 1_555
O2 Nd1 1_555 1_555
O3 Nd1 1_555 1_555
O4 Nd1 1_555 1_555
O5 Nd1 1_555 1_555
O6 Nd1 1_555 1_555
O7 Nd2 1_555 1_555
O8 C9 1_555 1_555
O9 C8 1_555 1_555
O10 Nd1 1_555 1_555
C1 H1 1_555 1_555
H2 C1 1_555 1_555
H3 C1 1_555 1_555
O11 Nd1 1_555 1_555
C2 O3 1_555 1_555
O12 Nd2 1_555 1_555
C3 H4 1_555 1_555
H5 C3 1_555 1_555
H6 C3 1_555 1_555
C4 O2 1_555 1_555
C5 O4 1_555 1_555
O13 Nd1 1_555 1_555
C6 C4 1_555 1_555
H7 C6 1_555 1_555
H8 C6 1_555 1_555
H9 C6 1_555 1_555
C7 H10 1_555 1_555
H11 C7 1_555 1_555
H12 C7 1_555 1_555
C8 O13 1_555 1_555
C9 O6 1_555 1_555
C10 C9 1_555 1_555
H13 C10 1_555 1_555
H14 C10 1_555 1_555
H15 C10 1_555 1_555
C11 O5 1_555 1_555
C12 C2 1_555 1_555
H16 C12 1_555 1_555
H17 C12 1_555 1_555
H18 C12 1_555 1_555
Nd2C O3 1_555 1_555
O3C Nd2 1_555 1_555
O6C Nd2 1_555 1_555
O8C Nd2 1_555 1_555
O9C Nd2 1_555 1_555
O13C Nd2 1_555 1_555
Nd2 O4 1_555 1_555
O6 Nd2C 1_555 1_555
O7 C11 1_555 1_555
O8 Nd2C 1_555 1_555
O9 Nd2C 1_555 1_555
O10 C2 1_555 1_555
C1 C11 1_555 1_555
O12 C5 1_555 1_555
C3 C5 1_555 1_555
O13 Nd2C 1_555 1_555
C7 C8 1_555 1_555

#END
