
#######################################################################
#
#                 Cambridge Crystallographic Data Centre
#                                CCDC 
#
#######################################################################
#
# If this CIF has been generated from an entry in the Cambridge 
# Structural Database, then it will include bibliographic, chemical, 
# crystal, experimental, refinement or atomic coordinate data resulting 
# from the CCDC's data processing and validation procedures.
#
#######################################################################

data_JIQGEV
_symmetry_cell_setting           monoclinic
_symmetry_space_group_name_H-M   'P 21/c'
_symmetry_Int_Tables_number      14
_space_group_name_Hall           '-P 2ybc'
loop_
_symmetry_equiv_pos_site_id
_symmetry_equiv_pos_as_xyz
1 x,y,z
2 -x,1/2+y,1/2-z
3 -x,-y,-z
4 x,1/2-y,1/2+z
_cell_length_a                   9.012(4)
_cell_length_b                   5.743(5)
_cell_length_c                   12.594(5)
_cell_angle_alpha                90
_cell_angle_beta                 104.34(4)
_cell_angle_gamma                90
_cell_volume                     631.505
loop_
_atom_site_label
_atom_site_type_symbol
_atom_site_fract_x
_atom_site_fract_y
_atom_site_fract_z
Ag1 Ag -0.04134(6) -0.48516(6) 0.32972(3)
O1 O -0.0737(4) -0.0914(6) 0.3121(3)
C1 C -0.1792(6) 0.0366(7) 0.3338(4)
C2 C -0.2405(6) 0.0160(7) 0.4283(4)
N1 N -0.1905(5) -0.1622(7) 0.5082(3)
O2 O -0.0801(5) -0.2899(6) 0.5024(3)
O3 O -0.2552(5) -0.1881(8) 0.5825(3)
C3 C -0.3513(6) 0.1699(9) 0.4476(4)
C4 C -0.4051(7) 0.349(1) 0.3774(5)
C5 C -0.3517(7) 0.372(1) 0.2824(5)
C6 C -0.2464(7) 0.2203(9) 0.2613(4)
H1 H -0.392(6) 0.142(9) 0.502(4)
H2 H -0.476(8) 0.470(9) 0.389(6)
H3 H -0.394(7) 0.503(7) 0.240(4)
H4 H -0.222(7) 0.23(1) 0.202(5)
Ag1A Ag 0.04134(6) 0.01484(6) 0.17028(3)
Ag1_2 Ag -0.04134(6) 0.51484(6) 0.32972(3)
Ag1B Ag 0.04134(6) -0.51484(6) 0.67028(3)
O2B O 0.0801(5) -0.7101(6) 0.4976(3)
O1A O 0.0737(4) -0.5914(6) 0.1879(3)
C6_2 C -0.2464(7) -0.7797(9) 0.2613(4)
H4_2 H -0.222(7) -0.77(1) 0.202(5)
loop_
_geom_bond_atom_site_label_1
_geom_bond_atom_site_label_2
_geom_bond_site_symmetry_1
_geom_bond_site_symmetry_2
Ag1 O1 1_555 1_555
O1 C1 1_555 1_555
C1 C2 1_555 1_555
C2 N1 1_555 1_555
N1 O2 1_555 1_555
O2 Ag1 1_555 1_555
O3 N1 1_555 1_555
C3 C2 1_555 1_555
C4 C3 1_555 1_555
C5 C4 1_555 1_555
C6 C1 1_555 1_555
H1 C3 1_555 1_555
H2 C4 1_555 1_555
H3 C5 1_555 1_555
H4 C6 1_555 1_555
Ag1A O1 1_555 1_555
Ag1_2 C6 1_555 1_555
Ag1B O2 1_555 1_555
O2B Ag1 1_555 1_555
O1A Ag1 1_555 1_555
C6_2 Ag1 1_555 1_555
H4_2 C6_2 1_555 1_555
C5 C6 1_555 1_555
Ag1B O2B 1_555 1_555

#END
