
#######################################################################
#
#                 Cambridge Crystallographic Data Centre
#                                CCDC 
#
#######################################################################
#
# If this CIF has been generated from an entry in the Cambridge 
# Structural Database, then it will include bibliographic, chemical, 
# crystal, experimental, refinement or atomic coordinate data resulting 
# from the CCDC's data processing and validation procedures.
#
#######################################################################

data_JIQTAF
_symmetry_cell_setting           monoclinic
_symmetry_space_group_name_H-M   'C 2/c'
_symmetry_Int_Tables_number      15
_space_group_name_Hall           '-C 2yn'
loop_
_symmetry_equiv_pos_site_id
_symmetry_equiv_pos_as_xyz
1 x,y,z
2 1/2+x,1/2+y,z
3 -x,y,1/2-z
4 1/2-x,1/2+y,1/2-z
5 -x,-y,-z
6 1/2-x,1/2-y,-z
7 x,-y,1/2+z
8 1/2+x,1/2-y,1/2+z
_cell_length_a                   33.057(10)
_cell_length_b                   13.055(4)
_cell_length_c                   19.390(6)
_cell_angle_alpha                90
_cell_angle_beta                 124.669(4)
_cell_angle_gamma                90
_cell_volume                     6882.22
loop_
_atom_site_label
_atom_site_type_symbol
_atom_site_fract_x
_atom_site_fract_y
_atom_site_fract_z
Sm1 Sm 0.12987(3) 0.18847(4) 1.03146(4)
Ru1 Ru 0.32440(4) 0.22553(7) 1.29160(7)
Ru2 Ru 0.0000 -0.01053(10) 0.7500
C1 C 0.0906(5) 0.6261(9) 1.0602(8)
C2 C 0.0735(6) 0.7969(10) 1.0485(9)
H1 H 0.0812 0.8651 1.0691
C3 C 0.0294(6) 0.7785(9) 0.9737(9)
H2 H 0.0091 0.8354 0.9428
C4 C 0.0448(5) 0.6071(9) 0.9862(8)
C5 C 0.0317(5) 0.5008(9) 0.9597(8)
C6 C -0.0258(5) 0.3860(10) 0.8702(9)
H3 H -0.0582 0.3696 0.8243
C7 C 0.0083(5) 0.3052(10) 0.9109(9)
H4 H -0.0014 0.2371 0.8908
C8 C 0.0644(5) 0.4226(9) 1.0021(8)
C9 C 0.1132(5) 0.4432(9) 1.0763(8)
C10 C 0.1886(5) 0.3922(9) 1.1872(8)
H5 H 0.2124 0.3400 1.2177
C11 C 0.1997(5) 0.4917(9) 1.2190(8)
H6 H 0.2304 0.5045 1.2704
C12 C 0.1243(5) 0.5450(9) 1.1064(8)
C13 C 0.2907(5) 0.2440(11) 1.3516(9)
C14 C 0.2588(6) 0.2123(8) 1.1851(9)
C15 C 0.3225(5) 0.3746(10) 1.2758(9)
C16 C 0.3528(5) 0.2093(9) 1.2232(9)
C17 C -0.0255(5) -0.2290(9) 0.7137(7)
C18 C -0.0510(5) -0.3201(9) 0.6783(8)
C19 C -0.1169(5) -0.2307(10) 0.5822(9)
H7 H -0.1501 -0.2282 0.5348
C20 C -0.0920(5) -0.1368(9) 0.6173(8)
H8 H -0.1089 -0.0741 0.5930
C21 C -0.0253(5) -0.4163(9) 0.7152(7)
C22 C -0.0255(5) -0.5903(10) 0.7171(8)
H9 H -0.0422 -0.6547 0.6960
C23 C 0.0450(5) 0.0954(9) 0.8289(8)
C24 C -0.0272(5) -0.0078(8) 0.8223(8)
N1 N 0.1061(5) 0.7230(7) 1.0937(7)
N2 N 0.0136(4) 0.6853(7) 0.9422(7)
N3 N -0.0152(4) 0.4831(8) 0.8923(7)
N4 N 0.0537(4) 0.3232(7) 0.9769(6)
N5 N 0.1462(4) 0.3667(7) 1.1161(6)
N6 N 0.1685(4) 0.5698(7) 1.1796(6)
N7 N 0.2706(5) 0.2526(9) 1.3837(8)
N8 N 0.3227(4) 0.4635(8) 1.2672(8)
N9 N 0.2192(4) 0.2077(7) 1.1246(7)
N10 N 0.3674(5) 0.1963(9) 1.1813(8)
N11 N -0.0460(4) -0.1347(7) 0.6829(6)
N12 N -0.0508(4) -0.5059(7) 0.6835(6)
N13 N -0.0971(4) -0.3200(7) 0.6110(6)
N14 N 0.0696(4) 0.1537(8) 0.8807(7)
N15 N -0.0373(4) -0.0061(8) 0.8703(7)
O1 O 0.1377(4) 0.3317(6) 0.9633(6)
H10 H 0.1472 0.3935 0.9763
H11 H 0.1361 0.3224 0.9184
O2 O 0.1676(4) 0.1235(6) 0.9568(6)
H12 H 0.1941 0.1437 0.9635
H13 H 0.1440 0.1529 0.9130
O3 O 0.0602(4) 0.0861(6) 1.0146(6)
H14 H 0.0364 0.0508 0.9761
H15 H 0.0581 0.0743 1.0555
O4 O 0.1602(4) 0.0091(6) 1.0686(6)
H16 H 0.1791 0.0077 1.0521
H17 H 0.1791 0.0003 1.1213
O5 O 0.1403(4) 0.1619(6) 1.1646(6)
H18 H 0.1246 0.1918 1.1816
H19 H 0.1493 0.1042 1.1893
Sm1B Sm -0.12987(3) 0.18847(4) 0.46854(4)
Ru1B Ru -0.32440(4) 0.22553(7) 0.20840(7)
Ru1C Ru 0.17560(4) 0.72553(7) 1.20840(7)
Ru1A Ru -0.17560(4) 0.72553(7) 0.29160(7)
C1B C -0.0906(5) 0.6261(9) 0.4398(8)
C2B C -0.0735(6) 0.7969(10) 0.4515(9)
H1B H -0.0812 0.8651 0.4309
C3B C -0.0294(6) 0.7785(9) 0.5263(9)
H2B H -0.0091 0.8354 0.5572
C4B C -0.0448(5) 0.6071(9) 0.5138(8)
C5B C -0.0317(5) 0.5008(9) 0.5403(8)
C6B C 0.0258(5) 0.3860(10) 0.6298(9)
H3B H 0.0582 0.3696 0.6757
C7B C -0.0083(5) 0.3052(10) 0.5891(9)
H4B H 0.0014 0.2371 0.6092
C8B C -0.0644(5) 0.4226(9) 0.4979(8)
C9B C -0.1132(5) 0.4432(9) 0.4237(8)
C10B C -0.1886(5) 0.3922(9) 0.3128(8)
H5B H -0.2124 0.3400 0.2823
C11B C -0.1997(5) 0.4917(9) 0.2810(8)
H6B H -0.2304 0.5045 0.2296
C12B C -0.1243(5) 0.5450(9) 0.3936(8)
C13B C -0.2907(5) 0.2440(11) 0.1484(9)
C14B C -0.2588(6) 0.2123(8) 0.3149(9)
C15B C -0.3225(5) 0.3746(10) 0.2242(9)
C16B C -0.3528(5) 0.2093(9) 0.2768(9)
C17B C 0.0255(5) -0.2290(9) 0.7863(7)
C18B C 0.0510(5) -0.3201(9) 0.8217(8)
C19B C 0.1169(5) -0.2307(10) 0.9178(9)
H7B H 0.1501 -0.2282 0.9652
C20B C 0.0920(5) -0.1368(9) 0.8827(8)
H8B H 0.1089 -0.0741 0.9070
C21B C 0.0253(5) -0.4163(9) 0.7848(7)
C22B C 0.0255(5) -0.5903(10) 0.7829(8)
H9B H 0.0422 -0.6547 0.8040
C23B C -0.0450(5) 0.0954(9) 0.6711(8)
C24B C 0.0272(5) -0.0078(8) 0.6777(8)
N1B N -0.1061(5) 0.7230(7) 0.4063(7)
N1C N 0.3939(5) 0.2230(7) 1.4063(7)
N1A N -0.3939(5) 0.2230(7) 0.0937(7)
N2B N -0.0136(4) 0.6853(7) 0.5578(7)
N3B N 0.0152(4) 0.4831(8) 0.6077(7)
N4B N -0.0537(4) 0.3232(7) 0.5231(6)
N5B N -0.1462(4) 0.3667(7) 0.3839(6)
N6B N -0.1685(4) 0.5698(7) 0.3204(6)
N6C N 0.3315(4) 0.0698(7) 1.3204(6)
N6A N -0.3315(4) 0.0698(7) 0.1796(6)
N7B N -0.2706(5) 0.2526(9) 0.1163(8)
N8B N -0.3227(4) 0.4635(8) 0.2328(8)
N9B N -0.2192(4) 0.2077(7) 0.3754(7)
N10B N -0.3674(5) 0.1963(9) 0.3187(8)
N11B N 0.0460(4) -0.1347(7) 0.8171(6)
N12B N 0.0508(4) -0.5059(7) 0.8165(6)
N13B N 0.0971(4) -0.3200(7) 0.8890(6)
N14B N -0.0696(4) 0.1537(8) 0.6193(7)
N15B N 0.0373(4) -0.0061(8) 0.6297(7)
O1B O -0.1377(4) 0.3317(6) 0.5367(6)
H10B H -0.1472 0.3935 0.5237
H11B H -0.1361 0.3224 0.5816
O2B O -0.1676(4) 0.1235(6) 0.5432(6)
H12B H -0.1941 0.1437 0.5365
H13B H -0.1440 0.1529 0.5870
O3B O -0.0602(4) 0.0861(6) 0.4854(6)
H14B H -0.0364 0.0508 0.5239
H15B H -0.0581 0.0743 0.4445
O4B O -0.1602(4) 0.0091(6) 0.4314(6)
H16B H -0.1791 0.0077 0.4479
H17B H -0.1791 0.0003 0.3787
O5B O -0.1403(4) 0.1619(6) 0.3354(6)
H18B H -0.1246 0.1918 0.3184
H19B H -0.1493 0.1042 0.3107
O6 O 0.1674(4) 0.5260(7) 0.0033(6)
O7 O 0.2697(5) 0.5775(9) 0.0882(8)
O8 O 0.1503(4) 0.4503(7) 0.3137(7)
O9 O 0.2424(4) 0.9451(8) 0.0686(7)
O10 O 0.0921(4) 0.2899(7) 0.2076(6)
O11 O 0.2614(11) 0.165(2) 0.0047(18)
loop_
_geom_bond_atom_site_label_1
_geom_bond_atom_site_label_2
_geom_bond_site_symmetry_1
_geom_bond_site_symmetry_2
Sm1 N4 1_555 1_555
Ru1 C13 1_555 1_555
Ru2 C23 1_555 1_555
C1 C4 1_555 1_555
C2 H1 1_555 1_555
C3 C2 1_555 1_555
H2 C3 1_555 1_555
C4 C5 1_555 1_555
C5 C8 1_555 1_555
C6 H3 1_555 1_555
C7 C6 1_555 1_555
H4 C7 1_555 1_555
C8 C9 1_555 1_555
C9 C12 1_555 1_555
C10 H5 1_555 1_555
C11 C10 1_555 1_555
H6 C11 1_555 1_555
C12 C1 1_555 1_555
C13 N7 1_555 1_555
C14 Ru1 1_555 1_555
C15 Ru1 1_555 1_555
C16 Ru1 1_555 1_555
C17 C18 1_555 1_555
C18 C21 1_555 1_555
C19 H7 1_555 1_555
C20 C19 1_555 1_555
H8 C20 1_555 1_555
C21 N12 1_555 1_555
C22 H9 1_555 1_555
C23 N14 1_555 1_555
C24 Ru2 1_555 1_555
N1 C1 1_555 1_555
N2 C3 1_555 1_555
N3 C5 1_555 1_555
N4 C7 1_555 1_555
N5 Sm1 1_555 1_555
N6 C11 1_555 1_555
N8 C15 1_555 1_555
N9 Sm1 1_555 1_555
N10 C16 1_555 1_555
N11 Ru2 1_555 1_555
N12 C22 1_555 1_555
N13 C18 1_555 1_555
N14 Sm1 1_555 1_555
N15 C24 1_555 1_555
O1 Sm1 1_555 1_555
H10 O1 1_555 1_555
H11 O1 1_555 1_555
O2 Sm1 1_555 1_555
H12 O2 1_555 1_555
H13 O2 1_555 1_555
O3 Sm1 1_555 1_555
H14 O3 1_555 1_555
H15 O3 1_555 1_555
O4 Sm1 1_555 1_555
H16 O4 1_555 1_555
H17 O4 1_555 1_555
O5 Sm1 1_555 1_555
H18 O5 1_555 1_555
H19 O5 1_555 1_555
Sm1B N4B 1_555 1_555
Ru1B C13B 1_555 1_555
Ru1C N1 1_555 1_555
Ru1A N1B 1_555 1_555
C1B C4B 1_555 1_555
C2B H1B 1_555 1_555
C3B C2B 1_555 1_555
H2B C3B 1_555 1_555
C4B C5B 1_555 1_555
C5B C8B 1_555 1_555
C6B H3B 1_555 1_555
C7B C6B 1_555 1_555
H4B C7B 1_555 1_555
C8B C9B 1_555 1_555
C9B C12B 1_555 1_555
C10B H5B 1_555 1_555
C11B C10B 1_555 1_555
H6B C11B 1_555 1_555
C12B C1B 1_555 1_555
C13B N7B 1_555 1_555
C14B Ru1B 1_555 1_555
C15B Ru1B 1_555 1_555
C16B Ru1B 1_555 1_555
C17B C17 1_555 1_555
C18B C17B 1_555 1_555
C19B H7B 1_555 1_555
C20B C19B 1_555 1_555
H8B C20B 1_555 1_555
C21B C21 1_555 1_555
C22B C22 1_555 1_555
H9B C22B 1_555 1_555
C23B Ru2 1_555 1_555
C24B Ru2 1_555 1_555
N1B C1B 1_555 1_555
N1C Ru1 1_555 1_555
N1A Ru1B 1_555 1_555
N2B C3B 1_555 1_555
N3B C5B 1_555 1_555
N4B C7B 1_555 1_555
N5B Sm1B 1_555 1_555
N6B Ru1A 1_555 1_555
N6C Ru1 1_555 1_555
N6A Ru1B 1_555 1_555
N8B C15B 1_555 1_555
N9B Sm1B 1_555 1_555
N10B C16B 1_555 1_555
N11B Ru2 1_555 1_555
N12B C21B 1_555 1_555
N13B C18B 1_555 1_555
N14B Sm1B 1_555 1_555
N15B C24B 1_555 1_555
O1B Sm1B 1_555 1_555
H10B O1B 1_555 1_555
H11B O1B 1_555 1_555
O2B Sm1B 1_555 1_555
H12B O2B 1_555 1_555
H13B O2B 1_555 1_555
O3B Sm1B 1_555 1_555
H14B O3B 1_555 1_555
H15B O3B 1_555 1_555
O4B Sm1B 1_555 1_555
H16B O4B 1_555 1_555
H17B O4B 1_555 1_555
O5B Sm1B 1_555 1_555
H18B O5B 1_555 1_555
H19B O5B 1_555 1_555
C2 N1 1_555 1_555
C4 N2 1_555 1_555
C6 N3 1_555 1_555
C8 N4 1_555 1_555
C9 N5 1_555 1_555
C10 N5 1_555 1_555
C12 N6 1_555 1_555
C14 N9 1_555 1_555
C17 N11 1_555 1_555
C19 N13 1_555 1_555
C20 N11 1_555 1_555
N6 Ru1C 1_555 1_555
C2B N1B 1_555 1_555
C4B N2B 1_555 1_555
C6B N3B 1_555 1_555
C8B N4B 1_555 1_555
C9B N5B 1_555 1_555
C10B N5B 1_555 1_555
C11B N6B 1_555 1_555
C12B N6B 1_555 1_555
C14B N9B 1_555 1_555
C17B N11B 1_555 1_555
C18B C21B 1_555 1_555
C19B N13B 1_555 1_555
C20B N11B 1_555 1_555
C22B N12B 1_555 1_555
C23B N14B 1_555 1_555

#END
