
#######################################################################
#
#                 Cambridge Crystallographic Data Centre
#                                CCDC 
#
#######################################################################
#
# If this CIF has been generated from an entry in the Cambridge 
# Structural Database, then it will include bibliographic, chemical, 
# crystal, experimental, refinement or atomic coordinate data resulting 
# from the CCDC's data processing and validation procedures.
#
#######################################################################

data_JISGOH
_symmetry_cell_setting           tetragonal
_symmetry_space_group_name_H-M   'I 41/a'
_symmetry_Int_Tables_number      88
_space_group_name_Hall           '-I 4ad'
loop_
_symmetry_equiv_pos_site_id
_symmetry_equiv_pos_as_xyz
1 x,y,z
2 1/2+x,1/2+y,1/2+z
3 3/4-y,1/4+x,1/4+z
4 1/4-y,3/4+x,3/4+z
5 1/2-x,-y,1/2+z
6 -x,1/2-y,z
7 3/4+y,3/4-x,3/4+z
8 1/4+y,1/4-x,1/4+z
9 -x,-y,-z
10 1/2-x,1/2-y,1/2-z
11 1/4+y,3/4-x,3/4-z
12 3/4+y,1/4-x,1/4-z
13 1/2+x,y,1/2-z
14 x,1/2+y,-z
15 1/4-y,1/4+x,1/4-z
16 3/4-y,3/4+x,3/4-z
_cell_length_a                   15.517(4)
_cell_length_b                   15.517(4)
_cell_length_c                   10.031(1)
_cell_angle_alpha                90
_cell_angle_beta                 90
_cell_angle_gamma                90
_cell_volume                     2415.24
loop_
_atom_site_label
_atom_site_type_symbol
_atom_site_fract_x
_atom_site_fract_y
_atom_site_fract_z
Mn1 Mn 0.0000 0.0000 0.0000
N1 N 0.0448(3) 0.0836(3) 0.1624(4)
N2 N 0.1041(2) 0.1109(2) 0.2169(3)
N3 N -0.1112(3) 0.0879(2) -0.0276(4)
N4 N 0.0786(2) 0.0773(2) -0.1471(3)
C1 C 0.1273(3) 0.0412(3) -0.2404(5)
C2 C 0.1733(3) 0.0879(3) -0.3322(5)
C3 C 0.1698(3) 0.1761(3) -0.3269(5)
C4 C 0.1207(3) 0.2140(3) -0.2312(5)
C5 C 0.0761(3) 0.1631(3) -0.1427(5)
H1 H 0.1309 -0.0283 -0.2444
H2 H 0.2116 0.0558 -0.4072
H3 H 0.2053 0.2148 -0.3975
H4 H 0.1167 0.2834 -0.2246
H5 H 0.0375 0.1938 -0.0668
N3N N 0.1621(2) 0.1388(3) 0.2776(4)
Mn1N Mn 0.2500 0.2500 0.2500
Mn1K Mn -0.2500 0.2500 0.2500
N1K N -0.1664(3) 0.2052(3) 0.0876(4)
N2K N -0.1391(2) 0.1459(2) 0.0331(3)
N1H N -0.0448(3) -0.0836(3) -0.1624(4)
N3H N 0.1112(3) -0.0879(2) 0.0276(4)
N4H N -0.0786(2) -0.0773(2) 0.1471(3)
C1H C -0.1273(3) -0.0412(3) 0.2404(5)
C2H C -0.1733(3) -0.0879(3) 0.3322(5)
C3H C -0.1698(3) -0.1761(3) 0.3269(5)
C4H C -0.1207(3) -0.2140(3) 0.2312(5)
C5H C -0.0761(3) -0.1631(3) 0.1427(5)
H5H H -0.0375 -0.1938 0.0668
H4H H -0.1167 -0.2834 0.2246
H3H H -0.2053 -0.2148 0.3975
H2H H -0.2116 -0.0558 0.4072
H1H H -0.1309 0.0283 0.2444
loop_
_geom_bond_atom_site_label_1
_geom_bond_atom_site_label_2
_geom_bond_site_symmetry_1
_geom_bond_site_symmetry_2
Mn1 N1 1_555 1_555
N1 N2 1_555 1_555
N2 N3N 1_555 1_555
N3 Mn1 1_555 1_555
N4 Mn1 1_555 1_555
C1 N4 1_555 1_555
C2 C1 1_555 1_555
C3 C2 1_555 1_555
C4 C3 1_555 1_555
C5 N4 1_555 1_555
H1 C1 1_555 1_555
H2 C2 1_555 1_555
H3 C3 1_555 1_555
H4 C4 1_555 1_555
H5 C5 1_555 1_555
N3N Mn1N 1_555 1_555
Mn1K N1K 1_555 1_555
N1K N2K 1_555 1_555
N2K N3 1_555 1_555
N1H Mn1 1_555 1_555
N3H Mn1 1_555 1_555
N4H Mn1 1_555 1_555
C1H N4H 1_555 1_555
C2H C1H 1_555 1_555
C3H C2H 1_555 1_555
C4H C3H 1_555 1_555
C5H N4H 1_555 1_555
H5H C5H 1_555 1_555
H4H C4H 1_555 1_555
H3H C3H 1_555 1_555
H2H C2H 1_555 1_555
H1H C1H 1_555 1_555
C4 C5 1_555 1_555
C4H C5H 1_555 1_555

#END
