
#######################################################################
#
#                 Cambridge Crystallographic Data Centre
#                                CCDC 
#
#######################################################################
#
# If this CIF has been generated from an entry in the Cambridge 
# Structural Database, then it will include bibliographic, chemical, 
# crystal, experimental, refinement or atomic coordinate data resulting 
# from the CCDC's data processing and validation procedures.
#
#######################################################################

data_JISSOU
_symmetry_cell_setting           monoclinic
_symmetry_space_group_name_H-M   'P 21/c'
_symmetry_Int_Tables_number      14
_space_group_name_Hall           '-P 2ybc'
loop_
_symmetry_equiv_pos_site_id
_symmetry_equiv_pos_as_xyz
1 x,y,z
2 -x,1/2+y,1/2-z
3 -x,-y,-z
4 x,1/2-y,1/2+z
_cell_length_a                   8.3969(17)
_cell_length_b                   13.432(3)
_cell_length_c                   7.2527(15)
_cell_angle_alpha                90
_cell_angle_beta                 103.51(3)
_cell_angle_gamma                90
_cell_volume                     795.376
loop_
_atom_site_label
_atom_site_type_symbol
_atom_site_fract_x
_atom_site_fract_y
_atom_site_fract_z
La1 La 0.49869(3) 0.919043(19) 0.24264(3)
S1 S 1.15515(16) 0.58736(8) 0.28418(16)
P1 P 0.63942(15) 0.64512(9) 0.27747(14)
O1 O 0.5790(9) 0.7509(2) 0.2568(5)
O2 O 0.5813(5) 0.5863(2) 0.4309(5)
O3 O 0.5879(5) 0.5812(2) 0.0979(5)
O4 O 1.1611(7) 0.6758(3) 0.1699(6)
O5 O 1.2198(4) 0.4998(3) 0.2047(5)
O6 O 1.2319(5) 0.6038(3) 0.4838(5)
O7 O 0.2618(5) 0.8502(3) 0.3498(5)
C1 C 0.8621(8) 0.6520(4) 0.3351(9)
H1 H 0.8946 0.7122 0.2798
H2 H 0.9010 0.6571 0.4716
C2 C 0.9444(7) 0.5636(4) 0.2658(7)
H3 H 0.8910 0.5497 0.1347
H4 H 0.9328 0.5053 0.3407
La1C La 0.49869(3) 0.580957(19) 0.74264(3)
La1A La 0.50131(3) 0.419043(19) 0.25736(3)
La1C_2 La 0.49869(3) 0.580957(19) -0.25736(3)
La1A_2 La 1.50131(3) 0.419043(19) 0.25736(3)
La1C_3 La 1.49869(3) 0.580957(19) 0.74264(3)
O2C O 0.5813(5) 0.9137(2) -0.0691(5)
O2A O 0.4187(5) 1.0863(2) 0.0691(5)
O3C O 0.5879(5) 0.9188(2) 0.5979(5)
O3A O 0.4121(5) 1.0812(2) 0.4021(5)
O5A O 0.7802(4) 0.9998(3) 0.2953(5)
O6C O 0.2319(5) 0.8962(3) -0.0162(5)
loop_
_geom_bond_atom_site_label_1
_geom_bond_atom_site_label_2
_geom_bond_site_symmetry_1
_geom_bond_site_symmetry_2
La1 O1 1_555 1_555
S1 O4 1_555 1_555
P1 O1 1_555 1_555
O2 P1 1_555 1_555
O3 P1 1_555 1_555
O5 S1 1_555 1_555
O6 S1 1_555 1_555
O7 La1 1_555 1_555
C1 P1 1_555 1_555
H1 C1 1_555 1_555
H2 C1 1_555 1_555
C2 S1 1_555 1_555
H3 C2 1_555 1_555
H4 C2 1_555 1_555
La1C O2 1_555 1_555
La1A O2 1_555 1_555
La1C_2 O3 1_555 1_555
La1A_2 O5 1_555 1_555
La1C_3 O6 1_555 1_555
O2C La1 1_555 1_555
O2A La1 1_555 1_555
O3C La1 1_555 1_555
O3A La1 1_555 1_555
O5A La1 1_555 1_555
O6C La1 1_555 1_555
O3 La1A 1_555 1_555
C1 C2 1_555 1_555

#END
