
#######################################################################
#
#                 Cambridge Crystallographic Data Centre
#                                CCDC 
#
#######################################################################
#
# If this CIF has been generated from an entry in the Cambridge 
# Structural Database, then it will include bibliographic, chemical, 
# crystal, experimental, refinement or atomic coordinate data resulting 
# from the CCDC's data processing and validation procedures.
#
#######################################################################

data_JISYEQ
_symmetry_cell_setting           triclinic
_symmetry_space_group_name_H-M   'P -1'
_symmetry_Int_Tables_number      2
_space_group_name_Hall           '-P 1'
loop_
_symmetry_equiv_pos_site_id
_symmetry_equiv_pos_as_xyz
1 x,y,z
2 -x,-y,-z
_cell_length_a                   8.90360(40)
_cell_length_b                   9.04540(29)
_cell_length_c                   14.94310(70)
_cell_angle_alpha                89.4364(26)
_cell_angle_beta                 81.5878(23)
_cell_angle_gamma                85.8290(27)
_cell_volume                     1187.37
loop_
_atom_site_label
_atom_site_type_symbol
_atom_site_fract_x
_atom_site_fract_y
_atom_site_fract_z
Fe1 Fe 0.0000 0.0000 0.0000
Fe2 Fe -0.5000 0.0000 0.5000
N1 N -0.4172(2) -0.2225(2) 0.45498(15)
C1 C -0.5200(3) -0.2981(3) 0.41758(17)
C2 C -0.6688(3) -0.2294(3) 0.41657(18)
C3 C -0.4833(4) -0.4421(3) 0.3802(2)
N2 N -0.7007(2) -0.0841(2) 0.45647(16)
N3 N -0.3881(4) 0.1818(3) 0.21210(19)
N4 N 0.0527(3) 0.2108(3) -0.06417(16)
C4 C 0.1420(3) 0.2920(3) -0.01920(19)
C5 C -0.4073(3) 0.1196(3) 0.29130(18)
C6 C 0.1896(3) 0.2335(3) 0.06095(19)
C7 C -0.2851(3) 0.1304(3) 0.14705(18)
C8 C -0.7734(4) -0.3024(4) 0.3799(2)
N5 N 0.1404(3) 0.0893(3) 0.09030(17)
C9 C 0.1880(4) 0.4327(3) -0.0509(2)
N6 N -0.1992(3) 0.0984(3) 0.08457(19)
N7 N -0.4365(3) 0.0795(3) 0.36427(17)
C10 C -0.2806(3) -0.2887(4) 0.4573(2)
C11 C -0.3356(4) -0.5069(3) 0.3841(2)
C12 C 0.2801(5) 0.3106(4) 0.1072(2)
C13 C -0.2358(4) -0.4308(4) 0.4229(2)
C14 C -0.5955(5) -0.5127(4) 0.3435(3)
C15 C 0.2778(5) 0.5103(4) -0.0012(3)
C16 C -0.7369(5) -0.4449(4) 0.3429(3)
C17 C 0.0119(5) 0.2651(4) -0.1398(2)
C19 C 0.1404(4) 0.4849(4) -0.1319(3)
C20 C 0.0543(5) 0.4033(5) -0.1760(3)
C21 C 0.3229(6) 0.4506(5) 0.0759(3)
H1 H -0.8705 -0.2565 0.3808
H2 H -0.2116 -0.2366 0.4817
H3 H -0.3076 -0.6014 0.3606
H4 H 0.3142 0.2692 0.1594
H5 H -0.1382 -0.4739 0.4275
H6 H -0.5741 -0.6072 0.3198
H7 H 0.3080 0.6027 -0.0228
H8 H -0.8102 -0.4956 0.3188
H9 H -0.0469 0.2078 -0.1702
H10 H 0.1701 0.5766 -0.1554
H11 H 0.0232 0.4358 -0.2301
H12 H 0.3829 0.5019 0.1083
H13 H -0.7362 -0.0227 0.4169
H14 H 0.0859 0.0999 0.1443
H15 H -0.7751 -0.0873 0.5019
H16 H 0.2208 0.0288 0.0926
Fe2_2 Fe 0.5000 0.0000 -0.5000
N1A N -0.5828(2) 0.2225(2) 0.54502(15)
C1A C -0.4800(3) 0.2981(3) 0.58242(17)
C2A C -0.3312(3) 0.2294(3) 0.58343(18)
C3A C -0.5167(4) 0.4421(3) 0.6198(2)
N2A N -0.2993(2) 0.0841(2) 0.54353(16)
N3A N 0.3881(4) -0.1818(3) -0.21210(19)
N4A N -0.0527(3) -0.2108(3) 0.06417(16)
C4A C -0.1420(3) -0.2920(3) 0.01920(19)
C5A C 0.4073(3) -0.1196(3) -0.29130(18)
C6A C -0.1896(3) -0.2335(3) -0.06095(19)
C7A C 0.2851(3) -0.1304(3) -0.14705(18)
C8A C -0.2266(4) 0.3024(4) 0.6201(2)
N5A N -0.1404(3) -0.0893(3) -0.09030(17)
C9A C -0.1880(4) -0.4327(3) 0.0509(2)
N6A N 0.1992(3) -0.0984(3) -0.08457(19)
N7A N 0.4365(3) -0.0795(3) -0.36427(17)
N7A_2 N -0.5635(3) -0.0795(3) 0.63573(17)
C10A C -0.7194(3) 0.2887(4) 0.5427(2)
C11A C -0.6644(4) 0.5069(3) 0.6159(2)
C12A C -0.2801(5) -0.3106(4) -0.1072(2)
C13A C -0.7642(4) 0.4308(4) 0.5771(2)
C14A C -0.4045(5) 0.5127(4) 0.6565(3)
C15A C -0.2778(5) -0.5103(4) 0.0012(3)
C16A C -0.2631(5) 0.4449(4) 0.6571(3)
C17A C -0.0119(5) -0.2651(4) 0.1398(2)
C19A C -0.1404(4) -0.4849(4) 0.1319(3)
C20A C -0.0543(5) -0.4033(5) 0.1760(3)
C21A C -0.3229(6) -0.4506(5) -0.0759(3)
H1A H -0.1295 0.2565 0.6192
H2A H -0.7884 0.2366 0.5183
H3A H -0.6924 0.6014 0.6394
H4A H -0.3142 -0.2692 -0.1594
H5A H -0.8618 0.4739 0.5725
H6A H -0.4259 0.6072 0.6802
H7A H -0.3080 -0.6027 0.0228
H8A H -0.1898 0.4956 0.6812
H9A H 0.0469 -0.2078 0.1702
H10A H -0.1701 -0.5766 0.1554
H11A H -0.0232 -0.4358 0.2301
H12A H -0.3829 -0.5019 -0.1083
H13A H -0.2638 0.0227 0.5831
H14A H -0.0859 -0.0999 -0.1443
H15A H -0.2249 0.0873 0.4981
H16A H -0.2208 -0.0288 -0.0926
Cl1 Cl 0.02788(9) 0.15478(9) 0.33691(5)
O1 O 0.1883(3) 0.1349(5) 0.3160(2)
O2 O -0.0152(5) 0.1937(9) 0.4240(3)
O3 O -0.0325(5) 0.2500(6) 0.2774(3)
O4 O -0.0309(7) 0.0233(6) 0.3295(7)
C18 C -0.5155(7) -0.1803(6) 0.1563(5)
O5 O -0.5608(12) -0.1156(17) 0.0817(7)
H17 H -0.6468 -0.0579 0.0838
H22 H -0.4179 -0.2391 0.1389
H23 H -0.5944 -0.2472 0.1853
H24 H -0.5020 -0.1032 0.2028
O6? O -0.6517(10) -0.1053(12) 0.1748(6)
H18? H -0.7175 -0.0451 0.1483
H19? H -0.4945 -0.2327 0.2129
H20? H -0.5181 -0.2532 0.1076
H21? H -0.4359 -0.1097 0.1375
loop_
_geom_bond_atom_site_label_1
_geom_bond_atom_site_label_2
_geom_bond_site_symmetry_1
_geom_bond_site_symmetry_2
Fe1 N4 1_555 1_555
Fe2 N1 1_555 1_555
Cl1 O1 1_555 1_555
N1 C1 1_555 1_555
C1 C2 1_555 1_555
C2 N2 1_555 1_555
C3 C1 1_555 1_555
N2 Fe2 1_555 1_555
N3 C5 1_555 1_555
N4 C4 1_555 1_555
C4 C6 1_555 1_555
C5 N7 1_555 1_555
C6 N5 1_555 1_555
C7 N3 1_555 1_555
C8 C2 1_555 1_555
N5 Fe1 1_555 1_555
O2 Cl1 1_555 1_555
C9 C4 1_555 1_555
N6 Fe1 1_555 1_555
N7 Fe2 1_555 1_555
C10 N1 1_555 1_555
O3 Cl1 1_555 1_555
C11 C3 1_555 1_555
C12 C6 1_555 1_555
C13 C10 1_555 1_555
C14 C3 1_555 1_555
C15 C9 1_555 1_555
C16 C8 1_555 1_555
C17 N4 1_555 1_555
C18 O5 1_555 1_555
C19 C9 1_555 1_555
C20 C17 1_555 1_555
C21 C12 1_555 1_555
O4 Cl1 1_555 1_555
O5 H17 1_555 1_555
H1 C8 1_555 1_555
H2 C10 1_555 1_555
H3 C11 1_555 1_555
H4 C12 1_555 1_555
H5 C13 1_555 1_555
H6 C14 1_555 1_555
H7 C15 1_555 1_555
H8 C16 1_555 1_555
H9 C17 1_555 1_555
H10 C19 1_555 1_555
H11 C20 1_555 1_555
H12 C21 1_555 1_555
H13 N2 1_555 1_555
H14 N5 1_555 1_555
H15 N2 1_555 1_555
H16 N5 1_555 1_555
H22 C18 1_555 1_555
H23 C18 1_555 1_555
H24 C18 1_555 1_555
Fe2_2 N7A 1_555 1_555
N1A Fe2 1_555 1_555
C1A N1A 1_555 1_555
C2A C1A 1_555 1_555
C3A C1A 1_555 1_555
N2A Fe2 1_555 1_555
N3A C5A 1_555 1_555
N4A Fe1 1_555 1_555
C4A N4A 1_555 1_555
C5A N7A 1_555 1_555
C6A C4A 1_555 1_555
C7A N3A 1_555 1_555
C8A C2A 1_555 1_555
N5A Fe1 1_555 1_555
C9A C4A 1_555 1_555
N6A Fe1 1_555 1_555
N7A_2 Fe2 1_555 1_555
C10A N1A 1_555 1_555
C11A C3A 1_555 1_555
C12A C6A 1_555 1_555
C13A C10A 1_555 1_555
C14A C3A 1_555 1_555
C15A C9A 1_555 1_555
C16A C8A 1_555 1_555
C17A N4A 1_555 1_555
C19A C9A 1_555 1_555
C20A C17A 1_555 1_555
C21A C12A 1_555 1_555
H1A C8A 1_555 1_555
H2A C10A 1_555 1_555
H3A C11A 1_555 1_555
H4A C12A 1_555 1_555
H5A C13A 1_555 1_555
H6A C14A 1_555 1_555
H7A C15A 1_555 1_555
H8A C16A 1_555 1_555
H9A C17A 1_555 1_555
H10A C19A 1_555 1_555
H11A C20A 1_555 1_555
H12A C21A 1_555 1_555
H13A N2A 1_555 1_555
H14A N5A 1_555 1_555
H15A N2A 1_555 1_555
H16A N5A 1_555 1_555
C7 N6 1_555 1_555
C11 C13 1_555 1_555
C14 C16 1_555 1_555
C15 C21 1_555 1_555
C19 C20 1_555 1_555
C2A N2A 1_555 1_555
C6A N5A 1_555 1_555
C7A N6A 1_555 1_555
C11A C13A 1_555 1_555
C14A C16A 1_555 1_555
C15A C21A 1_555 1_555
C19A C20A 1_555 1_555

#END
