
#######################################################################
#
#                 Cambridge Crystallographic Data Centre
#                                CCDC 
#
#######################################################################
#
# If this CIF has been generated from an entry in the Cambridge 
# Structural Database, then it will include bibliographic, chemical, 
# crystal, experimental, refinement or atomic coordinate data resulting 
# from the CCDC's data processing and validation procedures.
#
#######################################################################

data_JITFOI
_symmetry_cell_setting           monoclinic
_symmetry_space_group_name_H-M   'P 21/c'
_symmetry_Int_Tables_number      14
_space_group_name_Hall           '-P 2ybc'
loop_
_symmetry_equiv_pos_site_id
_symmetry_equiv_pos_as_xyz
1 x,y,z
2 -x,1/2+y,1/2-z
3 -x,-y,-z
4 x,1/2-y,1/2+z
_cell_length_a                   9.663(2)
_cell_length_b                   10.332(3)
_cell_length_c                   23.208(6)
_cell_angle_alpha                90
_cell_angle_beta                 100.398(4)
_cell_angle_gamma                90
_cell_volume                     2278.99
loop_
_atom_site_label
_atom_site_type_symbol
_atom_site_fract_x
_atom_site_fract_y
_atom_site_fract_z
Cd1 Cd -0.48945(2) -0.31908(2) 0.059460(10)
O1 O -0.5687(3) 0.1798(2) -0.14384(11)
O2 O -0.4724(2) 0.0977(2) -0.05797(9)
O3 O -0.6009(2) -0.3708(2) -0.03343(10)
O4 O -0.5786(3) -0.5021(2) -0.10731(10)
N1 N -0.2941(3) -0.2773(3) 0.01661(11)
N2 N -0.0307(3) -0.2409(3) -0.15044(12)
N3 N -0.0455(3) -0.1760(3) -0.27101(12)
N4 N 0.2917(3) -0.1598(3) -0.41066(12)
C1 C -0.2211(4) -0.3737(3) -0.00158(15)
H1 H -0.2399 -0.4577 0.0091
C2 C -0.1199(4) -0.3555(4) -0.03522(15)
H2 H -0.0717 -0.4261 -0.0467
C3 C -0.0896(3) -0.2321(4) -0.05200(14)
C4 C -0.1657(4) -0.1317(4) -0.03330(15)
H3 H -0.1486 -0.0468 -0.0434
C5 C -0.2663(4) -0.1571(3) 0.00021(15)
H4 H -0.3169 -0.0883 0.0119
C6 C 0.0211(4) -0.2100(4) -0.08895(15)
H5 H 0.0507 -0.1202 -0.0857
H6 H 0.1024 -0.2635 -0.0744
C7 C -0.1244(4) -0.1407(4) -0.17908(16)
H7 H -0.0770 -0.0577 -0.1735
H8 H -0.2071 -0.1363 -0.1609
C8 C -0.1697(4) -0.1654(5) -0.24370(16)
H9 H -0.2239 -0.2449 -0.2497
H10 H -0.2287 -0.0949 -0.2615
C9 C 0.0400(4) -0.2837(4) -0.24470(16)
H11 H 0.1208 -0.2943 -0.2637
H12 H -0.0146 -0.3630 -0.2499
C10 C 0.0884(4) -0.2577(4) -0.18051(16)
H13 H 0.1459 -0.3294 -0.1630
H14 H 0.1460 -0.1802 -0.1757
C11 C -0.0807(4) -0.1898(5) -0.33461(16)
H15 H -0.1476 -0.1233 -0.3506
H16 H -0.1245 -0.2734 -0.3443
C12 C 0.1932(4) -0.2489(4) -0.42859(16)
H17 H 0.2064 -0.3051 -0.4585
C13 C 0.0730(4) -0.2617(4) -0.40501(16)
H18 H 0.0082 -0.3264 -0.4184
C14 C 0.0488(4) -0.1785(4) -0.36151(14)
C15 C 0.1501(4) -0.0860(4) -0.34360(16)
H19 H 0.1384 -0.0274 -0.3144
C16 C 0.2686(4) -0.0800(3) -0.36867(16)
H20 H 0.3356 -0.0170 -0.3555
C17 C -0.5371(3) -0.0486(3) -0.13710(13)
C18 C -0.5505(3) -0.1533(3) -0.10049(13)
H21 H -0.5530 -0.1394 -0.0611
C19 C -0.5601(3) -0.2781(3) -0.12278(13)
C20 C -0.5542(4) -0.2963(3) -0.18141(15)
H22 H -0.5599 -0.3799 -0.1965
C21 C -0.5402(4) -0.1944(3) -0.21795(15)
H23 H -0.5342 -0.2089 -0.2570
C22 C -0.5351(4) -0.0697(3) -0.19582(14)
H24 H -0.5302 0.0003 -0.2206
C23 C -0.5257(3) 0.0854(3) -0.11154(15)
C24 C -0.5803(3) -0.3919(3) -0.08413(13)
Cd1B Cd -0.51055(2) 0.31908(2) -0.059460(10)
Cd1C Cd 0.51055(2) -0.18092(2) -0.440540(10)
Cd1B_2 Cd -0.51055(2) -0.68092(2) -0.059460(10)
O1B O -0.4313(3) -0.1798(2) 0.14384(11)
O2B O -0.5276(2) -0.0977(2) 0.05797(9)
O4B O -0.4214(3) -0.4979(2) 0.10731(10)
N4C N -0.7083(3) -0.3402(3) 0.08934(12)
loop_
_geom_bond_atom_site_label_1
_geom_bond_atom_site_label_2
_geom_bond_site_symmetry_1
_geom_bond_site_symmetry_2
Cd1 O3 1_555 1_555
O1 C23 1_555 1_555
O2 C23 1_555 1_555
O3 C24 1_555 1_555
O4 C24 1_555 1_555
N1 Cd1 1_555 1_555
N2 C6 1_555 1_555
N3 C8 1_555 1_555
N4 C12 1_555 1_555
C1 N1 1_555 1_555
H1 C1 1_555 1_555
C2 C1 1_555 1_555
H2 C2 1_555 1_555
C3 C2 1_555 1_555
C4 C3 1_555 1_555
H3 C4 1_555 1_555
C5 N1 1_555 1_555
H4 C5 1_555 1_555
C6 C3 1_555 1_555
H5 C6 1_555 1_555
H6 C6 1_555 1_555
C7 N2 1_555 1_555
H7 C7 1_555 1_555
H8 C7 1_555 1_555
C8 C7 1_555 1_555
H9 C8 1_555 1_555
H10 C8 1_555 1_555
C9 N3 1_555 1_555
H11 C9 1_555 1_555
H12 C9 1_555 1_555
C10 N2 1_555 1_555
H13 C10 1_555 1_555
H14 C10 1_555 1_555
C11 N3 1_555 1_555
H15 C11 1_555 1_555
H16 C11 1_555 1_555
C12 H17 1_555 1_555
C13 C12 1_555 1_555
H18 C13 1_555 1_555
C14 C11 1_555 1_555
C15 C14 1_555 1_555
H19 C15 1_555 1_555
C16 N4 1_555 1_555
H20 C16 1_555 1_555
C17 C18 1_555 1_555
C18 H21 1_555 1_555
C19 C18 1_555 1_555
C20 C19 1_555 1_555
H22 C20 1_555 1_555
C21 C20 1_555 1_555
H23 C21 1_555 1_555
C22 C17 1_555 1_555
H24 C22 1_555 1_555
C23 C17 1_555 1_555
C24 C19 1_555 1_555
Cd1B O1 1_555 1_555
Cd1C N4 1_555 1_555
Cd1B_2 O4 1_555 1_555
O1B Cd1 1_555 1_555
O2B Cd1 1_555 1_555
O4B Cd1 1_555 1_555
N4C Cd1 1_555 1_555
O2 Cd1B 1_555 1_555
C4 C5 1_555 1_555
C9 C10 1_555 1_555
C13 C14 1_555 1_555
C15 C16 1_555 1_555
C21 C22 1_555 1_555

#END
