
#######################################################################
#
#                 Cambridge Crystallographic Data Centre
#                                CCDC 
#
#######################################################################
#
# If this CIF has been generated from an entry in the Cambridge 
# Structural Database, then it will include bibliographic, chemical, 
# crystal, experimental, refinement or atomic coordinate data resulting 
# from the CCDC's data processing and validation procedures.
#
#######################################################################

data_JITFUO
_symmetry_cell_setting           monoclinic
_symmetry_space_group_name_H-M   'P 21/c'
_symmetry_Int_Tables_number      14
_space_group_name_Hall           '-P 2ybc'
loop_
_symmetry_equiv_pos_site_id
_symmetry_equiv_pos_as_xyz
1 x,y,z
2 -x,1/2+y,1/2-z
3 -x,-y,-z
4 x,1/2-y,1/2+z
_cell_length_a                   9.3093(18)
_cell_length_b                   25.642(5)
_cell_length_c                   10.235(2)
_cell_angle_alpha                90
_cell_angle_beta                 98.818(3)
_cell_angle_gamma                90
_cell_volume                     2414.31
loop_
_atom_site_label
_atom_site_type_symbol
_atom_site_fract_x
_atom_site_fract_y
_atom_site_fract_z
Ni1 Ni 0.53854(3) 0.871951(11) 0.06457(2)
O1 O 0.55878(18) 0.86067(6) 0.27163(14)
O3 O 0.41047(17) 0.91996(6) 0.17290(14)
O4 O 0.48349(16) 0.89614(6) 0.87613(13)
O5 O 0.59049(18) 0.83614(6) 0.76571(15)
O6 O 0.70036(19) 0.82286(7) 0.02381(17)
H3 H 0.719(3) 0.7946(8) 0.063(2)
H4 H 0.682(3) 0.8193(12) -0.0594(17)
N1 N 0.69911(19) 0.93064(7) 0.09210(17)
N2 N 1.00454(19) 1.07929(7) 0.29095(18)
N3 N 1.00348(19) 1.17454(7) 0.44123(18)
N4 N 0.6317(2) 1.31550(8) 0.47112(18)
C1 C 0.8171(3) 0.92391(10) 0.1844(2)
H5 H 0.8262 0.8928 0.2316
C2 C 0.9245(3) 0.96061(10) 0.2123(2)
H6 H 1.0037 0.9541 0.2774
C3 C 0.9149(2) 1.00736(8) 0.1436(2)
C4 C 0.7947(2) 1.01416(9) 0.0474(2)
H7 H 0.7841 1.0447 -0.0022
C5 C 0.6906(2) 0.97541(9) 0.0251(2)
H8 H 0.6106 0.9808 -0.0398
C6 C 1.0307(2) 1.04848(9) 0.1765(2)
H9 H 1.1252 1.0319 0.1955
H10 H 1.0311 1.0713 0.1010
C7 C 1.1386(2) 1.10276(9) 0.3583(2)
H11 H 1.1779 1.1263 0.2986
H12 H 1.2101 1.0757 0.3847
C8 C 1.1083(2) 1.13233(9) 0.4787(2)
H13 H 1.0698 1.1086 0.5386
H14 H 1.1982 1.1469 0.5247
C9 C 0.8693(2) 1.15126(10) 0.3707(2)
H15 H 0.7995 1.1786 0.3424
H16 H 0.8272 1.1283 0.4301
C10 C 0.8996(2) 1.12075(9) 0.2519(2)
H17 H 0.8098 1.1057 0.2071
H18 H 0.9373 1.1440 0.1906
C11 C 0.7593(3) 1.32074(10) 0.4273(3)
H19 H 0.7724 1.3496 0.3753
C12 C 0.8721(3) 1.28573(10) 0.4551(3)
H20 H 0.9584 1.2913 0.4219
C13 C 0.8574(3) 1.24235(9) 0.5319(2)
C14 C 0.7265(3) 1.23720(11) 0.5782(3)
H21 H 0.7112 1.2089 0.6311
C15 C 0.6186(3) 1.27366(11) 0.5466(3)
H22 H 0.5317 1.2690 0.5794
C16 C 0.9752(3) 1.20172(10) 0.5613(2)
H23 H 1.0640 1.2184 0.6032
H24 H 0.9466 1.1764 0.6230
C17 C 0.4343(2) 0.91453(9) 0.40880(19)
C18 C 0.4888(2) 0.88795(8) 0.52373(19)
H25 H 0.5431 0.8577 0.5191
C19 C 0.4627(2) 0.90620(8) 0.64588(19)
C20 C 0.3809(3) 0.95129(9) 0.6511(2)
H26 H 0.3659 0.9644 0.7326
C21 C 0.3219(3) 0.97674(10) 0.5365(2)
H27 H 0.2638 1.0060 0.5409
C22 C 0.3490(3) 0.95879(10) 0.4156(2)
H28 H 0.3102 0.9762 0.3386
C23 C 0.4695(2) 0.89740(9) 0.2776(2)
C24 C 0.5178(2) 0.87671(8) 0.77179(19)
Ni1_2 Ni 0.53854(3) 0.871951(11) 1.06457(2)
Ni1A Ni 0.46146(3) 1.371951(11) 0.43543(2)
O4_2 O 0.48349(16) 0.89614(6) -0.12387(13)
N4A N 0.3683(2) 0.81550(8) 0.02888(18)
O2 O 0.7805(3) 0.76311(8) 0.6667(2)
H1 H 0.848(3) 0.7815(14) 0.639(4)
H2 H 0.708(4) 0.7820(17) 0.679(5)
loop_
_geom_bond_atom_site_label_1
_geom_bond_atom_site_label_2
_geom_bond_site_symmetry_1
_geom_bond_site_symmetry_2
Ni1 O1 1_555 1_555
O1 C23 1_555 1_555
O2 H1 1_555 1_555
H2 O2 1_555 1_555
O3 Ni1 1_555 1_555
O4 C24 1_555 1_555
O5 C24 1_555 1_555
O6 Ni1 1_555 1_555
H3 O6 1_555 1_555
H4 O6 1_555 1_555
N1 Ni1 1_555 1_555
N2 C6 1_555 1_555
N3 C8 1_555 1_555
N4 C11 1_555 1_555
C1 N1 1_555 1_555
H5 C1 1_555 1_555
C2 C1 1_555 1_555
H6 C2 1_555 1_555
C3 C2 1_555 1_555
C4 C3 1_555 1_555
H7 C4 1_555 1_555
C5 N1 1_555 1_555
H8 C5 1_555 1_555
C6 C3 1_555 1_555
H9 C6 1_555 1_555
H10 C6 1_555 1_555
C7 N2 1_555 1_555
H11 C7 1_555 1_555
H12 C7 1_555 1_555
C8 C7 1_555 1_555
H13 C8 1_555 1_555
H14 C8 1_555 1_555
C9 N3 1_555 1_555
H15 C9 1_555 1_555
H16 C9 1_555 1_555
C10 N2 1_555 1_555
H17 C10 1_555 1_555
H18 C10 1_555 1_555
C11 H19 1_555 1_555
C12 C11 1_555 1_555
H20 C12 1_555 1_555
C13 C12 1_555 1_555
C14 C13 1_555 1_555
H21 C14 1_555 1_555
C15 N4 1_555 1_555
H22 C15 1_555 1_555
C16 N3 1_555 1_555
H23 C16 1_555 1_555
H24 C16 1_555 1_555
C17 C18 1_555 1_555
C18 H25 1_555 1_555
C19 C18 1_555 1_555
C20 C19 1_555 1_555
H26 C20 1_555 1_555
C21 C20 1_555 1_555
H27 C21 1_555 1_555
C22 C17 1_555 1_555
H28 C22 1_555 1_555
C23 O3 1_555 1_555
C24 C19 1_555 1_555
Ni1_2 O4 1_555 1_555
Ni1A N4 1_555 1_555
O4_2 Ni1 1_555 1_555
N4A Ni1 1_555 1_555
C4 C5 1_555 1_555
C9 C10 1_555 1_555
C13 C16 1_555 1_555
C14 C15 1_555 1_555
C17 C23 1_555 1_555
C21 C22 1_555 1_555

#END
