
#######################################################################
#
#                 Cambridge Crystallographic Data Centre
#                                CCDC 
#
#######################################################################
#
# If this CIF has been generated from an entry in the Cambridge 
# Structural Database, then it will include bibliographic, chemical, 
# crystal, experimental, refinement or atomic coordinate data resulting 
# from the CCDC's data processing and validation procedures.
#
#######################################################################

data_JITHOK
_symmetry_cell_setting           monoclinic
_symmetry_space_group_name_H-M   'C 2/c'
_symmetry_Int_Tables_number      15
_space_group_name_Hall           '-C 2yn'
loop_
_symmetry_equiv_pos_site_id
_symmetry_equiv_pos_as_xyz
1 x,y,z
2 1/2+x,1/2+y,z
3 -x,y,1/2-z
4 1/2-x,1/2+y,1/2-z
5 -x,-y,-z
6 1/2-x,1/2-y,-z
7 x,-y,1/2+z
8 1/2+x,1/2-y,1/2+z
_cell_length_a                   18.656(5)
_cell_length_b                   10.847(3)
_cell_length_c                   20.452(5)
_cell_angle_alpha                90
_cell_angle_beta                 115.032(5)
_cell_angle_gamma                90
_cell_volume                     3749.96
loop_
_atom_site_label
_atom_site_type_symbol
_atom_site_fract_x
_atom_site_fract_y
_atom_site_fract_z
C1 C -0.46119(16) 0.3205(3) 0.08994(15)
C2 C -0.51193(16) 0.3137(3) 0.01761(15)
H1 H -0.5031 0.2536 -0.0106
C3 C -0.57517(16) 0.3926(3) -0.01427(15)
C4 C -0.58952(16) 0.4756(3) 0.02925(15)
H2 H -0.6326 0.5284 0.0090
C5 C -0.54182(16) 0.4830(3) 0.10230(16)
C6 C -0.39012(18) 0.2420(3) 0.11948(17)
C7 C -0.37968(16) 0.6050(3) 0.09551(16)
C8 C -0.55375(18) 0.5711(3) 0.15168(17)
H3 H -0.5084 0.6240 0.1726
H4 H -0.6000 0.6199 0.1253
H5 H -0.5606 0.5268 0.1893
C9 C -0.1866(2) 0.2420(3) 0.66492(18)
H6 H -0.1594 0.2898 0.7057
C10 C -0.2003(2) 0.2906(3) 0.59866(17)
H7 H -0.1817 0.3690 0.5959
C11 C -0.24106(17) 0.2249(3) 0.53645(16)
C12 C -0.26547(19) 0.1099(3) 0.54577(17)
H8 H -0.2939 0.0609 0.5058
C13 C -0.24818(18) 0.0665(3) 0.61386(16)
H9 H -0.2642 -0.0131 0.6182
C14 C -0.13216(18) 0.4520(3) 0.29886(18)
H10 H -0.1407 0.4710 0.3393
C15 C -0.05545(18) 0.4505(3) 0.30617(19)
H11 H -0.0139 0.4682 0.3505
C16 C -0.04058(17) 0.4228(3) 0.24755(18)
C17 C 0.10549(17) 0.3962(3) 0.31658(18)
H12 H 0.0984 0.3764 0.3577
C18 C 0.17992(17) 0.3993(3) 0.31914(18)
H13 H 0.2225 0.3805 0.3626
N1 N -0.47695(13) 0.4081(2) 0.13062(12)
N2 N -0.21011(13) 0.1308(2) 0.67382(12)
N3 N -0.19481(13) 0.4280(2) 0.23754(13)
Ni1 Ni -0.18861(2) 0.06171(3) 0.776320(19)
O1 O -0.33098(10) 0.26719(18) 0.17783(10)
O2 O -0.39081(14) 0.1518(2) 0.08221(13)
O3 O -0.42950(10) 0.42390(19) 0.19999(10)
O4 O -0.38860(12) 0.6929(2) 0.13009(11)
O5 O -0.33944(11) 0.50930(19) 0.12158(10)
O6 O -0.19513(11) -0.11607(18) 0.73749(10)
H14 H -0.1879 -0.1670 0.7713
H15 H -0.2405 -0.1279 0.7032
C1D C -0.53881(16) 0.6795(3) -0.08994(15)
C2D C -0.48807(16) 0.6863(3) -0.01761(15)
H1D H -0.4969 0.7464 0.0106
C3D C -0.42483(16) 0.6074(3) 0.01427(15)
C4D C -0.41048(16) 0.5244(3) -0.02925(15)
H2D H -0.3674 0.4716 -0.0090
C5D C -0.45818(16) 0.5170(3) -0.10230(16)
C6D C -0.60988(18) 0.7580(3) -0.11948(17)
C7D C -0.62032(16) 0.3950(3) -0.09551(16)
C8D C -0.44625(18) 0.4289(3) -0.15168(17)
H3D H -0.4916 0.3760 -0.1726
H4D H -0.4000 0.3801 -0.1253
H5D H -0.4394 0.4732 -0.1893
C9E C -0.3134(2) 0.2580(3) 0.33508(18)
H6E H -0.3406 0.2102 0.2943
C10E C -0.2997(2) 0.2094(3) 0.40134(17)
H7E H -0.3183 0.1310 0.4041
C11E C -0.25894(17) 0.2751(3) 0.46355(16)
C12E C -0.23453(19) 0.3901(3) 0.45423(17)
H8E H -0.2061 0.4391 0.4942
C13E C -0.25182(18) 0.4335(3) 0.38614(16)
H9E H -0.2358 0.5131 0.3818
C14B C 0.13216(18) 0.4520(3) 0.20114(18)
H10B H 0.1407 0.4710 0.1607
C15B C 0.05545(18) 0.4505(3) 0.19383(19)
H11B H 0.0139 0.4682 0.1495
C16B C 0.04058(17) 0.4228(3) 0.25245(18)
C17B C -0.10549(17) 0.3962(3) 0.18342(18)
H12B H -0.0984 0.3764 0.1423
C18B C -0.17992(17) 0.3993(3) 0.18086(18)
H13B H -0.2225 0.3805 0.1374
N1D N -0.52305(13) 0.5919(2) -0.13062(12)
N2E N -0.28989(13) 0.3692(2) 0.32618(12)
N3E N -0.30519(13) 0.0720(2) 0.76246(13)
N3B N 0.19481(13) 0.4280(2) 0.26246(13)
Ni1E Ni -0.31139(2) 0.43829(3) 0.223680(19)
Ni1G Ni 0.31139(2) 0.43829(3) 0.276320(19)
Ni1A Ni -0.68861(2) 0.56171(3) -0.223680(19)
O1E O -0.16902(10) 0.23281(18) 0.82217(10)
O1D O -0.66902(10) 0.73281(18) -0.17783(10)
O2D O -0.60919(14) 0.8482(2) -0.08221(13)
O3E O -0.07050(10) 0.07610(19) 0.80001(10)
O3D O -0.57050(10) 0.57610(19) -0.19999(10)
O4D O -0.61140(12) 0.3071(2) -0.13009(11)
O5D O -0.66056(11) 0.49070(19) -0.12158(10)
O5E O -0.16056(11) -0.00930(19) 0.87842(10)
O6E O -0.30487(11) 0.61607(18) 0.26251(10)
H14E H -0.3121 0.6670 0.2287
H15E H -0.2595 0.6279 0.2968
O7 O -0.0486(4) 0.5111(7) 0.0310(4)
H16 H -0.0098 0.4749 0.0277
H17 H -0.0917 0.4853 -0.0021
O8 O -1.0000 0.2718(14) 0.7500
O9 O -0.8141(6) 0.6996(9) 0.9902(4)
H20 H -0.8355 0.7071 1.0193
H21 H -0.7659 0.6791 1.0134
H18? H -0.9706 0.2792 0.7278
H19? H -0.9953 0.1995 0.7673
loop_
_geom_bond_atom_site_label_1
_geom_bond_atom_site_label_2
_geom_bond_site_symmetry_1
_geom_bond_site_symmetry_2
C1 C2 1_555 1_555
C2 H1 1_555 1_555
C3 C2 1_555 1_555
C4 C3 1_555 1_555
H2 C4 1_555 1_555
C5 C4 1_555 1_555
C6 C1 1_555 1_555
C7 O4 1_555 1_555
C8 C5 1_555 1_555
H3 C8 1_555 1_555
H4 C8 1_555 1_555
H5 C8 1_555 1_555
C9 H6 1_555 1_555
C10 C9 1_555 1_555
H7 C10 1_555 1_555
C11 C10 1_555 1_555
C12 C11 1_555 1_555
H8 C12 1_555 1_555
C13 C12 1_555 1_555
H9 C13 1_555 1_555
C14 H10 1_555 1_555
C15 C14 1_555 1_555
H11 C15 1_555 1_555
C16 C15 1_555 1_555
C17 H12 1_555 1_555
C18 C17 1_555 1_555
H13 C18 1_555 1_555
N1 C1 1_555 1_555
N2 C9 1_555 1_555
N3 C14 1_555 1_555
Ni1 N2 1_555 1_555
O1 C6 1_555 1_555
O2 C6 1_555 1_555
O3 N1 1_555 1_555
O5 C7 1_555 1_555
O6 Ni1 1_555 1_555
H14 O6 1_555 1_555
H15 O6 1_555 1_555
O7 H16 1_555 1_555
H17 O7 1_555 1_555
O9 H20 1_555 1_555
H21 O9 1_555 1_555
C1D C2D 1_555 1_555
C2D H1D 1_555 1_555
C3D C7 1_555 1_555
C4D C3D 1_555 1_555
H2D C4D 1_555 1_555
C5D C4D 1_555 1_555
C6D C1D 1_555 1_555
C7D C3 1_555 1_555
C8D C5D 1_555 1_555
H3D C8D 1_555 1_555
H4D C8D 1_555 1_555
H5D C8D 1_555 1_555
C9E H6E 1_555 1_555
C10E C9E 1_555 1_555
H7E C10E 1_555 1_555
C11E C11 1_555 1_555
C12E C11E 1_555 1_555
H8E C12E 1_555 1_555
C13E C12E 1_555 1_555
H9E C13E 1_555 1_555
C14B H10B 1_555 1_555
C15B C14B 1_555 1_555
H11B C15B 1_555 1_555
C16B C16 1_555 1_555
C17B C16 1_555 1_555
H12B C17B 1_555 1_555
C18B N3 1_555 1_555
H13B C18B 1_555 1_555
N1D C1D 1_555 1_555
N2E C9E 1_555 1_555
N3E Ni1 1_555 1_555
N3B C18 1_555 1_555
Ni1E N3 1_555 1_555
Ni1G N3B 1_555 1_555
Ni1A O1D 1_555 1_555
O1E Ni1 1_555 1_555
O1D C6D 1_555 1_555
O2D C6D 1_555 1_555
O3E Ni1 1_555 1_555
O3D N1D 1_555 1_555
O4D C7D 1_555 1_555
O5D C7D 1_555 1_555
O5E Ni1 1_555 1_555
O6E Ni1E 1_555 1_555
H14E O6E 1_555 1_555
H15E O6E 1_555 1_555
C5 N1 1_555 1_555
C13 N2 1_555 1_555
C17 C16B 1_555 1_555
O1 Ni1E 1_555 1_555
O3 Ni1E 1_555 1_555
O5 Ni1E 1_555 1_555
C2D C3D 1_555 1_555
C5D N1D 1_555 1_555
C10E C11E 1_555 1_555
C13E N2E 1_555 1_555
C14B N3B 1_555 1_555
C15B C16B 1_555 1_555
C17B C18B 1_555 1_555
N2E Ni1E 1_555 1_555
Ni1A O3D 1_555 1_555
Ni1A O5D 1_555 1_555

#END
