
#######################################################################
#
#                 Cambridge Crystallographic Data Centre
#                                CCDC 
#
#######################################################################
#
# If this CIF has been generated from an entry in the Cambridge 
# Structural Database, then it will include bibliographic, chemical, 
# crystal, experimental, refinement or atomic coordinate data resulting 
# from the CCDC's data processing and validation procedures.
#
#######################################################################

data_JITPOS
_symmetry_cell_setting           orthorhombic
_symmetry_space_group_name_H-M   'P n m a'
_symmetry_Int_Tables_number      62
_space_group_name_Hall           '-P 2ac 2n'
loop_
_symmetry_equiv_pos_site_id
_symmetry_equiv_pos_as_xyz
1 x,y,z
2 1/2-x,-y,1/2+z
3 1/2+x,1/2-y,1/2-z
4 -x,1/2+y,-z
5 -x,-y,-z
6 1/2+x,y,1/2-z
7 1/2-x,1/2+y,1/2+z
8 x,1/2-y,z
_cell_length_a                   23.1451(14)
_cell_length_b                   27.3976(16)
_cell_length_c                   10.5482(6)
_cell_angle_alpha                90
_cell_angle_beta                 90
_cell_angle_gamma                90
_cell_volume                     6688.83
loop_
_atom_site_label
_atom_site_type_symbol
_atom_site_fract_x
_atom_site_fract_y
_atom_site_fract_z
Zn1 Zn 0.80428(3) 0.04145(3) 0.58679(8)
Zn2 Zn 0.73062(3) -0.04152(3) 0.43758(8)
Zn3 Zn 0.77087(4) -0.04411(3) 0.75709(8)
S1 S 1.09990(8) 0.06768(7) 0.7528(2)
O1 O 0.7918(2) -0.03793(17) 0.5680(5)
O2 O 0.7567(2) 0.03091(17) 0.7537(4)
O3 O 0.8602(2) -0.04253(17) 0.7903(5)
O4 O 1.1486(2) -0.03727(18) 1.0031(5)
O5 O 1.1688(2) -0.04066(17) 0.7974(5)
O6 O 0.8791(2) 0.02983(18) 0.6961(5)
O7 O 0.7388(2) 0.03840(16) 0.4521(5)
H1 H 0.704(3) 0.049(2) 0.495(7)
O8 O 0.8697(3) 0.0448(2) 0.4417(5)
H2 H 0.861(4) 0.044(3) 0.362(7)
H3 H 0.883(5) 0.014(3) 0.461(11)
C1 C 1.1353(3) -0.0334(3) 0.8881(7)
N1 N 0.7646(3) -0.1206(2) 0.7625(5)
N2 N 0.8068(3) 0.1196(2) 0.5957(6)
C2 C 0.9554(3) -0.0116(3) 0.8010(7)
C3 C 1.0529(3) 0.0193(3) 0.7962(7)
C4 C 0.8079(3) 0.2237(3) 0.5917(7)
N3 N 0.7281(3) -0.1201(2) 0.4285(6)
C5 C 1.0727(3) -0.0227(3) 0.8606(7)
C6 C 0.7634(3) -0.2232(3) 0.7705(7)
C7 C 0.7273(3) -0.2234(3) 0.4246(7)
C8 C 0.8927(3) -0.0075(3) 0.7590(7)
O9 O 1.0644(2) 0.1115(2) 0.7549(7)
C9 C 1.0319(3) -0.0563(3) 0.9018(8)
H4 H 1.0438 -0.0831 0.9507
O10 O 1.1205(3) 0.0572(3) 0.6251(7)
C10 C 0.9948(3) 0.0235(3) 0.7660(7)
H5 H 0.9820 0.0510 0.7207
O11 O 1.1457(3) 0.0684(2) 0.8456(7)
C11 C 0.7771(3) -0.1467(3) 0.4348(9)
H6 H 0.8124 -0.1299 0.4392
C12 C 0.8122(4) -0.1460(3) 0.7811(11)
H7 H 0.8471 -0.1290 0.7917
C13 C 0.9741(3) -0.0510(3) 0.8721(8)
H8 H 0.9473 -0.0743 0.9005
C14 C 0.8564(3) 0.1453(3) 0.5880(9)
H9 H 0.8913 0.1279 0.5842
C15 C 0.6795(4) -0.1452(3) 0.4182(8)
H10 H 0.6446 -0.1278 0.4120
C16 C 0.6771(3) -0.1963(3) 0.4158(8)
H11 H 0.6413 -0.2122 0.4082
C17 C 0.7565(3) 0.1965(3) 0.6005(8)
H12 H 0.7208 0.2127 0.6056
C18 C 0.7785(4) -0.1969(3) 0.4351(9)
H13 H 0.8140 -0.2133 0.4425
C19 C 0.7153(4) -0.1462(3) 0.7538(9)
H14 H 0.6803 -0.1290 0.7459
C20 C 0.8589(4) 0.1957(3) 0.5853(9)
H15 H 0.8949 0.2115 0.5791
C21 C 0.7581(3) 0.1464(3) 0.6017(8)
H16 H 0.7228 0.1296 0.6071
C22 C 0.8135(4) -0.1962(3) 0.7859(11)
H17 H 0.8487 -0.2123 0.7998
C23 C 0.7135(4) -0.1964(3) 0.7559(9)
H18 H 0.6779 -0.2126 0.7473
Zn1G Zn 0.80428(3) 0.45855(3) 0.58679(8)
Zn1A Zn 0.69572(3) -0.04145(3) 0.08679(8)
Zn1E Zn 0.30428(3) 0.04145(3) 0.91321(8)
Zn1A_2 Zn 0.69572(3) -0.04145(3) 1.08679(8)
Zn2A Zn 0.76938(3) 0.04152(3) 0.93758(8)
Zn2E Zn 1.23062(3) -0.04152(3) 1.06242(8)
Zn2G Zn 0.73062(3) -0.45848(3) 0.43758(8)
Zn2G_2 Zn 0.73062(3) 0.54152(3) 0.43758(8)
Zn3E Zn 1.27087(4) -0.04411(3) 0.74291(8)
Zn3A Zn 0.72913(4) 0.04411(3) 0.25709(8)
Zn3G Zn 0.77087(4) -0.45589(3) 0.75709(8)
Zn3E_2 Zn 0.27087(4) -0.04411(3) 0.74291(8)
Zn3G_2 Zn 0.77087(4) 0.54411(3) 0.75709(8)
S1E S 0.59990(8) 0.06768(7) 0.7472(2)
O1G O 0.7918(2) 0.53793(17) 0.5680(5)
O1A O 0.7082(2) 0.03793(17) 1.0680(5)
O1E O 1.2918(2) -0.03793(17) 0.9320(5)
O2A O 0.7433(2) -0.03091(17) 0.2537(4)
O2G O 0.7567(2) 0.46909(17) 0.7537(4)
O2E O 1.2567(2) 0.03091(17) 0.7463(4)
O3E O 0.3602(2) -0.04253(17) 0.7097(5)
O3E_2 O 1.3602(2) -0.04253(17) 0.7097(5)
O4E O 0.6486(2) -0.03727(18) 0.4969(5)
O4D O 0.8514(2) 0.03727(18) 0.9969(5)
O5E O 0.6688(2) -0.04066(17) 0.7026(5)
O6E O 0.3791(2) 0.02983(18) 0.8039(5)
O6G O 0.8791(2) 0.47017(18) 0.6961(5)
O7A O 0.7612(2) -0.03840(16) 0.9521(5)
O7G O 0.7388(2) 0.46160(16) 0.4521(5)
O7D O 1.2612(2) -0.03840(16) 0.5479(5)
H1A H 0.796(3) -0.049(2) 0.995(7)
H1G H 0.704(3) 0.451(2) 0.495(7)
H1D H 1.296(3) -0.049(2) 0.505(7)
O8G O 0.8697(3) 0.4552(2) 0.4417(5)
H2G H 0.861(4) 0.456(3) 0.362(7)
H3G H 0.883(5) 0.486(3) 0.461(11)
C1E C 0.6353(3) -0.0334(3) 0.6119(7)
N1G N 0.7646(3) -0.3794(2) 0.7625(5)
N1E N 1.2646(3) -0.1206(2) 0.7375(5)
N2G N 0.8068(3) 0.3804(2) 0.5957(6)
C2E C 0.4554(3) -0.0116(3) 0.6990(7)
C3E C 0.5529(3) 0.0193(3) 0.7038(7)
C4G C 0.8079(3) 0.2763(3) 0.5917(7)
N3G N 0.7281(3) -0.3799(2) 0.4285(6)
N3A N 0.7719(3) 0.1201(2) 0.9285(6)
C5E C 0.5727(3) -0.0227(3) 0.6394(7)
C6G C 0.7634(3) -0.2768(3) 0.7705(7)
C7G C 0.7273(3) -0.2766(3) 0.4246(7)
C8E C 0.3927(3) -0.0075(3) 0.7410(7)
O9E O 0.5644(2) 0.1115(2) 0.7451(7)
C9E C 0.5319(3) -0.0563(3) 0.5982(8)
H4E H 0.5438 -0.0831 0.5493
O10E O 0.6205(3) 0.0572(3) 0.8749(7)
C10E C 0.4948(3) 0.0235(3) 0.7340(7)
H5E H 0.4820 0.0510 0.7793
O11E O 0.6457(3) 0.0684(2) 0.6544(7)
C11G C 0.7771(3) -0.3533(3) 0.4348(9)
H6G H 0.8124 -0.3701 0.4392
C12G C 0.8122(4) -0.3540(3) 0.7811(11)
H7G H 0.8471 -0.3710 0.7917
C13E C 0.4741(3) -0.0510(3) 0.6279(8)
H8E H 0.4473 -0.0743 0.5995
C14G C 0.8564(3) 0.3547(3) 0.5880(9)
H9G H 0.8913 0.3721 0.5842
C15G C 0.6795(4) -0.3548(3) 0.4182(8)
H10G H 0.6446 -0.3722 0.4120
C16G C 0.6771(3) -0.3037(3) 0.4158(8)
H11G H 0.6413 -0.2878 0.4082
C17G C 0.7565(3) 0.3035(3) 0.6005(8)
H12G H 0.7208 0.2873 0.6056
C18G C 0.7785(4) -0.3031(3) 0.4351(9)
H13G H 0.8140 -0.2867 0.4425
C19G C 0.7153(4) -0.3538(3) 0.7538(9)
H14G H 0.6803 -0.3710 0.7459
C20G C 0.8589(4) 0.3043(3) 0.5853(9)
H15G H 0.8949 0.2885 0.5791
C21G C 0.7581(3) 0.3536(3) 0.6017(8)
H16G H 0.7228 0.3704 0.6071
C22G C 0.8135(4) -0.3038(3) 0.7859(11)
H17G H 0.8487 -0.2877 0.7998
C23G C 0.7135(4) -0.3036(3) 0.7559(9)
H18G H 0.6779 -0.2874 0.7473
O12 O 0.4615(8) 0.2500 0.7139(18)
O13 O 0.0778(6) 0.1622(6) 0.5118(16)
H19 H 0.0792 0.1455 0.5773
C24 C 0.0553(9) 0.1333(7) 0.4098(19)
H20 H 0.0559 0.1524 0.3313
H21 H 0.0798 0.1045 0.3975
C25 C -0.0024(11) 0.1181(9) 0.436(2)
H22 H -0.0157 0.1338 0.5135
H23 H -0.0033 0.0830 0.4472
H24 H -0.0273 0.1273 0.3665
O14 O 0.4723(7) 0.1580(6) 0.6068(15)
O15 O 0.1212(11) 0.2500 0.870(3)
loop_
_geom_bond_atom_site_label_1
_geom_bond_atom_site_label_2
_geom_bond_site_symmetry_1
_geom_bond_site_symmetry_2
Zn1 O1 1_555 1_555
Zn2 O1 1_555 1_555
Zn3 O1 1_555 1_555
S1 C3 1_555 1_555
O2 Zn1 1_555 1_555
O3 Zn3 1_555 1_555
O4 C1 1_555 1_555
O5 C1 1_555 1_555
O6 Zn1 1_555 1_555
O7 Zn1 1_555 1_555
H1 O7 1_555 1_555
O8 Zn1 1_555 1_555
H2 O8 1_555 1_555
H3 O8 1_555 1_555
C1 C5 1_555 1_555
N1 Zn3 1_555 1_555
N2 Zn1 1_555 1_555
C2 C8 1_555 1_555
C3 C5 1_555 1_555
C4 C17 1_555 1_555
N3 Zn2 1_555 1_555
C5 C9 1_555 1_555
C6 C22 1_555 1_555
C7 C16 1_555 1_555
C8 O3 1_555 1_555
O9 S1 1_555 1_555
C9 H4 1_555 1_555
O10 S1 1_555 1_555
C10 C2 1_555 1_555
H5 C10 1_555 1_555
O11 S1 1_555 1_555
C11 N3 1_555 1_555
H6 C11 1_555 1_555
C12 N1 1_555 1_555
H7 C12 1_555 1_555
C13 C2 1_555 1_555
H8 C13 1_555 1_555
C14 N2 1_555 1_555
H9 C14 1_555 1_555
C15 N3 1_555 1_555
H10 C15 1_555 1_555
C16 C15 1_555 1_555
H11 C16 1_555 1_555
C17 H12 1_555 1_555
C18 C7 1_555 1_555
H13 C18 1_555 1_555
C19 N1 1_555 1_555
H14 C19 1_555 1_555
C20 C4 1_555 1_555
H15 C20 1_555 1_555
C21 N2 1_555 1_555
H16 C21 1_555 1_555
C22 C12 1_555 1_555
H17 C22 1_555 1_555
C23 C6 1_555 1_555
H18 C23 1_555 1_555
O13 H19 1_555 1_555
C24 O13 1_555 1_555
H20 C24 1_555 1_555
H21 C24 1_555 1_555
C25 C24 1_555 1_555
H22 C25 1_555 1_555
H23 C25 1_555 1_555
H24 C25 1_555 1_555
Zn1G O1G 1_555 1_555
Zn1A O2A 1_555 1_555
Zn1E O6E 1_555 1_555
Zn1A_2 O1A 1_555 1_555
Zn2A O2 1_555 1_555
Zn2E O4 1_555 1_555
Zn2G N3G 1_555 1_555
Zn2G_2 O1G 1_555 1_555
Zn3E O5 1_555 1_555
Zn3A O7 1_555 1_555
Zn3G N1G 1_555 1_555
Zn3E_2 O3E 1_555 1_555
Zn3G_2 O1G 1_555 1_555
S1E C3E 1_555 1_555
O1A Zn2A 1_555 1_555
O1E Zn2E 1_555 1_555
O2A Zn2 1_555 1_555
O2G Zn1G 1_555 1_555
O2E Zn3E 1_555 1_555
O3E C8E 1_555 1_555
O3E_2 Zn3E 1_555 1_555
O4E Zn2 1_555 1_555
O4D Zn2A 1_555 1_555
O5E Zn3 1_555 1_555
O6E C8E 1_555 1_555
O6G Zn1G 1_555 1_555
O7A Zn3 1_555 1_555
O7G Zn1G 1_555 1_555
O7D Zn3E 1_555 1_555
H1A O7A 1_555 1_555
H1G O7G 1_555 1_555
H1D O7D 1_555 1_555
O8G Zn1G 1_555 1_555
H2G O8G 1_555 1_555
H3G O8G 1_555 1_555
C1E O4E 1_555 1_555
N1G C12G 1_555 1_555
N1E Zn3E 1_555 1_555
N2G Zn1G 1_555 1_555
C2E C8E 1_555 1_555
C3E C5E 1_555 1_555
C4G C4 1_555 1_555
N3G C11G 1_555 1_555
N3A Zn2A 1_555 1_555
C5E C1E 1_555 1_555
C6G C6 1_555 1_555
C7G C7 1_555 1_555
O9E S1E 1_555 1_555
C9E C5E 1_555 1_555
H4E C9E 1_555 1_555
O10E S1E 1_555 1_555
C10E C2E 1_555 1_555
H5E C10E 1_555 1_555
O11E S1E 1_555 1_555
C11G H6G 1_555 1_555
C12G H7G 1_555 1_555
C13E C2E 1_555 1_555
H8E C13E 1_555 1_555
C14G N2G 1_555 1_555
H9G C14G 1_555 1_555
C15G N3G 1_555 1_555
H10G C15G 1_555 1_555
C16G C7G 1_555 1_555
H11G C16G 1_555 1_555
C17G C4G 1_555 1_555
H12G C17G 1_555 1_555
C18G C7G 1_555 1_555
H13G C18G 1_555 1_555
C19G N1G 1_555 1_555
H14G C19G 1_555 1_555
C20G C4G 1_555 1_555
H15G C20G 1_555 1_555
C21G N2G 1_555 1_555
H16G C21G 1_555 1_555
C22G C6G 1_555 1_555
H17G C22G 1_555 1_555
C23G C6G 1_555 1_555
H18G C23G 1_555 1_555
Zn2 O7 1_555 1_555
Zn3 O2 1_555 1_555
O6 C8 1_555 1_555
C3 C10 1_555 1_555
C9 C13 1_555 1_555
C11 C18 1_555 1_555
C14 C20 1_555 1_555
C17 C21 1_555 1_555
C19 C23 1_555 1_555
Zn1A_2 O7A 1_555 1_555
Zn2A O7A 1_555 1_555
Zn2G_2 O7G 1_555 1_555
Zn3E O1E 1_555 1_555
Zn3A O2A 1_555 1_555
Zn3G_2 O2G 1_555 1_555
O5E C1E 1_555 1_555
C3E C10E 1_555 1_555
C9E C13E 1_555 1_555
C11G C18G 1_555 1_555
C12G C22G 1_555 1_555
C14G C20G 1_555 1_555
C15G C16G 1_555 1_555
C17G C21G 1_555 1_555
C19G C23G 1_555 1_555

#END
