
#######################################################################
#
#                 Cambridge Crystallographic Data Centre
#                                CCDC 
#
#######################################################################
#
# If this CIF has been generated from an entry in the Cambridge 
# Structural Database, then it will include bibliographic, chemical, 
# crystal, experimental, refinement or atomic coordinate data resulting 
# from the CCDC's data processing and validation procedures.
#
#######################################################################

data_JITQEJ
_symmetry_cell_setting           tetragonal
_symmetry_space_group_name_H-M   'P 43 21 2'
_symmetry_Int_Tables_number      96
_space_group_name_Hall           'P 4nw 2abw'
loop_
_symmetry_equiv_pos_site_id
_symmetry_equiv_pos_as_xyz
1 x,y,z
2 1/2-y,1/2+x,3/4+z
3 -x,-y,1/2+z
4 1/2+y,1/2-x,1/4+z
5 1/2+x,1/2-y,1/4-z
6 y,x,-z
7 1/2-x,1/2+y,3/4-z
8 -y,-x,1/2-z
_cell_length_a                   13.4066(2)
_cell_length_b                   13.4066(2)
_cell_length_c                   32.0618(11)
_cell_angle_alpha                90
_cell_angle_beta                 90
_cell_angle_gamma                90
_cell_volume                     5762.69
loop_
_atom_site_label
_atom_site_type_symbol
_atom_site_fract_x
_atom_site_fract_y
_atom_site_fract_z
Cd1 Cd -0.06534(6) -0.53045(6) 0.11229(2)
Cd2 Cd 0.39856(7) -0.08710(6) 0.01411(2)
O1 O 0.0814(5) -0.4565(6) 0.1363(2)
O2 O 0.0664(5) -0.4654(6) 0.0688(2)
O3 O 0.4515(11) 0.0698(8) 0.0086(3)
H1 H 0.4804 0.0783 -0.0147
H2 H 0.4020 0.1081 0.0127
O4 O 0.2544(8) -0.0333(9) -0.0173(3)
H3 H 0.1873 -0.0223 -0.0157
H4 H 0.2602 -0.0525 -0.0440
O5 O 0.3526(5) -0.0767(5) 0.0800(2)
O6 O 0.5570(8) -0.1195(10) 0.0356(3)
H5 H 0.5964 -0.1020 0.0550
H6 H 0.5907 -0.1412 0.0150
O7 O 0.3592(6) -0.1220(6) 0.1466(2)
O8 O -0.0399(6) -0.6581(5) 0.1624(2)
O9 O 0.0046(6) -0.6883(6) 0.0980(2)
O10 O 0.3452(6) -0.9250(5) 0.19530(19)
O11 O 0.2478(6) -0.8914(7) 0.2461(2)
C1 C 0.2172(8) -0.3935(8) 0.0932(3)
C2 C 0.2129(7) -0.2784(7) 0.0915(3)
C3 C 0.3239(7) -0.2513(7) 0.0971(3)
H7 H 0.3572 -0.2641 0.0704
C4 C 0.3655(8) -0.3276(9) 0.1290(4)
H8 H 0.4291 -0.3541 0.1197
H9 H 0.3747 -0.2966 0.1561
C5 C 0.2880(8) -0.4097(9) 0.1314(4)
H10 H 0.2509 -0.4052 0.1573
H11 H 0.3195 -0.4747 0.1299
C6 C 0.2627(10) -0.4389(9) 0.0549(3)
H12 H 0.2188 -0.4292 0.0316
H13 H 0.2726 -0.5091 0.0593
H14 H 0.3257 -0.4077 0.0493
C7 C 0.1713(10) -0.2402(9) 0.0504(3)
H15 H 0.2096 -0.2671 0.0278
H16 H 0.1749 -0.1687 0.0499
H17 H 0.1030 -0.2607 0.0477
C8 C 0.1506(9) -0.2349(10) 0.1301(4)
H18 H 0.1484 -0.1634 0.1284
H19 H 0.1822 -0.2542 0.1558
H20 H 0.0839 -0.2609 0.1294
C9 C 0.1154(8) -0.4415(8) 0.0997(3)
C10 C 0.3476(8) -0.1430(9) 0.1096(4)
C11 C 0.0378(7) -0.8153(8) 0.1485(3)
C12 C 0.1537(8) -0.8136(8) 0.1559(3)
C13 C 0.1719(7) -0.9152(8) 0.1800(3)
H21 H 0.1842 -0.9678 0.1594
C14 C 0.0709(9) -0.9384(9) 0.2029(4)
H22 H 0.0452 -1.0030 0.1944
H23 H 0.0803 -0.9386 0.2329
C15 C -0.0007(8) -0.8553(9) 0.1900(3)
H24 H -0.0679 -0.8812 0.1869
H25 H -0.0016 -0.8028 0.2108
C16 C 0.0067(11) -0.8928(8) 0.1134(4)
H26 H -0.0644 -0.8916 0.1098
H27 H 0.0274 -0.9586 0.1215
H28 H 0.0384 -0.8751 0.0875
C17 C 0.2146(12) -0.8169(12) 0.1136(4)
H29 H 0.2848 -0.8160 0.1196
H30 H 0.1976 -0.7600 0.0969
H31 H 0.1983 -0.8768 0.0987
C18 C 0.1831(9) -0.7243(8) 0.1811(4)
H32 H 0.2540 -0.7244 0.1852
H33 H 0.1501 -0.7264 0.2077
H34 H 0.1639 -0.6647 0.1665
C19 C -0.0001(8) -0.7153(8) 0.1371(3)
C20 C 0.2590(8) -0.9095(8) 0.2081(3)
Cd1D Cd 0.43466(6) 0.03045(6) 0.13771(2)
Cd1D_2 Cd 0.43466(6) -0.96955(6) 0.13771(2)
Cd2C Cd 0.41290(6) -0.89856(7) 0.26411(2)
O5D O -0.1474(5) -0.4233(5) 0.1700(2)
O7D O -0.1408(6) -0.3780(6) 0.1034(2)
O10D O -0.1548(6) -0.5750(5) 0.05470(19)
O10A O 0.4250(5) -0.1548(6) -0.05470(19)
O11A O 0.3914(7) -0.2522(6) -0.0039(2)
loop_
_geom_bond_atom_site_label_1
_geom_bond_atom_site_label_2
_geom_bond_site_symmetry_1
_geom_bond_site_symmetry_2
Cd1 O1 1_555 1_555
Cd2 O3 1_555 1_555
O1 C9 1_555 1_555
O2 Cd1 1_555 1_555
O3 H1 1_555 1_555
H2 O3 1_555 1_555
O4 Cd2 1_555 1_555
H3 O4 1_555 1_555
H4 O4 1_555 1_555
O5 Cd2 1_555 1_555
O6 Cd2 1_555 1_555
H5 O6 1_555 1_555
H6 O6 1_555 1_555
O7 C10 1_555 1_555
O8 Cd1 1_555 1_555
O9 Cd1 1_555 1_555
O10 C20 1_555 1_555
O11 C20 1_555 1_555
C1 C2 1_555 1_555
C2 C3 1_555 1_555
C3 H7 1_555 1_555
C4 C3 1_555 1_555
H8 C4 1_555 1_555
H9 C4 1_555 1_555
C5 C1 1_555 1_555
H10 C5 1_555 1_555
H11 C5 1_555 1_555
C6 C1 1_555 1_555
H12 C6 1_555 1_555
H13 C6 1_555 1_555
H14 C6 1_555 1_555
C7 C2 1_555 1_555
H15 C7 1_555 1_555
H16 C7 1_555 1_555
H17 C7 1_555 1_555
C8 C2 1_555 1_555
H18 C8 1_555 1_555
H19 C8 1_555 1_555
H20 C8 1_555 1_555
C9 O2 1_555 1_555
C10 O5 1_555 1_555
C11 C12 1_555 1_555
C12 C13 1_555 1_555
C13 H21 1_555 1_555
C14 C13 1_555 1_555
H22 C14 1_555 1_555
H23 C14 1_555 1_555
C15 C11 1_555 1_555
H24 C15 1_555 1_555
H25 C15 1_555 1_555
C16 C11 1_555 1_555
H26 C16 1_555 1_555
H27 C16 1_555 1_555
H28 C16 1_555 1_555
C17 C12 1_555 1_555
H29 C17 1_555 1_555
H30 C17 1_555 1_555
H31 C17 1_555 1_555
C18 C12 1_555 1_555
H32 C18 1_555 1_555
H33 C18 1_555 1_555
H34 C18 1_555 1_555
C19 O8 1_555 1_555
C20 C13 1_555 1_555
Cd1D O5 1_555 1_555
Cd1D_2 O10 1_555 1_555
Cd2C O10 1_555 1_555
O5D Cd1 1_555 1_555
O7D Cd1 1_555 1_555
O10D Cd1 1_555 1_555
O10A Cd2 1_555 1_555
O11A Cd2 1_555 1_555
O7 Cd1D 1_555 1_555
O9 C19 1_555 1_555
O11 Cd2C 1_555 1_555
C1 C9 1_555 1_555
C3 C10 1_555 1_555
C4 C5 1_555 1_555
C11 C19 1_555 1_555
C14 C15 1_555 1_555

#END
