
#######################################################################
#
#                 Cambridge Crystallographic Data Centre
#                                CCDC 
#
#######################################################################
#
# If this CIF has been generated from an entry in the Cambridge 
# Structural Database, then it will include bibliographic, chemical, 
# crystal, experimental, refinement or atomic coordinate data resulting 
# from the CCDC's data processing and validation procedures.
#
#######################################################################

data_JITTIQ
_symmetry_cell_setting           monoclinic
_symmetry_space_group_name_H-M   'P 21/c'
_symmetry_Int_Tables_number      14
_space_group_name_Hall           '-P 2ybc'
loop_
_symmetry_equiv_pos_site_id
_symmetry_equiv_pos_as_xyz
1 x,y,z
2 -x,1/2+y,1/2-z
3 -x,-y,-z
4 x,1/2-y,1/2+z
_cell_length_a                   9.4035(10)
_cell_length_b                   12.8706(14)
_cell_length_c                   15.3913(14)
_cell_angle_alpha                90
_cell_angle_beta                 110.173(5)
_cell_angle_gamma                90
_cell_volume                     1748.52
loop_
_atom_site_label
_atom_site_type_symbol
_atom_site_fract_x
_atom_site_fract_y
_atom_site_fract_z
Ni1 Ni 1.0000 0.0000 1.0000
C1 C 0.6976(4) 0.4928(3) 1.1077(2)
C2 C 0.6815(4) 0.4048(3) 1.0519(3)
C3 C 0.6891(5) 0.4152(3) 0.9645(3)
H1 H 0.6739 0.3569 0.9267
C4 C 0.7189(4) 0.5104(3) 0.9309(3)
C5 C 0.7355(5) 0.5962(3) 0.9891(3)
H2 H 0.7536 0.6609 0.9681
C6 C 0.7259(5) 0.5890(3) 1.0774(3)
C7 C 0.7342(5) 0.5237(3) 0.8354(3)
C8 C 0.6452(5) 0.6188(3) 0.7842(3)
H3 H 0.6897 0.6809 0.8168
H4 H 0.5418 0.6137 0.7812
H5 H 0.6487 0.6211 0.7226
C9 C 0.9014(5) 0.5395(4) 0.8495(3)
H6 H 0.9348 0.6046 0.8800
H7 H 0.9150 0.5397 0.7904
H8 H 0.9596 0.4840 0.8868
C10 C 0.6746(6) 0.4286(3) 0.7727(3)
H9 H 0.6822 0.4413 0.7130
H10 H 0.5706 0.4165 0.7659
H11 H 0.7339 0.3686 0.8001
C11 C 0.6532(5) 0.3029(3) 1.0915(3)
H12 H 0.7122 0.3012 1.1571
H13 H 0.5471 0.2990 1.0851
C12 C 0.6686(6) 0.0891(4) 0.9560(3)
H14 H 0.6273 0.0407 0.9092
C13 C 0.8258(5) 0.1694(3) 1.0651(3)
H15 H 0.9142 0.1917 1.1109
C14 C 0.8259(5) 0.8413(3) 1.0736(3)
H16 H 0.7331 0.8620 1.0313
C15 C 1.0548(5) 0.8313(3) 1.1533(3)
H17 H 1.1578 0.8464 1.1774
C16 C 0.7332(5) 0.6853(3) 1.1361(3)
H18 H 0.6342 0.7179 1.1163
H19 H 0.7578 0.6644 1.2001
Cl1 Cl 1.17799(13) 0.09620(8) 1.13023(7)
N1 N 0.6913(4) 0.2124(3) 1.0477(2)
N2 N 0.5858(4) 0.1621(3) 0.9767(3)
N3 N 0.8179(4) 0.0901(2) 1.0082(2)
N4 N 0.9570(4) 0.8883(2) 1.0854(2)
N5 N 0.8449(4) 0.7612(2) 1.1302(2)
N6 N 0.9945(5) 0.7525(3) 1.1832(2)
O1 O 0.6807(4) 0.4752(2) 1.19177(17)
H20 H 0.7387 0.5130 1.2311
Ni1_2 Ni 1.0000 1.0000 1.0000
Ni1_3 Ni 1.0000 -1.0000 1.0000
C1B C 1.3024(4) -0.4928(3) 0.8923(2)
C2B C 1.3185(4) -0.4048(3) 0.9481(3)
C3B C 1.3109(5) -0.4152(3) 1.0355(3)
H1B H 1.3261 -0.3569 1.0733
C4B C 1.2811(4) -0.5104(3) 1.0691(3)
C5B C 1.2645(5) -0.5962(3) 1.0109(3)
H2B H 1.2464 -0.6609 1.0319
C6B C 1.2741(5) -0.5890(3) 0.9226(3)
C7B C 1.2658(5) -0.5237(3) 1.1646(3)
C8B C 1.3548(5) -0.6188(3) 1.2158(3)
H3B H 1.3103 -0.6809 1.1832
H4B H 1.4582 -0.6137 1.2188
H5B H 1.3513 -0.6211 1.2774
C9B C 1.0986(5) -0.5395(4) 1.1505(3)
H6B H 1.0652 -0.6046 1.1200
H7B H 1.0850 -0.5397 1.2096
H8B H 1.0404 -0.4840 1.1132
C10B C 1.3254(6) -0.4286(3) 1.2273(3)
H9B H 1.3178 -0.4413 1.2870
H10B H 1.4294 -0.4165 1.2341
H11B H 1.2661 -0.3686 1.1999
C11B C 1.3468(5) -0.3029(3) 0.9085(3)
H12B H 1.2878 -0.3012 0.8429
H13B H 1.4529 -0.2990 0.9149
C12B C 1.3314(6) -0.0891(4) 1.0440(3)
H14B H 1.3727 -0.0407 1.0908
C13B C 1.1742(5) -0.1694(3) 0.9349(3)
H15B H 1.0858 -0.1917 0.8891
C14B C 1.1741(5) -0.8413(3) 0.9264(3)
H16B H 1.2669 -0.8620 0.9687
C15B C 0.9452(5) -0.8313(3) 0.8467(3)
H17B H 0.8422 -0.8464 0.8226
C16B C 1.2668(5) -0.6853(3) 0.8639(3)
H18B H 1.3658 -0.7179 0.8837
H19B H 1.2422 -0.6644 0.7999
Cl1B Cl 0.82201(13) -0.09620(8) 0.86977(7)
N1B N 1.3087(4) -0.2124(3) 0.9523(2)
N2B N 1.4142(4) -0.1621(3) 1.0233(3)
N3B N 1.1821(4) -0.0901(2) 0.9918(2)
N4B N 1.0430(4) -0.8883(2) 0.9146(2)
N4_2 N 0.9570(4) -0.1117(2) 1.0854(2)
N4B_2 N 1.0430(4) 0.1117(2) 0.9146(2)
N5B N 1.1551(4) -0.7612(2) 0.8698(2)
N6B N 1.0055(5) -0.7525(3) 0.8168(2)
O1B O 1.3193(4) -0.4752(2) 0.80823(17)
H20B H 1.2613 -0.5130 0.7689
loop_
_geom_bond_atom_site_label_1
_geom_bond_atom_site_label_2
_geom_bond_site_symmetry_1
_geom_bond_site_symmetry_2
Ni1 Cl1 1_555 1_555
C1 C2 1_555 1_555
C2 C3 1_555 1_555
C3 H1 1_555 1_555
C4 C3 1_555 1_555
C5 C4 1_555 1_555
H2 C5 1_555 1_555
C6 C1 1_555 1_555
C7 C4 1_555 1_555
C8 C7 1_555 1_555
H3 C8 1_555 1_555
H4 C8 1_555 1_555
H5 C8 1_555 1_555
C9 C7 1_555 1_555
H6 C9 1_555 1_555
H7 C9 1_555 1_555
H8 C9 1_555 1_555
C10 C7 1_555 1_555
H9 C10 1_555 1_555
H10 C10 1_555 1_555
H11 C10 1_555 1_555
C11 C2 1_555 1_555
H12 C11 1_555 1_555
H13 C11 1_555 1_555
C12 H14 1_555 1_555
C13 H15 1_555 1_555
C14 H16 1_555 1_555
C15 H17 1_555 1_555
C16 C6 1_555 1_555
H18 C16 1_555 1_555
H19 C16 1_555 1_555
N1 C11 1_555 1_555
N2 C12 1_555 1_555
N3 Ni1 1_555 1_555
N4 C14 1_555 1_555
N5 C14 1_555 1_555
N6 C15 1_555 1_555
O1 C1 1_555 1_555
H20 O1 1_555 1_555
Ni1_2 N4 1_555 1_555
Ni1_3 N4B 1_555 1_555
C1B C2B 1_555 1_555
C2B C3B 1_555 1_555
C3B H1B 1_555 1_555
C4B C3B 1_555 1_555
C5B C4B 1_555 1_555
H2B C5B 1_555 1_555
C6B C1B 1_555 1_555
C7B C4B 1_555 1_555
C8B C7B 1_555 1_555
H3B C8B 1_555 1_555
H4B C8B 1_555 1_555
H5B C8B 1_555 1_555
C9B C7B 1_555 1_555
H6B C9B 1_555 1_555
H7B C9B 1_555 1_555
H8B C9B 1_555 1_555
C10B C7B 1_555 1_555
H9B C10B 1_555 1_555
H10B C10B 1_555 1_555
H11B C10B 1_555 1_555
C11B C2B 1_555 1_555
H12B C11B 1_555 1_555
H13B C11B 1_555 1_555
C12B H14B 1_555 1_555
C13B H15B 1_555 1_555
C14B H16B 1_555 1_555
C15B H17B 1_555 1_555
C16B C6B 1_555 1_555
H18B C16B 1_555 1_555
H19B C16B 1_555 1_555
Cl1B Ni1 1_555 1_555
N1B C11B 1_555 1_555
N2B C12B 1_555 1_555
N3B Ni1 1_555 1_555
N4B C14B 1_555 1_555
N4_2 Ni1 1_555 1_555
N4B_2 Ni1 1_555 1_555
N5B C14B 1_555 1_555
N6B C15B 1_555 1_555
O1B C1B 1_555 1_555
H20B O1B 1_555 1_555
C5 C6 1_555 1_555
C12 N3 1_555 1_555
C13 N1 1_555 1_555
C13 N3 1_555 1_555
C15 N4 1_555 1_555
C16 N5 1_555 1_555
N1 N2 1_555 1_555
N5 N6 1_555 1_555
C5B C6B 1_555 1_555
C12B N3B 1_555 1_555
C13B N1B 1_555 1_555
C13B N3B 1_555 1_555
C15B N4B 1_555 1_555
C16B N5B 1_555 1_555
N1B N2B 1_555 1_555
N5B N6B 1_555 1_555

#END
