
#######################################################################
#
#                 Cambridge Crystallographic Data Centre
#                                CCDC 
#
#######################################################################
#
# If this CIF has been generated from an entry in the Cambridge 
# Structural Database, then it will include bibliographic, chemical, 
# crystal, experimental, refinement or atomic coordinate data resulting 
# from the CCDC's data processing and validation procedures.
#
#######################################################################

data_JIVBEW
_symmetry_cell_setting           monoclinic
_symmetry_space_group_name_H-M   'P 21/c'
_symmetry_Int_Tables_number      14
_space_group_name_Hall           '-P 2ybc'
loop_
_symmetry_equiv_pos_site_id
_symmetry_equiv_pos_as_xyz
1 x,y,z
2 -x,1/2+y,1/2-z
3 -x,-y,-z
4 x,1/2-y,1/2+z
_cell_length_a                   9.722(3)
_cell_length_b                   7.723(2)
_cell_length_c                   15.010(4)
_cell_angle_alpha                90
_cell_angle_beta                 91.352(5)
_cell_angle_gamma                90
_cell_volume                     1126.68
loop_
_atom_site_label
_atom_site_type_symbol
_atom_site_fract_x
_atom_site_fract_y
_atom_site_fract_z
Co1 Co 0.56433(5) 0.02083(5) 0.09969(3)
O1 O 0.5841(3) -0.1411(3) 0.21893(16)
O2 O 0.5607(2) -0.3273(3) 0.32910(16)
N1 N 0.5527(3) 0.1510(4) -0.02767(19)
N2 N 0.2332(3) -0.5682(4) 0.41188(18)
O3 O 0.3053(2) -0.2651(3) 0.35177(15)
C1 C 0.5154(4) -0.2129(4) 0.2767(2)
N3 N 0.5967(3) 0.2901(4) -0.0455(2)
C2 C 0.1297(4) -0.4606(4) 0.3838(2)
C3 C 0.2003(5) -0.7241(5) 0.4399(3)
H1 H 0.2698 -0.7978 0.4603
C4 C -0.0098(4) -0.5078(5) 0.3847(2)
C5 C 0.1664(4) -0.2960(4) 0.3502(2)
C6 C 0.0683(4) -0.1824(6) 0.3216(2)
H2 H 0.0932 -0.0743 0.3000
C7 C -0.0717(4) -0.2296(7) 0.3249(3)
H3 H -0.1390 -0.1516 0.3057
C8 C -0.0396(5) -0.6772(7) 0.4139(3)
H4 H -0.1301 -0.7158 0.4151
C9 C -0.1095(4) -0.3869(7) 0.3556(3)
H5 H -0.2023 -0.4154 0.3576
C10 C 0.3664(4) -0.1604(5) 0.2839(2)
H6 H 0.3601 -0.0388 0.2995
H7 H 0.3183 -0.1780 0.2273
C11 C 0.0635(6) -0.7821(6) 0.4399(3)
H8 H 0.0442 -0.8945 0.4581
N4 N 0.6422(5) 0.4224(5) -0.0613(3)
Co1A Co 0.43567(5) -0.47917(5) 0.40031(3)
Co1B Co 0.43567(5) -0.02083(5) -0.09969(3)
O2A O 0.4393(2) 0.1727(3) 0.17090(16)
N1B N 0.4473(3) -0.1510(4) 0.02767(19)
N2A N 0.7668(3) -0.0682(4) 0.08812(18)
O3A O 0.6947(2) 0.2349(3) 0.14823(15)
loop_
_geom_bond_atom_site_label_1
_geom_bond_atom_site_label_2
_geom_bond_site_symmetry_1
_geom_bond_site_symmetry_2
Co1 O1 1_555 1_555
O1 C1 1_555 1_555
O2 C1 1_555 1_555
N1 Co1 1_555 1_555
N2 C2 1_555 1_555
O3 C5 1_555 1_555
C1 C10 1_555 1_555
N3 N1 1_555 1_555
C2 C4 1_555 1_555
C3 N2 1_555 1_555
H1 C3 1_555 1_555
C4 C8 1_555 1_555
C5 C2 1_555 1_555
C6 C5 1_555 1_555
H2 C6 1_555 1_555
C7 C6 1_555 1_555
H3 C7 1_555 1_555
C8 H4 1_555 1_555
C9 C4 1_555 1_555
H5 C9 1_555 1_555
C10 O3 1_555 1_555
H6 C10 1_555 1_555
H7 C10 1_555 1_555
C11 C3 1_555 1_555
H8 C11 1_555 1_555
N4 N3 1_555 1_555
Co1A O2 1_555 1_555
Co1B N1 1_555 1_555
O2A Co1 1_555 1_555
N1B Co1 1_555 1_555
N2A Co1 1_555 1_555
O3A Co1 1_555 1_555
N2 Co1A 1_555 1_555
O3 Co1A 1_555 1_555
C7 C9 1_555 1_555
C8 C11 1_555 1_555
Co1B N1B 1_555 1_555

#END
