
#######################################################################
#
#                 Cambridge Crystallographic Data Centre
#                                CCDC 
#
#######################################################################
#
# If this CIF has been generated from an entry in the Cambridge 
# Structural Database, then it will include bibliographic, chemical, 
# crystal, experimental, refinement or atomic coordinate data resulting 
# from the CCDC's data processing and validation procedures.
#
#######################################################################

data_JIVHEC
_symmetry_cell_setting           monoclinic
_symmetry_space_group_name_H-M   'C 2/c'
_symmetry_Int_Tables_number      15
_space_group_name_Hall           '-C 2yn'
loop_
_symmetry_equiv_pos_site_id
_symmetry_equiv_pos_as_xyz
1 x,y,z
2 1/2+x,1/2+y,z
3 -x,y,1/2-z
4 1/2-x,1/2+y,1/2-z
5 -x,-y,-z
6 1/2-x,1/2-y,-z
7 x,-y,1/2+z
8 1/2+x,1/2-y,1/2+z
_cell_length_a                   26.3510(7)
_cell_length_b                   16.1465(5)
_cell_length_c                   19.9042(5)
_cell_angle_alpha                90
_cell_angle_beta                 106.2090(10)
_cell_angle_gamma                90
_cell_volume                     8132.13
loop_
_atom_site_label
_atom_site_type_symbol
_atom_site_fract_x
_atom_site_fract_y
_atom_site_fract_z
K1 K 0.36054(2) 0.73936(4) 0.02202(3)
K2 K 0.24872(3) 0.89145(4) 0.08850(3)
K3 K 0.27597(4) 0.90051(6) -0.08176(4)
O1 O 0.33680(8) 0.89872(12) 0.04190(10)
O2 O 0.30722(7) 0.74635(12) -0.11034(9)
O3 O 0.31193(8) 0.59150(12) 0.03716(9)
O4 O 0.45954(8) 0.72459(13) 0.09273(12)
O5 O 0.56939(8) 0.70352(14) 0.12077(11)
O6 O 0.24940(8) 0.99693(12) 0.18850(10)
O7 O 0.26980(8) 0.97325(13) 0.33372(10)
O8 O 0.25947(16) 0.7376(3) 0.0315(2)
C1 C 0.36758(11) 0.91278(17) 0.10519(15)
C2 C 0.40018(11) 0.98495(17) 0.12387(15)
C3 C 0.43061(11) 0.99263(18) 0.19291(15)
H1 H 0.4522 1.0404 0.2056
C4 C 0.43122(11) 0.93431(19) 0.24423(16)
H2 H 0.4526 0.9424 0.2908
C5 C 0.40033(11) 0.86437(19) 0.22669(16)
H3 H 0.4004 0.8233 0.2609
C6 C 0.36936(11) 0.85499(18) 0.15888(15)
H4 H 0.3480 0.8068 0.1476
C7 C 0.40126(12) 1.05117(18) 0.06907(15)
C8 C 0.34568(12) 1.08838(19) 0.04003(17)
H5 H 0.3206 1.0443 0.0192
H6 H 0.3463 1.1298 0.0043
H7 H 0.3347 1.1147 0.0781
C9 C 0.43892(13) 1.12260(19) 0.09951(17)
H8 H 0.4280 1.1488 0.1377
H9 H 0.4379 1.1636 0.0628
H10 H 0.4750 1.1012 0.1175
C10 C 0.42007(14) 1.0124(2) 0.00973(17)
H11 H 0.4566 0.9931 0.0283
H12 H 0.4184 1.0539 -0.0268
H13 H 0.3973 0.9654 -0.0102
C11 C 0.30046(11) 0.75265(16) -0.17882(14)
C12 C 0.24901(11) 0.75993(17) -0.22377(14)
H14 H 0.2201 0.7597 -0.2040
C13 C 0.23874(12) 0.76752(17) -0.29583(15)
H15 H 0.2034 0.7723 -0.3246
C14 C 0.28011(13) 0.76802(18) -0.32516(15)
H16 H 0.2737 0.7735 -0.3743
C15 C 0.33133(12) 0.76044(17) -0.28230(15)
H17 H 0.3596 0.7600 -0.3033
C16 C 0.34335(11) 0.75341(16) -0.20953(14)
C17 C 0.40064(11) 0.74694(18) -0.16415(14)
C18 C 0.41320(12) 0.82123(19) -0.11369(15)
H18 H 0.4121 0.8724 -0.1405
H19 H 0.3870 0.8242 -0.0872
H20 H 0.4485 0.8144 -0.0812
C19 C 0.44069(12) 0.7484(2) -0.20668(17)
H21 H 0.4377 0.8009 -0.2322
H22 H 0.4765 0.7430 -0.1751
H23 H 0.4336 0.7023 -0.2400
C20 C 0.40865(12) 0.66487(19) -0.12313(16)
H24 H 0.4442 0.6637 -0.0904
H25 H 0.3823 0.6603 -0.0970
H26 H 0.4046 0.6184 -0.1559
C21 C 0.34653(11) 0.56314(17) 0.09398(14)
C22 C 0.37285(11) 0.48540(17) 0.09750(14)
C23 C 0.40915(11) 0.46328(18) 0.16044(15)
H27 H 0.4271 0.4118 0.1629
C24 C 0.42034(12) 0.51284(19) 0.21972(14)
H28 H 0.4455 0.4956 0.2616
C25 C 0.39446(11) 0.58748(19) 0.21704(15)
H29 H 0.4012 0.6220 0.2572
C26 C 0.35858(11) 0.61155(18) 0.15528(14)
H30 H 0.3412 0.6633 0.1541
C27 C 0.36108(12) 0.42799(18) 0.03341(15)
C28 C 0.37505(13) 0.4721(2) -0.02751(15)
H31 H 0.3546 0.5234 -0.0387
H32 H 0.3666 0.4358 -0.0686
H33 H 0.4129 0.4851 -0.0141
C29 C 0.39322(15) 0.3476(2) 0.04762(17)
H34 H 0.4310 0.3608 0.0613
H35 H 0.3847 0.3136 0.0052
H36 H 0.3845 0.3170 0.0855
C30 C 0.30236(13) 0.4038(2) 0.01210(17)
H37 H 0.2946 0.3717 0.0498
H38 H 0.2945 0.3702 -0.0306
H39 H 0.2806 0.4540 0.0035
C31 C 0.49488(12) 0.7926(2) 0.11374(19)
H40 H 0.5039 0.7993 0.1652
H41 H 0.4776 0.8442 0.0919
C32 C 0.54410(13) 0.7781(2) 0.09223(17)
H42 H 0.5352 0.7756 0.0405
H43 H 0.5687 0.8251 0.1082
C33 C 0.53364(12) 0.6360(2) 0.10073(16)
H44 H 0.5511 0.5844 0.1223
H45 H 0.5241 0.6292 0.0493
C34 C 0.48483(11) 0.65010(19) 0.12306(16)
H46 H 0.4604 0.6028 0.1081
H47 H 0.4941 0.6540 0.1747
C35 C 0.29966(11) 1.01767(19) 0.23555(15)
H48 H 0.2997 1.0765 0.2495
H49 H 0.3277 1.0099 0.2119
C36 C 0.20872(11) 1.00632(18) 0.22265(15)
H50 H 0.1742 0.9911 0.1900
H51 H 0.2068 1.0649 0.2364
C37 C 0.31056(12) 0.9632(2) 0.29956(17)
H52 H 0.3122 0.9046 0.2858
H53 H 0.3451 0.9781 0.3322
C38 C 0.21976(11) 0.95207(18) 0.28649(15)
H54 H 0.1916 0.9594 0.3100
H55 H 0.2200 0.8933 0.2725
K1E K 0.13946(2) 0.76064(4) -0.02202(3)
K2E K 0.25128(3) 0.60855(4) -0.08850(3)
K2F K 0.24872(3) 1.10855(4) -0.41150(3)
K3E K 0.22403(4) 0.59949(6) 0.08176(4)
K3F K 0.27597(4) 1.09949(6) 0.41824(4)
O1E O 0.16320(8) 0.60128(12) -0.04190(10)
O2E O 0.19278(7) 0.75365(12) 0.11034(9)
O3E O 0.18807(8) 0.90850(12) -0.03716(9)
O4E O 0.04046(8) 0.77541(13) -0.09273(12)
O5E O -0.06939(8) 0.79648(14) -0.12077(11)
O6F O 0.24940(8) 1.00307(12) -0.31150(10)
O6E O 0.25060(8) 0.50307(12) -0.18850(10)
O7F O 0.26980(8) 1.02675(13) -0.16628(10)
O7C O 0.23020(8) 0.47325(13) 0.16628(10)
O8E O 0.24053(16) 0.7624(3) -0.0315(2)
C1E C 0.13242(11) 0.58722(17) -0.10519(15)
C2E C 0.09982(11) 0.51505(17) -0.12387(15)
C3E C 0.06939(11) 0.50737(18) -0.19291(15)
H1E H 0.0478 0.4596 -0.2056
C4E C 0.06878(11) 0.56569(19) -0.24423(16)
H2E H 0.0474 0.5576 -0.2908
C5E C 0.09967(11) 0.63563(19) -0.22669(16)
H3E H 0.0996 0.6767 -0.2609
C6E C 0.13064(11) 0.64501(18) -0.15888(15)
H4E H 0.1520 0.6932 -0.1476
C7E C 0.09874(12) 0.44883(18) -0.06907(15)
C8E C 0.15432(12) 0.41162(19) -0.04003(17)
H5E H 0.1794 0.4557 -0.0192
H6E H 0.1537 0.3702 -0.0043
H7E H 0.1653 0.3853 -0.0781
C9E C 0.06108(13) 0.37740(19) -0.09951(17)
H8E H 0.0720 0.3512 -0.1377
H9E H 0.0621 0.3364 -0.0628
H10E H 0.0250 0.3988 -0.1175
C10E C 0.07993(14) 0.4876(2) -0.00973(17)
H11E H 0.0434 0.5069 -0.0283
H12E H 0.0816 0.4461 0.0268
H13E H 0.1027 0.5346 0.0102
C11E C 0.19954(11) 0.74735(16) 0.17882(14)
C12E C 0.25099(11) 0.74007(17) 0.22377(14)
H14E H 0.2799 0.7403 0.2040
C13E C 0.26126(12) 0.73248(17) 0.29583(15)
H15E H 0.2966 0.7277 0.3246
C14E C 0.21989(13) 0.73198(18) 0.32516(15)
H16E H 0.2263 0.7265 0.3743
C15E C 0.16867(12) 0.73956(17) 0.28230(15)
H17E H 0.1404 0.7400 0.3033
C16E C 0.15665(11) 0.74659(16) 0.20953(14)
C17E C 0.09936(11) 0.75306(18) 0.16415(14)
C18E C 0.08680(12) 0.67877(19) 0.11369(15)
H18E H 0.0879 0.6276 0.1405
H19E H 0.1130 0.6758 0.0872
H20E H 0.0515 0.6856 0.0812
C19E C 0.05931(12) 0.7516(2) 0.20668(17)
H21E H 0.0623 0.6991 0.2322
H22E H 0.0235 0.7570 0.1751
H23E H 0.0664 0.7977 0.2400
C20E C 0.09135(12) 0.83513(19) 0.12313(16)
H24E H 0.0558 0.8363 0.0904
H25E H 0.1177 0.8397 0.0970
H26E H 0.0954 0.8816 0.1559
C21E C 0.15347(11) 0.93686(17) -0.09398(14)
C22E C 0.12715(11) 1.01460(17) -0.09750(14)
C23E C 0.09085(11) 1.03672(18) -0.16044(15)
H27E H 0.0729 1.0882 -0.1629
C24E C 0.07966(12) 0.98716(19) -0.21972(14)
H28E H 0.0545 1.0044 -0.2616
C25E C 0.10554(11) 0.91252(19) -0.21704(15)
H29E H 0.0988 0.8780 -0.2572
C26E C 0.14142(11) 0.88845(18) -0.15528(14)
H30E H 0.1588 0.8367 -0.1541
C27E C 0.13892(12) 1.07201(18) -0.03341(15)
C28E C 0.12495(13) 1.0279(2) 0.02751(15)
H31E H 0.1454 0.9766 0.0387
H32E H 0.1334 1.0642 0.0686
H33E H 0.0871 1.0149 0.0141
C29E C 0.10678(15) 1.1524(2) -0.04762(17)
H34E H 0.0690 1.1392 -0.0613
H35E H 0.1153 1.1864 -0.0052
H36E H 0.1155 1.1830 -0.0855
C30E C 0.19764(13) 1.0962(2) -0.01210(17)
H37E H 0.2054 1.1283 -0.0498
H38E H 0.2055 1.1298 0.0306
H39E H 0.2194 1.0460 -0.0035
C31E C 0.00512(12) 0.7074(2) -0.11374(19)
H40E H -0.0039 0.7007 -0.1652
H41E H 0.0224 0.6558 -0.0919
C32E C -0.04410(13) 0.7219(2) -0.09223(17)
H42E H -0.0352 0.7244 -0.0405
H43E H -0.0687 0.6749 -0.1082
C33E C -0.03364(12) 0.8640(2) -0.10073(16)
H44E H -0.0511 0.9156 -0.1223
H45E H -0.0241 0.8708 -0.0493
C34E C 0.01517(11) 0.84990(19) -0.12306(16)
H46E H 0.0396 0.8972 -0.1081
H47E H 0.0059 0.8460 -0.1747
C35F C 0.29966(11) 0.98233(19) -0.26445(15)
H48F H 0.2997 0.9235 -0.2505
H49F H 0.3277 0.9901 -0.2881
C36F C 0.20872(11) 0.99368(18) -0.27735(15)
H50F H 0.1742 1.0089 -0.3100
H51F H 0.2068 0.9351 -0.2636
C37F C 0.31056(12) 1.0368(2) -0.20044(17)
H52F H 0.3122 1.0954 -0.2142
H53F H 0.3451 1.0219 -0.1678
C38F C 0.21976(11) 1.04793(18) -0.21351(15)
H54F H 0.1916 1.0406 -0.1900
H55F H 0.2200 1.1067 -0.2275
loop_
_geom_bond_atom_site_label_1
_geom_bond_atom_site_label_2
_geom_bond_site_symmetry_1
_geom_bond_site_symmetry_2
K1 O1 1_555 1_555
K2 O1 1_555 1_555
K3 O1 1_555 1_555
O1 C1 1_555 1_555
O2 K1 1_555 1_555
O3 K1 1_555 1_555
O4 K1 1_555 1_555
O5 C32 1_555 1_555
O6 K2 1_555 1_555
O7 C37 1_555 1_555
O8 K1 1_555 1_555
C1 C2 1_555 1_555
C2 C3 1_555 1_555
C3 H1 1_555 1_555
C4 C3 1_555 1_555
H2 C4 1_555 1_555
C5 C4 1_555 1_555
H3 C5 1_555 1_555
C6 C1 1_555 1_555
H4 C6 1_555 1_555
C7 C2 1_555 1_555
C8 C7 1_555 1_555
H5 C8 1_555 1_555
H6 C8 1_555 1_555
H7 C8 1_555 1_555
C9 C7 1_555 1_555
H8 C9 1_555 1_555
H9 C9 1_555 1_555
H10 C9 1_555 1_555
C10 C7 1_555 1_555
H11 C10 1_555 1_555
H12 C10 1_555 1_555
H13 C10 1_555 1_555
C11 O2 1_555 1_555
C12 C11 1_555 1_555
H14 C12 1_555 1_555
C13 C12 1_555 1_555
H15 C13 1_555 1_555
C14 C13 1_555 1_555
H16 C14 1_555 1_555
C15 C14 1_555 1_555
H17 C15 1_555 1_555
C16 C11 1_555 1_555
C17 C16 1_555 1_555
C18 C17 1_555 1_555
H18 C18 1_555 1_555
H19 C18 1_555 1_555
H20 C18 1_555 1_555
C19 C17 1_555 1_555
H21 C19 1_555 1_555
H22 C19 1_555 1_555
H23 C19 1_555 1_555
C20 C17 1_555 1_555
H24 C20 1_555 1_555
H25 C20 1_555 1_555
H26 C20 1_555 1_555
C21 O3 1_555 1_555
C22 C21 1_555 1_555
C23 C22 1_555 1_555
H27 C23 1_555 1_555
C24 C23 1_555 1_555
H28 C24 1_555 1_555
C25 C24 1_555 1_555
H29 C25 1_555 1_555
C26 C21 1_555 1_555
H30 C26 1_555 1_555
C27 C22 1_555 1_555
C28 C27 1_555 1_555
H31 C28 1_555 1_555
H32 C28 1_555 1_555
H33 C28 1_555 1_555
C29 C27 1_555 1_555
H34 C29 1_555 1_555
H35 C29 1_555 1_555
H36 C29 1_555 1_555
C30 C27 1_555 1_555
H37 C30 1_555 1_555
H38 C30 1_555 1_555
H39 C30 1_555 1_555
C31 O4 1_555 1_555
H40 C31 1_555 1_555
H41 C31 1_555 1_555
C32 C31 1_555 1_555
H42 C32 1_555 1_555
H43 C32 1_555 1_555
C33 O5 1_555 1_555
H44 C33 1_555 1_555
H45 C33 1_555 1_555
C34 O4 1_555 1_555
H46 C34 1_555 1_555
H47 C34 1_555 1_555
C35 O6 1_555 1_555
H48 C35 1_555 1_555
H49 C35 1_555 1_555
C36 O6 1_555 1_555
H50 C36 1_555 1_555
H51 C36 1_555 1_555
C37 C35 1_555 1_555
H52 C37 1_555 1_555
H53 C37 1_555 1_555
C38 O7 1_555 1_555
H54 C38 1_555 1_555
H55 C38 1_555 1_555
K1E O1E 1_555 1_555
K2E O2 1_555 1_555
K2F O6F 1_555 1_555
K3E O3 1_555 1_555
K3F O7 1_555 1_555
O1E K2E 1_555 1_555
O2E K2 1_555 1_555
O3E K2 1_555 1_555
O4E K1E 1_555 1_555
O5E C32E 1_555 1_555
O6F C35F 1_555 1_555
O6E K2E 1_555 1_555
O7F K3 1_555 1_555
O7C K3E 1_555 1_555
O8E K3 1_555 1_555
C1E O1E 1_555 1_555
C2E C1E 1_555 1_555
C3E C2E 1_555 1_555
H1E C3E 1_555 1_555
C4E C3E 1_555 1_555
H2E C4E 1_555 1_555
C5E C4E 1_555 1_555
H3E C5E 1_555 1_555
C6E C1E 1_555 1_555
H4E C6E 1_555 1_555
C7E C2E 1_555 1_555
C8E C7E 1_555 1_555
H5E C8E 1_555 1_555
H6E C8E 1_555 1_555
H7E C8E 1_555 1_555
C9E C7E 1_555 1_555
H8E C9E 1_555 1_555
H9E C9E 1_555 1_555
H10E C9E 1_555 1_555
C10E C7E 1_555 1_555
H11E C10E 1_555 1_555
H12E C10E 1_555 1_555
H13E C10E 1_555 1_555
C11E O2E 1_555 1_555
C12E C11E 1_555 1_555
H14E C12E 1_555 1_555
C13E C12E 1_555 1_555
H15E C13E 1_555 1_555
C14E C13E 1_555 1_555
H16E C14E 1_555 1_555
C15E C14E 1_555 1_555
H17E C15E 1_555 1_555
C16E C11E 1_555 1_555
C17E C16E 1_555 1_555
C18E C17E 1_555 1_555
H18E C18E 1_555 1_555
H19E C18E 1_555 1_555
H20E C18E 1_555 1_555
C19E C17E 1_555 1_555
H21E C19E 1_555 1_555
H22E C19E 1_555 1_555
H23E C19E 1_555 1_555
C20E C17E 1_555 1_555
H24E C20E 1_555 1_555
H25E C20E 1_555 1_555
H26E C20E 1_555 1_555
C21E O3E 1_555 1_555
C22E C21E 1_555 1_555
C23E C22E 1_555 1_555
H27E C23E 1_555 1_555
C24E C23E 1_555 1_555
H28E C24E 1_555 1_555
C25E C24E 1_555 1_555
H29E C25E 1_555 1_555
C26E C21E 1_555 1_555
H30E C26E 1_555 1_555
C27E C22E 1_555 1_555
C28E C27E 1_555 1_555
H31E C28E 1_555 1_555
H32E C28E 1_555 1_555
H33E C28E 1_555 1_555
C29E C27E 1_555 1_555
H34E C29E 1_555 1_555
H35E C29E 1_555 1_555
H36E C29E 1_555 1_555
C30E C27E 1_555 1_555
H37E C30E 1_555 1_555
H38E C30E 1_555 1_555
H39E C30E 1_555 1_555
C31E O4E 1_555 1_555
H40E C31E 1_555 1_555
H41E C31E 1_555 1_555
C32E C31E 1_555 1_555
H42E C32E 1_555 1_555
H43E C32E 1_555 1_555
C33E O5E 1_555 1_555
H44E C33E 1_555 1_555
H45E C33E 1_555 1_555
C34E O4E 1_555 1_555
H46E C34E 1_555 1_555
H47E C34E 1_555 1_555
C35F H48F 1_555 1_555
H49F C35F 1_555 1_555
C36F O6F 1_555 1_555
H50F C36F 1_555 1_555
H51F C36F 1_555 1_555
C37F O7F 1_555 1_555
H52F C37F 1_555 1_555
H53F C37F 1_555 1_555
C38F O7F 1_555 1_555
H54F C38F 1_555 1_555
H55F C38F 1_555 1_555
K2 O8 1_555 1_555
K3 O2 1_555 1_555
K3 O3E 1_555 1_555
O3 K2E 1_555 1_555
O8 K3E 1_555 1_555
O8 O8E 1_555 1_555
C5 C6 1_555 1_555
C15 C16 1_555 1_555
C25 C26 1_555 1_555
C33 C34 1_555 1_555
C36 C38 1_555 1_555
K1E O2E 1_555 1_555
K1E O3E 1_555 1_555
K1E O8E 1_555 1_555
K2E O8E 1_555 1_555
K3E O1E 1_555 1_555
K3E O2E 1_555 1_555
C5E C6E 1_555 1_555
C15E C16E 1_555 1_555
C25E C26E 1_555 1_555
C33E C34E 1_555 1_555
C35F C37F 1_555 1_555
C36F C38F 1_555 1_555

#END
