
#######################################################################
#
#                 Cambridge Crystallographic Data Centre
#                                CCDC 
#
#######################################################################
#
# If this CIF has been generated from an entry in the Cambridge 
# Structural Database, then it will include bibliographic, chemical, 
# crystal, experimental, refinement or atomic coordinate data resulting 
# from the CCDC's data processing and validation procedures.
#
#######################################################################

data_JIVRIQ
_symmetry_cell_setting           triclinic
_symmetry_space_group_name_H-M   'P -1'
_symmetry_Int_Tables_number      2
_space_group_name_Hall           '-P 1'
loop_
_symmetry_equiv_pos_site_id
_symmetry_equiv_pos_as_xyz
1 x,y,z
2 -x,-y,-z
_cell_length_a                   8.4017(14)
_cell_length_b                   10.6786(18)
_cell_length_c                   9.3559(14)
_cell_angle_alpha                114.3782(83)
_cell_angle_beta                 91.3374(59)
_cell_angle_gamma                64.9804(63)
_cell_volume                     681.084
loop_
_atom_site_label
_atom_site_type_symbol
_atom_site_fract_x
_atom_site_fract_y
_atom_site_fract_z
Zn1 Zn 0.94207(41) 0.40260(35) 0.20788(72)
O1 O 1.204426 0.291165 0.192933
O2 O 1.165466 0.083485 0.072268
C1 C 1.252526 0.153238 0.145663
C2 C 1.429697 0.056082 0.175315
H1 H 1.502166 -0.032272 0.074177
H2 H 1.409018 0.018973 0.249583
H3 H 1.492595 0.118487 0.221478
O3 O 0.933890 0.610480 0.284500
O4 O 0.641410 0.735290 0.355110
C3 C 0.793800 0.729170 0.348780
C4 C 0.799960 0.881800 0.428190
H4 H 0.924610 0.863430 0.426840
H5 H 0.736190 0.938060 0.538930
H6 H 0.743020 0.942820 0.370490
N1 N 0.830600 0.379220 0.380790
N2 N 0.664780 0.411350 0.576420
N3 N 0.670220 0.413280 0.834930
N4 N 0.826500 0.394070 1.017060
C5 C 0.752050 0.470940 0.530680
C6 C 0.794580 0.255930 0.327970
C7 C 0.691720 0.275060 0.449470
C8 C 0.561310 0.475690 0.734620
C9 C 0.738250 0.486460 0.951770
C10 C 0.815410 0.257810 0.939460
C11 C 0.717120 0.269620 0.826500
H7 H 0.756860 0.564660 0.595770
H8 H 0.835050 0.171960 0.223980
H9 H 0.645960 0.20711 0.448150
H10 H 0.458680 0.451710 0.723790
H11 H 0.513570 0.589250 0.786110
H12 H 0.725750 0.587260 0.982810
H13 H 0.867720 0.171400 0.961780
H14 H 0.685650 0.193710 0.754420
Zn1_2 Zn 0.94207(41) 0.40260(35) 1.20788(72)
N4_2 N 0.826500 0.394070 0.017060
loop_
_geom_bond_atom_site_label_1
_geom_bond_atom_site_label_2
_geom_bond_site_symmetry_1
_geom_bond_site_symmetry_2
Zn1 O1 1_555 1_555
O1 C1 1_555 1_555
O2 C1 1_555 1_555
C1 C2 1_555 1_555
C2 H1 1_555 1_555
H2 C2 1_555 1_555
H3 C2 1_555 1_555
O3 Zn1 1_555 1_555
O4 C3 1_555 1_555
C3 O3 1_555 1_555
C4 C3 1_555 1_555
H4 C4 1_555 1_555
H5 C4 1_555 1_555
H6 C4 1_555 1_555
N1 Zn1 1_555 1_555
N2 C5 1_555 1_555
N3 C8 1_555 1_555
N4 C9 1_555 1_555
C5 N1 1_555 1_555
C6 N1 1_555 1_555
C7 N2 1_555 1_555
C8 N2 1_555 1_555
C9 N3 1_555 1_555
C10 N4 1_555 1_555
C11 N3 1_555 1_555
H7 C5 1_555 1_555
H8 C6 1_555 1_555
H9 C7 1_555 1_555
H10 C8 1_555 1_555
H11 C8 1_555 1_555
H12 C9 1_555 1_555
H13 C10 1_555 1_555
H14 C11 1_555 1_555
Zn1_2 N4 1_555 1_555
N4_2 Zn1 1_555 1_555
C6 C7 1_555 1_555
C10 C11 1_555 1_555

#END
