
#######################################################################
#
#                 Cambridge Crystallographic Data Centre
#                                CCDC 
#
#######################################################################
#
# If this CIF has been generated from an entry in the Cambridge 
# Structural Database, then it will include bibliographic, chemical, 
# crystal, experimental, refinement or atomic coordinate data resulting 
# from the CCDC's data processing and validation procedures.
#
#######################################################################

data_JIVRUC
_symmetry_cell_setting           orthorhombic
_symmetry_space_group_name_H-M   'C m c a'
_symmetry_Int_Tables_number      64
_space_group_name_Hall           '-C 2ac 2'
loop_
_symmetry_equiv_pos_site_id
_symmetry_equiv_pos_as_xyz
1 x,y,z
2 -x,1/2-y,1/2+z
3 x,-y,-z
4 -x,1/2+y,1/2-z
5 1/2+x,1/2+y,z
6 1/2-x,-y,1/2+z
7 1/2+x,1/2-y,-z
8 1/2-x,y,1/2-z
9 -x,-y,-z
10 x,1/2+y,1/2-z
11 -x,y,z
12 x,1/2-y,1/2+z
13 1/2-x,1/2-y,-z
14 1/2+x,y,1/2-z
15 1/2-x,1/2+y,z
16 1/2+x,-y,1/2+z
_cell_length_a                   9.39922(57)
_cell_length_b                   17.90070(42)
_cell_length_c                   12.76183(74)
_cell_angle_alpha                90
_cell_angle_beta                 90
_cell_angle_gamma                90
_cell_volume                     2147.21
loop_
_atom_site_label
_atom_site_type_symbol
_atom_site_fract_x
_atom_site_fract_y
_atom_site_fract_z
Cd1 Cd 0.00000 0.00000 0.00000
C1 C 0.50000 -0.11709 -0.20548
H1 H 0.50000 -0.079080 -0.262350
H2 H 0.50000 -0.169960 -0.229490
N1 N 0.175800 -0.081800 -0.060170
N2 N 0.365990 -0.106980 -0.146240
C2 C 0.276110 -0.053130 -0.119410
C3 C 0.201810 -0.156250 -0.047430
C4 C 0.320420 -0.172240 -0.100630
H3 H 0.283220 -0.002180 -0.139770
H4 H 0.145910 -0.190460 -0.008040
H5 H 0.364750 -0.219790 -0.105850
O1 O 0.00000 -0.172270 0.138050
O2 O 0.00000 -0.053830 0.175130
C5 C 0.00000 -0.12058 0.20391
C6 C 0.00000 -0.139080 0.320150
Cd1_2 Cd 1.00000 0.00000 0.00000
C1B C 0.50000 0.11709 0.20548
H1B H 0.50000 0.079080 0.262350
H2B H 0.50000 0.169960 0.229490
N1J N 0.824200 -0.081800 -0.060170
N1B N 0.175800 0.081800 0.060170
N1H N 0.824200 0.081800 0.060170
N1H_2 N -0.175800 0.081800 0.060170
N1J_2 N -0.175800 -0.081800 -0.060170
N2J N 0.634010 -0.106980 -0.146240
N2B N 0.365990 0.106980 0.146240
N2H N 0.634010 0.106980 0.146240
C2J C 0.723890 -0.053130 -0.119410
C2B C 0.276110 0.053130 0.119410
C2H C 0.723890 0.053130 0.119410
C3J C 0.798190 -0.156250 -0.047430
C3B C 0.201810 0.156250 0.047430
C3H C 0.798190 0.156250 0.047430
C4J C 0.679580 -0.172240 -0.100630
C4B C 0.320420 0.172240 0.100630
C4H C 0.679580 0.172240 0.100630
H3J H 0.716780 -0.002180 -0.139770
H3B H 0.283220 0.002180 0.139770
H3H H 0.716780 0.002180 0.139770
H4J H 0.854090 -0.190460 -0.008040
H4B H 0.145910 0.190460 0.008040
H4H H 0.854090 0.190460 0.008040
H5J H 0.635250 -0.219790 -0.105850
H5B H 0.364750 0.219790 0.105850
H5H H 0.635250 0.219790 0.105850
O1B O 0.00000 0.172270 -0.138050
O2B O 0.00000 0.053830 -0.175130
C5B C 0.00000 0.12058 -0.20391
C6B C 0.00000 0.139080 -0.320150
loop_
_geom_bond_atom_site_label_1
_geom_bond_atom_site_label_2
_geom_bond_site_symmetry_1
_geom_bond_site_symmetry_2
Cd1 N1 1_555 1_555
C1 H1 1_555 1_555
H2 C1 1_555 1_555
N1 C2 1_555 1_555
N2 C1 1_555 1_555
C2 N2 1_555 1_555
C3 N1 1_555 1_555
C4 N2 1_555 1_555
H3 C2 1_555 1_555
H4 C3 1_555 1_555
H5 C4 1_555 1_555
O1 C5 1_555 1_555
O2 Cd1 1_555 1_555
C5 O2 1_555 1_555
C6 C5 1_555 1_555
Cd1_2 N1J 1_555 1_555
C1B H1B 1_555 1_555
H2B C1B 1_555 1_555
N1J C2J 1_555 1_555
N1B Cd1 1_555 1_555
N1H Cd1_2 1_555 1_555
N1H_2 Cd1 1_555 1_555
N1J_2 Cd1 1_555 1_555
N2J C1 1_555 1_555
N2B C1B 1_555 1_555
N2H C1B 1_555 1_555
C2J N2J 1_555 1_555
C2B N1B 1_555 1_555
C2H N1H 1_555 1_555
C3J N1J 1_555 1_555
C3B N1B 1_555 1_555
C3H N1H 1_555 1_555
C4J N2J 1_555 1_555
C4B N2B 1_555 1_555
C4H N2H 1_555 1_555
H3J C2J 1_555 1_555
H3B C2B 1_555 1_555
H3H C2H 1_555 1_555
H4J C3J 1_555 1_555
H4B C3B 1_555 1_555
H4H C3H 1_555 1_555
H5J C4J 1_555 1_555
H5B C4B 1_555 1_555
H5H C4H 1_555 1_555
O1B C5B 1_555 1_555
O2B Cd1 1_555 1_555
C5B O2B 1_555 1_555
C6B C5B 1_555 1_555
C3 C4 1_555 1_555
N2B C2B 1_555 1_555
N2H C2H 1_555 1_555
C3J C4J 1_555 1_555
C3B C4B 1_555 1_555
C3H C4H 1_555 1_555

#END
