
#######################################################################
#
#                 Cambridge Crystallographic Data Centre
#                                CCDC 
#
#######################################################################
#
# If this CIF has been generated from an entry in the Cambridge 
# Structural Database, then it will include bibliographic, chemical, 
# crystal, experimental, refinement or atomic coordinate data resulting 
# from the CCDC's data processing and validation procedures.
#
#######################################################################

data_JIWQOV
_symmetry_cell_setting           monoclinic
_symmetry_space_group_name_H-M   'P 21/c'
_symmetry_Int_Tables_number      14
_space_group_name_Hall           '-P 2ybc'
loop_
_symmetry_equiv_pos_site_id
_symmetry_equiv_pos_as_xyz
1 x,y,z
2 -x,1/2+y,1/2-z
3 -x,-y,-z
4 x,1/2-y,1/2+z
_cell_length_a                   7.2422(2)
_cell_length_b                   24.2930(2)
_cell_length_c                   8.6645(2)
_cell_angle_alpha                90
_cell_angle_beta                 98.7420(10)
_cell_angle_gamma                90
_cell_volume                     1506.68
loop_
_atom_site_label
_atom_site_type_symbol
_atom_site_fract_x
_atom_site_fract_y
_atom_site_fract_z
Cu1 Cu 0.3410(1) 0.4960(1) 0.7263(1)
N1 N 0.2461(9) 0.5471(3) 0.8816(7)
N2 N 0.3178(9) 0.4399(3) 0.9002(7)
C1 C 0.4593(10) 0.4991(3) 0.5523(8)
C2 C 0.2174(13) 0.6010(4) 0.8689(10)
C3 C 0.1768(14) 0.6334(4) 0.9888(12)
C4 C 0.1659(13) 0.6099(4) 1.1315(11)
C5 C 0.1906(11) 0.5541(4) 1.1447(10)
C6 C 0.2317(10) 0.5232(3) 1.0216(8)
C7 C 0.2666(10) 0.4633(3) 1.0287(8)
C8 C 0.2536(11) 0.4313(4) 1.1596(9)
C9 C 0.2863(13) 0.3760(4) 1.1587(12)
C10 C 0.3330(14) 0.3524(4) 1.0248(13)
C11 C 0.3482(13) 0.3865(4) 0.8997(11)
H1 H 0.215(11) 0.6144(33) 0.7714(96)
H2 H 0.163(13) 0.6715(40) 0.967(10)
H3 H 0.136(13) 0.6292(37) 1.196(11)
H4 H 0.200(11) 0.5332(32) 1.2424(93)
H5 H 0.203(13) 0.4480(38) 1.240(11)
H6 H 0.259(13) 0.3545(38) 1.231(11)
H7 H 0.362(14) 0.3196(44) 1.016(12)
H8 H 0.382(14) 0.3689(40) 0.805(12)
C1B C 0.5407(10) 0.5009(3) 0.4477(8)
Cu2 Cu 0.0000 0.5000 0.5000
Cu3 Cu 0.1796(2) 0.3062(1) 0.5874(1)
Cu4 Cu -0.2023(2) 0.2155(1) 0.9271(2)
N3 N 0.0664(11) 0.3802(4) 0.5252(8)
N4 N -0.0313(11) 0.2407(3) 0.8044(9)
N5 N 0.4314(12) 0.3003(3) 0.5387(10)
C12 C 0.0348(11) 0.4249(4) 0.5139(9)
C13 C 0.0560(12) 0.2629(3) 0.7220(10)
C14 C 0.5759(13) 0.2967(4) 0.5025(10)
C12B C -0.0348(11) 0.5751(4) 0.4861(9)
C14C C -0.4241(13) 0.2033(4) 1.0025(10)
Cu4C Cu 0.7977(2) 0.2845(1) 0.4271(2)
loop_
_geom_bond_atom_site_label_1
_geom_bond_atom_site_label_2
_geom_bond_site_symmetry_1
_geom_bond_site_symmetry_2
Cu1 N1 1_555 1_555
Cu2 C12 1_555 1_555
Cu3 N3 1_555 1_555
Cu4 N4 1_555 1_555
N1 C2 1_555 1_555
N2 Cu1 1_555 1_555
C1 Cu1 1_555 1_555
N3 C12 1_555 1_555
N4 C13 1_555 1_555
N5 Cu3 1_555 1_555
C2 C3 1_555 1_555
C3 C4 1_555 1_555
C4 C5 1_555 1_555
C5 C6 1_555 1_555
C6 N1 1_555 1_555
C7 N2 1_555 1_555
C8 C7 1_555 1_555
C9 C8 1_555 1_555
C10 C9 1_555 1_555
C11 N2 1_555 1_555
C13 Cu3 1_555 1_555
C14 N5 1_555 1_555
H1 C2 1_555 1_555
H2 C3 1_555 1_555
H3 C4 1_555 1_555
H4 C5 1_555 1_555
H5 C8 1_555 1_555
H6 C9 1_555 1_555
H7 C10 1_555 1_555
H8 C11 1_555 1_555
C12B Cu2 1_555 1_555
C14C Cu4 1_555 1_555
C1B C1 1_555 1_555
Cu4C C14 1_555 1_555
C6 C7 1_555 1_555
C10 C11 1_555 1_555

#END
