
#######################################################################
#
#                 Cambridge Crystallographic Data Centre
#                                CCDC 
#
#######################################################################
#
# If this CIF has been generated from an entry in the Cambridge 
# Structural Database, then it will include bibliographic, chemical, 
# crystal, experimental, refinement or atomic coordinate data resulting 
# from the CCDC's data processing and validation procedures.
#
#######################################################################

data_JIWQIP
_symmetry_cell_setting           monoclinic
_symmetry_space_group_name_H-M   'P 21/c'
_symmetry_Int_Tables_number      14
_space_group_name_Hall           '-P 2ybc'
loop_
_symmetry_equiv_pos_site_id
_symmetry_equiv_pos_as_xyz
1 x,y,z
2 -x,1/2+y,1/2-z
3 -x,-y,-z
4 x,1/2-y,1/2+z
_cell_length_a                   7.3947(7)
_cell_length_b                   18.041(2)
_cell_length_c                   16.0019(14)
_cell_angle_alpha                90
_cell_angle_beta                 98.550(2)
_cell_angle_gamma                90
_cell_volume                     2111.05
loop_
_atom_site_label
_atom_site_type_symbol
_atom_site_fract_x
_atom_site_fract_y
_atom_site_fract_z
Cu1 Cu 1.1211(2) 0.6247(1) 0.1290(1)
Cu2 Cu 0.8033(3) 0.6269(1) 0.3713(1)
Cu3 Cu 0.5862(3) 0.6243(1) 0.6469(1)
Cu4 Cu 0.5360(3) 0.3674(1) 0.7425(1)
N1 N 1.1624(17) 0.7123(8) 0.0550(8)
N2 N 1.2175(15) 0.5699(7) 0.0359(7)
C1 C 1.1428(21) 0.7849(10) 0.0688(10)
C2 C 1.0716(22) 0.8081(11) 0.1458(12)
C3 C 1.0547(25) 0.8790(10) 0.1659(13)
C4 C 1.1063(29) 0.9355(12) 0.1110(16)
C5 C 1.1675(27) 0.9174(12) 0.0400(13)
C6 C 1.1857(27) 0.8406(12) 0.0133(15)
C7 C 1.2488(23) 0.8199(12) -0.0567(14)
C8 C 1.2683(23) 0.7462(11) -0.0754(10)
C9 C 1.2248(19) 0.6931(9) -0.0168(9)
C10 C 1.2301(20) 0.4937(11) 0.0303(9)
C11 C 1.1977(20) 0.4475(9) 0.1005(9)
C12 C 1.2185(23) 0.3738(11) 0.0957(11)
C13 C 1.2685(23) 0.3393(11) 0.0227(13)
C14 C 1.2972(20) 0.3804(11) -0.0443(11)
C15 C 1.2808(21) 0.4578(9) -0.0435(10)
C16 C 1.3117(21) 0.5062(12) -0.1088(12)
C17 C 1.2995(19) 0.5797(12) -0.1045(9)
C18 C 1.2452(19) 0.6124(11) -0.0292(9)
C19 C 0.9287(17) 0.6216(9) 0.2806(7)
C20 C 0.6994(18) 0.6291(9) 0.4697(9)
C21 C 0.5616(19) 0.4642(9) 0.7106(9)
C22 C 0.5450(22) 0.7124(9) 0.7015(9)
C23 C 1.0122(21) 0.6195(10) 0.2248(9)
C24 C 0.6473(18) 0.6296(8) 0.5342(8)
C25 C 0.5758(19) 0.5257(9) 0.6886(9)
C26 C 0.5108(18) 0.7718(9) 0.7265(9)
H1 H 1.0372(22) 0.7719(11) 0.1817(12)
H2 H 1.0098(25) 0.8918(10) 0.2152(13)
H3 H 1.0967(29) 0.9852(12) 0.1254(16)
H4 H 1.2003(27) 0.9552(12) 0.0056(13)
H5 H 1.2803(23) 0.8558(12) -0.0936(14)
H6 H 1.3090(23) 0.7317(11) -0.1252(10)
H7 H 1.1629(20) 0.4688(9) 0.1486(9)
H8 H 1.1996(23) 0.3445(11) 0.1415(11)
H9 H 1.2815(23) 0.2880(11) 0.0212(13)
H10 H 1.3285(20) 0.3570(11) -0.0920(11)
H11 H 1.3425(21) 0.4857(12) -0.1581(12)
H12 H 1.3251(19) 0.6094(12) -0.1488(9)
C26A C 0.4892(18) 0.2718(9) 0.7735(9)
Cu4A Cu 0.4640(3) 0.8674(1) 0.7575(1)
loop_
_geom_bond_atom_site_label_1
_geom_bond_atom_site_label_2
_geom_bond_site_symmetry_1
_geom_bond_site_symmetry_2
Cu1 N1 1_555 1_555
Cu2 C19 1_555 1_555
Cu3 C22 1_555 1_555
Cu4 C21 1_555 1_555
N1 C1 1_555 1_555
N2 Cu1 1_555 1_555
C1 C2 1_555 1_555
C2 C3 1_555 1_555
C3 C4 1_555 1_555
C4 C5 1_555 1_555
C5 C6 1_555 1_555
C6 C1 1_555 1_555
C7 C6 1_555 1_555
C8 C7 1_555 1_555
C9 N1 1_555 1_555
C10 N2 1_555 1_555
C11 C10 1_555 1_555
C12 C11 1_555 1_555
C13 C12 1_555 1_555
C14 C13 1_555 1_555
C15 C10 1_555 1_555
C16 C15 1_555 1_555
C17 C16 1_555 1_555
C18 N2 1_555 1_555
C19 C23 1_555 1_555
C20 Cu2 1_555 1_555
C21 C25 1_555 1_555
C22 C26 1_555 1_555
C23 Cu1 1_555 1_555
C24 Cu3 1_555 1_555
C25 Cu3 1_555 1_555
C26 Cu4A 1_555 1_555
H1 C2 1_555 1_555
H2 C3 1_555 1_555
H3 C4 1_555 1_555
H4 C5 1_555 1_555
H5 C7 1_555 1_555
H6 C8 1_555 1_555
H7 C11 1_555 1_555
H8 C12 1_555 1_555
H9 C13 1_555 1_555
H10 C14 1_555 1_555
H11 C16 1_555 1_555
H12 C17 1_555 1_555
C26A Cu4 1_555 1_555
C8 C9 1_555 1_555
C9 C18 1_555 1_555
C14 C15 1_555 1_555
C17 C18 1_555 1_555
C20 C24 1_555 1_555

#END
