
#######################################################################
#
#                 Cambridge Crystallographic Data Centre
#                                CCDC 
#
#######################################################################
#
# If this CIF has been generated from an entry in the Cambridge 
# Structural Database, then it will include bibliographic, chemical, 
# crystal, experimental, refinement or atomic coordinate data resulting 
# from the CCDC's data processing and validation procedures.
#
#######################################################################

data_JIWREN
_symmetry_cell_setting           monoclinic
_symmetry_space_group_name_H-M   'P 21/n'
_symmetry_Int_Tables_number      14
_space_group_name_Hall           '-P 2yn'
loop_
_symmetry_equiv_pos_site_id
_symmetry_equiv_pos_as_xyz
1 x,y,z
2 1/2-x,1/2+y,1/2-z
3 -x,-y,-z
4 1/2+x,1/2-y,1/2+z
_cell_length_a                   5.9765(3)
_cell_length_b                   15.7196(9)
_cell_length_c                   12.0514(6)
_cell_angle_alpha                90
_cell_angle_beta                 101.618(3)
_cell_angle_gamma                90
_cell_volume                     1109.01
loop_
_atom_site_label
_atom_site_type_symbol
_atom_site_fract_x
_atom_site_fract_y
_atom_site_fract_z
Cu1 Cu 0.0000 0.0000 0.0000
O1 O 0.1345(2) 0.04955(9) -0.11702(11)
O2 O 0.7769(3) 0.15674(12) -0.00575(13)
H1 H 0.6914 0.1360 0.0323
O3 O 0.5366(3) 0.05547(13) 0.39116(13)
N1 N 0.4033(3) 0.09599(10) 0.03602(13)
N2 N 0.2662(3) 0.05207(9) 0.09679(12)
C1 C 0.4422(3) 0.13484(11) -0.15163(15)
C2 C 0.6618(4) 0.16660(12) -0.11437(17)
C3 C 0.7742(4) 0.20754(14) -0.1898(2)
H2 H 0.9206 0.2290 -0.1648
C4 C 0.6674(5) 0.21608(15) -0.3018(2)
H3 H 0.7416 0.2440 -0.3521
C5 C 0.4538(5) 0.18381(16) -0.3395(2)
H4 H 0.3843 0.1893 -0.4154
C6 C 0.3405(4) 0.14326(14) -0.26627(18)
H5 H 0.1952 0.1212 -0.2930
C7 C 0.3163(3) 0.09063(11) -0.07395(16)
C8 C 0.5263(3) 0.07666(12) 0.27948(15)
C9 C 0.7139(4) 0.11963(15) 0.2679(2)
H6 H 0.7476 0.1415 0.2014
C10 C 0.8523(5) 0.12469(19) 0.3804(3)
H7 H 0.9947 0.1504 0.4012
C11 C 0.7366(6) 0.0855(2) 0.4488(2)
H8 H 0.7878 0.0796 0.5266
C12 C 0.3260(3) 0.04574(12) 0.20498(15)
H9 H 0.2238 0.0167 0.2401
Cu1_2 Cu 1.0000 0.0000 0.0000
Cu1_3 Cu -1.0000 0.0000 0.0000
O1B O -0.1345(2) -0.04955(9) 0.11702(11)
O2B O -0.7769(3) -0.15674(12) 0.00575(13)
O2_2 O -0.2231(3) 0.15674(12) -0.00575(13)
O2B_2 O 0.2231(3) -0.15674(12) 0.00575(13)
H1B H -0.6914 -0.1360 -0.0323
H1_2 H -0.3086 0.1360 0.0323
H1B_2 H 0.3086 -0.1360 -0.0323
O3B O -0.5366(3) -0.05547(13) -0.39116(13)
N1B N -0.4033(3) -0.09599(10) -0.03602(13)
N2B N -0.2662(3) -0.05207(9) -0.09679(12)
C1B C -0.4422(3) -0.13484(11) 0.15163(15)
C2B C -0.6618(4) -0.16660(12) 0.11437(17)
C3B C -0.7742(4) -0.20754(14) 0.1898(2)
H2B H -0.9206 -0.2290 0.1648
C4B C -0.6674(5) -0.21608(15) 0.3018(2)
H3B H -0.7416 -0.2440 0.3521
C5B C -0.4538(5) -0.18381(16) 0.3395(2)
H4B H -0.3843 -0.1893 0.4154
C6B C -0.3405(4) -0.14326(14) 0.26627(18)
H5B H -0.1952 -0.1212 0.2930
C7B C -0.3163(3) -0.09063(11) 0.07395(16)
C8B C -0.5263(3) -0.07666(12) -0.27948(15)
C9B C -0.7139(4) -0.11963(15) -0.2679(2)
H6B H -0.7476 -0.1415 -0.2014
C10B C -0.8523(5) -0.12469(19) -0.3804(3)
H7B H -0.9947 -0.1504 -0.4012
C11B C -0.7366(6) -0.0855(2) -0.4488(2)
H8B H -0.7878 -0.0796 -0.5266
C12B C -0.3260(3) -0.04574(12) -0.20498(15)
H9B H -0.2238 -0.0167 -0.2401
loop_
_geom_bond_atom_site_label_1
_geom_bond_atom_site_label_2
_geom_bond_site_symmetry_1
_geom_bond_site_symmetry_2
Cu1 O1 1_555 1_555
O1 C7 1_555 1_555
O2 H1 1_555 1_555
O3 C8 1_555 1_555
N1 N2 1_555 1_555
N2 Cu1 1_555 1_555
C1 C2 1_555 1_555
C2 O2 1_555 1_555
C3 C2 1_555 1_555
H2 C3 1_555 1_555
C4 C3 1_555 1_555
H3 C4 1_555 1_555
C5 C4 1_555 1_555
H4 C5 1_555 1_555
C6 C1 1_555 1_555
H5 C6 1_555 1_555
C7 N1 1_555 1_555
C8 C9 1_555 1_555
C9 H6 1_555 1_555
C10 C9 1_555 1_555
H7 C10 1_555 1_555
C11 O3 1_555 1_555
H8 C11 1_555 1_555
C12 N2 1_555 1_555
H9 C12 1_555 1_555
Cu1_2 O2 1_555 1_555
Cu1_3 O2B 1_555 1_555
O1B Cu1 1_555 1_555
O2B H1B 1_555 1_555
O2_2 Cu1 1_555 1_555
O2B_2 Cu1 1_555 1_555
H1_2 O2_2 1_555 1_555
H1B_2 O2B_2 1_555 1_555
O3B C8B 1_555 1_555
N1B N2B 1_555 1_555
N2B Cu1 1_555 1_555
C1B C2B 1_555 1_555
C2B O2B 1_555 1_555
C3B C2B 1_555 1_555
H2B C3B 1_555 1_555
C4B C3B 1_555 1_555
H3B C4B 1_555 1_555
C5B C4B 1_555 1_555
H4B C5B 1_555 1_555
C6B C1B 1_555 1_555
H5B C6B 1_555 1_555
C7B O1B 1_555 1_555
C8B C9B 1_555 1_555
C9B H6B 1_555 1_555
C10B C9B 1_555 1_555
H7B C10B 1_555 1_555
C11B O3B 1_555 1_555
H8B C11B 1_555 1_555
C12B N2B 1_555 1_555
H9B C12B 1_555 1_555
C1 C7 1_555 1_555
C5 C6 1_555 1_555
C8 C12 1_555 1_555
C10 C11 1_555 1_555
N1B C7B 1_555 1_555
C1B C7B 1_555 1_555
C5B C6B 1_555 1_555
C8B C12B 1_555 1_555
C10B C11B 1_555 1_555

#END
