
#######################################################################
#
#                 Cambridge Crystallographic Data Centre
#                                CCDC 
#
#######################################################################
#
# If this CIF has been generated from an entry in the Cambridge 
# Structural Database, then it will include bibliographic, chemical, 
# crystal, experimental, refinement or atomic coordinate data resulting 
# from the CCDC's data processing and validation procedures.
#
#######################################################################

data_JIYNOU02
_symmetry_cell_setting           triclinic
_symmetry_space_group_name_H-M   'P -1'
_symmetry_Int_Tables_number      2
_space_group_name_Hall           '-P 1'
loop_
_symmetry_equiv_pos_site_id
_symmetry_equiv_pos_as_xyz
1 x,y,z
2 -x,-y,-z
_cell_length_a                   8.4910(17)
_cell_length_b                   9.6550(19)
_cell_length_c                   10.812(2)
_cell_angle_alpha                70.66(3)
_cell_angle_beta                 67.36(3)
_cell_angle_gamma                72.18(3)
_cell_volume                     755.511
loop_
_atom_site_label
_atom_site_type_symbol
_atom_site_fract_x
_atom_site_fract_y
_atom_site_fract_z
Co1 Co 0.5000 0.0000 1.0000
Co2 Co -0.34720(3) -0.24878(3) 1.57830(2)
O1 O 0.28345(17) 0.04854(17) 1.16329(14)
O2 O 0.0187(2) 0.1831(2) 1.23759(18)
O3 O 0.38586(17) 0.17210(16) 0.86311(15)
O4 O 0.16647(18) 0.33925(15) 0.80109(14)
O5 O -0.25542(16) -0.11501(15) 1.36927(12)
O6 O 0.0281(2) -0.1780(2) 1.34430(16)
C1 C 0.1262(2) 0.0976(2) 1.16628(17)
C2 C 0.0635(2) 0.04587(18) 1.07862(16)
C3 C 0.1144(2) 0.09931(18) 0.93500(16)
C4 C -0.0508(2) -0.05364(19) 1.14360(16)
C5 C 0.2310(2) 0.21247(19) 0.86072(17)
C6 C -0.0959(2) -0.1200(2) 1.29824(17)
O7 O 0.41451(19) -0.17185(17) 0.97466(15)
O8 O -0.4220(2) -0.05917(17) 1.65468(15)
O9 O -0.60327(19) -0.20535(18) 1.57062(16)
O10 O -0.10663(19) -0.30449(18) 1.60989(14)
O11 O -0.2893(3) -0.42570(17) 1.49117(16)
O12 O -0.44107(19) -0.37460(17) 1.78180(15)
H1 H 0.4932 -0.2170 0.9156
H2 H 0.3435 -0.2272 1.0317
H3 H -0.3782 -0.0538 1.7112
H4 H -0.5275 -0.0122 1.6700
H5 H -0.6127 -0.2309 1.5063
H6 H -0.0423 -0.2678 1.5300
H7 H -0.0800 -0.2705 1.6608
H8 H -0.2392 -0.4191 1.4053
H9 H -0.3255 -0.5066 1.5367
H10 H -0.5353 -0.3991 1.7950
H11 H -0.3651 -0.4459 1.8098
H12 H -0.6569 -0.1155 1.5482
Co1_2 Co -0.5000 0.0000 1.0000
Co2A Co 0.34720(3) 0.24878(3) 0.42170(2)
O1A O -0.28345(17) -0.04854(17) 0.83671(14)
O1A_2 O 0.71655(17) -0.04854(17) 0.83671(14)
O2A O -0.0187(2) -0.1831(2) 0.76241(18)
O3A O -0.38586(17) -0.17210(16) 1.13689(15)
O3A_2 O 0.61414(17) -0.17210(16) 1.13689(15)
O4A O -0.16647(18) -0.33925(15) 1.19891(14)
O5A O 0.25542(16) 0.11501(15) 0.63073(12)
O6A O -0.0281(2) 0.1780(2) 0.65570(16)
C1A C -0.1262(2) -0.0976(2) 0.83372(17)
C2A C -0.0635(2) -0.04587(18) 0.92138(16)
C3A C -0.1144(2) -0.09931(18) 1.06500(16)
C4A C 0.0508(2) 0.05364(19) 0.85640(16)
C5A C -0.2310(2) -0.21247(19) 1.13928(17)
C6A C 0.0959(2) 0.1200(2) 0.70176(17)
O7A O 0.58549(19) 0.17185(17) 1.02534(15)
O8A O 0.4220(2) 0.05917(17) 0.34532(15)
O9A O 0.60327(19) 0.20535(18) 0.42938(16)
O10A O 0.10663(19) 0.30449(18) 0.39011(14)
O11A O 0.2893(3) 0.42570(17) 0.50883(16)
O12A O 0.44107(19) 0.37460(17) 0.21820(15)
H1A H 0.5068 0.2170 1.0844
H2A H 0.6565 0.2272 0.9683
H3A H 0.3782 0.0538 0.2888
H4A H 0.5275 0.0122 0.3300
H5A H 0.6127 0.2309 0.4937
H6A H 0.0423 0.2678 0.4700
H7A H 0.0800 0.2705 0.3392
H8A H 0.2392 0.4191 0.5947
H9A H 0.3255 0.5066 0.4633
H10A H 0.5353 0.3991 0.2050
H11A H 0.3651 0.4459 0.1902
H12A H 0.6569 0.1155 0.4518
O13 O 0.2298(2) 0.57568(18) -0.14138(18)
H13 H 0.1612 0.6448 -0.1796
H14 H 0.2190 0.5006 -0.1597
O14 O -0.2133(2) 0.39773(19) -0.11067(17)
H15 H -0.1063 0.3914 -0.1587
H16 H -0.2092 0.4046 -0.0356
O15 O 0.6435(2) 0.29519(18) -0.36427(16)
H17 H 0.5649 0.2689 -0.2887
H18 H 0.7330 0.2401 -0.3426
loop_
_geom_bond_atom_site_label_1
_geom_bond_atom_site_label_2
_geom_bond_site_symmetry_1
_geom_bond_site_symmetry_2
Co1 O1 1_555 1_555
Co2 O5 1_555 1_555
O1 C1 1_555 1_555
O2 C1 1_555 1_555
O3 Co1 1_555 1_555
O4 C5 1_555 1_555
O5 C6 1_555 1_555
O6 C6 1_555 1_555
C1 C2 1_555 1_555
C2 C3 1_555 1_555
C3 C5 1_555 1_555
C4 C2 1_555 1_555
C5 O3 1_555 1_555
C6 C4 1_555 1_555
O7 Co1 1_555 1_555
O8 Co2 1_555 1_555
O9 Co2 1_555 1_555
O10 Co2 1_555 1_555
O11 Co2 1_555 1_555
O12 Co2 1_555 1_555
H1 O7 1_555 1_555
H2 O7 1_555 1_555
H3 O8 1_555 1_555
H4 O8 1_555 1_555
H5 O9 1_555 1_555
H6 O10 1_555 1_555
H7 O10 1_555 1_555
H8 O11 1_555 1_555
H9 O11 1_555 1_555
H10 O12 1_555 1_555
H11 O12 1_555 1_555
H12 O9 1_555 1_555
O13 H13 1_555 1_555
H14 O13 1_555 1_555
O14 H15 1_555 1_555
H16 O14 1_555 1_555
O15 H17 1_555 1_555
H18 O15 1_555 1_555
Co1_2 O1A 1_555 1_555
Co2A O5A 1_555 1_555
O1A C1A 1_555 1_555
O1A_2 Co1 1_555 1_555
O2A C1A 1_555 1_555
O3A Co1_2 1_555 1_555
O3A_2 Co1 1_555 1_555
O4A C5A 1_555 1_555
O5A C6A 1_555 1_555
O6A C6A 1_555 1_555
C1A C2A 1_555 1_555
C2A C3A 1_555 1_555
C3A C4 1_555 1_555
C4A C3 1_555 1_555
C5A O3A 1_555 1_555
C6A C4A 1_555 1_555
O7A Co1 1_555 1_555
O8A Co2A 1_555 1_555
O9A Co2A 1_555 1_555
O10A Co2A 1_555 1_555
O11A Co2A 1_555 1_555
O12A Co2A 1_555 1_555
H1A O7A 1_555 1_555
H2A O7A 1_555 1_555
H3A O8A 1_555 1_555
H4A O8A 1_555 1_555
H5A O9A 1_555 1_555
H6A O10A 1_555 1_555
H7A O10A 1_555 1_555
H8A O11A 1_555 1_555
H9A O11A 1_555 1_555
H10A O12A 1_555 1_555
H11A O12A 1_555 1_555
H12A O9A 1_555 1_555
C2A C4A 1_555 1_555
C3A C5A 1_555 1_555

#END
