
#######################################################################
#
#                 Cambridge Crystallographic Data Centre
#                                CCDC 
#
#######################################################################
#
# If this CIF has been generated from an entry in the Cambridge 
# Structural Database, then it will include bibliographic, chemical, 
# crystal, experimental, refinement or atomic coordinate data resulting 
# from the CCDC's data processing and validation procedures.
#
#######################################################################

data_JIYWAR
_symmetry_cell_setting           monoclinic
_symmetry_space_group_name_H-M   'P 21/n'
_symmetry_Int_Tables_number      14
_space_group_name_Hall           '-P 2yn'
loop_
_symmetry_equiv_pos_site_id
_symmetry_equiv_pos_as_xyz
1 x,y,z
2 1/2-x,1/2+y,1/2-z
3 -x,-y,-z
4 1/2+x,1/2-y,1/2+z
_cell_length_a                   10.231(5)
_cell_length_b                   16.300(8)
_cell_length_c                   15.849(8)
_cell_angle_alpha                90
_cell_angle_beta                 106.417(11)
_cell_angle_gamma                90
_cell_volume                     2535.31
loop_
_atom_site_label
_atom_site_type_symbol
_atom_site_fract_x
_atom_site_fract_y
_atom_site_fract_z
Sn1 Sn 0.23304(4) 1.13259(2) 0.37949(2)
S1 S 0.29287(15) 0.66395(8) 0.44632(11)
O1 O 0.2135(4) 0.2624(2) 0.3626(2)
O2 O 0.0219(4) 0.2807(2) 0.4040(3)
N1 N 0.2522(4) 0.9779(3) 0.4013(3)
C1 C 0.2360(6) 0.9456(3) 0.4755(4)
H1 H 0.2496 0.9799 0.5257
C2 C 0.2004(6) 0.8648(3) 0.4823(4)
H2 H 0.1894 0.8449 0.5362
C3 C 0.1807(5) 0.8125(3) 0.4109(4)
C4 C 0.2013(6) 0.8445(3) 0.3346(4)
H3 H 0.1923 0.8106 0.2845
C5 C 0.2352(5) 0.9266(3) 0.3327(4)
H4 H 0.2471 0.9479 0.2796
C6 C 0.1373(6) 0.7247(3) 0.4160(4)
H5 H 0.0772 0.7066 0.3585
H6 H 0.0873 0.7189 0.4608
C7 C 0.2342(6) 0.5622(3) 0.4242(3)
C8 C 0.1019(6) 0.5369(3) 0.4213(4)
H7 H 0.0365 0.5758 0.4281
C9 C 0.0670(6) 0.4539(3) 0.4083(3)
H8 H -0.0224 0.4365 0.4065
C10 C 0.1617(6) 0.3966(3) 0.3979(3)
C11 C 0.2937(6) 0.4235(3) 0.4005(3)
H9 H 0.3592 0.3848 0.3932
C12 C 0.3293(6) 0.5050(3) 0.4134(4)
H10 H 0.4187 0.5221 0.4149
C13 C 0.1243(6) 0.3069(3) 0.3876(3)
C14 C 0.2683(5) 1.1395(3) 0.5181(4)
C15 C 0.1625(6) 1.1522(3) 0.5563(4)
H11 H 0.0714 1.1561 0.5199
C16 C 0.1894(6) 1.1592(3) 0.6487(4)
H12 H 0.1167 1.1672 0.6741
C17 C 0.3219(6) 1.1544(3) 0.7015(4)
H13 H 0.3409 1.1603 0.7634
C18 C 0.4269(6) 1.1409(3) 0.6643(4)
H14 H 0.5171 1.1348 0.7016
C19 C 0.4032(5) 1.1357(3) 0.5709(3)
H15 H 0.4767 1.1299 0.5457
C20 C 0.4200(6) 1.1410(3) 0.3438(4)
C21 C 0.4780(6) 1.0766(3) 0.3089(4)
H16 H 0.4354 1.0243 0.3027
C22 C 0.5943(6) 1.0862(4) 0.2835(4)
H17 H 0.6293 1.0411 0.2588
C23 C 0.6615(6) 1.1609(3) 0.2932(4)
H18 H 0.7418 1.1675 0.2750
C24 C 0.6092(6) 1.2255(3) 0.3300(4)
H19 H 0.6549 1.2768 0.3384
C25 C 0.4900(5) 1.2157(3) 0.3547(4)
H20 H 0.4554 1.2609 0.3796
C26 C 0.0501(5) 1.1036(3) 0.2798(4)
C27 C -0.0306(5) 1.0333(3) 0.2784(4)
H21 H -0.0096 0.9977 0.3279
C28 C -0.1407(6) 1.0150(3) 0.2059(4)
H22 H -0.1909 0.9658 0.2051
C29 C -0.1771(6) 1.0689(4) 0.1346(4)
H23 H -0.2523 1.0570 0.0852
C30 C -0.1024(6) 1.1394(3) 0.1370(4)
H24 H -0.1279 1.1774 0.0898
C31 C 0.0119(6) 1.1555(3) 0.2091(4)
H25 H 0.0638 1.2037 0.2086
Sn1_2 Sn 0.23304(4) 0.13259(2) 0.37949(2)
O1_2 O 0.2135(4) 1.2624(2) 0.3626(2)
loop_
_geom_bond_atom_site_label_1
_geom_bond_atom_site_label_2
_geom_bond_site_symmetry_1
_geom_bond_site_symmetry_2
Sn1 N1 1_555 1_555
S1 C6 1_555 1_555
O1 C13 1_555 1_555
O2 C13 1_555 1_555
N1 C1 1_555 1_555
C1 H1 1_555 1_555
C2 C1 1_555 1_555
H2 C2 1_555 1_555
C3 C2 1_555 1_555
C4 C3 1_555 1_555
H3 C4 1_555 1_555
C5 N1 1_555 1_555
H4 C5 1_555 1_555
C6 C3 1_555 1_555
H5 C6 1_555 1_555
H6 C6 1_555 1_555
C7 S1 1_555 1_555
C8 C7 1_555 1_555
H7 C8 1_555 1_555
C9 C8 1_555 1_555
H8 C9 1_555 1_555
C10 C9 1_555 1_555
C11 C10 1_555 1_555
H9 C11 1_555 1_555
C12 C7 1_555 1_555
H10 C12 1_555 1_555
C13 C10 1_555 1_555
C14 Sn1 1_555 1_555
C15 C14 1_555 1_555
H11 C15 1_555 1_555
C16 C15 1_555 1_555
H12 C16 1_555 1_555
C17 C16 1_555 1_555
H13 C17 1_555 1_555
C18 C17 1_555 1_555
H14 C18 1_555 1_555
C19 C14 1_555 1_555
H15 C19 1_555 1_555
C20 Sn1 1_555 1_555
C21 C20 1_555 1_555
H16 C21 1_555 1_555
C22 C21 1_555 1_555
H17 C22 1_555 1_555
C23 C22 1_555 1_555
H18 C23 1_555 1_555
C24 C23 1_555 1_555
H19 C24 1_555 1_555
C25 C20 1_555 1_555
H20 C25 1_555 1_555
C26 Sn1 1_555 1_555
C27 C26 1_555 1_555
H21 C27 1_555 1_555
C28 C27 1_555 1_555
H22 C28 1_555 1_555
C29 C28 1_555 1_555
H23 C29 1_555 1_555
C30 C29 1_555 1_555
H24 C30 1_555 1_555
C31 C26 1_555 1_555
H25 C31 1_555 1_555
Sn1_2 O1 1_555 1_555
O1_2 Sn1 1_555 1_555
C4 C5 1_555 1_555
C11 C12 1_555 1_555
C18 C19 1_555 1_555
C24 C25 1_555 1_555
C30 C31 1_555 1_555

#END
