
#######################################################################
#
#                 Cambridge Crystallographic Data Centre
#                                CCDC 
#
#######################################################################
#
# If this CIF has been generated from an entry in the Cambridge 
# Structural Database, then it will include bibliographic, chemical, 
# crystal, experimental, refinement or atomic coordinate data resulting 
# from the CCDC's data processing and validation procedures.
#
#######################################################################

data_JIYWIZ
_symmetry_cell_setting           triclinic
_symmetry_space_group_name_H-M   'P -1'
_symmetry_Int_Tables_number      2
_space_group_name_Hall           '-P 1'
loop_
_symmetry_equiv_pos_site_id
_symmetry_equiv_pos_as_xyz
1 x,y,z
2 -x,-y,-z
_cell_length_a                   9.1797(18)
_cell_length_b                   9.833(2)
_cell_length_c                   10.717(2)
_cell_angle_alpha                100.81(3)
_cell_angle_beta                 107.49(3)
_cell_angle_gamma                106.90(3)
_cell_volume                     841.781
loop_
_atom_site_label
_atom_site_type_symbol
_atom_site_fract_x
_atom_site_fract_y
_atom_site_fract_z
Zn1 Zn -1.5000 -1.0000 1.0000
Zn2 Zn -1.57376(6) -0.91044(6) 1.27463(5)
O1 O -1.3232(4) -1.0011(4) 1.1943(3)
O2 O -1.5555(4) -0.8331(3) 1.1165(3)
O3 O -1.3805(4) -0.9356(4) 1.3802(4)
O4 O -1.7436(4) -1.1125(4) 1.1885(4)
O5 O -1.3762(5) -0.6405(4) 1.2915(4)
O6 O -1.6843(4) -1.1707(4) 1.0030(3)
N1 N -1.6686(5) -0.7888(4) 1.3689(4)
N2 N -1.8306(6) -0.6641(5) 1.3915(5)
N3 N -1.6999(6) -0.6211(5) 1.5124(5)
C1 C -1.3748(6) -0.4470(5) 1.1269(5)
H1 H -1.3049 -0.4083 1.2127
C2 C -1.3938(6) -0.3530(5) 1.0476(5)
H2 H -1.3274 -0.2546 1.0855
C3 C -1.4643(6) -0.6923(5) 1.1700(5)
C4 C -1.4799(6) -0.5931(5) 1.0806(5)
C5 C -1.6040(6) -0.6968(6) 1.4984(5)
C6 C -1.4510(7) -0.6809(7) 1.6077(6)
H3 H -1.4324 -0.6084 1.6902
H4 H -1.3602 -0.6489 1.5793
H5 H -1.4611 -0.7751 1.6244
C7 C -1.8092(6) -0.7640(5) 1.3061(5)
C8 C -1.9198(7) -0.8414(7) 1.1619(6)
H6 H -2.0097 -0.8074 1.1401
H7 H -1.9615 -0.9468 1.1481
H8 H -1.8603 -0.8204 1.1035
C9 C -1.7602(6) -1.2002(5) 1.0801(5)
C10 C -1.8829(6) -1.3575(5) 1.0376(5)
C11 C -1.9503(6) -1.4043(6) 1.1301(5)
H9 H -1.9114 -1.3115 1.2082
C12 C -1.9343(6) -1.4517(5) 0.9078(5)
H10 H -1.8957 -1.4259 0.8339
C13 C -1.2906(6) -0.9735(5) 1.3209(5)
C14 C -1.1396(6) -0.9887(5) 1.4119(5)
C15 C -1.0898(6) -0.9345(6) 1.5545(5)
H11 H -1.1495 -0.9029 1.5895
C16 C -0.9523(6) -0.9457(6) 1.6396(5)
H12 H -0.9039 -0.9123 1.7340
O1A O -0.6768(4) -0.9989(4) 1.8057(3)
O3A O -0.6195(4) -1.0644(4) 1.6198(4)
C13A C -0.7094(6) -1.0265(5) 1.6791(5)
C14A C -0.8604(6) -1.0113(5) 1.5881(5)
C15A C -0.9102(6) -1.0655(6) 1.4455(5)
H11A H -0.8505 -1.0971 1.4105
C16A C -1.0477(6) -1.0543(6) 1.3604(5)
H12A H -1.0961 -1.0877 1.2660
O2A O -1.4445(4) -0.1669(3) 0.8835(3)
O5A O -1.6238(5) -0.3595(4) 0.7085(4)
C1A C -1.6252(6) -0.5530(5) 0.8731(5)
H1A H -1.6951 -0.5917 0.7873
C2A C -1.6062(6) -0.6470(5) 0.9524(5)
H2A H -1.6726 -0.7454 0.9145
C3A C -1.5357(6) -0.3077(5) 0.8300(5)
C4A C -1.5201(6) -0.4069(5) 0.9194(5)
O4A O -2.2564(4) -1.8875(4) 0.8115(4)
O6A O -2.3157(4) -1.8293(4) 0.9970(3)
C9A C -2.2398(6) -1.7998(5) 0.9199(5)
C10A C -2.1171(6) -1.6425(5) 0.9624(5)
C11A C -2.0497(6) -1.5957(6) 0.8699(5)
H9A H -2.0886 -1.6885 0.7918
C12A C -2.0657(6) -1.5483(5) 1.0922(5)
H10A H -2.1043 -1.5741 1.1661
Zn2A Zn -2.42624(6) -2.08956(6) 0.72537(5)
N1A N -2.3314(5) -2.2112(4) 0.6311(4)
N2A N -2.1694(6) -2.3359(5) 0.6085(5)
N3A N -2.3001(6) -2.3789(5) 0.4876(5)
C5A C -2.3960(6) -2.3032(6) 0.5016(5)
C6A C -2.5490(7) -2.3191(7) 0.3923(6)
H3A H -2.5676 -2.3916 0.3098
H4A H -2.6398 -2.3511 0.4207
H5A H -2.5389 -2.2249 0.3756
C7A C -2.1908(6) -2.2360(5) 0.6939(5)
C8A C -2.0802(7) -2.1586(7) 0.8381(6)
H6A H -1.9903 -2.1926 0.8599
H7A H -2.0385 -2.0532 0.8519
H8A H -2.1397 -2.1796 0.8965
Zn1_2 Zn -2.5000 -2.0000 1.0000
Zn1_3 Zn -1.5000 0.0000 1.0000
Zn1_4 Zn -0.5000 -1.0000 2.0000
Zn2A_2 Zn -1.42624(6) -0.08956(6) 0.72537(5)
Zn2A_3 Zn -0.42624(6) -1.08956(6) 1.72537(5)
O1A_2 O -1.6768(4) -0.9989(4) 0.8057(3)
O2A_2 O -2.4445(4) -2.1669(3) 0.8835(3)
O2A_3 O -1.4445(4) -1.1669(3) 0.8835(3)
O3A_2 O -2.6195(4) -2.0644(4) 0.6198(4)
O6A_2 O -1.3157(4) -0.8293(4) 0.9970(3)
loop_
_geom_bond_atom_site_label_1
_geom_bond_atom_site_label_2
_geom_bond_site_symmetry_1
_geom_bond_site_symmetry_2
Zn1 O1 1_555 1_555
Zn2 O2 1_555 1_555
O1 C13 1_555 1_555
O2 Zn1 1_555 1_555
O3 Zn2 1_555 1_555
O4 Zn2 1_555 1_555
O5 C3 1_555 1_555
O6 Zn1 1_555 1_555
N1 Zn2 1_555 1_555
N2 N3 1_555 1_555
N3 C5 1_555 1_555
C1 H1 1_555 1_555
C2 C1 1_555 1_555
H2 C2 1_555 1_555
C3 O2 1_555 1_555
C4 C1 1_555 1_555
C5 N1 1_555 1_555
C6 C5 1_555 1_555
H3 C6 1_555 1_555
H4 C6 1_555 1_555
H5 C6 1_555 1_555
C7 N1 1_555 1_555
C8 C7 1_555 1_555
H6 C8 1_555 1_555
H7 C8 1_555 1_555
H8 C8 1_555 1_555
C9 O4 1_555 1_555
C10 C9 1_555 1_555
C11 C10 1_555 1_555
H9 C11 1_555 1_555
C12 C10 1_555 1_555
H10 C12 1_555 1_555
C13 O3 1_555 1_555
C14 C13 1_555 1_555
C15 C14 1_555 1_555
H11 C15 1_555 1_555
C16 C15 1_555 1_555
H12 C16 1_555 1_555
O1A C13A 1_555 1_555
O3A C13A 1_555 1_555
C13A C14A 1_555 1_555
C14A C16 1_555 1_555
C15A C14A 1_555 1_555
H11A C15A 1_555 1_555
C16A C14 1_555 1_555
H12A C16A 1_555 1_555
O2A C3A 1_555 1_555
O5A C3A 1_555 1_555
C1A H1A 1_555 1_555
C2A C4 1_555 1_555
H2A C2A 1_555 1_555
C3A C4A 1_555 1_555
C4A C2 1_555 1_555
O4A C9A 1_555 1_555
O6A C9A 1_555 1_555
C9A C10A 1_555 1_555
C10A C11A 1_555 1_555
C11A C12 1_555 1_555
H9A C11A 1_555 1_555
C12A C11 1_555 1_555
H10A C12A 1_555 1_555
Zn2A O4A 1_555 1_555
N1A Zn2A 1_555 1_555
N2A N3A 1_555 1_555
N3A C5A 1_555 1_555
C5A N1A 1_555 1_555
C6A C5A 1_555 1_555
H3A C6A 1_555 1_555
H4A C6A 1_555 1_555
H5A C6A 1_555 1_555
C7A N1A 1_555 1_555
C8A C7A 1_555 1_555
H6A C8A 1_555 1_555
H7A C8A 1_555 1_555
H8A C8A 1_555 1_555
Zn1_2 O6A 1_555 1_555
Zn1_3 O2A 1_555 1_555
Zn1_4 O1A 1_555 1_555
Zn2A_2 O2A 1_555 1_555
Zn2A_3 O3A 1_555 1_555
O1A_2 Zn1 1_555 1_555
O2A_2 Zn2A 1_555 1_555
O2A_3 Zn1 1_555 1_555
O3A_2 Zn2A 1_555 1_555
O6A_2 Zn1 1_555 1_555
O6 C9 1_555 1_555
N2 C7 1_555 1_555
C3 C4 1_555 1_555
C15A C16A 1_555 1_555
C1A C2A 1_555 1_555
C1A C4A 1_555 1_555
C10A C12A 1_555 1_555
N2A C7A 1_555 1_555
Zn1_2 O2A_2 1_555 1_555

#END
