
#######################################################################
#
#                 Cambridge Crystallographic Data Centre
#                                CCDC 
#
#######################################################################
#
# If this CIF has been generated from an entry in the Cambridge 
# Structural Database, then it will include bibliographic, chemical, 
# crystal, experimental, refinement or atomic coordinate data resulting 
# from the CCDC's data processing and validation procedures.
#
#######################################################################

data_JOBKUI
_symmetry_cell_setting           orthorhombic
_symmetry_space_group_name_H-M   'P b c n'
_symmetry_Int_Tables_number      60
_space_group_name_Hall           '-P 2n 2ab'
loop_
_symmetry_equiv_pos_site_id
_symmetry_equiv_pos_as_xyz
1 x,y,z
2 1/2-x,1/2-y,1/2+z
3 -x,y,1/2-z
4 1/2+x,1/2-y,-z
5 -x,-y,-z
6 1/2+x,1/2+y,1/2-z
7 x,-y,1/2+z
8 1/2-x,1/2+y,z
_cell_length_a                   22.696(5)
_cell_length_b                   12.696(3)
_cell_length_c                   16.126(3)
_cell_angle_alpha                90
_cell_angle_beta                 90
_cell_angle_gamma                90
_cell_volume                     4646.68
loop_
_atom_site_label
_atom_site_type_symbol
_atom_site_fract_x
_atom_site_fract_y
_atom_site_fract_z
Fe1 Fe 0.51950(3) 0.28810(6) 0.11868(5)
Fe2 Fe 0.26261(3) 0.39886(6) 0.00064(5)
N1 N 0.4895(2) 0.1173(4) 0.1371(3)
N2 N 0.58975(19) 0.1923(3) 0.0663(3)
N3 N 0.6291(2) 0.0295(4) 0.0573(3)
N4 N 0.6706(2) 0.1011(3) 0.0329(3)
N5 N 0.7408(2) 0.2664(4) 0.0032(3)
N6 N 0.67167(19) 0.3886(3) 0.0250(3)
N7 N 0.7242(2) 0.4379(4) 0.0077(3)
N8 N 0.2919(2) 0.3777(4) -0.1328(3)
N9 N 0.35310(19) 0.3588(4) 0.0085(3)
N10 N 0.4365(2) 0.3072(4) -0.0550(3)
N11 N 0.44652(19) 0.3091(4) 0.0282(3)
N12 N 0.3472(2) 0.3675(6) 0.2006(3)
N13 N 0.44325(19) 0.3317(4) 0.1959(3)
N14 N 0.4274(2) 0.3371(4) 0.2781(3)
C1 C 0.4380(3) 0.0833(5) 0.1655(5)
H1 H 0.4116 0.1330 0.1857
C2 C 0.4213(3) -0.0205(6) 0.1671(5)
H2 H 0.3848 -0.0399 0.1884
C3 C 0.4592(4) -0.0950(6) 0.1369(5)
H3 H 0.4485 -0.1657 0.1363
C4 C 0.5138(3) -0.0634(6) 0.1071(4)
H4 H 0.5410 -0.1122 0.0876
C5 C 0.5264(2) 0.0443(5) 0.1074(3)
C6 C 0.5823(2) 0.0870(4) 0.0760(3)
C7 C 0.6458(2) 0.1963(4) 0.0404(3)
C8 C 0.6836(2) 0.2867(4) 0.0220(3)
C9 C 0.7641(2) 0.3629(5) -0.0031(3)
H5 H 0.8037 0.3759 -0.0137
C10 C 0.2588(4) 0.3884(6) -0.2004(5)
H6 H 0.2199 0.4101 -0.1939
C11 C 0.2792(5) 0.3691(8) -0.2794(5)
H7 H 0.2548 0.3766 -0.3253
C12 C 0.3378(5) 0.3381(9) -0.2881(5)
H8 H 0.3532 0.3247 -0.3405
C13 C 0.3729(4) 0.3271(7) -0.2188(4)
H9 H 0.4122 0.3076 -0.2238
C14 C 0.3482(3) 0.3460(5) -0.1416(4)
C15 C 0.3814(2) 0.3368(4) -0.0634(3)
C16 C 0.3964(2) 0.3395(4) 0.0643(3)
C17 C 0.3943(2) 0.3503(5) 0.1540(3)
C18 C 0.3709(3) 0.3595(7) 0.2765(4)
H10 H 0.3489 0.3690 0.3245
O1 O 0.55278(18) 0.4264(3) 0.0518(3)
H11 H 0.5891 0.4413 0.0453
H12 H 0.5317 0.4732 0.0282
O2 O 0.24229(17) 0.4043(4) 0.1256(3)
H13 H 0.2284 0.4646 0.1376
H14 H 0.2733 0.3931 0.1538
Fe1B Fe 0.48050(3) 0.28810(6) 0.38132(5)
Fe2C Fe 0.76261(3) 0.10114(6) -0.00064(5)
Fe2D Fe 0.73739(3) 0.60114(6) -0.00064(5)
N4C N 0.1706(2) 0.3989(3) -0.0329(3)
N5C N 0.2408(2) 0.2336(4) -0.0032(3)
N7D N 0.2758(2) 0.5621(4) -0.0077(3)
N14B N 0.5726(2) 0.3371(4) 0.2219(3)
O3 O 0.53114(17) 0.4008(4) 0.8627(3)
H15 H 0.5174 0.4198 0.8160
H16 H 0.5102 0.3512 0.8823
loop_
_geom_bond_atom_site_label_1
_geom_bond_atom_site_label_2
_geom_bond_site_symmetry_1
_geom_bond_site_symmetry_2
Fe1 N1 1_555 1_555
Fe2 N8 1_555 1_555
N1 C1 1_555 1_555
N2 Fe1 1_555 1_555
N3 N4 1_555 1_555
N4 C7 1_555 1_555
N5 C8 1_555 1_555
N6 N7 1_555 1_555
N7 C9 1_555 1_555
N8 C10 1_555 1_555
N9 Fe2 1_555 1_555
N10 N11 1_555 1_555
N11 Fe1 1_555 1_555
N12 C17 1_555 1_555
N13 Fe1 1_555 1_555
N14 N13 1_555 1_555
C1 H1 1_555 1_555
C2 C1 1_555 1_555
H2 C2 1_555 1_555
C3 C2 1_555 1_555
H3 C3 1_555 1_555
C4 C3 1_555 1_555
H4 C4 1_555 1_555
C5 N1 1_555 1_555
C6 N2 1_555 1_555
C7 N2 1_555 1_555
C8 N6 1_555 1_555
C9 N5 1_555 1_555
H5 C9 1_555 1_555
C10 H6 1_555 1_555
C11 C10 1_555 1_555
H7 C11 1_555 1_555
C12 C11 1_555 1_555
H8 C12 1_555 1_555
C13 C12 1_555 1_555
H9 C13 1_555 1_555
C14 N8 1_555 1_555
C15 N9 1_555 1_555
C16 N9 1_555 1_555
C17 N13 1_555 1_555
C18 N12 1_555 1_555
H10 C18 1_555 1_555
O1 Fe1 1_555 1_555
H11 O1 1_555 1_555
H12 O1 1_555 1_555
O2 Fe2 1_555 1_555
H13 O2 1_555 1_555
H14 O2 1_555 1_555
O3 H15 1_555 1_555
H16 O3 1_555 1_555
Fe1B N14 1_555 1_555
Fe2C N4 1_555 1_555
Fe2D N7 1_555 1_555
N4C Fe2 1_555 1_555
N5C Fe2 1_555 1_555
N7D Fe2 1_555 1_555
N14B Fe1 1_555 1_555
N3 C6 1_555 1_555
N5 Fe2C 1_555 1_555
N10 C15 1_555 1_555
N11 C16 1_555 1_555
N14 C18 1_555 1_555
C4 C5 1_555 1_555
C5 C6 1_555 1_555
C7 C8 1_555 1_555
C13 C14 1_555 1_555
C14 C15 1_555 1_555
C16 C17 1_555 1_555

#END
