
#######################################################################
#
#                 Cambridge Crystallographic Data Centre
#                                CCDC 
#
#######################################################################
#
# If this CIF has been generated from an entry in the Cambridge 
# Structural Database, then it will include bibliographic, chemical, 
# crystal, experimental, refinement or atomic coordinate data resulting 
# from the CCDC's data processing and validation procedures.
#
#######################################################################

data_JOBNUL
_symmetry_cell_setting           triclinic
_symmetry_space_group_name_H-M   'P -1'
_symmetry_Int_Tables_number      2
_space_group_name_Hall           '-P 1'
loop_
_symmetry_equiv_pos_site_id
_symmetry_equiv_pos_as_xyz
1 x,y,z
2 -x,-y,-z
_cell_length_a                   10.544(11)
_cell_length_b                   10.858(9)
_cell_length_c                   11.739(10)
_cell_angle_alpha                114.00(3)
_cell_angle_beta                 94.84(5)
_cell_angle_gamma                93.09(5)
_cell_volume                     1217.63
loop_
_atom_site_label
_atom_site_type_symbol
_atom_site_fract_x
_atom_site_fract_y
_atom_site_fract_z
Ru1 Ru 0.06507(5) 0.00427(7) 0.42773(5)
Cl1 Cl 0.5918(3) 0.4118(3) 1.1227(3)
Cl2 Cl -0.3550(3) 0.6723(3) 0.4587(2)
S1 S 0.41072(18) -0.1882(3) -0.32073(18)
O1 O 0.2134(5) 0.0816(6) 0.5661(5)
O2 O 0.0848(5) 0.0784(6) 0.7085(5)
O3 O 0.4601(5) 0.1348(6) 0.6501(6)
O4 O 0.0142(5) 0.1910(6) 0.4593(5)
O5 O -0.1157(5) 0.1831(6) 0.6000(5)
O6 O -0.2039(6) 0.4439(6) 0.7395(6)
N1 N 0.1729(5) 0.0102(7) 0.2706(6)
N2 N 0.0415(7) -0.1769(8) -0.1135(7)
N3 N 0.3228(6) -0.1457(7) -0.2065(6)
N4 N 0.5504(6) -0.1169(7) -0.2455(6)
C1 C 0.2026(7) -0.0078(8) 0.1740(7)
C2 C 0.2384(7) -0.0455(9) 0.0482(7)
C3 C 0.1311(8) -0.1168(9) -0.0453(8)
C4 C 0.3630(7) -0.0193(9) 0.0253(7)
C5 C 0.4016(7) -0.0714(9) -0.0990(7)
C6 C 0.5349(7) -0.0546(9) -0.1229(7)
C7 C 0.1936(7) 0.1079(8) 0.6797(8)
C8 C 0.2986(8) 0.1757(9) 0.7863(8)
C9 C 0.4287(8) 0.1926(9) 0.7680(8)
C10 C 0.5943(7) 0.1517(10) 0.6318(9)
C11 C 0.5187(8) 0.2664(9) 0.8750(8)
C12 C 0.4782(8) 0.3195(10) 0.9911(9)
C13 C 0.3519(8) 0.3027(10) 1.0134(9)
C14 C 0.2638(8) 0.2291(9) 0.9079(8)
C15 C -0.0723(7) 0.2404(8) 0.5313(7)
C16 C -0.1274(7) 0.3620(9) 0.5298(8)
C17 C -0.1970(8) 0.4521(9) 0.6245(8)
C18 C -0.0885(9) 0.4694(10) 0.8181(9)
C19 C -0.2645(8) 0.5487(9) 0.6037(8)
C20 C -0.2656(8) 0.5570(9) 0.4863(8)
C21 C -0.1906(7) 0.4781(9) 0.3966(8)
C22 C -0.1244(7) 0.3820(9) 0.4178(8)
H1 H 0.6156 0.2440 0.6397
H2 H 0.6085 0.0866 0.5480
H3 H 0.6487 0.1358 0.6955
H4 H 0.6065 0.2787 0.8657
H5 H 0.3271 0.3393 1.0958
H6 H 0.1770 0.2150 0.9194
H7 H -0.0294 0.4037 0.7750
H8 H -0.1053 0.4610 0.8956
H9 H -0.0503 0.5612 0.8385
H10 H -0.3094 0.6085 0.6674
H11 H -0.1852 0.4906 0.3216
H12 H -0.0751 0.3273 0.3554
S1A S 0.58928(18) 0.1882(3) 0.32073(18)
N1A N 0.8271(5) -0.0102(7) -0.2706(6)
N2A N 0.9585(7) 0.1769(8) 0.1135(7)
N3A N 0.6772(6) 0.1457(7) 0.2065(6)
N4A N 0.4496(6) 0.1169(7) 0.2455(6)
C1A C 0.7974(7) 0.0078(8) -0.1740(7)
C2A C 0.7616(7) 0.0455(9) -0.0482(7)
C3A C 0.8689(8) 0.1168(9) 0.0453(8)
C4A C 0.6370(7) 0.0193(9) -0.0253(7)
C5A C 0.5984(7) 0.0714(9) 0.0990(7)
C6A C 0.4651(7) 0.0546(9) 0.1229(7)
Ru1A Ru -0.06507(5) -0.00427(7) 0.57227(5)
Cl1A Cl -0.5918(3) -0.4118(3) -0.1227(3)
Cl2A Cl 0.3550(3) -0.6723(3) 0.5413(2)
O1A O -0.2134(5) -0.0816(6) 0.4339(5)
O2A O -0.0848(5) -0.0784(6) 0.2915(5)
O3A O -0.4601(5) -0.1348(6) 0.3499(6)
O4A O -0.0142(5) -0.1910(6) 0.5407(5)
O5A O 0.1157(5) -0.1831(6) 0.4000(5)
O6A O 0.2039(6) -0.4439(6) 0.2605(6)
C7A C -0.1936(7) -0.1079(8) 0.3203(8)
C8A C -0.2986(8) -0.1757(9) 0.2137(8)
C9A C -0.4287(8) -0.1926(9) 0.2320(8)
C10A C -0.5943(7) -0.1517(10) 0.3682(9)
C11A C -0.5187(8) -0.2664(9) 0.1250(8)
C12A C -0.4782(8) -0.3195(10) 0.0089(9)
C13A C -0.3519(8) -0.3027(10) -0.0134(9)
C14A C -0.2638(8) -0.2291(9) 0.0921(8)
C15A C 0.0723(7) -0.2404(8) 0.4687(7)
C16A C 0.1274(7) -0.3620(9) 0.4702(8)
C17A C 0.1970(8) -0.4521(9) 0.3755(8)
C18A C 0.0885(9) -0.4694(10) 0.1819(9)
C19A C 0.2645(8) -0.5487(9) 0.3963(8)
C20A C 0.2656(8) -0.5570(9) 0.5137(8)
C21A C 0.1906(7) -0.4781(9) 0.6034(8)
C22A C 0.1244(7) -0.3820(9) 0.5822(8)
H1A H -0.6156 -0.2440 0.3603
H2A H -0.6085 -0.0866 0.4520
H3A H -0.6487 -0.1358 0.3045
H4A H -0.6065 -0.2787 0.1343
H5A H -0.3271 -0.3393 -0.0958
H6A H -0.1770 -0.2150 0.0806
H7A H 0.0294 -0.4037 0.2250
H8A H 0.1053 -0.4610 0.1044
H9A H 0.0503 -0.5612 0.1615
H10A H 0.3094 -0.6085 0.3326
H11A H 0.1852 -0.4906 0.6784
H12A H 0.0751 -0.3273 0.6446
Ru1A_2 Ru 0.93493(5) -0.00427(7) -0.42773(5)
N1A_2 N -0.1729(5) -0.0102(7) 0.7294(6)
loop_
_geom_bond_atom_site_label_1
_geom_bond_atom_site_label_2
_geom_bond_site_symmetry_1
_geom_bond_site_symmetry_2
Ru1 O1 1_555 1_555
Cl1 C12 1_555 1_555
Cl2 C20 1_555 1_555
S1 N3 1_555 1_555
O1 C7 1_555 1_555
O2 C7 1_555 1_555
O3 C9 1_555 1_555
O4 Ru1 1_555 1_555
O5 C15 1_555 1_555
O6 C17 1_555 1_555
N1 Ru1 1_555 1_555
N2 C3 1_555 1_555
N3 C5 1_555 1_555
N4 S1 1_555 1_555
C1 N1 1_555 1_555
C2 C1 1_555 1_555
C3 C2 1_555 1_555
C4 C2 1_555 1_555
C5 C4 1_555 1_555
C6 N4 1_555 1_555
C7 C8 1_555 1_555
C8 C9 1_555 1_555
C9 C11 1_555 1_555
C10 O3 1_555 1_555
C11 C12 1_555 1_555
C12 C13 1_555 1_555
C13 C14 1_555 1_555
C14 C8 1_555 1_555
C15 O4 1_555 1_555
C16 C15 1_555 1_555
C17 C16 1_555 1_555
C18 O6 1_555 1_555
C19 C17 1_555 1_555
C20 C19 1_555 1_555
C21 C20 1_555 1_555
C22 C16 1_555 1_555
H1 C10 1_555 1_555
H2 C10 1_555 1_555
H3 C10 1_555 1_555
H4 C11 1_555 1_555
H5 C13 1_555 1_555
H6 C14 1_555 1_555
H7 C18 1_555 1_555
H8 C18 1_555 1_555
H9 C18 1_555 1_555
H10 C19 1_555 1_555
H11 C21 1_555 1_555
H12 C22 1_555 1_555
S1A N3A 1_555 1_555
N1A C1A 1_555 1_555
N2A C3A 1_555 1_555
N3A C5A 1_555 1_555
N4A S1A 1_555 1_555
C1A C2A 1_555 1_555
C2A C3A 1_555 1_555
C4A C6 1_555 1_555
C5A C4A 1_555 1_555
C6A C4 1_555 1_555
Ru1A Ru1 1_555 1_555
Cl1A C12A 1_555 1_555
Cl2A C20A 1_555 1_555
O1A Ru1A 1_555 1_555
O2A Ru1 1_555 1_555
O3A C9A 1_555 1_555
O4A Ru1A 1_555 1_555
O5A Ru1 1_555 1_555
O6A C17A 1_555 1_555
C7A O1A 1_555 1_555
C8A C7A 1_555 1_555
C9A C8A 1_555 1_555
C10A O3A 1_555 1_555
C11A C9A 1_555 1_555
C12A C11A 1_555 1_555
C13A C12A 1_555 1_555
C14A C8A 1_555 1_555
C15A O4A 1_555 1_555
C16A C15A 1_555 1_555
C17A C16A 1_555 1_555
C18A O6A 1_555 1_555
C19A C17A 1_555 1_555
C20A C19A 1_555 1_555
C21A C20A 1_555 1_555
C22A C16A 1_555 1_555
H1A C10A 1_555 1_555
H2A C10A 1_555 1_555
H3A C10A 1_555 1_555
H4A C11A 1_555 1_555
H5A C13A 1_555 1_555
H6A C14A 1_555 1_555
H7A C18A 1_555 1_555
H8A C18A 1_555 1_555
H9A C18A 1_555 1_555
H10A C19A 1_555 1_555
H11A C21A 1_555 1_555
H12A C22A 1_555 1_555
Ru1A_2 N1A 1_555 1_555
N1A_2 Ru1A 1_555 1_555
O2 Ru1A 1_555 1_555
O5 Ru1A 1_555 1_555
C5 C6 1_555 1_555
C21 C22 1_555 1_555
N4A C6A 1_555 1_555
C2A C4A 1_555 1_555
C5A C6A 1_555 1_555
O2A C7A 1_555 1_555
O5A C15A 1_555 1_555
C13A C14A 1_555 1_555
C21A C22A 1_555 1_555

#END
