
#######################################################################
#
#                 Cambridge Crystallographic Data Centre
#                                CCDC 
#
#######################################################################
#
# If this CIF has been generated from an entry in the Cambridge 
# Structural Database, then it will include bibliographic, chemical, 
# crystal, experimental, refinement or atomic coordinate data resulting 
# from the CCDC's data processing and validation procedures.
#
#######################################################################

data_JOBVAY
_symmetry_cell_setting           monoclinic
_symmetry_space_group_name_H-M   'P 21/c'
_symmetry_Int_Tables_number      14
_space_group_name_Hall           '-P 2ybc'
loop_
_symmetry_equiv_pos_site_id
_symmetry_equiv_pos_as_xyz
1 x,y,z
2 -x,1/2+y,1/2-z
3 -x,-y,-z
4 x,1/2-y,1/2+z
_cell_length_a                   8.9976(5)
_cell_length_b                   11.2478(5)
_cell_length_c                   11.3049(5)
_cell_angle_alpha                90
_cell_angle_beta                 108.540(4)
_cell_angle_gamma                90
_cell_volume                     1084.72
loop_
_atom_site_label
_atom_site_type_symbol
_atom_site_fract_x
_atom_site_fract_y
_atom_site_fract_z
C1 C 0.4392(3) 0.5790(2) 0.4036(2)
C2 C 0.3733(2) 0.4666(2) 0.39746(19)
C3 C 0.5671(2) 0.6134(2) 0.5047(2)
C4 C 0.2432(3) 0.4291(2) 0.2816(2)
C5 C 0.6463(3) 0.7322(2) 0.50423(19)
C6 C -0.2395(3) 0.1754(2) -0.1221(2)
C7 C -0.0719(2) 0.0227(2) -0.0471(2)
C8 C -0.2832(3) -0.0125(2) -0.2175(2)
C9 C -0.3306(3) 0.1031(2) -0.2142(2)
Co1 Co 0.07407(3) 0.23513(3) 0.10139(3)
N1 N -0.1071(2) 0.13581(18) -0.03719(17)
N2 N -0.1534(2) -0.05391(18) -0.13318(17)
O1 O 0.25612(17) 0.32863(14) 0.23683(13)
O2 O 0.1330(2) 0.50006(17) 0.23872(17)
O4 O 0.79322(17) 0.72955(16) 0.52291(14)
O5 O -0.0373(3) 0.38771(17) 0.0393(2)
O6 O 0.5654(2) 0.82357(16) 0.48317(17)
O7 O -0.0202(2) 0.21462(18) 0.24547(18)
H1 H 0.402(3) 0.630(2) 0.337(2)
H2 H -0.267(3) 0.259(3) -0.115(2)
H3 H -0.333(3) -0.069(3) -0.275(2)
H4 H -0.419(3) 0.130(3) -0.268(2)
H7 H -0.131(5) 0.403(3) 0.016(3)
H8 H -0.005(5) 0.432(4) 0.088(4)
H9 H 0.046(4) 0.225(3) 0.312(3)
H10 H -0.059(4) 0.150(3) 0.245(3)
C1B C 0.5608(3) 0.4210(2) 0.5964(2)
C2B C 0.6267(2) 0.5334(2) 0.60254(19)
C3B C 0.4329(2) 0.3866(2) 0.4953(2)
C4B C 0.7568(3) 0.5709(2) 0.7184(2)
C5B C 0.3537(3) 0.2678(2) 0.49577(19)
C6B C 0.2395(3) -0.1754(2) 0.1221(2)
C7B C 0.0719(2) -0.0227(2) 0.0471(2)
C8B C 0.2832(3) 0.0125(2) 0.2175(2)
C9B C 0.3306(3) -0.1031(2) 0.2142(2)
Co1B Co -0.07407(3) -0.23513(3) -0.10139(3)
Co1A Co 0.92593(3) 0.73513(3) 0.39861(3)
Co1B_2 Co 0.92593(3) 0.76487(3) 0.89861(3)
Co1C Co 0.07407(3) 0.26487(3) 0.60139(3)
N1B N 0.1071(2) -0.13581(18) 0.03719(17)
N2B N 0.1534(2) 0.05391(18) 0.13318(17)
O1B O 0.74388(17) 0.67137(14) 0.76317(13)
O1B_2 O -0.25612(17) -0.32863(14) -0.23683(13)
O2B O 0.8670(2) 0.49994(17) 0.76128(17)
O4B O 0.20678(17) 0.27045(16) 0.47709(14)
O4A O 0.20678(17) 0.22955(16) -0.02291(14)
O4C O -0.20678(17) -0.22955(16) 0.02291(14)
O5B O 0.0373(3) -0.38771(17) -0.0393(2)
O6B O 0.4346(2) 0.17643(16) 0.51683(17)
O7B O 0.0202(2) -0.21462(18) -0.24547(18)
H1B H 0.598(3) 0.370(2) 0.663(2)
H2B H 0.267(3) -0.259(3) 0.115(2)
H3B H 0.333(3) 0.069(3) 0.275(2)
H4B H 0.419(3) -0.130(3) 0.268(2)
H7B H 0.131(5) -0.403(3) -0.016(3)
H8B H 0.005(5) -0.432(4) -0.088(4)
H9B H -0.046(4) -0.225(3) -0.312(3)
H10B H 0.059(4) -0.150(3) -0.245(3)
O3 O -0.3429(3) 0.4455(2) -0.0565(2)
H5 H -0.398(5) 0.409(4) -0.025(4)
H6 H -0.352(5) 0.510(5) -0.040(4)
loop_
_geom_bond_atom_site_label_1
_geom_bond_atom_site_label_2
_geom_bond_site_symmetry_1
_geom_bond_site_symmetry_2
C1 C2 1_555 1_555
C2 C4 1_555 1_555
C3 C1 1_555 1_555
C4 O1 1_555 1_555
C5 C3 1_555 1_555
C6 C9 1_555 1_555
C7 N1 1_555 1_555
C8 C9 1_555 1_555
C9 H4 1_555 1_555
Co1 N1 1_555 1_555
N1 C6 1_555 1_555
N2 C7 1_555 1_555
O1 Co1 1_555 1_555
O2 C4 1_555 1_555
O3 H5 1_555 1_555
O4 C5 1_555 1_555
O5 Co1 1_555 1_555
O6 C5 1_555 1_555
O7 Co1 1_555 1_555
H1 C1 1_555 1_555
H2 C6 1_555 1_555
H3 C8 1_555 1_555
H6 O3 1_555 1_555
H7 O5 1_555 1_555
H8 O5 1_555 1_555
H9 O7 1_555 1_555
H10 O7 1_555 1_555
C1B C2B 1_555 1_555
C2B C3 1_555 1_555
C3B C2 1_555 1_555
C4B C2B 1_555 1_555
C5B C3B 1_555 1_555
C6B C9B 1_555 1_555
C7B C7 1_555 1_555
C8B C9B 1_555 1_555
C9B H4B 1_555 1_555
Co1B N2 1_555 1_555
Co1A O4 1_555 1_555
Co1B_2 O1B 1_555 1_555
Co1C O4B 1_555 1_555
N1B C6B 1_555 1_555
N2B Co1 1_555 1_555
O1B C4B 1_555 1_555
O1B_2 Co1B 1_555 1_555
O2B C4B 1_555 1_555
O4B C5B 1_555 1_555
O4A Co1 1_555 1_555
O4C Co1B 1_555 1_555
O5B Co1B 1_555 1_555
O6B C5B 1_555 1_555
O7B Co1B 1_555 1_555
H1B C1B 1_555 1_555
H2B C6B 1_555 1_555
H3B C8B 1_555 1_555
H7B O5B 1_555 1_555
H8B O5B 1_555 1_555
H9B O7B 1_555 1_555
H10B O7B 1_555 1_555
C8 N2 1_555 1_555
C1B C3B 1_555 1_555
C7B N1B 1_555 1_555
C7B N2B 1_555 1_555
C8B N2B 1_555 1_555
Co1B N1B 1_555 1_555

#END
