
#######################################################################
#
#                 Cambridge Crystallographic Data Centre
#                                CCDC 
#
#######################################################################
#
# If this CIF has been generated from an entry in the Cambridge 
# Structural Database, then it will include bibliographic, chemical, 
# crystal, experimental, refinement or atomic coordinate data resulting 
# from the CCDC's data processing and validation procedures.
#
#######################################################################

data_JOBXEE
_symmetry_cell_setting           tetragonal
_symmetry_space_group_name_H-M   'I 41/a'
_symmetry_Int_Tables_number      88
_space_group_name_Hall           '-I 4ad'
loop_
_symmetry_equiv_pos_site_id
_symmetry_equiv_pos_as_xyz
1 x,y,z
2 3/4-y,1/4+x,1/4+z
3 1/4+y,1/4-x,1/4+z
4 1/2+x,1/2+y,1/2+z
5 1/4-y,3/4+x,3/4+z
6 -x,1/2-y,z
7 1/2-x,-y,1/2+z
8 3/4+y,3/4-x,3/4+z
9 -x,-y,-z
10 1/4+y,3/4-x,3/4-z
11 3/4-y,3/4+x,3/4-z
12 1/2-x,1/2-y,1/2-z
13 3/4+y,1/4-x,1/4-z
14 x,1/2+y,-z
15 1/2+x,y,1/2-z
16 1/4-y,1/4+x,1/4-z
_cell_length_a                   26.0430(6)
_cell_length_b                   26.0430(6)
_cell_length_c                   12.2720(3)
_cell_angle_alpha                90
_cell_angle_beta                 90
_cell_angle_gamma                90
_cell_volume                     8323.33
loop_
_atom_site_label
_atom_site_type_symbol
_atom_site_fract_x
_atom_site_fract_y
_atom_site_fract_z
Pt1 Pt 0.141075(13) 0.061313(14) 0.13165(3)
Tl1 Tl 0.212352(16) 0.136251(17) 0.25667(4)
Tl2 Tl 0.334871(15) 0.024180(18) 0.00723(3)
N1 N 0.2391(3) 0.0624(4) -0.0155(7)
N2 N 0.1885(4) -0.0263(3) 0.2780(7)
C1 C 0.2027(4) 0.0617(4) 0.0363(8)
C2 C 0.1716(4) 0.0073(4) 0.2235(7)
C3 C 0.1088(3) 0.1170(4) 0.0330(9)
C4 C 0.0996(5) 0.1090(5) -0.0774(10)
C5 C 0.0800(6) 0.1457(5) -0.1458(11)
C6 C 0.0711(6) 0.1936(6) -0.1043(13)
C7 C 0.0792(5) 0.2041(4) 0.0025(13)
C8 C 0.0986(4) 0.1668(4) 0.0686(9)
C9 C 0.0774(3) 0.0604(3) 0.2307(7)
C10 C 0.0806(4) 0.0715(4) 0.3396(8)
C11 C 0.0397(4) 0.0680(5) 0.4130(9)
C12 C -0.0070(4) 0.0534(5) 0.3740(11)
C13 C -0.0125(4) 0.0422(4) 0.2667(11)
C14 C 0.0285(4) 0.0458(4) 0.1973(9)
F1 F 0.1091(4) 0.0623(3) -0.1205(5)
F2 F 0.0717(5) 0.1348(4) -0.2517(7)
F3 F 0.0534(4) 0.2308(4) -0.1746(10)
F4 F 0.0702(3) 0.2512(3) 0.0404(9)
F5 F 0.1087(2) 0.1799(2) 0.1734(6)
F6 F 0.1262(2) 0.0858(3) 0.3857(5)
F7 F 0.0465(3) 0.0785(4) 0.5196(6)
F8 F -0.0473(3) 0.0499(4) 0.4443(7)
F9 F -0.0584(2) 0.0279(3) 0.2286(7)
F10 F 0.0201(2) 0.0346(3) 0.0919(5)
Pt1B Pt 0.311313(14) 0.108925(13) 0.38165(3)
Tl1D Tl 0.113749(17) -0.037648(16) 0.00667(4)
Tl2D Tl 0.225820(18) 0.084871(15) -0.24277(3)
Tl2B Tl 0.274180(18) -0.084871(15) 0.25723(3)
Tl2F Tl 0.165129(15) -0.024180(18) 0.50723(3)
N1B N 0.3124(4) 0.0109(3) 0.2345(7)
N2D N 0.2763(3) -0.0615(4) 0.0280(7)
N2F N 0.3115(4) 0.0263(3) -0.2220(7)
O1 O 0.1584(13) 0.2001(11) 0.451(4)
loop_
_geom_bond_atom_site_label_1
_geom_bond_atom_site_label_2
_geom_bond_site_symmetry_1
_geom_bond_site_symmetry_2
Pt1 Tl1 1_555 1_555
Tl1 Pt1B 1_555 1_555
Tl2 N1 1_555 1_555
N1 C1 1_555 1_555
N2 C2 1_555 1_555
C1 Pt1 1_555 1_555
C2 Pt1 1_555 1_555
C3 Pt1 1_555 1_555
C4 C3 1_555 1_555
C5 C4 1_555 1_555
C6 C5 1_555 1_555
C7 C6 1_555 1_555
C8 C3 1_555 1_555
C9 Pt1 1_555 1_555
C10 C9 1_555 1_555
C11 C10 1_555 1_555
C12 C11 1_555 1_555
C13 C12 1_555 1_555
C14 C9 1_555 1_555
F1 C4 1_555 1_555
F2 C5 1_555 1_555
F3 C6 1_555 1_555
F4 C7 1_555 1_555
F5 C8 1_555 1_555
F6 C10 1_555 1_555
F7 C11 1_555 1_555
F8 C12 1_555 1_555
F9 C13 1_555 1_555
F10 C14 1_555 1_555
Tl1D Pt1 1_555 1_555
Tl2D N1 1_555 1_555
Tl2B N2 1_555 1_555
Tl2F N2 1_555 1_555
N1B Tl2 1_555 1_555
N2D Tl2 1_555 1_555
N2F Tl2 1_555 1_555
C7 C8 1_555 1_555
C13 C14 1_555 1_555
Tl2D N2F 1_555 1_555
Tl2B N1B 1_555 1_555
Tl2B N2D 1_555 1_555

#END
