
#######################################################################
#
#                 Cambridge Crystallographic Data Centre
#                                CCDC 
#
#######################################################################
#
# If this CIF has been generated from an entry in the Cambridge 
# Structural Database, then it will include bibliographic, chemical, 
# crystal, experimental, refinement or atomic coordinate data resulting 
# from the CCDC's data processing and validation procedures.
#
#######################################################################

data_JOBXUV
_symmetry_cell_setting           tetragonal
_symmetry_space_group_name_H-M   'P 42/n c m'
_symmetry_Int_Tables_number      138
_space_group_name_Hall           '-P 4ac 2ac'
loop_
_symmetry_equiv_pos_site_id
_symmetry_equiv_pos_as_xyz
1 x,y,z
2 1/2-y,x,1/2+z
3 1/2-x,1/2-y,z
4 y,1/2-x,1/2+z
5 1/2+x,-y,1/2-z
6 1/2+y,1/2+x,-z
7 -x,1/2+y,1/2-z
8 -y,-x,-z
9 -x,-y,-z
10 1/2+y,-x,1/2-z
11 1/2+x,1/2+y,-z
12 -y,1/2+x,1/2-z
13 1/2-x,y,1/2+z
14 1/2-y,1/2-x,z
15 x,1/2-y,1/2+z
16 y,x,z
_cell_length_a                   13.280(2)
_cell_length_b                   13.280(2)
_cell_length_c                   13.533(3)
_cell_angle_alpha                90
_cell_angle_beta                 90
_cell_angle_gamma                90
_cell_volume                     2386.66
loop_
_atom_site_label
_atom_site_type_symbol
_atom_site_fract_x
_atom_site_fract_y
_atom_site_fract_z
Br1 Br 0.66304(3) 0.66304(3) 0.82402(7)
Zn1 Zn 0.5000 0.0000 1.0000
Zn2 Zn 0.7500 0.2500 0.7500
N1 N 0.62853(19) 0.23672(19) 0.83844(19)
N2 N 0.6218(2) 0.13955(19) 0.8667(2)
N3 N 0.53816(19) 0.12969(19) 0.9152(2)
N4 N 0.4885(2) 0.2175(2) 0.9226(2)
O1 O 0.40574(19) 0.09426(19) 1.0885(3)
C1 C 0.5470(2) 0.2830(2) 0.8746(2)
C2 C 0.5194(2) 0.3905(2) 0.8646(2)
C3 C 0.4182(2) 0.4182(2) 0.8703(3)
H1 H 0.3690 0.3690 0.8781
C4 C 0.5638(2) 0.5638(2) 0.8448(4)
C5 C 0.5936(2) 0.4638(2) 0.8519(2)
H2 H 0.6613 0.4461 0.8483
N1O N 0.23672(19) 0.62853(19) 0.83844(19)
N2O N 0.13955(19) 0.6218(2) 0.8667(2)
N3O N 0.12969(19) 0.53816(19) 0.9152(2)
N4O N 0.2175(2) 0.4885(2) 0.9226(2)
C1O C 0.2830(2) 0.5470(2) 0.8746(2)
C2O C 0.3905(2) 0.5194(2) 0.8646(2)
C5O C 0.4638(2) 0.5936(2) 0.8519(2)
H2O H 0.4461 0.6613 0.8483
Br1B Br -0.16304(3) -0.16304(3) 0.82402(7)
N1B N -0.12853(19) 0.26328(19) 0.83844(19)
N2B N -0.1218(2) 0.36045(19) 0.8667(2)
N3B N -0.03816(19) 0.37031(19) 0.9152(2)
N4B N 0.0115(2) 0.2825(2) 0.9226(2)
C1B C -0.0470(2) 0.2170(2) 0.8746(2)
C2B C -0.0194(2) 0.1095(2) 0.8646(2)
C3B C 0.0818(2) 0.0818(2) 0.8703(3)
H1B H 0.1310 0.1310 0.8781
C4B C -0.0638(2) -0.0638(2) 0.8448(4)
C5B C -0.0936(2) 0.0362(2) 0.8519(2)
H2B H -0.1613 0.0539 0.8483
N1M N 0.26328(19) -0.12853(19) 0.83844(19)
N2M N 0.36045(19) -0.1218(2) 0.8667(2)
N3M N 0.37031(19) -0.03816(19) 0.9152(2)
N4M N 0.2825(2) 0.0115(2) 0.9226(2)
C1M C 0.2170(2) -0.0470(2) 0.8746(2)
C2M C 0.1095(2) -0.0194(2) 0.8646(2)
C5M C 0.0362(2) -0.0936(2) 0.8519(2)
H2M H 0.0539 -0.1613 0.8483
O1E O 0.59426(19) -0.09426(19) 0.9115(3)
Zn1B Zn 0.0000 0.5000 1.0000
Zn2_2 Zn -0.2500 0.2500 0.7500
Zn2D Zn 0.2500 -0.2500 0.7500
Zn2D_2 Zn 0.2500 0.7500 0.7500
N1B_2 N 0.87147(19) 0.26328(19) 0.83844(19)
N1I N 0.73672(19) 0.37147(19) 0.66156(19)
N1K N 0.76328(19) 0.12853(19) 0.66156(19)
N3E N 0.62969(19) 0.03816(19) 1.0848(2)
N3H N 0.46184(19) -0.12969(19) 1.0848(2)
loop_
_geom_bond_atom_site_label_1
_geom_bond_atom_site_label_2
_geom_bond_site_symmetry_1
_geom_bond_site_symmetry_2
Br1 C4 1_555 1_555
Zn1 N3 1_555 1_555
Zn2 N1 1_555 1_555
N1 N2 1_555 1_555
N2 N3 1_555 1_555
N3 N4 1_555 1_555
N4 C1 1_555 1_555
O1 Zn1 1_555 1_555
C1 N1 1_555 1_555
C2 C1 1_555 1_555
C3 C2 1_555 1_555
H1 C3 1_555 1_555
C4 C5 1_555 1_555
C5 C2 1_555 1_555
H2 C5 1_555 1_555
N1O N2O 1_555 1_555
N2O N3O 1_555 1_555
N3O N4O 1_555 1_555
N4O C1O 1_555 1_555
C1O N1O 1_555 1_555
C2O C3 1_555 1_555
C5O C4 1_555 1_555
H2O C5O 1_555 1_555
Br1B C4B 1_555 1_555
N1B N2B 1_555 1_555
N2B N3B 1_555 1_555
N3B N4B 1_555 1_555
N4B C1B 1_555 1_555
C1B N1B 1_555 1_555
C2B C1B 1_555 1_555
C3B C2B 1_555 1_555
H1B C3B 1_555 1_555
C4B C5B 1_555 1_555
C5B C2B 1_555 1_555
H2B C5B 1_555 1_555
N1M N2M 1_555 1_555
N2M N3M 1_555 1_555
N3M Zn1 1_555 1_555
N4M N3M 1_555 1_555
C1M N1M 1_555 1_555
C2M C3B 1_555 1_555
C5M C4B 1_555 1_555
H2M C5M 1_555 1_555
O1E Zn1 1_555 1_555
Zn1B N3O 1_555 1_555
Zn2_2 N1B 1_555 1_555
Zn2D N1M 1_555 1_555
Zn2D_2 N1O 1_555 1_555
N1B_2 Zn2 1_555 1_555
N1I Zn2 1_555 1_555
N1K Zn2 1_555 1_555
N3E Zn1 1_555 1_555
N3H Zn1 1_555 1_555
C1O C2O 1_555 1_555
C2O C5O 1_555 1_555
N3B Zn1B 1_555 1_555
N4M C1M 1_555 1_555
C1M C2M 1_555 1_555
C2M C5M 1_555 1_555

#END
