
#######################################################################
#
#                 Cambridge Crystallographic Data Centre
#                                CCDC 
#
#######################################################################
#
# If this CIF has been generated from an entry in the Cambridge 
# Structural Database, then it will include bibliographic, chemical, 
# crystal, experimental, refinement or atomic coordinate data resulting 
# from the CCDC's data processing and validation procedures.
#
#######################################################################

data_JOCFUD
_symmetry_cell_setting           orthorhombic
_symmetry_space_group_name_H-M   'I b c a'
_symmetry_Int_Tables_number      73
_space_group_name_Hall           '-I 2b 2c'
loop_
_symmetry_equiv_pos_site_id
_symmetry_equiv_pos_as_xyz
1 x,y,z
2 1/2+x,1/2+y,1/2+z
3 -x,1/2-y,z
4 x,-y,1/2-z
5 -x,1/2+y,1/2-z
6 1/2-x,-y,1/2+z
7 1/2+x,1/2-y,-z
8 1/2-x,y,-z
9 -x,-y,-z
10 1/2-x,1/2-y,1/2-z
11 x,1/2+y,-z
12 -x,y,1/2+z
13 x,1/2-y,1/2+z
14 1/2+x,y,1/2-z
15 1/2-x,1/2+y,z
16 1/2+x,-y,z
_cell_length_a                   9.2230(11)
_cell_length_b                   20.733(2)
_cell_length_c                   29.734(3)
_cell_angle_alpha                90
_cell_angle_beta                 90
_cell_angle_gamma                90
_cell_volume                     5685.75
loop_
_atom_site_label
_atom_site_type_symbol
_atom_site_fract_x
_atom_site_fract_y
_atom_site_fract_z
Ga1 Ga 0.41755(8) 0.43640(4) 0.43637(3)
P1 P 0.42992(18) 0.42479(8) 0.54556(6)
O1 O 0.4168(5) 0.4069(2) 0.49658(16)
O2 O 0.2900(5) 0.4513(2) 0.56557(16)
O3 O 0.5532(5) 0.4724(2) 0.55386(17)
O4 O 0.4245(5) 0.4513(2) 0.37043(17)
H1 H 0.3439 0.4567 0.3594
H2 H 0.4968 0.4539 0.3546
O5 O 0.6337(5) 0.4215(3) 0.43209(17)
H3 H 0.6641 0.4084 0.4586
H4 H 0.6777 0.4585 0.4367
O6 O 0.4004(6) 0.3429(2) 0.42038(18)
H5 H 0.3939 0.3061 0.4349
H6 H 0.4365 0.3224 0.3970
N1 N 0.4850(8) 0.3548(4) 0.7158(2)
H7 H 0.4869 0.3558 0.7450
C1 C 0.4754(8) 0.3500(4) 0.5733(2)
H8 H 0.4054 0.3170 0.5638
H9 H 0.5712 0.3362 0.5628
C2 C 0.4774(7) 0.3522(4) 0.6240(2)
C3 C 0.5878(9) 0.3833(4) 0.6472(3)
H10 H 0.6626 0.4038 0.6311
C4 C 0.5885(10) 0.3843(5) 0.6926(3)
H11 H 0.6629 0.4061 0.7079
C5 C 0.3793(10) 0.3238(5) 0.6951(3)
H12 H 0.3076 0.3031 0.7123
C6 C 0.3716(9) 0.3213(4) 0.6494(3)
H13 H 0.2957 0.2989 0.6352
Ga1G Ga 0.08245(8) 0.43640(4) 0.56363(3)
Ga1H Ga 0.58245(8) 0.56360(4) 0.56363(3)
Ga1O Ga -0.08245(8) 0.56360(4) 0.43637(3)
P1G P 0.07008(18) 0.42479(8) 0.45444(6)
O1G O 0.0832(5) 0.4069(2) 0.50342(16)
O2G O 0.2100(5) 0.4513(2) 0.43443(16)
O3G O -0.0532(5) 0.4724(2) 0.44614(17)
O3H O 0.4468(5) 0.5276(2) 0.44614(17)
O3O O 0.0532(5) 0.5276(2) 0.55386(17)
O4G O 0.0755(5) 0.4513(2) 0.62957(17)
H1G H 0.1561 0.4567 0.6406
H2G H 0.0032 0.4539 0.6454
O5G O -0.1337(5) 0.4215(3) 0.56791(17)
H3G H -0.1641 0.4084 0.5414
H4G H -0.1777 0.4585 0.5633
O6G O 0.0996(6) 0.3429(2) 0.57962(18)
H5G H 0.1061 0.3061 0.5651
H6G H 0.0635 0.3224 0.6030
N1G N 0.0150(8) 0.3548(4) 0.2842(2)
H7G H 0.0131 0.3558 0.2550
C1G C 0.0246(8) 0.3500(4) 0.4267(2)
H8G H 0.0946 0.3170 0.4362
H9G H -0.0712 0.3362 0.4372
C2G C 0.0226(7) 0.3522(4) 0.3760(2)
C3G C -0.0878(9) 0.3833(4) 0.3528(3)
H10G H -0.1626 0.4038 0.3689
C4G C -0.0885(10) 0.3843(5) 0.3074(3)
H11G H -0.1629 0.4061 0.2921
C5G C 0.1207(10) 0.3238(5) 0.3049(3)
H12G H 0.1924 0.3031 0.2877
C6G C 0.1284(9) 0.3213(4) 0.3506(3)
H13G H 0.2043 0.2989 0.3648
O7 O 0.3921(8) 0.3027(4) 0.8634(2)
O8 O 0.3336(9) 0.2896(4) 0.7943(2)
O9 O 0.5036(11) 0.3529(5) 0.8108(2)
N2 N 0.4099(9) 0.3145(4) 0.8229(2)
O13 O 0.186(4) 0.4869(13) 0.3268(8)
O14 O 0.6920(13) 0.2632(4) 0.4693(3)
O15 O 0.7500 0.3503(4) 0.5000
N4 N 0.7500 0.2897(5) 0.5000
O14G O 0.8080(13) 0.2632(4) 0.5307(3)
O10? O 0.2837(15) 0.4651(9) 0.2756(5)
O11? O 0.180(4) 0.5055(12) 0.3328(7)
O12? O 0.0980(17) 0.5233(8) 0.2684(5)
N3? N 0.1851(14) 0.4967(7) 0.2922(4)
loop_
_geom_bond_atom_site_label_1
_geom_bond_atom_site_label_2
_geom_bond_site_symmetry_1
_geom_bond_site_symmetry_2
Ga1 O1 1_555 1_555
P1 O1 1_555 1_555
O2 P1 1_555 1_555
O3 P1 1_555 1_555
O4 Ga1 1_555 1_555
H1 O4 1_555 1_555
H2 O4 1_555 1_555
O5 Ga1 1_555 1_555
H3 O5 1_555 1_555
H4 O5 1_555 1_555
O6 Ga1 1_555 1_555
H5 O6 1_555 1_555
H6 O6 1_555 1_555
N1 H7 1_555 1_555
C1 P1 1_555 1_555
H8 C1 1_555 1_555
H9 C1 1_555 1_555
C2 C1 1_555 1_555
C3 C2 1_555 1_555
H10 C3 1_555 1_555
C4 N1 1_555 1_555
H11 C4 1_555 1_555
C5 N1 1_555 1_555
H12 C5 1_555 1_555
C6 C2 1_555 1_555
H13 C6 1_555 1_555
O7 N2 1_555 1_555
O8 N2 1_555 1_555
O9 N2 1_555 1_555
O14 N4 1_555 1_555
O15 N4 1_555 1_555
N4 O14G 1_555 1_555
Ga1G O2 1_555 1_555
Ga1H O3 1_555 1_555
Ga1O O3G 1_555 1_555
P1G O1G 1_555 1_555
O1G Ga1G 1_555 1_555
O2G Ga1 1_555 1_555
O3G P1G 1_555 1_555
O3H Ga1 1_555 1_555
O3O Ga1G 1_555 1_555
O4G Ga1G 1_555 1_555
H1G O4G 1_555 1_555
H2G O4G 1_555 1_555
O5G Ga1G 1_555 1_555
H3G O5G 1_555 1_555
H4G O5G 1_555 1_555
O6G Ga1G 1_555 1_555
H5G O6G 1_555 1_555
H6G O6G 1_555 1_555
N1G H7G 1_555 1_555
C1G P1G 1_555 1_555
H8G C1G 1_555 1_555
H9G C1G 1_555 1_555
C2G C1G 1_555 1_555
C3G C2G 1_555 1_555
H10G C3G 1_555 1_555
C4G N1G 1_555 1_555
H11G C4G 1_555 1_555
C5G N1G 1_555 1_555
H12G C5G 1_555 1_555
C6G C2G 1_555 1_555
H13G C6G 1_555 1_555
C3 C4 1_555 1_555
C5 C6 1_555 1_555
P1G O2G 1_555 1_555
C3G C4G 1_555 1_555
C5G C6G 1_555 1_555

#END
