
#######################################################################
#
#                 Cambridge Crystallographic Data Centre
#                                CCDC 
#
#######################################################################
#
# If this CIF has been generated from an entry in the Cambridge 
# Structural Database, then it will include bibliographic, chemical, 
# crystal, experimental, refinement or atomic coordinate data resulting 
# from the CCDC's data processing and validation procedures.
#
#######################################################################

data_JOCNOF
_symmetry_cell_setting           monoclinic
_symmetry_space_group_name_H-M   'P 21/n'
_symmetry_Int_Tables_number      14
_space_group_name_Hall           '-P 2yn'
loop_
_symmetry_equiv_pos_site_id
_symmetry_equiv_pos_as_xyz
1 x,y,z
2 1/2-x,1/2+y,1/2-z
3 -x,-y,-z
4 1/2+x,1/2-y,1/2+z
_cell_length_a                   13.426(2)
_cell_length_b                   19.555(2)
_cell_length_c                   13.641(2)
_cell_angle_alpha                90
_cell_angle_beta                 90.277(2)
_cell_angle_gamma                90
_cell_volume                     3581.34
loop_
_atom_site_label
_atom_site_type_symbol
_atom_site_fract_x
_atom_site_fract_y
_atom_site_fract_z
Tb1 Tb 0.642450(10) 0.146240(10) 0.223280(10)
O1 O 0.6522(3) 0.0756(2) 0.0734(2)
O2 O 0.7823(2) 0.1348(2) 0.1047(2)
O3 O 0.7814(3) 0.0629(2) -0.0183(3)
O4 O 0.5898(3) 0.2238(2) 0.0825(2)
O5 O 0.7067(2) 0.2613(2) 0.1761(2)
O6 O 0.6649(3) 0.3198(2) 0.0482(3)
O7 O 0.5542(2) 0.1343(2) 0.3832(2)
O8 O 0.5478(2) 0.2324(2) 0.3120(2)
O9 O 0.4659(3) 0.2161(2) 0.4468(3)
O10 O 0.7695(2) 0.1746(2) 0.3337(2)
O11 O 0.7027(3) -0.0088(2) 0.5853(2)
O12 O 0.8190(2) 0.5372(1) 0.2232(2)
O13 O 0.4527(3) 0.5762(2) 0.3258(3)
O14 O 1.0164(2) 0.6090(1) 0.3133(2)
O15 O 1.2506(3) 0.8128(2) 0.2942(3)
N1 N 0.7401(3) 0.0905(2) 0.0502(3)
N2 N 0.6542(3) 0.2694(2) 0.1008(3)
N3 N 0.5208(3) 0.1949(2) 0.3835(3)
N4 N 0.9800(3) 0.3855(2) 0.2629(3)
N5 N 0.8954(3) 0.2325(2) 0.4023(3)
N6 N 0.8042(3) 0.4332(2) 0.1540(3)
N7 N 1.1041(3) 0.5296(2) 0.3952(3)
C1 C 0.9913(3) 0.3223(2) 0.3190(3)
C2 C 0.8901(4) 0.2900(2) 0.3345(4)
C3 C 0.8351(3) 0.1790(2) 0.3990(3)
C4 C 0.8499(3) 0.1238(2) 0.4718(3)
C5 C 0.7720(3) 0.0817(2) 0.4968(3)
C6 C 0.7857(4) 0.0294(2) 0.5643(3)
C7 C 0.8774(4) 0.0194(3) 0.6069(4)
C8 C 0.9556(4) 0.0618(3) 0.5820(5)
C9 C 0.9437(4) 0.1138(3) 0.5150(4)
C10 C 0.7161(5) -0.0688(3) 0.6428(4)
C11 C 0.9664(3) 0.3744(2) 0.1581(3)
C12 C 0.9037(3) 0.4309(2) 0.1117(3)
C13 C 0.7703(3) 0.4833(2) 0.2096(3)
C14 C 0.6719(3) 0.4736(2) 0.2575(3)
C15 C 0.6106(3) 0.5303(2) 0.2672(3)
C16 C 0.5211(4) 0.5242(3) 0.3149(4)
C17 C 0.4918(4) 0.4618(3) 0.3545(4)
C18 C 0.5525(4) 0.4054(3) 0.3417(4)
C19 C 0.6416(4) 0.4106(2) 0.2934(4)
C20 C 0.4783(5) 0.6403(3) 0.2852(6)
C21 C 1.0576(3) 0.4359(2) 0.2843(3)
C22 C 1.0328(3) 0.4748(2) 0.3765(3)
C23 C 1.0916(3) 0.5934(2) 0.3637(3)
C24 C 1.1692(3) 0.6455(2) 0.3867(3)
C25 C 1.1691(3) 0.7046(2) 0.3307(3)
C26 C 1.2410(3) 0.7543(2) 0.3475(3)
C27 C 1.3088(4) 0.7463(3) 0.4227(4)
C28 C 1.3074(4) 0.6887(3) 0.4785(4)
C29 C 1.2393(4) 0.6373(2) 0.4604(3)
C30 C 1.1822(5) 0.8238(4) 0.2179(6)
H1 H 0.9302 0.2427 0.4530
H2 H 0.7653 0.3928 0.1402
H3 H 1.1569 0.5213 0.4217
H4 H 1.0327 0.2915 0.2839
H5 H 1.0210 0.3323 0.3807
H6 H 0.8653 0.2742 0.2732
H7 H 0.8461 0.3235 0.3603
H8 H 0.7083 0.0885 0.4677
H9 H 0.8870 -0.0163 0.6531
H10 H 1.0189 0.0549 0.6118
H11 H 0.9983 0.1424 0.4982
H12 H 0.7287 -0.1067 0.6011
H13 H 0.6576 -0.0772 0.6798
H14 H 0.7710 -0.0626 0.6862
H15 H 1.0298 0.3735 0.1275
H16 H 0.9339 0.3318 0.1483
H17 H 0.9357 0.4736 0.1224
H18 H 0.8982 0.4227 0.0433
H19 H 0.6304 0.5732 0.2410
H20 H 0.4312 0.4581 0.3897
H21 H 0.5322 0.3623 0.3668
H22 H 0.6822 0.3713 0.2846
H23 H 0.5129 0.6669 0.3326
H24 H 0.4194 0.6637 0.2657
H25 H 0.5196 0.6334 0.2298
H26 H 1.1195 0.4130 0.2930
H27 H 1.0625 0.4670 0.2311
H28 H 0.9682 0.4940 0.3697
H29 H 1.0336 0.4440 0.4304
H30 H 1.1201 0.7111 0.2811
H31 H 1.3566 0.7810 0.4356
H32 H 1.3540 0.6838 0.5307
H33 H 1.2405 0.5966 0.4984
H34 H 1.2081 0.8047 0.1593
H35 H 1.1720 0.8715 0.2095
H36 H 1.1208 0.8023 0.2333
Tb1A Tb 0.857550(10) 0.646240(10) 0.276720(10)
O12A O 0.6810(2) 0.0372(1) 0.2768(2)
O14A O 0.4836(2) 0.1090(1) 0.1867(2)
loop_
_geom_bond_atom_site_label_1
_geom_bond_atom_site_label_2
_geom_bond_site_symmetry_1
_geom_bond_site_symmetry_2
Tb1 O1 1_555 1_555
O1 N1 1_555 1_555
O2 Tb1 1_555 1_555
O3 N1 1_555 1_555
O4 Tb1 1_555 1_555
O5 Tb1 1_555 1_555
O6 N2 1_555 1_555
O7 Tb1 1_555 1_555
O8 Tb1 1_555 1_555
O9 N3 1_555 1_555
O10 Tb1 1_555 1_555
O11 C6 1_555 1_555
O12 C13 1_555 1_555
O13 C16 1_555 1_555
O14 C23 1_555 1_555
O15 C26 1_555 1_555
N1 O2 1_555 1_555
N2 O4 1_555 1_555
N3 O7 1_555 1_555
N4 C1 1_555 1_555
N5 C2 1_555 1_555
N6 C12 1_555 1_555
N7 C22 1_555 1_555
C1 C2 1_555 1_555
C2 H6 1_555 1_555
C3 O10 1_555 1_555
C4 C3 1_555 1_555
C5 C4 1_555 1_555
C6 C5 1_555 1_555
C7 C6 1_555 1_555
C8 C7 1_555 1_555
C9 C4 1_555 1_555
C10 O11 1_555 1_555
C11 N4 1_555 1_555
C12 C11 1_555 1_555
C13 N6 1_555 1_555
C14 C13 1_555 1_555
C15 C14 1_555 1_555
C16 C15 1_555 1_555
C17 C16 1_555 1_555
C18 C17 1_555 1_555
C19 C14 1_555 1_555
C20 O13 1_555 1_555
C21 N4 1_555 1_555
C22 C21 1_555 1_555
C23 N7 1_555 1_555
C24 C23 1_555 1_555
C25 C24 1_555 1_555
C26 C25 1_555 1_555
C27 C26 1_555 1_555
C28 C27 1_555 1_555
C29 C24 1_555 1_555
C30 O15 1_555 1_555
H1 N5 1_555 1_555
H2 N6 1_555 1_555
H3 N7 1_555 1_555
H4 C1 1_555 1_555
H5 C1 1_555 1_555
H7 C2 1_555 1_555
H8 C5 1_555 1_555
H9 C7 1_555 1_555
H10 C8 1_555 1_555
H11 C9 1_555 1_555
H12 C10 1_555 1_555
H13 C10 1_555 1_555
H14 C10 1_555 1_555
H15 C11 1_555 1_555
H16 C11 1_555 1_555
H17 C12 1_555 1_555
H18 C12 1_555 1_555
H19 C15 1_555 1_555
H20 C17 1_555 1_555
H21 C18 1_555 1_555
H22 C19 1_555 1_555
H23 C20 1_555 1_555
H24 C20 1_555 1_555
H25 C20 1_555 1_555
H26 C21 1_555 1_555
H27 C21 1_555 1_555
H28 C22 1_555 1_555
H29 C22 1_555 1_555
H30 C25 1_555 1_555
H31 C27 1_555 1_555
H32 C28 1_555 1_555
H33 C29 1_555 1_555
H34 C30 1_555 1_555
H35 C30 1_555 1_555
H36 C30 1_555 1_555
Tb1A O12 1_555 1_555
O12A Tb1 1_555 1_555
O14A Tb1 1_555 1_555
O5 N2 1_555 1_555
O8 N3 1_555 1_555
O14 Tb1A 1_555 1_555
N5 C3 1_555 1_555
C8 C9 1_555 1_555
C18 C19 1_555 1_555
C28 C29 1_555 1_555

#END
