
#######################################################################
#
#                 Cambridge Crystallographic Data Centre
#                                CCDC 
#
#######################################################################
#
# If this CIF has been generated from an entry in the Cambridge 
# Structural Database, then it will include bibliographic, chemical, 
# crystal, experimental, refinement or atomic coordinate data resulting 
# from the CCDC's data processing and validation procedures.
#
#######################################################################

data_JOCSUQ
_symmetry_cell_setting           monoclinic
_symmetry_space_group_name_H-M   'P 21/c'
_symmetry_Int_Tables_number      14
_space_group_name_Hall           '-P 2ybc'
loop_
_symmetry_equiv_pos_site_id
_symmetry_equiv_pos_as_xyz
1 x,y,z
2 -x,1/2+y,1/2-z
3 -x,-y,-z
4 x,1/2-y,1/2+z
_cell_length_a                   9.3950(5)
_cell_length_b                   15.5720(9)
_cell_length_c                   14.1100(9)
_cell_angle_alpha                90
_cell_angle_beta                 105.323(3)
_cell_angle_gamma                90
_cell_volume                     1990.9
loop_
_atom_site_label
_atom_site_type_symbol
_atom_site_fract_x
_atom_site_fract_y
_atom_site_fract_z
Fe1 Fe 0.6610(3) 0.50090(14) 1.24812(19)
Au1 Au 0.62270(10) 0.25545(5) 1.49581(6)
Au2 Au 0.70928(10) 0.74863(4) 1.51025(6)
Br1 Br 1.1956(4) 0.32524(18) 1.1981(2)
Br2 Br 0.1157(4) 0.7065(3) 1.2362(3)
N1 N 0.905(2) 0.4765(11) 1.2974(13)
N2 N 0.421(2) 0.5398(10) 1.1812(12)
N3 N 0.630(2) 0.4079(10) 1.3510(12)
N4 N 0.679(2) 0.5986(10) 1.3594(12)
N5 N 0.7064(19) 0.5956(10) 1.1491(12)
N6 N 0.6429(19) 0.3974(10) 1.1433(11)
C1 C 0.997(3) 0.5156(16) 1.3723(17)
H1 H 0.9565 0.5549 1.4074
C2 C 1.141(4) 0.5041(16) 1.402(2)
H2 H 1.1966 0.5333 1.4566
C3 C 1.210(3) 0.4480(15) 1.3506(19)
H3 H 1.3118 0.4391 1.3702
C4 C 1.126(3) 0.4080(13) 1.2732(16)
C5 C 0.973(3) 0.4233(13) 1.2526(17)
H4 H 0.9138 0.3918 1.2011
C6 C 0.344(2) 0.5090(13) 1.0940(16)
H5 H 0.3890 0.4677 1.0644
C7 C 0.208(3) 0.5325(15) 1.0464(17)
H6 H 0.1617 0.5087 0.9856
C8 C 0.140(3) 0.5907(13) 1.0870(19)
H7 H 0.0433 0.6070 1.0560
C9 C 0.210(3) 0.6252(15) 1.1725(19)
C10 C 0.352(3) 0.5976(15) 1.2171(19)
H8 H 0.4004 0.6224 1.2769
C11 C 0.627(2) 0.3546(12) 1.4043(14)
C12 C 0.691(3) 0.6546(12) 1.4152(16)
C13 C 0.717(3) 0.6531(11) 1.1021(13)
C14 C 0.635(2) 0.3408(11) 1.0894(12)
Au1C Au 0.62270(10) 0.24455(5) 0.99581(6)
Au2C Au 0.70928(10) 0.75137(4) 1.01025(6)
C13C C 0.717(3) 0.8469(11) 1.6021(13)
C14C C 0.635(2) 0.1592(11) 1.5894(12)
loop_
_geom_bond_atom_site_label_1
_geom_bond_atom_site_label_2
_geom_bond_site_symmetry_1
_geom_bond_site_symmetry_2
Fe1 N1 1_555 1_555
Au1 C11 1_555 1_555
Au2 C12 1_555 1_555
Br1 C4 1_555 1_555
Br2 C9 1_555 1_555
N1 C1 1_555 1_555
N2 Fe1 1_555 1_555
N3 Fe1 1_555 1_555
N4 Fe1 1_555 1_555
N5 Fe1 1_555 1_555
N6 Fe1 1_555 1_555
C1 H1 1_555 1_555
C2 C1 1_555 1_555
H2 C2 1_555 1_555
C3 C2 1_555 1_555
H3 C3 1_555 1_555
C4 C3 1_555 1_555
C5 N1 1_555 1_555
H4 C5 1_555 1_555
C6 N2 1_555 1_555
H5 C6 1_555 1_555
C7 C6 1_555 1_555
H6 C7 1_555 1_555
C8 C7 1_555 1_555
H7 C8 1_555 1_555
C9 C8 1_555 1_555
C10 N2 1_555 1_555
H8 C10 1_555 1_555
C11 N3 1_555 1_555
C12 N4 1_555 1_555
C13 N5 1_555 1_555
C14 N6 1_555 1_555
Au1C C14 1_555 1_555
Au2C C13 1_555 1_555
C13C Au2 1_555 1_555
C14C Au1 1_555 1_555
C4 C5 1_555 1_555
C9 C10 1_555 1_555

#END
