
#######################################################################
#
#                 Cambridge Crystallographic Data Centre
#                                CCDC 
#
#######################################################################
#
# If this CIF has been generated from an entry in the Cambridge 
# Structural Database, then it will include bibliographic, chemical, 
# crystal, experimental, refinement or atomic coordinate data resulting 
# from the CCDC's data processing and validation procedures.
#
#######################################################################

data_JOCTAW
_symmetry_cell_setting           trigonal
_symmetry_space_group_name_H-M   'P 31'
_symmetry_Int_Tables_number      144
_space_group_name_Hall           'P 31'
loop_
_symmetry_equiv_pos_site_id
_symmetry_equiv_pos_as_xyz
1 x,y,z
2 -y,x-y,1/3+z
3 -x+y,-x,2/3+z
_cell_length_a                   11.281(3)
_cell_length_b                   11.281(3)
_cell_length_c                   20.846(9)
_cell_angle_alpha                90
_cell_angle_beta                 90
_cell_angle_gamma                120
_cell_volume                     2297.46
loop_
_atom_site_label
_atom_site_type_symbol
_atom_site_fract_x
_atom_site_fract_y
_atom_site_fract_z
Mn1 Mn -0.1192(1) -0.6009(1) 0.0000
O1 O -0.1750(6) -0.4645(6) -0.0424(3)
O2 O 0.0052(6) -0.4330(6) 0.0623(3)
O3 O 0.0486(6) -0.5057(6) -0.0697(3)
O4 O -0.0204(6) -0.7138(6) -0.0140(3)
O5 O -0.2617(5) -0.6762(6) 0.0781(2)
O6 O -0.2275(5) -0.4932(5) 0.2803(2)
O7 O -0.2913(10) -0.1176(8) 0.0737(4)
N1 N -0.2438(5) -0.6565(5) 0.1383(3)
N2 N -0.2270(6) -0.5696(6) 0.2335(3)
C1 C -0.1009(9) -0.3364(9) -0.0407(4)
C2 C 0.0479(9) -0.3096(9) 0.0491(4)
C3 C 0.0001(10) -0.2599(10) 0.0009(4)
C4 C -0.1388(14) -0.2651(12) -0.0952(6)
C5 C 0.1608(11) -0.2072(11) 0.0916(6)
C6 C 0.1537(9) -0.5087(9) -0.0694(4)
C7 C 0.0859(10) -0.6947(11) 0.0053(5)
C8 C 0.1815(12) -0.5983(12) -0.0368(5)
C9 C 0.2682(11) -0.4033(13) -0.1123(6)
C10 C 0.1307(15) -0.7947(18) 0.0376(9)
C11 C -0.2460(7) -0.5538(8) 0.1707(3)
C12 C -0.2426(9) -0.7587(10) 0.1816(4)
C13 C -0.1881(11) -0.6742(11) 0.2437(4)
C14 C -0.1543(16) -0.8136(13) 0.1542(5)
C15 C -0.3951(15) -0.8715(10) 0.1885(5)
C16 C -0.0340(15) -0.5971(15) 0.2447(6)
C17 C -0.2406(17) -0.7470(19) 0.3057(4)
C18 C -0.2644(7) -0.4452(7) 0.1450(3)
C19 C -0.1873(8) -0.3155(8) 0.1692(4)
C20 C -0.1926(10) -0.2035(10) 0.1429(4)
C21 C -0.2859(10) -0.2300(10) 0.0958(5)
C22 C -0.3684(10) -0.3592(10) 0.0713(5)
C23 C -0.3589(9) -0.4703(9) 0.0961(4)
C24 C -0.3875(18) -0.1383(17) 0.0233(7)
F1 F -0.2661(10) -0.2942(11) -0.0876(5)
F2 F -0.1424(11) -0.3191(12) -0.1506(4)
F3 F -0.0651(15) -0.1398(10) -0.0960(7)
F4 F 0.1457(8) -0.2441(8) 0.1521(3)
F5 F 0.2751(7) -0.2023(12) 0.0752(5)
F6 F 0.1816(11) -0.0851(7) 0.0900(5)
F7 F 0.2269(11) -0.3560(12) -0.1565(6)
F8 F 0.3255(14) -0.4500(13) -0.1460(7)
F9 F 0.3553(16) -0.3114(15) -0.0837(6)
F10 F 0.1484(14) -0.8693(12) -0.0142(7)
F11 F 0.0519(13) -0.8758(16) 0.0723(8)
F12 F 0.2652(12) -0.7238(14) 0.0540(5)
H1 H 0.0424 -0.1635 -0.0032
H2 H 0.2668 -0.5938 -0.0430
H3 H -0.1547 -0.8792 0.1828
H4 H -0.0635 -0.7403 0.1490
H5 H -0.1895 -0.8550 0.1138
H6 H -0.4021 -0.9416 0.2161
H7 H -0.4306 -0.9091 0.1475
H8 H -0.4456 -0.8328 0.2060
H9 H -0.0020 -0.6595 0.25120
H10 H -0.0027 -0.5322 0.27860
H11 H -0.0005 -0.5513 0.20500
H12 H -0.3376 -0.7953 0.30500
H13 H -0.2092 -0.6827 0.33980
H14 H -0.2086 -0.8094 0.31180
H15 H -0.1287 -0.3008 0.2046
H16 H -0.1335 -0.1130 0.1575
H17 H -0.4313 -0.3733 0.0379
H18 H -0.4153 -0.5599 0.0798
H19 H -0.3811 -0.0537 0.0126
H20 H -0.4774 -0.2005 0.0376
H21 H -0.3671 -0.1747 -0.0134
O6B O -0.2657(7) -0.7725(5) -0.0530(2)
Mn1A Mn -0.3991(1) -0.5183(1) 0.3333
loop_
_geom_bond_atom_site_label_1
_geom_bond_atom_site_label_2
_geom_bond_site_symmetry_1
_geom_bond_site_symmetry_2
Mn1 O1 1_555 1_555
O1 C1 1_555 1_555
O2 Mn1 1_555 1_555
O3 Mn1 1_555 1_555
O4 Mn1 1_555 1_555
O5 Mn1 1_555 1_555
O6 N2 1_555 1_555
O7 C21 1_555 1_555
N1 O5 1_555 1_555
N2 C11 1_555 1_555
C1 C3 1_555 1_555
C2 O2 1_555 1_555
C3 C2 1_555 1_555
C4 C1 1_555 1_555
C5 C2 1_555 1_555
C6 O3 1_555 1_555
C7 O4 1_555 1_555
C8 C6 1_555 1_555
C9 C6 1_555 1_555
C10 C7 1_555 1_555
C11 N1 1_555 1_555
C12 N1 1_555 1_555
C13 N2 1_555 1_555
C14 C12 1_555 1_555
C15 C12 1_555 1_555
C16 C13 1_555 1_555
C17 C13 1_555 1_555
C18 C11 1_555 1_555
C19 C18 1_555 1_555
C20 C19 1_555 1_555
C21 C20 1_555 1_555
C22 C21 1_555 1_555
C23 C18 1_555 1_555
C24 O7 1_555 1_555
F1 C4 1_555 1_555
F2 C4 1_555 1_555
F3 C4 1_555 1_555
F4 C5 1_555 1_555
F5 C5 1_555 1_555
F6 C5 1_555 1_555
F7 C9 1_555 1_555
F8 C9 1_555 1_555
F9 C9 1_555 1_555
F10 C10 1_555 1_555
F11 C10 1_555 1_555
F12 C10 1_555 1_555
H1 C3 1_555 1_555
H2 C8 1_555 1_555
H3 C14 1_555 1_555
H4 C14 1_555 1_555
H5 C14 1_555 1_555
H6 C15 1_555 1_555
H7 C15 1_555 1_555
H8 C15 1_555 1_555
H9 C16 1_555 1_555
H10 C16 1_555 1_555
H11 C16 1_555 1_555
H12 C17 1_555 1_555
H13 C17 1_555 1_555
H14 C17 1_555 1_555
H15 C19 1_555 1_555
H16 C20 1_555 1_555
H17 C22 1_555 1_555
H18 C23 1_555 1_555
H19 C24 1_555 1_555
H20 C24 1_555 1_555
H21 C24 1_555 1_555
O6B Mn1 1_555 1_555
Mn1A O6 1_555 1_555
C7 C8 1_555 1_555
C12 C13 1_555 1_555
C22 C23 1_555 1_555

#END
