
#######################################################################
#
#                 Cambridge Crystallographic Data Centre
#                                CCDC 
#
#######################################################################
#
# If this CIF has been generated from an entry in the Cambridge 
# Structural Database, then it will include bibliographic, chemical, 
# crystal, experimental, refinement or atomic coordinate data resulting 
# from the CCDC's data processing and validation procedures.
#
#######################################################################

data_JOCTEB02
_symmetry_cell_setting           monoclinic
_symmetry_space_group_name_H-M   'P 21/c'
_symmetry_Int_Tables_number      14
_space_group_name_Hall           '-P 2ybc'
loop_
_symmetry_equiv_pos_site_id
_symmetry_equiv_pos_as_xyz
1 x,y,z
2 -x,1/2+y,1/2-z
3 -x,-y,-z
4 x,1/2-y,1/2+z
_cell_length_a                   22.9800(3)
_cell_length_b                   13.9160(3)
_cell_length_c                   14.7240(5)
_cell_angle_alpha                90
_cell_angle_beta                 106.679(1)
_cell_angle_gamma                90
_cell_volume                     4510.48
loop_
_atom_site_label
_atom_site_type_symbol
_atom_site_fract_x
_atom_site_fract_y
_atom_site_fract_z
Fe1 Fe 0.06532(6) 0.50002(10) 0.75462(10)
Au1 Au 0.054440(17) 0.74171(3) 1.00658(3)
Au2 Au 0.076828(17) 0.24057(3) 1.00214(3)
I1 I 0.28240(3) 0.75039(5) 0.86787(5)
I2 I -0.18769(3) 0.65647(5) 0.60906(5)
N1 N 0.1566(3) 0.5131(6) 0.8056(5)
N2 N -0.0257(4) 0.4812(6) 0.7037(6)
N3 N 0.0766(4) 0.4082(6) 0.6628(6)
N4 N 0.0689(4) 0.3981(6) 0.8461(6)
N5 N 0.0548(4) 0.5938(6) 0.8481(5)
N6 N 0.0622(4) 0.6018(6) 0.6644(5)
C1 C 0.1924(5) 0.4359(8) 0.8191(7)
H1 H 0.1748 0.3753 0.8078
C2 C 0.2544(5) 0.4433(8) 0.8490(7)
H2 H 0.2777 0.3875 0.8596
C3 C 0.2829(4) 0.5306(7) 0.8635(7)
H3 H 0.3250 0.5358 0.8822
C4 C 0.2451(4) 0.6120(7) 0.8486(6)
C5 C 0.1824(4) 0.6008(7) 0.8183(7)
H4 H 0.1578 0.6550 0.8064
C6 C -0.0486(5) 0.3905(7) 0.6921(7)
H5 H -0.0218 0.3390 0.7067
C7 C -0.1097(5) 0.3718(8) 0.6598(7)
H6 H -0.1239 0.3088 0.6543
C8 C -0.1504(5) 0.4481(8) 0.6356(7)
H7 H -0.1920 0.4370 0.6134
C9 C -0.1278(4) 0.5401(7) 0.6450(7)
C10 C -0.0648(5) 0.5553(7) 0.6796(7)
H8 H -0.0498 0.6178 0.6859
C11 C 0.0711(4) 0.3405(8) 0.9017(7)
C12 C 0.0526(4) 0.6461(7) 0.9052(7)
C13 C 0.0600(4) 0.6596(7) 0.6089(7)
C14 C 0.0794(4) 0.3559(7) 0.6050(7)
Au1C Au 0.054440(17) 0.75829(3) 0.50658(3)
Au2C Au 0.076828(17) 0.25943(3) 0.50214(3)
C13C C 0.0600(4) 0.8404(7) 1.1089(7)
C14C C 0.0794(4) 0.1441(7) 1.1050(7)
Fe2 Fe 0.42920(6) 0.50012(10) 0.71488(10)
Au3 Au 0.414370(17) 0.25385(3) 0.96164(3)
Au4 Au 0.446510(17) 0.75336(3) 0.96974(3)
I3 I 0.66652(3) 0.50243(6) 0.63266(5)
I4 I 0.21330(3) 0.75828(5) 0.58672(5)
N7 N 0.5196(4) 0.4756(6) 0.7592(6)
N8 N 0.3384(3) 0.5201(6) 0.6674(5)
N9 N 0.4165(4) 0.4043(6) 0.8047(6)
N10 N 0.4378(4) 0.5999(6) 0.8115(6)
N11 N 0.4392(4) 0.5958(6) 0.6242(6)
N12 N 0.4218(4) 0.3999(6) 0.6195(6)
C15 C 0.5471(5) 0.4352(9) 0.8431(7)
H9 H 0.5249 0.4274 0.8863
C16 C 0.6068(5) 0.4046(9) 0.8690(9)
H10 H 0.6234 0.3746 0.9271
C17 C 0.6415(5) 0.4190(8) 0.8076(8)
H11 H 0.6820 0.3999 0.8236
C18 C 0.6139(5) 0.4629(8) 0.7212(8)
C19 C 0.5534(5) 0.4881(8) 0.6969(8)
H12 H 0.5351 0.5140 0.6373
C20 C 0.3021(5) 0.4431(8) 0.6549(7)
H13 H 0.3195 0.3825 0.6678
C21 C 0.2391(5) 0.4511(8) 0.6232(7)
H14 H 0.2149 0.3964 0.6144
C22 C 0.2129(5) 0.5406(8) 0.6051(7)
H15 H 0.1709 0.5481 0.5858
C23 C 0.2513(4) 0.6191(7) 0.6165(7)
C24 C 0.3135(5) 0.6085(7) 0.6485(7)
H16 H 0.3384 0.6624 0.6572
C25 C 0.4120(5) 0.3485(7) 0.8589(7)
C26 C 0.4427(5) 0.6575(7) 0.8683(7)
C27 C 0.4431(4) 0.6517(8) 0.5693(7)
C28 C 0.4178(4) 0.3432(8) 0.5625(7)
Au3C Au 0.414370(17) 0.24615(3) 0.46164(3)
Au4C Au 0.446510(17) 0.74664(3) 0.46974(3)
C27C C 0.4431(4) 0.8483(8) 1.0693(7)
C28C C 0.4178(4) 0.1568(8) 1.0625(7)
I5 I 0.30889(4) 0.32665(6) 0.09151(6)
N13 N 0.1731(3) 0.5429(4) 0.0618(5)
C29 C 0.1307(2) 0.5038(4) 0.1022(5)
H17 H 0.0967 0.5393 0.1040
C30 C 0.1390(3) 0.4115(4) 0.1400(5)
H18 H 0.1106 0.3853 0.1670
C31 C 0.1897(3) 0.3584(4) 0.1374(5)
H19 H 0.1953 0.2967 0.1627
C32 C 0.2321(3) 0.3975(5) 0.0970(5)
C33 C 0.2238(3) 0.4898(5) 0.0592(5)
H20 H 0.2522 0.5159 0.0322
loop_
_geom_bond_atom_site_label_1
_geom_bond_atom_site_label_2
_geom_bond_site_symmetry_1
_geom_bond_site_symmetry_2
Fe1 N1 1_555 1_555
Au1 C12 1_555 1_555
Au2 C11 1_555 1_555
I1 C4 1_555 1_555
I2 C9 1_555 1_555
N1 C1 1_555 1_555
N2 Fe1 1_555 1_555
N3 Fe1 1_555 1_555
N4 Fe1 1_555 1_555
N5 Fe1 1_555 1_555
N6 Fe1 1_555 1_555
C1 H1 1_555 1_555
C2 C1 1_555 1_555
H2 C2 1_555 1_555
C3 C2 1_555 1_555
H3 C3 1_555 1_555
C4 C3 1_555 1_555
C5 N1 1_555 1_555
H4 C5 1_555 1_555
C6 N2 1_555 1_555
H5 C6 1_555 1_555
C7 C6 1_555 1_555
H6 C7 1_555 1_555
C8 C7 1_555 1_555
H7 C8 1_555 1_555
C9 C8 1_555 1_555
C10 N2 1_555 1_555
H8 C10 1_555 1_555
C11 N4 1_555 1_555
C12 N5 1_555 1_555
C13 N6 1_555 1_555
C14 N3 1_555 1_555
Fe2 N7 1_555 1_555
Au3 C25 1_555 1_555
Au4 C26 1_555 1_555
I3 C18 1_555 1_555
I4 C23 1_555 1_555
N7 C15 1_555 1_555
N8 Fe2 1_555 1_555
N9 Fe2 1_555 1_555
N10 Fe2 1_555 1_555
N11 Fe2 1_555 1_555
N12 Fe2 1_555 1_555
C15 H9 1_555 1_555
C16 C15 1_555 1_555
H10 C16 1_555 1_555
C17 C16 1_555 1_555
H11 C17 1_555 1_555
C18 C17 1_555 1_555
C19 N7 1_555 1_555
H12 C19 1_555 1_555
C20 N8 1_555 1_555
H13 C20 1_555 1_555
C21 C20 1_555 1_555
H14 C21 1_555 1_555
C22 C21 1_555 1_555
H15 C22 1_555 1_555
C23 C22 1_555 1_555
C24 N8 1_555 1_555
H16 C24 1_555 1_555
C25 N9 1_555 1_555
C26 N10 1_555 1_555
C27 N11 1_555 1_555
C28 N12 1_555 1_555
I5 C32 1_555 1_555
N13 C29 1_555 1_555
C29 H17 1_555 1_555
C30 C29 1_555 1_555
H18 C30 1_555 1_555
C31 C30 1_555 1_555
H19 C31 1_555 1_555
C32 C31 1_555 1_555
C33 N13 1_555 1_555
H20 C33 1_555 1_555
Au1C C13 1_555 1_555
Au2C C14 1_555 1_555
C13C Au1 1_555 1_555
C14C Au2 1_555 1_555
Au3C C28 1_555 1_555
Au4C C27 1_555 1_555
C27C Au4 1_555 1_555
C28C Au3 1_555 1_555
C4 C5 1_555 1_555
C9 C10 1_555 1_555
C18 C19 1_555 1_555
C23 C24 1_555 1_555
C32 C33 1_555 1_555

#END
