
#######################################################################
#
#                 Cambridge Crystallographic Data Centre
#                                CCDC 
#
#######################################################################
#
# If this CIF has been generated from an entry in the Cambridge 
# Structural Database, then it will include bibliographic, chemical, 
# crystal, experimental, refinement or atomic coordinate data resulting 
# from the CCDC's data processing and validation procedures.
#
#######################################################################

data_JODFUE
_symmetry_cell_setting           monoclinic
_symmetry_space_group_name_H-M   'P 21/c'
_symmetry_Int_Tables_number      14
_space_group_name_Hall           '-P 2ybc'
loop_
_symmetry_equiv_pos_site_id
_symmetry_equiv_pos_as_xyz
1 x,y,z
2 -x,1/2+y,1/2-z
3 -x,-y,-z
4 x,1/2-y,1/2+z
_cell_length_a                   7.6903(4)
_cell_length_b                   12.8591(7)
_cell_length_c                   10.8707(6)
_cell_angle_alpha                90
_cell_angle_beta                 107.9410(10)
_cell_angle_gamma                90
_cell_volume                     1022.73
loop_
_atom_site_label
_atom_site_type_symbol
_atom_site_fract_x
_atom_site_fract_y
_atom_site_fract_z
Fe1 Fe 0.5000 0.0000 0.5000
S1 S 0.78749(7) 0.26381(4) 0.30208(5)
N1 N 0.6090(2) 0.10991(14) 0.39959(16)
C1 C 0.6815(3) 0.17423(16) 0.35895(19)
C2 C 0.3227(4) 0.2164(2) 0.5436(3)
H1 H 0.2826 0.2554 0.6074
H2 H 0.2155 0.1929 0.4738
H3 H 0.3981 0.2613 0.5077
O1 O 0.42808(19) 0.12770(11) 0.60489(14)
H4 H 0.5228 0.1480 0.6620
N2 N -0.4234(2) -0.01217(14) 0.05369(17)
C3 C -0.2850(3) 0.04268(17) 0.0538(2)
H5 H -0.2954 0.0926 -0.0125
C4 C -0.1103(3) 0.02909(16) 0.15562(19)
C5 C 0.0467(3) 0.07343(17) 0.1409(2)
H6 H 0.0409 0.1125 0.0656
C6 C 0.2112(3) 0.06022(17) 0.2369(2)
H7 H 0.3177 0.0898 0.2244
N3 N 0.2286(2) 0.00802(12) 0.34638(15)
C7 C 0.0760(3) -0.03521(16) 0.3593(2)
H8 H 0.0855 -0.0734 0.4358
C8 C -0.0935(3) -0.02724(16) 0.2677(2)
H9 H -0.1971 -0.0598 0.2811
Fe1_2 Fe -1.5000 0.0000 -0.5000
S1B S 0.21251(7) -0.26381(4) 0.69792(5)
N1B N 0.3910(2) -0.10991(14) 0.60041(16)
C1B C 0.3185(3) -0.17423(16) 0.64105(19)
C2B C 0.6773(4) -0.2164(2) 0.4564(3)
H1B H 0.7174 -0.2554 0.3926
H2B H 0.7845 -0.1929 0.5262
H3B H 0.6019 -0.2613 0.4923
O1B O 0.57192(19) -0.12770(11) 0.39511(14)
H4B H 0.4772 -0.1480 0.3380
N2B N -0.5766(2) 0.01217(14) -0.05369(17)
C3B C -0.7150(3) -0.04268(17) -0.0538(2)
H5B H -0.7046 -0.0926 0.0125
C4B C -0.8897(3) -0.02909(16) -0.15562(19)
C5B C -1.0467(3) -0.07343(17) -0.1409(2)
H6B H -1.0409 -0.1125 -0.0656
C6B C -1.2112(3) -0.06022(17) -0.2369(2)
H7B H -1.3177 -0.0898 -0.2244
N3B N -1.2286(2) -0.00802(12) -0.34638(15)
N3B_2 N 0.7714(2) -0.00802(12) 0.65362(15)
C7B C -1.0760(3) 0.03521(16) -0.3593(2)
H8B H -1.0855 0.0734 -0.4358
C8B C -0.9065(3) 0.02724(16) -0.2677(2)
H9B H -0.8029 0.0598 -0.2811
loop_
_geom_bond_atom_site_label_1
_geom_bond_atom_site_label_2
_geom_bond_site_symmetry_1
_geom_bond_site_symmetry_2
Fe1 N1 1_555 1_555
S1 C1 1_555 1_555
N1 C1 1_555 1_555
C2 H1 1_555 1_555
H2 C2 1_555 1_555
H3 C2 1_555 1_555
O1 Fe1 1_555 1_555
H4 O1 1_555 1_555
N2 C3 1_555 1_555
C3 H5 1_555 1_555
C4 C3 1_555 1_555
C5 C4 1_555 1_555
H6 C5 1_555 1_555
C6 C5 1_555 1_555
H7 C6 1_555 1_555
N3 Fe1 1_555 1_555
C7 N3 1_555 1_555
H8 C7 1_555 1_555
C8 C4 1_555 1_555
H9 C8 1_555 1_555
Fe1_2 N3B 1_555 1_555
S1B C1B 1_555 1_555
N1B Fe1 1_555 1_555
C1B N1B 1_555 1_555
C2B H1B 1_555 1_555
H2B C2B 1_555 1_555
H3B C2B 1_555 1_555
O1B Fe1 1_555 1_555
H4B O1B 1_555 1_555
N2B N2 1_555 1_555
C3B N2B 1_555 1_555
H5B C3B 1_555 1_555
C4B C3B 1_555 1_555
C5B C4B 1_555 1_555
H6B C5B 1_555 1_555
C6B C5B 1_555 1_555
H7B C6B 1_555 1_555
N3B C6B 1_555 1_555
N3B_2 Fe1 1_555 1_555
C7B N3B 1_555 1_555
H8B C7B 1_555 1_555
C8B C4B 1_555 1_555
H9B C8B 1_555 1_555
C2 O1 1_555 1_555
C6 N3 1_555 1_555
C7 C8 1_555 1_555
C2B O1B 1_555 1_555
C7B C8B 1_555 1_555

#END
