
#######################################################################
#
#                 Cambridge Crystallographic Data Centre
#                                CCDC 
#
#######################################################################
#
# If this CIF has been generated from an entry in the Cambridge 
# Structural Database, then it will include bibliographic, chemical, 
# crystal, experimental, refinement or atomic coordinate data resulting 
# from the CCDC's data processing and validation procedures.
#
#######################################################################

data_JODFUD
_symmetry_cell_setting           monoclinic
_symmetry_space_group_name_H-M   'P 21/n'
_symmetry_Int_Tables_number      14
_space_group_name_Hall           '-P 2yn'
loop_
_symmetry_equiv_pos_site_id
_symmetry_equiv_pos_as_xyz
1 x,y,z
2 1/2-x,1/2+y,1/2-z
3 -x,-y,-z
4 1/2+x,1/2-y,1/2+z
_cell_length_a                   7.251(6)
_cell_length_b                   12.948(8)
_cell_length_c                   13.220(8)
_cell_angle_alpha                90
_cell_angle_beta                 91.79(6)
_cell_angle_gamma                90
_cell_volume                     1240.57
loop_
_atom_site_label
_atom_site_type_symbol
_atom_site_fract_x
_atom_site_fract_y
_atom_site_fract_z
I1 I 0.43289(33) 0.09994(22) 0.90164(20)
I2 I 0.93879(28) 0.14784(19) 1.00728(20)
Mn1 Mn 0.74165(55) -0.01781(34) 0.95271(31)
P1 P 0.7228(11) -0.08457(65) 0.76946(58)
C1 C 0.8364(43) -0.2019(25) 0.7407(24)
C2 C 0.4915(42) -0.1106(25) 0.7193(23)
C3 C 0.8263(38) 0.0101(23) 0.6873(22)
C4 C 0.7401(44) 0.0460(25) 0.5968(26)
C5 C 0.8290(51) 0.1181(29) 0.5432(28)
C6 C 1.0055(47) 0.1543(28) 0.5700(26)
C7 C 1.0991(46) 0.1179(27) 0.6529(27)
C8 C 1.0038(41) 0.0437(24) 0.7109(23)
H1 H 0.7778 -0.2574 0.7738
H2 H 0.8300 -0.2131 0.6696
H3 H 0.9619 -0.1981 0.7630
H4 H 0.4153 -0.0522 0.7296
H5 H 0.4961 -0.1247 0.6488
H6 H 0.4419 -0.1685 0.7530
H7 H 0.6231 0.0203 0.5743
H8 H 0.7687 0.1457 0.4844
H9 H 1.0610 0.2052 0.5293
H10 H 1.2203 0.1404 0.6711
H11 H 1.0653 0.0157 0.7692
Mn1B Mn 0.25835(55) 0.01781(34) 1.04729(31)
I1B I 0.56711(33) -0.09994(22) 1.09836(20)
I2B I 1.06121(28) -0.14784(19) 0.99272(20)
Mn1B_2 Mn 1.25835(55) 0.01781(34) 1.04729(31)
I2_2 I -0.06121(28) 0.14784(19) 1.00728(20)
I2B_2 I 0.06121(28) -0.14784(19) 0.99272(20)
P1B P 0.2772(11) 0.08457(65) 1.23054(58)
C1B C 0.1636(43) 0.2019(25) 1.2593(24)
C2B C 0.5085(42) 0.1106(25) 1.2807(23)
C3B C 0.1737(38) -0.0101(23) 1.3127(22)
H1B H 0.2222 0.2574 1.2262
H2B H 0.1700 0.2131 1.3304
H3B H 0.0381 0.1981 1.2370
H4B H 0.5847 0.0522 1.2704
H5B H 0.5039 0.1247 1.3512
H6B H 0.5581 0.1685 1.2470
C4B C 0.2599(44) -0.0460(25) 1.4032(26)
C8B C -0.0038(41) -0.0437(24) 1.2891(23)
C5B C 0.1710(51) -0.1181(29) 1.4568(28)
H7B H 0.3769 -0.0203 1.4257
C7B C -0.0991(46) -0.1179(27) 1.3471(27)
H11B H -0.0653 -0.0157 1.2308
C6B C -0.0055(47) -0.1543(28) 1.4300(26)
H8B H 0.2313 -0.1457 1.5156
H10B H -0.2203 -0.1404 1.3289
H9B H -0.0610 -0.2052 1.4707
loop_
_geom_bond_atom_site_label_1
_geom_bond_atom_site_label_2
_geom_bond_site_symmetry_1
_geom_bond_site_symmetry_2
I1 Mn1 1_555 1_555
I2 Mn1 1_555 1_555
Mn1 P1 1_555 1_555
P1 C1 1_555 1_555
C1 H1 1_555 1_555
C2 P1 1_555 1_555
C3 P1 1_555 1_555
C4 C3 1_555 1_555
C5 C4 1_555 1_555
C6 C5 1_555 1_555
C7 C6 1_555 1_555
C8 C3 1_555 1_555
H2 C1 1_555 1_555
H3 C1 1_555 1_555
H4 C2 1_555 1_555
H5 C2 1_555 1_555
H6 C2 1_555 1_555
H7 C4 1_555 1_555
H8 C5 1_555 1_555
H9 C6 1_555 1_555
H10 C7 1_555 1_555
H11 C8 1_555 1_555
Mn1B I1 1_555 1_555
I1B Mn1 1_555 1_555
I2B Mn1 1_555 1_555
Mn1B_2 I2 1_555 1_555
I2_2 Mn1B 1_555 1_555
I2B_2 Mn1B 1_555 1_555
P1B Mn1B 1_555 1_555
C1B P1B 1_555 1_555
C2B P1B 1_555 1_555
C3B P1B 1_555 1_555
H1B C1B 1_555 1_555
H2B C1B 1_555 1_555
H3B C1B 1_555 1_555
H4B C2B 1_555 1_555
H5B C2B 1_555 1_555
H6B C2B 1_555 1_555
C4B C3B 1_555 1_555
C8B C3B 1_555 1_555
C5B C4B 1_555 1_555
H7B C4B 1_555 1_555
C7B C8B 1_555 1_555
H11B C8B 1_555 1_555
C6B C5B 1_555 1_555
H8B C5B 1_555 1_555
H10B C7B 1_555 1_555
H9B C6B 1_555 1_555
C7 C8 1_555 1_555
Mn1B I1B 1_555 1_555
I2B Mn1B_2 1_555 1_555
C7B C6B 1_555 1_555

#END
