
#######################################################################
#
#                 Cambridge Crystallographic Data Centre
#                                CCDC 
#
#######################################################################
#
# If this CIF has been generated from an entry in the Cambridge 
# Structural Database, then it will include bibliographic, chemical, 
# crystal, experimental, refinement or atomic coordinate data resulting 
# from the CCDC's data processing and validation procedures.
#
#######################################################################

data_JODFAL
_symmetry_cell_setting           monoclinic
_symmetry_space_group_name_H-M   'P 21/c'
_symmetry_Int_Tables_number      14
_space_group_name_Hall           '-P 2ybc'
loop_
_symmetry_equiv_pos_site_id
_symmetry_equiv_pos_as_xyz
1 x,y,z
2 -x,1/2+y,1/2-z
3 -x,-y,-z
4 x,1/2-y,1/2+z
_cell_length_a                   8.2878(4)
_cell_length_b                   15.1480(5)
_cell_length_c                   11.6746(5)
_cell_angle_alpha                90
_cell_angle_beta                 90.868(4)
_cell_angle_gamma                90
_cell_volume                     1465.5
loop_
_atom_site_label
_atom_site_type_symbol
_atom_site_fract_x
_atom_site_fract_y
_atom_site_fract_z
Nd1 Nd 0.28382(3) 0.131505(15) 0.43119(2)
O1 O 0.2829(4) 0.16730(19) 0.2275(3)
O2 O 0.2880(4) 0.2656(2) 0.0870(3)
O3 O 0.5020(4) 0.4114(2) 0.0502(3)
O4 O 0.6023(5) 0.5088(2) 0.1755(3)
O5 O -0.1444(4) -0.0512(2) 0.4126(3)
O6 O 0.0510(5) 0.0422(3) 0.3684(3)
O7 O 0.0622(5) 0.2371(2) 0.3979(3)
H1 H 0.000(6) 0.224(4) 0.345(3)
H2 H 0.051(7) 0.2895(12) 0.412(5)
N1 N 0.4719(4) 0.2611(2) 0.3682(3)
N2 N 0.5895(5) 0.3911(3) 0.3492(3)
H3 H 0.640(6) 0.435(3) 0.365(4)
N3 N 0.8348(5) 0.2943(3) 0.7317(4)
C1 C 0.3283(5) 0.2397(3) 0.1851(4)
C2 C 0.4354(5) 0.2947(3) 0.2605(4)
C3 C 0.5090(5) 0.3756(3) 0.2471(4)
C4 C 0.5354(6) 0.4370(3) 0.1498(4)
C5 C 0.5683(6) 0.3209(3) 0.4181(4)
C6 C 0.6546(6) 0.3120(3) 0.5290(4)
C7 C 0.6535(6) 0.3775(3) 0.6124(4)
H4 H 0.5937 0.4288 0.6013
C8 C 0.7425(6) 0.3651(4) 0.7120(4)
H5 H 0.7379 0.4083 0.7683
C9 C 0.8361(6) 0.2324(4) 0.6515(5)
H6 H 0.8999 0.1827 0.6638
C10 C 0.7472(6) 0.2379(3) 0.5505(4)
H7 H 0.7499 0.1921 0.4975
C11 C -0.0249(6) -0.0027(3) 0.4410(5)
O5B O 0.1444(4) 0.0512(2) 0.5874(3)
O6B O -0.0510(5) -0.0422(3) 0.6316(3)
C11B C 0.0249(6) 0.0027(3) 0.5590(5)
Nd1B Nd -0.28382(3) -0.131505(15) 0.56881(2)
O1B O -0.2829(4) -0.16730(19) 0.7725(3)
O2B O -0.2880(4) -0.2656(2) 0.9130(3)
O3B O -0.5020(4) -0.4114(2) 0.9498(3)
O4B O -0.6023(5) -0.5088(2) 0.8245(3)
O7B O -0.0622(5) -0.2371(2) 0.6021(3)
H1B H 0.000(6) -0.224(4) 0.655(3)
H2B H -0.051(7) -0.2895(12) 0.588(5)
N1B N -0.4719(4) -0.2611(2) 0.6318(3)
N2B N -0.5895(5) -0.3911(3) 0.6508(3)
H3B H -0.640(6) -0.435(3) 0.635(4)
N3B N -0.8348(5) -0.2943(3) 0.2683(4)
C1B C -0.3283(5) -0.2397(3) 0.8149(4)
C2B C -0.4354(5) -0.2947(3) 0.7395(4)
C3B C -0.5090(5) -0.3756(3) 0.7529(4)
C4B C -0.5354(6) -0.4370(3) 0.8502(4)
C5B C -0.5683(6) -0.3209(3) 0.5819(4)
C6B C -0.6546(6) -0.3120(3) 0.4710(4)
C7B C -0.6535(6) -0.3775(3) 0.3876(4)
H4B H -0.5937 -0.4288 0.3987
C8B C -0.7425(6) -0.3651(4) 0.2880(4)
H5B H -0.7379 -0.4083 0.2317
C9B C -0.8361(6) -0.2324(4) 0.3485(5)
H6B H -0.8999 -0.1827 0.3362
C10B C -0.7472(6) -0.2379(3) 0.4495(4)
H7B H -0.7499 -0.1921 0.5025
Nd1A Nd -0.28382(3) -0.368495(15) 1.06881(2)
Nd1A_2 Nd 0.71618(3) 0.631505(15) 0.06881(2)
Nd1C Nd -0.71618(3) -0.631505(15) 0.93119(2)
Nd1C_2 Nd 0.28382(3) 0.368495(15) -0.06881(2)
O2A O -0.2880(4) -0.2344(2) 0.4130(3)
O2C O 0.2880(4) 0.2344(2) 0.5870(3)
O3A O -0.5020(4) -0.0886(2) 0.4498(3)
O3C O 0.5020(4) 0.0886(2) 0.5502(3)
O4A O 0.3977(5) 0.0088(2) 0.3245(3)
O4C O -0.3977(5) -0.0088(2) 0.6755(3)
O8 O 0.0781(7) 0.4262(3) 0.3552(4)
H8 H 0.000(6) 0.460(4) 0.360(7)
H9 H 0.105(9) 0.440(5) 0.291(3)
O9 O 0.2011(6) 0.0293(2) 0.0829(4)
H10 H 0.165(7) 0.043(4) 0.020(3)
H11 H 0.219(7) 0.073(2) 0.122(5)
loop_
_geom_bond_atom_site_label_1
_geom_bond_atom_site_label_2
_geom_bond_site_symmetry_1
_geom_bond_site_symmetry_2
Nd1 O1 1_555 1_555
O1 C1 1_555 1_555
O2 C1 1_555 1_555
O3 C4 1_555 1_555
O4 C4 1_555 1_555
O5 C11 1_555 1_555
O6 Nd1 1_555 1_555
O7 Nd1 1_555 1_555
H1 O7 1_555 1_555
H2 O7 1_555 1_555
N1 Nd1 1_555 1_555
N2 H3 1_555 1_555
N3 C8 1_555 1_555
C1 C2 1_555 1_555
C2 N1 1_555 1_555
C3 N2 1_555 1_555
C4 C3 1_555 1_555
C5 N1 1_555 1_555
C6 C5 1_555 1_555
C7 C6 1_555 1_555
H4 C7 1_555 1_555
C8 C7 1_555 1_555
H5 C8 1_555 1_555
C9 N3 1_555 1_555
H6 C9 1_555 1_555
C10 C6 1_555 1_555
H7 C10 1_555 1_555
C11 O6 1_555 1_555
O8 H8 1_555 1_555
H9 O8 1_555 1_555
O9 H10 1_555 1_555
H11 O9 1_555 1_555
O5B Nd1 1_555 1_555
O6B C11B 1_555 1_555
C11B C11 1_555 1_555
Nd1B O5 1_555 1_555
O1B Nd1B 1_555 1_555
O2B C1B 1_555 1_555
O3B C4B 1_555 1_555
O4B C4B 1_555 1_555
O7B Nd1B 1_555 1_555
H1B O7B 1_555 1_555
H2B O7B 1_555 1_555
N1B Nd1B 1_555 1_555
N2B H3B 1_555 1_555
N3B C8B 1_555 1_555
C1B O1B 1_555 1_555
C2B N1B 1_555 1_555
C3B N2B 1_555 1_555
C4B C3B 1_555 1_555
C5B N1B 1_555 1_555
C6B C5B 1_555 1_555
C7B C6B 1_555 1_555
H4B C7B 1_555 1_555
C8B C7B 1_555 1_555
H5B C8B 1_555 1_555
C9B N3B 1_555 1_555
H6B C9B 1_555 1_555
C10B C6B 1_555 1_555
H7B C10B 1_555 1_555
Nd1A O2B 1_555 1_555
Nd1A_2 O4 1_555 1_555
Nd1C O4B 1_555 1_555
Nd1C_2 O2 1_555 1_555
O2A Nd1B 1_555 1_555
O2C Nd1 1_555 1_555
O3A Nd1B 1_555 1_555
O3C Nd1 1_555 1_555
O4A Nd1 1_555 1_555
O4C Nd1B 1_555 1_555
O3 Nd1C_2 1_555 1_555
N2 C5 1_555 1_555
C2 C3 1_555 1_555
C9 C10 1_555 1_555
O5B C11B 1_555 1_555
O6B Nd1B 1_555 1_555
O3B Nd1A 1_555 1_555
N2B C5B 1_555 1_555
C1B C2B 1_555 1_555
C2B C3B 1_555 1_555
C9B C10B 1_555 1_555

#END
