
#######################################################################
#
#                 Cambridge Crystallographic Data Centre
#                                CCDC 
#
#######################################################################
#
# If this CIF has been generated from an entry in the Cambridge 
# Structural Database, then it will include bibliographic, chemical, 
# crystal, experimental, refinement or atomic coordinate data resulting 
# from the CCDC's data processing and validation procedures.
#
#######################################################################

data_JODFEP
_symmetry_cell_setting           orthorhombic
_symmetry_space_group_name_H-M   'A b a 2'
_symmetry_Int_Tables_number      41
_space_group_name_Hall           'A 2 -2ab'
loop_
_symmetry_equiv_pos_site_id
_symmetry_equiv_pos_as_xyz
1 x,y,z
2 -x,-y,z
3 1/2+x,1/2-y,z
4 1/2-x,1/2+y,z
5 x,1/2+y,1/2+z
6 -x,1/2-y,1/2+z
7 1/2+x,-y,1/2+z
8 1/2-x,y,1/2+z
_cell_length_a                   13.1543(8)
_cell_length_b                   21.7445(11)
_cell_length_c                   8.6774(6)
_cell_angle_alpha                90
_cell_angle_beta                 90
_cell_angle_gamma                90
_cell_volume                     2482.03
loop_
_atom_site_label
_atom_site_type_symbol
_atom_site_fract_x
_atom_site_fract_y
_atom_site_fract_z
C1 C 1.4300(3) 0.58788(16) 1.3246(5)
C2 C 1.3777(3) 0.63823(14) 1.2369(4)
C3 C 1.2720(3) 0.63952(17) 1.2294(6)
H1 H 1.2334 0.6098 1.2822
C4 C 1.2239(3) 0.68461(18) 1.1441(6)
H2 H 1.1527 0.6840 1.1364
C5 C 1.2768(3) 0.73019(19) 1.0705(5)
C6 C 1.3816(4) 0.7294(2) 1.0793(6)
H3 H 1.4193 0.7599 1.0280
C7 C 1.4325(3) 0.68393(18) 1.1632(6)
H4 H 1.5038 0.6844 1.1696
C8 C 1.2188(3) 0.77658(18) 0.9806(7)
H5 H 1.1488 0.7690 0.9690
C9 C 1.2528(3) 0.82572(16) 0.9169(6)
H6 H 1.3223 0.8347 0.9294
C10 C 1.1913(3) 0.86930(17) 0.8254(5)
C11 C 1.0858(3) 0.86412(18) 0.8094(6)
H7 H 1.0503 0.8328 0.8611
C12 C 1.0344(3) 0.90539(19) 0.7172(7)
H8 H 0.9632 0.9023 0.7100
C13 C 1.1808(3) 0.95476(16) 0.6551(5)
H9 H 1.2145 0.9862 0.6010
C14 C 1.2376(3) 0.91632(17) 0.7487(6)
H10 H 1.3079 0.9226 0.7593
N1 N 1.0811(2) 0.94926(12) 0.6383(4)
O1 O 1.5237(2) 0.58128(16) 1.3113(5)
O2 O 1.37850(18) 0.55315(10) 1.4095(3)
Co1 Co 1.0000 1.0000 0.47719(16)
C1A C 0.5700(3) 1.41212(16) 1.3246(5)
C2A C 0.6223(3) 1.36177(14) 1.2369(4)
C3A C 0.7280(3) 1.36048(17) 1.2294(6)
H1A H 0.7666 1.3902 1.2822
C4A C 0.7761(3) 1.31539(18) 1.1441(6)
H2A H 0.8473 1.3160 1.1364
C5A C 0.7232(3) 1.26981(19) 1.0705(5)
C6A C 0.6184(4) 1.2706(2) 1.0793(6)
H3A H 0.5807 1.2401 1.0280
C7A C 0.5675(3) 1.31607(18) 1.1632(6)
H4A H 0.4962 1.3156 1.1696
C8A C 0.7812(3) 1.22342(18) 0.9806(7)
H5A H 0.8512 1.2310 0.9690
C9A C 0.7472(3) 1.17428(16) 0.9169(6)
H6A H 0.6777 1.1653 0.9294
C10A C 0.8087(3) 1.13070(17) 0.8254(5)
C11A C 0.9142(3) 1.13588(18) 0.8094(6)
H7A H 0.9497 1.1672 0.8611
C12A C 0.9656(3) 1.09461(19) 0.7172(7)
H8A H 1.0368 1.0977 0.7100
C13A C 0.8192(3) 1.04524(16) 0.6551(5)
H9A H 0.7855 1.0138 0.6010
C14A C 0.7624(3) 1.08368(17) 0.7487(6)
H10A H 0.6921 1.0774 0.7593
N1A N 0.9189(2) 1.05074(12) 0.6383(4)
O1A O 0.4763(2) 1.41872(16) 1.3113(5)
O2A O 0.62150(18) 1.44685(10) 1.4095(3)
O1B O 1.0237(2) 0.91872(16) 0.3113(5)
O1C O 0.9763(2) 1.08128(16) 0.3113(5)
O2B O 0.87850(18) 0.94685(10) 0.4095(3)
O2C O 1.12150(18) 1.05315(10) 0.4095(3)
Co1B Co 0.5000 1.5000 1.47719(16)
Co1B_2 Co 1.5000 0.5000 1.47719(16)
loop_
_geom_bond_atom_site_label_1
_geom_bond_atom_site_label_2
_geom_bond_site_symmetry_1
_geom_bond_site_symmetry_2
C1 C2 1_555 1_555
C2 C3 1_555 1_555
C3 H1 1_555 1_555
C4 C3 1_555 1_555
H2 C4 1_555 1_555
C5 C4 1_555 1_555
C6 C5 1_555 1_555
H3 C6 1_555 1_555
C7 C2 1_555 1_555
H4 C7 1_555 1_555
C8 C5 1_555 1_555
H5 C8 1_555 1_555
C9 C8 1_555 1_555
H6 C9 1_555 1_555
C10 C9 1_555 1_555
C11 C10 1_555 1_555
H7 C11 1_555 1_555
C12 C11 1_555 1_555
H8 C12 1_555 1_555
C13 H9 1_555 1_555
C14 C10 1_555 1_555
H10 C14 1_555 1_555
N1 C12 1_555 1_555
O1 C1 1_555 1_555
O2 C1 1_555 1_555
Co1 N1 1_555 1_555
C1A C2A 1_555 1_555
C2A C3A 1_555 1_555
C3A H1A 1_555 1_555
C4A C3A 1_555 1_555
H2A C4A 1_555 1_555
C5A C4A 1_555 1_555
C6A C5A 1_555 1_555
H3A C6A 1_555 1_555
C7A C2A 1_555 1_555
H4A C7A 1_555 1_555
C8A C5A 1_555 1_555
H5A C8A 1_555 1_555
C9A C8A 1_555 1_555
H6A C9A 1_555 1_555
C10A C9A 1_555 1_555
C11A C10A 1_555 1_555
H7A C11A 1_555 1_555
C12A C11A 1_555 1_555
H8A C12A 1_555 1_555
C13A H9A 1_555 1_555
C14A C10A 1_555 1_555
H10A C14A 1_555 1_555
N1A Co1 1_555 1_555
O1A C1A 1_555 1_555
O2A C1A 1_555 1_555
O1B Co1 1_555 1_555
O1C Co1 1_555 1_555
O2B Co1 1_555 1_555
O2C Co1 1_555 1_555
Co1B O1A 1_555 1_555
Co1B_2 O1 1_555 1_555
C6 C7 1_555 1_555
C13 C14 1_555 1_555
C13 N1 1_555 1_555
O2 Co1B_2 1_555 1_555
C6A C7A 1_555 1_555
C12A N1A 1_555 1_555
C13A C14A 1_555 1_555
C13A N1A 1_555 1_555
O2A Co1B 1_555 1_555

#END
