
#######################################################################
#
#                 Cambridge Crystallographic Data Centre
#                                CCDC 
#
#######################################################################
#
# If this CIF has been generated from an entry in the Cambridge 
# Structural Database, then it will include bibliographic, chemical, 
# crystal, experimental, refinement or atomic coordinate data resulting 
# from the CCDC's data processing and validation procedures.
#
#######################################################################

data_JODMAS
_symmetry_cell_setting           monoclinic
_symmetry_space_group_name_H-M   'C 2/c'
_symmetry_Int_Tables_number      15
_space_group_name_Hall           '-C 2yn'
loop_
_symmetry_equiv_pos_site_id
_symmetry_equiv_pos_as_xyz
1 x,y,z
2 -x,y,1/2-z
3 1/2+x,1/2+y,z
4 1/2-x,1/2+y,1/2-z
5 -x,-y,-z
6 x,-y,1/2+z
7 1/2-x,1/2-y,-z
8 1/2+x,1/2-y,1/2+z
_cell_length_a                   15.9930(5)
_cell_length_b                   13.9077(6)
_cell_length_c                   11.7967(4)
_cell_angle_alpha                90
_cell_angle_beta                 95.485(3)
_cell_angle_gamma                90
_cell_volume                     2611.88
loop_
_atom_site_label
_atom_site_type_symbol
_atom_site_fract_x
_atom_site_fract_y
_atom_site_fract_z
C1 C 0.91351(7) 0.25789(8) 0.95020(10)
C2 C 0.93548(8) 0.17124(9) 0.89997(10)
C3 C 1.00704(8) 0.11947(9) 0.93382(11)
C4 C 1.06155(8) 0.15165(9) 1.02343(11)
C5 C 1.04239(8) 0.23554(9) 1.07781(11)
C6 C 0.97068(7) 0.28582(8) 1.04186(10)
C7 C 0.82822(7) 0.37893(8) 0.84187(10)
C8 C 0.83182(8) 0.34230(9) 0.71616(10)
C9 C 0.73917(8) 0.42189(9) 0.85088(11)
C10 C 0.89298(7) 0.46314(9) 0.86138(10)
N1 N 0.83621(6) 0.30432(7) 0.92434(8)
F1 F 0.88298(5) 0.13381(5) 0.81448(6)
F2 F 1.02336(5) 0.03672(5) 0.88190(7)
F3 F 1.13059(5) 0.10151(6) 1.05826(8)
F4 F 1.09397(5) 0.26771(6) 1.16681(7)
F5 F 0.95483(4) 0.36623(5) 1.10053(6)
F6 F 0.81011(5) 0.40767(6) 0.63539(6)
F7 F 0.78026(5) 0.26718(5) 0.69355(6)
F8 F 0.90917(4) 0.31221(6) 0.70140(6)
F9 F 0.72358(5) 0.49994(6) 0.78567(7)
F10 F 0.67885(4) 0.35806(6) 0.81953(7)
F11 F 0.72760(5) 0.44820(6) 0.95708(6)
F12 F 0.88840(5) 0.52774(5) 0.77548(7)
F13 F 0.97138(4) 0.43083(5) 0.87153(6)
F14 F 0.88127(5) 0.51193(5) 0.95571(6)
K1 K 0.786818(16) 0.343549(19) 1.14300(2)
N1F N 0.66379(6) 0.19568(7) 1.07566(8)
F1F F 0.61702(5) 0.36619(5) 1.18552(6)
F4A F 0.90603(5) 0.26771(6) 1.33319(7)
F7F F 0.71974(5) 0.23282(5) 1.30645(6)
F9E F 0.72358(5) 0.50006(6) 1.28567(7)
F10F F 0.82115(4) 0.14194(6) 1.18047(7)
F12E F 0.88840(5) 0.47226(5) 1.27548(7)
K1A K 1.213182(16) 0.343549(19) 1.35700(2)
K1E K 0.786818(16) 0.656451(19) 0.64300(2)
K1F K 0.713182(16) 0.156451(19) 0.85700(2)
loop_
_geom_bond_atom_site_label_1
_geom_bond_atom_site_label_2
_geom_bond_site_symmetry_1
_geom_bond_site_symmetry_2
C1 C2 1_555 1_555
C2 C3 1_555 1_555
C3 C4 1_555 1_555
C4 C5 1_555 1_555
C5 C6 1_555 1_555
C6 C1 1_555 1_555
C7 C8 1_555 1_555
C8 F6 1_555 1_555
C9 C7 1_555 1_555
C10 C7 1_555 1_555
N1 C1 1_555 1_555
F1 C2 1_555 1_555
F2 C3 1_555 1_555
F3 C4 1_555 1_555
F4 C5 1_555 1_555
F5 C6 1_555 1_555
F7 C8 1_555 1_555
F8 C8 1_555 1_555
F9 C9 1_555 1_555
F10 C9 1_555 1_555
F11 C9 1_555 1_555
F12 C10 1_555 1_555
F13 C10 1_555 1_555
F14 C10 1_555 1_555
K1 N1 1_555 1_555
N1F K1 1_555 1_555
F1F K1 1_555 1_555
F4A K1 1_555 1_555
F7F K1 1_555 1_555
F9E K1 1_555 1_555
F10F K1 1_555 1_555
F12E K1 1_555 1_555
K1A F4 1_555 1_555
K1E F9 1_555 1_555
K1F N1 1_555 1_555
C7 N1 1_555 1_555
F1 K1F 1_555 1_555
F5 K1 1_555 1_555
F7 K1F 1_555 1_555
F10 K1F 1_555 1_555
F11 K1 1_555 1_555
F12 K1E 1_555 1_555
N1F K1F 1_555 1_555

#END
