
#######################################################################
#
#                 Cambridge Crystallographic Data Centre
#                                CCDC 
#
#######################################################################
#
# If this CIF has been generated from an entry in the Cambridge 
# Structural Database, then it will include bibliographic, chemical, 
# crystal, experimental, refinement or atomic coordinate data resulting 
# from the CCDC's data processing and validation procedures.
#
#######################################################################

data_JODVEE
_symmetry_cell_setting           monoclinic
_symmetry_space_group_name_H-M   'P 21/c'
_symmetry_Int_Tables_number      14
_space_group_name_Hall           '-P 2ybc'
loop_
_symmetry_equiv_pos_site_id
_symmetry_equiv_pos_as_xyz
1 x,y,z
2 -x,1/2+y,1/2-z
3 -x,-y,-z
4 x,1/2-y,1/2+z
_cell_length_a                   7.7983(3)
_cell_length_b                   12.8274(6)
_cell_length_c                   14.4190(6)
_cell_angle_alpha                90
_cell_angle_beta                 105.6420(10)
_cell_angle_gamma                90
_cell_volume                     1388.94
loop_
_atom_site_label
_atom_site_type_symbol
_atom_site_fract_x
_atom_site_fract_y
_atom_site_fract_z
Cd1 Cd 0.0000 -0.5000 0.0000
C1 C -0.6038(3) -0.39426(17) -0.87617(16)
H1 H -0.5530 -0.4029 -0.9271
C2 C -0.7922(3) -0.39405(15) -0.79328(14)
H2 H -0.8967 -0.4025 -0.7747
C3 C -0.5181(3) -0.35629(17) -0.78845(16)
H3 H -0.4001 -0.3347 -0.7679
C4 C -0.6112(3) -0.32765(16) -0.63400(15)
H4 H -0.7206 -0.2997 -0.6243
H5 H -0.5216 -0.2732 -0.6182
C5 C -0.5507(3) -0.41876(15) -0.56627(14)
C6 C -0.6033(3) -0.52014(15) -0.59160(16)
H6 H -0.6732 -0.5344 -0.6535
C7 C -0.4469(3) -0.39939(16) -0.47405(15)
H7 H -0.4103 -0.3317 -0.4559
C8 C -0.0724(3) -0.33407(15) -0.18324(15)
H8 H -0.1700 -0.3061 -0.1665
C9 C -0.0320(3) -0.31662(16) -0.26739(15)
H9 H -0.0957 -0.2760 -0.3186
C10 C 0.1663(3) -0.41959(15) -0.17628(14)
H10 H 0.2654 -0.4624 -0.1550
C11 C 0.2121(3) -0.38072(18) -0.33871(15)
H11 H 0.2346 -0.3118 -0.3606
H12 H 0.3260 -0.4149 -0.3132
C12 C 0.1024(3) -0.44253(16) -0.42282(14)
C13 C 0.0831(3) -0.54885(18) -0.41550(15)
H13 H 0.1394 -0.5825 -0.3582
C14 C -0.0181(3) -0.60608(18) -0.49168(14)
H14 H 0.0296 -0.3223 -0.5146
Cl1 Cl 0.23305(7) -0.63726(4) -0.02514(4)
N1 N -0.7763(2) -0.41808(13) -0.87913(12)
N2 N -0.6415(2) -0.35608(12) -0.73574(12)
N3 N 0.0517(2) -0.39902(12) -0.12627(12)
N4 N 0.1214(2) -0.37075(13) -0.26207(11)
Cd1_2 Cd -1.0000 -0.5000 -1.0000
Cd1_3 Cd 0.0000 -0.5000 -1.0000
C1B C -0.3962(3) -0.60574(17) -0.12383(16)
H1B H -0.4470 -0.5971 -0.0729
C2B C -0.2078(3) -0.60595(15) -0.20672(14)
H2B H -0.1033 -0.5975 -0.2253
C3B C -0.4819(3) -0.64371(17) -0.21155(16)
H3B H -0.5999 -0.6653 -0.2321
C4B C -0.3888(3) -0.67235(16) -0.36600(15)
H4B H -0.2794 -0.7003 -0.3757
H5B H -0.4784 -0.7268 -0.3818
C5B C -0.4493(3) -0.58124(15) -0.43373(14)
C6B C -0.3967(3) -0.47986(15) -0.40840(16)
H6B H -0.3268 -0.4656 -0.3465
C7B C -0.5531(3) -0.60061(16) -0.52595(15)
H7B H -0.5897 -0.6683 -0.5441
C8B C 0.0724(3) -0.66593(15) -0.81676(15)
H8B H 0.1700 -0.6939 -0.8335
C9B C 0.0320(3) -0.68338(16) -0.73261(15)
H9B H 0.0957 -0.7240 -0.6814
C10B C -0.1663(3) -0.58041(15) -0.82372(14)
H10B H -0.2654 -0.5376 -0.8450
C11B C -0.2121(3) -0.61928(18) -0.66129(15)
H11B H -0.2346 -0.6882 -0.6394
H12B H -0.3260 -0.5851 -0.6868
C12B C -0.1024(3) -0.55747(16) -0.57718(14)
C13B C -0.0831(3) -0.45115(18) -0.58450(15)
H13B H -0.1394 -0.4175 -0.6418
C14B C 0.0181(3) -0.39392(18) -0.50832(14)
H14B H -0.0296 -0.6777 -0.4854
Cl1B Cl -0.23305(7) -0.36274(4) 0.02514(4)
N1B N -0.2237(2) -0.58192(13) -0.12087(12)
N1_2 N 0.2237(2) -0.41808(13) 0.12087(12)
N2B N -0.3585(2) -0.64392(12) -0.26426(12)
N3B N -0.0517(2) -0.60098(12) -0.87373(12)
N3B_2 N -0.0517(2) -0.60098(12) 0.12627(12)
N4B N -0.1214(2) -0.62925(13) -0.73793(11)
loop_
_geom_bond_atom_site_label_1
_geom_bond_atom_site_label_2
_geom_bond_site_symmetry_1
_geom_bond_site_symmetry_2
Cd1 Cl1 1_555 1_555
C1 H1 1_555 1_555
C2 H2 1_555 1_555
C3 C1 1_555 1_555
H3 C3 1_555 1_555
C4 H4 1_555 1_555
H5 C4 1_555 1_555
C5 C4 1_555 1_555
C6 C5 1_555 1_555
H6 C6 1_555 1_555
C7 C5 1_555 1_555
H7 C7 1_555 1_555
C8 H8 1_555 1_555
C9 C8 1_555 1_555
H9 C9 1_555 1_555
C10 H10 1_555 1_555
C11 H11 1_555 1_555
H12 C11 1_555 1_555
C12 C11 1_555 1_555
C13 C12 1_555 1_555
H13 C13 1_555 1_555
C14 C13 1_555 1_555
H14 C14B 1_555 1_555
N1 C1 1_555 1_555
N2 C2 1_555 1_555
N3 Cd1 1_555 1_555
N4 C9 1_555 1_555
Cd1_2 N1 1_555 1_555
Cd1_3 N3B 1_555 1_555
C1B H1B 1_555 1_555
C2B H2B 1_555 1_555
C3B C1B 1_555 1_555
H3B C3B 1_555 1_555
C4B H4B 1_555 1_555
H5B C4B 1_555 1_555
C5B C4B 1_555 1_555
C6B C7 1_555 1_555
H6B C6B 1_555 1_555
C7B C6 1_555 1_555
H7B C7B 1_555 1_555
C8B H8B 1_555 1_555
C9B C8B 1_555 1_555
H9B C9B 1_555 1_555
C10B H10B 1_555 1_555
C11B H11B 1_555 1_555
H12B C11B 1_555 1_555
C12B C14 1_555 1_555
C13B C12B 1_555 1_555
H13B C13B 1_555 1_555
C14B C12 1_555 1_555
H14B C14 1_555 1_555
Cl1B Cd1 1_555 1_555
N1B Cd1 1_555 1_555
N1_2 Cd1 1_555 1_555
N2B C2B 1_555 1_555
N3B C8B 1_555 1_555
N3B_2 Cd1 1_555 1_555
N4B C9B 1_555 1_555
C2 N1 1_555 1_555
C3 N2 1_555 1_555
C4 N2 1_555 1_555
C8 N3 1_555 1_555
C10 N3 1_555 1_555
C10 N4 1_555 1_555
C11 N4 1_555 1_555
C1B N1B 1_555 1_555
C2B N1B 1_555 1_555
C3B N2B 1_555 1_555
C4B N2B 1_555 1_555
C5B C6B 1_555 1_555
C5B C7B 1_555 1_555
C10B N3B 1_555 1_555
C10B N4B 1_555 1_555
C11B C12B 1_555 1_555
C11B N4B 1_555 1_555
C13B C14B 1_555 1_555

#END
