
#######################################################################
#
#                 Cambridge Crystallographic Data Centre
#                                CCDC 
#
#######################################################################
#
# If this CIF has been generated from an entry in the Cambridge 
# Structural Database, then it will include bibliographic, chemical, 
# crystal, experimental, refinement or atomic coordinate data resulting 
# from the CCDC's data processing and validation procedures.
#
#######################################################################

data_JODYOR
_symmetry_cell_setting           rhombohedral
_symmetry_space_group_name_H-M   'R -3 c'
_symmetry_Int_Tables_number      167
_space_group_name_Hall           '-R 3 2"c'
loop_
_symmetry_equiv_pos_site_id
_symmetry_equiv_pos_as_xyz
1 x,y,z
2 -y,x-y,z
3 -x+y,-x,z
4 y,x,1/2-z
5 2/3+x,1/3+y,1/3+z
6 2/3-y,1/3+x-y,1/3+z
7 2/3-x+y,1/3-x,1/3+z
8 2/3+y,1/3+x,5/6-z
9 1/3+x,2/3+y,2/3+z
10 1/3+y,2/3+x,1/6-z
11 x-y,-y,1/2-z
12 -x,-x+y,1/2-z
13 1/3-y,2/3+x-y,2/3+z
14 1/3-x+y,2/3-x,2/3+z
15 1/3+x-y,2/3-y,1/6-z
16 1/3-x,2/3-x+y,1/6-z
17 2/3+x-y,1/3-y,5/6-z
18 2/3-x,1/3-x+y,5/6-z
19 -x,-y,-z
20 y,-x+y,-z
21 x-y,x,-z
22 -y,-x,1/2+z
23 1/3-x,2/3-y,2/3-z
24 1/3+y,2/3-x+y,2/3-z
25 1/3+x-y,2/3+x,2/3-z
26 1/3-y,2/3-x,1/6+z
27 2/3-x,1/3-y,1/3-z
28 2/3-y,1/3-x,5/6+z
29 -x+y,y,1/2+z
30 x,x-y,1/2+z
31 2/3+y,1/3-x+y,1/3-z
32 2/3+x-y,1/3+x,1/3-z
33 2/3-x+y,1/3+y,5/6+z
34 2/3+x,1/3+x-y,5/6+z
35 1/3-x+y,2/3+y,1/6+z
36 1/3+x,2/3+x-y,1/6+z
_cell_length_a                   11.9571(17)
_cell_length_b                   11.9571(17)
_cell_length_c                   42.751(9)
_cell_angle_alpha                90
_cell_angle_beta                 90
_cell_angle_gamma                120.00
_cell_volume                     5293.33
loop_
_atom_site_label
_atom_site_type_symbol
_atom_site_fract_x
_atom_site_fract_y
_atom_site_fract_z
Na1 Na 1.0000 1.0000 1.0000
Co1 Co 0.81971(5) 0.84424(5) 0.915051(14)
C1 C 0.6232(5) 0.9566(5) 0.9167
C2 C 0.5009(5) 0.8342(5) 0.9167
H1 H 0.4686 0.8118 0.9381
C3 C 0.6888(7) 0.6876(12) 0.96966(15)
C4 C 0.6649(6) 0.6770(5) 1.00262(14)
H4 H 0.6218 0.7255 1.0083
H5 H 0.7470 0.7122 1.0139
H6 H 0.6095 0.5859 1.0082
C5 C 1.0000 1.0000 0.8539(4)
C6 C 1.0000 1.0000 0.8226(3)
H7 H 1.0701 1.0829 0.8150
N1 N 0.7391(3) 0.9669(3) 0.91539(8)
N2 N 0.8229(3) 1.0936(3) 0.91592(9)
O1 O 1.0000 1.0000 0.92916(18)
H10 H 1.0000 1.0000 0.9516(5)
O3 O 0.7326(7) 0.7700(7) 0.95545(17)
O5 O 0.6355(6) 0.5560(5) 0.95905(13)
O7 O 0.8889(7) 0.9050(7) 0.86861(18)
Co1G Co 0.51091(5) 1.15304(5) 0.918282(14)
Co1A Co 1.15576(5) 0.97547(7) 0.915051(14)
Co1Q Co 0.84696(5) 0.35786(7) 0.918282(14)
Co1B Co 1.02453(7) 1.18029(5) 0.915051(14)
Co1Q_2 Co 0.84696(5) 1.35786(7) 0.918282(14)
Co1P Co 0.64214(7) 0.48909(5) 0.918282(14)
Co1P_2 Co 0.64214(7) 1.48909(5) 0.918282(14)
Co1A_2 Co 0.15576(5) 0.97547(7) 0.915051(14)
Co1B_2 Co 0.02453(7) 1.18029(5) 0.915051(14)
Co1G_2 Co 1.51091(5) 1.15304(5) 0.918282(14)
C1A C 1.0434(5) 0.6666(7) 0.9167
C1P C 0.3333(7) 1.3767(5) 0.9166
C2A C 1.1658(5) 0.6667(7) 0.9167
C2P C 0.3334(7) 1.4991(5) 0.9166
H1G H 0.4785 0.8019 0.8952
H1A H 1.1882 0.6568 0.9381
H1Q H 1.1981 0.6765 0.8952
H1P H 0.3235 1.5215 0.8952
H1B H 0.3432 1.5314 0.9381
C3P C 0.6679(14) 0.6457(12) 0.86367(15)
C3G C 0.3543(12) 1.0221(7) 0.86367(15)
C3A C 0.3124(12) 1.0012(14) 0.96966(15)
C3A_2 C 1.3124(12) 1.0012(14) 0.96966(15)
C3G_2 C 1.3543(12) 1.0221(7) 0.86367(15)
C4P C 0.6546(8) 0.6563(5) 0.83071(14)
C4G C 0.3437(5) 0.9982(6) 0.83071(14)
C4A C 0.3230(5) 0.9879(8) 1.00262(14)
C4A_2 C 1.3230(5) 0.9879(8) 1.00262(14)
C4G_2 C 1.3437(5) 0.9982(6) 0.83071(14)
H4P H 0.5630 0.6078 0.8250
H4G H 0.3922 0.9551 0.8250
H4A H 0.2745 0.8963 1.0083
H4A_2 H 1.2745 0.8963 1.0083
H4G_2 H 1.3922 0.9551 0.8250
H5P H 0.7015 0.6211 0.8194
H5G H 0.3789 1.0803 0.8194
H5A H 0.2878 1.0348 1.0139
H5A_2 H 1.2878 1.0348 1.0139
H5G_2 H 1.3789 1.0803 0.8194
H6P H 0.6903 0.7474 0.8251
H6G H 0.2526 0.9428 0.8251
H6A H 0.4141 1.0236 1.0082
H6A_2 H 1.4141 1.0236 1.0082
H6G_2 H 1.2526 0.9428 0.8251
C5G C 0.6667 1.3333 0.9794(4)
C6G C 0.6667 1.3333 1.0107(3)
H7A H 0.9171 0.9872 0.8150
H7B H 1.0128 0.9299 0.8150
H7G H 0.7496 1.4034 1.0183
H7P H 0.6539 1.2504 1.0183
H7Q H 0.5966 1.3461 1.0183
N1G N 0.6336(3) 1.0724(3) 0.91794(8)
N1A N 1.0331(3) 0.7722(4) 0.91539(8)
N1Q N 0.9276(3) 0.5611(4) 0.91794(8)
N1P N 0.4389(4) 1.3664(3) 0.91794(8)
N1B N 0.2278(4) 1.2609(3) 0.91539(8)
N1B_2 N 1.2278(4) 1.2609(3) 0.91539(8)
N1Q_2 N 0.9276(3) 1.5611(4) 0.91794(8)
N2G N 0.7603(3) 1.1562(3) 0.91741(9)
N2A N 0.9064(3) 0.7293(4) 0.91592(9)
N2Q N 0.8438(3) 0.6040(4) 0.91741(9)
N2P N 0.3960(4) 1.2397(3) 0.91741(9)
N2B N 0.2707(4) 1.1771(3) 0.91592(9)
N2B_2 N 1.2707(4) 1.1771(3) 0.91592(9)
N2G_2 N 0.7603(3) 0.1562(3) 0.91741(9)
O1G O 0.6667 1.3333 0.90417(18)
O1G_2 O 0.6667 0.3333 0.90417(18)
H10G H 0.6667 1.3333 0.8817(5)
H10G_2 H 0.6667 0.3333 0.8817(5)
O3P O 0.6293(10) 0.5633(7) 0.87788(17)
O3G O 0.4367(7) 1.0659(7) 0.87788(17)
O3A O 0.2300(7) 0.9626(10) 0.95545(17)
O3A_2 O 1.2300(7) 0.9626(10) 0.95545(17)
O3G_2 O 1.4367(7) 1.0659(7) 0.87788(17)
O3Q O 0.9341(7) 0.3707(10) 0.87788(17)
O3B O 1.0374(10) 1.2674(7) 0.95545(17)
O3Q_2 O 0.9341(7) 1.3707(10) 0.87788(17)
O5P O 0.7462(8) 0.7773(5) 0.87428(13)
O5G O 0.2227(5) 0.9688(6) 0.87428(13)
O5A O 0.4440(5) 1.0795(8) 0.95905(13)
O5A_2 O 1.4440(5) 1.0795(8) 0.95905(13)
O5G_2 O 1.2227(5) 0.9688(6) 0.87428(13)
O5B O 0.9205(8) 0.3645(6) 0.95905(13)
O5Q O 1.0312(6) 1.2538(8) 0.87428(13)
O5B_2 O 0.9205(8) 1.3645(6) 0.95905(13)
O7A O 1.0950(7) 0.9839(10) 0.86861(18)
O7B O 1.0161(10) 1.1111(7) 0.86861(18)
O7G O 0.5717(7) 1.2222(7) 0.96472(18)
O7P O 0.6506(10) 1.4283(7) 0.96472(18)
O7Q O 0.7778(7) 1.3494(10) 0.96472(18)
O7Q_2 O 0.7778(7) 0.3494(10) 0.96472(18)
H2? H 0.5144 0.7660 0.9080
H3? H 0.4376 0.8428 0.9039
H8? H 0.9171 0.9872 0.8150
H9? H 1.0128 0.9299 0.8150
O2? O 1.0000 1.0000 0.9055(4)
O4? O 0.8129(10) 0.8407(9) 0.96652(19)
O6? O 0.6585(7) 0.6725(8) 0.94334(16)
loop_
_geom_bond_atom_site_label_1
_geom_bond_atom_site_label_2
_geom_bond_site_symmetry_1
_geom_bond_site_symmetry_2
Co1 N1 1_555 1_555
C1 C2 1_555 1_555
C2 H1 1_555 1_555
C3 C4 1_555 1_555
C4 H4 1_555 1_555
H5 C4 1_555 1_555
H6 C4 1_555 1_555
C5 C6 1_555 1_555
C6 H7 1_555 1_555
N1 C1 1_555 1_555
N2 N1 1_555 1_555
O1 Co1 1_555 1_555
H10 O1 1_555 1_555
O3 Co1 1_555 1_555
O5 C3 1_555 1_555
O7 Co1 1_555 1_555
Co1G N1G 1_555 1_555
Co1A O1 1_555 1_555
Co1Q N1Q 1_555 1_555
Co1B N2 1_555 1_555
Co1Q_2 N1Q_2 1_555 1_555
Co1P O5 1_555 1_555
Co1P_2 N1P 1_555 1_555
Co1A_2 N2B 1_555 1_555
Co1B_2 N1B 1_555 1_555
Co1G_2 O3G_2 1_555 1_555
C1A C2A 1_555 1_555
C1P C2P 1_555 1_555
C2A H1A 1_555 1_555
C2P H1P 1_555 1_555
H1G C2 1_555 1_555
H1Q C2A 1_555 1_555
H1B C2P 1_555 1_555
C3P C4P 1_555 1_555
C3G C4G 1_555 1_555
C3A C4A 1_555 1_555
C3A_2 C4A_2 1_555 1_555
C3G_2 C4G_2 1_555 1_555
C4P H4P 1_555 1_555
C4G H4G 1_555 1_555
C4A H4A 1_555 1_555
C4A_2 H4A_2 1_555 1_555
C4G_2 H4G_2 1_555 1_555
H5P C4P 1_555 1_555
H5G C4G 1_555 1_555
H5A C4A 1_555 1_555
H5A_2 C4A_2 1_555 1_555
H5G_2 C4G_2 1_555 1_555
H6P C4P 1_555 1_555
H6G C4G 1_555 1_555
H6A C4A 1_555 1_555
H6A_2 C4A_2 1_555 1_555
H6G_2 C4G_2 1_555 1_555
C5G C6G 1_555 1_555
C6G H7G 1_555 1_555
H7A C6 1_555 1_555
H7B C6 1_555 1_555
H7P C6G 1_555 1_555
H7Q C6G 1_555 1_555
N1G C1 1_555 1_555
N1A Co1A 1_555 1_555
N1Q C1A 1_555 1_555
N1P C1P 1_555 1_555
N1B C1P 1_555 1_555
N1B_2 Co1B 1_555 1_555
N2G N2 1_555 1_555
N2A Co1 1_555 1_555
N2Q Co1P 1_555 1_555
N2P Co1G 1_555 1_555
N2B N1B 1_555 1_555
N2B_2 Co1A 1_555 1_555
N2G_2 Co1Q 1_555 1_555
O1G Co1G 1_555 1_555
O1G_2 Co1Q 1_555 1_555
H10G O1G 1_555 1_555
H10G_2 O1G_2 1_555 1_555
O3P Co1P 1_555 1_555
O3G Co1G 1_555 1_555
O3A Co1A_2 1_555 1_555
O3A_2 Co1A 1_555 1_555
O3G_2 C3G_2 1_555 1_555
O3Q Co1Q 1_555 1_555
O3B Co1B 1_555 1_555
O3Q_2 Co1Q_2 1_555 1_555
O5P Co1 1_555 1_555
O5G Co1A_2 1_555 1_555
O5A Co1G 1_555 1_555
O5A_2 Co1G_2 1_555 1_555
O5G_2 Co1A 1_555 1_555
O5B Co1Q 1_555 1_555
O5Q Co1B 1_555 1_555
O5B_2 Co1Q_2 1_555 1_555
O7A C5 1_555 1_555
O7B C5 1_555 1_555
O7G Co1G 1_555 1_555
O7P Co1P_2 1_555 1_555
O7Q Co1Q_2 1_555 1_555
O7Q_2 Co1Q 1_555 1_555
C3 O3 1_555 1_555
C5 O7 1_555 1_555
O1 Co1B 1_555 1_555
Co1A O7A 1_555 1_555
Co1B O7B 1_555 1_555
Co1Q_2 N2G 1_555 1_555
Co1Q_2 O1G 1_555 1_555
Co1P O1G_2 1_555 1_555
Co1P_2 O1G 1_555 1_555
C1A N1A 1_555 1_555
C3P O3P 1_555 1_555
C3P O5P 1_555 1_555
C3G O3G 1_555 1_555
C3G O5G 1_555 1_555
C3A O3A 1_555 1_555
C3A O5A 1_555 1_555
C3A_2 O3A_2 1_555 1_555
C3A_2 O5A_2 1_555 1_555
C3G_2 O5G_2 1_555 1_555
C5G O7G 1_555 1_555
C5G O7P 1_555 1_555
C5G O7Q 1_555 1_555
N1G N2G 1_555 1_555
N1A N2A 1_555 1_555
N1Q N2Q 1_555 1_555
N1P N2P 1_555 1_555
N1B_2 N2B_2 1_555 1_555
N2A N2Q 1_555 1_555
N2P N2B 1_555 1_555

#END
