
#######################################################################
#
#                 Cambridge Crystallographic Data Centre
#                                CCDC 
#
#######################################################################
#
# If this CIF has been generated from an entry in the Cambridge 
# Structural Database, then it will include bibliographic, chemical, 
# crystal, experimental, refinement or atomic coordinate data resulting 
# from the CCDC's data processing and validation procedures.
#
#######################################################################

data_JODZAE
_symmetry_cell_setting           triclinic
_symmetry_space_group_name_H-M   'P -1'
_symmetry_Int_Tables_number      2
_space_group_name_Hall           '-P 1'
loop_
_symmetry_equiv_pos_site_id
_symmetry_equiv_pos_as_xyz
1 x,y,z
2 -x,-y,-z
_cell_length_a                   14.0615(19)
_cell_length_b                   17.151(2)
_cell_length_c                   18.125(2)
_cell_angle_alpha                62.780(8)
_cell_angle_beta                 72.952(8)
_cell_angle_gamma                69.964(9)
_cell_volume                     3602.8
loop_
_atom_site_label
_atom_site_type_symbol
_atom_site_fract_x
_atom_site_fract_y
_atom_site_fract_z
Mn1 Mn 0.35447(6) 0.70992(6) 0.27145(6)
Mn2 Mn 0.08048(6) 0.76796(6) 0.25462(5)
O1 O 0.2114(3) 0.6626(3) 0.3157(3)
S1 S 0.67576(12) 0.26220(11) 0.28384(9)
S2 S 0.79982(13) 0.18469(10) 0.14051(11)
S3 S 0.20436(13) 1.29278(10) 0.31306(10)
S4 S 0.24268(12) 1.17612(11) 0.20598(9)
O2 O 0.7649(3) 0.3217(3) -0.0334(2)
O3 O 0.5751(3) 0.4565(2) 0.2144(2)
O4 O 0.3063(3) 0.5366(3) 0.2595(3)
O5 O 0.4339(3) 0.5770(3) 0.2731(3)
O6 O 0.8316(3) 0.2369(3) -0.1383(2)
O7 O 0.6710(3) 0.2482(3) -0.1452(3)
O8 O -0.0059(3) 1.2445(3) 0.6200(3)
O9 O -0.1134(4) 1.3550(3) 0.5357(3)
O10 O 0.1118(3) 1.1955(2) 0.4975(2)
O11 O 0.2446(3) 0.9823(3) 0.3137(3)
O12 O 0.2828(3) 0.8385(3) 0.2789(3)
O13 O 0.1282(3) 0.8796(3) 0.2450(3)
N1 N 0.5116(4) 0.7369(4) 0.2381(4)
N2 N 0.3668(4) 0.6562(4) 0.4132(4)
N3 N 0.0173(4) 0.6515(3) 0.2694(3)
N4 N -0.0608(4) 0.8655(3) 0.2027(3)
C1 C 0.9624(5) 0.2650(5) 0.0363(4)
H1 H 0.9163 0.3215 0.0208
C2 C 0.5529(5) 0.1893(5) 0.2486(4)
H2 H 0.5436 0.2413 0.1996
C3 C 0.5057(5) 0.1227(5) 0.2676(5)
H3 H 0.4661 0.1296 0.2310
C4 C 0.5167(5) 0.0452(5) 0.3411(6)
C5 C 0.5773(6) 0.0354(5) 0.3936(5)
H4 H 0.5857 -0.0164 0.4428
C6 C 0.6260(5) 0.1021(4) 0.3739(4)
H5 H 0.6670 0.0942 0.4099
C7 C 0.7296(4) 0.2987(4) 0.1118(4)
C8 C 0.7223(4) 0.3559(4) 0.0280(3)
C9 C 0.6758(4) 0.4495(4) 0.0042(3)
C10 C 0.6766(4) 0.5093(4) -0.0807(4)
H6 H 0.7062 0.4876 -0.1229
C11 C 0.6341(5) 0.5985(4) -0.1005(4)
H7 H 0.6362 0.6380 -0.1568
C12 C 0.5871(5) 0.6326(4) -0.0386(4)
H8 H 0.5577 0.6943 -0.0540
C13 C 0.5839(4) 0.5771(4) 0.0434(4)
H9 H 0.5520 0.6006 0.0843
C14 C 0.6283(4) 0.4842(4) 0.0676(3)
C15 C 0.6256(4) 0.4222(4) 0.1539(3)
C16 C 0.6765(4) 0.3319(4) 0.1766(3)
C17 C 0.6939(4) 0.2899(5) -0.0468(4)
H10 H 0.6331 0.3386 -0.0615
H11 H 0.6735 0.2417 0.0050
C18 C 0.4724(4) 0.4466(4) 0.2437(4)
H12 H 0.4706 0.3925 0.2951
H13 H 0.4501 0.4389 0.2021
C19 C 0.3992(4) 0.5268(4) 0.2603(3)
C20 C 0.5966(6) 0.6768(6) 0.2262(5)
H14 H 0.5900 0.6253 0.2249
C21 C 0.5245(7) 0.8099(6) 0.2374(7)
H15 H 0.4661 0.8521 0.2482
C22 C 0.6142(4) 0.1805(4) 0.3010(4)
C23 C 0.9268(5) 0.1882(4) 0.0917(4)
C24 C 0.3663(7) 0.5713(6) 0.4651(5)
H16 H 0.3632 0.5326 0.4435
C25 C 0.3733(8) 0.5932(11) 0.5848(7)
H17 H 0.3757 0.5725 0.6416
C26 C 0.3727(8) 0.6815(10) 0.5303(7)
H18 H 0.3756 0.7218 0.5501
C27 C 0.3677(6) 0.7109(6) 0.4460(5)
H19 H 0.3649 0.7714 0.4111
C28 C 0.0465(6) 0.6196(5) 0.2106(5)
H20 H 0.0877 0.6482 0.1612
C29 C 0.0195(7) 0.5467(6) 0.2181(6)
H21 H 0.0410 0.5272 0.1743
C30 C -0.0395(7) 0.5028(5) 0.2908(6)
H22 H -0.0573 0.4521 0.2977
C31 C -0.0717(6) 0.5343(5) 0.3531(5)
H23 H -0.1126 0.5065 0.4030
C32 C -0.0413(6) 0.6095(5) 0.3390(5)
H24 H -0.0634 0.6317 0.3809
C33 C -0.0665(6) 0.9019(5) 0.1209(5)
H25 H -0.0118 0.8817 0.0850
C34 C -0.1503(8) 0.9685(6) 0.0866(6)
H26 H -0.1504 0.9933 0.0290
C35 C -0.2324(7) 0.9968(6) 0.1390(7)
H27 H -0.2908 1.0394 0.1184
C36 C -0.2265(6) 0.9607(5) 0.2233(7)
H28 H -0.2797 0.9802 0.2604
C37 C -0.1400(5) 0.8947(5) 0.2519(5)
H29 H -0.1379 0.8697 0.3092
C38 C 0.7378(5) 0.2550(4) -0.1157(4)
C39 C -0.0382(5) 1.2895(4) 0.5509(4)
C40 C 0.0166(5) 1.2617(4) 0.4785(4)
H30 H -0.0269 1.2367 0.4669
H31 H 0.0302 1.3144 0.4286
C41 C 0.1470(4) 1.1460(4) 0.4485(3)
C42 C 0.1442(4) 1.0540(4) 0.4914(3)
C43 C 0.1095(4) 1.0145(4) 0.5800(4)
H32 H 0.0868 1.0500 0.6111
C44 C 0.1095(5) 0.9257(4) 0.6188(4)
H33 H 0.0887 0.9005 0.6767
C45 C 0.1403(5) 0.8713(4) 0.5734(4)
H34 H 0.1354 0.8116 0.6009
C46 C 0.1772(5) 0.9042(4) 0.4901(4)
H35 H 0.2010 0.8659 0.4617
C47 C 0.1800(4) 0.9978(3) 0.4450(4)
C48 C 0.2109(4) 1.0382(4) 0.3569(3)
C49 C 0.2132(4) 1.1273(4) 0.3164(3)
C50 C 0.1867(4) 1.1812(4) 0.3648(3)
C51 C 0.1281(4) 1.2642(4) 0.1819(4)
C52 C 0.0326(5) 1.2509(5) 0.2267(4)
H36 H 0.0270 1.1948 0.2693
C53 C -0.0534(6) 1.3194(5) 0.2087(5)
H37 H -0.1169 1.3099 0.2403
C54 C -0.0480(6) 1.4021(5) 0.1449(5)
C55 C 0.0461(6) 1.4157(5) 0.0993(5)
H38 H 0.0507 1.4713 0.0555
C56 C 0.1338(5) 1.3474(4) 0.1180(4)
H39 H 0.1974 1.3576 0.0873
C57 C 0.2545(5) 1.3012(4) 0.3876(4)
C58 C 0.3369(6) 1.2382(5) 0.4214(5)
H40 H 0.3679 1.1886 0.4070
C59 C 0.3732(8) 1.2493(7) 0.4770(7)
H41 H 0.4288 1.2065 0.5019
C60 C 0.3268(10) 1.3243(9) 0.4964(6)
C61 C 0.2489(8) 1.3876(6) 0.4612(6)
H42 H 0.2196 1.4384 0.4740
C62 C 0.2126(6) 1.3765(5) 0.4058(5)
H43 H 0.1583 1.4206 0.3799
C63 C 0.1637(5) 0.9727(4) 0.2890(4)
H44 H 0.1431 1.0260 0.2397
H45 H 0.1050 0.9683 0.3339
C64 C 0.1959(5) 0.8893(4) 0.2694(4)
C65 C 0.3703(9) 0.5374(8) 0.5505(6)
H46 H 0.3710 0.4770 0.5844
C66 C -0.1413(9) 1.4775(9) 0.1298(9)
H47 H -0.1905 1.4676 0.1807
H48 H -0.1704 1.4802 0.0867
H49 H -0.1237 1.5334 0.1122
C67 C 0.4688(9) -0.0285(10) 0.3618(10)
H50 H 0.5214 -0.0824 0.3632
H51 H 0.4283 -0.0110 0.3198
H52 H 0.4256 -0.0400 0.4158
C68 C 1.1330(6) 0.1754(8) 0.0266(6)
C69 C 1.0995(6) 0.1009(6) 0.0793(5)
H53 H 1.1464 0.0449 0.0938
C70 C 0.9976(5) 0.1056(5) 0.1123(4)
H54 H 0.9761 0.0530 0.1487
C71 C 1.0666(6) 0.2580(6) 0.0037(5)
H55 H 1.0902 0.3094 -0.0332
C72 C 0.6164(11) 0.8279(11) 0.2221(11)
H56 H 0.6211 0.8826 0.2179
C73 C 0.6949(7) 0.6851(9) 0.2156(8)
H57 H 0.7521 0.6390 0.2106
C74 C 0.7051(10) 0.7601(12) 0.2128(12)
H58 H 0.7700 0.7684 0.2047
C75 C 1.227(2) 0.1806(18) -0.0070(14)
H59 H 1.2394 0.1879 -0.0644
H60 H 1.2735 0.1263 0.0237
H61 H 1.2389 0.2316 -0.0049
C76 C 0.363(2) 1.3290(16) 0.556(2)
H62 H 0.4014 1.3746 0.5293
H63 H 0.4075 1.2715 0.5838
H64 H 0.3070 1.3440 0.5961
H65 H 0.229(5) 0.627(4) 0.303(4)
H66 H 0.170(8) 0.652(6) 0.372(7)
Mn1A Mn 0.64553(6) 0.29008(6) -0.27145(6)
Mn2A Mn 0.91952(6) 0.23204(6) -0.25462(5)
Mn2A_2 Mn -0.08048(6) 1.23204(6) 0.74538(5)
O6A O 0.1684(3) 0.7631(3) 0.1383(2)
O7A O 0.3290(3) 0.7518(3) 0.1452(3)
O8A O 0.0059(3) 0.7555(3) 0.3800(3)
loop_
_geom_bond_atom_site_label_1
_geom_bond_atom_site_label_2
_geom_bond_site_symmetry_1
_geom_bond_site_symmetry_2
Mn1 O1 1_555 1_555
Mn2 O1 1_555 1_555
O1 H65 1_555 1_555
S1 C16 1_555 1_555
S2 C7 1_555 1_555
S3 C50 1_555 1_555
S4 C49 1_555 1_555
O2 C8 1_555 1_555
O3 C15 1_555 1_555
O4 C19 1_555 1_555
O5 Mn1 1_555 1_555
O6 C38 1_555 1_555
O7 C38 1_555 1_555
O8 C39 1_555 1_555
O9 C39 1_555 1_555
O10 C40 1_555 1_555
O11 C48 1_555 1_555
O12 Mn1 1_555 1_555
O13 Mn2 1_555 1_555
N1 Mn1 1_555 1_555
N2 Mn1 1_555 1_555
N3 Mn2 1_555 1_555
N4 Mn2 1_555 1_555
C1 H1 1_555 1_555
C2 H2 1_555 1_555
C3 C2 1_555 1_555
H3 C3 1_555 1_555
C4 C3 1_555 1_555
C5 C4 1_555 1_555
H4 C5 1_555 1_555
C6 C5 1_555 1_555
H5 C6 1_555 1_555
C7 C8 1_555 1_555
C8 C9 1_555 1_555
C9 C10 1_555 1_555
C10 H6 1_555 1_555
C11 C10 1_555 1_555
H7 C11 1_555 1_555
C12 C11 1_555 1_555
H8 C12 1_555 1_555
C13 C12 1_555 1_555
H9 C13 1_555 1_555
C14 C9 1_555 1_555
C15 C14 1_555 1_555
C16 C7 1_555 1_555
C17 O2 1_555 1_555
H10 C17 1_555 1_555
H11 C17 1_555 1_555
C18 O3 1_555 1_555
H12 C18 1_555 1_555
H13 C18 1_555 1_555
C19 O5 1_555 1_555
C20 N1 1_555 1_555
H14 C20 1_555 1_555
C21 N1 1_555 1_555
H15 C21 1_555 1_555
C22 S1 1_555 1_555
C23 S2 1_555 1_555
C24 N2 1_555 1_555
H16 C24 1_555 1_555
C25 H17 1_555 1_555
C26 C25 1_555 1_555
H18 C26 1_555 1_555
C27 N2 1_555 1_555
H19 C27 1_555 1_555
C28 N3 1_555 1_555
H20 C28 1_555 1_555
C29 C28 1_555 1_555
H21 C29 1_555 1_555
C30 C29 1_555 1_555
H22 C30 1_555 1_555
C31 C30 1_555 1_555
H23 C31 1_555 1_555
C32 N3 1_555 1_555
H24 C32 1_555 1_555
C33 N4 1_555 1_555
H25 C33 1_555 1_555
C34 C33 1_555 1_555
H26 C34 1_555 1_555
C35 C34 1_555 1_555
H27 C35 1_555 1_555
C36 C35 1_555 1_555
H28 C36 1_555 1_555
C37 N4 1_555 1_555
H29 C37 1_555 1_555
C38 C17 1_555 1_555
C39 C40 1_555 1_555
C40 H30 1_555 1_555
H31 C40 1_555 1_555
C41 O10 1_555 1_555
C42 C41 1_555 1_555
C43 C42 1_555 1_555
H32 C43 1_555 1_555
C44 C43 1_555 1_555
H33 C44 1_555 1_555
C45 C44 1_555 1_555
H34 C45 1_555 1_555
C46 C45 1_555 1_555
H35 C46 1_555 1_555
C47 C42 1_555 1_555
C48 C47 1_555 1_555
C49 C48 1_555 1_555
C50 C41 1_555 1_555
C51 S4 1_555 1_555
C52 C51 1_555 1_555
H36 C52 1_555 1_555
C53 C52 1_555 1_555
H37 C53 1_555 1_555
C54 C53 1_555 1_555
C55 C54 1_555 1_555
H38 C55 1_555 1_555
C56 C51 1_555 1_555
H39 C56 1_555 1_555
C57 S3 1_555 1_555
C58 C57 1_555 1_555
H40 C58 1_555 1_555
C59 C58 1_555 1_555
H41 C59 1_555 1_555
C60 C59 1_555 1_555
C61 C60 1_555 1_555
H42 C61 1_555 1_555
C62 C57 1_555 1_555
H43 C62 1_555 1_555
C63 O11 1_555 1_555
H44 C63 1_555 1_555
H45 C63 1_555 1_555
C64 O12 1_555 1_555
C65 C24 1_555 1_555
H46 C65 1_555 1_555
C66 C54 1_555 1_555
H47 C66 1_555 1_555
H48 C66 1_555 1_555
H49 C66 1_555 1_555
C67 C4 1_555 1_555
H50 C67 1_555 1_555
H51 C67 1_555 1_555
H52 C67 1_555 1_555
C68 C69 1_555 1_555
C69 H53 1_555 1_555
C70 C23 1_555 1_555
H54 C70 1_555 1_555
C71 C1 1_555 1_555
H55 C71 1_555 1_555
C72 C21 1_555 1_555
H56 C72 1_555 1_555
C73 C20 1_555 1_555
H57 C73 1_555 1_555
C74 C72 1_555 1_555
H58 C74 1_555 1_555
C75 C68 1_555 1_555
H59 C75 1_555 1_555
H60 C75 1_555 1_555
H61 C75 1_555 1_555
C76 C60 1_555 1_555
H62 C76 1_555 1_555
H63 C76 1_555 1_555
H64 C76 1_555 1_555
H66 O1 1_555 1_555
Mn1A O7 1_555 1_555
Mn2A O6 1_555 1_555
Mn2A_2 O8 1_555 1_555
O6A Mn2 1_555 1_555
O7A Mn1 1_555 1_555
O8A Mn2 1_555 1_555
O13 C64 1_555 1_555
C1 C23 1_555 1_555
C2 C22 1_555 1_555
C6 C22 1_555 1_555
C13 C14 1_555 1_555
C15 C16 1_555 1_555
C18 C19 1_555 1_555
C25 C65 1_555 1_555
C26 C27 1_555 1_555
C31 C32 1_555 1_555
C36 C37 1_555 1_555
C46 C47 1_555 1_555
C49 C50 1_555 1_555
C55 C56 1_555 1_555
C61 C62 1_555 1_555
C63 C64 1_555 1_555
C68 C71 1_555 1_555
C69 C70 1_555 1_555
C73 C74 1_555 1_555

#END
