
#######################################################################
#
#                 Cambridge Crystallographic Data Centre
#                                CCDC 
#
#######################################################################
#
# If this CIF has been generated from an entry in the Cambridge 
# Structural Database, then it will include bibliographic, chemical, 
# crystal, experimental, refinement or atomic coordinate data resulting 
# from the CCDC's data processing and validation procedures.
#
#######################################################################

data_JOFBIQ
_symmetry_cell_setting           monoclinic
_symmetry_space_group_name_H-M   'P 21/n'
_symmetry_Int_Tables_number      14
_space_group_name_Hall           '-P 2yn'
loop_
_symmetry_equiv_pos_site_id
_symmetry_equiv_pos_as_xyz
1 x,y,z
2 1/2-x,1/2+y,1/2-z
3 -x,-y,-z
4 1/2+x,1/2-y,1/2+z
_cell_length_a                   7.9567(9)
_cell_length_b                   10.5502(12)
_cell_length_c                   16.9639(19)
_cell_angle_alpha                90
_cell_angle_beta                 99.8020(10)
_cell_angle_gamma                90
_cell_volume                     1403.24
loop_
_atom_site_label
_atom_site_type_symbol
_atom_site_fract_x
_atom_site_fract_y
_atom_site_fract_z
Zn1 Zn 0.68233(5) 0.99090(4) 0.17314(2)
V1 V 0.39757(7) 0.85795(5) 0.27768(3)
V2 V 1.07966(7) 1.04396(5) 0.24093(3)
O1 O 0.4796(3) 0.9472(2) 0.21179(15)
O2 O 0.2121(3) 0.9357(2) 0.30387(14)
O3 O 0.3477(3) 0.7035(2) 0.23672(15)
O4 O 0.5358(3) 0.8430(3) 0.35720(15)
O5 O 1.0872(3) 1.0106(2) 0.14861(14)
O6 O 0.8765(3) 1.0279(2) 0.25575(14)
N1 N 0.7462(3) 0.8540(3) 0.10276(17)
N2 N 0.7698(4) 0.9964(3) -0.00316(17)
H1 H 0.8068 1.0005 -0.0478
N3 N 0.6493(3) 1.1236(3) 0.08843(16)
C1 C 0.7658(5) 0.7352(4) 0.1315(2)
H2 H 0.7349 0.7190 0.1809
C2 C 0.8278(5) 0.6372(4) 0.0930(3)
H3 H 0.8386 0.5562 0.1150
C3 C 0.8744(5) 0.6635(4) 0.0193(3)
H4 H 0.9187 0.5995 -0.0089
C4 C 0.8554(5) 0.7828(4) -0.0118(2)
H5 H 0.8862 0.8004 -0.0612
C5 C 0.7894(4) 0.8780(3) 0.0309(2)
C6 C 0.7039(4) 1.1105(3) 0.0179(2)
C7 C 0.6987(5) 1.2112(3) -0.0361(2)
H6 H 0.7385 1.2005 -0.0842
C8 C 0.6351(5) 1.3243(4) -0.0178(2)
H7 H 0.6319 1.3922 -0.0529
C9 C 0.5746(5) 1.3384(4) 0.0542(3)
H8 H 0.5292 1.4151 0.0676
C10 C 0.5835(5) 1.2381(4) 0.1036(2)
H9 H 0.5419 1.2477 0.1513
V2_2 V 0.07966(7) 1.04396(5) 0.24093(3)
V2A V 0.42034(7) 0.54396(5) 0.25907(3)
O2_2 O 1.2121(3) 0.9357(2) 0.30387(14)
O3A O 1.1523(3) 1.2035(2) 0.26328(15)
loop_
_geom_bond_atom_site_label_1
_geom_bond_atom_site_label_2
_geom_bond_site_symmetry_1
_geom_bond_site_symmetry_2
Zn1 O1 1_555 1_555
V1 O1 1_555 1_555
V2 O5 1_555 1_555
O2 V1 1_555 1_555
O3 V1 1_555 1_555
O4 V1 1_555 1_555
O6 Zn1 1_555 1_555
N1 Zn1 1_555 1_555
N2 H1 1_555 1_555
N3 Zn1 1_555 1_555
C1 N1 1_555 1_555
H2 C1 1_555 1_555
C2 C1 1_555 1_555
H3 C2 1_555 1_555
C3 C2 1_555 1_555
H4 C3 1_555 1_555
C4 C3 1_555 1_555
H5 C4 1_555 1_555
C5 N1 1_555 1_555
C6 N2 1_555 1_555
C7 C6 1_555 1_555
H6 C7 1_555 1_555
C8 C7 1_555 1_555
H7 C8 1_555 1_555
C9 C8 1_555 1_555
H8 C9 1_555 1_555
C10 N3 1_555 1_555
H9 C10 1_555 1_555
V2_2 O2 1_555 1_555
V2A O3 1_555 1_555
O2_2 V2 1_555 1_555
O3A V2 1_555 1_555
V2 O6 1_555 1_555
N2 C5 1_555 1_555
N3 C6 1_555 1_555
C4 C5 1_555 1_555
C9 C10 1_555 1_555

#END
