
#######################################################################
#
#                 Cambridge Crystallographic Data Centre
#                                CCDC 
#
#######################################################################
#
# If this CIF has been generated from an entry in the Cambridge 
# Structural Database, then it will include bibliographic, chemical, 
# crystal, experimental, refinement or atomic coordinate data resulting 
# from the CCDC's data processing and validation procedures.
#
#######################################################################

data_JOFDOZ01
_symmetry_cell_setting           monoclinic
_symmetry_space_group_name_H-M   'P 21/c'
_symmetry_Int_Tables_number      14
_space_group_name_Hall           '-P 2ybc'
loop_
_symmetry_equiv_pos_site_id
_symmetry_equiv_pos_as_xyz
1 x,y,z
2 -x,1/2+y,1/2-z
3 -x,-y,-z
4 x,1/2-y,1/2+z
_cell_length_a                   10.3733(5)
_cell_length_b                   9.1936(4)
_cell_length_c                   18.4182(8)
_cell_angle_alpha                90
_cell_angle_beta                 104.4690(10)
_cell_angle_gamma                90
_cell_volume                     1700.8
loop_
_atom_site_label
_atom_site_type_symbol
_atom_site_fract_x
_atom_site_fract_y
_atom_site_fract_z
Sr1 Sr 0.429165(16) 0.052187(19) 0.096508(9)
Sr2 Sr 0.0000 0.0000 0.0000
N1 N -0.05899(15) 0.27562(18) 0.03894(9)
N2 N 0.66967(15) 0.14010(18) 0.17779(9)
C1 C 0.16033(19) 0.2931(2) 0.11887(11)
C2 C 0.02714(18) 0.3615(2) 0.08590(11)
C3 C -0.0028(2) 0.5019(2) 0.10369(13)
H1 H 0.0608 0.5591 0.1357
C4 C -0.1299(2) 0.5554(2) 0.07270(13)
H2 H -0.1528 0.6495 0.0831
C5 C -0.2218(2) 0.4657(2) 0.02594(13)
H3 H -0.3085 0.4973 0.0057
C6 C -0.18184(18) 0.3281(2) 0.01002(11)
C7 C -0.27435(18) 0.2229(2) -0.04102(11)
C8 C 0.75992(19) -0.0145(2) 0.09602(11)
C9 C 0.78034(18) 0.0903(2) 0.16164(11)
C10 C 0.90681(19) 0.1398(2) 0.19867(11)
H4 H 0.9823 0.1003 0.1877
C11 C 0.91835(19) 0.2481(2) 0.25182(12)
H5 H 1.0015 0.2848 0.2761
C12 C 0.8037(2) 0.3014(2) 0.26839(11)
H6 H 0.8084 0.3746 0.3038
C13 C 0.68160(18) 0.2424(2) 0.23067(11)
C14 C 0.55269(18) 0.2977(2) 0.24499(10)
O1 O 0.18794(13) 0.17346(16) 0.09722(8)
O2 O 0.23760(15) 0.36872(18) 0.17142(10)
O3 O -0.39750(13) 0.24441(16) -0.05604(8)
O4 O -0.22099(13) 0.11491(15) -0.06336(8)
O5 O 0.44714(13) 0.23120(16) 0.21001(8)
O6 O 0.55605(14) 0.40245(17) 0.28715(8)
O7 O 0.64353(13) -0.02905(16) 0.05540(8)
O8 O 0.86292(14) -0.07441(16) 0.08573(8)
O9 O 0.46607(14) 0.31002(16) 0.05079(8)
H7 H 0.5162 0.3070 0.0207
H8 H 0.5062 0.3759 0.0803
Sr1B Sr -0.429165(16) -0.052187(19) -0.096508(9)
N1B N 0.05899(15) -0.27562(18) -0.03894(9)
N2B N -0.66967(15) -0.14010(18) -0.17779(9)
C1B C -0.16033(19) -0.2931(2) -0.11887(11)
C2B C -0.02714(18) -0.3615(2) -0.08590(11)
C3B C 0.0028(2) -0.5019(2) -0.10369(13)
H1B H -0.0608 -0.5591 -0.1357
C4B C 0.1299(2) -0.5554(2) -0.07270(13)
H2B H 0.1528 -0.6495 -0.0831
C5B C 0.2218(2) -0.4657(2) -0.02594(13)
H3B H 0.3085 -0.4973 -0.0057
C6B C 0.18184(18) -0.3281(2) -0.01002(11)
C7B C 0.27435(18) -0.2229(2) 0.04102(11)
C8B C -0.75992(19) 0.0145(2) -0.09602(11)
C9B C -0.78034(18) -0.0903(2) -0.16164(11)
C10B C -0.90681(19) -0.1398(2) -0.19867(11)
H4B H -0.9823 -0.1003 -0.1877
C11B C -0.91835(19) -0.2481(2) -0.25182(12)
H5B H -1.0015 -0.2848 -0.2761
C12B C -0.8037(2) -0.3014(2) -0.26839(11)
H6B H -0.8084 -0.3746 -0.3038
C13B C -0.68160(18) -0.2424(2) -0.23067(11)
C14B C -0.55269(18) -0.2977(2) -0.24499(10)
O1B O -0.18794(13) -0.17346(16) -0.09722(8)
O2B O -0.23760(15) -0.36872(18) -0.17142(10)
O3B O 0.39750(13) -0.24441(16) 0.05604(8)
O4B O 0.22099(13) -0.11491(15) 0.06336(8)
O5B O -0.44714(13) -0.23120(16) -0.21001(8)
O6B O -0.55605(14) -0.40245(17) -0.28715(8)
O7B O -0.64353(13) 0.02905(16) -0.05540(8)
O8B O -0.86292(14) 0.07441(16) -0.08573(8)
O9B O -0.46607(14) -0.31002(16) -0.05079(8)
H7B H -0.5162 -0.3070 -0.0207
H8B H -0.5062 -0.3759 -0.0803
Sr1_2 Sr -0.570835(16) 0.052187(19) 0.096508(9)
Sr1A Sr 0.570835(16) 0.552187(19) 0.403492(9)
Sr1B_2 Sr 0.570835(16) -0.052187(19) -0.096508(9)
Sr1C Sr -0.570835(16) -0.552187(19) -0.403492(9)
Sr2_2 Sr -1.0000 0.0000 0.0000
Sr2_3 Sr 1.0000 0.0000 0.0000
O6A O 0.44395(14) -0.09755(17) 0.21285(8)
O6C O -0.44395(14) 0.09755(17) -0.21285(8)
O7_2 O -0.35647(13) -0.02905(16) 0.05540(8)
O7B_2 O 0.35647(13) 0.02905(16) -0.05540(8)
O8_2 O -0.13708(14) -0.07441(16) 0.08573(8)
O8B_2 O 0.13708(14) 0.07441(16) -0.08573(8)
O10 O 0.57084(19) -0.44984(18) 0.14216(10)
H9 H 0.5243 -0.3784 0.1210
H10 H 0.5785 -0.4366 0.1887
loop_
_geom_bond_atom_site_label_1
_geom_bond_atom_site_label_2
_geom_bond_site_symmetry_1
_geom_bond_site_symmetry_2
Sr1 N2 1_555 1_555
Sr2 N1 1_555 1_555
N1 C2 1_555 1_555
N2 C9 1_555 1_555
C1 C2 1_555 1_555
C2 C3 1_555 1_555
C3 H1 1_555 1_555
C4 C3 1_555 1_555
H2 C4 1_555 1_555
C5 C4 1_555 1_555
H3 C5 1_555 1_555
C6 N1 1_555 1_555
C7 C6 1_555 1_555
C8 C9 1_555 1_555
C9 C10 1_555 1_555
C10 H4 1_555 1_555
C11 C10 1_555 1_555
H5 C11 1_555 1_555
C12 C11 1_555 1_555
H6 C12 1_555 1_555
C13 N2 1_555 1_555
C14 C13 1_555 1_555
O1 Sr1 1_555 1_555
O2 C1 1_555 1_555
O3 C7 1_555 1_555
O4 Sr2 1_555 1_555
O5 Sr1 1_555 1_555
O6 C14 1_555 1_555
O7 Sr1 1_555 1_555
O8 C8 1_555 1_555
O9 Sr1 1_555 1_555
H7 O9 1_555 1_555
H8 O9 1_555 1_555
O10 H9 1_555 1_555
H10 O10 1_555 1_555
Sr1B O3 1_555 1_555
N1B Sr2 1_555 1_555
N2B Sr1B 1_555 1_555
C1B C2B 1_555 1_555
C2B N1B 1_555 1_555
C3B C2B 1_555 1_555
H1B C3B 1_555 1_555
C4B C3B 1_555 1_555
H2B C4B 1_555 1_555
C5B C4B 1_555 1_555
H3B C5B 1_555 1_555
C6B N1B 1_555 1_555
C7B C6B 1_555 1_555
C8B C9B 1_555 1_555
C9B N2B 1_555 1_555
C10B C9B 1_555 1_555
H4B C10B 1_555 1_555
C11B C10B 1_555 1_555
H5B C11B 1_555 1_555
C12B C11B 1_555 1_555
H6B C12B 1_555 1_555
C13B N2B 1_555 1_555
C14B C13B 1_555 1_555
O1B Sr2 1_555 1_555
O2B C1B 1_555 1_555
O3B Sr1 1_555 1_555
O4B Sr1 1_555 1_555
O5B Sr1B 1_555 1_555
O6B C14B 1_555 1_555
O7B Sr1B 1_555 1_555
O8B C8B 1_555 1_555
O9B Sr1B 1_555 1_555
H7B O9B 1_555 1_555
H8B O9B 1_555 1_555
Sr1_2 O7B 1_555 1_555
Sr1A O6 1_555 1_555
Sr1B_2 O7 1_555 1_555
Sr1C O6B 1_555 1_555
Sr2_2 O8B 1_555 1_555
Sr2_3 O8 1_555 1_555
O6A Sr1 1_555 1_555
O6C Sr1B 1_555 1_555
O7_2 Sr1B 1_555 1_555
O7B_2 Sr1 1_555 1_555
O8_2 Sr2 1_555 1_555
O8B_2 Sr2 1_555 1_555
Sr2 O1 1_555 1_555
Sr2 O4B 1_555 1_555
C1 O1 1_555 1_555
C5 C6 1_555 1_555
C7 O4 1_555 1_555
C8 O7 1_555 1_555
C12 C13 1_555 1_555
C14 O5 1_555 1_555
O4 Sr1B 1_555 1_555
Sr1B O1B 1_555 1_555
C1B O1B 1_555 1_555
C5B C6B 1_555 1_555
C7B O3B 1_555 1_555
C7B O4B 1_555 1_555
C8B O7B 1_555 1_555
C12B C13B 1_555 1_555
C14B O5B 1_555 1_555
Sr1_2 O7_2 1_555 1_555
Sr1B_2 O7B_2 1_555 1_555

#END
