
#######################################################################
#
#                 Cambridge Crystallographic Data Centre
#                                CCDC 
#
#######################################################################
#
# If this CIF has been generated from an entry in the Cambridge 
# Structural Database, then it will include bibliographic, chemical, 
# crystal, experimental, refinement or atomic coordinate data resulting 
# from the CCDC's data processing and validation procedures.
#
#######################################################################

data_JOFKUL
_symmetry_cell_setting           triclinic
_symmetry_space_group_name_H-M   'P -1'
_symmetry_Int_Tables_number      2
_space_group_name_Hall           '-P 1'
loop_
_symmetry_equiv_pos_site_id
_symmetry_equiv_pos_as_xyz
1 x,y,z
2 -x,-y,-z
_cell_length_a                   8.9337(3)
_cell_length_b                   9.7284(4)
_cell_length_c                   20.1745(7)
_cell_angle_alpha                92.766(2)
_cell_angle_beta                 95.740(2)
_cell_angle_gamma                113.040(2)
_cell_volume                     1598.09
loop_
_atom_site_label
_atom_site_type_symbol
_atom_site_fract_x
_atom_site_fract_y
_atom_site_fract_z
Cu1 Cu 0.0000 0.0000 0.5000
Cu2 Cu 0.0000 0.0000 0.0000
N1 N -0.0295(5) -0.2092(4) 0.47067(18)
N2 N 0.2215(5) -0.3857(5) 0.32212(19)
H1 H 0.124(4) -0.463(4) 0.303(2)
N3 N 0.3440(5) -0.2785(5) 0.1993(2)
N4 N 0.2078(8) -0.0155(8) 0.0372(2)
O1 O 0.1156(6) 0.1446(6) -0.0599(3)
O3 O 0.0905(7) -0.0404(7) -0.1335(3)
O5 O 0.2340(6) 0.5138(7) -0.0551(2)
H6 H 0.188(9) 0.408(8) -0.029(3)
O6 O 0.4240(5) 0.4154(6) -0.04946(19)
O7 O 0.1396(4) 0.0663(3) 0.42864(15)
O8 O 0.0110(4) 0.1683(4) 0.35859(16)
O9 O 0.4725(4) 0.0156(4) 0.44099(16)
O10 O 0.4865(4) 0.2433(4) 0.47511(17)
O11 O -0.2362(4) -0.0381(4) 0.41919(18)
H7 H -0.182(5) 0.029(5) 0.392(2)
H8 H -0.325(4) -0.025(6) 0.425(3)
C1 C -0.1748(6) -0.3264(6) 0.4675(2)
H9 H -0.2639 -0.3104 0.4833
C2 C -0.1995(6) -0.4682(6) 0.4423(2)
H10 H -0.3041 -0.5482 0.4406
C3 C -0.0716(6) -0.4937(6) 0.4194(2)
H11 H -0.0867 -0.5915 0.4022
C4 C 0.0807(6) -0.3738(6) 0.4218(2)
C5 C 0.0949(6) -0.2355(5) 0.4490(2)
H12 H 0.1991 -0.1540 0.4526
C6 C 0.2198(6) -0.2450(6) 0.2977(2)
H13 H 0.3217 -0.1592 0.3170
H14 H 0.1256 -0.2276 0.3123
C7 C 0.2065(6) -0.2549(7) 0.2223(2)
H15 H 0.1029 -0.3389 0.2031
H16 H 0.2038 -0.1610 0.2065
C8 C 0.3620(6) -0.4114(6) 0.2983(2)
H17 H 0.3631 -0.5065 0.3132
H18 H 0.4665 -0.3287 0.3176
C9 C 0.3456(6) -0.4189(7) 0.2228(2)
H19 H 0.4384 -0.4367 0.2069
H20 H 0.2427 -0.5039 0.2037
C10 C 0.3439(8) -0.1515(8) 0.0966(3)
C11 C 0.2075(8) -0.1392(9) 0.0640(3)
H21 H 0.1062 -0.2241 0.0603
C12 C 0.4910(9) -0.0268(9) 0.1016(3)
H22 H 0.5875 -0.0294 0.1249
C13 C 0.4981(9) 0.1007(9) 0.0729(3)
H23 H 0.5989 0.1857 0.0750
C14 C 0.3529(11) 0.1014(10) 0.0406(3)
H24 H 0.3569 0.1886 0.0202
C15 C 0.3303(7) -0.2938(7) 0.1247(2)
H25 H 0.4183 -0.3225 0.1109
H26 H 0.2235 -0.3747 0.1064
C16 C 0.2250(6) -0.3916(6) 0.3964(2)
H27 H 0.3273 -0.3109 0.4190
H28 H 0.2263 -0.4888 0.4081
C17 C 0.4119(6) 0.1558(5) 0.3587(2)
C18 C 0.5291(6) 0.1710(6) 0.3156(2)
H29 H 0.6324 0.1717 0.3327
C19 C 0.4973(7) 0.1850(6) 0.2488(2)
H30 H 0.5772 0.1929 0.2199
C20 C 0.3492(7) 0.1876(6) 0.2239(3)
H31 H 0.3282 0.1987 0.1778
C21 C 0.2313(6) 0.1743(5) 0.2651(2)
H32 H 0.1296 0.1765 0.2476
C22 C 0.2627(6) 0.1574(5) 0.3336(2)
C23 C 0.4571(6) 0.1404(7) 0.4312(2)
C24 C 0.1263(6) 0.1310(6) 0.3765(2)
C25 C 0.1822(6) 0.2045(7) -0.1671(3)
C26 C 0.1625(6) 0.1543(6) -0.2341(3)
H33 H 0.1246 0.0498 -0.2470
C27 C 0.1976(6) 0.2550(7) -0.2827(3)
H34 H 0.1874 0.2198 -0.3284
C28 C 0.2470(6) 0.4050(7) -0.2645(3)
H35 H 0.2643 0.4734 -0.2979
C29 C 0.2713(6) 0.4564(7) -0.1985(3)
H36 H 0.3084 0.5611 -0.1864
C30 C 0.2428(6) 0.3589(7) -0.1487(2)
C31 C 0.1262(7) 0.0895(9) -0.1174(4)
C32 C 0.2994(9) 0.4327(9) -0.0784(3)
Cu2_2 Cu 0.0000 0.0000 1.0000
N1A N 0.0295(5) 0.2092(4) 0.52933(18)
N2A N -0.2215(5) 0.3857(5) 0.67788(19)
H1A H -0.124(4) 0.463(4) 0.697(2)
N3A N -0.3440(5) 0.2785(5) 0.8007(2)
N4A N -0.2078(8) 0.0155(8) 0.9628(2)
N4A_2 N -0.2078(8) 0.0155(8) -0.0372(2)
O1A O -0.1156(6) -0.1446(6) 0.0599(3)
O3A O -0.0905(7) 0.0404(7) 0.1335(3)
O5A O -0.2340(6) -0.5138(7) 0.0551(2)
H6A H -0.188(9) -0.408(8) 0.029(3)
O6A O -0.4240(5) -0.4154(6) 0.04946(19)
O7A O -0.1396(4) -0.0663(3) 0.57136(15)
O8A O -0.0110(4) -0.1683(4) 0.64141(16)
O9A O -0.4725(4) -0.0156(4) 0.55901(16)
O10A O -0.4865(4) -0.2433(4) 0.52489(17)
O11A O 0.2362(4) 0.0381(4) 0.58081(18)
H7A H 0.182(5) -0.029(5) 0.608(2)
H8A H 0.325(4) 0.025(6) 0.575(3)
C1A C 0.1748(6) 0.3264(6) 0.5325(2)
H9A H 0.2639 0.3104 0.5167
C2A C 0.1995(6) 0.4682(6) 0.5577(2)
H10A H 0.3041 0.5482 0.5594
C3A C 0.0716(6) 0.4937(6) 0.5806(2)
H11A H 0.0867 0.5915 0.5978
C4A C -0.0807(6) 0.3738(6) 0.5782(2)
C5A C -0.0949(6) 0.2355(5) 0.5510(2)
H12A H -0.1991 0.1540 0.5474
C6A C -0.2198(6) 0.2450(6) 0.7023(2)
H13A H -0.3217 0.1592 0.6830
H14A H -0.1256 0.2276 0.6877
C7A C -0.2065(6) 0.2549(7) 0.7777(2)
H15A H -0.1029 0.3389 0.7969
H16A H -0.2038 0.1610 0.7935
C8A C -0.3620(6) 0.4114(6) 0.7017(2)
H17A H -0.3631 0.5065 0.6868
H18A H -0.4665 0.3287 0.6824
C9A C -0.3456(6) 0.4189(7) 0.7772(2)
H19A H -0.4384 0.4367 0.7931
H20A H -0.2427 0.5039 0.7963
C10A C -0.3439(8) 0.1515(8) 0.9034(3)
C11A C -0.2075(8) 0.1392(9) 0.9360(3)
H21A H -0.1062 0.2241 0.9397
C12A C -0.4910(9) 0.0268(9) 0.8984(3)
H22A H -0.5875 0.0294 0.8751
C13A C -0.4981(9) -0.1007(9) 0.9271(3)
H23A H -0.5989 -0.1857 0.9250
C14A C -0.3529(11) -0.1014(10) 0.9594(3)
H24A H -0.3569 -0.1886 0.9798
C15A C -0.3303(7) 0.2938(7) 0.8753(2)
H25A H -0.4183 0.3225 0.8891
H26A H -0.2235 0.3747 0.8936
C16A C -0.2250(6) 0.3916(6) 0.6036(2)
H27A H -0.3273 0.3109 0.5810
H28A H -0.2263 0.4888 0.5919
C17A C -0.4119(6) -0.1558(5) 0.6413(2)
C18A C -0.5291(6) -0.1710(6) 0.6844(2)
H29A H -0.6324 -0.1717 0.6673
C19A C -0.4973(7) -0.1850(6) 0.7512(2)
H30A H -0.5772 -0.1929 0.7801
C20A C -0.3492(7) -0.1876(6) 0.7761(3)
H31A H -0.3282 -0.1987 0.8222
C21A C -0.2313(6) -0.1743(5) 0.7349(2)
H32A H -0.1296 -0.1765 0.7524
C22A C -0.2627(6) -0.1574(5) 0.6664(2)
C23A C -0.4571(6) -0.1404(7) 0.5688(2)
C24A C -0.1263(6) -0.1310(6) 0.6235(2)
C25A C -0.1822(6) -0.2045(7) 0.1671(3)
C26A C -0.1625(6) -0.1543(6) 0.2341(3)
H33A H -0.1246 -0.0498 0.2470
C27A C -0.1976(6) -0.2550(7) 0.2827(3)
H34A H -0.1874 -0.2198 0.3284
C28A C -0.2470(6) -0.4050(7) 0.2645(3)
H35A H -0.2643 -0.4734 0.2979
C29A C -0.2713(6) -0.4564(7) 0.1985(3)
H36A H -0.3084 -0.5611 0.1864
C30A C -0.2428(6) -0.3589(7) 0.1487(2)
C31A C -0.1262(7) -0.0895(9) 0.1174(4)
C32A C -0.2994(9) -0.4327(9) 0.0784(3)
O2 O -0.0488(4) -0.6369(4) 0.27523(17)
H2 H -0.037(7) -0.717(4) 0.289(2)
H3 H -0.061(6) -0.656(5) 0.2308(10)
O4 O 0.0760(6) -0.3329(6) -0.1394(2)
H4 H 0.145(7) -0.351(7) -0.111(3)
H5 H 0.103(8) -0.234(3) -0.137(3)
O12 O 0.1515(15) 0.2954(14) 0.0718(6)
O13? O 0.014(3) -0.417(3) -0.0401(12)
loop_
_geom_bond_atom_site_label_1
_geom_bond_atom_site_label_2
_geom_bond_site_symmetry_1
_geom_bond_site_symmetry_2
Cu1 N1 1_555 1_555
Cu2 N4 1_555 1_555
N1 C1 1_555 1_555
N2 H1 1_555 1_555
N3 C7 1_555 1_555
N4 C11 1_555 1_555
O1 Cu2 1_555 1_555
O2 H2 1_555 1_555
H3 O2 1_555 1_555
O3 C31 1_555 1_555
O4 H4 1_555 1_555
H5 O4 1_555 1_555
O5 H6 1_555 1_555
O6 C32 1_555 1_555
O7 Cu1 1_555 1_555
O8 C24 1_555 1_555
O9 C23 1_555 1_555
O10 C23 1_555 1_555
O11 Cu1 1_555 1_555
H7 O11 1_555 1_555
H8 O11 1_555 1_555
C1 H9 1_555 1_555
C2 C1 1_555 1_555
H10 C2 1_555 1_555
C3 C2 1_555 1_555
H11 C3 1_555 1_555
C4 C3 1_555 1_555
C5 N1 1_555 1_555
H12 C5 1_555 1_555
C6 N2 1_555 1_555
H13 C6 1_555 1_555
H14 C6 1_555 1_555
C7 C6 1_555 1_555
H15 C7 1_555 1_555
H16 C7 1_555 1_555
C8 N2 1_555 1_555
H17 C8 1_555 1_555
H18 C8 1_555 1_555
C9 N3 1_555 1_555
H19 C9 1_555 1_555
H20 C9 1_555 1_555
C10 C11 1_555 1_555
C11 H21 1_555 1_555
C12 C10 1_555 1_555
H22 C12 1_555 1_555
C13 C12 1_555 1_555
H23 C13 1_555 1_555
C14 N4 1_555 1_555
H24 C14 1_555 1_555
C15 N3 1_555 1_555
H25 C15 1_555 1_555
H26 C15 1_555 1_555
C16 N2 1_555 1_555
H27 C16 1_555 1_555
H28 C16 1_555 1_555
C17 C18 1_555 1_555
C18 H29 1_555 1_555
C19 C18 1_555 1_555
H30 C19 1_555 1_555
C20 C19 1_555 1_555
H31 C20 1_555 1_555
C21 C20 1_555 1_555
H32 C21 1_555 1_555
C22 C17 1_555 1_555
C23 C17 1_555 1_555
C24 O7 1_555 1_555
C25 C26 1_555 1_555
C26 H33 1_555 1_555
C27 C26 1_555 1_555
H34 C27 1_555 1_555
C28 C27 1_555 1_555
H35 C28 1_555 1_555
C29 C28 1_555 1_555
H36 C29 1_555 1_555
C30 C25 1_555 1_555
C31 O1 1_555 1_555
C32 O5 1_555 1_555
Cu2_2 N4A 1_555 1_555
N1A Cu1 1_555 1_555
N2A H1A 1_555 1_555
N3A C7A 1_555 1_555
N4A C11A 1_555 1_555
N4A_2 Cu2 1_555 1_555
O1A Cu2 1_555 1_555
O3A C31A 1_555 1_555
O5A H6A 1_555 1_555
O6A C32A 1_555 1_555
O7A Cu1 1_555 1_555
O8A C24A 1_555 1_555
O9A C23A 1_555 1_555
O10A C23A 1_555 1_555
O11A Cu1 1_555 1_555
H7A O11A 1_555 1_555
H8A O11A 1_555 1_555
C1A N1A 1_555 1_555
H9A C1A 1_555 1_555
C2A C1A 1_555 1_555
H10A C2A 1_555 1_555
C3A C2A 1_555 1_555
H11A C3A 1_555 1_555
C4A C3A 1_555 1_555
C5A N1A 1_555 1_555
H12A C5A 1_555 1_555
C6A N2A 1_555 1_555
H13A C6A 1_555 1_555
H14A C6A 1_555 1_555
C7A C6A 1_555 1_555
H15A C7A 1_555 1_555
H16A C7A 1_555 1_555
C8A N2A 1_555 1_555
H17A C8A 1_555 1_555
H18A C8A 1_555 1_555
C9A N3A 1_555 1_555
H19A C9A 1_555 1_555
H20A C9A 1_555 1_555
C10A C11A 1_555 1_555
C11A H21A 1_555 1_555
C12A C10A 1_555 1_555
H22A C12A 1_555 1_555
C13A C12A 1_555 1_555
H23A C13A 1_555 1_555
C14A N4A 1_555 1_555
H24A C14A 1_555 1_555
C15A N3A 1_555 1_555
H25A C15A 1_555 1_555
H26A C15A 1_555 1_555
C16A N2A 1_555 1_555
H27A C16A 1_555 1_555
H28A C16A 1_555 1_555
C17A C18A 1_555 1_555
C18A H29A 1_555 1_555
C19A C18A 1_555 1_555
H30A C19A 1_555 1_555
C20A C19A 1_555 1_555
H31A C20A 1_555 1_555
C21A C20A 1_555 1_555
H32A C21A 1_555 1_555
C22A C17A 1_555 1_555
C23A C17A 1_555 1_555
C24A O7A 1_555 1_555
C25A C26A 1_555 1_555
C26A H33A 1_555 1_555
C27A C26A 1_555 1_555
H34A C27A 1_555 1_555
C28A C27A 1_555 1_555
H35A C28A 1_555 1_555
C29A C28A 1_555 1_555
H36A C29A 1_555 1_555
C30A C25A 1_555 1_555
C31A O1A 1_555 1_555
C32A O5A 1_555 1_555
C4 C5 1_555 1_555
C4 C16 1_555 1_555
C8 C9 1_555 1_555
C10 C15 1_555 1_555
C13 C14 1_555 1_555
C21 C22 1_555 1_555
C22 C24 1_555 1_555
C25 C31 1_555 1_555
C29 C30 1_555 1_555
C30 C32 1_555 1_555
C4A C5A 1_555 1_555
C4A C16A 1_555 1_555
C8A C9A 1_555 1_555
C10A C15A 1_555 1_555
C13A C14A 1_555 1_555
C21A C22A 1_555 1_555
C22A C24A 1_555 1_555
C25A C31A 1_555 1_555
C29A C30A 1_555 1_555
C30A C32A 1_555 1_555

#END
