
#######################################################################
#
#                 Cambridge Crystallographic Data Centre
#                                CCDC 
#
#######################################################################
#
# If this CIF has been generated from an entry in the Cambridge 
# Structural Database, then it will include bibliographic, chemical, 
# crystal, experimental, refinement or atomic coordinate data resulting 
# from the CCDC's data processing and validation procedures.
#
#######################################################################

data_JOFKOF
_symmetry_cell_setting           triclinic
_symmetry_space_group_name_H-M   'P -1'
_symmetry_Int_Tables_number      2
_space_group_name_Hall           '-P 1'
loop_
_symmetry_equiv_pos_site_id
_symmetry_equiv_pos_as_xyz
1 x,y,z
2 -x,-y,-z
_cell_length_a                   9.058(3)
_cell_length_b                   10.253(3)
_cell_length_c                   14.243(4)
_cell_angle_alpha                106.268(5)
_cell_angle_beta                 101.111(5)
_cell_angle_gamma                97.901(5)
_cell_volume                     1220
loop_
_atom_site_label
_atom_site_type_symbol
_atom_site_fract_x
_atom_site_fract_y
_atom_site_fract_z
Cu1 Cu 0.52249(3) 0.59995(2) 0.752904(18)
O1 O 0.37859(19) 0.66615(14) 0.61443(11)
O3 O 0.51702(16) 0.80302(13) 0.76310(10)
O5 O 0.49253(17) 1.39618(14) 0.69381(11)
O6 O 0.5523(2) 1.32586(15) 0.82853(11)
O7 O 0.6860(2) 0.60642(17) 0.90399(12)
H5 H 0.678(3) 0.658(2) 0.9599(15)
H6 H 0.661(3) 0.5274(18) 0.900(2)
N1 N 0.70958(19) 0.62657(16) 0.69912(13)
N2 N 1.07086(19) 1.01710(17) 0.78455(13)
N3 N 0.93762(19) 1.22386(17) 0.72187(14)
N4 N 1.33390(19) 1.58529(17) 0.80613(13)
C1 C 0.8315(2) 0.7258(2) 0.75684(16)
H7 H 0.8287 0.7742 0.8237
C2 C 0.9605(2) 0.7612(2) 0.72420(16)
C3 C 0.9635(3) 0.6873(2) 0.62630(18)
H8 H 1.0509 0.7069 0.6011
C4 C 0.8383(3) 0.5852(2) 0.56632(17)
H9 H 0.8383 0.5345 0.4993
C5 C 0.7131(2) 0.5577(2) 0.60489(16)
H10 H 0.6269 0.4878 0.5634
C6 C 1.0896(2) 0.8798(2) 0.79220(17)
H11 H 1.0975 0.8820 0.8629
H12 H 1.1875 0.8615 0.7755
C7 C 1.0585(2) 1.0236(2) 0.68212(16)
H13 H 0.9610 0.9637 0.6372
H14 H 1.1445 0.9894 0.6562
C8 C 1.0629(2) 1.1715(2) 0.68275(16)
H15 H 1.1625 1.2304 0.7253
H16 H 1.0537 1.1759 0.6134
C9 C 0.9413(3) 1.2121(2) 0.82167(17)
H17 H 0.8514 1.2429 0.8442
H18 H 1.0355 1.2732 0.8701
C10 C 0.9389(3) 1.0634(2) 0.82032(18)
H19 H 0.9444 1.0572 0.8890
H20 H 0.8419 1.0028 0.7751
C11 C 0.9322(2) 1.3649(2) 0.71834(19)
H21 H 0.8398 1.3913 0.7396
H22 H 0.9203 1.3640 0.6476
C12 C 1.2046(2) 1.4943(2) 0.75051(15)
H23 H 1.2042 1.4396 0.6845
C13 C 1.0716(2) 1.4753(2) 0.78354(17)
C14 C 1.0733(3) 1.5584(2) 0.87945(18)
H24 H 0.9848 1.5495 0.9055
C15 C 1.2054(3) 1.6543(3) 0.93656(18)
H25 H 1.2082 1.7122 1.0022
C16 C 1.3323(3) 1.6653(2) 0.89793(17)
H26 H 1.4222 1.7320 0.9376
C17 C 0.4480(2) 1.15546(19) 0.66798(15)
C18 C 0.4724(2) 1.04446(18) 0.70366(14)
H27 H 0.5267 1.0617 0.7714
C19 C 0.4172(2) 0.90819(18) 0.63984(14)
C20 C 0.3392(2) 0.8844(2) 0.54067(15)
H28 H 0.3015 0.7919 0.4970
C21 C 0.3158(2) 0.9938(2) 0.50480(15)
H29 H 0.2626 0.9763 0.4368
C22 C 0.3700(2) 1.1288(2) 0.56818(15)
H30 H 0.3540 1.2039 0.5434
C23 C 0.5030(2) 1.30361(19) 0.73689(15)
C24 C 0.4384(2) 0.78415(19) 0.67419(15)
Cu1_2 Cu 0.52249(3) 1.59995(2) 0.752904(18)
Cu1_3 Cu 1.52249(3) 1.59995(2) 0.752904(18)
O5_2 O 0.49253(17) 0.39618(14) 0.69381(11)
N4_2 N 0.33390(19) 0.58529(17) 0.80613(13)
O2 O 0.6580(2) 0.7985(2) 1.07850(13)
H1 H 0.734(2) 0.850(3) 1.1224(18)
H2 H 0.598(3) 0.767(3) 1.109(2)
O4 O 1.3251(4) 1.0030(3) 1.04383(19)
H3 H 1.348(5) 1.061(4) 1.004(3)
H4 H 1.385(4) 1.047(4) 1.1005(18)
loop_
_geom_bond_atom_site_label_1
_geom_bond_atom_site_label_2
_geom_bond_site_symmetry_1
_geom_bond_site_symmetry_2
Cu1 O1 1_555 1_555
O1 C24 1_555 1_555
O2 H1 1_555 1_555
H2 O2 1_555 1_555
O3 Cu1 1_555 1_555
O4 H3 1_555 1_555
H4 O4 1_555 1_555
O5 C23 1_555 1_555
O6 C23 1_555 1_555
O7 Cu1 1_555 1_555
H5 O7 1_555 1_555
H6 O7 1_555 1_555
N1 Cu1 1_555 1_555
N2 C6 1_555 1_555
N3 C8 1_555 1_555
N4 C12 1_555 1_555
C1 N1 1_555 1_555
H7 C1 1_555 1_555
C2 C1 1_555 1_555
C3 C2 1_555 1_555
H8 C3 1_555 1_555
C4 C3 1_555 1_555
H9 C4 1_555 1_555
C5 N1 1_555 1_555
H10 C5 1_555 1_555
C6 C2 1_555 1_555
H11 C6 1_555 1_555
H12 C6 1_555 1_555
C7 N2 1_555 1_555
H13 C7 1_555 1_555
H14 C7 1_555 1_555
C8 C7 1_555 1_555
H15 C8 1_555 1_555
H16 C8 1_555 1_555
C9 N3 1_555 1_555
H17 C9 1_555 1_555
H18 C9 1_555 1_555
C10 N2 1_555 1_555
H19 C10 1_555 1_555
H20 C10 1_555 1_555
C11 N3 1_555 1_555
H21 C11 1_555 1_555
H22 C11 1_555 1_555
C12 H23 1_555 1_555
C13 C11 1_555 1_555
C14 C13 1_555 1_555
H24 C14 1_555 1_555
C15 C14 1_555 1_555
H25 C15 1_555 1_555
C16 N4 1_555 1_555
H26 C16 1_555 1_555
C17 C18 1_555 1_555
C18 H27 1_555 1_555
C19 C18 1_555 1_555
C20 C19 1_555 1_555
H28 C20 1_555 1_555
C21 C20 1_555 1_555
H29 C21 1_555 1_555
C22 C17 1_555 1_555
H30 C22 1_555 1_555
C23 C17 1_555 1_555
C24 O3 1_555 1_555
Cu1_2 O5 1_555 1_555
Cu1_3 N4 1_555 1_555
O5_2 Cu1 1_555 1_555
N4_2 Cu1 1_555 1_555
C4 C5 1_555 1_555
C9 C10 1_555 1_555
C12 C13 1_555 1_555
C15 C16 1_555 1_555
C19 C24 1_555 1_555
C21 C22 1_555 1_555

#END
