
#######################################################################
#
#                 Cambridge Crystallographic Data Centre
#                                CCDC 
#
#######################################################################
#
# If this CIF has been generated from an entry in the Cambridge 
# Structural Database, then it will include bibliographic, chemical, 
# crystal, experimental, refinement or atomic coordinate data resulting 
# from the CCDC's data processing and validation procedures.
#
#######################################################################

data_JOFMOI
_symmetry_cell_setting           monoclinic
_symmetry_space_group_name_H-M   'C 2/c'
_symmetry_Int_Tables_number      15
_space_group_name_Hall           '-C 2yn'
loop_
_symmetry_equiv_pos_site_id
_symmetry_equiv_pos_as_xyz
1 x,y,z
2 -x,y,1/2-z
3 1/2+x,1/2+y,z
4 1/2-x,1/2+y,1/2-z
5 -x,-y,-z
6 x,-y,1/2+z
7 1/2-x,1/2-y,-z
8 1/2+x,1/2-y,1/2+z
_cell_length_a                   22.952(5)
_cell_length_b                   14.716(3)
_cell_length_c                   18.688(4)
_cell_angle_alpha                90
_cell_angle_beta                 117.195(4)
_cell_angle_gamma                90
_cell_volume                     5614.33
loop_
_atom_site_label
_atom_site_type_symbol
_atom_site_fract_x
_atom_site_fract_y
_atom_site_fract_z
C1 C 0.2322(3) 0.5345(4) 0.3748(4)
H1 H 0.1989 0.5335 0.3901
C2 C 0.2559(4) 0.6177(4) 0.3654(4)
H2 H 0.2399 0.6711 0.3765
C3 C 0.3030(4) 0.6208(5) 0.3398(4)
H3 H 0.3182 0.6765 0.3315
C4 C 0.3279(3) 0.5406(4) 0.3264(4)
C5 C 0.3027(3) 0.4590(4) 0.3391(3)
C6 C 0.3278(3) 0.3744(4) 0.3276(3)
C7 C 0.3769(3) 0.3722(5) 0.3029(3)
C8 C 0.4007(3) 0.4578(6) 0.2892(4)
H4 H 0.4332 0.4576 0.2725
C9 C 0.3776(4) 0.5375(6) 0.2998(4)
H5 H 0.3939 0.5914 0.2899
C10 C 0.3998(3) 0.2886(6) 0.2927(4)
H6 H 0.4317 0.2855 0.2752
C11 C 0.3751(3) 0.2100(5) 0.3084(4)
H7 H 0.3903 0.1533 0.3024
C12 C 0.3265(3) 0.2174(4) 0.3337(3)
H8 H 0.3098 0.1644 0.3446
C13 C 0.1088(3) 0.3617(4) 0.2262(3)
C14 C 0.0882(2) 0.3824(3) 0.1381(3)
C15 C 0.1157(3) 0.4592(3) 0.1229(3)
H9 H 0.1449 0.4937 0.1662
C16 C 0.1014(3) 0.4864(3) 0.0462(3)
H10 H 0.1201 0.5387 0.0376
C17 C 0.0580(2) 0.4336(3) -0.0187(3)
C18 C 0.0302(2) 0.3578(3) -0.0036(3)
H11 H 0.0005 0.3241 -0.0470
C19 C 0.0449(2) 0.3292(3) 0.0742(3)
C20 C 0.0389(2) 0.4650(3) -0.1024(3)
C21 C 0.0108(2) 0.2462(3) 0.0826(3)
C22 C -0.0132(3) 0.2397(3) 0.1390(3)
H12 H -0.0039 0.2862 0.1764
C23 C -0.0498(3) 0.1679(3) 0.1412(3)
H13 H -0.0645 0.1665 0.1801
C24 C -0.0659(2) 0.0962(3) 0.0863(3)
C25 C -0.0393(3) 0.0992(4) 0.0327(3)
H14 H -0.0468 0.0510 -0.0027
C26 C -0.0019(3) 0.1722(3) 0.0307(3)
H15 H 0.0151 0.1720 -0.0059
C27 C -0.1118(3) 0.0242(3) 0.0838(3)
C28 C -0.0933(3) -0.0679(3) 0.0920(3)
H16 H -0.0519 -0.0838 0.0986
C29 C -0.1363(3) -0.1354(3) 0.0904(3)
C30 C -0.1984(3) -0.1129(4) 0.0797(3)
H17 H -0.2277 -0.1583 0.0764
C31 C -0.2162(3) -0.0227(4) 0.0739(3)
H18 H -0.2570 -0.0072 0.0696
C32 C -0.1742(3) 0.0453(3) 0.0746(3)
C33 C -0.1963(2) 0.1425(4) 0.0632(3)
C34 C -0.1160(3) -0.2325(4) 0.1018(4)
Mn1 Mn 0.22937(4) 0.31688(5) 0.38160(4)
Mn2 Mn 0.0000 0.47929(7) 0.2500
N1 N 0.2549(2) 0.4560(3) 0.3629(3)
N2 N 0.3030(2) 0.2969(3) 0.3430(3)
O1 O 0.08272(18) 0.4053(2) 0.2617(2)
O2 O 0.15638(19) 0.3091(3) 0.2597(2)
O3 O 0.05219(18) 0.5429(2) -0.1154(2)
O4 O 0.00800(18) 0.4108(2) -0.1617(2)
O5 O -0.0513(2) -0.2418(2) 0.1379(3)
H19 H -0.0419 -0.2954 0.1367
O6 O -0.1531(2) -0.2963(3) 0.0820(3)
O7 O -0.19413(17) 0.1859(2) 0.0047(2)
O8 O -0.21396(18) 0.1763(2) 0.1117(2)
O9 O 0.1694(2) 0.3596(3) 0.4353(3)
H20 H 0.172(4) 0.319(5) 0.460(5)
H21 H 0.127(5) 0.389(6) 0.405(6)
C1A C -0.2322(3) 0.5345(4) 0.1252(4)
H1A H -0.1989 0.5335 0.1099
C2A C -0.2559(4) 0.6177(4) 0.1346(4)
H2A H -0.2399 0.6711 0.1235
C3A C -0.3030(4) 0.6208(5) 0.1602(4)
H3A H -0.3182 0.6765 0.1685
C4A C -0.3279(3) 0.5406(4) 0.1736(4)
C5A C -0.3027(3) 0.4590(4) 0.1609(3)
C6A C -0.3278(3) 0.3744(4) 0.1724(3)
C7A C -0.3769(3) 0.3722(5) 0.1971(3)
C8A C -0.4007(3) 0.4578(6) 0.2108(4)
H4A H -0.4332 0.4576 0.2275
C9A C -0.3776(4) 0.5375(6) 0.2002(4)
H5A H -0.3939 0.5914 0.2101
C10A C -0.3998(3) 0.2886(6) 0.2073(4)
H6A H -0.4317 0.2855 0.2248
C11A C -0.3751(3) 0.2100(5) 0.1916(4)
H7A H -0.3903 0.1533 0.1976
C12A C -0.3265(3) 0.2174(4) 0.1663(3)
H8A H -0.3098 0.1644 0.1554
C13A C -0.1088(3) 0.3617(4) 0.2738(3)
C14A C -0.0882(2) 0.3824(3) 0.3619(3)
C15A C -0.1157(3) 0.4592(3) 0.3771(3)
H9A H -0.1449 0.4937 0.3338
C16A C -0.1014(3) 0.4864(3) 0.4538(3)
H10A H -0.1201 0.5387 0.4624
C17A C -0.0580(2) 0.4336(3) 0.5187(3)
C18A C -0.0302(2) 0.3578(3) 0.5036(3)
H11A H -0.0005 0.3241 0.5470
C19A C -0.0449(2) 0.3292(3) 0.4258(3)
C20A C -0.0389(2) 0.4650(3) 0.6024(3)
C21A C -0.0108(2) 0.2462(3) 0.4174(3)
C22A C 0.0132(3) 0.2397(3) 0.3610(3)
H12A H 0.0039 0.2862 0.3236
C23A C 0.0498(3) 0.1679(3) 0.3588(3)
H13A H 0.0645 0.1665 0.3199
C24A C 0.0659(2) 0.0962(3) 0.4137(3)
C25A C 0.0393(3) 0.0992(4) 0.4673(3)
H14A H 0.0468 0.0510 0.5027
C26A C 0.0019(3) 0.1722(3) 0.4693(3)
H15A H -0.0151 0.1720 0.5059
C27A C 0.1118(3) 0.0242(3) 0.4162(3)
C28A C 0.0933(3) -0.0679(3) 0.4080(3)
H16A H 0.0519 -0.0838 0.4014
C29A C 0.1363(3) -0.1354(3) 0.4096(3)
C30A C 0.1984(3) -0.1129(4) 0.4203(3)
H17A H 0.2277 -0.1583 0.4236
C31A C 0.2162(3) -0.0227(4) 0.4261(3)
H18A H 0.2570 -0.0072 0.4304
C32A C 0.1742(3) 0.0453(3) 0.4254(3)
C33A C 0.1963(2) 0.1425(4) 0.4368(3)
C34A C 0.1160(3) -0.2325(4) 0.3982(4)
Mn1A Mn -0.22937(4) 0.31688(5) 0.11840(4)
N1A N -0.2549(2) 0.4560(3) 0.1371(3)
N2A N -0.3030(2) 0.2969(3) 0.1570(3)
O1A O -0.08272(18) 0.4053(2) 0.2383(2)
O2A O -0.15638(19) 0.3091(3) 0.2403(2)
O3A O -0.05219(18) 0.5429(2) 0.6154(2)
O4A O -0.00800(18) 0.4108(2) 0.6617(2)
O5A O 0.0513(2) -0.2418(2) 0.3621(3)
H19A H 0.0419 -0.2954 0.3633
O6A O 0.1531(2) -0.2963(3) 0.4180(3)
O7A O 0.19413(17) 0.1859(2) 0.4953(2)
O8A O 0.21396(18) 0.1763(2) 0.3883(2)
O9A O -0.1694(2) 0.3596(3) 0.0647(3)
H20A H -0.172(4) 0.319(5) 0.040(5)
H21A H -0.127(5) 0.389(6) 0.095(6)
Mn1F Mn 0.27063(4) 0.18312(5) 0.61840(4)
Mn1G Mn -0.27063(4) 0.18312(5) -0.11840(4)
Mn2D Mn 0.0000 0.52071(7) -0.2500
Mn2D_2 Mn 0.0000 0.52071(7) 0.7500
O3D O -0.05219(18) 0.4571(2) 0.1154(2)
O3E O 0.05219(18) 0.4571(2) 0.3846(2)
O4D O -0.00800(18) 0.5892(2) 0.1617(2)
O4E O 0.00800(18) 0.5892(2) 0.3383(2)
O7F O -0.30587(17) 0.3141(2) -0.0047(2)
O7G O 0.30587(17) 0.3141(2) 0.5047(2)
loop_
_geom_bond_atom_site_label_1
_geom_bond_atom_site_label_2
_geom_bond_site_symmetry_1
_geom_bond_site_symmetry_2
C1 H1 1_555 1_555
C2 C1 1_555 1_555
H2 C2 1_555 1_555
C3 C2 1_555 1_555
H3 C3 1_555 1_555
C4 C3 1_555 1_555
C5 C4 1_555 1_555
C6 C5 1_555 1_555
C7 C6 1_555 1_555
C8 C7 1_555 1_555
H4 C8 1_555 1_555
C9 C4 1_555 1_555
H5 C9 1_555 1_555
C10 C7 1_555 1_555
H6 C10 1_555 1_555
C11 C10 1_555 1_555
H7 C11 1_555 1_555
C12 C11 1_555 1_555
H8 C12 1_555 1_555
C13 C14 1_555 1_555
C14 C15 1_555 1_555
C15 H9 1_555 1_555
C16 C15 1_555 1_555
H10 C16 1_555 1_555
C17 C16 1_555 1_555
C18 C17 1_555 1_555
H11 C18 1_555 1_555
C19 C14 1_555 1_555
C20 C17 1_555 1_555
C21 C19 1_555 1_555
C22 C21 1_555 1_555
H12 C22 1_555 1_555
C23 C22 1_555 1_555
H13 C23 1_555 1_555
C24 C23 1_555 1_555
C25 C24 1_555 1_555
H14 C25 1_555 1_555
C26 C21 1_555 1_555
H15 C26 1_555 1_555
C27 C24 1_555 1_555
C28 C27 1_555 1_555
H16 C28 1_555 1_555
C29 C28 1_555 1_555
C30 C29 1_555 1_555
H17 C30 1_555 1_555
C31 C30 1_555 1_555
H18 C31 1_555 1_555
C32 C27 1_555 1_555
C33 C32 1_555 1_555
C34 C29 1_555 1_555
Mn1 N1 1_555 1_555
Mn2 O1 1_555 1_555
N1 C1 1_555 1_555
N2 C6 1_555 1_555
O1 C13 1_555 1_555
O2 C13 1_555 1_555
O3 C20 1_555 1_555
O4 C20 1_555 1_555
O5 C34 1_555 1_555
H19 O5 1_555 1_555
O6 C34 1_555 1_555
O7 C33 1_555 1_555
O8 C33 1_555 1_555
O9 Mn1 1_555 1_555
H20 O9 1_555 1_555
H21 O9 1_555 1_555
C1A H1A 1_555 1_555
C2A C1A 1_555 1_555
H2A C2A 1_555 1_555
C3A C2A 1_555 1_555
H3A C3A 1_555 1_555
C4A C3A 1_555 1_555
C5A C4A 1_555 1_555
C6A C5A 1_555 1_555
C7A C6A 1_555 1_555
C8A C7A 1_555 1_555
H4A C8A 1_555 1_555
C9A C4A 1_555 1_555
H5A C9A 1_555 1_555
C10A C7A 1_555 1_555
H6A C10A 1_555 1_555
C11A C10A 1_555 1_555
H7A C11A 1_555 1_555
C12A C11A 1_555 1_555
H8A C12A 1_555 1_555
C13A C14A 1_555 1_555
C14A C15A 1_555 1_555
C15A H9A 1_555 1_555
C16A C15A 1_555 1_555
H10A C16A 1_555 1_555
C17A C16A 1_555 1_555
C18A C17A 1_555 1_555
H11A C18A 1_555 1_555
C19A C14A 1_555 1_555
C20A C17A 1_555 1_555
C21A C19A 1_555 1_555
C22A C21A 1_555 1_555
H12A C22A 1_555 1_555
C23A C22A 1_555 1_555
H13A C23A 1_555 1_555
C24A C23A 1_555 1_555
C25A C24A 1_555 1_555
H14A C25A 1_555 1_555
C26A C21A 1_555 1_555
H15A C26A 1_555 1_555
C27A C24A 1_555 1_555
C28A C27A 1_555 1_555
H16A C28A 1_555 1_555
C29A C28A 1_555 1_555
C30A C29A 1_555 1_555
H17A C30A 1_555 1_555
C31A C30A 1_555 1_555
H18A C31A 1_555 1_555
C32A C27A 1_555 1_555
C33A C32A 1_555 1_555
C34A C29A 1_555 1_555
Mn1A O8 1_555 1_555
N1A C1A 1_555 1_555
N2A C6A 1_555 1_555
O1A Mn2 1_555 1_555
O2A C13A 1_555 1_555
O3A C20A 1_555 1_555
O4A C20A 1_555 1_555
O5A C34A 1_555 1_555
H19A O5A 1_555 1_555
O6A C34A 1_555 1_555
O7A C33A 1_555 1_555
O8A Mn1 1_555 1_555
O9A Mn1A 1_555 1_555
H20A O9A 1_555 1_555
H21A O9A 1_555 1_555
Mn1F O7A 1_555 1_555
Mn1G O7 1_555 1_555
Mn2D O3 1_555 1_555
Mn2D_2 O3A 1_555 1_555
O3D Mn2 1_555 1_555
O3E Mn2 1_555 1_555
O4D Mn2 1_555 1_555
O4E Mn2 1_555 1_555
O7F Mn1A 1_555 1_555
O7G Mn1 1_555 1_555
C5 N1 1_555 1_555
C8 C9 1_555 1_555
C12 N2 1_555 1_555
C18 C19 1_555 1_555
C25 C26 1_555 1_555
C31 C32 1_555 1_555
Mn1 N2 1_555 1_555
Mn1 O2 1_555 1_555
O4 Mn2D 1_555 1_555
C5A N1A 1_555 1_555
C8A C9A 1_555 1_555
C12A N2A 1_555 1_555
C13A O1A 1_555 1_555
C18A C19A 1_555 1_555
C25A C26A 1_555 1_555
C31A C32A 1_555 1_555
C33A O8A 1_555 1_555
Mn1A N1A 1_555 1_555
Mn1A N2A 1_555 1_555
Mn1A O2A 1_555 1_555
O4A Mn2D_2 1_555 1_555

#END
