
#######################################################################
#
#                 Cambridge Crystallographic Data Centre
#                                CCDC 
#
#######################################################################
#
# If this CIF has been generated from an entry in the Cambridge 
# Structural Database, then it will include bibliographic, chemical, 
# crystal, experimental, refinement or atomic coordinate data resulting 
# from the CCDC's data processing and validation procedures.
#
#######################################################################

data_JOFMUO
_symmetry_cell_setting           monoclinic
_symmetry_space_group_name_H-M   'C 2/c'
_symmetry_Int_Tables_number      15
_space_group_name_Hall           '-C 2yn'
loop_
_symmetry_equiv_pos_site_id
_symmetry_equiv_pos_as_xyz
1 x,y,z
2 -x,y,1/2-z
3 1/2+x,1/2+y,z
4 1/2-x,1/2+y,1/2-z
5 -x,-y,-z
6 x,-y,1/2+z
7 1/2-x,1/2-y,-z
8 1/2+x,1/2-y,1/2+z
_cell_length_a                   23.805(2)
_cell_length_b                   10.0914(9)
_cell_length_c                   17.1998(15)
_cell_angle_alpha                90
_cell_angle_beta                 111.5940(10)
_cell_angle_gamma                90
_cell_volume                     3841.84
loop_
_atom_site_label
_atom_site_type_symbol
_atom_site_fract_x
_atom_site_fract_y
_atom_site_fract_z
Cu1 Cu 0.19032(2) 0.86327(4) 0.27199(3)
O1 O 0.14995(13) 1.0112(3) 0.31984(17)
O2 O 0.17351(12) 1.0559(3) 0.21130(17)
C1 C 0.03138(17) 1.3450(4) 0.2495(3)
N1 N 0.22975(16) 0.5450(3) 0.4375(2)
C2 C 0.23160(19) 0.6137(4) 0.3713(3)
H1 H 0.2548 0.5900 0.3403
N2 N 0.19622(15) 0.7190(3) 0.3561(2)
N3 N 0.11233(16) 0.8045(3) 0.1811(2)
C3 C 0.15104(16) 1.0910(4) 0.2637(2)
C4 C 0.12152(16) 1.2237(4) 0.2563(2)
C5 C 0.06483(17) 1.2283(4) 0.2622(2)
H2 H 0.0488 1.1510 0.2750
C6 C 0.1910(3) 0.6104(5) 0.4667(3)
H3 H 0.1807 0.5862 0.5119
C7 C 0.2669(2) 0.4276(4) 0.4738(3)
H4 H 0.2964 0.4507 0.5283
H5 H 0.2887 0.4018 0.4385
C8 C 0.2300(2) 0.3114(5) 0.4833(3)
H6 H 0.1991 0.2908 0.4295
H7 H 0.2101 0.3349 0.5214
N4 N 0.0538(3) 0.7337(5) 0.0576(3)
C9 C 0.1097(2) 0.7428(5) 0.1122(3)
H8 H 0.1433 0.7097 0.1032
C10 C 0.1707(2) 0.7185(5) 0.4160(3)
H9 H 0.1438 0.7816 0.4213
C11 C 0.0537(3) 0.8360(6) 0.1700(5)
H10 H 0.0411 0.8805 0.2081
C12 C 0.0260(4) 0.5156(7) -0.0122(4)
H11 H 0.0204 0.4707 -0.0644
H12 H 0.0624 0.4801 0.0300
C13 C 0.0355(4) 0.6612(8) -0.0228(4)
H13 H 0.0665 0.6719 -0.0464
H14 H -0.0016 0.6992 -0.0617
C14 C 0.0174(3) 0.7910(7) 0.0936(5)
H15 H -0.0244 0.7979 0.0703
C15 C 0.05737(18) 1.4602(4) 0.2331(3)
H16 H 0.0366 1.5402 0.2259
C16 C 0.11399(18) 1.4562(4) 0.2275(3)
H17 H 0.1308 1.5342 0.2169
C17 C 0.14624(17) 1.3391(4) 0.2373(2)
C18 C 0.20741(17) 1.3448(3) 0.2297(2)
O3 O 0.21298(12) 1.4107(3) 0.17117(18)
O4 O 0.25187(12) 1.2878(3) 0.28341(17)
O1A O -0.14995(13) 1.0112(3) 0.18016(17)
O2A O -0.17351(12) 1.0559(3) 0.28870(17)
C1A C -0.03138(17) 1.3450(4) 0.2505(3)
C3A C -0.15104(16) 1.0910(4) 0.2363(2)
C4A C -0.12152(16) 1.2237(4) 0.2437(2)
C5A C -0.06483(17) 1.2283(4) 0.2378(2)
H2A H -0.0488 1.1510 0.2250
C15A C -0.05737(18) 1.4602(4) 0.2669(3)
H16A H -0.0366 1.5402 0.2741
C16A C -0.11399(18) 1.4562(4) 0.2725(3)
H17A H -0.1308 1.5342 0.2831
C17A C -0.14624(17) 1.3391(4) 0.2627(2)
C18A C -0.20741(17) 1.3448(3) 0.2703(2)
O3A O -0.21298(12) 1.4107(3) 0.32883(18)
O4A O -0.25187(12) 1.2878(3) 0.21659(17)
N1F N 0.27025(16) -0.0450(3) 0.5625(2)
C2F C 0.26840(19) -0.1137(4) 0.6287(3)
H1F H 0.2452 -0.0900 0.6597
N2F N 0.30378(15) -0.2190(3) 0.6439(2)
C6F C 0.3090(3) -0.1104(5) 0.5333(3)
H3F H 0.3193 -0.0862 0.4881
C7F C 0.2331(2) 0.0724(4) 0.5262(3)
H4F H 0.2036 0.0493 0.4717
H5F H 0.2113 0.0982 0.5615
C8F C 0.2700(2) 0.1886(5) 0.5167(3)
H6F H 0.3009 0.2092 0.5705
H7F H 0.2899 0.1651 0.4786
C10F C 0.3293(2) -0.2185(5) 0.5840(3)
H9F H 0.3562 -0.2816 0.5787
N3D N -0.11233(16) 0.1955(3) -0.1811(2)
N4D N -0.0538(3) 0.2663(5) -0.0576(3)
C9D C -0.1097(2) 0.2572(5) -0.1122(3)
H8D H -0.1433 0.2903 -0.1032
C11D C -0.0537(3) 0.1640(6) -0.1700(5)
H10D H -0.0411 0.1195 -0.2081
C12D C -0.0260(4) 0.4844(7) 0.0122(4)
H11D H -0.0204 0.5293 0.0644
H12D H -0.0624 0.5199 -0.0300
C13D C -0.0355(4) 0.3388(8) 0.0228(4)
H13D H -0.0665 0.3281 0.0464
H14D H 0.0016 0.3008 0.0617
C14D C -0.0174(3) 0.2090(7) -0.0936(5)
H15D H 0.0244 0.2021 -0.0703
Cu1A Cu -0.19032(2) 0.86327(4) 0.22801(3)
Cu1B Cu -0.30968(2) 1.36327(4) 0.27199(3)
Cu1C Cu 0.30968(2) 1.36327(4) 0.22801(3)
Cu1D Cu -0.19032(2) 0.13673(4) -0.27199(3)
Cu1F Cu 0.30968(2) -0.36327(4) 0.72801(3)
N2A N -0.19622(15) 0.7190(3) 0.1439(2)
N3A N -0.11233(16) 0.8045(3) 0.3189(2)
O3B O -0.28702(12) 0.9107(3) 0.17117(18)
O3C O 0.28702(12) 0.9107(3) 0.32883(18)
O4B O -0.24813(12) 0.7878(3) 0.28341(17)
O4C O 0.24813(12) 0.7878(3) 0.21659(17)
O5 O 0.3828(4) 0.6617(10) 0.4488(4)
H18 H 0.373(3) 0.630(6) 0.4017(16)
H19 H 0.408(2) 0.616(6) 0.486(3)
O6 O 0.4271(7) 0.553(4) 0.0868(10)
H20 H 0.4587(16) 0.509(6) 0.105(3)
H21 H 0.410(2) 0.550(7) 0.0355(13)
loop_
_geom_bond_atom_site_label_1
_geom_bond_atom_site_label_2
_geom_bond_site_symmetry_1
_geom_bond_site_symmetry_2
Cu1 O1 1_555 1_555
O1 C3 1_555 1_555
O2 Cu1 1_555 1_555
C1 C5 1_555 1_555
N1 C2 1_555 1_555
C2 H1 1_555 1_555
N2 Cu1 1_555 1_555
N3 Cu1 1_555 1_555
C3 O2 1_555 1_555
C4 C3 1_555 1_555
C5 C4 1_555 1_555
H2 C5 1_555 1_555
C6 N1 1_555 1_555
H3 C6 1_555 1_555
C7 N1 1_555 1_555
H4 C7 1_555 1_555
H5 C7 1_555 1_555
C8 C7 1_555 1_555
H6 C8 1_555 1_555
H7 C8 1_555 1_555
N4 C9 1_555 1_555
C9 N3 1_555 1_555
H8 C9 1_555 1_555
C10 N2 1_555 1_555
H9 C10 1_555 1_555
C11 N3 1_555 1_555
H10 C11 1_555 1_555
C12 H11 1_555 1_555
H12 C12 1_555 1_555
C13 N4 1_555 1_555
H13 C13 1_555 1_555
H14 C13 1_555 1_555
C14 N4 1_555 1_555
H15 C14 1_555 1_555
C15 C1 1_555 1_555
H16 C15 1_555 1_555
C16 C15 1_555 1_555
H17 C16 1_555 1_555
C17 C4 1_555 1_555
C18 C17 1_555 1_555
O3 C18 1_555 1_555
O4 C18 1_555 1_555
O5 H18 1_555 1_555
H19 O5 1_555 1_555
O6 H20 1_555 1_555
H21 O6 1_555 1_555
O1A C3A 1_555 1_555
O2A C3A 1_555 1_555
C1A C1 1_555 1_555
C3A C4A 1_555 1_555
C4A C5A 1_555 1_555
C5A C1A 1_555 1_555
H2A C5A 1_555 1_555
C15A C1A 1_555 1_555
H16A C15A 1_555 1_555
C16A C15A 1_555 1_555
H17A C16A 1_555 1_555
C17A C4A 1_555 1_555
C18A C17A 1_555 1_555
O3A C18A 1_555 1_555
O4A C18A 1_555 1_555
N1F C2F 1_555 1_555
C2F H1F 1_555 1_555
N2F C2F 1_555 1_555
C6F N1F 1_555 1_555
H3F C6F 1_555 1_555
C7F N1F 1_555 1_555
H4F C7F 1_555 1_555
H5F C7F 1_555 1_555
C8F C8 1_555 1_555
H6F C8F 1_555 1_555
H7F C8F 1_555 1_555
C10F N2F 1_555 1_555
H9F C10F 1_555 1_555
N3D C9D 1_555 1_555
N4D C9D 1_555 1_555
C9D H8D 1_555 1_555
C11D N3D 1_555 1_555
H10D C11D 1_555 1_555
C12D C12 1_555 1_555
H11D C12D 1_555 1_555
H12D C12D 1_555 1_555
C13D N4D 1_555 1_555
H13D C13D 1_555 1_555
H14D C13D 1_555 1_555
C14D N4D 1_555 1_555
H15D C14D 1_555 1_555
Cu1A O1A 1_555 1_555
Cu1B O3A 1_555 1_555
Cu1C O3 1_555 1_555
Cu1D N3D 1_555 1_555
Cu1F N2F 1_555 1_555
N2A Cu1A 1_555 1_555
N3A Cu1A 1_555 1_555
O3B Cu1A 1_555 1_555
O3C Cu1 1_555 1_555
O4B Cu1A 1_555 1_555
O4C Cu1 1_555 1_555
C2 N2 1_555 1_555
C6 C10 1_555 1_555
C11 C14 1_555 1_555
C12 C13 1_555 1_555
C16 C17 1_555 1_555
O4 Cu1C 1_555 1_555
O2A Cu1A 1_555 1_555
C16A C17A 1_555 1_555
O4A Cu1B 1_555 1_555
C6F C10F 1_555 1_555
C7F C8F 1_555 1_555
C11D C14D 1_555 1_555
C12D C13D 1_555 1_555

#END
