
#######################################################################
#
#                 Cambridge Crystallographic Data Centre
#                                CCDC 
#
#######################################################################
#
# If this CIF has been generated from an entry in the Cambridge 
# Structural Database, then it will include bibliographic, chemical, 
# crystal, experimental, refinement or atomic coordinate data resulting 
# from the CCDC's data processing and validation procedures.
#
#######################################################################

data_JOFMIC
_symmetry_cell_setting           monoclinic
_symmetry_space_group_name_H-M   'P 2/n'
_symmetry_Int_Tables_number      13
_space_group_name_Hall           '-P 2yac'
loop_
_symmetry_equiv_pos_site_id
_symmetry_equiv_pos_as_xyz
1 x,y,z
2 1/2-x,y,1/2-z
3 -x,-y,-z
4 1/2+x,-y,1/2+z
_cell_length_a                   15.1812(17)
_cell_length_b                   10.7412(14)
_cell_length_c                   43.986(5)
_cell_angle_alpha                90
_cell_angle_beta                 97.947(2)
_cell_angle_gamma                90
_cell_volume                     7103.66
loop_
_atom_site_label
_atom_site_type_symbol
_atom_site_fract_x
_atom_site_fract_y
_atom_site_fract_z
Cd1 Cd 0.28139(2) 0.22066(4) 0.824496(8)
N1 N 0.2519(3) 0.0110(4) 0.83763(9)
N2 N 0.3305(2) 0.0801(4) 0.78837(8)
O1 O 0.4462(2) 0.2244(4) 0.84949(8)
O2 O 0.3959(2) 0.3476(4) 0.81125(11)
O3 O 0.2073(2) 0.4188(4) 0.81528(9)
O4 O 0.1352(3) 0.2491(4) 0.80058(8)
O5 O 0.2851(2) 0.2351(3) 0.87813(7)
C1 C 0.2783(3) -0.0806(5) 0.81888(11)
C2 C 0.2138(3) -0.0271(6) 0.86143(13)
C3 C 0.3708(3) 0.1153(6) 0.76447(12)
C4 C 0.3214(3) -0.0435(5) 0.79316(11)
Cd2 Cd 0.43149(2) 0.19071(4) 0.899911(8)
C5 C 0.4560(3) 0.3154(5) 0.83189(13)
C6 C 0.1398(3) 0.3672(5) 0.80253(11)
C7 C 0.2682(4) -0.2080(5) 0.82461(13)
C8 C 0.2018(4) -0.1490(6) 0.86911(15)
H1 H 0.1937 0.0337 0.8739
C9 C 0.4033(4) 0.0301(6) 0.74481(13)
H2 H 0.3773 0.1999 0.7609
C10 C 0.3523(3) -0.1349(6) 0.77461(12)
N3 N 0.4510(3) -0.0184(4) 0.88540(11)
N4 N 0.3999(3) 0.0600(6) 0.93824(11)
O6 O 0.5198(3) 0.3399(5) 0.92476(9)
O7 O 0.5945(3) 0.1681(4) 0.92232(9)
O8 O 0.3208(3) 0.3455(5) 0.91914(11)
C11 C 0.5426(3) 0.3820(5) 0.83474(11)
C12 C 0.0595(3) 0.4402(5) 0.79043(10)
C13 C 0.2289(4) -0.2415(6) 0.85050(14)
C14 C 0.3017(4) -0.2982(6) 0.80419(14)
H3 H 0.1759 -0.1693 0.8864
C15 C 0.3935(4) -0.0924(6) 0.74986(13)
H4 H 0.4312 0.0574 0.7285
C16 C 0.3402(4) -0.2638(6) 0.78055(15)
C17 C 0.4822(3) -0.0570(5) 0.85868(11)
C18 C 0.4339(3) -0.1057(6) 0.90719(12)
C19 C 0.3769(3) 0.1024(6) 0.96595(12)
C20 C 0.4083(4) -0.0670(6) 0.93326(13)
C21 C 0.5872(4) 0.2765(6) 0.93225(12)
C22 C 0.5550(3) 0.4822(5) 0.81610(12)
C23 C 0.6132(3) 0.3436(5) 0.85636(11)
C24 C -0.0141(4) 0.3862(6) 0.77419(14)
C25 C 0.0558(3) 0.5646(5) 0.79637(13)
H5 H 0.2213 -0.3250 0.8551
H6 H 0.2955 -0.3827 0.8080
H7 H 0.4143 -0.1498 0.7367
H8 H 0.3597 -0.3236 0.7677
H9 H 0.4936 0.0014 0.8441
C26 C 0.4964(3) -0.1827(5) 0.85374(13)
C27 C 0.4482(4) -0.2315(5) 0.90225(16)
H10 H 0.3713 0.1874 0.9693
C28 C 0.3625(4) 0.0179(7) 0.98868(11)
C29 C 0.3938(5) -0.1515(6) 0.95598(16)
C30 C 0.6625(4) 0.3316(6) 0.95383(12)
H11 H 0.5090 0.5080 0.8013
C31 C 0.6356(3) 0.5442(5) 0.81946(12)
C32 C 0.6938(3) 0.4080(5) 0.85889(11)
H12 H 0.6068 0.2757 0.8690
H13 H -0.0137 0.3016 0.7696
C33 C -0.0895(4) 0.4568(6) 0.76446(14)
C34 C -0.0186(3) 0.6330(5) 0.78614(12)
H14 H 0.1045 0.6036 0.8076
H15 H 0.5173 -0.2085 0.8359
C35 C 0.4794(4) -0.2700(4) 0.87553(18)
C36 C 0.4232(9) -0.3196(10) 0.9267(5)
H16 H 0.3471 0.0463 1.0072
C37 C 0.3709(5) -0.1090(7) 0.98369(15)
C38 C 0.4092(11) -0.274(2) 0.9527(5)
C39 C 0.6504(4) 0.4403(7) 0.96845(14)
C40 C 0.7427(4) 0.2723(6) 0.96055(12)
H17 H 0.6428 0.6114 0.8067
C41 C 0.7055(3) 0.5098(4) 0.84109(11)
H18 H 0.7410 0.3810 0.8731
H19 H -0.1388 0.4181 0.7536
C42 C -0.0934(3) 0.5811(4) 0.77036(11)
H20 H -0.0181 0.7181 0.7901
H21 H 0.4889 -0.3542 0.8722
H22 H 0.4181 -0.4047 0.9230
H23 H 0.3612 -0.1656 0.9989
H24 H 0.4097 -0.3268 0.9695
H25 H 0.5971 0.4830 0.9636
C43 C 0.7159(4) 0.4897(7) 0.99050(15)
C44 C 0.8090(3) 0.3238(6) 0.98222(12)
H26 H 0.7531 0.1981 0.9508
C45 C 0.7881(3) 0.5826(5) 0.84619(11)
C46 C -0.1739(3) 0.6539(5) 0.75959(11)
H27 H 0.7043 0.5618 1.0010
C47 C 0.7973(4) 0.4328(5) 0.99688(11)
H28 H 0.8628 0.2819 0.9867
N5 N 0.8637(2) 0.5211(4) 0.85754(8)
C48 C 0.7881(3) 0.7072(5) 0.84142(13)
N6 N -0.2500 0.5913(5) 0.7500
C49 C -0.1734(5) 0.7805(6) 0.75913(19)
C50 C 0.8725(4) 0.4899(6) 1.01871(11)
C51 C 0.9402(3) 0.5865(4) 0.86398(10)
C52 C 0.8662(3) 0.7772(5) 0.84836(14)
H29 H 0.7355 0.7468 0.8334
H30 H -0.1210 0.8234 0.7698
C53 C -0.2291(7) 0.8451(9) 0.7402(3)
C54 C 0.8721(4) 0.6108(6) 1.02752(12)
N7 N 0.9406(3) 0.4136(5) 1.02603(9)
C55 C 0.9422(3) 0.7131(4) 0.85997(12)
C56 C 1.0215(3) 0.5162(4) 0.87485(10)
C57 C 0.8655(4) 0.9134(5) 0.84249(18)
C58 C -0.2192(6) 0.9841(6) 0.73494(17)
H31 H 0.8223 0.6594 1.0210
C59 C 0.9433(4) 0.6639(6) 1.04586(12)
C60 C 1.0126(4) 0.4620(6) 1.04423(10)
H32 H 0.9953 0.7562 0.8651
C61 C 1.0308(3) 0.3962(4) 0.86510(10)
C62 C 1.0922(3) 0.5682(4) 0.89393(10)
C63 C 0.7927(5) 0.9828(7) 0.8460(3)
C64 C 0.9379(4) 0.9743(6) 0.83290(17)
C65 C -0.1486(6) 1.0230(9) 0.7248(2)
C66 C -0.2875(6) 1.0578(9) 0.7381(2)
C67 C 1.0143(4) 0.5827(6) 1.05307(11)
C68 C 0.9451(5) 0.7934(7) 1.05486(15)
C69 C 1.0874(4) 0.3756(5) 1.05134(11)
H33 H 0.9830 0.3578 0.8533
C70 C 1.1096(3) 0.3308(4) 0.87241(10)
C71 C 1.1711(3) 0.5036(4) 0.90139(10)
H34 H 1.0865 0.6477 0.9018
H35 H 0.7430 0.9453 0.8523
C72 C 0.7925(6) 1.1127(8) 0.8400(4)
C73 C 0.9356(5) 1.1013(6) 0.8270(2)
H36 H 0.9886 0.9291 0.8304
H37 H -0.1039 0.9642 0.7241
C74 C -0.1295(8) 1.1494(11) 0.7142(3)
C75 C -0.2592(10) 1.2006(8) 0.7337(3)
H38 H 1.0658 0.6129 1.0646
C76 C 0.8815(6) 0.8761(9) 1.0438(3)
C77 C 1.0131(6) 0.8441(8) 1.07600(18)
C78 C 1.0864(5) 0.2561(7) 1.03931(14)
C79 C 1.1654(4) 0.4072(7) 1.07089(13)
H39 H 1.1141 0.2497 0.8654
C80 C 1.1814(3) 0.3862(4) 0.89012(10)
H40 H 1.2178 0.5403 0.9142
H41 H 0.7421 1.1595 0.8420
C81 C 0.8615(6) 1.1667(8) 0.8317(4)
H42 H 0.9833 1.1409 0.8200
C82 C -0.1966(10) 1.2185(7) 0.7202(2)
H43 H -0.0805 1.1747 0.7053
H44 H -0.3102 1.2533 0.7262
H45 H 0.8358 0.8482 1.0291
C83 C 0.8797(8) 1.0007(12) 1.0529(3)
C84 C 1.0130(7) 0.9662(10) 1.0828(2)
H46 H 1.0585 0.7932 1.0854
H47 H 1.0376 0.2314 1.0255
C85 C 1.1539(4) 0.1735(7) 1.04687(14)
C86 C 1.2312(4) 0.3236(7) 1.07822(15)
H48 H 1.1718 0.4873 1.0789
C87 C 1.2680(3) 0.3189(5) 0.89643(12)
H49 H 0.8607 1.2526 0.8290
H50 H 0.8308 1.0503 1.0459
C88 C 0.9479(6) 1.0482(10) 1.0715(2)
H51 H 1.0608 0.9971 1.0962
H52 H 1.1499 0.0943 1.0382
C89 C 1.2265(4) 0.2045(7) 1.06663(13)
H53 H 1.2814 0.3472 1.0915
H54 H 0.9511 1.1323 1.0765
C90 C 1.2977(4) 0.1178(8) 1.07656(16)
O9 O 1.2953(4) 0.0142(6) 1.06220(14)
O10 O 1.3532(5) 0.1281(8) 1.0965(2)
H55 H 1.3215 -0.0391 1.0734
C46A C -0.3261(3) 0.6539(5) 0.74041(11)
C53A C -0.2709(7) 0.8451(9) 0.7598(3)
C42A C -0.4066(3) 0.5811(4) 0.72964(11)
C49A C -0.3266(5) 0.7805(6) 0.74087(19)
C58A C -0.2808(6) 0.9841(6) 0.76506(17)
C33A C -0.4105(4) 0.4568(6) 0.73554(14)
C34A C -0.4814(3) 0.6330(5) 0.71386(12)
H30A H -0.3790 0.8234 0.7302
C66A C -0.2125(6) 1.0578(9) 0.7619(2)
C65A C -0.3514(6) 1.0230(9) 0.7752(2)
C24A C -0.4859(4) 0.3862(6) 0.72581(14)
H19A H -0.3612 0.4181 0.7464
H20A H -0.4819 0.7181 0.7099
C25A C -0.5558(3) 0.5646(5) 0.70363(13)
C75A C -0.2408(10) 1.2006(8) 0.7663(3)
H37A H -0.3961 0.9642 0.7759
C74A C -0.3705(8) 1.1494(11) 0.7858(3)
C12A C -0.5595(3) 0.4402(5) 0.70957(10)
H13A H -0.4863 0.3016 0.7304
H14A H -0.6045 0.6036 0.6924
H44A H -0.1898 1.2533 0.7738
C82A C -0.3034(10) 1.2185(7) 0.7798(2)
H43A H -0.4195 1.1747 0.7947
C6A C -0.6398(3) 0.3672(5) 0.69747(11)
O8_2 O 1.3208(3) 0.3455(5) 0.91914(11)
O5_2 O 1.2851(2) 0.2351(3) 0.87813(7)
O3A O -0.7073(2) 0.4188(4) 0.68472(9)
O4A O -0.6352(3) 0.2491(4) 0.69942(8)
Cd2_2 Cd 1.43149(2) 0.19071(4) 0.899911(8)
Cd1_2 Cd 1.28139(2) 0.22066(4) 0.824496(8)
Cd1A Cd -0.78139(2) 0.22066(4) 0.675504(8)
N1A N -0.7519(3) 0.0110(4) 0.66237(9)
N2A N -0.8305(2) 0.0801(4) 0.71163(8)
O1A O -0.9462(2) 0.2244(4) 0.65051(8)
O2A O -0.8959(2) 0.3476(4) 0.68875(11)
O5A O -0.7851(2) 0.2351(3) 0.62187(7)
C1A C -0.7783(3) -0.0806(5) 0.68112(11)
C2A C -0.7138(3) -0.0271(6) 0.63857(13)
C3A C -0.8708(3) 0.1153(6) 0.73553(12)
C4A C -0.8214(3) -0.0435(5) 0.70684(11)
Cd2A Cd -0.93149(2) 0.19071(4) 0.600089(8)
C5A C -0.9560(3) 0.3154(5) 0.66811(13)
C7A C -0.7682(4) -0.2080(5) 0.67539(13)
C8A C -0.7018(4) -0.1490(6) 0.63089(15)
H1A H -0.6937 0.0337 0.6261
C9A C -0.9033(4) 0.0301(6) 0.75519(13)
H2A H -0.8773 0.1999 0.7391
C10A C -0.8523(3) -0.1349(6) 0.72539(12)
N3A N -0.9510(3) -0.0184(4) 0.61460(11)
N4A N -0.8999(3) 0.0600(6) 0.56176(11)
O6A O -1.0198(3) 0.3399(5) 0.57524(9)
O7A O -1.0945(3) 0.1681(4) 0.57768(9)
O8A O -0.8208(3) 0.3455(5) 0.58086(11)
C11A C -1.0426(3) 0.3820(5) 0.66526(11)
C13A C -0.7289(4) -0.2415(6) 0.64950(14)
C14A C -0.8017(4) -0.2982(6) 0.69581(14)
H3A H -0.6759 -0.1693 0.6136
C15A C -0.8935(4) -0.0924(6) 0.75014(13)
H4A H -0.9312 0.0574 0.7715
C16A C -0.8402(4) -0.2638(6) 0.71945(15)
C17A C -0.9822(3) -0.0570(5) 0.64132(11)
C18A C -0.9339(3) -0.1057(6) 0.59281(12)
C19A C -0.8769(3) 0.1024(6) 0.53405(12)
C20A C -0.9083(4) -0.0670(6) 0.56674(13)
C21A C -1.0872(4) 0.2765(6) 0.56775(12)
C22A C -1.0550(3) 0.4822(5) 0.68390(12)
C23A C -1.1132(3) 0.3436(5) 0.64364(11)
H5A H -0.7213 -0.3250 0.6449
H6A H -0.7955 -0.3827 0.6920
H7A H -0.9143 -0.1498 0.7633
H8A H -0.8597 -0.3236 0.7323
H9A H -0.9936 0.0014 0.6559
C26A C -0.9964(3) -0.1827(5) 0.64626(13)
C27A C -0.9482(4) -0.2315(5) 0.59775(16)
H10A H -0.8713 0.1874 0.5307
C28A C -0.8625(4) 0.0179(7) 0.51132(11)
C29A C -0.8938(5) -0.1515(6) 0.54402(16)
C30A C -1.1625(4) 0.3316(6) 0.54617(12)
H11A H -1.0090 0.5080 0.6987
C31A C -1.1356(3) 0.5442(5) 0.68054(12)
C32A C -1.1938(3) 0.4080(5) 0.64111(11)
H12A H -1.1068 0.2757 0.6310
H15A H -1.0173 -0.2085 0.6641
C35A C -0.9794(4) -0.2700(4) 0.62447(18)
C36A C -0.9232(9) -0.3196(10) 0.5733(5)
H16A H -0.8471 0.0463 0.4928
C37A C -0.8709(5) -0.1090(7) 0.51631(15)
C38A C -0.9092(11) -0.274(2) 0.5473(5)
C39A C -1.1504(4) 0.4403(7) 0.53155(14)
C40A C -1.2427(4) 0.2723(6) 0.53945(12)
H17A H -1.1428 0.6114 0.6933
C41A C -1.2055(3) 0.5098(4) 0.65891(11)
H18A H -1.2410 0.3810 0.6269
H21A H -0.9889 -0.3542 0.6278
H22A H -0.9181 -0.4047 0.5770
H23A H -0.8612 -0.1656 0.5011
H24A H -0.9097 -0.3268 0.5305
H25A H -1.0971 0.4830 0.5364
C43A C -1.2159(4) 0.4897(7) 0.50950(15)
C44A C -1.3090(3) 0.3238(6) 0.51778(12)
H26A H -1.2531 0.1981 0.5492
C45A C -1.2881(3) 0.5826(5) 0.65381(11)
H27A H -1.2043 0.5618 0.4990
C47A C -1.2973(4) 0.4328(5) 0.50312(11)
H28A H -1.3628 0.2819 0.5133
N5A N -1.3637(2) 0.5211(4) 0.64246(8)
C48A C -1.2881(3) 0.7072(5) 0.65858(13)
C50A C -1.3725(4) 0.4899(6) 0.48129(11)
C51A C -1.4402(3) 0.5865(4) 0.63602(10)
C52A C -1.3662(3) 0.7772(5) 0.65164(14)
H29A H -1.2355 0.7468 0.6666
C54A C -1.3721(4) 0.6108(6) 0.47248(12)
N7A N -1.4406(3) 0.4136(5) 0.47397(9)
C55A C -1.4422(3) 0.7131(4) 0.64003(12)
C56A C -1.5215(3) 0.5162(4) 0.62515(10)
C57A C -1.3655(4) 0.9134(5) 0.65751(18)
H31A H -1.3223 0.6594 0.4790
C59A C -1.4433(4) 0.6639(6) 0.45414(12)
C60A C -1.5126(4) 0.4620(6) 0.45577(10)
H32A H -1.4953 0.7562 0.6349
C61A C -1.5308(3) 0.3962(4) 0.63490(10)
C62A C -1.5922(3) 0.5682(4) 0.60607(10)
C63A C -1.2927(5) 0.9828(7) 0.6540(3)
C64A C -1.4379(4) 0.9743(6) 0.66710(17)
C67A C -1.5143(4) 0.5827(6) 0.44693(11)
C68A C -1.4451(5) 0.7934(7) 0.44514(15)
C69A C -1.5874(4) 0.3756(5) 0.44866(11)
H33A H -1.4830 0.3578 0.6467
C70A C -1.6096(3) 0.3308(4) 0.62759(10)
C71A C -1.6711(3) 0.5036(4) 0.59861(10)
H34A H -1.5865 0.6477 0.5982
H35A H -1.2430 0.9453 0.6477
C72A C -1.2925(6) 1.1127(8) 0.6600(4)
C73A C -1.4356(5) 1.1013(6) 0.6730(2)
H36A H -1.4886 0.9291 0.6696
H38A H -1.5658 0.6129 0.4354
C76A C -1.3815(6) 0.8761(9) 0.4562(3)
C77A C -1.5131(6) 0.8441(8) 0.42400(18)
C78A C -1.5864(5) 0.2561(7) 0.46069(14)
C79A C -1.6654(4) 0.4072(7) 0.42911(13)
H39A H -1.6141 0.2497 0.6346
C80A C -1.6814(3) 0.3862(4) 0.60988(10)
H40A H -1.7178 0.5403 0.5858
H41A H -1.2421 1.1595 0.6580
C81A C -1.3615(6) 1.1667(8) 0.6683(4)
H42A H -1.4833 1.1409 0.6800
H45A H -1.3358 0.8482 0.4709
C83A C -1.3797(8) 1.0007(12) 0.4471(3)
C84A C -1.5130(7) 0.9662(10) 0.4172(2)
H46A H -1.5585 0.7932 0.4146
H47A H -1.5376 0.2314 0.4745
C85A C -1.6539(4) 0.1735(7) 0.45313(14)
C86A C -1.7312(4) 0.3236(7) 0.42178(15)
H48A H -1.6718 0.4873 0.4211
C87A C -1.7680(3) 0.3189(5) 0.60357(12)
H49A H -1.3607 1.2526 0.6710
H50A H -1.3308 1.0503 0.4541
C88A C -1.4479(6) 1.0482(10) 0.4285(2)
H51A H -1.5608 0.9971 0.4038
H52A H -1.6499 0.0943 0.4618
C89A C -1.7265(4) 0.2045(7) 0.43337(13)
H53A H -1.7814 0.3472 0.4085
O8A_2 O -1.8208(3) 0.3455(5) 0.58086(11)
O5A_2 O -1.7851(2) 0.2351(3) 0.62187(7)
H54A H -1.4511 1.1323 0.4235
C90A C -1.7977(4) 0.1178(8) 0.42344(16)
Cd2A_2 Cd -1.93149(2) 0.19071(4) 0.600089(8)
Cd1A_2 Cd -1.78139(2) 0.22066(4) 0.675504(8)
O9A O -1.7953(4) 0.0142(6) 0.43780(14)
O10A O -1.8532(5) 0.1281(8) 0.4035(2)
H55A H -1.8215 -0.0391 0.4266
loop_
_geom_bond_atom_site_label_1
_geom_bond_atom_site_label_2
_geom_bond_site_symmetry_1
_geom_bond_site_symmetry_2
Cd1 N1 1_555 1_555
N1 C1 1_555 1_555
N2 Cd1 1_555 1_555
O1 Cd1 1_555 1_555
O2 Cd1 1_555 1_555
O3 Cd1 1_555 1_555
O4 Cd1 1_555 1_555
O5 Cd1 1_555 1_555
C1 C4 1_555 1_555
C2 N1 1_555 1_555
C3 N2 1_555 1_555
C4 N2 1_555 1_555
Cd2 O1 1_555 1_555
C5 O1 1_555 1_555
C6 O3 1_555 1_555
C7 C1 1_555 1_555
C8 C2 1_555 1_555
H1 C2 1_555 1_555
C9 C3 1_555 1_555
H2 C3 1_555 1_555
C10 C4 1_555 1_555
N3 Cd2 1_555 1_555
N4 Cd2 1_555 1_555
O6 Cd2 1_555 1_555
O7 Cd2 1_555 1_555
O8 Cd2 1_555 1_555
C11 C5 1_555 1_555
C12 C6 1_555 1_555
C13 C7 1_555 1_555
C14 C7 1_555 1_555
H3 C8 1_555 1_555
C15 C9 1_555 1_555
H4 C9 1_555 1_555
C16 C10 1_555 1_555
C17 N3 1_555 1_555
C18 N3 1_555 1_555
C19 N4 1_555 1_555
C20 N4 1_555 1_555
C21 O6 1_555 1_555
C22 C11 1_555 1_555
C23 C11 1_555 1_555
C24 C12 1_555 1_555
C25 C12 1_555 1_555
H5 C13 1_555 1_555
H6 C14 1_555 1_555
H7 C15 1_555 1_555
H8 C16 1_555 1_555
H9 C17 1_555 1_555
C26 C17 1_555 1_555
C27 C18 1_555 1_555
H10 C19 1_555 1_555
C28 C19 1_555 1_555
C29 C20 1_555 1_555
C30 C21 1_555 1_555
H11 C22 1_555 1_555
C31 C22 1_555 1_555
C32 C23 1_555 1_555
H12 C23 1_555 1_555
H13 C24 1_555 1_555
C33 C24 1_555 1_555
C34 C25 1_555 1_555
H14 C25 1_555 1_555
H15 C26 1_555 1_555
C35 C26 1_555 1_555
C36 C27 1_555 1_555
H16 C28 1_555 1_555
C37 C28 1_555 1_555
C38 C29 1_555 1_555
C39 C30 1_555 1_555
C40 C30 1_555 1_555
H17 C31 1_555 1_555
C41 C31 1_555 1_555
H18 C32 1_555 1_555
H19 C33 1_555 1_555
C42 C33 1_555 1_555
H20 C34 1_555 1_555
H21 C35 1_555 1_555
H22 C36 1_555 1_555
H23 C37 1_555 1_555
H24 C38 1_555 1_555
H25 C39 1_555 1_555
C43 C39 1_555 1_555
C44 C40 1_555 1_555
H26 C40 1_555 1_555
C45 C41 1_555 1_555
C46 C42 1_555 1_555
H27 C43 1_555 1_555
C47 C43 1_555 1_555
H28 C44 1_555 1_555
N5 C45 1_555 1_555
C48 C45 1_555 1_555
N6 C46 1_555 1_555
C49 C46 1_555 1_555
C50 C47 1_555 1_555
C51 N5 1_555 1_555
C52 C48 1_555 1_555
H29 C48 1_555 1_555
H30 C49 1_555 1_555
C53 C49 1_555 1_555
C54 C50 1_555 1_555
N7 C50 1_555 1_555
C55 C51 1_555 1_555
C56 C51 1_555 1_555
C57 C52 1_555 1_555
C58 C53 1_555 1_555
H31 C54 1_555 1_555
C59 C54 1_555 1_555
C60 N7 1_555 1_555
H32 C55 1_555 1_555
C61 C56 1_555 1_555
C62 C56 1_555 1_555
C63 C57 1_555 1_555
C64 C57 1_555 1_555
C65 C58 1_555 1_555
C66 C58 1_555 1_555
C67 C59 1_555 1_555
C68 C59 1_555 1_555
C69 C60 1_555 1_555
H33 C61 1_555 1_555
C70 C61 1_555 1_555
C71 C62 1_555 1_555
H34 C62 1_555 1_555
H35 C63 1_555 1_555
C72 C63 1_555 1_555
C73 C64 1_555 1_555
H36 C64 1_555 1_555
H37 C65 1_555 1_555
C74 C65 1_555 1_555
C75 C66 1_555 1_555
H38 C67 1_555 1_555
C76 C68 1_555 1_555
C77 C68 1_555 1_555
C78 C69 1_555 1_555
C79 C69 1_555 1_555
H39 C70 1_555 1_555
C80 C70 1_555 1_555
H40 C71 1_555 1_555
H41 C72 1_555 1_555
C81 C72 1_555 1_555
H42 C73 1_555 1_555
C82 C74 1_555 1_555
H43 C74 1_555 1_555
H44 C75 1_555 1_555
H45 C76 1_555 1_555
C83 C76 1_555 1_555
C84 C77 1_555 1_555
H46 C77 1_555 1_555
H47 C78 1_555 1_555
C85 C78 1_555 1_555
C86 C79 1_555 1_555
H48 C79 1_555 1_555
C87 C80 1_555 1_555
H49 C81 1_555 1_555
H50 C83 1_555 1_555
C88 C83 1_555 1_555
H51 C84 1_555 1_555
H52 C85 1_555 1_555
C89 C85 1_555 1_555
H53 C86 1_555 1_555
H54 C88 1_555 1_555
C90 C89 1_555 1_555
O9 C90 1_555 1_555
O10 C90 1_555 1_555
H55 O9 1_555 1_555
C46A N6 1_555 1_555
C53A C49 1_555 1_555
C42A C46A 1_555 1_555
C49A C53 1_555 1_555
C58A C53A 1_555 1_555
C33A C42A 1_555 1_555
C34A C42A 1_555 1_555
H30A C49A 1_555 1_555
C66A C58A 1_555 1_555
C65A C58A 1_555 1_555
C24A C33A 1_555 1_555
H19A C33A 1_555 1_555
H20A C34A 1_555 1_555
C25A C34A 1_555 1_555
C75A C66A 1_555 1_555
H37A C65A 1_555 1_555
C74A C65A 1_555 1_555
C12A C24A 1_555 1_555
H13A C24A 1_555 1_555
H14A C25A 1_555 1_555
H44A C75A 1_555 1_555
C82A C75A 1_555 1_555
H43A C74A 1_555 1_555
C6A C12A 1_555 1_555
O8_2 C87 1_555 1_555
O5_2 C87 1_555 1_555
O3A C6A 1_555 1_555
O4A C6A 1_555 1_555
Cd2_2 O8_2 1_555 1_555
Cd1_2 O5_2 1_555 1_555
Cd1A O3A 1_555 1_555
N1A Cd1A 1_555 1_555
N2A Cd1A 1_555 1_555
O1A Cd1A 1_555 1_555
O2A Cd1A 1_555 1_555
O5A Cd1A 1_555 1_555
C1A N1A 1_555 1_555
C2A N1A 1_555 1_555
C3A N2A 1_555 1_555
C4A N2A 1_555 1_555
Cd2A O1A 1_555 1_555
C5A O1A 1_555 1_555
C7A C1A 1_555 1_555
C8A C2A 1_555 1_555
H1A C2A 1_555 1_555
C9A C3A 1_555 1_555
H2A C3A 1_555 1_555
C10A C4A 1_555 1_555
N3A Cd2A 1_555 1_555
N4A Cd2A 1_555 1_555
O6A Cd2A 1_555 1_555
O7A Cd2A 1_555 1_555
O8A Cd2A 1_555 1_555
C11A C5A 1_555 1_555
C13A C7A 1_555 1_555
C14A C7A 1_555 1_555
H3A C8A 1_555 1_555
C15A C9A 1_555 1_555
H4A C9A 1_555 1_555
C16A C10A 1_555 1_555
C17A N3A 1_555 1_555
C18A N3A 1_555 1_555
C19A N4A 1_555 1_555
C20A N4A 1_555 1_555
C21A O6A 1_555 1_555
C22A C11A 1_555 1_555
C23A C11A 1_555 1_555
H5A C13A 1_555 1_555
H6A C14A 1_555 1_555
H7A C15A 1_555 1_555
H8A C16A 1_555 1_555
H9A C17A 1_555 1_555
C26A C17A 1_555 1_555
C27A C18A 1_555 1_555
H10A C19A 1_555 1_555
C28A C19A 1_555 1_555
C29A C20A 1_555 1_555
C30A C21A 1_555 1_555
H11A C22A 1_555 1_555
C31A C22A 1_555 1_555
C32A C23A 1_555 1_555
H12A C23A 1_555 1_555
H15A C26A 1_555 1_555
C35A C26A 1_555 1_555
C36A C27A 1_555 1_555
H16A C28A 1_555 1_555
C37A C28A 1_555 1_555
C38A C29A 1_555 1_555
C39A C30A 1_555 1_555
C40A C30A 1_555 1_555
H17A C31A 1_555 1_555
C41A C31A 1_555 1_555
H18A C32A 1_555 1_555
H21A C35A 1_555 1_555
H22A C36A 1_555 1_555
H23A C37A 1_555 1_555
H24A C38A 1_555 1_555
H25A C39A 1_555 1_555
C43A C39A 1_555 1_555
C44A C40A 1_555 1_555
H26A C40A 1_555 1_555
C45A C41A 1_555 1_555
H27A C43A 1_555 1_555
C47A C43A 1_555 1_555
H28A C44A 1_555 1_555
N5A C45A 1_555 1_555
C48A C45A 1_555 1_555
C50A C47A 1_555 1_555
C51A N5A 1_555 1_555
C52A C48A 1_555 1_555
H29A C48A 1_555 1_555
C54A C50A 1_555 1_555
N7A C50A 1_555 1_555
C55A C51A 1_555 1_555
C56A C51A 1_555 1_555
C57A C52A 1_555 1_555
H31A C54A 1_555 1_555
C59A C54A 1_555 1_555
C60A N7A 1_555 1_555
H32A C55A 1_555 1_555
C61A C56A 1_555 1_555
C62A C56A 1_555 1_555
C63A C57A 1_555 1_555
C64A C57A 1_555 1_555
C67A C59A 1_555 1_555
C68A C59A 1_555 1_555
C69A C60A 1_555 1_555
H33A C61A 1_555 1_555
C70A C61A 1_555 1_555
C71A C62A 1_555 1_555
H34A C62A 1_555 1_555
H35A C63A 1_555 1_555
C72A C63A 1_555 1_555
C73A C64A 1_555 1_555
H36A C64A 1_555 1_555
H38A C67A 1_555 1_555
C76A C68A 1_555 1_555
C77A C68A 1_555 1_555
C78A C69A 1_555 1_555
C79A C69A 1_555 1_555
H39A C70A 1_555 1_555
C80A C70A 1_555 1_555
H40A C71A 1_555 1_555
H41A C72A 1_555 1_555
C81A C72A 1_555 1_555
H42A C73A 1_555 1_555
H45A C76A 1_555 1_555
C83A C76A 1_555 1_555
C84A C77A 1_555 1_555
H46A C77A 1_555 1_555
H47A C78A 1_555 1_555
C85A C78A 1_555 1_555
C86A C79A 1_555 1_555
H48A C79A 1_555 1_555
C87A C80A 1_555 1_555
H49A C81A 1_555 1_555
H50A C83A 1_555 1_555
C88A C83A 1_555 1_555
H51A C84A 1_555 1_555
H52A C85A 1_555 1_555
C89A C85A 1_555 1_555
H53A C86A 1_555 1_555
O8A_2 C87A 1_555 1_555
O5A_2 C87A 1_555 1_555
H54A C88A 1_555 1_555
C90A C89A 1_555 1_555
Cd2A_2 O8A_2 1_555 1_555
Cd1A_2 O5A_2 1_555 1_555
O9A C90A 1_555 1_555
O10A C90A 1_555 1_555
H55A O9A 1_555 1_555
O2 C5 1_555 1_555
O4 C6 1_555 1_555
O5 Cd2 1_555 1_555
C8 C13 1_555 1_555
C10 C15 1_555 1_555
O7 C21 1_555 1_555
C14 C16 1_555 1_555
C18 C20 1_555 1_555
C27 C35 1_555 1_555
C29 C37 1_555 1_555
C32 C41 1_555 1_555
C34 C42 1_555 1_555
C36 C38 1_555 1_555
C44 C47 1_555 1_555
C52 C55 1_555 1_555
C53 C53A 1_555 1_555
C60 C67 1_555 1_555
C71 C80 1_555 1_555
C73 C81 1_555 1_555
C75 C82 1_555 1_555
C84 C88 1_555 1_555
C86 C89 1_555 1_555
C46A C49A 1_555 1_555
C53A C49A 1_555 1_555
C25A C12A 1_555 1_555
C74A C82A 1_555 1_555
O5_2 Cd2_2 1_555 1_555
O4A Cd1A 1_555 1_555
O2A C5A 1_555 1_555
O5A Cd2A 1_555 1_555
C1A C4A 1_555 1_555
C8A C13A 1_555 1_555
C10A C15A 1_555 1_555
O7A C21A 1_555 1_555
C14A C16A 1_555 1_555
C18A C20A 1_555 1_555
C27A C35A 1_555 1_555
C29A C37A 1_555 1_555
C32A C41A 1_555 1_555
C36A C38A 1_555 1_555
C44A C47A 1_555 1_555
C52A C55A 1_555 1_555
C60A C67A 1_555 1_555
C71A C80A 1_555 1_555
C73A C81A 1_555 1_555
C84A C88A 1_555 1_555
C86A C89A 1_555 1_555
O5A_2 Cd2A_2 1_555 1_555

#END
