
#######################################################################
#
#                 Cambridge Crystallographic Data Centre
#                                CCDC 
#
#######################################################################
#
# If this CIF has been generated from an entry in the Cambridge 
# Structural Database, then it will include bibliographic, chemical, 
# crystal, experimental, refinement or atomic coordinate data resulting 
# from the CCDC's data processing and validation procedures.
#
#######################################################################

data_JOFPAX
_symmetry_cell_setting           monoclinic
_symmetry_space_group_name_H-M   'C 2/c'
_symmetry_Int_Tables_number      15
_space_group_name_Hall           '-C 2yn'
loop_
_symmetry_equiv_pos_site_id
_symmetry_equiv_pos_as_xyz
1 x,y,z
2 -x,y,1/2-z
3 1/2+x,1/2+y,z
4 1/2-x,1/2+y,1/2-z
5 -x,-y,-z
6 x,-y,1/2+z
7 1/2-x,1/2-y,-z
8 1/2+x,1/2-y,1/2+z
_cell_length_a                   15.151(3)
_cell_length_b                   11.016(2)
_cell_length_c                   13.328(3)
_cell_angle_alpha                90
_cell_angle_beta                 116.76(3)
_cell_angle_gamma                90
_cell_volume                     1986.25
loop_
_atom_site_label
_atom_site_type_symbol
_atom_site_fract_x
_atom_site_fract_y
_atom_site_fract_z
Ca1 Ca 0.5000 0.31185(3) 0.2500
O1 O 0.85669(7) 0.53995(10) 0.31189(9)
O2 O 0.84911(7) 0.73326(9) 0.25595(9)
O3 O 0.02900(7) 0.51920(9) -0.11584(10)
O4 O 0.07823(7) 0.32619(9) -0.09478(9)
N1 N 0.56167(8) 0.49136(11) 0.16837(10)
N2 N 0.37046(8) 0.44178(11) 0.08587(10)
C1 C 0.65844(10) 0.51283(13) 0.21325(12)
H1 H 0.7011 0.4484 0.2475
C2 C 0.69995(10) 0.62520(13) 0.21237(12)
C3 C 0.63582(10) 0.72061(13) 0.16095(13)
H2 H 0.6602 0.7980 0.1605
C4 C 0.53485(11) 0.69918(13) 0.11010(13)
H3 H 0.4908 0.7617 0.0736
C5 C 0.49997(10) 0.58361(13) 0.11414(12)
C6 C 0.39331(10) 0.55178(13) 0.05977(11)
C7 C 0.32119(10) 0.62950(13) -0.01540(12)
H4 H 0.3389 0.7040 -0.0339
C8 C 0.22295(10) 0.59444(13) -0.06215(12)
H5 H 0.1736 0.6461 -0.1106
C9 C 0.19912(10) 0.48162(13) -0.03592(12)
C10 C 0.27570(10) 0.40829(13) 0.03721(12)
H6 H 0.2600 0.3314 0.0531
C11 C 0.81118(10) 0.63656(13) 0.26407(12)
C12 C 0.09523(10) 0.43584(13) -0.08524(12)
H7 H -0.0304(10) 0.487(2) -0.142(2)
O1A O 0.14331(7) 0.53995(10) 0.18811(9)
O2A O 0.15089(7) 0.73326(9) 0.24405(9)
O3A O 0.97100(7) 0.51920(9) 0.61584(10)
O4A O 0.92177(7) 0.32619(9) 0.59478(9)
N1A N 0.43833(8) 0.49136(11) 0.33163(10)
N2A N 0.62954(8) 0.44178(11) 0.41413(10)
C1A C 0.34156(10) 0.51283(13) 0.28675(12)
H1A H 0.2989 0.4484 0.2525
C2A C 0.30005(10) 0.62520(13) 0.28763(12)
C3A C 0.36418(10) 0.72061(13) 0.33905(13)
H2A H 0.3398 0.7980 0.3395
C4A C 0.46515(11) 0.69918(13) 0.38990(13)
H3A H 0.5092 0.7617 0.4264
C5A C 0.50003(10) 0.58361(13) 0.38586(12)
C6A C 0.60669(10) 0.55178(13) 0.44023(11)
C7A C 0.67881(10) 0.62950(13) 0.51540(12)
H4A H 0.6611 0.7040 0.5339
C8A C 0.77705(10) 0.59444(13) 0.56215(12)
H5A H 0.8264 0.6461 0.6106
C9A C 0.80088(10) 0.48162(13) 0.53592(12)
C10A C 0.72430(10) 0.40829(13) 0.46279(12)
H6A H 0.7400 0.3314 0.4469
C11A C 0.18882(10) 0.63656(13) 0.23593(12)
C12A C 0.90477(10) 0.43584(13) 0.58524(12)
H7A H 1.0304(10) 0.487(2) 0.642(2)
Ca1B Ca 0.0000 0.81185(3) 0.2500
Ca1B_2 Ca 1.0000 0.81185(3) 0.2500
Ca1F Ca 0.0000 0.18815(3) -0.2500
Ca1F_2 Ca 1.0000 0.18815(3) 0.7500
O2B O 0.34911(7) 0.23326(9) 0.25595(9)
O2C O 0.65089(7) 0.23326(9) 0.24405(9)
O4F O 0.42177(7) 0.17381(9) 0.09478(9)
O4G O 0.57823(7) 0.17381(9) 0.40522(9)
loop_
_geom_bond_atom_site_label_1
_geom_bond_atom_site_label_2
_geom_bond_site_symmetry_1
_geom_bond_site_symmetry_2
Ca1 N1 1_555 1_555
O1 C11 1_555 1_555
O2 C11 1_555 1_555
O3 C12 1_555 1_555
O4 C12 1_555 1_555
N1 C1 1_555 1_555
N2 Ca1 1_555 1_555
C1 H1 1_555 1_555
C2 C1 1_555 1_555
C3 C2 1_555 1_555
H2 C3 1_555 1_555
C4 C3 1_555 1_555
H3 C4 1_555 1_555
C5 N1 1_555 1_555
C6 N2 1_555 1_555
C7 C6 1_555 1_555
H4 C7 1_555 1_555
C8 C7 1_555 1_555
H5 C8 1_555 1_555
C9 C8 1_555 1_555
C10 N2 1_555 1_555
H6 C10 1_555 1_555
C11 C2 1_555 1_555
C12 C9 1_555 1_555
H7 O3 1_555 1_555
O1A C11A 1_555 1_555
O2A C11A 1_555 1_555
O3A C12A 1_555 1_555
O4A C12A 1_555 1_555
N1A Ca1 1_555 1_555
N2A Ca1 1_555 1_555
C1A N1A 1_555 1_555
H1A C1A 1_555 1_555
C2A C1A 1_555 1_555
C3A C2A 1_555 1_555
H2A C3A 1_555 1_555
C4A C3A 1_555 1_555
H3A C4A 1_555 1_555
C5A N1A 1_555 1_555
C6A N2A 1_555 1_555
C7A C6A 1_555 1_555
H4A C7A 1_555 1_555
C8A C7A 1_555 1_555
H5A C8A 1_555 1_555
C9A C8A 1_555 1_555
C10A N2A 1_555 1_555
H6A C10A 1_555 1_555
C11A C2A 1_555 1_555
C12A C9A 1_555 1_555
H7A O3A 1_555 1_555
Ca1B O2A 1_555 1_555
Ca1B_2 O2 1_555 1_555
Ca1F O4 1_555 1_555
Ca1F_2 O4A 1_555 1_555
O2B Ca1 1_555 1_555
O2C Ca1 1_555 1_555
O4F Ca1 1_555 1_555
O4G Ca1 1_555 1_555
C4 C5 1_555 1_555
C5 C6 1_555 1_555
C9 C10 1_555 1_555
C4A C5A 1_555 1_555
C5A C6A 1_555 1_555
C9A C10A 1_555 1_555

#END
