
#######################################################################
#
#                 Cambridge Crystallographic Data Centre
#                                CCDC 
#
#######################################################################
#
# If this CIF has been generated from an entry in the Cambridge 
# Structural Database, then it will include bibliographic, chemical, 
# crystal, experimental, refinement or atomic coordinate data resulting 
# from the CCDC's data processing and validation procedures.
#
#######################################################################

data_JOFPIF
_symmetry_cell_setting           monoclinic
_symmetry_space_group_name_H-M   'P 2/c'
_symmetry_Int_Tables_number      13
_space_group_name_Hall           '-P 2yc'
loop_
_symmetry_equiv_pos_site_id
_symmetry_equiv_pos_as_xyz
1 x,y,z
2 -x,y,1/2-z
3 -x,-y,-z
4 x,-y,1/2+z
_cell_length_a                   12.9185(3)
_cell_length_b                   10.43434(14)
_cell_length_c                   31.7650(6)
_cell_angle_alpha                90
_cell_angle_beta                 101.282(2)
_cell_angle_gamma                90
_cell_volume                     4199.05
loop_
_atom_site_label
_atom_site_type_symbol
_atom_site_fract_x
_atom_site_fract_y
_atom_site_fract_z
Mn1 Mn 0.45827(11) 0.65137(13) 0.12893(4)
Mn2 Mn 0.07221(11) 0.10042(13) 0.36810(4)
O1 O 0.4898(6) 0.4247(6) 0.1232(2)
O2 O 0.3995(6) 0.5082(6) 0.1682(2)
O3 O 0.4824(7) -0.0560(7) 0.1044(2)
O4 O 0.4084(5) -0.1755(5) 0.1487(2)
O5 O 0.0065(5) -0.0763(5) 0.3492(2)
O6 O 0.1143(7) -0.1963(7) 0.3964(2)
O7 O -0.0312(5) -0.7583(5) 0.3309(2)
O8 O 0.1072(5) -0.6727(6) 0.3732(2)
N1 N 0.1783(6) 0.0991(7) 0.3202(2)
N2 N -0.3890(7) -0.3465(8) 0.1765(3)
N3 N 0.3144(6) 0.6041(7) 0.0778(2)
N4 N 0.5102(6) 0.6701(7) 0.0669(2)
N5 N -0.0107(6) 0.1436(7) 0.4230(2)
N6 N 0.1957(6) 0.0772(6) 0.4278(2)
C1 C 0.4348(8) 0.4148(9) 0.1508(3)
C2 C 0.4064(8) 0.2813(8) 0.1645(3)
C3 C 0.4309(8) 0.1782(8) 0.1440(3)
H1 H 0.4664 0.1886 0.1214
C4 C 0.4042(7) 0.0514(8) 0.1555(3)
C5 C 0.3518(8) 0.0418(8) 0.1897(3)
H2 H 0.3322 -0.0389 0.1978
C6 C 0.3274(8) 0.1492(8) 0.2124(3)
C7 C 0.3549(7) 0.2693(8) 0.1992(3)
H3 H 0.3389 0.3422 0.2135
C8 C 0.4341(7) -0.0652(9) 0.1340(3)
C9 C 0.2756(8) 0.1328(7) 0.2500(3)
C10 C 0.1911(9) 0.0504(9) 0.2476(3)
H4 H 0.1650 0.0062 0.2224
C11 C 0.1455(9) 0.0344(9) 0.2835(3)
H5 H 0.0901 -0.0235 0.2819
C12 C 0.2569(8) 0.1825(10) 0.3206(3)
H6 H 0.2800 0.2298 0.3454
C13 C 0.3055(8) 0.2025(10) 0.2866(3)
H7 H 0.3588 0.2634 0.2885
C14 C 0.0420(8) -0.1823(8) 0.3643(3)
C15 C -0.0097(7) -0.3007(8) 0.3418(3)
C16 C -0.0921(8) -0.2909(9) 0.3074(3)
H8 H -0.1179 -0.2099 0.2988
C17 C -0.1384(8) -0.3969(9) 0.2849(3)
C18 C -0.1003(7) -0.5179(8) 0.2984(3)
H9 H -0.1307 -0.5903 0.2839
C19 C -0.0183(7) -0.5313(8) 0.3327(3)
C20 C 0.0280(7) -0.4226(9) 0.3539(3)
H10 H 0.0852 -0.4318 0.3765
C21 C 0.0244(8) -0.6631(8) 0.3468(3)
C22 C -0.2266(8) -0.3813(9) 0.2477(3)
C23 C -0.2279(8) -0.4478(10) 0.2102(3)
H11 H -0.1735 -0.5043 0.2080
C24 C -0.3104(9) -0.4302(10) 0.1757(3)
H12 H -0.3115 -0.4782 0.1509
C25 C -0.3881(10) -0.2842(10) 0.2131(4)
H13 H -0.4436 -0.2287 0.2147
C26 C -0.3078(10) -0.2981(11) 0.2495(3)
H14 H -0.3094 -0.2518 0.2744
C27 C 0.2199(9) 0.5698(11) 0.0846(4)
H15 H 0.2092 0.5669 0.1127
C28 C 0.1394(10) 0.5393(13) 0.0527(5)
H16 H 0.0755 0.5123 0.0589
C29 C 0.1513(10) 0.5478(12) 0.0120(5)
H17 H 0.0944 0.5287 -0.0099
C30 C 0.2486(10) 0.5851(11) 0.0014(4)
C31 C 0.3292(8) 0.6118(8) 0.0369(3)
C32 C 0.2709(12) 0.5988(12) -0.0401(4)
H18 H 0.2164 0.5873 -0.0637
C33 C 0.3676(12) 0.6279(10) -0.0470(3)
H19 H 0.3796 0.6307 -0.0749
C34 C 0.4542(10) 0.6551(10) -0.0108(4)
C35 C 0.4343(8) 0.6453(8) 0.0313(3)
C36 C 0.5546(11) 0.6860(12) -0.0149(4)
H20 H 0.5704 0.6898 -0.0422
C37 C 0.6305(10) 0.7109(11) 0.0190(4)
H21 H 0.6980 0.7327 0.0153
C38 C 0.6071(10) 0.7038(11) 0.0615(4)
H22 H 0.6593 0.7227 0.0853
C39 C -0.1090(8) 0.1797(9) 0.4205(3)
H23 H -0.1533 0.1859 0.3937
C40 C -0.1490(9) 0.2092(11) 0.4578(4)
H24 H -0.2181 0.2379 0.4553
C41 C -0.0864(9) 0.1954(10) 0.4968(3)
H25 H -0.1141 0.2099 0.5213
C42 C 0.0179(8) 0.1603(9) 0.5010(3)
C43 C 0.0537(7) 0.1360(8) 0.4623(3)
C44 C 0.0916(10) 0.1470(9) 0.5409(3)
H26 H 0.0691 0.1642 0.5664
C45 C 0.1892(10) 0.1115(10) 0.5426(3)
H27 H 0.2333 0.1007 0.5692
C46 C 0.2301(8) 0.0888(9) 0.5046(3)
C47 C 0.1617(7) 0.0992(8) 0.4642(3)
C48 C 0.3358(8) 0.0516(9) 0.5048(3)
H28 H 0.3836 0.0423 0.5306
C49 C 0.3670(8) 0.0296(10) 0.4669(3)
H29 H 0.4362 0.0058 0.4665
C50 C 0.2946(7) 0.0430(9) 0.4292(3)
H30 H 0.3163 0.0273 0.4034
Mn1_2 Mn -0.54173(11) -0.34863(13) 0.12893(4)
Mn1_3 Mn 0.45827(11) -0.34863(13) 0.12893(4)
Mn2_2 Mn 0.07221(11) -0.89958(13) 0.36810(4)
O4_2 O 0.4084(5) 0.8245(5) 0.1487(2)
O7_2 O -0.0312(5) 0.2417(5) 0.3309(2)
O8_2 O 0.1072(5) 0.3273(6) 0.3732(2)
N2_2 N 0.6110(7) 0.6535(8) 0.1765(3)
loop_
_geom_bond_atom_site_label_1
_geom_bond_atom_site_label_2
_geom_bond_site_symmetry_1
_geom_bond_site_symmetry_2
Mn1 O1 1_555 1_555
Mn2 O5 1_555 1_555
O1 C1 1_555 1_555
O2 Mn1 1_555 1_555
O3 C8 1_555 1_555
O4 C8 1_555 1_555
O5 C14 1_555 1_555
O6 C14 1_555 1_555
O7 C21 1_555 1_555
O8 C21 1_555 1_555
N1 Mn2 1_555 1_555
N2 C24 1_555 1_555
N3 Mn1 1_555 1_555
N4 Mn1 1_555 1_555
N5 Mn2 1_555 1_555
N6 Mn2 1_555 1_555
C1 O2 1_555 1_555
C2 C1 1_555 1_555
C3 C2 1_555 1_555
H1 C3 1_555 1_555
C4 C3 1_555 1_555
C5 C4 1_555 1_555
H2 C5 1_555 1_555
C6 C5 1_555 1_555
C7 C2 1_555 1_555
H3 C7 1_555 1_555
C8 C4 1_555 1_555
C9 C6 1_555 1_555
C10 C9 1_555 1_555
H4 C10 1_555 1_555
C11 N1 1_555 1_555
H5 C11 1_555 1_555
C12 N1 1_555 1_555
H6 C12 1_555 1_555
C13 C9 1_555 1_555
H7 C13 1_555 1_555
C14 C15 1_555 1_555
C15 C16 1_555 1_555
C16 H8 1_555 1_555
C17 C16 1_555 1_555
C18 C17 1_555 1_555
H9 C18 1_555 1_555
C19 C18 1_555 1_555
C20 C15 1_555 1_555
H10 C20 1_555 1_555
C21 C19 1_555 1_555
C22 C17 1_555 1_555
C23 C22 1_555 1_555
H11 C23 1_555 1_555
C24 C23 1_555 1_555
H12 C24 1_555 1_555
C25 N2 1_555 1_555
H13 C25 1_555 1_555
C26 C22 1_555 1_555
H14 C26 1_555 1_555
C27 N3 1_555 1_555
H15 C27 1_555 1_555
C28 C27 1_555 1_555
H16 C28 1_555 1_555
C29 C28 1_555 1_555
H17 C29 1_555 1_555
C30 C29 1_555 1_555
C31 N3 1_555 1_555
C32 C30 1_555 1_555
H18 C32 1_555 1_555
C33 C32 1_555 1_555
H19 C33 1_555 1_555
C34 C33 1_555 1_555
C35 N4 1_555 1_555
C36 C34 1_555 1_555
H20 C36 1_555 1_555
C37 C36 1_555 1_555
H21 C37 1_555 1_555
C38 N4 1_555 1_555
H22 C38 1_555 1_555
C39 N5 1_555 1_555
H23 C39 1_555 1_555
C40 C39 1_555 1_555
H24 C40 1_555 1_555
C41 C40 1_555 1_555
H25 C41 1_555 1_555
C42 C41 1_555 1_555
C43 N5 1_555 1_555
C44 C42 1_555 1_555
H26 C44 1_555 1_555
C45 C44 1_555 1_555
H27 C45 1_555 1_555
C46 C45 1_555 1_555
C47 N6 1_555 1_555
C48 C46 1_555 1_555
H28 C48 1_555 1_555
C49 C48 1_555 1_555
H29 C49 1_555 1_555
C50 N6 1_555 1_555
H30 C50 1_555 1_555
Mn1_2 N2 1_555 1_555
Mn1_3 O4 1_555 1_555
Mn2_2 O7 1_555 1_555
O4_2 Mn1 1_555 1_555
O7_2 Mn2 1_555 1_555
O8_2 Mn2 1_555 1_555
N2_2 Mn1 1_555 1_555
O8 Mn2_2 1_555 1_555
C6 C7 1_555 1_555
C10 C11 1_555 1_555
C12 C13 1_555 1_555
C19 C20 1_555 1_555
C25 C26 1_555 1_555
C30 C31 1_555 1_555
C31 C35 1_555 1_555
C34 C35 1_555 1_555
C37 C38 1_555 1_555
C42 C43 1_555 1_555
C43 C47 1_555 1_555
C46 C47 1_555 1_555
C49 C50 1_555 1_555

#END
