
#######################################################################
#
#                 Cambridge Crystallographic Data Centre
#                                CCDC 
#
#######################################################################
#
# If this CIF has been generated from an entry in the Cambridge 
# Structural Database, then it will include bibliographic, chemical, 
# crystal, experimental, refinement or atomic coordinate data resulting 
# from the CCDC's data processing and validation procedures.
#
#######################################################################

data_JOFQOM
_symmetry_cell_setting           monoclinic
_symmetry_space_group_name_H-M   'P 21/c'
_symmetry_Int_Tables_number      14
_space_group_name_Hall           '-P 2ybc'
loop_
_symmetry_equiv_pos_site_id
_symmetry_equiv_pos_as_xyz
1 x,y,z
2 -x,1/2+y,1/2-z
3 -x,-y,-z
4 x,1/2-y,1/2+z
_cell_length_a                   9.4084(5)
_cell_length_b                   17.0945(9)
_cell_length_c                   8.1850(4)
_cell_angle_alpha                90
_cell_angle_beta                 93.862(2)
_cell_angle_gamma                90
_cell_volume                     1313.42
loop_
_atom_site_label
_atom_site_type_symbol
_atom_site_fract_x
_atom_site_fract_y
_atom_site_fract_z
Gd1 Gd 0.410810(9) 0.242835(6) 0.705131(10)
O1 O 0.36085(15) 0.17588(9) 0.96199(16)
O2 O 0.40897(18) 0.09672(9) 0.76426(18)
O3 O 0.50258(15) 0.18920(9) 0.46493(16)
O4 O 0.55737(15) 0.13596(9) 0.23449(17)
O5 O 0.20673(15) 0.18924(9) 0.56712(17)
O6 O 0.22868(15) 0.17637(9) 0.29763(17)
O7 O 0.66041(15) 0.20619(9) 0.76839(17)
N1 N 0.85606(18) 0.16463(11) 0.9215(2)
C1 C 0.3679(2) 0.10635(13) 0.9040(2)
C2 C 0.3241(2) 0.03857(13) 1.0058(3)
H1 H 0.3903 0.0336 1.1029
H2 H 0.3258 -0.0096 0.9410
H3 H 0.2275 0.0474 1.0398
C3 C 0.5635(2) 0.13501(12) 0.3884(2)
C4 C 0.6441(2) 0.07178(13) 0.4813(3)
H4 H 0.6441 0.0242 0.4144
H5 H 0.5985 0.0609 0.5831
H6 H 0.7424 0.0889 0.5074
C5 C 0.1852(2) 0.15436(12) 0.4324(2)
C6 C 0.0963(2) 0.08070(13) 0.4323(3)
H7 H 0.1174 0.0481 0.3385
H8 H -0.0049 0.0946 0.4244
H9 H 0.1190 0.0517 0.5340
C7 C 0.7191(2) 0.18202(13) 0.8996(2)
H10 H 0.6617 0.1756 0.9899
C8 C 0.9154(2) 0.13471(16) 1.0784(3)
H11 H 0.8443 0.1394 1.1600
H12 H 1.0002 0.1650 1.1142
H13 H 0.9415 0.0796 1.0665
C9 C 0.9538(2) 0.17050(16) 0.7920(3)
H14 H 0.9045 0.1940 0.6947
H15 H 0.9876 0.1182 0.7649
H16 H 1.0351 0.2033 0.8290
Gd1C Gd 0.410810(9) 0.257165(6) 0.205131(10)
Gd1C_2 Gd 0.410810(9) 0.257165(6) 1.205131(10)
O1C O 0.36085(15) 0.32412(9) 0.46199(16)
O3C O 0.50258(15) 0.31080(9) 0.96493(16)
O4C O 0.55737(15) 0.36404(9) 0.73449(17)
O6C O 0.22868(15) 0.32363(9) 0.79763(17)
loop_
_geom_bond_atom_site_label_1
_geom_bond_atom_site_label_2
_geom_bond_site_symmetry_1
_geom_bond_site_symmetry_2
Gd1 O1 1_555 1_555
O1 C1 1_555 1_555
O2 Gd1 1_555 1_555
O3 Gd1 1_555 1_555
O4 C3 1_555 1_555
O5 Gd1 1_555 1_555
O6 C5 1_555 1_555
O7 Gd1 1_555 1_555
N1 C7 1_555 1_555
C1 O2 1_555 1_555
C2 C1 1_555 1_555
H1 C2 1_555 1_555
H2 C2 1_555 1_555
H3 C2 1_555 1_555
C3 O3 1_555 1_555
C4 C3 1_555 1_555
H4 C4 1_555 1_555
H5 C4 1_555 1_555
H6 C4 1_555 1_555
C5 O5 1_555 1_555
C6 C5 1_555 1_555
H7 C6 1_555 1_555
H8 C6 1_555 1_555
H9 C6 1_555 1_555
C7 O7 1_555 1_555
H10 C7 1_555 1_555
C8 N1 1_555 1_555
H11 C8 1_555 1_555
H12 C8 1_555 1_555
H13 C8 1_555 1_555
C9 N1 1_555 1_555
H14 C9 1_555 1_555
H15 C9 1_555 1_555
H16 C9 1_555 1_555
Gd1C O3 1_555 1_555
Gd1C_2 O1 1_555 1_555
O1C Gd1 1_555 1_555
O3C Gd1 1_555 1_555
O4C Gd1 1_555 1_555
O6C Gd1 1_555 1_555
O4 Gd1C 1_555 1_555
O6 Gd1C 1_555 1_555
Gd1C O1C 1_555 1_555
Gd1C_2 O3C 1_555 1_555

#END
