
#######################################################################
#
#                 Cambridge Crystallographic Data Centre
#                                CCDC 
#
#######################################################################
#
# If this CIF has been generated from an entry in the Cambridge 
# Structural Database, then it will include bibliographic, chemical, 
# crystal, experimental, refinement or atomic coordinate data resulting 
# from the CCDC's data processing and validation procedures.
#
#######################################################################

data_JOFQOK
_symmetry_cell_setting           orthorhombic
_symmetry_space_group_name_H-M   'C m c a'
_symmetry_Int_Tables_number      64
_space_group_name_Hall           '-C 2bc 2'
loop_
_symmetry_equiv_pos_site_id
_symmetry_equiv_pos_as_xyz
1 x,y,z
2 1/2+x,1/2+y,z
3 -x,1/2+y,1/2-z
4 -x,1/2-y,1/2+z
5 1/2-x,y,1/2-z
6 1/2-x,-y,1/2+z
7 x,-y,-z
8 1/2+x,1/2-y,-z
9 -x,-y,-z
10 1/2-x,1/2-y,-z
11 x,1/2-y,1/2+z
12 x,1/2+y,1/2-z
13 1/2+x,-y,1/2+z
14 1/2+x,y,1/2-z
15 -x,y,z
16 1/2-x,1/2+y,z
_cell_length_a                   21.9537(13)
_cell_length_b                   16.0270(11)
_cell_length_c                   8.5477(6)
_cell_angle_alpha                90
_cell_angle_beta                 90
_cell_angle_gamma                90
_cell_volume                     3007.52
loop_
_atom_site_label
_atom_site_type_symbol
_atom_site_fract_x
_atom_site_fract_y
_atom_site_fract_z
Cd1 Cd 0.5000 0.0000 0.0000
S1 S 0.5000 -0.15897(6) 0.47724(8)
N1 N 0.5000 -0.11244(13) 0.1631(2)
C1 C 0.5000 -0.13015(14) 0.2948(3)
N2 N 0.28011(6) 0.15320(8) 0.43134(15)
C2 C 0.27520(6) 0.23489(9) 0.44788(18)
C3 C 0.31376(7) 0.29342(10) 0.37328(19)
H1 H 0.3069(10) 0.3512(13) 0.389(2)
C4 C 0.35973(7) 0.26533(10) 0.2800(2)
H2 H 0.3863(11) 0.3024(16) 0.229(3)
C5 C 0.41337(7) 0.14316(9) 0.16587(17)
H3 H 0.4407(9) 0.1779(11) 0.113(2)
N3 N 0.41998(6) 0.06229(8) 0.14750(14)
C6 C 0.37934(8) 0.01072(10) 0.2206(2)
H4 H 0.3855(9) -0.0458(14) 0.203(2)
C7 C 0.33253(7) 0.03797(10) 0.31140(19)
H5 H 0.3053(10) 0.0007(11) 0.363(3)
C8 C 0.32570(6) 0.12472(9) 0.33633(17)
C9 C 0.36690(7) 0.17863(9) 0.25984(18)
C2I C 0.22480(6) 0.26511(9) 0.55212(18)
N2I N 0.21989(6) 0.34680(8) 0.56866(15)
C8I C 0.17430(6) 0.37528(9) 0.66367(17)
C7I C 0.16747(7) 0.46203(10) 0.68860(19)
C6I C 0.12066(8) 0.48928(10) 0.7794(2)
N3I N 0.08002(6) 0.43771(8) 0.85250(14)
C5I C 0.08663(7) 0.35684(9) 0.83413(17)
H3I H 0.0593(9) 0.3221(11) 0.887(2)
C9I C 0.13310(7) 0.32137(9) 0.74016(18)
C4I C 0.14027(7) 0.23467(10) 0.7200(2)
C3I C 0.18624(7) 0.20658(10) 0.62672(19)
H1I H 0.1931(10) 0.1488(13) 0.611(2)
H2I H 0.1137(11) 0.1976(16) 0.771(3)
H4I H 0.1145(9) 0.5458(14) 0.797(2)
H5I H 0.1947(10) 0.4993(11) 0.637(3)
S1H S 0.5000 0.15897(6) -0.47724(8)
N1H N 0.5000 0.11244(13) -0.1631(2)
C1H C 0.5000 0.13015(14) -0.2948(3)
N2N N 0.71989(6) 0.15320(8) 0.43134(15)
C2N C 0.72480(6) 0.23489(9) 0.44788(18)
C3N C 0.68624(7) 0.29342(10) 0.37328(19)
H1N H 0.6931(10) 0.3512(13) 0.389(2)
C4N C 0.64027(7) 0.26533(10) 0.2800(2)
H2N H 0.6137(11) 0.3024(16) 0.229(3)
C5N C 0.58663(7) 0.14316(9) 0.16587(17)
H3N H 0.5593(9) 0.1779(11) 0.113(2)
N3N N 0.58002(6) 0.06229(8) 0.14750(14)
C6N C 0.62066(8) 0.01072(10) 0.2206(2)
H4N H 0.6145(9) -0.0458(14) 0.203(2)
C7N C 0.66747(7) 0.03797(10) 0.31140(19)
H5N H 0.6947(10) 0.0007(11) 0.363(3)
C8N C 0.67430(6) 0.12472(9) 0.33633(17)
C9N C 0.63310(7) 0.17863(9) 0.25984(18)
C2G C 0.77520(6) 0.26511(9) 0.55212(18)
N2G N 0.78011(6) 0.34680(8) 0.56866(15)
C8G C 0.82570(6) 0.37528(9) 0.66367(17)
C7G C 0.83253(7) 0.46203(10) 0.68860(19)
C6G C 0.87934(8) 0.48928(10) 0.7794(2)
N3G N 0.91998(6) 0.43771(8) 0.85250(14)
C5G C 0.91337(7) 0.35684(9) 0.83413(17)
H3G H 0.9407(9) 0.3221(11) 0.887(2)
C9G C 0.86690(7) 0.32137(9) 0.74016(18)
C4G C 0.85973(7) 0.23467(10) 0.7200(2)
C3G C 0.81376(7) 0.20658(10) 0.62672(19)
H1G H 0.8069(10) 0.1488(13) 0.611(2)
H2G H 0.8863(11) 0.1976(16) 0.771(3)
H4G H 0.8855(9) 0.5458(14) 0.797(2)
H5G H 0.8053(10) 0.4993(11) 0.637(3)
N3H N 0.58002(6) -0.06229(8) -0.14750(14)
N3F N 0.41998(6) -0.06229(8) -0.14750(14)
Cd1I Cd 0.0000 0.5000 1.0000
Cd1G Cd 1.0000 0.5000 1.0000
loop_
_geom_bond_atom_site_label_1
_geom_bond_atom_site_label_2
_geom_bond_site_symmetry_1
_geom_bond_site_symmetry_2
Cd1 N1 1_555 1_555
S1 C1 1_555 1_555
N1 C1 1_555 1_555
N2 C2 1_555 1_555
C2 C3 1_555 1_555
C3 H1 1_555 1_555
C4 C3 1_555 1_555
H2 C4 1_555 1_555
C5 H3 1_555 1_555
N3 Cd1 1_555 1_555
C6 N3 1_555 1_555
H4 C6 1_555 1_555
C7 C6 1_555 1_555
H5 C7 1_555 1_555
C8 N2 1_555 1_555
C9 C4 1_555 1_555
C2I C2 1_555 1_555
N2I C2I 1_555 1_555
C8I N2I 1_555 1_555
C7I C8I 1_555 1_555
C6I C7I 1_555 1_555
N3I C6I 1_555 1_555
C5I N3I 1_555 1_555
H3I C5I 1_555 1_555
C9I C8I 1_555 1_555
C4I C9I 1_555 1_555
C3I C2I 1_555 1_555
H1I C3I 1_555 1_555
H2I C4I 1_555 1_555
H4I C6I 1_555 1_555
H5I C7I 1_555 1_555
S1H C1H 1_555 1_555
N1H Cd1 1_555 1_555
C1H N1H 1_555 1_555
N2N C2N 1_555 1_555
C2N C3N 1_555 1_555
C3N H1N 1_555 1_555
C4N C3N 1_555 1_555
H2N C4N 1_555 1_555
C5N H3N 1_555 1_555
N3N Cd1 1_555 1_555
C6N N3N 1_555 1_555
H4N C6N 1_555 1_555
C7N C6N 1_555 1_555
H5N C7N 1_555 1_555
C8N N2N 1_555 1_555
C9N C4N 1_555 1_555
C2G C2N 1_555 1_555
N2G C2G 1_555 1_555
C8G N2G 1_555 1_555
C7G C8G 1_555 1_555
C6G C7G 1_555 1_555
N3G C6G 1_555 1_555
C5G N3G 1_555 1_555
H3G C5G 1_555 1_555
C9G C8G 1_555 1_555
C4G C9G 1_555 1_555
C3G C2G 1_555 1_555
H1G C3G 1_555 1_555
H2G C4G 1_555 1_555
H4G C6G 1_555 1_555
H5G C7G 1_555 1_555
N3H Cd1 1_555 1_555
N3F Cd1 1_555 1_555
Cd1I N3I 1_555 1_555
Cd1G N3G 1_555 1_555
C5 N3 1_555 1_555
C5 C9 1_555 1_555
C7 C8 1_555 1_555
C8 C9 1_555 1_555
C5I C9I 1_555 1_555
C4I C3I 1_555 1_555
C5N N3N 1_555 1_555
C5N C9N 1_555 1_555
C7N C8N 1_555 1_555
C8N C9N 1_555 1_555
C5G C9G 1_555 1_555
C4G C3G 1_555 1_555

#END
