
#######################################################################
#
#                 Cambridge Crystallographic Data Centre
#                                CCDC 
#
#######################################################################
#
# If this CIF has been generated from an entry in the Cambridge 
# Structural Database, then it will include bibliographic, chemical, 
# crystal, experimental, refinement or atomic coordinate data resulting 
# from the CCDC's data processing and validation procedures.
#
#######################################################################

data_JOFTAB
_symmetry_cell_setting           orthorhombic
_symmetry_space_group_name_H-M   'P b c a'
_symmetry_Int_Tables_number      61
_space_group_name_Hall           '-P 2ac 2ab'
loop_
_symmetry_equiv_pos_site_id
_symmetry_equiv_pos_as_xyz
1 x,y,z
2 1/2-x,-y,1/2+z
3 1/2+x,1/2-y,-z
4 -x,1/2+y,1/2-z
5 -x,-y,-z
6 1/2+x,y,1/2-z
7 1/2-x,1/2+y,z
8 x,1/2-y,1/2+z
_cell_length_a                   27.665(11)
_cell_length_b                   21.903(7)
_cell_length_c                   29.854(9)
_cell_angle_alpha                90
_cell_angle_beta                 90
_cell_angle_gamma                90
_cell_volume                     18089.9
loop_
_atom_site_label
_atom_site_type_symbol
_atom_site_fract_x
_atom_site_fract_y
_atom_site_fract_z
C1 C 0.2335(3) -0.1407(3) 1.11660(17)
C2 C 0.6500(3) 0.2413(3) 1.00844(18)
C3 C 0.3329(2) 0.3304(3) 0.96066(17)
C4 C 0.5538(3) -0.1384(3) 1.11778(16)
C5 C 0.5985(3) -0.0995(3) 1.11412(19)
C6 C 0.4741(3) -0.2155(3) 1.12760(19)
H1 H 0.4481 -0.2420 1.1309
C7 C 0.3305(3) 0.2285(3) 1.00132(19)
C8 C 0.0633(3) 0.0961(3) 1.01465(19)
H2 H 0.0918 0.1089 1.0010
C9 C 0.4171(3) -0.1291(3) 1.14141(18)
C10 C -0.1126(3) -0.1020(3) 1.13500(17)
C11 C -0.0224(3) 0.0983(3) 1.0222(2)
H3 H -0.0527 0.1128 1.0137
C12 C 0.6684(3) 0.1378(3) 1.03280(16)
C13 C 0.0034(3) 0.3703(3) 0.91748(19)
C14 C 0.0247(3) 0.5143(3) 0.7184(2)
H4 H 0.0221 0.5566 0.7189
C15 C -0.0704(3) -0.0600(3) 1.12937(18)
C16 C 0.6618(3) 0.4104(3) 0.86288(17)
C17 C 0.6896(3) 0.3789(3) 0.93968(16)
C18 C 0.2793(3) -0.1064(3) 1.10582(19)
C19 C -0.1066(3) -0.1639(3) 1.13540(17)
H5 H -0.0763 -0.1816 1.1323
C20 C -0.2534(4) -0.0863(6) 1.1451(2)
C21 C 0.3161(3) 0.3324(3) 0.88034(17)
C22 C 0.3720(4) 0.0281(3) 1.0494(3)
H6 H 0.3799 -0.0112 1.0401
C23 C 0.0985(3) -0.1132(3) 1.1343(2)
C24 C 0.1878(3) -0.1125(3) 1.11878(16)
H7 H 0.1851 -0.0715 1.1110
C25 C 0.3095(3) 0.2718(3) 0.88082(18)
H8 H 0.3013 0.2519 0.8544
C26 C 0.6647(3) 0.3645(3) 0.89849(17)
C27 C 0.1467(3) -0.1437(3) 1.13210(17)
C28 C 0.4677(3) -0.1529(3) 1.13291(17)
C29 C 0.6716(3) 0.3900(3) 0.74169(19)
H9 H 0.6755 0.3478 0.7422
C30 C 0.5087(3) -0.1162(3) 1.12826(18)
H10 H 0.5053 -0.0743 1.1325
C31 C -0.0029(3) 0.4015(3) 0.83622(19)
C32 C 0.3876(3) 0.4856(3) 0.72482(19)
H11 H 0.4169 0.5013 0.7148
C33 C 0.7112(3) 0.3506(3) 1.01503(17)
H12 H 0.7092 0.3238 1.0391
C34 C 0.0242(3) 0.4212(3) 0.75862(18)
C35 C -0.0096(3) 0.2640(3) 0.9379(2)
C36 C 0.0635(3) 0.0507(3) 1.04714(19)
H13 H 0.0932 0.0341 1.0553
C37 C 0.7033(3) 0.0488(3) 1.0628(2)
H14 H 0.7288 0.0212 1.0629
C38 C 0.3273(3) 0.2661(3) 0.95947(17)
C39 C 0.3309(3) 0.4277(3) 0.9238(2)
H15 H 0.3273 0.4507 0.8978
C40 C 0.0187(3) 0.1220(3) 1.00308(19)
C41 C 0.3469(3) 0.4231(3) 1.0015(2)
H16 H 0.3543 0.4431 1.0281
C42 C 0.6650(3) 0.4211(3) 0.78040(17)
C43 C -0.1597(3) -0.0785(3) 1.13886(18)
H17 H -0.1634 -0.0363 1.1383
C44 C 0.0172(3) 0.4294(3) 0.9316(2)
H18 H 0.0184 0.4607 0.9106
C45 C 0.1512(3) -0.2041(3) 1.14555(19)
H19 H 0.1246 -0.2258 1.1560
C46 C 0.0285(4) 0.4416(3) 0.9738(2)
H20 H 0.0380 0.4810 0.9815
C47 C 0.3865(3) 0.4578(3) 0.7659(2)
H21 H 0.4142 0.4558 0.7835
C48 C -0.1489(3) -0.1999(3) 1.14080(19)
C49 C 0.0219(3) 0.4831(3) 0.75850(19)
H22 H 0.0183 0.5044 0.7853
C50 C 0.3147(3) 0.2373(3) 0.92045(19)
H23 H 0.3096 0.1954 0.9201
C51 C 0.0027(3) 0.3242(3) 0.9507(2)
C52 C 0.3606(3) 0.1295(3) 1.02894(19)
C53 C 0.3265(3) 0.3639(3) 0.92108(17)
C54 C 0.7382(4) 0.4010(4) 1.0190(2)
H24 H 0.7543 0.4087 1.0458
C55 C 0.3073(3) 0.4694(4) 0.7141(2)
H25 H 0.2797 0.4738 0.6966
C56 C 0.7040(3) 0.0951(3) 1.03201(19)
H26 H 0.7285 0.0973 1.0108
C57 C 0.6584(3) 0.2829(3) 0.96968(17)
C58 C 0.6306(3) 0.1315(3) 1.0637(2)
H27 H 0.6052 0.1592 1.0647
C59 C 0.5191(3) -0.2378(3) 1.1175(2)
C60 C 0.6587(3) 0.4823(3) 0.77773(17)
H28 H 0.6543 0.5056 0.8034
C61 C 0.6861(3) 0.3372(3) 0.97575(16)
C62 C 0.6400(3) 0.3117(3) 0.89428(18)
H29 H 0.6245 0.3027 0.8674
C63 C -0.2012(3) -0.1141(4) 1.14353(18)
C64 C 0.3032(3) 0.4409(4) 0.7546(2)
H30 H 0.2733 0.4270 0.7644
C65 C 0.3567(4) 0.0924(4) 1.1020(2)
H31 H 0.3543 0.1017 1.1323
C66 C 0.6726(3) 0.4206(3) 0.70195(18)
H32 H 0.6781 0.3984 0.6759
C67 C 0.2380(3) -0.2019(3) 1.1271(2)
H33 H 0.2672 -0.2226 1.1238
C68 C -0.0151(3) 0.2158(3) 0.9738(3)
C69 C 0.0357(3) 0.4269(3) 0.67980(19)
H34 H 0.0414 0.4065 0.6530
C70 C 0.6326(3) 0.0831(3) 1.0923(2)
H35 H 0.6079 0.0785 1.1131
C71 C 0.3085(3) 0.3621(3) 0.8352(2)
C72 C 0.5595(3) -0.2011(3) 1.11184(18)
H36 H 0.5894 -0.2177 1.1044
C73 C 0.1964(3) -0.2311(3) 1.1431(2)
C74 C 0.0132(3) 0.3394(4) 0.9958(2)
H37 H 0.0110 0.3096 1.0179
C75 C 0.0326(3) 0.3929(3) 0.7181(2)
H38 H 0.0362 0.3507 0.7169
C76 C -0.0174(3) 0.2498(3) 0.8956(2)
H39 H -0.0246 0.2096 0.8879
C77 C -0.0187(3) 0.0527(3) 1.0542(2)
H40 H -0.0468 0.0375 1.0671
C78 C 0.6591(3) 0.5088(3) 0.73658(18)
H41 H 0.6540 0.5507 0.7352
C79 C 0.0263(4) 0.3970(4) 1.0069(2)
H42 H 0.0339 0.4066 1.0364
C80 C -0.0149(3) 0.2948(3) 0.8615(2)
H43 H -0.0199 0.2838 0.8318
C81 C -0.0053(3) 0.3536(3) 0.87215(19)
C82 C 0.7427(3) 0.4418(3) 0.9838(2)
H44 H 0.7617 0.4765 0.9870
C83 C 0.3430(3) 0.3626(3) 1.00088(19)
H45 H 0.3469 0.3409 1.0274
C84 C 0.3399(3) 0.4564(3) 0.9622(2)
H46 H 0.3416 0.4988 0.9629
C85 C 0.6375(3) 0.2704(3) 0.93003(18)
H47 H 0.6211 0.2337 0.9263
C86 C 0.3536(4) 0.1409(4) 1.0718(3)
H48 H 0.3468 0.1803 1.0817
C87 C 0.3436(3) 0.4330(3) 0.78086(19)
C88 C 0.7192(3) 0.4307(3) 0.9446(2)
H49 H 0.7227 0.4578 0.9208
C89 C -0.1944(3) -0.1762(4) 1.1443(2)
H50 H -0.2208 -0.2022 1.1472
C90 C 0.3713(4) 0.0731(4) 1.0174(2)
H51 H 0.3784 0.0638 0.9878
N1 N 0.3627(2) 0.0361(2) 1.09158(16)
N2 N 0.3554(2) 0.1750(2) 0.99592(15)
H52 H 0.3689 0.1685 0.9704
N3 N 0.3428(2) 0.4031(2) 0.82202(15)
H53 H 0.3656 0.4112 0.8406
N4 N 0.3492(2) 0.4913(2) 0.69836(15)
N5 N 0.2006(3) -0.2945(3) 1.1589(3)
N6 N 0.0243(2) 0.0294(2) 1.06724(15)
N7 N 0.0180(2) 0.1708(2) 0.97377(15)
H54 H 0.0405 0.1726 0.9539
N8 N 0.0193(2) 0.3850(2) 0.79705(16)
H55 H 0.0314 0.3488 0.7959
N9 N 0.0311(2) 0.4865(2) 0.67849(14)
N10 N -0.1427(4) -0.2653(3) 1.1439(2)
N11 N 0.6688(2) 0.0413(2) 1.09213(15)
N12 N 0.6698(2) 0.1855(2) 1.00201(14)
H56 H 0.6844 0.1790 0.9771
N13 N 0.6657(2) 0.3880(2) 0.82042(14)
H57 H 0.6691 0.3491 0.8180
N14 N 0.6661(2) 0.4797(2) 0.69842(14)
N15 N 0.5248(3) -0.3038(3) 1.1131(2)
O1 O 0.28687(18) -0.06011(19) 1.13047(13)
O2 O 0.3075(2) -0.1232(2) 1.07617(14)
O3 O 0.08895(18) -0.07231(18) 1.10584(13)
O4 O 0.0685(2) -0.1267(2) 1.16462(15)
O5 O 0.2384(3) -0.3211(3) 1.1517(3)
O6 O 0.1656(3) -0.3164(2) 1.1786(2)
O7 O 0.41315(18) -0.07313(19) 1.13344(14)
O8 O 0.3849(2) -0.1621(2) 1.15549(18)
O9 O 0.6017(2) -0.0575(2) 1.14280(14)
O10 O 0.6299(2) -0.1099(2) 1.08554(16)
O11 O 0.5658(3) -0.3250(2) 1.1156(2)
O12 O 0.4882(3) -0.3327(2) 1.1075(2)
O13 O -0.02953(18) -0.08454(19) 1.11735(14)
O14 O -0.0754(2) -0.00517(19) 1.13673(13)
O15 O -0.2564(4) -0.0357(5) 1.1354(2)
O16 O -0.2855(3) -0.1188(5) 1.1609(4)
O17 O -0.1789(3) -0.2958(3) 1.1443(3)
O18 O -0.1022(3) -0.2862(3) 1.1460(2)
O19 O 0.6268(2) 0.25721(19) 1.04152(13)
O20 O 0.6550(2) 0.4639(2) 0.87014(13)
O21 O 0.3142(3) 0.2452(2) 1.03618(14)
O22 O 0.2760(2) 0.3449(3) 0.81102(17)
O23 O -0.0465(3) 0.2207(3) 1.0025(2)
O24 O -0.0203(2) 0.4517(2) 0.84159(15)
Zn1 Zn 0.35275(3) -0.03025(3) 1.136554(19)
Zn2 Zn 0.02699(3) -0.03161(3) 1.11895(2)
Zn3 Zn 0.66920(3) -0.02504(3) 1.139151(19)
N4G N 0.3492(2) 0.0087(2) 1.19836(15)
N9G N 0.0311(2) 0.0135(2) 1.17849(14)
N14G N 0.6661(2) 0.0203(2) 1.19842(14)
O15_2 O 0.7436(4) -0.0357(5) 1.1354(2)
O16_2 O 0.7145(3) -0.1188(5) 1.1609(4)
Zn1G Zn 0.35275(3) 0.53025(3) 0.636554(19)
Zn2G Zn 0.02699(3) 0.53161(3) 0.61895(2)
Zn3_2 Zn -0.33080(3) -0.02504(3) 1.139151(19)
Zn3G Zn 0.66920(3) 0.52504(3) 0.639151(19)
loop_
_geom_bond_atom_site_label_1
_geom_bond_atom_site_label_2
_geom_bond_site_symmetry_1
_geom_bond_site_symmetry_2
C1 C18 1_555 1_555
C2 C57 1_555 1_555
C3 C38 1_555 1_555
C4 C5 1_555 1_555
C5 O9 1_555 1_555
C6 H1 1_555 1_555
C7 C38 1_555 1_555
C8 H2 1_555 1_555
C9 C28 1_555 1_555
C10 C15 1_555 1_555
C11 H3 1_555 1_555
C12 C56 1_555 1_555
C13 C44 1_555 1_555
C14 H4 1_555 1_555
C15 O13 1_555 1_555
C16 C26 1_555 1_555
C17 C26 1_555 1_555
C18 O1 1_555 1_555
C19 C10 1_555 1_555
H5 C19 1_555 1_555
C20 C63 1_555 1_555
C21 C25 1_555 1_555
C22 H6 1_555 1_555
C23 C27 1_555 1_555
C24 C1 1_555 1_555
H7 C24 1_555 1_555
C25 H8 1_555 1_555
C26 C62 1_555 1_555
C27 C24 1_555 1_555
C28 C6 1_555 1_555
C29 H9 1_555 1_555
C30 C4 1_555 1_555
H10 C30 1_555 1_555
C31 C81 1_555 1_555
C32 H11 1_555 1_555
C33 H12 1_555 1_555
C34 C49 1_555 1_555
C35 C51 1_555 1_555
C36 C8 1_555 1_555
H13 C36 1_555 1_555
C37 H14 1_555 1_555
C38 C50 1_555 1_555
C39 H15 1_555 1_555
C40 C8 1_555 1_555
C41 H16 1_555 1_555
C42 C29 1_555 1_555
C43 C10 1_555 1_555
H17 C43 1_555 1_555
C44 H18 1_555 1_555
C45 C27 1_555 1_555
H19 C45 1_555 1_555
C46 C44 1_555 1_555
H20 C46 1_555 1_555
C47 C32 1_555 1_555
H21 C47 1_555 1_555
C48 C19 1_555 1_555
C49 C14 1_555 1_555
H22 C49 1_555 1_555
C50 C25 1_555 1_555
H23 C50 1_555 1_555
C51 C13 1_555 1_555
C52 C86 1_555 1_555
C53 C3 1_555 1_555
C54 C33 1_555 1_555
H24 C54 1_555 1_555
C55 H25 1_555 1_555
C56 C37 1_555 1_555
H26 C56 1_555 1_555
C57 C61 1_555 1_555
C58 C12 1_555 1_555
H27 C58 1_555 1_555
C59 C6 1_555 1_555
C60 C42 1_555 1_555
H28 C60 1_555 1_555
C61 C17 1_555 1_555
C62 H29 1_555 1_555
C63 C43 1_555 1_555
C64 C55 1_555 1_555
H30 C64 1_555 1_555
C65 H31 1_555 1_555
C66 C29 1_555 1_555
H32 C66 1_555 1_555
C67 C1 1_555 1_555
H33 C67 1_555 1_555
C68 C35 1_555 1_555
C69 H34 1_555 1_555
C70 C58 1_555 1_555
H35 C70 1_555 1_555
C71 C21 1_555 1_555
C72 C4 1_555 1_555
H36 C72 1_555 1_555
C73 C45 1_555 1_555
C74 C51 1_555 1_555
H37 C74 1_555 1_555
C75 C34 1_555 1_555
H38 C75 1_555 1_555
C76 C35 1_555 1_555
H39 C76 1_555 1_555
C77 C11 1_555 1_555
H40 C77 1_555 1_555
C78 C60 1_555 1_555
H41 C78 1_555 1_555
C79 C46 1_555 1_555
H42 C79 1_555 1_555
C80 C76 1_555 1_555
H43 C80 1_555 1_555
C81 C13 1_555 1_555
C82 C54 1_555 1_555
H44 C82 1_555 1_555
C83 C3 1_555 1_555
H45 C83 1_555 1_555
C84 C39 1_555 1_555
H46 C84 1_555 1_555
C85 C57 1_555 1_555
H47 C85 1_555 1_555
C86 C65 1_555 1_555
H48 C86 1_555 1_555
C87 C47 1_555 1_555
C88 C17 1_555 1_555
H49 C88 1_555 1_555
C89 C48 1_555 1_555
H50 C89 1_555 1_555
C90 C22 1_555 1_555
H51 C90 1_555 1_555
N1 C22 1_555 1_555
N2 C7 1_555 1_555
H52 N2 1_555 1_555
N3 C71 1_555 1_555
H53 N3 1_555 1_555
N4 C32 1_555 1_555
N5 C73 1_555 1_555
N6 C36 1_555 1_555
N7 C40 1_555 1_555
H54 N7 1_555 1_555
N8 C31 1_555 1_555
H55 N8 1_555 1_555
N9 C14 1_555 1_555
N10 C48 1_555 1_555
N11 C37 1_555 1_555
N12 C2 1_555 1_555
H56 N12 1_555 1_555
N13 C16 1_555 1_555
H57 N13 1_555 1_555
N14 C66 1_555 1_555
N15 C59 1_555 1_555
O1 Zn1 1_555 1_555
O2 C18 1_555 1_555
O3 C23 1_555 1_555
O4 C23 1_555 1_555
O5 N5 1_555 1_555
O6 N5 1_555 1_555
O7 C9 1_555 1_555
O8 C9 1_555 1_555
O9 Zn3 1_555 1_555
O10 C5 1_555 1_555
O11 N15 1_555 1_555
O12 N15 1_555 1_555
O13 Zn2 1_555 1_555
O14 C15 1_555 1_555
O15 C20 1_555 1_555
O16 C20 1_555 1_555
O17 N10 1_555 1_555
O18 N10 1_555 1_555
O19 C2 1_555 1_555
O20 C16 1_555 1_555
O21 C7 1_555 1_555
O22 C71 1_555 1_555
O23 C68 1_555 1_555
O24 C31 1_555 1_555
Zn1 N1 1_555 1_555
Zn2 N6 1_555 1_555
Zn3 N11 1_555 1_555
N4G Zn1 1_555 1_555
N9G Zn2 1_555 1_555
N14G Zn3 1_555 1_555
O15_2 Zn3 1_555 1_555
O16_2 Zn3 1_555 1_555
Zn1G N4 1_555 1_555
Zn2G N9 1_555 1_555
Zn3_2 O15 1_555 1_555
Zn3G N14 1_555 1_555
C11 C40 1_555 1_555
C12 N12 1_555 1_555
C21 C53 1_555 1_555
C28 C30 1_555 1_555
C33 C61 1_555 1_555
C34 N8 1_555 1_555
C39 C53 1_555 1_555
C41 C83 1_555 1_555
C41 C84 1_555 1_555
C42 N13 1_555 1_555
C52 C90 1_555 1_555
C52 N2 1_555 1_555
C55 N4 1_555 1_555
C59 C72 1_555 1_555
C62 C85 1_555 1_555
C63 C89 1_555 1_555
C64 C87 1_555 1_555
C65 N1 1_555 1_555
C67 C73 1_555 1_555
C68 N7 1_555 1_555
C69 C75 1_555 1_555
C69 N9 1_555 1_555
C70 N11 1_555 1_555
C74 C79 1_555 1_555
C77 N6 1_555 1_555
C78 N14 1_555 1_555
C80 C81 1_555 1_555
C82 C88 1_555 1_555
C87 N3 1_555 1_555
O3 Zn2 1_555 1_555
O7 Zn1 1_555 1_555
O16 Zn3_2 1_555 1_555

#END
