
#######################################################################
#
#                 Cambridge Crystallographic Data Centre
#                                CCDC 
#
#######################################################################
#
# If this CIF has been generated from an entry in the Cambridge 
# Structural Database, then it will include bibliographic, chemical, 
# crystal, experimental, refinement or atomic coordinate data resulting 
# from the CCDC's data processing and validation procedures.
#
#######################################################################

data_JOFTOP
_symmetry_cell_setting           monoclinic
_symmetry_space_group_name_H-M   'P 21/c'
_symmetry_Int_Tables_number      14
_space_group_name_Hall           '-P 2ybc'
loop_
_symmetry_equiv_pos_site_id
_symmetry_equiv_pos_as_xyz
1 x,y,z
2 -x,1/2+y,1/2-z
3 -x,-y,-z
4 x,1/2-y,1/2+z
_cell_length_a                   8.5394(7)
_cell_length_b                   17.9536(16)
_cell_length_c                   14.6460(10)
_cell_angle_alpha                90
_cell_angle_beta                 118.236(4)
_cell_angle_gamma                90
_cell_volume                     1978.23
loop_
_atom_site_label
_atom_site_type_symbol
_atom_site_fract_x
_atom_site_fract_y
_atom_site_fract_z
C1 C 0.5422(6) 0.9251(2) 0.3958(4)
C2 C -0.6257(6) 0.9683(3) 0.0783(4)
C3 C 0.5875(6) 0.8628(2) 0.3452(4)
C4 C -0.2239(6) 0.9657(3) 0.1851(4)
H1 H -0.2754 0.9254 0.1411
C5 C -0.3291(6) 1.0166(3) 0.2027(4)
C6 C -0.8793(7) 1.0592(3) 0.0167(4)
C7 C -0.9368(6) 0.9265(3) 0.0215(4)
C8 C 0.7651(6) 0.8445(3) 0.3651(4)
C9 C -0.8195(6) 0.9861(3) 0.0389(4)
C10 C 0.6421(7) 0.7386(3) 0.2473(4)
C11 C 0.7894(7) 0.7814(3) 0.3134(4)
C12 C 0.6602(8) 0.6709(3) 0.1905(5)
C13 C -0.0436(6) 0.9756(3) 0.2333(4)
H2 H 0.0252 0.9410 0.2209
C14 C 0.4760(8) 0.7574(3) 0.2295(5)
H3 H 0.3793 0.7288 0.1847
C15 C -0.2448(7) 1.0736(4) 0.2691(5)
H4 H -0.3107 1.1081 0.2842
C16 C 0.4496(7) 0.8193(3) 0.2779(4)
H5 H 0.3346 0.8314 0.2641
C17 C -0.0652(7) 1.0807(3) 0.3138(5)
H6 H -0.0116 1.1208 0.3578
C18 C -0.7619(12) 1.1186(6) 0.0155(7)
H7 H -0.6433 1.1080 0.0362
C19 C -0.8241(15) 1.1893(6) -0.0154(9)
H8 H -0.7459 1.2270 -0.0106
C20 C 0.9173(7) 0.8885(3) 0.4300(4)
H9 H 0.9030 0.9308 0.4621
C21 C 1.0831(8) 0.8697(4) 0.4457(5)
H10 H 1.1804 0.8989 0.4884
C22 C 1.1068(9) 0.8071(5) 0.3981(7)
H11 H 1.2206 0.7942 0.4105
C23 C 0.9669(9) 0.7645(4) 0.3338(6)
H12 H 0.9866 0.7232 0.3022
N1 N 0.0384(5) 1.0320(2) 0.2969(3)
N2 N -0.5126(5) 1.0124(3) 0.1588(3)
H13 H -0.5445 1.0434 0.1924
O1 O 0.3852(4) 0.94918(18) 0.3482(3)
O2 O 0.6567(5) 0.95161(19) 0.4802(3)
O3 O 0.6070(5) 0.6100(2) 0.2030(3)
O4 O 0.7306(8) 0.6780(3) 0.1333(4)
O5 O -0.5759(5) 0.9200(3) 0.0409(3)
Zn1 Zn 0.30453(6) 1.04469(3) 0.37646(4)
H14 H -1.0529 1.2518 -0.0818
C24 C -1.0065(14) 1.2053(7) -0.0547(9)
H15 H -1.2346 1.1586 -0.0706
C25 C -1.1168(13) 1.1468(6) -0.0510(8)
C2B C -1.3743(6) 1.0317(3) -0.0783(4)
C4B C -1.7761(6) 1.0343(3) -0.1851(4)
H1B H -1.7246 1.0746 -0.1411
C5B C -1.6709(6) 0.9834(3) -0.2027(4)
C6B C -1.1207(7) 0.9408(3) -0.0167(4)
C7B C -1.0632(6) 1.0735(3) -0.0215(4)
C9B C -1.1805(6) 1.0139(3) -0.0389(4)
C13B C -1.9564(6) 1.0244(3) -0.2333(4)
H2B H -2.0252 1.0590 -0.2209
C15B C -1.7552(7) 0.9264(4) -0.2691(5)
H4B H -1.6893 0.8919 -0.2842
C17B C -1.9348(7) 0.9193(3) -0.3138(5)
H6B H -1.9884 0.8792 -0.3578
C18B C -1.2381(12) 0.8814(6) -0.0155(7)
H7B H -1.3567 0.8920 -0.0362
C19B C -1.1759(15) 0.8107(6) 0.0154(9)
H8B H -1.2541 0.7730 0.0106
N1B N -2.0384(5) 0.9680(2) -0.2969(3)
N2B N -1.4874(5) 0.9876(3) -0.1588(3)
H13B H -1.4555 0.9566 -0.1924
O5B O -1.4241(5) 1.0800(3) -0.0409(3)
H14B H -0.9471 0.7482 0.0818
C24B C -0.9935(14) 0.7947(7) 0.0547(9)
H15B H -0.7654 0.8414 0.0706
C25B C -0.8832(13) 0.8532(6) 0.0510(8)
C1B C -2.5422(6) 1.0749(2) -0.3958(4)
C3B C -2.5875(6) 1.1372(2) -0.3452(4)
C8B C -2.7651(6) 1.1555(3) -0.3651(4)
C10B C -2.6421(7) 1.2614(3) -0.2473(4)
C11B C -2.7894(7) 1.2186(3) -0.3134(4)
C12B C -2.6602(8) 1.3291(3) -0.1905(5)
C14B C -2.4760(8) 1.2426(3) -0.2295(5)
H3B H -2.3793 1.2712 -0.1847
C16B C -2.4496(7) 1.1807(3) -0.2779(4)
H5B H -2.3346 1.1686 -0.2641
C20B C -2.9173(7) 1.1115(3) -0.4300(4)
H9B H -2.9030 1.0692 -0.4621
C21B C -3.0831(8) 1.1303(4) -0.4457(5)
H10B H -3.1804 1.1011 -0.4884
C22B C -3.1068(9) 1.1929(5) -0.3981(7)
H11B H -3.2206 1.2058 -0.4105
C23B C -2.9669(9) 1.2355(4) -0.3338(6)
H12B H -2.9866 1.2768 -0.3022
O1B O -2.3852(4) 1.05082(18) -0.3482(3)
O2B O -2.6567(5) 1.04839(19) -0.4802(3)
O3B O -2.6070(5) 1.3900(2) -0.2030(3)
O4B O -2.7306(8) 1.3220(3) -0.1333(4)
Zn1B Zn -2.30453(6) 0.95531(3) -0.37646(4)
O2_2 O -2.3433(5) 0.95161(19) -0.5198(3)
O2B_2 O 0.3433(5) 1.04839(19) 0.5198(3)
O3A O 0.3930(5) 1.1100(2) 0.2970(3)
O3C O -2.3930(5) 0.8900(2) -0.2970(3)
O4A O 0.2694(8) 1.1780(3) 0.3667(4)
O4C O -2.2694(8) 0.8220(3) -0.3667(4)
Zn1_2 Zn -2.69547(6) 1.04469(3) -0.62354(4)
Zn1A Zn 0.69547(6) 0.54469(3) 0.12354(4)
Zn1B_2 Zn 0.69547(6) 0.95531(3) 0.62354(4)
Zn1C Zn -2.69547(6) 1.45531(3) -0.12354(4)
loop_
_geom_bond_atom_site_label_1
_geom_bond_atom_site_label_2
_geom_bond_site_symmetry_1
_geom_bond_site_symmetry_2
C1 C3 1_555 1_555
C2 C9 1_555 1_555
C3 C8 1_555 1_555
C4 H1 1_555 1_555
C5 C4 1_555 1_555
C6 C9 1_555 1_555
C7 C9 1_555 1_555
C8 C11 1_555 1_555
C10 C11 1_555 1_555
C11 C23 1_555 1_555
C12 C10 1_555 1_555
C13 C4 1_555 1_555
H2 C13 1_555 1_555
C14 C10 1_555 1_555
H3 C14 1_555 1_555
C15 C5 1_555 1_555
H4 C15 1_555 1_555
C16 C3 1_555 1_555
H5 C16 1_555 1_555
C17 C15 1_555 1_555
H6 C17 1_555 1_555
C18 C6 1_555 1_555
H7 C18 1_555 1_555
C19 C18 1_555 1_555
H8 C19 1_555 1_555
C20 C8 1_555 1_555
H9 C20 1_555 1_555
C21 C20 1_555 1_555
H10 C21 1_555 1_555
C22 C21 1_555 1_555
H11 C22 1_555 1_555
C23 C22 1_555 1_555
H12 C23 1_555 1_555
N1 C13 1_555 1_555
N2 C2 1_555 1_555
H13 N2 1_555 1_555
O1 C1 1_555 1_555
O2 C1 1_555 1_555
O3 C12 1_555 1_555
O4 C12 1_555 1_555
O5 C2 1_555 1_555
Zn1 N1 1_555 1_555
H14 C24 1_555 1_555
C24 C19 1_555 1_555
H15 C25 1_555 1_555
C25 C24 1_555 1_555
C2B C9B 1_555 1_555
C4B H1B 1_555 1_555
C5B C4B 1_555 1_555
C6B C7 1_555 1_555
C7B C6 1_555 1_555
C9B C6B 1_555 1_555
C13B C4B 1_555 1_555
H2B C13B 1_555 1_555
C15B C5B 1_555 1_555
H4B C15B 1_555 1_555
C17B C15B 1_555 1_555
H6B C17B 1_555 1_555
C18B C6B 1_555 1_555
H7B C18B 1_555 1_555
C19B C18B 1_555 1_555
H8B C19B 1_555 1_555
N1B C13B 1_555 1_555
N2B C2B 1_555 1_555
H13B N2B 1_555 1_555
O5B C2B 1_555 1_555
H14B C24B 1_555 1_555
C24B C19B 1_555 1_555
H15B C25B 1_555 1_555
C25B C7 1_555 1_555
C1B C3B 1_555 1_555
C3B C8B 1_555 1_555
C8B C11B 1_555 1_555
C10B C11B 1_555 1_555
C11B C23B 1_555 1_555
C12B C10B 1_555 1_555
C14B C10B 1_555 1_555
H3B C14B 1_555 1_555
C16B C3B 1_555 1_555
H5B C16B 1_555 1_555
C20B C8B 1_555 1_555
H9B C20B 1_555 1_555
C21B C20B 1_555 1_555
H10B C21B 1_555 1_555
C22B C21B 1_555 1_555
H11B C22B 1_555 1_555
C23B C22B 1_555 1_555
H12B C23B 1_555 1_555
O1B C1B 1_555 1_555
O2B C1B 1_555 1_555
O3B C12B 1_555 1_555
O4B C12B 1_555 1_555
Zn1B N1B 1_555 1_555
O2_2 Zn1B 1_555 1_555
O2B_2 Zn1 1_555 1_555
O3A Zn1 1_555 1_555
O3C Zn1B 1_555 1_555
O4A Zn1 1_555 1_555
O4C Zn1B 1_555 1_555
Zn1_2 O2B 1_555 1_555
Zn1A O3 1_555 1_555
Zn1B_2 O2 1_555 1_555
Zn1C O3B 1_555 1_555
C5 N2 1_555 1_555
C14 C16 1_555 1_555
C17 N1 1_555 1_555
O1 Zn1 1_555 1_555
O4 Zn1A 1_555 1_555
C25 C7B 1_555 1_555
C5B N2B 1_555 1_555
C7B C9B 1_555 1_555
C17B N1B 1_555 1_555
C24B C25B 1_555 1_555
C14B C16B 1_555 1_555
O1B Zn1B 1_555 1_555
O4B Zn1C 1_555 1_555

#END
