
#######################################################################
#
#                 Cambridge Crystallographic Data Centre
#                                CCDC 
#
#######################################################################
#
# If this CIF has been generated from an entry in the Cambridge 
# Structural Database, then it will include bibliographic, chemical, 
# crystal, experimental, refinement or atomic coordinate data resulting 
# from the CCDC's data processing and validation procedures.
#
#######################################################################

data_JOFVOR
_symmetry_cell_setting           orthorhombic
_symmetry_space_group_name_H-M   'P b c a'
_symmetry_Int_Tables_number      61
_space_group_name_Hall           '-P 2ac 2ab'
loop_
_symmetry_equiv_pos_site_id
_symmetry_equiv_pos_as_xyz
1 x,y,z
2 1/2-x,-y,1/2+z
3 1/2+x,1/2-y,-z
4 -x,1/2+y,1/2-z
5 -x,-y,-z
6 1/2+x,y,1/2-z
7 1/2-x,1/2+y,z
8 x,1/2-y,1/2+z
_cell_length_a                   17.2322(5)
_cell_length_b                   17.4969(5)
_cell_length_c                   20.5736(6)
_cell_angle_alpha                90
_cell_angle_beta                 90
_cell_angle_gamma                90
_cell_volume                     6203.15
loop_
_atom_site_label
_atom_site_type_symbol
_atom_site_fract_x
_atom_site_fract_y
_atom_site_fract_z
C1 C 0.54912(8) 0.66195(9) 0.13746(7)
C2 C 0.70503(8) 0.79880(9) 0.06067(7)
C3 C 0.59298(8) 0.75425(9) 0.22461(7)
C4 C 0.77574(8) 0.69501(9) 0.12034(7)
C5 C 0.57224(9) 0.80903(9) 0.10000(8)
C6 C 0.65038(8) 0.65759(9) 0.04975(7)
C7 C 0.72166(8) 0.81113(9) 0.18795(7)
C8 C 0.68055(8) 0.63313(9) 0.20000(7)
C9 C 0.46662(10) 0.53454(11) 0.28801(9)
C10 C 0.41108(9) 0.47015(10) 0.27270(8)
C11 C 0.38512(10) 0.46771(10) 0.20251(8)
C12 C 0.37413(11) 0.79004(11) 0.15585(12)
C13 C 0.30893(10) 0.75374(10) 0.11676(9)
C14 C 0.22946(10) 0.77856(10) 0.14061(9)
C15 C 0.63640(10) 1.00722(10) -0.11716(8)
C16 C 0.68997(9) 1.02093(9) -0.05966(8)
C17 C 0.64950(9) 1.00975(10) 0.00515(8)
C18 C 0.90978(10) 0.90206(11) 0.12933(8)
C19 C 0.96886(9) 0.87544(10) 0.07981(8)
C20 C 0.93275(9) 0.84636(9) 0.01735(8)
N1 N 0.49209(7) 0.62778(8) 0.14176(6)
N2 N 0.73114(8) 0.83538(8) 0.01955(7)
N3 N 0.55836(8) 0.76362(9) 0.27174(7)
N4 N 0.83953(8) 0.67996(9) 0.10905(7)
N5 N 0.52916(8) 0.85243(9) 0.07796(8)
N6 N 0.64765(8) 0.62025(9) 0.00355(7)
N7 N 0.75802(8) 0.85687(9) 0.21481(7)
N8 N 0.68913(8) 0.58230(9) 0.23525(7)
N9 N 0.43118(9) 0.61022(9) 0.28020(7)
N10 N 0.33337(8) 0.53220(8) 0.18701(7)
N11 N 0.38442(9) 0.74904(9) 0.21763(9)
N12 N 0.16952(8) 0.73540(8) 0.10438(7)
N13 N 0.62251(8) 0.92430(8) -0.12322(7)
N14 N 0.70982(8) 1.01238(9) 0.05611(7)
N15 N 0.86618(9) 0.96992(9) 0.10710(7)
N16 N 0.89513(8) 0.90895(8) -0.01912(7)
O1 O 0.34612(8) 0.47964(8) 0.31450(6)
O2 O 0.31385(6) 0.67275(6) 0.12140(5)
O3 O 0.75352(6) 0.96882(6) -0.06325(5)
O4 O 1.01938(7) 0.93860(7) 0.06654(6)
Cu1 Cu 0.374668(10) 0.637417(11) 0.197294(9)
Cu2 Cu 0.713389(10) 0.868143(11) -0.087141(10)
Cu3 Cu 0.806049(11) 0.961604(11) 0.022604(9)
Mo1 Mo 0.656028(6) 0.727487(7) 0.135526(6)
H1 H 0.3142(16) 0.4443(16) 0.3059(13)
H2 H 1.0510(11) 0.9235(12) 0.0518(10)
H3 H 0.4683(14) 0.6450(14) 0.2852(12)
H4 H 0.3985(13) 0.6154(13) 0.3083(11)
H5 H 0.5139(12) 0.5315(12) 0.2582(10)
H6 H 0.4802(11) 0.5290(12) 0.3345(10)
H7 H 0.4459(11) 0.4243(11) 0.2787(9)
H8 H 0.4314(12) 0.4689(12) 0.1720(11)
H9 H 0.3576(12) 0.4210(13) 0.1965(10)
H10 H 0.3197(12) 0.5260(13) 0.1524(11)
H11 H 0.2957(11) 0.5305(11) 0.2125(9)
H12 H 0.4269(13) 0.7612(13) 0.2340(11)
H13 H 0.3492(13) 0.7619(13) 0.2474(11)
H14 H 0.4266(13) 0.7869(13) 0.1313(10)
H15 H 0.3637(12) 0.8417(14) 0.1626(11)
H16 H 0.3131(11) 0.7659(11) 0.0698(10)
H17 H 0.2191(11) 0.8360(12) 0.1346(10)
H18 H 0.2270(11) 0.7630(12) 0.1895(10)
H19 H 0.1606(11) 0.7527(12) 0.0704(11)
H20 H 0.1255(12) 0.7361(11) 0.1266(9)
H21 H 0.6208(12) 0.9151(13) -0.1605(11)
H22 H 0.5800(12) 0.9125(12) -0.1012(10)
H23 H 0.6601(10) 1.0246(11) -0.1553(9)
H24 H 0.5846(11) 1.0356(11) -0.1092(9)
H25 H 0.7105(10) 1.0712(11) -0.0606(9)
H26 H 0.6113(11) 1.0456(11) 0.0114(9)
H27 H 0.6240(10) 0.9588(10) 0.0096(8)
H28 H 0.7197(13) 1.0542(14) 0.0652(11)
H29 H 0.6933(12) 0.9967(13) 0.0932(10)
H30 H 0.8318(12) 0.9813(13) 0.1377(10)
H31 H 0.9007(13) 1.0073(13) 0.1042(10)
H32 H 0.8747(11) 0.8609(11) 0.1376(9)
H33 H 0.9334(12) 0.9143(12) 0.1713(10)
H34 H 0.9939(11) 0.8330(12) 0.0987(9)
H35 H 0.8924(11) 0.8123(11) 0.0292(9)
H36 H 0.9727(11) 0.8213(11) -0.0064(9)
H37 H 0.8755(11) 0.8859(12) -0.0573(10)
H38 H 0.9251(12) 0.9373(13) -0.0272(10)
N12B N 0.66952(8) 0.76460(8) -0.10438(7)
O2B O 0.81385(6) 0.82725(6) -0.12140(5)
Cu2B Cu 0.213389(10) 0.631857(11) 0.087141(10)
O5 O 0.49939(8) 0.84048(9) 0.93812(7)
H39 H 0.4956(15) 0.8417(14) 0.9782(12)
H40 H 0.4556(16) 0.8350(15) 0.9291(13)
loop_
_geom_bond_atom_site_label_1
_geom_bond_atom_site_label_2
_geom_bond_site_symmetry_1
_geom_bond_site_symmetry_2
C1 N1 1_555 1_555
C2 N2 1_555 1_555
C3 N3 1_555 1_555
C4 N4 1_555 1_555
C5 N5 1_555 1_555
C6 N6 1_555 1_555
C7 N7 1_555 1_555
C8 N8 1_555 1_555
C9 C10 1_555 1_555
C10 C11 1_555 1_555
C11 N10 1_555 1_555
C12 C13 1_555 1_555
C13 C14 1_555 1_555
C14 N12 1_555 1_555
C15 C16 1_555 1_555
C16 C17 1_555 1_555
C17 N14 1_555 1_555
C18 C19 1_555 1_555
C19 C20 1_555 1_555
C20 N16 1_555 1_555
N1 Cu1 1_555 1_555
N2 Cu2 1_555 1_555
N9 C9 1_555 1_555
N10 Cu1 1_555 1_555
N11 C12 1_555 1_555
N12 H19 1_555 1_555
N13 C15 1_555 1_555
N14 Cu3 1_555 1_555
N15 C18 1_555 1_555
N16 Cu3 1_555 1_555
O1 C10 1_555 1_555
O2 C13 1_555 1_555
O3 C16 1_555 1_555
O4 C19 1_555 1_555
Cu1 N9 1_555 1_555
Cu2 N13 1_555 1_555
Cu3 N2 1_555 1_555
Mo1 C1 1_555 1_555
H1 O1 1_555 1_555
H2 O4 1_555 1_555
H3 N9 1_555 1_555
H4 N9 1_555 1_555
H5 C9 1_555 1_555
H6 C9 1_555 1_555
H7 C10 1_555 1_555
H8 C11 1_555 1_555
H9 C11 1_555 1_555
H10 N10 1_555 1_555
H11 N10 1_555 1_555
H12 N11 1_555 1_555
H13 N11 1_555 1_555
H14 C12 1_555 1_555
H15 C12 1_555 1_555
H16 C13 1_555 1_555
H17 C14 1_555 1_555
H18 C14 1_555 1_555
H20 N12 1_555 1_555
H21 N13 1_555 1_555
H22 N13 1_555 1_555
H23 C15 1_555 1_555
H24 C15 1_555 1_555
H25 C16 1_555 1_555
H26 C17 1_555 1_555
H27 C17 1_555 1_555
H28 N14 1_555 1_555
H29 N14 1_555 1_555
H30 N15 1_555 1_555
H31 N15 1_555 1_555
H32 C18 1_555 1_555
H33 C18 1_555 1_555
H34 C19 1_555 1_555
H35 C20 1_555 1_555
H36 C20 1_555 1_555
H37 N16 1_555 1_555
H38 N16 1_555 1_555
O5 H39 1_555 1_555
H40 O5 1_555 1_555
N12B Cu2 1_555 1_555
O2B Cu2 1_555 1_555
Cu2B N12 1_555 1_555
C2 Mo1 1_555 1_555
C3 Mo1 1_555 1_555
C4 Mo1 1_555 1_555
C5 Mo1 1_555 1_555
C6 Mo1 1_555 1_555
C7 Mo1 1_555 1_555
C8 Mo1 1_555 1_555
N11 Cu1 1_555 1_555
N15 Cu3 1_555 1_555
O2 Cu1 1_555 1_555
O2 Cu2B 1_555 1_555
O3 Cu2 1_555 1_555
O3 Cu3 1_555 1_555

#END
