
#######################################################################
#
#                 Cambridge Crystallographic Data Centre
#                                CCDC 
#
#######################################################################
#
# If this CIF has been generated from an entry in the Cambridge 
# Structural Database, then it will include bibliographic, chemical, 
# crystal, experimental, refinement or atomic coordinate data resulting 
# from the CCDC's data processing and validation procedures.
#
#######################################################################

data_JOFZOV
_symmetry_cell_setting           monoclinic
_symmetry_space_group_name_H-M   'C 2/c'
_symmetry_Int_Tables_number      15
_space_group_name_Hall           '-C 2yn'
loop_
_symmetry_equiv_pos_site_id
_symmetry_equiv_pos_as_xyz
1 x,y,z
2 -x,y,1/2-z
3 1/2+x,1/2+y,z
4 1/2-x,1/2+y,1/2-z
5 -x,-y,-z
6 x,-y,1/2+z
7 1/2-x,1/2-y,-z
8 1/2+x,1/2-y,1/2+z
_cell_length_a                   15.3873(6)
_cell_length_b                   17.0868(4)
_cell_length_c                   8.0685(2)
_cell_angle_alpha                90
_cell_angle_beta                 112.529(3)
_cell_angle_gamma                90
_cell_volume                     1959.48
loop_
_atom_site_label
_atom_site_type_symbol
_atom_site_fract_x
_atom_site_fract_y
_atom_site_fract_z
Eu1 Eu 0.38246(2) 0.474564(16) 0.04411(4)
O1 O 0.3911(3) 0.6067(2) 0.1207(6)
O2 O 0.3850(3) 0.6359(2) 0.3833(6)
O3 O 0.2369(3) 0.8950(3) 0.4173(7)
O4 O 0.4507(3) 0.5468(2) -0.1409(6)
O5 O 0.2397(3) 0.9875(2) 0.2272(7)
C1 C 0.3155(4) 0.8677(3) 0.2210(8)
C2 C 0.2622(4) 0.9195(4) 0.2973(9)
C3 C 0.3275(4) 0.7888(3) 0.2679(8)
H1 H 0.3083 0.7694 0.3561
C4 C 0.3490(4) 0.8961(4) 0.0959(9)
H2 H 0.3427 0.9491 0.0680
C5 C 0.3985(4) 0.7696(3) 0.0540(9)
H3 H 0.4241 0.7356 -0.0053
C6 C 0.3684(4) 0.7397(3) 0.1822(8)
C7 C 0.3918(4) 0.8481(4) 0.0110(9)
C8 C 0.4280(6) 0.8799(5) -0.1233(13)
H4 H 0.4218 0.9358 -0.1284
H5 H 0.3924 0.8581 -0.2393
H6 H 0.4931 0.8661 -0.0882
C9 C 0.3820(4) 0.6554(3) 0.2312(8)
H7 H 0.488(8) 0.585(5) -0.129(19)
Eu1C Eu 0.11754(2) 0.974564(16) 0.45589(4)
Eu1D Eu 0.61754(2) 0.525436(16) -0.04411(4)
Eu1E Eu 0.38246(2) 0.525436(16) -0.45589(4)
Eu1E_2 Eu 0.38246(2) 0.525436(16) 0.54411(4)
Eu1F Eu 0.11754(2) 1.025436(16) -0.04411(4)
O2E O 0.3850(3) 0.3641(2) -0.1167(6)
O3C O 0.2631(3) 0.3950(3) 0.0827(7)
O4D O 0.5493(3) 0.4532(2) 0.1409(6)
O4E O 0.4507(3) 0.4532(2) 0.3591(6)
O5F O 0.2603(3) 0.5125(2) -0.2272(7)
loop_
_geom_bond_atom_site_label_1
_geom_bond_atom_site_label_2
_geom_bond_site_symmetry_1
_geom_bond_site_symmetry_2
Eu1 O1 1_555 1_555
O1 C9 1_555 1_555
O2 C9 1_555 1_555
O3 C2 1_555 1_555
O4 Eu1 1_555 1_555
O5 C2 1_555 1_555
C1 C2 1_555 1_555
C3 C1 1_555 1_555
H1 C3 1_555 1_555
C4 C1 1_555 1_555
H2 C4 1_555 1_555
C5 H3 1_555 1_555
C6 C3 1_555 1_555
C7 C4 1_555 1_555
C8 C7 1_555 1_555
H4 C8 1_555 1_555
H5 C8 1_555 1_555
H6 C8 1_555 1_555
C9 C6 1_555 1_555
H7 O4 1_555 1_555
Eu1C O3 1_555 1_555
Eu1D O4 1_555 1_555
Eu1E O4 1_555 1_555
Eu1E_2 O2 1_555 1_555
Eu1F O5 1_555 1_555
O2E Eu1 1_555 1_555
O3C Eu1 1_555 1_555
O4D Eu1 1_555 1_555
O4E Eu1 1_555 1_555
O5F Eu1 1_555 1_555
C5 C6 1_555 1_555
C5 C7 1_555 1_555
Eu1D O4D 1_555 1_555
Eu1E_2 O4E 1_555 1_555

#END
