
#######################################################################
#
#                 Cambridge Crystallographic Data Centre
#                                CCDC 
#
#######################################################################
#
# If this CIF has been generated from an entry in the Cambridge 
# Structural Database, then it will include bibliographic, chemical, 
# crystal, experimental, refinement or atomic coordinate data resulting 
# from the CCDC's data processing and validation procedures.
#
#######################################################################

data_JOGBAI
_symmetry_cell_setting           monoclinic
_symmetry_space_group_name_H-M   'P 21/c'
_symmetry_Int_Tables_number      14
_space_group_name_Hall           '-P 2ybc'
loop_
_symmetry_equiv_pos_site_id
_symmetry_equiv_pos_as_xyz
1 x,y,z
2 -x,1/2+y,1/2-z
3 -x,-y,-z
4 x,1/2-y,1/2+z
_cell_length_a                   5.7000(5)
_cell_length_b                   24.923(8)
_cell_length_c                   16.952(4)
_cell_angle_alpha                90
_cell_angle_beta                 93.25(4)
_cell_angle_gamma                90
_cell_volume                     2404.35
loop_
_atom_site_label
_atom_site_type_symbol
_atom_site_fract_x
_atom_site_fract_y
_atom_site_fract_z
Ag1 Ag 0.14713(11) 0.43774(3) 0.01557(4)
Ag2 Ag 0.57356(11) 0.47611(3) 0.09028(5)
O1 O 0.6834(33) 0.4029(5) 0.1940(7)
O2 O 0.3681(11) 0.3879(3) -0.0569(4)
O3 O 0.7040(10) 0.4179(3) 0.0001(3)
C1 C 0.5851(15) 0.3879(3) -0.0447(5)
C2 C 0.7208(16) 0.3461(4) -0.0906(5)
C3 C 0.8507(18) 0.3110(4) -0.0323(6)
N1 N 0.9645(12) 0.2615(3) -0.0682(4)
C4 C 1.1035(16) 0.2746(4) -0.1372(6)
C5 C 0.7907(19) 0.2200(4) -0.0915(7)
C6 C 1.1267(21) 0.2416(5) -0.0022(7)
O4 O 0.0052(10) 0.4947(3) 0.1015(3)
O5 O 0.3340(9) 0.5164(3) 0.1710(3)
C7 C 0.1193(14) 0.5147(3) 0.1600(5)
C8 C -0.0332(15) 0.5392(4) 0.2215(5)
C9 C 0.1097(13) 0.5569(3) 0.2941(4)
N2 N -0.0356(11) 0.5725(3) 0.3631(4)
C10 C 0.1340(19) 0.5860(5) 0.4314(6)
C11 C -0.1861(18) 0.5269(4) 0.3870(6)
C12 C -0.1818(19) 0.6199(4) 0.3420(6)
H1 H 0.8290 0.3639 -0.1233
H2 H 0.6133 0.3249 -0.1231
H3 H 0.9734 0.3320 -0.0063
H4 H 0.7436 0.2991 0.0057
H5 H 1.2170 0.3018 -0.1225
H6 H 1.0004 0.2875 -0.1798
H7 H 1.1831 0.2429 -0.1540
H8 H 0.7002 0.2113 -0.0472
H9 H 0.8708 0.1885 -0.1083
H10 H 0.6881 0.2331 -0.1341
H11 H 1.2071 0.2101 -0.0187
H12 H 1.0366 0.2331 0.0423
H13 H 1.2395 0.2690 0.0125
H14 H -0.1448 0.5128 0.2366
H15 H -0.1153 0.5696 0.1988
H16 H 0.2130 0.5281 0.3107
H17 H 0.2010 0.5875 0.2803
H18 H 0.2296 0.5553 0.4450
H19 H 0.0476 0.5962 0.4760
H20 H 0.2326 0.6152 0.4169
H21 H -0.0896 0.4963 0.4003
H22 H -0.2958 0.5179 0.3440
H23 H -0.2703 0.5373 0.4320
H24 H -0.2899 0.6113 0.2984
H25 H -0.0830 0.6491 0.3276
H26 H -0.2680 0.6301 0.3867
Ag2B Ag 0.42644(11) 0.52389(3) -0.09028(5)
O3_2 O -0.2960(10) 0.4179(3) 0.0001(3)
Ag1B Ag 0.85287(11) 0.56226(3) -0.01557(4)
O4_2 O 1.0052(10) 0.4947(3) 0.1015(3)
Ag1_2 Ag 1.14713(11) 0.43774(3) 0.01557(4)
Ag2_2 Ag -0.42644(11) 0.47611(3) 0.09028(5)
Cl1 Cl 0.3955(5) 0.7321(1) 0.3241(1)
O6 O 0.2149(30) 0.7684(6) 0.3137(8)
O7 O 0.6105(31) 0.7472(8) 0.3016(12)
O8 O 0.3433(26) 0.6857(5) 0.2763(6)
O9 O 0.4194(19) 0.7135(5) 0.4021(5)
Cl2 Cl 0.3746(5) 0.4049(1) 0.3919(2)
O10 O 0.3306(22) 0.4575(4) 0.4121(6)
O11 O 0.5906(17) 0.4033(5) 0.3588(7)
O12 O 0.3793(20) 0.3748(4) 0.4606(6)
O13 O 0.1975(20) 0.3879(5) 0.3390(7)
O14 O 0.1542(31) 0.3608(5) 0.1434(8)
loop_
_geom_bond_atom_site_label_1
_geom_bond_atom_site_label_2
_geom_bond_site_symmetry_1
_geom_bond_site_symmetry_2
Ag1 Ag2 1_555 1_555
Ag2 O1 1_555 1_555
O2 Ag1 1_555 1_555
O3 Ag2 1_555 1_555
C1 O2 1_555 1_555
C2 C1 1_555 1_555
C3 C2 1_555 1_555
N1 C3 1_555 1_555
C4 N1 1_555 1_555
C5 N1 1_555 1_555
C6 N1 1_555 1_555
O4 Ag1 1_555 1_555
O5 Ag2 1_555 1_555
C7 O4 1_555 1_555
C8 C7 1_555 1_555
C9 C8 1_555 1_555
N2 C9 1_555 1_555
C10 N2 1_555 1_555
C11 N2 1_555 1_555
C12 N2 1_555 1_555
Cl1 O6 1_555 1_555
O7 Cl1 1_555 1_555
O8 Cl1 1_555 1_555
O9 Cl1 1_555 1_555
Cl2 O10 1_555 1_555
O11 Cl2 1_555 1_555
O12 Cl2 1_555 1_555
O13 Cl2 1_555 1_555
H1 C2 1_555 1_555
H2 C2 1_555 1_555
H3 C3 1_555 1_555
H4 C3 1_555 1_555
H5 C4 1_555 1_555
H6 C4 1_555 1_555
H7 C4 1_555 1_555
H8 C5 1_555 1_555
H9 C5 1_555 1_555
H10 C5 1_555 1_555
H11 C6 1_555 1_555
H12 C6 1_555 1_555
H13 C6 1_555 1_555
H14 C8 1_555 1_555
H15 C8 1_555 1_555
H16 C9 1_555 1_555
H17 C9 1_555 1_555
H18 C10 1_555 1_555
H19 C10 1_555 1_555
H20 C10 1_555 1_555
H21 C11 1_555 1_555
H22 C11 1_555 1_555
H23 C11 1_555 1_555
H24 C12 1_555 1_555
H25 C12 1_555 1_555
H26 C12 1_555 1_555
Ag2B Ag1 1_555 1_555
O3_2 Ag1 1_555 1_555
Ag1B Ag2 1_555 1_555
O4_2 Ag2 1_555 1_555
Ag1_2 O3 1_555 1_555
Ag2_2 O4 1_555 1_555
Ag2 Ag2B 1_555 1_555
O3 C1 1_555 1_555
O5 C7 1_555 1_555
Ag2B Ag1B 1_555 1_555
O3_2 Ag2_2 1_555 1_555
O4_2 Ag1_2 1_555 1_555

#END
