
#######################################################################
#
#                 Cambridge Crystallographic Data Centre
#                                CCDC 
#
#######################################################################
#
# If this CIF has been generated from an entry in the Cambridge 
# Structural Database, then it will include bibliographic, chemical, 
# crystal, experimental, refinement or atomic coordinate data resulting 
# from the CCDC's data processing and validation procedures.
#
#######################################################################

data_JOGHEU
_symmetry_cell_setting           monoclinic
_symmetry_space_group_name_H-M   'C 2/c'
_symmetry_Int_Tables_number      15
_space_group_name_Hall           '-C 2yn'
loop_
_symmetry_equiv_pos_site_id
_symmetry_equiv_pos_as_xyz
1 x,y,z
2 -x,y,1/2-z
3 1/2+x,1/2+y,z
4 1/2-x,1/2+y,1/2-z
5 -x,-y,-z
6 x,-y,1/2+z
7 1/2-x,1/2-y,-z
8 1/2+x,1/2-y,1/2+z
_cell_length_a                   10.456(3)
_cell_length_b                   20.017(6)
_cell_length_c                   8.1077(19)
_cell_angle_alpha                90
_cell_angle_beta                 102.602(4)
_cell_angle_gamma                90
_cell_volume                     1656.04
loop_
_atom_site_label
_atom_site_type_symbol
_atom_site_fract_x
_atom_site_fract_y
_atom_site_fract_z
O4 O 0.1489(5) 0.0883(3) 0.1252(6)
H7 H 0.1202 0.0485 0.1142
H8 H 0.1551 0.1011 0.2267
N1 N 0.6515(3) 0.15722(15) -0.0095(4)
C1 C 0.7100(4) 0.10032(19) -0.0554(5)
H1 H 0.7900 0.1032 -0.0872
C2 C 0.6516(4) 0.04173(19) -0.0539(5)
H2 H 0.6917 0.0042 -0.0874
C3 C 0.5317(4) 0.03355(18) -0.0040(5)
C4 C 0.4753(4) 0.0938(2) 0.0450(5)
H3 H 0.3961 0.0919 0.0792
C5 C 0.5347(4) 0.1521(2) 0.0421(5)
H4 H 0.4968 0.1904 0.0755
C6 C 1.0000 0.2320(3) 0.2500
H5 H 1.0000 0.2784 0.2500
C7 C 0.6872(9) 0.2754(4) 0.3679(11)
H6 H 0.7376 0.2429 0.4340
Ni1 Ni 0.7500 0.2500 0.0000
O1 O 0.9136(3) 0.20160(12) 0.1466(3)
O2 O 0.6824(4) 0.2777(2) 0.2156(6)
O3 O 0.6255(6) 0.3160(3) 0.4332(8)
N1D N 0.3485(3) -0.15722(15) 0.0095(4)
C1D C 0.2900(4) -0.10032(19) 0.0554(5)
H1D H 0.2100 -0.1032 0.0872
C2D C 0.3484(4) -0.04173(19) 0.0539(5)
H2D H 0.3083 -0.0042 0.0874
C3D C 0.4683(4) -0.03355(18) 0.0040(5)
C4D C 0.5247(4) -0.0938(2) -0.0450(5)
H3D H 0.6039 -0.0919 -0.0792
C5D C 0.4653(4) -0.1521(2) -0.0421(5)
H4D H 0.5032 -0.1904 -0.0755
O1A O 1.0864(3) 0.20160(12) 0.3534(3)
C7F C 0.8128(9) 0.2246(4) -0.3679(11)
H6F H 0.7624 0.2571 -0.4340
O2F O 0.8176(4) 0.2223(2) -0.2156(6)
O3F O 0.8745(6) 0.1840(3) -0.4332(8)
N1F N 0.8485(3) 0.34278(15) 0.0095(4)
Ni1A Ni 1.2500 0.2500 0.5000
Ni1B Ni 0.2500 -0.2500 0.0000
O1F O 0.5864(3) 0.29840(12) -0.1466(3)
loop_
_geom_bond_atom_site_label_1
_geom_bond_atom_site_label_2
_geom_bond_site_symmetry_1
_geom_bond_site_symmetry_2
N1 C1 1_555 1_555
C1 H1 1_555 1_555
C2 C1 1_555 1_555
H2 C2 1_555 1_555
C3 C2 1_555 1_555
C4 C3 1_555 1_555
H3 C4 1_555 1_555
C5 N1 1_555 1_555
H4 C5 1_555 1_555
C6 H5 1_555 1_555
C7 H6 1_555 1_555
Ni1 N1 1_555 1_555
O1 C6 1_555 1_555
O2 C7 1_555 1_555
O3 C7 1_555 1_555
O4 H7 1_555 1_555
H8 O4 1_555 1_555
N1D C1D 1_555 1_555
C1D H1D 1_555 1_555
C2D C1D 1_555 1_555
H2D C2D 1_555 1_555
C3D C3 1_555 1_555
C4D C3D 1_555 1_555
H3D C4D 1_555 1_555
C5D N1D 1_555 1_555
H4D C5D 1_555 1_555
O1A C6 1_555 1_555
C7F H6F 1_555 1_555
O2F Ni1 1_555 1_555
O3F C7F 1_555 1_555
N1F Ni1 1_555 1_555
Ni1A O1A 1_555 1_555
Ni1B N1D 1_555 1_555
O1F Ni1 1_555 1_555
C4 C5 1_555 1_555
Ni1 O1 1_555 1_555
Ni1 O2 1_555 1_555
C2D C3D 1_555 1_555
C4D C5D 1_555 1_555
C7F O2F 1_555 1_555

#END
