
#######################################################################
#
#                 Cambridge Crystallographic Data Centre
#                                CCDC 
#
#######################################################################
#
# If this CIF has been generated from an entry in the Cambridge 
# Structural Database, then it will include bibliographic, chemical, 
# crystal, experimental, refinement or atomic coordinate data resulting 
# from the CCDC's data processing and validation procedures.
#
#######################################################################

data_JOGHUK
_symmetry_cell_setting           triclinic
_symmetry_space_group_name_H-M   'P -1'
_symmetry_Int_Tables_number      2
_space_group_name_Hall           '-P 1'
loop_
_symmetry_equiv_pos_site_id
_symmetry_equiv_pos_as_xyz
1 x,y,z
2 -x,-y,-z
_cell_length_a                   7.0687(5)
_cell_length_b                   9.9223(7)
_cell_length_c                   13.9819(10)
_cell_angle_alpha                77.5880(10)
_cell_angle_beta                 78.8850(10)
_cell_angle_gamma                74.2520(10)
_cell_volume                     912.312
loop_
_atom_site_label
_atom_site_type_symbol
_atom_site_fract_x
_atom_site_fract_y
_atom_site_fract_z
Mn1 Mn 0.50684(12) 0.06196(8) 0.32084(6)
O1 O 0.2392(8) 0.1563(5) 0.3891(4)
O2 O 0.0451(7) 0.1371(4) 0.5328(3)
O3 O -0.2489(6) 0.8703(4) 0.2765(3)
O4 O -0.4895(6) 0.8384(4) 0.3976(3)
O5 O 0.6823(6) 0.1003(4) 0.4165(3)
H1 H 0.7715 0.0245 0.4290
H2 H 0.6192 0.1233 0.4711
N1 N 0.6276(8) 0.2173(6) 0.1980(4)
N2 N 0.3622(7) 0.0749(5) 0.1873(3)
N3 N 0.3688(8) 0.1700(6) 0.0169(4)
N4 N 0.1423(8) 0.0260(6) 0.0969(4)
N5 N 0.1371(9) -0.0578(7) 0.2618(4)
H3 H 0.0441 -0.0976 0.2601
H4 H 0.1805 -0.0659 0.3167
N6 N 0.1662(9) 0.1114(8) -0.0689(4)
H5 H 0.0748 0.0708 -0.0719
H6 H 0.2181 0.1588 -0.1216
C1 C 0.7581(13) 0.2890(9) 0.2068(6)
H7 H 0.7955 0.2800 0.2685
C2 C 0.8370(15) 0.3743(11) 0.1282(6)
H8 H 0.9241 0.4248 0.1366
C3 C 0.7867(17) 0.3848(12) 0.0369(7)
H9 H 0.8410 0.4413 -0.0177
C4 C 0.6546(13) 0.3110(9) 0.0264(5)
H10 H 0.6194 0.3159 -0.0353
C5 C 0.5769(10) 0.2304(6) 0.1087(4)
C6 C 0.4272(9) 0.1525(7) 0.1029(4)
C7 C 0.2272(10) 0.1007(7) 0.0171(4)
C8 C 0.2124(9) 0.0150(7) 0.1812(4)
C9 C 0.0468(9) 0.4388(7) 0.3350(4)
H11 H 0.1578 0.3999 0.2930
C10 C -0.0518(10) 0.5788(7) 0.3104(4)
H12 H -0.0058 0.6343 0.2527
C11 C -0.2209(8) 0.6375(6) 0.3721(4)
C12 C -0.2858(8) 0.5535(6) 0.4577(4)
H13 H -0.3979 0.5919 0.4992
C13 C -0.1864(8) 0.4127(6) 0.4825(4)
H14 H -0.2329 0.3569 0.5399
C14 C -0.0175(8) 0.3550(6) 0.4217(4)
C15 C -0.3271(8) 0.7901(6) 0.3478(4)
C16 C 0.0963(8) 0.2034(6) 0.4515(4)
Mn1_2 Mn -0.49316(12) 1.06196(8) 0.32084(6)
O3_2 O 0.7511(6) -0.1297(4) 0.2765(3)
O4_2 O 0.5105(6) -0.1616(4) 0.3976(3)
loop_
_geom_bond_atom_site_label_1
_geom_bond_atom_site_label_2
_geom_bond_site_symmetry_1
_geom_bond_site_symmetry_2
Mn1 O1 1_555 1_555
O1 C16 1_555 1_555
O2 C16 1_555 1_555
O3 C15 1_555 1_555
O4 C15 1_555 1_555
O5 Mn1 1_555 1_555
H1 O5 1_555 1_555
H2 O5 1_555 1_555
N1 Mn1 1_555 1_555
N2 Mn1 1_555 1_555
N3 C6 1_555 1_555
N4 C7 1_555 1_555
N5 H3 1_555 1_555
H4 N5 1_555 1_555
N6 H5 1_555 1_555
H6 N6 1_555 1_555
C1 N1 1_555 1_555
H7 C1 1_555 1_555
C2 C1 1_555 1_555
H8 C2 1_555 1_555
C3 C2 1_555 1_555
H9 C3 1_555 1_555
C4 C3 1_555 1_555
H10 C4 1_555 1_555
C5 N1 1_555 1_555
C6 N2 1_555 1_555
C7 N3 1_555 1_555
C8 N2 1_555 1_555
C9 H11 1_555 1_555
C10 C9 1_555 1_555
H12 C10 1_555 1_555
C11 C10 1_555 1_555
C12 C11 1_555 1_555
H13 C12 1_555 1_555
C13 C12 1_555 1_555
H14 C13 1_555 1_555
C14 C9 1_555 1_555
C15 C11 1_555 1_555
C16 C14 1_555 1_555
Mn1_2 O3 1_555 1_555
O3_2 Mn1 1_555 1_555
O4_2 Mn1 1_555 1_555
O4 Mn1_2 1_555 1_555
N4 C8 1_555 1_555
N5 C8 1_555 1_555
N6 C7 1_555 1_555
C4 C5 1_555 1_555
C5 C6 1_555 1_555
C13 C14 1_555 1_555

#END
