
#######################################################################
#
#                 Cambridge Crystallographic Data Centre
#                                CCDC 
#
#######################################################################
#
# If this CIF has been generated from an entry in the Cambridge 
# Structural Database, then it will include bibliographic, chemical, 
# crystal, experimental, refinement or atomic coordinate data resulting 
# from the CCDC's data processing and validation procedures.
#
#######################################################################

data_JOGHAQ
_symmetry_cell_setting           triclinic
_symmetry_space_group_name_H-M   'P -1'
_symmetry_Int_Tables_number      2
_space_group_name_Hall           '-P 1'
loop_
_symmetry_equiv_pos_site_id
_symmetry_equiv_pos_as_xyz
1 x,y,z
2 -x,-y,-z
_cell_length_a                   8.4326(4)
_cell_length_b                   14.3943(7)
_cell_length_c                   14.7516(7)
_cell_angle_alpha                102.3370(10)
_cell_angle_beta                 106.4830(10)
_cell_angle_gamma                95.9490(10)
_cell_volume                     1651.35
loop_
_atom_site_label
_atom_site_type_symbol
_atom_site_fract_x
_atom_site_fract_y
_atom_site_fract_z
Cd1 Cd 0.651728(18) 0.700359(11) 0.843444(10)
S1 S 0.82911(9) 0.57555(5) 0.91334(4)
S2 S 0.39160(12) 0.95452(5) 0.70017(7)
O1 O 0.4553(3) 0.56094(15) 0.74595(16)
H1 H 0.512(7) 0.528(4) 0.752(4)
H2 H 0.394(5) 0.558(3) 0.700(3)
N1 N 0.7820(4) 0.60549(19) 1.09631(16)
N2 N 0.5189(3) 0.8070(2) 0.7733(2)
N3 N 0.5019(2) 0.72309(14) 0.95375(14)
N4 N 0.2115(3) 0.91856(15) 1.30196(15)
H3 H 0.202(4) 0.962(3) 1.350(3)
N5 N -0.1104(3) 0.82927(18) 0.96488(17)
N6 N 0.4400(4) 0.62884(19) 1.2865(2)
N7 N 0.7960(2) 0.69452(15) 0.72862(14)
N8 N 0.9031(3) 0.67556(14) 0.30564(14)
H4 H 0.860(3) 0.6551(19) 0.252(2)
N9 N 1.2505(4) 0.5590(2) 0.5576(2)
N10 N 0.8398(4) 0.94767(18) 0.5319(2)
C1 C 0.8002(3) 0.59399(16) 1.02170(15)
C2 C 0.4705(3) 0.86877(19) 0.74489(18)
C3 C 0.4020(3) 0.64786(17) 0.9607(2)
H5 H 0.4006 0.5865 0.9237
C4 C 0.3023(3) 0.65716(16) 1.01951(19)
H6 H 0.2347 0.6029 1.0217
C5 C 0.3016(2) 0.74742(14) 1.07606(15)
C6 C 0.4037(3) 0.82479(17) 1.0699(2)
H7 H 0.4081 0.8866 1.1068
C7 C 0.5010(3) 0.80952(18) 1.0077(2)
H8 H 0.5688 0.8627 1.0037
C8 C 0.1887(3) 0.75695(15) 1.14103(15)
H9 H 0.1042 0.6979 1.1190
C9 C 0.0971(3) 0.84266(16) 1.13409(17)
C10 C 0.1156(3) 0.91846(16) 1.21084(17)
C11 C 0.2964(3) 0.84505(16) 1.32150(16)
C12 C 0.2873(3) 0.76806(16) 1.24768(17)
C13 C -0.0173(3) 0.83869(16) 1.04035(18)
C14 C 0.0347(4) 1.0059(2) 1.2030(2)
H10 H -0.0307 0.9989 1.1363
H11 H 0.1201 1.0625 1.2244
H12 H -0.0371 1.0122 1.2433
C15 C 0.3915(4) 0.8565(2) 1.42632(18)
H13 H 0.4455 0.8017 1.4328
H14 H 0.3154 0.8611 1.4641
H15 H 0.4748 0.9142 1.4496
C16 C 0.3726(3) 0.69135(17) 1.27074(17)
C17 C 0.9602(3) 0.72578(18) 0.75403(16)
H16 H 1.0236 0.7373 0.8194
C18 C 1.0417(3) 0.74202(18) 0.68843(16)
H17 H 1.1569 0.7644 0.7097
C19 C 0.9496(3) 0.72459(15) 0.59016(14)
C20 C 0.7800(3) 0.68853(19) 0.56282(16)
H18 H 0.7147 0.6739 0.4975
C21 C 0.7076(3) 0.6744(2) 0.63307(17)
H19 H 0.5933 0.6499 0.6135
C22 C 1.0330(3) 0.74564(15) 0.51612(14)
H20 H 1.1415 0.7882 0.5516
C23 C 1.0643(3) 0.65319(16) 0.45554(16)
C24 C 0.9972(3) 0.62137(15) 0.35743(15)
C25 C 0.8681(3) 0.76119(16) 0.34810(16)
C26 C 0.9270(3) 0.79607(15) 0.44712(16)
C27 C 1.1654(3) 0.59798(19) 0.50930(17)
C28 C 1.0216(4) 0.52826(18) 0.29914(18)
H21 H 1.0891 0.4960 0.3424
H22 H 1.0771 0.5413 0.2535
H23 H 0.9143 0.4878 0.2642
C29 C 0.7656(4) 0.8114(2) 0.2794(2)
H24 H 0.7381 0.7730 0.2134
H25 H 0.8289 0.8732 0.2858
H26 H 0.6641 0.8203 0.2948
C30 C 0.8794(3) 0.88197(18) 0.49151(19)
Cd1_2 Cd -0.348272(18) 0.700359(11) 0.843444(10)
N5_2 N 0.8896(3) 0.82927(18) 0.96488(17)
loop_
_geom_bond_atom_site_label_1
_geom_bond_atom_site_label_2
_geom_bond_site_symmetry_1
_geom_bond_site_symmetry_2
Cd1 S1 1_555 1_555
S1 C1 1_555 1_555
S2 C2 1_555 1_555
O1 Cd1 1_555 1_555
H1 O1 1_555 1_555
H2 O1 1_555 1_555
N1 C1 1_555 1_555
N2 Cd1 1_555 1_555
N3 Cd1 1_555 1_555
N4 H3 1_555 1_555
N5 C13 1_555 1_555
N6 C16 1_555 1_555
N7 Cd1 1_555 1_555
N8 H4 1_555 1_555
N9 C27 1_555 1_555
N10 C30 1_555 1_555
C2 N2 1_555 1_555
C3 N3 1_555 1_555
H5 C3 1_555 1_555
C4 C3 1_555 1_555
H6 C4 1_555 1_555
C5 C4 1_555 1_555
C6 C5 1_555 1_555
H7 C6 1_555 1_555
C7 N3 1_555 1_555
H8 C7 1_555 1_555
C8 C5 1_555 1_555
H9 C8 1_555 1_555
C9 C8 1_555 1_555
C10 N4 1_555 1_555
C11 N4 1_555 1_555
C12 C8 1_555 1_555
C13 C9 1_555 1_555
C14 C10 1_555 1_555
H10 C14 1_555 1_555
H11 C14 1_555 1_555
H12 C14 1_555 1_555
C15 C11 1_555 1_555
H13 C15 1_555 1_555
H14 C15 1_555 1_555
H15 C15 1_555 1_555
C16 C12 1_555 1_555
C17 N7 1_555 1_555
H16 C17 1_555 1_555
C18 C17 1_555 1_555
H17 C18 1_555 1_555
C19 C18 1_555 1_555
C20 C19 1_555 1_555
H18 C20 1_555 1_555
C21 N7 1_555 1_555
H19 C21 1_555 1_555
C22 C19 1_555 1_555
H20 C22 1_555 1_555
C23 C22 1_555 1_555
C24 N8 1_555 1_555
C25 N8 1_555 1_555
C26 C22 1_555 1_555
C27 C23 1_555 1_555
C28 C24 1_555 1_555
H21 C28 1_555 1_555
H22 C28 1_555 1_555
H23 C28 1_555 1_555
C29 C25 1_555 1_555
H24 C29 1_555 1_555
H25 C29 1_555 1_555
H26 C29 1_555 1_555
C30 C26 1_555 1_555
Cd1_2 N5 1_555 1_555
N5_2 Cd1 1_555 1_555
C6 C7 1_555 1_555
C9 C10 1_555 1_555
C11 C12 1_555 1_555
C20 C21 1_555 1_555
C23 C24 1_555 1_555
C25 C26 1_555 1_555

#END
