
#######################################################################
#
#                 Cambridge Crystallographic Data Centre
#                                CCDC 
#
#######################################################################
#
# If this CIF has been generated from an entry in the Cambridge 
# Structural Database, then it will include bibliographic, chemical, 
# crystal, experimental, refinement or atomic coordinate data resulting 
# from the CCDC's data processing and validation procedures.
#
#######################################################################

data_JOGQED
_symmetry_cell_setting           triclinic
_symmetry_space_group_name_H-M   'P -1'
_symmetry_Int_Tables_number      2
_space_group_name_Hall           '-P 1'
loop_
_symmetry_equiv_pos_site_id
_symmetry_equiv_pos_as_xyz
1 x,y,z
2 -x,-y,-z
_cell_length_a                   9.4740(8)
_cell_length_b                   11.2487(10)
_cell_length_c                   16.5633(15)
_cell_angle_alpha                84.0930(10)
_cell_angle_beta                 89.4220(10)
_cell_angle_gamma                83.414(2)
_cell_volume                     1744.19
loop_
_atom_site_label
_atom_site_type_symbol
_atom_site_fract_x
_atom_site_fract_y
_atom_site_fract_z
C1 C -0.2105(7) 1.0170(6) 0.4524(5)
Cd1 Cd 0.36707(4) 0.42304(3) 0.43691(2)
O1 O 0.1922(8) -0.1402(6) 0.1028(4)
O2 O 0.3882(6) 0.3355(5) 0.3086(3)
O3 O 0.1911(6) 0.3238(5) 0.3783(3)
O4 O 0.4218(5) 0.4928(5) 0.5852(3)
O5 O 0.2250(6) 0.4368(5) 0.5499(3)
O6 O 0.2883(6) 0.4306(6) 0.9858(3)
N1 N -0.3198(6) 1.1011(5) 0.4819(4)
N2 N -0.4886(6) 1.2535(5) 0.4840(4)
N3 N 0.1075(6) 0.7676(5) 0.3747(4)
N4 N 0.2614(6) 0.6050(5) 0.3817(4)
C2 C 0.2662(8) 0.2995(6) 0.3184(4)
C3 C 0.3044(10) 0.1557(8) 0.2136(5)
H1 H 0.4015 0.1492 0.2234
C4 C 0.2128(8) 0.2293(6) 0.2573(4)
C5 C 0.0179(9) 0.1736(7) 0.1812(5)
H2 H -0.0786 0.1807 0.1691
C6 C 0.2536(10) 0.0912(8) 0.1552(5)
H3 H 0.3164 0.0408 0.1271
C7 C 0.0688(9) 0.2364(7) 0.2429(4)
H4 H 0.0052 0.2823 0.2736
C8 C 0.1142(8) 0.1018(6) 0.1396(4)
C9 C 0.0399(9) -0.1165(7) -0.0156(5)
H5 H 0.0668 -0.1960 -0.0250
C10 C 0.0547(9) 0.0473(7) 0.0669(5)
C11 C 0.0977(9) -0.0718(7) 0.0506(5)
C12 C 0.2567(16) -0.2505(10) 0.0816(7)
H6 H 0.1903 -0.3091 0.0889
H7 H 0.3383 -0.2765 0.1155
H8 H 0.2858 -0.2417 0.0258
C13 C 0.2997(7) 0.4722(5) 0.5999(4)
C14 C 0.2393(7) 0.4840(6) 0.6837(4)
C15 C 0.1074(8) 0.4477(7) 0.7028(4)
H9 H 0.0539 0.4196 0.6635
C16 C 0.2604(7) 0.5376(7) 0.8197(4)
H10 H 0.3113 0.5692 0.8585
C17 C 0.3147(7) 0.5303(7) 0.7419(4)
H11 H 0.4024 0.5568 0.7289
C18 C -0.0775(8) 0.5356(7) 0.9309(4)
H12 H -0.1304 0.5610 0.8841
C19 C 0.1279(7) 0.4970(6) 0.8397(4)
C20 C 0.0666(7) 0.5006(6) 0.9238(4)
C21 C 0.1463(8) 0.4659(7) 0.9946(4)
C22 C 0.0555(8) 0.4535(8) 0.7814(5)
H13 H -0.0319 0.4266 0.7943
C23 C 0.3732(11) 0.3930(12) 1.0549(6)
H14 H 0.3584 0.4520 1.0930
H15 H 0.4714 0.3839 1.0393
H16 H 0.3479 0.3173 1.0795
C24 C 0.2721(9) 0.6667(7) 0.3074(5)
H17 H 0.3348 0.6433 0.2669
C25 C 0.1781(9) 0.7675(7) 0.3010(5)
H18 H 0.1639 0.8248 0.2564
C26 C 0.1633(7) 0.6694(6) 0.4218(4)
H19 H 0.1369 0.6493 0.4753
C27 C -0.0022(7) 0.8552(6) 0.3989(4)
C28 C -0.0087(8) 0.9739(6) 0.3693(5)
H20 H 0.0581 0.9990 0.3317
C29 C -0.0982(8) 0.8175(6) 0.4550(5)
H21 H -0.0922 0.7367 0.4750
C30 C -0.4749(8) 1.1916(7) 0.5585(5)
H22 H -0.5278 1.2119 0.6037
C31 C -0.3947(8) 1.1967(6) 0.4387(5)
H23 H -0.3810 1.2190 0.3837
C32 C -0.3757(8) 1.0978(7) 0.5585(5)
H24 H -0.3495 1.0409 0.6021
C33 C -0.2050(8) 0.8989(6) 0.4826(5)
H25 H -0.2711 0.8735 0.5206
C34 C -0.1140(8) 1.0562(6) 0.3951(5)
H26 H -0.1203 1.1367 0.3744
O1A O -0.1922(8) 0.1402(6) -0.1028(4)
O2A O -0.3882(6) -0.3355(5) -0.3086(3)
O3A O -0.1911(6) -0.3238(5) -0.3783(3)
C2A C -0.2662(8) -0.2995(6) -0.3184(4)
C3A C -0.3044(10) -0.1557(8) -0.2136(5)
H1A H -0.4015 -0.1492 -0.2234
C4A C -0.2128(8) -0.2293(6) -0.2573(4)
C5A C -0.0179(9) -0.1736(7) -0.1812(5)
H2A H 0.0786 -0.1807 -0.1691
C6A C -0.2536(10) -0.0912(8) -0.1552(5)
H3A H -0.3164 -0.0408 -0.1271
C7A C -0.0688(9) -0.2364(7) -0.2429(4)
H4A H -0.0052 -0.2823 -0.2736
C8A C -0.1142(8) -0.1018(6) -0.1396(4)
C9A C -0.0399(9) 0.1165(7) 0.0156(5)
H5A H -0.0668 0.1960 0.0250
C10A C -0.0547(9) -0.0473(7) -0.0669(5)
C11A C -0.0977(9) 0.0718(7) -0.0506(5)
C12A C -0.2567(16) 0.2505(10) -0.0816(7)
H6A H -0.1903 0.3091 -0.0889
H7A H -0.3383 0.2765 -0.1155
H8A H -0.2858 0.2417 -0.0258
O4A O -0.4218(5) 0.5072(5) 1.4148(3)
O5A O -0.2250(6) 0.5632(5) 1.4501(3)
O6A O -0.2883(6) 0.5694(6) 1.0142(3)
C13A C -0.2997(7) 0.5278(5) 1.4001(4)
C14A C -0.2393(7) 0.5160(6) 1.3163(4)
C15A C -0.1074(8) 0.5523(7) 1.2972(4)
H9A H -0.0539 0.5804 1.3365
C16A C -0.2604(7) 0.4624(7) 1.1803(4)
H10A H -0.3113 0.4308 1.1415
C17A C -0.3147(7) 0.4697(7) 1.2581(4)
H11A H -0.4024 0.4432 1.2711
C18A C 0.0775(8) 0.4644(7) 1.0691(4)
H12A H 0.1304 0.4390 1.1159
C19A C -0.1279(7) 0.5030(6) 1.1603(4)
C20A C -0.0666(7) 0.4994(6) 1.0762(4)
C21A C -0.1463(8) 0.5341(7) 1.0054(4)
C22A C -0.0555(8) 0.5465(8) 1.2186(5)
H13A H 0.0319 0.5734 1.2057
C23A C -0.3732(11) 0.6070(12) 0.9451(6)
H14A H -0.3584 0.5480 0.9070
H15A H -0.4714 0.6161 0.9607
H16A H -0.3479 0.6827 0.9205
C1A C 0.2105(7) -1.0170(6) -0.4524(5)
Cd1A Cd -0.36707(4) -0.42304(3) -0.43691(2)
N1A N 0.3198(6) -1.1011(5) -0.4819(4)
N2A N 0.4886(6) -1.2535(5) -0.4840(4)
N3A N -0.1075(6) -0.7676(5) -0.3747(4)
N4A N -0.2614(6) -0.6050(5) -0.3817(4)
C24A C -0.2721(9) -0.6667(7) -0.3074(5)
H17A H -0.3348 -0.6433 -0.2669
C25A C -0.1781(9) -0.7675(7) -0.3010(5)
H18A H -0.1639 -0.8248 -0.2564
C26A C -0.1633(7) -0.6694(6) -0.4218(4)
H19A H -0.1369 -0.6493 -0.4753
C27A C 0.0022(7) -0.8552(6) -0.3989(4)
C28A C 0.0087(8) -0.9739(6) -0.3693(5)
H20A H -0.0581 -0.9990 -0.3317
C29A C 0.0982(8) -0.8175(6) -0.4550(5)
H21A H 0.0922 -0.7367 -0.4750
C30A C 0.4749(8) -1.1916(7) -0.5585(5)
H22A H 0.5278 -1.2119 -0.6037
C31A C 0.3947(8) -1.1967(6) -0.4387(5)
H23A H 0.3810 -1.2190 -0.3837
C32A C 0.3757(8) -1.0978(7) -0.5585(5)
H24A H 0.3495 -1.0409 -0.6021
C33A C 0.2050(8) -0.8989(6) -0.4826(5)
H25A H 0.2711 -0.8735 -0.5206
C34A C 0.1140(8) -1.0562(6) -0.3951(5)
H26A H 0.1203 -1.1367 -0.3744
Cd1_2 Cd -0.63293(4) 0.42304(3) 1.43691(2)
Cd1_3 Cd -0.63293(4) 1.42304(3) 0.43691(2)
Cd1A_2 Cd -0.36707(4) 0.57696(3) 1.56309(2)
Cd1A_3 Cd 0.63293(4) -1.42304(3) -0.43691(2)
Cd1A_4 Cd 0.63293(4) 0.57696(3) 0.56309(2)
O4_2 O -0.5782(5) -0.5072(5) -0.4148(3)
O4A_2 O -0.4218(5) -0.4928(5) -0.5852(3)
O4A_3 O 0.5782(5) 0.5072(5) 0.4148(3)
O5A_2 O -0.2250(6) -0.4368(5) -0.5499(3)
N2_2 N 0.5114(6) 0.2535(5) 0.4840(4)
N2A_2 N -0.5114(6) -0.2535(5) -0.4840(4)
loop_
_geom_bond_atom_site_label_1
_geom_bond_atom_site_label_2
_geom_bond_site_symmetry_1
_geom_bond_site_symmetry_2
C1 N1 1_555 1_555
Cd1 O2 1_555 1_555
O1 C11 1_555 1_555
O2 C2 1_555 1_555
O3 Cd1 1_555 1_555
O4 Cd1 1_555 1_555
O5 Cd1 1_555 1_555
O6 C21 1_555 1_555
N1 C31 1_555 1_555
N2 C30 1_555 1_555
N3 C25 1_555 1_555
N4 Cd1 1_555 1_555
C2 O3 1_555 1_555
C3 H1 1_555 1_555
C4 C2 1_555 1_555
C5 H2 1_555 1_555
C6 C3 1_555 1_555
H3 C6 1_555 1_555
C7 C4 1_555 1_555
H4 C7 1_555 1_555
C8 C5 1_555 1_555
C9 H5 1_555 1_555
C10 C8 1_555 1_555
C11 C9 1_555 1_555
C12 O1 1_555 1_555
H6 C12 1_555 1_555
H7 C12 1_555 1_555
H8 C12 1_555 1_555
C13 O4 1_555 1_555
C14 C13 1_555 1_555
C15 C14 1_555 1_555
H9 C15 1_555 1_555
C16 H10 1_555 1_555
C17 C14 1_555 1_555
H11 C17 1_555 1_555
C18 H12 1_555 1_555
C19 C16 1_555 1_555
C20 C18 1_555 1_555
C21 C20 1_555 1_555
C22 C15 1_555 1_555
H13 C22 1_555 1_555
C23 O6 1_555 1_555
H14 C23 1_555 1_555
H15 C23 1_555 1_555
H16 C23 1_555 1_555
C24 N4 1_555 1_555
H17 C24 1_555 1_555
C25 C24 1_555 1_555
H18 C25 1_555 1_555
C26 N3 1_555 1_555
H19 C26 1_555 1_555
C27 N3 1_555 1_555
C28 C27 1_555 1_555
H20 C28 1_555 1_555
C29 C27 1_555 1_555
H21 C29 1_555 1_555
C30 H22 1_555 1_555
C31 N2 1_555 1_555
H23 C31 1_555 1_555
C32 N1 1_555 1_555
H24 C32 1_555 1_555
C33 C1 1_555 1_555
H25 C33 1_555 1_555
C34 C1 1_555 1_555
H26 C34 1_555 1_555
O1A C11A 1_555 1_555
O2A C2A 1_555 1_555
O3A C2A 1_555 1_555
C2A C4A 1_555 1_555
C3A H1A 1_555 1_555
C4A C3A 1_555 1_555
C5A H2A 1_555 1_555
C6A C3A 1_555 1_555
H3A C6A 1_555 1_555
C7A C4A 1_555 1_555
H4A C7A 1_555 1_555
C8A C5A 1_555 1_555
C9A C10 1_555 1_555
H5A C9A 1_555 1_555
C10A C9 1_555 1_555
C11A C9A 1_555 1_555
C12A O1A 1_555 1_555
H6A C12A 1_555 1_555
H7A C12A 1_555 1_555
H8A C12A 1_555 1_555
O4A C13A 1_555 1_555
O5A C13A 1_555 1_555
O6A C21A 1_555 1_555
C13A C14A 1_555 1_555
C14A C15A 1_555 1_555
C15A H9A 1_555 1_555
C16A H10A 1_555 1_555
C17A C14A 1_555 1_555
H11A C17A 1_555 1_555
C18A C21 1_555 1_555
H12A C18A 1_555 1_555
C19A C16A 1_555 1_555
C20A C18A 1_555 1_555
C21A C18 1_555 1_555
C22A C15A 1_555 1_555
H13A C22A 1_555 1_555
C23A O6A 1_555 1_555
H14A C23A 1_555 1_555
H15A C23A 1_555 1_555
H16A C23A 1_555 1_555
C1A N1A 1_555 1_555
Cd1A O2A 1_555 1_555
N1A C31A 1_555 1_555
N2A C30A 1_555 1_555
N3A C25A 1_555 1_555
N4A Cd1A 1_555 1_555
C24A N4A 1_555 1_555
H17A C24A 1_555 1_555
C25A C24A 1_555 1_555
H18A C25A 1_555 1_555
C26A N3A 1_555 1_555
H19A C26A 1_555 1_555
C27A N3A 1_555 1_555
C28A C27A 1_555 1_555
H20A C28A 1_555 1_555
C29A C27A 1_555 1_555
H21A C29A 1_555 1_555
C30A H22A 1_555 1_555
C31A N2A 1_555 1_555
H23A C31A 1_555 1_555
C32A N1A 1_555 1_555
H24A C32A 1_555 1_555
C33A C1A 1_555 1_555
H25A C33A 1_555 1_555
C34A C1A 1_555 1_555
H26A C34A 1_555 1_555
Cd1_2 O4A 1_555 1_555
Cd1_3 N2 1_555 1_555
Cd1A_2 O4A 1_555 1_555
Cd1A_3 N2A 1_555 1_555
Cd1A_4 O4 1_555 1_555
O4_2 Cd1A 1_555 1_555
O4A_2 Cd1A 1_555 1_555
O4A_3 Cd1 1_555 1_555
O5A_2 Cd1A 1_555 1_555
N2_2 Cd1 1_555 1_555
N2A_2 Cd1A 1_555 1_555
O5 C13 1_555 1_555
N4 C26 1_555 1_555
C3 C4 1_555 1_555
C5 C7 1_555 1_555
C6 C8 1_555 1_555
C10 C11 1_555 1_555
C16 C17 1_555 1_555
C19 C20 1_555 1_555
C19 C22 1_555 1_555
C28 C34 1_555 1_555
C29 C33 1_555 1_555
C30 C32 1_555 1_555
O3A Cd1A 1_555 1_555
C5A C7A 1_555 1_555
C6A C8A 1_555 1_555
C8A C10A 1_555 1_555
C10A C11A 1_555 1_555
O5A Cd1A_2 1_555 1_555
C16A C17A 1_555 1_555
C19A C20A 1_555 1_555
C19A C22A 1_555 1_555
C20A C21A 1_555 1_555
N4A C26A 1_555 1_555
C28A C34A 1_555 1_555
C29A C33A 1_555 1_555
C30A C32A 1_555 1_555
Cd1A_4 O4A_3 1_555 1_555

#END
