
#######################################################################
#
#                 Cambridge Crystallographic Data Centre
#                                CCDC 
#
#######################################################################
#
# If this CIF has been generated from an entry in the Cambridge 
# Structural Database, then it will include bibliographic, chemical, 
# crystal, experimental, refinement or atomic coordinate data resulting 
# from the CCDC's data processing and validation procedures.
#
#######################################################################

data_JOHLOJ
_symmetry_cell_setting           triclinic
_symmetry_space_group_name_H-M   'P -1'
_symmetry_Int_Tables_number      2
_space_group_name_Hall           '-P 1'
loop_
_symmetry_equiv_pos_site_id
_symmetry_equiv_pos_as_xyz
1 x,y,z
2 -x,-y,-z
_cell_length_a                   8.534(11)
_cell_length_b                   10.332(13)
_cell_length_c                   13.772(18)
_cell_angle_alpha                75.897(18)
_cell_angle_beta                 85.450(16)
_cell_angle_gamma                66.642(15)
_cell_volume                     1081
loop_
_atom_site_label
_atom_site_type_symbol
_atom_site_fract_x
_atom_site_fract_y
_atom_site_fract_z
Zn1 Zn -0.17224(4) 0.99809(3) 0.15612(2)
C1 C 0.8739(4) 0.7095(3) -0.1524(2)
C2 C 0.8939(4) 0.7310(3) -0.0573(2)
H1 H 0.9781 0.7625 -0.0473
C3 C 0.7935(4) 0.7067(3) 0.0182(2)
H2 H 0.8095 0.7220 0.0799
C4 C 0.6460(4) 0.6376(3) -0.0815(2)
H3 H 0.5616 0.6049 -0.0889
C5 C 0.7421(4) 0.6611(3) -0.1595(2)
H4 H 0.7222 0.6453 -0.2202
C6 C 0.5699(4) 0.6265(3) 0.0932(2)
C7 C 0.6548(4) 0.5150(3) 0.1721(2)
H5 H 0.7720 0.4636 0.1699
C8 C 0.5650(4) 0.4801(4) 0.2542(3)
H6 H 0.6211 0.4053 0.3084
C9 C 0.3912(4) 0.5563(3) 0.2562(2)
H7 H 0.3309 0.5325 0.3122
C10 C 0.3052(3) 0.6671(3) 0.1766(2)
C11 C 0.3952(3) 0.7055(3) 0.0931(2)
C12 C 0.3138(3) 0.8288(3) 0.0047(2)
C13 C 0.1172(4) 0.7514(3) 0.1854(2)
C14 C -0.3174(4) 0.8646(4) 0.3304(2)
H8 H -0.2107 0.8427 0.3571
C15 C -0.4324(4) 0.8248(4) 0.3914(2)
H9 H -0.4028 0.7765 0.4579
C16 C -0.5916(4) 0.8555(3) 0.3553(2)
C17 C -0.6267(4) 0.9264(3) 0.2558(2)
H10 H -0.7330 0.9497 0.2279
C18 C -0.5052(4) 0.9625(3) 0.1979(2)
H11 H -0.5309 1.0089 0.1308
C19 C -0.7137(4) 0.8054(3) 0.4222(2)
H12 H -0.7349 0.7351 0.3955
H13 H -0.6600 0.7564 0.4878
C20 C -0.8532(4) 1.0318(3) 0.4734(2)
H14 H -0.7909 1.0781 0.4253
H15 H -0.7860 0.9862 0.5351
C21 C -0.9774(3) 0.8560(3) 0.5071(2)
H16 H -0.9125 0.8080 0.5695
H17 H -0.9965 0.7835 0.4820
N1 N -0.3506(3) 0.9333(3) 0.23444(17)
N2 N -0.8785(3) 0.9211(2) 0.43423(16)
N3 N 0.6685(3) 0.6603(2) 0.00774(18)
O1 O 0.3228(3) 0.9467(2) -0.00115(16)
O2 O 0.2484(3) 0.8030(2) -0.06378(15)
O3 O 0.0463(2) 0.8638(2) 0.12087(15)
O4 O 0.0436(4) 0.7089(3) 0.2578(2)
O5 O -0.0940(3) 1.0671(3) 0.26282(17)
H18 H -0.0918 1.1471 0.2385
O6 O 0.9660(3) 0.7311(2) -0.22652(16)
H19 H -0.034(4) 1.018(4) 0.304(2)
C14A C -1.6826(4) 1.1354(4) 0.6696(2)
H8A H -1.7893 1.1573 0.6429
C15A C -1.5676(4) 1.1752(4) 0.6086(2)
H9A H -1.5972 1.2235 0.5421
C16A C -1.4084(4) 1.1445(3) 0.6447(2)
C17A C -1.3733(4) 1.0736(3) 0.7442(2)
H10A H -1.2670 1.0503 0.7721
C18A C -1.4948(4) 1.0375(3) 0.8021(2)
H11A H -1.4691 0.9911 0.8692
C19A C -1.2863(4) 1.1946(3) 0.5778(2)
H12A H -1.2651 1.2649 0.6045
H13A H -1.3400 1.2436 0.5122
C20A C -1.1468(4) 0.9682(3) 0.5266(2)
H14A H -1.2091 0.9219 0.5747
H15A H -1.2140 1.0138 0.4649
C21A C -1.0226(3) 1.1440(3) 0.4929(2)
H16A H -1.0875 1.1920 0.4305
H17A H -1.0035 1.2165 0.5180
N1A N -1.6494(3) 1.0667(3) 0.76556(17)
N2A N -1.1215(3) 1.0789(2) 0.56577(16)
Zn1A Zn -1.82776(4) 1.00191(3) 0.84388(2)
C1A C -2.8739(4) 1.2905(3) 1.1524(2)
C2A C -2.8939(4) 1.2690(3) 1.0573(2)
H1A H -2.9781 1.2375 1.0473
C3A C -2.7935(4) 1.2933(3) 0.9818(2)
H2A H -2.8095 1.2780 0.9201
C4A C -2.6460(4) 1.3624(3) 1.0815(2)
H3A H -2.5616 1.3951 1.0889
C5A C -2.7421(4) 1.3389(3) 1.1595(2)
H4A H -2.7222 1.3547 1.2202
C6A C -2.5699(4) 1.3735(3) 0.9068(2)
C7A C -2.6548(4) 1.4850(3) 0.8279(2)
H5A H -2.7720 1.5364 0.8301
C8A C -2.5650(4) 1.5199(4) 0.7458(3)
H6A H -2.6211 1.5947 0.6916
C9A C -2.3912(4) 1.4437(3) 0.7438(2)
H7A H -2.3309 1.4675 0.6878
C10A C -2.3052(3) 1.3329(3) 0.8234(2)
C11A C -2.3952(3) 1.2945(3) 0.9069(2)
C12A C -2.3138(3) 1.1712(3) 0.9953(2)
C13A C -2.1172(4) 1.2486(3) 0.8146(2)
N3A N -2.6685(3) 1.3397(2) 0.99226(18)
O1A O -2.3228(3) 1.0533(2) 1.00115(16)
O2A O -2.2484(3) 1.1970(2) 1.06378(15)
O3A O -2.0463(2) 1.1362(2) 0.87913(15)
O4A O -2.0436(4) 1.2911(3) 0.7422(2)
O5A O -1.9060(3) 0.9329(3) 0.73718(17)
H18A H -1.9082 0.8529 0.7615
O6A O -2.9660(3) 1.2689(2) 1.22652(16)
H19A H -1.966(4) 0.982(4) 0.696(2)
Zn1_2 Zn -2.17224(4) 0.99809(3) 1.15612(2)
Zn1A_2 Zn 0.17224(4) 1.00191(3) -0.15612(2)
O1_2 O -1.6772(3) 0.9467(2) 0.99885(16)
O1A_2 O -0.3228(3) 1.0533(2) 0.00115(16)
O2_2 O -1.7516(3) 0.8030(2) 0.93622(15)
O2A_2 O -0.2484(3) 1.1970(2) 0.06378(15)
O7 O 1.0014(8) 0.4551(5) 0.3547(3)
H20 H 1.0210 0.3701 0.3490
H21 H 0.9569 0.5165 0.3008
O8 O 0.7980(11) 0.5250(7) 0.5221(5)
H22 H 0.8564 0.5036 0.4711
H23 H 0.8617 0.5317 0.5634
loop_
_geom_bond_atom_site_label_1
_geom_bond_atom_site_label_2
_geom_bond_site_symmetry_1
_geom_bond_site_symmetry_2
Zn1 N1 1_555 1_555
C1 C2 1_555 1_555
C2 H1 1_555 1_555
C3 C2 1_555 1_555
H2 C3 1_555 1_555
C4 H3 1_555 1_555
C5 C1 1_555 1_555
H4 C5 1_555 1_555
C6 C7 1_555 1_555
C7 H5 1_555 1_555
C8 C7 1_555 1_555
H6 C8 1_555 1_555
C9 C8 1_555 1_555
H7 C9 1_555 1_555
C10 C9 1_555 1_555
C11 C6 1_555 1_555
C12 C11 1_555 1_555
C13 C10 1_555 1_555
C14 H8 1_555 1_555
C15 C14 1_555 1_555
H9 C15 1_555 1_555
C16 C15 1_555 1_555
C17 C16 1_555 1_555
H10 C17 1_555 1_555
C18 C17 1_555 1_555
H11 C18 1_555 1_555
C19 C16 1_555 1_555
H12 C19 1_555 1_555
H13 C19 1_555 1_555
C20 H14 1_555 1_555
H15 C20 1_555 1_555
C21 H16 1_555 1_555
H17 C21 1_555 1_555
N1 C14 1_555 1_555
N2 C19 1_555 1_555
N3 C3 1_555 1_555
O1 C12 1_555 1_555
O2 C12 1_555 1_555
O3 Zn1 1_555 1_555
O4 C13 1_555 1_555
O5 Zn1 1_555 1_555
H18 O5 1_555 1_555
O6 C1 1_555 1_555
H19 O5 1_555 1_555
O7 H20 1_555 1_555
H21 O7 1_555 1_555
O8 H22 1_555 1_555
H23 O8 1_555 1_555
C14A H8A 1_555 1_555
C15A C14A 1_555 1_555
H9A C15A 1_555 1_555
C16A C15A 1_555 1_555
C17A C16A 1_555 1_555
H10A C17A 1_555 1_555
C18A C17A 1_555 1_555
H11A C18A 1_555 1_555
C19A C16A 1_555 1_555
H12A C19A 1_555 1_555
H13A C19A 1_555 1_555
C20A C21 1_555 1_555
H14A C20A 1_555 1_555
H15A C20A 1_555 1_555
C21A C20 1_555 1_555
H16A C21A 1_555 1_555
H17A C21A 1_555 1_555
N1A C14A 1_555 1_555
N2A C19A 1_555 1_555
Zn1A N1A 1_555 1_555
C1A C2A 1_555 1_555
C2A H1A 1_555 1_555
C3A C2A 1_555 1_555
H2A C3A 1_555 1_555
C4A H3A 1_555 1_555
C5A C1A 1_555 1_555
H4A C5A 1_555 1_555
C6A C7A 1_555 1_555
C7A H5A 1_555 1_555
C8A C7A 1_555 1_555
H6A C8A 1_555 1_555
C9A C8A 1_555 1_555
H7A C9A 1_555 1_555
C10A C9A 1_555 1_555
C11A C6A 1_555 1_555
C12A C11A 1_555 1_555
C13A C10A 1_555 1_555
N3A C3A 1_555 1_555
O1A C12A 1_555 1_555
O2A C12A 1_555 1_555
O3A Zn1A 1_555 1_555
O4A C13A 1_555 1_555
O5A Zn1A 1_555 1_555
H18A O5A 1_555 1_555
O6A C1A 1_555 1_555
H19A O5A 1_555 1_555
Zn1_2 O1A 1_555 1_555
Zn1A_2 O1 1_555 1_555
O1_2 Zn1A 1_555 1_555
O1A_2 Zn1 1_555 1_555
O2_2 Zn1A 1_555 1_555
O2A_2 Zn1 1_555 1_555
C4 C5 1_555 1_555
C4 N3 1_555 1_555
C6 N3 1_555 1_555
C10 C11 1_555 1_555
C13 O3 1_555 1_555
C18 N1 1_555 1_555
C20 N2 1_555 1_555
C21 N2 1_555 1_555
O2 Zn1A_2 1_555 1_555
C18A N1A 1_555 1_555
C20A N2A 1_555 1_555
C21A N2A 1_555 1_555
C4A C5A 1_555 1_555
C4A N3A 1_555 1_555
C6A N3A 1_555 1_555
C10A C11A 1_555 1_555
C13A O3A 1_555 1_555
O2A Zn1_2 1_555 1_555

#END
