
#######################################################################
#
#                 Cambridge Crystallographic Data Centre
#                                CCDC 
#
#######################################################################
#
# If this CIF has been generated from an entry in the Cambridge 
# Structural Database, then it will include bibliographic, chemical, 
# crystal, experimental, refinement or atomic coordinate data resulting 
# from the CCDC's data processing and validation procedures.
#
#######################################################################

data_JOHLID
_symmetry_cell_setting           triclinic
_symmetry_space_group_name_H-M   'P -1'
_symmetry_Int_Tables_number      2
_space_group_name_Hall           '-P 1'
loop_
_symmetry_equiv_pos_site_id
_symmetry_equiv_pos_as_xyz
1 x,y,z
2 -x,-y,-z
_cell_length_a                   8.934(2)
_cell_length_b                   9.807(2)
_cell_length_c                   10.589(3)
_cell_angle_alpha                95.546(2)
_cell_angle_beta                 107.412(2)
_cell_angle_gamma                107.116(3)
_cell_volume                     828.506
loop_
_atom_site_label
_atom_site_type_symbol
_atom_site_fract_x
_atom_site_fract_y
_atom_site_fract_z
Co1 Co 1.16574(3) 0.38644(2) 0.63776(2)
C1 C 0.4039(2) 0.24618(19) -0.20258(17)
C2 C 0.4318(2) 0.1128(2) -0.18325(19)
H1 H 0.3435 0.0250 -0.2190
C3 C 0.5858(2) 0.1128(2) -0.11320(19)
H2 H 0.6010 0.0243 -0.1021
C4 C 0.6964(2) 0.3671(2) -0.0722(2)
H3 H 0.7871 0.4528 -0.0334
C5 C 0.5449(2) 0.3750(2) -0.1409(2)
H4 H 0.5334 0.4655 -0.1476
C6 C 0.8827(2) 0.2327(2) 0.01361(18)
C7 C 0.9682(3) 0.1856(3) -0.06011(19)
H5 H 0.9203 0.1556 -0.1535
C8 C 1.1262(3) 0.1836(3) 0.0067(2)
H6 H 1.1850 0.1513 -0.0416
C9 C 1.1961(2) 0.2295(2) 0.14524(19)
H7 H 1.3025 0.2282 0.1895
C10 C 1.1106(2) 0.27794(18) 0.22011(17)
C11 C 0.9494(2) 0.27906(18) 0.15352(17)
C12 C 0.8476(2) 0.33484(18) 0.22435(17)
C13 C 1.1939(2) 0.32535(18) 0.37187(17)
C14 C 0.8813(2) 0.0952(2) 0.57794(19)
H8 H 0.9676 0.0580 0.5872
C15 C 0.7200(2) -0.00175(19) 0.5367(2)
H9 H 0.6998 -0.1015 0.5184
C16 C 0.58774(19) 0.04999(18) 0.52245(16)
C17 C 0.6281(2) 0.1998(2) 0.5526(2)
H10 H 0.5446 0.2401 0.5460
C18 C 0.7928(2) 0.2892(2) 0.5926(2)
H11 H 0.8168 0.3895 0.6118
H12 H 1.453(4) 0.569(3) 0.629(3)
N1 N 0.91967(17) 0.23929(16) 0.60522(14)
N2 N 0.71875(19) 0.23762(17) -0.05867(15)
O1 O 1.09797(15) 0.32967(17) 0.43773(13)
O2 O 0.89509(15) 0.47213(13) 0.25491(13)
O3 O 1.38557(16) 0.55675(15) 0.66926(15)
H13 H 1.3750 0.6343 0.6937
O4 O 0.25923(15) 0.24548(14) -0.27085(14)
O5 O 1.34612(16) 0.35233(17) 0.42243(14)
O6 O 0.72456(16) 0.24562(14) 0.23641(15)
C14A C 0.1187(2) -0.0952(2) 0.42206(19)
H8A H 0.0324 -0.0580 0.4128
C15A C 0.2800(2) 0.00175(19) 0.4633(2)
H9A H 0.3002 0.1015 0.4816
C16A C 0.41226(19) -0.04999(18) 0.47755(16)
C17A C 0.3719(2) -0.1998(2) 0.4474(2)
H10A H 0.4554 -0.2401 0.4540
C18A C 0.2072(2) -0.2892(2) 0.4074(2)
H11A H 0.1832 -0.3895 0.3882
N1A N 0.08033(17) -0.23929(16) 0.39478(14)
Co1A Co -0.16574(3) -0.38644(2) 0.36224(2)
C1A C 0.5961(2) -0.24618(19) 1.20258(17)
C2A C 0.5682(2) -0.1128(2) 1.18325(19)
H1A H 0.6565 -0.0250 1.2190
C3A C 0.4142(2) -0.1128(2) 1.11320(19)
H2A H 0.3990 -0.0243 1.1021
C4A C 0.3036(2) -0.3671(2) 1.0722(2)
H3A H 0.2129 -0.4528 1.0334
C5A C 0.4551(2) -0.3750(2) 1.1409(2)
H4A H 0.4666 -0.4655 1.1476
C6A C 0.1173(2) -0.2327(2) 0.98639(18)
C7A C 0.0318(3) -0.1856(3) 1.06011(19)
H5A H 0.0797 -0.1556 1.1535
C8A C -0.1262(3) -0.1836(3) 0.9933(2)
H6A H -0.1850 -0.1513 1.0416
C9A C -0.1961(2) -0.2295(2) 0.85476(19)
H7A H -0.3025 -0.2282 0.8105
C10A C -0.1106(2) -0.27794(18) 0.77989(17)
C11A C 0.0506(2) -0.27906(18) 0.84648(17)
C12A C 0.1524(2) -0.33484(18) 0.77565(17)
C13A C -0.1939(2) -0.32535(18) 0.62813(17)
H12A H -0.453(4) -0.569(3) 0.371(3)
N2A N 0.28125(19) -0.23762(17) 1.05867(15)
O1A O -0.09797(15) -0.32967(17) 0.56227(13)
O2A O 0.10491(15) -0.47213(13) 0.74509(13)
O3A O -0.38557(16) -0.55675(15) 0.33074(15)
H13A H -0.3750 -0.6343 0.3063
O4A O 0.74077(15) -0.24548(14) 1.27085(14)
O5A O -0.34612(16) -0.35233(17) 0.57757(14)
O6A O 0.27544(16) -0.24562(14) 0.76359(15)
Co1_2 Co 0.16574(3) -0.61356(2) 0.63776(2)
Co1_3 Co 0.16574(3) 0.38644(2) -0.36224(2)
Co1A_2 Co 0.83426(3) -0.38644(2) 1.36224(2)
Co1A_3 Co 0.83426(3) 0.61356(2) 0.36224(2)
O2_2 O -0.10491(15) -0.52787(13) 0.25491(13)
O2A_2 O 1.10491(15) 0.52787(13) 0.74509(13)
O4_2 O 1.25923(15) 0.24548(14) 0.72915(14)
O4A_2 O -0.25923(15) -0.24548(14) 0.27085(14)
loop_
_geom_bond_atom_site_label_1
_geom_bond_atom_site_label_2
_geom_bond_site_symmetry_1
_geom_bond_site_symmetry_2
Co1 N1 1_555 1_555
C1 C2 1_555 1_555
C2 H1 1_555 1_555
C3 C2 1_555 1_555
H2 C3 1_555 1_555
C4 H3 1_555 1_555
C5 C1 1_555 1_555
H4 C5 1_555 1_555
C6 C7 1_555 1_555
C7 H5 1_555 1_555
C8 C7 1_555 1_555
H6 C8 1_555 1_555
C9 C8 1_555 1_555
H7 C9 1_555 1_555
C10 C9 1_555 1_555
C11 C6 1_555 1_555
C12 C11 1_555 1_555
C13 C10 1_555 1_555
C14 H8 1_555 1_555
C15 C14 1_555 1_555
H9 C15 1_555 1_555
C16 C15 1_555 1_555
C17 C16 1_555 1_555
H10 C17 1_555 1_555
C18 C17 1_555 1_555
H11 C18 1_555 1_555
H12 O3 1_555 1_555
N1 C14 1_555 1_555
N2 C3 1_555 1_555
O1 Co1 1_555 1_555
O2 C12 1_555 1_555
O3 Co1 1_555 1_555
H13 O3 1_555 1_555
O4 C1 1_555 1_555
O5 C13 1_555 1_555
O6 C12 1_555 1_555
C14A H8A 1_555 1_555
C15A C14A 1_555 1_555
H9A C15A 1_555 1_555
C16A C16 1_555 1_555
C17A C16A 1_555 1_555
H10A C17A 1_555 1_555
C18A C17A 1_555 1_555
H11A C18A 1_555 1_555
N1A C14A 1_555 1_555
Co1A N1A 1_555 1_555
C1A C2A 1_555 1_555
C2A H1A 1_555 1_555
C3A C2A 1_555 1_555
H2A C3A 1_555 1_555
C4A H3A 1_555 1_555
C5A C1A 1_555 1_555
H4A C5A 1_555 1_555
C6A C7A 1_555 1_555
C7A H5A 1_555 1_555
C8A C7A 1_555 1_555
H6A C8A 1_555 1_555
C9A C8A 1_555 1_555
H7A C9A 1_555 1_555
C10A C9A 1_555 1_555
C11A C6A 1_555 1_555
C12A C11A 1_555 1_555
C13A C10A 1_555 1_555
H12A O3A 1_555 1_555
N2A C3A 1_555 1_555
O1A Co1A 1_555 1_555
O2A C12A 1_555 1_555
O3A Co1A 1_555 1_555
H13A O3A 1_555 1_555
O4A C1A 1_555 1_555
O5A C13A 1_555 1_555
O6A C12A 1_555 1_555
Co1_2 O2A 1_555 1_555
Co1_3 O4 1_555 1_555
Co1A_2 O4A 1_555 1_555
Co1A_3 O2 1_555 1_555
O2_2 Co1A 1_555 1_555
O2A_2 Co1 1_555 1_555
O4_2 Co1 1_555 1_555
O4A_2 Co1A 1_555 1_555
C4 C5 1_555 1_555
C4 N2 1_555 1_555
C6 N2 1_555 1_555
C10 C11 1_555 1_555
C13 O1 1_555 1_555
C18 N1 1_555 1_555
C15A C16A 1_555 1_555
C18A N1A 1_555 1_555
C4A C5A 1_555 1_555
C4A N2A 1_555 1_555
C6A N2A 1_555 1_555
C10A C11A 1_555 1_555
C13A O1A 1_555 1_555

#END
