
#######################################################################
#
#                 Cambridge Crystallographic Data Centre
#                                CCDC 
#
#######################################################################
#
# If this CIF has been generated from an entry in the Cambridge 
# Structural Database, then it will include bibliographic, chemical, 
# crystal, experimental, refinement or atomic coordinate data resulting 
# from the CCDC's data processing and validation procedures.
#
#######################################################################

data_JOHWEK
_symmetry_cell_setting           monoclinic
_symmetry_space_group_name_H-M   'C 2/c'
_symmetry_Int_Tables_number      15
_space_group_name_Hall           '-C 2yn'
loop_
_symmetry_equiv_pos_site_id
_symmetry_equiv_pos_as_xyz
1 x,y,z
2 -x,y,1/2-z
3 1/2+x,1/2+y,z
4 1/2-x,1/2+y,1/2-z
5 -x,-y,-z
6 x,-y,1/2+z
7 1/2-x,1/2-y,-z
8 1/2+x,1/2-y,1/2+z
_cell_length_a                   16.2001(4)
_cell_length_b                   8.7660(2)
_cell_length_c                   13.5412(4)
_cell_angle_alpha                90
_cell_angle_beta                 116.165(2)
_cell_angle_gamma                90
_cell_volume                     1725.93
loop_
_atom_site_label
_atom_site_type_symbol
_atom_site_fract_x
_atom_site_fract_y
_atom_site_fract_z
U1 U 0.2500 0.7500 0.0000
O1 O 0.36478(13) 0.6858(3) 0.05646(17)
O2 O 0.28989(15) 0.9608(2) 0.14221(17)
O3 O 0.30945(17) 1.0180(2) 0.00055(18)
O4 O 0.3451(2) 1.1832(3) 0.1327(2)
O5 O 0.24518(13) 0.6748(2) 0.16463(14)
N1 N 0.31604(17) 1.0603(3) 0.0937(2)
N2 N 0.31889(15) 0.6290(2) 0.25569(17)
C1 C 0.3468(2) 0.7143(3) 0.3467(2)
H1 H 0.3178 0.8066 0.3447
C2 C 0.41833(19) 0.6659(3) 0.4432(2)
H2 H 0.4376 0.7263 0.5058
C3 C 0.46193(17) 0.5283(3) 0.4480(2)
C4 C 0.4310(2) 0.4437(3) 0.3505(2)
H3 H 0.4589 0.3513 0.3498
C5 C 0.3598(2) 0.4962(3) 0.2563(2)
H4 H 0.3397 0.4391 0.1920
O5D O 0.75482(13) 0.3252(2) 0.83537(14)
N2D N 0.68111(15) 0.3710(2) 0.74431(17)
C1D C 0.6532(2) 0.2857(3) 0.6533(2)
H1D H 0.6822 0.1934 0.6553
C2D C 0.58167(19) 0.3341(3) 0.5568(2)
H2D H 0.5624 0.2737 0.4942
C3D C 0.53807(17) 0.4717(3) 0.5520(2)
C4D C 0.5690(2) 0.5563(3) 0.6495(2)
H3D H 0.5411 0.6487 0.6502
C5D C 0.6402(2) 0.5038(3) 0.7437(2)
H4D H 0.6603 0.5609 0.8080
O2F O 0.21011(15) 0.5392(2) -0.14221(17)
O3F O 0.19055(17) 0.4820(2) -0.00055(18)
O4F O 0.1549(2) 0.3168(3) -0.1327(2)
N1F N 0.18396(17) 0.4397(3) -0.0937(2)
O1F O 0.13522(13) 0.8142(3) -0.05646(17)
U1B U 0.7500 0.2500 1.0000
O5F O 0.25482(13) 0.8252(2) -0.16463(14)
O6 O 0.04768(19) 0.5622(3) 0.1051(2)
H5 H 0.026(2) 0.514(4) 0.147(3)
H6 H 0.1087(12) 0.555(4) 0.132(3)
O7 O 0.5000 0.9064(6) 0.2500
H7 H 0.518(3) 0.828(3) 0.222(3)
H7A H 0.482(3) 0.828(3) 0.278(3)
loop_
_geom_bond_atom_site_label_1
_geom_bond_atom_site_label_2
_geom_bond_site_symmetry_1
_geom_bond_site_symmetry_2
U1 O1 1_555 1_555
O2 U1 1_555 1_555
O3 U1 1_555 1_555
O4 N1 1_555 1_555
O5 U1 1_555 1_555
N1 O2 1_555 1_555
N2 O5 1_555 1_555
C1 N2 1_555 1_555
H1 C1 1_555 1_555
C2 C1 1_555 1_555
H2 C2 1_555 1_555
C3 C2 1_555 1_555
C4 C3 1_555 1_555
H3 C4 1_555 1_555
C5 N2 1_555 1_555
H4 C5 1_555 1_555
O6 H5 1_555 1_555
H6 O6 1_555 1_555
O7 H7 1_555 1_555
O5D N2D 1_555 1_555
N2D C1D 1_555 1_555
C1D H1D 1_555 1_555
C2D C1D 1_555 1_555
H2D C2D 1_555 1_555
C3D C3 1_555 1_555
C4D C3D 1_555 1_555
H3D C4D 1_555 1_555
C5D N2D 1_555 1_555
H4D C5D 1_555 1_555
O2F U1 1_555 1_555
O3F U1 1_555 1_555
O4F N1F 1_555 1_555
N1F O2F 1_555 1_555
O1F U1 1_555 1_555
U1B O5D 1_555 1_555
O5F U1 1_555 1_555
H7A O7 1_555 1_555
O3 N1 1_555 1_555
C4 C5 1_555 1_555
C2D C3D 1_555 1_555
C4D C5D 1_555 1_555
O3F N1F 1_555 1_555

#END
