
#######################################################################
#
#                 Cambridge Crystallographic Data Centre
#                                CCDC 
#
#######################################################################
#
# If this CIF has been generated from an entry in the Cambridge 
# Structural Database, then it will include bibliographic, chemical, 
# crystal, experimental, refinement or atomic coordinate data resulting 
# from the CCDC's data processing and validation procedures.
#
#######################################################################

data_JOJBIV
_symmetry_cell_setting           triclinic
_symmetry_space_group_name_H-M   'P -1'
_symmetry_Int_Tables_number      2
_space_group_name_Hall           '-P 1'
loop_
_symmetry_equiv_pos_site_id
_symmetry_equiv_pos_as_xyz
1 x,y,z
2 -x,-y,-z
_cell_length_a                   5.7597(5)
_cell_length_b                   9.5348(8)
_cell_length_c                   17.0606(15)
_cell_angle_alpha                82.5390(10)
_cell_angle_beta                 82.7210(10)
_cell_angle_gamma                83.019(2)
_cell_volume                     916.233
loop_
_atom_site_label
_atom_site_type_symbol
_atom_site_fract_x
_atom_site_fract_y
_atom_site_fract_z
Zn1 Zn 0.70677(7) 0.61705(4) 0.73501(2)
O1 O 0.7876(8) 0.8683(4) 0.8201(3)
O2 O 0.5070(6) 0.7855(3) 0.77001(17)
O3 O 0.7105(5) 0.3482(4) 0.6725(2)
O4 O 0.4557(5) 0.5288(3) 0.7025(2)
C1 C 0.5863(10) 0.8781(5) 0.8015(3)
C2 C 0.4248(14) 1.0094(7) 0.8157(4)
H1 H 0.5047 1.0724 0.8399
H2 H 0.2879 0.9842 0.8505
H3 H 0.3780 1.0560 0.7660
C3 C 0.5116(6) 0.4109(4) 0.6747(2)
C4 C 0.3234(8) 0.3506(6) 0.6407(4)
H4 H 0.3860 0.2619 0.6215
H5 H 0.2689 0.4161 0.5976
H6 H 0.1946 0.3351 0.6813
C5 C 1.3351(6) 0.4819(4) 0.95143(19)
C6 C 1.3831(11) 0.6111(5) 0.9606(4)
H7 H 1.3039 0.6900 0.9337
C7 C 1.5488(12) 0.6311(5) 1.0094(4)
H8 H 1.5794 0.7227 1.0149
C8 C 1.0478(7) 0.5619(4) 0.8541(2)
H9 H 1.0663 0.6582 0.8501
C9 C 0.9326(10) 0.3660(5) 0.8370(3)
H10 H 0.8541 0.2996 0.8183
C10 C 1.0917(10) 0.3352(5) 0.8897(3)
H11 H 1.1418 0.2455 0.9139
C11 C 1.3352(6) 0.9060(3) 0.5277(2)
C12 C 1.4783(7) 0.9439(4) 0.5788(2)
H12 H 1.4639 0.9056 0.6319
C13 C 1.6410(7) 1.0373(4) 0.5519(2)
H13 H 1.7358 1.0629 0.5868
C14 C 1.0632(7) 0.7271(4) 0.5110(2)
H14 H 1.0947 0.7234 0.4564
C15 C 0.9103(7) 0.6549(4) 0.5613(2)
H15 H 0.8163 0.5917 0.5472
C16 C 1.0683(6) 0.7803(4) 0.6315(2)
H16 H 1.1064 0.8208 0.6743
N1 N 1.1655(5) 0.8085(3) 0.55591(16)
N2 N 0.9133(5) 0.6884(3) 0.63708(17)
N3 N 0.9036(5) 0.5089(3) 0.81503(17)
N4 N 1.1650(5) 0.4609(3) 0.90057(17)
C5A C 1.6649(6) 0.5181(4) 1.04857(19)
C6A C 1.6169(11) 0.3889(5) 1.0394(4)
H7A H 1.6961 0.3100 1.0663
C7A C 1.4512(12) 0.3689(5) 0.9906(4)
H8A H 1.4206 0.2773 0.9851
C8A C 1.9522(7) 0.4381(4) 1.1459(2)
H9A H 1.9337 0.3418 1.1499
C9A C 2.0674(10) 0.6340(5) 1.1630(3)
H10A H 2.1459 0.7004 1.1817
C10A C 1.9083(10) 0.6648(5) 1.1103(3)
H11A H 1.8582 0.7545 1.0861
N3A N 2.0964(5) 0.4911(3) 1.18497(17)
N4A N 1.8350(5) 0.5391(3) 1.09943(17)
C11A C 1.6648(6) 1.0940(3) 0.4723(2)
C12A C 1.5217(7) 1.0561(4) 0.4212(2)
H12A H 1.5361 1.0944 0.3681
C13A C 1.3590(7) 0.9627(4) 0.4481(2)
H13A H 1.2642 0.9371 0.4132
C14A C 1.9368(7) 1.2729(4) 0.4890(2)
H14A H 1.9053 1.2766 0.5436
C15A C 2.0897(7) 1.3451(4) 0.4387(2)
H15A H 2.1837 1.4083 0.4528
C16A C 1.9317(6) 1.2197(4) 0.3685(2)
H16A H 1.8936 1.1792 0.3257
N1A N 1.8345(5) 1.1915(3) 0.44409(16)
N2A N 2.0867(5) 1.3116(3) 0.36292(17)
Zn1A Zn 2.29323(7) 0.38295(4) 1.26499(2)
O1A O 2.2124(8) 0.1317(4) 1.1799(3)
O2A O 2.4930(6) 0.2145(3) 1.22999(17)
O3A O 2.2895(5) 0.6518(4) 1.3275(2)
O4A O 2.5443(5) 0.4712(3) 1.2975(2)
C1A C 2.4137(10) 0.1219(5) 1.1985(3)
C2A C 2.5752(14) -0.0094(7) 1.1843(4)
H1A H 2.4953 -0.0724 1.1601
H2A H 2.7121 0.0158 1.1495
H3A H 2.6220 -0.0560 1.2340
C3A C 2.4884(6) 0.5891(4) 1.3253(2)
C4A C 2.6766(8) 0.6494(6) 1.3593(4)
H4A H 2.6140 0.7381 1.3785
H5A H 2.7311 0.5839 1.4024
H6A H 2.8054 0.6649 1.3187
Zn1A_2 Zn 2.29323(7) 1.38295(4) 0.26499(2)
N2A_2 N 2.0867(5) 0.3116(3) 1.36292(17)
O5 O 0.7851(13) 0.9731(6) 0.9691(3)
O6 O 0.9523(19) 0.0836(11) 0.7056(7)
loop_
_geom_bond_atom_site_label_1
_geom_bond_atom_site_label_2
_geom_bond_site_symmetry_1
_geom_bond_site_symmetry_2
Zn1 O2 1_555 1_555
O1 C1 1_555 1_555
O2 C1 1_555 1_555
O3 C3 1_555 1_555
O4 Zn1 1_555 1_555
C1 C2 1_555 1_555
C2 H1 1_555 1_555
H2 C2 1_555 1_555
H3 C2 1_555 1_555
C3 O4 1_555 1_555
C4 C3 1_555 1_555
H4 C4 1_555 1_555
H5 C4 1_555 1_555
H6 C4 1_555 1_555
C5 C6 1_555 1_555
C6 H7 1_555 1_555
C7 C6 1_555 1_555
H8 C7 1_555 1_555
C8 H9 1_555 1_555
C9 H10 1_555 1_555
C10 C9 1_555 1_555
H11 C10 1_555 1_555
C11 C12 1_555 1_555
C12 H12 1_555 1_555
C13 C12 1_555 1_555
H13 C13 1_555 1_555
C14 H14 1_555 1_555
C15 C14 1_555 1_555
H15 C15 1_555 1_555
C16 H16 1_555 1_555
N1 C11 1_555 1_555
N2 Zn1 1_555 1_555
N3 Zn1 1_555 1_555
N4 C5 1_555 1_555
C5A C7 1_555 1_555
C6A C5A 1_555 1_555
H7A C6A 1_555 1_555
C7A C5 1_555 1_555
H8A C7A 1_555 1_555
C8A H9A 1_555 1_555
C9A H10A 1_555 1_555
C10A C9A 1_555 1_555
H11A C10A 1_555 1_555
N3A C8A 1_555 1_555
N4A C5A 1_555 1_555
C11A C13 1_555 1_555
C12A C11A 1_555 1_555
H12A C12A 1_555 1_555
C13A C11 1_555 1_555
H13A C13A 1_555 1_555
C14A H14A 1_555 1_555
C15A C14A 1_555 1_555
H15A C15A 1_555 1_555
C16A H16A 1_555 1_555
N1A C11A 1_555 1_555
N2A C15A 1_555 1_555
Zn1A N3A 1_555 1_555
O1A C1A 1_555 1_555
O2A Zn1A 1_555 1_555
O3A C3A 1_555 1_555
O4A Zn1A 1_555 1_555
C1A O2A 1_555 1_555
C2A C1A 1_555 1_555
H1A C2A 1_555 1_555
H2A C2A 1_555 1_555
H3A C2A 1_555 1_555
C3A O4A 1_555 1_555
C4A C3A 1_555 1_555
H4A C4A 1_555 1_555
H5A C4A 1_555 1_555
H6A C4A 1_555 1_555
Zn1A_2 N2A 1_555 1_555
N2A_2 Zn1A 1_555 1_555
C8 N3 1_555 1_555
C8 N4 1_555 1_555
C9 N3 1_555 1_555
C10 N4 1_555 1_555
C14 N1 1_555 1_555
C15 N2 1_555 1_555
C16 N1 1_555 1_555
C16 N2 1_555 1_555
C6A C7A 1_555 1_555
C8A N4A 1_555 1_555
C9A N3A 1_555 1_555
C10A N4A 1_555 1_555
C12A C13A 1_555 1_555
C14A N1A 1_555 1_555
C16A N1A 1_555 1_555
C16A N2A 1_555 1_555

#END
