
#######################################################################
#
#                 Cambridge Crystallographic Data Centre
#                                CCDC 
#
#######################################################################
#
# If this CIF has been generated from an entry in the Cambridge 
# Structural Database, then it will include bibliographic, chemical, 
# crystal, experimental, refinement or atomic coordinate data resulting 
# from the CCDC's data processing and validation procedures.
#
#######################################################################

data_JOJDOD
_symmetry_cell_setting           monoclinic
_symmetry_space_group_name_H-M   'P 21/n'
_symmetry_Int_Tables_number      14
_space_group_name_Hall           '-P 2yn'
loop_
_symmetry_equiv_pos_site_id
_symmetry_equiv_pos_as_xyz
1 x,y,z
2 1/2-x,1/2+y,1/2-z
3 -x,-y,-z
4 1/2+x,1/2-y,1/2+z
_cell_length_a                   10.915(3)
_cell_length_b                   13.538(5)
_cell_length_c                   15.420(4)
_cell_angle_alpha                90
_cell_angle_beta                 105.532(15)
_cell_angle_gamma                90
_cell_volume                     2195.36
loop_
_atom_site_label
_atom_site_type_symbol
_atom_site_fract_x
_atom_site_fract_y
_atom_site_fract_z
N1 N -0.2761(5) -0.0658(5) -0.0890(4)
Co1 Co -0.42657(9) -0.15798(8) -0.15238(6)
O1 O -0.5768(6) -0.2613(5) -0.2041(3)
O2 O -0.4932(4) -0.1536(4) -0.0255(3)
O3 O -0.3326(5) -0.2805(4) -0.0599(3)
N2 N -0.4469(5) -0.0962(5) -0.2809(4)
N3 N -0.5752(6) -0.0482(6) -0.1708(4)
N4 N -0.3017(6) -0.2380(5) -0.2168(4)
H1 H -0.549(8) -0.296(6) -0.243(4)
H2 H -0.630(8) -0.215(5) -0.231(5)
C1 C -0.4649(7) -0.2394(6) 0.0304(5)
C2 C -0.6246(7) -0.1263(7) -0.0437(5)
C3 C -0.3306(8) -0.2675(7) 0.0325(5)
C4 C -0.2109(7) -0.3061(7) -0.0691(5)
C5 C -0.3810(7) -0.1319(6) -0.3360(4)
C6 C -0.5313(7) -0.0217(6) -0.3076(5)
C7 C -0.5986(8) 0.0070(7) -0.2396(5)
C8 C -0.6416(8) -0.0351(7) -0.1007(5)
C9 C -0.2262(7) -0.3187(6) -0.1702(5)
C10 C -0.2958(7) -0.2134(6) -0.2961(5)
H3 H -0.4715 -0.2248 0.0906
H4 H -0.5232 -0.2926 0.0054
H5 H -0.6469 -0.1132 0.0120
H6 H -0.6785 -0.1791 -0.0754
H7 H -0.2715 -0.2157 0.0600
H8 H -0.3059 -0.3282 0.0660
H9 H -0.1500 -0.2543 -0.0449
H10 H -0.1815 -0.3670 -0.0373
C11 C -0.4010(7) -0.0950(7) -0.4231(5)
C12 C -0.5514(8) 0.0188(7) -0.3941(5)
C13 C -0.6785(14) 0.0964(12) -0.2555(9)
H11 H -0.6072 0.0217 -0.0638
H12 H -0.7313 -0.0235 -0.1281
H13 H -0.2678 -0.3811 -0.1906
H14 H -0.1435 -0.3188 -0.1823
C14 C -0.2191(8) -0.2623(7) -0.3503(5)
C15 C -0.4879(7) -0.0199(6) -0.4523(4)
H15 H -0.3560 -0.1209 -0.4613
H16 H -0.6072 0.0714 -0.4120
H17 H -0.7139 0.1067 -0.2055
H18 H -0.6277 0.1524 -0.2618
H19 H -0.7461 0.0882 -0.3095
H20 H -0.2727 -0.2774 -0.4091
H21 H -0.1521 -0.2188 -0.3558
H22 H -0.1830 -0.3222 -0.3211
C16 C -0.8243(7) 0.0378(6) -0.9432(4)
Fe1 Fe -1.0000 0.0000 -1.0000
C17 C -0.9497(7) -0.1207(7) -1.0510(5)
C18 C -1.0148(7) -0.0699(6) -0.8944(5)
N5 N -0.9244(6) -0.1919(6) -1.0828(5)
N6 N -1.0273(6) -0.1108(6) -0.8310(4)
C15B C -0.5121(7) 0.0199(6) -0.5477(4)
C12B C -0.4486(8) -0.0188(7) -0.6059(5)
C11B C -0.5990(7) 0.0950(7) -0.5769(5)
H16B H -0.3928 -0.0714 -0.5880
C6B C -0.4687(7) 0.0217(6) -0.6924(5)
H15B H -0.6440 0.1209 -0.5387
C5B C -0.6190(7) 0.1319(6) -0.6640(4)
C7B C -0.4014(8) -0.0070(7) -0.7604(5)
N2B N -0.5531(5) 0.0962(5) -0.7191(4)
C10B C -0.7042(7) 0.2134(6) -0.7039(5)
C13B C -0.3215(14) -0.0964(12) -0.7445(9)
N3B N -0.4248(6) 0.0482(6) -0.8292(4)
Co1B Co -0.57343(9) 0.15798(8) -0.84762(6)
C14B C -0.7809(8) 0.2623(7) -0.6497(5)
N4B N -0.6983(6) 0.2380(5) -0.7832(4)
H17B H -0.2861 -0.1067 -0.7945
H18B H -0.3723 -0.1524 -0.7382
H19B H -0.2539 -0.0882 -0.6905
C8B C -0.3584(8) 0.0351(7) -0.8993(5)
O3B O -0.6674(5) 0.2805(4) -0.9401(3)
O2B O -0.5068(4) 0.1536(4) -0.9745(3)
O1B O -0.4232(6) 0.2613(5) -0.7959(3)
N1B N -0.7239(5) 0.0658(5) -0.9110(4)
H21B H -0.8479 0.2188 -0.6442
H20B H -0.7273 0.2774 -0.5909
H22B H -0.8170 0.3222 -0.6789
C9B C -0.7738(7) 0.3187(6) -0.8298(5)
H11B H -0.3928 -0.0217 -0.9362
C2B C -0.3754(7) 0.1263(7) -0.9563(5)
H12B H -0.2687 0.0235 -0.8719
C3B C -0.6694(8) 0.2675(7) -1.0325(5)
C4B C -0.7891(7) 0.3061(7) -0.9309(5)
C1B C -0.5351(7) 0.2394(6) -1.0304(5)
H2B H -0.370(8) 0.215(5) -0.769(5)
H1B H -0.451(8) 0.296(6) -0.757(4)
H13B H -0.7322 0.3811 -0.8094
H14B H -0.8565 0.3188 -0.8177
H6B H -0.3215 0.1791 -0.9246
H5B H -0.3531 0.1132 -1.0120
H8B H -0.6941 0.3282 -1.0660
H7B H -0.7285 0.2157 -1.0600
H10B H -0.8185 0.3670 -0.9627
H9B H -0.8500 0.2543 -0.9551
H4B H -0.4768 0.2926 -1.0054
H3B H -0.5285 0.2248 -1.0906
C17B C -1.0503(7) 0.1207(7) -0.9490(5)
C18B C -0.9852(7) 0.0699(6) -1.1056(5)
C16B C -1.1757(7) -0.0378(6) -1.0568(4)
N5B N -1.0756(6) 0.1919(6) -0.9172(5)
N6B N -0.9727(6) 0.1108(6) -1.1690(4)
N1_2 N -1.2761(5) -0.0658(5) -1.0890(4)
Co1_2 Co -1.42657(9) -0.15798(8) -1.15238(6)
O4 O 0.1462(5) 0.0365(4) 0.5086(3)
O5 O 0.8367(6) 0.1812(7) 0.2496(5)
O6 O 0.5257(13) 0.5250(10) 0.1673(7)
C19? C 0.729(4) -0.058(3) 0.279(2)
loop_
_geom_bond_atom_site_label_1
_geom_bond_atom_site_label_2
_geom_bond_site_symmetry_1
_geom_bond_site_symmetry_2
N1 Co1 1_555 1_555
Co1 O1 1_555 1_555
O1 H1 1_555 1_555
O2 Co1 1_555 1_555
O3 Co1 1_555 1_555
N2 Co1 1_555 1_555
N3 Co1 1_555 1_555
N4 Co1 1_555 1_555
H2 O1 1_555 1_555
C1 O2 1_555 1_555
C2 O2 1_555 1_555
C3 O3 1_555 1_555
C4 O3 1_555 1_555
C5 N2 1_555 1_555
C6 N2 1_555 1_555
C7 N3 1_555 1_555
C8 N3 1_555 1_555
C9 N4 1_555 1_555
C10 N4 1_555 1_555
H3 C1 1_555 1_555
H4 C1 1_555 1_555
H5 C2 1_555 1_555
H6 C2 1_555 1_555
H7 C3 1_555 1_555
H8 C3 1_555 1_555
H9 C4 1_555 1_555
H10 C4 1_555 1_555
C11 C5 1_555 1_555
C12 C6 1_555 1_555
C13 C7 1_555 1_555
H11 C8 1_555 1_555
H12 C8 1_555 1_555
H13 C9 1_555 1_555
H14 C9 1_555 1_555
C14 C10 1_555 1_555
C15 C11 1_555 1_555
H15 C11 1_555 1_555
H16 C12 1_555 1_555
H17 C13 1_555 1_555
H18 C13 1_555 1_555
H19 C13 1_555 1_555
H20 C14 1_555 1_555
H21 C14 1_555 1_555
H22 C14 1_555 1_555
C16 Fe1 1_555 1_555
Fe1 C17 1_555 1_555
C17 N5 1_555 1_555
C18 Fe1 1_555 1_555
N6 C18 1_555 1_555
C15B C15 1_555 1_555
C12B C15B 1_555 1_555
C11B C15B 1_555 1_555
H16B C12B 1_555 1_555
C6B C12B 1_555 1_555
H15B C11B 1_555 1_555
C5B C11B 1_555 1_555
C7B C6B 1_555 1_555
N2B C6B 1_555 1_555
C10B C5B 1_555 1_555
C13B C7B 1_555 1_555
N3B C7B 1_555 1_555
Co1B N2B 1_555 1_555
C14B C10B 1_555 1_555
N4B C10B 1_555 1_555
H17B C13B 1_555 1_555
H18B C13B 1_555 1_555
H19B C13B 1_555 1_555
C8B N3B 1_555 1_555
O3B Co1B 1_555 1_555
O2B Co1B 1_555 1_555
O1B Co1B 1_555 1_555
N1B C16 1_555 1_555
H21B C14B 1_555 1_555
H20B C14B 1_555 1_555
H22B C14B 1_555 1_555
C9B N4B 1_555 1_555
H11B C8B 1_555 1_555
C2B C8B 1_555 1_555
H12B C8B 1_555 1_555
C3B O3B 1_555 1_555
C4B O3B 1_555 1_555
C1B O2B 1_555 1_555
H2B O1B 1_555 1_555
H1B O1B 1_555 1_555
H13B C9B 1_555 1_555
H14B C9B 1_555 1_555
H6B C2B 1_555 1_555
H5B C2B 1_555 1_555
H8B C3B 1_555 1_555
H7B C3B 1_555 1_555
H10B C4B 1_555 1_555
H9B C4B 1_555 1_555
H4B C1B 1_555 1_555
H3B C1B 1_555 1_555
C17B Fe1 1_555 1_555
C18B Fe1 1_555 1_555
C16B Fe1 1_555 1_555
N5B C17B 1_555 1_555
N6B C18B 1_555 1_555
N1_2 C16B 1_555 1_555
Co1_2 N1_2 1_555 1_555
C1 C3 1_555 1_555
C2 C8 1_555 1_555
C4 C9 1_555 1_555
C5 C10 1_555 1_555
C6 C7 1_555 1_555
C12 C15 1_555 1_555
C5B N2B 1_555 1_555
N3B Co1B 1_555 1_555
Co1B N4B 1_555 1_555
Co1B N1B 1_555 1_555
O2B C2B 1_555 1_555
C9B C4B 1_555 1_555
C3B C1B 1_555 1_555

#END
