
#######################################################################
#
#                 Cambridge Crystallographic Data Centre
#                                CCDC 
#
#######################################################################
#
# If this CIF has been generated from an entry in the Cambridge 
# Structural Database, then it will include bibliographic, chemical, 
# crystal, experimental, refinement or atomic coordinate data resulting 
# from the CCDC's data processing and validation procedures.
#
#######################################################################

data_JOJHUM
_symmetry_cell_setting           monoclinic
_symmetry_space_group_name_H-M   'P 21/n'
_symmetry_Int_Tables_number      14
_space_group_name_Hall           '-P 2yn'
loop_
_symmetry_equiv_pos_site_id
_symmetry_equiv_pos_as_xyz
1 x,y,z
2 1/2-x,1/2+y,1/2-z
3 -x,-y,-z
4 1/2+x,1/2-y,1/2+z
_cell_length_a                   4.930(2)
_cell_length_b                   13.738(6)
_cell_length_c                   7.970(3)
_cell_angle_alpha                90
_cell_angle_beta                 104.622(9)
_cell_angle_gamma                90
_cell_volume                     522.312
loop_
_atom_site_label
_atom_site_type_symbol
_atom_site_fract_x
_atom_site_fract_y
_atom_site_fract_z
Cd1 Cd 0.0000 0.5000 0.5000
C1 C -0.1369(4) 0.72134(15) 0.6051(3)
H1 H -0.2476 0.6988 0.6756
C2 C -0.2688(4) 0.89929(14) 0.5915(3)
H2 H -0.4384 0.8805 0.6238
H3 H -0.3229 0.9396 0.4885
C3 C -0.0841(4) 0.95887(14) 0.7385(2)
N1 N -0.1290(3) 0.81207(12) 0.5512(2)
N2 N 0.0537(4) 0.81592(14) 0.4516(3)
N3 N 0.1507(4) 0.72910(14) 0.4470(2)
N4 N 0.0358(4) 0.66843(13) 0.5433(2)
O1 O -0.2071(4) 1.01553(10) 0.8161(2)
O2 O 0.1742(3) 0.94821(12) 0.76354(18)
Cd1C Cd -0.5000 1.0000 1.0000
Cd1C_2 Cd 0.5000 1.0000 1.0000
Cd1C_3 Cd 0.5000 0.0000 0.0000
Cd1C_4 Cd -0.5000 0.0000 0.0000
C1B C 0.1369(4) 0.27866(15) 0.3949(3)
H1B H 0.2476 0.3012 0.3244
C2B C 0.2688(4) 0.10071(14) 0.4085(3)
H2B H 0.4384 0.1195 0.3762
H3B H 0.3229 0.0604 0.5115
C3B C 0.0841(4) 0.04113(14) 0.2615(2)
N1B N 0.1290(3) 0.18793(12) 0.4488(2)
N2B N -0.0537(4) 0.18408(14) 0.5484(3)
N3B N -0.1507(4) 0.27090(14) 0.5530(2)
N4B N -0.0358(4) 0.33157(13) 0.4567(2)
O1B O 0.2071(4) -0.01553(10) 0.1839(2)
O1C O 0.2929(4) 0.48447(10) 0.3161(2)
O1A O -0.2929(4) 0.51553(10) 0.6839(2)
O2B O -0.1742(3) 0.05179(12) 0.23646(18)
O2C O -0.3258(3) 0.55179(12) 0.26354(18)
O2A O 0.3258(3) 0.44821(12) 0.73646(18)
loop_
_geom_bond_atom_site_label_1
_geom_bond_atom_site_label_2
_geom_bond_site_symmetry_1
_geom_bond_site_symmetry_2
Cd1 N4 1_555 1_555
C1 H1 1_555 1_555
C2 H2 1_555 1_555
H3 C2 1_555 1_555
C3 C2 1_555 1_555
N1 C1 1_555 1_555
N2 N1 1_555 1_555
N3 N2 1_555 1_555
N4 C1 1_555 1_555
O1 C3 1_555 1_555
O2 C3 1_555 1_555
Cd1C O1 1_555 1_555
Cd1C_2 O2 1_555 1_555
Cd1C_3 O1B 1_555 1_555
Cd1C_4 O2B 1_555 1_555
C1B H1B 1_555 1_555
C2B H2B 1_555 1_555
H3B C2B 1_555 1_555
C3B C2B 1_555 1_555
N1B C1B 1_555 1_555
N2B N1B 1_555 1_555
N3B N2B 1_555 1_555
N4B Cd1 1_555 1_555
O1B C3B 1_555 1_555
O1C Cd1 1_555 1_555
O1A Cd1 1_555 1_555
O2B C3B 1_555 1_555
O2C Cd1 1_555 1_555
O2A Cd1 1_555 1_555
C2 N1 1_555 1_555
N3 N4 1_555 1_555
C1B N4B 1_555 1_555
C2B N1B 1_555 1_555
N3B N4B 1_555 1_555

#END
