
#######################################################################
#
#                 Cambridge Crystallographic Data Centre
#                                CCDC 
#
#######################################################################
#
# If this CIF has been generated from an entry in the Cambridge 
# Structural Database, then it will include bibliographic, chemical, 
# crystal, experimental, refinement or atomic coordinate data resulting 
# from the CCDC's data processing and validation procedures.
#
#######################################################################

data_JOJHUM02
_symmetry_cell_setting           monoclinic
_symmetry_space_group_name_H-M   'C 2/c'
_symmetry_Int_Tables_number      15
_space_group_name_Hall           '-C 2yn'
loop_
_symmetry_equiv_pos_site_id
_symmetry_equiv_pos_as_xyz
1 x,y,z
2 -x,y,1/2-z
3 1/2+x,1/2+y,z
4 1/2-x,1/2+y,1/2-z
5 -x,-y,-z
6 x,-y,1/2+z
7 1/2-x,1/2-y,-z
8 1/2+x,1/2-y,1/2+z
_cell_length_a                   14.764(4)
_cell_length_b                   8.8529(19)
_cell_length_c                   9.509(2)
_cell_angle_alpha                90
_cell_angle_beta                 118.494(4)
_cell_angle_gamma                90
_cell_volume                     1092.31
loop_
_atom_site_label
_atom_site_type_symbol
_atom_site_fract_x
_atom_site_fract_y
_atom_site_fract_z
Cd1 Cd 0.5000 0.53562(3) 0.2500
O1 O 0.53203(13) 0.3474(2) 0.4345(2)
O2 O 0.44497(18) 0.2808(3) 0.5627(3)
N1 N 0.32348(16) 0.0838(3) 0.3350(3)
N2 N 0.3388(2) -0.0188(3) 0.4478(4)
N3 N 0.2497(2) -0.0515(3) 0.4330(4)
N4 N 0.17542(19) 0.0291(2) 0.3107(3)
C1 C 0.46639(19) 0.2711(3) 0.4505(3)
C2 C 0.41009(19) 0.1511(3) 0.3235(3)
H1 H 0.3849 0.1962 0.2184
H2 H 0.4584 0.0720 0.3340
C3 C 0.22347(19) 0.1111(3) 0.2526(3)
H3 H 0.1923 0.1779 0.1671
O1A O 0.46797(13) 0.3474(2) 0.0655(2)
O2A O 0.55503(18) 0.2808(3) -0.0627(3)
N1A N 0.67652(16) 0.0838(3) 0.1650(3)
N2A N 0.6612(2) -0.0188(3) 0.0522(4)
N3A N 0.7503(2) -0.0515(3) 0.0670(4)
N4A N 0.82458(19) 0.0291(2) 0.1893(3)
C1A C 0.53361(19) 0.2711(3) 0.0495(3)
C2A C 0.58991(19) 0.1511(3) 0.1765(3)
H1A H 0.6151 0.1962 0.2816
H2A H 0.5416 0.0720 0.1660
C3A C 0.77653(19) 0.1111(3) 0.2474(3)
H3A H 0.8077 0.1779 0.3329
Cd1B Cd 0.0000 0.03562(3) 0.2500
Cd1B_2 Cd 1.0000 0.03562(3) 0.2500
Cd1D Cd 0.5000 0.46438(3) -0.2500
Cd1D_2 Cd 0.5000 0.46438(3) 0.7500
O2D O 0.55503(18) 0.7192(3) 0.4373(3)
O2E O 0.44497(18) 0.7192(3) 0.0627(3)
N4B N 0.67542(19) 0.5291(2) 0.3107(3)
N4C N 0.32458(19) 0.5291(2) 0.1893(3)
loop_
_geom_bond_atom_site_label_1
_geom_bond_atom_site_label_2
_geom_bond_site_symmetry_1
_geom_bond_site_symmetry_2
Cd1 O1 1_555 1_555
O1 C1 1_555 1_555
O2 C1 1_555 1_555
N1 N2 1_555 1_555
N2 N3 1_555 1_555
N3 N4 1_555 1_555
N4 C3 1_555 1_555
C1 C2 1_555 1_555
C2 N1 1_555 1_555
H1 C2 1_555 1_555
H2 C2 1_555 1_555
C3 N1 1_555 1_555
H3 C3 1_555 1_555
O1A Cd1 1_555 1_555
O2A C1A 1_555 1_555
N1A N2A 1_555 1_555
N2A N3A 1_555 1_555
N3A N4A 1_555 1_555
N4A C3A 1_555 1_555
C1A O1A 1_555 1_555
C2A N1A 1_555 1_555
H1A C2A 1_555 1_555
H2A C2A 1_555 1_555
C3A N1A 1_555 1_555
H3A C3A 1_555 1_555
Cd1B N4 1_555 1_555
Cd1B_2 N4A 1_555 1_555
Cd1D O2A 1_555 1_555
Cd1D_2 O2 1_555 1_555
O2D Cd1 1_555 1_555
O2E Cd1 1_555 1_555
N4B Cd1 1_555 1_555
N4C Cd1 1_555 1_555
C1A C2A 1_555 1_555

#END
