
#######################################################################
#
#                 Cambridge Crystallographic Data Centre
#                                CCDC 
#
#######################################################################
#
# If this CIF has been generated from an entry in the Cambridge 
# Structural Database, then it will include bibliographic, chemical, 
# crystal, experimental, refinement or atomic coordinate data resulting 
# from the CCDC's data processing and validation procedures.
#
#######################################################################

data_JOJJIC01
_symmetry_cell_setting           monoclinic
_symmetry_space_group_name_H-M   'C 2/c'
_symmetry_Int_Tables_number      15
_space_group_name_Hall           '-C 2yn'
loop_
_symmetry_equiv_pos_site_id
_symmetry_equiv_pos_as_xyz
1 x,y,z
2 -x,y,1/2-z
3 1/2+x,1/2+y,z
4 1/2-x,1/2+y,1/2-z
5 -x,-y,-z
6 x,-y,1/2+z
7 1/2-x,1/2-y,-z
8 1/2+x,1/2-y,1/2+z
_cell_length_a                   14.406(3)
_cell_length_b                   8.3832(17)
_cell_length_c                   9.4782(19)
_cell_angle_alpha                90
_cell_angle_beta                 118.56(3)
_cell_angle_gamma                90
_cell_volume                     1005.38
loop_
_atom_site_label
_atom_site_type_symbol
_atom_site_fract_x
_atom_site_fract_y
_atom_site_fract_z
Co1 Co 0.0000 0.53870(6) 0.2500
O1 O -0.03162(13) 0.3664(2) 0.07584(19)
O2 O 0.03589(15) 0.2809(2) -0.0795(2)
N1 N 0.17986(15) 0.0914(3) 0.1564(2)
N2 N 0.16518(17) -0.0128(3) 0.0398(3)
N3 N 0.25775(18) -0.0426(3) 0.0549(3)
N4 N 0.33280(15) 0.0408(3) 0.1798(2)
C1 C 0.28216(19) 0.1220(3) 0.2404(3)
H1 H 0.3133 0.1901 0.3284
C2 C 0.09134(19) 0.1553(3) 0.1725(3)
H2 H 0.1180 0.2026 0.2782
H3 H 0.0447 0.0683 0.1647
C3 C 0.02811(18) 0.2801(3) 0.0460(3)
O1A O 0.03162(13) 0.3664(2) 0.42416(19)
O2A O -0.03589(15) 0.2809(2) 0.5795(2)
N1A N -0.17986(15) 0.0914(3) 0.3436(2)
N2A N -0.16518(17) -0.0128(3) 0.4602(3)
N3A N -0.25775(18) -0.0426(3) 0.4451(3)
N4A N -0.33280(15) 0.0408(3) 0.3202(2)
C1A C -0.28216(19) 0.1220(3) 0.2596(3)
H1A H -0.3133 0.1901 0.1716
C2A C -0.09134(19) 0.1553(3) 0.3275(3)
H2A H -0.1180 0.2026 0.2218
H3A H -0.0447 0.0683 0.3353
C3A C -0.02811(18) 0.2801(3) 0.4540(3)
Co1B Co -0.5000 0.03870(6) 0.2500
Co1B_2 Co 0.5000 0.03870(6) 0.2500
Co1D Co 0.0000 0.46130(6) -0.2500
Co1D_2 Co 0.0000 0.46130(6) 0.7500
O2D O -0.03589(15) 0.7191(2) 0.0795(2)
O2E O 0.03589(15) 0.7191(2) 0.4205(2)
N4B N -0.16720(15) 0.5408(3) 0.1798(2)
N4C N 0.16720(15) 0.5408(3) 0.3202(2)
loop_
_geom_bond_atom_site_label_1
_geom_bond_atom_site_label_2
_geom_bond_site_symmetry_1
_geom_bond_site_symmetry_2
Co1 O1 1_555 1_555
O1 C3 1_555 1_555
O2 C3 1_555 1_555
N1 N2 1_555 1_555
N2 N3 1_555 1_555
N3 N4 1_555 1_555
N4 C1 1_555 1_555
C1 N1 1_555 1_555
H1 C1 1_555 1_555
C2 N1 1_555 1_555
H2 C2 1_555 1_555
H3 C2 1_555 1_555
C3 C2 1_555 1_555
O1A Co1 1_555 1_555
O2A C3A 1_555 1_555
N1A N2A 1_555 1_555
N2A N3A 1_555 1_555
N3A N4A 1_555 1_555
N4A C1A 1_555 1_555
C1A N1A 1_555 1_555
H1A C1A 1_555 1_555
C2A N1A 1_555 1_555
H2A C2A 1_555 1_555
H3A C2A 1_555 1_555
C3A O1A 1_555 1_555
Co1B N4A 1_555 1_555
Co1B_2 N4 1_555 1_555
Co1D O2 1_555 1_555
Co1D_2 O2A 1_555 1_555
O2D Co1 1_555 1_555
O2E Co1 1_555 1_555
N4B Co1 1_555 1_555
N4C Co1 1_555 1_555
C2A C3A 1_555 1_555

#END
