
#######################################################################
#
#                 Cambridge Crystallographic Data Centre
#                                CCDC 
#
#######################################################################
#
# If this CIF has been generated from an entry in the Cambridge 
# Structural Database, then it will include bibliographic, chemical, 
# crystal, experimental, refinement or atomic coordinate data resulting 
# from the CCDC's data processing and validation procedures.
#
#######################################################################

data_JOJJEY
_symmetry_cell_setting           monoclinic
_symmetry_space_group_name_H-M   'C 2/c'
_symmetry_Int_Tables_number      15
_space_group_name_Hall           '-C 2yn'
loop_
_symmetry_equiv_pos_site_id
_symmetry_equiv_pos_as_xyz
1 x,y,z
2 1/2+x,1/2+y,z
3 -x,y,1/2-z
4 1/2-x,1/2+y,1/2-z
5 -x,-y,-z
6 1/2-x,1/2-y,-z
7 x,-y,1/2+z
8 1/2+x,1/2-y,1/2+z
_cell_length_a                   14.423(3)
_cell_length_b                   8.3410(8)
_cell_length_c                   9.5055(17)
_cell_angle_alpha                90
_cell_angle_beta                 118.374(7)
_cell_angle_gamma                90
_cell_volume                     1006.15
loop_
_atom_site_label
_atom_site_type_symbol
_atom_site_fract_x
_atom_site_fract_y
_atom_site_fract_z
Zn1 Zn 0.0000 0.54215(5) 0.7500
O1 O -0.03290(11) 0.3652(2) 0.57431(18)
O2 O 0.03424(14) 0.2777(2) 0.41977(19)
N1 N 0.33220(14) 0.0420(2) 0.6799(2)
N2 N 0.25751(16) -0.0413(3) 0.5540(3)
N3 N 0.16553(16) -0.0126(3) 0.5395(3)
N4 N 0.17979(14) 0.0915(2) 0.6567(2)
C1 C 0.28205(17) 0.1221(3) 0.7408(3)
H1 H 0.3130 0.1898 0.8290
C2 C 0.09108(17) 0.1542(3) 0.6727(3)
H2 H 0.1173 0.2028 0.7774
H3 H 0.0454 0.0660 0.6661
C3 C 0.02671(16) 0.2782(3) 0.5452(3)
Zn1F Zn 0.0000 0.45785(5) 0.2500
Zn1A Zn 0.5000 0.04215(5) 0.7500
Zn1F_2 Zn 0.0000 0.45785(5) 1.2500
Zn1A_2 Zn -0.5000 0.04215(5) 0.7500
O1B O 0.03290(11) 0.3652(2) 0.92569(18)
O2B O -0.03424(14) 0.2777(2) 1.08023(19)
O2F O 0.03424(14) 0.7223(2) 0.91977(19)
O2D O -0.03424(14) 0.7223(2) 0.58023(19)
N1B N -0.33220(14) 0.0420(2) 0.8201(2)
N1A N -0.16780(14) 0.5420(2) 0.6799(2)
N1C N 0.16780(14) 0.5420(2) 0.8201(2)
N2B N -0.25751(16) -0.0413(3) 0.9460(3)
N3B N -0.16553(16) -0.0126(3) 0.9605(3)
N4B N -0.17979(14) 0.0915(2) 0.8433(2)
C1B C -0.28205(17) 0.1221(3) 0.7592(3)
H1B H -0.3130 0.1898 0.6710
C2B C -0.09108(17) 0.1542(3) 0.8273(3)
H2B H -0.1173 0.2028 0.7226
H3B H -0.0454 0.0660 0.8339
C3B C -0.02671(16) 0.2782(3) 0.9548(3)
loop_
_geom_bond_atom_site_label_1
_geom_bond_atom_site_label_2
_geom_bond_site_symmetry_1
_geom_bond_site_symmetry_2
Zn1 O1 1_555 1_555
O1 C3 1_555 1_555
O2 C3 1_555 1_555
N1 N2 1_555 1_555
N2 N3 1_555 1_555
N3 N4 1_555 1_555
N4 C1 1_555 1_555
C1 N1 1_555 1_555
H1 C1 1_555 1_555
C2 N4 1_555 1_555
H2 C2 1_555 1_555
H3 C2 1_555 1_555
C3 C2 1_555 1_555
Zn1F O2 1_555 1_555
Zn1A N1 1_555 1_555
Zn1F_2 O2B 1_555 1_555
Zn1A_2 N1B 1_555 1_555
O1B Zn1 1_555 1_555
O2B C3B 1_555 1_555
O2F Zn1 1_555 1_555
O2D Zn1 1_555 1_555
N1B N2B 1_555 1_555
N1A Zn1 1_555 1_555
N1C Zn1 1_555 1_555
N2B N3B 1_555 1_555
N3B N4B 1_555 1_555
N4B C1B 1_555 1_555
C1B N1B 1_555 1_555
H1B C1B 1_555 1_555
C2B N4B 1_555 1_555
H2B C2B 1_555 1_555
H3B C2B 1_555 1_555
C3B O1B 1_555 1_555
C2B C3B 1_555 1_555

#END
