
#######################################################################
#
#                 Cambridge Crystallographic Data Centre
#                                CCDC 
#
#######################################################################
#
# If this CIF has been generated from an entry in the Cambridge 
# Structural Database, then it will include bibliographic, chemical, 
# crystal, experimental, refinement or atomic coordinate data resulting 
# from the CCDC's data processing and validation procedures.
#
#######################################################################

data_JOKGEX
_symmetry_cell_setting           orthorhombic
_symmetry_space_group_name_H-M   'P c a 21'
_symmetry_Int_Tables_number      29
_space_group_name_Hall           'P 2c -2ac'
loop_
_symmetry_equiv_pos_site_id
_symmetry_equiv_pos_as_xyz
1 x,y,z
2 -x,-y,1/2+z
3 1/2-x,y,1/2+z
4 1/2+x,-y,z
_cell_length_a                   14.1597(9)
_cell_length_b                   10.5162(7)
_cell_length_c                   24.8704(15)
_cell_angle_alpha                90
_cell_angle_beta                 90
_cell_angle_gamma                90
_cell_volume                     3703.36
loop_
_atom_site_label
_atom_site_type_symbol
_atom_site_fract_x
_atom_site_fract_y
_atom_site_fract_z
Mn1 Mn 0.88896(5) 0.25262(8) 0.34756(5)
O1 O 0.7703(3) 0.3254(3) 0.31037(16)
N1 N 0.8793(4) 0.1389(5) 0.2692(2)
C1 C 1.0252(7) 0.0175(10) 0.2772(4)
H1 H 1.0311 0.0686 0.3100
H2 H 1.0786 0.0351 0.2534
H3 H 1.0248 -0.0730 0.2867
O2 O 1.0078(3) 0.1790(4) 0.38444(16)
N2 N 0.5489(8) -0.0847(10) 0.0478(4)
C2 C 0.9340(5) 0.0510(7) 0.2489(3)
N3 N 0.4820(4) 0.5977(5) 0.3066(2)
C3 C 0.9123(6) -0.0111(8) 0.2001(3)
H4 H 0.9547 -0.0721 0.1856
N4 N 0.8986(3) 0.3623(5) 0.4275(2)
C4 C 0.8306(5) 0.0168(7) 0.1741(3)
H5 H 0.8168 -0.0225 0.1406
N5 N 1.2972(4) -0.0999(5) 0.3877(2)
C5 C 0.7658(5) 0.1047(6) 0.1969(3)
N6 N 1.2041(8) 0.4838(11) 0.6776(4)
C6 C 0.7962(4) 0.1679(5) 0.2436(2)
C7 C 0.7411(4) 0.2694(5) 0.2669(3)
C8 C 0.6577(4) 0.3038(5) 0.2413(2)
C9 C 0.6271(5) 0.2374(5) 0.1944(3)
H6 H 0.5701 0.2631 0.1775
C10 C 0.6776(5) 0.1367(6) 0.1727(2)
C11 C 0.6368(5) 0.0600(7) 0.1281(3)
C12 C 0.5946(7) 0.1150(10) 0.0841(3)
H7 H 0.5963 0.2046 0.0794
C13 C 0.5501(10) 0.0396(11) 0.0475(4)
H8 H 0.5172 0.0810 0.0192
C14 C 0.5891(8) -0.1381(11) 0.0896(5)
H9 H 0.5883 -0.2283 0.0919
C15 C 0.6328(6) -0.0706(8) 0.1305(4)
H10 H 0.6599 -0.1143 0.1602
C16 C 0.5965(4) 0.4057(6) 0.2628(3)
C17 C 0.4998(5) 0.3995(8) 0.2626(4)
H11 H 0.4695 0.3275 0.2472
C18 C 0.4456(5) 0.4955(7) 0.2844(4)
H12 H 0.3788 0.4875 0.2832
C19 C 0.5761(5) 0.6084(6) 0.3067(3)
H13 H 0.6037 0.6821 0.3221
C20 C 0.6345(4) 0.5167(6) 0.2853(3)
H14 H 0.7010 0.5288 0.2858
C21 C 0.7524(7) 0.4800(10) 0.4213(4)
H15 H 0.7511 0.4361 0.3866
H16 H 0.7504 0.5721 0.4155
H17 H 0.6977 0.4541 0.4428
C22 C 0.8412(5) 0.4461(7) 0.4507(3)
C23 C 0.8615(6) 0.4987(8) 0.5021(3)
H18 H 0.8173 0.5536 0.5190
C24 C 0.9439(6) 0.4702(7) 0.5268(3)
H19 H 0.9583 0.5081 0.5605
C25 C 1.0084(5) 0.3854(6) 0.5033(2)
C26 C 0.9809(4) 0.3284(5) 0.4542(2)
C27 C 1.0943(5) 0.3453(6) 0.5279(3)
C28 C 1.1456(5) 0.2522(6) 0.5030(3)
H20 H 1.2024 0.2254 0.5199
C29 C 1.1210(4) 0.1936(6) 0.4548(2)
C30 C 1.0357(4) 0.2298(5) 0.4292(2)
C31 C 1.1810(4) 0.0931(6) 0.4311(2)
C32 C 1.1433(5) -0.0150(6) 0.4074(4)
H21 H 1.0768 -0.0257 0.4056
C33 C 1.2024(4) -0.1075(6) 0.3863(3)
H22 H 1.1744 -0.1801 0.3700
C34 C 1.3326(5) 0.0036(7) 0.4114(4)
H23 H 1.3994 0.0113 0.4134
C35 C 1.2785(5) 0.1006(7) 0.4332(3)
H24 H 1.3082 0.1718 0.4495
C36 C 1.1284(5) 0.3980(7) 0.5802(3)
C37 C 1.1594(7) 0.3179(9) 0.6208(3)
H25 H 1.1563 0.2287 0.6151
C38 C 1.1938(8) 0.3613(11) 0.6680(4)
H26 H 1.2109 0.3019 0.6951
C39 C 1.1736(9) 0.5654(11) 0.6406(5)
H27 H 1.1755 0.6536 0.6488
C40 C 1.1387(7) 0.5285(8) 0.5903(4)
H28 H 1.1224 0.5899 0.5639
Mn1C Mn 0.38896(5) 0.74738(8) 0.34756(5)
Mn1C_2 Mn 1.38896(5) -0.25262(8) 0.34756(5)
N3C N 0.9820(4) 0.4023(5) 0.3066(2)
N5C N 0.7972(4) 0.0999(5) 0.3877(2)
O3 O 1.0887(7) 0.7584(8) 0.5008(4)
O4 O 0.9861(7) -0.2778(8) 0.4006(4)
loop_
_geom_bond_atom_site_label_1
_geom_bond_atom_site_label_2
_geom_bond_site_symmetry_1
_geom_bond_site_symmetry_2
Mn1 O1 1_555 1_555
O1 C7 1_555 1_555
N1 Mn1 1_555 1_555
C1 H1 1_555 1_555
H2 C1 1_555 1_555
H3 C1 1_555 1_555
O2 Mn1 1_555 1_555
N2 C13 1_555 1_555
C2 N1 1_555 1_555
N3 C18 1_555 1_555
C3 C2 1_555 1_555
H4 C3 1_555 1_555
N4 Mn1 1_555 1_555
C4 C3 1_555 1_555
H5 C4 1_555 1_555
N5 C33 1_555 1_555
C5 C4 1_555 1_555
N6 C38 1_555 1_555
C6 N1 1_555 1_555
C7 C6 1_555 1_555
C8 C7 1_555 1_555
C9 C8 1_555 1_555
H6 C9 1_555 1_555
C10 C5 1_555 1_555
C11 C10 1_555 1_555
C12 C11 1_555 1_555
H7 C12 1_555 1_555
C13 C12 1_555 1_555
H8 C13 1_555 1_555
C14 N2 1_555 1_555
H9 C14 1_555 1_555
C15 C11 1_555 1_555
H10 C15 1_555 1_555
C16 C8 1_555 1_555
C17 C16 1_555 1_555
H11 C17 1_555 1_555
C18 C17 1_555 1_555
H12 C18 1_555 1_555
C19 N3 1_555 1_555
H13 C19 1_555 1_555
C20 C16 1_555 1_555
H14 C20 1_555 1_555
C21 H15 1_555 1_555
H16 C21 1_555 1_555
H17 C21 1_555 1_555
C22 N4 1_555 1_555
C23 C22 1_555 1_555
H18 C23 1_555 1_555
C24 C23 1_555 1_555
H19 C24 1_555 1_555
C25 C24 1_555 1_555
C26 N4 1_555 1_555
C27 C25 1_555 1_555
C28 C27 1_555 1_555
H20 C28 1_555 1_555
C29 C28 1_555 1_555
C30 O2 1_555 1_555
C31 C29 1_555 1_555
C32 C31 1_555 1_555
H21 C32 1_555 1_555
C33 C32 1_555 1_555
H22 C33 1_555 1_555
C34 N5 1_555 1_555
H23 C34 1_555 1_555
C35 C31 1_555 1_555
H24 C35 1_555 1_555
C36 C27 1_555 1_555
C37 C36 1_555 1_555
H25 C37 1_555 1_555
C38 C37 1_555 1_555
H26 C38 1_555 1_555
C39 N6 1_555 1_555
H27 C39 1_555 1_555
C40 C36 1_555 1_555
H28 C40 1_555 1_555
Mn1C N3 1_555 1_555
Mn1C_2 N5 1_555 1_555
N3C Mn1 1_555 1_555
N5C Mn1 1_555 1_555
C1 C2 1_555 1_555
C5 C6 1_555 1_555
C9 C10 1_555 1_555
C14 C15 1_555 1_555
C19 C20 1_555 1_555
C21 C22 1_555 1_555
C25 C26 1_555 1_555
C26 C30 1_555 1_555
C29 C30 1_555 1_555
C34 C35 1_555 1_555
C39 C40 1_555 1_555

#END
