
#######################################################################
#
#                 Cambridge Crystallographic Data Centre
#                                CCDC 
#
#######################################################################
#
# If this CIF has been generated from an entry in the Cambridge 
# Structural Database, then it will include bibliographic, chemical, 
# crystal, experimental, refinement or atomic coordinate data resulting 
# from the CCDC's data processing and validation procedures.
#
#######################################################################

data_JOKGAT
_symmetry_cell_setting           monoclinic
_symmetry_space_group_name_H-M   'P 21/c'
_symmetry_Int_Tables_number      14
_space_group_name_Hall           '-P 2ybc'
loop_
_symmetry_equiv_pos_site_id
_symmetry_equiv_pos_as_xyz
1 x,y,z
2 -x,1/2+y,1/2-z
3 -x,-y,-z
4 x,1/2-y,1/2+z
_cell_length_a                   13.073(5)
_cell_length_b                   10.287(4)
_cell_length_c                   14.362(6)
_cell_angle_alpha                90
_cell_angle_beta                 114.177(7)
_cell_angle_gamma                90
_cell_volume                     1762.01
loop_
_atom_site_label
_atom_site_type_symbol
_atom_site_fract_x
_atom_site_fract_y
_atom_site_fract_z
Mn1 Mn 0.5000 1.0000 0.0000
O1 O 0.58344(15) 1.0853(2) -0.07935(14)
N1 N 0.66011(19) 0.8787(2) 0.04582(17)
C1 C 0.6358(3) 0.7430(4) 0.1738(3)
H1 H 0.5726 0.8026 0.1594
H2 H 0.6870 0.7494 0.2461
H3 H 0.6077 0.6537 0.1584
N2 N 0.5810(2) 1.3579(3) -0.37016(18)
C2 C 0.6971(3) 0.7786(3) 0.1090(2)
N3 N 1.0877(4) 0.6466(5) -0.1572(4)
C3 C 0.7914(3) 0.7075(4) 0.1155(3)
H4 H 0.8187 0.6384 0.1632
C4 C 0.8440(3) 0.7369(4) 0.0539(3)
H5 H 0.9071 0.6873 0.0583
C5 C 0.8059(2) 0.8401(3) -0.0165(2)
C6 C 0.7145(2) 0.9120(3) -0.0148(2)
C7 C 0.6714(2) 1.0238(3) -0.07923(19)
C8 C 0.7232(2) 1.0598(3) -0.1436(2)
C9 C 0.8146(2) 0.9860(3) -0.1429(2)
H6 H 0.8496 1.0135 -0.1859
C10 C 0.8560(2) 0.8769(3) -0.0843(2)
C11 C 0.6764(2) 1.1653(3) -0.2190(2)
C12 C 0.6375(3) 1.2820(3) -0.1987(2)
H7 H 0.6423 1.2986 -0.1320
C13 C 0.5920(3) 1.3744(3) -0.2736(2)
H8 H 0.5670 1.4539 -0.2563
C14 C 0.6183(3) 1.2449(3) -0.3901(2)
H9 H 0.6122 1.2301 -0.4574
C15 C 0.6648(3) 1.1495(3) -0.3189(2)
H10 H 0.6895 1.0711 -0.3381
C16 C 0.9397(3) 0.7956(4) -0.1024(2)
C17 C 0.9244(3) 0.6641(4) -0.1200(3)
H11 H 0.8634 0.6211 -0.1134
C18 C 0.9993(4) 0.5943(5) -0.1476(4)
H12 H 0.9865 0.5039 -0.1603
C19 C 1.1018(4) 0.7740(6) -0.1386(4)
H13 H 1.1644 0.8142 -0.1443
C20 C 1.0321(3) 0.8511(4) -0.1118(3)
H14 H 1.0470 0.9413 -0.0997
O1B O 0.41656(15) 0.9147(2) 0.07935(14)
N1B N 0.33989(19) 1.1213(2) -0.04582(17)
C1B C 0.3642(3) 1.2570(4) -0.1738(3)
H1B H 0.4274 1.1974 -0.1594
H2B H 0.3130 1.2506 -0.2461
H3B H 0.3923 1.3463 -0.1584
N2B N 0.4190(2) 0.6421(3) 0.37016(18)
C2B C 0.3029(3) 1.2214(3) -0.1090(2)
N3B N -0.0877(4) 1.3534(5) 0.1572(4)
C3B C 0.2086(3) 1.2925(4) -0.1155(3)
H4B H 0.1813 1.3616 -0.1632
C4B C 0.1560(3) 1.2631(4) -0.0539(3)
H5B H 0.0929 1.3127 -0.0583
C5B C 0.1941(2) 1.1599(3) 0.0165(2)
C6B C 0.2855(2) 1.0880(3) 0.0148(2)
C7B C 0.3286(2) 0.9762(3) 0.07923(19)
C8B C 0.2768(2) 0.9402(3) 0.1436(2)
C9B C 0.1854(2) 1.0140(3) 0.1429(2)
H6B H 0.1504 0.9865 0.1859
C10B C 0.1440(2) 1.1231(3) 0.0843(2)
C11B C 0.3236(2) 0.8347(3) 0.2190(2)
C12B C 0.3625(3) 0.7180(3) 0.1987(2)
H7B H 0.3577 0.7014 0.1320
C13B C 0.4080(3) 0.6256(3) 0.2736(2)
H8B H 0.4330 0.5461 0.2563
C14B C 0.3817(3) 0.7551(3) 0.3901(2)
H9B H 0.3878 0.7699 0.4574
C15B C 0.3352(3) 0.8505(3) 0.3189(2)
H10B H 0.3105 0.9289 0.3381
C16B C 0.0603(3) 1.2044(4) 0.1024(2)
C17B C 0.0756(3) 1.3359(4) 0.1200(3)
H11B H 0.1366 1.3789 0.1134
C18B C 0.0007(4) 1.4057(5) 0.1476(4)
H12B H 0.0135 1.4961 0.1603
C19B C -0.1018(4) 1.2260(6) 0.1386(4)
H13B H -0.1644 1.1858 0.1443
C20B C -0.0321(3) 1.1489(4) 0.1118(3)
H14B H -0.0470 1.0587 0.0997
Mn1A Mn 0.5000 0.5000 0.5000
Mn1A_2 Mn 0.5000 1.5000 -0.5000
N2A N 0.4190(2) 0.8579(3) -0.12984(18)
N2C N 0.5810(2) 1.1421(3) 0.12984(18)
loop_
_geom_bond_atom_site_label_1
_geom_bond_atom_site_label_2
_geom_bond_site_symmetry_1
_geom_bond_site_symmetry_2
Mn1 O1 1_555 1_555
O1 C7 1_555 1_555
N1 Mn1 1_555 1_555
C1 H1 1_555 1_555
H2 C1 1_555 1_555
H3 C1 1_555 1_555
N2 C13 1_555 1_555
C2 N1 1_555 1_555
N3 C18 1_555 1_555
C3 C2 1_555 1_555
H4 C3 1_555 1_555
C4 C3 1_555 1_555
H5 C4 1_555 1_555
C5 C4 1_555 1_555
C6 N1 1_555 1_555
C7 C6 1_555 1_555
C8 C7 1_555 1_555
C9 C8 1_555 1_555
H6 C9 1_555 1_555
C10 C5 1_555 1_555
C11 C8 1_555 1_555
C12 C11 1_555 1_555
H7 C12 1_555 1_555
C13 C12 1_555 1_555
H8 C13 1_555 1_555
C14 N2 1_555 1_555
H9 C14 1_555 1_555
C15 C11 1_555 1_555
H10 C15 1_555 1_555
C16 C10 1_555 1_555
C17 C16 1_555 1_555
H11 C17 1_555 1_555
C18 C17 1_555 1_555
H12 C18 1_555 1_555
C19 N3 1_555 1_555
H13 C19 1_555 1_555
C20 C16 1_555 1_555
H14 C20 1_555 1_555
O1B Mn1 1_555 1_555
N1B Mn1 1_555 1_555
C1B H1B 1_555 1_555
H2B C1B 1_555 1_555
H3B C1B 1_555 1_555
N2B C13B 1_555 1_555
C2B N1B 1_555 1_555
N3B C18B 1_555 1_555
C3B C2B 1_555 1_555
H4B C3B 1_555 1_555
C4B C3B 1_555 1_555
H5B C4B 1_555 1_555
C5B C4B 1_555 1_555
C6B N1B 1_555 1_555
C7B O1B 1_555 1_555
C8B C7B 1_555 1_555
C9B C8B 1_555 1_555
H6B C9B 1_555 1_555
C10B C5B 1_555 1_555
C11B C8B 1_555 1_555
C12B C11B 1_555 1_555
H7B C12B 1_555 1_555
C13B C12B 1_555 1_555
H8B C13B 1_555 1_555
C14B N2B 1_555 1_555
H9B C14B 1_555 1_555
C15B C11B 1_555 1_555
H10B C15B 1_555 1_555
C16B C10B 1_555 1_555
C17B C16B 1_555 1_555
H11B C17B 1_555 1_555
C18B C17B 1_555 1_555
H12B C18B 1_555 1_555
C19B N3B 1_555 1_555
H13B C19B 1_555 1_555
C20B C16B 1_555 1_555
H14B C20B 1_555 1_555
Mn1A N2B 1_555 1_555
Mn1A_2 N2 1_555 1_555
N2A Mn1 1_555 1_555
N2C Mn1 1_555 1_555
C1 C2 1_555 1_555
C5 C6 1_555 1_555
C9 C10 1_555 1_555
C14 C15 1_555 1_555
C19 C20 1_555 1_555
C1B C2B 1_555 1_555
C5B C6B 1_555 1_555
C6B C7B 1_555 1_555
C9B C10B 1_555 1_555
C14B C15B 1_555 1_555
C19B C20B 1_555 1_555

#END
