
#######################################################################
#
#                 Cambridge Crystallographic Data Centre
#                                CCDC 
#
#######################################################################
#
# If this CIF has been generated from an entry in the Cambridge 
# Structural Database, then it will include bibliographic, chemical, 
# crystal, experimental, refinement or atomic coordinate data resulting 
# from the CCDC's data processing and validation procedures.
#
#######################################################################

data_JOKHEY
_symmetry_cell_setting           triclinic
_symmetry_space_group_name_H-M   'P -1'
_symmetry_Int_Tables_number      2
_space_group_name_Hall           '-P 1'
loop_
_symmetry_equiv_pos_site_id
_symmetry_equiv_pos_as_xyz
1 x,y,z
2 -x,-y,-z
_cell_length_a                   7.5109(10)
_cell_length_b                   9.8290(13)
_cell_length_c                   10.3580(14)
_cell_angle_alpha                96.856(2)
_cell_angle_beta                 102.469(2)
_cell_angle_gamma                91.196(2)
_cell_volume                     740.441
loop_
_atom_site_label
_atom_site_type_symbol
_atom_site_fract_x
_atom_site_fract_y
_atom_site_fract_z
O5 O 0.2924(5) 0.5981(4) -0.1695(4)
N2 N 0.3981(6) 0.7137(4) 0.0338(5)
H6 H 0.4130 0.7168 0.1188
N3 N 0.0947(4) 0.2718(3) 0.1089(3)
C9 C 0.3148(6) 0.6054(5) -0.0484(5)
C10 C 0.4620(11) 0.8316(6) -0.0233(9)
C11 C 0.5307(16) 0.9432(9) 0.0751(11)
C12 C 0.3752(17) 0.9339(11) -0.0254(13)
C13 C 0.2416(6) 0.4952(4) 0.1468(4)
H7 H 0.2909 0.5715 0.2070
C14 C 0.2431(5) 0.4911(4) 0.0142(4)
C15 C 0.1674(7) 0.3742(5) -0.0696(4)
H8 H 0.1651 0.3675 -0.1603
C16 C 0.0961(6) 0.2686(5) -0.0187(4)
H9 H 0.0462 0.1910 -0.0767
C17 C 0.1659(6) 0.3849(4) 0.1895(4)
H10 H 0.1644 0.3893 0.2795
O5A O 0.7076(5) 1.4019(4) 0.1695(4)
N2A N 0.6019(6) 1.2863(4) -0.0338(5)
H6A H 0.5870 1.2832 -0.1188
N3A N 0.9053(4) 1.7282(3) -0.1089(3)
C9A C 0.6852(6) 1.3946(5) 0.0484(5)
C10A C 0.5380(11) 1.1684(6) 0.0233(9)
C11A C 0.4693(16) 1.0568(9) -0.0751(11)
C12A C 0.6248(17) 1.0661(11) 0.0254(13)
C13A C 0.7584(6) 1.5048(4) -0.1468(4)
H7A H 0.7091 1.4285 -0.2070
C14A C 0.7569(5) 1.5089(4) -0.0142(4)
C15A C 0.8326(7) 1.6258(5) 0.0696(4)
H8A H 0.8349 1.6325 0.1603
C16A C 0.9039(6) 1.7314(5) 0.0187(4)
H9A H 0.9538 1.8090 0.0767
C17A C 0.8341(6) 1.6151(4) -0.1895(4)
H10A H 0.8356 1.6107 -0.2795
Cu1 Cu 1.5000 0.5000 0.5000
O1 O 1.2740(3) 0.4089(2) 0.5005(2)
O2 O 1.3906(3) 0.2877(3) 0.6646(3)
O3 O 0.9789(4) -0.0582(3) 0.7787(3)
O4 O 0.6908(4) -0.0906(3) 0.6664(3)
N1 N 0.5906(4) 0.3243(3) 0.4065(3)
H1 H 0.4817 0.2924 0.4022
H2 H 0.6075 0.3929 0.3654
C1 C 1.2622(4) 0.3210(3) 0.5810(3)
C2 C 1.0710(4) 0.2598(3) 0.5661(3)
C3 C 0.9215(4) 0.3155(3) 0.4897(3)
H3 H 0.9391 0.3880 0.4431
C4 C 0.7452(4) 0.2629(3) 0.4827(3)
C5 C 0.7193(4) 0.1524(3) 0.5489(3)
H4 H 0.6019 0.1166 0.5437
C6 C 0.8694(5) 0.0948(3) 0.6234(3)
C7 C 0.8364(5) -0.0274(4) 0.6911(4)
C8 C 1.0451(5) 0.1491(4) 0.6333(3)
H5 H 1.1448 0.1116 0.6845
O1A O 0.7260(3) 0.5911(2) 0.4995(2)
O2A O 0.6094(3) 0.7123(3) 0.3354(3)
O3A O 1.0211(4) 1.0582(3) 0.2213(3)
O4A O 1.3092(4) 1.0906(3) 0.3336(3)
N1A N 1.4094(4) 0.6757(3) 0.5935(3)
H1A H 1.5183 0.7076 0.5978
H2A H 1.3925 0.6071 0.6346
C1A C 0.7378(4) 0.6790(3) 0.4190(3)
C2A C 0.9290(4) 0.7402(3) 0.4339(3)
C3A C 1.0785(4) 0.6845(3) 0.5103(3)
H3A H 1.0609 0.6120 0.5569
C4A C 1.2548(4) 0.7371(3) 0.5173(3)
C5A C 1.2807(4) 0.8476(3) 0.4511(3)
H4A H 1.3981 0.8834 0.4563
C6A C 1.1306(5) 0.9052(3) 0.3766(3)
C7A C 1.1636(5) 1.0274(4) 0.3089(4)
C8A C 0.9549(5) 0.8509(4) 0.3667(3)
H5A H 0.8552 0.8884 0.3155
Cu1_2 Cu 0.5000 0.5000 0.5000
O1A_2 O 1.7260(3) 0.5911(2) 0.4995(2)
N1_2 N 1.5906(4) 0.3243(3) 0.4065(3)
loop_
_geom_bond_atom_site_label_1
_geom_bond_atom_site_label_2
_geom_bond_site_symmetry_1
_geom_bond_site_symmetry_2
Cu1 O1 1_555 1_555
O1 C1 1_555 1_555
O2 C1 1_555 1_555
O3 C7 1_555 1_555
O4 C7 1_555 1_555
N1 H1 1_555 1_555
H2 N1 1_555 1_555
C1 C2 1_555 1_555
C2 C3 1_555 1_555
C3 H3 1_555 1_555
C4 N1 1_555 1_555
C5 C4 1_555 1_555
H4 C5 1_555 1_555
C6 C5 1_555 1_555
C7 C6 1_555 1_555
C8 C2 1_555 1_555
H5 C8 1_555 1_555
O5 C9 1_555 1_555
N2 H6 1_555 1_555
N3 C16 1_555 1_555
C9 N2 1_555 1_555
C10 N2 1_555 1_555
C11 C10 1_555 1_555
C12 C10 1_555 1_555
C13 H7 1_555 1_555
C14 C9 1_555 1_555
C15 C14 1_555 1_555
H8 C15 1_555 1_555
C16 C15 1_555 1_555
H9 C16 1_555 1_555
C17 N3 1_555 1_555
H10 C17 1_555 1_555
O1A C1A 1_555 1_555
O2A C1A 1_555 1_555
O3A C7A 1_555 1_555
O4A C7A 1_555 1_555
N1A Cu1 1_555 1_555
H1A N1A 1_555 1_555
H2A N1A 1_555 1_555
C1A C2A 1_555 1_555
C2A C3A 1_555 1_555
C3A H3A 1_555 1_555
C4A N1A 1_555 1_555
C5A C4A 1_555 1_555
H4A C5A 1_555 1_555
C6A C5A 1_555 1_555
C7A C6A 1_555 1_555
C8A C2A 1_555 1_555
H5A C8A 1_555 1_555
Cu1_2 N1 1_555 1_555
O1A_2 Cu1 1_555 1_555
N1_2 Cu1 1_555 1_555
O5A C9A 1_555 1_555
N2A H6A 1_555 1_555
N3A C16A 1_555 1_555
C9A N2A 1_555 1_555
C10A N2A 1_555 1_555
C11A C12 1_555 1_555
C12A C11 1_555 1_555
C13A H7A 1_555 1_555
C14A C9A 1_555 1_555
C15A C14A 1_555 1_555
H8A C15A 1_555 1_555
C16A C15A 1_555 1_555
H9A C16A 1_555 1_555
C17A N3A 1_555 1_555
H10A C17A 1_555 1_555
C3 C4 1_555 1_555
C6 C8 1_555 1_555
C11 C12 1_555 1_555
C13 C14 1_555 1_555
C13 C17 1_555 1_555
O1A Cu1_2 1_555 1_555
C3A C4A 1_555 1_555
C6A C8A 1_555 1_555
C10A C11A 1_555 1_555
C10A C12A 1_555 1_555
C11A C12A 1_555 1_555
C13A C14A 1_555 1_555
C13A C17A 1_555 1_555

#END
