
#######################################################################
#
#                 Cambridge Crystallographic Data Centre
#                                CCDC 
#
#######################################################################
#
# If this CIF has been generated from an entry in the Cambridge 
# Structural Database, then it will include bibliographic, chemical, 
# crystal, experimental, refinement or atomic coordinate data resulting 
# from the CCDC's data processing and validation procedures.
#
#######################################################################

data_JOKKIF
_symmetry_cell_setting           monoclinic
_symmetry_space_group_name_H-M   'C 2/c'
_symmetry_Int_Tables_number      15
_space_group_name_Hall           '-C 2yn'
loop_
_symmetry_equiv_pos_site_id
_symmetry_equiv_pos_as_xyz
1 x,y,z
2 -x,y,1/2-z
3 1/2+x,1/2+y,z
4 1/2-x,1/2+y,1/2-z
5 -x,-y,-z
6 x,-y,1/2+z
7 1/2-x,1/2-y,-z
8 1/2+x,1/2-y,1/2+z
_cell_length_a                   28.914(2)
_cell_length_b                   17.122(2)
_cell_length_c                   15.8725(13)
_cell_angle_alpha                90
_cell_angle_beta                 123.204(2)
_cell_angle_gamma                90
_cell_volume                     6574.93
loop_
_atom_site_label
_atom_site_type_symbol
_atom_site_fract_x
_atom_site_fract_y
_atom_site_fract_z
Zn1 Zn 0.88026(5) -0.10846(7) 0.37999(9)
Zn2 Zn 0.60743(5) 0.13930(7) 0.60875(9)
O1 O 0.9351(4) -0.0458(6) 0.3793(8)
O2 O 0.8682(4) 0.0359(7) 0.2782(7)
O3 O 0.9345(4) -0.1792(6) 0.4891(7)
O4 O 0.8661(4) -0.2598(6) 0.4514(7)
O5 O 0.5538(4) 0.2054(6) 0.5056(7)
O6 O 0.6230(4) 0.2855(6) 0.5400(7)
O7 O 0.5561(4) 0.0639(5) 0.6077(7)
O8 O 0.6258(4) -0.0169(6) 0.7066(7)
N1 N 0.8340(4) -0.0587(6) 0.4240(7)
N2 N 0.6567(4) 0.0907(6) 0.5657(7)
N3 N 0.8338(4) -0.1654(7) 0.2430(7)
N4 N 0.6573(4) 0.1826(6) 0.7506(7)
N5 N 0.9249(7) 0.1939(11) 0.2203(14)
N6 N 0.9234(8) -0.4301(10) 0.5974(18)
N7 N 0.5672(6) 0.4449(9) 0.3736(13)
N8 N 0.5685(8) -0.1851(9) 0.7436(13)
C1 C 0.8330(6) -0.0881(7) 0.5016(9)
H1 H 0.8547 -0.1317 0.5343
C2 C 0.8023(6) -0.0580(8) 0.5358(9)
H2 H 0.8061 -0.0777 0.5939
C3 C 0.7658(5) 0.0015(9) 0.4834(8)
C4 C 0.7665(6) 0.0359(10) 0.4041(10)
H3 H 0.7442 0.0786 0.3694
C5 C 0.8013(6) 0.0044(10) 0.3791(10)
H4 H 0.8024 0.0283 0.3276
C6 C 0.7269(5) 0.0331(8) 0.5103(8)
C7 C 0.7362(6) 0.0202(10) 0.6034(10)
H5 H 0.7658 -0.0109 0.6492
C8 C 0.7026(7) 0.0521(10) 0.6307(11)
H6 H 0.7123 0.0466 0.6968
C9 C 0.6466(5) 0.1037(8) 0.4748(8)
H7 H 0.6158 0.1333 0.4296
C10 C 0.6800(5) 0.0751(8) 0.4442(9)
H8 H 0.6708 0.0842 0.3790
C11 C 0.8454(5) -0.1568(7) 0.1718(9)
H9 H 0.8757 -0.1263 0.1876
C12 C 0.8162(5) -0.1893(8) 0.0797(9)
H10 H 0.8273 -0.1836 0.0350
C13 C 0.7693(5) -0.2315(8) 0.0532(8)
C14 C 0.7569(6) -0.2406(9) 0.1243(10)
H11 H 0.7269 -0.2709 0.1107
C15 C 0.7898(6) -0.2040(10) 0.2176(10)
H12 H 0.7795 -0.2076 0.2635
C16 C 0.6896(6) 0.2455(8) 0.7701(9)
H13 H 0.6857 0.2733 0.7162
C17 C 0.7279(6) 0.2701(11) 0.8655(10)
H14 H 0.7528 0.3093 0.8763
C18 C 0.7294(5) 0.2358(8) 0.9479(8)
C19 C 0.6927(6) 0.1773(8) 0.9275(9)
H15 H 0.6910 0.1549 0.9791
C20 C 0.6576(6) 0.1511(8) 0.8283(9)
H16 H 0.6334 0.1102 0.8157
C21 C 0.9171(6) 0.0182(8) 0.3283(10)
C22 C 0.9602(6) 0.0698(8) 0.3316(13)
H17 H 0.9861 0.0855 0.4009
H18 H 0.9805 0.0391 0.3110
C23 C 0.9406(7) 0.1380(11) 0.2714(14)
C24 C 0.9152(6) -0.2429(7) 0.4969(9)
C25 C 0.9591(6) -0.3000(8) 0.5743(12)
H19 H 0.9853 -0.3106 0.5557
H20 H 0.9791 -0.2745 0.6395
C26 C 0.9390(7) -0.3714(9) 0.5842(14)
C27 C 0.5733(5) 0.2702(10) 0.4936(9)
C28 C 0.5289(6) 0.3241(10) 0.4156(14)
H21 H 0.5046 0.2946 0.3547
H22 H 0.5070 0.3433 0.4405
C29 C 0.5510(6) 0.3899(12) 0.3915(12)
C30 C 0.5761(5) -0.0023(8) 0.6551(10)
C31 C 0.5336(6) -0.0554(9) 0.6447(12)
H23 H 0.5078 -0.0670 0.5738
H24 H 0.5132 -0.0293 0.6687
C32 C 0.5561(7) -0.1309(8) 0.7011(12)
N3F N 0.6662(4) -0.3346(7) -0.2430(7)
C11F C 0.6546(5) -0.3432(7) -0.1718(9)
H9F H 0.6243 -0.3737 -0.1876
C12F C 0.6838(5) -0.3107(8) -0.0797(9)
H10F H 0.6727 -0.3164 -0.0350
C13F C 0.7307(5) -0.2685(8) -0.0532(8)
C14F C 0.7431(6) -0.2594(9) -0.1243(10)
H11F H 0.7731 -0.2291 -0.1107
C15F C 0.7102(6) -0.2960(10) -0.2176(10)
H12F H 0.7205 -0.2924 -0.2635
N4F N 0.8427(4) 0.3174(6) 1.2494(7)
C16F C 0.8104(6) 0.2545(8) 1.2299(9)
H13F H 0.8143 0.2267 1.2838
C17F C 0.7721(6) 0.2299(11) 1.1345(10)
H14F H 0.7472 0.1907 1.1237
C18F C 0.7706(5) 0.2642(8) 1.0521(8)
C19F C 0.8073(6) 0.3227(8) 1.0725(9)
H15F H 0.8090 0.3451 1.0209
C20F C 0.8424(6) 0.3489(8) 1.1717(9)
H16F H 0.8666 0.3898 1.1843
Zn1F Zn 0.61974(5) -0.39154(7) -0.37999(9)
Zn2F Zn 0.89257(5) -0.63930(7) -0.60875(9)
O1F O 0.5649(4) -0.4542(6) -0.3793(8)
O2F O 0.6318(4) -0.5359(7) -0.2782(7)
O3F O 0.5655(4) -0.3208(6) -0.4891(7)
O4F O 0.6339(4) -0.2402(6) -0.4514(7)
O5F O 0.9462(4) -0.7054(6) -0.5056(7)
O6F O 0.8770(4) -0.7855(6) -0.5400(7)
O7F O 0.9439(4) -0.5639(5) -0.6077(7)
O8F O 0.8742(4) -0.4831(6) -0.7066(7)
N1F N 0.6660(4) -0.4413(6) -0.4240(7)
N2F N 0.8433(4) -0.5907(6) -0.5657(7)
N5F N 0.5751(7) -0.6939(11) -0.2203(14)
N6F N 0.5766(8) -0.0699(10) -0.5974(18)
N7F N 0.9328(6) -0.9449(9) -0.3736(13)
N8F N 0.9315(8) -0.3149(9) -0.7436(13)
C1F C 0.6670(6) -0.4119(7) -0.5016(9)
H1F H 0.6453 -0.3683 -0.5343
C2F C 0.6977(6) -0.4420(8) -0.5358(9)
H2F H 0.6939 -0.4223 -0.5939
C3F C 0.7342(5) -0.5015(9) -0.4834(8)
C4F C 0.7335(6) -0.5359(10) -0.4041(10)
H3F H 0.7558 -0.5786 -0.3694
C5F C 0.6987(6) -0.5044(10) -0.3791(10)
H4F H 0.6976 -0.5283 -0.3276
C6F C 0.7731(5) -0.5331(8) -0.5103(8)
C7F C 0.7638(6) -0.5202(10) -0.6034(10)
H5F H 0.7342 -0.4891 -0.6492
C8F C 0.7974(7) -0.5521(10) -0.6307(11)
H6F H 0.7877 -0.5466 -0.6968
C9F C 0.8534(5) -0.6037(8) -0.4748(8)
H7F H 0.8842 -0.6333 -0.4296
C10F C 0.8200(5) -0.5751(8) -0.4442(9)
H8F H 0.8292 -0.5842 -0.3790
C21F C 0.5829(6) -0.5182(8) -0.3283(10)
C22F C 0.5398(6) -0.5698(8) -0.3316(13)
H17F H 0.5139 -0.5855 -0.4009
H18F H 0.5195 -0.5391 -0.3110
C23F C 0.5594(7) -0.6380(11) -0.2714(14)
C24F C 0.5848(6) -0.2571(7) -0.4969(9)
C25F C 0.5409(6) -0.2000(8) -0.5743(12)
H19F H 0.5147 -0.1894 -0.5557
H20F H 0.5209 -0.2255 -0.6395
C26F C 0.5610(7) -0.1286(9) -0.5842(14)
C27F C 0.9267(5) -0.7702(10) -0.4936(9)
C28F C 0.9711(6) -0.8241(10) -0.4156(14)
H21F H 0.9954 -0.7946 -0.3547
H22F H 0.9930 -0.8433 -0.4405
C29F C 0.9490(6) -0.8899(12) -0.3915(12)
C30F C 0.9239(5) -0.4977(8) -0.6551(10)
C31F C 0.9664(6) -0.4446(9) -0.6447(12)
H23F H 0.9922 -0.4330 -0.5738
H24F H 0.9868 -0.4707 -0.6687
C32F C 0.9439(7) -0.3691(8) -0.7011(12)
Zn2F_2 Zn 0.89257(5) 0.36070(7) 1.39125(9)
N4F_2 N 0.8427(4) -0.6826(6) -0.7506(7)
O9 O 0.8040(4) 0.3762(6) 0.8088(9)
H25 H 0.8220 0.3421 0.8505
H26 H 0.8241 0.4072 0.8042
loop_
_geom_bond_atom_site_label_1
_geom_bond_atom_site_label_2
_geom_bond_site_symmetry_1
_geom_bond_site_symmetry_2
Zn1 O1 1_555 1_555
Zn2 O5 1_555 1_555
O1 C21 1_555 1_555
O2 C21 1_555 1_555
O3 Zn1 1_555 1_555
O4 C24 1_555 1_555
O5 C27 1_555 1_555
O6 C27 1_555 1_555
O7 Zn2 1_555 1_555
O8 C30 1_555 1_555
N1 Zn1 1_555 1_555
N2 Zn2 1_555 1_555
N3 Zn1 1_555 1_555
N4 Zn2 1_555 1_555
N5 C23 1_555 1_555
N6 C26 1_555 1_555
N7 C29 1_555 1_555
N8 C32 1_555 1_555
C1 N1 1_555 1_555
H1 C1 1_555 1_555
C2 C1 1_555 1_555
H2 C2 1_555 1_555
C3 C2 1_555 1_555
C4 C3 1_555 1_555
H3 C4 1_555 1_555
C5 N1 1_555 1_555
H4 C5 1_555 1_555
C6 C3 1_555 1_555
C7 C6 1_555 1_555
H5 C7 1_555 1_555
C8 N2 1_555 1_555
H6 C8 1_555 1_555
C9 N2 1_555 1_555
H7 C9 1_555 1_555
C10 C6 1_555 1_555
H8 C10 1_555 1_555
C11 N3 1_555 1_555
H9 C11 1_555 1_555
C12 C11 1_555 1_555
H10 C12 1_555 1_555
C13 C12 1_555 1_555
C14 C13 1_555 1_555
H11 C14 1_555 1_555
C15 N3 1_555 1_555
H12 C15 1_555 1_555
C16 N4 1_555 1_555
H13 C16 1_555 1_555
C17 C16 1_555 1_555
H14 C17 1_555 1_555
C18 C17 1_555 1_555
C19 C18 1_555 1_555
H15 C19 1_555 1_555
C20 N4 1_555 1_555
H16 C20 1_555 1_555
C21 C22 1_555 1_555
C22 H17 1_555 1_555
H18 C22 1_555 1_555
C23 C22 1_555 1_555
C24 O3 1_555 1_555
C25 C24 1_555 1_555
H19 C25 1_555 1_555
H20 C25 1_555 1_555
C26 C25 1_555 1_555
C27 C28 1_555 1_555
C28 H21 1_555 1_555
H22 C28 1_555 1_555
C29 C28 1_555 1_555
C30 O7 1_555 1_555
C31 C30 1_555 1_555
H23 C31 1_555 1_555
H24 C31 1_555 1_555
C32 C31 1_555 1_555
O9 H25 1_555 1_555
H26 O9 1_555 1_555
N3F C11F 1_555 1_555
C11F H9F 1_555 1_555
C12F C11F 1_555 1_555
H10F C12F 1_555 1_555
C13F C13 1_555 1_555
C14F C13F 1_555 1_555
H11F C14F 1_555 1_555
C15F N3F 1_555 1_555
H12F C15F 1_555 1_555
N4F C16F 1_555 1_555
C16F H13F 1_555 1_555
C17F C16F 1_555 1_555
H14F C17F 1_555 1_555
C18F C18 1_555 1_555
C19F C18F 1_555 1_555
H15F C19F 1_555 1_555
C20F N4F 1_555 1_555
H16F C20F 1_555 1_555
Zn1F N3F 1_555 1_555
Zn2F O5F 1_555 1_555
O1F Zn1F 1_555 1_555
O2F C21F 1_555 1_555
O3F Zn1F 1_555 1_555
O4F C24F 1_555 1_555
O5F C27F 1_555 1_555
O6F C27F 1_555 1_555
O7F Zn2F 1_555 1_555
O8F C30F 1_555 1_555
N1F Zn1F 1_555 1_555
N2F Zn2F 1_555 1_555
N5F C23F 1_555 1_555
N6F C26F 1_555 1_555
N7F C29F 1_555 1_555
N8F C32F 1_555 1_555
C1F N1F 1_555 1_555
H1F C1F 1_555 1_555
C2F C1F 1_555 1_555
H2F C2F 1_555 1_555
C3F C2F 1_555 1_555
C4F C3F 1_555 1_555
H3F C4F 1_555 1_555
C5F N1F 1_555 1_555
H4F C5F 1_555 1_555
C6F C3F 1_555 1_555
C7F C6F 1_555 1_555
H5F C7F 1_555 1_555
C8F N2F 1_555 1_555
H6F C8F 1_555 1_555
C9F N2F 1_555 1_555
H7F C9F 1_555 1_555
C10F C6F 1_555 1_555
H8F C10F 1_555 1_555
C21F O1F 1_555 1_555
C22F C21F 1_555 1_555
H17F C22F 1_555 1_555
H18F C22F 1_555 1_555
C23F C22F 1_555 1_555
C24F O3F 1_555 1_555
C25F C24F 1_555 1_555
H19F C25F 1_555 1_555
H20F C25F 1_555 1_555
C26F C25F 1_555 1_555
C27F C28F 1_555 1_555
C28F H21F 1_555 1_555
H22F C28F 1_555 1_555
C29F C28F 1_555 1_555
C30F O7F 1_555 1_555
C31F C30F 1_555 1_555
H23F C31F 1_555 1_555
H24F C31F 1_555 1_555
C32F C31F 1_555 1_555
Zn2F_2 N4F 1_555 1_555
N4F_2 Zn2F 1_555 1_555
C4 C5 1_555 1_555
C7 C8 1_555 1_555
C9 C10 1_555 1_555
C14 C15 1_555 1_555
C19 C20 1_555 1_555
C12F C13F 1_555 1_555
C14F C15F 1_555 1_555
C17F C18F 1_555 1_555
C19F C20F 1_555 1_555
C4F C5F 1_555 1_555
C7F C8F 1_555 1_555
C9F C10F 1_555 1_555

#END
