
#######################################################################
#
#                 Cambridge Crystallographic Data Centre
#                                CCDC 
#
#######################################################################
#
# If this CIF has been generated from an entry in the Cambridge 
# Structural Database, then it will include bibliographic, chemical, 
# crystal, experimental, refinement or atomic coordinate data resulting 
# from the CCDC's data processing and validation procedures.
#
#######################################################################

data_JOLQAC
_symmetry_cell_setting           monoclinic
_symmetry_space_group_name_H-M   'C 2/c'
_symmetry_Int_Tables_number      15
_space_group_name_Hall           '-C 2yn'
loop_
_symmetry_equiv_pos_site_id
_symmetry_equiv_pos_as_xyz
1 x,y,z
2 -x,y,1/2-z
3 1/2+x,1/2+y,z
4 1/2-x,1/2+y,1/2-z
5 -x,-y,-z
6 x,-y,1/2+z
7 1/2-x,1/2-y,-z
8 1/2+x,1/2-y,1/2+z
_cell_length_a                   12.77(2)
_cell_length_b                   12.05(1)
_cell_length_c                   17.79(1)
_cell_angle_alpha                90
_cell_angle_beta                 109.9(1)
_cell_angle_gamma                90
_cell_volume                     2574.04
loop_
_atom_site_label
_atom_site_type_symbol
_atom_site_fract_x
_atom_site_fract_y
_atom_site_fract_z
Cu1 Cu 0.0000 0.0000 0.5000
Ti1 Ti -0.2500 0.2500 0.5000
F1 F -0.337(1) 0.142(1) 0.5255(3)
F2 F -0.1427(4) 0.142(1) 0.5024(3)
F3 F -0.179(1) 0.277(1) 0.6083(4)
N1 N 0.077(1) 0.114(1) 0.454(1)
N2 N 0.094(1) 0.043(1) 0.612(1)
C1 C 0.031(1) 0.212(1) 0.428(1)
C2 C 0.075(1) 0.289(1) 0.387(1)
C3 C 0.175(1) 0.262(1) 0.377(1)
C4 C 0.226(1) 0.166(1) 0.406(1)
C5 C 0.177(1) 0.092(1) 0.445(1)
C6 C 0.068(1) 0.132(1) 0.648(1)
C7 C 0.127(1) 0.159(1) 0.727(1)
C8 C 0.213(1) 0.093(1) 0.772(1)
C9 C 0.241(1) -0.001(1) 0.735(1)
C10 C 0.178(1) -0.022(1) 0.657(1)
H1 H -0.0407 0.2286 0.4335
H2 H 0.0348 0.3597 0.3688
H3 H 0.2073 0.3111 0.3469
H4 H 0.2975 0.1466 0.3985
H5 H 0.2146 0.0207 0.4654
H6 H 0.0041 0.1779 0.6169
H7 H 0.1072 0.2246 0.7517
H8 H 0.2568 0.1103 0.8277
H9 H 0.3045 -0.0468 0.7630
H10 H 0.1954 -0.0882 0.6320
F1F F -0.163(1) 0.358(1) 0.4745(3)
F2F F -0.3573(4) 0.358(1) 0.4976(3)
Cu1F Cu -0.5000 0.5000 0.5000
F3F F -0.321(1) 0.223(1) 0.3917(4)
F2D F 0.1427(4) -0.142(1) 0.4976(3)
N1D N -0.077(1) -0.114(1) 0.546(1)
C1D C -0.031(1) -0.212(1) 0.572(1)
C2D C -0.075(1) -0.289(1) 0.613(1)
C3D C -0.175(1) -0.262(1) 0.623(1)
C4D C -0.226(1) -0.166(1) 0.594(1)
C5D C -0.177(1) -0.092(1) 0.555(1)
H5D H -0.2146 -0.0207 0.5346
H4D H -0.2975 -0.1466 0.6015
H3D H -0.2073 -0.3111 0.6531
H2D H -0.0348 -0.3597 0.6312
H1D H 0.0407 -0.2286 0.5665
N2D N -0.094(1) -0.043(1) 0.388(1)
C6D C -0.068(1) -0.132(1) 0.352(1)
C7D C -0.127(1) -0.159(1) 0.273(1)
C8D C -0.213(1) -0.093(1) 0.228(1)
C9D C -0.241(1) 0.001(1) 0.265(1)
C10D C -0.178(1) 0.022(1) 0.343(1)
H10D H -0.1954 0.0882 0.3680
H9D H -0.3045 0.0468 0.2370
H8D H -0.2568 -0.1103 0.1723
H7D H -0.1072 -0.2246 0.2483
H6D H -0.0041 -0.1779 0.3831
O1 O 0.009(1) 0.569(1) 0.330(1)
O2 O 0.465(1) -0.024(2) 0.948(1)
loop_
_geom_bond_atom_site_label_1
_geom_bond_atom_site_label_2
_geom_bond_site_symmetry_1
_geom_bond_site_symmetry_2
Cu1 F2 1_555 1_555
Ti1 F1 1_555 1_555
F2 Ti1 1_555 1_555
F3 Ti1 1_555 1_555
N1 Cu1 1_555 1_555
N2 Cu1 1_555 1_555
C1 N1 1_555 1_555
C2 C1 1_555 1_555
C3 C2 1_555 1_555
C4 C3 1_555 1_555
C5 N1 1_555 1_555
C6 N2 1_555 1_555
C7 C6 1_555 1_555
C8 C7 1_555 1_555
C9 C8 1_555 1_555
C10 N2 1_555 1_555
H1 C1 1_555 1_555
H2 C2 1_555 1_555
H3 C3 1_555 1_555
H4 C4 1_555 1_555
H5 C5 1_555 1_555
H6 C6 1_555 1_555
H7 C7 1_555 1_555
H8 C8 1_555 1_555
H9 C9 1_555 1_555
H10 C10 1_555 1_555
F1F Ti1 1_555 1_555
F2F Ti1 1_555 1_555
Cu1F F2F 1_555 1_555
F3F Ti1 1_555 1_555
F2D Cu1 1_555 1_555
N1D Cu1 1_555 1_555
C1D N1D 1_555 1_555
C2D C1D 1_555 1_555
C3D C2D 1_555 1_555
C4D C3D 1_555 1_555
C5D N1D 1_555 1_555
H5D C5D 1_555 1_555
H4D C4D 1_555 1_555
H3D C3D 1_555 1_555
H2D C2D 1_555 1_555
H1D C1D 1_555 1_555
N2D Cu1 1_555 1_555
C6D N2D 1_555 1_555
C7D C6D 1_555 1_555
C8D C7D 1_555 1_555
C9D C8D 1_555 1_555
C10D N2D 1_555 1_555
H10D C10D 1_555 1_555
H9D C9D 1_555 1_555
H8D C8D 1_555 1_555
H7D C7D 1_555 1_555
H6D C6D 1_555 1_555
C4 C5 1_555 1_555
C9 C10 1_555 1_555
C4D C5D 1_555 1_555
C9D C10D 1_555 1_555

#END
