
#######################################################################
#
#                 Cambridge Crystallographic Data Centre
#                                CCDC 
#
#######################################################################
#
# If this CIF has been generated from an entry in the Cambridge 
# Structural Database, then it will include bibliographic, chemical, 
# crystal, experimental, refinement or atomic coordinate data resulting 
# from the CCDC's data processing and validation procedures.
#
#######################################################################

data_JOLSUA
_symmetry_cell_setting           monoclinic
_symmetry_space_group_name_H-M   'C 2/c'
_symmetry_Int_Tables_number      15
_space_group_name_Hall           '-C 2yn'
loop_
_symmetry_equiv_pos_site_id
_symmetry_equiv_pos_as_xyz
1 x,y,z
2 -x,y,1/2-z
3 1/2+x,1/2+y,z
4 1/2-x,1/2+y,1/2-z
5 -x,-y,-z
6 x,-y,1/2+z
7 1/2-x,1/2-y,-z
8 1/2+x,1/2-y,1/2+z
_cell_length_a                   52.7880(17)
_cell_length_b                   12.4054(3)
_cell_length_c                   25.0467(8)
_cell_angle_alpha                90
_cell_angle_beta                 113.292(4)
_cell_angle_gamma                90
_cell_volume                     15065.3
loop_
_atom_site_label
_atom_site_type_symbol
_atom_site_fract_x
_atom_site_fract_y
_atom_site_fract_z
Eu1 Eu 0.127751(3) 0.754598(10) 0.267004(6)
P1 P 0.161894(16) 0.97153(6) 0.21062(4)
P2 P 0.141581(16) 1.47708(6) -0.12373(3)
O1 O 0.09195(4) 0.88634(15) 0.24073(9)
O2 O 0.14281(4) 1.39228(14) -0.16429(8)
O3 O 0.08874(4) 0.67523(16) 0.27311(10)
O4 O 0.14462(4) 0.88729(16) 0.22178(9)
O5 O 0.09918(5) 0.73810(16) 0.16287(10)
O6 O 0.17778(4) 0.76741(15) 0.32021(9)
O7 O 0.13799(4) 0.86406(16) 0.35020(9)
O8 O 0.14506(5) 0.62236(16) 0.22341(9)
C1 C 0.17155(10) 1.0516(3) 0.46648(17)
H1 H 0.1892 1.0540 0.4665
C2 C 0.02000(9) 1.1341(3) 0.2016(2)
H2 H 0.0071 1.1659 0.2135
C3 C 0.02620(9) 1.1818(3) 0.15954(19)
H3 H 0.0176 1.2457 0.1425
C4 C 0.22497(8) 0.8181(4) 0.1521(2)
H4 H 0.2386 0.7871 0.1422
C5 C 0.03744(13) 1.4712(4) 0.0918(3)
H5 H 0.0263 1.5108 0.1055
C6 C 0.04413(9) 0.8579(4) 0.0063(2)
H6 H 0.0312 0.9093 0.0056
C7 C 0.06324(8) 0.8190(3) 0.05884(17)
H7 H 0.0627 0.8441 0.0934
C8 C 0.08254(10) 0.7078(4) 0.00906(17)
H8 H 0.0956 0.6571 0.0093
C9 C 0.22398(8) 1.5192(3) -0.06290(18)
H9 H 0.2379 1.4980 -0.0746
C10 C 0.18491(10) 0.4871(4) 0.2249(2)
H10 H 0.1811 0.4981 0.2577
C11 C 0.06544(12) 1.4866(3) 0.1168(2)
H11 H 0.0730 1.5360 0.1469
C12 C 0.20972(9) 1.6099(3) 0.00324(18)
H12 H 0.2140 1.6517 0.0365
C13 C 0.27209(9) 0.7839(4) 0.4510(2)
H13 H 0.2858 0.8081 0.4855
C14 C 0.03270(8) 1.0382(3) 0.22722(18)
H14 H 0.0280 1.0056 0.2555
C15 C 0.03223(7) 0.6475(3) 0.31589(16)
H15 H 0.0292 0.7195 0.3219
C16 C 0.22486(9) 1.1011(3) 0.34941(18)
H16 H 0.2439 1.0929 0.3678
C17 C 0.01056(9) 1.2185(5) -0.0562(2)
H17 H -0.0058 1.2432 -0.0547
C18 C 0.21165(11) 1.1714(3) 0.37120(18)
H18 H 0.2216 1.2142 0.4031
C19 C 0.19626(8) 0.9677(3) 0.14987(18)
H19 H 0.1901 1.0371 0.1374
C20 C 0.18282(8) 1.5775(3) -0.02793(15)
H20 H 0.1691 1.5967 -0.0153
C21 C 0.08237(9) 1.4278(3) 0.09707(16)
H21 H 0.1014 1.4377 0.1138
C22 C 0.17414(10) 0.5140(3) 0.1260(2)
H22 H 0.1628 0.5427 0.0902
C23 C 0.27868(9) 0.7171(4) 0.4156(2)
H23 H 0.2969 0.6957 0.4258
C24 C 0.08276(8) 0.7448(2) 0.06098(14)
C25 C 0.21569(10) 0.9205(4) 0.1335(2)
H24 H 0.2225 0.9579 0.1099
C26 C 0.10925(9) 1.7788(3) -0.1618(2)
H25 H 0.1066 1.8383 -0.1420
C27 C 0.25831(8) 0.6808(3) 0.3643(2)
H26 H 0.2628 0.6359 0.3396
C28 C 0.05950(8) 1.1463(3) -0.06187(14)
H27 H 0.0757 1.1233 -0.0645
C29 C 0.15263(8) 0.9776(2) 0.43154(14)
C30 C 0.03406(12) 1.1061(3) -0.09921(18)
H28 H 0.0332 1.0544 -0.1268
C31 C 0.24492(7) 0.8161(3) 0.43577(16)
H29 H 0.2407 0.8634 0.4599
C32 C 0.05440(7) 0.8076(3) 0.25444(14)
H30 H 0.0371 0.8218 0.2543
C33 C 0.04495(8) 1.1360(3) 0.14265(16)
H31 H 0.0491 1.1678 0.1135
C34 C 0.16868(9) 1.1168(3) 0.29732(16)
H32 H 0.1495 1.1213 0.2809
C35 C 0.23001(9) 1.5807(3) -0.0147(2)
H33 H 0.2481 1.6031 0.0062
C36 C 0.19489(8) 0.8090(3) 0.20108(17)
H34 H 0.1877 0.7700 0.2236
C37 C 0.04973(6) 0.6209(3) 0.28885(14)
C38 C 0.04471(11) 0.8194(5) -0.0443(2)
H35 H 0.0321 0.8450 -0.0798
C39 C 0.04070(9) 0.4338(3) 0.29818(19)
H36 H 0.0435 0.3617 0.2921
C40 C 0.02537(10) 1.4001(4) 0.0477(2)
H37 H 0.0063 1.3914 0.0312
C41 C 0.03571(7) 1.2590(3) -0.01809(17)
C42 C 0.12677(9) 0.9786(3) 0.43206(18)
H38 H 0.1135 0.9314 0.4080
C43 C 0.23137(8) 0.7119(3) 0.35036(18)
H39 H 0.2177 0.6864 0.3161
C44 C 0.16835(8) 0.5336(3) 0.17415(16)
C45 C 0.14542(7) 0.6048(2) 0.17395(14)
C46 C 0.10507(8) 1.6957(3) -0.25034(17)
H40 H 0.0996 1.6988 -0.2905
C47 C 0.12116(7) 1.6875(2) -0.13161(15)
H41 H 0.1267 1.6854 -0.0915
C48 C 0.12954(7) 1.2391(2) 0.11147(13)
H42 H 0.1345 1.3105 0.1095
C49 C 0.09046(6) 1.4303(2) -0.03810(13)
H43 H 0.0753 1.4634 -0.0351
C50 C 0.05369(7) 0.5136(3) 0.27961(17)
H44 H 0.0651 0.4949 0.2608
C51 C 0.21030(7) 1.0417(3) 0.30033(16)
H45 H 0.2198 0.9961 0.2851
C52 C 0.18576(7) 0.8724(2) 0.40345(14)
H46 H 0.1995 0.8990 0.4373
C53 C 0.22401(7) 0.7793(2) 0.38546(15)
C54 C 0.10349(7) 0.7094(3) 0.11944(14)
C55 C 0.04240(8) 1.3401(3) 0.02744(17)
C56 C 0.19706(7) 1.4881(3) -0.09456(15)
H47 H 0.1930 1.4470 -0.1280
C57 C 0.05799(7) 1.0422(2) 0.16841(14)
H48 H 0.0711 1.0123 0.1567
C58 C 0.06544(7) 0.7049(3) 0.27137(14)
C59 C 0.05994(7) 1.2212(2) -0.02105(14)
C60 C 0.12645(7) 0.6485(3) 0.12263(14)
H49 H 0.1291 0.6368 0.0885
C61 C 0.18593(6) 0.9128(2) 0.18457(13)
C62 C 0.12324(7) 1.2888(3) -0.01344(14)
H50 H 0.1303 1.2247 0.0060
C63 C 0.11716(7) 1.6027(3) -0.22021(14)
H51 H 0.1199 1.5437 -0.2402
C64 C 0.05216(6) 0.9914(2) 0.21102(13)
C65 C 0.10249(6) 1.4768(2) -0.07258(13)
C66 C 0.19396(6) 0.8071(2) 0.36790(14)
C67 C 0.02367(10) 0.4613(4) 0.3254(2)
H52 H 0.0151 0.4077 0.3381
C68 C 0.10434(6) 1.2018(2) 0.07141(12)
C69 C 0.07094(7) 1.3548(2) 0.05253(14)
C70 C 0.20723(12) 0.4240(5) 0.2296(3)
H53 H 0.2180 0.3917 0.2648
C71 C 0.18214(7) 1.0487(2) 0.27350(13)
C72 C 0.10050(6) 1.3355(2) -0.00797(12)
C73 C 0.14745(7) 1.1733(2) 0.15408(13)
H54 H 0.1641 1.2005 0.1805
C74 C 0.12505(6) 1.5974(2) -0.16090(12)
C75 C 0.15879(7) 0.9006(2) 0.39232(14)
C76 C 0.14051(6) 1.0653(2) 0.15741(12)
C77 C 0.06758(6) 0.8904(2) 0.23773(12)
C78 C 0.11525(6) 1.0283(2) 0.11783(13)
H55 H 0.1102 0.9570 0.1198
C79 C 0.21428(10) 0.7627(3) 0.1846(2)
H56 H 0.2201 0.6925 0.1960
C80 C 0.09755(6) 1.0952(2) 0.07564(13)
H57 H 0.0808 1.0684 0.0496
C81 C 0.08498(6) 1.2784(2) 0.02444(13)
C82 C 0.18371(11) 1.1785(4) 0.34581(19)
H58 H 0.1745 1.2253 0.3611
C83 C 0.17627(6) 1.5165(2) -0.07782(12)
C84 C 0.21327(12) 0.4099(5) 0.1815(3)
H59 H 0.2289 0.3712 0.1844
C85 C 0.19668(14) 0.4517(4) 0.1306(3)
H60 H 0.2003 0.4389 0.0977
C86 C 0.01007(11) 1.1421(5) -0.0958(2)
H61 H -0.0068 1.1138 -0.1209
C87 C 0.16453(13) 1.1225(4) 0.5017(2)
H62 H 0.1774 1.1725 0.5246
C88 C 0.06345(14) 0.7443(4) -0.0431(2)
H63 H 0.0634 0.7172 -0.0778
C89 C 0.10129(9) 1.7830(3) -0.2207(2)
H64 H 0.0933 1.8454 -0.2409
C90 C 0.11996(11) 1.0486(3) 0.4678(2)
H65 H 0.1024 1.0472 0.4680
C91 C 0.13910(14) 1.1186(4) 0.5023(2)
H66 H 0.1347 1.1645 0.5267
C92 C 0.01931(9) 0.5673(4) 0.33394(18)
H67 H 0.0075 0.5855 0.3520
H68 H 0.0952 1.5417 -0.0940
H69 H 0.1521 1.3019 -0.0502
C93 C 0.13555(7) 1.3357(2) -0.04711(15)
C94 C 0.12525(6) 1.4308(2) -0.07714(12)
Eu1E Eu 0.127751(3) 1.245402(10) -0.232996(6)
O2E O 0.14281(4) 0.60772(14) 0.33571(8)
loop_
_geom_bond_atom_site_label_1
_geom_bond_atom_site_label_2
_geom_bond_site_symmetry_1
_geom_bond_site_symmetry_2
Eu1 O1 1_555 1_555
P1 O4 1_555 1_555
P2 O2 1_555 1_555
O1 C77 1_555 1_555
O2 Eu1E 1_555 1_555
O3 Eu1 1_555 1_555
O4 Eu1 1_555 1_555
O5 Eu1 1_555 1_555
O6 Eu1 1_555 1_555
O7 Eu1 1_555 1_555
O8 Eu1 1_555 1_555
C1 H1 1_555 1_555
C2 H2 1_555 1_555
C3 C2 1_555 1_555
H3 C3 1_555 1_555
C4 H4 1_555 1_555
C5 H5 1_555 1_555
C6 H6 1_555 1_555
C7 C6 1_555 1_555
H7 C7 1_555 1_555
C8 H8 1_555 1_555
C9 H9 1_555 1_555
C10 H10 1_555 1_555
C11 C5 1_555 1_555
H11 C11 1_555 1_555
C12 H12 1_555 1_555
C13 H13 1_555 1_555
C14 C2 1_555 1_555
H14 C14 1_555 1_555
C15 H15 1_555 1_555
C16 H16 1_555 1_555
C17 H17 1_555 1_555
C18 C16 1_555 1_555
H18 C18 1_555 1_555
C19 H19 1_555 1_555
C20 C12 1_555 1_555
H20 C20 1_555 1_555
C21 C11 1_555 1_555
H21 C21 1_555 1_555
C22 H22 1_555 1_555
C23 C13 1_555 1_555
H23 C23 1_555 1_555
C24 C7 1_555 1_555
C25 C4 1_555 1_555
H24 C25 1_555 1_555
C26 H25 1_555 1_555
C27 C23 1_555 1_555
H26 C27 1_555 1_555
C28 H27 1_555 1_555
C29 C1 1_555 1_555
C30 C28 1_555 1_555
H28 C30 1_555 1_555
C31 C13 1_555 1_555
H29 C31 1_555 1_555
C32 H30 1_555 1_555
C33 C3 1_555 1_555
H31 C33 1_555 1_555
C34 H32 1_555 1_555
C35 C9 1_555 1_555
H33 C35 1_555 1_555
C36 H34 1_555 1_555
C37 C15 1_555 1_555
C38 C6 1_555 1_555
H35 C38 1_555 1_555
C39 H36 1_555 1_555
C40 C5 1_555 1_555
H37 C40 1_555 1_555
C41 C17 1_555 1_555
C42 C29 1_555 1_555
H38 C42 1_555 1_555
C43 C27 1_555 1_555
H39 C43 1_555 1_555
C44 C10 1_555 1_555
C45 O8 1_555 1_555
C46 H40 1_555 1_555
C47 C26 1_555 1_555
H41 C47 1_555 1_555
C48 H42 1_555 1_555
C49 H43 1_555 1_555
C50 C37 1_555 1_555
H44 C50 1_555 1_555
C51 C16 1_555 1_555
H45 C51 1_555 1_555
C52 H46 1_555 1_555
C53 C31 1_555 1_555
C54 O5 1_555 1_555
C55 C40 1_555 1_555
C56 C9 1_555 1_555
H47 C56 1_555 1_555
C57 C33 1_555 1_555
H48 C57 1_555 1_555
C58 O3 1_555 1_555
C59 C28 1_555 1_555
C60 C45 1_555 1_555
H49 C60 1_555 1_555
C61 P1 1_555 1_555
C62 H50 1_555 1_555
C63 C46 1_555 1_555
H51 C63 1_555 1_555
C64 C14 1_555 1_555
C65 C49 1_555 1_555
C66 O6 1_555 1_555
C67 C39 1_555 1_555
H52 C67 1_555 1_555
C68 C48 1_555 1_555
C69 C21 1_555 1_555
C70 C10 1_555 1_555
H53 C70 1_555 1_555
C71 P1 1_555 1_555
C72 C49 1_555 1_555
C73 C48 1_555 1_555
H54 C73 1_555 1_555
C74 P2 1_555 1_555
C75 O7 1_555 1_555
C76 P1 1_555 1_555
C77 C32 1_555 1_555
C78 C76 1_555 1_555
H55 C78 1_555 1_555
C79 C4 1_555 1_555
H56 C79 1_555 1_555
C80 C68 1_555 1_555
H57 C80 1_555 1_555
C81 C59 1_555 1_555
C82 C18 1_555 1_555
H58 C82 1_555 1_555
C83 P2 1_555 1_555
C84 C70 1_555 1_555
H59 C84 1_555 1_555
C85 C22 1_555 1_555
H60 C85 1_555 1_555
C86 C17 1_555 1_555
H61 C86 1_555 1_555
C87 C1 1_555 1_555
H62 C87 1_555 1_555
C88 C8 1_555 1_555
H63 C88 1_555 1_555
C89 C26 1_555 1_555
H64 C89 1_555 1_555
C90 C42 1_555 1_555
H65 C90 1_555 1_555
C91 C87 1_555 1_555
H66 C91 1_555 1_555
C92 C15 1_555 1_555
H67 C92 1_555 1_555
H68 C65 1_555 1_555
H69 C93 1_555 1_555
C93 C62 1_555 1_555
C94 P2 1_555 1_555
O2E Eu1 1_555 1_555
C8 C24 1_555 1_555
C12 C35 1_555 1_555
C19 C25 1_555 1_555
C19 C61 1_555 1_555
C20 C83 1_555 1_555
C22 C44 1_555 1_555
C24 C54 1_555 1_555
C29 C75 1_555 1_555
C30 C86 1_555 1_555
C32 C58 1_555 1_555
C34 C71 1_555 1_555
C34 C82 1_555 1_555
C36 C61 1_555 1_555
C36 C79 1_555 1_555
C37 C58 1_555 1_555
C38 C88 1_555 1_555
C39 C50 1_555 1_555
C41 C55 1_555 1_555
C41 C59 1_555 1_555
C43 C53 1_555 1_555
C44 C45 1_555 1_555
C46 C89 1_555 1_555
C47 C74 1_555 1_555
C51 C71 1_555 1_555
C52 C66 1_555 1_555
C52 C75 1_555 1_555
C53 C66 1_555 1_555
C54 C60 1_555 1_555
C55 C69 1_555 1_555
C56 C83 1_555 1_555
C57 C64 1_555 1_555
C62 C72 1_555 1_555
C63 C74 1_555 1_555
C64 C77 1_555 1_555
C65 C94 1_555 1_555
C67 C92 1_555 1_555
C68 C81 1_555 1_555
C69 C81 1_555 1_555
C72 C81 1_555 1_555
C73 C76 1_555 1_555
C78 C80 1_555 1_555
C84 C85 1_555 1_555
C90 C91 1_555 1_555
C93 C94 1_555 1_555

#END
