
#######################################################################
#
#                 Cambridge Crystallographic Data Centre
#                                CCDC 
#
#######################################################################
#
# If this CIF has been generated from an entry in the Cambridge 
# Structural Database, then it will include bibliographic, chemical, 
# crystal, experimental, refinement or atomic coordinate data resulting 
# from the CCDC's data processing and validation procedures.
#
#######################################################################

data_JOMWUD
_symmetry_cell_setting           monoclinic
_symmetry_space_group_name_H-M   'P 21/n'
_symmetry_Int_Tables_number      14
_space_group_name_Hall           '-P 2yn'
loop_
_symmetry_equiv_pos_site_id
_symmetry_equiv_pos_as_xyz
1 x,y,z
2 1/2-x,1/2+y,1/2-z
3 -x,-y,-z
4 1/2+x,1/2-y,1/2+z
_cell_length_a                   10.3220(10)
_cell_length_b                   12.250(2)
_cell_length_c                   10.4360(10)
_cell_angle_alpha                90
_cell_angle_beta                 111.040(10)
_cell_angle_gamma                90
_cell_volume                     1231.6
loop_
_atom_site_label
_atom_site_type_symbol
_atom_site_fract_x
_atom_site_fract_y
_atom_site_fract_z
Cu1 Cu 0.22649(5) 0.55697(5) 0.95364(5)
Cu2 Cu 0.42480(6) 0.60987(4) 1.27043(5)
O1 O 0.1559(3) 0.5593(3) 1.1123(3)
O2 O 0.5089(3) 0.4629(2) 1.3392(3)
N1 N 0.0464(4) 0.4966(3) 0.8566(3)
N2 N 0.2562(4) 0.5195(3) 0.7776(3)
H1 H 0.3142(4) 0.5679(3) 0.7614(3)
H2 H 0.2933(4) 0.4523(3) 0.7832(3)
N3 N 0.4078(4) 0.6191(3) 1.4468(3)
N4 N 0.3380(4) 0.7598(3) 1.2464(4)
N5 N 0.4154(4) 0.5860(3) 1.0799(3)
N6 N 0.4905(5) 0.6433(4) 1.0365(4)
N7 N 0.5582(6) 0.6932(5) 0.9940(5)
Br1 Br 0.19327(5) 0.77961(4) 0.87819(5)
C1 C 0.0343(4) 0.5186(3) 1.0740(4)
C2 C 0.0142(5) 0.4632(5) 0.7136(4)
C3 C 0.1187(5) 0.5234(4) 0.6666(4)
H3 H 0.1233(5) 0.4893(4) 0.5844(4)
H4 H 0.0899(5) 0.5987(4) 0.6452(4)
C4 C 0.5283(4) 0.4550(3) 1.4665(4)
C5 C 0.3537(5) 0.7205(4) 1.4811(4)
H5 H 0.4291(5) 0.7693(4) 1.5307(4)
H6 H 0.2986(5) 0.7060(4) 1.5374(4)
C6 C 0.2631(5) 0.7713(4) 1.3424(4)
H7 H 0.1744(5) 0.7341(4) 1.3064(4)
H8 H 0.2462(5) 0.8478(4) 1.3546(4)
H9 H 0.2778(47) 0.7771(40) 1.1665(37)
H10 H 0.0354(45) 0.3833(37) 0.7091(41)
H11 H -0.0810(51) 0.4522(36) 0.6596(43)
H12 H 0.3948(65) 0.8149(46) 1.2596(66)
Br1C Br 0.69327(5) 0.72039(4) 1.37819(5)
C1B C -0.0343(4) 0.4814(3) 0.9260(4)
C4B C 0.4717(4) 0.5450(3) 1.5335(4)
Cu2C Cu -0.07520(6) 0.89013(4) 0.77043(5)
N1B N -0.0464(4) 0.5034(3) 1.1434(3)
N3B N 0.5922(4) 0.3809(3) 1.5532(3)
Cu1C Cu 0.72649(5) 0.94303(5) 1.45364(5)
O1B O -0.1559(3) 0.4407(3) 0.8877(3)
O2B O 0.4911(3) 0.5371(2) 1.6608(3)
O2C O 0.0089(3) 1.0371(2) 0.8392(3)
N3C N -0.0922(4) 0.8809(3) 0.9468(3)
N4C N -0.1620(4) 0.7402(3) 0.7464(4)
N5C N -0.0846(4) 0.9140(3) 0.5799(3)
Cu1B Cu -0.22649(5) 0.44303(5) 1.04636(5)
C2B C -0.0142(5) 0.5368(5) 1.2864(4)
Cu2B Cu 0.57520(6) 0.39013(4) 1.72957(5)
C5B C 0.6463(5) 0.2795(4) 1.5189(4)
H9C H -0.2222(47) 0.7229(40) 0.6665(37)
H12C H -0.1052(65) 0.6851(46) 0.7596(66)
Cu1C_2 Cu -0.27351(5) 0.94303(5) 0.45364(5)
N6C N -0.0095(5) 0.8567(4) 0.5365(4)
N2B N -0.2562(4) 0.4805(3) 1.2224(3)
N5B N -0.4154(4) 0.4140(3) 0.9201(3)
Br1B Br -0.19327(5) 0.22039(4) 1.12181(5)
C3B C -0.1187(5) 0.4766(4) 1.3334(4)
H10B H -0.0354(45) 0.6167(37) 1.2909(41)
H11B H 0.0810(51) 0.5478(36) 1.3404(43)
N4B N 0.6620(4) 0.2402(3) 1.7536(4)
H5B H 0.5709(5) 0.2307(4) 1.4693(4)
H6B H 0.7014(5) 0.2940(4) 1.4626(4)
C6B C 0.7369(5) 0.2287(4) 1.6576(4)
H1B H -0.3142(4) 0.4321(3) 1.2386(3)
H2B H -0.2933(4) 0.5477(3) 1.2168(3)
H3B H -0.1233(5) 0.5107(4) 1.4156(4)
H4B H -0.0899(5) 0.4013(4) 1.3548(4)
H7B H 0.8256(5) 0.2659(4) 1.6936(4)
H8B H 0.7538(5) 0.1522(4) 1.6454(4)
H9B H 0.7222(47) 0.2229(40) 1.8335(37)
H12B H 0.6052(65) 0.1851(46) 1.7404(66)
N7C N 0.0582(6) 0.8068(5) 0.4940(5)
loop_
_geom_bond_atom_site_label_1
_geom_bond_atom_site_label_2
_geom_bond_site_symmetry_1
_geom_bond_site_symmetry_2
Cu1 O1 1_555 1_555
Cu2 O2 1_555 1_555
O1 C1 1_555 1_555
O2 C4 1_555 1_555
N1 Cu1 1_555 1_555
N2 Cu1 1_555 1_555
H1 N2 1_555 1_555
H2 N2 1_555 1_555
N3 Cu2 1_555 1_555
N4 Cu2 1_555 1_555
N5 Cu1 1_555 1_555
N6 N5 1_555 1_555
N7 N6 1_555 1_555
Br1 Cu1 1_555 1_555
C1 C1B 1_555 1_555
C2 N1 1_555 1_555
C3 N2 1_555 1_555
H3 C3 1_555 1_555
H4 C3 1_555 1_555
C4 C4B 1_555 1_555
C5 N3 1_555 1_555
H5 C5 1_555 1_555
H6 C5 1_555 1_555
C6 N4 1_555 1_555
H7 C6 1_555 1_555
H8 C6 1_555 1_555
H9 N4 1_555 1_555
H10 C2 1_555 1_555
H11 C2 1_555 1_555
H12 N4 1_555 1_555
Br1C Cu2 1_555 1_555
C1B N1 1_555 1_555
C4B N3 1_555 1_555
Cu2C Br1 1_555 1_555
N1B C1 1_555 1_555
N3B C4 1_555 1_555
Cu1C Br1C 1_555 1_555
O1B C1B 1_555 1_555
O2B C4B 1_555 1_555
O2C Cu2C 1_555 1_555
N3C Cu2C 1_555 1_555
N4C Cu2C 1_555 1_555
N5C Cu2C 1_555 1_555
Cu1B N1B 1_555 1_555
C2B N1B 1_555 1_555
Cu2B N3B 1_555 1_555
C5B N3B 1_555 1_555
H9C N4C 1_555 1_555
H12C N4C 1_555 1_555
Cu1C_2 N5C 1_555 1_555
N6C N5C 1_555 1_555
N2B Cu1B 1_555 1_555
N5B Cu1B 1_555 1_555
Br1B Cu1B 1_555 1_555
C3B C2B 1_555 1_555
H10B C2B 1_555 1_555
H11B C2B 1_555 1_555
N4B Cu2B 1_555 1_555
H5B C5B 1_555 1_555
H6B C5B 1_555 1_555
C6B C5B 1_555 1_555
H1B N2B 1_555 1_555
H2B N2B 1_555 1_555
H3B C3B 1_555 1_555
H4B C3B 1_555 1_555
H7B C6B 1_555 1_555
H8B C6B 1_555 1_555
H9B N4B 1_555 1_555
H12B N4B 1_555 1_555
N7C N6C 1_555 1_555
Cu2 N5 1_555 1_555
C2 C3 1_555 1_555
C5 C6 1_555 1_555
O1B Cu1B 1_555 1_555
O2B Cu2B 1_555 1_555
N2B C3B 1_555 1_555
N4B C6B 1_555 1_555

#END
