
#######################################################################
#
#                 Cambridge Crystallographic Data Centre
#                                CCDC 
#
#######################################################################
#
# If this CIF has been generated from an entry in the Cambridge 
# Structural Database, then it will include bibliographic, chemical, 
# crystal, experimental, refinement or atomic coordinate data resulting 
# from the CCDC's data processing and validation procedures.
#
#######################################################################

data_JOMXIU
_symmetry_cell_setting           triclinic
_symmetry_space_group_name_H-M   'P -1'
_symmetry_Int_Tables_number      2
_space_group_name_Hall           '-P 1'
loop_
_symmetry_equiv_pos_site_id
_symmetry_equiv_pos_as_xyz
1 x,y,z
2 -x,-y,-z
_cell_length_a                   9.235(2)
_cell_length_b                   14.267(3)
_cell_length_c                   18.787(4)
_cell_angle_alpha                99.729(4)
_cell_angle_beta                 97.296(4)
_cell_angle_gamma                90.040(3)
_cell_volume                     2419.32
loop_
_atom_site_label
_atom_site_type_symbol
_atom_site_fract_x
_atom_site_fract_y
_atom_site_fract_z
Zn1 Zn -0.14773(8) 0.62277(5) 0.71546(5)
Zn2 Zn 1.00363(8) 1.12608(5) 0.74866(5)
Zn3 Zn 0.50109(8) 1.12489(5) 0.71691(5)
Zn4 Zn 0.37117(8) 0.62996(5) 0.75164(5)
O1 O -0.4837(4) 0.5678(3) 0.8168(3)
O2 O -0.3096(5) 0.6390(3) 0.7750(3)
O3 O 0.0492(5) 0.6038(3) 0.7648(3)
O4 O 0.2477(5) 0.6768(3) 0.8272(3)
O5 O -0.1831(7) 0.1584(3) 0.6147(4)
O6 O -0.0393(5) 0.2410(3) 0.7090(3)
O7 O 0.3330(6) 0.1803(3) 0.6052(3)
O8 O 0.4738(6) 0.2546(3) 0.7025(3)
O9 O 0.8916(5) 1.0638(3) 0.8126(3)
O10 O 0.6973(5) 1.1378(3) 0.7744(3)
O11 O 0.3297(5) 1.1023(3) 0.7641(3)
O12 O 0.1602(4) 1.1750(3) 0.8263(3)
O13 O 0.5060(6) 0.6604(3) 0.6233(3)
O14 O 0.3939(5) 0.7441(3) 0.7107(3)
O15 O 0.9565(6) 0.6765(3) 0.5951(3)
O16 O 0.8766(6) 0.7499(3) 0.6960(3)
N1 N -0.1954(6) 0.4954(3) 0.6518(3)
N2 N 0.3024(6) 0.5142(3) 0.6772(3)
N3 N 0.5184(5) 0.9976(3) 0.6537(3)
N4 N 1.0364(6) 1.0088(3) 0.6730(3)
C1 C -0.3521(7) 0.5805(4) 0.8107(4)
C2 C -0.2429(7) 0.5179(4) 0.8455(4)
C3 C -0.2683(7) 0.4199(4) 0.8342(4)
H1 H -0.3585 0.3947 0.8114
C4 C -0.1618(8) 0.3602(5) 0.8562(5)
H2 H -0.1795 0.2948 0.8473
C5 C -0.0303(8) 0.3963(5) 0.8909(4)
H3 H 0.0417 0.3556 0.9057
C6 C -0.0037(8) 0.4936(5) 0.9042(4)
H4 H 0.0859 0.5175 0.9289
C7 C -0.1073(6) 0.5562(4) 0.8819(4)
C8 C -0.0801(6) 0.6599(4) 0.9035(4)
C9 C -0.1522(8) 0.7121(5) 0.9559(4)
H5 H -0.2255 0.6823 0.9742
C10 C -0.1214(9) 0.8047(6) 0.9820(5)
H6 H -0.1690 0.8356 1.0197
C11 C -0.0225(8) 0.8541(5) 0.9544(5)
H7 H -0.0084 0.9192 0.9702
C12 C 0.0581(8) 0.8059(5) 0.9019(5)
H8 H 0.1305 0.8374 0.8843
C13 C 0.0273(7) 0.7094(4) 0.8765(4)
C14 C 0.1147(7) 0.6594(5) 0.8192(4)
C15 C -0.1316(8) 0.2337(4) 0.6521(5)
C16 C -0.1869(7) 0.3250(4) 0.6290(4)
C17 C -0.1434(7) 0.4128(4) 0.6698(4)
H9 H -0.0758 0.4151 0.7112
C18 C -0.2880(8) 0.4908(5) 0.5904(5)
H10 H -0.3213 0.5475 0.5767
C19 C -0.3368(8) 0.4065(5) 0.5465(5)
H11 H -0.4024 0.4058 0.5045
C20 C -0.2849(8) 0.3235(5) 0.5670(5)
H12 H -0.3165 0.2655 0.5387
C21 C 0.3793(9) 0.2528(5) 0.6478(5)
C22 C 0.3126(7) 0.3473(4) 0.6343(4)
C23 C 0.3534(7) 0.4272(4) 0.6839(4)
H13 H 0.4199 0.4214 0.7244
C24 C 0.2048(8) 0.5191(5) 0.6189(5)
H14 H 0.1653 0.5779 0.6137
C25 C 0.1601(8) 0.4425(5) 0.5666(5)
H15 H 0.0951 0.4501 0.5261
C26 C 0.2123(8) 0.3537(5) 0.5746(4)
H16 H 0.1807 0.3000 0.5407
C27 C 0.7564(6) 1.0773(4) 0.8098(4)
C28 C 0.6666(6) 1.0164(4) 0.8455(4)
C29 C 0.6869(7) 0.9197(5) 0.8342(4)
H17 H 0.7643 0.8945 0.8105
C30 C 0.5920(7) 0.8595(5) 0.8580(4)
H18 H 0.6076 0.7944 0.8517
C31 C 0.4749(8) 0.8966(5) 0.8909(4)
H19 H 0.4082 0.8559 0.9041
C32 C 0.4551(7) 0.9943(5) 0.9047(4)
H20 H 0.3785 1.0187 0.9293
C33 C 0.5494(7) 1.0556(4) 0.8818(4)
C34 C 0.5294(7) 1.1604(4) 0.9019(4)
C35 C 0.6347(8) 1.2117(5) 0.9544(5)
H21 H 0.7180 1.1819 0.9720
C36 C 0.6143(10) 1.3068(6) 0.9801(5)
H22 H 0.6825 1.3399 1.0163
C37 C 0.4956(9) 1.3529(5) 0.9531(5)
H23 H 0.4847 1.4175 0.9695
C38 C 0.3945(7) 1.3039(5) 0.9025(5)
H24 H 0.3125 1.3351 0.8850
C39 C 0.4095(6) 1.2081(4) 0.8758(4)
C40 C 0.2934(7) 1.1587(4) 0.8199(4)
C41 C 0.4648(7) 0.7360(4) 0.6566(4)
C42 C 0.5054(7) 0.8279(4) 0.6331(4)
C43 C 0.4776(6) 0.9159(4) 0.6715(4)
H25 H 0.4279 0.9184 0.7118
C44 C 0.5878(8) 0.9936(4) 0.5947(4)
H26 H 0.6164 1.0500 0.5814
C45 C 0.6177(9) 0.9085(5) 0.5533(4)
H27 H 0.6649 0.9077 0.5123
C46 C 0.5775(8) 0.8247(5) 0.5730(4)
H28 H 0.5987 0.7666 0.5460
C47 C 0.9411(7) 0.7485(4) 0.6397(4)
C48 C 0.9989(7) 0.8427(4) 0.6286(4)
C49 C 0.9843(6) 0.9236(4) 0.6792(4)
H29 H 0.9365 0.9184 0.7191
C50 C 1.1025(8) 1.0160(5) 0.6146(4)
H30 H 1.1397 1.0749 0.6101
C51 C 1.1171(8) 0.9402(6) 0.5618(5)
H31 H 1.1617 0.9479 0.5215
C52 C 1.0652(8) 0.8513(5) 0.5684(4)
H32 H 1.0749 0.7986 0.5329
Zn1_2 Zn 0.85227(8) 0.62277(5) 0.71546(5)
Zn2_2 Zn 0.00363(8) 0.12608(5) 0.74866(5)
Zn2_3 Zn 0.00363(8) 1.12608(5) 0.74866(5)
Zn3_2 Zn 0.50109(8) 0.12489(5) 0.71691(5)
Zn4_2 Zn -0.62883(8) 0.62996(5) 0.75164(5)
O1_2 O 0.5163(4) 0.5678(3) 0.8168(3)
O6_2 O 0.9607(5) 1.2410(3) 0.7090(3)
O8_2 O 0.4738(6) 1.2546(3) 0.7025(3)
O12_2 O 1.1602(4) 1.1750(3) 0.8263(3)
O16_2 O -0.1234(6) 0.7499(3) 0.6960(3)
loop_
_geom_bond_atom_site_label_1
_geom_bond_atom_site_label_2
_geom_bond_site_symmetry_1
_geom_bond_site_symmetry_2
Zn1 O2 1_555 1_555
Zn2 O9 1_555 1_555
Zn3 O10 1_555 1_555
Zn4 O4 1_555 1_555
O1 C1 1_555 1_555
O2 C1 1_555 1_555
O3 Zn1 1_555 1_555
O4 C14 1_555 1_555
O5 C15 1_555 1_555
O6 C15 1_555 1_555
O7 C21 1_555 1_555
O8 C21 1_555 1_555
O9 C27 1_555 1_555
O10 C27 1_555 1_555
O11 Zn3 1_555 1_555
O12 C40 1_555 1_555
O13 C41 1_555 1_555
O14 Zn4 1_555 1_555
O15 C47 1_555 1_555
O16 C47 1_555 1_555
N1 Zn1 1_555 1_555
N2 Zn4 1_555 1_555
N3 Zn3 1_555 1_555
N4 Zn2 1_555 1_555
C1 C2 1_555 1_555
C2 C3 1_555 1_555
C3 H1 1_555 1_555
C4 C3 1_555 1_555
H2 C4 1_555 1_555
C5 C4 1_555 1_555
H3 C5 1_555 1_555
C6 C5 1_555 1_555
H4 C6 1_555 1_555
C7 C2 1_555 1_555
C8 C7 1_555 1_555
C9 C8 1_555 1_555
H5 C9 1_555 1_555
C10 C9 1_555 1_555
H6 C10 1_555 1_555
C11 C10 1_555 1_555
H7 C11 1_555 1_555
C12 C11 1_555 1_555
H8 C12 1_555 1_555
C13 C8 1_555 1_555
C14 O3 1_555 1_555
C15 C16 1_555 1_555
C16 C17 1_555 1_555
C17 N1 1_555 1_555
H9 C17 1_555 1_555
C18 N1 1_555 1_555
H10 C18 1_555 1_555
C19 C18 1_555 1_555
H11 C19 1_555 1_555
C20 C16 1_555 1_555
H12 C20 1_555 1_555
C21 C22 1_555 1_555
C22 C23 1_555 1_555
C23 N2 1_555 1_555
H13 C23 1_555 1_555
C24 N2 1_555 1_555
H14 C24 1_555 1_555
C25 C24 1_555 1_555
H15 C25 1_555 1_555
C26 C22 1_555 1_555
H16 C26 1_555 1_555
C27 C28 1_555 1_555
C28 C29 1_555 1_555
C29 H17 1_555 1_555
C30 C29 1_555 1_555
H18 C30 1_555 1_555
C31 C30 1_555 1_555
H19 C31 1_555 1_555
C32 C31 1_555 1_555
H20 C32 1_555 1_555
C33 C28 1_555 1_555
C34 C33 1_555 1_555
C35 C34 1_555 1_555
H21 C35 1_555 1_555
C36 C35 1_555 1_555
H22 C36 1_555 1_555
C37 C36 1_555 1_555
H23 C37 1_555 1_555
C38 C37 1_555 1_555
H24 C38 1_555 1_555
C39 C34 1_555 1_555
C40 O11 1_555 1_555
C41 O14 1_555 1_555
C42 C41 1_555 1_555
C43 N3 1_555 1_555
H25 C43 1_555 1_555
C44 N3 1_555 1_555
H26 C44 1_555 1_555
C45 C44 1_555 1_555
H27 C45 1_555 1_555
C46 C42 1_555 1_555
H28 C46 1_555 1_555
C47 C48 1_555 1_555
C48 C49 1_555 1_555
C49 N4 1_555 1_555
H29 C49 1_555 1_555
C50 N4 1_555 1_555
H30 C50 1_555 1_555
C51 C50 1_555 1_555
H31 C51 1_555 1_555
C52 C48 1_555 1_555
H32 C52 1_555 1_555
Zn1_2 O16 1_555 1_555
Zn2_2 O6 1_555 1_555
Zn2_3 O12 1_555 1_555
Zn3_2 O8 1_555 1_555
Zn4_2 O1 1_555 1_555
O1_2 Zn4 1_555 1_555
O6_2 Zn2 1_555 1_555
O8_2 Zn3 1_555 1_555
O12_2 Zn2 1_555 1_555
O16_2 Zn1 1_555 1_555
C6 C7 1_555 1_555
C12 C13 1_555 1_555
C13 C14 1_555 1_555
C19 C20 1_555 1_555
C25 C26 1_555 1_555
C32 C33 1_555 1_555
C38 C39 1_555 1_555
C39 C40 1_555 1_555
C42 C43 1_555 1_555
C45 C46 1_555 1_555
C51 C52 1_555 1_555

#END
