
#######################################################################
#
#                 Cambridge Crystallographic Data Centre
#                                CCDC 
#
#######################################################################
#
# If this CIF has been generated from an entry in the Cambridge 
# Structural Database, then it will include bibliographic, chemical, 
# crystal, experimental, refinement or atomic coordinate data resulting 
# from the CCDC's data processing and validation procedures.
#
#######################################################################

data_JONVUF
_symmetry_cell_setting           monoclinic
_symmetry_space_group_name_H-M   'C 2/c'
_symmetry_Int_Tables_number      15
_space_group_name_Hall           '-C 2yn'
loop_
_symmetry_equiv_pos_site_id
_symmetry_equiv_pos_as_xyz
1 x,y,z
2 -x,y,1/2-z
3 1/2+x,1/2+y,z
4 1/2-x,1/2+y,1/2-z
5 -x,-y,-z
6 x,-y,1/2+z
7 1/2-x,1/2-y,-z
8 1/2+x,1/2-y,1/2+z
_cell_length_a                   31.202(2)
_cell_length_b                   9.1176(6)
_cell_length_c                   21.4203(14)
_cell_angle_alpha                90
_cell_angle_beta                 123.052(3)
_cell_angle_gamma                90
_cell_volume                     5107.68
loop_
_atom_site_label
_atom_site_type_symbol
_atom_site_fract_x
_atom_site_fract_y
_atom_site_fract_z
Cu1 Cu 0.24498(2) 0.36426(3) 0.22268(2)
Cu2 Cu 0.10263(2) 0.30032(3) -0.11511(2)
C1 C 0.25854(8) 0.0987(2) 0.08076(11)
H1 H 0.2916 0.0644 0.1136
C2 C 0.16707(7) 0.3982(2) 0.06145(10)
C3 C 0.09026(8) 0.5679(2) -0.18825(12)
C4 C 0.22594(9) 0.0245(2) 0.01561(11)
H2 H 0.2363 -0.0627 0.0052
C5 C 0.38940(9) 0.5023(3) 0.41178(13)
H3 H 0.4026 0.5436 0.4585
C6 C 0.19124(7) 0.2743(2) 0.04579(10)
C7 C 0.34855(8) 0.3793(2) 0.27453(11)
C8 C 0.24160(7) 0.2267(2) 0.09739(10)
C9 C 0.32287(8) 0.3078(2) 0.19878(11)
C10 C 0.39957(8) 0.4197(3) 0.31442(12)
H4 H 0.4196 0.4055 0.2949
C11 C 0.11511(8) 0.6000(2) 0.09182(12)
H5 H 0.0965 0.6632 0.1025
C12 C 0.10842(8) 0.6010(2) 0.02277(12)
H6 H 0.0869 0.6697 -0.0127
C13 C 0.17771(8) 0.0804(2) -0.03423(11)
H7 H 0.1563 0.0310 -0.0788
C14 C 0.15007(8) 0.5031(2) 0.14503(11)
H8 H 0.1558 0.5052 0.1924
C15 C 0.11771(8) 0.6062(2) -0.10666(12)
C16 C 0.08397(10) 0.6683(3) -0.24123(13)
H9 H 0.0980 0.7618 -0.2275
C17 C 0.13410(7) 0.4982(2) 0.00608(11)
C18 C 0.33853(8) 0.4597(2) 0.36838(12)
H10 H 0.3177 0.4733 0.3865
C19 C 0.04332(9) 0.3912(3) -0.27759(12)
H11 H 0.0293 0.2975 -0.2901
C20 C 0.03501(10) 0.4864(3) -0.33371(13)
H12 H 0.0154 0.4571 -0.3833
C21 C 0.42012(9) 0.4822(3) 0.38443(13)
H13 H 0.4543 0.5102 0.4126
C22 C 0.05616(11) 0.6250(3) -0.31519(14)
H14 H 0.0518 0.6889 -0.3521
N1 N 0.27193(6) 0.30166(18) 0.16473(9)
N2 N 0.16096(6) 0.20357(18) -0.02027(9)
N3 N 0.17602(6) 0.40619(19) 0.13078(9)
N4 N 0.07099(6) 0.4313(2) -0.20603(9)
N5 N 0.12368(7) 0.48593(19) -0.06597(9)
N6 N 0.31872(6) 0.39946(19) 0.30103(9)
O1 O 0.34945(6) 0.26525(19) 0.17583(8)
O2 O 0.13087(7) 0.73317(18) -0.08493(9)
O3 O 0.22344(6) 0.36377(16) 0.29357(8)
O4 O 0.24481(6) 0.13796(16) 0.28407(8)
C23 C 0.23177(8) 0.2291(2) 0.31383(11)
C24 C 0.04329(8) 0.0785(2) -0.13154(12)
O5 O 0.06626(6) 0.12049(17) -0.16297(8)
O6 O 0.03889(7) 0.1575(2) -0.08803(9)
C25 C 0.22781(10) 0.1844(3) 0.37834(13)
H15 H 0.2188 0.0825 0.3738
H16 H 0.2020 0.2423 0.3781
H17 H 0.2601 0.2000 0.4242
C26 C 0.02099(10) -0.0733(3) -0.15057(17)
H18 H 0.0156 -0.1069 -0.1129
H19 H 0.0442 -0.1384 -0.1531
H20 H -0.0111 -0.0716 -0.1979
Cu1C Cu 0.25502(2) -0.13574(3) 0.27732(2)
Cu2F Cu 0.39737(2) 0.19968(3) 0.11511(2)
O1F O 0.15055(6) 0.23475(19) -0.17583(8)
O4C O 0.25519(6) 0.63796(16) 0.21593(8)
O7 O 0.01890(10) 0.6945(3) 0.50779(14)
loop_
_geom_bond_atom_site_label_1
_geom_bond_atom_site_label_2
_geom_bond_site_symmetry_1
_geom_bond_site_symmetry_2
Cu1 N1 1_555 1_555
Cu2 N2 1_555 1_555
C1 H1 1_555 1_555
C2 C6 1_555 1_555
C3 C15 1_555 1_555
C4 C1 1_555 1_555
H2 C4 1_555 1_555
C5 H3 1_555 1_555
C6 C8 1_555 1_555
C7 C9 1_555 1_555
C8 C1 1_555 1_555
C9 N1 1_555 1_555
C10 C7 1_555 1_555
H4 C10 1_555 1_555
C11 H5 1_555 1_555
C12 C11 1_555 1_555
H6 C12 1_555 1_555
C13 C4 1_555 1_555
H7 C13 1_555 1_555
C14 C11 1_555 1_555
H8 C14 1_555 1_555
C15 N5 1_555 1_555
C16 C3 1_555 1_555
H9 C16 1_555 1_555
C17 C2 1_555 1_555
C18 C5 1_555 1_555
H10 C18 1_555 1_555
C19 H11 1_555 1_555
C20 C19 1_555 1_555
H12 C20 1_555 1_555
C21 C5 1_555 1_555
H13 C21 1_555 1_555
C22 C16 1_555 1_555
H14 C22 1_555 1_555
N1 C8 1_555 1_555
N2 C6 1_555 1_555
N3 Cu1 1_555 1_555
N4 Cu2 1_555 1_555
N5 Cu2 1_555 1_555
N6 Cu1 1_555 1_555
O1 C9 1_555 1_555
O2 C15 1_555 1_555
O3 Cu1 1_555 1_555
O4 Cu1 1_555 1_555
C23 O3 1_555 1_555
C24 O5 1_555 1_555
O5 Cu2 1_555 1_555
O6 Cu2 1_555 1_555
C25 C23 1_555 1_555
H15 C25 1_555 1_555
H16 C25 1_555 1_555
H17 C25 1_555 1_555
C26 C24 1_555 1_555
H18 C26 1_555 1_555
H19 C26 1_555 1_555
H20 C26 1_555 1_555
Cu1C O4 1_555 1_555
Cu2F O1 1_555 1_555
O1F Cu2 1_555 1_555
O4C Cu1 1_555 1_555
C2 N3 1_555 1_555
C3 N4 1_555 1_555
C7 N6 1_555 1_555
C10 C21 1_555 1_555
C12 C17 1_555 1_555
C13 N2 1_555 1_555
C14 N3 1_555 1_555
C17 N5 1_555 1_555
C18 N6 1_555 1_555
C19 N4 1_555 1_555
C20 C22 1_555 1_555
O4 C23 1_555 1_555
C24 O6 1_555 1_555

#END
