
#######################################################################
#
#                 Cambridge Crystallographic Data Centre
#                                CCDC 
#
#######################################################################
#
# If this CIF has been generated from an entry in the Cambridge 
# Structural Database, then it will include bibliographic, chemical, 
# crystal, experimental, refinement or atomic coordinate data resulting 
# from the CCDC's data processing and validation procedures.
#
#######################################################################

data_JOQGON
_symmetry_cell_setting           rhombohedral
_symmetry_space_group_name_H-M   'R -3'
_symmetry_Int_Tables_number      148
_space_group_name_Hall           '-R 3'
loop_
_symmetry_equiv_pos_site_id
_symmetry_equiv_pos_as_xyz
1 x,y,z
2 -y,x-y,z
3 -x+y,-x,z
4 2/3+x,1/3+y,1/3+z
5 2/3-y,1/3+x-y,1/3+z
6 2/3-x+y,1/3-x,1/3+z
7 1/3+x,2/3+y,2/3+z
8 1/3-y,2/3+x-y,2/3+z
9 1/3-x+y,2/3-x,2/3+z
10 -x,-y,-z
11 y,-x+y,-z
12 x-y,x,-z
13 1/3-x,2/3-y,2/3-z
14 1/3+y,2/3-x+y,2/3-z
15 1/3+x-y,2/3+x,2/3-z
16 2/3-x,1/3-y,1/3-z
17 2/3+y,1/3-x+y,1/3-z
18 2/3+x-y,1/3+x,1/3-z
_cell_length_a                   25.918(2)
_cell_length_b                   25.918(2)
_cell_length_c                   30.803(3)
_cell_angle_alpha                90
_cell_angle_beta                 90
_cell_angle_gamma                120
_cell_volume                     17919.5
loop_
_atom_site_label
_atom_site_type_symbol
_atom_site_fract_x
_atom_site_fract_y
_atom_site_fract_z
Tb1 Tb 0.031810(10) 0.297636(10) 0.099967(7)
O1 O 0.05599(14) 0.38686(15) 0.13031(11)
C1 C 0.0794(2) 0.45166(19) 0.19094(15)
C2 C 0.0956(2) 0.4256(2) 0.15707(15)
C3 C 0.1567(2) 0.4443(2) 0.15340(19)
H1 H 0.1693 0.4274 0.1314
C4 C 0.1979(2) 0.4857(2) 0.18035(19)
H2 H 0.2385 0.4968 0.1764
C5 C 0.1833(2) 0.5124(2) 0.21340(19)
C6 C 0.1237(2) 0.4947(2) 0.21829(16)
H3 H 0.1122 0.5120 0.2408
C7 C 0.2304(3) 0.5596(3) 0.2420(2)
H4 H 0.2493 0.5979 0.2268
H5 H 0.2606 0.5486 0.2489
H6 H 0.2121 0.5629 0.2689
C8 C 0.0195(2) 0.43831(19) 0.19680(14)
H7 H 0.0116 0.4594 0.2186
N1 N -0.02487(17) 0.39923(17) 0.17423(13)
H8 H -0.014(2) 0.383(2) 0.1544(13)
C9 C -0.0867(2) 0.3870(2) 0.17637(16)
H9 H -0.1018 0.3847 0.1465
H10 H -0.0874 0.4204 0.1914
C10 C -0.1275(2) 0.3293(2) 0.20003(16)
H11 H -0.1694 0.3180 0.1941
H12 H -0.1210 0.2974 0.1885
O2 O 0.00526(16) 0.55418(23) 0.27430(12)
C11 C 0.0466(3) 0.5081(4) 0.31766(17)
C12 C 0.0510(3) 0.5581(4) 0.29510(16)
C13 C 0.1063(3) 0.6105(4) 0.2962(2)
H13 H 0.1109 0.6451 0.2819
C14 C 0.1540(3) 0.6134(4) 0.3173(2)
H14 H 0.1907 0.6501 0.3172
C15 C 0.1513(3) 0.5653(4) 0.3388(2)
C16 C 0.0984(3) 0.5138(4) 0.3390(2)
H15 H 0.0955 0.4803 0.3538
C17 C 0.2052(4) 0.5690(5) 0.3627(3)
H16 H 0.2324 0.5670 0.3415
H17 H 0.2261 0.6068 0.3786
H18 H 0.1915 0.5358 0.3831
C18 C -0.0083(3) 0.4545(4) 0.32091(17)
H19 H -0.0088 0.4225 0.3362
N2 N -0.0573(2) 0.4460(3) 0.30482(15)
H20 H -0.066(3) 0.4703(34) 0.2926(17)
C19 C -0.1164(3) 0.3931(4) 0.3107(2)
H21 H -0.1125 0.3635 0.3286
H22 H -0.1423 0.4047 0.3265
C20 C -0.1457(3) 0.3646(2) 0.2676(2)
H23 H -0.1885 0.3359 0.2726
H24 H -0.1430 0.3958 0.2476
O3 O -0.00939(21) 0.32667(15) 0.37237(11)
C21 C 0.0562(3) 0.3488(2) 0.31252(17)
C22 C 0.0452(3) 0.3496(2) 0.35747(16)
C23 C 0.0952(4) 0.3774(3) 0.3845(2)
H25 H 0.0899 0.3792 0.4149
C24 C 0.1521(4) 0.4021(3) 0.3679(2)
H26 H 0.1849 0.4200 0.3874
C25 C 0.1633(4) 0.4019(3) 0.3238(2)
C26 C 0.1147(3) 0.3754(2) 0.2964(2)
H27 H 0.1210 0.3752 0.2661
C27 C 0.2265(4) 0.4289(3) 0.3071(3)
H28 H 0.2422 0.4713 0.3008
H29 H 0.2268 0.4083 0.2805
H30 H 0.2514 0.4248 0.3292
C28 C 0.0090(3) 0.3178(2) 0.28254(17)
H31 H 0.0188 0.3198 0.2526
N3 N -0.04651(27) 0.28715(18) 0.29330(14)
H32 H -0.054(3) 0.286(2) 0.3209(7)
C29 C -0.0957(4) 0.2534(2) 0.26354(16)
H33 H -0.1153 0.2105 0.2709
H34 H -0.0802 0.2585 0.2335
C30 C -0.1407(2) 0.2742(2) 0.26611(17)
H35 H -0.1774 0.2454 0.2506
H36 H -0.1512 0.2750 0.2969
N4 N -0.11792(17) 0.33362(17) 0.24716(13)
O4 O -0.06210(15) 0.28218(17) 0.12986(14)
O5 O -0.07503(18) 0.21595(17) 0.08365(14)
O6 O 0.0321(2) 0.2829(2) 0.18107(13)
O7 O 0.11161(18) 0.30649(19) 0.14585(14)
O8 O 0.0109(4) 0.1948(3) 0.1188(2)
O9 O 0.0332(2) 0.2212(2) 0.05317(18)
N5 N -0.0981(2) 0.2350(2) 0.11006(16)
N6 N 0.0855(3) 0.2942(3) 0.18159(16)
N7 N 0.0141(4) 0.1801(3) 0.0796(3)
O10 O -0.15095(18) 0.2107(2) 0.11639(19)
O11 O 0.1053 0.2888 0.2149
O12 O -0.0015(4) 0.1288(3) 0.0692(3)
Tb1E Tb -0.067507(14) 0.301523(10) 0.433300(7)
Tb1P Tb -0.035697(10) 0.599159(14) 0.233366(7)
O2Q O 0.11775(28) 0.33859(16) 0.05903(12)
O3G O 0.00666(15) 0.33061(26) 0.03904(11)
C31 C 0.7925(6) 0.5216(5) 0.1258(4)
H37 H 0.8228 0.5482 0.1050
H38 H 0.8035 0.5387 0.1550
H39 H 0.7539 0.5171 0.1179
C32 C 0.7433(7) 0.4274(7) 0.1563(6)
H40 H 0.7424 0.3892 0.1571
H41 H 0.7043 0.4210 0.1472
H42 H 0.7530 0.4456 0.1852
N8 N 0.7889(3) 0.4672(3) 0.1251(3)
C33 C 0.8154(6) 0.4463(7) 0.1100(5)
H43 H 0.8441 0.4709 0.0890
O13 O 0.8133(3) 0.3970(3) 0.1163(3)
O14 O 0.0000 0.0000 0.0000
loop_
_geom_bond_atom_site_label_1
_geom_bond_atom_site_label_2
_geom_bond_site_symmetry_1
_geom_bond_site_symmetry_2
Tb1 O1 1_555 1_555
O1 C2 1_555 1_555
C1 C2 1_555 1_555
C2 C3 1_555 1_555
C3 H1 1_555 1_555
C4 C3 1_555 1_555
H2 C4 1_555 1_555
C5 C4 1_555 1_555
C6 C1 1_555 1_555
H3 C6 1_555 1_555
C7 C5 1_555 1_555
H4 C7 1_555 1_555
H5 C7 1_555 1_555
H6 C7 1_555 1_555
C8 C1 1_555 1_555
H7 C8 1_555 1_555
N1 C8 1_555 1_555
H8 N1 1_555 1_555
C9 N1 1_555 1_555
H9 C9 1_555 1_555
H10 C9 1_555 1_555
C10 C9 1_555 1_555
H11 C10 1_555 1_555
H12 C10 1_555 1_555
O2 C12 1_555 1_555
C11 C12 1_555 1_555
C12 C13 1_555 1_555
C13 H13 1_555 1_555
C14 C13 1_555 1_555
H14 C14 1_555 1_555
C15 C14 1_555 1_555
C16 C11 1_555 1_555
H15 C16 1_555 1_555
C17 C15 1_555 1_555
H16 C17 1_555 1_555
H17 C17 1_555 1_555
H18 C17 1_555 1_555
C18 C11 1_555 1_555
H19 C18 1_555 1_555
N2 C18 1_555 1_555
H20 N2 1_555 1_555
C19 N2 1_555 1_555
H21 C19 1_555 1_555
H22 C19 1_555 1_555
C20 C19 1_555 1_555
H23 C20 1_555 1_555
H24 C20 1_555 1_555
O3 C22 1_555 1_555
C21 C22 1_555 1_555
C22 C23 1_555 1_555
C23 H25 1_555 1_555
C24 C23 1_555 1_555
H26 C24 1_555 1_555
C25 C24 1_555 1_555
C26 C21 1_555 1_555
H27 C26 1_555 1_555
C27 C25 1_555 1_555
H28 C27 1_555 1_555
H29 C27 1_555 1_555
H30 C27 1_555 1_555
C28 C21 1_555 1_555
H31 C28 1_555 1_555
N3 C28 1_555 1_555
H32 N3 1_555 1_555
C29 N3 1_555 1_555
H33 C29 1_555 1_555
H34 C29 1_555 1_555
C30 C29 1_555 1_555
H35 C30 1_555 1_555
H36 C30 1_555 1_555
N4 C10 1_555 1_555
O4 Tb1 1_555 1_555
O5 Tb1 1_555 1_555
O6 Tb1 1_555 1_555
O7 Tb1 1_555 1_555
O8 Tb1 1_555 1_555
O9 Tb1 1_555 1_555
N5 O4 1_555 1_555
N6 O6 1_555 1_555
N7 O8 1_555 1_555
O10 N5 1_555 1_555
O11 N6 1_555 1_555
O12 N7 1_555 1_555
C31 H37 1_555 1_555
H38 C31 1_555 1_555
H39 C31 1_555 1_555
C32 H40 1_555 1_555
H41 C32 1_555 1_555
H42 C32 1_555 1_555
N8 C31 1_555 1_555
C33 N8 1_555 1_555
H43 C33 1_555 1_555
O13 C33 1_555 1_555
Tb1E O3 1_555 1_555
Tb1P O2 1_555 1_555
O2Q Tb1 1_555 1_555
O3G Tb1 1_555 1_555
C5 C6 1_555 1_555
C15 C16 1_555 1_555
C20 N4 1_555 1_555
C25 C26 1_555 1_555
C30 N4 1_555 1_555
O5 N5 1_555 1_555
O7 N6 1_555 1_555
O9 N7 1_555 1_555
C32 N8 1_555 1_555

#END
