
#######################################################################
#
#                 Cambridge Crystallographic Data Centre
#                                CCDC 
#
#######################################################################
#
# If this CIF has been generated from an entry in the Cambridge 
# Structural Database, then it will include bibliographic, chemical, 
# crystal, experimental, refinement or atomic coordinate data resulting 
# from the CCDC's data processing and validation procedures.
#
#######################################################################

data_JOQGUT
_symmetry_cell_setting           rhombohedral
_symmetry_space_group_name_H-M   'R -3'
_symmetry_Int_Tables_number      148
_space_group_name_Hall           '-R 3'
loop_
_symmetry_equiv_pos_site_id
_symmetry_equiv_pos_as_xyz
1 x,y,z
2 -y,x-y,z
3 -x+y,-x,z
4 2/3+x,1/3+y,1/3+z
5 2/3-y,1/3+x-y,1/3+z
6 2/3-x+y,1/3-x,1/3+z
7 1/3+x,2/3+y,2/3+z
8 1/3-y,2/3+x-y,2/3+z
9 1/3-x+y,2/3-x,2/3+z
10 -x,-y,-z
11 y,-x+y,-z
12 x-y,x,-z
13 1/3-x,2/3-y,2/3-z
14 1/3+y,2/3-x+y,2/3-z
15 1/3+x-y,2/3+x,2/3-z
16 2/3-x,1/3-y,1/3-z
17 2/3+y,1/3-x+y,1/3-z
18 2/3+x-y,1/3+x,1/3-z
_cell_length_a                   26.447(3)
_cell_length_b                   26.447(3)
_cell_length_c                   29.759(4)
_cell_angle_alpha                90
_cell_angle_beta                 90
_cell_angle_gamma                120
_cell_volume                     18026.1
loop_
_atom_site_label
_atom_site_type_symbol
_atom_site_fract_x
_atom_site_fract_y
_atom_site_fract_z
Tb1 Tb 0.397759(14) 0.349716(15) 0.236267(10)
O1 O 0.3334(2) 0.3741(2) 0.20724(16)
C1 C 0.2870(3) 0.3997(3) 0.1503(2)
C2 C 0.3323(3) 0.4151(3) 0.1822(2)
C3 C 0.3738(3) 0.4740(3) 0.1863(3)
H1 H 0.4049 0.4855 0.2072
C4 C 0.3710(3) 0.5160(3) 0.1609(3)
H2 H 0.4000 0.5559 0.1646
C5 C 0.3266(3) 0.5010(3) 0.1300(3)
C6 C 0.2856(3) 0.4437(3) 0.1246(2)
H3 H 0.2555 0.4332 0.1030
O2 O 0.3209(3) 0.5411(2) 0.1036(2)
C7 C 0.3668(5) 0.5998(4) 0.1055(4)
H4 H 0.3648 0.6173 0.1340
H5 H 0.3629 0.6218 0.0805
H6 H 0.4044 0.6011 0.1033
C8 C 0.2400(3) 0.3410(3) 0.1454(2)
H7 H 0.2097 0.3342 0.1249
N1 N 0.2358(3) 0.2969(3) 0.16661(18)
H8 H 0.265(2) 0.308(3) 0.185(2)
C9 C 0.1857(3) 0.2372(3) 0.1627(2)
H9 H 0.1526 0.2386 0.1484
H10 H 0.1732 0.2203 0.1931
C10 C 0.2011(3) 0.1983(3) 0.1350(2)
H11 H 0.2372 0.2008 0.1471
H12 H 0.1693 0.1572 0.1375
O3 O 0.0956(2) 0.3280(3) 0.04872(17)
C11 C 0.1917(3) 0.3847(4) 0.0207(2)
C12 C 0.1377(3) 0.3786(4) 0.0350(2)
C13 C 0.1309(3) 0.4271(4) 0.0316(3)
H13 H 0.0936 0.4225 0.0381
C14 C 0.1745(4) 0.4808(6) 0.0196(3)
H14 H 0.1678 0.5128 0.0181
C15 C 0.2300(4) 0.4883(6) 0.0094(3)
C16 C 0.2381(4) 0.4414(6) 0.0089(3)
H15 H 0.2750 0.4464 0.0006
O4 O 0.2715(3) 0.5465(4) -0.0008(2)
C17 C 0.3283(5) 0.5569(7) -0.0138(4)
H16 H 0.3247 0.5334 -0.0403
H17 H 0.3535 0.5983 -0.0209
H18 H 0.3454 0.5461 0.0110
C18 C 0.1992(4) 0.3355(5) 0.0177(2)
H19 H 0.2351 0.3411 0.0061
N2 N 0.1599(3) 0.2830(4) 0.02986(19)
H20 H 0.130(3) 0.278(4) 0.036(2)
C19 C 0.1612(4) 0.2298(5) 0.0212(2)
H21 H 0.1292 0.2051 0.0001
H22 H 0.1986 0.2398 0.0065
C20 C 0.1545(3) 0.1946(3) 0.0640(2)
H23 H 0.1263 0.1972 0.0844
H24 H 0.1385 0.1530 0.0560
O5 O 0.3137(3) 0.3299(2) -0.03620(14)
C21 C 0.3691(4) 0.3890(3) 0.0257(2)
C22 C 0.3489(4) 0.3816(3) -0.0193(2)
C23 C 0.3670(4) 0.4330(3) -0.0443(2)
H25 H 0.3532 0.4301 -0.0741
C24 C 0.4037(6) 0.4867(4) -0.0271(3)
H26 H 0.4161 0.5202 -0.0454
C25 C 0.4236(6) 0.4933(4) 0.0174(3)
C26 C 0.4056(5) 0.4449(3) 0.0435(2)
H27 H 0.4179 0.4491 0.0740
O6 O 0.4592(4) 0.5504(2) 0.03164(19)
C27 C 0.4853(6) 0.5568(4) 0.0744(3)
H28 H 0.4548 0.5396 0.0974
H29 H 0.5110 0.5984 0.0808
H30 H 0.5082 0.5370 0.0745
C28 C 0.3540(4) 0.3410(3) 0.0541(2)
H31 H 0.3656 0.3489 0.0847
N3 N 0.3258(4) 0.2873(3) 0.04165(18)
H32 H 0.314(4) 0.284(3) 0.0132(11)
C29 C 0.3095(4) 0.2353(3) 0.0697(2)
H33 H 0.3200 0.2473 0.1014
H34 H 0.3314 0.2160 0.0596
C30 C 0.2450(3) 0.1933(3) 0.0660(2)
H35 H 0.2341 0.1855 0.0339
H36 H 0.2358 0.1559 0.0803
N4 N 0.2101(2) 0.2157(2) 0.08741(17)
N5 N 0.4609(3) 0.4164(4) 0.1579(2)
O7 O 0.4183(3) 0.3636(3) 0.15275(17)
O8 O 0.4726(2) 0.4356(2) 0.19717(18)
N6 N 0.3328(3) 0.2245(3) 0.2228(2)
O9 O 0.3241(2) 0.2606(2) 0.20051(16)
O10 O 0.3727(2) 0.2449(2) 0.25128(17)
N7 N 0.5007(3) 0.3384(3) 0.2513(3)
O11 O 0.4771(3) 0.3282(3) 0.2124(2)
O12 O 0.4812(2) 0.3597(2) 0.27963(16)
O13 O 0.4876(3) 0.4448(3) 0.1255(2)
O14 O 0.3024(4) 0.1725(3) 0.2165(3)
O15 O 0.5385(4) 0.3266(4) 0.2609(3)
Tb1H Tb 0.285290(21) 0.268908(14) -0.097066(10)
Tb1P Tb 0.016383(15) 0.285290(21) 0.097066(10)
O3Q O 0.4343(4) 0.4289(2) 0.28461(17)
O5D O 0.3368(2) 0.3171(4) 0.29713(14)
N8 N 0.3455(4) 0.5454(5) 0.4500(3)
C31 C 0.3542(8) 0.5948(7) 0.4779(7)
H37 H 0.3840 0.6314 0.4642
H38 H 0.3670 0.5910 0.5080
H39 H 0.3174 0.5952 0.4802
C32 C 0.3954(5) 0.5380(8) 0.4452(4)
H40 H 0.3854 0.5044 0.4258
H41 H 0.4072 0.5313 0.4748
H42 H 0.4277 0.5732 0.4318
C33 C 0.2953(5) 0.5115(6) 0.4338(4)
H43 H 0.2910 0.4790 0.4171
O16 O 0.2509(3) 0.5164(4) 0.4377(3)
O17 O 0.0000 0.0000 0.0000
loop_
_geom_bond_atom_site_label_1
_geom_bond_atom_site_label_2
_geom_bond_site_symmetry_1
_geom_bond_site_symmetry_2
Tb1 O1 1_555 1_555
O1 C2 1_555 1_555
C1 C2 1_555 1_555
C2 C3 1_555 1_555
C3 H1 1_555 1_555
C4 C3 1_555 1_555
H2 C4 1_555 1_555
C5 C4 1_555 1_555
C6 C1 1_555 1_555
H3 C6 1_555 1_555
O2 C5 1_555 1_555
C7 O2 1_555 1_555
H4 C7 1_555 1_555
H5 C7 1_555 1_555
H6 C7 1_555 1_555
C8 C1 1_555 1_555
H7 C8 1_555 1_555
N1 C8 1_555 1_555
H8 N1 1_555 1_555
C9 N1 1_555 1_555
H9 C9 1_555 1_555
H10 C9 1_555 1_555
C10 C9 1_555 1_555
H11 C10 1_555 1_555
H12 C10 1_555 1_555
O3 C12 1_555 1_555
C11 C12 1_555 1_555
C12 C13 1_555 1_555
C13 H13 1_555 1_555
C14 C13 1_555 1_555
H14 C14 1_555 1_555
C15 C14 1_555 1_555
C16 C11 1_555 1_555
H15 C16 1_555 1_555
O4 C15 1_555 1_555
C17 O4 1_555 1_555
H16 C17 1_555 1_555
H17 C17 1_555 1_555
H18 C17 1_555 1_555
C18 C11 1_555 1_555
H19 C18 1_555 1_555
N2 C18 1_555 1_555
H20 N2 1_555 1_555
C19 N2 1_555 1_555
H21 C19 1_555 1_555
H22 C19 1_555 1_555
C20 C19 1_555 1_555
H23 C20 1_555 1_555
H24 C20 1_555 1_555
O5 C22 1_555 1_555
C21 C22 1_555 1_555
C22 C23 1_555 1_555
C23 H25 1_555 1_555
C24 C23 1_555 1_555
H26 C24 1_555 1_555
C25 C24 1_555 1_555
C26 C21 1_555 1_555
H27 C26 1_555 1_555
O6 C25 1_555 1_555
C27 O6 1_555 1_555
H28 C27 1_555 1_555
H29 C27 1_555 1_555
H30 C27 1_555 1_555
C28 C21 1_555 1_555
H31 C28 1_555 1_555
N3 C28 1_555 1_555
H32 N3 1_555 1_555
C29 N3 1_555 1_555
H33 C29 1_555 1_555
H34 C29 1_555 1_555
C30 C29 1_555 1_555
H35 C30 1_555 1_555
H36 C30 1_555 1_555
N4 C10 1_555 1_555
N5 O7 1_555 1_555
O7 Tb1 1_555 1_555
O8 Tb1 1_555 1_555
N6 O9 1_555 1_555
O9 Tb1 1_555 1_555
O10 Tb1 1_555 1_555
N7 O11 1_555 1_555
O11 Tb1 1_555 1_555
O12 Tb1 1_555 1_555
O13 N5 1_555 1_555
O14 N6 1_555 1_555
O15 N7 1_555 1_555
N8 C31 1_555 1_555
C31 H37 1_555 1_555
H38 C31 1_555 1_555
H39 C31 1_555 1_555
C32 N8 1_555 1_555
H40 C32 1_555 1_555
H41 C32 1_555 1_555
H42 C32 1_555 1_555
C33 N8 1_555 1_555
H43 C33 1_555 1_555
O16 C33 1_555 1_555
Tb1H O5 1_555 1_555
Tb1P O3 1_555 1_555
O3Q Tb1 1_555 1_555
O5D Tb1 1_555 1_555
C5 C6 1_555 1_555
C15 C16 1_555 1_555
C20 N4 1_555 1_555
C25 C26 1_555 1_555
C30 N4 1_555 1_555
N5 O8 1_555 1_555
N6 O10 1_555 1_555
N7 O12 1_555 1_555

#END
