
#######################################################################
#
#                 Cambridge Crystallographic Data Centre
#                                CCDC 
#
#######################################################################
#
# If this CIF has been generated from an entry in the Cambridge 
# Structural Database, then it will include bibliographic, chemical, 
# crystal, experimental, refinement or atomic coordinate data resulting 
# from the CCDC's data processing and validation procedures.
#
#######################################################################

data_JOQJIK01
_symmetry_cell_setting           orthorhombic
_symmetry_space_group_name_H-M   'P b c a'
_symmetry_Int_Tables_number      61
_space_group_name_Hall           '-P 2ac 2ab'
loop_
_symmetry_equiv_pos_site_id
_symmetry_equiv_pos_as_xyz
1 x,y,z
2 1/2-x,-y,1/2+z
3 -x,1/2+y,1/2-z
4 1/2+x,1/2-y,-z
5 -x,-y,-z
6 1/2+x,y,1/2-z
7 x,1/2-y,1/2+z
8 1/2-x,1/2+y,z
_cell_length_a                   12.4568(3)
_cell_length_b                   12.2988(3)
_cell_length_c                   21.0020(5)
_cell_angle_alpha                90
_cell_angle_beta                 90
_cell_angle_gamma                90
_cell_volume                     3217.58
loop_
_atom_site_label
_atom_site_type_symbol
_atom_site_fract_x
_atom_site_fract_y
_atom_site_fract_z
Sb1 Sb 0.485619(16) 0.718979(16) 0.576966(10)
Sb2 Sb 0.790411(16) 0.709390(16) 0.589055(10)
Mn1 Mn 0.64906(3) 0.49213(3) 0.50796(2)
Mn2 Mn 0.68766(4) 0.77721(4) 0.43444(2)
S1 S 0.51085(6) 0.64914(6) 0.47017(4)
S2 S 0.63130(6) 0.59442(6) 0.61918(4)
S3 S 0.80784(6) 0.62707(6) 0.48524(4)
S4 S 0.69875(6) 0.86644(6) 0.55166(4)
S5 S 0.34095(6) 0.59538(6) 0.60108(4)
N1 N 0.6812(2) 0.69425(19) 0.34081(13)
N2 N 0.6334(2) 0.5732(2) 0.26899(14)
N3 N 0.4268(2) 0.4088(2) 0.09050(14)
H1 H 0.484(3) 0.407(3) 0.0688(17)
H2 H 0.400(3) 0.476(3) 0.0773(16)
C1 C 0.6071(3) 0.6238(2) 0.32275(15)
H3 H 0.5425 0.6108 0.3455
C2 C 0.7598(3) 0.6872(3) 0.29453(16)
H4 H 0.8242 0.7284 0.2938
C3 C 0.7311(3) 0.6127(3) 0.25045(17)
H5 H 0.7710 0.5919 0.2138
C4 C 0.5728(3) 0.4824(3) 0.24150(17)
H6 H 0.5135 0.4632 0.2708
H7 H 0.6208 0.4185 0.2383
C5 C 0.5269(3) 0.5054(3) 0.17742(17)
H8 H 0.5856 0.5136 0.1460
H9 H 0.4857 0.5742 0.1786
C6 C 0.4537(3) 0.4125(3) 0.15769(16)
H10 H 0.4888 0.3430 0.1694
H11 H 0.3863 0.4178 0.1824
Mn1D Mn 0.35094(3) 0.50787(3) 0.49204(2)
Mn1G Mn 0.85094(3) 0.99213(3) 0.50796(2)
Mn2B Mn 0.31234(4) 0.27721(4) 0.06556(2)
Mn2C Mn 0.18766(4) 0.72279(4) 0.56556(2)
S1D S 0.48915(6) 0.35086(6) 0.52983(4)
S4G S 0.80125(6) 0.36644(6) 0.55166(4)
S5C S 0.84095(6) 0.90462(6) 0.39892(4)
S5D S 0.65905(6) 0.40462(6) 0.39892(4)
N3B N 0.5732(2) 0.9088(2) 0.40950(14)
loop_
_geom_bond_atom_site_label_1
_geom_bond_atom_site_label_2
_geom_bond_site_symmetry_1
_geom_bond_site_symmetry_2
Sb1 S1 1_555 1_555
Sb2 S2 1_555 1_555
Mn1 S1 1_555 1_555
Mn2 S1 1_555 1_555
S1 Mn1D 1_555 1_555
S2 Sb1 1_555 1_555
S3 Sb2 1_555 1_555
S4 Sb2 1_555 1_555
S5 Sb1 1_555 1_555
N1 Mn2 1_555 1_555
N2 C1 1_555 1_555
N3 H1 1_555 1_555
H2 N3 1_555 1_555
C1 N1 1_555 1_555
H3 C1 1_555 1_555
C2 N1 1_555 1_555
H4 C2 1_555 1_555
C3 N2 1_555 1_555
H5 C3 1_555 1_555
C4 N2 1_555 1_555
H6 C4 1_555 1_555
H7 C4 1_555 1_555
C5 C4 1_555 1_555
H8 C5 1_555 1_555
H9 C5 1_555 1_555
C6 N3 1_555 1_555
H10 C6 1_555 1_555
H11 C6 1_555 1_555
Mn1D S5 1_555 1_555
Mn1G S4 1_555 1_555
Mn2B N3 1_555 1_555
Mn2C S5 1_555 1_555
S1D Mn1 1_555 1_555
S4G Mn1 1_555 1_555
S5C Mn2 1_555 1_555
S5D Mn1 1_555 1_555
N3B Mn2 1_555 1_555
Mn1 S2 1_555 1_555
Mn1 S3 1_555 1_555
Mn2 S3 1_555 1_555
Mn2 S4 1_555 1_555
C2 C3 1_555 1_555
C5 C6 1_555 1_555
Mn1D S1D 1_555 1_555
Mn1G S5C 1_555 1_555

#END
