
#######################################################################
#
#                 Cambridge Crystallographic Data Centre
#                                CCDC 
#
#######################################################################
#
# If this CIF has been generated from an entry in the Cambridge 
# Structural Database, then it will include bibliographic, chemical, 
# crystal, experimental, refinement or atomic coordinate data resulting 
# from the CCDC's data processing and validation procedures.
#
#######################################################################

data_JOQRIS
_symmetry_cell_setting           monoclinic
_symmetry_space_group_name_H-M   'P 21/c'
_symmetry_Int_Tables_number      14
_space_group_name_Hall           '-P 2ybc'
loop_
_symmetry_equiv_pos_site_id
_symmetry_equiv_pos_as_xyz
1 x,y,z
2 -x,1/2+y,1/2-z
3 -x,-y,-z
4 x,1/2-y,1/2+z
_cell_length_a                   9.4249(2)
_cell_length_b                   14.2699(4)
_cell_length_c                   11.4988(3)
_cell_angle_alpha                90
_cell_angle_beta                 100.7050(10)
_cell_angle_gamma                90
_cell_volume                     1519.59
loop_
_atom_site_label
_atom_site_type_symbol
_atom_site_fract_x
_atom_site_fract_y
_atom_site_fract_z
Cu1 Cu 0.54187(3) 0.085003(16) 0.00736(2)
N1 N 0.4838(2) 0.31348(13) 0.37090(16)
N2 N 0.40634(19) 0.09822(11) 0.11525(15)
N3 N 0.28376(18) -0.03329(12) 0.03740(14)
N4 N -0.0740(3) -0.21754(18) -0.0053(2)
C1 C 0.5492(3) 0.30903(16) 0.2768(2)
H1 H 0.6170 0.3549 0.2693
C2 C 0.5223(2) 0.24104(16) 0.19088(18)
H2 H 0.5715 0.2420 0.1279
C3 C 0.4213(2) 0.17033(14) 0.19768(16)
C4 C 0.3486(2) 0.17653(16) 0.29344(19)
H3 H 0.2775 0.1331 0.3017
C5 C 0.3833(2) 0.24749(16) 0.37522(19)
H4 H 0.3335 0.2498 0.4378
C6 C 0.2923(2) 0.04181(13) 0.10441(17)
H5 H 0.2179 0.0557 0.1446
C7 C -0.0415(3) -0.1621(2) 0.0887(3)
H6 H -0.0998 -0.1661 0.1455
C8 C 0.0712(3) -0.09917(18) 0.1089(2)
H7 H 0.0872 -0.0626 0.1770
C9 C 0.1611(2) -0.09106(14) 0.02592(19)
C10 C 0.1279(3) -0.14777(19) -0.0734(2)
H8 H 0.1837 -0.1452 -0.1321
C11 C 0.0107(3) -0.2085(2) -0.0846(3)
H9 H -0.0095 -0.2454 -0.1524
Cu1B Cu 0.45813(3) -0.085003(16) -0.00736(2)
Cu1C Cu 0.54187(3) 0.414997(16) 0.50736(2)
N1C N 0.4838(2) 0.18652(13) -0.12910(16)
N3B N 0.71624(18) 0.03329(12) -0.03740(14)
N5 N -0.2241(5) -0.5119(3) -0.0671(4)
C12 C -0.2485(10) -0.6046(6) -0.0495(11)
H10 H -0.2282 -0.6180 0.0337
H11 H -0.1870 -0.6418 -0.0888
H12 H -0.3477 -0.6191 -0.0810
C13 C -0.2411(8) -0.4681(5) -0.1791(5)
H13 H -0.2231 -0.4022 -0.1687
H14 H -0.3379 -0.4778 -0.2213
H15 H -0.1740 -0.4946 -0.2233
C14 C -0.1674(7) -0.4667(5) 0.0309(5)
H16 H -0.1412 -0.4025 0.0212
O1 O -0.1456(9) -0.4972(4) 0.1328(4)
loop_
_geom_bond_atom_site_label_1
_geom_bond_atom_site_label_2
_geom_bond_site_symmetry_1
_geom_bond_site_symmetry_2
Cu1 N2 1_555 1_555
N1 C1 1_555 1_555
N2 C3 1_555 1_555
N3 C6 1_555 1_555
N4 C7 1_555 1_555
C1 H1 1_555 1_555
C2 C1 1_555 1_555
H2 C2 1_555 1_555
C3 C2 1_555 1_555
C4 C3 1_555 1_555
H3 C4 1_555 1_555
C5 N1 1_555 1_555
H4 C5 1_555 1_555
C6 N2 1_555 1_555
H5 C6 1_555 1_555
C7 H6 1_555 1_555
C8 C7 1_555 1_555
H7 C8 1_555 1_555
C9 N3 1_555 1_555
C10 C9 1_555 1_555
H8 C10 1_555 1_555
C11 N4 1_555 1_555
H9 C11 1_555 1_555
N5 C12 1_555 1_555
C12 H10 1_555 1_555
H11 C12 1_555 1_555
H12 C12 1_555 1_555
C13 N5 1_555 1_555
H13 C13 1_555 1_555
H14 C13 1_555 1_555
H15 C13 1_555 1_555
C14 N5 1_555 1_555
H16 C14 1_555 1_555
O1 C14 1_555 1_555
Cu1B Cu1 1_555 1_555
Cu1C N1 1_555 1_555
N1C Cu1 1_555 1_555
N3B Cu1 1_555 1_555
N3 Cu1B 1_555 1_555
C4 C5 1_555 1_555
C8 C9 1_555 1_555
C10 C11 1_555 1_555

#END
