
#######################################################################
#
#                 Cambridge Crystallographic Data Centre
#                                CCDC 
#
#######################################################################
#
# If this CIF has been generated from an entry in the Cambridge 
# Structural Database, then it will include bibliographic, chemical, 
# crystal, experimental, refinement or atomic coordinate data resulting 
# from the CCDC's data processing and validation procedures.
#
#######################################################################

data_JOQSAL
_symmetry_cell_setting           monoclinic
_symmetry_space_group_name_H-M   'C 2/c'
_symmetry_Int_Tables_number      15
_space_group_name_Hall           '-C 2yn'
loop_
_symmetry_equiv_pos_site_id
_symmetry_equiv_pos_as_xyz
1 x,y,z
2 -x,y,1/2-z
3 1/2+x,1/2+y,z
4 1/2-x,1/2+y,1/2-z
5 -x,-y,-z
6 x,-y,1/2+z
7 1/2-x,1/2-y,-z
8 1/2+x,1/2-y,1/2+z
_cell_length_a                   20.8705(3)
_cell_length_b                   21.3742(3)
_cell_length_c                   22.7059(3)
_cell_angle_alpha                90
_cell_angle_beta                 99.1820(10)
_cell_angle_gamma                90
_cell_volume                     9999.09
loop_
_atom_site_label
_atom_site_type_symbol
_atom_site_fract_x
_atom_site_fract_y
_atom_site_fract_z
Cu1 Cu 0.112434(16) 0.189232(16) 0.787903(14)
Cu2 Cu 0.100067(18) 0.087883(16) 0.732040(15)
Cu3 Cu 0.544286(16) 0.021653(17) 0.717852(15)
Cu4 Cu 0.442856(16) 0.250311(16) 0.722686(14)
N1 N 0.10275(14) 0.23810(13) 1.01971(12)
N2 N 0.10087(11) 0.13868(11) 0.85774(10)
N3 N 0.09225(11) 0.04530(11) 0.80547(10)
N4 N 0.07523(12) -0.15155(11) 0.79351(10)
N5 N 0.05878(12) 0.42638(11) 0.70814(10)
N6 N 0.07728(11) 0.22944(11) 0.71106(10)
N7 N 0.07311(11) 0.13552(11) 0.66024(10)
N8 N 0.08825(17) 0.03263(14) 0.50380(12)
N9 N 0.20076(13) 0.07477(12) 0.72394(12)
N10 N 0.39832(12) 0.04885(11) 0.70975(11)
N11 N 0.48023(12) 0.05221(11) 0.65253(10)
N12 N 0.54094(16) 0.08631(13) 0.48627(12)
N13 N 0.21331(11) 0.21330(11) 0.79873(10)
N14 N 0.41551(11) 0.23282(11) 0.79916(10)
N15 N 0.52126(11) 0.22948(11) 0.84908(10)
N16 N 0.65694(13) 0.21368(13) 1.00852(11)
C1 C 0.1184(2) 0.26295(17) 0.97066(16)
H1 H 0.1305 0.3058 0.9719
C2 C 0.11860(19) 0.23102(15) 0.91750(15)
H2 H 0.1308 0.2521 0.8842
C3 C 0.10104(13) 0.16873(13) 0.91290(12)
C4 C 0.0822(2) 0.14279(16) 0.96348(15)
H3 H 0.0681 0.1005 0.9631
C5 C 0.0841(2) 0.17853(17) 1.01433(15)
H4 H 0.0712 0.1591 1.0482
C6 C 0.09455(13) 0.07696(13) 0.85601(12)
H5 H 0.0916 0.0549 0.8918
C7 C 0.08948(14) -0.11508(14) 0.74923(13)
H6 H 0.0959 -0.1347 0.7131
C8 C 0.09528(14) -0.05140(14) 0.75303(12)
H7 H 0.1054 -0.0284 0.7199
C9 C 0.08649(13) -0.01960(13) 0.80514(12)
C10 C 0.07172(14) -0.05713(13) 0.85168(12)
H8 H 0.0651 -0.0389 0.8884
C11 C 0.06696(14) -0.12132(13) 0.84347(12)
H9 H 0.0571 -0.1458 0.8758
C12 C 0.09540(14) 0.39491(14) 0.75259(12)
H10 H 0.1185 0.4183 0.7847
C13 C 0.10138(14) 0.33091(14) 0.75425(12)
H11 H 0.1278 0.3114 0.7871
C14 C 0.06890(13) 0.29430(13) 0.70793(12)
C15 C 0.02927(13) 0.32683(14) 0.66195(12)
H12 H 0.0049 0.3046 0.6297
C16 C 0.02617(14) 0.39118(14) 0.66411(12)
H13 H -0.0008 0.4121 0.6325
C17 C 0.06739(13) 0.19685(13) 0.66084(12)
H14 H 0.0558 0.2184 0.6241
C18 C 0.06497(18) 0.00857(16) 0.55088(14)
H15 H 0.0524 -0.0342 0.5491
C19 C 0.05815(15) 0.04161(14) 0.60139(13)
H16 H 0.0416 0.0215 0.6331
C20 C 0.07554(14) 0.10466(14) 0.60625(13)
C21 C 0.09937(17) 0.13061(15) 0.55764(13)
H17 H 0.1120 0.1733 0.5581
C22 C 0.10437(19) 0.09342(17) 0.50869(14)
H18 H 0.1204 0.1123 0.4761
C23 C 0.22804(16) 0.10493(17) 0.68240(15)
H19 H 0.2013 0.1321 0.6560
C24 C 0.29201(16) 0.09930(16) 0.67534(16)
H20 H 0.3082 0.1222 0.6450
C25 C 0.33292(14) 0.05977(14) 0.71301(13)
C26 C 0.30573(15) 0.03072(15) 0.75815(13)
H21 H 0.3319 0.0051 0.7865
C27 C 0.24116(15) 0.03908(15) 0.76170(14)
H22 H 0.2241 0.0183 0.7928
C28 C 0.41917(14) 0.06053(14) 0.65895(13)
H23 H 0.3892 0.0754 0.6260
C29 C 0.58102(18) 0.08631(15) 0.53828(15)
H24 H 0.6256 0.0946 0.5375
C30 C 0.56284(16) 0.07520(14) 0.59285(14)
H25 H 0.5942 0.0759 0.6281
C31 C 0.49746(15) 0.06278(13) 0.59605(13)
C32 C 0.45507(16) 0.06088(14) 0.54177(13)
H26 H 0.4104 0.0514 0.5407
C33 C 0.47910(18) 0.07303(15) 0.48973(14)
H27 H 0.4493 0.0719 0.4535
C34 C 0.25663(14) 0.19220(15) 0.84462(13)
H28 H 0.2404 0.1724 0.8767
C35 C 0.32298(14) 0.19734(14) 0.84836(13)
H29 H 0.3509 0.1812 0.8821
C36 C 0.34908(13) 0.22654(13) 0.80212(12)
C37 C 0.30400(14) 0.24908(14) 0.75469(12)
H30 H 0.3186 0.2696 0.7222
C38 C 0.23820(14) 0.24172(15) 0.75488(13)
H31 H 0.2089 0.2577 0.7220
C39 C 0.45767(13) 0.22629(13) 0.84912(12)
H32 H 0.4421 0.2192 0.8856
C40 C 0.59341(15) 0.20938(14) 1.00889(13)
H33 H 0.5799 0.2021 1.0463
C41 C 0.54539(14) 0.21454(14) 0.95966(12)
H34 H 0.5009 0.2117 0.9639
C42 C 0.56322(13) 0.22399(13) 0.90368(12)
C43 C 0.62988(15) 0.22897(17) 0.90290(13)
H35 H 0.6451 0.2361 0.8662
C44 C 0.67395(16) 0.22361(18) 0.95501(14)
H36 H 0.7188 0.2272 0.9526
Cu3A Cu 0.455714(16) 0.021653(17) 0.782148(15)
Cu3B Cu 0.044286(16) 0.521653(17) 0.717852(15)
Cu4A Cu 0.557144(16) 0.250311(16) 0.777314(14)
Cu4C Cu 0.057144(16) -0.249689(16) 0.777314(14)
N4C N 0.42477(12) 0.34845(11) 0.70649(10)
N5B N 0.55878(12) -0.07362(11) 0.70814(10)
N10A N 0.60168(12) 0.04885(11) 0.79025(11)
N15A N 0.47874(11) 0.22948(11) 0.65092(10)
O1 O 0.22647(16) 0.30920(16) 0.62450(12)
H37 H 0.2068 0.3053 0.5824
C45 C 0.2479(6) 0.3691(5) 0.6286(5)
H38 H 0.2954 0.3642 0.6305
H39 H 0.2421 0.3811 0.6695
C46 C 0.2348(11) 0.4260(12) 0.5962(9)
H40 H 0.2642 0.4587 0.6145
H41 H 0.1897 0.4386 0.5968
H42 H 0.2413 0.4196 0.5548
O2 O 0.1948(5) 0.3887(7) 0.8994(6)
C49 C 0.2586(5) 0.4140(8) 0.8963(6)
C50 C 0.3033(6) 0.3944(8) 0.8572(6)
C47? C 0.2112(5) 0.3776(5) 0.6364(4)
H43? H 0.1698 0.3763 0.6526
H44? H 0.2447 0.3903 0.6702
C48? C 0.2063(8) 0.4177(6) 0.6060(6)
H45? H 0.2007 0.4560 0.6283
H46? H 0.1684 0.4117 0.5750
H47? H 0.2454 0.4213 0.5874
O3? O 0.1382(4) 0.4192(4) 0.9045(3)
C51? C 0.1947(4) 0.4536(5) 0.9325(6)
C52? C 0.1973(9) 0.5177(6) 0.9535(10)
loop_
_geom_bond_atom_site_label_1
_geom_bond_atom_site_label_2
_geom_bond_site_symmetry_1
_geom_bond_site_symmetry_2
Cu1 Cu2 1_555 1_555
Cu2 N3 1_555 1_555
Cu3 N11 1_555 1_555
Cu4 N14 1_555 1_555
N1 C1 1_555 1_555
N2 Cu1 1_555 1_555
N3 C6 1_555 1_555
N4 C7 1_555 1_555
N5 C12 1_555 1_555
N6 Cu1 1_555 1_555
N7 Cu2 1_555 1_555
N8 C18 1_555 1_555
N9 Cu2 1_555 1_555
N10 C25 1_555 1_555
N11 C28 1_555 1_555
N12 C29 1_555 1_555
N13 Cu1 1_555 1_555
N14 C36 1_555 1_555
N15 C39 1_555 1_555
N16 C40 1_555 1_555
C1 H1 1_555 1_555
C2 C1 1_555 1_555
H2 C2 1_555 1_555
C3 N2 1_555 1_555
C4 C3 1_555 1_555
H3 C4 1_555 1_555
C5 N1 1_555 1_555
H4 C5 1_555 1_555
C6 N2 1_555 1_555
H5 C6 1_555 1_555
C7 H6 1_555 1_555
C8 C7 1_555 1_555
H7 C8 1_555 1_555
C9 N3 1_555 1_555
C10 C9 1_555 1_555
H8 C10 1_555 1_555
C11 N4 1_555 1_555
H9 C11 1_555 1_555
C12 H10 1_555 1_555
C13 C12 1_555 1_555
H11 C13 1_555 1_555
C14 N6 1_555 1_555
C15 C14 1_555 1_555
H12 C15 1_555 1_555
C16 N5 1_555 1_555
H13 C16 1_555 1_555
C17 N6 1_555 1_555
H14 C17 1_555 1_555
C18 H15 1_555 1_555
C19 C18 1_555 1_555
H16 C19 1_555 1_555
C20 N7 1_555 1_555
C21 C20 1_555 1_555
H17 C21 1_555 1_555
C22 N8 1_555 1_555
H18 C22 1_555 1_555
C23 N9 1_555 1_555
H19 C23 1_555 1_555
C24 C23 1_555 1_555
H20 C24 1_555 1_555
C25 C24 1_555 1_555
C26 C25 1_555 1_555
H21 C26 1_555 1_555
C27 N9 1_555 1_555
H22 C27 1_555 1_555
C28 N10 1_555 1_555
H23 C28 1_555 1_555
C29 H24 1_555 1_555
C30 C29 1_555 1_555
H25 C30 1_555 1_555
C31 N11 1_555 1_555
C32 C31 1_555 1_555
H26 C32 1_555 1_555
C33 N12 1_555 1_555
H27 C33 1_555 1_555
C34 N13 1_555 1_555
H28 C34 1_555 1_555
C35 C34 1_555 1_555
H29 C35 1_555 1_555
C36 C35 1_555 1_555
C37 C36 1_555 1_555
H30 C37 1_555 1_555
C38 N13 1_555 1_555
H31 C38 1_555 1_555
C39 N14 1_555 1_555
H32 C39 1_555 1_555
C40 H33 1_555 1_555
C41 C40 1_555 1_555
H34 C41 1_555 1_555
C42 N15 1_555 1_555
C43 C42 1_555 1_555
H35 C43 1_555 1_555
C44 N16 1_555 1_555
H36 C44 1_555 1_555
O1 H37 1_555 1_555
C45 O1 1_555 1_555
H38 C45 1_555 1_555
H39 C45 1_555 1_555
C46 C45 1_555 1_555
H40 C46 1_555 1_555
H41 C46 1_555 1_555
H42 C46 1_555 1_555
O2 C49 1_555 1_555
C49 C50 1_555 1_555
Cu3A Cu3 1_555 1_555
Cu3B N5 1_555 1_555
Cu4A Cu4 1_555 1_555
Cu4C N4 1_555 1_555
N4C Cu4 1_555 1_555
N5B Cu3 1_555 1_555
N10A Cu3 1_555 1_555
N15A Cu4 1_555 1_555
N7 C17 1_555 1_555
N10 Cu3A 1_555 1_555
N15 Cu4A 1_555 1_555
C2 C3 1_555 1_555
C4 C5 1_555 1_555
C8 C9 1_555 1_555
C10 C11 1_555 1_555
C13 C14 1_555 1_555
C15 C16 1_555 1_555
C19 C20 1_555 1_555
C21 C22 1_555 1_555
C26 C27 1_555 1_555
C30 C31 1_555 1_555
C32 C33 1_555 1_555
C37 C38 1_555 1_555
C41 C42 1_555 1_555
C43 C44 1_555 1_555

#END
