
#######################################################################
#
#                 Cambridge Crystallographic Data Centre
#                                CCDC 
#
#######################################################################
#
# If this CIF has been generated from an entry in the Cambridge 
# Structural Database, then it will include bibliographic, chemical, 
# crystal, experimental, refinement or atomic coordinate data resulting 
# from the CCDC's data processing and validation procedures.
#
#######################################################################

data_JORHIJ
_symmetry_cell_setting           monoclinic
_symmetry_space_group_name_H-M   'P 21/n'
_symmetry_Int_Tables_number      14
_space_group_name_Hall           '-P 2yn'
loop_
_symmetry_equiv_pos_site_id
_symmetry_equiv_pos_as_xyz
1 x,y,z
2 1/2-x,1/2+y,1/2-z
3 -x,-y,-z
4 1/2+x,1/2-y,1/2+z
_cell_length_a                   12.5776(4)
_cell_length_b                   19.7185(8)
_cell_length_c                   13.8892(5)
_cell_angle_alpha                90
_cell_angle_beta                 93.4710(10)
_cell_angle_gamma                90
_cell_volume                     3438.36
loop_
_atom_site_label
_atom_site_type_symbol
_atom_site_fract_x
_atom_site_fract_y
_atom_site_fract_z
W1 W 0.43698(2) 0.633059(14) 0.76484(2)
Tb1 Tb 0.70668(3) 0.628404(17) 1.11662(2)
O1 O 0.6976(4) 0.6217(3) 1.2842(4)
O2 O 0.8183(4) 0.6650(3) 1.0024(4)
O3 O 0.3893(4) 0.7375(3) 1.1728(4)
O4 O 0.5019(4) 0.8200(3) 1.0449(4)
O5 O 0.8963(4) 0.4397(3) 1.0101(4)
O6 O 1.0017(4) 0.4887(3) 1.1800(4)
N1 N 0.5948(4) 0.6151(3) 0.9645(4)
N2 N 0.3144(5) 0.6892(3) 0.9535(5)
N3 N 0.6451(5) 0.5396(3) 0.7083(4)
N4 N 0.6151(5) 0.7555(3) 0.7432(5)
N5 N 0.1853(5) 0.5907(4) 0.7027(5)
N6 N 0.3143(5) 0.7751(3) 0.6929(4)
N7 N 0.4287(5) 0.6242(4) 0.5261(5)
N8 N 0.6145(5) 0.5210(3) 1.1546(5)
N9 N 0.6351(5) 0.7430(3) 1.0575(5)
N10 N 0.5198(5) 0.6590(3) 1.1646(5)
N11 N 0.7729(5) 0.5235(3) 1.0224(5)
N12 N 0.8792(5) 0.5731(3) 1.1839(5)
N13 N 0.7055(5) 0.6168(3) 1.4471(4)
N14 N 0.9482(7) 0.6816(4) 0.9040(6)
C1 C 0.5420(5) 0.6212(3) 0.8928(6)
C2 C 0.5544(6) 0.7114(4) 0.7511(5)
C3 C 0.5733(6) 0.5726(4) 0.7263(5)
C4 C 0.3558(5) 0.6690(3) 0.8882(6)
C5 C 0.2724(6) 0.6059(4) 0.7238(6)
C6 C 0.3576(5) 0.7263(3) 0.7181(5)
C7 C 0.4326(6) 0.6276(4) 0.6086(6)
C8 C 0.5954(5) 0.4675(4) 1.1836(5)
C9 C 0.6739(7) 0.7962(4) 0.9952(6)
C10 C 0.5888(7) 0.8503(4) 0.9905(6)
H1 H 0.6154 0.8928 1.0213
H2 H 0.5640 0.8600 0.9229
C11 C 0.5431(6) 0.7609(4) 1.0776(6)
C12 C 0.4816(6) 0.7157(4) 1.1396(6)
C13 C 0.4425(6) 0.6286(4) 1.2289(6)
C14 C 0.3566(6) 0.6824(4) 1.2375(6)
H3 H 0.2856 0.6645 1.2161
H4 H 0.3547 0.6987 1.3048
C15 C 0.8602(6) 0.4952(4) 1.0534(6)
C16 C 0.7329(7) 0.4811(5) 0.9387(7)
C17 C 0.8153(6) 0.4255(4) 0.9302(6)
H5 H 0.7830 0.3802 0.9378
H6 H 0.8474 0.4276 0.8669
C18 C 1.0212(7) 0.5198(5) 1.2756(7)
C19 C 0.9540(6) 0.5839(5) 1.2699(6)
H7 H 0.9147 0.5897 1.3290
H8 H 0.9990 0.6244 1.2614
C20 C 0.9157(6) 0.5208(4) 1.1424(6)
C21 C 0.7197(6) 0.6477(4) 1.3647(6)
C22 C 0.6641(7) 0.5478(4) 1.4510(6)
H9 H 0.6594 0.5341 1.5184
H10 H 0.7120 0.5169 1.4193
H11 H 0.5931 0.5460 1.4178
C23 C 0.7323(6) 0.6500(4) 1.5390(6)
H12 H 0.7165 0.6194 1.5919
H13 H 0.6903 0.6916 1.5434
H14 H 0.8083 0.6613 1.5436
C24 C 0.8745(10) 0.6480(6) 0.8217(9)
H15 H 0.9113 0.6477 0.7615
H16 H 0.8083 0.6741 0.8125
H17 H 0.8578 0.6014 0.8399
C25 C 1.0454(7) 0.6964(6) 0.8663(10)
H18 H 1.0414 0.6865 0.7971
H19 H 1.1014 0.6687 0.8988
H20 H 1.0620 0.7445 0.8765
C26 C 0.9048(9) 0.6834(5) 0.9812(8)
H21 H 0.747(5) 0.817(3) 1.021(5)
H22 H 0.745(6) 0.692(4) 1.369(6)
H23 H 1.097(6) 0.532(4) 1.282(6)
H24 H 0.720(6) 0.510(4) 0.888(6)
H25 H 0.663(8) 0.470(5) 0.952(7)
H26 H 0.995(6) 0.486(4) 1.327(6)
H27 H 0.690(6) 0.775(4) 0.931(6)
H28 H 0.481(5) 0.616(4) 1.297(5)
H29 H 0.423(6) 0.579(4) 1.211(6)
W1B W 0.56302(2) 0.366941(14) 1.23516(2)
Tb1C Tb 0.20668(3) 0.871596(17) 0.61662(2)
N6C N 0.8143(5) 0.7249(3) 1.1929(4)
C8B C 0.4046(5) 0.5325(4) 0.8164(5)
O7 O 0.7608(5) 0.9213(3) 0.8751(5)
H30 H 0.831(6) 0.904(10) 0.887(14)
H31 H 0.777(9) 0.961(4) 0.839(7)
loop_
_geom_bond_atom_site_label_1
_geom_bond_atom_site_label_2
_geom_bond_site_symmetry_1
_geom_bond_site_symmetry_2
W1 C1 1_555 1_555
Tb1 O1 1_555 1_555
O1 C21 1_555 1_555
O2 Tb1 1_555 1_555
O3 C12 1_555 1_555
O4 C10 1_555 1_555
O5 C15 1_555 1_555
O6 C18 1_555 1_555
N1 Tb1 1_555 1_555
N2 C4 1_555 1_555
N3 C3 1_555 1_555
N4 C2 1_555 1_555
N5 C5 1_555 1_555
N6 C6 1_555 1_555
N7 C7 1_555 1_555
N8 Tb1 1_555 1_555
N9 Tb1 1_555 1_555
N10 Tb1 1_555 1_555
N11 Tb1 1_555 1_555
N12 Tb1 1_555 1_555
N13 C21 1_555 1_555
N14 C24 1_555 1_555
C1 N1 1_555 1_555
C2 W1 1_555 1_555
C3 W1 1_555 1_555
C4 W1 1_555 1_555
C5 W1 1_555 1_555
C6 W1 1_555 1_555
C7 W1 1_555 1_555
C8 N8 1_555 1_555
C9 N9 1_555 1_555
C10 C9 1_555 1_555
H1 C10 1_555 1_555
H2 C10 1_555 1_555
C11 O4 1_555 1_555
C12 N10 1_555 1_555
C13 N10 1_555 1_555
C14 O3 1_555 1_555
H3 C14 1_555 1_555
H4 C14 1_555 1_555
C15 N11 1_555 1_555
C16 N11 1_555 1_555
C17 O5 1_555 1_555
H5 C17 1_555 1_555
H6 C17 1_555 1_555
C18 C19 1_555 1_555
C19 N12 1_555 1_555
H7 C19 1_555 1_555
H8 C19 1_555 1_555
C20 O6 1_555 1_555
C21 H22 1_555 1_555
C22 N13 1_555 1_555
H9 C22 1_555 1_555
H10 C22 1_555 1_555
H11 C22 1_555 1_555
C23 N13 1_555 1_555
H12 C23 1_555 1_555
H13 C23 1_555 1_555
H14 C23 1_555 1_555
C24 H15 1_555 1_555
H16 C24 1_555 1_555
H17 C24 1_555 1_555
C25 N14 1_555 1_555
H18 C25 1_555 1_555
H19 C25 1_555 1_555
H20 C25 1_555 1_555
C26 O2 1_555 1_555
H21 C9 1_555 1_555
H23 C18 1_555 1_555
H24 C16 1_555 1_555
H25 C16 1_555 1_555
H26 C18 1_555 1_555
H27 C9 1_555 1_555
H28 C13 1_555 1_555
H29 C13 1_555 1_555
O7 H30 1_555 1_555
H31 O7 1_555 1_555
W1B C8 1_555 1_555
Tb1C N6 1_555 1_555
N6C Tb1 1_555 1_555
C8B W1 1_555 1_555
N9 C11 1_555 1_555
N12 C20 1_555 1_555
N14 C26 1_555 1_555
C11 C12 1_555 1_555
C13 C14 1_555 1_555
C15 C20 1_555 1_555
C16 C17 1_555 1_555

#END
