
#######################################################################
#
#                 Cambridge Crystallographic Data Centre
#                                CCDC 
#
#######################################################################
#
# If this CIF has been generated from an entry in the Cambridge 
# Structural Database, then it will include bibliographic, chemical, 
# crystal, experimental, refinement or atomic coordinate data resulting 
# from the CCDC's data processing and validation procedures.
#
#######################################################################

data_JORTIT
_symmetry_cell_setting           trigonal
_symmetry_space_group_name_H-M   'P -3 c 1'
_symmetry_Int_Tables_number      165
_space_group_name_Hall           '-P 3 2"c'
loop_
_symmetry_equiv_pos_site_id
_symmetry_equiv_pos_as_xyz
1 x,y,z
2 -y,x-y,z
3 y,x,1/2-z
4 -x+y,-x,z
5 -x,-x+y,1/2-z
6 x-y,-y,1/2-z
7 -x,-y,-z
8 y,-x+y,-z
9 -y,-x,1/2+z
10 x-y,x,-z
11 x,x-y,1/2+z
12 -x+y,y,1/2+z
_cell_length_a                   10.358(1)
_cell_length_b                   10.358(1)
_cell_length_c                   8.583(1)
_cell_angle_alpha                90
_cell_angle_beta                 90
_cell_angle_gamma                120
_cell_volume                     797.483
loop_
_atom_site_label
_atom_site_type_symbol
_atom_site_fract_x
_atom_site_fract_y
_atom_site_fract_z
Sn1 Sn 0.0000 0.0000 0.2500
F1 F 0.0000 0.0000 0.0000
C1 C 0.2042(6) 0.0000 0.2500
C2 C 0.3197(5) 0.0951(6) 0.3477(6)
C3 C 0.4535(6) 0.0954(7) 0.3469(8)
C4 C 0.4712(6) 0.0000 0.2500
H1 H 0.306 0.166 0.421
H2 H 0.539 0.165 0.419
H3 H 0.572 0.0000 0.250
F1B F 0.0000 0.0000 0.5000
C1A C 0.0000 0.2042(6) 0.2500
C1C C -0.2042(6) -0.2042(6) 0.2500
Sn1F Sn 0.0000 0.0000 -0.2500
C2E C 0.2246(8) -0.0951(6) 0.1523(6)
C3E C 0.3581(9) -0.0954(7) 0.1531(8)
Sn1F_2 Sn 0.0000 0.0000 0.7500
C2A C -0.0951(6) 0.2246(8) 0.3477(6)
C2B C 0.0951(6) 0.3197(5) 0.1523(6)
C2C C -0.2246(8) -0.3197(5) 0.3477(6)
C2D C -0.3197(5) -0.2246(8) 0.1523(6)
H1E H 0.140 -0.166 0.079
H2E H 0.374 -0.165 0.081
C3A C -0.0954(7) 0.3581(9) 0.3469(8)
H1A H -0.166 0.140 0.421
C3B C 0.0954(7) 0.4535(6) 0.1531(8)
H1B H 0.166 0.306 0.079
C3C C -0.3581(9) -0.4535(6) 0.3469(8)
H1C H -0.140 -0.306 0.421
C3D C -0.4535(6) -0.3581(9) 0.1531(8)
H1D H -0.306 -0.140 0.079
C4A C 0.0000 0.4712(6) 0.2500
H2A H -0.165 0.374 0.419
H2B H 0.165 0.539 0.081
C4C C -0.4712(6) -0.4712(6) 0.2500
H2C H -0.374 -0.539 0.419
H2D H -0.539 -0.374 0.081
H3A H 0.0000 0.5720 0.250
H3C H -0.5720 -0.572 0.250
F1B_2 F 0.0000 0.0000 -0.5000
C1F C -0.2042(6) 0.0000 -0.2500
C1G C 0.0000 -0.2042(6) -0.2500
C1I C 0.2042(6) 0.2042(6) -0.2500
C2F C -0.3197(5) -0.0951(6) -0.3477(6)
C2K C -0.2246(8) 0.0951(6) -0.1523(6)
C2G C 0.0951(6) -0.2246(8) -0.3477(6)
C2H C -0.0951(6) -0.3197(5) -0.1523(6)
C2I C 0.2246(8) 0.3197(5) -0.3477(6)
C2J C 0.3197(5) 0.2246(8) -0.1523(6)
C3F C -0.4535(6) -0.0954(7) -0.3469(8)
H1F H -0.306 -0.166 -0.421
C3K C -0.3581(9) 0.0954(7) -0.1531(8)
H1K H -0.140 0.166 -0.079
C3G C 0.0954(7) -0.3581(9) -0.3469(8)
H1G H 0.166 -0.140 -0.421
C3H C -0.0954(7) -0.4535(6) -0.1531(8)
H1H H -0.166 -0.306 -0.079
C3I C 0.3581(9) 0.4535(6) -0.3469(8)
H1I H 0.140 0.306 -0.421
C3J C 0.4535(6) 0.3581(9) -0.1531(8)
H1J H 0.306 0.140 -0.079
C4F C -0.4712(6) 0.0000 -0.2500
H2F H -0.539 -0.165 -0.419
H2K H -0.374 0.165 -0.081
C4G C 0.0000 -0.4712(6) -0.2500
H2G H 0.165 -0.374 -0.419
H2H H -0.165 -0.539 -0.081
C4I C 0.4712(6) 0.4712(6) -0.2500
H2I H 0.374 0.539 -0.419
H2J H 0.539 0.374 -0.081
H3F H -0.572 0.0000 -0.250
H3G H 0.0000 -0.5720 -0.250
H3I H 0.5720 0.572 -0.250
loop_
_geom_bond_atom_site_label_1
_geom_bond_atom_site_label_2
_geom_bond_site_symmetry_1
_geom_bond_site_symmetry_2
Sn1 F1 1_555 1_555
F1 Sn1F 1_555 1_555
C1 Sn1 1_555 1_555
C2 C1 1_555 1_555
C3 C2 1_555 1_555
C4 C3 1_555 1_555
H1 C2 1_555 1_555
H2 C3 1_555 1_555
H3 C4 1_555 1_555
F1B Sn1 1_555 1_555
C1A Sn1 1_555 1_555
C1C Sn1 1_555 1_555
Sn1F F1B_2 1_555 1_555
C2E C1 1_555 1_555
C3E C4 1_555 1_555
Sn1F_2 F1B 1_555 1_555
C2A C1A 1_555 1_555
C2B C1A 1_555 1_555
C2C C1C 1_555 1_555
C2D C1C 1_555 1_555
H1E C2E 1_555 1_555
H2E C3E 1_555 1_555
C3A C2A 1_555 1_555
H1A C2A 1_555 1_555
C3B C2B 1_555 1_555
H1B C2B 1_555 1_555
C3C C2C 1_555 1_555
H1C C2C 1_555 1_555
C3D C2D 1_555 1_555
H1D C2D 1_555 1_555
C4A C3A 1_555 1_555
H2A C3A 1_555 1_555
H2B C3B 1_555 1_555
C4C C3C 1_555 1_555
H2C C3C 1_555 1_555
H2D C3D 1_555 1_555
H3A C4A 1_555 1_555
H3C C4C 1_555 1_555
C1F Sn1F 1_555 1_555
C1G Sn1F 1_555 1_555
C1I Sn1F 1_555 1_555
C2F C1F 1_555 1_555
C2K C1F 1_555 1_555
C2G C1G 1_555 1_555
C2H C1G 1_555 1_555
C2I C1I 1_555 1_555
C2J C1I 1_555 1_555
C3F C2F 1_555 1_555
H1F C2F 1_555 1_555
C3K C2K 1_555 1_555
H1K C2K 1_555 1_555
C3G C2G 1_555 1_555
H1G C2G 1_555 1_555
C3H C2H 1_555 1_555
H1H C2H 1_555 1_555
C3I C2I 1_555 1_555
H1I C2I 1_555 1_555
C3J C2J 1_555 1_555
H1J C2J 1_555 1_555
C4F C3F 1_555 1_555
H2F C3F 1_555 1_555
H2K C3K 1_555 1_555
C4G C3G 1_555 1_555
H2G C3G 1_555 1_555
H2H C3H 1_555 1_555
C4I C3I 1_555 1_555
H2I C3I 1_555 1_555
H2J C3J 1_555 1_555
H3F C4F 1_555 1_555
H3G C4G 1_555 1_555
H3I C4I 1_555 1_555
C2E C3E 1_555 1_555
C3B C4A 1_555 1_555
C3D C4C 1_555 1_555
C3K C4F 1_555 1_555
C3H C4G 1_555 1_555
C3J C4I 1_555 1_555

#END
