
#######################################################################
#
#                 Cambridge Crystallographic Data Centre
#                                CCDC 
#
#######################################################################
#
# If this CIF has been generated from an entry in the Cambridge 
# Structural Database, then it will include bibliographic, chemical, 
# crystal, experimental, refinement or atomic coordinate data resulting 
# from the CCDC's data processing and validation procedures.
#
#######################################################################

data_JORWES
_symmetry_cell_setting           monoclinic
_symmetry_space_group_name_H-M   'P 21/n'
_symmetry_Int_Tables_number      14
_space_group_name_Hall           '-P 2yn'
loop_
_symmetry_equiv_pos_site_id
_symmetry_equiv_pos_as_xyz
1 x,y,z
2 1/2-x,1/2+y,1/2-z
3 -x,-y,-z
4 1/2+x,1/2-y,1/2+z
_cell_length_a                   14.732(2)
_cell_length_b                   10.266(3)
_cell_length_c                   16.385(3)
_cell_angle_alpha                90
_cell_angle_beta                 101.45(1)
_cell_angle_gamma                90
_cell_volume                     2428.73
loop_
_atom_site_label
_atom_site_type_symbol
_atom_site_fract_x
_atom_site_fract_y
_atom_site_fract_z
Sn1 Sn 0.26587(7) 0.3241(1) 0.21342(7)
O1 O 0.2884(6) 0.178(1) 0.1240(5)
O2 O 0.2387(7) 0.5048(9) 0.3025(6)
O3 O 0.3212(6) 0.0358(9) -0.0014(6)
C1 C 0.2803(9) 0.053(1) 0.1344(9)
C2 C 0.118(1) 0.277(2) 0.203(1)
C3 C 0.056(1) 0.360(2) 0.142(1)
C4 C -0.044(1) 0.312(2) 0.133(1)
C5 C -0.104(1) 0.403(3) 0.077(2)
C6 C 0.379(1) 0.255(1) 0.311(1)
C7 C 0.442(1) 0.355(2) 0.352(1)
C8 C 0.529(1) 0.292(2) 0.401(1)
C9 C 0.589(2) 0.382(3) 0.444(2)
C10 C 0.294(1) 0.478(1) 0.132(1)
C11 C 0.354(2) 0.442(2) 0.068(1)
C12 C 0.459(2) 0.419(3) 0.111(2)
C13 C 0.526(3) 0.527(3) 0.140(2)
C14 C 0.2995(9) -0.026(1) 0.0655(8)
C15 C 0.299(1) -0.156(1) 0.054(1)
C16 C 0.322(1) -0.174(2) -0.026(1)
C17 C 0.334(1) -0.058(2) -0.058(1)
C18 C 0.357(1) -0.009(2) -0.1379(9)
C19 C 0.361(2) -0.127(3) -0.194(1)
C20 C 0.285(2) 0.074(3) -0.183(1)
C21 C 0.445(2) 0.052(4) -0.123(1)
C1A C 0.2197(9) 0.553(1) 0.3656(9)
O2A O 0.2613(7) 0.0048(9) 0.1975(6)
O1A O 0.2116(6) 0.678(1) 0.3760(5)
C14A C 0.2005(9) 0.474(1) 0.4345(8)
Sn1A Sn 0.23413(7) -0.1759(1) 0.28658(7)
Sn1A_2 Sn 0.23413(7) 0.8241(1) 0.28658(7)
O3A O 0.1788(6) 0.5358(9) 0.5014(6)
C15A C 0.201(1) 0.344(1) 0.446(1)
O1A_2 O 0.2116(6) -0.322(1) 0.3760(5)
C2A C 0.382(1) -0.223(2) 0.297(1)
C6A C 0.121(1) -0.245(1) 0.189(1)
C10A C 0.206(1) -0.022(1) 0.368(1)
C17A C 0.166(1) 0.442(2) 0.558(1)
C16A C 0.178(1) 0.326(2) 0.526(1)
C3A C 0.444(1) -0.140(2) 0.358(1)
C7A C 0.058(1) -0.145(2) 0.148(1)
C11A C 0.146(2) -0.058(2) 0.432(1)
C18A C 0.143(1) 0.491(2) 0.6379(9)
C4A C 0.544(1) -0.188(2) 0.367(1)
C8A C -0.029(1) -0.208(2) 0.099(1)
C12A C 0.041(2) -0.081(3) 0.389(2)
C19A C 0.139(2) 0.373(3) 0.694(1)
C20A C 0.215(2) 0.574(3) 0.683(1)
C21A C 0.055(2) 0.552(4) 0.623(1)
C5A C 0.604(1) -0.097(3) 0.423(2)
C9A C -0.089(2) -0.118(3) 0.056(2)
C13A C -0.026(3) 0.027(3) 0.360(2)
loop_
_geom_bond_atom_site_label_1
_geom_bond_atom_site_label_2
_geom_bond_site_symmetry_1
_geom_bond_site_symmetry_2
Sn1 O1 1_555 1_555
O1 C1 1_555 1_555
O2 Sn1 1_555 1_555
O3 C14 1_555 1_555
C1 C14 1_555 1_555
C2 Sn1 1_555 1_555
C3 C2 1_555 1_555
C4 C3 1_555 1_555
C5 C4 1_555 1_555
C6 Sn1 1_555 1_555
C7 C6 1_555 1_555
C8 C7 1_555 1_555
C9 C8 1_555 1_555
C10 Sn1 1_555 1_555
C11 C10 1_555 1_555
C12 C11 1_555 1_555
C13 C12 1_555 1_555
C14 C15 1_555 1_555
C15 C16 1_555 1_555
C16 C17 1_555 1_555
C17 O3 1_555 1_555
C18 C17 1_555 1_555
C19 C18 1_555 1_555
C20 C18 1_555 1_555
C21 C18 1_555 1_555
C1A O2 1_555 1_555
O2A C1 1_555 1_555
O1A C1A 1_555 1_555
C14A C1A 1_555 1_555
Sn1A O2A 1_555 1_555
Sn1A_2 O1A 1_555 1_555
O3A C14A 1_555 1_555
C15A C14A 1_555 1_555
O1A_2 Sn1A 1_555 1_555
C2A Sn1A 1_555 1_555
C6A Sn1A 1_555 1_555
C10A Sn1A 1_555 1_555
C17A O3A 1_555 1_555
C16A C15A 1_555 1_555
C3A C2A 1_555 1_555
C7A C6A 1_555 1_555
C11A C10A 1_555 1_555
C18A C17A 1_555 1_555
C4A C3A 1_555 1_555
C8A C7A 1_555 1_555
C12A C11A 1_555 1_555
C19A C18A 1_555 1_555
C20A C18A 1_555 1_555
C21A C18A 1_555 1_555
C5A C4A 1_555 1_555
C9A C8A 1_555 1_555
C13A C12A 1_555 1_555
C17A C16A 1_555 1_555

#END
