
#######################################################################
#
#                 Cambridge Crystallographic Data Centre
#                                CCDC 
#
#######################################################################
#
# If this CIF has been generated from an entry in the Cambridge 
# Structural Database, then it will include bibliographic, chemical, 
# crystal, experimental, refinement or atomic coordinate data resulting 
# from the CCDC's data processing and validation procedures.
#
#######################################################################

data_JORYUM
_symmetry_cell_setting           monoclinic
_symmetry_space_group_name_H-M   'C 2/c'
_symmetry_Int_Tables_number      15
_space_group_name_Hall           '-C 2yn'
loop_
_symmetry_equiv_pos_site_id
_symmetry_equiv_pos_as_xyz
1 x,y,z
2 -x,y,1/2-z
3 1/2+x,1/2+y,z
4 1/2-x,1/2+y,1/2-z
5 -x,-y,-z
6 x,-y,1/2+z
7 1/2-x,1/2-y,-z
8 1/2+x,1/2-y,1/2+z
_cell_length_a                   30.817(6)
_cell_length_b                   10.354(2)
_cell_length_c                   34.565(7)
_cell_angle_alpha                90
_cell_angle_beta                 98.748(4)
_cell_angle_gamma                90
_cell_volume                     10900.7
loop_
_atom_site_label
_atom_site_type_symbol
_atom_site_fract_x
_atom_site_fract_y
_atom_site_fract_z
Ag1 Ag 0.381564(16) -0.06466(4) 0.830454(14)
Ag2 Ag 0.314127(16) 0.68571(4) 0.646498(14)
C1 C 0.2662(2) -0.1629(6) 0.8185(2)
H1 H 0.2578 -0.1002 0.8373
H2 H 0.2401 -0.2102 0.8063
H3 H 0.2792 -0.1173 0.7982
C2 C 0.2990(2) -0.2559(5) 0.83927(17)
C3 C 0.29159(18) -0.3792(5) 0.85397(18)
C4 C 0.33249(19) -0.4243(5) 0.87073(17)
C5 C 0.3467(2) -0.5461(6) 0.8931(2)
H4 H 0.3610 -0.6041 0.8765
H5 H 0.3210 -0.5892 0.9007
H6 H 0.3674 -0.5242 0.9166
C6 C 0.2667(2) -0.6573(6) 0.81238(19)
H7 H 0.2561 -0.7466 0.8124
H8 H 0.2975 -0.6540 0.8246
H9 H 0.2641 -0.6261 0.7854
C7 C 0.23963(19) -0.5737(6) 0.83492(18)
C8 C 0.25008(18) -0.4508(5) 0.85222(17)
C9 C 0.2131(2) -0.4133(5) 0.86733(18)
C10 C 0.2040(2) -0.2953(5) 0.88992(18)
H10 H 0.1904 -0.2290 0.8718
H11 H 0.2315 -0.2623 0.9044
H12 H 0.1839 -0.3177 0.9084
C11 C 0.3232(2) 0.1053(6) 0.74578(19)
H13 H 0.3223 0.0162 0.7551
H14 H 0.3298 0.1054 0.7189
H15 H 0.2947 0.1466 0.7463
C12 C 0.35822(19) 0.1786(5) 0.77179(17)
C13 C 0.3771(2) 0.2973(5) 0.76523(17)
C14 C 0.4067(2) 0.3215(6) 0.79868(18)
C15 C 0.4365(2) 0.4331(6) 0.8101(2)
H16 H 0.4473 0.4291 0.8382
H17 H 0.4203 0.5139 0.8040
H18 H 0.4614 0.4296 0.7955
C16 C 0.3286(2) 0.5799(6) 0.75036(19)
H19 H 0.3456 0.6597 0.7553
H20 H 0.3283 0.5338 0.7751
H21 H 0.2984 0.6010 0.7387
C17 C 0.3491(2) 0.4959(5) 0.72263(17)
C18 C 0.3703(2) 0.3757(6) 0.72901(17)
C19 C 0.38355(19) 0.3443(5) 0.69383(18)
C20 C 0.4095(2) 0.2322(6) 0.68185(19)
H22 H 0.3909 0.1549 0.6788
H23 H 0.4350 0.2166 0.7020
H24 H 0.4196 0.2520 0.6569
C21 C 0.1942(2) 0.6043(6) 0.59878(19)
H25 H 0.1806 0.5299 0.6098
H26 H 0.1722 0.6485 0.5799
H27 H 0.2056 0.6641 0.6199
C22 C 0.2310(2) 0.5590(5) 0.57859(18)
C23 C 0.22843(19) 0.5001(5) 0.54208(17)
C24 C 0.2718(2) 0.4743(5) 0.53701(17)
C25 C 0.2912(2) 0.4129(6) 0.50486(18)
H28 H 0.3054 0.4790 0.4908
H29 H 0.2680 0.3704 0.4868
H30 H 0.3130 0.3487 0.5158
C26 C 0.1490(2) 0.3018(6) 0.55005(18)
H31 H 0.1323 0.3501 0.5672
H32 H 0.1777 0.2783 0.5646
H33 H 0.1329 0.2233 0.5409
C27 C 0.1551(2) 0.3837(6) 0.51576(18)
C28 C 0.18932(19) 0.4725(5) 0.51216(17)
C29 C 0.17925(19) 0.5266(6) 0.47569(18)
C30 C 0.2027(2) 0.6261(6) 0.45541(18)
H34 H 0.2239 0.5837 0.4412
H35 H 0.2181 0.6858 0.4748
H36 H 0.1814 0.6742 0.4369
C31 C 0.4210(2) -0.1000(7) 0.7380(2)
H37 H 0.3982 -0.1563 0.7243
H38 H 0.4393 -0.0669 0.7194
H39 H 0.4073 -0.0275 0.7498
C32 C 0.4488(2) -0.1748(6) 0.76937(19)
C33 C 0.4882(2) -0.2419(5) 0.76677(16)
C34 C 0.50064(19) -0.2962(5) 0.80321(17)
C35 C 0.5388(2) -0.3795(6) 0.81778(18)
H40 H 0.5646 -0.3253 0.8261
H41 H 0.5447 -0.4376 0.7968
H42 H 0.5322 -0.4305 0.8401
C36 C 0.3988(2) 0.6197(6) 0.59393(17)
C37 C 0.43607(19) 0.6647(6) 0.57315(17)
H43 H 0.4564 0.5921 0.5707
H44 H 0.4528 0.7343 0.5884
C38 C 0.4169(2) 0.7146(6) 0.53255(17)
H45 H 0.3902 0.7654 0.5346
H46 H 0.4081 0.6399 0.5153
C39 C 0.44864(19) 0.7988(6) 0.51363(17)
H47 H 0.4561 0.8765 0.5300
H48 H 0.4761 0.7500 0.5129
C40 C 0.4301(2) 0.8406(6) 0.47279(18)
H49 H 0.4022 0.8872 0.4735
H50 H 0.4234 0.7629 0.4562
C41 C 0.4612(2) 0.9281(6) 0.45412(17)
H51 H 0.4610 1.0159 0.4654
H52 H 0.4915 0.8940 0.4601
C42 C 0.4478(2) 0.9352(7) 0.41051(18)
N1 N 0.34129(16) -0.2263(4) 0.84619(14)
N2 N 0.36165(16) -0.3300(4) 0.86553(14)
H53 H 0.3901 -0.3350 0.8736
N3 N 0.19930(16) -0.6092(5) 0.84032(15)
N4 N 0.18349(16) -0.5101(4) 0.85971(14)
H54 H 0.1571 -0.5088 0.8665
N5 N 0.37485(15) 0.1314(4) 0.80670(14)
N6 N 0.40439(17) 0.2219(4) 0.82298(15)
H55 H 0.4199 0.2156 0.8465
N7 N 0.34918(16) 0.5358(4) 0.68589(14)
N8 N 0.37045(15) 0.4412(4) 0.66875(13)
H56 H 0.3751 0.4432 0.6443
N9 N 0.27265(16) 0.5694(4) 0.59619(15)
N10 N 0.29637(16) 0.5169(4) 0.57013(15)
H57 H 0.3252 0.5112 0.5745
N11 N 0.12591(16) 0.3826(4) 0.48313(14)
N12 N 0.14110(16) 0.4687(5) 0.45890(15)
H58 H 0.1279 0.4854 0.4350
N13 N 0.43776(16) -0.1864(5) 0.80505(15)
N14 N 0.47017(15) -0.2602(4) 0.82547(14)
H59 H 0.4711 -0.2818 0.8502
O1 O 0.37929(12) 0.7040(4) 0.61112(12)
O2 O 0.38853(13) 0.5006(4) 0.59197(12)
O3 O 0.42800(15) 1.0328(4) 0.39571(13)
O4 O 0.45770(15) 0.8404(4) 0.39014(13)
C31A C 0.5790(2) -0.1000(7) 0.7620(2)
H37A H 0.6018 -0.1563 0.7757
H38A H 0.5607 -0.0669 0.7806
H39A H 0.5927 -0.0275 0.7502
C32A C 0.5512(2) -0.1748(6) 0.73063(19)
C33A C 0.5118(2) -0.2419(5) 0.73323(16)
C34A C 0.49936(19) -0.2962(5) 0.69679(17)
C35A C 0.4612(2) -0.3795(6) 0.68222(18)
H40A H 0.4354 -0.3253 0.6739
H41A H 0.4553 -0.4376 0.7032
H42A H 0.4678 -0.4305 0.6599
N13A N 0.56224(16) -0.1864(5) 0.69495(15)
N14A N 0.52983(15) -0.2602(4) 0.67453(14)
H59A H 0.5289 -0.2818 0.6498
Ag1A Ag 0.618436(16) -0.06466(4) 0.669546(14)
Ag2A Ag 0.685873(16) 0.68571(4) 0.853502(14)
C1A C 0.7338(2) -0.1629(6) 0.6815(2)
H1A H 0.7422 -0.1002 0.6627
H2A H 0.7599 -0.2102 0.6937
H3A H 0.7208 -0.1173 0.7018
C2A C 0.7010(2) -0.2559(5) 0.66073(17)
C3A C 0.70841(18) -0.3792(5) 0.64603(18)
C4A C 0.66751(19) -0.4243(5) 0.62927(17)
C5A C 0.6533(2) -0.5461(6) 0.6069(2)
H4A H 0.6390 -0.6041 0.6235
H5A H 0.6790 -0.5892 0.5993
H6A H 0.6326 -0.5242 0.5834
C6A C 0.7333(2) -0.6573(6) 0.68762(19)
H7A H 0.7439 -0.7466 0.6876
H8A H 0.7025 -0.6540 0.6754
H9A H 0.7359 -0.6261 0.7146
C7A C 0.76037(19) -0.5737(6) 0.66508(18)
C8A C 0.74992(18) -0.4508(5) 0.64778(17)
C9A C 0.7869(2) -0.4133(5) 0.63267(18)
C10A C 0.7960(2) -0.2953(5) 0.61008(18)
H10A H 0.8096 -0.2290 0.6282
H11A H 0.7685 -0.2623 0.5956
H12A H 0.8161 -0.3177 0.5916
C11A C 0.6768(2) 0.1053(6) 0.75422(19)
H13A H 0.6777 0.0162 0.7449
H14A H 0.6702 0.1054 0.7811
H15A H 0.7053 0.1466 0.7537
C12A C 0.64178(19) 0.1786(5) 0.72821(17)
C13A C 0.6229(2) 0.2973(5) 0.73477(17)
C14A C 0.5933(2) 0.3215(6) 0.70132(18)
C15A C 0.5635(2) 0.4331(6) 0.6899(2)
H16A H 0.5527 0.4291 0.6618
H17A H 0.5797 0.5139 0.6960
H18A H 0.5386 0.4296 0.7045
C16A C 0.6714(2) 0.5799(6) 0.74964(19)
H19A H 0.6544 0.6597 0.7447
H20A H 0.6717 0.5338 0.7249
H21A H 0.7016 0.6010 0.7613
C17A C 0.6509(2) 0.4959(5) 0.77737(17)
C18A C 0.6297(2) 0.3757(6) 0.77099(17)
C19A C 0.61645(19) 0.3443(5) 0.80617(18)
C20A C 0.5905(2) 0.2322(6) 0.81815(19)
H22A H 0.6091 0.1549 0.8212
H23A H 0.5650 0.2166 0.7980
H24A H 0.5804 0.2520 0.8431
C21A C 0.8058(2) 0.6043(6) 0.90122(19)
H25A H 0.8194 0.5299 0.8902
H26A H 0.8278 0.6485 0.9201
H27A H 0.7944 0.6641 0.8801
C22A C 0.7690(2) 0.5590(5) 0.92141(18)
C23A C 0.77157(19) 0.5001(5) 0.95792(17)
C24A C 0.7282(2) 0.4743(5) 0.96299(17)
C25A C 0.7088(2) 0.4129(6) 0.99514(18)
H28A H 0.6946 0.4790 1.0092
H29A H 0.7320 0.3704 1.0132
H30A H 0.6870 0.3487 0.9842
C26A C 0.8510(2) 0.3018(6) 0.94995(18)
H31A H 0.8677 0.3501 0.9328
H32A H 0.8223 0.2783 0.9354
H33A H 0.8671 0.2233 0.9591
C27A C 0.8449(2) 0.3837(6) 0.98424(18)
C28A C 0.81068(19) 0.4725(5) 0.98784(17)
C29A C 0.82075(19) 0.5266(6) 1.02431(18)
C30A C 0.7973(2) 0.6261(6) 1.04459(18)
H34A H 0.7761 0.5837 1.0588
H35A H 0.7819 0.6858 1.0252
H36A H 0.8186 0.6742 1.0631
C36A C 0.6012(2) 0.6197(6) 0.90607(17)
C37A C 0.56393(19) 0.6647(6) 0.92685(17)
H43A H 0.5436 0.5921 0.9293
H44A H 0.5472 0.7343 0.9116
C38A C 0.5831(2) 0.7146(6) 0.96745(17)
H45A H 0.6098 0.7654 0.9654
H46A H 0.5919 0.6399 0.9847
C39A C 0.55136(19) 0.7988(6) 0.98637(17)
H47A H 0.5439 0.8765 0.9700
H48A H 0.5239 0.7500 0.9871
C40A C 0.5699(2) 0.8406(6) 1.02721(18)
H49A H 0.5978 0.8872 1.0265
H50A H 0.5766 0.7629 1.0438
C41A C 0.5388(2) 0.9281(6) 1.04588(17)
H51A H 0.5390 1.0159 1.0346
H52A H 0.5085 0.8940 1.0399
C42A C 0.5522(2) 0.9352(7) 1.08949(18)
N1A N 0.65871(16) -0.2263(4) 0.65381(14)
N2A N 0.63835(16) -0.3300(4) 0.63447(14)
H53A H 0.6099 -0.3350 0.6264
N3A N 0.80070(16) -0.6092(5) 0.65968(15)
N4A N 0.81651(16) -0.5101(4) 0.64029(14)
H54A H 0.8429 -0.5088 0.6335
N5A N 0.62515(15) 0.1314(4) 0.69330(14)
N6A N 0.59561(17) 0.2219(4) 0.67702(15)
H55A H 0.5801 0.2156 0.6535
N7A N 0.65082(16) 0.5358(4) 0.81411(14)
N8A N 0.62955(15) 0.4412(4) 0.83125(13)
H56A H 0.6249 0.4432 0.8557
N9A N 0.72735(16) 0.5694(4) 0.90381(15)
N10A N 0.70363(16) 0.5169(4) 0.92987(15)
H57A H 0.6748 0.5112 0.9255
N11A N 0.87409(16) 0.3826(4) 1.01687(14)
N12A N 0.85890(16) 0.4687(5) 1.04110(15)
H58A H 0.8721 0.4854 1.0650
O1A O 0.62071(12) 0.7040(4) 0.88888(12)
O2A O 0.61147(13) 0.5006(4) 0.90803(12)
O3A O 0.57200(15) 1.0328(4) 1.10429(13)
O4A O 0.54230(15) 0.8404(4) 1.10986(13)
Ag1D Ag 0.618436(16) 1.06466(4) 1.169546(14)
Ag1E Ag 0.381564(16) 1.06466(4) 0.330454(14)
Ag2B Ag 0.814127(16) -0.81429(4) 0.646498(14)
Ag2C Ag 0.185873(16) -0.81429(4) 0.853502(14)
N3B N 0.69930(16) 0.8908(5) 0.84032(15)
N3C N 0.30070(16) 0.8908(5) 0.65968(15)
O3D O 0.57200(15) -0.0328(4) 0.60429(13)
O3E O 0.42800(15) -0.0328(4) 0.89571(13)
O5 O 0.42302(14) 0.3518(4) 0.53576(13)
H60 H 0.4120 0.3950 0.5528
H61 H 0.4081 0.2831 0.5309
O6 O 0.49003(15) 0.6155(4) 0.42931(15)
H62 H 0.5166 0.6272 0.4397
H63 H 0.4807 0.6846 0.4176
O7 O 0.44103(16) 0.4386(4) 0.46090(14)
H64 H 0.4406 0.4292 0.4853
H65 H 0.4586 0.4994 0.4576
O8 O 0.55181(12) 0.7169(4) 0.59964(11)
H66 H 0.5593 0.7953 0.5977
H67 H 0.5554 0.6774 0.5788
O9 O 0.39937(12) 0.9548(4) 0.61752(11)
H68 H 0.3942 0.8742 0.6176
H69 H 0.4252 0.9739 0.6284
O10 O 0.48326(14) 1.0267(4) 0.65453(13)
H70 H 0.4996 1.0778 0.6440
H71 H 0.4974 0.9559 0.6572
loop_
_geom_bond_atom_site_label_1
_geom_bond_atom_site_label_2
_geom_bond_site_symmetry_1
_geom_bond_site_symmetry_2
Ag1 N1 1_555 1_555
Ag2 N7 1_555 1_555
C1 H1 1_555 1_555
H2 C1 1_555 1_555
H3 C1 1_555 1_555
C2 C1 1_555 1_555
C3 C2 1_555 1_555
C4 C3 1_555 1_555
C5 C4 1_555 1_555
H4 C5 1_555 1_555
H5 C5 1_555 1_555
H6 C5 1_555 1_555
C6 H7 1_555 1_555
H8 C6 1_555 1_555
H9 C6 1_555 1_555
C7 C6 1_555 1_555
C8 C3 1_555 1_555
C9 C8 1_555 1_555
C10 C9 1_555 1_555
H10 C10 1_555 1_555
H11 C10 1_555 1_555
H12 C10 1_555 1_555
C11 H13 1_555 1_555
H14 C11 1_555 1_555
H15 C11 1_555 1_555
C12 C11 1_555 1_555
C13 C12 1_555 1_555
C14 C13 1_555 1_555
C15 C14 1_555 1_555
H16 C15 1_555 1_555
H17 C15 1_555 1_555
H18 C15 1_555 1_555
C16 H19 1_555 1_555
H20 C16 1_555 1_555
H21 C16 1_555 1_555
C17 C16 1_555 1_555
C18 C13 1_555 1_555
C19 C18 1_555 1_555
C20 C19 1_555 1_555
H22 C20 1_555 1_555
H23 C20 1_555 1_555
H24 C20 1_555 1_555
C21 H25 1_555 1_555
H26 C21 1_555 1_555
H27 C21 1_555 1_555
C22 C21 1_555 1_555
C23 C22 1_555 1_555
C24 C23 1_555 1_555
C25 C24 1_555 1_555
H28 C25 1_555 1_555
H29 C25 1_555 1_555
H30 C25 1_555 1_555
C26 H31 1_555 1_555
H32 C26 1_555 1_555
H33 C26 1_555 1_555
C27 C26 1_555 1_555
C28 C23 1_555 1_555
C29 C28 1_555 1_555
C30 C29 1_555 1_555
H34 C30 1_555 1_555
H35 C30 1_555 1_555
H36 C30 1_555 1_555
C31 H37 1_555 1_555
H38 C31 1_555 1_555
H39 C31 1_555 1_555
C32 C31 1_555 1_555
C33 C32 1_555 1_555
C34 C33 1_555 1_555
C35 C34 1_555 1_555
H40 C35 1_555 1_555
H41 C35 1_555 1_555
H42 C35 1_555 1_555
C36 C37 1_555 1_555
C37 H43 1_555 1_555
H44 C37 1_555 1_555
C38 C37 1_555 1_555
H45 C38 1_555 1_555
H46 C38 1_555 1_555
C39 C38 1_555 1_555
H47 C39 1_555 1_555
H48 C39 1_555 1_555
C40 C39 1_555 1_555
H49 C40 1_555 1_555
H50 C40 1_555 1_555
C41 C40 1_555 1_555
H51 C41 1_555 1_555
H52 C41 1_555 1_555
C42 C41 1_555 1_555
N1 C2 1_555 1_555
N2 C4 1_555 1_555
H53 N2 1_555 1_555
N3 C7 1_555 1_555
N4 C9 1_555 1_555
H54 N4 1_555 1_555
N5 Ag1 1_555 1_555
N6 C14 1_555 1_555
H55 N6 1_555 1_555
N7 C17 1_555 1_555
N8 C19 1_555 1_555
H56 N8 1_555 1_555
N9 Ag2 1_555 1_555
N10 C24 1_555 1_555
H57 N10 1_555 1_555
N11 C27 1_555 1_555
N12 C29 1_555 1_555
H58 N12 1_555 1_555
N13 Ag1 1_555 1_555
N14 C34 1_555 1_555
H59 N14 1_555 1_555
O1 Ag2 1_555 1_555
O2 C36 1_555 1_555
O3 C42 1_555 1_555
O4 C42 1_555 1_555
O5 H60 1_555 1_555
H61 O5 1_555 1_555
O6 H62 1_555 1_555
H63 O6 1_555 1_555
O7 H64 1_555 1_555
H65 O7 1_555 1_555
O8 H66 1_555 1_555
H67 O8 1_555 1_555
O9 H68 1_555 1_555
H69 O9 1_555 1_555
O10 H70 1_555 1_555
H71 O10 1_555 1_555
C31A H37A 1_555 1_555
H38A C31A 1_555 1_555
H39A C31A 1_555 1_555
C32A C31A 1_555 1_555
C33A C33 1_555 1_555
C34A C33A 1_555 1_555
C35A C34A 1_555 1_555
H40A C35A 1_555 1_555
H41A C35A 1_555 1_555
H42A C35A 1_555 1_555
N13A C32A 1_555 1_555
N14A C34A 1_555 1_555
H59A N14A 1_555 1_555
Ag1A N13A 1_555 1_555
Ag2A N7A 1_555 1_555
C1A H1A 1_555 1_555
H2A C1A 1_555 1_555
H3A C1A 1_555 1_555
C2A C1A 1_555 1_555
C3A C2A 1_555 1_555
C4A C3A 1_555 1_555
C5A C4A 1_555 1_555
H4A C5A 1_555 1_555
H5A C5A 1_555 1_555
H6A C5A 1_555 1_555
C6A H7A 1_555 1_555
H8A C6A 1_555 1_555
H9A C6A 1_555 1_555
C7A C6A 1_555 1_555
C8A C3A 1_555 1_555
C9A C8A 1_555 1_555
C10A C9A 1_555 1_555
H10A C10A 1_555 1_555
H11A C10A 1_555 1_555
H12A C10A 1_555 1_555
C11A H13A 1_555 1_555
H14A C11A 1_555 1_555
H15A C11A 1_555 1_555
C12A C11A 1_555 1_555
C13A C12A 1_555 1_555
C14A C13A 1_555 1_555
C15A C14A 1_555 1_555
H16A C15A 1_555 1_555
H17A C15A 1_555 1_555
H18A C15A 1_555 1_555
C16A H19A 1_555 1_555
H20A C16A 1_555 1_555
H21A C16A 1_555 1_555
C17A C16A 1_555 1_555
C18A C13A 1_555 1_555
C19A C18A 1_555 1_555
C20A C19A 1_555 1_555
H22A C20A 1_555 1_555
H23A C20A 1_555 1_555
H24A C20A 1_555 1_555
C21A H25A 1_555 1_555
H26A C21A 1_555 1_555
H27A C21A 1_555 1_555
C22A C21A 1_555 1_555
C23A C22A 1_555 1_555
C24A C23A 1_555 1_555
C25A C24A 1_555 1_555
H28A C25A 1_555 1_555
H29A C25A 1_555 1_555
H30A C25A 1_555 1_555
C26A H31A 1_555 1_555
H32A C26A 1_555 1_555
H33A C26A 1_555 1_555
C27A C26A 1_555 1_555
C28A C23A 1_555 1_555
C29A C28A 1_555 1_555
C30A C29A 1_555 1_555
H34A C30A 1_555 1_555
H35A C30A 1_555 1_555
H36A C30A 1_555 1_555
C36A C37A 1_555 1_555
C37A H43A 1_555 1_555
H44A C37A 1_555 1_555
C38A C37A 1_555 1_555
H45A C38A 1_555 1_555
H46A C38A 1_555 1_555
C39A C38A 1_555 1_555
H47A C39A 1_555 1_555
H48A C39A 1_555 1_555
C40A C39A 1_555 1_555
H49A C40A 1_555 1_555
H50A C40A 1_555 1_555
C41A C40A 1_555 1_555
H51A C41A 1_555 1_555
H52A C41A 1_555 1_555
C42A C41A 1_555 1_555
N1A Ag1A 1_555 1_555
N2A C4A 1_555 1_555
H53A N2A 1_555 1_555
N3A C7A 1_555 1_555
N4A C9A 1_555 1_555
H54A N4A 1_555 1_555
N5A Ag1A 1_555 1_555
N6A C14A 1_555 1_555
H55A N6A 1_555 1_555
N7A C17A 1_555 1_555
N8A C19A 1_555 1_555
H56A N8A 1_555 1_555
N9A Ag2A 1_555 1_555
N10A C24A 1_555 1_555
H57A N10A 1_555 1_555
N11A C27A 1_555 1_555
N12A C29A 1_555 1_555
H58A N12A 1_555 1_555
O1A Ag2A 1_555 1_555
O2A C36A 1_555 1_555
O3A C42A 1_555 1_555
O4A C42A 1_555 1_555
Ag1D O3A 1_555 1_555
Ag1E O3 1_555 1_555
Ag2B N3A 1_555 1_555
Ag2C N3 1_555 1_555
N3B Ag2A 1_555 1_555
N3C Ag2 1_555 1_555
O3D Ag1A 1_555 1_555
O3E Ag1 1_555 1_555
C7 C8 1_555 1_555
C12 N5 1_555 1_555
C17 C18 1_555 1_555
C22 N9 1_555 1_555
C27 C28 1_555 1_555
C32 N13 1_555 1_555
C36 O1 1_555 1_555
N1 N2 1_555 1_555
N3 N4 1_555 1_555
N5 N6 1_555 1_555
N7 N8 1_555 1_555
N9 N10 1_555 1_555
N11 N12 1_555 1_555
N13 N14 1_555 1_555
C32A C33A 1_555 1_555
N13A N14A 1_555 1_555
C2A N1A 1_555 1_555
C7A C8A 1_555 1_555
C12A N5A 1_555 1_555
C17A C18A 1_555 1_555
C22A N9A 1_555 1_555
C27A C28A 1_555 1_555
C36A O1A 1_555 1_555
N1A N2A 1_555 1_555
N3A N4A 1_555 1_555
N5A N6A 1_555 1_555
N7A N8A 1_555 1_555
N9A N10A 1_555 1_555
N11A N12A 1_555 1_555

#END
