
#######################################################################
#
#                 Cambridge Crystallographic Data Centre
#                                CCDC 
#
#######################################################################
#
# If this CIF has been generated from an entry in the Cambridge 
# Structural Database, then it will include bibliographic, chemical, 
# crystal, experimental, refinement or atomic coordinate data resulting 
# from the CCDC's data processing and validation procedures.
#
#######################################################################

data_JORYOE
_symmetry_cell_setting           monoclinic
_symmetry_space_group_name_H-M   'P 21/c'
_symmetry_Int_Tables_number      14
_space_group_name_Hall           '-P 2ybc'
loop_
_symmetry_equiv_pos_site_id
_symmetry_equiv_pos_as_xyz
1 x,y,z
2 -x,1/2+y,1/2-z
3 -x,-y,-z
4 x,1/2-y,1/2+z
_cell_length_a                   11.449(2)
_cell_length_b                   9.079(1)
_cell_length_c                   13.130(3)
_cell_angle_alpha                90
_cell_angle_beta                 113.93(2)
_cell_angle_gamma                90
_cell_volume                     1247.49
loop_
_atom_site_label
_atom_site_type_symbol
_atom_site_fract_x
_atom_site_fract_y
_atom_site_fract_z
Cu1 Cu 0.29243(4) -1.72475(5) 0.57369(4)
S1 S -0.27063(8) -1.4828(1) 0.17657(7)
N1 N 0.1050(3) -1.7154(3) 0.5138(2)
C1 C 0.0252(4) -1.7898(4) 0.5431(3)
C2 C -0.1071(4) -1.7775(5) 0.4839(3)
C3 C -0.1566(3) -1.6884(4) 0.3927(3)
C4 C -0.1089(3) -1.5136(4) 0.2643(3)
C5 C -0.0153(4) -1.4421(4) 0.2425(3)
C6 C 0.1140(4) -1.4560(4) 0.3099(3)
C7 C 0.1548(3) -1.5456(4) 0.4025(3)
C8 C 0.0584(3) -1.6231(4) 0.4239(3)
C9 C -0.0728(3) -1.6081(4) 0.3583(3)
O1 O 0.2742(2) -1.5635(3) 0.4719(2)
O2 O -0.3275(3) -1.6268(3) 0.1363(2)
O3 O -0.2722(3) -1.3926(3) 0.0860(2)
O4 O -0.3292(3) -1.4134(4) 0.2440(2)
O5 O 0.4769(2) -1.7047(3) 0.6332(2)
O6 O 0.3013(3) -1.9089(3) 0.6544(2)
H1 H 0.0710 -1.8544 0.6122
H2 H -0.1610 -1.8301 0.5108
H3 H -0.2508 -1.6846 0.3432
H4 H -0.0514 -1.3772 0.1718
H5 H 0.1665 -1.4021 0.2935
H6 H 0.4958 -1.6225 0.6301
H7 H 0.5354 -1.7810 0.6437
H8 H 0.3485 -1.9126 0.7238
H9 H 0.3237 -1.9657 0.6342
Cu1A Cu -0.29243(4) -1.22475(5) -0.07369(4)
O3A O 0.2722(3) -1.8926(3) 0.4140(2)
O4B O 0.3292(3) -1.5866(4) 0.7560(2)
Cu1B Cu -0.29243(4) -1.27525(5) 0.42631(4)
O7 O 0.5620(3) 0.9322(3) 0.1276(2)
H10 H 0.5017 0.8740 0.1010
H11 H 0.6026 0.9286 0.0935
O8 O 0.4147(3) 0.6553(3) 0.0998(2)
H12 H 0.4971 0.6353 0.1449
H13 H 0.4094 0.6377 0.0404
loop_
_geom_bond_atom_site_label_1
_geom_bond_atom_site_label_2
_geom_bond_site_symmetry_1
_geom_bond_site_symmetry_2
Cu1 N1 1_555 1_555
S1 C4 1_555 1_555
N1 C1 1_555 1_555
C1 C2 1_555 1_555
C2 C3 1_555 1_555
C3 C9 1_555 1_555
C4 C5 1_555 1_555
C5 C6 1_555 1_555
C6 C7 1_555 1_555
C7 C8 1_555 1_555
C8 N1 1_555 1_555
C9 C4 1_555 1_555
O1 Cu1 1_555 1_555
O2 S1 1_555 1_555
O3 S1 1_555 1_555
O4 S1 1_555 1_555
O5 Cu1 1_555 1_555
O6 Cu1 1_555 1_555
O7 H10 1_555 1_555
O8 H12 1_555 1_555
H1 C1 1_555 1_555
H2 C2 1_555 1_555
H3 C3 1_555 1_555
H4 C5 1_555 1_555
H5 C6 1_555 1_555
H6 O5 1_555 1_555
H7 O5 1_555 1_555
H8 O6 1_555 1_555
H9 O6 1_555 1_555
H11 O7 1_555 1_555
H13 O8 1_555 1_555
Cu1A O3 1_555 1_555
O3A Cu1 1_555 1_555
O4B Cu1 1_555 1_555
Cu1B O4 1_555 1_555
C7 O1 1_555 1_555
C8 C9 1_555 1_555

#END
