
#######################################################################
#
#                 Cambridge Crystallographic Data Centre
#                                CCDC 
#
#######################################################################
#
# If this CIF has been generated from an entry in the Cambridge 
# Structural Database, then it will include bibliographic, chemical, 
# crystal, experimental, refinement or atomic coordinate data resulting 
# from the CCDC's data processing and validation procedures.
#
#######################################################################

data_JORZAR
_symmetry_cell_setting           orthorhombic
_symmetry_space_group_name_H-M   'P b c a'
_symmetry_Int_Tables_number      61
_space_group_name_Hall           '-P 2ac 2ab'
loop_
_symmetry_equiv_pos_site_id
_symmetry_equiv_pos_as_xyz
1 x,y,z
2 1/2-x,1/2+y,z
3 x,1/2-y,1/2+z
4 1/2-x,-y,1/2+z
5 -x,-y,-z
6 1/2+x,1/2-y,-z
7 -x,1/2+y,1/2-z
8 1/2+x,y,1/2-z
_cell_length_a                   5.142(1)
_cell_length_b                   15.667(3)
_cell_length_c                   15.432(1)
_cell_angle_alpha                90
_cell_angle_beta                 90
_cell_angle_gamma                90
_cell_volume                     1243.2
loop_
_atom_site_label
_atom_site_type_symbol
_atom_site_fract_x
_atom_site_fract_y
_atom_site_fract_z
Fe1 Fe 0.0000 0.00000 0.00000
P1 P 0.4771(1) 0.07639(5) 0.11716(5)
O1 O 0.4361(5) 0.0632(2) 0.2186(2)
O2 O 0.2078(4) 0.0752(2) 0.0805(2)
O3 O 0.6689(4) 0.0110(2) 0.0855(2)
O4 O 0.1066(5) -0.1144(2) 0.0751(2)
O5 O 0.7655(6) 0.3571(2) 0.1431(2)
C1 C 0.6096(6) 0.1812(2) 0.1043(2)
C2 C 0.4396(7) 0.2508(2) 0.1451(2)
C3 C 0.5284(7) 0.3382(2) 0.1183(2)
H1 H 0.78(1) 0.181(4) 0.127(4)
H2 H 0.63(1) 0.194(4) 0.050(4)
H3 H 0.26(1) 0.244(4) 0.120(3)
H4 H 0.43(1) 0.245(4) 0.202(3)
H5 H 0.58(1) 0.061(3) 0.241(4)
H6 H 0.80(1) 0.417(4) 0.120(4)
O3_2 O -0.3311(4) 0.0110(2) 0.0855(2)
Fe1_2 Fe 1.0000 0.00000 0.00000
O3D O 0.3311(4) -0.0110(2) -0.0855(2)
O2D O -0.2078(4) -0.0752(2) -0.0805(2)
O4D O -0.1066(5) 0.1144(2) -0.0751(2)
Fe1A Fe 0.5000 0.50000 0.00000
C3A C -0.0284(7) -0.1618(2) 0.1183(2)
O4A O 0.3934(5) 0.3856(2) 0.0751(2)
O5A O -0.2655(6) -0.1429(2) 0.1431(2)
C2A C 0.0604(7) -0.2492(2) 0.1451(2)
H6A H -0.30(1) -0.083(4) 0.120(4)
C1A C -0.1096(6) -0.3188(2) 0.1043(2)
H3A H 0.24(1) -0.256(4) 0.120(3)
H4A H 0.07(1) -0.255(4) 0.202(3)
P1A P 0.0229(1) -0.42361(5) 0.11716(5)
H1A H -0.28(1) -0.319(4) 0.127(4)
H2A H -0.13(1) -0.306(4) 0.050(4)
Fe1A_2 Fe 0.5000 -0.50000 0.00000
O1A O 0.0639(5) -0.4368(2) 0.2186(2)
O2A O 0.2922(4) -0.4248(2) 0.0805(2)
O3A O -0.1689(4) -0.4890(2) 0.0855(2)
Fe1A_3 Fe -0.5000 -0.50000 0.00000
H5A H -0.08(1) -0.439(3) 0.241(4)
loop_
_geom_bond_atom_site_label_1
_geom_bond_atom_site_label_2
_geom_bond_site_symmetry_1
_geom_bond_site_symmetry_2
Fe1 O2 1_555 1_555
P1 O1 1_555 1_555
O1 H5 1_555 1_555
O2 P1 1_555 1_555
O3 P1 1_555 1_555
O4 Fe1 1_555 1_555
O5 C3 1_555 1_555
C1 P1 1_555 1_555
C2 C1 1_555 1_555
C3 C2 1_555 1_555
H1 C1 1_555 1_555
H2 C1 1_555 1_555
H3 C2 1_555 1_555
H4 C2 1_555 1_555
H6 O5 1_555 1_555
O3_2 Fe1 1_555 1_555
Fe1_2 O3 1_555 1_555
O3D Fe1 1_555 1_555
O2D Fe1 1_555 1_555
O4D Fe1 1_555 1_555
Fe1A O4A 1_555 1_555
C3A O4 1_555 1_555
O4A C3 1_555 1_555
O5A C3A 1_555 1_555
C2A C3A 1_555 1_555
H6A O5A 1_555 1_555
C1A C2A 1_555 1_555
H3A C2A 1_555 1_555
H4A C2A 1_555 1_555
P1A C1A 1_555 1_555
H1A C1A 1_555 1_555
H2A C1A 1_555 1_555
Fe1A_2 O2A 1_555 1_555
O1A P1A 1_555 1_555
O2A P1A 1_555 1_555
O3A P1A 1_555 1_555
Fe1A_3 O3A 1_555 1_555
H5A O1A 1_555 1_555

#END
