
#######################################################################
#
#                 Cambridge Crystallographic Data Centre
#                                CCDC 
#
#######################################################################
#
# If this CIF has been generated from an entry in the Cambridge 
# Structural Database, then it will include bibliographic, chemical, 
# crystal, experimental, refinement or atomic coordinate data resulting 
# from the CCDC's data processing and validation procedures.
#
#######################################################################

data_JOSJUY
_symmetry_cell_setting           monoclinic
_symmetry_space_group_name_H-M   'P 21/c'
_symmetry_Int_Tables_number      14
_space_group_name_Hall           '-P 2ybc'
loop_
_symmetry_equiv_pos_site_id
_symmetry_equiv_pos_as_xyz
1 x,y,z
2 -x,1/2+y,1/2-z
3 -x,-y,-z
4 x,1/2-y,1/2+z
_cell_length_a                   14.467(3)
_cell_length_b                   7.2520(15)
_cell_length_c                   20.749(7)
_cell_angle_alpha                90
_cell_angle_beta                 126.16(2)
_cell_angle_gamma                90
_cell_volume                     1757.55
loop_
_atom_site_label
_atom_site_type_symbol
_atom_site_fract_x
_atom_site_fract_y
_atom_site_fract_z
O1 O 0.8223(2) 0.7913(4) 1.00204(15)
C1 C 0.7678(3) 0.7683(5) 0.9272(2)
C2 C 0.6495(3) 0.6829(5) 0.8841(2)
Gd1 Gd 1.007402(12) 0.20714(2) 0.872574(8)
C3 C 0.5883(3) 0.7050(5) 0.9160(2)
O2 O 0.8722(2) -0.0013(4) 0.76661(16)
O3 O 1.0071(2) -0.0975(4) 0.92374(16)
O4 O 0.9034(2) 0.2415(4) 0.92569(16)
N1 N 0.8263(2) 0.4046(4) 0.79163(16)
O5 O 0.8017(3) 0.8114(5) 0.88680(19)
O6 O 0.9660(2) 0.3513(4) 0.75091(15)
C4 C 0.5989(3) 0.5902(5) 0.81106(19)
O7 O 0.7640(3) 0.3445(5) 0.93088(18)
C5 C 0.4748(3) 0.6420(5) 0.8745(2)
C6 C 0.6647(3) 0.5438(5) 0.77823(19)
C7 C 0.7966(3) 0.4846(5) 0.72408(19)
O8 O 0.86805(19) 0.5495(4) 0.64865(14)
C8 C 0.7639(3) 0.4323(5) 0.81940(19)
O9 O 1.0742(3) 0.5258(5) 0.9077(2)
C9 C 0.6288(3) 0.6095(5) 0.7039(2)
C10 C 0.8827(3) 0.4589(5) 0.70571(19)
C11 C 0.4223(3) 0.5637(5) 0.7990(2)
C12 C 0.8113(3) 0.3324(5) 0.8974(2)
C13 C 0.6960(3) 0.5857(5) 0.6765(2)
C14 C 0.4836(3) 0.5358(5) 0.7680(2)
O10 O 0.4665(2) 0.7521(5) 0.97812(19)
O11 O 0.3117(2) 0.6141(5) 0.87627(17)
C15 C 0.4096(3) 0.6662(6) 0.9091(2)
H1 H 0.628(3) 0.750(6) 0.964(2)
H2 H 0.445(3) 0.483(6) 0.716(2)
H3 H 0.567(4) 0.686(6) 0.676(3)
H4 H 0.348(3) 0.522(6) 0.772(2)
H5 H 0.667(4) 0.630(8) 0.626(3)
H6 H 0.911(4) -0.054(7) 0.753(3)
H7 H 0.427(5) 0.780(8) 0.997(4)
H8 H 1.137(5) 0.540(9) 0.960(4)
H9 H 1.047(5) 0.607(11) 0.885(4)
H10 H 0.824(5) 0.027(9) 0.725(3)
H11 H 0.957(4) -0.134(8) 0.913(3)
H12 H 1.063(5) -0.137(9) 0.985(4)
O1B O 1.1777(2) 0.2087(4) 0.99796(15)
Gd1A Gd 0.992598(12) 0.70714(2) 0.627426(8)
Gd1B Gd 0.992598(12) 0.79286(2) 1.127426(8)
O8A O 1.13195(19) 0.0495(4) 0.85135(14)
O12 O 0.6660(4) 0.3683(6) 0.4838(3)
H13 H 0.735(7) 0.371(13) 0.522(5)
H14 H 0.690(6) 0.303(9) 0.466(4)
loop_
_geom_bond_atom_site_label_1
_geom_bond_atom_site_label_2
_geom_bond_site_symmetry_1
_geom_bond_site_symmetry_2
O1 C1 1_555 1_555
C1 C2 1_555 1_555
C2 C3 1_555 1_555
Gd1 O2 1_555 1_555
C3 C5 1_555 1_555
O2 H6 1_555 1_555
O3 Gd1 1_555 1_555
O4 Gd1 1_555 1_555
N1 Gd1 1_555 1_555
O5 C1 1_555 1_555
O6 Gd1 1_555 1_555
C4 C2 1_555 1_555
O7 C12 1_555 1_555
C5 C11 1_555 1_555
C6 C4 1_555 1_555
C7 N1 1_555 1_555
O8 C10 1_555 1_555
C8 N1 1_555 1_555
O9 Gd1 1_555 1_555
C9 C6 1_555 1_555
C10 O6 1_555 1_555
C11 C14 1_555 1_555
C12 O4 1_555 1_555
C13 C7 1_555 1_555
C14 C4 1_555 1_555
O10 C15 1_555 1_555
O11 C15 1_555 1_555
C15 C5 1_555 1_555
H1 C3 1_555 1_555
H2 C14 1_555 1_555
H3 C9 1_555 1_555
H4 C11 1_555 1_555
H5 C13 1_555 1_555
H7 O10 1_555 1_555
H8 O9 1_555 1_555
H9 O9 1_555 1_555
H10 O2 1_555 1_555
H11 O3 1_555 1_555
H12 O3 1_555 1_555
O12 H13 1_555 1_555
H14 O12 1_555 1_555
O1B Gd1 1_555 1_555
Gd1A O8 1_555 1_555
Gd1B O1 1_555 1_555
O8A Gd1 1_555 1_555
C6 C8 1_555 1_555
C7 C10 1_555 1_555
C8 C12 1_555 1_555
C9 C13 1_555 1_555

#END
