
#######################################################################
#
#                 Cambridge Crystallographic Data Centre
#                                CCDC 
#
#######################################################################
#
# If this CIF has been generated from an entry in the Cambridge 
# Structural Database, then it will include bibliographic, chemical, 
# crystal, experimental, refinement or atomic coordinate data resulting 
# from the CCDC's data processing and validation procedures.
#
#######################################################################

data_JOSKAF
_symmetry_cell_setting           monoclinic
_symmetry_space_group_name_H-M   'P 21/c'
_symmetry_Int_Tables_number      14
_space_group_name_Hall           '-P 2ybc'
loop_
_symmetry_equiv_pos_site_id
_symmetry_equiv_pos_as_xyz
1 x,y,z
2 -x,1/2+y,1/2-z
3 -x,-y,-z
4 x,1/2-y,1/2+z
_cell_length_a                   14.476(3)
_cell_length_b                   7.1810(14)
_cell_length_c                   20.617(7)
_cell_angle_alpha                90
_cell_angle_beta                 126.13(2)
_cell_angle_gamma                90
_cell_volume                     1731.01
loop_
_atom_site_label
_atom_site_type_symbol
_atom_site_fract_x
_atom_site_fract_y
_atom_site_fract_z
O1 O 0.1660(4) 0.8661(6) 0.9841(3)
H1 H 0.2271 0.9132 1.0200
H2 H 0.192(5) 0.803(7) 0.965(3)
Ho1 Ho 0.493057(15) 0.20920(3) 0.128013(11)
O2 O 0.3711(3) 0.0519(5) 0.14860(18)
O3 O 0.4084(3) -0.2552(5) 0.4273(2)
O4 O 0.2679(3) -0.1576(5) 0.4322(2)
O5 O 0.3044(3) 0.3160(6) 0.3890(2)
O6 O 0.3254(3) 0.2893(5) 0.50430(19)
O7 O -0.0321(3) 0.2519(6) 0.4783(2)
O8 O -0.1867(3) 0.1127(6) 0.3752(2)
O9 O 0.4926(3) -0.0925(5) 0.0772(2)
O10 O 0.4686(3) -0.1488(5) 0.25167(18)
O11 O 0.6274(3) 0.0039(5) 0.23230(19)
O12 O 0.4271(4) 0.5239(5) 0.0941(2)
N1 N 0.3301(3) -0.0951(5) 0.2929(2)
C1 C 0.3860(4) -0.0408(6) 0.2063(3)
C2 C 0.2993(4) -0.0144(6) 0.2239(2)
C3 C 0.1991(4) 0.0878(6) 0.1768(3)
H3 H 0.1771 0.1384 0.1281
C4 C 0.1329(4) 0.1123(6) 0.2042(3)
H4 H 0.0634 0.1746 0.1720
C5 C 0.1680(3) 0.0459(6) 0.2786(2)
C6 C 0.2675(4) -0.0663(6) 0.3202(2)
C7 C 0.3160(4) -0.1669(6) 0.3990(3)
C8 C 0.1024(3) 0.0912(6) 0.3117(2)
C9 C 0.1523(3) 0.1842(6) 0.3850(2)
C10 C 0.2705(4) 0.2690(6) 0.4290(3)
C11 C 0.0908(4) 0.2040(6) 0.4169(3)
H5 H 0.1256 0.2581 0.4672
C12 C -0.0229(4) 0.1435(6) 0.3742(3)
C13 C -0.0883(4) 0.1664(7) 0.4085(3)
C14 C -0.0744(4) 0.0653(6) 0.2988(3)
H6 H -0.1509 0.0302 0.2688
C15 C -0.0125(3) 0.0390(6) 0.2679(3)
H7 H -0.0479 -0.0139 0.2173
H8 H 0.445(4) -0.116(7) 0.029(3)
H9 H 0.681(3) 0.055(6) 0.2756(17)
H10 H 0.545(5) -0.121(8) 0.087(3)
H11 H 0.591(4) -0.062(7) 0.246(3)
H12 H -0.073(5) 0.277(7) 0.489(3)
H13 H 0.366(2) 0.549(5) 0.0485(14)
H14 H 0.459(3) 0.628(3) 0.114(2)
Ho1A Ho 0.506943(15) -0.29080(3) 0.371987(11)
Ho1C Ho 0.493057(15) 0.29080(3) 0.628013(11)
O3A O 0.5916(3) 0.2448(5) 0.0727(2)
O6C O 0.3254(3) 0.2107(5) 0.00430(19)
O10A O 0.5314(3) 0.3512(5) 0.24833(18)
N1A N 0.6699(3) 0.4049(5) 0.2071(2)
loop_
_geom_bond_atom_site_label_1
_geom_bond_atom_site_label_2
_geom_bond_site_symmetry_1
_geom_bond_site_symmetry_2
O1 H1 1_555 1_555
H2 O1 1_555 1_555
Ho1 O2 1_555 1_555
O2 C1 1_555 1_555
O3 C7 1_555 1_555
O4 C7 1_555 1_555
O5 C10 1_555 1_555
O6 C10 1_555 1_555
O7 C13 1_555 1_555
O8 C13 1_555 1_555
O9 Ho1 1_555 1_555
O10 C1 1_555 1_555
O11 Ho1 1_555 1_555
O12 Ho1 1_555 1_555
N1 C2 1_555 1_555
C1 C2 1_555 1_555
C2 C3 1_555 1_555
C3 H3 1_555 1_555
C4 C3 1_555 1_555
H4 C4 1_555 1_555
C5 C4 1_555 1_555
C6 N1 1_555 1_555
C7 C6 1_555 1_555
C8 C5 1_555 1_555
C9 C8 1_555 1_555
C10 C9 1_555 1_555
C11 C9 1_555 1_555
H5 C11 1_555 1_555
C12 C11 1_555 1_555
C13 C12 1_555 1_555
C14 C12 1_555 1_555
H6 C14 1_555 1_555
C15 C8 1_555 1_555
H7 C15 1_555 1_555
H8 O9 1_555 1_555
H9 O11 1_555 1_555
H10 O9 1_555 1_555
H11 O11 1_555 1_555
H12 O7 1_555 1_555
H13 O12 1_555 1_555
H14 O12 1_555 1_555
Ho1A O3 1_555 1_555
Ho1C O6 1_555 1_555
O3A Ho1 1_555 1_555
O6C Ho1 1_555 1_555
O10A Ho1 1_555 1_555
N1A Ho1 1_555 1_555
O10 Ho1A 1_555 1_555
N1 Ho1A 1_555 1_555
C5 C6 1_555 1_555
C14 C15 1_555 1_555

#END
