
#######################################################################
#
#                 Cambridge Crystallographic Data Centre
#                                CCDC 
#
#######################################################################
#
# If this CIF has been generated from an entry in the Cambridge 
# Structural Database, then it will include bibliographic, chemical, 
# crystal, experimental, refinement or atomic coordinate data resulting 
# from the CCDC's data processing and validation procedures.
#
#######################################################################

data_JOSKIN
_symmetry_cell_setting           monoclinic
_symmetry_space_group_name_H-M   'P 21/c'
_symmetry_Int_Tables_number      14
_space_group_name_Hall           '-P 2ybc'
loop_
_symmetry_equiv_pos_site_id
_symmetry_equiv_pos_as_xyz
1 x,y,z
2 -x,1/2+y,1/2-z
3 -x,-y,-z
4 x,1/2-y,1/2+z
_cell_length_a                   16.616(3)
_cell_length_b                   6.6445(13)
_cell_length_c                   18.857(8)
_cell_angle_alpha                90
_cell_angle_beta                 119.80(2)
_cell_angle_gamma                90
_cell_volume                     1806.61
loop_
_atom_site_label
_atom_site_type_symbol
_atom_site_fract_x
_atom_site_fract_y
_atom_site_fract_z
C1 C 0.4113(2) 1.1131(5) 1.1962(2)
O1 O 0.0500(2) 0.9900(4) 0.90421(16)
O2 O -0.08695(16) 0.3288(4) 0.84174(14)
O3 O 0.10442(15) 1.1372(3) 1.35083(12)
La1 La 0.041554(10) 0.60151(2) 0.911767(9)
C2 C 0.14519(19) 1.1387(4) 1.24688(16)
O4 O 0.01207(14) 1.2992(3) 1.23430(12)
O5 O 0.06035(13) 1.3444(3) 1.02446(12)
O6 O 0.16465(14) 0.7496(3) 1.05734(13)
C3 C 0.31366(19) 0.8838(4) 1.08864(17)
O7 O 0.20792(15) 0.7248(4) 0.96416(13)
N1 N 0.12316(16) 1.2111(4) 1.17337(13)
O8 O 0.19183(16) 1.2793(5) 1.02638(14)
C4 C 0.14231(19) 1.2694(4) 1.05772(16)
C5 C 0.08206(19) 1.1969(4) 1.27940(16)
C6 C 0.25773(19) 1.0553(4) 1.18060(17)
C7 C 0.22321(19) 0.7786(4) 1.03445(17)
C8 C 0.4833(2) 1.0787(6) 1.1805(2)
C9 C 0.17690(18) 1.1720(4) 1.14012(15)
C10 C 0.3865(2) 0.8498(5) 1.07343(19)
C11 C 0.32599(18) 1.0160(5) 1.15143(17)
C12 C 0.2807(2) 0.9818(5) 1.25782(18)
C13 C 0.2251(2) 1.0232(5) 1.29181(17)
C14 C 0.5526(2) 0.9062(6) 1.1063(2)
O9 O 0.53573(19) 0.7741(5) 1.0492(2)
H1 H 0.5830 0.7552 1.0465
O10 O 0.62569(19) 0.9892(7) 1.1466(2)
C15 C 0.4716(2) 0.9446(5) 1.1195(2)
H2 H 0.236(4) 0.973(9) 1.342(4)
H3 H -0.120(4) 0.303(10) 0.860(4)
H4 H 0.334(4) 0.891(8) 1.286(4)
H5 H -0.112(5) 0.354(10) 0.799(4)
H6 H 0.422(4) 1.203(9) 1.236(4)
H7 H 0.380(4) 0.766(9) 1.033(3)
H8 H 0.101(4) 1.046(10) 0.924(4)
H9 H 0.008(5) 1.074(10) 0.885(4)
H10 H 0.541(4) 1.149(9) 1.213(4)
O3C O 0.10442(15) 0.3628(3) 0.85083(12)
La1_2 La 0.041554(10) 1.60151(2) 0.911767(9)
La1B La -0.041554(10) 1.39849(2) 1.088233(9)
La1C La 0.041554(10) 0.89849(2) 1.411767(9)
O4B O -0.01207(14) 0.7008(3) 0.76570(12)
O5_2 O 0.06035(13) 0.3444(3) 1.02446(12)
O5B O -0.06035(13) 0.6556(3) 0.97554(12)
N1B N -0.12316(16) 0.7889(4) 0.82663(13)
O11 O 0.19658(18) 0.9344(4) 0.82242(17)
H11 H 0.199(4) 0.880(10) 0.863(4)
H12 H 0.252(4) 0.961(9) 0.837(4)
O12 O 0.6740(3) 0.6958(7) 0.0217(3)
H13 H 0.662(3) 0.665(10) -0.0261(13)
H14 H 0.7319(10) 0.681(10) 0.052(2)
loop_
_geom_bond_atom_site_label_1
_geom_bond_atom_site_label_2
_geom_bond_site_symmetry_1
_geom_bond_site_symmetry_2
C1 C8 1_555 1_555
O1 La1 1_555 1_555
O2 La1 1_555 1_555
O3 C5 1_555 1_555
La1 O6 1_555 1_555
C2 N1 1_555 1_555
O4 C5 1_555 1_555
O5 C4 1_555 1_555
O6 C7 1_555 1_555
C3 C7 1_555 1_555
O7 La1 1_555 1_555
N1 C9 1_555 1_555
O8 C4 1_555 1_555
C4 C9 1_555 1_555
C5 C2 1_555 1_555
C6 C9 1_555 1_555
C7 O7 1_555 1_555
C8 C15 1_555 1_555
C10 C3 1_555 1_555
C11 C1 1_555 1_555
C12 C6 1_555 1_555
C13 C2 1_555 1_555
C14 O9 1_555 1_555
O9 H1 1_555 1_555
O10 C14 1_555 1_555
C15 C10 1_555 1_555
H2 C13 1_555 1_555
H3 O2 1_555 1_555
H4 C12 1_555 1_555
H5 O2 1_555 1_555
H6 C1 1_555 1_555
H7 C10 1_555 1_555
H8 O1 1_555 1_555
H9 O1 1_555 1_555
H10 C8 1_555 1_555
O11 H11 1_555 1_555
H12 O11 1_555 1_555
O12 H13 1_555 1_555
H14 O12 1_555 1_555
O3C La1 1_555 1_555
La1_2 O5 1_555 1_555
La1B O4 1_555 1_555
La1C O3 1_555 1_555
O4B La1 1_555 1_555
O5_2 La1 1_555 1_555
O5B La1 1_555 1_555
N1B La1 1_555 1_555
O5 La1B 1_555 1_555
C3 C11 1_555 1_555
N1 La1B 1_555 1_555
C6 C11 1_555 1_555
C12 C13 1_555 1_555
C14 C15 1_555 1_555

#END
