
#######################################################################
#
#                 Cambridge Crystallographic Data Centre
#                                CCDC 
#
#######################################################################
#
# If this CIF has been generated from an entry in the Cambridge 
# Structural Database, then it will include bibliographic, chemical, 
# crystal, experimental, refinement or atomic coordinate data resulting 
# from the CCDC's data processing and validation procedures.
#
#######################################################################

data_JOSNUA
_symmetry_cell_setting           triclinic
_symmetry_space_group_name_H-M   'P -1'
_symmetry_Int_Tables_number      2
_space_group_name_Hall           '-P 1'
loop_
_symmetry_equiv_pos_site_id
_symmetry_equiv_pos_as_xyz
1 x,y,z
2 -x,-y,-z
_cell_length_a                   8.1339(4)
_cell_length_b                   9.0054(5)
_cell_length_c                   9.6200(5)
_cell_angle_alpha                92.218(1)
_cell_angle_beta                 102.299(1)
_cell_angle_gamma                107.021(1)
_cell_volume                     654.463
loop_
_atom_site_label
_atom_site_type_symbol
_atom_site_fract_x
_atom_site_fract_y
_atom_site_fract_z
Mo1 Mo -0.2171(1) -0.6045(1) -0.1333(1)
Mo2 Mo -0.6348(1) -0.6484(1) -0.1256(1)
O1 O 0.0000 -0.5000 0.0000
O2 O -0.4698(3) -0.6346(2) -0.2361(2)
O3 O -0.6438(3) -0.8019(2) -0.0243(2)
O4 O -0.2587(3) -0.7861(2) -0.0744(2)
O5 O -0.1481(3) -0.6275(2) -0.2863(2)
O6 O -0.3459(3) -0.5249(2) 0.0261(2)
O7 O -0.1727(3) -0.2941(3) 0.2584(2)
N1 N -0.3500(4) 0.2205(3) -0.7871(3)
N2 N -0.1401(3) 0.0652(3) -0.4125(3)
N3 N -0.2018(3) -0.3505(3) -0.2152(3)
C1 C -0.4370(4) 0.0779(3) -0.7587(3)
C2 C -0.3757(4) 0.0180(3) -0.6353(3)
C3 C -0.2184(4) 0.1082(3) -0.5385(3)
C4 C -0.1332(4) 0.2589(3) -0.5723(3)
C5 C -0.1998(4) 0.3114(3) -0.6967(3)
C6 C -0.2907(4) -0.3525(3) -0.3511(3)
C7 C -0.2800(4) -0.2221(3) -0.4243(3)
C8 C -0.1706(4) -0.0762(3) -0.3542(3)
C9 C -0.0751(4) -0.0729(3) -0.2129(3)
C10 C -0.0947(4) -0.2105(3) -0.1493(3)
H1 H -0.3909(4) 0.2550(3) -0.8649(3)
H2 H -0.0560(3) 0.1402(3) -0.3592(3)
H3 H -0.5402(4) 0.0186(3) -0.8232(3)
H4 H -0.4373(4) -0.0806(3) -0.6161(3)
H5 H -0.0312(4) 0.3225(3) -0.5093(3)
H6 H -0.1419(4) 0.4096(3) -0.7192(3)
H7 H -0.3643(4) -0.4483(3) -0.3990(3)
H8 H -0.3441(4) -0.2310(3) -0.5183(3)
H9 H 0.0005(4) 0.0210(3) -0.1627(3)
H10 H -0.0302(4) -0.2059(3) -0.0560(3)
Mo1A Mo 0.2171(1) -0.3955(1) 0.1333(1)
Mo2A Mo -0.3652(1) -0.3516(1) 0.1256(1)
O2A O -0.5302(3) -0.3654(2) 0.2361(2)
Mo1A_2 Mo -0.7829(1) -0.3955(1) 0.1333(1)
O1_2 O -1.0000 -0.5000 0.0000
O4A O -0.7413(3) -0.2139(2) 0.0744(2)
O5A O -0.8519(3) -0.3725(2) 0.2863(2)
O6A O -0.6541(3) -0.4751(2) -0.0261(2)
O3A O -0.3562(3) -0.1981(2) 0.0243(2)
O7A O -0.8273(3) -0.7059(3) -0.2584(2)
N3A N -0.7982(3) -0.6495(3) 0.2152(3)
C6A C -0.7093(4) -0.6475(3) 0.3511(3)
C7A C -0.7200(4) -0.7779(3) 0.4243(3)
C8A C -0.8294(4) -0.9238(3) 0.3542(3)
N2A N -0.8599(3) -1.0652(3) 0.4125(3)
C3A C -0.7816(4) -1.1082(3) 0.5385(3)
C2A C -0.6243(4) -1.0180(3) 0.6353(3)
C1A C -0.5630(4) -1.0779(3) 0.7587(3)
N1A N -0.6500(4) -1.2205(3) 0.7871(3)
C5A C -0.8002(4) -1.3114(3) 0.6967(3)
C4A C -0.8668(4) -1.2589(3) 0.5723(3)
H5A H -0.9688(4) -1.3225(3) 0.5093(3)
H6A H -0.8581(4) -1.4096(3) 0.7192(3)
H1A H -0.6091(4) -1.2550(3) 0.8649(3)
H3A H -0.4598(4) -1.0186(3) 0.8232(3)
H4A H -0.5627(4) -0.9194(3) 0.6161(3)
H2A H -0.9440(3) -1.1402(3) 0.3592(3)
C9A C -0.9249(4) -0.9271(3) 0.2129(3)
C10A C -0.9053(4) -0.7895(3) 0.1493(3)
H10A H -0.9698(4) -0.7941(3) 0.0560(3)
H9A H -1.0005(4) -1.0210(3) 0.1627(3)
H8A H -0.6559(4) -0.7690(3) 0.5183(3)
H7A H -0.6357(4) -0.5517(3) 0.3990(3)
loop_
_geom_bond_atom_site_label_1
_geom_bond_atom_site_label_2
_geom_bond_site_symmetry_1
_geom_bond_site_symmetry_2
Mo1 O1 1_555 1_555
Mo2 O2 1_555 1_555
O1 Mo1A 1_555 1_555
O2 Mo1 1_555 1_555
O3 Mo2 1_555 1_555
O4 Mo1 1_555 1_555
O5 Mo1 1_555 1_555
O6 Mo1 1_555 1_555
O7 Mo2A 1_555 1_555
N1 C1 1_555 1_555
N2 C3 1_555 1_555
N3 Mo1 1_555 1_555
C1 C2 1_555 1_555
C2 C3 1_555 1_555
C3 C4 1_555 1_555
C4 C5 1_555 1_555
C5 N1 1_555 1_555
C6 N3 1_555 1_555
C7 C6 1_555 1_555
C8 N2 1_555 1_555
C9 C8 1_555 1_555
C10 N3 1_555 1_555
H1 N1 1_555 1_555
H2 N2 1_555 1_555
H3 C1 1_555 1_555
H4 C2 1_555 1_555
H5 C4 1_555 1_555
H6 C5 1_555 1_555
H7 C6 1_555 1_555
H8 C7 1_555 1_555
H9 C9 1_555 1_555
H10 C10 1_555 1_555
Mo2A O6 1_555 1_555
O2A Mo2A 1_555 1_555
Mo1A_2 O2A 1_555 1_555
O1_2 Mo1A_2 1_555 1_555
O4A Mo1A_2 1_555 1_555
O5A Mo1A_2 1_555 1_555
O6A Mo2 1_555 1_555
O3A Mo2A 1_555 1_555
O7A Mo2 1_555 1_555
N3A Mo1A_2 1_555 1_555
C6A N3A 1_555 1_555
C7A C6A 1_555 1_555
C8A C7A 1_555 1_555
N2A C8A 1_555 1_555
C3A N2A 1_555 1_555
C2A C3A 1_555 1_555
C1A C2A 1_555 1_555
N1A C1A 1_555 1_555
C5A N1A 1_555 1_555
C4A C3A 1_555 1_555
H5A C4A 1_555 1_555
H6A C5A 1_555 1_555
H1A N1A 1_555 1_555
H3A C1A 1_555 1_555
H4A C2A 1_555 1_555
H2A N2A 1_555 1_555
C9A C8A 1_555 1_555
C10A N3A 1_555 1_555
H10A C10A 1_555 1_555
H9A C9A 1_555 1_555
H8A C7A 1_555 1_555
H7A C6A 1_555 1_555
Mo2 O6 1_555 1_555
C7 C8 1_555 1_555
C9 C10 1_555 1_555
Mo2A O6A 1_555 1_555
Mo1A_2 O6A 1_555 1_555
C5A C4A 1_555 1_555
C9A C10A 1_555 1_555

#END
