
#######################################################################
#
#                 Cambridge Crystallographic Data Centre
#                                CCDC 
#
#######################################################################
#
# If this CIF has been generated from an entry in the Cambridge 
# Structural Database, then it will include bibliographic, chemical, 
# crystal, experimental, refinement or atomic coordinate data resulting 
# from the CCDC's data processing and validation procedures.
#
#######################################################################

data_JOSPUC10
_symmetry_cell_setting           monoclinic
_symmetry_space_group_name_H-M   'I 2/a'
_symmetry_Int_Tables_number      15
_space_group_name_Hall           '-I 2ya'
loop_
_symmetry_equiv_pos_site_id
_symmetry_equiv_pos_as_xyz
1 x,y,z
2 1/2+x,1/2+y,1/2+z
3 1/2-x,y,-z
4 -x,1/2+y,1/2-z
5 -x,-y,-z
6 1/2-x,1/2-y,1/2-z
7 1/2+x,-y,z
8 x,1/2-y,1/2+z
_cell_length_a                   13.885(2)
_cell_length_b                   5.8864(6)
_cell_length_c                   21.624(2)
_cell_angle_alpha                90
_cell_angle_beta                 93.250(8)
_cell_angle_gamma                90
_cell_volume                     1764.54
loop_
_atom_site_label
_atom_site_type_symbol
_atom_site_fract_x
_atom_site_fract_y
_atom_site_fract_z
Cd1 Cd 0.75000 0.27041(2) 0.50000
Cd2 Cd 0.50000 0.50000 0.50000
Cl1 Cl 0.61937(2) 0.28768(5) 0.58016(2)
P1 P 0.68604(2) 0.76559(5) 0.42138(2)
O1 O 0.64794(7) 0.5540(2) 0.45277(4)
O2 O 0.66020(8) 0.9906(2) 0.45068(5)
O3 O 0.48790(9) 0.1898(2) 0.43900(6)
C1 C 0.64961(10) 0.7703(2) 0.34078(6)
C2 C 0.60592(12) 0.5861(3) 0.31080(7)
C3 C 0.58672(13) 0.5922(3) 0.24678(7)
C4 C 0.61175(13) 0.7843(4) 0.21354(7)
C5 C 0.65410(14) 0.9679(3) 0.24299(8)
C6 C 0.67390(12) 0.9630(3) 0.30691(7)
H1 H 0.7836(13) 0.752(3) 0.4224(8)
H2 H 0.550(2) 0.134(6) 0.4408(14)
H3 H 0.453(2) 0.055(6) 0.4554(13)
H4 H 0.5885 0.4518 0.3345
H5 H 0.5559 0.4624 0.2253
H6 H 0.5989 0.7881 0.1685
H7 H 0.6705 1.1027 0.2191
H8 H 0.7046 1.0936 0.3281
Cl1B Cl 0.88063(2) 0.28768(5) 0.41984(2)
P1B P 0.81396(2) 0.76559(5) 0.57862(2)
O1B O 0.85206(7) 0.5540(2) 0.54723(4)
O2B O 0.83980(8) 0.9906(2) 0.54932(5)
C1B C 0.85039(10) 0.7703(2) 0.65922(6)
C2B C 0.89408(12) 0.5861(3) 0.68920(7)
C3B C 0.91328(13) 0.5922(3) 0.75322(7)
C4B C 0.88825(13) 0.7843(4) 0.78646(7)
C5B C 0.84590(14) 0.9679(3) 0.75701(8)
C6B C 0.82610(12) 0.9630(3) 0.69309(7)
H1B H 0.7164(13) 0.752(3) 0.5776(8)
H4B H 0.9115 0.4518 0.6655
H5B H 0.9441 0.4624 0.7747
H6B H 0.9011 0.7881 0.8315
H7B H 0.8295 1.1027 0.7809
H8B H 0.7954 1.0936 0.6719
O3D O 0.51210(9) 0.8102(2) 0.56100(6)
H2D H 0.450(2) 0.866(6) 0.5592(14)
H3D H 0.547(2) 0.945(6) 0.5446(13)
O2_2 O 0.66020(8) -0.0094(2) 0.45068(5)
O2B_2 O 0.83980(8) -0.0094(2) 0.54932(5)
Cl1D Cl 0.38063(2) 0.71232(5) 0.41984(2)
O1D O 0.35206(7) 0.4460(2) 0.54723(4)
Cd1_2 Cd 0.75000 1.27041(2) 0.50000
Cd2B Cd 1.00000 0.50000 0.50000
loop_
_geom_bond_atom_site_label_1
_geom_bond_atom_site_label_2
_geom_bond_site_symmetry_1
_geom_bond_site_symmetry_2
Cd1 Cl1 1_555 1_555
Cd2 Cl1 1_555 1_555
P1 O1 1_555 1_555
O1 Cd1 1_555 1_555
O2 P1 1_555 1_555
O3 Cd2 1_555 1_555
C1 P1 1_555 1_555
C2 C1 1_555 1_555
C3 C2 1_555 1_555
C4 C3 1_555 1_555
C5 C4 1_555 1_555
C6 C1 1_555 1_555
H1 P1 1_555 1_555
H2 O3 1_555 1_555
H3 O3 1_555 1_555
H4 C2 1_555 1_555
H5 C3 1_555 1_555
H6 C4 1_555 1_555
H7 C5 1_555 1_555
H8 C6 1_555 1_555
Cl1B Cd1 1_555 1_555
P1B O1B 1_555 1_555
O1B Cd1 1_555 1_555
O2B P1B 1_555 1_555
C1B P1B 1_555 1_555
C2B C1B 1_555 1_555
C3B C2B 1_555 1_555
C4B C3B 1_555 1_555
C5B C4B 1_555 1_555
C6B C1B 1_555 1_555
H1B P1B 1_555 1_555
H4B C2B 1_555 1_555
H5B C3B 1_555 1_555
H6B C4B 1_555 1_555
H7B C5B 1_555 1_555
H8B C6B 1_555 1_555
O3D Cd2 1_555 1_555
H2D O3D 1_555 1_555
H3D O3D 1_555 1_555
O2_2 Cd1 1_555 1_555
O2B_2 Cd1 1_555 1_555
Cl1D Cd2 1_555 1_555
O1D Cd2 1_555 1_555
Cd1_2 O2 1_555 1_555
Cd2B Cl1B 1_555 1_555
Cd2 O1 1_555 1_555
C5 C6 1_555 1_555
O1B Cd2B 1_555 1_555
O2B Cd1_2 1_555 1_555
C5B C6B 1_555 1_555

#END
