
#######################################################################
#
#                 Cambridge Crystallographic Data Centre
#                                CCDC 
#
#######################################################################
#
# If this CIF has been generated from an entry in the Cambridge 
# Structural Database, then it will include bibliographic, chemical, 
# crystal, experimental, refinement or atomic coordinate data resulting 
# from the CCDC's data processing and validation procedures.
#
#######################################################################

data_JOVVAT
_symmetry_cell_setting           orthorhombic
_symmetry_space_group_name_H-M   'P n m a'
_symmetry_Int_Tables_number      62
_space_group_name_Hall           '-P 2ac 2n'
loop_
_symmetry_equiv_pos_site_id
_symmetry_equiv_pos_as_xyz
1 x,y,z
2 1/2-x,-y,1/2+z
3 -x,1/2+y,-z
4 1/2+x,1/2-y,1/2-z
5 -x,-y,-z
6 1/2+x,y,1/2-z
7 x,1/2-y,z
8 1/2-x,1/2+y,1/2+z
_cell_length_a                   24.9173(17)
_cell_length_b                   21.0142(14)
_cell_length_c                   12.1440(8)
_cell_angle_alpha                90
_cell_angle_beta                 90
_cell_angle_gamma                90
_cell_volume                     6358.81
loop_
_atom_site_label
_atom_site_type_symbol
_atom_site_fract_x
_atom_site_fract_y
_atom_site_fract_z
Co1 Co 0.09149(7) 0.2500 1.32313(12)
Co2 Co 0.13405(4) 0.13174(6) 1.16148(9)
Co3 Co 0.17937(6) 0.2500 1.01030(13)
S1 S -0.00545(13) 0.2500 1.3694(2)
S2 S 0.14921(12) 0.2500 0.8179(2)
S3 S 0.06057(8) 0.06670(9) 1.07722(16)
Cl1 Cl 0.17930(13) 0.2500 1.2227(3)
Cl2 Cl 0.12547(15) 0.2500 1.4928(3)
O1 O 0.0735(2) 0.1716(3) 1.2431(4)
O2 O 0.1220(2) 0.1832(3) 1.0268(4)
N1 N 0.3432(3) -0.0643(5) 0.7757(7)
N2 N 0.2254(3) 0.1643(3) 1.0110(6)
N3 N 0.2056(3) 0.1182(4) 1.0762(5)
N4 N 0.2293(3) 0.0630(3) 1.0478(6)
N5 N 0.2614(3) 0.1377(3) 0.9423(6)
C1 C 0.2638(3) 0.0750(3) 0.9651(6)
C2 C 0.0226(3) 0.1546(4) 1.2266(6)
C3 C -0.0203(3) 0.1846(4) 1.2796(6)
C4 C -0.0724(3) 0.1657(4) 1.2652(8)
H1 H -0.0994 0.1857 1.3052
C5 C -0.0856(4) 0.1182(5) 1.1932(9)
C6 C -0.0435(3) 0.0892(4) 1.1344(8)
H2 H -0.0513 0.0577 1.0831
C7 C 0.0092(3) 0.1069(4) 1.1518(6)
C8 C -0.1442(5) 0.0981(7) 1.1749(14)
C9 C -0.1547(9) 0.0397(12) 1.246(2)
H3 H -0.1910 0.0258 1.2351
H4 H -0.1492 0.0502 1.3218
H5 H -0.1305 0.0062 1.2248
C10 C -0.1817(5) 0.1463(10) 1.206(2)
H6 H -0.1771 0.1830 1.1603
H7 H -0.1757 0.1580 1.2819
H8 H -0.2176 0.1304 1.1983
C11 C -0.1537(8) 0.0748(11) 1.0656(17)
H9 H -0.1488 0.1087 1.0137
H10 H -0.1898 0.0590 1.0605
H11 H -0.1289 0.0410 1.0496
C12 C 0.0979(3) 0.1589(4) 0.9397(7)
C13 C 0.0629(3) 0.1073(4) 0.9495(6)
C14 C 0.0328(4) 0.0866(4) 0.8597(7)
H12 H 0.0089 0.0530 0.8691
C15 C 0.0375(4) 0.1145(4) 0.7561(7)
C16 C 0.0743(4) 0.1636(4) 0.7467(7)
H13 H 0.0792 0.1825 0.6782
C17 C 0.1039(3) 0.1855(4) 0.8344(6)
C18 C 0.0036(6) 0.0939(6) 0.6580(8)
C19 C -0.0293(10) 0.1506(9) 0.6214(18)
H14 H -0.0546 0.1615 0.6781
H15 H -0.0484 0.1401 0.5551
H16 H -0.0060 0.1861 0.6078
C20 C -0.0300(7) 0.0367(7) 0.6774(11)
H17 H -0.0074 0.0014 0.6967
H18 H -0.0497 0.0267 0.6116
H19 H -0.0547 0.0450 0.7363
C21 C 0.0361(8) 0.0872(11) 0.5561(12)
H20 H 0.0605 0.0521 0.5641
H21 H 0.0561 0.1256 0.5437
H22 H 0.0128 0.0795 0.4946
C22 C 0.2951(4) 0.0299(5) 0.9004(9)
C23 C 0.3131(5) 0.0455(6) 0.7987(10)
H23 H 0.3102 0.0866 0.7710
C24 C 0.3358(5) -0.0025(6) 0.7393(10)
H24 H 0.3473 0.0070 0.6683
C25 C 0.3288(4) -0.0772(6) 0.8742(9)
H25 H 0.3354 -0.1176 0.9022
C26 C 0.3025(5) -0.0304(7) 0.9437(10)
H26 H 0.2911 -0.0406 1.0145
S3F S 0.06057(8) 0.43330(9) 1.07722(16)
O1F O 0.0735(2) 0.3284(3) 1.2431(4)
O2F O 0.1220(2) 0.3168(3) 1.0268(4)
C2F C 0.0226(3) 0.3454(4) 1.2266(6)
C3F C -0.0203(3) 0.3154(4) 1.2796(6)
C4F C -0.0724(3) 0.3343(4) 1.2652(8)
H1F H -0.0994 0.3143 1.3052
C5F C -0.0856(4) 0.3818(5) 1.1932(9)
C6F C -0.0435(3) 0.4108(4) 1.1344(8)
H2F H -0.0513 0.4423 1.0831
C7F C 0.0092(3) 0.3931(4) 1.1518(6)
C8F C -0.1442(5) 0.4019(7) 1.1749(14)
C9F C -0.1547(9) 0.4603(12) 1.246(2)
H3F H -0.1910 0.4742 1.2351
H4F H -0.1492 0.4498 1.3218
H5F H -0.1305 0.4938 1.2248
C10F C -0.1817(5) 0.3537(10) 1.206(2)
H6F H -0.1771 0.3170 1.1603
H7F H -0.1757 0.3420 1.2819
H8F H -0.2176 0.3696 1.1983
C11F C -0.1537(8) 0.4252(11) 1.0656(17)
H9F H -0.1488 0.3913 1.0137
H10F H -0.1898 0.4410 1.0605
H11F H -0.1289 0.4590 1.0496
C12F C 0.0979(3) 0.3411(4) 0.9397(7)
C13F C 0.0629(3) 0.3927(4) 0.9495(6)
C14F C 0.0328(4) 0.4134(4) 0.8597(7)
H12F H 0.0089 0.4470 0.8691
C15F C 0.0375(4) 0.3855(4) 0.7561(7)
C16F C 0.0743(4) 0.3364(4) 0.7467(7)
H13F H 0.0792 0.3175 0.6782
C17F C 0.1039(3) 0.3145(4) 0.8344(6)
C18F C 0.0036(6) 0.4061(6) 0.6580(8)
C19F C -0.0293(10) 0.3494(9) 0.6214(18)
H14F H -0.0546 0.3385 0.6781
H15F H -0.0484 0.3599 0.5551
H16F H -0.0060 0.3139 0.6078
C20F C -0.0300(7) 0.4633(7) 0.6774(11)
H17F H -0.0074 0.4986 0.6967
H18F H -0.0497 0.4733 0.6116
H19F H -0.0547 0.4550 0.7363
C21F C 0.0361(8) 0.4128(11) 0.5561(12)
H20F H 0.0605 0.4479 0.5641
H21F H 0.0561 0.3744 0.5437
H22F H 0.0128 0.4205 0.4946
Co2F Co 0.13405(4) 0.36826(6) 1.16148(9)
N1F N 0.3432(3) 0.5643(5) 0.7757(7)
N2F N 0.2254(3) 0.3357(3) 1.0110(6)
N3F N 0.2056(3) 0.3818(4) 1.0762(5)
N4F N 0.2293(3) 0.4370(3) 1.0478(6)
N5F N 0.2614(3) 0.3623(3) 0.9423(6)
C1F C 0.2638(3) 0.4250(3) 0.9651(6)
C22F C 0.2951(4) 0.4701(5) 0.9004(9)
C23F C 0.3131(5) 0.4545(6) 0.7987(10)
H23F H 0.3102 0.4134 0.7710
C24F C 0.3358(5) 0.5025(6) 0.7393(10)
H24F H 0.3473 0.4930 0.6683
C25F C 0.3288(4) 0.5772(6) 0.8742(9)
H25F H 0.3354 0.6176 0.9022
C26F C 0.3025(5) 0.5304(7) 0.9437(10)
H26F H 0.2911 0.5406 1.0145
Co2A Co 0.36595(4) -0.13174(6) 0.66148(9)
Co2G Co 0.36595(4) 0.63174(6) 0.66148(9)
N1A N 0.1568(3) 0.0643(5) 1.2757(7)
N1G N 0.1568(3) 0.4357(5) 1.2757(7)
O3 O 0.9537(15) 0.2500 0.948(3)
loop_
_geom_bond_atom_site_label_1
_geom_bond_atom_site_label_2
_geom_bond_site_symmetry_1
_geom_bond_site_symmetry_2
Co1 S1 1_555 1_555
Co2 S3 1_555 1_555
Co3 S2 1_555 1_555
S1 C3 1_555 1_555
S2 C17 1_555 1_555
S3 C7 1_555 1_555
Cl1 Co1 1_555 1_555
Cl2 Co1 1_555 1_555
O1 Co1 1_555 1_555
O2 Co2 1_555 1_555
N1 C24 1_555 1_555
N2 Co3 1_555 1_555
N3 Co2 1_555 1_555
N4 N3 1_555 1_555
N5 N2 1_555 1_555
C1 N4 1_555 1_555
C2 O1 1_555 1_555
C3 C2 1_555 1_555
C4 C3 1_555 1_555
H1 C4 1_555 1_555
C5 C4 1_555 1_555
C6 C5 1_555 1_555
H2 C6 1_555 1_555
C7 C2 1_555 1_555
C8 C5 1_555 1_555
C9 C8 1_555 1_555
H3 C9 1_555 1_555
H4 C9 1_555 1_555
H5 C9 1_555 1_555
C10 C8 1_555 1_555
H6 C10 1_555 1_555
H7 C10 1_555 1_555
H8 C10 1_555 1_555
C11 C8 1_555 1_555
H9 C11 1_555 1_555
H10 C11 1_555 1_555
H11 C11 1_555 1_555
C12 O2 1_555 1_555
C13 S3 1_555 1_555
C14 C13 1_555 1_555
H12 C14 1_555 1_555
C15 C14 1_555 1_555
C16 C15 1_555 1_555
H13 C16 1_555 1_555
C17 C12 1_555 1_555
C18 C15 1_555 1_555
C19 C18 1_555 1_555
H14 C19 1_555 1_555
H15 C19 1_555 1_555
H16 C19 1_555 1_555
C20 C18 1_555 1_555
H17 C20 1_555 1_555
H18 C20 1_555 1_555
H19 C20 1_555 1_555
C21 C18 1_555 1_555
H20 C21 1_555 1_555
H21 C21 1_555 1_555
H22 C21 1_555 1_555
C22 C1 1_555 1_555
C23 C22 1_555 1_555
H23 C23 1_555 1_555
C24 C23 1_555 1_555
H24 C24 1_555 1_555
C25 N1 1_555 1_555
H25 C25 1_555 1_555
C26 C22 1_555 1_555
H26 C26 1_555 1_555
S3F C7F 1_555 1_555
O1F Co1 1_555 1_555
O2F Co3 1_555 1_555
C2F O1F 1_555 1_555
C3F S1 1_555 1_555
C4F C3F 1_555 1_555
H1F C4F 1_555 1_555
C5F C4F 1_555 1_555
C6F C5F 1_555 1_555
H2F C6F 1_555 1_555
C7F C2F 1_555 1_555
C8F C5F 1_555 1_555
C9F C8F 1_555 1_555
H3F C9F 1_555 1_555
H4F C9F 1_555 1_555
H5F C9F 1_555 1_555
C10F C8F 1_555 1_555
H6F C10F 1_555 1_555
H7F C10F 1_555 1_555
H8F C10F 1_555 1_555
C11F C8F 1_555 1_555
H9F C11F 1_555 1_555
H10F C11F 1_555 1_555
H11F C11F 1_555 1_555
C12F O2F 1_555 1_555
C13F S3F 1_555 1_555
C14F C13F 1_555 1_555
H12F C14F 1_555 1_555
C15F C14F 1_555 1_555
C16F C15F 1_555 1_555
H13F C16F 1_555 1_555
C17F S2 1_555 1_555
C18F C15F 1_555 1_555
C19F C18F 1_555 1_555
H14F C19F 1_555 1_555
H15F C19F 1_555 1_555
H16F C19F 1_555 1_555
C20F C18F 1_555 1_555
H17F C20F 1_555 1_555
H18F C20F 1_555 1_555
H19F C20F 1_555 1_555
C21F C18F 1_555 1_555
H20F C21F 1_555 1_555
H21F C21F 1_555 1_555
H22F C21F 1_555 1_555
Co2F S3F 1_555 1_555
N1F C24F 1_555 1_555
N2F Co3 1_555 1_555
N3F Co2F 1_555 1_555
N4F N3F 1_555 1_555
N5F N2F 1_555 1_555
C1F N4F 1_555 1_555
C22F C1F 1_555 1_555
C23F C22F 1_555 1_555
H23F C23F 1_555 1_555
C24F C23F 1_555 1_555
H24F C24F 1_555 1_555
C25F N1F 1_555 1_555
H25F C25F 1_555 1_555
C26F C22F 1_555 1_555
H26F C26F 1_555 1_555
Co2A N1 1_555 1_555
Co2G N1F 1_555 1_555
N1A Co2 1_555 1_555
N1G Co2F 1_555 1_555
Co2 O1 1_555 1_555
Co3 Cl1 1_555 1_555
Co3 O2 1_555 1_555
N2 N3 1_555 1_555
N5 C1 1_555 1_555
C6 C7 1_555 1_555
C12 C13 1_555 1_555
C16 C17 1_555 1_555
C25 C26 1_555 1_555
O1F Co2F 1_555 1_555
O2F Co2F 1_555 1_555
C2F C3F 1_555 1_555
C6F C7F 1_555 1_555
C12F C13F 1_555 1_555
C12F C17F 1_555 1_555
C16F C17F 1_555 1_555
N2F N3F 1_555 1_555
N5F C1F 1_555 1_555
C25F C26F 1_555 1_555

#END
