
#######################################################################
#
#                 Cambridge Crystallographic Data Centre
#                                CCDC 
#
#######################################################################
#
# If this CIF has been generated from an entry in the Cambridge 
# Structural Database, then it will include bibliographic, chemical, 
# crystal, experimental, refinement or atomic coordinate data resulting 
# from the CCDC's data processing and validation procedures.
#
#######################################################################

data_JOVXID
_symmetry_cell_setting           monoclinic
_symmetry_space_group_name_H-M   'P 21/n'
_symmetry_Int_Tables_number      14
_space_group_name_Hall           '-P 2yn'
loop_
_symmetry_equiv_pos_site_id
_symmetry_equiv_pos_as_xyz
1 x,y,z
2 1/2-x,1/2+y,1/2-z
3 -x,-y,-z
4 1/2+x,1/2-y,1/2+z
_cell_length_a                   9.535(8)
_cell_length_b                   21.819(17)
_cell_length_c                   18.829(16)
_cell_angle_alpha                90
_cell_angle_beta                 97.374(15)
_cell_angle_gamma                90
_cell_volume                     3884.87
loop_
_atom_site_label
_atom_site_type_symbol
_atom_site_fract_x
_atom_site_fract_y
_atom_site_fract_z
Cu1 Cu 1.32374(6) -0.09159(2) 0.26395(3)
O1 O 0.7780(3) -0.10378(13) 0.35513(17)
O2 O 0.5574(3) -0.09771(13) 0.30061(17)
O3 O 1.2839(3) -0.10463(13) 0.36458(16)
O4 O 1.0655(3) -0.09486(14) 0.31184(18)
O5 O 0.9306(4) -0.09841(14) 0.17014(17)
O6 O 0.7167(4) -0.10675(16) 0.1079(2)
N1 N 0.7040(5) -0.0908(2) 0.4865(2)
N2 N 0.7817(7) -0.1324(4) 0.5249(3)
N3 N 0.8816(6) -0.1018(4) 0.5674(3)
N4 N 0.8541(8) -0.0418(3) 0.5537(3)
N5 N 1.2012(5) -0.1489(2) 0.4867(2)
N6 N 1.3035(7) -0.1222(4) 0.5311(3)
N7 N 1.3803(6) -0.1674(3) 0.5649(3)
N8 N 1.3227(7) -0.2199(3) 0.5365(4)
N9 N 0.6454(7) -0.0985(3) -0.1034(3)
N10 N 0.6931(6) -0.0408(3) -0.0945(3)
N11 N 0.7961(6) -0.0369(2) -0.0442(3)
N12 N 0.8209(5) -0.0921(2) -0.0180(2)
N13 N 0.8029(4) -0.01099(15) 0.2557(2)
N14 N 1.2993(4) -0.00099(15) 0.2725(2)
N15 N 1.1971(4) 0.31803(15) 0.2538(2)
O7 O 1.3352(4) -0.07776(15) 0.16118(18)
C1 C 0.7509(6) -0.0364(3) 0.5058(3)
H1 H 0.7130 0.0013 0.4866
C2 C 0.5922(5) -0.1006(2) 0.4284(3)
H2 H 0.5203 -0.0680 0.4294
H3 H 0.5460 -0.1404 0.4354
C3 C 0.6460(5) -0.10043(17) 0.3551(2)
C4 C 1.2165(7) -0.2090(2) 0.4902(3)
H4 H 1.1589 -0.2385 0.4632
C5 C 1.0968(6) -0.1188(3) 0.4354(3)
H5 H 1.0675 -0.0800 0.4563
H6 H 1.0123 -0.1453 0.4260
C6 C 1.1529(5) -0.10505(18) 0.3647(2)
C7 C 0.7280(7) -0.1297(3) -0.0554(3)
H7 H 0.7227 -0.1726 -0.0481
C8 C 0.9206(7) -0.1038(3) 0.0452(3)
H8 H 0.9961 -0.0723 0.0490
H9 H 0.9652 -0.1444 0.0409
C9 C 0.8468(6) -0.1023(2) 0.1125(3)
C10 C 0.8586(5) 0.02492(18) 0.3099(2)
H10 H 0.9169 0.0066 0.3489
C11 C 0.8354(5) 0.08680(18) 0.3116(2)
H11 H 0.8778 0.1107 0.3507
C12 C 0.7487(5) 0.11435(17) 0.2553(2)
C13 C 0.6891(5) 0.07663(19) 0.1998(3)
H12 H 0.6283 0.0935 0.1607
C14 C 0.7185(5) 0.01461(19) 0.2018(3)
H13 H 0.6773 -0.0106 0.1635
C15 C 1.1782(5) 0.02325(19) 0.2417(3)
H14 H 1.1062 -0.0035 0.2203
C16 C 1.1533(5) 0.0854(2) 0.2396(3)
H15 H 1.0664 0.1009 0.2161
C17 C 1.2548(5) 0.12512(17) 0.2718(2)
C18 C 1.3794(5) 0.09950(18) 0.3063(3)
H16 H 1.4514 0.1248 0.3303
C19 C 1.3961(5) 0.03681(18) 0.3048(3)
H17 H 1.4815 0.0198 0.3281
C20 C 1.2364(5) 0.19255(18) 0.2666(2)
C21 C 1.1490(6) 0.21733(18) 0.2101(3)
H18 H 1.0995 0.1912 0.1750
C22 C 1.1331(5) 0.27984(19) 0.2044(3)
H19 H 1.0750 0.2964 0.1641
C23 C 1.2804(5) 0.29429(19) 0.3096(2)
H20 H 1.3259 0.3213 0.3448
C24 C 1.3029(5) 0.23197(19) 0.3181(3)
H21 H 1.3627 0.2165 0.3583
Cu2 Cu 0.84231(6) -0.10153(2) 0.25908(3)
C25 C 0.7975(5) 0.28390(19) 0.2802(3)
H22 H 0.8689 0.3113 0.3006
C26 C 0.8233(5) 0.22183(19) 0.2863(3)
H23 H 0.9081 0.2071 0.3129
C27 C 0.7233(5) 0.18079(18) 0.2529(2)
C28 C 0.6000(5) 0.20607(18) 0.2177(3)
H24 H 0.5286 0.1800 0.1944
C29 C 0.5805(5) 0.26849(19) 0.2164(3)
H25 H 0.4945 0.2847 0.1927
N16 N 0.6789(4) 0.30716(15) 0.24744(19)
Cu1_2 Cu 0.32374(6) -0.09159(2) 0.26395(3)
Cu1A Cu 1.17626(6) 0.40841(2) 0.23605(3)
O2_2 O 1.5574(3) -0.09771(13) 0.30061(17)
N15A N 1.3029(4) -0.18197(15) 0.2462(2)
Cu2A Cu 0.65769(6) 0.39847(2) 0.24092(3)
N16A N 0.8211(4) -0.19284(15) 0.25256(19)
Cl1 Cl 1.31506(18) 0.29450(7) 0.55636(8)
O8 O 1.3364(6) 0.2838(3) 0.4851(3)
O9 O 1.4036(7) 0.3434(2) 0.5866(3)
O10 O 1.3403(7) 0.2425(2) 0.5997(3)
O11 O 1.1742(6) 0.3138(4) 0.5563(3)
O12 O 0.5399(4) 0.1576(2) 0.9142(2)
loop_
_geom_bond_atom_site_label_1
_geom_bond_atom_site_label_2
_geom_bond_site_symmetry_1
_geom_bond_site_symmetry_2
Cu1 O3 1_555 1_555
O1 C3 1_555 1_555
O2 C3 1_555 1_555
O3 C6 1_555 1_555
O4 Cu1 1_555 1_555
O5 C9 1_555 1_555
O6 C9 1_555 1_555
N1 N2 1_555 1_555
N2 N3 1_555 1_555
N3 N4 1_555 1_555
N4 C1 1_555 1_555
N5 N6 1_555 1_555
N6 N7 1_555 1_555
N7 N8 1_555 1_555
N8 C4 1_555 1_555
N9 N10 1_555 1_555
N10 N11 1_555 1_555
N11 N12 1_555 1_555
N12 C7 1_555 1_555
N13 C10 1_555 1_555
N14 Cu1 1_555 1_555
N15 C22 1_555 1_555
O7 Cu1 1_555 1_555
C1 N1 1_555 1_555
H1 C1 1_555 1_555
C2 N1 1_555 1_555
H2 C2 1_555 1_555
H3 C2 1_555 1_555
C3 C2 1_555 1_555
C4 N5 1_555 1_555
H4 C4 1_555 1_555
C5 N5 1_555 1_555
H5 C5 1_555 1_555
H6 C5 1_555 1_555
C6 O4 1_555 1_555
C7 N9 1_555 1_555
H7 C7 1_555 1_555
C8 N12 1_555 1_555
H8 C8 1_555 1_555
H9 C8 1_555 1_555
C9 C8 1_555 1_555
C10 H10 1_555 1_555
C11 C10 1_555 1_555
H11 C11 1_555 1_555
C12 C11 1_555 1_555
C13 C12 1_555 1_555
H12 C13 1_555 1_555
C14 N13 1_555 1_555
H13 C14 1_555 1_555
C15 N14 1_555 1_555
H14 C15 1_555 1_555
C16 C15 1_555 1_555
H15 C16 1_555 1_555
C17 C16 1_555 1_555
C18 C17 1_555 1_555
H16 C18 1_555 1_555
C19 N14 1_555 1_555
H17 C19 1_555 1_555
C20 C17 1_555 1_555
C21 C20 1_555 1_555
H18 C21 1_555 1_555
C22 C21 1_555 1_555
H19 C22 1_555 1_555
C23 N15 1_555 1_555
H20 C23 1_555 1_555
C24 C20 1_555 1_555
H21 C24 1_555 1_555
Cu2 O1 1_555 1_555
C25 H22 1_555 1_555
C26 C25 1_555 1_555
H23 C26 1_555 1_555
C27 C12 1_555 1_555
C28 C27 1_555 1_555
H24 C28 1_555 1_555
C29 C28 1_555 1_555
H25 C29 1_555 1_555
N16 C25 1_555 1_555
Cl1 O8 1_555 1_555
O9 Cl1 1_555 1_555
O10 Cl1 1_555 1_555
O11 Cl1 1_555 1_555
Cu1_2 O2 1_555 1_555
Cu1A N15 1_555 1_555
O2_2 Cu1 1_555 1_555
N15A Cu1 1_555 1_555
Cu2A N16 1_555 1_555
N16A Cu2 1_555 1_555
O4 Cu2 1_555 1_555
O5 Cu2 1_555 1_555
N13 Cu2 1_555 1_555
C5 C6 1_555 1_555
C13 C14 1_555 1_555
C18 C19 1_555 1_555
C23 C24 1_555 1_555
C26 C27 1_555 1_555
C29 N16 1_555 1_555

#END
