
#######################################################################
#
#                 Cambridge Crystallographic Data Centre
#                                CCDC 
#
#######################################################################
#
# If this CIF has been generated from an entry in the Cambridge 
# Structural Database, then it will include bibliographic, chemical, 
# crystal, experimental, refinement or atomic coordinate data resulting 
# from the CCDC's data processing and validation procedures.
#
#######################################################################

data_JOVXEZ
_symmetry_cell_setting           monoclinic
_symmetry_space_group_name_H-M   'C 2/c'
_symmetry_Int_Tables_number      15
_space_group_name_Hall           '-C 2yn'
loop_
_symmetry_equiv_pos_site_id
_symmetry_equiv_pos_as_xyz
1 x,y,z
2 -x,y,1/2-z
3 1/2+x,1/2+y,z
4 1/2-x,1/2+y,1/2-z
5 -x,-y,-z
6 x,-y,1/2+z
7 1/2-x,1/2-y,-z
8 1/2+x,1/2-y,1/2+z
_cell_length_a                   18.299(2)
_cell_length_b                   12.4511(14)
_cell_length_c                   15.604(3)
_cell_angle_alpha                90
_cell_angle_beta                 120.1750(10)
_cell_angle_gamma                90
_cell_volume                     3073.5
loop_
_atom_site_label
_atom_site_type_symbol
_atom_site_fract_x
_atom_site_fract_y
_atom_site_fract_z
Cu1 Cu 0.26206(4) 0.22654(11) 0.17175(5)
N1 N 0.1697(4) 0.2379(7) 0.2037(4)
N2 N 0.3462(3) 0.1480(7) 0.2939(4)
C1 C 0.4674(4) 0.0309(8) 0.4572(4)
C2 C 0.0347(4) 0.2588(9) 0.2397(5)
C3 C 0.1165(5) 0.2864(10) 0.3095(6)
H1 H 0.1280 0.3104 0.3715
C4 C 0.4890(4) 0.1019(12) 0.4046(6)
H2 H 0.5456 0.1123 0.4239
C5 C 0.3257(4) 0.0831(10) 0.3440(6)
H3 H 0.2690 0.0782 0.3257
C6 C 0.0234(5) 0.2221(11) 0.1507(6)
H4 H -0.0306 0.2050 0.0997
C7 C 0.1812(5) 0.2792(9) 0.2895(6)
H5 H 0.2346 0.3035 0.3366
C8 C 0.4279(4) 0.1561(11) 0.3251(6)
H6 H 0.4446 0.2015 0.2907
C9 C 0.0911(5) 0.2106(11) 0.1363(6)
H7 H 0.0815 0.1822 0.0764
C10 C 0.3831(4) 0.0211(9) 0.4227(6)
H8 H 0.3640 -0.0276 0.4522
O1 O 0.1652(3) 0.2939(6) -0.1117(3)
O2 O 0.1797(3) 0.2828(6) 0.0379(4)
C11 C 0.2043(4) 0.2717(8) -0.0223(5)
O3 O 0.3238(4) 0.3899(7) 0.2333(6)
Cl1 Cl 0.17369(19) -0.0227(3) 0.0053(3)
O4 O 0.2099(7) 0.0234(12) 0.1020(8)
O5 O 0.1584(9) -0.1245(14) 0.0169(9)
O6 O 0.1010(11) 0.0238(16) -0.0563(11)
O7 O 0.2292(16) -0.0118(18) -0.020(2)
N1A N -0.1697(4) 0.2379(7) 0.2963(4)
C2A C -0.0347(4) 0.2588(9) 0.2603(5)
C3A C -0.1165(5) 0.2864(10) 0.1905(6)
H1A H -0.1280 0.3104 0.1285
C6A C -0.0234(5) 0.2221(11) 0.3493(6)
H4A H 0.0306 0.2050 0.4003
C7A C -0.1812(5) 0.2792(9) 0.2105(6)
H5A H -0.2346 0.3035 0.1634
C9A C -0.0911(5) 0.2106(11) 0.3637(6)
H7A H -0.0815 0.1822 0.4236
N2D N 0.6538(3) -0.1480(7) 0.7061(4)
C1D C 0.5326(4) -0.0309(8) 0.5428(4)
C4D C 0.5110(4) -0.1019(12) 0.5954(6)
H2D H 0.4544 -0.1123 0.5761
C5D C 0.6743(4) -0.0831(10) 0.6560(6)
H3D H 0.7310 -0.0782 0.6743
C8D C 0.5721(4) -0.1561(11) 0.6749(6)
H6D H 0.5554 -0.2015 0.7093
C10D C 0.6169(4) -0.0211(9) 0.5773(6)
H8D H 0.6360 0.0276 0.5478
O2F O 0.3203(3) 0.2172(6) -0.0379(4)
C11F C 0.2957(4) 0.2283(8) 0.0223(5)
O1F O 0.3348(3) 0.2061(6) 0.1117(3)
Cu1A Cu -0.26206(4) 0.22654(11) 0.32825(5)
O3A O -0.3238(4) 0.3899(7) 0.2667(6)
Cl1A Cl -0.17369(19) -0.0227(3) 0.4947(3)
O4A O -0.2099(7) 0.0234(12) 0.3980(8)
O5A O -0.1584(9) -0.1245(14) 0.4831(9)
O6A O -0.1010(11) 0.0238(16) 0.5563(11)
O7A O -0.2292(16) -0.0118(18) 0.520(2)
Cu1D Cu 0.73794(4) -0.22654(11) 0.82825(5)
Cu1F Cu 0.23794(4) 0.27346(11) -0.17175(5)
N2A N -0.3462(3) 0.1480(7) 0.2061(4)
O1G O -0.3348(3) 0.2061(6) 0.3883(3)
O2A O -0.1797(3) 0.2828(6) 0.4621(4)
O8 O 0.0356(16) -0.112(2) 0.0937(16)
loop_
_geom_bond_atom_site_label_1
_geom_bond_atom_site_label_2
_geom_bond_site_symmetry_1
_geom_bond_site_symmetry_2
Cu1 N1 1_555 1_555
N1 C7 1_555 1_555
N2 Cu1 1_555 1_555
C1 C4 1_555 1_555
C2 C3 1_555 1_555
C3 H1 1_555 1_555
C4 H2 1_555 1_555
C5 N2 1_555 1_555
H3 C5 1_555 1_555
C6 C2 1_555 1_555
H4 C6 1_555 1_555
C7 C3 1_555 1_555
H5 C7 1_555 1_555
C8 N2 1_555 1_555
H6 C8 1_555 1_555
C9 N1 1_555 1_555
H7 C9 1_555 1_555
C10 C1 1_555 1_555
H8 C10 1_555 1_555
O1 C11 1_555 1_555
O2 Cu1 1_555 1_555
C11 O2 1_555 1_555
O3 Cu1 1_555 1_555
Cl1 O4 1_555 1_555
O4 Cu1 1_555 1_555
O5 Cl1 1_555 1_555
O6 Cl1 1_555 1_555
O7 Cl1 1_555 1_555
N1A C7A 1_555 1_555
C2A C2 1_555 1_555
C3A C2A 1_555 1_555
H1A C3A 1_555 1_555
C6A C2A 1_555 1_555
H4A C6A 1_555 1_555
C7A C3A 1_555 1_555
H5A C7A 1_555 1_555
C9A N1A 1_555 1_555
H7A C9A 1_555 1_555
N2D C5D 1_555 1_555
C1D C1 1_555 1_555
C4D C1D 1_555 1_555
H2D C4D 1_555 1_555
C5D H3D 1_555 1_555
C8D N2D 1_555 1_555
H6D C8D 1_555 1_555
C10D C1D 1_555 1_555
H8D C10D 1_555 1_555
O2F C11F 1_555 1_555
C11F C11 1_555 1_555
O1F Cu1 1_555 1_555
Cu1A N1A 1_555 1_555
O3A Cu1A 1_555 1_555
Cl1A O4A 1_555 1_555
O4A Cu1A 1_555 1_555
O5A Cl1A 1_555 1_555
O6A Cl1A 1_555 1_555
O7A Cl1A 1_555 1_555
Cu1D N2D 1_555 1_555
Cu1F O1 1_555 1_555
N2A Cu1A 1_555 1_555
O1G Cu1A 1_555 1_555
O2A Cu1A 1_555 1_555
C4 C8 1_555 1_555
C5 C10 1_555 1_555
C6 C9 1_555 1_555
C6A C9A 1_555 1_555
C4D C8D 1_555 1_555
C5D C10D 1_555 1_555
O2F Cu1F 1_555 1_555
C11F O1F 1_555 1_555

#END
