
#######################################################################
#
#                 Cambridge Crystallographic Data Centre
#                                CCDC 
#
#######################################################################
#
# If this CIF has been generated from an entry in the Cambridge 
# Structural Database, then it will include bibliographic, chemical, 
# crystal, experimental, refinement or atomic coordinate data resulting 
# from the CCDC's data processing and validation procedures.
#
#######################################################################

data_JOWVEW
_symmetry_cell_setting           monoclinic
_symmetry_space_group_name_H-M   'P 21/c'
_symmetry_Int_Tables_number      14
_space_group_name_Hall           '-P 2ybc'
loop_
_symmetry_equiv_pos_site_id
_symmetry_equiv_pos_as_xyz
1 x,y,z
2 -x,1/2+y,1/2-z
3 -x,-y,-z
4 x,1/2-y,1/2+z
_cell_length_a                   13.338(2)
_cell_length_b                   11.599(1)
_cell_length_c                   7.096(2)
_cell_angle_alpha                90
_cell_angle_beta                 93.74(3)
_cell_angle_gamma                90
_cell_volume                     1095.47
loop_
_atom_site_label
_atom_site_type_symbol
_atom_site_fract_x
_atom_site_fract_y
_atom_site_fract_z
Hg1 Hg 0.08563(7) -0.15982(8) 0.0182(1)
Br1 Br 0.0077(2) -0.1566(2) -0.4195(4)
Br2 Br 0.1546(2) 0.0325(2) -0.0074(4)
O1 O 0.218(1) -0.278(1) -0.159(2)
O2 O 0.551(1) -0.536(2) 0.319(2)
O3 O 0.435(1) -0.658(2) 0.344(3)
N1 N 0.276(1) -0.348(2) -0.050(3)
N2 N 0.464(1) -0.569(2) 0.285(3)
C1 C 0.249(2) -0.459(2) -0.038(3)
C2 C 0.308(2) -0.541(2) 0.078(3)
C3 C 0.395(2) -0.495(2) 0.160(3)
C4 C 0.422(2) -0.379(2) 0.150(3)
C5 C 0.361(2) -0.304(2) 0.046(4)
C6 C 0.275(2) -0.663(2) 0.075(4)
H1 H 0.1904 -0.4857 -0.1064
H2 H 0.4815 -0.3518 0.2151
H3 H 0.3767 -0.2245 0.0403
H4 H 0.2116 -0.6685 0.0071
H5 H 0.3229 -0.7081 0.0144
H6 H 0.2701 -0.6890 0.2003
Br1C Br 0.0077(2) -0.3434(2) 0.0805(4)
Br2B Br -0.1546(2) -0.0325(2) 0.0074(4)
O1C O 0.218(1) -0.222(1) 0.341(2)
Hg1C Hg 0.08563(7) -0.34018(8) 0.5182(1)
Hg1B Hg -0.08563(7) 0.15982(8) -0.0182(1)
Hg1C_2 Hg 0.08563(7) -0.34018(8) -0.4818(1)
loop_
_geom_bond_atom_site_label_1
_geom_bond_atom_site_label_2
_geom_bond_site_symmetry_1
_geom_bond_site_symmetry_2
Hg1 Br1 1_555 1_555
Br1 Hg1C_2 1_555 1_555
Br2 Hg1 1_555 1_555
O1 Hg1 1_555 1_555
O2 N2 1_555 1_555
O3 N2 1_555 1_555
N1 O1 1_555 1_555
N2 C3 1_555 1_555
C1 N1 1_555 1_555
C2 C1 1_555 1_555
C3 C2 1_555 1_555
C4 C3 1_555 1_555
C5 N1 1_555 1_555
C6 C2 1_555 1_555
H1 C1 1_555 1_555
H2 C4 1_555 1_555
H3 C5 1_555 1_555
H4 C6 1_555 1_555
H5 C6 1_555 1_555
H6 C6 1_555 1_555
Br1C Hg1 1_555 1_555
Br2B Hg1 1_555 1_555
O1C Hg1 1_555 1_555
Hg1C Br1C 1_555 1_555
Hg1B Br2 1_555 1_555
Hg1C_2 O1 1_555 1_555
C4 C5 1_555 1_555
Br2B Hg1B 1_555 1_555
O1C Hg1C 1_555 1_555

#END
