
#######################################################################
#
#                 Cambridge Crystallographic Data Centre
#                                CCDC 
#
#######################################################################
#
# If this CIF has been generated from an entry in the Cambridge 
# Structural Database, then it will include bibliographic, chemical, 
# crystal, experimental, refinement or atomic coordinate data resulting 
# from the CCDC's data processing and validation procedures.
#
#######################################################################

data_JOXBIJ
_symmetry_cell_setting           monoclinic
_symmetry_space_group_name_H-M   'P 21/c'
_symmetry_Int_Tables_number      14
_space_group_name_Hall           '-P 2ybc'
loop_
_symmetry_equiv_pos_site_id
_symmetry_equiv_pos_as_xyz
1 x,y,z
2 -x,1/2+y,1/2-z
3 -x,-y,-z
4 x,1/2-y,1/2+z
_cell_length_a                   13.856(4)
_cell_length_b                   14.156(4)
_cell_length_c                   9.620(3)
_cell_angle_alpha                90
_cell_angle_beta                 110.167(5)
_cell_angle_gamma                90
_cell_volume                     1771.24
loop_
_atom_site_label
_atom_site_type_symbol
_atom_site_fract_x
_atom_site_fract_y
_atom_site_fract_z
C1 C 0.0531(3) 0.3632(3) 0.7827(6)
H1 H -0.0136 0.3812 0.7723
C2 C 0.1023(3) 0.3008(3) 0.8950(6)
H2 H 0.0700 0.2776 0.9583
C3 C 0.2011(3) 0.2740(3) 0.9097(5)
H3 H 0.2364 0.2311 0.9827
C4 C 0.2470(3) 0.3109(3) 0.8167(5)
C5 C 0.1900(3) 0.3739(3) 0.7091(5)
H4 H 0.2216 0.4000 0.6470
C6 C 0.3511(3) 0.2842(3) 0.8151(5)
C7 C 0.5455(3) 0.1381(3) 1.0347(5)
H5 H 0.5110 0.1207 1.0983
C8 C 0.6453(2) 0.0943(3) 1.0567(5)
C9 C 0.6756(3) 0.0211(3) 1.1547(5)
H6 H 0.6323 0.0035 1.2057
C10 C 0.7670(3) -0.0292(3) 1.1835(5)
H7 H 0.7823 -0.0788 1.2512
C11 C 0.8349(3) -0.0060(3) 1.1124(4)
C12 C 0.8063(2) 0.0717(2) 1.0093(4)
C13 C 0.7131(3) 0.1227(3) 0.9819(4)
C14 C 0.6971(3) 0.1991(3) 0.8827(5)
H8 H 0.6375 0.2351 0.8602
C15 C 0.7686(3) 0.2208(3) 0.8194(5)
H9 H 0.7585 0.2721 0.7557
C16 C 0.8573(3) 0.1652(3) 0.8510(5)
H10 H 0.9046 0.1795 0.8053
N1 N 0.8755(2) 0.0940(2) 0.9424(4)
N2 N 0.0940(2) 0.3998(2) 0.6880(4)
N3 N 0.5030(2) 0.1982(2) 0.9348(4)
N4 N 0.4078(2) 0.2296(2) 0.9309(4)
O1 O 0.92132(17) -0.04990(18) 1.1321(3)
O2 O 0.3805(2) 0.3079(2) 0.7145(3)
H11 H 0.3912 0.2256 1.0130
Zn1 Zn 0.0000 0.5000 0.5000
C1B C -0.0531(3) 0.6368(3) 0.2173(6)
H1B H 0.0136 0.6188 0.2277
C2B C -0.1023(3) 0.6992(3) 0.1050(6)
H2B H -0.0700 0.7224 0.0417
C3B C -0.2011(3) 0.7260(3) 0.0903(5)
H3B H -0.2364 0.7689 0.0173
C4B C -0.2470(3) 0.6891(3) 0.1833(5)
C5B C -0.1900(3) 0.6261(3) 0.2909(5)
H4B H -0.2216 0.6000 0.3530
C6B C -0.3511(3) 0.7158(3) 0.1849(5)
C7B C -0.5455(3) 0.8619(3) -0.0347(5)
H5B H -0.5110 0.8793 -0.0983
C8B C -0.6453(2) 0.9057(3) -0.0567(5)
C9B C -0.6756(3) 0.9789(3) -0.1547(5)
H6B H -0.6323 0.9965 -0.2057
C10B C -0.7670(3) 1.0292(3) -0.1835(5)
H7B H -0.7823 1.0788 -0.2512
C11B C -0.8349(3) 1.0060(3) -0.1124(4)
C12B C -0.8063(2) 0.9283(2) -0.0093(4)
C13B C -0.7131(3) 0.8773(3) 0.0181(4)
C14B C -0.6971(3) 0.8009(3) 0.1173(5)
H8B H -0.6375 0.7649 0.1398
C15B C -0.7686(3) 0.7792(3) 0.1806(5)
H9B H -0.7585 0.7279 0.2443
C16B C -0.8573(3) 0.8348(3) 0.1490(5)
H10B H -0.9046 0.8205 0.1947
N1B N -0.8755(2) 0.9060(2) 0.0576(4)
N2B N -0.0940(2) 0.6002(2) 0.3120(4)
N3B N -0.5030(2) 0.8018(2) 0.0652(4)
N4B N -0.4078(2) 0.7704(2) 0.0691(4)
O1B O -0.92132(17) 1.04990(18) -0.1321(3)
O2B O -0.3805(2) 0.6921(2) 0.2855(3)
H11B H -0.3912 0.7744 -0.0130
N1A N 0.1245(2) 0.5940(2) 0.5576(4)
N1C N -0.1245(2) 0.4060(2) 0.4424(4)
O1A O 0.07868(17) 0.45010(18) 0.3679(3)
O1C O -0.07868(17) 0.54990(18) 0.6321(3)
Zn1A Zn -1.0000 1.0000 0.0000
Zn1A_2 Zn 1.0000 0.0000 1.0000
C17 C 0.8946(6) 0.0815(5) 0.5273(8)
H12 H 0.8468 0.0763 0.5791
H13 H 0.9218 0.0202 0.5191
H14 H 0.8602 0.1067 0.4301
O3 O 0.9747(3) 0.1414(4) 0.6050(5)
H15 H 1.0116 0.1149 0.6803
C18 C 0.5189(4) 0.0536(4) 0.6253(7)
H16 H 0.5440 0.0066 0.7028
H17 H 0.5213 0.1148 0.6719
C19 C 0.5864(4) 0.0551(4) 0.5338(8)
H18 H 0.5640 0.1049 0.4603
H19 H 0.6565 0.0686 0.5965
O4 O 0.5830(3) -0.0325(3) 0.4621(4)
C18B C 0.4811(4) -0.0536(4) 0.3747(7)
H16B H 0.4560 -0.0066 0.2972
H17B H 0.4787 -0.1148 0.3281
C19B C 0.4136(4) -0.0551(4) 0.4662(8)
H18B H 0.4360 -0.1049 0.5397
H19B H 0.3435 -0.0686 0.4035
O4B O 0.4170(3) 0.0325(3) 0.5379(4)
loop_
_geom_bond_atom_site_label_1
_geom_bond_atom_site_label_2
_geom_bond_site_symmetry_1
_geom_bond_site_symmetry_2
C1 H1 1_555 1_555
C2 C1 1_555 1_555
H2 C2 1_555 1_555
C3 C2 1_555 1_555
H3 C3 1_555 1_555
C4 C3 1_555 1_555
C5 C4 1_555 1_555
H4 C5 1_555 1_555
C6 C4 1_555 1_555
C7 H5 1_555 1_555
C8 C7 1_555 1_555
C9 C8 1_555 1_555
H6 C9 1_555 1_555
C10 C9 1_555 1_555
H7 C10 1_555 1_555
C11 C10 1_555 1_555
C12 C11 1_555 1_555
C13 C8 1_555 1_555
C14 C13 1_555 1_555
H8 C14 1_555 1_555
C15 C14 1_555 1_555
H9 C15 1_555 1_555
C16 C15 1_555 1_555
H10 C16 1_555 1_555
N1 C12 1_555 1_555
N2 C1 1_555 1_555
N3 C7 1_555 1_555
N4 C6 1_555 1_555
O1 C11 1_555 1_555
O2 C6 1_555 1_555
H11 N4 1_555 1_555
Zn1 N2 1_555 1_555
C17 H12 1_555 1_555
H13 C17 1_555 1_555
H14 C17 1_555 1_555
O3 C17 1_555 1_555
H15 O3 1_555 1_555
C18 H16 1_555 1_555
H17 C18 1_555 1_555
C19 C18 1_555 1_555
H18 C19 1_555 1_555
H19 C19 1_555 1_555
O4 C19 1_555 1_555
C1B H1B 1_555 1_555
C2B C1B 1_555 1_555
H2B C2B 1_555 1_555
C3B C2B 1_555 1_555
H3B C3B 1_555 1_555
C4B C3B 1_555 1_555
C5B C4B 1_555 1_555
H4B C5B 1_555 1_555
C6B C4B 1_555 1_555
C7B H5B 1_555 1_555
C8B C7B 1_555 1_555
C9B C8B 1_555 1_555
H6B C9B 1_555 1_555
C10B C9B 1_555 1_555
H7B C10B 1_555 1_555
C11B C10B 1_555 1_555
C12B C11B 1_555 1_555
C13B C8B 1_555 1_555
C14B C13B 1_555 1_555
H8B C14B 1_555 1_555
C15B C14B 1_555 1_555
H9B C15B 1_555 1_555
C16B C15B 1_555 1_555
H10B C16B 1_555 1_555
N1B C12B 1_555 1_555
N2B Zn1 1_555 1_555
N3B C7B 1_555 1_555
N4B C6B 1_555 1_555
O1B C11B 1_555 1_555
O2B C6B 1_555 1_555
H11B N4B 1_555 1_555
N1A Zn1 1_555 1_555
N1C Zn1 1_555 1_555
O1A Zn1 1_555 1_555
O1C Zn1 1_555 1_555
Zn1A N1B 1_555 1_555
Zn1A_2 N1 1_555 1_555
C18B O4 1_555 1_555
H16B C18B 1_555 1_555
H17B C18B 1_555 1_555
C19B C18B 1_555 1_555
H18B C19B 1_555 1_555
H19B C19B 1_555 1_555
O4B C18 1_555 1_555
C5 N2 1_555 1_555
C12 C13 1_555 1_555
C16 N1 1_555 1_555
N3 N4 1_555 1_555
O1 Zn1A_2 1_555 1_555
C1B N2B 1_555 1_555
C5B N2B 1_555 1_555
C12B C13B 1_555 1_555
C16B N1B 1_555 1_555
N3B N4B 1_555 1_555
O1B Zn1A 1_555 1_555
C19B O4B 1_555 1_555

#END
