
#######################################################################
#
#                 Cambridge Crystallographic Data Centre
#                                CCDC 
#
#######################################################################
#
# If this CIF has been generated from an entry in the Cambridge 
# Structural Database, then it will include bibliographic, chemical, 
# crystal, experimental, refinement or atomic coordinate data resulting 
# from the CCDC's data processing and validation procedures.
#
#######################################################################

data_JOXMIS
_symmetry_cell_setting           triclinic
_symmetry_space_group_name_H-M   'P -1'
_symmetry_Int_Tables_number      2
_space_group_name_Hall           '-P 1'
loop_
_symmetry_equiv_pos_site_id
_symmetry_equiv_pos_as_xyz
1 x,y,z
2 -x,-y,-z
_cell_length_a                   6.117(1)
_cell_length_b                   7.866(1)
_cell_length_c                   14.329(2)
_cell_angle_alpha                101.13
_cell_angle_beta                 99.66
_cell_angle_gamma                98.39
_cell_volume                     655.471
loop_
_atom_site_label
_atom_site_type_symbol
_atom_site_fract_x
_atom_site_fract_y
_atom_site_fract_z
Tl1 Tl -0.04289(3) -0.31181(2) -0.08477(1)
O1 O 0.1422(5) -0.6012(4) -0.0760(2)
O2 O 0.3649(6) -0.3971(4) -0.1206(3)
O3 O 0.7827(5) -0.9171(4) -0.0786(2)
O4 O -0.0445(4) -1.1563(4) -0.2918(2)
N1 N 0.1902(5) -0.9549(4) -0.1695(3)
N2 N 0.5583(5) -1.0834(4) -0.2156(2)
C1 C 0.3125(7) -0.5482(5) -0.1089(3)
C2 C 0.4685(7) -0.6771(5) -0.1341(3)
C3 C 0.4102(6) -0.8593(5) -0.1143(3)
C4 C 0.1487(6) -1.0830(5) -0.2479(3)
C5 C 0.3469(6) -1.1494(5) -0.2848(3)
C6 C 0.5951(6) -0.9595(5) -0.1350(3)
C7 C 0.3634(7) -1.1100(5) -0.3857(3)
C8 C 0.4350(6) -0.9186(5) -0.3844(3)
C9 C 0.2792(8) -0.8141(6) -0.4095(3)
C10 C 0.3478(9) -0.6369(6) -0.4072(4)
C11 C 0.5750(9) -0.5598(6) -0.3791(4)
C12 C 0.7296(8) -0.6617(6) -0.3536(3)
C13 C 0.6634(7) -0.8384(6) -0.3570(3)
H1 H 0.087(7) -0.910(5) -0.159(3)
H2 H 0.656(8) -1.124(6) -0.234(3)
H3 H 0.473(7) -0.687(6) -0.199(3)
H4 H 0.605(9) -0.625(7) -0.093(4)
H5 H 0.413(6) -0.845(4) -0.048(3)
H6 H 0.317(6) -1.278(5) -0.291(3)
H7 H 0.477(7) -1.165(5) -0.414(3)
H8 H 0.219(9) -1.151(6) -0.427(4)
H9 H 0.118(8) -0.864(6) -0.430(3)
H10 H 0.228(9) -0.570(7) -0.430(4)
H11 H 0.614(8) -0.444(6) -0.376(3)
H12 H 0.895(8) -0.613(6) -0.333(4)
H13 H 0.764(6) -0.908(4) -0.347(3)
O1A O -0.1422(5) -0.3988(4) 0.0760(2)
O3A O 0.2173(5) -0.0829(4) 0.0786(2)
Tl1A Tl 0.04289(3) -0.68819(2) 0.08477(1)
Tl1A_2 Tl 1.04289(3) -0.68819(2) 0.08477(1)
loop_
_geom_bond_atom_site_label_1
_geom_bond_atom_site_label_2
_geom_bond_site_symmetry_1
_geom_bond_site_symmetry_2
Tl1 O1 1_555 1_555
O1 C1 1_555 1_555
O2 Tl1 1_555 1_555
O3 C6 1_555 1_555
O4 C4 1_555 1_555
N1 C3 1_555 1_555
N2 C5 1_555 1_555
C1 O2 1_555 1_555
C2 C1 1_555 1_555
C3 C2 1_555 1_555
C4 N1 1_555 1_555
C5 C4 1_555 1_555
C6 N2 1_555 1_555
C7 C5 1_555 1_555
C8 C7 1_555 1_555
C9 C8 1_555 1_555
C10 C9 1_555 1_555
C11 C10 1_555 1_555
C12 C11 1_555 1_555
C13 C8 1_555 1_555
H1 N1 1_555 1_555
H2 N2 1_555 1_555
H3 C2 1_555 1_555
H4 C2 1_555 1_555
H5 C3 1_555 1_555
H6 C5 1_555 1_555
H7 C7 1_555 1_555
H8 C7 1_555 1_555
H9 C9 1_555 1_555
H10 C10 1_555 1_555
H11 C11 1_555 1_555
H12 C12 1_555 1_555
H13 C13 1_555 1_555
O1A Tl1 1_555 1_555
O3A Tl1 1_555 1_555
Tl1A O1 1_555 1_555
Tl1A_2 O3 1_555 1_555
C3 C6 1_555 1_555
C12 C13 1_555 1_555
O1A Tl1A 1_555 1_555

#END
