
#######################################################################
#
#                 Cambridge Crystallographic Data Centre
#                                CCDC 
#
#######################################################################
#
# If this CIF has been generated from an entry in the Cambridge 
# Structural Database, then it will include bibliographic, chemical, 
# crystal, experimental, refinement or atomic coordinate data resulting 
# from the CCDC's data processing and validation procedures.
#
#######################################################################

data_JOXNER
_symmetry_cell_setting           orthorhombic
_symmetry_space_group_name_H-M   'F d d d'
_symmetry_Int_Tables_number      70
_space_group_name_Hall           '-F 2uv 2vw'
loop_
_symmetry_equiv_pos_site_id
_symmetry_equiv_pos_as_xyz
1 x,y,z
2 1/4-x,1/4-y,z
3 x,1/4-y,1/4-z
4 1/4-x,y,1/4-z
5 x,1/2+y,1/2+z
6 1/4-x,3/4-y,1/2+z
7 x,3/4-y,3/4-z
8 1/4-x,1/2+y,3/4-z
9 1/2+x,y,1/2+z
10 3/4-x,1/4-y,1/2+z
11 1/2+x,1/4-y,3/4-z
12 3/4-x,y,3/4-z
13 1/2+x,1/2+y,z
14 3/4-x,3/4-y,z
15 1/2+x,3/4-y,1/4-z
16 3/4-x,1/2+y,1/4-z
17 -x,-y,-z
18 3/4+x,3/4+y,-z
19 -x,3/4+y,3/4+z
20 3/4+x,-y,3/4+z
21 -x,1/2-y,1/2-z
22 3/4+x,1/4+y,1/2-z
23 -x,1/4+y,1/4+z
24 3/4+x,1/2-y,1/4+z
25 1/2-x,-y,1/2-z
26 1/4+x,3/4+y,1/2-z
27 1/2-x,3/4+y,1/4+z
28 1/4+x,-y,1/4+z
29 1/2-x,1/2-y,-z
30 1/4+x,1/4+y,-z
31 1/2-x,1/4+y,3/4+z
32 1/4+x,1/2-y,3/4+z
_cell_length_a                   59.030(4)
_cell_length_b                   23.4150(18)
_cell_length_c                   16.1795(7)
_cell_angle_alpha                90
_cell_angle_beta                 90
_cell_angle_gamma                90
_cell_volume                     22363.1
loop_
_atom_site_label
_atom_site_type_symbol
_atom_site_fract_x
_atom_site_fract_y
_atom_site_fract_z
In1 In 0.0000 0.5000 0.5000
In2 In 0.00589(2) 0.3750 0.3750
I1 I 0.104028(15) 0.42186(7) 0.50704(5)
I2 I 0.093123(15) 0.28865(8) 0.70235(6)
Cu1 Cu 0.11373(3) 0.31565(14) 0.55503(12)
Cu2 Cu 0.10640(3) 0.39720(15) 0.66884(12)
N1 N 0.0833(2) 0.4520(8) 0.7215(8)
N2 N 0.0959(2) 0.2630(8) 0.4790(8)
C1 C 0.0750(2) 0.2798(7) 0.4564(8)
H1 H 0.0698 0.3163 0.4733
C2 C 0.0382(2) 0.2686(6) 0.3843(8)
C3 C 0.0609(2) 0.2456(5) 0.4093(7)
C4 C 0.0654(2) 0.4687(6) 0.6786(8)
H2 H 0.0633 0.4533 0.6248
C5 C 0.0497(3) 0.5071(6) 0.7079(9)
O1 O 0.03269(17) 0.3171(5) 0.4104(7)
O2 O 0.02630(15) 0.2352(4) 0.3396(6)
C6 C 0.0306(2) 0.5257(5) 0.6533(8)
C7 C 0.0526(4) 0.5312(9) 0.7867(11)
H3 H 0.0427 0.5597 0.8077
C8 C 0.0857(4) 0.4734(11) 0.7983(10)
H4 H 0.0984 0.4616 0.8304
C9 C 0.0709(4) 0.5111(11) 0.8317(11)
H5 H 0.0730 0.5239 0.8868
C10 C 0.1029(4) 0.2155(12) 0.4487(15)
H6 H 0.1185 0.2068 0.4560
O3 O 0.00442(14) 0.4132(3) 0.4907(5)
O4 O 0.02689(15) 0.4978(3) 0.5916(6)
O5 O 0.0197(2) 0.5688(5) 0.6777(6)
C11 C 0.0679(4) 0.1935(11) 0.3811(17)
H7 H 0.0584 0.1709 0.3465
C12 C 0.0896(5) 0.1745(10) 0.405(2)
H8 H 0.0949 0.1371 0.3932
I1C I 0.145972(15) 0.42186(7) 0.74296(5)
I2C I 0.156877(15) 0.28865(8) 0.54765(6)
Cu1C Cu 0.13627(3) 0.31565(14) 0.69497(12)
Cu2C Cu 0.14360(3) 0.39720(15) 0.58116(12)
N1C N 0.1667(2) 0.4520(8) 0.5285(8)
N2C N 0.1541(2) 0.2630(8) 0.7710(8)
C1C C 0.1750(2) 0.2798(7) 0.7936(8)
H1C H 0.1802 0.3163 0.7767
C2C C 0.2118(2) 0.2686(6) 0.8657(8)
C3C C 0.1891(2) 0.2456(5) 0.8407(7)
C4C C 0.1846(2) 0.4687(6) 0.5714(8)
H2C H 0.1867 0.4533 0.6252
C5C C 0.2003(3) 0.5071(6) 0.5421(9)
O1C O 0.21731(17) 0.3171(5) 0.8396(7)
O2C O 0.22370(15) 0.2352(4) 0.9104(6)
C6C C 0.2194(2) 0.5257(5) 0.5967(8)
C7C C 0.1974(4) 0.5312(9) 0.4633(11)
H3C H 0.2073 0.5597 0.4423
C8C C 0.1643(4) 0.4734(11) 0.4517(10)
H4C H 0.1516 0.4616 0.4196
C9C C 0.1791(4) 0.5111(11) 0.4183(11)
H5C H 0.1770 0.5239 0.3632
C10C C 0.1471(4) 0.2155(12) 0.8013(15)
H6C H 0.1315 0.2068 0.7940
O4C O 0.22311(15) 0.4978(3) 0.6584(6)
O5C O 0.2303(2) 0.5688(5) 0.5723(6)
C11C C 0.1821(4) 0.1935(11) 0.8689(17)
H7C H 0.1916 0.1709 0.9035
C12C C 0.1604(5) 0.1745(10) 0.845(2)
H8C H 0.1551 0.1371 0.8568
O3P O -0.00442(14) 0.5868(3) 0.5093(5)
In1C In 0.2500 0.5000 0.7500
In1E In 0.2500 0.2500 1.0000
In1F In 0.0000 0.2500 0.2500
In2C In 0.24411(2) 0.3750 0.8750
In2P In -0.00589(2) 0.6250 0.6250
In2AA In 0.25589(2) 0.6250 0.6250
O1F O 0.03269(17) 0.4329(5) 0.3396(7)
O2F O 0.02630(15) 0.5148(4) 0.4104(6)
O2V O -0.02630(15) 0.4852(4) 0.5896(6)
O3F O 0.00442(14) 0.3368(3) 0.2593(5)
O4P O -0.02689(15) 0.5022(3) 0.4084(6)
O5P O -0.0197(2) 0.4312(5) 0.3223(6)
O5R O -0.0197(2) 0.3188(5) 0.4277(6)
loop_
_geom_bond_atom_site_label_1
_geom_bond_atom_site_label_2
_geom_bond_site_symmetry_1
_geom_bond_site_symmetry_2
In1 O3 1_555 1_555
In2 O1 1_555 1_555
I1 Cu1 1_555 1_555
I2 Cu1 1_555 1_555
Cu1 N2 1_555 1_555
Cu2 I1 1_555 1_555
N1 Cu2 1_555 1_555
N2 C1 1_555 1_555
C1 H1 1_555 1_555
C2 C3 1_555 1_555
C3 C1 1_555 1_555
C4 N1 1_555 1_555
H2 C4 1_555 1_555
C5 C4 1_555 1_555
O1 C2 1_555 1_555
O2 C2 1_555 1_555
C6 C5 1_555 1_555
C7 C5 1_555 1_555
H3 C7 1_555 1_555
C8 N1 1_555 1_555
H4 C8 1_555 1_555
C9 C7 1_555 1_555
H5 C9 1_555 1_555
C10 N2 1_555 1_555
H6 C10 1_555 1_555
O3 In2 1_555 1_555
O4 In1 1_555 1_555
O5 C6 1_555 1_555
C11 C3 1_555 1_555
H7 C11 1_555 1_555
C12 C10 1_555 1_555
H8 C12 1_555 1_555
I1C Cu2 1_555 1_555
I2C Cu1 1_555 1_555
Cu1C I2 1_555 1_555
Cu2C I1 1_555 1_555
N1C Cu2C 1_555 1_555
N2C Cu1C 1_555 1_555
C1C N2C 1_555 1_555
H1C C1C 1_555 1_555
C2C C3C 1_555 1_555
C3C C1C 1_555 1_555
C4C N1C 1_555 1_555
H2C C4C 1_555 1_555
C5C C4C 1_555 1_555
O1C C2C 1_555 1_555
O2C C2C 1_555 1_555
C6C C5C 1_555 1_555
C7C C5C 1_555 1_555
H3C C7C 1_555 1_555
C8C N1C 1_555 1_555
H4C C8C 1_555 1_555
C9C C7C 1_555 1_555
H5C C9C 1_555 1_555
C10C N2C 1_555 1_555
H6C C10C 1_555 1_555
O4C C6C 1_555 1_555
O5C C6C 1_555 1_555
C11C C3C 1_555 1_555
H7C C11C 1_555 1_555
C12C C10C 1_555 1_555
H8C C12C 1_555 1_555
O3P In1 1_555 1_555
In1C O4C 1_555 1_555
In1E O2C 1_555 1_555
In1F O2 1_555 1_555
In2C O1C 1_555 1_555
In2P O5 1_555 1_555
In2AA O5C 1_555 1_555
O1F In2 1_555 1_555
O2F In1 1_555 1_555
O2V In1 1_555 1_555
O3F In2 1_555 1_555
O4P In1 1_555 1_555
O5P In2 1_555 1_555
O5R In2 1_555 1_555
I2 Cu2 1_555 1_555
C6 O4 1_555 1_555
C8 C9 1_555 1_555
C11 C12 1_555 1_555
I1C Cu1C 1_555 1_555
I1C Cu2C 1_555 1_555
I2C Cu1C 1_555 1_555
I2C Cu2C 1_555 1_555
C8C C9C 1_555 1_555
C11C C12C 1_555 1_555
O3P In2P 1_555 1_555
In1F O3F 1_555 1_555

#END
