
#######################################################################
#
#                 Cambridge Crystallographic Data Centre
#                                CCDC 
#
#######################################################################
#
# If this CIF has been generated from an entry in the Cambridge 
# Structural Database, then it will include bibliographic, chemical, 
# crystal, experimental, refinement or atomic coordinate data resulting 
# from the CCDC's data processing and validation procedures.
#
#######################################################################

data_JOXQAQ
_symmetry_cell_setting           triclinic
_symmetry_space_group_name_H-M   'P -1'
_symmetry_Int_Tables_number      2
_space_group_name_Hall           '-P 1'
loop_
_symmetry_equiv_pos_site_id
_symmetry_equiv_pos_as_xyz
1 x,y,z
2 -x,-y,-z
_cell_length_a                   6.641(2)
_cell_length_b                   10.095(3)
_cell_length_c                   14.902(5)
_cell_angle_alpha                99.44(3)
_cell_angle_beta                 101.82(3)
_cell_angle_gamma                106.00(3)
_cell_volume                     913.807
loop_
_atom_site_label
_atom_site_type_symbol
_atom_site_fract_x
_atom_site_fract_y
_atom_site_fract_z
Ag1 Ag 0.4144(5) 0.1749(4) 0.20032(17)
C1 C -0.270(7) -0.150(6) 0.114(3)
H1 H -0.2779 -0.2167 0.1507
C2 C -0.333(6) -0.189(4) 0.021(3)
H2 H -0.3978 -0.2851 -0.0069
C3 C -0.232(5) 0.041(3) 0.0029(19)
C4 C -0.170(7) 0.091(5) 0.104(2)
C5 C -0.072(6) 0.238(4) 0.155(2)
C6 C -0.203(6) 0.141(4) -0.061(2)
C7 C 0.599(6) 0.181(5) 0.411(2)
H3 H 0.5540 0.0842 0.3849
C8 C 0.686(5) 0.228(5) 0.506(2)
H4 H 0.6974 0.1623 0.5415
C9 C 0.737(5) 0.456(4) 0.494(2)
C10 C 0.644(5) 0.413(4) 0.396(2)
C11 C 0.639(4) 0.513(3) 0.3301(17)
C12 C 0.811(4) 0.616(3) 0.5439(19)
Ho1 Ho 0.10867(19) 0.51317(17) 0.27165(8)
N1 N -0.190(5) -0.004(3) 0.156(2)
N2 N -0.311(5) -0.102(4) -0.0366(19)
N3 N 0.576(4) 0.266(3) 0.3550(17)
N4 N 0.754(4) 0.363(4) 0.5485(17)
O1 O 0.132(4) 0.297(3) 0.1768(15)
O2 O -0.196(4) 0.306(4) 0.1804(16)
O3 O -0.135(6) 0.269(4) -0.021(2)
O4 O -0.255(5) 0.092(4) -0.1461(15)
O5 O 0.468(4) 0.522(3) 0.3019(17)
O6 O 0.809(4) 0.566(3) 0.3049(15)
O7 O 0.779(4) 0.702(4) 0.5001(15)
O8 O 0.909(4) 0.638(3) 0.6307(14)
O9 O 0.004(5) 0.544(3) 0.1187(18)
H5 H 0.0331 0.6110 0.0902
H6 H -0.0797 0.4682 0.0796
O10 O 0.265(4) 0.756(3) 0.2778(19)
H7 H 0.4013 0.7749 0.2967
H8 H 0.2416 0.8227 0.2534
Ag1_2 Ag -0.5856(5) 0.1749(4) 0.20032(17)
Ag1A Ag -0.4144(5) -0.1749(4) -0.20032(17)
Ho1_2 Ho 1.10867(19) 0.51317(17) 0.27165(8)
Ho1A Ho 0.89133(19) 0.48683(17) 0.72835(8)
N2A N 0.311(5) 0.102(4) 0.0366(19)
N4A N 0.246(4) 0.637(4) 0.4515(17)
O2_2 O 0.804(4) 0.306(4) 0.1804(16)
O4A O 0.255(5) -0.092(4) 0.1461(15)
O6_2 O -0.191(4) 0.566(3) 0.3049(15)
O8A O 0.091(4) 0.362(3) 0.3693(14)
O11 O 0.065(5) 0.029(4) 0.356(2)
H9 H 0.1010 0.0994 0.4029
H10 H -0.0055 0.0456 0.3075
O12 O 0.688(5) 0.866(5) 0.384(2)
H11 H 0.7999 0.9277 0.3794
H12 H 0.7206 0.8308 0.4306
loop_
_geom_bond_atom_site_label_1
_geom_bond_atom_site_label_2
_geom_bond_site_symmetry_1
_geom_bond_site_symmetry_2
Ag1 N3 1_555 1_555
C1 H1 1_555 1_555
C2 C1 1_555 1_555
H2 C2 1_555 1_555
C3 C4 1_555 1_555
C4 C5 1_555 1_555
C5 O1 1_555 1_555
C6 C3 1_555 1_555
C7 H3 1_555 1_555
C8 C7 1_555 1_555
H4 C8 1_555 1_555
C9 C10 1_555 1_555
C10 C11 1_555 1_555
C11 O5 1_555 1_555
C12 C9 1_555 1_555
Ho1 O1 1_555 1_555
N1 C1 1_555 1_555
N2 C2 1_555 1_555
N3 C7 1_555 1_555
N4 C8 1_555 1_555
O1 Ag1 1_555 1_555
O2 C5 1_555 1_555
O3 C6 1_555 1_555
O4 C6 1_555 1_555
O5 Ho1 1_555 1_555
O6 C11 1_555 1_555
O7 C12 1_555 1_555
O8 C12 1_555 1_555
O9 Ho1 1_555 1_555
H5 O9 1_555 1_555
H6 O9 1_555 1_555
O10 Ho1 1_555 1_555
H7 O10 1_555 1_555
H8 O10 1_555 1_555
O11 H9 1_555 1_555
H10 O11 1_555 1_555
O12 H11 1_555 1_555
H12 O12 1_555 1_555
Ag1_2 O2 1_555 1_555
Ag1A N2 1_555 1_555
Ho1_2 O6 1_555 1_555
Ho1A N4 1_555 1_555
N2A Ag1 1_555 1_555
N4A Ho1 1_555 1_555
O2_2 Ag1 1_555 1_555
O4A Ag1 1_555 1_555
O6_2 Ho1 1_555 1_555
O8A Ho1 1_555 1_555
C3 N2 1_555 1_555
C4 N1 1_555 1_555
C9 N4 1_555 1_555
C10 N3 1_555 1_555
Ho1 O2 1_555 1_555
O4 Ag1A 1_555 1_555
O8 Ho1A 1_555 1_555
Ho1_2 O2_2 1_555 1_555

#END
