
#######################################################################
#
#                 Cambridge Crystallographic Data Centre
#                                CCDC 
#
#######################################################################
#
# If this CIF has been generated from an entry in the Cambridge 
# Structural Database, then it will include bibliographic, chemical, 
# crystal, experimental, refinement or atomic coordinate data resulting 
# from the CCDC's data processing and validation procedures.
#
#######################################################################

data_JOYHOW
_symmetry_cell_setting           hexagonal
_symmetry_space_group_name_H-M   'P 61'
_symmetry_Int_Tables_number      169
_space_group_name_Hall           'P 61'
loop_
_symmetry_equiv_pos_site_id
_symmetry_equiv_pos_as_xyz
1 x,y,z
2 x-y,x,1/6+z
3 -y,x-y,1/3+z
4 -x,-y,1/2+z
5 -x+y,-x,2/3+z
6 y,-x+y,5/6+z
_cell_length_a                   13.3384(19)
_cell_length_b                   13.3384(19)
_cell_length_c                   24.957(5)
_cell_angle_alpha                90
_cell_angle_beta                 90
_cell_angle_gamma                120
_cell_volume                     3845.3
loop_
_atom_site_label
_atom_site_type_symbol
_atom_site_fract_x
_atom_site_fract_y
_atom_site_fract_z
Cd1 Cd 0.11549(5) 0.71693(5) 0.11990(3)
Cd2 Cd 0.00945(5) 0.38612(5) 0.07650(3)
N1 N 0.2764(6) 0.8412(7) 0.1656(3)
N2 N 0.2657(7) 0.9096(7) 0.2023(3)
N3 N 0.3654(7) 0.9740(7) 0.2245(3)
N4 N 0.4461(6) 0.9513(7) 0.2043(3)
N5 N 0.4320(7) 0.8202(8) 0.1319(4)
H1 H 0.3886 0.7764 0.1065
N6 N 0.6592(7) 0.6863(8) 0.0199(4)
N7 N 0.1698(7) 1.4394(7) 0.0258(3)
N8 N 0.2213(7) 1.5383(7) -0.0030(4)
N9 N 0.2928(7) 1.5355(7) -0.0375(4)
N10 N 0.2896(7) 1.4319(7) -0.0326(3)
N11 N 0.1916(8) 1.2693(7) 0.0246(4)
H2 H 0.2365 1.2456 0.0125
N12 N 0.1006(7) 0.8805(7) 0.0980(4)
C1 C 0.3896(8) 0.8702(8) 0.1666(4)
C2 C 0.5379(8) 0.8385(9) 0.1369(4)
C3 C 0.5770(9) 0.7818(9) 0.0956(4)
C4 C 0.5168(11) 0.7345(13) 0.0487(5)
H3 H 0.4473 0.7327 0.0421
C5 C 0.5612(10) 0.6900(13) 0.0120(5)
H4 H 0.5213 0.6609 -0.0200
C6 C 0.7129(11) 0.7292(13) 0.0652(5)
H5 H 0.7800 0.7260 0.0716
C7 C 0.6785(11) 0.7789(13) 0.1045(5)
H6 H 0.7216 0.8093 0.1356
C8 C 0.2137(9) 1.3768(8) 0.0067(4)
C9 C 0.1094(10) 1.1984(9) 0.0580(4)
C10 C 0.1086(8) 1.0878(8) 0.0713(4)
C11 C 0.0161(9) 1.0024(9) 0.1000(5)
H7 H -0.0446 1.0128 0.1112
C12 C 0.0168(9) 0.9017(9) 0.1113(5)
H8 H -0.0464 0.8442 0.1298
C13 C 0.1942(12) 1.0661(12) 0.0555(7)
H9 H 0.2564 1.1201 0.0352
C14 C 0.1867(13) 0.9614(12) 0.0703(7)
H10 H 0.2462 0.9485 0.0599
C15 C 0.1475(9) 0.5021(9) 0.1669(5)
C16 C 0.2206(16) 0.5707(12) 0.2148(6)
H11 H 0.2420 0.5233 0.2353
H12 H 0.2892 0.6383 0.2024
H13 H 0.1767 0.5937 0.2370
O1 O 0.6132(7) 0.8948(8) 0.1730(4)
O2 O 0.0352(7) 1.2171(6) 0.0777(4)
O3 O 0.2528(7) 0.7475(7) 0.0528(3)
H14 H 0.244(11) 0.688(6) 0.037(4)
O4 O 0.1113(6) 0.5452(6) 0.1358(3)
O5 O 0.1242(7) 0.3964(6) 0.1613(4)
Cd1A Cd 0.39856(7) 1.11549(5) 0.28657(3)
Cd1E Cd 0.71693(5) 0.60144(7) -0.04677(3)
Cd2_2 Cd 0.00945(5) 1.38612(5) 0.07650(3)
Cd2A Cd 0.62333(7) 1.00945(5) 0.24317(3)
Cd2E Cd 0.38612(5) 1.37667(7) -0.09017(3)
N3E N -0.0260(7) 0.6086(10) 0.0578(3)
N4E N -0.0487(7) 0.5052(9) 0.0376(3)
N6A N -0.0271(11) 0.6592(7) 0.1866(4)
N7_2 N 0.1698(7) 0.4394(7) 0.0258(3)
N10A N -0.1423(10) 0.2896(7) 0.1341(3)
O1E O -0.1052(8) 0.2816(11) 0.0063(4)
O2_2 O 0.0352(7) 0.2171(6) 0.0777(4)
O6 O 0.748(5) 0.787(5) 0.238(2)
O7 O 0.467(5) 0.524(5) 0.195(2)
O8? O 0.424(5) 0.458(5) 0.142(2)
loop_
_geom_bond_atom_site_label_1
_geom_bond_atom_site_label_2
_geom_bond_site_symmetry_1
_geom_bond_site_symmetry_2
Cd1 N1 1_555 1_555
Cd2 O4 1_555 1_555
N1 N2 1_555 1_555
N2 N3 1_555 1_555
N3 N4 1_555 1_555
N4 C1 1_555 1_555
N5 H1 1_555 1_555
N6 C5 1_555 1_555
N7 N8 1_555 1_555
N8 N9 1_555 1_555
N9 N10 1_555 1_555
N10 C8 1_555 1_555
N11 H2 1_555 1_555
N12 Cd1 1_555 1_555
C1 N1 1_555 1_555
C2 N5 1_555 1_555
C3 C2 1_555 1_555
C4 C3 1_555 1_555
H3 C4 1_555 1_555
C5 C4 1_555 1_555
H4 C5 1_555 1_555
C6 N6 1_555 1_555
H5 C6 1_555 1_555
C7 C3 1_555 1_555
H6 C7 1_555 1_555
C8 N7 1_555 1_555
C9 N11 1_555 1_555
C10 C9 1_555 1_555
C11 C10 1_555 1_555
H7 C11 1_555 1_555
C12 N12 1_555 1_555
H8 C12 1_555 1_555
C13 C10 1_555 1_555
H9 C13 1_555 1_555
C14 N12 1_555 1_555
H10 C14 1_555 1_555
C15 C16 1_555 1_555
C16 H11 1_555 1_555
H12 C16 1_555 1_555
H13 C16 1_555 1_555
O1 C2 1_555 1_555
O2 C9 1_555 1_555
O3 Cd1 1_555 1_555
H14 O3 1_555 1_555
O4 Cd1 1_555 1_555
O5 Cd2 1_555 1_555
Cd1A N3 1_555 1_555
Cd1E N6 1_555 1_555
Cd2_2 N7 1_555 1_555
Cd2A N4 1_555 1_555
Cd2E N10 1_555 1_555
N3E Cd1 1_555 1_555
N4E Cd2 1_555 1_555
N6A Cd1 1_555 1_555
N7_2 Cd2 1_555 1_555
N10A Cd2 1_555 1_555
O1E Cd2 1_555 1_555
O2_2 Cd2 1_555 1_555
N5 C1 1_555 1_555
N11 C8 1_555 1_555
C6 C7 1_555 1_555
C11 C12 1_555 1_555
C13 C14 1_555 1_555
C15 O4 1_555 1_555
C15 O5 1_555 1_555
O1 Cd2A 1_555 1_555
O2 Cd2_2 1_555 1_555
N3E N4E 1_555 1_555

#END
