
#######################################################################
#
#                 Cambridge Crystallographic Data Centre
#                                CCDC 
#
#######################################################################
#
# If this CIF has been generated from an entry in the Cambridge 
# Structural Database, then it will include bibliographic, chemical, 
# crystal, experimental, refinement or atomic coordinate data resulting 
# from the CCDC's data processing and validation procedures.
#
#######################################################################

data_JOYZII
_symmetry_cell_setting           orthorhombic
_symmetry_space_group_name_H-M   'P 21 21 21'
_symmetry_Int_Tables_number      19
_space_group_name_Hall           'P 2ac 2ab'
loop_
_symmetry_equiv_pos_site_id
_symmetry_equiv_pos_as_xyz
1 x,y,z
2 1/2-x,-y,1/2+z
3 -x,1/2+y,1/2-z
4 1/2+x,1/2-y,-z
_cell_length_a                   6.0873(4)
_cell_length_b                   8.9751(9)
_cell_length_c                   16.8198(15)
_cell_angle_alpha                90
_cell_angle_beta                 90
_cell_angle_gamma                90
_cell_volume                     918.935
loop_
_atom_site_label
_atom_site_type_symbol
_atom_site_fract_x
_atom_site_fract_y
_atom_site_fract_z
Co1 Co 0.9081(2) 0.08055(15) 0.67590(8)
N1 N 0.8657(11) -0.1421(8) 0.6361(4)
H1 H 0.9608 -0.2028 0.6612
H2 H 0.7283 -0.1734 0.6468
C1 C 0.9053(17) -0.1458(10) 0.5504(5)
H3 H 0.8292 -0.2299 0.5270
H4 H 1.0612 -0.1571 0.5401
C2 C 0.8233(14) -0.0020(10) 0.5135(5)
O1 O 0.8204(9) 0.1149(6) 0.5541(4)
N2 N 0.7561(12) -0.0074(8) 0.4391(4)
H5 H 0.7433 -0.0924 0.4160
C3 C 0.7030(14) 0.1282(9) 0.3951(5)
H6 H 0.6299 0.1998 0.4303
C4 C 0.5543(13) 0.0908(10) 0.3254(5)
C5 C 0.9164(14) 0.1964(10) 0.3620(5)
H7 H 1.0280 0.1896 0.4029
H8 H 0.9648 0.1352 0.3178
O2 O 0.4424(9) 0.1985(6) 0.2951(3)
O3 O 0.5569(9) -0.0361(6) 0.2977(3)
C6 C 0.9067(15) 0.3581(9) 0.3334(5)
O4 O 1.0694(9) 0.4068(6) 0.2960(3)
O5 O 0.7417(9) 0.4361(6) 0.3509(3)
Co1A Co 0.5919(2) -0.08055(15) 0.17590(8)
Co1C Co 0.4081(2) 0.41945(15) 0.32410(8)
Co1C_2 Co 1.4081(2) 0.41945(15) 0.32410(8)
O2C O 0.9424(9) 0.3015(6) 0.7049(3)
O3A O 0.9431(9) 0.0361(6) 0.7977(3)
O4C O 0.5694(9) 0.0932(6) 0.7040(3)
O5C O 1.2417(9) 0.0639(6) 0.6491(3)
O6 O 0.8911(11) 0.7285(7) 0.3500(3)
H9 H 0.883(13) 0.773(7) 0.3005(19)
H10 H 0.99(4) 0.78(2) 0.381(7)
loop_
_geom_bond_atom_site_label_1
_geom_bond_atom_site_label_2
_geom_bond_site_symmetry_1
_geom_bond_site_symmetry_2
Co1 N1 1_555 1_555
N1 H1 1_555 1_555
H2 N1 1_555 1_555
C1 N1 1_555 1_555
H3 C1 1_555 1_555
H4 C1 1_555 1_555
C2 C1 1_555 1_555
O1 Co1 1_555 1_555
N2 C2 1_555 1_555
H5 N2 1_555 1_555
C3 N2 1_555 1_555
H6 C3 1_555 1_555
C4 C3 1_555 1_555
C5 C3 1_555 1_555
H7 C5 1_555 1_555
H8 C5 1_555 1_555
O2 C4 1_555 1_555
O3 C4 1_555 1_555
C6 C5 1_555 1_555
O4 C6 1_555 1_555
O5 C6 1_555 1_555
O6 H9 1_555 1_555
H10 O6 1_555 1_555
Co1A O3 1_555 1_555
Co1C O2 1_555 1_555
Co1C_2 O4 1_555 1_555
O2C Co1 1_555 1_555
O3A Co1 1_555 1_555
O4C Co1 1_555 1_555
O5C Co1 1_555 1_555
C2 O1 1_555 1_555
O5 Co1C 1_555 1_555

#END
