
#######################################################################
#
#                 Cambridge Crystallographic Data Centre
#                                CCDC 
#
#######################################################################
#
# If this CIF has been generated from an entry in the Cambridge 
# Structural Database, then it will include bibliographic, chemical, 
# crystal, experimental, refinement or atomic coordinate data resulting 
# from the CCDC's data processing and validation procedures.
#
#######################################################################

data_JUCKEZ
_symmetry_cell_setting           rhombohedral
_symmetry_space_group_name_H-M   'R -3'
_symmetry_Int_Tables_number      148
_space_group_name_Hall           '-R 3'
loop_
_symmetry_equiv_pos_site_id
_symmetry_equiv_pos_as_xyz
1 x,y,z
2 -y,x-y,z
3 -x+y,-x,z
4 2/3+x,1/3+y,1/3+z
5 2/3-y,1/3+x-y,1/3+z
6 2/3-x+y,1/3-x,1/3+z
7 1/3+x,2/3+y,2/3+z
8 1/3-y,2/3+x-y,2/3+z
9 1/3-x+y,2/3-x,2/3+z
10 -x,-y,-z
11 y,-x+y,-z
12 x-y,x,-z
13 1/3-x,2/3-y,2/3-z
14 1/3+y,2/3-x+y,2/3-z
15 1/3+x-y,2/3+x,2/3-z
16 2/3-x,1/3-y,1/3-z
17 2/3+y,1/3-x+y,1/3-z
18 2/3+x-y,1/3+x,1/3-z
_cell_length_a                   19.2692(3)
_cell_length_b                   19.2692(3)
_cell_length_c                   24.4500(7)
_cell_angle_alpha                90
_cell_angle_beta                 90
_cell_angle_gamma                120
_cell_volume                     7862.07
loop_
_atom_site_label
_atom_site_type_symbol
_atom_site_fract_x
_atom_site_fract_y
_atom_site_fract_z
C1 C 0.40751(16) 0.52253(17) 0.24775(14)
C2 C 0.43678(17) 0.46543(18) 0.24966(14)
C3 C 0.4561(3) 0.4446(3) 0.2987(2)
H1 H 0.4509 0.4672 0.3309
C4 C 0.4834(3) 0.3903(3) 0.3005(2)
H2 H 0.4984 0.3783 0.3337
C5 C 0.48816(18) 0.35489(19) 0.25436(18)
C6 C 0.58836(15) 0.31729(17) 0.25474(16)
C7 C 0.60253(18) 0.25366(17) 0.25539(17)
H3 H 0.5604 0.2010 0.2562
C8 C 0.4713(3) 0.3756(3) 0.2054(2)
H4 H 0.4766 0.3528 0.1733
C9 C 0.4463(3) 0.4309(3) 0.2039(2)
H5 H 0.4354 0.4455 0.1701
Cu1 Cu 0.3333 0.6667 0.1667
Cu2 Cu 0.3333 0.6667 0.31853(3)
N1 N 0.39271(14) 0.54981(14) 0.20097(11)
N2 N 0.36814(13) 0.60011(14) 0.21826(10)
N3 N 0.36832(14) 0.60119(15) 0.27124(12)
N4 N 0.39366(16) 0.55393(16) 0.29136(12)
O1 O 0.3266(6) 0.6021(5) 0.37971(19)
O2 O 0.50996(12) 0.29640(14) 0.25604(15)
C1A C 0.47747(17) -0.11502(23) 0.24775(14)
C2A C 0.53457(18) -0.02865(25) 0.24966(14)
C3A C 0.5554(3) 0.0115(4) 0.2987(2)
H1A H 0.5328 -0.0163 0.3309
C4A C 0.6097(3) 0.0931(4) 0.3005(2)
H2A H 0.6217 0.1201 0.3337
C5A C 0.64511(19) 0.13327(26) 0.25436(18)
C6A C 0.68271(17) 0.27107(23) 0.25474(16)
C7A C 0.74634(17) 0.34887(25) 0.25539(17)
H3A H 0.7990 0.3594 0.2562
C8A C 0.6244(3) 0.0957(4) 0.2054(2)
H4A H 0.6472 0.1238 0.1733
C9A C 0.5691(3) 0.0154(4) 0.2039(2)
H5A H 0.5545 -0.0101 0.1701
N1A N 0.45019(14) -0.15710(20) 0.20097(11)
N2A N 0.39989(14) -0.23197(19) 0.21826(10)
N3A N 0.39881(15) -0.23287(21) 0.27124(12)
N4A N 0.44607(16) -0.16027(23) 0.29136(12)
O2A O 0.70360(14) 0.21356(18) 0.25604(15)
C1B C 1.11502(23) 0.59249(16) 0.24775(14)
C2B C 1.02865(25) 0.56322(17) 0.24966(14)
C3B C 0.9885(4) 0.5439(3) 0.2987(2)
H1B H 1.0163 0.5491 0.3309
C4B C 0.9069(4) 0.5166(3) 0.3005(2)
H2B H 0.8799 0.5016 0.3337
C5B C 0.86673(26) 0.51184(18) 0.25436(18)
C6B C 0.72893(23) 0.41164(15) 0.25474(16)
C7B C 0.65113(25) 0.39747(18) 0.25539(17)
H3B H 0.6406 0.4396 0.2562
C8B C 0.9043(4) 0.5287(3) 0.2054(2)
H4B H 0.8762 0.5234 0.1733
C9B C 0.9846(4) 0.5537(3) 0.2039(2)
H5B H 1.0101 0.5646 0.1701
N1B N 1.15710(20) 0.60729(14) 0.20097(11)
N2B N 1.23197(19) 0.63186(13) 0.21826(10)
N3B N 1.23287(21) 0.63168(14) 0.27124(12)
N4B N 1.16027(23) 0.60634(16) 0.29136(12)
O2B O 0.78644(18) 0.49004(12) 0.25604(15)
C1O C 0.25916(16) -0.18920(17) 0.08558(14)
C2O C 0.22989(17) -0.13210(18) 0.08367(14)
C3O C 0.2106(3) -0.1113(3) 0.0346(2)
H1O H 0.2158 -0.1339 0.0024
C4O C 0.1833(3) -0.0570(3) 0.0328(2)
H2O H 0.1683 -0.0450 -0.0004
C5O C 0.17851(18) -0.02156(19) 0.07897(18)
C6O C 0.07831(15) 0.01604(17) 0.07859(16)
C7O C 0.06414(18) 0.07967(17) 0.07794(17)
H3O H 0.1063 0.1323 0.0771
C8O C 0.1954(3) -0.0423(3) 0.1279(2)
H4O H 0.1901 -0.0195 0.1600
C9O C 0.2204(3) -0.0976(3) 0.1294(2)
H5O H 0.2313 -0.1122 0.1632
Cu2O Cu 0.3334 -0.3334 0.01480(3)
N1O N 0.27396(14) -0.21648(14) 0.13236(11)
N2O N 0.29853(13) -0.26678(14) 0.11507(10)
N3O N 0.29835(14) -0.26786(15) 0.06209(12)
N4O N 0.27301(16) -0.22060(16) 0.04197(12)
O1O O 0.3401(6) -0.2688(5) -0.04638(19)
O2O O 0.15671(12) 0.03693(14) 0.07729(15)
C1P C 0.18920(17) 0.44835(23) 0.08558(14)
C2P C 0.13210(18) 0.36198(25) 0.08367(14)
C3P C 0.1113(3) 0.3218(4) 0.0346(2)
H1P H 0.1339 0.3496 0.0024
C4P C 0.0570(3) 0.2402(4) 0.0328(2)
H2P H 0.0450 0.2132 -0.0004
C5P C 0.02156(19) 0.20006(26) 0.07897(18)
C6P C -0.01604(17) 0.06226(23) 0.07859(16)
C7P C -0.07967(17) -0.01554(25) 0.07794(17)
H3P H -0.1323 -0.0261 0.0771
C8P C 0.0423(3) 0.2376(4) 0.1279(2)
H4P H 0.0195 0.2095 0.1600
C9P C 0.0976(3) 0.3179(4) 0.1294(2)
H5P H 0.1122 0.3434 0.1632
N1P N 0.21648(14) 0.49043(20) 0.13236(11)
N2P N 0.26678(14) 0.56530(19) 0.11507(10)
N3P N 0.26786(15) 0.56620(21) 0.06209(12)
N4P N 0.22060(16) 0.49360(23) 0.04197(12)
O2P O -0.03693(14) 0.11977(18) 0.07729(15)
C1Q C -0.44835(23) -0.25916(16) 0.08558(14)
C2Q C -0.36198(25) -0.22989(17) 0.08367(14)
C3Q C -0.3218(4) -0.2106(3) 0.0346(2)
H1Q H -0.3496 -0.2158 0.0024
C4Q C -0.2402(4) -0.1833(3) 0.0328(2)
H2Q H -0.2132 -0.1683 -0.0004
C5Q C -0.20006(26) -0.17851(18) 0.07897(18)
C6Q C -0.06226(23) -0.07831(15) 0.07859(16)
C7Q C 0.01554(25) -0.06414(18) 0.07794(17)
H3Q H 0.0261 -0.1063 0.0771
C8Q C -0.2376(4) -0.1954(3) 0.1279(2)
H4Q H -0.2095 -0.1901 0.1600
C9Q C -0.3179(4) -0.2204(3) 0.1294(2)
H5Q H -0.3434 -0.2313 0.1632
N1Q N -0.49043(20) -0.27396(14) 0.13236(11)
N2Q N -0.56530(19) -0.29853(13) 0.11507(10)
N3Q N -0.56620(21) -0.29835(14) 0.06209(12)
N4Q N -0.49360(23) -0.27301(16) 0.04197(12)
O2Q O -0.11977(18) -0.15671(12) 0.07729(15)
O1P O 0.2688(5) -0.3912(8) -0.04638(19)
O1A O 0.3979(5) 0.7245(8) 0.37971(19)
O1B O 0.2755(8) 0.6734(6) 0.37971(19)
O1Q O 0.3912(8) -0.3401(6) -0.04638(19)
Cu1_2 Cu -0.6667 -0.3333 0.1667
Cu1_3 Cu 0.3333 -0.3333 0.1667
Cu1_4 Cu 1.3333 0.6667 0.1667
Cu2_2 Cu 0.3333 -0.3333 0.31853(3)
Cu2_3 Cu 1.3333 0.6667 0.31853(3)
Cu2O_2 Cu -0.6666 -0.3334 0.01480(3)
Cu2O_3 Cu 0.3334 0.6666 0.01480(3)
N2A_2 N 0.39989(14) 0.76803(19) 0.21826(10)
N2B_2 N 0.23197(19) 0.63186(13) 0.21826(10)
N2O_2 N 0.29853(13) 0.73322(14) 0.11507(10)
N2Q_2 N 0.43470(19) 0.70147(13) 0.11507(10)
N3A_2 N 0.39881(15) 0.76713(21) 0.27124(12)
N3B_2 N 0.23287(21) 0.63168(14) 0.27124(12)
N3P_2 N 0.26786(15) -0.43380(21) 0.06209(12)
N3Q_2 N 0.43380(21) -0.29835(14) 0.06209(12)
loop_
_geom_bond_atom_site_label_1
_geom_bond_atom_site_label_2
_geom_bond_site_symmetry_1
_geom_bond_site_symmetry_2
C1 C2 1_555 1_555
C2 C3 1_555 1_555
C3 H1 1_555 1_555
C4 C3 1_555 1_555
H2 C4 1_555 1_555
C5 C4 1_555 1_555
C6 C7 1_555 1_555
C7 H3 1_555 1_555
C8 C5 1_555 1_555
H4 C8 1_555 1_555
C9 C2 1_555 1_555
H5 C9 1_555 1_555
Cu1 N2 1_555 1_555
Cu2 N3 1_555 1_555
N1 C1 1_555 1_555
N2 N1 1_555 1_555
N3 N2 1_555 1_555
N4 C1 1_555 1_555
O1 Cu2 1_555 1_555
O2 C5 1_555 1_555
C1A C2A 1_555 1_555
C2A C3A 1_555 1_555
C3A H1A 1_555 1_555
C4A C3A 1_555 1_555
H2A C4A 1_555 1_555
C5A C4A 1_555 1_555
C6A C7 1_555 1_555
C7A C6A 1_555 1_555
H3A C7A 1_555 1_555
C8A C5A 1_555 1_555
H4A C8A 1_555 1_555
C9A C2A 1_555 1_555
H5A C9A 1_555 1_555
N1A C1A 1_555 1_555
N2A N1A 1_555 1_555
N3A N2A 1_555 1_555
N4A C1A 1_555 1_555
O2A C5A 1_555 1_555
C1B C2B 1_555 1_555
C2B C3B 1_555 1_555
C3B H1B 1_555 1_555
C4B C3B 1_555 1_555
H2B C4B 1_555 1_555
C5B C4B 1_555 1_555
C6B C7A 1_555 1_555
C7B C6 1_555 1_555
H3B C7B 1_555 1_555
C8B C5B 1_555 1_555
H4B C8B 1_555 1_555
C9B C2B 1_555 1_555
H5B C9B 1_555 1_555
N1B C1B 1_555 1_555
N2B N1B 1_555 1_555
N3B N2B 1_555 1_555
N4B C1B 1_555 1_555
O2B C5B 1_555 1_555
C1O C2O 1_555 1_555
C2O C3O 1_555 1_555
C3O H1O 1_555 1_555
C4O C3O 1_555 1_555
H2O C4O 1_555 1_555
C5O C4O 1_555 1_555
C6O C7O 1_555 1_555
C7O H3O 1_555 1_555
C8O C5O 1_555 1_555
H4O C8O 1_555 1_555
C9O C2O 1_555 1_555
H5O C9O 1_555 1_555
Cu2O N3O 1_555 1_555
N1O C1O 1_555 1_555
N2O N1O 1_555 1_555
N3O N2O 1_555 1_555
N4O C1O 1_555 1_555
O1O Cu2O 1_555 1_555
O2O C5O 1_555 1_555
C1P C2P 1_555 1_555
C2P C3P 1_555 1_555
C3P H1P 1_555 1_555
C4P C3P 1_555 1_555
H2P C4P 1_555 1_555
C5P C4P 1_555 1_555
C6P C7O 1_555 1_555
C7P C6P 1_555 1_555
H3P C7P 1_555 1_555
C8P C5P 1_555 1_555
H4P C8P 1_555 1_555
C9P C2P 1_555 1_555
H5P C9P 1_555 1_555
N1P C1P 1_555 1_555
N2P Cu1 1_555 1_555
N3P N2P 1_555 1_555
N4P C1P 1_555 1_555
O2P C5P 1_555 1_555
C1Q C2Q 1_555 1_555
C2Q C3Q 1_555 1_555
C3Q H1Q 1_555 1_555
C4Q C3Q 1_555 1_555
H2Q C4Q 1_555 1_555
C5Q C4Q 1_555 1_555
C6Q C7P 1_555 1_555
C7Q C6O 1_555 1_555
H3Q C7Q 1_555 1_555
C8Q C5Q 1_555 1_555
H4Q C8Q 1_555 1_555
C9Q C2Q 1_555 1_555
H5Q C9Q 1_555 1_555
N1Q C1Q 1_555 1_555
N2Q N1Q 1_555 1_555
N3Q N2Q 1_555 1_555
N4Q C1Q 1_555 1_555
O2Q C5Q 1_555 1_555
O1P Cu2O 1_555 1_555
O1A Cu2 1_555 1_555
O1B Cu2 1_555 1_555
O1Q Cu2O 1_555 1_555
Cu1_2 N2Q 1_555 1_555
Cu1_3 N2A 1_555 1_555
Cu1_4 N2B 1_555 1_555
Cu2_2 N3A 1_555 1_555
Cu2_3 N3B 1_555 1_555
Cu2O_2 N3Q 1_555 1_555
Cu2O_3 N3P 1_555 1_555
N2A_2 Cu1 1_555 1_555
N2B_2 Cu1 1_555 1_555
N2O_2 Cu1 1_555 1_555
N2Q_2 Cu1 1_555 1_555
N3A_2 Cu2 1_555 1_555
N3B_2 Cu2 1_555 1_555
N3P_2 Cu2O 1_555 1_555
N3Q_2 Cu2O 1_555 1_555
C6 O2 1_555 1_555
C8 C9 1_555 1_555
N3 N4 1_555 1_555
C6A O2A 1_555 1_555
C8A C9A 1_555 1_555
N3A N4A 1_555 1_555
C6B C7B 1_555 1_555
C6B O2B 1_555 1_555
C8B C9B 1_555 1_555
N3B N4B 1_555 1_555
C6O O2O 1_555 1_555
C8O C9O 1_555 1_555
N2O Cu1_3 1_555 1_555
N3O N4O 1_555 1_555
C6P O2P 1_555 1_555
C8P C9P 1_555 1_555
N1P N2P 1_555 1_555
N3P N4P 1_555 1_555
C6Q C7Q 1_555 1_555
C6Q O2Q 1_555 1_555
C8Q C9Q 1_555 1_555
N3Q N4Q 1_555 1_555
N2A_2 N3A_2 1_555 1_555
N2B_2 N3B_2 1_555 1_555

#END
