
#######################################################################
#
#                 Cambridge Crystallographic Data Centre
#                                CCDC 
#
#######################################################################
#
# If this CIF has been generated from an entry in the Cambridge 
# Structural Database, then it will include bibliographic, chemical, 
# crystal, experimental, refinement or atomic coordinate data resulting 
# from the CCDC's data processing and validation procedures.
#
#######################################################################

data_JUCKID
_symmetry_cell_setting           rhombohedral
_symmetry_space_group_name_H-M   'R -3'
_symmetry_Int_Tables_number      148
_space_group_name_Hall           '-R 3'
loop_
_symmetry_equiv_pos_site_id
_symmetry_equiv_pos_as_xyz
1 x,y,z
2 -y,x-y,z
3 -x+y,-x,z
4 2/3+x,1/3+y,1/3+z
5 2/3-y,1/3+x-y,1/3+z
6 2/3-x+y,1/3-x,1/3+z
7 1/3+x,2/3+y,2/3+z
8 1/3-y,2/3+x-y,2/3+z
9 1/3-x+y,2/3-x,2/3+z
10 -x,-y,-z
11 y,-x+y,-z
12 x-y,x,-z
13 1/3-x,2/3-y,2/3-z
14 1/3+y,2/3-x+y,2/3-z
15 1/3+x-y,2/3+x,2/3-z
16 2/3-x,1/3-y,1/3-z
17 2/3+y,1/3-x+y,1/3-z
18 2/3+x-y,1/3+x,1/3-z
_cell_length_a                   19.2810(3)
_cell_length_b                   19.2810(3)
_cell_length_c                   25.7179(9)
_cell_angle_alpha                90
_cell_angle_beta                 90
_cell_angle_gamma                120
_cell_volume                     8279.9
loop_
_atom_site_label
_atom_site_type_symbol
_atom_site_fract_x
_atom_site_fract_y
_atom_site_fract_z
Cd1 Cd 0.3333 0.6667 0.007968(17)
N1 N 0.3116(2) 0.5591(2) 0.06019(14)
O1 O 0.4191(3) 0.6494(3) -0.04735(18)
N2 N 0.3088(2) 0.55745(18) 0.11182(12)
N3 N 0.51166(19) 0.80136(28) 0.04202(13)
Cd2 Cd 0.3333 0.6667 0.1667
C1 C 0.5576(2) 0.8308(3) 0.08354(15)
N4 N 0.51595(19) 0.80065(28) 0.12758(13)
C2 C 0.6448(2) 0.8883(3) 0.08166(16)
C3 C 0.6892(3) 0.9203(4) 0.12596(19)
C4 C 0.6842(3) 0.9097(5) 0.0344(2)
H1 H 0.6647 0.9057 0.1584
C5 C 0.7696(3) 0.9737(5) 0.1226(2)
C6 C 0.7651(3) 0.9628(5) 0.0322(3)
H2 H 0.6557 0.8880 0.0038
H3 H 0.7987 0.9971 0.1527
C7 C 0.8074(2) 0.9929(3) 0.0758(2)
H4 H 0.7906 0.9778 0.0002
O2 O 0.88959(19) 1.04899(26) 0.0742(2)
C8 C 0.9425(2) 1.0218(3) 0.07521(19)
C9 C 1.0223(2) 1.0801(3) 0.0748(2)
H5 H 1.0372 1.1340 0.0743
N1A N 0.4409(2) 0.7525(3) 0.06019(14)
O1A O 0.3506(3) 0.7697(4) -0.04735(18)
O1B O 0.2303(4) 0.5809(3) -0.04735(18)
N1B N 0.2475(3) 0.6884(2) 0.06019(14)
N2A N 0.44255(18) 0.75135(27) 0.11182(12)
N2B N 0.24865(27) 0.6912(2) 0.11182(12)
N2O N 0.3579(2) 0.77588(18) 0.22151(12)
N2P N 0.22412(18) 0.58198(27) 0.22151(12)
N2Q N 0.41802(27) 0.6421(2) 0.22151(12)
N4Q N 0.38197(34) 0.84928(19) 0.20575(13)
N1O N 0.3551(2) 0.7742(2) 0.27314(14)
C1Q C 0.3935(4) 0.8909(2) 0.24979(15)
N3Q N 0.37697(34) 0.84499(19) 0.29131(13)
Cd1O Cd 0.3334 0.6666 0.325365(17)
C2Q C 0.4232(4) 0.9781(2) 0.25167(16)
C4Q C 0.4412(6) 1.0175(3) 0.2989(2)
C3Q C 0.4356(5) 1.0225(3) 0.20737(19)
C6Q C 0.4690(6) 1.0984(3) 0.3011(3)
H2Q H 0.4344 0.9890 0.3295
C5Q C 0.4626(6) 1.1029(3) 0.2107(2)
H1Q H 0.4257 0.9980 0.1749
H4Q H 0.4795 1.1239 0.3331
C7Q C 0.4812(4) 1.1407(2) 0.2575(2)
H3Q H 0.4683 1.1320 0.1806
C9A C 0.9199(3) 0.9422(4) 0.0748(2)
O2Q O 0.50727(32) 1.22292(19) 0.2591(2)
C8B C 1.0793(4) 1.0575(2) 0.07521(19)
C8A C 0.9782(3) 0.9207(4) 0.07521(19)
H5A H 0.8660 0.9032 0.0743
C8Q C 0.5874(4) 1.2758(2) 0.25812(19)
C9B C 1.0578(4) 0.9777(2) 0.0748(2)
O2B O 1.15940(32) 1.11041(19) 0.0742(2)
O2A O 0.95101(26) 0.84060(32) 0.0742(2)
C9Q C 0.6089(4) 1.3556(2) 0.2585(2)
C9O C 0.6444(2) 1.2532(3) 0.2585(2)
H5B H 1.0968 0.9628 0.0743
C7B C 1.1855(4) 1.1926(2) 0.0758(2)
C7A C 1.0071(3) 0.8145(4) 0.0758(2)
C8P C 0.6885(3) 1.4126(4) 0.25812(19)
H5Q H 0.5699 1.3705 0.2590
C8O C 0.7242(2) 1.3115(3) 0.25812(19)
H5O H 0.6295 1.1993 0.2590
C5B C 1.2041(6) 1.2304(3) 0.1226(2)
C6B C 1.1977(6) 1.2349(3) 0.0322(3)
C5A C 1.0263(5) 0.7959(6) 0.1226(2)
C6A C 1.0372(5) 0.8023(6) 0.0322(3)
O2P O 0.71566(26) 1.49273(32) 0.2591(2)
C9P C 0.7468(3) 1.3911(4) 0.2585(2)
O2O O 0.77708(19) 1.28434(26) 0.2591(2)
C3B C 1.2311(5) 1.3108(3) 0.12596(19)
H3B H 1.1984 1.2013 0.1527
H4B H 1.1872 1.2094 0.0002
C4B C 1.2255(6) 1.3158(3) 0.0344(2)
C3A C 1.0797(4) 0.7689(5) 0.12596(19)
H3A H 1.0029 0.8016 0.1527
H4A H 1.0222 0.8128 0.0002
C4A C 1.0903(5) 0.7745(6) 0.0344(2)
C7P C 0.6596(3) 1.5188(4) 0.2575(2)
H5P H 0.8007 1.4301 0.2590
C7O C 0.8593(2) 1.3404(3) 0.2575(2)
C2B C 1.2435(4) 1.3552(2) 0.08166(16)
H1B H 1.2410 1.3353 0.1584
H2B H 1.2323 1.3443 0.0038
C2A C 1.1117(3) 0.7565(4) 0.08166(16)
H1A H 1.0943 0.7590 0.1584
H2A H 1.1120 0.7677 0.0038
C6P C 0.6295(5) 1.5310(6) 0.3011(3)
C5P C 0.6404(5) 1.5374(6) 0.2107(2)
C6O C 0.9016(3) 1.3705(5) 0.3011(3)
C5O C 0.8971(3) 1.3596(5) 0.2107(2)
C1B C 1.2732(4) 1.4424(2) 0.08354(15)
C1A C 1.1692(3) 0.7268(4) 0.08354(15)
H4P H 0.6445 1.5205 0.3331
C4P C 0.5764(5) 1.5588(6) 0.2989(2)
C3P C 0.5870(4) 1.5644(5) 0.20737(19)
H3P H 0.6638 1.5317 0.1806
H4O H 0.8761 1.3555 0.3331
C4O C 0.9825(3) 1.4236(5) 0.2989(2)
C3O C 0.9775(3) 1.4130(4) 0.20737(19)
H3O H 0.8680 1.3362 0.1806
N3B N 1.28970(34) 1.48834(19) 0.04202(13)
N4B N 1.28470(34) 1.48405(19) 0.12758(13)
N3A N 1.19864(28) 0.71030(34) 0.04202(13)
N4A N 1.19935(28) 0.71530(34) 0.12758(13)
H2P H 0.5547 1.5656 0.3295
C2P C 0.5550(3) 1.5768(4) 0.25167(16)
H1P H 0.5724 1.5743 0.1749
C2O C 1.0219(2) 1.4450(3) 0.25167(16)
H2O H 1.0110 1.4453 0.3295
H1O H 1.0020 1.4276 0.1749
N1_2 N 1.3116(2) 1.5591(2) 0.06019(14)
N2_2 N 1.3088(2) 1.55745(18) 0.11182(12)
N1B_2 N 1.2475(3) 0.6884(2) 0.06019(14)
N2B_2 N 1.24865(27) 0.6912(2) 0.11182(12)
C1P C 0.4975(3) 1.6065(4) 0.24979(15)
C1O C 1.1091(2) 1.5025(3) 0.24979(15)
Cd1_2 Cd 1.3333 1.6667 0.007968(17)
Cd2_2 Cd 1.3333 1.6667 0.1667
Cd1_3 Cd 1.3333 0.6667 0.007968(17)
Cd2_3 Cd 1.3333 0.6667 0.1667
Cd2_4 Cd 0.3333 1.6667 0.1667
N3P N 0.46803(28) 1.62303(34) 0.29131(13)
N4P N 0.46732(28) 1.61803(34) 0.20575(13)
N3O N 1.15501(19) 1.53197(28) 0.29131(13)
N4O N 1.15072(19) 1.53268(28) 0.20575(13)
N2P_2 N 1.22412(18) 1.58198(27) 0.22151(12)
N2Q_2 N 0.41802(27) 1.6421(2) 0.22151(12)
N1Q N 0.4192(3) 1.6449(2) 0.27314(14)
N1P N 1.2258(2) 1.5808(3) 0.27314(14)
N1Q_2 N 1.4192(3) 1.6449(2) 0.27314(14)
N1O_2 N 1.3551(2) 1.7742(2) 0.27314(14)
Cd1O_2 Cd 0.3334 1.6666 0.325365(17)
Cd1O_3 Cd 1.3334 1.6666 0.325365(17)
O1O O 1.2476(3) 1.6839(3) 0.38068(18)
O1Q O 1.4364(4) 1.7524(3) 0.38068(18)
O1P O 1.3161(3) 1.5636(4) 0.38068(18)
loop_
_geom_bond_atom_site_label_1
_geom_bond_atom_site_label_2
_geom_bond_site_symmetry_1
_geom_bond_site_symmetry_2
Cd1 N1 1_555 1_555
N1 N2 1_555 1_555
O1 Cd1 1_555 1_555
N2 Cd2 1_555 1_555
N3 C1 1_555 1_555
Cd2 N2A 1_555 1_555
C1 N4 1_555 1_555
N4 N2A 1_555 1_555
C2 C1 1_555 1_555
C3 C2 1_555 1_555
C4 C2 1_555 1_555
H1 C3 1_555 1_555
C5 C3 1_555 1_555
C6 C4 1_555 1_555
H2 C4 1_555 1_555
H3 C5 1_555 1_555
C7 C5 1_555 1_555
H4 C6 1_555 1_555
O2 C7 1_555 1_555
C8 O2 1_555 1_555
C9 C8 1_555 1_555
H5 C9 1_555 1_555
N1A Cd1 1_555 1_555
O1A Cd1 1_555 1_555
O1B Cd1 1_555 1_555
N1B Cd1 1_555 1_555
N2A N1A 1_555 1_555
N2B Cd2 1_555 1_555
N2O Cd2 1_555 1_555
N2P Cd2 1_555 1_555
N2Q Cd2 1_555 1_555
N4Q N2O 1_555 1_555
N1O N2O 1_555 1_555
C1Q N4Q 1_555 1_555
N3Q N1O 1_555 1_555
Cd1O N1O 1_555 1_555
C2Q C1Q 1_555 1_555
C4Q C2Q 1_555 1_555
C3Q C2Q 1_555 1_555
C6Q C4Q 1_555 1_555
H2Q C4Q 1_555 1_555
C5Q C3Q 1_555 1_555
H1Q C3Q 1_555 1_555
H4Q C6Q 1_555 1_555
C7Q C6Q 1_555 1_555
H3Q C5Q 1_555 1_555
C9A C8 1_555 1_555
O2Q C7Q 1_555 1_555
C8B C9 1_555 1_555
C8A C9A 1_555 1_555
H5A C9A 1_555 1_555
C8Q O2Q 1_555 1_555
C9B C8B 1_555 1_555
O2B C8B 1_555 1_555
O2A C8A 1_555 1_555
C9Q C8Q 1_555 1_555
C9O C8Q 1_555 1_555
H5B C9B 1_555 1_555
C7B O2B 1_555 1_555
C7A O2A 1_555 1_555
C8P C9Q 1_555 1_555
H5Q C9Q 1_555 1_555
C8O C9O 1_555 1_555
H5O C9O 1_555 1_555
C5B C7B 1_555 1_555
C6B C7B 1_555 1_555
C5A C7A 1_555 1_555
C6A C7A 1_555 1_555
O2P C8P 1_555 1_555
C9P C8P 1_555 1_555
O2O C8O 1_555 1_555
C3B C5B 1_555 1_555
H3B C5B 1_555 1_555
H4B C6B 1_555 1_555
C4B C6B 1_555 1_555
C3A C5A 1_555 1_555
H3A C5A 1_555 1_555
H4A C6A 1_555 1_555
C4A C6A 1_555 1_555
C7P O2P 1_555 1_555
H5P C9P 1_555 1_555
C7O O2O 1_555 1_555
C2B C3B 1_555 1_555
H1B C3B 1_555 1_555
H2B C4B 1_555 1_555
C2A C3A 1_555 1_555
H1A C3A 1_555 1_555
H2A C4A 1_555 1_555
C6P C7P 1_555 1_555
C5P C7P 1_555 1_555
C6O C7O 1_555 1_555
C5O C7O 1_555 1_555
C1B C2B 1_555 1_555
C1A C2A 1_555 1_555
H4P C6P 1_555 1_555
C4P C6P 1_555 1_555
C3P C5P 1_555 1_555
H3P C5P 1_555 1_555
H4O C6O 1_555 1_555
C4O C6O 1_555 1_555
C3O C5O 1_555 1_555
H3O C5O 1_555 1_555
N3B C1B 1_555 1_555
N4B C1B 1_555 1_555
N3A C1A 1_555 1_555
N4A C1A 1_555 1_555
H2P C4P 1_555 1_555
C2P C4P 1_555 1_555
H1P C3P 1_555 1_555
C2O C4O 1_555 1_555
H2O C4O 1_555 1_555
H1O C3O 1_555 1_555
N1_2 N3B 1_555 1_555
N2_2 N4B 1_555 1_555
N1B_2 N3A 1_555 1_555
N2B_2 N4A 1_555 1_555
C1P C2P 1_555 1_555
C1O C2O 1_555 1_555
Cd1_2 N1_2 1_555 1_555
Cd2_2 N2_2 1_555 1_555
Cd1_3 N1B_2 1_555 1_555
Cd2_3 N2B_2 1_555 1_555
Cd2_4 N2Q_2 1_555 1_555
N3P C1P 1_555 1_555
N4P C1P 1_555 1_555
N3O C1O 1_555 1_555
N4O C1O 1_555 1_555
N2P_2 Cd2_2 1_555 1_555
N2Q_2 N4P 1_555 1_555
N1Q N3P 1_555 1_555
N1P N3O 1_555 1_555
N1Q_2 Cd1O_3 1_555 1_555
N1O_2 Cd1O_3 1_555 1_555
Cd1O_2 N1Q 1_555 1_555
Cd1O_3 N1P 1_555 1_555
O1O Cd1O_3 1_555 1_555
O1Q Cd1O_3 1_555 1_555
O1P Cd1O_3 1_555 1_555
N3 N1A 1_555 1_555
C6 C7 1_555 1_555
N1B N2B 1_555 1_555
C1Q N3Q 1_555 1_555
C5Q C7Q 1_555 1_555
C8A C9B 1_555 1_555
C8O C9P 1_555 1_555
C4B C2B 1_555 1_555
C4A C2A 1_555 1_555
C3P C2P 1_555 1_555
C3O C2O 1_555 1_555
N1_2 N2_2 1_555 1_555
N1B_2 N2B_2 1_555 1_555
N4O N2P_2 1_555 1_555
N2P_2 N1P 1_555 1_555
N2Q_2 N1Q 1_555 1_555

#END
