
#######################################################################
#
#                 Cambridge Crystallographic Data Centre
#                                CCDC 
#
#######################################################################
#
# If this CIF has been generated from an entry in the Cambridge 
# Structural Database, then it will include bibliographic, chemical, 
# crystal, experimental, refinement or atomic coordinate data resulting 
# from the CCDC's data processing and validation procedures.
#
#######################################################################

data_JUCMEB
_symmetry_cell_setting           monoclinic
_symmetry_space_group_name_H-M   'P 21/n'
_symmetry_Int_Tables_number      14
_space_group_name_Hall           '-P 2yn'
loop_
_symmetry_equiv_pos_site_id
_symmetry_equiv_pos_as_xyz
1 x,y,z
2 1/2-x,1/2+y,1/2-z
3 -x,-y,-z
4 1/2+x,1/2-y,1/2+z
_cell_length_a                   10.9858(10)
_cell_length_b                   15.3283(13)
_cell_length_c                   12.3306(11)
_cell_angle_alpha                90
_cell_angle_beta                 102.3210(10)
_cell_angle_gamma                90
_cell_volume                     2028.57
loop_
_atom_site_label
_atom_site_type_symbol
_atom_site_fract_x
_atom_site_fract_y
_atom_site_fract_z
Zn1 Zn 0.421145(18) 1.088289(12) 0.640009(16)
O1 O 0.20436(12) 1.56857(8) 0.99408(10)
O2 O 0.34629(12) 1.51020(8) 1.12775(10)
O3 O 0.08511(12) 1.41269(8) 1.09127(11)
O4 O 0.00774(12) 1.29437(9) 1.00108(11)
O5 O 0.41525(13) 1.19068(9) 0.73314(12)
O6 O 0.23456(15) 1.13920(10) 0.75419(14)
N1 N 0.46507(14) 0.98106(10) 0.74091(12)
N2 N 0.66361(15) 0.74084(11) 0.67909(14)
H1 H 0.6057 0.7638 0.6237
H2 H 0.6260 0.7000 0.7129
N3 N 0.6813(2) 0.46369(14) 0.5673(2)
C1 C 0.60587(18) 0.86074(12) 0.78890(16)
C2 C 0.55768(17) 0.93007(12) 0.72175(15)
H3 H 0.5911 0.9421 0.6601
C3 C 0.4162(2) 0.96245(15) 0.82857(18)
H4 H 0.3515 0.9968 0.8426
C4 C 0.4588(3) 0.89382(17) 0.8991(2)
H5 H 0.4234 0.8825 0.9597
C5 C 0.5543(2) 0.84228(15) 0.87879(18)
H6 H 0.5835 0.7956 0.9252
C6 C 0.71243(19) 0.81093(13) 0.76055(17)
H7 H 0.7649 0.8502 0.7291
H8 H 0.7625 0.7853 0.8273
C7 C 0.7621(2) 0.69826(17) 0.6309(2)
H9 H 0.8315 0.6817 0.6902
H10 H 0.7926 0.7391 0.5829
C8 C 0.7110(2) 0.61863(15) 0.56559(19)
C9 C 0.7208(2) 0.53910(17) 0.6174(2)
H11 H 0.7575 0.5374 0.6926
C10 C 0.6273(3) 0.46870(17) 0.4609(2)
H12 H 0.6001 0.4172 0.4237
C11 C 0.6088(3) 0.54501(18) 0.4020(2)
H13 H 0.5684 0.5450 0.3276
C12 C 0.6510(2) 0.62149(17) 0.4546(2)
H14 H 0.6397 0.6743 0.4166
C13 C 0.27772(16) 1.42319(11) 0.96783(14)
C14 C 0.19373(15) 1.35320(10) 0.96134(13)
C15 C 0.20784(16) 1.28114(11) 0.89601(14)
H15 H 0.1505 1.2358 0.8897
C16 C 0.30435(16) 1.27496(11) 0.84031(14)
C17 C 0.38912(17) 1.34371(12) 0.84998(15)
H16 H 0.4560 1.3404 0.8149
C18 C 0.37422(18) 1.41682(12) 0.91147(16)
H17 H 0.4301 1.4628 0.9152
C19 C 0.27419(15) 1.50538(11) 1.03592(14)
C20 C 0.08802(15) 1.35272(11) 1.02117(14)
C21 C 0.31684(17) 1.19559(12) 0.77106(15)
Zn1A Zn 0.078855(18) 1.588289(12) 0.859991(16)
Zn1C Zn -0.078855(18) 1.411711(12) 1.140009(16)
O1A O 0.29564(12) 1.06857(8) 0.50592(10)
O3C O 0.58511(12) 1.08731(8) 0.59127(11)
O7 O 0.47097(15) 0.36355(10) 0.21252(14)
H18 H 0.4431 0.4127 0.1863
H19 H 0.5486 0.3651 0.2140
loop_
_geom_bond_atom_site_label_1
_geom_bond_atom_site_label_2
_geom_bond_site_symmetry_1
_geom_bond_site_symmetry_2
Zn1 O5 1_555 1_555
O1 C19 1_555 1_555
O2 C19 1_555 1_555
O3 C20 1_555 1_555
O4 C20 1_555 1_555
O5 C21 1_555 1_555
O6 C21 1_555 1_555
N1 Zn1 1_555 1_555
N2 H1 1_555 1_555
H2 N2 1_555 1_555
N3 C9 1_555 1_555
C1 C2 1_555 1_555
C2 N1 1_555 1_555
H3 C2 1_555 1_555
C3 N1 1_555 1_555
H4 C3 1_555 1_555
C4 C3 1_555 1_555
H5 C4 1_555 1_555
C5 C1 1_555 1_555
H6 C5 1_555 1_555
C6 N2 1_555 1_555
H7 C6 1_555 1_555
H8 C6 1_555 1_555
C7 N2 1_555 1_555
H9 C7 1_555 1_555
H10 C7 1_555 1_555
C8 C7 1_555 1_555
C9 C8 1_555 1_555
H11 C9 1_555 1_555
C10 N3 1_555 1_555
H12 C10 1_555 1_555
C11 C10 1_555 1_555
H13 C11 1_555 1_555
C12 C8 1_555 1_555
H14 C12 1_555 1_555
C13 C14 1_555 1_555
C14 C15 1_555 1_555
C15 H15 1_555 1_555
C16 C15 1_555 1_555
C17 C16 1_555 1_555
H16 C17 1_555 1_555
C18 C13 1_555 1_555
H17 C18 1_555 1_555
C19 C13 1_555 1_555
C20 C14 1_555 1_555
C21 C16 1_555 1_555
O7 H18 1_555 1_555
H19 O7 1_555 1_555
Zn1A O1 1_555 1_555
Zn1C O3 1_555 1_555
O1A Zn1 1_555 1_555
O3C Zn1 1_555 1_555
C1 C6 1_555 1_555
C4 C5 1_555 1_555
C11 C12 1_555 1_555
C17 C18 1_555 1_555

#END
