
#######################################################################
#
#                 Cambridge Crystallographic Data Centre
#                                CCDC 
#
#######################################################################
#
# If this CIF has been generated from an entry in the Cambridge 
# Structural Database, then it will include bibliographic, chemical, 
# crystal, experimental, refinement or atomic coordinate data resulting 
# from the CCDC's data processing and validation procedures.
#
#######################################################################

data_JUCMIF
_symmetry_cell_setting           triclinic
_symmetry_space_group_name_H-M   'P -1'
_symmetry_Int_Tables_number      2
_space_group_name_Hall           '-P 1'
loop_
_symmetry_equiv_pos_site_id
_symmetry_equiv_pos_as_xyz
1 x,y,z
2 -x,-y,-z
_cell_length_a                   13.2477(14)
_cell_length_b                   15.7151(17)
_cell_length_c                   16.6419(18)
_cell_angle_alpha                80.051(2)
_cell_angle_beta                 83.259(2)
_cell_angle_gamma                88.505(2)
_cell_volume                     3388.91
loop_
_atom_site_label
_atom_site_type_symbol
_atom_site_fract_x
_atom_site_fract_y
_atom_site_fract_z
Cd1 Cd 1.16064(3) -0.07126(2) 1.10289(2)
Cd2 Cd 0.67395(3) 0.44249(2) 1.07924(2)
Cd3 Cd 0.80445(3) 0.01121(2) 1.57832(2)
Cd4 Cd 1.25353(3) 0.53438(3) 0.58577(2)
O1 O 0.5467(3) 0.5744(2) 1.0726(2)
O2 O 0.5611(3) 0.4785(2) 1.1838(2)
O3 O 0.3530(3) 0.4961(3) 1.4467(2)
O4 O 0.2648(4) 0.6122(3) 1.4591(2)
O5 O 0.1974(3) 0.8192(2) 1.2104(2)
O6 O 0.3001(3) 0.8226(3) 1.0970(2)
O7 O 0.7447(3) 0.1191(2) 1.4566(2)
O8 O 0.8272(3) -0.0010(2) 1.4424(2)
O9 O 1.0278(3) -0.0373(2) 1.1931(2)
O10 O 1.0301(3) 0.0583(2) 1.0795(2)
O11 O 0.7919(3) 0.3209(2) 1.0845(2)
O12 O 0.7056(3) 0.3355(2) 1.2023(2)
O13 O 1.1216(4) 0.6142(4) 0.6249(3)
O14 O 1.1286(3) 0.5323(3) 0.7452(2)
O15 O 0.9123(3) 0.6174(2) 0.9880(2)
O16 O 0.8236(3) 0.7409(2) 0.9719(2)
O17 O 0.8993(3) 0.8723(3) 0.5914(2)
O18 O 0.8467(3) 0.9298(2) 0.7010(2)
O19 O 0.7935(3) 0.5286(2) 1.1112(2)
H1 H 0.8384 0.5545 1.0752
H2 H 0.8243 0.5113 1.1531
O20 O 0.5633(3) 0.3490(2) 1.0487(2)
H3 H 0.5231 0.3329 1.0921
H4 H 0.5250 0.3649 1.0113
O21 O 1.0429(3) -0.1455(2) 1.0549(2)
H5 H 1.0387 -0.1186 1.0065
H6 H 1.0498 -0.1983 1.0500
O22 O 1.2543(3) 0.0192(2) 1.1611(2)
H7 H 1.2277 0.0338 1.2056
H8 H 1.2934 0.0607 1.1381
O23 O 0.9470(3) 0.0973(3) 1.5485(3)
H9 H 0.9926 0.0783 1.5154
H10 H 0.9789 0.1090 1.5870
O24 O 0.7352(3) 0.1093(3) 1.6570(2)
H11 H 0.7221 0.1558 1.6253
H12 H 0.7803 0.1229 1.6848
O25 O 1.3514(3) 0.6270(3) 0.6399(2)
H13 H 1.3413 0.6103 0.6916
H14 H 1.4155 0.6319 0.6290
N1 N 0.7139(3) 0.5022(3) 0.9404(2)
N2 N 0.5479(3) 0.7054(3) 0.8001(3)
H15 H 0.5246 0.6831 0.8522
H16 H 0.5256 0.6718 0.7673
N3 N 0.6517(3) 0.9370(3) 0.6011(3)
N4 N 1.3396(3) 0.4184(3) 0.6439(2)
N5 N 1.2043(3) 0.2607(3) 0.8649(2)
H17 H 1.1843 0.2477 0.9192
H18 H 1.1692 0.3080 0.8449
N6 N 1.2322(3) -0.0114(3) 0.9730(2)
C1 C 0.6998(4) 0.6147(3) 0.8240(3)
C2 C 0.6805(4) 0.5796(3) 0.9062(3)
H19 H 0.6415 0.6121 0.9403
C3 C 0.7709(4) 0.4569(3) 0.8896(3)
H20 H 0.7938 0.4022 0.9110
C4 C 0.7966(4) 0.4881(3) 0.8070(3)
H21 H 0.8386 0.4561 0.7744
C5 C 0.7593(4) 0.5669(3) 0.7739(3)
H22 H 0.7739 0.5881 0.7181
C6 C 0.6585(4) 0.7031(3) 0.7911(3)
H23 H 0.6831 0.7454 0.8202
H24 H 0.6838 0.7189 0.7335
C7 C 0.5055(4) 0.7933(3) 0.7795(3)
H25 H 0.5263 0.8280 0.8174
H26 H 0.4319 0.7896 0.7883
C8 C 0.5364(4) 0.8398(3) 0.6924(3)
C9 C 0.6185(4) 0.8953(3) 0.6757(3)
H27 H 0.6526 0.9039 0.7194
C10 C 0.6008(4) 0.9254(4) 0.5387(4)
H28 H 0.6225 0.9544 0.4861
C11 C 0.5177(5) 0.8722(4) 0.5497(4)
H29 H 0.4835 0.8659 0.5054
C12 C 0.4859(4) 0.8288(3) 0.6267(4)
H30 H 0.4305 0.7919 0.6349
C13 C 1.3507(4) 0.3111(3) 0.7634(3)
C14 C 1.3148(4) 0.3883(3) 0.7235(3)
H31 H 1.2709 0.4212 0.7539
C15 C 1.4050(4) 0.3708(3) 0.6013(3)
H32 H 1.4231 0.3906 0.5457
C16 C 1.4455(4) 0.2951(3) 0.6362(3)
H33 H 1.4912 0.2645 0.6050
C17 C 1.4179(4) 0.2639(3) 0.7186(3)
H34 H 1.4443 0.2118 0.7434
C18 C 1.3150(4) 0.2825(3) 0.8528(3)
H35 H 1.3538 0.2322 0.8742
H36 H 1.3265 0.3282 0.8830
C19 C 1.1768(4) 0.1878(3) 0.8256(3)
H37 H 1.1976 0.2016 0.7670
H38 H 1.1035 0.1814 0.8335
C20 C 1.2247(4) 0.1037(3) 0.8589(3)
C21 C 1.1988(4) 0.0659(3) 0.9398(3)
H39 H 1.1553 0.0962 0.9730
C22 C 1.2966(4) -0.0543(3) 0.9255(3)
H40 H 1.3211 -0.1081 0.9478
C23 C 1.3273(4) -0.0206(3) 0.8440(3)
H41 H 1.3724 -0.0513 0.8125
C24 C 1.2909(4) 0.0586(3) 0.8101(3)
H42 H 1.3102 0.0817 0.7553
C25 C 0.4436(3) 0.5921(3) 1.1966(3)
C26 C 0.4188(4) 0.5600(3) 1.2793(3)
H43 H 0.4507 0.5103 1.3035
C27 C 0.3465(4) 0.6018(3) 1.3266(3)
C28 C 0.2997(4) 0.6761(3) 1.2907(3)
H44 H 0.2515 0.7042 1.3222
C29 C 0.3245(4) 0.7091(3) 1.2075(3)
C30 C 0.3973(4) 0.6675(3) 1.1612(3)
H45 H 0.4153 0.6901 1.1061
C31 C 0.5221(4) 0.5454(3) 1.1468(3)
C32 C 0.3207(4) 0.5672(3) 1.4160(3)
C33 C 0.2714(4) 0.7893(3) 1.1689(3)
C34 C 0.8207(4) 0.1039(3) 1.3227(3)
C35 C 0.8865(4) 0.0554(3) 1.2785(3)
H46 H 0.9111 0.0031 1.3045
C36 C 0.9165(4) 0.0832(3) 1.1961(3)
C37 C 0.8775(4) 0.1613(3) 1.1569(3)
H47 H 0.8965 0.1803 1.1012
C38 C 0.8106(4) 0.2102(3) 1.2011(3)
C39 C 0.7838(4) 0.1820(3) 1.2844(3)
H48 H 0.7409 0.2156 1.3147
C40 C 0.7952(4) 0.0737(3) 1.4131(3)
C41 C 0.9950(4) 0.0315(3) 1.1527(3)
C42 C 0.7675(4) 0.2944(3) 1.1601(3)
C43 C 1.0205(4) 0.6567(4) 0.7379(3)
C44 C 0.9863(4) 0.6412(3) 0.8213(3)
H49 H 1.0068 0.5916 0.8547
C45 C 0.9207(4) 0.7007(3) 0.8549(3)
C46 C 0.8916(4) 0.7752(3) 0.8053(3)
H50 H 0.8500 0.8155 0.8283
C47 C 0.9237(4) 0.7904(4) 0.7220(3)
C48 C 0.9881(4) 0.7306(4) 0.6887(3)
H51 H 1.0098 0.7404 0.6327
C49 C 1.0947(4) 0.5962(5) 0.7010(3)
C50 C 0.8820(4) 0.6846(3) 0.9448(3)
C51 C 0.8885(4) 0.8696(4) 0.6681(3)
Cl1 Cl 1.1410(5) 0.4352(5) 0.5548(5)
Cd1_2 Cd 0.16064(3) 0.92874(2) 1.10289(2)
Cd3_2 Cd 0.80445(3) 1.01121(2) 0.57832(2)
Cd4_2 Cd 0.25353(3) 0.53438(3) 1.58577(2)
O3_2 O 1.3530(3) 0.4961(3) 0.4467(2)
O4_2 O 1.2648(4) 0.6122(3) 0.4591(2)
O5_2 O 1.1974(3) -0.1808(2) 1.2104(2)
O6_2 O 1.3001(3) -0.1774(3) 1.0970(2)
O17_2 O 0.8993(3) -0.1277(3) 1.5914(2)
O18_2 O 0.8467(3) -0.0702(2) 1.7010(2)
N3_2 N 0.6517(3) -0.0630(3) 1.6011(3)
O26 O 0.0215(4) 0.1611(3) 0.6710(3)
H52 H 0.0037 0.1281 0.7163
H53 H 0.0014 0.2112 0.6785
O27 O 0.5077(4) 0.8761(5) 0.0598(4)
H54 H 0.4744 0.8748 0.1069
H55 H 0.5113 0.9293 0.0386
O28 O 0.7780(5) 0.8495(3) 0.3847(3)
H56 H 0.8216 0.8829 0.3965
H57 H 0.8065 0.8000 0.3893
O29 O 0.9485(4) 0.6299(3) 0.1977(3)
H58 H 0.9505 0.6361 0.2473
H59 H 1.0024 0.6537 0.1715
O30 O 0.3441(3) 0.1564(3) 0.0651(2)
H60 H 0.3935 0.1452 0.0311
H61 H 0.3054 0.1901 0.0367
O31 O 0.4343(3) 0.3554(3) 0.3863(2)
H62 H 0.4034 0.3108 0.4132
H63 H 0.3992 0.3981 0.3996
O32 O 0.9274(3) 0.3096(2) 0.9560(2)
H64 H 0.8835 0.3054 0.9981
H65 H 0.9788 0.3330 0.9693
O33 O 0.5599(5) 0.0628(4) 0.7895(4)
H66 H 0.5795 0.0759 0.7384
H67 H 0.5752 0.0097 0.8022
O34 O 0.6584(3) 0.2293(3) 0.5470(3)
H68 H 0.6815 0.1978 0.5123
H69 H 0.6684 0.2006 0.5935
O35 O 0.9335(8) 0.2865(7) 0.5194(6)
O36 O 0.7606(4) 0.7408(4) 0.5420(4)
H70 H 0.7433 0.7450 0.4937
H71 H 0.8190 0.7164 0.5399
O41 O 0.9901(8) 0.3490(9) 0.6528(7)
O37? O 0.9283(8) 0.4575(9) 0.6172(7)
O38? O 0.9214(8) 0.5117(9) 0.5992(7)
O39? O 0.907(2) 0.573(2) 0.5805(18)
O40? O 0.8843(12) 0.6287(11) 0.5494(11)
O42? O 0.9424(7) 0.2986(6) 0.7167(6)
loop_
_geom_bond_atom_site_label_1
_geom_bond_atom_site_label_2
_geom_bond_site_symmetry_1
_geom_bond_site_symmetry_2
Cd1 O9 1_555 1_555
Cd2 O1 1_555 1_555
Cd3 O7 1_555 1_555
Cd4 O13 1_555 1_555
O1 C31 1_555 1_555
O2 Cd2 1_555 1_555
O3 C32 1_555 1_555
O4 C32 1_555 1_555
O5 C33 1_555 1_555
O6 C33 1_555 1_555
O7 C40 1_555 1_555
O8 Cd3 1_555 1_555
O9 C41 1_555 1_555
O10 Cd1 1_555 1_555
O11 Cd2 1_555 1_555
O12 Cd2 1_555 1_555
O13 C49 1_555 1_555
O14 C49 1_555 1_555
O15 C50 1_555 1_555
O16 C50 1_555 1_555
O17 C51 1_555 1_555
O18 C51 1_555 1_555
O19 Cd2 1_555 1_555
H1 O19 1_555 1_555
H2 O19 1_555 1_555
O20 Cd2 1_555 1_555
H3 O20 1_555 1_555
H4 O20 1_555 1_555
O21 Cd1 1_555 1_555
H5 O21 1_555 1_555
H6 O21 1_555 1_555
O22 Cd1 1_555 1_555
H7 O22 1_555 1_555
H8 O22 1_555 1_555
O23 Cd3 1_555 1_555
H9 O23 1_555 1_555
H10 O23 1_555 1_555
O24 Cd3 1_555 1_555
H11 O24 1_555 1_555
H12 O24 1_555 1_555
O25 Cd4 1_555 1_555
H13 O25 1_555 1_555
H14 O25 1_555 1_555
N1 Cd2 1_555 1_555
N2 H15 1_555 1_555
H16 N2 1_555 1_555
N3 C9 1_555 1_555
N4 Cd4 1_555 1_555
N5 H17 1_555 1_555
H18 N5 1_555 1_555
N6 Cd1 1_555 1_555
C1 C2 1_555 1_555
C2 N1 1_555 1_555
H19 C2 1_555 1_555
C3 N1 1_555 1_555
H20 C3 1_555 1_555
C4 C3 1_555 1_555
H21 C4 1_555 1_555
C5 C1 1_555 1_555
H22 C5 1_555 1_555
C6 N2 1_555 1_555
H23 C6 1_555 1_555
H24 C6 1_555 1_555
C7 N2 1_555 1_555
H25 C7 1_555 1_555
H26 C7 1_555 1_555
C8 C7 1_555 1_555
C9 C8 1_555 1_555
H27 C9 1_555 1_555
C10 N3 1_555 1_555
H28 C10 1_555 1_555
C11 C10 1_555 1_555
H29 C11 1_555 1_555
C12 C8 1_555 1_555
H30 C12 1_555 1_555
C13 C14 1_555 1_555
C14 N4 1_555 1_555
H31 C14 1_555 1_555
C15 N4 1_555 1_555
H32 C15 1_555 1_555
C16 C15 1_555 1_555
H33 C16 1_555 1_555
C17 C13 1_555 1_555
H34 C17 1_555 1_555
C18 N5 1_555 1_555
H35 C18 1_555 1_555
H36 C18 1_555 1_555
C19 N5 1_555 1_555
H37 C19 1_555 1_555
H38 C19 1_555 1_555
C20 C19 1_555 1_555
C21 N6 1_555 1_555
H39 C21 1_555 1_555
C22 N6 1_555 1_555
H40 C22 1_555 1_555
C23 C22 1_555 1_555
H41 C23 1_555 1_555
C24 C20 1_555 1_555
H42 C24 1_555 1_555
C25 C26 1_555 1_555
C26 H43 1_555 1_555
C27 C26 1_555 1_555
C28 C27 1_555 1_555
H44 C28 1_555 1_555
C29 C28 1_555 1_555
C30 C25 1_555 1_555
H45 C30 1_555 1_555
C31 O2 1_555 1_555
C32 C27 1_555 1_555
C33 C29 1_555 1_555
C34 C35 1_555 1_555
C35 H46 1_555 1_555
C36 C35 1_555 1_555
C37 C36 1_555 1_555
H47 C37 1_555 1_555
C38 C37 1_555 1_555
C39 C34 1_555 1_555
H48 C39 1_555 1_555
C40 O8 1_555 1_555
C41 O10 1_555 1_555
C42 O11 1_555 1_555
C43 C44 1_555 1_555
C44 H49 1_555 1_555
C45 C44 1_555 1_555
C46 C45 1_555 1_555
H50 C46 1_555 1_555
C47 C46 1_555 1_555
C48 C43 1_555 1_555
H51 C48 1_555 1_555
C49 C43 1_555 1_555
C50 C45 1_555 1_555
C51 C47 1_555 1_555
Cl1 Cd4 1_555 1_555
O26 H52 1_555 1_555
H53 O26 1_555 1_555
O27 H54 1_555 1_555
H55 O27 1_555 1_555
O28 H56 1_555 1_555
H57 O28 1_555 1_555
O29 H58 1_555 1_555
H59 O29 1_555 1_555
O30 H60 1_555 1_555
H61 O30 1_555 1_555
O31 H62 1_555 1_555
H63 O31 1_555 1_555
O32 H64 1_555 1_555
H65 O32 1_555 1_555
O33 H66 1_555 1_555
H67 O33 1_555 1_555
O34 H68 1_555 1_555
H69 O34 1_555 1_555
O36 H70 1_555 1_555
H71 O36 1_555 1_555
Cd1_2 O5 1_555 1_555
Cd3_2 O17 1_555 1_555
Cd4_2 O3 1_555 1_555
O3_2 Cd4 1_555 1_555
O4_2 Cd4 1_555 1_555
O5_2 Cd1 1_555 1_555
O6_2 Cd1 1_555 1_555
O17_2 Cd3 1_555 1_555
O18_2 Cd3 1_555 1_555
N3_2 Cd3 1_555 1_555
O4 Cd4_2 1_555 1_555
O6 Cd1_2 1_555 1_555
O12 C42 1_555 1_555
O18 Cd3_2 1_555 1_555
N3 Cd3_2 1_555 1_555
C1 C6 1_555 1_555
C4 C5 1_555 1_555
C11 C12 1_555 1_555
C13 C18 1_555 1_555
C16 C17 1_555 1_555
C20 C21 1_555 1_555
C23 C24 1_555 1_555
C25 C31 1_555 1_555
C29 C30 1_555 1_555
C34 C40 1_555 1_555
C36 C41 1_555 1_555
C38 C39 1_555 1_555
C38 C42 1_555 1_555
C47 C48 1_555 1_555

#END
