
#######################################################################
#
#                 Cambridge Crystallographic Data Centre
#                                CCDC 
#
#######################################################################
#
# If this CIF has been generated from an entry in the Cambridge 
# Structural Database, then it will include bibliographic, chemical, 
# crystal, experimental, refinement or atomic coordinate data resulting 
# from the CCDC's data processing and validation procedures.
#
#######################################################################

data_JUCVEI
_symmetry_cell_setting           triclinic
_symmetry_space_group_name_H-M   'P -1'
_symmetry_Int_Tables_number      2
_space_group_name_Hall           '-P 1'
loop_
_symmetry_equiv_pos_site_id
_symmetry_equiv_pos_as_xyz
1 x,y,z
2 -x,-y,-z
_cell_length_a                   8.0471(1)
_cell_length_b                   11.0249(1)
_cell_length_c                   13.2676(2)
_cell_angle_alpha                72.853(1)
_cell_angle_beta                 76.486(1)
_cell_angle_gamma                78.713(1)
_cell_volume                     1083.38
loop_
_atom_site_label
_atom_site_type_symbol
_atom_site_fract_x
_atom_site_fract_y
_atom_site_fract_z
Ag1 Ag 0.1279(1) 0.6090(1) 0.3842(1)
Co1 Co 0.2769(1) 0.1964(1) 0.2226(1)
S1 S -0.1343(1) 0.4820(1) 0.4027(1)
S2 S -0.0381(1) 0.8299(1) 0.3360(1)
S3 S 0.4305(1) 0.5479(1) 0.2894(1)
O1 O 0.4320(3) 0.1381(2) 0.3416(2)
N1 N 0.1404(3) 0.2595(2) 0.0928(2)
N2 N 0.4834(3) 0.1273(2) 0.1146(2)
N3 N 0.3952(3) 0.2796(2) -0.0372(2)
N4 N 0.0757(3) 0.2854(2) 0.3214(2)
N5 N 0.5387(3) 0.1798(2) 0.4688(2)
N6 N 0.1737(3) 0.0215(2) 0.2800(2)
N7 N 0.3820(3) 0.3791(2) 0.1795(2)
C1 C -0.0338(4) 0.2753(3) 0.1146(3)
C2 C -0.1339(5) 0.3358(4) 0.0387(3)
C3 C -0.0524(5) 0.3819(4) -0.0655(3)
C4 C 0.1230(4) 0.3652(3) -0.0908(3)
C5 C 0.2170(3) 0.3006(2) -0.0087(2)
C6 C 0.5117(3) 0.1792(2) 0.0088(2)
C7 C 0.6581(4) 0.1370(3) -0.0598(2)
C8 C 0.7733(4) 0.0375(3) -0.0171(3)
C9 C 0.7445(4) -0.0185(3) 0.0923(3)
C10 C 0.6004(4) 0.0288(3) 0.1544(2)
C11 C -0.0097(3) 0.3656(2) 0.3555(2)
C12 C 0.0899(3) 0.9408(2) 0.3043(2)
C13 C 0.4015(3) 0.4500(2) 0.2234(2)
C14 C 0.4155(4) 0.1879(3) 0.4165(2)
C15 C 0.7094(5) 0.1117(5) 0.4397(4)
C16 C 0.5116(6) 0.2450(4) 0.5536(3)
H1 H 0.4317(42) 0.3137(31) -0.1025(28)
H2 H -0.0843(46) 0.2429(33) 0.1889(30)
H3 H -0.2470(54) 0.3481(37) 0.0570(31)
H4 H -0.1082(62) 0.4241(45) -0.1123(38)
H5 H 0.1836(51) 0.3982(37) -0.1626(35)
H6 H 0.6699(42) 0.1806(31) -0.1353(28)
H7 H 0.8670(50) 0.0068(36) -0.0598(31)
H8 H 0.8172(47) -0.0857(34) 0.1250(28)
H9 H 0.5763(41) -0.0026(30) 0.2345(27)
H10 H 0.3163(47) 0.2376(33) 0.4420(28)
H11 H 0.6932(73) 0.0705(54) 0.3875(47)
H12 H 0.7378(75) 0.0532(58) 0.4989(52)
H13 H 0.7563(70) 0.1724(54) 0.4088(45)
H14 H 0.5485(59) 0.1848(44) 0.6212(41)
H15 H 0.3980(67) 0.2768(46) 0.5664(38)
H16 H 0.5760(70) 0.3131(52) 0.5323(42)
S1A S 0.1343(1) 0.5180(1) 0.5973(1)
Ag1A Ag -0.1279(1) 0.3910(1) 0.6158(1)
C12_2 C 0.0899(3) -0.0592(2) 0.3043(2)
N6_2 N 0.1737(3) 1.0215(2) 0.2800(2)
S2A S 0.0381(1) 0.1701(1) 0.6640(1)
S3A S -0.4305(1) 0.4521(1) 0.7106(1)
loop_
_geom_bond_atom_site_label_1
_geom_bond_atom_site_label_2
_geom_bond_site_symmetry_1
_geom_bond_site_symmetry_2
Ag1 S1 1_555 1_555
Co1 O1 1_555 1_555
S1 C11 1_555 1_555
S2 Ag1 1_555 1_555
S3 Ag1 1_555 1_555
O1 C14 1_555 1_555
N1 Co1 1_555 1_555
N2 Co1 1_555 1_555
N3 C5 1_555 1_555
N4 Co1 1_555 1_555
N5 C14 1_555 1_555
N6 Co1 1_555 1_555
N7 Co1 1_555 1_555
C1 N1 1_555 1_555
C2 C1 1_555 1_555
C3 C2 1_555 1_555
C4 C3 1_555 1_555
C5 N1 1_555 1_555
C6 N2 1_555 1_555
C7 C6 1_555 1_555
C8 C7 1_555 1_555
C9 C8 1_555 1_555
C10 N2 1_555 1_555
C11 N4 1_555 1_555
C12 S2 1_555 1_555
C13 S3 1_555 1_555
C14 H10 1_555 1_555
C15 N5 1_555 1_555
C16 N5 1_555 1_555
H1 N3 1_555 1_555
H2 C1 1_555 1_555
H3 C2 1_555 1_555
H4 C3 1_555 1_555
H5 C4 1_555 1_555
H6 C7 1_555 1_555
H7 C8 1_555 1_555
H8 C9 1_555 1_555
H9 C10 1_555 1_555
H11 C15 1_555 1_555
H12 C15 1_555 1_555
H13 C15 1_555 1_555
H14 C16 1_555 1_555
H15 C16 1_555 1_555
H16 C16 1_555 1_555
S1A Ag1 1_555 1_555
Ag1A S1 1_555 1_555
C12_2 N6 1_555 1_555
N6_2 C12 1_555 1_555
S2A Ag1A 1_555 1_555
S3A Ag1A 1_555 1_555
N3 C6 1_555 1_555
N7 C13 1_555 1_555
C4 C5 1_555 1_555
C9 C10 1_555 1_555
S1A Ag1A 1_555 1_555

#END
