
#######################################################################
#
#                 Cambridge Crystallographic Data Centre
#                                CCDC 
#
#######################################################################
#
# If this CIF has been generated from an entry in the Cambridge 
# Structural Database, then it will include bibliographic, chemical, 
# crystal, experimental, refinement or atomic coordinate data resulting 
# from the CCDC's data processing and validation procedures.
#
#######################################################################

data_JUDNON
_symmetry_cell_setting           monoclinic
_symmetry_space_group_name_H-M   'C 2/c'
_symmetry_Int_Tables_number      15
_space_group_name_Hall           '-C 2yn'
loop_
_symmetry_equiv_pos_site_id
_symmetry_equiv_pos_as_xyz
1 x,y,z
2 -x,y,1/2-z
3 1/2+x,1/2+y,z
4 1/2-x,1/2+y,1/2-z
5 -x,-y,-z
6 x,-y,1/2+z
7 1/2-x,1/2-y,-z
8 1/2+x,1/2-y,1/2+z
_cell_length_a                   23.0409(12)
_cell_length_b                   8.7757(5)
_cell_length_c                   19.4868(10)
_cell_angle_alpha                90
_cell_angle_beta                 118.2850(10)
_cell_angle_gamma                90
_cell_volume                     3469.77
loop_
_atom_site_label
_atom_site_type_symbol
_atom_site_fract_x
_atom_site_fract_y
_atom_site_fract_z
Cu1 Cu 0.327891(12) 0.35134(3) 0.127469(14)
C1 C 0.42047(10) 0.3928(3) 0.30550(12)
H1 H 0.4482 0.4092 0.3628
C2 C 0.46181(10) 0.3079(3) 0.27575(12)
C3 C 0.46337(12) 0.1501(3) 0.27756(16)
H2 H 0.4391 0.0960 0.2978
C4 C 0.5000 0.0711(4) 0.2500
H3 H 0.5000 -0.0371 0.2500
C5 C 0.5000 0.3877(4) 0.2500
H4 H 0.5000 0.4960 0.2500
C6 C 0.35326(11) 0.2225(3) 0.34632(13)
C7 C 0.29860(12) 0.1336(3) 0.30430(13)
H5 H 0.2786 0.0656 0.3248
C8 C 0.27794(11) 0.1627(3) 0.22506(13)
C9 C 0.39591(13) 0.2392(4) 0.43239(13)
H6 H 0.4422 0.2248 0.4454
H7 H 0.3834 0.1625 0.4596
H8 H 0.3901 0.3413 0.4486
C10 C 0.21988(12) 0.0988(3) 0.15574(14)
H9 H 0.1824 0.1683 0.1396
H10 H 0.2085 -0.0005 0.1690
H11 H 0.2305 0.0865 0.1130
C11 C 0.41538(12) 0.6822(3) 0.29934(14)
C12 C 0.38042(13) 0.7809(3) 0.23926(15)
H12 H 0.3807 0.8890 0.2422
C13 C 0.34441(12) 0.6929(3) 0.17315(14)
C14 C 0.46442(15) 0.7109(4) 0.38258(15)
H13 H 0.4471 0.6724 0.4165
H14 H 0.4726 0.8207 0.3910
H15 H 0.5058 0.6585 0.3949
C15 C 0.29858(13) 0.7465(3) 0.09253(14)
H16 H 0.3136 0.7080 0.0564
H17 H 0.2980 0.8581 0.0914
H18 H 0.2541 0.7083 0.0769
N1 N 0.31834(8) 0.2636(2) 0.21852(10)
N2 N 0.36351(8) 0.3021(2) 0.29336(10)
N3 N 0.35592(8) 0.5452(2) 0.19047(10)
N4 N 0.39917(8) 0.5402(2) 0.26888(10)
N5 N 0.32385(10) 0.1435(2) 0.08586(10)
N6 N 0.30462(9) 0.1201(2) 0.01825(11)
N7 N 0.28580(9) 0.0914(2) -0.04728(11)
N8 N 0.35053(11) 0.4413(2) 0.05033(11)
N9 N 0.39701(10) 0.4007(3) 0.04455(11)
N10 N 0.44159(12) 0.3656(4) 0.03592(14)
C1A C 0.57953(10) 0.3928(3) 0.19450(12)
H1A H 0.5518 0.4092 0.1372
C2A C 0.53819(10) 0.3079(3) 0.22425(12)
C3A C 0.53663(12) 0.1501(3) 0.22244(16)
H2A H 0.5609 0.0960 0.2022
C6A C 0.64674(11) 0.2225(3) 0.15368(13)
C7A C 0.70140(12) 0.1336(3) 0.19570(13)
H5A H 0.7214 0.0656 0.1752
C8A C 0.72206(11) 0.1627(3) 0.27494(13)
C9A C 0.60409(13) 0.2392(4) 0.06761(13)
H6A H 0.5578 0.2248 0.0546
H7A H 0.6166 0.1625 0.0404
H8A H 0.6099 0.3413 0.0514
C10A C 0.78012(12) 0.0988(3) 0.34426(14)
H9A H 0.8176 0.1683 0.3604
H10A H 0.7915 -0.0005 0.3310
H11A H 0.7695 0.0865 0.3870
C11A C 0.58462(12) 0.6822(3) 0.20066(14)
C12A C 0.61958(13) 0.7809(3) 0.26074(15)
H12A H 0.6193 0.8890 0.2578
C13A C 0.65559(12) 0.6929(3) 0.32685(14)
C14A C 0.53558(15) 0.7109(4) 0.11742(15)
H13A H 0.5529 0.6724 0.0835
H14A H 0.5274 0.8207 0.1090
H15A H 0.4942 0.6585 0.1051
C15A C 0.70142(13) 0.7465(3) 0.40747(14)
H16A H 0.6864 0.7080 0.4436
H17A H 0.7020 0.8581 0.4086
H18A H 0.7459 0.7083 0.4231
N1A N 0.68166(8) 0.2636(2) 0.28148(10)
N2A N 0.63649(8) 0.3021(2) 0.20664(10)
N3A N 0.64408(8) 0.5452(2) 0.30953(10)
N4A N 0.60083(8) 0.5402(2) 0.23112(10)
Cu1A Cu 0.672109(12) 0.35134(3) 0.372531(14)
N5A N 0.67615(10) 0.1435(2) 0.41414(10)
N6A N 0.69538(9) 0.1201(2) 0.48175(11)
N7A N 0.71420(9) 0.0914(2) 0.54728(11)
N8A N 0.64947(11) 0.4413(2) 0.44967(11)
N9A N 0.60299(10) 0.4007(3) 0.45545(11)
N10A N 0.55841(12) 0.3656(4) 0.46408(14)
Cu1F Cu 0.172109(12) 0.14866(3) -0.127469(14)
Cu1G Cu 0.827891(12) 0.14866(3) 0.627469(14)
N7F N 0.21420(9) 0.4086(2) 0.04728(11)
N7G N 0.78580(9) 0.4086(2) 0.45272(11)
loop_
_geom_bond_atom_site_label_1
_geom_bond_atom_site_label_2
_geom_bond_site_symmetry_1
_geom_bond_site_symmetry_2
Cu1 N1 1_555 1_555
C1 H1 1_555 1_555
C2 C1 1_555 1_555
C3 C2 1_555 1_555
H2 C3 1_555 1_555
C4 C3 1_555 1_555
H3 C4 1_555 1_555
C5 C2 1_555 1_555
H4 C5 1_555 1_555
C6 C7 1_555 1_555
C7 H5 1_555 1_555
C8 C7 1_555 1_555
C9 C6 1_555 1_555
H6 C9 1_555 1_555
H7 C9 1_555 1_555
H8 C9 1_555 1_555
C10 C8 1_555 1_555
H9 C10 1_555 1_555
H10 C10 1_555 1_555
H11 C10 1_555 1_555
C11 C12 1_555 1_555
C12 H12 1_555 1_555
C13 C12 1_555 1_555
C14 C11 1_555 1_555
H13 C14 1_555 1_555
H14 C14 1_555 1_555
H15 C14 1_555 1_555
C15 C13 1_555 1_555
H16 C15 1_555 1_555
H17 C15 1_555 1_555
H18 C15 1_555 1_555
N1 C8 1_555 1_555
N2 C1 1_555 1_555
N3 Cu1 1_555 1_555
N4 C1 1_555 1_555
N5 Cu1 1_555 1_555
N6 N5 1_555 1_555
N7 N6 1_555 1_555
N8 Cu1 1_555 1_555
N9 N8 1_555 1_555
N10 N9 1_555 1_555
C1A H1A 1_555 1_555
C2A C5 1_555 1_555
C3A C4 1_555 1_555
H2A C3A 1_555 1_555
C6A C7A 1_555 1_555
C7A H5A 1_555 1_555
C8A C7A 1_555 1_555
C9A C6A 1_555 1_555
H6A C9A 1_555 1_555
H7A C9A 1_555 1_555
H8A C9A 1_555 1_555
C10A C8A 1_555 1_555
H9A C10A 1_555 1_555
H10A C10A 1_555 1_555
H11A C10A 1_555 1_555
C11A C12A 1_555 1_555
C12A H12A 1_555 1_555
C13A C12A 1_555 1_555
C14A C11A 1_555 1_555
H13A C14A 1_555 1_555
H14A C14A 1_555 1_555
H15A C14A 1_555 1_555
C15A C13A 1_555 1_555
H16A C15A 1_555 1_555
H17A C15A 1_555 1_555
H18A C15A 1_555 1_555
N1A C8A 1_555 1_555
N2A C1A 1_555 1_555
N3A C13A 1_555 1_555
N4A C1A 1_555 1_555
Cu1A N1A 1_555 1_555
N5A Cu1A 1_555 1_555
N6A N5A 1_555 1_555
N7A N6A 1_555 1_555
N8A Cu1A 1_555 1_555
N9A N8A 1_555 1_555
N10A N9A 1_555 1_555
Cu1F N7 1_555 1_555
Cu1G N7A 1_555 1_555
N7F Cu1 1_555 1_555
N7G Cu1A 1_555 1_555
C6 N2 1_555 1_555
C11 N4 1_555 1_555
C13 N3 1_555 1_555
N1 N2 1_555 1_555
N3 N4 1_555 1_555
C1A C2A 1_555 1_555
C2A C3A 1_555 1_555
C6A N2A 1_555 1_555
C11A N4A 1_555 1_555
N1A N2A 1_555 1_555
N3A N4A 1_555 1_555
N3A Cu1A 1_555 1_555

#END
