
#######################################################################
#
#                 Cambridge Crystallographic Data Centre
#                                CCDC 
#
#######################################################################
#
# If this CIF has been generated from an entry in the Cambridge 
# Structural Database, then it will include bibliographic, chemical, 
# crystal, experimental, refinement or atomic coordinate data resulting 
# from the CCDC's data processing and validation procedures.
#
#######################################################################

data_JUDXIR
_symmetry_cell_setting           monoclinic
_symmetry_space_group_name_H-M   'P 21/c'
_symmetry_Int_Tables_number      14
_space_group_name_Hall           '-P 2ybc'
loop_
_symmetry_equiv_pos_site_id
_symmetry_equiv_pos_as_xyz
1 x,y,z
2 -x,1/2+y,1/2-z
3 -x,-y,-z
4 x,1/2-y,1/2+z
_cell_length_a                   9.9604(6)
_cell_length_b                   14.3192(9)
_cell_length_c                   10.6878(7)
_cell_angle_alpha                90
_cell_angle_beta                 98.9100(9)
_cell_angle_gamma                90
_cell_volume                     1505.95
loop_
_atom_site_label
_atom_site_type_symbol
_atom_site_fract_x
_atom_site_fract_y
_atom_site_fract_z
Ag1 Ag 0.11928(2) 0.23756(2) 0.31490(2)
N1 N -0.04629(18) 0.16608(14) 0.17705(18)
N2 N -0.17162(18) 0.15774(13) 0.20861(17)
N3 N 0.00565(16) 0.17147(12) 0.46594(15)
N4 N 0.30868(17) 0.12786(13) 0.70046(17)
N5 N 0.28527(18) 0.16529(13) 0.81157(16)
C1 C -0.0480(2) 0.11349(17) 0.0749(2)
H1 H 0.0253 0.106 0.0314
C2 C -0.1733(3) 0.07115(19) 0.0413(3)
H2 H -0.1996 0.0308 -0.0263
C3 C -0.2497(2) 0.10127(19) 0.1282(2)
H3 H -0.3397 0.0855 0.1313
C4 C -0.2034(2) 0.20274(17) 0.3231(2)
H4 H -0.3006 0.1994 0.3237
H5 H -0.1782 0.2681 0.3225
C5 C -0.1295(2) 0.15704(15) 0.4414(2)
C6 C -0.1955(2) 0.10294(17) 0.5200(2)
H6 H -0.2892 0.0949 0.503
C7 C -0.1202(2) 0.06098(17) 0.6244(2)
H7 H -0.1625 0.0235 0.6777
C8 C 0.0186(2) 0.07517(15) 0.6487(2)
H8 H 0.071 0.0472 0.7183
C9 C 0.0783(2) 0.13177(14) 0.56789(19)
C10 C 0.2274(2) 0.15549(16) 0.58221(19)
H9 H 0.2649 0.1262 0.5135
H10 H 0.236 0.2225 0.5728
C11 C 0.4251(2) 0.07940(18) 0.7160(3)
H11 H 0.4625 0.0485 0.653
C12 C 0.4785(3) 0.08368(19) 0.8407(3)
H12 H 0.5584 0.056 0.8802
C13 C 0.3895(2) 0.13761(18) 0.8967(2)
H13 H 0.4008 0.1526 0.9824
N6 N 0.3934(2) 0.12375(14) 0.2741(2)
O1 O 0.46828(19) 0.16474(15) 0.21131(19)
O2 O 0.2747(2) 0.10663(15) 0.2250(3)
O3 O 0.4345(3) 0.10089(19) 0.3834(2)
Ag1C Ag 0.11928(2) 0.26244(2) 0.81490(2)
N5C N 0.28527(18) 0.33471(13) 0.31157(16)
loop_
_geom_bond_atom_site_label_1
_geom_bond_atom_site_label_2
_geom_bond_site_symmetry_1
_geom_bond_site_symmetry_2
Ag1 N1 1_555 1_555
N1 N2 1_555 1_555
N2 C3 1_555 1_555
N3 Ag1 1_555 1_555
N4 N5 1_555 1_555
N5 C13 1_555 1_555
C1 N1 1_555 1_555
H1 C1 1_555 1_555
C2 C1 1_555 1_555
H2 C2 1_555 1_555
C3 C2 1_555 1_555
H3 C3 1_555 1_555
C4 N2 1_555 1_555
H4 C4 1_555 1_555
H5 C4 1_555 1_555
C5 N3 1_555 1_555
C6 C5 1_555 1_555
H6 C6 1_555 1_555
C7 C6 1_555 1_555
H7 C7 1_555 1_555
C8 C7 1_555 1_555
H8 C8 1_555 1_555
C9 N3 1_555 1_555
C10 N4 1_555 1_555
H9 C10 1_555 1_555
H10 C10 1_555 1_555
C11 N4 1_555 1_555
H11 C11 1_555 1_555
C12 C11 1_555 1_555
H12 C12 1_555 1_555
C13 C12 1_555 1_555
H13 C13 1_555 1_555
N6 O1 1_555 1_555
O2 Ag1 1_555 1_555
O3 N6 1_555 1_555
Ag1C N5 1_555 1_555
N5C Ag1 1_555 1_555
C4 C5 1_555 1_555
C8 C9 1_555 1_555
C9 C10 1_555 1_555
N6 O2 1_555 1_555

#END
