
#######################################################################
#
#                 Cambridge Crystallographic Data Centre
#                                CCDC 
#
#######################################################################
#
# If this CIF has been generated from an entry in the Cambridge 
# Structural Database, then it will include bibliographic, chemical, 
# crystal, experimental, refinement or atomic coordinate data resulting 
# from the CCDC's data processing and validation procedures.
#
#######################################################################

data_JUFBUJ
_symmetry_cell_setting           monoclinic
_symmetry_space_group_name_H-M   'C 2/c'
_symmetry_Int_Tables_number      15
_space_group_name_Hall           '-C 2yn'
loop_
_symmetry_equiv_pos_site_id
_symmetry_equiv_pos_as_xyz
1 x,y,z
2 -x,y,1/2-z
3 1/2+x,1/2+y,z
4 1/2-x,1/2+y,1/2-z
5 -x,-y,-z
6 x,-y,1/2+z
7 1/2-x,1/2-y,-z
8 1/2+x,1/2-y,1/2+z
_cell_length_a                   25.614(2)
_cell_length_b                   12.2428(12)
_cell_length_c                   18.9927(19)
_cell_angle_alpha                90
_cell_angle_beta                 112.679(2)
_cell_angle_gamma                90
_cell_volume                     5495.35
loop_
_atom_site_label
_atom_site_type_symbol
_atom_site_fract_x
_atom_site_fract_y
_atom_site_fract_z
C1 C 0.63430(12) 0.3392(2) 0.47335(18)
C2 C 0.66077(13) 0.2780(3) 0.5389(2)
H1 H 0.6984 0.2577 0.5529
C3 C 0.63206(14) 0.2469(3) 0.5835(2)
H2 H 0.6494 0.2061 0.6278
C4 C 0.57649(13) 0.2790(3) 0.55967(18)
C5 C 0.54954(12) 0.3421(2) 0.49501(17)
C6 C 0.57926(12) 0.3731(2) 0.45053(17)
H3 H 0.5624 0.4153 0.4069
C7 C 0.49165(12) 0.3525(2) 0.48780(17)
C8 C 0.48815(13) 0.2939(3) 0.54806(19)
C9 C 0.43787(15) 0.2779(3) 0.5575(2)
H4 H 0.4363 0.2373 0.5979
C10 C 0.39006(14) 0.3252(3) 0.5039(2)
H5 H 0.3553 0.3158 0.5081
C11 C 0.39302(12) 0.3865(2) 0.44400(17)
C12 C 0.44352(12) 0.4007(2) 0.43530(17)
H6 H 0.4452 0.4418 0.3951
C13 C 0.28959(14) 0.4303(4) 0.3909(2)
H7 H 0.2789 0.3975 0.4275
C14 C 0.25584(14) 0.4839(4) 0.3283(2)
H8 H 0.2173 0.4951 0.3148
C15 C 0.33729(14) 0.4876(3) 0.3271(2)
H9 H 0.3673 0.5017 0.3125
C16 C 0.70431(14) 0.3476(3) 0.3434(2)
H10 H 0.7188 0.3182 0.3095
C17 C 0.68093(15) 0.4612(3) 0.4107(2)
H11 H 0.6754 0.5258 0.4327
C18 C 0.67897(15) 0.2903(3) 0.3817(2)
H12 H 0.6725 0.2153 0.3788
C19 C 0.15922(12) 0.6052(3) 0.15942(17)
C20 C 0.09812(11) 0.6065(2) 0.14772(17)
C21 C 0.07607(12) 0.6894(2) 0.17707(17)
H13 H 0.0996 0.7457 0.2043
C22 C 0.01932(12) 0.6901(2) 0.16661(17)
H14 H 0.0047 0.7460 0.1867
C23 C -0.01480(11) 0.6061(2) 0.12588(18)
C24 C 0.00605(12) 0.5220(3) 0.09629(19)
H15 H -0.0175 0.4655 0.0694
C25 C 0.06292(12) 0.5231(3) 0.10728(18)
H16 H 0.0775 0.4671 0.0872
C26 C -0.09812(11) 0.5166(2) 0.12096(18)
C27 C -0.08146(12) 0.4676(3) 0.19097(18)
H17 H -0.0515 0.4962 0.2324
C28 C -0.10932(13) 0.3755(3) 0.19975(17)
H18 H -0.0978 0.3415 0.2471
C29 C -0.15453(12) 0.3332(2) 0.13816(17)
C30 C -0.17131(11) 0.3849(3) 0.06836(17)
H19 H -0.2018 0.3576 0.0270
C31 C -0.14317(12) 0.4772(3) 0.05920(18)
H20 H -0.1545 0.5119 0.0121
C32 C -0.18495(13) 0.2350(3) 0.14891(19)
Co1 Co 0.260432(15) 0.58307(3) 0.17928(2)
N1 N 0.66453(10) 0.3629(2) 0.42536(15)
N2 N 0.34277(10) 0.43352(19) 0.39022(15)
N3 N 0.28549(10) 0.5190(2) 0.28785(15)
N4 N 0.70560(10) 0.4561(2) 0.36192(16)
O1 O 0.53982(9) 0.2502(2) 0.59388(13)
O2 O 0.19127(9) 0.68184(18) 0.19242(15)
O3 O 0.17824(9) 0.5244(2) 0.13599(14)
O4 O -0.07223(8) 0.61252(17) 0.11258(14)
O5 O -0.16656(11) 0.1871(2) 0.21218(14)
O6 O -0.22893(9) 0.20177(18) 0.09752(14)
Co1A Co 0.739568(15) 0.58307(3) 0.32072(2)
Co1B Co -0.239568(15) 0.08307(3) 0.17928(2)
N4A N 0.29440(10) 0.4561(2) 0.13808(16)
O5B O 0.33344(11) 0.6871(2) 0.21218(14)
O6B O 0.27107(9) 0.70177(18) 0.09752(14)
O7 O 0.0581(2) 0.0852(6) 0.2336(4)
H21 H 0.0942 0.0839 0.2546
H22 H 0.0484 0.0926 0.1854
O8 O 1.0000 0.9364(13) 0.2500
H23 H 0.9794 0.9771 0.2661
H23A H 1.0206 0.9771 0.2339
loop_
_geom_bond_atom_site_label_1
_geom_bond_atom_site_label_2
_geom_bond_site_symmetry_1
_geom_bond_site_symmetry_2
C1 C2 1_555 1_555
C2 H1 1_555 1_555
C3 C2 1_555 1_555
H2 C3 1_555 1_555
C4 C3 1_555 1_555
C5 C4 1_555 1_555
C6 C1 1_555 1_555
H3 C6 1_555 1_555
C7 C5 1_555 1_555
C8 C7 1_555 1_555
C9 C8 1_555 1_555
H4 C9 1_555 1_555
C10 C9 1_555 1_555
H5 C10 1_555 1_555
C11 C10 1_555 1_555
C12 C7 1_555 1_555
H6 C12 1_555 1_555
C13 H7 1_555 1_555
C14 C13 1_555 1_555
H8 C14 1_555 1_555
C15 H9 1_555 1_555
C16 H10 1_555 1_555
C17 H11 1_555 1_555
C18 C16 1_555 1_555
H12 C18 1_555 1_555
C19 C20 1_555 1_555
C20 C21 1_555 1_555
C21 H13 1_555 1_555
C22 C21 1_555 1_555
H14 C22 1_555 1_555
C23 C22 1_555 1_555
C24 C23 1_555 1_555
H15 C24 1_555 1_555
C25 C20 1_555 1_555
H16 C25 1_555 1_555
C26 C27 1_555 1_555
C27 H17 1_555 1_555
C28 C27 1_555 1_555
H18 C28 1_555 1_555
C29 C28 1_555 1_555
C30 C29 1_555 1_555
H19 C30 1_555 1_555
C31 C26 1_555 1_555
H20 C31 1_555 1_555
C32 C29 1_555 1_555
Co1 N3 1_555 1_555
N1 C1 1_555 1_555
N2 C11 1_555 1_555
N3 C14 1_555 1_555
N4 C16 1_555 1_555
O1 C4 1_555 1_555
O2 C19 1_555 1_555
O3 C19 1_555 1_555
O4 C23 1_555 1_555
O5 C32 1_555 1_555
O6 C32 1_555 1_555
O7 H21 1_555 1_555
H22 O7 1_555 1_555
O8 H23 1_555 1_555
Co1A N4 1_555 1_555
Co1B O5 1_555 1_555
N4A Co1 1_555 1_555
O5B Co1 1_555 1_555
O6B Co1 1_555 1_555
H23A O8 1_555 1_555
C5 C6 1_555 1_555
C8 O1 1_555 1_555
C11 C12 1_555 1_555
C13 N2 1_555 1_555
C15 N2 1_555 1_555
C15 N3 1_555 1_555
C17 N1 1_555 1_555
C17 N4 1_555 1_555
C18 N1 1_555 1_555
C24 C25 1_555 1_555
C26 O4 1_555 1_555
C30 C31 1_555 1_555
Co1 O2 1_555 1_555
Co1 O3 1_555 1_555
O6 Co1B 1_555 1_555

#END
