
#######################################################################
#
#                 Cambridge Crystallographic Data Centre
#                                CCDC 
#
#######################################################################
#
# If this CIF has been generated from an entry in the Cambridge 
# Structural Database, then it will include bibliographic, chemical, 
# crystal, experimental, refinement or atomic coordinate data resulting 
# from the CCDC's data processing and validation procedures.
#
#######################################################################

data_JUFGIC
_symmetry_cell_setting           monoclinic
_symmetry_space_group_name_H-M   'P 21/n'
_symmetry_Int_Tables_number      14
_space_group_name_Hall           '-P 2yn'
loop_
_symmetry_equiv_pos_site_id
_symmetry_equiv_pos_as_xyz
1 x,y,z
2 1/2-x,1/2+y,1/2-z
3 -x,-y,-z
4 1/2+x,1/2-y,1/2+z
_cell_length_a                   10.3751(3)
_cell_length_b                   8.3150(3)
_cell_length_c                   23.5131(11)
_cell_angle_alpha                90
_cell_angle_beta                 102.275(4)
_cell_angle_gamma                90
_cell_volume                     1982.08
loop_
_atom_site_label
_atom_site_type_symbol
_atom_site_fract_x
_atom_site_fract_y
_atom_site_fract_z
Cu1 Cu 0.67590(4) 0.09453(6) 0.24726(2)
O1 O 0.6332(2) -0.4283(3) 0.25115(12)
O2 O 0.6620(2) -0.1656(3) 0.25628(12)
N1 N 0.6266(3) 0.1127(4) 0.16121(15)
N2 N 0.6919(3) 0.1341(4) 0.33137(15)
N3 N 0.4840(3) 0.1602(4) 0.24168(14)
C1 C 0.4521(4) 0.2647(5) 0.18899(18)
H1 H 0.4849 0.3751 0.1990
H2 H 0.3553 0.2700 0.1747
C2 C 0.5155(4) 0.1973(5) 0.14218(18)
C3 C 0.4688(4) 0.2277(6) 0.08295(19)
H3 H 0.3892 0.2859 0.0700
C4 C 0.5390(5) 0.1727(6) 0.0438(2)
H4 H 0.5098 0.1946 0.0034
C5 C 0.6539(4) 0.0842(6) 0.0637(2)
H5 H 0.7038 0.0444 0.0372
C6 C 0.6932(4) 0.0559(5) 0.12221(19)
H6 H 0.7705 -0.0062 0.1358
C7 C 0.4756(4) 0.2496(5) 0.29569(18)
H7 H 0.3886 0.2300 0.3053
H8 H 0.4839 0.3664 0.2892
C8 C 0.5840(4) 0.1962(5) 0.34599(18)
C9 C 0.5745(4) 0.2105(6) 0.4038(2)
H9 H 0.4977 0.2546 0.4137
C10 C 0.6795(5) 0.1590(7) 0.4467(2)
H10 H 0.6746 0.1667 0.4865
C11 C 0.7907(5) 0.0967(7) 0.4319(2)
H11 H 0.8634 0.0616 0.4610
C12 C 0.7938(4) 0.0866(5) 0.37314(18)
H12 H 0.8704 0.0448 0.3623
C13 C 0.3935(4) 0.0177(5) 0.2316(2)
H13 H 0.4063 -0.0386 0.1961
H14 H 0.3014 0.0568 0.2240
C14 C 0.4124(4) -0.1034(5) 0.2813(2)
H15 H 0.3294 -0.1102 0.2956
H16 H 0.4819 -0.0629 0.3137
C15 C 0.4502(4) -0.2719(5) 0.26522(19)
H17 H 0.4387 -0.3472 0.2964
H18 H 0.3888 -0.3054 0.2289
C16 C 0.5903(3) -0.2862(5) 0.25645(16)
Cu1A Cu 0.82410(4) -0.40547(6) 0.25274(2)
O1A O 0.8668(2) 0.0717(3) 0.24885(12)
O2A O 0.8380(2) 0.3344(3) 0.24372(12)
Cl1 Cl 0.3123(2) 0.7093(2) 0.08885(9)
O3 O 0.2598(8) 0.6272(9) 0.1322(3)
O4 O 0.3397(6) 0.5926(7) 0.0469(2)
O5 O 0.2216(5) 0.8240(7) 0.0597(2)
O6 O 0.4336(5) 0.7849(7) 0.1139(2)
O11 O 0.1603(9) 0.1505(13) 0.0996(5)
H19 H 0.1904 0.0862 0.0781
C17 C 0.026(2) 0.194(3) 0.0719(12)
H20 H -0.0336 0.1636 0.0972
H21 H 0.0006 0.1379 0.0346
H22 H 0.0211 0.3106 0.0653
O7? O 0.1919(14) 0.675(2) 0.0296(6)
O8? O 0.4042(14) 0.590(2) 0.0682(8)
O9? O 0.254(2) 0.603(3) 0.1287(8)
O10? O 0.3302(16) 0.8383(17) 0.0926(7)
Cl2? Cl 0.2888(8) 0.6704(11) 0.0804(4)
O12? O 0.1374(12) 0.0776(16) 0.1192(5)
H23? H 0.1725 0.0005 0.1051
C18? C 0.037(3) 0.152(3) 0.0734(14)
H24? H 0.0388 0.2689 0.0786
H25? H -0.0505 0.1109 0.0758
H26? H 0.0548 0.1256 0.0352
loop_
_geom_bond_atom_site_label_1
_geom_bond_atom_site_label_2
_geom_bond_site_symmetry_1
_geom_bond_site_symmetry_2
Cu1 O2 1_555 1_555
O1 C16 1_555 1_555
O2 C16 1_555 1_555
N1 Cu1 1_555 1_555
N2 Cu1 1_555 1_555
N3 Cu1 1_555 1_555
C1 N3 1_555 1_555
H1 C1 1_555 1_555
H2 C1 1_555 1_555
C2 N1 1_555 1_555
C3 C2 1_555 1_555
H3 C3 1_555 1_555
C4 C3 1_555 1_555
H4 C4 1_555 1_555
C5 C4 1_555 1_555
H5 C5 1_555 1_555
C6 N1 1_555 1_555
H6 C6 1_555 1_555
C7 N3 1_555 1_555
H7 C7 1_555 1_555
H8 C7 1_555 1_555
C8 N2 1_555 1_555
C9 C8 1_555 1_555
H9 C9 1_555 1_555
C10 C9 1_555 1_555
H10 C10 1_555 1_555
C11 C10 1_555 1_555
H11 C11 1_555 1_555
C12 N2 1_555 1_555
H12 C12 1_555 1_555
C13 N3 1_555 1_555
H13 C13 1_555 1_555
H14 C13 1_555 1_555
C14 C13 1_555 1_555
H15 C14 1_555 1_555
H16 C14 1_555 1_555
C15 C14 1_555 1_555
H17 C15 1_555 1_555
H18 C15 1_555 1_555
C16 C15 1_555 1_555
Cl1 O3 1_555 1_555
O4 Cl1 1_555 1_555
O5 Cl1 1_555 1_555
O6 Cl1 1_555 1_555
O11 H19 1_555 1_555
C17 O11 1_555 1_555
H20 C17 1_555 1_555
H21 C17 1_555 1_555
H22 C17 1_555 1_555
Cu1A O1 1_555 1_555
O1A Cu1 1_555 1_555
O2A Cu1 1_555 1_555
O2 Cu1A 1_555 1_555
C1 C2 1_555 1_555
C5 C6 1_555 1_555
C7 C8 1_555 1_555
C11 C12 1_555 1_555

#END
