
#######################################################################
#
#                 Cambridge Crystallographic Data Centre
#                                CCDC 
#
#######################################################################
#
# If this CIF has been generated from an entry in the Cambridge 
# Structural Database, then it will include bibliographic, chemical, 
# crystal, experimental, refinement or atomic coordinate data resulting 
# from the CCDC's data processing and validation procedures.
#
#######################################################################

data_JUFHID
_symmetry_cell_setting           monoclinic
_symmetry_space_group_name_H-M   'C c'
_symmetry_Int_Tables_number      9
_space_group_name_Hall           'C -2yc'
loop_
_symmetry_equiv_pos_site_id
_symmetry_equiv_pos_as_xyz
1 x,y,z
2 x,-y,1/2+z
3 1/2+x,1/2+y,z
4 1/2+x,1/2-y,1/2+z
_cell_length_a                   36.788(7)
_cell_length_b                   8.6690(17)
_cell_length_c                   33.481(7)
_cell_angle_alpha                90
_cell_angle_beta                 102.29(3)
_cell_angle_gamma                90
_cell_volume                     10432.9
loop_
_atom_site_label
_atom_site_type_symbol
_atom_site_fract_x
_atom_site_fract_y
_atom_site_fract_z
Zn1 Zn 0.059059(14) -0.21841(6) 0.335357(16)
Zn2 Zn 0.507513(13) 0.09354(5) 0.459738(14)
O1 O 0.45428(8) -0.0109(4) 0.43605(9)
O2 O 0.49266(8) 0.0266(4) 0.39520(10)
O3 O 0.00610(8) -0.3226(4) 0.33035(11)
H1 H -0.0129(8) -0.277(6) 0.3172(16)
H2 H -0.0016(13) -0.379(6) 0.3471(14)
O4 O 0.11365(10) -0.1126(4) 0.35941(11)
O5 O 0.07578(8) -0.1679(4) 0.39977(10)
O6 O 0.56132(8) 0.1861(4) 0.46418(10)
H3 H 0.5629(13) 0.232(6) 0.4425(10)
H4 H 0.5815(8) 0.139(6) 0.4724(15)
N1 N 0.03354(11) -0.0196(5) 0.31007(14)
N2 N 0.08261(11) -0.4399(5) 0.34031(13)
N3 N 0.06439(10) -0.2545(5) 0.27265(12)
N4 N 0.48462(9) 0.3186(4) 0.45094(11)
N5 N 0.53313(10) -0.1014(4) 0.49081(13)
N6 N 0.50196(10) 0.1490(4) 0.52149(10)
C1 C 0.03419(13) -0.1610(6) 0.24791(16)
H5 H 0.0110 -0.2225 0.2422
H6 H 0.0407 -0.1360 0.2214
C2 C 0.02746(12) -0.0143(6) 0.26875(17)
C3 C 0.01373(13) 0.1176(7) 0.2478(2)
H7 H 0.0104 0.1211 0.2189
C4 C 0.00483(14) 0.2443(7) 0.2687(2)
H8 H -0.0047 0.3351 0.2543
C5 C 0.00999(15) 0.2376(6) 0.3105(3)
H9 H 0.0038 0.3232 0.3255
C6 C 0.02437(14) 0.1041(6) 0.3306(2)
H10 H 0.0279 0.0992 0.3596
C7 C 0.05864(13) -0.4232(5) 0.26798(15)
H11 H 0.0663 -0.4582 0.2429
H12 H 0.0319 -0.4469 0.2650
C8 C 0.08055(12) -0.5084(5) 0.30399(16)
C9 C 0.09738(12) -0.6516(6) 0.30066(16)
H13 H 0.0962 -0.6980 0.2747
C10 C 0.11584(14) -0.7240(6) 0.33645(19)
H14 H 0.1270 -0.8222 0.3351
C11 C 0.11796(15) -0.6548(6) 0.37305(17)
H15 H 0.1307 -0.7026 0.3976
C12 C 0.10090(16) -0.5110(6) 0.37385(17)
H16 H 0.1024 -0.4618 0.3995
C13 C 0.10134(12) -0.2181(5) 0.26293(14)
H17 H 0.1015 -0.2578 0.2353
H18 H 0.1209 -0.2738 0.2825
C14 C 0.11108(13) -0.0499(6) 0.26435(14)
H19 H 0.1090 -0.0066 0.2911
H20 H 0.0933 0.0056 0.2428
C15 C 0.15084(12) -0.0258(6) 0.25802(14)
H21 H 0.1548 -0.0947 0.2357
H22 H 0.1532 0.0818 0.2490
C16 C 0.18142(12) -0.0558(5) 0.29552(13)
H23 H 0.1770 -0.1570 0.3073
H24 H 0.1803 0.0243 0.3163
C17 C 0.22058(12) -0.0552(5) 0.28583(13)
H25 H 0.2220 -0.1391 0.2661
H26 H 0.2242 0.0437 0.2724
C18 C 0.25186(13) -0.0754(6) 0.32258(14)
H27 H 0.2473 -0.1700 0.3374
H28 H 0.2519 0.0132 0.3413
C19 C 0.29002(12) -0.0873(5) 0.31180(14)
H29 H 0.2932 0.0005 0.2939
H30 H 0.2910 -0.1834 0.2961
C20 C 0.32236(13) -0.0871(5) 0.34926(14)
H31 H 0.3202 0.0050 0.3661
H32 H 0.3203 -0.1795 0.3660
C21 C 0.36041(12) -0.0866(5) 0.33823(14)
H33 H 0.3633 -0.1825 0.3231
H34 H 0.3618 0.0016 0.3199
C22 C 0.39217(11) -0.0753(5) 0.37541(13)
H35 H 0.3879 0.0149 0.3920
H36 H 0.3922 -0.1687 0.3924
C23 C 0.42989(12) -0.0591(5) 0.36457(14)
H37 H 0.4367 -0.1585 0.3535
H38 H 0.4283 0.0195 0.3428
C24 C 0.46021(12) -0.0132(5) 0.40066(13)
C25 C 0.50798(13) 0.3180(5) 0.52401(14)
H39 H 0.5347 0.3409 0.5265
H40 H 0.5003 0.3590 0.5486
C26 C 0.48554(11) 0.3951(5) 0.48613(12)
C27 C 0.46869(11) 0.5371(5) 0.48725(13)
H41 H 0.4694 0.5876 0.5126
C28 C 0.45079(11) 0.6043(5) 0.45087(14)
H42 H 0.4396 0.7030 0.4509
C29 C 0.44932(12) 0.5269(5) 0.41447(14)
H43 H 0.4371 0.5707 0.3892
C30 C 0.46634(12) 0.3828(5) 0.41597(13)
H44 H 0.4649 0.3276 0.3912
C31 C 0.53257(13) 0.0651(6) 0.54941(14)
H45 H 0.5257 0.0492 0.5762
H46 H 0.5555 0.1283 0.5540
C32 C 0.53991(12) -0.0888(5) 0.53178(15)
C33 C 0.55540(13) -0.2110(6) 0.55722(17)
H47 H 0.5587 -0.2029 0.5861
C34 C 0.56567(13) -0.3425(6) 0.53968(19)
H48 H 0.5770 -0.4254 0.5563
C35 C 0.55935(13) -0.3535(6) 0.4974(2)
H49 H 0.5662 -0.4441 0.4849
C36 C 0.54301(12) -0.2315(5) 0.47394(17)
H50 H 0.5386 -0.2394 0.4450
C37 C 0.46505(12) 0.1142(5) 0.52997(13)
H51 H 0.4459 0.1652 0.5089
H52 H 0.4637 0.1602 0.5567
C38 C 0.45546(13) -0.0562(5) 0.53093(14)
H53 H 0.4732 -0.1075 0.5534
H54 H 0.4577 -0.1051 0.5048
C39 C 0.41591(14) -0.0772(6) 0.53735(14)
H55 H 0.4139 -0.1813 0.5488
H56 H 0.4116 -0.0011 0.5579
C40 C 0.38535(13) -0.0591(5) 0.49908(14)
H57 H 0.3880 0.0425 0.4865
H58 H 0.3884 -0.1397 0.4791
C41 C 0.34658(14) -0.0714(6) 0.50775(15)
H59 H 0.3452 -0.1664 0.5238
H60 H 0.3425 0.0175 0.5248
C42 C 0.31569(14) -0.0752(6) 0.46990(16)
H61 H 0.3203 -0.1612 0.4522
H62 H 0.3162 0.0221 0.4545
C43 C 0.27714(14) -0.0952(6) 0.47944(17)
H63 H 0.2764 -0.1948 0.4937
H64 H 0.2732 -0.0121 0.4983
C44 C 0.24604(14) -0.0917(7) 0.44260(19)
H65 H 0.2479 -0.1824 0.4252
H66 H 0.2481 0.0023 0.4265
C45 C 0.20826(15) -0.0931(7) 0.45474(17)
H67 H 0.2069 -0.1842 0.4722
H68 H 0.2060 0.0003 0.4711
C46 C 0.17652(15) -0.0977(8) 0.41871(18)
H69 H 0.1786 -0.1913 0.4024
H70 H 0.1779 -0.0068 0.4012
C47 C 0.13852(14) -0.0984(7) 0.43136(18)
H71 H 0.1383 -0.1804 0.4519
H72 H 0.1346 0.0019 0.4440
C48 C 0.10793(13) -0.1258(6) 0.39494(16)
Zn3 Zn 0.219341(13) 0.49522(5) 0.125712(15)
Zn4 Zn 0.340458(13) 0.46420(5) 0.666124(14)
O7 O 0.31734(8) 0.3537(3) 0.61416(8)
O8 O 0.26580(9) 0.4987(4) 0.60090(9)
O9 O 0.24241(8) 0.3826(3) 0.17758(8)
O10 O 0.29321(8) 0.5276(3) 0.18964(9)
N7 N 0.19724(10) 0.3105(4) 0.08986(10)
N8 N 0.21560(10) 0.7289(4) 0.14013(10)
N9 N 0.16039(10) 0.5095(4) 0.13119(11)
N10 N 0.34538(10) 0.6944(4) 0.65200(10)
N11 N 0.36082(11) 0.2812(4) 0.70275(10)
N12 N 0.39986(10) 0.4727(4) 0.66044(10)
C49 C 0.13805(13) 0.4137(5) 0.09803(14)
H73 H 0.1279 0.4804 0.0743
H74 H 0.1168 0.3681 0.1077
C50 C 0.16038(13) 0.2875(5) 0.08483(12)
C51 C 0.14364(14) 0.1550(6) 0.06560(15)
H75 H 0.1176 0.1405 0.0621
C52 C 0.16502(16) 0.0453(6) 0.05178(15)
H76 H 0.1540 -0.0461 0.0389
C53 C 0.20270(16) 0.0704(6) 0.05693(14)
H77 H 0.2180 -0.0043 0.0478
C54 C 0.21817(14) 0.2047(6) 0.07537(14)
H78 H 0.2440 0.2230 0.0779
C55 C 0.14906(12) 0.6753(5) 0.12683(13)
H79 H 0.1295 0.6950 0.1425
H80 H 0.1385 0.6984 0.0977
C56 C 0.18204(12) 0.7801(5) 0.14234(12)
C57 C 0.17679(13) 0.9250(5) 0.15716(13)
H81 H 0.1526 0.9602 0.1583
C58 C 0.20803(14) 1.0194(5) 0.17058(14)
H82 H 0.2052 1.1193 0.1811
C59 C 0.24250(14) 0.9661(5) 0.16830(14)
H83 H 0.2640 1.0282 0.1771
C60 C 0.24536(12) 0.8185(5) 0.15270(13)
H84 H 0.2692 0.7805 0.1510
C61 C 0.15588(13) 0.4438(6) 0.17089(13)
H85 H 0.1652 0.3363 0.1728
H86 H 0.1290 0.4398 0.1709
C62 C 0.17566(12) 0.5312(5) 0.20884(13)
H87 H 0.1607 0.6221 0.2133
H88 H 0.2002 0.5680 0.2051
C63 C 0.18084(13) 0.4237(6) 0.24587(13)
H89 H 0.1567 0.3744 0.2465
H90 H 0.1986 0.3411 0.2427
C64 C 0.19508(13) 0.5055(5) 0.28613(14)
H91 H 0.1750 0.5715 0.2924
H92 H 0.2161 0.5734 0.2834
C65 C 0.20803(12) 0.3943(5) 0.32148(13)
H93 H 0.2296 0.3350 0.3164
H94 H 0.1878 0.3200 0.3225
C66 C 0.21905(14) 0.4759(6) 0.36273(14)
H95 H 0.2394 0.5497 0.3617
H96 H 0.1975 0.5357 0.3676
C67 C 0.23180(13) 0.3657(6) 0.39830(13)
H97 H 0.2113 0.2935 0.3998
H98 H 0.2530 0.3042 0.3932
C68 C 0.24351(13) 0.4484(6) 0.43893(14)
H99 H 0.2228 0.5152 0.4432
H100 H 0.2650 0.5158 0.4379
C69 C 0.25408(13) 0.3388(6) 0.47515(13)
H101 H 0.2328 0.2698 0.4758
H102 H 0.2752 0.2736 0.4712
C70 C 0.26497(12) 0.4216(6) 0.51592(14)
H103 H 0.2445 0.4915 0.5192
H104 H 0.2873 0.4854 0.5161
C71 C 0.27318(14) 0.3082(5) 0.55216(13)
H105 H 0.2504 0.2489 0.5532
H106 H 0.2926 0.2344 0.5482
C72 C 0.28610(12) 0.3931(5) 0.59201(13)
C73 C 0.41157(11) 0.6349(5) 0.66552(12)
H107 H 0.4316 0.6539 0.6505
H108 H 0.4217 0.6562 0.6948
C74 C 0.37939(11) 0.7424(5) 0.64974(11)
C75 C 0.38502(13) 0.8880(5) 0.63399(13)
H109 H 0.4093 0.9212 0.6324
C76 C 0.35454(14) 0.9825(5) 0.62080(14)
H110 H 0.3578 1.0823 0.6104
C77 C 0.31959(13) 0.9323(5) 0.62276(14)
H111 H 0.2984 0.9956 0.6135
C78 C 0.31603(12) 0.7879(5) 0.63852(13)
H112 H 0.2919 0.7526 0.6400
C79 C 0.42084(12) 0.3724(5) 0.69351(12)
H113 H 0.4311 0.4365 0.7178
H114 H 0.4420 0.3244 0.6842
C80 C 0.39689(12) 0.2483(5) 0.70540(12)
C81 C 0.41213(14) 0.1070(6) 0.72147(13)
H115 H 0.4376 0.0836 0.7227
C82 C 0.38925(15) 0.0033(6) 0.73536(15)
H116 H 0.3989 -0.0932 0.7462
C83 C 0.35248(15) 0.0392(6) 0.73348(14)
H117 H 0.3365 -0.0305 0.7434
C84 C 0.33944(12) 0.1801(5) 0.71677(12)
H118 H 0.3141 0.2055 0.7153
C85 C 0.40431(12) 0.4078(5) 0.62027(13)
H119 H 0.3939 0.3021 0.6175
H120 H 0.4312 0.3995 0.6206
C86 C 0.38614(13) 0.4992(5) 0.58324(13)
H121 H 0.3996 0.5976 0.5824
H122 H 0.3601 0.5236 0.5846
C87 C 0.38672(13) 0.4044(5) 0.54441(12)
H123 H 0.4126 0.3719 0.5448
H124 H 0.3716 0.3101 0.5446
C88 C 0.37176(12) 0.4945(5) 0.50535(13)
H125 H 0.3891 0.5799 0.5032
H126 H 0.3474 0.5403 0.5069
C89 C 0.36690(13) 0.3930(5) 0.46683(13)
H127 H 0.3914 0.3494 0.4651
H128 H 0.3502 0.3059 0.4695
C90 C 0.35099(12) 0.4795(5) 0.42741(12)
H129 H 0.3689 0.5602 0.4233
H130 H 0.3277 0.5315 0.4301
C91 C 0.34287(12) 0.3743(5) 0.38986(12)
H131 H 0.3662 0.3223 0.3872
H132 H 0.3250 0.2936 0.3940
C92 C 0.32705(12) 0.4600(5) 0.35060(13)
H133 H 0.3460 0.5331 0.3449
H134 H 0.3052 0.5208 0.3543
C93 C 0.31538(11) 0.3530(5) 0.31418(12)
H135 H 0.2965 0.2798 0.3199
H136 H 0.3372 0.2922 0.3105
C94 C 0.29947(12) 0.4388(5) 0.27473(13)
H137 H 0.3182 0.5139 0.2694
H138 H 0.2773 0.4976 0.2782
C95 C 0.28853(13) 0.3320(5) 0.23767(13)
H139 H 0.3106 0.2720 0.2343
H140 H 0.2694 0.2583 0.2426
C96 C 0.27366(11) 0.4205(5) 0.19930(12)
Zn3A Zn 0.219341(13) 0.50478(5) 0.625712(15)
Zn4A Zn 0.340458(13) 0.53580(5) 0.166124(14)
O8A O 0.26580(9) 0.5013(4) 0.10090(9)
O10A O 0.29321(8) 0.4724(3) 0.68964(9)
Cl1 Cl -0.0088(3) 0.4973(14) 0.1604(4)
O11 O -0.0236(4) 0.5945(15) 0.1882(4)
O12 O -0.0380(3) 0.4138(13) 0.1334(3)
O13 O 0.0163(3) 0.3964(11) 0.1836(3)
O14 O 0.0087(3) 0.5916(11) 0.1350(3)
Cl2 Cl 0.07134(3) 0.07795(15) 0.14619(4)
O15 O 0.09647(17) 0.1613(7) 0.17636(16)
O16 O 0.03642(15) 0.0618(8) 0.15604(18)
O17 O 0.08527(15) -0.0745(6) 0.1450(2)
O18 O 0.06718(15) 0.1526(6) 0.10827(14)
Cl3 Cl 0.15191(3) 0.41207(15) 0.49856(4)
O19 O 0.17391(10) 0.3711(5) 0.53771(13)
O20 O 0.11617(9) 0.4684(5) 0.50345(11)
O21 O 0.16961(14) 0.5279(7) 0.4813(2)
O22 O 0.14705(17) 0.2758(7) 0.47463(15)
Cl4 Cl 0.41610(3) 0.40266(13) 0.29080(3)
O23 O 0.41115(10) 0.3078(5) 0.32471(11)
O24 O 0.38520(9) 0.3851(4) 0.25670(10)
O25 O 0.44895(9) 0.3505(6) 0.27783(11)
O26 O 0.42022(16) 0.5591(5) 0.30254(14)
O27 O -0.01982(11) 0.8977(6) 0.09651(14)
Cl5? Cl -0.0071(3) 0.5100(14) 0.1602(4)
O28? O -0.0179(4) 0.5686(19) 0.1957(4)
O29? O -0.0252(3) 0.3681(15) 0.1492(4)
O30? O 0.0307(3) 0.5156(15) 0.1617(4)
O31? O -0.0236(3) 0.6142(14) 0.1272(3)
loop_
_geom_bond_atom_site_label_1
_geom_bond_atom_site_label_2
_geom_bond_site_symmetry_1
_geom_bond_site_symmetry_2
Zn1 O3 1_555 1_555
Zn2 O1 1_555 1_555
O1 C24 1_555 1_555
O2 Zn2 1_555 1_555
O3 H1 1_555 1_555
H2 O3 1_555 1_555
O4 Zn1 1_555 1_555
O5 Zn1 1_555 1_555
O6 Zn2 1_555 1_555
H3 O6 1_555 1_555
H4 O6 1_555 1_555
N1 Zn1 1_555 1_555
N2 Zn1 1_555 1_555
N3 Zn1 1_555 1_555
N4 Zn2 1_555 1_555
N5 Zn2 1_555 1_555
N6 Zn2 1_555 1_555
C1 N3 1_555 1_555
H5 C1 1_555 1_555
H6 C1 1_555 1_555
C2 N1 1_555 1_555
C3 C2 1_555 1_555
H7 C3 1_555 1_555
C4 C3 1_555 1_555
H8 C4 1_555 1_555
C5 C4 1_555 1_555
H9 C5 1_555 1_555
C6 N1 1_555 1_555
H10 C6 1_555 1_555
C7 N3 1_555 1_555
H11 C7 1_555 1_555
H12 C7 1_555 1_555
C8 N2 1_555 1_555
C9 C8 1_555 1_555
H13 C9 1_555 1_555
C10 C9 1_555 1_555
H14 C10 1_555 1_555
C11 C10 1_555 1_555
H15 C11 1_555 1_555
C12 N2 1_555 1_555
H16 C12 1_555 1_555
C13 N3 1_555 1_555
H17 C13 1_555 1_555
H18 C13 1_555 1_555
C14 C13 1_555 1_555
H19 C14 1_555 1_555
H20 C14 1_555 1_555
C15 C14 1_555 1_555
H21 C15 1_555 1_555
H22 C15 1_555 1_555
C16 C15 1_555 1_555
H23 C16 1_555 1_555
H24 C16 1_555 1_555
C17 C16 1_555 1_555
H25 C17 1_555 1_555
H26 C17 1_555 1_555
C18 C17 1_555 1_555
H27 C18 1_555 1_555
H28 C18 1_555 1_555
C19 C18 1_555 1_555
H29 C19 1_555 1_555
H30 C19 1_555 1_555
C20 C19 1_555 1_555
H31 C20 1_555 1_555
H32 C20 1_555 1_555
C21 C20 1_555 1_555
H33 C21 1_555 1_555
H34 C21 1_555 1_555
C22 C21 1_555 1_555
H35 C22 1_555 1_555
H36 C22 1_555 1_555
C23 C22 1_555 1_555
H37 C23 1_555 1_555
H38 C23 1_555 1_555
C24 O2 1_555 1_555
C25 N6 1_555 1_555
H39 C25 1_555 1_555
H40 C25 1_555 1_555
C26 N4 1_555 1_555
C27 C26 1_555 1_555
H41 C27 1_555 1_555
C28 C27 1_555 1_555
H42 C28 1_555 1_555
C29 C28 1_555 1_555
H43 C29 1_555 1_555
C30 N4 1_555 1_555
H44 C30 1_555 1_555
C31 N6 1_555 1_555
H45 C31 1_555 1_555
H46 C31 1_555 1_555
C32 N5 1_555 1_555
C33 C32 1_555 1_555
H47 C33 1_555 1_555
C34 C33 1_555 1_555
H48 C34 1_555 1_555
C35 C34 1_555 1_555
H49 C35 1_555 1_555
C36 N5 1_555 1_555
H50 C36 1_555 1_555
C37 N6 1_555 1_555
H51 C37 1_555 1_555
H52 C37 1_555 1_555
C38 C37 1_555 1_555
H53 C38 1_555 1_555
H54 C38 1_555 1_555
C39 C38 1_555 1_555
H55 C39 1_555 1_555
H56 C39 1_555 1_555
C40 C39 1_555 1_555
H57 C40 1_555 1_555
H58 C40 1_555 1_555
C41 C40 1_555 1_555
H59 C41 1_555 1_555
H60 C41 1_555 1_555
C42 C41 1_555 1_555
H61 C42 1_555 1_555
H62 C42 1_555 1_555
C43 C42 1_555 1_555
H63 C43 1_555 1_555
H64 C43 1_555 1_555
C44 C43 1_555 1_555
H65 C44 1_555 1_555
H66 C44 1_555 1_555
C45 C44 1_555 1_555
H67 C45 1_555 1_555
H68 C45 1_555 1_555
C46 C45 1_555 1_555
H69 C46 1_555 1_555
H70 C46 1_555 1_555
C47 C46 1_555 1_555
H71 C47 1_555 1_555
H72 C47 1_555 1_555
C48 O4 1_555 1_555
Zn3 O9 1_555 1_555
Zn4 O7 1_555 1_555
O7 C72 1_555 1_555
O8 C72 1_555 1_555
O9 C96 1_555 1_555
O10 C96 1_555 1_555
N7 Zn3 1_555 1_555
N8 Zn3 1_555 1_555
N9 Zn3 1_555 1_555
N10 Zn4 1_555 1_555
N11 Zn4 1_555 1_555
N12 Zn4 1_555 1_555
C49 N9 1_555 1_555
H73 C49 1_555 1_555
H74 C49 1_555 1_555
C50 N7 1_555 1_555
C51 C50 1_555 1_555
H75 C51 1_555 1_555
C52 C51 1_555 1_555
H76 C52 1_555 1_555
C53 C52 1_555 1_555
H77 C53 1_555 1_555
C54 N7 1_555 1_555
H78 C54 1_555 1_555
C55 N9 1_555 1_555
H79 C55 1_555 1_555
H80 C55 1_555 1_555
C56 N8 1_555 1_555
C57 C56 1_555 1_555
H81 C57 1_555 1_555
C58 C57 1_555 1_555
H82 C58 1_555 1_555
C59 C58 1_555 1_555
H83 C59 1_555 1_555
C60 N8 1_555 1_555
H84 C60 1_555 1_555
C61 N9 1_555 1_555
H85 C61 1_555 1_555
H86 C61 1_555 1_555
C62 C61 1_555 1_555
H87 C62 1_555 1_555
H88 C62 1_555 1_555
C63 C62 1_555 1_555
H89 C63 1_555 1_555
H90 C63 1_555 1_555
C64 C63 1_555 1_555
H91 C64 1_555 1_555
H92 C64 1_555 1_555
C65 C64 1_555 1_555
H93 C65 1_555 1_555
H94 C65 1_555 1_555
C66 C65 1_555 1_555
H95 C66 1_555 1_555
H96 C66 1_555 1_555
C67 C66 1_555 1_555
H97 C67 1_555 1_555
H98 C67 1_555 1_555
C68 C67 1_555 1_555
H99 C68 1_555 1_555
H100 C68 1_555 1_555
C69 C68 1_555 1_555
H101 C69 1_555 1_555
H102 C69 1_555 1_555
C70 C69 1_555 1_555
H103 C70 1_555 1_555
H104 C70 1_555 1_555
C71 C70 1_555 1_555
H105 C71 1_555 1_555
H106 C71 1_555 1_555
C72 C71 1_555 1_555
C73 N12 1_555 1_555
H107 C73 1_555 1_555
H108 C73 1_555 1_555
C74 N10 1_555 1_555
C75 C74 1_555 1_555
H109 C75 1_555 1_555
C76 C75 1_555 1_555
H110 C76 1_555 1_555
C77 C76 1_555 1_555
H111 C77 1_555 1_555
C78 N10 1_555 1_555
H112 C78 1_555 1_555
C79 N12 1_555 1_555
H113 C79 1_555 1_555
H114 C79 1_555 1_555
C80 N11 1_555 1_555
C81 C80 1_555 1_555
H115 C81 1_555 1_555
C82 C81 1_555 1_555
H116 C82 1_555 1_555
C83 C82 1_555 1_555
H117 C83 1_555 1_555
C84 N11 1_555 1_555
H118 C84 1_555 1_555
C85 N12 1_555 1_555
H119 C85 1_555 1_555
H120 C85 1_555 1_555
C86 C85 1_555 1_555
H121 C86 1_555 1_555
H122 C86 1_555 1_555
C87 C86 1_555 1_555
H123 C87 1_555 1_555
H124 C87 1_555 1_555
C88 C87 1_555 1_555
H125 C88 1_555 1_555
H126 C88 1_555 1_555
C89 C88 1_555 1_555
H127 C89 1_555 1_555
H128 C89 1_555 1_555
C90 C89 1_555 1_555
H129 C90 1_555 1_555
H130 C90 1_555 1_555
C91 C90 1_555 1_555
H131 C91 1_555 1_555
H132 C91 1_555 1_555
C92 C91 1_555 1_555
H133 C92 1_555 1_555
H134 C92 1_555 1_555
C93 C92 1_555 1_555
H135 C93 1_555 1_555
H136 C93 1_555 1_555
C94 C93 1_555 1_555
H137 C94 1_555 1_555
H138 C94 1_555 1_555
C95 C94 1_555 1_555
H139 C95 1_555 1_555
H140 C95 1_555 1_555
C96 C95 1_555 1_555
Cl1 O11 1_555 1_555
O12 Cl1 1_555 1_555
O13 Cl1 1_555 1_555
O14 Cl1 1_555 1_555
Cl2 O15 1_555 1_555
O16 Cl2 1_555 1_555
O17 Cl2 1_555 1_555
O18 Cl2 1_555 1_555
Cl3 O19 1_555 1_555
O20 Cl3 1_555 1_555
O21 Cl3 1_555 1_555
O22 Cl3 1_555 1_555
Cl4 O23 1_555 1_555
O24 Cl4 1_555 1_555
O25 Cl4 1_555 1_555
O26 Cl4 1_555 1_555
Zn3A O8 1_555 1_555
Zn4A O10 1_555 1_555
O8A Zn3 1_555 1_555
O10A Zn4 1_555 1_555
O5 C48 1_555 1_555
C1 C2 1_555 1_555
C5 C6 1_555 1_555
C7 C8 1_555 1_555
C11 C12 1_555 1_555
C23 C24 1_555 1_555
C25 C26 1_555 1_555
C29 C30 1_555 1_555
C31 C32 1_555 1_555
C35 C36 1_555 1_555
C47 C48 1_555 1_555
C49 C50 1_555 1_555
C53 C54 1_555 1_555
C55 C56 1_555 1_555
C59 C60 1_555 1_555
C73 C74 1_555 1_555
C77 C78 1_555 1_555
C79 C80 1_555 1_555
C83 C84 1_555 1_555

#END
