
#######################################################################
#
#                 Cambridge Crystallographic Data Centre
#                                CCDC 
#
#######################################################################
#
# If this CIF has been generated from an entry in the Cambridge 
# Structural Database, then it will include bibliographic, chemical, 
# crystal, experimental, refinement or atomic coordinate data resulting 
# from the CCDC's data processing and validation procedures.
#
#######################################################################

data_JUFLED
_symmetry_cell_setting           monoclinic
_symmetry_space_group_name_H-M   'P 2/n'
_symmetry_Int_Tables_number      13
_space_group_name_Hall           '-P 2yac'
loop_
_symmetry_equiv_pos_site_id
_symmetry_equiv_pos_as_xyz
1 x,y,z
2 1/2-x,y,1/2-z
3 -x,-y,-z
4 1/2+x,-y,1/2+z
_cell_length_a                   13.400(5)
_cell_length_b                   8.579(5)
_cell_length_c                   15.101(5)
_cell_angle_alpha                90
_cell_angle_beta                 91.474(5)
_cell_angle_gamma                90
_cell_volume                     1735.42
loop_
_atom_site_label
_atom_site_type_symbol
_atom_site_fract_x
_atom_site_fract_y
_atom_site_fract_z
Zn1 Zn 0.7500 0.21938(2) 0.2500
Zn2 Zn 1.2500 1.21837(2) 0.2500
S1 S 0.97225(3) 0.76090(4) 0.49794(2)
O1 O 1.32601(7) 1.27269(11) 0.37191(7)
O2 O 0.62837(7) 0.16405(11) 0.32174(6)
C1 C 0.77603(10) 0.44609(16) 0.40473(9)
H1 H 0.7141 0.4084 0.4212
O3 O 1.36412(7) 1.40629(12) 0.25298(6)
C2 C 1.06043(9) 1.03649(15) 0.29725(9)
H2 H 1.0312 1.0888 0.2493
C3 C 1.04439(10) 0.86519(15) 0.42064(9)
C4 C 1.14626(11) 0.88095(17) 0.43688(10)
H3 H 1.1776 0.8286 0.4838
N1 N 1.15921(8) 1.05463(13) 0.31342(7)
N2 N 0.81890(8) 0.38379(13) 0.33334(7)
C5 C 1.37336(9) 1.38224(16) 0.33475(9)
C6 C 0.82000(11) 0.56400(16) 0.45490(9)
H4 H 0.7883 0.6048 0.5038
C7 C 0.91290(10) 0.61980(15) 0.43017(9)
C8 C 0.95810(10) 0.55527(16) 0.35682(9)
H5 H 1.0202 0.5901 0.3391
C9 C 1.00046(10) 0.94342(15) 0.34881(9)
H6 H 0.9326 0.9334 0.3358
C10 C 0.52723(10) 0.03286(16) 0.46361(9)
H7 H 0.4980 0.1142 0.4316
C11 C 0.61721(10) -0.01706(16) 0.44003(9)
H8 H 0.6458 -0.1018 0.4696
C12 C 1.46492(10) 1.45384(16) 0.47353(9)
H9 H 1.4339 1.3700 0.5005
C13 C 1.44236(10) 1.48227(16) 0.38857(9)
H10 H 1.4710 1.5684 0.3618
C14 C 0.90854(10) 0.43821(15) 0.31087(9)
H11 H 0.9389 0.3950 0.2619
O4 O 0.76184(7) 0.02351(12) 0.35638(7)
C15 C 0.67271(10) 0.05873(16) 0.36816(8)
C16 C 1.20025(10) 0.97623(17) 0.38177(10)
H12 H 1.2685 0.9863 0.3928
O1B O 1.67399(7) 1.72731(11) 0.62809(7)
O3B O 1.63588(7) 1.59371(12) 0.74702(6)
C5B C 1.62664(9) 1.61776(16) 0.66525(9)
C12B C 1.53508(10) 1.54616(16) 0.52647(9)
H9B H 1.5661 1.6300 0.4995
C13B C 1.55764(10) 1.51773(16) 0.61143(9)
H10B H 1.5290 1.4316 0.6382
O2B O 0.37163(7) -0.16405(11) 0.67826(6)
C10B C 0.47277(10) -0.03286(16) 0.53639(9)
H7B H 0.5020 -0.1142 0.5684
C11B C 0.38279(10) 0.01706(16) 0.55997(9)
H8B H 0.3542 0.1018 0.5304
O4B O 0.23816(7) -0.02351(12) 0.64362(7)
C15B C 0.32729(10) -0.05873(16) 0.63184(8)
S1A S 0.52775(3) 0.76090(4) 0.00206(2)
C1A C 0.72397(10) 0.44609(16) 0.09527(9)
H1A H 0.7859 0.4084 0.0788
C2A C 0.43957(9) 1.03649(15) 0.20275(9)
H2A H 0.4688 1.0888 0.2507
C3A C 0.45561(10) 0.86519(15) 0.07936(9)
C4A C 0.35374(11) 0.88095(17) 0.06312(10)
H3A H 0.3224 0.8286 0.0162
N1A N 0.34079(8) 1.05463(13) 0.18658(7)
N2A N 0.68110(8) 0.38379(13) 0.16666(7)
C6A C 0.68000(11) 0.56400(16) 0.04510(9)
H4A H 0.7117 0.6048 -0.0038
C7A C 0.58710(10) 0.61980(15) 0.06983(9)
C8A C 0.54190(10) 0.55527(16) 0.14318(9)
H5A H 0.4798 0.5901 0.1609
C9A C 0.49954(10) 0.94342(15) 0.15119(9)
H6A H 0.5674 0.9334 0.1642
C14A C 0.59146(10) 0.43821(15) 0.18913(9)
H11A H 0.5611 0.3950 0.2381
C16A C 0.29975(10) 0.97623(17) 0.11823(10)
H12A H 0.2315 0.9863 0.1072
Zn1B Zn 0.2500 -0.21938(2) 0.7500
Zn2_2 Zn 0.2500 1.21837(2) 0.2500
Zn2B Zn 1.7500 1.78163(2) 0.7500
O1A O 1.17399(7) 1.27269(11) 0.12809(7)
O2A O 0.87163(7) 0.16405(11) 0.17826(6)
O3A O 1.13588(7) 1.40629(12) 0.24702(6)
N1A_2 N 1.34079(8) 1.05463(13) 0.18658(7)
O4A O 0.73816(7) 0.02351(12) 0.14362(7)
loop_
_geom_bond_atom_site_label_1
_geom_bond_atom_site_label_2
_geom_bond_site_symmetry_1
_geom_bond_site_symmetry_2
Zn1 O2 1_555 1_555
Zn2 O1 1_555 1_555
S1 C3 1_555 1_555
O1 C5 1_555 1_555
O2 C15 1_555 1_555
C1 H1 1_555 1_555
O3 Zn2 1_555 1_555
C2 H2 1_555 1_555
C3 C4 1_555 1_555
C4 H3 1_555 1_555
N1 Zn2 1_555 1_555
N2 Zn1 1_555 1_555
C5 O3 1_555 1_555
C6 C1 1_555 1_555
H4 C6 1_555 1_555
C7 S1 1_555 1_555
C8 C7 1_555 1_555
H5 C8 1_555 1_555
C9 C2 1_555 1_555
H6 C9 1_555 1_555
C10 H7 1_555 1_555
C11 C10 1_555 1_555
H8 C11 1_555 1_555
C12 H9 1_555 1_555
C13 C5 1_555 1_555
H10 C13 1_555 1_555
C14 N2 1_555 1_555
H11 C14 1_555 1_555
O4 Zn1 1_555 1_555
C15 C11 1_555 1_555
C16 C4 1_555 1_555
H12 C16 1_555 1_555
O1B C5B 1_555 1_555
O3B C5B 1_555 1_555
C5B C13B 1_555 1_555
C12B C12 1_555 1_555
H9B C12B 1_555 1_555
C13B C12B 1_555 1_555
H10B C13B 1_555 1_555
O2B C15B 1_555 1_555
C10B C10 1_555 1_555
H7B C10B 1_555 1_555
C11B C10B 1_555 1_555
H8B C11B 1_555 1_555
O4B C15B 1_555 1_555
C15B C11B 1_555 1_555
S1A C3A 1_555 1_555
C1A H1A 1_555 1_555
C2A H2A 1_555 1_555
C3A C4A 1_555 1_555
C4A H3A 1_555 1_555
N1A C2A 1_555 1_555
N2A Zn1 1_555 1_555
C6A C1A 1_555 1_555
H4A C6A 1_555 1_555
C7A S1A 1_555 1_555
C8A C7A 1_555 1_555
H5A C8A 1_555 1_555
C9A C2A 1_555 1_555
H6A C9A 1_555 1_555
C14A N2A 1_555 1_555
H11A C14A 1_555 1_555
C16A C4A 1_555 1_555
H12A C16A 1_555 1_555
Zn1B O2B 1_555 1_555
Zn2_2 N1A 1_555 1_555
Zn2B O1B 1_555 1_555
O1A Zn2 1_555 1_555
O2A Zn1 1_555 1_555
O3A Zn2 1_555 1_555
N1A_2 Zn2 1_555 1_555
O4A Zn1 1_555 1_555
C1 N2 1_555 1_555
C2 N1 1_555 1_555
C3 C9 1_555 1_555
N1 C16 1_555 1_555
C6 C7 1_555 1_555
C8 C14 1_555 1_555
C12 C13 1_555 1_555
O4 C15 1_555 1_555
O3B Zn2B 1_555 1_555
O4B Zn1B 1_555 1_555
C1A N2A 1_555 1_555
C3A C9A 1_555 1_555
N1A C16A 1_555 1_555
C6A C7A 1_555 1_555
C8A C14A 1_555 1_555

#END
