
#######################################################################
#
#                 Cambridge Crystallographic Data Centre
#                                CCDC 
#
#######################################################################
#
# If this CIF has been generated from an entry in the Cambridge 
# Structural Database, then it will include bibliographic, chemical, 
# crystal, experimental, refinement or atomic coordinate data resulting 
# from the CCDC's data processing and validation procedures.
#
#######################################################################

data_JUFRAF
_symmetry_cell_setting           monoclinic
_symmetry_space_group_name_H-M   'P 21/n'
_symmetry_Int_Tables_number      14
_space_group_name_Hall           '-P 2yn'
loop_
_symmetry_equiv_pos_site_id
_symmetry_equiv_pos_as_xyz
1 x,y,z
2 1/2-x,1/2+y,1/2-z
3 -x,-y,-z
4 1/2+x,1/2-y,1/2+z
_cell_length_a                   8.5841(2)
_cell_length_b                   12.0772(2)
_cell_length_c                   9.4047(2)
_cell_angle_alpha                90
_cell_angle_beta                 97.127(2)
_cell_angle_gamma                90
_cell_volume                     967.47
loop_
_atom_site_label
_atom_site_type_symbol
_atom_site_fract_x
_atom_site_fract_y
_atom_site_fract_z
Eu1 Eu 0.365273(18) 0.638565(13) 0.902569(17)
N1 N 0.2394(3) 0.6661(2) 1.1518(3)
C1 C 0.1329(3) 0.7369(2) 1.1887(3)
H1 H 0.0726 0.7743 1.1149
N2 N 0.1048(3) 0.7592(2) 1.3218(3)
C2 C 0.2021(3) 0.7120(2) 1.4284(3)
C3 C 0.3149(4) 0.6348(2) 1.4017(4)
H2 H 0.3804 0.6009 1.4753
C4 C 0.3239(3) 0.6116(2) 1.2601(3)
C5 C 0.4224(3) 0.5195(2) 1.2128(3)
O1 O 0.3938(2) 0.49118(17) 1.0811(2)
O2 O 0.5235(3) 0.47309(18) 1.2974(2)
C6 C 0.1770(3) 0.7454(2) 1.5789(3)
O3 O 0.0550(2) 0.79929(18) 1.5929(2)
O4 O 0.2818(2) 0.71721(18) 1.6769(2)
O5 O 0.0630(3) 0.6395(2) 0.8649(3)
N3 N 0.0530(3) 0.5583(2) 0.7813(3)
O6 O 0.1753(3) 0.4977(2) 0.7832(3)
O7 O -0.0658(3) 0.5380(2) 0.6980(3)
O8 O 0.3093(3) 0.83447(19) 0.9400(2)
H3 H 0.3094 0.8806 0.8715
H4 H 0.3400 0.8722 1.0149
Eu1_2 Eu 0.365273(18) 0.638565(13) 1.902569(17)
Eu1B Eu 0.634727(18) 0.361435(13) 1.097431(17)
Eu1C Eu -0.134727(18) 0.861435(13) 1.402569(17)
N2C N 0.6048(3) 0.7408(2) 0.8218(3)
O1B O 0.6062(2) 0.50882(17) 0.9189(2)
O2B O 0.4765(3) 0.52691(18) 0.7026(2)
O3C O 0.5550(2) 0.70071(18) 1.0929(2)
O4_2 O 0.2818(2) 0.71721(18) 0.6769(2)
loop_
_geom_bond_atom_site_label_1
_geom_bond_atom_site_label_2
_geom_bond_site_symmetry_1
_geom_bond_site_symmetry_2
Eu1 N1 1_555 1_555
N1 C1 1_555 1_555
C1 H1 1_555 1_555
N2 C1 1_555 1_555
C2 N2 1_555 1_555
C3 C2 1_555 1_555
H2 C3 1_555 1_555
C4 N1 1_555 1_555
C5 C4 1_555 1_555
O1 Eu1 1_555 1_555
O2 C5 1_555 1_555
C6 C2 1_555 1_555
O3 C6 1_555 1_555
O4 C6 1_555 1_555
O5 Eu1 1_555 1_555
N3 O5 1_555 1_555
O6 Eu1 1_555 1_555
O7 N3 1_555 1_555
O8 Eu1 1_555 1_555
H3 O8 1_555 1_555
H4 O8 1_555 1_555
Eu1_2 O4 1_555 1_555
Eu1B O1 1_555 1_555
Eu1C N2 1_555 1_555
N2C Eu1 1_555 1_555
O1B Eu1 1_555 1_555
O2B Eu1 1_555 1_555
O3C Eu1 1_555 1_555
O4_2 Eu1 1_555 1_555
C3 C4 1_555 1_555
C5 O1 1_555 1_555
O2 Eu1B 1_555 1_555
O3 Eu1C 1_555 1_555
N3 O6 1_555 1_555
Eu1B O1B 1_555 1_555

#END
