
#######################################################################
#
#                 Cambridge Crystallographic Data Centre
#                                CCDC 
#
#######################################################################
#
# If this CIF has been generated from an entry in the Cambridge 
# Structural Database, then it will include bibliographic, chemical, 
# crystal, experimental, refinement or atomic coordinate data resulting 
# from the CCDC's data processing and validation procedures.
#
#######################################################################

data_JUFVEN
_symmetry_cell_setting           monoclinic
_symmetry_space_group_name_H-M   'P 21/c'
_symmetry_Int_Tables_number      14
_space_group_name_Hall           '-P 2ybc'
loop_
_symmetry_equiv_pos_site_id
_symmetry_equiv_pos_as_xyz
1 x,y,z
2 -x,1/2+y,1/2-z
3 -x,-y,-z
4 x,1/2-y,1/2+z
_cell_length_a                   18.6816(3)
_cell_length_b                   23.2472(4)
_cell_length_c                   13.9127(2)
_cell_angle_alpha                90
_cell_angle_beta                 110.0502(8)
_cell_angle_gamma                90
_cell_volume                     5676.01
loop_
_atom_site_label
_atom_site_type_symbol
_atom_site_fract_x
_atom_site_fract_y
_atom_site_fract_z
O14 O -0.5408(8) 0.2869(6) -0.7147(11)
O15 O -0.5100(9) 0.4256(7) -0.5797(12)
H52 H -0.5260 0.4446 -0.6343
N6 N -0.5213(9) 0.3672(7) -0.6039(12)
C42 C -0.5463(10) 0.2510(8) -0.6473(15)
C43 C -0.5622(9) 0.1965(8) -0.6525(14)
H53 H -0.5688 0.1784 -0.7162
C44 C -0.5719(10) 0.1570(8) -0.5663(14)
H54 H -0.5799 0.1168 -0.5777
C45 C -0.5690(8) 0.1791(6) -0.4791(12)
H55 H -0.5776 0.1551 -0.4290
C46 C -0.5542(12) 0.2343(10) -0.4586(18)
H56 H -0.5519 0.2494 -0.3942
C47 C -0.5399(9) 0.2771(7) -0.5452(12)
C48 C -0.5245(10) 0.3394(8) -0.5263(15)
C49 C -0.5040(14) 0.3666(11) -0.4219(19)
H57 H -0.5039 0.4087 -0.4323
H58 H -0.5466 0.3583 -0.3970
C50 C -0.4391(11) 0.3539(8) -0.3441(15)
H59 H -0.4437 0.3158 -0.3168
H60 H -0.4305 0.3827 -0.2898
H61 H -0.3961 0.3541 -0.3692
N7 N 0.0000 0.5000 0.0000
O16 O 0.0743(4) 0.5002(4) 0.0317(7)
O17 O -0.0349(8) 0.4605(5) -0.0524(9)
O18 O -0.0300(5) 0.5401(4) 0.0329(6)
O16B O -0.0743(4) 0.4998(4) -0.0317(7)
O17B O 0.0349(8) 0.5395(5) 0.0524(9)
O18B O 0.0300(5) 0.4599(4) -0.0329(6)
O19 O 0.0181(3) 0.09762(17) 0.2876(3)
H62 H 0.0215 0.0960 0.3594
H63 H -0.0179 0.1297 0.2597
O20 O -0.5021(13) 0.0347(9) -0.4308(16)
H64 H -0.4682 0.0503 -0.4489
C51 C -0.4950(14) 0.0573(11) -0.3281(17)
H65 H -0.4417 0.0551 -0.2829
H66 H -0.5268 0.0343 -0.2994
H67 H -0.5119 0.0975 -0.3343
Mn1 Mn -0.15173(4) 0.19501(3) 0.03484(5)
Mn2 Mn -0.03198(4) 0.20336(3) -0.08745(5)
Mn3 Mn -0.10026(4) 0.07961(3) -0.05379(5)
O1 O -0.09393(16) 0.15959(12) -0.0346(2)
O2 O -0.20495(18) 0.23445(13) 0.1066(3)
O3 O -0.07820(18) 0.27374(12) -0.0636(3)
O4 O 0.02986(17) 0.24257(12) -0.1483(2)
O5 O -0.02892(16) 0.08162(12) -0.1243(2)
O6 O -0.11980(16) 0.00120(12) -0.0869(2)
O7 O -0.17378(18) 0.12109(12) 0.0803(2)
O8 O -0.20166(18) 0.10351(13) -0.2117(2)
O9 O -0.06017(17) -0.28926(12) -0.5670(2)
O10 O -0.26040(18) 0.18341(14) -0.1136(3)
H1 H -0.2566 0.1607 -0.1637
O11 O -0.04081(18) 0.20423(13) 0.1671(2)
H2 H -0.0306 0.2278 0.2133
H3 H -0.0010 0.2024 0.1438
O12 O -0.11512(18) 0.19071(13) -0.2443(2)
H4 H -0.1495 0.1681 -0.2501
H5 H -0.1460 0.2179 -0.2838
O13 O -0.00938(18) 0.05946(13) 0.0900(2)
H6 H 0.0278 0.0417 0.0889
H7 H -0.0032 0.0696 0.1493
N1 N -0.1385(2) 0.27001(15) -0.0292(3)
N2 N 0.0166(2) 0.12978(14) -0.1081(3)
N3 N -0.1814(2) 0.07820(14) 0.0091(3)
N4 N -0.2197(2) 0.06444(15) -0.2880(3)
N5 N -0.1097(2) -0.24507(16) -0.5901(3)
C1 C -0.2555(3) 0.2761(2) 0.0656(4)
C2 C -0.3179(3) 0.2811(3) 0.0980(5)
H8 H -0.3238 0.2546 0.1468
C3 C -0.3713(3) 0.3238(3) 0.0606(6)
H9 H -0.4135 0.3265 0.0836
C4 C -0.3637(3) 0.3624(3) -0.0099(6)
H10 H -0.4014 0.3911 -0.0373
C5 C -0.3019(3) 0.3593(2) -0.0406(5)
H11 H -0.2964 0.3868 -0.0882
C6 C -0.2458(3) 0.3164(2) -0.0034(4)
C7 C -0.1793(3) 0.31678(19) -0.0369(4)
C8 C -0.1564(3) 0.3703(2) -0.0796(4)
H12 H -0.1002 0.3736 -0.0536
H13 H -0.1775 0.4043 -0.0559
C9 C -0.1849(5) 0.3694(3) -0.1957(5)
H14 H -0.1643 0.3356 -0.2194
H15 H -0.1680 0.4044 -0.2210
H16 H -0.2407 0.3677 -0.2217
C10 C 0.1034(2) 0.22987(18) -0.1279(3)
C11 C 0.1530(3) 0.2754(2) -0.1266(3)
H17 H 0.1333 0.3131 -0.1436
C12 C 0.2301(3) 0.2658(2) -0.1009(4)
H18 H 0.2631 0.2971 -0.0994
C13 C 0.2601(3) 0.2110(2) -0.0773(4)
H19 H 0.3134 0.2048 -0.0582
C14 C 0.2111(3) 0.1653(2) -0.0819(4)
H20 H 0.2316 0.1276 -0.0668
C15 C 0.1322(2) 0.17314(19) -0.1081(3)
C16 C 0.0826(2) 0.12259(18) -0.1161(3)
C17 C 0.1061(3) 0.06329(19) -0.1373(4)
H21 H 0.0897 0.0348 -0.0961
H22 H 0.1623 0.0615 -0.1164
C18 C 0.0712(4) 0.0477(3) -0.2502(5)
H23 H 0.0155 0.0488 -0.2709
H24 H 0.0875 0.0089 -0.2611
H25 H 0.0880 0.0754 -0.2911
C19 C -0.1873(2) -0.02452(18) -0.1125(3)
C20 C -0.1989(3) -0.07383(18) -0.1750(3)
H26 H -0.1583 -0.0884 -0.1944
C21 C -0.2689(3) -0.1013(2) -0.2084(4)
H27 H -0.2764 -0.1337 -0.2523
C22 C -0.3279(3) -0.0818(2) -0.1783(4)
H28 H -0.3759 -0.1007 -0.2015
C23 C -0.3168(3) -0.0347(2) -0.1145(4)
H29 H -0.3575 -0.0222 -0.0933
C24 C -0.2475(3) -0.00471(19) -0.0799(4)
C25 C -0.2395(3) 0.04406(18) -0.0097(4)
C26 C -0.2980(3) 0.0546(2) 0.0410(4)
H30 H -0.3496 0.0526 -0.0112
H31 H -0.2909 0.0938 0.0707
C27 C -0.2923(4) 0.0110(2) 0.1253(5)
H32 H -0.3006 -0.0278 0.0960
H33 H -0.3310 0.0196 0.1562
H34 H -0.2415 0.0132 0.1778
C28 C -0.2905(3) 0.0432(2) -0.3251(4)
H35 H -0.3291 0.0575 -0.3014
C29 C -0.3074(3) 0.0000(2) -0.3985(4)
H36 H -0.3577 -0.0148 -0.4254
C30 C -0.2512(3) -0.0217(2) -0.4328(4)
C31 C -0.1792(3) 0.0030(2) -0.3943(4)
H37 H -0.1400 -0.0098 -0.4183
C32 C -0.1643(3) 0.0457(2) -0.3222(4)
H38 H -0.1148 0.0621 -0.2961
C33 C -0.2669(3) -0.0718(2) -0.5075(4)
H39 H -0.2309 -0.1034 -0.4761
H40 H -0.3191 -0.0862 -0.5199
C34 C -0.2590(4) -0.0558(2) -0.6089(4)
H41 H -0.2074 -0.0400 -0.5968
H42 H -0.2966 -0.0255 -0.6423
C35 C -0.2719(4) -0.1080(2) -0.6796(4)
H43 H -0.3230 -0.1239 -0.6892
H44 H -0.2719 -0.0949 -0.7473
C36 C -0.1840(3) -0.2567(2) -0.6311(4)
H45 H -0.2006 -0.2955 -0.6414
C37 C -0.2365(3) -0.2130(2) -0.6585(4)
H46 H -0.2891 -0.2220 -0.6887
C38 C -0.2139(3) -0.1560(2) -0.6427(3)
C39 C -0.1366(3) -0.1458(2) -0.5951(4)
H47 H -0.1190 -0.1075 -0.5796
C40 C -0.0852(3) -0.19021(19) -0.5700(4)
H48 H -0.0324 -0.1824 -0.5386
C41 C -0.3386(3) 0.1831(3) -0.1318(5)
H49 H -0.3478 0.1898 -0.0674
H50 H -0.3600 0.1458 -0.1601
H51 H -0.3631 0.2136 -0.1807
Mn2A Mn 0.03198(4) -0.29664(3) -0.41255(5)
O9A O 0.06017(17) 0.21074(12) 0.0670(2)
O21? O -0.5289(13) 0.0026(11) -0.2437(18)
H68? H -0.5253 -0.0277 -0.2095
C52? C -0.5087(16) -0.0033(12) -0.333(2)
H69? H -0.4988 -0.0439 -0.3423
H70? H -0.4628 0.0193 -0.3245
H71? H -0.5506 0.0106 -0.3922
loop_
_geom_bond_atom_site_label_1
_geom_bond_atom_site_label_2
_geom_bond_site_symmetry_1
_geom_bond_site_symmetry_2
Mn1 O1 1_555 1_555
Mn2 O1 1_555 1_555
Mn3 O1 1_555 1_555
O2 Mn1 1_555 1_555
O3 Mn2 1_555 1_555
O4 Mn2 1_555 1_555
O5 Mn3 1_555 1_555
O6 Mn3 1_555 1_555
O7 Mn1 1_555 1_555
O8 Mn3 1_555 1_555
O9 N5 1_555 1_555
O10 Mn1 1_555 1_555
H1 O10 1_555 1_555
O11 Mn1 1_555 1_555
H2 O11 1_555 1_555
H3 O11 1_555 1_555
O12 Mn2 1_555 1_555
H4 O12 1_555 1_555
H5 O12 1_555 1_555
O13 Mn3 1_555 1_555
H6 O13 1_555 1_555
H7 O13 1_555 1_555
N1 Mn1 1_555 1_555
N2 Mn2 1_555 1_555
N3 Mn3 1_555 1_555
N4 O8 1_555 1_555
N5 C36 1_555 1_555
C1 O2 1_555 1_555
C2 C1 1_555 1_555
H8 C2 1_555 1_555
C3 C2 1_555 1_555
H9 C3 1_555 1_555
C4 C3 1_555 1_555
H10 C4 1_555 1_555
C5 C4 1_555 1_555
H11 C5 1_555 1_555
C6 C1 1_555 1_555
C7 N1 1_555 1_555
C8 C7 1_555 1_555
H12 C8 1_555 1_555
H13 C8 1_555 1_555
C9 C8 1_555 1_555
H14 C9 1_555 1_555
H15 C9 1_555 1_555
H16 C9 1_555 1_555
C10 O4 1_555 1_555
C11 C10 1_555 1_555
H17 C11 1_555 1_555
C12 C11 1_555 1_555
H18 C12 1_555 1_555
C13 C12 1_555 1_555
H19 C13 1_555 1_555
C14 C13 1_555 1_555
H20 C14 1_555 1_555
C15 C10 1_555 1_555
C16 N2 1_555 1_555
C17 C16 1_555 1_555
H21 C17 1_555 1_555
H22 C17 1_555 1_555
C18 C17 1_555 1_555
H23 C18 1_555 1_555
H24 C18 1_555 1_555
H25 C18 1_555 1_555
C19 O6 1_555 1_555
C20 C19 1_555 1_555
H26 C20 1_555 1_555
C21 C20 1_555 1_555
H27 C21 1_555 1_555
C22 C21 1_555 1_555
H28 C22 1_555 1_555
C23 C22 1_555 1_555
H29 C23 1_555 1_555
C24 C19 1_555 1_555
C25 N3 1_555 1_555
C26 C25 1_555 1_555
H30 C26 1_555 1_555
H31 C26 1_555 1_555
C27 C26 1_555 1_555
H32 C27 1_555 1_555
H33 C27 1_555 1_555
H34 C27 1_555 1_555
C28 N4 1_555 1_555
H35 C28 1_555 1_555
C29 C28 1_555 1_555
H36 C29 1_555 1_555
C30 C29 1_555 1_555
C31 C30 1_555 1_555
H37 C31 1_555 1_555
C32 N4 1_555 1_555
H38 C32 1_555 1_555
C33 C30 1_555 1_555
H39 C33 1_555 1_555
H40 C33 1_555 1_555
C34 C33 1_555 1_555
H41 C34 1_555 1_555
H42 C34 1_555 1_555
C35 C34 1_555 1_555
H43 C35 1_555 1_555
H44 C35 1_555 1_555
C36 H45 1_555 1_555
C37 C36 1_555 1_555
H46 C37 1_555 1_555
C38 C35 1_555 1_555
C39 C38 1_555 1_555
H47 C39 1_555 1_555
C40 N5 1_555 1_555
H48 C40 1_555 1_555
C41 O10 1_555 1_555
H49 C41 1_555 1_555
H50 C41 1_555 1_555
H51 C41 1_555 1_555
O14 C42 1_555 1_555
O15 H52 1_555 1_555
N6 O15 1_555 1_555
C42 C43 1_555 1_555
C43 H53 1_555 1_555
C44 C43 1_555 1_555
H54 C44 1_555 1_555
C45 C44 1_555 1_555
H55 C45 1_555 1_555
C46 C45 1_555 1_555
H56 C46 1_555 1_555
C47 C42 1_555 1_555
C48 N6 1_555 1_555
C49 C48 1_555 1_555
H57 C49 1_555 1_555
H58 C49 1_555 1_555
C50 C49 1_555 1_555
H59 C50 1_555 1_555
H60 C50 1_555 1_555
H61 C50 1_555 1_555
N7 O16 1_555 1_555
O16 O17B 1_555 1_555
O17 N7 1_555 1_555
O18 N7 1_555 1_555
O19 H62 1_555 1_555
H63 O19 1_555 1_555
O20 H64 1_555 1_555
C51 O20 1_555 1_555
H65 C51 1_555 1_555
H66 C51 1_555 1_555
H67 C51 1_555 1_555
Mn2A O9 1_555 1_555
O9A Mn2 1_555 1_555
O16B N7 1_555 1_555
O17B N7 1_555 1_555
O18B N7 1_555 1_555
O3 N1 1_555 1_555
O5 N2 1_555 1_555
O7 N3 1_555 1_555
C5 C6 1_555 1_555
C6 C7 1_555 1_555
C14 C15 1_555 1_555
C15 C16 1_555 1_555
C23 C24 1_555 1_555
C24 C25 1_555 1_555
C31 C32 1_555 1_555
C37 C38 1_555 1_555
C39 C40 1_555 1_555
C46 C47 1_555 1_555
C47 C48 1_555 1_555
O16 O18B 1_555 1_555
O17 O16B 1_555 1_555
O17 O18B 1_555 1_555
O18 O16B 1_555 1_555
O18 O17B 1_555 1_555

#END
