
#######################################################################
#
#                 Cambridge Crystallographic Data Centre
#                                CCDC 
#
#######################################################################
#
# If this CIF has been generated from an entry in the Cambridge 
# Structural Database, then it will include bibliographic, chemical, 
# crystal, experimental, refinement or atomic coordinate data resulting 
# from the CCDC's data processing and validation procedures.
#
#######################################################################

data_JUFYUG
_symmetry_cell_setting           triclinic
_symmetry_space_group_name_H-M   'P -1'
_symmetry_Int_Tables_number      2
_space_group_name_Hall           '-P 1'
loop_
_symmetry_equiv_pos_site_id
_symmetry_equiv_pos_as_xyz
1 x,y,z
2 -x,-y,-z
_cell_length_a                   8.7980(3)
_cell_length_b                   10.6480(4)
_cell_length_c                   19.1470(8)
_cell_angle_alpha                94.840(3)
_cell_angle_beta                 90.453(3)
_cell_angle_gamma                110.355(4)
_cell_volume                     1674.38
loop_
_atom_site_label
_atom_site_type_symbol
_atom_site_fract_x
_atom_site_fract_y
_atom_site_fract_z
Cu1 Cu 0.39681(5) 0.47379(4) 0.21811(2)
Cu2 Cu 0.5000 1.0000 0.0000
Cu3 Cu 1.0000 1.0000 0.5000
C1 C 0.1129(4) 0.5134(3) 0.05452(16)
C2 C 0.1475(4) 0.6072(3) 0.00472(16)
C3 C 0.0346(4) 0.5931(3) -0.04888(16)
H1 H 0.0583 0.6574 -0.0825
C4 C 0.2260(4) 0.5332(3) 0.11720(17)
C5 C 0.3104(4) 0.7175(3) 0.00520(17)
O1 O 0.2650(3) 0.6404(2) 0.15486(12)
O2 O 0.2702(3) 0.4340(2) 0.12847(11)
O3 O 0.4331(3) 0.6852(2) 0.00251(13)
O4 O 0.3087(3) 0.8376(2) 0.00601(12)
C6 C 0.5081(4) 0.5355(3) 0.43083(16)
C7 C 0.6311(4) 0.6088(3) 0.48067(16)
C8 C 0.6197(4) 0.5717(3) 0.54912(16)
H2 H 0.7026 0.6220 0.5830
C9 C 0.5004(4) 0.5749(3) 0.35753(16)
C10 C 0.7774(4) 0.7235(3) 0.46053(17)
O5 O 0.4900(3) 0.6842(2) 0.34764(12)
O6 O 0.4979(3) 0.4811(2) 0.30986(11)
O7 O 0.8296(3) 0.7153(2) 0.40084(12)
O8 O 0.8352(3) 0.8208(2) 0.50809(11)
N1 N 0.1853(3) 0.4259(3) 0.26872(14)
C11 C 0.1217(4) 0.5196(4) 0.29140(18)
H3 H 0.1707 0.6090 0.2791
C12 C -0.0140(5) 0.4883(5) 0.3324(2)
H4 H -0.0563 0.5559 0.3485
C13 C -0.0858(5) 0.3590(6) 0.3492(2)
H5 H -0.1799 0.3353 0.3764
C14 C -0.0202(5) 0.2636(5) 0.3264(2)
H6 H -0.0673 0.1737 0.3383
C15 C 0.1139(5) 0.2997(4) 0.2861(2)
H7 H 0.1577 0.2331 0.2700
N2 N 0.6129(3) 0.5680(3) 0.17598(14)
C16 C 0.7507(4) 0.6214(4) 0.21576(19)
H8 H 0.7464 0.6111 0.2646
C17 C 0.8972(4) 0.6898(4) 0.1890(2)
H9 H 0.9925 0.7238 0.2186
C18 C 0.9049(5) 0.7089(4) 0.1186(2)
H10 H 1.0047 0.7577 0.0989
C19 C 0.7649(5) 0.6558(4) 0.0777(2)
H11 H 0.7662 0.6674 0.0290
C20 C 0.6233(4) 0.5859(4) 0.10741(18)
H12 H 0.5277 0.5482 0.0781
N3 N 0.5962(3) 0.9811(3) 0.09453(15)
C21 C 0.5014(5) 0.9082(3) 0.14230(19)
H13 H 0.3877 0.8704 0.1324
C22 C 0.5622(5) 0.8859(4) 0.2052(2)
H14 H 0.4917 0.8325 0.2372
C23 C 0.7258(5) 0.9423(4) 0.2206(2)
H15 H 0.7706 0.9293 0.2636
C24 C 0.8242(5) 1.0185(4) 0.1723(2)
H16 H 0.9378 1.0589 0.1817
C25 C 0.7563(4) 1.0353(4) 0.11049(19)
H17 H 0.8253 1.0874 0.0777
N4 N 0.8181(3) 1.0670(3) 0.47746(14)
C26 C 0.7013(4) 0.9998(4) 0.42802(18)
H18 H 0.7063 0.9201 0.4034
C27 C 0.5748(4) 1.0422(4) 0.41174(19)
H19 H 0.4974 0.9945 0.3752
C28 C 0.5620(4) 1.1538(4) 0.4488(2)
H20 H 0.4740 1.1829 0.4393
C29 C 0.6794(4) 1.2232(4) 0.5002(2)
H21 H 0.6733 1.3008 0.5266
C30 C 0.8058(4) 1.1780(4) 0.51239(18)
H22 H 0.8876 1.2274 0.5469
O9 O 0.4124(3) 0.2568(3) 0.20193(13)
H23 H 0.389(5) 0.219(4) 0.1608(10)
C31 C 0.5554(7) 0.2414(5) 0.2302(3)
H24 H 0.5339 0.1462 0.2359
H25 H 0.5860 0.2939 0.2759
H26 H 0.6442 0.2734 0.1982
O10 O 1.0131(3) 0.9579(3) 0.36899(14)
H27 H 0.952(4) 0.8794(19) 0.374(2)
C32 C 1.1553(5) 0.9772(4) 0.3318(2)
H28 H 1.1959 0.9041 0.3387
H29 H 1.2377 1.0634 0.3491
H30 H 1.1314 0.9775 0.2818
O11 O 0.3504(3) 1.1345(3) 0.06634(13)
H31 H 0.405(4) 1.199(3) 0.0440(19)
C33 C 0.1815(4) 1.1049(4) 0.0573(2)
H32 H 0.1522 1.1779 0.0812
H33 H 0.1230 1.0204 0.0773
H34 H 0.1523 1.0960 0.0072
C1A C -0.1129(4) 0.4866(3) -0.05452(16)
C2A C -0.1475(4) 0.3928(3) -0.00472(16)
C3A C -0.0346(4) 0.4069(3) 0.04888(16)
H1A H -0.0583 0.3426 0.0825
C4A C -0.2260(4) 0.4668(3) -0.11720(17)
C5A C -0.3104(4) 0.2825(3) -0.00520(17)
O1A O -0.2650(3) 0.3596(2) -0.15486(12)
O2A O -0.2702(3) 0.5660(2) -0.12847(11)
O3A O -0.4331(3) 0.3148(2) -0.00251(13)
O4A O -0.3087(3) 0.1624(2) -0.00601(12)
C6A C 0.4919(4) 0.4645(3) 0.56917(16)
C7A C 0.3689(4) 0.3912(3) 0.51933(16)
C8A C 0.3803(4) 0.4283(3) 0.45088(16)
H2A H 0.2974 0.3780 0.4170
C9A C 0.4996(4) 0.4251(3) 0.64247(16)
C10A C 0.2226(4) 0.2765(3) 0.53947(17)
O5A O 0.5100(3) 0.3158(2) 0.65236(12)
O6A O 0.5021(3) 0.5189(2) 0.69014(11)
O7A O 0.1704(3) 0.2847(2) 0.59916(12)
O8A O 0.1648(3) 0.1792(2) 0.49191(11)
Cu1A Cu -0.39681(5) 0.52621(4) -0.21811(2)
N1A N -0.1853(3) 0.5741(3) -0.26872(14)
C11A C -0.1217(4) 0.4804(4) -0.29140(18)
H3A H -0.1707 0.3910 -0.2791
C12A C 0.0140(5) 0.5117(5) -0.3324(2)
H4A H 0.0563 0.4441 -0.3485
C13A C 0.0858(5) 0.6410(6) -0.3492(2)
H5A H 0.1799 0.6647 -0.3764
C14A C 0.0202(5) 0.7364(5) -0.3264(2)
H6A H 0.0673 0.8263 -0.3383
C15A C -0.1139(5) 0.7003(4) -0.2861(2)
H7A H -0.1577 0.7669 -0.2700
N2A N -0.6129(3) 0.4320(3) -0.17598(14)
C16A C -0.7507(4) 0.3786(4) -0.21576(19)
H8A H -0.7464 0.3889 -0.2646
C17A C -0.8972(4) 0.3102(4) -0.1890(2)
H9A H -0.9925 0.2762 -0.2186
C18A C -0.9049(5) 0.2911(4) -0.1186(2)
H10A H -1.0047 0.2423 -0.0989
C19A C -0.7649(5) 0.3442(4) -0.0777(2)
H11A H -0.7662 0.3326 -0.0290
C20A C -0.6233(4) 0.4141(4) -0.10741(18)
H12A H -0.5277 0.4518 -0.0781
O9A O -0.4124(3) 0.7432(3) -0.20193(13)
H23A H -0.389(5) 0.781(4) -0.1608(10)
C31A C -0.5554(7) 0.7586(5) -0.2302(3)
H24A H -0.5339 0.8538 -0.2359
H25A H -0.5860 0.7061 -0.2759
H26A H -0.6442 0.7266 -0.1982
N3A N 0.4038(3) 1.0189(3) -0.09453(15)
C21A C 0.4986(5) 1.0918(3) -0.14230(19)
H13A H 0.6123 1.1296 -0.1324
C22A C 0.4378(5) 1.1141(4) -0.2052(2)
H14A H 0.5083 1.1675 -0.2372
C23A C 0.2742(5) 1.0577(4) -0.2206(2)
H15A H 0.2294 1.0707 -0.2636
C24A C 0.1758(5) 0.9815(4) -0.1723(2)
H16A H 0.0622 0.9411 -0.1817
C25A C 0.2437(4) 0.9647(4) -0.11049(19)
H17A H 0.1747 0.9126 -0.0777
N4A N 1.1819(3) 0.9330(3) 0.52254(14)
C26A C 1.2987(4) 1.0002(4) 0.57198(18)
H18A H 1.2937 1.0799 0.5966
C27A C 1.4252(4) 0.9578(4) 0.58826(19)
H19A H 1.5026 1.0055 0.6248
C28A C 1.4380(4) 0.8462(4) 0.5512(2)
H20A H 1.5260 0.8171 0.5607
C29A C 1.3206(4) 0.7768(4) 0.4998(2)
H21A H 1.3267 0.6992 0.4734
C30A C 1.1942(4) 0.8220(4) 0.48761(18)
H22A H 1.1124 0.7726 0.4531
O10A O 0.9869(3) 1.0421(3) 0.63101(14)
H27A H 1.048(4) 1.1206(19) 0.626(2)
C32A C 0.8447(5) 1.0228(4) 0.6682(2)
H28A H 0.8041 1.0959 0.6613
H29A H 0.7623 0.9366 0.6509
H30A H 0.8686 1.0225 0.7182
O11A O 0.6496(3) 0.8655(3) -0.06634(13)
H31A H 0.595(4) 0.801(3) -0.0440(19)
C33A C 0.8185(4) 0.8951(4) -0.0573(2)
H32A H 0.8478 0.8221 -0.0812
H33A H 0.8770 0.9796 -0.0773
H34A H 0.8477 0.9040 -0.0072
Cu1A_2 Cu 0.60319(5) 0.52621(4) 0.78189(2)
Cu2_2 Cu -0.5000 0.0000 0.0000
Cu3_2 Cu 0.0000 0.0000 0.5000
O4A_2 O 0.6913(3) 1.1624(2) -0.00601(12)
O6A_2 O -0.4979(3) 0.5189(2) -0.30986(11)
O8A_2 O 1.1648(3) 1.1792(2) 0.49191(11)
loop_
_geom_bond_atom_site_label_1
_geom_bond_atom_site_label_2
_geom_bond_site_symmetry_1
_geom_bond_site_symmetry_2
Cu1 O1 1_555 1_555
Cu2 O4 1_555 1_555
Cu3 O8 1_555 1_555
C1 C2 1_555 1_555
C2 C3 1_555 1_555
C3 H1 1_555 1_555
C4 C1 1_555 1_555
C5 C2 1_555 1_555
O1 C4 1_555 1_555
O2 Cu1 1_555 1_555
O3 C5 1_555 1_555
O4 C5 1_555 1_555
C6 C7 1_555 1_555
C7 C8 1_555 1_555
C8 H2 1_555 1_555
C9 C6 1_555 1_555
C10 C7 1_555 1_555
O5 C9 1_555 1_555
O6 Cu1 1_555 1_555
O7 C10 1_555 1_555
O8 C10 1_555 1_555
N1 Cu1 1_555 1_555
C11 N1 1_555 1_555
H3 C11 1_555 1_555
C12 C11 1_555 1_555
H4 C12 1_555 1_555
C13 C12 1_555 1_555
H5 C13 1_555 1_555
C14 C13 1_555 1_555
H6 C14 1_555 1_555
C15 N1 1_555 1_555
H7 C15 1_555 1_555
N2 Cu1 1_555 1_555
C16 N2 1_555 1_555
H8 C16 1_555 1_555
C17 C16 1_555 1_555
H9 C17 1_555 1_555
C18 C17 1_555 1_555
H10 C18 1_555 1_555
C19 C18 1_555 1_555
H11 C19 1_555 1_555
C20 N2 1_555 1_555
H12 C20 1_555 1_555
N3 Cu2 1_555 1_555
C21 N3 1_555 1_555
H13 C21 1_555 1_555
C22 C21 1_555 1_555
H14 C22 1_555 1_555
C23 C22 1_555 1_555
H15 C23 1_555 1_555
C24 C23 1_555 1_555
H16 C24 1_555 1_555
C25 N3 1_555 1_555
H17 C25 1_555 1_555
N4 Cu3 1_555 1_555
C26 N4 1_555 1_555
H18 C26 1_555 1_555
C27 C26 1_555 1_555
H19 C27 1_555 1_555
C28 C27 1_555 1_555
H20 C28 1_555 1_555
C29 C28 1_555 1_555
H21 C29 1_555 1_555
C30 N4 1_555 1_555
H22 C30 1_555 1_555
O9 Cu1 1_555 1_555
H23 O9 1_555 1_555
C31 O9 1_555 1_555
H24 C31 1_555 1_555
H25 C31 1_555 1_555
H26 C31 1_555 1_555
O10 Cu3 1_555 1_555
H27 O10 1_555 1_555
C32 O10 1_555 1_555
H28 C32 1_555 1_555
H29 C32 1_555 1_555
H30 C32 1_555 1_555
O11 Cu2 1_555 1_555
H31 O11 1_555 1_555
C33 O11 1_555 1_555
H32 C33 1_555 1_555
H33 C33 1_555 1_555
H34 C33 1_555 1_555
C1A C3 1_555 1_555
C2A C1A 1_555 1_555
C3A C1 1_555 1_555
H1A C3A 1_555 1_555
C4A C1A 1_555 1_555
C5A C2A 1_555 1_555
O1A C4A 1_555 1_555
O2A C4A 1_555 1_555
O3A C5A 1_555 1_555
O4A C5A 1_555 1_555
C6A C8 1_555 1_555
C7A C6A 1_555 1_555
C8A C6 1_555 1_555
H2A C8A 1_555 1_555
C9A C6A 1_555 1_555
C10A C7A 1_555 1_555
O5A C9A 1_555 1_555
O6A C9A 1_555 1_555
O7A C10A 1_555 1_555
O8A C10A 1_555 1_555
Cu1A O1A 1_555 1_555
N1A Cu1A 1_555 1_555
C11A N1A 1_555 1_555
H3A C11A 1_555 1_555
C12A C11A 1_555 1_555
H4A C12A 1_555 1_555
C13A C12A 1_555 1_555
H5A C13A 1_555 1_555
C14A C13A 1_555 1_555
H6A C14A 1_555 1_555
C15A N1A 1_555 1_555
H7A C15A 1_555 1_555
N2A Cu1A 1_555 1_555
C16A N2A 1_555 1_555
H8A C16A 1_555 1_555
C17A C16A 1_555 1_555
H9A C17A 1_555 1_555
C18A C17A 1_555 1_555
H10A C18A 1_555 1_555
C19A C18A 1_555 1_555
H11A C19A 1_555 1_555
C20A N2A 1_555 1_555
H12A C20A 1_555 1_555
O9A Cu1A 1_555 1_555
H23A O9A 1_555 1_555
C31A O9A 1_555 1_555
H24A C31A 1_555 1_555
H25A C31A 1_555 1_555
H26A C31A 1_555 1_555
N3A Cu2 1_555 1_555
C21A N3A 1_555 1_555
H13A C21A 1_555 1_555
C22A C21A 1_555 1_555
H14A C22A 1_555 1_555
C23A C22A 1_555 1_555
H15A C23A 1_555 1_555
C24A C23A 1_555 1_555
H16A C24A 1_555 1_555
C25A N3A 1_555 1_555
H17A C25A 1_555 1_555
N4A Cu3 1_555 1_555
C26A N4A 1_555 1_555
H18A C26A 1_555 1_555
C27A C26A 1_555 1_555
H19A C27A 1_555 1_555
C28A C27A 1_555 1_555
H20A C28A 1_555 1_555
C29A C28A 1_555 1_555
H21A C29A 1_555 1_555
C30A N4A 1_555 1_555
H22A C30A 1_555 1_555
O10A Cu3 1_555 1_555
H27A O10A 1_555 1_555
C32A O10A 1_555 1_555
H28A C32A 1_555 1_555
H29A C32A 1_555 1_555
H30A C32A 1_555 1_555
O11A Cu2 1_555 1_555
H31A O11A 1_555 1_555
C33A O11A 1_555 1_555
H32A C33A 1_555 1_555
H33A C33A 1_555 1_555
H34A C33A 1_555 1_555
Cu1A_2 O6A 1_555 1_555
Cu2_2 O4A 1_555 1_555
Cu3_2 O8A 1_555 1_555
O4A_2 Cu2 1_555 1_555
O6A_2 Cu1A 1_555 1_555
O8A_2 Cu3 1_555 1_555
C4 O2 1_555 1_555
C9 O6 1_555 1_555
C14 C15 1_555 1_555
C19 C20 1_555 1_555
C24 C25 1_555 1_555
C29 C30 1_555 1_555
C2A C3A 1_555 1_555
O2A Cu1A 1_555 1_555
C7A C8A 1_555 1_555
C14A C15A 1_555 1_555
C19A C20A 1_555 1_555
C24A C25A 1_555 1_555
C29A C30A 1_555 1_555

#END
