
#######################################################################
#
#                 Cambridge Crystallographic Data Centre
#                                CCDC 
#
#######################################################################
#
# If this CIF has been generated from an entry in the Cambridge 
# Structural Database, then it will include bibliographic, chemical, 
# crystal, experimental, refinement or atomic coordinate data resulting 
# from the CCDC's data processing and validation procedures.
#
#######################################################################

data_JUGBEU
_symmetry_cell_setting           monoclinic
_symmetry_space_group_name_H-M   'C 2/c'
_symmetry_Int_Tables_number      15
_space_group_name_Hall           '-C 2yn'
loop_
_symmetry_equiv_pos_site_id
_symmetry_equiv_pos_as_xyz
1 x,y,z
2 -x,y,1/2-z
3 1/2+x,1/2+y,z
4 1/2-x,1/2+y,1/2-z
5 -x,-y,-z
6 x,-y,1/2+z
7 1/2-x,1/2-y,-z
8 1/2+x,1/2-y,1/2+z
_cell_length_a                   24.696(3)
_cell_length_b                   16.034(2)
_cell_length_c                   16.209(2)
_cell_angle_alpha                90
_cell_angle_beta                 129.682(2)
_cell_angle_gamma                90
_cell_volume                     4939.58
loop_
_atom_site_label
_atom_site_type_symbol
_atom_site_fract_x
_atom_site_fract_y
_atom_site_fract_z
C1 C 1.1807(4) 0.3322(4) 0.9101(6)
C2 C 1.1914(3) 0.4097(5) 0.9564(5)
H1 H 1.2341 0.4215 1.0234
C3 C 1.1396(3) 0.4687(4) 0.9044(5)
H2 H 1.1478 0.5199 0.9374
C4 C 1.1180(4) 0.3211(3) 0.8083(6)
H3 H 1.1090 0.2714 0.7719
C5 C 1.0696(3) 0.3825(3) 0.7613(5)
H4 H 1.0280 0.3735 0.6920
C6 C 0.9735(3) 0.6278(3) 0.8404(4)
C7 C 0.9682(2) 0.6890(3) 0.9051(3)
C8 C 1.0138(3) 0.7559(3) 0.9465(4)
H5 H 1.0452 0.7608 0.9333
C9 C 1.0133(3) 0.8154(3) 1.0070(4)
H6 H 1.0436 0.8608 1.0333
C10 C 0.9679(2) 0.8075(3) 1.0287(3)
C11 C 0.9212(2) 0.7417(3) 0.9856(3)
H7 H 0.8899 0.7374 0.9989
C12 C 0.9201(2) 0.6816(3) 0.9223(3)
C13 C 0.8695(3) 0.6126(3) 0.8765(4)
C14 C 0.8902(3) 0.5290(3) 0.8848(5)
H8 H 0.9370 0.5166 0.9190
C15 C 0.8411(4) 0.4656(4) 0.8421(6)
H9 H 0.8546 0.4103 0.8482
C16 C 0.7736(3) 0.4852(4) 0.7917(5)
H10 H 0.7409 0.4421 0.7623
C17 C 0.7506(3) 0.5641(4) 0.7814(5)
C18 C 0.8008(3) 0.6300(3) 0.8251(4)
H11 H 0.7865 0.6849 0.8186
C19 C 0.6794(3) 0.5899(4) 0.7345(5)
C20 C 0.9727(2) 0.8668(2) 1.1044(3)
C21 C 0.8684(3) 1.0336(3) 1.0556(4)
H12 H 0.8694 0.9893 1.0195
C22 C 0.8143(3) 1.0882(4) 0.9979(4)
H13 H 0.7794 1.0803 0.9245
C23 C 0.8102(3) 1.1549(3) 1.0462(4)
C24 C 0.8638(3) 1.1611(3) 1.1559(5)
H14 H 0.8637 1.2047 1.1935
C25 C 0.9170(3) 1.1036(3) 1.2094(4)
H15 H 0.9523 1.1096 1.2830
C26 C 0.7516(3) 1.2139(3) 0.9833(5)
H16 H 0.7135 1.1985 0.9136
N1 N 1.0775(2) 0.45528(19) 0.8077(3)
N2 N 0.92033(19) 1.03964(19) 1.1609(3)
Ni1 Ni 1.0000 0.95368(4) 1.2500
Ni2 Ni 1.0000 0.54065(4) 0.7500
O1 O 0.93749(15) 0.85559(17) 1.1338(2)
O2 O 1.01505(16) 0.92832(19) 1.1415(2)
O3 O 0.6617(3) 0.6586(4) 0.7330(5)
O4 O 0.6339(2) 0.5259(3) 0.6888(5)
H17 H 0.5949 0.5423 0.6651
O5 O 0.93503(18) 0.63643(17) 0.7417(2)
O6 O 1.01997(18) 0.5718(2) 0.8895(2)
C27 C 1.2324(6) 0.2643(7) 0.9677(9)
H18 H 1.2286 0.2349 0.9148
C1F C 1.3193(4) 0.1678(4) 1.0899(6)
C2F C 1.3086(3) 0.0903(5) 1.0436(5)
H1F H 1.2659 0.0785 0.9766
C3F C 1.3604(3) 0.0313(4) 1.0956(5)
H2F H 1.3522 -0.0199 1.0626
C4F C 1.3820(4) 0.1789(3) 1.1917(6)
H3F H 1.3910 0.2286 1.2281
C5F C 1.4304(3) 0.1175(3) 1.2387(5)
H4F H 1.4720 0.1265 1.3080
N1F N 1.4225(2) 0.04472(19) 1.1923(3)
C27F C 1.2676(6) 0.2357(7) 1.0323(9)
H18F H 1.2714 0.2651 1.0852
C21F C 0.6316(3) 1.4664(3) 0.9444(4)
H12F H 0.6306 1.5107 0.9805
C22F C 0.6857(3) 1.4118(4) 1.0021(4)
H13F H 0.7206 1.4197 1.0755
C23F C 0.6898(3) 1.3451(3) 0.9538(4)
C24F C 0.6362(3) 1.3389(3) 0.8441(5)
H14F H 0.6363 1.2953 0.8065
C25F C 0.5830(3) 1.3964(3) 0.7906(4)
H15F H 0.5477 1.3904 0.7170
C26F C 0.7484(3) 1.2861(3) 1.0167(5)
H16F H 0.7865 1.3015 1.0864
N2F N 0.57967(19) 1.46036(19) 0.8391(3)
C6A C 1.0265(3) 0.6278(3) 0.6596(4)
C7A C 1.0318(2) 0.6890(3) 0.5949(3)
C8A C 0.9862(3) 0.7559(3) 0.5535(4)
H5A H 0.9548 0.7608 0.5667
C9A C 0.9867(3) 0.8154(3) 0.4930(4)
H6A H 0.9564 0.8608 0.4667
C10A C 1.0321(2) 0.8075(3) 0.4713(3)
C11A C 1.0788(2) 0.7417(3) 0.5144(3)
H7A H 1.1101 0.7374 0.5011
C12A C 1.0799(2) 0.6816(3) 0.5777(3)
C13A C 1.1305(3) 0.6126(3) 0.6235(4)
C14A C 1.1098(3) 0.5290(3) 0.6152(5)
H8A H 1.0630 0.5166 0.5810
C15A C 1.1589(4) 0.4656(4) 0.6579(6)
H9A H 1.1454 0.4103 0.6518
C16A C 1.2264(3) 0.4852(4) 0.7083(5)
H10A H 1.2591 0.4421 0.7377
C17A C 1.2494(3) 0.5641(4) 0.7186(5)
C18A C 1.1992(3) 0.6300(3) 0.6749(4)
H11A H 1.2135 0.6849 0.6814
C19A C 1.3206(3) 0.5899(4) 0.7655(5)
C20A C 1.0273(2) 0.8668(2) 0.3956(3)
O1A O 1.06251(15) 0.85559(17) 0.3662(2)
O2A O 0.98495(16) 0.92832(19) 0.3585(2)
O3A O 1.3383(3) 0.6586(4) 0.7670(5)
O4A O 1.3661(2) 0.5259(3) 0.8112(5)
H17A H 1.4051 0.5423 0.8349
O5A O 1.06497(18) 0.63643(17) 0.7583(2)
O6A O 0.98003(18) 0.5718(2) 0.6105(2)
N1A N 0.9225(2) 0.45528(19) 0.6923(3)
N2A N 1.07967(19) 1.03964(19) 1.3391(3)
Ni1_2 Ni 1.0000 0.95368(4) 0.2500
Ni1F Ni 0.5000 1.54632(4) 0.7500
Ni2F Ni 1.5000 -0.04065(4) 1.2500
O1A_2 O 1.06251(15) 0.85559(17) 1.3662(2)
O2A_2 O 0.98495(16) 0.92832(19) 1.3585(2)
loop_
_geom_bond_atom_site_label_1
_geom_bond_atom_site_label_2
_geom_bond_site_symmetry_1
_geom_bond_site_symmetry_2
C1 C2 1_555 1_555
C2 H1 1_555 1_555
C3 C2 1_555 1_555
H2 C3 1_555 1_555
C4 C1 1_555 1_555
H3 C4 1_555 1_555
C5 C4 1_555 1_555
H4 C5 1_555 1_555
C6 C7 1_555 1_555
C7 C8 1_555 1_555
C8 H5 1_555 1_555
C9 C8 1_555 1_555
H6 C9 1_555 1_555
C10 C9 1_555 1_555
C11 C10 1_555 1_555
H7 C11 1_555 1_555
C12 C7 1_555 1_555
C13 C12 1_555 1_555
C14 C13 1_555 1_555
H8 C14 1_555 1_555
C15 C14 1_555 1_555
H9 C15 1_555 1_555
C16 C15 1_555 1_555
H10 C16 1_555 1_555
C17 C16 1_555 1_555
C18 C13 1_555 1_555
H11 C18 1_555 1_555
C19 C17 1_555 1_555
C20 C10 1_555 1_555
C21 H12 1_555 1_555
C22 C21 1_555 1_555
H13 C22 1_555 1_555
C23 C22 1_555 1_555
C24 C23 1_555 1_555
H14 C24 1_555 1_555
C25 C24 1_555 1_555
H15 C25 1_555 1_555
C26 C23 1_555 1_555
H16 C26 1_555 1_555
N1 C3 1_555 1_555
N2 C21 1_555 1_555
Ni1 N2 1_555 1_555
Ni2 N1 1_555 1_555
O1 C20 1_555 1_555
O2 C20 1_555 1_555
O3 C19 1_555 1_555
O4 C19 1_555 1_555
H17 O4 1_555 1_555
O5 C6 1_555 1_555
O6 C6 1_555 1_555
C27 C1 1_555 1_555
H18 C27 1_555 1_555
C1F C2F 1_555 1_555
C2F H1F 1_555 1_555
C3F C2F 1_555 1_555
H2F C3F 1_555 1_555
C4F C1F 1_555 1_555
H3F C4F 1_555 1_555
C5F C4F 1_555 1_555
H4F C5F 1_555 1_555
N1F C3F 1_555 1_555
C27F C27 1_555 1_555
H18F C27F 1_555 1_555
C21F H12F 1_555 1_555
C22F C21F 1_555 1_555
H13F C22F 1_555 1_555
C23F C22F 1_555 1_555
C24F C23F 1_555 1_555
H14F C24F 1_555 1_555
C25F C24F 1_555 1_555
H15F C25F 1_555 1_555
C26F C26 1_555 1_555
H16F C26F 1_555 1_555
N2F C21F 1_555 1_555
C6A C7A 1_555 1_555
C7A C8A 1_555 1_555
C8A H5A 1_555 1_555
C9A C8A 1_555 1_555
H6A C9A 1_555 1_555
C10A C9A 1_555 1_555
C11A C10A 1_555 1_555
H7A C11A 1_555 1_555
C12A C7A 1_555 1_555
C13A C12A 1_555 1_555
C14A C13A 1_555 1_555
H8A C14A 1_555 1_555
C15A C14A 1_555 1_555
H9A C15A 1_555 1_555
C16A C15A 1_555 1_555
H10A C16A 1_555 1_555
C17A C16A 1_555 1_555
C18A C13A 1_555 1_555
H11A C18A 1_555 1_555
C19A C17A 1_555 1_555
C20A C10A 1_555 1_555
O1A C20A 1_555 1_555
O2A C20A 1_555 1_555
O3A C19A 1_555 1_555
O4A C19A 1_555 1_555
H17A O4A 1_555 1_555
O5A Ni2 1_555 1_555
O6A Ni2 1_555 1_555
N1A Ni2 1_555 1_555
N2A Ni1 1_555 1_555
Ni1_2 O1A 1_555 1_555
Ni1F N2F 1_555 1_555
Ni2F N1F 1_555 1_555
O1A_2 Ni1 1_555 1_555
O2A_2 Ni1 1_555 1_555
C5 N1 1_555 1_555
C11 C12 1_555 1_555
C17 C18 1_555 1_555
C25 N2 1_555 1_555
Ni1 O1 1_555 1_555
Ni1 O2 1_555 1_555
Ni2 O5 1_555 1_555
Ni2 O6 1_555 1_555
C1F C27F 1_555 1_555
C5F N1F 1_555 1_555
C23F C26F 1_555 1_555
C25F N2F 1_555 1_555
C6A O5A 1_555 1_555
C6A O6A 1_555 1_555
C11A C12A 1_555 1_555
C17A C18A 1_555 1_555
O2A Ni1_2 1_555 1_555

#END
