
#######################################################################
#
#                 Cambridge Crystallographic Data Centre
#                                CCDC 
#
#######################################################################
#
# If this CIF has been generated from an entry in the Cambridge 
# Structural Database, then it will include bibliographic, chemical, 
# crystal, experimental, refinement or atomic coordinate data resulting 
# from the CCDC's data processing and validation procedures.
#
#######################################################################

data_JUGFAU
_symmetry_cell_setting           triclinic
_symmetry_space_group_name_H-M   'P -1'
_symmetry_Int_Tables_number      2
_space_group_name_Hall           '-P 1'
loop_
_symmetry_equiv_pos_site_id
_symmetry_equiv_pos_as_xyz
1 x,y,z
2 -x,-y,-z
_cell_length_a                   8.1430(6)
_cell_length_b                   9.5075(7)
_cell_length_c                   13.1111(10)
_cell_angle_alpha                79.967(1)
_cell_angle_beta                 73.074(1)
_cell_angle_gamma                78.093(1)
_cell_volume                     943.1
loop_
_atom_site_label
_atom_site_type_symbol
_atom_site_fract_x
_atom_site_fract_y
_atom_site_fract_z
Cu1 Cu 0.56104(4) 0.47504(4) 0.76961(3)
S1 S 1.71034(9) 1.19925(7) 0.09032(6)
O1 O 0.6796(3) 0.5911(2) 0.64367(18)
O2 O 0.9277(3) 0.6157(3) 0.6728(2)
O3 O 0.4766(3) 0.8496(3) 0.5664(2)
H1 H 0.3700 0.8509 0.5960
O4 O 0.4858(3) 0.6852(3) 0.4626(2)
O5 O 1.2728(3) 0.7483(2) 0.29079(19)
O6 O 1.6150(3) 1.3318(2) 0.1333(2)
O7 O 1.7637(3) 1.2148(2) -0.02671(18)
O8 O 1.8549(3) 1.1341(2) 0.13651(19)
O9 O 0.3751(3) 0.4885(3) 0.6963(2)
H2 H 0.4187 0.4565 0.6368
H3 H 0.3284 0.5754 0.6866
O10 O 0.7362(3) 0.4710(2) 0.84757(19)
H4 H 0.7673 0.3854 0.8728
H5 H 0.8229 0.5036 0.8052
N1 N 1.5510(3) 0.6834(3) 0.1299(2)
C1 C 0.8259(4) 0.6328(3) 0.6154(2)
C2 C 0.8742(4) 0.7087(3) 0.5027(2)
C3 C 1.0495(4) 0.7099(3) 0.4502(2)
H6 H 1.1348 0.6701 0.4860
C4 C 1.0952(4) 0.7709(3) 0.3445(3)
C5 C 0.9731(4) 0.8347(4) 0.2889(3)
H7 H 1.0069 0.8764 0.2181
C6 C 0.7989(4) 0.8347(4) 0.3418(3)
H8 H 0.7144 0.8785 0.3062
C7 C 0.7487(4) 0.7701(3) 0.4473(3)
C8 C 0.5577(4) 0.7623(3) 0.4945(3)
C9 C 1.5094(3) 0.8233(3) 0.1551(2)
C10 C 1.3561(4) 0.8619(3) 0.2377(2)
C11 C 1.3071(4) 1.0000(4) 0.2642(3)
H9 H 1.2044 1.0248 0.3164
C12 C 1.4140(4) 1.1050(3) 0.2117(3)
H10 H 1.3804 1.1991 0.2295
C13 C 1.5653(4) 1.0709(3) 0.1354(3)
C14 C 1.6165(3) 0.9289(3) 0.1020(2)
C15 C 1.7671(4) 0.8850(3) 0.0210(3)
H11 H 1.8430 0.9497 -0.0142
C16 C 1.8011(5) 0.7470(4) -0.0055(3)
H12 H 1.8978 0.7185 -0.0606
C17 C 1.6896(4) 0.6495(3) 0.0507(3)
H13 H 1.7142 0.5562 0.0315
Cu1A Cu 1.43896(4) 0.52496(4) 0.23039(3)
Cu1A_2 Cu 1.43896(4) 1.52496(4) 0.23039(3)
O5A O 0.7272(3) 0.2517(2) 0.70921(19)
O6A O 0.3850(3) 0.6682(2) 0.8667(2)
N1A N 0.4490(3) 0.3166(3) 0.8701(2)
O11 O 0.1727(3) 0.7709(3) 0.6735(2)
H14 H 0.1023 0.7787 0.6363
H15 H 0.1254 0.8068 0.7314
loop_
_geom_bond_atom_site_label_1
_geom_bond_atom_site_label_2
_geom_bond_site_symmetry_1
_geom_bond_site_symmetry_2
Cu1 O1 1_555 1_555
S1 O6 1_555 1_555
O1 C1 1_555 1_555
O2 C1 1_555 1_555
O3 H1 1_555 1_555
O4 C8 1_555 1_555
O5 C4 1_555 1_555
O6 Cu1A_2 1_555 1_555
O7 S1 1_555 1_555
O8 S1 1_555 1_555
O9 Cu1 1_555 1_555
H2 O9 1_555 1_555
H3 O9 1_555 1_555
O10 Cu1 1_555 1_555
H4 O10 1_555 1_555
H5 O10 1_555 1_555
N1 C9 1_555 1_555
C1 C2 1_555 1_555
C2 C3 1_555 1_555
C3 H6 1_555 1_555
C4 C3 1_555 1_555
C5 C4 1_555 1_555
H7 C5 1_555 1_555
C6 C5 1_555 1_555
H8 C6 1_555 1_555
C7 C2 1_555 1_555
C8 O3 1_555 1_555
C9 C10 1_555 1_555
C10 O5 1_555 1_555
C11 C10 1_555 1_555
H9 C11 1_555 1_555
C12 C11 1_555 1_555
H10 C12 1_555 1_555
C13 S1 1_555 1_555
C14 C9 1_555 1_555
C15 C14 1_555 1_555
H11 C15 1_555 1_555
C16 C15 1_555 1_555
H12 C16 1_555 1_555
C17 N1 1_555 1_555
H13 C17 1_555 1_555
O11 H14 1_555 1_555
H15 O11 1_555 1_555
Cu1A O5 1_555 1_555
O5A Cu1 1_555 1_555
O6A Cu1 1_555 1_555
N1A Cu1 1_555 1_555
N1 Cu1A 1_555 1_555
C6 C7 1_555 1_555
C7 C8 1_555 1_555
C12 C13 1_555 1_555
C13 C14 1_555 1_555
C16 C17 1_555 1_555

#END
