
#######################################################################
#
#                 Cambridge Crystallographic Data Centre
#                                CCDC 
#
#######################################################################
#
# If this CIF has been generated from an entry in the Cambridge 
# Structural Database, then it will include bibliographic, chemical, 
# crystal, experimental, refinement or atomic coordinate data resulting 
# from the CCDC's data processing and validation procedures.
#
#######################################################################

data_JUGMIJ
_symmetry_cell_setting           monoclinic
_symmetry_space_group_name_H-M   'P 21/n'
_symmetry_Int_Tables_number      14
_space_group_name_Hall           '-P 2yn'
loop_
_symmetry_equiv_pos_site_id
_symmetry_equiv_pos_as_xyz
1 x,y,z
2 1/2-x,1/2+y,1/2-z
3 -x,-y,-z
4 1/2+x,1/2-y,1/2+z
_cell_length_a                   8.4585(7)
_cell_length_b                   17.4911(15)
_cell_length_c                   28.007(2)
_cell_angle_alpha                90
_cell_angle_beta                 94.062(2)
_cell_angle_gamma                90
_cell_volume                     4133.18
loop_
_atom_site_label
_atom_site_type_symbol
_atom_site_fract_x
_atom_site_fract_y
_atom_site_fract_z
Cd1 Cd 0.44866(4) 0.839362(19) 0.182369(13)
Cd2 Cd -0.54532(5) 0.77821(2) -0.068357(14)
I1 I 0.74589(4) 0.90598(2) 0.184967(15)
I2 I -0.72737(6) 0.66280(2) -0.035482(17)
I3 I -0.70209(5) 0.90862(2) -0.044188(15)
I4 I -0.40593(8) 0.77186(4) -0.152314(19)
N1 N 0.3194(5) 0.9014(2) 0.11278(14)
N2 N 0.1842(5) 0.7913(2) 0.16599(14)
N3 N 0.1136(5) 0.7236(2) 0.17834(14)
N4 N -0.0074(5) 0.7677(2) 0.11144(14)
N5 N -0.3377(5) 0.7800(2) -0.00715(15)
N6 N 0.4885(5) 0.7683(2) 0.25557(15)
N7 N 0.4815(5) 0.7048(2) 0.16438(14)
N8 N 0.4298(5) 0.6633(2) 0.12446(14)
N9 N 0.3938(5) 0.5956(2) 0.18909(13)
N10 N 0.1860(5) 0.4331(2) 0.27469(14)
C1 C 0.1617(6) 0.8888(3) 0.10467(17)
C2 C 0.3761(7) 0.9661(3) 0.09584(19)
H1 H 0.4841 0.9758 0.1008
C3 C 0.2819(7) 1.0194(3) 0.0712(2)
H2 H 0.3261 1.0634 0.0592
C4 C 0.1228(7) 1.0066(3) 0.0650(2)
H3 H 0.0567 1.0428 0.0496
C5 C 0.0611(6) 0.9401(3) 0.08147(19)
H4 H -0.0469 0.9301 0.0770
C6 C 0.1135(5) 0.8167(3) 0.12639(17)
C7 C -0.0018(6) 0.7106(3) 0.14538(17)
C8 C -0.1196(5) 0.7746(2) 0.07032(16)
C9 C -0.0684(6) 0.7832(3) 0.02513(18)
H5 H 0.0388 0.7870 0.0201
C10 C -0.1833(7) 0.7857(3) -0.01255(18)
H6 H -0.1506 0.7917 -0.0434
C11 C -0.3835(6) 0.7717(3) 0.03741(19)
H7 H -0.4912 0.7677 0.0417
C12 C -0.2785(6) 0.7690(3) 0.07700(17)
H8 H -0.3139 0.7635 0.1075
C13 C -0.0987(6) 0.6410(3) 0.14470(19)
C14 C -0.1421(7) 0.6117(3) 0.1878(2)
H9 H -0.1210 0.6392 0.2159
C15 C -0.2174(7) 0.5409(4) 0.1888(3)
H10 H -0.2453 0.5206 0.2177
C16 C -0.2502(8) 0.5011(4) 0.1469(3)
H11 H -0.3002 0.4538 0.1475
C17 C -0.2098(8) 0.5307(3) 0.1046(3)
H12 H -0.2339 0.5039 0.0764
C18 C -0.1340(7) 0.5998(3) 0.1032(2)
H13 H -0.1060 0.6191 0.0741
C19 C 0.4978(6) 0.6919(3) 0.25103(18)
C20 C 0.5295(8) 0.7990(4) 0.2988(2)
H14 H 0.5244 0.8518 0.3023
C21 C 0.5787(9) 0.7552(4) 0.3379(2)
H15 H 0.6039 0.7780 0.3674
C22 C 0.5901(8) 0.6776(4) 0.3328(2)
H16 H 0.6249 0.6472 0.3586
C23 C 0.5494(7) 0.6452(3) 0.2888(2)
H17 H 0.5565 0.5926 0.2845
C24 C 0.4585(5) 0.6646(3) 0.20263(16)
C25 C 0.3767(6) 0.5977(3) 0.13965(17)
C26 C 0.3296(6) 0.5401(3) 0.21996(17)
C27 C 0.3776(6) 0.4655(3) 0.21941(18)
H18 H 0.4583 0.4500 0.2007
C28 C 0.3026(6) 0.4136(3) 0.24751(19)
H19 H 0.3351 0.3628 0.2474
C29 C 0.1445(6) 0.5071(3) 0.27560(19)
H20 H 0.0659 0.5216 0.2953
C30 C 0.2120(6) 0.5621(3) 0.24898(17)
H21 H 0.1798 0.6129 0.2503
C31 C 0.3132(6) 0.5363(3) 0.10858(17)
C32 C 0.1854(7) 0.4921(3) 0.1195(2)
H22 H 0.1357 0.5014 0.1475
C33 C 0.1309(9) 0.4341(3) 0.0891(2)
H23 H 0.0460 0.4040 0.0970
C34 C 0.2001(9) 0.4210(4) 0.0480(3)
H24 H 0.1623 0.3823 0.0275
C35 C 0.3250(10) 0.4644(4) 0.0365(2)
H25 H 0.3726 0.4551 0.0081
C36 C 0.3822(8) 0.5225(4) 0.0668(2)
H26 H 0.4676 0.5520 0.0586
Cd1A Cd 0.05134(4) 0.339362(19) 0.317631(13)
N10A N 0.3140(5) 0.9331(2) 0.22531(14)
loop_
_geom_bond_atom_site_label_1
_geom_bond_atom_site_label_2
_geom_bond_site_symmetry_1
_geom_bond_site_symmetry_2
Cd1 I1 1_555 1_555
Cd2 I2 1_555 1_555
I3 Cd2 1_555 1_555
I4 Cd2 1_555 1_555
N1 Cd1 1_555 1_555
N2 Cd1 1_555 1_555
N3 N2 1_555 1_555
N4 C6 1_555 1_555
N5 Cd2 1_555 1_555
N6 Cd1 1_555 1_555
N7 Cd1 1_555 1_555
N8 N7 1_555 1_555
N9 C24 1_555 1_555
N10 C28 1_555 1_555
C1 N1 1_555 1_555
C2 N1 1_555 1_555
H1 C2 1_555 1_555
C3 C2 1_555 1_555
H2 C3 1_555 1_555
C4 C3 1_555 1_555
H3 C4 1_555 1_555
C5 C1 1_555 1_555
H4 C5 1_555 1_555
C6 N2 1_555 1_555
C7 N3 1_555 1_555
C8 N4 1_555 1_555
C9 C8 1_555 1_555
H5 C9 1_555 1_555
C10 N5 1_555 1_555
H6 C10 1_555 1_555
C11 N5 1_555 1_555
H7 C11 1_555 1_555
C12 C8 1_555 1_555
H8 C12 1_555 1_555
C13 C7 1_555 1_555
C14 C13 1_555 1_555
H9 C14 1_555 1_555
C15 C14 1_555 1_555
H10 C15 1_555 1_555
C16 C15 1_555 1_555
H11 C16 1_555 1_555
C17 C16 1_555 1_555
H12 C17 1_555 1_555
C18 C13 1_555 1_555
H13 C18 1_555 1_555
C19 N6 1_555 1_555
C20 N6 1_555 1_555
H14 C20 1_555 1_555
C21 C20 1_555 1_555
H15 C21 1_555 1_555
C22 C21 1_555 1_555
H16 C22 1_555 1_555
C23 C19 1_555 1_555
H17 C23 1_555 1_555
C24 N7 1_555 1_555
C25 N8 1_555 1_555
C26 N9 1_555 1_555
C27 C26 1_555 1_555
H18 C27 1_555 1_555
C28 C27 1_555 1_555
H19 C28 1_555 1_555
C29 N10 1_555 1_555
H20 C29 1_555 1_555
C30 C26 1_555 1_555
H21 C30 1_555 1_555
C31 C25 1_555 1_555
C32 C31 1_555 1_555
H22 C32 1_555 1_555
C33 C32 1_555 1_555
H23 C33 1_555 1_555
C34 C33 1_555 1_555
H24 C34 1_555 1_555
C35 C34 1_555 1_555
H25 C35 1_555 1_555
C36 C31 1_555 1_555
H26 C36 1_555 1_555
Cd1A N10 1_555 1_555
N10A Cd1 1_555 1_555
N4 C7 1_555 1_555
N9 C25 1_555 1_555
C1 C6 1_555 1_555
C4 C5 1_555 1_555
C9 C10 1_555 1_555
C11 C12 1_555 1_555
C17 C18 1_555 1_555
C19 C24 1_555 1_555
C22 C23 1_555 1_555
C29 C30 1_555 1_555
C35 C36 1_555 1_555

#END
