
#######################################################################
#
#                 Cambridge Crystallographic Data Centre
#                                CCDC 
#
#######################################################################
#
# If this CIF has been generated from an entry in the Cambridge 
# Structural Database, then it will include bibliographic, chemical, 
# crystal, experimental, refinement or atomic coordinate data resulting 
# from the CCDC's data processing and validation procedures.
#
#######################################################################

data_JUHWAM
_symmetry_cell_setting           triclinic
_symmetry_space_group_name_H-M   'P -1'
_symmetry_Int_Tables_number      2
_space_group_name_Hall           '-P 1'
loop_
_symmetry_equiv_pos_site_id
_symmetry_equiv_pos_as_xyz
1 x,y,z
2 -x,-y,-z
_cell_length_a                   10.146(4)
_cell_length_b                   14.690(6)
_cell_length_c                   16.296(7)
_cell_angle_alpha                74.464(18)
_cell_angle_beta                 79.95(3)
_cell_angle_gamma                78.36(3)
_cell_volume                     2273.21
loop_
_atom_site_label
_atom_site_type_symbol
_atom_site_fract_x
_atom_site_fract_y
_atom_site_fract_z
Ru1 Ru 1.01654(8) 0.99601(6) 0.06881(5)
Ru2 Ru 1.02066(8) 0.57441(6) 0.46158(5)
F1 F 0.8139(7) 0.7577(5) 0.0108(4)
F2 F 0.6785(8) 0.8360(6) -0.0850(4)
F3 F 0.6423(8) 0.6996(6) -0.0033(5)
F4 F 0.6462(7) 1.1634(5) 0.1140(4)
F5 F 0.7538(9) 1.2251(6) 0.1840(4)
F6 F 0.5496(9) 1.2854(6) 0.1618(5)
F7 F 1.0273(7) 1.1010(4) 0.3345(4)
F8 F 1.0154(7) 0.8071(4) 0.5425(4)
F9 F 0.6900(8) 0.5612(6) 0.6949(5)
F10 F 0.4862(11) 0.5522(8) 0.7603(6)
F11 F 0.5936(8) 0.4412(6) 0.7006(6)
F12 F 1.2606(6) 0.4250(5) 0.6915(4)
F13 F 1.1393(7) 0.3373(5) 0.7915(5)
F14 F 1.2992(7) 0.3893(6) 0.8237(5)
O1 O 0.8348(7) 0.9492(5) 0.1118(4)
O2 O 0.8040(7) 0.9570(5) -0.0228(4)
O3 O 0.9230(7) 1.1332(5) 0.0571(4)
O4 O 0.8898(7) 1.1402(5) -0.0774(4)
O5 O 0.8194(7) 0.6241(5) 0.4745(4)
O6 O 0.7800(7) 0.4777(5) 0.5512(4)
O7 O 1.0367(6) 0.6033(5) 0.5749(4)
O8 O 0.9975(7) 0.4555(5) 0.6515(4)
N1 N 1.0504(8) 0.9779(6) 0.2036(5)
N2 N 1.0635(9) 0.7205(7) 0.3902(5)
C1 C 0.7674(11) 0.9373(8) 0.0574(7)
C2 C 0.6372(11) 0.9018(8) 0.0917(7)
C3 C 0.5967(10) 0.8303(9) 0.0626(7)
C4 C 0.6845(14) 0.7783(9) -0.0036(8)
C5 C 0.4696(14) 0.7991(10) 0.1000(8)
C6 C 0.3848(13) 0.8428(10) 0.1587(8)
C7 C 0.4264(12) 0.9124(10) 0.1857(8)
C8 C 0.5511(13) 0.9429(9) 0.1523(7)
C9 C 0.8766(11) 1.1752(8) -0.0118(6)
C10 C 0.8046(11) 1.2791(8) -0.0219(7)
C11 C 0.7169(12) 1.3102(8) 0.0439(7)
C12 C 0.6699(12) 1.2454(9) 0.1262(8)
C13 C 0.6598(12) 1.4067(9) 0.0309(8)
C14 C 0.6972(12) 1.4718(8) -0.0486(8)
C15 C 0.7856(13) 1.4406(9) -0.1135(8)
C16 C 0.8339(11) 1.3422(8) -0.0999(7)
C17 C 1.0481(11) 0.9469(7) 0.2752(6)
C18 C 1.0478(10) 0.8999(7) 0.3633(5)
C19 C 1.0541(11) 0.8016(7) 0.3793(6)
C20 C 1.0233(10) 0.9496(7) 0.4327(6)
C21 C 1.0143(11) 1.0494(7) 0.4146(6)
C22 C 1.0079(11) 0.9046(7) 0.5179(7)
C23 C 0.7374(10) 0.5670(8) 0.5183(7)
C24 C 0.5914(12) 0.6060(9) 0.5312(10)
C25 C 0.5118(13) 0.5921(10) 0.6096(10)
C26 C 0.5690(16) 0.5350(12) 0.6886(10)
C27 C 0.3747(19) 0.6344(14) 0.6157(16)
C28 C 0.317(2) 0.6863(17) 0.535(2)
C29 C 0.3945(19) 0.6971(15) 0.4606(16)
C30 C 0.5332(12) 0.6610(11) 0.4566(11)
C31 C 1.0212(10) 0.5430(8) 0.6435(7)
C32 C 1.0325(11) 0.5679(7) 0.7239(6)
C33 C 1.1084(12) 0.5042(8) 0.7881(6)
C34 C 1.2003(14) 0.4144(10) 0.7760(8)
C35 C 1.1021(12) 0.5272(9) 0.8673(7)
C36 C 1.0161(14) 0.6159(10) 0.8809(9)
C37 C 0.9568(13) 0.6743(8) 0.8187(7)
C38 C 0.9574(12) 0.6522(9) 0.7375(7)
H1 H 0.44396 0.74809 0.08406
H2 H 0.29796 0.82517 0.18049
H3 H 0.36891 0.94039 0.22817
H4 H 0.57652 0.99192 0.17131
H5 H 0.59667 1.42912 0.07435
H6 H 0.66025 1.53792 -0.05684
H7 H 0.81276 1.48412 -0.16551
H8 H 0.88844 1.31805 -0.14552
H9 H 0.32042 0.6302 0.66989
H10 H 0.22248 0.71154 0.5365
H11 H 0.35629 0.72981 0.40928
H12 H 0.58942 0.6734 0.40305
H13 H 1.15239 0.48601 0.91091
H14 H 1.00402 0.63052 0.93539
H15 H 0.91031 0.73483 0.8268
H16 H 0.90704 0.69506 0.69468
F7A F 0.9727(7) 0.8990(4) 0.6655(4)
F8A F 0.9846(7) 1.1929(4) 0.4575(4)
N1A N 0.9496(8) 1.0221(6) 0.7964(5)
N2A N 0.9365(9) 1.2795(7) 0.6098(5)
C17A C 0.9519(11) 1.0531(7) 0.7248(6)
C18A C 0.9522(10) 1.1001(7) 0.6367(5)
C19A C 0.9459(11) 1.1984(7) 0.6207(6)
C20A C 0.9767(10) 1.0504(7) 0.5673(6)
C21A C 0.9857(11) 0.9506(7) 0.5854(6)
C22A C 0.9921(11) 1.0954(7) 0.4821(7)
Ru2A Ru 0.97934(8) 0.42559(6) 0.53842(5)
F9A F 1.3100(8) 0.4388(6) 0.3051(5)
F10A F 1.5138(11) 0.4478(8) 0.2397(6)
F11A F 1.4064(8) 0.5588(6) 0.2994(6)
F12A F 0.7394(6) 0.5750(5) 0.3085(4)
F13A F 0.8607(7) 0.6627(5) 0.2085(5)
F14A F 0.7008(7) 0.6107(6) 0.1763(5)
O5A O 1.1806(7) 0.3759(5) 0.5255(4)
O6A O 1.2200(7) 0.5223(5) 0.4488(4)
O7A O 0.9633(6) 0.3967(5) 0.4251(4)
O8A O 1.0025(7) 0.5445(5) 0.3485(4)
C23A C 1.2626(10) 0.4330(8) 0.4817(7)
C24A C 1.4086(12) 0.3940(9) 0.4688(10)
C25A C 1.4882(13) 0.4079(10) 0.3904(10)
C26A C 1.4310(16) 0.4650(12) 0.3114(10)
C27A C 1.6253(19) 0.3656(14) 0.3843(16)
C28A C 1.683(2) 0.3137(17) 0.465(2)
C29A C 1.6055(19) 0.3029(15) 0.5394(16)
C30A C 1.4668(12) 0.3390(11) 0.5434(11)
C31A C 0.9788(10) 0.4570(8) 0.3565(7)
C32A C 0.9675(11) 0.4321(7) 0.2761(6)
C33A C 0.8916(12) 0.4958(8) 0.2119(6)
C34A C 0.7997(14) 0.5856(10) 0.2240(8)
C35A C 0.8979(12) 0.4728(9) 0.1327(7)
C36A C 0.9839(14) 0.3841(10) 0.1191(9)
C37A C 1.0432(13) 0.3257(8) 0.1813(7)
C38A C 1.0426(12) 0.3478(9) 0.2625(7)
H9A H 1.67958 0.3698 0.33011
H10A H 1.77752 0.28846 0.4635
H11A H 1.64371 0.27019 0.59072
H12A H 1.41058 0.3266 0.59695
H13A H 0.84761 0.51399 0.08909
H14A H 0.99598 0.36948 0.06461
H15A H 1.08969 0.26517 0.1732
H16A H 1.09296 0.30494 0.30532
Ru1A Ru 0.98346(8) 1.00399(6) -0.06881(5)
F1A F 1.1861(7) 1.2423(5) -0.0108(4)
F2A F 1.3215(8) 1.1640(6) 0.0850(4)
F3A F 1.3577(8) 1.3004(6) 0.0033(5)
F4A F 1.3538(7) 0.8366(5) -0.1140(4)
F5A F 1.2462(9) 0.7749(6) -0.1840(4)
F6A F 1.4504(9) 0.7146(6) -0.1618(5)
O1A O 1.1652(7) 1.0508(5) -0.1118(4)
O2A O 1.1960(7) 1.0430(5) 0.0228(4)
O3A O 1.0770(7) 0.8668(5) -0.0571(4)
O4A O 1.1102(7) 0.8598(5) 0.0774(4)
C1A C 1.2326(11) 1.0627(8) -0.0574(7)
C2A C 1.3628(11) 1.0982(8) -0.0917(7)
C3A C 1.4033(10) 1.1697(9) -0.0626(7)
C4A C 1.3155(14) 1.2217(9) 0.0036(8)
C5A C 1.5304(14) 1.2009(10) -0.1000(8)
C6A C 1.6152(13) 1.1572(10) -0.1587(8)
C7A C 1.5736(12) 1.0876(10) -0.1857(8)
C8A C 1.4489(13) 1.0571(9) -0.1523(7)
C9A C 1.1234(11) 0.8248(8) 0.0118(6)
C10A C 1.1954(11) 0.7209(8) 0.0219(7)
C11A C 1.2831(12) 0.6898(8) -0.0439(7)
C12A C 1.3301(12) 0.7546(9) -0.1262(8)
C13A C 1.3402(12) 0.5933(9) -0.0309(8)
C14A C 1.3028(12) 0.5282(8) 0.0486(8)
C15A C 1.2144(13) 0.5594(9) 0.1135(8)
C16A C 1.1661(11) 0.6578(8) 0.0999(7)
H1A H 1.55604 1.25191 -0.08406
H2A H 1.70204 1.17483 -0.18049
H3A H 1.63109 1.05961 -0.22817
H4A H 1.42348 1.00808 -0.17131
H5A H 1.40333 0.57088 -0.07435
H6A H 1.33975 0.46208 0.05684
H7A H 1.18724 0.51588 0.16551
H8A H 1.11156 0.68195 0.14552
Ru1A_2 Ru 0.98346(8) 1.00399(6) 0.93119(5)
Ru2A_2 Ru 0.97934(8) 1.42559(6) 0.53842(5)
N1A_2 N 0.9496(8) 1.0221(6) -0.2036(5)
N2A_2 N 0.9365(9) 0.2795(7) 0.6098(5)
Cl1 Cl 0.6500(6) 0.8624(5) 0.7156(3)
C39 C 0.6694(18) 0.9021(13) 0.6050(11)
C40 C 0.694(2) 0.8376(16) 0.5540(15)
C41 C 0.7044(17) 0.8720(13) 0.4659(12)
C42 C 0.6946(18) 0.9663(15) 0.4252(12)
C43 C 0.6661(19) 1.0356(14) 0.4774(12)
C44 C 0.6574(19) 1.0036(15) 0.5647(14)
C45 C 0.7125(19) 1.005(2) 0.3258(16)
Cl1A Cl 0.3500(6) 1.1376(5) 0.2844(3)
C39A C 0.3306(18) 1.0979(13) 0.3950(11)
C40A C 0.306(2) 1.1624(16) 0.4460(15)
C41A C 0.2956(17) 1.1280(13) 0.5341(12)
C42A C 0.3054(18) 1.0337(15) 0.5748(12)
C43A C 0.3339(19) 0.9644(14) 0.5226(12)
C44A C 0.3426(19) 0.9964(15) 0.4353(14)
C45A C 0.2875(19) 0.995(2) 0.6742(16)
Cl2? Cl 0.6652(17) 0.8052(11) 0.5826(10)
C46? C 0.328(6) 0.976(5) 0.665(4)
C47? C 0.440(5) 0.888(4) 0.656(3)
C48? C 0.571(5) 0.902(4) 0.602(3)
C49? C 0.612(6) 0.989(4) 0.583(4)
C50? C 0.519(5) 1.070(3) 0.603(3)
C51? C 0.386(5) 1.063(3) 0.636(3)
C52? C 0.286(4) 1.158(3) 0.663(2)
loop_
_geom_bond_atom_site_label_1
_geom_bond_atom_site_label_2
_geom_bond_site_symmetry_1
_geom_bond_site_symmetry_2
Ru1 O1 1_555 1_555
Ru2 O5 1_555 1_555
F1 C4 1_555 1_555
F2 C4 1_555 1_555
F3 C4 1_555 1_555
F4 C12 1_555 1_555
F5 C12 1_555 1_555
F6 C12 1_555 1_555
F7 C21 1_555 1_555
F8 C22 1_555 1_555
F9 C26 1_555 1_555
F10 C26 1_555 1_555
F11 C26 1_555 1_555
F12 C34 1_555 1_555
F13 C34 1_555 1_555
F14 C34 1_555 1_555
O1 C1 1_555 1_555
O2 C1 1_555 1_555
O3 Ru1 1_555 1_555
O4 C9 1_555 1_555
O5 C23 1_555 1_555
O6 C23 1_555 1_555
O7 Ru2 1_555 1_555
O8 C31 1_555 1_555
N1 Ru1 1_555 1_555
N2 Ru2 1_555 1_555
C1 C2 1_555 1_555
C2 C3 1_555 1_555
C3 C4 1_555 1_555
C5 C3 1_555 1_555
C6 C5 1_555 1_555
C7 C6 1_555 1_555
C8 C2 1_555 1_555
C9 O3 1_555 1_555
C10 C9 1_555 1_555
C11 C10 1_555 1_555
C12 C11 1_555 1_555
C13 C11 1_555 1_555
C14 C13 1_555 1_555
C15 C14 1_555 1_555
C16 C10 1_555 1_555
C17 N1 1_555 1_555
C18 C17 1_555 1_555
C19 N2 1_555 1_555
C20 C18 1_555 1_555
C21 C20 1_555 1_555
C22 C20 1_555 1_555
C23 C24 1_555 1_555
C24 C25 1_555 1_555
C25 C26 1_555 1_555
C27 C25 1_555 1_555
C28 C27 1_555 1_555
C29 C28 1_555 1_555
C30 C24 1_555 1_555
C31 O7 1_555 1_555
C32 C31 1_555 1_555
C33 C32 1_555 1_555
C34 C33 1_555 1_555
C35 C33 1_555 1_555
C36 C35 1_555 1_555
C37 C36 1_555 1_555
C38 C32 1_555 1_555
H1 C5 1_555 1_555
H2 C6 1_555 1_555
H3 C7 1_555 1_555
H4 C8 1_555 1_555
H5 C13 1_555 1_555
H6 C14 1_555 1_555
H7 C15 1_555 1_555
H8 C16 1_555 1_555
H9 C27 1_555 1_555
H10 C28 1_555 1_555
H11 C29 1_555 1_555
H12 C30 1_555 1_555
H13 C35 1_555 1_555
H14 C36 1_555 1_555
H15 C37 1_555 1_555
H16 C38 1_555 1_555
Cl1 C39 1_555 1_555
C39 C40 1_555 1_555
C40 C41 1_555 1_555
C41 C42 1_555 1_555
C42 C43 1_555 1_555
C43 C44 1_555 1_555
C44 C39 1_555 1_555
C45 C42 1_555 1_555
F7A C21A 1_555 1_555
F8A C22A 1_555 1_555
N1A C17A 1_555 1_555
N2A C19A 1_555 1_555
C17A C18A 1_555 1_555
C18A C19A 1_555 1_555
C20A C18A 1_555 1_555
C21A C22 1_555 1_555
C22A C21 1_555 1_555
Ru2A Ru2 1_555 1_555
F9A C26A 1_555 1_555
F10A C26A 1_555 1_555
F11A C26A 1_555 1_555
F12A C34A 1_555 1_555
F13A C34A 1_555 1_555
F14A C34A 1_555 1_555
O5A Ru2A 1_555 1_555
O6A Ru2 1_555 1_555
O7A Ru2A 1_555 1_555
O8A Ru2 1_555 1_555
C23A O5A 1_555 1_555
C24A C23A 1_555 1_555
C25A C24A 1_555 1_555
C26A C25A 1_555 1_555
C27A C25A 1_555 1_555
C28A C27A 1_555 1_555
C29A C28A 1_555 1_555
C30A C24A 1_555 1_555
C31A O7A 1_555 1_555
C32A C31A 1_555 1_555
C33A C32A 1_555 1_555
C34A C33A 1_555 1_555
C35A C33A 1_555 1_555
C36A C35A 1_555 1_555
C37A C36A 1_555 1_555
C38A C32A 1_555 1_555
H9A C27A 1_555 1_555
H10A C28A 1_555 1_555
H11A C29A 1_555 1_555
H12A C30A 1_555 1_555
H13A C35A 1_555 1_555
H14A C36A 1_555 1_555
H15A C37A 1_555 1_555
H16A C38A 1_555 1_555
Ru1A Ru1 1_555 1_555
F1A C4A 1_555 1_555
F2A C4A 1_555 1_555
F3A C4A 1_555 1_555
F4A C12A 1_555 1_555
F5A C12A 1_555 1_555
F6A C12A 1_555 1_555
O1A Ru1A 1_555 1_555
O2A Ru1 1_555 1_555
O3A Ru1A 1_555 1_555
O4A Ru1 1_555 1_555
C1A O1A 1_555 1_555
C2A C1A 1_555 1_555
C3A C2A 1_555 1_555
C4A C3A 1_555 1_555
C5A C3A 1_555 1_555
C6A C5A 1_555 1_555
C7A C6A 1_555 1_555
C8A C2A 1_555 1_555
C9A O3A 1_555 1_555
C10A C9A 1_555 1_555
C11A C10A 1_555 1_555
C12A C11A 1_555 1_555
C13A C11A 1_555 1_555
C14A C13A 1_555 1_555
C15A C14A 1_555 1_555
C16A C10A 1_555 1_555
H1A C5A 1_555 1_555
H2A C6A 1_555 1_555
H3A C7A 1_555 1_555
H4A C8A 1_555 1_555
H5A C13A 1_555 1_555
H6A C14A 1_555 1_555
H7A C15A 1_555 1_555
H8A C16A 1_555 1_555
Ru1A_2 N1A 1_555 1_555
Ru2A_2 N2A 1_555 1_555
N1A_2 Ru1A 1_555 1_555
N2A_2 Ru2A 1_555 1_555
Cl1A C39A 1_555 1_555
C39A C40A 1_555 1_555
C40A C41A 1_555 1_555
C41A C42A 1_555 1_555
C42A C43A 1_555 1_555
C43A C44A 1_555 1_555
C44A C39A 1_555 1_555
C45A C42A 1_555 1_555
O2 Ru1A 1_555 1_555
O4 Ru1A 1_555 1_555
O6 Ru2A 1_555 1_555
O8 Ru2A 1_555 1_555
C7 C8 1_555 1_555
C15 C16 1_555 1_555
C18 C19 1_555 1_555
C29 C30 1_555 1_555
C37 C38 1_555 1_555
C20A C21A 1_555 1_555
C20A C22A 1_555 1_555
O6A C23A 1_555 1_555
O8A C31A 1_555 1_555
C29A C30A 1_555 1_555
C37A C38A 1_555 1_555
O2A C1A 1_555 1_555
O4A C9A 1_555 1_555
C7A C8A 1_555 1_555
C15A C16A 1_555 1_555

#END
