
#######################################################################
#
#                 Cambridge Crystallographic Data Centre
#                                CCDC 
#
#######################################################################
#
# If this CIF has been generated from an entry in the Cambridge 
# Structural Database, then it will include bibliographic, chemical, 
# crystal, experimental, refinement or atomic coordinate data resulting 
# from the CCDC's data processing and validation procedures.
#
#######################################################################

data_JUHWIU
_symmetry_cell_setting           triclinic
_symmetry_space_group_name_H-M   'P -1'
_symmetry_Int_Tables_number      2
_space_group_name_Hall           '-P 1'
loop_
_symmetry_equiv_pos_site_id
_symmetry_equiv_pos_as_xyz
1 x,y,z
2 -x,-y,-z
_cell_length_a                   10.7395(17)
_cell_length_b                   11.920(2)
_cell_length_c                   15.796(3)
_cell_angle_alpha                82.817(5)
_cell_angle_beta                 82.930(6)
_cell_angle_gamma                76.098(6)
_cell_volume                     1938.38
loop_
_atom_site_label
_atom_site_type_symbol
_atom_site_fract_x
_atom_site_fract_y
_atom_site_fract_z
Ru1 Ru 0.03314(3) 0.97404(3) 0.066883(18)
Ru2 Ru 0.45516(3) 0.57649(3) 0.453810(19)
S1 S -0.25521(10) 1.11517(10) 0.37882(6)
O1 O 0.1376(2) 0.8197(2) 0.02864(17)
O2 O 0.0702(2) 0.8708(2) -0.10166(16)
O3 O 0.1901(2) 1.0394(2) 0.02923(16)
O4 O 0.1260(2) 1.0900(2) -0.10237(16)
O5 O 0.6307(2) 0.5790(2) 0.39293(17)
O6 O 0.7202(2) 0.4300(2) 0.48365(17)
O7 O 0.4868(3) 0.6848(2) 0.53344(18)
O8 O 0.5734(2) 0.5350(2) 0.62445(17)
N1 N 0.0943(3) 0.9240(3) 0.1983(2)
N2 N 0.3552(3) 0.7260(3) 0.3693(2)
N3 N -0.1169(3) 1.0338(3) 0.3512(2)
N4 N -0.2436(3) 1.1274(3) 0.4772(2)
C1 C 0.1151(4) 0.9087(3) 0.2686(3)
C2 C 0.1502(4) 0.8850(3) 0.3535(2)
C3 C 0.2628(4) 0.7979(3) 0.3633(2)
C4 C 0.0765(4) 0.9425(3) 0.4245(2)
C5 C -0.0502(4) 1.0125(3) 0.4214(2)
C6 C -0.1243(4) 1.0668(3) 0.4950(2)
C7 C 0.1375(4) 0.7992(3) -0.0483(3)
C8 C 0.2205(4) 0.6898(4) -0.0802(3)
C9 C 0.2847(4) 0.5980(4) -0.0259(3)
C10 C 0.2737(5) 0.5903(4) 0.0716(3)
C11 C 0.3589(5) 0.4998(4) -0.0643(4)
C12 C 0.3673(5) 0.4932(5) -0.1511(4)
C13 C 0.3064(5) 0.5858(5) -0.2037(4)
C14 C 0.2322(5) 0.6844(5) -0.1675(3)
C15 C 0.2081(4) 1.0790(3) -0.0489(2)
C16 C 0.3326(4) 1.1123(3) -0.0783(3)
C17 C 0.3993(4) 1.1397(4) -0.0157(3)
C18 C 0.5158(4) 1.1701(4) -0.0380(3)
C19 C 0.5676(4) 1.1719(4) -0.1221(3)
C20 C 0.5042(4) 1.1432(4) -0.1837(3)
C21 C 0.3852(4) 1.1119(4) -0.1640(3)
C22 C 0.3252(5) 1.0738(5) -0.2344(3)
C23 C 0.7295(4) 0.5094(3) 0.4228(3)
C24 C 0.8594(4) 0.5250(4) 0.3850(3)
C25 C 0.8634(4) 0.6288(4) 0.3324(3)
C26 C 0.9788(5) 0.6546(4) 0.2987(3)
C27 C 1.0920(4) 0.5765(5) 0.3166(3)
C28 C 1.0893(4) 0.4733(4) 0.3664(3)
C29 C 0.9748(4) 0.4440(4) 0.4013(3)
C30 C 0.9805(4) 0.3267(4) 0.4521(3)
C31 C 0.5454(3) 0.6436(3) 0.5994(3)
C32 C 0.5832(4) 0.7245(4) 0.6499(3)
C33 C 0.6221(4) 0.8239(4) 0.6101(3)
C34 C 0.6305(5) 0.8555(4) 0.5151(3)
C35 C 0.6606(5) 0.8930(4) 0.6632(4)
C36 C 0.6593(6) 0.8655(5) 0.7504(4)
C37 C 0.6199(6) 0.7679(5) 0.7885(4)
C38 C 0.5837(5) 0.6965(4) 0.7385(3)
H1 H 0.18791 0.63288 0.0928
H2 H 0.33937 0.62438 0.08974
H3 H 0.28679 0.50869 0.09508
H4 H 0.40431 0.43628 -0.02914
H5 H 0.41526 0.42459 -0.17487
H6 H 0.31478 0.58268 -0.26395
H7 H 0.18943 0.74838 -0.20348
H8 H 0.36391 1.13725 0.04252
H9 H 0.5601 1.1897 0.00444
H10 H 0.64777 1.19307 -0.13765
H11 H 0.54193 1.14461 -0.24136
H12 H 0.26488 1.14062 -0.26056
H13 H 0.27882 1.0139 -0.20999
H14 H 0.39305 1.04214 -0.27819
H15 H 0.785 0.68196 0.31997
H16 H 0.98038 0.72519 0.26361
H17 H 1.17235 0.59381 0.29458
H18 H 1.1686 0.42043 0.37715
H19 H 1.05851 0.27139 0.43178
H20 H 0.9044 0.29868 0.44433
H21 H 0.98228 0.33409 0.51299
H22 H 0.71659 0.81998 0.48956
H23 H 0.6146 0.94013 0.50303
H24 H 0.5657 0.82708 0.49066
H25 H 0.68829 0.96069 0.63806
H26 H 0.6857 0.9142 0.78454
H27 H 0.6177 0.74986 0.84887
H28 H 0.55898 0.62779 0.76451
S1A S 0.25521(10) 0.88483(10) 0.62118(6)
N1A N -0.0943(3) 1.0760(3) 0.8017(2)
N2A N -0.3552(3) 1.2740(3) 0.6307(2)
N3A N 0.1169(3) 0.9662(3) 0.6488(2)
N4A N 0.2436(3) 0.8726(3) 0.5228(2)
C1A C -0.1151(4) 1.0913(3) 0.7314(3)
C2A C -0.1502(4) 1.1150(3) 0.6465(2)
C3A C -0.2628(4) 1.2021(3) 0.6367(2)
C4A C -0.0765(4) 1.0575(3) 0.5755(2)
C5A C 0.0502(4) 0.9875(3) 0.5786(2)
C6A C 0.1243(4) 0.9332(3) 0.5050(2)
Ru1A Ru -0.03314(3) 1.02596(3) -0.066883(18)
O1A O -0.1376(2) 1.1803(2) -0.02864(17)
O2A O -0.0702(2) 1.1292(2) 0.10166(16)
O3A O -0.1901(2) 0.9606(2) -0.02923(16)
O4A O -0.1260(2) 0.9100(2) 0.10237(16)
C7A C -0.1375(4) 1.2008(3) 0.0483(3)
C8A C -0.2205(4) 1.3102(4) 0.0802(3)
C9A C -0.2847(4) 1.4020(4) 0.0259(3)
C10A C -0.2737(5) 1.4097(4) -0.0716(3)
C11A C -0.3589(5) 1.5002(4) 0.0643(4)
C12A C -0.3673(5) 1.5068(5) 0.1511(4)
C13A C -0.3064(5) 1.4142(5) 0.2037(4)
C14A C -0.2322(5) 1.3156(5) 0.1675(3)
C15A C -0.2081(4) 0.9210(3) 0.0489(2)
C16A C -0.3326(4) 0.8877(3) 0.0783(3)
C17A C -0.3993(4) 0.8603(4) 0.0157(3)
C18A C -0.5158(4) 0.8299(4) 0.0380(3)
C19A C -0.5676(4) 0.8281(4) 0.1221(3)
C20A C -0.5042(4) 0.8568(4) 0.1837(3)
C21A C -0.3852(4) 0.8881(4) 0.1640(3)
C22A C -0.3252(5) 0.9262(5) 0.2344(3)
H1A H -0.18791 1.36712 -0.0928
H2A H -0.33937 1.37562 -0.08974
H3A H -0.28679 1.49131 -0.09508
H4A H -0.40431 1.56372 0.02914
H5A H -0.41526 1.57541 0.17487
H6A H -0.31478 1.41732 0.26395
H7A H -0.18943 1.25162 0.20348
H8A H -0.36391 0.86275 -0.04252
H9A H -0.5601 0.8103 -0.00444
H10A H -0.64777 0.80693 0.13765
H11A H -0.54193 0.85539 0.24136
H12A H -0.26488 0.85938 0.26056
H13A H -0.27882 0.9861 0.20999
H14A H -0.39305 0.95786 0.27819
Ru2A Ru 0.54484(3) 0.42351(3) 0.546190(19)
O5A O 0.3693(2) 0.4210(2) 0.60707(17)
O6A O 0.2798(2) 0.5700(2) 0.51635(17)
O7A O 0.5132(3) 0.3152(2) 0.46656(18)
O8A O 0.4266(2) 0.4650(2) 0.37555(17)
C23A C 0.2705(4) 0.4906(3) 0.5772(3)
C24A C 0.1406(4) 0.4750(4) 0.6150(3)
C25A C 0.1366(4) 0.3712(4) 0.6676(3)
C26A C 0.0212(5) 0.3454(4) 0.7013(3)
C27A C -0.0920(4) 0.4235(5) 0.6834(3)
C28A C -0.0893(4) 0.5267(4) 0.6336(3)
C29A C 0.0252(4) 0.5560(4) 0.5987(3)
C30A C 0.0195(4) 0.6733(4) 0.5479(3)
C31A C 0.4546(3) 0.3564(3) 0.4006(3)
C32A C 0.4168(4) 0.2755(4) 0.3501(3)
C33A C 0.3779(4) 0.1761(4) 0.3899(3)
C34A C 0.3695(5) 0.1445(4) 0.4849(3)
C35A C 0.3394(5) 0.1070(4) 0.3368(4)
C36A C 0.3407(6) 0.1345(5) 0.2496(4)
C37A C 0.3801(6) 0.2321(5) 0.2115(4)
C38A C 0.4163(5) 0.3035(4) 0.2615(3)
H15A H 0.215 0.31804 0.68003
H16A H 0.01962 0.27481 0.73639
H17A H -0.17235 0.40619 0.70542
H18A H -0.1686 0.57957 0.62285
H19A H -0.05851 0.72861 0.56822
H20A H 0.0956 0.70132 0.55567
H21A H 0.01772 0.66591 0.48701
H22A H 0.28341 0.18002 0.51044
H23A H 0.3854 0.05987 0.49697
H24A H 0.4343 0.17292 0.50934
H25A H 0.31171 0.03931 0.36194
H26A H 0.3143 0.0858 0.21546
H27A H 0.3823 0.25014 0.15113
H28A H 0.44102 0.37221 0.23549
Ru1A_2 Ru -0.03314(3) 1.02596(3) 0.933117(18)
Ru2A_2 Ru -0.45516(3) 1.42351(3) 0.546190(19)
N1A_2 N -0.0943(3) 1.0760(3) -0.1983(2)
N2A_2 N 0.6448(3) 0.2740(3) 0.6307(2)
C39 C 0.9452(7) 0.6298(8) -0.1657(6)
C40 C 0.9722(6) 0.5614(7) -0.0792(5)
C41 C 0.9223(5) 0.6118(5) -0.0059(4)
C42 C 0.9506(5) 0.5536(6) 0.0705(5)
H29 H 1.0132 0.67171 -0.18528
H30 H 0.86174 0.68541 -0.15993
H31 H 0.94321 0.57619 -0.20753
H32 H 0.86784 0.6876 -0.00874
H33 H 0.91743 0.59112 0.12088
C39A C 1.0548(7) 0.3702(8) 0.1657(6)
C40A C 1.0278(6) 0.4386(7) 0.0792(5)
C41A C 1.0777(5) 0.3882(5) 0.0059(4)
C42A C 1.0494(5) 0.4464(6) -0.0705(5)
H29A H 0.9868 0.32829 0.18528
H30A H 1.13826 0.31459 0.15993
H31A H 1.05679 0.42381 0.20753
H32A H 1.13216 0.3124 0.00874
H33A H 1.08257 0.40888 -0.12088
loop_
_geom_bond_atom_site_label_1
_geom_bond_atom_site_label_2
_geom_bond_site_symmetry_1
_geom_bond_site_symmetry_2
Ru1 O1 1_555 1_555
Ru2 O5 1_555 1_555
S1 N3 1_555 1_555
O1 C7 1_555 1_555
O2 C7 1_555 1_555
O3 Ru1 1_555 1_555
O4 C15 1_555 1_555
O5 C23 1_555 1_555
O6 C23 1_555 1_555
O7 Ru2 1_555 1_555
O8 C31 1_555 1_555
N1 Ru1 1_555 1_555
N2 Ru2 1_555 1_555
N3 C5 1_555 1_555
N4 S1 1_555 1_555
C1 N1 1_555 1_555
C2 C1 1_555 1_555
C3 N2 1_555 1_555
C4 C2 1_555 1_555
C5 C4 1_555 1_555
C6 N4 1_555 1_555
C7 C8 1_555 1_555
C8 C9 1_555 1_555
C9 C10 1_555 1_555
C10 H1 1_555 1_555
C11 C9 1_555 1_555
C12 C11 1_555 1_555
C13 C12 1_555 1_555
C14 C8 1_555 1_555
C15 O3 1_555 1_555
C16 C15 1_555 1_555
C17 C16 1_555 1_555
C18 C17 1_555 1_555
C19 C18 1_555 1_555
C20 C19 1_555 1_555
C21 C16 1_555 1_555
C22 C21 1_555 1_555
C23 C24 1_555 1_555
C24 C25 1_555 1_555
C25 C26 1_555 1_555
C26 C27 1_555 1_555
C27 C28 1_555 1_555
C28 C29 1_555 1_555
C29 C24 1_555 1_555
C30 C29 1_555 1_555
C31 O7 1_555 1_555
C32 C31 1_555 1_555
C33 C32 1_555 1_555
C34 C33 1_555 1_555
C35 C33 1_555 1_555
C36 C35 1_555 1_555
C37 C36 1_555 1_555
C38 C32 1_555 1_555
H2 C10 1_555 1_555
H3 C10 1_555 1_555
H4 C11 1_555 1_555
H5 C12 1_555 1_555
H6 C13 1_555 1_555
H7 C14 1_555 1_555
H8 C17 1_555 1_555
H9 C18 1_555 1_555
H10 C19 1_555 1_555
H11 C20 1_555 1_555
H12 C22 1_555 1_555
H13 C22 1_555 1_555
H14 C22 1_555 1_555
H15 C25 1_555 1_555
H16 C26 1_555 1_555
H17 C27 1_555 1_555
H18 C28 1_555 1_555
H19 C30 1_555 1_555
H20 C30 1_555 1_555
H21 C30 1_555 1_555
H22 C34 1_555 1_555
H23 C34 1_555 1_555
H24 C34 1_555 1_555
H25 C35 1_555 1_555
H26 C36 1_555 1_555
H27 C37 1_555 1_555
H28 C38 1_555 1_555
C39 C40 1_555 1_555
C40 C41 1_555 1_555
C41 C42 1_555 1_555
C42 H33 1_555 1_555
H29 C39 1_555 1_555
H30 C39 1_555 1_555
H31 C39 1_555 1_555
H32 C41 1_555 1_555
S1A N3A 1_555 1_555
N1A C1A 1_555 1_555
N2A C3A 1_555 1_555
N3A C5A 1_555 1_555
N4A S1A 1_555 1_555
C1A C2A 1_555 1_555
C2A C3A 1_555 1_555
C4A C6 1_555 1_555
C5A C4A 1_555 1_555
C6A C4 1_555 1_555
Ru1A Ru1 1_555 1_555
O1A Ru1A 1_555 1_555
O2A Ru1 1_555 1_555
O3A Ru1A 1_555 1_555
O4A Ru1 1_555 1_555
C7A O1A 1_555 1_555
C8A C7A 1_555 1_555
C9A C8A 1_555 1_555
C10A C9A 1_555 1_555
C11A C9A 1_555 1_555
C12A C11A 1_555 1_555
C13A C12A 1_555 1_555
C14A C8A 1_555 1_555
C15A O3A 1_555 1_555
C16A C15A 1_555 1_555
C17A C16A 1_555 1_555
C18A C17A 1_555 1_555
C19A C18A 1_555 1_555
C20A C19A 1_555 1_555
C21A C16A 1_555 1_555
C22A C21A 1_555 1_555
H1A C10A 1_555 1_555
H2A C10A 1_555 1_555
H3A C10A 1_555 1_555
H4A C11A 1_555 1_555
H5A C12A 1_555 1_555
H6A C13A 1_555 1_555
H7A C14A 1_555 1_555
H8A C17A 1_555 1_555
H9A C18A 1_555 1_555
H10A C19A 1_555 1_555
H11A C20A 1_555 1_555
H12A C22A 1_555 1_555
H13A C22A 1_555 1_555
H14A C22A 1_555 1_555
Ru2A Ru2 1_555 1_555
O5A Ru2A 1_555 1_555
O6A Ru2 1_555 1_555
O7A Ru2A 1_555 1_555
O8A Ru2 1_555 1_555
C23A O5A 1_555 1_555
C24A C23A 1_555 1_555
C25A C24A 1_555 1_555
C26A C25A 1_555 1_555
C27A C26A 1_555 1_555
C28A C27A 1_555 1_555
C29A C24A 1_555 1_555
C30A C29A 1_555 1_555
C31A O7A 1_555 1_555
C32A C31A 1_555 1_555
C33A C32A 1_555 1_555
C34A C33A 1_555 1_555
C35A C33A 1_555 1_555
C36A C35A 1_555 1_555
C37A C36A 1_555 1_555
C38A C32A 1_555 1_555
H15A C25A 1_555 1_555
H16A C26A 1_555 1_555
H17A C27A 1_555 1_555
H18A C28A 1_555 1_555
H19A C30A 1_555 1_555
H20A C30A 1_555 1_555
H21A C30A 1_555 1_555
H22A C34A 1_555 1_555
H23A C34A 1_555 1_555
H24A C34A 1_555 1_555
H25A C35A 1_555 1_555
H26A C36A 1_555 1_555
H27A C37A 1_555 1_555
H28A C38A 1_555 1_555
Ru1A_2 N1A 1_555 1_555
Ru2A_2 N2A 1_555 1_555
N1A_2 Ru1A 1_555 1_555
N2A_2 Ru2A 1_555 1_555
C39A C40A 1_555 1_555
C40A C42 1_555 1_555
C41A C40A 1_555 1_555
C42A C40 1_555 1_555
H29A C39A 1_555 1_555
H30A C39A 1_555 1_555
H31A C39A 1_555 1_555
H32A C41A 1_555 1_555
H33A C42A 1_555 1_555
O2 Ru1A 1_555 1_555
O4 Ru1A 1_555 1_555
O6 Ru2A 1_555 1_555
O8 Ru2A 1_555 1_555
C2 C3 1_555 1_555
C5 C6 1_555 1_555
C13 C14 1_555 1_555
C20 C21 1_555 1_555
C37 C38 1_555 1_555
N4A C6A 1_555 1_555
C2A C4A 1_555 1_555
C5A C6A 1_555 1_555
O2A C7A 1_555 1_555
O4A C15A 1_555 1_555
C13A C14A 1_555 1_555
C20A C21A 1_555 1_555
O6A C23A 1_555 1_555
O8A C31A 1_555 1_555
C28A C29A 1_555 1_555
C37A C38A 1_555 1_555
C41A C42A 1_555 1_555

#END
