
#######################################################################
#
#                 Cambridge Crystallographic Data Centre
#                                CCDC 
#
#######################################################################
#
# If this CIF has been generated from an entry in the Cambridge 
# Structural Database, then it will include bibliographic, chemical, 
# crystal, experimental, refinement or atomic coordinate data resulting 
# from the CCDC's data processing and validation procedures.
#
#######################################################################

data_JUHYOC
_symmetry_cell_setting           monoclinic
_symmetry_space_group_name_H-M   'P 21/n'
_symmetry_Int_Tables_number      14
_space_group_name_Hall           '-P 2yn'
loop_
_symmetry_equiv_pos_site_id
_symmetry_equiv_pos_as_xyz
1 x,y,z
2 1/2-x,1/2+y,1/2-z
3 -x,-y,-z
4 1/2+x,1/2-y,1/2+z
_cell_length_a                   15.379(3)
_cell_length_b                   12.637(2)
_cell_length_c                   21.406(4)
_cell_angle_alpha                90
_cell_angle_beta                 100.804(4)
_cell_angle_gamma                90
_cell_volume                     4086.39
loop_
_atom_site_label
_atom_site_type_symbol
_atom_site_fract_x
_atom_site_fract_y
_atom_site_fract_z
Zn1 Zn 1.29764(6) 0.06301(9) 0.04583(4)
Cl1 Cl 1.31161(19) -0.1070(2) 0.02258(14)
N1 N 0.7980(4) 0.3516(6) 0.4636(3)
N2 N 0.6978(4) 0.1940(6) 0.2493(3)
N3 N 0.4219(5) 0.0962(6) 0.0957(3)
O1 O 1.2264(4) 0.1207(6) 0.1079(3)
O2 O 1.1415(5) 0.0683(6) 0.0205(3)
C1 C 0.8607(6) 0.2867(8) 0.4520(4)
H1 H 0.9086 0.2722 0.4844
C2 C 0.8570(6) 0.2394(9) 0.3927(4)
H2 H 0.9019 0.1935 0.3864
C3 C 0.7887(5) 0.2594(8) 0.3441(4)
C4 C 0.7217(6) 0.3250(9) 0.3569(4)
H3 H 0.6722 0.3389 0.3258
C5 C 0.7298(6) 0.3693(8) 0.4170(4)
H4 H 0.6850 0.4139 0.4249
C6 C 0.7801(6) 0.2145(7) 0.2795(4)
C7 C 0.8531(6) 0.2027(8) 0.2515(4)
H5 H 0.9093 0.2161 0.2750
C8 C 0.8434(5) 0.1707(7) 0.1882(4)
C9 C 0.7578(5) 0.1483(8) 0.1569(4)
H6 H 0.7477 0.1248 0.1150
C10 C 0.6875(5) 0.1611(7) 0.1885(4)
C11 C 0.4409(5) 0.1640(7) 0.1423(4)
H7 H 0.3941 0.2002 0.1545
C12 C 0.5249(6) 0.1861(8) 0.1748(4)
H8 H 0.5335 0.2343 0.2082
C13 C 0.5957(5) 0.1362(8) 0.1574(4)
C14 C 0.5784(6) 0.0652(10) 0.1097(5)
H9 H 0.6241 0.0287 0.0963
C15 C 0.4911(7) 0.0481(12) 0.0812(6)
H10 H 0.4805 -0.0020 0.0488
C16 C 0.9196(5) 0.1598(8) 0.1563(4)
C17 C 1.0041(6) 0.1887(8) 0.1877(4)
H11 H 1.0106 0.2200 0.2276
C18 C 1.0779(6) 0.1722(8) 0.1616(4)
H12 H 1.1333 0.1913 0.1842
C19 C 1.0708(6) 0.1275(8) 0.1020(4)
C20 C 0.9874(6) 0.1050(7) 0.0683(4)
H13 H 0.9807 0.0788 0.0270
C21 C 0.9132(6) 0.1213(7) 0.0956(4)
H14 H 0.8575 0.1057 0.0720
C22 C 1.1487(7) 0.1029(8) 0.0739(5)
Zn1_2 Zn 0.29764(6) 0.06301(9) 0.04583(4)
Zn1C Zn 0.79764(6) 0.43699(9) 0.54583(4)
N1C N 1.2980(4) 0.1484(6) -0.0364(3)
N3_2 N 1.4219(5) 0.0962(6) 0.0957(3)
Zn2 Zn 0.39322(6) 0.46222(9) 0.16555(5)
Cl2 Cl 0.37305(19) 0.6375(2) 0.17034(13)
N4 N 0.8973(4) 0.1204(6) -0.2485(3)
N5 N 0.9938(4) 0.3106(6) -0.0398(3)
N6 N 1.2665(4) 0.4211(6) 0.1160(3)
O3 O 0.4630(4) 0.4180(5) 0.0997(3)
O4 O 0.5529(5) 0.4643(6) 0.1877(4)
C23 C 0.8365(6) 0.1893(8) -0.2391(5)
H15 H 0.7906 0.2038 -0.2729
C24 C 0.8366(6) 0.2413(8) -0.1824(4)
H16 H 0.7901 0.2863 -0.1784
C25 C 0.9050(5) 0.2266(7) -0.1320(4)
C26 C 0.9702(6) 0.1563(8) -0.1417(4)
H17 H 1.0181 0.1426 -0.1092
C27 C 0.9638(5) 0.1063(8) -0.2003(4)
H18 H 1.0089 0.0602 -0.2059
C28 C 0.9116(5) 0.2838(7) -0.0703(4)
C29 C 0.8365(5) 0.3076(7) -0.0470(4)
H19 H 0.7810 0.2888 -0.0697
C30 C 0.8446(5) 0.3605(7) 0.0112(4)
C31 C 0.9302(5) 0.3873(7) 0.0412(4)
H20 H 0.9383 0.4241 0.0795
C32 C 1.0026(5) 0.3611(7) 0.0159(4)
C33 C 1.2496(5) 0.3795(7) 0.0583(4)
H21 H 1.2978 0.3613 0.0400
C34 C 1.1673(5) 0.3612(7) 0.0235(4)
H22 H 1.1607 0.3331 -0.0173
C35 C 1.0941(5) 0.3846(7) 0.0494(4)
C36 C 1.1092(6) 0.4301(8) 0.1093(4)
H23 H 1.0621 0.4478 0.1288
C37 C 1.1958(5) 0.4489(8) 0.1396(4)
H24 H 1.2049 0.4830 0.1788
C38 C 0.7664(5) 0.3828(7) 0.0415(4)
C39 C 0.6792(5) 0.3787(8) 0.0076(4)
H25 H 0.6694 0.3640 -0.0358
C40 C 0.6066(5) 0.3958(8) 0.0367(5)
H26 H 0.5495 0.3895 0.0131
C41 C 0.6187(6) 0.4218(7) 0.0996(4)
C42 C 0.7027(6) 0.4282(8) 0.1329(4)
H27 H 0.7113 0.4461 0.1757
C43 C 0.7757(6) 0.4092(8) 0.1058(4)
H28 H 0.8320 0.4140 0.1307
C44 C 0.5409(6) 0.4351(7) 0.1307(5)
Zn2_2 Zn 1.39322(6) 0.46222(9) 0.16555(5)
Zn2C Zn 0.89322(6) 0.03778(9) -0.33445(5)
N4C N 0.3973(4) 0.3796(6) 0.2515(3)
N6_2 N 0.2665(4) 0.4211(6) 0.1160(3)
O5 O 0.5518(18) 0.057(4) 0.3179(18)
loop_
_geom_bond_atom_site_label_1
_geom_bond_atom_site_label_2
_geom_bond_site_symmetry_1
_geom_bond_site_symmetry_2
Zn1 Cl1 1_555 1_555
N1 C1 1_555 1_555
N2 C6 1_555 1_555
N3 C11 1_555 1_555
O1 Zn1 1_555 1_555
O2 Zn1 1_555 1_555
C1 H1 1_555 1_555
C2 C1 1_555 1_555
H2 C2 1_555 1_555
C3 C2 1_555 1_555
C4 C3 1_555 1_555
H3 C4 1_555 1_555
C5 N1 1_555 1_555
H4 C5 1_555 1_555
C6 C3 1_555 1_555
C7 C6 1_555 1_555
H5 C7 1_555 1_555
C8 C7 1_555 1_555
C9 C8 1_555 1_555
H6 C9 1_555 1_555
C10 N2 1_555 1_555
C11 H7 1_555 1_555
C12 C11 1_555 1_555
H8 C12 1_555 1_555
C13 C10 1_555 1_555
C14 C13 1_555 1_555
H9 C14 1_555 1_555
C15 N3 1_555 1_555
H10 C15 1_555 1_555
C16 C8 1_555 1_555
C17 C16 1_555 1_555
H11 C17 1_555 1_555
C18 C17 1_555 1_555
H12 C18 1_555 1_555
C19 C18 1_555 1_555
C20 C19 1_555 1_555
H13 C20 1_555 1_555
C21 C16 1_555 1_555
H14 C21 1_555 1_555
C22 O1 1_555 1_555
Zn2 Cl2 1_555 1_555
N4 C23 1_555 1_555
N5 C28 1_555 1_555
N6 C33 1_555 1_555
O3 Zn2 1_555 1_555
O4 Zn2 1_555 1_555
C23 H15 1_555 1_555
C24 C23 1_555 1_555
H16 C24 1_555 1_555
C25 C24 1_555 1_555
C26 C25 1_555 1_555
H17 C26 1_555 1_555
C27 N4 1_555 1_555
H18 C27 1_555 1_555
C28 C25 1_555 1_555
C29 C28 1_555 1_555
H19 C29 1_555 1_555
C30 C29 1_555 1_555
C31 C30 1_555 1_555
H20 C31 1_555 1_555
C32 N5 1_555 1_555
C33 H21 1_555 1_555
C34 C33 1_555 1_555
H22 C34 1_555 1_555
C35 C32 1_555 1_555
C36 C35 1_555 1_555
H23 C36 1_555 1_555
C37 N6 1_555 1_555
H24 C37 1_555 1_555
C38 C30 1_555 1_555
C39 C38 1_555 1_555
H25 C39 1_555 1_555
C40 C39 1_555 1_555
H26 C40 1_555 1_555
C41 C40 1_555 1_555
C42 C41 1_555 1_555
H27 C42 1_555 1_555
C43 C38 1_555 1_555
H28 C43 1_555 1_555
C44 O3 1_555 1_555
Zn1_2 N3 1_555 1_555
Zn1C N1 1_555 1_555
N1C Zn1 1_555 1_555
N3_2 Zn1 1_555 1_555
Zn2_2 N6 1_555 1_555
Zn2C N4 1_555 1_555
N4C Zn2 1_555 1_555
N6_2 Zn2 1_555 1_555
O2 C22 1_555 1_555
C4 C5 1_555 1_555
C9 C10 1_555 1_555
C12 C13 1_555 1_555
C14 C15 1_555 1_555
C19 C22 1_555 1_555
C20 C21 1_555 1_555
O4 C44 1_555 1_555
C26 C27 1_555 1_555
C31 C32 1_555 1_555
C34 C35 1_555 1_555
C36 C37 1_555 1_555
C41 C44 1_555 1_555
C42 C43 1_555 1_555

#END
