
#######################################################################
#
#                 Cambridge Crystallographic Data Centre
#                                CCDC 
#
#######################################################################
#
# If this CIF has been generated from an entry in the Cambridge 
# Structural Database, then it will include bibliographic, chemical, 
# crystal, experimental, refinement or atomic coordinate data resulting 
# from the CCDC's data processing and validation procedures.
#
#######################################################################

data_JUJNAF
_symmetry_cell_setting           rhombohedral
_symmetry_space_group_name_H-M   'R -3 c'
_symmetry_Int_Tables_number      167
_space_group_name_Hall           '-R 3 2"c'
loop_
_symmetry_equiv_pos_site_id
_symmetry_equiv_pos_as_xyz
1 x,y,z
2 -y,x-y,z
3 -x+y,-x,z
4 y,x,1/2-z
5 x-y,-y,1/2-z
6 -x,-x+y,1/2-z
7 2/3+x,1/3+y,1/3+z
8 2/3-y,1/3+x-y,1/3+z
9 2/3-x+y,1/3-x,1/3+z
10 2/3+y,1/3+x,5/6-z
11 2/3+x-y,1/3-y,5/6-z
12 2/3-x,1/3-x+y,5/6-z
13 1/3+x,2/3+y,2/3+z
14 1/3-y,2/3+x-y,2/3+z
15 1/3-x+y,2/3-x,2/3+z
16 1/3+y,2/3+x,1/6-z
17 1/3+x-y,2/3-y,1/6-z
18 1/3-x,2/3-x+y,1/6-z
19 -x,-y,-z
20 y,-x+y,-z
21 x-y,x,-z
22 -y,-x,1/2+z
23 -x+y,y,1/2+z
24 x,x-y,1/2+z
25 1/3-x,2/3-y,2/3-z
26 1/3+y,2/3-x+y,2/3-z
27 1/3+x-y,2/3+x,2/3-z
28 1/3-y,2/3-x,1/6+z
29 1/3-x+y,2/3+y,1/6+z
30 1/3+x,2/3+x-y,1/6+z
31 2/3-x,1/3-y,1/3-z
32 2/3+y,1/3-x+y,1/3-z
33 2/3+x-y,1/3+x,1/3-z
34 2/3-y,1/3-x,5/6+z
35 2/3-x+y,1/3+y,5/6+z
36 2/3+x,1/3+x-y,5/6+z
_cell_length_a                   18.118(3)
_cell_length_b                   18.118(3)
_cell_length_c                   67.542(14)
_cell_angle_alpha                90
_cell_angle_beta                 90
_cell_angle_gamma                120
_cell_volume                     19201.1
loop_
_atom_site_label
_atom_site_type_symbol
_atom_site_fract_x
_atom_site_fract_y
_atom_site_fract_z
Zn1 Zn 0.3333 0.6667 0.22008(2)
Zn2 Zn 0.36002(5) 0.58183(5) 0.257759(11)
N1 N 0.4465(4) 0.3332(4) 0.16571(11)
O1 O 0.3333 0.6667 0.24898(12)
O2 O 0.3828(5) 0.6008(5) 0.21056(10)
O3 O 0.3973(4) 0.5342(4) 0.23669(7)
O4 O 0.1165(3) 0.1492(3) 0.11100(9)
O5 O 0.1792(3) 0.0724(3) 0.10369(7)
C1 C 0.3999(5) 0.5499(5) 0.21789(11)
C2 C 0.4207(5) 0.4981(5) 0.20486(10)
C3 C 0.4322(5) 0.4323(5) 0.21155(12)
H1 H 0.4327 0.4240 0.2254
C4 C 0.4425(5) 0.3800(5) 0.19940(11)
H2 H 0.4508 0.3360 0.2046
C5 C 0.4410(5) 0.3908(5) 0.17871(11)
C6 C 0.4329(6) 0.4582(6) 0.17231(12)
H3 H 0.4353 0.4686 0.1585
C7 C 0.4219(6) 0.5102(5) 0.18447(11)
H4 H 0.4149 0.5550 0.1792
C8 C 0.5128(6) 0.3131(7) 0.16831(14)
H5 H 0.4881 0.2511 0.1683
H6 H 0.5417 0.3365 0.1809
H7 H 0.5539 0.3380 0.1574
C9 C 0.1775(5) 0.1327(5) 0.11291(13)
C10 C 0.2478(5) 0.1865(5) 0.12569(11)
C11 C 0.2418(5) 0.2427(5) 0.13873(12)
H8 H 0.1925 0.2485 0.1387
C12 C 0.3066(5) 0.2893(6) 0.15150(11)
H9 H 0.3001 0.3265 0.1603
C13 C 0.3813(5) 0.2866(5) 0.15256(11)
C14 C 0.3877(5) 0.2313(5) 0.13864(12)
H10 H 0.4392 0.2296 0.1378
C15 C 0.3225(5) 0.1813(5) 0.12661(13)
H11 H 0.3271 0.1411 0.1184
Zn2A Zn 0.41817(5) 0.77819(7) 0.257759(11)
N1A N 0.6668(4) 1.1133(6) 0.16571(11)
O2A O 0.3992(5) 0.7820(7) 0.21056(10)
O3A O 0.4658(4) 0.8631(6) 0.23669(7)
O4A O 0.8508(3) 0.9673(4) 0.11100(9)
O5A O 0.9276(3) 1.1068(4) 0.10369(7)
C1A C 0.4501(5) 0.8500(7) 0.21789(11)
C2A C 0.5019(5) 0.9226(7) 0.20486(10)
C3A C 0.5677(5) 0.9999(7) 0.21155(12)
H1A H 0.5760 1.0087 0.2254
C4A C 0.6200(5) 1.0625(7) 0.19940(11)
H2A H 0.6640 1.1148 0.2046
C5A C 0.6092(5) 1.0502(7) 0.17871(11)
C6A C 0.5418(6) 0.9747(8) 0.17231(12)
H3A H 0.5314 0.9667 0.1585
C7A C 0.4898(5) 0.9117(8) 0.18447(11)
H4A H 0.4450 0.8599 0.1792
C8A C 0.6869(7) 1.1997(9) 0.16831(14)
H5A H 0.7489 1.2370 0.1683
H6A H 0.6635 1.2052 0.1809
H7A H 0.6620 1.2159 0.1574
C9A C 0.8673(5) 1.0448(7) 0.11291(13)
C10A C 0.8135(5) 1.0613(7) 0.12569(11)
C11A C 0.7573(5) 0.9991(7) 0.13873(12)
H8A H 0.7515 0.9440 0.1387
C12A C 0.7107(6) 1.0173(8) 0.15150(11)
H9A H 0.6735 0.9736 0.1603
C13A C 0.7134(5) 1.0947(7) 0.15256(11)
C14A C 0.7687(5) 1.1564(7) 0.13864(12)
H10A H 0.7704 1.2096 0.1378
C15A C 0.8187(5) 1.1412(7) 0.12661(13)
H11A H 0.8589 1.1860 0.1184
Zn2B Zn 0.22181(7) 0.63998(5) 0.257759(11)
N1B N -0.1133(6) 0.5535(4) 0.16571(11)
O2B O 0.2180(7) 0.6172(5) 0.21056(10)
O3B O 0.1369(6) 0.6027(4) 0.23669(7)
O4B O 0.0327(4) 0.8835(3) 0.11100(9)
O5B O -0.1068(4) 0.8208(3) 0.10369(7)
C1B C 0.1500(7) 0.6001(5) 0.21789(11)
C2B C 0.0774(7) 0.5793(5) 0.20486(10)
C3B C 0.0001(7) 0.5678(5) 0.21155(12)
H1B H -0.0087 0.5673 0.2254
C4B C -0.0625(7) 0.5575(5) 0.19940(11)
H2B H -0.1148 0.5492 0.2046
C5B C -0.0502(7) 0.5590(5) 0.17871(11)
C6B C 0.0253(8) 0.5671(6) 0.17231(12)
H3B H 0.0333 0.5647 0.1585
C7B C 0.0883(8) 0.5781(6) 0.18447(11)
H4B H 0.1401 0.5851 0.1792
C8B C -0.1997(9) 0.4872(6) 0.16831(14)
H5B H -0.2370 0.5119 0.1683
H6B H -0.2052 0.4583 0.1809
H7B H -0.2159 0.4461 0.1574
C9B C -0.0448(7) 0.8225(5) 0.11291(13)
C10B C -0.0613(7) 0.7522(5) 0.12569(11)
C11B C 0.0009(7) 0.7582(5) 0.13873(12)
H8B H 0.0560 0.8075 0.1387
C12B C -0.0173(8) 0.6934(5) 0.15150(11)
H9B H 0.0264 0.6999 0.1603
C13B C -0.0947(7) 0.6187(5) 0.15256(11)
C14B C -0.1564(7) 0.6123(5) 0.13864(12)
H10B H -0.2096 0.5608 0.1378
C15B C -0.1412(7) 0.6775(5) 0.12661(13)
H11B H -0.1860 0.6729 0.1184
Zn2GA Zn 0.08484(5) -0.02669(5) 0.091092(11)
Zn2GA_2 Zn 0.08484(5) 0.97331(5) 0.091092(11)
Zn2HA Zn -0.11152(7) 0.91516(5) 0.091092(11)
Zn2HA_2 Zn 0.88848(7) 0.91516(5) 0.091092(11)
Zn2IA Zn 0.02669(5) 0.11152(7) 0.091092(11)
Zn2IA_2 Zn 1.02669(5) 1.11152(7) 0.091092(11)
O4AA O 0.1841(3) 0.5502(3) 0.27767(9)
O4BA O 0.3660(4) 0.8159(3) 0.27767(9)
O4CA O 0.4498(3) 0.6340(4) 0.27767(9)
O5AA O 0.2609(3) 0.4875(3) 0.27036(7)
O5BA O 0.2265(4) 0.7391(3) 0.27036(7)
O5CA O 0.5125(3) 0.7735(4) 0.27036(7)
O6 O 0.6667 0.3333 0.0413(3)
O7 O 0.8451(10) 0.9788(9) 0.2122(3)
H12 H 0.8761 0.9565 0.2125
C16 C 0.7811(13) 0.9362(14) 0.1997(4)
H13 H 0.7459 0.9631 0.1991
H14 H 0.7464 0.8772 0.2042
H15 H 0.8039 0.9368 0.1865
O8 O 0.9288(13) 0.8171(13) 0.0618(3)
H16 H 0.9797 0.8285 0.0612
C17 C 0.885(4) 0.7764(19) 0.0434(4)
H17 H 0.9159 0.8137 0.0322
H18 H 0.8269 0.7661 0.0437
H19 H 0.8842 0.7220 0.0419
loop_
_geom_bond_atom_site_label_1
_geom_bond_atom_site_label_2
_geom_bond_site_symmetry_1
_geom_bond_site_symmetry_2
Zn1 O1 1_555 1_555
Zn2 O1 1_555 1_555
N1 C5 1_555 1_555
O1 Zn2A 1_555 1_555
O2 Zn1 1_555 1_555
O3 Zn2 1_555 1_555
O4 C9 1_555 1_555
O5 C9 1_555 1_555
C1 O2 1_555 1_555
C2 C1 1_555 1_555
C3 C2 1_555 1_555
H1 C3 1_555 1_555
C4 C3 1_555 1_555
H2 C4 1_555 1_555
C5 C4 1_555 1_555
C6 C5 1_555 1_555
H3 C6 1_555 1_555
C7 C2 1_555 1_555
H4 C7 1_555 1_555
C8 N1 1_555 1_555
H5 C8 1_555 1_555
H6 C8 1_555 1_555
H7 C8 1_555 1_555
C9 C10 1_555 1_555
C10 C11 1_555 1_555
C11 H8 1_555 1_555
C12 C11 1_555 1_555
H9 C12 1_555 1_555
C13 N1 1_555 1_555
C14 C13 1_555 1_555
H10 C14 1_555 1_555
C15 C10 1_555 1_555
H11 C15 1_555 1_555
O7 H12 1_555 1_555
C16 O7 1_555 1_555
H13 C16 1_555 1_555
H14 C16 1_555 1_555
H15 C16 1_555 1_555
O8 H16 1_555 1_555
C17 O8 1_555 1_555
H17 C17 1_555 1_555
H18 C17 1_555 1_555
H19 C17 1_555 1_555
Zn2A O3A 1_555 1_555
N1A C5A 1_555 1_555
O2A Zn1 1_555 1_555
O3A C1A 1_555 1_555
O4A C9A 1_555 1_555
O5A C9A 1_555 1_555
C1A O2A 1_555 1_555
C2A C1A 1_555 1_555
C3A C2A 1_555 1_555
H1A C3A 1_555 1_555
C4A C3A 1_555 1_555
H2A C4A 1_555 1_555
C5A C4A 1_555 1_555
C6A C5A 1_555 1_555
H3A C6A 1_555 1_555
C7A C2A 1_555 1_555
H4A C7A 1_555 1_555
C8A N1A 1_555 1_555
H5A C8A 1_555 1_555
H6A C8A 1_555 1_555
H7A C8A 1_555 1_555
C9A C10A 1_555 1_555
C10A C11A 1_555 1_555
C11A H8A 1_555 1_555
C12A C11A 1_555 1_555
H9A C12A 1_555 1_555
C13A N1A 1_555 1_555
C14A C13A 1_555 1_555
H10A C14A 1_555 1_555
C15A C10A 1_555 1_555
H11A C15A 1_555 1_555
Zn2B O1 1_555 1_555
N1B C5B 1_555 1_555
O2B Zn1 1_555 1_555
O3B Zn2B 1_555 1_555
O4B C9B 1_555 1_555
O5B C9B 1_555 1_555
C1B O2B 1_555 1_555
C2B C1B 1_555 1_555
C3B C2B 1_555 1_555
H1B C3B 1_555 1_555
C4B C3B 1_555 1_555
H2B C4B 1_555 1_555
C5B C4B 1_555 1_555
C6B C5B 1_555 1_555
H3B C6B 1_555 1_555
C7B C2B 1_555 1_555
H4B C7B 1_555 1_555
C8B N1B 1_555 1_555
H5B C8B 1_555 1_555
H6B C8B 1_555 1_555
H7B C8B 1_555 1_555
C9B C10B 1_555 1_555
C10B C11B 1_555 1_555
C11B H8B 1_555 1_555
C12B C11B 1_555 1_555
H9B C12B 1_555 1_555
C13B N1B 1_555 1_555
C14B C13B 1_555 1_555
H10B C14B 1_555 1_555
C15B C10B 1_555 1_555
H11B C15B 1_555 1_555
Zn2GA O5 1_555 1_555
Zn2GA_2 O4B 1_555 1_555
Zn2HA O5B 1_555 1_555
Zn2HA_2 O4A 1_555 1_555
Zn2IA O4 1_555 1_555
Zn2IA_2 O5A 1_555 1_555
O4AA Zn2B 1_555 1_555
O4BA Zn2A 1_555 1_555
O4CA Zn2 1_555 1_555
O5AA Zn2 1_555 1_555
O5BA Zn2B 1_555 1_555
O5CA Zn2A 1_555 1_555
O3 C1 1_555 1_555
C6 C7 1_555 1_555
C12 C13 1_555 1_555
C14 C15 1_555 1_555
C6A C7A 1_555 1_555
C12A C13A 1_555 1_555
C14A C15A 1_555 1_555
O3B C1B 1_555 1_555
C6B C7B 1_555 1_555
C12B C13B 1_555 1_555
C14B C15B 1_555 1_555

#END
