
#######################################################################
#
#                 Cambridge Crystallographic Data Centre
#                                CCDC 
#
#######################################################################
#
# If this CIF has been generated from an entry in the Cambridge 
# Structural Database, then it will include bibliographic, chemical, 
# crystal, experimental, refinement or atomic coordinate data resulting 
# from the CCDC's data processing and validation procedures.
#
#######################################################################

data_JUJTEP
_symmetry_cell_setting           triclinic
_symmetry_space_group_name_H-M   'P -1'
_symmetry_Int_Tables_number      2
_space_group_name_Hall           '-P 1'
loop_
_symmetry_equiv_pos_site_id
_symmetry_equiv_pos_as_xyz
1 x,y,z
2 -x,-y,-z
_cell_length_a                   10.2476(8)
_cell_length_b                   11.7864(7)
_cell_length_c                   14.2092(8)
_cell_angle_alpha                74.780(2)
_cell_angle_beta                 76.188(2)
_cell_angle_gamma                69.718(2)
_cell_volume                     1532.51
loop_
_atom_site_label
_atom_site_type_symbol
_atom_site_fract_x
_atom_site_fract_y
_atom_site_fract_z
Cd1 Cd -0.10210(2) 0.88104(2) 1.02725(2)
O1 O 0.1213(3) 0.8125(2) 0.50691(15)
O2 O 0.6849(2) -0.04369(18) 0.55199(14)
O3 O -0.88658(18) 0.74558(17) 1.04201(13)
O4 O -0.8085(2) 0.90894(17) 0.98081(13)
O5 O -0.32637(18) 0.87267(17) 1.02246(13)
O6 O -0.17354(19) 0.68992(18) 1.05943(15)
O7 O -0.3667(2) 0.32460(18) 1.20316(15)
O8 O -0.58789(19) 0.35445(17) 1.18473(14)
H1 H -0.5712 0.2819 1.2129
N1 N 0.8563(2) -0.1343(2) 0.19624(15)
N2 N 0.6877(2) 0.0460(2) 0.38984(16)
H2 H 0.6641 0.1154 0.3494
N3 N 0.1135(2) 0.7271(2) 0.67064(16)
H3 H 0.1408 0.6593 0.7121
N4 N -0.0609(2) 0.9142(2) 0.85869(15)
C1 C -0.1265(3) 1.0225(3) 0.80508(19)
H4 H -0.1823 1.0867 0.8373
C2 C -0.1137(3) 1.0416(3) 0.7038(2)
H5 H -0.1578 1.1185 0.6683
C3 C -0.0349(3) 0.9460(3) 0.65503(19)
H6 H -0.0276 0.9567 0.5870
C4 C 0.0331(3) 0.8335(2) 0.71020(19)
C5 C 0.0190(3) 0.8221(2) 0.81213(18)
H7 H 0.0669 0.7478 0.8490
C6 C 0.1513(3) 0.7223(3) 0.57288(19)
C7 C 0.2353(3) 0.5982(3) 0.54814(19)
C8 C 0.2371(3) 0.5842(3) 0.4518(2)
H8 H 0.1847 0.6489 0.4092
C9 C 0.3151(3) 0.4763(3) 0.4207(2)
H9 H 0.3143 0.4683 0.3575
C10 C 0.3971(3) 0.3768(3) 0.48352(19)
C11 C 0.3946(3) 0.3896(3) 0.58088(19)
C12 C 0.3128(3) 0.5026(3) 0.61112(19)
H10 H 0.3117 0.5122 0.6743
C13 C 0.4739(3) 0.2885(3) 0.6448(2)
H11 H 0.4726 0.2954 0.7088
C14 C 0.5519(3) 0.1814(3) 0.6133(2)
H12 H 0.6016 0.1155 0.6566
C15 C 0.5586(3) 0.1691(3) 0.51527(19)
C16 C 0.4812(3) 0.2651(3) 0.45244(19)
H13 H 0.4841 0.2566 0.3887
C17 C 0.6484(3) 0.0481(3) 0.48786(19)
C18 C 0.7636(3) -0.0592(3) 0.34784(19)
C19 C 0.8196(3) -0.1770(3) 0.40190(19)
H14 H 0.8093 -0.1913 0.4704
C20 C 0.8909(3) -0.2722(3) 0.3512(2)
H15 H 0.9271 -0.3520 0.3857
C21 C 0.9079(3) -0.2483(3) 0.2493(2)
H16 H 0.9567 -0.3130 0.2162
C22 C 0.7851(3) -0.0420(2) 0.24502(19)
H17 H 0.7485 0.0366 0.2088
C23 C -0.7918(3) 0.7971(2) 1.02096(17)
C24 C -0.6493(3) 0.7186(2) 1.04807(17)
C25 C -0.2951(3) 0.7557(2) 1.04647(17)
C26 C -0.5405(3) 0.7700(2) 1.03263(18)
H18 H -0.5548 0.8529 1.0037
C27 C -0.4105(3) 0.6980(2) 1.06020(18)
C28 C -0.3893(3) 0.5735(2) 1.10416(18)
H19 H -0.3020 0.5249 1.1215
C29 C -0.4985(3) 0.5224(2) 1.12192(18)
C30 C -0.6276(3) 0.5947(2) 1.09357(17)
H20 H -0.7003 0.5601 1.1050
C31 C -0.4756(3) 0.3901(2) 1.17326(18)
Cd1_2 Cd -1.10210(2) 0.88104(2) 1.02725(2)
Cd1_3 Cd 0.89790(2) -0.11896(2) 0.02725(2)
Cd1A Cd -0.89790(2) 1.11896(2) 0.97275(2)
O3_2 O 0.11342(18) 0.74558(17) 1.04201(13)
O4A O -0.1915(2) 1.09106(17) 1.01919(13)
N1_2 N -0.1437(2) 0.8657(2) 1.19624(15)
O9 O 0.4493(2) 0.12718(19) 0.26609(14)
H21 H 0.438(4) 0.084(3) 0.224(2)
H22 H 0.400(3) 0.110(3) 0.3213(16)
O10 O 0.4432(2) -0.0107(2) 0.14867(16)
O11 O -0.0631(2) 0.4659(2) 0.17320(17)
H23 H -0.0959 0.5349 0.1409
C32 C 0.0839(3) 0.4373(3) 0.1605(3)
H24 H 0.1077 0.4810 0.1989
H25 H 0.1200 0.4611 0.0919
H26 H 0.1246 0.3501 0.1820
loop_
_geom_bond_atom_site_label_1
_geom_bond_atom_site_label_2
_geom_bond_site_symmetry_1
_geom_bond_site_symmetry_2
Cd1 O5 1_555 1_555
O1 C6 1_555 1_555
O2 C17 1_555 1_555
O3 C23 1_555 1_555
O4 C23 1_555 1_555
O5 C25 1_555 1_555
O6 Cd1 1_555 1_555
O7 C31 1_555 1_555
O8 H1 1_555 1_555
N1 C21 1_555 1_555
N2 H2 1_555 1_555
N3 H3 1_555 1_555
N4 Cd1 1_555 1_555
C1 N4 1_555 1_555
H4 C1 1_555 1_555
C2 C1 1_555 1_555
H5 C2 1_555 1_555
C3 C2 1_555 1_555
H6 C3 1_555 1_555
C4 N3 1_555 1_555
C5 N4 1_555 1_555
H7 C5 1_555 1_555
C6 N3 1_555 1_555
C7 C6 1_555 1_555
C8 C7 1_555 1_555
H8 C8 1_555 1_555
C9 C8 1_555 1_555
H9 C9 1_555 1_555
C10 C9 1_555 1_555
C11 C10 1_555 1_555
C12 C7 1_555 1_555
H10 C12 1_555 1_555
C13 C11 1_555 1_555
H11 C13 1_555 1_555
C14 C13 1_555 1_555
H12 C14 1_555 1_555
C15 C14 1_555 1_555
C16 C10 1_555 1_555
H13 C16 1_555 1_555
C17 N2 1_555 1_555
C18 N2 1_555 1_555
C19 C18 1_555 1_555
H14 C19 1_555 1_555
C20 C19 1_555 1_555
H15 C20 1_555 1_555
C21 C20 1_555 1_555
H16 C21 1_555 1_555
C22 N1 1_555 1_555
H17 C22 1_555 1_555
C23 C24 1_555 1_555
C24 C26 1_555 1_555
C25 O6 1_555 1_555
C26 H18 1_555 1_555
C27 C25 1_555 1_555
C28 C27 1_555 1_555
H19 C28 1_555 1_555
C29 C28 1_555 1_555
C30 C24 1_555 1_555
H20 C30 1_555 1_555
C31 O8 1_555 1_555
O9 H21 1_555 1_555
H22 O9 1_555 1_555
O11 H23 1_555 1_555
C32 O11 1_555 1_555
H24 C32 1_555 1_555
H25 C32 1_555 1_555
H26 C32 1_555 1_555
Cd1_2 O3 1_555 1_555
Cd1_3 N1 1_555 1_555
Cd1A O4 1_555 1_555
O3_2 Cd1 1_555 1_555
O4A Cd1 1_555 1_555
N1_2 Cd1 1_555 1_555
C3 C4 1_555 1_555
C4 C5 1_555 1_555
C11 C12 1_555 1_555
C15 C16 1_555 1_555
C15 C17 1_555 1_555
C18 C22 1_555 1_555
C26 C27 1_555 1_555
C29 C30 1_555 1_555
C29 C31 1_555 1_555

#END
