
#######################################################################
#
#                 Cambridge Crystallographic Data Centre
#                                CCDC 
#
#######################################################################
#
# If this CIF has been generated from an entry in the Cambridge 
# Structural Database, then it will include bibliographic, chemical, 
# crystal, experimental, refinement or atomic coordinate data resulting 
# from the CCDC's data processing and validation procedures.
#
#######################################################################

data_JUJTIT
_symmetry_cell_setting           triclinic
_symmetry_space_group_name_H-M   'P -1'
_symmetry_Int_Tables_number      2
_space_group_name_Hall           '-P 1'
loop_
_symmetry_equiv_pos_site_id
_symmetry_equiv_pos_as_xyz
1 x,y,z
2 -x,-y,-z
_cell_length_a                   9.1475(16)
_cell_length_b                   10.0916(17)
_cell_length_c                   17.097(3)
_cell_angle_alpha                93.392(5)
_cell_angle_beta                 91.558(5)
_cell_angle_gamma                99.946(5)
_cell_volume                     1550.71
loop_
_atom_site_label
_atom_site_type_symbol
_atom_site_fract_x
_atom_site_fract_y
_atom_site_fract_z
C1 C 0.3164(5) 0.8436(4) 0.9425(2)
C2 C 0.2177(5) 0.7079(4) 0.9279(2)
C3 C 0.0687(5) 0.6979(4) 0.9037(3)
H1 H 0.0302 0.7756 0.8953
C4 C -0.0224(5) 0.5722(4) 0.8921(3)
H2 H -0.1213 0.5662 0.8760
C5 C 0.0343(5) 0.4560(4) 0.9047(3)
H3 H -0.0266 0.3722 0.8963
C6 C 0.1817(5) 0.4641(4) 0.9297(3)
C7 C 0.2744(5) 0.5900(4) 0.9406(2)
H4 H 0.3735 0.5955 0.9562
C8 C 0.2446(5) 0.3397(4) 0.9451(3)
C9 C 0.8585(5) 0.9926(4) 0.9067(3)
H5 H 0.8925 1.0545 0.9485
C10 C 0.9209(6) 1.0114(5) 0.8343(3)
H6 H 0.9942 1.0856 0.8275
C11 C 0.8727(6) 0.9183(5) 0.7721(3)
H7 H 0.9106 0.9308 0.7226
C12 C 0.7664(5) 0.8055(5) 0.7847(3)
C13 C 0.7057(5) 0.7957(4) 0.8584(3)
H8 H 0.6314 0.7228 0.8663
C14 C 0.8080(6) 0.6539(6) 0.6737(3)
C15 C 0.7409(7) 0.5371(7) 0.6171(4)
C16 C 0.8477(9) 0.4742(9) 0.5737(5)
H9 H 0.9488 0.5064 0.5819
C17 C 0.7994(9) 0.3675(9) 0.5207(5)
H10 H 0.8683 0.3270 0.4934
C18 C 0.6445(8) 0.3179(8) 0.5069(4)
C19 C 0.5911(8) 0.2101(8) 0.4504(4)
H11 H 0.6585 0.1788 0.4173
C20 C 0.4502(6) 0.1526(5) 0.4429(3)
C21 C 0.3425(8) 0.2117(7) 0.4884(4)
H12 H 0.2416 0.1782 0.4806
C22 C 0.3899(8) 0.3166(8) 0.5428(4)
H13 H 0.3212 0.3555 0.5713
C23 C 0.5477(6) 0.3668(5) 0.5557(3)
C24 C 0.6012(7) 0.4775(6) 0.6112(3)
H14 H 0.5340 0.5087 0.6445
C25 C 0.3887(6) 0.0375(5) 0.3840(3)
C26 C 0.5271(6) -0.0704(5) 0.1944(3)
H15 H 0.5975 0.0075 0.1918
C27 C 0.4440(6) -0.0854(5) 0.2616(3)
C28 C 0.3385(6) -0.2020(5) 0.2663(3)
H16 H 0.2817 -0.2159 0.3103
C29 C 0.3212(6) -0.2970(5) 0.2027(3)
H17 H 0.2516 -0.3757 0.2038
C30 C 0.4071(5) -0.2748(5) 0.1380(3)
H18 H 0.3933 -0.3394 0.0961
Co1 Co 0.63974(6) 0.86361(5) 1.02881(3)
N1 N 0.7498(4) 0.8874(4) 0.9189(2)
N2 N 0.7165(5) 0.7012(4) 0.7251(2)
H19 H 0.6236 0.6666 0.7218
N3 N 0.4765(5) 0.0176(5) 0.3226(3)
H20 H 0.5591 0.0727 0.3208
N4 N 0.5106(4) -0.1624(4) 0.1333(2)
O1 O 0.2590(3) 0.9473(3) 0.93206(19)
O2 O 0.4489(3) 0.8472(3) 0.9638(2)
O3 O 0.3642(3) 0.3511(3) 0.98587(18)
O4 O 0.1787(4) 0.2257(3) 0.9171(2)
O5 O 0.9408(5) 0.7002(5) 0.6725(3)
O6 O 0.2659(5) -0.0304(4) 0.3917(2)
Co1_2 Co 0.63974(6) -0.13639(5) 0.02881(3)
Co1A Co 0.36026(6) 0.13639(5) 0.97119(3)
Co1A_2 Co 0.36026(6) 1.13639(5) 0.97119(3)
N4_2 N 0.5106(4) 0.8376(4) 1.1333(2)
O1A O 0.7410(3) 1.0527(3) 1.06794(19)
O3A O 0.6358(3) 0.6489(3) 1.01413(18)
O4A O 0.8213(4) 0.7743(3) 1.0829(2)
C31 C 0.320(2) 0.368(3) 0.7549(8)
H21 H 0.3912 0.3558 0.7162
H22 H 0.2612 0.2825 0.7643
H23 H 0.3705 0.4076 0.8028
C32 C 0.0887(18) 0.381(2) 0.7120(9)
H24 H 0.0288 0.3890 0.7567
H25 H 0.0928 0.2877 0.6997
H26 H 0.0458 0.4174 0.6680
C33 C 0.2790(16) 0.5940(17) 0.7260(8)
H27 H 0.2167 0.6527 0.7114
N5 N 0.2298(11) 0.4510(14) 0.7286(5)
O7 O 0.4016(8) 0.6289(15) 0.7436(5)
O9 O 0.8075(9) 0.0877(9) 0.3251(6)
O11 O 0.042(3) 0.062(2) 0.5824(14)
O11A O -0.042(3) -0.062(2) 0.4176(14)
O8? O 0.7592(18) 0.1822(18) 0.2755(10)
O10? O 0.037(4) -0.063(4) 0.514(2)
loop_
_geom_bond_atom_site_label_1
_geom_bond_atom_site_label_2
_geom_bond_site_symmetry_1
_geom_bond_site_symmetry_2
C1 C2 1_555 1_555
C2 C3 1_555 1_555
C3 H1 1_555 1_555
C4 C3 1_555 1_555
H2 C4 1_555 1_555
C5 C4 1_555 1_555
H3 C5 1_555 1_555
C6 C5 1_555 1_555
C7 C2 1_555 1_555
H4 C7 1_555 1_555
C8 C6 1_555 1_555
C9 H5 1_555 1_555
C10 C9 1_555 1_555
H6 C10 1_555 1_555
C11 C10 1_555 1_555
H7 C11 1_555 1_555
C12 C11 1_555 1_555
C13 C12 1_555 1_555
H8 C13 1_555 1_555
C14 C15 1_555 1_555
C15 C16 1_555 1_555
C16 H9 1_555 1_555
C17 C16 1_555 1_555
H10 C17 1_555 1_555
C18 C17 1_555 1_555
C19 C18 1_555 1_555
H11 C19 1_555 1_555
C20 C19 1_555 1_555
C21 C20 1_555 1_555
H12 C21 1_555 1_555
C22 C21 1_555 1_555
H13 C22 1_555 1_555
C23 C18 1_555 1_555
C24 C15 1_555 1_555
H14 C24 1_555 1_555
C25 C20 1_555 1_555
C26 H15 1_555 1_555
C27 C26 1_555 1_555
C28 C27 1_555 1_555
H16 C28 1_555 1_555
C29 C28 1_555 1_555
H17 C29 1_555 1_555
C30 C29 1_555 1_555
H18 C30 1_555 1_555
Co1 N1 1_555 1_555
N1 C9 1_555 1_555
N2 C12 1_555 1_555
H19 N2 1_555 1_555
N3 C25 1_555 1_555
H20 N3 1_555 1_555
N4 C26 1_555 1_555
O1 C1 1_555 1_555
O2 C1 1_555 1_555
O3 C8 1_555 1_555
O4 C8 1_555 1_555
O5 C14 1_555 1_555
O6 C25 1_555 1_555
C31 H21 1_555 1_555
H22 C31 1_555 1_555
H23 C31 1_555 1_555
C32 H24 1_555 1_555
H25 C32 1_555 1_555
H26 C32 1_555 1_555
C33 H27 1_555 1_555
N5 C31 1_555 1_555
O7 C33 1_555 1_555
Co1_2 N4 1_555 1_555
Co1A O3 1_555 1_555
Co1A_2 O1 1_555 1_555
N4_2 Co1 1_555 1_555
O1A Co1 1_555 1_555
O3A Co1 1_555 1_555
O4A Co1 1_555 1_555
C6 C7 1_555 1_555
C13 N1 1_555 1_555
C14 N2 1_555 1_555
C22 C23 1_555 1_555
C23 C24 1_555 1_555
C27 N3 1_555 1_555
C30 N4 1_555 1_555
Co1 O2 1_555 1_555
O4 Co1A 1_555 1_555
C32 N5 1_555 1_555
C33 N5 1_555 1_555

#END
