
#######################################################################
#
#                 Cambridge Crystallographic Data Centre
#                                CCDC 
#
#######################################################################
#
# If this CIF has been generated from an entry in the Cambridge 
# Structural Database, then it will include bibliographic, chemical, 
# crystal, experimental, refinement or atomic coordinate data resulting 
# from the CCDC's data processing and validation procedures.
#
#######################################################################

data_JUJWES
_symmetry_cell_setting           triclinic
_symmetry_space_group_name_H-M   'P -1'
_symmetry_Int_Tables_number      2
_space_group_name_Hall           '-P 1'
loop_
_symmetry_equiv_pos_site_id
_symmetry_equiv_pos_as_xyz
1 x,y,z
2 -x,-y,-z
_cell_length_a                   10.0115(8)
_cell_length_b                   14.3215(11)
_cell_length_c                   18.4709(15)
_cell_angle_alpha                110.097(10)
_cell_angle_beta                 99.868(11)
_cell_angle_gamma                99.041(10)
_cell_volume                     2382.58
loop_
_atom_site_label
_atom_site_type_symbol
_atom_site_fract_x
_atom_site_fract_y
_atom_site_fract_z
Tb1 Tb 1.04952(2) 0.19602(2) 0.05944(2)
O1 O 1.0995(3) 0.2390(2) -0.04574(15)
C1 C 1.1960(4) 0.2899(3) -0.0643(2)
O2 O 1.2678(3) 0.3763(2) -0.02386(16)
C2 C 1.2204(4) 0.2361(3) -0.1443(2)
S1 S 1.35154(10) 0.29538(7) -0.17378(5)
C3 C 1.1538(5) 0.1418(3) -0.2011(2)
C4 C 1.3164(4) 0.1940(3) -0.2632(2)
H1 H 1.0804 0.0983 -0.1955
C5 C 1.2086(4) 0.1178(3) -0.2689(2)
C6 C 1.3952(4) 0.1976(3) -0.3230(2)
H2 H 1.1751 0.0567 -0.3129
O3 O 1.3556(3) 0.1275(2) -0.39148(15)
O4 O 1.4987(3) 0.27104(19) -0.30575(14)
Tb2 Tb 1.53614(2) 0.20836(2) -0.44069(2)
N1 N 1.5874(3) 0.4035(2) -0.39511(17)
N2 N 1.7872(3) 0.3058(2) -0.36640(18)
N3 N 1.3292(3) 0.2818(2) -0.4699(2)
O5 O 1.3901(3) 0.08094(19) -0.55567(15)
O6 O 1.6241(3) 0.0846(2) -0.41380(16)
O7 O 1.6316(4) 0.2163(3) -0.54062(19)
C7 C 1.4856(4) 0.4489(3) -0.4131(2)
C8 C 1.7178(4) 0.4617(3) -0.3597(2)
C9 C 1.8258(4) 0.4089(3) -0.3395(2)
C10 C 1.8857(4) 0.2561(3) -0.3523(3)
C11 C 1.3423(4) 0.3841(3) -0.4471(2)
C12 C 1.2003(4) 0.2205(3) -0.5008(3)
C13 C 1.3615(3) -0.0087(3) -0.6043(2)
C14 C 1.7093(4) 0.2715(3) -0.5643(2)
C15 C 1.5131(5) 0.5529(3) -0.3999(3)
C16 C 1.7498(5) 0.5665(3) -0.3421(3)
C17 C 1.9602(4) 0.4636(3) -0.2951(3)
C18 C 2.0221(5) 0.3055(4) -0.3096(3)
H3 H 1.8613 0.1850 -0.3722
C19 C 1.2257(5) 0.4238(3) -0.4551(3)
H4 H 1.1912 0.1503 -0.5173
C20 C 1.0817(5) 0.2564(4) -0.5092(3)
C21 C 1.3024(4) -0.0294(3) -0.6882(2)
C22 C 1.7331(4) 0.2183(3) -0.6448(2)
O8 O 1.7664(3) 0.3625(2) -0.52792(18)
C23 C 1.6452(5) 0.6112(3) -0.3645(3)
H5 H 1.4420 0.5821 -0.4151
H6 H 1.8397 0.6057 -0.3159
H7 H 1.9837 0.5346 -0.2762
C24 C 2.0573(5) 0.4101(4) -0.2799(3)
H8 H 2.0876 0.2685 -0.3013
H9 H 1.2357 0.4941 -0.4393
C25 C 1.0946(5) 0.3593(4) -0.4865(3)
H10 H 0.9943 0.2115 -0.5300
C26 C 1.2734(5) -0.1213(3) -0.7513(2)
S2 S 1.25835(11) 0.06419(7) -0.71959(5)
C27 C 1.6721(5) 0.1219(4) -0.6995(3)
S3 S 1.85212(10) 0.28260(7) -0.67779(5)
H11 H 1.6651 0.6805 -0.3554
H12 H 2.1469 0.4452 -0.2495
H13 H 1.0160 0.3857 -0.4922
H14 H 1.2905 -0.1814 -0.7471
C28 C 1.2157(5) -0.1137(3) -0.8219(2)
C29 C 1.2000(4) -0.0199(3) -0.81637(19)
C30 C 1.7207(5) 0.0997(3) -0.7694(3)
H15 H 1.6056 0.0758 -0.6915
C31 C 1.8205(4) 0.1798(3) -0.7660(2)
H16 H 1.1894 -0.1695 -0.8701
C32 C 1.1403(3) 0.0112(2) -0.88211(19)
H17 H 1.6889 0.0379 -0.8128
C33 C 1.8962(4) 0.1857(3) -0.8267(2)
O9 O 1.1432(3) 0.10395(19) -0.86439(16)
O10 O 1.0943(3) -0.05788(19) -0.95022(14)
O11 O 1.9915(3) 0.26410(18) -0.81077(14)
O12 O 1.8641(3) 0.11295(19) -0.89327(15)
N4 N 0.7035(3) -0.2999(2) -1.13442(18)
O13 O 0.7857(3) -0.0961(2) -0.98798(18)
N5 N 0.9121(3) -0.3907(2) -1.10559(17)
N6 N 1.1681(3) -0.2634(2) -1.03250(18)
C34 C 0.6036(4) -0.2534(3) -1.1518(3)
C35 C 0.6709(4) -0.4027(3) -1.1603(2)
C36 C 1.0169(4) -0.4319(3) -1.0858(2)
C37 C 0.7830(4) -0.4516(3) -1.1394(2)
C38 C 1.1593(4) -0.3643(3) -1.0524(2)
C39 C 1.2958(4) -0.2007(3) -1.0041(3)
H18 H 0.6254 -0.1824 -1.1333
C40 C 0.4704(4) -0.3054(4) -1.1958(3)
C41 C 0.5383(4) -0.4599(3) -1.2059(2)
C42 C 0.9934(5) -0.5347(3) -1.0956(3)
C43 C 0.7556(5) -0.5557(3) -1.1528(3)
C44 C 1.2775(5) -0.4029(4) -1.0436(3)
H19 H 1.3029 -0.1309 -0.9902
C45 C 1.4174(5) -0.2344(4) -0.9943(3)
C46 C 0.4381(5) -0.4098(4) -1.2235(3)
H20 H 0.4038 -0.2703 -1.2065
H21 H 0.5177 -0.5309 -1.2241
C47 C 0.8614(5) -0.5954(3) -1.1295(3)
H22 H 1.0663 -0.5616 -1.0792
H23 H 0.6663 -0.5969 -1.1772
C48 C 1.4070(5) -0.3376(4) -1.0147(3)
H24 H 1.2686 -0.4729 -1.0574
H25 H 1.5040 -0.1884 -0.9744
H26 H 0.3492 -0.4468 -1.2540
H27 H 0.8445 -0.6641 -1.1367
H28 H 1.4867 -0.3627 -1.0088
O6A O 1.3759(3) -0.0846(2) -0.58620(16)
Tb2A Tb 1.46386(2) -0.20836(2) -0.55931(2)
O1A O 0.9005(3) -0.2390(2) -0.95426(15)
Tb1A Tb 0.95048(2) -0.19602(2) -1.05944(2)
Tb1_2 Tb 1.04952(2) 0.19602(2) -0.94056(2)
Tb1_3 Tb 2.04952(2) 0.19602(2) -0.94056(2)
O11A O 1.0085(3) -0.26410(18) -1.18923(14)
O12A O 1.1359(3) -0.11295(19) -1.10673(15)
O9A O 0.8568(3) -0.10395(19) -1.13561(16)
O14 O 0.8637(8) 0.0423(5) 0.4778(4)
loop_
_geom_bond_atom_site_label_1
_geom_bond_atom_site_label_2
_geom_bond_site_symmetry_1
_geom_bond_site_symmetry_2
Tb1 O1 1_555 1_555
O1 C1 1_555 1_555
C1 O2 1_555 1_555
C2 C1 1_555 1_555
S1 C2 1_555 1_555
C3 C2 1_555 1_555
C4 S1 1_555 1_555
H1 C3 1_555 1_555
C5 C3 1_555 1_555
C6 C4 1_555 1_555
H2 C5 1_555 1_555
O3 C6 1_555 1_555
O4 C6 1_555 1_555
Tb2 O3 1_555 1_555
N1 Tb2 1_555 1_555
N2 Tb2 1_555 1_555
N3 Tb2 1_555 1_555
O5 Tb2 1_555 1_555
O6 Tb2 1_555 1_555
O7 Tb2 1_555 1_555
C7 N1 1_555 1_555
C8 N1 1_555 1_555
C9 N2 1_555 1_555
C10 N2 1_555 1_555
C11 N3 1_555 1_555
C12 N3 1_555 1_555
C13 O5 1_555 1_555
C14 O7 1_555 1_555
C15 C7 1_555 1_555
C16 C8 1_555 1_555
C17 C9 1_555 1_555
C18 C10 1_555 1_555
H3 C10 1_555 1_555
C19 C11 1_555 1_555
H4 C12 1_555 1_555
C20 C12 1_555 1_555
C21 C13 1_555 1_555
C22 C14 1_555 1_555
O8 C14 1_555 1_555
C23 C15 1_555 1_555
H5 C15 1_555 1_555
H6 C16 1_555 1_555
H7 C17 1_555 1_555
C24 C17 1_555 1_555
H8 C18 1_555 1_555
H9 C19 1_555 1_555
C25 C19 1_555 1_555
H10 C20 1_555 1_555
C26 C21 1_555 1_555
S2 C21 1_555 1_555
C27 C22 1_555 1_555
S3 C22 1_555 1_555
H11 C23 1_555 1_555
H12 C24 1_555 1_555
H13 C25 1_555 1_555
H14 C26 1_555 1_555
C28 C26 1_555 1_555
C29 S2 1_555 1_555
C30 C27 1_555 1_555
H15 C27 1_555 1_555
C31 S3 1_555 1_555
H16 C28 1_555 1_555
C32 C29 1_555 1_555
H17 C30 1_555 1_555
C33 C31 1_555 1_555
O9 C32 1_555 1_555
O10 C32 1_555 1_555
O11 C33 1_555 1_555
O12 C33 1_555 1_555
N4 C34 1_555 1_555
O13 Tb1A 1_555 1_555
N5 C36 1_555 1_555
N6 C38 1_555 1_555
C34 H18 1_555 1_555
C35 N4 1_555 1_555
C36 C38 1_555 1_555
C37 N5 1_555 1_555
C38 C44 1_555 1_555
C39 N6 1_555 1_555
C40 C34 1_555 1_555
C41 C35 1_555 1_555
C42 C36 1_555 1_555
C43 C37 1_555 1_555
C44 C48 1_555 1_555
H19 C39 1_555 1_555
C45 C39 1_555 1_555
C46 C40 1_555 1_555
H20 C40 1_555 1_555
H21 C41 1_555 1_555
C47 C42 1_555 1_555
H22 C42 1_555 1_555
H23 C43 1_555 1_555
C48 C45 1_555 1_555
H24 C44 1_555 1_555
H25 C45 1_555 1_555
H26 C46 1_555 1_555
H27 C47 1_555 1_555
H28 C48 1_555 1_555
O6A C13 1_555 1_555
Tb2A O6A 1_555 1_555
O1A Tb1A 1_555 1_555
Tb1A O10 1_555 1_555
Tb1_2 O9 1_555 1_555
Tb1_3 O11 1_555 1_555
O11A Tb1A 1_555 1_555
O12A Tb1A 1_555 1_555
O9A Tb1A 1_555 1_555
C4 C5 1_555 1_555
O4 Tb2 1_555 1_555
C7 C11 1_555 1_555
C8 C9 1_555 1_555
C16 C23 1_555 1_555
C18 C24 1_555 1_555
C20 C25 1_555 1_555
C28 C29 1_555 1_555
C30 C31 1_555 1_555
O12 Tb1_3 1_555 1_555
N4 Tb1A 1_555 1_555
N5 Tb1A 1_555 1_555
N6 Tb1A 1_555 1_555
C35 C37 1_555 1_555
C41 C46 1_555 1_555
C43 C47 1_555 1_555

#END
