
#######################################################################
#
#                 Cambridge Crystallographic Data Centre
#                                CCDC 
#
#######################################################################
#
# If this CIF has been generated from an entry in the Cambridge 
# Structural Database, then it will include bibliographic, chemical, 
# crystal, experimental, refinement or atomic coordinate data resulting 
# from the CCDC's data processing and validation procedures.
#
#######################################################################

data_JUJZAR
_symmetry_cell_setting           triclinic
_symmetry_space_group_name_H-M   'P -1'
_symmetry_Int_Tables_number      2
_space_group_name_Hall           '-P 1'
loop_
_symmetry_equiv_pos_site_id
_symmetry_equiv_pos_as_xyz
1 x,y,z
2 -x,-y,-z
_cell_length_a                   9.196(6)
_cell_length_b                   10.084(6)
_cell_length_c                   15.198(9)
_cell_angle_alpha                73.070(12)
_cell_angle_beta                 88.636(12)
_cell_angle_gamma                89.664(12)
_cell_volume                     1347.89
loop_
_atom_site_label
_atom_site_type_symbol
_atom_site_fract_x
_atom_site_fract_y
_atom_site_fract_z
Co1 Co 0.0000 0.5000 0.5000
Co2 Co -0.07767(8) 0.47573(6) 0.30255(4)
Co3 Co 0.16163(8) 0.06453(6) 0.56775(4)
P1 P -0.11813(15) 0.21450(11) 0.49449(7)
O1 O -0.1424(4) 0.1279(3) 0.4293(2)
O2 O -0.0571(4) 0.3544(3) 0.43766(18)
O3 O -0.0276(4) 0.1427(3) 0.57738(19)
O4 O -0.0825(4) 0.4061(3) 0.63527(19)
O5 O -0.2144(4) 0.2898(4) 0.7574(2)
O6 O -0.7418(4) 0.4236(3) 0.6674(2)
O7 O -0.8113(4) 0.3932(3) 0.5340(2)
O8 O -0.7381(4) 0.1644(3) 0.4534(2)
O9 O -0.6636(4) 0.3601(4) 0.3563(2)
O10 O -0.0052(5) 0.6166(5) 0.1793(2)
H1 H 0.0210 0.5430 0.1668
H2 H 0.0674 0.6573 0.1936
O11 O 0.0838(4) 0.3300(4) 0.2766(2)
H3 H 0.1563 0.3367 0.3086
H4 H 0.0256 0.2779 0.3157
N1 N 0.2978(5) 0.0420(4) 0.6737(3)
N2 N 0.5063(5) -0.0053(4) 0.7439(3)
N3 N 0.4268(5) -0.3408(4) 0.8318(3)
N4 N 0.2217(5) -0.3826(4) 0.7711(3)
C1 C -0.2908(5) 0.2571(4) 0.5366(3)
C2 C -0.3125(5) 0.3110(4) 0.6115(3)
C3 C -0.4554(5) 0.3461(4) 0.6311(3)
H5 H -0.4728 0.3752 0.6831
C4 C -0.5708(5) 0.3391(4) 0.5762(3)
C5 C -0.5490(5) 0.2890(4) 0.4996(3)
C6 C -0.4106(5) 0.2478(4) 0.4827(3)
H6 H -0.3955 0.2121 0.4332
C7 C -0.1929(6) 0.3364(4) 0.6718(3)
C8 C -0.7197(6) 0.3890(4) 0.5939(3)
C9 C -0.6608(6) 0.2745(4) 0.4329(3)
C10 C 0.4301(7) -0.0091(5) 0.6720(3)
H7 H 0.4657 -0.0438 0.6254
C11 C 0.2910(8) 0.0844(5) 0.7529(3)
H8 H 0.2115 0.1259 0.7731
C12 C 0.4192(8) 0.0550(6) 0.7955(3)
H9 H 0.4439 0.0725 0.8501
C13 C 0.6583(7) -0.0496(7) 0.7613(3)
H10 H 0.7216 0.0307 0.7413
H11 H 0.6843 -0.1121 0.7255
C14 C 0.6818(7) -0.1217(6) 0.8619(3)
C15 C 0.7453(8) -0.0473(6) 0.9131(4)
H12 H 0.7753 0.0434 0.8849
C16 C 0.7653(10) -0.1060(8) 1.0068(5)
H13 H 0.8078 -0.0540 1.0408
C17 C 0.7237(9) -0.2374(8) 1.0487(4)
H14 H 0.7372 -0.2766 1.1114
C18 C 0.6613(8) -0.3126(6) 0.9978(4)
H15 H 0.6322 -0.4032 1.0270
C19 C 0.6398(6) -0.2581(5) 0.9036(3)
C20 C 0.5823(7) -0.3528(6) 0.8523(4)
H16 H 0.6368 -0.3356 0.7946
H17 H 0.6016 -0.4477 0.8879
C21 C 0.3648(7) -0.3921(5) 0.7702(3)
H18 H 0.4171 -0.4307 0.7306
C22 C 0.3170(7) -0.2954(6) 0.8768(4)
H19 H 0.3262 -0.2550 0.9242
C23 C 0.1936(7) -0.3199(6) 0.8401(4)
H20 H 0.1014 -0.2980 0.8580
Co2A Co -0.92233(8) 0.52427(6) 0.69745(4)
Co3A Co -1.16163(8) 0.93547(6) 0.43225(4)
P1A P -0.88187(15) 0.78550(11) 0.50551(7)
O1A O -0.8576(4) 0.8721(3) 0.5707(2)
O2A O -0.9429(4) 0.6456(3) 0.56234(18)
O3A O -0.9724(4) 0.8573(3) 0.42262(19)
O4A O -0.9175(4) 0.5939(3) 0.36473(19)
O5A O -0.7856(4) 0.7102(4) 0.2426(2)
O6A O -0.2582(4) 0.5764(3) 0.3326(2)
O7A O -0.1887(4) 0.6068(3) 0.4660(2)
O8A O -0.2619(4) 0.8356(3) 0.5466(2)
O9A O -0.3364(4) 0.6399(4) 0.6437(2)
O10A O -0.9948(5) 0.3834(5) 0.8207(2)
H1A H -1.0210 0.4570 0.8332
H2A H -1.0674 0.3427 0.8064
O11A O -1.0838(4) 0.6700(4) 0.7234(2)
H3A H -1.1563 0.6633 0.6914
H4A H -1.0256 0.7221 0.6843
N1A N -1.2978(5) 0.9580(4) 0.3263(3)
N2A N -1.5063(5) 1.0053(4) 0.2561(3)
N3A N -1.4268(5) 1.3408(4) 0.1682(3)
N4A N -1.2217(5) 1.3826(4) 0.2289(3)
C1A C -0.7092(5) 0.7429(4) 0.4634(3)
C2A C -0.6875(5) 0.6890(4) 0.3885(3)
C3A C -0.5446(5) 0.6539(4) 0.3689(3)
H5A H -0.5272 0.6248 0.3169
C4A C -0.4292(5) 0.6609(4) 0.4238(3)
C5A C -0.4510(5) 0.7110(4) 0.5004(3)
C6A C -0.5894(5) 0.7522(4) 0.5173(3)
H6A H -0.6045 0.7879 0.5668
C7A C -0.8071(6) 0.6636(4) 0.3282(3)
C8A C -0.2803(6) 0.6110(4) 0.4061(3)
C9A C -0.3392(6) 0.7255(4) 0.5671(3)
C10A C -1.4301(7) 1.0091(5) 0.3280(3)
H7A H -1.4657 1.0438 0.3746
C11A C -1.2910(8) 0.9156(5) 0.2471(3)
H8A H -1.2115 0.8741 0.2269
C12A C -1.4192(8) 0.9450(6) 0.2045(3)
H9A H -1.4439 0.9275 0.1499
C13A C -1.6583(7) 1.0496(7) 0.2387(3)
H10A H -1.7216 0.9693 0.2587
H11A H -1.6843 1.1121 0.2745
C14A C -1.6818(7) 1.1217(6) 0.1381(3)
C15A C -1.7453(8) 1.0473(6) 0.0869(4)
H12A H -1.7753 0.9566 0.1151
C16A C -1.7653(10) 1.1060(8) -0.0068(5)
H13A H -1.8078 1.0540 -0.0408
C17A C -1.7237(9) 1.2374(8) -0.0487(4)
H14A H -1.7372 1.2766 -0.1114
C18A C -1.6613(8) 1.3126(6) 0.0022(4)
H15A H -1.6322 1.4032 -0.0270
C19A C -1.6398(6) 1.2581(5) 0.0964(3)
C20A C -1.5823(7) 1.3528(6) 0.1477(4)
H16A H -1.6368 1.3356 0.2054
H17A H -1.6016 1.4477 0.1121
C21A C -1.3648(7) 1.3921(5) 0.2298(3)
H18A H -1.4171 1.4307 0.2694
C22A C -1.3170(7) 1.2954(6) 0.1232(4)
H19A H -1.3262 1.2550 0.0758
C23A C -1.1936(7) 1.3199(6) 0.1599(4)
H20A H -1.1014 1.2980 0.1420
Co1_2 Co -1.0000 0.5000 0.5000
Co2_2 Co -1.07767(8) 0.47573(6) 0.30255(4)
Co2_3 Co -1.07767(8) 1.47573(6) 0.30255(4)
Co2A_2 Co 0.07767(8) -0.47573(6) 0.69745(4)
Co2A_3 Co 0.07767(8) 0.52427(6) 0.69745(4)
Co3_2 Co -0.83837(8) 0.06453(6) 0.56775(4)
Co3_3 Co -0.83837(8) 1.06453(6) 0.56775(4)
Co3A_2 Co -0.16163(8) -0.06453(6) 0.43225(4)
Co3A_3 Co -0.16163(8) 0.93547(6) 0.43225(4)
O1_2 O -1.1424(4) 1.1279(3) 0.4293(2)
O1A_2 O 0.1424(4) -0.1279(3) 0.5707(2)
O2A_2 O 0.0571(4) 0.6456(3) 0.56234(18)
O4_2 O -1.0825(4) 0.4061(3) 0.63527(19)
O4A_2 O 0.0825(4) 0.5939(3) 0.36473(19)
O7_2 O 0.1887(4) 0.3932(3) 0.5340(2)
O8_2 O 0.2619(4) 0.1644(3) 0.4534(2)
O8A_2 O -1.2619(4) 0.8356(3) 0.5466(2)
N4_2 N -0.7783(5) 0.6174(4) 0.7711(3)
N4A_2 N -0.2217(5) 0.3826(4) 0.2289(3)
loop_
_geom_bond_atom_site_label_1
_geom_bond_atom_site_label_2
_geom_bond_site_symmetry_1
_geom_bond_site_symmetry_2
Co1 O2 1_555 1_555
Co2 O2 1_555 1_555
Co3 O3 1_555 1_555
P1 O1 1_555 1_555
O1 Co3A_2 1_555 1_555
O2 P1 1_555 1_555
O3 P1 1_555 1_555
O4 Co1 1_555 1_555
O5 C7 1_555 1_555
O6 C8 1_555 1_555
O7 C8 1_555 1_555
O8 C9 1_555 1_555
O9 C9 1_555 1_555
O10 Co2 1_555 1_555
H1 O10 1_555 1_555
H2 O10 1_555 1_555
O11 Co2 1_555 1_555
H3 O11 1_555 1_555
H4 O11 1_555 1_555
N1 Co3 1_555 1_555
N2 C10 1_555 1_555
N3 C20 1_555 1_555
N4 C21 1_555 1_555
C1 P1 1_555 1_555
C2 C1 1_555 1_555
C3 C2 1_555 1_555
H5 C3 1_555 1_555
C4 C3 1_555 1_555
C5 C4 1_555 1_555
C6 C1 1_555 1_555
H6 C6 1_555 1_555
C7 O4 1_555 1_555
C8 C4 1_555 1_555
C9 C5 1_555 1_555
C10 N1 1_555 1_555
H7 C10 1_555 1_555
C11 N1 1_555 1_555
H8 C11 1_555 1_555
C12 N2 1_555 1_555
H9 C12 1_555 1_555
C13 N2 1_555 1_555
H10 C13 1_555 1_555
H11 C13 1_555 1_555
C14 C13 1_555 1_555
C15 C14 1_555 1_555
H12 C15 1_555 1_555
C16 C15 1_555 1_555
H13 C16 1_555 1_555
C17 C16 1_555 1_555
H14 C17 1_555 1_555
C18 C17 1_555 1_555
H15 C18 1_555 1_555
C19 C14 1_555 1_555
C20 C19 1_555 1_555
H16 C20 1_555 1_555
H17 C20 1_555 1_555
C21 N3 1_555 1_555
H18 C21 1_555 1_555
C22 N3 1_555 1_555
H19 C22 1_555 1_555
C23 N4 1_555 1_555
H20 C23 1_555 1_555
Co2A O6 1_555 1_555
Co3A O3A 1_555 1_555
P1A O1A 1_555 1_555
O1A Co3_3 1_555 1_555
O2A Co2A 1_555 1_555
O3A P1A 1_555 1_555
O4A C7A 1_555 1_555
O5A C7A 1_555 1_555
O6A Co2 1_555 1_555
O7A Co1 1_555 1_555
O8A C9A 1_555 1_555
O9A C9A 1_555 1_555
O10A Co2A 1_555 1_555
H1A O10A 1_555 1_555
H2A O10A 1_555 1_555
O11A Co2A 1_555 1_555
H3A O11A 1_555 1_555
H4A O11A 1_555 1_555
N1A Co3A 1_555 1_555
N2A C10A 1_555 1_555
N3A C20A 1_555 1_555
N4A C21A 1_555 1_555
C1A P1A 1_555 1_555
C2A C1A 1_555 1_555
C3A C2A 1_555 1_555
H5A C3A 1_555 1_555
C4A C3A 1_555 1_555
C5A C4A 1_555 1_555
C6A C1A 1_555 1_555
H6A C6A 1_555 1_555
C7A C2A 1_555 1_555
C8A O6A 1_555 1_555
C9A C5A 1_555 1_555
C10A N1A 1_555 1_555
H7A C10A 1_555 1_555
C11A N1A 1_555 1_555
H8A C11A 1_555 1_555
C12A N2A 1_555 1_555
H9A C12A 1_555 1_555
C13A N2A 1_555 1_555
H10A C13A 1_555 1_555
H11A C13A 1_555 1_555
C14A C13A 1_555 1_555
C15A C14A 1_555 1_555
H12A C15A 1_555 1_555
C16A C15A 1_555 1_555
H13A C16A 1_555 1_555
C17A C16A 1_555 1_555
H14A C17A 1_555 1_555
C18A C17A 1_555 1_555
H15A C18A 1_555 1_555
C19A C14A 1_555 1_555
C20A C19A 1_555 1_555
H16A C20A 1_555 1_555
H17A C20A 1_555 1_555
C21A N3A 1_555 1_555
H18A C21A 1_555 1_555
C22A N3A 1_555 1_555
H19A C22A 1_555 1_555
C23A N4A 1_555 1_555
H20A C23A 1_555 1_555
Co1_2 O7 1_555 1_555
Co2_2 O4A 1_555 1_555
Co2_3 N4A 1_555 1_555
Co2A_2 N4 1_555 1_555
Co2A_3 O4 1_555 1_555
Co3_2 O8 1_555 1_555
Co3A_3 O8A 1_555 1_555
O1_2 Co3A 1_555 1_555
O1A_2 Co3 1_555 1_555
O2A_2 Co1 1_555 1_555
O4_2 Co2A 1_555 1_555
O4A_2 Co1 1_555 1_555
O7_2 Co1 1_555 1_555
O8_2 Co3 1_555 1_555
O8A_2 Co3A 1_555 1_555
N4_2 Co2A 1_555 1_555
N4A_2 Co2 1_555 1_555
Co2 O4A_2 1_555 1_555
C2 C7 1_555 1_555
C5 C6 1_555 1_555
C11 C12 1_555 1_555
C18 C19 1_555 1_555
C22 C23 1_555 1_555
P1A O2A 1_555 1_555
O2A Co1_2 1_555 1_555
O4A Co1_2 1_555 1_555
O7A C8A 1_555 1_555
C4A C8A 1_555 1_555
C5A C6A 1_555 1_555
C11A C12A 1_555 1_555
C18A C19A 1_555 1_555
C22A C23A 1_555 1_555
Co1_2 O4_2 1_555 1_555
Co2A_3 O2A_2 1_555 1_555

#END
