
#######################################################################
#
#                 Cambridge Crystallographic Data Centre
#                                CCDC 
#
#######################################################################
#
# If this CIF has been generated from an entry in the Cambridge 
# Structural Database, then it will include bibliographic, chemical, 
# crystal, experimental, refinement or atomic coordinate data resulting 
# from the CCDC's data processing and validation procedures.
#
#######################################################################

data_JUKHII
_symmetry_cell_setting           monoclinic
_symmetry_space_group_name_H-M   'C 2/c'
_symmetry_Int_Tables_number      15
_space_group_name_Hall           '-C 2yn'
loop_
_symmetry_equiv_pos_site_id
_symmetry_equiv_pos_as_xyz
1 x,y,z
2 -x,y,1/2-z
3 1/2+x,1/2+y,z
4 1/2-x,1/2+y,1/2-z
5 -x,-y,-z
6 x,-y,1/2+z
7 1/2-x,1/2-y,-z
8 1/2+x,1/2-y,1/2+z
_cell_length_a                   20.719(5)
_cell_length_b                   11.962
_cell_length_c                   38.552(8)
_cell_angle_alpha                90
_cell_angle_beta                 90.00
_cell_angle_gamma                90
_cell_volume                     9554.75
loop_
_atom_site_label
_atom_site_type_symbol
_atom_site_fract_x
_atom_site_fract_y
_atom_site_fract_z
C1 C 0.44717(17) 0.3477(3) 0.29038(10)
C2 C 0.41496(16) 0.2714(3) 0.31686(10)
H1 H 0.4440 0.2098 0.3218
H2 H 0.4091 0.3130 0.3382
C3 C 0.30216(16) 0.2976(3) 0.30478(9)
C4 C 0.30321(17) 0.4115(3) 0.31218(9)
H3 H 0.3419 0.4466 0.3179
C5 C 0.24629(17) 0.4724(3) 0.31099(9)
H4 H 0.2473 0.5483 0.3163
C6 C 0.18790(16) 0.4235(3) 0.30211(9)
C7 C 0.18826(17) 0.3097(3) 0.29333(9)
H5 H 0.1501 0.2752 0.2864
C8 C 0.24450(17) 0.2486(3) 0.29485(10)
H6 H 0.2438 0.1731 0.2891
C9 C 0.12668(16) 0.4986(3) 0.30163(9)
C10 C 0.06454(18) 0.4280(4) 0.30200(11)
C11 C 0.1290(2) 0.5673(4) 0.26770(11)
C12 C 0.12242(16) 0.5733(3) 0.33446(9)
C13 C 0.13711(17) 0.5254(3) 0.36642(9)
H7 H 0.1536 0.4531 0.3670
C14 C 0.12802(18) 0.5819(4) 0.39725(10)
H8 H 0.1383 0.5477 0.4182
C15 C 0.10348(19) 0.6899(4) 0.39690(11)
C16 C 0.08885(19) 0.7385(3) 0.36537(11)
H9 H 0.0727 0.8111 0.3648
C17 C 0.09778(18) 0.6810(3) 0.33449(10)
H10 H 0.0871 0.7151 0.3136
C18 C 0.1061(2) 0.7046(4) 0.45835(12)
H11 H 0.1039 0.7625 0.4759
H12 H 0.1503 0.6779 0.4577
C19 C 0.0636(2) 0.6090(4) 0.46978(11)
C20 C 0.45099(19) 0.6480(3) 0.28772(10)
C21 C 0.42764(18) 0.7485(3) 0.30881(10)
H13 H 0.4596 0.7658 0.3264
H14 H 0.4242 0.8127 0.2936
C22 C 0.36672(17) 0.6625(3) 0.35389(10)
C23 C 0.41933(18) 0.6011(3) 0.36517(10)
H15 H 0.4587 0.6072 0.3538
C24 C 0.41319(19) 0.5301(3) 0.39356(10)
H16 H 0.4487 0.4889 0.4009
C25 C 0.35513(19) 0.5196(4) 0.41124(10)
C26 C 0.30292(18) 0.5832(3) 0.39986(10)
H17 H 0.2636 0.5771 0.4113
C27 C 0.30841(18) 0.6550(3) 0.37193(10)
H18 H 0.2733 0.6983 0.3652
C28 C 0.3436(2) 0.4386(4) 0.44205(10)
C29 C 0.3986(2) 0.3513(5) 0.44607(13)
C30 C 0.3410(3) 0.5124(5) 0.47531(13)
C31 C 0.28053(19) 0.3726(3) 0.43592(10)
C32 C 0.2707(2) 0.3275(3) 0.40324(10)
H19 H 0.3018 0.3383 0.3862
C33 C 0.2165(2) 0.2676(3) 0.39549(10)
H20 H 0.2113 0.2377 0.3734
C34 C 0.1690(2) 0.2510(3) 0.42049(11)
C35 C 0.1771(2) 0.2959(4) 0.45320(11)
H21 H 0.1454 0.2862 0.4700
C36 C 0.2327(2) 0.3555(4) 0.46080(10)
H22 H 0.2382 0.3848 0.4830
C37 C 0.0642(2) 0.1786(4) 0.43377(12)
H23 H 0.0803 0.1524 0.4560
H24 H 0.0345 0.1227 0.4250
C38 C 0.0283(2) 0.2864(4) 0.43923(13)
C39 C 0.36905(17) 0.5187(3) 0.16538(10)
H25 H 0.4080 0.5513 0.1590
C40 C 0.32122(17) 0.5107(3) 0.14085(10)
H26 H 0.3284 0.5358 0.1183
C41 C 0.26222(17) 0.4650(3) 0.15002(9)
C42 C 0.25515(17) 0.4250(3) 0.18352(9)
H27 H 0.2165 0.3924 0.1905
C43 C 0.30592(17) 0.4341(3) 0.20648(9)
H28 H 0.3009 0.4061 0.2288
C44 C 0.20871(18) 0.4622(3) 0.12423(10)
C45 C 0.2210(2) 0.4414(4) 0.08942(11)
H29 H 0.2628 0.4266 0.0819
C46 C 0.1708(2) 0.4430(5) 0.06619(11)
H30 H 0.1797 0.4286 0.0430
C47 C 0.0982(2) 0.4831(4) 0.10888(11)
H31 H 0.0558 0.4963 0.1157
C48 C 0.14571(18) 0.4841(4) 0.13367(10)
H32 H 0.1355 0.4994 0.1567
F1 F 0.17367(11) 0.6475(2) 0.26942(6)
F2 F 0.14400(13) 0.5026(2) 0.24024(6)
F3 F 0.07277(12) 0.6164(2) 0.26018(6)
F4 F 0.05454(10) 0.3722(2) 0.27215(6)
F5 F 0.06566(10) 0.35247(19) 0.32750(6)
F6 F 0.01135(10) 0.4909(2) 0.30722(7)
F7 F 0.38271(14) 0.2725(3) 0.46947(8)
F8 F 0.45378(14) 0.3957(3) 0.45661(8)
F9 F 0.41075(13) 0.2977(2) 0.41646(7)
F10 F 0.33961(14) 0.4521(3) 0.50490(7)
F11 F 0.39269(15) 0.5787(3) 0.47708(7)
F12 F 0.28867(15) 0.5773(2) 0.47586(7)
N1 N 0.36263(13) 0.4823(2) 0.19775(7)
N2 N 0.11012(16) 0.4640(3) 0.07520(9)
O1 O 0.49953(11) 0.3915(2) 0.30027(6)
O2 O 0.42033(11) 0.3625(2) 0.26191(6)
O3 O 0.35450(11) 0.2268(2) 0.30671(7)
O4 O 0.09178(15) 0.7538(3) 0.42593(8)
O5 O 0.08367(14) 0.5520(3) 0.49507(8)
O6 O 0.01171(14) 0.5934(3) 0.45398(7)
O7 O 0.41152(12) 0.5987(2) 0.26904(7)
O8 O 0.51078(12) 0.6253(2) 0.29041(6)
O9 O 0.36661(11) 0.7307(2) 0.32536(6)
O10 O 0.11664(14) 0.1887(2) 0.41042(8)
O11 O 0.03296(17) 0.3632(3) 0.41848(11)
O12 O -0.00674(16) 0.2929(3) 0.46551(8)
Zn1 Zn 0.440016(18) 0.49183(3) 0.229722(11)
Zn2 Zn 0.03640(2) 0.45368(5) 0.040527(12)
O1A O 0.50047(11) 0.3915(2) 0.19973(6)
O5E O 0.08367(14) 0.4480(3) -0.00493(8)
O6A O -0.01171(14) 0.5934(3) 0.04602(7)
O8A O 0.48922(12) 0.6253(2) 0.20959(6)
O11A O -0.03296(17) 0.3632(3) 0.08152(11)
O12A O 0.00674(16) 0.2929(3) 0.03449(8)
Zn1A Zn 0.559984(18) 0.49183(3) 0.270278(11)
Zn2A Zn -0.03640(2) 0.45368(5) 0.459473(12)
Zn2E Zn 0.03640(2) 0.54632(5) 0.540527(12)
loop_
_geom_bond_atom_site_label_1
_geom_bond_atom_site_label_2
_geom_bond_site_symmetry_1
_geom_bond_site_symmetry_2
C1 C2 1_555 1_555
C2 H1 1_555 1_555
H2 C2 1_555 1_555
C3 C4 1_555 1_555
C4 H3 1_555 1_555
C5 C4 1_555 1_555
H4 C5 1_555 1_555
C6 C5 1_555 1_555
C7 C6 1_555 1_555
H5 C7 1_555 1_555
C8 C3 1_555 1_555
H6 C8 1_555 1_555
C9 C6 1_555 1_555
C10 C9 1_555 1_555
C11 C9 1_555 1_555
C12 C9 1_555 1_555
C13 C12 1_555 1_555
H7 C13 1_555 1_555
C14 C13 1_555 1_555
H8 C14 1_555 1_555
C15 C14 1_555 1_555
C16 C15 1_555 1_555
H9 C16 1_555 1_555
C17 C12 1_555 1_555
H10 C17 1_555 1_555
C18 H11 1_555 1_555
H12 C18 1_555 1_555
C19 C18 1_555 1_555
C20 C21 1_555 1_555
C21 H13 1_555 1_555
H14 C21 1_555 1_555
C22 C23 1_555 1_555
C23 H15 1_555 1_555
C24 C23 1_555 1_555
H16 C24 1_555 1_555
C25 C24 1_555 1_555
C26 C25 1_555 1_555
H17 C26 1_555 1_555
C27 C22 1_555 1_555
H18 C27 1_555 1_555
C28 C25 1_555 1_555
C29 C28 1_555 1_555
C30 C28 1_555 1_555
C31 C28 1_555 1_555
C32 C31 1_555 1_555
H19 C32 1_555 1_555
C33 C32 1_555 1_555
H20 C33 1_555 1_555
C34 C33 1_555 1_555
C35 C34 1_555 1_555
H21 C35 1_555 1_555
C36 C31 1_555 1_555
H22 C36 1_555 1_555
C37 H23 1_555 1_555
H24 C37 1_555 1_555
C38 C37 1_555 1_555
C39 H25 1_555 1_555
C40 C39 1_555 1_555
H26 C40 1_555 1_555
C41 C40 1_555 1_555
C42 C41 1_555 1_555
H27 C42 1_555 1_555
C43 C42 1_555 1_555
H28 C43 1_555 1_555
C44 C41 1_555 1_555
C45 C44 1_555 1_555
H29 C45 1_555 1_555
C46 C45 1_555 1_555
H30 C46 1_555 1_555
C47 H31 1_555 1_555
C48 C44 1_555 1_555
H32 C48 1_555 1_555
F1 C11 1_555 1_555
F2 C11 1_555 1_555
F3 C11 1_555 1_555
F4 C10 1_555 1_555
F5 C10 1_555 1_555
F6 C10 1_555 1_555
F7 C29 1_555 1_555
F8 C29 1_555 1_555
F9 C29 1_555 1_555
F10 C30 1_555 1_555
F11 C30 1_555 1_555
F12 C30 1_555 1_555
N1 C39 1_555 1_555
N2 C46 1_555 1_555
O1 C1 1_555 1_555
O2 C1 1_555 1_555
O3 C2 1_555 1_555
O4 C15 1_555 1_555
O5 C19 1_555 1_555
O6 C19 1_555 1_555
O7 C20 1_555 1_555
O8 C20 1_555 1_555
O9 C21 1_555 1_555
O10 C34 1_555 1_555
O11 C38 1_555 1_555
O12 C38 1_555 1_555
Zn1 N1 1_555 1_555
Zn2 N2 1_555 1_555
O1A Zn1 1_555 1_555
O5E Zn2 1_555 1_555
O6A Zn2 1_555 1_555
O8A Zn1 1_555 1_555
O11A Zn2 1_555 1_555
O12A Zn2 1_555 1_555
Zn1A O1 1_555 1_555
Zn2A O6 1_555 1_555
Zn2E O5 1_555 1_555
C3 O3 1_555 1_555
C7 C8 1_555 1_555
C16 C17 1_555 1_555
C18 O4 1_555 1_555
C22 O9 1_555 1_555
C26 C27 1_555 1_555
C35 C36 1_555 1_555
C37 O10 1_555 1_555
C43 N1 1_555 1_555
C47 C48 1_555 1_555
C47 N2 1_555 1_555
O2 Zn1 1_555 1_555
O7 Zn1 1_555 1_555
O8 Zn1A 1_555 1_555
O11 Zn2A 1_555 1_555
O12 Zn2A 1_555 1_555

#END
