
#######################################################################
#
#                 Cambridge Crystallographic Data Centre
#                                CCDC 
#
#######################################################################
#
# If this CIF has been generated from an entry in the Cambridge 
# Structural Database, then it will include bibliographic, chemical, 
# crystal, experimental, refinement or atomic coordinate data resulting 
# from the CCDC's data processing and validation procedures.
#
#######################################################################

data_JUKMOT
_symmetry_cell_setting           monoclinic
_symmetry_space_group_name_H-M   'C 2'
_symmetry_Int_Tables_number      5
_space_group_name_Hall           'C 2y'
loop_
_symmetry_equiv_pos_site_id
_symmetry_equiv_pos_as_xyz
1 x,y,z
2 -x,y,-z
3 1/2+x,1/2+y,z
4 1/2-x,1/2+y,-z
_cell_length_a                   13.879(8)
_cell_length_b                   20.293(12)
_cell_length_c                   7.841(5)
_cell_angle_alpha                90
_cell_angle_beta                 117.282(10)
_cell_angle_gamma                90
_cell_volume                     1962.73
loop_
_atom_site_label
_atom_site_type_symbol
_atom_site_fract_x
_atom_site_fract_y
_atom_site_fract_z
Ca1 Ca 0.0000 0.12427(15) 0.0000
Ca2 Ca 0.0000 0.18776(15) 0.5000
O1 O 0.1259(5) 0.0565(4) -0.0445(10)
H1 H 0.192(4) 0.054(5) 0.022(11)
H2 H 0.116(7) 0.067(7) -0.153(8)
O2 O 0.1056(5) 0.2577(4) 0.4064(10)
H3 H 0.169(4) 0.264(6) 0.488(11)
H4 H 0.105(7) 0.249(6) 0.304(8)
O3 O 0.0804(5) 0.1096(3) 0.3241(9)
O4 O 0.1437(5) 0.0998(3) 0.6381(9)
O5 O 0.1367(5) 0.2240(4) -0.1979(10)
O6 O 0.1174(5) 0.2130(4) 0.0682(10)
N1 N 0.3476(6) 0.0883(4) 0.6772(12)
H5 H 0.349(8) 0.1342(18) 0.669(13)
H6 H 0.410(5) 0.070(5) 0.676(13)
H7 H 0.359(7) 0.078(5) 0.801(7)
N2 N 0.3593(6) 0.2377(4) 0.0646(12)
H8 H 0.348(7) 0.240(5) -0.062(6)
H9 H 0.358(7) 0.192(2) 0.090(13)
H10 H 0.424(5) 0.255(5) 0.162(10)
C1 C 0.1521(7) 0.0916(5) 0.4872(15)
C2 C 0.2555(7) 0.0591(5) 0.5048(13)
H11 H 0.2644 0.0700 0.3884
C3 C 0.2535(8) -0.0170(5) 0.5243(16)
H12 H 0.2526 -0.0273 0.6483
C4 C 0.1500(8) -0.0452(5) 0.3603(15)
H13 H 0.1475 -0.0336 0.2370
H14 H 0.0865 -0.0268 0.3667
H15 H 0.1498 -0.0933 0.3723
C5 C 0.3537(8) -0.0488(5) 0.5279(16)
H16 H 0.3498 -0.0967 0.5393
H17 H 0.4187 -0.0320 0.6377
H18 H 0.3572 -0.0383 0.4088
C6 C 0.1663(8) 0.2332(5) -0.0258(16)
C7 C 0.2719(7) 0.2719(5) 0.0886(14)
H19 H 0.2897 0.2712 0.2275
C8 C 0.2613(9) 0.3429(5) 0.0229(17)
H20 H 0.2518 0.3434 -0.1114
C9 C 0.3635(8) 0.3822(6) 0.1493(18)
H21 H 0.3718 0.3846 0.2802
H22 H 0.3572 0.4269 0.0976
H23 H 0.4269 0.3604 0.1510
C10 C 0.1610(8) 0.3753(5) 0.0225(16)
H24 H 0.0954 0.3527 -0.0705
H25 H 0.1579 0.4218 -0.0130
H26 H 0.1657 0.3718 0.1508
O1A O -0.1259(5) 0.0565(4) 0.0445(10)
H1A H -0.192(4) 0.054(5) -0.022(11)
H2A H -0.116(7) 0.067(7) 0.153(8)
O3A O -0.0804(5) 0.1096(3) -0.3241(9)
O4A O -0.1437(5) 0.0998(3) -0.6381(9)
O5A O -0.1367(5) 0.2240(4) 0.1979(10)
O6A O -0.1174(5) 0.2130(4) -0.0682(10)
N1A N -0.3476(6) 0.0883(4) -0.6772(12)
H5A H -0.349(8) 0.1342(18) -0.669(13)
H6A H -0.410(5) 0.070(5) -0.676(13)
H7A H -0.359(7) 0.078(5) -0.801(7)
N2A N -0.3593(6) 0.2377(4) -0.0646(12)
H8A H -0.348(7) 0.240(5) 0.062(6)
H9A H -0.358(7) 0.192(2) -0.090(13)
H10A H -0.424(5) 0.255(5) -0.162(10)
C1A C -0.1521(7) 0.0916(5) -0.4872(15)
C2A C -0.2555(7) 0.0591(5) -0.5048(13)
H11A H -0.2644 0.0700 -0.3884
C3A C -0.2535(8) -0.0170(5) -0.5243(16)
H12A H -0.2526 -0.0273 -0.6483
C4A C -0.1500(8) -0.0452(5) -0.3603(15)
H13A H -0.1475 -0.0336 -0.2370
H14A H -0.0865 -0.0268 -0.3667
H15A H -0.1498 -0.0933 -0.3723
C5A C -0.3537(8) -0.0488(5) -0.5279(16)
H16A H -0.3498 -0.0967 -0.5393
H17A H -0.4187 -0.0320 -0.6377
H18A H -0.3572 -0.0383 -0.4088
C6A C -0.1663(8) 0.2332(5) 0.0258(16)
C7A C -0.2719(7) 0.2719(5) -0.0886(14)
H19A H -0.2897 0.2712 -0.2275
C8A C -0.2613(9) 0.3429(5) -0.0229(17)
H20A H -0.2518 0.3434 0.1114
C9A C -0.3635(8) 0.3822(6) -0.1493(18)
H21A H -0.3718 0.3846 -0.2802
H22A H -0.3572 0.4269 -0.0976
H23A H -0.4269 0.3604 -0.1510
C10A C -0.1610(8) 0.3753(5) -0.0225(16)
H24A H -0.0954 0.3527 0.0705
H25A H -0.1579 0.4218 0.0130
H26A H -0.1657 0.3718 -0.1508
O2A O -0.1056(5) 0.2577(4) 0.5936(10)
H3A H -0.169(4) 0.264(6) 0.512(11)
H4A H -0.105(7) 0.249(6) 0.696(8)
Ca2_2 Ca 0.0000 0.18776(15) -0.5000
O3A_2 O -0.0804(5) 0.1096(3) 0.6759(9)
O4A_2 O -0.1437(5) 0.0998(3) 0.3619(9)
O5_2 O 0.1367(5) 0.2240(4) 0.8021(10)
Br1 Br 0.37523(7) 0.25158(4) 0.65116(15)
Br2 Br 0.38662(7) 0.07462(4) 0.14302(15)
loop_
_geom_bond_atom_site_label_1
_geom_bond_atom_site_label_2
_geom_bond_site_symmetry_1
_geom_bond_site_symmetry_2
Ca1 O1 1_555 1_555
Ca2 O2 1_555 1_555
O1 H1 1_555 1_555
H2 O1 1_555 1_555
O2 H3 1_555 1_555
H4 O2 1_555 1_555
O3 Ca1 1_555 1_555
O4 Ca2 1_555 1_555
O5 C6 1_555 1_555
O6 Ca1 1_555 1_555
N1 H5 1_555 1_555
H6 N1 1_555 1_555
H7 N1 1_555 1_555
N2 H8 1_555 1_555
H9 N2 1_555 1_555
H10 N2 1_555 1_555
C1 O3 1_555 1_555
C2 N1 1_555 1_555
H11 C2 1_555 1_555
C3 C2 1_555 1_555
H12 C3 1_555 1_555
C4 C3 1_555 1_555
H13 C4 1_555 1_555
H14 C4 1_555 1_555
H15 C4 1_555 1_555
C5 C3 1_555 1_555
H16 C5 1_555 1_555
H17 C5 1_555 1_555
H18 C5 1_555 1_555
C6 O6 1_555 1_555
C7 N2 1_555 1_555
H19 C7 1_555 1_555
C8 C7 1_555 1_555
H20 C8 1_555 1_555
C9 C8 1_555 1_555
H21 C9 1_555 1_555
H22 C9 1_555 1_555
H23 C9 1_555 1_555
C10 C8 1_555 1_555
H24 C10 1_555 1_555
H25 C10 1_555 1_555
H26 C10 1_555 1_555
O1A Ca1 1_555 1_555
H1A O1A 1_555 1_555
H2A O1A 1_555 1_555
O3A Ca1 1_555 1_555
O4A C1A 1_555 1_555
O5A Ca2 1_555 1_555
O6A Ca1 1_555 1_555
N1A H5A 1_555 1_555
H6A N1A 1_555 1_555
H7A N1A 1_555 1_555
N2A H8A 1_555 1_555
H9A N2A 1_555 1_555
H10A N2A 1_555 1_555
C1A O3A 1_555 1_555
C2A N1A 1_555 1_555
H11A C2A 1_555 1_555
C3A C2A 1_555 1_555
H12A C3A 1_555 1_555
C4A C3A 1_555 1_555
H13A C4A 1_555 1_555
H14A C4A 1_555 1_555
H15A C4A 1_555 1_555
C5A C3A 1_555 1_555
H16A C5A 1_555 1_555
H17A C5A 1_555 1_555
H18A C5A 1_555 1_555
C6A O5A 1_555 1_555
C7A N2A 1_555 1_555
H19A C7A 1_555 1_555
C8A C7A 1_555 1_555
H20A C8A 1_555 1_555
C9A C8A 1_555 1_555
H21A C9A 1_555 1_555
H22A C9A 1_555 1_555
H23A C9A 1_555 1_555
C10A C8A 1_555 1_555
H24A C10A 1_555 1_555
H25A C10A 1_555 1_555
H26A C10A 1_555 1_555
O2A Ca2 1_555 1_555
H3A O2A 1_555 1_555
H4A O2A 1_555 1_555
Ca2_2 O5 1_555 1_555
O3A_2 Ca2 1_555 1_555
O4A_2 Ca2 1_555 1_555
O5_2 Ca2 1_555 1_555
Ca2 O3 1_555 1_555
O4 C1 1_555 1_555
C1 C2 1_555 1_555
C6 C7 1_555 1_555
O3A Ca2_2 1_555 1_555
O4A Ca2_2 1_555 1_555
O6A C6A 1_555 1_555
C1A C2A 1_555 1_555
C6A C7A 1_555 1_555

#END
