
#######################################################################
#
#                 Cambridge Crystallographic Data Centre
#                                CCDC 
#
#######################################################################
#
# If this CIF has been generated from an entry in the Cambridge 
# Structural Database, then it will include bibliographic, chemical, 
# crystal, experimental, refinement or atomic coordinate data resulting 
# from the CCDC's data processing and validation procedures.
#
#######################################################################

data_JUKRIS
_symmetry_cell_setting           orthorhombic
_symmetry_space_group_name_H-M   'P 21 21 21'
_symmetry_Int_Tables_number      19
_space_group_name_Hall           'P 2ac 2ab'
loop_
_symmetry_equiv_pos_site_id
_symmetry_equiv_pos_as_xyz
1 x,y,z
2 1/2-x,-y,1/2+z
3 1/2+x,1/2-y,-z
4 -x,1/2+y,1/2-z
_cell_length_a                   8.0223(8)
_cell_length_b                   12.7990(11)
_cell_length_c                   17.4230(14)
_cell_angle_alpha                90
_cell_angle_beta                 90
_cell_angle_gamma                90
_cell_volume                     1788.95
loop_
_atom_site_label
_atom_site_type_symbol
_atom_site_fract_x
_atom_site_fract_y
_atom_site_fract_z
Mn1 Mn 0.80743(8) 0.42259(5) 0.30561(4)
O1 O 1.0543(4) 0.4152(3) 0.25760(17)
O2 O 1.4029(4) 0.3021(2) 0.22535(18)
O3 O 1.5741(4) 0.4430(2) 0.36011(17)
O4 O 1.2180(4) 0.5401(3) 0.40004(18)
O5 O 0.8891(4) 0.5439(3) 0.3786(2)
H1 H 0.986(2) 0.553(4) 0.392(3)
H2 H 0.829(5) 0.593(3) 0.391(3)
N1 N 0.7741(5) 0.2799(3) 0.2296(2)
H3 H 0.665(3) 0.258(4) 0.234(3)
N2 N 0.6963(5) 0.4821(3) 0.1963(2)
N3 N 0.8681(5) 0.2829(3) 0.3763(2)
C1 C 0.5855(6) 0.4271(5) 0.0759(3)
H4 H 0.5828 0.3770 0.0357
C2 C 0.6066(6) 0.5692(4) 0.1900(3)
H5 H 0.6155 0.6202 0.2294
C3 C 0.5015(6) 0.5891(4) 0.1293(3)
H6 H 0.4376 0.6515 0.1273
C4 C 0.4915(6) 0.5162(4) 0.0717(3)
H7 H 0.4198 0.5276 0.0291
C5 C 0.6839(6) 0.4116(4) 0.1396(2)
C6 C 0.7860(6) 0.3145(3) 0.1505(3)
H8 H 0.7449 0.2588 0.1159
H9 H 0.9039 0.3289 0.1374
C7 C 0.8888(7) 0.1997(4) 0.2533(3)
H10 H 0.9997 0.2136 0.2304
H11 H 0.8496 0.1312 0.2341
C8 C 0.9043(6) 0.1957(4) 0.3387(3)
C9 C 0.9544(6) 0.1056(4) 0.3774(3)
H12 H 0.9800 0.0440 0.3494
C10 C 0.9266(7) 0.1971(4) 0.4934(3)
H13 H 0.9328 0.1999 0.5478
C11 C 0.9666(6) 0.1061(4) 0.4548(3)
H14 H 1.0017 0.0455 0.4819
C12 C 0.8784(6) 0.2821(4) 0.4528(3)
H15 H 0.8508 0.3440 0.4800
C13 C 1.1973(6) 0.4189(4) 0.2875(2)
C14 C 1.3542(6) 0.3695(3) 0.2717(3)
C15 C 1.4320(5) 0.4325(4) 0.3328(2)
C16 C 1.2689(6) 0.4769(4) 0.3507(3)
Mn1_2 Mn 1.80743(8) 0.42259(5) 0.30561(4)
O3_2 O 0.5741(4) 0.4430(2) 0.36011(17)
O6 O 0.4273(5) 0.6544(3) 0.4958(2)
H16 H 0.382(6) 0.621(4) 0.461(2)
H17 H 0.514(4) 0.680(4) 0.478(3)
O7 O 0.2779(4) 0.2250(3) 0.08737(19)
H18 H 0.295(7) 0.251(4) 0.1296(14)
H19 H 0.218(6) 0.257(4) 0.058(2)
loop_
_geom_bond_atom_site_label_1
_geom_bond_atom_site_label_2
_geom_bond_site_symmetry_1
_geom_bond_site_symmetry_2
Mn1 O1 1_555 1_555
O1 C13 1_555 1_555
O2 C14 1_555 1_555
O3 C15 1_555 1_555
O4 C16 1_555 1_555
O5 Mn1 1_555 1_555
H1 O5 1_555 1_555
H2 O5 1_555 1_555
N1 Mn1 1_555 1_555
H3 N1 1_555 1_555
N2 Mn1 1_555 1_555
N3 Mn1 1_555 1_555
C1 H4 1_555 1_555
C2 N2 1_555 1_555
H5 C2 1_555 1_555
C3 C2 1_555 1_555
H6 C3 1_555 1_555
C4 C1 1_555 1_555
H7 C4 1_555 1_555
C5 N2 1_555 1_555
C6 N1 1_555 1_555
H8 C6 1_555 1_555
H9 C6 1_555 1_555
C7 N1 1_555 1_555
H10 C7 1_555 1_555
H11 C7 1_555 1_555
C8 N3 1_555 1_555
C9 C8 1_555 1_555
H12 C9 1_555 1_555
C10 H13 1_555 1_555
C11 C9 1_555 1_555
H14 C11 1_555 1_555
C12 N3 1_555 1_555
H15 C12 1_555 1_555
C13 C14 1_555 1_555
C14 C15 1_555 1_555
C15 C16 1_555 1_555
C16 C13 1_555 1_555
O6 H16 1_555 1_555
H17 O6 1_555 1_555
O7 H18 1_555 1_555
H19 O7 1_555 1_555
Mn1_2 O3 1_555 1_555
O3_2 Mn1 1_555 1_555
C1 C5 1_555 1_555
C3 C4 1_555 1_555
C5 C6 1_555 1_555
C7 C8 1_555 1_555
C10 C11 1_555 1_555
C10 C12 1_555 1_555

#END
