
#######################################################################
#
#                 Cambridge Crystallographic Data Centre
#                                CCDC 
#
#######################################################################
#
# If this CIF has been generated from an entry in the Cambridge 
# Structural Database, then it will include bibliographic, chemical, 
# crystal, experimental, refinement or atomic coordinate data resulting 
# from the CCDC's data processing and validation procedures.
#
#######################################################################

data_JUKXIW01
_symmetry_cell_setting           monoclinic
_symmetry_space_group_name_H-M   'C c'
_symmetry_Int_Tables_number      9
_space_group_name_Hall           'C -2yc'
loop_
_symmetry_equiv_pos_site_id
_symmetry_equiv_pos_as_xyz
1 x,y,z
2 x,-y,1/2+z
3 1/2+x,1/2+y,z
4 1/2+x,1/2-y,1/2+z
_cell_length_a                   12.0137(2)
_cell_length_b                   22.3435(4)
_cell_length_c                   7.77380(10)
_cell_angle_alpha                90.00
_cell_angle_beta                 123.5090(10)
_cell_angle_gamma                90.00
_cell_volume                     1739.89
loop_
_atom_site_label
_atom_site_type_symbol
_atom_site_fract_x
_atom_site_fract_y
_atom_site_fract_z
Cd1 Cd 0.97229(9) 0.888081(11) 0.75148(11)
O1 O 0.7478(5) 0.8991(2) 0.6421(9)
O2 O 0.8644(5) 0.9802(2) 0.6911(11)
C1 C 0.7568(7) 0.9544(3) 0.6429(11)
C2 C 0.5219(6) 0.9692(3) 0.5216(10)
H1 H 0.5155 0.9268 0.5193
C3 C 0.6383(7) 0.9922(3) 0.5842(13)
H2 H 0.6480 1.0345 0.5926
N1 N 0.1604(6) 1.0651(3) 0.3210(10)
C4 C 0.2814(7) 1.0931(3) 0.4300(12)
H3 H 0.2840 1.1343 0.4620
C5 C 0.3986(6) 1.0038(3) 0.4539(10)
C6 C 0.1598(6) 1.0061(3) 0.2839(11)
H4 H 0.0773 0.9852 0.2120
C7 C 0.2775(6) 0.9750(3) 0.3486(12)
H5 H 0.2737 0.9335 0.3193
C8 C 0.3997(7) 1.0645(3) 0.4956(11)
H6 H 0.4816 1.0859 0.5688
C9 C 1.0852(9) 0.8234(5) 1.1004(12)
O3 O 1.0564(7) 0.8761(3) 1.0932(10)
O4 O 1.0665(8) 0.7956(3) 0.9450(11)
C10 C 1.1556(10) 0.7956(4) 1.3143(13)
H7 H 1.1655 0.8192 1.4234
N2 N 1.3979(8) 0.6602(3) 1.9507(10)
C11 C 1.3615(7) 0.6297(4) 1.7799(12)
H8 H 1.3806 0.5880 1.7919
C12 C 1.2983(8) 0.6551(4) 1.5885(12)
H9 H 1.2746 0.6315 1.4714
C13 C 1.2689(10) 0.7163(4) 1.5665(12)
C14 C 1.3063(17) 0.7473(5) 1.7467(17)
H10 H 1.2838 0.7884 1.7394
C15 C 1.3754(14) 0.7188(4) 1.9343(14)
H11 H 1.4082 0.7417 2.0562
C16 C 1.2027(12) 0.7419(5) 1.3569(14)
H12 H 1.1945 0.7179 1.2496
N1A N 1.1604(6) 0.9349(3) 0.8210(10)
N2C N 0.8979(8) 0.8398(3) 0.4507(10)
Cd1A Cd -0.02771(9) 1.111919(11) 0.25148(11)
Cd1C Cd 1.47229(9) 0.611919(11) 2.25148(11)
O5 O 1.0309(11) 0.6733(3) 0.8223(13)
loop_
_geom_bond_atom_site_label_1
_geom_bond_atom_site_label_2
_geom_bond_site_symmetry_1
_geom_bond_site_symmetry_2
Cd1 O1 1_555 1_555
O1 C1 1_555 1_555
O2 Cd1 1_555 1_555
C1 O2 1_555 1_555
C2 H1 1_555 1_555
C3 C1 1_555 1_555
H2 C3 1_555 1_555
N1 C4 1_555 1_555
C4 H3 1_555 1_555
C5 C2 1_555 1_555
C6 N1 1_555 1_555
H4 C6 1_555 1_555
C7 C5 1_555 1_555
H5 C7 1_555 1_555
C8 C4 1_555 1_555
H6 C8 1_555 1_555
C9 O3 1_555 1_555
O3 Cd1 1_555 1_555
O4 Cd1 1_555 1_555
C10 C9 1_555 1_555
H7 C10 1_555 1_555
N2 C11 1_555 1_555
C11 H8 1_555 1_555
C12 C11 1_555 1_555
H9 C12 1_555 1_555
C13 C12 1_555 1_555
C14 C13 1_555 1_555
H10 C14 1_555 1_555
C15 N2 1_555 1_555
H11 C15 1_555 1_555
C16 C10 1_555 1_555
H12 C16 1_555 1_555
N1A Cd1 1_555 1_555
N2C Cd1 1_555 1_555
Cd1A N1 1_555 1_555
Cd1C N2 1_555 1_555
C2 C3 1_555 1_555
C5 C8 1_555 1_555
C6 C7 1_555 1_555
C9 O4 1_555 1_555
C13 C16 1_555 1_555
C14 C15 1_555 1_555

#END
