
#######################################################################
#
#                 Cambridge Crystallographic Data Centre
#                                CCDC 
#
#######################################################################
#
# If this CIF has been generated from an entry in the Cambridge 
# Structural Database, then it will include bibliographic, chemical, 
# crystal, experimental, refinement or atomic coordinate data resulting 
# from the CCDC's data processing and validation procedures.
#
#######################################################################

data_JULCAU
_symmetry_cell_setting           monoclinic
_symmetry_space_group_name_H-M   'P 21/a'
_symmetry_Int_Tables_number      14
_space_group_name_Hall           '-P 2yab'
loop_
_symmetry_equiv_pos_site_id
_symmetry_equiv_pos_as_xyz
1 x,y,z
2 1/2+x,1/2-y,z
3 -x,-y,-z
4 1/2-x,1/2+y,-z
_cell_length_a                   8.401(1)
_cell_length_b                   7.126(1)
_cell_length_c                   15.144(1)
_cell_angle_alpha                90
_cell_angle_beta                 98.866(9)
_cell_angle_gamma                90
_cell_volume                     895.771
loop_
_atom_site_label
_atom_site_type_symbol
_atom_site_fract_x
_atom_site_fract_y
_atom_site_fract_z
K1 K 0.80023(6) -1.60639(7) 0.06302(3)
S1 S 0.94831(7) -1.77832(9) -0.10463(4)
O1 O 0.8297(2) -1.4387(2) -0.1032(1)
O2 O 1.0948(2) -1.4577(3) -0.2464(1)
C1 C 0.8279(2) -1.5560(3) -0.2484(1)
C2 C 0.9479(2) -1.4974(3) -0.2966(1)
C3 C 0.9145(3) -1.4779(4) -0.3885(2)
C4 C 0.7623(3) -1.5181(4) -0.4329(2)
C5 C 0.6427(3) -1.5743(4) -0.3864(2)
C6 C 0.6747(3) -1.5923(3) -0.2942(2)
C7 C 0.8622(2) -1.5744(3) -0.1479(1)
C8 C 1.2275(3) -1.4205(4) -0.2928(2)
H1 H 0.981(3) -1.442(4) -0.418(2)
H2 H 0.744(3) -1.506(4) -0.495(2)
H3 H 0.536(3) -1.600(4) -0.417(2)
H4 H 0.594(3) -1.626(4) -0.261(2)
H5 H 1.331(3) -1.402(4) -0.243(2)
H6 H 1.202(3) -1.308(4) -0.333(2)
H7 H 1.243(3) -1.528(4) -0.330(2)
K1C K 0.69977(6) -1.10639(7) -0.06302(3)
S1C S 0.55169(7) -1.27832(9) 0.10463(4)
K1C_2 K 0.69977(6) -2.10639(7) -0.06302(3)
K1B K 1.19977(6) -1.39361(7) -0.06302(3)
O1C O 0.6703(2) -1.9387(2) 0.1032(1)
O2B O 0.9052(2) -1.5423(3) 0.2464(1)
loop_
_geom_bond_atom_site_label_1
_geom_bond_atom_site_label_2
_geom_bond_site_symmetry_1
_geom_bond_site_symmetry_2
K1 S1 1_555 1_555
S1 C7 1_555 1_555
O1 K1 1_555 1_555
O2 C2 1_555 1_555
C1 C2 1_555 1_555
C2 C3 1_555 1_555
C3 C4 1_555 1_555
C4 C5 1_555 1_555
C5 C6 1_555 1_555
C6 C1 1_555 1_555
C7 O1 1_555 1_555
C8 O2 1_555 1_555
H1 C3 1_555 1_555
H2 C4 1_555 1_555
H3 C5 1_555 1_555
H4 C6 1_555 1_555
H5 C8 1_555 1_555
H6 C8 1_555 1_555
H7 C8 1_555 1_555
K1C O1 1_555 1_555
S1C K1 1_555 1_555
K1C_2 S1 1_555 1_555
K1B O2 1_555 1_555
O1C K1 1_555 1_555
O2B K1 1_555 1_555
C1 C7 1_555 1_555
K1C S1C 1_555 1_555
K1C_2 O1C 1_555 1_555

#END
