
#######################################################################
#
#                 Cambridge Crystallographic Data Centre
#                                CCDC 
#
#######################################################################
#
# If this CIF has been generated from an entry in the Cambridge 
# Structural Database, then it will include bibliographic, chemical, 
# crystal, experimental, refinement or atomic coordinate data resulting 
# from the CCDC's data processing and validation procedures.
#
#######################################################################

data_JULDAV
_symmetry_cell_setting           monoclinic
_symmetry_space_group_name_H-M   'C c'
_symmetry_Int_Tables_number      9
_space_group_name_Hall           'C -2yc'
loop_
_symmetry_equiv_pos_site_id
_symmetry_equiv_pos_as_xyz
1 x,y,z
2 1/2+x,1/2+y,z
3 x,-y,1/2+z
4 1/2+x,1/2-y,1/2+z
_cell_length_a                   9.082(2)
_cell_length_b                   31.835(7)
_cell_length_c                   9.000(2)
_cell_angle_alpha                90
_cell_angle_beta                 119.44(1)
_cell_angle_gamma                90
_cell_volume                     2266.12
loop_
_atom_site_label
_atom_site_type_symbol
_atom_site_fract_x
_atom_site_fract_y
_atom_site_fract_z
Cu1 Cu 0.7565 0.21950(1) 0.3526
N1 N 0.9299(5) 0.2464(1) 0.5604(5)
N2 N 0.9070(5) 0.2065(1) 0.2267(5)
N3 N 0.7614(5) 0.1570(1) 0.4278(5)
C1 C 1.0474(5) 0.2605(1) 0.6772(6)
C2 C 0.8341(8) 0.1914(2) 0.0734(8)
C3 C 0.9107(9) 0.1879(3) -0.0269(9)
C4 C 1.0731(8) 0.2035(2) 0.0398(8)
C5 C 1.1515(8) 0.2196(2) 0.1998(9)
C6 C 1.0640(7) 0.2206(2) 0.2891(7)
C7 C 0.6448(8) 0.1294(2) 0.3243(7)
C8 C 0.6628(10) 0.0859(2) 0.3551(9)
C9 C 0.8001(10) 0.0718(2) 0.4955(12)
C10 C 0.9212(9) 0.0993(2) 0.6039(12)
C11 C 0.8942(7) 0.1419(2) 0.5657(8)
H1 H 0.7240 0.1793 0.0305
H2 H 0.8512 0.1776 -0.1419
H3 H 1.1316 0.2017 -0.0242
H4 H 1.2640 0.2306 0.2477
H5 H 1.1205 0.2319 0.4024
H6 H 0.5454 0.1403 0.2273
H7 H 0.5790 0.0668 0.2765
H8 H 0.8134 0.0421 0.5163
H9 H 1.0169 0.0893 0.7065
H10 H 0.9777 0.1617 0.6397
Cu1C Cu 1.2565 0.28050(1) 0.8526
Cu1C_2 Cu 0.2565 0.28050(1) -0.1474
N1C N 0.4299(5) 0.2536(1) 0.0604(5)
N1C_2 N 1.4299(5) 0.2536(1) 1.0604(5)
N2C N 1.4070(5) 0.2935(1) 0.7267(5)
N3C N 1.2614(5) 0.3430(1) 0.9278(5)
C1C C 0.5474(5) 0.2395(1) 0.1772(6)
C2C C 1.3341(8) 0.3086(2) 0.5734(8)
C3C C 1.4107(9) 0.3121(3) 0.4731(9)
C4C C 1.5731(8) 0.2965(2) 0.5398(8)
C5C C 1.6515(8) 0.2804(2) 0.6998(9)
C6C C 1.5640(7) 0.2794(2) 0.7891(7)
C7C C 1.1448(8) 0.3706(2) 0.8243(7)
C8C C 1.1628(10) 0.4141(2) 0.8551(9)
C9C C 1.3001(10) 0.4282(2) 0.9955(12)
C10C C 1.4212(9) 0.4007(2) 1.1039(12)
C11C C 1.3942(7) 0.3581(2) 1.0657(8)
H1C H 1.2240 0.3207 0.5305
H2C H 1.3512 0.3224 0.3581
H3C H 1.6316 0.2983 0.4758
H4C H 1.7640 0.2694 0.7477
H5C H 1.6205 0.2681 0.9024
H6C H 1.0454 0.3597 0.7273
H7C H 1.0790 0.4332 0.7765
H8C H 1.3134 0.4579 1.0163
H9C H 1.5169 0.4107 1.2065
H10C H 1.4777 0.3383 1.1397
Cu2 Cu 0.0769(1) 0.4671(1) 0.2960(1)
N4 N 0.0383(5) 0.4896(1) 0.4762(5)
N5 N -0.0169(5) 0.4058(1) 0.2586(5)
N6 N 0.3432(5) 0.4522(1) 0.4527(6)
C12 C 0.0442(6) 0.5059(1) 0.5947(6)
C13 C 0.0020(8) 0.3794(2) 0.1542(8)
C14 C -0.0498(10) 0.3378(2) 0.1361(11)
C15 C -0.1295(9) 0.3233(2) 0.2252(10)
C16 C -0.1457(8) 0.3498(2) 0.3292(8)
C17 C -0.0896(6) 0.3912(2) 0.3473(7)
C18 C 0.3939(9) 0.4276(2) 0.5911(8)
C19 C 0.5581(12) 0.4247(3) 0.7181(11)
C20 C 0.6799(10) 0.4478(3) 0.7002(16)
C21 C 0.6306(10) 0.4724(3) 0.5503(17)
C22 C 0.4651(9) 0.4732(2) 0.4455(11)
H11 H 0.0553 0.3902 0.0929
H12 H -0.0387 0.3198 0.0568
H13 H -0.1654 0.2947 0.2163
H14 H -0.1965 0.3399 0.3941
H15 H -0.1043 0.4093 0.4240
H16 H 0.3099 0.4112 0.5996
H17 H 0.5915 0.4074 0.8168
H18 H 0.7962 0.4470 0.7878
H19 H 0.7170 0.4870 0.5393
H20 H 0.4341 0.4904 0.3468
Cu2B Cu 0.0769(1) 0.5329(1) 0.7960(1)
Cu2B_2 Cu 0.0769(1) 0.5329(1) -0.2040(1)
N4B N 0.0383(5) 0.5104(1) -0.0238(5)
N4B_2 N 0.0383(5) 0.5104(1) 0.9762(5)
N5B N -0.0169(5) 0.5942(1) 0.7586(5)
N6B N 0.3432(5) 0.5478(1) 0.9527(6)
C12B C 0.0442(6) 0.4941(1) 0.0947(6)
C13B C 0.0020(8) 0.6206(2) 0.6542(8)
C14B C -0.0498(10) 0.6622(2) 0.6361(11)
C15B C -0.1295(9) 0.6767(2) 0.7252(10)
C16B C -0.1457(8) 0.6502(2) 0.8292(8)
C17B C -0.0896(6) 0.6088(2) 0.8473(7)
C18B C 0.3939(9) 0.5724(2) 1.0911(8)
C19B C 0.5581(12) 0.5753(3) 1.2181(11)
C20B C 0.6799(10) 0.5522(3) 1.2002(16)
C21B C 0.6306(10) 0.5276(3) 1.0503(17)
C22B C 0.4651(9) 0.5268(2) 0.9455(11)
H11B H 0.0553 0.6098 0.5929
H12B H -0.0387 0.6802 0.5568
H13B H -0.1654 0.7053 0.7163
H14B H -0.1965 0.6601 0.8941
H15B H -0.1043 0.5907 0.9240
H16B H 0.3099 0.5888 1.0996
H17B H 0.5915 0.5926 1.3168
H18B H 0.7962 0.5530 1.2878
H19B H 0.7170 0.5130 1.0393
H20B H 0.4341 0.5096 0.8468
loop_
_geom_bond_atom_site_label_1
_geom_bond_atom_site_label_2
_geom_bond_site_symmetry_1
_geom_bond_site_symmetry_2
Cu1 N1 1_555 1_555
N1 C1 1_555 1_555
N2 Cu1 1_555 1_555
N3 Cu1 1_555 1_555
C1 Cu1C 1_555 1_555
C2 N2 1_555 1_555
C3 C2 1_555 1_555
C4 C3 1_555 1_555
C5 C4 1_555 1_555
C6 N2 1_555 1_555
C7 N3 1_555 1_555
C8 C7 1_555 1_555
C9 C8 1_555 1_555
C10 C9 1_555 1_555
C11 N3 1_555 1_555
Cu2 N4 1_555 1_555
N4 C12 1_555 1_555
N5 Cu2 1_555 1_555
N6 Cu2 1_555 1_555
C12 Cu2B 1_555 1_555
C13 N5 1_555 1_555
C14 C13 1_555 1_555
C15 C14 1_555 1_555
C16 C15 1_555 1_555
C17 N5 1_555 1_555
C18 N6 1_555 1_555
C19 C18 1_555 1_555
C20 C19 1_555 1_555
C21 C20 1_555 1_555
C22 N6 1_555 1_555
H1 C2 1_555 1_555
H2 C3 1_555 1_555
H3 C4 1_555 1_555
H4 C5 1_555 1_555
H5 C6 1_555 1_555
H6 C7 1_555 1_555
H7 C8 1_555 1_555
H8 C9 1_555 1_555
H9 C10 1_555 1_555
H10 C11 1_555 1_555
H11 C13 1_555 1_555
H12 C14 1_555 1_555
H13 C15 1_555 1_555
H14 C16 1_555 1_555
H15 C17 1_555 1_555
H16 C18 1_555 1_555
H17 C19 1_555 1_555
H18 C20 1_555 1_555
H19 C21 1_555 1_555
H20 C22 1_555 1_555
Cu1C N1C_2 1_555 1_555
Cu1C_2 N1C 1_555 1_555
N1C C1C 1_555 1_555
N2C Cu1C 1_555 1_555
N3C Cu1C 1_555 1_555
C1C Cu1 1_555 1_555
C2C N2C 1_555 1_555
C3C C2C 1_555 1_555
C4C C3C 1_555 1_555
C5C C4C 1_555 1_555
C6C N2C 1_555 1_555
C7C N3C 1_555 1_555
C8C C7C 1_555 1_555
C9C C8C 1_555 1_555
C10C C9C 1_555 1_555
C11C N3C 1_555 1_555
Cu2B N4B_2 1_555 1_555
Cu2B_2 N4B 1_555 1_555
N4B C12B 1_555 1_555
N5B Cu2B 1_555 1_555
N6B Cu2B 1_555 1_555
C12B Cu2 1_555 1_555
C13B N5B 1_555 1_555
C14B C13B 1_555 1_555
C15B C14B 1_555 1_555
C16B C15B 1_555 1_555
C17B N5B 1_555 1_555
C18B N6B 1_555 1_555
C19B C18B 1_555 1_555
C20B C19B 1_555 1_555
C21B C20B 1_555 1_555
C22B N6B 1_555 1_555
H1C C2C 1_555 1_555
H2C C3C 1_555 1_555
H3C C4C 1_555 1_555
H4C C5C 1_555 1_555
H5C C6C 1_555 1_555
H6C C7C 1_555 1_555
H7C C8C 1_555 1_555
H8C C9C 1_555 1_555
H9C C10C 1_555 1_555
H10C C11C 1_555 1_555
H11B C13B 1_555 1_555
H12B C14B 1_555 1_555
H13B C15B 1_555 1_555
H14B C16B 1_555 1_555
H15B C17B 1_555 1_555
H16B C18B 1_555 1_555
H17B C19B 1_555 1_555
H18B C20B 1_555 1_555
H19B C21B 1_555 1_555
H20B C22B 1_555 1_555
C5 C6 1_555 1_555
C10 C11 1_555 1_555
C16 C17 1_555 1_555
C21 C22 1_555 1_555
C5C C6C 1_555 1_555
C10C C11C 1_555 1_555
C16B C17B 1_555 1_555
C21B C22B 1_555 1_555

#END
