
#######################################################################
#
#                 Cambridge Crystallographic Data Centre
#                                CCDC 
#
#######################################################################
#
# If this CIF has been generated from an entry in the Cambridge 
# Structural Database, then it will include bibliographic, chemical, 
# crystal, experimental, refinement or atomic coordinate data resulting 
# from the CCDC's data processing and validation procedures.
#
#######################################################################

data_JULKAE
_symmetry_cell_setting           monoclinic
_symmetry_space_group_name_H-M   'C 2'
_symmetry_Int_Tables_number      5
_space_group_name_Hall           'C 2y'
loop_
_symmetry_equiv_pos_site_id
_symmetry_equiv_pos_as_xyz
1 x,y,z
2 -x,y,-z
3 1/2+x,1/2+y,z
4 1/2-x,1/2+y,-z
_cell_length_a                   16.523(5)
_cell_length_b                   7.506(4)
_cell_length_c                   7.508(5)
_cell_angle_alpha                90
_cell_angle_beta                 107.372(5)
_cell_angle_gamma                90
_cell_volume                     888.681
loop_
_atom_site_label
_atom_site_type_symbol
_atom_site_fract_x
_atom_site_fract_y
_atom_site_fract_z
Cd1 Cd 0.5000 0.57234(2) 1.0000
Ni1 Ni 0.5000 1.0702(7) 1.5000
N1 N 0.7711(4) 0.580(2) 1.0014(8)
N2 N 0.6425(4) 0.5573(15) 1.0311(9)
N3 N 0.4700(7) 0.3550(17) 0.7643(19)
C1 C 0.8403(5) 0.5495(14) 0.9175(11)
H1 H 0.8940 0.5676 1.0104
H2 H 0.8347 0.6318 0.8166
H3 H 0.8372 0.4298 0.8711
C2 C 0.7013(5) 0.5910(16) 1.2072(11)
H4 H 0.6889 0.6300 1.3137
N4 N 0.5180(7) 0.7912(16) 1.2337(19)
C3 C 0.4830(10) 0.252(2) 0.670(2)
C4 C 0.6530(5) 0.5862(19) 0.7048(10)
H5 H 0.6988 0.6015 0.6521
H6 H 0.6159 0.6874 0.6743
H7 H 0.6219 0.4802 0.6547
C5 C 0.7815(5) 0.5548(16) 1.1913(11)
H8 H 0.8303 0.5219 1.2847
C6 C 0.5161(10) 0.9016(19) 1.345(2)
C7 C 0.6879(5) 0.570(3) 0.9130(10)
N1A N 0.2289(4) 0.580(2) 0.9986(8)
N2A N 0.3575(4) 0.5573(15) 0.9689(9)
N3A N 0.5300(7) 0.3550(17) 1.2357(19)
C1A C 0.1597(5) 0.5495(14) 1.0825(11)
H1A H 0.1060 0.5676 0.9896
H2A H 0.1653 0.6318 1.1834
H3A H 0.1628 0.4298 1.1289
C2A C 0.2987(5) 0.5910(16) 0.7928(11)
H4A H 0.3111 0.6300 0.6863
N4A N 0.4820(7) 0.7912(16) 0.7663(19)
C3A C 0.5170(10) 0.252(2) 1.330(2)
C4A C 0.3470(5) 0.5862(19) 1.2952(10)
H5A H 0.3012 0.6015 1.3479
H6A H 0.3841 0.6874 1.3257
H7A H 0.3781 0.4802 1.3453
C5A C 0.2185(5) 0.5548(16) 0.8087(11)
H8A H 0.1697 0.5219 0.7153
C6A C 0.4839(10) 0.9016(19) 0.655(2)
C7A C 0.3121(5) 0.570(3) 1.0870(10)
Ni1_2 Ni 0.5000 0.0702(7) 0.5000
Ni1_3 Ni 0.5000 0.0702(7) 1.5000
Ni1_4 Ni 0.5000 1.0702(7) 0.5000
C3_2 C 0.4830(10) 1.252(2) 1.670(2)
C3A_2 C 0.5170(10) 1.252(2) 1.330(2)
C6A_2 C 0.4839(10) 0.9016(19) 1.655(2)
loop_
_geom_bond_atom_site_label_1
_geom_bond_atom_site_label_2
_geom_bond_site_symmetry_1
_geom_bond_site_symmetry_2
Cd1 N2 1_555 1_555
Ni1 C6 1_555 1_555
N1 C1 1_555 1_555
N2 C2 1_555 1_555
N3 Cd1 1_555 1_555
C1 H1 1_555 1_555
H2 C1 1_555 1_555
H3 C1 1_555 1_555
C2 H4 1_555 1_555
N4 Cd1 1_555 1_555
C3 N3 1_555 1_555
C4 H5 1_555 1_555
H6 C4 1_555 1_555
H7 C4 1_555 1_555
C5 N1 1_555 1_555
H8 C5 1_555 1_555
C6 N4 1_555 1_555
C7 N1 1_555 1_555
N1A C1A 1_555 1_555
N2A Cd1 1_555 1_555
N3A Cd1 1_555 1_555
C1A H1A 1_555 1_555
H2A C1A 1_555 1_555
H3A C1A 1_555 1_555
C2A N2A 1_555 1_555
H4A C2A 1_555 1_555
N4A Cd1 1_555 1_555
C3A N3A 1_555 1_555
C4A H5A 1_555 1_555
H6A C4A 1_555 1_555
H7A C4A 1_555 1_555
C5A N1A 1_555 1_555
H8A C5A 1_555 1_555
C6A N4A 1_555 1_555
C7A N1A 1_555 1_555
Ni1_2 C3 1_555 1_555
Ni1_3 C3A 1_555 1_555
Ni1_4 C6A 1_555 1_555
C3_2 Ni1 1_555 1_555
C3A_2 Ni1 1_555 1_555
C6A_2 Ni1 1_555 1_555
N2 C7 1_555 1_555
C2 C5 1_555 1_555
C4 C7 1_555 1_555
N2A C7A 1_555 1_555
C2A C5A 1_555 1_555
C4A C7A 1_555 1_555

#END
