
#######################################################################
#
#                 Cambridge Crystallographic Data Centre
#                                CCDC 
#
#######################################################################
#
# If this CIF has been generated from an entry in the Cambridge 
# Structural Database, then it will include bibliographic, chemical, 
# crystal, experimental, refinement or atomic coordinate data resulting 
# from the CCDC's data processing and validation procedures.
#
#######################################################################

data_JUMDEC
_symmetry_cell_setting           orthorhombic
_symmetry_space_group_name_H-M   'P 21 21 21'
_symmetry_Int_Tables_number      19
_space_group_name_Hall           'P 2ac 2ab'
loop_
_symmetry_equiv_pos_site_id
_symmetry_equiv_pos_as_xyz
1 x,y,z
2 1/2-x,-y,1/2+z
3 -x,1/2+y,1/2-z
4 1/2+x,1/2-y,-z
_cell_length_a                   6.8055(7)
_cell_length_b                   13.4475(13)
_cell_length_c                   16.1809(16)
_cell_angle_alpha                90
_cell_angle_beta                 90
_cell_angle_gamma                90
_cell_volume                     1480.83
loop_
_atom_site_label
_atom_site_type_symbol
_atom_site_fract_x
_atom_site_fract_y
_atom_site_fract_z
C1 C 0.2243(8) 0.6096(4) 0.4043(3)
C2 C 0.2402(8) 0.5343(4) 0.3379(3)
C3 C 0.4192(9) 0.5118(5) 0.3021(5)
H1 H 0.5331 0.5410 0.3225
C4 C 0.4310(9) 0.4483(5) 0.2381(4)
H2 H 0.5532 0.4330 0.2158
C5 C 0.0714(9) 0.4893(5) 0.3071(4)
H3 H -0.0499 0.5022 0.3312
C6 C 0.0845(9) 0.4253(5) 0.2405(4)
H4 H -0.0288 0.3958 0.2198
C7 C 0.2623(8) 0.4049(4) 0.2047(3)
C8 C 0.2769(8) 0.3443(4) 0.1295(3)
O1 O 0.2835(4) 0.1898(2) -0.0100(2)
O2 O 0.1157(5) 0.3126(3) 0.0996(2)
O3 O 0.0564(6) 0.6321(3) 0.4302(3)
O4 O 0.4428(6) 0.3284(3) 0.0991(2)
O5 O 0.3845(5) 0.6473(3) 0.4286(3)
V1 V 0.06454(10) 0.23546(5) -0.00148(7)
O1C O -0.2165(4) 0.3102(2) 0.0100(2)
O3B O -0.0564(6) 0.1321(3) 0.0698(3)
O4C O -0.0572(6) 0.1716(3) -0.0991(2)
O5A O 0.1155(5) 0.3527(3) -0.0714(3)
V1A V 0.43546(10) 0.76454(5) 0.49852(7)
V1B V -0.06454(10) 0.73546(5) 0.50148(7)
V1C V 0.56454(10) 0.26454(5) 0.00148(7)
C9 C 0.669(4) 0.4185(16) 0.5026(9)
H5 H 0.6655 0.3674 0.4604
H6 H 0.6780 0.4825 0.4752
C10 C 0.847(3) 0.4036(15) 0.5562(11)
H7 H 0.8977 0.4668 0.5756
H8 H 0.9500 0.3693 0.5260
C11 C 0.482(3) 0.4144(17) 0.5522(13)
H9 H 0.4629 0.4759 0.5826
H10 H 0.3695 0.4043 0.5162
S1 S 0.760(3) 0.3283(10) 0.6422(8)
C12 C 0.504(2) 0.3285(16) 0.6106(14)
H11 H 0.4705 0.2665 0.5833
H12 H 0.4186 0.3368 0.6582
loop_
_geom_bond_atom_site_label_1
_geom_bond_atom_site_label_2
_geom_bond_site_symmetry_1
_geom_bond_site_symmetry_2
C1 C2 1_555 1_555
C2 C3 1_555 1_555
C3 H1 1_555 1_555
C4 C3 1_555 1_555
H2 C4 1_555 1_555
C5 C2 1_555 1_555
H3 C5 1_555 1_555
C6 C5 1_555 1_555
H4 C6 1_555 1_555
C7 C4 1_555 1_555
C8 C7 1_555 1_555
O1 V1 1_555 1_555
O2 C8 1_555 1_555
O3 C1 1_555 1_555
O4 C8 1_555 1_555
O5 C1 1_555 1_555
V1 O2 1_555 1_555
C9 H5 1_555 1_555
H6 C9 1_555 1_555
C10 C9 1_555 1_555
H7 C10 1_555 1_555
H8 C10 1_555 1_555
C11 C9 1_555 1_555
H9 C11 1_555 1_555
H10 C11 1_555 1_555
S1 C10 1_555 1_555
C12 C11 1_555 1_555
H11 C12 1_555 1_555
H12 C12 1_555 1_555
O1C V1 1_555 1_555
O3B V1 1_555 1_555
O4C V1 1_555 1_555
O5A V1 1_555 1_555
V1A O5 1_555 1_555
V1B O3 1_555 1_555
V1C O1 1_555 1_555
C6 C7 1_555 1_555
O4 V1C 1_555 1_555
S1 C12 1_555 1_555

#END
