
#######################################################################
#
#                 Cambridge Crystallographic Data Centre
#                                CCDC 
#
#######################################################################
#
# If this CIF has been generated from an entry in the Cambridge 
# Structural Database, then it will include bibliographic, chemical, 
# crystal, experimental, refinement or atomic coordinate data resulting 
# from the CCDC's data processing and validation procedures.
#
#######################################################################

data_JUMZUO01
_symmetry_cell_setting           triclinic
_symmetry_space_group_name_H-M   'P -1'
_symmetry_Int_Tables_number      2
_space_group_name_Hall           '-P 1'
loop_
_symmetry_equiv_pos_site_id
_symmetry_equiv_pos_as_xyz
1 x,y,z
2 -x,-y,-z
_cell_length_a                   9.2308(18)
_cell_length_b                   10.063(2)
_cell_length_c                   24.572(5)
_cell_angle_alpha                97.68(3)
_cell_angle_beta                 100.39(3)
_cell_angle_gamma                101.06(3)
_cell_volume                     2169.64
loop_
_atom_site_label
_atom_site_type_symbol
_atom_site_fract_x
_atom_site_fract_y
_atom_site_fract_z
Ni1 Ni 0.23338(4) 0.62849(4) 0.704285(19)
Ni2 Ni 0.39493(4) 0.88472(4) 0.818751(18)
O1 O 0.2253(2) 0.7101(2) 0.78660(10)
O2 O 0.1610(2) 0.8747(2) 0.83888(10)
O3 O -0.3200(3) 0.0289(2) 0.24781(10)
O4 O -0.3062(3) 0.1929(2) 0.32116(10)
O5 O -0.1852(2) -0.4142(2) 0.29020(9)
O6 O -0.2535(3) -0.4852(2) 0.36425(10)
O7 O -0.2690(4) -0.0502(3) 0.48803(13)
O8 O -0.4296(2) 0.8190(2) 0.79256(10)
O9 O -0.5541(2) 0.6167(3) 0.73818(11)
O10 O -0.1940(2) 0.3032(3) 0.75961(11)
N1 N 0.0147(3) 0.6312(3) 0.66824(12)
N2 N -0.2303(3) 0.5670(4) 0.63530(14)
N3 N 0.4601(3) 0.8111(3) 0.89357(13)
N4 N 0.6220(3) 0.7718(4) 0.96286(14)
N5 N 0.5291(3) 1.0751(3) 0.85400(12)
N6 N 0.7344(3) 1.2383(3) 0.88251(13)
C1 C -0.0419(4) 0.7411(5) 0.6589(2)
H1 H 0.0152 0.8308 0.6659
C2 C -0.1913(5) 0.7054(5) 0.6384(2)
H2 H -0.2550 0.7633 0.6283
C3 C -0.1015(4) 0.5279(4) 0.65418(15)
H3 H -0.0961 0.4376 0.6569
C4 C -0.3833(4) 0.4801(5) 0.61586(17)
H4 H -0.4485 0.5091 0.6398
H5 H -0.3804 0.3853 0.6185
C5 C -0.4469(4) 0.4899(4) 0.55582(16)
C6 C -0.5507(5) 0.5686(5) 0.5430(2)
H6 H -0.5861 0.6151 0.5713
C7 C -0.3984(5) 0.4226(5) 0.51250(19)
H7 H -0.3286 0.3689 0.5209
C8 C 0.5897(5) 0.7787(5) 0.90822(17)
H8 H 0.6524 0.7623 0.8836
C9 C 0.4086(5) 0.8273(6) 0.9404(2)
H9 H 0.3171 0.8506 0.9432
C10 C 0.5109(6) 0.8043(7) 0.9842(2)
H10 H 0.5027 0.8105 1.0216
C11 C 0.7687(5) 0.7547(5) 0.9935(2)
H11 H 0.7953 0.6750 0.9744
H12 H 0.7610 0.7397 1.0312
C12 C 0.8889(4) 0.8808(5) 0.99660(18)
C13 C 0.9240(4) 0.9881(5) 1.04262(18)
H13 H 0.8729 0.9801 1.0718
C14 C 0.9674(5) 0.8944(5) 0.95430(18)
H14 H 0.9471 0.8240 0.9235
C15 C 0.6776(4) 1.1006(4) 0.86829(16)
H15 H 0.7351 1.0341 0.8686
C16 C 0.4896(4) 1.2006(4) 0.85907(16)
H16 H 0.3914 1.2138 0.8519
C17 C 0.6161(4) 1.3018(4) 0.87604(15)
H17 H 0.6213 1.3960 0.8821
C18 C 0.8959(4) 1.3003(5) 0.89641(18)
H18 H 0.9221 1.3441 0.8656
H19 H 0.9511 1.2280 0.8999
C19 C 0.9457(4) 1.4046(4) 0.94951(15)
C20 C 0.8876(5) 1.3864(4) 0.99635(16)
H20 H 0.8110 1.3099 0.9945
C21 C 1.0596(5) 1.5212(4) 0.95404(17)
H21 H 1.1008 1.5369 0.9230
C22 C -0.3081(4) 0.0706(4) 0.29929(16)
C23 C -0.2891(4) -0.0295(4) 0.33881(15)
C24 C -0.2919(4) 0.0083(4) 0.39554(16)
H22 H -0.3043 0.0954 0.4088
C25 C -0.2705(4) -0.1606(3) 0.31928(14)
H23 H -0.2696 -0.1866 0.2816
C26 C -0.2533(3) -0.2519(3) 0.35605(14)
C27 C -0.2596(4) -0.2141(4) 0.41183(15)
H24 H -0.2524 -0.2773 0.4360
C28 C -0.2761(5) -0.0854(4) 0.43185(17)
C29 C -0.2279(3) -0.3901(3) 0.33552(15)
C30 C -0.2281(10) 0.0869(7) 0.5127(2)
H25 H -0.1570 0.1374 0.4940
H26 H -0.3163 0.1267 0.5098
C31 C -0.1529(8) 0.0946(9) 0.5765(3)
H27 H -0.0872 0.1849 0.5904
H28 H -0.0904 0.0275 0.5788
C32 C -0.2572(6) 0.0706(6) 0.6122(2)
H29 H -0.3213 0.1363 0.6094
H30 H -0.3213 -0.0207 0.5991
C33 C 0.1256(4) 0.7583(4) 0.80839(15)
C34 C -0.0312(3) 0.6672(3) 0.79752(14)
C35 C -0.0466(3) 0.5263(3) 0.78668(14)
H31 H 0.0385 0.4889 0.7901
C36 C -0.1903(4) 0.4406(3) 0.77055(14)
C37 C -0.3158(3) 0.4967(4) 0.76575(14)
H32 H -0.4117 0.4394 0.7553
C38 C -0.2995(3) 0.6410(4) 0.77665(14)
C39 C -0.1569(3) 0.7259(4) 0.79486(14)
H33 H -0.1452 0.8203 0.8051
C40 C -0.4397(4) 0.6974(4) 0.76851(14)
C41 C -0.3281(4) 0.2093(4) 0.73051(16)
H34 H -0.3734 0.2432 0.6979
H35 H -0.4001 0.1974 0.7547
C42 C -0.2878(5) 0.0755(4) 0.71273(19)
H36 H -0.2423 0.0440 0.7460
H37 H -0.3798 0.0080 0.6948
C43 C -0.1821(5) 0.0820(5) 0.6735(2)
H38 H -0.1288 0.0083 0.6768
H39 H -0.1078 0.1683 0.6850
N1A N -1.0147(3) 0.3688(3) 0.33176(12)
N2A N -0.7697(3) 0.4330(4) 0.36470(14)
C1A C -0.9581(4) 0.2589(5) 0.3411(2)
H1A H -1.0152 0.1692 0.3341
C2A C -0.8087(5) 0.2946(5) 0.3616(2)
H2A H -0.7450 0.2367 0.3717
C3A C -0.8985(4) 0.4721(4) 0.34582(15)
H3A H -0.9039 0.5624 0.3431
C4A C -0.6167(4) 0.5199(5) 0.38414(17)
H4A H -0.5515 0.4909 0.3602
H5A H -0.6196 0.6147 0.3815
C5A C -0.5531(4) 0.5101(4) 0.44418(16)
C6A C -0.4493(5) 0.4314(5) 0.4570(2)
H6A H -0.4139 0.3849 0.4287
C7A C -0.6016(5) 0.5774(5) 0.48750(19)
H7A H -0.6714 0.6311 0.4791
N3A N 1.5399(3) 1.1889(3) 1.10643(13)
N4A N 1.3780(3) 1.2282(4) 1.03714(14)
C8A C 1.4103(5) 1.2213(5) 1.09178(17)
H8A H 1.3476 1.2377 1.1164
C9A C 1.5914(5) 1.1727(6) 1.0596(2)
H9A H 1.6829 1.1494 1.0568
C10A C 1.4891(6) 1.1957(7) 1.0158(2)
H10A H 1.4973 1.1895 0.9784
C11A C 1.2313(5) 1.2453(5) 1.0065(2)
H11A H 1.2047 1.3250 1.0256
H12A H 1.2390 1.2603 0.9688
C12A C 1.1111(4) 1.1192(5) 1.00340(18)
C13A C 1.0760(4) 1.0119(5) 0.95738(18)
H13A H 1.1271 1.0199 0.9282
C14A C 1.0326(5) 1.1056(5) 1.04570(18)
H14A H 1.0529 1.1760 1.0765
N5A N 1.4709(3) 1.9249(3) 1.14600(12)
N6A N 1.2656(3) 1.7617(3) 1.11749(13)
C15A C 1.3224(4) 1.8994(4) 1.13171(16)
H15A H 1.2649 1.9659 1.1314
C16A C 1.5104(4) 1.7994(4) 1.14093(16)
H16A H 1.6086 1.7862 1.1481
C17A C 1.3839(4) 1.6982(4) 1.12396(15)
H17A H 1.3787 1.6040 1.1179
C18A C 1.1041(4) 1.6997(5) 1.10359(18)
H18A H 1.0779 1.6559 1.1344
H19A H 1.0489 1.7720 1.1001
C19A C 1.0543(4) 1.5954(4) 1.05049(15)
C20A C 1.1124(5) 1.6136(4) 1.00365(16)
H20A H 1.1890 1.6901 1.0055
C21A C 0.9404(5) 1.4788(4) 1.04596(17)
H21A H 0.8992 1.4631 1.0770
Ni1A Ni -1.23338(4) 0.37151(4) 0.295715(19)
Ni2A Ni -1.39493(4) 0.11528(4) 0.181249(18)
O1A O -1.2253(2) 0.2899(2) 0.21340(10)
O2A O -1.1610(2) 0.1253(2) 0.16112(10)
O3A O -0.6800(3) 0.9711(2) 0.75219(10)
O4A O -0.6938(3) 0.8071(2) 0.67884(10)
O5A O -0.8148(2) 1.4142(2) 0.70980(9)
O6A O -0.7465(3) 1.4852(2) 0.63575(10)
O7A O -0.7310(4) 1.0502(3) 0.51197(13)
O8A O -0.5704(2) 0.1810(2) 0.20744(10)
O9A O -0.4459(2) 0.3833(3) 0.26182(11)
O10A O -0.8060(2) 0.6968(3) 0.24039(11)
C22A C -0.6919(4) 0.9294(4) 0.70071(16)
C23A C -0.7109(4) 1.0295(4) 0.66119(15)
C24A C -0.7081(4) 0.9917(4) 0.60446(16)
H22A H -0.6957 0.9046 0.5912
C25A C -0.7295(4) 1.1606(3) 0.68072(14)
H23A H -0.7304 1.1866 0.7184
C26A C -0.7467(3) 1.2519(3) 0.64395(14)
C27A C -0.7404(4) 1.2141(4) 0.58817(15)
H24A H -0.7476 1.2773 0.5640
C28A C -0.7239(5) 1.0854(4) 0.56815(17)
C29A C -0.7721(3) 1.3901(3) 0.66448(15)
C30A C -0.7719(10) 0.9131(7) 0.4873(2)
H25A H -0.8430 0.8626 0.5060
H26A H -0.6837 0.8733 0.4902
C31A C -0.8471(8) 0.9054(9) 0.4235(3)
H27A H -0.9128 0.8151 0.4096
H28A H -0.9096 0.9725 0.4212
C32A C -0.7428(6) 0.9294(6) 0.3878(2)
H29A H -0.6787 0.8637 0.3906
H30A H -0.6787 1.0207 0.4009
C33A C -1.1256(4) 0.2417(4) 0.19161(15)
C34A C -0.9688(3) 0.3328(3) 0.20248(14)
C35A C -0.9534(3) 0.4737(3) 0.21332(14)
H31A H -1.0385 0.5111 0.2099
C36A C -0.8097(4) 0.5594(3) 0.22945(14)
C37A C -0.6842(3) 0.5033(4) 0.23425(14)
H32A H -0.5883 0.5606 0.2447
C38A C -0.7005(3) 0.3590(4) 0.22335(14)
C39A C -0.8431(3) 0.2741(4) 0.20514(14)
H33A H -0.8548 0.1797 0.1949
C40A C -0.5603(4) 0.3026(4) 0.23149(14)
C41A C -0.6719(4) 0.7907(4) 0.26949(16)
H34A H -0.6266 0.7568 0.3021
H35A H -0.5999 0.8026 0.2453
C42A C -0.7122(5) 0.9245(4) 0.28727(19)
H36A H -0.7577 0.9560 0.2540
H37A H -0.6202 0.9920 0.3052
C43A C -0.8179(5) 0.9180(5) 0.3265(2)
H38A H -0.8712 0.9917 0.3232
H39A H -0.8922 0.8317 0.3150
Ni1_2 Ni -0.76662(4) 0.62849(4) 0.704285(19)
Ni1_3 Ni -0.76662(4) 1.62849(4) 0.704285(19)
Ni1A_2 Ni -0.23338(4) -0.62849(4) 0.295715(19)
Ni1A_3 Ni -0.23338(4) 0.37151(4) 0.295715(19)
Ni2_2 Ni -0.60507(4) 0.88472(4) 0.818751(18)
Ni2A_2 Ni -0.39493(4) 0.11528(4) 0.181249(18)
Ni2A_3 Ni 1.60507(4) 1.11528(4) 1.181249(18)
Ni2A_4 Ni 1.60507(4) 2.11528(4) 1.181249(18)
O3_2 O -1.3200(3) 0.0289(2) 0.24781(10)
O3A_2 O 0.3200(3) 0.9711(2) 0.75219(10)
O4_2 O -1.3062(3) 0.1929(2) 0.32116(10)
O4A_2 O 0.3062(3) 0.8071(2) 0.67884(10)
O5_2 O -1.1852(2) 0.5858(2) 0.29020(9)
O5A_2 O 0.1852(2) 0.4142(2) 0.70980(9)
O6_2 O -1.2535(3) 0.5148(2) 0.36425(10)
O6A_2 O 0.2535(3) 0.4852(2) 0.63575(10)
O8_2 O 0.5704(2) 0.8190(2) 0.79256(10)
O8A_2 O -1.5704(2) 0.1810(2) 0.20744(10)
O9_2 O 0.4459(2) 0.6167(3) 0.73818(11)
O9A_2 O -1.4459(2) 0.3833(3) 0.26182(11)
N3A_2 N -1.4601(3) 0.1889(3) 0.10643(13)
N5A_2 N -1.5291(3) -0.0751(3) 0.14600(12)
O11 O 0.9216(6) 0.8660(6) 0.1845(3)
H40 H 0.9176 0.8782 0.1505
H41 H 0.9025 0.7781 0.1855
O12 O 0.6811(5) 0.5460(5) 0.1674(2)
H42 H 0.6433 0.5387 0.1323
H43 H 0.6387 0.5921 0.1885
O13 O 0.0083(9) 0.5871(7) 0.4919(6)
H44 H 0.0819 0.6322 0.5184
H45 H 0.0165 0.6078 0.4598
loop_
_geom_bond_atom_site_label_1
_geom_bond_atom_site_label_2
_geom_bond_site_symmetry_1
_geom_bond_site_symmetry_2
Ni1 O1 1_555 1_555
Ni2 O1 1_555 1_555
O1 C33 1_555 1_555
O2 Ni2 1_555 1_555
O3 C22 1_555 1_555
O4 C22 1_555 1_555
O5 C29 1_555 1_555
O6 C29 1_555 1_555
O7 C28 1_555 1_555
O8 C40 1_555 1_555
O9 C40 1_555 1_555
O10 C36 1_555 1_555
N1 Ni1 1_555 1_555
N2 C2 1_555 1_555
N3 Ni2 1_555 1_555
N4 C8 1_555 1_555
N5 Ni2 1_555 1_555
N6 C15 1_555 1_555
C1 N1 1_555 1_555
H1 C1 1_555 1_555
C2 C1 1_555 1_555
H2 C2 1_555 1_555
C3 N1 1_555 1_555
H3 C3 1_555 1_555
C4 N2 1_555 1_555
H4 C4 1_555 1_555
H5 C4 1_555 1_555
C5 C4 1_555 1_555
C6 C5 1_555 1_555
H6 C6 1_555 1_555
C7 C5 1_555 1_555
H7 C7 1_555 1_555
C8 N3 1_555 1_555
H8 C8 1_555 1_555
C9 N3 1_555 1_555
H9 C9 1_555 1_555
C10 N4 1_555 1_555
H10 C10 1_555 1_555
C11 N4 1_555 1_555
H11 C11 1_555 1_555
H12 C11 1_555 1_555
C12 C11 1_555 1_555
C13 C12 1_555 1_555
H13 C13 1_555 1_555
C14 C12 1_555 1_555
H14 C14 1_555 1_555
C15 N5 1_555 1_555
H15 C15 1_555 1_555
C16 N5 1_555 1_555
H16 C16 1_555 1_555
C17 N6 1_555 1_555
H17 C17 1_555 1_555
C18 N6 1_555 1_555
H18 C18 1_555 1_555
H19 C18 1_555 1_555
C19 C18 1_555 1_555
C20 C19 1_555 1_555
H20 C20 1_555 1_555
C21 C19 1_555 1_555
H21 C21 1_555 1_555
C22 C23 1_555 1_555
C23 C24 1_555 1_555
C24 H22 1_555 1_555
C25 C23 1_555 1_555
H23 C25 1_555 1_555
C26 C25 1_555 1_555
C27 C26 1_555 1_555
H24 C27 1_555 1_555
C28 C24 1_555 1_555
C29 C26 1_555 1_555
C30 O7 1_555 1_555
H25 C30 1_555 1_555
H26 C30 1_555 1_555
C31 C30 1_555 1_555
H27 C31 1_555 1_555
H28 C31 1_555 1_555
C32 C31 1_555 1_555
H29 C32 1_555 1_555
H30 C32 1_555 1_555
C33 O2 1_555 1_555
C34 C33 1_555 1_555
C35 C34 1_555 1_555
H31 C35 1_555 1_555
C36 C35 1_555 1_555
C37 C36 1_555 1_555
H32 C37 1_555 1_555
C38 C37 1_555 1_555
C39 C34 1_555 1_555
H33 C39 1_555 1_555
C40 C38 1_555 1_555
C41 O10 1_555 1_555
H34 C41 1_555 1_555
H35 C41 1_555 1_555
C42 C41 1_555 1_555
H36 C42 1_555 1_555
H37 C42 1_555 1_555
C43 C32 1_555 1_555
H38 C43 1_555 1_555
H39 C43 1_555 1_555
O11 H40 1_555 1_555
H41 O11 1_555 1_555
O12 H42 1_555 1_555
H43 O12 1_555 1_555
O13 H44 1_555 1_555
H45 O13 1_555 1_555
N1A C1A 1_555 1_555
N2A C2A 1_555 1_555
C1A H1A 1_555 1_555
C2A C1A 1_555 1_555
H2A C2A 1_555 1_555
C3A N1A 1_555 1_555
H3A C3A 1_555 1_555
C4A N2A 1_555 1_555
H4A C4A 1_555 1_555
H5A C4A 1_555 1_555
C5A C4A 1_555 1_555
C6A C7 1_555 1_555
H6A C6A 1_555 1_555
C7A C6 1_555 1_555
H7A C7A 1_555 1_555
N3A C8A 1_555 1_555
N4A C8A 1_555 1_555
C8A H8A 1_555 1_555
C9A N3A 1_555 1_555
H9A C9A 1_555 1_555
C10A N4A 1_555 1_555
H10A C10A 1_555 1_555
C11A N4A 1_555 1_555
H11A C11A 1_555 1_555
H12A C11A 1_555 1_555
C12A C11A 1_555 1_555
C13A C14 1_555 1_555
H13A C13A 1_555 1_555
C14A C13 1_555 1_555
H14A C14A 1_555 1_555
N5A C15A 1_555 1_555
N6A C15A 1_555 1_555
C15A H15A 1_555 1_555
C16A N5A 1_555 1_555
H16A C16A 1_555 1_555
C17A N6A 1_555 1_555
H17A C17A 1_555 1_555
C18A N6A 1_555 1_555
H18A C18A 1_555 1_555
H19A C18A 1_555 1_555
C19A C18A 1_555 1_555
C20A C21 1_555 1_555
H20A C20A 1_555 1_555
C21A C20 1_555 1_555
H21A C21A 1_555 1_555
Ni1A N1A 1_555 1_555
Ni2A O1A 1_555 1_555
O1A Ni1A 1_555 1_555
O2A Ni2A 1_555 1_555
O3A C22A 1_555 1_555
O4A C22A 1_555 1_555
O5A C29A 1_555 1_555
O6A C29A 1_555 1_555
O7A C28A 1_555 1_555
O8A C40A 1_555 1_555
O9A C40A 1_555 1_555
O10A C36A 1_555 1_555
C22A C23A 1_555 1_555
C23A C24A 1_555 1_555
C24A H22A 1_555 1_555
C25A C23A 1_555 1_555
H23A C25A 1_555 1_555
C26A C25A 1_555 1_555
C27A C26A 1_555 1_555
H24A C27A 1_555 1_555
C28A C24A 1_555 1_555
C29A C26A 1_555 1_555
C30A O7A 1_555 1_555
H25A C30A 1_555 1_555
H26A C30A 1_555 1_555
C31A C30A 1_555 1_555
H27A C31A 1_555 1_555
H28A C31A 1_555 1_555
C32A C31A 1_555 1_555
H29A C32A 1_555 1_555
H30A C32A 1_555 1_555
C33A O1A 1_555 1_555
C34A C33A 1_555 1_555
C35A C34A 1_555 1_555
H31A C35A 1_555 1_555
C36A C35A 1_555 1_555
C37A C36A 1_555 1_555
H32A C37A 1_555 1_555
C38A C37A 1_555 1_555
C39A C34A 1_555 1_555
H33A C39A 1_555 1_555
C40A C38A 1_555 1_555
C41A O10A 1_555 1_555
H34A C41A 1_555 1_555
H35A C41A 1_555 1_555
C42A C41A 1_555 1_555
H36A C42A 1_555 1_555
H37A C42A 1_555 1_555
C43A C32A 1_555 1_555
H38A C43A 1_555 1_555
H39A C43A 1_555 1_555
Ni1_2 O9 1_555 1_555
Ni1_3 O5A 1_555 1_555
Ni1A_2 O5 1_555 1_555
Ni1A_3 O4 1_555 1_555
Ni2_2 O8 1_555 1_555
Ni2A_2 O3 1_555 1_555
Ni2A_3 N3A 1_555 1_555
Ni2A_4 N5A 1_555 1_555
O3_2 Ni2A 1_555 1_555
O3A_2 Ni2 1_555 1_555
O4_2 Ni1A 1_555 1_555
O4A_2 Ni1 1_555 1_555
O5_2 Ni1A 1_555 1_555
O5A_2 Ni1 1_555 1_555
O6_2 Ni1A 1_555 1_555
O6A_2 Ni1 1_555 1_555
O8_2 Ni2 1_555 1_555
O8A_2 Ni2A 1_555 1_555
O9_2 Ni1 1_555 1_555
O9A_2 Ni1A 1_555 1_555
N3A_2 Ni2A 1_555 1_555
N5A_2 Ni2A 1_555 1_555
O6 Ni1A_2 1_555 1_555
N2 C3 1_555 1_555
C9 C10 1_555 1_555
C16 C17 1_555 1_555
C27 C28 1_555 1_555
C38 C39 1_555 1_555
C42 C43 1_555 1_555
N2A C3A 1_555 1_555
C5A C6A 1_555 1_555
C5A C7A 1_555 1_555
C9A C10A 1_555 1_555
C12A C13A 1_555 1_555
C12A C14A 1_555 1_555
C16A C17A 1_555 1_555
C19A C20A 1_555 1_555
C19A C21A 1_555 1_555
O2A C33A 1_555 1_555
O3A Ni2_2 1_555 1_555
O4A Ni1_2 1_555 1_555
O6A Ni1_3 1_555 1_555
O8A Ni2A_2 1_555 1_555
O9A Ni1A_3 1_555 1_555
C27A C28A 1_555 1_555
C38A C39A 1_555 1_555
C42A C43A 1_555 1_555

#END
