
#######################################################################
#
#                 Cambridge Crystallographic Data Centre
#                                CCDC 
#
#######################################################################
#
# If this CIF has been generated from an entry in the Cambridge 
# Structural Database, then it will include bibliographic, chemical, 
# crystal, experimental, refinement or atomic coordinate data resulting 
# from the CCDC's data processing and validation procedures.
#
#######################################################################

data_JUNSIW
_symmetry_cell_setting           tetragonal
_symmetry_space_group_name_H-M   'P 41'
_symmetry_Int_Tables_number      76
_space_group_name_Hall           'P 4w'
loop_
_symmetry_equiv_pos_site_id
_symmetry_equiv_pos_as_xyz
1 x,y,z
2 -y,x,1/4+z
3 -x,-y,1/2+z
4 y,-x,3/4+z
_cell_length_a                   12.1822(9)
_cell_length_b                   12.1822(9)
_cell_length_c                   15.1170(8)
_cell_angle_alpha                90
_cell_angle_beta                 90
_cell_angle_gamma                90
_cell_volume                     2243.45
loop_
_atom_site_label
_atom_site_type_symbol
_atom_site_fract_x
_atom_site_fract_y
_atom_site_fract_z
Tb1 Tb 0.48048(6) 0.55139(5) 0.15538(5)
O1 O 0.5946(8) 0.4635(8) 0.0463(5)
O2 O 0.4015(8) 0.4250(8) 0.2620(5)
O3 O 0.6290(8) 0.4123(9) 0.1813(5)
O4 O 0.3810(9) 0.3848(9) 0.1209(5)
O5 O 0.6449(9) 0.6672(9) 0.1408(6)
O6 O 0.4217(8) 0.7490(8) 0.1657(6)
O7 O 0.2974(9) 0.6218(9) 0.1904(5)
C1 C 0.6523(12) 0.3997(12) 0.0970(7)
Zn1 Zn 0.70281(13) 0.32461(15) 0.27372(8)
H1 H 0.599(9) 0.711(9) 0.117(9)
H2 H 0.690(9) 0.704(9) 0.172(8)
O8 O 0.7194(9) 0.3332(9) 0.0677(5)
N1 N 0.8270(10) 0.2100(10) 0.2555(6)
N2 N 0.8537(6) 0.4176(9) 0.2762(6)
N3 N 0.6203(7) 0.1684(6) 0.2735(5)
C2 C 0.6395(14) 0.3530(15) 0.4545(8)
C3 C 0.8049(12) 0.1009(13) 0.2518(7)
C4 C 0.9299(13) 0.2410(13) 0.2475(7)
C5 C 0.8618(8) 0.5291(9) 0.2946(6)
C6 C 0.9479(8) 0.3565(7) 0.2599(6)
C7 C 0.5096(7) 0.1547(7) 0.2927(6)
C8 C 0.6878(6) 0.0772(8) 0.2638(6)
O9 O 0.7148(8) 0.2902(8) 0.4724(5)
C9 C 0.8852(15) 0.0232(15) 0.2345(9)
C10 C 1.0134(14) 0.1643(13) 0.2306(9)
H3 H 0.7988 0.5700 0.3055
C11 C 0.9642(10) 0.5795(7) 0.2967(7)
C12 C 1.0503(7) 0.4069(9) 0.2620(8)
H4 H 0.4644 0.2158 0.2992
C13 C 0.4663(6) 0.0498(9) 0.3022(7)
C14 C 0.6445(9) -0.0277(7) 0.2733(8)
H5 H 0.835(13) -0.046(13) 0.215(8)
C15 C 0.9917(13) 0.0520(13) 0.2236(7)
H6 H 1.0852 0.1889 0.2239
C16 C 1.0584(7) 0.5184(10) 0.2804(9)
H7 H 0.9696 0.6541 0.3090
H8 H 1.1133 0.3660 0.2511
C17 C 0.5338(9) -0.0414(6) 0.2925(8)
H9 H 0.3922 0.0407 0.3150
H10 H 0.6897 -0.0887 0.2668
C18 C 1.0799(8) -0.0286(7) 0.2110(5)
H11 H 1.1269 0.5521 0.2818
H12 H 0.5048 -0.1116 0.2988
C19 C 1.1903(9) -0.0002(6) 0.2084(5)
C20 C 1.0488(7) -0.1379(9) 0.2025(6)
H13 H 1.2112 0.0729 0.2140
C21 C 1.2697(6) -0.0810(8) 0.1973(6)
C22 C 1.1281(9) -0.2187(6) 0.1914(6)
H14 H 0.9749 -0.1569 0.2042
H15 H 1.3436 -0.0620 0.1956
C23 C 1.2386(8) -0.1903(7) 0.1888(6)
H16 H 1.1073 -0.2919 0.1857
C24 C 1.3276(13) -0.2783(12) 0.1805(7)
O1A O 0.5365(8) 0.5946(8) 0.2963(5)
O2C O 0.4250(8) 0.5985(8) 0.0120(5)
Tb1C Tb 0.55139(5) 0.51952(6) -0.09462(5)
Tb1A Tb 0.44861(5) 0.48048(6) 0.40538(5)
O4A O 0.6152(9) 0.3810(9) 0.3709(5)
O2A O 0.5750(8) 0.4015(8) 0.5120(5)
Tb1B Tb 0.51952(6) 0.44861(5) 0.65538(5)
O6_2 O 1.4217(8) -0.2510(8) 0.1657(6)
O7_2 O 1.2974(9) -0.3782(9) 0.1904(5)
Tb1_2 Tb 1.48048(6) -0.44861(5) 0.15538(5)
loop_
_geom_bond_atom_site_label_1
_geom_bond_atom_site_label_2
_geom_bond_site_symmetry_1
_geom_bond_site_symmetry_2
Tb1 O1 1_555 1_555
O1 C1 1_555 1_555
O2 Tb1 1_555 1_555
O3 Tb1 1_555 1_555
O4 Tb1 1_555 1_555
O5 Tb1 1_555 1_555
O6 Tb1 1_555 1_555
O7 Tb1 1_555 1_555
C1 O3 1_555 1_555
Zn1 O3 1_555 1_555
H1 O5 1_555 1_555
H2 O5 1_555 1_555
O8 C1 1_555 1_555
N1 Zn1 1_555 1_555
N2 Zn1 1_555 1_555
N3 Zn1 1_555 1_555
C2 O9 1_555 1_555
C3 N1 1_555 1_555
C4 N1 1_555 1_555
C5 N2 1_555 1_555
C6 N2 1_555 1_555
C7 N3 1_555 1_555
C8 N3 1_555 1_555
C9 C3 1_555 1_555
C10 C4 1_555 1_555
H3 C5 1_555 1_555
C11 C5 1_555 1_555
C12 C6 1_555 1_555
H4 C7 1_555 1_555
C13 C7 1_555 1_555
C14 C8 1_555 1_555
H5 C9 1_555 1_555
C15 C9 1_555 1_555
H6 C10 1_555 1_555
C16 C11 1_555 1_555
H7 C11 1_555 1_555
H8 C12 1_555 1_555
C17 C13 1_555 1_555
H9 C13 1_555 1_555
H10 C14 1_555 1_555
C18 C15 1_555 1_555
H11 C16 1_555 1_555
H12 C17 1_555 1_555
C19 C18 1_555 1_555
C20 C18 1_555 1_555
H13 C19 1_555 1_555
C21 C19 1_555 1_555
C22 C20 1_555 1_555
H14 C20 1_555 1_555
H15 C21 1_555 1_555
C23 C21 1_555 1_555
H16 C22 1_555 1_555
C24 C23 1_555 1_555
O1A Tb1 1_555 1_555
O2C Tb1 1_555 1_555
Tb1C O1 1_555 1_555
Tb1A O2 1_555 1_555
O4A Zn1 1_555 1_555
O2A C2 1_555 1_555
Tb1B O2A 1_555 1_555
O6_2 C24 1_555 1_555
O7_2 C24 1_555 1_555
Tb1_2 O6_2 1_555 1_555
C2 O4A 1_555 1_555
C3 C8 1_555 1_555
C4 C6 1_555 1_555
C10 C15 1_555 1_555
C12 C16 1_555 1_555
C14 C17 1_555 1_555
C22 C23 1_555 1_555
O1A Tb1A 1_555 1_555
O2C Tb1C 1_555 1_555
Tb1A O4A 1_555 1_555
Tb1A O2A 1_555 1_555
O7_2 Tb1_2 1_555 1_555

#END
