
#######################################################################
#
#                 Cambridge Crystallographic Data Centre
#                                CCDC 
#
#######################################################################
#
# If this CIF has been generated from an entry in the Cambridge 
# Structural Database, then it will include bibliographic, chemical, 
# crystal, experimental, refinement or atomic coordinate data resulting 
# from the CCDC's data processing and validation procedures.
#
#######################################################################

data_JUNSIW02
_symmetry_cell_setting           tetragonal
_symmetry_space_group_name_H-M   'P 41'
_symmetry_Int_Tables_number      76
_space_group_name_Hall           'P 4w'
loop_
_symmetry_equiv_pos_site_id
_symmetry_equiv_pos_as_xyz
1 x,y,z
2 -y,x,1/4+z
3 -x,-y,1/2+z
4 y,-x,3/4+z
_cell_length_a                   12.1584(5)
_cell_length_b                   12.1584(5)
_cell_length_c                   15.0541(7)
_cell_angle_alpha                90
_cell_angle_beta                 90
_cell_angle_gamma                90
_cell_volume                     2225.4
loop_
_atom_site_label
_atom_site_type_symbol
_atom_site_fract_x
_atom_site_fract_y
_atom_site_fract_z
Tb1 Tb 0.05032(3) 0.01966(3) 0.25641(3)
Zn1 Zn -0.20226(7) 0.17579(8) 0.12431(6)
O1 O -0.1137(5) 0.1191(4) 0.2230(4)
O2 O -0.1282(5) 0.0882(5) 0.0323(3)
O3 O -0.0751(4) 0.0981(4) 0.3635(4)
O4 O -0.0933(4) 0.0350(4) -0.1025(4)
O5 O -0.2156(4) 0.2094(4) 0.3239(4)
O6 O 0.1661(5) -0.1438(5) 0.2412(4)
H1 H 0.1314 -0.1955 0.2131
H2 H 0.1838 -0.1681 0.2934
O7 O -0.7981(5) 0.8779(5) 0.0430(4)
C1 C -0.1403(6) 0.1462(7) 0.3064(6)
N1 N -0.3539(3) 0.0833(4) 0.1278(5)
C2 C -0.3608(4) -0.0286(4) 0.1457(5)
H3 H -0.2973 -0.0689 0.1569
C3 C -0.4628(5) -0.0804(3) 0.1470(5)
H4 H -0.4674 -0.1552 0.1590
C4 C -0.5577(4) -0.0201(5) 0.1303(6)
H5 H -0.6260 -0.0548 0.1311
C5 C -0.5508(4) 0.0918(4) 0.1123(6)
H6 H -0.6143 0.1321 0.1012
C6 C -0.4488(4) 0.1435(3) 0.1111(5)
C7 C -0.8265(7) 0.7777(7) 0.0322(5)
N2 N -0.3266(3) 0.2906(3) 0.1069(3)
C8 C -0.4352(4) 0.2571(3) 0.0971(4)
C9 C -0.5171(3) 0.3344(4) 0.0814(4)
H7 H -0.5898 0.3120 0.0749
C10 C -0.4904(4) 0.4453(4) 0.0755(4)
C11 C -0.3817(4) 0.4789(3) 0.0853(4)
H8 H -0.3639 0.5531 0.0813
C12 C -0.2999(3) 0.4015(4) 0.1010(4)
O8 O -0.9246(4) 0.7524(4) 0.0168(4)
O9 O -0.2201(5) 0.1651(5) -0.0825(4)
N3 N -0.1197(4) 0.3327(3) 0.1252(4)
C13 C -0.0088(4) 0.3468(4) 0.1449(5)
H9 H 0.0365 0.2858 0.1517
C14 C 0.0342(3) 0.4521(5) 0.1543(6)
H10 H 0.1083 0.4615 0.1674
C15 C -0.0336(5) 0.5432(3) 0.1441(6)
H11 H -0.0048 0.6137 0.1503
C16 C -0.1444(4) 0.5291(3) 0.1244(6)
H12 H -0.1898 0.5902 0.1176
C17 C -0.1875(3) 0.4239(4) 0.1150(5)
C18 C -0.1491(7) 0.1006(7) -0.0526(6)
C19 C -0.7394(4) 0.6909(4) 0.0403(5)
C20 C -0.7697(3) 0.5811(4) 0.0481(5)
H13 H -0.8436 0.5614 0.0461
C21 C -0.6895(4) 0.5006(3) 0.0587(5)
H14 H -0.7098 0.4271 0.0638
C22 C -0.5791(4) 0.5300(4) 0.0616(5)
C23 C -0.5488(3) 0.6398(4) 0.0538(5)
H15 H -0.4749 0.6594 0.0558
C24 C -0.6289(4) 0.7203(3) 0.0432(5)
H16 H -0.6087 0.7937 0.0381
Tb1A Tb -0.01966(3) 0.05032(3) 0.50641(3)
Tb1B Tb -0.05032(3) -0.01966(3) -0.24359(3)
Tb1C Tb -0.98034(3) 0.94968(3) 0.00641(3)
Tb1C_2 Tb 0.01966(3) -0.05032(3) 0.00641(3)
O2A O -0.0882(5) -0.1282(5) 0.2823(3)
O3C O 0.0981(4) 0.0751(4) 0.1135(4)
O4A O -0.0350(4) -0.0933(4) 0.1475(4)
O4B O 0.0933(4) -0.0350(4) 0.3975(4)
O7A O 0.1221(5) 0.2019(5) 0.2930(4)
O8A O 0.2476(4) 0.0754(4) 0.2668(4)
loop_
_geom_bond_atom_site_label_1
_geom_bond_atom_site_label_2
_geom_bond_site_symmetry_1
_geom_bond_site_symmetry_2
Tb1 O1 1_555 1_555
Zn1 O1 1_555 1_555
O1 C1 1_555 1_555
O2 Zn1 1_555 1_555
O3 Tb1 1_555 1_555
O4 C18 1_555 1_555
O5 C1 1_555 1_555
O6 Tb1 1_555 1_555
H1 O6 1_555 1_555
H2 O6 1_555 1_555
O7 C7 1_555 1_555
C1 O3 1_555 1_555
N1 Zn1 1_555 1_555
C2 N1 1_555 1_555
H3 C2 1_555 1_555
C3 C2 1_555 1_555
H4 C3 1_555 1_555
C4 C3 1_555 1_555
H5 C4 1_555 1_555
C5 C4 1_555 1_555
H6 C5 1_555 1_555
C6 N1 1_555 1_555
C7 O8 1_555 1_555
N2 Zn1 1_555 1_555
C8 C6 1_555 1_555
C9 C8 1_555 1_555
H7 C9 1_555 1_555
C10 C9 1_555 1_555
C11 C10 1_555 1_555
H8 C11 1_555 1_555
C12 N2 1_555 1_555
O8 Tb1C 1_555 1_555
O9 C18 1_555 1_555
N3 Zn1 1_555 1_555
C13 N3 1_555 1_555
H9 C13 1_555 1_555
C14 C13 1_555 1_555
H10 C14 1_555 1_555
C15 C14 1_555 1_555
H11 C15 1_555 1_555
C16 C15 1_555 1_555
H12 C16 1_555 1_555
C17 C12 1_555 1_555
C18 O2 1_555 1_555
C19 C7 1_555 1_555
C20 C19 1_555 1_555
H13 C20 1_555 1_555
C21 C20 1_555 1_555
H14 C21 1_555 1_555
C22 C10 1_555 1_555
C23 C22 1_555 1_555
H15 C23 1_555 1_555
C24 C19 1_555 1_555
H16 C24 1_555 1_555
Tb1A O3 1_555 1_555
Tb1B O4 1_555 1_555
Tb1C O7 1_555 1_555
Tb1C_2 O2 1_555 1_555
O2A Tb1 1_555 1_555
O3C Tb1 1_555 1_555
O4A Tb1 1_555 1_555
O4B Tb1 1_555 1_555
O7A Tb1 1_555 1_555
O8A Tb1 1_555 1_555
O4 Tb1C_2 1_555 1_555
C5 C6 1_555 1_555
N2 C8 1_555 1_555
C11 C12 1_555 1_555
N3 C17 1_555 1_555
C16 C17 1_555 1_555
C21 C22 1_555 1_555
C23 C24 1_555 1_555
Tb1A O4B 1_555 1_555
Tb1C_2 O3C 1_555 1_555
Tb1C_2 O4A 1_555 1_555

#END
