
#######################################################################
#
#                 Cambridge Crystallographic Data Centre
#                                CCDC 
#
#######################################################################
#
# If this CIF has been generated from an entry in the Cambridge 
# Structural Database, then it will include bibliographic, chemical, 
# crystal, experimental, refinement or atomic coordinate data resulting 
# from the CCDC's data processing and validation procedures.
#
#######################################################################

data_JUNSAO
_symmetry_cell_setting           tetragonal
_symmetry_space_group_name_H-M   'P 43'
_symmetry_Int_Tables_number      78
_space_group_name_Hall           'P 4cw'
loop_
_symmetry_equiv_pos_site_id
_symmetry_equiv_pos_as_xyz
1 x,y,z
2 -y,x,3/4+z
3 -x,-y,1/2+z
4 y,-x,1/4+z
_cell_length_a                   12.1642(2)
_cell_length_b                   12.1642(2)
_cell_length_c                   14.9912(4)
_cell_angle_alpha                90
_cell_angle_beta                 90
_cell_angle_gamma                90
_cell_volume                     2218.21
loop_
_atom_site_label
_atom_site_type_symbol
_atom_site_fract_x
_atom_site_fract_y
_atom_site_fract_z
Tb1 Tb 0.45108(5) 0.51853(5) 0.62114(6)
Zn1 Zn 0.70175(14) 0.67669(16) 0.48960(12)
O1 O 0.6285(8) 0.5893(9) 0.3993(6)
O2 O 0.6099(8) 0.6186(9) 0.5897(6)
O3 O 0.5914(8) 0.5351(7) 0.2615(6)
O4 O 0.5728(7) 0.5982(7) 0.7299(6)
O5 O 1.4270(8) 1.2521(8) 0.3816(8)
C1 C 0.6492(14) 0.5987(16) 0.3099(12)
O6 O 0.7201(9) 0.6678(9) 0.2845(7)
O7 O 1.3033(10) 1.3780(10) 0.4088(7)
O8 O 0.7158(9) 0.7126(9) 0.6893(6)
O9 O 0.3376(10) 0.3574(9) 0.6035(8)
H1 H 0.2937 0.3656 0.5593
H2 H 0.2998 0.3475 0.6511
C2 C 0.6407(13) 0.6480(13) 0.6734(10)
C3 C 0.8614(7) 0.4715(8) 0.5108(8)
H3 H 0.7979 0.4309 0.5212
C4 C 0.9636(9) 0.4204(7) 0.5135(8)
H4 H 0.9685 0.3456 0.5256
C5 C 1.0585(7) 0.4811(9) 0.4979(10)
H5 H 1.1268 0.4470 0.4997
C6 C 1.0512(6) 0.5929(9) 0.4797(9)
H6 H 1.1147 0.6336 0.4693
C7 C 0.9490(8) 0.6440(7) 0.4770(7)
N1 N 0.8542(6) 0.5833(8) 0.4926(7)
C8 C 0.5082(7) 0.8488(8) 0.5085(7)
H7 H 0.4634 0.7872 0.5144
N2 N 0.6194(7) 0.8362(7) 0.4898(6)
C9 C 0.6863(6) 0.9282(9) 0.4809(7)
C10 C 0.6420(9) 1.0328(7) 0.4908(8)
H8 H 0.6867 1.0944 0.4849
C11 C 0.5308(10) 1.0454(7) 0.5095(8)
H9 H 0.5011 1.1154 0.5161
C12 C 0.4639(6) 0.9534(10) 0.5184(8)
H10 H 0.3895 0.9619 0.5309
C13 C 1.3313(18) 1.2777(14) 0.3972(11)
C14 C 0.9902(7) 0.9459(7) 0.4412(6)
C15 C 0.8821(7) 0.9806(6) 0.4522(6)
H11 H 0.8650 1.0550 0.4489
C16 C 0.7996(6) 0.9039(7) 0.4681(6)
N3 N 0.8252(6) 0.7927(7) 0.4729(5)
C17 C 0.9332(7) 0.7581(6) 0.4619(7)
C18 C 1.0157(6) 0.8347(8) 0.4460(7)
H12 H 1.0880 0.8116 0.4386
C19 C 1.1903(9) 1.0012(7) 0.4248(7)
H13 H 1.2098 0.9275 0.4299
C20 C 1.0803(8) 1.0318(8) 0.4289(7)
C21 C 1.0511(6) 1.1418(9) 0.4213(8)
H14 H 0.9775 1.1623 0.4241
C22 C 1.1319(9) 1.2214(7) 0.4096(8)
H15 H 1.1123 1.2950 0.4046
C23 C 1.2419(8) 1.1908(8) 0.4056(7)
C24 C 1.2711(7) 1.0807(9) 0.4131(7)
H16 H 1.3446 1.0603 0.4104
Tb1A Tb 0.48147(5) 0.45108(5) 0.37114(6)
Tb1A_2 Tb 1.48147(5) 1.45108(5) 0.37114(6)
Tb1B Tb 0.54892(5) 0.48147(5) 0.12114(6)
Tb1C Tb 0.51853(5) 0.54892(5) 0.87114(6)
O1C O 0.5893(9) 0.3715(8) 0.6493(6)
O3B O 0.4086(8) 0.4649(7) 0.7615(6)
O3C O 0.5351(7) 0.4086(8) 0.5115(6)
O4A O 0.4018(7) 0.5728(7) 0.4799(6)
O5C O 0.2521(8) 0.5730(8) 0.6316(8)
O7C O 0.3780(10) 0.6967(10) 0.6588(7)
loop_
_geom_bond_atom_site_label_1
_geom_bond_atom_site_label_2
_geom_bond_site_symmetry_1
_geom_bond_site_symmetry_2
Tb1 O2 1_555 1_555
Zn1 O1 1_555 1_555
O1 C1 1_555 1_555
O2 Zn1 1_555 1_555
O3 C1 1_555 1_555
O4 Tb1 1_555 1_555
O5 C13 1_555 1_555
C1 O6 1_555 1_555
O7 C13 1_555 1_555
O8 C2 1_555 1_555
O9 Tb1 1_555 1_555
H1 O9 1_555 1_555
H2 O9 1_555 1_555
C2 O2 1_555 1_555
C3 H3 1_555 1_555
C4 C3 1_555 1_555
H4 C4 1_555 1_555
C5 C4 1_555 1_555
H5 C5 1_555 1_555
C6 C5 1_555 1_555
H6 C6 1_555 1_555
C7 C6 1_555 1_555
N1 Zn1 1_555 1_555
C8 H7 1_555 1_555
N2 Zn1 1_555 1_555
C9 N2 1_555 1_555
C10 C9 1_555 1_555
H8 C10 1_555 1_555
C11 C10 1_555 1_555
H9 C11 1_555 1_555
C12 C8 1_555 1_555
H10 C12 1_555 1_555
C13 C23 1_555 1_555
C14 C15 1_555 1_555
C15 H11 1_555 1_555
C16 C9 1_555 1_555
N3 Zn1 1_555 1_555
C17 C7 1_555 1_555
C18 C14 1_555 1_555
H12 C18 1_555 1_555
C19 H13 1_555 1_555
C20 C14 1_555 1_555
C21 C20 1_555 1_555
H14 C21 1_555 1_555
C22 C21 1_555 1_555
H15 C22 1_555 1_555
C23 C22 1_555 1_555
C24 C19 1_555 1_555
H16 C24 1_555 1_555
Tb1A O1 1_555 1_555
Tb1A_2 O5 1_555 1_555
Tb1B O3 1_555 1_555
Tb1C O4 1_555 1_555
O1C Tb1 1_555 1_555
O3B Tb1 1_555 1_555
O3C Tb1 1_555 1_555
O4A Tb1 1_555 1_555
O5C Tb1 1_555 1_555
O7C Tb1 1_555 1_555
O3 Tb1A 1_555 1_555
O4 C2 1_555 1_555
O7 Tb1A_2 1_555 1_555
C3 N1 1_555 1_555
C7 N1 1_555 1_555
C8 N2 1_555 1_555
C11 C12 1_555 1_555
C15 C16 1_555 1_555
C16 N3 1_555 1_555
N3 C17 1_555 1_555
C17 C18 1_555 1_555
C19 C20 1_555 1_555
C23 C24 1_555 1_555
Tb1A O3C 1_555 1_555
Tb1A O4A 1_555 1_555
Tb1C O3B 1_555 1_555

#END
