
#######################################################################
#
#                 Cambridge Crystallographic Data Centre
#                                CCDC 
#
#######################################################################
#
# If this CIF has been generated from an entry in the Cambridge 
# Structural Database, then it will include bibliographic, chemical, 
# crystal, experimental, refinement or atomic coordinate data resulting 
# from the CCDC's data processing and validation procedures.
#
#######################################################################

data_JUPDIJ
_symmetry_cell_setting           monoclinic
_symmetry_space_group_name_H-M   'P 21'
_symmetry_Int_Tables_number      4
_space_group_name_Hall           'P 2yb'
loop_
_symmetry_equiv_pos_site_id
_symmetry_equiv_pos_as_xyz
1 x,y,z
2 -x,1/2+y,-z
_cell_length_a                   7.5555(2)
_cell_length_b                   18.9892(4)
_cell_length_c                   11.4893(3)
_cell_angle_alpha                90
_cell_angle_beta                 99.658(3)
_cell_angle_gamma                90
_cell_volume                     1625.04
loop_
_atom_site_label
_atom_site_type_symbol
_atom_site_fract_x
_atom_site_fract_y
_atom_site_fract_z
Zn1 Zn 0.48470(8) 0.61137(3) 0.06976(5)
Zn2 Zn 0.74842(9) 0.48875(3) 0.15582(6)
Zn3 Zn 0.72184(9) 0.59625(3) 0.35838(5)
Zn4 Zn 0.98137(9) 0.47148(3) 0.44645(5)
C1 C -0.3341(8) 0.4906(3) -0.4305(5)
C2 C 0.7900(7) 0.3572(3) 0.3045(5)
C3 C 0.3513(8) 0.3495(3) -0.1199(5)
H1 H 0.4459 0.3327 -0.0645
C4 C 0.8599(8) 0.2338(3) 0.3762(5)
H2 H 0.9488 0.2530 0.4332
C5 C 0.1853(8) 0.1007(4) 0.0425(5)
C6 C 0.4186(8) 0.4696(3) -0.0336(5)
C7 C 0.6185(8) 0.2514(3) 0.2128(5)
H3 H 0.5462 0.2815 0.1615
C8 C 0.2582(8) 0.3036(3) -0.2011(5)
C9 C 0.7488(8) 0.2770(3) 0.2955(5)
C10 C 0.3060(7) 0.4207(3) -0.1196(5)
C11 C 0.1163(8) 0.3297(3) -0.2831(5)
H4 H 0.0508 0.2996 -0.3379
C12 C 0.5937(8) 0.1792(3) 0.2053(5)
C13 C 0.8321(7) 0.1607(3) 0.3681(5)
C14 C 0.3118(8) 0.2277(3) -0.2010(5)
C15 C 0.9479(7) 0.1123(3) 0.4512(4)
C16 C 0.0727(8) 0.4008(3) -0.2829(5)
C17 C 0.6955(8) 0.1345(3) 0.2823(5)
H5 H 0.6735 0.0863 0.2775
C18 C 0.1629(7) 0.4465(3) -0.2010(5)
H6 H 0.1292 0.4936 -0.1999
C19 C -0.2222(9) 0.4474(5) -0.3328(6)
H7 H -0.1892 0.4780 -0.2638
C20 C 0.2818(8) 0.1603(4) 0.1201(6)
H8 H 0.2465 0.2054 0.0818
C21 C 0.2364(11) 0.1616(5) 0.2385(7)
H9 H 0.2991 0.1997 0.2825
H10 H 0.2709 0.1179 0.2776
H11 H 0.1094 0.1683 0.2332
C22 C -0.3159(19) 0.3836(7) -0.2951(13)
H12 H -0.2372 0.3595 -0.2336
H13 H -0.3478 0.3526 -0.3613
H14 H -0.4225 0.3979 -0.2663
O1 O 0.5651(6) 0.4480(2) 0.0189(4)
O2 O 1.0938(5) 0.1388(2) 0.5048(4)
O3 O 0.9140(5) 0.5303(2) 0.2976(3)
O4 O 0.5515(5) 0.5544(2) 0.2191(3)
O5 O 0.4673(5) 0.1491(2) 0.1174(3)
O6 O -0.0609(6) 0.4246(2) -0.3707(4)
O7 O 0.9176(7) 0.3749(2) 0.3822(4)
O8 O 0.4388(6) 0.2094(2) -0.1281(4)
O9 O 0.2561(6) 0.0826(2) -0.0464(4)
O10 O 0.2178(6) 0.1882(2) -0.2771(4)
O11 O 0.8943(6) 0.0510(2) 0.4565(4)
O12 O 0.3539(5) 0.5308(2) -0.0228(4)
O13 O 0.5040(6) 0.6325(3) 0.4406(4)
O14 O -0.2730(5) 0.4991(2) -0.5248(3)
O15 O 0.9694(6) 0.4530(3) 0.0747(4)
O16 O 0.6916(7) 0.3956(2) 0.2356(4)
O17 O 1.2479(6) 0.4298(3) 0.4672(5)
O18 O 0.2243(6) 0.6569(3) 0.0442(4)
O19 O 0.0464(6) 0.0754(3) 0.0650(4)
O20 O -0.4773(6) 0.5150(3) -0.4116(4)
Zn1A Zn 0.51530(8) 0.11137(3) -0.06976(5)
Zn2A Zn 0.25158(9) -0.01125(3) -0.15582(6)
Zn3_2 Zn -0.27816(9) 0.59625(3) -0.64162(5)
Zn3A Zn 0.27816(9) 0.09625(3) -0.35838(5)
Zn3A_2 Zn 1.27816(9) 0.09625(3) 0.64162(5)
Zn4_2 Zn -0.01863(9) 0.47148(3) -0.55355(5)
Zn4A Zn 1.01863(9) -0.02852(3) 0.55355(5)
O2A O 0.9062(5) 0.6388(2) 0.4952(4)
O5A O 0.5327(5) 0.6491(2) -0.1174(3)
O6_2 O 0.9391(6) 0.4246(2) 0.6293(4)
O8A O 0.5612(6) 0.7094(2) 0.1281(4)
O9A O 0.7439(6) 0.5826(2) 0.0464(4)
O10A O 0.7822(6) 0.6882(2) 0.2771(4)
O11A O 1.1057(6) 0.5510(2) 0.5435(4)
O14_2 O 0.7270(5) 0.4991(2) 0.4752(3)
O21 O 1.1682(7) 0.6510(3) 0.2868(5)
O22 O 0.3068(8) 0.4279(4) 0.2247(5)
O23 O 1.3259(11) 0.2810(4) 0.4917(7)
O24 O 0.1380(16) 0.8034(5) 0.0053(10)
loop_
_geom_bond_atom_site_label_1
_geom_bond_atom_site_label_2
_geom_bond_site_symmetry_1
_geom_bond_site_symmetry_2
Zn1 O4 1_555 1_555
Zn2 O1 1_555 1_555
Zn3 O3 1_555 1_555
Zn4 O3 1_555 1_555
C1 C19 1_555 1_555
C2 C9 1_555 1_555
C3 H1 1_555 1_555
C4 H2 1_555 1_555
C5 C20 1_555 1_555
C6 C10 1_555 1_555
C7 H3 1_555 1_555
C8 C3 1_555 1_555
C9 C4 1_555 1_555
C10 C3 1_555 1_555
C11 C8 1_555 1_555
H4 C11 1_555 1_555
C12 C7 1_555 1_555
C13 C4 1_555 1_555
C14 C8 1_555 1_555
C15 C13 1_555 1_555
C16 C11 1_555 1_555
C17 C12 1_555 1_555
H5 C17 1_555 1_555
C18 C10 1_555 1_555
H6 C18 1_555 1_555
C19 H7 1_555 1_555
C20 H8 1_555 1_555
C21 C20 1_555 1_555
H9 C21 1_555 1_555
H10 C21 1_555 1_555
H11 C21 1_555 1_555
C22 C19 1_555 1_555
H12 C22 1_555 1_555
H13 C22 1_555 1_555
H14 C22 1_555 1_555
O1 C6 1_555 1_555
O2 C15 1_555 1_555
O3 Zn2 1_555 1_555
O4 Zn2 1_555 1_555
O5 C12 1_555 1_555
O6 C16 1_555 1_555
O7 Zn4 1_555 1_555
O8 C14 1_555 1_555
O9 C5 1_555 1_555
O10 C14 1_555 1_555
O11 C15 1_555 1_555
O12 Zn1 1_555 1_555
O13 Zn3 1_555 1_555
O14 C1 1_555 1_555
O15 Zn2 1_555 1_555
O16 Zn2 1_555 1_555
O17 Zn4 1_555 1_555
O18 Zn1 1_555 1_555
O19 C5 1_555 1_555
O20 C1 1_555 1_555
Zn1A O5 1_555 1_555
Zn2A O9 1_555 1_555
Zn3_2 O14 1_555 1_555
Zn3A O10 1_555 1_555
Zn3A_2 O2 1_555 1_555
Zn4_2 O6 1_555 1_555
Zn4A O11 1_555 1_555
O2A Zn3 1_555 1_555
O5A Zn1 1_555 1_555
O6_2 Zn4 1_555 1_555
O8A Zn1 1_555 1_555
O9A Zn1 1_555 1_555
O10A Zn3 1_555 1_555
O11A Zn4 1_555 1_555
O14_2 Zn3 1_555 1_555
Zn2 O9A 1_555 1_555
Zn3 O4 1_555 1_555
Zn4 O14_2 1_555 1_555
C2 O7 1_555 1_555
C2 O16 1_555 1_555
C6 O12 1_555 1_555
C7 C9 1_555 1_555
C13 C17 1_555 1_555
C16 C18 1_555 1_555
C19 O6 1_555 1_555
C20 O5 1_555 1_555
O8 Zn1A 1_555 1_555
O9 Zn1A 1_555 1_555
O14 Zn4_2 1_555 1_555

#END
