
#######################################################################
#
#                 Cambridge Crystallographic Data Centre
#                                CCDC 
#
#######################################################################
#
# If this CIF has been generated from an entry in the Cambridge 
# Structural Database, then it will include bibliographic, chemical, 
# crystal, experimental, refinement or atomic coordinate data resulting 
# from the CCDC's data processing and validation procedures.
#
#######################################################################

data_JUPFOP
_symmetry_cell_setting           orthorhombic
_symmetry_space_group_name_H-M   'P b c n'
_symmetry_Int_Tables_number      60
_space_group_name_Hall           '-P 2n 2ab'
loop_
_symmetry_equiv_pos_site_id
_symmetry_equiv_pos_as_xyz
1 x,y,z
2 1/2+x,1/2+y,1/2-z
3 x,-y,1/2+z
4 1/2-x,1/2+y,z
5 -x,-y,-z
6 1/2-x,1/2-y,1/2+z
7 -x,y,1/2-z
8 1/2+x,1/2-y,-z
_cell_length_a                   22.7015(3)
_cell_length_b                   12.1200(2)
_cell_length_c                   12.9889(2)
_cell_angle_alpha                90
_cell_angle_beta                 90
_cell_angle_gamma                90
_cell_volume                     3573.79
loop_
_atom_site_label
_atom_site_type_symbol
_atom_site_fract_x
_atom_site_fract_y
_atom_site_fract_z
Ag1 Ag 0.058106(18) 0.50977(3) 0.04679(3)
Ag2 Ag 0.25157(2) 0.25008(4) -0.20046(5)
O1 O 0.01205(19) 0.6814(3) 0.0795(3)
O2 O 0.0171(2) 0.3320(4) 0.0820(4)
N1 N 0.11572(19) 0.4961(3) -0.2979(3)
N2 N 0.19059(19) 0.6004(4) -0.2034(3)
N3 N 0.11393(18) 0.4992(3) -0.1101(3)
N4 N 0.19128(18) 0.3979(4) -0.2012(3)
C1 C 0.1530(2) 0.5957(4) -0.2967(4)
H1 H 0.3221 0.0962 -0.3575
H2 H 0.3718 0.1607 -0.2991
C2 C 0.1516(2) 0.5987(4) -0.1125(4)
H3 H 0.1754 0.6011 -0.0505
H4 H 0.1267 0.6638 -0.1132
C3 C 0.4218(2) -0.0028(4) -0.2048(4)
H5 H 0.4467 -0.0679 -0.2046
H6 H 0.4472 0.0616 -0.2064
C4 C 0.3459(2) -0.1025(4) -0.2945(4)
H7 H 0.3210 -0.1039 -0.3552
H8 H 0.3701 -0.1685 -0.2951
C5 C 0.2280(2) 0.4988(4) -0.2015(4)
H9 H 0.2474 -0.0002 -0.1405
H10 H 0.2465 -0.0018 -0.2614
C6 C 0.1526(2) 0.4000(4) -0.1088(4)
H11 H 0.1766 0.4007 -0.0471
H12 H 0.1284 0.3339 -0.1074
C7 C -0.0078(2) 0.7220(5) -0.0012(5)
C8 C -0.0222(3) 0.8434(5) -0.0039(5)
H13 H -0.0369 0.8626 -0.0708
H14 H 0.0128 0.8853 0.0102
H15 H -0.0515 0.8597 0.0472
Ag1D Ag -0.058106(18) 0.49023(3) -0.04679(3)
O1D O -0.01205(19) 0.3186(3) -0.0795(3)
C7D C 0.0078(2) 0.2780(5) 0.0012(5)
O2D O -0.0171(2) 0.6680(4) -0.0820(4)
N1F N -0.11572(19) 0.4961(3) -0.2021(3)
Ag1B Ag 0.058106(18) 0.49023(3) -0.45321(3)
N1B N 0.11572(19) 0.5039(3) 0.2021(3)
Ag2C Ag 0.24843(2) 0.75008(4) -0.20046(5)
N2C N 0.30941(19) 0.1004(4) -0.2034(3)
C1C C 0.3470(2) 0.0957(4) -0.2967(4)
N1C N 0.38428(19) -0.0039(3) -0.2979(3)
Ag1E Ag 0.441894(18) -0.00977(3) -0.45321(3)
N3C N 0.38607(18) -0.0008(3) -0.1101(3)
Ag1C Ag 0.441894(18) 0.00977(3) 0.04679(3)
C2C C 0.3484(2) 0.0987(4) -0.1125(4)
C5C C 0.2720(2) -0.0012(4) -0.2015(4)
N4C N 0.30872(18) -0.1021(4) -0.2012(3)
Ag2C_2 Ag 0.24843(2) -0.24992(4) -0.20046(5)
N2_2 N 0.19059(19) -0.3996(4) -0.2034(3)
C6C C 0.3474(2) -0.1000(4) -0.1088(4)
H11C H 0.3234 -0.0993 -0.0471
H12C H 0.3716 -0.1661 -0.1074
H3C H 0.3246 0.1011 -0.0505
H4C H 0.3733 0.1638 -0.1132
C4C C 0.1541(2) 0.3975(4) -0.2945(4)
C3C C 0.0782(2) 0.4972(4) -0.2048(4)
H5C H 0.0533 0.4321 -0.2046
H6C H 0.0528 0.5616 -0.2064
H7C H 0.1790 0.3961 -0.3552
H8C H 0.1299 0.3315 -0.2951
H9C H 0.2526 0.4998 -0.1405
H10C H 0.2535 0.4982 -0.2614
H1C H 0.1779 0.5962 -0.3575
H2C H 0.1282 0.6607 -0.2991
N3D N -0.11393(18) 0.5008(3) 0.1101(3)
C8D C 0.0222(3) 0.1566(5) 0.0039(5)
H13D H 0.0369 0.1374 0.0708
H14D H -0.0128 0.1147 -0.0102
H15D H 0.0515 0.1403 -0.0472
C9 C 0.2978(3) 0.6310(6) 0.5431(6)
C10 C 0.3625(3) 0.6194(7) 0.5367(7)
H16 H 0.3731 0.5435 0.5473
H17 H 0.3807 0.6642 0.5886
H18 H 0.3758 0.6427 0.4699
O3 O 0.2662(2) 0.5434(4) 0.5480(4)
O4 O 0.2753(3) 0.7203(5) 0.5321(10)
O5 O 0.1435(3) 0.1239(6) 0.2551(6)
H19 H 0.1001 0.1198 0.2592
H20 H 0.1496 0.1492 0.1743
O6 O 0.1808(3) 0.1511(5) 0.0426(7)
H21 H 0.1989 0.1653 0.1158
H22 H 0.2089 0.1730 -0.0033
O7 O 0.1461(3) 0.8742(6) 0.3232(6)
H23 H 0.1194 0.8369 0.2894
H24 H 0.1302 0.9401 0.3259
O8 O 0.0289(4) 0.8013(8) 0.2510(8)
O9 O 0.0277(5) 0.2113(8) 0.2568(8)
O10 O 0.0385(10) 0.0086(12) 0.258(2)
O8F O -0.0289(4) 0.8013(8) 0.2490(8)
O9F O -0.0277(5) 0.2113(8) 0.2432(8)
loop_
_geom_bond_atom_site_label_1
_geom_bond_atom_site_label_2
_geom_bond_site_symmetry_1
_geom_bond_site_symmetry_2
Ag1 O1 1_555 1_555
Ag2 N4 1_555 1_555
O1 C7 1_555 1_555
O2 Ag1 1_555 1_555
N1 C1 1_555 1_555
N2 C1 1_555 1_555
N3 Ag1 1_555 1_555
N4 C5 1_555 1_555
C1 H1C 1_555 1_555
H1 C1C 1_555 1_555
H2 C1C 1_555 1_555
C2 N2 1_555 1_555
H3 C2 1_555 1_555
H4 C2 1_555 1_555
C3 H5 1_555 1_555
H6 C3 1_555 1_555
C4 H7 1_555 1_555
H8 C4 1_555 1_555
C5 N2 1_555 1_555
H9 C5C 1_555 1_555
H10 C5C 1_555 1_555
C6 N3 1_555 1_555
H11 C6 1_555 1_555
H12 C6 1_555 1_555
C7 C8 1_555 1_555
C8 H13 1_555 1_555
H14 C8 1_555 1_555
H15 C8 1_555 1_555
C9 C10 1_555 1_555
C10 H16 1_555 1_555
H17 C10 1_555 1_555
H18 C10 1_555 1_555
O3 C9 1_555 1_555
O4 C9 1_555 1_555
O5 H19 1_555 1_555
H20 O5 1_555 1_555
O6 H21 1_555 1_555
H22 O6 1_555 1_555
O7 H23 1_555 1_555
H24 O7 1_555 1_555
Ag1D Ag1 1_555 1_555
O1D Ag1D 1_555 1_555
C7D O2 1_555 1_555
O2D C7 1_555 1_555
N1F Ag1D 1_555 1_555
Ag1B N1 1_555 1_555
N1B Ag1 1_555 1_555
Ag2C N2 1_555 1_555
N2C Ag2 1_555 1_555
C1C N2C 1_555 1_555
N1C C3 1_555 1_555
Ag1E N1C 1_555 1_555
N3C C3 1_555 1_555
Ag1C N3C 1_555 1_555
C2C N2C 1_555 1_555
C5C N2C 1_555 1_555
N4C C4 1_555 1_555
Ag2C_2 N4C 1_555 1_555
N2_2 Ag2C_2 1_555 1_555
C6C N3C 1_555 1_555
H11C C6C 1_555 1_555
H12C C6C 1_555 1_555
H3C C2C 1_555 1_555
H4C C2C 1_555 1_555
C4C N1 1_555 1_555
C3C N1 1_555 1_555
H5C C3C 1_555 1_555
H6C C3C 1_555 1_555
H7C C4C 1_555 1_555
H8C C4C 1_555 1_555
H9C C5 1_555 1_555
H10C C5 1_555 1_555
H2C C1 1_555 1_555
N3D Ag1D 1_555 1_555
C8D C7D 1_555 1_555
H13D C8D 1_555 1_555
H14D C8D 1_555 1_555
H15D C8D 1_555 1_555
N3 C2 1_555 1_555
N3 C3C 1_555 1_555
N4 C6 1_555 1_555
N4 C4C 1_555 1_555
C4 N1C 1_555 1_555
Ag1D O2D 1_555 1_555
O1D C7D 1_555 1_555
C1C N1C 1_555 1_555
N3C C2C 1_555 1_555
C5C N4C 1_555 1_555
N4C C6C 1_555 1_555

#END
