
#######################################################################
#
#                 Cambridge Crystallographic Data Centre
#                                CCDC 
#
#######################################################################
#
# If this CIF has been generated from an entry in the Cambridge 
# Structural Database, then it will include bibliographic, chemical, 
# crystal, experimental, refinement or atomic coordinate data resulting 
# from the CCDC's data processing and validation procedures.
#
#######################################################################

data_JUPJEL
_symmetry_cell_setting           monoclinic
_symmetry_space_group_name_H-M   'P 21/c'
_symmetry_Int_Tables_number      14
_space_group_name_Hall           '-P 2ybc'
loop_
_symmetry_equiv_pos_site_id
_symmetry_equiv_pos_as_xyz
1 x,y,z
2 -x,1/2+y,1/2-z
3 -x,-y,-z
4 x,1/2-y,1/2+z
_cell_length_a                   12.9849(10)
_cell_length_b                   15.2863(11)
_cell_length_c                   14.7251(10)
_cell_angle_alpha                90
_cell_angle_beta                 111.355(2)
_cell_angle_gamma                90
_cell_volume                     2722.13
loop_
_atom_site_label
_atom_site_type_symbol
_atom_site_fract_x
_atom_site_fract_y
_atom_site_fract_z
Gd1 Gd 0.444024(8) 0.268665(6) 0.506937(7)
Gd2 Gd 0.573425(8) 0.264158(6) 0.295749(6)
O1 O 0.61037(12) 0.27542(9) 0.47466(10)
O2 O 0.71658(13) 0.18703(10) 0.43025(11)
O3 O 0.73848(13) 0.26881(9) 0.74303(11)
O4 O 0.54388(12) 0.38319(9) 0.74728(11)
O5 O 0.51421(12) 0.60504(9) 0.69740(10)
O6 O 0.60261(12) 0.60811(9) 0.59257(10)
O7 O 0.55375(12) 0.39224(9) 0.59964(10)
O8 O 0.30047(12) 0.33963(9) 0.55596(10)
O9 O 0.39796(12) 0.23708(9) 0.65363(10)
O10 O 0.59196(11) 0.20153(9) 0.64059(10)
O11 O 0.42507(11) 0.28649(9) 0.84202(10)
O12 O 0.26662(12) 0.26789(9) 0.85954(11)
O13 O 0.70869(14) 0.37952(10) 0.34130(12)
O14 O 0.41885(14) 0.10951(10) 0.49955(12)
C1 C 0.69080(17) 0.22006(12) 0.49602(15)
C2 C 0.75521(16) 0.19886(13) 0.60177(14)
C3 C 0.79360(19) 0.10087(14) 0.61741(16)
H1 H 0.7963 0.0761 0.6804
H2 H 0.7521 0.0620 0.5625
C4 C 0.9073(2) 0.12931(17) 0.61706(19)
H3 H 0.9171 0.1182 0.5545
H4 H 0.9705 0.1060 0.6726
C5 C 0.87835(18) 0.22556(15) 0.63063(17)
H5 H 0.8919 0.2668 0.5843
H6 H 0.9126 0.2469 0.6985
C6 C 0.69425(17) 0.22782(12) 0.66630(14)
C7 C 0.58466(16) 0.57693(12) 0.66448(14)
C8 C 0.57850(16) 0.41871(12) 0.68577(14)
C9 C 0.65320(16) 0.49921(12) 0.71851(14)
C10 C 0.77047(17) 0.48671(14) 0.71402(16)
H7 H 0.7780 0.4329 0.6795
H8 H 0.7979 0.5385 0.6893
C11 C 0.81786(18) 0.47815(16) 0.82635(17)
H9 H 0.8345 0.4171 0.8496
H10 H 0.8820 0.5168 0.8587
C12 C 0.70839(17) 0.51303(13) 0.83047(15)
H11 H 0.7118 0.5750 0.8508
H12 H 0.6770 0.4759 0.8690
C13 C 0.32390(16) 0.29706(13) 0.63372(14)
C14 C 0.25932(16) 0.31125(12) 0.69977(14)
C15 C 0.13926(17) 0.27240(13) 0.65436(16)
H13 H 0.1181 0.2548 0.5852
H14 H 0.1248 0.2245 0.6934
C16 C 0.09028(18) 0.36125(15) 0.66813(17)
H15 H 0.0338 0.3843 0.6076
H16 H 0.0626 0.3618 0.7225
C17 C 0.20440(17) 0.40394(13) 0.69360(15)
H17 H 0.2297 0.4358 0.7564
H18 H 0.2106 0.4413 0.6409
C18 C 0.31914(16) 0.28544(12) 0.80566(14)
H19 H 0.413(3) 0.078(3) 0.450(3)
H20 H 0.775(3) 0.366(2) 0.358(2)
H21 H 0.703(3) 0.411(3) 0.387(3)
H22 H 0.456(3) 0.082(2) 0.545(3)
Gd1B Gd 0.555976(8) 0.731335(6) 0.493063(7)
Gd1C Gd 0.444024(8) 0.231335(6) 1.006937(7)
Gd2B Gd 0.426575(8) 0.735842(6) 0.704251(6)
Gd2C Gd 0.573425(8) 0.235842(6) 0.795749(6)
O3C O 0.73848(13) 0.23119(9) 0.24303(11)
O4C O 0.54388(12) 0.11681(9) 0.24728(11)
O5B O 0.48579(12) 0.39496(9) 0.30260(10)
O6B O 0.39739(12) 0.39189(9) 0.40743(10)
O9C O 0.39796(12) 0.26292(9) 0.15363(10)
O10C O 0.59196(11) 0.29847(9) 0.14059(10)
O11C O 0.42507(11) 0.21351(9) 0.34202(10)
O12C O 0.26662(12) 0.23211(9) 0.35954(11)
O15 O 0.44829(14) 0.00444(11) 0.35114(12)
H23 H 0.484(3) 0.034(2) 0.319(2)
H24 H 0.417(3) -0.030(2) 0.316(2)
O16 O -0.06918(16) 0.34355(14) 0.40119(18)
H25 H -0.0446 0.2933 0.3980
C19 C 0.0115(3) 0.4077(2) 0.4011(2)
H26 H -0.0059 0.4637 0.4248
H27 H 0.0104 0.4151 0.3347
H28 H 0.0851 0.3883 0.4440
O17 O 0.07200(16) 0.20675(13) 0.39566(15)
H29 H 0.1206 0.2235 0.3744
C20 C 0.0963(2) 0.12017(19) 0.4326(2)
H30 H 0.1747 0.1160 0.4738
H31 H 0.0798 0.0790 0.3781
H32 H 0.0510 0.1059 0.4713
O18 O 0.68152(17) 0.47079(12) 0.48254(13)
H33 H 0.638(3) 0.449(3) 0.510(3)
H34 H 0.676(3) 0.519(3) 0.484(3)
loop_
_geom_bond_atom_site_label_1
_geom_bond_atom_site_label_2
_geom_bond_site_symmetry_1
_geom_bond_site_symmetry_2
Gd1 O1 1_555 1_555
Gd2 O1 1_555 1_555
O1 C1 1_555 1_555
O2 Gd2 1_555 1_555
O3 C6 1_555 1_555
O4 C8 1_555 1_555
O5 C7 1_555 1_555
O6 C7 1_555 1_555
O7 Gd1 1_555 1_555
O8 Gd1 1_555 1_555
O9 Gd1 1_555 1_555
O10 Gd1 1_555 1_555
O11 C18 1_555 1_555
O12 C18 1_555 1_555
O13 Gd2 1_555 1_555
O14 Gd1 1_555 1_555
C1 O2 1_555 1_555
C2 C1 1_555 1_555
C3 C2 1_555 1_555
H1 C3 1_555 1_555
H2 C3 1_555 1_555
C4 C3 1_555 1_555
H3 C4 1_555 1_555
H4 C4 1_555 1_555
C5 C2 1_555 1_555
H5 C5 1_555 1_555
H6 C5 1_555 1_555
C6 O10 1_555 1_555
C7 C9 1_555 1_555
C8 O7 1_555 1_555
C9 C8 1_555 1_555
C10 C9 1_555 1_555
H7 C10 1_555 1_555
H8 C10 1_555 1_555
C11 C10 1_555 1_555
H9 C11 1_555 1_555
H10 C11 1_555 1_555
C12 C9 1_555 1_555
H11 C12 1_555 1_555
H12 C12 1_555 1_555
C13 O8 1_555 1_555
C14 C13 1_555 1_555
C15 C14 1_555 1_555
H13 C15 1_555 1_555
H14 C15 1_555 1_555
C16 C15 1_555 1_555
H15 C16 1_555 1_555
H16 C16 1_555 1_555
C17 C14 1_555 1_555
H17 C17 1_555 1_555
H18 C17 1_555 1_555
C18 C14 1_555 1_555
H19 O14 1_555 1_555
H20 O13 1_555 1_555
H21 O13 1_555 1_555
H22 O14 1_555 1_555
O15 H23 1_555 1_555
H24 O15 1_555 1_555
O16 H25 1_555 1_555
C19 O16 1_555 1_555
H26 C19 1_555 1_555
H27 C19 1_555 1_555
H28 C19 1_555 1_555
O17 H29 1_555 1_555
C20 O17 1_555 1_555
H30 C20 1_555 1_555
H31 C20 1_555 1_555
H32 C20 1_555 1_555
O18 H33 1_555 1_555
H34 O18 1_555 1_555
Gd1B O6 1_555 1_555
Gd1C O11 1_555 1_555
Gd2B O5 1_555 1_555
Gd2C O3 1_555 1_555
O3C Gd2 1_555 1_555
O4C Gd2 1_555 1_555
O5B Gd2 1_555 1_555
O6B Gd1 1_555 1_555
O9C Gd2 1_555 1_555
O10C Gd2 1_555 1_555
O11C Gd1 1_555 1_555
O12C Gd1 1_555 1_555
Gd2 O11C 1_555 1_555
O4 Gd2C 1_555 1_555
O9 C13 1_555 1_555
O9 Gd2C 1_555 1_555
O10 Gd2C 1_555 1_555
O11 Gd2C 1_555 1_555
O12 Gd1C 1_555 1_555
C2 C6 1_555 1_555
C4 C5 1_555 1_555
C11 C12 1_555 1_555
C16 C17 1_555 1_555

#END
