
#######################################################################
#
#                 Cambridge Crystallographic Data Centre
#                                CCDC 
#
#######################################################################
#
# If this CIF has been generated from an entry in the Cambridge 
# Structural Database, then it will include bibliographic, chemical, 
# crystal, experimental, refinement or atomic coordinate data resulting 
# from the CCDC's data processing and validation procedures.
#
#######################################################################

data_JUQFOS01
_symmetry_cell_setting           triclinic
_symmetry_space_group_name_H-M   'P -1'
_symmetry_Int_Tables_number      2
_space_group_name_Hall           '-P 1'
loop_
_symmetry_equiv_pos_site_id
_symmetry_equiv_pos_as_xyz
1 x,y,z
2 -x,-y,-z
_cell_length_a                   8.374(2)
_cell_length_b                   8.6508(8)
_cell_length_c                   10.131(3)
_cell_angle_alpha                74.63(3)
_cell_angle_beta                 79.21(3)
_cell_angle_gamma                81.02(3)
_cell_volume                     690.742
loop_
_atom_site_label
_atom_site_type_symbol
_atom_site_fract_x
_atom_site_fract_y
_atom_site_fract_z
Fe1 Fe 0.0000 1.0000 0.0000
O1 O 0.17063(19) 1.03232(19) -0.18268(16)
N1 N 0.2647(2) 1.26260(19) 0.17375(17)
N2 N 0.2444(2) 1.3701(2) 0.05160(17)
N3 N 0.1513(2) 1.3119(2) -0.00663(18)
N4 N 0.1105(2) 1.16585(19) 0.07475(17)
N5 N 0.2694(2) 1.58399(19) 0.23600(17)
N6 N 0.3846(2) 1.6881(2) 0.19899(18)
N7 N 0.3239(2) 1.8183(2) 0.11931(18)
N8 N 0.1690(2) 1.80151(19) 0.10380(17)
C1 C 0.1817(2) 1.1389(2) 0.1856(2)
H1 H 0.1749 1.0466 0.2614
C2 C 0.3737(2) 1.2887(2) 0.2652(2)
C3 C 0.2933(3) 1.4263(2) 0.3333(2)
H2 H 0.1856 1.3980 0.3864
H3 H 0.3619 1.4352 0.4001
C4 C 0.1391(3) 1.6560(2) 0.1771(2)
H4 H 0.0405 1.6099 0.1863
C5 C 0.5390(3) 1.3233(2) 0.1772(2)
H5 H 0.5871 1.2306 0.1390
H6 H 0.6122 1.3426 0.2347
H7 H 0.5240 1.4191 0.1012
C6 C 0.3904(3) 1.1356(2) 0.3814(2)
H8 H 0.2822 1.1143 0.4342
H9 H 0.4613 1.1500 0.4430
H10 H 0.4386 1.0442 0.3414
H11 H 0.166(3) 0.990(3) -0.243(3)
H12 H 0.213(4) 1.113(4) -0.219(3)
O1A O -0.17063(19) 0.96768(19) 0.18268(16)
N1A N -0.2647(2) 0.73740(19) -0.17375(17)
N2A N -0.2444(2) 0.6299(2) -0.05160(17)
N3A N -0.1513(2) 0.6881(2) 0.00663(18)
N4A N -0.1105(2) 0.83415(19) -0.07475(17)
N5A N -0.2694(2) 0.41601(19) -0.23600(17)
N6A N -0.3846(2) 0.3119(2) -0.19899(18)
N7A N -0.3239(2) 0.1817(2) -0.11931(18)
N8A N -0.1690(2) 0.19849(19) -0.10380(17)
C1A C -0.1817(2) 0.8611(2) -0.1856(2)
H1A H -0.1749 0.9534 -0.2614
C2A C -0.3737(2) 0.7113(2) -0.2652(2)
C3A C -0.2933(3) 0.5737(2) -0.3333(2)
H2A H -0.1856 0.6020 -0.3864
H3A H -0.3619 0.5648 -0.4001
C4A C -0.1391(3) 0.3440(2) -0.1771(2)
H4A H -0.0405 0.3901 -0.1863
C5A C -0.5390(3) 0.6767(2) -0.1772(2)
H5A H -0.5871 0.7694 -0.1390
H6A H -0.6122 0.6574 -0.2347
H7A H -0.5240 0.5809 -0.1012
C6A C -0.3904(3) 0.8644(2) -0.3814(2)
H8A H -0.2822 0.8857 -0.4342
H9A H -0.4613 0.8500 -0.4430
H10A H -0.4386 0.9558 -0.3414
H11A H -0.166(3) 1.010(3) 0.243(3)
H12A H -0.213(4) 0.887(4) 0.219(3)
Fe1_2 Fe 0.0000 0.0000 0.0000
Fe1_3 Fe 0.0000 2.0000 0.0000
N8_2 N 0.1690(2) 0.80151(19) 0.10380(17)
N8A_2 N -0.1690(2) 1.19849(19) -0.10380(17)
Cl1 Cl 0.84183(6) 0.26557(6) 0.44437(5)
O2 O 0.8967(2) 0.39724(19) 0.3316(2)
O3 O 0.9385(2) 0.2384(2) 0.55198(19)
O4 O 0.8626(2) 0.12332(19) 0.39228(17)
O5 O 0.67249(19) 0.30522(19) 0.49471(16)
O6 O 0.3179(2) 0.2944(2) 0.67966(17)
H13 H 0.268(4) 0.377(4) 0.682(3)
H14 H 0.401(4) 0.307(4) 0.707(3)
loop_
_geom_bond_atom_site_label_1
_geom_bond_atom_site_label_2
_geom_bond_site_symmetry_1
_geom_bond_site_symmetry_2
Fe1 O1 1_555 1_555
O1 H11 1_555 1_555
N1 N2 1_555 1_555
N2 N3 1_555 1_555
N3 N4 1_555 1_555
N4 Fe1 1_555 1_555
N5 N6 1_555 1_555
N6 N7 1_555 1_555
N7 N8 1_555 1_555
N8 C4 1_555 1_555
C1 N1 1_555 1_555
H1 C1 1_555 1_555
C2 N1 1_555 1_555
C3 N5 1_555 1_555
H2 C3 1_555 1_555
H3 C3 1_555 1_555
C4 N5 1_555 1_555
H4 C4 1_555 1_555
C5 C2 1_555 1_555
H5 C5 1_555 1_555
H6 C5 1_555 1_555
H7 C5 1_555 1_555
C6 C2 1_555 1_555
H8 C6 1_555 1_555
H9 C6 1_555 1_555
H10 C6 1_555 1_555
H12 O1 1_555 1_555
Cl1 O2 1_555 1_555
O3 Cl1 1_555 1_555
O4 Cl1 1_555 1_555
O5 Cl1 1_555 1_555
O6 H13 1_555 1_555
H14 O6 1_555 1_555
O1A Fe1 1_555 1_555
N1A N2A 1_555 1_555
N2A N3A 1_555 1_555
N3A N4A 1_555 1_555
N4A Fe1 1_555 1_555
N5A N6A 1_555 1_555
N6A N7A 1_555 1_555
N7A N8A 1_555 1_555
N8A C4A 1_555 1_555
C1A N1A 1_555 1_555
H1A C1A 1_555 1_555
C2A N1A 1_555 1_555
C3A N5A 1_555 1_555
H2A C3A 1_555 1_555
H3A C3A 1_555 1_555
C4A N5A 1_555 1_555
H4A C4A 1_555 1_555
C5A C2A 1_555 1_555
H5A C5A 1_555 1_555
H6A C5A 1_555 1_555
H7A C5A 1_555 1_555
C6A C2A 1_555 1_555
H8A C6A 1_555 1_555
H9A C6A 1_555 1_555
H10A C6A 1_555 1_555
H11A O1A 1_555 1_555
H12A O1A 1_555 1_555
Fe1_2 N8A 1_555 1_555
Fe1_3 N8 1_555 1_555
N8_2 Fe1 1_555 1_555
N8A_2 Fe1 1_555 1_555
N4 C1 1_555 1_555
C2 C3 1_555 1_555
N4A C1A 1_555 1_555
C2A C3A 1_555 1_555

#END
