
#######################################################################
#
#                 Cambridge Crystallographic Data Centre
#                                CCDC 
#
#######################################################################
#
# If this CIF has been generated from an entry in the Cambridge 
# Structural Database, then it will include bibliographic, chemical, 
# crystal, experimental, refinement or atomic coordinate data resulting 
# from the CCDC's data processing and validation procedures.
#
#######################################################################

data_JURYOM
_symmetry_cell_setting           monoclinic
_symmetry_space_group_name_H-M   'C 2/c'
_symmetry_Int_Tables_number      15
_space_group_name_Hall           '-C 2yn'
loop_
_symmetry_equiv_pos_site_id
_symmetry_equiv_pos_as_xyz
1 x,y,z
2 -x,y,1/2-z
3 1/2+x,1/2+y,z
4 1/2-x,1/2+y,1/2-z
5 -x,-y,-z
6 x,-y,1/2+z
7 1/2-x,1/2-y,-z
8 1/2+x,1/2-y,1/2+z
_cell_length_a                   29.779(6)
_cell_length_b                   9.6417(19)
_cell_length_c                   17.292(3)
_cell_angle_alpha                90
_cell_angle_beta                 105.69(3)
_cell_angle_gamma                90
_cell_volume                     4779.89
loop_
_atom_site_label
_atom_site_type_symbol
_atom_site_fract_x
_atom_site_fract_y
_atom_site_fract_z
C1 C 0.99225(14) 0.2256(4) 1.2053(2)
Zn1 Zn 0.925608(17) 0.24314(5) 0.91356(3)
O1 O 0.92400(12) 0.5294(3) 0.9477(2)
O2 O 0.89849(11) 0.3978(3) 0.83945(19)
O3 O 0.90542(9) 0.7639(3) 0.85824(16)
O4 O 0.92112(11) 1.0388(3) 0.89181(19)
O5 O 0.88610(15) 1.0922(3) 0.7652(2)
O6 O 0.99051(11) 0.2821(3) 0.88654(18)
N1 N 0.85862(12) 0.2353(4) 0.9523(2)
N2 N 0.95974(11) 0.2356(4) 1.03768(19)
N3 N 1.06752(12) 0.2559(4) 0.8996(2)
C2 C 0.90618(16) 0.5140(4) 0.8754(3)
C3 C 0.87042(18) 0.7970(4) 0.7289(3)
H1 H 0.8577 0.8397 0.6796
C4 C 0.90030(17) 1.0095(5) 0.8197(3)
C5 C 0.97962(14) 0.3460(4) 1.0800(3)
H2 H 0.9827 0.4268 1.0526
C6 C 0.87144(17) 0.6533(5) 0.7449(3)
H3 H 0.8594 0.5833 0.7081
C7 C 0.89132(15) 0.8606(4) 0.7988(3)
C8 C 0.89310(15) 0.6368(4) 0.8234(3)
C9 C 0.77301(15) 0.2471(6) 0.9905(3)
C10 C 1.02999(15) 0.2447(5) 0.9267(3)
C11 C 0.95736(17) 0.1194(5) 1.0788(3)
H4 H 0.9445 0.0407 1.0502
C12 C 0.97294(17) 0.1103(5) 1.1611(3)
H5 H 0.9705 0.0271 1.1869
C13 C 0.99576(15) 0.3449(5) 1.1628(3)
H6 H 1.0090 0.4245 1.1900
C14 C 0.84806(17) 0.3357(5) 0.9963(3)
H7 H 0.8702 0.4045 1.0150
C15 C 1.11333(16) 0.2168(6) 0.9498(3)
H8 H 1.1108 0.1884 1.0017
H9 H 1.1341 0.2947 0.9558
H10 H 1.1254 0.1415 0.9250
C16 C 1.06568(19) 0.3208(6) 0.8228(3)
H11 H 1.0347 0.3132 0.7879
H12 H 1.0872 0.2750 0.7987
H13 H 1.0740 0.4169 0.8311
C17 C 0.80656(17) 0.3454(5) 1.0163(3)
H14 H 0.8014 0.4192 1.0474
C18 C 0.7841(2) 0.1402(7) 0.9467(5)
H15 H 0.7629 0.0686 0.9286
C19 C 0.8268(2) 0.1389(7) 0.9297(4)
H16 H 0.8334 0.0647 0.9002
C1A C 1.00775(14) 0.2256(4) 1.2947(2)
N2A N 1.04026(11) 0.2356(4) 1.46232(19)
C5A C 1.02038(14) 0.3460(4) 1.4200(3)
H2A H 1.0173 0.4268 1.4474
C11A C 1.04264(17) 0.1194(5) 1.4212(3)
H4A H 1.0555 0.0407 1.4498
C12A C 1.02706(17) 0.1103(5) 1.3389(3)
H5A H 1.0295 0.0271 1.3131
C13A C 1.00424(15) 0.3449(5) 1.3372(3)
H6A H 0.9910 0.4245 1.3100
N1F N 0.64138(12) 0.2647(4) 1.0477(2)
C9F C 0.72699(15) 0.2529(6) 1.0095(3)
C14F C 0.65194(17) 0.1643(5) 1.0037(3)
H7F H 0.6298 0.0955 0.9850
C17F C 0.69344(17) 0.1546(5) 0.9837(3)
H14F H 0.6986 0.0808 0.9526
C18F C 0.7159(2) 0.3598(7) 1.0533(5)
H15F H 0.7371 0.4314 1.0714
C19F C 0.6732(2) 0.3611(7) 1.0703(4)
H16F H 0.6666 0.4353 1.0998
Zn1A Zn 1.074392(17) 0.24314(5) 1.58644(3)
O1A O 1.07600(12) 0.5294(3) 1.5523(2)
O2A O 1.10151(11) 0.3978(3) 1.66055(19)
O3A O 1.09458(9) 0.7639(3) 1.64176(16)
O4A O 1.07888(11) 1.0388(3) 1.60819(19)
O5A O 1.11390(15) 1.0922(3) 1.7348(2)
O6A O 1.00949(11) 0.2821(3) 1.61346(18)
N3A N 0.93248(12) 0.2559(4) 1.6004(2)
C2A C 1.09382(16) 0.5140(4) 1.6246(3)
C3A C 1.12958(18) 0.7970(4) 1.7711(3)
H1A H 1.1423 0.8397 1.8204
C4A C 1.09970(17) 1.0095(5) 1.6803(3)
C6A C 1.12856(17) 0.6533(5) 1.7551(3)
H3A H 1.1406 0.5833 1.7919
C7A C 1.10868(15) 0.8606(4) 1.7012(3)
C8A C 1.10690(15) 0.6368(4) 1.6766(3)
C10A C 0.97001(15) 0.2447(5) 1.5733(3)
C15A C 0.88667(16) 0.2168(6) 1.5502(3)
H8A H 0.8892 0.1884 1.4983
H9A H 0.8659 0.2947 1.5442
H10A H 0.8746 0.1415 1.5750
C16A C 0.93432(19) 0.3208(6) 1.6772(3)
H11A H 0.9653 0.3132 1.7121
H12A H 0.9128 0.2750 1.7013
H13A H 0.9260 0.4169 1.6689
Zn1_2 Zn 0.925608(17) 1.24314(5) 0.91356(3)
Zn1A_2 Zn 1.074392(17) 1.24314(5) 1.58644(3)
Zn1F Zn 0.574392(17) 0.25686(5) 1.08644(3)
O4_2 O 0.92112(11) 0.0388(3) 0.89181(19)
O4A_2 O 1.07888(11) 0.0388(3) 1.60819(19)
N1A N 1.14138(12) 0.2353(4) 1.5477(2)
O7 O 0.79348(17) 0.3922(5) 0.6314(3)
N4 N 0.76063(19) 0.1997(6) 0.6629(4)
C20 C 0.7956(2) 0.2888(7) 0.6713(4)
C21 C 0.7160(3) 0.2268(9) 0.6083(6)
H17 H 0.7201 0.2739 0.5618
H18 H 0.6980 0.2839 0.6342
H19 H 0.6999 0.1407 0.5923
C22 C 0.7634(3) 0.0722(10) 0.7067(7)
H20 H 0.7949 0.0386 0.7204
H21 H 0.7431 0.0048 0.6740
H22 H 0.7540 0.0880 0.7549
loop_
_geom_bond_atom_site_label_1
_geom_bond_atom_site_label_2
_geom_bond_site_symmetry_1
_geom_bond_site_symmetry_2
C1 C12 1_555 1_555
Zn1 O2 1_555 1_555
O1 C2 1_555 1_555
O2 C2 1_555 1_555
O3 C7 1_555 1_555
O4 C4 1_555 1_555
O5 C4 1_555 1_555
O6 Zn1 1_555 1_555
N1 Zn1 1_555 1_555
N2 Zn1 1_555 1_555
N3 C10 1_555 1_555
C2 C8 1_555 1_555
C3 H1 1_555 1_555
C4 C7 1_555 1_555
C5 N2 1_555 1_555
H2 C5 1_555 1_555
C6 C3 1_555 1_555
H3 C6 1_555 1_555
C7 C3 1_555 1_555
C8 O3 1_555 1_555
C9 C17 1_555 1_555
C10 O6 1_555 1_555
C11 N2 1_555 1_555
H4 C11 1_555 1_555
C12 C11 1_555 1_555
H5 C12 1_555 1_555
C13 C1 1_555 1_555
H6 C13 1_555 1_555
C14 N1 1_555 1_555
H7 C14 1_555 1_555
C15 N3 1_555 1_555
H8 C15 1_555 1_555
H9 C15 1_555 1_555
H10 C15 1_555 1_555
C16 N3 1_555 1_555
H11 C16 1_555 1_555
H12 C16 1_555 1_555
H13 C16 1_555 1_555
C17 C14 1_555 1_555
H14 C17 1_555 1_555
C18 C9 1_555 1_555
H15 C18 1_555 1_555
C19 N1 1_555 1_555
H16 C19 1_555 1_555
O7 C20 1_555 1_555
N4 C20 1_555 1_555
C21 N4 1_555 1_555
H17 C21 1_555 1_555
H18 C21 1_555 1_555
H19 C21 1_555 1_555
C22 N4 1_555 1_555
H20 C22 1_555 1_555
H21 C22 1_555 1_555
H22 C22 1_555 1_555
C1A C1 1_555 1_555
N2A C5A 1_555 1_555
C5A H2A 1_555 1_555
C11A N2A 1_555 1_555
H4A C11A 1_555 1_555
C12A C1A 1_555 1_555
H5A C12A 1_555 1_555
C13A C1A 1_555 1_555
H6A C13A 1_555 1_555
N1F C14F 1_555 1_555
C9F C9 1_555 1_555
C14F H7F 1_555 1_555
C17F C9F 1_555 1_555
H14F C17F 1_555 1_555
C18F C9F 1_555 1_555
H15F C18F 1_555 1_555
C19F N1F 1_555 1_555
H16F C19F 1_555 1_555
Zn1A N2A 1_555 1_555
O1A C2A 1_555 1_555
O2A Zn1A 1_555 1_555
O3A C7A 1_555 1_555
O4A C4A 1_555 1_555
O5A C4A 1_555 1_555
O6A Zn1A 1_555 1_555
N3A C10A 1_555 1_555
C2A O2A 1_555 1_555
C3A H1A 1_555 1_555
C4A C7A 1_555 1_555
C6A C3A 1_555 1_555
H3A C6A 1_555 1_555
C7A C3A 1_555 1_555
C8A O3A 1_555 1_555
C10A O6A 1_555 1_555
C15A N3A 1_555 1_555
H8A C15A 1_555 1_555
H9A C15A 1_555 1_555
H10A C15A 1_555 1_555
C16A N3A 1_555 1_555
H11A C16A 1_555 1_555
H12A C16A 1_555 1_555
H13A C16A 1_555 1_555
Zn1_2 O4 1_555 1_555
Zn1A_2 O4A 1_555 1_555
Zn1F N1F 1_555 1_555
O4_2 Zn1 1_555 1_555
O4A_2 Zn1A 1_555 1_555
N1A Zn1A 1_555 1_555
C5 C13 1_555 1_555
C6 C8 1_555 1_555
C18 C19 1_555 1_555
C5A C13A 1_555 1_555
C11A C12A 1_555 1_555
C14F C17F 1_555 1_555
C18F C19F 1_555 1_555
C2A C8A 1_555 1_555
C6A C8A 1_555 1_555

#END
