
#######################################################################
#
#                 Cambridge Crystallographic Data Centre
#                                CCDC 
#
#######################################################################
#
# If this CIF has been generated from an entry in the Cambridge 
# Structural Database, then it will include bibliographic, chemical, 
# crystal, experimental, refinement or atomic coordinate data resulting 
# from the CCDC's data processing and validation procedures.
#
#######################################################################

data_JURZUT
_symmetry_cell_setting           monoclinic
_symmetry_space_group_name_H-M   'P 21/n'
_symmetry_Int_Tables_number      14
_space_group_name_Hall           '-P 2yn'
loop_
_symmetry_equiv_pos_site_id
_symmetry_equiv_pos_as_xyz
1 x,y,z
2 1/2-x,1/2+y,1/2-z
3 -x,-y,-z
4 1/2+x,1/2-y,1/2+z
_cell_length_a                   11.0212(2)
_cell_length_b                   10.07300(10)
_cell_length_c                   15.1162(2)
_cell_angle_alpha                90
_cell_angle_beta                 108.843(2)
_cell_angle_gamma                90
_cell_volume                     1588.21
loop_
_atom_site_label
_atom_site_type_symbol
_atom_site_fract_x
_atom_site_fract_y
_atom_site_fract_z
Cd1 Cd 0.244201(11) -0.070073(12) 0.356610(9)
S1 S 0.58063(4) -0.09285(5) 0.67418(3)
S2 S 0.37156(4) -0.54938(4) 0.33681(3)
O1 O -0.24233(13) -0.34190(13) 0.43648(10)
O2 O -0.19252(12) 0.36987(13) 0.32671(10)
N1 N 0.06718(14) -0.16802(14) 0.38553(10)
N2 N 0.09492(14) 0.09251(14) 0.36355(11)
N3 N 0.36217(16) -0.06625(16) 0.51593(12)
N4 N 0.32316(15) -0.27740(16) 0.34872(12)
C1 C 0.45415(17) -0.07563(17) 0.57965(13)
C2 C 0.34320(16) -0.38969(18) 0.34380(13)
C3 C 0.06004(17) -0.29890(18) 0.40044(13)
H1 H 0.1299 -0.3536 0.3997
C4 C -0.04303(18) -0.35750(18) 0.41671(14)
H2 H -0.0447 -0.4507 0.4260
C5 C -0.14536(17) -0.27804(18) 0.41942(13)
C6 C -0.13906(16) -0.14174(17) 0.40495(12)
H3 H -0.2068 -0.0847 0.4069
C7 C -0.03146(16) -0.09101(17) 0.38763(12)
C8 C -0.35220(18) -0.2669(2) 0.43800(15)
H4 H -0.3252 -0.1963 0.4849
H5 H -0.4130 -0.3257 0.4538
H6 H -0.3935 -0.2274 0.3763
C9 C 0.10894(17) 0.22106(17) 0.34456(12)
H7 H 0.1892 0.2488 0.3403
C10 C 0.01441(17) 0.31403(17) 0.33111(13)
H8 H 0.0283 0.4034 0.3168
C11 C -0.10293(17) 0.27443(17) 0.33891(13)
C12 C -0.12001(16) 0.14138(17) 0.35827(13)
H9 H -0.1991 0.1116 0.3638
C13 C -0.01919(16) 0.05360(17) 0.36927(12)
C14 C -0.30991(18) 0.3376(2) 0.34348(16)
H10 H -0.3554 0.2687 0.2995
H11 H -0.3638 0.4171 0.3348
H12 H -0.2908 0.3050 0.4076
Cd1A Cd 0.255799(11) -0.570073(12) 0.143390(9)
Cd1B Cd 0.755799(11) 0.070073(12) 0.643390(9)
S1B S 0.41937(4) 0.09285(5) 0.32582(3)
S2A S 0.12844(4) -0.04938(4) 0.16319(3)
loop_
_geom_bond_atom_site_label_1
_geom_bond_atom_site_label_2
_geom_bond_site_symmetry_1
_geom_bond_site_symmetry_2
Cd1 N1 1_555 1_555
S1 C1 1_555 1_555
S2 C2 1_555 1_555
O1 C5 1_555 1_555
O2 C11 1_555 1_555
N1 C3 1_555 1_555
N2 Cd1 1_555 1_555
N3 Cd1 1_555 1_555
N4 Cd1 1_555 1_555
C1 N3 1_555 1_555
C2 N4 1_555 1_555
C3 H1 1_555 1_555
C4 C3 1_555 1_555
H2 C4 1_555 1_555
C5 C4 1_555 1_555
C6 C5 1_555 1_555
H3 C6 1_555 1_555
C7 N1 1_555 1_555
C8 O1 1_555 1_555
H4 C8 1_555 1_555
H5 C8 1_555 1_555
H6 C8 1_555 1_555
C9 N2 1_555 1_555
H7 C9 1_555 1_555
C10 C9 1_555 1_555
H8 C10 1_555 1_555
C11 C10 1_555 1_555
C12 C11 1_555 1_555
H9 C12 1_555 1_555
C13 N2 1_555 1_555
C14 O2 1_555 1_555
H10 C14 1_555 1_555
H11 C14 1_555 1_555
H12 C14 1_555 1_555
Cd1A S2 1_555 1_555
Cd1B S1 1_555 1_555
S1B Cd1 1_555 1_555
S2A Cd1 1_555 1_555
C6 C7 1_555 1_555
C7 C13 1_555 1_555
C12 C13 1_555 1_555

#END
