
#######################################################################
#
#                 Cambridge Crystallographic Data Centre
#                                CCDC 
#
#######################################################################
#
# If this CIF has been generated from an entry in the Cambridge 
# Structural Database, then it will include bibliographic, chemical, 
# crystal, experimental, refinement or atomic coordinate data resulting 
# from the CCDC's data processing and validation procedures.
#
#######################################################################

data_JUSBUW
_symmetry_cell_setting           monoclinic
_symmetry_space_group_name_H-M   'C 2/c'
_symmetry_Int_Tables_number      15
_space_group_name_Hall           '-C 2yn'
loop_
_symmetry_equiv_pos_site_id
_symmetry_equiv_pos_as_xyz
1 x,y,z
2 -x,y,1/2-z
3 1/2+x,1/2+y,z
4 1/2-x,1/2+y,1/2-z
5 -x,-y,-z
6 x,-y,1/2+z
7 1/2-x,1/2-y,-z
8 1/2+x,1/2-y,1/2+z
_cell_length_a                   42.545(3)
_cell_length_b                   11.2586(7)
_cell_length_c                   23.7342(14)
_cell_angle_alpha                90
_cell_angle_beta                 122.0091(16)
_cell_angle_gamma                90
_cell_volume                     9640.17
loop_
_atom_site_label
_atom_site_type_symbol
_atom_site_fract_x
_atom_site_fract_y
_atom_site_fract_z
C1 C 1.11310(19) 0.1897(6) 0.0612(4)
H1 H 1.1389 0.1896 0.0873
C2 C 1.09239(19) 0.1013(6) 0.0209(4)
H2 H 1.1011 0.0306 0.0138
C3 C 1.05701(16) 0.2436(5) 0.0164(3)
H3 H 1.0358 0.2874 0.0044
C4 C 1.02527(19) 0.0622(6) -0.0480(3)
C5 C 1.0302(2) -0.0577(7) -0.0564(4)
H4 H 1.0540 -0.0878 -0.0385
C6 C 1.0004(3) -0.1307(8) -0.0907(5)
H5 H 1.0040 -0.2098 -0.0972
C7 C 0.9647(2) -0.0880(7) -0.1161(5)
H6 H 0.9444 -0.1387 -0.1376
C8 C 0.95999(19) 0.0298(6) -0.1090(4)
C9 C 0.98990(16) 0.1037(5) -0.0739(3)
H7 H 0.9862 0.1827 -0.0675
C10 C 0.91249(18) 0.1618(5) -0.1121(3)
H8 H 0.9290 0.2091 -0.0764
C11 C 0.8910(2) 0.0267(7) -0.1878(4)
H9 H 0.8891 -0.0367 -0.2145
C12 C 0.8636(2) 0.0898(7) -0.1931(4)
H10 H 0.8388 0.0774 -0.2253
C13 C 1.1972(3) 0.1100(8) 0.6227(5)
H11 H 1.2030 0.0751 0.6626
C14 C 1.2094(4) 0.0723(9) 0.5844(5)
H12 H 1.2245 0.0070 0.5922
C15 C 1.17529(18) 0.2270(6) 0.5415(3)
H13 H 1.1627 0.2901 0.5131
C16 C 1.15124(19) 0.2849(6) 0.2528(3)
H14 H 1.1732 0.2896 0.2534
C17 C 1.09442(17) 0.3022(5) 0.2231(3)
H15 H 1.0694 0.3221 0.1986
C18 C 1.11150(19) 0.2456(6) 0.2817(3)
H16 H 1.1007 0.2189 0.3047
C19 C 1.1770(2) 0.1861(6) 0.3630(3)
C20 C 1.2082(2) 0.1386(8) 0.3687(4)
H17 H 1.2105 0.1338 0.3319
C21 C 1.2363(3) 0.0977(10) 0.4302(5)
H18 H 1.2585 0.0713 0.4357
C22 C 1.2315(3) 0.0961(9) 0.4833(4)
H19 H 1.2498 0.0641 0.5238
C23 C 1.1998(2) 0.1416(7) 0.4760(3)
C24 C 1.1729(2) 0.1879(6) 0.4169(3)
H20 H 1.1517 0.2207 0.4127
C25 C 1.04619(15) 0.5417(5) 0.1257(3)
C26 C 1.00747(14) 0.5399(5) 0.1124(3)
C27 C 0.97948(14) 0.4708(5) 0.0618(3)
H21 H 0.9846 0.4261 0.0347
C28 C 0.94415(14) 0.4676(5) 0.0511(3)
C29 C 0.93630(15) 0.5343(5) 0.0918(3)
C30 C 0.96418(15) 0.6035(6) 0.1418(3)
H22 H 0.9592 0.6478 0.1693
C31 C 0.99914(16) 0.6075(6) 0.1513(3)
H23 H 1.0172 0.6562 0.1843
C32 C 0.91536(15) 0.3845(5) -0.0002(3)
C33 C 0.89854(14) 0.5355(5) 0.0818(3)
C34 C 0.86881(14) 0.5799(5) 0.0241(3)
H24 H 0.8722 0.6034 -0.0099
C35 C 0.83370(14) 0.5909(5) 0.0149(3)
C36 C 0.82920(16) 0.5512(5) 0.0656(3)
H25 H 0.8059 0.5552 0.0601
C37 C 0.85833(16) 0.5061(6) 0.1237(3)
H26 H 0.8546 0.4794 0.1568
C38 C 0.89393(16) 0.5003(6) 0.1330(3)
H27 H 0.9141 0.4733 0.1730
C39 C 0.80229(14) 0.6474(5) -0.0456(3)
C40 C 0.77880(15) 0.7246(5) -0.0372(3)
H28 H 0.7836 0.7384 0.0054
C41 C 0.74937(16) 0.7790(5) -0.0897(3)
H29 H 0.7342 0.8286 -0.0828
C42 C 0.74158(14) 0.7610(5) -0.1545(3)
C43 C 0.76481(14) 0.6893(5) -0.1631(3)
H30 H 0.7601 0.6780 -0.2058
C44 C 0.79525(14) 0.6331(5) -0.1099(3)
C45 C 0.81882(14) 0.5578(6) -0.1249(3)
C46 C 0.70805(16) 0.8190(6) -0.2121(3)
N1 N 1.09080(13) 0.2809(4) 0.0586(2)
N2 N 1.05649(13) 0.1340(4) -0.0077(3)
N3 N 0.92283(14) 0.0724(4) -0.1351(3)
N4 N 0.87626(14) 0.1763(4) -0.1455(3)
N5 N 1.17534(14) 0.2057(4) 0.5953(2)
N6 N 1.19532(17) 0.1479(5) 0.5317(3)
N7 N 1.11921(14) 0.3264(4) 0.2049(2)
N8 N 1.14806(15) 0.2344(5) 0.3012(2)
O1 O 1.06732(12) 0.6206(5) 0.1641(3)
O2 O 1.05518(10) 0.4642(4) 0.09839(19)
O3 O 0.91360(13) 0.2837(4) 0.0184(2)
O4 O 0.89416(10) 0.4209(3) -0.05918(18)
O5 O 0.83827(10) 0.6121(3) -0.14204(18)
O6 O 0.81673(11) 0.4478(4) -0.1215(2)
O7 O 0.69938(10) 0.7832(4) -0.26899(19)
O8 O 0.69173(13) 0.8977(5) -0.1997(2)
O9 O 1.13224(10) 0.5758(4) 0.18630(18)
Co1 Co 1.153133(19) 0.68166(7) 0.13708(3)
Co2 Co 1.109033(19) 0.43003(7) 0.12170(3)
H31 H 1.1487(8) 0.577(7) 0.2257(6)
H32 H 1.1117(6) 0.594(7) 0.179(2)
N4D N 1.12374(14) 0.8237(4) 0.1455(3)
N5E N 1.17534(14) 0.7943(4) 0.0953(2)
O4D O 1.10584(10) 0.5791(3) 0.05918(18)
O5D O 1.16173(10) 0.3879(3) 0.14204(18)
O6D O 1.18327(11) 0.5522(4) 0.1215(2)
O7G O 1.19938(10) 0.7168(4) 0.23101(19)
Co1D Co 0.846867(19) 0.31834(7) -0.13708(3)
Co1E Co 1.153133(19) 0.31834(7) 0.63708(3)
Co1G Co 0.653133(19) 0.81834(7) -0.36292(3)
Co2D Co 0.890967(19) 0.56997(7) -0.12170(3)
O10 O 0.2669(4) 0.5968(12) 0.2346(9)
H33 H 0.261(2) 0.664(2) 0.238(5)
H34 H 0.2539(19) 0.543(3) 0.235(5)
O11 O 0.0671(3) 0.7928(12) 0.8568(5)
H35 H 0.0876(6) 0.779(8) 0.8907(17)
H36 H 0.0497(9) 0.790(8) 0.862(3)
loop_
_geom_bond_atom_site_label_1
_geom_bond_atom_site_label_2
_geom_bond_site_symmetry_1
_geom_bond_site_symmetry_2
C1 H1 1_555 1_555
C2 C1 1_555 1_555
H2 C2 1_555 1_555
C3 H3 1_555 1_555
C4 C5 1_555 1_555
C5 H4 1_555 1_555
C6 C5 1_555 1_555
H5 C6 1_555 1_555
C7 C6 1_555 1_555
H6 C7 1_555 1_555
C8 C7 1_555 1_555
C9 C4 1_555 1_555
H7 C9 1_555 1_555
C10 H8 1_555 1_555
C11 H9 1_555 1_555
C12 C11 1_555 1_555
H10 C12 1_555 1_555
C13 H11 1_555 1_555
C14 C13 1_555 1_555
H12 C14 1_555 1_555
C15 H13 1_555 1_555
C16 H14 1_555 1_555
C17 H15 1_555 1_555
C18 C17 1_555 1_555
H16 C18 1_555 1_555
C19 C20 1_555 1_555
C20 H17 1_555 1_555
C21 C20 1_555 1_555
H18 C21 1_555 1_555
C22 C21 1_555 1_555
H19 C22 1_555 1_555
C23 C22 1_555 1_555
C24 C19 1_555 1_555
H20 C24 1_555 1_555
C25 C26 1_555 1_555
C26 C27 1_555 1_555
C27 H21 1_555 1_555
C28 C27 1_555 1_555
C29 C28 1_555 1_555
C30 C29 1_555 1_555
H22 C30 1_555 1_555
C31 C26 1_555 1_555
H23 C31 1_555 1_555
C32 C28 1_555 1_555
C33 C29 1_555 1_555
C34 C33 1_555 1_555
H24 C34 1_555 1_555
C35 C34 1_555 1_555
C36 C35 1_555 1_555
H25 C36 1_555 1_555
C37 C36 1_555 1_555
H26 C37 1_555 1_555
C38 C33 1_555 1_555
H27 C38 1_555 1_555
C39 C35 1_555 1_555
C40 C39 1_555 1_555
H28 C40 1_555 1_555
C41 C40 1_555 1_555
H29 C41 1_555 1_555
C42 C41 1_555 1_555
C43 C42 1_555 1_555
H30 C43 1_555 1_555
C44 C39 1_555 1_555
C45 C44 1_555 1_555
C46 C42 1_555 1_555
N1 C1 1_555 1_555
N2 C2 1_555 1_555
N3 C8 1_555 1_555
N4 C10 1_555 1_555
N5 C13 1_555 1_555
N6 C14 1_555 1_555
N7 C16 1_555 1_555
N8 C16 1_555 1_555
O1 C25 1_555 1_555
O2 C25 1_555 1_555
O3 C32 1_555 1_555
O4 C32 1_555 1_555
O5 C45 1_555 1_555
O6 C45 1_555 1_555
O7 C46 1_555 1_555
O8 C46 1_555 1_555
O9 Co1 1_555 1_555
Co1 N4D 1_555 1_555
Co2 N1 1_555 1_555
H31 O9 1_555 1_555
H32 O9 1_555 1_555
O10 H33 1_555 1_555
H34 O10 1_555 1_555
O11 H35 1_555 1_555
H36 O11 1_555 1_555
N5E Co1 1_555 1_555
O4D Co1 1_555 1_555
O5D Co2 1_555 1_555
O6D Co1 1_555 1_555
O7G Co1 1_555 1_555
Co1D N4 1_555 1_555
Co1E N5 1_555 1_555
Co1G O7 1_555 1_555
Co2D O4 1_555 1_555
C3 N1 1_555 1_555
C3 N2 1_555 1_555
C4 N2 1_555 1_555
C8 C9 1_555 1_555
C10 N3 1_555 1_555
C11 N3 1_555 1_555
C12 N4 1_555 1_555
C15 N5 1_555 1_555
C15 N6 1_555 1_555
C17 N7 1_555 1_555
C18 N8 1_555 1_555
C19 N8 1_555 1_555
C23 C24 1_555 1_555
C23 N6 1_555 1_555
C30 C31 1_555 1_555
C37 C38 1_555 1_555
C43 C44 1_555 1_555
N7 Co2 1_555 1_555
O2 Co2 1_555 1_555
O4 Co1D 1_555 1_555
O5 Co2D 1_555 1_555
O6 Co1D 1_555 1_555
O9 Co2 1_555 1_555
Co2 O4D 1_555 1_555

#END
