
#######################################################################
#
#                 Cambridge Crystallographic Data Centre
#                                CCDC 
#
#######################################################################
#
# If this CIF has been generated from an entry in the Cambridge 
# Structural Database, then it will include bibliographic, chemical, 
# crystal, experimental, refinement or atomic coordinate data resulting 
# from the CCDC's data processing and validation procedures.
#
#######################################################################

data_JUSVIE
_symmetry_cell_setting           monoclinic
_symmetry_space_group_name_H-M   'P 21/c'
_symmetry_Int_Tables_number      14
_space_group_name_Hall           '-P 2ybc'
loop_
_symmetry_equiv_pos_site_id
_symmetry_equiv_pos_as_xyz
1 x,y,z
2 -x,1/2+y,1/2-z
3 -x,-y,-z
4 x,1/2-y,1/2+z
_cell_length_a                   13.7798(12)
_cell_length_b                   12.6363(11)
_cell_length_c                   25.0522(18)
_cell_angle_alpha                90
_cell_angle_beta                 114.451(4)
_cell_angle_gamma                90
_cell_volume                     3971.01
loop_
_atom_site_label
_atom_site_type_symbol
_atom_site_fract_x
_atom_site_fract_y
_atom_site_fract_z
Cd1 Cd 0.816229(19) 0.90476(2) 0.961974(11)
Cd2 Cd 0.942850(19) 1.36581(2) 0.989453(11)
Cl1 Cl 1.10048(8) 1.24299(8) 0.82143(4)
Cl2 Cl 0.96335(8) 1.07150(9) 0.70754(4)
Cl3 Cl 1.18263(8) 1.00129(8) 0.86934(5)
Cl4 Cl 0.83170(8) 1.22910(9) 0.72716(4)
Cl5 Cl 0.97324(9) 0.83558(7) 0.82339(5)
Cl6 Cl 0.61861(8) 0.81224(8) 0.79815(5)
Cl7 Cl 0.75997(9) 0.96593(10) 0.73446(5)
Cl8 Cl 0.47690(7) 0.60425(9) 0.70992(4)
Cl9 Cl 0.67155(9) 0.65235(10) 0.70084(5)
Cl10 Cl 0.56519(9) 0.40475(9) 0.84911(5)
Cl11 Cl 0.64593(9) 0.39308(9) 0.74315(5)
Cl12 Cl 0.54107(10) 0.66168(10) 0.87940(6)
O1 O 0.74121(19) 1.0345(2) 0.88047(11)
O2 O 0.93582(19) 0.6616(2) 0.91899(11)
O3 O 1.09917(19) 1.1513(2) 0.94375(11)
O4 O 0.9259(2) 1.5357(2) 1.02970(11)
O5 O 0.9505(2) 1.20369(19) 0.95037(11)
O6 O 0.90097(19) 0.9667(2) 0.90673(11)
O7 O 0.8881(2) 1.0584(2) 1.01591(11)
H1 H 0.8423 1.0884 1.0270
H2 H 0.9043 1.1038 0.9947
O8 O 0.8255(2) 0.4460(2) 0.90575(12)
O9 O 0.9401(2) 0.4381(2) 0.86390(12)
O10 O 0.7929(2) 0.7384(2) 0.92363(12)
N1 N 0.1949(2) 0.7097(2) 0.99568(13)
N2 N 0.6572(2) 0.8919(2) 0.97043(13)
C1 C 0.9181(3) 1.1210(3) 0.75916(15)
C2 C 0.3620(3) 0.7991(3) 1.03785(16)
H3 H 0.4153 0.8290 1.0709
C3 C 0.2741(3) 0.7539(3) 1.04143(16)
H4 H 0.2697 0.7541 1.0775
C4 C 0.8698(3) 1.0349(3) 0.78523(15)
C5 C 0.4685(3) 0.8382(3) 0.97982(16)
C6 C 1.0521(3) 1.0346(3) 0.83625(15)
C7 C 0.3707(3) 0.7997(3) 0.98449(16)
C8 C 0.6134(3) 0.5116(3) 0.82744(16)
C9 C 0.8268(3) 1.0289(3) 0.87586(15)
C10 C 0.6666(3) 0.5095(3) 0.78490(15)
C11 C 0.4676(3) 0.8917(3) 0.93152(17)
H5 H 0.4031 0.9101 0.9010
C12 C 1.0087(3) 1.1462(3) 0.82019(15)
C13 C 0.6168(3) 0.6117(3) 0.75049(16)
C14 C 0.6591(3) 0.8422(3) 1.01790(17)
H6 H 0.7246 0.8251 1.0479
C15 C 0.5670(3) 0.8154(3) 1.02403(17)
H7 H 0.5714 0.7819 1.0580
C16 C 0.9704(3) 0.9691(3) 0.81662(16)
C17 C 0.5623(3) 0.9178(3) 0.92851(17)
H8 H 0.5601 0.9550 0.8960
C18 C 0.7855(3) 0.5408(3) 0.81653(15)
H9 H 0.8150 0.5413 0.7870
C19 C 1.0039(3) 1.1764(3) 0.92187(15)
C20 C 0.7771(3) 0.6586(3) 0.83354(15)
H10 H 0.8055 0.7022 0.8109
C21 C 0.6050(3) 0.6122(3) 0.83973(16)
C22 C 0.8551(3) 0.4683(3) 0.86590(16)
C23 C 0.8446(3) 1.0994(3) 0.83097(15)
H11 H 0.7800 1.1412 0.8101
C24 C 0.8398(3) 0.6884(3) 0.89799(15)
C25 C 0.9426(3) 1.1766(3) 0.85549(14)
H12 H 0.9155 1.2485 0.8438
C26 C 0.2865(3) 0.7572(3) 0.93659(17)
H13 H 0.2879 0.7580 0.8998
C27 C 0.6546(3) 0.6787(3) 0.80724(16)
C28 C 0.2004(3) 0.7137(3) 0.94360(16)
H14 H 0.1443 0.6862 0.9109
Cd1B Cd 1.183771(19) 1.09524(2) 1.038026(11)
Cd2_2 Cd 0.942850(19) 0.36581(2) 0.989453(11)
Cd2B Cd 0.057150(19) 0.63419(2) 1.010547(11)
Cd2B_2 Cd 1.057150(19) 0.63419(2) 1.010547(11)
Cd2B_3 Cd 1.057150(19) 1.63419(2) 1.010547(11)
O2B O 1.06418(19) 1.3384(2) 1.08101(11)
O3B O 0.90083(19) 0.8487(2) 1.05625(11)
O4B O 1.0741(2) 1.4643(2) 0.97030(11)
O8_2 O 0.8255(2) 1.4460(2) 0.90575(12)
N1B N 0.8051(2) 1.2903(2) 1.00432(13)
O11 O 0.7390(6) 1.6040(5) 1.0082(3)
H15 H 0.7926 1.5671 1.0177
C29 C 0.6542(9) 1.5432(9) 1.0150(5)
H16 H 0.5855 1.5778 0.9958
H17 H 0.6495 1.4719 0.9998
C30 C 0.6908(9) 1.5436(10) 1.0780(5)
H18 H 0.6496 1.4941 1.0891
H19 H 0.6826 1.6133 1.0908
H20 H 0.7646 1.5237 1.0959
loop_
_geom_bond_atom_site_label_1
_geom_bond_atom_site_label_2
_geom_bond_site_symmetry_1
_geom_bond_site_symmetry_2
Cd1 O1 1_555 1_555
Cd2 O4 1_555 1_555
Cl1 C12 1_555 1_555
Cl2 C1 1_555 1_555
Cl3 C6 1_555 1_555
Cl4 C1 1_555 1_555
Cl5 C16 1_555 1_555
Cl6 C27 1_555 1_555
Cl7 C4 1_555 1_555
Cl8 C13 1_555 1_555
Cl9 C13 1_555 1_555
Cl10 C8 1_555 1_555
Cl11 C10 1_555 1_555
Cl12 C21 1_555 1_555
O1 C9 1_555 1_555
O2 C24 1_555 1_555
O3 C19 1_555 1_555
O4 Cd2B_3 1_555 1_555
O5 Cd2 1_555 1_555
O6 Cd1 1_555 1_555
O7 Cd1 1_555 1_555
H1 O7 1_555 1_555
H2 O7 1_555 1_555
O8 C22 1_555 1_555
O9 C22 1_555 1_555
O10 Cd1 1_555 1_555
N1 C3 1_555 1_555
N2 Cd1 1_555 1_555
C1 C4 1_555 1_555
C2 H3 1_555 1_555
C3 C2 1_555 1_555
H4 C3 1_555 1_555
C4 C16 1_555 1_555
C5 C7 1_555 1_555
C6 C12 1_555 1_555
C7 C2 1_555 1_555
C8 C10 1_555 1_555
C9 O6 1_555 1_555
C10 C13 1_555 1_555
C11 C5 1_555 1_555
H5 C11 1_555 1_555
C12 C1 1_555 1_555
C13 C27 1_555 1_555
C14 N2 1_555 1_555
H6 C14 1_555 1_555
C15 C5 1_555 1_555
H7 C15 1_555 1_555
C16 C6 1_555 1_555
C17 N2 1_555 1_555
H8 C17 1_555 1_555
C18 C10 1_555 1_555
H9 C18 1_555 1_555
C19 O5 1_555 1_555
C20 C18 1_555 1_555
H10 C20 1_555 1_555
C21 C8 1_555 1_555
C22 C18 1_555 1_555
C23 C4 1_555 1_555
H11 C23 1_555 1_555
C24 O10 1_555 1_555
C25 C12 1_555 1_555
H12 C25 1_555 1_555
C26 C7 1_555 1_555
H13 C26 1_555 1_555
C27 C20 1_555 1_555
C28 N1 1_555 1_555
H14 C28 1_555 1_555
O11 H15 1_555 1_555
C29 O11 1_555 1_555
H16 C29 1_555 1_555
H17 C29 1_555 1_555
C30 C29 1_555 1_555
H18 C30 1_555 1_555
H19 C30 1_555 1_555
H20 C30 1_555 1_555
Cd1B O3 1_555 1_555
Cd2_2 O8 1_555 1_555
Cd2B N1 1_555 1_555
Cd2B_2 O2 1_555 1_555
Cd2B_3 O4B 1_555 1_555
O2B Cd2 1_555 1_555
O3B Cd1 1_555 1_555
O4B Cd2 1_555 1_555
O8_2 Cd2 1_555 1_555
N1B Cd2 1_555 1_555
C9 C23 1_555 1_555
C11 C17 1_555 1_555
C14 C15 1_555 1_555
C19 C25 1_555 1_555
C20 C24 1_555 1_555
C21 C27 1_555 1_555
C23 C25 1_555 1_555
C26 C28 1_555 1_555

#END
