
#######################################################################
#
#                 Cambridge Crystallographic Data Centre
#                                CCDC 
#
#######################################################################
#
# If this CIF has been generated from an entry in the Cambridge 
# Structural Database, then it will include bibliographic, chemical, 
# crystal, experimental, refinement or atomic coordinate data resulting 
# from the CCDC's data processing and validation procedures.
#
#######################################################################

data_JUZXIL
_symmetry_cell_setting           monoclinic
_symmetry_space_group_name_H-M   'P 21/n'
_symmetry_Int_Tables_number      14
_space_group_name_Hall           '-P 2yn'
loop_
_symmetry_equiv_pos_site_id
_symmetry_equiv_pos_as_xyz
1 x,y,z
2 1/2+x,1/2-y,1/2+z
3 -x,-y,-z
4 1/2-x,1/2+y,1/2-z
_cell_length_a                   12.4658(7)
_cell_length_b                   12.1314(7)
_cell_length_c                   17.8301(10)
_cell_angle_alpha                90
_cell_angle_beta                 100.1820(10)
_cell_angle_gamma                90
_cell_volume                     2653.94
loop_
_atom_site_label
_atom_site_type_symbol
_atom_site_fract_x
_atom_site_fract_y
_atom_site_fract_z
C13 C 0.4410(2) 0.5564(2) 0.73016(15)
H9 H 0.5078 0.5878 0.7548
C14 C 0.4425(2) 0.4928(2) 0.66596(14)
H10 H 0.5083 0.4809 0.6472
C15 C 0.34414(19) 0.4466(2) 0.62934(14)
C16 C 0.2497(2) 0.4674(2) 0.65832(15)
H11 H 0.1816 0.4382 0.6342
C17 C 0.2574(2) 0.5316(2) 0.72320(15)
H12 H 0.1928 0.5449 0.7432
C18 C 0.34192(19) 0.3759(2) 0.56302(14)
C19 C 0.40513(19) 0.2926(2) 0.47527(13)
C20 C 0.6677(2) 0.2548(2) 0.40534(15)
H13 H 0.7415 0.2778 0.4189
C21 C 0.59418(19) 0.2927(2) 0.44942(14)
H14 H 0.6168 0.3401 0.4917
C22 C 0.48624(18) 0.25920(19) 0.42963(14)
C23 C 0.4567(2) 0.1920(2) 0.36611(14)
H15 H 0.3832 0.1695 0.3504
C24 C 0.5369(2) 0.1586(2) 0.32634(15)
H16 H 0.5163 0.1121 0.2833
N5 N 0.35161(19) 0.57639(18) 0.75973(12)
N6 N 0.26430(17) 0.31345(19) 0.52906(13)
N7 N 0.30631(16) 0.25847(19) 0.47081(12)
N8 N 0.64207(17) 0.18791(18) 0.34494(12)
O2 O 0.43441(13) 0.36713(13) 0.53241(9)
Cl1 Cl 0.75991(6) 0.48290(6) 0.67467(4)
O4 O 0.7495(2) 0.4052(2) 0.73171(19)
O5 O 0.7121(3) 0.4385(3) 0.60447(19)
O6 O 0.87379(19) 0.50343(19) 0.67856(17)
O7 O 0.70601(17) 0.58322(18) 0.68735(15)
O8 O 0.9823(6) 0.4967(6) 0.5505(4)
H19 H 0.9676 0.4964 0.5947
C25 C 0.9453(8) 0.3943(6) 0.5122(5)
H20 H 0.9648 0.3324 0.5473
H21 H 0.9802 0.3847 0.4675
H22 H 0.8660 0.3966 0.4961
Cu1 Cu 0.0000 0.0000 0.5000
C1 C -0.10183(17) 0.13553(18) 0.36575(12)
H1 H -0.1683 0.1045 0.3750
C2 C -0.10450(18) 0.20208(18) 0.30237(13)
H2 H -0.1715 0.2180 0.2696
C3 C -0.00671(18) 0.24522(18) 0.28769(13)
C4 C 0.08796(18) 0.22740(19) 0.34045(13)
H3 H 0.1550 0.2596 0.3335
C5 C 0.08286(19) 0.16221(19) 0.40298(13)
H4 H 0.1475 0.1517 0.4394
C6 C 0.00046(18) 0.30396(19) 0.21692(13)
C7 C 0.08189(18) 0.36709(19) 0.13180(13)
C8 C 0.36390(19) 0.3710(2) 0.08796(14)
H5 H 0.4326 0.3382 0.1068
C9 C 0.27703(19) 0.3442(2) 0.12266(14)
H6 H 0.2860 0.2946 0.1646
C10 C 0.17592(18) 0.39111(19) 0.09512(13)
C11 C 0.16572(18) 0.46065(19) 0.03215(13)
H7 H 0.0971 0.4919 0.0110
C12 C 0.25695(18) 0.48338(19) 0.00098(13)
H8 H 0.2496 0.5308 -0.0420
N1 N -0.00948(14) 0.11260(15) 0.41499(10)
N2 N -0.07428(16) 0.34789(17) 0.16637(11)
N3 N -0.01994(16) 0.39069(17) 0.10965(11)
N4 N 0.35681(14) 0.44097(15) 0.02909(10)
O1 O 0.10147(12) 0.31228(13) 0.19896(9)
O3 O 0.11153(14) 0.13634(16) 0.58594(10)
H17 H 0.127(2) 0.131(3) 0.6327(10)
H18 H 0.130(3) 0.199(2) 0.574(2)
C1B C 0.10183(17) -0.13553(18) 0.63425(12)
H1B H 0.1683 -0.1045 0.6250
C2B C 0.10450(18) -0.20208(18) 0.69763(13)
H2B H 0.1715 -0.2180 0.7304
C3B C 0.00671(18) -0.24522(18) 0.71231(13)
C4B C -0.08796(18) -0.22740(19) 0.65955(13)
H3B H -0.1550 -0.2596 0.6665
C5B C -0.08286(19) -0.16221(19) 0.59702(13)
H4B H -0.1475 -0.1517 0.5606
C6B C -0.00046(18) -0.30396(19) 0.78308(13)
C7B C -0.08189(18) -0.36709(19) 0.86820(13)
C8B C -0.36390(19) -0.3710(2) 0.91204(14)
H5B H -0.4326 -0.3382 0.8932
C9B C -0.27703(19) -0.3442(2) 0.87734(14)
H6B H -0.2860 -0.2946 0.8354
C10B C -0.17592(18) -0.39111(19) 0.90488(13)
C11B C -0.16572(18) -0.46065(19) 0.96785(13)
H7B H -0.0971 -0.4919 0.9890
C12B C -0.25695(18) -0.48338(19) 0.99902(13)
H8B H -0.2496 -0.5308 1.0420
N1B N 0.00948(14) -0.11260(15) 0.58501(10)
N2B N 0.07428(16) -0.34789(17) 0.83363(11)
N3B N 0.01994(16) -0.39069(17) 0.89035(11)
N4B N -0.35681(14) -0.44097(15) 0.97091(10)
O1B O -0.10147(12) -0.31228(13) 0.80104(9)
O3B O -0.11153(14) -0.13634(16) 0.41406(10)
H17B H -0.127(2) -0.131(3) 0.3673(10)
H18B H -0.130(3) -0.199(2) 0.426(2)
N4A N -0.14319(14) 0.05903(15) 0.52909(10)
N4C N 0.14319(14) -0.05903(15) 0.47091(10)
Cu1A Cu 0.5000 0.5000 0.0000
Cu1A_2 Cu -0.5000 -0.5000 1.0000
O9? O 1.0023(5) 0.3608(5) 0.5748(4)
H23? H 0.9680 0.3991 0.6027
H24? H 0.9641 0.3325 0.5366
loop_
_geom_bond_atom_site_label_1
_geom_bond_atom_site_label_2
_geom_bond_site_symmetry_1
_geom_bond_site_symmetry_2
Cu1 N1 1_555 1_555
C1 H1 1_555 1_555
C2 C1 1_555 1_555
H2 C2 1_555 1_555
C3 C2 1_555 1_555
C4 C3 1_555 1_555
H3 C4 1_555 1_555
C5 C4 1_555 1_555
H4 C5 1_555 1_555
C6 C3 1_555 1_555
C7 C10 1_555 1_555
C8 H5 1_555 1_555
C9 C8 1_555 1_555
H6 C9 1_555 1_555
C10 C9 1_555 1_555
C11 C10 1_555 1_555
H7 C11 1_555 1_555
C12 C11 1_555 1_555
H8 C12 1_555 1_555
N1 C1 1_555 1_555
N2 C6 1_555 1_555
N3 C7 1_555 1_555
N4 C8 1_555 1_555
O1 C6 1_555 1_555
C13 H9 1_555 1_555
C14 C13 1_555 1_555
H10 C14 1_555 1_555
C15 C14 1_555 1_555
C16 C15 1_555 1_555
H11 C16 1_555 1_555
C17 C16 1_555 1_555
H12 C17 1_555 1_555
C18 C15 1_555 1_555
C19 C22 1_555 1_555
C20 H13 1_555 1_555
C21 C20 1_555 1_555
H14 C21 1_555 1_555
C22 C21 1_555 1_555
C23 C22 1_555 1_555
H15 C23 1_555 1_555
C24 C23 1_555 1_555
H16 C24 1_555 1_555
N5 C13 1_555 1_555
N6 C18 1_555 1_555
N7 C19 1_555 1_555
N8 C20 1_555 1_555
O2 C18 1_555 1_555
O3 Cu1 1_555 1_555
H17 O3 1_555 1_555
H18 O3 1_555 1_555
Cl1 O4 1_555 1_555
O5 Cl1 1_555 1_555
O6 Cl1 1_555 1_555
O7 Cl1 1_555 1_555
O8 H19 1_555 1_555
C25 O8 1_555 1_555
H20 C25 1_555 1_555
H21 C25 1_555 1_555
H22 C25 1_555 1_555
C1B H1B 1_555 1_555
C2B C1B 1_555 1_555
H2B C2B 1_555 1_555
C3B C2B 1_555 1_555
C4B C3B 1_555 1_555
H3B C4B 1_555 1_555
C5B C4B 1_555 1_555
H4B C5B 1_555 1_555
C6B C3B 1_555 1_555
C7B C10B 1_555 1_555
C8B H5B 1_555 1_555
C9B C8B 1_555 1_555
H6B C9B 1_555 1_555
C10B C9B 1_555 1_555
C11B C10B 1_555 1_555
H7B C11B 1_555 1_555
C12B C11B 1_555 1_555
H8B C12B 1_555 1_555
N1B Cu1 1_555 1_555
N2B C6B 1_555 1_555
N3B C7B 1_555 1_555
N4B C8B 1_555 1_555
O1B C6B 1_555 1_555
O3B Cu1 1_555 1_555
H17B O3B 1_555 1_555
H18B O3B 1_555 1_555
N4A Cu1 1_555 1_555
N4C Cu1 1_555 1_555
Cu1A N4 1_555 1_555
Cu1A_2 N4B 1_555 1_555
C5 N1 1_555 1_555
C7 O1 1_555 1_555
C12 N4 1_555 1_555
N2 N3 1_555 1_555
C17 N5 1_555 1_555
C19 O2 1_555 1_555
C24 N8 1_555 1_555
N6 N7 1_555 1_555
C1B N1B 1_555 1_555
C5B N1B 1_555 1_555
C7B O1B 1_555 1_555
C12B N4B 1_555 1_555
N2B N3B 1_555 1_555

#END
