
#######################################################################
#
#                 Cambridge Crystallographic Data Centre
#                                CCDC 
#
#######################################################################
#
# If this CIF has been generated from an entry in the Cambridge 
# Structural Database, then it will include bibliographic, chemical, 
# crystal, experimental, refinement or atomic coordinate data resulting 
# from the CCDC's data processing and validation procedures.
#
#######################################################################

data_KABSIR
_symmetry_cell_setting           triclinic
_symmetry_space_group_name_H-M   'P -1'
_symmetry_Int_Tables_number      2
_space_group_name_Hall           '-P 1'
loop_
_symmetry_equiv_pos_site_id
_symmetry_equiv_pos_as_xyz
1 x,y,z
2 -x,-y,-z
_cell_length_a                   12.188(5)
_cell_length_b                   12.348(5)
_cell_length_c                   12.715(5)
_cell_angle_alpha                98.354(5)
_cell_angle_beta                 113.399(5)
_cell_angle_gamma                110.390(5)
_cell_volume                     1554.1
loop_
_atom_site_label
_atom_site_type_symbol
_atom_site_fract_x
_atom_site_fract_y
_atom_site_fract_z
C1 C 0.0922(3) 0.9889(3) 0.4653(3)
C2 C 0.1971(3) 0.9790(3) 0.4354(3)
C3 C 0.1066(3) 0.4912(3) 0.0888(3)
C4 C 0.5106(3) 1.0290(3) 0.1155(3)
C5 C 0.2248(3) 0.4800(3) 0.1788(3)
C6 C 0.5179(3) 1.0589(3) 0.2385(3)
C7 C 0.0892(3) 0.5978(3) 0.1094(3)
C8 C 0.0168(3) 0.3950(3) -0.0194(3)
H1 H 0.0280 0.3243 -0.0318
C9 C 0.0737(3) 0.9415(3) 0.5532(3)
H2 H 0.1237 0.9024 0.5894
C10 C 0.6080(3) 1.1062(3) 0.0925(3)
C11 C 0.1773(3) 0.6981(3) 0.2307(3)
C12 C 0.8460(4) 1.4439(3) 0.2225(4)
H3 H 0.9259 1.4378 0.2502
C13 C 0.0186(3) 1.0484(3) 0.4119(3)
C14 C 0.3614(3) 0.5754(3) 0.2179(3)
C15 C 0.7262(3) 1.3405(3) 0.1837(3)
C16 C 0.7287(3) 1.2210(3) 0.1874(3)
C17 C 0.4684(4) 0.5901(4) 0.3259(3)
H4 H 0.4543 0.5401 0.3720
C18 C -0.0502(3) 1.0328(3) 0.1885(3)
C19 C 0.3855(4) 0.6489(4) 0.1489(4)
H5 H 0.3150 0.6394 0.0768
C20 C 0.0329(3) 1.1064(3) 0.3186(3)
C21 C 0.5145(4) 0.7368(4) 0.1872(5)
H6 H 0.5302 0.7851 0.1402
C22 C 0.6081(4) 1.3505(4) 0.1416(4)
H7 H 0.5277 1.2817 0.1141
C23 C -0.0595(4) 1.0903(4) 0.1017(4)
H8 H -0.0095 1.1746 0.1263
C24 C -0.1237(4) 0.9063(4) 0.1508(4)
H9 H -0.1182 0.8659 0.2076
C25 C -0.1404(5) 1.0258(5) -0.0191(4)
H10 H -0.1459 1.0658 -0.0762
C26 C 0.6189(4) 0.7524(4) 0.2949(4)
H11 H 0.7049 0.8119 0.3211
C27 C 0.5959(4) 0.6801(4) 0.3636(4)
H12 H 0.6668 0.6916 0.4364
C28 C 0.7276(5) 1.5633(4) 0.1786(5)
H13 H 0.7276 1.6383 0.1763
C29 C 0.8457(5) 1.5555(4) 0.2198(4)
H14 H 0.9253 1.6246 0.2459
C30 C 0.6092(5) 1.4631(4) 0.1405(4)
H15 H 0.5300 1.4704 0.1140
C31 C -0.2050(5) 0.8412(5) 0.0283(5)
H16 H -0.2540 0.7566 0.0026
C32 C -0.2136(5) 0.9011(6) -0.0556(4)
H17 H -0.2696 0.8568 -0.1379
C33 C 0.4045(3) 0.9236(3) 0.0228(3)
H18 H 0.3405 0.8718 0.0381
Co1 Co 0.36945(4) 0.96143(4) 0.37601(4)
Co2 Co 0.68513(4) 1.23423(4) 0.49722(4)
O1 O 0.2291(2) 1.0358(2) 0.3697(2)
O2 O 0.2091(2) 0.8064(2) 0.2319(2)
O3 O 0.8289(2) 1.2172(2) 0.2594(2)
O4 O 0.1024(2) 1.2169(2) 0.3524(2)
O6 O 0.4329(3) 0.9808(2) 0.2530(2)
O7 O 0.6089(2) 1.1613(2) 0.3153(2)
O8 O 0.2103(2) 0.6626(2) 0.3219(2)
O9 O 0.8656(2) 1.3404(2) 0.4955(3)
H19 H 0.8738 1.4099 0.4999
O10 O 0.4710(2) 0.87801(18) 0.48256(19)
O11 O 0.2055(3) 0.3913(2) 0.2118(3)
O12 O 0.6224(2) 1.3715(2) 0.4665(3)
H20 H 0.5409 1.3397 0.4249
O13 O 0.2527(2) 0.9154(2) 0.4788(2)
C1A C -0.0922(3) 1.0111(3) 0.5347(3)
C2A C -0.1971(3) 1.0210(3) 0.5646(3)
C3A C -0.1066(3) 0.5088(3) -0.0888(3)
C4A C 0.4894(3) 0.9710(3) -0.1155(3)
C5A C -0.2248(3) 0.5200(3) -0.1788(3)
C6A C 0.4821(3) 0.9411(3) -0.2385(3)
C7A C -0.0892(3) 0.4022(3) -0.1094(3)
C8A C -0.0168(3) 0.6050(3) 0.0194(3)
H1A H -0.0280 0.6757 0.0318
C9A C -0.0737(3) 1.0585(3) 0.4468(3)
H2A H -0.1237 1.0976 0.4106
C10A C 0.3920(3) 0.8938(3) -0.0925(3)
C11A C -0.1773(3) 0.3019(3) -0.2307(3)
C12A C 0.1540(4) 0.5561(3) -0.2225(4)
H3A H 0.0741 0.5622 -0.2502
C13A C -0.0186(3) 0.9516(3) 0.5881(3)
C14A C -0.3614(3) 0.4246(3) -0.2179(3)
C15A C 0.2738(3) 0.6595(3) -0.1837(3)
C16A C 0.2713(3) 0.7790(3) -0.1874(3)
C17A C -0.4684(4) 0.4099(4) -0.3259(3)
H4A H -0.4543 0.4599 -0.3720
C18A C 0.0502(3) 0.9672(3) 0.8115(3)
C19A C -0.3855(4) 0.3511(4) -0.1489(4)
H5A H -0.3150 0.3606 -0.0768
C20A C -0.0329(3) 0.8936(3) 0.6814(3)
C21A C -0.5145(4) 0.2632(4) -0.1872(5)
H6A H -0.5302 0.2149 -0.1402
C22A C 0.3919(4) 0.6495(4) -0.1416(4)
H7A H 0.4723 0.7183 -0.1141
C23A C 0.0595(4) 0.9097(4) 0.8983(4)
H8A H 0.0095 0.8254 0.8737
C24A C 0.1237(4) 1.0937(4) 0.8492(4)
H9A H 0.1182 1.1341 0.7924
C25A C 0.1404(5) 0.9742(5) 1.0191(4)
H10A H 0.1459 0.9342 1.0762
C26A C -0.6189(4) 0.2476(4) -0.2949(4)
H11A H -0.7049 0.1881 -0.3211
C27A C -0.5959(4) 0.3199(4) -0.3636(4)
H12A H -0.6668 0.3084 -0.4364
C28A C 0.2724(5) 0.4367(4) -0.1786(5)
H13A H 0.2724 0.3617 -0.1763
C29A C 0.1543(5) 0.4445(4) -0.2198(4)
H14A H 0.0747 0.3754 -0.2459
C30A C 0.3908(5) 0.5369(4) -0.1405(4)
H15A H 0.4700 0.5296 -0.1140
C31A C 0.2050(5) 1.1588(5) 0.9717(5)
H16A H 0.2540 1.2434 0.9974
C32A C 0.2136(5) 1.0989(6) 1.0556(4)
H17A H 0.2696 1.1432 1.1379
C33A C 0.5955(3) 1.0764(3) -0.0228(3)
H18A H 0.6595 1.1282 -0.0381
Co1A Co -0.36945(4) 1.03857(4) 0.62399(4)
Co1A_2 Co 0.63055(4) 1.03857(4) 0.62399(4)
Co1A_3 Co -0.36945(4) 0.03857(4) -0.37601(4)
Co1A_4 Co 0.63055(4) 1.03857(4) -0.37601(4)
Co2A Co 0.31487(4) 0.76577(4) -0.49722(4)
Co2A_2 Co 0.31487(4) 0.76577(4) 0.50278(4)
Co2_2 Co -0.31487(4) 1.23423(4) 0.49722(4)
Co2_3 Co -0.31487(4) 0.23423(4) -0.50278(4)
O1A O -0.2291(2) 0.9642(2) 0.6303(2)
O2A O -0.2091(2) 0.1936(2) -0.2319(2)
O2A_2 O -0.2091(2) 1.1936(2) 0.7681(2)
O3A O 0.1711(2) 0.7828(2) -0.2594(2)
O4A O -0.1024(2) 0.7831(2) 0.6476(2)
O6A O 0.5671(3) 1.0192(2) -0.2530(2)
O6A_2 O -0.4329(3) 1.0192(2) 0.7470(2)
O7A O 0.3911(2) 0.8387(2) -0.3153(2)
O8A O -0.2103(2) 0.3374(2) -0.3219(2)
O8A_2 O 0.7897(2) 1.3374(2) 0.6781(2)
O8_2 O 0.2103(2) 0.6626(2) -0.6781(2)
O9A O 0.1344(2) 0.6596(2) -0.4955(3)
H19A H 0.1262 0.5901 -0.4999
O10A O 0.5290(2) 1.12199(18) 0.51744(19)
O10A_2 O -0.4710(2) 1.12199(18) 0.51744(19)
O10_2 O -0.5290(2) 0.87801(18) 0.48256(19)
O10_3 O 0.4710(2) 0.87801(18) -0.51744(19)
O11A O -0.2055(3) 0.6087(2) -0.2118(3)
O12A O 0.3776(2) 0.6285(2) -0.4665(3)
H20A H 0.4591 0.6603 -0.4249
O13A O -0.2527(2) 1.0846(2) 0.5212(2)
O13A_2 O 0.7473(2) 1.0846(2) 0.5212(2)
O13_2 O 0.2527(2) 0.9154(2) -0.5212(2)
O5 O 0.3574(3) 0.2815(4) 0.3455(3)
H22 H 0.314(6) 0.231(5) 0.359(5)
H23 H 0.298(6) 0.309(5) 0.310(5)
O14 O 0.1451(4) 0.4333(3) 0.5024(5)
H21 H 0.128(3) 0.443(2) 0.410(3)
H24 H 0.089(12) 0.349(3) 0.475(14)
loop_
_geom_bond_atom_site_label_1
_geom_bond_atom_site_label_2
_geom_bond_site_symmetry_1
_geom_bond_site_symmetry_2
C1 C2 1_555 1_555
C2 O1 1_555 1_555
C3 C5 1_555 1_555
C4 C6 1_555 1_555
C5 C14 1_555 1_555
C6 O6 1_555 1_555
C7 C3 1_555 1_555
C8 C3 1_555 1_555
H1 C8 1_555 1_555
C9 C1 1_555 1_555
H2 C9 1_555 1_555
C10 C4 1_555 1_555
C11 C7 1_555 1_555
C12 H3 1_555 1_555
C13 C1 1_555 1_555
C14 C17 1_555 1_555
C15 C12 1_555 1_555
C16 C10 1_555 1_555
C17 H4 1_555 1_555
C18 C20 1_555 1_555
C19 C14 1_555 1_555
H5 C19 1_555 1_555
C20 C13 1_555 1_555
C21 C19 1_555 1_555
H6 C21 1_555 1_555
C22 C15 1_555 1_555
H7 C22 1_555 1_555
C23 C18 1_555 1_555
H8 C23 1_555 1_555
C24 C18 1_555 1_555
H9 C24 1_555 1_555
C25 C23 1_555 1_555
H10 C25 1_555 1_555
C26 C21 1_555 1_555
H11 C26 1_555 1_555
C27 C17 1_555 1_555
H12 C27 1_555 1_555
C28 H13 1_555 1_555
C29 C12 1_555 1_555
H14 C29 1_555 1_555
C30 C22 1_555 1_555
H15 C30 1_555 1_555
C31 C24 1_555 1_555
H16 C31 1_555 1_555
C32 C25 1_555 1_555
H17 C32 1_555 1_555
C33 C4 1_555 1_555
H18 C33 1_555 1_555
Co1 O1 1_555 1_555
Co2 O7 1_555 1_555
O2 C11 1_555 1_555
O3 C16 1_555 1_555
O4 C20 1_555 1_555
O5 H22 1_555 1_555
O6 Co1 1_555 1_555
O7 C6 1_555 1_555
O8 C11 1_555 1_555
O9 Co2 1_555 1_555
H19 O9 1_555 1_555
O10 Co1 1_555 1_555
O11 C5 1_555 1_555
O12 Co2 1_555 1_555
H20 O12 1_555 1_555
O13 C2 1_555 1_555
O14 H21 1_555 1_555
H23 O5 1_555 1_555
H24 O14 1_555 1_555
C1A C2A 1_555 1_555
C2A O1A 1_555 1_555
C3A C5A 1_555 1_555
C4A C6A 1_555 1_555
C5A C14A 1_555 1_555
C6A O6A 1_555 1_555
C7A C8 1_555 1_555
C8A C7 1_555 1_555
H1A C8A 1_555 1_555
C9A C13 1_555 1_555
H2A C9A 1_555 1_555
C10A C33 1_555 1_555
C11A C7A 1_555 1_555
C12A H3A 1_555 1_555
C13A C9 1_555 1_555
C14A C17A 1_555 1_555
C15A C12A 1_555 1_555
C16A C10A 1_555 1_555
C17A H4A 1_555 1_555
C18A C20A 1_555 1_555
C19A C14A 1_555 1_555
H5A C19A 1_555 1_555
C20A C13A 1_555 1_555
C21A C19A 1_555 1_555
H6A C21A 1_555 1_555
C22A C15A 1_555 1_555
H7A C22A 1_555 1_555
C23A C18A 1_555 1_555
H8A C23A 1_555 1_555
C24A C18A 1_555 1_555
H9A C24A 1_555 1_555
C25A C23A 1_555 1_555
H10A C25A 1_555 1_555
C26A C21A 1_555 1_555
H11A C26A 1_555 1_555
C27A C17A 1_555 1_555
H12A C27A 1_555 1_555
C28A H13A 1_555 1_555
C29A C12A 1_555 1_555
H14A C29A 1_555 1_555
C30A C22A 1_555 1_555
H15A C30A 1_555 1_555
C31A C24A 1_555 1_555
H16A C31A 1_555 1_555
C32A C25A 1_555 1_555
H17A C32A 1_555 1_555
C33A C10 1_555 1_555
H18A C33A 1_555 1_555
Co1A O1A 1_555 1_555
Co1A_2 O10 1_555 1_555
Co1A_3 O2A 1_555 1_555
Co1A_4 O6A 1_555 1_555
Co2A O7A 1_555 1_555
Co2A_2 O8 1_555 1_555
Co2_2 O10A_2 1_555 1_555
Co2_3 O8A 1_555 1_555
O2A C11A 1_555 1_555
O2A_2 Co1A 1_555 1_555
O3A C16A 1_555 1_555
O4A C20A 1_555 1_555
O6A_2 Co1A 1_555 1_555
O7A C6A 1_555 1_555
O8A C11A 1_555 1_555
O8A_2 Co2 1_555 1_555
O8_2 Co2A 1_555 1_555
O9A Co2A 1_555 1_555
H19A O9A 1_555 1_555
O10A Co1 1_555 1_555
O10A_2 Co1A 1_555 1_555
O10_2 Co1A 1_555 1_555
O10_3 Co1A_4 1_555 1_555
O11A C5A 1_555 1_555
O12A Co2A 1_555 1_555
H20A O12A 1_555 1_555
O13A C2A 1_555 1_555
O13A_2 Co2 1_555 1_555
O13_2 Co2A 1_555 1_555
C15 C16 1_555 1_555
C26 C27 1_555 1_555
C28 C29 1_555 1_555
C28 C30 1_555 1_555
C31 C32 1_555 1_555
Co1 O2 1_555 1_555
Co1 O13 1_555 1_555
Co2 O10A 1_555 1_555
O10 Co2A_2 1_555 1_555
O13 Co2A_2 1_555 1_555
C1A C9A 1_555 1_555
C1A C13A 1_555 1_555
C3A C7A 1_555 1_555
C3A C8A 1_555 1_555
C4A C10A 1_555 1_555
C4A C33A 1_555 1_555
C15A C16A 1_555 1_555
C26A C27A 1_555 1_555
C28A C29A 1_555 1_555
C28A C30A 1_555 1_555
C31A C32A 1_555 1_555
Co1A O13A 1_555 1_555
Co1A_2 O10A 1_555 1_555
Co1A_2 O13A_2 1_555 1_555
Co2A O10_3 1_555 1_555
Co2_2 O13A 1_555 1_555

#END
