
#######################################################################
#
#                 Cambridge Crystallographic Data Centre
#                                CCDC 
#
#######################################################################
#
# If this CIF has been generated from an entry in the Cambridge 
# Structural Database, then it will include bibliographic, chemical, 
# crystal, experimental, refinement or atomic coordinate data resulting 
# from the CCDC's data processing and validation procedures.
#
#######################################################################

data_KABSUD
_symmetry_cell_setting           monoclinic
_symmetry_space_group_name_H-M   'P 21/c'
_symmetry_Int_Tables_number      14
_space_group_name_Hall           '-P 2ybc'
loop_
_symmetry_equiv_pos_site_id
_symmetry_equiv_pos_as_xyz
1 x,y,z
2 -x,1/2+y,1/2-z
3 -x,-y,-z
4 x,1/2-y,1/2+z
_cell_length_a                   11.5654(3)
_cell_length_b                   17.5950(5)
_cell_length_c                   22.7599(5)
_cell_angle_alpha                90
_cell_angle_beta                 110.2990(10)
_cell_angle_gamma                90
_cell_volume                     4343.85
loop_
_atom_site_label
_atom_site_type_symbol
_atom_site_fract_x
_atom_site_fract_y
_atom_site_fract_z
Cd1 Cd -0.718570(19) 1.010430(12) 0.299930(9)
Cd2 Cd -0.927700(18) 0.911850(11) 0.152600(9)
Cd3 Cd 0.0000 0.5000 0.5000
Cl1 Cl -0.95868(7) 0.96693(4) 0.25366(3)
Cl2 Cl -0.48861(8) 1.03679(6) 0.35045(4)
N1 N -0.2059(2) 0.54527(15) 0.46152(11)
N2 N -0.8532(2) 0.78920(13) 0.18478(11)
N3 N -1.1298(2) 0.85670(14) 0.12275(11)
N4 N -1.6847(2) 0.60972(14) -0.14491(11)
N5 N -0.7665(2) 1.05461(15) 0.38961(11)
N6 N -0.7568(2) 1.36761(13) 0.75238(10)
N7 N -0.0082(2) 0.47553(15) 0.59809(10)
N8 N -0.0755(3) 0.44529(15) 0.60539(10)
N9 N -0.1532(3) 0.4032(2) 0.61674(16)
N10 N -0.0853(2) 0.38109(15) 0.45157(11)
N11 N -0.0716(3) 0.3315(2) 0.47521(14)
N12 N -0.0589(4) 0.2687(2) 0.5032(2)
N13 N -0.7243(2) 0.95563(14) 0.20339(10)
N14 N -0.6420(3) 0.91722(16) 0.20229(12)
N15 N -0.5596(3) 0.8800(2) 0.20044(19)
C1 C -0.4522(3) 0.5757(2) 0.39039(14)
C2 C -0.3567(3) 0.6204(2) 0.38690(16)
H1 H -0.3738 0.6621 0.3602
C3 C -0.2361(3) 0.60384(19) 0.42261(16)
H2 H -0.1737 0.6350 0.4192
C4 C -0.2976(3) 0.5037(2) 0.46631(17)
H3 H -0.2783 0.4632 0.4943
C5 C -0.4194(3) 0.5168(2) 0.43246(17)
H4 H -0.4800 0.4858 0.4380
C6 C -0.5840(3) 0.5880(2) 0.34810(16)
H5 H -0.6003 0.6421 0.3424
H6 H -0.6393 0.5668 0.3676
C7 C -0.6079(3) 0.55095(19) 0.28526(15)
H7 H -0.5528 0.5731 0.2661
H8 H -0.5882 0.4973 0.2917
C8 C -0.7406(3) 0.55903(18) 0.23994(16)
H9 H -0.7959 0.5375 0.2593
H10 H -0.7498 0.5298 0.2024
C9 C -0.7784(3) 0.64021(17) 0.22143(14)
C10 C -0.7454(3) 0.67683(18) 0.17600(15)
H11 H -0.6974 0.6520 0.1566
C11 C -0.7839(3) 0.75020(18) 0.15950(14)
H12 H -0.7600 0.7738 0.1290
C12 C -0.8824(3) 0.75450(19) 0.22983(15)
H13 H -0.9290 0.7810 0.2491
C13 C -0.8469(3) 0.68160(19) 0.24907(15)
H14 H -0.8692 0.6600 0.2809
C14 C -1.3583(3) 0.78214(18) 0.09269(14)
C15 C -1.3302(3) 0.8459(2) 0.13087(15)
H15 H -1.3877 0.8652 0.1471
C16 C -1.2167(3) 0.88063(19) 0.14475(15)
H16 H -1.1998 0.9230 0.1708
C17 C -1.1588(3) 0.7964(2) 0.08530(16)
H17 H -1.1005 0.7785 0.0690
C18 C -1.2697(3) 0.75874(19) 0.06927(16)
H18 H -1.2847 0.7172 0.0424
C19 C -1.4798(3) 0.7407(2) 0.07897(16)
H19 H -1.4866 0.7244 0.1184
H20 H -1.4787 0.6954 0.0549
C20 C -1.5925(3) 0.7866(2) 0.04372(16)
H21 H -1.6654 0.7584 0.0426
H22 H -1.5912 0.8335 0.0662
C21 C -1.6023(3) 0.80552(19) -0.02295(15)
H23 H -1.5254 0.8283 -0.0222
H24 H -1.6670 0.8429 -0.0398
C22 C -1.6295(3) 0.73732(17) -0.06599(13)
C23 C -1.7413(3) 0.6995(2) -0.08107(15)
H25 H -1.8006 0.7161 -0.0649
C24 C -1.7642(3) 0.6372(2) -0.11999(15)
H26 H -1.8399 0.6129 -0.1294
C25 C -1.5780(3) 0.64687(19) -0.13076(16)
H27 H -1.5208 0.6296 -0.1480
C26 C -1.5479(3) 0.70930(18) -0.09212(15)
H28 H -1.4717 0.7327 -0.0837
C27 C -0.8211(3) 1.07156(18) 0.49984(15)
C28 C -0.9072(3) 1.0866(2) 0.44153(17)
H29 H -0.9856 1.1034 0.4380
C29 C -0.8772(3) 1.07694(19) 0.38875(15)
H30 H -0.9376 1.0865 0.3501
C30 C -0.6814(3) 1.04279(19) 0.44633(14)
H31 H -0.6022 1.0290 0.4488
C31 C -0.7059(4) 1.0502(2) 0.50103(14)
H32 H -0.6439 1.0406 0.5392
C32 C -0.8498(4) 1.0770(2) 0.55953(17)
H33 H -0.9380 1.0716 0.5494
H34 H -0.8100 1.0351 0.5867
C33 C -0.8085(3) 1.15116(18) 0.59503(14)
H35 H -0.8537 1.1930 0.5696
H36 H -0.7216 1.1589 0.6024
C34 C -0.8294(4) 1.1514(2) 0.65736(17)
H37 H -0.7767 1.1132 0.6844
H38 H -0.9142 1.1371 0.6502
C35 C -0.8043(4) 1.22667(18) 0.69065(14)
C36 C -0.8959(3) 1.27927(19) 0.68382(15)
H39 H -0.9762 1.2685 0.6580
C37 C -0.8698(3) 1.34798(18) 0.71494(14)
H40 H -0.9339 1.3822 0.7095
H41 H -0.5865 1.3300 0.7836
C38 C -0.6665(3) 1.31729(19) 0.75850(14)
C39 C -0.6869(4) 1.24722(19) 0.72917(16)
H42 H -0.6215 1.2137 0.7354
Cd1B Cd 0.718570(19) -0.010430(12) 0.700070(9)
Cd1C Cd -1.718570(19) 0.489570(12) -0.200070(9)
Cd1C_2 Cd -0.718570(19) 1.489570(12) 0.799930(9)
Cd1A Cd 1.718570(19) 0.510430(12) 1.200070(9)
Cd1C_3 Cd -0.718570(19) 1.489570(12) -0.200070(9)
Cd2B Cd 0.927700(18) 0.088150(11) 0.847400(9)
Cd2C Cd 0.072300(18) 0.588150(11) 0.652600(9)
Cd2A Cd -0.072300(18) 0.411850(11) 0.347400(9)
Cl1B Cl 0.95868(7) 0.03307(4) 0.74634(3)
Cl2B Cl 0.48861(8) -0.03679(6) 0.64955(4)
N1B N 0.2059(2) 0.45473(15) 0.53848(11)
N2B N 0.8532(2) 0.21080(13) 0.81522(11)
N3B N 1.1298(2) 0.14330(14) 0.87725(11)
N4B N 1.6847(2) 0.39028(14) 1.14491(11)
N4C N -0.6847(2) 0.89028(14) 0.35509(11)
N4A N 0.6847(2) 0.10972(14) 0.64491(11)
N5C N -0.7665(2) 1.44539(15) -0.11039(11)
N5B N 0.7665(2) -0.05461(15) 0.61039(11)
N6C N -0.7568(2) 1.13239(13) 0.25238(10)
N6A N 0.7568(2) -0.13239(13) 0.74762(10)
N7B N 0.0082(2) 0.52447(15) 0.40191(10)
N7C N -1.0082(2) 1.02447(15) 0.09809(10)
N7A N 1.0082(2) -0.02447(15) 0.90191(10)
N8B N 0.0755(3) 0.55471(15) 0.39461(10)
N9B N 0.1532(3) 0.5968(2) 0.38326(16)
N10B N 0.0853(2) 0.61891(15) 0.54843(11)
N10A N -0.9147(2) 0.88109(15) 0.04843(11)
N10C N 0.9147(2) 0.11891(15) 0.95157(11)
N11B N 0.0716(3) 0.6685(2) 0.52479(14)
N12B N 0.0589(4) 0.7313(2) 0.4968(2)
N13B N 0.7243(2) 0.04437(14) 0.79661(10)
N14B N 0.6420(3) 0.08278(16) 0.79771(12)
N15B N 0.5596(3) 0.1200(2) 0.79956(19)
C1B C 0.4522(3) 0.4243(2) 0.60961(14)
C2B C 0.3567(3) 0.3796(2) 0.61310(16)
H1B H 0.3738 0.3379 0.6398
C3B C 0.2361(3) 0.39616(19) 0.57739(16)
H2B H 0.1737 0.3650 0.5808
C4B C 0.2976(3) 0.4963(2) 0.53369(17)
H3B H 0.2783 0.5368 0.5057
C5B C 0.4194(3) 0.4832(2) 0.56754(17)
H4B H 0.4800 0.5142 0.5620
C6B C 0.5840(3) 0.4120(2) 0.65190(16)
H5B H 0.6003 0.3579 0.6576
H6B H 0.6393 0.4332 0.6324
C7B C 0.6079(3) 0.44905(19) 0.71474(15)
H7B H 0.5528 0.4269 0.7339
H8B H 0.5882 0.5027 0.7083
C8B C 0.7406(3) 0.44097(18) 0.76006(16)
H9B H 0.7959 0.4625 0.7407
H10B H 0.7498 0.4702 0.7976
C9B C 0.7784(3) 0.35979(17) 0.77857(14)
C10B C 0.7454(3) 0.32317(18) 0.82400(15)
H11B H 0.6974 0.3480 0.8434
C11B C 0.7839(3) 0.24980(18) 0.84050(14)
H12B H 0.7600 0.2262 0.8710
C12B C 0.8824(3) 0.24550(19) 0.77017(15)
H13B H 0.9290 0.2190 0.7509
C13B C 0.8469(3) 0.31840(19) 0.75093(15)
H14B H 0.8692 0.3400 0.7191
C14B C 1.3583(3) 0.21786(18) 0.90731(14)
C15B C 1.3302(3) 0.1541(2) 0.86913(15)
H15B H 1.3877 0.1348 0.8529
C16B C 1.2167(3) 0.11937(19) 0.85525(15)
H16B H 1.1998 0.0770 0.8292
C17B C 1.1588(3) 0.2036(2) 0.91470(16)
H17B H 1.1005 0.2215 0.9310
C18B C 1.2697(3) 0.24126(19) 0.93073(16)
H18B H 1.2847 0.2828 0.9576
C19B C 1.4798(3) 0.2593(2) 0.92103(16)
H19B H 1.4866 0.2756 0.8816
H20B H 1.4787 0.3046 0.9451
C20B C 1.5925(3) 0.2134(2) 0.95628(16)
H21B H 1.6654 0.2416 0.9574
H22B H 1.5912 0.1665 0.9338
C21B C 1.6023(3) 0.19448(19) 1.02295(15)
H23B H 1.5254 0.1717 1.0222
H24B H 1.6670 0.1571 1.0398
C22B C 1.6295(3) 0.26268(17) 1.06599(13)
C23B C 1.7413(3) 0.3005(2) 1.08107(15)
H25B H 1.8006 0.2839 1.0649
C24B C 1.7642(3) 0.3628(2) 1.11999(15)
H26B H 1.8399 0.3871 1.1294
C25B C 1.5780(3) 0.35313(19) 1.13076(16)
H27B H 1.5208 0.3704 1.1480
C26B C 1.5479(3) 0.29070(18) 1.09212(15)
H28B H 1.4717 0.2673 1.0837
C27C C -0.8211(3) 1.42844(18) -0.00016(15)
C28C C -0.9072(3) 1.4134(2) -0.05847(17)
H29C H -0.9856 1.3966 -0.0620
C29C C -0.8772(3) 1.42306(19) -0.11125(15)
H30C H -0.9376 1.4135 -0.1499
C30C C -0.6814(3) 1.45721(19) -0.05367(14)
H31C H -0.6022 1.4710 -0.0512
C31C C -0.7059(4) 1.4498(2) 0.00103(14)
H32C H -0.6439 1.4594 0.0392
C32C C -0.8498(4) 1.4230(2) 0.05953(17)
H33C H -0.9380 1.4284 0.0494
H34C H -0.8100 1.4649 0.0867
C33C C -0.8085(3) 1.34884(18) 0.09503(14)
H35C H -0.8537 1.3070 0.0696
H36C H -0.7216 1.3411 0.1024
C34C C -0.8294(4) 1.3486(2) 0.15736(17)
H37C H -0.7767 1.3868 0.1844
H38C H -0.9142 1.3629 0.1502
C35C C -0.8043(4) 1.27333(18) 0.19065(14)
C36C C -0.8959(3) 1.22073(19) 0.18382(15)
H39C H -0.9762 1.2315 0.1580
C37C C -0.8698(3) 1.15202(18) 0.21494(14)
H40C H -0.9339 1.1178 0.2095
H41C H -0.5865 1.1700 0.2836
C38C C -0.6665(3) 1.18271(19) 0.25850(14)
C39C C -0.6869(4) 1.25278(19) 0.22917(16)
H42C H -0.6215 1.2863 0.2354
loop_
_geom_bond_atom_site_label_1
_geom_bond_atom_site_label_2
_geom_bond_site_symmetry_1
_geom_bond_site_symmetry_2
Cd1 Cl1 1_555 1_555
Cd2 Cl1 1_555 1_555
Cd3 N1 1_555 1_555
Cl2 Cd1 1_555 1_555
N1 C3 1_555 1_555
N2 Cd2 1_555 1_555
N3 Cd2 1_555 1_555
N4 C24 1_555 1_555
N5 Cd1 1_555 1_555
N6 C37 1_555 1_555
N7 Cd3 1_555 1_555
N8 N7 1_555 1_555
N9 N8 1_555 1_555
N10 Cd3 1_555 1_555
N11 N10 1_555 1_555
N12 N11 1_555 1_555
N13 Cd1 1_555 1_555
N14 N13 1_555 1_555
N15 N14 1_555 1_555
C1 C2 1_555 1_555
C2 H1 1_555 1_555
C3 C2 1_555 1_555
H2 C3 1_555 1_555
C4 N1 1_555 1_555
H3 C4 1_555 1_555
C5 C1 1_555 1_555
H4 C5 1_555 1_555
C6 C1 1_555 1_555
H5 C6 1_555 1_555
H6 C6 1_555 1_555
C7 C6 1_555 1_555
H7 C7 1_555 1_555
H8 C7 1_555 1_555
C8 C7 1_555 1_555
H9 C8 1_555 1_555
H10 C8 1_555 1_555
C9 C8 1_555 1_555
C10 C9 1_555 1_555
H11 C10 1_555 1_555
C11 N2 1_555 1_555
H12 C11 1_555 1_555
C12 N2 1_555 1_555
H13 C12 1_555 1_555
C13 C9 1_555 1_555
H14 C13 1_555 1_555
C14 C15 1_555 1_555
C15 H15 1_555 1_555
C16 N3 1_555 1_555
H16 C16 1_555 1_555
C17 N3 1_555 1_555
H17 C17 1_555 1_555
C18 C14 1_555 1_555
H18 C18 1_555 1_555
C19 C14 1_555 1_555
H19 C19 1_555 1_555
H20 C19 1_555 1_555
C20 C19 1_555 1_555
H21 C20 1_555 1_555
H22 C20 1_555 1_555
C21 C20 1_555 1_555
H23 C21 1_555 1_555
H24 C21 1_555 1_555
C22 C21 1_555 1_555
C23 C22 1_555 1_555
H25 C23 1_555 1_555
C24 C23 1_555 1_555
H26 C24 1_555 1_555
C25 N4 1_555 1_555
H27 C25 1_555 1_555
C26 C22 1_555 1_555
H28 C26 1_555 1_555
C27 C28 1_555 1_555
C28 H29 1_555 1_555
C29 N5 1_555 1_555
H30 C29 1_555 1_555
C30 N5 1_555 1_555
H31 C30 1_555 1_555
C31 C27 1_555 1_555
H32 C31 1_555 1_555
C32 C27 1_555 1_555
H33 C32 1_555 1_555
H34 C32 1_555 1_555
C33 C32 1_555 1_555
H35 C33 1_555 1_555
H36 C33 1_555 1_555
C34 C33 1_555 1_555
H37 C34 1_555 1_555
H38 C34 1_555 1_555
C35 C34 1_555 1_555
C36 C35 1_555 1_555
H39 C36 1_555 1_555
C37 C36 1_555 1_555
H40 C37 1_555 1_555
H41 C38 1_555 1_555
C38 N6 1_555 1_555
C39 C35 1_555 1_555
H42 C39 1_555 1_555
Cd1B Cl1B 1_555 1_555
Cd1C N4 1_555 1_555
Cd1C_2 N6 1_555 1_555
Cd1A N4B 1_555 1_555
Cd1C_3 N5C 1_555 1_555
Cd2B Cl1B 1_555 1_555
Cd2C N7 1_555 1_555
Cd2A N10 1_555 1_555
Cl2B Cd1B 1_555 1_555
N1B Cd3 1_555 1_555
N2B Cd2B 1_555 1_555
N3B Cd2B 1_555 1_555
N4B C24B 1_555 1_555
N4C Cd1 1_555 1_555
N4A Cd1B 1_555 1_555
N5C C29C 1_555 1_555
N5B Cd1B 1_555 1_555
N6C Cd1 1_555 1_555
N6A Cd1B 1_555 1_555
N7B Cd3 1_555 1_555
N7C Cd2 1_555 1_555
N7A Cd2B 1_555 1_555
N8B N7B 1_555 1_555
N9B N8B 1_555 1_555
N10B Cd3 1_555 1_555
N10A Cd2 1_555 1_555
N10C Cd2B 1_555 1_555
N11B N10B 1_555 1_555
N12B N11B 1_555 1_555
N13B Cd1B 1_555 1_555
N14B N13B 1_555 1_555
N15B N14B 1_555 1_555
C1B C2B 1_555 1_555
C2B H1B 1_555 1_555
C3B N1B 1_555 1_555
H2B C3B 1_555 1_555
C4B N1B 1_555 1_555
H3B C4B 1_555 1_555
C5B C1B 1_555 1_555
H4B C5B 1_555 1_555
C6B C1B 1_555 1_555
H5B C6B 1_555 1_555
H6B C6B 1_555 1_555
C7B C6B 1_555 1_555
H7B C7B 1_555 1_555
H8B C7B 1_555 1_555
C8B C7B 1_555 1_555
H9B C8B 1_555 1_555
H10B C8B 1_555 1_555
C9B C8B 1_555 1_555
C10B C9B 1_555 1_555
H11B C10B 1_555 1_555
C11B N2B 1_555 1_555
H12B C11B 1_555 1_555
C12B N2B 1_555 1_555
H13B C12B 1_555 1_555
C13B C9B 1_555 1_555
H14B C13B 1_555 1_555
C14B C15B 1_555 1_555
C15B H15B 1_555 1_555
C16B N3B 1_555 1_555
H16B C16B 1_555 1_555
C17B N3B 1_555 1_555
H17B C17B 1_555 1_555
C18B C14B 1_555 1_555
H18B C18B 1_555 1_555
C19B C14B 1_555 1_555
H19B C19B 1_555 1_555
H20B C19B 1_555 1_555
C20B C19B 1_555 1_555
H21B C20B 1_555 1_555
H22B C20B 1_555 1_555
C21B C20B 1_555 1_555
H23B C21B 1_555 1_555
H24B C21B 1_555 1_555
C22B C21B 1_555 1_555
C23B C22B 1_555 1_555
H25B C23B 1_555 1_555
C24B C23B 1_555 1_555
H26B C24B 1_555 1_555
C25B N4B 1_555 1_555
H27B C25B 1_555 1_555
C26B C22B 1_555 1_555
H28B C26B 1_555 1_555
C27C C28C 1_555 1_555
C28C H29C 1_555 1_555
C29C C28C 1_555 1_555
H30C C29C 1_555 1_555
C30C N5C 1_555 1_555
H31C C30C 1_555 1_555
C31C C27C 1_555 1_555
H32C C31C 1_555 1_555
C32C C27C 1_555 1_555
H33C C32C 1_555 1_555
H34C C32C 1_555 1_555
C33C C32C 1_555 1_555
H35C C33C 1_555 1_555
H36C C33C 1_555 1_555
C34C C33C 1_555 1_555
H37C C34C 1_555 1_555
H38C C34C 1_555 1_555
C35C C34C 1_555 1_555
C36C C35C 1_555 1_555
H39C C36C 1_555 1_555
C37C N6C 1_555 1_555
H40C C37C 1_555 1_555
H41C C38C 1_555 1_555
C38C N6C 1_555 1_555
C39C C35C 1_555 1_555
H42C C39C 1_555 1_555
Cd2 N13 1_555 1_555
C4 C5 1_555 1_555
C10 C11 1_555 1_555
C12 C13 1_555 1_555
C15 C16 1_555 1_555
C17 C18 1_555 1_555
C25 C26 1_555 1_555
C28 C29 1_555 1_555
C30 C31 1_555 1_555
C38 C39 1_555 1_555
Cd2B N13B 1_555 1_555
Cd2C N10B 1_555 1_555
Cd2A N7B 1_555 1_555
C2B C3B 1_555 1_555
C4B C5B 1_555 1_555
C10B C11B 1_555 1_555
C12B C13B 1_555 1_555
C15B C16B 1_555 1_555
C17B C18B 1_555 1_555
C25B C26B 1_555 1_555
C30C C31C 1_555 1_555
C36C C37C 1_555 1_555
C38C C39C 1_555 1_555

#END
