
#######################################################################
#
#                 Cambridge Crystallographic Data Centre
#                                CCDC 
#
#######################################################################
#
# If this CIF has been generated from an entry in the Cambridge 
# Structural Database, then it will include bibliographic, chemical, 
# crystal, experimental, refinement or atomic coordinate data resulting 
# from the CCDC's data processing and validation procedures.
#
#######################################################################

data_KABSAJ
_symmetry_cell_setting           triclinic
_symmetry_space_group_name_H-M   'P 1'
_symmetry_Int_Tables_number      1
_space_group_name_Hall           'P 1'
loop_
_symmetry_equiv_pos_site_id
_symmetry_equiv_pos_as_xyz
1 x,y,z
_cell_length_a                   4.4818(4)
_cell_length_b                   6.4935(5)
_cell_length_c                   8.0236(7)
_cell_angle_alpha                103.4970(10)
_cell_angle_beta                 101.9730(10)
_cell_angle_gamma                98.363(2)
_cell_volume                     217.457
loop_
_atom_site_label
_atom_site_type_symbol
_atom_site_fract_x
_atom_site_fract_y
_atom_site_fract_z
C1 C 0.459(3) 0.525(2) 0.313(2)
C2 C 0.547(3) 0.714(2) 0.4646(18)
C3 C 0.515(4) 0.703(2) 0.631(2)
H1 H 0.4273 0.5705 0.6448
C4 C 0.725(4) 1.062(2) 0.746(2)
H2 H 0.7897 1.1863 0.8407
C5 C 0.754(4) 1.074(2) 0.576(2)
H3 H 0.8359 1.2061 0.5610
Hg1 Hg 0.49920(3) 0.81401(3) 0.06313(3)
N1 N 0.425(3) 0.5365(18) 0.1450(15)
N2 N 0.359(3) 0.331(2) 0.0419(18)
N3 N 0.341(4) 0.205(2) 0.144(2)
N4 N 0.401(4) 0.319(2) 0.316(2)
N5 N 0.668(3) 0.9030(19) 0.4402(17)
N6 N 0.605(4) 0.874(2) 0.772(2)
Cl1 Cl 0.0103(8) 0.9996(7) 0.2319(6)
Hg1_2 Hg 0.49920(3) -0.18599(3) 0.06313(3)
Hg1_3 Hg 0.49920(3) 0.81401(3) 1.06313(3)
Hg1_4 Hg -0.50080(3) 0.81401(3) 0.06313(3)
N3_2 N 0.341(4) 1.205(2) 0.144(2)
N6_2 N 0.605(4) 0.874(2) -0.228(2)
Cl1_2 Cl 1.0103(8) 0.9996(7) 0.2319(6)
loop_
_geom_bond_atom_site_label_1
_geom_bond_atom_site_label_2
_geom_bond_site_symmetry_1
_geom_bond_site_symmetry_2
C1 C2 1_555 1_555
C2 C3 1_555 1_555
C3 H1 1_555 1_555
C4 H2 1_555 1_555
C5 C4 1_555 1_555
H3 C5 1_555 1_555
Hg1 N1 1_555 1_555
N1 C1 1_555 1_555
N2 N1 1_555 1_555
N3 N2 1_555 1_555
N4 C1 1_555 1_555
N5 C2 1_555 1_555
N6 C3 1_555 1_555
Cl1 Hg1 1_555 1_555
Hg1_2 N3 1_555 1_555
Hg1_3 N6 1_555 1_555
Hg1_4 Cl1 1_555 1_555
N3_2 Hg1 1_555 1_555
N6_2 Hg1 1_555 1_555
Cl1_2 Hg1 1_555 1_555
C4 N6 1_555 1_555
C5 N5 1_555 1_555
Hg1 N5 1_555 1_555
N3 N4 1_555 1_555

#END
