
#######################################################################
#
#                 Cambridge Crystallographic Data Centre
#                                CCDC 
#
#######################################################################
#
# If this CIF has been generated from an entry in the Cambridge 
# Structural Database, then it will include bibliographic, chemical, 
# crystal, experimental, refinement or atomic coordinate data resulting 
# from the CCDC's data processing and validation procedures.
#
#######################################################################

data_KABTUE
_symmetry_cell_setting           orthorhombic
_symmetry_space_group_name_H-M   'F d d d'
_symmetry_Int_Tables_number      70
_space_group_name_Hall           '-F 2uv 2vw'
loop_
_symmetry_equiv_pos_site_id
_symmetry_equiv_pos_as_xyz
1 x,y,z
2 3/4-x,3/4-y,z
3 3/4-x,y,3/4-z
4 x,3/4-y,3/4-z
5 x,1/2+y,1/2+z
6 3/4-x,1/4-y,1/2+z
7 3/4-x,1/2+y,1/4-z
8 x,1/4-y,1/4-z
9 1/2+x,y,1/2+z
10 1/4-x,3/4-y,1/2+z
11 1/4-x,y,1/4-z
12 1/2+x,3/4-y,1/4-z
13 1/2+x,1/2+y,z
14 1/4-x,1/4-y,z
15 1/4-x,1/2+y,3/4-z
16 1/2+x,1/4-y,3/4-z
17 -x,-y,-z
18 1/4+x,1/4+y,-z
19 1/4+x,-y,1/4+z
20 -x,1/4+y,1/4+z
21 -x,1/2-y,1/2-z
22 1/4+x,3/4+y,1/2-z
23 1/4+x,1/2-y,3/4+z
24 -x,3/4+y,3/4+z
25 1/2-x,-y,1/2-z
26 3/4+x,1/4+y,1/2-z
27 3/4+x,-y,3/4+z
28 1/2-x,1/4+y,3/4+z
29 1/2-x,1/2-y,-z
30 3/4+x,3/4+y,-z
31 3/4+x,1/2-y,1/4+z
32 1/2-x,3/4+y,1/4+z
_cell_length_a                   14.387(6)
_cell_length_b                   27.907(15)
_cell_length_c                   42.32(2)
_cell_angle_alpha                90
_cell_angle_beta                 90
_cell_angle_gamma                90
_cell_volume                     16991.4
loop_
_atom_site_label
_atom_site_type_symbol
_atom_site_fract_x
_atom_site_fract_y
_atom_site_fract_z
Cd1 Cd 0.91712(5) 0.61864(2) 0.778356(14)
N1 N 0.8544(5) 0.6721(3) 0.81794(15)
N2 N 0.8216(5) 0.5785(2) 0.81589(14)
N3 N 0.9015(5) 0.5350(3) 0.76622(16)
O1 O 0.6733(5) 0.3776(3) 0.98089(17)
O2 O 0.5987(6) 0.4394(3) 0.99845(16)
O3 O 1.0493(4) 0.6265(2) 0.80977(13)
O4 O 1.0506(5) 0.6151(2) 0.74620(14)
C1 C 0.8634(7) 0.7204(4) 0.8160(2)
H1 H 0.9004 0.7332 0.8001
C2 C 0.8205(8) 0.7507(3) 0.8364(2)
H2 H 0.8286 0.7837 0.8345
C3 C 0.7651(8) 0.7323(4) 0.8597(2)
H3 H 0.7349 0.7525 0.8738
C4 C 0.7547(7) 0.6834(3) 0.8619(2)
H4 H 0.7179 0.6701 0.8777
C5 C 0.7994(6) 0.6546(3) 0.8406(2)
C6 C 0.7918(6) 0.6007(3) 0.84158(18)
C7 C 0.7588(6) 0.5760(3) 0.86776(18)
H5 H 0.7416 0.5927 0.8859
C8 C 0.7518(7) 0.5268(3) 0.86680(19)
C9 C 0.7790(7) 0.5049(3) 0.83961(18)
H6 H 0.7740 0.4717 0.8379
C10 C 0.8142(6) 0.5310(3) 0.81422(18)
C11 C 0.8478(7) 0.5080(3) 0.78449(19)
C12 C 0.8184(7) 0.4626(3) 0.7754(2)
H7 H 0.7783 0.4448 0.7881
C13 C 0.8503(8) 0.4443(4) 0.7469(2)
H8 H 0.8322 0.4140 0.7401
C14 C 0.9094(7) 0.4720(4) 0.7288(2)
H9 H 0.9333 0.4604 0.7098
C15 C 0.9316(8) 0.5160(3) 0.7392(2)
H10 H 0.9707 0.5346 0.7267
C16 C 0.7244(6) 0.4995(3) 0.8954(2)
C17 C 0.6692(8) 0.5195(3) 0.9180(2)
H11 H 0.6477 0.5507 0.9154
C18 C 0.6445(7) 0.4940(4) 0.9450(2)
H12 H 0.6069 0.5084 0.9602
C19 C 0.6753(7) 0.4474(3) 0.9497(2)
C20 C 0.7297(7) 0.4264(3) 0.9265(2)
H13 H 0.7496 0.3948 0.9287
C21 C 0.7547(7) 0.4530(3) 0.8995(2)
H14 H 0.7924 0.4390 0.8842
C22 C 0.6485(8) 0.4197(5) 0.9789(2)
C23 C 1.1250 0.6250 0.7962(3)
C24 C 1.1250 0.6250 0.7591(3)
Cd1AA Cd 0.58288(5) 0.86864(2) 0.528356(14)
Cd1EA Cd 0.58288(5) 0.36864(2) 1.028356(14)
Cd1M Cd 1.33288(5) 0.63136(2) 0.778356(14)
N1AA N 0.6456(5) 0.9221(3) 0.56794(15)
N2AA N 0.6784(5) 0.8285(2) 0.56589(14)
N3AA N 0.5985(5) 0.7850(3) 0.51622(16)
O1AA O 0.8267(5) 0.6276(3) 0.73089(17)
O1D O 0.6733(5) 0.8776(3) 0.48089(17)
O2AA O 0.9013(6) 0.6894(3) 0.74845(16)
O2D O 0.5987(6) 0.9394(3) 0.49845(16)
O3M O 1.2007(4) 0.6235(2) 0.80977(13)
O3AA O 0.4507(4) 0.8765(2) 0.55977(13)
O4M O 1.1994(5) 0.6349(2) 0.74620(14)
O4AA O 0.4494(5) 0.8651(2) 0.49620(14)
C1AA C 0.6366(7) 0.9704(4) 0.5660(2)
H1AA H 0.5996 0.9832 0.5501
C2AA C 0.6795(8) 1.0007(3) 0.5864(2)
H2AA H 0.6714 1.0337 0.5845
C3AA C 0.7349(8) 0.9823(4) 0.6097(2)
H3AA H 0.7651 1.0025 0.6238
C4AA C 0.7453(7) 0.9334(3) 0.6119(2)
H4AA H 0.7821 0.9201 0.6277
C5AA C 0.7006(6) 0.9046(3) 0.5906(2)
C6AA C 0.7082(6) 0.8507(3) 0.59158(18)
C7AA C 0.7412(6) 0.8260(3) 0.61776(18)
H5AA H 0.7584 0.8427 0.6359
C8AA C 0.7482(7) 0.7768(3) 0.61680(19)
C9AA C 0.7210(7) 0.7549(3) 0.58961(18)
H6AA H 0.7260 0.7217 0.5879
C10AA C 0.6858(6) 0.7810(3) 0.56422(18)
C11AA C 0.6522(7) 0.7580(3) 0.53449(19)
C12AA C 0.6816(7) 0.7126(3) 0.5254(2)
H7AA H 0.7217 0.6948 0.5381
C13AA C 0.6497(8) 0.6943(4) 0.4969(2)
H8AA H 0.6678 0.6640 0.4901
C14AA C 0.5906(7) 0.7220(4) 0.4788(2)
H9AA H 0.5667 0.7104 0.4598
C15AA C 0.5684(8) 0.7660(3) 0.4892(2)
H10AA H 0.5293 0.7846 0.4767
C16AA C 0.7756(6) 0.7495(3) 0.6454(2)
C17AA C 0.8308(8) 0.7695(3) 0.6680(2)
H11AA H 0.8523 0.8007 0.6654
C18AA C 0.8555(7) 0.7440(4) 0.6950(2)
H12AA H 0.8931 0.7584 0.7102
C19AA C 0.8247(7) 0.6974(3) 0.6997(2)
C20AA C 0.7703(7) 0.6764(3) 0.6765(2)
H13AA H 0.7504 0.6448 0.6787
C21AA C 0.7453(7) 0.7030(3) 0.6495(2)
H14AA H 0.7076 0.6890 0.6342
C22AA C 0.8515(8) 0.6697(5) 0.7289(2)
O5 O 0.0550(16) 0.6416(8) 0.6820(3)
O6 O 0.6188(17) 0.4213(8) 0.8281(5)
O7 O 0.727(4) 0.8750 0.8750
loop_
_geom_bond_atom_site_label_1
_geom_bond_atom_site_label_2
_geom_bond_site_symmetry_1
_geom_bond_site_symmetry_2
Cd1 N1 1_555 1_555
N1 C1 1_555 1_555
N2 Cd1 1_555 1_555
N3 Cd1 1_555 1_555
O1 C22 1_555 1_555
O2 C22 1_555 1_555
O3 Cd1 1_555 1_555
O4 Cd1 1_555 1_555
C1 H1 1_555 1_555
C2 C1 1_555 1_555
H2 C2 1_555 1_555
C3 C2 1_555 1_555
H3 C3 1_555 1_555
C4 C3 1_555 1_555
H4 C4 1_555 1_555
C5 N1 1_555 1_555
C6 N2 1_555 1_555
C7 C6 1_555 1_555
H5 C7 1_555 1_555
C8 C7 1_555 1_555
C9 C8 1_555 1_555
H6 C9 1_555 1_555
C10 N2 1_555 1_555
C11 N3 1_555 1_555
C12 C11 1_555 1_555
H7 C12 1_555 1_555
C13 C12 1_555 1_555
H8 C13 1_555 1_555
C14 C13 1_555 1_555
H9 C14 1_555 1_555
C15 N3 1_555 1_555
H10 C15 1_555 1_555
C16 C8 1_555 1_555
C17 C16 1_555 1_555
H11 C17 1_555 1_555
C18 C17 1_555 1_555
H12 C18 1_555 1_555
C19 C18 1_555 1_555
C20 C19 1_555 1_555
H13 C20 1_555 1_555
C21 C16 1_555 1_555
H14 C21 1_555 1_555
C22 C19 1_555 1_555
C23 O3 1_555 1_555
C24 O4 1_555 1_555
Cd1AA N1AA 1_555 1_555
Cd1EA O1 1_555 1_555
Cd1M O3M 1_555 1_555
N1AA C1AA 1_555 1_555
N2AA Cd1AA 1_555 1_555
N3AA Cd1AA 1_555 1_555
O1AA Cd1 1_555 1_555
O1D Cd1AA 1_555 1_555
O2AA Cd1 1_555 1_555
O2D Cd1AA 1_555 1_555
O3M C23 1_555 1_555
O3AA Cd1AA 1_555 1_555
O4M C24 1_555 1_555
O4AA Cd1AA 1_555 1_555
C1AA H1AA 1_555 1_555
C2AA C1AA 1_555 1_555
H2AA C2AA 1_555 1_555
C3AA C2AA 1_555 1_555
H3AA C3AA 1_555 1_555
C4AA C3AA 1_555 1_555
H4AA C4AA 1_555 1_555
C5AA N1AA 1_555 1_555
C6AA N2AA 1_555 1_555
C7AA C6AA 1_555 1_555
H5AA C7AA 1_555 1_555
C8AA C7AA 1_555 1_555
C9AA C8AA 1_555 1_555
H6AA C9AA 1_555 1_555
C10AA N2AA 1_555 1_555
C11AA N3AA 1_555 1_555
C12AA C11AA 1_555 1_555
H7AA C12AA 1_555 1_555
C13AA C12AA 1_555 1_555
H8AA C13AA 1_555 1_555
C14AA C13AA 1_555 1_555
H9AA C14AA 1_555 1_555
C15AA N3AA 1_555 1_555
H10AA C15AA 1_555 1_555
C16AA C8AA 1_555 1_555
C17AA C16AA 1_555 1_555
H11AA C17AA 1_555 1_555
C18AA C17AA 1_555 1_555
H12AA C18AA 1_555 1_555
C19AA C18AA 1_555 1_555
C20AA C19AA 1_555 1_555
H13AA C20AA 1_555 1_555
C21AA C16AA 1_555 1_555
H14AA C21AA 1_555 1_555
C22AA O1AA 1_555 1_555
O2 Cd1EA 1_555 1_555
C4 C5 1_555 1_555
C5 C6 1_555 1_555
C9 C10 1_555 1_555
C10 C11 1_555 1_555
C14 C15 1_555 1_555
C20 C21 1_555 1_555
C23 C24 1_555 1_555
Cd1M O4M 1_555 1_555
O2AA C22AA 1_555 1_555
C4AA C5AA 1_555 1_555
C5AA C6AA 1_555 1_555
C9AA C10AA 1_555 1_555
C10AA C11AA 1_555 1_555
C14AA C15AA 1_555 1_555
C19AA C22AA 1_555 1_555
C20AA C21AA 1_555 1_555

#END
