
#######################################################################
#
#                 Cambridge Crystallographic Data Centre
#                                CCDC 
#
#######################################################################
#
# If this CIF has been generated from an entry in the Cambridge 
# Structural Database, then it will include bibliographic, chemical, 
# crystal, experimental, refinement or atomic coordinate data resulting 
# from the CCDC's data processing and validation procedures.
#
#######################################################################

data_KABTIS
_symmetry_cell_setting           monoclinic
_symmetry_space_group_name_H-M   'P 21/c'
_symmetry_Int_Tables_number      14
_space_group_name_Hall           '-P 2ybc'
loop_
_symmetry_equiv_pos_site_id
_symmetry_equiv_pos_as_xyz
1 x,y,z
2 -x,1/2+y,1/2-z
3 -x,-y,-z
4 x,1/2-y,1/2+z
_cell_length_a                   20.680(2)
_cell_length_b                   8.1439(11)
_cell_length_c                   45.837(4)
_cell_angle_alpha                90
_cell_angle_beta                 94.957(2)
_cell_angle_gamma                90
_cell_volume                     7690.8
loop_
_atom_site_label
_atom_site_type_symbol
_atom_site_fract_x
_atom_site_fract_y
_atom_site_fract_z
Cu1 Cu 0.26252(4) 0.94172(14) 0.123634(19)
Cu2 Cu 0.75350(4) 1.50507(15) 0.13501(2)
N1 N 0.2643(3) 0.9463(9) 0.16771(14)
N2 N 0.2427(3) 0.9903(10) 0.32076(14)
N3 N 0.3518(3) 1.0497(9) 0.12730(14)
N4 N 0.6622(3) 1.4066(10) 0.13374(13)
N5 N 0.1682(3) 0.8633(9) 0.12247(13)
N6 N -0.1545(3) 0.6005(10) 0.13681(14)
N7 N 0.2630(3) 0.9471(8) 0.07961(13)
N8 N 0.2907(6) 1.0321(15) -0.0733(2)
N9 N 0.7444(3) 1.5149(9) 0.09048(14)
N10 N 0.6974(5) 1.4945(13) -0.06477(19)
O17 O 0.3014(3) 0.6692(8) 0.12267(12)
H1 H 0.3247 0.6236 0.1366
H2 H 0.3047 0.6142 0.1071
O18 O 0.7112(3) 1.7943(9) 0.13312(14)
H3 H 0.7019 1.8546 0.1473
H4 H 0.7095 1.8525 0.1177
O19 O 0.7976(3) 1.2175(10) 0.13195(14)
H5 H 0.8184 1.2093 0.1168
H6 H 0.8230 1.1979 0.1471
O22 O 0.2149(3) 1.2575(9) 0.11691(15)
H7 H 0.2084 1.3095 0.1325
H8 H 0.1842 1.2796 0.1040
C1 C 0.2492(4) 0.8132(12) 0.18296(17)
H15 H 0.2402 0.7149 0.1731
C2 C 0.2467(4) 0.8188(13) 0.21297(18)
H16 H 0.2369 0.7238 0.2230
C3 C 0.2584(4) 0.9631(11) 0.22845(17)
C4 C 0.2737(4) 1.0989(12) 0.21220(18)
H17 H 0.2818 1.1993 0.2215
C5 C 0.2768(4) 1.0861(12) 0.18264(18)
H18 H 0.2882 1.1788 0.1724
C6 C 0.2248(4) 1.1153(12) 0.30316(17)
H19 H 0.2086 1.2094 0.3114
C7 C 0.2290(5) 1.1125(12) 0.27350(17)
H20 H 0.2165 1.2038 0.2622
C8 C 0.2520(4) 0.9722(12) 0.26022(17)
C9 C 0.2697(4) 0.8409(12) 0.27832(18)
H21 H 0.2851 0.7443 0.2706
C10 C 0.2642(4) 0.8548(13) 0.30783(18)
H22 H 0.2762 0.7650 0.3196
C11 C 0.3608(4) 1.2001(12) 0.11700(19)
H23 H 0.3253 1.2568 0.1081
C12 C 0.4210(4) 1.2750(12) 0.1190(2)
H24 H 0.4254 1.3807 0.1118
C13 C 0.4743(4) 1.1927(12) 0.13177(18)
C14 C 0.4644(4) 1.0385(12) 0.14270(19)
H25 H 0.4994 0.9801 0.1516
C15 C 0.4034(4) 0.9693(12) 0.14061(19)
H26 H 0.3976 0.8656 0.1485
C16 C 0.6138(4) 1.4904(13) 0.14426(19)
H27 H 0.6221 1.5936 0.1524
C17 C 0.5519(4) 1.4273(13) 0.14332(19)
H28 H 0.5183 1.4908 0.1496
C18 C 0.5396(4) 1.2694(12) 0.13308(19)
C19 C 0.5912(4) 1.1838(13) 0.1229(2)
H29 H 0.5853 1.0772 0.1159
C20 C 0.6510(4) 1.2573(13) 0.1231(2)
H30 H 0.6848 1.2003 0.1155
C21 C 0.1232(4) 0.9594(12) 0.1320(2)
H31 H 0.1351 1.0660 0.1374
C22 C 0.0612(4) 0.9143(13) 0.1345(2)
H32 H 0.0318 0.9910 0.1405
C23 C 0.0412(4) 0.7584(11) 0.12849(17)
C24 C 0.0871(4) 0.6565(12) 0.1186(2)
H33 H 0.0761 0.5491 0.1134
C25 C 0.1492(4) 0.7113(12) 0.1164(2)
H34 H 0.1795 0.6375 0.1102
C26 C -0.1033(5) 0.5074(15) 0.1467(2)
H35 H -0.1107 0.4066 0.1553
C27 C -0.0406(5) 0.5567(14) 0.1444(3)
H36 H -0.0067 0.4885 0.1514
C28 C -0.0270(4) 0.7032(11) 0.13214(18)
C29 C -0.0788(4) 0.8008(13) 0.1241(2)
H37 H -0.0722 0.9056 0.1169
C30 C -0.1410(4) 0.7451(13) 0.1266(2)
H38 H -0.1754 0.8144 0.1206
C31 C 0.2138(4) 1.0054(12) 0.06177(18)
H39 H 0.1756 1.0350 0.0697
C32 C 0.2175(5) 1.0232(13) 0.03206(19)
H40 H 0.1821 1.0655 0.0206
C33 C 0.2731(5) 0.9792(13) 0.01898(18)
C34 C 0.3230(4) 0.9212(13) 0.03739(18)
H41 H 0.3615 0.8903 0.0299
C35 C 0.3172(4) 0.9076(12) 0.06713(17)
H42 H 0.3526 0.8691 0.0791
C36 C 0.2349(7) 1.0241(19) -0.0628(3)
H43 H 0.1980 1.0255 -0.0759
C37 C 0.2260(6) 1.0133(17) -0.0324(2)
H44 H 0.1845 1.0167 -0.0260
C38 C 0.2781(5) 0.9983(14) -0.0129(2)
C39 C 0.3370(6) 0.9967(17) -0.0254(2)
H45 H 0.3752 0.9818 -0.0135
C40 C 0.3396(7) 1.0165(19) -0.0547(3)
H46 H 0.3805 1.0188 -0.0617
C41 C 0.7920(4) 1.4661(14) 0.07382(19)
H47 H 0.8315 1.4327 0.0832
C42 C 0.7848(5) 1.4636(14) 0.04388(19)
H48 H 0.8190 1.4302 0.0334
C43 C 0.7260(4) 1.5110(13) 0.02899(18)
C44 C 0.6781(4) 1.5620(14) 0.04604(19)
H49 H 0.6382 1.5964 0.0372
C45 C 0.6890(4) 1.5622(13) 0.07598(18)
H50 H 0.6557 1.5975 0.0868
C46 C 0.6487(6) 1.5118(17) -0.0488(2)
H51 H 0.6072 1.5199 -0.0583
C47 C 0.6551(6) 1.5191(17) -0.0181(2)
H52 H 0.6187 1.5303 -0.0077
C48 C 0.7165(5) 1.5092(14) -0.00358(19)
C49 C 0.7669(6) 1.4971(16) -0.0210(2)
H53 H 0.8095 1.4966 -0.0126
C50 C 0.7541(6) 1.4854(16) -0.0514(2)
H54 H 0.7891 1.4700 -0.0625
Cu2_2 Cu -0.24650(4) 0.50507(15) 0.13501(2)
Cu2A Cu 0.24650(4) 1.00507(15) 0.36499(2)
N2A N 0.7573(3) 1.4903(10) 0.17924(14)
N6_2 N 0.8455(3) 1.6005(10) 0.13681(14)
Cl1 Cl 0.14199(16) 0.4051(4) 0.18685(7)
O1 O 0.1071(5) 0.5536(13) 0.1884(2)
O2 O 0.1003(6) 0.2999(16) 0.1703(3)
O3 O 0.1983(4) 0.4279(12) 0.1710(2)
O4 O 0.1593(7) 0.354(2) 0.2156(3)
Cl2 Cl 0.36852(17) 0.4323(5) 0.29617(7)
O5 O 0.3186(6) 0.4643(15) 0.3140(3)
O6 O 0.3415(8) 0.430(2) 0.2671(3)
O7 O 0.4105(6) 0.5682(19) 0.2964(3)
O8 O 0.3959(8) 0.298(2) 0.3064(4)
Cl3 Cl 0.49520(15) 0.2340(6) 0.41530(8)
O9 O 0.4413(4) 0.2865(13) 0.3978(2)
O10 O 0.4750(5) 0.087(2) 0.4286(3)
O11 O 0.5179(6) 0.382(2) 0.4300(3)
O12 O 0.5461(4) 0.1787(13) 0.3985(2)
Cl4 Cl 0.0533(2) 0.7100(7) 0.42405(11)
O13 O 0.0324(9) 0.871(2) 0.4229(4)
O14 O -0.0002(6) 0.616(2) 0.4232(3)
O15 O 0.0822(7) 0.733(2) 0.4525(4)
O16 O 0.0980(6) 0.6654(17) 0.4049(3)
N11 N 0.0111(6) 0.2328(18) 0.4770(3)
O20 O 0.0960(5) 0.2083(18) 0.5114(3)
C61 C 0.0413(9) 0.221(3) 0.5032(4)
H63 H 0.0137 0.2229 0.5182
C62 C 0.0544(10) 0.217(3) 0.4549(5)
H64 H 0.0958 0.1792 0.4634
H65 H 0.0596 0.3217 0.4457
H66 H 0.0372 0.1393 0.4405
C63 C -0.0572(9) 0.258(3) 0.4696(4)
H67 H -0.0810 0.1652 0.4758
H68 H -0.0653 0.2714 0.4488
H69 H -0.0710 0.3553 0.4792
N12 N 0.4480(10) 0.485(3) 0.2074(4)
O21 O 0.3729(8) 0.549(2) 0.1726(3)
C64 C 0.4215(13) 0.589(4) 0.1883(6)
H70 H 0.4393 0.6930 0.1866
C65 C 0.4272(14) 0.310(4) 0.2088(6)
H71 H 0.3991 0.2974 0.2243
H72 H 0.4647 0.2415 0.2126
H73 H 0.4044 0.2793 0.1905
C66 C 0.5087(14) 0.511(4) 0.2258(5)
H74 H 0.5304 0.6061 0.2191
H75 H 0.5362 0.4165 0.2246
H76 H 0.4992 0.5270 0.2457
N13 N 0.8714(12) 1.100(3) 0.1779(4)
N14 N 1.0988(10) 0.721(3) 0.2802(5)
C51 C 0.9372(15) 1.110(3) 0.1741(5)
H55 H 0.9508 1.1620 0.1576
C52 C 0.9826(13) 1.044(4) 0.1949(6)
H56 H 1.0267 1.0511 0.1923
C53 C 0.9623(15) 0.967(4) 0.2196(6)
C54 C 0.8965(15) 0.956(4) 0.2234(6)
H57 H 0.8829 0.9050 0.2399
C55 C 0.8510(14) 1.023(4) 0.2026(7)
H58 H 0.8070 1.0159 0.2052
C56 C 1.1095(13) 0.720(3) 0.2506(6)
H59 H 1.1444 0.6624 0.2443
C57 C 1.0681(12) 0.806(3) 0.2306(5)
H60 H 1.0753 0.8061 0.2109
C58 C 1.0160(11) 0.893(3) 0.2401(5)
C59 C 1.0053(12) 0.894(3) 0.2697(5)
H61 H 0.9704 0.9518 0.2760
C60 C 1.0467(14) 0.808(4) 0.2897(6)
H62 H 1.0395 0.8081 0.3094
O23 O 0.8832(5) 0.8222(13) 0.4275(2)
H9 H 0.9153 0.7651 0.4230
H10 H 0.8835 0.8232 0.4460
O24 O 0.4775(11) 0.897(4) 0.4794(5)
H11 H 0.4744 0.9391 0.4624
H12 H 0.4848 0.7947 0.4779
O25 O 0.5208(14) 0.592(4) 0.4791(7)
H13 H 0.5211 0.5513 0.4621
H14 H 0.4921 0.5451 0.4884
H77? H 0.5132 0.6942 0.4776
loop_
_geom_bond_atom_site_label_1
_geom_bond_atom_site_label_2
_geom_bond_site_symmetry_1
_geom_bond_site_symmetry_2
Cu1 N1 1_555 1_555
Cu2 N4 1_555 1_555
Cl1 O1 1_555 1_555
Cl2 O5 1_555 1_555
Cl3 O9 1_555 1_555
Cl4 O13 1_555 1_555
N1 C1 1_555 1_555
N2 C6 1_555 1_555
N3 Cu1 1_555 1_555
N4 C16 1_555 1_555
N5 Cu1 1_555 1_555
N6 C26 1_555 1_555
N7 Cu1 1_555 1_555
N8 C36 1_555 1_555
N9 Cu2 1_555 1_555
N10 C46 1_555 1_555
N11 C61 1_555 1_555
N12 C64 1_555 1_555
N13 C51 1_555 1_555
N14 C56 1_555 1_555
O2 Cl1 1_555 1_555
O3 Cl1 1_555 1_555
O4 Cl1 1_555 1_555
O6 Cl2 1_555 1_555
O7 Cl2 1_555 1_555
O8 Cl2 1_555 1_555
O10 Cl3 1_555 1_555
O11 Cl3 1_555 1_555
O12 Cl3 1_555 1_555
O14 Cl4 1_555 1_555
O15 Cl4 1_555 1_555
O16 Cl4 1_555 1_555
O17 Cu1 1_555 1_555
H1 O17 1_555 1_555
H2 O17 1_555 1_555
O18 Cu2 1_555 1_555
H3 O18 1_555 1_555
H4 O18 1_555 1_555
O19 Cu2 1_555 1_555
H5 O19 1_555 1_555
H6 O19 1_555 1_555
O20 C61 1_555 1_555
O21 C64 1_555 1_555
O22 Cu1 1_555 1_555
H7 O22 1_555 1_555
H8 O22 1_555 1_555
O23 H9 1_555 1_555
H10 O23 1_555 1_555
O24 H11 1_555 1_555
H12 O24 1_555 1_555
O25 H13 1_555 1_555
H14 O25 1_555 1_555
C1 H15 1_555 1_555
C2 C1 1_555 1_555
H16 C2 1_555 1_555
C3 C2 1_555 1_555
C4 C3 1_555 1_555
H17 C4 1_555 1_555
C5 N1 1_555 1_555
H18 C5 1_555 1_555
C6 H19 1_555 1_555
C7 C6 1_555 1_555
H20 C7 1_555 1_555
C8 C3 1_555 1_555
C9 C8 1_555 1_555
H21 C9 1_555 1_555
C10 N2 1_555 1_555
H22 C10 1_555 1_555
C11 N3 1_555 1_555
H23 C11 1_555 1_555
C12 C11 1_555 1_555
H24 C12 1_555 1_555
C13 C12 1_555 1_555
C14 C13 1_555 1_555
H25 C14 1_555 1_555
C15 N3 1_555 1_555
H26 C15 1_555 1_555
C16 H27 1_555 1_555
C17 C16 1_555 1_555
H28 C17 1_555 1_555
C18 C13 1_555 1_555
C19 C18 1_555 1_555
H29 C19 1_555 1_555
C20 N4 1_555 1_555
H30 C20 1_555 1_555
C21 N5 1_555 1_555
H31 C21 1_555 1_555
C22 C21 1_555 1_555
H32 C22 1_555 1_555
C23 C22 1_555 1_555
C24 C23 1_555 1_555
H33 C24 1_555 1_555
C25 N5 1_555 1_555
H34 C25 1_555 1_555
C26 H35 1_555 1_555
C27 C26 1_555 1_555
H36 C27 1_555 1_555
C28 C23 1_555 1_555
C29 C28 1_555 1_555
H37 C29 1_555 1_555
C30 N6 1_555 1_555
H38 C30 1_555 1_555
C31 N7 1_555 1_555
H39 C31 1_555 1_555
C32 C31 1_555 1_555
H40 C32 1_555 1_555
C33 C32 1_555 1_555
C34 C33 1_555 1_555
H41 C34 1_555 1_555
C35 N7 1_555 1_555
H42 C35 1_555 1_555
C36 H43 1_555 1_555
C37 C36 1_555 1_555
H44 C37 1_555 1_555
C38 C33 1_555 1_555
C39 C38 1_555 1_555
H45 C39 1_555 1_555
C40 N8 1_555 1_555
H46 C40 1_555 1_555
C41 N9 1_555 1_555
H47 C41 1_555 1_555
C42 C41 1_555 1_555
H48 C42 1_555 1_555
C43 C42 1_555 1_555
C44 C43 1_555 1_555
H49 C44 1_555 1_555
C45 N9 1_555 1_555
H50 C45 1_555 1_555
C46 H51 1_555 1_555
C47 C46 1_555 1_555
H52 C47 1_555 1_555
C48 C43 1_555 1_555
C49 C48 1_555 1_555
H53 C49 1_555 1_555
C50 N10 1_555 1_555
H54 C50 1_555 1_555
C51 H55 1_555 1_555
C52 C51 1_555 1_555
H56 C52 1_555 1_555
C53 C52 1_555 1_555
C54 C53 1_555 1_555
H57 C54 1_555 1_555
C55 N13 1_555 1_555
H58 C55 1_555 1_555
C56 H59 1_555 1_555
C57 C56 1_555 1_555
H60 C57 1_555 1_555
C58 C53 1_555 1_555
C59 C58 1_555 1_555
H61 C59 1_555 1_555
C60 N14 1_555 1_555
H62 C60 1_555 1_555
C61 H63 1_555 1_555
C62 N11 1_555 1_555
H64 C62 1_555 1_555
H65 C62 1_555 1_555
H66 C62 1_555 1_555
C63 N11 1_555 1_555
H67 C63 1_555 1_555
H68 C63 1_555 1_555
H69 C63 1_555 1_555
C64 H70 1_555 1_555
C65 N12 1_555 1_555
H71 C65 1_555 1_555
H72 C65 1_555 1_555
H73 C65 1_555 1_555
C66 N12 1_555 1_555
H74 C66 1_555 1_555
H75 C66 1_555 1_555
H76 C66 1_555 1_555
Cu2_2 N6 1_555 1_555
Cu2A N2 1_555 1_555
N2A Cu2 1_555 1_555
N6_2 Cu2 1_555 1_555
C4 C5 1_555 1_555
C7 C8 1_555 1_555
C9 C10 1_555 1_555
C14 C15 1_555 1_555
C17 C18 1_555 1_555
C19 C20 1_555 1_555
C24 C25 1_555 1_555
C27 C28 1_555 1_555
C29 C30 1_555 1_555
C34 C35 1_555 1_555
C37 C38 1_555 1_555
C39 C40 1_555 1_555
C44 C45 1_555 1_555
C47 C48 1_555 1_555
C49 C50 1_555 1_555
C54 C55 1_555 1_555
C57 C58 1_555 1_555
C59 C60 1_555 1_555

#END
