
#######################################################################
#
#                 Cambridge Crystallographic Data Centre
#                                CCDC 
#
#######################################################################
#
# If this CIF has been generated from an entry in the Cambridge 
# Structural Database, then it will include bibliographic, chemical, 
# crystal, experimental, refinement or atomic coordinate data resulting 
# from the CCDC's data processing and validation procedures.
#
#######################################################################

data_KABWIV
_symmetry_cell_setting           monoclinic
_symmetry_space_group_name_H-M   'C 2/c'
_symmetry_Int_Tables_number      15
_space_group_name_Hall           '-C 2yn'
loop_
_symmetry_equiv_pos_site_id
_symmetry_equiv_pos_as_xyz
1 x,y,z
2 -x,y,1/2-z
3 1/2+x,1/2+y,z
4 1/2-x,1/2+y,1/2-z
5 -x,-y,-z
6 x,-y,1/2+z
7 1/2-x,1/2-y,-z
8 1/2+x,1/2-y,1/2+z
_cell_length_a                   13.666(2)
_cell_length_b                   14.437(2)
_cell_length_c                   10.6945(19)
_cell_angle_alpha                90
_cell_angle_beta                 118.417(3)
_cell_angle_gamma                90
_cell_volume                     1855.75
loop_
_atom_site_label
_atom_site_type_symbol
_atom_site_fract_x
_atom_site_fract_y
_atom_site_fract_z
C1 C 0.4151(3) 0.2167(3) 0.5078(4)
C2 C 0.3787(3) 0.2336(3) 0.6070(4)
H1 H 0.3746 0.2941 0.6341
C3 C 0.3486(3) 0.1601(3) 0.6655(4)
C4 C 0.3548(3) 0.0698(3) 0.6250(4)
H2 H 0.3347 0.0206 0.6642
C5 C 0.3912(3) 0.0529(3) 0.5258(4)
H3 H 0.3953 -0.0075 0.4986
C6 C 0.4467(3) 0.2991(3) 0.4508(4)
C7 C 0.3119(3) 0.1783(3) 0.7774(4)
Co1 Co 0.5000 0.18383(5) 0.2500
Co2 Co 0.5000 0.5000 0.5000
N1 N 0.4213(3) 0.1264(2) 0.4672(4)
O1 O 0.4766(3) 0.2903(2) 0.3585(3)
O2 O 0.4386(2) 0.3754(2) 0.5028(3)
O3 O 0.3054(2) 0.26132(19) 0.8059(3)
O4 O 0.2934(2) 0.1100(2) 0.8366(3)
O5 O 0.4577(2) 0.0986(2) 0.3800(3)
O6 O 0.6649(2) 0.1645(2) 0.3962(3)
H4 H 0.6784 0.1906 0.4741
H5 H 0.7054 0.1880 0.3639
O7 O 0.3593(2) 0.53584(19) 0.2918(3)
H6 H 0.3239 0.5812 0.3017
H7 H 0.3162 0.4895 0.2578
O8 O 0.5965(2) 0.4496(2) 0.4133(3)
H8 H 0.5886 0.4842 0.3448
H9 H 0.5760 0.3947 0.3836
C1A C 0.5849(3) 0.2167(3) -0.0078(4)
C2A C 0.6213(3) 0.2336(3) -0.1070(4)
H1A H 0.6254 0.2941 -0.1341
C3A C 0.6514(3) 0.1601(3) -0.1655(4)
C4A C 0.6452(3) 0.0698(3) -0.1250(4)
H2A H 0.6653 0.0206 -0.1642
C5A C 0.6088(3) 0.0529(3) -0.0258(4)
H3A H 0.6047 -0.0075 0.0014
C6A C 0.5533(3) 0.2991(3) 0.0492(4)
C7A C 0.6881(3) 0.1783(3) -0.2774(4)
Co2A Co 0.5000 0.5000 0.0000
N1A N 0.5787(3) 0.1264(2) 0.0328(4)
O1A O 0.5234(3) 0.2903(2) 0.1415(3)
O2A O 0.5614(2) 0.3754(2) -0.0028(3)
O2D O 0.5614(2) 0.6246(2) 0.4972(3)
O3A O 0.6946(2) 0.26132(19) -0.3059(3)
O4A O 0.7066(2) 0.1100(2) -0.3366(3)
O5A O 0.5423(2) 0.0986(2) 0.1200(3)
O6A O 0.3351(2) 0.1645(2) 0.1038(3)
H4A H 0.3216 0.1906 0.0259
H5A H 0.2946 0.1880 0.1361
O7D O 0.6407(2) 0.46416(19) 0.7082(3)
H6D H 0.6761 0.4188 0.6983
H7D H 0.6838 0.5105 0.7422
O8D O 0.4035(2) 0.5504(2) 0.5867(3)
H8D H 0.4114 0.5158 0.6552
H9D H 0.4240 0.6053 0.6164
loop_
_geom_bond_atom_site_label_1
_geom_bond_atom_site_label_2
_geom_bond_site_symmetry_1
_geom_bond_site_symmetry_2
C1 C2 1_555 1_555
C2 H1 1_555 1_555
C3 C2 1_555 1_555
C4 C3 1_555 1_555
H2 C4 1_555 1_555
C5 C4 1_555 1_555
H3 C5 1_555 1_555
C6 C1 1_555 1_555
C7 C3 1_555 1_555
Co1 O1 1_555 1_555
Co2 O2 1_555 1_555
N1 C1 1_555 1_555
O1 C6 1_555 1_555
O2 C6 1_555 1_555
O3 C7 1_555 1_555
O4 C7 1_555 1_555
O5 Co1 1_555 1_555
O6 Co1 1_555 1_555
H4 O6 1_555 1_555
H5 O6 1_555 1_555
O7 Co2 1_555 1_555
H6 O7 1_555 1_555
H7 O7 1_555 1_555
O8 Co2 1_555 1_555
H8 O8 1_555 1_555
H9 O8 1_555 1_555
C1A C2A 1_555 1_555
C2A H1A 1_555 1_555
C3A C2A 1_555 1_555
C4A C3A 1_555 1_555
H2A C4A 1_555 1_555
C5A C4A 1_555 1_555
H3A C5A 1_555 1_555
C6A C1A 1_555 1_555
C7A C3A 1_555 1_555
Co2A O2A 1_555 1_555
N1A C1A 1_555 1_555
O1A Co1 1_555 1_555
O2A C6A 1_555 1_555
O2D Co2 1_555 1_555
O3A C7A 1_555 1_555
O4A C7A 1_555 1_555
O5A Co1 1_555 1_555
O6A Co1 1_555 1_555
H4A O6A 1_555 1_555
H5A O6A 1_555 1_555
O7D Co2 1_555 1_555
H6D O7D 1_555 1_555
H7D O7D 1_555 1_555
O8D Co2 1_555 1_555
H8D O8D 1_555 1_555
H9D O8D 1_555 1_555
C5 N1 1_555 1_555
N1 O5 1_555 1_555
C5A N1A 1_555 1_555
C6A O1A 1_555 1_555
N1A O5A 1_555 1_555

#END
