
#######################################################################
#
#                 Cambridge Crystallographic Data Centre
#                                CCDC 
#
#######################################################################
#
# If this CIF has been generated from an entry in the Cambridge 
# Structural Database, then it will include bibliographic, chemical, 
# crystal, experimental, refinement or atomic coordinate data resulting 
# from the CCDC's data processing and validation procedures.
#
#######################################################################

data_KABXIW
_symmetry_cell_setting           monoclinic
_symmetry_space_group_name_H-M   'C 2/c'
_symmetry_Int_Tables_number      15
_space_group_name_Hall           '-C 2yn'
loop_
_symmetry_equiv_pos_site_id
_symmetry_equiv_pos_as_xyz
1 x,y,z
2 -x,y,1/2-z
3 1/2+x,1/2+y,z
4 1/2-x,1/2+y,1/2-z
5 -x,-y,-z
6 x,-y,1/2+z
7 1/2-x,1/2-y,-z
8 1/2+x,1/2-y,1/2+z
_cell_length_a                   21.801(5)
_cell_length_b                   16.882(5)
_cell_length_c                   16.522(5)
_cell_angle_alpha                90
_cell_angle_beta                 119.499(5)
_cell_angle_gamma                90
_cell_volume                     5292.54
loop_
_atom_site_label
_atom_site_type_symbol
_atom_site_fract_x
_atom_site_fract_y
_atom_site_fract_z
C1 C 0.5219(4) 0.3167(5) 0.4535(6)
H1 H 0.5648 0.3098 0.4514
H2 H 0.5301 0.3521 0.5033
H3 H 0.4863 0.3384 0.3956
C2 C 0.5398(4) 0.1712(4) 0.4691(5)
H4 H 0.5797 0.1890 0.4644
H5 H 0.5109 0.1378 0.4171
H6 H 0.5557 0.1420 0.5258
C3 C 0.4402(3) 0.2322(4) 0.4747(4)
H7 H 0.4163 0.2780 0.4742
C4 C 0.4357(3) 0.1313(4) 0.7990(4)
H8 H 0.4456 0.1371 0.8621
H9 H 0.3934 0.1598 0.7584
H10 H 0.4742 0.1521 0.7930
C5 C 0.4376(4) -0.0090(4) 0.8462(5)
H11 H 0.4474 0.0192 0.9018
H12 H 0.4770 -0.0424 0.8586
H13 H 0.3962 -0.0409 0.8263
C6 C 0.4118(3) 0.0234(4) 0.6904(4)
H14 H 0.4057 -0.0307 0.6784
C10 C 0.2542(3) 0.3200(3) 0.3581(4)
C11 C 0.2649(3) 0.3328(3) 0.2757(3)
C12 C 0.2996(3) 0.2766(3) 0.2512(4)
H22 H 0.3173 0.2306 0.2860
C13 C 0.3074(3) 0.2902(3) 0.1742(4)
C14 C 0.2820(3) 0.3580(3) 0.1201(4)
H23 H 0.2872 0.3652 0.0680
C15 C 0.2485(3) 0.4149(3) 0.1458(4)
C16 C 0.2405(3) 0.4024(3) 0.2232(3)
H24 H 0.2186 0.4408 0.2405
C17 C 0.2243(3) 0.4903(3) 0.0899(4)
C18 C 0.1283(3) 0.1777(3) 0.3760(3)
C19 C 0.0000 0.1740(5) 0.2500
H25 H 0.0000 0.2291 0.2500
C20 C 0.0617(2) 0.1331(3) 0.3104(3)
C21 C 0.0618(3) 0.0511(3) 0.3088(3)
H26 H 0.1028 0.0229 0.3467
C22 C 0.0000 0.0122(4) 0.2500
N1 N 0.4984(2) 0.2402(3) 0.4691(4)
N2 N 0.4261(2) 0.0472(3) 0.7737(3)
N4 N 0.3440(3) 0.2316(3) 0.1477(4)
N5 N 0.0000 -0.0749(4) 0.2500
O1 O 0.41537(19) 0.1677(2) 0.4807(3)
O2 O 0.3783(3) 0.1799(3) 0.2050(4)
O3 O 0.3392(2) 0.2366(3) 0.0714(3)
O5 O 0.40587(18) 0.0674(2) 0.6257(3)
O6 O 0.27711(19) 0.2558(2) 0.4025(2)
O7 O 0.22217(19) 0.3725(2) 0.3759(2)
O8 O 0.2015(2) 0.5461(2) 0.1202(3)
O9 O 0.2279(2) 0.4962(2) 0.0170(2)
O10 O 0.18399(17) 0.1377(2) 0.4127(2)
O11 O 0.12247(18) 0.2495(2) 0.3889(2)
O12 O 0.0569(2) -0.1100(2) 0.2905(3)
Pr1 Pr 0.311206(13) 0.142790(16) 0.502540(18)
C1F C -0.0219(4) 0.1833(5) 0.5465(6)
H1F H -0.0648 0.1902 0.5486
H2F H -0.0301 0.1479 0.4967
H3F H 0.0137 0.1616 0.6044
C2F C -0.0398(4) 0.3288(4) 0.5309(5)
H4F H -0.0797 0.3110 0.5356
H5F H -0.0109 0.3622 0.5829
H6F H -0.0557 0.3580 0.4742
C3F C 0.0598(3) 0.2678(4) 0.5253(4)
H7F H 0.0837 0.2220 0.5258
C4F C 0.0643(3) 0.3687(4) 0.2010(4)
H8F H 0.0544 0.3629 0.1379
H9F H 0.1066 0.3402 0.2416
H10F H 0.0258 0.3479 0.2070
C5F C 0.0624(4) 0.5090(4) 0.1538(5)
H11F H 0.0526 0.4808 0.0982
H12F H 0.0230 0.5424 0.1414
H13F H 0.1038 0.5409 0.1737
C6F C 0.0882(3) 0.4766(4) 0.3096(4)
H14F H 0.0943 0.5307 0.3216
C10F C 0.2458(3) 0.1800(3) 0.6419(4)
C11F C 0.2351(3) 0.1672(3) 0.7243(3)
C12F C 0.2004(3) 0.2234(3) 0.7488(4)
H22F H 0.1827 0.2694 0.7140
C13F C 0.1926(3) 0.2098(3) 0.8258(4)
C14F C 0.2180(3) 0.1420(3) 0.8799(4)
H23F H 0.2128 0.1348 0.9320
C15F C 0.2515(3) 0.0851(3) 0.8542(4)
C16F C 0.2595(3) 0.0976(3) 0.7768(3)
H24F H 0.2814 0.0592 0.7595
C17F C 0.2757(3) 0.0097(3) 0.9101(4)
C18A C -0.1283(3) 0.1777(3) 0.1240(3)
C20A C -0.0617(2) 0.1331(3) 0.1896(3)
C21A C -0.0618(3) 0.0511(3) 0.1912(3)
H26A H -0.1028 0.0229 0.1533
N1F N 0.0016(2) 0.2598(3) 0.5309(4)
N2F N 0.0739(2) 0.4528(3) 0.2263(3)
N4F N 0.1560(3) 0.2684(3) 0.8523(4)
O1F O 0.08463(19) 0.3323(2) 0.5193(3)
O2F O 0.1217(3) 0.3201(3) 0.7950(4)
O3F O 0.1608(2) 0.2634(3) 0.9286(3)
O5F O 0.09413(18) 0.4326(2) 0.3743(3)
O6F O 0.22289(19) 0.2442(2) 0.5975(2)
O7F O 0.27783(19) 0.1275(2) 0.6241(2)
O8F O 0.2985(2) -0.0461(2) 0.8798(3)
O8C O 0.2985(2) 0.0461(2) 0.3798(3)
O8E O 0.2015(2) 0.4539(2) 0.6202(3)
O9F O 0.2721(2) 0.0038(2) 0.9830(2)
O9C O 0.2721(2) -0.0038(2) 0.4830(2)
O9E O 0.2279(2) 0.5038(2) 0.5170(2)
O10A O -0.18399(17) 0.1377(2) 0.0873(2)
O10F O 0.31601(17) 0.3623(2) 0.5873(2)
O11A O -0.12247(18) 0.2495(2) 0.1111(2)
O11F O 0.37753(18) 0.2505(2) 0.6111(2)
O12A O -0.0569(2) -0.1100(2) 0.2095(3)
Pr1F Pr 0.188794(13) 0.357210(16) 0.497460(18)
Pr1C Pr 0.188794(13) 0.642790(16) -0.002540(18)
Pr1A Pr -0.311206(13) 0.142790(16) -0.002540(18)
Pr1G Pr -0.188794(13) 0.357210(16) 0.002540(18)
Pr1E Pr 0.311206(13) -0.142790(16) 1.002540(18)
C7 C 0.3810(4) 0.4536(5) 0.8411(5)
H15 H 0.3629 0.4089 0.8001
H16 H 0.4299 0.4452 0.8850
H17 H 0.3760 0.5005 0.8055
C8 C 0.2819(3) 0.4114(4) 0.8673(4)
H18 H 0.2785 0.3728 0.8226
H19 H 0.2394 0.4422 0.8416
H20 H 0.2885 0.3849 0.9225
C9 C 0.3582(3) 0.5223(4) 0.9517(4)
H21 H 0.3318 0.5268 0.9818
N3 N 0.3416(3) 0.4633(3) 0.8906(3)
O4 O 0.4054(2) 0.5712(3) 0.9717(3)
loop_
_geom_bond_atom_site_label_1
_geom_bond_atom_site_label_2
_geom_bond_site_symmetry_1
_geom_bond_site_symmetry_2
C1 H1 1_555 1_555
H2 C1 1_555 1_555
H3 C1 1_555 1_555
C2 H4 1_555 1_555
H5 C2 1_555 1_555
H6 C2 1_555 1_555
C3 H7 1_555 1_555
C4 H8 1_555 1_555
H9 C4 1_555 1_555
H10 C4 1_555 1_555
C5 H11 1_555 1_555
H12 C5 1_555 1_555
H13 C5 1_555 1_555
C6 H14 1_555 1_555
C7 H15 1_555 1_555
H16 C7 1_555 1_555
H17 C7 1_555 1_555
C8 H18 1_555 1_555
H19 C8 1_555 1_555
H20 C8 1_555 1_555
C9 H21 1_555 1_555
C10 C11 1_555 1_555
C11 C12 1_555 1_555
C12 H22 1_555 1_555
C13 C12 1_555 1_555
C14 C13 1_555 1_555
H23 C14 1_555 1_555
C15 C14 1_555 1_555
C16 C11 1_555 1_555
H24 C16 1_555 1_555
C17 C15 1_555 1_555
C18 C20 1_555 1_555
C19 H25 1_555 1_555
C20 C19 1_555 1_555
C21 C20 1_555 1_555
H26 C21 1_555 1_555
C22 C21 1_555 1_555
N1 C1 1_555 1_555
N2 C4 1_555 1_555
N3 C7 1_555 1_555
N4 C13 1_555 1_555
N5 C22 1_555 1_555
O1 C3 1_555 1_555
O2 N4 1_555 1_555
O3 N4 1_555 1_555
O4 C9 1_555 1_555
O5 C6 1_555 1_555
O6 C10 1_555 1_555
O7 C10 1_555 1_555
O8 C17 1_555 1_555
O9 C17 1_555 1_555
O10 C18 1_555 1_555
O11 C18 1_555 1_555
O12 N5 1_555 1_555
Pr1 O1 1_555 1_555
C1F H1F 1_555 1_555
H2F C1F 1_555 1_555
H3F C1F 1_555 1_555
C2F H4F 1_555 1_555
H5F C2F 1_555 1_555
H6F C2F 1_555 1_555
C3F H7F 1_555 1_555
C4F H8F 1_555 1_555
H9F C4F 1_555 1_555
H10F C4F 1_555 1_555
C5F H11F 1_555 1_555
H12F C5F 1_555 1_555
H13F C5F 1_555 1_555
C6F H14F 1_555 1_555
C10F C11F 1_555 1_555
C11F C12F 1_555 1_555
C12F H22F 1_555 1_555
C13F C12F 1_555 1_555
C14F C13F 1_555 1_555
H23F C14F 1_555 1_555
C15F C14F 1_555 1_555
C16F C11F 1_555 1_555
H24F C16F 1_555 1_555
C17F C15F 1_555 1_555
C18A C20A 1_555 1_555
C20A C19 1_555 1_555
C21A C22 1_555 1_555
H26A C21A 1_555 1_555
N1F C1F 1_555 1_555
N2F C4F 1_555 1_555
N4F C13F 1_555 1_555
O1F C3F 1_555 1_555
O2F N4F 1_555 1_555
O3F N4F 1_555 1_555
O5F C6F 1_555 1_555
O6F C10F 1_555 1_555
O7F Pr1 1_555 1_555
O8F C17F 1_555 1_555
O8C Pr1 1_555 1_555
O8E Pr1F 1_555 1_555
O9F C17F 1_555 1_555
O9C Pr1 1_555 1_555
O9E Pr1F 1_555 1_555
O10A C18A 1_555 1_555
O10F Pr1F 1_555 1_555
O11A C18A 1_555 1_555
O11F Pr1 1_555 1_555
O12A N5 1_555 1_555
Pr1F O7 1_555 1_555
Pr1C O8 1_555 1_555
Pr1A O10A 1_555 1_555
Pr1G O11A 1_555 1_555
Pr1E O8F 1_555 1_555
C2 N1 1_555 1_555
C3 N1 1_555 1_555
C5 N2 1_555 1_555
C6 N2 1_555 1_555
C8 N3 1_555 1_555
C9 N3 1_555 1_555
C15 C16 1_555 1_555
O5 Pr1 1_555 1_555
O6 Pr1 1_555 1_555
O9 Pr1C 1_555 1_555
O10 Pr1 1_555 1_555
O11 Pr1F 1_555 1_555
C2F N1F 1_555 1_555
C3F N1F 1_555 1_555
C5F N2F 1_555 1_555
C6F N2F 1_555 1_555
C10F O7F 1_555 1_555
C15F C16F 1_555 1_555
C20A C21A 1_555 1_555
O1F Pr1F 1_555 1_555
O5F Pr1F 1_555 1_555
O6F Pr1F 1_555 1_555
O9F Pr1E 1_555 1_555

#END
