
#######################################################################
#
#                 Cambridge Crystallographic Data Centre
#                                CCDC 
#
#######################################################################
#
# If this CIF has been generated from an entry in the Cambridge 
# Structural Database, then it will include bibliographic, chemical, 
# crystal, experimental, refinement or atomic coordinate data resulting 
# from the CCDC's data processing and validation procedures.
#
#######################################################################

data_KACJOP
_symmetry_cell_setting           monoclinic
_symmetry_space_group_name_H-M   'P 21/a'
_symmetry_Int_Tables_number      14
_space_group_name_Hall           '-P 2yab'
loop_
_symmetry_equiv_pos_site_id
_symmetry_equiv_pos_as_xyz
1 x,y,z
2 1/2-x,1/2+y,-z
3 -x,-y,-z
4 1/2+x,1/2-y,z
_cell_length_a                   15.3750(9)
_cell_length_b                   6.3331(5)
_cell_length_c                   12.2646(9)
_cell_angle_alpha                90
_cell_angle_beta                 93.058(6)
_cell_angle_gamma                90
_cell_volume                     1192.52
loop_
_atom_site_label
_atom_site_type_symbol
_atom_site_fract_x
_atom_site_fract_y
_atom_site_fract_z
Ni1 Ni 0.2438(5) 0.0610(12) 0.5025(6)
S1 S 0.23615(7) 0.3075(6) 0.37612(5)
C1 C 0.130259(14) 0.3109(4) 0.312013(22)
C2 C 0.057330(13) 0.29264(29) 0.374801(18)
C3 C -0.024988(13) 0.30008(27) 0.325271(17)
C4 C -0.035629(13) 0.32483(27) 0.213539(17)
C5 C 0.037255(13) 0.34327(29) 0.150797(17)
C6 C 0.119617(13) 0.33590(27) 0.200352(17)
H1 H 0.064720(19) 0.2766(14) 0.45254(35)
H2 H -0.07513(4) 0.2871(5) 0.368415(29)
H3 H -0.09289(4) 0.3290(4) 0.179020(26)
H4 H 0.029860(19) 0.3598(15) 0.07309(34)
H5 H 0.16979(4) 0.3495(5) 0.157212(29)
S2 S 0.16817(4) -0.1973(5) 0.42031(20)
C7 C 0.186102(18) -0.19481(28) 0.278122(17)
C8 C 0.116233(14) -0.16460(21) 0.202284(17)
C9 C 0.130262(14) -0.16110(21) 0.091890(17)
C10 C 0.214012(13) -0.18900(20) 0.056310(17)
C11 C 0.283091(14) -0.22068(21) 0.131379(17)
C12 C 0.268909(14) -0.22442(21) 0.242841(17)
H6 H 0.05858(7) -0.1444(5) 0.226831(25)
H7 H 0.082353(27) -0.1392(7) 0.039832(31)
H8 H 0.223753(20) -0.18683(29) -0.02046(11)
H9 H 0.34085(7) -0.2404(5) 0.106813(25)
H10 H 0.316786(27) -0.2458(6) 0.294845(32)
Ni1A Ni 0.2562(5) 0.5610(12) 0.4975(6)
Ni1A_2 Ni 0.2562(5) -0.4390(12) 0.4975(6)
S1A S 0.26385(7) -0.1925(6) 0.62388(5)
S2A S 0.33183(4) 0.3027(5) 0.57969(20)
loop_
_geom_bond_atom_site_label_1
_geom_bond_atom_site_label_2
_geom_bond_site_symmetry_1
_geom_bond_site_symmetry_2
Ni1 S1 1_555 1_555
S1 C1 1_555 1_555
C1 C2 1_555 1_555
C2 C3 1_555 1_555
C3 C4 1_555 1_555
C4 C5 1_555 1_555
C5 C6 1_555 1_555
C6 C1 1_555 1_555
H1 C2 1_555 1_555
H2 C3 1_555 1_555
H3 C4 1_555 1_555
H4 C5 1_555 1_555
H5 C6 1_555 1_555
S2 Ni1 1_555 1_555
C7 S2 1_555 1_555
C8 C7 1_555 1_555
C9 C8 1_555 1_555
C10 C9 1_555 1_555
C11 C10 1_555 1_555
C12 C7 1_555 1_555
H6 C8 1_555 1_555
H7 C9 1_555 1_555
H8 C10 1_555 1_555
H9 C11 1_555 1_555
H10 C12 1_555 1_555
Ni1A S1 1_555 1_555
Ni1A_2 S2 1_555 1_555
S1A Ni1 1_555 1_555
S2A Ni1 1_555 1_555
C11 C12 1_555 1_555
Ni1A S2A 1_555 1_555
Ni1A_2 S1A 1_555 1_555

#END
