
#######################################################################
#
#                 Cambridge Crystallographic Data Centre
#                                CCDC 
#
#######################################################################
#
# If this CIF has been generated from an entry in the Cambridge 
# Structural Database, then it will include bibliographic, chemical, 
# crystal, experimental, refinement or atomic coordinate data resulting 
# from the CCDC's data processing and validation procedures.
#
#######################################################################

data_KADFIF
_symmetry_cell_setting           monoclinic
_symmetry_space_group_name_H-M   'P 21/c'
_symmetry_Int_Tables_number      14
_space_group_name_Hall           '-P 2ybc'
loop_
_symmetry_equiv_pos_site_id
_symmetry_equiv_pos_as_xyz
1 x,y,z
2 -x,1/2+y,1/2-z
3 -x,-y,-z
4 x,1/2-y,1/2+z
_cell_length_a                   9.0048(6)
_cell_length_b                   13.1443(8)
_cell_length_c                   16.6792(11)
_cell_angle_alpha                90
_cell_angle_beta                 99.3320(10)
_cell_angle_gamma                90
_cell_volume                     1948.05
loop_
_atom_site_label
_atom_site_type_symbol
_atom_site_fract_x
_atom_site_fract_y
_atom_site_fract_z
Ag1 Ag 1.18231(2) 0.737496(14) 0.083822(12)
Ag2 Ag 1.52575(2) 0.586580(14) 0.247200(12)
O1 O 1.2900(2) 0.56403(17) 0.15145(13)
O2 O 1.2118(3) 0.5475(2) 0.02449(15)
O3 O 1.3673(5) 0.4395(2) 0.0859(2)
O4 O 1.5036(3) 0.90734(16) 0.20218(17)
O5 O 1.2997(2) 0.91808(15) 0.25034(15)
O6 O 1.3687(3) 0.77324(14) 0.20797(13)
N1 N 0.9573(2) 0.70302(15) 0.11210(12)
N2 N 1.3310(2) 0.79723(15) 0.00068(12)
N3 N 0.6997(2) 0.64317(16) 0.17216(13)
N4 N 1.4683(2) 0.86583(15) -0.12787(11)
N5 N 1.2923(3) 0.51387(17) 0.08771(16)
N6 N 1.3901(2) 0.86656(15) 0.22056(12)
C1 C 0.9080(3) 0.60739(19) 0.10616(15)
H1 H 0.9625 0.5582 0.0809
C2 C 0.7798(3) 0.5776(2) 0.13564(16)
H2 H 0.7481 0.5087 0.1297
C3 C 0.7448(3) 0.74001(18) 0.17565(16)
H3 H 0.6873 0.7892 0.1990
C4 C 0.8737(3) 0.77111(17) 0.14604(14)
C5 C 0.9217(3) 0.87480(18) 0.15100(14)
C6 C 0.9611(3) 0.96165(18) 0.15305(14)
C7 C 0.9975(2) 1.06719(17) 0.14845(13)
C8 C 0.9207(3) 1.14030(19) 0.18681(14)
H4 H 0.8523 1.1193 0.2214
C9 C 0.9433(3) 1.24298(19) 0.17494(16)
H5 H 0.8889 1.2920 0.2004
C10 C 1.0448(3) 1.27450(18) 0.12607(17)
H6 H 1.0591 1.3451 0.1178
C11 C 1.1257(3) 1.20403(18) 0.08904(15)
H7 H 1.1962 1.2266 0.0563
C12 C 1.1041(2) 1.09920(16) 0.09973(13)
C13 C 1.1839(2) 1.02630(17) 0.05943(13)
C14 C 1.2521(2) 0.96632(17) 0.02486(13)
C15 C 1.3298(2) 0.89646(17) -0.01946(13)
C16 C 1.3999(2) 0.93033(17) -0.08385(14)
H8 H 1.3986 1.0008 -0.0964
C17 C 1.4724(3) 0.76801(17) -0.10564(15)
H9 H 1.5236 0.7206 -0.1344
C18 C 1.4044(3) 0.73388(18) -0.04221(15)
H10 H 1.4098 0.6636 -0.0286
O4A O 1.4964(3) 0.40734(16) 0.29782(17)
O5A O 1.7003(2) 0.41808(15) 0.24966(15)
N3_2 N 1.6997(2) 0.64317(16) 0.17216(13)
N4C N 1.4683(2) 0.63417(15) 0.37213(11)
Ag2A Ag 1.47425(2) 1.086580(14) 0.252800(12)
Ag2_2 Ag 0.52575(2) 0.586580(14) 0.247200(12)
Ag2C Ag 1.52575(2) 0.913420(14) -0.252800(12)
loop_
_geom_bond_atom_site_label_1
_geom_bond_atom_site_label_2
_geom_bond_site_symmetry_1
_geom_bond_site_symmetry_2
Ag1 O1 1_555 1_555
Ag2 O1 1_555 1_555
O1 N5 1_555 1_555
O2 Ag1 1_555 1_555
O3 N5 1_555 1_555
O4 N6 1_555 1_555
O5 N6 1_555 1_555
O6 Ag1 1_555 1_555
N1 Ag1 1_555 1_555
N2 Ag1 1_555 1_555
N3 C2 1_555 1_555
N4 C16 1_555 1_555
N5 O2 1_555 1_555
N6 O6 1_555 1_555
C1 N1 1_555 1_555
H1 C1 1_555 1_555
C2 C1 1_555 1_555
H2 C2 1_555 1_555
C3 N3 1_555 1_555
H3 C3 1_555 1_555
C4 N1 1_555 1_555
C5 C4 1_555 1_555
C6 C5 1_555 1_555
C7 C6 1_555 1_555
C8 C7 1_555 1_555
H4 C8 1_555 1_555
C9 C8 1_555 1_555
H5 C9 1_555 1_555
C10 C9 1_555 1_555
H6 C10 1_555 1_555
C11 C10 1_555 1_555
H7 C11 1_555 1_555
C12 C7 1_555 1_555
C13 C12 1_555 1_555
C14 C13 1_555 1_555
C15 N2 1_555 1_555
C16 C15 1_555 1_555
H8 C16 1_555 1_555
C17 N4 1_555 1_555
H9 C17 1_555 1_555
C18 N2 1_555 1_555
H10 C18 1_555 1_555
O4A Ag2 1_555 1_555
O5A Ag2 1_555 1_555
N3_2 Ag2 1_555 1_555
N4C Ag2 1_555 1_555
Ag2A O4 1_555 1_555
Ag2_2 N3 1_555 1_555
Ag2C N4 1_555 1_555
O5 Ag2A 1_555 1_555
C3 C4 1_555 1_555
C11 C12 1_555 1_555
C14 C15 1_555 1_555
C17 C18 1_555 1_555

#END
