
#######################################################################
#
#                 Cambridge Crystallographic Data Centre
#                                CCDC 
#
#######################################################################
#
# If this CIF has been generated from an entry in the Cambridge 
# Structural Database, then it will include bibliographic, chemical, 
# crystal, experimental, refinement or atomic coordinate data resulting 
# from the CCDC's data processing and validation procedures.
#
#######################################################################

data_KADHAA
_symmetry_cell_setting           monoclinic
_symmetry_space_group_name_H-M   'C 2'
_symmetry_Int_Tables_number      5
_space_group_name_Hall           'C 2y'
loop_
_symmetry_equiv_pos_site_id
_symmetry_equiv_pos_as_xyz
1 x,y,z
2 -x,y,-z
3 1/2+x,1/2+y,z
4 1/2-x,1/2+y,-z
_cell_length_a                   18.1903(8)
_cell_length_b                   11.6149(7)
_cell_length_c                   18.6243(7)
_cell_angle_alpha                90
_cell_angle_beta                 93.064(9)
_cell_angle_gamma                90
_cell_volume                     3929.29
loop_
_atom_site_label
_atom_site_type_symbol
_atom_site_fract_x
_atom_site_fract_y
_atom_site_fract_z
Cd1 Cd 0.217789(15) 0.20523(3) 0.779236(16)
Cd2 Cd 0.187600(14) 0.14017(2) 1.279350(15)
O1 O 0.26964(17) 0.3288(3) 0.87409(18)
O2 O 0.29562(16) 0.1422(4) 0.87262(16)
O3 O 0.24044(15) 0.2059(4) 1.18538(16)
O4 O 0.32623(18) 0.0704(3) 1.19532(19)
O5 O 0.3555(2) 0.2803(3) 0.6871(2)
O6 O 0.27156(17) 0.1411(4) 0.68504(17)
O7 O 0.24804(17) 0.0214(3) 0.37500(18)
O8 O 0.27067(16) 0.2064(4) 0.36564(16)
O9 O 0.18234(19) 0.3770(3) 0.7206(2)
H1 H 0.210(3) 0.400(4) 0.691(3)
H2 H 0.180(3) 0.448(6) 0.754(4)
O10 O 0.15510(18) -0.0338(3) 1.2213(2)
H3 H 0.192(3) -0.061(5) 1.181(3)
H4 H 0.151(2) -0.089(4) 1.242(2)
N1 N 0.10708(19) 0.2286(3) 0.8395(2)
N2 N 0.1428(2) 0.0374(4) 0.7666(2)
N3 N 0.07740(18) 0.1181(3) 1.3358(2)
N4 N 0.1135(2) 0.3114(3) 1.2659(2)
C1 C 0.0920(3) 0.3248(5) 0.8746(3)
H5 H 0.1268 0.3835 0.8762
C2 C 0.0272(3) 0.3420(5) 0.9089(3)
H6 H 0.0183 0.4105 0.9328
C3 C -0.0238(3) 0.2540(5) 0.9064(3)
H7 H -0.0678 0.2622 0.9292
C4 C -0.0096(2) 0.1549(6) 0.8705(3)
H8 H -0.0440 0.0957 0.8683
C5 C 0.0570(2) 0.1427(5) 0.8369(2)
C6 C 0.0770(3) 0.0372(4) 0.7963(3)
C7 C 0.0288(3) -0.0568(5) 0.7893(3)
H9 H -0.0166 -0.0553 0.8099
C8 C 0.0503(3) -0.1518(5) 0.7509(3)
H10 H 0.0191 -0.2149 0.7446
C9 C 0.1184(3) -0.1521(5) 0.7221(3)
H11 H 0.1346 -0.2162 0.6975
C10 C 0.1619(3) -0.0564(5) 0.7303(3)
H12 H 0.2072 -0.0565 0.7095
C11 C 0.0626(2) 0.0204(4) 1.3700(3)
H13 H 0.0971 -0.0387 1.3705
C12 C -0.0015(3) 0.0036(5) 1.4047(3)
H14 H -0.0106 -0.0656 1.4277
C13 C -0.0514(3) 0.0917(6) 1.4042(4)
H15 H -0.0950 0.0828 1.4275
C14 C -0.0376(3) 0.1933(6) 1.3695(3)
H16 H -0.0715 0.2532 1.3690
C15 C 0.0279(2) 0.2051(5) 1.3352(2)
C16 C 0.0469(2) 0.3103(4) 1.2949(2)
C17 C -0.0012(3) 0.4024(4) 1.2854(3)
H17 H -0.0474 0.3994 1.3044
C18 C 0.0194(3) 0.4981(5) 1.2481(3)
H18 H -0.0125 0.5604 1.2422
C19 C 0.0877(3) 0.5007(5) 1.2195(3)
H19 H 0.1033 0.5649 1.1946
C20 C 0.1320(3) 0.4053(5) 1.2291(3)
H20 H 0.1776 0.4060 1.2088
C21 C 0.3002(2) 0.2403(4) 0.9030(3)
C22 C 0.3409(2) 0.2514(4) 0.9762(2)
C23 C 0.2838(2) 0.2460(3) 1.0382(2)
C24 C 0.3363(2) 0.2161(5) 1.1049(2)
H21 H 0.3550 0.2897 1.1240
C25 C 0.4023(2) 0.1527(5) 1.0776(3)
H22 H 0.4050 0.0752 1.0970
H23 H 0.4475 0.1929 1.0918
C26 C 0.3912(2) 0.1493(5) 0.9953(2)
H24 H 0.4379 0.1571 0.9729
H25 H 0.3683 0.0776 0.9796
C27 C 0.2988(2) 0.1576(4) 1.1662(2)
C28 C 0.2418(2) 0.3578(4) 1.0477(3)
H26 H 0.2083 0.3487 1.0854
H27 H 0.2146 0.3765 1.0036
H28 H 0.2758 0.4186 1.0600
C29 C 0.2277(2) 0.1497(5) 1.0234(2)
H29 H 0.1937 0.1479 1.0611
H30 H 0.2528 0.0772 1.0216
H31 H 0.2013 0.1636 0.9782
C30 C 0.3848(3) 0.3633(4) 0.9792(3)
H32 H 0.4187 0.3638 0.9415
H33 H 0.4115 0.3693 1.0249
H34 H 0.3517 0.4274 0.9732
C31 C 0.3265(2) 0.1937(5) 0.6593(2)
C32 C 0.3548(2) 0.1447(5) 0.5902(2)
H35 H 0.4068 0.1664 0.5889
C33 C 0.3508(3) 0.0142(4) 0.5808(3)
H36 H 0.3962 -0.0215 0.5992
H37 H 0.3103 -0.0171 0.6065
C34 C 0.3388(3) -0.0082(5) 0.5011(3)
H38 H 0.2929 -0.0494 0.4916
H39 H 0.3786 -0.0548 0.4843
C35 C 0.3362(2) 0.1071(3) 0.4623(2)
C36 C 0.3143(2) 0.1955(4) 0.5209(2)
C37 C 0.2813(2) 0.1111(4) 0.3968(2)
C38 C 0.4123(2) 0.1322(6) 0.4329(3)
H40 H 0.4227 0.0762 0.3969
H41 H 0.4494 0.1283 0.4715
H42 H 0.4122 0.2078 0.4120
C39 C 0.2307(2) 0.1929(5) 0.5276(2)
H43 H 0.2174 0.2465 0.5639
H44 H 0.2159 0.1168 0.5407
H45 H 0.2066 0.2138 0.4824
C40 C 0.3382(3) 0.3192(4) 0.5072(3)
H46 H 0.3232 0.3677 0.5455
H47 H 0.3158 0.3455 0.4624
H48 H 0.3908 0.3221 0.5052
Cd2_2 Cd 0.187600(14) 0.14017(2) 0.279350(15)
O7_2 O 0.24804(17) 0.0214(3) 1.37500(18)
O8_2 O 0.27067(16) 0.2064(4) 1.36564(16)
loop_
_geom_bond_atom_site_label_1
_geom_bond_atom_site_label_2
_geom_bond_site_symmetry_1
_geom_bond_site_symmetry_2
Cd1 O1 1_555 1_555
Cd2 O3 1_555 1_555
O1 C21 1_555 1_555
O2 Cd1 1_555 1_555
O3 C27 1_555 1_555
O4 C27 1_555 1_555
O5 C31 1_555 1_555
O6 Cd1 1_555 1_555
O7 C37 1_555 1_555
O8 C37 1_555 1_555
O9 Cd1 1_555 1_555
H1 O9 1_555 1_555
H2 O9 1_555 1_555
O10 Cd2 1_555 1_555
H3 O10 1_555 1_555
H4 O10 1_555 1_555
N1 Cd1 1_555 1_555
N2 Cd1 1_555 1_555
N3 Cd2 1_555 1_555
N4 Cd2 1_555 1_555
C1 N1 1_555 1_555
H5 C1 1_555 1_555
C2 C1 1_555 1_555
H6 C2 1_555 1_555
C3 C2 1_555 1_555
H7 C3 1_555 1_555
C4 C3 1_555 1_555
H8 C4 1_555 1_555
C5 N1 1_555 1_555
C6 N2 1_555 1_555
C7 C6 1_555 1_555
H9 C7 1_555 1_555
C8 C7 1_555 1_555
H10 C8 1_555 1_555
C9 C8 1_555 1_555
H11 C9 1_555 1_555
C10 N2 1_555 1_555
H12 C10 1_555 1_555
C11 N3 1_555 1_555
H13 C11 1_555 1_555
C12 C11 1_555 1_555
H14 C12 1_555 1_555
C13 C12 1_555 1_555
H15 C13 1_555 1_555
C14 C13 1_555 1_555
H16 C14 1_555 1_555
C15 N3 1_555 1_555
C16 N4 1_555 1_555
C17 C16 1_555 1_555
H17 C17 1_555 1_555
C18 C17 1_555 1_555
H18 C18 1_555 1_555
C19 C18 1_555 1_555
H19 C19 1_555 1_555
C20 N4 1_555 1_555
H20 C20 1_555 1_555
C21 O2 1_555 1_555
C22 C21 1_555 1_555
C23 C22 1_555 1_555
C24 C23 1_555 1_555
H21 C24 1_555 1_555
C25 C24 1_555 1_555
H22 C25 1_555 1_555
H23 C25 1_555 1_555
C26 C22 1_555 1_555
H24 C26 1_555 1_555
H25 C26 1_555 1_555
C27 C24 1_555 1_555
C28 C23 1_555 1_555
H26 C28 1_555 1_555
H27 C28 1_555 1_555
H28 C28 1_555 1_555
C29 C23 1_555 1_555
H29 C29 1_555 1_555
H30 C29 1_555 1_555
H31 C29 1_555 1_555
C30 C22 1_555 1_555
H32 C30 1_555 1_555
H33 C30 1_555 1_555
H34 C30 1_555 1_555
C31 O6 1_555 1_555
C32 C31 1_555 1_555
H35 C32 1_555 1_555
C33 C32 1_555 1_555
H36 C33 1_555 1_555
H37 C33 1_555 1_555
C34 C33 1_555 1_555
H38 C34 1_555 1_555
H39 C34 1_555 1_555
C35 C34 1_555 1_555
C36 C32 1_555 1_555
C37 C35 1_555 1_555
C38 C35 1_555 1_555
H40 C38 1_555 1_555
H41 C38 1_555 1_555
H42 C38 1_555 1_555
C39 C36 1_555 1_555
H43 C39 1_555 1_555
H44 C39 1_555 1_555
H45 C39 1_555 1_555
C40 C36 1_555 1_555
H46 C40 1_555 1_555
H47 C40 1_555 1_555
H48 C40 1_555 1_555
Cd2_2 O7 1_555 1_555
O7_2 Cd2 1_555 1_555
O8_2 Cd2 1_555 1_555
O8 Cd2_2 1_555 1_555
C4 C5 1_555 1_555
C5 C6 1_555 1_555
C9 C10 1_555 1_555
C14 C15 1_555 1_555
C15 C16 1_555 1_555
C19 C20 1_555 1_555
C25 C26 1_555 1_555
C35 C36 1_555 1_555

#END
