
#######################################################################
#
#                 Cambridge Crystallographic Data Centre
#                                CCDC 
#
#######################################################################
#
# If this CIF has been generated from an entry in the Cambridge 
# Structural Database, then it will include bibliographic, chemical, 
# crystal, experimental, refinement or atomic coordinate data resulting 
# from the CCDC's data processing and validation procedures.
#
#######################################################################

data_KADKUX
_symmetry_cell_setting           monoclinic
_symmetry_space_group_name_H-M   'P 21/c'
_symmetry_Int_Tables_number      14
_space_group_name_Hall           '-P 2ybc'
loop_
_symmetry_equiv_pos_site_id
_symmetry_equiv_pos_as_xyz
1 x,y,z
2 -x,1/2+y,1/2-z
3 -x,-y,-z
4 x,1/2-y,1/2+z
_cell_length_a                   11.285(4)
_cell_length_b                   7.971(3)
_cell_length_c                   22.609(7)
_cell_angle_alpha                90
_cell_angle_beta                 93.014(5)
_cell_angle_gamma                90
_cell_volume                     2030.93
loop_
_atom_site_label
_atom_site_type_symbol
_atom_site_fract_x
_atom_site_fract_y
_atom_site_fract_z
Mn1 Mn 0.54860(8) 0.74940(10) 0.35403(3)
As1 As 0.37233(5) 0.53194(7) 0.25215(2)
S1 S 0.16884(16) 0.4223(3) 0.13107(8)
N1 N 0.3954(4) 0.9065(6) 0.3838(2)
N2 N 0.5452(4) 0.7248(5) 0.45235(18)
C1 C 0.2056(5) 0.4816(7) 0.2532(2)
C2 C 0.1301(5) 0.4262(7) 0.2058(3)
C3 C 0.0157(6) 0.3786(9) 0.2161(3)
H1 H -0.0334 0.3396 0.1847
C4 C -0.0270(7) 0.3877(10) 0.2717(4)
H2 H -0.1044 0.3545 0.2778
C5 C 0.0451(7) 0.4462(10) 0.3188(3)
H3 H 0.0162 0.4543 0.3565
C6 C 0.1615(6) 0.4928(8) 0.3090(3)
H4 H 0.2102 0.5320 0.3405
C7 C 0.3200(7) 0.9906(8) 0.3461(3)
H5 H 0.3390 1.0025 0.3068
C8 C 0.2164(7) 1.0590(10) 0.3639(5)
H6 H 0.1659 1.1174 0.3374
C9 C 0.1886(8) 1.0392(12) 0.4224(5)
H7 H 0.1185 1.0835 0.4358
C10 C 0.2636(7) 0.9553(9) 0.4598(4)
H8 H 0.2454 0.9425 0.4991
C11 C 0.3675(5) 0.8878(7) 0.4406(2)
C12 C 0.4540(5) 0.7965(7) 0.4798(2)
C13 C 0.4468(7) 0.7854(8) 0.5407(3)
H9 H 0.3850 0.8375 0.5592
C14 C 0.5310(8) 0.6976(9) 0.5734(3)
H10 H 0.5261 0.6885 0.6142
C15 C 0.6221(8) 0.6235(8) 0.5462(2)
H11 H 0.6795 0.5623 0.5680
C16 C 0.6279(6) 0.6409(8) 0.4854(2)
H12 H 0.6913 0.5928 0.4669
O1 O 0.4190(3) 0.5803(5) 0.32078(14)
O2 O 0.3912(4) 0.7057(5) 0.20796(15)
H13 H 0.4410 0.7681 0.2240
O3 O 0.4508(4) 0.3688(5) 0.22920(15)
O4 O 0.1198(6) 0.2646(11) 0.1078(3)
O5 O 0.1157(6) 0.5673(11) 0.1045(2)
O6 O 0.2968(3) 0.4249(5) 0.13142(16)
O7 O 0.6814(4) 0.5428(6) 0.3438(2)
H14 H 0.7285 0.5707 0.3174
H15 H 0.7206 0.5277 0.3765
Mn1A Mn 0.45140(8) 0.24940(10) 0.14597(3)
O3A O 0.5492(4) 0.8688(5) 0.27080(15)
O6A O 0.7032(3) 0.9249(5) 0.36858(16)
O8 O 0.1600(10) 0.8666(15) 0.0783(5)
H16 H 0.2149 0.8680 0.0540
H17 H 0.0976 0.9105 0.0622
O9 O 0.0258(19) 0.798(2) 0.0068(7)
O10? O 0.0632(18) 0.901(3) -0.0354(10)
loop_
_geom_bond_atom_site_label_1
_geom_bond_atom_site_label_2
_geom_bond_site_symmetry_1
_geom_bond_site_symmetry_2
Mn1 N1 1_555 1_555
As1 C1 1_555 1_555
S1 C2 1_555 1_555
N1 C7 1_555 1_555
N2 Mn1 1_555 1_555
C1 C2 1_555 1_555
C2 C3 1_555 1_555
C3 H1 1_555 1_555
C4 C3 1_555 1_555
H2 C4 1_555 1_555
C5 C4 1_555 1_555
H3 C5 1_555 1_555
C6 C1 1_555 1_555
H4 C6 1_555 1_555
C7 H5 1_555 1_555
C8 C7 1_555 1_555
H6 C8 1_555 1_555
C9 C8 1_555 1_555
H7 C9 1_555 1_555
C10 C9 1_555 1_555
H8 C10 1_555 1_555
C11 N1 1_555 1_555
C12 N2 1_555 1_555
C13 C12 1_555 1_555
H9 C13 1_555 1_555
C14 C13 1_555 1_555
H10 C14 1_555 1_555
C15 C14 1_555 1_555
H11 C15 1_555 1_555
C16 N2 1_555 1_555
H12 C16 1_555 1_555
O1 Mn1 1_555 1_555
O2 As1 1_555 1_555
H13 O2 1_555 1_555
O3 As1 1_555 1_555
O4 S1 1_555 1_555
O5 S1 1_555 1_555
O6 S1 1_555 1_555
O7 Mn1 1_555 1_555
H14 O7 1_555 1_555
H15 O7 1_555 1_555
O8 H16 1_555 1_555
H17 O8 1_555 1_555
Mn1A O3 1_555 1_555
O3A Mn1 1_555 1_555
O6A Mn1 1_555 1_555
As1 O1 1_555 1_555
C5 C6 1_555 1_555
C10 C11 1_555 1_555
C11 C12 1_555 1_555
C15 C16 1_555 1_555
O6 Mn1A 1_555 1_555

#END
