
#######################################################################
#
#                 Cambridge Crystallographic Data Centre
#                                CCDC 
#
#######################################################################
#
# If this CIF has been generated from an entry in the Cambridge 
# Structural Database, then it will include bibliographic, chemical, 
# crystal, experimental, refinement or atomic coordinate data resulting 
# from the CCDC's data processing and validation procedures.
#
#######################################################################

data_KADNOU
_symmetry_cell_setting           monoclinic
_symmetry_space_group_name_H-M   'P 21/c'
_symmetry_Int_Tables_number      14
_space_group_name_Hall           '-P 2ybc'
loop_
_symmetry_equiv_pos_site_id
_symmetry_equiv_pos_as_xyz
1 x,y,z
2 -x,1/2+y,1/2-z
3 -x,-y,-z
4 x,1/2-y,1/2+z
_cell_length_a                   10.50780(10)
_cell_length_b                   8.36100(10)
_cell_length_c                   16.4258(2)
_cell_angle_alpha                90
_cell_angle_beta                 106.1456(8)
_cell_angle_gamma                90
_cell_volume                     1386.18
loop_
_atom_site_label
_atom_site_type_symbol
_atom_site_fract_x
_atom_site_fract_y
_atom_site_fract_z
I1 I 0.99399(3) 0.68433(5) 0.59237(2)
Cu1 Cu 0.5000 0.5000 0.5000
Cu2 Cu 0.86931(7) 0.43938(8) 0.50804(5)
S1 S 0.65602(13) 0.50781(14) 0.42330(9)
S2 S 0.53018(15) 0.76737(16) 0.48608(10)
N1 N 0.7064(4) 0.8168(4) 0.3975(2)
N2 N 0.8419(4) 0.2628(5) 0.5835(3)
C1 C 0.6408(4) 0.7142(5) 0.4310(3)
C2 C 0.7959(5) 0.7573(6) 0.3491(3)
C3 C 0.8247(5) 0.8768(6) 0.2874(3)
C4 C 0.7071(6) 0.9514(7) 0.2264(3)
C5 C 0.6544(6) 1.0985(7) 0.2594(3)
C6 C 0.5989(6) 1.0675(6) 0.3344(4)
C7 C 0.6935(5) 0.9899(5) 0.4095(3)
C8 C 0.8204(5) 0.1615(6) 0.6229(3)
C9 C 0.7904(6) 0.0288(6) 0.6710(4)
H1 H 0.7568 0.6627 0.3178
H2 H 0.8790 0.7256 0.3887
H3 H 0.8789 0.9616 0.3197
H4 H 0.8770 0.8237 0.2551
H5 H 0.6368 0.8724 0.2109
H6 H 0.7309 0.9799 0.1752
H7 H 0.5851 1.1451 0.2138
H8 H 0.7252 1.1765 0.2762
H9 H 0.5704 1.1686 0.3524
H10 H 0.5212 1.0000 0.3156
H11 H 0.7799 1.0396 0.4194
H12 H 0.6630 1.0076 0.4593
H13 H 0.8110 0.0579 0.7298
H14 H 0.8423 -0.0624 0.6648
H15 H 0.6979 0.0030 0.6505
I1B I 1.00601(3) 0.31567(5) 0.40763(2)
I1B_2 I 0.00601(3) 0.31567(5) 0.40763(2)
I1_2 I -0.00601(3) 0.68433(5) 0.59237(2)
Cu2B Cu 0.13069(7) 0.56062(8) 0.49196(5)
Cu2B_2 Cu 1.13069(7) 0.56062(8) 0.49196(5)
S1B S 0.34398(13) 0.49219(14) 0.57670(9)
S2B S 0.46982(15) 0.23263(16) 0.51392(10)
N1B N 0.2936(4) 0.1832(4) 0.6025(2)
N2B N 0.1581(4) 0.7372(5) 0.4165(3)
C1B C 0.3592(4) 0.2858(5) 0.5690(3)
C2B C 0.2041(5) 0.2427(6) 0.6509(3)
C3B C 0.1753(5) 0.1232(6) 0.7126(3)
C4B C 0.2929(6) 0.0486(7) 0.7736(3)
C5B C 0.3456(6) -0.0985(7) 0.7406(3)
C6B C 0.4011(6) -0.0675(6) 0.6656(4)
C7B C 0.3065(5) 0.0101(5) 0.5905(3)
C8B C 0.1796(5) 0.8385(6) 0.3771(3)
C9B C 0.2096(6) 0.9712(6) 0.3290(4)
H1B H 0.2432 0.3373 0.6822
H2B H 0.1210 0.2744 0.6113
H3B H 0.1211 0.0384 0.6803
H4B H 0.1230 0.1763 0.7449
H5B H 0.3632 0.1276 0.7891
H6B H 0.2691 0.0201 0.8248
H7B H 0.4149 -0.1451 0.7862
H8B H 0.2748 -0.1765 0.7238
H9B H 0.4296 -0.1686 0.6476
H10B H 0.4788 0.0000 0.6844
H11B H 0.2201 -0.0396 0.5806
H12B H 0.3370 -0.0076 0.5407
H13B H 0.1890 0.9421 0.2702
H14B H 0.1577 1.0624 0.3352
H15B H 0.3021 0.9970 0.3495
loop_
_geom_bond_atom_site_label_1
_geom_bond_atom_site_label_2
_geom_bond_site_symmetry_1
_geom_bond_site_symmetry_2
I1 Cu2 1_555 1_555
Cu1 S1 1_555 1_555
Cu2 S1 1_555 1_555
S1 C1 1_555 1_555
S2 Cu1 1_555 1_555
N1 C1 1_555 1_555
N2 Cu2 1_555 1_555
C1 S2 1_555 1_555
C2 N1 1_555 1_555
C3 C2 1_555 1_555
C4 C3 1_555 1_555
C5 C4 1_555 1_555
C6 C5 1_555 1_555
C7 N1 1_555 1_555
C8 N2 1_555 1_555
C9 C8 1_555 1_555
H1 C2 1_555 1_555
H2 C2 1_555 1_555
H3 C3 1_555 1_555
H4 C3 1_555 1_555
H5 C4 1_555 1_555
H6 C4 1_555 1_555
H7 C5 1_555 1_555
H8 C5 1_555 1_555
H9 C6 1_555 1_555
H10 C6 1_555 1_555
H11 C7 1_555 1_555
H12 C7 1_555 1_555
H13 C9 1_555 1_555
H14 C9 1_555 1_555
H15 C9 1_555 1_555
I1B Cu2 1_555 1_555
I1B_2 Cu2B 1_555 1_555
I1_2 Cu2B 1_555 1_555
Cu2B S1B 1_555 1_555
Cu2B_2 I1 1_555 1_555
S1B Cu1 1_555 1_555
S2B Cu1 1_555 1_555
N1B C1B 1_555 1_555
N2B Cu2B 1_555 1_555
C1B S1B 1_555 1_555
C2B N1B 1_555 1_555
C3B C2B 1_555 1_555
C4B C3B 1_555 1_555
C5B C4B 1_555 1_555
C6B C5B 1_555 1_555
C7B N1B 1_555 1_555
C8B N2B 1_555 1_555
C9B C8B 1_555 1_555
H1B C2B 1_555 1_555
H2B C2B 1_555 1_555
H3B C3B 1_555 1_555
H4B C3B 1_555 1_555
H5B C4B 1_555 1_555
H6B C4B 1_555 1_555
H7B C5B 1_555 1_555
H8B C5B 1_555 1_555
H9B C6B 1_555 1_555
H10B C6B 1_555 1_555
H11B C7B 1_555 1_555
H12B C7B 1_555 1_555
H13B C9B 1_555 1_555
H14B C9B 1_555 1_555
H15B C9B 1_555 1_555
C6 C7 1_555 1_555
I1B Cu2B_2 1_555 1_555
S2B C1B 1_555 1_555
C6B C7B 1_555 1_555

#END
