
#######################################################################
#
#                 Cambridge Crystallographic Data Centre
#                                CCDC 
#
#######################################################################
#
# If this CIF has been generated from an entry in the Cambridge 
# Structural Database, then it will include bibliographic, chemical, 
# crystal, experimental, refinement or atomic coordinate data resulting 
# from the CCDC's data processing and validation procedures.
#
#######################################################################

data_KADTEQ
_symmetry_cell_setting           triclinic
_symmetry_space_group_name_H-M   'P -1'
_symmetry_Int_Tables_number      2
_space_group_name_Hall           '-P 1'
loop_
_symmetry_equiv_pos_site_id
_symmetry_equiv_pos_as_xyz
1 x,y,z
2 -x,-y,-z
_cell_length_a                   5.0304(15)
_cell_length_b                   7.725(2)
_cell_length_c                   17.011(5)
_cell_angle_alpha                92.706(4)
_cell_angle_beta                 97.131(4)
_cell_angle_gamma                102.452(3)
_cell_volume                     638.632
loop_
_atom_site_label
_atom_site_type_symbol
_atom_site_fract_x
_atom_site_fract_y
_atom_site_fract_z
C1 C 0.3553(17) 0.9229(9) 0.6969(4)
H1 H 0.1782 0.8784 0.7142
H2 H 0.4335 1.0384 0.7250
C2 C 0.3120(13) 0.9459(7) 0.6145(4)
H3 H 0.4894 0.9726 0.5955
H4 H 0.2319 1.0486 0.6073
C3 C 0.6799(11) 0.8351(7) 0.7897(3)
H5 H 0.6654 0.9380 0.8179
C4 C 0.9061(9) 0.5771(6) 0.7914(3)
C5 C 0.8592(10) 0.7340(6) 0.8290(3)
C6 C 1.1707(12) 0.7097(7) 0.9445(3)
C7 C 0.9955(10) 0.7980(7) 0.9051(3)
H6 H 0.9657 0.9018 0.9289
C8 C 1.0910(11) 0.4929(7) 0.8357(3)
C9 C 1.2213(12) 0.5555(8) 0.9092(3)
H7 H 1.3435 0.4963 0.9360
Cl1 Cl 1.1534(4) 0.3006(2) 0.79095(9)
Cl2 Cl 1.3439(4) 0.7881(2) 1.03890(9)
Cu1 Cu 0.52942(11) 0.58807(7) 0.65206(3)
N1 N 0.5379(9) 0.8004(6) 0.7207(2)
O1 O -0.1810(6) 0.7461(4) 0.5660(2)
O2 O 0.1436(8) 0.8044(6) 0.4744(3)
O3 O 0.2069(6) 0.6106(4) 0.5802(2)
O4 O 0.4960(7) 0.3627(4) 0.59014(19)
H8 H 0.3896 0.3341 0.5464
H9 H 0.6433 0.3315 0.5825
O5 O 0.7951(7) 0.5111(5) 0.72078(19)
S1 S 0.1033(2) 0.76708(14) 0.55548(7)
Cu1_2 Cu -0.47058(11) 0.58807(7) 0.65206(3)
O1_2 O 0.8190(6) 0.7461(4) 0.5660(2)
loop_
_geom_bond_atom_site_label_1
_geom_bond_atom_site_label_2
_geom_bond_site_symmetry_1
_geom_bond_site_symmetry_2
C1 H1 1_555 1_555
H2 C1 1_555 1_555
C2 C1 1_555 1_555
H3 C2 1_555 1_555
H4 C2 1_555 1_555
C3 H5 1_555 1_555
C4 C5 1_555 1_555
C5 C3 1_555 1_555
C6 C7 1_555 1_555
C7 C5 1_555 1_555
H6 C7 1_555 1_555
C8 C4 1_555 1_555
C9 C6 1_555 1_555
H7 C9 1_555 1_555
Cl1 C8 1_555 1_555
Cl2 C6 1_555 1_555
Cu1 N1 1_555 1_555
N1 C1 1_555 1_555
O1 S1 1_555 1_555
O2 S1 1_555 1_555
O3 Cu1 1_555 1_555
O4 Cu1 1_555 1_555
H8 O4 1_555 1_555
H9 O4 1_555 1_555
O5 C4 1_555 1_555
S1 C2 1_555 1_555
Cu1_2 O1 1_555 1_555
O1_2 Cu1 1_555 1_555
C3 N1 1_555 1_555
C8 C9 1_555 1_555
Cu1 O5 1_555 1_555
O3 S1 1_555 1_555

#END
