
#######################################################################
#
#                 Cambridge Crystallographic Data Centre
#                                CCDC 
#
#######################################################################
#
# If this CIF has been generated from an entry in the Cambridge 
# Structural Database, then it will include bibliographic, chemical, 
# crystal, experimental, refinement or atomic coordinate data resulting 
# from the CCDC's data processing and validation procedures.
#
#######################################################################

data_KADZIZ
_symmetry_cell_setting           triclinic
_symmetry_space_group_name_H-M   'P -1'
_symmetry_Int_Tables_number      2
_space_group_name_Hall           '-P 1'
loop_
_symmetry_equiv_pos_site_id
_symmetry_equiv_pos_as_xyz
1 x,y,z
2 -x,-y,-z
_cell_length_a                   6.913(2)
_cell_length_b                   10.687(4)
_cell_length_c                   11.182(4)
_cell_angle_alpha                92.805(6)
_cell_angle_beta                 101.821(6)
_cell_angle_gamma                95.688(6)
_cell_volume                     802.581
loop_
_atom_site_label
_atom_site_type_symbol
_atom_site_fract_x
_atom_site_fract_y
_atom_site_fract_z
Pb1 Pb 0.15666(3) 0.978669(16) 0.352182(16)
O1 O 0.0769(6) 1.1321(4) 0.5027(4)
O2 O 0.0531(6) 1.3316(4) 0.5625(4)
O3 O 0.2104(6) 1.0172(3) 0.1328(3)
O4 O 0.2240(6) 1.1498(4) -0.0152(4)
O5 O 0.4152(6) 0.8809(4) 0.5725(4)
O6 O 0.4470(6) 0.7000(4) 0.4716(4)
O7 O 0.2786(6) 0.8712(4) 0.9675(4)
O8 O 0.3512(6) 0.7062(4) 1.0797(4)
O9 O -0.2035(5) 0.9887(3) 0.2419(3)
H1 H -0.2410 0.9609 0.1543
H2 H -0.2412 1.0549 0.2000
O10 O 0.0194(7) 0.7569(4) 0.2230(4)
O11 O 0.4780(7) 0.8363(4) 0.2974(4)
C1 C 0.0799(7) 1.2500(5) 0.4873(5)
C2 C 0.1129(7) 1.2920(5) 0.3641(5)
C3 C 0.1084(7) 1.4172(5) 0.3362(5)
C4 C 0.1310(8) 1.4482(5) 0.2191(5)
C5 C 0.1574(7) 1.3530(5) 0.1363(5)
C6 C 0.1660(7) 1.2309(5) 0.1727(5)
C7 C 0.2018(7) 1.1255(5) 0.0885(5)
C8 C 0.4149(7) 0.7668(5) 0.5658(5)
C9 C 0.3822(7) 0.6877(5) 0.6695(5)
C10 C 0.3883(7) 0.5576(5) 0.6596(5)
H3 H 0.4029 0.5158 0.5856
C11 C 0.3721(8) 0.4905(5) 0.7621(5)
C12 C 0.3516(7) 0.5558(5) 0.8668(5)
C13 C 0.3435(7) 0.6869(5) 0.8675(5)
C14 C 0.3248(8) 0.7576(5) 0.9819(5)
N1 N 0.1431(6) 1.2011(4) 0.2851(4)
N2 N 0.3561(6) 0.7521(4) 0.7695(4)
H4 H 0.093(10) 1.485(6) 0.405(6)
H5 H 0.141(11) 1.538(8) 0.208(7)
H6 H 0.186(11) 1.373(7) 0.063(7)
H7 H 0.462(13) 0.746(9) 0.419(9)
H8 H 0.253(14) 0.910(10) 1.031(9)
H9 H -0.069(14) 0.764(9) 0.168(9)
H10 H -0.041(15) 0.727(10) 0.274(10)
H11 H 0.364(10) 0.411(7) 0.761(6)
H12 H 0.417(14) 0.787(9) 0.234(9)
H13 H 0.567(15) 0.881(10) 0.299(9)
H14 H 0.337(10) 0.513(7) 0.935(7)
O1A O -0.0769(6) 0.8679(4) 0.4973(4)
O5A O 0.5848(6) 1.1191(4) 0.4275(4)
Pb1A Pb -0.15666(3) 1.021331(16) 0.647818(16)
Pb1A_2 Pb 0.84334(3) 1.021331(16) 0.647818(16)
loop_
_geom_bond_atom_site_label_1
_geom_bond_atom_site_label_2
_geom_bond_site_symmetry_1
_geom_bond_site_symmetry_2
Pb1 O1 1_555 1_555
O1 C1 1_555 1_555
O2 C1 1_555 1_555
O3 Pb1 1_555 1_555
O4 C7 1_555 1_555
O5 Pb1 1_555 1_555
O6 C8 1_555 1_555
O7 C14 1_555 1_555
O8 C14 1_555 1_555
O9 Pb1 1_555 1_555
H1 O9 1_555 1_555
H2 O9 1_555 1_555
O10 Pb1 1_555 1_555
O11 Pb1 1_555 1_555
C1 C2 1_555 1_555
C2 C3 1_555 1_555
C3 C4 1_555 1_555
C4 C5 1_555 1_555
C5 C6 1_555 1_555
C6 C7 1_555 1_555
C7 O3 1_555 1_555
C8 O5 1_555 1_555
C9 C8 1_555 1_555
C10 C9 1_555 1_555
H3 C10 1_555 1_555
C11 C10 1_555 1_555
C12 C11 1_555 1_555
C13 C12 1_555 1_555
C14 C13 1_555 1_555
N1 Pb1 1_555 1_555
N2 C9 1_555 1_555
H4 C3 1_555 1_555
H5 C4 1_555 1_555
H6 C5 1_555 1_555
H7 O6 1_555 1_555
H8 O7 1_555 1_555
H9 O10 1_555 1_555
H10 O10 1_555 1_555
H11 C11 1_555 1_555
H12 O11 1_555 1_555
H13 O11 1_555 1_555
H14 C12 1_555 1_555
O1A Pb1 1_555 1_555
O5A Pb1 1_555 1_555
Pb1A O1 1_555 1_555
Pb1A_2 O5 1_555 1_555
C2 N1 1_555 1_555
C6 N1 1_555 1_555
C13 N2 1_555 1_555
O1A Pb1A 1_555 1_555
O5A Pb1A_2 1_555 1_555

#END
