
#######################################################################
#
#                 Cambridge Crystallographic Data Centre
#                                CCDC 
#
#######################################################################
#
# If this CIF has been generated from an entry in the Cambridge 
# Structural Database, then it will include bibliographic, chemical, 
# crystal, experimental, refinement or atomic coordinate data resulting 
# from the CCDC's data processing and validation procedures.
#
#######################################################################

data_KAFCUQ01
_symmetry_cell_setting           monoclinic
_symmetry_space_group_name_H-M   'P 21/n'
_symmetry_Int_Tables_number      14
_space_group_name_Hall           '-P 2yn'
loop_
_symmetry_equiv_pos_site_id
_symmetry_equiv_pos_as_xyz
1 x,y,z
2 1/2+x,1/2-y,1/2+z
3 -x,-y,-z
4 1/2-x,1/2+y,1/2-z
_cell_length_a                   10.122(2)
_cell_length_b                   9.3106(19)
_cell_length_c                   15.690(3)
_cell_angle_alpha                90
_cell_angle_beta                 92.03(3)
_cell_angle_gamma                90
_cell_volume                     1477.73
loop_
_atom_site_label
_atom_site_type_symbol
_atom_site_fract_x
_atom_site_fract_y
_atom_site_fract_z
Ni1 Ni 0.84665(6) 0.15877(7) 0.18749(4)
O1 O 0.7109(3) 0.3129(3) 0.1520(2)
O2 O 0.5280(3) 0.5237(4) 0.2352(2)
O3 O 0.6176(3) 0.7207(4) 0.1826(2)
O4 O 0.6964(3) 0.0274(4) 0.2245(2)
O5 O 0.5256(4) 0.1817(4) 0.1411(3)
N1 N 0.9996(4) 0.2795(5) 0.1421(2)
N2 N 0.8380(4) 0.0930(5) 0.0605(2)
C1 C 1.0831(5) 0.3648(6) 0.1833(4)
H1 H 1.0780 0.3720 0.2422
C2 C 1.1804(5) 0.4462(7) 0.1426(4)
H2 H 1.2388 0.5041 0.1742
C3 C 1.1868(5) 0.4380(6) 0.0570(4)
H3 H 1.2496 0.4916 0.0290
C4 C 1.1008(5) 0.3507(6) 0.0109(3)
C5 C 1.0087(5) 0.2710(5) 0.0570(3)
C6 C 0.9188(4) 0.1744(5) 0.0112(3)
C7 C 0.9226(5) 0.1609(6) -0.0757(3)
C8 C 0.8324(5) 0.0639(7) -0.1160(3)
H4 H 0.8287 0.0543 -0.1750
C9 C 0.7508(5) -0.0152(7) -0.0668(4)
H5 H 0.6910 -0.0792 -0.0924
C10 C 0.7570(5) -0.0001(6) 0.0230(3)
H6 H 0.7031 -0.0568 0.0561
C11 C 1.0972(6) 0.3346(7) -0.0830(4)
H7 H 1.1524 0.3904 -0.1156
C12 C 1.0179(6) 0.2438(7) -0.1197(4)
H8 H 1.0229 0.2313 -0.1783
C13 C 0.5577(4) 0.6009(5) 0.1707(3)
C14 C 0.5288(4) 0.5479(5) 0.0830(3)
C15 C 0.5943(5) 0.2898(5) 0.1267(3)
C16 C 0.5370(4) 0.4004(5) 0.0619(3)
C17 C 0.5098(5) 0.3557(5) -0.0184(3)
H9 H 0.5169 0.2586 -0.0313
C17B C 0.4902(5) 0.6443(5) 0.0184(3)
C16B C 0.4630(4) 0.5996(5) -0.0619(3)
C14B C 0.4712(4) 0.4521(5) -0.0830(3)
C13B C 0.4423(4) 0.3991(5) -0.1707(3)
O2B O 0.4720(3) 0.4763(4) -0.2352(2)
O3B O 0.3824(3) 0.2793(4) -0.1826(2)
C15B C 0.4057(5) 0.7102(5) -0.1267(3)
O1B O 0.2891(3) 0.6871(3) -0.1520(2)
O5B O 0.4744(4) 0.8183(4) -0.1411(3)
H9B H 0.4831 0.7414 0.0313
Ni1B Ni 0.15335(6) 0.84123(7) -0.18749(4)
O4B O 0.3036(3) 0.9726(4) -0.2245(2)
N1B N 0.0004(4) 0.7205(5) -0.1421(2)
N2B N 0.1620(4) 0.9070(5) -0.0605(2)
C1B C -0.0831(5) 0.6352(6) -0.1833(4)
H1B H -0.0780 0.6280 -0.2422
C2B C -0.1804(5) 0.5538(7) -0.1426(4)
H2B H -0.2388 0.4959 -0.1742
C3B C -0.1868(5) 0.5620(6) -0.0570(4)
H3B H -0.2496 0.5084 -0.0290
C4B C -0.1008(5) 0.6493(6) -0.0109(3)
C5B C -0.0087(5) 0.7290(5) -0.0570(3)
C6B C 0.0812(4) 0.8256(5) -0.0112(3)
C7B C 0.0774(5) 0.8391(6) 0.0757(3)
C8B C 0.1676(5) 0.9361(7) 0.1160(3)
H4B H 0.1713 0.9457 0.1750
C9B C 0.2492(5) 1.0152(7) 0.0668(4)
H5B H 0.3090 1.0792 0.0924
C10B C 0.2430(5) 1.0001(6) -0.0230(3)
H6B H 0.2969 1.0568 -0.0561
C11B C -0.0972(6) 0.6654(7) 0.0830(4)
H7B H -0.1524 0.6096 0.1156
C12B C -0.0179(6) 0.7562(7) 0.1197(4)
H8B H -0.0229 0.7687 0.1783
O2C O 0.9720(3) 0.0237(4) 0.2648(2)
O3C O 0.8824(3) 0.2207(4) 0.3174(2)
Ni1C Ni 0.65335(6) 0.65877(7) 0.31251(4)
Ni1A Ni 0.34665(6) 0.34123(7) -0.31251(4)
O2A O 0.0280(3) 0.9763(4) -0.2648(2)
O3A O 0.1176(3) 0.7793(4) -0.3174(2)
loop_
_geom_bond_atom_site_label_1
_geom_bond_atom_site_label_2
_geom_bond_site_symmetry_1
_geom_bond_site_symmetry_2
Ni1 O1 1_555 1_555
O1 C15 1_555 1_555
O2 C13 1_555 1_555
O3 C13 1_555 1_555
O4 Ni1 1_555 1_555
O5 C15 1_555 1_555
N1 Ni1 1_555 1_555
N2 Ni1 1_555 1_555
C1 N1 1_555 1_555
H1 C1 1_555 1_555
C2 C1 1_555 1_555
H2 C2 1_555 1_555
C3 C2 1_555 1_555
H3 C3 1_555 1_555
C4 C3 1_555 1_555
C5 N1 1_555 1_555
C6 N2 1_555 1_555
C7 C6 1_555 1_555
C8 C7 1_555 1_555
H4 C8 1_555 1_555
C9 C8 1_555 1_555
H5 C9 1_555 1_555
C10 N2 1_555 1_555
H6 C10 1_555 1_555
C11 C4 1_555 1_555
H7 C11 1_555 1_555
C12 C7 1_555 1_555
H8 C12 1_555 1_555
C13 C14 1_555 1_555
C14 C16 1_555 1_555
C15 C16 1_555 1_555
C16 C17 1_555 1_555
C17 H9 1_555 1_555
C17B C14 1_555 1_555
C16B C17B 1_555 1_555
C14B C17 1_555 1_555
C13B C14B 1_555 1_555
O2B C13B 1_555 1_555
O3B C13B 1_555 1_555
C15B C16B 1_555 1_555
O1B C15B 1_555 1_555
O5B C15B 1_555 1_555
H9B C17B 1_555 1_555
Ni1B O1B 1_555 1_555
O4B Ni1B 1_555 1_555
N1B Ni1B 1_555 1_555
N2B Ni1B 1_555 1_555
C1B N1B 1_555 1_555
H1B C1B 1_555 1_555
C2B C1B 1_555 1_555
H2B C2B 1_555 1_555
C3B C2B 1_555 1_555
H3B C3B 1_555 1_555
C4B C3B 1_555 1_555
C5B N1B 1_555 1_555
C6B N2B 1_555 1_555
C7B C6B 1_555 1_555
C8B C7B 1_555 1_555
H4B C8B 1_555 1_555
C9B C8B 1_555 1_555
H5B C9B 1_555 1_555
C10B N2B 1_555 1_555
H6B C10B 1_555 1_555
C11B C4B 1_555 1_555
H7B C11B 1_555 1_555
C12B C7B 1_555 1_555
H8B C12B 1_555 1_555
O2C Ni1 1_555 1_555
O3C Ni1 1_555 1_555
Ni1C O2 1_555 1_555
Ni1A O2B 1_555 1_555
O2A Ni1B 1_555 1_555
O3A Ni1B 1_555 1_555
O3 Ni1C 1_555 1_555
C4 C5 1_555 1_555
C5 C6 1_555 1_555
C9 C10 1_555 1_555
C11 C12 1_555 1_555
C16B C14B 1_555 1_555
O3B Ni1A 1_555 1_555
C4B C5B 1_555 1_555
C5B C6B 1_555 1_555
C9B C10B 1_555 1_555
C11B C12B 1_555 1_555

#END
