
#######################################################################
#
#                 Cambridge Crystallographic Data Centre
#                                CCDC 
#
#######################################################################
#
# If this CIF has been generated from an entry in the Cambridge 
# Structural Database, then it will include bibliographic, chemical, 
# crystal, experimental, refinement or atomic coordinate data resulting 
# from the CCDC's data processing and validation procedures.
#
#######################################################################

data_KAFKUY
_symmetry_cell_setting           triclinic
_symmetry_space_group_name_H-M   'P -1'
_symmetry_Int_Tables_number      2
_space_group_name_Hall           '-P 1'
loop_
_symmetry_equiv_pos_site_id
_symmetry_equiv_pos_as_xyz
1 x,y,z
2 -x,-y,-z
_cell_length_a                   12.203(3)
_cell_length_b                   15.172(4)
_cell_length_c                   15.802(4)
_cell_angle_alpha                102.925(4)
_cell_angle_beta                 96.256(4)
_cell_angle_gamma                112.461(4)
_cell_volume                     2573.08
loop_
_atom_site_label
_atom_site_type_symbol
_atom_site_fract_x
_atom_site_fract_y
_atom_site_fract_z
Cu1 Cu 0.36024(3) 0.20395(3) 0.44498(2)
Cu2 Cu 0.65051(3) 0.18543(3) 0.35364(2)
N1 N 0.4572(2) 0.26594(19) 0.36578(17)
N2 N 0.5568(2) 0.26224(19) 0.33986(16)
N3 N 0.5694(2) 0.4160(2) 0.35093(18)
N4 N 0.3264(2) 0.3255(2) 0.45876(18)
N5 N 0.3314(2) 0.1882(2) 0.56387(18)
N6 N 0.4598(2) 0.13230(19) 0.46460(17)
N7 N 0.5524(2) 0.12234(19) 0.43212(17)
N8 N 0.5767(2) 0.1132(2) 0.57139(17)
N9 N 0.7699(2) 0.1493(2) 0.41642(18)
N10 N 0.7768(2) 0.3010(2) 0.32781(17)
C1 C 0.6218(3) 0.3519(2) 0.33262(19)
C2 C 0.4675(3) 0.3580(2) 0.3727(2)
C3 C 0.3793(3) 0.3854(2) 0.4157(2)
C4 C 0.3619(3) 0.4750(3) 0.4065(2)
H1 H 0.2882 0.4544 0.3614
H2 H 0.4322 0.5188 0.3885
H3 H 0.3539 0.5109 0.4637
C5 C 0.2358(3) 0.3362(3) 0.5097(2)
H4 H 0.1537 0.2868 0.4762
H5 H 0.2381 0.4035 0.5173
C6 C 0.2599(4) 0.3211(3) 0.5999(3)
H6 H 0.2059 0.3403 0.6349
H7 H 0.3444 0.3680 0.6303
C7 C 0.2435(3) 0.2178(3) 0.6037(3)
H8 H 0.2532 0.2169 0.6665
H9 H 0.1603 0.1690 0.5719
C8 C 0.3946(3) 0.1332(3) 0.6900(2)
H10 H 0.4092 0.1947 0.7351
H11 H 0.4585 0.1115 0.7045
H12 H 0.3155 0.0812 0.6886
C9 C 0.3953(3) 0.1515(2) 0.6016(2)
C10 C 0.4770(3) 0.1277(2) 0.5477(2)
C11 C 0.6206(3) 0.1123(2) 0.4974(2)
C12 C 0.7412(3) 0.1200(2) 0.4838(2)
C13 C 0.8200(3) 0.1002(3) 0.5479(2)
H13 H 0.7701 0.0586 0.5808
H14 H 0.8792 0.1634 0.5896
H15 H 0.8629 0.0653 0.5157
C14 C 0.8919(3) 0.1718(3) 0.3985(2)
H16 H 0.9057 0.1104 0.3879
H17 H 0.9531 0.2215 0.4516
C15 C 0.9096(3) 0.2112(3) 0.3196(2)
H18 H 0.8482 0.1606 0.2671
H19 H 0.9905 0.2187 0.3083
C16 C 0.9011(3) 0.3100(3) 0.3264(2)
H20 H 0.9572 0.3603 0.3814
H21 H 0.9268 0.3334 0.2752
C17 C 0.8231(3) 0.4658(3) 0.3031(2)
H22 H 0.7714 0.4904 0.2729
H23 H 0.8783 0.4545 0.2658
H24 H 0.8704 0.5152 0.3601
C18 C 0.7460(3) 0.3709(2) 0.31901(19)
Cu3 Cu -0.14715(3) 0.25763(3) 0.04791(2)
Cu4 Cu 0.16052(3) 0.21541(3) 0.10383(2)
N11 N -0.0922(2) 0.1554(2) -0.00471(17)
N12 N 0.0046(2) 0.13664(19) 0.01565(17)
N13 N -0.0588(2) 0.0805(2) -0.13150(18)
N14 N -0.2464(2) 0.2080(2) -0.07633(18)
N15 N -0.1459(3) 0.3941(2) 0.0641(2)
N16 N 0.0147(2) 0.3419(2) 0.12770(17)
N17 N 0.1163(2) 0.3284(2) 0.14210(17)
N18 N 0.1721(3) 0.4896(2) 0.15137(19)
N19 N 0.3263(2) 0.3303(2) 0.13629(18)
N20 N 0.2116(3) 0.1286(2) 0.01599(19)
C19 C 0.0222(3) 0.0932(2) -0.0611(2)
C20 C -0.1271(3) 0.1217(2) -0.0925(2)
C21 C -0.2220(3) 0.1469(3) -0.1320(2)
C22 C -0.2753(4) 0.1042(4) -0.2291(2)
H25 H -0.3594 0.0552 -0.2388
H26 H -0.2278 0.0716 -0.2577
H27 H -0.2740 0.1576 -0.2549
C23 C -0.3371(4) 0.2444(4) -0.1027(3)
H28 H -0.4152 0.1868 -0.1332
H29 H -0.3097 0.2831 -0.1451
C24 C -0.3564(4) 0.3097(3) -0.0229(3)
H30 H -0.4264 0.3233 -0.0432
H31 H -0.3793 0.2710 0.0201
C25 C -0.2512(4) 0.4080(3) 0.0258(3)
H32 H -0.2279 0.4484 -0.0159
H33 H -0.2766 0.4448 0.0739
C26 C -0.0178(4) 0.5761(3) 0.1230(3)
H34 H -0.0628 0.5860 0.0735
H35 H 0.0695 0.6145 0.1295
H36 H -0.0421 0.5986 0.1780
C27 C -0.0451(3) 0.4684(3) 0.1051(2)
C28 C 0.0506(3) 0.4379(2) 0.1331(2)
C29 C 0.2081(3) 0.4168(2) 0.1552(2)
C30 C 0.3299(3) 0.4173(3) 0.1573(2)
C31 C 0.4394(4) 0.5130(3) 0.1770(3)
H37 H 0.4619 0.5237 0.1212
H38 H 0.5069 0.5105 0.2147
H39 H 0.4216 0.5679 0.2081
C32 C 0.4353(3) 0.3136(3) 0.1249(2)
H40 H 0.5028 0.3585 0.1763
H41 H 0.4597 0.3299 0.0706
C33 C 0.4131(3) 0.2067(4) 0.1173(3)
H42 H 0.3740 0.1873 0.1660
H43 H 0.4926 0.2029 0.1262
C34 C 0.3345(3) 0.1314(3) 0.0295(3)
H44 H 0.3726 0.1496 -0.0200
H45 H 0.3289 0.0645 0.0292
C35 C 0.1562(4) 0.0210(3) -0.1384(3)
H46 H 0.1481 -0.0431 -0.1300
H47 H 0.2378 0.0569 -0.1475
H48 H 0.0956 0.0094 -0.1906
C36 C 0.1367(3) 0.0811(2) -0.0585(2)
S1 S 0.15155(7) 0.08315(6) 0.35760(5)
C37 C 0.1568(3) 0.1319(2) 0.2746(2)
N21 N 0.1584(3) 0.1655(2) 0.21618(19)
S2 S 0.57661(8) 0.05521(6) 0.19826(6)
C38 C 0.6622(3) 0.1303(2) 0.1480(2)
N22 N 0.7243(3) 0.1846(2) 0.11486(19)
N22_2 N -0.2757(3) 0.1846(2) 0.11486(19)
Cu3_2 Cu 0.85285(3) 0.25763(3) 0.04791(2)
Cl1 Cl -0.27949(8) 0.66554(7) 0.10348(6)
O1 O -0.2549(3) 0.6332(3) 0.1782(2)
O2 O -0.1763(3) 0.6973(3) 0.0646(2)
O3 O -0.3723(3) 0.5797(3) 0.0373(2)
O4 O -0.3251(5) 0.7383(3) 0.1240(3)
Cl2 Cl 0.15661(9) 0.59320(7) 0.43194(6)
O5 O 0.2809(3) 0.6646(2) 0.4594(2)
O6 O 0.1314(3) 0.5354(2) 0.34128(18)
O7 O 0.0789(3) 0.6433(3) 0.4449(3)
O8 O 0.1378(3) 0.5263(2) 0.4855(2)
O9 O -0.0270(5) 0.8199(5) 0.2812(3)
H49 H -0.0888 0.7807 0.2411
H50 H -0.0054 0.8558 0.2470
O10 O 0.3446(5) 0.6821(3) 0.2837(3)
H51 H 0.3299 0.6611 0.3285
H52 H 0.2890 0.6958 0.2640
loop_
_geom_bond_atom_site_label_1
_geom_bond_atom_site_label_2
_geom_bond_site_symmetry_1
_geom_bond_site_symmetry_2
Cu1 N1 1_555 1_555
Cu2 N2 1_555 1_555
N1 N2 1_555 1_555
N2 C1 1_555 1_555
N3 C1 1_555 1_555
N4 Cu1 1_555 1_555
N5 Cu1 1_555 1_555
N6 Cu1 1_555 1_555
N7 Cu2 1_555 1_555
N8 C10 1_555 1_555
N9 Cu2 1_555 1_555
N10 Cu2 1_555 1_555
C1 C18 1_555 1_555
C2 N1 1_555 1_555
C3 N4 1_555 1_555
C4 C3 1_555 1_555
H1 C4 1_555 1_555
H2 C4 1_555 1_555
H3 C4 1_555 1_555
C5 N4 1_555 1_555
H4 C5 1_555 1_555
H5 C5 1_555 1_555
C6 C5 1_555 1_555
H6 C6 1_555 1_555
H7 C6 1_555 1_555
C7 N5 1_555 1_555
H8 C7 1_555 1_555
H9 C7 1_555 1_555
C8 H10 1_555 1_555
H11 C8 1_555 1_555
H12 C8 1_555 1_555
C9 N5 1_555 1_555
C10 N6 1_555 1_555
C11 N7 1_555 1_555
C12 N9 1_555 1_555
C13 C12 1_555 1_555
H13 C13 1_555 1_555
H14 C13 1_555 1_555
H15 C13 1_555 1_555
C14 N9 1_555 1_555
H16 C14 1_555 1_555
H17 C14 1_555 1_555
C15 C14 1_555 1_555
H18 C15 1_555 1_555
H19 C15 1_555 1_555
C16 N10 1_555 1_555
H20 C16 1_555 1_555
H21 C16 1_555 1_555
C17 H22 1_555 1_555
H23 C17 1_555 1_555
H24 C17 1_555 1_555
C18 N10 1_555 1_555
Cu3 N11 1_555 1_555
Cu4 N12 1_555 1_555
N11 N12 1_555 1_555
N12 C19 1_555 1_555
N13 C19 1_555 1_555
N14 Cu3 1_555 1_555
N15 Cu3 1_555 1_555
N16 Cu3 1_555 1_555
N17 Cu4 1_555 1_555
N18 C28 1_555 1_555
N19 Cu4 1_555 1_555
N20 Cu4 1_555 1_555
C19 C36 1_555 1_555
C20 N11 1_555 1_555
C21 N14 1_555 1_555
C22 C21 1_555 1_555
H25 C22 1_555 1_555
H26 C22 1_555 1_555
H27 C22 1_555 1_555
C23 N14 1_555 1_555
H28 C23 1_555 1_555
H29 C23 1_555 1_555
C24 C23 1_555 1_555
H30 C24 1_555 1_555
H31 C24 1_555 1_555
C25 N15 1_555 1_555
H32 C25 1_555 1_555
H33 C25 1_555 1_555
C26 H34 1_555 1_555
H35 C26 1_555 1_555
H36 C26 1_555 1_555
C27 N15 1_555 1_555
C28 N16 1_555 1_555
C29 N17 1_555 1_555
C30 N19 1_555 1_555
C31 C30 1_555 1_555
H37 C31 1_555 1_555
H38 C31 1_555 1_555
H39 C31 1_555 1_555
C32 N19 1_555 1_555
H40 C32 1_555 1_555
H41 C32 1_555 1_555
C33 C32 1_555 1_555
H42 C33 1_555 1_555
H43 C33 1_555 1_555
C34 N20 1_555 1_555
H44 C34 1_555 1_555
H45 C34 1_555 1_555
C35 H46 1_555 1_555
H47 C35 1_555 1_555
H48 C35 1_555 1_555
C36 N20 1_555 1_555
S1 Cu1 1_555 1_555
C37 S1 1_555 1_555
N21 Cu4 1_555 1_555
S2 Cu2 1_555 1_555
C38 S2 1_555 1_555
N22 C38 1_555 1_555
Cl1 O1 1_555 1_555
O2 Cl1 1_555 1_555
O3 Cl1 1_555 1_555
O4 Cl1 1_555 1_555
Cl2 O5 1_555 1_555
O6 Cl2 1_555 1_555
O7 Cl2 1_555 1_555
O8 Cl2 1_555 1_555
O9 H49 1_555 1_555
H50 O9 1_555 1_555
O10 H51 1_555 1_555
H52 O10 1_555 1_555
N22_2 Cu3 1_555 1_555
Cu3_2 N22 1_555 1_555
N3 C2 1_555 1_555
N6 N7 1_555 1_555
N8 C11 1_555 1_555
C2 C3 1_555 1_555
C6 C7 1_555 1_555
C8 C9 1_555 1_555
C9 C10 1_555 1_555
C11 C12 1_555 1_555
C15 C16 1_555 1_555
C17 C18 1_555 1_555
N13 C20 1_555 1_555
N16 N17 1_555 1_555
N18 C29 1_555 1_555
C20 C21 1_555 1_555
C24 C25 1_555 1_555
C26 C27 1_555 1_555
C27 C28 1_555 1_555
C29 C30 1_555 1_555
C33 C34 1_555 1_555
C35 C36 1_555 1_555
C37 N21 1_555 1_555

#END
