
#######################################################################
#
#                 Cambridge Crystallographic Data Centre
#                                CCDC 
#
#######################################################################
#
# If this CIF has been generated from an entry in the Cambridge 
# Structural Database, then it will include bibliographic, chemical, 
# crystal, experimental, refinement or atomic coordinate data resulting 
# from the CCDC's data processing and validation procedures.
#
#######################################################################

data_KAFLAF
_symmetry_cell_setting           monoclinic
_symmetry_space_group_name_H-M   'P 21/c'
_symmetry_Int_Tables_number      14
_space_group_name_Hall           '-P 2ybc'
loop_
_symmetry_equiv_pos_site_id
_symmetry_equiv_pos_as_xyz
1 x,y,z
2 -x,1/2+y,1/2-z
3 -x,-y,-z
4 x,1/2-y,1/2+z
_cell_length_a                   17.297(6)
_cell_length_b                   11.743(4)
_cell_length_c                   16.131(6)
_cell_angle_alpha                90
_cell_angle_beta                 112.506(5)
_cell_angle_gamma                90
_cell_volume                     3026.97
loop_
_atom_site_label
_atom_site_type_symbol
_atom_site_fract_x
_atom_site_fract_y
_atom_site_fract_z
Cu1 Cu 0.34071(2) 0.41716(3) 0.21332(3)
Cu2 Cu 0.32195(2) 0.72062(3) 0.32253(3)
N1 N 0.27068(16) 0.5524(2) 0.16666(17)
N2 N 0.26639(16) 0.6549(2) 0.20100(17)
N3 N 0.13814(17) 0.6137(2) 0.09739(18)
N4 N 0.24621(17) 0.3483(2) 0.10818(17)
N5 N 0.37543(17) 0.2731(2) 0.28335(18)
N6 N 0.39142(16) 0.4800(2) 0.33535(17)
N7 N 0.38136(16) 0.5789(2) 0.37134(17)
N8 N 0.40559(17) 0.4444(2) 0.47850(17)
N9 N 0.33211(17) 0.7330(2) 0.45191(18)
N10 N 0.21798(18) 0.8185(2) 0.27517(19)
C1 C 0.1863(2) 0.6890(3) 0.1588(2)
C2 C 0.1940(2) 0.5292(3) 0.1063(2)
C3 C 0.1824(2) 0.4123(3) 0.0697(2)
C4 C 0.1005(2) 0.3777(3) -0.0019(3)
H1 H 0.1108 0.3404 -0.0510
H2 H 0.0657 0.4454 -0.0248
H3 H 0.0716 0.3248 0.0235
C5 C 0.2470(2) 0.2266(3) 0.0859(2)
H4 H 0.2324 0.2185 0.0206
H5 H 0.2042 0.1858 0.1012
C6 C 0.3321(3) 0.1732(3) 0.1363(3)
H6 H 0.3746 0.2189 0.1239
H7 H 0.3321 0.0962 0.1112
C7 C 0.3601(2) 0.1618(3) 0.2377(2)
H8 H 0.3165 0.1206 0.2515
H9 H 0.4121 0.1160 0.2612
C8 C 0.4270(2) 0.1899(3) 0.4375(2)
H10 H 0.3766 0.1558 0.4409
H11 H 0.4621 0.2211 0.4963
H12 H 0.4585 0.1316 0.4201
C9 C 0.4027(2) 0.2830(3) 0.3696(2)
C10 C 0.40508(19) 0.4017(3) 0.3998(2)
C11 C 0.3895(2) 0.5546(3) 0.4563(2)
C12 C 0.3679(2) 0.6492(3) 0.5042(2)
C13 C 0.3855(2) 0.6413(3) 0.6027(2)
H13 H 0.4118 0.7120 0.6324
H14 H 0.4233 0.5771 0.6287
H15 H 0.3329 0.6295 0.6111
C14 C 0.2990(2) 0.8315(3) 0.4837(2)
H16 H 0.3407 0.8568 0.5423
H17 H 0.2476 0.8088 0.4926
C15 C 0.2792(2) 0.9288(3) 0.4176(3)
H18 H 0.3295 0.9438 0.4041
H19 H 0.2690 0.9976 0.4474
C16 C 0.2044(2) 0.9135(3) 0.3281(3)
H20 H 0.1533 0.8985 0.3401
H21 H 0.1954 0.9848 0.2929
C17 C 0.0813(2) 0.8508(3) 0.1486(3)
H22 H 0.0542 0.8675 0.1907
H23 H 0.0448 0.8017 0.1004
H24 H 0.0916 0.9221 0.1230
C18 C 0.1626(2) 0.7916(3) 0.1972(2)
N11 N 0.58296(19) 0.3304(2) 0.17935(19)
C19 C 0.5251(2) 0.3877(3) 0.1653(2)
S1 S 0.44417(6) 0.47451(8) 0.14207(6)
N11A N 0.41704(19) 0.8304(2) 0.32065(19)
Cu2A Cu 0.67805(2) 0.22062(3) 0.17747(3)
Cl1 Cl 0.16765(6) 0.26952(9) 0.29996(7)
O1 O 0.2038(2) 0.3726(3) 0.2851(3)
O2 O 0.2280(2) 0.2091(3) 0.3739(2)
O3 O 0.09478(17) 0.2931(3) 0.3194(2)
O4 O 0.1477(2) 0.1960(4) 0.2230(2)
N12 N 0.0931(2) 0.6153(3) 0.3751(2)
O5 O 0.1867(2) 0.5839(3) 0.5184(2)
C20 C 0.1575(3) 0.5624(4) 0.4364(4)
H25 H 0.1836 0.5033 0.4162
C21 C 0.0573(3) 0.5792(4) 0.2810(3)
H26 H 0.0925 0.5195 0.2711
H27 H 0.0549 0.6445 0.2422
H28 H 0.0007 0.5495 0.2667
C22 C 0.0491(3) 0.7052(5) 0.4011(4)
H29 H 0.0868 0.7398 0.4574
H30 H 0.0004 0.6731 0.4096
H31 H 0.0306 0.7634 0.3540
loop_
_geom_bond_atom_site_label_1
_geom_bond_atom_site_label_2
_geom_bond_site_symmetry_1
_geom_bond_site_symmetry_2
Cu1 N1 1_555 1_555
Cu2 N2 1_555 1_555
N1 N2 1_555 1_555
N2 C1 1_555 1_555
N3 C1 1_555 1_555
N4 Cu1 1_555 1_555
N5 Cu1 1_555 1_555
N6 Cu1 1_555 1_555
N7 Cu2 1_555 1_555
N8 C10 1_555 1_555
N9 Cu2 1_555 1_555
N10 Cu2 1_555 1_555
C1 C18 1_555 1_555
C2 N1 1_555 1_555
C3 N4 1_555 1_555
C4 C3 1_555 1_555
H1 C4 1_555 1_555
H2 C4 1_555 1_555
H3 C4 1_555 1_555
C5 N4 1_555 1_555
H4 C5 1_555 1_555
H5 C5 1_555 1_555
C6 C5 1_555 1_555
H6 C6 1_555 1_555
H7 C6 1_555 1_555
C7 N5 1_555 1_555
H8 C7 1_555 1_555
H9 C7 1_555 1_555
C8 H10 1_555 1_555
H11 C8 1_555 1_555
H12 C8 1_555 1_555
C9 N5 1_555 1_555
C10 N6 1_555 1_555
C11 N7 1_555 1_555
C12 N9 1_555 1_555
C13 C12 1_555 1_555
H13 C13 1_555 1_555
H14 C13 1_555 1_555
H15 C13 1_555 1_555
C14 N9 1_555 1_555
H16 C14 1_555 1_555
H17 C14 1_555 1_555
C15 C14 1_555 1_555
H18 C15 1_555 1_555
H19 C15 1_555 1_555
C16 N10 1_555 1_555
H20 C16 1_555 1_555
H21 C16 1_555 1_555
C17 H22 1_555 1_555
H23 C17 1_555 1_555
H24 C17 1_555 1_555
C18 N10 1_555 1_555
N11 C19 1_555 1_555
C19 S1 1_555 1_555
S1 Cu1 1_555 1_555
Cl1 O1 1_555 1_555
O2 Cl1 1_555 1_555
O3 Cl1 1_555 1_555
O4 Cl1 1_555 1_555
N12 C20 1_555 1_555
O5 C20 1_555 1_555
C20 H25 1_555 1_555
C21 N12 1_555 1_555
H26 C21 1_555 1_555
H27 C21 1_555 1_555
H28 C21 1_555 1_555
C22 N12 1_555 1_555
H29 C22 1_555 1_555
H30 C22 1_555 1_555
H31 C22 1_555 1_555
N11A Cu2 1_555 1_555
Cu2A N11 1_555 1_555
N3 C2 1_555 1_555
N6 N7 1_555 1_555
N8 C11 1_555 1_555
C2 C3 1_555 1_555
C6 C7 1_555 1_555
C8 C9 1_555 1_555
C9 C10 1_555 1_555
C11 C12 1_555 1_555
C15 C16 1_555 1_555
C17 C18 1_555 1_555

#END
