
#######################################################################
#
#                 Cambridge Crystallographic Data Centre
#                                CCDC 
#
#######################################################################
#
# If this CIF has been generated from an entry in the Cambridge 
# Structural Database, then it will include bibliographic, chemical, 
# crystal, experimental, refinement or atomic coordinate data resulting 
# from the CCDC's data processing and validation procedures.
#
#######################################################################

data_KAFPOX
_symmetry_cell_setting           triclinic
_symmetry_space_group_name_H-M   'P 1'
_symmetry_Int_Tables_number      1
_space_group_name_Hall           'P 1'
loop_
_symmetry_equiv_pos_site_id
_symmetry_equiv_pos_as_xyz
1 x,y,z
_cell_length_a                   11.6093(1)
_cell_length_b                   12.3864(1)
_cell_length_c                   15.6609(2)
_cell_angle_alpha                69.5758(4)
_cell_angle_beta                 73.7510(4)
_cell_angle_gamma                89.8430(10)
_cell_volume                     2014.82
loop_
_atom_site_label
_atom_site_type_symbol
_atom_site_fract_x
_atom_site_fract_y
_atom_site_fract_z
C1 C 0.9844(5) 1.8140(5) 0.0236(4)
C2 C 0.3758(5) 1.3098(5) 0.8261(4)
Cs1 Cs 0.98212(3) 1.75868(3) 0.38619(3)
Cs2 Cs 0.41734(5) 1.92949(4) 0.39375(4)
Na1 Na 1.3053(2) 1.3289(2) 0.43217(17)
Na2 Na 0.6663(3) 1.6149(3) 0.4173(2)
Cl1 Cl 0.6182(2) 1.9283(2) 0.4705(2)
S1 S 1.30066(14) 1.61557(13) 0.26046(11)
S2 S 0.71737(13) 1.86958(13) 0.22689(11)
S3 S 0.54032(13) 1.26620(12) 0.26600(11)
S4 S 1.16423(13) 1.04405(12) 0.22082(11)
S5 S 1.04694(13) 1.41624(12) 0.57091(11)
S6 S 0.44220(14) 1.63289(13) 0.62644(12)
S7 S 0.27430(13) 1.04784(12) 0.59712(10)
S8 S 0.87089(15) 0.78876(15) 0.62662(12)
N1 N 1.0109(6) 1.3967(6) 0.3634(4)
N2 N 0.6215(6) 1.1881(5) 0.4764(5)
C3 C 1.2690(5) 1.6290(5) 0.1542(4)
C4 C 1.2101(5) 1.7218(5) 0.1121(4)
H1 H 1.1856 1.7759 0.1424
C5 C 1.1865(5) 1.7367(5) 0.0271(4)
C6 C 1.2257(5) 1.6556(5) -0.0164(4)
C7 C 1.2843(5) 1.5609(5) 0.0258(4)
C8 C 1.3063(5) 1.5492(5) 0.1111(4)
H2 H 1.3469 1.4865 0.1399
C9 C 1.1217(5) 1.8401(5) -0.0155(4)
H3 H 1.1462 1.8623 -0.0857
H4 H 1.1468 1.9067 -0.0014
C10 C 0.9218(5) 1.8487(5) 0.0969(4)
H5 H 0.9640 1.8877 0.1235
C11 C 0.7970(5) 1.8266(5) 0.1317(4)
C12 C 0.7346(5) 1.7678(5) 0.0943(4)
H6 H 0.6491 1.7533 0.1187
C13 C 0.7960(5) 1.7299(5) 0.0211(4)
C14 C 0.9206(5) 1.7561(5) -0.0133(4)
C15 C 0.7265(5) 1.6584(5) -0.0141(5)
H7 H 0.6412 1.6750 0.0000
H8 H 0.7605 1.6824 -0.0842
C16 C 0.7313(5) 1.5292(5) 0.0313(4)
C17 C 0.6477(5) 1.4653(5) 0.1178(4)
H9 H 0.5848 1.5021 0.1467
C18 C 0.6550(5) 1.3492(5) 0.1623(4)
C19 C 0.7465(5) 1.2933(5) 0.1211(4)
H10 H 0.7513 1.2134 0.1531
C20 C 0.8303(5) 1.3534(5) 0.0340(4)
C21 C 0.8228(5) 1.4716(5) -0.0105(4)
C22 C 0.9272(5) 1.2880(5) -0.0114(4)
H11 H 0.8911 1.2092 0.0022
H12 H 0.9539 1.3288 -0.0815
C23 C 1.0355(5) 1.2784(5) 0.0253(4)
C24 C 1.0479(5) 1.1791(5) 0.0966(5)
H13 H 0.9879 1.1148 0.1228
C25 C 1.1478(5) 1.1724(5) 0.1304(4)
C26 C 1.2367(5) 1.2661(5) 0.0928(4)
H14 H 1.3039 1.2614 0.1168
C27 C 1.2270(5) 1.3669(5) 0.0199(4)
C28 C 1.1274(5) 1.3706(5) -0.0139(4)
C29 C 1.3214(5) 1.4709(5) -0.0190(4)
H15 H 1.3979 1.4437 -0.0076
H16 H 1.3364 1.5074 -0.0889
C30 C 0.9380(5) 1.3328(5) 0.6798(4)
C31 C 0.9469(5) 1.2139(5) 0.7192(4)
H17 H 1.0063 1.1776 0.6865
C32 C 0.8651(5) 1.1499(5) 0.8089(4)
C33 C 0.7797(5) 1.2059(5) 0.8552(4)
C34 C 0.7704(5) 1.3245(5) 0.8153(4)
C35 C 0.8517(5) 1.3870(5) 0.7260(4)
H18 H 0.8476 1.4676 0.6968
C36 C 0.6753(5) 1.3885(5) 0.8623(4)
H19 H 0.7113 1.4671 0.8493
H20 H 0.6490 1.3466 0.9323
C37 C 0.5647(5) 1.3984(5) 0.8248(4)
C38 C 0.5540(5) 1.4993(5) 0.7543(4)
H21 H 0.6131 1.5641 0.7301
C39 C 0.4546(5) 1.5050(5) 0.7190(4)
C40 C 0.3681(5) 1.4110(5) 0.7534(4)
H22 H 0.3030 1.4157 0.7270
C41 C 0.4758(5) 1.3059(5) 0.8620(4)
C42 C 0.2798(5) 1.2073(5) 0.8651(4)
H23 H 0.2643 1.1711 0.9350
H24 H 0.2038 1.2359 0.8534
C43 C 0.3141(5) 1.1160(5) 0.8212(4)
C44 C 0.2858(5) 1.1224(5) 0.7378(4)
H25 H 0.2445 1.1843 0.7086
C45 C 0.3183(5) 1.0384(5) 0.6985(4)
C46 C 0.3798(5) 0.9473(5) 0.7389(4)
H26 H 0.4024 0.8917 0.7098
C47 C 0.4086(5) 0.9371(5) 0.8220(4)
C48 C 0.3730(5) 1.0206(5) 0.8630(4)
C49 C 0.4734(5) 0.8364(5) 0.8655(4)
H27 H 0.4460 0.7674 0.8555
H28 H 0.4521 0.8184 0.9352
C50 C 0.6111(5) 0.8616(5) 0.8223(4)
C51 C 0.6703(5) 0.8235(4) 0.7509(4)
H29 H 0.6262 0.7810 0.7280
C52 C 0.7953(5) 0.8472(5) 0.7118(4)
C53 C 0.8610(5) 0.9109(5) 0.7441(4)
H30 H 0.9460 0.9273 0.7164
C54 C 0.8021(5) 0.9505(4) 0.8171(4)
C55 C 0.6766(5) 0.9229(5) 0.8569(4)
C56 C 0.8721(5) 1.0199(5) 0.8527(4)
H31 H 0.9577 1.0044 0.8370
H32 H 0.8396 0.9943 0.9230
C57 C 0.8781(6) 1.5150(6) 0.2854(5)
C58 C 0.9793(6) 1.4396(7) 0.2725(5)
H33 H 1.0509 1.4897 0.2214
C59 C 0.9505(7) 1.3429(6) 0.2441(5)
H34 H 0.9363 1.3738 0.1809
H35 H 1.0187 1.2949 0.2399
C60 C 0.6324(6) 1.3310(6) 0.5477(5)
C61 C 0.6215(7) 1.1993(7) 0.5661(6)
H36 H 0.5443 1.1607 0.6166
C62 C 0.7263(7) 1.1456(6) 0.5965(5)
H37 H 0.7222 1.1476 0.6599
H38 H 0.7233 1.0636 0.6016
O1 O 1.1990(8) 1.6539(10) 0.3146(5)
O2 O 1.3141(7) 1.4968(5) 0.3064(4)
O3 O 1.4109(6) 1.6890(5) 0.2331(4)
O4 O 0.7625(5) 1.8052(5) 0.3053(3)
O5 O 0.5891(4) 1.8335(4) 0.2482(4)
O6 O 0.7434(4) 1.9959(4) 0.1921(4)
O7 O 0.5872(5) 1.1586(4) 0.3079(4)
O8 O 0.5110(4) 1.3344(4) 0.3277(3)
O9 O 0.4400(5) 1.2470(5) 0.2328(4)
O10 O 1.0519(4) 1.0172(4) 0.2988(4)
O11 O 1.2682(4) 1.0667(4) 0.2491(3)
O12 O 1.1825(5) 0.9540(4) 0.1787(4)
O13 O 1.2120(4) 1.6679(4) -0.1034(3)
O14 O 0.9854(4) 1.7277(4) -0.0895(3)
O15 O 0.8970(4) 1.5360(4) -0.0995(3)
O16 O 1.1164(4) 1.4639(4) -0.0884(3)
O17 O 0.9797(4) 1.4976(4) 0.5138(3)
O18 O 1.1023(4) 1.3372(4) 0.5252(3)
O19 O 1.1327(5) 1.4763(5) 0.5957(4)
O20 O 0.5047(7) 1.6230(6) 0.5392(4)
O21 O 0.4822(11) 1.7269(5) 0.6457(6)
O22 O 0.3163(6) 1.6293(6) 0.6330(6)
O23 O 0.3507(5) 1.1416(5) 0.5175(3)
O24 O 0.2905(6) 0.9360(5) 0.5875(4)
O25 O 0.1469(5) 1.0670(6) 0.6202(4)
O26 O 0.8112(12) 0.8277(16) 0.5497(9)
O27 O 0.9884(7) 0.8393(7) 0.5851(7)
O28 O 0.8453(10) 0.6733(7) 0.6642(8)
O29 O 0.7056(4) 1.1395(3) 0.9452(3)
O30 O 0.4869(4) 1.2124(3) 0.9371(3)
O31 O 0.3895(4) 1.0106(4) 0.9490(3)
O32 O 0.6132(4) 0.9500(4) 0.9332(3)
O33 O 0.8587(5) 1.5591(5) 0.3446(4)
O34 O 0.8176(5) 1.5308(5) 0.2229(4)
O35 O 0.8471(5) 1.2763(5) 0.3131(4)
O36 O 0.6376(5) 1.4016(4) 0.4727(4)
O37 O 0.6399(5) 1.3478(5) 0.6238(4)
O38 O 0.8370(5) 1.2085(5) 0.5276(4)
O39 O 0.7538(5) 1.5645(5) 0.5455(4)
O40 O 1.2375(8) 1.7276(6) 0.4613(6)
O41 O 1.3684(6) 1.4171(6) 0.5248(5)
O42 O 1.2008(4) 1.2539(4) 0.3453(3)
O43 O 0.5948(5) 1.5706(5) 0.3040(4)
O10_2 O 1.0519(4) 2.0172(4) 0.2988(4)
O26_2 O 0.8112(12) 1.8277(16) 0.5497(9)
O7_2 O 0.5872(5) 2.1586(4) 0.3079(4)
O11_2 O 0.2682(4) 2.0667(4) 0.2491(3)
O24_2 O 0.2905(6) 1.9360(5) 0.5875(4)
O40_2 O 0.2375(8) 1.7276(6) 0.4613(6)
O8_2 O 1.5110(4) 1.3344(4) 0.3277(3)
O23_2 O 1.3507(5) 1.1416(5) 0.5175(3)
Cs2_2 Cs 0.41734(5) 0.92949(4) 0.39375(4)
Na1_2 Na 0.3053(2) 1.3289(2) 0.43217(17)
Cs1_2 Cs 0.98212(3) 0.75868(3) 0.38619(3)
Cs2_3 Cs 1.41734(5) 0.92949(4) 0.39375(4)
Cs2_4 Cs 1.41734(5) 1.92949(4) 0.39375(4)
O44 O 0.0540(8) 1.5879(7) 0.7145(6)
O45 O 0.8176(5) 1.0536(5) 0.3354(4)
O46 O 0.1662(7) 0.7501(6) 0.7071(5)
O47 O 0.0271(4) 1.0894(4) 0.4894(4)
O48 O 0.5326(4) 2.0806(4) 0.1409(4)
O49 O 0.4108(4) 0.9154(4) 0.1419(3)
loop_
_geom_bond_atom_site_label_1
_geom_bond_atom_site_label_2
_geom_bond_site_symmetry_1
_geom_bond_site_symmetry_2
C1 C9 1_555 1_555
C2 C40 1_555 1_555
Cs1 O1 1_555 1_555
Cs2 Cl1 1_555 1_555
Na1 O2 1_555 1_555
Na2 O4 1_555 1_555
S1 C3 1_555 1_555
S2 C11 1_555 1_555
S3 C18 1_555 1_555
S4 C25 1_555 1_555
S5 C30 1_555 1_555
S6 C39 1_555 1_555
S7 C45 1_555 1_555
S8 C52 1_555 1_555
N1 C58 1_555 1_555
N2 C61 1_555 1_555
C3 C4 1_555 1_555
C4 H1 1_555 1_555
C5 C4 1_555 1_555
C6 C5 1_555 1_555
C7 C6 1_555 1_555
C8 C3 1_555 1_555
H2 C8 1_555 1_555
C9 C5 1_555 1_555
H3 C9 1_555 1_555
H4 C9 1_555 1_555
C10 C1 1_555 1_555
H5 C10 1_555 1_555
C11 C10 1_555 1_555
C12 C11 1_555 1_555
H6 C12 1_555 1_555
C13 C12 1_555 1_555
C14 C1 1_555 1_555
C15 C13 1_555 1_555
H7 C15 1_555 1_555
H8 C15 1_555 1_555
C16 C15 1_555 1_555
C17 C16 1_555 1_555
H9 C17 1_555 1_555
C18 C17 1_555 1_555
C19 C18 1_555 1_555
H10 C19 1_555 1_555
C20 C19 1_555 1_555
C21 C16 1_555 1_555
C22 C20 1_555 1_555
H11 C22 1_555 1_555
H12 C22 1_555 1_555
C23 C22 1_555 1_555
C24 C23 1_555 1_555
H13 C24 1_555 1_555
C25 C24 1_555 1_555
C26 C25 1_555 1_555
H14 C26 1_555 1_555
C27 C26 1_555 1_555
C28 C23 1_555 1_555
C29 C7 1_555 1_555
H15 C29 1_555 1_555
H16 C29 1_555 1_555
C30 C31 1_555 1_555
C31 H17 1_555 1_555
C32 C31 1_555 1_555
C33 C32 1_555 1_555
C34 C33 1_555 1_555
C35 C30 1_555 1_555
H18 C35 1_555 1_555
C36 C34 1_555 1_555
H19 C36 1_555 1_555
H20 C36 1_555 1_555
C37 C36 1_555 1_555
C38 C37 1_555 1_555
H21 C38 1_555 1_555
C39 C38 1_555 1_555
C40 C39 1_555 1_555
H22 C40 1_555 1_555
C41 C2 1_555 1_555
C42 C2 1_555 1_555
H23 C42 1_555 1_555
H24 C42 1_555 1_555
C43 C42 1_555 1_555
C44 C43 1_555 1_555
H25 C44 1_555 1_555
C45 C44 1_555 1_555
C46 C45 1_555 1_555
H26 C46 1_555 1_555
C47 C46 1_555 1_555
C48 C43 1_555 1_555
C49 C47 1_555 1_555
H27 C49 1_555 1_555
H28 C49 1_555 1_555
C50 C49 1_555 1_555
C51 C50 1_555 1_555
H29 C51 1_555 1_555
C52 C51 1_555 1_555
C53 C52 1_555 1_555
H30 C53 1_555 1_555
C54 C53 1_555 1_555
C55 C50 1_555 1_555
C56 C32 1_555 1_555
H31 C56 1_555 1_555
H32 C56 1_555 1_555
C57 C58 1_555 1_555
C58 H33 1_555 1_555
C59 C58 1_555 1_555
H34 C59 1_555 1_555
H35 C59 1_555 1_555
C60 C61 1_555 1_555
C61 H36 1_555 1_555
C62 C61 1_555 1_555
H37 C62 1_555 1_555
H38 C62 1_555 1_555
O1 S1 1_555 1_555
O2 S1 1_555 1_555
O3 S1 1_555 1_555
O4 Cs1 1_555 1_555
O5 Cs2 1_555 1_555
O6 S2 1_555 1_555
O7 S3 1_555 1_555
O8 S3 1_555 1_555
O9 S3 1_555 1_555
O10 S4 1_555 1_555
O11 S4 1_555 1_555
O12 S4 1_555 1_555
O13 C6 1_555 1_555
O14 C14 1_555 1_555
O15 C21 1_555 1_555
O16 C28 1_555 1_555
O17 Cs1 1_555 1_555
O18 Na1 1_555 1_555
O19 S5 1_555 1_555
O20 Na2 1_555 1_555
O21 S6 1_555 1_555
O22 S6 1_555 1_555
O23 S7 1_555 1_555
O24 S7 1_555 1_555
O25 S7 1_555 1_555
O26 S8 1_555 1_555
O27 S8 1_555 1_555
O28 S8 1_555 1_555
O29 C33 1_555 1_555
O30 C41 1_555 1_555
O31 C48 1_555 1_555
O32 C55 1_555 1_555
O33 Cs1 1_555 1_555
O34 C57 1_555 1_555
O35 C59 1_555 1_555
O36 Na2 1_555 1_555
O37 C60 1_555 1_555
O38 C62 1_555 1_555
O39 Cs1 1_555 1_555
O40 Cs1 1_555 1_555
O41 Na1 1_555 1_555
O42 Na1 1_555 1_555
O43 Na2 1_555 1_555
O10_2 Cs1 1_555 1_555
O26_2 Cs1 1_555 1_555
O7_2 Cs2 1_555 1_555
O11_2 Cs2 1_555 1_555
O24_2 Cs2 1_555 1_555
O40_2 Cs2 1_555 1_555
O8_2 Na1 1_555 1_555
O23_2 Na1 1_555 1_555
Cs2_2 O7 1_555 1_555
Na1_2 O8 1_555 1_555
Cs1_2 O10 1_555 1_555
Cs2_3 O11 1_555 1_555
Cs2_4 O40 1_555 1_555
Na2 O33 1_555 1_555
Na2 O39 1_555 1_555
S2 O4 1_555 1_555
S2 O5 1_555 1_555
S5 O17 1_555 1_555
S5 O18 1_555 1_555
S6 O20 1_555 1_555
C7 C8 1_555 1_555
C13 C14 1_555 1_555
C20 C21 1_555 1_555
C27 C29 1_555 1_555
C27 C28 1_555 1_555
C34 C35 1_555 1_555
C37 C41 1_555 1_555
C47 C48 1_555 1_555
C54 C56 1_555 1_555
C54 C55 1_555 1_555
C57 O33 1_555 1_555
C60 O36 1_555 1_555
O23 Na1_2 1_555 1_555
O24 Cs2_2 1_555 1_555
O26 Cs1_2 1_555 1_555

#END
