
#######################################################################
#
#                 Cambridge Crystallographic Data Centre
#                                CCDC 
#
#######################################################################
#
# If this CIF has been generated from an entry in the Cambridge 
# Structural Database, then it will include bibliographic, chemical, 
# crystal, experimental, refinement or atomic coordinate data resulting 
# from the CCDC's data processing and validation procedures.
#
#######################################################################

data_KAGHAB
_symmetry_cell_setting           monoclinic
_symmetry_space_group_name_H-M   'P 21/c'
_symmetry_Int_Tables_number      14
_space_group_name_Hall           '-P 2ybc'
loop_
_symmetry_equiv_pos_site_id
_symmetry_equiv_pos_as_xyz
1 x,y,z
2 -x,1/2+y,1/2-z
3 -x,-y,-z
4 x,1/2-y,1/2+z
_cell_length_a                   13.958(2)
_cell_length_b                   5.759(1)
_cell_length_c                   11.466(2)
_cell_angle_alpha                90
_cell_angle_beta                 99.24(1)
_cell_angle_gamma                90
_cell_volume                     909.725
loop_
_atom_site_label
_atom_site_type_symbol
_atom_site_fract_x
_atom_site_fract_y
_atom_site_fract_z
Cd1 Cd 0.00000 0.00000 0.00000
S1 S -0.13693(10) -0.24140(28) 0.09924(11)
N1 N 0.0367(4) 0.2288(8) 0.1699(3)
N2 N 0.1179(3) -0.2560(8) 0.0896(4)
C1 C -0.0778(4) -0.2598(8) 0.2343(4)
C2 C 0.2186(4) -0.1687(11) 0.1143(6)
C3 C 0.2885(4) -0.3324(10) 0.1874(5)
C4 C 0.3182(4) -0.2871(13) 0.3076(5)
C5 C 0.3832(5) -0.4376(17) 0.3749(7)
C6 C 0.4164(5) -0.6325(15) 0.3232(8)
C7 C 0.3883(5) -0.6761(13) 0.2041(8)
C8 C 0.3242(5) -0.5253(11) 0.1352(7)
S1B S 0.13693(10) 0.24140(28) -0.09924(11)
N1B N -0.0367(4) -0.2288(8) -0.1699(3)
N2B N -0.1179(3) 0.2560(8) -0.0896(4)
C1A C 0.0778(4) 0.2402(8) 0.2657(4)
N1A N -0.0367(4) -0.2712(8) 0.3301(3)
C1B C 0.0778(4) 0.2598(8) -0.2343(4)
C1C C -0.0778(4) -0.2402(8) -0.2657(4)
C2B C -0.2186(4) 0.1687(11) -0.1143(6)
S1A S 0.13693(10) 0.25860(28) 0.40076(11)
Cd1A Cd 0.00000 -0.50000 0.50000
N1C N 0.0367(4) 0.2712(8) -0.3301(3)
S1C S -0.13693(10) -0.25860(28) -0.40076(11)
C3B C -0.2885(4) 0.3324(10) -0.1874(5)
Cd1A_2 Cd 0.00000 0.50000 0.50000
S1A_2 S 0.13693(10) -0.74140(28) 0.40076(11)
S1C_2 S -0.13693(10) -0.25860(28) 0.59924(11)
N1C_2 N 0.0367(4) -0.7288(8) 0.6699(3)
N2A N -0.1179(3) -0.7560(8) 0.4104(4)
N2C N 0.1179(3) -0.2440(8) 0.5896(4)
Cd1A_3 Cd 0.00000 0.50000 -0.50000
Cd1A_4 Cd 0.00000 -0.50000 -0.50000
C4B C -0.3182(4) 0.2871(13) -0.3076(5)
C8B C -0.3242(5) 0.5253(11) -0.1352(7)
C2A C -0.2186(4) -0.6687(11) 0.3857(6)
C2C C 0.2186(4) -0.3313(11) 0.6143(6)
C5B C -0.3832(5) 0.4376(17) -0.3749(7)
C7B C -0.3883(5) 0.6761(13) -0.2041(8)
C3A C -0.2885(4) -0.8324(10) 0.3126(5)
C3C C 0.2885(4) -0.1676(10) 0.6874(5)
C6B C -0.4164(5) 0.6325(15) -0.3232(8)
C4A C -0.3182(4) -0.7871(13) 0.1924(5)
C8A C -0.3242(5) -1.0253(11) 0.3648(7)
C4C C 0.3182(4) -0.2129(13) 0.8076(5)
C8C C 0.3242(5) 0.0253(11) 0.6352(7)
C5A C -0.3832(5) -0.9376(17) 0.1251(7)
C7A C -0.3883(5) -1.1761(13) 0.2959(8)
C5C C 0.3832(5) -0.0624(17) 0.8749(7)
C7C C 0.3883(5) 0.1761(13) 0.7041(8)
C6A C -0.4164(5) -1.1325(15) 0.1768(8)
C6C C 0.4164(5) 0.1325(15) 0.8232(8)
loop_
_geom_bond_atom_site_label_1
_geom_bond_atom_site_label_2
_geom_bond_site_symmetry_1
_geom_bond_site_symmetry_2
Cd1 S1 1_555 1_555
S1 C1 1_555 1_555
N1 Cd1 1_555 1_555
N2 Cd1 1_555 1_555
C1 N1A 1_555 1_555
C2 N2 1_555 1_555
C3 C2 1_555 1_555
C4 C3 1_555 1_555
C5 C4 1_555 1_555
C6 C5 1_555 1_555
C7 C6 1_555 1_555
C8 C3 1_555 1_555
S1B Cd1 1_555 1_555
N1B Cd1 1_555 1_555
N2B Cd1 1_555 1_555
C1A N1 1_555 1_555
N1A Cd1A 1_555 1_555
C1B S1B 1_555 1_555
C1C N1B 1_555 1_555
C2B N2B 1_555 1_555
S1A C1A 1_555 1_555
Cd1A S1A_2 1_555 1_555
N1C C1B 1_555 1_555
S1C C1C 1_555 1_555
C3B C2B 1_555 1_555
Cd1A_2 S1A 1_555 1_555
S1C_2 Cd1A 1_555 1_555
N1C_2 Cd1A 1_555 1_555
N2A Cd1A 1_555 1_555
N2C Cd1A 1_555 1_555
Cd1A_3 N1C 1_555 1_555
Cd1A_4 S1C 1_555 1_555
C4B C3B 1_555 1_555
C8B C3B 1_555 1_555
C2A N2A 1_555 1_555
C2C N2C 1_555 1_555
C5B C4B 1_555 1_555
C7B C8B 1_555 1_555
C3A C2A 1_555 1_555
C3C C2C 1_555 1_555
C6B C5B 1_555 1_555
C4A C3A 1_555 1_555
C8A C3A 1_555 1_555
C4C C3C 1_555 1_555
C8C C3C 1_555 1_555
C5A C4A 1_555 1_555
C7A C8A 1_555 1_555
C5C C4C 1_555 1_555
C7C C8C 1_555 1_555
C6A C5A 1_555 1_555
C6C C5C 1_555 1_555
C7 C8 1_555 1_555
C7B C6B 1_555 1_555
C7A C6A 1_555 1_555
C7C C6C 1_555 1_555

#END
