
#######################################################################
#
#                 Cambridge Crystallographic Data Centre
#                                CCDC 
#
#######################################################################
#
# If this CIF has been generated from an entry in the Cambridge 
# Structural Database, then it will include bibliographic, chemical, 
# crystal, experimental, refinement or atomic coordinate data resulting 
# from the CCDC's data processing and validation procedures.
#
#######################################################################

data_KAGQEP
_symmetry_cell_setting           monoclinic
_symmetry_space_group_name_H-M   'P 21'
_symmetry_Int_Tables_number      4
_space_group_name_Hall           'P 2yb'
loop_
_symmetry_equiv_pos_site_id
_symmetry_equiv_pos_as_xyz
1 x,y,z
2 -x,1/2+y,-z
_cell_length_a                   11.134(2)
_cell_length_b                   8.379(2)
_cell_length_c                   11.265(2)
_cell_angle_alpha                90
_cell_angle_beta                 115.39(3)
_cell_angle_gamma                90
_cell_volume                     949.423
loop_
_atom_site_label
_atom_site_type_symbol
_atom_site_fract_x
_atom_site_fract_y
_atom_site_fract_z
Ni1 Ni 0.85558(7) 0.50005(9) 0.91180(6)
O1 O 0.8954(5) 0.7404(6) 0.9307(4)
O2 O 0.9420(4) 0.9772(6) 1.0274(4)
O3 O 0.5322(6) 0.7523(8) 0.7245(5)
O4 O 0.6542(4) 0.5418(5) 0.8217(4)
O5 O 0.8144(5) 0.2564(6) 0.8959(4)
N1 N 0.8702(5) 0.4862(9) 1.1030(4)
N2 N 0.8460(4) 0.5120(10) 1.7206(4)
C1 C 0.8712(6) 0.8514(8) 0.9919(5)
C2 C 0.7571(6) 0.8385(8) 1.0286(6)
C3 C 0.7726(7) 0.9090(10) 1.1465(7)
C4 C 0.6773(8) 0.8890(10) 1.1949(7)
C5 C 0.5662(8) 0.8050(10) 1.1237(7)
C6 C 0.5455(6) 0.7411(9) 1.0045(7)
C7 C 0.6413(6) 0.7576(8) 0.9560(6)
C8 C 0.6107(6) 0.6764(9) 0.8250(6)
C9 C 0.7668(7) 0.4320(10) 1.1187(6)
C10 C 0.7576(6) 0.4350(10) 1.2374(6)
C11 C 0.8640(5) 0.4960(10) 1.3483(5)
C12 C 0.9754(6) 0.5424(9) 1.3329(6)
C13 C 0.9739(6) 0.5369(7) 1.2110(5)
C14 C 0.7780(7) 0.4040(10) 1.6307(6)
C15 C 0.7801(8) 0.3950(10) 1.5076(7)
C16 C 0.8569(5) 0.5040(10) 1.4766(5)
C17 C 0.9257(7) 0.6150(10) 1.5707(6)
C18 C 0.9177(7) 0.6158(9) 1.6887(6)
H1 H 0.8547 0.1888 0.9573
H2 H 0.7415 0.2151 0.8415
H9 H 0.8477 0.9701 1.1937
H10 H 0.6902 0.9328 1.2753
H11 H 0.5029 0.7894 1.1560
H12 H 0.4670 0.6866 0.9553
H13 H 0.6959 0.3901 1.0459
H14 H 0.6819 0.3968 1.2433
H15 H 1.0509 0.5771 1.4049
H16 H 1.0495 0.5703 1.2026
H17 H 0.7268 0.3300 1.6505
H18 H 0.7305 0.3180 1.4471
H19 H 0.9781 0.6902 1.5543
H20 H 0.9650 0.6934 1.7499
O2A O 1.0580(4) 0.4772(6) 0.9726(4)
N2_2 N 0.8460(4) 0.5120(10) 0.7206(4)
Ni1A Ni 1.14442(7) 1.00005(9) 1.08820(6)
Ni1_2 Ni 0.85558(7) 0.50005(9) 1.91180(6)
O6 O 0.6123(8) 0.0756(9) 0.7096(7)
H3 H 0.5570 0.1183 0.7397
H4 H 0.6176 -0.0226 0.7348
O7 O 0.6330(10) 0.049(2) 0.4750(10)
H5 H 0.6102 -0.0525 0.4557
H6 H 0.7171 0.0422 0.5287
O8 O 0.4120(10) 0.240(2) 0.5160(10)
H7 H 0.4917 0.2320 0.5152
H8 H 0.3660 0.1618 0.4628
loop_
_geom_bond_atom_site_label_1
_geom_bond_atom_site_label_2
_geom_bond_site_symmetry_1
_geom_bond_site_symmetry_2
Ni1 O1 1_555 1_555
O1 C1 1_555 1_555
O2 C1 1_555 1_555
O3 C8 1_555 1_555
O4 Ni1 1_555 1_555
O5 Ni1 1_555 1_555
O6 H3 1_555 1_555
O7 H5 1_555 1_555
O8 H7 1_555 1_555
N1 Ni1 1_555 1_555
N2 C14 1_555 1_555
C1 C2 1_555 1_555
C2 C3 1_555 1_555
C3 C4 1_555 1_555
C4 C5 1_555 1_555
C5 C6 1_555 1_555
C6 C7 1_555 1_555
C7 C2 1_555 1_555
C8 O4 1_555 1_555
C9 N1 1_555 1_555
C10 C9 1_555 1_555
C11 C10 1_555 1_555
C12 C11 1_555 1_555
C13 N1 1_555 1_555
C14 C15 1_555 1_555
C15 C16 1_555 1_555
C16 C11 1_555 1_555
C17 C16 1_555 1_555
C18 N2 1_555 1_555
H1 O5 1_555 1_555
H2 O5 1_555 1_555
H4 O6 1_555 1_555
H6 O7 1_555 1_555
H8 O8 1_555 1_555
H9 C3 1_555 1_555
H10 C4 1_555 1_555
H11 C5 1_555 1_555
H12 C6 1_555 1_555
H13 C9 1_555 1_555
H14 C10 1_555 1_555
H15 C12 1_555 1_555
H16 C13 1_555 1_555
H17 C14 1_555 1_555
H18 C15 1_555 1_555
H19 C17 1_555 1_555
H20 C18 1_555 1_555
O2A Ni1 1_555 1_555
N2_2 Ni1 1_555 1_555
Ni1A O2 1_555 1_555
Ni1_2 N2 1_555 1_555
C7 C8 1_555 1_555
C12 C13 1_555 1_555
C17 C18 1_555 1_555

#END
