
#######################################################################
#
#                 Cambridge Crystallographic Data Centre
#                                CCDC 
#
#######################################################################
#
# If this CIF has been generated from an entry in the Cambridge 
# Structural Database, then it will include bibliographic, chemical, 
# crystal, experimental, refinement or atomic coordinate data resulting 
# from the CCDC's data processing and validation procedures.
#
#######################################################################

data_KAGZAV
_symmetry_cell_setting           monoclinic
_symmetry_space_group_name_H-M   'P 21/n'
_symmetry_Int_Tables_number      14
_space_group_name_Hall           '-P 2yn'
loop_
_symmetry_equiv_pos_site_id
_symmetry_equiv_pos_as_xyz
1 x,y,z
2 1/2-x,1/2+y,1/2-z
3 -x,-y,-z
4 1/2+x,1/2-y,1/2+z
_cell_length_a                   9.863(2)
_cell_length_b                   11.461(2)
_cell_length_c                   24.783(5)
_cell_angle_alpha                90
_cell_angle_beta                 94.32(3)
_cell_angle_gamma                90
_cell_volume                     2793.51
loop_
_atom_site_label
_atom_site_type_symbol
_atom_site_fract_x
_atom_site_fract_y
_atom_site_fract_z
Sm1 Sm 0.64210(3) 0.51591(3) 0.238995(12)
Sm2 Sm 0.35979(3) 0.73274(3) 0.254906(13)
O1 O 0.3904(6) 0.9209(4) 0.2131(2)
O2 O 0.8504(5) 0.6226(5) 0.2646(2)
H1 H 0.911(7) 0.606(7) 0.290(3)
H2 H 0.861(9) 0.692(3) 0.254(4)
O3 O 0.5005(6) 1.0120(5) 0.1504(2)
O4 O 0.1560(5) 0.6197(5) 0.2257(2)
H3 H 0.093(6) 0.652(8) 0.206(3)
H4 H 0.123(8) 0.572(8) 0.247(3)
O5 O 0.1792(6) 0.8584(5) 0.2810(2)
O6 O 0.0040(5) 0.9094(5) 0.3279(2)
O7 O 0.6135(6) 0.3308(4) 0.2850(2)
O8 O 0.5115(6) 0.2440(5) 0.3516(2)
O9 O 0.8185(6) 0.3834(5) 0.2149(2)
O10 O 1.0035(6) 0.3354(5) 0.1731(2)
O11 O 0.4319(5) 0.5488(4) 0.2739(2)
H5 H 0.377(8) 0.491(6) 0.271(4)
O12 O 0.5716(5) 0.7019(4) 0.2199(2)
H6 H 0.630(7) 0.755(6) 0.228(4)
N1 N 0.3229(7) 0.7438(6) 0.1477(3)
N2 N 0.3896(8) 0.7362(6) 0.0407(3)
N3 N 0.5112(9) 0.9070(7) 0.0525(3)
H7 H 0.5343 0.9004 0.0198
H8 H 0.5394 0.9655 0.0720
N4 N 0.2569(6) 0.6928(5) 0.3496(2)
N5 N 0.1498(7) 0.6686(6) 0.4494(2)
N6 N -0.0034(8) 0.8170(7) 0.4291(3)
H9 H -0.0341 0.8066 0.4604
H10 H -0.0383 0.8698 0.4077
N7 N 0.6800(6) 0.5153(5) 0.3453(2)
N8 N 0.6169(8) 0.5367(6) 0.4523(3)
N9 N 0.5109(9) 0.3574(6) 0.4483(3)
H11 H 0.4907 0.3674 0.4811
H12 H 0.4863 0.2946 0.4312
N10 N 0.7456(6) 0.5434(5) 0.1422(2)
N11 N 0.8593(8) 0.5573(7) 0.0430(3)
N12 N 1.0139(9) 0.4150(8) 0.0691(3)
H13 H 1.0456 0.4212 0.0379
H14 H 1.0493 0.3657 0.0923
C1 C 0.2840(9) 0.6549(7) 0.1155(3)
H15 H 0.2342 0.5939 0.1289
C2 C 0.3170(10) 0.6529(8) 0.0622(3)
H16 H 0.2872 0.5904 0.0405
C3 C 0.4315(8) 0.8266(7) 0.0728(3)
C4 C 0.3930(7) 0.8314(6) 0.1274(3)
C5 C 0.4326(7) 0.9295(6) 0.1660(3)
C6 C 0.3032(8) 0.6126(7) 0.3844(3)
H17 H 0.3722 0.5627 0.3752
C7 C 0.2504(9) 0.6019(7) 0.4344(3)
H18 H 0.2869 0.5457 0.4584
C8 C 0.0988(8) 0.7508(7) 0.4139(3)
C9 C 0.1558(7) 0.7628(6) 0.3631(3)
C10 C 0.1089(7) 0.8511(6) 0.3210(3)
C11 C 0.7156(8) 0.6109(7) 0.3745(3)
H19 H 0.7617 0.6712 0.3587
C12 C 0.6845(9) 0.6202(7) 0.4276(3)
H20 H 0.7113 0.6869 0.4469
C13 C 0.5813(8) 0.4404(7) 0.4235(3)
C14 C 0.6160(7) 0.4289(6) 0.3688(3)
C15 C 0.5763(7) 0.3256(6) 0.3328(3)
C16 C 0.7002(8) 0.6201(7) 0.1048(3)
H21 H 0.6300 0.6706 0.1119
C17 C 0.7565(9) 0.6254(8) 0.0553(3)
H22 H 0.7211 0.6786 0.0297
C18 C 0.9094(8) 0.4820(7) 0.0818(3)
C19 C 0.8492(7) 0.4746(6) 0.1316(3)
C20 C 0.8939(7) 0.3921(6) 0.1763(3)
Sm1A Sm -0.14210(3) 1.01591(3) 0.261005(12)
Sm2A Sm 1.14021(3) 0.23274(3) 0.245094(13)
O6A O 0.4960(5) 0.4094(5) 0.1721(2)
O10A O 0.4965(6) 0.8354(5) 0.3269(2)
loop_
_geom_bond_atom_site_label_1
_geom_bond_atom_site_label_2
_geom_bond_site_symmetry_1
_geom_bond_site_symmetry_2
Sm1 O2 1_555 1_555
Sm2 O1 1_555 1_555
O1 C5 1_555 1_555
O2 H1 1_555 1_555
H2 O2 1_555 1_555
O3 C5 1_555 1_555
O4 Sm2 1_555 1_555
H3 O4 1_555 1_555
H4 O4 1_555 1_555
O5 Sm2 1_555 1_555
O6 C10 1_555 1_555
O7 Sm1 1_555 1_555
O8 C15 1_555 1_555
O9 Sm1 1_555 1_555
O10 C20 1_555 1_555
O11 Sm1 1_555 1_555
H5 O11 1_555 1_555
O12 Sm1 1_555 1_555
H6 O12 1_555 1_555
N1 Sm2 1_555 1_555
N2 C2 1_555 1_555
N3 H7 1_555 1_555
H8 N3 1_555 1_555
N4 Sm2 1_555 1_555
N5 C7 1_555 1_555
N6 H9 1_555 1_555
H10 N6 1_555 1_555
N7 Sm1 1_555 1_555
N8 C12 1_555 1_555
N9 H11 1_555 1_555
H12 N9 1_555 1_555
N10 Sm1 1_555 1_555
N11 C17 1_555 1_555
N12 H13 1_555 1_555
H14 N12 1_555 1_555
C1 N1 1_555 1_555
H15 C1 1_555 1_555
C2 C1 1_555 1_555
H16 C2 1_555 1_555
C3 N2 1_555 1_555
C4 N1 1_555 1_555
C5 C4 1_555 1_555
C6 N4 1_555 1_555
H17 C6 1_555 1_555
C7 C6 1_555 1_555
H18 C7 1_555 1_555
C8 N5 1_555 1_555
C9 N4 1_555 1_555
C10 O5 1_555 1_555
C11 N7 1_555 1_555
H19 C11 1_555 1_555
C12 C11 1_555 1_555
H20 C12 1_555 1_555
C13 N8 1_555 1_555
C14 N7 1_555 1_555
C15 O7 1_555 1_555
C16 N10 1_555 1_555
H21 C16 1_555 1_555
C17 C16 1_555 1_555
H22 C17 1_555 1_555
C18 N11 1_555 1_555
C19 N10 1_555 1_555
C20 O9 1_555 1_555
Sm1A O6 1_555 1_555
Sm2A O10 1_555 1_555
O6A Sm1 1_555 1_555
O10A Sm2 1_555 1_555
Sm2 O11 1_555 1_555
Sm2 O12 1_555 1_555
N3 C3 1_555 1_555
N6 C8 1_555 1_555
N9 C13 1_555 1_555
N12 C18 1_555 1_555
C3 C4 1_555 1_555
C8 C9 1_555 1_555
C9 C10 1_555 1_555
C13 C14 1_555 1_555
C14 C15 1_555 1_555
C18 C19 1_555 1_555
C19 C20 1_555 1_555

#END
