
#######################################################################
#
#                 Cambridge Crystallographic Data Centre
#                                CCDC 
#
#######################################################################
#
# If this CIF has been generated from an entry in the Cambridge 
# Structural Database, then it will include bibliographic, chemical, 
# crystal, experimental, refinement or atomic coordinate data resulting 
# from the CCDC's data processing and validation procedures.
#
#######################################################################

data_KAHBAY
_symmetry_cell_setting           monoclinic
_symmetry_space_group_name_H-M   'P 21/n'
_symmetry_Int_Tables_number      14
_space_group_name_Hall           '-P 2yn'
loop_
_symmetry_equiv_pos_site_id
_symmetry_equiv_pos_as_xyz
1 x,y,z
2 1/2-x,1/2+y,1/2-z
3 -x,-y,-z
4 1/2+x,1/2-y,1/2+z
_cell_length_a                   9.6707(19)
_cell_length_b                   11.308(2)
_cell_length_c                   24.631(5)
_cell_angle_alpha                90
_cell_angle_beta                 93.62(3)
_cell_angle_gamma                90
_cell_volume                     2688.18
loop_
_atom_site_label
_atom_site_type_symbol
_atom_site_fract_x
_atom_site_fract_y
_atom_site_fract_z
Er1 Er 0.64033(4) 0.48326(4) 0.240429(14)
Er2 Er 0.36138(4) 0.26852(4) 0.255406(13)
O1 O 0.1587(7) 0.3776(6) 0.2297(3)
O2 O 0.1821(7) 0.1418(6) 0.2783(3)
O3 O 0.8462(7) 0.3772(6) 0.2642(3)
O4 O 0.0012(7) 0.0879(6) 0.3245(2)
O5 O 0.3945(7) 0.0818(5) 0.2149(2)
O6 O 0.4999(8) -0.0097(6) 0.1499(3)
O7 O 0.8170(7) 0.6122(6) 0.2188(3)
O8 O 1.0049(7) 0.6655(6) 0.1760(3)
O9 O 0.6074(7) 0.6679(5) 0.2836(2)
O10 O 0.5082(8) 0.7580(6) 0.3508(3)
O11 O 0.5718(6) 0.3005(6) 0.2209(3)
O12 O 0.4322(6) 0.4495(5) 0.2754(2)
N1 N 0.2585(8) 0.3042(7) 0.3485(3)
N2 N 0.1470(10) 0.3249(8) 0.4491(3)
N3 N -0.0067(11) 0.1753(9) 0.4277(4)
H1 H -0.0377 0.1836 0.4595
H2 H -0.0421 0.1228 0.4057
N4 N 0.3248(9) 0.2635(7) 0.1503(3)
N5 N 0.3842(10) 0.2710(8) 0.0415(3)
N6 N 0.5041(11) 0.0956(9) 0.0511(3)
H3 H 0.5248 0.1009 0.0177
H4 H 0.5328 0.0363 0.0706
N7 N 0.7426(8) 0.4550(7) 0.1456(3)
N8 N 0.8567(10) 0.4431(8) 0.0444(3)
N9 N 1.0152(11) 0.5870(9) 0.0708(4)
H5 H 1.0470 0.5823 0.0390
H6 H 1.0515 0.6359 0.0943
N10 N 0.6784(8) 0.4818(7) 0.3441(3)
N11 N 0.6202(10) 0.4633(8) 0.4522(3)
N12 N 0.5115(11) 0.6460(9) 0.4486(3)
H7 H 0.4913 0.6374 0.4818
H8 H 0.4866 0.7090 0.4310
C1 C 0.3053(11) 0.3852(9) 0.3844(4)
H9 H 0.3765 0.4359 0.3759
C2 C 0.2491(11) 0.3941(9) 0.4338(4)
H10 H 0.2839 0.4515 0.4580
C3 C 0.0969(10) 0.2446(9) 0.4124(4)
C4 C 0.1554(10) 0.2339(8) 0.3621(4)
C5 C 0.1092(9) 0.1475(8) 0.3182(3)
C6 C 0.2862(12) 0.3548(9) 0.1191(4)
H11 H 0.2402 0.4183 0.1339
C7 C 0.3141(11) 0.3559(10) 0.0647(4)
H12 H 0.2822 0.4193 0.0434
C8 C 0.4272(11) 0.1799(9) 0.0727(4)
C9 C 0.3916(10) 0.1758(8) 0.1286(4)
C10 C 0.4334(9) 0.0737(7) 0.1668(3)
C11 C 0.6955(11) 0.3783(9) 0.1080(4)
H13 H 0.6229 0.3277 0.1151
C12 C 0.7543(12) 0.3735(9) 0.0583(4)
H14 H 0.7200 0.3181 0.0331
C13 C 0.9097(11) 0.5187(9) 0.0835(4)
C14 C 0.8484(10) 0.5247(8) 0.1343(4)
C15 C 0.8944(9) 0.6080(7) 0.1798(3)
C16 C 0.7136(10) 0.3862(9) 0.3733(4)
H15 H 0.7568 0.3233 0.3568
C17 C 0.6870(12) 0.3790(10) 0.4275(4)
H16 H 0.7169 0.3127 0.4473
C18 C 0.5830(11) 0.5601(9) 0.4237(4)
C19 C 0.6159(9) 0.5705(7) 0.3683(3)
C20 C 0.5737(9) 0.6736(8) 0.3324(3)
H17 H 0.901(7) 0.404(9) 0.289(3)
H18 H 0.127(10) 0.346(8) 0.2000(18)
H19 H 0.633(8) 0.248(7) 0.227(5)
H20 H 0.891(7) 0.355(10) 0.238(2)
H21 H 0.392(11) 0.516(5) 0.275(5)
H22 H 0.111(9) 0.354(9) 0.256(2)
Er1A Er -0.14033(4) -0.01674(4) 0.259571(14)
Er2A Er 1.13862(4) 0.76852(4) 0.244594(13)
O4A O 0.4988(7) 0.5879(6) 0.1755(2)
O8A O 0.4951(7) 0.1655(6) 0.3240(3)
loop_
_geom_bond_atom_site_label_1
_geom_bond_atom_site_label_2
_geom_bond_site_symmetry_1
_geom_bond_site_symmetry_2
Er1 O3 1_555 1_555
Er2 O1 1_555 1_555
O1 H18 1_555 1_555
O2 Er2 1_555 1_555
O3 H17 1_555 1_555
O4 C5 1_555 1_555
O5 Er2 1_555 1_555
O6 C10 1_555 1_555
O7 Er1 1_555 1_555
O8 C15 1_555 1_555
O9 Er1 1_555 1_555
O10 C20 1_555 1_555
O11 Er1 1_555 1_555
O12 Er1 1_555 1_555
N1 Er2 1_555 1_555
N2 C2 1_555 1_555
N3 H1 1_555 1_555
H2 N3 1_555 1_555
N4 Er2 1_555 1_555
N5 C7 1_555 1_555
N6 H3 1_555 1_555
H4 N6 1_555 1_555
N7 Er1 1_555 1_555
N8 C12 1_555 1_555
N9 H5 1_555 1_555
H6 N9 1_555 1_555
N10 Er1 1_555 1_555
N11 C17 1_555 1_555
N12 H7 1_555 1_555
H8 N12 1_555 1_555
C1 N1 1_555 1_555
H9 C1 1_555 1_555
C2 C1 1_555 1_555
H10 C2 1_555 1_555
C3 N2 1_555 1_555
C4 N1 1_555 1_555
C5 O2 1_555 1_555
C6 N4 1_555 1_555
H11 C6 1_555 1_555
C7 C6 1_555 1_555
H12 C7 1_555 1_555
C8 N5 1_555 1_555
C9 N4 1_555 1_555
C10 O5 1_555 1_555
C11 N7 1_555 1_555
H13 C11 1_555 1_555
C12 C11 1_555 1_555
H14 C12 1_555 1_555
C13 N8 1_555 1_555
C14 N7 1_555 1_555
C15 O7 1_555 1_555
C16 N10 1_555 1_555
H15 C16 1_555 1_555
C17 C16 1_555 1_555
H16 C17 1_555 1_555
C18 N11 1_555 1_555
C19 N10 1_555 1_555
C20 O9 1_555 1_555
H19 O11 1_555 1_555
H20 O3 1_555 1_555
H21 O12 1_555 1_555
H22 O1 1_555 1_555
Er1A O4 1_555 1_555
Er2A O8 1_555 1_555
O4A Er1 1_555 1_555
O8A Er2 1_555 1_555
Er2 O11 1_555 1_555
Er2 O12 1_555 1_555
N3 C3 1_555 1_555
N6 C8 1_555 1_555
N9 C13 1_555 1_555
N12 C18 1_555 1_555
C3 C4 1_555 1_555
C4 C5 1_555 1_555
C8 C9 1_555 1_555
C9 C10 1_555 1_555
C13 C14 1_555 1_555
C14 C15 1_555 1_555
C18 C19 1_555 1_555
C19 C20 1_555 1_555

#END
