
#######################################################################
#
#                 Cambridge Crystallographic Data Centre
#                                CCDC 
#
#######################################################################
#
# If this CIF has been generated from an entry in the Cambridge 
# Structural Database, then it will include bibliographic, chemical, 
# crystal, experimental, refinement or atomic coordinate data resulting 
# from the CCDC's data processing and validation procedures.
#
#######################################################################

data_KAHHOR
_symmetry_cell_setting           monoclinic
_symmetry_space_group_name_H-M   'P 21/m'
_symmetry_Int_Tables_number      11
_space_group_name_Hall           '-P 2yb'
loop_
_symmetry_equiv_pos_site_id
_symmetry_equiv_pos_as_xyz
1 x,y,z
2 -x,1/2+y,-z
3 -x,-y,-z
4 x,1/2-y,z
_cell_length_a                   10.2527(12)
_cell_length_b                   18.973(2)
_cell_length_c                   16.977(2)
_cell_angle_alpha                90
_cell_angle_beta                 100.460(2)
_cell_angle_gamma                90
_cell_volume                     3247.56
loop_
_atom_site_label
_atom_site_type_symbol
_atom_site_fract_x
_atom_site_fract_y
_atom_site_fract_z
O9 O 0.4178(9) 0.2500 0.1684(6)
O10 O 0.4891(15) 0.3514(8) 0.1888(8)
N3 N 0.5024(15) 0.2887(8) 0.1991(8)
C33 C 0.7084(18) 0.3177(5) 0.2784(9)
C34 C 0.6262(11) 0.2500 0.2459(7)
C35 C 0.8456(11) 0.2862(5) 0.3310(5)
N3C N 0.5024(15) 0.2113(8) 0.1991(8)
O10C O 0.4891(15) 0.1486(8) 0.1888(8)
C35C C 0.8456(11) 0.2138(5) 0.3310(5)
C33C C 0.7084(18) 0.1823(5) 0.2784(9)
O11 O 0.3513(12) 0.6701(7) 0.1685(9)
O12 O 0.3324(14) 0.7204(8) 0.1421(8)
N4 N 0.3976(13) 0.7289(9) 0.1680(9)
C36 C 0.5996(19) 0.8038(9) 0.1815(11)
C37 C 0.5945(18) 0.8081(9) 0.2532(15)
C38 C 0.8012(15) 0.7500 0.2671(11)
C39 C 0.738(2) 0.7987(13) 0.2926(15)
C40 C 0.740(2) 0.8110(10) 0.2166(14)
C41 C 0.5388(11) 0.7500 0.1994(8)
O12C O 0.3324(14) 0.7796(8) 0.1421(8)
O11C O 0.3513(12) 0.8299(7) 0.1685(9)
N4C N 0.3976(13) 0.7711(9) 0.1680(9)
C39C C 0.738(2) 0.7013(13) 0.2926(15)
C37C C 0.5945(18) 0.6919(9) 0.2532(15)
C36C C 0.5996(19) 0.6962(9) 0.1815(11)
C40C C 0.740(2) 0.6890(10) 0.2166(14)
O13 O -0.531(3) 0.7500 0.490(2)
C42 C -0.469(4) 0.663(2) 0.590(3)
C44 C -0.561(4) 0.709(2) 0.541(2)
C44C C -0.561(4) 0.791(2) 0.541(2)
C42C C -0.469(4) 0.837(2) 0.590(3)
Cu1 Cu 0.61738(7) 0.53054(4) 1.00991(5)
Cu2 Cu 0.95789(8) 0.53277(5) 1.55907(5)
O1 O 0.5883(4) 0.5312(3) 1.1209(3)
O2 O 0.3852(5) 0.4840(3) 1.1063(3)
O3 O 0.5115(4) 0.6169(2) 0.9878(3)
O4 O 0.3126(5) 0.5650(3) 0.9696(3)
O5 O 0.7864(4) 0.5362(3) 1.4868(3)
O6 O 0.8595(5) 0.4831(3) 1.3866(3)
O7 O 1.0102(5) 0.6191(2) 1.5074(3)
O8 O 1.0850(5) 0.5633(3) 1.4085(3)
N1 N 0.8057(6) 0.5831(4) 1.0409(4)
N2 N 0.8926(6) 0.5833(3) 1.6575(4)
C1 C 0.4895(7) 0.5092(4) 1.1472(4)
C2 C 0.3874(7) 0.6180(4) 0.9701(4)
C3 C 0.4975(6) 0.5142(3) 1.2350(4)
C4 C 0.3856(7) 0.5249(4) 1.2702(4)
H1 H 0.2999 0.5256 1.2376
C5 C 0.3991(7) 0.5344(4) 1.3514(5)
H2 H 0.3227 0.5427 1.3744
C6 C 0.5248(7) 0.5319(4) 1.4008(5)
H3 H 0.5342 0.5388 1.4570
C7 C 0.6359(6) 0.5191(3) 1.3656(4)
C8 C 0.7709(7) 0.5117(4) 1.4165(4)
C9 C 0.6227(6) 0.5106(3) 1.2844(4)
H4 H 0.6990 0.5021 1.2614
C10 C 1.0605(6) 0.6180(4) 1.4456(4)
C11 C 1.0922(6) 0.6862(4) 1.4097(4)
C12 C 1.1495(7) 0.6869(4) 1.3417(4)
H5 H 1.1701 0.6436 1.3185
C13 C 1.0663(9) 0.7500 1.4444(6)
H6 H 1.0307 0.7500 1.4923
C14 C 1.1768(10) 0.7500 1.3074(7)
H7 H 1.2144 0.7500 1.2602
C15 C 0.3208(6) 0.6872(4) 0.9484(4)
C16 C 0.3868(9) 0.7500 0.9661(6)
H8 H 0.4779 0.7500 0.9905
C17 C 0.1898(7) 0.6868(4) 0.9081(4)
H9 H 0.1456 0.6434 0.8938
C18 C 0.1244(10) 0.7500 0.8890(6)
H10 H 0.0344 0.7500 0.8627
C19 C 0.9400(8) 0.5627(5) 1.7334(5)
H11 H 1.0090 0.5286 1.7421
C20 C 0.7972(13) 0.6265(6) 1.6463(7)
C21 C 0.8935(11) 0.5885(7) 1.7990(7)
H12 H 0.9298 0.5726 1.8515
C22 C 0.8001(14) 0.6345(7) 1.7876(8)
H13 H 0.7692 0.6536 1.8326
C23 C 0.7426(15) 0.6572(8) 1.7106(9)
H14 H 0.6724 0.6906 1.7015
C24 C 1.0469(14) 0.6136(7) 1.1096(8)
C25 C 0.8329(17) 0.6251(10) 1.1014(12)
C26 C 0.960(2) 0.6477(10) 1.1366(14)
C27 C 0.9160(17) 0.5441(11) 1.0286(13)
C28 C 1.0499(17) 0.5655(14) 1.0594(14)
C15C C 0.3208(6) 0.8128(4) 0.9484(4)
C2C C 0.3874(7) 0.8820(4) 0.9701(4)
O3C O 0.5115(4) 0.8831(2) 0.9878(3)
O4C O 0.3126(5) 0.9350(3) 0.9696(3)
C17C C 0.1898(7) 0.8132(4) 0.9081(4)
H9C H 0.1456 0.8566 0.8938
C12C C 1.1495(7) 0.8131(4) 1.3417(4)
C11C C 1.0922(6) 0.8138(4) 1.4097(4)
C10C C 1.0605(6) 0.8820(4) 1.4456(4)
O7C O 1.0102(5) 0.8809(2) 1.5074(3)
O8C O 1.0850(5) 0.9367(3) 1.4085(3)
H5C H 1.1701 0.8564 1.3185
O1B O 0.4117(4) 0.4688(3) 0.8791(3)
O2B O 0.6148(5) 0.5160(3) 0.8937(3)
O5B O 0.2136(4) 0.4638(3) 0.5132(3)
O6B O 0.1405(5) 0.5169(3) 0.6134(3)
C1B C 0.5105(7) 0.4908(4) 0.8528(4)
C3B C 0.5025(6) 0.4858(3) 0.7650(4)
C4B C 0.6144(7) 0.4751(4) 0.7298(4)
H1B H 0.7001 0.4744 0.7624
C5B C 0.6009(7) 0.4656(4) 0.6486(5)
H2B H 0.6773 0.4573 0.6256
C6B C 0.4752(7) 0.4681(4) 0.5992(5)
H3B H 0.4658 0.4612 0.5430
C7B C 0.3641(6) 0.4809(3) 0.6344(4)
C8B C 0.2291(7) 0.4883(4) 0.5835(4)
C9B C 0.3773(6) 0.4894(3) 0.7156(4)
H4B H 0.3010 0.4979 0.7386
Cu1B Cu 0.38262(7) 0.46946(4) 0.99009(5)
Cu2B Cu 0.04211(8) 0.46723(5) 0.44093(5)
N1B N 0.1943(6) 0.4169(4) 0.9591(4)
C24B C -0.0469(14) 0.3864(7) 0.8904(8)
C25B C 0.1671(17) 0.3749(10) 0.8986(12)
C26B C 0.040(2) 0.3523(10) 0.8634(14)
C27B C 0.0840(17) 0.4559(11) 0.9714(13)
C28B C -0.0499(17) 0.4345(14) 0.9406(14)
N2B N 0.1074(6) 0.4167(3) 0.3425(4)
C19B C 0.0600(8) 0.4373(5) 0.2666(5)
H11B H -0.0090 0.4714 0.2579
C20B C 0.2028(13) 0.3735(6) 0.3537(7)
C21B C 0.1065(11) 0.4115(7) 0.2010(7)
H12B H 0.0702 0.4274 0.1485
C22B C 0.1999(14) 0.3655(7) 0.2124(8)
H13B H 0.2308 0.3464 0.1674
C23B C 0.2574(15) 0.3428(8) 0.2894(9)
H14B H 0.3276 0.3094 0.2985
O4B O 0.6874(5) 0.4350(3) 1.0304(3)
Cu2B_2 Cu 1.04211(8) 0.46723(5) 1.44093(5)
O6B_2 O 1.1405(5) 0.5169(3) 1.6134(3)
O8B O 0.9150(5) 0.4367(3) 1.5915(3)
Cu1C Cu 0.61738(7) 0.96946(4) 1.00991(5)
Cu1A Cu 0.38262(7) 1.03054(4) 0.99009(5)
Cu2C Cu 0.95789(8) 0.96723(5) 1.55907(5)
Cu2A Cu 1.04211(8) 1.03277(5) 1.44093(5)
Cu2_2 Cu -0.04211(8) 0.53277(5) 0.55907(5)
O3B O 0.4885(4) 0.3831(2) 1.0122(3)
O6_2 O -0.1405(5) 0.4831(3) 0.3866(3)
O7B O -0.0102(5) 0.3809(2) 0.4926(3)
O8_2 O 0.0850(5) 0.5633(3) 0.4085(3)
C29? C 0.8004(13) 0.6571(8) 1.0033(9)
C30? C 0.9030(16) 0.5692(9) 1.0860(12)
C31? C 1.0280(17) 0.6724(12) 1.0686(11)
C32? C 0.9099(18) 0.7001(11) 1.0158(12)
O14? O -0.417(3) 0.7500 0.471(2)
O15? O -0.330(3) 0.6645(17) 0.577(2)
C43? C -0.326(6) 0.728(4) 0.471(4)
loop_
_geom_bond_atom_site_label_1
_geom_bond_atom_site_label_2
_geom_bond_site_symmetry_1
_geom_bond_site_symmetry_2
Cu1 O1 1_555 1_555
Cu2 O5 1_555 1_555
O1 C1 1_555 1_555
O2 C1 1_555 1_555
O3 Cu1 1_555 1_555
O4 C2 1_555 1_555
O5 C8 1_555 1_555
O6 C8 1_555 1_555
O7 Cu2 1_555 1_555
O8 C10 1_555 1_555
N1 Cu1 1_555 1_555
N2 Cu2 1_555 1_555
C1 C3 1_555 1_555
C2 O3 1_555 1_555
C3 C4 1_555 1_555
C4 H1 1_555 1_555
C5 C4 1_555 1_555
H2 C5 1_555 1_555
C6 C5 1_555 1_555
H3 C6 1_555 1_555
C7 C6 1_555 1_555
C8 C7 1_555 1_555
C9 C3 1_555 1_555
H4 C9 1_555 1_555
C10 O7 1_555 1_555
C11 C10 1_555 1_555
C12 C11 1_555 1_555
H5 C12 1_555 1_555
C13 C11 1_555 1_555
H6 C13 1_555 1_555
C14 C12 1_555 1_555
H7 C14 1_555 1_555
C15 C2 1_555 1_555
C16 C15 1_555 1_555
H8 C16 1_555 1_555
C17 C15 1_555 1_555
H9 C17 1_555 1_555
C18 C17 1_555 1_555
H10 C18 1_555 1_555
C19 N2 1_555 1_555
H11 C19 1_555 1_555
C20 N2 1_555 1_555
C21 C19 1_555 1_555
H12 C21 1_555 1_555
C22 C21 1_555 1_555
H13 C22 1_555 1_555
C23 C20 1_555 1_555
H14 C23 1_555 1_555
C24 C26 1_555 1_555
C25 N1 1_555 1_555
C26 C25 1_555 1_555
C27 N1 1_555 1_555
C28 C24 1_555 1_555
O9 N3 1_555 1_555
O10 N3 1_555 1_555
N3 C34 1_555 1_555
C33 C34 1_555 1_555
C34 N3C 1_555 1_555
C35 C33 1_555 1_555
O11 O12 1_555 1_555
O12 N4 1_555 1_555
N4 O11 1_555 1_555
C36 C37 1_555 1_555
C37 C39 1_555 1_555
C38 C39 1_555 1_555
C39 C40 1_555 1_555
C40 C36 1_555 1_555
C41 N4 1_555 1_555
O13 C44 1_555 1_555
C42 C44 1_555 1_555
C44 C44C 1_555 1_555
C15C C16 1_555 1_555
C2C C15C 1_555 1_555
O3C C2C 1_555 1_555
O4C C2C 1_555 1_555
C17C C18 1_555 1_555
H9C C17C 1_555 1_555
C12C C14 1_555 1_555
C11C C13 1_555 1_555
C10C C11C 1_555 1_555
O7C C10C 1_555 1_555
O8C C10C 1_555 1_555
H5C C12C 1_555 1_555
N3C O9 1_555 1_555
O10C N3C 1_555 1_555
C35C C35 1_555 1_555
C33C C34 1_555 1_555
O12C O12 1_555 1_555
O11C O12C 1_555 1_555
N4C O12 1_555 1_555
C39C C38 1_555 1_555
C37C C41 1_555 1_555
C36C C41 1_555 1_555
C40C C38 1_555 1_555
C44C O13 1_555 1_555
C42C C44C 1_555 1_555
O1B C1B 1_555 1_555
O2B Cu1 1_555 1_555
O5B C8B 1_555 1_555
O6B C8B 1_555 1_555
C1B O2B 1_555 1_555
C3B C1B 1_555 1_555
C4B C3B 1_555 1_555
H1B C4B 1_555 1_555
C5B C4B 1_555 1_555
H2B C5B 1_555 1_555
C6B C5B 1_555 1_555
H3B C6B 1_555 1_555
C7B C6B 1_555 1_555
C8B C7B 1_555 1_555
C9B C3B 1_555 1_555
H4B C9B 1_555 1_555
Cu1B Cu1 1_555 1_555
Cu2B O5B 1_555 1_555
N1B Cu1B 1_555 1_555
C24B C26B 1_555 1_555
C25B N1B 1_555 1_555
C26B C25B 1_555 1_555
C27B N1B 1_555 1_555
C28B C24B 1_555 1_555
N2B Cu2B 1_555 1_555
C19B N2B 1_555 1_555
H11B C19B 1_555 1_555
C20B N2B 1_555 1_555
C21B C19B 1_555 1_555
H12B C21B 1_555 1_555
C22B C21B 1_555 1_555
H13B C22B 1_555 1_555
C23B C20B 1_555 1_555
H14B C23B 1_555 1_555
O4B Cu1 1_555 1_555
Cu2B_2 Cu2 1_555 1_555
O6B_2 Cu2 1_555 1_555
O8B Cu2 1_555 1_555
Cu1C O3C 1_555 1_555
Cu1A O4C 1_555 1_555
Cu2C O7C 1_555 1_555
Cu2A O8C 1_555 1_555
Cu2_2 O6B 1_555 1_555
O3B Cu1B 1_555 1_555
O6_2 Cu2B 1_555 1_555
O7B Cu2B 1_555 1_555
O8_2 Cu2B 1_555 1_555
O2 Cu1B 1_555 1_555
O4 Cu1B 1_555 1_555
O6 Cu2B_2 1_555 1_555
O8 Cu2B_2 1_555 1_555
C7 C9 1_555 1_555
C22 C23 1_555 1_555
C27 C28 1_555 1_555
N3 N3C 1_555 1_555
N4 O12C 1_555 1_555
N4 N4C 1_555 1_555
C36 C41 1_555 1_555
C37 C40 1_555 1_555
C37 C41 1_555 1_555
C38 C40 1_555 1_555
C41 N4C 1_555 1_555
C15C C17C 1_555 1_555
C12C C11C 1_555 1_555
C35C C33C 1_555 1_555
O12C N4C 1_555 1_555
O11C N4C 1_555 1_555
C39C C37C 1_555 1_555
C39C C40C 1_555 1_555
C37C C36C 1_555 1_555
C37C C40C 1_555 1_555
C36C C40C 1_555 1_555
O1B Cu1B 1_555 1_555
C7B C9B 1_555 1_555
Cu2B Cu2_2 1_555 1_555
C27B C28B 1_555 1_555
C22B C23B 1_555 1_555
Cu1C Cu1A 1_555 1_555
Cu2C Cu2A 1_555 1_555

#END
