
#######################################################################
#
#                 Cambridge Crystallographic Data Centre
#                                CCDC 
#
#######################################################################
#
# If this CIF has been generated from an entry in the Cambridge 
# Structural Database, then it will include bibliographic, chemical, 
# crystal, experimental, refinement or atomic coordinate data resulting 
# from the CCDC's data processing and validation procedures.
#
#######################################################################

data_KAHKIO
_symmetry_cell_setting           monoclinic
_symmetry_space_group_name_H-M   'C 2/c'
_symmetry_Int_Tables_number      15
_space_group_name_Hall           '-C 2yn'
loop_
_symmetry_equiv_pos_site_id
_symmetry_equiv_pos_as_xyz
1 x,y,z
2 1/2+x,1/2+y,z
3 x,-y,1/2+z
4 1/2+x,1/2-y,1/2+z
5 -x,-y,-z
6 1/2-x,1/2-y,-z
7 -x,y,1/2-z
8 1/2-x,1/2+y,1/2-z
_cell_length_a                   20.488(9)
_cell_length_b                   9.302(2)
_cell_length_c                   17.655(7)
_cell_angle_alpha                90
_cell_angle_beta                 118.69(3)
_cell_angle_gamma                90
_cell_volume                     2951.6
loop_
_atom_site_label
_atom_site_type_symbol
_atom_site_fract_x
_atom_site_fract_y
_atom_site_fract_z
Fe1 Fe 0.0000 0.38615(3) 0.2500
Si1 Si 0.10672(3) 0.61655(5) 0.38179(3)
Si2 Si 0.17118(3) 0.42919(6) 0.29559(3)
N1 N 0.09813(8) 0.48203(15) 0.31084(9)
N2 N -0.01229(8) 0.21754(15) 0.15885(9)
C1 C 0.02451(11) 0.6243(2) 0.40132(13)
H1 H 0.0308 0.7042 0.4405
H2 H 0.0207 0.5338 0.4274
H3 H -0.0209 0.6390 0.3463
C2 C 0.18959(11) 0.5904(2) 0.49185(12)
H4 H 0.1913 0.6682 0.5302
H5 H 0.2353 0.5917 0.4870
H6 H 0.1853 0.4979 0.5156
C3 C 0.11264(11) 0.8010(2) 0.34184(13)
H7 H 0.1140 0.8734 0.3829
H8 H 0.0691 0.8175 0.2854
H9 H 0.1579 0.8082 0.3364
C4 C 0.24813(14) 0.5653(3) 0.33047(19)
H10 H 0.2859 0.5303 0.3160
H11 H 0.2708 0.5801 0.3930
H12 H 0.2278 0.6565 0.3006
C5 C 0.21741(13) 0.2622(2) 0.35958(14)
H13 H 0.2415 0.2844 0.4214
H14 H 0.2548 0.2283 0.3442
H15 H 0.1799 0.1871 0.3464
C6 C 0.14393(12) 0.3984(2) 0.17910(13)
H16 H 0.1869 0.3625 0.1747
H17 H 0.1270 0.4891 0.1473
H18 H 0.1036 0.3276 0.1544
C7 C 0.03651(10) 0.10900(18) 0.18063(11)
H19 H 0.0686 0.0914 0.2402
C8 C 0.04272(10) 0.02127(19) 0.12125(11)
H20 H 0.0786 -0.0537 0.1404
C9 C -0.06017(10) 0.23329(19) 0.07426(11)
H21 H -0.0977 0.3048 0.0572
C10 C -0.05731(10) 0.1503(2) 0.01097(11)
H22 H -0.0921 0.1664 -0.0480
C11 C -0.00375(9) 0.04312(17) 0.03324(10)
C11D C 0.00375(9) -0.04312(17) -0.03324(10)
C8D C -0.04272(10) -0.02127(19) -0.12125(11)
C7D C -0.03651(10) -0.10900(18) -0.18063(11)
N2D N 0.01229(8) -0.21754(15) -0.15885(9)
C9D C 0.06017(10) -0.23329(19) -0.07426(11)
H21D H 0.0977 -0.3048 -0.0572
C10D C 0.05731(10) -0.1503(2) -0.01097(11)
H22D H 0.0921 -0.1664 0.0480
H19D H -0.0686 -0.0914 -0.2402
H20D H -0.0786 0.0537 -0.1404
Si1F Si -0.10672(3) 0.61655(5) 0.11821(3)
Si2F Si -0.17118(3) 0.42919(6) 0.20441(3)
N1F N -0.09813(8) 0.48203(15) 0.18916(9)
C1F C -0.02451(11) 0.6243(2) 0.09868(13)
H1F H -0.0308 0.7042 0.0595
H2F H -0.0207 0.5338 0.0726
H3F H 0.0209 0.6390 0.1537
C2F C -0.18959(11) 0.5904(2) 0.00815(12)
H4F H -0.1913 0.6682 -0.0302
H5F H -0.2353 0.5917 0.0130
H6F H -0.1853 0.4979 -0.0156
C3F C -0.11264(11) 0.8010(2) 0.15816(13)
H7F H -0.1140 0.8734 0.1171
H8F H -0.0691 0.8175 0.2146
H9F H -0.1579 0.8082 0.1636
C4F C -0.24813(14) 0.5653(3) 0.16953(19)
H10F H -0.2859 0.5303 0.1840
H11F H -0.2708 0.5801 0.1070
H12F H -0.2278 0.6565 0.1994
C5F C -0.21741(13) 0.2622(2) 0.14042(14)
H13F H -0.2415 0.2844 0.0786
H14F H -0.2548 0.2283 0.1558
H15F H -0.1799 0.1871 0.1536
C6F C -0.14393(12) 0.3984(2) 0.32090(13)
H16F H -0.1869 0.3625 0.3253
H17F H -0.1270 0.4891 0.3527
H18F H -0.1036 0.3276 0.3456
N2F N 0.01229(8) 0.21754(15) 0.34115(9)
Fe1B Fe 0.0000 -0.38615(3) -0.2500
loop_
_geom_bond_atom_site_label_1
_geom_bond_atom_site_label_2
_geom_bond_site_symmetry_1
_geom_bond_site_symmetry_2
Fe1 N1 1_555 1_555
Si1 N1 1_555 1_555
Si2 N1 1_555 1_555
N2 Fe1 1_555 1_555
C1 Si1 1_555 1_555
H1 C1 1_555 1_555
H2 C1 1_555 1_555
H3 C1 1_555 1_555
C2 Si1 1_555 1_555
H4 C2 1_555 1_555
H5 C2 1_555 1_555
H6 C2 1_555 1_555
C3 Si1 1_555 1_555
H7 C3 1_555 1_555
H8 C3 1_555 1_555
H9 C3 1_555 1_555
C4 Si2 1_555 1_555
H10 C4 1_555 1_555
H11 C4 1_555 1_555
H12 C4 1_555 1_555
C5 Si2 1_555 1_555
H13 C5 1_555 1_555
H14 C5 1_555 1_555
H15 C5 1_555 1_555
C6 Si2 1_555 1_555
H16 C6 1_555 1_555
H17 C6 1_555 1_555
H18 C6 1_555 1_555
C7 N2 1_555 1_555
H19 C7 1_555 1_555
C8 C7 1_555 1_555
H20 C8 1_555 1_555
C9 N2 1_555 1_555
H21 C9 1_555 1_555
C10 C9 1_555 1_555
H22 C10 1_555 1_555
C11 C8 1_555 1_555
C11D C11 1_555 1_555
C8D C11D 1_555 1_555
C7D C8D 1_555 1_555
N2D C7D 1_555 1_555
C9D N2D 1_555 1_555
H21D C9D 1_555 1_555
C10D C11D 1_555 1_555
H22D C10D 1_555 1_555
H19D C7D 1_555 1_555
H20D C8D 1_555 1_555
Si1F N1F 1_555 1_555
Si2F N1F 1_555 1_555
N1F Fe1 1_555 1_555
C1F Si1F 1_555 1_555
H1F C1F 1_555 1_555
H2F C1F 1_555 1_555
H3F C1F 1_555 1_555
C2F Si1F 1_555 1_555
H4F C2F 1_555 1_555
H5F C2F 1_555 1_555
H6F C2F 1_555 1_555
C3F Si1F 1_555 1_555
H7F C3F 1_555 1_555
H8F C3F 1_555 1_555
H9F C3F 1_555 1_555
C4F Si2F 1_555 1_555
H10F C4F 1_555 1_555
H11F C4F 1_555 1_555
H12F C4F 1_555 1_555
C5F Si2F 1_555 1_555
H13F C5F 1_555 1_555
H14F C5F 1_555 1_555
H15F C5F 1_555 1_555
C6F Si2F 1_555 1_555
H16F C6F 1_555 1_555
H17F C6F 1_555 1_555
H18F C6F 1_555 1_555
N2F Fe1 1_555 1_555
Fe1B N2D 1_555 1_555
C10 C11 1_555 1_555
C9D C10D 1_555 1_555

#END
