
#######################################################################
#
#                 Cambridge Crystallographic Data Centre
#                                CCDC 
#
#######################################################################
#
# If this CIF has been generated from an entry in the Cambridge 
# Structural Database, then it will include bibliographic, chemical, 
# crystal, experimental, refinement or atomic coordinate data resulting 
# from the CCDC's data processing and validation procedures.
#
#######################################################################

data_KAHKOU
_symmetry_cell_setting           monoclinic
_symmetry_space_group_name_H-M   'C 2/c'
_symmetry_Int_Tables_number      15
_space_group_name_Hall           '-C 2yn'
loop_
_symmetry_equiv_pos_site_id
_symmetry_equiv_pos_as_xyz
1 x,y,z
2 1/2+x,1/2+y,z
3 x,-y,1/2+z
4 1/2+x,1/2-y,1/2+z
5 -x,-y,-z
6 1/2-x,1/2-y,-z
7 -x,y,1/2-z
8 1/2-x,1/2+y,1/2-z
_cell_length_a                   20.499(15)
_cell_length_b                   9.268(3)
_cell_length_c                   17.656(12)
_cell_angle_alpha                90
_cell_angle_beta                 119.15(4)
_cell_angle_gamma                90
_cell_volume                     2929.53
loop_
_atom_site_label
_atom_site_type_symbol
_atom_site_fract_x
_atom_site_fract_y
_atom_site_fract_z
Co1 Co 0.0000 0.37843(6) 0.2500
Si1 Si 0.10594(5) 0.61457(10) 0.38108(6)
Si2 Si 0.16978(5) 0.43052(11) 0.29401(6)
N1 N 0.09641(14) 0.4810(3) 0.30916(17)
N2 N -0.00960(15) 0.2190(3) 0.15972(16)
C1 C 0.0241(2) 0.6230(4) 0.4012(2)
H1 H 0.0320 0.7003 0.4426
H2 H 0.0191 0.5306 0.4249
H3 H -0.0215 0.6425 0.3465
C2 C 0.1897(2) 0.5887(4) 0.4913(2)
H4 H 0.1914 0.6660 0.5300
H5 H 0.2353 0.5914 0.4862
H6 H 0.1862 0.4952 0.5149
C3 C 0.1117(2) 0.8004(4) 0.3417(2)
H7 H 0.1120 0.8726 0.3824
H8 H 0.0685 0.8165 0.2843
H9 H 0.1578 0.8088 0.3380
C4 C 0.2463(2) 0.5686(5) 0.3285(3)
H10 H 0.2846 0.5331 0.3152
H11 H 0.2687 0.5856 0.3910
H12 H 0.2254 0.6591 0.2972
C5 C 0.2179(2) 0.2641(4) 0.3588(3)
H13 H 0.2453 0.2884 0.4207
H14 H 0.2530 0.2276 0.3406
H15 H 0.1806 0.1898 0.3489
C6 C 0.1429(2) 0.3994(4) 0.1775(2)
H16 H 0.1864 0.3641 0.1738
H17 H 0.1256 0.4902 0.1453
H18 H 0.1028 0.3276 0.1524
C7 C 0.03837(19) 0.1089(3) 0.1812(2)
H19 H 0.0707 0.0904 0.2411
C8 C 0.04351(18) 0.0211(4) 0.1217(2)
H20 H 0.0789 -0.0552 0.1409
C9 C -0.05789(19) 0.2357(4) 0.0752(2)
H21 H -0.0950 0.3085 0.0582
C10 C -0.05604(19) 0.1516(4) 0.0115(2)
H22 H -0.0914 0.1680 -0.0477
C11 C -0.00290(17) 0.0435(3) 0.0335(2)
C11D C 0.00290(17) -0.0435(3) -0.0335(2)
C8D C -0.04351(18) -0.0211(4) -0.1217(2)
C7D C -0.03837(19) -0.1089(3) -0.1812(2)
N2D N 0.00960(15) -0.2190(3) -0.15972(16)
C9D C 0.05789(19) -0.2357(4) -0.0752(2)
H21D H 0.0950 -0.3085 -0.0582
C10D C 0.05604(19) -0.1516(4) -0.0115(2)
H22D H 0.0914 -0.1680 0.0477
H19D H -0.0707 -0.0904 -0.2411
H20D H -0.0789 0.0552 -0.1409
Si1F Si -0.10594(5) 0.61457(10) 0.11892(6)
Si2F Si -0.16978(5) 0.43052(11) 0.20599(6)
N1F N -0.09641(14) 0.4810(3) 0.19084(17)
C1F C -0.0241(2) 0.6230(4) 0.0988(2)
H1F H -0.0320 0.7003 0.0574
H2F H -0.0191 0.5306 0.0751
H3F H 0.0215 0.6425 0.1535
C2F C -0.1897(2) 0.5887(4) 0.0087(2)
H4F H -0.1914 0.6660 -0.0300
H5F H -0.2353 0.5914 0.0138
H6F H -0.1862 0.4952 -0.0149
C3F C -0.1117(2) 0.8004(4) 0.1583(2)
H7F H -0.1120 0.8726 0.1176
H8F H -0.0685 0.8165 0.2157
H9F H -0.1578 0.8088 0.1620
C4F C -0.2463(2) 0.5686(5) 0.1715(3)
H10F H -0.2846 0.5331 0.1848
H11F H -0.2687 0.5856 0.1090
H12F H -0.2254 0.6591 0.2028
C5F C -0.2179(2) 0.2641(4) 0.1412(3)
H13F H -0.2453 0.2884 0.0793
H14F H -0.2530 0.2276 0.1594
H15F H -0.1806 0.1898 0.1511
C6F C -0.1429(2) 0.3994(4) 0.3225(2)
H16F H -0.1864 0.3641 0.3262
H17F H -0.1256 0.4902 0.3547
H18F H -0.1028 0.3276 0.3476
N2F N 0.00960(15) 0.2190(3) 0.34028(16)
Co1B Co 0.0000 -0.37843(6) -0.2500
loop_
_geom_bond_atom_site_label_1
_geom_bond_atom_site_label_2
_geom_bond_site_symmetry_1
_geom_bond_site_symmetry_2
Co1 N1 1_555 1_555
Si1 N1 1_555 1_555
Si2 N1 1_555 1_555
N2 Co1 1_555 1_555
C1 Si1 1_555 1_555
H1 C1 1_555 1_555
H2 C1 1_555 1_555
H3 C1 1_555 1_555
C2 Si1 1_555 1_555
H4 C2 1_555 1_555
H5 C2 1_555 1_555
H6 C2 1_555 1_555
C3 Si1 1_555 1_555
H7 C3 1_555 1_555
H8 C3 1_555 1_555
H9 C3 1_555 1_555
C4 Si2 1_555 1_555
H10 C4 1_555 1_555
H11 C4 1_555 1_555
H12 C4 1_555 1_555
C5 Si2 1_555 1_555
H13 C5 1_555 1_555
H14 C5 1_555 1_555
H15 C5 1_555 1_555
C6 Si2 1_555 1_555
H16 C6 1_555 1_555
H17 C6 1_555 1_555
H18 C6 1_555 1_555
C7 N2 1_555 1_555
H19 C7 1_555 1_555
C8 C7 1_555 1_555
H20 C8 1_555 1_555
C9 N2 1_555 1_555
H21 C9 1_555 1_555
C10 C9 1_555 1_555
H22 C10 1_555 1_555
C11 C8 1_555 1_555
C11D C11 1_555 1_555
C8D C11D 1_555 1_555
C7D C8D 1_555 1_555
N2D C7D 1_555 1_555
C9D N2D 1_555 1_555
H21D C9D 1_555 1_555
C10D C11D 1_555 1_555
H22D C10D 1_555 1_555
H19D C7D 1_555 1_555
H20D C8D 1_555 1_555
Si1F N1F 1_555 1_555
Si2F N1F 1_555 1_555
N1F Co1 1_555 1_555
C1F Si1F 1_555 1_555
H1F C1F 1_555 1_555
H2F C1F 1_555 1_555
H3F C1F 1_555 1_555
C2F Si1F 1_555 1_555
H4F C2F 1_555 1_555
H5F C2F 1_555 1_555
H6F C2F 1_555 1_555
C3F Si1F 1_555 1_555
H7F C3F 1_555 1_555
H8F C3F 1_555 1_555
H9F C3F 1_555 1_555
C4F Si2F 1_555 1_555
H10F C4F 1_555 1_555
H11F C4F 1_555 1_555
H12F C4F 1_555 1_555
C5F Si2F 1_555 1_555
H13F C5F 1_555 1_555
H14F C5F 1_555 1_555
H15F C5F 1_555 1_555
C6F Si2F 1_555 1_555
H16F C6F 1_555 1_555
H17F C6F 1_555 1_555
H18F C6F 1_555 1_555
N2F Co1 1_555 1_555
Co1B N2D 1_555 1_555
C10 C11 1_555 1_555
C9D C10D 1_555 1_555

#END
