
#######################################################################
#
#                 Cambridge Crystallographic Data Centre
#                                CCDC 
#
#######################################################################
#
# If this CIF has been generated from an entry in the Cambridge 
# Structural Database, then it will include bibliographic, chemical, 
# crystal, experimental, refinement or atomic coordinate data resulting 
# from the CCDC's data processing and validation procedures.
#
#######################################################################

data_KAHMEM
_symmetry_cell_setting           monoclinic
_symmetry_space_group_name_H-M   'C 2/c'
_symmetry_Int_Tables_number      15
_space_group_name_Hall           '-C 2yn'
loop_
_symmetry_equiv_pos_site_id
_symmetry_equiv_pos_as_xyz
1 x,y,z
2 1/2+x,1/2+y,z
3 -x,y,1/2-z
4 1/2-x,1/2+y,1/2-z
5 -x,-y,-z
6 1/2-x,1/2-y,-z
7 x,-y,1/2+z
8 1/2+x,1/2-y,1/2+z
_cell_length_a                   16.2147(11)
_cell_length_b                   18.5212(12)
_cell_length_c                   12.5482(8)
_cell_angle_alpha                90
_cell_angle_beta                 115.5060(10)
_cell_angle_gamma                90
_cell_volume                     3401.15
loop_
_atom_site_label
_atom_site_type_symbol
_atom_site_fract_x
_atom_site_fract_y
_atom_site_fract_z
Cu1 Cu 0.0000 0.01754(2) 0.7500
Cu2 Cu 0.03856(2) 0.244952(16) 1.11147(3)
N1 N 0.11441(12) 0.09823(10) 1.08369(17)
N2 N 0.05676(13) 0.15604(10) 1.04388(17)
N3 N 0.01676(11) 0.07909(9) 0.89348(16)
N4 N 0.10056(13) -0.04309(10) 0.87757(17)
N5 N -0.07519(15) 0.25239(10) 0.9245(2)
N6 N 0.02131(14) 0.31530(9) 1.21330(17)
N7 N 0.0000 0.43071(14) 1.2500
N8 N 0.08911(16) 0.35120(11) 1.0580(2)
C1 C 0.08797(14) 0.05426(11) 0.99149(19)
C2 C 0.00021(14) 0.14271(11) 0.93123(19)
C3 C 0.12880(14) -0.01558(11) 0.98745(19)
C4 C 0.19081(15) -0.05129(13) 1.0862(2)
H1 H 0.2100 -0.0308 1.1607
C5 C 0.22387(16) -0.11761(13) 1.0730(2)
H2 H 0.2664 -0.1422 1.1381
C6 C 0.19271(18) -0.14692(13) 0.9612(3)
H3 H 0.2126 -0.1922 0.9502
C7 C 0.13230(19) -0.10842(13) 0.8670(2)
H4 H 0.1122 -0.1284 0.7920
C8 C -0.07095(15) 0.19449(12) 0.8622(2)
C9 C -0.12976(17) 0.18545(14) 0.7445(2)
H5 H -0.1253 0.1454 0.7026
C10 C -0.1958(2) 0.23818(17) 0.6905(3)
H6 H -0.2373 0.2332 0.6118
C11 C -0.1996(2) 0.29753(18) 0.7538(3)
H7 H -0.2431 0.3334 0.7189
C12 C -0.1383(2) 0.30233(16) 0.8685(3)
H8 H -0.1403 0.3430 0.9108
C13 C 0.03275(15) 0.38518(11) 1.1948(2)
C14 C 0.07689(16) 0.40566(12) 1.1196(2)
C15 C 0.1034(2) 0.47552(14) 1.1101(3)
H9 H 0.0948 0.5127 1.1541
C16 C 0.1426(2) 0.48883(16) 1.0342(3)
H10 H 0.1626 0.5351 1.0282
C17 C 0.1521(2) 0.43408(17) 0.9680(3)
H11 H 0.1765 0.4425 0.9143
C18 C 0.1248(2) 0.36622(17) 0.9825(3)
H12 H 0.1315 0.3288 0.9374
Cu2B Cu -0.03856(2) 0.244952(16) 0.38853(3)
Cu2B_2 Cu -0.03856(2) 0.244952(16) 1.38853(3)
N1B N -0.11441(12) 0.09823(10) 0.41631(17)
N2B N -0.05676(13) 0.15604(10) 0.45612(17)
N3B N -0.01676(11) 0.07909(9) 0.60652(16)
N4B N -0.10056(13) -0.04309(10) 0.62243(17)
N5B N 0.07519(15) 0.25239(10) 0.5755(2)
N6B N -0.02131(14) 0.31530(9) 1.28670(17)
N6B_2 N -0.02131(14) 0.31530(9) 0.28670(17)
N8B N -0.08911(16) 0.35120(11) 1.4420(2)
N8B_2 N -0.08911(16) 0.35120(11) 0.4420(2)
C1B C -0.08797(14) 0.05426(11) 0.50851(19)
C2B C -0.00021(14) 0.14271(11) 0.56877(19)
C3B C -0.12880(14) -0.01558(11) 0.51255(19)
C4B C -0.19081(15) -0.05129(13) 0.4138(2)
H1B H -0.2100 -0.0308 0.3393
C5B C -0.22387(16) -0.11761(13) 0.4270(2)
H2B H -0.2664 -0.1422 0.3619
C6B C -0.19271(18) -0.14692(13) 0.5388(3)
H3B H -0.2126 -0.1922 0.5498
C7B C -0.13230(19) -0.10842(13) 0.6330(2)
H4B H -0.1122 -0.1284 0.7080
C8B C 0.07095(15) 0.19449(12) 0.6378(2)
C9B C 0.12976(17) 0.18545(14) 0.7555(2)
H5B H 0.1253 0.1454 0.7974
C10B C 0.1958(2) 0.23818(17) 0.8095(3)
H6B H 0.2373 0.2332 0.8882
C11B C 0.1996(2) 0.29753(18) 0.7462(3)
H7B H 0.2431 0.3334 0.7811
C12B C 0.1383(2) 0.30233(16) 0.6315(3)
H8B H 0.1403 0.3430 0.5892
C13B C -0.03275(15) 0.38518(11) 1.3052(2)
C14B C -0.07689(16) 0.40566(12) 1.3804(2)
C15B C -0.1034(2) 0.47552(14) 1.3899(3)
H9B H -0.0948 0.5127 1.3459
C16B C -0.1426(2) 0.48883(16) 1.4658(3)
H10B H -0.1626 0.5351 1.4718
C17B C -0.1521(2) 0.43408(17) 1.5320(3)
H11B H -0.1765 0.4425 1.5857
C18B C -0.1248(2) 0.36622(17) 1.5175(3)
H12B H -0.1315 0.3288 1.5626
loop_
_geom_bond_atom_site_label_1
_geom_bond_atom_site_label_2
_geom_bond_site_symmetry_1
_geom_bond_site_symmetry_2
Cu1 N3 1_555 1_555
Cu2 N2 1_555 1_555
N1 N2 1_555 1_555
N2 C2 1_555 1_555
N3 C1 1_555 1_555
N4 Cu1 1_555 1_555
N5 Cu2 1_555 1_555
N6 Cu2 1_555 1_555
N7 C13 1_555 1_555
N8 Cu2 1_555 1_555
C1 N1 1_555 1_555
C2 N3 1_555 1_555
C3 N4 1_555 1_555
C4 C3 1_555 1_555
H1 C4 1_555 1_555
C5 C4 1_555 1_555
H2 C5 1_555 1_555
C6 C5 1_555 1_555
H3 C6 1_555 1_555
C7 N4 1_555 1_555
H4 C7 1_555 1_555
C8 N5 1_555 1_555
C9 C8 1_555 1_555
H5 C9 1_555 1_555
C10 C9 1_555 1_555
H6 C10 1_555 1_555
C11 C10 1_555 1_555
H7 C11 1_555 1_555
C12 N5 1_555 1_555
H8 C12 1_555 1_555
C13 N6 1_555 1_555
C14 N8 1_555 1_555
C15 C14 1_555 1_555
H9 C15 1_555 1_555
C16 C15 1_555 1_555
H10 C16 1_555 1_555
C17 C16 1_555 1_555
H11 C17 1_555 1_555
C18 N8 1_555 1_555
H12 C18 1_555 1_555
Cu2B N2B 1_555 1_555
Cu2B_2 N6B 1_555 1_555
N1B N2B 1_555 1_555
N2B C2B 1_555 1_555
N3B Cu1 1_555 1_555
N4B Cu1 1_555 1_555
N5B Cu2B 1_555 1_555
N6B N6 1_555 1_555
N6B_2 Cu2B 1_555 1_555
N8B Cu2B_2 1_555 1_555
N8B_2 Cu2B 1_555 1_555
C1B N1B 1_555 1_555
C2B N3B 1_555 1_555
C3B N4B 1_555 1_555
C4B C3B 1_555 1_555
H1B C4B 1_555 1_555
C5B C4B 1_555 1_555
H2B C5B 1_555 1_555
C6B C5B 1_555 1_555
H3B C6B 1_555 1_555
C7B N4B 1_555 1_555
H4B C7B 1_555 1_555
C8B N5B 1_555 1_555
C9B C8B 1_555 1_555
H5B C9B 1_555 1_555
C10B C9B 1_555 1_555
H6B C10B 1_555 1_555
C11B C10B 1_555 1_555
H7B C11B 1_555 1_555
C12B N5B 1_555 1_555
H8B C12B 1_555 1_555
C13B N7 1_555 1_555
C14B N8B 1_555 1_555
C15B C14B 1_555 1_555
H9B C15B 1_555 1_555
C16B C15B 1_555 1_555
H10B C16B 1_555 1_555
C17B C16B 1_555 1_555
H11B C17B 1_555 1_555
C18B N8B 1_555 1_555
H12B C18B 1_555 1_555
C1 C3 1_555 1_555
C2 C8 1_555 1_555
C6 C7 1_555 1_555
C11 C12 1_555 1_555
C13 C14 1_555 1_555
C17 C18 1_555 1_555
N3B C1B 1_555 1_555
N6B C13B 1_555 1_555
C1B C3B 1_555 1_555
C2B C8B 1_555 1_555
C6B C7B 1_555 1_555
C11B C12B 1_555 1_555
C13B C14B 1_555 1_555
C17B C18B 1_555 1_555

#END
