
#######################################################################
#
#                 Cambridge Crystallographic Data Centre
#                                CCDC 
#
#######################################################################
#
# If this CIF has been generated from an entry in the Cambridge 
# Structural Database, then it will include bibliographic, chemical, 
# crystal, experimental, refinement or atomic coordinate data resulting 
# from the CCDC's data processing and validation procedures.
#
#######################################################################

data_KAHMIQ02
_symmetry_cell_setting           tetragonal
_symmetry_space_group_name_H-M   'P 41 21 2'
_symmetry_Int_Tables_number      92
_space_group_name_Hall           'P 4abw 2nw'
loop_
_symmetry_equiv_pos_site_id
_symmetry_equiv_pos_as_xyz
1 x,y,z
2 -x,-y,1/2+z
3 1/2-y,1/2+x,1/4+z
4 1/2+y,1/2-x,3/4+z
5 1/2-x,1/2+y,1/4-z
6 1/2+x,1/2-y,3/4-z
7 y,x,-z
8 -y,-x,1/2-z
_cell_length_a                   11.4967(10)
_cell_length_b                   11.4967(10)
_cell_length_c                   18.224(4)
_cell_angle_alpha                90
_cell_angle_beta                 90
_cell_angle_gamma                90
_cell_volume                     2408.74
loop_
_atom_site_label
_atom_site_type_symbol
_atom_site_fract_x
_atom_site_fract_y
_atom_site_fract_z
Cu1 Cu 0.78455(7) 0.40129(7) 0.04024(4)
C1 C 0.6728(6) 0.5331(6) 0.1699(3)
H1 H 0.6255 0.5706 0.1359
C2 C 0.6550(6) 0.5542(7) 0.2436(4)
H2 H 0.5961 0.6040 0.2588
C3 C 0.7242(6) 0.5016(6) 0.2932(4)
H3 H 0.7119 0.5137 0.3431
C4 C 0.8138(6) 0.4295(6) 0.2701(3)
H4 H 0.8635 0.3937 0.3035
C5 C 0.8259(5) 0.4132(5) 0.1951(3)
C6 C 0.9170(5) 0.3420(5) 0.1630(3)
C7 C 1.0598(5) 0.2332(5) 0.1429(3)
C8 C 1.1585(5) 0.1591(5) 0.1589(3)
C9 C 1.2138(6) 0.0907(5) 0.1059(3)
H5 H 1.1913 0.0940 0.0569
C10 C 1.3031(7) 0.0176(7) 0.1284(5)
H6 H 1.3423 -0.0284 0.0944
C11 C 1.3329(7) 0.0142(7) 0.2008(5)
H7 H 1.3904 -0.0363 0.2174
C12 C 1.2765(6) 0.0864(6) 0.2486(4)
H8 H 1.2986 0.0846 0.2976
N1 N 0.7541(4) 0.4620(4) 0.1456(3)
N2 N 0.9183(4) 0.3220(4) 0.0905(2)
N3 N 1.0126(4) 0.2527(4) 0.0772(2)
N4 N 1.0056(4) 0.2885(4) 0.1989(2)
N5 N 1.1927(4) 0.1586(4) 0.2294(3)
Cu1B Cu 1.09871(7) 0.28455(7) 0.29024(4)
N4C N 0.7885(4) 0.4944(4) -0.0511(2)
N5C N 0.6586(4) 0.3073(4) -0.0206(3)
loop_
_geom_bond_atom_site_label_1
_geom_bond_atom_site_label_2
_geom_bond_site_symmetry_1
_geom_bond_site_symmetry_2
Cu1 N1 1_555 1_555
C1 H1 1_555 1_555
C2 C1 1_555 1_555
H2 C2 1_555 1_555
C3 C2 1_555 1_555
H3 C3 1_555 1_555
C4 C3 1_555 1_555
H4 C4 1_555 1_555
C5 C4 1_555 1_555
C6 C5 1_555 1_555
C7 C8 1_555 1_555
C8 C9 1_555 1_555
C9 H5 1_555 1_555
C10 C9 1_555 1_555
H6 C10 1_555 1_555
C11 C10 1_555 1_555
H7 C11 1_555 1_555
C12 C11 1_555 1_555
H8 C12 1_555 1_555
N1 C1 1_555 1_555
N2 Cu1 1_555 1_555
N3 C7 1_555 1_555
N4 C6 1_555 1_555
N5 C8 1_555 1_555
Cu1B N4 1_555 1_555
N4C Cu1 1_555 1_555
N5C Cu1 1_555 1_555
C5 N1 1_555 1_555
C6 N2 1_555 1_555
C7 N4 1_555 1_555
C12 N5 1_555 1_555
N2 N3 1_555 1_555
N5 Cu1B 1_555 1_555

#END
