
#######################################################################
#
#                 Cambridge Crystallographic Data Centre
#                                CCDC 
#
#######################################################################
#
# If this CIF has been generated from an entry in the Cambridge 
# Structural Database, then it will include bibliographic, chemical, 
# crystal, experimental, refinement or atomic coordinate data resulting 
# from the CCDC's data processing and validation procedures.
#
#######################################################################

data_KAHMIR
_symmetry_cell_setting           tetragonal
_symmetry_space_group_name_H-M   'I 4'
_symmetry_Int_Tables_number      79
_space_group_name_Hall           'I 4'
loop_
_symmetry_equiv_pos_site_id
_symmetry_equiv_pos_as_xyz
1 x,y,z
2 -x,-y,z
3 -y,x,z
4 y,-x,z
5 1/2+x,1/2+y,1/2+z
6 1/2-x,1/2-y,1/2+z
7 1/2-y,1/2+x,1/2+z
8 1/2+y,1/2-x,1/2+z
_cell_length_a                   16.8182(9)
_cell_length_b                   16.8182(9)
_cell_length_c                   7.5240(4)
_cell_angle_alpha                90
_cell_angle_beta                 90
_cell_angle_gamma                90
_cell_volume                     2128.18
loop_
_atom_site_label
_atom_site_type_symbol
_atom_site_fract_x
_atom_site_fract_y
_atom_site_fract_z
Th1 Th 0.0000 0.0000 -0.2077
O1 O 0.12030(12) -0.00437(14) -0.0466(3)
O2 O 0.21529(13) -0.09657(13) -0.0629(3)
O3 O 0.09419(12) 0.07342(13) 0.6115(3)
O4 O 0.18015(13) 0.16655(12) 0.6858(3)
H1 H 0.1509 0.1823 0.7709
C1 C 0.22967(14) 0.00491(15) 0.1581(4)
C2 C 0.17111(12) 0.03661(13) 0.2990(10)
H2 H 0.1332 0.0721 0.2430
H3 H 0.1419 -0.0074 0.3505
C3 C 0.21601(15) 0.08140(15) 0.4462(4)
C4 C 0.26221(16) 0.15183(15) 0.3634(4)
H4 H 0.2253 0.1884 0.3077
H5 H 0.2908 0.1803 0.4556
C5 C 0.32105(16) 0.12035(16) 0.2245(4)
H6 H 0.3498 0.1653 0.1722
C6 C 0.38035(14) 0.06411(16) 0.3100(10)
H7 H 0.4104 0.0920 0.4007
H8 H 0.4174 0.0448 0.2211
C7 C 0.33568(16) -0.00623(17) 0.3936(4)
H9 H 0.3739 -0.0423 0.4499
C8 C 0.28984(15) -0.05118(15) 0.2484(4)
H10 H 0.2620 -0.0960 0.3006
H11 H 0.3268 -0.0715 0.1606
C9 C 0.27556(16) 0.07592(19) 0.0761(4)
H12 H 0.3127 0.0567 -0.0127
H13 H 0.2386 0.1119 0.0184
C10 C 0.27692(17) 0.02440(19) 0.5344(4)
H14 H 0.3056 0.0523 0.6272
H15 H 0.2492 -0.0201 0.5882
C11 C 0.18510(15) -0.03624(16) 0.0071(4)
C12 C 0.15917(15) 0.10853(15) 0.5907(4)
Th1_2 Th 0.0000 0.0000 0.7923
Th1_3 Th 0.0000 0.0000 -1.2077
O1_2 O 0.12030(12) -0.00437(14) -1.0466(3)
O1A O -0.12030(12) 0.00437(14) -0.0466(3)
O1B O 0.00437(14) 0.12030(12) -0.0466(3)
O1C O -0.00437(14) -0.12030(12) -0.0466(3)
O2_2 O 0.21529(13) -0.09657(13) -1.0629(3)
O2A O -0.21529(13) 0.09657(13) -0.0629(3)
O2B O 0.09657(13) 0.21529(13) -0.0629(3)
O3_2 O 0.09419(12) 0.07342(13) -0.3885(3)
O3A O -0.09419(12) -0.07342(13) 0.6115(3)
O3B O -0.07342(13) 0.09419(12) 0.6115(3)
O3A_2 O -0.09419(12) -0.07342(13) -0.3885(3)
O3B_2 O -0.07342(13) 0.09419(12) -0.3885(3)
O3C O 0.07342(13) -0.09419(12) -0.3885(3)
O4_2 O 0.18015(13) 0.16655(12) -0.3142(3)
O4A O -0.18015(13) -0.16655(12) 0.6858(3)
O4B O -0.16655(12) 0.18015(13) 0.6858(3)
H1_2 H 0.1509 0.1823 -0.2291
H1A H -0.1509 -0.1823 0.7709
H1B H -0.1823 0.1509 0.7709
C1_2 C 0.22967(14) 0.00491(15) -0.8419(4)
C1A C -0.22967(14) -0.00491(15) 0.1581(4)
C1B C -0.00491(15) 0.22967(14) 0.1581(4)
C2_2 C 0.17111(12) 0.03661(13) -0.7010(10)
C2A C -0.17111(12) -0.03661(13) 0.2990(10)
C2B C -0.03661(13) 0.17111(12) 0.2990(10)
H2_2 H 0.1332 0.0721 -0.7570
H2A H -0.1332 -0.0721 0.2430
H2B H -0.0721 0.1332 0.2430
H3_2 H 0.1419 -0.0074 -0.6495
H3A H -0.1419 0.0074 0.3505
H3B H 0.0074 0.1419 0.3505
C3_2 C 0.21601(15) 0.08140(15) -0.5538(4)
C3A C -0.21601(15) -0.08140(15) 0.4462(4)
C3B C -0.08140(15) 0.21601(15) 0.4462(4)
C4_2 C 0.26221(16) 0.15183(15) -0.6366(4)
C4A C -0.26221(16) -0.15183(15) 0.3634(4)
C4B C -0.15183(15) 0.26221(16) 0.3634(4)
H4_2 H 0.2253 0.1884 -0.6923
H4A H -0.2253 -0.1884 0.3077
H4B H -0.1884 0.2253 0.3077
H5_2 H 0.2908 0.1803 -0.5444
H5A H -0.2908 -0.1803 0.4556
H5B H -0.1803 0.2908 0.4556
C5_2 C 0.32105(16) 0.12035(16) -0.7755(4)
C5A C -0.32105(16) -0.12035(16) 0.2245(4)
C5B C -0.12035(16) 0.32105(16) 0.2245(4)
H6_2 H 0.3498 0.1653 -0.8278
H6A H -0.3498 -0.1653 0.1722
H6B H -0.1653 0.3498 0.1722
C6_2 C 0.38035(14) 0.06411(16) -0.6900(10)
C6A C -0.38035(14) -0.06411(16) 0.3100(10)
C6B C -0.06411(16) 0.38035(14) 0.3100(10)
H7_2 H 0.4104 0.0920 -0.5993
H7A H -0.4104 -0.0920 0.4007
H7B H -0.0920 0.4104 0.4007
H8_2 H 0.4174 0.0448 -0.7789
H8A H -0.4174 -0.0448 0.2211
H8B H -0.0448 0.4174 0.2211
C7_2 C 0.33568(16) -0.00623(17) -0.6064(4)
C7A C -0.33568(16) 0.00623(17) 0.3936(4)
C7B C 0.00623(17) 0.33568(16) 0.3936(4)
H9_2 H 0.3739 -0.0423 -0.5501
H9A H -0.3739 0.0423 0.4499
H9B H 0.0423 0.3739 0.4499
C8_2 C 0.28984(15) -0.05118(15) -0.7516(4)
C8A C -0.28984(15) 0.05118(15) 0.2484(4)
C8B C 0.05118(15) 0.28984(15) 0.2484(4)
H10_2 H 0.2620 -0.0960 -0.6994
H10A H -0.2620 0.0960 0.3006
H10B H 0.0960 0.2620 0.3006
H11_2 H 0.3268 -0.0715 -0.8394
H11A H -0.3268 0.0715 0.1606
H11B H 0.0715 0.3268 0.1606
C9_2 C 0.27556(16) 0.07592(19) -0.9239(4)
C9A C -0.27556(16) -0.07592(19) 0.0761(4)
C9B C -0.07592(19) 0.27556(16) 0.0761(4)
H12_2 H 0.3127 0.0567 -1.0127
H12A H -0.3127 -0.0567 -0.0127
H12B H -0.0567 0.3127 -0.0127
H13_2 H 0.2386 0.1119 -0.9816
H13A H -0.2386 -0.1119 0.0184
H13B H -0.1119 0.2386 0.0184
C10_2 C 0.27692(17) 0.02440(19) -0.4656(4)
C10A C -0.27692(17) -0.02440(19) 0.5344(4)
C10B C -0.02440(19) 0.27692(17) 0.5344(4)
H14_2 H 0.3056 0.0523 -0.3728
H14A H -0.3056 -0.0523 0.6272
H14B H -0.0523 0.3056 0.6272
H15_2 H 0.2492 -0.0201 -0.4118
H15A H -0.2492 0.0201 0.5882
H15B H 0.0201 0.2492 0.5882
C11_2 C 0.18510(15) -0.03624(16) -0.9929(4)
C11A C -0.18510(15) 0.03624(16) 0.0071(4)
C11B C 0.03624(16) 0.18510(15) 0.0071(4)
C12_2 C 0.15917(15) 0.10853(15) -0.4093(4)
C12A C -0.15917(15) -0.10853(15) 0.5907(4)
C12B C -0.10853(15) 0.15917(15) 0.5907(4)
loop_
_geom_bond_atom_site_label_1
_geom_bond_atom_site_label_2
_geom_bond_site_symmetry_1
_geom_bond_site_symmetry_2
Th1 O1 1_555 1_555
O1 C11 1_555 1_555
O2 C11 1_555 1_555
O3 C12 1_555 1_555
O4 H1 1_555 1_555
C1 C2 1_555 1_555
C2 H2 1_555 1_555
H3 C2 1_555 1_555
C3 C2 1_555 1_555
C4 C3 1_555 1_555
H4 C4 1_555 1_555
H5 C4 1_555 1_555
C5 C4 1_555 1_555
H6 C5 1_555 1_555
C6 C5 1_555 1_555
H7 C6 1_555 1_555
H8 C6 1_555 1_555
C7 C6 1_555 1_555
H9 C7 1_555 1_555
C8 C1 1_555 1_555
H10 C8 1_555 1_555
H11 C8 1_555 1_555
C9 C1 1_555 1_555
H12 C9 1_555 1_555
H13 C9 1_555 1_555
C10 C3 1_555 1_555
H14 C10 1_555 1_555
H15 C10 1_555 1_555
C11 C1 1_555 1_555
C12 O4 1_555 1_555
Th1_2 O3 1_555 1_555
Th1_3 O1_2 1_555 1_555
O1_2 C11_2 1_555 1_555
O1A Th1 1_555 1_555
O1B Th1 1_555 1_555
O1C Th1 1_555 1_555
O2_2 C11_2 1_555 1_555
O2A C11A 1_555 1_555
O2B C11B 1_555 1_555
O3_2 Th1 1_555 1_555
O3A Th1_2 1_555 1_555
O3B Th1_2 1_555 1_555
O3A_2 Th1 1_555 1_555
O3B_2 Th1 1_555 1_555
O3C Th1 1_555 1_555
O4_2 H1_2 1_555 1_555
O4A H1A 1_555 1_555
O4B H1B 1_555 1_555
C1_2 C2_2 1_555 1_555
C1A C2A 1_555 1_555
C1B C2B 1_555 1_555
C2_2 H2_2 1_555 1_555
C2A H2A 1_555 1_555
C2B H2B 1_555 1_555
H3_2 C2_2 1_555 1_555
H3A C2A 1_555 1_555
H3B C2B 1_555 1_555
C3_2 C2_2 1_555 1_555
C3A C2A 1_555 1_555
C3B C2B 1_555 1_555
C4_2 C3_2 1_555 1_555
C4A C3A 1_555 1_555
C4B C3B 1_555 1_555
H4_2 C4_2 1_555 1_555
H4A C4A 1_555 1_555
H4B C4B 1_555 1_555
H5_2 C4_2 1_555 1_555
H5A C4A 1_555 1_555
H5B C4B 1_555 1_555
C5_2 C4_2 1_555 1_555
C5A C4A 1_555 1_555
C5B C4B 1_555 1_555
H6_2 C5_2 1_555 1_555
H6A C5A 1_555 1_555
H6B C5B 1_555 1_555
C6_2 C5_2 1_555 1_555
C6A C5A 1_555 1_555
C6B C5B 1_555 1_555
H7_2 C6_2 1_555 1_555
H7A C6A 1_555 1_555
H7B C6B 1_555 1_555
H8_2 C6_2 1_555 1_555
H8A C6A 1_555 1_555
H8B C6B 1_555 1_555
C7_2 C6_2 1_555 1_555
C7A C6A 1_555 1_555
C7B C6B 1_555 1_555
H9_2 C7_2 1_555 1_555
H9A C7A 1_555 1_555
H9B C7B 1_555 1_555
C8_2 C1_2 1_555 1_555
C8A C1A 1_555 1_555
C8B C1B 1_555 1_555
H10_2 C8_2 1_555 1_555
H10A C8A 1_555 1_555
H10B C8B 1_555 1_555
H11_2 C8_2 1_555 1_555
H11A C8A 1_555 1_555
H11B C8B 1_555 1_555
C9_2 C1_2 1_555 1_555
C9A C1A 1_555 1_555
C9B C1B 1_555 1_555
H12_2 C9_2 1_555 1_555
H12A C9A 1_555 1_555
H12B C9B 1_555 1_555
H13_2 C9_2 1_555 1_555
H13A C9A 1_555 1_555
H13B C9B 1_555 1_555
C10_2 C3_2 1_555 1_555
C10A C3A 1_555 1_555
C10B C3B 1_555 1_555
H14_2 C10_2 1_555 1_555
H14A C10A 1_555 1_555
H14B C10B 1_555 1_555
H15_2 C10_2 1_555 1_555
H15A C10A 1_555 1_555
H15B C10B 1_555 1_555
C11_2 C1_2 1_555 1_555
C11A O1A 1_555 1_555
C11B O1B 1_555 1_555
C12_2 O3_2 1_555 1_555
C12A O3A 1_555 1_555
C12B O3B 1_555 1_555
C3 C12 1_555 1_555
C5 C9 1_555 1_555
C7 C8 1_555 1_555
C7 C10 1_555 1_555
O4_2 C12_2 1_555 1_555
O4A C12A 1_555 1_555
O4B C12B 1_555 1_555
C1A C11A 1_555 1_555
C1B C11B 1_555 1_555
C3_2 C12_2 1_555 1_555
C3A C12A 1_555 1_555
C3B C12B 1_555 1_555
C5_2 C9_2 1_555 1_555
C5A C9A 1_555 1_555
C5B C9B 1_555 1_555
C7_2 C8_2 1_555 1_555
C7_2 C10_2 1_555 1_555
C7A C8A 1_555 1_555
C7A C10A 1_555 1_555
C7B C8B 1_555 1_555
C7B C10B 1_555 1_555

#END
