
#######################################################################
#
#                 Cambridge Crystallographic Data Centre
#                                CCDC 
#
#######################################################################
#
# If this CIF has been generated from an entry in the Cambridge 
# Structural Database, then it will include bibliographic, chemical, 
# crystal, experimental, refinement or atomic coordinate data resulting 
# from the CCDC's data processing and validation procedures.
#
#######################################################################

data_KAHMUD
_symmetry_cell_setting           orthorhombic
_symmetry_space_group_name_H-M   'P b c a'
_symmetry_Int_Tables_number      61
_space_group_name_Hall           '-P 2ac 2ab'
loop_
_symmetry_equiv_pos_site_id
_symmetry_equiv_pos_as_xyz
1 x,y,z
2 1/2-x,-y,1/2+z
3 -x,1/2+y,1/2-z
4 1/2+x,1/2-y,-z
5 -x,-y,-z
6 1/2+x,y,1/2-z
7 x,1/2-y,1/2+z
8 1/2-x,1/2+y,z
_cell_length_a                   17.3649(9)
_cell_length_b                   8.6087(4)
_cell_length_c                   23.8669(12)
_cell_angle_alpha                90
_cell_angle_beta                 90
_cell_angle_gamma                90
_cell_volume                     3567.84
loop_
_atom_site_label
_atom_site_type_symbol
_atom_site_fract_x
_atom_site_fract_y
_atom_site_fract_z
Zn1 Zn 0.137594(13) 0.40203(3) 0.147600(9)
C1 C 0.14480(10) 0.7372(2) 0.20939(7)
C2 C 0.07543(11) 0.7548(2) 0.23884(7)
H1 H 0.0341 0.6837 0.2341
C3 C 0.06957(11) 0.8800(2) 0.27502(8)
C4 C 0.13146(11) 0.9861(2) 0.28190(8)
H2 H 0.1264 1.0685 0.3081
C5 C 0.19828(11) 0.9728(2) 0.25165(8)
H3 H 0.2390 1.0457 0.2559
C6 C 0.20438(11) 0.8470(2) 0.21403(8)
C7 C -0.00351(12) 0.9045(2) 0.30730(8)
C8 C 0.07857(11) 0.0524(2) 0.13240(9)
H4 H 0.0712 0.0546 0.1718
C9 C 0.06325(12) -0.0853(2) 0.10340(9)
H5 H 0.0453 -0.1744 0.1229
C10 C 0.07431(12) -0.0907(2) 0.04661(9)
H6 H 0.0639 -0.1835 0.0264
C11 C 0.10110(12) 0.0419(2) 0.01858(8)
C12 C 0.11401(13) 0.0476(3) -0.04133(9)
C13 C 0.11589(14) -0.0735(3) -0.12602(10)
H7 H 0.1116 -0.1644 -0.1484
C14 C 0.13242(14) 0.0673(3) -0.15245(9)
H8 H 0.1360 0.0699 -0.1922
C15 C 0.13439(12) 0.1868(3) -0.06774(8)
C16 C 0.14820(12) 0.3260(3) -0.03436(8)
C17 C 0.16948(14) 0.4670(3) -0.05814(9)
H9 H 0.1735 0.4776 -0.0977
C18 C 0.18456(14) 0.5911(3) -0.02342(9)
H10 H 0.1993 0.6885 -0.0387
C19 C 0.17802(13) 0.5725(2) 0.03418(8)
H11 H 0.1901 0.6585 0.0576
C20 C 0.14032(11) 0.3183(2) 0.02423(8)
C21 C 0.11421(11) 0.1758(2) 0.05095(8)
N1 N 0.16797(9) 0.63012(18) 0.17011(7)
N2 N 0.23716(9) 0.67470(19) 0.15119(6)
N3 N 0.26040(8) 0.80457(18) 0.17669(6)
N4 N 0.10314(9) 0.18057(19) 0.10673(6)
N5 N 0.15570(10) 0.4406(2) 0.05839(7)
N6 N 0.10599(12) -0.0858(2) -0.07125(7)
N7 N 0.14330(10) 0.1970(2) -0.12396(8)
O1 O -0.06535(8) 0.84697(16) 0.28716(6)
O2 O -0.00240(8) 0.97789(17) 0.35254(5)
Zn1G Zn 0.362406(13) 0.90203(3) 0.147600(9)
Zn1B Zn -0.137594(13) 0.90203(3) 0.352400(9)
N3G N 0.23960(8) 0.30457(18) 0.17669(6)
O1B O 0.06535(8) 0.34697(16) 0.21284(6)
O2B O 0.00240(8) 0.47789(17) 0.14746(5)
O3 O -0.0206(8) 0.3931(15) 0.0359(6)
loop_
_geom_bond_atom_site_label_1
_geom_bond_atom_site_label_2
_geom_bond_site_symmetry_1
_geom_bond_site_symmetry_2
Zn1 N1 1_555 1_555
C1 C2 1_555 1_555
C2 H1 1_555 1_555
C3 C2 1_555 1_555
C4 C3 1_555 1_555
H2 C4 1_555 1_555
C5 C4 1_555 1_555
H3 C5 1_555 1_555
C6 C1 1_555 1_555
C7 C3 1_555 1_555
C8 H4 1_555 1_555
C9 C8 1_555 1_555
H5 C9 1_555 1_555
C10 C9 1_555 1_555
H6 C10 1_555 1_555
C11 C10 1_555 1_555
C12 C11 1_555 1_555
C13 H7 1_555 1_555
C14 C13 1_555 1_555
H8 C14 1_555 1_555
C15 C12 1_555 1_555
C16 C15 1_555 1_555
C17 C16 1_555 1_555
H9 C17 1_555 1_555
C18 C17 1_555 1_555
H10 C18 1_555 1_555
C19 C18 1_555 1_555
H11 C19 1_555 1_555
C20 C16 1_555 1_555
C21 C11 1_555 1_555
N1 C1 1_555 1_555
N2 N1 1_555 1_555
N3 C6 1_555 1_555
N4 Zn1 1_555 1_555
N5 Zn1 1_555 1_555
N6 C12 1_555 1_555
N7 C14 1_555 1_555
O1 C7 1_555 1_555
O2 C7 1_555 1_555
Zn1G N3 1_555 1_555
Zn1B O1 1_555 1_555
N3G Zn1 1_555 1_555
O1B Zn1 1_555 1_555
O2B Zn1 1_555 1_555
C5 C6 1_555 1_555
C8 N4 1_555 1_555
C13 N6 1_555 1_555
C15 N7 1_555 1_555
C19 N5 1_555 1_555
C20 C21 1_555 1_555
C20 N5 1_555 1_555
C21 N4 1_555 1_555
N2 N3 1_555 1_555
O2 Zn1B 1_555 1_555

#END
