
#######################################################################
#
#                 Cambridge Crystallographic Data Centre
#                                CCDC 
#
#######################################################################
#
# If this CIF has been generated from an entry in the Cambridge 
# Structural Database, then it will include bibliographic, chemical, 
# crystal, experimental, refinement or atomic coordinate data resulting 
# from the CCDC's data processing and validation procedures.
#
#######################################################################

data_KAHPIU01
_symmetry_cell_setting           monoclinic
_symmetry_space_group_name_H-M   'P 21/c'
_symmetry_Int_Tables_number      14
_space_group_name_Hall           '-P 2ybc'
loop_
_symmetry_equiv_pos_site_id
_symmetry_equiv_pos_as_xyz
1 x,y,z
2 -x,1/2+y,1/2-z
3 -x,-y,-z
4 x,1/2-y,1/2+z
_cell_length_a                   9.3106(19)
_cell_length_b                   11.023(2)
_cell_length_c                   20.395(6)
_cell_angle_alpha                90
_cell_angle_beta                 107.92(3)
_cell_angle_gamma                90
_cell_volume                     1991.61
loop_
_atom_site_label
_atom_site_type_symbol
_atom_site_fract_x
_atom_site_fract_y
_atom_site_fract_z
C1 C 0.7278(6) 0.1910(5) 0.2220(3)
H1 H 0.6770 0.1518 0.2487
C2 C 0.7868(6) 0.3167(5) 0.1535(3)
H2 H 0.7834 0.3818 0.1241
C3 C 0.8982(7) 0.2336(6) 0.1722(3)
H3 H 0.9840 0.2306 0.1580
C4 C 0.9515(7) 0.0492(6) 0.2507(3)
H4 H 0.9030 0.0124 0.2816
H5 H 1.0508 0.0766 0.2781
C5 C 0.9680(6) -0.0440(6) 0.1999(3)
C6 C 1.0901(6) -0.0465(5) 0.1769(3)
H6 H 1.1681 0.0085 0.1946
C7 C 1.1006(6) -0.1288(6) 0.1278(3)
H7 H 1.1850 -0.1273 0.1126
C8 C 0.9891(7) -0.2132(6) 0.1009(3)
C9 C 0.8691(7) -0.2138(7) 0.1268(4)
H8 H 0.7935 -0.2715 0.1110
C10 C 0.8585(7) -0.1307(8) 0.1756(4)
H9 H 0.7761 -0.1334 0.1923
C11 C 1.0008(7) -0.3016(6) 0.0462(3)
H10 H 1.0981 -0.2924 0.0387
H11 H 0.9939 -0.3838 0.0619
C12 C 0.7793(6) -0.3620(5) -0.0541(3)
H12 H 0.7739 -0.4418 -0.0402
C13 C 0.8549(7) -0.1760(6) -0.0564(3)
H13 H 0.9088 -0.1039 -0.0455
C14 C 0.7350(6) -0.1986(5) -0.1127(3)
H14 H 0.6914 -0.1427 -0.1472
C15 C 0.5003(5) -0.3510(5) -0.3025(3)
C16 C 0.4850(5) -0.3391(5) -0.3765(2)
C17 C 0.4945(5) -0.4438(5) -0.4130(2)
H15 H 0.5029 -0.5179 -0.3903
C18 C 0.4921(6) -0.4441(4) -0.4817(3)
C19 C 0.4753(6) -0.3304(5) -0.5135(3)
H16 H 0.4719 -0.3253 -0.5595
C20 C 0.4636(6) -0.2253(5) -0.4784(3)
H17 H 0.4523 -0.1512 -0.5013
C21 C 0.4683(5) -0.2283(5) -0.4100(3)
C22 C 0.4506(6) -0.1112(5) -0.3759(2)
Co1 Co 0.50564(8) -0.39433(7) -0.18036(4)
N1 N 0.6880(5) -0.3147(4) -0.1113(2)
N2 N 0.8804(5) -0.2810(5) -0.0187(3)
N3 N 0.8611(5) 0.1550(5) 0.2159(2)
N4 N 0.6785(5) 0.2904(4) 0.1848(2)
O1 O 0.4725(4) -0.4508(3) -0.27907(17)
O2 O 0.5471(4) -0.2623(3) -0.26303(17)
O3 O 0.3364(4) -0.0901(3) -0.35914(19)
O4 O 0.5555(4) -0.0316(3) -0.37014(18)
C1B C 0.2722(6) -1.1910(5) -1.2220(3)
H1B H 0.3230 -1.1518 -1.2487
C2B C 0.2132(6) -1.3167(5) -1.1535(3)
H2B H 0.2166 -1.3818 -1.1241
C3B C 0.1018(7) -1.2336(6) -1.1722(3)
H3B H 0.0160 -1.2306 -1.1580
C4B C 0.0485(7) -1.0492(6) -1.2507(3)
H4B H 0.0970 -1.0124 -1.2816
H5B H -0.0508 -1.0766 -1.2781
C5B C 0.0320(6) -0.9560(6) -1.1999(3)
C6B C -0.0901(6) -0.9535(5) -1.1769(3)
H6B H -0.1681 -1.0085 -1.1946
C7B C -0.1006(6) -0.8712(6) -1.1278(3)
H7B H -0.1850 -0.8727 -1.1126
C8B C 0.0109(7) -0.7868(6) -1.1009(3)
C9B C 0.1309(7) -0.7862(7) -1.1268(4)
H8B H 0.2065 -0.7285 -1.1110
C10B C 0.1415(7) -0.8693(8) -1.1756(4)
H9B H 0.2239 -0.8666 -1.1923
C11B C -0.0008(7) -0.6984(6) -1.0462(3)
H10B H -0.0981 -0.7076 -1.0387
H11B H 0.0061 -0.6162 -1.0619
C12B C 0.2207(6) -0.6380(5) -0.9459(3)
H12B H 0.2261 -0.5582 -0.9598
C13B C 0.1451(7) -0.8240(6) -0.9436(3)
H13B H 0.0912 -0.8961 -0.9545
C14B C 0.2650(6) -0.8014(5) -0.8873(3)
H14B H 0.3086 -0.8573 -0.8528
C15B C 0.4997(5) -0.6490(5) -0.6975(3)
C16B C 0.5150(5) -0.6609(5) -0.6235(2)
C17B C 0.5055(5) -0.5562(5) -0.5870(2)
H15B H 0.4971 -0.4821 -0.6097
C18B C 0.5079(6) -0.5559(4) -0.5183(3)
C19B C 0.5247(6) -0.6696(5) -0.4865(3)
H16B H 0.5281 -0.6747 -0.4405
C20B C 0.5364(6) -0.7747(5) -0.5216(3)
H17B H 0.5477 -0.8488 -0.4987
C21B C 0.5317(5) -0.7717(5) -0.5900(3)
C22B C 0.5494(6) -0.8888(5) -0.6241(2)
Co1B Co 0.49436(8) 0.39433(7) 0.18036(4)
Co1A Co 0.49436(8) 0.10567(7) -0.31964(4)
Co1B_2 Co 0.49436(8) -0.60567(7) -0.81964(4)
Co1C Co 0.50564(8) -1.10567(7) -0.68036(4)
Co1_2 Co 0.50564(8) -1.39433(7) -1.18036(4)
N1B N 0.3120(5) -0.6853(4) -0.8887(2)
N2B N 0.1196(5) -0.7190(5) -0.9813(3)
N3B N 0.1389(5) -1.1550(5) -1.2159(2)
N4B N 0.3215(5) -0.2904(4) -0.1848(2)
N4_2 N 0.6785(5) -0.7096(4) -0.8152(2)
N4B_2 N 0.3215(5) -1.2904(4) -1.1848(2)
O1B O 0.5275(4) -0.5492(3) -0.72093(17)
O2B O 0.4529(4) -0.7377(3) -0.73697(17)
O3B O 0.6636(4) -0.9099(3) -0.64086(19)
O4B O 0.4445(4) -0.9684(3) -0.62986(18)
O4A O 0.4445(4) -0.5316(3) -0.12986(18)
O4C O 0.5555(4) -0.4684(3) -0.87014(18)
loop_
_geom_bond_atom_site_label_1
_geom_bond_atom_site_label_2
_geom_bond_site_symmetry_1
_geom_bond_site_symmetry_2
C1 H1 1_555 1_555
C2 H2 1_555 1_555
C3 C2 1_555 1_555
H3 C3 1_555 1_555
C4 H4 1_555 1_555
H5 C4 1_555 1_555
C5 C4 1_555 1_555
C6 C5 1_555 1_555
H6 C6 1_555 1_555
C7 C6 1_555 1_555
H7 C7 1_555 1_555
C8 C7 1_555 1_555
C9 C8 1_555 1_555
H8 C9 1_555 1_555
C10 C5 1_555 1_555
H9 C10 1_555 1_555
C11 C8 1_555 1_555
H10 C11 1_555 1_555
H11 C11 1_555 1_555
C12 H12 1_555 1_555
C13 H13 1_555 1_555
C14 C13 1_555 1_555
H14 C14 1_555 1_555
C15 C16 1_555 1_555
C16 C17 1_555 1_555
C17 H15 1_555 1_555
C18 C17 1_555 1_555
C19 C18 1_555 1_555
H16 C19 1_555 1_555
C20 C19 1_555 1_555
H17 C20 1_555 1_555
C21 C16 1_555 1_555
C22 C21 1_555 1_555
Co1 N1 1_555 1_555
N1 C12 1_555 1_555
N2 C11 1_555 1_555
N3 C1 1_555 1_555
N4 C1 1_555 1_555
O1 C15 1_555 1_555
O2 C15 1_555 1_555
O3 C22 1_555 1_555
O4 C22 1_555 1_555
C1B H1B 1_555 1_555
C2B H2B 1_555 1_555
C3B C2B 1_555 1_555
H3B C3B 1_555 1_555
C4B H4B 1_555 1_555
H5B C4B 1_555 1_555
C5B C4B 1_555 1_555
C6B C5B 1_555 1_555
H6B C6B 1_555 1_555
C7B C6B 1_555 1_555
H7B C7B 1_555 1_555
C8B C7B 1_555 1_555
C9B C8B 1_555 1_555
H8B C9B 1_555 1_555
C10B C5B 1_555 1_555
H9B C10B 1_555 1_555
C11B C8B 1_555 1_555
H10B C11B 1_555 1_555
H11B C11B 1_555 1_555
C12B H12B 1_555 1_555
C13B H13B 1_555 1_555
C14B C13B 1_555 1_555
H14B C14B 1_555 1_555
C15B C16B 1_555 1_555
C16B C17B 1_555 1_555
C17B H15B 1_555 1_555
C18B C18 1_555 1_555
C19B C18B 1_555 1_555
H16B C19B 1_555 1_555
C20B C19B 1_555 1_555
H17B C20B 1_555 1_555
C21B C16B 1_555 1_555
C22B C21B 1_555 1_555
Co1B N4 1_555 1_555
Co1A O4 1_555 1_555
Co1B_2 N1B 1_555 1_555
Co1C O4B 1_555 1_555
Co1_2 N4B_2 1_555 1_555
N1B C12B 1_555 1_555
N2B C11B 1_555 1_555
N3B C1B 1_555 1_555
N4B Co1 1_555 1_555
N4_2 Co1B_2 1_555 1_555
N4B_2 C1B 1_555 1_555
O1B C15B 1_555 1_555
O2B C15B 1_555 1_555
O3B C22B 1_555 1_555
O4B C22B 1_555 1_555
O4A Co1 1_555 1_555
O4C Co1B_2 1_555 1_555
C2 N4 1_555 1_555
C3 N3 1_555 1_555
C4 N3 1_555 1_555
C9 C10 1_555 1_555
C12 N2 1_555 1_555
C13 N2 1_555 1_555
C14 N1 1_555 1_555
C20 C21 1_555 1_555
Co1 O1 1_555 1_555
Co1 O2 1_555 1_555
C2B N4B_2 1_555 1_555
C3B N3B 1_555 1_555
C4B N3B 1_555 1_555
C9B C10B 1_555 1_555
C12B N2B 1_555 1_555
C13B N2B 1_555 1_555
C14B N1B 1_555 1_555
C17B C18B 1_555 1_555
C20B C21B 1_555 1_555
Co1B_2 O1B 1_555 1_555
Co1B_2 O2B 1_555 1_555

#END
