
#######################################################################
#
#                 Cambridge Crystallographic Data Centre
#                                CCDC 
#
#######################################################################
#
# If this CIF has been generated from an entry in the Cambridge 
# Structural Database, then it will include bibliographic, chemical, 
# crystal, experimental, refinement or atomic coordinate data resulting 
# from the CCDC's data processing and validation procedures.
#
#######################################################################

data_KAHPEQ
_symmetry_cell_setting           triclinic
_symmetry_space_group_name_H-M   'P -1'
_symmetry_Int_Tables_number      2
_space_group_name_Hall           '-P 1'
loop_
_symmetry_equiv_pos_site_id
_symmetry_equiv_pos_as_xyz
1 x,y,z
2 -x,-y,-z
_cell_length_a                   9.3235(10)
_cell_length_b                   12.1765(14)
_cell_length_c                   15.5502(15)
_cell_angle_alpha                109.796(5)
_cell_angle_beta                 92.666(6)
_cell_angle_gamma                108.745(5)
_cell_volume                     1548.85
loop_
_atom_site_label
_atom_site_type_symbol
_atom_site_fract_x
_atom_site_fract_y
_atom_site_fract_z
Yb1 Yb 0.49629(3) 0.66955(2) 0.221061(17)
Yb2 Yb 0.78616(3) 0.92281(2) 0.433478(17)
Yb3 Yb 0.57975(3) 0.60690(2) 0.432760(17)
Yb4 Yb 0.99763(3) 0.76052(2) 0.527080(17)
Yb5 Yb 0.78609(3) 0.43045(2) 0.474671(17)
Yb6 Yb 0.37450(3) 0.82549(2) 0.444580(17)
O1 O 0.3519(5) 0.4564(4) 0.1714(3)
O2 O 0.3642(5) 0.5147(4) 0.0521(3)
O3 O 0.2685(5) 0.6943(4) 0.1948(3)
O4 O 0.2070(5) 0.8096(4) 0.3231(3)
O5 O 0.5618(5) 0.8118(4) 0.1534(3)
O6 O 0.5164(6) 0.9833(5) 0.2364(4)
O7 O 0.8945(5) 0.9595(5) 0.3128(4)
O8 O 0.9864(5) 1.1546(4) 0.3174(3)
O9 O 0.5511(5) 0.4219(4) 0.3195(4)
O10 O 0.7087(5) 0.3183(4) 0.3199(3)
O13 O 0.6967(5) 0.7100(4) 0.3340(3)
H1 H 0.7806 0.6822 0.3078
O14 O 0.5458(5) 0.8572(4) 0.3468(3)
H2 H 0.5372 0.9231 0.3243
O15 O 0.3974(5) 0.6328(4) 0.3448(3)
H3 H 0.2974 0.5606 0.3254
O16 O 0.7731(5) 0.7995(4) 0.5244(3)
H4 H 0.7508 0.8377 0.5877
O17 O 1.0272(5) 0.8961(4) 0.4520(3)
H5 H 1.0642 0.8679 0.3919
O18 O 0.6157(5) 0.9696(4) 0.5337(3)
H6 H 0.6377 0.9597 0.5937
O19 O 0.7492(5) 1.1080(4) 0.4293(3)
H7 H 0.6977 1.0986 0.3680
O20 O 0.8224(5) 0.5875(4) 0.4221(3)
H8 H 0.8467 0.5671 0.3579
O21 O 0.9950(5) 0.6010(4) 0.5750(3)
H9 H 0.9934 0.6194 0.6426
O22 O 0.6434(5) 0.5412(4) 0.5500(3)
H10 H 0.7011 0.6115 0.6095
O23 O 0.4445(5) 0.7165(4) 0.5282(3)
H11 H 0.5034 0.7714 0.5921
O24 O 0.1485(5) 0.6685(4) 0.4393(3)
H12 H 0.0947 0.6112 0.3748
O25 O 0.6682(5) 0.5906(4) 0.1399(3)
H13 H 0.6325 0.5637 0.0831
H14 H 0.7373 0.5717 0.1612
C1 C 0.3228(7) 0.4288(6) 0.0847(4)
C2 C 0.2448(7) 0.2948(6) 0.0213(5)
H17 H 0.1734 0.2895 -0.0295
H18 H 0.1879 0.2468 0.0561
H19 H 0.3222 0.2606 -0.0043
C3 C 0.1914(7) 0.7564(6) 0.2346(4)
C4 C 0.0770(8) 0.7763(7) 0.1759(5)
H20 H 0.1276 0.8519 0.1632
H21 H -0.0077 0.7861 0.2090
H22 H 0.0366 0.7041 0.1172
C5 C 0.5133(7) 0.8994(6) 0.1606(5)
C6 C 0.4453(11) 0.9005(8) 0.0711(6)
H23 H 0.4077 0.9700 0.0848
H24 H 0.3597 0.8214 0.0382
H25 H 0.5243 0.9108 0.0321
C7 C 0.9324(6) 1.0375(6) 0.2734(4)
C8 C 0.9117(8) 0.9940(6) 0.1697(4)
H26 H 0.8591 1.0404 0.1484
H27 H 0.8500 0.9044 0.1423
H28 H 1.0126 1.0086 0.1504
C9 C 0.6108(7) 0.3434(5) 0.2781(4)
C10 C 0.5659(7) 0.2777(6) 0.1743(5)
H29 H 0.6330 0.2307 0.1511
H30 H 0.5765 0.3395 0.1456
H31 H 0.4588 0.2200 0.1587
Yb2A Yb 1.21384(3) 1.07719(2) 0.566522(17)
Yb3A Yb 0.42025(3) 0.39310(2) 0.567240(17)
Yb4A Yb 1.00237(3) 1.23948(2) 0.472920(17)
Yb4_2 Yb -0.00237(3) 0.76052(2) 0.527080(17)
Yb5A Yb 1.21391(3) 0.56955(2) 0.525329(17)
Yb5A_2 Yb 0.21391(3) 0.56955(2) 0.525329(17)
Yb6A Yb 0.62550(3) 1.17451(2) 0.555420(17)
O8A O 1.0136(5) 0.8454(4) 0.6826(3)
O17A O 0.9728(5) 1.1039(4) 0.5480(3)
H5A H 0.9358 1.1321 0.6081
O18A O 0.3843(5) 1.0304(4) 0.4663(3)
H6A H 0.3623 1.0403 0.4063
O19A O 1.2508(5) 0.8920(4) 0.5707(3)
O19A_2 O 0.2508(5) 0.8920(4) 0.5707(3)
H7A H 1.3023 0.9014 0.6320
H7A_2 H 0.3023 0.9014 0.6320
O21A O 1.0050(5) 0.3990(4) 0.4250(3)
H9A H 1.0066 0.3806 0.3574
O22A O 0.3566(5) 0.4588(4) 0.4500(3)
H10A H 0.2989 0.3885 0.3905
O23A O 0.5555(5) 0.2835(4) 0.4718(3)
H11A H 0.4966 0.2286 0.4079
O24_2 O 1.1485(5) 0.6685(4) 0.4393(3)
O24A O 0.8515(5) 0.3315(4) 0.5607(3)
H12_2 H 1.0947 0.6112 0.3748
H12A H 0.9053 0.3888 0.6252
O11 O 1.0490(5) 0.4746(4) 0.2721(3)
O12 O 0.8695(5) 0.5471(5) 0.2417(3)
C11 C 0.9558(6) 0.4845(6) 0.2168(5)
C12 C 0.9491(7) 0.4201(7) 0.1130(5)
H32 H 0.8547 0.4149 0.0788
H33 H 0.9498 0.3357 0.1000
H34 H 1.0386 0.4684 0.0937
O26 O 0.7653(5) 0.7131(5) 0.7411(4)
H15 H 0.7252 0.6577 0.7625
H16 H 0.7787 0.7890 0.7700
O27 O 0.6610(5) 0.8794(5) 0.6952(4)
loop_
_geom_bond_atom_site_label_1
_geom_bond_atom_site_label_2
_geom_bond_site_symmetry_1
_geom_bond_site_symmetry_2
Yb1 O1 1_555 1_555
Yb2 O7 1_555 1_555
Yb3 O9 1_555 1_555
Yb4 O16 1_555 1_555
Yb5 O10 1_555 1_555
Yb6 O4 1_555 1_555
O1 C1 1_555 1_555
O2 Yb1 1_555 1_555
O3 Yb1 1_555 1_555
O4 C3 1_555 1_555
O5 Yb1 1_555 1_555
O6 C5 1_555 1_555
O7 C7 1_555 1_555
O8 C7 1_555 1_555
O9 C9 1_555 1_555
O10 C9 1_555 1_555
O11 C11 1_555 1_555
O12 C11 1_555 1_555
O13 Yb1 1_555 1_555
H1 O13 1_555 1_555
O14 Yb1 1_555 1_555
H2 O14 1_555 1_555
O15 Yb1 1_555 1_555
H3 O15 1_555 1_555
O16 Yb2 1_555 1_555
H4 O16 1_555 1_555
O17 Yb2 1_555 1_555
H5 O17 1_555 1_555
O18 Yb2 1_555 1_555
H6 O18 1_555 1_555
O19 Yb2 1_555 1_555
H7 O19 1_555 1_555
O20 Yb3 1_555 1_555
H8 O20 1_555 1_555
O21 Yb4 1_555 1_555
H9 O21 1_555 1_555
O22 Yb3 1_555 1_555
H10 O22 1_555 1_555
O23 Yb3 1_555 1_555
H11 O23 1_555 1_555
O24 Yb6 1_555 1_555
H12 O24 1_555 1_555
O25 Yb1 1_555 1_555
H13 O25 1_555 1_555
H14 O25 1_555 1_555
O26 H15 1_555 1_555
H16 O26 1_555 1_555
C1 O2 1_555 1_555
C2 C1 1_555 1_555
H17 C2 1_555 1_555
H18 C2 1_555 1_555
H19 C2 1_555 1_555
C3 O3 1_555 1_555
C4 C3 1_555 1_555
H20 C4 1_555 1_555
H21 C4 1_555 1_555
H22 C4 1_555 1_555
C5 O5 1_555 1_555
C6 C5 1_555 1_555
H23 C6 1_555 1_555
H24 C6 1_555 1_555
H25 C6 1_555 1_555
C7 C8 1_555 1_555
C8 H26 1_555 1_555
H27 C8 1_555 1_555
H28 C8 1_555 1_555
C9 C10 1_555 1_555
C10 H29 1_555 1_555
H30 C10 1_555 1_555
H31 C10 1_555 1_555
C11 C12 1_555 1_555
C12 H32 1_555 1_555
H33 C12 1_555 1_555
H34 C12 1_555 1_555
Yb2A O17 1_555 1_555
Yb3A O22 1_555 1_555
Yb4A O8 1_555 1_555
Yb4_2 O24 1_555 1_555
Yb5A O21 1_555 1_555
Yb5A_2 O23 1_555 1_555
Yb6A O18 1_555 1_555
O8A Yb4 1_555 1_555
O17A Yb2 1_555 1_555
H5A O17A 1_555 1_555
O18A Yb6 1_555 1_555
H6A O18A 1_555 1_555
O19A Yb4 1_555 1_555
O19A_2 Yb6 1_555 1_555
H7A O19A 1_555 1_555
H7A_2 O19A_2 1_555 1_555
O21A Yb5 1_555 1_555
H9A O21A 1_555 1_555
O22A Yb3 1_555 1_555
H10A O22A 1_555 1_555
O23A Yb5 1_555 1_555
H11A O23A 1_555 1_555
O24_2 Yb4 1_555 1_555
O24A Yb5 1_555 1_555
H12_2 O24_2 1_555 1_555
H12A O24A 1_555 1_555
Yb2 O13 1_555 1_555
Yb2 O14 1_555 1_555
Yb3 O13 1_555 1_555
Yb3 O15 1_555 1_555
Yb3 O16 1_555 1_555
Yb4 O17 1_555 1_555
Yb4 O20 1_555 1_555
Yb5 O20 1_555 1_555
Yb5 O21 1_555 1_555
Yb5 O22 1_555 1_555
Yb6 O14 1_555 1_555
Yb6 O15 1_555 1_555
Yb6 O18 1_555 1_555
Yb6 O23 1_555 1_555
O19 Yb4A 1_555 1_555
O19 Yb6A 1_555 1_555
O24 Yb5A_2 1_555 1_555
Yb2A O17A 1_555 1_555
Yb2A O19A 1_555 1_555
Yb3A O22A 1_555 1_555
Yb3A O23A 1_555 1_555
Yb4A O17A 1_555 1_555
Yb4_2 O19A_2 1_555 1_555
Yb5A O21A 1_555 1_555
Yb5A O24_2 1_555 1_555
Yb5A_2 O22A 1_555 1_555
Yb6A O18A 1_555 1_555

#END
