
#######################################################################
#
#                 Cambridge Crystallographic Data Centre
#                                CCDC 
#
#######################################################################
#
# If this CIF has been generated from an entry in the Cambridge 
# Structural Database, then it will include bibliographic, chemical, 
# crystal, experimental, refinement or atomic coordinate data resulting 
# from the CCDC's data processing and validation procedures.
#
#######################################################################

data_KAJFEH
_symmetry_cell_setting           hexagonal
_symmetry_space_group_name_H-M   'P 65 2 2'
_symmetry_Int_Tables_number      179
_space_group_name_Hall           "P 65 2' (0,0,1)"
loop_
_symmetry_equiv_pos_site_id
_symmetry_equiv_pos_as_xyz
1 x,y,z
2 x-y,x,5/6+z
3 -y,x-y,2/3+z
4 -x,-y,1/2+z
5 -x+y,-x,1/3+z
6 y,-x+y,1/6+z
7 -y,-x,1/6-z
8 x-y,-y,-z
9 x,x-y,5/6-z
10 y,x,2/3-z
11 -x+y,y,1/2-z
12 -x,-x+y,1/3-z
_cell_length_a                   11.22(3)
_cell_length_b                   11.22(3)
_cell_length_c                   24.19(9)
_cell_angle_alpha                90
_cell_angle_beta                 90
_cell_angle_gamma                120
_cell_volume                     2637.26
loop_
_atom_site_label
_atom_site_type_symbol
_atom_site_fract_x
_atom_site_fract_y
_atom_site_fract_z
Co1 Co -0.46190(7) 0.0000 -0.5000
O1 O -0.5479(3) -0.1819(3) -0.45794(14)
O2 O -0.3977(4) 0.1258(4) -0.42295(15)
H1 H -0.4351 0.1556 -0.4027
H2 H -0.4125 0.0594 -0.4031
O3 O -0.4494(4) -0.1102(4) -0.37536(14)
N1 N -0.6470(5) 0.0000 -0.5000
N2 N -1.2758(4) 0.0000 -0.5000
C1 C -0.7659(5) -0.1149(5) -0.4898(2)
H5 H -0.7647 -0.1958 -0.4829
C2 C -0.8898(5) -0.1184(5) -0.4892(2)
H6 H -0.9703 -0.2003 -0.4815
C3 C -0.8946(5) 0.0000 -0.5000
C4 C -1.0257(5) 0.0000 -0.5000
C5 C -1.0307(5) 0.1206(5) -0.4919(2)
H7 H -0.9500 0.2039 -0.4863
C6 C -1.1559(4) 0.1153(4) -0.4921(2)
H8 H -1.1569 0.1968 -0.4865
C7 C -0.5408(5) -0.3481(5) -0.3989(2)
H9 H -0.5673 -0.3692 -0.3604
H10 H -0.4563 -0.3505 -0.4040
C8 C -0.5120(4) -0.2035(5) -0.4106(2)
Co1_2 Co -1.46190(7) 0.0000 -0.5000
Co1E Co -1.0000 -0.53810(7) -0.3333
O1F O -0.8181(3) -0.4521(3) -0.37539(14)
O1G O -0.3660(4) 0.1819(3) -0.54206(14)
O2G O -0.5235(6) -0.1258(4) -0.57705(15)
H1G H -0.5907 -0.1556 -0.5973
H2G H -0.4719 -0.0594 -0.5969
O3F O -0.8898(4) -0.5506(4) -0.45797(14)
N2_2 N -0.2758(4) 0.0000 -0.5000
C1G C -0.6510(7) 0.1149(5) -0.5102(2)
H5G H -0.5689 0.1958 -0.5171
C2G C -0.7714(7) 0.1184(5) -0.5108(2)
H6G H -0.7700 0.2003 -0.5185
C5G C -1.1513(7) -0.1206(5) -0.5081(2)
H7G H -1.1539 -0.2039 -0.5137
C6G C -1.2712(6) -0.1153(4) -0.5079(2)
H8G H -1.3537 -0.1968 -0.5135
C7F C -0.6519(5) -0.4592(5) -0.4344(2)
H9F H -0.6308 -0.4327 -0.4729
H10F H -0.6495 -0.5437 -0.4293
C8F C -0.7965(5) -0.4880(4) -0.4227(2)
O4 O -0.2882(6) -0.4755(5) -0.43299(18)
H3 H -0.3020 -0.4652 -0.4661
H4 H -0.2531 -0.5243 -0.4264
loop_
_geom_bond_atom_site_label_1
_geom_bond_atom_site_label_2
_geom_bond_site_symmetry_1
_geom_bond_site_symmetry_2
Co1 O1 1_555 1_555
O1 C8 1_555 1_555
O2 Co1 1_555 1_555
H1 O2 1_555 1_555
H2 O2 1_555 1_555
O3 C8 1_555 1_555
O4 H3 1_555 1_555
H4 O4 1_555 1_555
N1 Co1 1_555 1_555
N2 C6 1_555 1_555
C1 N1 1_555 1_555
H5 C1 1_555 1_555
C2 C1 1_555 1_555
H6 C2 1_555 1_555
C3 C2 1_555 1_555
C4 C3 1_555 1_555
C5 C4 1_555 1_555
H7 C5 1_555 1_555
C6 C5 1_555 1_555
H8 C6 1_555 1_555
C7 H9 1_555 1_555
H10 C7 1_555 1_555
C8 C7 1_555 1_555
Co1_2 N2 1_555 1_555
Co1E O1F 1_555 1_555
O1F C8F 1_555 1_555
O1G Co1 1_555 1_555
O2G Co1 1_555 1_555
H1G O2G 1_555 1_555
H2G O2G 1_555 1_555
O3F C8F 1_555 1_555
N2_2 Co1 1_555 1_555
C1G N1 1_555 1_555
H5G C1G 1_555 1_555
C2G C3 1_555 1_555
H6G C2G 1_555 1_555
C5G C4 1_555 1_555
H7G C5G 1_555 1_555
C6G N2 1_555 1_555
H8G C6G 1_555 1_555
C7F C7 1_555 1_555
H9F C7F 1_555 1_555
H10F C7F 1_555 1_555
C8F C7F 1_555 1_555
C1G C2G 1_555 1_555
C5G C6G 1_555 1_555

#END
