
#######################################################################
#
#                 Cambridge Crystallographic Data Centre
#                                CCDC 
#
#######################################################################
#
# If this CIF has been generated from an entry in the Cambridge 
# Structural Database, then it will include bibliographic, chemical, 
# crystal, experimental, refinement or atomic coordinate data resulting 
# from the CCDC's data processing and validation procedures.
#
#######################################################################

data_KAJGEJ
_symmetry_cell_setting           triclinic
_symmetry_space_group_name_H-M   'P -1'
_symmetry_Int_Tables_number      2
_space_group_name_Hall           '-P 1'
loop_
_symmetry_equiv_pos_site_id
_symmetry_equiv_pos_as_xyz
1 x,y,z
2 -x,-y,-z
_cell_length_a                   6.8864(5)
_cell_length_b                   12.0430(10)
_cell_length_c                   13.2699(10)
_cell_angle_alpha                78.535(3)
_cell_angle_beta                 77.905(3)
_cell_angle_gamma                78.335(3)
_cell_volume                     1039.71
loop_
_atom_site_label
_atom_site_type_symbol
_atom_site_fract_x
_atom_site_fract_y
_atom_site_fract_z
Ag1 Ag 0.20836(3) 0.540062(17) 0.908928(14)
O1 O 0.3563(3) 0.27095(15) 0.44887(13)
O2 O 1.1321(2) -0.19269(15) 0.35864(13)
N1 N 0.2393(3) 0.51480(16) 0.74852(14)
N2 N 0.4744(3) 0.28866(16) 0.59387(14)
H1 H 0.5523 0.2514 0.6387
N3 N 0.6379(3) 0.15205(17) 0.49452(15)
H2 H 0.7225 0.1318 0.5389
N4 N 0.8425(3) -0.07235(17) 0.32890(15)
H3 H 0.7473 -0.0523 0.2905
N5 N 0.9651(3) -0.21645(16) 0.23271(14)
H4 H 0.8673 -0.1843 0.1976
N6 N 1.1929(3) -0.43503(16) 0.06834(14)
C1 C 0.3365(3) 0.41551(19) 0.71778(17)
H5 H 0.3963 0.3578 0.7674
C2 C 0.3546(3) 0.39221(19) 0.61677(17)
C3 C 0.2591(3) 0.4752(2) 0.54589(17)
H6 H 0.2632 0.4618 0.4772
C4 C 0.1577(4) 0.5779(2) 0.57729(18)
H7 H 0.0918 0.6358 0.5300
C5 C 0.1529(4) 0.5958(2) 0.67776(18)
H8 H 0.0867 0.6675 0.6975
C6 C 0.4815(3) 0.2397(2) 0.50751(17)
C7 C 0.6647(4) 0.0916(2) 0.40630(18)
H9 H 0.6907 0.1456 0.3401
H10 H 0.5399 0.0620 0.4077
C8 C 0.8389(3) -0.00722(19) 0.41093(17)
H11 H 0.9671 0.0223 0.4001
H12 H 0.8216 -0.0570 0.4801
C9 C 0.9883(3) -0.16254(19) 0.31079(17)
C10 C 1.0944(3) -0.3374(2) 0.10290(17)
H13 H 1.0288 -0.2789 0.0560
C11 C 1.0839(3) -0.31792(19) 0.20468(16)
C12 C 1.1825(3) -0.4038(2) 0.27221(17)
H14 H 1.1799 -0.3938 0.3417
C13 C 1.2844(3) -0.5039(2) 0.23665(18)
H15 H 1.3517 -0.5636 0.2819
C14 C 1.2879(3) -0.5169(2) 0.13486(18)
H16 H 1.3595 -0.5858 0.1112
Ag1_2 Ag 1.20836(3) -0.459938(17) -0.091072(14)
N6_2 N 0.1929(3) 0.56497(16) 1.06834(14)
O3 O 0.6073(3) -0.14681(15) 0.15072(14)
O4 O 0.5108(3) 0.01135(15) 0.22149(14)
C15 C 0.4846(3) -0.0568(2) 0.16661(17)
C16 C 0.3003(4) -0.0266(2) 0.11522(19)
H17 H 0.3012 -0.0857 0.0737
H18 H 0.3014 0.0480 0.0695
H19 H 0.1787 -0.0227 0.1691
O5 O 0.2052(3) 0.16927(16) 0.30778(14)
H20 H 0.261(5) 0.206(3) 0.350(2)
H24 H 0.311(4) 0.111(2) 0.284(3)
O6 O 0.0513(3) 0.25596(16) 0.12500(14)
H21 H 0.101(5) 0.228(3) 0.1892(13)
H25 H 0.173(3) 0.261(3) 0.075(2)
O7 O 0.3935(3) 0.29230(16) -0.02270(14)
H22 H 0.511(3) 0.265(2) 0.009(2)
H26 H 0.416(5) 0.238(2) -0.069(2)
O8 O 0.6658(3) 0.21235(18) 0.11548(16)
H23 H 0.635(5) 0.1399(14) 0.154(2)
H27 H 0.8053(16) 0.209(4) 0.117(3)
H28? H 0.2195 -0.0883 0.1387
H29? H 0.3422 -0.0175 0.0392
H30? H 0.2197 0.0454 0.1345
loop_
_geom_bond_atom_site_label_1
_geom_bond_atom_site_label_2
_geom_bond_site_symmetry_1
_geom_bond_site_symmetry_2
Ag1 N1 1_555 1_555
O1 C6 1_555 1_555
O2 C9 1_555 1_555
O3 C15 1_555 1_555
O4 C15 1_555 1_555
O5 H20 1_555 1_555
O6 H21 1_555 1_555
O7 H22 1_555 1_555
O8 H23 1_555 1_555
N1 C1 1_555 1_555
N2 H1 1_555 1_555
N3 H2 1_555 1_555
N4 H3 1_555 1_555
N5 H4 1_555 1_555
N6 C10 1_555 1_555
C1 H5 1_555 1_555
C2 N2 1_555 1_555
C3 C2 1_555 1_555
H6 C3 1_555 1_555
C4 C3 1_555 1_555
H7 C4 1_555 1_555
C5 N1 1_555 1_555
H8 C5 1_555 1_555
C6 N2 1_555 1_555
C7 N3 1_555 1_555
H9 C7 1_555 1_555
H10 C7 1_555 1_555
C8 N4 1_555 1_555
H11 C8 1_555 1_555
H12 C8 1_555 1_555
C9 N4 1_555 1_555
C10 H13 1_555 1_555
C11 N5 1_555 1_555
C12 C11 1_555 1_555
H14 C12 1_555 1_555
C13 C12 1_555 1_555
H15 C13 1_555 1_555
C14 N6 1_555 1_555
H16 C14 1_555 1_555
C15 C16 1_555 1_555
C16 H17 1_555 1_555
H18 C16 1_555 1_555
H19 C16 1_555 1_555
H24 O5 1_555 1_555
H25 O6 1_555 1_555
H26 O7 1_555 1_555
H27 O8 1_555 1_555
Ag1_2 N6 1_555 1_555
N6_2 Ag1 1_555 1_555
N3 C6 1_555 1_555
N5 C9 1_555 1_555
C1 C2 1_555 1_555
C4 C5 1_555 1_555
C7 C8 1_555 1_555
C10 C11 1_555 1_555
C13 C14 1_555 1_555

#END
