
#######################################################################
#
#                 Cambridge Crystallographic Data Centre
#                                CCDC 
#
#######################################################################
#
# If this CIF has been generated from an entry in the Cambridge 
# Structural Database, then it will include bibliographic, chemical, 
# crystal, experimental, refinement or atomic coordinate data resulting 
# from the CCDC's data processing and validation procedures.
#
#######################################################################

data_KAJGAF
_symmetry_cell_setting           triclinic
_symmetry_space_group_name_H-M   'P -1'
_symmetry_Int_Tables_number      2
_space_group_name_Hall           '-P 1'
loop_
_symmetry_equiv_pos_site_id
_symmetry_equiv_pos_as_xyz
1 x,y,z
2 -x,-y,-z
_cell_length_a                   5.5449(16)
_cell_length_b                   13.819(4)
_cell_length_c                   15.927(5)
_cell_angle_alpha                85.794(8)
_cell_angle_beta                 84.557(8)
_cell_angle_gamma                87.260(7)
_cell_volume                     1210.61
loop_
_atom_site_label
_atom_site_type_symbol
_atom_site_fract_x
_atom_site_fract_y
_atom_site_fract_z
Ag1 Ag 0.67364(4) 0.672919(16) 0.245253(16)
O1 O 0.4392(5) 0.34009(18) 0.40580(16)
O2 O 0.5702(4) 0.21689(14) 0.63841(14)
N1 N 0.4005(4) 0.56934(16) 0.22276(16)
N2 N 0.1644(5) 0.33167(17) 0.30730(17)
H1 H 0.0526 0.2951 0.2922
N3 N 0.2252(6) 0.20318(18) 0.40239(18)
H2 H 0.1033 0.1777 0.3815
N4 N 0.3449(4) 0.08933(16) 0.61607(16)
H3 H 0.3132 0.0280 0.6294
N5 N 0.6270(4) 0.06993(16) 0.71318(17)
H4 H 0.5778 0.0100 0.7200
N6 N 1.1111(4) 0.19707(17) 0.79861(16)
N7 N 0.8864(5) 0.60813(18) 0.36490(18)
C1 C 0.2414(5) 0.59401(19) 0.16569(19)
H5 H 0.2562 0.6542 0.1331
C2 C 0.0560(5) 0.5345(2) 0.15271(19)
H6 H -0.0523 0.5531 0.1111
C3 C 0.0304(5) 0.44786(19) 0.20096(19)
H7 H -0.0977 0.4069 0.1937
C4 C 0.1950(5) 0.42093(18) 0.26075(18)
C5 C 0.3814(5) 0.48358(19) 0.26926(18)
H8 H 0.4969 0.4654 0.3086
C6 C 0.2901(6) 0.2945(2) 0.3743(2)
C7 C 0.3533(6) 0.1472(2) 0.4662(2)
H9 H 0.5123 0.1757 0.4694
H10 H 0.3837 0.0799 0.4492
C8 C 0.2123(5) 0.1449(2) 0.55309(19)
H11 H 0.1805 0.2121 0.5701
H12 H 0.0541 0.1156 0.5502
C9 C 0.5168(5) 0.13114(18) 0.65432(18)
C10 C 0.8079(5) 0.09257(18) 0.76317(18)
C11 C 0.8773(6) 0.0231(2) 0.8254(2)
H13 H 0.7974 -0.0366 0.8349
C12 C 1.0635(6) 0.0419(2) 0.8731(2)
H14 H 1.1129 -0.0046 0.9156
C13 C 1.1775(5) 0.1299(2) 0.8580(2)
H15 H 1.3058 0.1426 0.8906
C14 C 0.9283(5) 0.18002(19) 0.75278(18)
H16 H 0.8791 0.2288 0.7120
C15 C 1.0341(6) 0.6011(2) 0.4101(2)
C16 C 1.2251(7) 0.5920(3) 0.4678(2)
H17 H 1.2938 0.5252 0.4700
H18 H 1.1569 0.6076 0.5244
H19 H 1.3528 0.6369 0.4476
Ag1A Ag 1.32636(4) 0.327081(16) 0.754747(16)
N6A N 0.8889(4) 0.80293(17) 0.20139(16)
Cl1 Cl 0.57718(17) 0.38791(6) 0.05353(6)
Cl2 Cl 0.66724(15) 0.19019(6) 0.00332(6)
Cl3 Cl 0.18823(19) 0.25443(10) 0.06420(11)
C17 C 0.4955(6) 0.2661(2) 0.0739(2)
H20 H 0.5295 0.2441 0.1330
O3 O -0.1690(4) 0.10583(16) 0.32351(15)
O4 O -0.4495(4) 0.11674(16) 0.23594(16)
O5 O -0.2082(6) 0.2332(2) 0.23680(19)
N8 N -0.2749(5) 0.15147(18) 0.26561(17)
loop_
_geom_bond_atom_site_label_1
_geom_bond_atom_site_label_2
_geom_bond_site_symmetry_1
_geom_bond_site_symmetry_2
Ag1 N1 1_555 1_555
Cl1 C17 1_555 1_555
Cl2 C17 1_555 1_555
Cl3 C17 1_555 1_555
O1 C6 1_555 1_555
O2 C9 1_555 1_555
O3 N8 1_555 1_555
O4 N8 1_555 1_555
O5 N8 1_555 1_555
N1 C1 1_555 1_555
N2 H1 1_555 1_555
N3 H2 1_555 1_555
N4 H3 1_555 1_555
N5 H4 1_555 1_555
N6 C13 1_555 1_555
N7 Ag1 1_555 1_555
C1 H5 1_555 1_555
C2 C1 1_555 1_555
H6 C2 1_555 1_555
C3 C2 1_555 1_555
H7 C3 1_555 1_555
C4 N2 1_555 1_555
C5 N1 1_555 1_555
H8 C5 1_555 1_555
C6 N2 1_555 1_555
C7 N3 1_555 1_555
H9 C7 1_555 1_555
H10 C7 1_555 1_555
C8 N4 1_555 1_555
H11 C8 1_555 1_555
H12 C8 1_555 1_555
C9 N4 1_555 1_555
C10 N5 1_555 1_555
C11 C10 1_555 1_555
H13 C11 1_555 1_555
C12 C11 1_555 1_555
H14 C12 1_555 1_555
C13 C12 1_555 1_555
H15 C13 1_555 1_555
C14 N6 1_555 1_555
H16 C14 1_555 1_555
C15 N7 1_555 1_555
C16 C15 1_555 1_555
H17 C16 1_555 1_555
H18 C16 1_555 1_555
H19 C16 1_555 1_555
C17 H20 1_555 1_555
Ag1A N6 1_555 1_555
N6A Ag1 1_555 1_555
N3 C6 1_555 1_555
N5 C9 1_555 1_555
C3 C4 1_555 1_555
C4 C5 1_555 1_555
C7 C8 1_555 1_555
C10 C14 1_555 1_555

#END
