
#######################################################################
#
#                 Cambridge Crystallographic Data Centre
#                                CCDC 
#
#######################################################################
#
# If this CIF has been generated from an entry in the Cambridge 
# Structural Database, then it will include bibliographic, chemical, 
# crystal, experimental, refinement or atomic coordinate data resulting 
# from the CCDC's data processing and validation procedures.
#
#######################################################################

data_KAJGOT
_symmetry_cell_setting           triclinic
_symmetry_space_group_name_H-M   'P -1'
_symmetry_Int_Tables_number      2
_space_group_name_Hall           '-P 1'
loop_
_symmetry_equiv_pos_site_id
_symmetry_equiv_pos_as_xyz
1 x,y,z
2 -x,-y,-z
_cell_length_a                   9.1412(13)
_cell_length_b                   9.2472(12)
_cell_length_c                   11.3257(15)
_cell_angle_alpha                84.346(4)
_cell_angle_beta                 84.501(4)
_cell_angle_gamma                87.385(4)
_cell_volume                     947.692
loop_
_atom_site_label
_atom_site_type_symbol
_atom_site_fract_x
_atom_site_fract_y
_atom_site_fract_z
Ag1 Ag 0.256754(17) 0.019736(17) 0.497460(14)
O1 O 0.13035(14) 0.20858(14) 0.06642(12)
O2 O 0.37077(13) -0.20822(14) 0.92321(12)
N1 N 0.11160(17) -0.05786(17) 0.38113(14)
N2 N -0.08537(16) 0.09494(16) 0.12594(13)
H2 H -0.1743 0.0847 0.1050
N3 N -0.08624(17) 0.31760(16) 0.01717(14)
H3 H -0.1822 0.3107 0.0195
N4 N 0.58151(17) -0.31634(16) 0.98601(14)
H4 H 0.6767 -0.3090 0.9892
N5 N 0.58920(16) -0.09612(16) 0.87402(14)
H5 H 0.6792 -0.0916 0.8946
N6 N 0.40177(17) 0.08013(17) 0.62127(14)
C1 C 0.0654(2) 0.0343(2) 0.29210(16)
H6 H 0.1007 0.1302 0.2812
C2 C -0.03299(19) -0.00621(19) 0.21466(16)
C3 C -0.0840(2) -0.1459(2) 0.23176(17)
H7 H -0.1504 -0.1767 0.1805
C4 C -0.0374(2) -0.2406(2) 0.32456(18)
H8 H -0.0727 -0.3364 0.3384
C5 C 0.0614(2) -0.1937(2) 0.39698(18)
H9 H 0.0946 -0.2593 0.4596
C6 C -0.00616(19) 0.2083(2) 0.07039(16)
C7 C -0.0178(2) 0.4465(2) -0.04391(17)
H10 H -0.0848 0.4956 -0.1002
H11 H 0.0741 0.4172 -0.0906
C8 C 0.5098(2) -0.44451(19) 1.04418(16)
H12 H 0.4122 -0.4155 1.0823
H13 H 0.5692 -0.4899 1.1075
C9 C 0.50584(19) -0.20792(19) 0.92701(16)
C10 C 0.4452(2) -0.02026(19) 0.70669(16)
H14 H 0.4098 -0.1158 0.7111
C11 C 0.54073(19) 0.01199(19) 0.78884(16)
C12 C 0.5929(2) 0.15125(19) 0.78122(17)
H15 H 0.6583 0.1762 0.8357
C13 C 0.5481(2) 0.2535(2) 0.69294(18)
H16 H 0.5833 0.3493 0.6858
C14 C 0.4517(2) 0.2153(2) 0.61537(18)
H17 H 0.4199 0.2867 0.5562
Ag1A Ag -0.256754(17) 0.980264(17) -0.497460(14)
Ag1A_2 Ag 0.743246(17) -1.019736(17) 1.502540(14)
O1A O -0.13035(14) 0.79142(14) -0.06642(12)
O2A O 0.62923(13) -0.79178(14) 1.07679(12)
N1A N -0.11160(17) 1.05786(17) -0.38113(14)
N1A_2 N 0.88840(17) -0.94214(17) 1.61887(14)
N2A N 0.08537(16) 0.90506(16) -0.12594(13)
H2A H 0.1743 0.9153 -0.1050
N3A N 0.08624(17) 0.68240(16) -0.01717(14)
H3A H 0.1822 0.6893 -0.0195
N4A N 0.41849(17) -0.68366(16) 1.01399(14)
H4A H 0.3233 -0.6910 1.0108
N5A N 0.41080(16) -0.90388(16) 1.12598(14)
H5A H 0.3208 -0.9084 1.1054
N6A N 0.59823(17) -1.08013(17) 1.37873(14)
C1A C -0.0654(2) 0.9657(2) -0.29210(16)
H6A H -0.1007 0.8698 -0.2812
C2A C 0.03299(19) 1.00621(19) -0.21466(16)
C3A C 0.0840(2) 1.1459(2) -0.23176(17)
H7A H 0.1504 1.1767 -0.1805
C4A C 0.0374(2) 1.2406(2) -0.32456(18)
H8A H 0.0727 1.3364 -0.3384
C5A C -0.0614(2) 1.1937(2) -0.39698(18)
H9A H -0.0946 1.2593 -0.4596
C6A C 0.00616(19) 0.7917(2) -0.07039(16)
C7A C 0.0178(2) 0.5535(2) 0.04391(17)
H10A H 0.0848 0.5044 0.1002
H11A H -0.0741 0.5828 0.0906
C8A C 0.4902(2) -0.55549(19) 0.95582(16)
H12A H 0.5878 -0.5845 0.9177
H13A H 0.4308 -0.5101 0.8925
C9A C 0.49416(19) -0.79208(19) 1.07299(16)
C10A C 0.5548(2) -0.97974(19) 1.29331(16)
H14A H 0.5902 -0.8842 1.2889
C11A C 0.45927(19) -1.01199(19) 1.21116(16)
C12A C 0.4071(2) -1.15125(19) 1.21878(17)
H15A H 0.3417 -1.1762 1.1643
C13A C 0.4519(2) -1.2535(2) 1.30706(18)
H16A H 0.4167 -1.3493 1.3142
C14A C 0.5483(2) -1.2153(2) 1.38463(18)
H17A H 0.5801 -1.2867 1.4438
F1 F 0.77620(14) 0.26661(13) 0.34747(13)
F2 F 0.55164(13) 0.37687(13) 0.32669(13)
F3 F 0.75685(14) 0.49674(14) 0.25600(12)
F4 F 0.70200(19) 0.45487(15) 0.45424(13)
B1 B 0.6977(3) 0.3999(2) 0.3465(2)
O3 O 0.26257(17) 0.28573(17) 0.35957(16)
H1 H 0.3488 0.3153 0.3518
C15 C 0.1634(3) 0.4041(3) 0.3456(2)
H18 H 0.1478 0.4508 0.4200
H19 H 0.0695 0.3704 0.3256
H20 H 0.2032 0.4742 0.2813
loop_
_geom_bond_atom_site_label_1
_geom_bond_atom_site_label_2
_geom_bond_site_symmetry_1
_geom_bond_site_symmetry_2
Ag1 N1 1_555 1_555
F1 B1 1_555 1_555
F2 B1 1_555 1_555
F3 B1 1_555 1_555
F4 B1 1_555 1_555
O1 C6 1_555 1_555
O2 C9 1_555 1_555
O3 H1 1_555 1_555
N1 C1 1_555 1_555
N2 H2 1_555 1_555
N3 H3 1_555 1_555
N4 H4 1_555 1_555
N5 H5 1_555 1_555
N6 Ag1 1_555 1_555
C1 H6 1_555 1_555
C2 N2 1_555 1_555
C3 C2 1_555 1_555
H7 C3 1_555 1_555
C4 C3 1_555 1_555
H8 C4 1_555 1_555
C5 N1 1_555 1_555
H9 C5 1_555 1_555
C6 N2 1_555 1_555
C7 N3 1_555 1_555
H10 C7 1_555 1_555
H11 C7 1_555 1_555
C8 N4 1_555 1_555
H12 C8 1_555 1_555
H13 C8 1_555 1_555
C9 N4 1_555 1_555
C10 N6 1_555 1_555
H14 C10 1_555 1_555
C11 N5 1_555 1_555
C12 C11 1_555 1_555
H15 C12 1_555 1_555
C13 C12 1_555 1_555
H16 C13 1_555 1_555
C14 N6 1_555 1_555
H17 C14 1_555 1_555
C15 O3 1_555 1_555
H18 C15 1_555 1_555
H19 C15 1_555 1_555
H20 C15 1_555 1_555
Ag1A N1A 1_555 1_555
Ag1A_2 N1A_2 1_555 1_555
O1A C6A 1_555 1_555
O2A C9A 1_555 1_555
N1A C1A 1_555 1_555
N2A H2A 1_555 1_555
N3A H3A 1_555 1_555
N4A H4A 1_555 1_555
N5A H5A 1_555 1_555
N6A Ag1A_2 1_555 1_555
C1A H6A 1_555 1_555
C2A N2A 1_555 1_555
C3A C2A 1_555 1_555
H7A C3A 1_555 1_555
C4A C3A 1_555 1_555
H8A C4A 1_555 1_555
C5A N1A 1_555 1_555
H9A C5A 1_555 1_555
C6A N2A 1_555 1_555
C7A C7 1_555 1_555
H10A C7A 1_555 1_555
H11A C7A 1_555 1_555
C8A C8 1_555 1_555
H12A C8A 1_555 1_555
H13A C8A 1_555 1_555
C9A N4A 1_555 1_555
C10A N6A 1_555 1_555
H14A C10A 1_555 1_555
C11A N5A 1_555 1_555
C12A C11A 1_555 1_555
H15A C12A 1_555 1_555
C13A C12A 1_555 1_555
H16A C13A 1_555 1_555
C14A N6A 1_555 1_555
H17A C14A 1_555 1_555
N3 C6 1_555 1_555
N5 C9 1_555 1_555
C1 C2 1_555 1_555
C4 C5 1_555 1_555
C10 C11 1_555 1_555
C13 C14 1_555 1_555
N3A C6A 1_555 1_555
N3A C7A 1_555 1_555
N4A C8A 1_555 1_555
N5A C9A 1_555 1_555
C1A C2A 1_555 1_555
C4A C5A 1_555 1_555
C10A C11A 1_555 1_555
C13A C14A 1_555 1_555

#END
