
#######################################################################
#
#                 Cambridge Crystallographic Data Centre
#                                CCDC 
#
#######################################################################
#
# If this CIF has been generated from an entry in the Cambridge 
# Structural Database, then it will include bibliographic, chemical, 
# crystal, experimental, refinement or atomic coordinate data resulting 
# from the CCDC's data processing and validation procedures.
#
#######################################################################

data_KAKTIA
_symmetry_cell_setting           orthorhombic
_symmetry_space_group_name_H-M   'P 21 21 21'
_symmetry_Int_Tables_number      19
_space_group_name_Hall           'P 2ac 2ab'
loop_
_symmetry_equiv_pos_site_id
_symmetry_equiv_pos_as_xyz
1 x,y,z
2 1/2-x,-y,1/2+z
3 -x,1/2+y,1/2-z
4 1/2+x,1/2-y,-z
_cell_length_a                   19.065(4)
_cell_length_b                   3.7262(7)
_cell_length_c                   10.572(2)
_cell_angle_alpha                90
_cell_angle_beta                 90
_cell_angle_gamma                90
_cell_volume                     751.035
loop_
_atom_site_label
_atom_site_type_symbol
_atom_site_fract_x
_atom_site_fract_y
_atom_site_fract_z
Cu1 Cu 0.49755(4) 0.0426(3) 0.14877(9)
Cu2 Cu 0.45395(4) -0.1533(3) -0.17584(12)
Cl1 Cl 0.50720(9) 0.3342(4) -0.08599(16)
C1 C 0.2606(3) 0.3874(17) 0.3824(6)
H1 H 0.2864 0.4917 0.4474
N1 N 0.1487(3) 0.2171(13) 0.2994(6)
C2 C 0.1882(3) 0.3614(17) 0.3908(7)
H2 H 0.1662 0.4481 0.4631
C3 C 0.1819(3) 0.0920(15) 0.1948(7)
H3 H 0.1554 -0.0119 0.1307
C4 C 0.2537(3) 0.1138(16) 0.1805(7)
H4 H 0.2748 0.0327 0.1064
C5 C 0.2939(3) 0.2552(14) 0.2755(6)
C6 C 0.3737(3) 0.2709(17) 0.2639(6)
O1 O 0.3997(2) 0.1224(15) 0.1686(5)
O2 O 0.4053(2) 0.4255(15) 0.3506(5)
Cu1B Cu 0.50245(4) 0.5426(3) 0.35123(9)
Cu2A Cu 0.04605(4) 0.1533(3) 0.32416(12)
Cu2_2 Cu 0.45395(4) 0.8467(3) -0.17584(12)
Cu2B Cu 0.54605(4) 0.3467(3) -0.32416(12)
Cl1_2 Cl 0.50720(9) -0.6658(4) -0.08599(16)
Cl1B Cl 0.49280(9) -0.1658(4) -0.41401(16)
N1A N 0.3513(3) -0.2171(13) -0.2006(6)
O2B O 0.5947(2) -0.0745(15) 0.1494(5)
loop_
_geom_bond_atom_site_label_1
_geom_bond_atom_site_label_2
_geom_bond_site_symmetry_1
_geom_bond_site_symmetry_2
Cu1 Cl1 1_555 1_555
Cu2 Cl1 1_555 1_555
Cl1 Cu2_2 1_555 1_555
C1 H1 1_555 1_555
N1 C2 1_555 1_555
C2 C1 1_555 1_555
H2 C2 1_555 1_555
C3 N1 1_555 1_555
H3 C3 1_555 1_555
C4 C3 1_555 1_555
H4 C4 1_555 1_555
C5 C1 1_555 1_555
C6 C5 1_555 1_555
O1 Cu1 1_555 1_555
O2 C6 1_555 1_555
Cu1B O2 1_555 1_555
Cu2A N1 1_555 1_555
Cu2B Cl1 1_555 1_555
Cl1_2 Cu2 1_555 1_555
Cl1B Cu2 1_555 1_555
N1A Cu2 1_555 1_555
O2B Cu1 1_555 1_555
C4 C5 1_555 1_555
C6 O1 1_555 1_555
Cu2B Cl1B 1_555 1_555

#END
