
#######################################################################
#
#                 Cambridge Crystallographic Data Centre
#                                CCDC 
#
#######################################################################
#
# If this CIF has been generated from an entry in the Cambridge 
# Structural Database, then it will include bibliographic, chemical, 
# crystal, experimental, refinement or atomic coordinate data resulting 
# from the CCDC's data processing and validation procedures.
#
#######################################################################

data_KALCAC03
_symmetry_cell_setting           monoclinic
_symmetry_space_group_name_H-M   'P 21/c'
_symmetry_Int_Tables_number      14
_space_group_name_Hall           '-P 2ybc'
loop_
_symmetry_equiv_pos_site_id
_symmetry_equiv_pos_as_xyz
1 x,y,z
2 -x,1/2+y,1/2-z
3 -x,-y,-z
4 x,1/2-y,1/2+z
_cell_length_a                   6.1035(19)
_cell_length_b                   15.304(5)
_cell_length_c                   9.791(3)
_cell_angle_alpha                90
_cell_angle_beta                 102.780(3)
_cell_angle_gamma                90
_cell_volume                     891.901
loop_
_atom_site_label
_atom_site_type_symbol
_atom_site_fract_x
_atom_site_fract_y
_atom_site_fract_z
Cd1 Cd 0.11612(6) 0.09695(2) 0.31764(4)
Cd2 Cd 0.5000 0.0000 0.0000
O1 O 0.1695(6) -0.0703(2) -0.0806(4)
O2 O -0.0424(7) -0.1860(3) -0.1332(4)
O3 O 0.5663(5) -0.1287(2) 0.1278(4)
H1 H 0.6902 -0.1650 0.1338
O4 O 0.1670(6) -0.0535(2) 0.3157(4)
O5 O 0.3841(6) 0.0178(2) 0.2021(4)
O6 O 0.6720(6) -0.2115(2) 0.5571(4)
O7 O 0.6781(7) -0.0868(2) 0.4483(4)
O8 O -0.2032(7) 0.0910(3) 0.4006(5)
C1 C 0.1007(8) -0.1441(3) -0.0481(6)
C2 C 0.1811(8) -0.1846(3) 0.0955(5)
H2 H 0.0561 -0.1843 0.1419
H3 H 0.2177 -0.2453 0.0824
C3 C 0.3844(8) -0.1428(3) 0.1959(5)
C4 C 0.3094(8) -0.0531(3) 0.2427(5)
C5 C 0.4540(9) -0.2031(3) 0.3229(5)
C6 C 0.6131(8) -0.1646(3) 0.4492(5)
H4 H 0.523(9) -0.256(4) 0.293(6)
H5 H 0.325(11) -0.222(4) 0.347(7)
H6 H -0.31(3) 0.105(16) 0.323(14)
H7 H -0.192(12) 0.084(5) 0.492(3)
Cd1_2 Cd 1.11612(6) 0.09695(2) 0.31764(4)
Cd1B Cd -0.11612(6) -0.09695(2) -0.31764(4)
Cd1B_2 Cd 0.88388(6) -0.09695(2) 0.68236(4)
Cd1B_3 Cd 0.88388(6) -0.09695(2) -0.31764(4)
Cd1_3 Cd 0.11612(6) 0.09695(2) -0.68236(4)
O1B O 0.8305(6) 0.0703(2) 0.0806(4)
O1B_2 O -0.1695(6) 0.0703(2) 0.0806(4)
O1_2 O 1.1695(6) -0.0703(2) -0.0806(4)
O2B O 1.0424(7) 0.1860(3) 0.1332(4)
O2B_2 O 0.0424(7) 0.1860(3) 0.1332(4)
O2_2 O 0.9576(7) -0.1860(3) -0.1332(4)
O3B O 0.4337(5) 0.1287(2) -0.1278(4)
H1B H 0.3098 0.1650 -0.1338
O4B O 0.8330(6) 0.0535(2) -0.3157(4)
O5B O 0.6159(6) -0.0178(2) -0.2021(4)
O6B O 0.3280(6) 0.2115(2) -0.5571(4)
O6B_2 O 0.3280(6) 0.2115(2) 0.4429(4)
O6_2 O 0.6720(6) -0.2115(2) -0.4429(4)
O7B O 0.3219(7) 0.0868(2) -0.4483(4)
O7B_2 O 0.3219(7) 0.0868(2) 0.5517(4)
O7_2 O 0.6781(7) -0.0868(2) -0.5517(4)
O8B O 1.2032(7) -0.0910(3) -0.4006(5)
C1B C 0.8993(8) 0.1441(3) 0.0481(6)
C2B C 0.8189(8) 0.1846(3) -0.0955(5)
H2B H 0.9439 0.1843 -0.1419
H3B H 0.7823 0.2453 -0.0824
C3B C 0.6156(8) 0.1428(3) -0.1959(5)
C4B C 0.6906(8) 0.0531(3) -0.2427(5)
C5B C 0.5460(9) 0.2031(3) -0.3229(5)
C6B C 0.3869(8) 0.1646(3) -0.4492(5)
H4B H 0.477(9) 0.256(4) -0.293(6)
H5B H 0.675(11) 0.222(4) -0.347(7)
H6B H 1.31(3) -0.105(16) -0.323(14)
H7B H 1.192(12) -0.084(5) -0.492(3)
loop_
_geom_bond_atom_site_label_1
_geom_bond_atom_site_label_2
_geom_bond_site_symmetry_1
_geom_bond_site_symmetry_2
Cd1 O4 1_555 1_555
Cd2 O1 1_555 1_555
O1 C1 1_555 1_555
O2 C1 1_555 1_555
O3 Cd2 1_555 1_555
H1 O3 1_555 1_555
O4 C4 1_555 1_555
O5 Cd1 1_555 1_555
O6 C6 1_555 1_555
O7 C6 1_555 1_555
O8 Cd1 1_555 1_555
C1 C2 1_555 1_555
C2 H2 1_555 1_555
H3 C2 1_555 1_555
C3 O3 1_555 1_555
C4 O5 1_555 1_555
C5 C3 1_555 1_555
C6 C5 1_555 1_555
H4 C5 1_555 1_555
H5 C5 1_555 1_555
H6 O8 1_555 1_555
H7 O8 1_555 1_555
Cd1_2 O1B 1_555 1_555
Cd1B O1 1_555 1_555
Cd1B_2 O6 1_555 1_555
Cd1B_3 O1_2 1_555 1_555
Cd1_3 O6B 1_555 1_555
O1B Cd2 1_555 1_555
O1B_2 Cd1 1_555 1_555
O2B Cd1_2 1_555 1_555
O2B_2 Cd1 1_555 1_555
O2_2 Cd1B_3 1_555 1_555
O3B Cd2 1_555 1_555
H1B O3B 1_555 1_555
O4B Cd1B_3 1_555 1_555
O5B Cd2 1_555 1_555
O6B C6B 1_555 1_555
O6B_2 Cd1 1_555 1_555
O6_2 Cd1B_3 1_555 1_555
O7B Cd1_3 1_555 1_555
O7B_2 Cd1 1_555 1_555
O7_2 Cd1B_3 1_555 1_555
O8B Cd1B_3 1_555 1_555
C1B O1B 1_555 1_555
C2B C1B 1_555 1_555
H2B C2B 1_555 1_555
H3B C2B 1_555 1_555
C3B O3B 1_555 1_555
C4B O4B 1_555 1_555
C5B C3B 1_555 1_555
C6B O7B 1_555 1_555
H4B C5B 1_555 1_555
H5B C5B 1_555 1_555
H6B O8B 1_555 1_555
H7B O8B 1_555 1_555
Cd2 O5 1_555 1_555
O2 Cd1B 1_555 1_555
O7 Cd1B_2 1_555 1_555
C2 C3 1_555 1_555
C3 C4 1_555 1_555
Cd1B_3 O5B 1_555 1_555
O2B C1B 1_555 1_555
O5B C4B 1_555 1_555
C2B C3B 1_555 1_555
C3B C4B 1_555 1_555
C5B C6B 1_555 1_555

#END
