
#######################################################################
#
#                 Cambridge Crystallographic Data Centre
#                                CCDC 
#
#######################################################################
#
# If this CIF has been generated from an entry in the Cambridge 
# Structural Database, then it will include bibliographic, chemical, 
# crystal, experimental, refinement or atomic coordinate data resulting 
# from the CCDC's data processing and validation procedures.
#
#######################################################################

data_KALCUW
_symmetry_cell_setting           orthorhombic
_symmetry_space_group_name_H-M   'P b a 2'
_symmetry_Int_Tables_number      32
_space_group_name_Hall           'P 2 -2ab'
loop_
_symmetry_equiv_pos_site_id
_symmetry_equiv_pos_as_xyz
1 x,y,z
2 -x,-y,z
3 1/2-x,1/2+y,z
4 1/2+x,1/2-y,z
_cell_length_a                   11.180(2)
_cell_length_b                   37.010(7)
_cell_length_c                   7.9740(16)
_cell_angle_alpha                90
_cell_angle_beta                 90
_cell_angle_gamma                90
_cell_volume                     3299.42
loop_
_atom_site_label
_atom_site_type_symbol
_atom_site_fract_x
_atom_site_fract_y
_atom_site_fract_z
Zn1 Zn 0.39493(5) 0.046053(14) 0.36980(11)
Zn2 Zn 0.36932(5) -0.038039(14) -0.12471(11)
O1 O 0.4019(4) 0.05918(10) 0.6046(5)
O2 O 0.2808(4) -0.03645(11) 0.0845(6)
O3 O 0.2916(3) 0.08171(10) 1.2601(6)
O4 O 0.1795(4) -0.13686(10) 0.7259(6)
O5 O 0.3049(4) 0.00219(10) 0.3409(6)
O6 O 0.2872(4) -0.07814(10) 0.7665(6)
O7 O 0.3257(4) 0.29448(11) 0.7178(7)
H1 H 0.3173 0.3170 0.7204
O8 O 0.4617(4) 0.04411(9) 0.9033(6)
O9 O 0.1259(4) 0.29480(11) 0.7459(7)
O10 O 0.1197(4) -0.29032(11) 0.2327(7)
O11 O 0.1857(3) 0.14095(10) 1.2171(6)
O12 O 0.3182(4) -0.28936(11) 0.2088(7)
H2 H 0.3103 -0.3119 0.2117
O13 O 0.4023(4) -0.13585(11) 0.7875(6)
H3 H 0.3944 -0.1583 0.7752
O14 O 0.4468(4) -0.05075(10) 0.2858(6)
O15 O 0.3170(4) 0.00364(10) 0.7470(6)
O16 O 0.4076(4) 0.13948(11) 1.2803(6)
H4 H 0.4005 0.1619 1.2666
C1 C 0.2247(5) -0.15826(15) 0.1972(9)
C2 C 0.2326(6) -0.11751(15) 0.1976(9)
H5 H 0.1659 -0.1073 0.1309
H6 H 0.3087 -0.1099 0.1449
C3 C 0.3272(6) -0.11660(16) 0.4852(9)
H7 H 0.3988 -0.1015 0.4650
H8 H 0.3471 -0.1416 0.4518
C4 C 0.3268(6) -0.17834(16) 0.1648(8)
H9 H 0.3996 -0.1664 0.1385
C5 C 0.2131(6) -0.27407(16) 0.2175(10)
C6 C 0.3343(6) 0.18417(16) 0.6564(9)
H10 H 0.4053 0.1724 0.6204
C7 C 0.3377(6) 0.12010(15) 0.9767(9)
H11 H 0.3574 0.1452 0.9433
H12 H 0.4100 0.1051 0.9596
C8 C 0.2344(6) 0.16388(15) 0.6990(9)
C9 C 0.2259(5) 0.23864(15) 0.7187(9)
C10 C 0.1301(6) 0.18120(16) 0.7497(10)
H13 H 0.0617 0.1673 0.7786
C11 C 0.2417(6) 0.12302(15) 0.6893(9)
H14 H 0.3164 0.1159 0.6314
H15 H 0.1734 0.1137 0.6230
C12 C 0.1200(6) -0.17635(17) 0.2311(12)
H16 H 0.0489 -0.1629 0.2513
C13 C 0.3236(6) -0.21605(16) 0.1704(9)
H17 H 0.3940 -0.2295 0.1473
C14 C 0.1254(6) 0.21845(16) 0.7584(10)
H18 H 0.0536 0.2302 0.7914
C15 C 0.1160(6) -0.21382(17) 0.2365(11)
H19 H 0.0426 -0.2258 0.2589
C16 C 0.2192(5) -0.23382(15) 0.2091(10)
C17 C 0.2209(6) 0.27905(15) 0.7268(9)
C18 C 0.3311(6) 0.22137(16) 0.6659(9)
H20 H 0.3996 0.2352 0.6369
C19 C 0.2344(5) 0.06570(14) 0.8515(10)
H21 H 0.1648 0.0594 0.7804
H22 H 0.2180 0.0560 0.9649
C20 C 0.2160(5) -0.06168(13) 0.3832(10)
H23 H 0.2223 -0.0543 0.5023
H24 H 0.1348 -0.0550 0.3446
P1 P 0.32329(14) -0.03480(4) 0.2636(2)
P2 P 0.36495(15) 0.04141(4) 0.7679(2)
P3 P 0.29865(14) 0.11963(4) 1.1980(2)
P4 P 0.29326(15) -0.11598(4) 0.7056(2)
N1 N 0.2265(4) -0.10309(10) 0.3758(8)
H25 H 0.1562 -0.1122 0.4220
N2 N 0.2393(4) 0.10617(11) 0.8648(8)
H26 H 0.1676 0.1133 0.9138
Zn1_2 Zn 0.39493(5) 0.046053(14) 1.36980(11)
Zn1A Zn 0.60507(5) -0.046053(14) 0.36980(11)
Zn2_2 Zn 0.36932(5) -0.038039(14) 0.87529(11)
Zn2A Zn 0.63068(5) 0.038039(14) 0.87529(11)
O3_2 O 0.2916(3) 0.08171(10) 0.2601(6)
O6_2 O 0.2872(4) -0.07814(10) -0.2335(6)
O8A O 0.5383(4) -0.04411(9) -0.0967(6)
O14A O 0.5532(4) 0.05075(10) 0.2858(6)
O15_2 O 0.3170(4) 0.00364(10) -0.2530(6)
O17 O -0.0047(4) 0.10241(12) 0.9165(6)
O18 O 0.0224(4) 0.10193(11) 0.4139(6)
O19 O -0.0427(8) 0.0327(2) 1.0071(12)
O20 O 0.0766(11) 0.0251(3) 0.4823(17)
O21 O -0.0484(11) 0.0211(3) 0.7886(16)
O22? O 0.0655(8) 0.0277(2) 0.3228(13)
loop_
_geom_bond_atom_site_label_1
_geom_bond_atom_site_label_2
_geom_bond_site_symmetry_1
_geom_bond_site_symmetry_2
Zn1 O1 1_555 1_555
Zn2 O2 1_555 1_555
O1 P2 1_555 1_555
O2 P1 1_555 1_555
O3 P3 1_555 1_555
O4 P4 1_555 1_555
O5 Zn1 1_555 1_555
O6 P4 1_555 1_555
O7 H1 1_555 1_555
O8 P2 1_555 1_555
O9 C17 1_555 1_555
O10 C5 1_555 1_555
O11 P3 1_555 1_555
O12 H2 1_555 1_555
O13 H3 1_555 1_555
O14 P1 1_555 1_555
O15 P2 1_555 1_555
O16 H4 1_555 1_555
C1 C2 1_555 1_555
C2 H5 1_555 1_555
H6 C2 1_555 1_555
C3 H7 1_555 1_555
H8 C3 1_555 1_555
C4 C1 1_555 1_555
H9 C4 1_555 1_555
C5 O12 1_555 1_555
C6 H10 1_555 1_555
C7 H11 1_555 1_555
H12 C7 1_555 1_555
C8 C6 1_555 1_555
C9 C14 1_555 1_555
C10 C8 1_555 1_555
H13 C10 1_555 1_555
C11 C8 1_555 1_555
H14 C11 1_555 1_555
H15 C11 1_555 1_555
C12 C1 1_555 1_555
H16 C12 1_555 1_555
C13 C4 1_555 1_555
H17 C13 1_555 1_555
C14 C10 1_555 1_555
H18 C14 1_555 1_555
C15 C12 1_555 1_555
H19 C15 1_555 1_555
C16 C5 1_555 1_555
C17 O7 1_555 1_555
C18 C6 1_555 1_555
H20 C18 1_555 1_555
C19 H21 1_555 1_555
H22 C19 1_555 1_555
C20 H23 1_555 1_555
H24 C20 1_555 1_555
P1 O5 1_555 1_555
P2 C19 1_555 1_555
P3 O16 1_555 1_555
P4 O13 1_555 1_555
N1 C2 1_555 1_555
H25 N1 1_555 1_555
N2 C7 1_555 1_555
H26 N2 1_555 1_555
Zn1_2 O3 1_555 1_555
Zn1A O14 1_555 1_555
Zn2_2 O6 1_555 1_555
Zn2A O8 1_555 1_555
O3_2 Zn1 1_555 1_555
O6_2 Zn2 1_555 1_555
O8A Zn2 1_555 1_555
O14A Zn1 1_555 1_555
O15_2 Zn2 1_555 1_555
O15 Zn2_2 1_555 1_555
C3 P4 1_555 1_555
C3 N1 1_555 1_555
C7 P3 1_555 1_555
C9 C17 1_555 1_555
C9 C18 1_555 1_555
C11 N2 1_555 1_555
C13 C16 1_555 1_555
C15 C16 1_555 1_555
C19 N2 1_555 1_555
C20 P1 1_555 1_555
C20 N1 1_555 1_555

#END
