
#######################################################################
#
#                 Cambridge Crystallographic Data Centre
#                                CCDC 
#
#######################################################################
#
# If this CIF has been generated from an entry in the Cambridge 
# Structural Database, then it will include bibliographic, chemical, 
# crystal, experimental, refinement or atomic coordinate data resulting 
# from the CCDC's data processing and validation procedures.
#
#######################################################################

data_KALCAC02
_symmetry_cell_setting           monoclinic
_symmetry_space_group_name_H-M   'P 21/c'
_symmetry_Int_Tables_number      14
_space_group_name_Hall           '-P 2ybc'
loop_
_symmetry_equiv_pos_site_id
_symmetry_equiv_pos_as_xyz
1 x,y,z
2 -x,1/2+y,1/2-z
3 -x,-y,-z
4 x,1/2-y,1/2+z
_cell_length_a                   6.0984(7)
_cell_length_b                   15.2922(17)
_cell_length_c                   9.7860(11)
_cell_angle_alpha                90
_cell_angle_beta                 102.774(2)
_cell_angle_gamma                90
_cell_volume                     890.035
loop_
_atom_site_label
_atom_site_type_symbol
_atom_site_fract_x
_atom_site_fract_y
_atom_site_fract_z
Cd1 Cd 0.5000 -0.5000 -0.5000
Cd2 Cd 0.11612(3) -0.596930(12) -0.182330(19)
O1 O 0.3850(3) -0.51762(12) -0.2980(2)
O2 O 0.1675(3) -0.44661(13) -0.1840(2)
O3 O 0.1694(3) -0.42965(14) -0.5813(2)
O4 O -0.0425(4) -0.31380(15) -0.6336(2)
O5 O 0.6788(4) -0.41297(14) -0.0517(2)
O6 O 0.6715(3) -0.28852(13) 0.0574(2)
O7 O 0.5668(3) -0.37153(13) -0.3718(2)
H1 H 0.603(6) -0.330(2) -0.398(4)
O8 O -0.2025(4) -0.59150(15) -0.0992(3)
H2 H -0.189(8) -0.584(3) -0.016(5)
H3 H -0.283(8) -0.552(3) -0.138(5)
C1 C 0.3105(4) -0.44670(17) -0.2575(3)
C2 C 0.3843(4) -0.35769(17) -0.3039(3)
C3 C 0.1821(4) -0.31567(17) -0.4045(3)
H4 H 0.0571 -0.3152 -0.3580
H5 H 0.2201 -0.2552 -0.4181
C4 C 0.1001(4) -0.35650(18) -0.5482(3)
C5 C 0.4536(4) -0.29729(17) -0.1772(3)
H6 H 0.5232 -0.2456 -0.2065
H7 H 0.3186 -0.2785 -0.1486
C6 C 0.6133(4) -0.33569(17) -0.0509(3)
Cd2B Cd 0.88388(3) -0.403070(12) -0.817670(19)
Cd2B_2 Cd -0.11612(3) -0.403070(12) -0.817670(19)
Cd2B_3 Cd 0.88388(3) -0.403070(12) 0.182330(19)
Cd2_2 Cd 1.11612(3) -0.596930(12) -0.182330(19)
Cd2_3 Cd 0.11612(3) -0.596930(12) -1.182330(19)
O1B O 0.6150(3) -0.48238(12) -0.7020(2)
O2B O 0.8325(3) -0.55339(13) -0.8160(2)
O3B O 0.8306(3) -0.57035(14) -0.4187(2)
O3_2 O 1.1694(3) -0.42965(14) -0.5813(2)
O3B_2 O -0.1694(3) -0.57035(14) -0.4187(2)
O4B O 0.0425(4) -0.68620(15) -0.3664(2)
O4B_2 O 1.0425(4) -0.68620(15) -0.3664(2)
O4_2 O 0.9575(4) -0.31380(15) -0.6336(2)
O5B O 0.3212(4) -0.58703(14) 0.0517(2)
O5B_2 O 0.3212(4) -0.58703(14) -0.9483(2)
O5_2 O 0.6788(4) -0.41297(14) -1.0517(2)
O6B O 0.3285(3) -0.71148(13) -0.0574(2)
O6B_2 O 0.3285(3) -0.71148(13) -1.0574(2)
O6_2 O 0.6715(3) -0.28852(13) -0.9426(2)
O7B O 0.4332(3) -0.62847(13) -0.6282(2)
H1B H 0.397(6) -0.670(2) -0.602(4)
O8B O 1.2025(4) -0.40850(15) -0.9008(3)
H2B H 1.189(8) -0.416(3) -0.984(5)
H3B H 1.283(8) -0.448(3) -0.862(5)
C1B C 0.6895(4) -0.55330(17) -0.7425(3)
C2B C 0.6157(4) -0.64231(17) -0.6961(3)
C3B C 0.8179(4) -0.68433(17) -0.5955(3)
H4B H 0.9429 -0.6848 -0.6420
H5B H 0.7799 -0.7448 -0.5819
C4B C 0.8999(4) -0.64350(18) -0.4518(3)
C5B C 0.5464(4) -0.70271(17) -0.8228(3)
H6B H 0.4768 -0.7544 -0.7935
H7B H 0.6814 -0.7215 -0.8514
C6B C 0.3867(4) -0.66431(17) -0.9491(3)
loop_
_geom_bond_atom_site_label_1
_geom_bond_atom_site_label_2
_geom_bond_site_symmetry_1
_geom_bond_site_symmetry_2
Cd1 O1 1_555 1_555
Cd2 O1 1_555 1_555
O1 C1 1_555 1_555
O2 Cd2 1_555 1_555
O3 Cd1 1_555 1_555
O4 C4 1_555 1_555
O5 C6 1_555 1_555
O6 C6 1_555 1_555
O7 Cd1 1_555 1_555
H1 O7 1_555 1_555
O8 Cd2 1_555 1_555
H2 O8 1_555 1_555
H3 O8 1_555 1_555
C1 O2 1_555 1_555
C2 O7 1_555 1_555
C3 C2 1_555 1_555
H4 C3 1_555 1_555
H5 C3 1_555 1_555
C4 O3 1_555 1_555
C5 C2 1_555 1_555
H6 C5 1_555 1_555
H7 C5 1_555 1_555
C6 C5 1_555 1_555
Cd2B O1B 1_555 1_555
Cd2B_2 O3 1_555 1_555
Cd2B_3 O5 1_555 1_555
Cd2_2 O3B 1_555 1_555
Cd2_3 O5B_2 1_555 1_555
O1B Cd1 1_555 1_555
O2B Cd2B 1_555 1_555
O3B Cd1 1_555 1_555
O3_2 Cd2B 1_555 1_555
O3B_2 Cd2 1_555 1_555
O4B Cd2 1_555 1_555
O4B_2 Cd2_2 1_555 1_555
O4_2 Cd2B 1_555 1_555
O5B Cd2 1_555 1_555
O5B_2 C6B 1_555 1_555
O5_2 Cd2B 1_555 1_555
O6B Cd2 1_555 1_555
O6B_2 Cd2_3 1_555 1_555
O6_2 Cd2B 1_555 1_555
O7B Cd1 1_555 1_555
H1B O7B 1_555 1_555
O8B Cd2B 1_555 1_555
H2B O8B 1_555 1_555
H3B O8B 1_555 1_555
C1B O1B 1_555 1_555
C2B O7B 1_555 1_555
C3B C2B 1_555 1_555
H4B C3B 1_555 1_555
H5B C3B 1_555 1_555
C4B O3B 1_555 1_555
C5B C2B 1_555 1_555
H6B C5B 1_555 1_555
H7B C5B 1_555 1_555
C6B O6B_2 1_555 1_555
O4 Cd2B_2 1_555 1_555
O6 Cd2B_3 1_555 1_555
C1 C2 1_555 1_555
C3 C4 1_555 1_555
O2B C1B 1_555 1_555
O4B_2 C4B 1_555 1_555
C1B C2B 1_555 1_555
C3B C4B 1_555 1_555
C5B C6B 1_555 1_555

#END
