
#######################################################################
#
#                 Cambridge Crystallographic Data Centre
#                                CCDC 
#
#######################################################################
#
# If this CIF has been generated from an entry in the Cambridge 
# Structural Database, then it will include bibliographic, chemical, 
# crystal, experimental, refinement or atomic coordinate data resulting 
# from the CCDC's data processing and validation procedures.
#
#######################################################################

data_KALDAD
_symmetry_cell_setting           triclinic
_symmetry_space_group_name_H-M   'P -1'
_symmetry_Int_Tables_number      2
_space_group_name_Hall           '-P 1'
loop_
_symmetry_equiv_pos_site_id
_symmetry_equiv_pos_as_xyz
1 x,y,z
2 -x,-y,-z
_cell_length_a                   6.08900(10)
_cell_length_b                   8.0971(3)
_cell_length_c                   16.6445(5)
_cell_angle_alpha                94.320(2)
_cell_angle_beta                 95.0180(10)
_cell_angle_gamma                102.460(2)
_cell_volume                     794.476
loop_
_atom_site_label
_atom_site_type_symbol
_atom_site_fract_x
_atom_site_fract_y
_atom_site_fract_z
Pb1 Pb -0.29689(3) -0.15480(3) -0.065540(12)
O1 O 0.2535(13) 0.0379(10) -0.6590(4)
O2 O 0.5851(10) 0.2220(8) -0.6566(3)
H1 H 0.5713 0.1893 -0.7050
O3 O 0.0179(8) -0.1291(6) -0.1619(3)
O4 O 0.3565(8) 0.0820(7) -0.0839(3)
O5 O 0.4191(8) -0.1395(6) -0.1895(3)
O6 O 0.7209(8) 0.5333(6) -0.1075(3)
O7 O 1.0527(8) 0.3970(6) -0.1414(3)
O8 O 0.8930(8) 0.5783(6) -0.2401(3)
H2 H 0.9347 0.6770 -0.2200
O9 O -0.6674(8) -0.3673(6) -0.0297(3)
O10 O -0.0636(8) 0.1699(6) -0.0302(3)
C1 C 0.4011(13) 0.2187(9) -0.5388(4)
C2 C 0.5943(12) 0.3112(10) -0.4913(5)
H3 H 0.7318 0.3339 -0.5132
C3 C 0.5830(12) 0.3706(9) -0.4105(4)
H4 H 0.7132 0.4311 -0.3790
C4 C 0.3787(12) 0.3390(9) -0.3779(4)
C5 C 0.1846(12) 0.2476(10) -0.4256(4)
H5 H 0.0467 0.2269 -0.4040
C6 C 0.1956(13) 0.1877(10) -0.5047(5)
H6 H 0.0651 0.1260 -0.5356
C7 C 0.4048(15) 0.1480(10) -0.6239(5)
C8 C 0.3608(11) 0.4054(8) -0.2920(4)
H7 H 0.2105 0.4261 -0.2888
H8 H 0.4685 0.5133 -0.2790
C9 C 0.2379(11) 0.1151(8) -0.2433(4)
H9 H 0.2615 0.0581 -0.2941
H10 H 0.0858 0.1343 -0.2488
C10 C 0.6460(10) 0.2677(8) -0.2210(4)
H11 H 0.6888 0.2430 -0.2747
H12 H 0.6577 0.1723 -0.1903
N1 N 0.4044(9) 0.2854(7) -0.2287(3)
H13 H 0.3810 0.3344 -0.1801
P1 P 0.2600(3) -0.0266(2) -0.16248(9)
P2 P 0.8436(3) 0.4578(2) -0.17144(10)
Pb1A Pb 0.29689(3) 0.15480(3) 0.065540(12)
Pb1_2 Pb 0.70311(3) 0.84520(3) -0.065540(12)
Pb1_3 Pb 0.70311(3) -0.15480(3) -0.065540(12)
O4A O -0.3565(8) -0.0820(7) 0.0839(3)
O5_2 O -0.5809(8) -0.1395(6) -0.1895(3)
O6_2 O -0.2791(8) -0.4667(6) -0.1075(3)
O10A O 0.0636(8) -0.1699(6) 0.0302(3)
loop_
_geom_bond_atom_site_label_1
_geom_bond_atom_site_label_2
_geom_bond_site_symmetry_1
_geom_bond_site_symmetry_2
Pb1 O3 1_555 1_555
O1 C7 1_555 1_555
O2 H1 1_555 1_555
O3 P1 1_555 1_555
O4 P1 1_555 1_555
O5 P1 1_555 1_555
O6 P2 1_555 1_555
O7 P2 1_555 1_555
O8 H2 1_555 1_555
O9 Pb1 1_555 1_555
O10 Pb1 1_555 1_555
C1 C2 1_555 1_555
C2 H3 1_555 1_555
C3 C2 1_555 1_555
H4 C3 1_555 1_555
C4 C3 1_555 1_555
C5 C4 1_555 1_555
H5 C5 1_555 1_555
C6 C1 1_555 1_555
H6 C6 1_555 1_555
C7 O2 1_555 1_555
C8 C4 1_555 1_555
H7 C8 1_555 1_555
H8 C8 1_555 1_555
C9 H9 1_555 1_555
H10 C9 1_555 1_555
C10 H11 1_555 1_555
H12 C10 1_555 1_555
N1 C8 1_555 1_555
H13 N1 1_555 1_555
P1 C9 1_555 1_555
P2 O8 1_555 1_555
Pb1A O4 1_555 1_555
Pb1_2 O6 1_555 1_555
Pb1_3 O5 1_555 1_555
O4A Pb1 1_555 1_555
O5_2 Pb1 1_555 1_555
O6_2 Pb1 1_555 1_555
O10A Pb1 1_555 1_555
O10 Pb1A 1_555 1_555
C1 C7 1_555 1_555
C5 C6 1_555 1_555
C9 N1 1_555 1_555
C10 N1 1_555 1_555
C10 P2 1_555 1_555
Pb1A O10A 1_555 1_555

#END
