
#######################################################################
#
#                 Cambridge Crystallographic Data Centre
#                                CCDC 
#
#######################################################################
#
# If this CIF has been generated from an entry in the Cambridge 
# Structural Database, then it will include bibliographic, chemical, 
# crystal, experimental, refinement or atomic coordinate data resulting 
# from the CCDC's data processing and validation procedures.
#
#######################################################################

data_KALGEL
_symmetry_cell_setting           orthorhombic
_symmetry_space_group_name_H-M   'F d d 2'
_symmetry_Int_Tables_number      43
_space_group_name_Hall           'F 2 -2d'
loop_
_symmetry_equiv_pos_site_id
_symmetry_equiv_pos_as_xyz
1 x,y,z
2 -x,-y,z
3 1/4+x,1/4-y,1/4+z
4 1/4-x,1/4+y,1/4+z
5 x,1/2+y,1/2+z
6 -x,1/2-y,1/2+z
7 1/4+x,3/4-y,3/4+z
8 1/4-x,3/4+y,3/4+z
9 1/2+x,y,1/2+z
10 1/2-x,-y,1/2+z
11 3/4+x,1/4-y,3/4+z
12 3/4-x,1/4+y,3/4+z
13 1/2+x,1/2+y,z
14 1/2-x,1/2-y,z
15 3/4+x,3/4-y,1/4+z
16 3/4-x,3/4+y,1/4+z
_cell_length_a                   15.417(3)
_cell_length_b                   23.492(5)
_cell_length_c                   32.648(7)
_cell_angle_alpha                90
_cell_angle_beta                 90
_cell_angle_gamma                90
_cell_volume                     11824.3
loop_
_atom_site_label
_atom_site_type_symbol
_atom_site_fract_x
_atom_site_fract_y
_atom_site_fract_z
Ni1 Ni 0.36176(6) 0.24030(4) 0.51297(3)
N1 N 0.3913(4) 0.1645(3) 0.4825(2)
N2 N 0.2272(5) 0.0119(3) 0.2973(2)
O1 O 0.3064(3) 0.1938(2) 0.55974(17)
O2 O 0.1667(4) 0.1838(2) 0.54097(17)
O3 O 0.4181(4) 0.0710(3) 0.6777(2)
O4 O 0.3171(4) 0.0332(2) 0.71931(19)
O5 O 0.2500 0.2500 0.4767(3)
H1 H 0.221(5) 0.225(3) 0.467(3)
C1 C 0.4691(5) 0.1572(4) 0.4647(3)
H2 H 0.5098 0.1868 0.4673
C2 C 0.4932(5) 0.1094(4) 0.4431(3)
H3 H 0.5487 0.1066 0.4313
C3 C 0.4329(5) 0.0651(3) 0.4391(2)
C4 C 0.3521(5) 0.0705(4) 0.4575(3)
H4 H 0.3105 0.0414 0.4558
C5 C 0.3352(5) 0.1215(4) 0.4787(3)
H5 H 0.2805 0.1255 0.4911
C6 C 0.4545(5) 0.0133(3) 0.4131(3)
H6 H 0.4104 -0.0167 0.4176
C7 C 0.4657(5) 0.0240(3) 0.3664(3)
H7 H 0.4937 0.0613 0.3616
C8 C 0.3834(5) 0.0183(4) 0.3398(3)
C9 C 0.3261(6) 0.0654(4) 0.3387(3)
H8 H 0.3410 0.0998 0.3517
C10 C 0.2477(6) 0.0602(4) 0.3182(4)
H9 H 0.2080 0.0905 0.3188
C11 C 0.2842(6) -0.0294(4) 0.2951(3)
H10 H 0.2721 -0.0611 0.2786
C12 C 0.3632(6) -0.0276(4) 0.3169(4)
H11 H 0.4019 -0.0584 0.3155
C13 C 0.2146(5) 0.1335(4) 0.5999(3)
C14 C 0.1313(6) 0.1127(5) 0.6070(3)
H12 H 0.0857 0.1224 0.5892
C15 C 0.1155(6) 0.0778(7) 0.6401(4)
H13 H 0.0584 0.0660 0.6454
C16 C 0.1813(6) 0.0597(5) 0.6657(4)
H14 H 0.1698 0.0345 0.6874
C17 C 0.2676(5) 0.0801(4) 0.6584(3)
C18 C 0.2837(5) 0.1149(3) 0.6255(3)
H15 H 0.3408 0.1266 0.6198
C19 C 0.2317(5) 0.1743(3) 0.5644(3)
C20 C 0.3415(6) 0.0602(4) 0.6866(3)
Ni1A Ni 0.63824(6) -0.24030(4) 0.51297(3)
Ni1J Ni 0.11176(6) 0.00970(4) 0.26297(3)
Ni1M Ni 0.13824(6) 0.25970(4) 0.51297(3)
Ni1O Ni 0.38824(6) -0.00970(4) 0.76297(3)
Ni1G Ni 0.88824(6) -0.00970(4) 0.26297(3)
Ni1N Ni 0.11176(6) 0.50970(4) 0.76297(3)
N1A N 0.6087(4) -0.1645(3) 0.4825(2)
N2A N 0.7728(5) -0.0119(3) 0.2973(2)
N2B N 0.4772(5) 0.2381(3) 0.5473(2)
N2O N 0.5228(5) -0.2381(3) 0.5473(2)
O1A O 0.6936(3) -0.1938(2) 0.55974(17)
O1M O 0.1936(3) 0.3062(2) 0.55974(17)
O2M O 0.3333(4) 0.3162(2) 0.54097(17)
O2L O 0.6667(4) -0.3162(2) 0.54097(17)
O3M O 0.0819(4) 0.4290(3) 0.6777(2)
O4K O 0.4329(4) 0.2832(2) 0.46931(19)
O4F O 0.5671(4) -0.2832(2) 0.46931(19)
O4M O 0.1829(4) 0.4668(2) 0.71931(19)
O5A O 0.7500 -0.2500 0.4767(3)
H1M H 0.279(5) 0.275(3) 0.467(3)
H1A H 0.779(5) -0.225(3) 0.467(3)
H1L H 0.721(5) -0.275(3) 0.467(3)
C1A C 0.5309(5) -0.1572(4) 0.4647(3)
H2A H 0.4902 -0.1868 0.4673
C2A C 0.5068(5) -0.1094(4) 0.4431(3)
H3A H 0.4513 -0.1066 0.4313
C3A C 0.5671(5) -0.0651(3) 0.4391(2)
C4A C 0.6479(5) -0.0705(4) 0.4575(3)
H4A H 0.6895 -0.0414 0.4558
C5A C 0.6648(5) -0.1215(4) 0.4787(3)
H5A H 0.7195 -0.1255 0.4911
C6A C 0.5455(5) -0.0133(3) 0.4131(3)
H6A H 0.5896 0.0167 0.4176
C7A C 0.5343(5) -0.0240(3) 0.3664(3)
H7A H 0.5063 -0.0613 0.3616
C8A C 0.6166(5) -0.0183(4) 0.3398(3)
C9A C 0.6739(6) -0.0654(4) 0.3387(3)
H8A H 0.6590 -0.0998 0.3517
C10A C 0.7523(6) -0.0602(4) 0.3182(4)
H9A H 0.7920 -0.0905 0.3188
C11A C 0.7158(6) 0.0294(4) 0.2951(3)
H10A H 0.7279 0.0611 0.2786
C12A C 0.6368(6) 0.0276(4) 0.3169(4)
H11A H 0.5981 0.0584 0.3155
C13M C 0.2854(5) 0.3665(4) 0.5999(3)
C14M C 0.3687(6) 0.3873(5) 0.6070(3)
H12M H 0.4143 0.3776 0.5892
C15M C 0.3845(6) 0.4222(7) 0.6401(4)
H13M H 0.4416 0.4340 0.6454
C16M C 0.3187(6) 0.4403(5) 0.6657(4)
H14M H 0.3302 0.4655 0.6874
C17M C 0.2324(5) 0.4199(4) 0.6584(3)
C18M C 0.2163(5) 0.3851(3) 0.6255(3)
H15M H 0.1592 0.3734 0.6198
C19M C 0.2683(5) 0.3257(3) 0.5644(3)
C20M C 0.1585(6) 0.4398(4) 0.6866(3)
Fe1 Fe 0.2500 0.2500 0.73486(12)
C21 C 0.1350(11) 0.2901(10) 0.7468(8)
H16 H 0.1316 0.3294 0.7577
C22 C 0.1421(11) 0.2452(10) 0.7705(10)
H17 H 0.1420 0.2461 0.8008
C23 C 0.1506(11) 0.1983(10) 0.7478(7)
H18 H 0.1545 0.1587 0.7580
C24 C 0.1450(11) 0.2167(9) 0.7039(8)
H19 H 0.1434 0.1934 0.6786
C25 C 0.1388(11) 0.2789(9) 0.7087(8)
H20 H 0.1350 0.3070 0.6862
C21M C 0.3650(11) 0.2099(10) 0.7468(8)
H16M H 0.3684 0.1706 0.7577
C22M C 0.3579(11) 0.2548(10) 0.7705(10)
H17M H 0.3580 0.2539 0.8008
C23M C 0.3494(11) 0.3017(10) 0.7478(7)
H18M H 0.3455 0.3413 0.7580
C24M C 0.3550(11) 0.2833(9) 0.7039(8)
H19M H 0.3566 0.3066 0.6786
C25M C 0.3612(11) 0.2211(9) 0.7087(8)
H20M H 0.3650 0.1930 0.6862
loop_
_geom_bond_atom_site_label_1
_geom_bond_atom_site_label_2
_geom_bond_site_symmetry_1
_geom_bond_site_symmetry_2
Ni1 N1 1_555 1_555
N1 C1 1_555 1_555
N2 C10 1_555 1_555
O1 Ni1 1_555 1_555
O2 C19 1_555 1_555
O3 C20 1_555 1_555
O4 C20 1_555 1_555
O5 Ni1 1_555 1_555
H1 O5 1_555 1_555
C1 H2 1_555 1_555
C2 C1 1_555 1_555
H3 C2 1_555 1_555
C3 C2 1_555 1_555
C4 C3 1_555 1_555
H4 C4 1_555 1_555
C5 N1 1_555 1_555
H5 C5 1_555 1_555
C6 C3 1_555 1_555
H6 C6 1_555 1_555
C7 C6 1_555 1_555
H7 C7 1_555 1_555
C8 C7 1_555 1_555
C9 C8 1_555 1_555
H8 C9 1_555 1_555
C10 C9 1_555 1_555
H9 C10 1_555 1_555
C11 N2 1_555 1_555
H10 C11 1_555 1_555
C12 C8 1_555 1_555
H11 C12 1_555 1_555
C13 C14 1_555 1_555
C14 H12 1_555 1_555
C15 C14 1_555 1_555
H13 C15 1_555 1_555
C16 C15 1_555 1_555
H14 C16 1_555 1_555
C17 C16 1_555 1_555
C18 C13 1_555 1_555
H15 C18 1_555 1_555
C19 O1 1_555 1_555
C20 C17 1_555 1_555
Fe1 C21 1_555 1_555
C21 H16 1_555 1_555
C22 Fe1 1_555 1_555
H17 C22 1_555 1_555
C23 Fe1 1_555 1_555
H18 C23 1_555 1_555
C24 Fe1 1_555 1_555
H19 C24 1_555 1_555
C25 Fe1 1_555 1_555
H20 C25 1_555 1_555
Ni1A N1A 1_555 1_555
Ni1J N2 1_555 1_555
Ni1M O2 1_555 1_555
Ni1O O4 1_555 1_555
Ni1G N2A 1_555 1_555
Ni1N O4M 1_555 1_555
N1A C1A 1_555 1_555
N2A C10A 1_555 1_555
N2B Ni1 1_555 1_555
N2O Ni1A 1_555 1_555
O1A Ni1A 1_555 1_555
O1M Ni1M 1_555 1_555
O2M Ni1 1_555 1_555
O2L Ni1A 1_555 1_555
O3M C20M 1_555 1_555
O4K Ni1 1_555 1_555
O4F Ni1A 1_555 1_555
O4M C20M 1_555 1_555
O5A Ni1A 1_555 1_555
H1M O5 1_555 1_555
H1A O5A 1_555 1_555
H1L O5A 1_555 1_555
C1A H2A 1_555 1_555
C2A C1A 1_555 1_555
H3A C2A 1_555 1_555
C3A C2A 1_555 1_555
C4A C3A 1_555 1_555
H4A C4A 1_555 1_555
C5A N1A 1_555 1_555
H5A C5A 1_555 1_555
C6A C6 1_555 1_555
H6A C6A 1_555 1_555
C7A C7 1_555 1_555
H7A C7A 1_555 1_555
C8A C7A 1_555 1_555
C9A C8A 1_555 1_555
H8A C9A 1_555 1_555
C10A C9A 1_555 1_555
H9A C10A 1_555 1_555
C11A N2A 1_555 1_555
H10A C11A 1_555 1_555
C12A C8A 1_555 1_555
H11A C12A 1_555 1_555
C13M C14M 1_555 1_555
C14M H12M 1_555 1_555
C15M C14M 1_555 1_555
H13M C15M 1_555 1_555
C16M C15M 1_555 1_555
H14M C16M 1_555 1_555
C17M C16M 1_555 1_555
C18M C13M 1_555 1_555
H15M C18M 1_555 1_555
C19M O1M 1_555 1_555
C20M C17M 1_555 1_555
C21M Fe1 1_555 1_555
H16M C21M 1_555 1_555
C22M Fe1 1_555 1_555
H17M C22M 1_555 1_555
C23M Fe1 1_555 1_555
H18M C23M 1_555 1_555
C24M Fe1 1_555 1_555
H19M C24M 1_555 1_555
C25M Fe1 1_555 1_555
H20M C25M 1_555 1_555
O5 Ni1M 1_555 1_555
C4 C5 1_555 1_555
C11 C12 1_555 1_555
C13 C19 1_555 1_555
C17 C18 1_555 1_555
C21 C22 1_555 1_555
C21 C25 1_555 1_555
C22 C23 1_555 1_555
C23 C24 1_555 1_555
C24 C25 1_555 1_555
O2M C19M 1_555 1_555
C3A C6A 1_555 1_555
C4A C5A 1_555 1_555
C6A C7A 1_555 1_555
C11A C12A 1_555 1_555
C13M C19M 1_555 1_555
C17M C18M 1_555 1_555
C21M C22M 1_555 1_555
C21M C25M 1_555 1_555
C22M C23M 1_555 1_555
C23M C24M 1_555 1_555
C24M C25M 1_555 1_555

#END
