
#######################################################################
#
#                 Cambridge Crystallographic Data Centre
#                                CCDC 
#
#######################################################################
#
# If this CIF has been generated from an entry in the Cambridge 
# Structural Database, then it will include bibliographic, chemical, 
# crystal, experimental, refinement or atomic coordinate data resulting 
# from the CCDC's data processing and validation procedures.
#
#######################################################################

data_KALGOU
_symmetry_cell_setting           monoclinic
_symmetry_space_group_name_H-M   'P 21/c'
_symmetry_Int_Tables_number      14
_space_group_name_Hall           '-P 2ybc'
loop_
_symmetry_equiv_pos_site_id
_symmetry_equiv_pos_as_xyz
1 x,y,z
2 -x,1/2+y,1/2-z
3 -x,-y,-z
4 x,1/2-y,1/2+z
_cell_length_a                   7.7422(10)
_cell_length_b                   19.9168(10)
_cell_length_c                   10.3457(10)
_cell_angle_alpha                90
_cell_angle_beta                 107.846(10)
_cell_angle_gamma                90
_cell_volume                     1518.55
loop_
_atom_site_label
_atom_site_type_symbol
_atom_site_fract_x
_atom_site_fract_y
_atom_site_fract_z
Fe1 Fe 0.73613(5) 0.86923(2) 0.74925(4)
O1 O 0.8377(3) 0.92686(11) 0.6276(2)
K1 K 0.47486(9) 0.92662(4) 0.16281(7)
K2 K 0.96087(10) 1.07792(4) 0.66319(8)
O2 O 0.9711(3) 0.87750(12) 0.8948(2)
O3 O 0.7582(3) 0.96947(12) 0.4186(2)
O4 O 0.5077(3) 0.89032(12) 0.6034(2)
C1 C 0.9709(4) 0.91285(16) 0.9980(3)
C2 C 0.5246(4) 0.92211(14) 0.5007(3)
O5 O 0.6101(3) 0.79798(11) 0.8229(2)
O6 O 0.6633(3) 0.93464(11) 0.8739(2)
O7 O 0.8171(3) 0.78640(11) 0.6730(2)
C3 C 0.7842(4) 0.94496(15) 0.9881(3)
C4 C 0.7234(4) 0.94171(14) 0.5124(3)
C5 C 0.7613(4) 0.72959(16) 0.7057(3)
C6 C 0.6321(5) 0.73699(16) 0.7900(3)
K3 K 1.24210(11) 0.91380(5) 0.74434(8)
O8 O 0.4020(3) 0.93885(12) 0.4008(2)
O9 O 0.7634(3) 0.97668(12) 1.0829(2)
O10 O 1.1007(3) 0.92355(14) 1.0970(2)
O11 O 0.5592(5) 0.68809(13) 0.8213(3)
O12 O 0.8044(4) 0.67435(13) 0.6755(3)
O13 O 0.3825(5) 0.83316(19) -0.0265(3)
O14 O 0.7929(5) 1.21062(18) 0.6641(4)
O15 O 0.9069(6) 1.1854(3) 0.4390(6)
H1 H 0.293(4) 0.7978(15) -0.022(5)
H2 H 0.870(7) 1.207(3) 0.513(4)
H3 H 1.027(5) 1.204(3) 0.441(6)
H4 H 0.480(6) 0.812(2) -0.058(8)
H5 H 0.679(9) 1.186(5) 0.662(10)
H6 H 0.841(16) 1.232(6) 0.756(5)
K1B K 0.52514(9) 1.07338(4) 0.83719(7)
K1B_2 K 1.52514(9) 1.07338(4) 0.83719(7)
K1_2 K 1.47486(9) 0.92662(4) 1.16281(7)
K1_3 K 0.47486(9) 0.92662(4) 1.16281(7)
K1C K 0.47486(9) 0.57338(4) 0.66281(7)
K2B K 0.03913(10) 0.92208(4) 0.33681(8)
K2B_2 K 1.03913(10) 0.92208(4) 0.33681(8)
K2B_3 K 1.03913(10) 0.92208(4) 1.33681(8)
K2A K 1.03913(10) 0.57792(4) 0.83681(8)
O3B O 1.2418(3) 1.03053(12) 0.5814(2)
O4_2 O 1.5077(3) 0.89032(12) 0.6034(2)
O6B O 0.3367(3) 1.06536(11) 0.1261(2)
O6_2 O 1.6633(3) 0.93464(11) 0.8739(2)
K3_2 K 0.24210(11) 0.91380(5) -0.25566(8)
K3B K 0.75790(11) 1.08620(5) 0.25566(8)
K3_3 K 0.24210(11) 0.91380(5) 0.74434(8)
K3B_2 K 0.75790(11) 1.08620(5) 1.25566(8)
O8B O 0.5980(3) 1.06115(12) 0.5992(2)
O9_2 O 0.7634(3) 0.97668(12) 0.0829(2)
O9B O 0.2366(3) 1.02332(12) -0.0829(2)
O9B_2 O 1.2366(3) 1.02332(12) 0.9171(2)
O10_2 O 0.1007(3) 0.92355(14) 0.0970(2)
O10B O 0.8993(3) 1.07645(14) 0.9030(2)
O11C O 0.5592(5) 0.81191(13) 0.3213(3)
O12C O 0.8044(4) 0.82565(13) 0.1755(3)
O12A O 1.1956(4) 1.17435(13) 0.8245(3)
O13_2 O 1.3825(5) 0.83316(19) 0.9735(3)
O15B O 1.0931(6) 0.8146(3) 0.5610(6)
H1_2 H 1.293(4) 0.7978(15) 0.978(5)
H2B H 1.130(7) 0.793(3) 0.487(4)
H3B H 0.973(5) 0.796(3) 0.559(6)
H4_2 H 1.480(6) 0.812(2) 0.942(8)
loop_
_geom_bond_atom_site_label_1
_geom_bond_atom_site_label_2
_geom_bond_site_symmetry_1
_geom_bond_site_symmetry_2
Fe1 O1 1_555 1_555
O1 K2 1_555 1_555
K1 O3 1_555 1_555
K2 O3 1_555 1_555
O2 Fe1 1_555 1_555
O3 C4 1_555 1_555
O4 Fe1 1_555 1_555
C1 O2 1_555 1_555
C2 O4 1_555 1_555
O5 Fe1 1_555 1_555
O6 Fe1 1_555 1_555
O7 Fe1 1_555 1_555
C3 C1 1_555 1_555
C4 O1 1_555 1_555
C5 O7 1_555 1_555
C6 O5 1_555 1_555
K3 O1 1_555 1_555
O8 K1 1_555 1_555
O9 C3 1_555 1_555
O10 C1 1_555 1_555
O11 C6 1_555 1_555
O12 C5 1_555 1_555
O13 K1 1_555 1_555
O14 K2 1_555 1_555
O15 K2 1_555 1_555
H1 O13 1_555 1_555
H2 O15 1_555 1_555
H3 O15 1_555 1_555
H4 O13 1_555 1_555
H5 O14 1_555 1_555
H6 O14 1_555 1_555
K1B O6 1_555 1_555
K1B_2 O3B 1_555 1_555
K1_2 O10 1_555 1_555
K1_3 O9 1_555 1_555
K1C O11 1_555 1_555
K2B O8 1_555 1_555
K2B_2 O3 1_555 1_555
K2B_3 O9 1_555 1_555
K2A O12 1_555 1_555
O3B K2 1_555 1_555
O4_2 K3 1_555 1_555
O6B K1 1_555 1_555
O6_2 K3 1_555 1_555
K3_2 O13 1_555 1_555
K3B O3 1_555 1_555
K3_3 O4 1_555 1_555
K3B_2 O9 1_555 1_555
O8B K2 1_555 1_555
O9_2 K1 1_555 1_555
O9B K1 1_555 1_555
O9B_2 K2 1_555 1_555
O10_2 K1 1_555 1_555
O10B K2 1_555 1_555
O11C K1 1_555 1_555
O12C K1 1_555 1_555
O12A K2 1_555 1_555
O13_2 K3 1_555 1_555
O15B K3 1_555 1_555
H1_2 O13_2 1_555 1_555
H2B O15B 1_555 1_555
H3B O15B 1_555 1_555
H4_2 O13_2 1_555 1_555
O2 K3 1_555 1_555
C2 C4 1_555 1_555
C2 O8 1_555 1_555
O6 C3 1_555 1_555
O6 K3_3 1_555 1_555
C5 C6 1_555 1_555
K3 O3B 1_555 1_555
K3 O9B_2 1_555 1_555
O9 K1B 1_555 1_555
O10 K2B_3 1_555 1_555
O12 K1C 1_555 1_555
O15 K3B 1_555 1_555
K1B O8B 1_555 1_555
K1B O10B 1_555 1_555
K1B_2 O6_2 1_555 1_555
K1B_2 O9B_2 1_555 1_555
K1B_2 O12A 1_555 1_555
K1_2 O9B_2 1_555 1_555
K1_2 O13_2 1_555 1_555
K2B O10_2 1_555 1_555
K2B_2 O3B 1_555 1_555
K2B_2 O9_2 1_555 1_555
K2B_2 O12C 1_555 1_555
K2B_2 O15B 1_555 1_555
O6B K3B 1_555 1_555
K3_2 O9B 1_555 1_555
K3B O9_2 1_555 1_555

#END
