
#######################################################################
#
#                 Cambridge Crystallographic Data Centre
#                                CCDC 
#
#######################################################################
#
# If this CIF has been generated from an entry in the Cambridge 
# Structural Database, then it will include bibliographic, chemical, 
# crystal, experimental, refinement or atomic coordinate data resulting 
# from the CCDC's data processing and validation procedures.
#
#######################################################################

data_KALMUG01
_symmetry_cell_setting           triclinic
_symmetry_space_group_name_H-M   'P -1'
_symmetry_Int_Tables_number      2
_space_group_name_Hall           '-P 1'
loop_
_symmetry_equiv_pos_site_id
_symmetry_equiv_pos_as_xyz
1 x,y,z
2 -x,-y,-z
_cell_length_a                   8.1395(6)
_cell_length_b                   9.4312(8)
_cell_length_c                   10.5473(8)
_cell_angle_alpha                112.1830(10)
_cell_angle_beta                 92.423(2)
_cell_angle_gamma                104.752(2)
_cell_volume                     716.309
loop_
_atom_site_label
_atom_site_type_symbol
_atom_site_fract_x
_atom_site_fract_y
_atom_site_fract_z
Cu1 Cu 0.34958(10) 0.52617(9) 0.85377(8)
O1 O 0.5946(6) 0.6231(5) 0.8528(4)
O2 O 0.7319(7) 0.6497(6) 1.0518(5)
O3 O 1.1038(6) 0.4958(5) 0.7894(5)
O4 O 1.2367(7) 0.6805(7) 0.7180(6)
N1 N 0.3531(6) 0.3393(6) 0.6780(5)
N2 N 0.3460(7) -0.2912(6) 0.0330(5)
C1 C 0.2530(9) 0.1917(8) 0.6450(7)
H1 H 0.1824 0.1725 0.7074
C2 C 0.2486(10) 0.0647(8) 0.5220(7)
H2 H 0.1747 -0.0363 0.5035
C3 C 0.3533(8) 0.0862(7) 0.4260(6)
C4 C 0.4610(9) 0.2404(8) 0.4639(7)
H3 H 0.5371 0.2624 0.4058
C5 C 0.4557(9) 0.3608(8) 0.5867(7)
H4 H 0.5276 0.4633 0.6077
C6 C 0.3497(8) -0.0454(7) 0.2900(6)
C7 C 0.2303(8) -0.1951(7) 0.2438(7)
H5 H 0.1482 -0.2164 0.2979
C8 C 0.2329(9) -0.3120(8) 0.1181(7)
H6 H 0.1515 -0.4116 0.0903
C9 C 0.4579(8) -0.1440(7) 0.0761(7)
H7 H 0.5354 -0.1244 0.0181
C10 C 0.4646(9) -0.0206(8) 0.2007(7)
H8 H 0.5452 0.0788 0.2253
C11 C 0.7257(9) 0.6747(7) 0.9442(6)
C12 C 0.8853(9) 0.7839(9) 0.9242(8)
H9 H 0.9854 0.7662 0.9617
H10 H 0.8883 0.8940 0.9780
C13 C 0.9002(9) 0.7635(9) 0.7751(8)
H11 H 0.7955 0.7709 0.7339
H12 H 0.9945 0.8509 0.7758
C14 C 0.9303(9) 0.6060(9) 0.6851(7)
H13 H 0.8396 0.5183 0.6880
H14 H 0.9243 0.5958 0.5898
C15 C 1.1031(8) 0.5928(8) 0.7311(7)
Cu1A Cu 0.65042(10) 0.47383(9) 1.14623(8)
Cu1_2 Cu 1.34958(10) 0.52617(9) 0.85377(8)
Cu1_3 Cu 0.34958(10) -0.47383(9) -0.14623(8)
O2A O 0.2681(7) 0.3503(6) 0.9482(5)
O3_2 O 0.1038(6) 0.4958(5) 0.7894(5)
N2_2 N 0.3460(7) 0.7088(6) 1.0330(5)
loop_
_geom_bond_atom_site_label_1
_geom_bond_atom_site_label_2
_geom_bond_site_symmetry_1
_geom_bond_site_symmetry_2
Cu1 O1 1_555 1_555
O1 C11 1_555 1_555
O2 C11 1_555 1_555
O3 C15 1_555 1_555
O4 C15 1_555 1_555
N1 Cu1 1_555 1_555
N2 C8 1_555 1_555
C1 N1 1_555 1_555
H1 C1 1_555 1_555
C2 C1 1_555 1_555
H2 C2 1_555 1_555
C3 C2 1_555 1_555
C4 C3 1_555 1_555
H3 C4 1_555 1_555
C5 N1 1_555 1_555
H4 C5 1_555 1_555
C6 C3 1_555 1_555
C7 C6 1_555 1_555
H5 C7 1_555 1_555
C8 C7 1_555 1_555
H6 C8 1_555 1_555
C9 N2 1_555 1_555
H7 C9 1_555 1_555
C10 C6 1_555 1_555
H8 C10 1_555 1_555
C11 C12 1_555 1_555
C12 H9 1_555 1_555
H10 C12 1_555 1_555
C13 C12 1_555 1_555
H11 C13 1_555 1_555
H12 C13 1_555 1_555
C14 C13 1_555 1_555
H13 C14 1_555 1_555
H14 C14 1_555 1_555
C15 C14 1_555 1_555
Cu1A O2 1_555 1_555
Cu1_2 O3 1_555 1_555
Cu1_3 N2 1_555 1_555
O2A Cu1 1_555 1_555
O3_2 Cu1 1_555 1_555
N2_2 Cu1 1_555 1_555
C4 C5 1_555 1_555
C9 C10 1_555 1_555

#END
