
#######################################################################
#
#                 Cambridge Crystallographic Data Centre
#                                CCDC 
#
#######################################################################
#
# If this CIF has been generated from an entry in the Cambridge 
# Structural Database, then it will include bibliographic, chemical, 
# crystal, experimental, refinement or atomic coordinate data resulting 
# from the CCDC's data processing and validation procedures.
#
#######################################################################

data_KALNAN01
_symmetry_cell_setting           triclinic
_symmetry_space_group_name_H-M   'P -1'
_symmetry_Int_Tables_number      2
_space_group_name_Hall           '-P 1'
loop_
_symmetry_equiv_pos_site_id
_symmetry_equiv_pos_as_xyz
1 x,y,z
2 -x,-y,-z
_cell_length_a                   8.0032(16)
_cell_length_b                   9.4809(19)
_cell_length_c                   10.404(2)
_cell_angle_alpha                109.67(3)
_cell_angle_beta                 93.26(3)
_cell_angle_gamma                104.53(3)
_cell_volume                     710.889
loop_
_atom_site_label
_atom_site_type_symbol
_atom_site_fract_x
_atom_site_fract_y
_atom_site_fract_z
Zn1 Zn -0.15802(2) 0.01901(2) -0.139500(18)
N1 N -0.1613(2) 0.20974(19) 0.04754(17)
N2 N -0.1472(2) 0.8225(2) 0.67839(17)
C1 C -0.1581(2) 0.4516(2) 0.29782(19)
C2 C -0.1524(2) 0.5781(2) 0.43015(18)
C3 C -0.2717(3) 0.1872(2) 0.1358(2)
H1 H -0.3513 0.0890 0.1123
C4 C -0.2475(3) 0.6769(3) 0.6497(2)
H2 H -0.3163 0.6571 0.7143
O1 O 0.0913(2) 0.12482(19) -0.14961(15)
C5 C -0.0478(3) 0.8459(3) 0.5846(2)
H3 H 0.0241 0.9463 0.6028
C6 C -0.0455(3) 0.7297(2) 0.4622(2)
H4 H 0.0275 0.7527 0.4011
C7 C -0.2735(3) 0.3019(2) 0.2596(2)
H5 H -0.3518 0.2792 0.3175
C8 C -0.0531(3) 0.3546(2) 0.0828(2)
H6 H 0.0222 0.3743 0.0220
O2 O 0.2347(3) 0.13913(18) 0.04705(16)
O3 O 0.5984(2) 0.00196(19) -0.22228(18)
C9 C 0.3876(3) 0.2807(3) -0.0769(3)
H7 H 0.4880 0.2571 -0.0418
H8 H 0.3924 0.3864 -0.0191
C10 C 0.2242(3) 0.1706(2) -0.0605(2)
C11 C -0.2547(3) 0.5537(2) 0.5292(2)
H9 H -0.3277 0.4545 0.5141
C12 C -0.0468(3) 0.4757(2) 0.2034(2)
H10 H 0.0315 0.5737 0.2223
C13 C 0.6120(3) 0.1088(3) -0.2698(2)
C14 C 0.4056(4) 0.2772(3) -0.2224(3)
H11 H 0.5004 0.3670 -0.2167
H12 H 0.2992 0.2882 -0.2622
O4 O 0.7529(3) 0.1945(3) -0.2702(3)
C15 C 0.4402(3) 0.1307(3) -0.3194(3)
H13 H 0.4436 0.1368 -0.4105
H14 H 0.3449 0.0404 -0.3273
Zn1_2 Zn -0.15802(2) 1.01901(2) 0.860500(18)
Zn1A Zn 0.15802(2) -0.01901(2) 0.139500(18)
Zn1_3 Zn 0.84198(2) 0.01901(2) -0.139500(18)
N2_2 N -0.1472(2) -0.1775(2) -0.32161(17)
O2A O -0.2347(3) -0.13913(18) -0.04705(16)
O3_2 O -0.4016(2) 0.00196(19) -0.22228(18)
loop_
_geom_bond_atom_site_label_1
_geom_bond_atom_site_label_2
_geom_bond_site_symmetry_1
_geom_bond_site_symmetry_2
Zn1 N1 1_555 1_555
N1 C3 1_555 1_555
N2 C4 1_555 1_555
C1 C2 1_555 1_555
C2 C6 1_555 1_555
C3 H1 1_555 1_555
C4 H2 1_555 1_555
O1 Zn1 1_555 1_555
C5 N2 1_555 1_555
H3 C5 1_555 1_555
C6 C5 1_555 1_555
H4 C6 1_555 1_555
C7 C1 1_555 1_555
H5 C7 1_555 1_555
C8 N1 1_555 1_555
H6 C8 1_555 1_555
O2 C10 1_555 1_555
O3 C13 1_555 1_555
C9 H7 1_555 1_555
H8 C9 1_555 1_555
C10 O1 1_555 1_555
C11 C2 1_555 1_555
H9 C11 1_555 1_555
C12 C1 1_555 1_555
H10 C12 1_555 1_555
C13 O4 1_555 1_555
C14 C9 1_555 1_555
H11 C14 1_555 1_555
H12 C14 1_555 1_555
C15 C13 1_555 1_555
H13 C15 1_555 1_555
H14 C15 1_555 1_555
Zn1_2 N2 1_555 1_555
Zn1A O2 1_555 1_555
Zn1_3 O3 1_555 1_555
N2_2 Zn1 1_555 1_555
O2A Zn1 1_555 1_555
O3_2 Zn1 1_555 1_555
C3 C7 1_555 1_555
C4 C11 1_555 1_555
C8 C12 1_555 1_555
C9 C10 1_555 1_555
C14 C15 1_555 1_555

#END
