
#######################################################################
#
#                 Cambridge Crystallographic Data Centre
#                                CCDC 
#
#######################################################################
#
# If this CIF has been generated from an entry in the Cambridge 
# Structural Database, then it will include bibliographic, chemical, 
# crystal, experimental, refinement or atomic coordinate data resulting 
# from the CCDC's data processing and validation procedures.
#
#######################################################################

data_KALNER
_symmetry_cell_setting           triclinic
_symmetry_space_group_name_H-M   'P -1'
_symmetry_Int_Tables_number      2
_space_group_name_Hall           '-P 1'
loop_
_symmetry_equiv_pos_site_id
_symmetry_equiv_pos_as_xyz
1 x,y,z
2 -x,-y,-z
_cell_length_a                   8.574(2)
_cell_length_b                   8.820(2)
_cell_length_c                   10.753(2)
_cell_angle_alpha                109.120(10)
_cell_angle_beta                 95.620(10)
_cell_angle_gamma                102.510(10)
_cell_volume                     737.392
loop_
_atom_site_label
_atom_site_type_symbol
_atom_site_fract_x
_atom_site_fract_y
_atom_site_fract_z
Zn1 Zn 0.65800(5) 0.98492(5) 0.63933(4)
N1 N 0.6695(4) 0.7911(3) 0.4564(3)
C1 C 0.7816(4) 0.8155(4) 0.3820(3)
H1 H 0.8604 0.9167 0.4129
C2 C 0.7861(4) 0.6982(4) 0.2620(3)
H2 H 0.8668 0.7214 0.2140
C3 C 0.6708(4) 0.5450(4) 0.2120(3)
C4 C 0.6649(4) 0.4183(4) 0.0804(3)
C5 C 0.7672(6) 0.4457(6) -0.0045(5)
H3 H 0.8453 0.5469 0.0215
C6 C 0.7569(6) 0.3266(5) -0.1274(4)
H4 H 0.8280 0.3518 -0.1821
N2 N 0.6532(4) 0.1802(3) -0.1720(3)
C7 C 0.5551(6) 0.1540(5) -0.0913(4)
H5 H 0.4779 0.0518 -0.1204
C8 C 0.5569(6) 0.2658(5) 0.0334(4)
H6 H 0.4840 0.2369 0.0856
C9 C 0.5558(5) 0.5187(4) 0.2914(3)
H7 H 0.4764 0.4181 0.2638
C10 C 0.5608(5) 0.6421(4) 0.4103(3)
H8 H 0.4840 0.6211 0.4621
O1 O 0.7446(3) 1.1679(3) 0.5706(2)
O2 O 0.5841(3) 1.1022(3) 0.3748(2)
C11 C 0.7128(4) 1.1776(4) 0.4577(3)
C12 C 0.8436(5) 1.2844(4) 0.4165(3)
H9 H 0.7957 1.3026 0.3389
H10 H 0.9238 1.2237 0.3893
C13 C 0.9302(5) 1.4523(4) 0.5229(4)
H11 H 0.9725 1.4361 0.6033
H12 H 0.8528 1.5181 0.5452
O3 O 0.7012(3) 0.8313(3) 0.7572(3)
O4 O 0.9084(3) 0.9949(3) 0.7261(3)
C14 C 0.8507(4) 0.8932(4) 0.7781(3)
C15 C 0.9633(5) 0.8469(5) 0.8681(4)
C16 C 0.8886(10) 0.8380(10) 0.9879(7)
C17 C 1.1279(10) 0.9919(10) 0.9264(7)
H13 H 0.9904 0.7435 0.8265
H14 H 1.1557 0.9737 0.8564
H15 H 1.1987 0.9648 0.9821
H16 H 0.7935 0.7711 0.9538
H17 H 0.9658 0.8008 1.0395
C13A C 1.0698(5) 1.5477(4) 0.4771(4)
C12A C 1.1564(5) 1.7156(4) 0.5835(3)
C11A C 1.2872(4) 1.8224(4) 0.5423(3)
O1A O 1.2554(3) 1.8321(3) 0.4294(2)
O2A O 1.4159(3) 1.8978(3) 0.6252(2)
H9A H 1.2043 1.6974 0.6611
H10A H 1.0762 1.7763 0.6107
H11A H 1.0275 1.5639 0.3967
H12A H 1.1472 1.4819 0.4548
C17A C 0.8721(10) 1.0081(10) 1.0736(7)
C15A C 1.0367(5) 1.1531(5) 1.1319(4)
C14A C 1.1493(4) 1.1068(4) 1.2219(3)
O3A O 1.2988(3) 1.1687(3) 1.2428(3)
O4A O 1.0916(3) 1.0051(3) 1.2739(3)
C16A C 1.1114(10) 1.1620(10) 1.0121(7)
H16A H 1.2065 1.2289 1.0462
H17A H 1.0342 1.1992 0.9605
H13A H 1.0096 1.2565 1.1735
H14A H 0.8443 1.0263 1.1436
H15A H 0.8013 1.0352 1.0179
N1_2 N 0.6695(4) 1.7911(3) 1.4564(3)
C1_2 C 0.7816(4) 1.8155(4) 1.3820(3)
H1_2 H 0.8604 1.9167 1.4129
C2_2 C 0.7861(4) 1.6982(4) 1.2620(3)
H2_2 H 0.8668 1.7214 1.2140
C3_2 C 0.6708(4) 1.5450(4) 1.2120(3)
C4_2 C 0.6649(4) 1.4183(4) 1.0804(3)
C5_2 C 0.7672(6) 1.4457(6) 0.9955(5)
H3_2 H 0.8453 1.5469 1.0215
C6_2 C 0.7569(6) 1.3266(5) 0.8726(4)
H4_2 H 0.8280 1.3518 0.8179
N2_2 N 0.6532(4) 1.1802(3) 0.8280(3)
C7_2 C 0.5551(6) 1.1540(5) 0.9087(4)
H5_2 H 0.4779 1.0518 0.8796
C8_2 C 0.5569(6) 1.2658(5) 1.0334(4)
H6_2 H 0.4840 1.2369 1.0856
C9_2 C 0.5558(5) 1.5187(4) 1.2914(3)
H7_2 H 0.4764 1.4181 1.2638
C10_2 C 0.5608(5) 1.6421(4) 1.4103(3)
H8_2 H 0.4840 1.6211 1.4621
Zn1_2 Zn 0.65800(5) 1.98492(5) 1.63933(4)
O2A_2 O 0.4159(3) 0.8978(3) 0.6252(2)
Zn1_3 Zn 0.65800(5) -0.01508(5) -0.36067(4)
Zn1A Zn 0.34200(5) 1.01508(5) 0.36067(4)
Zn1A_2 Zn 1.34200(5) 2.01508(5) 0.36067(4)
Zn1_4 Zn 1.65800(5) 1.98492(5) 0.63933(4)
Zn1A_3 Zn 1.34200(5) 1.01508(5) 1.36067(4)
N2_3 N 0.6532(4) 2.1802(3) 1.8280(3)
O1_2 O 0.7446(3) 2.1679(3) 1.5706(2)
O2A_3 O 0.4159(3) 1.8978(3) 1.6252(2)
O3_2 O 0.7012(3) 1.8313(3) 1.7572(3)
O4_2 O 0.9084(3) 1.9949(3) 1.7261(3)
loop_
_geom_bond_atom_site_label_1
_geom_bond_atom_site_label_2
_geom_bond_site_symmetry_1
_geom_bond_site_symmetry_2
Zn1 N1 1_555 1_555
N1 C1 1_555 1_555
C1 H1 1_555 1_555
C2 C1 1_555 1_555
H2 C2 1_555 1_555
C3 C2 1_555 1_555
C4 C3 1_555 1_555
C5 C4 1_555 1_555
H3 C5 1_555 1_555
C6 C5 1_555 1_555
H4 C6 1_555 1_555
N2 C6 1_555 1_555
C7 N2 1_555 1_555
H5 C7 1_555 1_555
C8 C4 1_555 1_555
H6 C8 1_555 1_555
C9 C3 1_555 1_555
H7 C9 1_555 1_555
C10 N1 1_555 1_555
H8 C10 1_555 1_555
O1 Zn1 1_555 1_555
O2 C11 1_555 1_555
C11 O1 1_555 1_555
C12 C11 1_555 1_555
H9 C12 1_555 1_555
H10 C12 1_555 1_555
C13 C12 1_555 1_555
H11 C13 1_555 1_555
H12 C13 1_555 1_555
O3 Zn1 1_555 1_555
O4 Zn1 1_555 1_555
C14 O3 1_555 1_555
C15 C14 1_555 1_555
C16 C15 1_555 1_555
C17 C15 1_555 1_555
H13 C15 1_555 1_555
H14 C17 1_555 1_555
H15 C17 1_555 1_555
H16 C16 1_555 1_555
H17 C16 1_555 1_555
C13A C13 1_555 1_555
C12A C13A 1_555 1_555
C11A C12A 1_555 1_555
O1A C11A 1_555 1_555
O2A C11A 1_555 1_555
H9A C12A 1_555 1_555
H10A C12A 1_555 1_555
H11A C13A 1_555 1_555
H12A C13A 1_555 1_555
C17A C16 1_555 1_555
C15A C17A 1_555 1_555
C14A C15A 1_555 1_555
O3A C14A 1_555 1_555
O4A C14A 1_555 1_555
C16A C17 1_555 1_555
H16A C16A 1_555 1_555
H17A C16A 1_555 1_555
H13A C15A 1_555 1_555
H14A C17A 1_555 1_555
H15A C17A 1_555 1_555
N1_2 C1_2 1_555 1_555
C1_2 H1_2 1_555 1_555
C2_2 C1_2 1_555 1_555
H2_2 C2_2 1_555 1_555
C3_2 C2_2 1_555 1_555
C4_2 C3_2 1_555 1_555
C5_2 C4_2 1_555 1_555
H3_2 C5_2 1_555 1_555
C6_2 C5_2 1_555 1_555
H4_2 C6_2 1_555 1_555
N2_2 Zn1 1_555 1_555
C7_2 N2_2 1_555 1_555
H5_2 C7_2 1_555 1_555
C8_2 C4_2 1_555 1_555
H6_2 C8_2 1_555 1_555
C9_2 C3_2 1_555 1_555
H7_2 C9_2 1_555 1_555
C10_2 N1_2 1_555 1_555
H8_2 C10_2 1_555 1_555
Zn1_2 N1_2 1_555 1_555
O2A_2 Zn1 1_555 1_555
Zn1_3 N2 1_555 1_555
Zn1A O2 1_555 1_555
Zn1A_2 O1A 1_555 1_555
Zn1_4 O2A 1_555 1_555
Zn1A_3 O3A 1_555 1_555
N2_3 Zn1_2 1_555 1_555
O1_2 Zn1_2 1_555 1_555
O2A_3 Zn1_2 1_555 1_555
O3_2 Zn1_2 1_555 1_555
O4_2 Zn1_2 1_555 1_555
C7 C8 1_555 1_555
C9 C10 1_555 1_555
O4 C14 1_555 1_555
C15A C16A 1_555 1_555
O4A Zn1A_3 1_555 1_555
C6_2 N2_2 1_555 1_555
C7_2 C8_2 1_555 1_555
C9_2 C10_2 1_555 1_555

#END
