
#######################################################################
#
#                 Cambridge Crystallographic Data Centre
#                                CCDC 
#
#######################################################################
#
# If this CIF has been generated from an entry in the Cambridge 
# Structural Database, then it will include bibliographic, chemical, 
# crystal, experimental, refinement or atomic coordinate data resulting 
# from the CCDC's data processing and validation procedures.
#
#######################################################################

data_KALNAM
_symmetry_cell_setting           triclinic
_symmetry_space_group_name_H-M   'P -1'
_symmetry_Int_Tables_number      2
_space_group_name_Hall           '-P 1'
loop_
_symmetry_equiv_pos_site_id
_symmetry_equiv_pos_as_xyz
1 x,y,z
2 -x,-y,-z
_cell_length_a                   16.289(5)
_cell_length_b                   8.593(3)
_cell_length_c                   3.860(2)
_cell_angle_alpha                100.89(4)
_cell_angle_beta                 92.16(4)
_cell_angle_gamma                95.00(3)
_cell_volume                     527.73
loop_
_atom_site_label
_atom_site_type_symbol
_atom_site_fract_x
_atom_site_fract_y
_atom_site_fract_z
Cl1 Cl -0.07712(6) 0.35041(12) -0.3699(3)
Cu1 Cu 0.00065(4) 0.35073(8) 0.1379(2)
N1 N 0.1026(2) 0.2382(4) 0.1167(9)
C1 C 0.1738(3) 0.3099(5) 0.033(1)
C2 C 0.2483(2) 0.2465(4) 0.048(1)
C3 C 0.2509(2) 0.1006(4) 0.150(1)
C4 C 0.1777(3) 0.0235(5) 0.228(1)
C5 C 0.1063(2) 0.0969(5) 0.211(1)
C6 C 0.3341(3) 0.0421(5) 0.203(1)
O1 O 0.3870(2) 0.1345(3) 0.3817(9)
C7 C 0.3504(2) -0.1224(4) 0.035(1)
C8 C 0.2911(2) -0.2277(5) -0.176(1)
C9 C 0.3098(3) -0.3786(5) -0.326(1)
C10 C 0.3879(3) -0.4230(5) -0.275(1)
C11 C 0.4475(3) -0.3178(5) -0.069(1)
C12 C 0.4292(2) -0.1690(5) 0.084(1)
H1 H 0.172 0.412 -0.042
H2 H 0.299 0.303 -0.017
H3 H 0.177 -0.081 0.288
H4 H 0.056 0.044 0.277
H5 H 0.237 -0.194 -0.217
H6 H 0.268 -0.452 -0.468
H7 H 0.401 -0.529 -0.387
H8 H 0.503 -0.350 -0.036
H9 H 0.471 -0.095 0.232
Cu1_2 Cu 0.00065(4) 0.35073(8) -0.8621(2)
Cu1A Cu -0.00065(4) 0.64927(8) -0.1379(2)
Cl1_2 Cl -0.07712(6) 0.35041(12) 0.6301(3)
Cl1A Cl 0.07712(6) 0.64959(12) 0.3699(3)
Cl1A_2 Cl 0.07712(6) 0.64959(12) -0.6301(3)
N1A N -0.1026(2) 0.7618(4) -0.1167(9)
Cu1A_2 Cu -0.00065(4) 0.64927(8) 0.8621(2)
C1A C -0.1738(3) 0.6901(5) -0.033(1)
C5A C -0.1063(2) 0.9031(5) -0.211(1)
C2A C -0.2483(2) 0.7535(4) -0.048(1)
H1A H -0.172 0.588 0.042
C4A C -0.1777(3) 0.9765(5) -0.228(1)
H4A H -0.056 0.956 -0.277
C3A C -0.2509(2) 0.8994(4) -0.150(1)
H2A H -0.299 0.697 0.017
H3A H -0.177 1.081 -0.288
C6A C -0.3341(3) 0.9579(5) -0.203(1)
O1A O -0.3870(2) 0.8655(3) -0.3817(9)
C7A C -0.3504(2) 1.1224(4) -0.035(1)
C8A C -0.2911(2) 1.2277(5) 0.176(1)
C12A C -0.4292(2) 1.1690(5) -0.084(1)
C9A C -0.3098(3) 1.3786(5) 0.326(1)
H5A H -0.237 1.194 0.217
C11A C -0.4475(3) 1.3178(5) 0.069(1)
H9A H -0.471 1.095 -0.232
C10A C -0.3879(3) 1.4230(5) 0.275(1)
H6A H -0.268 1.452 0.468
H8A H -0.503 1.350 0.036
H7A H -0.401 1.529 0.387
loop_
_geom_bond_atom_site_label_1
_geom_bond_atom_site_label_2
_geom_bond_site_symmetry_1
_geom_bond_site_symmetry_2
Cl1 Cu1 1_555 1_555
Cu1 N1 1_555 1_555
N1 C1 1_555 1_555
C1 C2 1_555 1_555
C2 C3 1_555 1_555
C3 C4 1_555 1_555
C4 C5 1_555 1_555
C5 N1 1_555 1_555
C6 C3 1_555 1_555
O1 C6 1_555 1_555
C7 C6 1_555 1_555
C8 C7 1_555 1_555
C9 C8 1_555 1_555
C10 C9 1_555 1_555
C11 C10 1_555 1_555
C12 C7 1_555 1_555
H1 C1 1_555 1_555
H2 C2 1_555 1_555
H3 C4 1_555 1_555
H4 C5 1_555 1_555
H5 C8 1_555 1_555
H6 C9 1_555 1_555
H7 C10 1_555 1_555
H8 C11 1_555 1_555
H9 C12 1_555 1_555
Cu1_2 Cl1 1_555 1_555
Cu1A Cl1 1_555 1_555
Cl1_2 Cu1 1_555 1_555
Cl1A Cu1 1_555 1_555
Cl1A_2 Cu1A 1_555 1_555
N1A Cu1A 1_555 1_555
Cu1A_2 Cl1A 1_555 1_555
C1A N1A 1_555 1_555
C5A N1A 1_555 1_555
C2A C1A 1_555 1_555
H1A C1A 1_555 1_555
C4A C5A 1_555 1_555
H4A C5A 1_555 1_555
C3A C2A 1_555 1_555
H2A C2A 1_555 1_555
H3A C4A 1_555 1_555
C6A C3A 1_555 1_555
O1A C6A 1_555 1_555
C7A C6A 1_555 1_555
C8A C7A 1_555 1_555
C12A C7A 1_555 1_555
C9A C8A 1_555 1_555
H5A C8A 1_555 1_555
C11A C12A 1_555 1_555
H9A C12A 1_555 1_555
C10A C9A 1_555 1_555
H6A C9A 1_555 1_555
H8A C11A 1_555 1_555
H7A C10A 1_555 1_555
C11 C12 1_555 1_555
Cu1A Cl1A 1_555 1_555
C4A C3A 1_555 1_555
C11A C10A 1_555 1_555

#END
