
#######################################################################
#
#                 Cambridge Crystallographic Data Centre
#                                CCDC 
#
#######################################################################
#
# If this CIF has been generated from an entry in the Cambridge 
# Structural Database, then it will include bibliographic, chemical, 
# crystal, experimental, refinement or atomic coordinate data resulting 
# from the CCDC's data processing and validation procedures.
#
#######################################################################

data_KALPAO
_symmetry_cell_setting           monoclinic
_symmetry_space_group_name_H-M   'P 21/n'
_symmetry_Int_Tables_number      14
_space_group_name_Hall           '-P 2yn'
loop_
_symmetry_equiv_pos_site_id
_symmetry_equiv_pos_as_xyz
1 x,y,z
2 1/2-x,1/2+y,1/2-z
3 -x,-y,-z
4 1/2+x,1/2-y,1/2+z
_cell_length_a                   9.518(4)
_cell_length_b                   17.056(5)
_cell_length_c                   9.288(3)
_cell_angle_alpha                90
_cell_angle_beta                 106.37(3)
_cell_angle_gamma                90
_cell_volume                     1446.68
loop_
_atom_site_label
_atom_site_type_symbol
_atom_site_fract_x
_atom_site_fract_y
_atom_site_fract_z
I1 I 0.2707(2) 0.0006(1) 0.0461(2)
Ag1 Ag 0.5628(3) -0.0477(1) 0.1505(2)
N1 N 0.556(2) -0.186(1) 0.186(2)
C1 C 0.425(4) -0.220(1) 0.138(2)
C2 C 0.411(4) -0.303(2) 0.144(2)
C3 C 0.543(3) -0.339(1) 0.203(4)
C4 C 0.691(4) -0.309(2) 0.251(3)
C5 C 0.689(3) -0.224(2) 0.244(3)
I2 I 0.7339(2) -0.0028(1) 0.4516(2)
Ag2 Ag 0.4227(3) 0.0467(1) 0.3461(2)
N2 N 0.442(2) 0.181(1) 0.332(2)
C6 C 0.388(3) 0.216(1) 0.184(2)
C7 C 0.388(3) 0.297(1) 0.167(3)
C8 C 0.453(3) 0.349(1) 0.294(3)
C9 C 0.519(3) 0.310(2) 0.426(3)
C10 C 0.510(3) 0.228(1) 0.441(2)
H1 H 0.352 -0.190 0.112
H2 H 0.334 -0.329 0.111
H3 H 0.542 -0.392 0.208
H4 H 0.767 -0.339 0.283
H5 H 0.772 -0.199 0.272
H6 H 0.362 0.184 0.093
H7 H 0.337 0.321 0.075
H8 H 0.460 0.405 0.280
H9 H 0.560 0.341 0.520
H10 H 0.578 0.202 0.520
Ag1B Ag 0.4372(3) 0.0477(1) -0.1505(2)
I1B I 0.7293(2) -0.0006(1) -0.0461(2)
Ag2B Ag 0.5773(3) -0.0467(1) 0.6539(2)
I2B I 0.2661(2) 0.0028(1) 0.5484(2)
N1B N 0.444(2) 0.186(1) -0.186(2)
I2B_2 I 0.2661(2) 0.0028(1) -0.4516(2)
Ag2B_2 Ag 0.5773(3) -0.0467(1) -0.3461(2)
I1B_2 I 0.7293(2) -0.0006(1) 0.9539(2)
N2B N 0.558(2) -0.181(1) 0.668(2)
Ag1B_2 Ag 0.4372(3) 0.0477(1) 0.8495(2)
C1B C 0.575(4) 0.220(1) -0.138(2)
C5B C 0.311(3) 0.224(2) -0.244(3)
C6B C 0.612(3) -0.216(1) 0.816(2)
C10B C 0.490(3) -0.228(1) 0.559(2)
C2B C 0.589(4) 0.303(2) -0.144(2)
H1B H 0.648 0.190 -0.112
C4B C 0.309(4) 0.309(2) -0.251(3)
H5B H 0.228 0.199 -0.272
C7B C 0.612(3) -0.297(1) 0.833(3)
H6B H 0.638 -0.184 0.907
C9B C 0.481(3) -0.310(2) 0.574(3)
H10B H 0.422 -0.202 0.480
C3B C 0.457(3) 0.339(1) -0.203(4)
H2B H 0.666 0.329 -0.111
H4B H 0.233 0.339 -0.283
C8B C 0.547(3) -0.349(1) 0.706(3)
H7B H 0.663 -0.321 0.925
H9B H 0.440 -0.341 0.480
H3B H 0.458 0.392 -0.208
H8B H 0.540 -0.405 0.720
loop_
_geom_bond_atom_site_label_1
_geom_bond_atom_site_label_2
_geom_bond_site_symmetry_1
_geom_bond_site_symmetry_2
I1 Ag1 1_555 1_555
Ag1 N1 1_555 1_555
N1 C1 1_555 1_555
C1 C2 1_555 1_555
C2 C3 1_555 1_555
C3 C4 1_555 1_555
C4 C5 1_555 1_555
C5 N1 1_555 1_555
I2 Ag1 1_555 1_555
Ag2 I1 1_555 1_555
N2 Ag2 1_555 1_555
C6 N2 1_555 1_555
C7 C6 1_555 1_555
C8 C7 1_555 1_555
C9 C8 1_555 1_555
C10 N2 1_555 1_555
H1 C1 1_555 1_555
H2 C2 1_555 1_555
H3 C3 1_555 1_555
H4 C4 1_555 1_555
H5 C5 1_555 1_555
H6 C6 1_555 1_555
H7 C7 1_555 1_555
H8 C8 1_555 1_555
H9 C9 1_555 1_555
H10 C10 1_555 1_555
Ag1B I1 1_555 1_555
I1B Ag1 1_555 1_555
Ag2B I2 1_555 1_555
I2B Ag2 1_555 1_555
N1B Ag1B 1_555 1_555
I2B_2 Ag1B 1_555 1_555
Ag2B_2 I1B 1_555 1_555
I1B_2 Ag2B 1_555 1_555
N2B Ag2B 1_555 1_555
Ag1B_2 I2B 1_555 1_555
C1B N1B 1_555 1_555
C5B N1B 1_555 1_555
C6B N2B 1_555 1_555
C10B N2B 1_555 1_555
C2B C1B 1_555 1_555
H1B C1B 1_555 1_555
C4B C5B 1_555 1_555
H5B C5B 1_555 1_555
C7B C6B 1_555 1_555
H6B C6B 1_555 1_555
C9B C10B 1_555 1_555
H10B C10B 1_555 1_555
C3B C2B 1_555 1_555
H2B C2B 1_555 1_555
H4B C4B 1_555 1_555
C8B C7B 1_555 1_555
H7B C7B 1_555 1_555
H9B C9B 1_555 1_555
H3B C3B 1_555 1_555
H8B C8B 1_555 1_555
I2 Ag2 1_555 1_555
C9 C10 1_555 1_555
Ag1B I1B 1_555 1_555
Ag2B I2B 1_555 1_555
C4B C3B 1_555 1_555
C9B C8B 1_555 1_555

#END
