
#######################################################################
#
#                 Cambridge Crystallographic Data Centre
#                                CCDC 
#
#######################################################################
#
# If this CIF has been generated from an entry in the Cambridge 
# Structural Database, then it will include bibliographic, chemical, 
# crystal, experimental, refinement or atomic coordinate data resulting 
# from the CCDC's data processing and validation procedures.
#
#######################################################################

data_KALREU
_symmetry_cell_setting           monoclinic
_symmetry_space_group_name_H-M   'P 21/c'
_symmetry_Int_Tables_number      14
_space_group_name_Hall           '-P 2ybc'
loop_
_symmetry_equiv_pos_site_id
_symmetry_equiv_pos_as_xyz
1 x,y,z
2 -x,1/2+y,1/2-z
3 -x,-y,-z
4 x,1/2-y,1/2+z
_cell_length_a                   4.210(4)
_cell_length_b                   15.56(2)
_cell_length_c                   15.63(2)
_cell_angle_alpha                90
_cell_angle_beta                 100.22(9)
_cell_angle_gamma                90
_cell_volume                     1007.64
loop_
_atom_site_label
_atom_site_type_symbol
_atom_site_fract_x
_atom_site_fract_y
_atom_site_fract_z
Br1 Br 0.885(2) -0.058(1) 0.1062(6)
Ag1 Ag 0.363(2) 0.0498(8) 0.0719(5)
N1 N 0.45(1) 0.166(4) 0.139(4)
C1 C 0.39(2) 0.192(6) 0.212(5)
C2 C 0.29(2) 0.127(5) 0.260(5)
C3 C 0.39(2) 0.274(5) 0.249(5)
C4 C 0.49(2) 0.339(6) 0.202(5)
C5 C 0.60(2) 0.324(5) 0.124(5)
C6 C 0.68(2) 0.396(6) 0.077(6)
C7 C 0.75(3) 0.378(6) 0.005(7)
C8 C 0.78(2) 0.293(7) -0.034(6)
C9 C 0.66(2) 0.233(5) 0.016(5)
C10 C 0.57(2) 0.243(5) 0.096(4)
H1 H 0.097 0.098 0.227
H2 H 0.452 0.081 0.271
H3 H 0.231 0.139 0.316
H4 H 0.337 0.287 0.306
H5 H 0.469 0.401 0.224
H6 H 0.704 0.455 0.099
H7 H 0.753 0.430 -0.035
H8 H 0.871 0.285 -0.086
H9 H 0.630 0.175 -0.009
Ag1_2 Ag 1.363(2) 0.0498(8) 0.0719(5)
Ag1B Ag 0.637(2) -0.0498(8) -0.0719(5)
Br1_2 Br -0.115(2) -0.058(1) 0.1062(6)
Br1B Br 0.115(2) 0.058(1) -0.1062(6)
Br1B_2 Br 1.115(2) 0.058(1) -0.1062(6)
N1B N 0.55(1) -0.166(4) -0.139(4)
Ag1B_2 Ag -0.363(2) -0.0498(8) -0.0719(5)
C1B C 0.61(2) -0.192(6) -0.212(5)
C10B C 0.43(2) -0.243(5) -0.096(4)
C2B C 0.71(2) -0.127(5) -0.260(5)
C3B C 0.61(2) -0.274(5) -0.249(5)
C5B C 0.40(2) -0.324(5) -0.124(5)
C9B C 0.34(2) -0.233(5) -0.016(5)
H1B H 0.903 -0.098 -0.227
H2B H 0.548 -0.081 -0.271
H3B H 0.769 -0.139 -0.316
C4B C 0.51(2) -0.339(6) -0.202(5)
H4B H 0.663 -0.287 -0.306
C6B C 0.32(2) -0.396(6) -0.077(6)
C8B C 0.22(2) -0.293(7) 0.034(6)
H9B H 0.370 -0.175 0.009
H5B H 0.531 -0.401 -0.224
C7B C 0.25(3) -0.378(6) -0.005(7)
H6B H 0.296 -0.455 -0.099
H8B H 0.129 -0.285 0.086
H7B H 0.247 -0.430 0.035
loop_
_geom_bond_atom_site_label_1
_geom_bond_atom_site_label_2
_geom_bond_site_symmetry_1
_geom_bond_site_symmetry_2
Br1 Ag1 1_555 1_555
Ag1 N1 1_555 1_555
N1 C1 1_555 1_555
C1 C2 1_555 1_555
C2 H1 1_555 1_555
C3 C1 1_555 1_555
C4 C3 1_555 1_555
C5 C4 1_555 1_555
C6 C5 1_555 1_555
C7 C6 1_555 1_555
C8 C7 1_555 1_555
C9 C8 1_555 1_555
C10 N1 1_555 1_555
H2 C2 1_555 1_555
H3 C2 1_555 1_555
H4 C3 1_555 1_555
H5 C4 1_555 1_555
H6 C6 1_555 1_555
H7 C7 1_555 1_555
H8 C8 1_555 1_555
H9 C9 1_555 1_555
Ag1_2 Br1 1_555 1_555
Ag1B Br1 1_555 1_555
Br1_2 Ag1 1_555 1_555
Br1B Ag1 1_555 1_555
Br1B_2 Ag1B 1_555 1_555
N1B Ag1B 1_555 1_555
Ag1B_2 Br1B 1_555 1_555
C1B N1B 1_555 1_555
C10B N1B 1_555 1_555
C2B C1B 1_555 1_555
C3B C1B 1_555 1_555
C5B C10B 1_555 1_555
C9B C10B 1_555 1_555
H1B C2B 1_555 1_555
H2B C2B 1_555 1_555
H3B C2B 1_555 1_555
C4B C3B 1_555 1_555
H4B C3B 1_555 1_555
C6B C5B 1_555 1_555
C8B C9B 1_555 1_555
H9B C9B 1_555 1_555
H5B C4B 1_555 1_555
C7B C6B 1_555 1_555
H6B C6B 1_555 1_555
H8B C8B 1_555 1_555
H7B C7B 1_555 1_555
C5 C10 1_555 1_555
C9 C10 1_555 1_555
Ag1B Br1B 1_555 1_555
C5B C4B 1_555 1_555
C8B C7B 1_555 1_555

#END
