
#######################################################################
#
#                 Cambridge Crystallographic Data Centre
#                                CCDC 
#
#######################################################################
#
# If this CIF has been generated from an entry in the Cambridge 
# Structural Database, then it will include bibliographic, chemical, 
# crystal, experimental, refinement or atomic coordinate data resulting 
# from the CCDC's data processing and validation procedures.
#
#######################################################################

data_KALYIH
_symmetry_cell_setting           triclinic
_symmetry_space_group_name_H-M   'P -1'
_symmetry_Int_Tables_number      2
_space_group_name_Hall           '-P 1'
loop_
_symmetry_equiv_pos_site_id
_symmetry_equiv_pos_as_xyz
1 x,y,z
2 -x,-y,-z
_cell_length_a                   10.7739(9)
_cell_length_b                   11.5683(10)
_cell_length_c                   11.5923(8)
_cell_angle_alpha                75.049(7)
_cell_angle_beta                 63.522(8)
_cell_angle_gamma                62.599(8)
_cell_volume                     1145.63
loop_
_atom_site_label
_atom_site_type_symbol
_atom_site_fract_x
_atom_site_fract_y
_atom_site_fract_z
Cu1 Cu 0.5000 0.5000 0.0000
Cu2 Cu 0.41832(4) 0.51059(4) 0.32666(4)
Cu3 Cu 0.37487(4) 0.29949(4) 0.21517(4)
O1 O 0.2852(3) 0.5744(2) 0.0357(2)
O2 O 0.4787(2) 0.4174(2) 0.1775(2)
O3 O 0.3486(3) 0.6147(2) 0.4686(2)
O4 O 0.3143(3) 0.3973(2) 0.4395(2)
O5 O -0.4609(2) 0.6159(2) 0.2188(2)
O6 O -0.1752(3) 0.3568(2) 0.6818(3)
O7 O 0.4838(3) -0.1503(2) 0.7280(2)
O8 O 0.2019(3) 0.4293(2) 0.1785(3)
O9 O 0.2574(4) 0.1912(3) 0.2760(4)
O10 O 0.5294(3) 0.2673(3) -0.0090(3)
O11 O -0.2900(3) 0.4452(2) 0.2810(2)
O12 O -0.3144(3) 0.9798(3) -0.0345(4)
O13 O -0.1291(3) 0.9953(3) -0.0222(3)
O14 O -0.1750(3) 0.1644(3) 0.7319(3)
O15 O 0.2830(3) -0.1993(2) 0.7958(2)
O16 O 0.4837(3) 0.2727(2) 0.5297(3)
N1 N -0.1101(3) 0.2373(3) 0.6935(3)
N2 N -0.2017(3) 0.9341(3) -0.0090(3)
C1 C 0.0311(3) 0.6070(3) 0.1009(3)
C2 C -0.0738(4) 0.5518(3) 0.1574(3)
H1 H -0.0470 0.4682 0.1973
C3 C -0.2182(4) 0.6181(3) 0.1561(3)
C4 C -0.2588(4) 0.7444(3) 0.0984(3)
H2 H -0.3551 0.7912 0.0969
C5 C -0.1538(4) 0.7978(3) 0.0442(3)
C6 C -0.0078(4) 0.7337(3) 0.0419(3)
H3 H 0.0611 0.7729 0.0029
C7 C 0.1859(4) 0.5314(3) 0.1050(3)
C8 C -0.3282(4) 0.5538(3) 0.2229(3)
C9 C 0.2799(4) 0.2172(3) 0.5790(3)
C10 C 0.3487(4) 0.0902(3) 0.6268(3)
H4 H 0.4498 0.0586 0.6151
C11 C 0.2712(4) 0.0104(3) 0.6905(3)
C12 C 0.1197(4) 0.0575(3) 0.7105(3)
H5 H 0.0650 0.0056 0.7532
C13 C 0.0527(4) 0.1838(3) 0.6649(3)
C14 C 0.1283(4) 0.2642(3) 0.5989(3)
H6 H 0.0792 0.3480 0.5682
C15 C 0.3657(4) 0.3014(3) 0.5121(3)
C16 C 0.3491(4) -0.1253(3) 0.7432(3)
H7 H 0.307(5) 0.578(4) 0.5523(19)
H8 H 0.412(3) 0.656(3) 0.458(4)
H9 H 0.156(4) 0.199(10) 0.311(9)
H10 H 0.293(7) 0.0991(12) 0.290(6)
H11 H 0.501(4) 0.295(4) -0.081(2)
H12 H 0.622(3) 0.199(4) -0.011(5)
Cu2A Cu 0.58168(4) 0.48941(4) -0.32666(4)
Cu2_2 Cu -0.58168(4) 0.51059(4) 0.32666(4)
Cu2A_2 Cu -0.41832(4) 0.48941(4) 0.67334(4)
Cu2A_3 Cu 1.58168(4) 0.48941(4) -0.32666(4)
Cu3A Cu 0.62513(4) 0.70051(4) -0.21517(4)
Cu3A_2 Cu 0.62513(4) -0.29949(4) 0.78483(4)
Cu3_2 Cu -0.62513(4) 1.29949(4) 0.21517(4)
O1A O 0.7148(3) 0.4256(2) -0.0357(2)
O2A O 0.5213(2) 0.5826(2) -0.1775(2)
O3A O 0.6514(3) 0.3853(2) -0.4686(2)
O4A O -0.3143(3) 0.6027(2) 0.5605(2)
O4A_2 O 0.6857(3) 0.6027(2) -0.4395(2)
O5A O 1.4609(2) 0.3841(2) -0.2188(2)
O5_2 O 0.5391(2) 0.6159(2) 0.2188(2)
O5A_2 O 0.4609(2) 0.3841(2) -0.2188(2)
O6A O 0.1752(3) 0.6432(2) 0.3182(3)
O6_2 O 0.8248(3) 0.3568(2) -0.3182(3)
O7A O -0.4838(3) 1.1503(2) 0.2720(2)
O7A_2 O 0.5162(3) 0.1503(2) 0.2720(2)
O7_2 O 0.4838(3) 0.8497(2) -0.2720(2)
O8A O 0.7981(3) 0.5707(2) -0.1785(3)
O9A O 0.7426(4) 0.8088(3) -0.2760(4)
O10A O 0.4706(3) 0.7327(3) 0.0090(3)
O11A O 1.2900(3) 0.5548(2) -0.2810(2)
O12A O 1.3144(3) 0.0202(3) 0.0345(4)
O13A O 1.1291(3) 0.0047(3) 0.0222(3)
O14A O 0.1750(3) 0.8356(3) 0.2681(3)
O15A O -0.2830(3) 1.1993(2) 0.2042(2)
O16A O -0.4837(3) 0.7273(2) 0.4703(3)
N1A N 0.1101(3) 0.7627(3) 0.3065(3)
N2A N 1.2017(3) 0.0659(3) 0.0090(3)
C1A C 0.9689(3) 0.3930(3) -0.1009(3)
C2A C 1.0738(4) 0.4482(3) -0.1574(3)
H1A H 1.0470 0.5318 -0.1973
C3A C 1.2182(4) 0.3819(3) -0.1561(3)
C4A C 1.2588(4) 0.2556(3) -0.0984(3)
H2A H 1.3551 0.2088 -0.0969
C5A C 1.1538(4) 0.2022(3) -0.0442(3)
C6A C 1.0078(4) 0.2663(3) -0.0419(3)
H3A H 0.9389 0.2271 -0.0029
C7A C 0.8141(4) 0.4686(3) -0.1050(3)
C8A C 1.3282(4) 0.4462(3) -0.2229(3)
C9A C -0.2799(4) 0.7828(3) 0.4210(3)
C10A C -0.3487(4) 0.9098(3) 0.3732(3)
H4A H -0.4498 0.9414 0.3849
C11A C -0.2712(4) 0.9896(3) 0.3095(3)
C12A C -0.1197(4) 0.9425(3) 0.2895(3)
H5A H -0.0650 0.9944 0.2468
C13A C -0.0527(4) 0.8162(3) 0.3351(3)
C14A C -0.1283(4) 0.7358(3) 0.4011(3)
H6A H -0.0792 0.6520 0.4318
C15A C -0.3657(4) 0.6986(3) 0.4879(3)
C16A C -0.3491(4) 1.1253(3) 0.2568(3)
H7A H 0.693(5) 0.422(4) -0.5523(19)
H8A H 0.588(3) 0.344(3) -0.458(4)
H9A H 0.844(4) 0.801(10) -0.311(9)
H10A H 0.707(7) 0.9009(12) -0.290(6)
H11A H 0.499(4) 0.705(4) 0.081(2)
H12A H 0.378(3) 0.801(4) 0.011(5)
O17 O 0.0000 1.0000 0.5000
O18 O -0.0175(4) 0.2077(3) 0.2813(4)
O19 O 0.3407(5) -0.0735(3) 0.3383(5)
loop_
_geom_bond_atom_site_label_1
_geom_bond_atom_site_label_2
_geom_bond_site_symmetry_1
_geom_bond_site_symmetry_2
Cu1 O1 1_555 1_555
Cu2 O2 1_555 1_555
Cu3 O2 1_555 1_555
O1 C7 1_555 1_555
O2 Cu1 1_555 1_555
O3 Cu2 1_555 1_555
O4 Cu2 1_555 1_555
O5 C8 1_555 1_555
O6 N1 1_555 1_555
O7 C16 1_555 1_555
O8 Cu3 1_555 1_555
O9 Cu3 1_555 1_555
O10 Cu3 1_555 1_555
O11 C8 1_555 1_555
O12 N2 1_555 1_555
O13 N2 1_555 1_555
O14 N1 1_555 1_555
O15 C16 1_555 1_555
O16 C15 1_555 1_555
N1 C13 1_555 1_555
N2 C5 1_555 1_555
C1 C2 1_555 1_555
C2 H1 1_555 1_555
C3 C2 1_555 1_555
C4 C3 1_555 1_555
H2 C4 1_555 1_555
C5 C4 1_555 1_555
C6 C1 1_555 1_555
H3 C6 1_555 1_555
C7 O8 1_555 1_555
C8 C3 1_555 1_555
C9 C10 1_555 1_555
C10 H4 1_555 1_555
C11 C10 1_555 1_555
C12 C11 1_555 1_555
H5 C12 1_555 1_555
C13 C12 1_555 1_555
C14 C9 1_555 1_555
H6 C14 1_555 1_555
C15 O4 1_555 1_555
C16 C11 1_555 1_555
H7 O3 1_555 1_555
H8 O3 1_555 1_555
H9 O9 1_555 1_555
H10 O9 1_555 1_555
H11 O10 1_555 1_555
H12 O10 1_555 1_555
Cu2A O2A 1_555 1_555
Cu2_2 O5 1_555 1_555
Cu2A_2 O6 1_555 1_555
Cu2A_3 O5A 1_555 1_555
Cu3A O2A 1_555 1_555
Cu3A_2 O7 1_555 1_555
Cu3_2 O7A 1_555 1_555
O1A Cu1 1_555 1_555
O2A Cu1 1_555 1_555
O3A Cu2A 1_555 1_555
O4A Cu2A_2 1_555 1_555
O4A_2 Cu2A 1_555 1_555
O5A C8A 1_555 1_555
O5_2 Cu2 1_555 1_555
O5A_2 Cu2A 1_555 1_555
O6A Cu2 1_555 1_555
O6_2 Cu2A 1_555 1_555
O7A C16A 1_555 1_555
O7A_2 Cu3 1_555 1_555
O7_2 Cu3A 1_555 1_555
O8A Cu3A 1_555 1_555
O9A Cu3A 1_555 1_555
O10A Cu3A 1_555 1_555
O11A C8A 1_555 1_555
O12A N2A 1_555 1_555
O13A N2A 1_555 1_555
O14A N1A 1_555 1_555
O15A C16A 1_555 1_555
O16A C15A 1_555 1_555
N1A O6A 1_555 1_555
N2A C5A 1_555 1_555
C1A C2A 1_555 1_555
C2A H1A 1_555 1_555
C3A C2A 1_555 1_555
C4A C3A 1_555 1_555
H2A C4A 1_555 1_555
C5A C4A 1_555 1_555
C6A C1A 1_555 1_555
H3A C6A 1_555 1_555
C7A O1A 1_555 1_555
C8A C3A 1_555 1_555
C9A C10A 1_555 1_555
C10A H4A 1_555 1_555
C11A C10A 1_555 1_555
C12A C11A 1_555 1_555
H5A C12A 1_555 1_555
C13A N1A 1_555 1_555
C14A C9A 1_555 1_555
H6A C14A 1_555 1_555
C15A O4A 1_555 1_555
C16A C11A 1_555 1_555
H7A O3A 1_555 1_555
H8A O3A 1_555 1_555
H9A O9A 1_555 1_555
H10A O9A 1_555 1_555
H11A O10A 1_555 1_555
H12A O10A 1_555 1_555
C1 C7 1_555 1_555
C5 C6 1_555 1_555
C9 C15 1_555 1_555
C13 C14 1_555 1_555
O8A C7A 1_555 1_555
C1A C7A 1_555 1_555
C5A C6A 1_555 1_555
C9A C15A 1_555 1_555
C12A C13A 1_555 1_555
C13A C14A 1_555 1_555

#END
