
#######################################################################
#
#                 Cambridge Crystallographic Data Centre
#                                CCDC 
#
#######################################################################
#
# If this CIF has been generated from an entry in the Cambridge 
# Structural Database, then it will include bibliographic, chemical, 
# crystal, experimental, refinement or atomic coordinate data resulting 
# from the CCDC's data processing and validation procedures.
#
#######################################################################

data_KAMGIO
_symmetry_cell_setting           orthorhombic
_symmetry_space_group_name_H-M   'P b c n'
_symmetry_Int_Tables_number      60
_space_group_name_Hall           '-P 2n 2ab'
loop_
_symmetry_equiv_pos_site_id
_symmetry_equiv_pos_as_xyz
1 x,y,z
2 1/2-x,1/2+y,z
3 x,-y,1/2+z
4 1/2-x,1/2-y,1/2+z
5 -x,-y,-z
6 1/2+x,1/2-y,-z
7 -x,y,1/2-z
8 1/2+x,1/2+y,1/2-z
_cell_length_a                   23.056(7)
_cell_length_b                   21.078(10)
_cell_length_c                   14.256(3)
_cell_angle_alpha                90
_cell_angle_beta                 90
_cell_angle_gamma                90
_cell_volume                     6928.05
loop_
_atom_site_label
_atom_site_type_symbol
_atom_site_fract_x
_atom_site_fract_y
_atom_site_fract_z
Ba1 Ba 0.19117(5) 0.04849(6) -0.10080(8)
Zn1 Zn 0.3257(1) -0.0167(1) 0.0012(2)
S1 S 0.0712(3) 0.1425(3) -0.0198(4)
S2 S 0.2470(2) 0.0474(3) 0.1641(3)
F1 F 0.1216(8) 0.1827(9) 0.132(1)
F2 F 0.0295(8) 0.1745(9) 0.141(1)
F3 F 0.0675(8) 0.2485(7) 0.065(1)
F4 F 0.2432(9) 0.1639(8) 0.219(1)
F5 F 0.3062(9) 0.1439(8) 0.110(1)
F6 F 0.3193(8) 0.1166(8) 0.252(1)
O1 O 0.4465(7) -0.0017(9) 0.097(1)
O2 O 0.3073(6) 0.0579(6) -0.0778(7)
O3 O 0.2639(6) 0.1349(7) -0.1993(8)
O4 O 0.1590(6) 0.1007(7) -0.2737(9)
O5 O 0.0926(6) 0.0076(7) -0.1968(9)
O6 O 0.1383(6) -0.0663(6) -0.0441(9)
O7 O 0.2481(6) -0.0510(7) -0.0348(8)
O8 O 0.4183(9) -0.1137(9) -0.044(1)
O9 O 0.0171(8) 0.1588(9) -0.061(1)
O10 O 0.0770(8) 0.0776(9) 0.013(1)
O11 O 0.1231(8) 0.1619(8) -0.068(1)
O12 O 0.2075(6) 0.0631(6) 0.0887(9)
O13 O 0.2939(6) 0.0065(7) 0.1373(9)
O14 O 0.2206(6) 0.0290(7) 0.2543(9)
N1 N 0.4075(8) 0.0238(8) 0.031(1)
N2 N 0.3561(8) -0.1059(9) -0.035(1)
C1 C 0.423(1) -0.043(1) 0.163(2)
C2 C 0.429(1) 0.068(1) -0.016(1)
C3 C 0.4034(9) 0.104(1) -0.086(1)
C4 C 0.3447(9) 0.098(1) -0.111(1)
C5 C 0.438(1) 0.148(1) -0.131(1)
C6 C 0.418(1) 0.189(1) -0.198(1)
C7 C 0.360(1) 0.184(1) -0.227(2)
C8 C 0.3233(9) 0.140(1) -0.180(1)
C9 C 0.240(1) 0.168(1) -0.280(1)
C10 C 0.178(1) 0.166(1) -0.281(1)
C11 C 0.100(1) 0.093(1) -0.300(2)
C12 C 0.086(1) 0.027(1) -0.290(1)
C13 C 0.075(1) -0.058(1) -0.181(1)
C14 C 0.079(1) -0.069(1) -0.080(1)
C15 C 0.1704(9) -0.120(1) -0.041(1)
C16 C 0.2311(8) -0.1118(9) -0.032(1)
C17 C 0.148(1) -0.181(1) -0.039(2)
C18 C 0.185(1) -0.231(1) -0.033(1)
C19 C 0.241(1) -0.224(1) -0.027(1)
C20 C 0.2677(9) -0.163(1) -0.031(1)
C21 C 0.328(1) -0.156(1) -0.035(2)
C22 C 0.435(1) -0.088(1) -0.130(2)
C23 C 0.071(1) 0.189(1) 0.087(2)
C24 C 0.280(1) 0.125(1) 0.183(2)
H1 H 0.394 -0.022 0.197
H2 H 0.407 -0.078 0.130
H3 H 0.452 -0.058 0.204
H4 H 0.467 0.080 0.001
H5 H 0.478 0.151 -0.113
H6 H 0.444 0.220 -0.225
H7 H 0.346 0.211 -0.274
H8 H 0.254 0.210 -0.282
H9 H 0.253 0.146 -0.335
H10 H 0.165 0.189 -0.227
H11 H 0.163 0.185 -0.335
H12 H 0.076 0.117 -0.260
H13 H 0.095 0.107 -0.363
H14 H 0.046 0.020 -0.308
H15 H 0.111 0.002 -0.329
H16 H 0.102 -0.085 -0.211
H17 H 0.038 -0.066 -0.204
H18 H 0.063 -0.110 -0.066
H19 H 0.056 -0.038 -0.051
H20 H 0.108 -0.187 -0.041
H21 H 0.169 -0.273 -0.032
H22 H 0.265 -0.261 -0.021
H23 H 0.351 -0.194 -0.037
H24 H 0.414 -0.108 -0.180
H25 H 0.424 -0.044 -0.128
H26 H 0.475 -0.091 -0.141
O14B O 0.2206(6) -0.0290(7) -0.2457(9)
Ba1B Ba 0.19117(5) -0.04849(6) 0.39920(8)
loop_
_geom_bond_atom_site_label_1
_geom_bond_atom_site_label_2
_geom_bond_site_symmetry_1
_geom_bond_site_symmetry_2
Ba1 O2 1_555 1_555
Zn1 O2 1_555 1_555
S1 O9 1_555 1_555
S2 O12 1_555 1_555
F1 C23 1_555 1_555
F2 C23 1_555 1_555
F3 C23 1_555 1_555
F4 C24 1_555 1_555
F5 C24 1_555 1_555
F6 C24 1_555 1_555
O1 N1 1_555 1_555
O2 C4 1_555 1_555
O3 Ba1 1_555 1_555
O4 Ba1 1_555 1_555
O5 Ba1 1_555 1_555
O6 Ba1 1_555 1_555
O7 Ba1 1_555 1_555
O8 N2 1_555 1_555
O10 Ba1 1_555 1_555
O11 Ba1 1_555 1_555
O12 Ba1 1_555 1_555
O13 Zn1 1_555 1_555
O14 S2 1_555 1_555
N1 Zn1 1_555 1_555
N2 Zn1 1_555 1_555
C1 O1 1_555 1_555
C2 N1 1_555 1_555
C3 C2 1_555 1_555
C4 C3 1_555 1_555
C5 C3 1_555 1_555
C6 C5 1_555 1_555
C7 C6 1_555 1_555
C8 O3 1_555 1_555
C9 O3 1_555 1_555
C10 O4 1_555 1_555
C11 O4 1_555 1_555
C12 O5 1_555 1_555
C13 O5 1_555 1_555
C14 O6 1_555 1_555
C15 O6 1_555 1_555
C16 O7 1_555 1_555
C17 C15 1_555 1_555
C18 C17 1_555 1_555
C19 C18 1_555 1_555
C20 C16 1_555 1_555
C21 N2 1_555 1_555
C22 O8 1_555 1_555
C23 S1 1_555 1_555
C24 S2 1_555 1_555
H1 C1 1_555 1_555
H2 C1 1_555 1_555
H3 C1 1_555 1_555
H4 C2 1_555 1_555
H5 C5 1_555 1_555
H6 C6 1_555 1_555
H7 C7 1_555 1_555
H8 C9 1_555 1_555
H9 C9 1_555 1_555
H10 C10 1_555 1_555
H11 C10 1_555 1_555
H12 C11 1_555 1_555
H13 C11 1_555 1_555
H14 C12 1_555 1_555
H15 C12 1_555 1_555
H16 C13 1_555 1_555
H17 C13 1_555 1_555
H18 C14 1_555 1_555
H19 C14 1_555 1_555
H20 C17 1_555 1_555
H21 C18 1_555 1_555
H22 C19 1_555 1_555
H23 C21 1_555 1_555
H24 C22 1_555 1_555
H25 C22 1_555 1_555
H26 C22 1_555 1_555
O14B Ba1 1_555 1_555
Ba1B O14 1_555 1_555
Zn1 O7 1_555 1_555
S1 O10 1_555 1_555
S1 O11 1_555 1_555
S2 O13 1_555 1_555
C4 C8 1_555 1_555
C7 C8 1_555 1_555
C9 C10 1_555 1_555
C11 C12 1_555 1_555
C13 C14 1_555 1_555
C15 C16 1_555 1_555
C19 C20 1_555 1_555
C20 C21 1_555 1_555

#END
