
#######################################################################
#
#                 Cambridge Crystallographic Data Centre
#                                CCDC 
#
#######################################################################
#
# If this CIF has been generated from an entry in the Cambridge 
# Structural Database, then it will include bibliographic, chemical, 
# crystal, experimental, refinement or atomic coordinate data resulting 
# from the CCDC's data processing and validation procedures.
#
#######################################################################

data_KAMTAV
_symmetry_cell_setting           triclinic
_symmetry_space_group_name_H-M   'P -1'
_symmetry_Int_Tables_number      2
_space_group_name_Hall           '-P 1'
loop_
_symmetry_equiv_pos_site_id
_symmetry_equiv_pos_as_xyz
1 x,y,z
2 -x,-y,-z
_cell_length_a                   8.1883(6)
_cell_length_b                   11.1924(8)
_cell_length_c                   12.4876(10)
_cell_angle_alpha                89.5360(10)
_cell_angle_beta                 84.0880(10)
_cell_angle_gamma                69.4660(10)
_cell_volume                     1065.55
loop_
_atom_site_label
_atom_site_type_symbol
_atom_site_fract_x
_atom_site_fract_y
_atom_site_fract_z
Mo1 Mo 0.99905(4) 0.62812(3) 0.56029(2)
Mo2 Mo 0.44359(4) 0.47933(3) 0.37579(2)
Mo3 Mo 0.64867(4) 0.71706(3) 0.45205(2)
Ni1 Ni 0.83955(6) 0.78253(4) 0.18969(4)
C1 C 0.6508(6) 0.6180(4) 0.0668(4)
H1 H 0.5662 0.6124 0.1203
C2 C 0.6830(7) 0.5630(5) -0.0329(4)
H2 H 0.6248 0.5144 -0.0608
C3 C 0.8600(5) 0.6653(4) -0.0158(3)
C4 C 0.9957(5) 0.7232(4) -0.0277(3)
C5 C 1.2194(6) 0.7799(5) -0.0738(4)
H3 H 1.3163 0.7909 -0.1124
C6 C 1.1505(6) 0.8235(5) 0.0291(4)
H4 H 1.1932 0.8702 0.0728
C7 C 1.0641(5) 0.9021(4) 0.3307(3)
H5 H 1.1681 0.8334 0.3335
C8 C 1.0312(5) 1.0210(4) 0.3709(4)
H6 H 1.1072 1.0493 0.4051
C9 C 0.8016(5) 1.0142(4) 0.2998(3)
C10 C 0.6378(5) 1.0396(4) 0.2521(3)
C11 C 0.4680(5) 0.9970(4) 0.1508(3)
H7 H 0.4264 0.9560 0.1015
C12 C 0.3752(6) 1.1081(4) 0.2023(4)
H8 H 0.2586 1.1571 0.1961
N1 N 1.0104(4) 0.7879(3) 0.0570(3)
N2 N 1.1187(5) 0.7176(4) -0.1084(3)
H9 H 1.1316 0.6812 -0.1707
N3 N 0.8194(5) 0.5937(4) -0.0847(3)
H10 H 0.8685 0.5707 -0.1492
N4 N 0.7622(4) 0.6831(3) 0.0766(3)
N5 N 0.9199(4) 0.8984(3) 0.2849(3)
N6 N 0.8626(4) 1.0919(3) 0.3511(3)
H11 H 0.8069 1.1711 0.3684
N7 N 0.6340(4) 0.9530(3) 0.1820(3)
N8 N 0.4839(4) 1.1360(3) 0.2657(3)
H12 H 0.4583 1.2029 0.3066
O1 O 0.6756(3) 0.7423(2) 0.3165(2)
O2 O 0.8186(3) 0.7718(2) 0.5081(2)
O3 O 1.1820(3) 0.6481(3) 0.4955(2)
O4 O 0.9872(3) 0.6737(3) 0.6927(2)
O5 O 1.0818(3) 0.4480(2) 0.57580(18)
O6 O 0.4634(3) 0.8364(3) 0.4998(2)
O7 O 0.5523(3) 0.5797(2) 0.45620(19)
O8 O 0.3600(3) 0.5879(3) 0.2796(2)
O9 O 0.6269(3) 0.3685(3) 0.3101(2)
O10 O 0.7034(3) 0.6139(2) 0.60953(19)
O11 O 1.0305(3) 0.6141(3) 0.2339(2)
H13 H 1.121(3) 0.627(3) 0.243(3)
H14 H 0.989(5) 0.585(5) 0.286(2)
Mo1A Mo 1.00095(4) 0.37188(3) 0.43971(2)
Mo2A Mo 0.55641(4) 0.52067(3) 0.62421(2)
Mo3A Mo 1.35133(4) 0.28294(3) 0.54795(2)
O5A O 0.9182(3) 0.5520(2) 0.42420(18)
O7A O 0.4477(3) 0.4203(2) 0.54380(19)
O10A O 0.2966(3) 0.3861(2) 0.39047(19)
loop_
_geom_bond_atom_site_label_1
_geom_bond_atom_site_label_2
_geom_bond_site_symmetry_1
_geom_bond_site_symmetry_2
Mo1 O2 1_555 1_555
Mo2 O7 1_555 1_555
Mo3 O1 1_555 1_555
Ni1 N1 1_555 1_555
C1 H1 1_555 1_555
C2 C1 1_555 1_555
H2 C2 1_555 1_555
C3 C4 1_555 1_555
C4 N1 1_555 1_555
C5 H3 1_555 1_555
C6 C5 1_555 1_555
H4 C6 1_555 1_555
C7 H5 1_555 1_555
C8 C7 1_555 1_555
H6 C8 1_555 1_555
C9 C10 1_555 1_555
C10 N7 1_555 1_555
C11 H7 1_555 1_555
C12 C11 1_555 1_555
H8 C12 1_555 1_555
N1 C6 1_555 1_555
N2 C4 1_555 1_555
H9 N2 1_555 1_555
N3 C2 1_555 1_555
H10 N3 1_555 1_555
N4 Ni1 1_555 1_555
N5 Ni1 1_555 1_555
N6 C8 1_555 1_555
H11 N6 1_555 1_555
N7 Ni1 1_555 1_555
N8 C10 1_555 1_555
H12 N8 1_555 1_555
O1 Ni1 1_555 1_555
O2 Mo3 1_555 1_555
O3 Mo1 1_555 1_555
O4 Mo1 1_555 1_555
O5 Mo1 1_555 1_555
O6 Mo3 1_555 1_555
O7 Mo3 1_555 1_555
O8 Mo2 1_555 1_555
O9 Mo2 1_555 1_555
O10 Mo3 1_555 1_555
O11 Ni1 1_555 1_555
H13 O11 1_555 1_555
H14 O11 1_555 1_555
Mo1A O5 1_555 1_555
Mo2A O7 1_555 1_555
Mo3A O5 1_555 1_555
O5A Mo1 1_555 1_555
O7A Mo2 1_555 1_555
O10A Mo2 1_555 1_555
Mo3 O5A 1_555 1_555
C1 N4 1_555 1_555
C3 N3 1_555 1_555
C3 N4 1_555 1_555
C5 N2 1_555 1_555
C7 N5 1_555 1_555
C9 N5 1_555 1_555
C9 N6 1_555 1_555
C11 N7 1_555 1_555
C12 N8 1_555 1_555
O10 Mo2A 1_555 1_555
Mo1A O5A 1_555 1_555
Mo2A O7A 1_555 1_555

#END
