
#######################################################################
#
#                 Cambridge Crystallographic Data Centre
#                                CCDC 
#
#######################################################################
#
# If this CIF has been generated from an entry in the Cambridge 
# Structural Database, then it will include bibliographic, chemical, 
# crystal, experimental, refinement or atomic coordinate data resulting 
# from the CCDC's data processing and validation procedures.
#
#######################################################################

data_KAMYED
_symmetry_cell_setting           triclinic
_symmetry_space_group_name_H-M   'P -1'
_symmetry_Int_Tables_number      2
_space_group_name_Hall           '-P 1'
loop_
_symmetry_equiv_pos_site_id
_symmetry_equiv_pos_as_xyz
1 x,y,z
2 -x,-y,-z
_cell_length_a                   10.007(2)
_cell_length_b                   11.354(2)
_cell_length_c                   11.685(2)
_cell_angle_alpha                64.82(3)
_cell_angle_beta                 70.36(3)
_cell_angle_gamma                76.68(3)
_cell_volume                     1125.62
loop_
_atom_site_label
_atom_site_type_symbol
_atom_site_fract_x
_atom_site_fract_y
_atom_site_fract_z
K1 K 0.38979(5) 1.04900(5) 0.26618(4)
K2 K 0.55524(5) 1.28239(4) -0.11062(4)
K3 K 0.58697(5) 0.66385(4) 0.39274(4)
O1 O 0.83429(18) 0.52117(19) 0.44257(19)
H1 H 0.8477 0.5347 0.5124
H2 H 0.9101 0.5159 0.3974
O2 O 0.2574(2) 1.15397(19) 0.4799(2)
H3 H 0.1995 1.2363 0.4639
H4 H 0.2051 1.0834 0.5468
O3 O 0.69097(18) 1.29907(18) -0.37202(18)
H5 H 0.7412 1.3623 -0.4300
H6 H 0.7520 1.2348 -0.3799
O4 O 0.14503(16) 0.92499(16) 0.41082(15)
H7 H 0.0698 0.9660 0.3921
H8 H 0.1378 0.9219 0.4852
O5 O 0.46395(16) 1.53376(14) -0.32798(14)
H9 H 0.5406 1.5391 -0.3081
H10 H 0.4031 1.5894 -0.3071
O6 O 0.47421(18) 0.86892(17) 0.48157(15)
H11 H 0.4044 0.8365 0.5597
H12 H 0.5551 0.8657 0.5032
O7 O 0.51752(15) 1.28648(16) 0.13413(16)
H13 H 0.4589 1.3564 0.1434
H14 H 0.5768 1.2747 0.1723
P1 P 0.85646(4) 1.17571(4) 0.23321(4)
O8 O 0.89344(14) 1.05609(12) 0.34510(12)
O9 O 0.71609(13) 1.25279(13) 0.27124(12)
O10 O 1.02583(14) 1.28826(13) -0.06689(12)
O11 O 1.12930(16) 1.42055(17) 0.37049(15)
O12 O 1.32640(14) 1.48440(14) 0.20873(15)
O13 O 0.58977(16) 0.85867(14) 0.17245(13)
O14 O 0.64951(16) 0.89501(14) -0.04009(13)
C1 C 0.99871(17) 1.27800(16) 0.15376(16)
C2 C 1.04752(18) 1.31966(17) 0.22775(17)
H15 H 1.003(2) 1.290(2) 0.321(2)
C3 C 1.15556(18) 1.40123(17) 0.17061(17)
C4 C 1.21562(18) 1.44368(17) 0.03465(18)
H16 H 1.284(2) 1.505(2) -0.006(2)
C5 C 1.16855(18) 1.40467(17) -0.04091(17)
H17 H 1.200(2) 1.439(2) -0.134(2)
C6 C 1.06180(17) 1.32058(16) 0.01890(16)
C7 C 1.20717(19) 1.43989(17) 0.25574(18)
C8 C 0.85463(17) 1.13493(15) 0.10216(15)
C9 C 0.76700(17) 1.04193(16) 0.12597(16)
H18 H 0.719(2) 0.995(2) 0.213(2)
C10 C 0.75505(17) 1.01318(16) 0.02597(16)
C11 C 0.8347(2) 1.07861(18) -0.10218(17)
H19 H 0.825(2) 1.056(2) -0.166(2)
C12 C 0.9226(2) 1.17019(19) -0.12953(17)
H20 H 0.981(3) 1.218(2) -0.224(2)
C13 C 0.93269(17) 1.19768(16) -0.02730(16)
C14 C 0.65739(18) 0.91409(17) 0.05473(17)
K1A K 0.61021(5) 0.95100(5) -0.26618(4)
K2A K 0.44476(5) 0.71761(4) 0.11062(4)
K2A_2 K 1.44476(5) 1.71761(4) 0.11062(4)
K3A K 0.41303(5) 1.33615(4) -0.39274(4)
K3A_2 K 0.41303(5) 0.33615(4) 0.60726(4)
K3_2 K 0.58697(5) 1.66385(4) -0.60726(4)
O3A O 0.30903(18) 0.70093(18) 0.37202(18)
H5A H 0.2588 0.6377 0.4300
H6A H 0.2480 0.7652 0.3799
O5_2 O 0.46395(16) 0.53376(14) 0.67202(14)
O5A O 0.53605(16) 0.46624(14) 0.32798(14)
H9_2 H 0.5406 0.5391 0.6919
H9A H 0.4594 0.4609 0.3081
H10_2 H 0.4031 0.5894 0.6929
H10A H 0.5969 0.4106 0.3071
O12A O 0.67360(14) 1.51560(14) -0.20873(15)
O13A O 0.41023(16) 1.14133(14) -0.17245(13)
O14A O 0.35049(16) 1.10499(14) 0.04009(13)
loop_
_geom_bond_atom_site_label_1
_geom_bond_atom_site_label_2
_geom_bond_site_symmetry_1
_geom_bond_site_symmetry_2
K1 O2 1_555 1_555
K2 O3 1_555 1_555
K3 O1 1_555 1_555
O1 H1 1_555 1_555
H2 O1 1_555 1_555
O2 H3 1_555 1_555
H4 O2 1_555 1_555
O3 H5 1_555 1_555
H6 O3 1_555 1_555
O4 K1 1_555 1_555
H7 O4 1_555 1_555
H8 O4 1_555 1_555
O5 K2 1_555 1_555
H9 O5 1_555 1_555
H10 O5 1_555 1_555
O6 K1 1_555 1_555
H11 O6 1_555 1_555
H12 O6 1_555 1_555
O7 K1 1_555 1_555
H13 O7 1_555 1_555
H14 O7 1_555 1_555
P1 O8 1_555 1_555
O9 P1 1_555 1_555
O10 C6 1_555 1_555
O11 C7 1_555 1_555
O12 C7 1_555 1_555
O13 K1 1_555 1_555
O14 C14 1_555 1_555
C1 P1 1_555 1_555
C2 C1 1_555 1_555
H15 C2 1_555 1_555
C3 C2 1_555 1_555
C4 C3 1_555 1_555
H16 C4 1_555 1_555
C5 C4 1_555 1_555
H17 C5 1_555 1_555
C6 C1 1_555 1_555
C7 C3 1_555 1_555
C8 P1 1_555 1_555
C9 C8 1_555 1_555
H18 C9 1_555 1_555
C10 C9 1_555 1_555
C11 C10 1_555 1_555
H19 C11 1_555 1_555
C12 C11 1_555 1_555
H20 C12 1_555 1_555
C13 O10 1_555 1_555
C14 O13 1_555 1_555
K1A O14 1_555 1_555
K2A O13 1_555 1_555
K2A_2 O12 1_555 1_555
K3A O3 1_555 1_555
K3A_2 O5_2 1_555 1_555
K3_2 O5 1_555 1_555
O3A K3 1_555 1_555
H5A O3A 1_555 1_555
H6A O3A 1_555 1_555
O5_2 K3 1_555 1_555
O5A K3 1_555 1_555
H9_2 O5_2 1_555 1_555
H9A O5A 1_555 1_555
H10_2 O5_2 1_555 1_555
H10A O5A 1_555 1_555
O12A K2 1_555 1_555
O13A K2 1_555 1_555
O14A K1 1_555 1_555
K2 O7 1_555 1_555
K2 O14A 1_555 1_555
K3 O6 1_555 1_555
K3 O13 1_555 1_555
O5 K3A 1_555 1_555
O14 K2A 1_555 1_555
C5 C6 1_555 1_555
C8 C13 1_555 1_555
C10 C14 1_555 1_555
C12 C13 1_555 1_555
K1A O13A 1_555 1_555
K2A O3A 1_555 1_555
K2A O5A 1_555 1_555
K3A O13A 1_555 1_555
K3A_2 O5A 1_555 1_555

#END
