
#######################################################################
#
#                 Cambridge Crystallographic Data Centre
#                                CCDC 
#
#######################################################################
#
# If this CIF has been generated from an entry in the Cambridge 
# Structural Database, then it will include bibliographic, chemical, 
# crystal, experimental, refinement or atomic coordinate data resulting 
# from the CCDC's data processing and validation procedures.
#
#######################################################################

data_KANQEX
_symmetry_cell_setting           triclinic
_symmetry_space_group_name_H-M   'P -1'
_symmetry_Int_Tables_number      2
_space_group_name_Hall           '-P 1'
loop_
_symmetry_equiv_pos_site_id
_symmetry_equiv_pos_as_xyz
1 x,y,z
2 -x,-y,-z
_cell_length_a                   7.6582(4)
_cell_length_b                   9.6289(5)
_cell_length_c                   10.2759(7)
_cell_angle_alpha                85.514(1)
_cell_angle_beta                 68.177(1)
_cell_angle_gamma                72.234(1)
_cell_volume                     669.364
loop_
_atom_site_label
_atom_site_type_symbol
_atom_site_fract_x
_atom_site_fract_y
_atom_site_fract_z
Cd1 Cd 0.0488 0.2943 0.4323
O1 O 0.3489(2) 0.1677(2) 0.2829(2)
O2 O 0.2533(3) 0.0315(2) 0.4615(2)
O3 O -0.1174(3) 0.1701(2) 0.3617(2)
H1 H -0.1828 0.2253 0.3205
O4 O 0.8075(3) -0.4296(2) 0.4690(2)
O5 O 0.9949(3) -0.5488(2) 0.2652(2)
C1 C -0.1344(4) 0.1834(2) 0.7548(3)
H2 H -0.0333 0.0957 0.7362
N1 N -0.2676(3) 0.2254(2) 0.8809(2)
N2 N -0.3839(3) 0.3560(2) 0.8584(2)
C2 C 0.7919(4) -0.1927(3) 0.0443(2)
H3 H 0.8491 -0.1912 -0.0528
C3 C 0.3711(3) 0.0458(2) 0.3431(2)
C4 C 0.6163(3) -0.1994(2) 0.3355(2)
H4 H 0.5568 -0.2024 0.4323
C5 C 0.8625(3) -0.3121(2) 0.1152(2)
H5 H 0.9674 -0.3907 0.0654
C6 C 0.7772(3) -0.3147(2) 0.2606(2)
C7 C 0.5446(3) -0.0792(2) 0.2648(2)
C8 C 0.8654(3) -0.4399(2) 0.3364(3)
C9 C -0.5413(3) 0.4499(2) 0.9736(2)
H6 H -0.5970 0.3908 1.0491
H7 H -0.6449 0.5079 0.9420
N3 N -0.1576(3) 0.2790(2) 0.6547(2)
C10 C 0.6357(3) -0.0760(2) 0.1193(2)
H8 H 0.5910 0.0054 0.0723
C11 C -0.3157(3) 0.3859(2) 0.7244(2)
H9 H -0.3709 0.4699 0.6848
H10 H -0.179(5) 0.119(4) 0.421(3)
Cd1A Cd 0.9512 -0.2943 0.5677
Cd1_2 Cd 1.0488 -0.7057 0.4323
Cd1A_2 Cd -1.0488 0.7057 1.5677
Cd1A_3 Cd -0.0488 0.7057 0.5677
O1A O 0.6511(2) -0.1677(2) 0.7171(2)
O2A O 0.7467(3) -0.0315(2) 0.5385(2)
O3A O 1.1174(3) -0.1701(2) 0.6383(2)
H1A H 1.1828 -0.2253 0.6795
O4A O 0.1925(3) 0.4296(2) 0.5310(2)
O5A O 0.0051(3) 0.5488(2) 0.7348(2)
O5_2 O -0.0051(3) 0.4512(2) 0.2652(2)
O5A_2 O 1.0051(3) -0.4512(2) 0.7348(2)
C1A C -0.8656(4) 0.8166(2) 1.2452(3)
H2A H -0.9667 0.9043 1.2638
N1A N -0.7324(3) 0.7746(2) 1.1191(2)
N2A N -0.6161(3) 0.6440(2) 1.1416(2)
C2A C 0.2081(4) 0.1927(3) 0.9557(2)
H3A H 0.1509 0.1912 1.0528
C3A C 0.6289(3) -0.0458(2) 0.6569(2)
C4A C 0.3837(3) 0.1994(2) 0.6645(2)
H4A H 0.4432 0.2024 0.5677
C5A C 0.1375(3) 0.3121(2) 0.8848(2)
H5A H 0.0326 0.3907 0.9346
C6A C 0.2228(3) 0.3147(2) 0.7394(2)
C7A C 0.4554(3) 0.0792(2) 0.7352(2)
C8A C 0.1346(3) 0.4399(2) 0.6636(3)
C9A C -0.4587(3) 0.5501(2) 1.0264(2)
H6A H -0.4030 0.6092 0.9509
H7A H -0.3551 0.4921 1.0580
N3A N -0.8424(3) 0.7210(2) 1.3453(2)
N3A_2 N 1.1576(3) -0.2790(2) 0.3453(2)
C10A C 0.3643(3) 0.0760(2) 0.8807(2)
H8A H 0.4090 -0.0054 0.9277
C11A C -0.6843(3) 0.6141(2) 1.2756(2)
H9A H -0.6291 0.5301 1.3152
H10A H 1.179(5) -0.119(4) 0.579(3)
O6 O 0.3186(4) 0.7431(3) 0.8149(3)
H11 H 0.424(4) 0.768(5) 0.779(4)
H12 H 0.247(5) 0.794(4) 0.891(3)
loop_
_geom_bond_atom_site_label_1
_geom_bond_atom_site_label_2
_geom_bond_site_symmetry_1
_geom_bond_site_symmetry_2
Cd1 O1 1_555 1_555
O1 C3 1_555 1_555
O2 Cd1 1_555 1_555
O3 Cd1 1_555 1_555
H1 O3 1_555 1_555
O4 C8 1_555 1_555
O5 C8 1_555 1_555
C1 H2 1_555 1_555
N1 C1 1_555 1_555
N2 N1 1_555 1_555
C2 H3 1_555 1_555
C3 O2 1_555 1_555
C4 H4 1_555 1_555
C5 C2 1_555 1_555
H5 C5 1_555 1_555
C6 C4 1_555 1_555
C7 C3 1_555 1_555
C8 C6 1_555 1_555
C9 N2 1_555 1_555
H6 C9 1_555 1_555
H7 C9 1_555 1_555
N3 Cd1 1_555 1_555
C10 C2 1_555 1_555
H8 C10 1_555 1_555
C11 N2 1_555 1_555
H9 C11 1_555 1_555
O6 H11 1_555 1_555
H10 O3 1_555 1_555
H12 O6 1_555 1_555
Cd1A O4 1_555 1_555
Cd1_2 O5 1_555 1_555
Cd1A_2 N3A 1_555 1_555
Cd1A_3 O5A 1_555 1_555
O1A Cd1A 1_555 1_555
O2A Cd1A 1_555 1_555
O3A Cd1A 1_555 1_555
H1A O3A 1_555 1_555
O4A Cd1 1_555 1_555
O5A C8A 1_555 1_555
O5_2 Cd1 1_555 1_555
O5A_2 Cd1A 1_555 1_555
C1A H2A 1_555 1_555
N1A C1A 1_555 1_555
N2A N1A 1_555 1_555
C2A H3A 1_555 1_555
C3A O1A 1_555 1_555
C4A H4A 1_555 1_555
C5A C2A 1_555 1_555
H5A C5A 1_555 1_555
C6A C4A 1_555 1_555
C7A C3A 1_555 1_555
C8A O4A 1_555 1_555
C9A C9 1_555 1_555
H6A C9A 1_555 1_555
H7A C9A 1_555 1_555
N3A C1A 1_555 1_555
N3A_2 Cd1A 1_555 1_555
C10A C2A 1_555 1_555
H8A C10A 1_555 1_555
C11A N2A 1_555 1_555
H9A C11A 1_555 1_555
H10A O3A 1_555 1_555
C1 N3 1_555 1_555
C4 C7 1_555 1_555
C5 C6 1_555 1_555
C7 C10 1_555 1_555
N3 C11 1_555 1_555
O2A C3A 1_555 1_555
N2A C9A 1_555 1_555
C4A C7A 1_555 1_555
C5A C6A 1_555 1_555
C6A C8A 1_555 1_555
C7A C10A 1_555 1_555
N3A C11A 1_555 1_555

#END
