
#######################################################################
#
#                 Cambridge Crystallographic Data Centre
#                                CCDC 
#
#######################################################################
#
# If this CIF has been generated from an entry in the Cambridge 
# Structural Database, then it will include bibliographic, chemical, 
# crystal, experimental, refinement or atomic coordinate data resulting 
# from the CCDC's data processing and validation procedures.
#
#######################################################################

data_KANWON
_symmetry_cell_setting           orthorhombic
_symmetry_space_group_name_H-M   'P 21 21 21'
_symmetry_Int_Tables_number      19
_space_group_name_Hall           'P 2ac 2ab'
loop_
_symmetry_equiv_pos_site_id
_symmetry_equiv_pos_as_xyz
1 x,y,z
2 1/2-x,-y,1/2+z
3 -x,1/2+y,1/2-z
4 1/2+x,1/2-y,-z
_cell_length_a                   8.3934(9)
_cell_length_b                   12.9486(15)
_cell_length_c                   17.602(2)
_cell_angle_alpha                90
_cell_angle_beta                 90
_cell_angle_gamma                90
_cell_volume                     1913.03
loop_
_atom_site_label
_atom_site_type_symbol
_atom_site_fract_x
_atom_site_fract_y
_atom_site_fract_z
Zn1 Zn 0.75330(3) 0.169220(15) 0.172440(12)
O1 O 0.8698(2) 0.04601(11) 0.14778(9)
O2 O 0.7564(3) 0.04324(12) 0.03402(9)
O3 O 1.1464(2) -0.25318(11) 0.24517(8)
O4 O 1.1817(2) -0.39203(12) 0.17430(9)
N1 N 0.5246(2) 0.13087(13) 0.19645(10)
N2 N 0.7593(3) 0.28506(12) 0.09376(9)
C1 C 0.8459(3) 0.00557(15) 0.08217(12)
C2 C 1.1365(3) -0.30287(16) 0.18214(13)
C3 C 0.9304(3) -0.09429(15) 0.06837(12)
C4 C 0.9951(3) -0.14879(15) 0.12877(12)
H1 H 0.9911 -0.1210 0.1775
C5 C 1.0657(3) -0.24421(16) 0.11721(12)
C6 C 1.0731(3) -0.28423(17) 0.04370(13)
H2 H 1.1181 -0.3490 0.0357
C7 C 1.0143(3) -0.22886(18) -0.01763(12)
C8 C 0.9432(3) -0.13499(16) -0.00510(13)
H3 H 0.9028 -0.0978 -0.0460
C9 C 1.0276(4) -0.2739(3) -0.09790(14)
H4 H 1.0374 -0.3477 -0.0949
H5 H 1.1199 -0.2458 -0.1227
H6 H 0.9340 -0.2564 -0.1265
C10 C 0.4052(3) 0.19926(18) 0.19773(14)
H7 H 0.4261 0.2671 0.1836
C11 C 0.2540(3) 0.17367(19) 0.21891(14)
H8 H 0.1746 0.2238 0.2202
C12 C 0.2194(3) 0.0728(2) 0.23841(15)
H9 H 0.1168 0.0534 0.2523
C13 C 0.3409(3) 0.0021(2) 0.23663(17)
H10 H 0.3214 -0.0666 0.2491
C14 C 0.4915(3) 0.03313(19) 0.21635(16)
H11 H 0.5734 -0.0153 0.2164
C15 C 0.6675(4) 0.2840(2) 0.03162(15)
H12 H 0.5982 0.2289 0.0241
C16 C 0.6725(4) 0.3617(3) -0.02134(18)
H13 H 0.6069 0.3593 -0.0639
C17 C 0.7744(5) 0.4426(3) -0.0111(2)
H14 H 0.7790 0.4960 -0.0464
C18 C 0.8686(5) 0.4440(2) 0.0512(2)
H15 H 0.9395 0.4981 0.0591
C19 C 0.8583(3) 0.36446(19) 0.10248(15)
H16 H 0.9234 0.3661 0.1452
Zn1B Zn 1.24670(3) -0.330780(15) 0.327560(12)
O3B O 0.8536(2) 0.24682(11) 0.25483(8)
O5 O 0.7306(3) 0.90875(13) 0.37252(12)
H17 H 0.7436 0.9651 0.3485
H18 H 0.7439 0.9241 0.4190
loop_
_geom_bond_atom_site_label_1
_geom_bond_atom_site_label_2
_geom_bond_site_symmetry_1
_geom_bond_site_symmetry_2
Zn1 O1 1_555 1_555
O1 C1 1_555 1_555
O2 C1 1_555 1_555
O3 C2 1_555 1_555
O4 C2 1_555 1_555
N1 Zn1 1_555 1_555
N2 Zn1 1_555 1_555
C1 C3 1_555 1_555
C2 C5 1_555 1_555
C3 C4 1_555 1_555
C4 H1 1_555 1_555
C5 C4 1_555 1_555
C6 C5 1_555 1_555
H2 C6 1_555 1_555
C7 C6 1_555 1_555
C8 C3 1_555 1_555
H3 C8 1_555 1_555
C9 C7 1_555 1_555
H4 C9 1_555 1_555
H5 C9 1_555 1_555
H6 C9 1_555 1_555
C10 N1 1_555 1_555
H7 C10 1_555 1_555
C11 C10 1_555 1_555
H8 C11 1_555 1_555
C12 C11 1_555 1_555
H9 C12 1_555 1_555
C13 C12 1_555 1_555
H10 C13 1_555 1_555
C14 N1 1_555 1_555
H11 C14 1_555 1_555
C15 N2 1_555 1_555
H12 C15 1_555 1_555
C16 C15 1_555 1_555
H13 C16 1_555 1_555
C17 C16 1_555 1_555
H14 C17 1_555 1_555
C18 C17 1_555 1_555
H15 C18 1_555 1_555
C19 N2 1_555 1_555
H16 C19 1_555 1_555
O5 H17 1_555 1_555
H18 O5 1_555 1_555
Zn1B O3 1_555 1_555
O3B Zn1 1_555 1_555
C7 C8 1_555 1_555
C13 C14 1_555 1_555
C18 C19 1_555 1_555

#END
