
#######################################################################
#
#                 Cambridge Crystallographic Data Centre
#                                CCDC 
#
#######################################################################
#
# If this CIF has been generated from an entry in the Cambridge 
# Structural Database, then it will include bibliographic, chemical, 
# crystal, experimental, refinement or atomic coordinate data resulting 
# from the CCDC's data processing and validation procedures.
#
#######################################################################

data_KANXOO
_symmetry_cell_setting           orthorhombic
_symmetry_space_group_name_H-M   'P c 21 n'
_symmetry_Int_Tables_number      33
_space_group_name_Hall           'P -2n -2ac'
loop_
_symmetry_equiv_pos_site_id
_symmetry_equiv_pos_as_xyz
1 x,y,z
2 -x,1/2+y,-z
3 1/2-x,y,1/2+z
4 1/2+x,1/2+y,1/2-z
_cell_length_a                   12.2236(9)
_cell_length_b                   14.5111(11)
_cell_length_c                   15.7752(12)
_cell_angle_alpha                90
_cell_angle_beta                 90
_cell_angle_gamma                90
_cell_volume                     2798.17
loop_
_atom_site_label
_atom_site_type_symbol
_atom_site_fract_x
_atom_site_fract_y
_atom_site_fract_z
C1 C 0.7618(4) 0.5556(3) 0.8470(3)
H1 H 0.7117 0.5754 0.8029
H2 H 0.7704 0.6062 0.8865
C2 C 0.8697(4) 0.5343(4) 0.8081(3)
H3 H 0.9016 0.5898 0.7844
H4 H 0.9193 0.5102 0.8507
C3 C 0.9419(3) 0.4263(3) 0.7064(2)
C4 C 1.0501(4) 0.4465(5) 0.7242(3)
H5 H 1.0675 0.4918 0.7637
C5 C 1.1334(4) 0.3982(6) 0.6821(4)
H6 H 1.2063 0.4112 0.6938
C6 C 1.1072(8) 0.3320(7) 0.6240(5)
H7 H 1.1631 0.3009 0.5962
C7 C 1.0023(6) 0.3105(5) 0.6058(3)
H8 H 0.9872 0.2655 0.5654
C8 C 0.9155(4) 0.3556(4) 0.6473(3)
C9 C 0.8170(7) 0.1687(4) 0.6525(4)
H9 H 0.8929 0.1839 0.6597
H10 H 0.8094 0.1256 0.6067
H11 H 0.7894 0.1417 0.7037
C10 C 0.7528(6) 0.2558(3) 0.6323(3)
C11 C 0.6418(7) 0.2493(3) 0.6195(3)
H12 H 0.6117 0.1904 0.6200
C12 C 0.5725(6) 0.3198(3) 0.6062(2)
C13 C 0.4501(6) 0.3008(4) 0.5995(3)
H13 H 0.4119 0.3577 0.5902
H14 H 0.4248 0.2731 0.6512
H15 H 0.4366 0.2598 0.5530
C14 C 1.0482(5) 0.7264(4) 1.1204(3)
H16 H 1.0882 0.6694 1.1202
H17 H 1.0695 0.7628 1.0724
H18 H 1.0639 0.7596 1.1716
C15 C 0.9288(4) 0.7066(3) 1.1158(2)
C16 C 0.8545(4) 0.7803(3) 1.1152(2)
H19 H 0.8840 0.8392 1.1194
C17 C 0.7417(4) 0.7744(2) 1.1090(2)
C18 C 0.6763(4) 0.8619(3) 1.1023(3)
H20 H 0.5999 0.8471 1.0980
H21 H 0.6884 0.8990 1.1518
H22 H 0.6987 0.8954 1.0528
C19 C 0.5773(3) 0.6723(3) 1.0995(2)
C20 C 0.4998(4) 0.7192(4) 1.1473(3)
H23 H 0.5210 0.7655 1.1845
C21 C 0.3887(4) 0.6955(4) 1.1384(4)
H24 H 0.3350 0.7272 1.1684
C22 C 0.3608(4) 0.6246(4) 1.0845(4)
H25 H 0.2876 0.6086 1.0786
C23 C 0.4390(3) 0.5764(3) 1.0388(3)
H26 H 0.4182 0.5286 1.0030
C24 C 0.5485(3) 0.6001(3) 1.0470(2)
C25 C 0.6084(3) 0.4941(3) 0.9385(3)
H27 H 0.5776 0.4381 0.9620
H28 H 0.5557 0.5205 0.8994
C26 C 0.7121(4) 0.4732(3) 0.8935(3)
H29 H 0.7650 0.4505 0.9344
H30 H 0.6987 0.4244 0.8529
N1 N 0.8051(4) 0.3377(3) 0.6321(2)
H31 H 0.7652 0.3850 0.6211
N2 N 0.6913(3) 0.6924(2) 1.10761(18)
H32 H 0.7335 0.6452 1.1122
O1 O 0.8529(2) 0.4673(2) 0.74287(16)
O2 O 0.6059(3) 0.40489(19) 0.60211(18)
O3 O 0.8965(3) 0.62352(18) 1.11120(17)
O4 O 0.6323(2) 0.55910(19) 1.00590(16)
Cl1 Cl 0.42392(12) 0.50032(9) 0.72998(7)
Cl2 Cl 0.41133(8) 0.52087(8) 0.48364(6)
Co1 Co 0.50756(3) 0.51353(5) 0.60502(3)
O3B O 0.6035(3) 0.62352(18) 0.61120(17)
Co1B Co 0.99244(3) 0.51353(5) 1.10502(3)
loop_
_geom_bond_atom_site_label_1
_geom_bond_atom_site_label_2
_geom_bond_site_symmetry_1
_geom_bond_site_symmetry_2
C1 H1 1_555 1_555
H2 C1 1_555 1_555
C2 C1 1_555 1_555
H3 C2 1_555 1_555
H4 C2 1_555 1_555
C3 C4 1_555 1_555
C4 H5 1_555 1_555
C5 C4 1_555 1_555
H6 C5 1_555 1_555
C6 C5 1_555 1_555
H7 C6 1_555 1_555
C7 C6 1_555 1_555
H8 C7 1_555 1_555
C8 C3 1_555 1_555
C9 H9 1_555 1_555
H10 C9 1_555 1_555
H11 C9 1_555 1_555
C10 C9 1_555 1_555
C11 C10 1_555 1_555
H12 C11 1_555 1_555
C12 C11 1_555 1_555
C13 C12 1_555 1_555
H13 C13 1_555 1_555
H14 C13 1_555 1_555
H15 C13 1_555 1_555
C14 H16 1_555 1_555
H17 C14 1_555 1_555
H18 C14 1_555 1_555
C15 C14 1_555 1_555
C16 C15 1_555 1_555
H19 C16 1_555 1_555
C17 C16 1_555 1_555
C18 C17 1_555 1_555
H20 C18 1_555 1_555
H21 C18 1_555 1_555
H22 C18 1_555 1_555
C19 C20 1_555 1_555
C20 H23 1_555 1_555
C21 C20 1_555 1_555
H24 C21 1_555 1_555
C22 C21 1_555 1_555
H25 C22 1_555 1_555
C23 C22 1_555 1_555
H26 C23 1_555 1_555
C24 C19 1_555 1_555
C25 H27 1_555 1_555
H28 C25 1_555 1_555
C26 C1 1_555 1_555
H29 C26 1_555 1_555
H30 C26 1_555 1_555
N1 C8 1_555 1_555
H31 N1 1_555 1_555
N2 C17 1_555 1_555
H32 N2 1_555 1_555
O1 C2 1_555 1_555
O2 C12 1_555 1_555
O3 C15 1_555 1_555
O4 C24 1_555 1_555
Cl1 Co1 1_555 1_555
Cl2 Co1 1_555 1_555
Co1 O2 1_555 1_555
O3B Co1 1_555 1_555
Co1B O3 1_555 1_555
C3 O1 1_555 1_555
C7 C8 1_555 1_555
C10 N1 1_555 1_555
C19 N2 1_555 1_555
C23 C24 1_555 1_555
C25 C26 1_555 1_555
C25 O4 1_555 1_555

#END
