
#######################################################################
#
#                 Cambridge Crystallographic Data Centre
#                                CCDC 
#
#######################################################################
#
# If this CIF has been generated from an entry in the Cambridge 
# Structural Database, then it will include bibliographic, chemical, 
# crystal, experimental, refinement or atomic coordinate data resulting 
# from the CCDC's data processing and validation procedures.
#
#######################################################################

data_KAPFUD
_symmetry_cell_setting           monoclinic
_symmetry_space_group_name_H-M   'P 21/n'
_symmetry_Int_Tables_number      14
_space_group_name_Hall           '-P 2yn'
loop_
_symmetry_equiv_pos_site_id
_symmetry_equiv_pos_as_xyz
1 x,y,z
2 1/2-x,1/2+y,1/2-z
3 -x,-y,-z
4 1/2+x,1/2-y,1/2+z
_cell_length_a                   16.2122(14)
_cell_length_b                   16.0154(14)
_cell_length_c                   20.1031(16)
_cell_angle_alpha                90
_cell_angle_beta                 110.772(2)
_cell_angle_gamma                90
_cell_volume                     4880.38
loop_
_atom_site_label
_atom_site_type_symbol
_atom_site_fract_x
_atom_site_fract_y
_atom_site_fract_z
Ni1 Ni 0.33441(2) 0.09164(2) 0.23101(2)
Ni2 Ni -0.66457(2) 0.15562(2) 0.06686(2)
C1 C 0.1368(2) 0.1143(2) 0.19098(18)
C2 C 0.0574(2) 0.0989(2) 0.21127(18)
C3 C 0.0005(2) 0.1634(2) 0.2098(2)
H1 H 0.0066 0.2144 0.1901
C4 C -0.0663(2) 0.1527(3) 0.2379(2)
H2 H -0.1038 0.1966 0.2380
C5 C -0.0757(2) 0.0766(3) 0.2651(2)
C6 C -0.0226(2) 0.0093(3) 0.2631(2)
H3 H -0.0320 -0.0430 0.2793
C7 C 0.0443(2) 0.0214(2) 0.2367(2)
H4 H 0.0811 -0.0229 0.2360
C8 C -0.2206(2) 0.0844(3) 0.2742(2)
C9 C -0.2631(2) 0.0920(2) 0.3220(2)
H5 H -0.2312 0.0890 0.3706
C10 C -0.3538(2) 0.1040(2) 0.29785(18)
H6 H -0.3824 0.1086 0.3304
C11 C -0.4021(2) 0.10923(19) 0.22566(17)
C12 C -0.3571(2) 0.1049(2) 0.17827(18)
H7 H -0.3884 0.1106 0.1298
C13 C -0.2669(2) 0.0922(2) 0.2017(2)
H8 H -0.2378 0.0890 0.1694
C14 C -0.5011(2) 0.11726(19) 0.19947(17)
C15 C 0.3713(2) -0.0696(2) 0.32033(19)
H9 H 0.3662 -0.0971 0.2783
C16 C 0.3858(2) -0.1171(2) 0.38168(19)
H10 H 0.3897 -0.1750 0.3803
C17 C 0.3941(2) -0.0773(2) 0.44384(19)
H11 H 0.4049 -0.1078 0.4854
C18 C 0.3862(2) 0.0102(2) 0.44451(17)
C19 C 0.3904(2) 0.0567(2) 0.50744(18)
C20 C 0.4090(3) 0.0595(3) 0.6249(2)
H12 H 0.4205 0.0332 0.6686
C21 C 0.3950(3) 0.1455(3) 0.6202(2)
H13 H 0.3961 0.1742 0.6607
C22 C 0.3785(2) 0.1438(2) 0.50402(18)
C23 C 0.3625(2) 0.1875(2) 0.43726(18)
C24 C 0.3491(2) 0.2740(2) 0.43015(19)
H14 H 0.3512 0.3063 0.4692
C25 C 0.3328(2) 0.3106(2) 0.3649(2)
H15 H 0.3239 0.3679 0.3593
C26 C 0.3297(2) 0.2613(2) 0.30753(19)
H16 H 0.3185 0.2870 0.2637
C27 C 0.35876(19) 0.1424(2) 0.37677(17)
C28 C 0.3713(2) 0.0524(2) 0.38076(17)
C29 C 0.3540(2) -0.6630(2) 0.09949(18)
C30 C 0.3590(2) -0.57528(19) 0.07421(17)
C31 C 0.3289(2) -0.5091(2) 0.10361(17)
H17 H 0.3053 -0.5195 0.1387
C32 C 0.3333(2) -0.4277(2) 0.08186(17)
H18 H 0.3125 -0.3838 0.1019
C33 C 0.3686(2) -0.4128(2) 0.03040(18)
C34 C 0.3975(2) -0.4784(2) -0.00136(18)
H19 H 0.4200 -0.4680 -0.0372
C35 C 0.3922(2) -0.5593(2) 0.02109(18)
H20 H 0.4114 -0.6034 0.0001
C36 C 0.3601(2) -0.2612(2) 0.03223(18)
C37 C 0.3927(2) -0.2448(2) 0.10459(18)
H21 H 0.4250 -0.2849 0.1367
C38 C 0.3763(2) -0.1677(2) 0.12802(18)
H22 H 0.3968 -0.1567 0.1766
C39 C 0.3299(2) -0.10623(19) 0.08077(17)
C40 C 0.2994(2) -0.1236(2) 0.00826(18)
H23 H 0.2696 -0.0826 -0.0241
C41 C 0.3131(2) -0.2014(2) -0.01607(18)
H24 H 0.2908 -0.2133 -0.0645
C42 C 0.31801(19) -0.01998(19) 0.10630(17)
C43 C -0.5514(2) 0.1010(2) -0.01856(19)
H25 H -0.5070 0.0920 0.0252
C44 C -0.5349(2) 0.0813(2) -0.0804(2)
H26 H -0.4814 0.0574 -0.0775
C45 C -0.5982(2) 0.0974(2) -0.1452(2)
H27 H -0.5877 0.0860 -0.1868
C46 C -0.6788(2) 0.1312(2) -0.14819(18)
C47 C -0.7508(2) 0.1483(2) -0.21446(18)
C48 C -0.8042(3) 0.1502(2) -0.3350(2)
H28 H -0.7972 0.1421 -0.3785
C49 C -0.8850(3) 0.1774(2) -0.33470(19)
H29 H -0.9305 0.1861 -0.3780
C50 C -0.8323(2) 0.1765(2) -0.21414(18)
C51 C -0.8447(2) 0.1909(2) -0.14722(18)
C52 C -0.9237(2) 0.2206(2) -0.1433(2)
H30 H -0.9714 0.2322 -0.1845
C53 C -0.9297(2) 0.2325(3) -0.0778(2)
H31 H -0.9818 0.2527 -0.0742
C54 C -0.8581(2) 0.2144(2) -0.0166(2)
H32 H -0.8639 0.2221 0.0274
C55 C -0.7758(2) 0.17566(19) -0.08318(17)
C56 C -0.6913(2) 0.14542(19) -0.08403(17)
N1 N 0.36457(16) 0.01326(17) 0.31929(14)
N2 N 0.34193(17) 0.17869(17) 0.31188(14)
N3 N 0.4062(2) 0.0138(2) 0.56869(16)
N4 N 0.3805(2) 0.1884(2) 0.56101(16)
N5 N -0.62784(17) 0.13201(17) -0.01971(14)
N6 N -0.78195(17) 0.18670(17) -0.01840(14)
N7 N -0.7364(2) 0.1352(2) -0.27602(16)
N8 N -0.9001(2) 0.19149(19) -0.27512(15)
O1 O 0.20279(14) 0.06854(15) 0.21893(13)
O2 O 0.13298(15) 0.17341(16) 0.14858(13)
O3 O -0.13224(16) 0.0642(2) 0.30292(15)
O4 O -0.53624(14) 0.11520(15) 0.24613(12)
O5 O -0.54026(14) 0.12320(14) 0.13339(11)
O6 O 0.33157(18) -0.67149(14) 0.15291(13)
O7 O 0.37183(15) -0.72144(14) 0.06535(12)
O8 O 0.37622(19) -0.33468(14) 0.00296(13)
O9 O 0.33769(15) -0.01088(14) 0.17192(12)
O10 O 0.29004(15) 0.03505(13) 0.05899(12)
O11 O 0.29179(13) 0.17800(13) 0.14944(11)
H33 H 0.2278 0.1785 0.1310
H34 H 0.3116 0.2330 0.1687
Ni1_2 Ni -0.66559(2) 0.09164(2) 0.23101(2)
Ni2_2 Ni 0.33543(2) -0.84438(2) 0.06686(2)
Ni2_3 Ni 0.33543(2) 0.15562(2) 0.06686(2)
O4_2 O 0.46376(14) 0.11520(15) 0.24613(12)
O7_2 O -0.62817(15) 0.27856(14) 0.06535(12)
O10_2 O -0.70996(15) 0.03505(13) 0.05899(12)
O11_2 O -0.70821(13) 0.17800(13) 0.14944(11)
H33_2 H -0.7722 0.1785 0.1310
H34_2 H -0.6884 0.2330 0.1687
O12 O -0.0022(4) 0.1131(4) 0.0228(3)
H35 H 0.0032 0.0885 0.0616
H36 H -0.0533 0.1222 -0.0077
O13 O 0.1056(4) 1.0212(4) -0.0309(4)
H37 H 0.0743 0.9814 -0.0249
H38 H 0.0832 1.0567 -0.0638
loop_
_geom_bond_atom_site_label_1
_geom_bond_atom_site_label_2
_geom_bond_site_symmetry_1
_geom_bond_site_symmetry_2
Ni1 N1 1_555 1_555
Ni2 N5 1_555 1_555
C1 C2 1_555 1_555
C2 C3 1_555 1_555
C3 H1 1_555 1_555
C4 C3 1_555 1_555
H2 C4 1_555 1_555
C5 C4 1_555 1_555
C6 C5 1_555 1_555
H3 C6 1_555 1_555
C7 C2 1_555 1_555
H4 C7 1_555 1_555
C8 C9 1_555 1_555
C9 H5 1_555 1_555
C10 C9 1_555 1_555
H6 C10 1_555 1_555
C11 C10 1_555 1_555
C12 C11 1_555 1_555
H7 C12 1_555 1_555
C13 C8 1_555 1_555
H8 C13 1_555 1_555
C14 C11 1_555 1_555
C15 H9 1_555 1_555
C16 C15 1_555 1_555
H10 C16 1_555 1_555
C17 C16 1_555 1_555
H11 C17 1_555 1_555
C18 C17 1_555 1_555
C19 C18 1_555 1_555
C20 H12 1_555 1_555
C21 C20 1_555 1_555
H13 C21 1_555 1_555
C22 C19 1_555 1_555
C23 C22 1_555 1_555
C24 C23 1_555 1_555
H14 C24 1_555 1_555
C25 C24 1_555 1_555
H15 C25 1_555 1_555
C26 C25 1_555 1_555
H16 C26 1_555 1_555
C27 C23 1_555 1_555
C28 C18 1_555 1_555
C29 C30 1_555 1_555
C30 C31 1_555 1_555
C31 H17 1_555 1_555
C32 C31 1_555 1_555
H18 C32 1_555 1_555
C33 C32 1_555 1_555
C34 C33 1_555 1_555
H19 C34 1_555 1_555
C35 C30 1_555 1_555
H20 C35 1_555 1_555
C36 C37 1_555 1_555
C37 H21 1_555 1_555
C38 C37 1_555 1_555
H22 C38 1_555 1_555
C39 C38 1_555 1_555
C40 C39 1_555 1_555
H23 C40 1_555 1_555
C41 C36 1_555 1_555
H24 C41 1_555 1_555
C42 C39 1_555 1_555
C43 H25 1_555 1_555
C44 C43 1_555 1_555
H26 C44 1_555 1_555
C45 C44 1_555 1_555
H27 C45 1_555 1_555
C46 C45 1_555 1_555
C47 C46 1_555 1_555
C48 H28 1_555 1_555
C49 C48 1_555 1_555
H29 C49 1_555 1_555
C50 C47 1_555 1_555
C51 C50 1_555 1_555
C52 C51 1_555 1_555
H30 C52 1_555 1_555
C53 C52 1_555 1_555
H31 C53 1_555 1_555
C54 C53 1_555 1_555
H32 C54 1_555 1_555
C55 C51 1_555 1_555
C56 C46 1_555 1_555
N1 C15 1_555 1_555
N2 Ni1 1_555 1_555
N3 C19 1_555 1_555
N4 C21 1_555 1_555
N5 C43 1_555 1_555
N6 Ni2 1_555 1_555
N7 C47 1_555 1_555
N8 C49 1_555 1_555
O1 Ni1 1_555 1_555
O2 C1 1_555 1_555
O3 C5 1_555 1_555
O4 C14 1_555 1_555
O5 Ni2 1_555 1_555
O6 C29 1_555 1_555
O7 C29 1_555 1_555
O8 C33 1_555 1_555
O9 Ni1 1_555 1_555
O10 C42 1_555 1_555
O11 Ni1 1_555 1_555
H33 O11 1_555 1_555
H34 O11 1_555 1_555
O12 H35 1_555 1_555
H36 O12 1_555 1_555
O13 H37 1_555 1_555
H38 O13 1_555 1_555
Ni1_2 O4 1_555 1_555
Ni2_2 O7 1_555 1_555
Ni2_3 O10 1_555 1_555
O4_2 Ni1 1_555 1_555
O7_2 Ni2 1_555 1_555
O10_2 Ni2 1_555 1_555
O11_2 Ni2 1_555 1_555
H33_2 O11_2 1_555 1_555
H34_2 O11_2 1_555 1_555
C1 O1 1_555 1_555
C6 C7 1_555 1_555
C8 O3 1_555 1_555
C12 C13 1_555 1_555
C14 O5 1_555 1_555
C20 N3 1_555 1_555
C22 N4 1_555 1_555
C26 N2 1_555 1_555
C27 C28 1_555 1_555
C27 N2 1_555 1_555
C28 N1 1_555 1_555
C34 C35 1_555 1_555
C36 O8 1_555 1_555
C40 C41 1_555 1_555
C42 O9 1_555 1_555
C48 N7 1_555 1_555
C50 N8 1_555 1_555
C54 N6 1_555 1_555
C55 C56 1_555 1_555
C55 N6 1_555 1_555
C56 N5 1_555 1_555
O11 Ni2_3 1_555 1_555
Ni1_2 O11_2 1_555 1_555

#END
