
#######################################################################
#
#                 Cambridge Crystallographic Data Centre
#                                CCDC 
#
#######################################################################
#
# If this CIF has been generated from an entry in the Cambridge 
# Structural Database, then it will include bibliographic, chemical, 
# crystal, experimental, refinement or atomic coordinate data resulting 
# from the CCDC's data processing and validation procedures.
#
#######################################################################

data_KAPMIY
_symmetry_cell_setting           monoclinic
_symmetry_space_group_name_H-M   'C 2/c'
_symmetry_Int_Tables_number      15
_space_group_name_Hall           '-C 2yn'
loop_
_symmetry_equiv_pos_site_id
_symmetry_equiv_pos_as_xyz
1 x,y,z
2 1/2+x,1/2+y,z
3 -x,y,1/2-z
4 1/2-x,1/2+y,1/2-z
5 -x,-y,-z
6 1/2-x,1/2-y,-z
7 x,-y,1/2+z
8 1/2+x,1/2-y,1/2+z
_cell_length_a                   19.9793(7)
_cell_length_b                   18.5936(7)
_cell_length_c                   11.9372(4)
_cell_angle_alpha                90
_cell_angle_beta                 119.4410(10)
_cell_angle_gamma                90
_cell_volume                     3861.85
loop_
_atom_site_label
_atom_site_type_symbol
_atom_site_fract_x
_atom_site_fract_y
_atom_site_fract_z
Cu1 Cu 0.043054(13) 0.155343(11) 0.40456(2)
N1 N -0.01072(10) 0.23445(8) 0.44194(16)
N2 N 0.09932(9) 0.23833(8) 0.38657(15)
N3 N 0.10059(9) 0.11533(8) 0.60533(15)
O1 O 0.04544(8) -0.09015(7) 0.64696(13)
O2 O 0.09393(8) -0.07826(7) 0.85942(13)
C1 C -0.06693(14) 0.22660(12) 0.4720(2)
H1 H -0.0855 0.1797 0.4728
C2 C -0.09843(17) 0.28434(13) 0.5016(3)
H2 H -0.1377 0.2768 0.5232
C3 C -0.07290(17) 0.35353(12) 0.4998(3)
C4 C -0.01523(14) 0.36082(11) 0.4678(2)
H3 H 0.0037 0.4073 0.4652
C5 C 0.01485(11) 0.30082(10) 0.43959(18)
C6 C 0.07653(11) 0.30341(10) 0.40522(17)
C7 C 0.11001(12) 0.36616(11) 0.3950(2)
H4 H 0.0925 0.4112 0.4080
C8 C 0.16919(13) 0.36378(11) 0.3657(2)
C9 C 0.19115(13) 0.29642(12) 0.3455(2)
H5 H 0.2309 0.2923 0.3240
C10 C 0.15575(12) 0.23539(11) 0.3566(2)
H6 H 0.1718 0.1898 0.3425
C11 C -0.1063(2) 0.41838(15) 0.5309(4)
H7 H -0.1604 0.4093 0.5043
H8 H -0.1024 0.4604 0.4848
H9 H -0.0777 0.4275 0.6237
C12 C 0.20862(16) 0.43094(13) 0.3597(3)
H10 H 0.2232 0.4259 0.2927
H11 H 0.2548 0.4389 0.4430
H12 H 0.1737 0.4719 0.3395
C13 C 0.13505(12) 0.15756(10) 0.70973(19)
H13 H 0.1430 0.2068 0.6983
C14 C 0.15948(12) 0.13296(11) 0.8331(2)
H14 H 0.1860 0.1640 0.9049
C15 C 0.14457(12) 0.06206(10) 0.85027(19)
H15 H 0.1593 0.0442 0.9337
C16 C 0.10785(10) 0.01794(9) 0.74331(17)
C17 C 0.08902(10) 0.04627(9) 0.62379(17)
H16 H 0.0668 0.0152 0.5513
C18 C 0.08154(10) -0.05667(9) 0.75085(17)
Cu1D Cu -0.043054(13) -0.155343(11) 0.59544(2)
Cu1F Cu 0.043054(13) -0.155343(11) 0.90456(2)
O1D O -0.04544(8) 0.09015(7) 0.35304(13)
O2F O 0.09393(8) 0.07826(7) 0.35942(13)
O3 O 0.20606(14) 0.68339(11) 0.1815(2)
O4 O 0.14260(12) 0.58545(13) 0.2041(2)
Cl1 Cl 0.21161(13) 0.63462(13) 0.2704(2)
O5 O 0.2097(2) 0.6798(2) 0.3659(3)
O6 O 0.2804(2) 0.5934(2) 0.3272(5)
Cl2? Cl 0.2112(2) 0.61495(19) 0.2401(3)
O7? O 0.2544(5) 0.6047(5) 0.3720(6)
O8? O 0.2511(3) 0.5825(3) 0.1823(6)
loop_
_geom_bond_atom_site_label_1
_geom_bond_atom_site_label_2
_geom_bond_site_symmetry_1
_geom_bond_site_symmetry_2
Cu1 N1 1_555 1_555
N1 C1 1_555 1_555
N2 Cu1 1_555 1_555
N3 Cu1 1_555 1_555
O1 C18 1_555 1_555
O2 C18 1_555 1_555
C1 H1 1_555 1_555
C2 C1 1_555 1_555
H2 C2 1_555 1_555
C3 C2 1_555 1_555
C4 C3 1_555 1_555
H3 C4 1_555 1_555
C5 N1 1_555 1_555
C6 N2 1_555 1_555
C7 C6 1_555 1_555
H4 C7 1_555 1_555
C8 C7 1_555 1_555
C9 C8 1_555 1_555
H5 C9 1_555 1_555
C10 N2 1_555 1_555
H6 C10 1_555 1_555
C11 C3 1_555 1_555
H7 C11 1_555 1_555
H8 C11 1_555 1_555
H9 C11 1_555 1_555
C12 C8 1_555 1_555
H10 C12 1_555 1_555
H11 C12 1_555 1_555
H12 C12 1_555 1_555
C13 N3 1_555 1_555
H13 C13 1_555 1_555
C14 C13 1_555 1_555
H14 C14 1_555 1_555
C15 C14 1_555 1_555
H15 C15 1_555 1_555
C16 C15 1_555 1_555
C17 N3 1_555 1_555
H16 C17 1_555 1_555
C18 C16 1_555 1_555
O3 Cl1 1_555 1_555
O4 Cl1 1_555 1_555
Cl1 O5 1_555 1_555
O6 Cl1 1_555 1_555
Cu1D O1 1_555 1_555
Cu1F O2 1_555 1_555
O1D Cu1 1_555 1_555
O2F Cu1 1_555 1_555
C4 C5 1_555 1_555
C5 C6 1_555 1_555
C9 C10 1_555 1_555
C16 C17 1_555 1_555

#END
