
#######################################################################
#
#                 Cambridge Crystallographic Data Centre
#                                CCDC 
#
#######################################################################
#
# If this CIF has been generated from an entry in the Cambridge 
# Structural Database, then it will include bibliographic, chemical, 
# crystal, experimental, refinement or atomic coordinate data resulting 
# from the CCDC's data processing and validation procedures.
#
#######################################################################

data_KAPTIG
_symmetry_cell_setting           monoclinic
_symmetry_space_group_name_H-M   'C 2/c'
_symmetry_Int_Tables_number      15
_space_group_name_Hall           '-C 2yn'
loop_
_symmetry_equiv_pos_site_id
_symmetry_equiv_pos_as_xyz
1 x,y,z
2 -x,y,1/2-z
3 1/2+x,1/2+y,z
4 1/2-x,1/2+y,1/2-z
5 -x,-y,-z
6 x,-y,1/2+z
7 1/2-x,1/2-y,-z
8 1/2+x,1/2-y,1/2+z
_cell_length_a                   19.0926(16)
_cell_length_b                   21.7977(16)
_cell_length_c                   15.8053(12)
_cell_angle_alpha                90
_cell_angle_beta                 96.3930(10)
_cell_angle_gamma                90
_cell_volume                     6536.86
loop_
_atom_site_label
_atom_site_type_symbol
_atom_site_fract_x
_atom_site_fract_y
_atom_site_fract_z
Si1 Si 0.0000 0.17438(6) -0.2500
Mo1 Mo 0.119703(17) 0.057146(15) -0.17947(2)
Mo2 Mo 0.072550(18) 0.179398(15) -0.03389(2)
Mo3 Mo 0.058910(17) 0.061802(16) -0.38751(2)
Mo4 Mo 0.175320(17) 0.165540(16) -0.30543(2)
Mo5 Mo -0.047887(18) 0.284805(15) -0.10451(2)
Mo6 Mo 0.117832(19) 0.288534(16) -0.16678(2)
Cu1 Cu -0.07651(3) 0.35843(2) 0.09505(3)
Cu2 Cu 0.0000 0.26327(3) 0.2500
S1 S 0.07933(6) 0.43777(5) 0.00646(6)
O1 O 0.04076(14) 0.33134(12) -0.11891(17)
O3 O 0.11991(13) 0.12288(11) -0.09644(16)
O4 O 0.10489(13) 0.01813(11) -0.28649(15)
O5 O 0.16657(13) 0.22547(12) -0.21930(16)
O6 O 0.00672(13) 0.12290(12) -0.45083(16)
O7 O 0.07674(14) 0.30997(12) -0.27811(16)
O8 O 0.06508(12) 0.13110(11) -0.27241(15)
O9 O 0.06919(14) 0.00750(13) -0.45983(18)
O10 O -0.08595(15) 0.34114(12) -0.05058(17)
O11 O 0.13371(13) 0.24455(12) -0.06032(16)
O12 O 0.17984(15) 0.34281(13) -0.14769(18)
O13 O 0.19685(13) 0.10339(12) -0.22574(16)
O14 O 0.11688(13) 0.22532(12) -0.37881(16)
O15 O 0.02549(12) 0.21763(11) -0.16853(15)
O16 O 0.00355(14) 0.24330(12) -0.01363(15)
O17 O 0.02955(12) 0.03823(12) -0.15241(16)
O18 O 0.17083(13) 0.00642(12) -0.12134(17)
O19 O 0.10581(15) 0.16416(13) 0.06633(17)
O20 O 0.14524(13) 0.10536(12) -0.39138(16)
O21 O 0.25533(14) 0.18177(14) -0.33287(19)
N1 N 0.02991(16) 0.35547(14) 0.1157(2)
N2 N 0.05703(17) 0.30934(15) 0.1671(2)
N3 N 0.12212(17) 0.29841(15) 0.1561(2)
N4 N 0.13837(17) 0.33852(15) 0.0972(2)
N5 N -0.12151(19) 0.45608(16) 0.2006(2)
N6 N -0.13256(17) 0.42897(15) 0.1233(2)
N7 N -0.18492(17) 0.45377(15) 0.0751(2)
N8 N -0.20927(16) 0.49842(14) 0.1236(2)
N9 N -0.08098(16) 0.23059(14) 0.16997(19)
N10 N -0.10927(16) 0.27023(14) 0.1078(2)
N11 N -0.16313(16) 0.24680(15) 0.0635(2)
N12 N -0.17061(16) 0.19029(15) 0.0956(2)
C1 C 0.08210(19) 0.37396(17) 0.0735(2)
C2 C 0.0919(2) 0.49529(18) 0.0910(3)
H1 H 0.0781 0.5353 0.0679
H2 H 0.0619 0.4855 0.1349
C3 C 0.1679(2) 0.49749(19) 0.1299(2)
H3 H 0.1971 0.5095 0.0863
H4 H 0.1822 0.4566 0.1489
C4 C -0.1701(2) 0.49944(18) 0.1989(2)
C5 C 0.2086(2) 0.3366(2) 0.0681(3)
H5 H 0.2364 0.3054 0.0988
H6 H 0.2312 0.3757 0.0780
H7 H 0.2043 0.3275 0.0083
C6 C -0.2702(2) 0.53589(19) 0.0915(3)
H8 H -0.2799 0.5650 0.1343
H9 H -0.3105 0.5099 0.0781
H10 H -0.2601 0.5573 0.0412
C7 C -0.1204(2) 0.18052(17) 0.1610(2)
C8 C -0.0293(2) 0.11864(19) 0.2777(3)
H11 H -0.0269 0.1561 0.3110
H12 H -0.0228 0.0844 0.3171
C9 C -0.2277(2) 0.1495(2) 0.0607(3)
H13 H -0.2248 0.1115 0.0916
H14 H -0.2234 0.1416 0.0017
H15 H -0.2723 0.1686 0.0658
S2 S 0.18401(6) 0.54997(5) 0.21917(7)
S3 S -0.11571(6) 0.11297(5) 0.21819(8)
Mo1A Mo -0.119703(17) 0.057146(15) -0.32053(2)
Mo2A Mo -0.072550(18) 0.179398(15) -0.46611(2)
Mo3A Mo -0.058910(17) 0.061802(16) -0.11249(2)
Mo4A Mo -0.175320(17) 0.165540(16) -0.19457(2)
Mo5A Mo 0.047887(18) 0.284805(15) -0.39549(2)
Mo5A_2 Mo 0.047887(18) 0.284805(15) 0.60451(2)
Mo6A Mo -0.117832(19) 0.288534(16) -0.33322(2)
Cu1A Cu 0.07651(3) 0.35843(2) 0.40495(3)
S1A S -0.07933(6) 0.43777(5) 0.49354(6)
O1A O -0.04076(14) 0.33134(12) -0.38109(17)
O3A O -0.11991(13) 0.12288(11) -0.40356(16)
O4A O -0.10489(13) 0.01813(11) -0.21351(15)
O5A O -0.16657(13) 0.22547(12) -0.28070(16)
O6A O -0.00672(13) 0.12290(12) -0.04917(16)
O7A O -0.07674(14) 0.30997(12) -0.22189(16)
O8A O -0.06508(12) 0.13110(11) -0.22759(15)
O9A O -0.06919(14) 0.00750(13) -0.04017(18)
O10A O 0.08595(15) 0.34114(12) 0.55058(17)
O10A_2 O 0.08595(15) 0.34114(12) -0.44942(17)
O11A O -0.13371(13) 0.24455(12) -0.43968(16)
O12A O -0.17984(15) 0.34281(13) -0.35231(18)
O13A O -0.19685(13) 0.10339(12) -0.27426(16)
O14A O -0.11688(13) 0.22532(12) -0.12119(16)
O15A O -0.02549(12) 0.21763(11) -0.33147(15)
O16A O -0.00355(14) 0.24330(12) -0.48637(15)
O17A O -0.02955(12) 0.03823(12) -0.34759(16)
O18A O -0.17083(13) 0.00642(12) -0.37866(17)
O19A O -0.10581(15) 0.16416(13) -0.56633(17)
O20A O -0.14524(13) 0.10536(12) -0.10862(16)
O21A O -0.25533(14) 0.18177(14) -0.16713(19)
N1A N -0.02991(16) 0.35547(14) 0.3843(2)
N2A N -0.05703(17) 0.30934(15) 0.3329(2)
N3A N -0.12212(17) 0.29841(15) 0.3439(2)
N4A N -0.13837(17) 0.33852(15) 0.4028(2)
N5A N 0.12151(19) 0.45608(16) 0.2994(2)
N6A N 0.13256(17) 0.42897(15) 0.3767(2)
N7A N 0.18492(17) 0.45377(15) 0.4249(2)
N8A N 0.20927(16) 0.49842(14) 0.3764(2)
N9A N 0.08098(16) 0.23059(14) 0.33003(19)
N10A N 0.10927(16) 0.27023(14) 0.3922(2)
N11A N 0.16313(16) 0.24680(15) 0.4365(2)
N12A N 0.17061(16) 0.19029(15) 0.4044(2)
C1A C -0.08210(19) 0.37396(17) 0.4265(2)
C2A C -0.0919(2) 0.49529(18) 0.4090(3)
H1A H -0.0781 0.5353 0.4321
H2A H -0.0619 0.4855 0.3651
C3A C -0.1679(2) 0.49749(19) 0.3701(2)
H3A H -0.1971 0.5095 0.4137
H4A H -0.1822 0.4566 0.3511
C4A C 0.1701(2) 0.49944(18) 0.3011(2)
C5A C -0.2086(2) 0.3366(2) 0.4319(3)
H5A H -0.2364 0.3054 0.4012
H6A H -0.2312 0.3757 0.4220
H7A H -0.2043 0.3275 0.4917
C6A C 0.2702(2) 0.53589(19) 0.4085(3)
H8A H 0.2799 0.5650 0.3657
H9A H 0.3105 0.5099 0.4219
H10A H 0.2601 0.5573 0.4588
C7A C 0.1204(2) 0.18052(17) 0.3390(2)
C8A C 0.0293(2) 0.11864(19) 0.2223(3)
H11A H 0.0269 0.1561 0.1890
H12A H 0.0228 0.0844 0.1829
C9A C 0.2277(2) 0.1495(2) 0.4393(3)
H13A H 0.2248 0.1115 0.4084
H14A H 0.2234 0.1416 0.4983
H15A H 0.2723 0.1686 0.4342
S2A S -0.18401(6) 0.54997(5) 0.28083(7)
S3A S 0.11571(6) 0.11297(5) 0.28181(8)
O2 O -0.5000 0.0711(4) 0.2500
loop_
_geom_bond_atom_site_label_1
_geom_bond_atom_site_label_2
_geom_bond_site_symmetry_1
_geom_bond_site_symmetry_2
Si1 O8 1_555 1_555
Mo1 O3 1_555 1_555
Mo2 O3 1_555 1_555
Mo3 O4 1_555 1_555
Mo4 O5 1_555 1_555
Mo5 O1 1_555 1_555
Mo6 O1 1_555 1_555
Cu1 O10 1_555 1_555
Cu2 N2 1_555 1_555
S1 C1 1_555 1_555
O4 Mo1 1_555 1_555
O5 Mo6 1_555 1_555
O6 Mo3 1_555 1_555
O7 Mo6 1_555 1_555
O8 Mo1 1_555 1_555
O9 Mo3 1_555 1_555
O10 Mo5 1_555 1_555
O11 Mo2 1_555 1_555
O12 Mo6 1_555 1_555
O13 Mo1 1_555 1_555
O14 Mo4 1_555 1_555
O15 Si1 1_555 1_555
O16 Mo2 1_555 1_555
O17 Mo1 1_555 1_555
O18 Mo1 1_555 1_555
O19 Mo2 1_555 1_555
O20 Mo3 1_555 1_555
O21 Mo4 1_555 1_555
N1 Cu1 1_555 1_555
N2 N1 1_555 1_555
N3 N2 1_555 1_555
N4 N3 1_555 1_555
N5 N6 1_555 1_555
N6 Cu1 1_555 1_555
N7 N6 1_555 1_555
N8 N7 1_555 1_555
N9 Cu2 1_555 1_555
N10 Cu1 1_555 1_555
N11 N10 1_555 1_555
N12 N11 1_555 1_555
C1 N1 1_555 1_555
C2 S1 1_555 1_555
H1 C2 1_555 1_555
H2 C2 1_555 1_555
C3 C2 1_555 1_555
H3 C3 1_555 1_555
H4 C3 1_555 1_555
C4 N5 1_555 1_555
C5 N4 1_555 1_555
H5 C5 1_555 1_555
H6 C5 1_555 1_555
H7 C5 1_555 1_555
C6 N8 1_555 1_555
H8 C6 1_555 1_555
H9 C6 1_555 1_555
H10 C6 1_555 1_555
C7 N9 1_555 1_555
C8 H11 1_555 1_555
H12 C8 1_555 1_555
C9 N12 1_555 1_555
H13 C9 1_555 1_555
H14 C9 1_555 1_555
H15 C9 1_555 1_555
S2 C3 1_555 1_555
S3 C7 1_555 1_555
Mo1A O3A 1_555 1_555
Mo2A O6 1_555 1_555
Mo3A O17 1_555 1_555
Mo4A O5A 1_555 1_555
Mo5A O7 1_555 1_555
Mo5A_2 O10A 1_555 1_555
Mo6A O1A 1_555 1_555
Cu1A O10A 1_555 1_555
S1A C1A 1_555 1_555
O1A Mo5A 1_555 1_555
O3A Mo2A 1_555 1_555
O4A Mo1A 1_555 1_555
O5A Mo6A 1_555 1_555
O6A Mo2 1_555 1_555
O7A Mo5 1_555 1_555
O8A Si1 1_555 1_555
O9A Mo3A 1_555 1_555
O10A_2 Mo5A 1_555 1_555
O11A Mo2A 1_555 1_555
O12A Mo6A 1_555 1_555
O13A Mo1A 1_555 1_555
O14A Mo5 1_555 1_555
O15A Si1 1_555 1_555
O16A Mo2A 1_555 1_555
O17A Mo3 1_555 1_555
O18A Mo1A 1_555 1_555
O19A Mo2A 1_555 1_555
O20A Mo3A 1_555 1_555
O21A Mo4A 1_555 1_555
N1A Cu1A 1_555 1_555
N2A Cu2 1_555 1_555
N3A N2A 1_555 1_555
N4A N3A 1_555 1_555
N5A N6A 1_555 1_555
N6A Cu1A 1_555 1_555
N7A N6A 1_555 1_555
N8A N7A 1_555 1_555
N9A Cu2 1_555 1_555
N10A Cu1A 1_555 1_555
N11A N10A 1_555 1_555
N12A N11A 1_555 1_555
C1A N1A 1_555 1_555
C2A S1A 1_555 1_555
H1A C2A 1_555 1_555
H2A C2A 1_555 1_555
C3A C2A 1_555 1_555
H3A C3A 1_555 1_555
H4A C3A 1_555 1_555
C4A S2 1_555 1_555
C5A N4A 1_555 1_555
H5A C5A 1_555 1_555
H6A C5A 1_555 1_555
H7A C5A 1_555 1_555
C6A N8A 1_555 1_555
H8A C6A 1_555 1_555
H9A C6A 1_555 1_555
H10A C6A 1_555 1_555
C7A N9A 1_555 1_555
C8A C8 1_555 1_555
H11A C8A 1_555 1_555
H12A C8A 1_555 1_555
C9A N12A 1_555 1_555
H13A C9A 1_555 1_555
H14A C9A 1_555 1_555
H15A C9A 1_555 1_555
S2A C4 1_555 1_555
S3A C7A 1_555 1_555
Mo2 O15 1_555 1_555
Mo3 O8 1_555 1_555
Mo4 O8 1_555 1_555
Mo4 O13 1_555 1_555
Mo4 O20 1_555 1_555
Mo5 O15 1_555 1_555
Mo5 O16 1_555 1_555
Mo6 O11 1_555 1_555
Mo6 O15 1_555 1_555
O14 Mo5A 1_555 1_555
N4 C1 1_555 1_555
N8 C4 1_555 1_555
N9 N10 1_555 1_555
N12 C7 1_555 1_555
C8 S3 1_555 1_555
Mo1A O8A 1_555 1_555
Mo1A O17A 1_555 1_555
Mo2A O15A 1_555 1_555
Mo3A O4A 1_555 1_555
Mo3A O6A 1_555 1_555
Mo3A O8A 1_555 1_555
Mo4A O8A 1_555 1_555
Mo4A O13A 1_555 1_555
Mo4A O14A 1_555 1_555
Mo4A O20A 1_555 1_555
Mo5A O15A 1_555 1_555
Mo5A O16A 1_555 1_555
Mo6A O7A 1_555 1_555
Mo6A O11A 1_555 1_555
Mo6A O15A 1_555 1_555
N1A N2A 1_555 1_555
N4A C1A 1_555 1_555
N5A C4A 1_555 1_555
N8A C4A 1_555 1_555
N9A N10A 1_555 1_555
N12A C7A 1_555 1_555
C3A S2A 1_555 1_555
C8A S3A 1_555 1_555

#END
