
#######################################################################
#
#                 Cambridge Crystallographic Data Centre
#                                CCDC 
#
#######################################################################
#
# If this CIF has been generated from an entry in the Cambridge 
# Structural Database, then it will include bibliographic, chemical, 
# crystal, experimental, refinement or atomic coordinate data resulting 
# from the CCDC's data processing and validation procedures.
#
#######################################################################

data_KAPYIL01
_symmetry_cell_setting           monoclinic
_symmetry_space_group_name_H-M   'C 2/c'
_symmetry_Int_Tables_number      15
_space_group_name_Hall           '-C 2yn'
loop_
_symmetry_equiv_pos_site_id
_symmetry_equiv_pos_as_xyz
1 x,y,z
2 -x,y,1/2-z
3 1/2+x,1/2+y,z
4 1/2-x,1/2+y,1/2-z
5 -x,-y,-z
6 x,-y,1/2+z
7 1/2-x,1/2-y,-z
8 1/2+x,1/2-y,1/2+z
_cell_length_a                   18.054(3)
_cell_length_b                   24.956(4)
_cell_length_c                   8.7687(13)
_cell_angle_alpha                90
_cell_angle_beta                 102.471(3)
_cell_angle_gamma                90
_cell_volume                     3857.57
loop_
_atom_site_label
_atom_site_type_symbol
_atom_site_fract_x
_atom_site_fract_y
_atom_site_fract_z
Cd1 Cd 1.0000 0.230232(7) 0.7500
P1 P 0.88700(2) 0.128366(18) 0.84288(5)
O1 O 0.94165(7) 0.17366(5) 0.87939(14)
O2 O 0.85976(7) 0.12014(5) 0.66216(13)
H1 H 0.8329 0.0924 0.6449
O3 O 0.81724(7) 0.13839(5) 0.91529(14)
H2 H 0.7842 0.1149 0.8835
N1 N 0.91302(8) 0.24385(6) 0.51066(17)
N2 N 0.91152(9) 0.29610(6) 0.77992(17)
C1 C 0.91781(11) 0.21793(8) 0.3787(2)
H3 H 0.9563 0.1917 0.3828
C2 C 0.86845(12) 0.22809(8) 0.2365(2)
H4 H 0.8730 0.2093 0.1448
C3 C 0.81257(11) 0.26636(8) 0.2321(2)
H5 H 0.7783 0.2744 0.1365
C4 C 0.80695(11) 0.29289(8) 0.3679(2)
H6 H 0.7687 0.3192 0.3663
C5 C 0.85790(10) 0.28065(7) 0.5065(2)
C6 C 0.85422(10) 0.30698(7) 0.6582(2)
C7 C 0.79494(11) 0.34009(8) 0.6751(2)
H7 H 0.7548 0.3476 0.5882
C8 C 0.79469(12) 0.36226(8) 0.8202(2)
H8 H 0.7541 0.3847 0.8337
C9 C 0.85387(12) 0.35146(8) 0.9444(2)
H9 H 0.8553 0.3665 1.0445
C10 C 0.91095(11) 0.31815(8) 0.9190(2)
H10 H 0.9519 0.3105 1.0043
C11 C 0.92940(10) 0.06589(7) 0.9177(2)
H11 H 0.8899 0.0377 0.8993
H12 H 0.9683 0.0559 0.8588
C12 C 0.96583(10) 0.06730(7) 1.0898(2)
C13 C 1.04437(10) 0.06792(7) 1.1396(2)
H13 H 1.0752 0.0689 1.0646
C14 C 1.07825(10) 0.06714(7) 1.2978(2)
H14 H 1.1320 0.0665 1.3296
P1A P 1.11300(2) 0.128366(18) 1.65712(5)
O1A O 1.05835(7) 0.17366(5) 1.62061(14)
O2A O 1.14024(7) 0.12014(5) 1.83784(13)
H1A H 1.1671 0.0924 1.8551
O3A O 1.18276(7) 0.13839(5) 1.58471(14)
H2A H 1.2158 0.1149 1.6165
C11A C 1.07060(10) 0.06589(7) 1.5823(2)
H11A H 1.1101 0.0377 1.6007
H12A H 1.0317 0.0559 1.6412
C12A C 1.03417(10) 0.06730(7) 1.4102(2)
C13A C 0.95563(10) 0.06792(7) 1.3604(2)
H13A H 0.9248 0.0689 1.4354
C14A C 0.92175(10) 0.06714(7) 1.2022(2)
H14A H 0.8680 0.0665 1.1704
N1A N 1.08698(8) 0.24385(6) 0.98934(17)
N2A N 1.08848(9) 0.29610(6) 0.72008(17)
C1A C 1.08219(11) 0.21793(8) 1.1213(2)
H3A H 1.0437 0.1917 1.1172
C2A C 1.13155(12) 0.22809(8) 1.2635(2)
H4A H 1.1270 0.2093 1.3552
C3A C 1.18743(11) 0.26636(8) 1.2679(2)
H5A H 1.2217 0.2744 1.3635
C4A C 1.19305(11) 0.29289(8) 1.1321(2)
H6A H 1.2313 0.3192 1.1337
C5A C 1.14210(10) 0.28065(7) 0.9935(2)
C6A C 1.14578(10) 0.30698(7) 0.8418(2)
C7A C 1.20506(11) 0.34009(8) 0.8249(2)
H7A H 1.2452 0.3476 0.9118
C8A C 1.20531(12) 0.36226(8) 0.6798(2)
H8A H 1.2459 0.3847 0.6663
C9A C 1.14613(12) 0.35146(8) 0.5556(2)
H9A H 1.1447 0.3665 0.4555
C10A C 1.08905(11) 0.31815(8) 0.5810(2)
H10A H 1.0481 0.3105 0.4957
Cd1_2 Cd 1.0000 0.230232(7) 1.7500
O1A_2 O 1.05835(7) 0.17366(5) 0.62061(14)
P2 P 0.71900(2) 0.028067(18) 0.71366(5)
O4 O 0.74549(8) -0.02518(5) 0.80360(14)
H15 H 0.7500 -0.0202 0.8999
O5 O 0.77161(7) 0.03925(5) 0.60300(13)
O6 O 0.71413(7) 0.07295(5) 0.82678(14)
C15 C 0.62684(10) 0.01492(8) 0.5922(2)
H16 H 0.6162 0.0426 0.5094
H17 H 0.6287 -0.0201 0.5403
C16 C 0.56163(10) 0.01401(8) 0.67461(19)
C17 C 0.53069(10) -0.03399(8) 0.7126(2)
H18 H 0.5513 -0.0671 0.6876
C18 C 0.53042(10) 0.06183(8) 0.7128(2)
H19 H 0.5509 0.0950 0.6878
P2A P 0.28100(2) 0.028067(18) 0.78634(5)
O4A O 0.25451(8) -0.02518(5) 0.69640(14)
H15A H 0.2500 -0.0202 0.6001
O5A O 0.22839(7) 0.03925(5) 0.89700(13)
O6A O 0.28587(7) 0.07295(5) 0.67322(14)
C15A C 0.37316(10) 0.01492(8) 0.9078(2)
H16A H 0.3838 0.0426 0.9906
H17A H 0.3713 -0.0201 0.9597
C16A C 0.43837(10) 0.01401(8) 0.82539(19)
C17A C 0.46931(10) -0.03399(8) 0.7874(2)
H18A H 0.4487 -0.0671 0.8124
C18A C 0.46958(10) 0.06183(8) 0.7872(2)
H19A H 0.4491 0.0950 0.8122
loop_
_geom_bond_atom_site_label_1
_geom_bond_atom_site_label_2
_geom_bond_site_symmetry_1
_geom_bond_site_symmetry_2
Cd1 O1 1_555 1_555
P1 O1 1_555 1_555
O2 P1 1_555 1_555
H1 O2 1_555 1_555
O3 P1 1_555 1_555
H2 O3 1_555 1_555
N1 Cd1 1_555 1_555
N2 Cd1 1_555 1_555
C1 N1 1_555 1_555
H3 C1 1_555 1_555
C2 C1 1_555 1_555
H4 C2 1_555 1_555
C3 C2 1_555 1_555
H5 C3 1_555 1_555
C4 C3 1_555 1_555
H6 C4 1_555 1_555
C5 N1 1_555 1_555
C6 N2 1_555 1_555
C7 C6 1_555 1_555
H7 C7 1_555 1_555
C8 C7 1_555 1_555
H8 C8 1_555 1_555
C9 C8 1_555 1_555
H9 C9 1_555 1_555
C10 N2 1_555 1_555
H10 C10 1_555 1_555
C11 P1 1_555 1_555
H11 C11 1_555 1_555
H12 C11 1_555 1_555
C12 C11 1_555 1_555
C13 C12 1_555 1_555
H13 C13 1_555 1_555
C14 C13 1_555 1_555
H14 C14 1_555 1_555
P2 O4 1_555 1_555
O4 H15 1_555 1_555
O5 P2 1_555 1_555
O6 P2 1_555 1_555
C15 P2 1_555 1_555
H16 C15 1_555 1_555
H17 C15 1_555 1_555
C16 C15 1_555 1_555
C17 C16 1_555 1_555
H18 C17 1_555 1_555
C18 C16 1_555 1_555
H19 C18 1_555 1_555
P1A O1A 1_555 1_555
O1A Cd1_2 1_555 1_555
O2A P1A 1_555 1_555
H1A O2A 1_555 1_555
O3A P1A 1_555 1_555
H2A O3A 1_555 1_555
C11A P1A 1_555 1_555
H11A C11A 1_555 1_555
H12A C11A 1_555 1_555
C12A C14 1_555 1_555
C13A C12A 1_555 1_555
H13A C13A 1_555 1_555
C14A C12 1_555 1_555
H14A C14A 1_555 1_555
N1A Cd1 1_555 1_555
N2A Cd1 1_555 1_555
C1A N1A 1_555 1_555
H3A C1A 1_555 1_555
C2A C1A 1_555 1_555
H4A C2A 1_555 1_555
C3A C2A 1_555 1_555
H5A C3A 1_555 1_555
C4A C3A 1_555 1_555
H6A C4A 1_555 1_555
C5A N1A 1_555 1_555
C6A N2A 1_555 1_555
C7A C6A 1_555 1_555
H7A C7A 1_555 1_555
C8A C7A 1_555 1_555
H8A C8A 1_555 1_555
C9A C8A 1_555 1_555
H9A C9A 1_555 1_555
C10A N2A 1_555 1_555
H10A C10A 1_555 1_555
O1A_2 Cd1 1_555 1_555
P2A O4A 1_555 1_555
O4A H15A 1_555 1_555
O5A P2A 1_555 1_555
O6A P2A 1_555 1_555
C15A P2A 1_555 1_555
H16A C15A 1_555 1_555
H17A C15A 1_555 1_555
C16A C15A 1_555 1_555
C17A C17 1_555 1_555
H18A C17A 1_555 1_555
C18A C18 1_555 1_555
H19A C18A 1_555 1_555
C4 C5 1_555 1_555
C5 C6 1_555 1_555
C9 C10 1_555 1_555
C11A C12A 1_555 1_555
C13A C14A 1_555 1_555
C4A C5A 1_555 1_555
C5A C6A 1_555 1_555
C9A C10A 1_555 1_555
C16A C17A 1_555 1_555
C16A C18A 1_555 1_555

#END
