
#######################################################################
#
#                 Cambridge Crystallographic Data Centre
#                                CCDC 
#
#######################################################################
#
# If this CIF has been generated from an entry in the Cambridge 
# Structural Database, then it will include bibliographic, chemical, 
# crystal, experimental, refinement or atomic coordinate data resulting 
# from the CCDC's data processing and validation procedures.
#
#######################################################################

data_KAPYIK
_symmetry_cell_setting           monoclinic
_symmetry_space_group_name_H-M   'C 2/c'
_symmetry_Int_Tables_number      15
_space_group_name_Hall           '-C 2yn'
loop_
_symmetry_equiv_pos_site_id
_symmetry_equiv_pos_as_xyz
1 x,y,z
2 1/2+x,1/2+y,z
3 -x,y,1/2-z
4 1/2-x,1/2+y,1/2-z
5 -x,-y,-z
6 1/2-x,1/2-y,-z
7 x,-y,1/2+z
8 1/2+x,1/2-y,1/2+z
_cell_length_a                   19.411(20)
_cell_length_b                   16.879(19)
_cell_length_c                   8.348(4)
_cell_angle_alpha                90
_cell_angle_beta                 114.91(2)
_cell_angle_gamma                90
_cell_volume                     2480.68
loop_
_atom_site_label
_atom_site_type_symbol
_atom_site_fract_x
_atom_site_fract_y
_atom_site_fract_z
Rh1 Rh 0.2861(3) 0.2942(3) 0.4526(7)
O1 O 0.1862(17) 0.3174(20) 0.242(4)
O2 O 0.3805(16) 0.265(2) 0.672(5)
O3 O 0.3032(17) 0.202(3) 0.317(3)
O4 O 0.2637(19) 0.3816(17) 0.595(5)
C1 C 0.127(2) 0.283(4) 0.225(6)
C2 C 0.276(3) 0.133(3) 0.324(6)
C3 C 0.056(3) 0.307(4) 0.059(6)
C4 C 0.296(3) 0.069(3) 0.224(6)
F1 F -0.0036(18) 0.271(2) 0.053(4)
F2 F 0.0655(17) 0.289(2) -0.085(5)
F3 F 0.0446(20) 0.3839(19) 0.056(5)
F4 F 0.3346(19) 0.0991(20) 0.139(5)
F5 F 0.235(2) 0.0352(20) 0.105(6)
F6 F 0.3390(19) 0.014(3) 0.330(5)
N1 N 0.154(2) 0.123(2) 0.649(5)
C5 C 0.112(2) 0.089(3) 0.686(7)
C6 C 0.0000 0.087(5) 0.7500
C7 C 0.054(3) 0.046(3) 0.717(7)
C8 C -0.054(3) -0.036(3) 0.784(8)
C9 C 0.0000 -0.077(5) 0.7500
H1 H 0.0000 0.1420 0.7500
H2 H 0.0900 -0.0630 0.6930
H3 H 0.0000 -0.1320 0.7500
Rh1E Rh 0.2139(3) 0.2058(3) 0.5474(7)
Rh1G Rh -0.2139(3) 0.2058(3) 0.9526(7)
O1E O 0.3138(17) 0.1826(20) 0.758(4)
O2E O 0.1195(16) 0.235(2) 0.328(5)
O3E O 0.1968(17) 0.298(3) 0.683(3)
O4E O 0.2363(19) 0.1184(17) 0.405(5)
C1E C 0.373(2) 0.217(4) 0.775(6)
C2E C 0.224(3) 0.367(3) 0.676(6)
C3E C 0.444(3) 0.193(4) 0.941(6)
C4E C 0.204(3) 0.431(3) 0.776(6)
F1E F 0.5036(18) 0.229(2) 0.947(4)
F2E F 0.4345(17) 0.211(2) 1.085(5)
F3E F 0.4554(20) 0.1161(19) 0.944(5)
F4E F 0.1654(19) 0.4009(20) 0.861(5)
F5E F 0.265(2) 0.4648(20) 0.895(6)
F6E F 0.1610(19) 0.486(3) 0.670(5)
N1E N 0.346(2) 0.377(2) 0.351(5)
N1B N -0.154(2) 0.123(2) 0.851(5)
C5B C -0.112(2) 0.089(3) 0.814(7)
C7B C -0.054(3) 0.046(3) 0.783(7)
C8B C 0.054(3) -0.036(3) 0.716(8)
H2B H -0.0900 -0.0630 0.8070
loop_
_geom_bond_atom_site_label_1
_geom_bond_atom_site_label_2
_geom_bond_site_symmetry_1
_geom_bond_site_symmetry_2
Rh1 O1 1_555 1_555
O1 C1 1_555 1_555
O2 Rh1 1_555 1_555
O3 Rh1 1_555 1_555
O4 Rh1 1_555 1_555
C1 C3 1_555 1_555
C2 O3 1_555 1_555
C3 F1 1_555 1_555
C4 C2 1_555 1_555
F2 C3 1_555 1_555
F3 C3 1_555 1_555
F4 C4 1_555 1_555
F5 C4 1_555 1_555
F6 C4 1_555 1_555
N1 C5 1_555 1_555
C5 C7 1_555 1_555
C6 C7 1_555 1_555
C7 C8B 1_555 1_555
C8 C9 1_555 1_555
C9 H3 1_555 1_555
H1 C6 1_555 1_555
H2 C8B 1_555 1_555
Rh1E Rh1 1_555 1_555
Rh1G N1B 1_555 1_555
O1E Rh1E 1_555 1_555
O2E C1 1_555 1_555
O3E Rh1E 1_555 1_555
O4E C2 1_555 1_555
C1E O2 1_555 1_555
C2E O4 1_555 1_555
C3E C1E 1_555 1_555
C4E C2E 1_555 1_555
F1E C3E 1_555 1_555
F2E C3E 1_555 1_555
F3E C3E 1_555 1_555
F4E C4E 1_555 1_555
F5E C4E 1_555 1_555
F6E C4E 1_555 1_555
N1E Rh1 1_555 1_555
N1B C5B 1_555 1_555
C5B C7B 1_555 1_555
C7B C6 1_555 1_555
C8B C9 1_555 1_555
H2B C8 1_555 1_555
N1 Rh1E 1_555 1_555
C8 C7B 1_555 1_555
Rh1E O2E 1_555 1_555
Rh1E O4E 1_555 1_555
O1E C1E 1_555 1_555
O3E C2E 1_555 1_555

#END
