
#######################################################################
#
#                 Cambridge Crystallographic Data Centre
#                                CCDC 
#
#######################################################################
#
# If this CIF has been generated from an entry in the Cambridge 
# Structural Database, then it will include bibliographic, chemical, 
# crystal, experimental, refinement or atomic coordinate data resulting 
# from the CCDC's data processing and validation procedures.
#
#######################################################################

data_KAQSAW
_symmetry_cell_setting           monoclinic
_symmetry_space_group_name_H-M   'P 21/c'
_symmetry_Int_Tables_number      14
_space_group_name_Hall           '-P 2ybc'
loop_
_symmetry_equiv_pos_site_id
_symmetry_equiv_pos_as_xyz
1 x,y,z
2 x,1/2-y,1/2+z
3 -x,-y,-z
4 -x,1/2+y,1/2-z
_cell_length_a                   19.2996(8)
_cell_length_b                   5.6514(2)
_cell_length_c                   18.1528(8)
_cell_angle_alpha                90
_cell_angle_beta                 104.454(2)
_cell_angle_gamma                90
_cell_volume                     1917.25
loop_
_atom_site_label
_atom_site_type_symbol
_atom_site_fract_x
_atom_site_fract_y
_atom_site_fract_z
Ca1 Ca 0.45719(2) 0.41646(8) 0.30727(2)
S1 S 0.35291(2) 0.71515(9) 0.42839(3)
Cl1 Cl 0.15369(3) 1.33149(9) 0.47025(3)
Cl2 Cl 0.06629(2) 0.62922(10) 0.27489(3)
O1 O 0.37715(7) 0.6947(3) 0.35887(8)
O2 O 0.39114(8) 0.8981(3) 0.47904(8)
O3 O 0.34968(8) 0.4910(3) 0.46584(9)
O4 O 0.33742(7) 0.2727(3) 0.28896(9)
O5 O 0.43986(8) 0.0590(4) 0.23512(10)
O6 O 0.41340(10) -0.3151(4) 0.20576(9)
N1 N 0.23311(9) 0.5039(3) 0.30899(9)
N2 N 0.19008(8) 0.3675(3) 0.26017(9)
C1 C 0.26237(10) 0.8178(3) 0.39986(10)
C2 C 0.24574(11) 1.0155(4) 0.43699(11)
H1 H 0.2821 1.0992 0.4722
C3 C 0.17531(11) 1.0894(4) 0.42199(11)
C4 C 0.12200(10) 0.9686(4) 0.37127(11)
H2 H 0.0738 1.0204 0.3622
C5 C 0.13857(10) 0.7719(3) 0.33351(10)
C6 C 0.20964(9) 0.6939(3) 0.34541(10)
C7 C 0.21775(10) 0.1935(3) 0.22693(10)
C8 C 0.29422(10) 0.1454(4) 0.24217(11)
C9 C 0.31715(11) -0.0552(4) 0.20433(11)
C10 C 0.26800(12) -0.1940(4) 0.15817(11)
H3 H 0.2843 -0.3287 0.1360
C11 C 0.19233(11) -0.1490(4) 0.14068(11)
C12 C 0.16690(10) 0.0484(3) 0.17318(10)
C13 C 0.09358(10) 0.0978(4) 0.15281(11)
H4 H 0.0757 0.2309 0.1741
C14 C 0.04695(12) -0.0465(5) 0.10169(12)
H5 H -0.0027 -0.0101 0.0875
C15 C 0.07223(13) -0.2440(4) 0.07099(12)
H6 H 0.0397 -0.3435 0.0367
C16 C 0.14402(13) -0.2961(4) 0.09010(12)
H7 H 0.1610 -0.4316 0.0691
C17 C 0.39545(12) -0.1068(5) 0.21696(12)
O7 O 0.53267(11) 0.6462(4) 0.41123(12)
O8 O 0.48242(10) 0.1495(4) 0.40994(10)
H8 H 0.2779(18) 0.470(6) 0.3175(19)
H9 H 0.4511(19) 0.094(7) 0.426(2)
H10 H 0.519(2) 0.170(7) 0.445(2)
H11 H 0.573(2) 0.612(6) 0.444(2)
H12 H 0.533(2) 0.770(7) 0.396(2)
O5C O 0.56014(8) 0.5590(4) 0.26488(10)
O6C O 0.58660(10) 0.1849(4) 0.29424(9)
Ca1C Ca 0.54281(2) -0.08354(8) 0.19273(2)
Ca1C_2 Ca 0.54281(2) 0.91646(8) 0.19273(2)
O6_2 O 0.41340(10) 0.6849(4) 0.20576(9)
O1C O 0.62285(7) 1.1947(3) 0.14113(8)
Ca1_2 Ca 0.45719(2) -0.58354(8) 0.30727(2)
loop_
_geom_bond_atom_site_label_1
_geom_bond_atom_site_label_2
_geom_bond_site_symmetry_1
_geom_bond_site_symmetry_2
Ca1 O1 1_555 1_555
S1 O1 1_555 1_555
Cl1 C3 1_555 1_555
Cl2 C5 1_555 1_555
O2 S1 1_555 1_555
O3 S1 1_555 1_555
O4 Ca1 1_555 1_555
O5 Ca1 1_555 1_555
O6 C17 1_555 1_555
N1 N2 1_555 1_555
N2 C7 1_555 1_555
C1 S1 1_555 1_555
C2 C1 1_555 1_555
H1 C2 1_555 1_555
C3 C2 1_555 1_555
C4 C3 1_555 1_555
H2 C4 1_555 1_555
C5 C4 1_555 1_555
C6 N1 1_555 1_555
C7 C8 1_555 1_555
C8 O4 1_555 1_555
C9 C8 1_555 1_555
C10 C9 1_555 1_555
H3 C10 1_555 1_555
C11 C10 1_555 1_555
C12 C7 1_555 1_555
C13 C12 1_555 1_555
H4 C13 1_555 1_555
C14 C13 1_555 1_555
H5 C14 1_555 1_555
C15 C14 1_555 1_555
H6 C15 1_555 1_555
C16 C11 1_555 1_555
H7 C16 1_555 1_555
C17 O5 1_555 1_555
O7 Ca1 1_555 1_555
O8 Ca1 1_555 1_555
H8 N1 1_555 1_555
H9 O8 1_555 1_555
H10 O8 1_555 1_555
H11 O7 1_555 1_555
H12 O7 1_555 1_555
O5C Ca1 1_555 1_555
O6C Ca1 1_555 1_555
Ca1C O5 1_555 1_555
Ca1C_2 O5C 1_555 1_555
O6_2 Ca1 1_555 1_555
O1C Ca1C_2 1_555 1_555
Ca1_2 O6 1_555 1_555
O6 Ca1C 1_555 1_555
C1 C6 1_555 1_555
C5 C6 1_555 1_555
C9 C17 1_555 1_555
C11 C12 1_555 1_555
C15 C16 1_555 1_555
O6C Ca1C 1_555 1_555
Ca1C_2 O6_2 1_555 1_555

#END
