
#######################################################################
#
#                 Cambridge Crystallographic Data Centre
#                                CCDC 
#
#######################################################################
#
# If this CIF has been generated from an entry in the Cambridge 
# Structural Database, then it will include bibliographic, chemical, 
# crystal, experimental, refinement or atomic coordinate data resulting 
# from the CCDC's data processing and validation procedures.
#
#######################################################################

data_KAQSIE
_symmetry_cell_setting           orthorhombic
_symmetry_space_group_name_H-M   'F d d 2'
_symmetry_Int_Tables_number      43
_space_group_name_Hall           'F 2 -2d'
loop_
_symmetry_equiv_pos_site_id
_symmetry_equiv_pos_as_xyz
1 x,y,z
2 -x,-y,z
3 1/4-x,1/4+y,1/4+z
4 3/4+x,3/4-y,1/4+z
5 x,1/2+y,1/2+z
6 -x,1/2-y,1/2+z
7 1/4-x,3/4+y,3/4+z
8 3/4+x,1/4-y,3/4+z
9 1/2+x,y,1/2+z
10 1/2-x,-y,1/2+z
11 3/4-x,1/4+y,3/4+z
12 1/4+x,3/4-y,3/4+z
13 1/2+x,1/2+y,z
14 1/2-x,1/2-y,z
15 3/4-x,3/4+y,1/4+z
16 1/4+x,1/4-y,1/4+z
_cell_length_a                   29.059(6)
_cell_length_b                   37.326(8)
_cell_length_c                   8.606(2)
_cell_angle_alpha                90
_cell_angle_beta                 90
_cell_angle_gamma                90
_cell_volume                     9334.55
loop_
_atom_site_label
_atom_site_type_symbol
_atom_site_fract_x
_atom_site_fract_y
_atom_site_fract_z
Ag1 Ag -0.08797(3) 0.23225(2) -0.39596(11)
Ag2 Ag 0.10136(3) 0.24460(2) -0.30276(10)
S1 S -0.06956(8) 0.29616(6) -0.4868(3)
S2 S 0.06104(7) 0.30072(6) -0.2243(3)
C1 C -0.0554(3) 0.3190(3) -0.3048(12)
H1 H -0.0836(3) 0.3233(3) -0.2473(12)
H2 H -0.0361(3) 0.3035(3) -0.2425(12)
C2 C 0.0446(3) 0.3238(3) -0.4045(12)
H3 H 0.0722(3) 0.3312(3) -0.4591(12)
H4 H 0.0280(3) 0.3073(3) -0.4710(12)
C3 C -0.0312(3) 0.3540(3) -0.3279(11)
C4 C 0.0145(3) 0.3566(3) -0.3742(11)
C5 C 0.0344(4) 0.3907(3) -0.3960(15)
H5 H 0.0647(4) 0.3925(3) -0.4295(15)
C6 C 0.0094(4) 0.4210(3) -0.3684(17)
H6 H 0.0225(4) 0.4435(3) -0.3842(17)
C7 C -0.0365(5) 0.4180(3) -0.3155(17)
H7 H -0.0534(5) 0.4385(3) -0.2925(17)
C8 C -0.0557(4) 0.3854(3) -0.2985(15)
H8 H -0.0861(4) 0.3837(3) -0.2661(15)
C9 C -0.1215(3) 0.3171(2) -0.5486(13)
N1 N -0.1388(3) 0.3440(2) -0.4691(12)
C10 C -0.1762(3) 0.3590(3) -0.5317(15)
H9 H -0.1902(3) 0.3778(3) -0.4790(15)
C11 C -0.1949(4) 0.3480(3) -0.6704(15)
H10 H -0.2201(4) 0.3596(3) -0.7139(15)
C12 C -0.1750(3) 0.3194(3) -0.7411(14)
H11 H -0.1875(3) 0.3109(3) -0.8334(14)
N2 N -0.1376(3) 0.3030(2) -0.6813(10)
C13 C 0.1059(3) 0.3271(2) -0.1503(12)
N3 N 0.1226(3) 0.3547(2) -0.2315(11)
C14 C 0.1569(4) 0.3724(3) -0.1626(16)
H12 H 0.1696(4) 0.3919(3) -0.2146(16)
C15 C 0.1743(4) 0.3637(3) -0.0211(15)
H13 H 0.1985(4) 0.3765(3) 0.0229(15)
C16 C 0.1543(3) 0.3348(3) 0.0543(14)
H14 H 0.1647(3) 0.3284(3) 0.1527(14)
N4 N 0.1203(3) 0.3159(2) -0.0118(10)
N5 N 0.0087(3) 0.2042(2) -0.3614(14)
O1 O -0.0030(3) 0.2355(2) -0.3501(17)
O2 O -0.0191(4) 0.1806(3) -0.3456(20)
N6 N 0.1441(4) 0.2488(3) -0.6245(15)
O3 O 0.1629(5) 0.2378(5) -0.5038(15)
O4 O 0.1087(4) 0.2637(4) -0.6130(15)
O5 O 0.1624(5) 0.2441(6) -0.7541(15)
O6 O 0.0486(3) 0.1968(3) -0.3933(19)
Ag1E Ag 0.08797(3) 0.26775(2) -0.89596(11)
N4E N -0.1203(3) 0.1841(2) -0.5118(10)
Ag2E Ag -0.10136(3) 0.25540(2) -0.80276(10)
Ag1E_2 Ag 0.08797(3) 0.26775(2) 0.10404(11)
O4E O -0.1087(4) 0.2363(4) -0.1130(15)
N2E N 0.1376(3) 0.1970(2) -0.1813(10)
C17 C 0.2500 0.2500 -1.1461(24)
C18 C 0.2893(9) 0.2271(7) -1.2192(45)
O7 O 0.2500 0.2500 -0.996(15)
C18M C 0.2107(9) 0.2729(7) -1.2192(45)
loop_
_geom_bond_atom_site_label_1
_geom_bond_atom_site_label_2
_geom_bond_site_symmetry_1
_geom_bond_site_symmetry_2
Ag1 S1 1_555 1_555
Ag2 S2 1_555 1_555
S1 C1 1_555 1_555
S2 C2 1_555 1_555
C1 H1 1_555 1_555
H2 C1 1_555 1_555
C2 H3 1_555 1_555
H4 C2 1_555 1_555
C3 C1 1_555 1_555
C4 C2 1_555 1_555
C5 C4 1_555 1_555
H5 C5 1_555 1_555
C6 C5 1_555 1_555
H6 C6 1_555 1_555
C7 C6 1_555 1_555
H7 C7 1_555 1_555
C8 C3 1_555 1_555
H8 C8 1_555 1_555
C9 S1 1_555 1_555
N1 C9 1_555 1_555
C10 N1 1_555 1_555
H9 C10 1_555 1_555
C11 C10 1_555 1_555
H10 C11 1_555 1_555
C12 C11 1_555 1_555
H11 C12 1_555 1_555
N2 C9 1_555 1_555
C13 S2 1_555 1_555
N3 C13 1_555 1_555
C14 N3 1_555 1_555
H12 C14 1_555 1_555
C15 C14 1_555 1_555
H13 C15 1_555 1_555
C16 C15 1_555 1_555
H14 C16 1_555 1_555
N4 C13 1_555 1_555
N5 O1 1_555 1_555
O1 Ag1 1_555 1_555
O2 N5 1_555 1_555
N6 O3 1_555 1_555
O3 Ag2 1_555 1_555
O4 N6 1_555 1_555
O5 N6 1_555 1_555
O6 Ag2 1_555 1_555
C17 C18 1_555 1_555
O7 C17 1_555 1_555
Ag1E O4 1_555 1_555
N4E Ag1 1_555 1_555
Ag2E N2 1_555 1_555
Ag1E_2 N4 1_555 1_555
O4E Ag1 1_555 1_555
N2E Ag2 1_555 1_555
C18M C17 1_555 1_555
C3 C4 1_555 1_555
C7 C8 1_555 1_555
C12 N2 1_555 1_555
C16 N4 1_555 1_555
N5 O6 1_555 1_555

#END
