
#######################################################################
#
#                 Cambridge Crystallographic Data Centre
#                                CCDC 
#
#######################################################################
#
# If this CIF has been generated from an entry in the Cambridge 
# Structural Database, then it will include bibliographic, chemical, 
# crystal, experimental, refinement or atomic coordinate data resulting 
# from the CCDC's data processing and validation procedures.
#
#######################################################################

data_KAQZOT
_symmetry_cell_setting           monoclinic
_symmetry_space_group_name_H-M   'P 21/n'
_symmetry_Int_Tables_number      14
_space_group_name_Hall           '-P 2yn'
loop_
_symmetry_equiv_pos_site_id
_symmetry_equiv_pos_as_xyz
1 x,y,z
2 1/2-x,1/2+y,1/2-z
3 -x,-y,-z
4 1/2+x,1/2-y,1/2+z
_cell_length_a                   11.3341(16)
_cell_length_b                   8.1082(10)
_cell_length_c                   14.715(2)
_cell_angle_alpha                90
_cell_angle_beta                 104.198(3)
_cell_angle_gamma                90
_cell_volume                     1310.99
loop_
_atom_site_label
_atom_site_type_symbol
_atom_site_fract_x
_atom_site_fract_y
_atom_site_fract_z
Co1 Co 0.0000 0.0000 0.5000
O1 O 0.00242(13) -0.24948(17) 0.52384(10)
H1 H 0.059(2) -0.308(3) 0.5244(16)
H2 H -0.061(2) -0.305(3) 0.5404(17)
N1 N 0.34669(13) 0.12590(18) 0.68575(11)
N2 N 0.35813(15) -0.0413(2) 0.69089(13)
N3 N 0.17173(13) 0.03141(19) 0.60579(11)
N4 N 0.73951(13) 0.08549(19) 0.66583(11)
N5 N 0.81997(15) 0.2074(2) 0.70209(12)
N6 N 0.88968(14) 0.0547(2) 0.59857(11)
C1 C 0.44898(16) 0.2328(2) 0.72876(14)
H3 H 0.4797 0.2007 0.7945
H4 H 0.4198 0.3467 0.7276
C2 C 0.55352(16) 0.2261(2) 0.68033(14)
H5 H 0.5203 0.2395 0.6127
H6 H 0.6083 0.3193 0.7022
C3 C 0.62695(17) 0.0674(2) 0.69756(14)
H7 H 0.6471 0.0409 0.7646
H8 H 0.5784 -0.0235 0.6636
C4 C 0.25104(17) -0.0918(2) 0.64164(15)
H9 H 0.2310 -0.2040 0.6320
C5 C 0.23600(16) 0.1664(2) 0.63572(13)
H10 H 0.2074 0.2749 0.6233
C6 C 0.90762(17) 0.1830(3) 0.65942(14)
H11 H 0.9776 0.2496 0.6703
C7 C 0.78201(17) -0.0032(2) 0.60519(14)
H12 H 0.7419 -0.0941 0.5716
Co1_2 Co -1.0000 0.0000 0.5000
Co1_3 Co 1.0000 0.0000 0.5000
O1B O -0.00242(13) 0.24948(17) 0.47616(10)
H1B H -0.059(2) 0.308(3) 0.4756(16)
H2B H 0.061(2) 0.305(3) 0.4596(17)
N1B N -0.34669(13) -0.12590(18) 0.31425(11)
N2B N -0.35813(15) 0.0413(2) 0.30911(13)
N3B N -0.17173(13) -0.03141(19) 0.39421(11)
N4B N -0.73951(13) -0.08549(19) 0.33417(11)
N5B N -0.81997(15) -0.2074(2) 0.29791(12)
N6B N -0.88968(14) -0.0547(2) 0.40143(11)
N6_2 N -0.11032(14) 0.0547(2) 0.59857(11)
N6B_2 N 0.11032(14) -0.0547(2) 0.40143(11)
C1B C -0.44898(16) -0.2328(2) 0.27124(14)
H3B H -0.4797 -0.2007 0.2055
H4B H -0.4198 -0.3467 0.2724
C2B C -0.55352(16) -0.2261(2) 0.31967(14)
H5B H -0.5203 -0.2395 0.3873
H6B H -0.6083 -0.3193 0.2978
C3B C -0.62695(17) -0.0674(2) 0.30244(14)
H7B H -0.6471 -0.0409 0.2354
H8B H -0.5784 0.0235 0.3364
C4B C -0.25104(17) 0.0918(2) 0.35836(15)
H9B H -0.2310 0.2040 0.3680
C5B C -0.23600(16) -0.1664(2) 0.36428(13)
H10B H -0.2074 -0.2749 0.3767
C6B C -0.90762(17) -0.1830(3) 0.34058(14)
H11B H -0.9776 -0.2496 0.3297
C7B C -0.78201(17) 0.0032(2) 0.39481(14)
H12B H -0.7419 0.0941 0.4284
O2 O -0.20122(12) -0.55668(18) 0.44996(11)
O3 O -0.17962(12) -0.38488(17) 0.57148(10)
C8 C -0.37597(16) -0.4922(2) 0.50510(13)
C9 C -0.45114(17) -0.5897(2) 0.43739(14)
H13 H -0.4183 -0.6504 0.3950
C10 C -0.57494(17) -0.5974(2) 0.43236(14)
H14 H -0.6258 -0.6633 0.3865
C11 C -0.24106(17) -0.4795(2) 0.51002(14)
O2B O -0.79878(12) -0.44332(18) 0.55004(11)
O3B O -0.82038(12) -0.61512(17) 0.42852(10)
C8B C -0.62403(16) -0.5078(2) 0.49490(13)
C9B C -0.54886(17) -0.4103(2) 0.56261(14)
H13B H -0.5817 -0.3496 0.6050
C10B C -0.42506(17) -0.4026(2) 0.56764(14)
H14B H -0.3742 -0.3367 0.6135
C11B C -0.75894(17) -0.5205(2) 0.48998(14)
loop_
_geom_bond_atom_site_label_1
_geom_bond_atom_site_label_2
_geom_bond_site_symmetry_1
_geom_bond_site_symmetry_2
Co1 O1 1_555 1_555
O1 H1 1_555 1_555
H2 O1 1_555 1_555
O2 C11 1_555 1_555
O3 C11 1_555 1_555
N1 N2 1_555 1_555
N2 C4 1_555 1_555
N3 Co1 1_555 1_555
N4 N5 1_555 1_555
N5 C6 1_555 1_555
N6 C6 1_555 1_555
C1 N1 1_555 1_555
H3 C1 1_555 1_555
H4 C1 1_555 1_555
C2 C1 1_555 1_555
H5 C2 1_555 1_555
H6 C2 1_555 1_555
C3 N4 1_555 1_555
H7 C3 1_555 1_555
H8 C3 1_555 1_555
C4 N3 1_555 1_555
H9 C4 1_555 1_555
C5 N1 1_555 1_555
H10 C5 1_555 1_555
C6 H11 1_555 1_555
C7 N4 1_555 1_555
H12 C7 1_555 1_555
C8 C9 1_555 1_555
C9 H13 1_555 1_555
C10 C9 1_555 1_555
H14 C10 1_555 1_555
C11 C8 1_555 1_555
Co1_2 N6B 1_555 1_555
Co1_3 N6 1_555 1_555
O1B Co1 1_555 1_555
H1B O1B 1_555 1_555
H2B O1B 1_555 1_555
O2B C11B 1_555 1_555
O3B C11B 1_555 1_555
N1B N2B 1_555 1_555
N2B C4B 1_555 1_555
N3B Co1 1_555 1_555
N4B N5B 1_555 1_555
N5B C6B 1_555 1_555
N6B C6B 1_555 1_555
N6_2 Co1 1_555 1_555
N6B_2 Co1 1_555 1_555
C1B N1B 1_555 1_555
H3B C1B 1_555 1_555
H4B C1B 1_555 1_555
C2B C1B 1_555 1_555
H5B C2B 1_555 1_555
H6B C2B 1_555 1_555
C3B N4B 1_555 1_555
H7B C3B 1_555 1_555
H8B C3B 1_555 1_555
C4B N3B 1_555 1_555
H9B C4B 1_555 1_555
C5B N1B 1_555 1_555
H10B C5B 1_555 1_555
C6B H11B 1_555 1_555
C7B N4B 1_555 1_555
H12B C7B 1_555 1_555
C8B C10 1_555 1_555
C9B C8B 1_555 1_555
H13B C9B 1_555 1_555
C10B C8 1_555 1_555
H14B C10B 1_555 1_555
C11B C8B 1_555 1_555
N3 C5 1_555 1_555
N6 C7 1_555 1_555
C2 C3 1_555 1_555
N3B C5B 1_555 1_555
N6B C7B 1_555 1_555
C2B C3B 1_555 1_555
C9B C10B 1_555 1_555

#END
