
#######################################################################
#
#                 Cambridge Crystallographic Data Centre
#                                CCDC 
#
#######################################################################
#
# If this CIF has been generated from an entry in the Cambridge 
# Structural Database, then it will include bibliographic, chemical, 
# crystal, experimental, refinement or atomic coordinate data resulting 
# from the CCDC's data processing and validation procedures.
#
#######################################################################

data_KARLAS
_symmetry_cell_setting           cubic
_symmetry_space_group_name_H-M   'I -4 3 m'
_symmetry_Int_Tables_number      217
_space_group_name_Hall           'I -4 2 3'
loop_
_symmetry_equiv_pos_site_id
_symmetry_equiv_pos_as_xyz
1 x,y,z
2 -x,-y,z
3 -x,y,-z
4 x,-y,-z
5 z,x,y
6 z,-x,-y
7 -z,-x,y
8 -z,x,-y
9 y,z,x
10 -y,z,-x
11 y,-z,-x
12 -y,-z,x
13 y,x,z
14 -y,-x,z
15 y,-x,-z
16 -y,x,-z
17 x,z,y
18 -x,z,-y
19 -x,-z,y
20 x,-z,-y
21 z,y,x
22 z,-y,-x
23 -z,y,-x
24 -z,-y,x
25 1/2+x,1/2+y,1/2+z
26 1/2-x,1/2-y,1/2+z
27 1/2-x,1/2+y,1/2-z
28 1/2+x,1/2-y,1/2-z
29 1/2+z,1/2+x,1/2+y
30 1/2+z,1/2-x,1/2-y
31 1/2-z,1/2-x,1/2+y
32 1/2-z,1/2+x,1/2-y
33 1/2+y,1/2+z,1/2+x
34 1/2-y,1/2+z,1/2-x
35 1/2+y,1/2-z,1/2-x
36 1/2-y,1/2-z,1/2+x
37 1/2+y,1/2+x,1/2+z
38 1/2-y,1/2-x,1/2+z
39 1/2+y,1/2-x,1/2-z
40 1/2-y,1/2+x,1/2-z
41 1/2+x,1/2+z,1/2+y
42 1/2-x,1/2+z,1/2-y
43 1/2-x,1/2-z,1/2+y
44 1/2+x,1/2-z,1/2-y
45 1/2+z,1/2+y,1/2+x
46 1/2+z,1/2-y,1/2-x
47 1/2-z,1/2+y,1/2-x
48 1/2-z,1/2-y,1/2+x
_cell_length_a                   21.625(3)
_cell_length_b                   21.625(3)
_cell_length_c                   21.625(3)
_cell_angle_alpha                90
_cell_angle_beta                 90
_cell_angle_gamma                90
_cell_volume                     10112.7
loop_
_atom_site_label
_atom_site_type_symbol
_atom_site_fract_x
_atom_site_fract_y
_atom_site_fract_z
Ni1 Ni 0.88067(3) 0.76741(2) 0.76741(2)
O1 O 0.8018(2) 0.8018(2) 0.8018(2)
O2 O 0.84724(14) 0.67849(13) 0.77359(17)
O3 O 0.92246(14) 0.7571(2) 0.85130(15)
N1 N 0.77031(15) 0.46227(19) 0.77031(15)
C1 C 0.81546(19) 0.4920(2) 0.7408(2)
H1 H 0.8381 0.4708 0.7096
C2 C 0.83039(19) 0.5526(2) 0.7542(2)
H2 H 0.8625 0.5725 0.7318
C3 C 0.79957(17) 0.5845(3) 0.79957(17)
C4 C 0.80879(19) 0.6524(3) 0.80879(19)
C5 C 0.9051(2) 0.7539(3) 0.9051(2)
C6 C 0.9538(2) 0.7444(3) 0.9538(2)
C7 C 1.0147(3) 0.7442(3) 0.9385(2)
H3 H 1.0264 0.7441 0.8962
Ni1B Ni 1.11933(3) 0.76741(2) 1.23259(2)
Ni1D Ni 0.76741(2) 0.88067(3) 0.76741(2)
Ni1E Ni 0.76741(2) 1.11933(3) 1.23259(2)
Ni1F Ni 1.23259(2) 1.11933(3) 0.76741(2)
Ni1G Ni 1.23259(2) 0.88067(3) 1.23259(2)
Ni1H Ni 0.76741(2) 0.76741(2) 0.88067(3)
Ni1I Ni 1.23259(2) 0.76741(2) 1.11933(3)
Ni1J Ni 0.76741(2) 1.23259(2) 1.11933(3)
Ni1K Ni 1.23259(2) 1.23259(2) 0.88067(3)
Ni1A Ni 1.11933(3) 1.23259(2) 0.76741(2)
Ni1C Ni 0.88067(3) 1.23259(2) 1.23259(2)
Ni1X Ni 0.38067(3) 1.26741(2) 1.26741(2)
Ni1Y Ni 1.61933(3) 0.73259(2) 1.26741(2)
Ni1Z Ni 1.61933(3) 1.26741(2) 0.73259(2)
Ni1AA Ni 0.38067(3) 0.73259(2) 0.73259(2)
Ni1BA Ni 1.26741(2) 0.38067(3) 1.26741(2)
Ni1CA Ni 1.26741(2) 1.61933(3) 0.73259(2)
Ni1DA Ni 0.73259(2) 1.61933(3) 1.26741(2)
Ni1EA Ni 0.73259(2) 0.38067(3) 0.73259(2)
Ni1FA Ni 1.26741(2) 1.26741(2) 0.38067(3)
Ni1GA Ni 0.73259(2) 1.26741(2) 1.61933(3)
Ni1HA Ni 1.26741(2) 0.73259(2) 1.61933(3)
Ni1IA Ni 0.73259(2) 0.73259(2) 0.38067(3)
O1B O 1.1982(2) 0.8018(2) 1.1982(2)
O1C O 0.8018(2) 1.1982(2) 1.1982(2)
O1A O 1.1982(2) 1.1982(2) 0.8018(2)
O2T O 0.77359(17) 0.67849(13) 0.84724(14)
O2B O 1.15276(14) 0.67849(13) 1.22641(17)
O2V O 1.22641(17) 0.67849(13) 1.15276(14)
O2D O 0.77359(17) 0.84724(14) 0.67849(13)
O2P O 0.84724(14) 0.77359(17) 0.67849(13)
O2E O 0.77359(17) 1.15276(14) 1.32151(13)
O2S O 0.84724(14) 1.22641(17) 1.32151(13)
O2F O 1.22641(17) 1.15276(14) 0.67849(13)
O2R O 1.15276(14) 1.22641(17) 0.67849(13)
O2G O 1.22641(17) 0.84724(14) 1.32151(13)
O2Q O 1.15276(14) 0.77359(17) 1.32151(13)
O2H O 0.67849(13) 0.77359(17) 0.84724(14)
O2L O 0.67849(13) 0.84724(14) 0.77359(17)
O2I O 1.32151(13) 0.77359(17) 1.15276(14)
O2O O 1.32151(13) 0.84724(14) 1.22641(17)
O2J O 0.67849(13) 1.22641(17) 1.15276(14)
O2N O 0.67849(13) 1.15276(14) 1.22641(17)
O2K O 1.32151(13) 1.22641(17) 0.84724(14)
O2M O 1.32151(13) 1.15276(14) 0.77359(17)
O2A O 1.15276(14) 1.32151(13) 0.77359(17)
O2W O 1.22641(17) 1.32151(13) 0.84724(14)
O2C O 0.84724(14) 1.32151(13) 1.22641(17)
O2U O 0.77359(17) 1.32151(13) 1.15276(14)
O3T O 0.85130(15) 0.7571(2) 0.92246(14)
O3V O 1.14870(15) 0.7571(2) 1.07754(14)
O3B O 1.07754(14) 0.7571(2) 1.14870(15)
O3D O 0.85130(15) 0.92246(14) 0.7571(2)
O3P O 0.92246(14) 0.85130(15) 0.7571(2)
O3R O 1.07754(14) 1.14870(15) 0.7571(2)
O3F O 1.14870(15) 1.07754(14) 0.7571(2)
O3E O 0.85130(15) 1.07754(14) 1.2429(2)
O3S O 0.92246(14) 1.14870(15) 1.2429(2)
O3Q O 1.07754(14) 0.85130(15) 1.2429(2)
O3G O 1.14870(15) 0.92246(14) 1.2429(2)
O3H O 0.7571(2) 0.85130(15) 0.92246(14)
O3L O 0.7571(2) 0.92246(14) 0.85130(15)
O3N O 0.7571(2) 1.07754(14) 1.14870(15)
O3J O 0.7571(2) 1.14870(15) 1.07754(14)
O3I O 1.2429(2) 0.85130(15) 1.07754(14)
O3O O 1.2429(2) 0.92246(14) 1.14870(15)
O3M O 1.2429(2) 1.07754(14) 0.85130(15)
O3K O 1.2429(2) 1.14870(15) 0.92246(14)
O3A O 1.07754(14) 1.2429(2) 0.85130(15)
O3W O 1.14870(15) 1.2429(2) 0.92246(14)
O3U O 0.85130(15) 1.2429(2) 1.07754(14)
O3C O 0.92246(14) 1.2429(2) 1.14870(15)
N1B N 1.22969(15) 0.46227(19) 1.22969(15)
N1D N 0.77031(15) 0.77031(15) 0.46227(19)
N1E N 0.77031(15) 1.22969(15) 1.53773(19)
N1F N 1.22969(15) 1.22969(15) 0.46227(19)
N1G N 1.22969(15) 0.77031(15) 1.53773(19)
N1H N 0.46227(19) 0.77031(15) 0.77031(15)
N1I N 1.53773(19) 0.77031(15) 1.22969(15)
N1J N 0.46227(19) 1.22969(15) 1.22969(15)
N1K N 1.53773(19) 1.22969(15) 0.77031(15)
N1A N 1.22969(15) 1.53773(19) 0.77031(15)
N1C N 0.77031(15) 1.53773(19) 1.22969(15)
N1X N 1.27031(15) 0.96227(19) 1.27031(15)
N1Y N 0.72969(15) 1.03773(19) 1.27031(15)
N1Z N 0.72969(15) 0.96227(19) 0.72969(15)
N1AA N 1.27031(15) 1.03773(19) 0.72969(15)
N1BA N 1.27031(15) 1.27031(15) 0.96227(19)
N1CA N 1.27031(15) 0.72969(15) 1.03773(19)
N1DA N 0.72969(15) 0.72969(15) 0.96227(19)
N1EA N 0.72969(15) 1.27031(15) 1.03773(19)
N1FA N 0.96227(19) 1.27031(15) 1.27031(15)
N1GA N 1.03773(19) 1.27031(15) 0.72969(15)
N1HA N 0.96227(19) 0.72969(15) 0.72969(15)
N1IA N 1.03773(19) 0.72969(15) 1.27031(15)
C1T C 0.7408(2) 0.4920(2) 0.81546(19)
C1B C 1.18454(19) 0.4920(2) 1.2592(2)
C1V C 1.2592(2) 0.4920(2) 1.18454(19)
C1D C 0.7408(2) 0.81546(19) 0.4920(2)
C1P C 0.81546(19) 0.7408(2) 0.4920(2)
C1E C 0.7408(2) 1.18454(19) 1.5080(2)
C1S C 0.81546(19) 1.2592(2) 1.5080(2)
C1F C 1.2592(2) 1.18454(19) 0.4920(2)
C1R C 1.18454(19) 1.2592(2) 0.4920(2)
C1G C 1.2592(2) 0.81546(19) 1.5080(2)
C1Q C 1.18454(19) 0.7408(2) 1.5080(2)
C1H C 0.4920(2) 0.7408(2) 0.81546(19)
C1L C 0.4920(2) 0.81546(19) 0.7408(2)
C1I C 1.5080(2) 0.7408(2) 1.18454(19)
C1O C 1.5080(2) 0.81546(19) 1.2592(2)
C1J C 0.4920(2) 1.2592(2) 1.18454(19)
C1N C 0.4920(2) 1.18454(19) 1.2592(2)
C1K C 1.5080(2) 1.2592(2) 0.81546(19)
C1M C 1.5080(2) 1.18454(19) 0.7408(2)
C1A C 1.18454(19) 1.5080(2) 0.7408(2)
C1W C 1.2592(2) 1.5080(2) 0.81546(19)
C1C C 0.81546(19) 1.5080(2) 1.2592(2)
C1U C 0.7408(2) 1.5080(2) 1.18454(19)
H1T H 0.7096 0.4708 0.8381
H1B H 1.1619 0.4708 1.2904
H1V H 1.2904 0.4708 1.1619
H1D H 0.7096 0.8381 0.4708
H1P H 0.8381 0.7096 0.4708
H1E H 0.7096 1.1619 1.5292
H1S H 0.8381 1.2904 1.5292
H1F H 1.2904 1.1619 0.4708
H1R H 1.1619 1.2904 0.4708
H1G H 1.2904 0.8381 1.5292
H1Q H 1.1619 0.7096 1.5292
H1H H 0.4708 0.7096 0.8381
H1L H 0.4708 0.8381 0.7096
H1I H 1.5292 0.7096 1.1619
H1O H 1.5292 0.8381 1.2904
H1J H 0.4708 1.2904 1.1619
H1N H 0.4708 1.1619 1.2904
H1K H 1.5292 1.2904 0.8381
H1M H 1.5292 1.1619 0.7096
H1A H 1.1619 1.5292 0.7096
H1W H 1.2904 1.5292 0.8381
H1C H 0.8381 1.5292 1.2904
H1U H 0.7096 1.5292 1.1619
C2T C 0.7542(2) 0.5526(2) 0.83039(19)
C2B C 1.16961(19) 0.5526(2) 1.2458(2)
C2V C 1.2458(2) 0.5526(2) 1.16961(19)
C2D C 0.7542(2) 0.83039(19) 0.5526(2)
C2P C 0.83039(19) 0.7542(2) 0.5526(2)
C2E C 0.7542(2) 1.16961(19) 1.4474(2)
C2S C 0.83039(19) 1.2458(2) 1.4474(2)
C2F C 1.2458(2) 1.16961(19) 0.5526(2)
C2R C 1.16961(19) 1.2458(2) 0.5526(2)
C2G C 1.2458(2) 0.83039(19) 1.4474(2)
C2Q C 1.16961(19) 0.7542(2) 1.4474(2)
C2H C 0.5526(2) 0.7542(2) 0.83039(19)
C2L C 0.5526(2) 0.83039(19) 0.7542(2)
C2I C 1.4474(2) 0.7542(2) 1.16961(19)
C2O C 1.4474(2) 0.83039(19) 1.2458(2)
C2J C 0.5526(2) 1.2458(2) 1.16961(19)
C2N C 0.5526(2) 1.16961(19) 1.2458(2)
C2K C 1.4474(2) 1.2458(2) 0.83039(19)
C2M C 1.4474(2) 1.16961(19) 0.7542(2)
C2A C 1.16961(19) 1.4474(2) 0.7542(2)
C2W C 1.2458(2) 1.4474(2) 0.83039(19)
C2C C 0.83039(19) 1.4474(2) 1.2458(2)
C2U C 0.7542(2) 1.4474(2) 1.16961(19)
H2T H 0.7318 0.5725 0.8625
H2B H 1.1375 0.5725 1.2682
H2V H 1.2682 0.5725 1.1375
H2D H 0.7318 0.8625 0.5725
H2P H 0.8625 0.7318 0.5725
H2E H 0.7318 1.1375 1.4275
H2S H 0.8625 1.2682 1.4275
H2F H 1.2682 1.1375 0.5725
H2R H 1.1375 1.2682 0.5725
H2G H 1.2682 0.8625 1.4275
H2Q H 1.1375 0.7318 1.4275
H2H H 0.5725 0.7318 0.8625
H2L H 0.5725 0.8625 0.7318
H2I H 1.4275 0.7318 1.1375
H2O H 1.4275 0.8625 1.2682
H2J H 0.5725 1.2682 1.1375
H2N H 0.5725 1.1375 1.2682
H2K H 1.4275 1.2682 0.8625
H2M H 1.4275 1.1375 0.7318
H2A H 1.1375 1.4275 0.7318
H2W H 1.2682 1.4275 0.8625
H2C H 0.8625 1.4275 1.2682
H2U H 0.7318 1.4275 1.1375
C3B C 1.20043(17) 0.5845(3) 1.20043(17)
C3D C 0.79957(17) 0.79957(17) 0.5845(3)
C3E C 0.79957(17) 1.20043(17) 1.4155(3)
C3F C 1.20043(17) 1.20043(17) 0.5845(3)
C3G C 1.20043(17) 0.79957(17) 1.4155(3)
C3H C 0.5845(3) 0.79957(17) 0.79957(17)
C3I C 1.4155(3) 0.79957(17) 1.20043(17)
C3J C 0.5845(3) 1.20043(17) 1.20043(17)
C3K C 1.4155(3) 1.20043(17) 0.79957(17)
C3A C 1.20043(17) 1.4155(3) 0.79957(17)
C3C C 0.79957(17) 1.4155(3) 1.20043(17)
C4B C 1.19121(19) 0.6524(3) 1.19121(19)
C4D C 0.80879(19) 0.80879(19) 0.6524(3)
C4E C 0.80879(19) 1.19121(19) 1.3476(3)
C4F C 1.19121(19) 1.19121(19) 0.6524(3)
C4G C 1.19121(19) 0.80879(19) 1.3476(3)
C4H C 0.6524(3) 0.80879(19) 0.80879(19)
C4I C 1.3476(3) 0.80879(19) 1.19121(19)
C4J C 0.6524(3) 1.19121(19) 1.19121(19)
C4K C 1.3476(3) 1.19121(19) 0.80879(19)
C4A C 1.19121(19) 1.3476(3) 0.80879(19)
C4C C 0.80879(19) 1.3476(3) 1.19121(19)
C5B C 1.0949(2) 0.7539(3) 1.0949(2)
C5D C 0.9051(2) 0.9051(2) 0.7539(3)
C5F C 1.0949(2) 1.0949(2) 0.7539(3)
C5E C 0.9051(2) 1.0949(2) 1.2461(3)
C5G C 1.0949(2) 0.9051(2) 1.2461(3)
C5H C 0.7539(3) 0.9051(2) 0.9051(2)
C5J C 0.7539(3) 1.0949(2) 1.0949(2)
C5I C 1.2461(3) 0.9051(2) 1.0949(2)
C5K C 1.2461(3) 1.0949(2) 0.9051(2)
C5A C 1.0949(2) 1.2461(3) 0.9051(2)
C5C C 0.9051(2) 1.2461(3) 1.0949(2)
C6B C 1.0462(2) 0.7444(3) 1.0462(2)
C6D C 0.9538(2) 0.9538(2) 0.7444(3)
C6F C 1.0462(2) 1.0462(2) 0.7444(3)
C6E C 0.9538(2) 1.0462(2) 1.2556(3)
C6G C 1.0462(2) 0.9538(2) 1.2556(3)
C6H C 0.7444(3) 0.9538(2) 0.9538(2)
C6J C 0.7444(3) 1.0462(2) 1.0462(2)
C6I C 1.2556(3) 0.9538(2) 1.0462(2)
C6K C 1.2556(3) 1.0462(2) 0.9538(2)
C6A C 1.0462(2) 1.2556(3) 0.9538(2)
C6C C 0.9538(2) 1.2556(3) 1.0462(2)
C7T C 0.9385(2) 0.7442(3) 1.0147(3)
C7V C 1.0615(2) 0.7442(3) 0.9853(3)
C7B C 0.9853(3) 0.7442(3) 1.0615(2)
C7D C 0.9385(2) 1.0147(3) 0.7442(3)
C7P C 1.0147(3) 0.9385(2) 0.7442(3)
C7R C 0.9853(3) 1.0615(2) 0.7442(3)
C7F C 1.0615(2) 0.9853(3) 0.7442(3)
C7E C 0.9385(2) 0.9853(3) 1.2558(3)
C7S C 1.0147(3) 1.0615(2) 1.2558(3)
C7Q C 0.9853(3) 0.9385(2) 1.2558(3)
C7G C 1.0615(2) 1.0147(3) 1.2558(3)
C7H C 0.7442(3) 0.9385(2) 1.0147(3)
C7L C 0.7442(3) 1.0147(3) 0.9385(2)
C7N C 0.7442(3) 0.9853(3) 1.0615(2)
C7J C 0.7442(3) 1.0615(2) 0.9853(3)
C7I C 1.2558(3) 0.9385(2) 0.9853(3)
C7O C 1.2558(3) 1.0147(3) 1.0615(2)
C7M C 1.2558(3) 0.9853(3) 0.9385(2)
C7K C 1.2558(3) 1.0615(2) 1.0147(3)
C7A C 0.9853(3) 1.2558(3) 0.9385(2)
C7W C 1.0615(2) 1.2558(3) 1.0147(3)
C7U C 0.9385(2) 1.2558(3) 0.9853(3)
C7C C 1.0147(3) 1.2558(3) 1.0615(2)
H3T H 0.8962 0.7441 1.0264
H3V H 1.1038 0.7441 0.9736
H3B H 0.9736 0.7441 1.1038
H3D H 0.8962 1.0264 0.7441
H3P H 1.0264 0.8962 0.7441
H3R H 0.9736 1.1038 0.7441
H3F H 1.1038 0.9736 0.7441
H3E H 0.8962 0.9736 1.2559
H3S H 1.0264 1.1038 1.2559
H3Q H 0.9736 0.8962 1.2559
H3G H 1.1038 1.0264 1.2559
H3H H 0.7441 0.8962 1.0264
H3L H 0.7441 1.0264 0.8962
H3N H 0.7441 0.9736 1.1038
H3J H 0.7441 1.1038 0.9736
H3I H 1.2559 0.8962 0.9736
H3O H 1.2559 1.0264 1.1038
H3M H 1.2559 0.9736 0.8962
H3K H 1.2559 1.1038 1.0264
H3A H 0.9736 1.2559 0.8962
H3W H 1.1038 1.2559 1.0264
H3U H 0.8962 1.2559 0.9736
H3C H 1.0264 1.2559 1.1038
loop_
_geom_bond_atom_site_label_1
_geom_bond_atom_site_label_2
_geom_bond_site_symmetry_1
_geom_bond_site_symmetry_2
Ni1 O1 1_555 1_555
O1 Ni1D 1_555 1_555
O2 Ni1 1_555 1_555
O3 Ni1 1_555 1_555
N1 C1 1_555 1_555
C1 H1 1_555 1_555
C2 C1 1_555 1_555
H2 C2 1_555 1_555
C3 C2 1_555 1_555
C4 O2 1_555 1_555
C5 O3 1_555 1_555
C6 C5 1_555 1_555
C7 C6 1_555 1_555
H3 C7 1_555 1_555
Ni1B O1B 1_555 1_555
Ni1D O2D 1_555 1_555
Ni1E O1C 1_555 1_555
Ni1F O1A 1_555 1_555
Ni1G O1B 1_555 1_555
Ni1H O1 1_555 1_555
Ni1I O1B 1_555 1_555
Ni1J O1C 1_555 1_555
Ni1K O1A 1_555 1_555
Ni1A O1A 1_555 1_555
Ni1C O1C 1_555 1_555
Ni1X N1J 1_555 1_555
Ni1Y N1I 1_555 1_555
Ni1Z N1K 1_555 1_555
Ni1AA N1H 1_555 1_555
Ni1BA N1B 1_555 1_555
Ni1CA N1A 1_555 1_555
Ni1DA N1C 1_555 1_555
Ni1EA N1 1_555 1_555
Ni1FA N1F 1_555 1_555
Ni1GA N1E 1_555 1_555
Ni1HA N1G 1_555 1_555
Ni1IA N1D 1_555 1_555
O2T C4 1_555 1_555
O2B Ni1B 1_555 1_555
O2V Ni1I 1_555 1_555
O2D C4D 1_555 1_555
O2P Ni1 1_555 1_555
O2E Ni1E 1_555 1_555
O2S Ni1C 1_555 1_555
O2F Ni1F 1_555 1_555
O2R Ni1A 1_555 1_555
O2G Ni1G 1_555 1_555
O2Q Ni1B 1_555 1_555
O2H Ni1H 1_555 1_555
O2L Ni1D 1_555 1_555
O2I Ni1I 1_555 1_555
O2O Ni1G 1_555 1_555
O2J Ni1J 1_555 1_555
O2N Ni1E 1_555 1_555
O2K Ni1K 1_555 1_555
O2M Ni1F 1_555 1_555
O2A Ni1A 1_555 1_555
O2W Ni1K 1_555 1_555
O2C Ni1C 1_555 1_555
O2U Ni1J 1_555 1_555
O3T C5 1_555 1_555
O3V Ni1I 1_555 1_555
O3B Ni1B 1_555 1_555
O3D Ni1D 1_555 1_555
O3P Ni1 1_555 1_555
O3R Ni1A 1_555 1_555
O3F Ni1F 1_555 1_555
O3E Ni1E 1_555 1_555
O3S Ni1C 1_555 1_555
O3Q Ni1B 1_555 1_555
O3G Ni1G 1_555 1_555
O3H Ni1H 1_555 1_555
O3L Ni1D 1_555 1_555
O3N Ni1E 1_555 1_555
O3J Ni1J 1_555 1_555
O3I Ni1I 1_555 1_555
O3O Ni1G 1_555 1_555
O3M Ni1F 1_555 1_555
O3K Ni1K 1_555 1_555
O3A Ni1A 1_555 1_555
O3W Ni1K 1_555 1_555
O3U Ni1J 1_555 1_555
O3C Ni1C 1_555 1_555
N1B C1B 1_555 1_555
N1D C1D 1_555 1_555
N1E C1E 1_555 1_555
N1F C1F 1_555 1_555
N1G C1G 1_555 1_555
N1H C1H 1_555 1_555
N1I C1I 1_555 1_555
N1J C1J 1_555 1_555
N1K C1K 1_555 1_555
N1A C1A 1_555 1_555
N1C C1C 1_555 1_555
N1X Ni1G 1_555 1_555
N1Y Ni1E 1_555 1_555
N1Z Ni1D 1_555 1_555
N1AA Ni1F 1_555 1_555
N1BA Ni1K 1_555 1_555
N1CA Ni1I 1_555 1_555
N1DA Ni1H 1_555 1_555
N1EA Ni1J 1_555 1_555
N1FA Ni1C 1_555 1_555
N1GA Ni1A 1_555 1_555
N1HA Ni1 1_555 1_555
N1IA Ni1B 1_555 1_555
C1T N1 1_555 1_555
C1B H1B 1_555 1_555
C1V N1B 1_555 1_555
C1D H1D 1_555 1_555
C1P N1D 1_555 1_555
C1E H1E 1_555 1_555
C1S N1E 1_555 1_555
C1F H1F 1_555 1_555
C1R N1F 1_555 1_555
C1G H1G 1_555 1_555
C1Q N1G 1_555 1_555
C1H H1H 1_555 1_555
C1L N1H 1_555 1_555
C1I H1I 1_555 1_555
C1O N1I 1_555 1_555
C1J H1J 1_555 1_555
C1N N1J 1_555 1_555
C1K H1K 1_555 1_555
C1M N1K 1_555 1_555
C1A H1A 1_555 1_555
C1W N1A 1_555 1_555
C1C H1C 1_555 1_555
C1U N1C 1_555 1_555
H1T C1T 1_555 1_555
H1V C1V 1_555 1_555
H1P C1P 1_555 1_555
H1S C1S 1_555 1_555
H1R C1R 1_555 1_555
H1Q C1Q 1_555 1_555
H1L C1L 1_555 1_555
H1O C1O 1_555 1_555
H1N C1N 1_555 1_555
H1M C1M 1_555 1_555
H1W C1W 1_555 1_555
H1U C1U 1_555 1_555
C2T C3 1_555 1_555
C2B C1B 1_555 1_555
C2V C1V 1_555 1_555
C2D C1D 1_555 1_555
C2P C1P 1_555 1_555
C2E C1E 1_555 1_555
C2S C1S 1_555 1_555
C2F C1F 1_555 1_555
C2R C1R 1_555 1_555
C2G C1G 1_555 1_555
C2Q C1Q 1_555 1_555
C2H C1H 1_555 1_555
C2L C1L 1_555 1_555
C2I C1I 1_555 1_555
C2O C1O 1_555 1_555
C2J C1J 1_555 1_555
C2N C1N 1_555 1_555
C2K C1K 1_555 1_555
C2M C1M 1_555 1_555
C2A C1A 1_555 1_555
C2W C1W 1_555 1_555
C2C C1C 1_555 1_555
C2U C1U 1_555 1_555
H2T C2T 1_555 1_555
H2B C2B 1_555 1_555
H2V C2V 1_555 1_555
H2D C2D 1_555 1_555
H2P C2P 1_555 1_555
H2E C2E 1_555 1_555
H2S C2S 1_555 1_555
H2F C2F 1_555 1_555
H2R C2R 1_555 1_555
H2G C2G 1_555 1_555
H2Q C2Q 1_555 1_555
H2H C2H 1_555 1_555
H2L C2L 1_555 1_555
H2I C2I 1_555 1_555
H2O C2O 1_555 1_555
H2J C2J 1_555 1_555
H2N C2N 1_555 1_555
H2K C2K 1_555 1_555
H2M C2M 1_555 1_555
H2A C2A 1_555 1_555
H2W C2W 1_555 1_555
H2C C2C 1_555 1_555
H2U C2U 1_555 1_555
C3B C2B 1_555 1_555
C3D C2D 1_555 1_555
C3E C2E 1_555 1_555
C3F C2F 1_555 1_555
C3G C2G 1_555 1_555
C3H C2H 1_555 1_555
C3I C2I 1_555 1_555
C3J C2J 1_555 1_555
C3K C2K 1_555 1_555
C3A C2A 1_555 1_555
C3C C2C 1_555 1_555
C4B O2B 1_555 1_555
C4D O2P 1_555 1_555
C4E O2E 1_555 1_555
C4F O2F 1_555 1_555
C4G O2G 1_555 1_555
C4H O2H 1_555 1_555
C4I O2I 1_555 1_555
C4J O2J 1_555 1_555
C4K O2K 1_555 1_555
C4A O2A 1_555 1_555
C4C O2C 1_555 1_555
C5B O3V 1_555 1_555
C5D O3D 1_555 1_555
C5F O3R 1_555 1_555
C5E O3E 1_555 1_555
C5G O3Q 1_555 1_555
C5H O3H 1_555 1_555
C5J O3N 1_555 1_555
C5I O3I 1_555 1_555
C5K O3M 1_555 1_555
C5A O3A 1_555 1_555
C5C O3U 1_555 1_555
C6B C5B 1_555 1_555
C6D C5D 1_555 1_555
C6F C5F 1_555 1_555
C6E C5E 1_555 1_555
C6G C5G 1_555 1_555
C6H C5H 1_555 1_555
C6J C5J 1_555 1_555
C6I C5I 1_555 1_555
C6K C5K 1_555 1_555
C6A C5A 1_555 1_555
C6C C5C 1_555 1_555
C7T C6 1_555 1_555
C7V C7 1_555 1_555
C7B C6B 1_555 1_555
C7D C6D 1_555 1_555
C7P C6D 1_555 1_555
C7R C6F 1_555 1_555
C7F C6F 1_555 1_555
C7E C6E 1_555 1_555
C7S C6E 1_555 1_555
C7Q C6G 1_555 1_555
C7G C6G 1_555 1_555
C7H C6H 1_555 1_555
C7L C6H 1_555 1_555
C7N C6J 1_555 1_555
C7J C6J 1_555 1_555
C7I C6I 1_555 1_555
C7O C6I 1_555 1_555
C7M C6K 1_555 1_555
C7K C6K 1_555 1_555
C7A C6A 1_555 1_555
C7W C6A 1_555 1_555
C7U C6C 1_555 1_555
C7C C6C 1_555 1_555
H3T C7T 1_555 1_555
H3V C7V 1_555 1_555
H3B C7B 1_555 1_555
H3D C7D 1_555 1_555
H3P C7P 1_555 1_555
H3R C7R 1_555 1_555
H3F C7F 1_555 1_555
H3E C7E 1_555 1_555
H3S C7S 1_555 1_555
H3Q C7Q 1_555 1_555
H3G C7G 1_555 1_555
H3H C7H 1_555 1_555
H3L C7L 1_555 1_555
H3N C7N 1_555 1_555
H3J C7J 1_555 1_555
H3I C7I 1_555 1_555
H3O C7O 1_555 1_555
H3M C7M 1_555 1_555
H3K C7K 1_555 1_555
H3A C7A 1_555 1_555
H3W C7W 1_555 1_555
H3U C7U 1_555 1_555
H3C C7C 1_555 1_555
C3 C4 1_555 1_555
Ni1H O2T 1_555 1_555
Ni1H O3T 1_555 1_555
O2V C4B 1_555 1_555
O2S C4E 1_555 1_555
O2R C4F 1_555 1_555
O2Q C4G 1_555 1_555
O2L C4H 1_555 1_555
O2O C4I 1_555 1_555
O2N C4J 1_555 1_555
O2M C4K 1_555 1_555
O2W C4A 1_555 1_555
O2U C4C 1_555 1_555
O3B C5B 1_555 1_555
O3P C5D 1_555 1_555
O3F C5F 1_555 1_555
O3S C5E 1_555 1_555
O3G C5G 1_555 1_555
O3L C5H 1_555 1_555
O3J C5J 1_555 1_555
O3O C5I 1_555 1_555
O3K C5K 1_555 1_555
O3W C5A 1_555 1_555
O3C C5C 1_555 1_555
C1T C2T 1_555 1_555
C2V C3B 1_555 1_555
C2P C3D 1_555 1_555
C2S C3E 1_555 1_555
C2R C3F 1_555 1_555
C2Q C3G 1_555 1_555
C2L C3H 1_555 1_555
C2O C3I 1_555 1_555
C2N C3J 1_555 1_555
C2M C3K 1_555 1_555
C2W C3A 1_555 1_555
C2U C3C 1_555 1_555
C3B C4B 1_555 1_555
C3D C4D 1_555 1_555
C3E C4E 1_555 1_555
C3F C4F 1_555 1_555
C3G C4G 1_555 1_555
C3H C4H 1_555 1_555
C3I C4I 1_555 1_555
C3J C4J 1_555 1_555
C3K C4K 1_555 1_555
C3A C4A 1_555 1_555
C3C C4C 1_555 1_555
C6B C7V 1_555 1_555
C7T C7B 1_555 1_555
C7D C7R 1_555 1_555
C7P C7F 1_555 1_555
C7E C7Q 1_555 1_555
C7S C7G 1_555 1_555
C7H C7N 1_555 1_555
C7L C7J 1_555 1_555
C7I C7M 1_555 1_555
C7O C7K 1_555 1_555
C7A C7U 1_555 1_555
C7W C7C 1_555 1_555

#END
