
#######################################################################
#
#                 Cambridge Crystallographic Data Centre
#                                CCDC 
#
#######################################################################
#
# If this CIF has been generated from an entry in the Cambridge 
# Structural Database, then it will include bibliographic, chemical, 
# crystal, experimental, refinement or atomic coordinate data resulting 
# from the CCDC's data processing and validation procedures.
#
#######################################################################

data_KARREA
_symmetry_cell_setting           tetragonal
_symmetry_space_group_name_H-M   'I 41/a'
_symmetry_Int_Tables_number      88
_space_group_name_Hall           '-I 4ad'
loop_
_symmetry_equiv_pos_site_id
_symmetry_equiv_pos_as_xyz
1 x,y,z
2 1/2+x,1/2+y,1/2+z
3 3/4-y,1/4+x,1/4+z
4 1/4-y,3/4+x,3/4+z
5 1/2-x,-y,1/2+z
6 -x,1/2-y,z
7 3/4+y,3/4-x,3/4+z
8 1/4+y,1/4-x,1/4+z
9 -x,-y,-z
10 1/2-x,1/2-y,1/2-z
11 1/4+y,3/4-x,3/4-z
12 3/4+y,1/4-x,1/4-z
13 1/2+x,y,1/2-z
14 x,1/2+y,-z
15 1/4-y,1/4+x,1/4-z
16 3/4-y,3/4+x,3/4-z
_cell_length_a                   21.569(11)
_cell_length_b                   21.569(11)
_cell_length_c                   3.845(1)
_cell_angle_alpha                90
_cell_angle_beta                 90
_cell_angle_gamma                90
_cell_volume                     1788.78
loop_
_atom_site_label
_atom_site_type_symbol
_atom_site_fract_x
_atom_site_fract_y
_atom_site_fract_z
Cu1 Cu 0.0000 0.2500 0.125
N1 N 0.0722(3) 0.2130(3) -0.1064(19)
N2 N 0.1733(3) 0.1797(2) -0.3368(18)
C1 C 0.2093(3) 0.2151(3) -0.5390(17)
C2 C 0.1943(3) 0.2767(3) -0.6401(19)
C3 C 0.2679(3) 0.1900(3) -0.6549(20)
C4 C 0.1207(3) 0.2011(3) -0.2207(20)
Br1 Br 0.2881(1) 0.1110(1) -0.5398(4)
N1E N -0.0722(3) 0.2870(3) -0.1064(19)
N1K N -0.0370(3) 0.1778(3) 0.3564(19)
N1N N 0.0370(3) 0.3222(3) 0.3564(19)
C3I C 0.2321(3) 0.3100(3) -0.8451(20)
C2I C 0.3057(3) 0.2233(3) -0.8599(19)
loop_
_geom_bond_atom_site_label_1
_geom_bond_atom_site_label_2
_geom_bond_site_symmetry_1
_geom_bond_site_symmetry_2
Cu1 N1 1_555 1_555
N1 C4 1_555 1_555
N2 C1 1_555 1_555
C1 C2 1_555 1_555
C2 C3I 1_555 1_555
C3 C1 1_555 1_555
C4 N2 1_555 1_555
Br1 C3 1_555 1_555
N1E Cu1 1_555 1_555
N1K Cu1 1_555 1_555
N1N Cu1 1_555 1_555
C2I C3 1_555 1_555

#END
