
#######################################################################
#
#                 Cambridge Crystallographic Data Centre
#                                CCDC 
#
#######################################################################
#
# If this CIF has been generated from an entry in the Cambridge 
# Structural Database, then it will include bibliographic, chemical, 
# crystal, experimental, refinement or atomic coordinate data resulting 
# from the CCDC's data processing and validation procedures.
#
#######################################################################

data_KARRUR
_symmetry_cell_setting           monoclinic
_symmetry_space_group_name_H-M   'P 21/n'
_symmetry_Int_Tables_number      14
_space_group_name_Hall           '-P 2yn'
loop_
_symmetry_equiv_pos_site_id
_symmetry_equiv_pos_as_xyz
1 x,y,z
2 1/2-x,1/2+y,1/2-z
3 -x,-y,-z
4 1/2+x,1/2-y,1/2+z
_cell_length_a                   10.826(3)
_cell_length_b                   13.348(4)
_cell_length_c                   27.504(8)
_cell_angle_alpha                90
_cell_angle_beta                 95.568(6)
_cell_angle_gamma                90
_cell_volume                     3955.73
loop_
_atom_site_label
_atom_site_type_symbol
_atom_site_fract_x
_atom_site_fract_y
_atom_site_fract_z
Mn1 Mn 0.51154(7) 0.56623(6) 0.23801(3)
O1 O 0.3248(3) 0.5021(3) 0.24133(14)
H1 H 0.2959 0.4947 0.2688
H2 H 0.2817 0.4848 0.2152
O2 O 0.4265(3) 0.7153(3) 0.23363(14)
H3 H 0.4153 0.7471 0.2596
H4 H 0.4046 0.7411 0.2059
N1 N 0.5253(4) 0.5790(3) 0.32100(15)
N2 N 0.5402(5) 0.6197(4) 0.47285(19)
N3 N 0.6384(5) 0.6053(4) 0.49692(19)
N4 N 0.6388(6) 0.6601(4) 0.6474(2)
N5 N 0.4794(4) 0.5527(3) 0.15543(16)
N6 N 0.3512(5) 0.5242(4) 0.00614(19)
N7 N 0.3316(5) 0.6014(4) -0.0158(2)
N8 N 0.1878(5) 0.5855(5) -0.1634(2)
N9 N 0.5839(4) 0.4150(4) 0.24811(19)
N10 N 0.6504(5) 0.2564(4) 0.28616(17)
N11 N 0.8119(4) 0.1423(4) 0.26516(18)
C1 C 0.4259(5) 0.6014(4) 0.3441(2)
H5 H 0.3498 0.6087 0.3256
C2 C 0.4309(5) 0.6141(5) 0.3935(2)
H6 H 0.3595 0.6298 0.4082
C3 C 0.5424(6) 0.6033(4) 0.4211(2)
C4 C 0.6466(5) 0.5785(4) 0.3983(2)
H7 H 0.7232 0.5697 0.4162
C5 C 0.6333(5) 0.5673(4) 0.3486(2)
H8 H 0.7031 0.5507 0.3331
C6 C 0.5366(6) 0.6704(6) 0.6179(2)
H9 H 0.4650 0.6900 0.6314
C7 C 0.5287(6) 0.6541(5) 0.5685(2)
H10 H 0.4545 0.6639 0.5491
C8 C 0.6326(6) 0.6234(4) 0.5488(2)
C9 C 0.7397(6) 0.6098(6) 0.5776(2)
H11 H 0.8116 0.5884 0.5648
C10 C 0.7382(7) 0.6292(6) 0.6273(3)
H12 H 0.8113 0.6199 0.6475
C11 C 0.4548(5) 0.4640(4) 0.1337(2)
H13 H 0.4653 0.4063 0.1526
C12 C 0.4150(5) 0.4540(5) 0.0851(2)
H14 H 0.3990 0.3909 0.0715
C13 C 0.3991(5) 0.5389(5) 0.0566(2)
C14 C 0.4288(6) 0.6316(5) 0.0778(2)
H15 H 0.4224 0.6901 0.0594
C15 C 0.4681(5) 0.6342(5) 0.1272(2)
H16 H 0.4877 0.6960 0.1415
C16 C 0.1955(6) 0.5016(5) -0.1359(2)
H17 H 0.1677 0.4417 -0.1503
C17 C 0.2427(5) 0.5003(5) -0.0874(2)
H18 H 0.2473 0.4409 -0.0696
C18 C 0.2822(5) 0.5885(5) -0.0664(2)
C19 C 0.2751(7) 0.6749(5) -0.0936(3)
H19 H 0.3010 0.7359 -0.0798
C20 C 0.2291(7) 0.6688(6) -0.1414(3)
H20 H 0.2266 0.7273 -0.1598
C21 C 0.6199(5) 0.3409(4) 0.26416(19)
C22 C 0.7372(5) 0.1992(4) 0.27280(17)
Mn1A Mn 0.98846(7) 1.06623(6) 0.26199(3)
Mn1A_2 Mn 0.98846(7) 0.06623(6) 0.26199(3)
O1A O 1.1752(3) 1.0021(3) 0.25867(14)
H1A H 1.2041 0.9947 0.2312
H2A H 1.2183 0.9848 0.2848
O2A O 1.0735(3) 1.2153(3) 0.26637(14)
H3A H 1.0847 1.2471 0.2404
H4A H 1.0954 1.2411 0.2941
N1A N 0.9747(4) 1.0790(3) 0.17900(15)
N2A N 0.9598(5) 1.1197(4) 0.02715(19)
N3A N 0.8616(5) 1.1053(4) 0.00308(19)
N4A N 0.8612(6) 1.1601(4) -0.1474(2)
N5A N 1.0206(4) 1.0527(3) 0.34457(16)
N6A N 1.1488(5) 1.0242(4) 0.49386(19)
N7A N 1.1684(5) 1.1014(4) 0.5158(2)
N8A N 1.3122(5) 1.0855(5) 0.6634(2)
N9A N 0.9161(4) 0.9150(4) 0.25189(19)
N10A N 0.8496(5) 0.7564(4) 0.21384(17)
N11A N 0.6881(4) 0.6423(4) 0.23484(18)
N11_2 N 0.8119(4) 1.1423(4) 0.26516(18)
C1A C 1.0741(5) 1.1014(4) 0.1559(2)
H5A H 1.1502 1.1087 0.1744
C2A C 1.0691(5) 1.1141(5) 0.1065(2)
H6A H 1.1405 1.1298 0.0918
C3A C 0.9576(6) 1.1033(4) 0.0789(2)
C4A C 0.8534(5) 1.0785(4) 0.1017(2)
H7A H 0.7768 1.0697 0.0838
C5A C 0.8667(5) 1.0673(4) 0.1514(2)
H8A H 0.7969 1.0507 0.1669
C6A C 0.9634(6) 1.1704(6) -0.1179(2)
H9A H 1.0350 1.1900 -0.1314
C7A C 0.9713(6) 1.1541(5) -0.0685(2)
H10A H 1.0455 1.1639 -0.0491
C8A C 0.8674(6) 1.1234(4) -0.0488(2)
C9A C 0.7603(6) 1.1098(6) -0.0776(2)
H11A H 0.6884 1.0884 -0.0648
C10A C 0.7618(7) 1.1292(6) -0.1273(3)
H12A H 0.6887 1.1199 -0.1475
C11A C 1.0452(5) 0.9640(4) 0.3663(2)
H13A H 1.0347 0.9063 0.3474
C12A C 1.0850(5) 0.9540(5) 0.4149(2)
H14A H 1.1010 0.8909 0.4285
C13A C 1.1009(5) 1.0389(5) 0.4434(2)
C14A C 1.0712(6) 1.1316(5) 0.4222(2)
H15A H 1.0776 1.1901 0.4406
C15A C 1.0319(5) 1.1342(5) 0.3728(2)
H16A H 1.0123 1.1960 0.3585
C16A C 1.3045(6) 1.0016(5) 0.6359(2)
H17A H 1.3323 0.9417 0.6503
C17A C 1.2573(5) 1.0003(5) 0.5874(2)
H18A H 1.2527 0.9409 0.5696
C18A C 1.2178(5) 1.0885(5) 0.5664(2)
C19A C 1.2249(7) 1.1749(5) 0.5936(3)
H19A H 1.1990 1.2359 0.5798
C20A C 1.2709(7) 1.1688(6) 0.6414(3)
H20A H 1.2734 1.2273 0.6598
C21A C 0.8801(5) 0.8409(4) 0.23584(19)
C22A C 0.7628(5) 0.6992(4) 0.22720(17)
N12 N 0.7347(6) 0.7519(5) 0.0700(3)
N13 N 0.5123(15) 0.9763(9) 0.0048(9)
C23 C 0.7101(8) 0.7587(7) 0.0218(4)
H21 H 0.7428 0.7101 0.0025
C24 C 0.6396(9) 0.8327(8) -0.0009(3)
H22 H 0.6275 0.8356 -0.0348
C25 C 0.5873(7) 0.9025(6) 0.0269(4)
C26 C 0.6073(7) 0.8949(6) 0.0764(3)
H23 H 0.5705 0.9396 0.0965
C27 C 0.6821(7) 0.8205(7) 0.0957(3)
H24 H 0.6975 0.8177 0.1296
N12B N 0.2653(6) 1.2481(5) -0.0700(3)
N13B N 0.4877(15) 1.0237(9) -0.0048(9)
C23B C 0.2899(8) 1.2413(7) -0.0218(4)
H21B H 0.2572 1.2899 -0.0025
C24B C 0.3604(9) 1.1673(8) 0.0009(3)
H22B H 0.3725 1.1644 0.0348
C25B C 0.4127(7) 1.0975(6) -0.0269(4)
C26B C 0.3927(7) 1.1051(6) -0.0764(3)
H23B H 0.4295 1.0604 -0.0965
C27B C 0.3179(7) 1.1795(7) -0.0957(3)
H24B H 0.3025 1.1823 -0.1296
N14 N 0.1593(5) 0.4894(5) 0.1575(2)
N15 N 0.0123(5) 0.4615(4) 0.0110(2)
C28 C 0.1370(7) 0.5704(6) 0.1300(3)
H25 H 0.1547 0.6325 0.1443
C29 C 0.0894(6) 0.5687(5) 0.0818(3)
H26 H 0.0768 0.6276 0.0640
C30 C 0.0609(5) 0.4771(5) 0.0607(2)
C31 C 0.0830(6) 0.3922(5) 0.0885(3)
H27 H 0.0660 0.3292 0.0751
C32 C 0.1313(7) 0.4024(6) 0.1370(3)
H28 H 0.1443 0.3448 0.1559
N14B N -0.1593(5) 0.5106(5) -0.1575(2)
N15B N -0.0123(5) 0.5385(4) -0.0110(2)
C28B C -0.1370(7) 0.4296(6) -0.1300(3)
H25B H -0.1547 0.3675 -0.1443
C29B C -0.0894(6) 0.4313(5) -0.0818(3)
H26B H -0.0768 0.3724 -0.0640
C30B C -0.0609(5) 0.5229(5) -0.0607(2)
C31B C -0.0830(6) 0.6078(5) -0.0885(3)
H27B H -0.0660 0.6708 -0.0751
C32B C -0.1313(7) 0.5976(6) -0.1370(3)
H28B H -0.1443 0.6552 -0.1559
Cl1 Cl 0.04378(17) 0.64141(16) 0.34593(8)
O3 O 0.1479(12) 0.6824(15) 0.3742(6)
O4 O -0.0500(12) 0.6392(13) 0.3801(5)
O5 O 0.0024(12) 0.7094(10) 0.3100(4)
O6 O 0.074(2) 0.5420(9) 0.3330(9)
O11 O 0.1925(4) 0.7822(4) 0.24449(16)
H29 H 0.1598 0.8153 0.2197
H30 H 0.1783 0.7192 0.2440
O12 O 0.5597(5) 0.8896(4) 0.2400(2)
H31 H 0.5351 0.9487 0.2308
H32 H 0.6121 0.8887 0.2653
O7? O 0.107(2) 0.7305(12) 0.3648(10)
O8? O -0.0804(9) 0.6287(17) 0.3519(7)
O9? O 0.0753(17) 0.6242(16) 0.2967(4)
O10? O 0.1220(11) 0.5723(10) 0.3728(5)
loop_
_geom_bond_atom_site_label_1
_geom_bond_atom_site_label_2
_geom_bond_site_symmetry_1
_geom_bond_site_symmetry_2
Mn1 O1 1_555 1_555
O1 H1 1_555 1_555
H2 O1 1_555 1_555
O2 Mn1 1_555 1_555
H3 O2 1_555 1_555
H4 O2 1_555 1_555
N1 Mn1 1_555 1_555
N2 N3 1_555 1_555
N3 C8 1_555 1_555
N4 C6 1_555 1_555
N5 Mn1 1_555 1_555
N6 N7 1_555 1_555
N7 C18 1_555 1_555
N8 C16 1_555 1_555
N9 Mn1 1_555 1_555
N10 C21 1_555 1_555
N11 C22 1_555 1_555
N12 C23 1_555 1_555
N13 C25 1_555 1_555
N14 C28 1_555 1_555
N15 C30 1_555 1_555
C1 N1 1_555 1_555
H5 C1 1_555 1_555
C2 C1 1_555 1_555
H6 C2 1_555 1_555
C3 N2 1_555 1_555
C4 C3 1_555 1_555
H7 C4 1_555 1_555
C5 N1 1_555 1_555
H8 C5 1_555 1_555
C6 H9 1_555 1_555
C7 C6 1_555 1_555
H10 C7 1_555 1_555
C8 C7 1_555 1_555
C9 C8 1_555 1_555
H11 C9 1_555 1_555
C10 N4 1_555 1_555
H12 C10 1_555 1_555
C11 N5 1_555 1_555
H13 C11 1_555 1_555
C12 C11 1_555 1_555
H14 C12 1_555 1_555
C13 N6 1_555 1_555
C14 C13 1_555 1_555
H15 C14 1_555 1_555
C15 N5 1_555 1_555
H16 C15 1_555 1_555
C16 H17 1_555 1_555
C17 C16 1_555 1_555
H18 C17 1_555 1_555
C18 C17 1_555 1_555
C19 C18 1_555 1_555
H19 C19 1_555 1_555
C20 N8 1_555 1_555
H20 C20 1_555 1_555
C21 N9 1_555 1_555
C22 N10 1_555 1_555
C23 H21 1_555 1_555
C24 C23 1_555 1_555
H22 C24 1_555 1_555
C25 C24 1_555 1_555
C26 C25 1_555 1_555
H23 C26 1_555 1_555
C27 N12 1_555 1_555
H24 C27 1_555 1_555
C28 H25 1_555 1_555
C29 C28 1_555 1_555
H26 C29 1_555 1_555
C30 C29 1_555 1_555
C31 C30 1_555 1_555
H27 C31 1_555 1_555
C32 N14 1_555 1_555
H28 C32 1_555 1_555
Cl1 O3 1_555 1_555
O4 Cl1 1_555 1_555
O5 Cl1 1_555 1_555
O6 Cl1 1_555 1_555
O11 H29 1_555 1_555
H30 O11 1_555 1_555
O12 H31 1_555 1_555
H32 O12 1_555 1_555
Mn1A O1A 1_555 1_555
Mn1A_2 N11 1_555 1_555
O1A H1A 1_555 1_555
H2A O1A 1_555 1_555
O2A Mn1A 1_555 1_555
H3A O2A 1_555 1_555
H4A O2A 1_555 1_555
N1A Mn1A 1_555 1_555
N2A N3A 1_555 1_555
N3A C8A 1_555 1_555
N4A C6A 1_555 1_555
N5A Mn1A 1_555 1_555
N6A N7A 1_555 1_555
N7A C18A 1_555 1_555
N8A C16A 1_555 1_555
N9A Mn1A 1_555 1_555
N10A C21A 1_555 1_555
N11A Mn1 1_555 1_555
N11_2 Mn1A 1_555 1_555
N12B C23B 1_555 1_555
N13B N13 1_555 1_555
N14B C28B 1_555 1_555
N15B N15 1_555 1_555
C1A N1A 1_555 1_555
H5A C1A 1_555 1_555
C2A C1A 1_555 1_555
H6A C2A 1_555 1_555
C3A N2A 1_555 1_555
C4A C3A 1_555 1_555
H7A C4A 1_555 1_555
C5A N1A 1_555 1_555
H8A C5A 1_555 1_555
C6A H9A 1_555 1_555
C7A C6A 1_555 1_555
H10A C7A 1_555 1_555
C8A C7A 1_555 1_555
C9A C8A 1_555 1_555
H11A C9A 1_555 1_555
C10A N4A 1_555 1_555
H12A C10A 1_555 1_555
C11A N5A 1_555 1_555
H13A C11A 1_555 1_555
C12A C11A 1_555 1_555
H14A C12A 1_555 1_555
C13A N6A 1_555 1_555
C14A C13A 1_555 1_555
H15A C14A 1_555 1_555
C15A N5A 1_555 1_555
H16A C15A 1_555 1_555
C16A H17A 1_555 1_555
C17A C16A 1_555 1_555
H18A C17A 1_555 1_555
C18A C17A 1_555 1_555
C19A C18A 1_555 1_555
H19A C19A 1_555 1_555
C20A N8A 1_555 1_555
H20A C20A 1_555 1_555
C21A N9A 1_555 1_555
C22A N10A 1_555 1_555
C23B H21B 1_555 1_555
C24B C23B 1_555 1_555
H22B C24B 1_555 1_555
C25B N13B 1_555 1_555
C26B C25B 1_555 1_555
H23B C26B 1_555 1_555
C27B N12B 1_555 1_555
H24B C27B 1_555 1_555
C28B H25B 1_555 1_555
C29B C28B 1_555 1_555
H26B C29B 1_555 1_555
C30B N15B 1_555 1_555
C31B C30B 1_555 1_555
H27B C31B 1_555 1_555
C32B N14B 1_555 1_555
H28B C32B 1_555 1_555
C2 C3 1_555 1_555
C4 C5 1_555 1_555
C9 C10 1_555 1_555
C12 C13 1_555 1_555
C14 C15 1_555 1_555
C19 C20 1_555 1_555
C26 C27 1_555 1_555
C31 C32 1_555 1_555
N11A C22A 1_555 1_555
C2A C3A 1_555 1_555
C4A C5A 1_555 1_555
C9A C10A 1_555 1_555
C12A C13A 1_555 1_555
C14A C15A 1_555 1_555
C19A C20A 1_555 1_555
C24B C25B 1_555 1_555
C26B C27B 1_555 1_555
C29B C30B 1_555 1_555
C31B C32B 1_555 1_555

#END
