
#######################################################################
#
#                 Cambridge Crystallographic Data Centre
#                                CCDC 
#
#######################################################################
#
# If this CIF has been generated from an entry in the Cambridge 
# Structural Database, then it will include bibliographic, chemical, 
# crystal, experimental, refinement or atomic coordinate data resulting 
# from the CCDC's data processing and validation procedures.
#
#######################################################################

data_KARSEC
_symmetry_cell_setting           triclinic
_symmetry_space_group_name_H-M   'P -1'
_symmetry_Int_Tables_number      2
_space_group_name_Hall           '-P 1'
loop_
_symmetry_equiv_pos_site_id
_symmetry_equiv_pos_as_xyz
1 x,y,z
2 -x,-y,-z
_cell_length_a                   7.221(2)
_cell_length_b                   9.639(3)
_cell_length_c                   12.996(4)
_cell_angle_alpha                74.585(5)
_cell_angle_beta                 84.544(5)
_cell_angle_gamma                68.849(5)
_cell_volume                     813.276
loop_
_atom_site_label
_atom_site_type_symbol
_atom_site_fract_x
_atom_site_fract_y
_atom_site_fract_z
Cd1 Cd 0.5000 0.5000 0.0000
Ag1 Ag 0.78859(6) -0.05228(4) -0.04849(3)
N1 N 0.4827(6) 0.2809(5) -0.0415(3)
N2 N 0.1657(6) 0.6445(5) -0.0451(4)
N3 N 0.4118(5) 0.4140(4) 0.1747(3)
N4 N 0.3673(5) 0.1644(4) 0.5754(3)
N5 N 0.0558(5) 0.2570(4) 0.5237(3)
O1 O 0.5563(5) 0.1156(5) 0.5730(3)
O2 O -0.1007(5) 0.3288(4) 0.4670(3)
C1 C 0.5832(7) 0.1619(6) -0.0479(4)
C2 C 0.0276(7) 0.7502(6) -0.0483(4)
C3 C 0.2487(7) 0.3748(5) 0.1944(4)
H1 H 0.1716 0.3880 0.1368
C4 C 0.1898(7) 0.3163(5) 0.2952(4)
H2 H 0.0755 0.2911 0.3050
C5 C 0.3036(6) 0.2955(5) 0.3826(3)
C6 C 0.4723(6) 0.3357(5) 0.3628(4)
H3 H 0.5526 0.3230 0.4190
C7 C 0.5198(7) 0.3949(5) 0.2590(4)
H4 H 0.6321 0.4228 0.2470
C8 C 0.2437(6) 0.2393(5) 0.4905(3)
C9 C 0.2541(7) 0.1586(5) 0.6776(3)
C10 C 0.0506(7) 0.1705(5) 0.6391(3)
C11 C 0.3579(8) 0.0123(6) 0.7602(4)
H5 H 0.3840 -0.0743 0.7308
H6 H 0.2747 0.0036 0.8219
H7 H 0.4810 0.0149 0.7802
C12 C 0.2465(8) 0.2991(6) 0.7134(4)
H8 H 0.3793 0.2942 0.7226
H9 H 0.1762 0.3008 0.7798
H10 H 0.1794 0.3906 0.6603
C13 C 0.0394(8) 0.0165(6) 0.6363(4)
H11 H -0.0807 0.0336 0.6011
H12 H 0.0403 -0.0448 0.7079
H13 H 0.1517 -0.0361 0.5981
C14 C -0.1311(7) 0.2605(6) 0.6933(4)
H14 H -0.1277 0.3608 0.6881
H15 H -0.1320 0.2075 0.7670
H16 H -0.2487 0.2704 0.6589
Ag1A Ag 0.21141(6) 1.05228(4) 0.04849(3)
Ag1_2 Ag -0.21141(6) 0.94772(4) -0.04849(3)
Ag1A_2 Ag 1.21141(6) 0.05228(4) 0.04849(3)
N1A N 0.5173(6) 0.7191(5) 0.0415(3)
N2A N 0.8343(6) 0.3555(5) 0.0451(4)
N3A N 0.5882(5) 0.5860(4) -0.1747(3)
N4A N 0.6327(5) 0.8356(4) -0.5754(3)
N5A N 0.9442(5) 0.7430(4) -0.5237(3)
O1A O 0.4437(5) 0.8844(5) -0.5730(3)
O2A O 1.1007(5) 0.6712(4) -0.4670(3)
C1A C 0.4168(7) 0.8381(6) 0.0479(4)
C2A C 0.9724(7) 0.2498(6) 0.0483(4)
C2_2 C 1.0276(7) -0.2498(6) -0.0483(4)
C2A_2 C -0.0276(7) 1.2498(6) 0.0483(4)
C3A C 0.7513(7) 0.6252(5) -0.1944(4)
H1A H 0.8284 0.6120 -0.1368
C4A C 0.8102(7) 0.6837(5) -0.2952(4)
H2A H 0.9245 0.7089 -0.3050
C5A C 0.6964(6) 0.7045(5) -0.3826(3)
C6A C 0.5277(6) 0.6643(5) -0.3628(4)
H3A H 0.4474 0.6770 -0.4190
C7A C 0.4802(7) 0.6051(5) -0.2590(4)
H4A H 0.3679 0.5772 -0.2470
C8A C 0.7563(6) 0.7607(5) -0.4905(3)
C9A C 0.7459(7) 0.8414(5) -0.6776(3)
C10A C 0.9494(7) 0.8295(5) -0.6391(3)
C11A C 0.6421(8) 0.9877(6) -0.7602(4)
H5A H 0.6160 1.0743 -0.7308
H6A H 0.7253 0.9964 -0.8219
H7A H 0.5190 0.9851 -0.7802
C12A C 0.7535(8) 0.7009(6) -0.7134(4)
H8A H 0.6207 0.7058 -0.7226
H9A H 0.8238 0.6992 -0.7798
H10A H 0.8206 0.6094 -0.6603
C13A C 0.9606(8) 0.9835(6) -0.6363(4)
H11A H 1.0807 0.9664 -0.6011
H12A H 0.9597 1.0448 -0.7079
H13A H 0.8483 1.0361 -0.5981
C14A C 1.1311(7) 0.7395(6) -0.6933(4)
H14A H 1.1277 0.6392 -0.6881
H15A H 1.1320 0.7925 -0.7670
H16A H 1.2487 0.7296 -0.6589
loop_
_geom_bond_atom_site_label_1
_geom_bond_atom_site_label_2
_geom_bond_site_symmetry_1
_geom_bond_site_symmetry_2
Cd1 N1 1_555 1_555
Ag1 C1 1_555 1_555
N1 C1 1_555 1_555
N2 Cd1 1_555 1_555
N3 Cd1 1_555 1_555
N4 O1 1_555 1_555
N5 O2 1_555 1_555
C2 N2 1_555 1_555
C3 N3 1_555 1_555
H1 C3 1_555 1_555
C4 C3 1_555 1_555
H2 C4 1_555 1_555
C5 C4 1_555 1_555
C6 C5 1_555 1_555
H3 C6 1_555 1_555
C7 N3 1_555 1_555
H4 C7 1_555 1_555
C8 N4 1_555 1_555
C9 N4 1_555 1_555
C10 N5 1_555 1_555
C11 C9 1_555 1_555
H5 C11 1_555 1_555
H6 C11 1_555 1_555
H7 C11 1_555 1_555
C12 C9 1_555 1_555
H8 C12 1_555 1_555
H9 C12 1_555 1_555
H10 C12 1_555 1_555
C13 C10 1_555 1_555
H11 C13 1_555 1_555
H12 C13 1_555 1_555
H13 C13 1_555 1_555
C14 C10 1_555 1_555
H14 C14 1_555 1_555
H15 C14 1_555 1_555
H16 C14 1_555 1_555
Ag1A C1A 1_555 1_555
Ag1_2 C2 1_555 1_555
Ag1A_2 C2A 1_555 1_555
N1A Cd1 1_555 1_555
N2A Cd1 1_555 1_555
N3A Cd1 1_555 1_555
N4A O1A 1_555 1_555
N5A O2A 1_555 1_555
C1A N1A 1_555 1_555
C2A N2A 1_555 1_555
C2_2 Ag1 1_555 1_555
C2A_2 Ag1A 1_555 1_555
C3A N3A 1_555 1_555
H1A C3A 1_555 1_555
C4A C3A 1_555 1_555
H2A C4A 1_555 1_555
C5A C4A 1_555 1_555
C6A C5A 1_555 1_555
H3A C6A 1_555 1_555
C7A N3A 1_555 1_555
H4A C7A 1_555 1_555
C8A N4A 1_555 1_555
C9A N4A 1_555 1_555
C10A N5A 1_555 1_555
C11A C9A 1_555 1_555
H5A C11A 1_555 1_555
H6A C11A 1_555 1_555
H7A C11A 1_555 1_555
C12A C9A 1_555 1_555
H8A C12A 1_555 1_555
H9A C12A 1_555 1_555
H10A C12A 1_555 1_555
C13A C10A 1_555 1_555
H11A C13A 1_555 1_555
H12A C13A 1_555 1_555
H13A C13A 1_555 1_555
C14A C10A 1_555 1_555
H14A C14A 1_555 1_555
H15A C14A 1_555 1_555
H16A C14A 1_555 1_555
N5 C8 1_555 1_555
C5 C8 1_555 1_555
C6 C7 1_555 1_555
C9 C10 1_555 1_555
N5A C8A 1_555 1_555
C5A C8A 1_555 1_555
C6A C7A 1_555 1_555
C9A C10A 1_555 1_555

#END
