
#######################################################################
#
#                 Cambridge Crystallographic Data Centre
#                                CCDC 
#
#######################################################################
#
# If this CIF has been generated from an entry in the Cambridge 
# Structural Database, then it will include bibliographic, chemical, 
# crystal, experimental, refinement or atomic coordinate data resulting 
# from the CCDC's data processing and validation procedures.
#
#######################################################################

data_KASTEE
_symmetry_cell_setting           orthorhombic
_symmetry_space_group_name_H-M   'P n a 21'
_symmetry_Int_Tables_number      33
_space_group_name_Hall           'P 2c -2n'
loop_
_symmetry_equiv_pos_site_id
_symmetry_equiv_pos_as_xyz
1 x,y,z
2 -x,-y,1/2+z
3 1/2-x,1/2+y,1/2+z
4 1/2+x,1/2-y,z
_cell_length_a                   10.499(2)
_cell_length_b                   12.208(2)
_cell_length_c                   11.886(2)
_cell_angle_alpha                90
_cell_angle_beta                 90
_cell_angle_gamma                90
_cell_volume                     1523.45
loop_
_atom_site_label
_atom_site_type_symbol
_atom_site_fract_x
_atom_site_fract_y
_atom_site_fract_z
Cu1 Cu 0.68884(4) 0.68029(3) 1.00370(4)
Cl1 Cl 0.67218(13) 1.05098(10) 0.87564(14)
Cl2 Cl 0.21788(12) 0.98168(11) 0.68315(12)
S1 S 0.54785(10) 0.68990(9) 1.20265(9)
O1 O 0.6594(3) 0.8214(2) 0.9348(3)
N1 N 0.5457(3) 0.6155(2) 0.9228(3)
N2 N 0.7393(3) 0.5206(2) 1.0203(3)
N3 N 0.3350(3) 0.7654(3) 1.0873(3)
C1 C 0.4640(4) 0.7809(3) 0.8374(3)
C2 C 0.5631(4) 0.8505(3) 0.8759(3)
C3 C 0.5500(4) 0.9622(3) 0.8412(3)
C4 C 0.4472(4) 1.0015(3) 0.7833(4)
H1 H 0.4418 1.0753 0.7648
C5 C 0.3509(4) 0.9296(3) 0.7527(3)
C6 C 0.3594(4) 0.8219(3) 0.7771(4)
H2 H 0.2953 0.7744 0.7538
C7 C 0.4639(4) 0.6659(3) 0.8629(3)
H3 H 0.3979 0.6244 0.8329
C8 C 0.5299(4) 0.4984(3) 0.9418(4)
H4 H 0.5019 0.4632 0.8730
H5 H 0.4656 0.4862 0.9991
C9 C 0.6533(4) 0.4503(3) 0.9788(3)
C10 C 0.6777(5) 0.3389(3) 0.9741(4)
H6 H 0.6180 0.2909 0.9439
C11 C 0.7926(5) 0.3004(3) 1.0152(6)
H7 H 0.8104 0.2258 1.0142
C12 C 0.8791(5) 0.3722(4) 1.0571(4)
H8 H 0.9568 0.3475 1.0849
C13 C 0.8503(4) 0.4820(4) 1.0579(4)
H9 H 0.9103 0.5311 1.0856
C14 C 0.4218(4) 0.7339(3) 1.1369(3)
Cu1C Cu 0.18884(4) 0.81971(3) 1.00370(4)
N3C N 0.8350(3) 0.7346(3) 1.0873(3)
loop_
_geom_bond_atom_site_label_1
_geom_bond_atom_site_label_2
_geom_bond_site_symmetry_1
_geom_bond_site_symmetry_2
Cu1 S1 1_555 1_555
Cl1 C3 1_555 1_555
Cl2 C5 1_555 1_555
S1 C14 1_555 1_555
O1 Cu1 1_555 1_555
N1 Cu1 1_555 1_555
N2 Cu1 1_555 1_555
N3 C14 1_555 1_555
C1 C2 1_555 1_555
C2 O1 1_555 1_555
C3 C2 1_555 1_555
C4 C3 1_555 1_555
H1 C4 1_555 1_555
C5 C4 1_555 1_555
C6 C1 1_555 1_555
H2 C6 1_555 1_555
C7 N1 1_555 1_555
H3 C7 1_555 1_555
C8 N1 1_555 1_555
H4 C8 1_555 1_555
H5 C8 1_555 1_555
C9 N2 1_555 1_555
C10 C9 1_555 1_555
H6 C10 1_555 1_555
C11 C10 1_555 1_555
H7 C11 1_555 1_555
C12 C11 1_555 1_555
H8 C12 1_555 1_555
C13 N2 1_555 1_555
H9 C13 1_555 1_555
Cu1C N3 1_555 1_555
N3C Cu1 1_555 1_555
C1 C7 1_555 1_555
C5 C6 1_555 1_555
C8 C9 1_555 1_555
C12 C13 1_555 1_555

#END
