
#######################################################################
#
#                 Cambridge Crystallographic Data Centre
#                                CCDC 
#
#######################################################################
#
# If this CIF has been generated from an entry in the Cambridge 
# Structural Database, then it will include bibliographic, chemical, 
# crystal, experimental, refinement or atomic coordinate data resulting 
# from the CCDC's data processing and validation procedures.
#
#######################################################################

data_KASVAD
_symmetry_cell_setting           monoclinic
_symmetry_space_group_name_H-M   'P 21'
_symmetry_Int_Tables_number      4
_space_group_name_Hall           'P 2yb'
loop_
_symmetry_equiv_pos_site_id
_symmetry_equiv_pos_as_xyz
1 x,y,z
2 -x,1/2+y,-z
_cell_length_a                   7.521(12)
_cell_length_b                   17.21(3)
_cell_length_c                   19.15(3)
_cell_angle_alpha                90
_cell_angle_beta                 95.26(2)
_cell_angle_gamma                90
_cell_volume                     2468.27
loop_
_atom_site_label
_atom_site_type_symbol
_atom_site_fract_x
_atom_site_fract_y
_atom_site_fract_z
O1 O -0.1301(12) 0.2371(4) -0.6007(5)
H54 H -0.1297 0.2795 -0.6258
H55 H -0.0341 0.2140 -0.6040
H1 H 0.0090 0.0650 -0.5778
O2 O -0.0610(18) 0.0365(7) -0.5613(6)
H56 H -0.1087 0.0057 -0.5921
N1 N 0.3555(14) 0.0673(5) -0.4793(4)
C1 C 0.3818(18) 0.0084(6) -0.5239(5)
C2 C 0.3564(19) -0.0659(6) -0.5089(6)
C3 C 0.3031(15) 0.0465(5) -0.4191(4)
C4 C 0.3019(17) -0.0860(5) -0.4454(5)
C5 C 0.2752(16) -0.0293(5) -0.3971(5)
N2 N -0.6820(13) 0.2991(4) -0.5711(4)
C6 C 0.2197(15) -0.0549(5) -0.3317(5)
N3 N 0.1970(12) -0.0144(4) -0.2710(4)
N4 N 0.1165(12) -0.1334(4) -0.2535(4)
C7 C 0.1416(15) -0.0640(5) -0.2228(5)
C8 C 0.1088(15) -0.0480(5) -0.1524(5)
C9 C 0.1255(16) -0.0892(5) -0.0331(6)
C10 C 0.0683(17) -0.0162(7) -0.0171(5)
C11 C 0.0466(15) 0.0223(5) -0.1314(5)
N5 N 0.0220(12) 0.0397(4) -0.0648(4)
Co1 Co -0.6445(2) 0.18619(7) -0.51645(7)
Co2 Co -0.0658(2) 0.15074(7) -0.04245(6)
O3 O -0.4692(11) 0.2246(4) -0.4360(3)
O4 O -0.4318(10) 0.1632(3) -0.5723(3)
O5 O -0.6471(13) 0.2919(4) -0.3731(4)
O6 O -0.8596(11) 0.2148(4) -0.4618(4)
O7 O -0.1862(11) 0.2859(4) -0.0989(4)
O8 O -0.8167(10) 0.1435(4) -0.6031(3)
O9 O -0.0882(11) 0.1778(4) -0.1417(3)
O10 O -0.3025(10) 0.1262(4) -0.0068(4)
O11 O -0.0770(11) 0.1164(4) 0.0667(4)
O12 O -0.4447(12) 0.0608(4) 0.3290(4)
O13 O -0.6688(11) 0.1296(4) 0.2805(3)
N6 N -0.5769(14) 0.4256(5) -0.7811(4)
N7 N -0.5828(13) 0.4073(4) -0.8523(4)
N8 N -0.7271(12) 0.3186(4) -0.8008(4)
N9 N -0.8457(12) 0.2583(4) -0.7911(3)
H2 H -0.8888 0.2327 -0.8273
H3 H -0.8746 0.2458 -0.7501
N10 N -0.8452(13) 0.2176(4) -1.0121(4)
N11 N 0.1627(13) -0.1260(4) -0.3218(4)
N12 N 0.2720(13) 0.0602(4) -0.2572(3)
H4 H 0.2865 0.0782 -0.2152
H5 H 0.3037 0.0874 -0.2916
C12 C -0.7415(16) 0.3617(6) -0.5388(5)
H6 H -0.7598 0.3590 -0.4915
C13 C -0.7763(18) 0.4315(5) -0.5759(6)
H7 H -0.8179 0.4746 -0.5530
C14 C -0.7494(16) 0.4361(6) -0.6450(5)
H8 H -0.7701 0.4823 -0.6695
C15 C -0.6898(15) 0.3698(5) -0.6787(5)
C16 C -0.6592(15) 0.3028(5) -0.6399(5)
H9 H -0.6213 0.2586 -0.6621
C17 C -0.6649(16) 0.3715(5) -0.7528(5)
C18 C -0.6733(16) 0.3427(5) -0.8617(5)
C19 C -0.6904(16) 0.3041(5) -0.9295(5)
C20 C -0.5702(16) 0.3171(6) -0.9777(5)
H10 H -0.4753 0.3508 -0.9665
C21 C -0.5864(18) 0.2818(6) -1.0415(5)
H11 H -0.5057 0.2923 -1.0742
C22 C -0.7208(15) 0.2316(6) -1.0562(5)
H12 H -0.7281 0.2055 -1.0989
C23 C -0.8300(16) 0.2521(5) -0.9524(4)
H13 H -0.9169 0.2423 -0.9219
H14 H 0.4217 0.0206 -0.5660
H15 H 0.3721 -0.1047 -0.5415
H16 H 0.2821 -0.1394 -0.4342
H17 H 0.2912 0.0848 -0.3860
C24 C 0.1408(15) -0.1047(5) -0.1027(5)
H18 H 0.1734 -0.1542 -0.1162
H19 H 0.1500 -0.1244 0.0004
H20 H 0.0521 -0.0026 0.0293
H21 H 0.0172 0.0618 -0.1654
C25 C -0.499(2) 0.2692(6) -0.3842(6)
C26 C -0.3266(19) 0.2878(5) -0.3349(5)
H22 H -0.2207 0.2850 -0.3611
C27 C -0.344(2) 0.3711(6) -0.3022(6)
H23 H -0.2939 0.4106 -0.3309
H24 H -0.4675 0.3838 -0.2969
C28 C -0.232(2) 0.3633(6) -0.2287(5)
H25 H -0.3059 0.3754 -0.1912
H26 H -0.1312 0.3986 -0.2257
C29 C -0.1661(15) 0.2773(5) -0.2226(5)
C30 C -0.3054(18) 0.2320(6) -0.2692(6)
C31 C -0.2501(19) 0.1509(6) -0.2908(5)
H27 H -0.1567 0.1549 -0.3216
H28 H -0.3510 0.1248 -0.3146
H29 H -0.2077 0.1218 -0.2498
C32 C -0.4791(18) 0.2262(6) -0.2348(6)
H30 H -0.4615 0.1941 -0.1937
H31 H -0.5696 0.2036 -0.2672
H32 H -0.5160 0.2772 -0.2218
C33 C 0.0138(19) 0.2741(7) -0.2478(6)
H33 H 0.0943 0.3058 -0.2183
H34 H 0.0082 0.2930 -0.2951
H35 H 0.0557 0.2214 -0.2464
C34 C -0.1474(14) 0.2481(7) -0.1490(5)
C35 C -0.236(2) 0.1068(5) 0.0556(5)
C36 C -0.3477(15) 0.0632(5) 0.1016(4)
C37 C -0.5564(16) 0.0710(6) 0.0787(5)
H36 H -0.5848 0.1218 0.0588
H37 H -0.5961 0.0314 0.0447
C38 C -0.6414(17) 0.0595(6) 0.1473(5)
H38 H -0.7190 0.1030 0.1552
H39 H -0.7128 0.0125 0.1448
C39 C -0.4971(15) 0.0536(5) 0.2066(5)
H40 H -0.4706 -0.0018 0.2131
C40 C -0.3326(15) 0.0905(5) 0.1789(5)
C41 C -0.5378(18) 0.0838(6) 0.2752(6)
C42 C -0.298(2) -0.0236(5) 0.0949(6)
H41 H -0.3038 -0.0376 0.0462
H42 H -0.3806 -0.0550 0.1180
H43 H -0.1793 -0.0321 0.1163
C43 C -0.1551(17) 0.0676(7) 0.2181(6)
H44 H -0.1563 0.0804 0.2668
H45 H -0.0601 0.0953 0.1988
H46 H -0.1369 0.0127 0.2132
C44 C -0.3496(18) 0.1816(5) 0.1787(5)
H47 H -0.4421 0.1972 0.1437
H48 H -0.2383 0.2043 0.1685
H49 H -0.3788 0.1990 0.2239
N1_2 N -0.6445(14) 0.0673(5) -0.4793(4)
Co1_2 Co 0.3555(2) 0.18619(7) -0.51645(7)
Co2_2 Co -1.0658(2) 0.15074(7) -1.04245(6)
N10_2 N 0.1548(13) 0.2176(4) -0.0121(4)
O14 O -0.1501(12) 0.1254(5) -0.4503(4)
H50 H -0.0595 0.1543 -0.4534
H51 H -0.2402 0.1542 -0.4459
O15 O -0.5449(13) 0.0602(4) -0.1126(4)
H52 H -0.4721 0.0798 -0.0808
H53 H -0.5070 0.0155 -0.1228
O16 O -0.7878(16) 0.4359(5) -0.3543(6)
H57 H -0.7355 0.3928 -0.3594
H58 H -0.7091 0.4711 -0.3467
loop_
_geom_bond_atom_site_label_1
_geom_bond_atom_site_label_2
_geom_bond_site_symmetry_1
_geom_bond_site_symmetry_2
O1 H54 1_555 1_555
H1 O2 1_555 1_555
O2 H56 1_555 1_555
N1 C1 1_555 1_555
C1 C2 1_555 1_555
C2 C4 1_555 1_555
C3 N1 1_555 1_555
C4 C5 1_555 1_555
C5 C3 1_555 1_555
N2 Co1 1_555 1_555
C6 C5 1_555 1_555
N3 C6 1_555 1_555
N4 C7 1_555 1_555
C7 N3 1_555 1_555
C8 C7 1_555 1_555
C9 C10 1_555 1_555
C10 N5 1_555 1_555
C11 C8 1_555 1_555
N5 C11 1_555 1_555
Co1 O3 1_555 1_555
Co2 N5 1_555 1_555
O3 C25 1_555 1_555
O4 Co1 1_555 1_555
O5 C25 1_555 1_555
O6 Co1 1_555 1_555
O7 C34 1_555 1_555
O8 Co1 1_555 1_555
O9 Co2 1_555 1_555
O10 Co2 1_555 1_555
O11 Co2 1_555 1_555
O12 C41 1_555 1_555
O13 C41 1_555 1_555
N6 N7 1_555 1_555
N7 C18 1_555 1_555
N8 N9 1_555 1_555
N9 H2 1_555 1_555
H3 N9 1_555 1_555
N10 C22 1_555 1_555
N11 C6 1_555 1_555
N12 N3 1_555 1_555
H4 N12 1_555 1_555
H5 N12 1_555 1_555
C12 N2 1_555 1_555
H6 C12 1_555 1_555
C13 C12 1_555 1_555
H7 C13 1_555 1_555
C14 C13 1_555 1_555
H8 C14 1_555 1_555
C15 C14 1_555 1_555
C16 N2 1_555 1_555
H9 C16 1_555 1_555
C17 N6 1_555 1_555
C18 N8 1_555 1_555
C19 C18 1_555 1_555
C20 C19 1_555 1_555
H10 C20 1_555 1_555
C21 C20 1_555 1_555
H11 C21 1_555 1_555
C22 C21 1_555 1_555
H12 C22 1_555 1_555
C23 N10 1_555 1_555
H13 C23 1_555 1_555
H14 C1 1_555 1_555
H15 C2 1_555 1_555
H16 C4 1_555 1_555
H17 C3 1_555 1_555
C24 C8 1_555 1_555
H18 C24 1_555 1_555
H19 C9 1_555 1_555
H20 C10 1_555 1_555
H21 C11 1_555 1_555
C25 C26 1_555 1_555
C26 H22 1_555 1_555
C27 C26 1_555 1_555
H23 C27 1_555 1_555
H24 C27 1_555 1_555
C28 C27 1_555 1_555
H25 C28 1_555 1_555
H26 C28 1_555 1_555
C29 C28 1_555 1_555
C30 C26 1_555 1_555
C31 C30 1_555 1_555
H27 C31 1_555 1_555
H28 C31 1_555 1_555
H29 C31 1_555 1_555
C32 C30 1_555 1_555
H30 C32 1_555 1_555
H31 C32 1_555 1_555
H32 C32 1_555 1_555
C33 C29 1_555 1_555
H33 C33 1_555 1_555
H34 C33 1_555 1_555
H35 C33 1_555 1_555
C34 O9 1_555 1_555
C35 O10 1_555 1_555
C36 C35 1_555 1_555
C37 C36 1_555 1_555
H36 C37 1_555 1_555
H37 C37 1_555 1_555
C38 C37 1_555 1_555
H38 C38 1_555 1_555
H39 C38 1_555 1_555
C39 C38 1_555 1_555
H40 C39 1_555 1_555
C40 C36 1_555 1_555
C41 C39 1_555 1_555
C42 C36 1_555 1_555
H41 C42 1_555 1_555
H42 C42 1_555 1_555
H43 C42 1_555 1_555
C43 C40 1_555 1_555
H44 C43 1_555 1_555
H45 C43 1_555 1_555
H46 C43 1_555 1_555
C44 C40 1_555 1_555
H47 C44 1_555 1_555
H48 C44 1_555 1_555
H49 C44 1_555 1_555
O14 H50 1_555 1_555
H51 O14 1_555 1_555
O15 H52 1_555 1_555
H53 O15 1_555 1_555
H55 O1 1_555 1_555
O16 H57 1_555 1_555
H58 O16 1_555 1_555
N1_2 Co1 1_555 1_555
Co1_2 N1 1_555 1_555
Co2_2 N10 1_555 1_555
N10_2 Co2 1_555 1_555
N4 N11 1_555 1_555
C9 C24 1_555 1_555
O11 C35 1_555 1_555
N8 C17 1_555 1_555
C15 C16 1_555 1_555
C15 C17 1_555 1_555
C19 C23 1_555 1_555
C29 C30 1_555 1_555
C29 C34 1_555 1_555
C39 C40 1_555 1_555

#END
