
#######################################################################
#
#                 Cambridge Crystallographic Data Centre
#                                CCDC 
#
#######################################################################
#
# If this CIF has been generated from an entry in the Cambridge 
# Structural Database, then it will include bibliographic, chemical, 
# crystal, experimental, refinement or atomic coordinate data resulting 
# from the CCDC's data processing and validation procedures.
#
#######################################################################

data_KATGUJ
_symmetry_cell_setting           monoclinic
_symmetry_space_group_name_H-M   'P 21/c'
_symmetry_Int_Tables_number      14
_space_group_name_Hall           '-P 2ybc'
loop_
_symmetry_equiv_pos_site_id
_symmetry_equiv_pos_as_xyz
1 x,y,z
2 -x,1/2+y,1/2-z
3 -x,-y,-z
4 x,1/2-y,1/2+z
_cell_length_a                   10.3530(10)
_cell_length_b                   11.0411(8)
_cell_length_c                   16.2530(12)
_cell_angle_alpha                90
_cell_angle_beta                 93.079(7)
_cell_angle_gamma                90
_cell_volume                     1855.17
loop_
_atom_site_label
_atom_site_type_symbol
_atom_site_fract_x
_atom_site_fract_y
_atom_site_fract_z
Hg1 Hg 0.01311(5) 0.18116(4) 0.16466(3)
Cl1 Cl 0.0548(4) 0.3551(3) 0.0866(2)
O1 O 0.3199(9) -0.3688(7) 0.0180(6)
N1 N 0.0959(10) 0.0154(8) 0.0914(6)
C1 C 0.1797(13) 0.0395(11) 0.0345(8)
H1 H 0.1935 0.1213 0.0190
Cl2 Cl -0.1606(3) 0.0740(3) 0.2256(2)
O2 O 0.5611(8) -0.1902(7) -0.0241(5)
N2 N 0.3268(10) -0.2606(8) -0.1003(7)
H2 H 0.3057 -0.1907 -0.1233
C2 C 0.2491(13) -0.0537(10) -0.0038(8)
H3 H 0.3122 -0.0333 -0.0418
N3 N 0.5731(10) -0.3939(8) -0.0449(6)
H4 H 0.6053 -0.4605 -0.0222
C3 C 0.2261(11) -0.1723(10) 0.0134(7)
N4 N 0.8394(10) -0.3160(8) 0.2201(6)
C4 C 0.1375(11) -0.1963(10) 0.0755(8)
H5 H 0.1221 -0.2773 0.0919
C5 C 0.0760(13) -0.1049(11) 0.1108(9)
H6 H 0.0158 -0.1236 0.1510
C6 C 0.2927(13) -0.2769(11) -0.0213(8)
C7 C 0.3921(12) -0.3433(10) -0.1494(8)
C8 C 0.3379(12) -0.3652(10) -0.2289(8)
H7 H 0.2636 -0.3209 -0.2482
C9 C 0.3902(13) -0.4495(11) -0.2793(8)
H8 H 0.3535 -0.4617 -0.3335
C10 C 0.4969(14) -0.5173(10) -0.2515(8)
H9 H 0.5306 -0.5779 -0.2859
C11 C 0.5545(14) -0.4969(10) -0.1734(8)
H10 H 0.6287 -0.5421 -0.1552
C12 C 0.5036(12) -0.4102(10) -0.1216(8)
C13 C 0.5974(13) -0.2916(11) -0.0015(8)
C14 C 0.6836(12) -0.3063(10) 0.0763(7)
C15 C 0.7793(13) -0.3933(10) 0.0865(8)
H11 H 0.7924 -0.4516 0.0448
C16 C 0.8539(14) -0.3932(10) 0.1576(8)
H12 H 0.9209 -0.4519 0.1636
C17 C 0.7479(13) -0.2354(10) 0.2115(9)
H13 H 0.7357 -0.1809 0.2557
C18 C 0.6662(13) -0.2254(11) 0.1400(8)
H14 H 0.6009 -0.1649 0.1354
Hg1A Hg 0.98689(5) -0.31884(4) 0.33534(3)
N4A N 0.1606(10) 0.1840(8) 0.2799(6)
loop_
_geom_bond_atom_site_label_1
_geom_bond_atom_site_label_2
_geom_bond_site_symmetry_1
_geom_bond_site_symmetry_2
Hg1 Cl1 1_555 1_555
O1 C6 1_555 1_555
N1 Hg1 1_555 1_555
C1 N1 1_555 1_555
H1 C1 1_555 1_555
Cl2 Hg1 1_555 1_555
O2 C13 1_555 1_555
N2 H2 1_555 1_555
C2 C1 1_555 1_555
H3 C2 1_555 1_555
N3 H4 1_555 1_555
C3 C2 1_555 1_555
N4 C16 1_555 1_555
C4 C3 1_555 1_555
H5 C4 1_555 1_555
C5 N1 1_555 1_555
H6 C5 1_555 1_555
C6 N2 1_555 1_555
C7 N2 1_555 1_555
C8 C7 1_555 1_555
H7 C8 1_555 1_555
C9 C8 1_555 1_555
H8 C9 1_555 1_555
C10 C9 1_555 1_555
H9 C10 1_555 1_555
C11 C10 1_555 1_555
H10 C11 1_555 1_555
C12 N3 1_555 1_555
C13 N3 1_555 1_555
C14 C13 1_555 1_555
C15 C14 1_555 1_555
H11 C15 1_555 1_555
C16 C15 1_555 1_555
H12 C16 1_555 1_555
C17 N4 1_555 1_555
H13 C17 1_555 1_555
C18 C14 1_555 1_555
H14 C18 1_555 1_555
Hg1A N4 1_555 1_555
N4A Hg1 1_555 1_555
C3 C6 1_555 1_555
C4 C5 1_555 1_555
C7 C12 1_555 1_555
C11 C12 1_555 1_555
C17 C18 1_555 1_555

#END
