
#######################################################################
#
#                 Cambridge Crystallographic Data Centre
#                                CCDC 
#
#######################################################################
#
# If this CIF has been generated from an entry in the Cambridge 
# Structural Database, then it will include bibliographic, chemical, 
# crystal, experimental, refinement or atomic coordinate data resulting 
# from the CCDC's data processing and validation procedures.
#
#######################################################################

data_KATHOD
_symmetry_cell_setting           monoclinic
_symmetry_space_group_name_H-M   'P 21/c'
_symmetry_Int_Tables_number      14
_space_group_name_Hall           '-P 2ybc'
loop_
_symmetry_equiv_pos_site_id
_symmetry_equiv_pos_as_xyz
1 x,y,z
2 -x,1/2+y,1/2-z
3 -x,-y,-z
4 x,1/2-y,1/2+z
_cell_length_a                   7.4257(12)
_cell_length_b                   17.214(2)
_cell_length_c                   12.028(2)
_cell_angle_alpha                90
_cell_angle_beta                 106.863(7)
_cell_angle_gamma                90
_cell_volume                     1471.38
loop_
_atom_site_label
_atom_site_type_symbol
_atom_site_fract_x
_atom_site_fract_y
_atom_site_fract_z
Cu1 Cu 0.59406(10) 0.22835(4) 0.29368(5)
O1 O 0.6099(6) 0.3378(2) 0.3369(3)
O2 O 0.7936(6) 0.2976(2) 0.5056(3)
O3 O 0.4577(5) 0.6231(2) 0.2756(3)
O4 O 0.6204(6) 0.7053(2) 0.4074(3)
O5 O 0.8912(6) 0.5068(3) 0.8484(3)
O6 O 1.1800(5) 0.5114(3) 0.7996(3)
O7 O 0.9962(6) 0.6293(2) 0.7930(3)
O8 O 0.7992(6) 0.2436(2) 0.2220(4)
H1 H 0.850(8) 0.2908(16) 0.219(6)
H2 H 0.785(12) 0.221(4) 0.153(3)
N1 N 0.4458(7) 0.1999(3) 0.4032(4)
H3 H 0.433(8) 0.240(2) 0.452(4)
N2 N 0.2286(7) 0.0898(3) 0.4926(4)
H4 H 0.157(7) 0.073(4) 0.540(4)
H5 H 0.214(12) 0.050(3) 0.439(6)
C1 C 0.7365(7) 0.4341(3) 0.4804(4)
C2 C 0.6451(7) 0.4941(3) 0.4071(4)
H6 H 0.5696 0.4833 0.3323
C3 C 0.6691(7) 0.5702(3) 0.4482(4)
C4 C 0.7807(7) 0.5862(3) 0.5598(4)
H7 H 0.7968 0.6372 0.5862
C5 C 0.8681(7) 0.5263(3) 0.6320(4)
C6 C 0.8481(7) 0.4500(3) 0.5922(4)
H8 H 0.9091 0.4099 0.6403
C7 C 0.7155(7) 0.3504(3) 0.4397(4)
C8 C 0.5771(7) 0.6383(3) 0.3733(4)
C9 C 0.5327(8) 0.1304(3) 0.4724(5)
H9 H 0.6619 0.1424 0.5153
H10 H 0.5349 0.0879 0.4199
C10 C 0.4278(8) 0.1049(4) 0.5568(5)
H11 H 0.4847 0.0581 0.5968
H12 H 0.4352 0.1451 0.6145
C11 C 0.1353(9) 0.1612(4) 0.4294(5)
H13 H 0.1373 0.2026 0.4844
H14 H 0.0052 0.1500 0.3877
C12 C 0.2413(8) 0.1859(3) 0.3449(5)
H15 H 0.2285 0.1458 0.2864
H16 H 0.1852 0.2331 0.3059
S1 S 0.99452(19) 0.54539(8) 0.77891(11)
Cu1A Cu 0.40594(10) 0.72835(4) 0.20632(5)
O3A O 0.5423(5) 0.1231(2) 0.2244(3)
O4A O 0.3796(6) 0.2053(2) 0.0926(3)
loop_
_geom_bond_atom_site_label_1
_geom_bond_atom_site_label_2
_geom_bond_site_symmetry_1
_geom_bond_site_symmetry_2
Cu1 O1 1_555 1_555
O1 C7 1_555 1_555
O2 C7 1_555 1_555
O3 C8 1_555 1_555
O4 C8 1_555 1_555
O5 S1 1_555 1_555
O6 S1 1_555 1_555
O7 S1 1_555 1_555
O8 Cu1 1_555 1_555
H1 O8 1_555 1_555
H2 O8 1_555 1_555
N1 Cu1 1_555 1_555
H3 N1 1_555 1_555
N2 H4 1_555 1_555
H5 N2 1_555 1_555
C1 C2 1_555 1_555
C2 H6 1_555 1_555
C3 C2 1_555 1_555
C4 C3 1_555 1_555
H7 C4 1_555 1_555
C5 C4 1_555 1_555
C6 C1 1_555 1_555
H8 C6 1_555 1_555
C7 C1 1_555 1_555
C8 C3 1_555 1_555
C9 N1 1_555 1_555
H9 C9 1_555 1_555
H10 C9 1_555 1_555
C10 N2 1_555 1_555
H11 C10 1_555 1_555
H12 C10 1_555 1_555
C11 N2 1_555 1_555
H13 C11 1_555 1_555
H14 C11 1_555 1_555
C12 N1 1_555 1_555
H15 C12 1_555 1_555
H16 C12 1_555 1_555
S1 C5 1_555 1_555
Cu1A O3 1_555 1_555
O3A Cu1 1_555 1_555
O4A Cu1 1_555 1_555
O4 Cu1A 1_555 1_555
C5 C6 1_555 1_555
C9 C10 1_555 1_555
C11 C12 1_555 1_555

#END
