
#######################################################################
#
#                 Cambridge Crystallographic Data Centre
#                                CCDC 
#
#######################################################################
#
# If this CIF has been generated from an entry in the Cambridge 
# Structural Database, then it will include bibliographic, chemical, 
# crystal, experimental, refinement or atomic coordinate data resulting 
# from the CCDC's data processing and validation procedures.
#
#######################################################################

data_KATKUN
_symmetry_cell_setting           monoclinic
_symmetry_space_group_name_H-M   'C 2/c'
_symmetry_Int_Tables_number      15
_space_group_name_Hall           '-C 2yn'
loop_
_symmetry_equiv_pos_site_id
_symmetry_equiv_pos_as_xyz
1 x,y,z
2 -x,y,1/2-z
3 1/2+x,1/2+y,z
4 1/2-x,1/2+y,1/2-z
5 -x,-y,-z
6 x,-y,1/2+z
7 1/2-x,1/2-y,-z
8 1/2+x,1/2-y,1/2+z
_cell_length_a                   10.507(2)
_cell_length_b                   18.953(7)
_cell_length_c                   13.699(3)
_cell_angle_alpha                90
_cell_angle_beta                 109.98(3)
_cell_angle_gamma                90
_cell_volume                     2563.81
loop_
_atom_site_label
_atom_site_type_symbol
_atom_site_fract_x
_atom_site_fract_y
_atom_site_fract_z
N1 N -1.0679(5) -0.4090(3) 1.0681(4)
C1 C -1.0791(6) -0.2846(3) 1.0862(5)
C2 C -1.1409(7) -0.4140(4) 1.1324(5)
H1 H -1.1639 -0.4582 1.1508
N2 N -1.1516(6) -0.2891(3) 1.1493(5)
C3 C -1.1813(7) -0.3541(4) 1.1709(5)
H2 H -1.2321 -0.3595 1.2142
C4 C -1.0368(6) -0.3438(4) 1.0471(5)
H3 H -0.9848 -0.3381 1.0047
N3 N -0.9770(5) -0.1298(3) 0.9913(4)
N4 N -0.9756(5) -0.2010(3) 0.9952(4)
C5 C -1.0462(6) -0.2127(4) 1.0583(5)
N5 N -1.0902(6) -0.1525(3) 1.0889(5)
O1 O -0.7085(5) -0.1058(3) 1.0800(5)
N6 N -1.0441(6) -0.1008(3) 1.0463(5)
C6 C -0.9092(6) -0.0888(4) 0.9342(6)
H4 H -0.9522 -0.0429 0.9181
H5 H -0.9197 -0.1123 0.8691
C7 C -0.7584(7) -0.0785(4) 0.9944(6)
O2 O -0.6994(3) -0.03934(14) 0.9459(2)
O3 O -0.4585(3) -0.05438(14) 1.1439(2)
H6 H -0.4299 -0.0163 1.1781
H7 H -0.3983 -0.0856 1.1688
Co1 Co -0.5000 0.0000 1.0000
N1D N 0.0679(5) 0.4090(3) 0.9319(4)
N1B N -0.5679(5) 0.0910(3) 1.0681(4)
N1F N -0.4321(5) -0.0910(3) 0.9319(4)
C1D C 0.0791(6) 0.2846(3) 0.9138(5)
C2D C 0.1409(7) 0.4140(4) 0.8676(5)
H1D H 0.1639 0.4582 0.8492
N2D N 0.1516(6) 0.2891(3) 0.8507(5)
C3D C 0.1813(7) 0.3541(4) 0.8291(5)
H2D H 0.2321 0.3595 0.7858
C4D C 0.0368(6) 0.3438(4) 0.9529(5)
H3D H -0.0152 0.3381 0.9953
N3D N -0.0230(5) 0.1298(3) 1.0087(4)
N4D N -0.0244(5) 0.2010(3) 1.0048(4)
C5D C 0.0462(6) 0.2127(4) 0.9417(5)
N5D N 0.0902(6) 0.1525(3) 0.9111(5)
O1D O -0.2915(5) 0.1058(3) 0.9200(5)
N6D N 0.0441(6) 0.1008(3) 0.9537(5)
C6D C -0.0908(6) 0.0888(4) 1.0658(6)
H4D H -0.0478 0.0429 1.0819
H5D H -0.0803 0.1123 1.1309
C7D C -0.2416(7) 0.0785(4) 1.0056(6)
O2D O -0.3006(3) 0.03934(14) 1.0541(2)
O3D O -0.5415(3) 0.05438(14) 0.8561(2)
H6D H -0.5701 0.0163 0.8219
H7D H -0.6017 0.0856 0.8312
Co1B Co -1.0000 -0.5000 1.0000
Co1B_2 Co 0.0000 0.5000 1.0000
O4 O -0.2551(3) -0.14557(14) 1.2249(2)
H8 H -0.2045 -0.1605 1.2838
H9 H -0.2511 -0.1760 1.1797
O5 O -0.8629 -0.0014 0.7426
H10 H -0.7945 -0.0254 0.7783
H11 H -0.8339 0.0355 0.7219
O6 O -0.8534 -0.2405 0.8069
H12 H -0.9032 -0.2762 0.7828
H13 H -0.8852 -0.2061 0.7661
loop_
_geom_bond_atom_site_label_1
_geom_bond_atom_site_label_2
_geom_bond_site_symmetry_1
_geom_bond_site_symmetry_2
N1 C2 1_555 1_555
C1 N2 1_555 1_555
C2 H1 1_555 1_555
N2 C3 1_555 1_555
C3 C2 1_555 1_555
H2 C3 1_555 1_555
C4 N1 1_555 1_555
H3 C4 1_555 1_555
N3 N4 1_555 1_555
N4 C5 1_555 1_555
C5 C1 1_555 1_555
N5 C5 1_555 1_555
O1 C7 1_555 1_555
N6 N3 1_555 1_555
C6 N3 1_555 1_555
H4 C6 1_555 1_555
H5 C6 1_555 1_555
C7 C6 1_555 1_555
O2 C7 1_555 1_555
O3 H6 1_555 1_555
H7 O3 1_555 1_555
Co1 O2 1_555 1_555
O4 H8 1_555 1_555
H9 O4 1_555 1_555
O5 H10 1_555 1_555
H11 O5 1_555 1_555
O6 H12 1_555 1_555
H13 O6 1_555 1_555
N1D C2D 1_555 1_555
N1B Co1 1_555 1_555
N1F Co1 1_555 1_555
C1D N2D 1_555 1_555
C2D H1D 1_555 1_555
N2D C3D 1_555 1_555
C3D C2D 1_555 1_555
H2D C3D 1_555 1_555
C4D N1D 1_555 1_555
H3D C4D 1_555 1_555
N3D N4D 1_555 1_555
N4D C5D 1_555 1_555
C5D C1D 1_555 1_555
N5D C5D 1_555 1_555
O1D C7D 1_555 1_555
N6D N3D 1_555 1_555
C6D N3D 1_555 1_555
H4D C6D 1_555 1_555
H5D C6D 1_555 1_555
C7D C6D 1_555 1_555
O2D Co1 1_555 1_555
O3D Co1 1_555 1_555
H6D O3D 1_555 1_555
H7D O3D 1_555 1_555
Co1B N1 1_555 1_555
Co1B_2 N1D 1_555 1_555
C1 C4 1_555 1_555
N5 N6 1_555 1_555
O3 Co1 1_555 1_555
C1D C4D 1_555 1_555
N5D N6D 1_555 1_555
C7D O2D 1_555 1_555

#END
