
#######################################################################
#
#                 Cambridge Crystallographic Data Centre
#                                CCDC 
#
#######################################################################
#
# If this CIF has been generated from an entry in the Cambridge 
# Structural Database, then it will include bibliographic, chemical, 
# crystal, experimental, refinement or atomic coordinate data resulting 
# from the CCDC's data processing and validation procedures.
#
#######################################################################

data_KATQIF
_symmetry_cell_setting           monoclinic
_symmetry_space_group_name_H-M   'C 2/c'
_symmetry_Int_Tables_number      15
_space_group_name_Hall           '-C 2yn'
loop_
_symmetry_equiv_pos_site_id
_symmetry_equiv_pos_as_xyz
1 x,y,z
2 1/2+x,1/2+y,z
3 x,-y,1/2+z
4 1/2+x,1/2-y,1/2+z
5 -x,-y,-z
6 1/2-x,1/2-y,-z
7 -x,y,1/2-z
8 1/2-x,1/2+y,1/2-z
_cell_length_a                   20.290(4)
_cell_length_b                   8.514(2)
_cell_length_c                   19.488(4)
_cell_angle_alpha                90
_cell_angle_beta                 108.13(3)
_cell_angle_gamma                90
_cell_volume                     3199.4
loop_
_atom_site_label
_atom_site_type_symbol
_atom_site_fract_x
_atom_site_fract_y
_atom_site_fract_z
Zn1 Zn -0.30503(2) -0.13543(5) 0.64770(2)
N1 N -0.4174(2) 0.1636(4) 0.4635(2)
H1 H -0.4151(23) 0.0966(48) 0.4955(24)
N2 N -0.2103(2) -0.1975(3) 0.6411(2)
O1 O -0.32175(14) -0.0131(3) 0.55384(15)
O2 O -0.60202(14) 0.2321(3) 0.3884(2)
O3 O -0.5431(2) 0.0075(4) 0.4161(2)
O4 O -0.1840(2) -0.4850(3) 0.7805(2)
O5 O -0.27326(14) -0.3250(3) 0.72951(14)
C1 C -0.2819(2) 0.0079(4) 0.5144(2)
C2 C -0.3055(2) 0.1037(4) 0.4509(2)
C3 C -0.2619(2) 0.1358(5) 0.4090(2)
H2 H -0.2785(21) 0.1894(45) 0.3697(23)
C4 C -0.1960(2) 0.0717(4) 0.4251(2)
C5 C -0.1748(2) -0.0248(5) 0.4850(2)
H3 H -0.1384(22) -0.0559(49) 0.4950(23)
C6 C -0.2145(2) -0.0577(4) 0.5306(2)
C7 C -0.1488(3) 0.1121(6) 0.3814(3)
H4 H -0.1415(22) 0.2155(53) 0.3827(23)
H5 H -0.1143(23) 0.0407(51) 0.3928(23)
H6 H -0.1722(23) 0.0865(48) 0.3326(26)
C8 C -0.3715(2) 0.1786(5) 0.4311(2)
H7 H -0.3878(21) 0.2428(43) 0.3823(23)
C9 C -0.4831(2) 0.2532(5) 0.4427(3)
H8 H -0.4804(23) 0.3499(50) 0.4063(25)
H9 H -0.4888(23) 0.3114(56) 0.4881(26)
C10 C -0.5474(2) 0.1528(5) 0.4131(2)
C11 C -0.1847(2) -0.1602(5) 0.5909(2)
H10 H -0.1483(21) -0.1819(47) 0.5922(22)
C12 C -0.1695(2) -0.2996(5) 0.6982(2)
H11 H -0.1373(22) -0.2384(46) 0.7314(23)
H12 H -0.1458(20) -0.3799(43) 0.6803(21)
C13 C -0.2140(2) -0.3765(5) 0.7386(2)
Zn1D Zn -0.69497(2) 0.13543(5) 0.35230(2)
Zn1G Zn -0.19497(2) -0.63543(5) 0.85230(2)
O2D O -0.39798(14) -0.2321(3) 0.6116(2)
O4G O -0.3160(2) 0.0150(3) 0.7195(2)
O6 O -0.8954(2) -0.1354(5) 0.2721(2)
O7 O -0.5000 -0.4191(9) 0.2500
O9 O -0.5000 0.0960(15) 0.2500
O8? O 0.5168(16) -0.2231(34) 0.3619(18)
O10? O 0.5229(8) -0.2875(19) 0.3995(9)
O11? O 0.4532(10) 0.0869(24) 0.2472(10)
O12? O 0.5066(12) -0.1598(26) 0.3231(12)
O13? O 0.5278(10) -0.1539(24) 0.3490(12)
loop_
_geom_bond_atom_site_label_1
_geom_bond_atom_site_label_2
_geom_bond_site_symmetry_1
_geom_bond_site_symmetry_2
Zn1 N2 1_555 1_555
N1 H1 1_555 1_555
N2 C11 1_555 1_555
O1 Zn1 1_555 1_555
O2 C10 1_555 1_555
O3 C10 1_555 1_555
O4 C13 1_555 1_555
O5 Zn1 1_555 1_555
C1 O1 1_555 1_555
C2 C1 1_555 1_555
C3 C2 1_555 1_555
H2 C3 1_555 1_555
C4 C3 1_555 1_555
C5 C4 1_555 1_555
H3 C5 1_555 1_555
C6 C1 1_555 1_555
C7 C4 1_555 1_555
H4 C7 1_555 1_555
H5 C7 1_555 1_555
H6 C7 1_555 1_555
C8 N1 1_555 1_555
H7 C8 1_555 1_555
C9 N1 1_555 1_555
H8 C9 1_555 1_555
H9 C9 1_555 1_555
C10 C9 1_555 1_555
C11 C6 1_555 1_555
H10 C11 1_555 1_555
C12 N2 1_555 1_555
H11 C12 1_555 1_555
H12 C12 1_555 1_555
C13 O5 1_555 1_555
Zn1D O2 1_555 1_555
Zn1G O4 1_555 1_555
O2D Zn1 1_555 1_555
O4G Zn1 1_555 1_555
C2 C8 1_555 1_555
C5 C6 1_555 1_555
C12 C13 1_555 1_555

#END
