
#######################################################################
#
#                 Cambridge Crystallographic Data Centre
#                                CCDC 
#
#######################################################################
#
# If this CIF has been generated from an entry in the Cambridge 
# Structural Database, then it will include bibliographic, chemical, 
# crystal, experimental, refinement or atomic coordinate data resulting 
# from the CCDC's data processing and validation procedures.
#
#######################################################################

data_KATTUV
_symmetry_cell_setting           monoclinic
_symmetry_space_group_name_H-M   'P 21/m'
_symmetry_Int_Tables_number      11
_space_group_name_Hall           '-P 2yb'
loop_
_symmetry_equiv_pos_site_id
_symmetry_equiv_pos_as_xyz
1 x,y,z
2 -x,1/2+y,-z
3 -x,-y,-z
4 x,1/2-y,z
_cell_length_a                   7.7062(3)
_cell_length_b                   14.8874(6)
_cell_length_c                   14.4690(6)
_cell_angle_alpha                90
_cell_angle_beta                 96.565(2)
_cell_angle_gamma                90
_cell_volume                     1649.08
loop_
_atom_site_label
_atom_site_type_symbol
_atom_site_fract_x
_atom_site_fract_y
_atom_site_fract_z
Fe1 Fe 0.66312(9) 0.7500 0.31083(4)
Mn1 Mn 1.0000 1.0000 0.5000
S1 S 0.6113(2) 0.7500 -0.03470(9)
C1 C 0.4769(6) 0.9210(2) 0.2318(3)
H1 H 0.4581 0.9462 0.2887
C2 C 0.4297(6) 0.9615(3) 0.1477(3)
H2 H 0.3791 1.0178 0.1370
C3 C 0.4730(5) 0.9017(3) 0.0834(3)
H3 H 0.4550 0.9091 0.0192
C4 C 1.0286(7) 0.7500 0.2436(4)
H4 H 1.0918 0.7500 0.3023
C5 C 1.1027(7) 0.7500 0.1609(5)
H5 H 1.2210 0.7500 0.1535
C6 C 0.9631(7) 0.7500 0.0914(4)
H6 H 0.9695 0.7500 0.0276
C7 C 0.6330(6) 0.7500 0.0965(3)
C8 C 0.7759(5) 0.8388(2) 0.3881(2)
C9 C 0.4695(7) 0.7500 0.3819(3)
C10 C 0.9840(7) 1.0194(3) 0.2888(3)
H7 H 1.0077 0.9583 0.2953
C11 C 0.9372(8) 0.9918(3) 0.1203(3)
H8 H 1.0458 0.9938 0.0938
H9 H 0.8448 1.0130 0.0754
H10 H 0.9133 0.9311 0.1373
C12 C 0.9638(7) 1.1373(3) 0.1833(3)
H11 H 1.0066 1.1693 0.2389
H12 H 0.8516 1.1607 0.1592
H13 H 1.0440 1.1446 0.1377
N1 N 0.5521(4) 0.84197(19) 0.22319(18)
N2 N 0.5465(4) 0.82990(19) 0.12852(18)
N3 N 0.8571(5) 0.7500 0.2282(3)
N4 N 0.8164(6) 0.7500 0.1339(3)
N5 N 0.8481(5) 0.8915(2) 0.4377(3)
N6 N 0.3490(7) 0.7500 0.4207(3)
N7 N 0.9488(6) 1.0490(3) 0.2032(3)
O1 O 0.7009(5) 0.6685(2) -0.05461(19)
O2 O 0.4294(7) 0.7500 -0.0546(3)
O3 O 0.9892(5) 1.0616(2) 0.3594(2)
O4 O 1.2513(4) 0.9327(2) 0.4727(3)
H14 H 1.2889 0.8804 0.4390
H15 H 1.2683 0.8971 0.5274
Mn1C Mn 1.0000 0.5000 0.5000
C1C C 0.4769(6) 0.5790(2) 0.2318(3)
H1C H 0.4581 0.5538 0.2887
C2C C 0.4297(6) 0.5385(3) 0.1477(3)
H2C H 0.3791 0.4822 0.1370
C3C C 0.4730(5) 0.5983(3) 0.0834(3)
H3C H 0.4550 0.5909 0.0192
C8C C 0.7759(5) 0.6612(2) 0.3881(2)
C10B C 1.0160(7) 0.9806(3) 0.7112(3)
H7B H 0.9923 1.0417 0.7047
C11B C 1.0628(8) 1.0082(3) 0.8797(3)
H8B H 0.9542 1.0062 0.9062
H9B H 1.1552 0.9870 0.9246
H10B H 1.0867 1.0689 0.8627
C12B C 1.0362(7) 0.8627(3) 0.8167(3)
H11B H 0.9934 0.8307 0.7611
H12B H 1.1484 0.8393 0.8408
H13B H 0.9560 0.8554 0.8623
N1C N 0.5521(4) 0.65803(19) 0.22319(18)
N2C N 0.5465(4) 0.67010(19) 0.12852(18)
N5C N 0.8481(5) 0.6085(2) 0.4377(3)
N5B N 1.1519(5) 1.1085(2) 0.5623(3)
N7B N 1.0512(6) 0.9510(3) 0.7968(3)
O1C O 0.7009(5) 0.8315(2) -0.05461(19)
O3B O 1.0108(5) 0.9384(2) 0.6406(2)
O4B O 0.7487(4) 1.0673(2) 0.5273(3)
H14B H 0.7111 1.1196 0.5610
H15B H 0.7317 1.1029 0.4726
C13 C 0.6383(8) 0.8383(4) 0.6141(3)
H16 H 0.7312 0.8286 0.5764
H17 H 0.6853 0.8621 0.6734
H18 H 0.5559 0.8802 0.5836
C14 C 0.3669(12) 0.7500 0.6543(5)
H19 H 0.2783 0.7500 0.6049
N8 N 0.5472(9) 0.7500 0.6283(4)
O5 O 0.3184(7) 0.7500 0.7323(3)
C13C C 0.6383(8) 0.6617(4) 0.6141(3)
H16C H 0.7312 0.6714 0.5764
H17C H 0.6853 0.6379 0.6734
H18C H 0.5559 0.6198 0.5836
loop_
_geom_bond_atom_site_label_1
_geom_bond_atom_site_label_2
_geom_bond_site_symmetry_1
_geom_bond_site_symmetry_2
Fe1 C8 1_555 1_555
Mn1 N5 1_555 1_555
S1 C7 1_555 1_555
C1 H1 1_555 1_555
C2 C1 1_555 1_555
H2 C2 1_555 1_555
C3 C2 1_555 1_555
H3 C3 1_555 1_555
C4 H4 1_555 1_555
C5 C4 1_555 1_555
H5 C5 1_555 1_555
C6 C5 1_555 1_555
H6 C6 1_555 1_555
C7 N2 1_555 1_555
C8 N5 1_555 1_555
C9 Fe1 1_555 1_555
C10 H7 1_555 1_555
C11 H8 1_555 1_555
H9 C11 1_555 1_555
H10 C11 1_555 1_555
C12 H11 1_555 1_555
H12 C12 1_555 1_555
H13 C12 1_555 1_555
N1 Fe1 1_555 1_555
N2 C3 1_555 1_555
N3 Fe1 1_555 1_555
N4 C6 1_555 1_555
N6 C9 1_555 1_555
N7 C10 1_555 1_555
O1 S1 1_555 1_555
O2 S1 1_555 1_555
O3 Mn1 1_555 1_555
O4 Mn1 1_555 1_555
H14 O4 1_555 1_555
H15 O4 1_555 1_555
C13 H16 1_555 1_555
H17 C13 1_555 1_555
H18 C13 1_555 1_555
C14 H19 1_555 1_555
N8 C13 1_555 1_555
O5 C14 1_555 1_555
Mn1C N5C 1_555 1_555
C1C H1C 1_555 1_555
C2C C1C 1_555 1_555
H2C C2C 1_555 1_555
C3C C2C 1_555 1_555
H3C C3C 1_555 1_555
C8C Fe1 1_555 1_555
C10B H7B 1_555 1_555
C11B H8B 1_555 1_555
H9B C11B 1_555 1_555
H10B C11B 1_555 1_555
C12B H11B 1_555 1_555
H12B C12B 1_555 1_555
H13B C12B 1_555 1_555
N1C Fe1 1_555 1_555
N2C C7 1_555 1_555
N5C C8C 1_555 1_555
N5B Mn1 1_555 1_555
N7B C10B 1_555 1_555
O1C S1 1_555 1_555
O3B Mn1 1_555 1_555
O4B Mn1 1_555 1_555
H14B O4B 1_555 1_555
H15B O4B 1_555 1_555
C13C N8 1_555 1_555
H16C C13C 1_555 1_555
H17C C13C 1_555 1_555
H18C C13C 1_555 1_555
C1 N1 1_555 1_555
C4 N3 1_555 1_555
C7 N4 1_555 1_555
C10 O3 1_555 1_555
C11 N7 1_555 1_555
C12 N7 1_555 1_555
N1 N2 1_555 1_555
N3 N4 1_555 1_555
C14 N8 1_555 1_555
C1C N1C 1_555 1_555
C3C N2C 1_555 1_555
C10B O3B 1_555 1_555
C11B N7B 1_555 1_555
C12B N7B 1_555 1_555
N1C N2C 1_555 1_555

#END
