
#######################################################################
#
#                 Cambridge Crystallographic Data Centre
#                                CCDC 
#
#######################################################################
#
# If this CIF has been generated from an entry in the Cambridge 
# Structural Database, then it will include bibliographic, chemical, 
# crystal, experimental, refinement or atomic coordinate data resulting 
# from the CCDC's data processing and validation procedures.
#
#######################################################################

data_KATVEH
_symmetry_cell_setting           monoclinic
_symmetry_space_group_name_H-M   'C 2/c'
_symmetry_Int_Tables_number      15
_space_group_name_Hall           '-C 2yn'
loop_
_symmetry_equiv_pos_site_id
_symmetry_equiv_pos_as_xyz
1 x,y,z
2 1/2+x,1/2+y,z
3 -x,y,1/2-z
4 1/2-x,1/2+y,1/2-z
5 -x,-y,-z
6 1/2-x,1/2-y,-z
7 x,-y,1/2+z
8 1/2+x,1/2-y,1/2+z
_cell_length_a                   22.670(8)
_cell_length_b                   27.223(10)
_cell_length_c                   10.787(4)
_cell_angle_alpha                90
_cell_angle_beta                 108.674(5)
_cell_angle_gamma                90
_cell_volume                     6306.69
loop_
_atom_site_label
_atom_site_type_symbol
_atom_site_fract_x
_atom_site_fract_y
_atom_site_fract_z
Cu1 Cu 0.24391(3) -0.00398(2) 0.71164(7)
N1 N 0.2676(2) 0.06572(17) 0.6832(5)
N2 N 0.3502(3) 0.2240(2) 0.5458(8)
N3 N 0.3516(3) 0.27574(19) 0.5503(7)
N4 N 0.2769(2) 0.42999(17) 0.7244(5)
O1 O 0.2978(2) 0.24826(13) 0.6724(5)
O2 O 0.15695(18) 0.01016(14) 0.6340(4)
O3 O 0.13438(19) 0.03979(16) 0.8055(4)
O4 O 0.3459(2) 0.0270(2) 0.9516(5)
O5 O 0.33177(18) -0.02034(14) 0.7791(5)
O6 O 0.24131(18) -0.03421(17) 0.5189(4)
H1 H 0.2705(16) -0.036(2) 0.485(5)
H2 H 0.2060(11) -0.034(3) 0.460(4)
C1 C 0.2526(3) 0.3900(2) 0.7613(7)
H3 H 0.2255 0.3942 0.8095
C2 C 0.2656(4) 0.3429(2) 0.7316(8)
H4 H 0.2474 0.3159 0.7578
C3 C 0.3066(3) 0.3369(2) 0.6619(7)
C4 C 0.3307(3) 0.3782(2) 0.6238(7)
H5 H 0.3579 0.3753 0.5755
C5 C 0.3151(3) 0.42288(19) 0.6561(6)
H6 H 0.3322 0.4503 0.6288
C6 C 0.3209(4) 0.2876(2) 0.6231(8)
C7 C 0.3202(3) 0.2097(2) 0.6156(8)
C8 C 0.2432(3) 0.1045(2) 0.7234(7)
H7 H 0.2136 0.0992 0.7652
C9 C 0.2593(3) 0.1519(2) 0.7067(7)
H8 H 0.2414 0.1780 0.7372
C10 C 0.3027(3) 0.1601(2) 0.6434(7)
C11 C 0.3286(3) 0.1205(2) 0.6025(7)
H9 H 0.3588 0.1248 0.5618
C12 C 0.3096(3) 0.0743(2) 0.6223(6)
H10 H 0.3266 0.0476 0.5922
C13 C 0.1182(3) 0.0245(2) 0.6914(7)
C14 C 0.0329(3) -0.0346(2) 0.6033(7)
H11 H 0.0405 -0.0472 0.6912
H12 H 0.0584 -0.0531 0.5628
C15 C 0.0511(3) 0.0205(2) 0.6098(6)
H13 H 0.0263 0.0382 0.6547
C16 C 0.0369(3) 0.0411(2) 0.4771(6)
H14 H 0.0623 0.0248 0.4322
H15 H 0.0473 0.0758 0.4832
C17 C 0.3659(3) 0.0006(3) 0.8812(7)
C18 C 0.4690(3) 0.0411(3) 0.9203(8)
H16 H 0.4605 0.0626 0.9843
H17 H 0.4537 0.0570 0.8354
C19 C 0.4362(3) -0.0073(3) 0.9163(6)
H18 H 0.4439 -0.0279 0.8487
C20 C 0.4609(3) -0.0326(3) 1.0436(9)
H19 H 0.4400 -0.0640 1.0393
H20 H 0.4525 -0.0130 1.1110
Cu1C Cu 0.25609(3) -0.50398(2) 0.78836(7)
Cu1C_2 Cu 0.25609(3) 0.49602(2) 0.78836(7)
Cu1D Cu -0.24391(3) 0.00398(2) 0.28836(7)
Cu1D_2 Cu 0.75609(3) 0.00398(2) 1.28836(7)
N1C N 0.2324(2) -0.43428(17) 0.8168(5)
N2C N 0.1498(3) -0.2760(2) 0.9542(8)
N3C N 0.1484(3) -0.22426(19) 0.9497(7)
N4C N 0.2231(2) -0.07001(17) 0.7756(5)
N4_2 N 0.2769(2) -0.57001(17) 0.7244(5)
O1C O 0.2022(2) -0.25174(13) 0.8276(5)
O2D O -0.15695(18) -0.01016(14) 0.3660(4)
O2C O 0.34305(18) -0.48984(14) 0.8660(4)
O3D O -0.13438(19) -0.03979(16) 0.1945(4)
O4D O 0.6541(2) -0.0270(2) 1.0484(5)
O5D O 0.66823(18) 0.02034(14) 1.2209(5)
O5C O 0.16823(18) -0.52034(14) 0.7209(5)
O6C O 0.25869(18) -0.53421(17) 0.9811(4)
H1C H 0.2295(16) -0.536(2) 1.015(5)
H2C H 0.2940(11) -0.534(3) 1.040(4)
C1C C 0.2474(3) -0.1100(2) 0.7387(7)
H3C H 0.2745 -0.1058 0.6905
C2C C 0.2344(4) -0.1571(2) 0.7684(8)
H4C H 0.2526 -0.1841 0.7422
C3C C 0.1934(3) -0.1631(2) 0.8381(7)
C4C C 0.1693(3) -0.1218(2) 0.8762(7)
H5C H 0.1421 -0.1247 0.9245
C5C C 0.1849(3) -0.07712(19) 0.8439(6)
H6C H 0.1678 -0.0497 0.8712
C6C C 0.1791(4) -0.2124(2) 0.8769(8)
C7C C 0.1798(3) -0.2903(2) 0.8844(8)
C8C C 0.2568(3) -0.3955(2) 0.7766(7)
H7C H 0.2864 -0.4008 0.7348
C9C C 0.2407(3) -0.3481(2) 0.7933(7)
H8C H 0.2586 -0.3220 0.7628
C10C C 0.1973(3) -0.3399(2) 0.8566(7)
C11C C 0.1714(3) -0.3795(2) 0.8975(7)
H9C H 0.1412 -0.3752 0.9382
C12C C 0.1904(3) -0.4257(2) 0.8777(6)
H10C H 0.1734 -0.4524 0.9078
C13D C -0.1182(3) -0.0245(2) 0.3086(7)
C14D C -0.0329(3) 0.0346(2) 0.3967(7)
H11D H -0.0405 0.0472 0.3088
H12D H -0.0584 0.0531 0.4372
C15D C -0.0511(3) -0.0205(2) 0.3902(6)
H13D H -0.0263 -0.0382 0.3453
C16D C -0.0369(3) -0.0411(2) 0.5229(6)
H14D H -0.0623 -0.0248 0.5678
H15D H -0.0473 -0.0758 0.5168
C17D C 0.6341(3) -0.0006(3) 1.1188(7)
C18D C 0.5310(3) -0.0411(3) 1.0797(8)
H16D H 0.5395 -0.0626 1.0157
H17D H 0.5463 -0.0570 1.1646
C19D C 0.5638(3) 0.0073(3) 1.0837(6)
H18D H 0.5561 0.0279 1.1513
C20D C 0.5391(3) 0.0326(3) 0.9564(9)
H19D H 0.5600 0.0640 0.9607
H20D H 0.5475 0.0130 0.8890
O7 O 0.3777(10) 0.1059(10) 0.120(3)
O8 O 0.0726(10) 0.1233(8) 0.848(2)
loop_
_geom_bond_atom_site_label_1
_geom_bond_atom_site_label_2
_geom_bond_site_symmetry_1
_geom_bond_site_symmetry_2
Cu1 N1 1_555 1_555
N1 C8 1_555 1_555
N2 N3 1_555 1_555
N3 C6 1_555 1_555
N4 C1 1_555 1_555
O1 C6 1_555 1_555
O2 Cu1 1_555 1_555
O3 C13 1_555 1_555
O4 C17 1_555 1_555
O5 Cu1 1_555 1_555
O6 Cu1 1_555 1_555
H1 O6 1_555 1_555
H2 O6 1_555 1_555
C1 H3 1_555 1_555
C2 C1 1_555 1_555
H4 C2 1_555 1_555
C3 C2 1_555 1_555
C4 C3 1_555 1_555
H5 C4 1_555 1_555
C5 N4 1_555 1_555
H6 C5 1_555 1_555
C6 C3 1_555 1_555
C7 N2 1_555 1_555
C8 H7 1_555 1_555
C9 C8 1_555 1_555
H8 C9 1_555 1_555
C10 C7 1_555 1_555
C11 C10 1_555 1_555
H9 C11 1_555 1_555
C12 N1 1_555 1_555
H10 C12 1_555 1_555
C13 O2 1_555 1_555
C14 H11 1_555 1_555
H12 C14 1_555 1_555
C15 C13 1_555 1_555
H13 C15 1_555 1_555
C16 C15 1_555 1_555
H14 C16 1_555 1_555
H15 C16 1_555 1_555
C17 O5 1_555 1_555
C18 H16 1_555 1_555
H17 C18 1_555 1_555
C19 C17 1_555 1_555
H18 C19 1_555 1_555
C20 C19 1_555 1_555
H19 C20 1_555 1_555
H20 C20 1_555 1_555
Cu1C N1C 1_555 1_555
Cu1C_2 N4 1_555 1_555
Cu1D O2D 1_555 1_555
Cu1D_2 O5D 1_555 1_555
N1C C8C 1_555 1_555
N2C N3C 1_555 1_555
N3C C6C 1_555 1_555
N4C Cu1 1_555 1_555
N4_2 Cu1C 1_555 1_555
O1C C6C 1_555 1_555
O2D C13D 1_555 1_555
O2C Cu1C 1_555 1_555
O3D C13D 1_555 1_555
O4D C17D 1_555 1_555
O5D C17D 1_555 1_555
O5C Cu1C 1_555 1_555
O6C Cu1C 1_555 1_555
H1C O6C 1_555 1_555
H2C O6C 1_555 1_555
C1C N4C 1_555 1_555
H3C C1C 1_555 1_555
C2C C1C 1_555 1_555
H4C C2C 1_555 1_555
C3C C2C 1_555 1_555
C4C C3C 1_555 1_555
H5C C4C 1_555 1_555
C5C N4C 1_555 1_555
H6C C5C 1_555 1_555
C6C C3C 1_555 1_555
C7C N2C 1_555 1_555
C8C H7C 1_555 1_555
C9C C8C 1_555 1_555
H8C C9C 1_555 1_555
C10C C7C 1_555 1_555
C11C C10C 1_555 1_555
H9C C11C 1_555 1_555
C12C N1C 1_555 1_555
H10C C12C 1_555 1_555
C13D C15D 1_555 1_555
C14D C16 1_555 1_555
H11D C14D 1_555 1_555
H12D C14D 1_555 1_555
C15D C14D 1_555 1_555
H13D C15D 1_555 1_555
C16D C14 1_555 1_555
H14D C16D 1_555 1_555
H15D C16D 1_555 1_555
C17D C19D 1_555 1_555
C18D C20 1_555 1_555
H16D C18D 1_555 1_555
H17D C18D 1_555 1_555
C19D C18D 1_555 1_555
H18D C19D 1_555 1_555
C20D C18 1_555 1_555
H19D C20D 1_555 1_555
H20D C20D 1_555 1_555
O1 C7 1_555 1_555
C4 C5 1_555 1_555
C9 C10 1_555 1_555
C11 C12 1_555 1_555
C14 C15 1_555 1_555
C18 C19 1_555 1_555
O1C C7C 1_555 1_555
C4C C5C 1_555 1_555
C9C C10C 1_555 1_555
C11C C12C 1_555 1_555
C15D C16D 1_555 1_555
C19D C20D 1_555 1_555

#END
