
#######################################################################
#
#                 Cambridge Crystallographic Data Centre
#                                CCDC 
#
#######################################################################
#
# If this CIF has been generated from an entry in the Cambridge 
# Structural Database, then it will include bibliographic, chemical, 
# crystal, experimental, refinement or atomic coordinate data resulting 
# from the CCDC's data processing and validation procedures.
#
#######################################################################

data_KATZIP
_symmetry_cell_setting           triclinic
_symmetry_space_group_name_H-M   'P -1'
_symmetry_Int_Tables_number      2
_space_group_name_Hall           '-P 1'
loop_
_symmetry_equiv_pos_site_id
_symmetry_equiv_pos_as_xyz
1 x,y,z
2 -x,-y,-z
_cell_length_a                   8.201(2)
_cell_length_b                   10.450(3)
_cell_length_c                   11.788(3)
_cell_angle_alpha                108.228(3)
_cell_angle_beta                 105.639(3)
_cell_angle_gamma                97.369(4)
_cell_volume                     898.716
loop_
_atom_site_label
_atom_site_type_symbol
_atom_site_fract_x
_atom_site_fract_y
_atom_site_fract_z
Ho1 Ho 0.583138(13) 0.922605(11) 0.845696(10)
C1 C 0.7541(4) 0.7076(3) 0.8439(3)
C2 C 0.8318(4) 0.5888(3) 0.8495(3)
H1 H 0.9439 0.6057 0.9050
C3 C 0.7480(5) 0.4601(3) 0.7788(4)
H2 H 0.6366 0.4473 0.7240
C4 C 0.8120(6) 0.3326(4) 0.7769(5)
H3 H 0.9256 0.3574 0.8388
H4 H 0.8181 0.2854 0.6945
H5 H 0.7334 0.2727 0.7960
C5 C 0.2554(3) 0.7785(3) 0.6693(3)
C6 C 0.0819(4) 0.7004(3) 0.5767(3)
H6 H 0.0682 0.6755 0.4912
C7 C -0.0534(4) 0.6642(3) 0.6083(3)
H7 H -0.0347 0.6855 0.6942
C8 C -0.2342(4) 0.5928(4) 0.5216(3)
H8 H -0.2394 0.5777 0.4360
H9 H -0.3128 0.6493 0.5433
H10 H -0.2668 0.5053 0.5297
C9 C 0.4404(3) 1.1665(3) 0.8912(2)
C10 C 0.3782(4) 1.2958(3) 0.9082(3)
H11 H 0.3619 1.3401 0.9847
C11 C 0.3443(4) 1.3520(3) 0.8206(3)
H12 H 0.3643 1.3078 0.7455
C12 C 0.2775(4) 1.4790(3) 0.8317(3)
H13 H 0.2608 1.5143 0.9123
H14 H 0.1686 1.4574 0.7655
H15 H 0.3600 1.5476 0.8246
C13 C 0.9364(4) 1.0068(3) 0.7474(3)
H16 H 0.9963 1.0262 0.8323
C14 C 1.0318(4) 1.0220(3) 0.6707(3)
H17 H 1.1525 1.0503 0.7046
C15 C 0.9498(3) 0.9954(3) 0.5430(2)
C16 C 0.7680(4) 0.9569(3) 0.5013(3)
H18 H 0.7050 0.9406 0.4177
C17 C 0.6820(4) 0.9432(3) 0.5840(3)
H19 H 0.5611 0.9168 0.5529
N1 N 0.7614(3) 0.9655(2) 0.7069(2)
O1 O 0.8426(2) 0.8312(2) 0.91042(19)
O2 O 0.5986(3) 0.6880(2) 0.7762(2)
O3 O 0.2847(2) 0.8115(2) 0.78759(17)
O4 O 0.3763(3) 0.8137(2) 0.63085(18)
O5 O 0.4829(2) 1.11057(19) 0.79588(17)
O6 O 0.4471(2) 1.10939(19) 0.97259(17)
O7 O 0.8032(3) 1.1169(2) 0.99949(19)
H20 H 0.784(5) 1.152(4) 1.068(4)
H21 H 0.907(5) 1.133(4) 1.018(3)
Ho1A Ho 1.416862(13) 1.077395(11) 0.154304(10)
Ho1A_2 Ho 0.416862(13) 1.077395(11) 1.154304(10)
C1A C 1.2459(4) 1.2924(3) 0.1561(3)
C2A C 1.1682(4) 1.4112(3) 0.1505(3)
H1A H 1.0561 1.3943 0.0950
C3A C 1.2520(5) 1.5399(3) 0.2212(4)
H2A H 1.3634 1.5527 0.2760
C4A C 1.1880(6) 1.6674(4) 0.2231(5)
H3A H 1.0744 1.6426 0.1612
H4A H 1.1819 1.7146 0.3055
H5A H 1.2666 1.7273 0.2040
C5A C 1.7446(3) 1.2215(3) 0.3307(3)
C6A C 1.9181(4) 1.2996(3) 0.4233(3)
H6A H 1.9318 1.3245 0.5088
C7A C 2.0534(4) 1.3358(3) 0.3917(3)
H7A H 2.0347 1.3145 0.3058
C8A C 2.2342(4) 1.4072(4) 0.4784(3)
H8A H 2.2394 1.4223 0.5640
H9A H 2.3128 1.3507 0.4567
H10A H 2.2668 1.4947 0.4703
C9A C 0.5596(3) 0.8335(3) 1.1088(2)
C10A C 0.6218(4) 0.7042(3) 1.0918(3)
H11A H 0.6381 0.6599 1.0153
C11A C 0.6557(4) 0.6480(3) 1.1794(3)
H12A H 0.6357 0.6922 1.2545
C12A C 0.7225(4) 0.5210(3) 1.1683(3)
H13A H 0.7392 0.4857 1.0877
H14A H 0.8314 0.5426 1.2345
H15A H 0.6400 0.4524 1.1754
C13A C 1.0636(4) 0.9932(3) 0.2526(3)
H16A H 1.0037 0.9738 0.1677
C14A C 0.9682(4) 0.9780(3) 0.3293(3)
H17A H 0.8475 0.9497 0.2954
C15A C 1.0502(3) 1.0046(3) 0.4570(2)
C16A C 1.2320(4) 1.0431(3) 0.4987(3)
H18A H 1.2950 1.0594 0.5823
C17A C 1.3180(4) 1.0568(3) 0.4160(3)
H19A H 1.4389 1.0832 0.4471
N1A N 1.2386(3) 1.0345(2) 0.2931(2)
O1A O 1.1574(2) 1.1688(2) 0.08958(19)
O2A O 1.4014(3) 1.3120(2) 0.2238(2)
O3A O 1.7153(2) 1.1885(2) 0.21241(17)
O4A O 1.6237(3) 1.1863(2) 0.36915(18)
O5A O 0.5171(2) 0.88943(19) 1.20412(17)
O5A_2 O 1.5171(2) 0.88943(19) 0.20412(17)
O6A O 0.5529(2) 0.89061(19) 1.02741(17)
O6_2 O 1.4471(2) 1.10939(19) -0.02741(17)
O6A_2 O 1.5529(2) 0.89061(19) 0.02741(17)
O7A O 1.1968(3) 0.8831(2) 0.00051(19)
H20A H 1.216(5) 0.848(4) -0.068(4)
H21A H 1.093(5) 0.867(4) -0.018(3)
loop_
_geom_bond_atom_site_label_1
_geom_bond_atom_site_label_2
_geom_bond_site_symmetry_1
_geom_bond_site_symmetry_2
Ho1 N1 1_555 1_555
C1 C2 1_555 1_555
C2 H1 1_555 1_555
C3 C2 1_555 1_555
H2 C3 1_555 1_555
C4 C3 1_555 1_555
H3 C4 1_555 1_555
H4 C4 1_555 1_555
H5 C4 1_555 1_555
C5 C6 1_555 1_555
C6 H6 1_555 1_555
C7 C6 1_555 1_555
H7 C7 1_555 1_555
C8 C7 1_555 1_555
H8 C8 1_555 1_555
H9 C8 1_555 1_555
H10 C8 1_555 1_555
C9 C10 1_555 1_555
C10 H11 1_555 1_555
C11 C10 1_555 1_555
H12 C11 1_555 1_555
C12 C11 1_555 1_555
H13 C12 1_555 1_555
H14 C12 1_555 1_555
H15 C12 1_555 1_555
C13 H16 1_555 1_555
C14 C13 1_555 1_555
H17 C14 1_555 1_555
C15 C14 1_555 1_555
C16 C15 1_555 1_555
H18 C16 1_555 1_555
C17 C16 1_555 1_555
H19 C17 1_555 1_555
N1 C13 1_555 1_555
O1 Ho1 1_555 1_555
O2 Ho1 1_555 1_555
O3 Ho1 1_555 1_555
O4 Ho1 1_555 1_555
O5 Ho1 1_555 1_555
O6 Ho1 1_555 1_555
O7 Ho1 1_555 1_555
H20 O7 1_555 1_555
H21 O7 1_555 1_555
Ho1A N1A 1_555 1_555
Ho1A_2 O6 1_555 1_555
C1A C2A 1_555 1_555
C2A H1A 1_555 1_555
C3A C2A 1_555 1_555
H2A C3A 1_555 1_555
C4A C3A 1_555 1_555
H3A C4A 1_555 1_555
H4A C4A 1_555 1_555
H5A C4A 1_555 1_555
C5A C6A 1_555 1_555
C6A H6A 1_555 1_555
C7A C6A 1_555 1_555
H7A C7A 1_555 1_555
C8A C7A 1_555 1_555
H8A C8A 1_555 1_555
H9A C8A 1_555 1_555
H10A C8A 1_555 1_555
C9A C10A 1_555 1_555
C10A H11A 1_555 1_555
C11A C10A 1_555 1_555
H12A C11A 1_555 1_555
C12A C11A 1_555 1_555
H13A C12A 1_555 1_555
H14A C12A 1_555 1_555
H15A C12A 1_555 1_555
C13A H16A 1_555 1_555
C14A C13A 1_555 1_555
H17A C14A 1_555 1_555
C15A C15 1_555 1_555
C16A C15A 1_555 1_555
H18A C16A 1_555 1_555
C17A C16A 1_555 1_555
H19A C17A 1_555 1_555
N1A C13A 1_555 1_555
O1A Ho1A 1_555 1_555
O2A Ho1A 1_555 1_555
O3A Ho1A 1_555 1_555
O4A Ho1A 1_555 1_555
O5A Ho1A_2 1_555 1_555
O5A_2 Ho1A 1_555 1_555
O6A Ho1 1_555 1_555
O6_2 Ho1A 1_555 1_555
O6A_2 Ho1A 1_555 1_555
O7A Ho1A 1_555 1_555
H20A O7A 1_555 1_555
H21A O7A 1_555 1_555
C1 O1 1_555 1_555
C1 O2 1_555 1_555
C5 O3 1_555 1_555
C5 O4 1_555 1_555
C9 O5 1_555 1_555
C9 O6 1_555 1_555
C17 N1 1_555 1_555
Ho1A_2 O6A 1_555 1_555
C1A O1A 1_555 1_555
C1A O2A 1_555 1_555
C5A O3A 1_555 1_555
C5A O4A 1_555 1_555
C9A O5A 1_555 1_555
C9A O6A 1_555 1_555
C14A C15A 1_555 1_555
C17A N1A 1_555 1_555

#END
