
#######################################################################
#
#                 Cambridge Crystallographic Data Centre
#                                CCDC 
#
#######################################################################
#
# If this CIF has been generated from an entry in the Cambridge 
# Structural Database, then it will include bibliographic, chemical, 
# crystal, experimental, refinement or atomic coordinate data resulting 
# from the CCDC's data processing and validation procedures.
#
#######################################################################

data_KAVCUG
_symmetry_cell_setting           monoclinic
_symmetry_space_group_name_H-M   'C 2/c'
_symmetry_Int_Tables_number      15
_space_group_name_Hall           '-C 2yn'
loop_
_symmetry_equiv_pos_site_id
_symmetry_equiv_pos_as_xyz
1 x,y,z
2 1/2+x,1/2+y,z
3 -x,y,1/2-z
4 1/2-x,1/2+y,1/2-z
5 -x,-y,-z
6 1/2-x,1/2-y,-z
7 x,-y,1/2+z
8 1/2+x,1/2-y,1/2+z
_cell_length_a                   23.589(12)
_cell_length_b                   13.646(5)
_cell_length_c                   25.115(11)
_cell_angle_alpha                90
_cell_angle_beta                 108.199(14)
_cell_angle_gamma                90
_cell_volume                     7680
loop_
_atom_site_label
_atom_site_type_symbol
_atom_site_fract_x
_atom_site_fract_y
_atom_site_fract_z
Ag1 Ag 0.10050(4) 0.64943(7) -0.25006(4)
Ag2 Ag 0.0000 0.95098(10) -0.2500
N1 N 0.0626(5) 1.0279(7) -0.1722(4)
N2 N 0.1458(9) 1.0950(13) -0.0755(6)
N3 N 0.0964(4) 0.8896(8) -0.2339(5)
N4 N 0.1104(4) 0.8156(8) -0.2653(5)
N5 N -0.1305(4) 0.6676(9) -0.1726(4)
N6 N -0.1566(7) 0.7108(17) -0.0746(7)
N7 N 0.1459(5) 0.5567(7) -0.1724(4)
N8 N 0.1878(11) 0.4477(15) -0.0733(7)
N9 N -0.0297(4) 0.5436(6) -0.2652(4)
Ag3 Ag -0.2377(2) 0.3529(4) -0.5156(2)
C1 C 0.0453(8) 1.0967(9) -0.1405(6)
C2 C -0.0133(8) 1.1334(11) -0.1588(8)
H1 H -0.0404 1.1162 -0.1932
C3 C -0.0282(12) 1.1984(13) -0.1211(11)
H2 H -0.0677 1.2187 -0.1296
C4 C 0.0090(14) 1.2300(16) -0.0770(12)
H3 H -0.0040 1.2784 -0.0575
C5 C 0.0671(14) 1.1998(16) -0.0549(8)
H4 H 0.0922 1.2221 -0.0206
C6 C 0.1600(8) 1.0272(15) -0.1061(8)
H5 H 0.1981 1.0005 -0.0947
C7 C 0.1176(7) 0.9945(10) -0.1562(5)
C8 C 0.1359(5) 0.9221(11) -0.1885(7)
C9 C 0.2004(6) 0.8831(14) -0.1724(9)
H6 H 0.2000 0.8161 -0.1842
H7 H 0.2231 0.9219 -0.1904
H8 H 0.2184 0.8870 -0.1324
C10 C -0.1281(9) 0.9451(13) -0.1716(10)
H9 H -0.1624 0.9759 -0.1972
H10 H -0.1318 0.9452 -0.1346
H11 H -0.0928 0.9804 -0.1713
C11 C -0.1236(6) 0.8391(11) -0.1902(7)
C12 C -0.1342(5) 0.7597(13) -0.1568(5)
C13 C -0.1481(8) 0.7797(18) -0.1077(8)
H12 H -0.1514 0.8447 -0.0981
C14 C -0.1534(6) 0.6121(19) -0.0889(6)
C15 C -0.1579(10) 0.530(2) -0.0576(9)
H13 H -0.1606 0.5389 -0.0217
C16 C -0.1584(8) 0.438(3) -0.0770(14)
H14 H -0.1678 0.3857 -0.0573
C17 C -0.1455(7) 0.4198(16) -0.1249(9)
H15 H -0.1403 0.3559 -0.1353
C18 C -0.1403(6) 0.4958(14) -0.1574(6)
H16 H -0.1356 0.4824 -0.1921
C19 C -0.1415(6) 0.5941(15) -0.1414(6)
C20 C 0.0056(8) 0.4220(14) -0.1741(10)
H17 H -0.0297 0.4116 -0.2053
H18 H 0.0258 0.3606 -0.1630
H19 H -0.0051 0.4491 -0.1433
C21 C -0.0462(7) 0.4917(9) -0.3092(6)
C22 C 0.1096(8) 0.4995(10) -0.1561(5)
C23 C 0.1336(13) 0.4411(15) -0.1057(10)
H20 H -0.1085 0.3964 -0.4036
C24 C -0.2232(11) 0.5038(18) -0.4103(7)
C25 C -0.2841(13) 0.521(2) -0.4423(9)
H21 H -0.2987 0.4884 -0.4764
C26 C -0.3219(12) 0.580(2) -0.4271(9)
H22 H -0.3608 0.5874 -0.4508
C27 C -0.3032(7) 0.6317(14) -0.3756(9)
H23 H -0.3302 0.6705 -0.3649
C28 C -0.2440(7) 0.6239(12) -0.3410(7)
H24 H -0.2304 0.6560 -0.3067
C29 C -0.2065(7) 0.5653(11) -0.3608(5)
C30 C 0.0869(10) 1.1277(11) -0.0907(7)
Ag1B Ag -0.10050(4) 0.64943(7) -0.24994(4)
N1B N -0.0626(5) 1.0279(7) -0.3278(4)
N2B N -0.1458(9) 1.0950(13) -0.4245(6)
N3B N -0.0964(4) 0.8896(8) -0.2661(5)
N4B N -0.1104(4) 0.8156(8) -0.2347(5)
N5B N 0.1305(4) 0.6676(9) -0.3274(4)
N6B N 0.1566(7) 0.7108(17) -0.4254(7)
N7B N -0.1459(5) 0.5567(7) -0.3276(4)
N8B N -0.1878(11) 0.4477(15) -0.4267(7)
N9B N 0.0297(4) 0.5436(6) -0.2348(4)
Ag3B Ag 0.2377(2) 0.3529(4) 0.0156(2)
Ag3E Ag -0.2623(2) 0.1471(4) -0.4844(2)
C1B C -0.0453(8) 1.0967(9) -0.3595(6)
C2B C 0.0133(8) 1.1334(11) -0.3412(8)
H1B H 0.0404 1.1162 -0.3068
C3B C 0.0282(12) 1.1984(13) -0.3789(11)
H2B H 0.0677 1.2187 -0.3704
C4B C -0.0090(14) 1.2300(16) -0.4230(12)
H3B H 0.0040 1.2784 -0.4425
C5B C -0.0671(14) 1.1998(16) -0.4451(8)
H4B H -0.0922 1.2221 -0.4794
C6B C -0.1600(8) 1.0272(15) -0.3939(8)
H5B H -0.1981 1.0005 -0.4053
C7B C -0.1176(7) 0.9945(10) -0.3438(5)
C8B C -0.1359(5) 0.9221(11) -0.3115(7)
C9B C -0.2004(6) 0.8831(14) -0.3276(9)
H6B H -0.2000 0.8161 -0.3158
H7B H -0.2231 0.9219 -0.3096
H8B H -0.2184 0.8870 -0.3676
C10B C 0.1281(9) 0.9451(13) -0.3284(10)
H9B H 0.1624 0.9759 -0.3028
H10B H 0.1318 0.9452 -0.3654
H11B H 0.0928 0.9804 -0.3287
C11B C 0.1236(6) 0.8391(11) -0.3098(7)
C12B C 0.1342(5) 0.7597(13) -0.3432(5)
C13B C 0.1481(8) 0.7797(18) -0.3923(8)
H12B H 0.1514 0.8447 -0.4019
C14B C 0.1534(6) 0.6121(19) -0.4111(6)
C15B C 0.1579(10) 0.530(2) -0.4424(9)
H13B H 0.1606 0.5389 -0.4783
C16B C 0.1584(8) 0.438(3) -0.4230(14)
H14B H 0.1678 0.3857 -0.4427
C17B C 0.1455(7) 0.4198(16) -0.3751(9)
H15B H 0.1403 0.3559 -0.3647
C18B C 0.1403(6) 0.4958(14) -0.3426(6)
H16B H 0.1356 0.4824 -0.3079
C19B C 0.1415(6) 0.5941(15) -0.3586(6)
C20B C -0.0056(8) 0.4220(14) -0.3259(10)
H17B H 0.0297 0.4116 -0.2947
H18B H -0.0258 0.3606 -0.3370
H19B H 0.0051 0.4491 -0.3567
C21B C 0.0462(7) 0.4917(9) -0.1908(6)
C22B C -0.1096(8) 0.4995(10) -0.3439(5)
C23B C -0.1336(13) 0.4411(15) -0.3943(10)
H20B H 0.1085 0.3964 -0.0964
C24B C 0.2232(11) 0.5038(18) -0.0897(7)
C25B C 0.2841(13) 0.521(2) -0.0577(9)
H21B H 0.2987 0.4884 -0.0236
C26B C 0.3219(12) 0.580(2) -0.0729(9)
H22B H 0.3608 0.5874 -0.0492
C27B C 0.3032(7) 0.6317(14) -0.1244(9)
H23B H 0.3302 0.6705 -0.1351
C28B C 0.2440(7) 0.6239(12) -0.1590(7)
H24B H 0.2304 0.6560 -0.1933
C29B C 0.2065(7) 0.5653(11) -0.1392(5)
C30B C -0.0869(10) 1.1277(11) -0.4093(7)
F1 F 0.3574(7) -0.6658(11) 0.2399(8)
F2 F 0.3562(14) -0.7448(12) 0.1762(10)
F3 F 0.2802(7) -0.6707(15) 0.1824(11)
F4 F 0.2891(8) -0.8378(13) 0.1847(10)
F5 F 0.2726(7) -0.7558(13) 0.2399(8)
F6 F 0.3618(7) -0.8321(12) 0.2431(9)
P2 P 0.32133(17) -0.7497(3) 0.21463(18)
F7 F 0.5873(8) -0.200(2) 0.4559(11)
F8 F 0.5899(9) -0.3406(11) 0.4310(9)
F9 F 0.5020(8) -0.2481(18) 0.4335(9)
F10 F 0.5149(7) -0.3204(16) 0.3708(9)
F11 F 0.5254(11) -0.1607(11) 0.3835(10)
F12 F 0.5968(9) -0.2449(13) 0.3766(9)
P1 P 0.55277(19) -0.2507(3) 0.40826(19)
Ag4? Ag 0.2867(2) -0.6730(4) -0.0158(2)
Ag5? Ag 0.3151(2) -0.7741(4) 0.0163(2)
loop_
_geom_bond_atom_site_label_1
_geom_bond_atom_site_label_2
_geom_bond_site_symmetry_1
_geom_bond_site_symmetry_2
Ag1 N4 1_555 1_555
Ag2 N1 1_555 1_555
N1 C1 1_555 1_555
N2 C6 1_555 1_555
N3 Ag2 1_555 1_555
N4 N3 1_555 1_555
N5 C12 1_555 1_555
N6 C13 1_555 1_555
N7 Ag1 1_555 1_555
N8 C23 1_555 1_555
N9 C21 1_555 1_555
Ag3 N8B 1_555 1_555
C1 C2 1_555 1_555
C2 H1 1_555 1_555
C3 C2 1_555 1_555
H2 C3 1_555 1_555
C4 C3 1_555 1_555
H3 C4 1_555 1_555
C5 C4 1_555 1_555
H4 C5 1_555 1_555
C6 H5 1_555 1_555
C7 N1 1_555 1_555
C8 N3 1_555 1_555
C9 C8 1_555 1_555
H6 C9 1_555 1_555
H7 C9 1_555 1_555
H8 C9 1_555 1_555
C10 H9 1_555 1_555
H10 C10 1_555 1_555
H11 C10 1_555 1_555
C11 C10 1_555 1_555
C12 C11 1_555 1_555
C13 C12 1_555 1_555
H12 C13 1_555 1_555
C14 N6 1_555 1_555
C15 C14 1_555 1_555
H13 C15 1_555 1_555
C16 C15 1_555 1_555
H14 C16 1_555 1_555
C17 C16 1_555 1_555
H15 C17 1_555 1_555
C18 C17 1_555 1_555
H16 C18 1_555 1_555
C19 N5 1_555 1_555
C20 H17 1_555 1_555
H18 C20 1_555 1_555
H19 C20 1_555 1_555
C21 C20B 1_555 1_555
C22 N7 1_555 1_555
C23 C22 1_555 1_555
H20 C23B 1_555 1_555
C24 C25 1_555 1_555
C25 H21 1_555 1_555
C26 C25 1_555 1_555
H22 C26 1_555 1_555
C27 C26 1_555 1_555
H23 C27 1_555 1_555
C28 C27 1_555 1_555
H24 C28 1_555 1_555
C29 C24 1_555 1_555
C30 N2 1_555 1_555
F1 P2 1_555 1_555
F2 P2 1_555 1_555
F3 P2 1_555 1_555
F4 P2 1_555 1_555
F5 P2 1_555 1_555
F6 P2 1_555 1_555
F7 P1 1_555 1_555
F8 P1 1_555 1_555
F9 P1 1_555 1_555
F10 P1 1_555 1_555
F11 P1 1_555 1_555
F12 P1 1_555 1_555
Ag1B N5 1_555 1_555
N1B Ag2 1_555 1_555
N2B C6B 1_555 1_555
N3B Ag2 1_555 1_555
N4B C11 1_555 1_555
N5B Ag1 1_555 1_555
N6B C13B 1_555 1_555
N7B C29 1_555 1_555
N8B C24 1_555 1_555
N9B Ag1 1_555 1_555
Ag3B N8 1_555 1_555
Ag3E Ag3 1_555 1_555
C1B N1B 1_555 1_555
C2B C1B 1_555 1_555
H1B C2B 1_555 1_555
C3B C2B 1_555 1_555
H2B C3B 1_555 1_555
C4B C3B 1_555 1_555
H3B C4B 1_555 1_555
C5B C4B 1_555 1_555
H4B C5B 1_555 1_555
C6B H5B 1_555 1_555
C7B N1B 1_555 1_555
C8B N3B 1_555 1_555
C9B C8B 1_555 1_555
H6B C9B 1_555 1_555
H7B C9B 1_555 1_555
H8B C9B 1_555 1_555
C10B H9B 1_555 1_555
H10B C10B 1_555 1_555
H11B C10B 1_555 1_555
C11B N4 1_555 1_555
C12B N5B 1_555 1_555
C13B C12B 1_555 1_555
H12B C13B 1_555 1_555
C14B N6B 1_555 1_555
C15B C14B 1_555 1_555
H13B C15B 1_555 1_555
C16B C15B 1_555 1_555
H14B C16B 1_555 1_555
C17B C16B 1_555 1_555
H15B C17B 1_555 1_555
C18B C17B 1_555 1_555
H16B C18B 1_555 1_555
C19B N5B 1_555 1_555
C20B H17B 1_555 1_555
H18B C20B 1_555 1_555
H19B C20B 1_555 1_555
C21B C20 1_555 1_555
C22B C21 1_555 1_555
C23B N8B 1_555 1_555
H20B C23 1_555 1_555
C24B N8 1_555 1_555
C25B C24B 1_555 1_555
H21B C25B 1_555 1_555
C26B C25B 1_555 1_555
H22B C26B 1_555 1_555
C27B C26B 1_555 1_555
H23B C27B 1_555 1_555
C28B C27B 1_555 1_555
H24B C28B 1_555 1_555
C29B N7 1_555 1_555
C30B N2B 1_555 1_555
N9 Ag1B 1_555 1_555
N9 N9B 1_555 1_555
C1 C30 1_555 1_555
C5 C30 1_555 1_555
C6 C7 1_555 1_555
C7 C8 1_555 1_555
C14 C19 1_555 1_555
C18 C19 1_555 1_555
C22 C21B 1_555 1_555
C28 C29 1_555 1_555
Ag1B N4B 1_555 1_555
Ag1B N7B 1_555 1_555
N3B N4B 1_555 1_555
N7B C22B 1_555 1_555
N9B C21B 1_555 1_555
C1B C30B 1_555 1_555
C5B C30B 1_555 1_555
C6B C7B 1_555 1_555
C7B C8B 1_555 1_555
C10B C11B 1_555 1_555
C11B C12B 1_555 1_555
C14B C19B 1_555 1_555
C18B C19B 1_555 1_555
C22B C23B 1_555 1_555
C24B C29B 1_555 1_555
C28B C29B 1_555 1_555

#END
