
#######################################################################
#
#                 Cambridge Crystallographic Data Centre
#                                CCDC 
#
#######################################################################
#
# If this CIF has been generated from an entry in the Cambridge 
# Structural Database, then it will include bibliographic, chemical, 
# crystal, experimental, refinement or atomic coordinate data resulting 
# from the CCDC's data processing and validation procedures.
#
#######################################################################

data_KAVDAN
_symmetry_cell_setting           rhombohedral
_symmetry_space_group_name_H-M   'R -3'
_symmetry_Int_Tables_number      148
_space_group_name_Hall           '-R 3'
loop_
_symmetry_equiv_pos_site_id
_symmetry_equiv_pos_as_xyz
1 x,y,z
2 -y,x-y,z
3 -x+y,-x,z
4 2/3+x,1/3+y,1/3+z
5 2/3-y,1/3+x-y,1/3+z
6 2/3-x+y,1/3-x,1/3+z
7 1/3+x,2/3+y,2/3+z
8 1/3-y,2/3+x-y,2/3+z
9 1/3-x+y,2/3-x,2/3+z
10 -x,-y,-z
11 y,-x+y,-z
12 x-y,x,-z
13 1/3-x,2/3-y,2/3-z
14 1/3+y,2/3-x+y,2/3-z
15 1/3+x-y,2/3+x,2/3-z
16 2/3-x,1/3-y,1/3-z
17 2/3+y,1/3-x+y,1/3-z
18 2/3+x-y,1/3+x,1/3-z
_cell_length_a                   17.525(3)
_cell_length_b                   17.525(3)
_cell_length_c                   27.230(5)
_cell_angle_alpha                90
_cell_angle_beta                 90
_cell_angle_gamma                120.00
_cell_volume                     7242.6
loop_
_atom_site_label
_atom_site_type_symbol
_atom_site_fract_x
_atom_site_fract_y
_atom_site_fract_z
Mn1 Mn 0.3333 0.6667 -0.02920(3)
C1 C 0.66197(18) 0.8607(2) 0.31417(11)
C2 C 0.5983(2) 0.8833(3) 0.31763(13)
H1 H 0.5608 0.8650 0.3446
C3 C 0.7159(2) 0.8910(3) 0.27336(12)
H2 H 0.7607 0.8776 0.2696
C4 C 0.5891(2) 0.9326(3) 0.28178(14)
H3 H 0.5450 0.9471 0.2848
C5 C 0.7043(2) 0.9409(3) 0.23805(14)
H4 H 0.7411 0.9606 0.2108
C6 C 0.6291(3) 1.0110(3) 0.20276(15)
H5 H 0.6851 1.0632 0.1956
H6 H 0.5888 1.0301 0.2140
C7 C 0.5933(2) 0.9581(2) 0.15647(13)
C8 C 0.5051(2) 0.8992(2) 0.15196(13)
H7 H 0.4668 0.8925 0.1774
C9 C 0.6480(2) 0.9661(3) 0.11793(15)
H8 H 0.7079 1.0064 0.1206
C10 C 0.4733(2) 0.8499(2) 0.10970(12)
H9 H 0.4132 0.8104 0.1070
C11 C 0.6167(2) 0.9158(2) 0.07511(13)
H10 H 0.6554 0.9221 0.0500
C12 C 0.5288(2) 0.8575(2) 0.07066(12)
C13 C 0.4930(2) 0.8040(2) 0.02407(12)
N1 N 0.64179(19) 0.96061(19) 0.24267(11)
O1 O 0.54643(18) 0.79996(19) -0.00536(10)
O2 O 0.24543(19) 0.55698(19) -0.07253(10)
O3 O 0.41356(16) 0.76937(15) 0.01730(9)
Mn1L Mn 1.0000 1.0000 0.69587(3)
Mn1A Mn 1.3333 0.6666 -0.02920(3)
Mn1_2 Mn 1.3333 1.6667 -0.02920(3)
C1L C 0.67136(18) 0.8060(2) 0.35250(11)
C1M C 1.1940(2) 0.86540(27) 0.35250(11)
C1A C 1.1393(2) 0.80127(27) 0.31417(11)
C1N C 1.13460(27) 1.32864(18) 0.35250(11)
C1B C 1.19873(27) 1.33803(18) 0.31417(11)
C2L C 0.7350(2) 0.7834(3) 0.34904(13)
C2M C 1.2166(3) 0.9517(4) 0.34904(13)
C2A C 1.1167(3) 0.7150(4) 0.31763(13)
C2N C 1.0483(4) 1.2650(2) 0.34904(13)
C2B C 1.2850(4) 1.4017(2) 0.31763(13)
H1L H 0.7725 0.8017 0.3221
H1A H 1.1350 0.6958 0.3446
H1M H 1.1983 0.9709 0.3221
H1N H 1.0291 1.2275 0.3221
H1B H 1.3042 1.4392 0.3446
C3L C 0.6174(2) 0.7757(3) 0.39331(12)
C3A C 1.1090(3) 0.8249(4) 0.27336(12)
C3M C 1.2243(3) 0.8418(4) 0.39331(12)
C3N C 1.1582(4) 1.3826(2) 0.39331(12)
C3B C 1.1751(4) 1.2841(2) 0.27336(12)
H2L H 0.5726 0.7891 0.3971
H2A H 1.1224 0.8831 0.2696
H2M H 1.2109 0.7836 0.3971
H2N H 1.2164 1.4274 0.3971
H2B H 1.1169 1.2393 0.2696
C4L C 0.7442(2) 0.7341(3) 0.38489(14)
C4M C 1.2659(3) 1.0102(4) 0.38489(14)
C4A C 1.0674(3) 0.6565(4) 0.28178(14)
C4N C 0.9898(4) 1.2558(2) 0.38489(14)
C4B C 1.3435(4) 1.4109(2) 0.28178(14)
H3L H 0.7883 0.7196 0.3819
H3A H 1.0529 0.5979 0.2848
H3M H 1.2804 1.0688 0.3819
H3N H 0.9312 1.2117 0.3819
H3B H 1.4021 1.4550 0.2848
C5L C 0.6290(2) 0.7258(3) 0.42862(14)
C5A C 1.0591(3) 0.7634(4) 0.23805(14)
C5M C 1.2742(3) 0.9033(4) 0.42862(14)
C5N C 1.0967(4) 1.3710(2) 0.42862(14)
C5B C 1.2366(4) 1.2957(2) 0.23805(14)
H4L H 0.5922 0.7061 0.4559
H4A H 1.0394 0.7805 0.2108
H4M H 1.2939 0.8862 0.4559
H4N H 1.1138 1.4078 0.4559
H4B H 1.2195 1.2589 0.2108
C6L C 0.7042(3) 0.6557(3) 0.46391(15)
C6M C 1.3443(3) 1.0486(4) 0.46391(15)
C6A C 0.9890(3) 0.6181(4) 0.20276(15)
C6N C 0.9514(4) 1.2958(3) 0.46391(15)
C6B C 1.3819(4) 1.3709(3) 0.20276(15)
H5L H 0.6482 0.6035 0.4711
H5M H 1.3965 1.0448 0.4711
H5A H 0.9368 0.6219 0.1956
H5N H 0.9552 1.3518 0.4711
H5B H 1.3781 1.3149 0.1956
H6L H 0.7445 0.6366 0.4527
H6M H 1.3634 1.1080 0.4527
H6A H 0.9699 0.5587 0.2140
H6N H 0.8920 1.2555 0.4527
H6B H 1.4413 1.4112 0.2140
C7L C 0.7400(2) 0.7086(2) 0.51020(13)
C7M C 1.2914(2) 1.0315(3) 0.51020(13)
C7A C 1.0419(2) 0.6352(3) 0.15647(13)
C7N C 0.9685(3) 1.2600(2) 0.51020(13)
C7B C 1.3648(3) 1.4067(2) 0.15647(13)
C8L C 0.8282(2) 0.7675(2) 0.51471(13)
C8M C 1.2325(2) 1.0608(3) 0.51471(13)
C8A C 1.1008(2) 0.6059(3) 0.15196(13)
C8N C 0.9392(3) 1.1718(2) 0.51471(13)
C8B C 1.3941(3) 1.4949(2) 0.15196(13)
H7L H 0.8665 0.7742 0.4893
H7A H 1.1075 0.5743 0.1774
H7M H 1.2258 1.0924 0.4893
H7N H 0.9076 1.1335 0.4893
H7B H 1.4257 1.5332 0.1774
C9L C 0.6853(2) 0.7006(3) 0.54874(15)
C9A C 1.0339(3) 0.6819(4) 0.11793(15)
C9M C 1.2994(3) 0.9848(4) 0.54874(15)
C9N C 1.0152(4) 1.3147(2) 0.54874(15)
C9B C 1.3181(4) 1.3520(2) 0.11793(15)
H8L H 0.6254 0.6603 0.5461
H8A H 0.9936 0.7015 0.1206
H8M H 1.3397 0.9652 0.5461
H8N H 1.0348 1.3746 0.5461
H8B H 1.2985 1.2921 0.1206
C10L C 0.8600(2) 0.8168(2) 0.55697(12)
C10M C 1.1832(2) 1.0433(3) 0.55697(12)
C10A C 1.1501(2) 0.6234(3) 0.10970(12)
C10N C 0.9567(3) 1.1400(2) 0.55697(12)
C10B C 1.3766(3) 1.5267(2) 0.10970(12)
H9L H 0.9201 0.8563 0.5597
H9A H 1.1896 0.6028 0.1070
H9M H 1.1437 1.0639 0.5597
H9N H 0.9361 1.0799 0.5597
H9B H 1.3972 1.5868 0.1070
C11L C 0.7166(2) 0.7509(2) 0.59156(13)
C11A C 1.0842(2) 0.7009(3) 0.07511(13)
C11M C 1.2491(2) 0.9658(3) 0.59156(13)
C11N C 1.0342(3) 1.2834(2) 0.59156(13)
C11B C 1.2991(3) 1.3833(2) 0.07511(13)
H10L H 0.6779 0.7446 0.6167
H10A H 1.0779 0.7333 0.0500
H10M H 1.2554 0.9334 0.6167
H10N H 1.0666 1.3221 0.6167
H10B H 1.2667 1.3446 0.0500
C12L C 0.8045(2) 0.8092(2) 0.59601(12)
C12M C 1.1908(2) 0.9954(3) 0.59601(12)
C12A C 1.1425(2) 0.6713(3) 0.07066(12)
C12N C 1.0046(3) 1.1955(2) 0.59601(12)
C12B C 1.3287(3) 1.4712(2) 0.07066(12)
C13L C 0.8403(2) 0.8627(2) 0.64260(12)
C13M C 1.1373(2) 0.9777(3) 0.64260(12)
C13A C 1.1960(2) 0.6890(3) 0.02407(12)
C13N C 1.0223(3) 1.1597(2) 0.64260(12)
C13B C 1.3110(3) 1.5070(2) 0.02407(12)
N1L N 0.69154(19) 0.70606(19) 0.42400(11)
N1M N 1.29394(19) 0.98549(27) 0.42400(11)
N1A N 1.03939(19) 0.68118(27) 0.24267(11)
N1N N 1.01451(27) 1.30846(19) 0.42400(11)
N1B N 1.31882(27) 1.35821(19) 0.24267(11)
O1L O 0.78690(18) 0.86671(19) 0.67203(10)
O1A O 1.20004(19) 0.74647(26) -0.00536(10)
O1M O 1.13329(19) 0.92020(26) 0.67203(10)
O1N O 1.07980(26) 1.21310(18) 0.67203(10)
O1B O 1.25353(26) 1.45357(18) -0.00536(10)
O2A O 0.44302(19) 0.68845(27) -0.07253(10)
O2B O 0.31155(27) 0.75457(19) -0.07253(10)
O2L O 1.08790(19) 1.10969(19) 0.73920(10)
O2M O 0.89031(19) 0.97822(27) 0.73920(10)
O2N O 1.02178(27) 0.91210(19) 0.73920(10)
O3L O 0.91977(16) 0.89730(15) 0.64937(9)
O3M O 1.10270(15) 1.02248(22) 0.64937(9)
O3A O 1.23063(15) 0.64419(22) 0.01730(9)
O3N O 0.97752(22) 1.08023(16) 0.64937(9)
O3A_2 O 0.23063(15) 0.64419(22) 0.01730(9)
O3B O 0.35581(22) 0.58644(16) 0.01730(9)
O3B_2 O 1.35581(22) 1.58644(16) 0.01730(9)
O4 O 0.8920(4) 1.0805(5) 0.15913(16)
O5 O 0.8333 1.1667 0.1667
O6 O 0.7079(6) 0.8773(8) -0.0519(3)
O7 O 0.5800(10) 1.1696(10) 0.1822(7)
O8 O 0.6101(14) 1.1252(9) 0.3003(7)
loop_
_geom_bond_atom_site_label_1
_geom_bond_atom_site_label_2
_geom_bond_site_symmetry_1
_geom_bond_site_symmetry_2
Mn1 O2 1_555 1_555
C1 C2 1_555 1_555
C2 H1 1_555 1_555
C3 C1 1_555 1_555
H2 C3 1_555 1_555
C4 C2 1_555 1_555
H3 C4 1_555 1_555
C5 C3 1_555 1_555
H4 C5 1_555 1_555
C6 H5 1_555 1_555
H6 C6 1_555 1_555
C7 C6 1_555 1_555
C8 C7 1_555 1_555
H7 C8 1_555 1_555
C9 C7 1_555 1_555
H8 C9 1_555 1_555
C10 C8 1_555 1_555
H9 C10 1_555 1_555
C11 C9 1_555 1_555
H10 C11 1_555 1_555
C12 C10 1_555 1_555
C13 C12 1_555 1_555
N1 C4 1_555 1_555
O1 C13 1_555 1_555
O3 Mn1 1_555 1_555
Mn1L O2L 1_555 1_555
Mn1A O3A 1_555 1_555
Mn1_2 O3B_2 1_555 1_555
C1L C1 1_555 1_555
C1M C1A 1_555 1_555
C1A C2A 1_555 1_555
C1N C1B 1_555 1_555
C1B C2B 1_555 1_555
C2L C1L 1_555 1_555
C2M C1M 1_555 1_555
C2A H1A 1_555 1_555
C2N C1N 1_555 1_555
C2B H1B 1_555 1_555
H1L C2L 1_555 1_555
H1M C2M 1_555 1_555
H1N C2N 1_555 1_555
C3L C1L 1_555 1_555
C3A C1A 1_555 1_555
C3M C1M 1_555 1_555
C3N C1N 1_555 1_555
C3B C1B 1_555 1_555
H2L C3L 1_555 1_555
H2A C3A 1_555 1_555
H2M C3M 1_555 1_555
H2N C3N 1_555 1_555
H2B C3B 1_555 1_555
C4L C2L 1_555 1_555
C4M C2M 1_555 1_555
C4A C2A 1_555 1_555
C4N C2N 1_555 1_555
C4B C2B 1_555 1_555
H3L C4L 1_555 1_555
H3A C4A 1_555 1_555
H3M C4M 1_555 1_555
H3N C4N 1_555 1_555
H3B C4B 1_555 1_555
C5L C3L 1_555 1_555
C5A C3A 1_555 1_555
C5M C3M 1_555 1_555
C5N C3N 1_555 1_555
C5B C3B 1_555 1_555
H4L C5L 1_555 1_555
H4A C5A 1_555 1_555
H4M C5M 1_555 1_555
H4N C5N 1_555 1_555
H4B C5B 1_555 1_555
C6L H5L 1_555 1_555
C6M H5M 1_555 1_555
C6A H5A 1_555 1_555
C6N H5N 1_555 1_555
C6B H5B 1_555 1_555
H6L C6L 1_555 1_555
H6M C6M 1_555 1_555
H6A C6A 1_555 1_555
H6N C6N 1_555 1_555
H6B C6B 1_555 1_555
C7L C6L 1_555 1_555
C7M C6M 1_555 1_555
C7A C6A 1_555 1_555
C7N C6N 1_555 1_555
C7B C6B 1_555 1_555
C8L C7L 1_555 1_555
C8M C7M 1_555 1_555
C8A C7A 1_555 1_555
C8N C7N 1_555 1_555
C8B C7B 1_555 1_555
H7L C8L 1_555 1_555
H7A C8A 1_555 1_555
H7M C8M 1_555 1_555
H7N C8N 1_555 1_555
H7B C8B 1_555 1_555
C9L C7L 1_555 1_555
C9A C7A 1_555 1_555
C9M C7M 1_555 1_555
C9N C7N 1_555 1_555
C9B C7B 1_555 1_555
H8L C9L 1_555 1_555
H8A C9A 1_555 1_555
H8M C9M 1_555 1_555
H8N C9N 1_555 1_555
H8B C9B 1_555 1_555
C10L C8L 1_555 1_555
C10M C8M 1_555 1_555
C10A C8A 1_555 1_555
C10N C8N 1_555 1_555
C10B C8B 1_555 1_555
H9L C10L 1_555 1_555
H9A C10A 1_555 1_555
H9M C10M 1_555 1_555
H9N C10N 1_555 1_555
H9B C10B 1_555 1_555
C11L C9L 1_555 1_555
C11A C9A 1_555 1_555
C11M C9M 1_555 1_555
C11N C9N 1_555 1_555
C11B C9B 1_555 1_555
H10L C11L 1_555 1_555
H10A C11A 1_555 1_555
H10M C11M 1_555 1_555
H10N C11N 1_555 1_555
H10B C11B 1_555 1_555
C12L C10L 1_555 1_555
C12M C10M 1_555 1_555
C12A C10A 1_555 1_555
C12N C10N 1_555 1_555
C12B C10B 1_555 1_555
C13L C12L 1_555 1_555
C13M C12M 1_555 1_555
C13A C12A 1_555 1_555
C13N C12N 1_555 1_555
C13B C12B 1_555 1_555
N1L C4L 1_555 1_555
N1M C4M 1_555 1_555
N1A C4A 1_555 1_555
N1N C4N 1_555 1_555
N1B C4B 1_555 1_555
O1L C13L 1_555 1_555
O1A C13A 1_555 1_555
O1M C13M 1_555 1_555
O1N C13N 1_555 1_555
O1B C13B 1_555 1_555
O2A Mn1 1_555 1_555
O2B Mn1 1_555 1_555
O2M Mn1L 1_555 1_555
O2N Mn1L 1_555 1_555
O3L Mn1L 1_555 1_555
O3M Mn1L 1_555 1_555
O3A C13A 1_555 1_555
O3N Mn1L 1_555 1_555
O3A_2 Mn1 1_555 1_555
O3B Mn1 1_555 1_555
O3B_2 C13B 1_555 1_555
C5 N1 1_555 1_555
C6 N1 1_555 1_555
C11 C12 1_555 1_555
C13 O3 1_555 1_555
C5L N1L 1_555 1_555
C5A N1A 1_555 1_555
C5M N1M 1_555 1_555
C5N N1N 1_555 1_555
C5B N1B 1_555 1_555
C6L N1L 1_555 1_555
C6M N1M 1_555 1_555
C6A N1A 1_555 1_555
C6N N1N 1_555 1_555
C6B N1B 1_555 1_555
C11L C12L 1_555 1_555
C11A C12A 1_555 1_555
C11M C12M 1_555 1_555
C11N C12N 1_555 1_555
C11B C12B 1_555 1_555
C13L O3L 1_555 1_555
C13M O3M 1_555 1_555
C13N O3N 1_555 1_555

#END
