
#######################################################################
#
#                 Cambridge Crystallographic Data Centre
#                                CCDC 
#
#######################################################################
#
# If this CIF has been generated from an entry in the Cambridge 
# Structural Database, then it will include bibliographic, chemical, 
# crystal, experimental, refinement or atomic coordinate data resulting 
# from the CCDC's data processing and validation procedures.
#
#######################################################################

data_KAVGEU
_symmetry_cell_setting           monoclinic
_symmetry_space_group_name_H-M   'P 21/n'
_symmetry_Int_Tables_number      14
_space_group_name_Hall           '-P 2yn'
loop_
_symmetry_equiv_pos_site_id
_symmetry_equiv_pos_as_xyz
1 x,y,z
2 1/2-x,1/2+y,1/2-z
3 -x,-y,-z
4 1/2+x,1/2-y,1/2+z
_cell_length_a                   8.1051(7)
_cell_length_b                   17.6812(14)
_cell_length_c                   8.5047(7)
_cell_angle_alpha                90
_cell_angle_beta                 90.072(7)
_cell_angle_gamma                90
_cell_volume                     1218.79
loop_
_atom_site_label
_atom_site_type_symbol
_atom_site_fract_x
_atom_site_fract_y
_atom_site_fract_z
Co1 Co -0.00639(6) 0.22762(3) 0.49621(6)
Co2 Co 0.0000 0.0000 0.0000
C1 C -0.0967(4) 0.1453(2) 0.1210(4)
C2 C -0.2693(5) 0.1310(2) -0.0688(5)
H1 H -0.3237 0.1107 -0.1553
C3 C -0.2049(5) 0.2059(2) 0.1204(5)
C4 C 0.0488(5) 0.1225(2) 0.2134(5)
C5 C -0.2300(4) 0.2752(2) 0.2177(5)
C6 C -0.3573(5) 0.1617(2) 0.5053(5)
H2 H -0.3882 0.2123 0.4973
C7 C -0.4794(5) 0.1070(2) 0.4982(5)
H3 H -0.5894 0.1211 0.4881
C8 C -0.4374(5) 0.0307(2) 0.5064(5)
C9 C -0.2704(5) 0.0140(2) 0.5303(5)
H4 H -0.2362 -0.0360 0.5404
C10 C -0.1567(5) 0.0721(2) 0.5388(5)
H5 H -0.0467 0.0597 0.5565
O1 O 0.1052(3) 0.16305(16) 0.3241(3)
O2 O 0.1180(3) 0.06140(16) 0.1738(3)
O3 O -0.1446(3) 0.28869(15) 0.3372(3)
O4 O -0.3434(3) 0.31991(15) 0.1700(3)
O5 O 0.1723(4) 0.04348(19) -0.1698(4)
H6 H 0.176(7) 0.0866(14) -0.206(6)
H7 H 0.2727(19) 0.036(3) -0.164(7)
O6 O -0.0993(4) 0.2913(2) 0.6892(5)
H8 H -0.189(4) 0.288(4) 0.733(7)
H9 H -0.072(8) 0.3357(12) 0.682(8)
N1 N -0.1396(4) 0.09796(18) -0.0009(4)
N2 N -0.3137(4) 0.19579(18) -0.0013(4)
N3 N -0.1963(4) 0.14540(19) 0.5230(4)
Co1B Co 0.00639(6) -0.22762(3) -0.49621(6)
Co1C Co -0.50639(6) 0.27238(3) -0.00379(6)
Co1B_2 Co -0.99361(6) -0.22762(3) 0.50379(6)
Co1A Co 0.50639(6) -0.27238(3) 0.00379(6)
C1B C 0.0967(4) -0.1453(2) -0.1210(4)
C2B C 0.2693(5) -0.1310(2) 0.0688(5)
H1B H 0.3237 -0.1107 0.1553
C3B C 0.2049(5) -0.2059(2) -0.1204(5)
C4B C -0.0488(5) -0.1225(2) -0.2134(5)
C5B C 0.2300(4) -0.2752(2) -0.2177(5)
C6B C -0.6427(5) -0.1617(2) 0.4947(5)
H2B H -0.6118 -0.2123 0.5027
C7B C -0.5206(5) -0.1070(2) 0.5018(5)
H3B H -0.4106 -0.1211 0.5119
C8B C -0.5626(5) -0.0307(2) 0.4936(5)
C9B C -0.7296(5) -0.0140(2) 0.4697(5)
H4B H -0.7638 0.0360 0.4596
C10B C -0.8433(5) -0.0721(2) 0.4612(5)
H5B H -0.9533 -0.0597 0.4435
O1B O -0.1052(3) -0.16305(16) -0.3241(3)
O2B O -0.1180(3) -0.06140(16) -0.1738(3)
O3B O 0.1446(3) -0.28869(15) -0.3372(3)
O4B O 0.3434(3) -0.31991(15) -0.1700(3)
O4C O 0.1566(3) 0.18009(15) 0.6700(3)
O4A O -0.1566(3) -0.18009(15) -0.6700(3)
O5B O -0.1723(4) -0.04348(19) 0.1698(4)
H6B H -0.176(7) -0.0866(14) 0.206(6)
H7B H -0.2727(19) -0.036(3) 0.164(7)
O6B O 0.0993(4) -0.2913(2) -0.6892(5)
H8B H 0.189(4) -0.288(4) -0.733(7)
H9B H 0.072(8) -0.3357(12) -0.682(8)
N1B N 0.1396(4) -0.09796(18) 0.0009(4)
N2B N 0.3137(4) -0.19579(18) 0.0013(4)
N2C N 0.1863(4) 0.30421(18) 0.4987(4)
N2A N -0.1863(4) -0.30421(18) -0.4987(4)
N3B N -0.8037(4) -0.14540(19) 0.4770(4)
N3B_2 N 0.1963(4) -0.14540(19) -0.5230(4)
O7 O 0.4660(5) 0.0437(2) 0.1356(5)
H10 H 0.367(3) 0.050(4) 0.155(8)
H11 H 0.431(17) 0.049(8) 0.045(6)
loop_
_geom_bond_atom_site_label_1
_geom_bond_atom_site_label_2
_geom_bond_site_symmetry_1
_geom_bond_site_symmetry_2
Co1 O1 1_555 1_555
Co2 O2 1_555 1_555
C1 C3 1_555 1_555
C2 H1 1_555 1_555
C3 C5 1_555 1_555
C4 C1 1_555 1_555
C5 O3 1_555 1_555
C6 H2 1_555 1_555
C7 C6 1_555 1_555
H3 C7 1_555 1_555
C8 C7 1_555 1_555
C9 C8 1_555 1_555
H4 C9 1_555 1_555
C10 C9 1_555 1_555
H5 C10 1_555 1_555
O1 C4 1_555 1_555
O2 C4 1_555 1_555
O3 Co1 1_555 1_555
O4 C5 1_555 1_555
O5 Co2 1_555 1_555
H6 O5 1_555 1_555
H7 O5 1_555 1_555
O6 Co1 1_555 1_555
H8 O6 1_555 1_555
H9 O6 1_555 1_555
O7 H10 1_555 1_555
H11 O7 1_555 1_555
N1 Co2 1_555 1_555
N2 C2 1_555 1_555
N3 Co1 1_555 1_555
Co1B O1B 1_555 1_555
Co1C O4 1_555 1_555
Co1B_2 N3B 1_555 1_555
Co1A O4B 1_555 1_555
C1B C3B 1_555 1_555
C2B H1B 1_555 1_555
C3B C5B 1_555 1_555
C4B C1B 1_555 1_555
C5B O3B 1_555 1_555
C6B H2B 1_555 1_555
C7B C6B 1_555 1_555
H3B C7B 1_555 1_555
C8B C8 1_555 1_555
C9B C8B 1_555 1_555
H4B C9B 1_555 1_555
C10B C9B 1_555 1_555
H5B C10B 1_555 1_555
O1B C4B 1_555 1_555
O2B Co2 1_555 1_555
O3B Co1B 1_555 1_555
O4B C5B 1_555 1_555
O4C Co1 1_555 1_555
O4A Co1B 1_555 1_555
O5B Co2 1_555 1_555
H6B O5B 1_555 1_555
H7B O5B 1_555 1_555
O6B Co1B 1_555 1_555
H8B O6B 1_555 1_555
H9B O6B 1_555 1_555
N1B Co2 1_555 1_555
N2B Co1A 1_555 1_555
N2C Co1 1_555 1_555
N2A Co1B 1_555 1_555
N3B C6B 1_555 1_555
N3B_2 Co1B 1_555 1_555
C1 N1 1_555 1_555
C2 N1 1_555 1_555
C3 N2 1_555 1_555
C6 N3 1_555 1_555
C10 N3 1_555 1_555
N2 Co1C 1_555 1_555
C1B N1B 1_555 1_555
C2B N1B 1_555 1_555
C2B N2B 1_555 1_555
C3B N2B 1_555 1_555
C4B O2B 1_555 1_555
C7B C8B 1_555 1_555
C10B N3B 1_555 1_555

#END
