
#######################################################################
#
#                 Cambridge Crystallographic Data Centre
#                                CCDC 
#
#######################################################################
#
# If this CIF has been generated from an entry in the Cambridge 
# Structural Database, then it will include bibliographic, chemical, 
# crystal, experimental, refinement or atomic coordinate data resulting 
# from the CCDC's data processing and validation procedures.
#
#######################################################################

data_KAVLID
_symmetry_cell_setting           monoclinic
_symmetry_space_group_name_H-M   'C 2/c'
_symmetry_Int_Tables_number      15
_space_group_name_Hall           '-C 2yn'
loop_
_symmetry_equiv_pos_site_id
_symmetry_equiv_pos_as_xyz
1 x,y,z
2 1/2+x,1/2+y,z
3 -x,y,1/2-z
4 1/2-x,1/2+y,1/2-z
5 -x,-y,-z
6 1/2-x,1/2-y,-z
7 x,-y,1/2+z
8 1/2+x,1/2-y,1/2+z
_cell_length_a                   18.911(4)
_cell_length_b                   12.318(5)
_cell_length_c                   19.885(4)
_cell_angle_alpha                90
_cell_angle_beta                 95.58(3)
_cell_angle_gamma                90
_cell_volume                     4610.18
loop_
_atom_site_label
_atom_site_type_symbol
_atom_site_fract_x
_atom_site_fract_y
_atom_site_fract_z
Ni1 Ni 0.05732(3) -0.91706(4) 0.92530(3)
O1 O 0.11713(17) -0.7704(3) 0.92968(19)
O2 O 0.07444(17) -0.8370(3) 0.83151(19)
O3 O 0.21550(19) -0.3936(3) 0.7437(2)
N1 N -0.03662(18) -0.8264(3) 0.9238(2)
N2 N -0.34996(18) -0.5094(3) 0.9223(2)
C1 C -0.0872(2) -0.8332(4) 0.8720(3)
H1 H -0.0795 -0.8802 0.8355
C2 C -0.1502(2) -0.7752(4) 0.8688(3)
H2 H -0.1851 -0.7841 0.8315
C3 C -0.1617(2) -0.7036(4) 0.9210(3)
C4 C -0.1088(3) -0.6962(4) 0.9736(3)
H3 H -0.1143 -0.6484 1.0102
C5 C -0.0477(2) -0.7582(4) 0.9733(3)
H4 H -0.0122 -0.7516 1.0103
C6 C -0.2278(2) -0.6371(4) 0.9202(3)
C7 C -0.2444(3) -0.5866(5) 0.9777(3)
H5 H -0.2141 -0.5940 1.0184
C8 C -0.3056(3) -0.5246(5) 0.9766(3)
H6 H -0.3162 -0.4911 1.0174
C9 C -0.3330(3) -0.5555(5) 0.8668(3)
H7 H -0.3631 -0.5443 0.8263
C10 C -0.2732(3) -0.6200(5) 0.8642(3)
H8 H -0.2640 -0.6526 0.8227
C11 C 0.0909(2) -0.1736(4) 0.6263(3)
C12 C 0.1455(2) -0.2294(4) 0.6002(3)
H9 H 0.1556 -0.2158 0.5551
C13 C 0.1857(3) -0.3050(4) 0.6388(3)
H10 H 0.2231 -0.3430 0.6204
C14 C 0.1710(3) -0.3244(4) 0.7038(3)
C15 C 0.1162(3) -0.2710(5) 0.7304(3)
H11 H 0.1060 -0.2855 0.7754
C16 C 0.0759(3) -0.1962(5) 0.6914(3)
H12 H 0.0377 -0.1602 0.7096
C17 C 0.0488(2) -0.0896(3) 0.5846(3)
C18 C 0.1848(3) -0.4829(4) 0.7718(3)
C19 C 0.2153(3) -0.5151(4) 0.8346(3)
H13 H 0.2537 -0.4752 0.8569
C20 C 0.1894(3) -0.6055(4) 0.8646(3)
H14 H 0.2096 -0.6272 0.9081
C21 C 0.1340(2) -0.6658(4) 0.8319(3)
C22 C 0.1050(3) -0.6323(4) 0.7689(3)
H15 H 0.0675 -0.6730 0.7458
C23 C 0.1301(3) -0.5396(5) 0.7390(3)
H16 H 0.1091 -0.5162 0.6961
C24 C 0.1070(2) -0.7640(4) 0.8653(3)
O6 O 0.06823(15) -0.0667(2) 0.52775(17)
O7 O -0.00268(16) -0.0475(2) 0.61052(18)
Ni1A Ni -0.44268(3) -0.41706(4) 0.92530(3)
Ni1F Ni 0.05732(3) -0.08294(4) 0.42530(3)
Ni1B Ni -0.05732(3) 0.08294(4) 0.57470(3)
N2A N 0.15004(18) -1.0094(3) 0.9223(2)
O6F O 0.06823(15) -0.9333(2) 1.02775(17)
O7B O 0.00268(16) -1.0475(2) 0.88948(18)
O4 O 0.0879(3) -0.5671(4) 0.9884(3)
O5 O -0.0037(4) -0.4500(6) 0.8991(4)
loop_
_geom_bond_atom_site_label_1
_geom_bond_atom_site_label_2
_geom_bond_site_symmetry_1
_geom_bond_site_symmetry_2
Ni1 O1 1_555 1_555
O1 C24 1_555 1_555
O2 Ni1 1_555 1_555
O3 C14 1_555 1_555
N1 Ni1 1_555 1_555
N2 C8 1_555 1_555
C1 N1 1_555 1_555
H1 C1 1_555 1_555
C2 C1 1_555 1_555
H2 C2 1_555 1_555
C3 C2 1_555 1_555
C4 C3 1_555 1_555
H3 C4 1_555 1_555
C5 N1 1_555 1_555
H4 C5 1_555 1_555
C6 C3 1_555 1_555
C7 C6 1_555 1_555
H5 C7 1_555 1_555
C8 C7 1_555 1_555
H6 C8 1_555 1_555
C9 N2 1_555 1_555
H7 C9 1_555 1_555
C10 C6 1_555 1_555
H8 C10 1_555 1_555
C11 C12 1_555 1_555
C12 H9 1_555 1_555
C13 C12 1_555 1_555
H10 C13 1_555 1_555
C14 C13 1_555 1_555
C15 C14 1_555 1_555
H11 C15 1_555 1_555
C16 C11 1_555 1_555
H12 C16 1_555 1_555
C17 C11 1_555 1_555
C18 O3 1_555 1_555
C19 C18 1_555 1_555
H13 C19 1_555 1_555
C20 C19 1_555 1_555
H14 C20 1_555 1_555
C21 C20 1_555 1_555
C22 C21 1_555 1_555
H15 C22 1_555 1_555
C23 C18 1_555 1_555
H16 C23 1_555 1_555
C24 O2 1_555 1_555
O6 C17 1_555 1_555
O7 C17 1_555 1_555
Ni1A N2 1_555 1_555
Ni1F O6 1_555 1_555
Ni1B O7 1_555 1_555
N2A Ni1 1_555 1_555
O6F Ni1 1_555 1_555
O7B Ni1 1_555 1_555
C4 C5 1_555 1_555
C9 C10 1_555 1_555
C15 C16 1_555 1_555
C21 C24 1_555 1_555
C22 C23 1_555 1_555

#END
