
#######################################################################
#
#                 Cambridge Crystallographic Data Centre
#                                CCDC 
#
#######################################################################
#
# If this CIF has been generated from an entry in the Cambridge 
# Structural Database, then it will include bibliographic, chemical, 
# crystal, experimental, refinement or atomic coordinate data resulting 
# from the CCDC's data processing and validation procedures.
#
#######################################################################

data_KAVRUV
_symmetry_cell_setting           monoclinic
_symmetry_space_group_name_H-M   'C 2/c'
_symmetry_Int_Tables_number      15
_space_group_name_Hall           '-C 2yn'
loop_
_symmetry_equiv_pos_site_id
_symmetry_equiv_pos_as_xyz
1 x,y,z
2 1/2+x,1/2+y,z
3 -x,y,1/2-z
4 1/2-x,1/2+y,1/2-z
5 -x,-y,-z
6 1/2-x,1/2-y,-z
7 x,-y,1/2+z
8 1/2+x,1/2-y,1/2+z
_cell_length_a                   22.018(4)
_cell_length_b                   4.3769(7)
_cell_length_c                   18.259(3)
_cell_angle_alpha                90
_cell_angle_beta                 121.467(3)
_cell_angle_gamma                90
_cell_volume                     1500.86
loop_
_atom_site_label
_atom_site_type_symbol
_atom_site_fract_x
_atom_site_fract_y
_atom_site_fract_z
Br1 Br 0.16110(7) 0.7686(4) 0.23708(9)
Cu1 Cu 0.21532(10) 0.4034(6) 0.19320(11)
N1 N 0.1600(6) 0.246(3) 0.0711(6)
C1 C 0.0484(7) 0.108(4) -0.0544(8)
H1 H -0.0010 0.1198 -0.0847
C2 C 0.0885(7) 0.254(4) 0.0255(8)
H2 H 0.0648 0.3586 0.0475
C3 C 0.1910(7) 0.098(5) 0.0369(8)
H3 H 0.2405 0.0901 0.0678
C4 C 0.0000 -0.016(5) -0.2500
C5 C 0.0411(9) -0.222(4) -0.1706(8)
H4 H 0.0076 -0.3577 -0.1676
H5 H 0.0740 -0.3480 -0.1776
C6 C 0.0820(8) -0.051(3) -0.0876(7)
C7 C 0.1556(8) -0.046(4) -0.0411(9)
H6 H 0.1809 -0.1405 -0.0627
Br1C Br 0.33890(7) 0.2686(4) 0.26292(9)
Br1_2 Br 0.16110(7) -0.2314(4) 0.23708(9)
Cu1C Cu 0.28468(10) -0.0966(6) 0.30680(11)
Cu1C_2 Cu 0.28468(10) 0.9034(6) 0.30680(11)
Cu1B Cu -0.21532(10) 0.4034(6) -0.69320(11)
N1B N -0.1600(6) 0.246(3) -0.5711(6)
N1C N 0.3400(6) -0.254(3) 0.4289(6)
C1B C -0.0484(7) 0.108(4) -0.4456(8)
H1B H 0.0010 0.1198 -0.4153
C2B C -0.0885(7) 0.254(4) -0.5255(8)
H2B H -0.0648 0.3586 -0.5475
C3B C -0.1910(7) 0.098(5) -0.5369(8)
H3B H -0.2405 0.0901 -0.5678
C5B C -0.0411(9) -0.222(4) -0.3294(8)
H4B H -0.0076 -0.3577 -0.3324
H5B H -0.0740 -0.3480 -0.3224
C6B C -0.0820(8) -0.051(3) -0.4124(7)
C7B C -0.1556(8) -0.046(4) -0.4589(9)
H6B H -0.1809 -0.1405 -0.4373
loop_
_geom_bond_atom_site_label_1
_geom_bond_atom_site_label_2
_geom_bond_site_symmetry_1
_geom_bond_site_symmetry_2
Br1 Cu1 1_555 1_555
Cu1 N1 1_555 1_555
N1 C2 1_555 1_555
C1 H1 1_555 1_555
C2 C1 1_555 1_555
H2 C2 1_555 1_555
C3 N1 1_555 1_555
H3 C3 1_555 1_555
C4 C5 1_555 1_555
C5 H4 1_555 1_555
H5 C5 1_555 1_555
C6 C1 1_555 1_555
C7 C3 1_555 1_555
H6 C7 1_555 1_555
Br1C Cu1 1_555 1_555
Br1_2 Cu1C 1_555 1_555
Cu1C Br1C 1_555 1_555
Cu1C_2 Br1 1_555 1_555
Cu1B N1B 1_555 1_555
N1B C2B 1_555 1_555
N1C Cu1C 1_555 1_555
C1B H1B 1_555 1_555
C2B C1B 1_555 1_555
H2B C2B 1_555 1_555
C3B N1B 1_555 1_555
H3B C3B 1_555 1_555
C5B C4 1_555 1_555
H4B C5B 1_555 1_555
H5B C5B 1_555 1_555
C6B C1B 1_555 1_555
C7B C3B 1_555 1_555
H6B C7B 1_555 1_555
C5 C6 1_555 1_555
C6 C7 1_555 1_555
C5B C6B 1_555 1_555
C6B C7B 1_555 1_555

#END
