
#######################################################################
#
#                 Cambridge Crystallographic Data Centre
#                                CCDC 
#
#######################################################################
#
# If this CIF has been generated from an entry in the Cambridge 
# Structural Database, then it will include bibliographic, chemical, 
# crystal, experimental, refinement or atomic coordinate data resulting 
# from the CCDC's data processing and validation procedures.
#
#######################################################################

data_KAVSAD
_symmetry_cell_setting           monoclinic
_symmetry_space_group_name_H-M   'P 21/c'
_symmetry_Int_Tables_number      14
_space_group_name_Hall           '-P 2ybc'
loop_
_symmetry_equiv_pos_site_id
_symmetry_equiv_pos_as_xyz
1 x,y,z
2 -x,1/2+y,1/2-z
3 -x,-y,-z
4 x,1/2-y,1/2+z
_cell_length_a                   10.051(4)
_cell_length_b                   31.543(12)
_cell_length_c                   12.420(5)
_cell_angle_alpha                90
_cell_angle_beta                 96.082(5)
_cell_angle_gamma                90
_cell_volume                     3915.46
loop_
_atom_site_label
_atom_site_type_symbol
_atom_site_fract_x
_atom_site_fract_y
_atom_site_fract_z
Gd1 Gd -0.48779(2) 0.766297(7) 0.83503(2)
Gd2 Gd -0.88055(2) 0.773491(7) 0.85084(2)
Gd3 Gd -0.68897(2) 0.793489(7) 0.571392(19)
C1 C -0.3751(6) 0.7460(2) 0.5992(5)
H1 H -0.2941 0.7475 0.6428
C2 C -1.0044(5) 0.73961(18) 1.0815(5)
H2 H -1.0853 0.7486 1.0454
C3 C -0.1822(5) 0.81614(18) 0.8265(5)
H3 H -0.1447 0.8415 0.8061
C4 C -0.4462(5) 0.35421(15) 0.6911(4)
C5 C -0.4506(5) 0.40014(16) 0.7137(4)
C6 C -0.4144(6) 0.43146(16) 0.6414(5)
C7 C -0.4247(6) 0.47367(17) 0.6679(5)
H4 H -0.4011 0.4941 0.6193
C8 C -0.4688(6) 0.48682(16) 0.7644(5)
C9 C -0.5046(7) 0.45558(18) 0.8358(5)
H5 H -0.5362 0.4633 0.9007
C10 C -0.4930(6) 0.41314(16) 0.8100(5)
H6 H -0.5146 0.3928 0.8594
C11 C -0.4804(6) 0.53235(16) 0.7917(5)
C12 C -0.4074(6) 0.56341(17) 0.7462(5)
H7 H -0.3488 0.5556 0.6965
C13 C -0.4186(5) 0.60570(16) 0.7721(4)
C14 C -0.5017(5) 0.61797(16) 0.8497(4)
C15 C -0.5770(6) 0.58708(16) 0.8958(5)
H8 H -0.6338 0.5949 0.9470
C16 C -0.5683(6) 0.54494(17) 0.8663(5)
H9 H -0.6211 0.5248 0.8961
C17 C -0.5222(5) 0.66308(16) 0.8826(4)
C18 C -0.2682(7) 0.6272(2) 0.6425(6)
H10 H -0.2231 0.6522 0.6216
H11 H -0.3263 0.6168 0.5819
H12 H -0.2034 0.6058 0.6657
C19 C -0.3110(8) 0.4465(2) 0.4806(6)
H13 H -0.2806 0.4317 0.4202
H14 H -0.2371 0.4611 0.5196
H15 H -0.3786 0.4666 0.4549
C20 C -1.1434(5) 0.36581(16) 0.8060(5)
C21 C -1.1102(6) 0.41180(17) 0.8038(5)
C22 C -1.0489(6) 0.43286(17) 0.7221(5)
C23 C -1.0224(6) 0.47611(17) 0.7289(5)
H16 H -0.9815 0.4893 0.6741
C24 C -1.0561(6) 0.50023(17) 0.8169(5)
C25 C -1.1173(6) 0.47973(17) 0.8975(5)
H17 H -1.1415 0.4950 0.9565
C26 C -1.1424(6) 0.43684(17) 0.8902(5)
H18 H -1.1828 0.4239 0.9456
C27 C -1.0221(6) 0.54643(16) 0.8237(5)
C28 C -1.0927(6) 0.57388(17) 0.8868(5)
H19 H -1.1623 0.5634 0.9228
C29 C -1.0593(6) 0.61595(17) 0.8954(5)
C30 C -0.9544(5) 0.63260(16) 0.8438(5)
C31 C -0.8860(6) 0.60564(17) 0.7819(5)
H20 H -0.8167 0.6164 0.7459
C32 C -0.9175(6) 0.56312(18) 0.7716(6)
H21 H -0.8689 0.5456 0.7300
C33 C -0.9156(6) 0.67871(16) 0.8519(4)
C34 C -1.2026(7) 0.6292(2) 1.0357(6)
H22 H -1.2413 0.6527 1.0705
H23 H -1.1469 0.6132 1.0885
H24 H -1.2725 0.6114 1.0022
C35 C -0.9273(10) 0.4262(3) 0.5659(8)
H25 H -0.9157 0.4061 0.5095
H26 H -0.8425 0.4316 0.6067
H27 H -0.9627 0.4522 0.5343
O1 O -0.2849(4) 0.72234(13) 0.8343(5)
H28 H -0.213(4) 0.7367(16) 0.850(6)
H29 H -0.270(6) 0.6964(9) 0.816(6)
O2 O -0.8743(4) 0.83306(12) 0.9873(4)
H30 H -0.810(5) 0.8349(18) 1.037(4)
H31 H -0.886(6) 0.8522(15) 0.940(4)
O4 O -0.4762(3) 0.75787(11) 0.6421(3)
O5 O -0.3696(4) 0.73288(15) 0.5083(3)
O6 O -0.7149(3) 0.75598(10) 0.7326(3)
O7 O -0.9028(3) 0.74297(11) 1.0296(3)
O8 O -1.0085(4) 0.72604(13) 1.1730(3)
O9 O -0.6655(3) 0.76462(10) 0.9532(3)
O10 O -0.5302(4) 0.69134(11) 0.8114(3)
O11 O -0.5323(4) 0.66982(11) 0.9811(3)
O12 O -0.3459(4) 0.63719(12) 0.7298(4)
O13 O -0.3647(6) 0.41723(12) 0.5498(4)
O14 O -0.4693(4) 0.34008(11) 0.5973(3)
O15 O -0.4279(3) 0.32900(10) 0.7719(3)
O16 O -0.9976(4) 0.70601(12) 0.8180(4)
O17 O -0.7982(4) 0.68773(12) 0.8910(3)
O18 O -1.1244(5) 0.64461(13) 0.9559(4)
O19 O -1.0177(5) 0.40941(13) 0.6355(4)
O20 O -1.1777(4) 0.35151(11) 0.8930(3)
O21 O -1.1384(4) 0.34381(11) 0.7210(3)
O22 O -0.1039(3) 0.79009(12) 0.8720(3)
O23 O -0.3041(3) 0.81260(12) 0.8049(3)
Gd1C Gd -0.48779(2) 0.733703(7) 0.33503(2)
Gd1A Gd -0.51221(2) 0.266297(7) 0.66497(2)
Gd2C Gd -0.88055(2) 0.726509(7) 1.35084(2)
Gd2A Gd -1.11945(2) 0.273491(7) 0.64916(2)
Gd2_2 Gd 0.11945(2) 0.773491(7) 0.85084(2)
Gd3C Gd -0.68897(2) 0.706511(7) 1.071392(19)
Gd3A Gd -0.31103(2) 0.293489(7) 0.928608(19)
Gd3A_2 Gd -1.31103(2) 0.293489(7) 0.928608(19)
O5C O -0.3696(4) 0.76712(15) 1.0083(3)
O7C O -0.9028(3) 0.75703(11) 0.5296(3)
O8C O -1.0085(4) 0.77396(13) 0.6730(3)
O9C O -0.6655(3) 0.73538(10) 0.4532(3)
O11C O -0.5323(4) 0.83018(11) 0.4811(3)
O14A O -0.5307(4) 0.84008(11) 0.9027(3)
O15A O -0.5721(3) 0.82900(10) 0.7281(3)
O17C O -0.7982(4) 0.81227(12) 0.3910(3)
O20A O -0.8223(4) 0.85151(11) 0.6070(3)
O21A O -0.8616(4) 0.84381(11) 0.7790(3)
O22_2 O -1.1039(3) 0.79009(12) 0.8720(3)
O3 O -0.6286(4) 0.83951(14) 1.1053(4)
loop_
_geom_bond_atom_site_label_1
_geom_bond_atom_site_label_2
_geom_bond_site_symmetry_1
_geom_bond_site_symmetry_2
Gd1 O1 1_555 1_555
Gd2 O2 1_555 1_555
Gd3 O4 1_555 1_555
C1 H1 1_555 1_555
C2 H2 1_555 1_555
C3 H3 1_555 1_555
C4 C5 1_555 1_555
C5 C6 1_555 1_555
C6 C7 1_555 1_555
C7 H4 1_555 1_555
C8 C7 1_555 1_555
C9 C8 1_555 1_555
H5 C9 1_555 1_555
C10 C5 1_555 1_555
H6 C10 1_555 1_555
C11 C8 1_555 1_555
C12 C11 1_555 1_555
H7 C12 1_555 1_555
C13 C12 1_555 1_555
C14 C13 1_555 1_555
C15 C14 1_555 1_555
H8 C15 1_555 1_555
C16 C11 1_555 1_555
H9 C16 1_555 1_555
C17 C14 1_555 1_555
C18 H10 1_555 1_555
H11 C18 1_555 1_555
H12 C18 1_555 1_555
C19 H13 1_555 1_555
H14 C19 1_555 1_555
H15 C19 1_555 1_555
C20 C21 1_555 1_555
C21 C22 1_555 1_555
C22 C23 1_555 1_555
C23 H16 1_555 1_555
C24 C23 1_555 1_555
C25 C24 1_555 1_555
H17 C25 1_555 1_555
C26 C21 1_555 1_555
H18 C26 1_555 1_555
C27 C24 1_555 1_555
C28 C27 1_555 1_555
H19 C28 1_555 1_555
C29 C28 1_555 1_555
C30 C29 1_555 1_555
C31 C30 1_555 1_555
H20 C31 1_555 1_555
C32 C27 1_555 1_555
H21 C32 1_555 1_555
C33 C30 1_555 1_555
C34 H22 1_555 1_555
H23 C34 1_555 1_555
H24 C34 1_555 1_555
C35 H25 1_555 1_555
H26 C35 1_555 1_555
H27 C35 1_555 1_555
O1 H28 1_555 1_555
H29 O1 1_555 1_555
O2 H30 1_555 1_555
H31 O2 1_555 1_555
O4 Gd1 1_555 1_555
O5 C1 1_555 1_555
O6 Gd1 1_555 1_555
O7 Gd2 1_555 1_555
O8 C2 1_555 1_555
O9 Gd1 1_555 1_555
O10 Gd1 1_555 1_555
O11 C17 1_555 1_555
O12 C13 1_555 1_555
O13 C6 1_555 1_555
O14 C4 1_555 1_555
O15 C4 1_555 1_555
O16 Gd2 1_555 1_555
O17 C33 1_555 1_555
O18 C29 1_555 1_555
O19 C22 1_555 1_555
O20 C20 1_555 1_555
O21 C20 1_555 1_555
O22 C3 1_555 1_555
O23 Gd1 1_555 1_555
Gd1C O5 1_555 1_555
Gd1A O14 1_555 1_555
Gd2C O8 1_555 1_555
Gd2A O21 1_555 1_555
Gd2_2 O22 1_555 1_555
Gd3C O7 1_555 1_555
Gd3A O15 1_555 1_555
Gd3A_2 O20 1_555 1_555
O5C Gd1 1_555 1_555
O7C Gd3 1_555 1_555
O8C Gd2 1_555 1_555
O9C Gd3 1_555 1_555
O11C Gd3 1_555 1_555
O14A Gd1 1_555 1_555
O15A Gd1 1_555 1_555
O17C Gd3 1_555 1_555
O20A Gd3 1_555 1_555
O21A Gd2 1_555 1_555
O22_2 Gd2 1_555 1_555
Gd2 O6 1_555 1_555
Gd2 O9 1_555 1_555
Gd3 O6 1_555 1_555
Gd3 O15A 1_555 1_555
C1 O4 1_555 1_555
C2 O7 1_555 1_555
C3 O23 1_555 1_555
C9 C10 1_555 1_555
C15 C16 1_555 1_555
C17 O10 1_555 1_555
C18 O12 1_555 1_555
C19 O13 1_555 1_555
C25 C26 1_555 1_555
C31 C32 1_555 1_555
C33 O16 1_555 1_555
C34 O18 1_555 1_555
C35 O19 1_555 1_555
O9 Gd3C 1_555 1_555
O11 Gd3C 1_555 1_555
O15 Gd1A 1_555 1_555
O17 Gd3C 1_555 1_555
Gd1C O9C 1_555 1_555

#END
