
#######################################################################
#
#                 Cambridge Crystallographic Data Centre
#                                CCDC 
#
#######################################################################
#
# If this CIF has been generated from an entry in the Cambridge 
# Structural Database, then it will include bibliographic, chemical, 
# crystal, experimental, refinement or atomic coordinate data resulting 
# from the CCDC's data processing and validation procedures.
#
#######################################################################

data_KAVWEL
_symmetry_cell_setting           monoclinic
_symmetry_space_group_name_H-M   'P 21/c'
_symmetry_Int_Tables_number      14
_space_group_name_Hall           '-P 2ybc'
loop_
_symmetry_equiv_pos_site_id
_symmetry_equiv_pos_as_xyz
1 x,y,z
2 -x,1/2+y,1/2-z
3 -x,-y,-z
4 x,1/2-y,1/2+z
_cell_length_a                   16.5160(13)
_cell_length_b                   17.6806(13)
_cell_length_c                   17.3266(14)
_cell_angle_alpha                90
_cell_angle_beta                 153.5680(10)
_cell_angle_gamma                90
_cell_volume                     2252.2
loop_
_atom_site_label
_atom_site_type_symbol
_atom_site_fract_x
_atom_site_fract_y
_atom_site_fract_z
Cd1 Cd 0.14891(4) 0.807269(15) 0.30346(3)
O1 O 0.1742(4) 0.70050(15) 0.4046(4)
C1 C 0.3387(6) 0.6932(2) 0.5274(5)
O2 O 0.4172(4) 0.73754(15) 0.5487(3)
C2 C 0.4490(5) 0.6298(2) 0.6568(5)
O3 O 0.7136(4) 0.40348(15) 1.0125(3)
C3 C 0.4608(5) 0.5609(2) 0.6280(5)
O4 O 0.9552(4) 0.46258(18) 1.1709(4)
C4 C 0.5698(5) 0.5035(2) 0.7520(5)
O5 O -0.1209(5) 0.84863(19) 0.1189(5)
C5 C 0.6654(5) 0.5172(2) 0.9016(5)
H1 H -0.173(7) 0.851(3) 0.039(6)
C6 C 0.6535(5) 0.5862(2) 0.9298(5)
C7 C 0.5411(5) 0.6432(2) 0.8043(5)
C8 C 0.5226(6) 0.7179(2) 0.8305(5)
H2 H 0.4402 0.7501 0.7325
H3 H 0.6395 0.7418 0.9337
H4 H 0.4763 0.7090 0.8420
C9 C 0.3591(6) 0.5501(2) 0.4657(5)
H5 H 0.4138 0.5096 0.4837
H6 H 0.3649 0.5959 0.4410
H7 H 0.2343 0.5380 0.3698
C10 C 0.5897(6) 0.4281(2) 0.7271(6)
H8 H 0.6439 0.4365 0.7236
H9 H 0.4720 0.4055 0.6201
H10 H 0.6657 0.3950 0.8217
N1 N 0.1861(4) 0.87306(19) 0.2216(4)
C11 C 0.7899(6) 0.4566(2) 1.0403(5)
C12 C 0.7587(6) 0.6010(2) 1.0928(5)
H11 H 0.8360 0.5586 1.1697
H12 H 0.6754 0.6084 1.0637
H13 H 0.8318 0.6456 1.1488
C13 C 0.2595(6) 0.9426(2) 0.2822(6)
H14 H 0.3085 0.9623 0.3693
C14 C 0.2653(7) 0.9860(3) 0.2212(7)
H15 H 0.3120 1.0348 0.2621
C15 C 0.2009(7) 0.9555(3) 0.0999(6)
H16 H 0.2073 0.9830 0.0597
N2 N 0.0259(4) 0.73656(18) 0.0955(4)
C16 C 0.1255(6) 0.8834(3) 0.0351(6)
H17 H 0.0807 0.8623 -0.0484
C17 C 0.1188(5) 0.8437(2) 0.0987(5)
C18 C 0.0410(5) 0.7659(2) 0.0373(5)
C19 C -0.0112(7) 0.7254(3) -0.0714(6)
H18 H 0.0016 0.7460 -0.1095
C20 C -0.0822(7) 0.6544(3) -0.1228(7)
H19 H -0.1195 0.6266 -0.1974
C21 C -0.0980(7) 0.6245(3) -0.0638(7)
H20 H -0.1452 0.5762 -0.0969
C22 C -0.0427(6) 0.6671(3) 0.0454(6)
H21 H -0.0533 0.6470 0.0856
H23 H -0.0945 0.8951 0.1643
Cd1A Cd 0.85109(4) 0.307269(15) 1.19654(3)
O3A O 0.2864(4) 0.90348(15) 0.4875(3)
O6 O -0.3515(4) 0.85833(17) -0.2022(4)
H22 H -0.3574 0.8096 -0.2224
H24 H -0.4843 0.8787 -0.3070
loop_
_geom_bond_atom_site_label_1
_geom_bond_atom_site_label_2
_geom_bond_site_symmetry_1
_geom_bond_site_symmetry_2
Cd1 O1 1_555 1_555
O1 C1 1_555 1_555
C1 O2 1_555 1_555
O2 Cd1 1_555 1_555
C2 C1 1_555 1_555
O3 C11 1_555 1_555
C3 C2 1_555 1_555
O4 C11 1_555 1_555
C4 C3 1_555 1_555
O5 Cd1 1_555 1_555
C5 C4 1_555 1_555
H1 O5 1_555 1_555
O6 H22 1_555 1_555
C6 C5 1_555 1_555
C7 C2 1_555 1_555
C8 C7 1_555 1_555
H2 C8 1_555 1_555
H3 C8 1_555 1_555
H4 C8 1_555 1_555
C9 C3 1_555 1_555
H5 C9 1_555 1_555
H6 C9 1_555 1_555
H7 C9 1_555 1_555
C10 C4 1_555 1_555
H8 C10 1_555 1_555
H9 C10 1_555 1_555
H10 C10 1_555 1_555
N1 Cd1 1_555 1_555
C11 C5 1_555 1_555
C12 C6 1_555 1_555
H11 C12 1_555 1_555
H12 C12 1_555 1_555
H13 C12 1_555 1_555
C13 N1 1_555 1_555
H14 C13 1_555 1_555
C14 C13 1_555 1_555
H15 C14 1_555 1_555
C15 C14 1_555 1_555
H16 C15 1_555 1_555
N2 Cd1 1_555 1_555
C16 C15 1_555 1_555
H17 C16 1_555 1_555
C17 N1 1_555 1_555
C18 N2 1_555 1_555
C19 C18 1_555 1_555
H18 C19 1_555 1_555
C20 C19 1_555 1_555
H19 C20 1_555 1_555
C21 C20 1_555 1_555
H20 C21 1_555 1_555
C22 N2 1_555 1_555
H21 C22 1_555 1_555
H23 O5 1_555 1_555
H24 O6 1_555 1_555
Cd1A O3 1_555 1_555
O3A Cd1 1_555 1_555
C6 C7 1_555 1_555
C16 C17 1_555 1_555
C17 C18 1_555 1_555
C21 C22 1_555 1_555

#END
