
#######################################################################
#
#                 Cambridge Crystallographic Data Centre
#                                CCDC 
#
#######################################################################
#
# If this CIF has been generated from an entry in the Cambridge 
# Structural Database, then it will include bibliographic, chemical, 
# crystal, experimental, refinement or atomic coordinate data resulting 
# from the CCDC's data processing and validation procedures.
#
#######################################################################

data_KAWFOD
_symmetry_cell_setting           orthorhombic
_symmetry_space_group_name_H-M   'P 21 21 21'
_symmetry_Int_Tables_number      19
_space_group_name_Hall           'P 2ac 2ab'
loop_
_symmetry_equiv_pos_site_id
_symmetry_equiv_pos_as_xyz
1 x,y,z
2 1/2+x,1/2-y,-z
3 -x,1/2+y,1/2-z
4 1/2-x,-y,1/2+z
_cell_length_a                   6.776(1)
_cell_length_b                   8.695(1)
_cell_length_c                   13.013(1)
_cell_angle_alpha                90
_cell_angle_beta                 90
_cell_angle_gamma                90
_cell_volume                     766.691
loop_
_atom_site_label
_atom_site_type_symbol
_atom_site_fract_x
_atom_site_fract_y
_atom_site_fract_z
Ca1 Ca -0.06920(6) 0.18091(4) -0.07489(3)
O1 O -0.0725(2) 0.2087(2) -0.2606(1)
O2 O -0.2985(3) 0.2339(2) -0.3828(1)
O3 O -0.4100(2) 0.2469(2) -0.09656(9)
O4 O -0.7312(2) 0.2244(2) -0.0955(1)
O5 O -0.0780(2) 0.4633(2) -0.0811(1)
O6 O 0.0634(2) -0.0710(1) -0.00493(9)
N1 N -0.2443(3) -0.0355(2) -0.1727(1)
C1 C -0.2317(3) 0.1726(2) -0.3025(1)
C2 C -0.3512(3) 0.0377(2) -0.2584(1)
C3 C -0.5587(3) 0.0852(2) -0.2250(1)
C4 C -0.5668(3) 0.1917(2) -0.1332(1)
H1 H -0.0588 0.5243 -0.1393
H2 H -0.1973 0.5035 -0.0737
H3 H 0.1093 -0.1319 -0.0511
H4 H -0.0081 -0.1331 0.0320
H5 H -0.3354 -0.0953 -0.1373
H6 H -0.1571 -0.0970 -0.1922
H7 H -0.3679 -0.0339 -0.3150
H8 H -0.6245 -0.0029 -0.2038
H9 H -0.6192 0.1386 -0.2826
O3A O 0.0900(2) 0.2531(2) 0.09656(9)
O4A O -0.2312(2) 0.2756(2) 0.0955(1)
Ca1A Ca -0.56920(6) 0.31909(4) 0.07489(3)
O4_2 O 0.2688(2) 0.2244(2) -0.0955(1)
Ca1_2 Ca -1.06920(6) 0.18091(4) -0.07489(3)
loop_
_geom_bond_atom_site_label_1
_geom_bond_atom_site_label_2
_geom_bond_site_symmetry_1
_geom_bond_site_symmetry_2
Ca1 O1 1_555 1_555
O1 C1 1_555 1_555
O2 C1 1_555 1_555
O3 Ca1 1_555 1_555
O4 C4 1_555 1_555
O5 Ca1 1_555 1_555
O6 Ca1 1_555 1_555
N1 Ca1 1_555 1_555
C1 C2 1_555 1_555
C2 N1 1_555 1_555
C3 C2 1_555 1_555
C4 O3 1_555 1_555
H1 O5 1_555 1_555
H2 O5 1_555 1_555
H3 O6 1_555 1_555
H4 O6 1_555 1_555
H5 N1 1_555 1_555
H6 N1 1_555 1_555
H7 C2 1_555 1_555
H8 C3 1_555 1_555
H9 C3 1_555 1_555
O3A Ca1 1_555 1_555
O4A Ca1 1_555 1_555
Ca1A O3 1_555 1_555
O4_2 Ca1 1_555 1_555
Ca1_2 O4 1_555 1_555
O4 Ca1A 1_555 1_555
C3 C4 1_555 1_555
O4A Ca1A 1_555 1_555

#END
