
#######################################################################
#
#                 Cambridge Crystallographic Data Centre
#                                CCDC 
#
#######################################################################
#
# If this CIF has been generated from an entry in the Cambridge 
# Structural Database, then it will include bibliographic, chemical, 
# crystal, experimental, refinement or atomic coordinate data resulting 
# from the CCDC's data processing and validation procedures.
#
#######################################################################

data_KAWGOG
_symmetry_cell_setting           triclinic
_symmetry_space_group_name_H-M   'P -1'
_symmetry_Int_Tables_number      2
_space_group_name_Hall           '-P 1'
loop_
_symmetry_equiv_pos_site_id
_symmetry_equiv_pos_as_xyz
1 x,y,z
2 -x,-y,-z
_cell_length_a                   10.868(2)
_cell_length_b                   13.951(3)
_cell_length_c                   19.474(4)
_cell_angle_alpha                86.82(3)
_cell_angle_beta                 88.76(3)
_cell_angle_gamma                76.72(3)
_cell_volume                     2869.14
loop_
_atom_site_label
_atom_site_type_symbol
_atom_site_fract_x
_atom_site_fract_y
_atom_site_fract_z
Cu1 Cu 0.11868(8) 0.33070(6) -0.07273(4)
Cu2 Cu 0.08964(8) 0.50876(7) 0.05204(5)
I1 I 0.11884(4) 0.68297(3) 0.09191(3)
I2 I 0.13919(4) 0.51357(3) -0.08491(2)
N1 N 0.5859(5) -0.1679(4) 0.2018(3)
N2 N 0.7799(5) -0.2501(4) 0.1484(3)
N3 N 0.3834(5) 0.2428(4) 0.0862(3)
N4 N 0.2480(6) 0.4053(4) 0.0852(3)
S1 S 0.57504(16) -0.24746(13) 0.08061(9)
S2 S 0.14802(15) 0.26592(13) 0.03979(9)
C1 C 0.6522(6) -0.2177(5) 0.1516(3)
C2 C 0.8414(7) -0.2321(6) 0.2037(4)
H1 H 0.9297 -0.2548 0.2050
C3 C 0.7823(7) -0.1827(6) 0.2578(4)
H2 H 0.8283 -0.1719 0.2958
C4 C 0.6512(6) -0.1486(5) 0.2553(4)
C5 C 0.5808(6) -0.0869(5) 0.3084(3)
C6 C 0.6426(7) -0.0417(6) 0.3548(4)
H3 H 0.7309 -0.0502 0.3520
C7 C 0.5757(7) 0.0151(6) 0.4046(4)
H4 H 0.6189 0.0441 0.4359
C8 C 0.4467(7) 0.0300(5) 0.4091(4)
H5 H 0.4010 0.0699 0.4427
C9 C 0.3846(7) -0.0150(5) 0.3629(4)
H6 H 0.2963 -0.0062 0.3661
C10 C 0.4495(6) -0.0713(5) 0.3133(4)
H7 H 0.4056 -0.1001 0.2822
C11 C 0.4127(6) -0.1875(5) 0.0961(4)
H8 H 0.3596 -0.2155 0.0665
H9 H 0.3915 -0.2037 0.1439
C12 C 0.3781(6) -0.0770(5) 0.0844(4)
H10 H 0.3958 -0.0599 0.0362
H11 H 0.4315 -0.0481 0.1132
C13 C 0.2399(7) -0.0319(5) 0.1006(4)
H12 H 0.1878 -0.0502 0.0653
H13 H 0.2181 -0.0614 0.1447
C14 C 0.2050(7) 0.0794(5) 0.1044(4)
H14 H 0.1189 0.0993 0.1230
H15 H 0.2621 0.0989 0.1364
C15 C 0.2118(6) 0.1335(5) 0.0357(3)
H16 H 0.1643 0.1075 0.0018
H17 H 0.3002 0.1217 0.0201
C16 C 0.2735(6) 0.3074(5) 0.0753(3)
C17 C 0.3423(8) 0.4374(6) 0.1102(5)
H18 H 0.3280 0.5038 0.1211
C18 C 0.4616(8) 0.3770(6) 0.1209(5)
H19 H 0.5279 0.4026 0.1368
C19 C 0.4806(7) 0.2789(5) 0.1075(4)
C20 C 0.6048(7) 0.2089(5) 0.1141(4)
C21 C 0.7159(7) 0.2388(6) 0.0975(4)
H20 H 0.7119 0.3047 0.0828
C22 C 0.8307(8) 0.1736(7) 0.1024(5)
H21 H 0.9052 0.1949 0.0915
C23 C 0.8369(8) 0.0772(7) 0.1232(5)
H22 H 0.9160 0.0326 0.1273
C24 C 0.7305(8) 0.0456(7) 0.1377(6)
H23 H 0.7361 -0.0208 0.1517
C25 C 0.6138(8) 0.1098(7) 0.1321(6)
H24 H 0.5400 0.0865 0.1406
Cu1A Cu 0.88132(8) -0.33070(6) 0.07273(4)
Cu1A_2 Cu -0.11868(8) 0.66930(6) 0.07273(4)
Cu2A Cu -0.08964(8) 0.49124(7) -0.05204(5)
I1A I -0.11884(4) 0.31703(3) -0.09191(3)
I2A I -0.13919(4) 0.48643(3) 0.08491(2)
N2A N 0.2201(5) 0.2501(4) -0.1484(3)
Cu3 Cu 0.95780(9) -0.97484(7) 0.42964(5)
Cu4 Cu 0.90836(8) -0.81249(7) 0.57057(5)
I3 I 1.10743(4) -0.88239(4) 0.49598(2)
I4 I 1.06890(4) -1.06504(3) 0.31650(2)
N5 N 0.6651(5) -0.7071(4) 0.4023(3)
N6 N 0.8223(5) -0.8554(4) 0.3904(3)
N7 N 0.1263(5) -0.4974(4) 0.4050(3)
N8 N 0.0995(5) -0.3219(4) 0.3914(3)
S3 S 0.72627(16) -0.82724(13) 0.51435(8)
S4 S 0.14644(18) -0.39873(13) 0.51582(9)
C26 C 0.7377(6) -0.7915(5) 0.4258(3)
C27 C 0.8310(8) -0.8300(6) 0.3231(4)
H25 H 0.8870 -0.8732 0.2951
C28 C 0.7620(8) -0.7443(6) 0.2939(4)
H26 H 0.7695 -0.7287 0.2467
C29 C 0.6800(7) -0.6799(5) 0.3354(4)
C30 C 0.6059(7) -0.5831(5) 0.3102(4)
C31 C 0.6508(8) -0.5316(6) 0.2564(4)
H27 H 0.7287 -0.5586 0.2352
C32 C 0.5803(11) -0.4400(6) 0.2338(5)
H28 H 0.6105 -0.4059 0.1966
C33 C 0.4672(10) -0.3975(7) 0.2645(5)
H29 H 0.4205 -0.3352 0.2485
C34 C 0.4240(8) -0.4476(6) 0.3189(5)
H30 H 0.3474 -0.4194 0.3409
C35 C 0.4933(7) -0.5402(6) 0.3418(4)
H31 H 0.4631 -0.5740 0.3793
C36 C 0.5920(6) -0.7354(5) 0.5441(3)
H32 H 0.5959 -0.7335 0.5942
H33 H 0.5973 -0.6704 0.5241
C37 C 0.4675(6) -0.7556(5) 0.5252(4)
H34 H 0.4676 -0.8241 0.5396
H35 H 0.4596 -0.7491 0.4751
C38 C 0.3519(7) -0.6880(5) 0.5570(4)
H36 H 0.3652 -0.6878 0.6066
H37 H 0.2781 -0.7158 0.5506
C39 C 0.3221(6) -0.5813(5) 0.5275(4)
H38 H 0.3841 -0.5472 0.5442
H39 H 0.3290 -0.5809 0.4772
C40 C 0.1902(6) -0.5268(5) 0.5480(3)
H40 H 0.1839 -0.5289 0.5983
H41 H 0.1291 -0.5616 0.5311
C41 C 0.1216(6) -0.4094(5) 0.4287(3)
C42 C 0.0814(7) -0.3310(5) 0.3235(4)
H42 H 0.0662 -0.2732 0.2947
C43 C 0.0835(8) -0.4168(5) 0.2943(4)
H43 H 0.0706 -0.4188 0.2468
C44 C 0.1055(7) -0.5016(5) 0.3368(4)
C45 C 0.1126(7) -0.6008(5) 0.3123(4)
C46 C 0.0606(9) -0.6116(6) 0.2493(4)
H44 H 0.0191 -0.5555 0.2229
C47 C 0.0696(10) -0.7049(7) 0.2252(5)
H45 H 0.0344 -0.7114 0.1825
C48 C 0.1281(12) -0.7855(7) 0.2622(5)
H46 H 0.1350 -0.8486 0.2458
C49 C 0.1771(13) -0.7744(7) 0.3238(5)
H47 H 0.2183 -0.8310 0.3497
C50 C 0.1689(12) -0.6824(6) 0.3502(5)
H48 H 0.2019 -0.6772 0.3937
Cu3A Cu 1.04220(9) -1.02516(7) 0.57036(5)
Cu4A Cu 1.09164(8) -1.18751(7) 0.42943(5)
Cu4A_2 Cu 0.09164(8) -0.18751(7) 0.42943(5)
I3A I 0.89257(4) -1.11761(4) 0.50402(2)
I4A I 0.93110(4) -0.93496(3) 0.68350(2)
N8A N 0.9005(5) -0.6781(4) 0.6086(3)
loop_
_geom_bond_atom_site_label_1
_geom_bond_atom_site_label_2
_geom_bond_site_symmetry_1
_geom_bond_site_symmetry_2
Cu1 I2 1_555 1_555
Cu2 I1 1_555 1_555
I1 Cu1A_2 1_555 1_555
I2 Cu2 1_555 1_555
N1 C1 1_555 1_555
N2 C1 1_555 1_555
N3 C16 1_555 1_555
N4 Cu2 1_555 1_555
S1 C1 1_555 1_555
S2 Cu1 1_555 1_555
C2 N2 1_555 1_555
H1 C2 1_555 1_555
C3 C2 1_555 1_555
H2 C3 1_555 1_555
C4 N1 1_555 1_555
C5 C4 1_555 1_555
C6 C5 1_555 1_555
H3 C6 1_555 1_555
C7 C6 1_555 1_555
H4 C7 1_555 1_555
C8 C7 1_555 1_555
H5 C8 1_555 1_555
C9 C8 1_555 1_555
H6 C9 1_555 1_555
C10 C5 1_555 1_555
H7 C10 1_555 1_555
C11 S1 1_555 1_555
H8 C11 1_555 1_555
H9 C11 1_555 1_555
C12 C11 1_555 1_555
H10 C12 1_555 1_555
H11 C12 1_555 1_555
C13 C12 1_555 1_555
H12 C13 1_555 1_555
H13 C13 1_555 1_555
C14 C13 1_555 1_555
H14 C14 1_555 1_555
H15 C14 1_555 1_555
C15 S2 1_555 1_555
H16 C15 1_555 1_555
H17 C15 1_555 1_555
C16 N4 1_555 1_555
C17 N4 1_555 1_555
H18 C17 1_555 1_555
C18 C17 1_555 1_555
H19 C18 1_555 1_555
C19 N3 1_555 1_555
C20 C19 1_555 1_555
C21 C20 1_555 1_555
H20 C21 1_555 1_555
C22 C21 1_555 1_555
H21 C22 1_555 1_555
C23 C22 1_555 1_555
H22 C23 1_555 1_555
C24 C23 1_555 1_555
H23 C24 1_555 1_555
C25 C20 1_555 1_555
H24 C25 1_555 1_555
Cu3 I3 1_555 1_555
Cu4 I3 1_555 1_555
I3 Cu3A 1_555 1_555
I4 Cu3 1_555 1_555
N5 C26 1_555 1_555
N6 Cu3 1_555 1_555
N7 C41 1_555 1_555
N8 C41 1_555 1_555
S3 Cu4 1_555 1_555
S4 C40 1_555 1_555
C26 N6 1_555 1_555
C27 N6 1_555 1_555
H25 C27 1_555 1_555
C28 C27 1_555 1_555
H26 C28 1_555 1_555
C29 N5 1_555 1_555
C30 C29 1_555 1_555
C31 C30 1_555 1_555
H27 C31 1_555 1_555
C32 C31 1_555 1_555
H28 C32 1_555 1_555
C33 C32 1_555 1_555
H29 C33 1_555 1_555
C34 C33 1_555 1_555
H30 C34 1_555 1_555
C35 C30 1_555 1_555
H31 C35 1_555 1_555
C36 S3 1_555 1_555
H32 C36 1_555 1_555
H33 C36 1_555 1_555
C37 C36 1_555 1_555
H34 C37 1_555 1_555
H35 C37 1_555 1_555
C38 C37 1_555 1_555
H36 C38 1_555 1_555
H37 C38 1_555 1_555
C39 C38 1_555 1_555
H38 C39 1_555 1_555
H39 C39 1_555 1_555
C40 C39 1_555 1_555
H40 C40 1_555 1_555
H41 C40 1_555 1_555
C41 S4 1_555 1_555
C42 N8 1_555 1_555
H42 C42 1_555 1_555
C43 C42 1_555 1_555
H43 C43 1_555 1_555
C44 N7 1_555 1_555
C45 C44 1_555 1_555
C46 C45 1_555 1_555
H44 C46 1_555 1_555
C47 C46 1_555 1_555
H45 C47 1_555 1_555
C48 C47 1_555 1_555
H46 C48 1_555 1_555
C49 C48 1_555 1_555
H47 C49 1_555 1_555
C50 C45 1_555 1_555
H48 C50 1_555 1_555
Cu1A N2 1_555 1_555
Cu1A_2 I2A 1_555 1_555
Cu2A I2 1_555 1_555
I1A Cu1 1_555 1_555
I2A Cu2 1_555 1_555
N2A Cu1 1_555 1_555
Cu3A I3A 1_555 1_555
Cu4A I4 1_555 1_555
Cu4A_2 N8 1_555 1_555
I3A Cu3 1_555 1_555
I4A Cu4 1_555 1_555
N8A Cu4 1_555 1_555
S2 C16 1_555 1_555
C3 C4 1_555 1_555
C9 C10 1_555 1_555
C14 C15 1_555 1_555
C18 C19 1_555 1_555
C24 C25 1_555 1_555
S3 C26 1_555 1_555
C28 C29 1_555 1_555
C34 C35 1_555 1_555
C43 C44 1_555 1_555
C49 C50 1_555 1_555
Cu2A I1A 1_555 1_555
Cu2A I2A 1_555 1_555
Cu3A I4A 1_555 1_555
Cu4A I3A 1_555 1_555

#END
