
#######################################################################
#
#                 Cambridge Crystallographic Data Centre
#                                CCDC 
#
#######################################################################
#
# If this CIF has been generated from an entry in the Cambridge 
# Structural Database, then it will include bibliographic, chemical, 
# crystal, experimental, refinement or atomic coordinate data resulting 
# from the CCDC's data processing and validation procedures.
#
#######################################################################

data_KAWHAS
_symmetry_cell_setting           monoclinic
_symmetry_space_group_name_H-M   'P 21/c'
_symmetry_Int_Tables_number      14
_space_group_name_Hall           '-P 2ybc'
loop_
_symmetry_equiv_pos_site_id
_symmetry_equiv_pos_as_xyz
1 x,y,z
2 -x,1/2+y,1/2-z
3 -x,-y,-z
4 x,1/2-y,1/2+z
_cell_length_a                   8.0456(7)
_cell_length_b                   11.4433(10)
_cell_length_c                   16.9978(15)
_cell_angle_alpha                90
_cell_angle_beta                 93.866(2)
_cell_angle_gamma                90
_cell_volume                     1561.4
loop_
_atom_site_label
_atom_site_type_symbol
_atom_site_fract_x
_atom_site_fract_y
_atom_site_fract_z
Ni1 Ni 0.80657(7) 0.19905(5) 0.83528(3)
C1 C 0.7376(6) 0.0732(4) 0.6832(3)
C2 C 0.6405(6) 0.0555(4) 0.6055(2)
H1 H 0.7089 0.0780 0.5632
H2 H 0.5431 0.1057 0.6030
C3 C 0.5855(6) -0.0708(4) 0.5938(3)
H3 H 0.5586 -0.0837 0.5380
H4 H 0.6786 -0.1212 0.6098
C4 C 0.4378(6) -0.1068(4) 0.6383(3)
C5 C 0.6241(6) -0.0297(4) 0.8624(3)
H5 H 0.5903 -0.0253 0.8091
C6 C 0.5719(7) -0.1238(4) 0.9048(3)
H6 H 0.5043 -0.1814 0.8810
C7 C 0.6228(8) -0.1297(4) 0.9831(4)
H7 H 0.5904 -0.1922 1.0135
C8 C 0.7215(7) -0.0435(5) 1.0166(3)
H8 H 0.7558 -0.0471 1.0699
C9 C 0.7707(6) 0.0496(4) 0.9709(3)
C10 C 0.8707(6) 0.1487(4) 1.0021(3)
C11 C 0.9290(7) 0.1588(5) 1.0801(3)
H9 H 0.9027 0.1020 1.1164
C12 C 1.0239(7) 0.2509(5) 1.1035(3)
H10 H 1.0636 0.2576 1.1560
C13 C 1.0622(7) 0.3349(5) 1.0503(3)
H11 H 1.1290 0.3984 1.0655
C14 C 0.9981(7) 0.3222(4) 0.9731(3)
H12 H 1.0219 0.3790 0.9364
N1 N 0.7197(5) 0.0548(3) 0.8936(2)
N2 N 0.9035(5) 0.2313(3) 0.9495(2)
O1 O 0.6960(4) 0.1541(3) 0.72690(17)
O2 O 0.8552(5) 0.0032(3) 0.6990(2)
O3 O 0.3537(5) -0.0303(3) 0.6673(3)
O4 O 0.4112(4) -0.2150(2) 0.64125(18)
O5 O 1.0248(4) 0.1060(3) 0.81652(17)
O6 O 0.8941(5) 0.3459(3) 0.7822(2)
H13 H 0.982(6) 0.072(5) 0.7757(19)
H14 H 0.823(5) 0.395(4) 0.796(4)
H15 H 1.115(4) 0.140(5) 0.806(3)
H16 H 0.990(3) 0.377(4) 0.786(4)
Ni1A Ni 0.19343(7) -0.30095(5) 0.66472(3)
O4A O 0.5888(4) 0.2850(2) 0.85875(18)
O7 O 0.3193(5) 0.1760(4) 0.7630(3)
H17 H 0.399(5) 0.208(4) 0.790(3)
H18 H 0.352(6) 0.113(3) 0.743(3)
loop_
_geom_bond_atom_site_label_1
_geom_bond_atom_site_label_2
_geom_bond_site_symmetry_1
_geom_bond_site_symmetry_2
Ni1 N1 1_555 1_555
C1 C2 1_555 1_555
C2 H1 1_555 1_555
H2 C2 1_555 1_555
C3 C2 1_555 1_555
H3 C3 1_555 1_555
H4 C3 1_555 1_555
C4 C3 1_555 1_555
C5 H5 1_555 1_555
C6 C5 1_555 1_555
H6 C6 1_555 1_555
C7 C6 1_555 1_555
H7 C7 1_555 1_555
C8 C7 1_555 1_555
H8 C8 1_555 1_555
C9 C8 1_555 1_555
C10 C9 1_555 1_555
C11 C10 1_555 1_555
H9 C11 1_555 1_555
C12 C11 1_555 1_555
H10 C12 1_555 1_555
C13 C12 1_555 1_555
H11 C13 1_555 1_555
C14 C13 1_555 1_555
H12 C14 1_555 1_555
N1 C5 1_555 1_555
N2 Ni1 1_555 1_555
O1 Ni1 1_555 1_555
O2 C1 1_555 1_555
O3 C4 1_555 1_555
O4 C4 1_555 1_555
O5 Ni1 1_555 1_555
O6 Ni1 1_555 1_555
O7 H17 1_555 1_555
H13 O5 1_555 1_555
H14 O6 1_555 1_555
H15 O5 1_555 1_555
H16 O6 1_555 1_555
H18 O7 1_555 1_555
Ni1A O4 1_555 1_555
O4A Ni1 1_555 1_555
C1 O1 1_555 1_555
C9 N1 1_555 1_555
C10 N2 1_555 1_555
C14 N2 1_555 1_555

#END
