
#######################################################################
#
#                 Cambridge Crystallographic Data Centre
#                                CCDC 
#
#######################################################################
#
# If this CIF has been generated from an entry in the Cambridge 
# Structural Database, then it will include bibliographic, chemical, 
# crystal, experimental, refinement or atomic coordinate data resulting 
# from the CCDC's data processing and validation procedures.
#
#######################################################################

data_KAWHUM01
_symmetry_cell_setting           monoclinic
_symmetry_space_group_name_H-M   'P 21/c'
_symmetry_Int_Tables_number      14
_space_group_name_Hall           '-P 2ybc'
loop_
_symmetry_equiv_pos_site_id
_symmetry_equiv_pos_as_xyz
1 x,y,z
2 -x,1/2+y,1/2-z
3 -x,-y,-z
4 x,1/2-y,1/2+z
_cell_length_a                   8.4310(17)
_cell_length_b                   9.4060(19)
_cell_length_c                   8.2790(17)
_cell_angle_alpha                90
_cell_angle_beta                 93.15(3)
_cell_angle_gamma                90
_cell_volume                     655.549
loop_
_atom_site_label
_atom_site_type_symbol
_atom_site_fract_x
_atom_site_fract_y
_atom_site_fract_z
Zn1 Zn 0.37893(3) 0.25746(3) 0.11523(4)
N1 N 0.1507(2) 0.1951(2) 0.1339(2)
N2 N -0.1091(2) 0.2054(3) 0.1151(3)
H1 H -0.2036 0.2373 0.0940
C1 C 0.0909(3) 0.0713(3) 0.1944(3)
H2 H 0.1513 -0.0045 0.2356
C2 C -0.0700(3) 0.0769(3) 0.1843(3)
H3 H -0.1398 0.0076 0.2177
C3 C 0.0264(3) 0.2719(3) 0.0863(4)
H4 H 0.0321 0.3612 0.0386
C4 C 0.5227(2) -0.0173(2) 0.0909(2)
C5 C 0.4146(2) 0.5301(2) -0.0148(2)
O1 O 0.49139(19) 0.07514(17) 0.19263(18)
O2 O 0.58779(19) -0.13559(17) 0.12061(18)
O3 O 0.30254(17) 0.45120(17) 0.01899(19)
O4 O 0.40270(18) 0.65336(17) -0.0713(2)
Zn1B Zn 0.62107(3) -0.25746(3) -0.11523(4)
Zn1A Zn 0.62107(3) -0.24254(3) 0.38477(4)
Zn1B_2 Zn 0.62107(3) 0.74254(3) -0.11523(4)
Zn1C Zn 0.37893(3) 0.24254(3) -0.38477(4)
N1B N 0.8493(2) -0.1951(2) -0.1339(2)
N2B N 1.1091(2) -0.2054(3) -0.1151(3)
H1B H 1.2036 -0.2373 -0.0940
C1B C 0.9091(3) -0.0713(3) -0.1944(3)
H2B H 0.8487 0.0045 -0.2356
C2B C 1.0700(3) -0.0769(3) -0.1843(3)
H3B H 1.1398 -0.0076 -0.2177
C3B C 0.9736(3) -0.2719(3) -0.0863(4)
H4B H 0.9679 -0.3612 -0.0386
C4B C 0.4773(2) 0.0173(2) -0.0909(2)
C5B C 0.5854(2) 0.4699(2) 0.0148(2)
O1B O 0.50861(19) -0.07514(17) -0.19263(18)
O2B O 0.41221(19) 0.13559(17) -0.12061(18)
O2A O 0.41221(19) 0.36441(17) 0.37939(18)
O2C O 0.58779(19) -0.36441(17) -0.37939(18)
O3B O 0.69746(17) 0.54880(17) -0.01899(19)
O3B_2 O 0.69746(17) -0.45120(17) -0.01899(19)
O4B O 0.59730(18) 0.34664(17) 0.0713(2)
O4_2 O 0.40270(18) -0.34664(17) -0.0713(2)
loop_
_geom_bond_atom_site_label_1
_geom_bond_atom_site_label_2
_geom_bond_site_symmetry_1
_geom_bond_site_symmetry_2
Zn1 N1 1_555 1_555
N1 C1 1_555 1_555
N2 H1 1_555 1_555
C1 H2 1_555 1_555
C2 N2 1_555 1_555
H3 C2 1_555 1_555
C3 N1 1_555 1_555
H4 C3 1_555 1_555
C4 O1 1_555 1_555
C5 O3 1_555 1_555
O1 Zn1 1_555 1_555
O2 C4 1_555 1_555
O3 Zn1 1_555 1_555
O4 C5 1_555 1_555
Zn1B O2 1_555 1_555
Zn1A O2 1_555 1_555
Zn1B_2 O4 1_555 1_555
Zn1C O2B 1_555 1_555
N1B Zn1B 1_555 1_555
N2B H1B 1_555 1_555
C1B N1B 1_555 1_555
H2B C1B 1_555 1_555
C2B N2B 1_555 1_555
H3B C2B 1_555 1_555
C3B N1B 1_555 1_555
H4B C3B 1_555 1_555
C4B C4 1_555 1_555
C5B C5 1_555 1_555
O1B Zn1B 1_555 1_555
O2B Zn1 1_555 1_555
O2A Zn1 1_555 1_555
O2C Zn1B 1_555 1_555
O3B Zn1B_2 1_555 1_555
O3B_2 Zn1B 1_555 1_555
O4B Zn1 1_555 1_555
O4_2 Zn1B 1_555 1_555
N2 C3 1_555 1_555
C1 C2 1_555 1_555
N2B C3B 1_555 1_555
C1B C2B 1_555 1_555
C4B O1B 1_555 1_555
C4B O2B 1_555 1_555
C5B O3B 1_555 1_555
C5B O4B 1_555 1_555

#END
