
#######################################################################
#
#                 Cambridge Crystallographic Data Centre
#                                CCDC 
#
#######################################################################
#
# If this CIF has been generated from an entry in the Cambridge 
# Structural Database, then it will include bibliographic, chemical, 
# crystal, experimental, refinement or atomic coordinate data resulting 
# from the CCDC's data processing and validation procedures.
#
#######################################################################

data_KAWHUM
_symmetry_cell_setting           monoclinic
_symmetry_space_group_name_H-M   'P 21/c'
_symmetry_Int_Tables_number      14
_space_group_name_Hall           '-P 2ybc'
loop_
_symmetry_equiv_pos_site_id
_symmetry_equiv_pos_as_xyz
1 x,y,z
2 -x,1/2+y,1/2-z
3 -x,-y,-z
4 x,1/2-y,1/2+z
_cell_length_a                   8.4292(6)
_cell_length_b                   9.4026(7)
_cell_length_c                   8.2760(6)
_cell_angle_alpha                90
_cell_angle_beta                 93.1560(10)
_cell_angle_gamma                90
_cell_volume                     654.931
loop_
_atom_site_label
_atom_site_type_symbol
_atom_site_fract_x
_atom_site_fract_y
_atom_site_fract_z
Zn1 Zn 0.87892(3) 0.25743(2) 0.11511(3)
N1 N 0.65095(19) 0.19520(19) 0.1335(2)
N2 N 0.39079(19) 0.2050(2) 0.1150(2)
H1 H 0.2962 0.2367 0.0939
O1 O 0.80236(14) 0.45128(14) 0.01894(16)
O2 O 0.90285(14) 0.65298(13) -0.07107(16)
O3 O 0.91234(15) 0.13566(14) -0.12053(15)
O4 O 1.00850(16) -0.07513(13) -0.19247(15)
C1 C 0.5904(2) 0.0716(2) 0.1947(3)
H2 H 0.6507 -0.0040 0.2369
C2 C 0.4299(2) 0.0770(2) 0.1842(3)
H3 H 0.3602 0.0075 0.2173
C3 C 0.5258(3) 0.2722(2) 0.0860(3)
H4 H 0.5311 0.3616 0.0385
C4 C 0.9148(2) 0.52975(18) -0.0147(2)
C5 C 0.97756(19) 0.01750(19) -0.0914(2)
Zn1B Zn 1.12108(3) 0.74257(2) -0.11511(3)
Zn1C Zn 0.87892(3) 0.24257(2) -0.38489(3)
Zn1B_2 Zn 1.12108(3) -0.25743(2) -0.11511(3)
Zn1A Zn 1.12108(3) -0.24257(2) 0.38489(3)
N1B N 1.34905(19) 0.80480(19) -0.1335(2)
N2B N 1.60921(19) 0.7950(2) -0.1150(2)
H1B H 1.7038 0.7633 -0.0939
O1B O 1.19764(14) 0.54872(14) -0.01894(16)
O2B O 1.09715(14) 0.34702(13) 0.07107(16)
O3B O 1.08766(15) -0.13566(14) 0.12053(15)
O3C O 0.91234(15) 0.36434(14) 0.37947(15)
O3B_2 O 1.08766(15) 0.86434(14) 0.12053(15)
O3A O 1.08766(15) 0.63566(14) -0.37947(15)
O4B O 0.99150(16) 0.07513(13) 0.19247(15)
O4_2 O 1.00850(16) 0.92487(13) -0.19247(15)
C1B C 1.4096(2) 0.9284(2) -0.1947(3)
H2B H 1.3493 1.0040 -0.2369
C2B C 1.5701(2) 0.9230(2) -0.1842(3)
H3B H 1.6398 0.9925 -0.2173
C3B C 1.4742(3) 0.7278(2) -0.0860(3)
H4B H 1.4689 0.6384 -0.0385
C4B C 1.0852(2) 0.47025(18) 0.0147(2)
C5B C 1.02244(19) -0.01750(19) 0.0914(2)
loop_
_geom_bond_atom_site_label_1
_geom_bond_atom_site_label_2
_geom_bond_site_symmetry_1
_geom_bond_site_symmetry_2
Zn1 N1 1_555 1_555
N1 C1 1_555 1_555
N2 H1 1_555 1_555
O1 Zn1 1_555 1_555
O2 C4 1_555 1_555
O3 Zn1 1_555 1_555
O4 C5 1_555 1_555
C1 H2 1_555 1_555
C2 N2 1_555 1_555
H3 C2 1_555 1_555
C3 N1 1_555 1_555
H4 C3 1_555 1_555
C4 O1 1_555 1_555
C5 O3 1_555 1_555
Zn1B O2 1_555 1_555
Zn1C O3 1_555 1_555
Zn1B_2 O4 1_555 1_555
Zn1A O3B 1_555 1_555
N1B Zn1B 1_555 1_555
N2B H1B 1_555 1_555
O1B Zn1B 1_555 1_555
O2B Zn1 1_555 1_555
O3B Zn1B_2 1_555 1_555
O3C Zn1 1_555 1_555
O3B_2 Zn1B 1_555 1_555
O3A Zn1B 1_555 1_555
O4B Zn1 1_555 1_555
O4_2 Zn1B 1_555 1_555
C1B N1B 1_555 1_555
H2B C1B 1_555 1_555
C2B N2B 1_555 1_555
H3B C2B 1_555 1_555
C3B N1B 1_555 1_555
H4B C3B 1_555 1_555
C4B C4 1_555 1_555
C5B C5 1_555 1_555
N2 C3 1_555 1_555
C1 C2 1_555 1_555
N2B C3B 1_555 1_555
O1B C4B 1_555 1_555
O2B C4B 1_555 1_555
O3B C5B 1_555 1_555
O4B C5B 1_555 1_555
C1B C2B 1_555 1_555

#END
