
#######################################################################
#
#                 Cambridge Crystallographic Data Centre
#                                CCDC 
#
#######################################################################
#
# If this CIF has been generated from an entry in the Cambridge 
# Structural Database, then it will include bibliographic, chemical, 
# crystal, experimental, refinement or atomic coordinate data resulting 
# from the CCDC's data processing and validation procedures.
#
#######################################################################

data_KAWHOG
_symmetry_cell_setting           triclinic
_symmetry_space_group_name_H-M   'P -1'
_symmetry_Int_Tables_number      2
_space_group_name_Hall           '-P 1'
loop_
_symmetry_equiv_pos_site_id
_symmetry_equiv_pos_as_xyz
1 x,y,z
2 -x,-y,-z
_cell_length_a                   7.2520(7)
_cell_length_b                   8.9863(9)
_cell_length_c                   11.3985(11)
_cell_angle_alpha                77.661(2)
_cell_angle_beta                 85.244(2)
_cell_angle_gamma                88.405(2)
_cell_volume                     723.128
loop_
_atom_site_label
_atom_site_type_symbol
_atom_site_fract_x
_atom_site_fract_y
_atom_site_fract_z
Zn1 Zn -0.27684(6) 0.24634(5) -0.30662(4)
C1 C 0.0013(5) 0.1040(4) -0.2056(3)
C2 C 0.1277(5) -0.0199(4) -0.1507(3)
H1 H 0.1716 -0.0782 -0.2123
H2 H 0.0570 -0.0905 -0.0848
C3 C 0.2925(5) 0.0346(4) -0.1013(3)
H3 H 0.2497 0.1051 -0.0486
H4 H 0.3530 -0.0538 -0.0510
C4 C 0.4315(5) 0.1138(4) -0.1961(3)
C5 C -0.1747(5) 0.5510(4) -0.2610(3)
H5 H -0.1724 0.4992 -0.1793
C6 C -0.1353(6) 0.7015(4) -0.2900(4)
H6 H -0.1057 0.7538 -0.2300
C7 C -0.1391(5) 0.7765(4) -0.4074(4)
H7 H -0.1116 0.8820 -0.4304
C8 C -0.1831(5) 0.6972(4) -0.4918(3)
H8 H -0.1869 0.7472 -0.5739
C9 C -0.2213(5) 0.5460(4) -0.4559(3)
C10 C -0.2730(5) 0.4519(4) -0.5378(3)
C11 C -0.2857(5) 0.5056(4) -0.6585(3)
H9 H -0.2547 0.6082 -0.6944
C12 C -0.3433(5) 0.4111(4) -0.7275(3)
H10 H -0.3524 0.4470 -0.8115
C13 C -0.3873(5) 0.2644(4) -0.6737(4)
H11 H -0.4304 0.1970 -0.7191
C14 C -0.3683(5) 0.2164(4) -0.5536(3)
H12 H -0.3958 0.1134 -0.5167
N1 N -0.2162(4) 0.4726(3) -0.3412(3)
N2 N -0.3135(4) 0.3067(3) -0.4862(2)
O1 O -0.1016(4) 0.0753(3) -0.2824(2)
O2 O -0.0082(4) 0.2258(3) -0.1750(2)
O3 O 0.5424(4) 0.2046(3) -0.1655(2)
O4 O 0.4450(4) 0.0908(3) -0.2980(2)
Zn1_2 Zn 0.72316(6) 0.24634(5) -0.30662(4)
O3_2 O -0.4576(4) 0.2046(3) -0.1655(2)
O4_2 O -0.5550(4) 0.0908(3) -0.2980(2)
O5 O 0.0872(5) 0.3650(3) 0.0022(3)
H13 H 0.043(6) 0.313(4) -0.043(3)
H15 H 0.156(5) 0.434(4) -0.040(3)
O6 O 0.4595(5) 0.3493(4) 0.0254(3)
H14 H 0.3433(14) 0.348(5) 0.023(4)
H16 H 0.513(4) 0.315(5) -0.032(3)
loop_
_geom_bond_atom_site_label_1
_geom_bond_atom_site_label_2
_geom_bond_site_symmetry_1
_geom_bond_site_symmetry_2
Zn1 N1 1_555 1_555
C1 C2 1_555 1_555
C2 H1 1_555 1_555
H2 C2 1_555 1_555
C3 C2 1_555 1_555
H3 C3 1_555 1_555
H4 C3 1_555 1_555
C4 C3 1_555 1_555
C5 H5 1_555 1_555
C6 C5 1_555 1_555
H6 C6 1_555 1_555
C7 C6 1_555 1_555
H7 C7 1_555 1_555
C8 C7 1_555 1_555
H8 C8 1_555 1_555
C9 C8 1_555 1_555
C10 C9 1_555 1_555
C11 C10 1_555 1_555
H9 C11 1_555 1_555
C12 C11 1_555 1_555
H10 C12 1_555 1_555
C13 C12 1_555 1_555
H11 C13 1_555 1_555
C14 C13 1_555 1_555
H12 C14 1_555 1_555
N1 C5 1_555 1_555
N2 Zn1 1_555 1_555
O1 Zn1 1_555 1_555
O2 C1 1_555 1_555
O3 C4 1_555 1_555
O4 C4 1_555 1_555
O5 H13 1_555 1_555
O6 H14 1_555 1_555
H15 O5 1_555 1_555
H16 O6 1_555 1_555
Zn1_2 O3 1_555 1_555
O3_2 Zn1 1_555 1_555
O4_2 Zn1 1_555 1_555
C1 O1 1_555 1_555
C9 N1 1_555 1_555
C10 N2 1_555 1_555
C14 N2 1_555 1_555
O4 Zn1_2 1_555 1_555

#END
