
#######################################################################
#
#                 Cambridge Crystallographic Data Centre
#                                CCDC 
#
#######################################################################
#
# If this CIF has been generated from an entry in the Cambridge 
# Structural Database, then it will include bibliographic, chemical, 
# crystal, experimental, refinement or atomic coordinate data resulting 
# from the CCDC's data processing and validation procedures.
#
#######################################################################

data_KAWHUM02
_symmetry_cell_setting           monoclinic
_symmetry_space_group_name_H-M   'P 21/a'
_symmetry_Int_Tables_number      14
_space_group_name_Hall           '-P 2yab'
loop_
_symmetry_equiv_pos_site_id
_symmetry_equiv_pos_as_xyz
1 x,y,z
2 1/2-x,1/2+y,-z
3 -x,-y,-z
4 1/2+x,1/2-y,z
_cell_length_a                   8.1997(22)
_cell_length_b                   9.3759(23)
_cell_length_c                   8.4240(23)
_cell_angle_alpha                90
_cell_angle_beta                 93.1848(70)
_cell_angle_gamma                90
_cell_volume                     646.633
loop_
_atom_site_label
_atom_site_type_symbol
_atom_site_fract_x
_atom_site_fract_y
_atom_site_fract_z
O1 O -0.0197(4) 1.0478(4) 0.6980(4)
C1 C 0.0141(5) 0.9699(5) 0.5842(6)
H1 H -0.103(8) 1.270(6) 1.185(9)
Zn1 Zn -0.11937(7) 1.24195(6) 0.62092(7)
O2 O 0.0735(4) 0.8463(3) 0.5975(4)
O3 O -0.1946(4) 1.4259(4) 0.5084(4)
O4 O -0.1204(4) 1.6374(3) 0.4125(4)
N1 N -0.1132(6) 1.2963(6) 1.1091(6)
C2 C -0.0918(5) 1.5183(5) 0.4765(5)
N2 N -0.1338(5) 1.3069(5) 0.8475(5)
C3 C -0.1960(6) 1.4306(5) 0.9108(6)
H2 H -0.2404 1.5059 0.8508
C4 C -0.1835(6) 1.4272(6) 1.0721(6)
H3 H -0.2152 1.4973 1.1422
C5 C -0.0847(7) 1.2292(6) 0.9752(7)
H4 H -0.0366 1.1396 0.9702
O1B O 0.0197(4) 0.9522(4) 0.3020(4)
C1B C -0.0141(5) 1.0301(5) 0.4158(6)
H1B H 0.103(8) 0.730(6) -0.185(9)
Zn1B Zn 0.11937(7) 0.75805(6) 0.37908(7)
Zn1A Zn -0.38063(7) 1.74195(6) 0.37908(7)
Zn1B_2 Zn 0.11937(7) 1.75805(6) 0.37908(7)
Zn1C Zn 0.38063(7) 1.25805(6) 0.62092(7)
O2B O -0.0735(4) 1.1537(3) 0.4025(4)
O3B O 0.1946(4) 1.5741(4) 0.4916(4)
O3B_2 O 0.1946(4) 0.5741(4) 0.4916(4)
O4B O 0.1204(4) 1.3626(3) 0.5875(4)
O4A O -0.3796(4) 1.1374(3) 0.5875(4)
O4C O 0.3796(4) 0.8626(3) 0.4125(4)
O4_2 O -0.1204(4) 0.6374(3) 0.4125(4)
N1B N 0.1132(6) 0.7037(6) -0.1091(6)
C2B C 0.0918(5) 1.4817(5) 0.5235(5)
N2B N 0.1338(5) 0.6931(5) 0.1525(5)
C3B C 0.1960(6) 0.5694(5) 0.0892(6)
H2B H 0.2404 0.4941 0.1492
C4B C 0.1835(6) 0.5728(6) -0.0721(6)
H3B H 0.2152 0.5027 -0.1422
C5B C 0.0847(7) 0.7708(6) 0.0248(7)
H4B H 0.0366 0.8604 0.0298
loop_
_geom_bond_atom_site_label_1
_geom_bond_atom_site_label_2
_geom_bond_site_symmetry_1
_geom_bond_site_symmetry_2
O1 C1 1_555 1_555
C1 O2 1_555 1_555
H1 N1 1_555 1_555
Zn1 O1 1_555 1_555
O2 Zn1B 1_555 1_555
O3 Zn1 1_555 1_555
O4 C2 1_555 1_555
N1 C4 1_555 1_555
C2 O3 1_555 1_555
N2 Zn1 1_555 1_555
C3 N2 1_555 1_555
H2 C3 1_555 1_555
C4 C3 1_555 1_555
H3 C4 1_555 1_555
C5 N1 1_555 1_555
H4 C5 1_555 1_555
O1B C1B 1_555 1_555
C1B C1 1_555 1_555
H1B N1B 1_555 1_555
Zn1B O1B 1_555 1_555
Zn1A O4 1_555 1_555
Zn1B_2 O4 1_555 1_555
Zn1C O4B 1_555 1_555
O2B Zn1 1_555 1_555
O3B Zn1B_2 1_555 1_555
O3B_2 Zn1B 1_555 1_555
O4B Zn1 1_555 1_555
O4A Zn1 1_555 1_555
O4C Zn1B 1_555 1_555
O4_2 Zn1B 1_555 1_555
N1B C4B 1_555 1_555
C2B C2 1_555 1_555
N2B Zn1B 1_555 1_555
C3B N2B 1_555 1_555
H2B C3B 1_555 1_555
C4B C3B 1_555 1_555
H3B C4B 1_555 1_555
C5B N1B 1_555 1_555
H4B C5B 1_555 1_555
N2 C5 1_555 1_555
C1B O2B 1_555 1_555
O3B C2B 1_555 1_555
O4B C2B 1_555 1_555
N2B C5B 1_555 1_555

#END
