
#######################################################################
#
#                 Cambridge Crystallographic Data Centre
#                                CCDC 
#
#######################################################################
#
# If this CIF has been generated from an entry in the Cambridge 
# Structural Database, then it will include bibliographic, chemical, 
# crystal, experimental, refinement or atomic coordinate data resulting 
# from the CCDC's data processing and validation procedures.
#
#######################################################################

data_KAWNED
_symmetry_cell_setting           monoclinic
_symmetry_space_group_name_H-M   'P 21/c'
_symmetry_Int_Tables_number      14
_space_group_name_Hall           '-P 2ybc'
loop_
_symmetry_equiv_pos_site_id
_symmetry_equiv_pos_as_xyz
1 x,y,z
2 -x,1/2+y,1/2-z
3 -x,-y,-z
4 x,1/2-y,1/2+z
_cell_length_a                   10.8102(4)
_cell_length_b                   16.2514(5)
_cell_length_c                   12.5666(4)
_cell_angle_alpha                90
_cell_angle_beta                 94.5590(10)
_cell_angle_gamma                90
_cell_volume                     2200.73
loop_
_atom_site_label
_atom_site_type_symbol
_atom_site_fract_x
_atom_site_fract_y
_atom_site_fract_z
Ag1 Ag 0.99342(7) 0.91242(6) 0.50244(7)
Ag2 Ag 1.19361(18) 0.78265(11) 0.63357(19)
Ag3 Ag 1.33801(6) 0.59916(5) 0.42007(6)
Ag4 Ag 1.16688(6) 0.56984(6) 0.60641(6)
Ag5 Ag 0.54086(6) 0.67587(5) -0.00007(7)
Ag6 Ag 0.5000 0.5000 0.0000
Ag7 Ag 1.27872(8) 0.39321(5) 0.48929(7)
S1 S 1.54010(18) 1.16665(12) 0.84471(17)
S2 S 1.0599(2) 0.70532(16) 0.3996(3)
O1 O 1.1730(5) 0.9190(4) 0.5923(5)
O2 O 1.1744(5) 1.0567(4) 0.5921(5)
O3 O 1.5187(6) 1.1729(4) 0.9585(5)
O4 O 1.6718(5) 1.1697(4) 0.8283(6)
O5 O 1.4695(6) 1.2272(4) 0.7821(6)
O6 O 1.6399(4) 1.0001(3) 0.9173(4)
O7 O 0.6713(5) 0.5066(4) 0.1019(5)
O8 O 0.7021(5) 0.6420(4) 0.1056(5)
O9 O 1.1799(8) 0.7107(6) 0.3846(16)
O10 O 1.0595(11) 0.6879(7) 0.5240(9)
O11 O 0.9746(7) 0.7703(5) 0.3847(9)
O12 O 1.1520(5) 0.5248(4) 0.4241(5)
O13 O 0.3493(7) 0.6642(5) -0.0691(7)
H1 H 0.307(11) 0.623(5) -0.093(9)
H2 H 0.339(13) 0.704(5) -0.113(8)
O14 O 0.7031(6) 0.7555(4) -0.1084(6)
H3 H 0.669(9) 0.756(7) -0.172(3)
H4 H 0.764(8) 0.722(6) -0.105(8)
O15 O 1.1862(7) 0.2982(4) 0.3787(7)
H5 H 1.222(8) 0.256(4) 0.405(10)
H6 H 1.109(3) 0.288(7) 0.365(11)
C1 C 1.2186(6) 0.9882(5) 0.6196(6)
C2 C 1.3364(6) 0.9888(5) 0.6903(6)
C3 C 1.3826(7) 1.0634(5) 0.7287(6)
H7 H 1.3431 1.1117 0.7050
C4 C 1.4868(6) 1.0689(5) 0.8020(6)
C5 C 1.5473(6) 0.9973(5) 0.8442(6)
C6 C 1.4999(6) 0.9203(4) 0.8019(6)
H8 H 1.5386 0.8716 0.8246
C7 C 1.3979(7) 0.9172(5) 0.7283(7)
H9 H 1.3693 0.8663 0.7031
C8 C 0.7298(7) 0.5705(5) 0.1321(6)
C9 C 0.8440(7) 0.5581(5) 0.2063(7)
C10 C 0.8965(8) 0.6243(6) 0.2632(8)
H10 H 0.8632 0.6765 0.2506
C11 C 0.9977(8) 0.6152(5) 0.3389(8)
C12 C 1.0557(7) 0.5364(5) 0.3572(6)
C13 C 1.0030(7) 0.4701(5) 0.2955(6)
H11 H 1.0393 0.4183 0.3034
C14 C 0.8989(7) 0.4795(5) 0.2234(6)
H12 H 0.8655 0.4341 0.1864
Ag1B Ag 0.00658(7) 0.08758(6) -0.50244(7)
Ag1B_2 Ag 1.00658(7) 1.08758(6) 0.49756(7)
Ag1_2 Ag -0.00658(7) -0.08758(6) -0.49756(7)
Ag2B Ag -0.19361(18) 0.21735(11) -0.63357(19)
Ag2A Ag 1.80639(18) 1.28265(11) 0.86643(19)
Ag2B_2 Ag 0.80639(18) 1.21735(11) 0.36643(19)
Ag2C Ag 0.19361(18) 0.71735(11) 0.13357(19)
Ag3B Ag -0.33801(6) 0.40084(5) -0.42007(6)
Ag3A Ag 1.66199(6) 1.09916(5) 1.07993(6)
Ag3C Ag 1.33801(6) 0.90084(5) 0.92007(6)
Ag3C_2 Ag 0.33801(6) 0.90084(5) -0.07993(6)
Ag3A_2 Ag 0.66199(6) 1.09916(5) 0.07993(6)
Ag4B Ag -0.16688(6) 0.43016(6) -0.60641(6)
Ag4A Ag 1.83312(6) 1.06984(6) 0.89359(6)
Ag4B_2 Ag 0.83312(6) 0.43016(6) 0.39359(6)
Ag4_2 Ag 0.16688(6) 0.56984(6) -0.39359(6)
Ag4C Ag 0.16688(6) 0.93016(6) 0.10641(6)
Ag5B Ag 0.45914(6) 0.32413(5) 0.00007(7)
Ag5B_2 Ag 1.45914(6) 1.32413(5) 1.00007(7)
Ag5A Ag 1.45914(6) 0.17587(5) 0.50007(7)
Ag7B Ag -0.27872(8) 0.60679(5) -0.48929(7)
Ag7C Ag 1.27872(8) 1.10679(5) 0.98929(7)
Ag7A Ag 1.72128(8) 0.89321(5) 1.01071(7)
Ag7A_2 Ag 0.72128(8) 0.89321(5) 0.01071(7)
Ag7C_2 Ag 0.27872(8) 1.10679(5) -0.01071(7)
S1B S 0.45990(18) 0.83335(12) 0.15529(17)
S2B S -0.0599(2) 0.29468(16) -0.3996(3)
O1B O 0.8270(5) 1.0810(4) 0.4077(5)
O1B_2 O -0.1730(5) 0.0810(4) -0.5923(5)
O2B O 0.8256(5) 0.9433(4) 0.4079(5)
O2_2 O 0.1744(5) 0.0567(4) -0.4079(5)
O3B O 0.4813(6) 0.8271(4) 0.0415(5)
O3A O 1.4813(6) 0.6729(4) 0.5415(5)
O3C O 1.5187(6) 0.3271(4) 0.4585(5)
O3C_2 O -0.4813(6) 0.3271(4) -0.5415(5)
O3_2 O 0.5187(6) 0.1729(4) -0.0415(5)
O3A_2 O -0.5187(6) 0.6729(4) -0.4585(5)
O4B O 0.3282(5) 0.8303(4) 0.1717(6)
O4A O 1.3282(5) 0.6697(4) 0.6717(6)
O4C O -0.3282(5) 0.3303(4) -0.6717(6)
O5B O 0.5305(6) 0.7728(4) 0.2179(6)
O6B O 0.3601(4) 0.9999(3) 0.0827(4)
O6A O 1.3601(4) 0.5001(3) 0.5827(4)
O6C O -0.3601(4) 0.4999(3) -0.5827(4)
O7B O 0.3287(5) 0.4934(4) -0.1019(5)
O8B O 0.2979(5) 0.3580(4) -0.1056(5)
O9B O -0.1799(8) 0.2893(6) -0.3846(16)
O10B O -0.0595(11) 0.3121(7) -0.5240(9)
O11B O 0.0254(7) 0.2297(5) -0.3847(9)
O12B O -0.1520(5) 0.4752(4) -0.4241(5)
O13B O 0.6507(7) 0.3358(5) 0.0691(7)
H1B H 0.693(11) 0.377(5) 0.093(9)
H2B H 0.661(13) 0.296(5) 0.113(8)
O14A O 1.2969(6) 0.2555(4) 0.6084(6)
O14B O 0.2969(6) 0.2445(4) 0.1084(6)
O14C O -0.2969(6) 0.7445(4) -0.6084(6)
H3A H 1.331(9) 0.256(7) 0.672(3)
H3B H 0.331(9) 0.244(7) 0.172(3)
H3C H -0.331(9) 0.744(7) -0.672(3)
H4A H 1.236(8) 0.222(6) 0.605(8)
H4B H 0.236(8) 0.278(6) 0.105(8)
H4C H -0.236(8) 0.778(6) -0.605(8)
O15B O -0.1862(7) 0.7018(4) -0.3787(7)
H5B H -0.222(8) 0.744(4) -0.405(10)
H6B H -0.109(3) 0.712(7) -0.365(11)
C1B C 0.7814(6) 1.0118(5) 0.3804(6)
C2B C 0.6636(6) 1.0112(5) 0.3097(6)
C3B C 0.6174(7) 0.9366(5) 0.2713(6)
H7B H 0.6569 0.8883 0.2950
C4B C 0.5132(6) 0.9311(5) 0.1980(6)
C5B C 0.4527(6) 1.0027(5) 0.1558(6)
C6B C 0.5001(6) 1.0797(4) 0.1981(6)
C6C C 1.4999(6) 0.5797(4) 0.3019(6)
C6A C -0.4999(6) 0.4203(4) -0.3019(6)
H8B H 0.4614 1.1284 0.1754
H8C H 1.5386 0.6284 0.3246
H8A H -0.5386 0.3716 -0.3246
C7B C 0.6021(7) 1.0828(5) 0.2717(7)
C7C C 1.3979(7) 0.5828(5) 0.2283(7)
C7A C -0.3979(7) 0.4172(5) -0.2283(7)
H9B H 0.6307 1.1337 0.2969
H9C H 1.3693 0.6337 0.2031
H9A H -0.3693 0.3663 -0.2031
C8B C 0.2702(7) 0.4295(5) -0.1321(6)
C9B C 0.1560(7) 0.4419(5) -0.2063(7)
C10B C 0.1035(8) 0.3757(6) -0.2632(8)
H10B H 0.1368 0.3235 -0.2506
C11B C 0.0023(8) 0.3848(5) -0.3389(8)
C12B C -0.0557(7) 0.4636(5) -0.3572(6)
C13B C -0.0030(7) 0.5299(5) -0.2955(6)
C13B_2 C 0.9970(7) 0.5299(5) 0.7045(6)
C13_2 C 0.0030(7) 0.4701(5) -0.7045(6)
H11B H -0.0393 0.5817 -0.3034
H11B_2 H 0.9607 0.5817 0.6966
H11_2 H 0.0393 0.4183 -0.6966
C14B C 0.1011(7) 0.5205(5) -0.2234(6)
C14B_2 C 1.1011(7) 0.5205(5) 0.7766(6)
C14_2 C -0.1011(7) 0.4795(5) -0.7766(6)
H12B H 0.1345 0.5659 -0.1864
H12B_2 H 1.1345 0.5659 0.8136
H12_2 H -0.1345 0.4341 -0.8136
loop_
_geom_bond_atom_site_label_1
_geom_bond_atom_site_label_2
_geom_bond_site_symmetry_1
_geom_bond_site_symmetry_2
Ag1 Ag2 1_555 1_555
Ag2 Ag4 1_555 1_555
Ag3 Ag4 1_555 1_555
Ag4 Ag7 1_555 1_555
Ag5 Ag6 1_555 1_555
Ag6 O7 1_555 1_555
Ag7 O12 1_555 1_555
S1 O3 1_555 1_555
S2 O9 1_555 1_555
O1 Ag1 1_555 1_555
O2 C1 1_555 1_555
O3 Ag3A 1_555 1_555
O4 S1 1_555 1_555
O5 S1 1_555 1_555
O6 C5 1_555 1_555
O7 C8 1_555 1_555
O8 Ag5 1_555 1_555
O9 Ag3 1_555 1_555
O10 Ag2 1_555 1_555
O11 Ag1 1_555 1_555
O12 Ag3 1_555 1_555
O13 Ag5 1_555 1_555
H1 O13 1_555 1_555
H2 O13 1_555 1_555
O14 Ag5 1_555 1_555
H3 O14 1_555 1_555
H4 O14 1_555 1_555
O15 Ag7 1_555 1_555
H5 O15 1_555 1_555
H6 O15 1_555 1_555
C1 O1 1_555 1_555
C2 C1 1_555 1_555
C3 C2 1_555 1_555
H7 C3 1_555 1_555
C4 S1 1_555 1_555
C5 C4 1_555 1_555
C6 C5 1_555 1_555
H8 C6 1_555 1_555
C7 C2 1_555 1_555
H9 C7 1_555 1_555
C8 O8 1_555 1_555
C9 C8 1_555 1_555
C10 C9 1_555 1_555
H10 C10 1_555 1_555
C11 S2 1_555 1_555
C12 O12 1_555 1_555
C13 C12 1_555 1_555
H11 C13 1_555 1_555
C14 C9 1_555 1_555
H12 C14 1_555 1_555
Ag1B Ag1_2 1_555 1_555
Ag1B_2 Ag1 1_555 1_555
Ag2B Ag1B 1_555 1_555
Ag2A O4 1_555 1_555
Ag2B_2 Ag1B_2 1_555 1_555
Ag2C Ag4C 1_555 1_555
Ag3B Ag4B 1_555 1_555
Ag3A O6 1_555 1_555
Ag3C C6 1_555 1_555
Ag3C_2 Ag4C 1_555 1_555
Ag3A_2 C6B 1_555 1_555
Ag4B Ag2B 1_555 1_555
Ag4A O4 1_555 1_555
Ag4B_2 C13 1_555 1_555
Ag4_2 C13B 1_555 1_555
Ag4C Ag7C_2 1_555 1_555
Ag5B Ag6 1_555 1_555
Ag5B_2 O3 1_555 1_555
Ag5A O3C 1_555 1_555
Ag7B Ag4B 1_555 1_555
Ag7C O3 1_555 1_555
Ag7A O6 1_555 1_555
Ag7A_2 O14 1_555 1_555
Ag7C_2 O6B 1_555 1_555
S1B O3B 1_555 1_555
S2B O9B 1_555 1_555
O1B Ag1B_2 1_555 1_555
O1B_2 Ag1B 1_555 1_555
O2B Ag1 1_555 1_555
O2_2 Ag1B 1_555 1_555
O3B Ag5 1_555 1_555
O3A Ag3 1_555 1_555
O3C Ag7 1_555 1_555
O3C_2 Ag3B 1_555 1_555
O3_2 Ag5B 1_555 1_555
O3A_2 Ag7B 1_555 1_555
O4B Ag2C 1_555 1_555
O4A Ag2 1_555 1_555
O4C Ag2B 1_555 1_555
O5B S1B 1_555 1_555
O6B Ag3C_2 1_555 1_555
O6A Ag3 1_555 1_555
O6C Ag3B 1_555 1_555
O7B Ag6 1_555 1_555
O8B Ag5B 1_555 1_555
O9B Ag3B 1_555 1_555
O10B Ag2B 1_555 1_555
O11B Ag1B 1_555 1_555
O12B Ag3B 1_555 1_555
O13B Ag5B 1_555 1_555
H1B O13B 1_555 1_555
H2B O13B 1_555 1_555
O14A Ag7 1_555 1_555
O14B Ag5B 1_555 1_555
O14C Ag7B 1_555 1_555
H3A O14A 1_555 1_555
H3B O14B 1_555 1_555
H3C O14C 1_555 1_555
H4A O14A 1_555 1_555
H4B O14B 1_555 1_555
H4C O14C 1_555 1_555
O15B Ag7B 1_555 1_555
H5B O15B 1_555 1_555
H6B O15B 1_555 1_555
C1B O1B 1_555 1_555
C2B C1B 1_555 1_555
C3B C2B 1_555 1_555
H7B C3B 1_555 1_555
C4B S1B 1_555 1_555
C5B O6B 1_555 1_555
C6B C5B 1_555 1_555
C6C Ag3 1_555 1_555
C6A Ag3B 1_555 1_555
H8B C6B 1_555 1_555
H8C C6C 1_555 1_555
H8A C6A 1_555 1_555
C7B Ag3A_2 1_555 1_555
C7C Ag3 1_555 1_555
C7A Ag3B 1_555 1_555
H9B C7B 1_555 1_555
H9C C7C 1_555 1_555
H9A C7A 1_555 1_555
C8B O7B 1_555 1_555
C9B C8B 1_555 1_555
C10B C9B 1_555 1_555
H10B C10B 1_555 1_555
C11B S2B 1_555 1_555
C12B O12B 1_555 1_555
C13B C12B 1_555 1_555
C13B_2 Ag4 1_555 1_555
C13_2 Ag4B 1_555 1_555
H11B C13B 1_555 1_555
H11B_2 C13B_2 1_555 1_555
H11_2 C13_2 1_555 1_555
C14B Ag4_2 1_555 1_555
C14B_2 Ag4 1_555 1_555
C14_2 Ag4B 1_555 1_555
H12B C14B 1_555 1_555
H12B_2 C14B_2 1_555 1_555
H12_2 C14_2 1_555 1_555
Ag2 O1 1_555 1_555
Ag4 O10 1_555 1_555
Ag4 O12 1_555 1_555
Ag4 O4A 1_555 1_555
Ag4 O6A 1_555 1_555
Ag7 O6A 1_555 1_555
S2 O10 1_555 1_555
S2 O11 1_555 1_555
O2 Ag1B_2 1_555 1_555
O6 Ag4A 1_555 1_555
C3 C4 1_555 1_555
C6 C7 1_555 1_555
C7 Ag3C 1_555 1_555
C10 C11 1_555 1_555
C11 C12 1_555 1_555
C13 C14 1_555 1_555
C14 Ag4B_2 1_555 1_555
Ag2B O1B_2 1_555 1_555
Ag2A Ag4A 1_555 1_555
Ag2B_2 O1B 1_555 1_555
Ag3A Ag4A 1_555 1_555
Ag3C_2 O3B 1_555 1_555
Ag4B O4C 1_555 1_555
Ag4B O6C 1_555 1_555
Ag4B O10B 1_555 1_555
Ag4B O12B 1_555 1_555
Ag4A Ag7A 1_555 1_555
Ag4C O4B 1_555 1_555
Ag4C O6B 1_555 1_555
Ag5A O14A 1_555 1_555
Ag7B O6C 1_555 1_555
Ag7B O12B 1_555 1_555
Ag7A_2 O3B 1_555 1_555
S1B O4B 1_555 1_555
S2B O10B 1_555 1_555
S2B O11B 1_555 1_555
O2B C1B 1_555 1_555
O8B C8B 1_555 1_555
C2B C7B 1_555 1_555
C3B C4B 1_555 1_555
C4B C5B 1_555 1_555
C6B C7B 1_555 1_555
C6C C7C 1_555 1_555
C6A C7A 1_555 1_555
C9B C14B 1_555 1_555
C10B C11B 1_555 1_555
C11B C12B 1_555 1_555
C13B C14B 1_555 1_555
C13B_2 C14B_2 1_555 1_555
C13_2 C14_2 1_555 1_555

#END
