
#######################################################################
#
#                 Cambridge Crystallographic Data Centre
#                                CCDC 
#
#######################################################################
#
# If this CIF has been generated from an entry in the Cambridge 
# Structural Database, then it will include bibliographic, chemical, 
# crystal, experimental, refinement or atomic coordinate data resulting 
# from the CCDC's data processing and validation procedures.
#
#######################################################################

data_KAWPAB
_symmetry_cell_setting           monoclinic
_symmetry_space_group_name_H-M   'P 21/c'
_symmetry_Int_Tables_number      14
_space_group_name_Hall           '-P 2ybc'
loop_
_symmetry_equiv_pos_site_id
_symmetry_equiv_pos_as_xyz
1 x,y,z
2 -x,1/2+y,1/2-z
3 -x,-y,-z
4 x,1/2-y,1/2+z
_cell_length_a                   13.257(3)
_cell_length_b                   6.5426(13)
_cell_length_c                   14.635(3)
_cell_angle_alpha                90
_cell_angle_beta                 104.98(3)
_cell_angle_gamma                90
_cell_volume                     1226.23
loop_
_atom_site_label
_atom_site_type_symbol
_atom_site_fract_x
_atom_site_fract_y
_atom_site_fract_z
Ag1 Ag 0.74076(6) 0.58675(14) 0.28074(6)
Ag2 Ag 0.40799(7) 0.39089(13) 0.90942(6)
S1 S 0.8537(2) 0.4277(4) 0.54896(18)
O1 O 0.8009(6) 0.4195(11) 0.4499(5)
O3 O 0.9030(7) 0.6238(12) 0.5788(6)
O4 O 0.9224(6) 0.2535(11) 0.5795(5)
O5 O 0.8753(5) 0.4191(11) 0.7573(5)
H3 H 0.8781 0.4564 0.8114
O6 O 0.5238(6) 0.3832(11) 0.8325(5)
O7 O 0.4099(6) 0.3749(11) 0.6901(5)
N1 N 0.3146(7) 0.3918(13) 1.0073(7)
H4 H 0.3555 0.3852 1.0659
H5 H 0.2770 0.5061 1.0005
H6 H 0.2720 0.2843 0.9966
N2 N 0.8884(7) 0.5774(12) 0.2452(7)
H7 H 0.9399 0.5704 0.2980
H8 H 0.8958 0.6899 0.2134
H9 H 0.8906 0.4681 0.2096
C1 C 0.7527(8) 0.4032(14) 0.6095(7)
C2 C 0.7747(8) 0.4046(13) 0.7076(7)
C3 C 0.6921(8) 0.3919(13) 0.7510(7)
H10 H 0.7062 0.3916 0.8167
C4 C 0.5905(7) 0.3801(13) 0.6976(7)
C5 C 0.5687(8) 0.3719(15) 0.5999(7)
H11 H 0.5003 0.3575 0.5636
C6 C 0.6501(8) 0.3854(13) 0.5567(7)
H12 H 0.6355 0.3825 0.4910
C7 C 0.5004(8) 0.3789(13) 0.7433(7)
Ag1B Ag 0.25924(6) 0.41325(14) 0.71926(6)
Ag2B Ag 0.59201(7) 0.60911(13) 0.09058(6)
Ag2B_2 Ag 0.59201(7) 0.60911(13) 1.09058(6)
O7B O 0.5901(6) 0.6251(11) 0.3099(5)
O2 O 0.1141(6) 0.4616(13) 0.0698(5)
H1 H 0.083(9) 0.347(8) 0.056(7)
H2 H 0.094(10) 0.544(12) 0.024(5)
loop_
_geom_bond_atom_site_label_1
_geom_bond_atom_site_label_2
_geom_bond_site_symmetry_1
_geom_bond_site_symmetry_2
Ag1 O1 1_555 1_555
Ag2 O6 1_555 1_555
S1 O1 1_555 1_555
O2 H1 1_555 1_555
H2 O2 1_555 1_555
O3 S1 1_555 1_555
O4 S1 1_555 1_555
O5 H3 1_555 1_555
O6 C7 1_555 1_555
O7 C7 1_555 1_555
N1 Ag2 1_555 1_555
H4 N1 1_555 1_555
H5 N1 1_555 1_555
H6 N1 1_555 1_555
N2 Ag1 1_555 1_555
H7 N2 1_555 1_555
H8 N2 1_555 1_555
H9 N2 1_555 1_555
C1 S1 1_555 1_555
C2 O5 1_555 1_555
C3 C2 1_555 1_555
H10 C3 1_555 1_555
C4 C3 1_555 1_555
C5 C4 1_555 1_555
H11 C5 1_555 1_555
C6 C1 1_555 1_555
H12 C6 1_555 1_555
C7 C4 1_555 1_555
Ag1B Ag2 1_555 1_555
Ag2B Ag1 1_555 1_555
Ag2B_2 Ag2 1_555 1_555
O7B Ag1 1_555 1_555
O7 Ag1B 1_555 1_555
C1 C2 1_555 1_555
C5 C6 1_555 1_555

#END
