
#######################################################################
#
#                 Cambridge Crystallographic Data Centre
#                                CCDC 
#
#######################################################################
#
# If this CIF has been generated from an entry in the Cambridge 
# Structural Database, then it will include bibliographic, chemical, 
# crystal, experimental, refinement or atomic coordinate data resulting 
# from the CCDC's data processing and validation procedures.
#
#######################################################################

data_KAWVIP
_symmetry_cell_setting           monoclinic
_symmetry_space_group_name_H-M   'P 21/c'
_symmetry_Int_Tables_number      14
_space_group_name_Hall           '-P 2ybc'
loop_
_symmetry_equiv_pos_site_id
_symmetry_equiv_pos_as_xyz
1 x,y,z
2 -x,1/2+y,1/2-z
3 -x,-y,-z
4 x,1/2-y,1/2+z
_cell_length_a                   13.9683(3)
_cell_length_b                   21.6538(4)
_cell_length_c                   21.3918(4)
_cell_angle_alpha                90
_cell_angle_beta                 94.7900(10)
_cell_angle_gamma                90
_cell_volume                     6447.71
loop_
_atom_site_label
_atom_site_type_symbol
_atom_site_fract_x
_atom_site_fract_y
_atom_site_fract_z
Cl1 Cl 0.38385(8) 0.60577(6) 0.14954(6)
O1 O 0.3318(3) 0.63204(18) 0.09565(18)
O2 O 0.3265(3) 0.6041(2) 0.2016(2)
O3 O 0.4103(3) 0.54318(17) 0.13590(18)
O4 O 0.4674(3) 0.64150(18) 0.1671(2)
Cl2 Cl 0.13781(9) 0.70180(6) 0.51719(5)
O5 O 0.2304(3) 0.7202(2) 0.54518(19)
O6 O 0.1370(4) 0.6361(2) 0.5067(2)
O7 O 0.0648(4) 0.7166(3) 0.5592(3)
O8 O 0.1148(4) 0.7348(2) 0.4616(2)
C64 C 0.1725(18) 0.1556(12) 0.3559(11)
H61 H 0.2407 0.1581 0.3486
O9 O 0.1644(12) 0.2594(5) 0.3106(6)
C65 C 0.0766(19) 0.222(2) 0.2930(15)
H62 H 0.0684 0.2135 0.2474
H63 H 0.0179 0.2417 0.3065
C66 C 0.1039(17) 0.1590(9) 0.3333(7)
H64 H 0.0460 0.1393 0.3482
H67 H 0.2110 0.1525 0.4090
C68 C 0.2247(15) 0.2280(11) 0.3561(10)
H68 H 0.2556 0.2580 0.3863
H69 H 0.2759 0.2061 0.3357
Ag1 Ag 0.37137(2) 0.382952(17) 0.254320(16)
Ag2 Ag -0.14120(3) 0.410470(18) 0.247690(17)
Se1 Se 0.32908(3) 0.47148(2) 0.34025(2)
Se2 Se 0.42714(3) 0.38391(2) 0.13655(2)
Se3 Se -0.15533(3) 0.41057(3) 0.12541(2)
Se4 Se 0.90204(3) 0.48751(2) 0.33998(2)
N1 N 0.2233(2) 0.39292(16) 0.17964(15)
N2 N 0.0493(3) 0.38394(17) 0.17062(15)
N3 N 0.5263(2) 0.44501(15) 0.29788(14)
N4 N 0.7004(2) 0.44048(15) 0.30833(14)
N5 N 0.4253(3) 0.30440(19) 0.3215(2)
N6 N -0.1493(5) 0.3121(3) 0.2787(3)
C1 C 0.0440(3) 0.43988(19) 0.13410(17)
C2 C 0.1244(3) 0.47611(18) 0.12624(17)
C3 C 0.1150(3) 0.53174(19) 0.09366(17)
H1 H 0.1704 0.5562 0.0890
C4 C 0.0261(3) 0.5520(2) 0.06791(18)
C5 C -0.0544(3) 0.5155(2) 0.07643(19)
H2 H -0.1159 0.5285 0.0590
C6 C -0.0461(3) 0.4615(2) 0.10940(18)
C7 C 0.0171(4) 0.6125(2) 0.0324(2)
H3 H 0.0151 0.6467 0.0622
H4 H -0.0421 0.6123 0.0044
H5 H 0.0725 0.6176 0.0076
C8 C 0.2221(3) 0.45714(18) 0.15604(19)
H6 H 0.2700 0.4613 0.1247
H7 H 0.2411 0.4854 0.1913
C9 C 0.1358(3) 0.3838(2) 0.21321(19)
H8 H 0.1407 0.3439 0.2360
H9 H 0.1316 0.4171 0.2446
C10 C 0.0497(3) 0.3271(2) 0.1315(2)
H10 H 0.0008 0.3312 0.0955
H11 H 0.0319 0.2913 0.1568
C11 C 0.2277(3) 0.3483(2) 0.1301(2)
C12 C 0.3160(4) 0.3373(2) 0.1054(2)
C13 C 0.3251(8) 0.2953(7) 0.0568(7)
H12 H 0.3851 0.2901 0.0395
C14 C 0.2459(9) 0.2612(8) 0.0340(9)
C15 C 0.1578(10) 0.2723(7) 0.0583(8)
H13 H 0.1030 0.2501 0.0414
C16 C 0.2582(9) 0.2102(11) -0.0144(12)
H14 H 0.3258 0.2078 -0.0232
H15 H 0.2186 0.2198 -0.0531
H16 H 0.2380 0.1706 0.0023
C17 C 0.1464(4) 0.3153(2) 0.1073(2)
C18 C -0.2554(3) 0.4683(3) 0.0973(2)
C19 C -0.2946(4) 0.4651(4) 0.0352(2)
H17 H -0.2729 0.4349 0.0075
C20 C -0.3659(4) 0.5068(5) 0.0144(3)
H18 H -0.3930 0.5052 -0.0278
C21 C -0.3974(4) 0.5506(5) 0.0547(3)
H19 H -0.4456 0.5793 0.0399
C22 C -0.3593(4) 0.5532(4) 0.1169(3)
H20 H -0.3819 0.5829 0.1448
C23 C -0.2878(3) 0.5116(3) 0.1375(2)
H21 H -0.2610 0.5132 0.1797
C24 C 0.5252(4) 0.3222(3) 0.1296(2)
C25 C 0.5829(4) 0.3275(3) 0.0800(3)
H22 H 0.5719 0.3596 0.0499
C26 C 0.6566(4) 0.2855(3) 0.0749(3)
H23 H 0.6963 0.2886 0.0411
C27 C 0.6722(5) 0.2396(4) 0.1184(3)
H24 H 0.7230 0.2110 0.1147
C28 C 0.6144(5) 0.2343(3) 0.1678(3)
H25 H 0.6253 0.2018 0.1974
C29 C 0.5407(4) 0.2763(3) 0.1744(3)
H26 H 0.5020 0.2737 0.2088
C30 C 0.4672(4) 0.2840(2) 0.3644(2)
C31 C 0.5207(4) 0.2582(2) 0.4197(2)
H27 H 0.5095 0.2833 0.4565
H28 H 0.5894 0.2580 0.4136
H29 H 0.4991 0.2158 0.4263
C32 C 0.5262(3) 0.43759(17) 0.36511(17)
C33 C 0.4399(3) 0.44474(19) 0.39333(19)
C34 C 0.4367(3) 0.43283(19) 0.45675(19)
H30 H 0.3781 0.4385 0.4757
C35 C 0.5177(3) 0.41272(18) 0.49297(18)
C36 C 0.6035(3) 0.40704(18) 0.46529(18)
H31 H 0.6596 0.3939 0.4900
C37 C 0.6092(3) 0.42022(17) 0.40179(17)
C38 C 0.5112(4) 0.3968(2) 0.5613(2)
H32 H 0.4606 0.4215 0.5781
H33 H 0.5728 0.4056 0.5849
H34 H 0.4961 0.3528 0.5651
C39 C 0.7046(3) 0.41478(19) 0.37293(17)
H35 H 0.7546 0.4369 0.3997
H36 H 0.7233 0.3707 0.3718
C40 C 0.6125(3) 0.41656(19) 0.27511(17)
H37 H 0.6097 0.3713 0.2810
H38 H 0.6137 0.4249 0.2297
C41 C 0.5243(3) 0.51013(19) 0.27709(18)
H39 H 0.4745 0.5327 0.2983
H40 H 0.5063 0.5117 0.2314
C42 C 0.7020(3) 0.50696(18) 0.30720(16)
C43 C 0.7895(3) 0.5383(2) 0.31932(19)
C44 C 0.7936(4) 0.6017(2) 0.3162(2)
H41 H 0.8531 0.6222 0.3258
C45 C 0.7116(4) 0.6361(2) 0.2994(3)
C46 C 0.6255(4) 0.6054(2) 0.2870(2)
H42 H 0.5690 0.6285 0.2753
C47 C 0.6195(3) 0.54160(19) 0.29112(17)
C48 C 0.7148(6) 0.7059(3) 0.2954(4)
H43 H 0.6780 0.7196 0.2569
H44 H 0.7816 0.7196 0.2949
H45 H 0.6868 0.7238 0.3318
C49 C 0.2276(3) 0.4506(3) 0.3914(2)
C50 C 0.1711(3) 0.3993(2) 0.3775(2)
H46 H 0.1866 0.3721 0.3450
C51 C 0.0917(3) 0.3873(3) 0.4107(2)
H47 H 0.0516 0.3528 0.4002
C52 C 0.0721(4) 0.4261(4) 0.4591(3)
H48 H 0.0193 0.4175 0.4831
C53 C 0.1286(4) 0.4771(4) 0.4729(3)
H49 H 0.1144 0.5036 0.5063
C54 C 0.2061(4) 0.4906(4) 0.4387(3)
H50 H 0.2437 0.5265 0.4476
C55 C 0.9999(15) 0.5463(14) 0.3168(12)
C56 C 1.0255(10) 0.5957(10) 0.3618(6)
H51 H 0.9937 0.5996 0.3992
C57 C 1.0977(9) 0.6370(10) 0.3486(6)
H52 H 1.1139 0.6708 0.3757
C58 C 1.1434(15) 0.6280(12) 0.2972(11)
H53 H 1.1917 0.6566 0.2877
C59 C 1.1223(14) 0.5761(7) 0.2552(8)
H54 H 1.1608 0.5686 0.2214
C60 C 1.0442(14) 0.5371(9) 0.2649(8)
H55 H 1.0241 0.5056 0.2358
C61 C -0.1602(7) 0.2700(4) 0.3028(4)
C62 C -0.1623(10) 0.2088(6) 0.3358(6)
H56 H -0.1178 0.1802 0.3177
H57 H -0.2275 0.1918 0.3306
H58 H -0.1431 0.2144 0.3805
Ag2_2 Ag 0.85880(3) 0.410470(18) 0.247690(17)
Se4_2 Se -0.09796(3) 0.48751(2) 0.33998(2)
N4_2 N -0.2996(2) 0.44048(15) 0.30833(14)
N7? N 0.0954(18) 0.2533(7) 0.3139(11)
C63? C 0.122(2) 0.2114(9) 0.3303(12)
H59? H 0.1441 0.1188 0.3351
H60? H 0.1660 0.1529 0.4011
H65? H 0.1381 0.1288 0.3085
C67? C 0.170(2) 0.1850(11) 0.3882(10)
H66? H 0.1328 0.2056 0.4197
C69? C 0.311(3) 0.2785(17) 0.0746(16)
C70? C 0.231(3) 0.2445(18) 0.0572(15)
C71? C 0.147(3) 0.260(2) 0.0793(16)
C72? C 0.243(2) 0.1855(14) 0.0202(16)
C73? C 1.003(4) 0.540(3) 0.329(2)
C74? C 1.0533(17) 0.5691(11) 0.3735(9)
C75? C 1.1307(18) 0.6049(11) 0.3628(8)
C76? C 1.166(2) 0.6073(13) 0.3001(13)
C77? C 1.107(3) 0.583(2) 0.252(2)
C78? C 1.035(4) 0.5513(19) 0.263(2)
H70? H 0.3704 0.2612 0.0650
H71? H 0.0923 0.2334 0.0755
H72? H 0.2601 0.1515 0.0492
H73? H 0.2934 0.1912 -0.0082
H74? H 0.1821 0.1757 -0.0042
H75? H 1.0353 0.5654 0.4153
H76? H 1.1619 0.6284 0.3960
H77? H 1.2266 0.6245 0.2933
H78? H 1.1196 0.5910 0.2094
H79? H 0.9979 0.5330 0.2287
O10? O 0.1126(17) 0.6734(11) 0.5695(10)
O11? O 0.1965(19) 0.6578(12) 0.4779(12)
O12? O 0.196(3) 0.761(2) 0.5259(19)
O13? O 0.057(3) 0.7211(16) 0.4748(16)
loop_
_geom_bond_atom_site_label_1
_geom_bond_atom_site_label_2
_geom_bond_site_symmetry_1
_geom_bond_site_symmetry_2
Ag1 Se1 1_555 1_555
Ag2 Se3 1_555 1_555
Se1 C33 1_555 1_555
Se2 Ag1 1_555 1_555
Se3 C6 1_555 1_555
Se4 C43 1_555 1_555
Cl1 O1 1_555 1_555
Cl2 O5 1_555 1_555
O2 Cl1 1_555 1_555
O3 Cl1 1_555 1_555
O4 Cl1 1_555 1_555
N1 Ag1 1_555 1_555
N2 C1 1_555 1_555
N3 Ag1 1_555 1_555
N4 C39 1_555 1_555
N5 Ag1 1_555 1_555
N6 Ag2 1_555 1_555
C1 C2 1_555 1_555
C2 C3 1_555 1_555
C3 H1 1_555 1_555
C4 C3 1_555 1_555
C5 C4 1_555 1_555
H2 C5 1_555 1_555
C6 C1 1_555 1_555
C7 C4 1_555 1_555
H3 C7 1_555 1_555
H4 C7 1_555 1_555
H5 C7 1_555 1_555
C8 N1 1_555 1_555
H6 C8 1_555 1_555
H7 C8 1_555 1_555
C9 N1 1_555 1_555
H8 C9 1_555 1_555
H9 C9 1_555 1_555
C10 N2 1_555 1_555
H10 C10 1_555 1_555
H11 C10 1_555 1_555
C11 N1 1_555 1_555
C12 Se2 1_555 1_555
C13 C12 1_555 1_555
H12 C13 1_555 1_555
C14 C13 1_555 1_555
C15 C14 1_555 1_555
H13 C15 1_555 1_555
C16 C14 1_555 1_555
H14 C16 1_555 1_555
H15 C16 1_555 1_555
H16 C16 1_555 1_555
C17 C10 1_555 1_555
C18 Se3 1_555 1_555
C19 C18 1_555 1_555
H17 C19 1_555 1_555
C20 C19 1_555 1_555
H18 C20 1_555 1_555
C21 C20 1_555 1_555
H19 C21 1_555 1_555
C22 C21 1_555 1_555
H20 C22 1_555 1_555
C23 C18 1_555 1_555
H21 C23 1_555 1_555
C24 Se2 1_555 1_555
C25 C24 1_555 1_555
H22 C25 1_555 1_555
C26 C25 1_555 1_555
H23 C26 1_555 1_555
C27 C26 1_555 1_555
H24 C27 1_555 1_555
C28 C27 1_555 1_555
H25 C28 1_555 1_555
C29 C24 1_555 1_555
H26 C29 1_555 1_555
C30 N5 1_555 1_555
C31 C30 1_555 1_555
H27 C31 1_555 1_555
H28 C31 1_555 1_555
H29 C31 1_555 1_555
C32 N3 1_555 1_555
C33 C32 1_555 1_555
C34 C33 1_555 1_555
H30 C34 1_555 1_555
C35 C34 1_555 1_555
C36 C35 1_555 1_555
H31 C36 1_555 1_555
C37 C32 1_555 1_555
C38 C35 1_555 1_555
H32 C38 1_555 1_555
H33 C38 1_555 1_555
H34 C38 1_555 1_555
C39 C37 1_555 1_555
H35 C39 1_555 1_555
H36 C39 1_555 1_555
C40 N3 1_555 1_555
H37 C40 1_555 1_555
H38 C40 1_555 1_555
C41 N3 1_555 1_555
H39 C41 1_555 1_555
H40 C41 1_555 1_555
C42 N4 1_555 1_555
C43 C42 1_555 1_555
C44 C43 1_555 1_555
H41 C44 1_555 1_555
C45 C44 1_555 1_555
C46 C45 1_555 1_555
H42 C46 1_555 1_555
C47 C41 1_555 1_555
C48 C45 1_555 1_555
H43 C48 1_555 1_555
H44 C48 1_555 1_555
H45 C48 1_555 1_555
C49 Se1 1_555 1_555
C50 C49 1_555 1_555
H46 C50 1_555 1_555
C51 C50 1_555 1_555
H47 C51 1_555 1_555
C52 C51 1_555 1_555
H48 C52 1_555 1_555
C53 C52 1_555 1_555
H49 C53 1_555 1_555
C54 C49 1_555 1_555
H50 C54 1_555 1_555
C55 Se4 1_555 1_555
C56 C55 1_555 1_555
H51 C56 1_555 1_555
C57 C56 1_555 1_555
H52 C57 1_555 1_555
C58 C57 1_555 1_555
H53 C58 1_555 1_555
C59 C58 1_555 1_555
H54 C59 1_555 1_555
C60 C55 1_555 1_555
H55 C60 1_555 1_555
C61 N6 1_555 1_555
C62 C61 1_555 1_555
H56 C62 1_555 1_555
H57 C62 1_555 1_555
H58 C62 1_555 1_555
O6 Cl2 1_555 1_555
O7 Cl2 1_555 1_555
O8 Cl2 1_555 1_555
C64 H61 1_555 1_555
O9 C65 1_555 1_555
C65 H62 1_555 1_555
H63 C65 1_555 1_555
C66 C64 1_555 1_555
H64 C66 1_555 1_555
H67 C64 1_555 1_555
C68 C64 1_555 1_555
H68 C68 1_555 1_555
H69 C68 1_555 1_555
Ag2_2 Se4 1_555 1_555
Se4_2 Ag2 1_555 1_555
N4_2 Ag2 1_555 1_555
N2 C9 1_555 1_555
N4 C40 1_555 1_555
N4 Ag2_2 1_555 1_555
C2 C8 1_555 1_555
C5 C6 1_555 1_555
C11 C12 1_555 1_555
C11 C17 1_555 1_555
C15 C17 1_555 1_555
C22 C23 1_555 1_555
C28 C29 1_555 1_555
C36 C37 1_555 1_555
C42 C47 1_555 1_555
C46 C47 1_555 1_555
C53 C54 1_555 1_555
C59 C60 1_555 1_555
O9 C68 1_555 1_555
C65 C66 1_555 1_555

#END
