
#######################################################################
#
#                 Cambridge Crystallographic Data Centre
#                                CCDC 
#
#######################################################################
#
# If this CIF has been generated from an entry in the Cambridge 
# Structural Database, then it will include bibliographic, chemical, 
# crystal, experimental, refinement or atomic coordinate data resulting 
# from the CCDC's data processing and validation procedures.
#
#######################################################################

data_KAXFOG
_symmetry_cell_setting           orthorhombic
_symmetry_space_group_name_H-M   'P b c a'
_symmetry_Int_Tables_number      61
_space_group_name_Hall           '-P 2ac 2ab'
loop_
_symmetry_equiv_pos_site_id
_symmetry_equiv_pos_as_xyz
1 x,y,z
2 1/2-x,-y,1/2+z
3 -x,1/2+y,1/2-z
4 1/2+x,1/2-y,-z
5 -x,-y,-z
6 1/2+x,y,1/2-z
7 x,1/2-y,1/2+z
8 1/2-x,1/2+y,z
_cell_length_a                   12.169(2)
_cell_length_b                   14.549(3)
_cell_length_c                   15.315(3)
_cell_angle_alpha                90
_cell_angle_beta                 90
_cell_angle_gamma                90
_cell_volume                     2711.47
loop_
_atom_site_label
_atom_site_type_symbol
_atom_site_fract_x
_atom_site_fract_y
_atom_site_fract_z
Sr1 Sr 0.53196(3) 0.35187(2) 0.49928(5)
O1 O 0.4686(3) 0.3709(3) 0.6577(2)
O2 O 0.5608(3) 0.1795(2) 0.4952(4)
H1 H 0.507(3) 0.142(3) 0.494(6)
H2 H 0.614(3) 0.158(4) 0.466(4)
O3 O 0.3404(2) 0.2740(2) 0.5013(5)
H3 H 0.287(3) 0.284(5) 0.467(3)
H4 H 0.323(5) 0.232(3) 0.537(3)
O4 O 0.7071(3) 0.4230(3) 0.8987(2)
O5 O 0.6228(2) 0.5146(2) 0.4984(3)
H5 H 0.672(3) 0.519(5) 0.459(3)
H6 H 0.647(4) 0.537(4) 0.546(2)
O6 O 0.4655(5) 0.3727(4) 0.3403(4)
O7 O 0.2087(3) 0.3365(3) 0.1029(2)
N1 N 0.6606(3) 0.3535(3) 0.6438(3)
N2 N 0.7732(3) 0.3788(3) 0.7659(3)
H9 H 0.8414(18) 0.370(5) 0.778(5)
N3 N 0.2766(3) 0.4070(3) 0.3536(3)
N4 N 0.1563(3) 0.3814(3) 0.2377(3)
H10 H 0.0865(14) 0.378(5) 0.229(5)
C1 C 0.7501(4) 0.3552(3) 0.6781(3)
H11 H 0.8098 0.3394 0.6433
C2 C 0.5702(4) 0.3729(4) 0.6944(3)
C3 C 0.5827(4) 0.3957(4) 0.7820(4)
H12 H 0.5205 0.4068 0.8156
C4 C 0.6862(4) 0.4025(3) 0.8206(4)
C5 C 0.1781(5) 0.4045(5) 0.3189(4)
H13 H 0.1191 0.4204 0.3544
C6 C 0.3621(4) 0.3778(4) 0.3016(3)
C7 C 0.3441(4) 0.3528(4) 0.2142(3)
H14 H 0.4012 0.3344 0.1778
C8 C 0.2432(7) 0.3569(6) 0.1870(5)
Sr1D Sr 0.46804(3) 0.64813(2) 0.50072(5)
Sr1A Sr 0.96804(3) 0.64813(2) 0.99928(5)
Sr1E Sr 0.03196(3) 0.35187(2) 0.00072(5)
O1D O 0.5314(3) 0.6291(3) 0.3423(2)
O2D O 0.4392(3) 0.8205(2) 0.5048(4)
H1D H 0.493(3) 0.858(3) 0.506(6)
H2D H 0.386(3) 0.842(4) 0.534(4)
O3D O 0.6596(2) 0.7260(2) 0.4987(5)
H3D H 0.713(3) 0.716(5) 0.533(3)
H4D H 0.677(5) 0.768(3) 0.463(3)
O4D O 0.2929(3) 0.5770(3) 0.1013(2)
O5D O 0.3772(2) 0.4854(2) 0.5016(3)
H5D H 0.328(3) 0.481(5) 0.541(3)
H6D H 0.353(4) 0.463(4) 0.454(2)
O6D O 0.5345(5) 0.6273(4) 0.6597(4)
O7D O 0.7913(3) 0.6635(3) 0.8971(2)
O7A O 0.2913(3) 0.6635(3) 0.6029(2)
O7E O 0.7087(3) 0.3365(3) 0.3971(2)
N1D N 0.3394(3) 0.6465(3) 0.3562(3)
N2D N 0.2268(3) 0.6212(3) 0.2341(3)
H9D H 0.1586(18) 0.630(5) 0.222(5)
N3D N 0.7234(3) 0.5930(3) 0.6464(3)
N4D N 0.8437(3) 0.6186(3) 0.7623(3)
H10D H 0.9135(14) 0.622(5) 0.771(5)
C1D C 0.2499(4) 0.6448(3) 0.3219(3)
H11D H 0.1902 0.6606 0.3567
C2D C 0.4298(4) 0.6271(4) 0.3056(3)
C3D C 0.4173(4) 0.6043(4) 0.2180(4)
H12D H 0.4795 0.5932 0.1844
C4D C 0.3138(4) 0.5975(3) 0.1794(4)
C5D C 0.8219(5) 0.5955(5) 0.6811(4)
H13D H 0.8809 0.5796 0.6456
C6D C 0.6379(4) 0.6222(4) 0.6984(3)
C7D C 0.6559(4) 0.6472(4) 0.7858(3)
H14D H 0.5988 0.6656 0.8222
C8D C 0.7568(7) 0.6431(6) 0.8130(5)
O8 O 0.3851(3) 0.0586(3) 0.5016(6)
H7 H 0.321(2) 0.076(5) 0.486(5)
H8 H 0.381(5) 0.014(4) 0.537(4)
loop_
_geom_bond_atom_site_label_1
_geom_bond_atom_site_label_2
_geom_bond_site_symmetry_1
_geom_bond_site_symmetry_2
Sr1 O1 1_555 1_555
O1 C2 1_555 1_555
O2 Sr1 1_555 1_555
H1 O2 1_555 1_555
H2 O2 1_555 1_555
O3 Sr1 1_555 1_555
H3 O3 1_555 1_555
H4 O3 1_555 1_555
O4 C4 1_555 1_555
O5 Sr1 1_555 1_555
H5 O5 1_555 1_555
H6 O5 1_555 1_555
O6 Sr1 1_555 1_555
O7 C8 1_555 1_555
O8 H7 1_555 1_555
H8 O8 1_555 1_555
N1 Sr1 1_555 1_555
N2 H9 1_555 1_555
N3 C5 1_555 1_555
N4 H10 1_555 1_555
C1 N1 1_555 1_555
H11 C1 1_555 1_555
C2 N1 1_555 1_555
C3 C2 1_555 1_555
H12 C3 1_555 1_555
C4 N2 1_555 1_555
C5 N4 1_555 1_555
H13 C5 1_555 1_555
C6 O6 1_555 1_555
C7 C6 1_555 1_555
H14 C7 1_555 1_555
C8 N4 1_555 1_555
Sr1D O5 1_555 1_555
Sr1A O7D 1_555 1_555
Sr1E O7 1_555 1_555
O1D Sr1D 1_555 1_555
O2D Sr1D 1_555 1_555
H1D O2D 1_555 1_555
H2D O2D 1_555 1_555
O3D Sr1D 1_555 1_555
H3D O3D 1_555 1_555
H4D O3D 1_555 1_555
O4D C4D 1_555 1_555
O5D Sr1 1_555 1_555
H5D O5D 1_555 1_555
H6D O5D 1_555 1_555
O6D Sr1D 1_555 1_555
O7D C8D 1_555 1_555
O7A Sr1D 1_555 1_555
O7E Sr1 1_555 1_555
N1D Sr1D 1_555 1_555
N2D H9D 1_555 1_555
N3D C5D 1_555 1_555
N4D H10D 1_555 1_555
C1D N1D 1_555 1_555
H11D C1D 1_555 1_555
C2D O1D 1_555 1_555
C3D C2D 1_555 1_555
H12D C3D 1_555 1_555
C4D N2D 1_555 1_555
C5D N4D 1_555 1_555
H13D C5D 1_555 1_555
C6D O6D 1_555 1_555
C7D C6D 1_555 1_555
H14D C7D 1_555 1_555
C8D N4D 1_555 1_555
N2 C1 1_555 1_555
N3 C6 1_555 1_555
C3 C4 1_555 1_555
C7 C8 1_555 1_555
Sr1D O5D 1_555 1_555
N1D C2D 1_555 1_555
N2D C1D 1_555 1_555
N3D C6D 1_555 1_555
C3D C4D 1_555 1_555
C7D C8D 1_555 1_555

#END
