
#######################################################################
#
#                 Cambridge Crystallographic Data Centre
#                                CCDC 
#
#######################################################################
#
# If this CIF has been generated from an entry in the Cambridge 
# Structural Database, then it will include bibliographic, chemical, 
# crystal, experimental, refinement or atomic coordinate data resulting 
# from the CCDC's data processing and validation procedures.
#
#######################################################################

data_KAXGIA
_symmetry_cell_setting           triclinic
_symmetry_space_group_name_H-M   'P -1'
_symmetry_Int_Tables_number      2
_space_group_name_Hall           '-P 1'
loop_
_symmetry_equiv_pos_site_id
_symmetry_equiv_pos_as_xyz
1 x,y,z
2 -x,-y,-z
_cell_length_a                   12.3147(12)
_cell_length_b                   13.5887(14)
_cell_length_c                   13.6431(14)
_cell_angle_alpha                95.234(5)
_cell_angle_beta                 94.864(5)
_cell_angle_gamma                99.746(5)
_cell_volume                     2229
loop_
_atom_site_label
_atom_site_type_symbol
_atom_site_fract_x
_atom_site_fract_y
_atom_site_fract_z
C1 C 0.9448(7) 0.1470(6) 0.3905(5)
C2 C 0.9449(9) 0.2126(8) 0.4853(6)
H1 H 0.8876 0.2541 0.4776
H2 H 1.0175 0.256 0.5015
H3 H 0.9297 0.1704 0.5388
C3 C 0.5808(7) -0.1059(6) 0.0612(7)
C4 C 0.4621(7) -0.1498(9) 0.0581(8)
H4 H 0.4534 -0.2051 0.0998
H5 H 0.4328 -0.1752 -0.0102
H6 H 0.4215 -0.0981 0.0828
C5 C 0.7978(6) 0.0951(5) 0.0495(5)
H7 H 0.7693 0.0273 0.0241
C6 C 0.8274(6) 0.1640(5) -0.0175(5)
H8 H 0.8195 0.1426 -0.0864
C7 C 0.8681(5) 0.2634(5) 0.0161(5)
C8 C 0.8810(6) 0.2873(5) 0.1169(5)
H9 H 0.9123 0.3538 0.1445
C9 C 0.8484(6) 0.2142(6) 0.1786(5)
H10 H 0.856 0.2339 0.2478
C10 C 0.8893(5) 0.3441(5) -0.0519(5)
H11 H 0.9268 0.4093 -0.0144
C11 C 0.7797(5) 0.3565(5) -0.1146(4)
H12 H 0.7146 0.3077 -0.0994
C12 C 0.8296(5) 0.3164(5) -0.2140(5)
H13 H 0.7955 0.2447 -0.2354
C13 C 0.9430(5) 0.3229(5) -0.1504(5)
H14 H 0.9924 0.3863 -0.1622
C14 C 1.0064(5) 0.2370(5) -0.1665(5)
C15 C 0.9907(5) 0.1767(5) -0.2543(5)
H15 H 0.9338 0.1834 -0.3035
C16 C 1.0574(6) 0.1060(5) -0.2719(5)
H16 H 1.0464 0.0665 -0.3343
C17 C 1.1503(6) 0.1474(5) -0.1175(5)
H17 H 1.205 0.1371 -0.0679
C18 C 1.0876(5) 0.2217(5) -0.0951(5)
H18 H 1.1002 0.2608 -0.0325
C19 C 0.8213(6) 0.3780(5) -0.2983(5)
C20 C 0.9038(6) 0.4529(5) -0.3187(5)
H19 H 0.979 0.4488 -0.3006
C21 C 0.8792(6) 0.5346(6) -0.3653(5)
H20 H 0.9375 0.5859 -0.3776
C22 C 0.7695(6) 0.5418(5) -0.3943(5)
C23 C 0.6900(6) 0.4572(5) -0.3929(4)
H21 H 0.6173 0.4547 -0.4239
C24 C 0.7152(6) 0.3752(5) -0.3464(5)
H22 H 0.66 0.3169 -0.3474
C25 C 0.7522(5) 0.4597(5) -0.1194(5)
C26 C 0.6422(6) 0.4674(5) -0.1469(5)
H23 H 0.5836 0.4173 -0.1328
C27 C 0.6190(6) 0.5490(5) -0.1952(5)
H24 H 0.5441 0.5527 -0.215
C28 C 0.7015(6) 0.6239(5) -0.2149(5)
C29 C 0.8074(6) 0.6252(5) -0.1684(5)
H25 H 0.8634 0.6825 -0.1688
C30 C 0.8318(6) 0.5436(5) -0.1216(5)
H26 H 0.9044 0.5458 -0.0907
C31 C 0.6909(5) 0.6862(5) -0.3003(5)
H27 H 0.7232 0.7584 -0.2793
C32 C 0.7405(5) 0.6469(5) -0.3980(5)
H28 H 0.8058 0.6961 -0.4122
C33 C 0.6316(5) 0.6614(5) -0.4607(4)
H29 H 0.5949 0.5975 -0.501
C34 C 0.5777(5) 0.6763(5) -0.3614(4)
H30 H 0.532 0.6106 -0.3511
C35 C 0.5100(5) 0.7575(5) -0.3409(5)
C36 C 0.4287(6) 0.7782(5) -0.4103(5)
H31 H 0.4193 0.7456 -0.4759
C37 C 0.3623(5) 0.8462(5) -0.3830(5)
H32 H 0.308 0.8591 -0.4316
C38 C 0.4492(5) 0.8754(5) -0.2267(5)
H33 H 0.4571 0.9089 -0.1616
C39 C 0.5195(6) 0.8090(5) -0.2490(5)
H34 H 0.575 0.7991 -0.1998
C40 C 0.6486(5) 0.7462(5) -0.5237(5)
C41 C 0.7119(6) 0.8384(6) -0.4892(5)
H35 H 0.7419 0.851 -0.4218
C42 C 0.7323(6) 0.9130(5) -0.5514(5)
H36 H 0.7761 0.9758 -0.5252
C43 C 0.6285(6) 0.8142(6) -0.6791(5)
H37 H 0.596 0.8049 -0.7458
C44 C 0.6056(6) 0.7364(6) -0.6209(5)
H38 H 0.5593 0.6753 -0.6487
N1 N 0.8074(4) 0.1190(5) 0.1474(4)
N2 N 1.1385(4) 0.0906(4) -0.2030(4)
N3 N 0.3695(4) 0.8949(4) -0.2931(4)
N4 N 0.6929(4) 0.9001(4) -0.6468(4)
O1 O 0.6287(4) -0.0685(3) 0.1441(4)
O2 O 0.6270(4) -0.1097(4) -0.0182(4)
O3 O 0.8579(4) 0.0872(3) 0.3615(3)
O4 O 1.0305(5) 0.1606(5) 0.3490(4)
Co1 Co 0.74857(7) 0.00961(7) 0.24710(7)
N2A N 0.8615(4) -0.0906(4) 0.2030(4)
N3A N 0.6305(4) 0.1051(4) 0.2931(4)
N4_2 N 0.6929(4) -0.0999(4) 0.3532(4)
Co1A Co 1.25143(7) -0.00961(7) -0.24710(7)
Co1A_2 Co 0.25143(7) 0.99039(7) -0.24710(7)
Co1_2 Co 0.74857(7) 1.00961(7) -0.75290(7)
C45 C 0.6564(10) 0.6121(11) 0.0894(9)
H39 H 0.6839 0.6846 0.102
H40 H 0.5753 0.5992 0.0849
H41 H 0.6805 0.5861 0.027
C46 C 0.7022(12) 0.5598(11) 0.1738(9)
C47 C 0.6691(13) 0.4562(11) 0.1673(10)
H42 H 0.6256 0.4212 0.1098
C48 C 0.6996(15) 0.4038(8) 0.2450(13)
H43 H 0.6769 0.333 0.2405
C49 C 0.7632(13) 0.4549(11) 0.3291(10)
H44 H 0.784 0.4191 0.3822
C50 C 0.7963(10) 0.5585(11) 0.3356(9)
H45 H 0.8398 0.5935 0.3931
C51 C 0.7658(11) 0.6109(8) 0.2579(11)
H46 H 0.7884 0.6817 0.2623
C59 C 0.6229(8) 0.0599(7) -0.3493(8)
O5 O 0.7367(7) 0.0784(7) -0.3399(7)
H55 H 0.5961 0.0758 -0.2852
H56 H 0.599 -0.0112 -0.3717
H57 H 0.5983 0.1013 -0.3973
H69 H 0.7921 0.0766 -0.2977
C60 C 0.1250(11) 0.0771(8) 0.1445(7)
O6 O 0.1594(6) 0.0673(5) 0.2474(5)
H61 H 0.0736 0.1268 0.141
H62 H 0.0823 0.0118 0.1122
H63 H 0.1876 0.0982 0.1095
H67 H 0.1102 0.0902 0.2846
C52? C 0.621(2) 0.391(3) 0.100(2)
H47? H 0.6073 0.4332 0.0469
H48? H 0.5496 0.3601 0.1204
H49? H 0.6598 0.3382 0.0749
C53? C 0.690(3) 0.455(3) 0.187(2)
C54? C 0.721(3) 0.412(2) 0.272(2)
H50? H 0.6983 0.3424 0.2752
C55? C 0.786(3) 0.472(3) 0.3508(19)
H51? H 0.8073 0.4425 0.4086
C56? C 0.820(3) 0.574(2) 0.346(3)
H52? H 0.8642 0.6144 0.3998
C57? C 0.789(4) 0.617(2) 0.261(4)
H53? H 0.8121 0.6863 0.2576
C58? C 0.724(4) 0.557(3) 0.182(3)
H54? H 0.7031 0.5863 0.1242
O7? O 0.718(3) 0.081(4) -0.278(2)
O8? O 0.233(2) 0.048(3) 0.175(3)
H58? H 0.6389 0.1031 -0.4015
H59? H 0.5648 0.0814 -0.3123
H60? H 0.6023 -0.0096 -0.376
H64? H 0.0655 0.0182 0.1453
H65? H 0.1235 0.0978 0.0777
H66? H 0.1129 0.1314 0.1915
H68? H 0.2985 0.0752 0.1643
loop_
_geom_bond_atom_site_label_1
_geom_bond_atom_site_label_2
_geom_bond_site_symmetry_1
_geom_bond_site_symmetry_2
C1 C2 1_555 1_555
C2 H1 1_555 1_555
H2 C2 1_555 1_555
H3 C2 1_555 1_555
C3 C4 1_555 1_555
C4 H4 1_555 1_555
H5 C4 1_555 1_555
H6 C4 1_555 1_555
C5 H7 1_555 1_555
C6 C5 1_555 1_555
H8 C6 1_555 1_555
C7 C6 1_555 1_555
C8 C7 1_555 1_555
H9 C8 1_555 1_555
C9 C8 1_555 1_555
H10 C9 1_555 1_555
C10 C7 1_555 1_555
H11 C10 1_555 1_555
C11 C10 1_555 1_555
H12 C11 1_555 1_555
C12 C11 1_555 1_555
H13 C12 1_555 1_555
C13 C10 1_555 1_555
H14 C13 1_555 1_555
C14 C13 1_555 1_555
C15 C14 1_555 1_555
H15 C15 1_555 1_555
C16 C15 1_555 1_555
H16 C16 1_555 1_555
C17 H17 1_555 1_555
C18 C14 1_555 1_555
H18 C18 1_555 1_555
C19 C12 1_555 1_555
C20 C19 1_555 1_555
H19 C20 1_555 1_555
C21 C20 1_555 1_555
H20 C21 1_555 1_555
C22 C21 1_555 1_555
C23 C22 1_555 1_555
H21 C23 1_555 1_555
C24 C19 1_555 1_555
H22 C24 1_555 1_555
C25 C11 1_555 1_555
C26 C25 1_555 1_555
H23 C26 1_555 1_555
C27 C26 1_555 1_555
H24 C27 1_555 1_555
C28 C27 1_555 1_555
C29 C28 1_555 1_555
H25 C29 1_555 1_555
C30 C25 1_555 1_555
H26 C30 1_555 1_555
C31 C28 1_555 1_555
H27 C31 1_555 1_555
C32 C22 1_555 1_555
H28 C32 1_555 1_555
C33 C32 1_555 1_555
H29 C33 1_555 1_555
C34 C31 1_555 1_555
H30 C34 1_555 1_555
C35 C34 1_555 1_555
C36 C35 1_555 1_555
H31 C36 1_555 1_555
C37 C36 1_555 1_555
H32 C37 1_555 1_555
C38 H33 1_555 1_555
C39 C35 1_555 1_555
H34 C39 1_555 1_555
C40 C33 1_555 1_555
C41 C40 1_555 1_555
H35 C41 1_555 1_555
C42 C41 1_555 1_555
H36 C42 1_555 1_555
C43 H37 1_555 1_555
C44 C40 1_555 1_555
H38 C44 1_555 1_555
C45 H39 1_555 1_555
H40 C45 1_555 1_555
H41 C45 1_555 1_555
C46 C45 1_555 1_555
C47 C46 1_555 1_555
H42 C47 1_555 1_555
C48 C47 1_555 1_555
H43 C48 1_555 1_555
C49 C48 1_555 1_555
H44 C49 1_555 1_555
C50 C49 1_555 1_555
H45 C50 1_555 1_555
C51 C46 1_555 1_555
H46 C51 1_555 1_555
N1 C5 1_555 1_555
N2 C16 1_555 1_555
N3 C37 1_555 1_555
N4 C42 1_555 1_555
O1 C3 1_555 1_555
O2 C3 1_555 1_555
O3 C1 1_555 1_555
O4 C1 1_555 1_555
Co1 N1 1_555 1_555
C59 O5 1_555 1_555
C60 O6 1_555 1_555
O5 H69 1_555 1_555
O6 H67 1_555 1_555
H55 C59 1_555 1_555
H56 C59 1_555 1_555
H57 C59 1_555 1_555
H61 C60 1_555 1_555
H62 C60 1_555 1_555
H63 C60 1_555 1_555
N2A Co1 1_555 1_555
N3A Co1 1_555 1_555
N4_2 Co1 1_555 1_555
Co1A N2 1_555 1_555
Co1A_2 N3 1_555 1_555
Co1_2 N4 1_555 1_555
C9 N1 1_555 1_555
C12 C13 1_555 1_555
C17 C18 1_555 1_555
C17 N2 1_555 1_555
C23 C24 1_555 1_555
C29 C30 1_555 1_555
C31 C32 1_555 1_555
C33 C34 1_555 1_555
C38 C39 1_555 1_555
C38 N3 1_555 1_555
C43 C44 1_555 1_555
C43 N4 1_555 1_555
C50 C51 1_555 1_555
O1 Co1 1_555 1_555
O3 Co1 1_555 1_555

#END
