
#######################################################################
#
#                 Cambridge Crystallographic Data Centre
#                                CCDC 
#
#######################################################################
#
# If this CIF has been generated from an entry in the Cambridge 
# Structural Database, then it will include bibliographic, chemical, 
# crystal, experimental, refinement or atomic coordinate data resulting 
# from the CCDC's data processing and validation procedures.
#
#######################################################################

data_KAXTAG
_symmetry_cell_setting           monoclinic
_symmetry_space_group_name_H-M   'P 21/c'
_symmetry_Int_Tables_number      14
_space_group_name_Hall           '-P 2ybc'
loop_
_symmetry_equiv_pos_site_id
_symmetry_equiv_pos_as_xyz
1 x,y,z
2 -x,1/2+y,1/2-z
3 -x,-y,-z
4 x,1/2-y,1/2+z
_cell_length_a                   8.5502(2)
_cell_length_b                   20.0981(4)
_cell_length_c                   12.8744(3)
_cell_angle_alpha                90
_cell_angle_beta                 99.4030(10)
_cell_angle_gamma                90
_cell_volume                     2182.65
loop_
_atom_site_label
_atom_site_type_symbol
_atom_site_fract_x
_atom_site_fract_y
_atom_site_fract_z
Zn1 Zn 0.14958(2) 0.577761(10) 0.521418(16)
C1 C 0.3831(2) 0.54232(9) 0.67739(14)
C2 C 0.4988(2) 0.49888(10) 0.74439(16)
H1 H 0.5201 0.4573 0.7181
C3 C 0.5726(2) 0.51535(10) 0.83801(16)
H2 H 0.5500 0.5573 0.8621
C4 C 0.6873(2) 0.47520(10) 0.90979(15)
C5 C 0.7400(3) 0.41301(11) 0.88189(18)
H3 H 0.7011 0.3954 0.8159
C6 C 0.7461(2) 0.49978(10) 1.00914(15)
H4 H 0.7112 0.5410 1.0287
C7 C 0.8485(3) 0.37754(12) 0.95062(19)
H5 H 0.8833 0.3363 0.9309
C8 C 0.9067(3) 0.40318(12) 1.04975(18)
H6 H 0.9803 0.3789 1.0958
C9 C 0.8560(2) 0.46462(10) 1.08071(15)
C10 C 0.9204(2) 0.49050(10) 1.18573(15)
H7 H 0.9929 0.4634 1.2278
C11 C 0.8873(2) 0.54743(11) 1.22702(15)
H8 H 0.8132 0.5747 1.1866
C12 C 0.9585(2) 0.57177(9) 1.33281(15)
C13 C 0.2489(2) 0.70839(10) 0.42934(16)
H9 H 0.1508 0.7236 0.4415
C14 C 0.4380(2) 0.62682(9) 0.44476(14)
H10 H 0.4732 0.5849 0.4687
C15 C 0.3402(2) 0.74999(10) 0.37945(17)
H11 H 0.3043 0.7926 0.3598
C16 C 0.5354(2) 0.66514(9) 0.39404(15)
H12 H 0.6335 0.6489 0.3837
C17 C 0.4865(2) 0.72842(9) 0.35821(15)
C18 C 0.5786(2) 0.77085(10) 0.29789(16)
H13 H 0.5362 0.8120 0.2754
O1 O 0.36197(18) 0.59997(7) 0.70297(12)
O2 O 0.31000(14) 0.51533(6) 0.59270(10)
O3 O 1.04262(16) 0.53121(6) 1.39565(10)
O4 O 0.93630(18) 0.63013(7) 1.35612(12)
N1 N 0.29453(17) 0.64701(7) 0.46128(12)
C19 C 0.7174(2) 0.75450(10) 0.27339(16)
H14 H 0.7594 0.7137 0.2978
C20 C 0.8116(2) 0.79447(9) 0.21142(15)
C21 C 0.9670(2) 0.77598(9) 0.20748(16)
H15 H 1.0083 0.7374 0.2412
C22 C 0.7557(2) 0.85131(9) 0.15585(16)
H16 H 0.6524 0.8658 0.1560
C23 C 1.0596(2) 0.81448(9) 0.15392(15)
H17 H 1.1645 0.8020 0.1546
C24 C 0.8539(2) 0.88606(9) 0.10065(15)
H18 H 0.8133 0.9229 0.0616
N2 N 1.00569(16) 0.86908(7) 0.10078(11)
Zn1_2 Zn 1.14958(2) 0.577761(10) 1.521418(16)
Zn1C Zn 1.14958(2) 0.922239(10) 0.021418(16)
O3_2 O 0.04262(16) 0.53121(6) 0.39565(10)
N2C N 0.00569(16) 0.63092(7) 0.60078(11)
loop_
_geom_bond_atom_site_label_1
_geom_bond_atom_site_label_2
_geom_bond_site_symmetry_1
_geom_bond_site_symmetry_2
Zn1 O2 1_555 1_555
C1 C2 1_555 1_555
C2 H1 1_555 1_555
C3 C2 1_555 1_555
H2 C3 1_555 1_555
C4 C3 1_555 1_555
C5 C4 1_555 1_555
H3 C5 1_555 1_555
C6 C4 1_555 1_555
H4 C6 1_555 1_555
C7 C5 1_555 1_555
H5 C7 1_555 1_555
C8 C7 1_555 1_555
H6 C8 1_555 1_555
C9 C6 1_555 1_555
C10 C9 1_555 1_555
H7 C10 1_555 1_555
C11 C10 1_555 1_555
H8 C11 1_555 1_555
C12 C11 1_555 1_555
C13 H9 1_555 1_555
C14 H10 1_555 1_555
C15 C13 1_555 1_555
H11 C15 1_555 1_555
C16 C14 1_555 1_555
H12 C16 1_555 1_555
C17 C15 1_555 1_555
C18 C17 1_555 1_555
H13 C18 1_555 1_555
O1 C1 1_555 1_555
O2 C1 1_555 1_555
O3 C12 1_555 1_555
O4 C12 1_555 1_555
N1 Zn1 1_555 1_555
C19 C18 1_555 1_555
H14 C19 1_555 1_555
C20 C19 1_555 1_555
C21 C20 1_555 1_555
H15 C21 1_555 1_555
C22 C20 1_555 1_555
H16 C22 1_555 1_555
C23 C21 1_555 1_555
H17 C23 1_555 1_555
C24 C22 1_555 1_555
H18 C24 1_555 1_555
N2 C23 1_555 1_555
Zn1_2 O3 1_555 1_555
Zn1C N2 1_555 1_555
O3_2 Zn1 1_555 1_555
N2C Zn1 1_555 1_555
C8 C9 1_555 1_555
C13 N1 1_555 1_555
C14 N1 1_555 1_555
C16 C17 1_555 1_555
C24 N2 1_555 1_555

#END
