
#######################################################################
#
#                 Cambridge Crystallographic Data Centre
#                                CCDC 
#
#######################################################################
#
# If this CIF has been generated from an entry in the Cambridge 
# Structural Database, then it will include bibliographic, chemical, 
# crystal, experimental, refinement or atomic coordinate data resulting 
# from the CCDC's data processing and validation procedures.
#
#######################################################################

data_KAXTUA
_symmetry_cell_setting           triclinic
_symmetry_space_group_name_H-M   'P -1'
_symmetry_Int_Tables_number      2
_space_group_name_Hall           '-P 1'
loop_
_symmetry_equiv_pos_site_id
_symmetry_equiv_pos_as_xyz
1 x,y,z
2 -x,-y,-z
_cell_length_a                   13.0784(3)
_cell_length_b                   15.6015(6)
_cell_length_c                   18.7501(7)
_cell_angle_alpha                69.258(3)
_cell_angle_beta                 85.174(2)
_cell_angle_gamma                73.439(2)
_cell_volume                     3428.82
loop_
_atom_site_label
_atom_site_type_symbol
_atom_site_fract_x
_atom_site_fract_y
_atom_site_fract_z
Ag1 Ag -0.15756(4) 0.78577(4) 1.29085(3)
Ag2 Ag 0.59661(4) 0.76952(4) 0.55812(3)
Ag3 Ag 0.70496(4) -0.22393(3) 1.14057(3)
Mo5 Mo 0.55575(4) 0.52371(3) 0.57207(3)
Mo6 Mo 0.42322(4) 0.70431(3) 0.43577(3)
Mo7 Mo 0.40951(4) 0.37136(4) 0.68306(3)
Mo8 Mo 0.72179(4) 0.44627(4) 0.45690(3)
C1 C 0.2752(4) 0.4672(4) 1.0859(3)
C2 C 0.3055(5) 0.4256(5) 1.1615(4)
H1 H 0.3666 0.3747 1.1759
C3 C 0.2474(5) 0.4571(5) 1.2168(4)
H2 H 0.2675 0.4264 1.2680
C4 C 0.1582(5) 0.5359(4) 1.1945(4)
C5 C 0.1297(5) 0.5779(4) 1.1196(4)
H3 H 0.0707 0.6309 1.1047
C6 C 0.1853(5) 0.5444(4) 1.0652(3)
H4 H 0.1628 0.5735 1.0144
C7 C 0.0705(6) 0.5166(5) 1.3214(4)
H5 H 0.1008 0.4519 1.3466
C8 C -0.0051(6) 0.5760(5) 1.3488(4)
H6 H -0.0350 0.5590 1.3968
C9 C 0.0306(5) 0.6584(4) 1.2364(4)
H7 H 0.0305 0.7089 1.1913
C10 C 0.3465(5) 0.4988(4) 0.9555(4)
C11 C 0.3553(5) 0.5876(4) 0.9499(4)
H8 H 0.3542 0.6031 0.9935
C12 C 0.3657(5) 0.6516(4) 0.8801(4)
H9 H 0.3691 0.7119 0.8760
C13 C 0.3712(5) 0.6279(4) 0.8159(4)
C14 C 0.3528(4) 0.4751(4) 0.8902(4)
H10 H 0.3488 0.4151 0.8936
C15 C 0.3648(5) 0.5400(4) 0.8212(4)
H11 H 0.3687 0.5244 0.7773
C16 C 0.3225(6) 0.7814(5) 0.7053(4)
H12 H 0.2578 0.8111 0.7221
C17 C 0.3702(6) 0.8172(5) 0.6404(4)
H13 H 0.3422 0.8767 0.6038
C18 C 0.4720(5) 0.6816(5) 0.6973(4)
H14 H 0.5291 0.6270 0.7100
C19 C 0.3641(5) 0.3320(4) 1.0440(3)
C20 C 0.4595(4) 0.2899(4) 1.0163(4)
H15 H 0.5041 0.3267 0.9891
C21 C 0.4878(4) 0.1939(4) 1.0293(3)
H16 H 0.5508 0.1666 1.0091
C22 C 0.4256(4) 0.1377(4) 1.0711(3)
C23 C 0.3297(4) 0.1785(4) 1.0986(3)
H17 H 0.2855 0.1415 1.1264
C24 C 0.3012(5) 0.2765(4) 1.0837(4)
H18 H 0.2367 0.3047 1.1017
C25 C 0.3968(5) -0.0237(5) 1.1032(4)
H19 H 0.3227 -0.0074 1.1002
C26 C 0.5621(4) -0.0170(4) 1.0988(3)
H20 H 0.6211 0.0070 1.0916
C27 C 0.4638(5) -0.1117(4) 1.1227(4)
H21 H 0.4430 -0.1676 1.1359
C28 C -0.2896(5) 0.9994(5) 1.2373(3)
H22 H -0.2317 1.0201 1.2128
C29 C -0.3892(5) 1.0548(5) 1.2355(4)
H23 H -0.4130 1.1201 1.2095
C30 C -0.3832(5) 0.9091(5) 1.3055(4)
H24 H -0.4039 0.8560 1.3372
C31 C -0.5619(4) 1.0246(4) 1.2941(3)
C32 C -0.6273(5) 0.9715(4) 1.2908(3)
H25 H -0.5998 0.9161 1.2793
C33 C -0.7332(4) 1.0010(4) 1.3044(3)
H26 H -0.7779 0.9658 1.3008
C34 C -0.7759(4) 1.0811(4) 1.3233(3)
C35 C -0.7090(5) 1.1331(4) 1.3264(4)
H27 H -0.7369 1.1874 1.3394
C36 C -0.6011(4) 1.1078(4) 1.3108(4)
H28 H -0.5570 1.1449 1.3116
C37 C -0.9407(4) 1.2117(4) 1.2985(4)
C38 C -0.9049(5) 1.2586(4) 1.2303(3)
H29 H -0.8461 1.2267 1.2092
C39 C -0.9546(5) 1.3537(4) 1.1913(4)
H30 H -0.9265 1.3868 1.1461
C40 C -1.0453(4) 1.3983(4) 1.2199(3)
C41 C -1.0831(5) 1.3512(4) 1.2876(4)
H31 H -1.1454 1.3817 1.3065
C42 C -1.0299(5) 1.2587(4) 1.3285(3)
H32 H -1.0540 1.2278 1.3762
C43 C -1.1519(4) 1.5665(4) 1.1997(4)
H33 H -1.1675 1.5577 1.2507
C44 C -1.0946(5) 1.5357(4) 1.0966(4)
H34 H -1.0644 1.5044 1.0627
C45 C -1.1445(5) 1.6291(5) 1.0794(4)
H35 H -1.1533 1.6739 1.0304
C46 C -0.9451(4) 1.0447(4) 1.3694(3)
C47 C -1.0440(5) 1.0589(4) 1.3415(4)
H36 H -1.0736 1.1144 1.3012
C48 C -1.1014(5) 0.9919(4) 1.3723(4)
H37 H -1.1691 1.0029 1.3533
C49 C -1.0570(5) 0.9095(4) 1.4312(3)
C50 C -0.9568(5) 0.8938(4) 1.4583(3)
H38 H -0.9257 0.8368 1.4968
C51 C -0.9019(4) 0.9609(4) 1.4294(3)
H39 H -0.8353 0.9505 1.4499
C52 C -1.0874(6) 0.7460(5) 1.4703(4)
H40 H -1.0217 0.7112 1.4588
C53 C -1.1706(6) 0.7140(5) 1.4972(4)
H41 H -1.1726 0.6516 1.5075
C54 C -1.2167(6) 0.8582(5) 1.4860(4)
H42 H -1.2565 0.9179 1.4864
O14 O 0.5048(3) 0.7660(3) 0.4475(2)
O15 O 0.3289(3) 0.3082(3) 0.6738(3)
O16 O 0.4204(3) 0.3470(3) 0.7780(2)
O17 O 0.7959(3) 0.5134(3) 0.4700(3)
O18 O 0.8102(3) 0.3421(3) 0.4610(2)
O19 O 0.6593(3) 0.4126(3) 0.5608(2)
O20 O 0.6375(3) 0.5866(3) 0.5824(2)
O21 O 0.5221(3) 0.4678(3) 0.6661(2)
O22 O 0.4446(3) 0.4379(2) 0.5495(2)
O23 O 0.3112(3) 0.4958(3) 0.6491(2)
O24 O 0.4547(3) 0.7082(2) 0.3344(2)
O25 O 0.4213(3) 0.6217(3) 0.5429(2)
O26 O 0.2997(3) 0.7811(3) 0.4239(2)
N1 N 0.5670(4) -0.1075(3) 1.1202(3)
N2 N 0.4594(4) 0.0369(3) 1.0885(3)
N3 N 0.3335(4) 0.4327(3) 1.0296(3)
N4 N -0.0305(4) 0.6655(4) 1.2942(3)
N5 N 0.0939(4) 0.5689(3) 1.2502(3)
N6 N 0.3863(4) 0.6940(3) 0.7418(3)
N7 N 0.4659(4) 0.7548(4) 0.6344(3)
N8 N -0.8867(3) 1.1127(3) 1.3377(3)
N9 N -1.1161(4) 0.8407(4) 1.4623(3)
N10 N -0.4486(4) 0.9979(3) 1.2786(3)
N11 N -0.2862(4) 0.9080(3) 1.2807(3)
N12 N -1.0975(4) 1.4967(3) 1.1738(3)
N13 N -1.1802(4) 1.6491(3) 1.1434(3)
N14 N -1.2538(4) 0.7841(4) 1.5083(3)
Ag1_2 Ag 1.84244(4) 0.78577(4) 0.29085(3)
Ag2_2 Ag -1.40339(4) 0.76952(4) 1.55812(3)
Ag2_3 Ag 2.59661(4) 0.76952(4) -0.44188(3)
Ag2A Ag 0.40339(4) 0.23048(4) 0.44188(3)
Ag3_2 Ag -1.29504(4) 1.77607(3) 1.14057(3)
Ag3_3 Ag 0.70496(4) 1.77607(3) 0.14057(3)
Ag3_4 Ag 2.70496(4) -0.22393(3) 0.14057(3)
Mo5A Mo 0.44425(4) 0.47629(3) 0.42793(3)
Mo6A Mo 0.57678(4) 0.29569(3) 0.56423(3)
Mo7A Mo 0.59049(4) 0.62864(4) 0.31694(3)
Mo8A Mo 0.27821(4) 0.55373(4) 0.54310(3)
C1_2 C 2.2752(4) 0.4672(4) 0.0859(3)
C2_2 C 2.3055(5) 0.4256(5) 0.1615(4)
H1_2 H 2.3666 0.3747 0.1759
C3_2 C 2.2474(5) 0.4571(5) 0.2168(4)
H2_2 H 2.2675 0.4264 0.2680
C4_2 C 2.1582(5) 0.5359(4) 0.1945(4)
C5_2 C 2.1297(5) 0.5779(4) 0.1196(4)
H3_2 H 2.0707 0.6309 0.1047
C6_2 C 2.1853(5) 0.5444(4) 0.0652(3)
H4_2 H 2.1628 0.5735 0.0144
C7_2 C 2.0705(6) 0.5166(5) 0.3214(4)
H5_2 H 2.1008 0.4519 0.3466
C8_2 C 1.9949(6) 0.5760(5) 0.3488(4)
H6_2 H 1.9650 0.5590 0.3968
C9_2 C 2.0306(5) 0.6584(4) 0.2364(4)
H7_2 H 2.0305 0.7089 0.1913
C10_2 C 2.3465(5) 0.4988(4) -0.0445(4)
C11_2 C 2.3553(5) 0.5876(4) -0.0501(4)
H8_2 H 2.3542 0.6031 -0.0065
C12_2 C 2.3657(5) 0.6516(4) -0.1199(4)
H9_2 H 2.3691 0.7119 -0.1240
C13_2 C 2.3712(5) 0.6279(4) -0.1841(4)
C14_2 C 2.3528(4) 0.4751(4) -0.1098(4)
H10_2 H 2.3488 0.4151 -0.1064
C15_2 C 2.3648(5) 0.5400(4) -0.1788(4)
H11_2 H 2.3687 0.5244 -0.2227
C16_2 C 2.3225(6) 0.7814(5) -0.2947(4)
H12_2 H 2.2578 0.8111 -0.2779
C17_2 C 2.3702(6) 0.8172(5) -0.3596(4)
H13_2 H 2.3422 0.8767 -0.3962
C18_2 C 2.4720(5) 0.6816(5) -0.3027(4)
H14_2 H 2.5291 0.6270 -0.2900
C19_2 C 2.3641(5) 0.3320(4) 0.0440(3)
C20_2 C 2.4595(4) 0.2899(4) 0.0163(4)
H15_2 H 2.5041 0.3267 -0.0109
C21_2 C 2.4878(4) 0.1939(4) 0.0293(3)
H16_2 H 2.5508 0.1666 0.0091
C22_2 C 2.4256(4) 0.1377(4) 0.0711(3)
C23_2 C 2.3297(4) 0.1785(4) 0.0986(3)
H17_2 H 2.2855 0.1415 0.1264
C24_2 C 2.3012(5) 0.2765(4) 0.0837(4)
H18_2 H 2.2367 0.3047 0.1017
C25_2 C 2.3968(5) -0.0237(5) 0.1032(4)
H19_2 H 2.3227 -0.0074 0.1002
C26_2 C 2.5621(4) -0.0170(4) 0.0988(3)
H20_2 H 2.6211 0.0070 0.0916
C27_2 C 2.4638(5) -0.1117(4) 0.1227(4)
H21_2 H 2.4430 -0.1676 0.1359
C28_2 C 1.7104(5) 0.9994(5) 0.2373(3)
H22_2 H 1.7683 1.0201 0.2128
C29_2 C 1.6108(5) 1.0548(5) 0.2355(4)
H23_2 H 1.5870 1.1201 0.2095
C30_2 C 1.6168(5) 0.9091(5) 0.3055(4)
H24_2 H 1.5961 0.8560 0.3372
C31_2 C 1.4381(4) 1.0246(4) 0.2941(3)
C32_2 C 1.3727(5) 0.9715(4) 0.2908(3)
H25_2 H 1.4002 0.9161 0.2793
C33_2 C 1.2668(4) 1.0010(4) 0.3044(3)
H26_2 H 1.2221 0.9658 0.3008
C34_2 C 1.2241(4) 1.0811(4) 0.3233(3)
C35_2 C 1.2910(5) 1.1331(4) 0.3264(4)
H27_2 H 1.2631 1.1874 0.3394
C36_2 C 1.3989(4) 1.1078(4) 0.3108(4)
H28_2 H 1.4430 1.1449 0.3116
C37_2 C 1.0593(4) 1.2117(4) 0.2985(4)
C38_2 C 1.0951(5) 1.2586(4) 0.2303(3)
H29_2 H 1.1539 1.2267 0.2092
C39_2 C 1.0454(5) 1.3537(4) 0.1913(4)
H30_2 H 1.0735 1.3868 0.1461
C40_2 C 0.9547(4) 1.3983(4) 0.2199(3)
C41_2 C 0.9169(5) 1.3512(4) 0.2876(4)
H31_2 H 0.8546 1.3817 0.3065
C42_2 C 0.9701(5) 1.2587(4) 0.3285(3)
H32_2 H 0.9460 1.2278 0.3762
C43_2 C 0.8481(4) 1.5665(4) 0.1997(4)
H33_2 H 0.8325 1.5577 0.2507
C44_2 C 0.9054(5) 1.5357(4) 0.0966(4)
H34_2 H 0.9356 1.5044 0.0627
C45_2 C 0.8555(5) 1.6291(5) 0.0794(4)
H35_2 H 0.8467 1.6739 0.0304
C46_2 C 1.0549(4) 1.0447(4) 0.3694(3)
C47_2 C 0.9560(5) 1.0589(4) 0.3415(4)
H36_2 H 0.9264 1.1144 0.3012
C48_2 C 0.8986(5) 0.9919(4) 0.3723(4)
H37_2 H 0.8309 1.0029 0.3533
C49_2 C 0.9430(5) 0.9095(4) 0.4312(3)
C50_2 C 1.0432(5) 0.8938(4) 0.4583(3)
H38_2 H 1.0743 0.8368 0.4968
C51_2 C 1.0981(4) 0.9609(4) 0.4294(3)
H39_2 H 1.1647 0.9505 0.4499
C52_2 C 0.9126(6) 0.7460(5) 0.4703(4)
H40_2 H 0.9783 0.7112 0.4588
C53_2 C 0.8294(6) 0.7140(5) 0.4972(4)
H41_2 H 0.8274 0.6516 0.5075
C54_2 C 0.7833(6) 0.8582(5) 0.4860(4)
H42_2 H 0.7435 0.9179 0.4864
O14A O 0.4952(3) 0.2340(3) 0.5525(2)
O14_2 O 2.5048(3) 0.7660(3) -0.5525(2)
O15A O 0.6711(3) 0.6918(3) 0.3262(3)
O16A O 0.5796(3) 0.6530(3) 0.2220(2)
O17A O 0.2041(3) 0.4866(3) 0.5300(3)
O18A O 0.1898(3) 0.6579(3) 0.5390(2)
O19A O 0.3407(3) 0.5874(3) 0.4392(2)
O20A O 0.3625(3) 0.4134(3) 0.4176(2)
O20_2 O 2.6375(3) 0.5866(3) -0.4176(2)
O21A O 0.4779(3) 0.5322(3) 0.3339(2)
O22A O 0.5554(3) 0.5621(2) 0.4505(2)
O23A O 0.6888(3) 0.5042(3) 0.3509(2)
O24A O 0.5453(3) 0.2918(2) 0.6656(2)
O25A O 0.5787(3) 0.3783(3) 0.4571(2)
O26A O 0.7003(3) 0.2189(3) 0.5761(2)
N1_2 N 2.5670(4) -0.1075(3) 0.1202(3)
N1_3 N 0.5670(4) 1.8925(3) 0.1202(3)
N2_2 N 2.4594(4) 0.0369(3) 0.0885(3)
N3_2 N 2.3335(4) 0.4327(3) 0.0296(3)
N4_2 N 1.9695(4) 0.6655(4) 0.2942(3)
N5_2 N 2.0939(4) 0.5689(3) 0.2502(3)
N6_2 N 2.3863(4) 0.6940(3) -0.2582(3)
N7_2 N 2.4659(4) 0.7548(4) -0.3656(3)
N8_2 N 1.1133(3) 1.1127(3) 0.3377(3)
N9_2 N 0.8839(4) 0.8407(4) 0.4623(3)
N10_2 N 1.5514(4) 0.9979(3) 0.2786(3)
N11_2 N 1.7138(4) 0.9080(3) 0.2807(3)
N12_2 N 0.9025(4) 1.4967(3) 0.1738(3)
N13_2 N 0.8198(4) -0.3509(3) 1.1434(3)
N13_3 N 0.8198(4) 1.6491(3) 0.1434(3)
N14_2 N 0.7462(4) 0.7841(4) 0.5083(3)
N14_3 N 2.7462(4) 0.7841(4) -0.4917(3)
Mo1 Mo -0.07900(4) 1.04201(4) 0.85108(3)
Mo2 Mo 0.07861(4) 1.08104(4) 0.95120(3)
Mo3 Mo -0.19623(4) 1.14332(4) 0.98503(3)
Mo4 Mo 0.03829(5) 0.81293(4) 0.91481(3)
O1 O 0.0702(3) 1.1734(3) 0.9848(2)
O2 O 0.0038(4) 0.7126(3) 0.9245(3)
O3 O -0.0595(3) 1.1352(3) 0.8974(2)
O4 O -0.2843(3) 1.2156(3) 0.9120(2)
O5 O -0.2737(3) 1.1182(3) 1.0634(2)
O6 O 0.1632(3) 1.0994(3) 0.8768(2)
O7 O -0.2006(3) 1.1050(3) 0.8088(2)
O8 O 0.1245(4) 0.8268(3) 0.8422(2)
O9 O -0.1705(3) 1.0196(3) 0.9684(2)
O10 O 0.0425(3) 0.9568(3) 0.9466(2)
O11 O -0.1381(3) 1.2305(3) 1.0023(2)
O12 O -0.0821(3) 0.9166(3) 0.8642(2)
O13 O 0.0084(3) 1.0661(3) 0.7803(2)
Mo1A Mo 0.07900(4) 0.95799(4) 1.14892(3)
Mo2A Mo -0.07861(4) 0.91896(4) 1.04880(3)
Mo3A Mo 0.19623(4) 0.85668(4) 1.01497(3)
Mo4A Mo -0.03829(5) 1.18707(4) 1.08519(3)
O1A O -0.0702(3) 0.8266(3) 1.0152(2)
O2A O -0.0038(4) 1.2874(3) 1.0755(3)
O3A O 0.0595(3) 0.8648(3) 1.1026(2)
O4A O 0.2843(3) 0.7844(3) 1.0880(2)
O5A O 0.2737(3) 0.8818(3) 0.9366(2)
O6A O -0.1632(3) 0.9006(3) 1.1232(2)
O7A O 0.2006(3) 0.8950(3) 1.1912(2)
O8A O -0.1245(4) 1.1732(3) 1.1578(2)
O9A O 0.1705(3) 0.9804(3) 1.0316(2)
O10A O -0.0425(3) 1.0432(3) 1.0534(2)
O11A O 0.1381(3) 0.7695(3) 0.9977(2)
O12A O 0.0821(3) 1.0834(3) 1.1358(2)
O13A O -0.0084(3) 0.9339(3) 1.2197(2)
O27 O 1.1254(4) 0.7618(4) 0.3454(3)
O28 O 0.4189(8) 0.9564(8) 0.4839(6)
O29 O -0.2839(5) 1.3023(4) 0.7404(4)
H43 H -0.298(8) 1.353(5) 0.750(6)
H44 H -0.237(7) 1.303(7) 0.708(5)
loop_
_geom_bond_atom_site_label_1
_geom_bond_atom_site_label_2
_geom_bond_site_symmetry_1
_geom_bond_site_symmetry_2
Ag1 N4 1_555 1_555
Ag2 O14 1_555 1_555
Ag3 N1 1_555 1_555
Mo1 O3 1_555 1_555
Mo2 O1 1_555 1_555
Mo3 O3 1_555 1_555
Mo4 O2 1_555 1_555
Mo5 O19 1_555 1_555
Mo6 O14 1_555 1_555
Mo7 O15 1_555 1_555
Mo8 O17 1_555 1_555
C1 C2 1_555 1_555
C2 H1 1_555 1_555
C3 C2 1_555 1_555
H2 C3 1_555 1_555
C4 C3 1_555 1_555
C5 C4 1_555 1_555
H3 C5 1_555 1_555
C6 C1 1_555 1_555
H4 C6 1_555 1_555
C7 H5 1_555 1_555
C8 C7 1_555 1_555
H6 C8 1_555 1_555
C9 H7 1_555 1_555
C10 C11 1_555 1_555
C11 H8 1_555 1_555
C12 C11 1_555 1_555
H9 C12 1_555 1_555
C13 C12 1_555 1_555
C14 C10 1_555 1_555
H10 C14 1_555 1_555
C15 C13 1_555 1_555
H11 C15 1_555 1_555
C16 H12 1_555 1_555
C17 C16 1_555 1_555
H13 C17 1_555 1_555
C18 H14 1_555 1_555
C19 C20 1_555 1_555
C20 H15 1_555 1_555
C21 C20 1_555 1_555
H16 C21 1_555 1_555
C22 C21 1_555 1_555
C23 C22 1_555 1_555
H17 C23 1_555 1_555
C24 C19 1_555 1_555
H18 C24 1_555 1_555
C25 H19 1_555 1_555
C26 H20 1_555 1_555
C27 C25 1_555 1_555
H21 C27 1_555 1_555
C28 H22 1_555 1_555
C29 C28 1_555 1_555
H23 C29 1_555 1_555
C30 H24 1_555 1_555
C31 C32 1_555 1_555
C32 H25 1_555 1_555
C33 C32 1_555 1_555
H26 C33 1_555 1_555
C34 C33 1_555 1_555
C35 C34 1_555 1_555
H27 C35 1_555 1_555
C36 C31 1_555 1_555
H28 C36 1_555 1_555
C37 C38 1_555 1_555
C38 H29 1_555 1_555
C39 C38 1_555 1_555
H30 C39 1_555 1_555
C40 C39 1_555 1_555
C41 C40 1_555 1_555
H31 C41 1_555 1_555
C42 C37 1_555 1_555
H32 C42 1_555 1_555
C43 H33 1_555 1_555
C44 H34 1_555 1_555
C45 C44 1_555 1_555
H35 C45 1_555 1_555
C46 C47 1_555 1_555
C47 H36 1_555 1_555
C48 C47 1_555 1_555
H37 C48 1_555 1_555
C49 C48 1_555 1_555
C50 C49 1_555 1_555
H38 C50 1_555 1_555
C51 C46 1_555 1_555
H39 C51 1_555 1_555
C52 H40 1_555 1_555
C53 C52 1_555 1_555
H41 C53 1_555 1_555
C54 H42 1_555 1_555
O1 Mo4A 1_555 1_555
O3 Mo2 1_555 1_555
O4 Mo3 1_555 1_555
O5 Mo3 1_555 1_555
O6 Mo2 1_555 1_555
O7 Mo1 1_555 1_555
O8 Mo4 1_555 1_555
O9 Mo1 1_555 1_555
O10 Mo1 1_555 1_555
O11 Mo3 1_555 1_555
O12 Mo1 1_555 1_555
O13 Mo1 1_555 1_555
O16 Mo7 1_555 1_555
O18 Mo8 1_555 1_555
O19 Mo8 1_555 1_555
O20 Ag2 1_555 1_555
O21 Mo5 1_555 1_555
O22 Mo5 1_555 1_555
O23 Mo7 1_555 1_555
O24 Mo6 1_555 1_555
O25 Mo5 1_555 1_555
O26 Mo6 1_555 1_555
N1 C26 1_555 1_555
N2 C22 1_555 1_555
N3 C1 1_555 1_555
N4 C8 1_555 1_555
N5 C4 1_555 1_555
N6 C13 1_555 1_555
N7 Ag2 1_555 1_555
N8 C34 1_555 1_555
N9 C49 1_555 1_555
N10 C29 1_555 1_555
N11 Ag1 1_555 1_555
N12 C40 1_555 1_555
N13 C43 1_555 1_555
N14 C53 1_555 1_555
O29 H43 1_555 1_555
H44 O29 1_555 1_555
Ag1_2 N4_2 1_555 1_555
Ag2_2 N14 1_555 1_555
Ag2_3 O14_2 1_555 1_555
Ag2A O14A 1_555 1_555
Ag3_2 N13 1_555 1_555
Ag3_3 N1_3 1_555 1_555
Ag3_4 N1_2 1_555 1_555
Mo1A O3A 1_555 1_555
Mo2A O9 1_555 1_555
Mo3A O10 1_555 1_555
Mo4A O11 1_555 1_555
Mo5A O22 1_555 1_555
Mo6A O19 1_555 1_555
Mo7A O24 1_555 1_555
Mo8A O22 1_555 1_555
C1_2 C2_2 1_555 1_555
C2_2 H1_2 1_555 1_555
C3_2 C2_2 1_555 1_555
H2_2 C3_2 1_555 1_555
C4_2 C3_2 1_555 1_555
C5_2 C4_2 1_555 1_555
H3_2 C5_2 1_555 1_555
C6_2 C1_2 1_555 1_555
H4_2 C6_2 1_555 1_555
C7_2 H5_2 1_555 1_555
C8_2 C7_2 1_555 1_555
H6_2 C8_2 1_555 1_555
C9_2 H7_2 1_555 1_555
C10_2 C11_2 1_555 1_555
C11_2 H8_2 1_555 1_555
C12_2 C11_2 1_555 1_555
H9_2 C12_2 1_555 1_555
C13_2 C12_2 1_555 1_555
C14_2 C10_2 1_555 1_555
H10_2 C14_2 1_555 1_555
C15_2 C13_2 1_555 1_555
H11_2 C15_2 1_555 1_555
C16_2 H12_2 1_555 1_555
C17_2 C16_2 1_555 1_555
H13_2 C17_2 1_555 1_555
C18_2 H14_2 1_555 1_555
C19_2 C20_2 1_555 1_555
C20_2 H15_2 1_555 1_555
C21_2 C20_2 1_555 1_555
H16_2 C21_2 1_555 1_555
C22_2 C21_2 1_555 1_555
C23_2 C22_2 1_555 1_555
H17_2 C23_2 1_555 1_555
C24_2 C19_2 1_555 1_555
H18_2 C24_2 1_555 1_555
C25_2 H19_2 1_555 1_555
C26_2 H20_2 1_555 1_555
C27_2 C25_2 1_555 1_555
H21_2 C27_2 1_555 1_555
C28_2 H22_2 1_555 1_555
C29_2 C28_2 1_555 1_555
H23_2 C29_2 1_555 1_555
C30_2 H24_2 1_555 1_555
C31_2 C32_2 1_555 1_555
C32_2 H25_2 1_555 1_555
C33_2 C32_2 1_555 1_555
H26_2 C33_2 1_555 1_555
C34_2 C33_2 1_555 1_555
C35_2 C34_2 1_555 1_555
H27_2 C35_2 1_555 1_555
C36_2 C31_2 1_555 1_555
H28_2 C36_2 1_555 1_555
C37_2 C38_2 1_555 1_555
C38_2 H29_2 1_555 1_555
C39_2 C38_2 1_555 1_555
H30_2 C39_2 1_555 1_555
C40_2 C39_2 1_555 1_555
C41_2 C40_2 1_555 1_555
H31_2 C41_2 1_555 1_555
C42_2 C37_2 1_555 1_555
H32_2 C42_2 1_555 1_555
C43_2 H33_2 1_555 1_555
C44_2 H34_2 1_555 1_555
C45_2 C44_2 1_555 1_555
H35_2 C45_2 1_555 1_555
C46_2 C47_2 1_555 1_555
C47_2 H36_2 1_555 1_555
C48_2 C47_2 1_555 1_555
H37_2 C48_2 1_555 1_555
C49_2 C48_2 1_555 1_555
C50_2 C49_2 1_555 1_555
H38_2 C50_2 1_555 1_555
C51_2 C46_2 1_555 1_555
H39_2 C51_2 1_555 1_555
C52_2 H40_2 1_555 1_555
C53_2 C52_2 1_555 1_555
H41_2 C53_2 1_555 1_555
C54_2 H42_2 1_555 1_555
O1A Mo4 1_555 1_555
O2A Mo4A 1_555 1_555
O3A Mo2A 1_555 1_555
O4A Mo3A 1_555 1_555
O5A Mo3A 1_555 1_555
O6A Mo2A 1_555 1_555
O7A Mo1A 1_555 1_555
O8A Mo4A 1_555 1_555
O9A Mo2 1_555 1_555
O10A Mo2 1_555 1_555
O11A Mo4 1_555 1_555
O12A Mo1A 1_555 1_555
O13A Mo1A 1_555 1_555
O14A Mo6A 1_555 1_555
O15A Mo7A 1_555 1_555
O16A Mo7A 1_555 1_555
O17A Mo8A 1_555 1_555
O18A Mo8A 1_555 1_555
O19A Mo6 1_555 1_555
O20A Ag2A 1_555 1_555
O20_2 Ag2_3 1_555 1_555
O21A Mo5A 1_555 1_555
O22A Mo5 1_555 1_555
O23A Mo8 1_555 1_555
O24A Mo7 1_555 1_555
O25A Mo8 1_555 1_555
O26A Mo6A 1_555 1_555
N1_2 C26_2 1_555 1_555
N2_2 C22_2 1_555 1_555
N3_2 C1_2 1_555 1_555
N4_2 C8_2 1_555 1_555
N5_2 C4_2 1_555 1_555
N6_2 C13_2 1_555 1_555
N7_2 Ag2_3 1_555 1_555
N8_2 C34_2 1_555 1_555
N9_2 C49_2 1_555 1_555
N10_2 C29_2 1_555 1_555
N11_2 Ag1_2 1_555 1_555
N12_2 C40_2 1_555 1_555
N13_2 Ag3 1_555 1_555
N13_3 Ag3_3 1_555 1_555
N14_2 Ag2 1_555 1_555
N14_3 Ag2_3 1_555 1_555
Mo2 O10 1_555 1_555
Mo3 O9 1_555 1_555
Mo3 O10A 1_555 1_555
Mo4 O12 1_555 1_555
Mo5 O20 1_555 1_555
Mo6 O25 1_555 1_555
Mo6 O22A 1_555 1_555
Mo7 O21 1_555 1_555
Mo7 O22 1_555 1_555
Mo8 O22A 1_555 1_555
C5 C6 1_555 1_555
C7 N5 1_555 1_555
C9 N4 1_555 1_555
C9 N5 1_555 1_555
C10 N3 1_555 1_555
C14 C15 1_555 1_555
C16 N6 1_555 1_555
C17 N7 1_555 1_555
C18 N6 1_555 1_555
C18 N7 1_555 1_555
C19 N3 1_555 1_555
C23 C24 1_555 1_555
C25 N2 1_555 1_555
C26 N2 1_555 1_555
C27 N1 1_555 1_555
C28 N11 1_555 1_555
C30 N10 1_555 1_555
C30 N11 1_555 1_555
C31 N10 1_555 1_555
C35 C36 1_555 1_555
C37 N8 1_555 1_555
C41 C42 1_555 1_555
C43 N12 1_555 1_555
C44 N12 1_555 1_555
C45 N13 1_555 1_555
C46 N8 1_555 1_555
C50 C51 1_555 1_555
C52 N9 1_555 1_555
C54 N9 1_555 1_555
C54 N14 1_555 1_555
O10 Mo2A 1_555 1_555
O22 Mo6A 1_555 1_555
O23 Mo8A 1_555 1_555
O25 Mo8A 1_555 1_555
Mo1A O9A 1_555 1_555
Mo1A O10A 1_555 1_555
Mo2A O1A 1_555 1_555
Mo2A O10A 1_555 1_555
Mo3A O3A 1_555 1_555
Mo3A O9A 1_555 1_555
Mo3A O11A 1_555 1_555
Mo4A O12A 1_555 1_555
Mo5A O19A 1_555 1_555
Mo5A O20A 1_555 1_555
Mo5A O22A 1_555 1_555
Mo5A O25A 1_555 1_555
Mo6A O24A 1_555 1_555
Mo6A O25A 1_555 1_555
Mo7A O21A 1_555 1_555
Mo7A O22A 1_555 1_555
Mo7A O23A 1_555 1_555
Mo8A O19A 1_555 1_555
C5_2 C6_2 1_555 1_555
C7_2 N5_2 1_555 1_555
C9_2 N4_2 1_555 1_555
C9_2 N5_2 1_555 1_555
C10_2 N3_2 1_555 1_555
C14_2 C15_2 1_555 1_555
C16_2 N6_2 1_555 1_555
C17_2 N7_2 1_555 1_555
C18_2 N6_2 1_555 1_555
C18_2 N7_2 1_555 1_555
C19_2 N3_2 1_555 1_555
C23_2 C24_2 1_555 1_555
C25_2 N2_2 1_555 1_555
C26_2 N2_2 1_555 1_555
C27_2 N1_2 1_555 1_555
C28_2 N11_2 1_555 1_555
C30_2 N10_2 1_555 1_555
C30_2 N11_2 1_555 1_555
C31_2 N10_2 1_555 1_555
C35_2 C36_2 1_555 1_555
C37_2 N8_2 1_555 1_555
C41_2 C42_2 1_555 1_555
C43_2 N12_2 1_555 1_555
C43_2 N13_3 1_555 1_555
C44_2 N12_2 1_555 1_555
C45_2 N13_3 1_555 1_555
C46_2 N8_2 1_555 1_555
C50_2 C51_2 1_555 1_555
C52_2 N9_2 1_555 1_555
C53_2 N14_2 1_555 1_555
C54_2 N9_2 1_555 1_555
C54_2 N14_2 1_555 1_555

#END
