
#######################################################################
#
#                 Cambridge Crystallographic Data Centre
#                                CCDC 
#
#######################################################################
#
# If this CIF has been generated from an entry in the Cambridge 
# Structural Database, then it will include bibliographic, chemical, 
# crystal, experimental, refinement or atomic coordinate data resulting 
# from the CCDC's data processing and validation procedures.
#
#######################################################################

data_KAXWIR
_symmetry_cell_setting           triclinic
_symmetry_space_group_name_H-M   'P -1'
_symmetry_Int_Tables_number      2
_space_group_name_Hall           '-P 1'
loop_
_symmetry_equiv_pos_site_id
_symmetry_equiv_pos_as_xyz
1 x,y,z
2 -x,-y,-z
_cell_length_a                   9.978(5)
_cell_length_b                   15.705(5)
_cell_length_c                   16.400(5)
_cell_angle_alpha                91.537(5)
_cell_angle_beta                 100.822(5)
_cell_angle_gamma                106.832(5)
_cell_volume                     2407.08
loop_
_atom_site_label
_atom_site_type_symbol
_atom_site_fract_x
_atom_site_fract_y
_atom_site_fract_z
Na1 Na -0.5392(3) -0.04648(18) 0.25830(17)
Cd1 Cd -0.17024(5) 0.20753(3) 0.27579(3)
Cd2 Cd -0.29381(5) 0.02166(3) 0.13219(3)
Cd3 Cd -0.22506(5) 1.03419(3) 0.39928(3)
O1 O -0.5217(4) 0.0423(3) 0.1426(3)
O2 O -0.4263(5) 0.9093(3) 0.3829(3)
O3 O -0.3463(4) 0.1681(3) 0.1518(3)
O4 O -1.0264(4) 0.1908(3) 0.4009(3)
N1 N -0.9029(5) -0.1161(3) 0.3394(3)
O5 O -0.2268(4) 0.8786(3) 0.3942(3)
O6 O -0.4571(5) 0.0840(3) 0.3607(3)
N2 N -1.0094(5) -0.2271(3) 0.2258(3)
O7 O -0.9680(4) 0.0660(3) 0.4066(3)
O8 O -1.0063(5) 0.0678(3) 0.1740(3)
O9 O -0.3180(4) 0.2217(3) 0.3574(3)
N3 N -1.1166(6) -0.6393(4) 0.2626(4)
O10 O -0.5902(5) 0.4111(3) 0.1316(4)
N4 N -0.7974(5) -0.0794(3) 0.4684(3)
N5 N -0.9639(6) -0.3317(4) 0.1557(4)
C1 C -1.0090(7) -0.1429(4) 0.2640(4)
H1 H -1.1026 -0.1485 0.2761
H2 H -0.9901 -0.0973 0.2253
N6 N -1.0535(5) -0.3031(3) 0.2655(3)
C2 C -0.7874(6) 0.1991(4) 0.3928(4)
C3 C -0.5307(6) 0.2712(4) 0.1400(4)
H3 H -0.4377 0.2975 0.1332
N7 N -0.7593(5) -0.0917(4) 0.3385(4)
O11 O -1.0212(5) 0.2056(3) 0.1909(3)
C4 C -0.5801(6) 0.1802(4) 0.1489(4)
O12 O -0.5734(6) 0.4304(3) 0.3801(5)
C5 C -0.6872(6) 0.1562(4) 0.3838(4)
H4 H -0.7104 0.0944 0.3836
O13 O -0.2189(4) 0.0530(3) 0.2679(3)
C6 C -0.4364(6) 0.7569(4) 0.3885(4)
C7 C -0.7550(6) 0.2914(4) 0.3902(5)
H5 H -0.8240 0.3197 0.3938
C8 C -0.8080(6) 0.1908(4) 0.1613(4)
C9 C -0.9565(7) 0.1516(4) 0.1767(4)
C10 C -0.7154(6) 0.1405(4) 0.1581(4)
H6 H -0.7463 0.0793 0.1624
C11 C -1.0246(7) -0.3635(4) 0.2206(4)
C12 C -0.5497(6) 0.2071(4) 0.3749(4)
C13 C -0.4381(7) 0.6049(5) 0.3896(5)
H7 H -0.3887 0.5630 0.3899
C14 C -0.5842(7) 0.5774(4) 0.3871(5)
C15 C -0.6227(7) 0.3210(4) 0.1416(4)
C16 C -0.4764(7) 0.1259(4) 0.1483(4)
C17 C -0.6534(7) 0.6400(5) 0.3855(6)
H8 H -0.7513 0.6219 0.3839
C18 C -0.4472(7) 0.4578(4) 0.1258(5)
H9 H -0.4254 0.4359 0.0755
H10 H -0.3805 0.4483 0.1733
C19 C -1.0465(8) -0.5205(5) 0.1781(5)
H11 H -1.0192 -0.5024 0.1286
C20 C -0.9538(7) -0.2465(4) 0.1618(4)
C21 C -1.0558(7) -0.4585(4) 0.2357(4)
C22 C -0.6652(8) 0.4801(4) 0.3893(6)
H12 H -0.6962 0.4705 0.4418
H13 H -0.7490 0.4622 0.3444
C23 C -0.6198(8) 0.3403(4) 0.3823(5)
C24 C -0.7606(6) 0.2812(4) 0.1526(4)
H14 H -0.8219 0.3157 0.1542
C25 C -0.7035(6) -0.0707(4) 0.4171(4)
H15 H -0.6051 -0.0508 0.4369
C26 C -0.5199(7) 0.2973(4) 0.3750(5)
H16 H -0.4289 0.3311 0.3699
C27 C -0.9351(6) 0.1473(4) 0.4011(4)
C28 C -1.0770(8) -0.6080(5) 0.1929(5)
H17 H -1.0701 -0.6483 0.1525
C29 C -0.3589(7) 0.8552(4) 0.3886(4)
C30 C -0.5831(7) 0.7306(4) 0.3862(5)
H18 H -0.6326 0.7726 0.3851
C31 C -1.1280(8) -0.5810(5) 0.3169(5)
H19 H -1.1572 -0.6015 0.3653
C32 C -0.9212(7) -0.1085(4) 0.4162(4)
H20 H -1.0097 -0.1219 0.4316
C33 C -0.4357(6) 0.1660(4) 0.3627(4)
C34 C -1.0994(8) -0.4900(5) 0.3071(5)
H21 H -1.1095 -0.4513 0.3479
C35 C -0.3659(7) 0.6950(4) 0.3917(5)
H22 H -0.2675 0.7132 0.3954
C36 C -0.8889(7) -0.1838(4) 0.1043(4)
C37 C -0.9343(8) -0.1136(5) 0.0737(5)
H23 H -1.0101 -0.1002 0.0907
C38 C -0.8652(8) -0.0636(5) 0.0173(4)
H24 H -0.8944 -0.0151 -0.0013
C39 C -0.7139(8) -0.1474(5) 0.0182(5)
H25 H -0.6383 -0.1591 -0.0009
C40 C -0.7731(8) -0.1996(5) 0.0761(4)
H26 H -0.7368 -0.2449 0.0963
N8 N -0.7603(6) -0.0808(4) -0.0117(3)
C41 C -0.4331(7) 0.5562(4) 0.1239(4)
C42 C -0.5097(8) 0.5940(5) 0.1689(5)
H27 H -0.5747 0.5584 0.1972
C43 C -0.3212(7) 0.7004(4) 0.0830(4)
H28 H -0.2581 0.7357 0.0535
C44 C -0.3417(7) 0.6095(4) 0.0806(5)
H29 H -0.2924 0.5841 0.0491
C45 C -0.3939(7) 0.7391(5) 0.1289(5)
C46 C -0.4883(7) 0.6846(5) 0.1712(5)
H30 H -0.5386 0.7099 0.2020
C47 C -0.3707(8) 0.8386(5) 0.1338(5)
O14 O -0.4447(5) 0.8706(4) 0.1724(4)
O15 O -0.2734(6) 0.8862(3) 0.1005(3)
Na1_2 Na -0.5392(3) 0.95352(18) 0.25830(17)
Cd1_2 Cd -1.17024(5) 0.20753(3) 0.27579(3)
Cd1_3 Cd -1.17024(5) -0.79247(3) 0.27579(3)
Cd2A Cd -0.70619(5) -0.02166(3) -0.13219(3)
Cd2_2 Cd -0.29381(5) 1.02166(3) 0.13219(3)
Cd3_2 Cd -1.22506(5) 0.03419(3) 0.39928(3)
Cd3_3 Cd -0.22506(5) 0.03419(3) 0.39928(3)
Cd3A Cd -0.77494(5) -0.03419(3) 0.60072(3)
O2_2 O -0.4263(5) -0.0907(3) 0.3829(3)
O4_2 O -0.0264(4) 0.1908(3) 0.4009(3)
O4_3 O -0.0264(4) 1.1908(3) 0.4009(3)
O6_2 O -0.4571(5) 1.0840(3) 0.3607(3)
O7_2 O 0.0320(4) 1.0660(3) 0.4066(3)
N3_2 N -0.1166(6) 0.3607(4) 0.2626(4)
N4A N -0.2026(5) 1.0794(3) 0.5316(3)
O11_2 O -0.0212(5) 0.2056(3) 0.1909(3)
O13_2 O -0.2189(4) 1.0530(3) 0.2679(3)
N8A N -0.2397(6) 0.0808(4) 0.0117(3)
O14_2 O -0.4447(5) -0.1294(4) 0.1724(4)
O15_2 O -0.2734(6) -0.1138(3) 0.1005(3)
O16 O -1.0633(12) -0.6788(5) 0.5147(5)
loop_
_geom_bond_atom_site_label_1
_geom_bond_atom_site_label_2
_geom_bond_site_symmetry_1
_geom_bond_site_symmetry_2
Na1 O1 1_555 1_555
Cd1 O3 1_555 1_555
Cd2 O1 1_555 1_555
Cd3 O2 1_555 1_555
O1 C16 1_555 1_555
O2 C29 1_555 1_555
O3 Cd2 1_555 1_555
O4 C27 1_555 1_555
N1 C1 1_555 1_555
O5 Cd3 1_555 1_555
O6 Na1 1_555 1_555
N2 C1 1_555 1_555
O7 C27 1_555 1_555
O8 C9 1_555 1_555
O9 Cd1 1_555 1_555
N3 C28 1_555 1_555
O10 C15 1_555 1_555
N4 C25 1_555 1_555
N5 C11 1_555 1_555
C1 H1 1_555 1_555
H2 C1 1_555 1_555
N6 N2 1_555 1_555
C2 C5 1_555 1_555
C3 H3 1_555 1_555
N7 Na1 1_555 1_555
O11 C9 1_555 1_555
C4 C3 1_555 1_555
O12 C22 1_555 1_555
C5 H4 1_555 1_555
O13 Cd1 1_555 1_555
C6 C29 1_555 1_555
C7 C2 1_555 1_555
H5 C7 1_555 1_555
C8 C9 1_555 1_555
C10 C4 1_555 1_555
H6 C10 1_555 1_555
C11 N6 1_555 1_555
C12 C5 1_555 1_555
C13 H7 1_555 1_555
C14 C13 1_555 1_555
C15 C3 1_555 1_555
C16 O3 1_555 1_555
C17 C14 1_555 1_555
H8 C17 1_555 1_555
C18 O10 1_555 1_555
H9 C18 1_555 1_555
H10 C18 1_555 1_555
C19 H11 1_555 1_555
C20 N2 1_555 1_555
C21 C11 1_555 1_555
C22 C14 1_555 1_555
H12 C22 1_555 1_555
H13 C22 1_555 1_555
C23 O12 1_555 1_555
C24 C8 1_555 1_555
H14 C24 1_555 1_555
C25 N7 1_555 1_555
H15 C25 1_555 1_555
C26 C12 1_555 1_555
H16 C26 1_555 1_555
C27 C2 1_555 1_555
C28 C19 1_555 1_555
H17 C28 1_555 1_555
C29 O5 1_555 1_555
C30 C6 1_555 1_555
H18 C30 1_555 1_555
C31 N3 1_555 1_555
H19 C31 1_555 1_555
C32 N1 1_555 1_555
H20 C32 1_555 1_555
C33 O6 1_555 1_555
C34 C21 1_555 1_555
H21 C34 1_555 1_555
C35 C6 1_555 1_555
H22 C35 1_555 1_555
C36 C20 1_555 1_555
C37 C36 1_555 1_555
H23 C37 1_555 1_555
C38 C37 1_555 1_555
H24 C38 1_555 1_555
C39 H25 1_555 1_555
C40 C36 1_555 1_555
H26 C40 1_555 1_555
N8 C38 1_555 1_555
C41 C18 1_555 1_555
C42 C41 1_555 1_555
H27 C42 1_555 1_555
C43 H28 1_555 1_555
C44 C41 1_555 1_555
H29 C44 1_555 1_555
C45 C43 1_555 1_555
C46 C42 1_555 1_555
H30 C46 1_555 1_555
C47 C45 1_555 1_555
O14 C47 1_555 1_555
O15 C47 1_555 1_555
Na1_2 O2 1_555 1_555
Cd1_2 O4 1_555 1_555
Cd1_3 N3 1_555 1_555
Cd2A N8 1_555 1_555
Cd2_2 O14 1_555 1_555
Cd3_2 O4 1_555 1_555
Cd3_3 O6 1_555 1_555
Cd3A N4 1_555 1_555
O2_2 Na1 1_555 1_555
O4_2 Cd1 1_555 1_555
O4_3 Cd3 1_555 1_555
O6_2 Cd3 1_555 1_555
O7_2 Cd3 1_555 1_555
N3_2 Cd1 1_555 1_555
N4A Cd3 1_555 1_555
O11_2 Cd1 1_555 1_555
O13_2 Cd3 1_555 1_555
N8A Cd2 1_555 1_555
O14_2 Na1 1_555 1_555
O15_2 Cd2 1_555 1_555
Cd2 O13 1_555 1_555
Cd2 O14_2 1_555 1_555
N1 N7 1_555 1_555
O7 Cd3_2 1_555 1_555
O9 C33 1_555 1_555
N4 C32 1_555 1_555
N5 C20 1_555 1_555
O11 Cd1_2 1_555 1_555
C4 C16 1_555 1_555
O13 Cd3_3 1_555 1_555
C7 C23 1_555 1_555
C8 C10 1_555 1_555
C12 C33 1_555 1_555
C13 C35 1_555 1_555
C15 C24 1_555 1_555
C17 C30 1_555 1_555
C19 C21 1_555 1_555
C23 C26 1_555 1_555
C31 C34 1_555 1_555
C39 C40 1_555 1_555
C39 N8 1_555 1_555
C43 C44 1_555 1_555
C45 C46 1_555 1_555
O14 Na1_2 1_555 1_555
O15 Cd2_2 1_555 1_555
Na1_2 O6_2 1_555 1_555
Cd2_2 O13_2 1_555 1_555
Cd3_3 O2_2 1_555 1_555
Cd3_3 O4_2 1_555 1_555

#END
