
#######################################################################
#
#                 Cambridge Crystallographic Data Centre
#                                CCDC 
#
#######################################################################
#
# If this CIF has been generated from an entry in the Cambridge 
# Structural Database, then it will include bibliographic, chemical, 
# crystal, experimental, refinement or atomic coordinate data resulting 
# from the CCDC's data processing and validation procedures.
#
#######################################################################

data_KAXYUF
_symmetry_cell_setting           monoclinic
_symmetry_space_group_name_H-M   'P 21/c'
_symmetry_Int_Tables_number      14
_space_group_name_Hall           '-P 2ybc'
loop_
_symmetry_equiv_pos_site_id
_symmetry_equiv_pos_as_xyz
1 x,y,z
2 -x,1/2+y,1/2-z
3 -x,-y,-z
4 x,1/2-y,1/2+z
_cell_length_a                   16.6996(3)
_cell_length_b                   11.1387(2)
_cell_length_c                   11.4147(1)
_cell_angle_alpha                90
_cell_angle_beta                 96.071(2)
_cell_angle_gamma                90
_cell_volume                     2111.36
loop_
_atom_site_label
_atom_site_type_symbol
_atom_site_fract_x
_atom_site_fract_y
_atom_site_fract_z
Cu1 Cu 0.7557(5) 0.20627(31) 0.5087(7)
P1 P 0.9408(6) 0.1519(10) 0.4425(10)
P2 P 0.5706(6) 0.1567(10) 0.5452(10)
O1 O 0.8653(10) 0.2009(19) 0.4316(18)
O2 O 0.9642(12) 0.1163(19) 0.5708(19)
O3 O 0.9353(14) 0.0385(21) 0.3588(19)
O4 O 0.6543(9) 0.2022(18) 0.5708(17)
O5 O 0.5520(11) 0.1298(18) 0.4181(20)
O6 O 0.5583(13) 0.0389(22) 0.6259(20)
C1 C 1.0177(10) 0.2538(20) 0.4007(24)
C2 C 1.0086(6) 0.3783(15) 0.4582(19)
C3 C 0.9723(11) 0.4781(24) 0.3914(29)
C4 C 1.0338(10) 0.3935(24) 0.5771(27)
C5 C 0.4927(9) 0.2690(23) 0.6070(23)
C6 C 0.4921(9) 0.3923(20) 0.5587(25)
C7 C 0.4627(8) 0.4041(22) 0.4271(27)
C8 C 0.5404(8) 0.4845(28) 0.6224(23)
N1 N 0.7387(6) 0.0167(10) 0.5026(31)
N2 N 0.7518(10) -0.6051(11) 0.5138(16)
C9 C 0.7260(6) -0.0447(25) 0.3976(25)
C10 C 0.7293(6) -0.1701(23) 0.3991(21)
C11 C 0.7540(6) -0.0393(24) 0.6014(24)
C12 C 0.7581(6) -0.1604(22) 0.6042(20)
C13 C 0.7450(5) -0.2239(13) 0.5002(14)
C14 C 0.7487(7) -0.3580(11) 0.5058(13)
C15 C 0.6931(10) -0.4190(20) 0.4318(17)
C16 C 0.6972(11) -0.5452(20) 0.4377(18)
C17 C 0.8072(10) -0.4122(20) 0.5856(17)
C18 C 0.8044(11) -0.5448(20) 0.5871(17)
O7 O 0.8275(17) 0.1913(32) 0.6940(26)
O8 O 0.6724(17) 0.1893(34) 0.3068(26)
Cu1B Cu 1.2443(5) 0.79373(31) 0.4913(7)
Cu1_2 Cu 0.7557(5) -0.79373(31) 0.5087(7)
Cu1B_2 Cu 0.2443(5) 0.79373(31) 0.4913(7)
Cu1_3 Cu 0.7557(5) 1.20627(31) 0.5087(7)
P1B P 1.0592(6) 0.8481(10) 0.5575(10)
P2B P 0.4294(6) 0.8433(10) 0.4548(10)
O1B O 1.1347(10) 0.7991(19) 0.5684(18)
O2B O 1.0358(12) 0.8837(19) 0.4292(19)
O3B O 1.0647(14) 0.9615(21) 0.6412(19)
O4B O 0.3457(9) 0.7978(18) 0.4292(17)
O4B_2 O 1.3457(9) 0.7978(18) 0.4292(17)
O5B O 0.4480(11) 0.8702(18) 0.5819(20)
O6B O 0.4417(13) 0.9611(22) 0.3741(20)
C1B C 0.9823(10) 0.7462(20) 0.5993(24)
C2B C 0.9914(6) 0.6217(15) 0.5418(19)
C3B C 1.0277(11) 0.5219(24) 0.6086(29)
C4B C 0.9662(10) 0.6065(24) 0.4229(27)
C5B C 0.5073(9) 0.7310(23) 0.3930(23)
C6B C 0.5079(9) 0.6077(20) 0.4413(25)
C7B C 0.5373(8) 0.5959(22) 0.5729(27)
C8B C 0.4596(8) 0.5155(28) 0.3776(23)
N1_2 N 0.7387(6) 1.0167(10) 0.5026(31)
N1B N 1.2613(6) 0.9833(10) 0.4974(31)
N2_2 N 0.7518(10) 0.3949(11) 0.5138(16)
N2B N 1.2482(10) 0.6051(11) 0.4862(16)
C9_2 C 0.7260(6) 0.9553(25) 0.3976(25)
C10_2 C 0.7293(6) 0.8299(23) 0.3991(21)
C11_2 C 0.7540(6) 0.9607(24) 0.6014(24)
C12_2 C 0.7581(6) 0.8396(22) 0.6042(20)
C13_2 C 0.7450(5) 0.7761(13) 0.5002(14)
C14_2 C 0.7487(7) 0.6420(11) 0.5058(13)
C15_2 C 0.6931(10) 0.5810(20) 0.4318(17)
C16_2 C 0.6972(11) 0.4548(20) 0.4377(18)
C17_2 C 0.8072(10) 0.5878(20) 0.5856(17)
C18_2 C 0.8044(11) 0.4552(20) 0.5871(17)
O7B O 1.1725(17) 0.8087(32) 0.3060(26)
O8B O 1.3276(17) 0.8107(34) 0.6932(26)
loop_
_geom_bond_atom_site_label_1
_geom_bond_atom_site_label_2
_geom_bond_site_symmetry_1
_geom_bond_site_symmetry_2
Cu1 O1 1_555 1_555
P1 O1 1_555 1_555
P2 O4 1_555 1_555
O2 P1 1_555 1_555
O3 P1 1_555 1_555
O4 Cu1 1_555 1_555
O5 P2 1_555 1_555
O6 P2 1_555 1_555
C1 P1 1_555 1_555
C2 C1 1_555 1_555
C3 C2 1_555 1_555
C4 C2 1_555 1_555
C5 P2 1_555 1_555
C6 C5 1_555 1_555
C7 C6 1_555 1_555
C8 C6 1_555 1_555
N1 Cu1 1_555 1_555
N2 C16 1_555 1_555
C9 N1 1_555 1_555
C10 C9 1_555 1_555
C11 N1 1_555 1_555
C12 C11 1_555 1_555
C13 C10 1_555 1_555
C14 C13 1_555 1_555
C15 C14 1_555 1_555
C16 C15 1_555 1_555
C17 C14 1_555 1_555
C18 N2 1_555 1_555
O7 Cu1 1_555 1_555
O8 Cu1 1_555 1_555
Cu1B O1B 1_555 1_555
Cu1_2 N2 1_555 1_555
Cu1B_2 O4B 1_555 1_555
Cu1_3 N1_2 1_555 1_555
P1B O1B 1_555 1_555
P2B O4B 1_555 1_555
O2B P1B 1_555 1_555
O3B P1B 1_555 1_555
O4B_2 Cu1B 1_555 1_555
O5B P2B 1_555 1_555
O6B P2B 1_555 1_555
C1B P1B 1_555 1_555
C2B C1B 1_555 1_555
C3B C4 1_555 1_555
C4B C3 1_555 1_555
C5B P2B 1_555 1_555
C6B C5B 1_555 1_555
C7B C8 1_555 1_555
C8B C7 1_555 1_555
N1_2 C9_2 1_555 1_555
N1B Cu1B 1_555 1_555
N2_2 Cu1 1_555 1_555
N2B Cu1B 1_555 1_555
C9_2 C10_2 1_555 1_555
C10_2 C13_2 1_555 1_555
C11_2 N1_2 1_555 1_555
C12_2 C11_2 1_555 1_555
C13_2 C12_2 1_555 1_555
C14_2 C13_2 1_555 1_555
C15_2 C14_2 1_555 1_555
C16_2 N2_2 1_555 1_555
C17_2 C14_2 1_555 1_555
C18_2 N2_2 1_555 1_555
O7B Cu1B 1_555 1_555
O8B Cu1B 1_555 1_555
C12 C13 1_555 1_555
C17 C18 1_555 1_555
C2B C3B 1_555 1_555
C2B C4B 1_555 1_555
C6B C7B 1_555 1_555
C6B C8B 1_555 1_555
C15_2 C16_2 1_555 1_555
C17_2 C18_2 1_555 1_555

#END
