
#######################################################################
#
#                 Cambridge Crystallographic Data Centre
#                                CCDC 
#
#######################################################################
#
# If this CIF has been generated from an entry in the Cambridge 
# Structural Database, then it will include bibliographic, chemical, 
# crystal, experimental, refinement or atomic coordinate data resulting 
# from the CCDC's data processing and validation procedures.
#
#######################################################################

data_KAXZOA
_symmetry_cell_setting           triclinic
_symmetry_space_group_name_H-M   'P -1'
_symmetry_Int_Tables_number      2
_space_group_name_Hall           '-P 1'
loop_
_symmetry_equiv_pos_site_id
_symmetry_equiv_pos_as_xyz
1 x,y,z
2 -x,-y,-z
_cell_length_a                   12.698(3)
_cell_length_b                   19.929(4)
_cell_length_c                   22.287(5)
_cell_angle_alpha                75.48(3)
_cell_angle_beta                 79.54(3)
_cell_angle_gamma                73.22(3)
_cell_volume                     5190.91
loop_
_atom_site_label
_atom_site_type_symbol
_atom_site_fract_x
_atom_site_fract_y
_atom_site_fract_z
C1 C 0.90601(10) 0.49907(7) 0.33932(6)
H1 H 0.8515 0.5367 0.3206
C2 C 0.92367(12) 0.43158(7) 0.32633(6)
C3 C 1.01031(11) 0.37730(6) 0.35285(6)
H2 H 1.0263 0.3319 0.3441
C4 C 1.07311(10) 0.38991(6) 0.39205(6)
C5 C 1.04904(10) 0.45695(6) 0.40689(6)
H3 H 1.0878 0.4645 0.4351
C6 C 0.96633(10) 0.51254(6) 0.37902(6)
C7 C 0.94020(10) 0.58727(6) 0.38908(6)
C8 C 1.16995(10) 0.33212(6) 0.41459(6)
C9 C 0.85384(14) 0.41622(8) 0.28536(8)
C10 C 0.8057(2) 0.48025(12) 0.23897(10)
H4 H 0.7819 0.4659 0.2067
H5 H 0.8605 0.5065 0.2209
H6 H 0.7435 0.5102 0.2594
C11 C 0.79283(18) 0.36603(15) 0.32028(12)
H7 H 0.7309 0.3898 0.3457
H8 H 0.8401 0.3278 0.3465
H9 H 0.7666 0.3469 0.2921
C12 C 0.9357(2) 0.37207(12) 0.23621(10)
H10 H 0.9693 0.3245 0.2576
H11 H 0.9923 0.3962 0.2162
H12 H 0.8941 0.3694 0.2053
C13 C 1.03785(10) 0.75201(7) 0.51378(6)
C14 C 1.15726(9) 0.71255(7) 0.50120(6)
C15 C 1.24003(10) 0.73511(7) 0.51787(6)
H13 H 1.2208 0.7748 0.5362
C16 C 1.34948(10) 0.69968(7) 0.50764(6)
C17 C 1.37701(10) 0.64139(7) 0.47858(6)
H14 H 1.4514 0.6190 0.4694
C18 C 1.29585(10) 0.61548(7) 0.46279(6)
C19 C 1.18608(11) 0.65275(7) 0.47486(6)
H15 H 1.1304 0.6371 0.4650
C20 C 1.32434(11) 0.54832(7) 0.43613(6)
C21 C 1.44792(12) 0.52092(8) 0.41558(7)
H16 H 1.4720 0.5564 0.3824
H17 H 1.4604 0.4774 0.4012
H18 H 1.4889 0.5118 0.4503
C22 C 1.26340(14) 0.56365(9) 0.37860(7)
H19 H 1.1849 0.5745 0.3910
H20 H 1.2855 0.5221 0.3604
H21 H 1.2816 0.6037 0.3485
C23 C 1.28501(14) 0.48884(8) 0.48752(8)
H22 H 1.3157 0.4837 0.5252
H23 H 1.3095 0.4442 0.4738
H24 H 1.2056 0.5019 0.4952
C24 C 1.43652(11) 0.72248(7) 0.52863(7)
C25 C 1.49859(11) 0.90239(7) 0.06932(7)
C26 C 1.42704(12) 0.88997(7) 0.03552(7)
H25 H 1.4463 0.8469 0.0222
C27 C 1.32801(12) 0.93911(7) 0.02081(7)
C28 C 1.30252(12) 1.00227(7) 0.04249(7)
H26 H 1.2369 1.0365 0.0334
C29 C 1.37233(12) 1.01631(7) 0.07765(7)
C30 C 1.34240(13) 1.08461(7) 0.09852(7)
C31 C 1.47080(12) 0.96561(7) 0.09067(7)
H27 H 1.5181 0.9740 0.1137
C32 C 1.60636(13) 0.84882(8) 0.08199(7)
C33 C 0.47153(12) 0.92274(7) 0.35696(6)
C34 C 0.55880(11) 0.88326(7) 0.39167(6)
H28 H 0.5866 0.8346 0.3919
C35 C 0.60564(10) 0.91457(6) 0.42607(6)
C36 C 0.69483(10) 0.87066(6) 0.46501(6)
C37 C 0.56332(10) 0.98717(6) 0.42647(6)
H29 H 0.5949 1.0089 0.4484
C38 C 0.47477(11) 1.02687(6) 0.39444(6)
C39 C 0.42938(12) 0.99446(7) 0.36049(7)
H30 H 0.3689 1.0217 0.3395
C40 C 0.42448(11) 1.10402(6) 0.39756(6)
C41 C 0.42334(15) 0.88649(8) 0.31846(8)
C42 C 0.34685(18) 0.93735(12) 0.27641(9)
H31 H 0.2764 0.9535 0.2997
H32 H 0.3767 0.9777 0.2565
H33 H 0.3376 0.9145 0.2453
C43 C 0.5213(2) 0.85307(12) 0.27078(11)
H34 H 0.5453 0.8911 0.2407
H35 H 0.5820 0.8230 0.2930
H36 H 0.4959 0.8251 0.2498
C44 C 0.3886(2) 0.82407(12) 0.35920(11)
H37 H 0.3822 0.7929 0.3342
H38 H 0.4425 0.7985 0.3875
H39 H 0.3181 0.8403 0.3825
C45 C 1.25130(14) 0.92365(9) -0.01736(8)
C46 C 1.1800(2) 0.88328(17) 0.02399(14)
H40 H 1.2159 0.8330 0.0291
H41 H 1.1647 0.8965 0.0639
H42 H 1.1119 0.8932 0.0066
C47 C 1.3161(2) 0.88668(18) -0.06863(11)
H43 H 1.2671 0.8865 -0.0967
H44 H 1.3702 0.9118 -0.0911
H45 H 1.3528 0.8382 -0.0509
C48 C 1.1802(2) 0.99184(15) -0.05184(12)
H46 H 1.1098 1.0042 -0.0273
H47 H 1.2162 1.0299 -0.0591
H48 H 1.1691 0.9848 -0.0911
C49 C 1.00362(12) 1.40012(7) 0.07383(6)
C50 C 0.97773(11) 1.46902(7) 0.08346(6)
H49 H 1.0262 1.4830 0.1016
C51 C 0.88014(11) 1.51736(7) 0.06633(6)
C52 C 0.81009(12) 1.49635(7) 0.03754(6)
H50 H 0.7460 1.5295 0.0244
C53 C 0.83355(12) 1.42740(8) 0.02805(6)
C54 C 0.93018(12) 1.37976(7) 0.04689(6)
H51 H 0.9468 1.3329 0.0415
C55 C 0.75664(14) 1.40221(9) -0.00324(8)
C56 C 0.66434(19) 1.46429(14) -0.02992(11)
H52 H 0.6144 1.4822 0.0037
H53 H 0.6950 1.5018 -0.0563
H54 H 0.6250 1.4479 -0.0539
C57 C 0.81992(19) 1.36812(12) -0.05741(9)
H55 H 0.8542 1.4017 -0.0873
H56 H 0.8759 1.3262 -0.0421
H57 H 0.7699 1.3547 -0.0770
C58 C 0.7029(2) 1.35010(14) 0.04486(13)
H58 H 0.6357 1.3492 0.0315
H59 H 0.7525 1.3030 0.0497
H60 H 0.6863 1.3650 0.0840
C59 C 0.84940(12) 1.59165(7) 0.07834(6)
C60 C 1.15931(14) 0.53579(10) 0.24235(9)
H61 H 1.0994 0.5667 0.2633
H62 H 1.1344 0.5271 0.2075
H63 H 1.1840 0.4911 0.2708
C61 C 1.25432(12) 0.57140(8) 0.21959(7)
C62 C 1.35706(12) 0.53247(8) 0.19523(7)
C63 C 1.44639(12) 0.56486(9) 0.17418(7)
C64 C 1.42999(11) 0.63677(8) 0.17743(7)
C65 C 1.32665(13) 0.67704(9) 0.20041(7)
C66 C 1.23957(11) 0.64251(9) 0.22252(7)
C67 C 1.31221(16) 0.75383(10) 0.20465(10)
H64 H 1.2618 0.7856 0.1763
H65 H 1.2832 0.7593 0.2465
H66 H 1.3827 0.7652 0.1941
C68 C 1.12975(12) 0.68374(10) 0.25148(7)
H67 H 1.1427 0.7198 0.2694
H68 H 1.0980 0.6510 0.2849
C69 C 1.55605(13) 0.52337(10) 0.14801(8)
H69 H 1.5653 0.5389 0.1034
H70 H 1.6143 0.5314 0.1652
H71 H 1.5588 0.4732 0.1587
C70 C 1.37328(15) 0.45506(9) 0.19249(7)
H72 H 1.4283 0.4439 0.1576
H73 H 1.3042 0.4488 0.1850
C71 C 1.36222(13) 0.35774(8) 0.28964(7)
H74 H 1.2942 0.3508 0.2866
C72 C 1.51249(15) 0.35208(11) 0.31986(9)
H75 H 1.5707 0.3383 0.3440
C73 C 1.52497(12) 0.67212(10) 0.15577(7)
H76 H 1.4967 0.7222 0.1368
H77 H 1.5762 0.6491 0.1246
C74 C 1.55946(14) 0.64451(9) 0.27072(8)
H78 H 1.4978 0.6273 0.2888
C75 C 1.70217(13) 0.67762(9) 0.25840(7)
H79 H 1.7631 0.6889 0.2671
C76 C 0.81283(16) 1.23082(10) 0.22804(11)
H80 H 0.7558 1.2590 0.2023
H81 H 0.7887 1.2359 0.2704
H82 H 0.8790 1.2470 0.2133
C77 C 0.83633(12) 1.15230(8) 0.22519(7)
C78 C 0.94308(12) 1.11533(8) 0.20674(7)
C79 C 1.03438(13) 1.15413(9) 0.18439(7)
H83 H 1.0042 1.2010 0.1593
H84 H 1.0917 1.1275 0.1578
C80 C 0.96724(12) 1.04233(8) 0.20572(6)
C81 C 1.08421(14) 1.00087(11) 0.19044(9)
H85 H 1.1338 1.0171 0.2078
H86 H 1.0911 0.9508 0.2077
H87 H 1.1024 1.0081 0.1459
C82 C 0.87835(12) 1.00871(7) 0.22008(6)
C83 C 0.77168(11) 1.04600(7) 0.23790(6)
C84 C 0.75091(12) 1.11708(9) 0.24299(7)
C85 C 0.63760(13) 1.15562(10) 0.27040(7)
H88 H 0.6470 1.1900 0.2918
H89 H 0.6056 1.1209 0.3013
C86 C 0.67813(13) 1.01020(9) 0.25176(9)
H90 H 0.7016 0.9668 0.2362
H91 H 0.6572 0.9991 0.2960
H92 H 0.6159 1.0419 0.2317
C87 C 0.46708(13) 1.18012(9) 0.21828(8)
H93 H 0.4397 1.1422 0.2428
C88 C 0.48760(14) 1.27077(9) 0.15134(9)
H94 H 0.4749 1.3103 0.1185
C89 C 0.90107(15) 0.93070(9) 0.21497(7)
H95 H 0.9690 0.9181 0.1875
H96 H 0.8410 0.9247 0.1971
C90 C 0.86291(14) 0.83092(8) 0.30594(8)
H97 H 0.8117 0.8181 0.2889
C91 C 0.9681(2) 0.83335(12) 0.36311(11)
H98 H 1.0085 0.8217 0.3968
C92 C 1.05659(12) 1.15123(8) 0.29691(7)
H99 H 0.9998 1.1302 0.3177
C93 C 1.18728(12) 1.20073(7) 0.27603(6)
H100 H 1.2413 1.2213 0.2810
C94 C 0.96811(12) 0.69659(9) 0.19519(7)
H101 H 0.9503 0.6541 0.2166
C95 C 0.97241(14) 0.79246(9) 0.13420(8)
H102 H 0.9540 0.8330 0.1027
C96 C 1.10727(13) 1.34662(8) 0.09297(7)
Cd1 Cd 0.847743(8) 0.707762(5) 0.439360(4)
Cd2 Cd 1.389180(7) 0.248400(5) 0.430110(4)
Cd3 Cd 1.162010(8) 1.160810(5) 0.427870(4)
Cd4 Cd 1.281090(8) 1.222230(5) 0.122090(5)
Cd5 Cd 1.784510(8) 0.727730(5) 0.100730(5)
N1 N 1.58394(10) 0.66641(7) 0.20944(5)
N2 N 1.67894(9) 0.68802(6) 0.20050(5)
N3 N 1.63307(11) 0.65024(7) 0.30263(6)
N4 N 1.42366(10) 0.32193(6) 0.33433(6)
N5 N 1.50665(12) 0.40270(9) 0.26805(8)
N6 N 1.40874(11) 0.40490(7) 0.24957(6)
N7 N 0.91487(10) 0.74308(6) 0.15069(6)
N8 N 1.05065(10) 0.71869(7) 0.20534(5)
N9 N 1.05609(13) 0.78027(8) 0.16498(8)
N10 N 1.12051(10) 1.17319(7) 0.32449(5)
N11 N 1.08460(9) 1.16326(6) 0.23527(5)
N12 N 1.16937(9) 1.19592(6) 0.22142(5)
N13 N 0.89550(11) 0.79981(6) 0.36113(6)
N14 N 0.91149(12) 0.88249(7) 0.27756(7)
N15 N 0.98138(16) 0.88581(10) 0.31363(9)
N16 N 0.41806(10) 1.22888(6) 0.17205(6)
N17 N 0.55966(10) 1.19343(7) 0.22424(6)
N18 N 0.57640(12) 1.25156(8) 0.18137(8)
O1 O 0.90274(9) 0.63858(5) 0.34583(5)
O2 O 0.95562(9) 0.59693(5) 0.44012(4)
O3 O 1.22188(7) 0.34037(4) 0.45478(4)
O4 O 1.20392(7) 0.27732(4) 0.39011(4)
O5 O 0.74821(7) 0.90106(5) 0.48652(4)
O6 O 0.70807(7) 0.80230(5) 0.47719(4)
O7 O 0.33689(8) 1.13499(5) 0.37328(5)
O8 O 0.47307(8) 1.13368(5) 0.42318(5)
O9 O 1.67363(9) 0.85917(6) 0.10967(6)
O10 O 1.62327(9) 0.78928(5) 0.06418(5)
O11 O 1.39854(11) 1.09549(6) 0.13349(6)
O12 O 1.25780(10) 1.13216(5) 0.08093(5)
O13 O 1.11975(10) 1.28291(5) 0.08588(5)
O14 O 1.17694(9) 1.36262(6) 0.11513(6)
O15 O 0.90666(9) 1.60874(6) 0.10855(6)
O16 O 0.76297(10) 1.63570(5) 0.05854(5)
O17 O 1.01630(8) 0.79859(6) 0.54606(5)
O18 O 0.96550(7) 0.73714(5) 0.49188(5)
O19 O 1.40704(9) 0.76576(6) 0.56469(6)
O20 O 1.53643(7) 0.69560(5) 0.51361(5)
O21 O 0.68664(8) 0.69504(5) 0.41223(4)
O22 O 1.87569(9) 0.78328(6) 0.00754(5)
O23 O 1.37531(9) 1.27548(6) 0.02892(5)
O24 O 1.13770(14) 1.04324(7) 0.44030(7)
Cd1A Cd 1.152257(8) 0.292238(5) 0.560640(4)
Cd2A Cd 0.610820(7) 0.751600(5) 0.569890(4)
Cd2_2 Cd 0.389180(7) 1.248400(5) 0.430110(4)
Cd2A_2 Cd 1.610820(7) 0.751600(5) 0.569890(4)
Cd3_2 Cd 1.162010(8) 0.160810(5) 0.427870(4)
Cd3A Cd 0.837990(8) 0.839190(5) 0.572130(4)
Cd3_3 Cd 0.162010(8) 1.160810(5) 0.427870(4)
Cd4_2 Cd 0.281090(8) 1.222230(5) 0.122090(5)
Cd5_2 Cd 0.784510(8) 0.727730(5) 0.100730(5)
Cd5_3 Cd 0.784510(8) 1.727730(5) 0.100730(5)
N7_2 N 1.91487(10) 0.74308(6) 0.15069(6)
N16_2 N 1.41806(10) 1.22888(6) 0.17205(6)
O3A O 0.77812(7) 0.65963(4) 0.54522(4)
O4_2 O 1.20392(7) 1.27732(4) 0.39011(4)
O5A O 1.25179(7) 1.09894(5) 0.51348(4)
O6A O 1.29193(7) 0.19770(5) 0.52281(4)
O7_2 O 1.33689(8) 1.13499(5) 0.37328(5)
O8_2 O 1.47307(8) 0.13368(5) 0.42318(5)
O15_2 O 1.90666(9) 0.60874(6) 0.10855(6)
O16_2 O 1.76297(10) 0.63570(5) 0.05854(5)
O17A O 0.98370(8) 1.20141(6) 0.45394(5)
O19A O 1.59296(9) 0.23424(6) 0.43531(6)
O20A O 1.46357(7) 0.30440(5) 0.48639(5)
loop_
_geom_bond_atom_site_label_1
_geom_bond_atom_site_label_2
_geom_bond_site_symmetry_1
_geom_bond_site_symmetry_2
C1 H1 1_555 1_555
C2 C1 1_555 1_555
C3 C2 1_555 1_555
H2 C3 1_555 1_555
C4 C3 1_555 1_555
C5 C4 1_555 1_555
H3 C5 1_555 1_555
C6 C1 1_555 1_555
C7 C6 1_555 1_555
C8 C4 1_555 1_555
C9 C2 1_555 1_555
C10 C9 1_555 1_555
H4 C10 1_555 1_555
H5 C10 1_555 1_555
H6 C10 1_555 1_555
C11 C9 1_555 1_555
H7 C11 1_555 1_555
H8 C11 1_555 1_555
H9 C11 1_555 1_555
C12 C9 1_555 1_555
H10 C12 1_555 1_555
H11 C12 1_555 1_555
H12 C12 1_555 1_555
C13 C14 1_555 1_555
C14 C15 1_555 1_555
C15 H13 1_555 1_555
C16 C15 1_555 1_555
C17 C16 1_555 1_555
H14 C17 1_555 1_555
C18 C17 1_555 1_555
C19 C14 1_555 1_555
H15 C19 1_555 1_555
C20 C18 1_555 1_555
C21 C20 1_555 1_555
H16 C21 1_555 1_555
H17 C21 1_555 1_555
H18 C21 1_555 1_555
C22 C20 1_555 1_555
H19 C22 1_555 1_555
H20 C22 1_555 1_555
H21 C22 1_555 1_555
C23 C20 1_555 1_555
H22 C23 1_555 1_555
H23 C23 1_555 1_555
H24 C23 1_555 1_555
C24 C16 1_555 1_555
C25 C26 1_555 1_555
C26 H25 1_555 1_555
C27 C26 1_555 1_555
C28 C27 1_555 1_555
H26 C28 1_555 1_555
C29 C28 1_555 1_555
C30 C29 1_555 1_555
C31 C25 1_555 1_555
H27 C31 1_555 1_555
C32 C25 1_555 1_555
C33 C34 1_555 1_555
C34 H28 1_555 1_555
C35 C34 1_555 1_555
C36 C35 1_555 1_555
C37 C35 1_555 1_555
H29 C37 1_555 1_555
C38 C37 1_555 1_555
C39 C33 1_555 1_555
H30 C39 1_555 1_555
C40 C38 1_555 1_555
C41 C33 1_555 1_555
C42 C41 1_555 1_555
H31 C42 1_555 1_555
H32 C42 1_555 1_555
H33 C42 1_555 1_555
C43 C41 1_555 1_555
H34 C43 1_555 1_555
H35 C43 1_555 1_555
H36 C43 1_555 1_555
C44 C41 1_555 1_555
H37 C44 1_555 1_555
H38 C44 1_555 1_555
H39 C44 1_555 1_555
C45 C27 1_555 1_555
C46 C45 1_555 1_555
H40 C46 1_555 1_555
H41 C46 1_555 1_555
H42 C46 1_555 1_555
C47 C45 1_555 1_555
H43 C47 1_555 1_555
H44 C47 1_555 1_555
H45 C47 1_555 1_555
C48 C45 1_555 1_555
H46 C48 1_555 1_555
H47 C48 1_555 1_555
H48 C48 1_555 1_555
C49 C50 1_555 1_555
C50 H49 1_555 1_555
C51 C50 1_555 1_555
C52 C51 1_555 1_555
H50 C52 1_555 1_555
C53 C52 1_555 1_555
C54 C49 1_555 1_555
H51 C54 1_555 1_555
C55 C53 1_555 1_555
C56 C55 1_555 1_555
H52 C56 1_555 1_555
H53 C56 1_555 1_555
H54 C56 1_555 1_555
C57 C55 1_555 1_555
H55 C57 1_555 1_555
H56 C57 1_555 1_555
H57 C57 1_555 1_555
C58 C55 1_555 1_555
H58 C58 1_555 1_555
H59 C58 1_555 1_555
H60 C58 1_555 1_555
C59 C51 1_555 1_555
C60 H61 1_555 1_555
H62 C60 1_555 1_555
H63 C60 1_555 1_555
C61 C60 1_555 1_555
C62 C61 1_555 1_555
C63 C62 1_555 1_555
C64 C63 1_555 1_555
C65 C64 1_555 1_555
C66 C61 1_555 1_555
C67 C65 1_555 1_555
H64 C67 1_555 1_555
H65 C67 1_555 1_555
H66 C67 1_555 1_555
C68 C66 1_555 1_555
H67 C68 1_555 1_555
H68 C68 1_555 1_555
C69 C63 1_555 1_555
H69 C69 1_555 1_555
H70 C69 1_555 1_555
H71 C69 1_555 1_555
C70 C62 1_555 1_555
H72 C70 1_555 1_555
H73 C70 1_555 1_555
C71 H74 1_555 1_555
C72 H75 1_555 1_555
C73 C64 1_555 1_555
H76 C73 1_555 1_555
H77 C73 1_555 1_555
C74 H78 1_555 1_555
C75 H79 1_555 1_555
C76 H80 1_555 1_555
H81 C76 1_555 1_555
H82 C76 1_555 1_555
C77 C76 1_555 1_555
C78 C77 1_555 1_555
C79 C78 1_555 1_555
H83 C79 1_555 1_555
H84 C79 1_555 1_555
C80 C78 1_555 1_555
C81 C80 1_555 1_555
H85 C81 1_555 1_555
H86 C81 1_555 1_555
H87 C81 1_555 1_555
C82 C80 1_555 1_555
C83 C82 1_555 1_555
C84 C77 1_555 1_555
C85 C84 1_555 1_555
H88 C85 1_555 1_555
H89 C85 1_555 1_555
C86 C83 1_555 1_555
H90 C86 1_555 1_555
H91 C86 1_555 1_555
H92 C86 1_555 1_555
C87 H93 1_555 1_555
C88 H94 1_555 1_555
C89 C82 1_555 1_555
H95 C89 1_555 1_555
H96 C89 1_555 1_555
C90 H97 1_555 1_555
C91 H98 1_555 1_555
C92 H99 1_555 1_555
C93 H100 1_555 1_555
C94 H101 1_555 1_555
C95 H102 1_555 1_555
C96 C49 1_555 1_555
Cd1 N13 1_555 1_555
Cd2 N4 1_555 1_555
Cd3 N10 1_555 1_555
Cd4 N12 1_555 1_555
Cd5 N2 1_555 1_555
N1 C73 1_555 1_555
N2 C75 1_555 1_555
N3 C74 1_555 1_555
N4 C71 1_555 1_555
N5 C72 1_555 1_555
N6 C70 1_555 1_555
N7 C94 1_555 1_555
N8 C68 1_555 1_555
N9 C95 1_555 1_555
N10 C92 1_555 1_555
N11 C79 1_555 1_555
N12 C93 1_555 1_555
N13 C90 1_555 1_555
N14 C89 1_555 1_555
N15 C91 1_555 1_555
N16 C87 1_555 1_555
N17 C85 1_555 1_555
N18 C88 1_555 1_555
O1 C7 1_555 1_555
O2 C7 1_555 1_555
O3 C8 1_555 1_555
O4 C8 1_555 1_555
O5 C36 1_555 1_555
O6 C36 1_555 1_555
O7 C40 1_555 1_555
O8 C40 1_555 1_555
O9 C32 1_555 1_555
O10 C32 1_555 1_555
O11 C30 1_555 1_555
O12 C30 1_555 1_555
O13 C96 1_555 1_555
O14 C96 1_555 1_555
O15 C59 1_555 1_555
O16 C59 1_555 1_555
O17 C13 1_555 1_555
O18 C13 1_555 1_555
O19 C24 1_555 1_555
O20 C24 1_555 1_555
O21 Cd1 1_555 1_555
O22 Cd5 1_555 1_555
O23 Cd4 1_555 1_555
O24 Cd3 1_555 1_555
Cd1A O3 1_555 1_555
Cd2A O6 1_555 1_555
Cd2_2 O8 1_555 1_555
Cd2A_2 O19 1_555 1_555
Cd3_2 O4 1_555 1_555
Cd3A O5 1_555 1_555
Cd3_3 O7 1_555 1_555
Cd4_2 N16 1_555 1_555
Cd5_2 N7 1_555 1_555
Cd5_3 O15 1_555 1_555
N7_2 Cd5 1_555 1_555
N16_2 Cd4 1_555 1_555
O3A Cd1 1_555 1_555
O4_2 Cd3 1_555 1_555
O5A Cd3 1_555 1_555
O6A Cd2 1_555 1_555
O7_2 Cd3 1_555 1_555
O8_2 Cd2 1_555 1_555
O15_2 Cd5 1_555 1_555
O16_2 Cd5 1_555 1_555
O17A Cd3 1_555 1_555
O19A Cd2 1_555 1_555
O20A Cd2 1_555 1_555
C5 C6 1_555 1_555
C18 C19 1_555 1_555
C29 C31 1_555 1_555
C38 C39 1_555 1_555
C53 C54 1_555 1_555
C65 C66 1_555 1_555
C71 N6 1_555 1_555
C72 N4 1_555 1_555
C74 N1 1_555 1_555
C75 N3 1_555 1_555
C83 C84 1_555 1_555
C87 N17 1_555 1_555
C88 N16 1_555 1_555
C90 N14 1_555 1_555
C91 N13 1_555 1_555
C92 N11 1_555 1_555
C93 N10 1_555 1_555
C94 N8 1_555 1_555
C95 N7 1_555 1_555
Cd1 O1 1_555 1_555
Cd1 O2 1_555 1_555
Cd1 O6 1_555 1_555
Cd1 O18 1_555 1_555
Cd2 O3 1_555 1_555
Cd2 O4 1_555 1_555
Cd4 O11 1_555 1_555
Cd4 O12 1_555 1_555
Cd4 O13 1_555 1_555
Cd5 O9 1_555 1_555
Cd5 O10 1_555 1_555
N1 N2 1_555 1_555
N5 N6 1_555 1_555
N8 N9 1_555 1_555
N11 N12 1_555 1_555
N14 N15 1_555 1_555
N17 N18 1_555 1_555
O16 Cd5_3 1_555 1_555
O17 Cd3A 1_555 1_555
O20 Cd2A_2 1_555 1_555
Cd1A O6A 1_555 1_555
Cd2A O3A 1_555 1_555

#END
