
#######################################################################
#
#                 Cambridge Crystallographic Data Centre
#                                CCDC 
#
#######################################################################
#
# If this CIF has been generated from an entry in the Cambridge 
# Structural Database, then it will include bibliographic, chemical, 
# crystal, experimental, refinement or atomic coordinate data resulting 
# from the CCDC's data processing and validation procedures.
#
#######################################################################

data_KAYBIW
_symmetry_cell_setting           monoclinic
_symmetry_space_group_name_H-M   'P 21/c'
_symmetry_Int_Tables_number      14
_space_group_name_Hall           '-P 2ybc'
loop_
_symmetry_equiv_pos_site_id
_symmetry_equiv_pos_as_xyz
1 x,y,z
2 -x,1/2+y,1/2-z
3 -x,-y,-z
4 x,1/2-y,1/2+z
_cell_length_a                   9.2735(19)
_cell_length_b                   14.244(3)
_cell_length_c                   10.579(2)
_cell_angle_alpha                90
_cell_angle_beta                 95.65(3)
_cell_angle_gamma                90
_cell_volume                     1390.61
loop_
_atom_site_label
_atom_site_type_symbol
_atom_site_fract_x
_atom_site_fract_y
_atom_site_fract_z
Sm1 Sm 0.124756(18) 0.133303(12) 0.469680(16)
C1 C 0.4039(4) 0.2452(3) 0.6521(3)
C2 C 0.5385(4) 0.2766(3) 0.7036(4)
H1 H 0.5459 0.3251 0.7627
C3 C 0.6619(4) 0.2347(3) 0.6656(4)
H2 H 0.7534 0.2566 0.6956
C4 C 0.6469(4) 0.1600(3) 0.5827(4)
C5 C 0.5077(4) 0.1334(3) 0.5337(4)
H3 H 0.4972 0.0831 0.4774
C6 C 0.2639(4) 0.2846(2) 0.6924(4)
C7 C 0.7753(4) 0.1012(3) 0.5519(3)
C8 C 0.1703(4) -0.0125(3) 0.8695(4)
C9 C 0.2838(5) 0.0395(3) 0.9273(4)
H4 H 0.3270 0.0866 0.8831
C10 C 0.3316(5) 0.0200(3) 1.0521(4)
H5 H 0.4093 0.0528 1.0932
C11 C 0.2632(6) -0.0480(4) 1.1143(4)
H6 H 0.2940 -0.0590 1.1993
C12 C 0.1557(5) -0.0992(3) 1.0603(4)
H7 H 0.1133 -0.1461 1.1053
C13 C 0.1094(5) -0.0814(3) 0.9389(4)
H8 H 0.0333 -0.1168 0.8998
C14 C 0.1117(4) 0.0063(3) 0.7348(4)
N1 N 0.3886(3) 0.1775(2) 0.5645(3)
O1 O 0.1515(3) 0.26546(19) 0.6209(3)
O2 O 0.2704(3) 0.3318(2) 0.7924(3)
O3 O 0.0087(3) 0.2620(2) 0.3483(3)
H9 H -0.0555 0.2913 0.3015
H10 H 0.0604 0.3026 0.3914
O4 O 0.8921(3) 0.1445(2) 0.5475(3)
O5 O 0.7526(3) 0.01582(19) 0.5363(3)
O6 O 0.1611(3) 0.0766(2) 0.6831(3)
O7 O 0.0193(3) -0.0486(2) 0.6831(3)
Sm1C Sm 0.124756(18) 0.366697(12) 0.969680(16)
Sm1_2 Sm 1.124756(18) 0.133303(12) 0.469680(16)
Sm1B Sm 0.875244(18) -0.133303(12) 0.530320(16)
Sm1B_2 Sm -0.124756(18) -0.133303(12) 0.530320(16)
O2C O 0.2704(3) 0.1682(2) 0.2924(3)
O4_2 O -0.1079(3) 0.1445(2) 0.5475(3)
O5B O 0.2474(3) -0.01582(19) 0.4637(3)
O7B O -0.0193(3) 0.0486(2) 0.3169(3)
loop_
_geom_bond_atom_site_label_1
_geom_bond_atom_site_label_2
_geom_bond_site_symmetry_1
_geom_bond_site_symmetry_2
Sm1 N1 1_555 1_555
C1 C2 1_555 1_555
C2 H1 1_555 1_555
C3 C2 1_555 1_555
H2 C3 1_555 1_555
C4 C3 1_555 1_555
C5 C4 1_555 1_555
H3 C5 1_555 1_555
C6 C1 1_555 1_555
C7 C4 1_555 1_555
C8 C9 1_555 1_555
C9 H4 1_555 1_555
C10 C9 1_555 1_555
H5 C10 1_555 1_555
C11 C10 1_555 1_555
H6 C11 1_555 1_555
C12 C11 1_555 1_555
H7 C12 1_555 1_555
C13 C8 1_555 1_555
H8 C13 1_555 1_555
C14 C8 1_555 1_555
N1 C1 1_555 1_555
O1 Sm1 1_555 1_555
O2 C6 1_555 1_555
O3 Sm1 1_555 1_555
H9 O3 1_555 1_555
H10 O3 1_555 1_555
O4 C7 1_555 1_555
O5 C7 1_555 1_555
O6 Sm1 1_555 1_555
O7 C14 1_555 1_555
Sm1C O2 1_555 1_555
Sm1_2 O4 1_555 1_555
Sm1B O5 1_555 1_555
Sm1B_2 O7 1_555 1_555
O2C Sm1 1_555 1_555
O4_2 Sm1 1_555 1_555
O5B Sm1 1_555 1_555
O7B Sm1 1_555 1_555
C5 N1 1_555 1_555
C6 O1 1_555 1_555
C12 C13 1_555 1_555
C14 O6 1_555 1_555

#END
