
#######################################################################
#
#                 Cambridge Crystallographic Data Centre
#                                CCDC 
#
#######################################################################
#
# If this CIF has been generated from an entry in the Cambridge 
# Structural Database, then it will include bibliographic, chemical, 
# crystal, experimental, refinement or atomic coordinate data resulting 
# from the CCDC's data processing and validation procedures.
#
#######################################################################

data_KAYCAQ
_symmetry_cell_setting           rhombohedral
_symmetry_space_group_name_H-M   'R -3'
_symmetry_Int_Tables_number      148
_space_group_name_Hall           '-R 3'
loop_
_symmetry_equiv_pos_site_id
_symmetry_equiv_pos_as_xyz
1 x,y,z
2 -y,x-y,z
3 -x+y,-x,z
4 2/3+x,1/3+y,1/3+z
5 2/3-y,1/3+x-y,1/3+z
6 2/3-x+y,1/3-x,1/3+z
7 1/3+x,2/3+y,2/3+z
8 1/3-y,2/3+x-y,2/3+z
9 1/3-x+y,2/3-x,2/3+z
10 -x,-y,-z
11 y,-x+y,-z
12 x-y,x,-z
13 1/3-x,2/3-y,2/3-z
14 1/3+y,2/3-x+y,2/3-z
15 1/3+x-y,2/3+x,2/3-z
16 2/3-x,1/3-y,1/3-z
17 2/3+y,1/3-x+y,1/3-z
18 2/3+x-y,1/3+x,1/3-z
_cell_length_a                   18.5021(5)
_cell_length_b                   18.5021(5)
_cell_length_c                   11.9010(4)
_cell_angle_alpha                90
_cell_angle_beta                 90
_cell_angle_gamma                120
_cell_volume                     3528.22
loop_
_atom_site_label
_atom_site_type_symbol
_atom_site_fract_x
_atom_site_fract_y
_atom_site_fract_z
C1 C 0.93959(9) 0.66759(9) 0.31214(12)
C2 C 1.00999(9) 0.75468(9) 0.33714(13)
C3 C 1.05749(10) 0.77434(11) 0.43365(14)
H1 H 1.0496 0.7331 0.4849
C4 C 1.11703(12) 0.85685(12) 0.45228(16)
H2 H 1.1474 0.8726 0.5188
C5 C 1.13077(11) 0.91545(11) 0.37085(16)
H3 H 1.1709 0.9712 0.3812
C6 C 1.08360(9) 0.88951(9) 0.27337(13)
C7 C 1.10205(9) 0.94649(9) 0.17342(13)
N1 N 1.02246(7) 0.81103(7) 0.25846(10)
O1 O 0.94586(7) 0.60835(7) 0.34976(10)
O2 O 0.88091(6) 0.66328(6) 0.25450(10)
O3 O 1.14591(8) 1.02250(7) 0.19039(10)
O4 O 1.07271(6) 0.91094(6) 0.08041(9)
Ca1 Ca 0.926936(17) 0.781855(17) 0.09563(2)
O1H O 0.99582(10) 0.72081(7) 0.01643(10)
O2O O 0.78576(6) 0.67005(6) 0.07883(10)
O3B O 0.87659(11) 0.85409(8) 0.19039(10)
O4J O 0.91094(6) 0.83823(8) -0.08041(9)
Ca1D Ca 0.884812(17) 0.478414(24) 0.42896(2)
Ca1O Ca 0.739731(17) 0.551478(17) 0.23770(2)
Ca1A Ca 1.218145(17) 1.145081(24) 0.09563(2)
Ca1K Ca 1.145081(24) 0.926936(17) -0.09563(2)
loop_
_geom_bond_atom_site_label_1
_geom_bond_atom_site_label_2
_geom_bond_site_symmetry_1
_geom_bond_site_symmetry_2
C1 C2 1_555 1_555
C2 C3 1_555 1_555
C3 H1 1_555 1_555
C4 C3 1_555 1_555
H2 C4 1_555 1_555
C5 C4 1_555 1_555
H3 C5 1_555 1_555
C6 C5 1_555 1_555
C7 C6 1_555 1_555
N1 C2 1_555 1_555
O1 C1 1_555 1_555
O2 C1 1_555 1_555
O3 C7 1_555 1_555
O4 C7 1_555 1_555
Ca1 N1 1_555 1_555
O1H Ca1 1_555 1_555
O2O Ca1 1_555 1_555
O3B Ca1 1_555 1_555
O4J Ca1 1_555 1_555
Ca1D O1 1_555 1_555
Ca1O O2 1_555 1_555
Ca1A O3 1_555 1_555
Ca1K O4 1_555 1_555
C6 N1 1_555 1_555
O2 Ca1 1_555 1_555
O4 Ca1 1_555 1_555
O2O Ca1O 1_555 1_555

#END
