
#######################################################################
#
#                 Cambridge Crystallographic Data Centre
#                                CCDC 
#
#######################################################################
#
# If this CIF has been generated from an entry in the Cambridge 
# Structural Database, then it will include bibliographic, chemical, 
# crystal, experimental, refinement or atomic coordinate data resulting 
# from the CCDC's data processing and validation procedures.
#
#######################################################################

data_KAYCEU
_symmetry_cell_setting           monoclinic
_symmetry_space_group_name_H-M   'P 21/c'
_symmetry_Int_Tables_number      14
_space_group_name_Hall           '-P 2ybc'
loop_
_symmetry_equiv_pos_site_id
_symmetry_equiv_pos_as_xyz
1 x,y,z
2 -x,1/2+y,1/2-z
3 -x,-y,-z
4 x,1/2-y,1/2+z
_cell_length_a                   11.347(7)
_cell_length_b                   9.914(4)
_cell_length_c                   7.907(4)
_cell_angle_alpha                90
_cell_angle_beta                 104.489(6)
_cell_angle_gamma                90
_cell_volume                     861.202
loop_
_atom_site_label
_atom_site_type_symbol
_atom_site_fract_x
_atom_site_fract_y
_atom_site_fract_z
Ca1 Ca 0.09673(4) 0.15922(4) 0.48311(5)
O1 O 0.14004(15) 0.15491(14) 0.20386(19)
O2 O 0.24970(17) 0.15492(16) 0.0101(2)
O3 O 0.05443(14) -0.06974(14) 0.38567(18)
C1 C 0.1075(2) -0.1295(2) 0.2855(3)
O4 O 0.05910(17) -0.2068(2) 0.1666(2)
C2 C 0.29490(19) -0.0102(2) 0.2345(2)
C3 C 0.24321(19) -0.1132(2) 0.3121(2)
O5 O 0.26401(16) 0.06040(19) 0.6872(2)
N1 N 0.49301(19) -0.1090(2) 0.3368(3)
C4 C 0.22278(19) 0.1065(2) 0.1421(3)
C5 C 0.4190(2) -0.0151(2) 0.2485(3)
H1 H 0.4527 0.0517 0.1926
C6 C 0.4429(2) -0.2046(3) 0.4159(3)
H2 H 0.4933 -0.2696 0.4816
C7 C 0.3204(2) -0.2108(2) 0.4042(3)
H3 H 0.2891 -0.2807 0.4583
H4 H 0.2644 0.0777 0.7970
H5 H 0.3465 0.0810 0.6681
Ca1C Ca 0.09673(4) 0.34078(4) -0.01689(5)
Ca1B Ca -0.09673(4) -0.15922(4) 0.51689(5)
Ca1A Ca -0.09673(4) -0.34078(4) 0.01689(5)
O1C O 0.14004(15) 0.34509(14) 0.70386(19)
O2C O 0.24970(17) 0.34508(16) 0.5101(2)
O3B O -0.05443(14) 0.06974(14) 0.61433(18)
O4A O -0.05910(17) 0.2932(2) 0.3334(2)
loop_
_geom_bond_atom_site_label_1
_geom_bond_atom_site_label_2
_geom_bond_site_symmetry_1
_geom_bond_site_symmetry_2
Ca1 O1 1_555 1_555
O1 C4 1_555 1_555
O2 C4 1_555 1_555
O3 Ca1 1_555 1_555
C1 O3 1_555 1_555
O4 C1 1_555 1_555
C2 C3 1_555 1_555
C3 C1 1_555 1_555
O5 Ca1 1_555 1_555
N1 C5 1_555 1_555
C4 C2 1_555 1_555
C5 C2 1_555 1_555
H1 C5 1_555 1_555
C6 N1 1_555 1_555
H2 C6 1_555 1_555
C7 C3 1_555 1_555
H3 C7 1_555 1_555
H4 O5 1_555 1_555
H5 O5 1_555 1_555
Ca1C O1 1_555 1_555
Ca1B O3 1_555 1_555
Ca1A O4 1_555 1_555
O1C Ca1 1_555 1_555
O2C Ca1 1_555 1_555
O3B Ca1 1_555 1_555
O4A Ca1 1_555 1_555
O2 Ca1C 1_555 1_555
C6 C7 1_555 1_555
Ca1B O3B 1_555 1_555

#END
