
#######################################################################
#
#                 Cambridge Crystallographic Data Centre
#                                CCDC 
#
#######################################################################
#
# If this CIF has been generated from an entry in the Cambridge 
# Structural Database, then it will include bibliographic, chemical, 
# crystal, experimental, refinement or atomic coordinate data resulting 
# from the CCDC's data processing and validation procedures.
#
#######################################################################

data_KAYMEE
_symmetry_cell_setting           orthorhombic
_symmetry_space_group_name_H-M   'P 21 21 21'
_symmetry_Int_Tables_number      19
_space_group_name_Hall           'P 2ac 2ab'
loop_
_symmetry_equiv_pos_site_id
_symmetry_equiv_pos_as_xyz
1 x,y,z
2 1/2-x,-y,1/2+z
3 -x,1/2+y,1/2-z
4 1/2+x,1/2-y,-z
_cell_length_a                   9.9898(9)
_cell_length_b                   10.1263(11)
_cell_length_c                   17.8530(15)
_cell_angle_alpha                90
_cell_angle_beta                 90
_cell_angle_gamma                90
_cell_volume                     1806
loop_
_atom_site_label
_atom_site_type_symbol
_atom_site_fract_x
_atom_site_fract_y
_atom_site_fract_z
Sn1 Sn 0.86514(4) 0.32092(4) 0.00891(2)
O1 O 0.7077(4) 0.4725(4) -0.0003(3)
O2 O 0.5537(4) 0.3206(4) -0.0200(3)
C1 C 0.5871(6) 0.4377(6) -0.0122(4)
C2 C 0.4836(6) 0.5456(7) -0.0189(5)
H1 H 0.3957 0.5072 -0.0081
C3 C 0.5077(9) 0.6563(8) 0.0360(6)
H2 H 0.4481 0.7294 0.0251
H3 H 0.5992 0.6875 0.0314
C4 C 0.4827(10) 0.6062(10) 0.1164(6)
C5 C 0.5799(11) 0.5513(10) 0.1596(6)
H4 H 0.6659 0.5440 0.1402
C6 C 0.5561(13) 0.5069(13) 0.2299(6)
H5 H 0.6253 0.4696 0.2576
C7 C 0.4311(17) 0.5166(16) 0.2603(7)
H6 H 0.4151 0.4887 0.3091
C8 C 0.3304(14) 0.5675(16) 0.2182(8)
H7 H 0.2439 0.5708 0.2373
C9 C 0.3560(13) 0.6145(12) 0.1470(7)
H8 H 0.2870 0.6522 0.1193
C10 C 0.4785(11) 0.6082(12) -0.0984(6)
C11 C 0.3626(12) 0.6630(12) -0.1252(6)
H9 H 0.2875 0.6664 -0.0945
C12 C 0.3554(12) 0.7127(12) -0.1963(6)
H10 H 0.2770 0.7535 -0.2122
C13 C 0.4587(11) 0.7035(13) -0.2429(7)
H11 H 0.4525 0.7356 -0.2916
C14 C 0.5744(12) 0.6459(12) -0.2180(6)
H12 H 0.6467 0.6367 -0.2504
C15 C 0.5847(12) 0.6013(12) -0.1453(6)
H13 H 0.6652 0.5662 -0.1283
C16 C 0.7751(8) 0.2181(8) 0.0979(4)
H14 H 0.8430 0.1759 0.1274
H15 H 0.7153 0.1525 0.0782
H16 H 0.7258 0.2788 0.1286
C17 C 1.0025(8) 0.4717(8) 0.0365(6)
H17 H 0.9709 0.5188 0.0797
H18 H 1.0108 0.5315 -0.0049
H19 H 1.0882 0.4332 0.0473
C18 C 0.8492(9) 0.2584(7) -0.1041(4)
H20 H 0.7991 0.3224 -0.1322
H21 H 0.8041 0.1747 -0.1061
H22 H 0.9370 0.2497 -0.1253
Sn1C Sn 0.36514(4) 0.17908(4) -0.00891(2)
O2C O 1.0537(4) 0.1794(4) 0.0200(3)
loop_
_geom_bond_atom_site_label_1
_geom_bond_atom_site_label_2
_geom_bond_site_symmetry_1
_geom_bond_site_symmetry_2
Sn1 O1 1_555 1_555
O1 C1 1_555 1_555
O2 C1 1_555 1_555
C1 C2 1_555 1_555
C2 H1 1_555 1_555
C3 C2 1_555 1_555
H2 C3 1_555 1_555
H3 C3 1_555 1_555
C4 C3 1_555 1_555
C5 C4 1_555 1_555
H4 C5 1_555 1_555
C6 C5 1_555 1_555
H5 C6 1_555 1_555
C7 C6 1_555 1_555
H6 C7 1_555 1_555
C8 C7 1_555 1_555
H7 C8 1_555 1_555
C9 C4 1_555 1_555
H8 C9 1_555 1_555
C10 C2 1_555 1_555
C11 C10 1_555 1_555
H9 C11 1_555 1_555
C12 C11 1_555 1_555
H10 C12 1_555 1_555
C13 C12 1_555 1_555
H11 C13 1_555 1_555
C14 C13 1_555 1_555
H12 C14 1_555 1_555
C15 C10 1_555 1_555
H13 C15 1_555 1_555
C16 Sn1 1_555 1_555
H14 C16 1_555 1_555
H15 C16 1_555 1_555
H16 C16 1_555 1_555
C17 Sn1 1_555 1_555
H17 C17 1_555 1_555
H18 C17 1_555 1_555
H19 C17 1_555 1_555
C18 Sn1 1_555 1_555
H20 C18 1_555 1_555
H21 C18 1_555 1_555
H22 C18 1_555 1_555
Sn1C O2 1_555 1_555
O2C Sn1 1_555 1_555
C8 C9 1_555 1_555
C14 C15 1_555 1_555

#END
