
#######################################################################
#
#                 Cambridge Crystallographic Data Centre
#                                CCDC 
#
#######################################################################
#
# If this CIF has been generated from an entry in the Cambridge 
# Structural Database, then it will include bibliographic, chemical, 
# crystal, experimental, refinement or atomic coordinate data resulting 
# from the CCDC's data processing and validation procedures.
#
#######################################################################

data_KAYMII
_symmetry_cell_setting           triclinic
_symmetry_space_group_name_H-M   'P -1'
_symmetry_Int_Tables_number      2
_space_group_name_Hall           '-P 1'
loop_
_symmetry_equiv_pos_site_id
_symmetry_equiv_pos_as_xyz
1 x,y,z
2 -x,-y,-z
_cell_length_a                   10.1935(8)
_cell_length_b                   12.9231(11)
_cell_length_c                   22.9307(18)
_cell_angle_alpha                86.455(2)
_cell_angle_beta                 83.6760(10)
_cell_angle_gamma                67.9670(10)
_cell_volume                     2782.36
loop_
_atom_site_label
_atom_site_type_symbol
_atom_site_fract_x
_atom_site_fract_y
_atom_site_fract_z
Sn1 Sn 1.1447(2) 0.35985(17) 0.23928(11)
Sn2 Sn 0.7010(2) 0.23186(17) 0.25804(11)
O1 O 0.927(3) 0.481(2) 0.2227(16)
O2 O 0.841(3) 0.350(2) 0.2380(15)
O3 O 1.591(3) 0.118(2) 0.2710(15)
O4 O 1.387(3) 0.2421(18) 0.2573(14)
C1 C 0.823(3) 0.449(2) 0.222(2)
C2 C 0.680(3) 0.531(2) 0.2075(13)
H1 H 0.6010 0.5091 0.2244
C3 C 0.665(5) 0.647(2) 0.2255(13)
H2 H 0.7554 0.6555 0.2186
H3 H 0.5968 0.7036 0.2028
C4 C 0.614(5) 0.6574(15) 0.2895(13)
C5 C 0.711(3) 0.662(2) 0.326(2)
H4 H 0.8003 0.6590 0.3099
C6 C 0.674(4) 0.673(3) 0.3857(19)
H5 H 0.7390 0.6761 0.4103
C7 C 0.541(5) 0.678(2) 0.4089(13)
H6 H 0.5159 0.6846 0.4491
C8 C 0.444(3) 0.672(3) 0.373(2)
H7 H 0.3546 0.6761 0.3883
C9 C 0.481(4) 0.662(2) 0.3127(19)
H8 H 0.4160 0.6577 0.2882
C10 C 0.691(5) 0.5382(15) 0.1415(13)
C11 C 0.810(4) 0.528(2) 0.103(2)
H9 H 0.8973 0.5152 0.1166
C12 C 0.793(3) 0.538(3) 0.0443(18)
H10 H 0.8749 0.5306 0.0197
C13 C 0.674(5) 0.556(2) 0.0165(13)
H11 H 0.6735 0.5610 -0.0241
C14 C 0.553(3) 0.567(3) 0.054(2)
H12 H 0.4650 0.5799 0.0412
C15 C 0.575(4) 0.558(2) 0.1125(18)
H13 H 0.4930 0.5663 0.1373
C16 C 1.458(3) 0.141(2) 0.272(2)
C17 C 1.403(4) 0.049(2) 0.2701(12)
H14 H 1.2984 0.0813 0.2751
C18 C 1.454(4) -0.032(3) 0.3217(11)
H15 H 1.4270 -0.0955 0.3190
H16 H 1.5571 -0.0586 0.3195
C19 C 1.393(4) 0.0230(18) 0.3795(11)
C20 C 1.463(3) 0.068(3) 0.4129(18)
H17 H 1.5537 0.0656 0.3999
C21 C 1.397(4) 0.116(3) 0.4659(16)
H18 H 1.4435 0.1465 0.4886
C22 C 1.262(4) 0.120(2) 0.4852(12)
H19 H 1.2177 0.1531 0.5207
C23 C 1.192(3) 0.075(3) 0.4517(18)
H20 H 1.1012 0.0779 0.4648
C24 C 1.258(4) 0.027(2) 0.3988(16)
H21 H 1.2109 -0.0030 0.3761
C25 C 1.448(4) -0.0169(15) 0.2143(10)
C26 C 1.344(3) -0.044(2) 0.1925(16)
H22 H 1.2537 -0.0227 0.2122
C27 C 1.375(4) -0.104(3) 0.1415(17)
H23 H 1.3058 -0.1233 0.1269
C28 C 1.510(4) -0.136(2) 0.1124(12)
H24 H 1.5303 -0.1756 0.0779
C29 C 1.614(3) -0.109(3) 0.1340(16)
H25 H 1.7049 -0.1314 0.1143
C30 C 1.583(3) -0.050(2) 0.1851(16)
H26 H 1.6532 -0.0314 0.1998
C31 C 1.123(5) 0.325(4) 0.3212(19)
H27 H 1.0241 0.3388 0.3338
H28 H 1.1785 0.2468 0.3288
C32 C 1.175(4) 0.399(4) 0.3544(17)
H29 H 1.1825 0.4587 0.3283
H30 H 1.2693 0.3548 0.3657
C33 C 1.077(4) 0.449(4) 0.4091(19)
H31 H 1.0499 0.3919 0.4305
H32 H 0.9918 0.5081 0.3976
C34 C 1.152(5) 0.496(4) 0.4491(19)
H33 H 1.2443 0.4413 0.4548
H34 H 1.0963 0.5137 0.4863
H35 H 1.1611 0.5622 0.4312
C35 C 1.242(5) 0.488(3) 0.219(2)
H36 H 1.2363 0.5307 0.2530
H37 H 1.3404 0.4551 0.2026
C36 C 1.146(5) 0.560(3) 0.173(2)
H38 H 1.1689 0.5189 0.1368
H39 H 1.0481 0.5727 0.1868
C37 C 1.162(4) 0.672(3) 0.160(2)
H40 H 1.2450 0.6619 0.1329
H41 H 1.1749 0.7008 0.1962
C38 C 1.030(5) 0.756(3) 0.134(2)
H42 H 1.0141 0.7264 0.0994
H43 H 1.0455 0.8246 0.1238
H44 H 0.9490 0.7713 0.1622
C39 C 1.139(5) 0.262(4) 0.1670(18)
H45 H 1.1810 0.1831 0.1775
H46 H 1.0405 0.2782 0.1605
C40 C 1.218(5) 0.285(3) 0.1102(18)
H47 H 1.2989 0.3008 0.1196
H48 H 1.1552 0.3508 0.0905
C41 C 1.269(4) 0.186(4) 0.0688(18)
H49 H 1.3615 0.1787 0.0492
H50 H 1.2803 0.1181 0.0916
C42 C 1.166(6) 0.200(4) 0.023(2)
H51 H 1.0989 0.1662 0.0371
H52 H 1.2178 0.1647 -0.0128
H53 H 1.1157 0.2781 0.0148
C43 C 0.590(5) 0.333(4) 0.3283(17)
H54 H 0.5368 0.4069 0.3127
H55 H 0.5208 0.3035 0.3472
C44 C 0.678(5) 0.346(4) 0.3750(17)
H56 H 0.6464 0.4239 0.3845
H57 H 0.7767 0.3214 0.3593
C45 C 0.666(5) 0.278(4) 0.4309(17)
H58 H 0.6916 0.2003 0.4210
H59 H 0.5677 0.3052 0.4480
C46 C 0.762(5) 0.285(4) 0.4760(18)
H60 H 0.8274 0.2117 0.4849
H61 H 0.7044 0.3176 0.5112
H62 H 0.8132 0.3309 0.4603
C47 C 0.654(4) 0.260(4) 0.1766(15)
H63 H 0.5601 0.2580 0.1752
H64 H 0.6476 0.3352 0.1655
C48 C 0.754(4) 0.182(3) 0.1300(15)
H65 H 0.7553 0.1069 0.1387
H66 H 0.8495 0.1795 0.1324
C49 C 0.715(5) 0.214(3) 0.0674(14)
H67 H 0.7554 0.2683 0.0516
H68 H 0.6121 0.2499 0.0679
C50 C 0.767(6) 0.114(4) 0.0273(17)
H69 H 0.7837 0.0467 0.0507
H70 H 0.8545 0.1100 0.0051
H71 H 0.6972 0.1214 0.0010
C51 C 0.910(4) 0.111(3) 0.277(2)
H72 H 0.9712 0.0887 0.2407
H73 H 0.9545 0.1440 0.3017
C52 C 0.887(3) 0.010(3) 0.308(2)
H74 H 0.8444 0.0309 0.3477
H75 H 0.8207 -0.0083 0.2878
C53 C 1.022(4) -0.093(3) 0.312(2)
H76 H 1.0982 -0.0716 0.3213
H77 H 1.0498 -0.1279 0.2735
C54 C 1.001(5) -0.178(3) 0.358(2)
H78 H 0.9068 -0.1487 0.3772
H79 H 1.0692 -0.1934 0.3861
H80 H 1.0147 -0.2464 0.3389
Sn2_2 Sn 1.7010(2) 0.23186(17) 0.25804(11)
O3_2 O 0.591(3) 0.118(2) 0.2710(15)
loop_
_geom_bond_atom_site_label_1
_geom_bond_atom_site_label_2
_geom_bond_site_symmetry_1
_geom_bond_site_symmetry_2
Sn1 O1 1_555 1_555
Sn2 O2 1_555 1_555
O1 C1 1_555 1_555
O2 C1 1_555 1_555
O3 C16 1_555 1_555
O4 Sn1 1_555 1_555
C1 C2 1_555 1_555
C2 H1 1_555 1_555
C3 C2 1_555 1_555
H2 C3 1_555 1_555
H3 C3 1_555 1_555
C4 C3 1_555 1_555
C5 C4 1_555 1_555
H4 C5 1_555 1_555
C6 C5 1_555 1_555
H5 C6 1_555 1_555
C7 C6 1_555 1_555
H6 C7 1_555 1_555
C8 C7 1_555 1_555
H7 C8 1_555 1_555
C9 C4 1_555 1_555
H8 C9 1_555 1_555
C10 C2 1_555 1_555
C11 C10 1_555 1_555
H9 C11 1_555 1_555
C12 C11 1_555 1_555
H10 C12 1_555 1_555
C13 C12 1_555 1_555
H11 C13 1_555 1_555
C14 C13 1_555 1_555
H12 C14 1_555 1_555
C15 C10 1_555 1_555
H13 C15 1_555 1_555
C16 O4 1_555 1_555
C17 C16 1_555 1_555
H14 C17 1_555 1_555
C18 C17 1_555 1_555
H15 C18 1_555 1_555
H16 C18 1_555 1_555
C19 C18 1_555 1_555
C20 C19 1_555 1_555
H17 C20 1_555 1_555
C21 C20 1_555 1_555
H18 C21 1_555 1_555
C22 C21 1_555 1_555
H19 C22 1_555 1_555
C23 C22 1_555 1_555
H20 C23 1_555 1_555
C24 C19 1_555 1_555
H21 C24 1_555 1_555
C25 C17 1_555 1_555
C26 C25 1_555 1_555
H22 C26 1_555 1_555
C27 C26 1_555 1_555
H23 C27 1_555 1_555
C28 C27 1_555 1_555
H24 C28 1_555 1_555
C29 C28 1_555 1_555
H25 C29 1_555 1_555
C30 C25 1_555 1_555
H26 C30 1_555 1_555
C31 Sn1 1_555 1_555
H27 C31 1_555 1_555
H28 C31 1_555 1_555
C32 C31 1_555 1_555
H29 C32 1_555 1_555
H30 C32 1_555 1_555
C33 C32 1_555 1_555
H31 C33 1_555 1_555
H32 C33 1_555 1_555
C34 C33 1_555 1_555
H33 C34 1_555 1_555
H34 C34 1_555 1_555
H35 C34 1_555 1_555
C35 Sn1 1_555 1_555
H36 C35 1_555 1_555
H37 C35 1_555 1_555
C36 C35 1_555 1_555
H38 C36 1_555 1_555
H39 C36 1_555 1_555
C37 C36 1_555 1_555
H40 C37 1_555 1_555
H41 C37 1_555 1_555
C38 C37 1_555 1_555
H42 C38 1_555 1_555
H43 C38 1_555 1_555
H44 C38 1_555 1_555
C39 Sn1 1_555 1_555
H45 C39 1_555 1_555
H46 C39 1_555 1_555
C40 C39 1_555 1_555
H47 C40 1_555 1_555
H48 C40 1_555 1_555
C41 C40 1_555 1_555
H49 C41 1_555 1_555
H50 C41 1_555 1_555
C42 C41 1_555 1_555
H51 C42 1_555 1_555
H52 C42 1_555 1_555
H53 C42 1_555 1_555
C43 Sn2 1_555 1_555
H54 C43 1_555 1_555
H55 C43 1_555 1_555
C44 C43 1_555 1_555
H56 C44 1_555 1_555
H57 C44 1_555 1_555
C45 C44 1_555 1_555
H58 C45 1_555 1_555
H59 C45 1_555 1_555
C46 C45 1_555 1_555
H60 C46 1_555 1_555
H61 C46 1_555 1_555
H62 C46 1_555 1_555
C47 Sn2 1_555 1_555
H63 C47 1_555 1_555
H64 C47 1_555 1_555
C48 C47 1_555 1_555
H65 C48 1_555 1_555
H66 C48 1_555 1_555
C49 C48 1_555 1_555
H67 C49 1_555 1_555
H68 C49 1_555 1_555
C50 C49 1_555 1_555
H69 C50 1_555 1_555
H70 C50 1_555 1_555
H71 C50 1_555 1_555
C51 Sn2 1_555 1_555
H72 C51 1_555 1_555
H73 C51 1_555 1_555
C52 C51 1_555 1_555
H74 C52 1_555 1_555
H75 C52 1_555 1_555
C53 C52 1_555 1_555
H76 C53 1_555 1_555
H77 C53 1_555 1_555
C54 C53 1_555 1_555
H78 C54 1_555 1_555
H79 C54 1_555 1_555
H80 C54 1_555 1_555
Sn2_2 O3 1_555 1_555
O3_2 Sn2 1_555 1_555
C8 C9 1_555 1_555
C14 C15 1_555 1_555
C23 C24 1_555 1_555
C29 C30 1_555 1_555

#END
