
#######################################################################
#
#                 Cambridge Crystallographic Data Centre
#                                CCDC 
#
#######################################################################
#
# If this CIF has been generated from an entry in the Cambridge 
# Structural Database, then it will include bibliographic, chemical, 
# crystal, experimental, refinement or atomic coordinate data resulting 
# from the CCDC's data processing and validation procedures.
#
#######################################################################

data_KAYNAA
_symmetry_cell_setting           monoclinic
_symmetry_space_group_name_H-M   'P 21/c'
_symmetry_Int_Tables_number      14
_space_group_name_Hall           '-P 2ybc'
loop_
_symmetry_equiv_pos_site_id
_symmetry_equiv_pos_as_xyz
1 x,y,z
2 -x,1/2+y,1/2-z
3 -x,-y,-z
4 x,1/2-y,1/2+z
_cell_length_a                   8.973(2)
_cell_length_b                   13.598(3)
_cell_length_c                   15.883(4)
_cell_angle_alpha                90
_cell_angle_beta                 95.179(4)
_cell_angle_gamma                90
_cell_volume                     1930.05
loop_
_atom_site_label
_atom_site_type_symbol
_atom_site_fract_x
_atom_site_fract_y
_atom_site_fract_z
Cd1 Cd 0.18433(3) 0.447206(15) 0.172188(13)
C1 C 0.0554(4) 0.3018(2) 0.06216(18)
O1 O 0.0730(3) 0.29791(16) 0.14193(13)
N1 N 0.3554(3) 0.54603(18) 0.10753(16)
C2 C -0.0195(4) 0.2193(2) 0.01406(19)
H1 H -0.0220 0.2191 -0.0459
O2 O 0.0971(3) 0.37605(16) 0.02283(13)
N2 N 0.4241(3) 0.37532(19) 0.18801(17)
C3 C -0.0833(4) 0.1455(2) 0.05269(19)
H2 H -0.0696 0.1450 0.1127
O3 O -0.2209(3) 0.05647(16) 0.20281(14)
C4 C -0.1725(4) 0.0647(2) 0.01273(19)
O4 O -0.1638(3) -0.09916(17) 0.18685(15)
C5 C -0.2051(5) 0.0599(3) -0.0756(2)
H3 H -0.1639 0.1080 -0.1101
O5 O -0.0133(3) 0.54479(17) 0.13096(15)
H4 H -0.031(5) 0.559(3) 0.078(3)
H5 H -0.038(6) 0.590(4) 0.156(3)
C6 C -0.2953(5) -0.0127(3) -0.1131(2)
H6 H -0.3153 -0.0145 -0.1729
C7 C -0.3567(5) -0.0833(3) -0.0634(2)
H9 H -0.4218 -0.1322 -0.0888
C8 C -0.3227(5) -0.0821(3) 0.0232(2)
H10 H -0.3622 -0.1318 0.0569
C9 C -0.2314(4) -0.0091(2) 0.0619(2)
C10 C -0.2023(4) -0.0159(2) 0.1570(2)
C11 C 0.3143(4) 0.6281(2) 0.0651(2)
H11 H 0.2113 0.6454 0.0590
C12 C 0.4164(4) 0.6893(2) 0.0296(2)
H12 H 0.3845 0.7473 -0.0001
C13 C 0.5648(4) 0.6630(2) 0.0388(2)
H13 H 0.6375 0.7027 0.0152
C14 C 0.6079(4) 0.5782(2) 0.0828(2)
H14 H 0.7103 0.5595 0.0897
C15 C 0.5001(4) 0.5210(2) 0.11676(19)
C16 C 0.5387(4) 0.4268(2) 0.16183(19)
C17 C 0.6848(4) 0.3912(3) 0.1739(2)
H15 H 0.7657 0.4288 0.1565
C18 C 0.7102(4) 0.3003(3) 0.2116(2)
H16 H 0.8089 0.2747 0.2200
C19 C 0.5907(4) 0.2471(3) 0.2370(2)
H17 H 0.6055 0.1839 0.2617
C20 C 0.4500(4) 0.2879(2) 0.2255(2)
H18 H 0.3682 0.2528 0.2450
Cd1A Cd -0.18433(3) -0.052794(15) 0.327812(13)
O3A O 0.2209(3) 0.55647(16) 0.29719(14)
O4A O 0.1638(3) 0.40084(17) 0.31315(15)
O6 O -0.0957(4) 0.7055(2) 0.20708(18)
H7 H -0.118(5) 0.759(4) 0.183(3)
H8 H -0.078(5) 0.717(4) 0.257(3)
loop_
_geom_bond_atom_site_label_1
_geom_bond_atom_site_label_2
_geom_bond_site_symmetry_1
_geom_bond_site_symmetry_2
Cd1 O1 1_555 1_555
C1 O1 1_555 1_555
N1 Cd1 1_555 1_555
C2 C1 1_555 1_555
H1 C2 1_555 1_555
O2 Cd1 1_555 1_555
N2 Cd1 1_555 1_555
C3 C2 1_555 1_555
H2 C3 1_555 1_555
O3 C10 1_555 1_555
C4 C3 1_555 1_555
O4 C10 1_555 1_555
C5 C4 1_555 1_555
H3 C5 1_555 1_555
O5 Cd1 1_555 1_555
H4 O5 1_555 1_555
H5 O5 1_555 1_555
C6 C5 1_555 1_555
H6 C6 1_555 1_555
O6 H7 1_555 1_555
H8 O6 1_555 1_555
C7 C6 1_555 1_555
H9 C7 1_555 1_555
C8 C7 1_555 1_555
H10 C8 1_555 1_555
C9 C4 1_555 1_555
C10 C9 1_555 1_555
C11 N1 1_555 1_555
H11 C11 1_555 1_555
C12 C11 1_555 1_555
H12 C12 1_555 1_555
C13 C12 1_555 1_555
H13 C13 1_555 1_555
C14 C13 1_555 1_555
H14 C14 1_555 1_555
C15 N1 1_555 1_555
C16 N2 1_555 1_555
C17 C16 1_555 1_555
H15 C17 1_555 1_555
C18 C17 1_555 1_555
H16 C18 1_555 1_555
C19 C18 1_555 1_555
H17 C19 1_555 1_555
C20 N2 1_555 1_555
H18 C20 1_555 1_555
Cd1A O3 1_555 1_555
O3A Cd1 1_555 1_555
O4A Cd1 1_555 1_555
C1 O2 1_555 1_555
O4 Cd1A 1_555 1_555
C8 C9 1_555 1_555
C14 C15 1_555 1_555
C15 C16 1_555 1_555
C19 C20 1_555 1_555

#END
