
#######################################################################
#
#                 Cambridge Crystallographic Data Centre
#                                CCDC 
#
#######################################################################
#
# If this CIF has been generated from an entry in the Cambridge 
# Structural Database, then it will include bibliographic, chemical, 
# crystal, experimental, refinement or atomic coordinate data resulting 
# from the CCDC's data processing and validation procedures.
#
#######################################################################

data_KAYNEE
_symmetry_cell_setting           monoclinic
_symmetry_space_group_name_H-M   'C 2/c'
_symmetry_Int_Tables_number      15
_space_group_name_Hall           '-C 2yn'
loop_
_symmetry_equiv_pos_site_id
_symmetry_equiv_pos_as_xyz
1 x,y,z
2 1/2+x,1/2+y,z
3 -x,y,1/2-z
4 1/2-x,1/2+y,1/2-z
5 -x,-y,-z
6 1/2-x,1/2-y,-z
7 x,-y,1/2+z
8 1/2+x,1/2-y,1/2+z
_cell_length_a                   22.723(5)
_cell_length_b                   13.317(3)
_cell_length_c                   14.967(3)
_cell_angle_alpha                90
_cell_angle_beta                 117.354(2)
_cell_angle_gamma                90
_cell_volume                     4022.63
loop_
_atom_site_label
_atom_site_type_symbol
_atom_site_fract_x
_atom_site_fract_y
_atom_site_fract_z
Cd1 Cd 0.139911(9) 0.223953(14) 0.079644(15)
C1 C 0.08892(14) 0.4545(2) -0.0026(2)
H1 H 0.1299 0.4724 0.0529
O1 O 0.18764(12) 0.06394(17) 0.09566(16)
N1 N 0.07365(10) 0.35776(16) -0.01927(16)
C2 C 0.04770(16) 0.5315(2) -0.0627(3)
H2 H 0.0608 0.5998 -0.0484
O2 O 0.19760(11) 0.15307(15) -0.02044(16)
N2 N 0.04198(12) 0.15996(18) -0.05481(19)
C3 C -0.01136(16) 0.5068(3) -0.1420(3)
H3 H -0.0402 0.5579 -0.1833
O3 O 0.37164(14) -0.31401(18) 0.28130(18)
C4 C -0.02930(13) 0.4060(3) -0.1622(2)
O4 O 0.35373(11) -0.15122(17) 0.27425(15)
C5 C -0.08943(15) 0.3752(3) -0.2461(2)
H4 H -0.1196 0.4245 -0.2883
O5 O 0.23638(11) 0.3092(2) 0.1319(2)
H5 H 0.250(2) 0.320(3) 0.091(3)
H6 H 0.248(2) 0.360(4) 0.170(4)
C6 C -0.10377(16) 0.2781(3) -0.2660(2)
H7 H -0.1435 0.2595 -0.3235
C7 C -0.06048(15) 0.2005(3) -0.2024(2)
C8 C -0.0749(2) 0.0982(3) -0.2193(3)
H8 H -0.1148 0.0767 -0.2748
C9 C -0.0317(2) 0.0297(3) -0.1559(4)
H9 H -0.0409 -0.0400 -0.1666
C10 C 0.0272(2) 0.0635(3) -0.0741(3)
H10 H 0.0577 0.0150 -0.0309
C11 C -0.00120(14) 0.2280(2) -0.1180(2)
C12 C 0.01505(12) 0.3329(2) -0.09874(19)
C13 C 0.21034(13) 0.0757(2) 0.0332(2)
C14 C 0.25316(15) -0.0022(2) 0.0216(2)
H11 H 0.2691 0.0107 -0.0258
C15 C 0.27100(13) -0.0877(2) 0.07159(19)
H12 H 0.2562 -0.1011 0.1204
C16 C 0.31284(13) -0.16398(18) 0.0557(2)
C17 C 0.30860(16) -0.1732(2) -0.0400(2)
H13 H 0.2785 -0.1317 -0.0930
C18 C 0.3471(2) -0.2411(2) -0.0594(3)
H14 H 0.3435 -0.2457 -0.1251
C19 C 0.3908(2) -0.3025(2) 0.0164(3)
H15 H 0.4189 -0.3472 0.0041
C20 C 0.39327(18) -0.2984(2) 0.1102(3)
H16 H 0.4217 -0.3430 0.1614
C21 C 0.35472(14) -0.22976(18) 0.1313(2)
C22 C 0.36044(13) -0.2304(2) 0.2364(2)
Cd1C Cd 0.360089(9) -0.276047(14) 0.420356(15)
O3C O 0.12836(14) 0.18599(18) 0.21870(18)
O4C O 0.14627(11) 0.34878(17) 0.22575(15)
O6 O 0.2438(3) 0.5098(3) 0.7182(2)
loop_
_geom_bond_atom_site_label_1
_geom_bond_atom_site_label_2
_geom_bond_site_symmetry_1
_geom_bond_site_symmetry_2
Cd1 O1 1_555 1_555
C1 H1 1_555 1_555
O1 C13 1_555 1_555
N1 Cd1 1_555 1_555
C2 C1 1_555 1_555
H2 C2 1_555 1_555
O2 Cd1 1_555 1_555
N2 Cd1 1_555 1_555
C3 C2 1_555 1_555
H3 C3 1_555 1_555
O3 C22 1_555 1_555
C4 C3 1_555 1_555
O4 C22 1_555 1_555
C5 C4 1_555 1_555
H4 C5 1_555 1_555
O5 Cd1 1_555 1_555
H5 O5 1_555 1_555
H6 O5 1_555 1_555
C6 C5 1_555 1_555
H7 C6 1_555 1_555
C7 C6 1_555 1_555
C8 C7 1_555 1_555
H8 C8 1_555 1_555
C9 C8 1_555 1_555
H9 C9 1_555 1_555
C10 N2 1_555 1_555
H10 C10 1_555 1_555
C11 N2 1_555 1_555
C12 N1 1_555 1_555
C13 O2 1_555 1_555
C14 C13 1_555 1_555
H11 C14 1_555 1_555
C15 C14 1_555 1_555
H12 C15 1_555 1_555
C16 C15 1_555 1_555
C17 C16 1_555 1_555
H13 C17 1_555 1_555
C18 C17 1_555 1_555
H14 C18 1_555 1_555
C19 C18 1_555 1_555
H15 C19 1_555 1_555
C20 C19 1_555 1_555
H16 C20 1_555 1_555
C21 C16 1_555 1_555
C22 C21 1_555 1_555
Cd1C O3 1_555 1_555
O3C Cd1 1_555 1_555
O4C Cd1 1_555 1_555
C1 N1 1_555 1_555
C4 C12 1_555 1_555
O4 Cd1C 1_555 1_555
C7 C11 1_555 1_555
C9 C10 1_555 1_555
C11 C12 1_555 1_555
C20 C21 1_555 1_555

#END
