
#######################################################################
#
#                 Cambridge Crystallographic Data Centre
#                                CCDC 
#
#######################################################################
#
# If this CIF has been generated from an entry in the Cambridge 
# Structural Database, then it will include bibliographic, chemical, 
# crystal, experimental, refinement or atomic coordinate data resulting 
# from the CCDC's data processing and validation procedures.
#
#######################################################################

data_KAYQIM
_symmetry_cell_setting           orthorhombic
_symmetry_space_group_name_H-M   'P b c n'
_symmetry_Int_Tables_number      60
_space_group_name_Hall           '-P 2n 2ab'
loop_
_symmetry_equiv_pos_site_id
_symmetry_equiv_pos_as_xyz
1 x,y,z
2 1/2-x,1/2-y,1/2+z
3 -x,y,1/2-z
4 1/2+x,1/2-y,-z
5 -x,-y,-z
6 1/2+x,1/2+y,1/2-z
7 x,-y,1/2+z
8 1/2-x,1/2+y,z
_cell_length_a                   10.297(2)
_cell_length_b                   11.245(2)
_cell_length_c                   17.882(4)
_cell_angle_alpha                90
_cell_angle_beta                 90
_cell_angle_gamma                90
_cell_volume                     2070.55
loop_
_atom_site_label
_atom_site_type_symbol
_atom_site_fract_x
_atom_site_fract_y
_atom_site_fract_z
Ba1 Ba 0.5000 0.03572(3) -0.2500
N1 N 0.6014(4) -0.1992(3) -0.3179(2)
N2 N 0.7199(4) -0.1026(3) -0.1869(2)
C1 C 0.7628(4) -0.2027(4) -0.2197(3)
C2 C 0.6958(4) -0.2621(4) -0.2832(3)
N3 N 0.8961(4) -0.1676(4) -0.1317(3)
C3 C 0.5393(5) -0.2572(5) -0.3736(3)
H1 H 0.4744 -0.2172 -0.3995
C4 C 0.5677(5) -0.3730(4) -0.3940(3)
H2 H 0.5233 -0.4113 -0.4323
N4 N 0.8060(4) -0.0835(4) -0.1310(2)
C5 C 0.6667(5) -0.4294(5) -0.3538(3)
H3 H 0.6881 -0.5078 -0.3650
N5 N 0.8721(4) -0.2452(4) -0.1868(2)
N6 N 0.73175(18) -0.37206(16) -0.29904(11)
O1 O 0.53465(18) 0.05276(16) -0.40752(11)
H4 H 0.4806 -0.0050 -0.4319
H5 H 0.6240 0.0378 -0.4197
Ba1E Ba 1.0000 -0.46428(3) -0.2500
Ba1E_2 Ba 1.0000 0.53572(3) -0.2500
N1G N 0.8986(4) 0.3008(3) -0.3179(2)
N1B N 0.3986(4) -0.1992(3) -0.1821(2)
N2G N 0.7801(4) 0.3974(3) -0.1869(2)
N2B N 0.2801(4) -0.1026(3) -0.3131(2)
C1G C 0.7372(4) 0.2973(4) -0.2197(3)
C2G C 0.8042(4) 0.2379(4) -0.2832(3)
N3G N 0.6039(4) 0.3324(4) -0.1317(3)
C3G C 0.9607(5) 0.2428(5) -0.3736(3)
H1G H 1.0256 0.2828 -0.3995
C4G C 0.9323(5) 0.1270(4) -0.3940(3)
H2G H 0.9767 0.0887 -0.4323
N4G N 0.6940(4) 0.4165(4) -0.1310(2)
C5G C 0.8333(5) 0.0706(5) -0.3538(3)
H3G H 0.8119 -0.0078 -0.3650
N5G N 0.6279(4) 0.2548(4) -0.1868(2)
N5E N 0.3721(4) 0.2548(4) -0.3132(2)
N6G N 0.76825(18) 0.12794(16) -0.29904(11)
N6E N 0.23175(18) 0.12794(16) -0.20096(11)
O1B O 0.46535(18) 0.05276(16) -0.09248(11)
H4B H 0.5194 -0.0050 -0.0681
H5B H 0.3760 0.0378 -0.0803
O2 O 0.70043(18) 0.05822(16) -0.01471(11)
H6 H 0.7235 0.1255 -0.0450
H7 H 0.7368 -0.0126 -0.0361
O3 O 0.62378(18) 0.70900(16) 0.04901(11)
H8 H 0.7074 0.6811 0.0649
H9 H 0.5903 0.7641 0.0852
loop_
_geom_bond_atom_site_label_1
_geom_bond_atom_site_label_2
_geom_bond_site_symmetry_1
_geom_bond_site_symmetry_2
Ba1 N1 1_555 1_555
N1 C2 1_555 1_555
N2 Ba1 1_555 1_555
C1 N2 1_555 1_555
C2 C1 1_555 1_555
N3 N4 1_555 1_555
C3 N1 1_555 1_555
H1 C3 1_555 1_555
C4 C3 1_555 1_555
H2 C4 1_555 1_555
N4 N2 1_555 1_555
C5 C4 1_555 1_555
H3 C5 1_555 1_555
N5 C1 1_555 1_555
N6 C2 1_555 1_555
O1 Ba1 1_555 1_555
H4 O1 1_555 1_555
H5 O1 1_555 1_555
O2 H6 1_555 1_555
H7 O2 1_555 1_555
O3 H8 1_555 1_555
H9 O3 1_555 1_555
Ba1E N5 1_555 1_555
Ba1E_2 N1G 1_555 1_555
N1G C2G 1_555 1_555
N1B Ba1 1_555 1_555
N2G Ba1E_2 1_555 1_555
N2B Ba1 1_555 1_555
C1G N2G 1_555 1_555
C2G C1G 1_555 1_555
N3G N4G 1_555 1_555
C3G N1G 1_555 1_555
H1G C3G 1_555 1_555
C4G C3G 1_555 1_555
H2G C4G 1_555 1_555
N4G N2G 1_555 1_555
C5G C4G 1_555 1_555
H3G C5G 1_555 1_555
N5G Ba1 1_555 1_555
N5E Ba1 1_555 1_555
N6G Ba1 1_555 1_555
N6E Ba1 1_555 1_555
O1B Ba1 1_555 1_555
H4B O1B 1_555 1_555
H5B O1B 1_555 1_555
N3 N5 1_555 1_555
C5 N6 1_555 1_555
N6 Ba1E 1_555 1_555
C1G N5G 1_555 1_555
C2G N6G 1_555 1_555
N3G N5G 1_555 1_555
C5G N6G 1_555 1_555

#END
