
#######################################################################
#
#                 Cambridge Crystallographic Data Centre
#                                CCDC 
#
#######################################################################
#
# If this CIF has been generated from an entry in the Cambridge 
# Structural Database, then it will include bibliographic, chemical, 
# crystal, experimental, refinement or atomic coordinate data resulting 
# from the CCDC's data processing and validation procedures.
#
#######################################################################

data_KAYQEI
_symmetry_cell_setting           monoclinic
_symmetry_space_group_name_H-M   'C 2/c'
_symmetry_Int_Tables_number      15
_space_group_name_Hall           '-C 2yn'
loop_
_symmetry_equiv_pos_site_id
_symmetry_equiv_pos_as_xyz
1 x,y,z
2 -x,y,1/2-z
3 1/2+x,1/2+y,z
4 1/2-x,1/2+y,1/2-z
5 -x,-y,-z
6 x,-y,1/2+z
7 1/2-x,1/2-y,-z
8 1/2+x,1/2-y,1/2+z
_cell_length_a                   23.2903(16)
_cell_length_b                   15.0873(16)
_cell_length_c                   14.0655(12)
_cell_angle_alpha                90
_cell_angle_beta                 117.894(2)
_cell_angle_gamma                90
_cell_volume                     4368.2
loop_
_atom_site_label
_atom_site_type_symbol
_atom_site_fract_x
_atom_site_fract_y
_atom_site_fract_z
Pb1 Pb 0.072222(14) 0.296791(19) 0.41120(2)
O1 O 0.1555(3) 0.3402(4) 0.3627(5)
O2 O 0.0662(3) 0.3434(5) 0.2093(6)
O3 O 0.3282(4) 0.1868(6) 0.4178(6)
O4 O 0.3964(4) 0.2637(7) 0.3890(7)
N1 N -0.0028(3) 0.1389(4) 0.3764(5)
N2 N 0.1224(3) 0.1416(5) 0.4101(5)
N3 N 0.0128(3) -0.1847(4) 0.3781(5)
H1 H -0.0246 -0.2050 0.3656
N4 N 0.1161(4) -0.1860(5) 0.4108(6)
N5 N 0.0677(3) -0.5143(5) 0.4060(5)
C1 C -0.0640(4) 0.1403(6) 0.3604(6)
H2 H -0.0836 0.1946 0.3574
C2 C -0.0999(4) 0.0611(5) 0.3479(6)
H3 H -0.1428 0.0641 0.3351
C3 C -0.0712(4) -0.0195(6) 0.3548(6)
H4 H -0.0939 -0.0720 0.3478
C4 C -0.0057(4) -0.0208(5) 0.3730(5)
C5 C 0.0264(4) 0.0616(4) 0.3836(5)
C6 C 0.0933(4) 0.0629(5) 0.4042(5)
C7 C 0.1284(4) -0.0179(5) 0.4136(6)
C8 C 0.1914(4) -0.0140(5) 0.4287(7)
H5 H 0.2148 -0.0656 0.4356
C9 C 0.2186(4) 0.0669(6) 0.4333(7)
H6 H 0.2604 0.0709 0.4409
C10 C 0.1836(4) 0.1434(6) 0.4266(7)
H7 H 0.2038 0.1980 0.4339
C11 C 0.0944(4) -0.0998(5) 0.4030(6)
C12 C 0.0658(4) -0.2327(5) 0.3967(6)
C13 C 0.0298(4) -0.0982(5) 0.3829(6)
C14 C 0.0643(4) -0.3300(6) 0.3979(6)
C15 C 0.1190(5) -0.3740(6) 0.4094(7)
H8 H 0.1549 -0.3436 0.4138
C16 C 0.1180(5) -0.4680(6) 0.4142(7)
H9 H 0.1549 -0.4988 0.4236
C17 C 0.0150(5) -0.4699(7) 0.3919(8)
H10 H -0.0211 -0.5017 0.3845
C18 C 0.0117(5) -0.3793(5) 0.3877(7)
H11 H -0.0261 -0.3508 0.3780
C19 C 0.1253(4) 0.3568(5) 0.2642(6)
C20 C 0.1622(5) 0.4037(7) 0.2121(8)
H12 H 0.1371 0.3999 0.1344
H13 H 0.1675 0.4659 0.2319
C21 C 0.2291(5) 0.3618(6) 0.2479(8)
H14 H 0.2521 0.3958 0.2179
H15 H 0.2538 0.3655 0.3257
C22 C 0.2262(5) 0.2668(7) 0.2147(7)
H16 H 0.1965 0.2616 0.1384
H17 H 0.2092 0.2311 0.2532
C23 C 0.2924(5) 0.2315(8) 0.2371(8)
H18 H 0.2866 0.1729 0.2053
H19 H 0.3097 0.2694 0.2009
C24 C 0.3427(4) 0.2249(6) 0.3552(7)
Pb1A Pb -0.072222(14) 0.296791(19) 0.08880(2)
Pb1F Pb 0.427778(14) 0.203209(19) 0.58880(2)
Pb1_2 Pb 0.072222(14) -0.703209(19) 0.41120(2)
O2A O -0.0662(3) 0.3434(5) 0.2907(6)
O3F O 0.1718(4) 0.3132(6) 0.5822(6)
O4F O 0.1036(4) 0.2363(7) 0.6110(7)
N5_2 N 0.0677(3) 0.4857(5) 0.4060(5)
loop_
_geom_bond_atom_site_label_1
_geom_bond_atom_site_label_2
_geom_bond_site_symmetry_1
_geom_bond_site_symmetry_2
Pb1 O1 1_555 1_555
O1 C19 1_555 1_555
O2 Pb1 1_555 1_555
O3 C24 1_555 1_555
O4 C24 1_555 1_555
N1 Pb1 1_555 1_555
N2 Pb1 1_555 1_555
N3 H1 1_555 1_555
N4 C11 1_555 1_555
N5 C16 1_555 1_555
C1 N1 1_555 1_555
H2 C1 1_555 1_555
C2 C1 1_555 1_555
H3 C2 1_555 1_555
C3 C2 1_555 1_555
H4 C3 1_555 1_555
C4 C3 1_555 1_555
C5 N1 1_555 1_555
C6 N2 1_555 1_555
C7 C6 1_555 1_555
C8 C7 1_555 1_555
H5 C8 1_555 1_555
C9 C8 1_555 1_555
H6 C9 1_555 1_555
C10 N2 1_555 1_555
H7 C10 1_555 1_555
C11 C7 1_555 1_555
C12 N3 1_555 1_555
C13 N3 1_555 1_555
C14 C12 1_555 1_555
C15 C14 1_555 1_555
H8 C15 1_555 1_555
C16 C15 1_555 1_555
H9 C16 1_555 1_555
C17 N5 1_555 1_555
H10 C17 1_555 1_555
C18 C14 1_555 1_555
H11 C18 1_555 1_555
C19 O2 1_555 1_555
C20 C19 1_555 1_555
H12 C20 1_555 1_555
H13 C20 1_555 1_555
C21 C20 1_555 1_555
H14 C21 1_555 1_555
H15 C21 1_555 1_555
C22 C21 1_555 1_555
H16 C22 1_555 1_555
H17 C22 1_555 1_555
C23 C22 1_555 1_555
H18 C23 1_555 1_555
H19 C23 1_555 1_555
C24 C23 1_555 1_555
Pb1A O2 1_555 1_555
Pb1F O3 1_555 1_555
Pb1_2 N5 1_555 1_555
O2A Pb1 1_555 1_555
O3F Pb1 1_555 1_555
O4F Pb1 1_555 1_555
N5_2 Pb1 1_555 1_555
O4 Pb1F 1_555 1_555
N4 C12 1_555 1_555
C4 C5 1_555 1_555
C4 C13 1_555 1_555
C5 C6 1_555 1_555
C9 C10 1_555 1_555
C11 C13 1_555 1_555
C17 C18 1_555 1_555
Pb1A O2A 1_555 1_555

#END
