
#######################################################################
#
#                 Cambridge Crystallographic Data Centre
#                                CCDC 
#
#######################################################################
#
# If this CIF has been generated from an entry in the Cambridge 
# Structural Database, then it will include bibliographic, chemical, 
# crystal, experimental, refinement or atomic coordinate data resulting 
# from the CCDC's data processing and validation procedures.
#
#######################################################################

data_KAYZOB
_symmetry_cell_setting           monoclinic
_symmetry_space_group_name_H-M   'P 2/c'
_symmetry_Int_Tables_number      13
_space_group_name_Hall           '-P 2yc'
loop_
_symmetry_equiv_pos_site_id
_symmetry_equiv_pos_as_xyz
1 x,y,z
2 -x,y,1/2-z
3 -x,-y,-z
4 x,-y,1/2+z
_cell_length_a                   12.294(2)
_cell_length_b                   11.071(2)
_cell_length_c                   16.729(3)
_cell_angle_alpha                90
_cell_angle_beta                 91.09(3)
_cell_angle_gamma                90
_cell_volume                     2276.52
loop_
_atom_site_label
_atom_site_type_symbol
_atom_site_fract_x
_atom_site_fract_y
_atom_site_fract_z
Cu1 Cu 0.37231(4) -0.06040(5) 0.28641(3)
Cu2 Cu 0.0000 -0.01345(7) 0.2500
O1 O 0.3080(2) -0.0610(3) 0.39460(18)
C1 C 0.2063(4) -0.0458(4) 0.3819(3)
H1 H 0.1591 -0.0451 0.4262
O2 O 0.1671(3) -0.0319(3) 0.3142(2)
O3 O -0.0791(3) -0.0132(3) 0.3541(2)
H2 H -0.065(5) 0.031(6) 0.389(4)
H3 H -0.135(5) -0.030(6) 0.347(4)
O4 O 0.5591(2) -0.0611(3) 0.32039(18)
C2 C 0.6142(4) -0.0744(4) 0.3847(3)
H4 H 0.5750 -0.0755 0.4331
O5 O 0.7141(3) -0.0859(3) 0.3902(2)
N1 N 0.3689(3) 0.1208(3) 0.2864(2)
C3 C 0.3929(4) 0.1815(4) 0.3535(3)
H5 H 0.4130 0.1371 0.4001
C4 C 0.3900(4) 0.3053(4) 0.3581(3)
H6 H 0.4078 0.3450 0.4070
C5 C 0.3606(3) 0.3723(4) 0.2906(3)
C6 C 0.3350(4) 0.3080(4) 0.2221(3)
H7 H 0.3140 0.3499 0.1747
C7 C 0.3396(4) 0.1839(4) 0.2217(3)
H8 H 0.3214 0.1419 0.1738
N2 N 0.3632(3) 0.7569(3) 0.2878(2)
C8 C 0.4258(4) 0.6953(4) 0.3394(3)
H9 H 0.4718 0.7390 0.3754
C9 C 0.4266(4) 0.5716(4) 0.3427(3)
H10 H 0.4729 0.5309 0.3800
C10 C 0.3593(4) 0.5063(4) 0.2912(3)
C11 C 0.2916(4) 0.5713(4) 0.2395(3)
H11 H 0.2422 0.5302 0.2046
C12 C 0.2964(4) 0.6952(4) 0.2391(3)
H12 H 0.2506 0.7386 0.2029
N3 N 0.0000 0.1683(5) 0.2500
C13 C 0.0649(4) 0.2307(4) 0.3002(3)
H13 H 0.1121 0.1874 0.3355
C14 C 0.0663(4) 0.3544(4) 0.3028(3)
H14 H 0.1121 0.3954 0.3403
C15 C 0.0000 0.4191(6) 0.2500
N4 N 0.0000 0.8047(5) 0.2500
C16 C 0.0107(4) 0.7423(4) 0.3184(3)
H15 H 0.0181 0.7856 0.3672
C17 C 0.0115(4) 0.6177(4) 0.3207(3)
H16 H 0.0199 0.5766 0.3703
C18 C 0.0000 0.5525(6) 0.2500
Cu1A Cu -0.37231(4) -0.06040(5) 0.21359(3)
Cu1A_2 Cu 0.62769(4) -0.06040(5) 0.21359(3)
Cu1_2 Cu 0.37231(4) 0.93960(5) 0.28641(3)
Cu1_3 Cu 0.37231(4) -1.06040(5) 0.28641(3)
Cu2_2 Cu 0.0000 0.98655(7) 0.2500
O1A O -0.3080(2) -0.0610(3) 0.10540(18)
C1A C -0.2063(4) -0.0458(4) 0.1181(3)
H1A H -0.1591 -0.0451 0.0738
O2A O -0.1671(3) -0.0319(3) 0.1858(2)
O3A O 0.0791(3) -0.0132(3) 0.1459(2)
H2A H 0.065(5) 0.031(6) 0.111(4)
H3A H 0.135(5) -0.030(6) 0.153(4)
O4A O 0.4409(2) -0.0611(3) 0.17961(18)
O4A_2 O -0.5591(2) -0.0611(3) 0.17961(18)
O4_2 O -0.4409(2) -0.0611(3) 0.32039(18)
C2A C 0.3858(4) -0.0744(4) 0.1153(3)
H4A H 0.4250 -0.0755 0.0669
O5A O 0.2859(3) -0.0859(3) 0.1098(2)
N1_2 N 0.3689(3) -0.8792(3) 0.2864(2)
N1A N -0.3689(3) 0.1208(3) 0.2136(2)
C3_2 C 0.3929(4) -0.8185(4) 0.3535(3)
H5_2 H 0.4130 -0.8629 0.4001
C4_2 C 0.3900(4) -0.6947(4) 0.3581(3)
H6_2 H 0.4078 -0.6550 0.4070
C5_2 C 0.3606(3) -0.6277(4) 0.2906(3)
C6_2 C 0.3350(4) -0.6920(4) 0.2221(3)
H7_2 H 0.3140 -0.6501 0.1747
C7_2 C 0.3396(4) -0.8161(4) 0.2217(3)
H8_2 H 0.3214 -0.8581 0.1738
N2_2 N 0.3632(3) -0.2431(3) 0.2878(2)
N2A N -0.3632(3) -0.2431(3) 0.2122(2)
C8_2 C 0.4258(4) -0.3047(4) 0.3394(3)
H9_2 H 0.4718 -0.2610 0.3754
C9_2 C 0.4266(4) -0.4284(4) 0.3427(3)
H10_2 H 0.4729 -0.4691 0.3800
C10_2 C 0.3593(4) -0.4937(4) 0.2912(3)
C11_2 C 0.2916(4) -0.4287(4) 0.2395(3)
H11_2 H 0.2422 -0.4698 0.2046
C12_2 C 0.2964(4) -0.3048(4) 0.2391(3)
H12_2 H 0.2506 -0.2614 0.2029
C13A C -0.0649(4) 0.2307(4) 0.1998(3)
H13A H -0.1121 0.1874 0.1645
C14A C -0.0663(4) 0.3544(4) 0.1972(3)
H14A H -0.1121 0.3954 0.1597
N4_2 N 0.0000 -0.1953(5) 0.2500
C16A C -0.0107(4) 0.7423(4) 0.1816(3)
H15A H -0.0181 0.7856 0.1328
C17A C -0.0115(4) 0.6177(4) 0.1793(3)
H16A H -0.0199 0.5766 0.1297
O6 O 0.4102(4) 0.1749(4) 0.0253(2)
H17 H 0.392(6) 0.248(3) 0.022(4)
H18 H 0.375(5) 0.148(6) -0.014(3)
O7 O 0.1662(4) 0.2046(4) 0.4879(3)
H19 H 0.205(5) 0.179(6) 0.526(3)
H20 H 0.184(6) 0.216(7) 0.4407(18)
O8 O 0.0508(3) 0.1540(4) 0.0330(2)
H21 H -0.010(3) 0.187(6) 0.033(4)
H22 H 0.077(5) 0.224(3) 0.032(4)
Cl1 Cl 0.22634(11) 0.44219(14) 0.01143(8)
O9 O 0.3387(4) 0.4392(4) 0.0350(3)
O10 O 0.2047(4) 0.3364(4) -0.0385(3)
O11 O 0.2044(5) 0.5420(5) -0.0378(3)
O12 O 0.1593(4) 0.4312(6) 0.0775(3)
loop_
_geom_bond_atom_site_label_1
_geom_bond_atom_site_label_2
_geom_bond_site_symmetry_1
_geom_bond_site_symmetry_2
Cu1 O1 1_555 1_555
Cu2 O2 1_555 1_555
O1 C1 1_555 1_555
C1 H1 1_555 1_555
O2 C1 1_555 1_555
O3 Cu2 1_555 1_555
H2 O3 1_555 1_555
H3 O3 1_555 1_555
O4 Cu1 1_555 1_555
C2 O4 1_555 1_555
H4 C2 1_555 1_555
O5 C2 1_555 1_555
N1 Cu1 1_555 1_555
C3 N1 1_555 1_555
H5 C3 1_555 1_555
C4 C3 1_555 1_555
H6 C4 1_555 1_555
C5 C4 1_555 1_555
C6 C5 1_555 1_555
H7 C6 1_555 1_555
C7 N1 1_555 1_555
H8 C7 1_555 1_555
N2 C8 1_555 1_555
C8 H9 1_555 1_555
C9 C8 1_555 1_555
H10 C9 1_555 1_555
C10 C5 1_555 1_555
C11 C10 1_555 1_555
H11 C11 1_555 1_555
C12 N2 1_555 1_555
H12 C12 1_555 1_555
N3 Cu2 1_555 1_555
C13 N3 1_555 1_555
H13 C13 1_555 1_555
C14 C13 1_555 1_555
H14 C14 1_555 1_555
C15 C14 1_555 1_555
N4 C16 1_555 1_555
C16 H15 1_555 1_555
C17 C16 1_555 1_555
H16 C17 1_555 1_555
C18 C15 1_555 1_555
O6 H17 1_555 1_555
H18 O6 1_555 1_555
O7 H19 1_555 1_555
H20 O7 1_555 1_555
O8 H21 1_555 1_555
H22 O8 1_555 1_555
Cl1 O9 1_555 1_555
O10 Cl1 1_555 1_555
O11 Cl1 1_555 1_555
O12 Cl1 1_555 1_555
Cu1A O1A 1_555 1_555
Cu1A_2 O4 1_555 1_555
Cu1_2 N2 1_555 1_555
Cu1_3 N1_2 1_555 1_555
Cu2_2 N4 1_555 1_555
O1A C1A 1_555 1_555
C1A H1A 1_555 1_555
O2A Cu2 1_555 1_555
O3A Cu2 1_555 1_555
H2A O3A 1_555 1_555
H3A O3A 1_555 1_555
O4A Cu1 1_555 1_555
O4A_2 Cu1A 1_555 1_555
O4_2 Cu1A 1_555 1_555
C2A O4A 1_555 1_555
H4A C2A 1_555 1_555
O5A C2A 1_555 1_555
N1_2 C3_2 1_555 1_555
N1A Cu1A 1_555 1_555
C3_2 H5_2 1_555 1_555
C4_2 C3_2 1_555 1_555
H6_2 C4_2 1_555 1_555
C5_2 C4_2 1_555 1_555
C6_2 C5_2 1_555 1_555
H7_2 C6_2 1_555 1_555
C7_2 N1_2 1_555 1_555
H8_2 C7_2 1_555 1_555
N2_2 Cu1 1_555 1_555
N2A Cu1A 1_555 1_555
C8_2 N2_2 1_555 1_555
H9_2 C8_2 1_555 1_555
C9_2 C8_2 1_555 1_555
H10_2 C9_2 1_555 1_555
C10_2 C5_2 1_555 1_555
C11_2 C10_2 1_555 1_555
H11_2 C11_2 1_555 1_555
C12_2 N2_2 1_555 1_555
H12_2 C12_2 1_555 1_555
C13A N3 1_555 1_555
H13A C13A 1_555 1_555
C14A C15 1_555 1_555
H14A C14A 1_555 1_555
N4_2 Cu2 1_555 1_555
C16A N4 1_555 1_555
H15A C16A 1_555 1_555
C17A C18 1_555 1_555
H16A C17A 1_555 1_555
C6 C7 1_555 1_555
C9 C10 1_555 1_555
C11 C12 1_555 1_555
C17 C18 1_555 1_555
Cu1A_2 O4A 1_555 1_555
C1A O2A 1_555 1_555
C6_2 C7_2 1_555 1_555
C9_2 C10_2 1_555 1_555
C11_2 C12_2 1_555 1_555
C13A C14A 1_555 1_555
C16A C17A 1_555 1_555

#END
