
#######################################################################
#
#                 Cambridge Crystallographic Data Centre
#                                CCDC 
#
#######################################################################
#
# If this CIF has been generated from an entry in the Cambridge 
# Structural Database, then it will include bibliographic, chemical, 
# crystal, experimental, refinement or atomic coordinate data resulting 
# from the CCDC's data processing and validation procedures.
#
#######################################################################

data_KAZHOJ
_symmetry_cell_setting           monoclinic
_symmetry_space_group_name_H-M   'I 2/a'
_symmetry_Int_Tables_number      15
_space_group_name_Hall           '-I 2ya'
loop_
_symmetry_equiv_pos_site_id
_symmetry_equiv_pos_as_xyz
1 x,y,z
2 1/2+x,1/2+y,1/2+z
3 1/2-x,y,-z
4 -x,1/2+y,1/2-z
5 -x,-y,-z
6 1/2-x,1/2-y,1/2-z
7 1/2+x,-y,z
8 x,1/2-y,1/2+z
_cell_length_a                   17.648(3)
_cell_length_b                   8.9779(16)
_cell_length_c                   29.053(6)
_cell_angle_alpha                90
_cell_angle_beta                 105.468(3)
_cell_angle_gamma                90
_cell_volume                     4436.48
loop_
_atom_site_label
_atom_site_type_symbol
_atom_site_fract_x
_atom_site_fract_y
_atom_site_fract_z
Ru1 Ru 0.01986(3) 0.40696(5) 0.136515(15)
K1 K 0.18418(8) -0.10425(17) 0.23485(6)
K2 K -0.04469(9) 0.07373(17) 0.21915(6)
C1 C 0.0662(4) 0.2188(8) 0.1659(2)
N1 N 0.0944(3) 0.1085(7) 0.1824(2)
C2 C 0.1062(3) 0.5254(7) 0.1830(2)
N2 N 0.1526(3) 0.5928(6) 0.21067(18)
C3 C -0.0715(4) 0.2901(7) 0.0925(2)
N3 N -0.1235(3) 0.2277(7) 0.0678(2)
C4 C -0.0387(3) 0.4085(6) 0.1858(2)
N4 N -0.0698(3) 0.3941(6) 0.21588(19)
N5 N 0.0799(3) 0.3967(6) 0.08300(16)
C5 C 0.0797(3) 0.5196(8) 0.0569(2)
C6 C 0.1164(4) 0.5247(9) 0.0201(2)
H1 H 0.1166 0.6120 0.0029
C7 C 0.1526(4) 0.3970(10) 0.0096(2)
H2 H 0.1766 0.3972 -0.0153
C8 C 0.1530(4) 0.2701(10) 0.0361(2)
H3 H 0.1775 0.1837 0.0298
C9 C 0.1161(3) 0.2743(9) 0.0724(2)
H4 H 0.1161 0.1886 0.0904
N6 N -0.0100(3) 0.6200(6) 0.09936(15)
C10 C -0.0531(3) 0.7332(7) 0.1096(2)
C11 C -0.0499(4) 0.8754(8) 0.0923(2)
H5 H -0.0792 0.9519 0.1007
C12 C -0.0025(4) 0.9026(9) 0.0622(2)
H6 H 0.0004 0.9978 0.0502
C13 C 0.0400(4) 0.7893(8) 0.0503(2)
H7 H 0.0716 0.8062 0.0298
C14 C 0.0353(3) 0.6486(7) 0.06898(19)
N7 N -0.1075(3) 0.7973(6) 0.1746(2)
C15 C -0.1103(3) 0.7030(7) 0.1374(2)
C16 C -0.1681(3) 0.5953(7) 0.1236(2)
H8 H -0.1679 0.5312 0.0985
C17 C -0.2257(4) 0.5837(8) 0.1473(2)
H9 H -0.2655 0.5132 0.1380
C18 C -0.2235(4) 0.6779(8) 0.1849(3)
H10 H -0.2620 0.6738 0.2014
C19 C -0.1631(5) 0.7779(9) 0.1974(3)
H11 H -0.1605 0.8374 0.2240
C20 C 0.2585(6) -0.3802(14) 0.3713(3)
H12 H 0.2330 -0.4443 0.3890
H13 H 0.2828 -0.2986 0.3912
H14 H 0.2979 -0.4354 0.3613
O2 O 0.2040(4) -0.3262(8) 0.3319(3)
Ru1_2 Ru 0.01986(3) 1.40696(5) 0.136515(15)
Ru1_3 Ru 0.01986(3) -0.59304(5) 0.136515(15)
Ru1C Ru -0.01986(3) -0.09304(5) 0.363485(15)
K1_2 K 0.18418(8) 0.89575(17) 0.23485(6)
K1E K 0.31582(8) -0.39575(17) 0.26515(6)
K1C K -0.18418(8) 0.39575(17) 0.26515(6)
K1E_2 K 0.31582(8) 0.60425(17) 0.26515(6)
K2C K 0.04469(9) 0.57373(17) 0.28085(6)
K2C_2 K 0.04469(9) -0.42627(17) 0.28085(6)
K2_2 K -0.04469(9) 1.07373(17) 0.21915(6)
K2F K 0.45531(9) -0.07373(17) 0.21915(6)
C1_2 C 0.0662(4) 1.2188(8) 0.1659(2)
C1C C -0.0662(4) 0.7188(8) 0.3341(2)
N1_2 N 0.0944(3) 1.1085(7) 0.1824(2)
N1C N -0.0944(3) 0.6085(7) 0.3176(2)
C2_2 C 0.1062(3) -0.4746(7) 0.1830(2)
C2C C -0.1062(3) 0.0254(7) 0.3170(2)
C2_3 C 0.1062(3) 1.5254(7) 0.1830(2)
N2_2 N 0.1526(3) -0.4072(6) 0.21067(18)
N2E N 0.3474(3) -0.0928(6) 0.28933(18)
N2C N -0.1526(3) 0.0928(6) 0.28933(18)
N2E_2 N 0.3474(3) 0.9072(6) 0.28933(18)
C3_2 C -0.0715(4) 1.2901(7) 0.0925(2)
N3_2 N -0.1235(3) 1.2277(7) 0.0678(2)
C4C C 0.0387(3) -0.0915(6) 0.3142(2)
C4C_2 C 0.0387(3) 0.9085(6) 0.3142(2)
C4_2 C -0.0387(3) 1.4085(6) 0.1858(2)
N4C N 0.0698(3) -0.1059(6) 0.28412(19)
N4C_2 N 0.0698(3) 0.8941(6) 0.28412(19)
N5_2 N 0.0799(3) -0.6033(6) 0.08300(16)
N5_3 N 0.0799(3) 1.3967(6) 0.08300(16)
C5_2 C 0.0797(3) -0.4804(8) 0.0569(2)
C6_2 C 0.1164(4) -0.4753(9) 0.0201(2)
H1_2 H 0.1166 -0.3880 0.0029
C7_2 C 0.1526(4) -0.6030(10) 0.0096(2)
H2_2 H 0.1766 -0.6028 -0.0153
C8_2 C 0.1530(4) -0.7299(10) 0.0361(2)
H3_2 H 0.1775 -0.8163 0.0298
C9_2 C 0.1161(3) -0.7257(9) 0.0724(2)
H4_2 H 0.1161 -0.8114 0.0904
N6_2 N -0.0100(3) -0.3800(6) 0.09936(15)
N6_3 N -0.0100(3) 1.6200(6) 0.09936(15)
C10_2 C -0.0531(3) -0.2668(7) 0.1096(2)
C11_2 C -0.0499(4) -0.1246(8) 0.0923(2)
H5_2 H -0.0792 -0.0481 0.1007
C12_2 C -0.0025(4) -0.0974(9) 0.0622(2)
H6_2 H 0.0004 -0.0022 0.0502
C13_2 C 0.0400(4) -0.2107(8) 0.0503(2)
H7_2 H 0.0716 -0.1938 0.0298
C14_2 C 0.0353(3) -0.3514(7) 0.06898(19)
N7_2 N -0.1075(3) -0.2027(6) 0.1746(2)
N7C N 0.1075(3) 0.2973(6) 0.3254(2)
C15_2 C -0.1103(3) -0.2970(7) 0.1374(2)
C16_2 C -0.1681(3) -0.4047(7) 0.1236(2)
H8_2 H -0.1679 -0.4688 0.0985
C17_2 C -0.2257(4) -0.4163(8) 0.1473(2)
H9_2 H -0.2655 -0.4868 0.1380
C18_2 C -0.2235(4) -0.3221(8) 0.1849(3)
H10_2 H -0.2620 -0.3262 0.2014
C19_2 C -0.1631(5) -0.2221(9) 0.1974(3)
H11_2 H -0.1605 -0.1626 0.2240
C20E C 0.2415(6) -0.1198(14) 0.1287(3)
H12E H 0.2670 -0.0557 0.1110
H13E H 0.2172 -0.2014 0.1088
H14E H 0.2021 -0.0646 0.1387
O2E O 0.2960(4) -0.1738(8) 0.1681(3)
O2C O -0.2040(4) 0.1738(8) 0.1681(3)
O2_2 O 0.2040(4) 0.6738(8) 0.3319(3)
O2E_2 O 0.2960(4) 0.8262(8) 0.1681(3)
O1 O 0.7500 0.0523(10) 0.0000
loop_
_geom_bond_atom_site_label_1
_geom_bond_atom_site_label_2
_geom_bond_site_symmetry_1
_geom_bond_site_symmetry_2
Ru1 C1 1_555 1_555
K1 N1 1_555 1_555
K2 C1 1_555 1_555
C1 N1 1_555 1_555
N1 K2 1_555 1_555
C2 Ru1 1_555 1_555
N2 C2 1_555 1_555
C3 Ru1 1_555 1_555
N3 C3 1_555 1_555
C4 Ru1 1_555 1_555
N4 K2 1_555 1_555
N5 Ru1 1_555 1_555
C5 N5 1_555 1_555
C6 C5 1_555 1_555
H1 C6 1_555 1_555
C7 C6 1_555 1_555
H2 C7 1_555 1_555
C8 C7 1_555 1_555
H3 C8 1_555 1_555
C9 N5 1_555 1_555
H4 C9 1_555 1_555
N6 Ru1 1_555 1_555
C10 N6 1_555 1_555
C11 C10 1_555 1_555
H5 C11 1_555 1_555
C12 C11 1_555 1_555
H6 C12 1_555 1_555
C13 C12 1_555 1_555
H7 C13 1_555 1_555
C14 C5 1_555 1_555
N7 C15 1_555 1_555
C15 C10 1_555 1_555
C16 C15 1_555 1_555
H8 C16 1_555 1_555
C17 C16 1_555 1_555
H9 C17 1_555 1_555
C18 C17 1_555 1_555
H10 C18 1_555 1_555
C19 N7 1_555 1_555
H11 C19 1_555 1_555
C20 H12 1_555 1_555
H13 C20 1_555 1_555
H14 C20 1_555 1_555
O2 K1 1_555 1_555
Ru1_2 C1_2 1_555 1_555
Ru1_3 C2_2 1_555 1_555
Ru1C C2C 1_555 1_555
K1_2 N2 1_555 1_555
K1E O2 1_555 1_555
K1C N4 1_555 1_555
K1E_2 N2 1_555 1_555
K2C C2 1_555 1_555
K2C_2 O2 1_555 1_555
K2_2 N7 1_555 1_555
K2F N2E 1_555 1_555
C1_2 K2_2 1_555 1_555
C1C K2C 1_555 1_555
N1_2 K1_2 1_555 1_555
N1C K1C 1_555 1_555
C2_2 K2C_2 1_555 1_555
C2C K2 1_555 1_555
C2_3 Ru1_2 1_555 1_555
N2_2 K1 1_555 1_555
N2E K1 1_555 1_555
N2C K2 1_555 1_555
N2E_2 K1_2 1_555 1_555
C3_2 Ru1_2 1_555 1_555
N3_2 C3_2 1_555 1_555
C4C K2 1_555 1_555
C4C_2 K2C 1_555 1_555
C4_2 Ru1_2 1_555 1_555
N4C K1 1_555 1_555
N4C_2 K1_2 1_555 1_555
N5_2 Ru1_3 1_555 1_555
N5_3 Ru1_2 1_555 1_555
C5_2 N5_2 1_555 1_555
C6_2 C5_2 1_555 1_555
H1_2 C6_2 1_555 1_555
C7_2 C6_2 1_555 1_555
H2_2 C7_2 1_555 1_555
C8_2 C7_2 1_555 1_555
H3_2 C8_2 1_555 1_555
C9_2 N5_2 1_555 1_555
H4_2 C9_2 1_555 1_555
N6_2 Ru1_3 1_555 1_555
N6_3 Ru1_2 1_555 1_555
C10_2 N6_2 1_555 1_555
C11_2 C10_2 1_555 1_555
H5_2 C11_2 1_555 1_555
C12_2 C11_2 1_555 1_555
H6_2 C12_2 1_555 1_555
C13_2 C12_2 1_555 1_555
H7_2 C13_2 1_555 1_555
C14_2 C5_2 1_555 1_555
N7_2 K2 1_555 1_555
N7C K2C 1_555 1_555
C15_2 C10_2 1_555 1_555
C16_2 C15_2 1_555 1_555
H8_2 C16_2 1_555 1_555
C17_2 C16_2 1_555 1_555
H9_2 C17_2 1_555 1_555
C18_2 C17_2 1_555 1_555
H10_2 C18_2 1_555 1_555
C19_2 N7_2 1_555 1_555
H11_2 C19_2 1_555 1_555
C20E H12E 1_555 1_555
H13E C20E 1_555 1_555
H14E C20E 1_555 1_555
O2E K1 1_555 1_555
O2C K2 1_555 1_555
O2_2 K1_2 1_555 1_555
O2E_2 K1_2 1_555 1_555
K2 C4 1_555 1_555
K2 N4C 1_555 1_555
N2 K2C 1_555 1_555
C4 N4 1_555 1_555
C4 K2C 1_555 1_555
N4 K2C 1_555 1_555
C8 C9 1_555 1_555
N6 C14 1_555 1_555
C13 C14 1_555 1_555
C18 C19 1_555 1_555
C20 O2 1_555 1_555
Ru1C C4C 1_555 1_555
K1E N2_2 1_555 1_555
K1E N2E 1_555 1_555
K1E O2E 1_555 1_555
K1C N2C 1_555 1_555
K1C O2C 1_555 1_555
K1E_2 N2E_2 1_555 1_555
K1E_2 O2_2 1_555 1_555
K1E_2 O2E_2 1_555 1_555
K2C N1C 1_555 1_555
K2C N4C_2 1_555 1_555
K2C O2_2 1_555 1_555
K2C_2 N2_2 1_555 1_555
K2C_2 C4C 1_555 1_555
K2C_2 N4C 1_555 1_555
K2_2 N1_2 1_555 1_555
K2_2 C4C_2 1_555 1_555
K2_2 C4_2 1_555 1_555
K2_2 N4C_2 1_555 1_555
K2F O2E 1_555 1_555
C1_2 N1_2 1_555 1_555
C1C N1C 1_555 1_555
C2_2 N2_2 1_555 1_555
C2C N2C 1_555 1_555
C4C N4C 1_555 1_555
C4C_2 N4C_2 1_555 1_555
C8_2 C9_2 1_555 1_555
N6_2 C14_2 1_555 1_555
C13_2 C14_2 1_555 1_555
N7_2 C15_2 1_555 1_555
C18_2 C19_2 1_555 1_555
C20E O2E 1_555 1_555

#END
