
#######################################################################
#
#                 Cambridge Crystallographic Data Centre
#                                CCDC 
#
#######################################################################
#
# If this CIF has been generated from an entry in the Cambridge 
# Structural Database, then it will include bibliographic, chemical, 
# crystal, experimental, refinement or atomic coordinate data resulting 
# from the CCDC's data processing and validation procedures.
#
#######################################################################

data_KAZHUQ
_symmetry_cell_setting           triclinic
_symmetry_space_group_name_H-M   'P -1'
_symmetry_Int_Tables_number      2
_space_group_name_Hall           '-P 1'
loop_
_symmetry_equiv_pos_site_id
_symmetry_equiv_pos_as_xyz
1 x,y,z
2 -x,-y,-z
_cell_length_a                   10.2961(4)
_cell_length_b                   10.4707(4)
_cell_length_c                   11.2880(5)
_cell_angle_alpha                66.9530(10)
_cell_angle_beta                 76.822(2)
_cell_angle_gamma                89.860(2)
_cell_volume                     1085.18
loop_
_atom_site_label
_atom_site_type_symbol
_atom_site_fract_x
_atom_site_fract_y
_atom_site_fract_z
Co1 Co 0.5000 0.0000 0.5000
Co2 Co 0.528775(17) -0.025015(17) 0.218593(16)
N1 N 0.61833(11) 0.09377(11) 0.29905(10)
N2 N 0.67182(11) 0.21111(12) 0.23848(11)
N3 N 0.72422(13) 0.32304(13) 0.18093(14)
N4 N 0.58426(11) 0.12663(11) 0.57670(11)
N5 N 0.69375(11) 0.18845(11) 0.54398(11)
N6 N 0.79798(12) 0.24876(13) 0.51418(13)
N7 N 0.59352(12) 0.15156(12) -0.16988(11)
N8 N 0.62886(11) 0.11190(11) -0.07039(11)
N9 N 0.66637(11) 0.07515(12) 0.02774(11)
N10 N 0.65765(11) -0.13504(11) 0.53840(10)
C1 C 0.63365(13) -0.27268(13) 0.61232(13)
H1 H 0.5430 -0.3117 0.6476
C2 C 0.73315(14) -0.36157(14) 0.64042(14)
C3 C 0.86530(14) -0.30265(15) 0.58752(14)
H2 H 0.9367 -0.3596 0.6035
C4 C 0.89245(14) -0.16058(15) 0.51139(14)
H3 H 0.9822 -0.1188 0.4753
C5 C 0.78639(13) -0.08090(14) 0.48907(13)
H4 H 0.8052 0.0164 0.4366
C6 C 0.69858(16) -0.51517(15) 0.72290(16)
H5 H 0.6010 -0.5356 0.7535
H6 H 0.7347 -0.5673 0.6691
H7 H 0.7375 -0.5427 0.7998
N11 N 0.39589(11) 0.13703(11) 0.14973(11)
C7 C 0.26216(14) 0.10757(14) 0.18379(13)
H8 H 0.2260 0.0158 0.2447
C8 C 0.17353(14) 0.20359(15) 0.13506(14)
C9 C 0.22799(15) 0.33745(15) 0.04502(15)
H9 H 0.1713 0.4059 0.0081
C10 C 0.36510(15) 0.36974(14) 0.00992(14)
H10 H 0.4038 0.4608 -0.0508
C11 C 0.44537(14) 0.26783(14) 0.06432(13)
H11 H 0.5395 0.2912 0.0403
C12 C 0.02512(15) 0.16361(18) 0.17858(18)
H12 H 0.0073 0.0630 0.2319
H13 H -0.0112 0.1879 0.1003
H14 H -0.0176 0.2139 0.2320
N12 N 0.65876(11) -0.18883(11) 0.25922(11)
C13 C 0.79235(14) -0.16253(15) 0.21631(14)
H15 H 0.8291 -0.0680 0.1706
C14 C 0.88040(15) -0.26560(16) 0.23475(15)
C15 C 0.82412(16) -0.40353(16) 0.29953(16)
H16 H 0.8802 -0.4776 0.3131
C16 C 0.68645(16) -0.43238(15) 0.34404(15)
H17 H 0.6470 -0.5260 0.3885
C17 C 0.60720(14) -0.32268(14) 0.32284(14)
H18 H 0.5127 -0.3428 0.3545
C18 C 1.02986(16) -0.22772(19) 0.1875(2)
H19 H 1.0488 -0.1299 0.1244
H20 H 1.0709 -0.2876 0.1438
H21 H 1.0670 -0.2410 0.2637
Co2A Co 0.471225(17) 0.025015(17) 0.781407(16)
Co2A_2 Co 0.471225(17) 0.025015(17) -0.218593(16)
N1A N 0.38167(11) -0.09377(11) 0.70095(10)
N2A N 0.32818(11) -0.21111(12) 0.76152(11)
N3A N 0.27578(13) -0.32304(13) 0.81907(14)
N4A N 0.41574(11) -0.12663(11) 0.42330(11)
N5A N 0.30625(11) -0.18845(11) 0.45602(11)
N6A N 0.20202(12) -0.24876(13) 0.48582(13)
N7A N 0.40648(12) -0.15156(12) 0.16988(11)
N7_2 N 0.59352(12) 0.15156(12) 0.83012(11)
N8A N 0.37114(11) -0.11190(11) 0.07039(11)
N9A N 0.33363(11) -0.07515(12) -0.02774(11)
N9A_2 N 0.33363(11) -0.07515(12) 0.97226(11)
N10A N 0.34235(11) 0.13504(11) 0.46160(10)
C1A C 0.36635(13) 0.27268(13) 0.38768(13)
H1A H 0.4570 0.3117 0.3524
C2A C 0.26685(14) 0.36157(14) 0.35958(14)
C3A C 0.13470(14) 0.30265(15) 0.41248(14)
H2A H 0.0633 0.3596 0.3965
C4A C 0.10755(14) 0.16058(15) 0.48861(14)
H3A H 0.0178 0.1188 0.5247
C5A C 0.21361(13) 0.08090(14) 0.51093(13)
H4A H 0.1948 -0.0164 0.5634
C6A C 0.30142(16) 0.51517(15) 0.27710(16)
H5A H 0.3990 0.5356 0.2465
H6A H 0.2653 0.5673 0.3309
H7A H 0.2625 0.5427 0.2002
N11A N 0.60411(11) -0.13703(11) 0.85027(11)
C7A C 0.73784(14) -0.10757(14) 0.81621(13)
H8A H 0.7740 -0.0158 0.7553
C8A C 0.82647(14) -0.20359(15) 0.86494(14)
C9A C 0.77201(15) -0.33745(15) 0.95498(15)
H9A H 0.8287 -0.4059 0.9919
C10A C 0.63490(15) -0.36974(14) 0.99008(14)
H10A H 0.5962 -0.4608 1.0508
C11A C 0.55463(14) -0.26783(14) 0.93568(13)
H11A H 0.4605 -0.2912 0.9597
C12A C 0.97488(15) -0.16361(18) 0.82142(18)
H12A H 0.9927 -0.0630 0.7681
H13A H 1.0112 -0.1879 0.8997
H14A H 1.0176 -0.2139 0.7680
N12A N 0.34124(11) 0.18883(11) 0.74078(11)
C13A C 0.20765(14) 0.16253(15) 0.78369(14)
H15A H 0.1709 0.0680 0.8294
C14A C 0.11960(15) 0.26560(16) 0.76525(15)
C15A C 0.17588(16) 0.40353(16) 0.70047(16)
H16A H 0.1198 0.4776 0.6869
C16A C 0.31355(16) 0.43238(15) 0.65596(15)
H17A H 0.3530 0.5260 0.6115
C17A C 0.39280(14) 0.32268(14) 0.67716(14)
H18A H 0.4873 0.3428 0.6455
C18A C -0.02986(16) 0.22772(19) 0.8125(2)
H19A H -0.0488 0.1299 0.8756
H20A H -0.0709 0.2876 0.8562
H21A H -0.0670 0.2410 0.7363
loop_
_geom_bond_atom_site_label_1
_geom_bond_atom_site_label_2
_geom_bond_site_symmetry_1
_geom_bond_site_symmetry_2
Co1 N1 1_555 1_555
Co2 N1 1_555 1_555
N1 N2 1_555 1_555
N2 N3 1_555 1_555
N4 Co1 1_555 1_555
N5 N4 1_555 1_555
N6 N5 1_555 1_555
N7 N8 1_555 1_555
N8 N9 1_555 1_555
N9 Co2 1_555 1_555
N10 Co1 1_555 1_555
C1 N10 1_555 1_555
H1 C1 1_555 1_555
C2 C1 1_555 1_555
C3 C2 1_555 1_555
H2 C3 1_555 1_555
C4 C3 1_555 1_555
H3 C4 1_555 1_555
C5 N10 1_555 1_555
H4 C5 1_555 1_555
C6 C2 1_555 1_555
H5 C6 1_555 1_555
H6 C6 1_555 1_555
H7 C6 1_555 1_555
N11 Co2 1_555 1_555
C7 N11 1_555 1_555
H8 C7 1_555 1_555
C8 C7 1_555 1_555
C9 C8 1_555 1_555
H9 C9 1_555 1_555
C10 C9 1_555 1_555
H10 C10 1_555 1_555
C11 N11 1_555 1_555
H11 C11 1_555 1_555
C12 C8 1_555 1_555
H12 C12 1_555 1_555
H13 C12 1_555 1_555
H14 C12 1_555 1_555
N12 Co2 1_555 1_555
C13 N12 1_555 1_555
H15 C13 1_555 1_555
C14 C13 1_555 1_555
C15 C14 1_555 1_555
H16 C15 1_555 1_555
C16 C15 1_555 1_555
H17 C16 1_555 1_555
C17 N12 1_555 1_555
H18 C17 1_555 1_555
C18 C14 1_555 1_555
H19 C18 1_555 1_555
H20 C18 1_555 1_555
H21 C18 1_555 1_555
Co2A N4 1_555 1_555
Co2A_2 N7 1_555 1_555
N1A Co1 1_555 1_555
N2A N1A 1_555 1_555
N3A N2A 1_555 1_555
N4A Co1 1_555 1_555
N5A N4A 1_555 1_555
N6A N5A 1_555 1_555
N7A Co2 1_555 1_555
N7_2 Co2A 1_555 1_555
N8A N7A 1_555 1_555
N9A Co2A_2 1_555 1_555
N9A_2 Co2A 1_555 1_555
N10A Co1 1_555 1_555
C1A N10A 1_555 1_555
H1A C1A 1_555 1_555
C2A C1A 1_555 1_555
C3A C2A 1_555 1_555
H2A C3A 1_555 1_555
C4A C3A 1_555 1_555
H3A C4A 1_555 1_555
C5A N10A 1_555 1_555
H4A C5A 1_555 1_555
C6A C2A 1_555 1_555
H5A C6A 1_555 1_555
H6A C6A 1_555 1_555
H7A C6A 1_555 1_555
N11A Co2A 1_555 1_555
C7A N11A 1_555 1_555
H8A C7A 1_555 1_555
C8A C7A 1_555 1_555
C9A C8A 1_555 1_555
H9A C9A 1_555 1_555
C10A C9A 1_555 1_555
H10A C10A 1_555 1_555
C11A N11A 1_555 1_555
H11A C11A 1_555 1_555
C12A C8A 1_555 1_555
H12A C12A 1_555 1_555
H13A C12A 1_555 1_555
H14A C12A 1_555 1_555
N12A Co2A 1_555 1_555
C13A N12A 1_555 1_555
H15A C13A 1_555 1_555
C14A C13A 1_555 1_555
C15A C14A 1_555 1_555
H16A C15A 1_555 1_555
C16A C15A 1_555 1_555
H17A C16A 1_555 1_555
C17A N12A 1_555 1_555
H18A C17A 1_555 1_555
C18A C14A 1_555 1_555
H19A C18A 1_555 1_555
H20A C18A 1_555 1_555
H21A C18A 1_555 1_555
Co2 N4A 1_555 1_555
C4 C5 1_555 1_555
C10 C11 1_555 1_555
C16 C17 1_555 1_555
Co2A N1A 1_555 1_555
N8A N9A 1_555 1_555
C4A C5A 1_555 1_555
C10A C11A 1_555 1_555
C16A C17A 1_555 1_555

#END
