
#######################################################################
#
#                 Cambridge Crystallographic Data Centre
#                                CCDC 
#
#######################################################################
#
# If this CIF has been generated from an entry in the Cambridge 
# Structural Database, then it will include bibliographic, chemical, 
# crystal, experimental, refinement or atomic coordinate data resulting 
# from the CCDC's data processing and validation procedures.
#
#######################################################################

data_KAZJEB
_symmetry_cell_setting           orthorhombic
_symmetry_space_group_name_H-M   'P n a 21'
_symmetry_Int_Tables_number      33
_space_group_name_Hall           'P 2c -2n'
loop_
_symmetry_equiv_pos_site_id
_symmetry_equiv_pos_as_xyz
1 x,y,z
2 -x,-y,1/2+z
3 1/2+x,1/2-y,z
4 1/2-x,1/2+y,1/2+z
_cell_length_a                   24.791(2)
_cell_length_b                   6.5425(6)
_cell_length_c                   12.4486(12)
_cell_angle_alpha                90
_cell_angle_beta                 90
_cell_angle_gamma                90
_cell_volume                     2019.1
loop_
_atom_site_label
_atom_site_type_symbol
_atom_site_fract_x
_atom_site_fract_y
_atom_site_fract_z
Ru1 Ru 0.349565(9) 0.99596(4) 0.38457(2)
Eu1 Eu 0.515691(5) 0.62034(2) 0.598874(16)
N1 N 0.27934(12) 1.1584(4) 0.3393(2)
N2 N 0.18330(13) 1.1386(5) 0.3407(3)
N3 N 0.28699(12) 0.8183(4) 0.4529(2)
N4 N 0.19156(12) 0.7846(5) 0.4614(2)
N5 N 0.33305(13) 0.7281(5) 0.1736(2)
N6 N 0.44154(12) 0.7242(5) 0.4809(2)
N7 N 0.43485(12) 1.2641(5) 0.2624(2)
N8 N 0.36600(11) 1.2518(5) 0.6014(4)
N9 N 0.55908(12) 0.9090(5) 0.4302(2)
O1 O 0.43628(11) 0.5183(4) 0.7012(2)
H1 H 0.4419 0.4552 0.7606
H2 H 0.4121 0.4433 0.6743
O2 O 0.60095(11) 0.4939(4) 0.5427(2)
H3 H 0.6235 0.4276 0.5778
H4 H 0.6189 0.5478 0.4939
O3 O 0.47308(10) 0.9558(4) 0.6665(2)
H5 H 0.4593 0.9612 0.7273
H6 H 0.4487 0.9993 0.6257
O4 O 0.53652(10) 0.3116(4) 0.7013(2)
H7 H 0.5610 0.2942 0.7445
H8 H 0.5210 0.1964 0.6981
O5 O 0.56014(11) 0.9337(4) 0.5304(2)
O6 O 0.54934(11) 0.7349(4) 0.3951(2)
O7 O 0.56668(12) 1.0598(4) 0.3706(2)
O8 O 0.49490(12) 0.3338(4) 0.4848(2)
H9 H 0.5226 0.2714 0.4674
H10 H 0.4756 0.3371 0.4322
C1 C 0.23191(14) 1.0704(5) 0.3667(3)
C2 C 0.18160(16) 1.3096(6) 0.2810(3)
H11 H 0.1475 1.3617 0.2592
C3 C 0.22764(17) 1.4116(6) 0.2505(3)
H12 H 0.2257 1.5343 0.2098
C4 C 0.27658(17) 1.3311(6) 0.2804(3)
H13 H 0.3089 1.3980 0.2593
C5 C 0.23649(17) 0.8795(5) 0.4315(3)
C6 C 0.29235(15) 0.6436(5) 0.5092(3)
H14 H 0.3274 0.5950 0.5263
C7 C 0.24818(16) 0.5349(6) 0.5423(3)
H15 H 0.2521 0.4105 0.5809
C8 C 0.19782(15) 0.6113(5) 0.5179(3)
H16 H 0.1667 0.5395 0.5417
C9 C 0.34067(13) 0.8240(5) 0.2493(3)
C10 C 0.40841(14) 0.8242(5) 0.4402(3)
C11 C 0.40300(14) 1.1694(5) 0.3089(3)
C12 C 0.35847(14) 1.1636(5) 0.5228(3)
Eu1A Eu 0.484309(5) 1.37966(2) 0.098874(16)
N7A N 0.56515(12) 0.7359(5) 0.7624(2)
loop_
_geom_bond_atom_site_label_1
_geom_bond_atom_site_label_2
_geom_bond_site_symmetry_1
_geom_bond_site_symmetry_2
Ru1 N1 1_555 1_555
Eu1 N6 1_555 1_555
N1 C1 1_555 1_555
N2 C1 1_555 1_555
N3 Ru1 1_555 1_555
N4 C5 1_555 1_555
N5 C9 1_555 1_555
N6 C10 1_555 1_555
N7 C11 1_555 1_555
N8 C12 1_555 1_555
N9 O5 1_555 1_555
O1 Eu1 1_555 1_555
H1 O1 1_555 1_555
H2 O1 1_555 1_555
O2 Eu1 1_555 1_555
H3 O2 1_555 1_555
H4 O2 1_555 1_555
O3 Eu1 1_555 1_555
H5 O3 1_555 1_555
H6 O3 1_555 1_555
O4 Eu1 1_555 1_555
H7 O4 1_555 1_555
H8 O4 1_555 1_555
O5 Eu1 1_555 1_555
O6 Eu1 1_555 1_555
O7 N9 1_555 1_555
O8 Eu1 1_555 1_555
H9 O8 1_555 1_555
H10 O8 1_555 1_555
C1 C5 1_555 1_555
C2 N2 1_555 1_555
H11 C2 1_555 1_555
C3 C2 1_555 1_555
H12 C3 1_555 1_555
C4 N1 1_555 1_555
H13 C4 1_555 1_555
C5 N3 1_555 1_555
C6 N3 1_555 1_555
H14 C6 1_555 1_555
C7 C6 1_555 1_555
H15 C7 1_555 1_555
C8 N4 1_555 1_555
H16 C8 1_555 1_555
C9 Ru1 1_555 1_555
C10 Ru1 1_555 1_555
C11 Ru1 1_555 1_555
C12 Ru1 1_555 1_555
Eu1A N7 1_555 1_555
N7A Eu1 1_555 1_555
N9 O6 1_555 1_555
C3 C4 1_555 1_555
C7 C8 1_555 1_555

#END
