
#######################################################################
#
#                 Cambridge Crystallographic Data Centre
#                                CCDC 
#
#######################################################################
#
# If this CIF has been generated from an entry in the Cambridge 
# Structural Database, then it will include bibliographic, chemical, 
# crystal, experimental, refinement or atomic coordinate data resulting 
# from the CCDC's data processing and validation procedures.
#
#######################################################################

data_KAZNOP
_symmetry_cell_setting           triclinic
_symmetry_space_group_name_H-M   'P -1'
_symmetry_Int_Tables_number      2
_space_group_name_Hall           '-P 1'
loop_
_symmetry_equiv_pos_site_id
_symmetry_equiv_pos_as_xyz
1 x,y,z
2 -x,-y,-z
_cell_length_a                   13.854(9)
_cell_length_b                   13.403(4)
_cell_length_c                   13.215(3)
_cell_angle_alpha                68.35(2)
_cell_angle_beta                 86.84(3)
_cell_angle_gamma                63.41(4)
_cell_volume                     2021.55
loop_
_atom_site_label
_atom_site_type_symbol
_atom_site_fract_x
_atom_site_fract_y
_atom_site_fract_z
C42 C 0.50000 0.50000 0.00000
C43 C 0.5354(14) 0.3975(10) 0.0040(8)
C43A C 0.4646(14) 0.6025(10) -0.0040(8)
C44 C 0.32290 0.62743 -0.03596
C45 C 0.35025 0.53301 -0.03173
C46 C 0.38161 0.43671 -0.02644
O3 O 0.5933(16) -0.1549(17) 0.2551(18)
Ag1 Ag 0.19456(4) 0.07394(5) 0.44651(4)
O1 O 0.1398(5) 0.0428(6) 0.6347(4)
O2 O 0.2603(5) 0.0951(6) 0.6548(5)
C1 C 0.1884(6) 0.0664(7) 0.6825(6)
C2 C 0.1658(7) 0.0516(8) 0.7993(6)
F1 F 0.2183(4) 0.0789(5) 0.8535(4)
F2 F 0.1940(8) -0.0617(6) 0.8582(4)
F3 F 0.0676(5) 0.1064(9) 0.8061(6)
C3 C 0.1183(5) -0.1713(6) 0.4960(5)
C4 C 0.0957(5) -0.1761(5) 0.6115(5)
P1 P 0.22742(14) -0.12996(16) 0.45714(14)
C5 C 0.3395(5) -0.2633(6) 0.5547(5)
C6 C 0.3831(6) -0.2521(6) 0.6379(5)
C7 C 0.4660(6) -0.3534(8) 0.7163(6)
C8 C 0.5013(6) -0.4638(7) 0.7099(6)
C9 C 0.4567(7) -0.4750(7) 0.6283(6)
C10 C 0.3764(6) -0.3756(6) 0.5514(6)
C11 C 0.2567(6) -0.1505(6) 0.3285(5)
C12 C 0.3607(7) -0.1762(7) 0.2999(6)
C13 C 0.3841(7) -0.1882(8) 0.1996(7)
C14 C 0.3070(9) -0.1761(8) 0.1314(7)
C15 C 0.2060(9) -0.1502(9) 0.1577(7)
C16 C 0.1817(7) -0.1391(7) 0.2590(6)
P2 P 0.00780(14) 0.22627(16) 0.34117(15)
C17 C -0.0604(5) 0.3828(6) 0.3281(5)
C18 C -0.0074(6) 0.4258(7) 0.3702(7)
C19 C -0.0577(8) 0.5479(8) 0.3545(8)
C20 C -0.1596(8) 0.6215(7) 0.3022(8)
C21 C -0.2121(8) 0.5770(7) 0.2606(8)
C22 C -0.1626(7) 0.4582(7) 0.2745(7)
C23 C 0.0055(5) 0.2451(6) 0.1973(5)
C24 C -0.0150(7) 0.1730(7) 0.1603(6)
C25 C -0.0065(8) 0.1837(9) 0.0530(7)
C26 C 0.0182(7) 0.2658(8) -0.0190(6)
C27 C 0.0405(8) 0.3382(8) 0.0170(6)
C28 C 0.0343(7) 0.3274(7) 0.1238(6)
C29 C 0.4654(5) 0.0671(5) 0.4862(5)
P3 P 0.33993(14) 0.13683(16) 0.39333(14)
C30 C 0.3802(5) 0.1259(6) 0.2636(5)
C31 C 0.3116(6) 0.1225(7) 0.1960(6)
C32 C 0.3327(7) 0.1231(8) 0.0925(6)
C33 C 0.4261(7) 0.1210(8) 0.0589(6)
C34 C 0.5005(7) 0.1158(10) 0.1273(7)
C35 C 0.4783(6) 0.1189(8) 0.2290(7)
C36 C 0.2942(5) 0.2969(6) 0.3638(5)
C37 C 0.2858(6) 0.3338(6) 0.4502(6)
C38 C 0.2483(7) 0.4536(7) 0.4326(7)
C39 C 0.2162(7) 0.5369(7) 0.3276(7)
C40 C 0.2212(7) 0.5030(7) 0.2410(7)
C41 C 0.2608(6) 0.3833(6) 0.2587(6)
H1 H 0.05386 -0.11320 0.44553
H2 H 0.13882 -0.24873 0.49446
H3 H 0.16182 -0.22999 0.66049
H4 H 0.07138 -0.09695 0.61125
H5 H 0.35662 -0.17460 0.64210
H6 H 0.49832 -0.34657 0.77372
H7 H 0.55776 -0.53399 0.76361
H8 H 0.48174 -0.55258 0.62504
H9 H 0.34512 -0.38372 0.49386
H10 H 0.41554 -0.18558 0.34841
H11 H 0.45485 -0.20510 0.17891
H12 H 0.32378 -0.18569 0.06392
H13 H 0.15124 -0.13979 0.10883
H14 H 0.11041 -0.12279 0.27868
H15 H 0.06366 0.37315 0.41018
H16 H -0.02012 0.57934 0.38077
H17 H -0.19495 0.70381 0.29409
H18 H -0.28361 0.62904 0.22161
H19 H -0.20047 0.42792 0.24572
H20 H -0.03505 0.11452 0.20914
H21 H -0.01855 0.13094 0.02950
H22 H 0.02060 0.27439 -0.09382
H23 H 0.06010 0.39656 -0.03278
H24 H 0.05057 0.37784 0.14768
H25 H 0.50780 0.10721 0.45328
H26 H 0.44646 0.07833 0.55312
H27 H 0.24686 0.11914 0.22160
H28 H 0.28097 0.12561 0.04580
H29 H 0.44111 0.12261 -0.01271
H30 H 0.56806 0.11038 0.10408
H31 H 0.53036 0.11594 0.27558
H32 H 0.30682 0.27453 0.52373
H33 H 0.24484 0.47768 0.49275
H34 H 0.18987 0.62022 0.31403
H35 H 0.19700 0.56282 0.16772
H36 H 0.26508 0.35966 0.19766
Ag1A Ag -0.19456(4) -0.07394(5) 0.55349(4)
Ag1A_2 Ag 0.80544(4) -0.07394(5) 0.55349(4)
O1A O -0.1398(5) -0.0428(6) 0.3653(4)
O2A O -0.2603(5) -0.0951(6) 0.3452(5)
C1A C -0.1884(6) -0.0664(7) 0.3175(6)
C2A C -0.1658(7) -0.0516(8) 0.2007(6)
F1A F -0.2183(4) -0.0789(5) 0.1465(4)
F2A F -0.1940(8) 0.0617(6) 0.1418(4)
F3A F -0.0676(5) -0.1064(9) 0.1939(6)
C3A C -0.1183(5) 0.1713(6) 0.5040(5)
C4A C -0.0957(5) 0.1761(5) 0.3885(5)
P1A P -0.22742(14) 0.12996(16) 0.54286(14)
C5A C -0.3395(5) 0.2633(6) 0.4453(5)
C6A C -0.3831(6) 0.2521(6) 0.3621(5)
C7A C -0.4660(6) 0.3534(8) 0.2837(6)
C8A C -0.5013(6) 0.4638(7) 0.2901(6)
C9A C -0.4567(7) 0.4750(7) 0.3717(6)
C10A C -0.3764(6) 0.3756(6) 0.4486(6)
C11A C -0.2567(6) 0.1505(6) 0.6715(5)
C12A C -0.3607(7) 0.1762(7) 0.7001(6)
C13A C -0.3841(7) 0.1882(8) 0.8004(7)
C14A C -0.3070(9) 0.1761(8) 0.8686(7)
C15A C -0.2060(9) 0.1502(9) 0.8423(7)
C16A C -0.1817(7) 0.1391(7) 0.7410(6)
P2A P -0.00780(14) -0.22627(16) 0.65883(15)
C17A C 0.0604(5) -0.3828(6) 0.6719(5)
C18A C 0.0074(6) -0.4258(7) 0.6298(7)
C19A C 0.0577(8) -0.5479(8) 0.6455(8)
C20A C 0.1596(8) -0.6215(7) 0.6978(8)
C21A C 0.2121(8) -0.5770(7) 0.7394(8)
C22A C 0.1626(7) -0.4582(7) 0.7255(7)
C23A C -0.0055(5) -0.2451(6) 0.8027(5)
C24A C 0.0150(7) -0.1730(7) 0.8397(6)
C25A C 0.0065(8) -0.1837(9) 0.9470(7)
C26A C -0.0182(7) -0.2658(8) 1.0190(6)
C27A C -0.0405(8) -0.3382(8) 0.9830(6)
C28A C -0.0343(7) -0.3274(7) 0.8762(6)
C29A C 0.5346(5) -0.0671(5) 0.5138(5)
P3A P 0.66007(14) -0.13683(16) 0.60667(14)
P3A_2 P -0.33993(14) -0.13683(16) 0.60667(14)
C30A C 0.6198(5) -0.1259(6) 0.7364(5)
C31A C 0.6884(6) -0.1225(7) 0.8040(6)
C32A C 0.6673(7) -0.1231(8) 0.9075(6)
C33A C 0.5739(7) -0.1210(8) 0.9411(6)
C34A C 0.4995(7) -0.1158(10) 0.8727(7)
C35A C 0.5217(6) -0.1189(8) 0.7710(7)
C36A C 0.7058(5) -0.2969(6) 0.6362(5)
C37A C 0.7142(6) -0.3338(6) 0.5498(6)
C38A C 0.7517(7) -0.4536(7) 0.5674(7)
C39A C 0.7838(7) -0.5369(7) 0.6724(7)
C40A C 0.7788(7) -0.5030(7) 0.7590(7)
C41A C 0.7392(6) -0.3833(6) 0.7413(6)
H1A H -0.05386 0.11320 0.55447
H2A H -0.13882 0.24873 0.50554
H3A H -0.16182 0.22999 0.33951
H4A H -0.07138 0.09695 0.38875
H5A H -0.35662 0.17460 0.35790
H6A H -0.49832 0.34657 0.22628
H7A H -0.55776 0.53399 0.23639
H8A H -0.48174 0.55258 0.37496
H9A H -0.34512 0.38372 0.50614
H10A H -0.41554 0.18558 0.65159
H11A H -0.45485 0.20510 0.82109
H12A H -0.32378 0.18569 0.93608
H13A H -0.15124 0.13979 0.89117
H14A H -0.11041 0.12279 0.72132
H15A H -0.06366 -0.37315 0.58982
H16A H 0.02012 -0.57934 0.61923
H17A H 0.19495 -0.70381 0.70591
H18A H 0.28361 -0.62904 0.77839
H19A H 0.20047 -0.42792 0.75428
H20A H 0.03505 -0.11452 0.79086
H21A H 0.01855 -0.13094 0.97050
H22A H -0.02060 -0.27439 1.09382
H23A H -0.06010 -0.39656 1.03278
H24A H -0.05057 -0.37784 0.85232
H25A H 0.49220 -0.10721 0.54672
H26A H 0.55354 -0.07833 0.44688
H27A H 0.75314 -0.11914 0.77840
H28A H 0.71903 -0.12561 0.95420
H29A H 0.55889 -0.12261 1.01271
H30A H 0.43194 -0.11038 0.89592
H31A H 0.46964 -0.11594 0.72442
H32A H 0.69318 -0.27453 0.47627
H33A H 0.75516 -0.47768 0.50725
H34A H 0.81013 -0.62022 0.68597
H35A H 0.80300 -0.56282 0.83228
H36A H 0.73492 -0.35966 0.80234
loop_
_geom_bond_atom_site_label_1
_geom_bond_atom_site_label_2
_geom_bond_site_symmetry_1
_geom_bond_site_symmetry_2
Ag1 O1 1_555 1_555
O1 C1 1_555 1_555
O2 C1 1_555 1_555
C1 C2 1_555 1_555
C2 F1 1_555 1_555
F2 C2 1_555 1_555
F3 C2 1_555 1_555
C3 C4 1_555 1_555
C4 H3 1_555 1_555
P1 Ag1 1_555 1_555
C5 P1 1_555 1_555
C6 C5 1_555 1_555
C7 C6 1_555 1_555
C8 C7 1_555 1_555
C9 C8 1_555 1_555
C10 C5 1_555 1_555
C11 P1 1_555 1_555
C12 C11 1_555 1_555
C13 C12 1_555 1_555
C14 C13 1_555 1_555
C15 C14 1_555 1_555
C16 C11 1_555 1_555
P2 Ag1 1_555 1_555
C17 P2 1_555 1_555
C18 C17 1_555 1_555
C19 C18 1_555 1_555
C20 C19 1_555 1_555
C21 C20 1_555 1_555
C22 C17 1_555 1_555
C23 P2 1_555 1_555
C24 C23 1_555 1_555
C25 C24 1_555 1_555
C26 C25 1_555 1_555
C27 C26 1_555 1_555
C28 C23 1_555 1_555
C29 P3 1_555 1_555
P3 Ag1 1_555 1_555
C30 P3 1_555 1_555
C31 C30 1_555 1_555
C32 C31 1_555 1_555
C33 C32 1_555 1_555
C34 C33 1_555 1_555
C35 C30 1_555 1_555
C36 P3 1_555 1_555
C37 C36 1_555 1_555
C38 C37 1_555 1_555
C39 C38 1_555 1_555
C40 C39 1_555 1_555
C41 C36 1_555 1_555
C42 C43 1_555 1_555
C44 C45 1_555 1_555
C45 C46 1_555 1_555
H1 C3 1_555 1_555
H2 C3 1_555 1_555
H4 C4 1_555 1_555
H5 C6 1_555 1_555
H6 C7 1_555 1_555
H7 C8 1_555 1_555
H8 C9 1_555 1_555
H9 C10 1_555 1_555
H10 C12 1_555 1_555
H11 C13 1_555 1_555
H12 C14 1_555 1_555
H13 C15 1_555 1_555
H14 C16 1_555 1_555
H15 C18 1_555 1_555
H16 C19 1_555 1_555
H17 C20 1_555 1_555
H18 C21 1_555 1_555
H19 C22 1_555 1_555
H20 C24 1_555 1_555
H21 C25 1_555 1_555
H22 C26 1_555 1_555
H23 C27 1_555 1_555
H24 C28 1_555 1_555
H25 C29 1_555 1_555
H26 C29 1_555 1_555
H27 C31 1_555 1_555
H28 C32 1_555 1_555
H29 C33 1_555 1_555
H30 C34 1_555 1_555
H31 C35 1_555 1_555
H32 C37 1_555 1_555
H33 C38 1_555 1_555
H34 C39 1_555 1_555
H35 C40 1_555 1_555
H36 C41 1_555 1_555
Ag1A O1A 1_555 1_555
Ag1A_2 P3A 1_555 1_555
O1A C1A 1_555 1_555
O2A C1A 1_555 1_555
C1A C2A 1_555 1_555
C2A F1A 1_555 1_555
F2A C2A 1_555 1_555
F3A C2A 1_555 1_555
C3A C4A 1_555 1_555
C4A P2 1_555 1_555
P1A Ag1A 1_555 1_555
C5A P1A 1_555 1_555
C6A C5A 1_555 1_555
C7A C6A 1_555 1_555
C8A C7A 1_555 1_555
C9A C8A 1_555 1_555
C10A C5A 1_555 1_555
C11A P1A 1_555 1_555
C12A C11A 1_555 1_555
C13A C12A 1_555 1_555
C14A C13A 1_555 1_555
C15A C14A 1_555 1_555
C16A C11A 1_555 1_555
P2A C4 1_555 1_555
C17A P2A 1_555 1_555
C18A C17A 1_555 1_555
C19A C18A 1_555 1_555
C20A C19A 1_555 1_555
C21A C20A 1_555 1_555
C22A C17A 1_555 1_555
C23A P2A 1_555 1_555
C24A C23A 1_555 1_555
C25A C24A 1_555 1_555
C26A C25A 1_555 1_555
C27A C26A 1_555 1_555
C28A C23A 1_555 1_555
C29A C29 1_555 1_555
P3A C29A 1_555 1_555
P3A_2 Ag1A 1_555 1_555
C30A P3A 1_555 1_555
C31A C30A 1_555 1_555
C32A C31A 1_555 1_555
C33A C32A 1_555 1_555
C34A C33A 1_555 1_555
C35A C30A 1_555 1_555
C36A P3A 1_555 1_555
C37A C36A 1_555 1_555
C38A C37A 1_555 1_555
C39A C38A 1_555 1_555
C40A C39A 1_555 1_555
C41A C36A 1_555 1_555
C43A C42 1_555 1_555
H1A C3A 1_555 1_555
H2A C3A 1_555 1_555
H3A C4A 1_555 1_555
H4A C4A 1_555 1_555
H5A C6A 1_555 1_555
H6A C7A 1_555 1_555
H7A C8A 1_555 1_555
H8A C9A 1_555 1_555
H9A C10A 1_555 1_555
H10A C12A 1_555 1_555
H11A C13A 1_555 1_555
H12A C14A 1_555 1_555
H13A C15A 1_555 1_555
H14A C16A 1_555 1_555
H15A C18A 1_555 1_555
H16A C19A 1_555 1_555
H17A C20A 1_555 1_555
H18A C21A 1_555 1_555
H19A C22A 1_555 1_555
H20A C24A 1_555 1_555
H21A C25A 1_555 1_555
H22A C26A 1_555 1_555
H23A C27A 1_555 1_555
H24A C28A 1_555 1_555
H25A C29A 1_555 1_555
H26A C29A 1_555 1_555
H27A C31A 1_555 1_555
H28A C32A 1_555 1_555
H29A C33A 1_555 1_555
H30A C34A 1_555 1_555
H31A C35A 1_555 1_555
H32A C37A 1_555 1_555
H33A C38A 1_555 1_555
H34A C39A 1_555 1_555
H35A C40A 1_555 1_555
H36A C41A 1_555 1_555
C3 P1 1_555 1_555
C9 C10 1_555 1_555
C15 C16 1_555 1_555
C21 C22 1_555 1_555
C27 C28 1_555 1_555
C34 C35 1_555 1_555
C40 C41 1_555 1_555
Ag1A P2A 1_555 1_555
C3A P1A 1_555 1_555
C9A C10A 1_555 1_555
C15A C16A 1_555 1_555
C21A C22A 1_555 1_555
C27A C28A 1_555 1_555
C34A C35A 1_555 1_555
C40A C41A 1_555 1_555

#END
