
#######################################################################
#
#                 Cambridge Crystallographic Data Centre
#                                CCDC 
#
#######################################################################
#
# If this CIF has been generated from an entry in the Cambridge 
# Structural Database, then it will include bibliographic, chemical, 
# crystal, experimental, refinement or atomic coordinate data resulting 
# from the CCDC's data processing and validation procedures.
#
#######################################################################

data_KAZPIL
_symmetry_cell_setting           monoclinic
_symmetry_space_group_name_H-M   'P 21/c'
_symmetry_Int_Tables_number      14
_space_group_name_Hall           '-P 2ybc'
loop_
_symmetry_equiv_pos_site_id
_symmetry_equiv_pos_as_xyz
1 x,y,z
2 -x,1/2+y,1/2-z
3 -x,-y,-z
4 x,1/2-y,1/2+z
_cell_length_a                   11.227(9)
_cell_length_b                   25.85(2)
_cell_length_c                   19.397(15)
_cell_angle_alpha                90
_cell_angle_beta                 110.65(7)
_cell_angle_gamma                90
_cell_volume                     5267.68
loop_
_atom_site_label
_atom_site_type_symbol
_atom_site_fract_x
_atom_site_fract_y
_atom_site_fract_z
Ag1 Ag 1.00712(10) 0.39345(4) 0.25723(5)
Cl1 Cl 0.7866(4) 0.43316(16) 0.2133(2)
C1 C 1.2016(12) 0.4899(5) 0.3944(7)
C2 C 1.0910(13) 0.5233(5) 0.3959(7)
C3 C 1.1212(13) 0.5495(5) 0.4709(6)
C4 C 0.9414(11) 0.6452(5) 0.5516(6)
C5 C 1.0468(12) 0.6095(5) 0.5491(6)
C6 C 1.0153(13) 0.5828(5) 0.4754(6)
P1 P 1.1703(3) 0.46218(14) 0.30061(19)
C7 C 1.1432(12) 0.5224(4) 0.2466(7)
C8 C 1.0224(13) 0.5343(5) 0.2004(7)
C9 C 0.9920(13) 0.5829(5) 0.1665(8)
C10 C 1.0880(18) 0.6146(6) 0.1718(9)
C11 C 1.2104(16) 0.6062(6) 0.2194(9)
C12 C 1.2357(13) 0.5582(5) 0.2553(7)
C13 C 1.3281(11) 0.4413(5) 0.3078(7)
C14 C 1.3639(13) 0.4424(6) 0.2437(8)
C15 C 1.4816(14) 0.4229(7) 0.2506(10)
C16 C 1.5592(14) 0.3999(6) 0.3130(11)
C17 C 1.5263(15) 0.3999(7) 0.3764(11)
C18 C 1.4071(13) 0.4200(6) 0.3685(9)
P2 P 1.0199(3) 0.32821(13) 0.35441(17)
C19 C 0.8824(10) 0.2888(4) 0.3429(6)
C20 C 0.7884(11) 0.2873(5) 0.2773(6)
C21 C 0.6821(12) 0.2571(6) 0.2638(7)
C22 C 0.6646(12) 0.2306(5) 0.3219(8)
C23 C 0.7553(13) 0.2335(5) 0.3897(7)
C24 C 0.8627(12) 0.2613(5) 0.4013(6)
C25 C 1.1472(10) 0.2827(4) 0.3658(5)
C26 C 1.2691(11) 0.2975(5) 0.3910(7)
C27 C 1.3679(13) 0.2654(6) 0.3974(8)
C28 C 1.3456(14) 0.2156(6) 0.3778(9)
C29 C 1.2254(16) 0.1984(6) 0.3513(10)
C30 C 1.1229(13) 0.2332(5) 0.3427(8)
C31 C 0.9232(11) 0.3949(5) 0.0594(6)
C32 C 1.0146(12) 0.4371(5) 0.0587(6)
C33 C 0.9539(12) 0.4784(5) 0.0008(7)
P3 P 0.9892(3) 0.35112(13) 0.13707(16)
C34 C 1.1318(10) 0.3245(4) 0.1275(6)
C35 C 1.2343(12) 0.3179(6) 0.1863(7)
C36 C 1.3444(14) 0.2961(7) 0.1833(8)
C37 C 1.3483(15) 0.2808(8) 0.1164(9)
C38 C 1.2468(14) 0.2892(6) 0.0561(8)
C39 C 1.1359(12) 0.3112(5) 0.0572(6)
C40 C 0.8809(10) 0.2959(4) 0.1122(5)
C41 C 0.7539(12) 0.3021(5) 0.0807(6)
C42 C 0.6737(13) 0.2606(6) 0.0660(8)
C43 C 0.7168(19) 0.2111(7) 0.0838(10)
C44 C 0.8433(18) 0.2067(6) 0.1166(10)
C45 C 0.9293(14) 0.2469(5) 0.1311(8)
H1 H 1.21372 0.46242 0.42863
H2 H 1.27638 0.51052 0.40770
H3 H 1.07422 0.54912 0.35885
H4 H 1.01765 0.50213 0.38650
H5 H 1.13871 0.52344 0.50764
H6 H 1.19473 0.57054 0.47988
H7 H 0.93249 0.67277 0.51786
H8 H 0.86414 0.62628 0.53838
H9 H 1.06091 0.58406 0.58643
H10 H 1.12210 0.62938 0.55830
H11 H 0.99657 0.60825 0.43792
H12 H 0.94244 0.56148 0.46754
H13 H 0.95735 0.50899 0.19120
H14 H 0.90630 0.59263 0.14083
H15 H 1.07127 0.64440 0.14111
H16 H 1.27489 0.63169 0.22759
H17 H 1.32039 0.55054 0.28654
H18 H 1.30855 0.45624 0.19849
H19 H 1.50886 0.42560 0.20945
H20 H 1.63573 0.38392 0.31338
H21 H 1.58263 0.38679 0.42215
H22 H 1.38096 0.41800 0.41009
H23 H 0.79544 0.30793 0.23849
H24 H 0.62136 0.25439 0.21538
H25 H 0.58992 0.21068 0.31408
H26 H 0.74364 0.21559 0.42974
H27 H 0.92563 0.26274 0.44936
H28 H 1.28741 0.33252 0.40533
H29 H 1.45259 0.27798 0.41552
H30 H 1.41422 0.19266 0.38267
H31 H 1.20862 0.16284 0.33858
H32 H 1.03713 0.22160 0.32091
H33 H 0.90267 0.37563 0.01506
H34 H 0.84814 0.41020 0.06225
H35 H 1.04452 0.45302 0.10583
H36 H 1.08393 0.42210 0.04874
H37 H 0.92375 0.46231 -0.04620
H38 H 0.88472 0.49332 0.01095
H39 H 1.23234 0.32924 0.23246
H40 H 1.41806 0.29333 0.22679
H41 H 1.42129 0.26528 0.11241
H42 H 1.25147 0.28137 0.00845
H43 H 1.06427 0.31589 0.01388
H44 H 0.71989 0.33590 0.06829
H45 H 0.58481 0.26645 0.04289
H46 H 0.66145 0.18207 0.07339
H47 H 0.87624 0.17311 0.13102
H48 H 1.01816 0.24096 0.15314
Ag1B Ag 0.99288(10) 0.60655(4) 0.74277(5)
Ag1B_2 Ag 0.99288(10) 0.60655(4) -0.25723(5)
Cl1B Cl 1.2134(4) 0.56684(16) 0.7867(2)
C1B C 0.7984(12) 0.5101(5) 0.6056(7)
C2B C 0.9090(13) 0.4767(5) 0.6041(7)
C3B C 0.8788(13) 0.4505(5) 0.5291(6)
C4B C 1.0586(11) 0.3548(5) 0.4484(6)
C5B C 0.9532(12) 0.3905(5) 0.4509(6)
C6B C 0.9847(13) 0.4172(5) 0.5246(6)
P1B P 0.8297(3) 0.53782(14) 0.69939(19)
C7B C 0.8568(12) 0.4776(4) 0.7534(7)
C8B C 0.9776(13) 0.4657(5) 0.7996(7)
C9B C 1.0080(13) 0.4171(5) 0.8335(8)
C10B C 0.9120(18) 0.3854(6) 0.8282(9)
C11B C 0.7896(16) 0.3938(6) 0.7806(9)
C12B C 0.7643(13) 0.4418(5) 0.7447(7)
C13B C 0.6719(11) 0.5587(5) 0.6922(7)
C14B C 0.6361(13) 0.5576(6) 0.7563(8)
C15B C 0.5184(14) 0.5771(7) 0.7494(10)
C16B C 0.4408(14) 0.6001(6) 0.6870(11)
C17B C 0.4737(15) 0.6001(7) 0.6236(11)
C18B C 0.5929(13) 0.5800(6) 0.6315(9)
P2B P 0.9801(3) 0.67179(13) 0.64559(17)
C19B C 1.1176(10) 0.7112(4) 0.6571(6)
C20B C 1.2116(11) 0.7127(5) 0.7227(6)
C21B C 1.3179(12) 0.7429(6) 0.7362(7)
C22B C 1.3354(12) 0.7694(5) 0.6781(8)
C23B C 1.2447(13) 0.7665(5) 0.6103(7)
C24B C 1.1373(12) 0.7387(5) 0.5987(6)
C25B C 0.8528(10) 0.7173(4) 0.6342(5)
C26B C 0.7309(11) 0.7025(5) 0.6090(7)
C27B C 0.6321(13) 0.7346(6) 0.6026(8)
C28B C 0.6544(14) 0.7844(6) 0.6222(9)
C29B C 0.7746(16) 0.8016(6) 0.6487(10)
C30B C 0.8771(13) 0.7668(5) 0.6573(8)
C31B C 1.0768(11) 0.6051(5) -0.0594(6)
C32B C 0.9854(12) 0.5629(5) -0.0587(6)
C33B C 1.0461(12) 0.5216(5) -0.0008(7)
P3B P 1.0108(3) 0.64888(13) -0.13707(16)
P3B_2 P 1.0108(3) 0.64888(13) 0.86293(16)
C34B C 0.8682(10) 0.6755(4) -0.1275(6)
C35B C 0.7657(12) 0.6821(6) -0.1863(7)
C36B C 0.6556(14) 0.7039(7) -0.1833(8)
C37B C 0.6517(15) 0.7192(8) -0.1164(9)
C38B C 0.7532(14) 0.7108(6) -0.0561(8)
C39B C 0.8641(12) 0.6888(5) -0.0572(6)
C40B C 1.1191(10) 0.7041(4) -0.1122(5)
C41B C 1.2461(12) 0.6979(5) -0.0807(6)
C42B C 1.3263(13) 0.7394(6) -0.0660(8)
C43B C 1.2832(19) 0.7889(7) -0.0838(10)
C44B C 1.1567(18) 0.7933(6) -0.1166(10)
C45B C 1.0707(14) 0.7531(5) -0.1311(8)
H1B H 0.78628 0.53758 0.57137
H2B H 0.72362 0.48948 0.59230
H3B H 0.92578 0.45088 0.64115
H4B H 0.98235 0.49787 0.61350
H5B H 0.86129 0.47656 0.49236
H6B H 0.80527 0.42946 0.52012
H7B H 1.06751 0.32723 0.48214
H8B H 1.13586 0.37372 0.46162
H9B H 0.93909 0.41594 0.41357
H10B H 0.87790 0.37062 0.44170
H11B H 1.00343 0.39175 0.56208
H12B H 1.05756 0.43852 0.53246
H13B H 1.04265 0.49101 0.80880
H14B H 1.09370 0.40737 0.85917
H15B H 0.92873 0.35560 0.85889
H16B H 0.72511 0.36831 0.77241
H17B H 0.67961 0.44946 0.71346
H18B H 0.69145 0.54376 0.80151
H19B H 0.49114 0.57440 0.79055
H20B H 0.36427 0.61608 0.68662
H21B H 0.41737 0.61321 0.57785
H22B H 0.61904 0.58200 0.58991
H23B H 1.20456 0.69207 0.76151
H24B H 1.37864 0.74561 0.78462
H25B H 1.41008 0.78932 0.68592
H26B H 1.25636 0.78441 0.57026
H27B H 1.07437 0.73726 0.55064
H28B H 0.71259 0.66748 0.59467
H29B H 0.54741 0.72202 0.58448
H30B H 0.58578 0.80734 0.61733
H31B H 0.79138 0.83716 0.66142
H32B H 0.96287 0.77840 0.67909
H33B H 1.09733 0.62437 -0.01506
H34B H 1.15186 0.58980 -0.06225
H35B H 0.95548 0.54698 -0.10583
H36B H 0.91607 0.57790 -0.04874
H37B H 1.07625 0.53769 0.04620
H38B H 1.11528 0.50668 -0.01095
H39B H 0.76766 0.67076 -0.23246
H40B H 0.58194 0.70667 -0.22679
H41B H 0.57871 0.73472 -0.11241
H42B H 0.74853 0.71863 -0.00845
H43B H 0.93573 0.68411 -0.01388
H44B H 1.28011 0.66410 -0.06829
H45B H 1.41519 0.73355 -0.04289
H46B H 1.33855 0.81793 -0.07339
H47B H 1.12376 0.82689 -0.13102
H48B H 0.98184 0.75904 -0.15314
N1 N 0.4586(13) 0.6024(5) 0.0234(7)
C46 C 0.4898(18) 0.5763(7) 0.0754(10)
C47 C 0.4232(17) 0.5746(8) 0.1226(10)
C48 C 0.5889(16) 0.5360(7) 0.1037(10)
C49 C 0.645(2) 0.5373(8) 0.0558(12)
C50 C 0.617(2) 0.5719(9) -0.0154(12)
C51 C 0.525(2) 0.5982(9) -0.0186(16)
H49 H 0.47316 0.55957 0.16759
H50 H 0.34749 0.55493 0.10071
H51 H 0.40039 0.60904 0.13095
H52 H 0.60687 0.51512 0.14652
H53 H 0.71210 0.51345 0.06450
H54 H 0.66199 0.57199 -0.04835
H55 H 0.49713 0.62045 -0.06006
N2 N 0.6390(17) 0.6321(7) 0.3609(10)
C52 C 0.6088(19) 0.5920(5) 0.3837(11)
C53 C 0.539(3) 0.5934(7) 0.422(2)
C54 C 0.6354(18) 0.5440(6) 0.3683(10)
C55 C 0.6984(18) 0.5382(6) 0.3226(11)
C56 C 0.734(2) 0.5862(8) 0.2995(12)
C57 C 0.709(2) 0.6367(9) 0.3219(13)
H56 H 0.48485 0.62252 0.40900
H57 H 0.48803 0.56306 0.41560
H58 H 0.58984 0.59635 0.47364
H59 H 0.61186 0.51409 0.38817
H60 H 0.72057 0.50644 0.30494
H61 H 0.77938 0.58742 0.26627
H62 H 0.73555 0.66940 0.31132
loop_
_geom_bond_atom_site_label_1
_geom_bond_atom_site_label_2
_geom_bond_site_symmetry_1
_geom_bond_site_symmetry_2
Ag1 Cl1 1_555 1_555
C1 C2 1_555 1_555
C2 C3 1_555 1_555
C3 C6 1_555 1_555
C4 C5 1_555 1_555
C5 C6 1_555 1_555
C6 H11 1_555 1_555
P1 Ag1 1_555 1_555
C7 P1 1_555 1_555
C8 C7 1_555 1_555
C9 C8 1_555 1_555
C10 C9 1_555 1_555
C11 C10 1_555 1_555
C12 C7 1_555 1_555
C13 P1 1_555 1_555
C14 C13 1_555 1_555
C15 C14 1_555 1_555
C16 C15 1_555 1_555
C17 C16 1_555 1_555
C18 C13 1_555 1_555
P2 Ag1 1_555 1_555
C19 P2 1_555 1_555
C20 C19 1_555 1_555
C21 C20 1_555 1_555
C22 C21 1_555 1_555
C23 C22 1_555 1_555
C24 C19 1_555 1_555
C25 P2 1_555 1_555
C26 C25 1_555 1_555
C27 C26 1_555 1_555
C28 C27 1_555 1_555
C29 C28 1_555 1_555
C30 C25 1_555 1_555
C31 C32 1_555 1_555
C32 C33 1_555 1_555
C33 H37 1_555 1_555
P3 Ag1 1_555 1_555
C34 P3 1_555 1_555
C35 C34 1_555 1_555
C36 C35 1_555 1_555
C37 C36 1_555 1_555
C38 C37 1_555 1_555
C39 C34 1_555 1_555
C40 P3 1_555 1_555
C41 C40 1_555 1_555
C42 C41 1_555 1_555
C43 C42 1_555 1_555
C44 C43 1_555 1_555
C45 C40 1_555 1_555
N1 C46 1_555 1_555
C46 C47 1_555 1_555
C47 H49 1_555 1_555
C48 C46 1_555 1_555
C49 C48 1_555 1_555
C50 C49 1_555 1_555
C51 N1 1_555 1_555
N2 C52 1_555 1_555
C52 C53 1_555 1_555
C53 H56 1_555 1_555
C54 C52 1_555 1_555
C55 C54 1_555 1_555
C56 C55 1_555 1_555
C57 N2 1_555 1_555
H1 C1 1_555 1_555
H2 C1 1_555 1_555
H3 C2 1_555 1_555
H4 C2 1_555 1_555
H5 C3 1_555 1_555
H6 C3 1_555 1_555
H7 C4 1_555 1_555
H8 C4 1_555 1_555
H9 C5 1_555 1_555
H10 C5 1_555 1_555
H12 C6 1_555 1_555
H13 C8 1_555 1_555
H14 C9 1_555 1_555
H15 C10 1_555 1_555
H16 C11 1_555 1_555
H17 C12 1_555 1_555
H18 C14 1_555 1_555
H19 C15 1_555 1_555
H20 C16 1_555 1_555
H21 C17 1_555 1_555
H22 C18 1_555 1_555
H23 C20 1_555 1_555
H24 C21 1_555 1_555
H25 C22 1_555 1_555
H26 C23 1_555 1_555
H27 C24 1_555 1_555
H28 C26 1_555 1_555
H29 C27 1_555 1_555
H30 C28 1_555 1_555
H31 C29 1_555 1_555
H32 C30 1_555 1_555
H33 C31 1_555 1_555
H34 C31 1_555 1_555
H35 C32 1_555 1_555
H36 C32 1_555 1_555
H38 C33 1_555 1_555
H39 C35 1_555 1_555
H40 C36 1_555 1_555
H41 C37 1_555 1_555
H42 C38 1_555 1_555
H43 C39 1_555 1_555
H44 C41 1_555 1_555
H45 C42 1_555 1_555
H46 C43 1_555 1_555
H47 C44 1_555 1_555
H48 C45 1_555 1_555
H50 C47 1_555 1_555
H51 C47 1_555 1_555
H52 C48 1_555 1_555
H53 C49 1_555 1_555
H54 C50 1_555 1_555
H55 C51 1_555 1_555
H57 C53 1_555 1_555
H58 C53 1_555 1_555
H59 C54 1_555 1_555
H60 C55 1_555 1_555
H61 C56 1_555 1_555
H62 C57 1_555 1_555
Ag1B Cl1B 1_555 1_555
Ag1B_2 P3B 1_555 1_555
C1B C2B 1_555 1_555
C2B C3B 1_555 1_555
C3B C6B 1_555 1_555
C4B P2 1_555 1_555
C5B C4B 1_555 1_555
C6B C5B 1_555 1_555
P1B Ag1B 1_555 1_555
C7B P1B 1_555 1_555
C8B C7B 1_555 1_555
C9B C8B 1_555 1_555
C10B C9B 1_555 1_555
C11B C10B 1_555 1_555
C12B C7B 1_555 1_555
C13B P1B 1_555 1_555
C14B C13B 1_555 1_555
C15B C14B 1_555 1_555
C16B C15B 1_555 1_555
C17B C16B 1_555 1_555
C18B C13B 1_555 1_555
P2B C4 1_555 1_555
C19B P2B 1_555 1_555
C20B C19B 1_555 1_555
C21B C20B 1_555 1_555
C22B C21B 1_555 1_555
C23B C22B 1_555 1_555
C24B C19B 1_555 1_555
C25B P2B 1_555 1_555
C26B C25B 1_555 1_555
C27B C26B 1_555 1_555
C28B C27B 1_555 1_555
C29B C28B 1_555 1_555
C30B C25B 1_555 1_555
C31B C32B 1_555 1_555
C32B C33B 1_555 1_555
C33B C33 1_555 1_555
P3B C31B 1_555 1_555
P3B_2 Ag1B 1_555 1_555
C34B P3B 1_555 1_555
C35B C34B 1_555 1_555
C36B C35B 1_555 1_555
C37B C36B 1_555 1_555
C38B C37B 1_555 1_555
C39B C34B 1_555 1_555
C40B P3B 1_555 1_555
C41B C40B 1_555 1_555
C42B C41B 1_555 1_555
C43B C42B 1_555 1_555
C44B C43B 1_555 1_555
C45B C40B 1_555 1_555
H1B C1B 1_555 1_555
H2B C1B 1_555 1_555
H3B C2B 1_555 1_555
H4B C2B 1_555 1_555
H5B C3B 1_555 1_555
H6B C3B 1_555 1_555
H7B C4B 1_555 1_555
H8B C4B 1_555 1_555
H9B C5B 1_555 1_555
H10B C5B 1_555 1_555
H11B C6B 1_555 1_555
H12B C6B 1_555 1_555
H13B C8B 1_555 1_555
H14B C9B 1_555 1_555
H15B C10B 1_555 1_555
H16B C11B 1_555 1_555
H17B C12B 1_555 1_555
H18B C14B 1_555 1_555
H19B C15B 1_555 1_555
H20B C16B 1_555 1_555
H21B C17B 1_555 1_555
H22B C18B 1_555 1_555
H23B C20B 1_555 1_555
H24B C21B 1_555 1_555
H25B C22B 1_555 1_555
H26B C23B 1_555 1_555
H27B C24B 1_555 1_555
H28B C26B 1_555 1_555
H29B C27B 1_555 1_555
H30B C28B 1_555 1_555
H31B C29B 1_555 1_555
H32B C30B 1_555 1_555
H33B C31B 1_555 1_555
H34B C31B 1_555 1_555
H35B C32B 1_555 1_555
H36B C32B 1_555 1_555
H37B C33B 1_555 1_555
H38B C33B 1_555 1_555
H39B C35B 1_555 1_555
H40B C36B 1_555 1_555
H41B C37B 1_555 1_555
H42B C38B 1_555 1_555
H43B C39B 1_555 1_555
H44B C41B 1_555 1_555
H45B C42B 1_555 1_555
H46B C43B 1_555 1_555
H47B C44B 1_555 1_555
H48B C45B 1_555 1_555
C1 P1 1_555 1_555
C11 C12 1_555 1_555
C17 C18 1_555 1_555
C23 C24 1_555 1_555
C29 C30 1_555 1_555
C31 P3 1_555 1_555
C38 C39 1_555 1_555
C44 C45 1_555 1_555
C50 C51 1_555 1_555
C56 C57 1_555 1_555
Ag1B P2B 1_555 1_555
C1B P1B 1_555 1_555
C11B C12B 1_555 1_555
C17B C18B 1_555 1_555
C23B C24B 1_555 1_555
C29B C30B 1_555 1_555
C38B C39B 1_555 1_555
C44B C45B 1_555 1_555

#END
