
#######################################################################
#
#                 Cambridge Crystallographic Data Centre
#                                CCDC 
#
#######################################################################
#
# If this CIF has been generated from an entry in the Cambridge 
# Structural Database, then it will include bibliographic, chemical, 
# crystal, experimental, refinement or atomic coordinate data resulting 
# from the CCDC's data processing and validation procedures.
#
#######################################################################

data_KAZROT
_symmetry_cell_setting           triclinic
_symmetry_space_group_name_H-M   'P -1'
_symmetry_Int_Tables_number      2
_space_group_name_Hall           '-P 1'
loop_
_symmetry_equiv_pos_site_id
_symmetry_equiv_pos_as_xyz
1 x,y,z
2 -x,-y,-z
_cell_length_a                   13.827(4)
_cell_length_b                   13.666(3)
_cell_length_c                   12.654(3)
_cell_angle_alpha                74.50(2)
_cell_angle_beta                 76.35(2)
_cell_angle_gamma                61.19(2)
_cell_volume                     2002.59
loop_
_atom_site_label
_atom_site_type_symbol
_atom_site_fract_x
_atom_site_fract_y
_atom_site_fract_z
N1 N -0.1865(11) 0.6955(14) -0.0073(12)
C40 C -0.1020(11) 0.6648(12) 0.0108(10)
C41 C 0.0069(12) 0.6265(14) 0.0394(12)
H37 H 0.01737 0.69050 0.03795
H38 H 0.01230 0.58181 0.11133
H39 H 0.06109 0.58264 -0.01242
Ag1 Ag 0.21163(5) 0.75103(5) 0.44103(5)
Cl1 Cl 0.0898(2) 0.67209(18) 0.7043(2)
O1 O 0.1835(6) 0.6263(7) 0.6300(6)
O2 O 0.0729(8) 0.5924(7) 0.7807(7)
O3 O 0.0987(13) 0.7394(14) 0.7504(16)
O4 O 0.0065(9) 0.7274(13) 0.6559(13)
C1 C -0.0725(6) 0.9817(6) 0.3782(7)
C2 C -0.1371(6) 0.9638(6) 0.4916(7)
As1 As 0.04274(9) 0.84225(10) 0.34299(10)
C3 C -0.0367(6) 0.7671(6) 0.3325(6)
C4 C -0.1362(7) 0.8226(8) 0.2906(8)
C5 C -0.1912(8) 0.7655(9) 0.2807(10)
C6 C -0.1464(8) 0.6497(9) 0.3097(9)
C7 C -0.0504(8) 0.5942(8) 0.3545(8)
C8 C 0.0067(7) 0.6498(7) 0.3668(7)
C9 C 0.0873(6) 0.8850(6) 0.1917(6)
C10 C 0.1090(7) 0.8213(8) 0.1165(7)
C11 C 0.1536(9) 0.8445(10) 0.0073(8)
C12 C 0.1748(8) 0.9364(10) -0.0225(8)
C13 C 0.1570(9) 1.0014(9) 0.0521(9)
C14 C 0.1123(8) 0.9764(8) 0.1621(8)
As2 As 0.25454(9) 0.89761(10) 0.47447(10)
C15 C 0.3360(6) 0.9431(7) 0.3473(6)
C16 C 0.4430(7) 0.8667(8) 0.3165(8)
C17 C 0.5056(9) 0.8919(11) 0.2182(9)
C18 C 0.4588(10) 0.9942(12) 0.1523(8)
C19 C 0.3530(10) 1.0733(10) 0.1807(8)
C20 C 0.2901(8) 1.0495(8) 0.2798(7)
C21 C 0.3432(6) 0.8613(6) 0.5851(6)
C22 C 0.3417(6) 0.7788(6) 0.6766(7)
C23 C 0.4021(7) 0.7552(8) 0.7620(7)
C24 C 0.4622(7) 0.8116(9) 0.7557(8)
C25 C 0.4626(8) 0.8938(9) 0.6674(8)
C26 C 0.4039(7) 0.9177(8) 0.5823(7)
C27 C 0.4735(6) 0.4711(6) 0.4803(6)
As3 As 0.36959(9) 0.57394(9) 0.38199(9)
C28 C 0.3251(6) 0.4822(6) 0.3385(6)
C29 C 0.3082(7) 0.4950(7) 0.2316(7)
C30 C 0.2613(7) 0.4378(8) 0.2051(8)
C31 C 0.2307(8) 0.3639(8) 0.2852(9)
C32 C 0.2470(8) 0.3475(9) 0.3917(9)
C33 C 0.2933(7) 0.4065(8) 0.4188(7)
C34 C 0.4565(6) 0.6088(6) 0.2522(6)
C35 C 0.5704(6) 0.5451(7) 0.2304(7)
C36 C 0.6273(7) 0.5768(9) 0.1348(8)
C37 C 0.5736(8) 0.6703(9) 0.0581(7)
C38 C 0.4615(8) 0.7327(8) 0.0796(8)
C39 C 0.4031(6) 0.7033(7) 0.1774(7)
H1 H -0.04109 1.02991 0.37881
H2 H -0.12199 1.01628 0.32387
H3 H -0.08800 0.93115 0.54627
H4 H -0.16686 0.91410 0.49170
H5 H -0.16830 0.90302 0.26814
H6 H -0.26095 0.80645 0.25324
H7 H -0.18213 0.60950 0.29841
H8 H -0.02060 0.51409 0.37842
H9 H 0.07476 0.60816 0.39854
H10 H 0.09342 0.75733 0.13882
H11 H 0.16817 0.79839 -0.04447
H12 H 0.20308 0.95578 -0.09696
H13 H 0.17464 1.06361 0.02962
H14 H 0.09964 1.02110 0.21505
H15 H 0.47529 0.79463 0.36327
H16 H 0.57936 0.83802 0.19874
H17 H 0.50027 1.01075 0.08577
H18 H 0.32243 1.14411 0.13314
H19 H 0.21723 1.10528 0.30061
H20 H 0.29961 0.73875 0.68098
H21 H 0.40115 0.69872 0.82529
H22 H 0.50426 0.79331 0.81389
H23 H 0.50321 0.93424 0.66453
H24 H 0.40516 0.97486 0.51996
H25 H 0.43655 0.44022 0.54284
H26 H 0.53031 0.41181 0.44393
H27 H 0.32990 0.54523 0.17432
H28 H 0.24981 0.44934 0.13055
H29 H 0.19843 0.32444 0.26630
H30 H 0.22687 0.29591 0.44744
H31 H 0.30362 0.39532 0.49387
H32 H 0.60912 0.47912 0.28199
H33 H 0.70577 0.53327 0.12142
H34 H 0.61402 0.69066 -0.00888
H35 H 0.42293 0.79737 0.02711
H36 H 0.32498 0.74923 0.19244
C2A C 0.1371(6) 1.0362(6) 0.5084(7)
As2A As -0.25454(9) 1.10239(10) 0.52553(10)
C27A C 0.5265(6) 0.5289(6) 0.5197(6)
P1? P 0.04274(9) 0.84225(10) 0.34299(10)
P2? P -0.25454(9) 1.10239(10) 0.52553(10)
P3? P 0.36959(9) 0.57394(9) 0.38199(9)
loop_
_geom_bond_atom_site_label_1
_geom_bond_atom_site_label_2
_geom_bond_site_symmetry_1
_geom_bond_site_symmetry_2
Ag1 O1 1_555 1_555
Cl1 O1 1_555 1_555
O2 Cl1 1_555 1_555
O3 Cl1 1_555 1_555
O4 Cl1 1_555 1_555
C1 C2 1_555 1_555
C2 H3 1_555 1_555
As1 Ag1 1_555 1_555
C3 As1 1_555 1_555
C4 C3 1_555 1_555
C5 C4 1_555 1_555
C6 C5 1_555 1_555
C7 C6 1_555 1_555
C8 C3 1_555 1_555
C9 As1 1_555 1_555
C10 C9 1_555 1_555
C11 C10 1_555 1_555
C12 C11 1_555 1_555
C13 C12 1_555 1_555
C14 C9 1_555 1_555
As2 Ag1 1_555 1_555
C15 As2 1_555 1_555
C16 C15 1_555 1_555
C17 C16 1_555 1_555
C18 C17 1_555 1_555
C19 C18 1_555 1_555
C20 C15 1_555 1_555
C21 As2 1_555 1_555
C22 C21 1_555 1_555
C23 C22 1_555 1_555
C24 C23 1_555 1_555
C25 C24 1_555 1_555
C26 C21 1_555 1_555
C27 As3 1_555 1_555
As3 Ag1 1_555 1_555
C28 As3 1_555 1_555
C29 C28 1_555 1_555
C30 C29 1_555 1_555
C31 C30 1_555 1_555
C32 C31 1_555 1_555
C33 C28 1_555 1_555
C34 As3 1_555 1_555
C35 C34 1_555 1_555
C36 C35 1_555 1_555
C37 C36 1_555 1_555
C38 C37 1_555 1_555
C39 C34 1_555 1_555
N1 C40 1_555 1_555
C40 C41 1_555 1_555
C41 H37 1_555 1_555
H1 C1 1_555 1_555
H2 C1 1_555 1_555
H4 C2 1_555 1_555
H5 C4 1_555 1_555
H6 C5 1_555 1_555
H7 C6 1_555 1_555
H8 C7 1_555 1_555
H9 C8 1_555 1_555
H10 C10 1_555 1_555
H11 C11 1_555 1_555
H12 C12 1_555 1_555
H13 C13 1_555 1_555
H14 C14 1_555 1_555
H15 C16 1_555 1_555
H16 C17 1_555 1_555
H17 C18 1_555 1_555
H18 C19 1_555 1_555
H19 C20 1_555 1_555
H20 C22 1_555 1_555
H21 C23 1_555 1_555
H22 C24 1_555 1_555
H23 C25 1_555 1_555
H24 C26 1_555 1_555
H25 C27 1_555 1_555
H26 C27 1_555 1_555
H27 C29 1_555 1_555
H28 C30 1_555 1_555
H29 C31 1_555 1_555
H30 C32 1_555 1_555
H31 C33 1_555 1_555
H32 C35 1_555 1_555
H33 C36 1_555 1_555
H34 C37 1_555 1_555
H35 C38 1_555 1_555
H36 C39 1_555 1_555
H38 C41 1_555 1_555
H39 C41 1_555 1_555
C2A As2 1_555 1_555
As2A C2 1_555 1_555
C27A C27 1_555 1_555
C1 As1 1_555 1_555
C7 C8 1_555 1_555
C13 C14 1_555 1_555
C19 C20 1_555 1_555
C25 C26 1_555 1_555
C32 C33 1_555 1_555
C38 C39 1_555 1_555

#END
