
#######################################################################
#
#                 Cambridge Crystallographic Data Centre
#                                CCDC 
#
#######################################################################
#
# If this CIF has been generated from an entry in the Cambridge 
# Structural Database, then it will include bibliographic, chemical, 
# crystal, experimental, refinement or atomic coordinate data resulting 
# from the CCDC's data processing and validation procedures.
#
#######################################################################

data_KAZXAL
_symmetry_cell_setting           monoclinic
_symmetry_space_group_name_H-M   'C 2/c'
_symmetry_Int_Tables_number      15
_space_group_name_Hall           '-C 2yn'
loop_
_symmetry_equiv_pos_site_id
_symmetry_equiv_pos_as_xyz
1 x,y,z
2 1/2+x,1/2+y,z
3 -x,y,1/2-z
4 1/2-x,1/2+y,1/2-z
5 -x,-y,-z
6 1/2-x,1/2-y,-z
7 x,-y,1/2+z
8 1/2+x,1/2-y,1/2+z
_cell_length_a                   27.965(3)
_cell_length_b                   19.221(2)
_cell_length_c                   16.016(2)
_cell_angle_alpha                90
_cell_angle_beta                 123.124(8)
_cell_angle_gamma                90
_cell_volume                     7209.82
loop_
_atom_site_label
_atom_site_type_symbol
_atom_site_fract_x
_atom_site_fract_y
_atom_site_fract_z
Co1 Co 0.642433(19) 0.36908(3) 0.83762(3)
O1 O 0.61089(12) 0.44207(16) 0.71664(19)
O2 O 0.54833(11) 0.38665(16) 0.72646(19)
O3 O 0.52126(13) 0.45685(19) 0.6024(2)
O4 O 0.72494(14) 0.39745(17) 0.8347(2)
O5 O 0.73168(11) 0.34169(14) 0.95399(18)
O6 O 0.80835(12) 0.37006(18) 0.9614(2)
N1 N 0.55859(14) 0.42965(19) 0.6793(2)
N2 N 0.75708(13) 0.36956(16) 0.9173(2)
N3 N 0.61746(11) 0.30482(16) 0.91616(18)
N4 N 0.70863(12) 0.29860(16) 1.22724(19)
N5 N 1.01376(13) 0.24720(17) 1.9448(2)
N6 N 1.13625(12) 0.22044(15) 2.25071(18)
C1 C 0.64733(14) 0.30130(19) 1.0155(2)
H1 H 0.6793 0.3296 1.0515
C2 C 0.57087(15) 0.2643(2) 0.8660(2)
H2 H 0.5492 0.2663 0.7967
C3 C 0.55376(15) 0.2203(2) 0.9116(3)
H3 H 0.5211 0.1934 0.8740
C4 C 0.58556(15) 0.2164(2) 1.0140(2)
H4 H 0.5749 0.1861 1.0464
C5 C 0.63344(14) 0.25784(19) 1.0682(2)
C6 C 0.66969(15) 0.2546(2) 1.1772(2)
H5 H 0.6638 0.2193 1.2104
N7 N 0.65003(11) 0.45399(16) 0.93346(19)
C7 C 0.74664(15) 0.2893(2) 1.3313(2)
N8 N 0.80846(12) 0.50862(16) 1.18214(19)
C8 C 0.77355(17) 0.2265(2) 1.3701(2)
H6 H 0.7631 0.1882 1.3281
C9 C 0.81567(16) 0.2191(2) 1.4698(2)
H7 H 0.8337 0.1764 1.4937
C10 C 0.83158(15) 0.27545(19) 1.5353(2)
C11 C 0.80312(15) 0.3375(2) 1.4947(2)
H8 H 0.8122 0.3752 1.5373
C12 C 0.76176(16) 0.3469(2) 1.3941(2)
C13 C 0.7342(2) 0.4164(2) 1.3535(3)
H9 H 0.7068 0.4126 1.2830
H10 H 0.7628 0.4499 1.3660
H11 H 0.7152 0.4311 1.3855
C14 C 0.87927(15) 0.2693(2) 1.6421(2)
C15 C 0.90727(17) 0.3269(2) 1.6991(2)
H12 H 0.8962 0.3709 1.6709
C16 C 0.95154(16) 0.3202(2) 1.7976(2)
H13 H 0.9692 0.3601 1.8346
C17 C 0.97035(15) 0.2564(2) 1.8426(2)
C18 C 0.94199(18) 0.1974(2) 1.7871(3)
C19 C 0.89732(18) 0.2057(2) 1.6886(3)
H14 H 0.8785 0.1660 1.6519
C20 C 0.9597(3) 0.1258(2) 1.8339(4)
H15 H 0.9910 0.1300 1.9021
H16 H 0.9281 0.1039 1.8314
H17 H 0.9711 0.0980 1.7979
C21 C 1.05232(15) 0.2920(2) 1.9918(2)
H18 H 1.0540 0.3297 1.9571
C22 C 1.09475(14) 0.28675(19) 2.0993(2)
C23 C 1.13083(16) 0.3414(2) 2.1516(3)
H19 H 1.1294 0.3820 2.1188
C24 C 1.16922(16) 0.3352(2) 2.2534(3)
H20 H 1.1939 0.3716 2.2898
C25 C 1.17036(15) 0.2751(2) 2.2994(2)
H21 H 1.1960 0.2717 2.3680
C26 C 1.09962(14) 0.2271(2) 2.1528(2)
H22 H 1.0758 0.1897 2.1179
C27 C 0.70069(14) 0.47566(18) 1.0103(2)
H23 H 0.7333 0.4619 1.0126
C28 C 0.60359(15) 0.4756(2) 0.9299(3)
H24 H 0.5680 0.4615 0.8767
C29 C 0.60621(16) 0.5179(2) 1.0019(3)
H25 H 0.5729 0.5323 0.9966
C30 C 0.65867(15) 0.5386(2) 1.0816(3)
H26 H 0.6612 0.5665 1.1312
C31 C 0.70756(14) 0.51759(18) 1.0872(2)
C32 C 0.76440(14) 0.53188(19) 1.1741(2)
H27 H 0.7680 0.5592 1.2253
C33 C 0.86316(13) 0.51271(18) 1.2733(2)
C34 C 0.87172(15) 0.5349(2) 1.3633(2)
H28 H 0.8412 0.5530 1.3643
C35 C 0.92436(14) 0.53044(19) 1.4503(2)
H29 H 0.9288 0.5457 1.5093
C36 C 0.97143(13) 0.50365(18) 1.4526(2)
C37 C 0.96199(14) 0.4832(2) 1.3616(2)
H30 H 0.9927 0.4658 1.3606
C38 C 0.90939(14) 0.4873(2) 1.2723(2)
C39 C 0.90193(17) 0.4629(3) 1.1762(3)
H31 H 0.8630 0.4695 1.1222
H32 H 0.9115 0.4144 1.1816
H33 H 0.9266 0.4891 1.1637
Co1G Co 0.142433(19) 0.13092(3) -0.66238(3)
Co1G_2 Co 1.142433(19) 0.13092(3) 2.33762(3)
Co1D Co 1.357567(19) 0.63092(3) 2.16238(3)
O1G O 0.11089(12) 0.05793(16) -0.78336(19)
O2G O 0.04833(11) 0.11335(16) -0.77354(19)
O3G O 0.02126(13) 0.04315(19) -0.8976(2)
O4G O 0.22494(14) 0.10255(17) -0.6653(2)
O5G O 0.23168(11) 0.15831(14) -0.54601(18)
O6G O 0.30835(12) 0.12994(18) -0.5386(2)
N1G N 0.05859(14) 0.07035(19) -0.8207(2)
N2G N 0.25708(13) 0.13044(16) -0.5827(2)
N3G N 0.11746(11) 0.19518(16) -0.58384(18)
N4G N 0.20863(12) 0.20140(16) -0.27276(19)
N5G N 0.51376(13) 0.25280(17) 0.4448(2)
N6G N 0.63625(12) 0.27956(15) 0.75071(18)
N6_2 N 0.13625(12) 0.22044(15) -0.74929(18)
C1G C 0.14733(14) 0.19870(19) -0.4845(2)
H1G H 0.1793 0.1704 -0.4485
C2G C 0.07087(15) 0.2357(2) -0.6340(2)
H2G H 0.0492 0.2337 -0.7033
C3G C 0.05376(15) 0.2797(2) -0.5884(3)
H3G H 0.0211 0.3066 -0.6260
C4G C 0.08556(15) 0.2836(2) -0.4860(2)
H4G H 0.0749 0.3139 -0.4536
C5G C 0.13344(14) 0.24216(19) -0.4318(2)
C6G C 0.16969(15) 0.2454(2) -0.3228(2)
H5G H 0.1638 0.2807 -0.2896
N7D N 1.34997(11) 0.54601(16) 2.06654(19)
N7G N 0.15003(11) 0.04601(16) -0.56654(19)
C7G C 0.24664(15) 0.2107(2) -0.1687(2)
N8D N 1.19154(12) 0.49138(16) 1.81786(19)
C8G C 0.27355(17) 0.2735(2) -0.1299(2)
H6G H 0.2631 0.3118 -0.1719
C9G C 0.31567(16) 0.2809(2) -0.0302(2)
H7G H 0.3337 0.3236 -0.0063
C10G C 0.33158(15) 0.22455(19) 0.0353(2)
C11G C 0.30312(15) 0.1625(2) -0.0053(2)
H8G H 0.3122 0.1248 0.0373
C12G C 0.26176(16) 0.1531(2) -0.1059(2)
C13G C 0.2342(2) 0.0836(2) -0.1465(3)
H9G H 0.2068 0.0874 -0.2170
H10G H 0.2628 0.0501 -0.1340
H11G H 0.2152 0.0689 -0.1145
C14G C 0.37927(15) 0.2307(2) 0.1421(2)
C15G C 0.40727(17) 0.1731(2) 0.1991(2)
H12G H 0.3962 0.1291 0.1709
C16G C 0.45154(16) 0.1798(2) 0.2976(2)
H13G H 0.4692 0.1399 0.3346
C17G C 0.47035(15) 0.2436(2) 0.3426(2)
C18G C 0.44199(18) 0.3026(2) 0.2871(3)
C19G C 0.39732(18) 0.2943(2) 0.1886(3)
H14G H 0.3785 0.3340 0.1519
C20G C 0.4597(3) 0.3742(2) 0.3339(4)
H15G H 0.4910 0.3700 0.4021
H16G H 0.4281 0.3961 0.3314
H17G H 0.4711 0.4020 0.2979
C21G C 0.55232(15) 0.2080(2) 0.4918(2)
H18G H 0.5540 0.1703 0.4571
C22G C 0.59475(14) 0.21325(19) 0.5993(2)
C23G C 0.63083(16) 0.1586(2) 0.6516(3)
H19G H 0.6294 0.1180 0.6188
C24G C 0.66922(16) 0.1648(2) 0.7534(3)
H20G H 0.6939 0.1284 0.7898
C25G C 0.67036(15) 0.2249(2) 0.7994(2)
H21G H 0.6960 0.2283 0.8680
C26G C 0.59962(14) 0.2729(2) 0.6528(2)
H22G H 0.5758 0.3103 0.6179
C27D C 1.29931(14) 0.52434(18) 1.9897(2)
H23D H 1.2667 0.5381 1.9874
C28D C 1.39641(15) 0.5244(2) 2.0701(3)
H24D H 1.4320 0.5385 2.1233
C29D C 1.39379(16) 0.4821(2) 1.9981(3)
H25D H 1.4271 0.4677 2.0034
C30D C 1.34133(15) 0.4614(2) 1.9184(3)
H26D H 1.3388 0.4335 1.8688
C31D C 1.29244(14) 0.48241(18) 1.9128(2)
C32D C 1.23560(14) 0.46812(19) 1.8259(2)
H27D H 1.2320 0.4408 1.7747
C33D C 1.13684(13) 0.48729(18) 1.7267(2)
C34D C 1.12828(15) 0.4651(2) 1.6367(2)
H28D H 1.1588 0.4470 1.6357
C35D C 1.07564(14) 0.46956(19) 1.5497(2)
H29D H 1.0712 0.4543 1.4907
C36D C 1.02857(13) 0.49635(18) 1.5474(2)
C37D C 1.03801(14) 0.5168(2) 1.6384(2)
H30D H 1.0073 0.5342 1.6394
C38D C 1.09061(14) 0.5127(2) 1.7277(2)
C39D C 1.09807(17) 0.5371(3) 1.8238(3)
H31D H 1.1370 0.5305 1.8778
H32D H 1.0885 0.5856 1.8184
H33D H 1.0734 0.5109 1.8363
loop_
_geom_bond_atom_site_label_1
_geom_bond_atom_site_label_2
_geom_bond_site_symmetry_1
_geom_bond_site_symmetry_2
Co1 O1 1_555 1_555
O1 N1 1_555 1_555
O2 Co1 1_555 1_555
O3 N1 1_555 1_555
O4 Co1 1_555 1_555
O5 Co1 1_555 1_555
O6 N2 1_555 1_555
N1 O2 1_555 1_555
N2 O4 1_555 1_555
N3 Co1 1_555 1_555
N4 C6 1_555 1_555
N5 C17 1_555 1_555
N6 C25 1_555 1_555
C1 N3 1_555 1_555
H1 C1 1_555 1_555
C2 N3 1_555 1_555
H2 C2 1_555 1_555
C3 C2 1_555 1_555
H3 C3 1_555 1_555
C4 C3 1_555 1_555
H4 C4 1_555 1_555
C5 C1 1_555 1_555
C6 C5 1_555 1_555
H5 C6 1_555 1_555
N7 Co1 1_555 1_555
C7 N4 1_555 1_555
N8 C32 1_555 1_555
C8 C7 1_555 1_555
H6 C8 1_555 1_555
C9 C8 1_555 1_555
H7 C9 1_555 1_555
C10 C9 1_555 1_555
C11 C10 1_555 1_555
H8 C11 1_555 1_555
C12 C7 1_555 1_555
C13 C12 1_555 1_555
H9 C13 1_555 1_555
H10 C13 1_555 1_555
H11 C13 1_555 1_555
C14 C10 1_555 1_555
C15 C14 1_555 1_555
H12 C15 1_555 1_555
C16 C15 1_555 1_555
H13 C16 1_555 1_555
C17 C16 1_555 1_555
C18 C17 1_555 1_555
C19 C14 1_555 1_555
H14 C19 1_555 1_555
C20 C18 1_555 1_555
H15 C20 1_555 1_555
H16 C20 1_555 1_555
H17 C20 1_555 1_555
C21 N5 1_555 1_555
H18 C21 1_555 1_555
C22 C21 1_555 1_555
C23 C22 1_555 1_555
H19 C23 1_555 1_555
C24 C23 1_555 1_555
H20 C24 1_555 1_555
C25 C24 1_555 1_555
H21 C25 1_555 1_555
C26 N6 1_555 1_555
H22 C26 1_555 1_555
C27 N7 1_555 1_555
H23 C27 1_555 1_555
C28 N7 1_555 1_555
H24 C28 1_555 1_555
C29 C28 1_555 1_555
H25 C29 1_555 1_555
C30 C29 1_555 1_555
H26 C30 1_555 1_555
C31 C27 1_555 1_555
C32 C31 1_555 1_555
H27 C32 1_555 1_555
C33 N8 1_555 1_555
C34 C33 1_555 1_555
H28 C34 1_555 1_555
C35 C34 1_555 1_555
H29 C35 1_555 1_555
C36 C35 1_555 1_555
C37 C36 1_555 1_555
H30 C37 1_555 1_555
C38 C33 1_555 1_555
C39 C38 1_555 1_555
H31 C39 1_555 1_555
H32 C39 1_555 1_555
H33 C39 1_555 1_555
Co1G O1G 1_555 1_555
Co1G_2 N6 1_555 1_555
Co1D N7D 1_555 1_555
O1G N1G 1_555 1_555
O2G Co1G 1_555 1_555
O3G N1G 1_555 1_555
O4G Co1G 1_555 1_555
O5G Co1G 1_555 1_555
O6G N2G 1_555 1_555
N1G O2G 1_555 1_555
N2G O4G 1_555 1_555
N3G Co1G 1_555 1_555
N4G C6G 1_555 1_555
N5G C17G 1_555 1_555
N6G Co1 1_555 1_555
N6_2 Co1G 1_555 1_555
C1G N3G 1_555 1_555
H1G C1G 1_555 1_555
C2G N3G 1_555 1_555
H2G C2G 1_555 1_555
C3G C2G 1_555 1_555
H3G C3G 1_555 1_555
C4G C3G 1_555 1_555
H4G C4G 1_555 1_555
C5G C1G 1_555 1_555
C6G C5G 1_555 1_555
H5G C6G 1_555 1_555
N7D C27D 1_555 1_555
N7G Co1G 1_555 1_555
C7G N4G 1_555 1_555
N8D C32D 1_555 1_555
C8G C7G 1_555 1_555
H6G C8G 1_555 1_555
C9G C8G 1_555 1_555
H7G C9G 1_555 1_555
C10G C9G 1_555 1_555
C11G C10G 1_555 1_555
H8G C11G 1_555 1_555
C12G C7G 1_555 1_555
C13G C12G 1_555 1_555
H9G C13G 1_555 1_555
H10G C13G 1_555 1_555
H11G C13G 1_555 1_555
C14G C10G 1_555 1_555
C15G C14G 1_555 1_555
H12G C15G 1_555 1_555
C16G C15G 1_555 1_555
H13G C16G 1_555 1_555
C17G C16G 1_555 1_555
C18G C17G 1_555 1_555
C19G C14G 1_555 1_555
H14G C19G 1_555 1_555
C20G C18G 1_555 1_555
H15G C20G 1_555 1_555
H16G C20G 1_555 1_555
H17G C20G 1_555 1_555
C21G N5G 1_555 1_555
H18G C21G 1_555 1_555
C22G C21G 1_555 1_555
C23G C22G 1_555 1_555
H19G C23G 1_555 1_555
C24G C23G 1_555 1_555
H20G C24G 1_555 1_555
C25G N6G 1_555 1_555
H21G C25G 1_555 1_555
C26G N6G 1_555 1_555
H22G C26G 1_555 1_555
C27D H23D 1_555 1_555
C28D N7D 1_555 1_555
H24D C28D 1_555 1_555
C29D C28D 1_555 1_555
H25D C29D 1_555 1_555
C30D C29D 1_555 1_555
H26D C30D 1_555 1_555
C31D C27D 1_555 1_555
C32D C31D 1_555 1_555
H27D C32D 1_555 1_555
C33D N8D 1_555 1_555
C34D C33D 1_555 1_555
H28D C34D 1_555 1_555
C35D C34D 1_555 1_555
H29D C35D 1_555 1_555
C36D C36 1_555 1_555
C37D C36D 1_555 1_555
H30D C37D 1_555 1_555
C38D C33D 1_555 1_555
C39D C38D 1_555 1_555
H31D C39D 1_555 1_555
H32D C39D 1_555 1_555
H33D C39D 1_555 1_555
O5 N2 1_555 1_555
C4 C5 1_555 1_555
C11 C12 1_555 1_555
C18 C19 1_555 1_555
C22 C26 1_555 1_555
C30 C31 1_555 1_555
C37 C38 1_555 1_555
O5G N2G 1_555 1_555
C4G C5G 1_555 1_555
C11G C12G 1_555 1_555
C18G C19G 1_555 1_555
C22G C26G 1_555 1_555
C24G C25G 1_555 1_555
C30D C31D 1_555 1_555
C35D C36D 1_555 1_555
C37D C38D 1_555 1_555

#END
