
#######################################################################
#
#                 Cambridge Crystallographic Data Centre
#                                CCDC 
#
#######################################################################
#
# If this CIF has been generated from an entry in the Cambridge 
# Structural Database, then it will include bibliographic, chemical, 
# crystal, experimental, refinement or atomic coordinate data resulting 
# from the CCDC's data processing and validation procedures.
#
#######################################################################

data_KEBBEA
_symmetry_cell_setting           orthorhombic
_symmetry_space_group_name_H-M   'P b c n'
_symmetry_Int_Tables_number      60
_space_group_name_Hall           '-P 2n 2ab'
loop_
_symmetry_equiv_pos_site_id
_symmetry_equiv_pos_as_xyz
1 x,y,z
2 1/2-x,1/2-y,1/2+z
3 -x,y,1/2-z
4 1/2+x,1/2-y,-z
5 -x,-y,-z
6 1/2+x,1/2+y,1/2-z
7 x,-y,1/2+z
8 1/2-x,1/2+y,z
_cell_length_a                   16.330(3)
_cell_length_b                   23.484(4)
_cell_length_c                   14.805(2)
_cell_angle_alpha                90
_cell_angle_beta                 90
_cell_angle_gamma                90
_cell_volume                     5677.62
loop_
_atom_site_label
_atom_site_type_symbol
_atom_site_fract_x
_atom_site_fract_y
_atom_site_fract_z
Cu1 Cu 0.20267(5) 0.17457(3) 0.69920(5)
Cu2 Cu 0.35647(5) 0.09400(3) 0.61920(5)
Cu3 Cu 0.25784(4) 0.18374(3) 0.47738(5)
O1 O 0.2941(2) 0.16574(15) 0.6056(3)
N1 N 0.1520(3) 0.2300(2) 0.6174(3)
N2 N 0.1754(3) 0.23398(19) 0.5287(4)
C1 C 0.1286(4) 0.2738(3) 0.4900(5)
H1 H 0.1324 0.2851 0.4299
C2 C 0.0915(4) 0.2672(3) 0.6297(5)
H2 H 0.0643 0.2731 0.6841
C3 C 0.0749(4) 0.2956(3) 0.5508(5)
H3 H 0.0356 0.3235 0.5412
N3 N -0.1698(3) -0.1168(2) 0.5677(3)
C4 C -0.0002(4) 0.0171(2) 0.6292(4)
C5 C -0.0582(4) -0.0289(2) 0.6097(4)
C6 C -0.1391(5) -0.0202(3) 0.5946(7)
H4 H -0.1594 0.0167 0.5972
C7 C -0.0918(5) -0.1264(3) 0.5812(6)
H5 H -0.0734 -0.1637 0.5765
C8 C -0.0223(4) 0.0737(3) 0.6287(5)
H6 H -0.0762 0.0838 0.6165
C9 C -0.1918(4) -0.0636(3) 0.5756(6)
H7 H -0.2468 -0.0548 0.5678
C10 C -0.0343(5) -0.0844(3) 0.6022(6)
H8 H 0.0202 -0.0943 0.6112
C11 C 0.0806(4) 0.0062(3) 0.6493(5)
H9 H 0.0992 -0.0312 0.6524
N4 N 0.2698(3) 0.1274(2) 0.7799(3)
N5 N 0.3325(3) 0.0962(2) 0.7473(3)
C12 C 0.3655(6) 0.0681(3) 0.8155(5)
H10 H 0.4098 0.0434 0.8104
C13 C 0.2668(5) 0.1173(3) 0.8672(5)
H11 H 0.2290 0.1335 0.9065
C14 C 0.3265(6) 0.0798(3) 0.8926(5)
H12 H 0.3375 0.0658 0.9501
O2 O 0.1341(3) 0.20286(19) 0.8031(3)
N6 N 0.3499(3) 0.1377(2) 0.4368(3)
N7 N 0.3856(3) 0.0994(2) 0.4931(3)
C15 C 0.3773(4) 0.1275(3) 0.3534(5)
H13 H 0.3627 0.1478 0.3019
C16 C 0.1339(4) 0.0505(3) 0.6649(5)
H14 H 0.1883 0.0415 0.6772
C17 C 0.0344(4) 0.1151(3) 0.6460(5)
H15 H 0.0171 0.1528 0.6456
O3 O 0.4158(3) 0.0211(2) 0.6333(3)
O4 O 0.2942(4) -0.0146(2) 0.6048(4)
C18 C 0.3672(5) -0.0190(4) 0.6235(5)
H16 H 0.3879 -0.0556 0.6310
C19 C 0.4331(4) 0.0669(3) 0.4431(5)
H17 H 0.4645 0.0370 0.4655
C20 C 0.4308(5) 0.0820(3) 0.3559(5)
H18 H 0.4588 0.0656 0.3079
C21 C 0.1563(4) 0.2361(3) 0.8632(4)
H19 H 0.1187 0.2432 0.9090
N8 N 0.1134(3) 0.1045(2) 0.6636(3)
O5 O 0.2227(3) 0.26096(18) 0.8691(3)
C23 C 0.3566(10) 0.2118(7) 0.6292(12)
H20 H 0.4102 0.1996 0.6111
H21 H 0.3560 0.2185 0.6932
H22 H 0.3428 0.2464 0.5981
Cu3D Cu -0.25784(4) -0.18374(3) 0.52262(5)
Cu3A Cu 0.24216(4) 0.31626(3) 0.97738(5)
N3D N 0.1698(3) 0.1168(2) 0.4323(3)
O5A O 0.2773(3) 0.23904(18) 0.3691(3)
O6 O 0.1854(6) 0.1055(5) 0.0855(8)
C22 C 0.2031(13) 0.1368(8) 0.158(2)
H23? H 0.3250(12) 0.1925(8) 0.6184(14)
loop_
_geom_bond_atom_site_label_1
_geom_bond_atom_site_label_2
_geom_bond_site_symmetry_1
_geom_bond_site_symmetry_2
Cu1 O1 1_555 1_555
Cu2 O1 1_555 1_555
Cu3 O1 1_555 1_555
O1 C23 1_555 1_555
N1 Cu1 1_555 1_555
N2 Cu3 1_555 1_555
C1 N2 1_555 1_555
H1 C1 1_555 1_555
C2 N1 1_555 1_555
H2 C2 1_555 1_555
C3 C1 1_555 1_555
H3 C3 1_555 1_555
N3 C7 1_555 1_555
C4 C5 1_555 1_555
C5 C6 1_555 1_555
C6 H4 1_555 1_555
C7 H5 1_555 1_555
C8 C4 1_555 1_555
H6 C8 1_555 1_555
C9 N3 1_555 1_555
H7 C9 1_555 1_555
C10 C5 1_555 1_555
H8 C10 1_555 1_555
C11 C4 1_555 1_555
H9 C11 1_555 1_555
N4 Cu1 1_555 1_555
N5 Cu2 1_555 1_555
C12 N5 1_555 1_555
H10 C12 1_555 1_555
C13 N4 1_555 1_555
H11 C13 1_555 1_555
C14 C12 1_555 1_555
H12 C14 1_555 1_555
O2 Cu1 1_555 1_555
N6 Cu3 1_555 1_555
N7 Cu2 1_555 1_555
C15 N6 1_555 1_555
H13 C15 1_555 1_555
C16 C11 1_555 1_555
H14 C16 1_555 1_555
C17 C8 1_555 1_555
H15 C17 1_555 1_555
O3 Cu2 1_555 1_555
O4 C18 1_555 1_555
C18 O3 1_555 1_555
H16 C18 1_555 1_555
C19 N7 1_555 1_555
H17 C19 1_555 1_555
C20 C15 1_555 1_555
H18 C20 1_555 1_555
C21 O2 1_555 1_555
H19 C21 1_555 1_555
N8 Cu1 1_555 1_555
O5 C21 1_555 1_555
O6 C22 1_555 1_555
C23 H20 1_555 1_555
H21 C23 1_555 1_555
H22 C23 1_555 1_555
Cu3D N3 1_555 1_555
Cu3A O5 1_555 1_555
N3D Cu3 1_555 1_555
O5A Cu3 1_555 1_555
N1 N2 1_555 1_555
C2 C3 1_555 1_555
C6 C9 1_555 1_555
C7 C10 1_555 1_555
N4 N5 1_555 1_555
C13 C14 1_555 1_555
N6 N7 1_555 1_555
C16 N8 1_555 1_555
C17 N8 1_555 1_555
C19 C20 1_555 1_555

#END
