
#######################################################################
#
#                 Cambridge Crystallographic Data Centre
#                                CCDC 
#
#######################################################################
#
# If this CIF has been generated from an entry in the Cambridge 
# Structural Database, then it will include bibliographic, chemical, 
# crystal, experimental, refinement or atomic coordinate data resulting 
# from the CCDC's data processing and validation procedures.
#
#######################################################################

data_KEBBIE
_symmetry_cell_setting           monoclinic
_symmetry_space_group_name_H-M   'P 21/n'
_symmetry_Int_Tables_number      14
_space_group_name_Hall           '-P 2yn'
loop_
_symmetry_equiv_pos_site_id
_symmetry_equiv_pos_as_xyz
1 x,y,z
2 1/2-x,1/2+y,1/2-z
3 -x,-y,-z
4 1/2+x,1/2-y,1/2+z
_cell_length_a                   12.569(3)
_cell_length_b                   25.558(6)
_cell_length_c                   14.961(3)
_cell_angle_alpha                90
_cell_angle_beta                 106.512(5)
_cell_angle_gamma                90
_cell_volume                     4607.85
loop_
_atom_site_label
_atom_site_type_symbol
_atom_site_fract_x
_atom_site_fract_y
_atom_site_fract_z
C1 C 0.3957(5) 0.1021(3) 0.9999(4)
H1 H 0.4070 0.1205 0.9497
C2 C 0.4608(5) 0.0628(2) 1.0455(5)
H2 H 0.5237 0.0491 1.0331
C3 C 0.4146(5) 0.0472(2) 1.1134(4)
H3 H 0.4422 0.0207 1.1565
C4 C 0.0473(5) 0.0151(2) 1.2619(4)
H4 H 0.0865 -0.0159 1.2794
C5 C -0.0528(6) 0.0272(3) 1.2772(5)
H5 H -0.0937 0.0067 1.3069
C6 C -0.0792(5) 0.0761(3) 1.2393(4)
H6 H -0.1430 0.0948 1.2383
C7 C -0.0259(6) 0.2641(3) 1.0656(5)
H7 H -0.0756 0.2732 1.0986
C8 C -0.0004(6) 0.2941(3) 0.9997(5)
H8 H -0.0297 0.3266 0.9777
C9 C 0.0775(5) 0.2663(2) 0.9727(4)
H9 H 0.1127 0.2775 0.9292
C10 C 0.3784(5) 0.0711(2) 1.3397(4)
H10 H 0.3746 0.1058 1.3207
C11 C 0.4511(6) 0.0586(2) 1.4247(4)
H11 H 0.4930 0.0846 1.4621
C12 C 0.4611(4) 0.0071(2) 1.4539(3)
C13 C 0.3970(5) -0.0283(2) 1.3945(4)
H12 H 0.4013 -0.0636 1.4105
C14 C 0.3259(5) -0.0123(2) 1.3107(4)
H13 H 0.2840 -0.0375 1.2711
C15 C 0.1838(8) -0.0244(4) 1.0014(6)
H14 H 0.1149 -0.0178 0.9549
H15 H 0.2053 -0.0602 0.9973
H16 H 0.2401 -0.0017 0.9915
C16 C 0.5379(6) 0.1638(2) 1.2326(4)
H17 H 0.4655 0.1537 1.2028
C17 C 0.6181(6) 0.1321(3) 1.2868(5)
H18 H 0.6117 0.0970 1.3012
C18 C 0.7075(5) 0.1626(2) 1.3143(4)
H19 H 0.7759 0.1517 1.3526
C19 C 0.9821(6) 0.3381(3) 1.3022(5)
H20 H 1.0334 0.3166 1.3428
C20 C 1.0041(7) 0.3845(4) 1.2679(6)
H21 H 1.0727 0.4011 1.2822
C21 C 0.9090(7) 0.4022(4) 1.2096(6)
H22 H 0.9009 0.4329 1.1749
C22 C 0.4480(7) 0.4170(3) 1.0557(4)
H23 H 0.4739 0.4478 1.0363
C23 C 0.3377(7) 0.4045(3) 1.0420(5)
H24 H 0.2758 0.4247 1.0136
C24 C 0.3401(6) 0.3565(3) 1.0791(5)
H25 H 0.2776 0.3370 1.0793
C25 C 0.0205(6) 0.1075(3) 0.8555(4)
H26 H -0.0199 0.1018 0.7938
C26 C -0.0411(5) 0.2008(2) 1.2957(4)
H27 H 0.0207 0.1817 1.3287
C27 C 0.6923(6) 0.4045(3) 0.9761(5)
H28 H 0.6959 0.4298 0.9323
C28 C 0.3623(4) 0.2356(2) 1.0103(3)
H29 H 0.4066 0.2568 0.9852
N1 N 0.3125(4) 0.11079(17) 1.0377(3)
N2 N 0.3233(3) 0.07568(16) 1.1089(3)
N3 N 0.0788(4) 0.05478(17) 1.2179(3)
N4 N 0.0011(4) 0.09225(18) 1.2044(3)
N5 N 0.0315(4) 0.21960(18) 1.0754(3)
N6 N 0.0962(4) 0.22114(17) 1.0171(3)
N7 N 0.3144(4) 0.03731(18) 1.2840(3)
N8 N 0.5790(4) 0.21153(19) 1.2287(3)
N9 N 0.6861(4) 0.21027(18) 1.2801(3)
N10 N 0.8726(4) 0.3284(2) 1.2671(3)
N11 N 0.8284(4) 0.3686(2) 1.2096(4)
N12 N 0.5120(4) 0.37821(19) 1.1010(3)
N13 N 0.4449(4) 0.3404(2) 1.1157(3)
O1 O 0.1148(3) 0.11886(13) 1.0811(2)
O2 O 0.1011(3) 0.13696(16) 0.8683(2)
O3 O -0.0126(4) 0.0850(2) 0.9145(3)
O4 O -0.0699(3) 0.19615(15) 1.2101(2)
O5 O -0.0867(3) 0.22845(17) 1.3417(3)
O6 O 0.6915(4) 0.42064(19) 1.0543(3)
O7 O 0.6887(5) 0.3584(3) 0.9503(3)
O8 O 0.3818(3) 0.23489(15) 1.0964(2)
O9 O 0.2873(3) 0.20967(14) 0.9543(2)
O10 O 0.6484(3) 0.31436(14) 1.2309(2)
O11 O 0.1707(4) -0.01501(17) 1.0912(3)
H30 H 0.1477 -0.0425 1.1219
Cu1 Cu 0.19722(5) 0.16378(2) 1.01361(4)
Cu2 Cu 0.20343(5) 0.06484(2) 1.16466(4)
Cu3 Cu 0.02533(5) 0.15756(3) 1.14734(4)
Cu4 Cu 0.51370(6) 0.27467(3) 1.16651(4)
Cu5 Cu 0.78074(5) 0.27109(3) 1.28478(4)
Cu6 Cu 0.67122(6) 0.36960(3) 1.14582(4)
H31 H 0.072(4) 0.0978(18) 1.039(3)
H32 H 0.639(5) 0.327(2) 1.282(2)
C1B C 0.6043(5) -0.1021(3) 2.0001(4)
H1B H 0.5930 -0.1205 2.0503
C2B C 0.5392(5) -0.0628(2) 1.9545(5)
H2B H 0.4763 -0.0491 1.9669
C3B C 0.5854(5) -0.0472(2) 1.8866(4)
H3B H 0.5578 -0.0207 1.8435
C4B C 0.9527(5) -0.0151(2) 1.7381(4)
H4B H 0.9135 0.0159 1.7206
C5B C 1.0528(6) -0.0272(3) 1.7228(5)
H5B H 1.0937 -0.0067 1.6931
C6B C 1.0792(5) -0.0761(3) 1.7607(4)
H6B H 1.1430 -0.0948 1.7617
C7B C 1.0259(6) -0.2641(3) 1.9344(5)
H7B H 1.0756 -0.2732 1.9014
C8B C 1.0004(6) -0.2941(3) 2.0003(5)
H8B H 1.0297 -0.3266 2.0223
C9B C 0.9225(5) -0.2663(2) 2.0273(4)
H9B H 0.8873 -0.2775 2.0708
C10B C 0.6216(5) -0.0711(2) 1.6603(4)
H10B H 0.6254 -0.1058 1.6793
C11B C 0.5489(6) -0.0586(2) 1.5753(4)
H11B H 0.5070 -0.0846 1.5379
C12B C 0.5389(4) -0.0071(2) 1.5461(3)
C13B C 0.6030(5) 0.0283(2) 1.6055(4)
H12B H 0.5987 0.0636 1.5895
C14B C 0.6741(5) 0.0123(2) 1.6893(4)
H13B H 0.7160 0.0375 1.7289
C15B C 0.8162(8) 0.0244(4) 1.9986(6)
H14B H 0.8851 0.0178 2.0451
H15B H 0.7947 0.0602 2.0027
H16B H 0.7599 0.0017 2.0085
C16_2 C -0.4621(6) 0.1638(2) 1.2326(4)
H17_2 H -0.5345 0.1537 1.2028
C17_2 C -0.3819(6) 0.1321(3) 1.2868(5)
H18_2 H -0.3883 0.0970 1.3012
C18_2 C -0.2925(5) 0.1626(2) 1.3143(4)
H19_2 H -0.2241 0.1517 1.3526
C19_2 C -0.0179(6) 0.3381(3) 1.3022(5)
H20_2 H 0.0334 0.3166 1.3428
C20_2 C 0.0041(7) 0.3845(4) 1.2679(6)
H21_2 H 0.0727 0.4011 1.2822
C21_2 C -0.0910(7) 0.4022(4) 1.2096(6)
H22_2 H -0.0991 0.4329 1.1749
C22_2 C -0.5520(7) 0.4170(3) 1.0557(4)
H23_2 H -0.5261 0.4478 1.0363
C23_2 C -0.6623(7) 0.4045(3) 1.0420(5)
H24_2 H -0.7242 0.4247 1.0136
C24_2 C -0.6599(6) 0.3565(3) 1.0791(5)
H25_2 H -0.7224 0.3370 1.0793
C25B C 0.9795(6) -0.1075(3) 2.1445(4)
H26B H 1.0199 -0.1018 2.2062
C26_2 C 0.9589(5) 0.2008(2) 1.2957(4)
H27_2 H 1.0207 0.1817 1.3287
C27_2 C -0.3077(6) 0.4045(3) 0.9761(5)
H28_2 H -0.3041 0.4298 0.9323
C28B C 0.6377(4) -0.2356(2) 1.9897(3)
H29B H 0.5934 -0.2568 2.0148
N1B N 0.6875(4) -0.11079(17) 1.9623(3)
N2B N 0.6767(3) -0.07568(16) 1.8911(3)
N3B N 0.9212(4) -0.05478(17) 1.7821(3)
N4B N 0.9989(4) -0.09225(18) 1.7956(3)
N5B N 0.9685(4) -0.21960(18) 1.9246(3)
N6B N 0.9038(4) -0.22114(17) 1.9829(3)
N7B N 0.6856(4) -0.03731(18) 1.7160(3)
N8_2 N -0.4210(4) 0.21153(19) 1.2287(3)
N9_2 N -0.3139(4) 0.21027(18) 1.2801(3)
N10_2 N -0.1274(4) 0.3284(2) 1.2671(3)
N11_2 N -0.1716(4) 0.3686(2) 1.2096(4)
N12_2 N -0.4880(4) 0.37821(19) 1.1010(3)
N13_2 N -0.5551(4) 0.3404(2) 1.1157(3)
O1B O 0.8852(3) -0.11886(13) 1.9189(2)
O2B O 0.8989(3) -0.13696(16) 2.1317(2)
O3B O 1.0126(4) -0.0850(2) 2.0855(3)
O4_2 O 0.9301(3) 0.19615(15) 1.2101(2)
O4B O 1.0699(3) -0.19615(15) 1.7899(2)
O5_2 O 0.9133(3) 0.22845(17) 1.3417(3)
O6_2 O -0.3085(4) 0.42064(19) 1.0543(3)
O7_2 O -0.3113(5) 0.3584(3) 0.9503(3)
O8B O 0.6182(3) -0.23489(15) 1.9036(2)
O8_2 O -0.6182(3) 0.23489(15) 1.0964(2)
O9B O 0.7127(3) -0.20967(14) 2.0457(2)
O10_2 O -0.3516(3) 0.31436(14) 1.2309(2)
O11B O 0.8293(4) 0.01501(17) 1.9088(3)
H30B H 0.8523 0.0425 1.8781
Cu1B Cu 0.80278(5) -0.16378(2) 1.98639(4)
Cu2B Cu 0.79657(5) -0.06484(2) 1.83534(4)
Cu3B Cu 0.97467(5) -0.15756(3) 1.85266(4)
Cu3_2 Cu 1.02533(5) 0.15756(3) 1.14734(4)
Cu4_2 Cu -0.48630(6) 0.27467(3) 1.16651(4)
Cu4B Cu 0.48630(6) -0.27467(3) 1.83349(4)
Cu5_2 Cu -0.21926(5) 0.27109(3) 1.28478(4)
Cu6_2 Cu -0.32878(6) 0.36960(3) 1.14582(4)
H31B H 0.928(4) -0.0978(18) 1.961(3)
H32_2 H -0.361(5) 0.327(2) 1.282(2)
O12 O 0.2027(4) 0.16989(19) 1.2721(3)
H33 H 0.1909 0.1628 1.3332
H34 H 0.2237 0.2070 1.2759
O13 O 0.6303(5) 0.2718(3) 1.0474(4)
H35 H 0.6300 0.3065 1.0191
H36 H 0.5896 0.2521 0.9918
O14? O 0.2444(12) 0.2120(6) 1.2748(9)
O15? O 0.6697(15) 0.2340(8) 1.0360(12)
H37? H 0.2960 0.2246 1.3204
H38? H 0.2086 0.2388 1.2459
H39? H 0.6801 0.2241 0.9845
H40? H 0.6991 0.2097 1.0761
loop_
_geom_bond_atom_site_label_1
_geom_bond_atom_site_label_2
_geom_bond_site_symmetry_1
_geom_bond_site_symmetry_2
C1 H1 1_555 1_555
C2 C1 1_555 1_555
H2 C2 1_555 1_555
C3 C2 1_555 1_555
H3 C3 1_555 1_555
C4 H4 1_555 1_555
C5 C4 1_555 1_555
H5 C5 1_555 1_555
C6 C5 1_555 1_555
H6 C6 1_555 1_555
C7 H7 1_555 1_555
C8 C7 1_555 1_555
H8 C8 1_555 1_555
C9 C8 1_555 1_555
H9 C9 1_555 1_555
C10 H10 1_555 1_555
C11 C10 1_555 1_555
H11 C11 1_555 1_555
C12 C11 1_555 1_555
C13 C12 1_555 1_555
H12 C13 1_555 1_555
C14 C13 1_555 1_555
H13 C14 1_555 1_555
C15 H14 1_555 1_555
H15 C15 1_555 1_555
H16 C15 1_555 1_555
C16 H17 1_555 1_555
C17 C16 1_555 1_555
H18 C17 1_555 1_555
C18 C17 1_555 1_555
H19 C18 1_555 1_555
C19 H20 1_555 1_555
C20 C19 1_555 1_555
H21 C20 1_555 1_555
C21 C20 1_555 1_555
H22 C21 1_555 1_555
C22 H23 1_555 1_555
C23 C22 1_555 1_555
H24 C23 1_555 1_555
C24 C23 1_555 1_555
H25 C24 1_555 1_555
C25 H26 1_555 1_555
C26 H27 1_555 1_555
C27 H28 1_555 1_555
C28 H29 1_555 1_555
N1 C1 1_555 1_555
N2 C3 1_555 1_555
N3 C4 1_555 1_555
N4 C6 1_555 1_555
N5 C7 1_555 1_555
N6 C9 1_555 1_555
N7 C10 1_555 1_555
N8 C16 1_555 1_555
N9 C18 1_555 1_555
N10 C19 1_555 1_555
N11 C21 1_555 1_555
N12 C22 1_555 1_555
N13 C24 1_555 1_555
O1 Cu1 1_555 1_555
O2 C25 1_555 1_555
O3 C25 1_555 1_555
O4 C26 1_555 1_555
O5 C26 1_555 1_555
O6 C27 1_555 1_555
O7 C27 1_555 1_555
O8 C28 1_555 1_555
O9 C28 1_555 1_555
O10 Cu4 1_555 1_555
O11 C15 1_555 1_555
H30 O11 1_555 1_555
O12 H33 1_555 1_555
O13 H35 1_555 1_555
Cu1 N1 1_555 1_555
Cu2 N2 1_555 1_555
Cu3 N4 1_555 1_555
Cu4 N8 1_555 1_555
Cu5 N9 1_555 1_555
Cu6 N11 1_555 1_555
H31 O1 1_555 1_555
H32 O10 1_555 1_555
H34 O12 1_555 1_555
H36 O13 1_555 1_555
C1B H1B 1_555 1_555
C2B C1B 1_555 1_555
H2B C2B 1_555 1_555
C3B C2B 1_555 1_555
H3B C3B 1_555 1_555
C4B H4B 1_555 1_555
C5B C4B 1_555 1_555
H5B C5B 1_555 1_555
C6B C5B 1_555 1_555
H6B C6B 1_555 1_555
C7B H7B 1_555 1_555
C8B C7B 1_555 1_555
H8B C8B 1_555 1_555
C9B C8B 1_555 1_555
H9B C9B 1_555 1_555
C10B H10B 1_555 1_555
C11B C10B 1_555 1_555
H11B C11B 1_555 1_555
C12B C12 1_555 1_555
C13B C12B 1_555 1_555
H12B C13B 1_555 1_555
C14B C13B 1_555 1_555
H13B C14B 1_555 1_555
C15B H14B 1_555 1_555
H15B C15B 1_555 1_555
H16B C15B 1_555 1_555
C16_2 H17_2 1_555 1_555
C17_2 C16_2 1_555 1_555
H18_2 C17_2 1_555 1_555
C18_2 C17_2 1_555 1_555
H19_2 C18_2 1_555 1_555
C19_2 H20_2 1_555 1_555
C20_2 C19_2 1_555 1_555
H21_2 C20_2 1_555 1_555
C21_2 C20_2 1_555 1_555
H22_2 C21_2 1_555 1_555
C22_2 H23_2 1_555 1_555
C23_2 C22_2 1_555 1_555
H24_2 C23_2 1_555 1_555
C24_2 C23_2 1_555 1_555
H25_2 C24_2 1_555 1_555
C25B H26B 1_555 1_555
C26_2 H27_2 1_555 1_555
C27_2 H28_2 1_555 1_555
C28B H29B 1_555 1_555
N1B C1B 1_555 1_555
N2B C3B 1_555 1_555
N3B C4B 1_555 1_555
N4B C6B 1_555 1_555
N5B C7B 1_555 1_555
N6B C9B 1_555 1_555
N7B C10B 1_555 1_555
N8_2 C16_2 1_555 1_555
N9_2 C18_2 1_555 1_555
N10_2 C19_2 1_555 1_555
N11_2 C21_2 1_555 1_555
N12_2 C22_2 1_555 1_555
N13_2 C24_2 1_555 1_555
O1B Cu1B 1_555 1_555
O2B C25B 1_555 1_555
O3B C25B 1_555 1_555
O4_2 C26_2 1_555 1_555
O4B Cu3B 1_555 1_555
O5_2 Cu5 1_555 1_555
O6_2 C27_2 1_555 1_555
O7_2 C27_2 1_555 1_555
O8B C28B 1_555 1_555
O8_2 Cu4_2 1_555 1_555
O9B C28B 1_555 1_555
O10_2 Cu4_2 1_555 1_555
O11B C15B 1_555 1_555
H30B O11B 1_555 1_555
Cu1B N1B 1_555 1_555
Cu2B N2B 1_555 1_555
Cu3B N4B 1_555 1_555
Cu3_2 O4_2 1_555 1_555
Cu4_2 N8_2 1_555 1_555
Cu4B O8B 1_555 1_555
Cu5_2 O5 1_555 1_555
Cu6_2 N11_2 1_555 1_555
H31B O1B 1_555 1_555
H32_2 O10_2 1_555 1_555
C14 N7 1_555 1_555
N1 N2 1_555 1_555
N3 N4 1_555 1_555
N3 Cu2 1_555 1_555
N5 N6 1_555 1_555
N5 Cu3 1_555 1_555
N6 Cu1 1_555 1_555
N7 Cu2 1_555 1_555
N8 N9 1_555 1_555
N10 N11 1_555 1_555
N10 Cu5 1_555 1_555
N12 N13 1_555 1_555
N12 Cu6 1_555 1_555
N13 Cu4 1_555 1_555
O1 Cu2 1_555 1_555
O1 Cu3 1_555 1_555
O2 Cu1 1_555 1_555
O4 Cu3 1_555 1_555
O6 Cu6 1_555 1_555
O8 Cu4 1_555 1_555
O9 Cu1 1_555 1_555
O10 Cu5 1_555 1_555
O10 Cu6 1_555 1_555
O11 Cu2 1_555 1_555
C11B C12B 1_555 1_555
C14B N7B 1_555 1_555
C26_2 O5_2 1_555 1_555
N1B N2B 1_555 1_555
N3B N4B 1_555 1_555
N3B Cu2B 1_555 1_555
N5B N6B 1_555 1_555
N5B Cu3B 1_555 1_555
N6B Cu1B 1_555 1_555
N7B Cu2B 1_555 1_555
N8_2 N9_2 1_555 1_555
N9_2 Cu5_2 1_555 1_555
N10_2 N11_2 1_555 1_555
N10_2 Cu5_2 1_555 1_555
N12_2 N13_2 1_555 1_555
N12_2 Cu6_2 1_555 1_555
N13_2 Cu4_2 1_555 1_555
O1B Cu2B 1_555 1_555
O1B Cu3B 1_555 1_555
O2B Cu1B 1_555 1_555
O6_2 Cu6_2 1_555 1_555
O9B Cu1B 1_555 1_555
O10_2 Cu5_2 1_555 1_555
O10_2 Cu6_2 1_555 1_555
O11B Cu2B 1_555 1_555

#END
