
#######################################################################
#
#                 Cambridge Crystallographic Data Centre
#                                CCDC 
#
#######################################################################
#
# If this CIF has been generated from an entry in the Cambridge 
# Structural Database, then it will include bibliographic, chemical, 
# crystal, experimental, refinement or atomic coordinate data resulting 
# from the CCDC's data processing and validation procedures.
#
#######################################################################

data_KEBBOK
_symmetry_cell_setting           monoclinic
_symmetry_space_group_name_H-M   'P 21/n'
_symmetry_Int_Tables_number      14
_space_group_name_Hall           '-P 2yn'
loop_
_symmetry_equiv_pos_site_id
_symmetry_equiv_pos_as_xyz
1 x,y,z
2 1/2-x,1/2+y,1/2-z
3 -x,-y,-z
4 1/2+x,1/2-y,1/2+z
_cell_length_a                   12.4917(8)
_cell_length_b                   25.8228(16)
_cell_length_c                   14.9460(9)
_cell_angle_alpha                90
_cell_angle_beta                 106.0850(10)
_cell_angle_gamma                90
_cell_volume                     4632.4
loop_
_atom_site_label
_atom_site_type_symbol
_atom_site_fract_x
_atom_site_fract_y
_atom_site_fract_z
Cu1 Cu 0.68972(4) 0.164034(18) 0.51630(3)
Cu2 Cu 0.70181(4) 0.06547(2) 0.66748(3)
Cu3 Cu 0.51351(5) 0.15412(2) 0.64768(4)
Cu4 Cu 1.26779(4) 0.26994(2) 0.78533(3)
Cu5 Cu 1.15891(5) 0.36648(2) 0.64413(4)
Cu6 Cu 0.99657(5) 0.27506(2) 0.67245(4)
O1 O 0.6084(2) 0.11765(10) 0.58200(17)
O2 O 1.1354(2) 0.31348(12) 0.73338(18)
N1 N 0.5831(3) 0.21897(14) 0.5182(2)
N2 N 0.5133(3) 0.21540(15) 0.5729(3)
N3 N 0.4965(3) 0.08954(15) 0.7093(3)
N4 N 0.5784(3) 0.05387(14) 0.7228(2)
N5 N 0.8198(3) 0.07654(14) 0.6068(3)
N6 N 0.8080(3) 0.11269(14) 0.5390(2)
N7 N 0.9991(4) 0.37632(16) 0.6001(3)
N8 N 0.9300(4) 0.34033(16) 0.6201(3)
N9 N 1.1720(3) 0.21004(15) 0.7811(2)
N10 N 1.0635(3) 0.21194(15) 0.7317(3)
N11 N 1.3158(4) 0.36564(19) 0.7072(3)
N12 N 1.3611(3) 0.32628(19) 0.7661(3)
C1 C 0.4194(5) 0.0724(2) 0.7494(4)
H1 H 0.3548 0.0901 0.7505
C2 C 0.4510(5) 0.0247(2) 0.7887(4)
H2 H 0.4128 0.0037 0.8200
C3 C 0.5515(4) 0.01501(19) 0.7715(4)
H3 H 0.5946 -0.0144 0.7910
C4 C 0.8910(5) 0.1058(2) 0.4994(4)
H4 H 0.9020 0.1255 0.4506
C5 C 0.9575(5) 0.0653(2) 0.5411(5)
H5 H 1.0206 0.0525 0.5272
C6 C 0.9092(4) 0.04777(19) 0.6085(4)
H6 H 0.9351 0.0202 0.6487
C7 C 0.4522(5) 0.2585(2) 0.5616(4)
H7 H 0.3981 0.2657 0.5918
C8 C 0.4810(5) 0.2904(2) 0.4989(4)
H8 H 0.4516 0.3228 0.4783
C9 C 0.5628(5) 0.26396(19) 0.4736(4)
H9 H 0.5992 0.2758 0.4311
C10 C 1.0213(5) 0.1652(2) 0.7348(4)
H10 H 0.9481 0.1558 0.7056
C11 C 1.1006(5) 0.1325(2) 0.7870(4)
H11 H 1.0926 0.0978 0.8005
C12 C 1.1941(4) 0.1625(2) 0.8149(3)
H12 H 1.2629 0.1513 0.8519
C13 C 1.4709(5) 0.3364(3) 0.8018(4)
H13 H 1.5214 0.3157 0.8443
C14 C 1.4957(6) 0.3819(3) 0.7655(6)
H14 H 1.5647 0.3981 0.7787
C15 C 1.3986(6) 0.3983(3) 0.7061(6)
H15 H 1.3907 0.4281 0.6698
C16 C 0.8242(5) 0.3559(3) 0.5835(5)
H16 H 0.7610 0.3376 0.5863
C17 C 0.8246(6) 0.4031(3) 0.5412(5)
H17 H 0.7632 0.4232 0.5118
C18 C 0.9353(6) 0.4143(2) 0.5515(4)
H18 H 0.9617 0.4436 0.5285
N13 N 0.8158(3) 0.03811(15) 0.7855(3)
C19 C 0.8327(5) -0.0118(2) 0.8080(4)
H19 H 0.7950 -0.0366 0.7658
C20 C 0.9030(5) -0.02821(19) 0.8904(4)
H20 H 0.9119 -0.0634 0.9033
C21 C 0.9611(4) 0.00765(17) 0.9549(3)
C22 C 0.9457(5) 0.05930(19) 0.9296(4)
H21 H 0.9841 0.0850 0.9693
C23 C 0.8724(5) 0.0722(2) 0.8448(4)
H22 H 0.8629 0.1071 0.8290
O3 O 0.7764(2) 0.21108(11) 0.45449(18)
O4 O 0.8659(3) 0.23509(13) 0.5974(2)
C24 C 0.8496(4) 0.23678(18) 0.5115(3)
H23 H 0.8948 0.2585 0.4881
O5 O 0.4133(3) 0.19100(13) 0.7100(2)
O6 O 0.4013(3) 0.22753(15) 0.8401(2)
C25 C 0.4463(4) 0.1987(2) 0.7948(3)
H24 H 0.5104 0.1813 0.8276
O7 O 1.1798(4) 0.41726(17) 0.5533(3)
O8 O 1.1844(5) 0.3577(2) 0.4488(3)
C26 C 1.1846(5) 0.4018(3) 0.4749(4)
H25 H 1.1888 0.4274 0.4321
O9 O 0.5956(3) 0.13352(14) 0.3704(2)
O10 O 0.4960(7) 0.0778(3) 0.4188(3)
C27 C 0.5282(8) 0.1029(3) 0.3581(4)
H26 H 0.4923 0.0952 0.2963
O12 O 0.6690(5) -0.0129(2) 0.5898(4)
H27 H 0.5571(16) 0.0967(8) 0.5310(12)
H28 H 1.117(10) 0.334(4) 0.782(6)
H29 H 0.623(9) -0.041(3) 0.597(7)
H30 H 0.676(10) -0.006(4) 0.527(3)
Cu1B Cu 1.31028(4) -0.164034(18) 1.48370(3)
Cu2B Cu 1.29819(4) -0.06547(2) 1.33252(3)
Cu3B Cu 1.48649(5) -0.15412(2) 1.35232(4)
Cu3_2 Cu 1.51351(5) 0.15412(2) 0.64768(4)
Cu4_2 Cu 0.26779(4) 0.26994(2) 0.78533(3)
Cu5_2 Cu 0.15891(5) 0.36648(2) 0.64413(4)
Cu6_2 Cu -0.00343(5) 0.27506(2) 0.67245(4)
Cu6B Cu 1.00343(5) -0.27506(2) 1.32755(4)
O1B O 1.3916(2) -0.11765(10) 1.41800(17)
O2_2 O 0.1354(2) 0.31348(12) 0.73338(18)
N1B N 1.4169(3) -0.21897(14) 1.4818(2)
N2B N 1.4867(3) -0.21540(15) 1.4271(3)
N3B N 1.5035(3) -0.08954(15) 1.2907(3)
N4B N 1.4216(3) -0.05387(14) 1.2772(2)
N5B N 1.1802(3) -0.07654(14) 1.3932(3)
N6B N 1.1920(3) -0.11269(14) 1.4610(2)
N7_2 N -0.0009(4) 0.37632(16) 0.6001(3)
N8_2 N -0.0700(4) 0.34033(16) 0.6201(3)
N9_2 N 0.1720(3) 0.21004(15) 0.7811(2)
N10_2 N 0.0635(3) 0.21194(15) 0.7317(3)
N11_2 N 0.3158(4) 0.36564(19) 0.7072(3)
N12_2 N 0.3611(3) 0.32628(19) 0.7661(3)
C1B C 1.5806(5) -0.0724(2) 1.2506(4)
H1B H 1.6452 -0.0901 1.2495
C2B C 1.5490(5) -0.0247(2) 1.2113(4)
H2B H 1.5872 -0.0037 1.1800
C3B C 1.4485(4) -0.01501(19) 1.2285(4)
H3B H 1.4054 0.0144 1.2090
C4B C 1.1090(5) -0.1058(2) 1.5006(4)
H4B H 1.0980 -0.1255 1.5494
C5B C 1.0425(5) -0.0653(2) 1.4589(5)
H5B H 0.9794 -0.0525 1.4728
C6B C 1.0908(4) -0.04777(19) 1.3915(4)
H6B H 1.0649 -0.0202 1.3513
C7B C 1.5478(5) -0.2585(2) 1.4384(4)
H7B H 1.6019 -0.2657 1.4082
C8B C 1.5190(5) -0.2904(2) 1.5011(4)
H8B H 1.5484 -0.3228 1.5217
C9B C 1.4372(5) -0.26396(19) 1.5264(4)
H9B H 1.4008 -0.2758 1.5689
C10_2 C 0.0213(5) 0.1652(2) 0.7348(4)
H10_2 H -0.0519 0.1558 0.7056
C11_2 C 0.1006(5) 0.1325(2) 0.7870(4)
H11_2 H 0.0926 0.0978 0.8005
C12_2 C 0.1941(4) 0.1625(2) 0.8149(3)
H12_2 H 0.2629 0.1513 0.8519
C13_2 C 0.4709(5) 0.3364(3) 0.8018(4)
H13_2 H 0.5214 0.3157 0.8443
C14_2 C 0.4957(6) 0.3819(3) 0.7655(6)
H14_2 H 0.5647 0.3981 0.7787
C15_2 C 0.3986(6) 0.3983(3) 0.7061(6)
H15_2 H 0.3907 0.4281 0.6698
C16_2 C -0.1758(5) 0.3559(3) 0.5835(5)
H16_2 H -0.2390 0.3376 0.5863
C17_2 C -0.1754(6) 0.4031(3) 0.5412(5)
H17_2 H -0.2368 0.4232 0.5118
C18_2 C -0.0647(6) 0.4143(2) 0.5515(4)
H18_2 H -0.0383 0.4436 0.5285
N13B N 1.1842(3) -0.03811(15) 1.2145(3)
C19B C 1.1673(5) 0.0118(2) 1.1920(4)
H19B H 1.2050 0.0366 1.2342
C20B C 1.0970(5) 0.02821(19) 1.1096(4)
H20B H 1.0881 0.0634 1.0967
C21B C 1.0389(4) -0.00765(17) 1.0451(3)
C22B C 1.0543(5) -0.05930(19) 1.0704(4)
H21B H 1.0159 -0.0850 1.0307
C23B C 1.1276(5) -0.0722(2) 1.1552(4)
H22B H 1.1371 -0.1071 1.1710
O3B O 1.2236(2) -0.21108(11) 1.54551(18)
O4B O 1.1341(3) -0.23509(13) 1.4026(2)
O4_2 O -0.1341(3) 0.23509(13) 0.5974(2)
C24B C 1.1504(4) -0.23678(18) 1.4885(3)
H23B H 1.1052 -0.2585 1.5119
O5_2 O 1.4133(3) 0.19100(13) 0.7100(2)
O5B O 1.5867(3) -0.19100(13) 1.2900(2)
O6_2 O 1.4013(3) 0.22753(15) 0.8401(2)
C25_2 C 1.4463(4) 0.1987(2) 0.7948(3)
H24_2 H 1.5104 0.1813 0.8276
O7_2 O 0.1798(4) 0.41726(17) 0.5533(3)
O8_2 O 0.1844(5) 0.3577(2) 0.4488(3)
C26_2 C 0.1846(5) 0.4018(3) 0.4749(4)
H25_2 H 0.1888 0.4274 0.4321
O9B O 1.4044(3) -0.13352(14) 1.6296(2)
O10B O 1.5040(7) -0.0778(3) 1.5812(3)
C27B C 1.4718(8) -0.1029(3) 1.6419(4)
H26B H 1.5077 -0.0952 1.7037
O12B O 1.3310(5) 0.0129(2) 1.4102(4)
H27B H 1.4429(16) -0.0967(8) 1.4690(12)
H28_2 H 0.117(10) 0.334(4) 0.782(6)
H29B H 1.377(9) 0.041(3) 1.403(7)
H30B H 1.324(10) 0.006(4) 1.473(3)
O11 O 0.6972(3) 0.16881(17) 0.7670(3)
H33 H 0.738(8) 0.198(3) 0.759(8)
H34 H 0.720(9) 0.147(4) 0.818(5)
O13 O 0.1233(5) 0.2750(2) 0.5485(3)
H35 H 0.166(10) 0.247(3) 0.562(10)
H36 H 0.147(11) 0.291(5) 0.505(7)
O14 O 0.1924(7) 0.1687(4) 0.5729(5)
H31 H 0.230(8) 0.151(5) 0.538(8)
H32 H 0.121(4) 0.173(6) 0.571(9)
O15 O 0.7688(12) 0.3495(6) 0.8961(13)
O16 O 0.8435(15) 0.2702(5) 0.7909(9)
loop_
_geom_bond_atom_site_label_1
_geom_bond_atom_site_label_2
_geom_bond_site_symmetry_1
_geom_bond_site_symmetry_2
Cu1 O1 1_555 1_555
Cu2 O1 1_555 1_555
Cu3 O1 1_555 1_555
Cu4 O2 1_555 1_555
Cu5 O2 1_555 1_555
Cu6 O2 1_555 1_555
O1 H27 1_555 1_555
O2 H28 1_555 1_555
N1 Cu1 1_555 1_555
N2 Cu3 1_555 1_555
N3 Cu3 1_555 1_555
N4 Cu2 1_555 1_555
N5 Cu2 1_555 1_555
N6 Cu1 1_555 1_555
N7 Cu5 1_555 1_555
N8 Cu6 1_555 1_555
N9 Cu4 1_555 1_555
N10 Cu6 1_555 1_555
N11 Cu5 1_555 1_555
N12 Cu4 1_555 1_555
C1 N3 1_555 1_555
H1 C1 1_555 1_555
C2 C1 1_555 1_555
H2 C2 1_555 1_555
C3 N4 1_555 1_555
H3 C3 1_555 1_555
C4 N6 1_555 1_555
H4 C4 1_555 1_555
C5 C4 1_555 1_555
H5 C5 1_555 1_555
C6 N5 1_555 1_555
H6 C6 1_555 1_555
C7 N2 1_555 1_555
H7 C7 1_555 1_555
C8 C7 1_555 1_555
H8 C8 1_555 1_555
C9 N1 1_555 1_555
H9 C9 1_555 1_555
C10 N10 1_555 1_555
H10 C10 1_555 1_555
C11 C10 1_555 1_555
H11 C11 1_555 1_555
C12 N9 1_555 1_555
H12 C12 1_555 1_555
C13 N12 1_555 1_555
H13 C13 1_555 1_555
C14 C13 1_555 1_555
H14 C14 1_555 1_555
C15 N11 1_555 1_555
H15 C15 1_555 1_555
C16 N8 1_555 1_555
H16 C16 1_555 1_555
C17 C16 1_555 1_555
H17 C17 1_555 1_555
C18 N7 1_555 1_555
H18 C18 1_555 1_555
N13 Cu2 1_555 1_555
C19 N13 1_555 1_555
H19 C19 1_555 1_555
C20 C19 1_555 1_555
H20 C20 1_555 1_555
C21 C20 1_555 1_555
C22 C21 1_555 1_555
H21 C22 1_555 1_555
C23 N13 1_555 1_555
H22 C23 1_555 1_555
O3 Cu1 1_555 1_555
O4 Cu6 1_555 1_555
C24 O3 1_555 1_555
H23 C24 1_555 1_555
O5 Cu3 1_555 1_555
O6 C25 1_555 1_555
C25 O5 1_555 1_555
H24 C25 1_555 1_555
O7 Cu5 1_555 1_555
O8 C26 1_555 1_555
C26 O7 1_555 1_555
H25 C26 1_555 1_555
O9 Cu1 1_555 1_555
O10 C27 1_555 1_555
C27 O9 1_555 1_555
H26 C27 1_555 1_555
O11 H33 1_555 1_555
O12 Cu2 1_555 1_555
O13 H35 1_555 1_555
O14 H31 1_555 1_555
H29 O12 1_555 1_555
H30 O12 1_555 1_555
H32 O14 1_555 1_555
H34 O11 1_555 1_555
H36 O13 1_555 1_555
Cu1B O1B 1_555 1_555
Cu2B O1B 1_555 1_555
Cu3B O1B 1_555 1_555
Cu3_2 O5_2 1_555 1_555
Cu4_2 O6 1_555 1_555
Cu5_2 O2_2 1_555 1_555
Cu6_2 O2_2 1_555 1_555
Cu6B O4B 1_555 1_555
O1B H27B 1_555 1_555
O2_2 Cu4_2 1_555 1_555
N1B Cu1B 1_555 1_555
N2B Cu3B 1_555 1_555
N3B Cu3B 1_555 1_555
N4B Cu2B 1_555 1_555
N5B Cu2B 1_555 1_555
N6B Cu1B 1_555 1_555
N7_2 Cu5_2 1_555 1_555
N8_2 Cu6_2 1_555 1_555
N9_2 Cu4_2 1_555 1_555
N10_2 Cu6_2 1_555 1_555
N11_2 Cu5_2 1_555 1_555
N12_2 Cu4_2 1_555 1_555
C1B N3B 1_555 1_555
H1B C1B 1_555 1_555
C2B C1B 1_555 1_555
H2B C2B 1_555 1_555
C3B N4B 1_555 1_555
H3B C3B 1_555 1_555
C4B N6B 1_555 1_555
H4B C4B 1_555 1_555
C5B C4B 1_555 1_555
H5B C5B 1_555 1_555
C6B N5B 1_555 1_555
H6B C6B 1_555 1_555
C7B N2B 1_555 1_555
H7B C7B 1_555 1_555
C8B C7B 1_555 1_555
H8B C8B 1_555 1_555
C9B N1B 1_555 1_555
H9B C9B 1_555 1_555
C10_2 N10_2 1_555 1_555
H10_2 C10_2 1_555 1_555
C11_2 C10_2 1_555 1_555
H11_2 C11_2 1_555 1_555
C12_2 N9_2 1_555 1_555
H12_2 C12_2 1_555 1_555
C13_2 N12_2 1_555 1_555
H13_2 C13_2 1_555 1_555
C14_2 C13_2 1_555 1_555
H14_2 C14_2 1_555 1_555
C15_2 N11_2 1_555 1_555
H15_2 C15_2 1_555 1_555
C16_2 N8_2 1_555 1_555
H16_2 C16_2 1_555 1_555
C17_2 C16_2 1_555 1_555
H17_2 C17_2 1_555 1_555
C18_2 N7_2 1_555 1_555
H18_2 C18_2 1_555 1_555
N13B Cu2B 1_555 1_555
C19B N13B 1_555 1_555
H19B C19B 1_555 1_555
C20B C19B 1_555 1_555
H20B C20B 1_555 1_555
C21B C21 1_555 1_555
C22B C21B 1_555 1_555
H21B C22B 1_555 1_555
C23B N13B 1_555 1_555
H22B C23B 1_555 1_555
O3B Cu1B 1_555 1_555
O4B C24B 1_555 1_555
O4_2 Cu6_2 1_555 1_555
C24B O3B 1_555 1_555
H23B C24B 1_555 1_555
O5_2 C25_2 1_555 1_555
O5B Cu3B 1_555 1_555
O6_2 Cu4 1_555 1_555
C25_2 O6_2 1_555 1_555
H24_2 C25_2 1_555 1_555
O7_2 Cu5_2 1_555 1_555
O8_2 C26_2 1_555 1_555
C26_2 O7_2 1_555 1_555
H25_2 C26_2 1_555 1_555
O9B Cu1B 1_555 1_555
O10B C27B 1_555 1_555
C27B O9B 1_555 1_555
H26B C27B 1_555 1_555
O12B Cu2B 1_555 1_555
H28_2 O2_2 1_555 1_555
H29B O12B 1_555 1_555
H30B O12B 1_555 1_555
N1 N2 1_555 1_555
N3 N4 1_555 1_555
N5 N6 1_555 1_555
N7 N8 1_555 1_555
N9 N10 1_555 1_555
N11 N12 1_555 1_555
C2 C3 1_555 1_555
C5 C6 1_555 1_555
C8 C9 1_555 1_555
C11 C12 1_555 1_555
C14 C15 1_555 1_555
C17 C18 1_555 1_555
C22 C23 1_555 1_555
O4 C24 1_555 1_555
N1B N2B 1_555 1_555
N3B N4B 1_555 1_555
N5B N6B 1_555 1_555
N7_2 N8_2 1_555 1_555
N9_2 N10_2 1_555 1_555
N11_2 N12_2 1_555 1_555
C2B C3B 1_555 1_555
C5B C6B 1_555 1_555
C8B C9B 1_555 1_555
C11_2 C12_2 1_555 1_555
C14_2 C15_2 1_555 1_555
C17_2 C18_2 1_555 1_555
C20B C21B 1_555 1_555
C22B C23B 1_555 1_555

#END
