
#######################################################################
#
#                 Cambridge Crystallographic Data Centre
#                                CCDC 
#
#######################################################################
#
# If this CIF has been generated from an entry in the Cambridge 
# Structural Database, then it will include bibliographic, chemical, 
# crystal, experimental, refinement or atomic coordinate data resulting 
# from the CCDC's data processing and validation procedures.
#
#######################################################################

data_KEBCEZ
_symmetry_cell_setting           monoclinic
_symmetry_space_group_name_H-M   'P 21'
_symmetry_Int_Tables_number      4
_space_group_name_Hall           'P 2yb'
loop_
_symmetry_equiv_pos_site_id
_symmetry_equiv_pos_as_xyz
1 x,y,z
2 -x,1/2+y,-z
_cell_length_a                   13.379(3)
_cell_length_b                   21.912(5)
_cell_length_c                   9.870(2)
_cell_angle_alpha                90
_cell_angle_beta                 91.28(4)
_cell_angle_gamma                90
_cell_volume                     2892.77
loop_
_atom_site_label
_atom_site_type_symbol
_atom_site_fract_x
_atom_site_fract_y
_atom_site_fract_z
Nd1 Nd 0.38359(4) 0.00000 0.10337(4)
Nd2 Nd 0.40674(4) 0.01482(3) 0.56687(4)
O1 O 0.2425(5) 0.0602(4) 0.2004(7)
O2 O 0.2782(6) 0.0561(5) 0.4210(8)
O3 O 0.4679(6) 0.0762(4) 0.2389(8)
O4 O 0.4862(6) 0.1065(3) 0.4531(7)
O5 O 0.5320(5) -0.0491(4) 0.2087(7)
O6 O 0.5310(6) -0.0269(4) 0.4294(7)
O7 O 0.3053(6) -0.0722(4) 0.2464(8)
O8 O 0.3248(7) -0.0715(4) 0.4733(9)
O9 O 0.2499(6) -0.0258(4) -0.0554(7)
O10 O 0.2796(5) -0.0004(4) -0.2687(7)
O11 O 0.5003(6) 0.0214(4) -0.0668(7)
O12 O 0.5405(6) 0.0507(4) -0.2794(7)
O13 O 0.3441(6) 0.1012(4) -0.0191(7)
O14 O 0.4198(6) -0.1016(4) -0.0111(8)
O15 O 0.4746(7) -0.0743(4) 0.6989(7)
O16 O 0.3551(6) 0.1161(4) 0.6827(8)
N1 N 0.0682(7) 0.1169(5) 0.2330(10)
N2 N 0.5875(7) 0.2066(4) 0.3920(10)
N3 N 0.7148(7) -0.0974(5) 0.2159(9)
N4 N 0.2086(7) -0.1779(5) 0.2391(9)
N5 N 0.0653(8) -0.0698(6) -0.1365(11)
N6 N 0.7125(9) 0.0980(7) -0.2021(11)
C1 C 0.2258(7) 0.0725(5) 0.3223(11)
C2 C 0.1365(8) 0.1115(6) 0.3547(11)
C3 C 0.0383(14) 0.1839(8) 0.2205(17)
C4 C 0.0953(23) 0.2169(10) 0.3197(28)
C5 C 0.1654(15) 0.1785(7) 0.3890(18)
C6 C 0.4952(7) 0.1129(5) 0.3310(10)
C7 C 0.5434(8) 0.1700(5) 0.2765(10)
C8 C 0.5528(11) 0.2727(6) 0.3769(12)
C9 C 0.4648(23) 0.2678(10) 0.2870(38)
C10 C 0.4617(16) 0.2118(7) 0.2153(15)
C11 C 0.5689(7) -0.0474(5) 0.3266(9)
C12 C 0.6746(9) -0.0760(6) 0.3496(11)
C13 C 0.7440(11) -0.1648(6) 0.2359(14)
C14 C 0.7558(11) -0.1711(7) 0.3924(15)
C15 C 0.6758(12) -0.1303(7) 0.4430(13)
C16 C 0.2990(8) -0.0945(5) 0.3582(11)
C17 C 0.2521(8) -0.1581(5) 0.3687(11)
C18 C 0.1326(11) -0.2238(8) 0.2647(17)
C19 C 0.0958(10) -0.2117(7) 0.3998(17)
C20 C 0.1628(10) -0.1625(7) 0.4667(13)
C21 C 0.2237(8) -0.0138(5) -0.1738(10)
C22 C 0.1099(9) -0.0136(5) -0.2008(10)
C23 C 0.0129(11) -0.1061(7) -0.2440(15)
C24 C -0.0162(10) -0.0564(9) -0.3470(14)
C25 C 0.0746(10) -0.0154(7) -0.3464(11)
C26 C 0.5538(7) 0.0490(5) -0.1528(9)
C27 C 0.6402(8) 0.0858(5) -0.0944(10)
C28 C 0.8187(11) 0.0915(13) -0.1433(19)
C29 C 0.8063(12) 0.0874(9) 0.0076(18)
C30 C 0.7046(11) 0.0566(7) 0.0206(13)
H1 H 0.283 0.124 0.0001
H2 H 0.382 0.118 0.088
H3 H 0.393 -0.113 -0.093
H4 H 0.454 -0.1247 0.026
H5 H 0.463 -0.082 0.769
H6 H 0.504 -0.101 0.661
H7 H 0.383 0.150 0.671
H8 H 0.300 0.127 0.701
H9 H 0.104 0.092 0.434
H10 H 0.008 0.091 0.246
H11 H 0.104 0.105 0.151
H12 H -0.038 0.188 0.223
H13 H 0.062 0.202 0.137
H14 H 0.025 0.224 0.405
H15 H 0.099 0.260 0.302
H16 H 0.232 0.191 0.342
H17 H 0.179 0.186 0.489
H18 H 0.593 0.158 0.212
H19 H 0.663 0.205 0.390
H20 H 0.566 0.190 0.482
H21 H 0.602 0.296 0.327
H22 H 0.546 0.291 0.472
H23 H 0.439 0.303 0.250
H24 H 0.398 0.261 0.374
H25 H 0.394 0.189 0.220
H26 H 0.475 0.224 0.126
H27 H 0.717 -0.043 0.393
H28 H 0.775 -0.073 0.192
H29 H 0.662 -0.094 0.144
H30 H 0.810 -0.173 0.194
H31 H 0.692 -0.192 0.199
H32 H 0.822 -0.158 0.427
H33 H 0.742 -0.215 0.421
H34 H 0.609 -0.151 0.443
H35 H 0.691 -0.117 0.541
H36 H 0.308 -0.184 0.403
H37 H 0.261 -0.198 0.185
H38 H 0.181 -0.142 0.188
H39 H 0.157 -0.262 0.257
H40 H 0.074 -0.213 0.202
H41 H 0.101 -0.250 0.461
H42 H 0.024 -0.197 0.408
H43 H 0.130 -0.122 0.482
H44 H 0.192 -0.176 0.564
H45 H 0.087 0.026 -0.162
H46 H 0.017 -0.058 -0.067
H47 H 0.120 -0.095 -0.095
H48 H -0.046 -0.127 -0.208
H49 H 0.060 -0.137 -0.283
H50 H -0.076 -0.035 -0.319
H51 H -0.027 -0.076 -0.439
H52 H 0.130 -0.031 -0.406
H53 H 0.057 0.027 -0.379
H54 H 0.605 0.122 -0.056
H55 H 0.701 0.140 -0.238
H56 H 0.702 0.068 -0.276
H57 H 0.859 0.129 -0.164
H58 H 0.853 0.055 -0.178
H59 H 0.803 0.128 0.055
H60 H 0.857 0.061 0.055
H61 H 0.712 0.012 0.004
H62 H 0.676 0.064 0.110
O10_2 O 0.2796(5) -0.0004(4) 0.7313(7)
O12_2 O 0.5405(6) 0.0507(4) 0.7206(7)
Nd2_2 Nd 0.40674(4) 0.01482(3) -0.43313(4)
Cl1 Cl 0.8039(3) 0.0969(2) 0.4563(3)
O17 O 0.7675(8) 0.1511(5) 0.5228(11)
O18 O 0.9029(10) 0.1061(9) 0.4220(25)
O19 O 0.7421(11) 0.0881(9) 0.3371(12)
O20 O 0.7935(10) 0.0461(6) 0.5449(11)
Cl2 Cl 0.7801(3) 0.2786(2) 0.1172(3)
O21 O 0.8770(9) 0.2820(8) 0.0713(14)
O22 O 0.7163(12) 0.2615(10) 0.0062(15)
O23 O 0.7499(11) 0.3385(6) 0.1559(19)
O24 O 0.7754(10) 0.2418(7) 0.2299(12)
Cl3 Cl 0.2676(3) 0.3923(2) 0.1434(3)
O25 O 0.3306(7) 0.3752(7) 0.0614(10)
O26 O 0.2997(10) 0.4414(6) 0.2341(11)
O27 O 0.2366(8) 0.3425(6) 0.2195(11)
O28 O 0.1908(8) 0.4151(6) 0.0537(10)
Cl4 Cl -0.0046(2) 0.4535(2) 0.7861(3)
O29 O 0.0043(8) 0.4994(6) 0.8862(9)
O30 O 0.0892(8) 0.4418(8) 0.7326(12)
O31 O -0.0680(8) 0.4757(5) 0.6813(9)
O32 O -0.0434(11) 0.3989(5) 0.8460(10)
Cl5 Cl 0.1106(3) 0.1684(2) 0.8326(4)
O33 O 0.1865(23) 0.1872(15) 0.9214(30)
O34 O 0.1583(14) 0.1448(16) 0.7288(18)
O35 O 0.0565(20) 0.2127(19) 0.8209(39)
O36 O 0.0729(25) 0.1303(11) 0.9203(19)
Cl6 Cl 0.5255(2) 0.2403(1) 0.7644(3)
O37 O 0.5322(8) 0.3051(5) 0.7859(11)
O38 O 0.4522(7) 0.2304(4) 0.6573(9)
O39 O 0.6220(7) 0.2203(5) 0.7206(10)
O40 O 0.4949(8) 0.2061(5) 0.8786(10)
loop_
_geom_bond_atom_site_label_1
_geom_bond_atom_site_label_2
_geom_bond_site_symmetry_1
_geom_bond_site_symmetry_2
Nd1 O1 1_555 1_555
Nd2 O2 1_555 1_555
Cl1 O17 1_555 1_555
Cl2 O21 1_555 1_555
Cl3 O25 1_555 1_555
Cl4 O29 1_555 1_555
Cl5 O33 1_555 1_555
Cl6 O37 1_555 1_555
O1 C1 1_555 1_555
O2 C1 1_555 1_555
O3 Nd1 1_555 1_555
O4 Nd2 1_555 1_555
O5 Nd1 1_555 1_555
O6 Nd2 1_555 1_555
O7 Nd1 1_555 1_555
O8 Nd2 1_555 1_555
O9 Nd1 1_555 1_555
O10 C21 1_555 1_555
O11 Nd1 1_555 1_555
O12 C26 1_555 1_555
O13 Nd1 1_555 1_555
O14 Nd1 1_555 1_555
O15 Nd2 1_555 1_555
O16 Nd2 1_555 1_555
O18 Cl1 1_555 1_555
O19 Cl1 1_555 1_555
O20 Cl1 1_555 1_555
O22 Cl2 1_555 1_555
O23 Cl2 1_555 1_555
O24 Cl2 1_555 1_555
O26 Cl3 1_555 1_555
O27 Cl3 1_555 1_555
O28 Cl3 1_555 1_555
O30 Cl4 1_555 1_555
O31 Cl4 1_555 1_555
O32 Cl4 1_555 1_555
O34 Cl5 1_555 1_555
O35 Cl5 1_555 1_555
O36 Cl5 1_555 1_555
O38 Cl6 1_555 1_555
O39 Cl6 1_555 1_555
O40 Cl6 1_555 1_555
N1 C2 1_555 1_555
N2 C7 1_555 1_555
N3 C12 1_555 1_555
N4 C17 1_555 1_555
N5 C22 1_555 1_555
N6 C27 1_555 1_555
C1 C2 1_555 1_555
C2 C5 1_555 1_555
C3 N1 1_555 1_555
C4 C3 1_555 1_555
C5 C4 1_555 1_555
C6 O3 1_555 1_555
C7 C6 1_555 1_555
C8 N2 1_555 1_555
C9 C8 1_555 1_555
C10 C7 1_555 1_555
C11 O5 1_555 1_555
C12 C11 1_555 1_555
C13 N3 1_555 1_555
C14 C13 1_555 1_555
C15 C12 1_555 1_555
C16 O7 1_555 1_555
C17 C16 1_555 1_555
C18 N4 1_555 1_555
C19 C18 1_555 1_555
C20 C17 1_555 1_555
C21 O9 1_555 1_555
C22 C21 1_555 1_555
C23 N5 1_555 1_555
C24 C23 1_555 1_555
C25 C22 1_555 1_555
C26 O11 1_555 1_555
C27 C26 1_555 1_555
C28 N6 1_555 1_555
C29 C28 1_555 1_555
C30 C27 1_555 1_555
H1 O13 1_555 1_555
H2 O13 1_555 1_555
H3 O14 1_555 1_555
H4 O14 1_555 1_555
H5 O15 1_555 1_555
H6 O15 1_555 1_555
H7 O16 1_555 1_555
H8 O16 1_555 1_555
H9 C2 1_555 1_555
H10 N1 1_555 1_555
H11 N1 1_555 1_555
H12 C3 1_555 1_555
H13 C3 1_555 1_555
H14 C4 1_555 1_555
H15 C4 1_555 1_555
H16 C5 1_555 1_555
H17 C5 1_555 1_555
H18 C7 1_555 1_555
H19 N2 1_555 1_555
H20 N2 1_555 1_555
H21 C8 1_555 1_555
H22 C8 1_555 1_555
H23 C9 1_555 1_555
H24 C9 1_555 1_555
H25 C10 1_555 1_555
H26 C10 1_555 1_555
H27 C12 1_555 1_555
H28 N3 1_555 1_555
H29 N3 1_555 1_555
H30 C13 1_555 1_555
H31 C13 1_555 1_555
H32 C14 1_555 1_555
H33 C14 1_555 1_555
H34 C15 1_555 1_555
H35 C15 1_555 1_555
H36 C17 1_555 1_555
H37 N4 1_555 1_555
H38 N4 1_555 1_555
H39 C18 1_555 1_555
H40 C18 1_555 1_555
H41 C19 1_555 1_555
H42 C19 1_555 1_555
H43 C20 1_555 1_555
H44 C20 1_555 1_555
H45 C22 1_555 1_555
H46 N5 1_555 1_555
H47 N5 1_555 1_555
H48 C23 1_555 1_555
H49 C23 1_555 1_555
H50 C24 1_555 1_555
H51 C24 1_555 1_555
H52 C25 1_555 1_555
H53 C25 1_555 1_555
H54 C27 1_555 1_555
H55 N6 1_555 1_555
H56 N6 1_555 1_555
H57 C28 1_555 1_555
H58 C28 1_555 1_555
H59 C29 1_555 1_555
H60 C29 1_555 1_555
H61 C30 1_555 1_555
H62 C30 1_555 1_555
O10_2 Nd2 1_555 1_555
O12_2 Nd2 1_555 1_555
Nd2_2 O10 1_555 1_555
O4 C6 1_555 1_555
O6 C11 1_555 1_555
O8 C16 1_555 1_555
O12 Nd2_2 1_555 1_555
C9 C10 1_555 1_555
C14 C15 1_555 1_555
C19 C20 1_555 1_555
C24 C25 1_555 1_555
C29 C30 1_555 1_555

#END
