
#######################################################################
#
#                 Cambridge Crystallographic Data Centre
#                                CCDC 
#
#######################################################################
#
# If this CIF has been generated from an entry in the Cambridge 
# Structural Database, then it will include bibliographic, chemical, 
# crystal, experimental, refinement or atomic coordinate data resulting 
# from the CCDC's data processing and validation procedures.
#
#######################################################################

data_KEBDOM
_symmetry_cell_setting           triclinic
_symmetry_space_group_name_H-M   'P -1'
_symmetry_Int_Tables_number      2
_space_group_name_Hall           '-P 1'
loop_
_symmetry_equiv_pos_site_id
_symmetry_equiv_pos_as_xyz
1 x,y,z
2 -x,-y,-z
_cell_length_a                   13.611(5)
_cell_length_b                   14.580(6)
_cell_length_c                   15.041(4)
_cell_angle_alpha                71.922(3)
_cell_angle_beta                 65.006(4)
_cell_angle_gamma                80.586(6)
_cell_volume                     2569.96
loop_
_atom_site_label
_atom_site_type_symbol
_atom_site_fract_x
_atom_site_fract_y
_atom_site_fract_z
Mn1 Mn 0.71966(9) 0.18142(7) 0.92484(8)
Mn2 Mn 0.5000 0.0000 1.0000
O1 O 0.7909(4) 0.0694(3) 1.0180(4)
O2 O 0.6259(5) 0.0375(3) 1.0481(4)
O3 O 0.5910(5) 0.2577(4) 0.8907(4)
O4 O 0.4600(5) 0.1491(3) 0.9665(5)
O5 O 0.6197(5) 0.0219(4) 0.8481(4)
O6 O 0.7583(4) 0.1117(4) 0.8076(4)
N1 N 0.9363(5) -0.2330(4) 1.2138(4)
N2 N 1.1145(5) -0.2411(4) 1.1635(5)
N3 N 0.5509(5) -0.2854(4) 1.3149(5)
N4 N 0.3758(7) -0.3113(6) 1.4138(7)
N5 N 0.3652(5) 0.5720(4) 0.9402(5)
N6 N 0.3358(5) 0.7177(4) 0.9706(5)
N7 N 0.1108(6) 0.3351(4) 1.0122(5)
N8 N -0.0545(6) 0.3479(5) 1.0113(6)
N9 N 0.9486(5) 0.1740(5) 0.4230(5)
N10 N 1.1212(7) 0.2140(6) 0.3275(7)
N11 N 0.6739(6) -0.0594(5) 0.5335(5)
N12 N 0.6564(7) -0.1766(5) 0.4752(6)
C1 C 0.7133(7) 0.0137(5) 1.0624(5)
C2 C 0.7210(6) -0.0818(5) 1.1329(5)
C3 C 0.6343(7) -0.1393(5) 1.1904(5)
H1 H 0.5675 -0.1178 1.1871
C4 C 0.6439(6) -0.2294(5) 1.2542(5)
C5 C 0.7433(6) -0.2618(5) 1.2606(5)
H2 H 0.7504 -0.3226 1.3022
C6 C 0.8330(6) -0.2025(5) 1.2040(5)
C7 C 0.8230(6) -0.1125(5) 1.1399(5)
H3 H 0.8821 -0.0729 1.1021
C8 C 0.4502(7) -0.2476(6) 1.3626(7)
H4 H 0.4361 -0.1822 1.3588
C9 C 0.5395(7) -0.3835(5) 1.3358(6)
C10 C 0.4297(7) -0.3979(6) 1.3973(7)
C11 C 0.3880(8) -0.4900(7) 1.4322(8)
H5 H 0.3149 -0.5005 1.4728
C12 C 0.4601(10) -0.5649(7) 1.4039(8)
H6 H 0.4356 -0.6274 1.4275
C13 C 0.5682(9) -0.5480(6) 1.3407(8)
H7 H 0.6143 -0.5996 1.3221
C14 C 0.6098(8) -0.4578(5) 1.3045(6)
H8 H 0.6821 -0.4472 1.2608
C15 C 1.0328(6) -0.2088(5) 1.1364(6)
H9 H 1.0406 -0.1731 1.0709
C16 C 0.9534(7) -0.2843(5) 1.2992(6)
C17 C 0.8856(8) -0.3222(6) 1.4036(6)
H10 H 0.8104 -0.3172 1.4268
C18 C 0.9363(10) -0.3663(7) 1.4679(7)
H11 H 0.8941 -0.3918 1.5366
C19 C 1.0484(9) -0.3745(7) 1.4352(8)
H12 H 1.0796 -0.4068 1.4813
C20 C 1.1132(8) -0.3356(6) 1.3355(7)
H13 H 1.1883 -0.3399 1.3136
C21 C 1.0650(7) -0.2894(5) 1.2673(6)
C22 C 0.4957(7) 0.2337(5) 0.9321(6)
C23 C 0.4050(6) 0.3130(5) 0.9448(6)
C24 C 0.4283(7) 0.4055(5) 0.9358(6)
H14 H 0.4984 0.4201 0.9213
C25 C 0.3451(6) 0.4758(5) 0.9489(5)
C26 C 0.2381(6) 0.4541(5) 0.9740(6)
H15 H 0.1827 0.5015 0.9829
C27 C 0.2173(7) 0.3603(5) 0.9853(6)
C28 C 0.2995(6) 0.2893(5) 0.9694(6)
H16 H 0.2846 0.2273 0.9751
C29 C 0.2976(6) 0.6336(5) 0.9921(6)
H17 H 0.2280 0.6172 1.0401
C30 C 0.4618(6) 0.6219(5) 0.8750(6)
C31 C 0.5582(7) 0.5976(5) 0.8041(6)
H18 H 0.5697 0.5387 0.7885
C32 C 0.6371(7) 0.6655(6) 0.7573(7)
H19 H 0.7047 0.6509 0.7108
C33 C 0.6191(8) 0.7549(6) 0.7773(7)
H20 H 0.6746 0.7985 0.7440
C34 C 0.5198(6) 0.7806(5) 0.8461(6)
H21 H 0.5069 0.8413 0.8577
C35 C 0.4415(6) 0.7127(5) 0.8962(6)
C36 C 0.0363(8) 0.3902(6) 0.9764(7)
H22 H 0.0496 0.4517 0.9317
C37 C -0.0416(7) 0.2574(6) 1.0734(7)
C38 C -0.1116(8) 0.1819(7) 1.1273(7)
H23 H -0.1814 0.1883 1.1289
C39 C -0.0762(7) 0.0983(7) 1.1779(7)
H24 H -0.1215 0.0462 1.2120
C40 C 0.0253(8) 0.0888(7) 1.1799(8)
H25 H 0.0460 0.0306 1.2165
C41 C 0.0976(8) 0.1631(6) 1.1293(7)
H26 H 0.1658 0.1572 1.1311
C42 C 0.0607(7) 0.2467(6) 1.0757(6)
C43 C 0.7062(7) 0.0655(5) 0.7890(5)
C44 C 0.7436(7) 0.0642(5) 0.6772(5)
C45 C 0.8284(7) 0.1201(5) 0.6021(6)
H27 H 0.8644 0.1580 0.6176
C46 C 0.8582(6) 0.1175(6) 0.5017(6)
C47 C 0.8106(7) 0.0596(6) 0.4767(6)
H28 H 0.8346 0.0577 0.4095
C48 C 0.7240(7) 0.0023(5) 0.5546(6)
C49 C 0.6948(6) 0.0048(5) 0.6547(5)
H29 H 0.6408 -0.0349 0.7073
C50 C 1.0560(7) 0.1464(8) 0.3938(8)
H30 H 1.0803 0.0846 0.4194
C51 C 0.9460(7) 0.2723(6) 0.3713(6)
C52 C 0.8606(9) 0.3401(7) 0.3719(8)
H31 H 0.7884 0.3238 0.4088
C53 C 0.8903(10) 0.4321(8) 0.3147(10)
H32 H 0.8365 0.4807 0.3165
C54 C 0.9974(11) 0.4557(8) 0.2540(9)
H33 H 1.0125 0.5189 0.2142
C55 C 1.0812(10) 0.3897(8) 0.2508(7)
H34 H 1.1530 0.4061 0.2107
C56 C 1.0525(8) 0.2954(7) 0.3116(6)
C57 C 0.7220(8) -0.1210(6) 0.4733(7)
H35 H 0.7962 -0.1225 0.4341
C58 C 0.5535(8) -0.1524(6) 0.5432(7)
C59 C 0.4516(8) -0.1881(6) 0.5751(8)
H36 H 0.4433 -0.2358 0.5499
C60 C 0.3641(8) -0.1518(7) 0.6442(8)
H37 H 0.2961 -0.1765 0.6678
C61 C 0.3755(7) -0.0777(7) 0.6798(7)
H38 H 0.3144 -0.0534 0.7257
C62 C 0.4754(8) -0.0396(6) 0.6486(6)
H39 H 0.4822 0.0099 0.6723
C63 C 0.5649(7) -0.0783(5) 0.5806(6)
Mn1A Mn 0.28034(9) -0.18142(7) 1.07516(8)
Mn1A_2 Mn 1.28034(9) -0.18142(7) 1.07516(8)
Mn1A_3 Mn 0.28034(9) 0.81858(7) 1.07516(8)
Mn1_2 Mn -0.28034(9) 0.18142(7) 0.92484(8)
Mn1_3 Mn 0.71966(9) -0.81858(7) 0.92484(8)
O1A O 0.2091(4) -0.0694(3) 0.9820(4)
O2A O 0.3741(5) -0.0375(3) 0.9519(4)
O3A O 0.4090(5) -0.2577(4) 1.1093(4)
O4A O 0.5400(5) -0.1491(3) 1.0335(5)
O5A O 0.3803(5) -0.0219(4) 1.1519(4)
O6A O 0.2417(4) -0.1117(4) 1.1924(4)
N1A N 0.0637(5) 0.2330(4) 0.7862(4)
N2A N -0.1145(5) 0.2411(4) 0.8365(5)
N2A_2 N 0.8855(5) 0.2411(4) 0.8365(5)
N2_2 N 0.1145(5) -0.2411(4) 1.1635(5)
N3A N 0.4491(5) 0.2854(4) 0.6851(5)
N4A N 0.6242(7) 0.3113(6) 0.5862(7)
N5A N 0.6348(5) -0.5720(4) 1.0598(5)
N6A N 0.6642(5) -0.7177(4) 1.0294(5)
N6A_2 N 0.6642(5) 0.2823(4) 1.0294(5)
N6_2 N 0.3358(5) -0.2823(4) 0.9706(5)
N7A N 0.8892(6) -0.3351(4) 0.9878(5)
N8A N 1.0545(6) -0.3479(5) 0.9887(6)
N9A N 0.0514(5) -0.1740(5) 1.5770(5)
N10A N -0.1212(7) -0.2140(6) 1.6725(7)
N11A N 0.3261(6) 0.0594(5) 1.4665(5)
N12A N 0.3436(7) 0.1766(5) 1.5248(6)
C1A C 0.2867(7) -0.0137(5) 0.9376(5)
C2A C 0.2790(6) 0.0818(5) 0.8671(5)
C3A C 0.3657(7) 0.1393(5) 0.8096(5)
H1A H 0.4325 0.1178 0.8129
C4A C 0.3561(6) 0.2294(5) 0.7458(5)
C5A C 0.2567(6) 0.2618(5) 0.7394(5)
H2A H 0.2496 0.3226 0.6978
C6A C 0.1670(6) 0.2025(5) 0.7960(5)
C7A C 0.1770(6) 0.1125(5) 0.8601(5)
H3A H 0.1179 0.0729 0.8979
C8A C 0.5498(7) 0.2476(6) 0.6374(7)
H4A H 0.5639 0.1822 0.6412
C9A C 0.4605(7) 0.3835(5) 0.6642(6)
C10A C 0.5703(7) 0.3979(6) 0.6027(7)
C11A C 0.6120(8) 0.4900(7) 0.5678(8)
H5A H 0.6851 0.5005 0.5272
C12A C 0.5399(10) 0.5649(7) 0.5961(8)
H6A H 0.5644 0.6274 0.5725
C13A C 0.4318(9) 0.5480(6) 0.6593(8)
H7A H 0.3857 0.5996 0.6779
C14A C 0.3902(8) 0.4578(5) 0.6955(6)
H8A H 0.3179 0.4472 0.7392
C15A C -0.0328(6) 0.2088(5) 0.8636(6)
H9A H -0.0406 0.1731 0.9291
C16A C 0.0466(7) 0.2843(5) 0.7008(6)
C17A C 0.1144(8) 0.3222(6) 0.5964(6)
H10A H 0.1896 0.3172 0.5732
C18A C 0.0637(10) 0.3663(7) 0.5321(7)
H11A H 0.1059 0.3918 0.4634
C19A C -0.0484(9) 0.3745(7) 0.5648(8)
H12A H -0.0796 0.4068 0.5187
C20A C -0.1132(8) 0.3356(6) 0.6645(7)
H13A H -0.1883 0.3399 0.6864
C21A C -0.0650(7) 0.2894(5) 0.7327(6)
C22A C 0.5043(7) -0.2337(5) 1.0679(6)
C23A C 0.5950(6) -0.3130(5) 1.0552(6)
C24A C 0.5717(7) -0.4055(5) 1.0642(6)
H14A H 0.5016 -0.4201 1.0787
C25A C 0.6549(6) -0.4758(5) 1.0511(5)
C26A C 0.7619(6) -0.4541(5) 1.0260(6)
H15A H 0.8173 -0.5015 1.0171
C27A C 0.7827(7) -0.3603(5) 1.0147(6)
C28A C 0.7005(6) -0.2893(5) 1.0306(6)
H16A H 0.7154 -0.2273 1.0249
C29A C 0.7024(6) -0.6336(5) 1.0079(6)
H17A H 0.7720 -0.6172 0.9599
C30A C 0.5382(6) -0.6219(5) 1.1250(6)
C31A C 0.4418(7) -0.5976(5) 1.1959(6)
H18A H 0.4303 -0.5387 1.2115
C32A C 0.3629(7) -0.6655(6) 1.2427(7)
H19A H 0.2953 -0.6509 1.2892
C33A C 0.3809(8) -0.7549(6) 1.2227(7)
H20A H 0.3254 -0.7985 1.2560
C34A C 0.4802(6) -0.7806(5) 1.1539(6)
H21A H 0.4931 -0.8413 1.1423
C35A C 0.5585(6) -0.7127(5) 1.1038(6)
C36A C 0.9637(8) -0.3902(6) 1.0236(7)
H22A H 0.9504 -0.4517 1.0683
C37A C 1.0416(7) -0.2574(6) 0.9266(7)
C38A C 1.1116(8) -0.1819(7) 0.8727(7)
H23A H 1.1814 -0.1883 0.8711
C39A C 1.0762(7) -0.0983(7) 0.8221(7)
H24A H 1.1215 -0.0462 0.7880
C40A C 0.9747(8) -0.0888(7) 0.8201(8)
H25A H 0.9540 -0.0306 0.7835
C41A C 0.9024(8) -0.1631(6) 0.8707(7)
H26A H 0.8342 -0.1572 0.8689
C42A C 0.9393(7) -0.2467(6) 0.9243(6)
C43A C 0.2938(7) -0.0655(5) 1.2110(5)
C44A C 0.2564(7) -0.0642(5) 1.3228(5)
C45A C 0.1716(7) -0.1201(5) 1.3979(6)
H27A H 0.1356 -0.1580 1.3824
C46A C 0.1418(6) -0.1175(6) 1.4983(6)
C47A C 0.1894(7) -0.0596(6) 1.5233(6)
H28A H 0.1654 -0.0577 1.5905
C48A C 0.2760(7) -0.0023(5) 1.4454(6)
C49A C 0.3052(6) -0.0048(5) 1.3453(5)
H29A H 0.3592 0.0349 1.2927
C50A C -0.0560(7) -0.1464(8) 1.6062(8)
H30A H -0.0803 -0.0846 1.5806
C51A C 0.0540(7) -0.2723(6) 1.6287(6)
C52A C 0.1394(9) -0.3401(7) 1.6281(8)
H31A H 0.2116 -0.3238 1.5912
C53A C 0.1097(10) -0.4321(8) 1.6853(10)
H32A H 0.1635 -0.4807 1.6835
C54A C 0.0026(11) -0.4557(8) 1.7460(9)
H33A H -0.0125 -0.5189 1.7858
C55A C -0.0812(10) -0.3897(8) 1.7492(7)
H34A H -0.1530 -0.4061 1.7893
C56A C -0.0525(8) -0.2954(7) 1.6884(6)
C57A C 0.2780(8) 0.1210(6) 1.5267(7)
H35A H 0.2038 0.1225 1.5659
C58A C 0.4465(8) 0.1524(6) 1.4568(7)
C59A C 0.5484(8) 0.1881(6) 1.4249(8)
H36A H 0.5567 0.2358 1.4501
C60A C 0.6359(8) 0.1518(7) 1.3558(8)
H37A H 0.7039 0.1765 1.3322
C61A C 0.6245(7) 0.0777(7) 1.3202(7)
H38A H 0.6856 0.0534 1.2743
C62A C 0.5246(8) 0.0396(6) 1.3514(6)
H39A H 0.5178 -0.0099 1.3277
C63A C 0.4351(7) 0.0783(5) 1.4194(6)
loop_
_geom_bond_atom_site_label_1
_geom_bond_atom_site_label_2
_geom_bond_site_symmetry_1
_geom_bond_site_symmetry_2
Mn1 O1 1_555 1_555
Mn2 O2 1_555 1_555
O1 C1 1_555 1_555
O2 Mn1 1_555 1_555
O3 Mn1 1_555 1_555
O4 Mn2 1_555 1_555
O5 Mn2 1_555 1_555
O6 Mn1 1_555 1_555
N1 C6 1_555 1_555
N2 C15 1_555 1_555
N3 C4 1_555 1_555
N4 C8 1_555 1_555
N5 C25 1_555 1_555
N6 C29 1_555 1_555
N7 C27 1_555 1_555
N8 C36 1_555 1_555
N9 C46 1_555 1_555
N10 C50 1_555 1_555
N11 C48 1_555 1_555
N12 C57 1_555 1_555
C1 O2 1_555 1_555
C2 C1 1_555 1_555
C3 C2 1_555 1_555
H1 C3 1_555 1_555
C4 C3 1_555 1_555
C5 C4 1_555 1_555
H2 C5 1_555 1_555
C6 C5 1_555 1_555
C7 C2 1_555 1_555
H3 C7 1_555 1_555
C8 N3 1_555 1_555
H4 C8 1_555 1_555
C9 N3 1_555 1_555
C10 N4 1_555 1_555
C11 C10 1_555 1_555
H5 C11 1_555 1_555
C12 C11 1_555 1_555
H6 C12 1_555 1_555
C13 C12 1_555 1_555
H7 C13 1_555 1_555
C14 C9 1_555 1_555
H8 C14 1_555 1_555
C15 N1 1_555 1_555
H9 C15 1_555 1_555
C16 N1 1_555 1_555
C17 C16 1_555 1_555
H10 C17 1_555 1_555
C18 C17 1_555 1_555
H11 C18 1_555 1_555
C19 C18 1_555 1_555
H12 C19 1_555 1_555
C20 C19 1_555 1_555
H13 C20 1_555 1_555
C21 N2 1_555 1_555
C22 O3 1_555 1_555
C23 C22 1_555 1_555
C24 C23 1_555 1_555
H14 C24 1_555 1_555
C25 C24 1_555 1_555
C26 C25 1_555 1_555
H15 C26 1_555 1_555
C27 C26 1_555 1_555
C28 C23 1_555 1_555
H16 C28 1_555 1_555
C29 N5 1_555 1_555
H17 C29 1_555 1_555
C30 N5 1_555 1_555
C31 C30 1_555 1_555
H18 C31 1_555 1_555
C32 C31 1_555 1_555
H19 C32 1_555 1_555
C33 C32 1_555 1_555
H20 C33 1_555 1_555
C34 C33 1_555 1_555
H21 C34 1_555 1_555
C35 N6 1_555 1_555
C36 N7 1_555 1_555
H22 C36 1_555 1_555
C37 N8 1_555 1_555
C38 C37 1_555 1_555
H23 C38 1_555 1_555
C39 C38 1_555 1_555
H24 C39 1_555 1_555
C40 C39 1_555 1_555
H25 C40 1_555 1_555
C41 C40 1_555 1_555
H26 C41 1_555 1_555
C42 N7 1_555 1_555
C43 O5 1_555 1_555
C44 C43 1_555 1_555
C45 C44 1_555 1_555
H27 C45 1_555 1_555
C46 C45 1_555 1_555
C47 C46 1_555 1_555
H28 C47 1_555 1_555
C48 C47 1_555 1_555
C49 C44 1_555 1_555
H29 C49 1_555 1_555
C50 N9 1_555 1_555
H30 C50 1_555 1_555
C51 N9 1_555 1_555
C52 C51 1_555 1_555
H31 C52 1_555 1_555
C53 C52 1_555 1_555
H32 C53 1_555 1_555
C54 C53 1_555 1_555
H33 C54 1_555 1_555
C55 C54 1_555 1_555
H34 C55 1_555 1_555
C56 N10 1_555 1_555
C57 N11 1_555 1_555
H35 C57 1_555 1_555
C58 N12 1_555 1_555
C59 C58 1_555 1_555
H36 C59 1_555 1_555
C60 C59 1_555 1_555
H37 C60 1_555 1_555
C61 C60 1_555 1_555
H38 C61 1_555 1_555
C62 C61 1_555 1_555
H39 C62 1_555 1_555
C63 N11 1_555 1_555
Mn1A O1A 1_555 1_555
Mn1A_2 N2 1_555 1_555
Mn1A_3 N6 1_555 1_555
Mn1_2 N2A 1_555 1_555
Mn1_3 N6A 1_555 1_555
O1A C1A 1_555 1_555
O2A Mn2 1_555 1_555
O3A Mn1A 1_555 1_555
O4A Mn2 1_555 1_555
O5A Mn2 1_555 1_555
O6A Mn1A 1_555 1_555
N1A C6A 1_555 1_555
N2A C15A 1_555 1_555
N2A_2 Mn1 1_555 1_555
N2_2 Mn1A 1_555 1_555
N3A C4A 1_555 1_555
N4A C8A 1_555 1_555
N5A C25A 1_555 1_555
N6A C29A 1_555 1_555
N6A_2 Mn1 1_555 1_555
N6_2 Mn1A 1_555 1_555
N7A C27A 1_555 1_555
N8A C36A 1_555 1_555
N9A C46A 1_555 1_555
N10A C50A 1_555 1_555
N11A C48A 1_555 1_555
N12A C57A 1_555 1_555
C1A O2A 1_555 1_555
C2A C1A 1_555 1_555
C3A C2A 1_555 1_555
H1A C3A 1_555 1_555
C4A C3A 1_555 1_555
C5A C4A 1_555 1_555
H2A C5A 1_555 1_555
C6A C5A 1_555 1_555
C7A C2A 1_555 1_555
H3A C7A 1_555 1_555
C8A N3A 1_555 1_555
H4A C8A 1_555 1_555
C9A N3A 1_555 1_555
C10A N4A 1_555 1_555
C11A C10A 1_555 1_555
H5A C11A 1_555 1_555
C12A C11A 1_555 1_555
H6A C12A 1_555 1_555
C13A C12A 1_555 1_555
H7A C13A 1_555 1_555
C14A C9A 1_555 1_555
H8A C14A 1_555 1_555
C15A N1A 1_555 1_555
H9A C15A 1_555 1_555
C16A N1A 1_555 1_555
C17A C16A 1_555 1_555
H10A C17A 1_555 1_555
C18A C17A 1_555 1_555
H11A C18A 1_555 1_555
C19A C18A 1_555 1_555
H12A C19A 1_555 1_555
C20A C19A 1_555 1_555
H13A C20A 1_555 1_555
C21A N2A 1_555 1_555
C22A O3A 1_555 1_555
C23A C22A 1_555 1_555
C24A C23A 1_555 1_555
H14A C24A 1_555 1_555
C25A C24A 1_555 1_555
C26A C25A 1_555 1_555
H15A C26A 1_555 1_555
C27A C26A 1_555 1_555
C28A C23A 1_555 1_555
H16A C28A 1_555 1_555
C29A N5A 1_555 1_555
H17A C29A 1_555 1_555
C30A N5A 1_555 1_555
C31A C30A 1_555 1_555
H18A C31A 1_555 1_555
C32A C31A 1_555 1_555
H19A C32A 1_555 1_555
C33A C32A 1_555 1_555
H20A C33A 1_555 1_555
C34A C33A 1_555 1_555
H21A C34A 1_555 1_555
C35A N6A 1_555 1_555
C36A N7A 1_555 1_555
H22A C36A 1_555 1_555
C37A N8A 1_555 1_555
C38A C37A 1_555 1_555
H23A C38A 1_555 1_555
C39A C38A 1_555 1_555
H24A C39A 1_555 1_555
C40A C39A 1_555 1_555
H25A C40A 1_555 1_555
C41A C40A 1_555 1_555
H26A C41A 1_555 1_555
C42A N7A 1_555 1_555
C43A O5A 1_555 1_555
C44A C43A 1_555 1_555
C45A C44A 1_555 1_555
H27A C45A 1_555 1_555
C46A C45A 1_555 1_555
C47A C46A 1_555 1_555
H28A C47A 1_555 1_555
C48A C47A 1_555 1_555
C49A C44A 1_555 1_555
H29A C49A 1_555 1_555
C50A N9A 1_555 1_555
H30A C50A 1_555 1_555
C51A N9A 1_555 1_555
C52A C51A 1_555 1_555
H31A C52A 1_555 1_555
C53A C52A 1_555 1_555
H32A C53A 1_555 1_555
C54A C53A 1_555 1_555
H33A C54A 1_555 1_555
C55A C54A 1_555 1_555
H34A C55A 1_555 1_555
C56A N10A 1_555 1_555
C57A N11A 1_555 1_555
H35A C57A 1_555 1_555
C58A N12A 1_555 1_555
C59A C58A 1_555 1_555
H36A C59A 1_555 1_555
C60A C59A 1_555 1_555
H37A C60A 1_555 1_555
C61A C60A 1_555 1_555
H38A C61A 1_555 1_555
C62A C61A 1_555 1_555
H39A C62A 1_555 1_555
C63A N11A 1_555 1_555
O4 C22 1_555 1_555
O6 C43 1_555 1_555
C6 C7 1_555 1_555
C9 C10 1_555 1_555
C13 C14 1_555 1_555
C16 C21 1_555 1_555
C20 C21 1_555 1_555
C27 C28 1_555 1_555
C30 C35 1_555 1_555
C34 C35 1_555 1_555
C37 C42 1_555 1_555
C41 C42 1_555 1_555
C48 C49 1_555 1_555
C51 C56 1_555 1_555
C55 C56 1_555 1_555
C58 C63 1_555 1_555
C62 C63 1_555 1_555
Mn1A O2A 1_555 1_555
O4A C22A 1_555 1_555
O6A C43A 1_555 1_555
C6A C7A 1_555 1_555
C9A C10A 1_555 1_555
C13A C14A 1_555 1_555
C16A C21A 1_555 1_555
C20A C21A 1_555 1_555
C27A C28A 1_555 1_555
C30A C35A 1_555 1_555
C34A C35A 1_555 1_555
C37A C42A 1_555 1_555
C41A C42A 1_555 1_555
C48A C49A 1_555 1_555
C51A C56A 1_555 1_555
C55A C56A 1_555 1_555
C58A C63A 1_555 1_555
C62A C63A 1_555 1_555

#END
