
#######################################################################
#
#                 Cambridge Crystallographic Data Centre
#                                CCDC 
#
#######################################################################
#
# If this CIF has been generated from an entry in the Cambridge 
# Structural Database, then it will include bibliographic, chemical, 
# crystal, experimental, refinement or atomic coordinate data resulting 
# from the CCDC's data processing and validation procedures.
#
#######################################################################

data_KEBKUZ
_symmetry_cell_setting           triclinic
_symmetry_space_group_name_H-M   'P -1'
_symmetry_Int_Tables_number      2
_space_group_name_Hall           '-P 1'
loop_
_symmetry_equiv_pos_site_id
_symmetry_equiv_pos_as_xyz
1 x,y,z
2 -x,-y,-z
_cell_length_a                   8.422(3)
_cell_length_b                   8.874(5)
_cell_length_c                   14.509(4)
_cell_angle_alpha                102.467(3)
_cell_angle_beta                 90.171(6)
_cell_angle_gamma                101.097(5)
_cell_volume                     1037.87
loop_
_atom_site_label
_atom_site_type_symbol
_atom_site_fract_x
_atom_site_fract_y
_atom_site_fract_z
Co1 Co -0.39883(5) 0.41236(5) 0.44682(3)
O1 O -0.3555(3) 0.8518(3) 0.01573(17)
O2 O -0.2948(3) 0.6567(3) 0.07514(16)
H1 H -0.2331 0.6495 0.0315
O3 O -0.4828(3) 0.5533(3) 0.36773(16)
O4 O -0.6502(3) 0.6929(3) 0.44989(14)
O5 O -0.7692(2) 1.0454(2) 0.24092(14)
O6 O -0.7582(3) 1.3916(3) 0.48507(16)
O7 O -0.5990(3) 1.2467(2) 0.39769(15)
N1 N -0.2464(3) 0.3603(3) 0.33955(18)
N2 N 0.0567(3) 0.3840(3) 0.04033(16)
C1 C -0.3760(4) 0.7693(4) 0.0718(2)
C2 C -0.4908(3) 0.7877(3) 0.1501(2)
C3 C -0.4957(3) 0.6988(3) 0.2185(2)
H2 H -0.4381 0.6178 0.2114
C4 C -0.5861(3) 0.7309(3) 0.2968(2)
C5 C -0.5739(3) 0.6519(3) 0.3771(2)
C6 C -0.6778(3) 0.8473(3) 0.3062(2)
H3 H -0.7379 0.8695 0.3593
C7 C -0.6787(3) 0.9297(3) 0.2356(2)
C8 C -0.5834(3) 0.9044(3) 0.1582(2)
H4 H -0.5812 0.9638 0.1125
C9 C -0.8941(4) 1.0410(4) 0.3044(2)
C10 C -1.0314(4) 0.9262(5) 0.2780(2)
H5 H -1.0362 0.8520 0.2214
C11 C -1.1621(4) 0.9212(5) 0.3354(3)
H6 H -1.2529 0.8410 0.3188
C12 C -1.1579(4) 1.0344(4) 0.4167(2)
H7 H -1.2476 1.0344 0.4540
C13 C -1.0202(4) 1.1477(4) 0.4428(2)
H8 H -1.0181 1.2243 0.4980
C14 C -0.8831(4) 1.1512(3) 0.3887(2)
C15 C -0.7349(4) 1.2721(4) 0.4257(2)
C16 C -0.0924(4) 0.4320(4) 0.3453(2)
H9 H -0.0512 0.5022 0.4013
C17 C 0.0093(4) 0.4073(4) 0.2720(2)
H10 H 0.1166 0.4604 0.2792
C18 C -0.0467(4) 0.3049(4) 0.1889(2)
C19 C -0.2070(4) 0.2277(4) 0.1832(2)
H11 H -0.2503 0.1553 0.1285
C20 C -0.3015(4) 0.2593(4) 0.2595(2)
H12 H -0.4092 0.2072 0.2546
C21 C 0.0619(4) 0.2791(4) 0.1064(2)
H13 H 0.1726 0.2944 0.1308
H14 H 0.0308 0.1707 0.0716
C22 C 0.0906(3) 0.5526(3) 0.0866(2)
H15 H 0.1930 0.5787 0.1227
H16 H 0.0063 0.5748 0.1299
C23 C -0.0978(3) 0.3477(3) -0.0145(2)
H17 H -0.1211 0.2372 -0.0461
H18 H -0.1843 0.3673 0.0277
Co1A Co -0.60117(5) 0.58764(5) 0.55318(3)
Co1A_2 Co -0.60117(5) 1.58764(5) 0.55318(3)
Co1_2 Co -0.39883(5) 1.41236(5) 0.44682(3)
Co1A_3 Co 0.39883(5) 0.58764(5) -0.44682(3)
Co1_3 Co -0.39883(5) -0.58764(5) 0.44682(3)
Co1A_4 Co -0.60117(5) -0.41236(5) 0.55318(3)
O1A O -0.6445(3) 0.1482(3) 0.98427(17)
O2A O -0.7052(3) 0.3433(3) 0.92486(16)
H1A H -0.7669 0.3505 0.9685
O3A O -0.5172(3) 0.4467(3) 0.63227(16)
O4A O -0.3498(3) 0.3071(3) 0.55011(14)
O5A O -0.2308(2) -0.0454(2) 0.75908(14)
O6A O -0.2418(3) -0.3916(3) 0.51493(16)
O6A_2 O -0.2418(3) 0.6084(3) 0.51493(16)
O6_2 O -0.7582(3) 0.3916(3) 0.48507(16)
O7A O -0.4010(3) -0.2467(2) 0.60231(15)
O7_2 O -0.5990(3) 0.2467(2) 0.39769(15)
O7A_2 O -0.4010(3) 0.7533(2) 0.60231(15)
N1A N 0.2464(3) 0.6397(3) -0.33955(18)
N1A_2 N -0.7536(3) 0.6397(3) 0.66045(18)
N2A N -0.0567(3) 0.6160(3) -0.04033(16)
C1A C -0.6240(4) 0.2307(4) 0.9282(2)
C2A C -0.5092(3) 0.2123(3) 0.8499(2)
C3A C -0.5043(3) 0.3012(3) 0.7815(2)
H2A H -0.5619 0.3822 0.7886
C4A C -0.4139(3) 0.2691(3) 0.7032(2)
C5A C -0.4261(3) 0.3481(3) 0.6229(2)
C6A C -0.3222(3) 0.1527(3) 0.6938(2)
H3A H -0.2621 0.1305 0.6407
C7A C -0.3213(3) 0.0703(3) 0.7644(2)
C8A C -0.4166(3) 0.0956(3) 0.8418(2)
H4A H -0.4188 0.0362 0.8875
C9A C -0.1059(4) -0.0410(4) 0.6956(2)
C10A C 0.0314(4) 0.0738(5) 0.7220(2)
H5A H 0.0362 0.1480 0.7786
C11A C 0.1621(4) 0.0788(5) 0.6646(3)
H6A H 0.2529 0.1590 0.6812
C12A C 0.1579(4) -0.0344(4) 0.5833(2)
H7A H 0.2476 -0.0344 0.5460
C13A C 0.0202(4) -0.1477(4) 0.5572(2)
H8A H 0.0181 -0.2243 0.5020
C14A C -0.1169(4) -0.1512(3) 0.6113(2)
C15A C -0.2651(4) -0.2721(4) 0.5743(2)
C16A C 0.0924(4) 0.5680(4) -0.3453(2)
H9A H 0.0512 0.4978 -0.4013
C17A C -0.0093(4) 0.5927(4) -0.2720(2)
H10A H -0.1166 0.5396 -0.2792
C18A C 0.0467(4) 0.6951(4) -0.1889(2)
C19A C 0.2070(4) 0.7723(4) -0.1832(2)
H11A H 0.2503 0.8447 -0.1285
C20A C 0.3015(4) 0.7407(4) -0.2595(2)
H12A H 0.4092 0.7928 -0.2546
C21A C -0.0619(4) 0.7209(4) -0.1064(2)
H13A H -0.1726 0.7056 -0.1308
H14A H -0.0308 0.8293 -0.0716
C22A C -0.0906(3) 0.4474(3) -0.0866(2)
H15A H -0.1930 0.4213 -0.1227
H16A H -0.0063 0.4252 -0.1299
C23A C 0.0978(3) 0.6523(3) 0.0145(2)
H17A H 0.1211 0.7628 0.0461
H18A H 0.1843 0.6327 -0.0277
loop_
_geom_bond_atom_site_label_1
_geom_bond_atom_site_label_2
_geom_bond_site_symmetry_1
_geom_bond_site_symmetry_2
Co1 O3 1_555 1_555
O1 C1 1_555 1_555
O2 H1 1_555 1_555
O3 C5 1_555 1_555
O4 C5 1_555 1_555
O5 C7 1_555 1_555
O6 C15 1_555 1_555
O7 C15 1_555 1_555
N1 Co1 1_555 1_555
N2 C21 1_555 1_555
C1 O2 1_555 1_555
C2 C1 1_555 1_555
C3 C2 1_555 1_555
H2 C3 1_555 1_555
C4 C3 1_555 1_555
C5 C4 1_555 1_555
C6 C4 1_555 1_555
H3 C6 1_555 1_555
C7 C6 1_555 1_555
C8 C2 1_555 1_555
H4 C8 1_555 1_555
C9 O5 1_555 1_555
C10 C9 1_555 1_555
H5 C10 1_555 1_555
C11 C10 1_555 1_555
H6 C11 1_555 1_555
C12 C11 1_555 1_555
H7 C12 1_555 1_555
C13 C12 1_555 1_555
H8 C13 1_555 1_555
C14 C9 1_555 1_555
C15 C14 1_555 1_555
C16 N1 1_555 1_555
H9 C16 1_555 1_555
C17 C16 1_555 1_555
H10 C17 1_555 1_555
C18 C17 1_555 1_555
C19 C18 1_555 1_555
H11 C19 1_555 1_555
C20 N1 1_555 1_555
H12 C20 1_555 1_555
C21 C18 1_555 1_555
H13 C21 1_555 1_555
H14 C21 1_555 1_555
C22 N2 1_555 1_555
H15 C22 1_555 1_555
H16 C22 1_555 1_555
C23 N2 1_555 1_555
H17 C23 1_555 1_555
H18 C23 1_555 1_555
Co1A O4 1_555 1_555
Co1A_2 O6 1_555 1_555
Co1_2 O7 1_555 1_555
Co1A_3 N1A 1_555 1_555
Co1_3 O6A 1_555 1_555
Co1A_4 O7A 1_555 1_555
O1A C1A 1_555 1_555
O2A H1A 1_555 1_555
O3A Co1A 1_555 1_555
O4A Co1 1_555 1_555
O5A C7A 1_555 1_555
O6A C15A 1_555 1_555
O6A_2 Co1 1_555 1_555
O6_2 Co1A 1_555 1_555
O7A C15A 1_555 1_555
O7_2 Co1 1_555 1_555
O7A_2 Co1A 1_555 1_555
N1A C16A 1_555 1_555
N1A_2 Co1A 1_555 1_555
N2A C21A 1_555 1_555
C1A O2A 1_555 1_555
C2A C1A 1_555 1_555
C3A C2A 1_555 1_555
H2A C3A 1_555 1_555
C4A C3A 1_555 1_555
C5A O3A 1_555 1_555
C6A C4A 1_555 1_555
H3A C6A 1_555 1_555
C7A C6A 1_555 1_555
C8A C2A 1_555 1_555
H4A C8A 1_555 1_555
C9A O5A 1_555 1_555
C10A C9A 1_555 1_555
H5A C10A 1_555 1_555
C11A C10A 1_555 1_555
H6A C11A 1_555 1_555
C12A C11A 1_555 1_555
H7A C12A 1_555 1_555
C13A C12A 1_555 1_555
H8A C13A 1_555 1_555
C14A C9A 1_555 1_555
C15A C14A 1_555 1_555
C16A H9A 1_555 1_555
C17A C16A 1_555 1_555
H10A C17A 1_555 1_555
C18A C17A 1_555 1_555
C19A C18A 1_555 1_555
H11A C19A 1_555 1_555
C20A N1A 1_555 1_555
H12A C20A 1_555 1_555
C21A C18A 1_555 1_555
H13A C21A 1_555 1_555
H14A C21A 1_555 1_555
C22A C23 1_555 1_555
H15A C22A 1_555 1_555
H16A C22A 1_555 1_555
C23A C22 1_555 1_555
H17A C23A 1_555 1_555
H18A C23A 1_555 1_555
C7 C8 1_555 1_555
C13 C14 1_555 1_555
C19 C20 1_555 1_555
O4A C5A 1_555 1_555
N2A C22A 1_555 1_555
N2A C23A 1_555 1_555
C4A C5A 1_555 1_555
C7A C8A 1_555 1_555
C13A C14A 1_555 1_555
C19A C20A 1_555 1_555

#END
