
#######################################################################
#
#                 Cambridge Crystallographic Data Centre
#                                CCDC 
#
#######################################################################
#
# If this CIF has been generated from an entry in the Cambridge 
# Structural Database, then it will include bibliographic, chemical, 
# crystal, experimental, refinement or atomic coordinate data resulting 
# from the CCDC's data processing and validation procedures.
#
#######################################################################

data_KEBKOT
_symmetry_cell_setting           triclinic
_symmetry_space_group_name_H-M   'P -1'
_symmetry_Int_Tables_number      2
_space_group_name_Hall           '-P 1'
loop_
_symmetry_equiv_pos_site_id
_symmetry_equiv_pos_as_xyz
1 x,y,z
2 -x,-y,-z
_cell_length_a                   9.604(3)
_cell_length_b                   10.852(4)
_cell_length_c                   11.414(6)
_cell_angle_alpha                64.684(3)
_cell_angle_beta                 85.395(5)
_cell_angle_gamma                65.539(6)
_cell_volume                     972.038
loop_
_atom_site_label
_atom_site_type_symbol
_atom_site_fract_x
_atom_site_fract_y
_atom_site_fract_z
Co1 Co 0.49746(6) 0.34122(7) 0.04496(6)
Co2 Co 0.18300(6) 0.69718(7) -0.16690(6)
O1 O 0.1282(3) 0.5227(3) -0.1153(3)
O2 O 0.3367(3) 0.3044(4) -0.0178(3)
O3 O 0.1301(3) -0.1142(4) -0.1496(3)
O4 O 0.3490(3) -0.1352(4) -0.0680(3)
O5 O -0.2629(3) 0.4009(3) -0.2373(3)
O6 O -0.4678(4) 0.6765(4) -0.2288(3)
O7 O -0.6802(3) 0.6835(4) -0.3069(3)
O8 O 0.6510(3) 0.4299(3) 0.0089(3)
N1 N -0.0231(4) 0.8154(4) -0.2990(4)
N2 N -0.4407(5) 0.9761(5) -0.5248(4)
C1 C 0.2018(5) 0.3832(5) -0.0753(4)
C2 C 0.1227(5) 0.3059(5) -0.1079(4)
C3 C 0.2008(5) 0.1577(5) -0.0885(4)
H1 H 0.3033 0.1028 -0.0523
C4 C 0.1243(5) 0.0908(5) -0.1238(4)
C5 C 0.2091(5) -0.0659(5) -0.1109(4)
C6 C -0.0307(5) 0.1733(5) -0.1749(4)
H2 H -0.0835 0.1290 -0.1959
C7 C -0.1051(5) 0.3207(5) -0.1941(4)
C8 C -0.0305(5) 0.3878(5) -0.1605(4)
H3 H -0.0827 0.4871 -0.1730
C9 C -0.3056(5) 0.4949(5) -0.3696(4)
C10 C -0.2163(5) 0.4649(5) -0.4628(5)
H4 H -0.1180 0.3868 -0.4384
C11 C -0.2742(6) 0.5521(6) -0.5934(5)
H5 H -0.2134 0.5336 -0.6569
C12 C -0.4194(6) 0.6646(6) -0.6300(5)
H6 H -0.4583 0.7202 -0.7179
C13 C -0.5088(6) 0.6960(6) -0.5369(5)
H7 H -0.6083 0.7719 -0.5620
C14 C -0.4505(5) 0.6147(5) -0.4061(4)
C15 C -0.5396(5) 0.6602(5) -0.3055(4)
C16 C -0.0280(6) 0.8302(6) -0.4216(5)
H8 H 0.0638 0.8036 -0.4578
C17 C -0.1654(6) 0.8840(7) -0.4964(6)
H9 H -0.1654 0.8942 -0.5816
C18 C -0.3017(6) 0.9219(5) -0.4430(5)
C19 C -0.2982(6) 0.9063(6) -0.3161(5)
H10 H -0.3883 0.9298 -0.2771
C20 C -0.1572(6) 0.8548(6) -0.2493(5)
H11 H -0.1550 0.8470 -0.1650
H12 H 0.686(7) 0.430(7) -0.059(4)
Co1A Co 0.50254(6) -0.34122(7) -0.04496(6)
Co1A_2 Co -0.49746(6) 0.65878(7) -0.04496(6)
Co1A_3 Co 0.50254(6) 0.65878(7) -0.04496(6)
Co1_2 Co 1.49746(6) -0.65878(7) 0.04496(6)
Co2A Co 0.81700(6) -0.69718(7) 0.16690(6)
Co2_2 Co 0.18300(6) -0.30282(7) -0.16690(6)
Co2_3 Co -0.81700(6) 0.69718(7) -0.16690(6)
Co2A_2 Co 0.81700(6) 0.30282(7) 0.16690(6)
Co2A_3 Co -1.18300(6) 1.30282(7) -0.83310(6)
Co2A_4 Co 1.81700(6) -0.69718(7) 0.16690(6)
O1A O 0.8718(3) -0.5227(3) 0.1153(3)
O2A O 0.6633(3) -0.3044(4) 0.0178(3)
O3A O 0.8699(3) 0.1142(4) 0.1496(3)
O3_2 O 0.1301(3) 0.8858(4) -0.1496(3)
O3A_2 O 0.8699(3) -0.8858(4) 0.1496(3)
O4A O 0.6510(3) 0.1352(4) 0.0680(3)
O5A O 1.2629(3) -0.4009(3) 0.2373(3)
O6A O 1.4678(4) -0.6765(4) 0.2288(3)
O6A_2 O 0.4678(4) 0.3235(4) 0.2288(3)
O6_2 O 0.5322(4) -0.3235(4) -0.2288(3)
O7A O 1.6802(3) -0.6835(4) 0.3069(3)
O7_2 O 0.3198(3) 0.6835(4) -0.3069(3)
O7A_2 O 0.6802(3) -0.6835(4) 0.3069(3)
O8A O 0.3490(3) 0.5701(3) -0.0089(3)
O8A_2 O 0.3490(3) -0.4299(3) -0.0089(3)
O8_2 O 0.6510(3) -0.5701(3) 0.0089(3)
N1A N -0.9769(4) 1.1846(4) -0.7010(4)
N1A_2 N 1.0231(4) -0.8154(4) 0.2990(4)
N2A N -0.5593(5) 1.0239(5) -0.4752(4)
C1A C 0.7982(5) -0.3832(5) 0.0753(4)
C2A C 0.8773(5) -0.3059(5) 0.1079(4)
C3A C 0.7992(5) -0.1577(5) 0.0885(4)
H1A H 0.6967 -0.1028 0.0523
C4A C 0.8757(5) -0.0908(5) 0.1238(4)
C5A C 0.7909(5) 0.0659(5) 0.1109(4)
C6A C 1.0307(5) -0.1733(5) 0.1749(4)
H2A H 1.0835 -0.1290 0.1959
C7A C 1.1051(5) -0.3207(5) 0.1941(4)
C8A C 1.0305(5) -0.3878(5) 0.1605(4)
H3A H 1.0827 -0.4871 0.1730
C9A C 1.3056(5) -0.4949(5) 0.3696(4)
C10A C 1.2163(5) -0.4649(5) 0.4628(5)
H4A H 1.1180 -0.3868 0.4384
C11A C 1.2742(6) -0.5521(6) 0.5934(5)
H5A H 1.2134 -0.5336 0.6569
C12A C 1.4194(6) -0.6646(6) 0.6300(5)
H6A H 1.4583 -0.7202 0.7179
C13A C 1.5088(6) -0.6960(6) 0.5369(5)
H7A H 1.6083 -0.7719 0.5620
C14A C 1.4505(5) -0.6147(5) 0.4061(4)
C15A C 1.5396(5) -0.6602(5) 0.3055(4)
C16A C -0.9720(6) 1.1698(6) -0.5784(5)
H8A H -1.0638 1.1964 -0.5422
C17A C -0.8346(6) 1.1160(7) -0.5036(6)
H9A H -0.8346 1.1058 -0.4184
C18A C -0.6983(6) 1.0781(5) -0.5570(5)
C19A C -0.7018(6) 1.0937(6) -0.6839(5)
H10A H -0.6117 1.0702 -0.7229
C20A C -0.8428(6) 1.1452(6) -0.7507(5)
H11A H -0.8450 1.1530 -0.8350
H12A H 0.314(7) 0.570(7) 0.059(4)
H12A_2 H 0.314(7) -0.430(7) 0.059(4)
H12_2 H 0.686(7) -0.570(7) -0.059(4)
loop_
_geom_bond_atom_site_label_1
_geom_bond_atom_site_label_2
_geom_bond_site_symmetry_1
_geom_bond_site_symmetry_2
Co1 O2 1_555 1_555
Co2 O1 1_555 1_555
O1 C1 1_555 1_555
O2 C1 1_555 1_555
O3 C5 1_555 1_555
O4 C5 1_555 1_555
O5 C7 1_555 1_555
O6 C15 1_555 1_555
O7 C15 1_555 1_555
O8 Co1 1_555 1_555
N1 Co2 1_555 1_555
N2 C18 1_555 1_555
C1 C2 1_555 1_555
C2 C3 1_555 1_555
C3 H1 1_555 1_555
C4 C3 1_555 1_555
C5 C4 1_555 1_555
C6 C4 1_555 1_555
H2 C6 1_555 1_555
C7 C6 1_555 1_555
C8 C2 1_555 1_555
H3 C8 1_555 1_555
C9 O5 1_555 1_555
C10 C9 1_555 1_555
H4 C10 1_555 1_555
C11 C10 1_555 1_555
H5 C11 1_555 1_555
C12 C11 1_555 1_555
H6 C12 1_555 1_555
C13 C12 1_555 1_555
H7 C13 1_555 1_555
C14 C9 1_555 1_555
C15 C14 1_555 1_555
C16 N1 1_555 1_555
H8 C16 1_555 1_555
C17 C16 1_555 1_555
H9 C17 1_555 1_555
C18 C17 1_555 1_555
C19 C18 1_555 1_555
H10 C19 1_555 1_555
C20 N1 1_555 1_555
H11 C20 1_555 1_555
H12 O8 1_555 1_555
Co1A O4 1_555 1_555
Co1A_2 O6 1_555 1_555
Co1A_3 O8 1_555 1_555
Co1_2 O6A 1_555 1_555
Co2A O1A 1_555 1_555
Co2_2 O3 1_555 1_555
Co2_3 O7 1_555 1_555
Co2A_2 O8 1_555 1_555
Co2A_3 N1A 1_555 1_555
Co2A_4 O7A 1_555 1_555
O1A C1A 1_555 1_555
O2A Co1A 1_555 1_555
O3A Co2A_2 1_555 1_555
O3_2 Co2 1_555 1_555
O3A_2 Co2A 1_555 1_555
O4A Co1 1_555 1_555
O5A C7A 1_555 1_555
O6A C15A 1_555 1_555
O6A_2 Co1 1_555 1_555
O6_2 Co1A 1_555 1_555
O7A C15A 1_555 1_555
O7_2 Co2 1_555 1_555
O7A_2 Co2A 1_555 1_555
O8A Co1 1_555 1_555
O8A_2 Co1A 1_555 1_555
O8_2 Co1A 1_555 1_555
N1A C16A 1_555 1_555
N1A_2 Co2A 1_555 1_555
N2A N2 1_555 1_555
C1A O2A 1_555 1_555
C2A C1A 1_555 1_555
C3A C2A 1_555 1_555
H1A C3A 1_555 1_555
C4A C3A 1_555 1_555
C5A O3A 1_555 1_555
C6A C4A 1_555 1_555
H2A C6A 1_555 1_555
C7A C6A 1_555 1_555
C8A C2A 1_555 1_555
H3A C8A 1_555 1_555
C9A O5A 1_555 1_555
C10A C9A 1_555 1_555
H4A C10A 1_555 1_555
C11A C10A 1_555 1_555
H5A C11A 1_555 1_555
C12A C11A 1_555 1_555
H6A C12A 1_555 1_555
C13A C12A 1_555 1_555
H7A C13A 1_555 1_555
C14A C9A 1_555 1_555
C15A C14A 1_555 1_555
C16A H8A 1_555 1_555
C17A C16A 1_555 1_555
H9A C17A 1_555 1_555
C18A N2A 1_555 1_555
C19A C18A 1_555 1_555
H10A C19A 1_555 1_555
C20A N1A 1_555 1_555
H11A C20A 1_555 1_555
H12A O8A 1_555 1_555
H12A_2 O8A_2 1_555 1_555
H12_2 O8_2 1_555 1_555
Co2 O8A 1_555 1_555
C7 C8 1_555 1_555
C13 C14 1_555 1_555
C19 C20 1_555 1_555
Co1A_3 O8A 1_555 1_555
Co2A O8_2 1_555 1_555
Co2_2 O8A_2 1_555 1_555
O4A C5A 1_555 1_555
C4A C5A 1_555 1_555
C7A C8A 1_555 1_555
C13A C14A 1_555 1_555
C17A C18A 1_555 1_555
C19A C20A 1_555 1_555

#END
