
#######################################################################
#
#                 Cambridge Crystallographic Data Centre
#                                CCDC 
#
#######################################################################
#
# If this CIF has been generated from an entry in the Cambridge 
# Structural Database, then it will include bibliographic, chemical, 
# crystal, experimental, refinement or atomic coordinate data resulting 
# from the CCDC's data processing and validation procedures.
#
#######################################################################

data_KEBKIN
_symmetry_cell_setting           triclinic
_symmetry_space_group_name_H-M   'P -1'
_symmetry_Int_Tables_number      2
_space_group_name_Hall           '-P 1'
loop_
_symmetry_equiv_pos_site_id
_symmetry_equiv_pos_as_xyz
1 x,y,z
2 -x,-y,-z
_cell_length_a                   10.140(2)
_cell_length_b                   10.148(4)
_cell_length_c                   11.369(5)
_cell_angle_alpha                92.076(5)
_cell_angle_beta                 94.575(4)
_cell_angle_gamma                115.448(6)
_cell_volume                     1049.77
loop_
_atom_site_label
_atom_site_type_symbol
_atom_site_fract_x
_atom_site_fract_y
_atom_site_fract_z
Co1 Co 0.0000 0.5000 0.5000
Co2 Co -0.16553(4) 0.71791(4) 0.36003(3)
O1 O 0.14611(19) 0.6978(2) 0.47346(17)
O2 O 0.06059(19) 0.8336(2) 0.36944(16)
O3 O 0.60271(19) 0.6839(2) 0.34640(16)
O4 O 0.78878(19) 0.9027(2) 0.35040(17)
O5 O 0.5484(2) 1.2434(2) 0.27467(17)
O6 O 0.8220(2) 1.5085(2) 0.36944(16)
O7 O 0.9761(2) 1.4228(2) 0.31765(17)
N1 N -0.1659(2) 0.7159(2) 0.1700(2)
N2 N -0.1759(2) 0.7180(2) -0.45603(19)
C1 C 0.1609(3) 0.7996(3) 0.4080(2)
C2 C 0.3133(3) 0.8853(3) 0.3736(2)
C3 C 0.4084(3) 0.8188(3) 0.3778(2)
H1 H 0.3764 0.7223 0.4022
C4 C 0.5499(3) 0.8933(3) 0.3462(2)
C5 C 0.6524(3) 0.8221(3) 0.3487(2)
C6 C 0.5985(3) 1.0358(3) 0.3119(2)
H2 H 0.6962 1.0885 0.2927
C7 C 0.5016(3) 1.0990(3) 0.3062(2)
C8 C 0.3592(3) 1.0260(3) 0.3356(2)
H3 H 0.2941 1.0710 0.3301
C9 C 0.6205(3) 1.2719(3) 0.1725(2)
C10 C 0.5431(3) 1.2018(3) 0.0650(3)
H4 H 0.4430 1.1330 0.0621
C11 C 0.6109(3) 1.2314(3) -0.0379(3)
H5 H 0.5569 1.1854 -0.1118
C12 C 0.7590(3) 1.3293(3) -0.0328(3)
H6 H 0.8058 1.3515 -0.1034
C13 C 0.8374(3) 1.3941(3) 0.0756(3)
H7 H 0.9394 1.4571 0.0792
C14 C 0.7686(3) 1.3682(3) 0.1798(2)
C15 C 0.8609(3) 1.4377(3) 0.2949(2)
C16 C -0.0434(3) 0.7842(3) 0.1156(2)
H8 H 0.0482 0.8310 0.1632
C17 C -0.0441(3) 0.7897(3) -0.0054(2)
H9 H 0.0455 0.8403 -0.0389
C18 C -0.1759(3) 0.7212(3) -0.0791(2)
C19 C -0.3025(3) 0.6525(3) -0.0232(2)
H10 H -0.3955 0.6050 -0.0688
C20 C -0.2930(3) 0.6532(3) 0.0991(2)
H11 H -0.3815 0.6067 0.1350
C21 C -0.1789(3) 0.7215(3) -0.2097(2)
C22 C -0.0707(3) 0.8341(3) -0.2622(2)
H12 H 0.0042 0.9144 -0.2148
C23 C -0.0739(3) 0.8275(3) -0.3844(2)
H13 H 0.0005 0.9050 -0.4190
C24 C -0.2830(3) 0.6099(3) -0.4057(2)
H14 H -0.3577 0.5323 -0.4555
C25 C -0.2881(3) 0.6078(3) -0.2842(2)
H15 H -0.3649 0.5300 -0.2519
Co1_2 Co 1.0000 1.5000 0.5000
Co1_3 Co -1.0000 -0.5000 0.5000
Co2_2 Co -1.16553(4) -0.28209(4) 0.36003(3)
Co2_3 Co 0.83447(4) 0.71791(4) 0.36003(3)
Co2_4 Co 0.83447(4) 1.71791(4) 0.36003(3)
Co2_5 Co -0.16553(4) 0.71791(4) -0.63997(3)
Co2_6 Co -0.16553(4) -0.28209(4) 0.36003(3)
Co2_7 Co -0.16553(4) 0.71791(4) 1.36003(3)
O1_2 O -0.85389(19) -0.3022(2) 0.47346(17)
O1A O -0.14611(19) 0.3022(2) 0.52654(17)
O2_2 O -0.93941(19) -0.1664(2) 0.36944(16)
O3_2 O -0.39729(19) -0.3161(2) 0.34640(16)
O3_3 O -0.39729(19) 0.6839(2) 0.34640(16)
O3_4 O -1.39729(19) -0.3161(2) 0.34640(16)
O4_2 O -0.21122(19) -0.0973(2) 0.35040(17)
O4_3 O -0.21122(19) 0.9027(2) 0.35040(17)
O4_4 O -1.21122(19) -0.0973(2) 0.35040(17)
O5_2 O -0.4516(2) 0.2434(2) 0.27467(17)
O6_2 O -0.1780(2) 0.5085(2) 0.36944(16)
O6A O 0.1780(2) 0.4915(2) 0.63056(16)
O6_3 O -1.1780(2) -0.4915(2) 0.36944(16)
O7_2 O -0.0239(2) 0.4228(2) 0.31765(17)
O7A O 0.0239(2) 0.5772(2) 0.68235(17)
N1_2 N -0.1659(2) 0.7159(2) 1.1700(2)
N1_3 N -1.1659(2) -0.2841(2) 0.1700(2)
N2_2 N -0.1759(2) 0.7180(2) 0.54397(19)
N2_3 N -1.1759(2) -0.2820(2) 0.54397(19)
C1_2 C -0.8391(3) -0.2004(3) 0.4080(2)
C2_2 C -0.6867(3) -0.1147(3) 0.3736(2)
C3_2 C -0.5916(3) -0.1812(3) 0.3778(2)
H1_2 H -0.6236 -0.2777 0.4022
C4_2 C -0.4501(3) -0.1067(3) 0.3462(2)
C5_2 C -0.3476(3) -0.1779(3) 0.3487(2)
C6_2 C -0.4015(3) 0.0358(3) 0.3119(2)
H2_2 H -0.3038 0.0885 0.2927
C7_2 C -0.4984(3) 0.0990(3) 0.3062(2)
C8_2 C -0.6408(3) 0.0260(3) 0.3356(2)
H3_2 H -0.7059 0.0710 0.3301
C9_2 C -0.3795(3) 0.2719(3) 0.1725(2)
C10_2 C -0.4569(3) 0.2018(3) 0.0650(3)
H4_2 H -0.5570 0.1330 0.0621
C11_2 C -0.3891(3) 0.2314(3) -0.0379(3)
H5_2 H -0.4431 0.1854 -0.1118
C12_2 C -0.2410(3) 0.3293(3) -0.0328(3)
H6_2 H -0.1942 0.3515 -0.1034
C13_2 C -0.1626(3) 0.3941(3) 0.0756(3)
H7_2 H -0.0606 0.4571 0.0792
C14_2 C -0.2314(3) 0.3682(3) 0.1798(2)
C15_2 C -0.1391(3) 0.4377(3) 0.2949(2)
C16_2 C -0.0434(3) 0.7842(3) 1.1156(2)
H8_2 H 0.0482 0.8310 1.1632
C17_2 C -0.0441(3) 0.7897(3) 0.9946(2)
H9_2 H 0.0455 0.8403 0.9611
C18_2 C -0.1759(3) 0.7212(3) 0.9209(2)
C19_2 C -0.3025(3) 0.6525(3) 0.9768(2)
H10_2 H -0.3955 0.6050 0.9312
C20_2 C -0.2930(3) 0.6532(3) 1.0991(2)
H11_2 H -0.3815 0.6067 1.1350
C21_2 C -0.1789(3) 0.7215(3) 0.7903(2)
C22_2 C -0.0707(3) 0.8341(3) 0.7378(2)
H12_2 H 0.0042 0.9144 0.7852
C23_2 C -0.0739(3) 0.8275(3) 0.6156(2)
H13_2 H 0.0005 0.9050 0.5810
C24_2 C -0.2830(3) 0.6099(3) 0.5943(2)
H14_2 H -0.3577 0.5323 0.5445
C25_2 C -0.2881(3) 0.6078(3) 0.7158(2)
H15_2 H -0.3649 0.5300 0.7481
loop_
_geom_bond_atom_site_label_1
_geom_bond_atom_site_label_2
_geom_bond_site_symmetry_1
_geom_bond_site_symmetry_2
Co1 O1 1_555 1_555
Co2 O2 1_555 1_555
O1 C1 1_555 1_555
O2 C1 1_555 1_555
O3 C5 1_555 1_555
O4 C5 1_555 1_555
O5 C7 1_555 1_555
O6 C15 1_555 1_555
O7 C15 1_555 1_555
N1 Co2 1_555 1_555
N2 C23 1_555 1_555
C1 C2 1_555 1_555
C2 C3 1_555 1_555
C3 H1 1_555 1_555
C4 C3 1_555 1_555
C5 C4 1_555 1_555
C6 C4 1_555 1_555
H2 C6 1_555 1_555
C7 C6 1_555 1_555
C8 C2 1_555 1_555
H3 C8 1_555 1_555
C9 O5 1_555 1_555
C10 C9 1_555 1_555
H4 C10 1_555 1_555
C11 C10 1_555 1_555
H5 C11 1_555 1_555
C12 C11 1_555 1_555
H6 C12 1_555 1_555
C13 C12 1_555 1_555
H7 C13 1_555 1_555
C14 C9 1_555 1_555
C15 C14 1_555 1_555
C16 N1 1_555 1_555
H8 C16 1_555 1_555
C17 C16 1_555 1_555
H9 C17 1_555 1_555
C18 C17 1_555 1_555
C19 C18 1_555 1_555
H10 C19 1_555 1_555
C20 N1 1_555 1_555
H11 C20 1_555 1_555
C21 C18 1_555 1_555
C22 C21 1_555 1_555
H12 C22 1_555 1_555
C23 C22 1_555 1_555
H13 C23 1_555 1_555
C24 N2 1_555 1_555
H14 C24 1_555 1_555
C25 C21 1_555 1_555
H15 C25 1_555 1_555
Co1_2 O6 1_555 1_555
Co1_3 O1_2 1_555 1_555
Co2_2 O2_2 1_555 1_555
Co2_3 O3 1_555 1_555
Co2_4 O6 1_555 1_555
Co2_5 N2 1_555 1_555
Co2_6 O3_2 1_555 1_555
Co2_7 N1_2 1_555 1_555
O1_2 C1_2 1_555 1_555
O1A Co1 1_555 1_555
O2_2 C1_2 1_555 1_555
O3_2 C5_2 1_555 1_555
O3_3 Co2 1_555 1_555
O3_4 Co2_2 1_555 1_555
O4_2 Co2_6 1_555 1_555
O4_3 Co2 1_555 1_555
O4_4 Co2_2 1_555 1_555
O5_2 C7_2 1_555 1_555
O6_2 Co1 1_555 1_555
O6A Co1 1_555 1_555
O6_3 Co1_3 1_555 1_555
O7_2 Co1 1_555 1_555
O7A Co1 1_555 1_555
N1_2 C16_2 1_555 1_555
N1_3 Co2_2 1_555 1_555
N2_2 Co2 1_555 1_555
N2_3 Co2_2 1_555 1_555
C1_2 C2_2 1_555 1_555
C2_2 C3_2 1_555 1_555
C3_2 H1_2 1_555 1_555
C4_2 C3_2 1_555 1_555
C5_2 O4_2 1_555 1_555
C6_2 C4_2 1_555 1_555
H2_2 C6_2 1_555 1_555
C7_2 C6_2 1_555 1_555
C8_2 C2_2 1_555 1_555
H3_2 C8_2 1_555 1_555
C9_2 O5_2 1_555 1_555
C10_2 C9_2 1_555 1_555
H4_2 C10_2 1_555 1_555
C11_2 C10_2 1_555 1_555
H5_2 C11_2 1_555 1_555
C12_2 C11_2 1_555 1_555
H6_2 C12_2 1_555 1_555
C13_2 C12_2 1_555 1_555
H7_2 C13_2 1_555 1_555
C14_2 C9_2 1_555 1_555
C15_2 O6_2 1_555 1_555
C16_2 H8_2 1_555 1_555
C17_2 C16_2 1_555 1_555
H9_2 C17_2 1_555 1_555
C18_2 C17_2 1_555 1_555
C19_2 C18_2 1_555 1_555
H10_2 C19_2 1_555 1_555
C20_2 N1_2 1_555 1_555
H11_2 C20_2 1_555 1_555
C21_2 C18_2 1_555 1_555
C22_2 C21_2 1_555 1_555
H12_2 C22_2 1_555 1_555
C23_2 N2_2 1_555 1_555
H13_2 C23_2 1_555 1_555
C24_2 N2_2 1_555 1_555
H14_2 C24_2 1_555 1_555
C25_2 C21_2 1_555 1_555
H15_2 C25_2 1_555 1_555
Co2 O6_2 1_555 1_555
O4 Co2_3 1_555 1_555
O7 Co1_2 1_555 1_555
C7 C8 1_555 1_555
C13 C14 1_555 1_555
C19 C20 1_555 1_555
C24 C25 1_555 1_555
Co2_2 O6_3 1_555 1_555
O7_2 C15_2 1_555 1_555
C4_2 C5_2 1_555 1_555
C7_2 C8_2 1_555 1_555
C13_2 C14_2 1_555 1_555
C14_2 C15_2 1_555 1_555
C19_2 C20_2 1_555 1_555
C22_2 C23_2 1_555 1_555
C24_2 C25_2 1_555 1_555

#END
