
#######################################################################
#
#                 Cambridge Crystallographic Data Centre
#                                CCDC 
#
#######################################################################
#
# If this CIF has been generated from an entry in the Cambridge 
# Structural Database, then it will include bibliographic, chemical, 
# crystal, experimental, refinement or atomic coordinate data resulting 
# from the CCDC's data processing and validation procedures.
#
#######################################################################

data_KEBNAI
_symmetry_cell_setting           triclinic
_symmetry_space_group_name_H-M   'P -1'
_symmetry_Int_Tables_number      2
_space_group_name_Hall           '-P 1'
loop_
_symmetry_equiv_pos_site_id
_symmetry_equiv_pos_as_xyz
1 x,y,z
2 -x,-y,-z
_cell_length_a                   12.007(5)
_cell_length_b                   12.451(5)
_cell_length_c                   12.779(5)
_cell_angle_alpha                65.629(5)
_cell_angle_beta                 66.635(5)
_cell_angle_gamma                65.246(5)
_cell_volume                     1521.37
loop_
_atom_site_label
_atom_site_type_symbol
_atom_site_fract_x
_atom_site_fract_y
_atom_site_fract_z
Sn1 Sn 0.29008(3) -0.02999(3) 0.14673(3)
Sn2 Sn 0.82134(3) -0.34272(3) 0.02411(3)
O1 O 0.4244(3) -0.2460(3) 0.2182(3)
O2 O 0.6201(3) -0.2451(3) 0.0967(3)
O3 O 0.9579(3) -0.5970(3) 0.0902(3)
O4 O 0.9516(3) -0.7772(3) 0.2344(3)
O5 O 0.1786(3) 0.1609(3) 0.0862(3)
N1 N 0.7129(3) -0.4882(4) 0.1938(3)
C1 C 0.5397(4) -0.2983(4) 0.1818(4)
C2 C 0.5908(4) -0.4332(4) 0.2435(4)
C3 C 0.5176(4) -0.4962(4) 0.3452(4)
H1 H 0.4325 -0.4565 0.3767
C4 C 0.5735(4) -0.6203(5) 0.3996(4)
H2 H 0.5276 -0.6644 0.4698
C5 C 0.6984(4) -0.6764(5) 0.3470(4)
H3 H 0.7375 -0.7597 0.3805
C6 C 0.7649(4) -0.6082(4) 0.2445(4)
C7 C 0.9053(4) -0.6698(5) 0.1856(4)
C8 C 0.4310(4) 0.0241(4) 0.1554(4)
H4 H 0.5107 -0.0427 0.1500
H5 H 0.4442 0.0955 0.0874
C9 C 0.3959(5) 0.0562(5) 0.2687(4)
H6 H 0.3081 0.1086 0.2835
H7 H 0.4490 0.1033 0.2572
C10 C 0.4111(5) -0.0574(5) 0.3789(4)
H8 H 0.3668 -0.1101 0.3847
H9 H 0.5007 -0.1043 0.3686
C11 C 0.3598(6) -0.0237(6) 0.4944(5)
H10 H 0.3894 0.0418 0.4836
H11 H 0.3893 -0.0949 0.5566
H12 H 0.2684 0.0032 0.5159
C12 C 0.1408(4) -0.0671(4) 0.3075(4)
H13 H 0.1355 -0.0246 0.3590
H14 H 0.0609 -0.0301 0.2861
C13 C 0.1515(4) -0.2012(4) 0.3799(4)
H15 H 0.2291 -0.2385 0.4053
H16 H 0.1584 -0.2453 0.3292
C14 C 0.0392(5) -0.2171(5) 0.4893(4)
H17 H 0.0355 -0.1780 0.5429
H18 H -0.0391 -0.1758 0.4649
C15 C 0.0489(5) -0.3517(5) 0.5548(5)
H19 H 0.0515 -0.3905 0.5024
H20 H -0.0238 -0.3577 0.6228
H21 H 0.1252 -0.3925 0.5809
C16 C 0.2925(4) -0.0847(5) 0.0088(4)
H22 H 0.3080 -0.0209 -0.0664
H23 H 0.3625 -0.1600 0.0026
C17 C 0.1686(5) -0.1071(5) 0.0288(4)
H24 H 0.1535 -0.1710 0.1040
H25 H 0.0987 -0.0318 0.0356
C18 C 0.1678(5) -0.1460(5) -0.0699(5)
H26 H 0.2361 -0.2225 -0.0754
H27 H 0.0880 -0.1622 -0.0482
C19 C 0.1838(6) -0.0496(6) -0.1915(5)
H28 H 0.1192 0.0278 -0.1860
H29 H 0.1761 -0.0766 -0.2479
H30 H 0.2663 -0.0390 -0.2173
C20 C 0.8948(4) -0.3431(5) 0.1506(4)
H31 H 0.9461 -0.2871 0.1102
H32 H 0.9513 -0.4255 0.1772
C21 C 0.7983(5) -0.3067(5) 0.2603(4)
H33 H 0.7421 -0.2238 0.2349
H34 H 0.7468 -0.3625 0.3018
C22 C 0.8584(5) -0.3099(5) 0.3472(4)
H35 H 0.9283 -0.3860 0.3588
H36 H 0.8931 -0.2412 0.3126
C23 C 0.7628(5) -0.3020(6) 0.4688(5)
H37 H 0.7326 -0.3729 0.5060
H38 H 0.8038 -0.3002 0.5187
H39 H 0.6922 -0.2280 0.4576
C24 C 0.7860(4) -0.3969(4) -0.0942(4)
H40 H 0.8372 -0.4824 -0.0890
H41 H 0.8161 -0.3473 -0.1749
C25 C 0.6484(5) -0.3864(5) -0.0752(4)
H42 H 0.6199 -0.4422 0.0022
H43 H 0.5950 -0.3028 -0.0742
C26 C 0.6300(5) -0.4166(5) -0.1710(5)
H44 H 0.6597 -0.3618 -0.2486
H45 H 0.5398 -0.4006 -0.1572
C27 C 0.6996(6) -0.5489(6) -0.1728(6)
H46 H 0.6696 -0.6038 -0.0968
H47 H 0.6841 -0.5623 -0.2340
H48 H 0.7893 -0.5648 -0.1889
H49 H 0.128(5) 0.153(5) 0.140(5)
Sn2A Sn 1.17866(3) -0.65728(3) -0.02411(3)
Sn2A_2 Sn 0.17866(3) 0.34272(3) -0.02411(3)
O3A O 1.0421(3) -0.4030(3) -0.0902(3)
O5A O 0.8214(3) -0.1609(3) -0.0862(3)
H49A H 0.872(5) -0.153(5) -0.140(5)
loop_
_geom_bond_atom_site_label_1
_geom_bond_atom_site_label_2
_geom_bond_site_symmetry_1
_geom_bond_site_symmetry_2
Sn1 O1 1_555 1_555
Sn2 O2 1_555 1_555
O1 C1 1_555 1_555
O2 C1 1_555 1_555
O3 C7 1_555 1_555
O4 C7 1_555 1_555
O5 Sn1 1_555 1_555
N1 Sn2 1_555 1_555
C1 C2 1_555 1_555
C2 N1 1_555 1_555
C3 C2 1_555 1_555
H1 C3 1_555 1_555
C4 C3 1_555 1_555
H2 C4 1_555 1_555
C5 C4 1_555 1_555
H3 C5 1_555 1_555
C6 N1 1_555 1_555
C7 C6 1_555 1_555
C8 Sn1 1_555 1_555
H4 C8 1_555 1_555
H5 C8 1_555 1_555
C9 C8 1_555 1_555
H6 C9 1_555 1_555
H7 C9 1_555 1_555
C10 C9 1_555 1_555
H8 C10 1_555 1_555
H9 C10 1_555 1_555
C11 C10 1_555 1_555
H10 C11 1_555 1_555
H11 C11 1_555 1_555
H12 C11 1_555 1_555
C12 Sn1 1_555 1_555
H13 C12 1_555 1_555
H14 C12 1_555 1_555
C13 C12 1_555 1_555
H15 C13 1_555 1_555
H16 C13 1_555 1_555
C14 C13 1_555 1_555
H17 C14 1_555 1_555
H18 C14 1_555 1_555
C15 C14 1_555 1_555
H19 C15 1_555 1_555
H20 C15 1_555 1_555
H21 C15 1_555 1_555
C16 Sn1 1_555 1_555
H22 C16 1_555 1_555
H23 C16 1_555 1_555
C17 C16 1_555 1_555
H24 C17 1_555 1_555
H25 C17 1_555 1_555
C18 C17 1_555 1_555
H26 C18 1_555 1_555
H27 C18 1_555 1_555
C19 C18 1_555 1_555
H28 C19 1_555 1_555
H29 C19 1_555 1_555
H30 C19 1_555 1_555
C20 Sn2 1_555 1_555
H31 C20 1_555 1_555
H32 C20 1_555 1_555
C21 C20 1_555 1_555
H33 C21 1_555 1_555
H34 C21 1_555 1_555
C22 C21 1_555 1_555
H35 C22 1_555 1_555
H36 C22 1_555 1_555
C23 C22 1_555 1_555
H37 C23 1_555 1_555
H38 C23 1_555 1_555
H39 C23 1_555 1_555
C24 Sn2 1_555 1_555
H40 C24 1_555 1_555
H41 C24 1_555 1_555
C25 C24 1_555 1_555
H42 C25 1_555 1_555
H43 C25 1_555 1_555
C26 C25 1_555 1_555
H44 C26 1_555 1_555
H45 C26 1_555 1_555
C27 C26 1_555 1_555
H46 C27 1_555 1_555
H47 C27 1_555 1_555
H48 C27 1_555 1_555
H49 O5 1_555 1_555
Sn2A O3 1_555 1_555
Sn2A_2 O5 1_555 1_555
O3A Sn2 1_555 1_555
O5A Sn2 1_555 1_555
H49A O5A 1_555 1_555
C5 C6 1_555 1_555

#END
