
#######################################################################
#
#                 Cambridge Crystallographic Data Centre
#                                CCDC 
#
#######################################################################
#
# If this CIF has been generated from an entry in the Cambridge 
# Structural Database, then it will include bibliographic, chemical, 
# crystal, experimental, refinement or atomic coordinate data resulting 
# from the CCDC's data processing and validation procedures.
#
#######################################################################

data_KEBNIQ
_symmetry_cell_setting           monoclinic
_symmetry_space_group_name_H-M   'P 21/c'
_symmetry_Int_Tables_number      14
_space_group_name_Hall           '-P 2ybc'
loop_
_symmetry_equiv_pos_site_id
_symmetry_equiv_pos_as_xyz
1 x,y,z
2 -x,1/2+y,1/2-z
3 -x,-y,-z
4 x,1/2-y,1/2+z
_cell_length_a                   9.795(5)
_cell_length_b                   18.067(5)
_cell_length_c                   39.224(5)
_cell_angle_alpha                90
_cell_angle_beta                 90.154(5)
_cell_angle_gamma                90
_cell_volume                     6941.3
loop_
_atom_site_label
_atom_site_type_symbol
_atom_site_fract_x
_atom_site_fract_y
_atom_site_fract_z
Sn1 Sn -0.09617(3) 0.315164(19) 0.286777(9)
Sn2 Sn 0.29037(3) 0.524966(18) 0.132204(9)
Sn3 Sn -0.19705(3) 0.523850(18) 0.380140(9)
Sn4 Sn -0.61547(4) 0.158600(19) 0.532300(9)
O1 O -0.0120(3) 0.29727(18) 0.23806(8)
O2 O -0.0604(4) 0.17523(19) 0.23651(9)
O3 O 0.2311(4) 0.41528(18) 0.14740(8)
O4 O 0.2832(4) 0.35605(19) 0.09885(8)
O5 O -0.5367(3) 0.16045(18) 0.48198(8)
O6 O -0.5048(4) 0.28241(19) 0.48797(9)
O7 O -0.2587(3) 0.41474(18) 0.39651(8)
O8 O -0.1885(4) 0.35408(19) 0.35011(9)
N1 N 0.1393(4) 0.1579(2) 0.14253(10)
N2 N -0.3441(4) 0.1565(2) 0.38929(10)
C1 C -0.0110(5) 0.2318(3) 0.22412(12)
C2 C 0.0584(5) 0.2298(3) 0.19005(12)
C3 C 0.0751(5) 0.1628(3) 0.17224(12)
H1 H 0.0395 0.1198 0.1817
C4 C 0.1877(5) 0.2209(3) 0.12903(12)
H2 H 0.2323 0.2182 0.1082
C5 C 0.1754(5) 0.2896(3) 0.14431(12)
C6 C 0.1114(5) 0.2932(3) 0.17524(12)
H3 H 0.1036 0.3384 0.1864
C7 C 0.2358(5) 0.3580(3) 0.12766(12)
C8 C -0.2462(5) 0.3575(3) 0.37772(13)
C9 C -0.3082(5) 0.2880(3) 0.39276(12)
C10 C -0.2968(5) 0.2206(3) 0.37625(13)
H4 H -0.2544 0.2194 0.3551
C11 C -0.4070(5) 0.1594(3) 0.41951(12)
H5 H -0.4402 0.1156 0.4288
C12 C -0.4253(5) 0.2246(3) 0.43777(12)
C13 C -0.3742(5) 0.2896(3) 0.42369(13)
H6 H -0.3847 0.3343 0.4352
C14 C -0.4945(5) 0.2248(3) 0.47193(13)
C15 C 0.0388(5) 0.2457(3) 0.31547(13)
H7 H 0.0088 0.2461 0.3390
H8 H 0.0284 0.1954 0.3071
C16 C 0.1922(5) 0.2649(3) 0.31498(14)
H9 H 0.2429 0.2227 0.3237
H10 H 0.2198 0.2724 0.2915
C17 C 0.2320(6) 0.3324(3) 0.33536(14)
H11 H 0.1926 0.3290 0.3580
H12 H 0.1953 0.3762 0.3244
C18 C 0.3869(6) 0.3395(3) 0.33839(15)
H13 H 0.4234 0.2959 0.3490
H14 H 0.4089 0.3821 0.3520
H15 H 0.4257 0.3450 0.3161
C19 C -0.0794(5) 0.4322(3) 0.28105(13)
H16 H -0.1000 0.4560 0.3026
H17 H 0.0137 0.4448 0.2750
C20 C -0.1762(6) 0.4611(3) 0.25373(14)
H18 H -0.2692 0.4511 0.2608
H19 H -0.1603 0.4336 0.2329
C21 C -0.1634(6) 0.5436(3) 0.24594(14)
H20 H -0.1796 0.5715 0.2667
H21 H -0.0709 0.5539 0.2385
C22 C -0.2625(8) 0.5693(4) 0.21864(18)
H22 H -0.2418 0.5451 0.1975
H23 H -0.2546 0.6219 0.2158
H24 H -0.3540 0.5572 0.2253
C23 C -0.2953(5) 0.2695(3) 0.28000(13)
H25 H -0.2904 0.2167 0.2845
H26 H -0.3551 0.2910 0.2970
C24 C -0.3608(5) 0.2807(3) 0.24482(13)
H27 H -0.3839 0.3325 0.2420
H28 H -0.2949 0.2679 0.2274
C25 C -0.4892(6) 0.2340(3) 0.23983(14)
H29 H -0.4658 0.1822 0.2424
H30 H -0.5546 0.2465 0.2574
C26 C -0.5553(6) 0.2456(4) 0.20508(16)
H31 H -0.5865 0.2958 0.2032
H32 H -0.6314 0.2125 0.2026
H33 H -0.4897 0.2358 0.1875
C27 C 0.1192(5) 0.5375(3) 0.09886(13)
H34 H 0.1510 0.5562 0.0771
H35 H 0.0787 0.4893 0.0949
C28 C 0.0089(5) 0.5900(3) 0.11258(13)
H36 H -0.0275 0.5696 0.1336
H37 H 0.0506 0.6373 0.1180
C29 C -0.1081(5) 0.6026(3) 0.08770(13)
H38 H -0.1532 0.5558 0.0833
H39 H -0.0712 0.6203 0.0663
C30 C -0.2131(6) 0.6580(3) 0.10055(16)
H40 H -0.2537 0.6397 0.1211
H41 H -0.2827 0.6648 0.0836
H42 H -0.1692 0.7045 0.1051
C31 C 0.4971(5) 0.4996(3) 0.11861(13)
H43 H 0.4974 0.4804 0.0955
H44 H 0.5490 0.5453 0.1185
C32 C 0.5705(5) 0.4443(3) 0.14162(13)
H45 H 0.5620 0.4603 0.1651
H46 H 0.5262 0.3965 0.1396
C33 C 0.7196(5) 0.4358(3) 0.13317(14)
H47 H 0.7637 0.4836 0.1356
H48 H 0.7276 0.4209 0.1095
C34 C 0.7950(7) 0.3799(4) 0.15532(16)
H49 H 0.7859 0.3934 0.1789
H50 H 0.8899 0.3794 0.1493
H51 H 0.7568 0.3315 0.1518
C35 C 0.2579(5) 0.5730(3) 0.18162(12)
H52 H 0.3402 0.5993 0.1881
H53 H 0.1855 0.6094 0.1796
C36 C 0.2208(5) 0.5202(3) 0.21062(13)
H54 H 0.1903 0.5489 0.2300
H55 H 0.1453 0.4892 0.2033
C37 C 0.3381(5) 0.4709(3) 0.22180(13)
H56 H 0.4126 0.5017 0.2299
H57 H 0.3707 0.4432 0.2023
C38 C 0.2985(6) 0.4170(3) 0.24986(13)
H58 H 0.2635 0.4440 0.2690
H59 H 0.3773 0.3891 0.2568
H60 H 0.2296 0.3838 0.2415
C39 C 0.0188(5) 0.5073(3) 0.37927(13)
H61 H 0.0439 0.4894 0.3568
H62 H 0.0630 0.5548 0.3825
C40 C 0.0744(6) 0.4541(3) 0.40550(15)
H63 H 0.0468 0.4042 0.3995
H64 H 0.0351 0.4657 0.4275
C41 C 0.2308(5) 0.4569(3) 0.40837(15)
H65 H 0.2697 0.4512 0.3858
H66 H 0.2576 0.5052 0.4169
C42 C 0.2896(6) 0.3979(3) 0.43156(16)
H67 H 0.2504 0.4026 0.4539
H68 H 0.3868 0.4039 0.4331
H69 H 0.2689 0.3499 0.4225
C43 C -0.2750(6) 0.5777(3) 0.42490(13)
H70 H -0.2025 0.6083 0.4342
H71 H -0.3477 0.6107 0.4177
C44 C -0.3300(6) 0.5298(3) 0.45386(13)
H72 H -0.3801 0.5611 0.4695
H73 H -0.3938 0.4941 0.4444
C45 C -0.2209(6) 0.4885(3) 0.47362(14)
H74 H -0.1557 0.5239 0.4826
H75 H -0.1725 0.4560 0.4581
C46 C -0.2775(7) 0.4425(3) 0.50303(15)
H76 H -0.3330 0.4734 0.5173
H77 H -0.2033 0.4226 0.5162
H78 H -0.3319 0.4028 0.4941
C47 C -0.3315(5) 0.5229(3) 0.33751(13)
H79 H -0.2874 0.5481 0.3187
H80 H -0.3467 0.4720 0.3307
C48 C -0.4688(5) 0.5591(3) 0.34379(13)
H81 H -0.4548 0.6108 0.3496
H82 H -0.5124 0.5353 0.3631
C49 C -0.5629(5) 0.5542(3) 0.31283(14)
H83 H -0.5770 0.5024 0.3072
H84 H -0.5183 0.5774 0.2935
C50 C -0.7018(6) 0.5908(3) 0.31813(15)
H85 H -0.7486 0.5667 0.3365
H86 H -0.7551 0.5865 0.2976
H87 H -0.6891 0.6421 0.3236
C51 C -0.7847(5) 0.2320(3) 0.52853(13)
H88 H -0.8488 0.2200 0.5465
H89 H -0.7525 0.2820 0.5326
C52 C -0.8606(5) 0.2306(3) 0.49472(13)
H90 H -0.8975 0.1814 0.4911
H91 H -0.7966 0.2408 0.4765
C53 C -0.9765(6) 0.2867(3) 0.49313(15)
H92 H -0.9393 0.3362 0.4952
H93 H -1.0378 0.2785 0.5121
C54 C -1.0565(6) 0.2806(3) 0.45975(17)
H94 H -0.9958 0.2879 0.4409
H95 H -1.1267 0.3177 0.4592
H96 H -1.0973 0.2324 0.4581
C55 C -0.4404(5) 0.1916(3) 0.56110(13)
H97 H -0.4326 0.1600 0.5810
H98 H -0.3595 0.1842 0.5473
C56 C -0.4447(6) 0.2718(3) 0.57273(16)
H99 H -0.5327 0.2813 0.5832
H100 H -0.4375 0.3035 0.5529
C57 C -0.3329(6) 0.2930(4) 0.59796(16)
H101 H -0.3451 0.3447 0.6040
H102 H -0.3457 0.2642 0.6186
C58 C -0.1899(7) 0.2827(4) 0.58639(19)
H103 H -0.1722 0.2310 0.5831
H104 H -0.1284 0.3020 0.6033
H105 H -0.1765 0.3086 0.5653
C59 C -0.6611(6) 0.0425(3) 0.52873(13)
H106 H -0.5758 0.0152 0.5279
H107 H -0.7085 0.0275 0.5493
C60 C -0.7473(5) 0.0209(3) 0.49812(13)
H108 H -0.6958 0.0307 0.4775
H109 H -0.8283 0.0517 0.4976
C61 C -0.7910(6) -0.0607(3) 0.49814(13)
H110 H -0.7098 -0.0915 0.4986
H111 H -0.8422 -0.0706 0.5188
C62 C -0.8776(6) -0.0827(3) 0.46753(13)
H112 H -0.9555 -0.0506 0.4660
H113 H -0.9077 -0.1329 0.4701
H114 H -0.8243 -0.0784 0.4471
Sn2A Sn -0.29037(3) 0.024966(18) 0.367796(9)
Sn3A Sn 0.19705(3) 0.023850(18) 0.119860(9)
N1A N -0.1393(4) 0.6579(2) 0.35747(10)
N2A N 0.3441(4) 0.6565(2) 0.11071(10)
loop_
_geom_bond_atom_site_label_1
_geom_bond_atom_site_label_2
_geom_bond_site_symmetry_1
_geom_bond_site_symmetry_2
Sn1 O1 1_555 1_555
Sn2 O3 1_555 1_555
Sn3 O7 1_555 1_555
Sn4 O5 1_555 1_555
O1 C1 1_555 1_555
O2 C1 1_555 1_555
O3 C7 1_555 1_555
O4 C7 1_555 1_555
O5 C14 1_555 1_555
O6 C14 1_555 1_555
O7 C8 1_555 1_555
O8 Sn1 1_555 1_555
N1 C3 1_555 1_555
N2 C10 1_555 1_555
C1 C2 1_555 1_555
C2 C3 1_555 1_555
C3 H1 1_555 1_555
C4 N1 1_555 1_555
H2 C4 1_555 1_555
C5 C4 1_555 1_555
C6 C2 1_555 1_555
H3 C6 1_555 1_555
C7 C5 1_555 1_555
C8 O8 1_555 1_555
C9 C8 1_555 1_555
C10 C9 1_555 1_555
H4 C10 1_555 1_555
C11 N2 1_555 1_555
H5 C11 1_555 1_555
C12 C11 1_555 1_555
C13 C9 1_555 1_555
H6 C13 1_555 1_555
C14 C12 1_555 1_555
C15 Sn1 1_555 1_555
H7 C15 1_555 1_555
H8 C15 1_555 1_555
C16 C15 1_555 1_555
H9 C16 1_555 1_555
H10 C16 1_555 1_555
C17 C16 1_555 1_555
H11 C17 1_555 1_555
H12 C17 1_555 1_555
C18 C17 1_555 1_555
H13 C18 1_555 1_555
H14 C18 1_555 1_555
H15 C18 1_555 1_555
C19 Sn1 1_555 1_555
H16 C19 1_555 1_555
H17 C19 1_555 1_555
C20 C19 1_555 1_555
H18 C20 1_555 1_555
H19 C20 1_555 1_555
C21 C20 1_555 1_555
H20 C21 1_555 1_555
H21 C21 1_555 1_555
C22 C21 1_555 1_555
H22 C22 1_555 1_555
H23 C22 1_555 1_555
H24 C22 1_555 1_555
C23 Sn1 1_555 1_555
H25 C23 1_555 1_555
H26 C23 1_555 1_555
C24 C23 1_555 1_555
H27 C24 1_555 1_555
H28 C24 1_555 1_555
C25 C24 1_555 1_555
H29 C25 1_555 1_555
H30 C25 1_555 1_555
C26 C25 1_555 1_555
H31 C26 1_555 1_555
H32 C26 1_555 1_555
H33 C26 1_555 1_555
C27 Sn2 1_555 1_555
H34 C27 1_555 1_555
H35 C27 1_555 1_555
C28 C27 1_555 1_555
H36 C28 1_555 1_555
H37 C28 1_555 1_555
C29 C28 1_555 1_555
H38 C29 1_555 1_555
H39 C29 1_555 1_555
C30 C29 1_555 1_555
H40 C30 1_555 1_555
H41 C30 1_555 1_555
H42 C30 1_555 1_555
C31 Sn2 1_555 1_555
H43 C31 1_555 1_555
H44 C31 1_555 1_555
C32 C31 1_555 1_555
H45 C32 1_555 1_555
H46 C32 1_555 1_555
C33 C32 1_555 1_555
H47 C33 1_555 1_555
H48 C33 1_555 1_555
C34 C33 1_555 1_555
H49 C34 1_555 1_555
H50 C34 1_555 1_555
H51 C34 1_555 1_555
C35 Sn2 1_555 1_555
H52 C35 1_555 1_555
H53 C35 1_555 1_555
C36 C35 1_555 1_555
H54 C36 1_555 1_555
H55 C36 1_555 1_555
C37 C36 1_555 1_555
H56 C37 1_555 1_555
H57 C37 1_555 1_555
C38 C37 1_555 1_555
H58 C38 1_555 1_555
H59 C38 1_555 1_555
H60 C38 1_555 1_555
C39 Sn3 1_555 1_555
H61 C39 1_555 1_555
H62 C39 1_555 1_555
C40 C39 1_555 1_555
H63 C40 1_555 1_555
H64 C40 1_555 1_555
C41 C40 1_555 1_555
H65 C41 1_555 1_555
H66 C41 1_555 1_555
C42 C41 1_555 1_555
H67 C42 1_555 1_555
H68 C42 1_555 1_555
H69 C42 1_555 1_555
C43 Sn3 1_555 1_555
H70 C43 1_555 1_555
H71 C43 1_555 1_555
C44 C43 1_555 1_555
H72 C44 1_555 1_555
H73 C44 1_555 1_555
C45 C44 1_555 1_555
H74 C45 1_555 1_555
H75 C45 1_555 1_555
C46 C45 1_555 1_555
H76 C46 1_555 1_555
H77 C46 1_555 1_555
H78 C46 1_555 1_555
C47 Sn3 1_555 1_555
H79 C47 1_555 1_555
H80 C47 1_555 1_555
C48 C47 1_555 1_555
H81 C48 1_555 1_555
H82 C48 1_555 1_555
C49 C48 1_555 1_555
H83 C49 1_555 1_555
H84 C49 1_555 1_555
C50 C49 1_555 1_555
H85 C50 1_555 1_555
H86 C50 1_555 1_555
H87 C50 1_555 1_555
C51 Sn4 1_555 1_555
H88 C51 1_555 1_555
H89 C51 1_555 1_555
C52 C51 1_555 1_555
H90 C52 1_555 1_555
H91 C52 1_555 1_555
C53 C52 1_555 1_555
H92 C53 1_555 1_555
H93 C53 1_555 1_555
C54 C53 1_555 1_555
H94 C54 1_555 1_555
H95 C54 1_555 1_555
H96 C54 1_555 1_555
C55 Sn4 1_555 1_555
H97 C55 1_555 1_555
H98 C55 1_555 1_555
C56 C55 1_555 1_555
H99 C56 1_555 1_555
H100 C56 1_555 1_555
C57 C56 1_555 1_555
H101 C57 1_555 1_555
H102 C57 1_555 1_555
C58 C57 1_555 1_555
H103 C58 1_555 1_555
H104 C58 1_555 1_555
H105 C58 1_555 1_555
C59 Sn4 1_555 1_555
H106 C59 1_555 1_555
H107 C59 1_555 1_555
C60 C59 1_555 1_555
H108 C60 1_555 1_555
H109 C60 1_555 1_555
C61 C60 1_555 1_555
H110 C61 1_555 1_555
H111 C61 1_555 1_555
C62 C61 1_555 1_555
H112 C62 1_555 1_555
H113 C62 1_555 1_555
H114 C62 1_555 1_555
Sn2A N2 1_555 1_555
Sn3A N1 1_555 1_555
N1A Sn3 1_555 1_555
N2A Sn2 1_555 1_555
C5 C6 1_555 1_555
C12 C13 1_555 1_555

#END
