
#######################################################################
#
#                 Cambridge Crystallographic Data Centre
#                                CCDC 
#
#######################################################################
#
# If this CIF has been generated from an entry in the Cambridge 
# Structural Database, then it will include bibliographic, chemical, 
# crystal, experimental, refinement or atomic coordinate data resulting 
# from the CCDC's data processing and validation procedures.
#
#######################################################################

data_KEBQIT
_symmetry_cell_setting           triclinic
_symmetry_space_group_name_H-M   'P -1'
_symmetry_Int_Tables_number      2
_space_group_name_Hall           '-P 1'
loop_
_symmetry_equiv_pos_site_id
_symmetry_equiv_pos_as_xyz
1 x,y,z
2 -x,-y,-z
_cell_length_a                   9.2597(6)
_cell_length_b                   9.4665(6)
_cell_length_c                   14.6710(9)
_cell_angle_alpha                80.899(5)
_cell_angle_beta                 75.478(5)
_cell_angle_gamma                67.339(5)
_cell_volume                     1146.09
loop_
_atom_site_label
_atom_site_type_symbol
_atom_site_fract_x
_atom_site_fract_y
_atom_site_fract_z
Cu1 Cu 0.38751(3) 0.96809(3) 0.066130(19)
N1 N 0.1703(2) 0.6254(2) 0.35484(12)
C1 C 0.0093(2) 0.6747(2) 0.37609(15)
H1 H -0.0353 0.6180 0.4244
N2 N -0.0931(2) 0.7939(2) 0.33682(12)
C2 C -0.0150(2) 0.8661(2) 0.26761(14)
C3 C 0.1494(2) 0.8289(2) 0.23814(14)
C4 C 0.2474(2) 0.7010(2) 0.28580(14)
N3 N 0.4072(2) 0.6488(2) 0.26790(12)
H2 H 0.4589 0.5691 0.2997
H3 H 0.4582 0.6950 0.2245
N4 N 0.1808(2) 0.9329(2) 0.16406(12)
C5 C 0.0381(2) 1.0264(2) 0.15195(15)
H4 H 0.0224 1.1081 0.1064
N5 N -0.08463(19) 0.99299(19) 0.21190(12)
C6 C -0.2557(2) 1.0754(3) 0.21762(16)
H5 H -0.3118 1.0064 0.2426
H6 H -0.2749 1.1161 0.1557
H7 H -0.2931 1.1579 0.2583
C7 C 0.5380(2) 0.7768(2) -0.08916(14)
O1 O 0.43048(17) 0.80459(16) -0.01485(10)
O2 O 0.61883(17) 0.85899(17) -0.12750(10)
C8 C 0.5756(2) 0.6284(2) -0.13244(14)
H8 H 0.6178 0.6382 -0.1997
H9 H 0.4784 0.6069 -0.1235
C9 C 0.6996(2) 0.4951(2) -0.08559(15)
H10 H 0.6742 0.5076 -0.0184
H11 H 0.6911 0.3992 -0.0939
C10 C 0.8721(2) 0.4854(2) -0.12544(15)
H12 H 0.8974 0.4749 -0.1929
H13 H 0.8818 0.5801 -0.1157
C11 C 0.9923(2) 0.3509(2) -0.07957(15)
H14 H 0.9715 0.2582 -0.0805
H15 H 0.9778 0.3694 -0.0141
C12 C 1.1650(2) 0.3265(2) -0.12970(15)
H16 H 1.1787 0.3056 -0.1946
H17 H 1.1829 0.4213 -0.1310
C13 C 1.2914(2) 0.1985(2) -0.08623(14)
O3 O 1.24756(17) 0.12229(17) -0.01439(10)
O4 O 1.43627(16) 0.17557(17) -0.12628(10)
Cu1A Cu 0.61249(3) 1.03191(3) -0.066130(19)
Cu1_2 Cu 1.38751(3) -0.03191(3) 0.066130(19)
Cu1A_2 Cu 1.61249(3) 0.03191(3) -0.066130(19)
O2A O 0.38117(17) 1.14101(17) 0.12750(10)
O3_2 O 0.24756(17) 1.12229(17) -0.01439(10)
O4A O 0.56373(16) 0.82443(17) 0.12628(10)
C14 C -0.0784(3) 1.3119(2) 0.32368(15)
O5 O -0.16834(19) 1.35752(18) 0.40778(11)
O6 O -0.13483(18) 1.32624(18) 0.25491(11)
C15 C 0.0963(2) 1.2377(2) 0.32572(15)
H18 H 0.1328 1.3128 0.3408
H19 H 0.1561 1.2044 0.2635
C16 C 0.1311(2) 1.0995(2) 0.39808(15)
H20 H 0.0846 1.1352 0.4611
H21 H 0.0803 1.0319 0.3890
C17 C 0.3101(2) 1.0092(2) 0.39040(16)
H22 H 0.3554 0.9681 0.3287
H23 H 0.3620 1.0781 0.3958
C18 C 0.3441(3) 0.8780(2) 0.46609(15)
H24 H 0.2993 0.9191 0.5278
H25 H 0.2916 0.8094 0.4610
C19 C 0.5221(3) 0.7876(3) 0.45807(16)
H26 H 0.5640 0.7416 0.3978
H27 H 0.5745 0.8589 0.4575
C20 C 0.5671(2) 0.6629(2) 0.53460(15)
O7 O 0.71584(17) 0.62005(18) 0.54178(11)
O8 O 0.47473(17) 0.60379(18) 0.58597(12)
H28 H -0.269(4) 1.374(4) 0.408(3)
H29 H 0.741(4) 0.534(4) 0.585(2)
loop_
_geom_bond_atom_site_label_1
_geom_bond_atom_site_label_2
_geom_bond_site_symmetry_1
_geom_bond_site_symmetry_2
Cu1 N4 1_555 1_555
N1 C1 1_555 1_555
C1 H1 1_555 1_555
N2 C1 1_555 1_555
C2 N2 1_555 1_555
C3 C2 1_555 1_555
C4 N1 1_555 1_555
N3 C4 1_555 1_555
H2 N3 1_555 1_555
H3 N3 1_555 1_555
N4 C3 1_555 1_555
C5 N4 1_555 1_555
H4 C5 1_555 1_555
N5 C2 1_555 1_555
C6 N5 1_555 1_555
H5 C6 1_555 1_555
H6 C6 1_555 1_555
H7 C6 1_555 1_555
C7 O1 1_555 1_555
O1 Cu1 1_555 1_555
O2 C7 1_555 1_555
C8 C7 1_555 1_555
H8 C8 1_555 1_555
H9 C8 1_555 1_555
C9 C8 1_555 1_555
H10 C9 1_555 1_555
H11 C9 1_555 1_555
C10 C9 1_555 1_555
H12 C10 1_555 1_555
H13 C10 1_555 1_555
C11 C10 1_555 1_555
H14 C11 1_555 1_555
H15 C11 1_555 1_555
C12 C11 1_555 1_555
H16 C12 1_555 1_555
H17 C12 1_555 1_555
C13 C12 1_555 1_555
O3 C13 1_555 1_555
O4 C13 1_555 1_555
C14 O5 1_555 1_555
O5 H28 1_555 1_555
O6 C14 1_555 1_555
C15 C14 1_555 1_555
H18 C15 1_555 1_555
H19 C15 1_555 1_555
C16 C15 1_555 1_555
H20 C16 1_555 1_555
H21 C16 1_555 1_555
C17 C16 1_555 1_555
H22 C17 1_555 1_555
H23 C17 1_555 1_555
C18 C17 1_555 1_555
H24 C18 1_555 1_555
H25 C18 1_555 1_555
C19 C18 1_555 1_555
H26 C19 1_555 1_555
H27 C19 1_555 1_555
C20 C19 1_555 1_555
O7 C20 1_555 1_555
O8 C20 1_555 1_555
H29 O7 1_555 1_555
Cu1A O2 1_555 1_555
Cu1_2 O3 1_555 1_555
Cu1A_2 O4 1_555 1_555
O2A Cu1 1_555 1_555
O3_2 Cu1 1_555 1_555
O4A Cu1 1_555 1_555
C3 C4 1_555 1_555
C5 N5 1_555 1_555

#END
