
#######################################################################
#
#                 Cambridge Crystallographic Data Centre
#                                CCDC 
#
#######################################################################
#
# If this CIF has been generated from an entry in the Cambridge 
# Structural Database, then it will include bibliographic, chemical, 
# crystal, experimental, refinement or atomic coordinate data resulting 
# from the CCDC's data processing and validation procedures.
#
#######################################################################

data_KEBSIU
_symmetry_cell_setting           monoclinic
_symmetry_space_group_name_H-M   'P 21/c'
_symmetry_Int_Tables_number      14
_space_group_name_Hall           '-P 2ybc'
loop_
_symmetry_equiv_pos_site_id
_symmetry_equiv_pos_as_xyz
1 x,y,z
2 -x,1/2+y,1/2-z
3 -x,-y,-z
4 x,1/2-y,1/2+z
_cell_length_a                   12.338(3)
_cell_length_b                   12.167(3)
_cell_length_c                   18.167(4)
_cell_angle_alpha                90
_cell_angle_beta                 111.686(14)
_cell_angle_gamma                90
_cell_volume                     2534.14
loop_
_atom_site_label
_atom_site_type_symbol
_atom_site_fract_x
_atom_site_fract_y
_atom_site_fract_z
Cu1 Cu 0.78465(3) 0.94205(3) 0.26653(3)
Cu2 Cu 1.36536(3) 0.51057(3) 0.12370(3)
O1 O 0.8960(2) 0.82685(19) 0.24514(17)
O2 O 0.8649(2) 0.9899(2) 0.19555(18)
O3 O 1.1546(2) 0.57864(19) 0.16797(19)
O4 O 1.2768(2) 0.64548(19) 0.11553(17)
O5 O 0.72376(18) 0.86362(17) 0.33286(15)
O6 O 0.8914(2) 0.8137(2) 0.42914(19)
O7 O 0.3785(2) 0.4867(2) 0.31173(16)
O8 O 0.4656(2) 0.5445(2) 0.23023(16)
N1 N 1.4884(2) 0.4135(2) 0.10803(17)
N2 N 1.2819(2) 0.4771(2) 0.00880(17)
C1 C 1.4571(3) 0.3784(3) 0.0321(2)
C2 C 0.4587(3) 0.5327(3) 0.2967(2)
C3 C 0.7869(3) 0.8015(3) 0.3910(2)
C4 C 1.0063(3) 0.8835(3) 0.1667(2)
C5 C 0.5913(3) 0.5411(3) 0.4415(2)
H1 H 0.5477 0.4856 0.4524
C6 C 0.7192(3) 0.7098(2) 0.4107(2)
C7 C 1.0586(2) 0.7821(3) 0.1704(2)
H2 H 1.0391 0.7243 0.1966
C8 C 0.9179(3) 0.9000(3) 0.2036(2)
C9 C 1.0346(3) 0.9683(3) 0.1268(3)
H3 H 0.9987 1.0363 0.1234
C10 C 0.7524(3) 0.6672(3) 0.4860(2)
H4 H 0.8184 0.6944 0.5262
C11 C 1.1754(3) 0.5067(3) -0.0387(3)
H5 H 1.1308 0.5502 -0.0186
C12 C 0.6880(3) 0.5837(3) 0.5023(2)
H6 H 0.7092 0.5564 0.5536
C13 C 1.1398(3) 0.7658(3) 0.1352(2)
C14 C 0.5596(3) 0.5803(3) 0.3651(2)
C15 C 1.3443(3) 0.4132(3) -0.0221(2)
C16 C 0.6230(3) 0.6661(2) 0.3496(2)
H7 H 0.6012 0.6943 0.2986
C17 C 1.1150(4) 0.9534(3) 0.0922(3)
H8 H 1.1345 1.0116 0.0663
C18 C 1.1948(3) 0.6539(3) 0.1405(2)
C19 C 1.1282(4) 0.4742(4) -0.1185(3)
H9 H 1.0532 0.4958 -0.1503
C20 C 1.5267(3) 0.3099(3) 0.0057(3)
C21 C 1.3043(3) 0.3777(3) -0.1010(2)
C22 C 1.6343(4) 0.2780(3) 0.0628(3)
H10 H 1.6841 0.2329 0.0484
C23 C 1.6652(3) 0.3123(3) 0.1379(3)
H11 H 1.7366 0.2910 0.1755
C24 C 1.1672(3) 0.8521(3) 0.0956(2)
H12 H 1.2208 0.8418 0.0712
C25 C 1.4846(4) 0.2777(3) -0.0756(3)
H13 H 1.5310 0.2340 -0.0941
C26 C 1.5905(3) 0.3803(3) 0.1599(2)
H14 H 1.6131 0.4027 0.2124
C27 C 1.3781(4) 0.3099(3) -0.1261(3)
H15 H 1.3525 0.2872 -0.1786
C28 C 1.1921(4) 0.4115(3) -0.1489(3)
H16 H 1.1612 0.3909 -0.2019
Cu1A Cu 1.21535(3) 0.44205(3) 0.23347(3)
Cu1A_2 Cu 0.21535(3) 0.44205(3) 0.23347(3)
Cu2A Cu 0.63464(3) 1.01057(3) 0.37630(3)
Cu2_2 Cu 0.36536(3) 0.51057(3) 0.12370(3)
O3A O 0.8454(2) 1.07864(19) 0.33203(19)
O5A O 1.27624(18) 0.36362(17) 0.16714(15)
O7A O 0.6215(2) 0.9867(2) 0.18827(16)
O8_2 O 1.4656(2) 0.5445(2) 0.23023(16)
O9 O 0.9121(3) 0.2325(3) 0.1038(3)
H17 H 0.9007 0.2335 0.1520
H18 H 0.9808 0.2681 0.1060
loop_
_geom_bond_atom_site_label_1
_geom_bond_atom_site_label_2
_geom_bond_site_symmetry_1
_geom_bond_site_symmetry_2
Cu1 O1 1_555 1_555
Cu2 O4 1_555 1_555
O1 C8 1_555 1_555
O2 Cu1 1_555 1_555
O3 C18 1_555 1_555
O4 C18 1_555 1_555
O5 Cu1 1_555 1_555
O6 C3 1_555 1_555
O7 C2 1_555 1_555
O8 C2 1_555 1_555
N1 Cu2 1_555 1_555
N2 Cu2 1_555 1_555
C1 N1 1_555 1_555
C2 C14 1_555 1_555
C3 O5 1_555 1_555
C4 C7 1_555 1_555
C5 H1 1_555 1_555
C6 C3 1_555 1_555
C7 H2 1_555 1_555
C8 O2 1_555 1_555
C9 C4 1_555 1_555
H3 C9 1_555 1_555
C10 C6 1_555 1_555
H4 C10 1_555 1_555
C11 N2 1_555 1_555
H5 C11 1_555 1_555
C12 C5 1_555 1_555
H6 C12 1_555 1_555
C13 C7 1_555 1_555
C14 C5 1_555 1_555
C15 N2 1_555 1_555
C16 C6 1_555 1_555
H7 C16 1_555 1_555
C17 C9 1_555 1_555
H8 C17 1_555 1_555
C18 C13 1_555 1_555
C19 C11 1_555 1_555
H9 C19 1_555 1_555
C20 C1 1_555 1_555
C21 C15 1_555 1_555
C22 C20 1_555 1_555
H10 C22 1_555 1_555
C23 C22 1_555 1_555
H11 C23 1_555 1_555
C24 C13 1_555 1_555
H12 C24 1_555 1_555
C25 C20 1_555 1_555
H13 C25 1_555 1_555
C26 N1 1_555 1_555
H14 C26 1_555 1_555
C27 C21 1_555 1_555
H15 C27 1_555 1_555
C28 C19 1_555 1_555
H16 C28 1_555 1_555
O9 H17 1_555 1_555
H18 O9 1_555 1_555
Cu1A O3 1_555 1_555
Cu1A_2 O7 1_555 1_555
Cu2A O5 1_555 1_555
Cu2_2 O8 1_555 1_555
O3A Cu1 1_555 1_555
O5A Cu2 1_555 1_555
O7A Cu1 1_555 1_555
O8_2 Cu2 1_555 1_555
C1 C15 1_555 1_555
C4 C8 1_555 1_555
C10 C12 1_555 1_555
C14 C16 1_555 1_555
C17 C24 1_555 1_555
C21 C28 1_555 1_555
C23 C26 1_555 1_555
C25 C27 1_555 1_555
Cu1A O5A 1_555 1_555

#END
