
#######################################################################
#
#                 Cambridge Crystallographic Data Centre
#                                CCDC 
#
#######################################################################
#
# If this CIF has been generated from an entry in the Cambridge 
# Structural Database, then it will include bibliographic, chemical, 
# crystal, experimental, refinement or atomic coordinate data resulting 
# from the CCDC's data processing and validation procedures.
#
#######################################################################

data_KEBTER
_symmetry_cell_setting           triclinic
_symmetry_space_group_name_H-M   'P -1'
_symmetry_Int_Tables_number      2
_space_group_name_Hall           '-P 1'
loop_
_symmetry_equiv_pos_site_id
_symmetry_equiv_pos_as_xyz
1 x,y,z
2 -x,-y,-z
_cell_length_a                   6.6728(10)
_cell_length_b                   10.2216(18)
_cell_length_c                   13.645(2)
_cell_angle_alpha                96.147(8)
_cell_angle_beta                 99.880(6)
_cell_angle_gamma                108.502(4)
_cell_volume                     856.392
loop_
_atom_site_label
_atom_site_type_symbol
_atom_site_fract_x
_atom_site_fract_y
_atom_site_fract_z
Zn1 Zn 0.15113(3) 0.689927(18) 0.350580(14)
Cl1 Cl -0.23323(10) 0.14256(5) -0.09763(4)
O1 O 0.3436(2) 0.57922(12) 0.33904(10)
N1 N -0.1050(2) 0.60275(15) 0.23008(11)
C1 C -0.2787(3) 0.64392(19) 0.21975(14)
H1 H -0.283(3) 0.706(2) 0.2774(16)
O2 O 0.0816(2) 0.43794(13) 0.39642(11)
C2 C -0.4368(3) 0.6036(2) 0.13194(15)
H2 H -0.553(4) 0.638(3) 0.1299(19)
O3 O 0.04272(19) -0.08037(12) 0.32496(10)
C3 C -0.4202(3) 0.51898(17) 0.04885(14)
O4 O 0.35067(19) -0.12275(12) 0.34051(9)
C4 C -0.2431(3) 0.4725(2) 0.06245(15)
H3 H -0.234(4) 0.409(2) 0.0094(17)
O5 O 0.0833(3) 0.73105(15) 0.48065(11)
C5 C -0.0931(3) 0.51530(19) 0.15259(15)
H4 H 0.017(4) 0.484(2) 0.1628(17)
C6 C 0.2581(3) 0.46490(17) 0.37017(13)
C7 C 0.3830(3) 0.36415(19) 0.37504(17)
C8 C 0.2415(3) -0.03825(17) 0.33653(13)
C9 C 0.3736(3) 0.11558(18) 0.35048(16)
C10 C 0.2387(3) 0.21144(17) 0.33536(14)
H5 H 0.137(3) 0.1881(19) 0.3748(15)
C11 C 0.1207(3) 0.19130(17) 0.22612(14)
C12 C 0.2332(3) 0.21606(19) 0.14893(16)
H6 H 0.392(4) 0.243(2) 0.1656(16)
C13 C 0.1256(4) 0.1987(2) 0.04980(16)
H7 H 0.199(4) 0.213(3) -0.0036(19)
C14 C -0.0984(3) 0.15835(18) 0.02679(15)
C15 C -0.2139(3) 0.1325(2) 0.10160(15)
H8 H -0.354(4) 0.105(3) 0.0827(18)
C16 C -0.1041(3) 0.1484(2) 0.20037(15)
H9 H -0.191(3) 0.1265(19) 0.2519(15)
H10 H 0.503(4) 0.392(3) 0.340(2)
H11 H 0.467(3) 0.126(2) 0.3029(16)
H12 H 0.442(3) 0.370(2) 0.4387(18)
H13 H 0.467(3) 0.142(2) 0.4208(17)
H14 H 0.040(4) 0.685(3) 0.517(2)
H16 H 0.122(4) 0.814(3) 0.5081(19)
Zn1_2 Zn 0.15113(3) 1.689927(18) 0.350580(14)
Zn1_3 Zn 0.15113(3) -0.310073(18) 0.350580(14)
Zn1A Zn -1.15113(3) 0.310073(18) -0.350580(14)
Cl1_2 Cl -0.23323(10) 1.14256(5) -0.09763(4)
O1_2 O 0.3436(2) 1.57922(12) 0.33904(10)
N1A N -0.8950(2) 0.39725(15) -0.23008(11)
N1_2 N -0.1050(2) 1.60275(15) 0.23008(11)
C1A C -0.7213(3) 0.35608(19) -0.21975(14)
H1A H -0.717(3) 0.294(2) -0.2774(16)
O2_2 O 0.0816(2) 1.43794(13) 0.39642(11)
C2A C -0.5632(3) 0.3964(2) -0.13194(15)
H2A H -0.447(4) 0.362(3) -0.1299(19)
O3_2 O 0.04272(19) 0.91963(12) 0.32496(10)
C3A C -0.5798(3) 0.48102(17) -0.04885(14)
O4_2 O 0.35067(19) 0.87725(12) 0.34051(9)
O4_3 O 0.35067(19) 1.87725(12) 0.34051(9)
C4A C -0.7569(3) 0.5275(2) -0.06245(15)
H3A H -0.766(4) 0.591(2) -0.0094(17)
O5_2 O 0.0833(3) 1.73105(15) 0.48065(11)
C5A C -0.9069(3) 0.48470(19) -0.15259(15)
H4A H -1.017(4) 0.516(2) -0.1628(17)
C6_2 C 0.2581(3) 1.46490(17) 0.37017(13)
C7_2 C 0.3830(3) 1.36415(19) 0.37504(17)
C8_2 C 0.2415(3) 0.96175(17) 0.33653(13)
C9_2 C 0.3736(3) 1.11558(18) 0.35048(16)
C10_2 C 0.2387(3) 1.21144(17) 0.33536(14)
H5_2 H 0.137(3) 1.1881(19) 0.3748(15)
C11_2 C 0.1207(3) 1.19130(17) 0.22612(14)
C12_2 C 0.2332(3) 1.21606(19) 0.14893(16)
H6_2 H 0.392(4) 1.243(2) 0.1656(16)
C13_2 C 0.1256(4) 1.1987(2) 0.04980(16)
H7_2 H 0.199(4) 1.213(3) -0.0036(19)
C14_2 C -0.0984(3) 1.15835(18) 0.02679(15)
C15_2 C -0.2139(3) 1.1325(2) 0.10160(15)
H8_2 H -0.354(4) 1.105(3) 0.0827(18)
C16_2 C -0.1041(3) 1.1484(2) 0.20037(15)
H9_2 H -0.191(3) 1.1265(19) 0.2519(15)
H10_2 H 0.503(4) 1.392(3) 0.340(2)
H11_2 H 0.467(3) 1.126(2) 0.3029(16)
H12_2 H 0.442(3) 1.370(2) 0.4387(18)
H13_2 H 0.467(3) 1.142(2) 0.4208(17)
H14_2 H 0.040(4) 1.685(3) 0.517(2)
H16_2 H 0.122(4) 1.814(3) 0.5081(19)
O6 O 0.2189(2) 0.99858(14) 0.56305(11)
H15 H 0.143(5) 1.022(3) 0.598(2)
H17 H 0.340(5) 1.039(3) 0.593(2)
loop_
_geom_bond_atom_site_label_1
_geom_bond_atom_site_label_2
_geom_bond_site_symmetry_1
_geom_bond_site_symmetry_2
Zn1 O1 1_555 1_555
Cl1 C14 1_555 1_555
O1 C6 1_555 1_555
N1 Zn1 1_555 1_555
C1 N1 1_555 1_555
H1 C1 1_555 1_555
O2 C6 1_555 1_555
C2 C1 1_555 1_555
H2 C2 1_555 1_555
O3 C8 1_555 1_555
C3 C2 1_555 1_555
O4 C8 1_555 1_555
C4 C3 1_555 1_555
H3 C4 1_555 1_555
O5 Zn1 1_555 1_555
C5 N1 1_555 1_555
H4 C5 1_555 1_555
O6 H15 1_555 1_555
C6 C7 1_555 1_555
C7 C10 1_555 1_555
C8 C9 1_555 1_555
C9 C10 1_555 1_555
C10 H5 1_555 1_555
C11 C10 1_555 1_555
C12 C11 1_555 1_555
H6 C12 1_555 1_555
C13 C12 1_555 1_555
H7 C13 1_555 1_555
C14 C13 1_555 1_555
C15 C14 1_555 1_555
H8 C15 1_555 1_555
C16 C11 1_555 1_555
H9 C16 1_555 1_555
H10 C7 1_555 1_555
H11 C9 1_555 1_555
H12 C7 1_555 1_555
H13 C9 1_555 1_555
H14 O5 1_555 1_555
H16 O5 1_555 1_555
H17 O6 1_555 1_555
Zn1_2 O1_2 1_555 1_555
Zn1_3 O4 1_555 1_555
Zn1A N1A 1_555 1_555
Cl1_2 C14_2 1_555 1_555
O1_2 C6_2 1_555 1_555
N1A C1A 1_555 1_555
N1_2 Zn1_2 1_555 1_555
C1A H1A 1_555 1_555
O2_2 C6_2 1_555 1_555
C2A C1A 1_555 1_555
H2A C2A 1_555 1_555
O3_2 C8_2 1_555 1_555
C3A C3 1_555 1_555
O4_2 Zn1 1_555 1_555
O4_3 Zn1_2 1_555 1_555
C4A C3A 1_555 1_555
H3A C4A 1_555 1_555
O5_2 Zn1_2 1_555 1_555
C5A N1A 1_555 1_555
H4A C5A 1_555 1_555
C6_2 C7_2 1_555 1_555
C7_2 C10_2 1_555 1_555
C8_2 O4_2 1_555 1_555
C9_2 C8_2 1_555 1_555
C10_2 C9_2 1_555 1_555
H5_2 C10_2 1_555 1_555
C11_2 C10_2 1_555 1_555
C12_2 C11_2 1_555 1_555
H6_2 C12_2 1_555 1_555
C13_2 C12_2 1_555 1_555
H7_2 C13_2 1_555 1_555
C14_2 C13_2 1_555 1_555
C15_2 C14_2 1_555 1_555
H8_2 C15_2 1_555 1_555
C16_2 C11_2 1_555 1_555
H9_2 C16_2 1_555 1_555
H10_2 C7_2 1_555 1_555
H11_2 C9_2 1_555 1_555
H12_2 C7_2 1_555 1_555
H13_2 C9_2 1_555 1_555
H14_2 O5_2 1_555 1_555
H16_2 O5_2 1_555 1_555
C4 C5 1_555 1_555
C15 C16 1_555 1_555
C2A C3A 1_555 1_555
C4A C5A 1_555 1_555
C15_2 C16_2 1_555 1_555

#END
