
#######################################################################
#
#                 Cambridge Crystallographic Data Centre
#                                CCDC 
#
#######################################################################
#
# If this CIF has been generated from an entry in the Cambridge 
# Structural Database, then it will include bibliographic, chemical, 
# crystal, experimental, refinement or atomic coordinate data resulting 
# from the CCDC's data processing and validation procedures.
#
#######################################################################

data_KECGEF
_symmetry_cell_setting           monoclinic
_symmetry_space_group_name_H-M   'C 2/c'
_symmetry_Int_Tables_number      15
_space_group_name_Hall           '-C 2yn'
loop_
_symmetry_equiv_pos_site_id
_symmetry_equiv_pos_as_xyz
1 x,y,z
2 1/2+x,1/2+y,z
3 -x,y,1/2-z
4 1/2-x,1/2+y,1/2-z
5 -x,-y,-z
6 1/2-x,1/2-y,-z
7 x,-y,1/2+z
8 1/2+x,1/2-y,1/2+z
_cell_length_a                   14.141(3)
_cell_length_b                   10.021(2)
_cell_length_c                   18.511(4)
_cell_angle_alpha                90
_cell_angle_beta                 103.78(3)
_cell_angle_gamma                90
_cell_volume                     2547.64
loop_
_atom_site_label
_atom_site_type_symbol
_atom_site_fract_x
_atom_site_fract_y
_atom_site_fract_z
Zn1 Zn 0.5000 0.45493(4) 0.2500
O1 O 0.38508(13) 0.30988(18) 0.19716(9)
O2 O 0.49966(12) 0.37686(18) 0.14450(9)
N1 N 0.37494(14) -0.0338(2) -0.00372(11)
N2 N 0.40283(15) 0.6158(2) 0.22573(11)
C1 C 0.45924(16) 0.0284(2) 0.01437(12)
C2 C 0.47492(17) 0.1437(2) 0.05961(13)
C3 C 0.40227(16) 0.1925(2) 0.08885(12)
C4 C 0.30954(15) 0.1294(2) 0.07015(11)
C5 C 0.22639(18) 0.1704(3) 0.09533(14)
C6 C 0.14153(18) 0.1005(3) 0.07575(15)
C7 C 0.13360(18) -0.0128(3) 0.03080(15)
C8 C 0.21061(18) -0.0538(3) 0.00409(14)
C9 C 0.29976(16) 0.0155(3) 0.02337(12)
C10 C 0.42908(17) 0.3019(2) 0.14595(13)
C11 C 0.3066(2) 0.6136(3) 0.20069(15)
C12 C 0.2508(3) 0.7295(4) 0.18683(17)
C13 C 0.2953(3) 0.8492(4) 0.19886(17)
C14 C 0.3966(3) 0.8565(3) 0.22459(14)
C15 C 0.4508(3) 0.9783(3) 0.23806(18)
C16 C 0.44757(18) 0.7353(2) 0.23712(12)
H1 H 0.5332(16) 0.186(2) 0.0724(12)
H2 H 0.2311(18) 0.248(3) 0.1238(14)
H3 H 0.089(2) 0.132(3) 0.0938(16)
H4 H 0.083(2) -0.062(3) 0.0203(16)
H5 H 0.2064(16) -0.131(3) -0.0253(13)
H6 H 0.280(2) 0.530(3) 0.1904(16)
H7 H 0.183(2) 0.719(3) 0.1687(18)
H8 H 0.256(3) 0.927(4) 0.191(2)
H9 H 0.411(2) 1.051(3) 0.2296(17)
Zn1F Zn 0.5000 -0.45493(4) -0.2500
O1D O 0.61492(13) -0.30988(18) -0.19716(9)
O1B O 0.61492(13) 0.30988(18) 0.30284(9)
O2D O 0.50034(12) -0.37686(18) -0.14450(9)
O2B O 0.50034(12) 0.37686(18) 0.35550(9)
N1D N 0.62506(14) 0.0338(2) 0.00372(11)
N2B N 0.59717(15) 0.6158(2) 0.27427(11)
C1D C 0.54076(16) -0.0284(2) -0.01437(12)
C2D C 0.52508(17) -0.1437(2) -0.05961(13)
C3D C 0.59773(16) -0.1925(2) -0.08885(12)
C4D C 0.69046(15) -0.1294(2) -0.07015(11)
C5D C 0.77361(18) -0.1704(3) -0.09533(14)
C6D C 0.85847(18) -0.1005(3) -0.07575(15)
C7D C 0.86640(18) 0.0128(3) -0.03080(15)
C8D C 0.78939(18) 0.0538(3) -0.00409(14)
C9D C 0.70024(16) -0.0155(3) -0.02337(12)
C10D C 0.57092(17) -0.3019(2) -0.14595(13)
C11B C 0.6934(2) 0.6136(3) 0.29931(15)
C12B C 0.7492(3) 0.7295(4) 0.31317(17)
C13B C 0.7047(3) 0.8492(4) 0.30114(17)
C14B C 0.6034(3) 0.8565(3) 0.27541(14)
C15B C 0.5492(3) 0.9783(3) 0.26194(18)
C16B C 0.55243(18) 0.7353(2) 0.26288(12)
H1D H 0.4668(16) -0.186(2) -0.0724(12)
H2D H 0.7689(18) -0.248(3) -0.1238(14)
H3D H 0.911(2) -0.132(3) -0.0938(16)
H4D H 0.917(2) 0.062(3) -0.0203(16)
H5D H 0.7936(16) 0.131(3) 0.0253(13)
H6B H 0.720(2) 0.530(3) 0.3096(16)
H7B H 0.817(2) 0.719(3) 0.3313(18)
H8B H 0.744(3) 0.927(4) 0.309(2)
H9B H 0.589(2) 1.051(3) 0.2704(17)
loop_
_geom_bond_atom_site_label_1
_geom_bond_atom_site_label_2
_geom_bond_site_symmetry_1
_geom_bond_site_symmetry_2
Zn1 O1 1_555 1_555
O1 C10 1_555 1_555
O2 Zn1 1_555 1_555
N1 C1 1_555 1_555
N2 Zn1 1_555 1_555
C1 C2 1_555 1_555
C2 C3 1_555 1_555
C3 C4 1_555 1_555
C4 C5 1_555 1_555
C5 C6 1_555 1_555
C6 C7 1_555 1_555
C7 C8 1_555 1_555
C8 C9 1_555 1_555
C9 N1 1_555 1_555
C10 O2 1_555 1_555
C11 N2 1_555 1_555
C12 C11 1_555 1_555
C13 C12 1_555 1_555
C14 C13 1_555 1_555
C15 C14 1_555 1_555
C16 N2 1_555 1_555
H1 C2 1_555 1_555
H2 C5 1_555 1_555
H3 C6 1_555 1_555
H4 C7 1_555 1_555
H5 C8 1_555 1_555
H6 C11 1_555 1_555
H7 C12 1_555 1_555
H8 C13 1_555 1_555
H9 C15 1_555 1_555
Zn1F O1D 1_555 1_555
O1D C10D 1_555 1_555
O1B Zn1 1_555 1_555
O2D Zn1F 1_555 1_555
O2B Zn1 1_555 1_555
N1D C1D 1_555 1_555
N2B Zn1 1_555 1_555
C1D C1 1_555 1_555
C2D C1D 1_555 1_555
C3D C2D 1_555 1_555
C4D C3D 1_555 1_555
C5D C4D 1_555 1_555
C6D C5D 1_555 1_555
C7D C6D 1_555 1_555
C8D C7D 1_555 1_555
C9D N1D 1_555 1_555
C10D O2D 1_555 1_555
C11B N2B 1_555 1_555
C12B C11B 1_555 1_555
C13B C12B 1_555 1_555
C14B C13B 1_555 1_555
C15B C15 1_555 1_555
C16B C16 1_555 1_555
H1D C2D 1_555 1_555
H2D C5D 1_555 1_555
H3D C6D 1_555 1_555
H4D C7D 1_555 1_555
H5D C8D 1_555 1_555
H6B C11B 1_555 1_555
H7B C12B 1_555 1_555
H8B C13B 1_555 1_555
H9B C15B 1_555 1_555
C3 C10 1_555 1_555
C4 C9 1_555 1_555
C14 C16 1_555 1_555
N2B C16B 1_555 1_555
C3D C10D 1_555 1_555
C4D C9D 1_555 1_555
C8D C9D 1_555 1_555
C14B C15B 1_555 1_555
C14B C16B 1_555 1_555

#END
