
#######################################################################
#
#                 Cambridge Crystallographic Data Centre
#                                CCDC 
#
#######################################################################
#
# If this CIF has been generated from an entry in the Cambridge 
# Structural Database, then it will include bibliographic, chemical, 
# crystal, experimental, refinement or atomic coordinate data resulting 
# from the CCDC's data processing and validation procedures.
#
#######################################################################

data_KEDMOX
_symmetry_cell_setting           triclinic
_symmetry_space_group_name_H-M   'P -1'
_symmetry_Int_Tables_number      2
_space_group_name_Hall           '-P 1'
loop_
_symmetry_equiv_pos_site_id
_symmetry_equiv_pos_as_xyz
1 x,y,z
2 -x,-y,-z
_cell_length_a                   5.7864(2)
_cell_length_b                   12.1514(6)
_cell_length_c                   12.1524(7)
_cell_angle_alpha                73.604(5)
_cell_angle_beta                 81.487(4)
_cell_angle_gamma                84.066(3)
_cell_volume                     808.98
loop_
_atom_site_label
_atom_site_type_symbol
_atom_site_fract_x
_atom_site_fract_y
_atom_site_fract_z
Co1 Co 0.77042(12) 0.75215(6) 0.94655(6)
O1 O 0.8600(7) 1.0294(3) 0.8460(3)
O2 O 1.3520(7) 0.5832(3) 0.8511(3)
O3 O 1.1075(7) 0.7179(3) 0.9049(3)
C1 C 1.0225(9) 0.5714(5) 0.6993(4)
C2 C 1.1895(9) 0.6589(4) 0.8325(4)
C3 C 1.0861(9) 0.6826(4) 0.7218(5)
H1 H 1.1997 0.7220 0.6570
H2 H 0.9435 0.7348 0.7248
C4 C 1.2298(10) 0.5095(5) 0.6437(5)
H3 H 1.2912 0.5605 0.5693
H4 H 1.1787 0.4401 0.6311
H5 H 1.3527 0.4882 0.6948
C5 C 0.8300(11) 0.6044(5) 0.6183(5)
H6 H 0.6951 0.6432 0.6541
H7 H 0.7815 0.5348 0.6048
H8 H 0.8912 0.6562 0.5444
C6 C 0.7234(9) 1.1083(4) 0.7945(5)
C7 C 0.6251(9) 1.0900(5) 0.6898(5)
C8 C 0.8153(10) 1.0299(5) 0.6206(5)
H9 H 0.9475 1.0788 0.5908
H10 H 0.8690 0.9563 0.6710
H11 H 0.7507 1.0161 0.5558
C9 C 0.5457(11) 1.2057(5) 0.6103(5)
H12 H 0.4187 1.2430 0.6526
H13 H 0.6778 1.2551 0.5846
H14 H 0.4897 1.1929 0.5429
C10 C 0.4072(9) 1.0185(5) 0.7347(5)
H15 H 0.2748 1.0690 0.7579
H16 H 0.3645 0.9930 0.6702
O4 O 0.5921(7) 0.8371(3) 0.8189(3)
C11 C 0.4366(9) 0.9146(4) 0.8349(4)
C12 C 0.9108(9) 0.4922(5) 0.8128(5)
Co2 Co 1.5000 0.5000 1.0000
O5 O 0.8077(6) 0.5410(3) 0.8874(3)
Co3 Co 1.22110(12) 0.74628(6) 1.05384(6)
O6 O 0.9301(7) 0.3859(3) 0.8238(3)
O7 O 0.6571(7) 1.1997(3) 0.8217(3)
Co4 Co 1.0000 1.0000 1.0000
O8 O 0.3148(6) 0.9077(3) 0.9318(3)
O9 O 0.8845(6) 0.8359(3) 1.0478(3)
H17 H 0.798(10) 0.816(6) 1.112(3)
O10 O 1.5395(6) 0.6497(3) 1.0464(3)
H18 H 1.593(11) 0.625(5) 1.110(3)
Co1_2 Co 1.77042(12) 0.75215(6) 0.94655(6)
Co1A Co 1.22958(12) 0.24785(6) 1.05345(6)
Co1A_2 Co 1.22958(12) 1.24785(6) 1.05345(6)
O1A O 1.1400(7) 0.9706(3) 1.1540(3)
O2_2 O 2.3520(7) 0.5832(3) 0.8511(3)
O2A O 1.6480(7) 0.4168(3) 1.1489(3)
O3_2 O 2.1075(7) 0.7179(3) 0.9049(3)
C1_2 C 2.0225(9) 0.5714(5) 0.6993(4)
C2_2 C 2.1895(9) 0.6589(4) 0.8325(4)
C3_2 C 2.0861(9) 0.6826(4) 0.7218(5)
H1_2 H 2.1997 0.7220 0.6570
H2_2 H 1.9435 0.7348 0.7248
C4_2 C 2.2298(10) 0.5095(5) 0.6437(5)
H3_2 H 2.2912 0.5605 0.5693
H4_2 H 2.1787 0.4401 0.6311
H5_2 H 2.3527 0.4882 0.6948
C5_2 C 1.8300(11) 0.6044(5) 0.6183(5)
H6_2 H 1.6951 0.6432 0.6541
H7_2 H 1.7815 0.5348 0.6048
H8_2 H 1.8912 0.6562 0.5444
C6A C 1.2766(9) 0.8917(4) 1.2055(5)
C7A C 1.3749(9) 0.9100(5) 1.3102(5)
C8A C 1.1847(10) 0.9701(5) 1.3794(5)
H9A H 1.0525 0.9212 1.4092
H10A H 1.1310 1.0437 1.3290
H11A H 1.2493 0.9839 1.4442
C9A C 1.4543(11) 0.7943(5) 1.3897(5)
H12A H 1.5813 0.7570 1.3474
H13A H 1.3222 0.7449 1.4154
H14A H 1.5103 0.8071 1.4571
C10A C 1.5928(9) 0.9815(5) 1.2653(5)
H15A H 1.7252 0.9310 1.2421
H16A H 1.6355 1.0070 1.3298
O4A O 1.4079(7) 1.1629(3) 1.1811(3)
O4_2 O 1.5921(7) 0.8371(3) 0.8189(3)
C11A C 1.5634(9) 1.0854(4) 1.1651(4)
C12_2 C 1.9108(9) 0.4922(5) 0.8128(5)
Co2_2 Co 0.5000 0.5000 1.0000
Co2_3 Co 2.5000 0.5000 1.0000
O5_2 O 1.8077(6) 0.5410(3) 0.8874(3)
O5A O 1.1923(6) 0.4590(3) 1.1126(3)
Co3_2 Co 2.22110(12) 0.74628(6) 1.05384(6)
Co3A Co 0.77890(12) 0.25372(6) 0.94616(6)
Co3A_2 Co 0.77890(12) 1.25372(6) 0.94616(6)
Co3_3 Co 0.22110(12) 0.74628(6) 1.05384(6)
Co3A_3 Co 1.77890(12) 0.25372(6) 0.94616(6)
Co3A_4 Co 1.77890(12) 1.25372(6) 0.94616(6)
O6_2 O 1.9301(7) 0.3859(3) 0.8238(3)
O6A O 1.0699(7) 0.6141(3) 1.1762(3)
O6A_2 O 2.0699(7) 0.6141(3) 1.1762(3)
O7A O 1.3429(7) 0.8003(3) 1.1783(3)
O7A_2 O 2.3429(7) 0.8003(3) 1.1783(3)
Co4_2 Co 0.0000 1.0000 1.0000
Co4_3 Co 2.0000 1.0000 1.0000
O8A O 1.6852(6) 1.0923(3) 1.0682(3)
O8_2 O 1.3148(6) 0.9077(3) 0.9318(3)
O8A_2 O 0.6852(6) 1.0923(3) 1.0682(3)
O8_3 O 2.3148(6) 0.9077(3) 0.9318(3)
O9_2 O 1.8845(6) 0.8359(3) 1.0478(3)
O9A O 1.1155(6) 1.1641(3) 0.9522(3)
H17_2 H 1.798(10) 0.816(6) 1.112(3)
H17A H 1.202(10) 1.184(6) 0.888(3)
O10A O 1.4605(6) 0.3503(3) 0.9536(3)
O10_2 O 0.5395(6) 0.6497(3) 1.0464(3)
O10_3 O 2.5395(6) 0.6497(3) 1.0464(3)
H18A H 1.407(11) 0.375(5) 0.890(3)
H18_2 H 0.593(11) 0.625(5) 1.110(3)
H18_3 H 2.593(11) 0.625(5) 1.110(3)
loop_
_geom_bond_atom_site_label_1
_geom_bond_atom_site_label_2
_geom_bond_site_symmetry_1
_geom_bond_site_symmetry_2
Co1 O3 1_555 1_555
O1 C6 1_555 1_555
O2 C2 1_555 1_555
O3 C2 1_555 1_555
C1 C3 1_555 1_555
C2 C3 1_555 1_555
C3 H1 1_555 1_555
H2 C3 1_555 1_555
C4 C1 1_555 1_555
H3 C4 1_555 1_555
H4 C4 1_555 1_555
H5 C4 1_555 1_555
C5 C1 1_555 1_555
H6 C5 1_555 1_555
H7 C5 1_555 1_555
H8 C5 1_555 1_555
C6 C7 1_555 1_555
C7 C8 1_555 1_555
C8 H9 1_555 1_555
H10 C8 1_555 1_555
H11 C8 1_555 1_555
C9 C7 1_555 1_555
H12 C9 1_555 1_555
H13 C9 1_555 1_555
H14 C9 1_555 1_555
C10 C7 1_555 1_555
H15 C10 1_555 1_555
H16 C10 1_555 1_555
O4 Co1 1_555 1_555
C11 C10 1_555 1_555
C12 C1 1_555 1_555
Co2 O2 1_555 1_555
O5 C12 1_555 1_555
Co3 O3 1_555 1_555
O6 C12 1_555 1_555
O7 C6 1_555 1_555
Co4 O1 1_555 1_555
O8 C11 1_555 1_555
O9 Co1 1_555 1_555
H17 O9 1_555 1_555
O10 Co2 1_555 1_555
H18 O10 1_555 1_555
Co1_2 O10 1_555 1_555
Co1A O10A 1_555 1_555
Co1A_2 O4A 1_555 1_555
O1A Co4 1_555 1_555
O2_2 C2_2 1_555 1_555
O2A Co2 1_555 1_555
O3_2 Co1_2 1_555 1_555
C1_2 C3_2 1_555 1_555
C2_2 O3_2 1_555 1_555
C3_2 C2_2 1_555 1_555
H1_2 C3_2 1_555 1_555
H2_2 C3_2 1_555 1_555
C4_2 C1_2 1_555 1_555
H3_2 C4_2 1_555 1_555
H4_2 C4_2 1_555 1_555
H5_2 C4_2 1_555 1_555
C5_2 C1_2 1_555 1_555
H6_2 C5_2 1_555 1_555
H7_2 C5_2 1_555 1_555
H8_2 C5_2 1_555 1_555
C6A O1A 1_555 1_555
C7A C6A 1_555 1_555
C8A C7A 1_555 1_555
H9A C8A 1_555 1_555
H10A C8A 1_555 1_555
H11A C8A 1_555 1_555
C9A C7A 1_555 1_555
H12A C9A 1_555 1_555
H13A C9A 1_555 1_555
H14A C9A 1_555 1_555
C10A C7A 1_555 1_555
H15A C10A 1_555 1_555
H16A C10A 1_555 1_555
O4A C11A 1_555 1_555
O4_2 Co1_2 1_555 1_555
C11A C10A 1_555 1_555
C12_2 C1_2 1_555 1_555
Co2_2 O5 1_555 1_555
Co2_3 O2_2 1_555 1_555
O5_2 Co2 1_555 1_555
O5A Co2 1_555 1_555
Co3_2 O3_2 1_555 1_555
Co3A O6 1_555 1_555
Co3A_2 O7 1_555 1_555
Co3_3 O8 1_555 1_555
Co3A_3 O6_2 1_555 1_555
Co3A_4 O8A 1_555 1_555
O6_2 C12_2 1_555 1_555
O6A Co3 1_555 1_555
O6A_2 Co3_2 1_555 1_555
O7A Co3 1_555 1_555
O7A_2 Co3_2 1_555 1_555
Co4_2 O8 1_555 1_555
Co4_3 O8A 1_555 1_555
O8A C11A 1_555 1_555
O8_2 Co3 1_555 1_555
O8A_2 Co4 1_555 1_555
O8_3 Co3_2 1_555 1_555
O9_2 Co1_2 1_555 1_555
O9A Co4 1_555 1_555
H17_2 O9_2 1_555 1_555
H17A O9A 1_555 1_555
O10A Co2 1_555 1_555
O10_2 Co1 1_555 1_555
O10_3 Co2_3 1_555 1_555
H18A O10A 1_555 1_555
H18_2 O10_2 1_555 1_555
H18_3 O10_3 1_555 1_555
O4 C11 1_555 1_555
Co3 O9 1_555 1_555
Co3 O10 1_555 1_555
Co4 O9 1_555 1_555
Co4 O8_2 1_555 1_555
Co1A_2 O9A 1_555 1_555
C6A O7A 1_555 1_555
C12_2 O5_2 1_555 1_555
Co2_2 O10_2 1_555 1_555
Co3_2 O9_2 1_555 1_555
Co3_2 O10_3 1_555 1_555
Co3A_2 O8A_2 1_555 1_555
Co3A_2 O9A 1_555 1_555
Co3_3 O10_2 1_555 1_555
Co3A_3 O10A 1_555 1_555
Co4_3 O8_3 1_555 1_555
Co4_3 O9_2 1_555 1_555

#END
