
#######################################################################
#
#                 Cambridge Crystallographic Data Centre
#                                CCDC 
#
#######################################################################
#
# If this CIF has been generated from an entry in the Cambridge 
# Structural Database, then it will include bibliographic, chemical, 
# crystal, experimental, refinement or atomic coordinate data resulting 
# from the CCDC's data processing and validation procedures.
#
#######################################################################

data_KEDNUE
_symmetry_cell_setting           triclinic
_symmetry_space_group_name_H-M   'P -1'
_symmetry_Int_Tables_number      2
_space_group_name_Hall           '-P 1'
loop_
_symmetry_equiv_pos_site_id
_symmetry_equiv_pos_as_xyz
1 x,y,z
2 -x,-y,-z
_cell_length_a                   10.560(3)
_cell_length_b                   12.324(4)
_cell_length_c                   13.523(4)
_cell_angle_alpha                115.784(4)
_cell_angle_beta                 107.908(5)
_cell_angle_gamma                92.183(5)
_cell_volume                     1477.27
loop_
_atom_site_label
_atom_site_type_symbol
_atom_site_fract_x
_atom_site_fract_y
_atom_site_fract_z
Al1 Al 0.43992(10) -0.34005(9) 0.76373(8)
Ag1 Ag 0.06865(3) -0.04480(3) 0.37005(2)
O1 O 0.2544(2) -0.3344(2) 0.71533(19)
O2 O 0.4795(2) -0.2235(2) 0.71804(19)
O3 O 0.4040(2) 0.5388(2) 0.80545(19)
O4 O 0.4111(2) 0.5393(2) 0.61128(19)
O5 O -0.3751(2) -0.3436(2) -0.18765(19)
O6 O -0.5393(2) -0.2177(2) -0.08664(19)
O7 O 0.2908(3) -0.3056(3) 0.3181(2)
O8 O 0.4508(3) -0.1899(2) 0.2869(2)
O9 O 0.2239(3) -0.1471(3) 0.2629(3)
C1 C 0.0394(4) -0.3170(4) 0.6093(3)
H1 H 0.0024 -0.3749 0.5249
H2 H 0.0055 -0.2407 0.6233
H3 H 0.0110 -0.3535 0.6525
C2 C 0.1912(3) -0.2893(3) 0.6508(3)
C3 C 0.2584(3) -0.2168(3) 0.6176(3)
C4 C 0.4002(4) -0.1873(3) 0.6514(3)
C5 C 0.4642(4) -0.1127(3) 0.6108(3)
H4 H 0.5579 -0.0738 0.6655
H5 H 0.4125 -0.0490 0.6082
H6 H 0.4644 -0.1663 0.5320
C6 C 0.1766(4) -0.1695(3) 0.5463(3)
C7 C 0.3339(4) 0.3529(3) 0.8014(3)
H7 H 0.3338 0.4090 0.8796
H8 H 0.4069 0.3070 0.8094
H9 H 0.2464 0.2952 0.7543
C8 C 0.3563(3) 0.4252(3) 0.7419(3)
C9 C 0.3233(3) 0.3660(3) 0.6177(3)
C10 C 0.3527(3) 0.4268(3) 0.5573(3)
C11 C 0.3172(4) 0.3648(3) 0.4282(3)
H10 H 0.2455 0.3991 0.3926
H11 H 0.2849 0.2764 0.3963
H12 H 0.3977 0.3777 0.4100
C12 C 0.2597(4) 0.2387(3) 0.5496(3)
C13 C -0.1455(4) -0.3180(3) -0.0753(3)
H13 H -0.1447 -0.3737 -0.1534
H14 H -0.1210 -0.3571 -0.0244
H15 H -0.0797 -0.2413 -0.0408
C14 C -0.2840(3) -0.2906(3) -0.0865(3)
C15 C -0.3107(4) -0.2084(3) 0.0132(3)
C16 C -0.4366(4) -0.1729(3) 0.0080(3)
C17 C -0.4560(4) -0.0780(3) 0.1152(3)
H16 H -0.5327 -0.0411 0.0914
H17 H -0.3735 -0.0139 0.1641
H18 H -0.4747 -0.1167 0.1603
C18 C -0.2019(4) -0.1533(3) 0.1251(3)
C19 C 0.2518(4) -0.3474(4) 0.1075(3)
N1 N 0.1090(3) -0.1309(3) 0.4908(3)
N2 N 0.2056(3) 0.1390(3) 0.4909(3)
N3 N -0.1150(3) -0.1096(3) 0.2137(3)
F1 F 0.2640(3) -0.2977(2) 0.0405(2)
F2 F 0.3225(2) -0.4369(2) 0.0893(2)
F3 F 0.1216(2) -0.4008(2) 0.0676(2)
S1 S 0.31107(10) -0.23455(9) 0.26176(8)
Al1_2 Al 0.43992(10) 0.65995(9) 0.76373(8)
Al1_3 Al -0.56008(10) -0.34005(9) -0.23627(8)
O3_2 O 0.4040(2) -0.4612(2) 0.80545(19)
O4_2 O 0.4111(2) -0.4607(2) 0.61128(19)
O5_2 O 0.6249(2) -0.3436(2) 0.81235(19)
O6_2 O 0.4607(2) -0.2177(2) 0.91336(19)
C20 C -0.0829(7) -0.9357(5) 0.0555(6)
H19 H -0.1391 -0.8915 0.0951
C21 C 0.0404(7) -0.9518(5) 0.1191(5)
H20 H 0.0674 -0.9172 0.2022
C22 C -0.1227(6) -0.9841(6) -0.0650(6)
H21 H -0.2056 -0.9730 -0.1093
C20A C 0.0829(7) -1.0643(5) -0.0555(6)
H19A H 0.1391 -1.1085 -0.0951
C21A C -0.0404(7) -1.0482(5) -0.1191(5)
H20A H -0.0674 -1.0828 -0.2022
C22A C 0.1227(6) -1.0159(6) 0.0650(6)
H21A H 0.2056 -1.0270 0.1093
C23 C -0.0190(4) -0.4474(4) 0.2668(3)
H22 H -0.0296 -0.3616 0.3017
H23 H -0.0955 -0.5001 0.2613
H24 H -0.0173 -0.4725 0.1878
O10 O 0.1045(3) -0.4590(3) 0.3384(3)
H25 H 0.160(4) -0.418(4) 0.339(4)
loop_
_geom_bond_atom_site_label_1
_geom_bond_atom_site_label_2
_geom_bond_site_symmetry_1
_geom_bond_site_symmetry_2
Al1 O1 1_555 1_555
Ag1 O9 1_555 1_555
O1 C2 1_555 1_555
O2 Al1 1_555 1_555
O3 C8 1_555 1_555
O4 C10 1_555 1_555
O5 C14 1_555 1_555
O6 C16 1_555 1_555
O7 S1 1_555 1_555
O8 S1 1_555 1_555
O9 S1 1_555 1_555
C1 H1 1_555 1_555
H2 C1 1_555 1_555
H3 C1 1_555 1_555
C2 C1 1_555 1_555
C3 C2 1_555 1_555
C4 O2 1_555 1_555
C5 C4 1_555 1_555
H4 C5 1_555 1_555
H5 C5 1_555 1_555
H6 C5 1_555 1_555
C6 C3 1_555 1_555
C7 H7 1_555 1_555
H8 C7 1_555 1_555
H9 C7 1_555 1_555
C8 C7 1_555 1_555
C9 C8 1_555 1_555
C10 C9 1_555 1_555
C11 C10 1_555 1_555
H10 C11 1_555 1_555
H11 C11 1_555 1_555
H12 C11 1_555 1_555
C12 C9 1_555 1_555
C13 H13 1_555 1_555
H14 C13 1_555 1_555
H15 C13 1_555 1_555
C14 C13 1_555 1_555
C15 C14 1_555 1_555
C16 C15 1_555 1_555
C17 C16 1_555 1_555
H16 C17 1_555 1_555
H17 C17 1_555 1_555
H18 C17 1_555 1_555
C18 C15 1_555 1_555
C19 F1 1_555 1_555
N1 Ag1 1_555 1_555
N2 Ag1 1_555 1_555
N3 Ag1 1_555 1_555
F2 C19 1_555 1_555
F3 C19 1_555 1_555
S1 C19 1_555 1_555
C20 H19 1_555 1_555
C21 C20 1_555 1_555
H20 C21 1_555 1_555
C22 C20 1_555 1_555
H21 C22 1_555 1_555
C23 H22 1_555 1_555
H23 C23 1_555 1_555
H24 C23 1_555 1_555
O10 C23 1_555 1_555
H25 O10 1_555 1_555
Al1_2 O3 1_555 1_555
Al1_3 O5 1_555 1_555
O3_2 Al1 1_555 1_555
O4_2 Al1 1_555 1_555
O5_2 Al1 1_555 1_555
O6_2 Al1 1_555 1_555
C20A H19A 1_555 1_555
C21A C22 1_555 1_555
H20A C21A 1_555 1_555
C22A C21 1_555 1_555
H21A C22A 1_555 1_555
O4 Al1_2 1_555 1_555
O6 Al1_3 1_555 1_555
C3 C4 1_555 1_555
C6 N1 1_555 1_555
C12 N2 1_555 1_555
C18 N3 1_555 1_555
C20A C21A 1_555 1_555
C20A C22A 1_555 1_555

#END
