
#######################################################################
#
#                 Cambridge Crystallographic Data Centre
#                                CCDC 
#
#######################################################################
#
# If this CIF has been generated from an entry in the Cambridge 
# Structural Database, then it will include bibliographic, chemical, 
# crystal, experimental, refinement or atomic coordinate data resulting 
# from the CCDC's data processing and validation procedures.
#
#######################################################################

data_KEFQAO
_symmetry_cell_setting           triclinic
_symmetry_space_group_name_H-M   'P -1'
_symmetry_Int_Tables_number      2
_space_group_name_Hall           '-P 1'
loop_
_symmetry_equiv_pos_site_id
_symmetry_equiv_pos_as_xyz
1 x,y,z
2 -x,-y,-z
_cell_length_a                   7.6180(15)
_cell_length_b                   8.2320(16)
_cell_length_c                   12.288(3)
_cell_angle_alpha                87.21(3)
_cell_angle_beta                 72.07(3)
_cell_angle_gamma                66.48(3)
_cell_volume                     669.826
loop_
_atom_site_label
_atom_site_type_symbol
_atom_site_fract_x
_atom_site_fract_y
_atom_site_fract_z
Cu1 Cu 0.0000 0.0000 0.0000
O1 O 0.03793(17) 0.08354(15) -0.15346(10)
O2 O 0.4234(2) 0.04795(17) -0.75422(10)
O3 O -0.00824(18) -0.10892(16) -0.25466(10)
O4 O 0.3460(2) -0.16750(16) -0.67669(11)
N1 N 0.2915(2) -0.18141(17) -0.05001(11)
N2 N 0.3542(2) -0.02199(18) -0.67147(12)
O5 O 0.2807(2) 0.51538(18) -0.33696(12)
C1 C 0.6201(2) -0.3018(2) -0.02595(14)
C2 C 0.3598(2) -0.3093(2) -0.13545(14)
C3 C 0.1364(2) 0.0868(2) -0.35325(14)
O6 O 0.2854(3) 0.56423(18) -0.51304(12)
C4 C 0.1961(2) -0.0001(2) -0.46141(14)
C5 C 0.1659(2) 0.2416(2) -0.34330(14)
C6 C 0.0464(2) 0.0115(2) -0.24558(14)
C7 C 0.4209(2) -0.1791(2) 0.00329(14)
C8 C 0.6861(2) -0.4375(2) -0.11157(15)
C9 C 0.2792(2) 0.0734(2) -0.55690(13)
N3 N 0.2719(3) 0.4769(2) -0.42959(13)
C10 C 0.5543(3) -0.4404(2) -0.16734(14)
C11 C 0.2440(3) 0.3114(2) -0.44165(14)
C12 C 0.3016(3) 0.2320(2) -0.55077(14)
C13 C 0.7601(2) -0.2866(2) 0.03277(15)
O7 O 0.91908(18) -0.24557(17) -0.04444(11)
H1 H 0.594(3) -0.527(3) -0.2244(17)
H2 H 0.685(3) -0.192(2) 0.0943(16)
H3 H 0.367(3) -0.088(2) 0.0645(17)
H4 H 0.817(3) -0.527(3) -0.1304(17)
H5 H 0.183(3) -0.103(3) -0.4721(18)
H6 H 0.262(3) -0.304(3) -0.1719(17)
H7 H 0.826(3) -0.398(3) 0.0629(17)
H8 H 0.137(3) 0.295(3) -0.2740(19)
H9 H 0.351(3) 0.277(3) -0.6130(19)
H10 H 0.901(4) -0.216(3) -0.107(2)
Cu1_2 Cu 1.0000 0.0000 0.0000
Cu1_3 Cu -1.0000 0.0000 0.0000
O1A O -0.03793(17) -0.08354(15) 0.15346(10)
O2A O -0.4234(2) -0.04795(17) 0.75422(10)
O3A O 0.00824(18) 0.10892(16) 0.25466(10)
O4A O -0.3460(2) 0.16750(16) 0.67669(11)
N1A N -0.2915(2) 0.18141(17) 0.05001(11)
N2A N -0.3542(2) 0.02199(18) 0.67147(12)
O5A O -0.2807(2) -0.51538(18) 0.33696(12)
C1A C -0.6201(2) 0.3018(2) 0.02595(14)
C2A C -0.3598(2) 0.3093(2) 0.13545(14)
C3A C -0.1364(2) -0.0868(2) 0.35325(14)
O6A O -0.2854(3) -0.56423(18) 0.51304(12)
C4A C -0.1961(2) 0.0001(2) 0.46141(14)
C5A C -0.1659(2) -0.2416(2) 0.34330(14)
C6A C -0.0464(2) -0.0115(2) 0.24558(14)
C7A C -0.4209(2) 0.1791(2) -0.00329(14)
C8A C -0.6861(2) 0.4375(2) 0.11157(15)
C9A C -0.2792(2) -0.0734(2) 0.55690(13)
N3A N -0.2719(3) -0.4769(2) 0.42959(13)
C10A C -0.5543(3) 0.4404(2) 0.16734(14)
C11A C -0.2440(3) -0.3114(2) 0.44165(14)
C12A C -0.3016(3) -0.2320(2) 0.55077(14)
C13A C -0.7601(2) 0.2866(2) -0.03277(15)
O7A O -0.91908(18) 0.24557(17) 0.04444(11)
O7_2 O -0.08092(18) -0.24557(17) -0.04444(11)
O7A_2 O 0.08092(18) 0.24557(17) 0.04444(11)
H1A H -0.594(3) 0.527(3) 0.2244(17)
H2A H -0.685(3) 0.192(2) -0.0943(16)
H3A H -0.367(3) 0.088(2) -0.0645(17)
H4A H -0.817(3) 0.527(3) 0.1304(17)
H5A H -0.183(3) 0.103(3) 0.4721(18)
H6A H -0.262(3) 0.304(3) 0.1719(17)
H7A H -0.826(3) 0.398(3) -0.0629(17)
H8A H -0.137(3) -0.295(3) 0.2740(19)
H9A H -0.351(3) -0.277(3) 0.6130(19)
H10A H -0.901(4) 0.216(3) 0.107(2)
H10_2 H -0.099(4) -0.216(3) -0.107(2)
H10A_2 H 0.099(4) 0.216(3) 0.107(2)
loop_
_geom_bond_atom_site_label_1
_geom_bond_atom_site_label_2
_geom_bond_site_symmetry_1
_geom_bond_site_symmetry_2
Cu1 O1 1_555 1_555
O1 C6 1_555 1_555
O2 N2 1_555 1_555
O3 C6 1_555 1_555
O4 N2 1_555 1_555
N1 Cu1 1_555 1_555
N2 C9 1_555 1_555
O5 N3 1_555 1_555
C1 C7 1_555 1_555
C2 N1 1_555 1_555
C3 C4 1_555 1_555
O6 N3 1_555 1_555
C4 C9 1_555 1_555
C5 C3 1_555 1_555
C6 C3 1_555 1_555
C7 N1 1_555 1_555
C8 C1 1_555 1_555
C9 C12 1_555 1_555
N3 C11 1_555 1_555
C10 C2 1_555 1_555
C11 C5 1_555 1_555
C12 C11 1_555 1_555
C13 C1 1_555 1_555
O7 C13 1_555 1_555
H1 C10 1_555 1_555
H2 C13 1_555 1_555
H3 C7 1_555 1_555
H4 C8 1_555 1_555
H5 C4 1_555 1_555
H6 C2 1_555 1_555
H7 C13 1_555 1_555
H8 C5 1_555 1_555
H9 C12 1_555 1_555
H10 O7 1_555 1_555
Cu1_2 O7 1_555 1_555
Cu1_3 O7A 1_555 1_555
O1A Cu1 1_555 1_555
O2A N2A 1_555 1_555
O3A C6A 1_555 1_555
O4A N2A 1_555 1_555
N1A Cu1 1_555 1_555
N2A C9A 1_555 1_555
O5A N3A 1_555 1_555
C1A C7A 1_555 1_555
C2A N1A 1_555 1_555
C3A C4A 1_555 1_555
O6A N3A 1_555 1_555
C4A C9A 1_555 1_555
C5A C3A 1_555 1_555
C6A O1A 1_555 1_555
C7A N1A 1_555 1_555
C8A C1A 1_555 1_555
C9A C12A 1_555 1_555
N3A C11A 1_555 1_555
C10A C2A 1_555 1_555
C11A C5A 1_555 1_555
C12A C11A 1_555 1_555
C13A C1A 1_555 1_555
O7A C13A 1_555 1_555
O7_2 Cu1 1_555 1_555
O7A_2 Cu1 1_555 1_555
H1A C10A 1_555 1_555
H2A C13A 1_555 1_555
H3A C7A 1_555 1_555
H4A C8A 1_555 1_555
H5A C4A 1_555 1_555
H6A C2A 1_555 1_555
H7A C13A 1_555 1_555
H8A C5A 1_555 1_555
H9A C12A 1_555 1_555
H10A O7A 1_555 1_555
H10_2 O7_2 1_555 1_555
H10A_2 O7A_2 1_555 1_555
C8 C10 1_555 1_555
C3A C6A 1_555 1_555
C8A C10A 1_555 1_555

#END
