
#######################################################################
#
#                 Cambridge Crystallographic Data Centre
#                                CCDC 
#
#######################################################################
#
# If this CIF has been generated from an entry in the Cambridge 
# Structural Database, then it will include bibliographic, chemical, 
# crystal, experimental, refinement or atomic coordinate data resulting 
# from the CCDC's data processing and validation procedures.
#
#######################################################################

data_KEFXIE
_symmetry_cell_setting           monoclinic
_symmetry_space_group_name_H-M   'C 2/c'
_symmetry_Int_Tables_number      15
_space_group_name_Hall           '-C 2yn'
loop_
_symmetry_equiv_pos_site_id
_symmetry_equiv_pos_as_xyz
1 x,y,z
2 -x,y,1/2-z
3 1/2+x,1/2+y,z
4 1/2-x,1/2+y,1/2-z
5 -x,-y,-z
6 x,-y,1/2+z
7 1/2-x,1/2-y,-z
8 1/2+x,1/2-y,1/2+z
_cell_length_a                   10.997(3)
_cell_length_b                   30.043(8)
_cell_length_c                   14.553(4)
_cell_angle_alpha                90
_cell_angle_beta                 109.807(4)
_cell_angle_gamma                90
_cell_volume                     4523.61
loop_
_atom_site_label
_atom_site_type_symbol
_atom_site_fract_x
_atom_site_fract_y
_atom_site_fract_z
Cd1 Cd 1.0000 0.34233(2) 0.2500
Cd2 Cd 1.0000 -0.09524(2) 0.2500
C1 C 0.5000 0.2413(3) 0.2500
H1 H 0.5000 0.2723 0.2500
C2 C 0.5929(8) 0.2178(2) 0.2267(6)
C3 C 0.5951(8) 0.1712(3) 0.2272(6)
H2 H 0.6597 0.1560 0.2124
C4 C 0.5000 0.1480(4) 0.2500
C5 C 0.5000 0.0980(3) 0.2500
C6 C 0.6152(8) 0.0743(2) 0.2738(5)
H3 H 0.6935 0.0893 0.2896
C7 C 0.6130(8) 0.0286(3) 0.2738(5)
C8 C 0.5000 0.0044(3) 0.2500
H4 H 0.5000 -0.0265 0.2500
C9 C 0.8585(11) -0.1324(3) 0.0748(7)
C10 C 0.7824(16) -0.1552(3) -0.0181(9)
H5 H 0.8248 -0.1501 -0.0658
H6 H 0.6975 -0.1416 -0.0430
C11 C 0.7658(13) -0.2046(3) -0.0094(7)
C12 C 0.6525(12) -0.2210(4) 0.0014(8)
H7 H 0.5871 -0.2016 0.0025
C13 C 0.8608(12) -0.2346(4) -0.0103(8)
H8 H 0.9365 -0.2239 -0.0174
C14 C 1.0417(12) 0.3822(3) 0.4256(8)
C15 C 1.0642(17) 0.4062(3) 0.5210(8)
H9 H 1.1543 0.4028 0.5611
H10 H 1.0127 0.3919 0.5552
C16 C 1.0315(13) 0.4555(3) 0.5111(6)
C17 C 0.9055(12) 0.4688(4) 0.4934(8)
H11 H 0.8410 0.4479 0.4882
C18 C 1.1229(11) 0.4859(4) 0.5165(8)
H12 H 1.2071 0.4765 0.5270
C19 C 0.7532(9) 0.2786(3) 0.2450(6)
H13 H 0.7362 0.2942 0.2945
C20 C 0.8376(12) 0.2575(3) 0.1410(9)
H14 H 0.8928 0.2565 0.1047
C21 C 0.7461(13) 0.2279(3) 0.1347(9)
H15 H 0.7242 0.2033 0.0934
C22 C 0.7575(8) -0.0334(2) 0.2578(6)
H16 H 0.6953 -0.0496 0.2101
C23 C 0.9369(10) -0.0121(3) 0.3627(8)
H17 H 1.0238 -0.0118 0.4013
C24 C 0.8494(9) 0.0187(3) 0.3651(8)
H18 H 0.8643 0.0441 0.4039
N1 N 0.6898(7) 0.2410(2) 0.2021(5)
N2 N 0.8405(7) 0.2897(2) 0.2075(6)
N3 N 0.7348(6) 0.0053(2) 0.2997(5)
N4 N 0.8791(6) -0.0440(2) 0.2950(5)
O1 O 0.8843(9) -0.1504(3) 0.1519(6)
O2 O 0.8812(10) -0.0922(3) 0.0705(6)
O3 O 0.980(2) 0.3987(6) 0.3442(12)
O4 O 1.0674(19) 0.3419(5) 0.4300(12)
Cd1_2 Cd 0.0000 0.34233(2) 0.2500
Cd1D Cd 1.0000 0.65767(2) 0.7500
Cd2_2 Cd 0.0000 -0.09524(2) 0.2500
Cd2F Cd 0.5000 -0.40476(2) -0.2500
C2A C 0.4071(8) 0.2178(2) 0.2733(6)
C3A C 0.4049(8) 0.1712(3) 0.2728(6)
H2A H 0.3403 0.1560 0.2876
C6A C 0.3848(8) 0.0743(2) 0.2262(5)
H3A H 0.3065 0.0893 0.2104
C7A C 0.3870(8) 0.0286(3) 0.2262(5)
C9F C 0.6415(11) -0.3676(3) -0.0748(7)
C9A C 1.1415(11) -0.1324(3) 0.4252(7)
C10F C 0.7176(16) -0.3448(3) 0.0181(9)
H5F H 0.6752 -0.3499 0.0658
H6F H 0.8025 -0.3584 0.0430
C11F C 0.7342(13) -0.2954(3) 0.0094(7)
C12F C 0.8475(12) -0.2790(4) -0.0014(8)
H7F H 0.9129 -0.2984 -0.0025
C13F C 0.6392(12) -0.2654(4) 0.0103(8)
H8F H 0.5635 -0.2761 0.0174
C14D C 0.9583(12) 0.6178(3) 0.5744(8)
C14A C 0.9583(12) 0.3822(3) 0.0744(8)
C15D C 0.9358(17) 0.5938(3) 0.4790(8)
H9D H 0.8457 0.5972 0.4389
H10D H 0.9873 0.6081 0.4448
C16D C 0.9685(13) 0.5445(3) 0.4889(6)
C17D C 1.0945(12) 0.5312(4) 0.5066(8)
H11D H 1.1590 0.5521 0.5118
C18D C 0.8771(11) 0.5141(4) 0.4835(8)
H12D H 0.7929 0.5235 0.4730
C19A C 0.2468(9) 0.2786(3) 0.2550(6)
H13A H 0.2638 0.2942 0.2055
C20A C 0.1624(12) 0.2575(3) 0.3590(9)
H14A H 0.1072 0.2565 0.3953
C21A C 0.2539(13) 0.2279(3) 0.3653(9)
H15A H 0.2758 0.2033 0.4066
C22A C 0.2425(8) -0.0334(2) 0.2422(6)
H16A H 0.3047 -0.0496 0.2899
C23A C 0.0631(10) -0.0121(3) 0.1373(8)
H17A H -0.0238 -0.0118 0.0987
C24A C 0.1506(9) 0.0187(3) 0.1349(8)
H18A H 0.1357 0.0441 0.0961
N1A N 0.3102(7) 0.2410(2) 0.2979(5)
N2A N 0.1595(7) 0.2897(2) 0.2925(6)
N2A_2 N 1.1595(7) 0.2897(2) 0.2925(6)
N3A N 0.2652(6) 0.0053(2) 0.2003(5)
N4A N 0.1209(6) -0.0440(2) 0.2050(5)
N4A_2 N 1.1209(6) -0.0440(2) 0.2050(5)
O1F O 0.6157(9) -0.3496(3) -0.1519(6)
O1A O 1.1157(9) -0.1504(3) 0.3481(6)
O2F O 0.6188(10) -0.4078(3) -0.0705(6)
O2A O 1.1188(10) -0.0922(3) 0.4295(6)
O3D O 1.020(2) 0.6013(6) 0.6558(12)
O3A O 1.020(2) 0.3987(6) 0.1558(12)
O4D O 0.9326(19) 0.6581(5) 0.5700(12)
O4A O 0.9326(19) 0.3419(5) 0.0700(12)
O5 O 0.112(4) 0.1145(16) 0.313(4)
O6? O 0.118(3) 0.112(2) 0.497(2)
O7? O 0.950(2) 0.3708(7) 0.3802(16)
O8? O 1.116(2) 0.3933(8) 0.3693(16)
loop_
_geom_bond_atom_site_label_1
_geom_bond_atom_site_label_2
_geom_bond_site_symmetry_1
_geom_bond_site_symmetry_2
Cd1 N2 1_555 1_555
Cd2 N4 1_555 1_555
C1 H1 1_555 1_555
C2 C1 1_555 1_555
C3 C2 1_555 1_555
H2 C3 1_555 1_555
C4 C3 1_555 1_555
C5 C4 1_555 1_555
C6 C5 1_555 1_555
H3 C6 1_555 1_555
C7 C6 1_555 1_555
C8 C7 1_555 1_555
H4 C8 1_555 1_555
C9 C10 1_555 1_555
C10 H5 1_555 1_555
H6 C10 1_555 1_555
C11 C10 1_555 1_555
C12 C11 1_555 1_555
H7 C12 1_555 1_555
C13 C11 1_555 1_555
H8 C13 1_555 1_555
C14 C15 1_555 1_555
C15 H9 1_555 1_555
H10 C15 1_555 1_555
C16 C15 1_555 1_555
C17 C16 1_555 1_555
H11 C17 1_555 1_555
C18 C16 1_555 1_555
H12 C18 1_555 1_555
C19 H13 1_555 1_555
C20 H14 1_555 1_555
C21 C20 1_555 1_555
H15 C21 1_555 1_555
C22 H16 1_555 1_555
C23 H17 1_555 1_555
C24 C23 1_555 1_555
H18 C24 1_555 1_555
N1 C2 1_555 1_555
N2 C19 1_555 1_555
N3 C7 1_555 1_555
N4 C22 1_555 1_555
O1 Cd2 1_555 1_555
O2 Cd2 1_555 1_555
O3 Cd1 1_555 1_555
O4 Cd1 1_555 1_555
Cd1_2 N2A 1_555 1_555
Cd1D O3D 1_555 1_555
Cd2_2 N4A 1_555 1_555
Cd2F O1F 1_555 1_555
C2A C1 1_555 1_555
C3A C4 1_555 1_555
H2A C3A 1_555 1_555
C6A C5 1_555 1_555
H3A C6A 1_555 1_555
C7A C8 1_555 1_555
C9F C10F 1_555 1_555
C9A O1A 1_555 1_555
C10F H5F 1_555 1_555
H6F C10F 1_555 1_555
C11F C10F 1_555 1_555
C12F C13 1_555 1_555
H7F C12F 1_555 1_555
C13F C12 1_555 1_555
H8F C13F 1_555 1_555
C14D C15D 1_555 1_555
C14A O3A 1_555 1_555
C15D H9D 1_555 1_555
H10D C15D 1_555 1_555
C16D C15D 1_555 1_555
C17D C18 1_555 1_555
H11D C17D 1_555 1_555
C18D C17 1_555 1_555
H12D C18D 1_555 1_555
C19A H13A 1_555 1_555
C20A H14A 1_555 1_555
C21A C20A 1_555 1_555
H15A C21A 1_555 1_555
C22A H16A 1_555 1_555
C23A H17A 1_555 1_555
C24A C23A 1_555 1_555
H18A C24A 1_555 1_555
N1A C2A 1_555 1_555
N2A C19A 1_555 1_555
N2A_2 Cd1 1_555 1_555
N3A C7A 1_555 1_555
N4A C22A 1_555 1_555
N4A_2 Cd2 1_555 1_555
O1F C9F 1_555 1_555
O1A Cd2 1_555 1_555
O2F Cd2F 1_555 1_555
O2A Cd2 1_555 1_555
O3D C14D 1_555 1_555
O3A Cd1 1_555 1_555
O4D Cd1D 1_555 1_555
O4A Cd1 1_555 1_555
C9 O1 1_555 1_555
C9 O2 1_555 1_555
C14 O3 1_555 1_555
C14 O4 1_555 1_555
C19 N1 1_555 1_555
C20 N2 1_555 1_555
C21 N1 1_555 1_555
C22 N3 1_555 1_555
C23 N4 1_555 1_555
C24 N3 1_555 1_555
C2A C3A 1_555 1_555
C6A C7A 1_555 1_555
C9F O2F 1_555 1_555
C9A O2A 1_555 1_555
C11F C12F 1_555 1_555
C11F C13F 1_555 1_555
C14D O4D 1_555 1_555
C14A O4A 1_555 1_555
C16D C17D 1_555 1_555
C16D C18D 1_555 1_555
C19A N1A 1_555 1_555
C20A N2A 1_555 1_555
C21A N1A 1_555 1_555
C22A N3A 1_555 1_555
C23A N4A 1_555 1_555
C24A N3A 1_555 1_555

#END
