
#######################################################################
#
#                 Cambridge Crystallographic Data Centre
#                                CCDC 
#
#######################################################################
#
# If this CIF has been generated from an entry in the Cambridge 
# Structural Database, then it will include bibliographic, chemical, 
# crystal, experimental, refinement or atomic coordinate data resulting 
# from the CCDC's data processing and validation procedures.
#
#######################################################################

data_KEFZEC
_symmetry_cell_setting           monoclinic
_symmetry_space_group_name_H-M   'P 21/n'
_symmetry_Int_Tables_number      14
_space_group_name_Hall           '-P 2yn'
loop_
_symmetry_equiv_pos_site_id
_symmetry_equiv_pos_as_xyz
1 x,y,z
2 1/2-x,1/2+y,1/2-z
3 -x,-y,-z
4 1/2+x,1/2-y,1/2+z
_cell_length_a                   10.3774(13)
_cell_length_b                   13.9064(17)
_cell_length_c                   13.7479(16)
_cell_angle_alpha                90
_cell_angle_beta                 110.139(4)
_cell_angle_gamma                90
_cell_volume                     1862.69
loop_
_atom_site_label
_atom_site_type_symbol
_atom_site_fract_x
_atom_site_fract_y
_atom_site_fract_z
Co1 Co 0.5000 0.0000 0.0000
N1 N 0.3821(2) 0.0387(2) -0.15278(18)
C1 C 0.3897(3) 0.1221(3) -0.1971(2)
H1 H 0.4536 0.1700 -0.1669
N2 N 0.2924(2) 0.1282(2) -0.29192(19)
H2 H 0.2786 0.1765 -0.3334
C2 C 0.2189(3) 0.0436(3) -0.3107(2)
C3 C 0.2758(3) -0.0103(3) -0.2235(2)
H3 H 0.2468 -0.0715 -0.2133
C4 C 0.1068(3) 0.0226(3) -0.4075(2)
C5 C 0.0396(3) -0.0651(3) -0.4204(2)
H4 H 0.0661 -0.1097 -0.3667
C6 C -0.0659(3) -0.0881(3) -0.5110(3)
H5 H -0.1096 -0.1474 -0.5174
O1 O 0.4156(2) 0.12685(18) 0.04518(18)
C7 C 0.4535(4) 0.1670(3) 0.1301(3)
H6 H 0.5252 0.1389 0.1831
N3 N 0.4007(3) 0.2465(3) 0.1521(3)
C8 C 0.2876(5) 0.2941(4) 0.0749(5)
H7 H 0.2786 0.2699 0.0075
H8 H 0.3047 0.3621 0.0773
H9 H 0.2045 0.2820 0.0887
C9 C 0.4540(6) 0.2884(4) 0.2554(4)
H10 H 0.3861 0.2832 0.2880
H11 H 0.4755 0.3549 0.2502
H12 H 0.5355 0.2546 0.2959
S1 S 0.75589(6) 0.15856(6) -0.00169(6)
O2 O 0.88669(18) 0.12970(16) -0.01325(16)
O3 O 0.67486(19) 0.07095(16) -0.00561(16)
O4 O 0.68101(19) 0.22263(17) -0.08687(16)
O5 O 0.7832(2) 0.20595(18) 0.09814(16)
Co2 Co 1.0000 0.0000 0.0000
O6 O 1.1290(2) 0.07640(18) -0.06551(17)
N4 N 1.1275(2) 0.0443(2) 0.14908(19)
C10 C 1.1073(3) 0.1195(3) 0.1995(2)
H13 H 1.0375 0.1641 0.1720
N5 N 1.1998(2) 0.1241(2) 0.29579(19)
H14 H 1.2041 0.1673 0.3415
C11 C 1.2865(3) 0.0466(3) 0.3077(2)
C12 C 1.2404(3) -0.0011(3) 0.2162(2)
H15 H 1.2797 -0.0567 0.2012
C13 C 1.3969(3) 0.0253(3) 0.4058(2)
C14 C 1.4173(3) 0.0781(3) 0.4954(3)
C15 C 1.4814(3) -0.0527(3) 0.4129(3)
H16 H 1.367(3) 0.130(2) 0.492(2)
H17 H 1.463(4) -0.092(3) 0.353(3)
Co1_2 Co -0.5000 0.0000 -1.0000
N1B N -0.3821(2) -0.0387(2) -0.84722(18)
N1B_2 N 0.6179(2) -0.0387(2) 0.15278(18)
C1B C -0.3897(3) -0.1221(3) -0.8029(2)
H1B H -0.4536 -0.1700 -0.8331
N2B N -0.2924(2) -0.1282(2) -0.70808(19)
H2B H -0.2786 -0.1765 -0.6666
C2B C -0.2189(3) -0.0436(3) -0.6893(2)
C3B C -0.2758(3) 0.0103(3) -0.7765(2)
H3B H -0.2468 0.0715 -0.7867
C4B C -0.1068(3) -0.0226(3) -0.5925(2)
C5B C -0.0396(3) 0.0651(3) -0.5796(2)
H4B H -0.0661 0.1097 -0.6333
C6B C 0.0659(3) 0.0881(3) -0.4890(3)
H5B H 0.1096 0.1474 -0.4826
O1B O 0.5844(2) -0.12685(18) -0.04518(18)
C7B C 0.5465(4) -0.1670(3) -0.1301(3)
H6B H 0.4748 -0.1389 -0.1831
N3B N 0.5993(3) -0.2465(3) -0.1521(3)
C8B C 0.7124(5) -0.2941(4) -0.0749(5)
H7B H 0.7214 -0.2699 -0.0075
H8B H 0.6953 -0.3621 -0.0773
H9B H 0.7955 -0.2820 -0.0887
C9B C 0.5460(6) -0.2884(4) -0.2554(4)
H10B H 0.6139 -0.2832 -0.2880
H11B H 0.5245 -0.3549 -0.2502
H12B H 0.4645 -0.2546 -0.2959
S1B S 0.24411(6) -0.15856(6) 0.00169(6)
O2B O 0.11331(18) -0.12970(16) 0.01325(16)
O2B_2 O 1.11331(18) -0.12970(16) 0.01325(16)
O3B O 0.32514(19) -0.07095(16) 0.00561(16)
O4B O 0.31899(19) -0.22263(17) 0.08687(16)
O5B O 0.2168(2) -0.20595(18) -0.09814(16)
Co2_2 Co 0.0000 0.0000 0.0000
Co2_3 Co 2.0000 0.0000 1.0000
O6B O 0.8710(2) -0.07640(18) 0.06551(17)
N4B N 1.8725(2) -0.0443(2) 0.85092(19)
N4B_2 N 0.8725(2) -0.0443(2) -0.14908(19)
C10B C 1.8927(3) -0.1195(3) 0.8005(2)
H13B H 1.9625 -0.1641 0.8280
N5B N 1.8002(2) -0.1241(2) 0.70421(19)
H14B H 1.7959 -0.1673 0.6585
C11B C 1.7135(3) -0.0466(3) 0.6923(2)
C12B C 1.7596(3) 0.0011(3) 0.7838(2)
H15B H 1.7203 0.0567 0.7988
C13B C 1.6031(3) -0.0253(3) 0.5942(2)
C14B C 1.5827(3) -0.0781(3) 0.5046(3)
C15B C 1.5186(3) 0.0527(3) 0.5871(3)
H16B H 1.633(3) -0.130(2) 0.508(2)
H17B H 1.537(4) 0.092(3) 0.647(3)
loop_
_geom_bond_atom_site_label_1
_geom_bond_atom_site_label_2
_geom_bond_site_symmetry_1
_geom_bond_site_symmetry_2
Co1 N1 1_555 1_555
N1 C1 1_555 1_555
C1 H1 1_555 1_555
N2 C1 1_555 1_555
H2 N2 1_555 1_555
C2 N2 1_555 1_555
C3 N1 1_555 1_555
H3 C3 1_555 1_555
C4 C2 1_555 1_555
C5 C4 1_555 1_555
H4 C5 1_555 1_555
C6 C5 1_555 1_555
H5 C6 1_555 1_555
O1 Co1 1_555 1_555
C7 O1 1_555 1_555
H6 C7 1_555 1_555
N3 C7 1_555 1_555
C8 N3 1_555 1_555
H7 C8 1_555 1_555
H8 C8 1_555 1_555
H9 C8 1_555 1_555
C9 N3 1_555 1_555
H10 C9 1_555 1_555
H11 C9 1_555 1_555
H12 C9 1_555 1_555
S1 O2 1_555 1_555
O2 Co2 1_555 1_555
O3 Co1 1_555 1_555
O4 S1 1_555 1_555
O5 S1 1_555 1_555
Co2 O6 1_555 1_555
N4 Co2 1_555 1_555
C10 N4 1_555 1_555
H13 C10 1_555 1_555
N5 C10 1_555 1_555
H14 N5 1_555 1_555
C11 N5 1_555 1_555
C12 N4 1_555 1_555
H15 C12 1_555 1_555
C13 C11 1_555 1_555
C14 C13 1_555 1_555
C15 C13 1_555 1_555
H16 C14 1_555 1_555
H17 C15 1_555 1_555
Co1_2 N1B 1_555 1_555
N1B C1B 1_555 1_555
N1B_2 Co1 1_555 1_555
C1B H1B 1_555 1_555
N2B C1B 1_555 1_555
H2B N2B 1_555 1_555
C2B N2B 1_555 1_555
C3B N1B 1_555 1_555
H3B C3B 1_555 1_555
C4B C6 1_555 1_555
C5B C4B 1_555 1_555
H4B C5B 1_555 1_555
C6B C4 1_555 1_555
H5B C6B 1_555 1_555
O1B Co1 1_555 1_555
C7B O1B 1_555 1_555
H6B C7B 1_555 1_555
N3B C7B 1_555 1_555
C8B N3B 1_555 1_555
H7B C8B 1_555 1_555
H8B C8B 1_555 1_555
H9B C8B 1_555 1_555
C9B N3B 1_555 1_555
H10B C9B 1_555 1_555
H11B C9B 1_555 1_555
H12B C9B 1_555 1_555
S1B O2B 1_555 1_555
O2B Co2_2 1_555 1_555
O2B_2 Co2 1_555 1_555
O3B Co1 1_555 1_555
O4B S1B 1_555 1_555
O5B S1B 1_555 1_555
Co2_3 N4B 1_555 1_555
O6B Co2 1_555 1_555
N4B C10B 1_555 1_555
N4B_2 Co2 1_555 1_555
C10B H13B 1_555 1_555
N5B C10B 1_555 1_555
H14B N5B 1_555 1_555
C11B N5B 1_555 1_555
C12B N4B 1_555 1_555
H15B C12B 1_555 1_555
C13B C11B 1_555 1_555
C14B C15 1_555 1_555
C15B C14 1_555 1_555
H16B C14B 1_555 1_555
H17B C15B 1_555 1_555
C2 C3 1_555 1_555
S1 O3 1_555 1_555
C11 C12 1_555 1_555
C2B C3B 1_555 1_555
C2B C4B 1_555 1_555
C5B C6B 1_555 1_555
S1B O3B 1_555 1_555
C11B C12B 1_555 1_555
C13B C14B 1_555 1_555
C13B C15B 1_555 1_555

#END
