
#######################################################################
#
#                 Cambridge Crystallographic Data Centre
#                                CCDC 
#
#######################################################################
#
# If this CIF has been generated from an entry in the Cambridge 
# Structural Database, then it will include bibliographic, chemical, 
# crystal, experimental, refinement or atomic coordinate data resulting 
# from the CCDC's data processing and validation procedures.
#
#######################################################################

data_KEHDUY
_symmetry_cell_setting           rhombohedral
_symmetry_space_group_name_H-M   'R -3 c'
_symmetry_Int_Tables_number      167
_space_group_name_Hall           '-R 3 2"c'
loop_
_symmetry_equiv_pos_site_id
_symmetry_equiv_pos_as_xyz
1 x,y,z
2 -y,x-y,z
3 -x+y,-x,z
4 y,x,1/2-z
5 x-y,-y,1/2-z
6 -x,-x+y,1/2-z
7 2/3+x,1/3+y,1/3+z
8 2/3-y,1/3+x-y,1/3+z
9 2/3-x+y,1/3-x,1/3+z
10 2/3+y,1/3+x,5/6-z
11 2/3+x-y,1/3-y,5/6-z
12 2/3-x,1/3-x+y,5/6-z
13 1/3+x,2/3+y,2/3+z
14 1/3-y,2/3+x-y,2/3+z
15 1/3-x+y,2/3-x,2/3+z
16 1/3+y,2/3+x,1/6-z
17 1/3+x-y,2/3-y,1/6-z
18 1/3-x,2/3-x+y,1/6-z
19 -x,-y,-z
20 y,-x+y,-z
21 x-y,x,-z
22 -y,-x,1/2+z
23 -x+y,y,1/2+z
24 x,x-y,1/2+z
25 1/3-x,2/3-y,2/3-z
26 1/3+y,2/3-x+y,2/3-z
27 1/3+x-y,2/3+x,2/3-z
28 1/3-y,2/3-x,1/6+z
29 1/3-x+y,2/3+y,1/6+z
30 1/3+x,2/3+x-y,1/6+z
31 2/3-x,1/3-y,1/3-z
32 2/3+y,1/3-x+y,1/3-z
33 2/3+x-y,1/3+x,1/3-z
34 2/3-y,1/3-x,5/6+z
35 2/3-x+y,1/3+y,5/6+z
36 2/3+x,1/3+x-y,5/6+z
_cell_length_a                   11.5603(2)
_cell_length_b                   11.5603(2)
_cell_length_c                   53.0233(19)
_cell_angle_alpha                90
_cell_angle_beta                 90
_cell_angle_gamma                120
_cell_volume                     6136.71
loop_
_atom_site_label
_atom_site_type_symbol
_atom_site_fract_x
_atom_site_fract_y
_atom_site_fract_z
N4 N -0.1481(7) 0.3036(7) 0.07557(16)
O1 O -0.0513(8) 0.3455(12) 0.08899(17)
O2 O -0.1305(9) 0.3475(9) 0.05370(15)
O3 O -0.2600(7) 0.2218(8) 0.08216(16)
N4P N -0.1184(10) 0.3631(7) 0.09110(16)
O1P O -0.0635(14) 0.3212(12) 0.07768(17)
O2P O -0.1447(13) 0.3192(9) 0.11297(15)
O3P O -0.1485(11) 0.4449(8) 0.08451(16)
O4 O -0.1336(5) 0.3317(5) 0.02889(12)
Cd1 Cd 0.0000 0.0000 0.0000
N1 N 0.1440(2) 0.1891(2) 0.02383(4)
N2 N 0.2693(2) 0.2127(2) 0.03025(4)
N3 N 0.25643(19) 0.39234(19) 0.03835(3)
C1 C 0.1387(2) 0.2966(3) 0.02900(5)
H1 H 0.0641 0.3059 0.0266
C2 C 0.3331(3) 0.3339(3) 0.03903(6)
H2 H 0.4204 0.3754 0.0450
C3 C 0.2937(2) 0.5276(2) 0.04769(4)
C4 C 0.4337(2) 0.6269(2) 0.03785(4)
H3 H 0.4975 0.6016 0.0437
H4 H 0.4340 0.6269 0.0196
C5 C 0.2933(3) 0.5266(2) 0.07664(4)
H5 H 0.2050 0.4628 0.0828
H6 H 0.3558 0.5004 0.0828
C6 C 0.3333 0.6667 0.08621(7)
H7 H 0.3333 0.6667 0.1047
Cd1_2 Cd 1.0000 1.0000 0.0000
Cd1_3 Cd 0.0000 1.0000 0.0000
Cd1_4 Cd -1.0000 0.0000 0.0000
Cd1_5 Cd -1.0000 -1.0000 0.0000
N1A N 0.8109(2) 0.9549(3) 0.02383(4)
N1B N 0.0451(3) 0.8560(2) 0.02383(4)
N1A_2 N -0.1891(2) -0.0451(3) 0.02383(4)
N1B_2 N -0.9549(3) -0.1440(2) 0.02383(4)
N1_2 N -0.8560(2) -0.8109(2) 0.02383(4)
N1B_3 N 0.0451(3) -0.1440(2) 0.02383(4)
N1R N -0.1440(2) -0.1891(2) -0.02383(4)
N1S N 0.1891(2) 0.0451(3) -0.02383(4)
N1T N -0.0451(3) 0.1440(2) -0.02383(4)
N2A N 0.7873(2) 1.0566(3) 0.03025(4)
N2B N -0.0566(3) 0.7307(2) 0.03025(4)
N2A_2 N -0.2127(2) 0.0566(3) 0.03025(4)
N2B_2 N -1.0566(3) -0.2693(2) 0.03025(4)
N2_2 N -0.7307(2) -0.7873(2) 0.03025(4)
N3A N 0.60766(19) 0.86409(27) 0.03835(3)
N3B N 0.13591(27) 0.74357(19) 0.03835(3)
N3A_2 N -0.39234(19) -0.13591(27) 0.03835(3)
N3B_2 N -0.86409(27) -0.25643(19) 0.03835(3)
N3_2 N -0.74357(19) -0.60766(19) 0.03835(3)
C1A C 0.7034(3) 0.8421(4) 0.02900(5)
C1B C 0.1579(4) 0.8613(2) 0.02900(5)
C1A_2 C -0.2966(3) -0.1579(4) 0.02900(5)
C1B_2 C -0.8421(4) -0.1387(2) 0.02900(5)
C1_2 C -0.8613(2) -0.7034(3) 0.02900(5)
H1A H 0.6941 0.7582 0.0266
H1B H 0.2418 0.9359 0.0266
H1A_2 H -0.3059 -0.2418 0.0266
H1B_2 H -0.7582 -0.0641 0.0266
H1_2 H -0.9359 -0.6941 0.0266
C2A C 0.6661(3) 0.9992(4) 0.03903(6)
C2B C 0.0008(4) 0.6669(3) 0.03903(6)
C2A_2 C -0.3339(3) -0.0008(4) 0.03903(6)
C2B_2 C -0.9992(4) -0.3331(3) 0.03903(6)
C2_2 C -0.6669(3) -0.6661(3) 0.03903(6)
H2A H 0.6246 1.0450 0.0450
H2B H -0.0450 0.5796 0.0450
H2A_2 H -0.3754 0.0450 0.0450
H2B_2 H -1.0450 -0.4204 0.0450
H2_2 H -0.5796 -0.6246 0.0450
C3A C 0.4724(2) 0.7661(3) 0.04769(4)
C3B C 0.2339(3) 0.7063(2) 0.04769(4)
C3A_2 C -0.5276(2) -0.2339(3) 0.04769(4)
C3B_2 C -0.7661(3) -0.2937(2) 0.04769(4)
C3_2 C -0.7063(2) -0.4724(2) 0.04769(4)
C4A C 0.3731(2) 0.8068(3) 0.03785(4)
C4B C 0.1932(3) 0.5663(2) 0.03785(4)
C4A_2 C -0.6269(2) -0.1932(3) 0.03785(4)
C4B_2 C -0.8068(3) -0.4337(2) 0.03785(4)
C4_2 C -0.5663(2) -0.3731(2) 0.03785(4)
H3B H 0.1041 0.5025 0.0437
H3A H 0.3984 0.8959 0.0437
H3A_2 H -0.6016 -0.1041 0.0437
H3_2 H -0.5025 -0.3984 0.0437
H3B_2 H -0.8959 -0.4975 0.0437
H4B H 0.1929 0.5660 0.0196
H4A H 0.3731 0.8071 0.0196
H4A_2 H -0.6269 -0.1929 0.0196
H4_2 H -0.5660 -0.3731 0.0196
H4B_2 H -0.8071 -0.4340 0.0196
C5B C 0.2333(4) 0.7067(3) 0.07664(4)
C5A C 0.4734(2) 0.7667(4) 0.07664(4)
C5A_2 C -0.5266(2) -0.2333(4) 0.07664(4)
C5_2 C -0.7067(3) -0.4734(2) 0.07664(4)
C5B_2 C -0.7667(4) -0.2933(3) 0.07664(4)
H5B H 0.2578 0.7950 0.0828
H5A H 0.5372 0.7422 0.0828
H5A_2 H -0.4628 -0.2578 0.0828
H5_2 H -0.7950 -0.5372 0.0828
H5B_2 H -0.7422 -0.2050 0.0828
H6B H 0.1446 0.6442 0.0828
H6A H 0.4996 0.8554 0.0828
H6A_2 H -0.5004 -0.1446 0.0828
H6_2 H -0.6442 -0.4996 0.0828
H6B_2 H -0.8554 -0.3558 0.0828
C6A C -0.6667 -0.3334 0.08621(7)
H7A H -0.6667 -0.3334 0.1047
O5? O -0.2791(8) 0.3329(11) 0.02556(17)
O6? O -0.0939(12) 0.3398(14) 0.0636(3)
loop_
_geom_bond_atom_site_label_1
_geom_bond_atom_site_label_2
_geom_bond_site_symmetry_1
_geom_bond_site_symmetry_2
Cd1 N1 1_555 1_555
N1 N2 1_555 1_555
N2 C2 1_555 1_555
N3 C1 1_555 1_555
C1 N1 1_555 1_555
H1 C1 1_555 1_555
C2 N3 1_555 1_555
H2 C2 1_555 1_555
C3 N3 1_555 1_555
C4 C3 1_555 1_555
H3 C4 1_555 1_555
H4 C4 1_555 1_555
C5 C3 1_555 1_555
H5 C5 1_555 1_555
H6 C5 1_555 1_555
C6 C5 1_555 1_555
H7 C6 1_555 1_555
N4 O1 1_555 1_555
O1 N4P 1_555 1_555
O2 N4 1_555 1_555
O3 N4 1_555 1_555
Cd1_2 N1A 1_555 1_555
Cd1_3 N1B 1_555 1_555
Cd1_4 N1B_2 1_555 1_555
Cd1_5 N1_2 1_555 1_555
N1A N2A 1_555 1_555
N1B N2B 1_555 1_555
N1A_2 Cd1 1_555 1_555
N1B_2 N2B_2 1_555 1_555
N1_2 N2_2 1_555 1_555
N1B_3 Cd1 1_555 1_555
N1R Cd1 1_555 1_555
N1S Cd1 1_555 1_555
N1T Cd1 1_555 1_555
N2A C2A 1_555 1_555
N2B C2B 1_555 1_555
N2A_2 N1A_2 1_555 1_555
N2B_2 C2B_2 1_555 1_555
N2_2 C2_2 1_555 1_555
N3A C1A 1_555 1_555
N3B C1B 1_555 1_555
N3A_2 C1A_2 1_555 1_555
N3B_2 C1B_2 1_555 1_555
N3_2 C1_2 1_555 1_555
C1A N1A 1_555 1_555
C1B N1B 1_555 1_555
C1A_2 N1A_2 1_555 1_555
C1B_2 N1B_2 1_555 1_555
C1_2 N1_2 1_555 1_555
H1A C1A 1_555 1_555
H1B C1B 1_555 1_555
H1A_2 C1A_2 1_555 1_555
H1B_2 C1B_2 1_555 1_555
H1_2 C1_2 1_555 1_555
C2A N3A 1_555 1_555
C2B N3B 1_555 1_555
C2A_2 N2A_2 1_555 1_555
C2B_2 N3B_2 1_555 1_555
C2_2 N3_2 1_555 1_555
H2A C2A 1_555 1_555
H2B C2B 1_555 1_555
H2A_2 C2A_2 1_555 1_555
H2B_2 C2B_2 1_555 1_555
H2_2 C2_2 1_555 1_555
C3A C4 1_555 1_555
C3B N3B 1_555 1_555
C3A_2 N3A_2 1_555 1_555
C3B_2 N3B_2 1_555 1_555
C3_2 N3_2 1_555 1_555
C4A C3A 1_555 1_555
C4B C3 1_555 1_555
C4A_2 C3A_2 1_555 1_555
C4B_2 C3B_2 1_555 1_555
C4_2 C3A_2 1_555 1_555
H3B C4B 1_555 1_555
H3A C4A 1_555 1_555
H3A_2 C4A_2 1_555 1_555
H3_2 C4_2 1_555 1_555
H3B_2 C4B_2 1_555 1_555
H4B C4B 1_555 1_555
H4A C4A 1_555 1_555
H4A_2 C4A_2 1_555 1_555
H4_2 C4_2 1_555 1_555
H4B_2 C4B_2 1_555 1_555
C5B C6 1_555 1_555
C5A C6 1_555 1_555
C5A_2 C3A_2 1_555 1_555
C5_2 C3_2 1_555 1_555
C5B_2 C3B_2 1_555 1_555
H5B C5B 1_555 1_555
H5A C5A 1_555 1_555
H5A_2 C5A_2 1_555 1_555
H5_2 C5_2 1_555 1_555
H5B_2 C5B_2 1_555 1_555
H6B C5B 1_555 1_555
H6A C5A 1_555 1_555
H6A_2 C5A_2 1_555 1_555
H6_2 C5_2 1_555 1_555
H6B_2 C5B_2 1_555 1_555
C6A C5A_2 1_555 1_555
H7A C6A 1_555 1_555
N4P N4 1_555 1_555
O1P N4 1_555 1_555
O2P N4P 1_555 1_555
O3P N4P 1_555 1_555
O1 O1P 1_555 1_555
N3A C3A 1_555 1_555
N3A_2 C2A_2 1_555 1_555
C3A C5A 1_555 1_555
C3B C4A 1_555 1_555
C3B C4B 1_555 1_555
C3B C5B 1_555 1_555
C3B_2 C4A_2 1_555 1_555
C3_2 C4B_2 1_555 1_555
C3_2 C4_2 1_555 1_555
C5_2 C6A 1_555 1_555
C5B_2 C6A 1_555 1_555
N4P O1P 1_555 1_555

#END
