
#######################################################################
#
#                 Cambridge Crystallographic Data Centre
#                                CCDC 
#
#######################################################################
#
# If this CIF has been generated from an entry in the Cambridge 
# Structural Database, then it will include bibliographic, chemical, 
# crystal, experimental, refinement or atomic coordinate data resulting 
# from the CCDC's data processing and validation procedures.
#
#######################################################################

data_KEHDIM
_symmetry_cell_setting           triclinic
_symmetry_space_group_name_H-M   'P -1'
_symmetry_Int_Tables_number      2
_space_group_name_Hall           '-P 1'
loop_
_symmetry_equiv_pos_site_id
_symmetry_equiv_pos_as_xyz
1 x,y,z
2 -x,-y,-z
_cell_length_a                   10.3397(2)
_cell_length_b                   11.3871(2)
_cell_length_c                   17.8908(5)
_cell_angle_alpha                95.632(1)
_cell_angle_beta                 102.961(1)
_cell_angle_gamma                115.430(1)
_cell_volume                     1808.08
loop_
_atom_site_label
_atom_site_type_symbol
_atom_site_fract_x
_atom_site_fract_y
_atom_site_fract_z
Cd1 Cd 1.0000 0.5000 0.5000
Cd2 Cd 0.83966(2) -0.088048(19) -0.168246(12)
I1 I 0.70059(2) -0.10117(2) -0.320986(12)
I2 I 0.78677(2) -0.332303(18) -0.135481(12)
I3 I 1.14433(2) 0.07744(2) -0.124909(16)
N1 N 0.7855(3) 0.5165(2) 0.44643(14)
N2 N 0.6696(3) 0.4137(2) 0.38743(17)
N3 N 0.6340(2) 0.5914(2) 0.39172(14)
N4 N 0.8471(3) 1.2683(2) 0.49479(14)
N5 N 0.9051(3) 1.2089(2) 0.54672(14)
N6 N 0.7224(2) 1.0520(2) 0.44882(13)
N7 N 0.9857(3) 0.4295(2) 0.36861(14)
N8 N 0.9776(3) 0.3082(3) 0.34073(14)
N9 N 0.8871(3) 0.3765(2) 0.24076(13)
N10 N 0.7332(3) 0.0147(2) -0.10615(14)
N11 N 0.5835(3) -0.0201(2) -0.13780(14)
N12 N 0.6861(2) 0.1529(2) -0.03776(13)
C1 C 0.7617(3) 0.6206(3) 0.44793(16)
H1 H 0.8237 0.7028 0.4827
C2 C 0.5810(3) 0.4614(3) 0.3559(2)
H2 H 0.4933 0.4131 0.3144
C3 C 0.7383(3) 1.1729(3) 0.43745(16)
H3 H 0.6798 1.1862 0.3948
C4 C 0.8296(3) 1.0812(3) 0.51715(16)
H4 H 0.8472 1.0176 0.5402
C5 C 0.5697(3) 0.6816(2) 0.36972(16)
C6 C 0.6779(3) 0.8215(2) 0.42036(15)
H5 H 0.7752 0.8514 0.4115
H6 H 0.6904 0.8198 0.4756
C7 C 0.6149(3) 0.9173(2) 0.39871(15)
C8 C 0.5973(4) 0.9211(3) 0.31159(16)
H7 H 0.5580 0.9821 0.2976
H8 H 0.6940 0.9518 0.3018
C9 C 0.4892(4) 0.7801(3) 0.26213(18)
H9 H 0.4771 0.7815 0.2064
C10 C 0.5535(3) 0.6845(3) 0.28316(17)
H10 H 0.4869 0.5958 0.2507
H11 H 0.6505 0.7147 0.2739
C11 C 0.4169(3) 0.6326(3) 0.3850(2)
H12 H 0.4279 0.6296 0.4400
H13 H 0.3486 0.5436 0.3534
C12 C 0.3543(3) 0.7295(3) 0.3634(2)
H14 H 0.2563 0.6993 0.3727
C13 C 0.4628(3) 0.8696(3) 0.41474(19)
H15 H 0.4226 0.9307 0.4026
H16 H 0.4748 0.8675 0.4699
C14 C 0.3370(4) 0.7328(3) 0.2764(2)
H17 H 0.2682 0.6445 0.2440
H18 H 0.2962 0.7928 0.2622
C15 C 0.9312(3) 0.4673(3) 0.30810(16)
H19 H 0.9236 0.5461 0.3108
C16 C 0.9189(4) 0.2805(3) 0.26426(17)
H20 H 0.9015 0.2043 0.2305
C17 C 0.7915(3) 0.1169(3) -0.04719(16)
H21 H 0.8910 0.1591 -0.0161
C18 C 0.5596(3) 0.0641(3) -0.09555(16)
H22 H 0.4673 0.0636 -0.1038
C19 C 0.8125(3) 0.3830(3) 0.16114(15)
C20 C 0.7841(3) 0.2625(2) 0.10206(14)
H23 H 0.7201 0.1812 0.1154
H24 H 0.8782 0.2622 0.1034
C21 C 0.7082(3) 0.2690(2) 0.01954(14)
C22 C 0.8072(3) 0.3972(3) -0.00219(15)
H25 H 0.7584 0.4003 -0.0545
H26 H 0.9022 0.3997 -0.0022
C23 C 0.8344(3) 0.5179(3) 0.05833(16)
H27 H 0.8979 0.6006 0.0449
C24 C 0.9135(3) 0.5118(3) 0.14043(15)
H28 H 1.0084 0.5138 0.1409
H29 H 0.9334 0.5883 0.1790
C25 C 0.6618(3) 0.3792(3) 0.16056(15)
H30 H 0.5987 0.2982 0.1746
H31 H 0.6784 0.4549 0.1986
C26 C 0.5846(3) 0.3838(3) 0.07758(16)
H32 H 0.4882 0.3812 0.0765
C27 C 0.5571(3) 0.2637(3) 0.01702(16)
H33 H 0.4927 0.1814 0.0293
H34 H 0.5079 0.2669 -0.0352
C28 C 0.6842(3) 0.5135(3) 0.05706(17)
H35 H 0.6351 0.5182 0.0053
H36 H 0.7004 0.5894 0.0949
Cd1_2 Cd 1.0000 1.5000 0.5000
Cd1_3 Cd 1.0000 -0.5000 0.5000
Cd2A Cd 1.16034(2) 1.088048(19) 1.168246(12)
I1A I 1.29941(2) 1.10117(2) 1.320986(12)
I2A I 1.21323(2) 1.332303(18) 1.135481(12)
I3A I 0.85567(2) 0.92256(2) 1.124909(16)
N1_2 N 0.7855(3) -0.4835(2) 0.44643(14)
N1A N 1.2145(3) 0.4835(2) 0.55357(14)
N2_2 N 0.6696(3) -0.5863(2) 0.38743(17)
N3_2 N 0.6340(2) -0.4086(2) 0.39172(14)
N4_2 N 0.8471(3) 0.2683(2) 0.49479(14)
N4A N 1.1529(3) 0.7317(2) 0.50521(14)
N5_2 N 0.9051(3) 0.2089(2) 0.54672(14)
N6_2 N 0.7224(2) 0.0520(2) 0.44882(13)
N7A N 1.0143(3) 0.5705(2) 0.63139(14)
N8A N 1.0224(3) 0.6918(3) 0.65927(14)
N9A N 1.1129(3) 0.6235(2) 0.75924(13)
N10A N 1.2668(3) 0.9853(2) 1.10615(14)
N11A N 1.4165(3) 1.0201(2) 1.13780(14)
N12A N 1.3139(2) 0.8471(2) 1.03776(13)
C1_2 C 0.7617(3) -0.3794(3) 0.44793(16)
H1_2 H 0.8237 -0.2972 0.4827
C2_2 C 0.5810(3) -0.5386(3) 0.3559(2)
H2_2 H 0.4933 -0.5869 0.3144
C3_2 C 0.7383(3) 0.1729(3) 0.43745(16)
H3_2 H 0.6798 0.1862 0.3948
C4_2 C 0.8296(3) 0.0812(3) 0.51715(16)
H4_2 H 0.8472 0.0176 0.5402
C5_2 C 0.5697(3) -0.3184(2) 0.36972(16)
C6_2 C 0.6779(3) -0.1785(2) 0.42036(15)
H5_2 H 0.7752 -0.1486 0.4115
H6_2 H 0.6904 -0.1802 0.4756
C7_2 C 0.6149(3) -0.0827(2) 0.39871(15)
C8_2 C 0.5973(4) -0.0789(3) 0.31159(16)
H7_2 H 0.5580 -0.0179 0.2976
H8_2 H 0.6940 -0.0482 0.3018
C9_2 C 0.4892(4) -0.2199(3) 0.26213(18)
H9_2 H 0.4771 -0.2185 0.2064
C10_2 C 0.5535(3) -0.3155(3) 0.28316(17)
H10_2 H 0.4869 -0.4042 0.2507
H11_2 H 0.6505 -0.2853 0.2739
C11_2 C 0.4169(3) -0.3674(3) 0.3850(2)
H12_2 H 0.4279 -0.3704 0.4400
H13_2 H 0.3486 -0.4564 0.3534
C12_2 C 0.3543(3) -0.2705(3) 0.3634(2)
H14_2 H 0.2563 -0.3007 0.3727
C13_2 C 0.4628(3) -0.1304(3) 0.41474(19)
H15_2 H 0.4226 -0.0693 0.4026
H16_2 H 0.4748 -0.1325 0.4699
C14_2 C 0.3370(4) -0.2672(3) 0.2764(2)
H17_2 H 0.2682 -0.3555 0.2440
H18_2 H 0.2962 -0.2072 0.2622
C15A C 1.0688(3) 0.5327(3) 0.69190(16)
H19A H 1.0764 0.4539 0.6892
C16A C 1.0811(4) 0.7195(3) 0.73574(17)
H20A H 1.0985 0.7957 0.7695
C17A C 1.2085(3) 0.8831(3) 1.04719(16)
H21A H 1.1090 0.8409 1.0161
C18A C 1.4404(3) 0.9359(3) 1.09555(16)
H22A H 1.5327 0.9364 1.1038
C19A C 1.1875(3) 0.6170(3) 0.83886(15)
C20A C 1.2159(3) 0.7375(2) 0.89794(14)
H23A H 1.2799 0.8188 0.8846
H24A H 1.1218 0.7378 0.8966
C21A C 1.2918(3) 0.7310(2) 0.98046(14)
C22A C 1.1928(3) 0.6028(3) 1.00219(15)
H25A H 1.2416 0.5997 1.0545
H26A H 1.0978 0.6003 1.0022
C23A C 1.1656(3) 0.4821(3) 0.94167(16)
H27A H 1.1021 0.3994 0.9551
C24A C 1.0865(3) 0.4882(3) 0.85957(15)
H28A H 0.9916 0.4862 0.8591
H29A H 1.0666 0.4117 0.8210
C25A C 1.3382(3) 0.6208(3) 0.83944(15)
H30A H 1.4013 0.7018 0.8254
H31A H 1.3216 0.5451 0.8014
C26A C 1.4154(3) 0.6162(3) 0.92242(16)
H32A H 1.5118 0.6188 0.9235
C27A C 1.4429(3) 0.7363(3) 0.98298(16)
H33A H 1.5073 0.8186 0.9707
H34A H 1.4921 0.7331 1.0352
C28A C 1.3158(3) 0.4865(3) 0.94294(17)
H35A H 1.3649 0.4818 0.9947
H36A H 1.2996 0.4106 0.9051
O1 O 1.0194(3) 0.1024(3) 0.40293(15)
H37 H 0.9979 0.1643 0.3926
H38 H 1.0585 0.0857 0.3689
O2 O 0.9133(3) 0.7396(3) 0.29263(16)
H39 H 0.9750 0.7594 0.3379
H40 H 0.9364 0.8099 0.2747
loop_
_geom_bond_atom_site_label_1
_geom_bond_atom_site_label_2
_geom_bond_site_symmetry_1
_geom_bond_site_symmetry_2
Cd1 N1 1_555 1_555
Cd2 I1 1_555 1_555
I2 Cd2 1_555 1_555
I3 Cd2 1_555 1_555
N1 N2 1_555 1_555
N2 C2 1_555 1_555
N3 C1 1_555 1_555
N4 N5 1_555 1_555
N5 C4 1_555 1_555
N6 C3 1_555 1_555
N7 Cd1 1_555 1_555
N8 N7 1_555 1_555
N9 C15 1_555 1_555
N10 Cd2 1_555 1_555
N11 N10 1_555 1_555
N12 C17 1_555 1_555
C1 N1 1_555 1_555
H1 C1 1_555 1_555
C2 N3 1_555 1_555
H2 C2 1_555 1_555
C3 N4 1_555 1_555
H3 C3 1_555 1_555
C4 N6 1_555 1_555
H4 C4 1_555 1_555
C5 N3 1_555 1_555
C6 C5 1_555 1_555
H5 C6 1_555 1_555
H6 C6 1_555 1_555
C7 N6 1_555 1_555
C8 C7 1_555 1_555
H7 C8 1_555 1_555
H8 C8 1_555 1_555
C9 C8 1_555 1_555
H9 C9 1_555 1_555
C10 C5 1_555 1_555
H10 C10 1_555 1_555
H11 C10 1_555 1_555
C11 C5 1_555 1_555
H12 C11 1_555 1_555
H13 C11 1_555 1_555
C12 C11 1_555 1_555
H14 C12 1_555 1_555
C13 C7 1_555 1_555
H15 C13 1_555 1_555
H16 C13 1_555 1_555
C14 C9 1_555 1_555
H17 C14 1_555 1_555
H18 C14 1_555 1_555
C15 N7 1_555 1_555
H19 C15 1_555 1_555
C16 N8 1_555 1_555
H20 C16 1_555 1_555
C17 N10 1_555 1_555
H21 C17 1_555 1_555
C18 N11 1_555 1_555
H22 C18 1_555 1_555
C19 N9 1_555 1_555
C20 C19 1_555 1_555
H23 C20 1_555 1_555
H24 C20 1_555 1_555
C21 N12 1_555 1_555
C22 C21 1_555 1_555
H25 C22 1_555 1_555
H26 C22 1_555 1_555
C23 C22 1_555 1_555
H27 C23 1_555 1_555
C24 C19 1_555 1_555
H28 C24 1_555 1_555
H29 C24 1_555 1_555
C25 C19 1_555 1_555
H30 C25 1_555 1_555
H31 C25 1_555 1_555
C26 C25 1_555 1_555
H32 C26 1_555 1_555
C27 C21 1_555 1_555
H33 C27 1_555 1_555
H34 C27 1_555 1_555
C28 C23 1_555 1_555
H35 C28 1_555 1_555
H36 C28 1_555 1_555
O1 H37 1_555 1_555
H38 O1 1_555 1_555
O2 H39 1_555 1_555
H40 O2 1_555 1_555
Cd1_2 N4 1_555 1_555
Cd1_3 N1_2 1_555 1_555
Cd2A I1A 1_555 1_555
I2A Cd2A 1_555 1_555
I3A Cd2A 1_555 1_555
N1_2 N2_2 1_555 1_555
N1A Cd1 1_555 1_555
N2_2 C2_2 1_555 1_555
N3_2 C1_2 1_555 1_555
N4_2 Cd1 1_555 1_555
N4A Cd1 1_555 1_555
N5_2 N4_2 1_555 1_555
N6_2 C3_2 1_555 1_555
N7A Cd1 1_555 1_555
N8A N7A 1_555 1_555
N9A C15A 1_555 1_555
N10A Cd2A 1_555 1_555
N11A N10A 1_555 1_555
N12A C17A 1_555 1_555
C1_2 N1_2 1_555 1_555
H1_2 C1_2 1_555 1_555
C2_2 N3_2 1_555 1_555
H2_2 C2_2 1_555 1_555
C3_2 N4_2 1_555 1_555
H3_2 C3_2 1_555 1_555
C4_2 N5_2 1_555 1_555
H4_2 C4_2 1_555 1_555
C5_2 N3_2 1_555 1_555
C6_2 C5_2 1_555 1_555
H5_2 C6_2 1_555 1_555
H6_2 C6_2 1_555 1_555
C7_2 N6_2 1_555 1_555
C8_2 C7_2 1_555 1_555
H7_2 C8_2 1_555 1_555
H8_2 C8_2 1_555 1_555
C9_2 C8_2 1_555 1_555
H9_2 C9_2 1_555 1_555
C10_2 C5_2 1_555 1_555
H10_2 C10_2 1_555 1_555
H11_2 C10_2 1_555 1_555
C11_2 C5_2 1_555 1_555
H12_2 C11_2 1_555 1_555
H13_2 C11_2 1_555 1_555
C12_2 C11_2 1_555 1_555
H14_2 C12_2 1_555 1_555
C13_2 C7_2 1_555 1_555
H15_2 C13_2 1_555 1_555
H16_2 C13_2 1_555 1_555
C14_2 C9_2 1_555 1_555
H17_2 C14_2 1_555 1_555
H18_2 C14_2 1_555 1_555
C15A N7A 1_555 1_555
H19A C15A 1_555 1_555
C16A N8A 1_555 1_555
H20A C16A 1_555 1_555
C17A N10A 1_555 1_555
H21A C17A 1_555 1_555
C18A N11A 1_555 1_555
H22A C18A 1_555 1_555
C19A N9A 1_555 1_555
C20A C19A 1_555 1_555
H23A C20A 1_555 1_555
H24A C20A 1_555 1_555
C21A N12A 1_555 1_555
C22A C21A 1_555 1_555
H25A C22A 1_555 1_555
H26A C22A 1_555 1_555
C23A C22A 1_555 1_555
H27A C23A 1_555 1_555
C24A C19A 1_555 1_555
H28A C24A 1_555 1_555
H29A C24A 1_555 1_555
C25A C19A 1_555 1_555
H30A C25A 1_555 1_555
H31A C25A 1_555 1_555
C26A C25A 1_555 1_555
H32A C26A 1_555 1_555
C27A C21A 1_555 1_555
H33A C27A 1_555 1_555
H34A C27A 1_555 1_555
C28A C23A 1_555 1_555
H35A C28A 1_555 1_555
H36A C28A 1_555 1_555
N9 C16 1_555 1_555
N12 C18 1_555 1_555
C6 C7 1_555 1_555
C9 C10 1_555 1_555
C12 C13 1_555 1_555
C12 C14 1_555 1_555
C20 C21 1_555 1_555
C23 C24 1_555 1_555
C26 C27 1_555 1_555
C26 C28 1_555 1_555
N6_2 C4_2 1_555 1_555
N9A C16A 1_555 1_555
N12A C18A 1_555 1_555
C6_2 C7_2 1_555 1_555
C9_2 C10_2 1_555 1_555
C12_2 C13_2 1_555 1_555
C12_2 C14_2 1_555 1_555
C20A C21A 1_555 1_555
C23A C24A 1_555 1_555
C26A C27A 1_555 1_555
C26A C28A 1_555 1_555

#END
