
#######################################################################
#
#                 Cambridge Crystallographic Data Centre
#                                CCDC 
#
#######################################################################
#
# If this CIF has been generated from an entry in the Cambridge 
# Structural Database, then it will include bibliographic, chemical, 
# crystal, experimental, refinement or atomic coordinate data resulting 
# from the CCDC's data processing and validation procedures.
#
#######################################################################

data_KEHDUW
_symmetry_cell_setting           monoclinic
_symmetry_space_group_name_H-M   'P 21/c'
_symmetry_Int_Tables_number      14
_space_group_name_Hall           '-P 2ybc'
loop_
_symmetry_equiv_pos_site_id
_symmetry_equiv_pos_as_xyz
1 x,y,z
2 -x,1/2+y,1/2-z
3 -x,-y,-z
4 x,1/2-y,1/2+z
_cell_length_a                   7.656(2)
_cell_length_b                   10.205(7)
_cell_length_c                   17.571(5)
_cell_angle_alpha                90
_cell_angle_beta                 95.76(2)
_cell_angle_gamma                90
_cell_volume                     1365.88
loop_
_atom_site_label
_atom_site_type_symbol
_atom_site_fract_x
_atom_site_fract_y
_atom_site_fract_z
Cd1 Cd 0.08051(5) 0.20045(4) 0.22192(2)
O1 O 0.3176(5) 0.0632(4) 0.2168(2)
O2 O 0.1655(5) 0.0771(4) 0.1051(2)
O3 O 0.2334(5) 0.3703(4) 0.1745(2)
O4 O -0.0793(5) 0.0043(4) 0.2599(2)
N1 N -0.1722(6) 0.2544(5) 0.1531(3)
N2 N -0.4459(5) 0.3128(5) 0.1258(3)
N3 N 0.1376(6) 0.2279(5) 0.3482(2)
N4 N 0.1543(6) 0.3041(6) 0.4652(2)
C1 C -0.2197(8) 0.2342(8) 0.0775(3)
C2 C -0.3886(8) 0.2689(8) 0.0601(3)
C3 C -0.3121(8) 0.3025(7) 0.1796(3)
C4 C 0.1729(8) 0.1259(7) 0.3989(4)
C5 C 0.1826(8) 0.1705(7) 0.4701(3)
C6 C 0.1254(7) 0.3349(6) 0.3908(3)
C7 C 0.1898(7) 0.4839(6) 0.1942(3)
C8 C 0.2811(8) 0.5948(7) 0.1595(4)
C9 C 0.2953(8) 0.0366(6) 0.1469(4)
C10 C 0.431(1) -0.0467(7) 0.1146(4)
C7A C -0.1898(7) -0.0161(6) 0.3058(3)
O4A O 0.0793(5) 0.5043(4) 0.2401(2)
O3A O -0.2334(5) -0.1297(4) 0.3255(2)
C8A C -0.2811(8) 0.0948(7) 0.3405(4)
Cd1A Cd -0.08051(5) 0.70045(4) 0.27808(2)
Cd1A_2 Cd -0.08051(5) -0.29955(4) 0.27808(2)
O1A O -0.3176(5) 0.5632(4) 0.2832(2)
O2A O -0.1655(5) 0.5771(4) 0.3949(2)
O3A_2 O -0.2334(5) 0.8703(4) 0.3255(2)
N1A N 0.1722(6) 0.7544(5) 0.3469(3)
N3A N -0.1376(6) 0.7279(5) 0.1518(2)
C9A C -0.2953(8) 0.5366(6) 0.3531(4)
C1A C 0.2197(8) 0.7342(8) 0.4225(3)
C3A C 0.3121(8) 0.8025(7) 0.3204(3)
C4A C -0.1729(8) 0.6259(7) 0.1011(4)
C6A C -0.1254(7) 0.8349(6) 0.1092(3)
C10A C -0.431(1) 0.4533(7) 0.3854(4)
C2A C 0.3886(8) 0.7689(8) 0.4399(3)
N2A N 0.4459(5) 0.8128(5) 0.3742(3)
C5A C -0.1826(8) 0.6705(7) 0.0299(3)
N4A N -0.1543(6) 0.8041(6) 0.0348(2)
loop_
_geom_bond_atom_site_label_1
_geom_bond_atom_site_label_2
_geom_bond_site_symmetry_1
_geom_bond_site_symmetry_2
Cd1 O1 1_555 1_555
O1 C9 1_555 1_555
O2 Cd1 1_555 1_555
O3 Cd1 1_555 1_555
O4 Cd1 1_555 1_555
N1 Cd1 1_555 1_555
N2 C2 1_555 1_555
N3 Cd1 1_555 1_555
N4 C5 1_555 1_555
C1 N1 1_555 1_555
C2 C1 1_555 1_555
C3 N1 1_555 1_555
C4 N3 1_555 1_555
C5 C4 1_555 1_555
C6 N3 1_555 1_555
C7 O3 1_555 1_555
C8 C7 1_555 1_555
C9 O2 1_555 1_555
C10 C9 1_555 1_555
C7A O4 1_555 1_555
O4A C7 1_555 1_555
O3A C7A 1_555 1_555
C8A C7A 1_555 1_555
Cd1A O4A 1_555 1_555
Cd1A_2 O3A 1_555 1_555
O1A Cd1A 1_555 1_555
O2A Cd1A 1_555 1_555
O3A_2 Cd1A 1_555 1_555
N1A Cd1A 1_555 1_555
N3A Cd1A 1_555 1_555
C9A O1A 1_555 1_555
C1A N1A 1_555 1_555
C3A N1A 1_555 1_555
C4A N3A 1_555 1_555
C6A N3A 1_555 1_555
C10A C9A 1_555 1_555
C2A C1A 1_555 1_555
N2A C3A 1_555 1_555
C5A C4A 1_555 1_555
N4A C6A 1_555 1_555
N2 C3 1_555 1_555
N4 C6 1_555 1_555
O2A C9A 1_555 1_555
C2A N2A 1_555 1_555
C5A N4A 1_555 1_555

#END
