
#######################################################################
#
#                 Cambridge Crystallographic Data Centre
#                                CCDC 
#
#######################################################################
#
# If this CIF has been generated from an entry in the Cambridge 
# Structural Database, then it will include bibliographic, chemical, 
# crystal, experimental, refinement or atomic coordinate data resulting 
# from the CCDC's data processing and validation procedures.
#
#######################################################################

data_KEHFIO
_symmetry_cell_setting           rhombohedral
_symmetry_space_group_name_H-M   'R -3 c'
_symmetry_Int_Tables_number      167
_space_group_name_Hall           '-R 3 2"c'
loop_
_symmetry_equiv_pos_site_id
_symmetry_equiv_pos_as_xyz
1 x,y,z
2 -y,x-y,z
3 -x+y,-x,z
4 y,x,1/2-z
5 x-y,-y,1/2-z
6 -x,-x+y,1/2-z
7 2/3+x,1/3+y,1/3+z
8 2/3-y,1/3+x-y,1/3+z
9 2/3-x+y,1/3-x,1/3+z
10 2/3+y,1/3+x,5/6-z
11 2/3+x-y,1/3-y,5/6-z
12 2/3-x,1/3-x+y,5/6-z
13 1/3+x,2/3+y,2/3+z
14 1/3-y,2/3+x-y,2/3+z
15 1/3-x+y,2/3-x,2/3+z
16 1/3+y,2/3+x,1/6-z
17 1/3+x-y,2/3-y,1/6-z
18 1/3-x,2/3-x+y,1/6-z
19 -x,-y,-z
20 y,-x+y,-z
21 x-y,x,-z
22 -y,-x,1/2+z
23 -x+y,y,1/2+z
24 x,x-y,1/2+z
25 1/3-x,2/3-y,2/3-z
26 1/3+y,2/3-x+y,2/3-z
27 1/3+x-y,2/3+x,2/3-z
28 1/3-y,2/3-x,1/6+z
29 1/3-x+y,2/3+y,1/6+z
30 1/3+x,2/3+x-y,1/6+z
31 2/3-x,1/3-y,1/3-z
32 2/3+y,1/3-x+y,1/3-z
33 2/3+x-y,1/3+x,1/3-z
34 2/3-y,1/3-x,5/6+z
35 2/3-x+y,1/3+y,5/6+z
36 2/3+x,1/3+x-y,5/6+z
_cell_length_a                   11.4936(8)
_cell_length_b                   11.4936(8)
_cell_length_c                   57.216(2)
_cell_angle_alpha                90
_cell_angle_beta                 90
_cell_angle_gamma                120
_cell_volume                     6545.76
loop_
_atom_site_label
_atom_site_type_symbol
_atom_site_fract_x
_atom_site_fract_y
_atom_site_fract_z
Cd2 Cd 0.6666 0.3334 0.09554(2)
I1 I 0.89120(5) 0.3333 0.0833
I2 I 0.6666 0.3334 0.14302(3)
Cd2O Cd 0.6667 0.3333 0.07113(2)
I1O I 0.6666 0.55787(5) 0.0834
I1B I 0.44210(5) 0.10880(5) 0.0833
I2O I 0.6667 0.3333 0.02365(3)
O1 O 0.848(3) 0.343(4) 0.1497(4)
H7 H 0.8383 0.3163 0.1355
H8 H 0.9123 0.4238 0.1500
Cd1 Cd 0.0000 -1.0000 0.0000
N1 N -0.0476(6) -0.8579(4) -0.02285(7)
N2 N 0.0552(7) -0.7383(5) -0.03113(9)
N3 N -0.1375(6) -0.7494(4) -0.03928(7)
N4 N -0.3333 -0.6667 -0.08287(12)
C1 C -0.1599(7) -0.8625(5) -0.02804(10)
H1 H -0.2456 -0.9349 -0.0245
C2 C -0.0020(8) -0.6769(6) -0.04099(12)
H2 H 0.0452 -0.5928 -0.0484
C3 C -0.2342(6) -0.7085(4) -0.04766(8)
C4 C -0.3756(6) -0.8093(4) -0.03847(8)
H3 H -0.4026 -0.9001 -0.0440
H4 H -0.3758 -0.8099 -0.0213
C5 C -0.2375(6) -0.7070(4) -0.07450(8)
H5 H -0.2637 -0.7968 -0.0805
H6 H -0.1476 -0.6442 -0.0805
Cd1_2 Cd -1.0000 -1.0000 0.0000
Cd1_3 Cd 0.0000 0.0000 0.0000
Cd1_4 Cd 0.0000 -2.0000 0.0000
Cd1_5 Cd -1.0000 -2.0000 0.0000
N1B N -0.8103(7) -0.9524(6) -0.02285(7)
N1A N -0.1421(4) -0.1897(7) -0.02285(7)
N1A_2 N -0.1421(4) -1.1897(7) -0.02285(7)
N1_2 N -0.0476(6) -1.8579(4) -0.02285(7)
N1B_2 N -0.8103(7) -1.9524(6) -0.02285(7)
N1B_3 N 0.1897(7) -0.9524(6) -0.02285(7)
N1R N 0.0476(6) -1.1421(4) 0.02285(7)
N1S N 0.1421(4) -0.8103(7) 0.02285(7)
N1T N -0.1897(7) -1.0476(6) 0.02285(7)
N2B N -0.7935(9) -1.0552(7) -0.03113(9)
N2A N -0.2617(5) -0.2065(9) -0.03113(9)
N2A_2 N -0.2617(5) -1.2065(9) -0.03113(9)
N2_2 N 0.0552(7) -1.7383(5) -0.03113(9)
N2B_2 N -0.7935(9) -2.0552(7) -0.03113(9)
N3B N -0.6119(7) -0.8625(6) -0.03928(7)
N3A N -0.2506(4) -0.3881(7) -0.03928(7)
N3A_2 N -0.2506(4) -1.3881(7) -0.03928(7)
N3_2 N -0.1375(6) -1.7494(4) -0.03928(7)
N3B_2 N -0.6119(7) -1.8625(6) -0.03928(7)
N4A N -0.3333 -1.6666 -0.08287(12)
C1B C -0.7026(9) -0.8401(7) -0.02804(10)
C1A C -0.1375(5) -0.2974(9) -0.02804(10)
C1A_2 C -0.1375(5) -1.2974(9) -0.02804(10)
C1_2 C -0.1599(7) -1.8625(5) -0.02804(10)
C1B_2 C -0.7026(9) -1.8401(7) -0.02804(10)
H1B H -0.6893 -0.7544 -0.0245
H1A H -0.0651 -0.3107 -0.0245
H1A_2 H -0.0651 -1.3107 -0.0245
H1_2 H -0.2456 -1.9349 -0.0245
H1B_2 H -0.6893 -1.7544 -0.0245
C2B C -0.6749(10) -0.9980(8) -0.04099(12)
C2A C -0.3231(6) -0.3251(10) -0.04099(12)
C2A_2 C -0.3231(6) -1.3251(10) -0.04099(12)
C2_2 C -0.0020(8) -1.6769(6) -0.04099(12)
C2B_2 C -0.6749(10) -1.9980(8) -0.04099(12)
H2B H -0.6380 -1.0452 -0.0484
H2A H -0.4072 -0.3620 -0.0484
H2A_2 H -0.4072 -1.3620 -0.0484
H2_2 H 0.0452 -1.5928 -0.0484
H2B_2 H -0.6380 -2.0452 -0.0484
C3B C -0.4743(7) -0.7658(6) -0.04766(8)
C3A C -0.2915(4) -0.5257(7) -0.04766(8)
C3A_2 C -0.2915(4) -1.5257(7) -0.04766(8)
C3_2 C -0.2342(6) -1.7085(4) -0.04766(8)
C3B_2 C -0.4743(7) -1.7658(6) -0.04766(8)
C4B C -0.4337(7) -0.6244(6) -0.03847(8)
C4A C -0.1907(4) -0.5663(7) -0.03847(8)
C4A_2 C -0.1907(4) -1.5663(7) -0.03847(8)
C4_2 C -0.3756(6) -1.8093(4) -0.03847(8)
C4B_2 C -0.4337(7) -1.6244(6) -0.03847(8)
H3A H -0.0999 -0.5025 -0.0440
H3B H -0.4975 -0.5974 -0.0440
H3A_2 H -0.0999 -1.5025 -0.0440
H3B_2 H -0.4975 -1.5974 -0.0440
H3_2 H -0.4026 -1.9001 -0.0440
H4A H -0.1901 -0.5659 -0.0213
H4B H -0.4341 -0.6242 -0.0213
H4A_2 H -0.1901 -1.5659 -0.0213
H4B_2 H -0.4341 -1.6242 -0.0213
H4_2 H -0.3758 -1.8099 -0.0213
C5A C -0.2930(4) -0.5305(7) -0.07450(8)
C5B C -0.4695(7) -0.7625(6) -0.07450(8)
C5A_2 C -0.2930(4) -1.5305(7) -0.07450(8)
C5B_2 C -0.4695(7) -1.7625(6) -0.07450(8)
C5_2 C -0.2375(6) -1.7070(4) -0.07450(8)
H5A H -0.2032 -0.4669 -0.0805
H5B H -0.5331 -0.7363 -0.0805
H5A_2 H -0.2032 -1.4669 -0.0805
H5B_2 H -0.5331 -1.7363 -0.0805
H5_2 H -0.2637 -1.7968 -0.0805
H6A H -0.3558 -0.5034 -0.0805
H6B H -0.4966 -0.8524 -0.0805
H6A_2 H -0.3558 -1.5034 -0.0805
H6B_2 H -0.4966 -1.8524 -0.0805
H6_2 H -0.1476 -1.6442 -0.0805
loop_
_geom_bond_atom_site_label_1
_geom_bond_atom_site_label_2
_geom_bond_site_symmetry_1
_geom_bond_site_symmetry_2
Cd1 N1 1_555 1_555
Cd2 I1 1_555 1_555
I1 Cd2O 1_555 1_555
I2 Cd2 1_555 1_555
N1 N2 1_555 1_555
N2 C2 1_555 1_555
N3 C1 1_555 1_555
N4 C5 1_555 1_555
C1 N1 1_555 1_555
H1 C1 1_555 1_555
C2 N3 1_555 1_555
H2 C2 1_555 1_555
C3 N3 1_555 1_555
C4 C3 1_555 1_555
H3 C4 1_555 1_555
H4 C4 1_555 1_555
C5 C3 1_555 1_555
H5 C5 1_555 1_555
H6 C5 1_555 1_555
O1 H7 1_555 1_555
H8 O1 1_555 1_555
Cd1_2 N1B 1_555 1_555
Cd1_3 N1A 1_555 1_555
Cd1_4 N1_2 1_555 1_555
Cd1_5 N1B_2 1_555 1_555
Cd2O Cd2 1_555 1_555
I1O Cd2 1_555 1_555
I1B Cd2 1_555 1_555
I2O Cd2O 1_555 1_555
N1B N2B 1_555 1_555
N1A N2A 1_555 1_555
N1A_2 Cd1 1_555 1_555
N1_2 N2_2 1_555 1_555
N1B_2 N2B_2 1_555 1_555
N1B_3 Cd1 1_555 1_555
N1R Cd1 1_555 1_555
N1S Cd1 1_555 1_555
N1T Cd1 1_555 1_555
N2B C2B 1_555 1_555
N2A C2A 1_555 1_555
N2A_2 N1A_2 1_555 1_555
N2_2 C2_2 1_555 1_555
N2B_2 C2B_2 1_555 1_555
N3B C1B 1_555 1_555
N3A C1A 1_555 1_555
N3A_2 C1A_2 1_555 1_555
N3_2 C1_2 1_555 1_555
N3B_2 C1B_2 1_555 1_555
N4A C5A_2 1_555 1_555
C1B N1B 1_555 1_555
C1A N1A 1_555 1_555
C1A_2 N1A_2 1_555 1_555
C1_2 N1_2 1_555 1_555
C1B_2 N1B_2 1_555 1_555
H1B C1B 1_555 1_555
H1A C1A 1_555 1_555
H1A_2 C1A_2 1_555 1_555
H1_2 C1_2 1_555 1_555
H1B_2 C1B_2 1_555 1_555
C2B N3B 1_555 1_555
C2A N3A 1_555 1_555
C2A_2 N2A_2 1_555 1_555
C2_2 N3_2 1_555 1_555
C2B_2 N3B_2 1_555 1_555
H2B C2B 1_555 1_555
H2A C2A 1_555 1_555
H2A_2 C2A_2 1_555 1_555
H2_2 C2_2 1_555 1_555
H2B_2 C2B_2 1_555 1_555
C3B C4 1_555 1_555
C3A N3A 1_555 1_555
C3A_2 N3A_2 1_555 1_555
C3_2 N3_2 1_555 1_555
C3B_2 N3B_2 1_555 1_555
C4B C3B 1_555 1_555
C4A C3 1_555 1_555
C4A_2 C3A_2 1_555 1_555
C4_2 C3_2 1_555 1_555
C4B_2 C3A_2 1_555 1_555
H3A C4A 1_555 1_555
H3B C4B 1_555 1_555
H3A_2 C4A_2 1_555 1_555
H3B_2 C4B_2 1_555 1_555
H3_2 C4_2 1_555 1_555
H4A C4A 1_555 1_555
H4B C4B 1_555 1_555
H4A_2 C4A_2 1_555 1_555
H4B_2 C4B_2 1_555 1_555
H4_2 C4_2 1_555 1_555
C5A N4 1_555 1_555
C5B N4 1_555 1_555
C5A_2 C3A_2 1_555 1_555
C5B_2 N4A 1_555 1_555
C5_2 N4A 1_555 1_555
H5A C5A 1_555 1_555
H5B C5B 1_555 1_555
H5A_2 C5A_2 1_555 1_555
H5B_2 C5B_2 1_555 1_555
H5_2 C5_2 1_555 1_555
H6A C5A 1_555 1_555
H6B C5B 1_555 1_555
H6A_2 C5A_2 1_555 1_555
H6B_2 C5B_2 1_555 1_555
H6_2 C5_2 1_555 1_555
Cd2O I1O 1_555 1_555
Cd2O I1B 1_555 1_555
N3B C3B 1_555 1_555
N3A_2 C2A_2 1_555 1_555
C3B C5B 1_555 1_555
C3A C4B 1_555 1_555
C3A C4A 1_555 1_555
C3A C5A 1_555 1_555
C3_2 C4A_2 1_555 1_555
C3_2 C5_2 1_555 1_555
C3B_2 C4_2 1_555 1_555
C3B_2 C4B_2 1_555 1_555
C3B_2 C5B_2 1_555 1_555

#END
