
#######################################################################
#
#                 Cambridge Crystallographic Data Centre
#                                CCDC 
#
#######################################################################
#
# If this CIF has been generated from an entry in the Cambridge 
# Structural Database, then it will include bibliographic, chemical, 
# crystal, experimental, refinement or atomic coordinate data resulting 
# from the CCDC's data processing and validation procedures.
#
#######################################################################

data_KEHFAG
_symmetry_cell_setting           rhombohedral
_symmetry_space_group_name_H-M   'R -3 c'
_symmetry_Int_Tables_number      167
_space_group_name_Hall           '-R 3 2"c'
loop_
_symmetry_equiv_pos_site_id
_symmetry_equiv_pos_as_xyz
1 x,y,z
2 -y,x-y,z
3 -x+y,-x,z
4 y,x,1/2-z
5 x-y,-y,1/2-z
6 -x,-x+y,1/2-z
7 2/3+x,1/3+y,1/3+z
8 2/3-y,1/3+x-y,1/3+z
9 2/3-x+y,1/3-x,1/3+z
10 2/3+y,1/3+x,5/6-z
11 2/3+x-y,1/3-y,5/6-z
12 2/3-x,1/3-x+y,5/6-z
13 1/3+x,2/3+y,2/3+z
14 1/3-y,2/3+x-y,2/3+z
15 1/3-x+y,2/3-x,2/3+z
16 1/3+y,2/3+x,1/6-z
17 1/3+x-y,2/3-y,1/6-z
18 1/3-x,2/3-x+y,1/6-z
19 -x,-y,-z
20 y,-x+y,-z
21 x-y,x,-z
22 -y,-x,1/2+z
23 -x+y,y,1/2+z
24 x,x-y,1/2+z
25 1/3-x,2/3-y,2/3-z
26 1/3+y,2/3-x+y,2/3-z
27 1/3+x-y,2/3+x,2/3-z
28 1/3-y,2/3-x,1/6+z
29 1/3-x+y,2/3+y,1/6+z
30 1/3+x,2/3+x-y,1/6+z
31 2/3-x,1/3-y,1/3-z
32 2/3+y,1/3-x+y,1/3-z
33 2/3+x-y,1/3+x,1/3-z
34 2/3-y,1/3-x,5/6+z
35 2/3-x+y,1/3+y,5/6+z
36 2/3+x,1/3+x-y,5/6+z
_cell_length_a                   11.3552(11)
_cell_length_b                   11.3552(11)
_cell_length_c                   54.979(3)
_cell_angle_alpha                90
_cell_angle_beta                 90
_cell_angle_gamma                120
_cell_volume                     6139.27
loop_
_atom_site_label
_atom_site_type_symbol
_atom_site_fract_x
_atom_site_fract_y
_atom_site_fract_z
Cl1 Cl 0.6667(3) 0.5385(2) 0.0834
Cd2 Cd 0.6666 0.3334 0.07127(2)
Cl2 Cl 0.6666 0.3333 0.02680(13)
Cl1O Cl 0.8718(2) 0.3334(3) 0.0833
Cl1A Cl 0.4615(2) 0.1282(4) 0.0834
Cd2O Cd 0.6667 0.3333 0.09540(2)
Cl2O Cl 0.6666 0.3333 0.13987(13)
O1 O 0.4853(15) 0.1492(15) 0.0189(2)
H8 H 0.4223 0.1701 0.0184
H9 H 0.4973 0.1403 0.0343
Cd1 Cd 0.0000 -1.0000 0.0000
N1 N -0.0395(4) -0.8522(3) -0.02365(6)
N2 N 0.0626(6) -0.7283(4) -0.03056(8)
N3 N -0.1316(4) -0.7426(3) -0.03978(6)
C1 C -0.1542(6) -0.8595(4) -0.02933(8)
H1 H -0.2415 -0.9363 -0.0265
C2 C 0.0046(6) -0.6664(4) -0.04013(10)
H2 H 0.0528 -0.5771 -0.0467
C3 C -0.2308(6) -0.7054(4) -0.04890(7)
C4 C -0.1914(6) -0.5636(4) -0.03964(7)
H3 H -0.0993 -0.4967 -0.0455
H4 H -0.1901 -0.5626 -0.0216
C5 C -0.2313(6) -0.7069(4) -0.07685(7)
H5 H -0.2571 -0.7990 -0.0828
H6 H -0.1395 -0.6422 -0.0831
C6 C -0.3333 -0.6667 -0.08590(12)
H7 H -0.3333 -0.6667 -0.1041
Cd1_2 Cd 0.0000 0.0000 0.0000
Cd1_3 Cd -1.0000 -1.0000 0.0000
Cd1_4 Cd -1.0000 -2.0000 0.0000
Cd1_5 Cd 0.0000 -2.0000 0.0000
N1A N -0.1478(3) -0.1873(5) -0.02365(6)
N1B N -0.8127(5) -0.9605(4) -0.02365(6)
N1A_2 N -0.1478(3) -1.1873(5) -0.02365(6)
N1B_2 N -0.8127(5) -1.9605(4) -0.02365(6)
N1_2 N -0.0395(4) -1.8522(3) -0.02365(6)
N1B_3 N 0.1873(5) -0.9605(4) -0.02365(6)
N1R N 0.0395(4) -1.1478(3) 0.02365(6)
N1S N 0.1478(3) -0.8127(5) 0.02365(6)
N1T N -0.1873(5) -1.0395(4) 0.02365(6)
N2A N -0.2717(4) -0.2091(7) -0.03056(8)
N2B N -0.7909(7) -1.0626(6) -0.03056(8)
N2A_2 N -0.2717(4) -1.2091(7) -0.03056(8)
N2B_2 N -0.7909(7) -2.0626(6) -0.03056(8)
N2_2 N 0.0626(6) -1.7283(4) -0.03056(8)
N3A N -0.2574(3) -0.3890(5) -0.03978(6)
N3B N -0.6110(5) -0.8684(4) -0.03978(6)
N3A_2 N -0.2574(3) -1.3890(5) -0.03978(6)
N3B_2 N -0.6110(5) -1.8684(4) -0.03978(6)
N3_2 N -0.1316(4) -1.7426(3) -0.03978(6)
C1A C -0.1405(4) -0.2947(7) -0.02933(8)
C1B C -0.7053(7) -0.8458(6) -0.02933(8)
C1A_2 C -0.1405(4) -1.2947(7) -0.02933(8)
C1B_2 C -0.7053(7) -1.8458(6) -0.02933(8)
C1_2 C -0.1542(6) -1.8595(4) -0.02933(8)
H1A H -0.0637 -0.3052 -0.0265
H1B H -0.6948 -0.7585 -0.0265
H1A_2 H -0.0637 -1.3052 -0.0265
H1B_2 H -0.6948 -1.7585 -0.0265
H1_2 H -0.2415 -1.9363 -0.0265
C2A C -0.3336(4) -0.3290(7) -0.04013(10)
C2B C -0.6710(7) -1.0046(6) -0.04013(10)
C2A_2 C -0.3336(4) -1.3290(7) -0.04013(10)
C2B_2 C -0.6710(7) -2.0046(6) -0.04013(10)
C2_2 C 0.0046(6) -1.6664(4) -0.04013(10)
H2A H -0.4229 -0.3701 -0.0467
H2B H -0.6299 -1.0528 -0.0467
H2A_2 H -0.4229 -1.3701 -0.0467
H2B_2 H -0.6299 -2.0528 -0.0467
H2_2 H 0.0528 -1.5771 -0.0467
C3A C -0.2946(4) -0.5254(7) -0.04890(7)
C3B C -0.4746(7) -0.7692(6) -0.04890(7)
C3A_2 C -0.2946(4) -1.5254(7) -0.04890(7)
C3B_2 C -0.4746(7) -1.7692(6) -0.04890(7)
C3_2 C -0.2308(6) -1.7054(4) -0.04890(7)
C4A C -0.4364(4) -0.6278(7) -0.03964(7)
C4B C -0.3722(7) -0.8086(6) -0.03964(7)
C4A_2 C -0.4364(4) -1.6278(7) -0.03964(7)
C4B_2 C -0.3722(7) -1.8086(6) -0.03964(7)
C4_2 C -0.1914(6) -1.5636(4) -0.03964(7)
H3B H -0.3974 -0.9007 -0.0455
H3A H -0.5033 -0.6026 -0.0455
H3A_2 H -0.5033 -1.6026 -0.0455
H3_2 H -0.0993 -1.4967 -0.0455
H3B_2 H -0.3974 -1.9007 -0.0455
H4B H -0.3725 -0.8099 -0.0216
H4A H -0.4374 -0.6275 -0.0216
H4A_2 H -0.4374 -1.6275 -0.0216
H4_2 H -0.1901 -1.5626 -0.0216
H4B_2 H -0.3725 -1.8099 -0.0216
C5B C -0.4756(7) -0.7687(6) -0.07685(7)
C5A C -0.2931(4) -0.5244(7) -0.07685(7)
C5A_2 C -0.2931(4) -1.5244(7) -0.07685(7)
C5_2 C -0.2313(6) -1.7069(4) -0.07685(7)
C5B_2 C -0.4756(7) -1.7687(6) -0.07685(7)
H5B H -0.5419 -0.7429 -0.0828
H5A H -0.2010 -0.4581 -0.0828
H5A_2 H -0.2010 -1.4581 -0.0828
H5_2 H -0.2571 -1.7990 -0.0828
H5B_2 H -0.5419 -1.7429 -0.0828
H6B H -0.5027 -0.8605 -0.0831
H6A H -0.3578 -0.4973 -0.0831
H6A_2 H -0.3578 -1.4973 -0.0831
H6_2 H -0.1395 -1.6422 -0.0831
H6B_2 H -0.5027 -1.8605 -0.0831
C6A C -0.3333 -1.6666 -0.08590(12)
H7A H -0.3333 -1.6666 -0.1041
loop_
_geom_bond_atom_site_label_1
_geom_bond_atom_site_label_2
_geom_bond_site_symmetry_1
_geom_bond_site_symmetry_2
Cd1 N1 1_555 1_555
Cl1 Cd2 1_555 1_555
Cd2 Cl2 1_555 1_555
N1 N2 1_555 1_555
N2 C2 1_555 1_555
N3 C1 1_555 1_555
C1 N1 1_555 1_555
H1 C1 1_555 1_555
C2 N3 1_555 1_555
H2 C2 1_555 1_555
C3 N3 1_555 1_555
C4 C3 1_555 1_555
H3 C4 1_555 1_555
H4 C4 1_555 1_555
C5 C3 1_555 1_555
H5 C5 1_555 1_555
H6 C5 1_555 1_555
C6 C5 1_555 1_555
H7 C6 1_555 1_555
O1 H8 1_555 1_555
H9 O1 1_555 1_555
Cd1_2 N1A 1_555 1_555
Cd1_3 N1B 1_555 1_555
Cd1_4 N1B_2 1_555 1_555
Cd1_5 N1_2 1_555 1_555
Cl1O Cd2 1_555 1_555
Cl1A Cd2 1_555 1_555
Cd2O Cl1 1_555 1_555
Cl2O Cd2O 1_555 1_555
N1A N2A 1_555 1_555
N1B N2B 1_555 1_555
N1A_2 Cd1 1_555 1_555
N1B_2 N2B_2 1_555 1_555
N1_2 N2_2 1_555 1_555
N1B_3 Cd1 1_555 1_555
N1R Cd1 1_555 1_555
N1S Cd1 1_555 1_555
N1T Cd1 1_555 1_555
N2A C2A 1_555 1_555
N2B C2B 1_555 1_555
N2A_2 N1A_2 1_555 1_555
N2B_2 C2B_2 1_555 1_555
N2_2 C2_2 1_555 1_555
N3A C1A 1_555 1_555
N3B C1B 1_555 1_555
N3A_2 C1A_2 1_555 1_555
N3B_2 C1B_2 1_555 1_555
N3_2 C1_2 1_555 1_555
C1A N1A 1_555 1_555
C1B N1B 1_555 1_555
C1A_2 N1A_2 1_555 1_555
C1B_2 N1B_2 1_555 1_555
C1_2 N1_2 1_555 1_555
H1A C1A 1_555 1_555
H1B C1B 1_555 1_555
H1A_2 C1A_2 1_555 1_555
H1B_2 C1B_2 1_555 1_555
H1_2 C1_2 1_555 1_555
C2A N3A 1_555 1_555
C2B N3B 1_555 1_555
C2A_2 N2A_2 1_555 1_555
C2B_2 N3B_2 1_555 1_555
C2_2 N3_2 1_555 1_555
H2A C2A 1_555 1_555
H2B C2B 1_555 1_555
H2A_2 C2A_2 1_555 1_555
H2B_2 C2B_2 1_555 1_555
H2_2 C2_2 1_555 1_555
C3A C4 1_555 1_555
C3B N3B 1_555 1_555
C3A_2 N3A_2 1_555 1_555
C3B_2 N3B_2 1_555 1_555
C3_2 N3_2 1_555 1_555
C4A C3A 1_555 1_555
C4B C3 1_555 1_555
C4A_2 C3A_2 1_555 1_555
C4B_2 C3B_2 1_555 1_555
C4_2 C3A_2 1_555 1_555
H3B C4B 1_555 1_555
H3A C4A 1_555 1_555
H3A_2 C4A_2 1_555 1_555
H3_2 C4_2 1_555 1_555
H3B_2 C4B_2 1_555 1_555
H4B C4B 1_555 1_555
H4A C4A 1_555 1_555
H4A_2 C4A_2 1_555 1_555
H4_2 C4_2 1_555 1_555
H4B_2 C4B_2 1_555 1_555
C5B C6 1_555 1_555
C5A C6 1_555 1_555
C5A_2 C3A_2 1_555 1_555
C5_2 C3_2 1_555 1_555
C5B_2 C3B_2 1_555 1_555
H5B C5B 1_555 1_555
H5A C5A 1_555 1_555
H5A_2 C5A_2 1_555 1_555
H5_2 C5_2 1_555 1_555
H5B_2 C5B_2 1_555 1_555
H6B C5B 1_555 1_555
H6A C5A 1_555 1_555
H6A_2 C5A_2 1_555 1_555
H6_2 C5_2 1_555 1_555
H6B_2 C5B_2 1_555 1_555
C6A C5A_2 1_555 1_555
H7A C6A 1_555 1_555
Cd2 Cd2O 1_555 1_555
Cl1O Cd2O 1_555 1_555
Cl1A Cd2O 1_555 1_555
N3A C3A 1_555 1_555
N3A_2 C2A_2 1_555 1_555
C3A C5A 1_555 1_555
C3B C4A 1_555 1_555
C3B C4B 1_555 1_555
C3B C5B 1_555 1_555
C3B_2 C4A_2 1_555 1_555
C3_2 C4B_2 1_555 1_555
C3_2 C4_2 1_555 1_555
C5_2 C6A 1_555 1_555
C5B_2 C6A 1_555 1_555

#END
