
#######################################################################
#
#                 Cambridge Crystallographic Data Centre
#                                CCDC 
#
#######################################################################
#
# If this CIF has been generated from an entry in the Cambridge 
# Structural Database, then it will include bibliographic, chemical, 
# crystal, experimental, refinement or atomic coordinate data resulting 
# from the CCDC's data processing and validation procedures.
#
#######################################################################

data_KEHGAH
_symmetry_cell_setting           hexagonal
_symmetry_space_group_name_H-M   'P 63/m'
_symmetry_Int_Tables_number      176
_space_group_name_Hall           '-P 6c'
loop_
_symmetry_equiv_pos_site_id
_symmetry_equiv_pos_as_xyz
1 x,y,z
2 -x,-y,1/2+z
3 -y,x-y,z
4 -x+y,-x,z
5 x-y,x,1/2+z
6 y,-x+y,1/2+z
7 -x,-y,-z
8 x,y,1/2-z
9 y,-x+y,-z
10 x-y,x,-z
11 -x+y,-x,1/2-z
12 -y,x-y,1/2-z
_cell_length_a                   18.5633(17)
_cell_length_b                   18.5633(17)
_cell_length_c                   14.3967(13)
_cell_angle_alpha                90
_cell_angle_beta                 90
_cell_angle_gamma                120
_cell_volume                     4296.39
loop_
_atom_site_label
_atom_site_type_symbol
_atom_site_fract_x
_atom_site_fract_y
_atom_site_fract_z
Cd1 Cd 0.6667 0.3333 0.60354(4)
N1 N 0.5546(3) 0.2353(3) 0.5188(3)
N2 N 0.4862(4) 0.1756(3) 0.5705(3)
N3 N 0.4581(3) 0.1473(3) 0.4204(3)
N4 N 0.3440(3) -0.2275(3) 0.2974(3)
N5 N 0.3590(5) -0.1102(4) 0.2500
N6 N 0.2869(6) 0.0466(6) 0.2500
C1 C 0.5360(5) 0.2182(4) 0.4312(4)
H1 H 0.5710 0.2499 0.3813
C2 C 0.4326(5) 0.1266(5) 0.5098(4)
H2 H 0.3802 0.0804 0.5262
C3 C 0.3519(4) -0.1571(4) 0.3221(4)
H3 H 0.3525 -0.1410 0.3849
C4 C 0.4169(4) 0.1035(4) 0.3362(4)
C5 C 0.4123(4) 0.0205(3) 0.3362(3)
H4 H 0.3830 -0.0111 0.3926
H5 H 0.4690 0.0282 0.3362
C6 C 0.3656(6) -0.0268(5) 0.2500
C7 C 0.3299(5) 0.0932(5) 0.3338(4)
H6 H 0.2983 0.0628 0.3898
H7 H 0.3340 0.1485 0.3332
C8 C 0.4680(6) 0.1579(5) 0.2500
H8 H 0.4705 0.2125 0.2500
H9 H 0.5254 0.1672 0.2500
C9 C 0.2790(6) -0.0368(6) 0.2500
H10 H 0.2480 -0.0682 0.1942
Cd1G Cd 0.6667 0.3333 -0.10354(4)
Cd1F Cd 0.3333 -0.3333 0.39646(4)
Cd1A Cd 0.3333 -0.3333 0.10354(4)
Cd1H Cd 1.3333 0.6666 0.39646(4)
Cd1E Cd 1.3333 0.6666 0.10354(4)
Cd1I Cd 0.3334 0.6667 0.39646(4)
Cd1D Cd 0.3334 0.6667 0.10354(4)
N1G N 0.5546(3) 0.2353(3) -0.0188(3)
N1B N 0.7647(3) 0.3193(4) 0.5188(3)
N1K N 0.7647(3) 0.3193(4) -0.0188(3)
N1C N 0.6807(4) 0.4454(3) 0.5188(3)
N1J N 0.6807(4) 0.4454(3) -0.0188(3)
N2G N 0.4862(4) 0.1756(3) -0.0705(3)
N2B N 0.8244(3) 0.3106(5) 0.5705(3)
N2K N 0.8244(3) 0.3106(5) -0.0705(3)
N2C N 0.6894(5) 0.5138(4) 0.5705(3)
N2J N 0.6894(5) 0.5138(4) -0.0705(3)
N3G N 0.4581(3) 0.1473(3) 0.0796(3)
N3B N 0.8527(3) 0.3108(4) 0.4204(3)
N3K N 0.8527(3) 0.3108(4) 0.0796(3)
N3C N 0.6892(4) 0.5419(3) 0.4204(3)
N3J N 0.6892(4) 0.5419(3) 0.0796(3)
N4G N 0.3440(3) -0.2275(3) 0.2026(3)
N4B N 1.2275(3) 0.5715(4) 0.2974(3)
N4K N 1.2275(3) 0.5715(4) 0.2026(3)
N4C N 0.4285(4) 0.6560(3) 0.2974(3)
N4J N 0.4285(4) 0.6560(3) 0.2026(3)
N4F N 0.6560(3) 0.2275(3) 0.7026(3)
N4H N 0.7725(3) 0.4285(4) 0.7026(3)
N4I N 0.5715(4) 0.3440(3) 0.7026(3)
N4A N 0.6560(3) 0.2275(3) -0.2026(3)
N4E N 0.7725(3) 0.4285(4) -0.2026(3)
N4D N 0.5715(4) 0.3440(3) -0.2026(3)
N5B N 1.1102(4) 0.4692(6) 0.2500
N5C N 0.5308(6) 0.6410(5) 0.2500
N6B N 0.9534(6) 0.2403(8) 0.2500
N6C N 0.7597(8) 0.7131(6) 0.2500
C1G C 0.5360(5) 0.2182(4) 0.0688(4)
C1B C 0.7818(4) 0.3178(6) 0.4312(4)
C1K C 0.7818(4) 0.3178(6) 0.0688(4)
C1C C 0.6822(6) 0.4640(5) 0.4312(4)
C1J C 0.6822(6) 0.4640(5) 0.0688(4)
H1G H 0.5710 0.2499 0.1187
H1B H 0.7501 0.3211 0.3813
H1K H 0.7501 0.3211 0.1187
H1C H 0.6789 0.4290 0.3813
H1J H 0.6789 0.4290 0.1187
C2G C 0.4326(5) 0.1266(5) -0.0098(4)
C2B C 0.8734(5) 0.3060(7) 0.5098(4)
C2K C 0.8734(5) 0.3060(7) -0.0098(4)
C2C C 0.6940(7) 0.5674(5) 0.5098(4)
C2J C 0.6940(7) 0.5674(5) -0.0098(4)
H2G H 0.3802 0.0804 -0.0262
H2B H 0.9196 0.2998 0.5262
H2K H 0.9196 0.2998 -0.0262
H2C H 0.7002 0.6198 0.5262
H2J H 0.7002 0.6198 -0.0262
C3G C 0.3519(4) -0.1571(4) 0.1779(4)
C3B C 1.1571(4) 0.5090(6) 0.3221(4)
C3K C 1.1571(4) 0.5090(6) 0.1779(4)
C3C C 0.4910(6) 0.6481(4) 0.3221(4)
C3J C 0.4910(6) 0.6481(4) 0.1779(4)
H3G H 0.3525 -0.1410 0.1151
H3B H 1.1410 0.4935 0.3849
H3K H 1.1410 0.4935 0.1151
H3C H 0.5065 0.6475 0.3849
H3J H 0.5065 0.6475 0.1151
C4G C 0.4169(4) 0.1035(4) 0.1638(4)
C4B C 0.8965(4) 0.3134(6) 0.3362(4)
C4K C 0.8965(4) 0.3134(6) 0.1638(4)
C4C C 0.6866(6) 0.5831(4) 0.3362(4)
C4J C 0.6866(6) 0.5831(4) 0.1638(4)
C5G C 0.4123(4) 0.0205(3) 0.1638(3)
C5B C 0.9795(3) 0.3918(5) 0.3362(3)
C5K C 0.9795(3) 0.3918(5) 0.1638(3)
C5C C 0.6082(5) 0.5877(4) 0.3362(3)
C5J C 0.6082(5) 0.5877(4) 0.1638(3)
H4G H 0.3830 -0.0111 0.1074
H4B H 1.0111 0.3941 0.3926
H4K H 1.0111 0.3941 0.1074
H4C H 0.6059 0.6170 0.3926
H4J H 0.6059 0.6170 0.1074
H5G H 0.4690 0.0282 0.1638
H5B H 0.9718 0.4408 0.3362
H5K H 0.9718 0.4408 0.1638
H5C H 0.5592 0.5310 0.3362
H5J H 0.5592 0.5310 0.1638
C6B C 1.0268(5) 0.3924(8) 0.2500
C6C C 0.6076(8) 0.6344(6) 0.2500
C7G C 0.3299(5) 0.0932(5) 0.1662(4)
C7B C 0.9068(5) 0.2367(7) 0.3338(4)
C7K C 0.9068(5) 0.2367(7) 0.1662(4)
C7C C 0.7633(7) 0.6701(5) 0.3338(4)
C7J C 0.7633(7) 0.6701(5) 0.1662(4)
H6G H 0.2983 0.0628 0.1102
H6B H 0.9372 0.2355 0.3898
H6K H 0.9372 0.2355 0.1102
H6C H 0.7645 0.7017 0.3898
H6J H 0.7645 0.7017 0.1102
H7G H 0.3340 0.1485 0.1668
H7B H 0.8515 0.1855 0.3332
H7K H 0.8515 0.1855 0.1668
H7C H 0.8145 0.6660 0.3332
H7J H 0.8145 0.6660 0.1668
C8B C 0.8421(5) 0.3101(8) 0.2500
C8C C 0.6899(8) 0.5320(6) 0.2500
H8B H 0.7875 0.2580 0.2500
H8C H 0.7420 0.5295 0.2500
H9B H 0.8328 0.3582 0.2500
H9C H 0.6418 0.4746 0.2500
C9B C 1.0368(6) 0.3158(8) 0.2500
C9C C 0.6842(8) 0.7210(6) 0.2500
H10G H 0.2480 -0.0682 0.3058
H10B H 1.0682 0.3162 0.1942
H10K H 1.0682 0.3162 0.3058
H10C H 0.6838 0.7520 0.1942
H10J H 0.6838 0.7520 0.3058
Cl1 Cl 0.6667 0.3333 0.2500
O1 O 0.442(3) 0.112(3) 0.7500
O2? O 0.416(2) 0.147(2) 0.7500
loop_
_geom_bond_atom_site_label_1
_geom_bond_atom_site_label_2
_geom_bond_site_symmetry_1
_geom_bond_site_symmetry_2
Cd1 N1 1_555 1_555
N1 N2 1_555 1_555
N2 C2 1_555 1_555
N3 C1 1_555 1_555
N4 C3 1_555 1_555
N5 C3 1_555 1_555
N6 C7 1_555 1_555
C1 N1 1_555 1_555
H1 C1 1_555 1_555
C2 N3 1_555 1_555
H2 C2 1_555 1_555
C3 H3 1_555 1_555
C4 N3 1_555 1_555
C5 C4 1_555 1_555
H4 C5 1_555 1_555
H5 C5 1_555 1_555
C6 N5 1_555 1_555
C7 C4 1_555 1_555
H6 C7 1_555 1_555
H7 C7 1_555 1_555
C8 C4 1_555 1_555
H8 C8 1_555 1_555
H9 C8 1_555 1_555
C9 N6 1_555 1_555
H10 C9 1_555 1_555
Cd1G N1G 1_555 1_555
Cd1F N4 1_555 1_555
Cd1A N4G 1_555 1_555
Cd1H N4B 1_555 1_555
Cd1E N4K 1_555 1_555
Cd1I N4C 1_555 1_555
Cd1D N4J 1_555 1_555
N1G N2G 1_555 1_555
N1B Cd1 1_555 1_555
N1K Cd1G 1_555 1_555
N1C Cd1 1_555 1_555
N1J Cd1G 1_555 1_555
N2G C2G 1_555 1_555
N2B N1B 1_555 1_555
N2K N1K 1_555 1_555
N2C N1C 1_555 1_555
N2J N1J 1_555 1_555
N3G C1G 1_555 1_555
N3B C1B 1_555 1_555
N3K C1K 1_555 1_555
N3C C1C 1_555 1_555
N3J C1J 1_555 1_555
N4G N4 1_555 1_555
N4B N4K 1_555 1_555
N4K C3K 1_555 1_555
N4C N4J 1_555 1_555
N4J C3J 1_555 1_555
N4F Cd1 1_555 1_555
N4H Cd1 1_555 1_555
N4I Cd1 1_555 1_555
N4A Cd1G 1_555 1_555
N4E Cd1G 1_555 1_555
N4D Cd1G 1_555 1_555
N5B C3B 1_555 1_555
N5C C3C 1_555 1_555
N6B C7B 1_555 1_555
N6C C7C 1_555 1_555
C1G N1G 1_555 1_555
C1B N1B 1_555 1_555
C1K N1K 1_555 1_555
C1C N1C 1_555 1_555
C1J N1J 1_555 1_555
H1G C1G 1_555 1_555
H1B C1B 1_555 1_555
H1K C1K 1_555 1_555
H1C C1C 1_555 1_555
H1J C1J 1_555 1_555
C2G N3G 1_555 1_555
C2B N2B 1_555 1_555
C2K N2K 1_555 1_555
C2C N2C 1_555 1_555
C2J N2J 1_555 1_555
H2G C2G 1_555 1_555
H2B C2B 1_555 1_555
H2K C2K 1_555 1_555
H2C C2C 1_555 1_555
H2J C2J 1_555 1_555
C3G N5 1_555 1_555
C3B N4B 1_555 1_555
C3K N5B 1_555 1_555
C3C N4C 1_555 1_555
C3J N5C 1_555 1_555
H3G C3G 1_555 1_555
H3B C3B 1_555 1_555
H3K C3K 1_555 1_555
H3C C3C 1_555 1_555
H3J C3J 1_555 1_555
C4G C8 1_555 1_555
C4B N3B 1_555 1_555
C4K N3K 1_555 1_555
C4C N3C 1_555 1_555
C4J N3J 1_555 1_555
C5G C6 1_555 1_555
C5B C4B 1_555 1_555
C5K C4K 1_555 1_555
C5C C4C 1_555 1_555
C5J C4J 1_555 1_555
H4G C5G 1_555 1_555
H4B C5B 1_555 1_555
H4K C5K 1_555 1_555
H4C C5C 1_555 1_555
H4J C5J 1_555 1_555
H5G C5G 1_555 1_555
H5B C5B 1_555 1_555
H5K C5K 1_555 1_555
H5C C5C 1_555 1_555
H5J C5J 1_555 1_555
C6B N5B 1_555 1_555
C6C N5C 1_555 1_555
C7G N6 1_555 1_555
C7B C4B 1_555 1_555
C7K N6B 1_555 1_555
C7C C4C 1_555 1_555
C7J N6C 1_555 1_555
H6G C7G 1_555 1_555
H6B C7B 1_555 1_555
H6K C7K 1_555 1_555
H6C C7C 1_555 1_555
H6J C7J 1_555 1_555
H7G C7G 1_555 1_555
H7B C7B 1_555 1_555
H7K C7K 1_555 1_555
H7C C7C 1_555 1_555
H7J C7J 1_555 1_555
C8B C4B 1_555 1_555
C8C C4C 1_555 1_555
H8B C8B 1_555 1_555
H8C C8C 1_555 1_555
H9B C8B 1_555 1_555
H9C C8C 1_555 1_555
C9B N6B 1_555 1_555
C9C N6C 1_555 1_555
H10G C9 1_555 1_555
H10B C9B 1_555 1_555
H10K C9B 1_555 1_555
H10C C9C 1_555 1_555
H10J C9C 1_555 1_555
C5 C6 1_555 1_555
C6 C9 1_555 1_555
N3G C4G 1_555 1_555
N3B C2B 1_555 1_555
N3K C2K 1_555 1_555
N3C C2C 1_555 1_555
N3J C2J 1_555 1_555
N4G C3G 1_555 1_555
C4G C5G 1_555 1_555
C4G C7G 1_555 1_555
C4K C7K 1_555 1_555
C4K C8B 1_555 1_555
C4J C7J 1_555 1_555
C4J C8C 1_555 1_555
C5B C6B 1_555 1_555
C5K C6B 1_555 1_555
C5C C6C 1_555 1_555
C5J C6C 1_555 1_555
C6B C9B 1_555 1_555
C6C C9C 1_555 1_555

#END
