
#######################################################################
#
#                 Cambridge Crystallographic Data Centre
#                                CCDC 
#
#######################################################################
#
# If this CIF has been generated from an entry in the Cambridge 
# Structural Database, then it will include bibliographic, chemical, 
# crystal, experimental, refinement or atomic coordinate data resulting 
# from the CCDC's data processing and validation procedures.
#
#######################################################################

data_KEHTIB
_symmetry_cell_setting           monoclinic
_symmetry_space_group_name_H-M   'P 21/c'
_symmetry_Int_Tables_number      14
_space_group_name_Hall           '-P 2ybc'
loop_
_symmetry_equiv_pos_site_id
_symmetry_equiv_pos_as_xyz
1 x,y,z
2 -x,1/2+y,1/2-z
3 -x,-y,-z
4 x,1/2-y,1/2+z
_cell_length_a                   10.0905(8)
_cell_length_b                   21.1785(17)
_cell_length_c                   14.1137(11)
_cell_angle_alpha                90
_cell_angle_beta                 109.0350(10)
_cell_angle_gamma                90
_cell_volume                     2851.2
loop_
_atom_site_label
_atom_site_type_symbol
_atom_site_fract_x
_atom_site_fract_y
_atom_site_fract_z
Mo1 Mo 0.18599(3) 0.371126(11) 0.564992(16)
Rb1 Rb 0.23884(3) 0.281156(14) 0.84283(2)
Rb2 Rb -0.11899(4) 0.429426(14) 0.37225(2)
S1 S -0.49729(13) 0.37760(6) 0.37843(10)
O1 O -0.0171(2) 0.34986(9) 0.54551(13)
O2 O 0.1874(2) 0.38652(8) 0.71113(13)
O3 O 0.22118(19) 0.28472(8) 0.63594(13)
O4 O 0.3914(2) 0.38004(11) 0.62651(14)
O5 O 0.1845(2) 0.33859(10) 0.45292(14)
O6 O 0.1505(3) 0.44988(10) 0.53495(16)
O7 O -0.3918(3) 0.38694(14) 0.3255(2)
C1 C 0.1704(4) 0.43770(12) 0.7605(2)
C2 C 0.2889(4) 0.47537(14) 0.8092(2)
C3 C 0.2695(5) 0.52532(15) 0.8682(2)
H1 H 0.3465 0.5510 0.9018
C4 C 0.1430(5) 0.53793(16) 0.8785(3)
H2 H 0.1348 0.5703 0.9219
C5 C 0.0265(5) 0.50352(15) 0.8257(2)
H3 H -0.0613 0.5139 0.8312
C6 C 0.0370(4) 0.45325(13) 0.7638(2)
C7 C -0.0537(3) 0.31666(13) 0.61567(19)
C8 C -0.0875(3) 0.34879(13) 0.6919(2)
C9 C -0.1212(3) 0.31385(14) 0.7642(2)
H4 H -0.1611 0.3358 0.8106
C10 C -0.1190(3) 0.24856(14) 0.7634(2)
H5 H -0.1595 0.2246 0.8076
C11 C -0.0855(3) 0.21753(13) 0.6880(2)
H6 H -0.0968 0.1711 0.6821
C12 C -0.0532(3) 0.25066(13) 0.61333(18)
C13 C 0.2428(3) 0.22841(13) 0.60191(18)
C14 C 0.1272(3) 0.18887(13) 0.55651(19)
C15 C 0.1512(4) 0.12815(14) 0.5284(2)
H7 H 0.0750 0.1013 0.4982
C16 C 0.2871(4) 0.10695(16) 0.5446(2)
H8 H 0.3027 0.0653 0.5277
C17 C 0.3981(4) 0.14663(17) 0.5851(2)
H9 H 0.4895 0.1320 0.5946
C18 C 0.3786(3) 0.20819(15) 0.6126(2)
C19 C 0.4628(3) 0.35806(16) 0.7199(2)
C20 C 0.5148(3) 0.29668(17) 0.7333(2)
C21 C 0.5841(3) 0.27546(19) 0.8296(2)
H10 H 0.6340 0.2345 0.8389
C22 C 0.6013(3) 0.3143(2) 0.9119(2)
H11 H 0.6648 0.3012 0.9786
C23 C 0.5520(4) 0.37445(19) 0.8974(2)
H12 H 0.5759 0.4035 0.9556
C24 C 0.4804(4) 0.39853(16) 0.8026(2)
C25 C -0.0904(4) 0.42018(14) 0.6961(2)
H13 H -0.1079 0.4362 0.6280
H14 H -0.1706 0.4325 0.7166
C26 C -0.0187(3) 0.21543(13) 0.53135(19)
H15 H -0.0853 0.1805 0.5094
H16 H -0.0345 0.2441 0.4742
C27 C 0.5006(3) 0.25390(18) 0.6435(2)
H17 H 0.4942 0.2809 0.5857
H18 H 0.5873 0.2293 0.6579
C28 C 0.4249(4) 0.46452(16) 0.7903(3)
H19 H 0.4134 0.4782 0.7218
H20 H 0.4960 0.4919 0.8357
C29 C -0.6402(6) 0.4273(3) 0.3233(4)
H21 H -0.7244 0.4089 0.3306
H22 H -0.6523 0.4325 0.2527
H23 H -0.6233 0.4682 0.3561
C30 C -0.4219(6) 0.4151(4) 0.4940(4)
H24 H -0.4875 0.4146 0.5311
H25 H -0.3993 0.4584 0.4829
H26 H -0.3369 0.3930 0.5319
Rb1C Rb 0.23884(3) 0.218844(14) 0.34283(2)
Rb2B Rb 0.11899(4) 0.570574(14) 0.62775(2)
O5C O 0.1845(2) 0.16141(10) 0.95292(14)
O6B O -0.1505(3) 0.55012(10) 0.46505(16)
loop_
_geom_bond_atom_site_label_1
_geom_bond_atom_site_label_2
_geom_bond_site_symmetry_1
_geom_bond_site_symmetry_2
Mo1 O1 1_555 1_555
Rb1 O2 1_555 1_555
Rb2 O1 1_555 1_555
S1 O7 1_555 1_555
O1 C7 1_555 1_555
O2 Mo1 1_555 1_555
O3 Mo1 1_555 1_555
O4 Mo1 1_555 1_555
O5 Mo1 1_555 1_555
O6 Mo1 1_555 1_555
O7 Rb2 1_555 1_555
C1 O2 1_555 1_555
C2 C1 1_555 1_555
C3 C2 1_555 1_555
H1 C3 1_555 1_555
C4 C3 1_555 1_555
H2 C4 1_555 1_555
C5 C4 1_555 1_555
H3 C5 1_555 1_555
C6 C1 1_555 1_555
C7 C8 1_555 1_555
C8 C9 1_555 1_555
C9 H4 1_555 1_555
C10 C9 1_555 1_555
H5 C10 1_555 1_555
C11 C10 1_555 1_555
H6 C11 1_555 1_555
C12 C7 1_555 1_555
C13 O3 1_555 1_555
C14 C13 1_555 1_555
C15 C14 1_555 1_555
H7 C15 1_555 1_555
C16 C15 1_555 1_555
H8 C16 1_555 1_555
C17 C16 1_555 1_555
H9 C17 1_555 1_555
C18 C13 1_555 1_555
C19 O4 1_555 1_555
C20 C19 1_555 1_555
C21 C20 1_555 1_555
H10 C21 1_555 1_555
C22 C21 1_555 1_555
H11 C22 1_555 1_555
C23 C22 1_555 1_555
H12 C23 1_555 1_555
C24 C19 1_555 1_555
C25 C6 1_555 1_555
H13 C25 1_555 1_555
H14 C25 1_555 1_555
C26 C12 1_555 1_555
H15 C26 1_555 1_555
H16 C26 1_555 1_555
C27 C18 1_555 1_555
H17 C27 1_555 1_555
H18 C27 1_555 1_555
C28 C2 1_555 1_555
H19 C28 1_555 1_555
H20 C28 1_555 1_555
C29 S1 1_555 1_555
H21 C29 1_555 1_555
H22 C29 1_555 1_555
H23 C29 1_555 1_555
C30 S1 1_555 1_555
H24 C30 1_555 1_555
H25 C30 1_555 1_555
H26 C30 1_555 1_555
Rb1C O5 1_555 1_555
Rb2B O6 1_555 1_555
O5C Rb1 1_555 1_555
O6B Rb2 1_555 1_555
Rb1 O3 1_555 1_555
Rb2 O6 1_555 1_555
C5 C6 1_555 1_555
C8 C25 1_555 1_555
C11 C12 1_555 1_555
C14 C26 1_555 1_555
C17 C18 1_555 1_555
C20 C27 1_555 1_555
C23 C24 1_555 1_555
C24 C28 1_555 1_555
Rb2B O6B 1_555 1_555

#END
