
#######################################################################
#
#                 Cambridge Crystallographic Data Centre
#                                CCDC 
#
#######################################################################
#
# If this CIF has been generated from an entry in the Cambridge 
# Structural Database, then it will include bibliographic, chemical, 
# crystal, experimental, refinement or atomic coordinate data resulting 
# from the CCDC's data processing and validation procedures.
#
#######################################################################

data_KEHVOK
_symmetry_cell_setting           monoclinic
_symmetry_space_group_name_H-M   'C 2'
_symmetry_Int_Tables_number      5
_space_group_name_Hall           'C 2y'
loop_
_symmetry_equiv_pos_site_id
_symmetry_equiv_pos_as_xyz
1 x,y,z
2 -x,y,-z
3 1/2+x,1/2+y,z
4 1/2-x,1/2+y,-z
_cell_length_a                   12.847(3)
_cell_length_b                   22.558(5)
_cell_length_c                   10.458(2)
_cell_angle_alpha                90
_cell_angle_beta                 120.78(3)
_cell_angle_gamma                90
_cell_volume                     2603.84
loop_
_atom_site_label
_atom_site_type_symbol
_atom_site_fract_x
_atom_site_fract_y
_atom_site_fract_z
Cl1 Cl 0.5000 0.30601(9) 1.5000
O7 O 0.3941(11) 0.2740(6) 1.4709(9)
O8 O 0.4667(6) 0.3407(2) 1.3719(6)
O7A O 0.6059(11) 0.2740(6) 1.5291(9)
O8A O 0.5333(6) 0.3407(2) 1.6281(6)
Cl2 Cl 0.0000 0.02507(9) 1.0000
O9 O -0.0366(9) -0.0070(3) 0.8707(7)
O10 O 0.1268(14) 0.0299(8) 1.0277(17)
O9A O 0.0366(9) -0.0070(3) 1.1293(7)
O10A O -0.1268(14) 0.0299(8) 0.9723(17)
O12 O 0.0000 0.4096(12) 0.0000
C21 C 0.1623(11) 0.3475(5) 0.3095(13)
O13 O 0.0425(17) 0.3561(9) 0.191(2)
Mn1 Mn 0.25139(10) 0.16541(4) 0.74786(12)
Mn2 Mn 0.0000 0.21923(5) 0.5000
Na1 Na 0.5000 0.09824(14) 1.0000
N1 N 0.2896(5) 0.2499(3) 0.8159(7)
N2 N 0.2080(5) 0.0818(2) 0.6724(6)
O1 O 0.0957(4) 0.1803(2) 0.7203(5)
O2 O 0.3165(4) 0.14190(19) 0.9427(5)
O3 O 0.4005(4) 0.15204(18) 0.7672(5)
O4 O 0.1745(4) 0.19015(19) 0.5465(5)
O5 O 0.0049(7) 0.3064(2) 0.3984(7)
O6 O 0.4422(10) 0.0160(3) 1.0908(9)
C1 C 0.3441(7) 0.2858(3) 0.7631(8)
H1 H 0.3666 0.2707 0.6980
C2 C 0.3663(6) 0.3446(3) 0.8055(8)
H2 H 0.4008 0.3694 0.7663
C3 C 0.3375(8) 0.3660(3) 0.9044(10)
H3 H 0.3522 0.4055 0.9334
C4 C 0.2855(7) 0.3285(3) 0.9626(9)
H4 H 0.2660 0.3431 1.0309
C5 C 0.2629(6) 0.2698(3) 0.9198(7)
C6 C 0.2066(6) 0.2254(3) 0.9742(7)
C7 C 0.1783(7) 0.2497(4) 1.0891(9)
H5 H 0.1429 0.2190 1.1182
H6 H 0.1225 0.2821 1.0466
H7 H 0.2518 0.2633 1.1747
C8 C 0.0853(6) 0.2014(3) 0.8420(8)
H8 H 0.0564 0.1694 0.8776
H9 H 0.0254 0.2328 0.8067
C9 C 0.2949(7) 0.1738(4) 1.0445(7)
H10 H 0.3714 0.1890 1.1243
H11 H 0.2632 0.1466 1.0881
C10 C 0.1584(7) 0.0448(3) 0.7279(9)
H12 H 0.1420 0.0586 0.7996
C11 C 0.1321(11) -0.0121(4) 0.6808(11)
H13 H 0.0976 -0.0371 0.7198
C12 C 0.1570(10) -0.0332(4) 0.5732(13)
H14 H 0.1419 -0.0724 0.5412
C13 C 0.2053(8) 0.0068(3) 0.5160(9)
H15 H 0.2193 -0.0054 0.4411
C14 C 0.2323(6) 0.0630(3) 0.5669(8)
C15 C 0.2884(6) 0.1086(3) 0.5141(7)
C16 C 0.3123(6) 0.0837(3) 0.3951(8)
H16 H 0.3461 0.1143 0.3633
H17 H 0.2375 0.0701 0.3115
H18 H 0.3682 0.0512 0.4359
C17 C 0.4098(6) 0.1302(3) 0.6471(7)
H19 H 0.4671 0.0975 0.6822
H20 H 0.4421 0.1612 0.6130
C18 C 0.2017(6) 0.1618(3) 0.4463(7)
H21 H 0.2378 0.1906 0.4116
H22 H 0.1267 0.1483 0.3605
C19 C 0.0000 0.3351(5) 0.5000
C20 C 0.3548(15) 0.0039(5) 1.1101(16)
H23 H 0.3664 -0.0349 1.1531
H24 H 0.2802 0.0048 1.0160
H25 H 0.3517 0.0326 1.1757
C22 C 0.097(5) 0.446(2) 0.608(5)
C23 C 0.0000 0.4040(13) 0.5000
Mn1A Mn -0.25139(10) 0.16541(4) 0.25214(12)
Na1_2 Na -0.5000 0.09824(14) 0.0000
N1A N -0.2896(5) 0.2499(3) 0.1841(7)
N2A N -0.2080(5) 0.0818(2) 0.3276(6)
O1A O -0.0957(4) 0.1803(2) 0.2797(5)
O2A O -0.3165(4) 0.14190(19) 0.0573(5)
O2A_2 O 0.6835(4) 0.14190(19) 1.0573(5)
O3A O -0.4005(4) 0.15204(18) 0.2328(5)
O3A_2 O 0.5995(4) 0.15204(18) 1.2328(5)
O4A O -0.1745(4) 0.19015(19) 0.4535(5)
O5A O -0.0049(7) 0.3064(2) 0.6016(7)
O6A O 0.5578(10) 0.0160(3) 0.9092(9)
C1A C -0.3441(7) 0.2858(3) 0.2369(8)
H1A H -0.3666 0.2707 0.3020
C2A C -0.3663(6) 0.3446(3) 0.1945(8)
H2A H -0.4008 0.3694 0.2337
C3A C -0.3375(8) 0.3660(3) 0.0956(10)
H3A H -0.3522 0.4055 0.0666
C4A C -0.2855(7) 0.3285(3) 0.0374(9)
H4A H -0.2660 0.3431 -0.0309
C5A C -0.2629(6) 0.2698(3) 0.0802(7)
C6A C -0.2066(6) 0.2254(3) 0.0258(7)
C7A C -0.1783(7) 0.2497(4) -0.0891(9)
H5A H -0.1429 0.2190 -0.1182
H6A H -0.1225 0.2821 -0.0466
H7A H -0.2518 0.2633 -0.1747
C8A C -0.0853(6) 0.2014(3) 0.1580(8)
H8A H -0.0564 0.1694 0.1224
H9A H -0.0254 0.2328 0.1933
C9A C -0.2949(7) 0.1738(4) -0.0445(7)
H10A H -0.3714 0.1890 -0.1243
H11A H -0.2632 0.1466 -0.0881
C10A C -0.1584(7) 0.0448(3) 0.2721(9)
H12A H -0.1420 0.0586 0.2004
C11A C -0.1321(11) -0.0121(4) 0.3192(11)
H13A H -0.0976 -0.0371 0.2802
C12A C -0.1570(10) -0.0332(4) 0.4268(13)
H14A H -0.1419 -0.0724 0.4588
C13A C -0.2053(8) 0.0068(3) 0.4840(9)
H15A H -0.2193 -0.0054 0.5589
C14A C -0.2323(6) 0.0630(3) 0.4331(8)
C15A C -0.2884(6) 0.1086(3) 0.4859(7)
C16A C -0.3123(6) 0.0837(3) 0.6049(8)
H16A H -0.3461 0.1143 0.6367
H17A H -0.2375 0.0701 0.6885
H18A H -0.3682 0.0512 0.5641
C17A C -0.4098(6) 0.1302(3) 0.3529(7)
H19A H -0.4671 0.0975 0.3178
H20A H -0.4421 0.1612 0.3870
C18A C -0.2017(6) 0.1618(3) 0.5537(7)
H21A H -0.2378 0.1906 0.5884
H22A H -0.1267 0.1483 0.6395
C20A C 0.6452(15) 0.0039(5) 0.8899(16)
H23A H 0.6336 -0.0349 0.8469
H24A H 0.7198 0.0048 0.9840
H25A H 0.6483 0.0326 0.8243
C22A C -0.097(5) 0.446(2) 0.392(5)
O11? O 0.0000 0.0828(4) 1.0000
loop_
_geom_bond_atom_site_label_1
_geom_bond_atom_site_label_2
_geom_bond_site_symmetry_1
_geom_bond_site_symmetry_2
Mn1 N1 1_555 1_555
Mn2 O1 1_555 1_555
Na1 O2 1_555 1_555
Cl1 O7 1_555 1_555
Cl2 O9 1_555 1_555
N1 C1 1_555 1_555
N2 Mn1 1_555 1_555
O1 Mn1 1_555 1_555
O2 Mn1 1_555 1_555
O3 Mn1 1_555 1_555
O4 Mn1 1_555 1_555
O5 Mn2 1_555 1_555
O6 Na1 1_555 1_555
O8 Cl1 1_555 1_555
O10 Cl2 1_555 1_555
C1 H1 1_555 1_555
C2 C1 1_555 1_555
H2 C2 1_555 1_555
C3 C2 1_555 1_555
H3 C3 1_555 1_555
C4 C3 1_555 1_555
H4 C4 1_555 1_555
C5 N1 1_555 1_555
C6 C5 1_555 1_555
C7 C6 1_555 1_555
H5 C7 1_555 1_555
H6 C7 1_555 1_555
H7 C7 1_555 1_555
C8 O1 1_555 1_555
H8 C8 1_555 1_555
H9 C8 1_555 1_555
C9 O2 1_555 1_555
H10 C9 1_555 1_555
H11 C9 1_555 1_555
C10 N2 1_555 1_555
H12 C10 1_555 1_555
C11 C10 1_555 1_555
H13 C11 1_555 1_555
C12 C11 1_555 1_555
H14 C12 1_555 1_555
C13 C12 1_555 1_555
H15 C13 1_555 1_555
C14 N2 1_555 1_555
C15 C14 1_555 1_555
C16 C15 1_555 1_555
H16 C16 1_555 1_555
H17 C16 1_555 1_555
H18 C16 1_555 1_555
C17 O3 1_555 1_555
H19 C17 1_555 1_555
H20 C17 1_555 1_555
C18 O4 1_555 1_555
H21 C18 1_555 1_555
H22 C18 1_555 1_555
C19 O5 1_555 1_555
C20 O6 1_555 1_555
H23 C20 1_555 1_555
H24 C20 1_555 1_555
H25 C20 1_555 1_555
C21 O13 1_555 1_555
C22 C23 1_555 1_555
C23 C19 1_555 1_555
Mn1A N1A 1_555 1_555
Na1_2 O2A 1_555 1_555
N1A C1A 1_555 1_555
N2A Mn1A 1_555 1_555
O1A Mn2 1_555 1_555
O2A Mn1A 1_555 1_555
O2A_2 Na1 1_555 1_555
O3A Mn1A 1_555 1_555
O3A_2 Na1 1_555 1_555
O4A Mn2 1_555 1_555
O5A Mn2 1_555 1_555
O6A Na1 1_555 1_555
O7A Cl1 1_555 1_555
O8A Cl1 1_555 1_555
O9A Cl2 1_555 1_555
O10A Cl2 1_555 1_555
C1A H1A 1_555 1_555
C2A C1A 1_555 1_555
H2A C2A 1_555 1_555
C3A C2A 1_555 1_555
H3A C3A 1_555 1_555
C4A C3A 1_555 1_555
H4A C4A 1_555 1_555
C5A N1A 1_555 1_555
C6A C5A 1_555 1_555
C7A C6A 1_555 1_555
H5A C7A 1_555 1_555
H6A C7A 1_555 1_555
H7A C7A 1_555 1_555
C8A O1A 1_555 1_555
H8A C8A 1_555 1_555
H9A C8A 1_555 1_555
C9A O2A 1_555 1_555
H10A C9A 1_555 1_555
H11A C9A 1_555 1_555
C10A N2A 1_555 1_555
H12A C10A 1_555 1_555
C11A C10A 1_555 1_555
H13A C11A 1_555 1_555
C12A C11A 1_555 1_555
H14A C12A 1_555 1_555
C13A C12A 1_555 1_555
H15A C13A 1_555 1_555
C14A N2A 1_555 1_555
C15A C14A 1_555 1_555
C16A C15A 1_555 1_555
H16A C16A 1_555 1_555
H17A C16A 1_555 1_555
H18A C16A 1_555 1_555
C17A O3A 1_555 1_555
H19A C17A 1_555 1_555
H20A C17A 1_555 1_555
C18A O4A 1_555 1_555
H21A C18A 1_555 1_555
H22A C18A 1_555 1_555
C20A O6A 1_555 1_555
H23A C20A 1_555 1_555
H24A C20A 1_555 1_555
H25A C20A 1_555 1_555
C22A C23 1_555 1_555
Mn2 O4 1_555 1_555
Na1 O3 1_555 1_555
C4 C5 1_555 1_555
C6 C8 1_555 1_555
C6 C9 1_555 1_555
C13 C14 1_555 1_555
C15 C17 1_555 1_555
C15 C18 1_555 1_555
C19 O5A 1_555 1_555
Mn1A O1A 1_555 1_555
Mn1A O4A 1_555 1_555
Na1_2 O3A 1_555 1_555
C4A C5A 1_555 1_555
C6A C8A 1_555 1_555
C6A C9A 1_555 1_555
C13A C14A 1_555 1_555
C15A C17A 1_555 1_555
C15A C18A 1_555 1_555

#END
