
#######################################################################
#
#                 Cambridge Crystallographic Data Centre
#                                CCDC 
#
#######################################################################
#
# If this CIF has been generated from an entry in the Cambridge 
# Structural Database, then it will include bibliographic, chemical, 
# crystal, experimental, refinement or atomic coordinate data resulting 
# from the CCDC's data processing and validation procedures.
#
#######################################################################

data_KEHZED
_symmetry_cell_setting           monoclinic
_symmetry_space_group_name_H-M   'C 2/c'
_symmetry_Int_Tables_number      15
_space_group_name_Hall           '-C 2yn'
loop_
_symmetry_equiv_pos_site_id
_symmetry_equiv_pos_as_xyz
1 x,y,z
2 1/2+x,1/2+y,z
3 -x,y,1/2-z
4 1/2-x,1/2+y,1/2-z
5 -x,-y,-z
6 1/2-x,1/2-y,-z
7 x,-y,1/2+z
8 1/2+x,1/2-y,1/2+z
_cell_length_a                   25.335(5)
_cell_length_b                   10.853(2)
_cell_length_c                   17.496(4)
_cell_angle_alpha                90
_cell_angle_beta                 108.156(3)
_cell_angle_gamma                90
_cell_volume                     4571.2
loop_
_atom_site_label
_atom_site_type_symbol
_atom_site_fract_x
_atom_site_fract_y
_atom_site_fract_z
Sn1 Sn 0.45016(3) 0.57798(6) 0.06526(4)
N1 N 0.3868(3) 0.6922(6) -0.0243(5)
N2 N 0.3502(3) 0.7608(6) 0.0032(4)
N3 N 0.4882(5) 0.5049(11) 0.2154(7)
O1 O 0.4612(3) 0.5616(6) -0.0580(5)
O2 O 0.4312(3) 0.6223(8) -0.1857(4)
O3 O 0.3940(3) 0.6663(6) 0.1233(4)
O4 O 0.2683(3) 0.9077(6) -0.0079(4)
H1 H 0.2892 0.8656 -0.0245
C1 C 0.4292(4) 0.6245(10) -0.1165(7)
C2 C 0.3865(4) 0.7011(9) -0.0976(6)
C3 C 0.3483(4) 0.7809(10) -0.1581(6)
H2 H 0.3239 0.8226 -0.1343
H3 H 0.3267 0.7315 -0.2024
H4 H 0.3693 0.8405 -0.1771
C4 C 0.3583(4) 0.7377(8) 0.0804(5)
C5 C 0.3224(3) 0.8082(7) 0.1168(5)
C6 C 0.2798(4) 0.8898(8) 0.0726(5)
C7 C 0.2487(4) 0.9529(8) 0.1092(6)
H5 H 0.2210 1.0055 0.0791
C8 C 0.2576(4) 0.9404(8) 0.1922(6)
C9 C 0.2247(4) 1.0043(9) 0.2325(6)
H6 H 0.1974 1.0587 0.2036
C10 C 0.2324(5) 0.9872(11) 0.3114(7)
H7 H 0.2106 1.0300 0.3365
C11 C 0.2728(5) 0.9063(10) 0.3557(7)
H8 H 0.2777 0.8939 0.4101
C12 C 0.3050(5) 0.8451(9) 0.3190(6)
H9 H 0.3325 0.7924 0.3494
C13 C 0.2983(3) 0.8587(7) 0.2377(5)
C14 C 0.3296(3) 0.7947(8) 0.1973(5)
H10 H 0.3566 0.7401 0.2267
C15 C 0.5149(5) 0.7057(9) 0.1124(8)
H11 H 0.5335 0.6855 0.1684
H12 H 0.5419 0.6968 0.0838
C16 C 0.4967(5) 0.8361(11) 0.1074(10)
H13 H 0.4692 0.8435 0.1353
H14 H 0.4783 0.8553 0.0513
C17 C 0.5404(6) 0.9315(11) 0.1405(11)
H15 H 0.5591 0.9131 0.1967
H16 H 0.5677 0.9262 0.1122
C18 C 0.5191(9) 1.0594(13) 0.1343(16)
H17 H 0.5495 1.1151 0.1561
H18 H 0.4931 1.0667 0.1640
H19 H 0.5009 1.0792 0.0789
C19 C 0.4137(5) 0.4013(10) 0.0544(9)
H20 H 0.4011 0.3803 -0.0023
H21 H 0.4428 0.3432 0.0808
C20 C 0.3686(6) 0.3812(12) 0.0851(10)
H22 H 0.3396 0.4405 0.0605
H23 H 0.3813 0.3976 0.1425
C21 C 0.3428(6) 0.2511(13) 0.0717(11)
H24 H 0.3125 0.2480 0.0945
H25 H 0.3272 0.2368 0.0143
C22 C 0.3812(8) 0.1537(15) 0.1062(13)
H26 H 0.3626 0.0758 0.0940
H27 H 0.3953 0.1642 0.1634
H28 H 0.4115 0.1560 0.0841
Sn1D Sn 0.54984(3) 0.42202(6) -0.06526(4)
Sn1B Sn 0.54984(3) 0.57798(6) 0.43474(4)
N1D N 0.6132(3) 0.3078(6) 0.0243(5)
N2D N 0.6498(3) 0.2392(6) -0.0032(4)
N3B N 0.5118(5) 0.5049(11) 0.2846(7)
N3D N 0.5118(5) 0.4951(11) -0.2154(7)
O1D O 0.5388(3) 0.4384(6) 0.0580(5)
O2D O 0.5688(3) 0.3777(8) 0.1857(4)
O3D O 0.6060(3) 0.3337(6) -0.1233(4)
O4D O 0.7317(3) 0.0923(6) 0.0079(4)
H1D H 0.7108 0.1344 0.0245
C1D C 0.5708(4) 0.3755(10) 0.1165(7)
C2D C 0.6135(4) 0.2989(9) 0.0976(6)
C3D C 0.6517(4) 0.2191(10) 0.1581(6)
H2D H 0.6761 0.1774 0.1343
H3D H 0.6733 0.2685 0.2024
H4D H 0.6307 0.1595 0.1771
C4D C 0.6417(4) 0.2623(8) -0.0804(5)
C5D C 0.6776(3) 0.1918(7) -0.1168(5)
C6D C 0.7202(4) 0.1102(8) -0.0726(5)
C7D C 0.7513(4) 0.0471(8) -0.1092(6)
H5D H 0.7790 -0.0055 -0.0791
C8D C 0.7424(4) 0.0596(8) -0.1922(6)
C9D C 0.7753(4) -0.0043(9) -0.2325(6)
H6D H 0.8026 -0.0587 -0.2036
C10D C 0.7676(5) 0.0128(11) -0.3114(7)
H7D H 0.7894 -0.0300 -0.3365
C11D C 0.7272(5) 0.0937(10) -0.3557(7)
H8D H 0.7223 0.1061 -0.4101
C12D C 0.6950(5) 0.1549(9) -0.3190(6)
H9D H 0.6675 0.2076 -0.3494
C13D C 0.7017(3) 0.1413(7) -0.2377(5)
C14D C 0.6704(3) 0.2053(8) -0.1973(5)
H10D H 0.6434 0.2599 -0.2267
C15D C 0.4851(5) 0.2943(9) -0.1124(8)
H11D H 0.4665 0.3145 -0.1684
H12D H 0.4581 0.3032 -0.0838
C16D C 0.5033(5) 0.1639(11) -0.1074(10)
H13D H 0.5308 0.1565 -0.1353
H14D H 0.5217 0.1447 -0.0513
C17D C 0.4596(6) 0.0685(11) -0.1405(11)
H15D H 0.4409 0.0869 -0.1967
H16D H 0.4323 0.0738 -0.1122
C18D C 0.4809(9) -0.0594(13) -0.1343(16)
H17D H 0.4505 -0.1151 -0.1561
H18D H 0.5069 -0.0667 -0.1640
H19D H 0.4991 -0.0792 -0.0789
C19D C 0.5863(5) 0.5987(10) -0.0544(9)
H20D H 0.5989 0.6197 0.0023
H21D H 0.5572 0.6568 -0.0808
C20D C 0.6314(6) 0.6188(12) -0.0851(10)
H22D H 0.6604 0.5595 -0.0605
H23D H 0.6187 0.6024 -0.1425
C21D C 0.6572(6) 0.7489(13) -0.0717(11)
H24D H 0.6875 0.7520 -0.0945
H25D H 0.6728 0.7632 -0.0143
C22D C 0.6188(8) 0.8463(15) -0.1062(13)
H26D H 0.6374 0.9242 -0.0940
H27D H 0.6047 0.8358 -0.1634
H28D H 0.5885 0.8440 -0.0841
loop_
_geom_bond_atom_site_label_1
_geom_bond_atom_site_label_2
_geom_bond_site_symmetry_1
_geom_bond_site_symmetry_2
Sn1 N1 1_555 1_555
N1 N2 1_555 1_555
N2 C4 1_555 1_555
N3 Sn1 1_555 1_555
O1 Sn1 1_555 1_555
O2 C1 1_555 1_555
O3 Sn1 1_555 1_555
O4 H1 1_555 1_555
C1 O1 1_555 1_555
C2 N1 1_555 1_555
C3 C2 1_555 1_555
H2 C3 1_555 1_555
H3 C3 1_555 1_555
H4 C3 1_555 1_555
C4 O3 1_555 1_555
C5 C4 1_555 1_555
C6 O4 1_555 1_555
C7 C6 1_555 1_555
H5 C7 1_555 1_555
C8 C7 1_555 1_555
C9 C8 1_555 1_555
H6 C9 1_555 1_555
C10 C9 1_555 1_555
H7 C10 1_555 1_555
C11 C10 1_555 1_555
H8 C11 1_555 1_555
C12 C11 1_555 1_555
H9 C12 1_555 1_555
C13 C8 1_555 1_555
C14 C5 1_555 1_555
H10 C14 1_555 1_555
C15 Sn1 1_555 1_555
H11 C15 1_555 1_555
H12 C15 1_555 1_555
C16 C15 1_555 1_555
H13 C16 1_555 1_555
H14 C16 1_555 1_555
C17 C16 1_555 1_555
H15 C17 1_555 1_555
H16 C17 1_555 1_555
C18 C17 1_555 1_555
H17 C18 1_555 1_555
H18 C18 1_555 1_555
H19 C18 1_555 1_555
C19 Sn1 1_555 1_555
H20 C19 1_555 1_555
H21 C19 1_555 1_555
C20 C19 1_555 1_555
H22 C20 1_555 1_555
H23 C20 1_555 1_555
C21 C20 1_555 1_555
H24 C21 1_555 1_555
H25 C21 1_555 1_555
C22 C21 1_555 1_555
H26 C22 1_555 1_555
H27 C22 1_555 1_555
H28 C22 1_555 1_555
Sn1D O1 1_555 1_555
Sn1B N3B 1_555 1_555
N1D Sn1D 1_555 1_555
N2D N1D 1_555 1_555
N3B N3 1_555 1_555
N3D Sn1D 1_555 1_555
O1D Sn1 1_555 1_555
O2D C1D 1_555 1_555
O3D Sn1D 1_555 1_555
O4D H1D 1_555 1_555
C1D O1D 1_555 1_555
C2D N1D 1_555 1_555
C3D C2D 1_555 1_555
H2D C3D 1_555 1_555
H3D C3D 1_555 1_555
H4D C3D 1_555 1_555
C4D N2D 1_555 1_555
C5D C4D 1_555 1_555
C6D O4D 1_555 1_555
C7D C6D 1_555 1_555
H5D C7D 1_555 1_555
C8D C7D 1_555 1_555
C9D C8D 1_555 1_555
H6D C9D 1_555 1_555
C10D C9D 1_555 1_555
H7D C10D 1_555 1_555
C11D C10D 1_555 1_555
H8D C11D 1_555 1_555
C12D C11D 1_555 1_555
H9D C12D 1_555 1_555
C13D C8D 1_555 1_555
C14D C5D 1_555 1_555
H10D C14D 1_555 1_555
C15D Sn1D 1_555 1_555
H11D C15D 1_555 1_555
H12D C15D 1_555 1_555
C16D C15D 1_555 1_555
H13D C16D 1_555 1_555
H14D C16D 1_555 1_555
C17D C16D 1_555 1_555
H15D C17D 1_555 1_555
H16D C17D 1_555 1_555
C18D C17D 1_555 1_555
H17D C18D 1_555 1_555
H18D C18D 1_555 1_555
H19D C18D 1_555 1_555
C19D Sn1D 1_555 1_555
H20D C19D 1_555 1_555
H21D C19D 1_555 1_555
C20D C19D 1_555 1_555
H22D C20D 1_555 1_555
H23D C20D 1_555 1_555
C21D C20D 1_555 1_555
H24D C21D 1_555 1_555
H25D C21D 1_555 1_555
C22D C21D 1_555 1_555
H26D C22D 1_555 1_555
H27D C22D 1_555 1_555
H28D C22D 1_555 1_555
C1 C2 1_555 1_555
C5 C6 1_555 1_555
C12 C13 1_555 1_555
C13 C14 1_555 1_555
Sn1D O1D 1_555 1_555
O3D C4D 1_555 1_555
C1D C2D 1_555 1_555
C5D C6D 1_555 1_555
C12D C13D 1_555 1_555
C13D C14D 1_555 1_555

#END
