
#######################################################################
#
#                 Cambridge Crystallographic Data Centre
#                                CCDC 
#
#######################################################################
#
# If this CIF has been generated from an entry in the Cambridge 
# Structural Database, then it will include bibliographic, chemical, 
# crystal, experimental, refinement or atomic coordinate data resulting 
# from the CCDC's data processing and validation procedures.
#
#######################################################################

data_KEJDAF
_symmetry_cell_setting           monoclinic
_symmetry_space_group_name_H-M   'C 2/m'
_symmetry_Int_Tables_number      12
_space_group_name_Hall           '-C 2y'
loop_
_symmetry_equiv_pos_site_id
_symmetry_equiv_pos_as_xyz
1 x,y,z
2 -x,y,-z
3 1/2+x,1/2+y,z
4 1/2-x,1/2+y,-z
5 -x,-y,-z
6 x,-y,z
7 1/2-x,1/2-y,-z
8 1/2+x,1/2-y,z
_cell_length_a                   15.148(6)
_cell_length_b                   6.877(2)
_cell_length_c                   3.4591(12)
_cell_angle_alpha                90
_cell_angle_beta                 99.073(5)
_cell_angle_gamma                90
_cell_volume                     355.836
loop_
_atom_site_label
_atom_site_type_symbol
_atom_site_fract_x
_atom_site_fract_y
_atom_site_fract_z
Cu1 Cu 0.0000 0.5000 1.0000
N1 N 0.0956(2) 0.5000 0.4707(9)
N2 N 0.1724(2) 0.5000 0.4277(9)
N3 N 0.2463(3) 0.5000 0.3901(15)
N4 N 0.0000 0.2017(5) 1.0000
C1 C -0.07389(18) 0.1005(4) 1.0354(7)
H1 H -0.1259 0.1664 1.0604
Cu1_2 Cu 0.0000 0.5000 0.0000
Cu1_3 Cu 0.0000 -0.5000 1.0000
Cu1_4 Cu 0.0000 0.5000 2.0000
N1_2 N 0.0956(2) 0.5000 1.4707(9)
N1A N -0.0956(2) 0.5000 0.5293(9)
N1A_2 N -0.0956(2) 0.5000 1.5293(9)
N2_2 N 0.1724(2) 0.5000 1.4277(9)
N3_2 N 0.2463(3) 0.5000 1.3901(15)
N4D N 0.0000 -0.2017(5) 1.0000
N4D_2 N 0.0000 0.7983(5) 1.0000
C1E C -0.07389(18) -0.1005(4) 1.0354(7)
C1D C 0.07389(18) -0.1005(4) 0.9646(7)
C1A C 0.07389(18) 0.1005(4) 0.9646(7)
H1A H 0.1259 0.1664 0.9396
H1D H 0.1259 -0.1664 0.9396
H1E H -0.1259 -0.1664 1.0604
loop_
_geom_bond_atom_site_label_1
_geom_bond_atom_site_label_2
_geom_bond_site_symmetry_1
_geom_bond_site_symmetry_2
Cu1 N1 1_555 1_555
N1 N2 1_555 1_555
N2 N3 1_555 1_555
N4 Cu1 1_555 1_555
C1 N4 1_555 1_555
H1 C1 1_555 1_555
Cu1_2 N1 1_555 1_555
Cu1_3 N4D 1_555 1_555
Cu1_4 N1_2 1_555 1_555
N1_2 Cu1 1_555 1_555
N1A Cu1 1_555 1_555
N1A_2 Cu1 1_555 1_555
N2_2 N1_2 1_555 1_555
N3_2 N2_2 1_555 1_555
N4D C1E 1_555 1_555
N4D_2 Cu1 1_555 1_555
C1E C1 1_555 1_555
C1D N4D 1_555 1_555
C1A N4 1_555 1_555
H1A C1A 1_555 1_555
H1D C1D 1_555 1_555
H1E C1E 1_555 1_555
Cu1_2 N1A 1_555 1_555
Cu1_4 N1A_2 1_555 1_555
C1D C1A 1_555 1_555

#END
