
#######################################################################
#
#                 Cambridge Crystallographic Data Centre
#                                CCDC 
#
#######################################################################
#
# If this CIF has been generated from an entry in the Cambridge 
# Structural Database, then it will include bibliographic, chemical, 
# crystal, experimental, refinement or atomic coordinate data resulting 
# from the CCDC's data processing and validation procedures.
#
#######################################################################

data_KEJWAY
_symmetry_cell_setting           monoclinic
_symmetry_space_group_name_H-M   'P 21/c'
_symmetry_Int_Tables_number      14
_space_group_name_Hall           '-P 2ybc'
loop_
_symmetry_equiv_pos_site_id
_symmetry_equiv_pos_as_xyz
1 x,y,z
2 -x,1/2+y,1/2-z
3 -x,-y,-z
4 x,1/2-y,1/2+z
_cell_length_a                   6.4218(3)
_cell_length_b                   18.0665(10)
_cell_length_c                   7.8665(4)
_cell_angle_alpha                90
_cell_angle_beta                 112.1820(10)
_cell_angle_gamma                90
_cell_volume                     845.12
loop_
_atom_site_label
_atom_site_type_symbol
_atom_site_fract_x
_atom_site_fract_y
_atom_site_fract_z
Co1 Co 0.01417(5) 0.524278(15) 0.19054(4)
Co2 Co -0.5000 0.5000 0.0000
O1 O -0.3989(3) 0.39192(8) 0.1022(2)
O2 O -0.0262(3) 0.41161(9) 0.2344(2)
O3 O -0.7673(3) 0.48227(8) 0.0764(2)
N1 N -0.9249(3) 0.86035(10) -0.3095(3)
N2 N -0.2538(4) 0.47761(12) 0.5324(3)
N3 N -0.2645(3) 0.51100(10) 0.4041(2)
N4 N -0.2766(3) 0.54459(11) 0.2685(2)
C1 C -1.0941(4) 0.81143(14) -0.3459(4)
H1 H -1.246(5) 0.8303(17) -0.399(4)
C2 C -1.0603(4) 0.73655(14) -0.3133(4)
H2 H -1.181(5) 0.699(2) -0.335(4)
C3 C -0.8428(4) 0.70929(12) -0.2384(3)
C4 C -0.6674(4) 0.75913(13) -0.2059(4)
H3 H -0.515(5) 0.7443(16) -0.149(4)
C5 C -0.7152(4) 0.83326(13) -0.2435(3)
H4 H -0.605(4) 0.8662(17) -0.224(4)
C6 C -0.1993(4) 0.37168(12) 0.1881(3)
Co1B Co -1.01417(5) 0.475722(15) -0.19054(4)
Co1_2 Co -0.98583(5) 0.524278(15) 0.19054(4)
Co1B_2 Co -0.01417(5) 0.475722(15) -0.19054(4)
Co1B_3 Co -0.01417(5) 0.475722(15) 0.80946(4)
Co1_3 Co -0.98583(5) 0.524278(15) -0.80946(4)
Co1C Co -0.98583(5) 0.975722(15) -0.30946(4)
Co1A Co -0.01417(5) 0.024278(15) 0.30946(4)
O1B O -0.6011(3) 0.60808(8) -0.1022(2)
O2B O -0.9738(3) 0.58839(9) -0.2344(2)
O3B O -1.2327(3) 0.51773(8) -0.0764(2)
O3_2 O 0.2327(3) 0.48227(8) 0.0764(2)
O3B_2 O -0.2327(3) 0.51773(8) -0.0764(2)
N1A N -1.0751(3) 0.36035(10) -0.1905(3)
N1C N 0.0751(3) 0.63965(10) 0.1905(3)
N1B N -0.0751(3) 0.13965(10) 0.3095(3)
N2_2 N -1.2538(4) 0.47761(12) -0.4676(3)
N2B N 0.2538(4) 0.52239(12) 0.4676(3)
N2B_2 N -0.7462(4) 0.52239(12) -0.5324(3)
N3B N -0.7355(3) 0.48900(10) -0.4041(2)
N4B N -0.7234(3) 0.45541(11) -0.2685(2)
C1B C 0.0941(4) 0.18857(14) 0.3459(4)
H1B H 0.246(5) 0.1697(17) 0.399(4)
C2B C 0.0603(4) 0.26345(14) 0.3133(4)
H2B H 0.181(5) 0.301(2) 0.335(4)
C3B C -0.1572(4) 0.29071(12) 0.2384(3)
C4B C -0.3326(4) 0.24087(13) 0.2059(4)
H3B H -0.485(5) 0.2557(16) 0.149(4)
C5B C -0.2848(4) 0.16674(13) 0.2435(3)
H4B H -0.395(4) 0.1338(17) 0.224(4)
C6B C -0.8007(4) 0.62832(12) -0.1881(3)
loop_
_geom_bond_atom_site_label_1
_geom_bond_atom_site_label_2
_geom_bond_site_symmetry_1
_geom_bond_site_symmetry_2
Co1 O2 1_555 1_555
Co2 O1 1_555 1_555
O1 C6 1_555 1_555
O2 C6 1_555 1_555
O3 Co2 1_555 1_555
N1 C1 1_555 1_555
N2 N3 1_555 1_555
N3 N4 1_555 1_555
N4 Co1 1_555 1_555
C1 H1 1_555 1_555
C2 C1 1_555 1_555
H2 C2 1_555 1_555
C3 C2 1_555 1_555
C4 C3 1_555 1_555
H3 C4 1_555 1_555
C5 N1 1_555 1_555
H4 C5 1_555 1_555
C6 C3B 1_555 1_555
Co1B O3 1_555 1_555
Co1_2 O3 1_555 1_555
Co1B_2 O3_2 1_555 1_555
Co1B_3 N2 1_555 1_555
Co1_3 N2B_2 1_555 1_555
Co1C N1 1_555 1_555
Co1A N1B 1_555 1_555
O1B Co2 1_555 1_555
O2B Co1B 1_555 1_555
O3B Co1B 1_555 1_555
O3_2 Co1 1_555 1_555
O3B_2 Co1 1_555 1_555
N1A Co1B 1_555 1_555
N1C Co1 1_555 1_555
N1B C1B 1_555 1_555
N2_2 Co1B 1_555 1_555
N2B Co1 1_555 1_555
N2B_2 N3B 1_555 1_555
N3B N4B 1_555 1_555
N4B Co2 1_555 1_555
C1B H1B 1_555 1_555
C2B C1B 1_555 1_555
H2B C2B 1_555 1_555
C3B C2B 1_555 1_555
C4B C3B 1_555 1_555
H3B C4B 1_555 1_555
C5B N1B 1_555 1_555
H4B C5B 1_555 1_555
C6B C3 1_555 1_555
Co2 N4 1_555 1_555
Co2 O3B_2 1_555 1_555
C4 C5 1_555 1_555
Co1B N4B 1_555 1_555
Co1_2 O3B 1_555 1_555
Co1B_2 O3B_2 1_555 1_555
O1B C6B 1_555 1_555
O2B C6B 1_555 1_555
C4B C5B 1_555 1_555

#END
