
#######################################################################
#
#                 Cambridge Crystallographic Data Centre
#                                CCDC 
#
#######################################################################
#
# If this CIF has been generated from an entry in the Cambridge 
# Structural Database, then it will include bibliographic, chemical, 
# crystal, experimental, refinement or atomic coordinate data resulting 
# from the CCDC's data processing and validation procedures.
#
#######################################################################

data_KEKHAL
_symmetry_cell_setting           triclinic
_symmetry_space_group_name_H-M   'P -1'
_symmetry_Int_Tables_number      2
_space_group_name_Hall           '-P 1'
loop_
_symmetry_equiv_pos_site_id
_symmetry_equiv_pos_as_xyz
1 x,y,z
2 -x,-y,-z
_cell_length_a                   9.3749(9)
_cell_length_b                   11.4943(10)
_cell_length_c                   12.7024(11)
_cell_angle_alpha                65.563(4)
_cell_angle_beta                 73.788(5)
_cell_angle_gamma                86.757(5)
_cell_volume                     1193.89
loop_
_atom_site_label
_atom_site_type_symbol
_atom_site_fract_x
_atom_site_fract_y
_atom_site_fract_z
Tb1 Tb 0.748797(14) 1.027583(13) 0.015925(12)
O1 O 0.5447(2) 1.0166(2) 0.1809(2)
O2 O 0.3560(2) 0.9806(2) 0.12438(18)
O3 O 0.7904(2) 0.84572(19) 0.19323(18)
O4 O 0.6316(2) 0.8032(2) 0.11326(18)
O5 O 0.9427(2) 0.9194(2) -0.05985(19)
O6 O 1.1664(2) 0.8486(2) -0.0975(2)
O7 O 0.6240(2) 1.2306(2) -0.0542(2)
O8 O 0.9165(2) 1.1910(2) -0.1595(2)
N1 N -0.1776(5) 0.7470(5) 0.5446(4)
N2 N 0.8400(5) 0.4011(3) 0.6409(3)
N3 N 0.4959(5) 0.6413(5) -0.1311(5)
C1 C 0.4114(3) 0.9873(3) 0.2008(3)
C2 C 0.3108(3) 0.9561(3) 0.3255(3)
C3 C 0.1700(4) 0.9009(3) 0.3590(3)
H1 H 0.1339 0.8891 0.3027
C4 C 0.0812(4) 0.8625(4) 0.4769(3)
C5 C -0.0630(5) 0.7980(4) 0.5141(4)
C6 C 0.1329(5) 0.8838(4) 0.5591(4)
H2 H 0.0733 0.8578 0.6380
C7 C 0.2703(5) 0.9426(5) 0.5262(4)
H3 H 0.3031 0.9591 0.5816
C8 C 0.3617(5) 0.9781(4) 0.4086(3)
H4 H 0.4566 1.0164 0.3861
C9 C 0.7016(3) 0.7683(3) 0.1920(2)
C10 C 0.6793(3) 0.6324(3) 0.2847(3)
C11 C 0.7452(3) 0.5982(3) 0.3782(3)
H5 H 0.8026 0.6585 0.3826
C12 C 0.7238(4) 0.4722(3) 0.4648(3)
C13 C 0.7899(4) 0.4351(3) 0.5638(3)
C14 C 0.6381(4) 0.3828(3) 0.4587(3)
H6 H 0.6232 0.2992 0.5178
C15 C 0.5743(4) 0.4172(3) 0.3650(4)
H7 H 0.5177 0.3565 0.3603
C16 C 0.5949(4) 0.5414(3) 0.2784(3)
H8 H 0.5519 0.5644 0.2155
C17 C 1.0297(3) 0.8440(3) -0.0879(2)
C18 C 0.9728(3) 0.7413(3) -0.1136(3)
C19 C 0.8248(4) 0.7349(3) -0.1118(3)
H9 H 0.7609 0.7933 -0.0941
C20 C 0.7720(4) 0.6411(4) -0.1364(3)
C21 C 0.6172(5) 0.6386(5) -0.1348(4)
C22 C 0.8651(5) 0.5542(4) -0.1624(4)
H10 H 0.8293 0.4917 -0.1790
C23 C 1.0109(5) 0.5600(4) -0.1637(4)
H11 H 1.0741 0.5011 -0.1812
C24 C 1.0657(4) 0.6533(3) -0.1390(3)
H12 H 1.1649 0.6561 -0.1397
H13 H 1.0094(13) 1.185(3) -0.177(3)
H14 H 0.600(3) 1.268(3) -0.008(3)
H15 H 0.554(3) 1.230(4) -0.085(3)
H16 H 0.895(3) 1.260(2) -0.208(3)
Tb1A Tb 0.251203(14) 0.972417(13) -0.015925(12)
Tb1A_2 Tb 1.251203(14) 0.972417(13) -0.015925(12)
O2A O 0.6440(2) 1.0194(2) -0.12438(18)
O6A O 0.8336(2) 1.1514(2) 0.0975(2)
loop_
_geom_bond_atom_site_label_1
_geom_bond_atom_site_label_2
_geom_bond_site_symmetry_1
_geom_bond_site_symmetry_2
Tb1 O1 1_555 1_555
O1 C1 1_555 1_555
O2 C1 1_555 1_555
O3 Tb1 1_555 1_555
O4 Tb1 1_555 1_555
O5 Tb1 1_555 1_555
O6 C17 1_555 1_555
O7 Tb1 1_555 1_555
O8 Tb1 1_555 1_555
N1 C5 1_555 1_555
N2 C13 1_555 1_555
N3 C21 1_555 1_555
C1 C2 1_555 1_555
C2 C3 1_555 1_555
C3 H1 1_555 1_555
C4 C3 1_555 1_555
C5 C4 1_555 1_555
C6 C4 1_555 1_555
H2 C6 1_555 1_555
C7 C6 1_555 1_555
H3 C7 1_555 1_555
C8 C2 1_555 1_555
H4 C8 1_555 1_555
C9 O3 1_555 1_555
C10 C9 1_555 1_555
C11 C10 1_555 1_555
H5 C11 1_555 1_555
C12 C11 1_555 1_555
C13 C12 1_555 1_555
C14 C12 1_555 1_555
H6 C14 1_555 1_555
C15 C14 1_555 1_555
H7 C15 1_555 1_555
C16 C10 1_555 1_555
H8 C16 1_555 1_555
C17 O5 1_555 1_555
C18 C17 1_555 1_555
C19 C18 1_555 1_555
H9 C19 1_555 1_555
C20 C19 1_555 1_555
C21 C20 1_555 1_555
C22 C20 1_555 1_555
H10 C22 1_555 1_555
C23 C22 1_555 1_555
H11 C23 1_555 1_555
C24 C18 1_555 1_555
H12 C24 1_555 1_555
H13 O8 1_555 1_555
H14 O7 1_555 1_555
H15 O7 1_555 1_555
H16 O8 1_555 1_555
Tb1A O2 1_555 1_555
Tb1A_2 O6 1_555 1_555
O2A Tb1 1_555 1_555
O6A Tb1 1_555 1_555
O4 C9 1_555 1_555
C7 C8 1_555 1_555
C15 C16 1_555 1_555
C23 C24 1_555 1_555

#END
