
#######################################################################
#
#                 Cambridge Crystallographic Data Centre
#                                CCDC 
#
#######################################################################
#
# If this CIF has been generated from an entry in the Cambridge 
# Structural Database, then it will include bibliographic, chemical, 
# crystal, experimental, refinement or atomic coordinate data resulting 
# from the CCDC's data processing and validation procedures.
#
#######################################################################

data_KEKHOZ
_symmetry_cell_setting           monoclinic
_symmetry_space_group_name_H-M   'P 21/c'
_symmetry_Int_Tables_number      14
_space_group_name_Hall           '-P 2ybc'
loop_
_symmetry_equiv_pos_site_id
_symmetry_equiv_pos_as_xyz
1 x,y,z
2 -x,1/2+y,1/2-z
3 -x,-y,-z
4 x,1/2-y,1/2+z
_cell_length_a                   11.2687(6)
_cell_length_b                   7.3511(4)
_cell_length_c                   11.8506(7)
_cell_angle_alpha                90
_cell_angle_beta                 95.070(2)
_cell_angle_gamma                90
_cell_volume                     977.831
loop_
_atom_site_label
_atom_site_type_symbol
_atom_site_fract_x
_atom_site_fract_y
_atom_site_fract_z
Zn1 Zn 0.5000 0.0000 0.5000
Zn2 Zn 1.0000 0.5000 0.5000
N1 N 0.86051(19) 0.3485(3) 0.52843(19)
N2 N 0.65464(18) 0.1445(3) 0.51362(19)
O1 O 1.02439(16) 0.3077(3) 0.38944(17)
O2 O 0.9674(2) 0.0210(3) 0.3400(2)
H1 H 1.0334 0.0188 0.3160
O3 O 0.48227(19) 0.0398(3) 0.69586(19)
O4 O 0.85898(17) 0.6865(3) 0.38141(18)
O5 O 0.80096(19) 0.4691(3) 0.2349(2)
O6 O 0.66194(17) 0.5525(3) 0.36860(17)
O7 O 0.71333(19) 0.7708(3) 0.23097(18)
S1 S 0.75994(5) 0.61750(9) 0.30303(5)
C1 C 0.9530(2) 0.1765(4) 0.3921(2)
C2 C 0.8484(2) 0.2027(4) 0.4597(2)
C3 C 0.7458(2) 0.0999(4) 0.4524(2)
H2 H 0.7393 -0.0010 0.4050
C4 C 0.6686(2) 0.2867(4) 0.5825(2)
H3 H 0.6073 0.3181 0.6265
C5 C 0.7726(2) 0.3900(4) 0.5906(2)
H4 H 0.7802 0.4885 0.6399
O8 O 0.41108(17) 0.2286(3) 0.47071(17)
H5 H 0.528(3) 0.005(5) 0.753(2)
H6 H 0.432(3) 0.114(4) 0.717(3)
H7 H 0.384(3) 0.292(4) 0.5221(18)
H8 H 0.365(3) 0.235(5) 0.4107(16)
Zn2_2 Zn 0.0000 -0.5000 0.5000
N1B N 0.13949(19) -0.3485(3) 0.47157(19)
N1B_2 N 1.13949(19) 0.6515(3) 0.47157(19)
N2B N 0.34536(18) -0.1445(3) 0.48638(19)
O1B O -0.02439(16) -0.3077(3) 0.61056(17)
O1B_2 O 0.97561(16) 0.6923(3) 0.61056(17)
O2B O 0.0326(2) -0.0210(3) 0.6600(2)
H1B H -0.0334 -0.0188 0.6840
O3B O 0.51773(19) -0.0398(3) 0.30414(19)
O4B O 1.14102(17) 0.3135(3) 0.61859(18)
O5B O 1.19904(19) 0.5309(3) 0.7651(2)
O6B O 1.33806(17) 0.4475(3) 0.63140(17)
O7B O 1.28667(19) 0.2292(3) 0.76903(18)
S1B S 1.24006(5) 0.38250(9) 0.69697(5)
C1B C 0.0470(2) -0.1765(4) 0.6079(2)
C2B C 0.1516(2) -0.2027(4) 0.5403(2)
C3B C 0.2542(2) -0.0999(4) 0.5476(2)
H2B H 0.2607 0.0010 0.5950
C4B C 0.3314(2) -0.2867(4) 0.4175(2)
H3B H 0.3927 -0.3181 0.3735
C5B C 0.2274(2) -0.3900(4) 0.4094(2)
H4B H 0.2198 -0.4885 0.3601
O8B O 0.58892(17) -0.2286(3) 0.52929(17)
H5B H 0.472(3) -0.005(5) 0.247(2)
H6B H 0.568(3) -0.114(4) 0.283(3)
H7B H 0.616(3) -0.292(4) 0.4779(18)
H8B H 0.635(3) -0.235(5) 0.5893(16)
loop_
_geom_bond_atom_site_label_1
_geom_bond_atom_site_label_2
_geom_bond_site_symmetry_1
_geom_bond_site_symmetry_2
Zn1 N2 1_555 1_555
Zn2 N1 1_555 1_555
N1 C2 1_555 1_555
N2 C3 1_555 1_555
O1 Zn2 1_555 1_555
O2 H1 1_555 1_555
O3 Zn1 1_555 1_555
O4 Zn2 1_555 1_555
O5 S1 1_555 1_555
O6 S1 1_555 1_555
O7 S1 1_555 1_555
S1 O4 1_555 1_555
C1 O1 1_555 1_555
C2 C1 1_555 1_555
C3 C2 1_555 1_555
H2 C3 1_555 1_555
C4 N2 1_555 1_555
H3 C4 1_555 1_555
C5 N1 1_555 1_555
H4 C5 1_555 1_555
O8 Zn1 1_555 1_555
H5 O3 1_555 1_555
H6 O3 1_555 1_555
H7 O8 1_555 1_555
H8 O8 1_555 1_555
Zn2_2 N1B 1_555 1_555
N1B C2B 1_555 1_555
N1B_2 Zn2 1_555 1_555
N2B Zn1 1_555 1_555
O1B Zn2_2 1_555 1_555
O1B_2 Zn2 1_555 1_555
O2B H1B 1_555 1_555
O3B Zn1 1_555 1_555
O4B Zn2 1_555 1_555
O5B S1B 1_555 1_555
O6B S1B 1_555 1_555
O7B S1B 1_555 1_555
S1B O4B 1_555 1_555
C1B O1B 1_555 1_555
C2B C1B 1_555 1_555
C3B N2B 1_555 1_555
H2B C3B 1_555 1_555
C4B N2B 1_555 1_555
H3B C4B 1_555 1_555
C5B N1B 1_555 1_555
H4B C5B 1_555 1_555
O8B Zn1 1_555 1_555
H5B O3B 1_555 1_555
H6B O3B 1_555 1_555
H7B O8B 1_555 1_555
H8B O8B 1_555 1_555
O2 C1 1_555 1_555
C4 C5 1_555 1_555
O2B C1B 1_555 1_555
C2B C3B 1_555 1_555
C4B C5B 1_555 1_555

#END
