
#######################################################################
#
#                 Cambridge Crystallographic Data Centre
#                                CCDC 
#
#######################################################################
#
# If this CIF has been generated from an entry in the Cambridge 
# Structural Database, then it will include bibliographic, chemical, 
# crystal, experimental, refinement or atomic coordinate data resulting 
# from the CCDC's data processing and validation procedures.
#
#######################################################################

data_KEKNUL
_symmetry_cell_setting           monoclinic
_symmetry_space_group_name_H-M   'P 21/n'
_symmetry_Int_Tables_number      14
_space_group_name_Hall           '-P 2yn'
loop_
_symmetry_equiv_pos_site_id
_symmetry_equiv_pos_as_xyz
1 x,y,z
2 1/2-x,1/2+y,1/2-z
3 -x,-y,-z
4 1/2+x,1/2-y,1/2+z
_cell_length_a                   9.0017(1)
_cell_length_b                   20.9598(3)
_cell_length_c                   13.5361(2)
_cell_angle_alpha                90
_cell_angle_beta                 105.043(1)
_cell_angle_gamma                90
_cell_volume                     2466.39
loop_
_atom_site_label
_atom_site_type_symbol
_atom_site_fract_x
_atom_site_fract_y
_atom_site_fract_z
Sb1 Sb 0.737114(11) 0.194896(5) 0.706339(8)
C1 C 0.89291(18) 0.27473(7) 0.71991(12)
C2 C 0.90326(18) 0.30460(7) 0.62936(12)
C3 C 0.9960(2) 0.35796(8) 0.63144(13)
H1 H 1.003(2) 0.3783(9) 0.5731(16)
C4 C 1.08163(19) 0.38153(7) 0.72483(13)
H2 H 1.142(2) 0.4170(9) 0.7257(14)
C5 C 1.07169(18) 0.35212(7) 0.81409(12)
C6 C 0.97816(18) 0.29928(7) 0.81304(12)
H3 H 0.974(2) 0.2807(9) 0.8716(14)
C7 C 0.8026(2) 0.31087(9) 0.44751(13)
H4 H 0.735(2) 0.2860(10) 0.3962(16)
H5 H 0.898(3) 0.3159(10) 0.4327(16)
H6 H 0.757(2) 0.3519(10) 0.4507(15)
Br1 Br 1.188132(19) 0.384549(7) 0.942433(12)
O1 O 0.81852(15) 0.27657(6) 0.54129(8)
C8 C 0.90585(18) 0.12520(7) 0.68913(11)
C9 C 0.85712(18) 0.06163(7) 0.67321(12)
C10 C 0.9514(2) 0.01523(8) 0.64822(13)
H7 H 0.918(2) -0.0261(10) 0.6355(16)
C11 C 1.0982(2) 0.03161(8) 0.64177(14)
H8 H 1.159(3) -0.0002(10) 0.6281(16)
C12 C 1.14857(18) 0.09367(8) 0.66090(12)
C13 C 1.05391(18) 0.14068(8) 0.68373(12)
H9 H 1.089(2) 0.1822(10) 0.6962(15)
C14 C 0.6446(2) -0.01061(9) 0.65151(17)
H10 H 0.697(3) -0.0428(11) 0.6915(17)
H11 H 0.643(2) -0.0174(10) 0.5805(17)
H12 H 0.543(3) -0.0084(10) 0.6580(16)
Br2 Br 1.35232(2) 0.115627(10) 0.656671(16)
O2 O 0.71242(13) 0.05012(5) 0.68406(9)
C15 C 0.78604(19) 0.18420(7) 0.87012(12)
C16 C 0.71298(19) 0.22820(8) 0.91990(13)
C17 C 0.7446(2) 0.22968(9) 1.02563(14)
H13 H 0.698(3) 0.2596(11) 1.0591(17)
C18 C 0.8503(2) 0.18711(9) 1.08318(14)
H14 H 0.871(3) 0.1878(11) 1.1517(18)
C19 C 0.9206(2) 0.14339(9) 1.03443(13)
C20 C 0.88950(19) 0.14127(8) 0.92813(13)
H15 H 0.937(2) 0.1109(9) 0.8995(14)
C21 C 0.5527(3) 0.32118(10) 0.90118(17)
H16 H 0.492(2) 0.3444(10) 0.8473(17)
H17 H 0.637(3) 0.3463(12) 0.9429(19)
H18 H 0.489(3) 0.3039(12) 0.945(2)
Br3 Br 1.06542(2) 0.084799(10) 1.113843(14)
O3 O 0.61373(15) 0.26916(6) 0.85571(9)
Sb1C Sb 1.237114(11) 0.305104(5) 1.206339(8)
Sb1_2 Sb 1.737114(11) 0.194896(5) 0.706339(8)
Br1C Br 0.688132(19) 0.115451(7) 0.442433(12)
Br2_2 Br 0.35232(2) 0.115627(10) 0.656671(16)
C22 C 0.6542(2) 0.00882(9) 1.00807(17)
H19 H 0.758(3) 0.0145(11) 1.0132(17)
C23 C 0.5467(3) 0.03069(9) 0.92255(16)
H20 H 0.579(3) 0.0517(11) 0.8696(17)
C24 C 0.6075(3) -0.02191(9) 1.08513(15)
H21 H 0.683(3) -0.0369(10) 1.1417(17)
C22B C 0.3458(2) -0.00882(9) 0.99193(17)
H19B H 0.242(3) -0.0145(11) 0.9868(17)
C23B C 0.4533(3) -0.03069(9) 1.07745(16)
H20B H 0.421(3) -0.0517(11) 1.1304(17)
C24B C 0.3925(3) 0.02191(9) 0.91487(15)
H21B H 0.317(3) 0.0369(10) 0.8583(17)
loop_
_geom_bond_atom_site_label_1
_geom_bond_atom_site_label_2
_geom_bond_site_symmetry_1
_geom_bond_site_symmetry_2
Sb1 C1 1_555 1_555
C1 C2 1_555 1_555
C2 C3 1_555 1_555
C3 H1 1_555 1_555
C4 C3 1_555 1_555
H2 C4 1_555 1_555
C5 C4 1_555 1_555
C6 C1 1_555 1_555
H3 C6 1_555 1_555
C7 H4 1_555 1_555
H5 C7 1_555 1_555
H6 C7 1_555 1_555
Br1 C5 1_555 1_555
O1 C2 1_555 1_555
C8 Sb1 1_555 1_555
C9 C8 1_555 1_555
C10 C9 1_555 1_555
H7 C10 1_555 1_555
C11 C10 1_555 1_555
H8 C11 1_555 1_555
C12 C11 1_555 1_555
C13 C8 1_555 1_555
H9 C13 1_555 1_555
C14 H10 1_555 1_555
H11 C14 1_555 1_555
H12 C14 1_555 1_555
Br2 C12 1_555 1_555
O2 C9 1_555 1_555
C15 Sb1 1_555 1_555
C16 C15 1_555 1_555
C17 C16 1_555 1_555
H13 C17 1_555 1_555
C18 C17 1_555 1_555
H14 C18 1_555 1_555
C19 C18 1_555 1_555
C20 C15 1_555 1_555
H15 C20 1_555 1_555
C21 H16 1_555 1_555
H17 C21 1_555 1_555
H18 C21 1_555 1_555
Br3 C19 1_555 1_555
O3 C16 1_555 1_555
C22 H19 1_555 1_555
C23 C22 1_555 1_555
H20 C23 1_555 1_555
C24 C22 1_555 1_555
H21 C24 1_555 1_555
Sb1C Br1 1_555 1_555
Sb1_2 Br2 1_555 1_555
Br1C Sb1 1_555 1_555
Br2_2 Sb1 1_555 1_555
C22B H19B 1_555 1_555
C23B C24 1_555 1_555
H20B C23B 1_555 1_555
C24B C23 1_555 1_555
H21B C24B 1_555 1_555
C5 C6 1_555 1_555
C7 O1 1_555 1_555
C12 C13 1_555 1_555
C14 O2 1_555 1_555
C19 C20 1_555 1_555
C21 O3 1_555 1_555
C22B C23B 1_555 1_555
C22B C24B 1_555 1_555

#END
