
#######################################################################
#
#                 Cambridge Crystallographic Data Centre
#                                CCDC 
#
#######################################################################
#
# If this CIF has been generated from an entry in the Cambridge 
# Structural Database, then it will include bibliographic, chemical, 
# crystal, experimental, refinement or atomic coordinate data resulting 
# from the CCDC's data processing and validation procedures.
#
#######################################################################

data_KELCUA
_symmetry_cell_setting           triclinic
_symmetry_space_group_name_H-M   'P -1'
_symmetry_Int_Tables_number      2
_space_group_name_Hall           '-P 1'
loop_
_symmetry_equiv_pos_site_id
_symmetry_equiv_pos_as_xyz
1 x,y,z
2 -x,-y,-z
_cell_length_a                   10.5184(7)
_cell_length_b                   10.5191(8)
_cell_length_c                   15.6108(11)
_cell_angle_alpha                81.007(2)
_cell_angle_beta                 79.760(2)
_cell_angle_gamma                87.933(2)
_cell_volume                     1678.78
loop_
_atom_site_label
_atom_site_type_symbol
_atom_site_fract_x
_atom_site_fract_y
_atom_site_fract_z
C1 C 0.5446(7) 0.7177(7) 0.0522(5)
C2 C 0.5772(8) 0.8357(8) 0.0836(6)
C3 C 0.5428(10) 0.8462(9) 0.1721(6)
H1 H 0.4947 0.7816 0.2104
C4 C 0.5804(11) 0.9540(11) 0.2043(8)
H2 H 0.5602 0.9619 0.2637
C5 C 0.6460(11) 1.0441(11) 0.1458(8)
H3 H 0.6713 1.1156 0.1667
C6 C 0.6787(10) 1.0409(10) 0.0595(8)
H4 H 0.7226 1.1093 0.0224
C7 C 0.6459(9) 0.9322(8) 0.0251(7)
H5 H 0.6696 0.9259 -0.0344
C8 C 0.2937(7) 0.5929(6) -0.0594(4)
C9 C 0.1760(7) 0.6460(7) -0.0937(4)
C10 C 0.0595(7) 0.6537(8) -0.0375(5)
H6 H 0.0525 0.6210 0.0220
C11 C -0.0456(8) 0.7097(8) -0.0696(5)
H7 H -0.1243 0.7133 -0.0319
C12 C -0.0353(8) 0.7606(8) -0.1574(5)
H8 H -0.1062 0.8015 -0.1782
C13 C 0.0787(8) 0.7513(8) -0.2141(5)
H9 H 0.0849 0.7839 -0.2736
C14 C 0.1830(8) 0.6939(7) -0.1828(5)
H10 H 0.2600 0.6866 -0.2216
C15 C 0.2094(7) -0.1386(7) 0.5130(4)
C16 C 0.3289(7) -0.2107(8) 0.5246(5)
C17 C 0.4483(8) -0.1575(9) 0.4870(6)
H11 H 0.4521 -0.0775 0.4515
C18 C 0.5602(9) -0.2198(10) 0.5008(7)
H12 H 0.6395 -0.1818 0.4762
C19 C 0.5554(10) -0.3386(10) 0.5511(7)
H13 H 0.6317 -0.3818 0.5605
C20 C 0.4391(10) -0.3942(10) 0.5878(7)
H14 H 0.4358 -0.4757 0.6213
C21 C 0.3268(9) -0.3287(9) 0.5750(6)
H15 H 0.2477 -0.3659 0.6014
C22 C -0.0491(7) -0.1194(7) 0.3748(4)
C23 C -0.0825(7) -0.1848(7) 0.3051(4)
C24 C -0.0476(9) -0.1319(9) 0.2185(5)
H16 H -0.0027 -0.0547 0.2038
C25 C -0.0786(10) -0.1926(9) 0.1528(6)
H17 H -0.0547 -0.1564 0.0940
C26 C -0.1447(9) -0.3065(9) 0.1744(6)
H18 H -0.1648 -0.3483 0.1303
C27 C -0.1808(9) -0.3581(9) 0.2607(6)
H19 H -0.2248 -0.4358 0.2756
C28 C -0.1524(8) -0.2959(8) 0.3254(5)
H20 H -0.1810 -0.3296 0.3841
C29 C 0.3559(7) 0.2505(7) 0.2257(4)
H21 H 0.4271 0.2163 0.1921
C30 C 0.2849(7) 0.1726(7) 0.2952(4)
H22 H 0.3087 0.0866 0.3075
C31 C 0.1553(7) 0.3414(7) 0.3269(4)
H23 H 0.0864 0.3754 0.3626
C32 C 0.2247(7) 0.4232(7) 0.2566(4)
C33 C 0.1910(9) 0.5655(8) 0.2425(5)
H24 H 0.0980 0.5753 0.2475
H25 H 0.2298 0.6030 0.1832
C34 C 0.2370(12) 0.6392(11) 0.3084(7)
H26 H 0.1866 0.6143 0.3658
H27 H 0.2267 0.7300 0.2905
H28 H 0.3264 0.6196 0.3101
N1 N 0.3244(5) 0.3755(6) 0.2050(3)
N2 N 0.1830(5) 0.2174(6) 0.3452(3)
O1 O 0.4719(5) 0.6360(5) 0.1059(3)
O2 O 0.5921(5) 0.7029(5) -0.0271(3)
O3 O 0.2793(4) 0.5400(5) 0.0205(3)
O4 O 0.3992(4) 0.6058(5) -0.1122(3)
O5 O 0.2197(5) -0.0348(5) 0.4589(3)
O6 O 0.1038(5) -0.1823(5) 0.5587(3)
O7 O 0.0193(5) -0.0199(5) 0.3528(3)
O8 O -0.0969(5) -0.1660(5) 0.4535(3)
Rh1 Rh 0.43665(5) 0.46451(5) 0.07086(3)
Rh2 Rh 0.06197(5) 0.07805(6) 0.44641(3)
O2A O 0.4079(5) 0.2971(5) 0.0271(3)
O4A O 0.6008(4) 0.3942(5) 0.1122(3)
O6A O -0.1038(5) 0.1823(5) 0.4413(3)
O8A O 0.0969(5) 0.1660(5) 0.5465(3)
Rh1A Rh 0.56335(5) 0.53549(5) -0.07086(3)
Rh2A Rh -0.06197(5) -0.07805(6) 0.55359(3)
loop_
_geom_bond_atom_site_label_1
_geom_bond_atom_site_label_2
_geom_bond_site_symmetry_1
_geom_bond_site_symmetry_2
C1 C2 1_555 1_555
C2 C3 1_555 1_555
C3 H1 1_555 1_555
C4 C3 1_555 1_555
H2 C4 1_555 1_555
C5 C4 1_555 1_555
H3 C5 1_555 1_555
C6 C5 1_555 1_555
H4 C6 1_555 1_555
C7 C2 1_555 1_555
H5 C7 1_555 1_555
C8 C9 1_555 1_555
C9 C10 1_555 1_555
C10 H6 1_555 1_555
C11 C10 1_555 1_555
H7 C11 1_555 1_555
C12 C11 1_555 1_555
H8 C12 1_555 1_555
C13 C12 1_555 1_555
H9 C13 1_555 1_555
C14 C9 1_555 1_555
H10 C14 1_555 1_555
C15 C16 1_555 1_555
C16 C17 1_555 1_555
C17 H11 1_555 1_555
C18 C17 1_555 1_555
H12 C18 1_555 1_555
C19 C18 1_555 1_555
H13 C19 1_555 1_555
C20 C19 1_555 1_555
H14 C20 1_555 1_555
C21 C16 1_555 1_555
H15 C21 1_555 1_555
C22 C23 1_555 1_555
C23 C24 1_555 1_555
C24 H16 1_555 1_555
C25 C24 1_555 1_555
H17 C25 1_555 1_555
C26 C25 1_555 1_555
H18 C26 1_555 1_555
C27 C26 1_555 1_555
H19 C27 1_555 1_555
C28 C23 1_555 1_555
H20 C28 1_555 1_555
C29 H21 1_555 1_555
C30 C29 1_555 1_555
H22 C30 1_555 1_555
C31 H23 1_555 1_555
C32 C31 1_555 1_555
C33 C32 1_555 1_555
H24 C33 1_555 1_555
H25 C33 1_555 1_555
C34 C33 1_555 1_555
H26 C34 1_555 1_555
H27 C34 1_555 1_555
H28 C34 1_555 1_555
N1 C29 1_555 1_555
N2 C30 1_555 1_555
O1 C1 1_555 1_555
O2 C1 1_555 1_555
O3 C8 1_555 1_555
O4 C8 1_555 1_555
O5 C15 1_555 1_555
O6 C15 1_555 1_555
O7 C22 1_555 1_555
O8 C22 1_555 1_555
Rh1 N1 1_555 1_555
Rh2 N2 1_555 1_555
O2A Rh1 1_555 1_555
O4A Rh1 1_555 1_555
O6A Rh2 1_555 1_555
O8A Rh2 1_555 1_555
Rh1A O2 1_555 1_555
Rh2A O6 1_555 1_555
C6 C7 1_555 1_555
C13 C14 1_555 1_555
C20 C21 1_555 1_555
C27 C28 1_555 1_555
C31 N2 1_555 1_555
C32 N1 1_555 1_555
O1 Rh1 1_555 1_555
O3 Rh1 1_555 1_555
O4 Rh1A 1_555 1_555
O5 Rh2 1_555 1_555
O7 Rh2 1_555 1_555
O8 Rh2A 1_555 1_555
Rh1 Rh1A 1_555 1_555
Rh2 Rh2A 1_555 1_555

#END
