
#######################################################################
#
#                 Cambridge Crystallographic Data Centre
#                                CCDC 
#
#######################################################################
#
# If this CIF has been generated from an entry in the Cambridge 
# Structural Database, then it will include bibliographic, chemical, 
# crystal, experimental, refinement or atomic coordinate data resulting 
# from the CCDC's data processing and validation procedures.
#
#######################################################################

data_KELCIN01
_symmetry_cell_setting           orthorhombic
_symmetry_space_group_name_H-M   'I b a m'
_symmetry_Int_Tables_number      72
_space_group_name_Hall           '-I 2 2c'
loop_
_symmetry_equiv_pos_site_id
_symmetry_equiv_pos_as_xyz
1 x,y,z
2 1/2+x,1/2+y,1/2+z
3 -x,-y,z
4 1/2+x,1/2-y,-z
5 1/2-x,1/2-y,1/2+z
6 x,-y,1/2-z
7 1/2-x,1/2+y,-z
8 -x,y,1/2-z
9 -x,-y,-z
10 1/2-x,1/2-y,1/2-z
11 x,y,-z
12 1/2-x,1/2+y,z
13 1/2+x,1/2+y,1/2-z
14 -x,y,1/2+z
15 1/2+x,1/2-y,z
16 x,-y,1/2+z
_cell_length_a                   7.870(2)
_cell_length_b                   11.259(2)
_cell_length_c                   7.807(3)
_cell_angle_alpha                90
_cell_angle_beta                 90
_cell_angle_gamma                90
_cell_volume                     691.765
loop_
_atom_site_label
_atom_site_type_symbol
_atom_site_fract_x
_atom_site_fract_y
_atom_site_fract_z
Cu1 Cu 0.50000 0.00000 0.25000
N1 N 0.32992(14) 0.05847(9) 0.08735(15)
C1 C 0.19767(17) 0.12540(12) 0.13994(20)
C2 C 0.1108(3) 0.17064(17) 0.00000
H1 H 0.165(3) 0.1404(25) 0.262(3)
H2 H 0.024(4) 0.232(3) 0.00000
Cu1H Cu 0.50000 0.00000 -0.25000
Cu1H_2 Cu 0.50000 0.00000 0.75000
N1B N 0.67008(14) -0.05847(9) 0.08735(15)
N1E N 0.32992(14) -0.05847(9) 0.41265(15)
N1G N 0.67008(14) 0.05847(9) 0.41265(15)
N1J N 0.32992(14) 0.05847(9) -0.08735(15)
N1H N 0.67008(14) -0.05847(9) -0.08735(15)
N1O N 0.32992(14) -0.05847(9) 0.58735(15)
N1M N 0.67008(14) 0.05847(9) 0.58735(15)
N1M_2 N 0.67008(14) 0.05847(9) -0.41265(15)
N1O_2 N 0.32992(14) -0.05847(9) -0.41265(15)
C1J C 0.19767(17) 0.12540(12) -0.13994(20)
C1B C 0.80233(17) -0.12540(12) 0.13994(20)
C1E C 0.19767(17) -0.12540(12) 0.36006(20)
C1G C 0.80233(17) 0.12540(12) 0.36006(20)
C1H C 0.80233(17) -0.12540(12) -0.13994(20)
C1O C 0.19767(17) -0.12540(12) 0.63994(20)
C1M C 0.80233(17) 0.12540(12) 0.63994(20)
C2B C 0.8892(3) -0.17064(17) 0.00000
C2E C 0.1108(3) -0.17064(17) 0.50000
C2G C 0.8892(3) 0.17064(17) 0.50000
H1J H 0.165(3) 0.1404(25) -0.262(3)
H1B H 0.835(3) -0.1404(25) 0.262(3)
H1E H 0.165(3) -0.1404(25) 0.238(3)
H1G H 0.835(3) 0.1404(25) 0.238(3)
H1H H 0.835(3) -0.1404(25) -0.262(3)
H1O H 0.165(3) -0.1404(25) 0.762(3)
H1M H 0.835(3) 0.1404(25) 0.762(3)
H2B H 0.976(4) -0.232(3) 0.00000
H2E H 0.024(4) -0.232(3) 0.50000
H2G H 0.976(4) 0.232(3) 0.50000
loop_
_geom_bond_atom_site_label_1
_geom_bond_atom_site_label_2
_geom_bond_site_symmetry_1
_geom_bond_site_symmetry_2
Cu1 N1 1_555 1_555
N1 C1 1_555 1_555
C1 C2 1_555 1_555
C2 H2 1_555 1_555
H1 C1 1_555 1_555
Cu1H N1J 1_555 1_555
Cu1H_2 N1O 1_555 1_555
N1B Cu1 1_555 1_555
N1E Cu1 1_555 1_555
N1G Cu1 1_555 1_555
N1J N1 1_555 1_555
N1H Cu1H 1_555 1_555
N1O N1E 1_555 1_555
N1M Cu1H_2 1_555 1_555
N1M_2 Cu1H 1_555 1_555
N1O_2 Cu1H 1_555 1_555
C1J C2 1_555 1_555
C1B N1B 1_555 1_555
C1E N1E 1_555 1_555
C1G N1G 1_555 1_555
C1H N1H 1_555 1_555
C1O N1O 1_555 1_555
C1M N1M 1_555 1_555
C2B C1B 1_555 1_555
C2E C1E 1_555 1_555
C2G C1G 1_555 1_555
H1J C1J 1_555 1_555
H1B C1B 1_555 1_555
H1E C1E 1_555 1_555
H1G C1G 1_555 1_555
H1H C1H 1_555 1_555
H1O C1O 1_555 1_555
H1M C1M 1_555 1_555
H2B C2B 1_555 1_555
H2E C2E 1_555 1_555
H2G C2G 1_555 1_555
N1B N1H 1_555 1_555
N1G N1M 1_555 1_555
N1J C1J 1_555 1_555
C1H C2B 1_555 1_555
C1O C2E 1_555 1_555
C1M C2G 1_555 1_555

#END
