
#######################################################################
#
#                 Cambridge Crystallographic Data Centre
#                                CCDC 
#
#######################################################################
#
# If this CIF has been generated from an entry in the Cambridge 
# Structural Database, then it will include bibliographic, chemical, 
# crystal, experimental, refinement or atomic coordinate data resulting 
# from the CCDC's data processing and validation procedures.
#
#######################################################################

data_KELJIV
_symmetry_cell_setting           orthorhombic
_symmetry_space_group_name_H-M   'P n m a'
_symmetry_Int_Tables_number      62
_space_group_name_Hall           '-P 2ac 2n'
loop_
_symmetry_equiv_pos_site_id
_symmetry_equiv_pos_as_xyz
1 x,y,z
2 1/2-x,-y,1/2+z
3 -x,1/2+y,-z
4 1/2+x,1/2-y,1/2-z
5 -x,-y,-z
6 1/2+x,y,1/2-z
7 x,1/2-y,z
8 1/2-x,1/2+y,1/2+z
_cell_length_a                   11.6389(6)
_cell_length_b                   9.9663(5)
_cell_length_c                   12.3013(6)
_cell_angle_alpha                90
_cell_angle_beta                 90
_cell_angle_gamma                90
_cell_volume                     1426.91
loop_
_atom_site_label
_atom_site_type_symbol
_atom_site_fract_x
_atom_site_fract_y
_atom_site_fract_z
Cu3 Cu 0.99755(13) -0.2500 0.52952(16)
Cu4 Cu 0.95523(7) -0.2500 0.78117(8)
Cl1 Cl 0.85434(14) -0.2500 0.44180(13)
N4 N 1.1252(7) -0.2500 0.6239(7)
N5 N 1.1090(6) -0.2500 0.7329(6)
N6 N 1.2949(5) -0.2500 0.7033(5)
C3 C 1.2382(7) -0.2500 0.6076(7)
H3 H 1.2741 -0.2500 0.5382
C4 C 1.2106(6) -0.2500 0.7768(5)
H4 H 1.2235 -0.2500 0.8530
Cu4E Cu 1.45523(7) -0.2500 0.71883(8)
N6E N 0.7949(5) -0.2500 0.7967(5)
Cu1 Cu 1.0000 0.0000 0.5000
Cu2 Cu 1.08120(5) 0.08367(7) 0.75287(6)
N1 N 0.8937(3) 0.0358(5) 0.6101(4)
N2 N 0.9262(3) 0.0720(4) 0.7127(3)
N3 N 0.7360(3) 0.0716(4) 0.7056(3)
C1 C 0.7801(4) 0.0367(5) 0.6092(4)
H1 H 0.7350 0.0151 0.5473
C2 C 0.8305(4) 0.0905(4) 0.7675(4)
H2 H 0.8281 0.1144 0.8423
Cu2D Cu 0.91880(5) -0.08367(7) 0.24713(6)
Cu2E Cu 0.58120(5) 0.08367(7) 0.74713(6)
Cu2A Cu 1.41880(5) -0.08367(7) 0.25287(6)
N1D N 1.1063(3) -0.0358(5) 0.3899(4)
N2D N 1.0738(3) -0.0720(4) 0.2873(3)
N3D N 1.2640(3) -0.0716(4) 0.2944(3)
N3E N 1.2360(3) 0.0716(4) 0.7944(3)
N3A N 0.7640(3) -0.0716(4) 0.2056(3)
C1D C 1.2199(4) -0.0367(5) 0.3908(4)
H1D H 1.2650 -0.0151 0.4527
C2D C 1.1695(4) -0.0905(4) 0.2325(4)
H2D H 1.1719 -0.1144 0.1577
loop_
_geom_bond_atom_site_label_1
_geom_bond_atom_site_label_2
_geom_bond_site_symmetry_1
_geom_bond_site_symmetry_2
Cu1 N1 1_555 1_555
Cu2 N2 1_555 1_555
Cu3 Cl1 1_555 1_555
Cu4 N5 1_555 1_555
N1 N2 1_555 1_555
N2 C2 1_555 1_555
N3 C1 1_555 1_555
N4 Cu3 1_555 1_555
N5 N4 1_555 1_555
N6 C3 1_555 1_555
C1 N1 1_555 1_555
H1 C1 1_555 1_555
C2 N3 1_555 1_555
H2 C2 1_555 1_555
C3 N4 1_555 1_555
H3 C3 1_555 1_555
C4 N5 1_555 1_555
H4 C4 1_555 1_555
Cu2D N2D 1_555 1_555
Cu2E N3 1_555 1_555
Cu2A N3D 1_555 1_555
Cu4E N6 1_555 1_555
N1D Cu1 1_555 1_555
N2D N1D 1_555 1_555
N3D C1D 1_555 1_555
N3E Cu2 1_555 1_555
N3A Cu2D 1_555 1_555
N6E Cu4 1_555 1_555
C1D N1D 1_555 1_555
H1D C1D 1_555 1_555
C2D N2D 1_555 1_555
H2D C2D 1_555 1_555
N6 C4 1_555 1_555
N3D C2D 1_555 1_555

#END
