
#######################################################################
#
#                 Cambridge Crystallographic Data Centre
#                                CCDC 
#
#######################################################################
#
# If this CIF has been generated from an entry in the Cambridge 
# Structural Database, then it will include bibliographic, chemical, 
# crystal, experimental, refinement or atomic coordinate data resulting 
# from the CCDC's data processing and validation procedures.
#
#######################################################################

data_KELSOK
_symmetry_cell_setting           triclinic
_symmetry_space_group_name_H-M   'P -1'
_symmetry_Int_Tables_number      2
_space_group_name_Hall           '-P 1'
loop_
_symmetry_equiv_pos_site_id
_symmetry_equiv_pos_as_xyz
1 x,y,z
2 -x,-y,-z
_cell_length_a                   9.4824(8)
_cell_length_b                   15.3329(14)
_cell_length_c                   17.1115(15)
_cell_angle_alpha                95.811(2)
_cell_angle_beta                 91.459(2)
_cell_angle_gamma                106.558(2)
_cell_volume                     2368.61
loop_
_atom_site_label
_atom_site_type_symbol
_atom_site_fract_x
_atom_site_fract_y
_atom_site_fract_z
C33 C 0.8214(6) 0.2776(3) 0.6307(4)
H45 H 0.9118 0.2636 0.6232
C34 C 0.7494(6) 0.3032(3) 0.5676(3)
C36 C 0.7620(7) 0.2731(4) 0.7021(4)
H49 H 0.8120 0.2558 0.7440
C37 C 0.6174(6) 0.3228(3) 0.5827(5)
H50 H 0.5686 0.3431 0.5421
C39 C 0.8172(7) 0.3111(5) 0.4935(4)
H54 H 0.7469 0.3183 0.4535
H55 H 0.8464 0.2558 0.4778
H56 H 0.9045 0.3646 0.4987
C40 C 0.6292(8) 0.2931(5) 0.7155(5)
H57 H 0.5913 0.2923 0.7663
C45 C 0.5553(9) 0.3139(5) 0.6540(6)
H70 H 0.4606 0.3222 0.6606
O1 O 0.3162(3) 0.14595(17) 0.33816(15)
O2 O 0.1702(3) -0.03154(18) 0.26647(15)
O3 O 0.1020(3) 0.0050(2) 0.44143(16)
O4 O 0.4109(3) 0.00392(18) 0.43421(16)
N1 N 0.4651(3) 0.0657(2) 0.21200(18)
C1 C 0.5558(4) 0.2148(3) 0.2972(2)
C2 C 0.4233(4) 0.2215(3) 0.3300(2)
C3 C 0.5251(4) 0.3862(3) 0.3396(2)
H1 H 0.5142 0.4454 0.3539
C4 C 0.1764(5) -0.2206(3) 0.0741(2)
C5 C 0.0347(4) -0.1516(3) 0.1680(2)
C6 C 0.6568(4) 0.3808(3) 0.3081(2)
N2 N 0.2557(4) 0.1231(2) 0.1197(2)
C7 C 0.2656(4) 0.3223(3) 0.3868(2)
C8 C 0.1679(4) -0.0913(3) 0.2042(2)
C9 C 0.3023(4) -0.0955(3) 0.1730(2)
C10 C 0.5734(4) 0.1207(3) 0.2753(2)
H2 H 0.6742 0.1271 0.2578
H3 H 0.5618 0.0875 0.3226
C11 C 0.6682(4) 0.2934(3) 0.2865(2)
H4 H 0.7554 0.2870 0.2636
C12 C 0.3042(4) -0.1596(3) 0.1099(2)
H5 H 0.3964 -0.1618 0.0906
C13 C 0.4895(5) -0.0630(3) 0.4335(2)
H6 H 0.5862 -0.0392 0.4109
H7 H 0.4333 -0.1192 0.3999
C14 C 0.4079(4) 0.3104(3) 0.3514(2)
C15 C 0.5011(4) 0.0976(3) 0.1350(2)
H8 H 0.5659 0.0642 0.1095
H9 H 0.5558 0.1635 0.1425
C16 C -0.1152(4) -0.1509(3) 0.2008(2)
C17 C 0.1347(4) 0.2781(3) 0.3271(3)
H10 H 0.1477 0.3108 0.2802
H11 H 0.0432 0.2815 0.3508
H12 H 0.1296 0.2138 0.3122
C18 C 0.0446(5) -0.2132(3) 0.1045(2)
H13 H -0.0448 -0.2532 0.0801
C19 C 0.7792(5) 0.4683(3) 0.2986(3)
C20 C 0.2400(5) 0.2774(3) 0.4635(2)
H14 H 0.2345 0.2125 0.4530
H15 H 0.1475 0.2832 0.4845
H16 H 0.3218 0.3080 0.5021
C21 C 0.4448(4) -0.0340(3) 0.2126(2)
H17 H 0.4500 -0.0470 0.2679
H18 H 0.5277 -0.0496 0.1864
C22 C 0.0672(5) -0.0696(3) 0.4894(2)
H19 H 0.1544 -0.0919 0.4962
H20 H -0.0139 -0.1207 0.4629
C23 C 0.2715(5) 0.4232(3) 0.4069(3)
H21 H 0.3540 0.4532 0.4452
H22 H 0.1791 0.4269 0.4293
H23 H 0.2853 0.4540 0.3590
C24 C 0.3642(5) 0.0833(3) 0.0817(2)
H24 H 0.3928 0.1116 0.0329
H25 H 0.3185 0.0168 0.0671
C25 C 0.4877(5) 0.0855(3) 0.4849(2)
H26 H 0.4299 0.1301 0.4863
H27 H 0.5844 0.1140 0.4639
C26 C -0.1183(5) -0.1791(3) 0.2847(3)
H28 H -0.2100 -0.1751 0.3079
H29 H -0.0340 -0.1380 0.3169
H30 H -0.1129 -0.2422 0.2827
C27 C -0.2452(5) -0.2182(3) 0.1521(3)
H31 H -0.2389 -0.2807 0.1536
H32 H -0.2427 -0.2039 0.0975
H33 H -0.3376 -0.2133 0.1738
C28 C -0.1380(5) -0.0554(3) 0.2026(3)
H34 H -0.1471 -0.0406 0.1486
H35 H -0.0534 -0.0097 0.2310
H36 H -0.2280 -0.0548 0.2293
C29 C 0.3066(5) 0.2236(3) 0.1237(3)
H37 H 0.3211 0.2416 0.0705
H38 H 0.4000 0.2468 0.1553
H39 H 0.2327 0.2493 0.1481
C30 C -0.0223(5) 0.0388(3) 0.4319(2)
H40 H -0.1053 -0.0101 0.4040
H41 H 0.0031 0.0907 0.3998
C31 C 0.1748(5) -0.2929(3) 0.0057(3)
C32 C 0.1141(5) 0.0882(4) 0.0753(3)
H42 H 0.0415 0.1137 0.1014
H43 H 0.0810 0.0213 0.0727
H44 H 0.1247 0.1061 0.0219
Li1 Li 0.2644(7) 0.0840(5) 0.2349(4)
C35 C 0.3300(6) -0.2950(3) -0.0148(3)
H46 H 0.3792 -0.3111 0.0303
H47 H 0.3867 -0.2345 -0.0277
H48 H 0.3236 -0.3407 -0.0602
C38 C 0.9174(7) 0.4511(4) 0.2723(6)
H51 H 0.9570 0.4213 0.3121
H52 H 0.9896 0.5094 0.2651
H53 H 0.8972 0.4112 0.2224
Li2 Li 0.2548(7) 0.0256(4) 0.3631(4)
C41 C 0.1044(8) -0.2669(6) -0.0691(4)
H58 H 0.1088 -0.3100 -0.1147
H59 H 0.1591 -0.2046 -0.0786
H60 H 0.0014 -0.2698 -0.0606
C42 C 0.7291(9) 0.5134(5) 0.2301(5)
H61 H 0.7258 0.4747 0.1804
H62 H 0.7990 0.5738 0.2274
H63 H 0.6308 0.5200 0.2390
C43 C 0.7973(9) 0.5372(5) 0.3652(5)
H64 H 0.7022 0.5482 0.3753
H65 H 0.8683 0.5942 0.3537
H66 H 0.8337 0.5159 0.4116
C44 C 0.0915(8) -0.3861(4) 0.0248(5)
H67 H 0.1363 -0.3994 0.0728
H68 H 0.0948 -0.4319 -0.0189
H69 H -0.0112 -0.3881 0.0330
C13A C 0.5105(5) 0.0630(3) 0.5665(2)
C22A C -0.0672(5) 0.0696(3) 0.5106(2)
C25A C 0.5123(5) -0.0855(3) 0.5151(2)
C30A C 0.0223(5) -0.0388(3) 0.5681(2)
C46? C 0.413(2) 0.4805(9) 0.0614(8)
C47? C 0.632(2) 0.5674(10) 0.0007(19)
H71? H 0.7227 0.6145 0.0057
C48? C 0.524(3) 0.5458(13) 0.0773(14)
H72? H 0.5460 0.5806 0.1276
C49? C 0.3053(15) 0.4623(8) 0.1503(8)
H73? H 0.2049 0.4237 0.1349
H74? H 0.3018 0.5215 0.1763
H75? H 0.3522 0.4320 0.1865
loop_
_geom_bond_atom_site_label_1
_geom_bond_atom_site_label_2
_geom_bond_site_symmetry_1
_geom_bond_site_symmetry_2
O1 C2 1_555 1_555
O2 C8 1_555 1_555
O3 C22 1_555 1_555
O4 C13 1_555 1_555
N1 C10 1_555 1_555
C1 C2 1_555 1_555
C2 C14 1_555 1_555
C3 H1 1_555 1_555
C4 C12 1_555 1_555
C5 C8 1_555 1_555
C6 C3 1_555 1_555
N2 C24 1_555 1_555
C7 C14 1_555 1_555
C8 C9 1_555 1_555
C9 C12 1_555 1_555
C10 C1 1_555 1_555
H2 C10 1_555 1_555
H3 C10 1_555 1_555
C11 C1 1_555 1_555
H4 C11 1_555 1_555
C12 H5 1_555 1_555
C13 H6 1_555 1_555
H7 C13 1_555 1_555
C14 C3 1_555 1_555
C15 N1 1_555 1_555
H8 C15 1_555 1_555
H9 C15 1_555 1_555
C16 C5 1_555 1_555
C17 C7 1_555 1_555
H10 C17 1_555 1_555
H11 C17 1_555 1_555
H12 C17 1_555 1_555
C18 C4 1_555 1_555
H13 C18 1_555 1_555
C19 C6 1_555 1_555
C20 C7 1_555 1_555
H14 C20 1_555 1_555
H15 C20 1_555 1_555
H16 C20 1_555 1_555
C21 N1 1_555 1_555
H17 C21 1_555 1_555
H18 C21 1_555 1_555
C22 H19 1_555 1_555
H20 C22 1_555 1_555
C23 C7 1_555 1_555
H21 C23 1_555 1_555
H22 C23 1_555 1_555
H23 C23 1_555 1_555
C24 C15 1_555 1_555
H24 C24 1_555 1_555
H25 C24 1_555 1_555
C25 O4 1_555 1_555
H26 C25 1_555 1_555
H27 C25 1_555 1_555
C26 C16 1_555 1_555
H28 C26 1_555 1_555
H29 C26 1_555 1_555
H30 C26 1_555 1_555
C27 C16 1_555 1_555
H31 C27 1_555 1_555
H32 C27 1_555 1_555
H33 C27 1_555 1_555
C28 C16 1_555 1_555
H34 C28 1_555 1_555
H35 C28 1_555 1_555
H36 C28 1_555 1_555
C29 N2 1_555 1_555
H37 C29 1_555 1_555
H38 C29 1_555 1_555
H39 C29 1_555 1_555
C30 O3 1_555 1_555
H40 C30 1_555 1_555
H41 C30 1_555 1_555
C31 C4 1_555 1_555
C32 N2 1_555 1_555
H42 C32 1_555 1_555
H43 C32 1_555 1_555
H44 C32 1_555 1_555
C33 H45 1_555 1_555
C34 C33 1_555 1_555
Li1 O1 1_555 1_555
C35 C31 1_555 1_555
H46 C35 1_555 1_555
H47 C35 1_555 1_555
H48 C35 1_555 1_555
C36 C33 1_555 1_555
H49 C36 1_555 1_555
C37 C34 1_555 1_555
H50 C37 1_555 1_555
C38 C19 1_555 1_555
H51 C38 1_555 1_555
H52 C38 1_555 1_555
H53 C38 1_555 1_555
C39 C34 1_555 1_555
H54 C39 1_555 1_555
H55 C39 1_555 1_555
H56 C39 1_555 1_555
Li2 O1 1_555 1_555
C40 C36 1_555 1_555
H57 C40 1_555 1_555
C41 C31 1_555 1_555
H58 C41 1_555 1_555
H59 C41 1_555 1_555
H60 C41 1_555 1_555
C42 C19 1_555 1_555
H61 C42 1_555 1_555
H62 C42 1_555 1_555
H63 C42 1_555 1_555
C43 C19 1_555 1_555
H64 C43 1_555 1_555
H65 C43 1_555 1_555
H66 C43 1_555 1_555
C44 C31 1_555 1_555
H67 C44 1_555 1_555
H68 C44 1_555 1_555
H69 C44 1_555 1_555
C45 C37 1_555 1_555
H70 C45 1_555 1_555
C13A C25 1_555 1_555
C22A C30 1_555 1_555
C25A C13 1_555 1_555
C30A C22 1_555 1_555
O2 Li1 1_555 1_555
O2 Li2 1_555 1_555
O3 Li2 1_555 1_555
O4 Li2 1_555 1_555
N1 Li1 1_555 1_555
C5 C18 1_555 1_555
C6 C11 1_555 1_555
N2 Li1 1_555 1_555
C9 C21 1_555 1_555
C40 C45 1_555 1_555

#END
