
#######################################################################
#
#                 Cambridge Crystallographic Data Centre
#                                CCDC 
#
#######################################################################
#
# If this CIF has been generated from an entry in the Cambridge 
# Structural Database, then it will include bibliographic, chemical, 
# crystal, experimental, refinement or atomic coordinate data resulting 
# from the CCDC's data processing and validation procedures.
#
#######################################################################

data_KEMGOA
_symmetry_cell_setting           triclinic
_symmetry_space_group_name_H-M   'P -1'
_symmetry_Int_Tables_number      2
_space_group_name_Hall           '-P 1'
loop_
_symmetry_equiv_pos_site_id
_symmetry_equiv_pos_as_xyz
1 x,y,z
2 -x,-y,-z
_cell_length_a                   10.718(2)
_cell_length_b                   12.514(3)
_cell_length_c                   7.1932(14)
_cell_angle_alpha                86.34(3)
_cell_angle_beta                 104.29(3)
_cell_angle_gamma                113.08(3)
_cell_volume                     859.516
loop_
_atom_site_label
_atom_site_type_symbol
_atom_site_fract_x
_atom_site_fract_y
_atom_site_fract_z
Pd1 Pd 0.09106(7) -0.80846(6) -0.25585(12)
Co1 Co -0.42537(15) -0.85036(13) -0.2404(2)
O1 O -0.3116(7) -0.9598(6) -0.2271(10)
N1 N -0.0860(8) -0.9314(7) -0.2472(12)
O2 O 0.4898(7) -0.7261(6) -0.2570(11)
O3 O -0.4691(7) -0.8698(6) -0.5356(10)
O4 O -0.0170(7) -0.7032(6) -0.2569(12)
O5 O 0.2946(7) -0.7035(6) -0.2573(11)
O6 O 0.3611(7) -0.9603(6) -0.2532(10)
O7 O -0.2313(7) -0.7260(6) -0.2432(11)
N2 N 0.1558(8) -0.9328(7) -0.2536(11)
O8 O -0.3836(8) -0.8461(6) 0.0532(11)
C1 C 0.2905(10) -0.8988(9) -0.2529(14)
C2 C -0.1867(10) -0.8973(9) -0.2383(14)
C3 C 0.0502(10) -1.0447(9) -0.2505(14)
C4 C 0.3633(9) -0.7667(9) -0.2564(14)
C5 C -0.0811(10) -1.0432(8) -0.2442(14)
C6 C -0.0488(11) -1.2531(9) -0.2454(16)
H1 H -0.0394 -1.3239 -0.2466
C7 C -0.1751(11) -1.2512(9) -0.2341(16)
H2 H -0.2499 -1.3205 -0.2274
C8 C -0.1411(10) -0.7651(9) -0.2474(15)
C9 C -0.1903(10) -1.1475(9) -0.2326(15)
H3 H -0.2753 -1.1472 -0.2237
C10 C 0.0650(10) -1.1493(9) -0.2549(15)
H4 H 0.1493 -1.1509 -0.2641
H11 H -0.408(14) -0.918(3) 0.097(7)
H12 H -0.462(15) -0.801(4) -0.586(7)
H13 H -0.439(11) -0.818(11) 0.092(7)
H14 H -0.558(5) -0.917(10) -0.583(7)
Co1_2 Co 0.57463(15) -0.85036(13) -0.2404(2)
O2_2 O -0.5102(7) -0.7261(6) -0.2570(11)
O6_2 O -0.6389(7) -0.9603(6) -0.2532(10)
S1 S -0.4115(3) -0.5760(2) 0.2164(5)
O9 O -0.4756(9) -0.7088(7) 0.2096(12)
C11 C -0.2778(16) -0.5369(12) 0.089(2)
H5 H -0.2153 -0.5749 0.1422
H6 H -0.2268 -0.4542 0.0998
H7 H -0.3193 -0.5605 -0.0439
C12 C -0.309(2) -0.5338(13) 0.452(2)
H8 H -0.3665 -0.5672 0.5415
H9 H -0.2714 -0.4506 0.4671
H10 H -0.2344 -0.5606 0.4767
loop_
_geom_bond_atom_site_label_1
_geom_bond_atom_site_label_2
_geom_bond_site_symmetry_1
_geom_bond_site_symmetry_2
Pd1 N1 1_555 1_555
Co1 O1 1_555 1_555
S1 O9 1_555 1_555
O1 C2 1_555 1_555
N1 C2 1_555 1_555
O2 C4 1_555 1_555
O3 Co1 1_555 1_555
O4 Pd1 1_555 1_555
O5 Pd1 1_555 1_555
O6 C1 1_555 1_555
O7 Co1 1_555 1_555
N2 Pd1 1_555 1_555
O8 Co1 1_555 1_555
C1 N2 1_555 1_555
C2 C8 1_555 1_555
C3 N2 1_555 1_555
C4 O5 1_555 1_555
C5 N1 1_555 1_555
C6 H1 1_555 1_555
C7 C6 1_555 1_555
H2 C7 1_555 1_555
C8 O4 1_555 1_555
C9 C5 1_555 1_555
H3 C9 1_555 1_555
C10 C3 1_555 1_555
H4 C10 1_555 1_555
C11 S1 1_555 1_555
H5 C11 1_555 1_555
H6 C11 1_555 1_555
H7 C11 1_555 1_555
C12 S1 1_555 1_555
H8 C12 1_555 1_555
H9 C12 1_555 1_555
H10 C12 1_555 1_555
H11 O8 1_555 1_555
H12 O3 1_555 1_555
H13 O8 1_555 1_555
H14 O3 1_555 1_555
Co1_2 O2 1_555 1_555
O2_2 Co1 1_555 1_555
O6_2 Co1 1_555 1_555
O6 Co1_2 1_555 1_555
O7 C8 1_555 1_555
C1 C4 1_555 1_555
C3 C5 1_555 1_555
C6 C10 1_555 1_555
C7 C9 1_555 1_555

#END
