
#######################################################################
#
#                 Cambridge Crystallographic Data Centre
#                                CCDC 
#
#######################################################################
#
# If this CIF has been generated from an entry in the Cambridge 
# Structural Database, then it will include bibliographic, chemical, 
# crystal, experimental, refinement or atomic coordinate data resulting 
# from the CCDC's data processing and validation procedures.
#
#######################################################################

data_KEMLIZ
_symmetry_cell_setting           triclinic
_symmetry_space_group_name_H-M   'P -1'
_symmetry_Int_Tables_number      2
_space_group_name_Hall           '-P 1'
loop_
_symmetry_equiv_pos_site_id
_symmetry_equiv_pos_as_xyz
1 x,y,z
2 -x,-y,-z
_cell_length_a                   11.1872(3)
_cell_length_b                   14.6275(4)
_cell_length_c                   14.9571(4)
_cell_angle_alpha                103.113(2)
_cell_angle_beta                 107.710(2)
_cell_angle_gamma                96.277(2)
_cell_volume                     2228.45
loop_
_atom_site_label
_atom_site_type_symbol
_atom_site_fract_x
_atom_site_fract_y
_atom_site_fract_z
Cu1 Cu 0.0000 0.0000 0.0000
Cu2 Cu -0.071027(18) 0.158473(14) -0.172002(13)
O1 O -0.10716(11) 0.28518(8) -0.17885(8)
H1 H -0.1801 0.2897 -0.2150
H2 H -0.0749 0.3376 -0.1345
N1 N -0.05263(12) -0.04408(10) -0.14797(9)
N2 N -0.07891(12) 0.01485(10) -0.20855(9)
N3 N -0.09988(12) -0.13006(9) -0.29834(9)
N4 N -0.12728(13) -0.12541(11) -0.73521(10)
N5 N -0.02382(13) -0.16905(10) -0.73537(9)
N6 N -0.10506(12) -0.21519(10) -0.63385(9)
N7 N -0.13104(12) -0.11135(10) -0.00813(9)
N8 N -0.10873(13) -0.17342(10) 0.04916(9)
N9 N -0.30808(12) -0.21434(10) -0.04881(9)
N10 N -0.83252(12) -0.15774(10) 0.07968(9)
N11 N -0.84058(13) -0.09453(10) 0.02326(9)
N12 N -0.73267(12) -0.20190(10) -0.02295(9)
C1 C -0.06680(15) -0.13085(12) -0.20348(11)
H3 H -0.0556 -0.1859 -0.1806
C2 C -0.10720(15) -0.03831(11) -0.29763(11)
H4 H -0.1298 -0.0157 -0.3541
C3 C -0.17438(16) -0.15492(13) -0.67458(12)
H5 H -0.2472 -0.1368 -0.6607
C4 C -0.01203(15) -0.22191(12) -0.67417(11)
H6 H 0.0521 -0.2592 -0.6603
C5 C -0.12194(15) -0.21272(11) -0.38479(10)
C6 C -0.10326(15) -0.17290(11) -0.46699(11)
H7 H -0.1652 -0.1309 -0.4840
H8 H -0.0158 -0.1347 -0.4456
C7 C -0.12407(15) -0.25730(11) -0.55610(11)
C8 C -0.26021(15) -0.31528(12) -0.59029(11)
H9 H -0.3232 -0.2741 -0.6079
H10 H -0.2743 -0.3689 -0.6486
C9 C -0.27728(16) -0.35414(12) -0.50690(11)
H11 H -0.3657 -0.3926 -0.5286
C10 C -0.25838(15) -0.27017(12) -0.41743(11)
H12 H -0.2713 -0.2946 -0.3639
H13 H -0.3212 -0.2288 -0.4346
C11 C -0.02348(15) -0.27573(12) -0.35785(11)
H14 H 0.0641 -0.2378 -0.3365
H15 H -0.0330 -0.3002 -0.3034
C12 C -0.04492(16) -0.35958(12) -0.44752(11)
H16 H 0.0186 -0.4013 -0.4302
C13 C -0.02654(16) -0.32085(12) -0.53082(11)
H17 H -0.0392 -0.3746 -0.5887
H18 H 0.0612 -0.2835 -0.5101
C14 C -0.17990(17) -0.41807(12) -0.47965(12)
H19 H -0.1934 -0.4731 -0.5366
H20 H -0.1913 -0.4431 -0.4260
C15 C -0.25090(15) -0.13743(12) -0.06642(11)
H21 H -0.2912 -0.1067 -0.1138
C16 C -0.21582(15) -0.23389(13) 0.02375(12)
H22 H -0.2277 -0.2846 0.0520
C17 C -0.76766(15) -0.22114(12) 0.05056(11)
H23 H -0.7483 -0.2729 0.0774
C18 C -0.77951(15) -0.12217(12) -0.03657(12)
H24 H -0.7691 -0.0908 -0.0835
C19 C -0.44541(14) -0.26245(12) -0.09193(11)
C20 C -0.51876(14) -0.20570(11) -0.03469(11)
H25 H -0.4832 -0.2031 0.0353
H26 H -0.5111 -0.1394 -0.0406
C21 C -0.65965(14) -0.25621(11) -0.07715(11)
C22 C -0.71485(15) -0.25883(12) -0.18486(11)
H27 H -0.8062 -0.2902 -0.2117
H28 H -0.7087 -0.1928 -0.1915
C23 C -0.63981(15) -0.31447(13) -0.24163(12)
H29 H -0.6754 -0.3157 -0.3119
C24 C -0.49804(15) -0.26413(13) -0.19959(11)
H30 H -0.4903 -0.1980 -0.2059
H31 H -0.4487 -0.2990 -0.2361
C25 C -0.45642(15) -0.36447(12) -0.08241(12)
H32 H -0.4068 -0.4003 -0.1179
H33 H -0.4212 -0.3634 -0.0128
C26 C -0.59788(15) -0.41381(12) -0.12524(12)
H34 H -0.6056 -0.4807 -0.1192
C27 C -0.67131(15) -0.35797(12) -0.06727(12)
H35 H -0.6357 -0.3566 0.0023
H36 H -0.7625 -0.3896 -0.0926
C28 C -0.65235(16) -0.41628(13) -0.23312(12)
H37 H -0.7434 -0.4483 -0.2607
H38 H -0.6050 -0.4528 -0.2702
Cu1_2 Cu -1.0000 0.0000 0.0000
Cu1_3 Cu 1.0000 0.0000 0.0000
Cu2A Cu 0.071027(18) -0.158473(14) 0.172002(13)
Cu2A_2 Cu 0.071027(18) -0.158473(14) -0.827998(13)
Cu2A_3 Cu -0.928973(18) -0.158473(14) 0.172002(13)
Cu2_2 Cu -0.071027(18) 0.158473(14) 0.827998(13)
Cu2_3 Cu 0.928973(18) 0.158473(14) -0.172002(13)
O1A O 0.10716(11) -0.28518(8) 0.17885(8)
H1A H 0.1801 -0.2897 0.2150
H2A H 0.0749 -0.3376 0.1345
N1A N 0.05263(12) 0.04408(10) 0.14797(9)
N2A N 0.07891(12) -0.01485(10) 0.20855(9)
N3A N 0.09988(12) 0.13006(9) 0.29834(9)
N4A N 0.12728(13) 0.12541(11) 0.73521(10)
N5A N 0.02382(13) 0.16905(10) 0.73537(9)
N5A_2 N 0.02382(13) 0.16905(10) -0.26463(9)
N5_2 N -0.02382(13) -0.16905(10) 0.26463(9)
N6A N 0.10506(12) 0.21519(10) 0.63385(9)
N7A N 0.13104(12) 0.11135(10) 0.00813(9)
N8A N 0.10873(13) 0.17342(10) -0.04916(9)
N9A N 0.30808(12) 0.21434(10) 0.04881(9)
N10A N 0.83252(12) 0.15774(10) -0.07968(9)
N10A_2 N -0.16748(12) 0.15774(10) -0.07968(9)
N10_2 N 0.16748(12) -0.15774(10) 0.07968(9)
N11A N 0.84058(13) 0.09453(10) -0.02326(9)
N11_2 N 0.15942(13) -0.09453(10) 0.02326(9)
N11A_2 N -0.15942(13) 0.09453(10) -0.02326(9)
N12A N 0.73267(12) 0.20190(10) 0.02295(9)
C1A C 0.06680(15) 0.13085(12) 0.20348(11)
H3A H 0.0556 0.1859 0.1806
C2A C 0.10720(15) 0.03831(11) 0.29763(11)
H4A H 0.1298 0.0157 0.3541
C3A C 0.17438(16) 0.15492(13) 0.67458(12)
H5A H 0.2472 0.1368 0.6607
C4A C 0.01203(15) 0.22191(12) 0.67417(11)
H6A H -0.0521 0.2592 0.6603
C5A C 0.12194(15) 0.21272(11) 0.38479(10)
C6A C 0.10326(15) 0.17290(11) 0.46699(11)
H7A H 0.1652 0.1309 0.4840
H8A H 0.0158 0.1347 0.4456
C7A C 0.12407(15) 0.25730(11) 0.55610(11)
C8A C 0.26021(15) 0.31528(12) 0.59029(11)
H9A H 0.3232 0.2741 0.6079
H10A H 0.2743 0.3689 0.6486
C9A C 0.27728(16) 0.35414(12) 0.50690(11)
H11A H 0.3657 0.3926 0.5286
C10A C 0.25838(15) 0.27017(12) 0.41743(11)
H12A H 0.2713 0.2946 0.3639
H13A H 0.3212 0.2288 0.4346
C11A C 0.02348(15) 0.27573(12) 0.35785(11)
H14A H -0.0641 0.2378 0.3365
H15A H 0.0330 0.3002 0.3034
C12A C 0.04492(16) 0.35958(12) 0.44752(11)
H16A H -0.0186 0.4013 0.4302
C13A C 0.02654(16) 0.32085(12) 0.53082(11)
H17A H 0.0392 0.3746 0.5887
H18A H -0.0612 0.2835 0.5101
C14A C 0.17990(17) 0.41807(12) 0.47965(12)
H19A H 0.1934 0.4731 0.5366
H20A H 0.1913 0.4431 0.4260
C15A C 0.25090(15) 0.13743(12) 0.06642(11)
H21A H 0.2912 0.1067 0.1138
C16A C 0.21582(15) 0.23389(13) -0.02375(12)
H22A H 0.2277 0.2846 -0.0520
C17A C 0.76766(15) 0.22114(12) -0.05056(11)
H23A H 0.7483 0.2729 -0.0774
C18A C 0.77951(15) 0.12217(12) 0.03657(12)
H24A H 0.7691 0.0908 0.0835
C19A C 0.44541(14) 0.26245(12) 0.09193(11)
C20A C 0.51876(14) 0.20570(11) 0.03469(11)
H25A H 0.4832 0.2031 -0.0353
H26A H 0.5111 0.1394 0.0406
C21A C 0.65965(14) 0.25621(11) 0.07715(11)
C22A C 0.71485(15) 0.25883(12) 0.18486(11)
H27A H 0.8062 0.2902 0.2117
H28A H 0.7087 0.1928 0.1915
C23A C 0.63981(15) 0.31447(13) 0.24163(12)
H29A H 0.6754 0.3157 0.3119
C24A C 0.49804(15) 0.26413(13) 0.19959(11)
H30A H 0.4903 0.1980 0.2059
H31A H 0.4487 0.2990 0.2361
C25A C 0.45642(15) 0.36447(12) 0.08241(12)
H32A H 0.4068 0.4003 0.1179
H33A H 0.4212 0.3634 0.0128
C26A C 0.59788(15) 0.41381(12) 0.12524(12)
H34A H 0.6056 0.4807 0.1192
C27A C 0.67131(15) 0.35797(12) 0.06727(12)
H35A H 0.6357 0.3566 -0.0023
H36A H 0.7625 0.3896 0.0926
C28A C 0.65235(16) 0.41628(13) 0.23312(12)
H37A H 0.7434 0.4483 0.2607
H38A H 0.6050 0.4528 0.2702
S1 S 0.57950(4) 0.16792(3) 0.67564(3)
O2 O 0.50018(13) 0.15982(11) 0.73665(10)
O3 O 0.49763(13) 0.14463(10) 0.57280(9)
O4 O 0.65144(12) 0.26781(9) 0.70558(9)
O5 O 0.67275(12) 0.10384(9) 0.68781(9)
O10 O 0.63224(12) -0.06923(9) 0.73970(9)
H39 H 0.6415 -0.0176 0.7234
H40 H 0.5785 -0.1116 0.6910
O11 O 0.29174(12) -0.00598(9) 0.48647(9)
H41 H 0.3129 -0.0410 0.4423
H42 H 0.3534 0.0407 0.5192
O12 O 0.55412(12) 0.19521(9) 0.42251(9)
H43 H 0.5399 0.1793 0.4701
H44 H 0.6201 0.1748 0.4159
O13 O 0.80035(12) 0.36356(10) 0.62189(10)
H45 H 0.7474 0.3363 0.6426
H46 H 0.7583 0.3797 0.5721
O14 O 0.40819(13) 0.60708(10) 0.52990(10)
H47 H 0.4566 0.5840 0.5714
H48 H 0.4283 0.6677 0.5503
O15 O 0.24007(13) -0.02901(10) 0.79176(10)
H49 H 0.3202 -0.0076 0.8165
H50 H 0.2024 0.0182 0.7892
O16 O 0.49925(13) 0.03214(10) 0.84742(9)
H51 H 0.5321 -0.0102 0.8191
H52 H 0.5003 0.0786 0.8222
O17 O 0.76699(13) 0.12178(10) 0.40305(10)
H53 H 0.7711 0.0930 0.3482
H54 H 0.7549 0.0803 0.4326
O18 O 0.59377(14) 0.53092(10) 0.64224(11)
H55 H 0.5768 0.5041 0.6829
H56 H 0.6041 0.4885 0.5974
O19 O 0.57810(18) 0.43260(12) 0.77613(11)
H57 H 0.6469 0.4507 0.8250
H58 H 0.5800 0.3783 0.7415
O20 O 0.41182(18) 0.31833(15) 0.83148(11)
H59 H 0.4280 0.2648 0.8067
H60 H 0.4569 0.3619 0.8199
O21 O 0.7939(3) 0.61422(19) 1.13907(19)
O22 O 0.8280(3) 0.6662(2) 0.8110(2)
O23 O 0.9720(3) 0.5166(3) 1.2290(3)
O24 O 0.7730(4) 0.5128(3) 0.9545(3)
S2? S 1.09607(9) 0.48980(7) 1.01645(6)
O6? O 0.9618(3) 0.5696(2) 0.9353(2)
O7? O 1.0386(3) 0.5776(2) 1.0178(2)
O8? O 1.2320(5) 0.5214(3) 1.0642(3)
O9? O 1.0680(3) 0.4369(2) 0.9132(2)
O25? O 0.9593(3) 0.6830(2) 0.8655(2)
O26? O 1.0035(4) 0.4860(3) 1.2488(3)
loop_
_geom_bond_atom_site_label_1
_geom_bond_atom_site_label_2
_geom_bond_site_symmetry_1
_geom_bond_site_symmetry_2
Cu1 N1 1_555 1_555
Cu2 O1 1_555 1_555
O1 H1 1_555 1_555
H2 O1 1_555 1_555
S1 O2 1_555 1_555
O3 S1 1_555 1_555
O4 S1 1_555 1_555
O5 S1 1_555 1_555
N1 N2 1_555 1_555
N2 Cu2 1_555 1_555
N3 C1 1_555 1_555
N4 N5 1_555 1_555
N5 C4 1_555 1_555
N6 C3 1_555 1_555
N7 Cu1 1_555 1_555
N8 N7 1_555 1_555
N9 C15 1_555 1_555
N10 N11 1_555 1_555
N11 C18 1_555 1_555
N12 C17 1_555 1_555
C1 N1 1_555 1_555
H3 C1 1_555 1_555
C2 N2 1_555 1_555
H4 C2 1_555 1_555
C3 N4 1_555 1_555
H5 C3 1_555 1_555
C4 N6 1_555 1_555
H6 C4 1_555 1_555
C5 N3 1_555 1_555
C6 C5 1_555 1_555
H7 C6 1_555 1_555
H8 C6 1_555 1_555
C7 N6 1_555 1_555
C8 C7 1_555 1_555
H9 C8 1_555 1_555
H10 C8 1_555 1_555
C9 C8 1_555 1_555
H11 C9 1_555 1_555
C10 C5 1_555 1_555
H12 C10 1_555 1_555
H13 C10 1_555 1_555
C11 C5 1_555 1_555
H14 C11 1_555 1_555
H15 C11 1_555 1_555
C12 C11 1_555 1_555
H16 C12 1_555 1_555
C13 C7 1_555 1_555
H17 C13 1_555 1_555
H18 C13 1_555 1_555
C14 C9 1_555 1_555
H19 C14 1_555 1_555
H20 C14 1_555 1_555
C15 N7 1_555 1_555
H21 C15 1_555 1_555
C16 N8 1_555 1_555
H22 C16 1_555 1_555
C17 N10 1_555 1_555
H23 C17 1_555 1_555
C18 N12 1_555 1_555
H24 C18 1_555 1_555
C19 N9 1_555 1_555
C20 C19 1_555 1_555
H25 C20 1_555 1_555
H26 C20 1_555 1_555
C21 N12 1_555 1_555
C22 C21 1_555 1_555
H27 C22 1_555 1_555
H28 C22 1_555 1_555
C23 C22 1_555 1_555
H29 C23 1_555 1_555
C24 C19 1_555 1_555
H30 C24 1_555 1_555
H31 C24 1_555 1_555
C25 C19 1_555 1_555
H32 C25 1_555 1_555
H33 C25 1_555 1_555
C26 C25 1_555 1_555
H34 C26 1_555 1_555
C27 C21 1_555 1_555
H35 C27 1_555 1_555
H36 C27 1_555 1_555
C28 C23 1_555 1_555
H37 C28 1_555 1_555
H38 C28 1_555 1_555
O10 H39 1_555 1_555
H40 O10 1_555 1_555
O11 H41 1_555 1_555
H42 O11 1_555 1_555
O12 H43 1_555 1_555
H44 O12 1_555 1_555
O13 H45 1_555 1_555
H46 O13 1_555 1_555
O14 H47 1_555 1_555
H48 O14 1_555 1_555
O15 H49 1_555 1_555
H50 O15 1_555 1_555
O16 H51 1_555 1_555
H52 O16 1_555 1_555
O17 H53 1_555 1_555
H54 O17 1_555 1_555
O18 H55 1_555 1_555
H56 O18 1_555 1_555
O19 H57 1_555 1_555
H58 O19 1_555 1_555
O20 H59 1_555 1_555
H60 O20 1_555 1_555
Cu1_2 N11 1_555 1_555
Cu1_3 N11A 1_555 1_555
Cu2A N8 1_555 1_555
Cu2A_2 N5 1_555 1_555
Cu2A_3 N10 1_555 1_555
Cu2_2 N5A 1_555 1_555
Cu2_3 N10A 1_555 1_555
O1A Cu2A 1_555 1_555
H1A O1A 1_555 1_555
H2A O1A 1_555 1_555
N1A Cu1 1_555 1_555
N2A Cu2A 1_555 1_555
N3A C1A 1_555 1_555
N4A N5A 1_555 1_555
N5A C4A 1_555 1_555
N5A_2 Cu2 1_555 1_555
N5_2 Cu2A 1_555 1_555
N6A C3A 1_555 1_555
N7A Cu1 1_555 1_555
N8A Cu2 1_555 1_555
N9A C15A 1_555 1_555
N10A N11A 1_555 1_555
N10A_2 Cu2 1_555 1_555
N10_2 Cu2A 1_555 1_555
N11A C18A 1_555 1_555
N11_2 Cu1 1_555 1_555
N11A_2 Cu1 1_555 1_555
N12A C17A 1_555 1_555
C1A N1A 1_555 1_555
H3A C1A 1_555 1_555
C2A N2A 1_555 1_555
H4A C2A 1_555 1_555
C3A N4A 1_555 1_555
H5A C3A 1_555 1_555
C4A N6A 1_555 1_555
H6A C4A 1_555 1_555
C5A N3A 1_555 1_555
C6A C5A 1_555 1_555
H7A C6A 1_555 1_555
H8A C6A 1_555 1_555
C7A N6A 1_555 1_555
C8A C7A 1_555 1_555
H9A C8A 1_555 1_555
H10A C8A 1_555 1_555
C9A C8A 1_555 1_555
H11A C9A 1_555 1_555
C10A C5A 1_555 1_555
H12A C10A 1_555 1_555
H13A C10A 1_555 1_555
C11A C5A 1_555 1_555
H14A C11A 1_555 1_555
H15A C11A 1_555 1_555
C12A C11A 1_555 1_555
H16A C12A 1_555 1_555
C13A C7A 1_555 1_555
H17A C13A 1_555 1_555
H18A C13A 1_555 1_555
C14A C9A 1_555 1_555
H19A C14A 1_555 1_555
H20A C14A 1_555 1_555
C15A N7A 1_555 1_555
H21A C15A 1_555 1_555
C16A N8A 1_555 1_555
H22A C16A 1_555 1_555
C17A N10A 1_555 1_555
H23A C17A 1_555 1_555
C18A N12A 1_555 1_555
H24A C18A 1_555 1_555
C19A N9A 1_555 1_555
C20A C19A 1_555 1_555
H25A C20A 1_555 1_555
H26A C20A 1_555 1_555
C21A N12A 1_555 1_555
C22A C21A 1_555 1_555
H27A C22A 1_555 1_555
H28A C22A 1_555 1_555
C23A C22A 1_555 1_555
H29A C23A 1_555 1_555
C24A C19A 1_555 1_555
H30A C24A 1_555 1_555
H31A C24A 1_555 1_555
C25A C19A 1_555 1_555
H32A C25A 1_555 1_555
H33A C25A 1_555 1_555
C26A C25A 1_555 1_555
H34A C26A 1_555 1_555
C27A C21A 1_555 1_555
H35A C27A 1_555 1_555
H36A C27A 1_555 1_555
C28A C23A 1_555 1_555
H37A C28A 1_555 1_555
H38A C28A 1_555 1_555
N3 C2 1_555 1_555
N9 C16 1_555 1_555
C6 C7 1_555 1_555
C9 C10 1_555 1_555
C12 C13 1_555 1_555
C12 C14 1_555 1_555
C20 C21 1_555 1_555
C23 C24 1_555 1_555
C26 C27 1_555 1_555
C26 C28 1_555 1_555
N1A N2A 1_555 1_555
N3A C2A 1_555 1_555
N7A N8A 1_555 1_555
N9A C16A 1_555 1_555
N10A_2 N11A_2 1_555 1_555
N10_2 N11_2 1_555 1_555
C6A C7A 1_555 1_555
C9A C10A 1_555 1_555
C12A C13A 1_555 1_555
C12A C14A 1_555 1_555
C20A C21A 1_555 1_555
C23A C24A 1_555 1_555
C26A C27A 1_555 1_555
C26A C28A 1_555 1_555

#END
