
#######################################################################
#
#                 Cambridge Crystallographic Data Centre
#                                CCDC 
#
#######################################################################
#
# If this CIF has been generated from an entry in the Cambridge 
# Structural Database, then it will include bibliographic, chemical, 
# crystal, experimental, refinement or atomic coordinate data resulting 
# from the CCDC's data processing and validation procedures.
#
#######################################################################

data_KEMYAC
_symmetry_cell_setting           tetragonal
_symmetry_space_group_name_H-M   'P 41'
_symmetry_Int_Tables_number      76
_space_group_name_Hall           'P 4w'
loop_
_symmetry_equiv_pos_site_id
_symmetry_equiv_pos_as_xyz
1 x,y,z
2 -y,x,1/4+z
3 -x,-y,1/2+z
4 y,-x,3/4+z
_cell_length_a                   7.501(2)
_cell_length_b                   7.501(2)
_cell_length_c                   29.363(5)
_cell_angle_alpha                90
_cell_angle_beta                 90
_cell_angle_gamma                90
_cell_volume                     1652.11
loop_
_atom_site_label
_atom_site_type_symbol
_atom_site_fract_x
_atom_site_fract_y
_atom_site_fract_z
Na1 Na -0.3567(3) 0.4174(3) 0.2847(1)
O1 O -0.1662(5) 0.0347(5) 0.4080(1)
O2 O 0.1557(6) -0.1826(7) 0.4661(2)
O3 O 0.1978(6) 0.0431(6) 0.4171(2)
O4 O -0.1667(6) -0.2473(6) 0.4385(1)
O5 O -0.2014(6) -0.3189(5) 0.2976(1)
O6 O -0.4687(6) 0.1433(6) 0.2677(2)
O7 O -0.2998(5) 0.3283(5) 0.3607(1)
O8 O -0.5260(5) 0.1706(5) 0.4653(1)
O9 O -0.5802(6) 0.5489(6) 0.4707(2)
O11 O -0.0550(6) 0.3026(6) 0.2650(2)
O12 O -0.6520(6) 0.5361(6) 0.3096(2)
N1 N -0.4947(6) -0.0864(6) 0.3175(2)
C1 C 0.1106(8) -0.0819(8) 0.4335(2)
C2 C -0.0693(7) -0.1289(7) 0.4109(2)
C3 C -0.0413(7) -0.2086(7) 0.3637(2)
C4 C -0.2221(8) -0.2369(7) 0.3414(2)
C5 C -0.3197(7) -0.0587(7) 0.3384(2)
C6 C -0.3376(7) 0.0200(7) 0.3870(2)
C7 C -0.4134(7) 0.2101(7) 0.3859(2)
C8 C -0.4442(7) 0.2934(7) 0.4338(2)
C9 C -0.5602(8) 0.4583(8) 0.4280(2)
C10 C -0.5514(7) 0.0125(7) 0.2816(2)
C11 C -0.7205(9) -0.0452(9) 0.2592(2)
Na1_2 Na -0.3567(3) -0.5826(3) 0.2847(1)
Na1A Na -0.4174(3) 0.6433(3) 0.5347(1)
O5_2 O -0.2014(6) 0.6811(5) 0.2976(1)
O9C O -0.4511(6) 0.5802(6) 0.2207(2)
O10 O 0.0883(7) -0.6917(7) 0.3547(2)
loop_
_geom_bond_atom_site_label_1
_geom_bond_atom_site_label_2
_geom_bond_site_symmetry_1
_geom_bond_site_symmetry_2
Na1 O6 1_555 1_555
O1 C2 1_555 1_555
O2 C1 1_555 1_555
O3 C1 1_555 1_555
O4 C2 1_555 1_555
O5 C4 1_555 1_555
O6 C10 1_555 1_555
O7 Na1 1_555 1_555
O8 C8 1_555 1_555
O9 C9 1_555 1_555
O11 Na1 1_555 1_555
O12 Na1 1_555 1_555
N1 C5 1_555 1_555
C1 C2 1_555 1_555
C2 C3 1_555 1_555
C3 C4 1_555 1_555
C4 C5 1_555 1_555
C5 C6 1_555 1_555
C6 O1 1_555 1_555
C7 O7 1_555 1_555
C8 C7 1_555 1_555
C9 C8 1_555 1_555
C10 N1 1_555 1_555
C11 C10 1_555 1_555
Na1_2 O5 1_555 1_555
Na1A O9 1_555 1_555
O5_2 Na1 1_555 1_555
O9C Na1 1_555 1_555
C6 C7 1_555 1_555

#END
