
#######################################################################
#
#                 Cambridge Crystallographic Data Centre
#                                CCDC 
#
#######################################################################
#
# If this CIF has been generated from an entry in the Cambridge 
# Structural Database, then it will include bibliographic, chemical, 
# crystal, experimental, refinement or atomic coordinate data resulting 
# from the CCDC's data processing and validation procedures.
#
#######################################################################

data_KENGUH
_symmetry_cell_setting           monoclinic
_symmetry_space_group_name_H-M   'C 2/c'
_symmetry_Int_Tables_number      15
_space_group_name_Hall           '-C 2yn'
loop_
_symmetry_equiv_pos_site_id
_symmetry_equiv_pos_as_xyz
1 x,y,z
2 -x,y,1/2-z
3 1/2+x,1/2+y,z
4 1/2-x,1/2+y,1/2-z
5 -x,-y,-z
6 x,-y,1/2+z
7 1/2-x,1/2-y,-z
8 1/2+x,1/2-y,1/2+z
_cell_length_a                   23.449(6)
_cell_length_b                   9.6759(18)
_cell_length_c                   18.224(4)
_cell_angle_alpha                90
_cell_angle_beta                 117.877(4)
_cell_angle_gamma                90
_cell_volume                     3655.01
loop_
_atom_site_label
_atom_site_type_symbol
_atom_site_fract_x
_atom_site_fract_y
_atom_site_fract_z
Cd1 Cd 0.299402(15) 0.73499(3) 0.671159(19)
O1 O 0.26039(15) 0.5747(3) 0.55332(19)
O2 O 0.21888(15) 0.5693(3) 0.63964(18)
O3 O 0.21640(16) 0.3007(3) 0.72182(19)
O4 O 0.11780(17) 0.3922(4) 0.6676(2)
O5 O 0.22701(17) 0.9029(3) 0.5876(2)
N1 N 0.42734(17) 0.8569(3) 0.5684(2)
N2 N 0.45401(19) 0.9463(4) 0.6341(2)
N3 N 0.37493(18) 0.8213(4) 0.6390(2)
N4 N 0.42342(18) 0.6072(4) 0.3323(3)
N5 N 0.4706(2) 0.5102(4) 0.3522(3)
N6 N 0.37411(18) 0.4286(4) 0.2561(2)
C1 C 0.4484(2) 0.8587(4) 0.5043(3)
H1 H 0.4954 0.8685 0.5306
H2 H 0.4293 0.9384 0.4677
C2 C 0.4287(2) 0.7269(4) 0.4532(3)
H3 H 0.4545 0.6496 0.4872
H4 H 0.3832 0.7070 0.4363
C3 C 0.4380(2) 0.7394(4) 0.3765(3)
H5 H 0.4095 0.8114 0.3400
H6 H 0.4827 0.7659 0.3928
C4 C 0.4209(2) 0.9205(5) 0.6741(3)
H7 H 0.4284 0.9669 0.7231
C5 C 0.3806(2) 0.7854(5) 0.5727(3)
H8 H 0.3551 0.7183 0.5339
C6 C 0.4382(2) 0.4055(5) 0.3042(3)
H9 H 0.4580 0.3214 0.3035
C7 C 0.3668(2) 0.5560(5) 0.2775(3)
H10 H 0.3273 0.6031 0.2568
C8 C 0.1868(2) 0.3907(4) 0.5386(3)
C9 C 0.1571(2) 0.3130(4) 0.5755(3)
C10 C 0.1220(2) 0.1964(4) 0.5352(3)
H11 H 0.1014 0.1442 0.5594
C11 C 0.1172(2) 0.1561(4) 0.4595(3)
H12 H 0.0934 0.0766 0.4329
C12 C 0.1468(3) 0.2310(4) 0.4231(3)
H13 H 0.1436 0.2036 0.3718
C13 C 0.1815(2) 0.3479(4) 0.4631(3)
H14 H 0.2020 0.3994 0.4384
C14 C 0.2246(2) 0.5198(4) 0.5794(3)
C15 C 0.1638(2) 0.3420(4) 0.6608(3)
H15 H 0.233(3) 0.914(5) 0.544(4)
H16 H 0.239(3) 0.969(6) 0.610(4)
Cd1C Cd 0.200598(15) 0.23499(3) 0.828841(19)
Cd1E Cd 0.299402(15) 0.26501(3) 0.171159(19)
O3C O 0.28360(16) 0.8007(3) 0.77818(19)
N6E N 0.37411(18) 0.5714(4) 0.7561(2)
O6 O 0.2907(2) 1.1045(3) 0.7012(2)
H17 H 0.310(2) 1.056(5) 0.744(2)
H18 H 0.264(2) 1.156(5) 0.708(4)
loop_
_geom_bond_atom_site_label_1
_geom_bond_atom_site_label_2
_geom_bond_site_symmetry_1
_geom_bond_site_symmetry_2
Cd1 O1 1_555 1_555
O1 C14 1_555 1_555
O2 Cd1 1_555 1_555
O3 C15 1_555 1_555
O4 C15 1_555 1_555
O5 Cd1 1_555 1_555
O6 H17 1_555 1_555
N1 N2 1_555 1_555
N2 C4 1_555 1_555
N3 Cd1 1_555 1_555
N4 N5 1_555 1_555
N5 C6 1_555 1_555
N6 C6 1_555 1_555
C1 N1 1_555 1_555
H1 C1 1_555 1_555
H2 C1 1_555 1_555
C2 C1 1_555 1_555
H3 C2 1_555 1_555
H4 C2 1_555 1_555
C3 N4 1_555 1_555
H5 C3 1_555 1_555
H6 C3 1_555 1_555
C4 N3 1_555 1_555
H7 C4 1_555 1_555
C5 N1 1_555 1_555
H8 C5 1_555 1_555
C6 H9 1_555 1_555
C7 N4 1_555 1_555
H10 C7 1_555 1_555
C8 C9 1_555 1_555
C9 C10 1_555 1_555
C10 H11 1_555 1_555
C11 C10 1_555 1_555
H12 C11 1_555 1_555
C12 C11 1_555 1_555
H13 C12 1_555 1_555
C13 C8 1_555 1_555
H14 C13 1_555 1_555
C14 O2 1_555 1_555
C15 C9 1_555 1_555
H15 O5 1_555 1_555
H16 O5 1_555 1_555
H18 O6 1_555 1_555
Cd1C O3 1_555 1_555
Cd1E N6 1_555 1_555
O3C Cd1 1_555 1_555
N6E Cd1 1_555 1_555
N3 C5 1_555 1_555
N6 C7 1_555 1_555
C2 C3 1_555 1_555
C8 C14 1_555 1_555
C12 C13 1_555 1_555

#END
