
#######################################################################
#
#                 Cambridge Crystallographic Data Centre
#                                CCDC 
#
#######################################################################
#
# If this CIF has been generated from an entry in the Cambridge 
# Structural Database, then it will include bibliographic, chemical, 
# crystal, experimental, refinement or atomic coordinate data resulting 
# from the CCDC's data processing and validation procedures.
#
#######################################################################

data_KENHAO
_symmetry_cell_setting           triclinic
_symmetry_space_group_name_H-M   'P -1'
_symmetry_Int_Tables_number      2
_space_group_name_Hall           '-P 1'
loop_
_symmetry_equiv_pos_site_id
_symmetry_equiv_pos_as_xyz
1 x,y,z
2 -x,-y,-z
_cell_length_a                   10.2257(10)
_cell_length_b                   11.0994(9)
_cell_length_c                   11.1904(10)
_cell_angle_alpha                114.195(12)
_cell_angle_beta                 115.991(11)
_cell_angle_gamma                92.24(2)
_cell_volume                     1003.63
loop_
_atom_site_label
_atom_site_type_symbol
_atom_site_fract_x
_atom_site_fract_y
_atom_site_fract_z
Cd1 Cd 0.11447(2) 0.58054(2) 0.33599(3)
O1 O 0.3832(2) 0.5835(3) 0.3691(3)
O2 O 0.1734(2) 0.4446(2) 0.1576(3)
O3 O 0.8749(2) 0.5876(2) 0.3629(3)
O4 O 0.8665(2) 0.4701(2) 0.1458(2)
O5 O 0.3953(3) 0.1610(4) -0.3003(3)
O6 O 0.1916(3) 0.1354(3) -0.2915(3)
O7 O 0.1213(3) 0.3973(3) 0.3858(3)
N1 N 0.1268(3) 0.8376(3) 0.1258(3)
N2 N 0.1448(4) 0.9469(3) 0.2536(3)
N3 N 0.1265(3) 0.7515(3) 0.2689(3)
N4 N 0.2544(3) 0.8841(3) -0.1969(3)
N5 N 0.3921(3) 0.8612(3) -0.1702(3)
N6 N 0.2203(3) 0.7340(3) -0.4158(3)
N7 N 0.3254(3) 0.1890(3) -0.2326(3)
C1 C 0.1137(4) 0.8530(3) -0.0025(4)
H1 H 0.0235 0.8837 -0.0439
H2 H 0.1026 0.7643 -0.0821
C2 C 0.2527(4) 0.9566(3) 0.0464(4)
H3 H 0.2708 1.0411 0.1350
H4 H 0.3406 0.9201 0.0764
C3 C 0.2379(4) 0.9905(3) -0.0766(4)
H5 H 0.1387 1.0071 -0.1219
H6 H 0.3145 1.0757 -0.0300
C4 C 0.1438(4) 0.8887(4) 0.3348(4)
H7 H 0.1544 0.9384 0.4311
C5 C 0.1153(3) 0.7243(3) 0.1377(4)
H8 H 0.1011 0.6365 0.0630
C6 C 0.3658(4) 0.7709(3) -0.3043(4)
H9 H 0.4412 0.7349 -0.3217
C7 C 0.1549(4) 0.8080(3) -0.3426(4)
H10 H 0.0523 0.8065 -0.3878
C8 C 0.4015(3) 0.4392(3) 0.1522(4)
C9 C 0.5567(3) 0.4913(3) 0.2236(4)
H11 H 0.6090 0.5585 0.3258
C10 C 0.6362(3) 0.4465(3) 0.1478(4)
C11 C 0.5602(3) 0.3478(3) -0.0027(4)
H12 H 0.6119 0.3172 -0.0565
C12 C 0.4047(3) 0.2949(3) -0.0723(4)
C13 C 0.3242(3) 0.3387(3) 0.0012(4)
H13 H 0.2193 0.3017 -0.0492
C14 C 0.3143(4) 0.4926(3) 0.2329(4)
C15 C 0.8047(3) 0.5057(3) 0.2247(4)
H14 H 0.139(3) 0.426(3) 0.474(4)
H15 H 0.180(4) 0.360(4) 0.381(4)
Cd1_2 Cd 1.11447(2) 0.58054(2) 0.33599(3)
Cd1_3 Cd 0.11447(2) 0.58054(2) -0.66401(3)
O3_2 O -0.1251(2) 0.5876(2) 0.3629(3)
O4_2 O -0.1335(2) 0.4701(2) 0.1458(2)
N6_2 N 0.2203(3) 0.7340(3) 0.5842(3)
C15_2 C -0.1953(3) 0.5057(3) 0.2247(4)
O8 O 0.3352(4) 0.2517(4) 0.3875(4)
H16 H 0.319(6) 0.190(5) 0.397(6)
H17 H 0.405(6) 0.293(6) 0.457(7)
loop_
_geom_bond_atom_site_label_1
_geom_bond_atom_site_label_2
_geom_bond_site_symmetry_1
_geom_bond_site_symmetry_2
Cd1 O1 1_555 1_555
O1 C14 1_555 1_555
O2 Cd1 1_555 1_555
O3 C15 1_555 1_555
O4 C15 1_555 1_555
O5 N7 1_555 1_555
O6 N7 1_555 1_555
O7 Cd1 1_555 1_555
O8 H16 1_555 1_555
N1 N2 1_555 1_555
N2 C4 1_555 1_555
N3 Cd1 1_555 1_555
N4 N5 1_555 1_555
N5 C6 1_555 1_555
N6 C6 1_555 1_555
N7 C12 1_555 1_555
C1 N1 1_555 1_555
H1 C1 1_555 1_555
H2 C1 1_555 1_555
C2 C1 1_555 1_555
H3 C2 1_555 1_555
H4 C2 1_555 1_555
C3 N4 1_555 1_555
H5 C3 1_555 1_555
H6 C3 1_555 1_555
C4 N3 1_555 1_555
H7 C4 1_555 1_555
C5 N1 1_555 1_555
H8 C5 1_555 1_555
C6 H9 1_555 1_555
C7 N4 1_555 1_555
H10 C7 1_555 1_555
C8 C9 1_555 1_555
C9 H11 1_555 1_555
C10 C9 1_555 1_555
C11 C10 1_555 1_555
H12 C11 1_555 1_555
C12 C11 1_555 1_555
C13 C8 1_555 1_555
H13 C13 1_555 1_555
C14 O2 1_555 1_555
C15 C10 1_555 1_555
H14 O7 1_555 1_555
H15 O7 1_555 1_555
H17 O8 1_555 1_555
Cd1_2 O3 1_555 1_555
Cd1_3 N6 1_555 1_555
O3_2 Cd1 1_555 1_555
O4_2 Cd1 1_555 1_555
N6_2 Cd1 1_555 1_555
C15_2 O3_2 1_555 1_555
O4 Cd1_2 1_555 1_555
N3 C5 1_555 1_555
N6 C7 1_555 1_555
C2 C3 1_555 1_555
C8 C14 1_555 1_555
C12 C13 1_555 1_555
O4_2 C15_2 1_555 1_555

#END
