
#######################################################################
#
#                 Cambridge Crystallographic Data Centre
#                                CCDC 
#
#######################################################################
#
# If this CIF has been generated from an entry in the Cambridge 
# Structural Database, then it will include bibliographic, chemical, 
# crystal, experimental, refinement or atomic coordinate data resulting 
# from the CCDC's data processing and validation procedures.
#
#######################################################################

data_KENJUK
_symmetry_cell_setting           monoclinic
_symmetry_space_group_name_H-M   'C c'
_symmetry_Int_Tables_number      9
_space_group_name_Hall           'C -2yc'
loop_
_symmetry_equiv_pos_site_id
_symmetry_equiv_pos_as_xyz
1 x,y,z
2 x,-y,1/2+z
3 1/2+x,1/2+y,z
4 1/2+x,1/2-y,1/2+z
_cell_length_a                   9.0399(18)
_cell_length_b                   14.979(3)
_cell_length_c                   16.936(3)
_cell_angle_alpha                90
_cell_angle_beta                 94.218(3)
_cell_angle_gamma                90
_cell_volume                     2287.07
loop_
_atom_site_label
_atom_site_type_symbol
_atom_site_fract_x
_atom_site_fract_y
_atom_site_fract_z
Zn1 Zn -0.46681(11) 0.17379(7) -0.31137(7)
Zn2 Zn 0.02836(11) -0.09235(7) -0.36809(7)
N1 N -0.1540(11) -0.0042(6) -0.3929(5)
N2 N -0.2060(13) 0.0212(6) -0.4661(6)
N3 N -0.3161(14) 0.0750(7) -0.4606(7)
N4 N -0.3424(13) 0.0868(6) -0.3851(6)
N5 N -0.3180(10) 0.1080(5) -0.2285(5)
N6 N -0.2229(11) 0.0244(6) -0.1295(6)
H1 H -0.2002 0.0056 -0.0822
N7 N -0.0616(11) -0.1416(6) -0.2622(5)
N8 N -0.0201(10) -0.2238(6) -0.2357(5)
N9 N -0.0386(13) -0.2284(6) -0.1590(6)
N10 N -0.0914(14) -0.1520(7) -0.1331(6)
N11 N -0.6461(12) 0.0883(6) -0.2887(6)
N12 N -0.6765(14) 0.0648(7) -0.2175(6)
N13 N -0.7868(14) 0.0093(7) -0.2218(7)
N14 N -0.8319(12) -0.0031(6) -0.2969(5)
N15 N -0.8413(12) -0.0293(6) -0.4544(6)
N16 N -0.7656(11) 0.0514(6) -0.5517(5)
H2 H -0.7518 0.0686 -0.5990
N17 N -0.5833(11) 0.2228(5) -0.4183(5)
N18 N -0.5513(11) 0.3055(6) -0.4431(5)
N19 N -0.5917(14) 0.3137(6) -0.5201(7)
N20 N -0.6515(14) 0.2351(6) -0.5456(6)
C1 C -0.2387(12) 0.0377(7) -0.3426(7)
C2 C -0.2371(12) 0.0399(7) -0.2584(6)
C3 C -0.3066(16) 0.0966(7) -0.1500(7)
H3 H -0.3505 0.1334 -0.1142
C4 C -0.1807(13) -0.0135(7) -0.1981(6)
C5 C -0.1078(12) -0.1011(7) -0.1986(6)
C6 C -0.7416(13) 0.0469(7) -0.3381(7)
C7 C -0.7569(13) 0.0424(6) -0.4238(7)
C8 C -0.8402(13) -0.0194(7) -0.5340(6)
H4 H -0.8864 -0.0581 -0.5711
C9 C -0.7133(13) 0.0938(6) -0.4851(7)
C10 C -0.6450(13) 0.1829(7) -0.4828(7)
Zn1B Zn 0.03319(11) -0.32621(7) -0.31137(7)
Zn2_2 Zn -0.97164(11) -0.09235(7) -0.36809(7)
Zn2B Zn -0.47164(11) 0.40765(7) -0.36809(7)
N8B N -0.5201(10) 0.2762(6) -0.2357(5)
N14_2 N 0.1681(12) -0.0031(6) -0.2969(5)
N15_2 N 0.1587(12) -0.0293(6) -0.4544(6)
N18B N -0.0513(11) -0.1945(6) -0.4431(5)
O1 O -0.3052(10) 0.2916(6) -0.3396(5)
H5 H -0.2372 0.3056 -0.2942
H6 H -0.2489 0.2777 -0.3846
C11 C 0.033(3) 0.3584(19) -0.429(2)
H7 H 0.1392 0.3656 -0.4260
H8 H -0.0003 0.3618 -0.3764
H9 H -0.0125 0.4050 -0.4609
C12 C -0.007(3) 0.271(3) -0.464(3)
H10 H 0.0250 0.2697 -0.5172
H11 H 0.0482 0.2253 -0.4336
O2 O -0.152(2) 0.2505(13) -0.4666(11)
C13 C 0.010(2) 0.3243(14) -0.2021(17)
H12 H 0.0386 0.3721 -0.2366
H13 H 0.0531 0.3368 -0.1491
C14 C 0.066(3) 0.244(3) -0.228(3)
H14 H 0.1720 0.2478 -0.2280
H15 H 0.0248 0.2318 -0.2809
H16 H 0.0398 0.1967 -0.1935
O3 O -0.1482(14) 0.3223(7) -0.2015(8)
loop_
_geom_bond_atom_site_label_1
_geom_bond_atom_site_label_2
_geom_bond_site_symmetry_1
_geom_bond_site_symmetry_2
Zn1 N4 1_555 1_555
Zn2 N1 1_555 1_555
N1 N2 1_555 1_555
N2 N3 1_555 1_555
N3 N4 1_555 1_555
N4 C1 1_555 1_555
N5 Zn1 1_555 1_555
N6 H1 1_555 1_555
N7 Zn2 1_555 1_555
N8 N7 1_555 1_555
N9 N8 1_555 1_555
N10 N9 1_555 1_555
N11 Zn1 1_555 1_555
N12 N11 1_555 1_555
N13 N12 1_555 1_555
N14 N13 1_555 1_555
N15 C7 1_555 1_555
N16 H2 1_555 1_555
N17 Zn1 1_555 1_555
N18 N17 1_555 1_555
N19 N18 1_555 1_555
N20 N19 1_555 1_555
C1 N1 1_555 1_555
C2 N5 1_555 1_555
C3 N5 1_555 1_555
H3 C3 1_555 1_555
C4 N6 1_555 1_555
C5 N7 1_555 1_555
C6 N11 1_555 1_555
C7 C6 1_555 1_555
C8 N15 1_555 1_555
H4 C8 1_555 1_555
C9 N16 1_555 1_555
C10 N17 1_555 1_555
O1 H5 1_555 1_555
H6 O1 1_555 1_555
C11 H7 1_555 1_555
H8 C11 1_555 1_555
H9 C11 1_555 1_555
C12 C11 1_555 1_555
H10 C12 1_555 1_555
H11 C12 1_555 1_555
O2 C12 1_555 1_555
C13 H12 1_555 1_555
H13 C13 1_555 1_555
C14 C13 1_555 1_555
H14 C14 1_555 1_555
H15 C14 1_555 1_555
H16 C14 1_555 1_555
O3 C13 1_555 1_555
Zn1B N8 1_555 1_555
Zn2_2 N14 1_555 1_555
Zn2B N18 1_555 1_555
N8B Zn1 1_555 1_555
N14_2 Zn2 1_555 1_555
N15_2 Zn2 1_555 1_555
N18B Zn2 1_555 1_555
N6 C3 1_555 1_555
N10 C5 1_555 1_555
N14 C6 1_555 1_555
N15 Zn2_2 1_555 1_555
N16 C8 1_555 1_555
N20 C10 1_555 1_555
C1 C2 1_555 1_555
C2 C4 1_555 1_555
C4 C5 1_555 1_555
C7 C9 1_555 1_555
C9 C10 1_555 1_555

#END
