
#######################################################################
#
#                 Cambridge Crystallographic Data Centre
#                                CCDC 
#
#######################################################################
#
# If this CIF has been generated from an entry in the Cambridge 
# Structural Database, then it will include bibliographic, chemical, 
# crystal, experimental, refinement or atomic coordinate data resulting 
# from the CCDC's data processing and validation procedures.
#
#######################################################################

data_KENROL
_symmetry_cell_setting           triclinic
_symmetry_space_group_name_H-M   'P -1'
_symmetry_Int_Tables_number      2
_space_group_name_Hall           '-P 1'
loop_
_symmetry_equiv_pos_site_id
_symmetry_equiv_pos_as_xyz
1 x,y,z
2 -x,-y,-z
_cell_length_a                   9.7100(19)
_cell_length_b                   10.579(2)
_cell_length_c                   13.361(3)
_cell_angle_alpha                77.41(3)
_cell_angle_beta                 88.78(3)
_cell_angle_gamma                88.16(3)
_cell_volume                     1338.63
loop_
_atom_site_label
_atom_site_type_symbol
_atom_site_fract_x
_atom_site_fract_y
_atom_site_fract_z
C1 C -0.0051(3) 1.3196(3) 0.5978(2)
C2 C -0.1278(3) 1.3451(3) 0.6468(2)
H1 H -0.2029 1.2884 0.6533
C3 C -0.1361(3) 1.4565(3) 0.6857(2)
C4 C -0.0299(3) 1.5431(3) 0.6772(2)
H2 H -0.0401 1.6193 0.7038
C5 C 0.0909(3) 1.5153(3) 0.6290(3)
H3 H 0.1652 1.5730 0.6219
C6 C 0.1043(3) 1.4028(3) 0.5906(2)
H4 H 0.1887 1.3830 0.5594
C7 C 0.0081(3) 1.2024(3) 0.5512(2)
C8 C 0.5703(3) 0.8742(3) 0.2544(2)
C9 C 0.4893(3) 0.8660(3) 0.1719(2)
H5 H 0.3924 0.8812 0.1739
C10 C 0.5534(3) 0.8352(3) 0.0864(2)
C11 C 0.6939(4) 0.8104(3) 0.0803(3)
H6 H 0.7345 0.7884 0.0208
C12 C 0.7735(3) 0.8184(4) 0.1629(3)
H7 H 0.8700 0.8010 0.1609
C13 C 0.7127(3) 0.8518(3) 0.2492(3)
H8 H 0.7684 0.8595 0.3050
C14 C 0.5040(3) 0.9058(3) 0.3484(2)
C15 C 0.2662(3) 0.7160(3) 0.7642(2)
C16 C 0.3649(3) 0.6146(3) 0.7773(2)
H9 H 0.4268 0.6074 0.7227
C17 C 0.3724(4) 0.5244(3) 0.8699(3)
H10 H 0.4415 0.4574 0.8791
C18 C 0.2796(3) 0.5317(3) 0.9492(3)
H11 H 0.2825 0.4694 1.0122
C19 C 0.1826(3) 0.6328(4) 0.9334(2)
C20 C 0.1751(3) 0.7260(3) 0.8439(2)
H12 H 0.1092 0.7956 0.8368
C21 C 0.2576(3) 0.8148(3) 0.6647(2)
C22 C 0.1653(3) 1.1092(3) 0.2135(2)
H13 H 0.2671 1.1046 0.2076
H14 H 0.1329 1.1921 0.1694
C23 C 0.1066(4) 0.9989(3) 0.1755(3)
H15 H 0.1391 0.9165 0.2185
H16 H 0.1367 1.0036 0.1044
H17 H 0.0058 1.0047 0.1790
Eu1 Eu 0.258433(13) 1.006394(13) 0.476627(11)
N1 N -0.2624(3) 1.4821(3) 0.7407(2)
N2 N 0.4670(3) 0.8267(3) -0.0012(2)
N3 N 0.0819(3) 0.6414(4) 1.0151(2)
O1 O 0.1251(2) 1.1741(2) 0.51992(18)
O2 O -0.2805(3) 1.5899(2) 0.76102(19)
O3 O -0.3441(3) 1.3960(3) 0.7655(3)
O4 O 0.3744(2) 0.9088(2) 0.35351(17)
O5 O 0.3453(3) 0.8578(3) 0.0019(2)
O6 O 0.5223(3) 0.7877(3) -0.0728(2)
O7 O 0.3445(2) 0.8077(2) 0.59420(16)
O8 O 0.1635(2) 0.9019(2) 0.65292(16)
O9 O 0.0085(3) 0.7400(4) 1.0048(2)
O10 O 0.0747(3) 0.5483(3) 1.0888(2)
O11 O 0.3836(2) 1.1825(2) 0.3728(2)
O12 O -0.0979(2) 1.1401(2) 0.54733(18)
O13 O 0.5786(2) 0.9292(2) 0.41771(18)
O14 O 0.1264(2) 1.1077(2) 0.31850(17)
Eu1A Eu -0.258433(13) 0.993606(13) 0.523373(11)
Eu1A_2 Eu 0.741567(13) 0.993606(13) 0.523373(11)
O12A O 0.0979(2) 0.8599(2) 0.45267(18)
O13A O 0.4214(2) 1.0708(2) 0.58229(18)
C24 C 0.4035(5) 0.3921(6) 0.4643(4)
H18 H 0.3114 0.4115 0.4893
H19 H 0.4140 0.2989 0.4675
H20 H 0.4156 0.4396 0.3931
O15 O 0.4988(6) 0.4282(5) 0.5229(4)
loop_
_geom_bond_atom_site_label_1
_geom_bond_atom_site_label_2
_geom_bond_site_symmetry_1
_geom_bond_site_symmetry_2
C1 C2 1_555 1_555
C2 H1 1_555 1_555
C3 C2 1_555 1_555
C4 C3 1_555 1_555
H2 C4 1_555 1_555
C5 C4 1_555 1_555
H3 C5 1_555 1_555
C6 C1 1_555 1_555
H4 C6 1_555 1_555
C7 C1 1_555 1_555
C8 C9 1_555 1_555
C9 H5 1_555 1_555
C10 C9 1_555 1_555
C11 C10 1_555 1_555
H6 C11 1_555 1_555
C12 C11 1_555 1_555
H7 C12 1_555 1_555
C13 C8 1_555 1_555
H8 C13 1_555 1_555
C14 C8 1_555 1_555
C15 C16 1_555 1_555
C16 H9 1_555 1_555
C17 C16 1_555 1_555
H10 C17 1_555 1_555
C18 C17 1_555 1_555
H11 C18 1_555 1_555
C19 C18 1_555 1_555
C20 C15 1_555 1_555
H12 C20 1_555 1_555
C21 C15 1_555 1_555
C22 H13 1_555 1_555
H14 C22 1_555 1_555
C23 C22 1_555 1_555
H15 C23 1_555 1_555
H16 C23 1_555 1_555
H17 C23 1_555 1_555
C24 H18 1_555 1_555
H19 C24 1_555 1_555
H20 C24 1_555 1_555
Eu1 O1 1_555 1_555
N1 C3 1_555 1_555
N2 C10 1_555 1_555
N3 C19 1_555 1_555
O1 C7 1_555 1_555
O2 N1 1_555 1_555
O3 N1 1_555 1_555
O4 C14 1_555 1_555
O5 N2 1_555 1_555
O6 N2 1_555 1_555
O7 C21 1_555 1_555
O8 C21 1_555 1_555
O9 N3 1_555 1_555
O10 N3 1_555 1_555
O11 Eu1 1_555 1_555
O12 C7 1_555 1_555
O13 C14 1_555 1_555
O14 C22 1_555 1_555
O15 C24 1_555 1_555
Eu1A O12 1_555 1_555
Eu1A_2 O13 1_555 1_555
O12A Eu1 1_555 1_555
O13A Eu1 1_555 1_555
C5 C6 1_555 1_555
C12 C13 1_555 1_555
C19 C20 1_555 1_555
Eu1 O4 1_555 1_555
Eu1 O7 1_555 1_555
Eu1 O8 1_555 1_555
Eu1 O14 1_555 1_555

#END
