
#######################################################################
#
#                 Cambridge Crystallographic Data Centre
#                                CCDC 
#
#######################################################################
#
# If this CIF has been generated from an entry in the Cambridge 
# Structural Database, then it will include bibliographic, chemical, 
# crystal, experimental, refinement or atomic coordinate data resulting 
# from the CCDC's data processing and validation procedures.
#
#######################################################################

data_KEPDUG
_symmetry_cell_setting           monoclinic
_symmetry_space_group_name_H-M   'P 21/n'
_symmetry_Int_Tables_number      14
_space_group_name_Hall           '-P 2yn'
loop_
_symmetry_equiv_pos_site_id
_symmetry_equiv_pos_as_xyz
1 x,y,z
2 1/2-x,1/2+y,1/2-z
3 -x,-y,-z
4 1/2+x,1/2-y,1/2+z
_cell_length_a                   6.8789(4)
_cell_length_b                   7.6299(5)
_cell_length_c                   7.9473(4)
_cell_angle_alpha                90
_cell_angle_beta                 97.657(5)
_cell_angle_gamma                90
_cell_volume                     413.397
loop_
_atom_site_label
_atom_site_type_symbol
_atom_site_fract_x
_atom_site_fract_y
_atom_site_fract_z
Ag1 Ag 0.62862(5) -0.04378(5) 0.73722(4)
N1 N 0.4156(5) 0.1930(5) 0.6308(4)
N2 N 0.3657(5) 0.2434(5) 0.4691(4)
N3 N 0.2736(6) 0.3945(5) 0.4658(4)
N4 N 0.2591(6) 0.4482(5) 0.6238(4)
N5 N 0.3786(6) 0.3251(6) 1.0474(4)
C1 C 0.3489(6) 0.3201(6) 0.7197(5)
C2 C 0.3640(6) 0.3221(6) 0.9036(5)
Ag1B Ag 0.37138(5) 0.04378(5) 0.26278(4)
Ag1A Ag 0.87138(5) -0.54378(5) 0.76278(4)
Ag1C Ag 0.12862(5) 0.54378(5) 0.23722(4)
N1B N 0.5844(5) -0.1930(5) 0.3692(4)
N2B N 0.6343(5) -0.2434(5) 0.5309(4)
N3B N 0.7264(6) -0.3945(5) 0.5342(4)
N3A N 0.2264(6) -0.1055(5) 0.0342(4)
N3C N 0.7736(6) 0.1055(5) 0.9658(4)
N4B N 0.7409(6) -0.4482(5) 0.3762(4)
N5B N 0.6214(6) -0.3251(6) -0.0474(4)
C1B C 0.6511(6) -0.3201(6) 0.2803(5)
C2B C 0.6360(6) -0.3221(6) 0.0964(5)
loop_
_geom_bond_atom_site_label_1
_geom_bond_atom_site_label_2
_geom_bond_site_symmetry_1
_geom_bond_site_symmetry_2
Ag1 N1 1_555 1_555
N1 N2 1_555 1_555
N2 N3 1_555 1_555
N3 N4 1_555 1_555
N4 C1 1_555 1_555
N5 C2 1_555 1_555
C1 N1 1_555 1_555
C2 C1 1_555 1_555
Ag1B N2 1_555 1_555
Ag1A N3B 1_555 1_555
Ag1C N3 1_555 1_555
N1B Ag1B 1_555 1_555
N2B Ag1 1_555 1_555
N3B N2B 1_555 1_555
N3A Ag1B 1_555 1_555
N3C Ag1 1_555 1_555
N4B N3B 1_555 1_555
N5B C2B 1_555 1_555
C1B N1B 1_555 1_555
C2B C1B 1_555 1_555
N1B N2B 1_555 1_555
N4B C1B 1_555 1_555

#END
