
#######################################################################
#
#                 Cambridge Crystallographic Data Centre
#                                CCDC 
#
#######################################################################
#
# If this CIF has been generated from an entry in the Cambridge 
# Structural Database, then it will include bibliographic, chemical, 
# crystal, experimental, refinement or atomic coordinate data resulting 
# from the CCDC's data processing and validation procedures.
#
#######################################################################

data_KEPJAQ01
_symmetry_cell_setting           monoclinic
_symmetry_space_group_name_H-M   'P 21/n'
_symmetry_Int_Tables_number      14
_space_group_name_Hall           '-P 2yn'
loop_
_symmetry_equiv_pos_site_id
_symmetry_equiv_pos_as_xyz
1 x,y,z
2 1/2-x,1/2+y,1/2-z
3 -x,-y,-z
4 1/2+x,1/2-y,1/2+z
_cell_length_a                   10.8421(13)
_cell_length_b                   9.2566(11)
_cell_length_c                   14.2362(17)
_cell_angle_alpha                90
_cell_angle_beta                 104.872(2)
_cell_angle_gamma                90
_cell_volume                     1380.9
loop_
_atom_site_label
_atom_site_type_symbol
_atom_site_fract_x
_atom_site_fract_y
_atom_site_fract_z
Er1 Er 0.044890(15) 0.128140(18) 0.265170(13)
O1 O 0.1860(3) 0.2222(3) 0.4146(2)
O2 O 0.2651(3) 0.4217(3) 0.4999(2)
O3 O -0.1959(3) 0.7991(3) 0.3426(2)
O4 O -0.3214(3) 0.6183(3) 0.2689(3)
O5 O 0.2902(3) 0.4637(3) 0.2037(2)
O6 O 0.2019(3) 0.2522(3) 0.2188(2)
O7 O 0.6490(3) -0.0291(3) 0.4756(3)
H1 H 0.7093 -0.0767 0.5073
O8 O 0.7959(3) 0.1484(4) 0.4918(3)
O9 O -0.0248(3) 0.1964(4) 0.1035(2)
H2 H -0.0194 0.2878 0.1058
H3 H -0.0944 0.1599 0.0700
O10 O -0.0012(3) -0.0098(3) 0.3866(2)
H4 H -0.0662 -0.0642 0.3681
H5 H 0.0550 -0.0355 0.4369
N1 N -0.0155(3) 0.3594(3) 0.3150(3)
N2 N -0.1190(3) 0.4426(4) 0.2844(3)
N3 N 0.5071(3) 0.3970(4) 0.3273(3)
N4 N 0.6094(3) 0.3335(4) 0.3869(3)
C1 C 0.1820(4) 0.3557(4) 0.4373(3)
C2 C 0.0662(4) 0.4355(4) 0.3847(3)
C3 C 0.0143(4) 0.5693(4) 0.3977(3)
H6 H 0.0518 0.6424 0.4404
C4 C -0.1062(4) 0.5695(4) 0.3327(3)
C5 C -0.2157(4) 0.6708(5) 0.3141(3)
C6 C 0.2943(4) 0.3377(5) 0.2364(3)
C7 C 0.4183(4) 0.2929(4) 0.3025(3)
C8 C 0.4642(4) 0.1628(4) 0.3486(3)
H7 H 0.4211 0.0753 0.3443
C9 C 0.5862(4) 0.1921(4) 0.4011(3)
C10 C 0.6887(4) 0.1024(4) 0.4615(3)
Er1A Er -0.544890(15) 0.628140(18) 0.234830(13)
Er1A_2 Er 0.455110(15) 0.628140(18) 0.234830(13)
O4A O -0.1786(3) 0.1183(3) 0.2311(3)
O5A O 0.2098(3) -0.0363(3) 0.2963(2)
N3A N -0.0071(3) -0.1030(4) 0.1727(3)
loop_
_geom_bond_atom_site_label_1
_geom_bond_atom_site_label_2
_geom_bond_site_symmetry_1
_geom_bond_site_symmetry_2
Er1 O1 1_555 1_555
O1 C1 1_555 1_555
O2 C1 1_555 1_555
O3 C5 1_555 1_555
O4 C5 1_555 1_555
O5 C6 1_555 1_555
O6 Er1 1_555 1_555
O7 H1 1_555 1_555
O8 C10 1_555 1_555
O9 Er1 1_555 1_555
H2 O9 1_555 1_555
H3 O9 1_555 1_555
O10 Er1 1_555 1_555
H4 O10 1_555 1_555
H5 O10 1_555 1_555
N1 Er1 1_555 1_555
N2 N1 1_555 1_555
N3 N4 1_555 1_555
N4 C9 1_555 1_555
C1 C2 1_555 1_555
C2 N1 1_555 1_555
C3 C2 1_555 1_555
H6 C3 1_555 1_555
C4 N2 1_555 1_555
C5 C4 1_555 1_555
C6 O6 1_555 1_555
C7 N3 1_555 1_555
C8 C7 1_555 1_555
H7 C8 1_555 1_555
C9 C8 1_555 1_555
C10 O7 1_555 1_555
Er1A O4 1_555 1_555
Er1A_2 O5 1_555 1_555
O4A Er1 1_555 1_555
O5A Er1 1_555 1_555
N3A Er1 1_555 1_555
N3 Er1A_2 1_555 1_555
C3 C4 1_555 1_555
C6 C7 1_555 1_555
C9 C10 1_555 1_555

#END
