
#######################################################################
#
#                 Cambridge Crystallographic Data Centre
#                                CCDC 
#
#######################################################################
#
# If this CIF has been generated from an entry in the Cambridge 
# Structural Database, then it will include bibliographic, chemical, 
# crystal, experimental, refinement or atomic coordinate data resulting 
# from the CCDC's data processing and validation procedures.
#
#######################################################################

data_KEPJAQ
_symmetry_cell_setting           monoclinic
_symmetry_space_group_name_H-M   'P 21/n'
_symmetry_Int_Tables_number      14
_space_group_name_Hall           '-P 2yn'
loop_
_symmetry_equiv_pos_site_id
_symmetry_equiv_pos_as_xyz
1 x,y,z
2 1/2+x,1/2-y,1/2+z
3 -x,-y,-z
4 1/2-x,1/2+y,1/2-z
_cell_length_a                   10.822(2)
_cell_length_b                   9.216(2)
_cell_length_c                   14.228(3)
_cell_angle_alpha                90
_cell_angle_beta                 104.79(3)
_cell_angle_gamma                90
_cell_volume                     1372.02
loop_
_atom_site_label
_atom_site_type_symbol
_atom_site_fract_x
_atom_site_fract_y
_atom_site_fract_z
Er1 Er 0.044840(19) -0.12858(2) -0.235310(16)
O1 O 0.1866(4) -0.2236(4) -0.0866(3)
O2 O 0.2649(4) -0.4216(4) -0.0013(3)
O3 O -0.3213(4) -0.6183(4) -0.2299(3)
O4 O -0.1963(4) -0.7995(4) -0.1569(3)
O5 O 0.2101(4) 0.0362(4) -0.2035(3)
O6 O 0.2984(4) 0.2475(5) -0.2169(3)
O7 O -0.1487(4) 0.5286(5) -0.4760(4)
H1 H -0.2229 0.5779 -0.5198
O8 O -0.2958(4) 0.3532(5) -0.4916(4)
O9 O -0.0014(4) 0.0085(4) -0.1132(3)
H2 H 0.0647 0.0328 -0.0652
H3 H -0.0625 0.0676 -0.1278
O10 O -0.0250(4) -0.1953(5) -0.3973(3)
H4 H -0.1111 -0.1623 -0.4229
H5 H -0.0222 -0.2992 -0.4025
N1 N -0.0153(4) -0.3609(5) -0.1857(4)
N2 N -0.1190(4) -0.4436(5) -0.2152(4)
H6 H -0.1909 -0.4095 -0.2578
N3 N -0.0076(4) 0.1036(5) -0.3256(4)
N4 N -0.1087(5) 0.1668(6) -0.3864(4)
H7 H -0.1733 0.1208 -0.4258
C1 C 0.1822(5) -0.3562(6) -0.0633(4)
C2 C 0.0654(5) -0.4352(5) -0.1158(4)
C3 C 0.0137(5) -0.5705(6) -0.1026(4)
H8 H 0.0538 -0.6322 -0.0623
C4 C -0.1060(5) -0.5706(5) -0.1664(4)
C5 C -0.2163(5) -0.6719(6) -0.1855(4)
C6 C 0.2061(5) 0.1630(6) -0.2359(4)
C7 C 0.0826(5) 0.2080(6) -0.3030(4)
C8 C 0.0364(6) 0.3382(6) -0.3488(4)
H9 H 0.0804 0.4063 -0.3714
C9 C -0.0858(5) 0.3079(6) -0.4013(4)
C10 C -0.1885(6) 0.3989(6) -0.4626(5)
O6C O 0.2016(4) -0.2525(5) -0.2831(3)
O3C O -0.1787(4) -0.1183(4) -0.2701(3)
Er1C Er 0.455160(19) 0.37142(2) -0.264690(16)
Er1C_2 Er -0.544840(19) -0.62858(2) -0.264690(16)
loop_
_geom_bond_atom_site_label_1
_geom_bond_atom_site_label_2
_geom_bond_site_symmetry_1
_geom_bond_site_symmetry_2
Er1 O1 1_555 1_555
O1 C1 1_555 1_555
O2 C1 1_555 1_555
O3 C5 1_555 1_555
O4 C5 1_555 1_555
O5 Er1 1_555 1_555
O6 C6 1_555 1_555
O7 H1 1_555 1_555
O8 C10 1_555 1_555
O9 Er1 1_555 1_555
H2 O9 1_555 1_555
H3 O9 1_555 1_555
O10 Er1 1_555 1_555
H4 O10 1_555 1_555
H5 O10 1_555 1_555
N1 Er1 1_555 1_555
N2 N1 1_555 1_555
H6 N2 1_555 1_555
N3 Er1 1_555 1_555
N4 N3 1_555 1_555
H7 N4 1_555 1_555
C1 C2 1_555 1_555
C2 N1 1_555 1_555
C3 C2 1_555 1_555
H8 C3 1_555 1_555
C4 N2 1_555 1_555
C5 C4 1_555 1_555
C6 O5 1_555 1_555
C7 N3 1_555 1_555
C8 C7 1_555 1_555
H9 C8 1_555 1_555
C9 N4 1_555 1_555
C10 O7 1_555 1_555
O6C Er1 1_555 1_555
O3C Er1 1_555 1_555
Er1C O6 1_555 1_555
Er1C_2 O3 1_555 1_555
C3 C4 1_555 1_555
C6 C7 1_555 1_555
C8 C9 1_555 1_555
C9 C10 1_555 1_555

#END
