
#######################################################################
#
#                 Cambridge Crystallographic Data Centre
#                                CCDC 
#
#######################################################################
#
# If this CIF has been generated from an entry in the Cambridge 
# Structural Database, then it will include bibliographic, chemical, 
# crystal, experimental, refinement or atomic coordinate data resulting 
# from the CCDC's data processing and validation procedures.
#
#######################################################################

data_KEPMUO
_symmetry_cell_setting           monoclinic
_symmetry_space_group_name_H-M   'P 21/c'
_symmetry_Int_Tables_number      14
_space_group_name_Hall           '-P 2ybc'
loop_
_symmetry_equiv_pos_site_id
_symmetry_equiv_pos_as_xyz
1 x,y,z
2 -x,1/2+y,1/2-z
3 -x,-y,-z
4 x,1/2-y,1/2+z
_cell_length_a                   11.0232(11)
_cell_length_b                   11.4736(10)
_cell_length_c                   14.1127(13)
_cell_angle_alpha                90
_cell_angle_beta                 100.633(3)
_cell_angle_gamma                90
_cell_volume                     1754.27
loop_
_atom_site_label
_atom_site_type_symbol
_atom_site_fract_x
_atom_site_fract_y
_atom_site_fract_z
Mn1 Mn 0.15608(2) 0.08202(2) 0.744537(15)
N1 N 0.24610(11) -0.08561(11) 0.80328(9)
N2 N 0.35130(11) 0.12706(12) 0.81838(8)
C1 C 0.19351(15) -0.19000(15) 0.79400(12)
H1 H 0.1097 -0.1949 0.7682
C2 C 0.25812(17) -0.29245(16) 0.82114(13)
H2 H 0.2170 -0.3636 0.8132
C3 C 0.38191(17) -0.28960(15) 0.85956(12)
C4 C 0.44072(14) -0.17920(15) 0.87018(10)
C5 C 0.56993(15) -0.16343(17) 0.90781(12)
H3 H 0.6186 -0.2284 0.9273
C6 C 0.62229(15) -0.05708(17) 0.91555(12)
H4 H 0.7062 -0.0505 0.9406
C7 C 0.55254(14) 0.04631(15) 0.88625(10)
C8 C 0.60487(15) 0.15958(17) 0.89258(11)
C9 C 0.52713(17) 0.25158(17) 0.86289(12)
H5 H 0.5580 0.3272 0.8670
C10 C 0.40214(16) 0.23211(15) 0.82670(11)
H6 H 0.3520 0.2962 0.8074
C11 C 0.42538(13) 0.03453(14) 0.84876(9)
C12 C 0.36910(13) -0.07967(13) 0.84075(10)
C13 C 0.4527(2) -0.40030(17) 0.88866(18)
H7 H 0.3981 -0.4659 0.8755
H8 H 0.4869 -0.3977 0.9563
H9 H 0.5182 -0.4078 0.8527
C14 C 0.74060(16) 0.1788(2) 0.92978(14)
H10 H 0.7587 0.2606 0.9287
H11 H 0.7878 0.1378 0.8896
H12 H 0.7618 0.1503 0.9947
N3 N 0.11923(16) 0.24879(16) 0.67252(11)
C15 C 0.08460(14) 0.30224(15) 0.60492(11)
N4 N 0.03905(17) 0.37128(18) 0.53567(11)
C16 C 0.06492(14) 0.36724(15) 0.45027(11)
N5 N 0.08122(14) 0.37347(15) 0.37248(10)
N6 N 0.24148(16) 0.03056(18) 0.60861(11)
C17 C 0.21282(14) 0.04922(15) 0.52804(11)
N7 N 0.19186(16) 0.07722(16) 0.43783(12)
C18 C 0.09287(15) 0.03937(17) 0.38132(12)
N8 N 0.01076(14) 0.00905(16) 0.32541(11)
Mn1C Mn 0.15608(2) 0.41798(2) 0.244537(15)
Mn1B Mn -0.15608(2) -0.08202(2) 0.255463(15)
N5C N 0.08122(14) 0.12653(15) 0.87248(10)
N8B N -0.01076(14) -0.00905(16) 0.67459(11)
loop_
_geom_bond_atom_site_label_1
_geom_bond_atom_site_label_2
_geom_bond_site_symmetry_1
_geom_bond_site_symmetry_2
Mn1 N1 1_555 1_555
N1 C1 1_555 1_555
N2 Mn1 1_555 1_555
C1 H1 1_555 1_555
C2 C1 1_555 1_555
H2 C2 1_555 1_555
C3 C2 1_555 1_555
C4 C3 1_555 1_555
C5 C4 1_555 1_555
H3 C5 1_555 1_555
C6 C5 1_555 1_555
H4 C6 1_555 1_555
C7 C6 1_555 1_555
C8 C7 1_555 1_555
C9 C8 1_555 1_555
H5 C9 1_555 1_555
C10 N2 1_555 1_555
H6 C10 1_555 1_555
C11 N2 1_555 1_555
C12 N1 1_555 1_555
C13 C3 1_555 1_555
H7 C13 1_555 1_555
H8 C13 1_555 1_555
H9 C13 1_555 1_555
C14 C8 1_555 1_555
H10 C14 1_555 1_555
H11 C14 1_555 1_555
H12 C14 1_555 1_555
N3 Mn1 1_555 1_555
C15 N3 1_555 1_555
N4 C15 1_555 1_555
C16 N4 1_555 1_555
N5 C16 1_555 1_555
N6 Mn1 1_555 1_555
C17 N6 1_555 1_555
N7 C17 1_555 1_555
C18 N7 1_555 1_555
N8 C18 1_555 1_555
Mn1C N5 1_555 1_555
Mn1B N8 1_555 1_555
N5C Mn1 1_555 1_555
N8B Mn1 1_555 1_555
C4 C12 1_555 1_555
C7 C11 1_555 1_555
C9 C10 1_555 1_555
C11 C12 1_555 1_555

#END
