
#######################################################################
#
#                 Cambridge Crystallographic Data Centre
#                                CCDC 
#
#######################################################################
#
# If this CIF has been generated from an entry in the Cambridge 
# Structural Database, then it will include bibliographic, chemical, 
# crystal, experimental, refinement or atomic coordinate data resulting 
# from the CCDC's data processing and validation procedures.
#
#######################################################################

data_KEPMEY
_symmetry_cell_setting           monoclinic
_symmetry_space_group_name_H-M   'P 21/c'
_symmetry_Int_Tables_number      14
_space_group_name_Hall           '-P 2ybc'
loop_
_symmetry_equiv_pos_site_id
_symmetry_equiv_pos_as_xyz
1 x,y,z
2 -x,1/2+y,1/2-z
3 -x,-y,-z
4 x,1/2-y,1/2+z
_cell_length_a                   10.1388(6)
_cell_length_b                   10.9373(7)
_cell_length_c                   14.2059(7)
_cell_angle_alpha                90
_cell_angle_beta                 101.062(2)
_cell_angle_gamma                90
_cell_volume                     1546.04
loop_
_atom_site_label
_atom_site_type_symbol
_atom_site_fract_x
_atom_site_fract_y
_atom_site_fract_z
Fe1 Fe 0.15788(2) 0.11843(2) 0.738331(14)
N1 N 0.26370(12) -0.04863(12) 0.79162(9)
N2 N 0.35107(12) 0.18371(12) 0.81381(8)
C1 C 0.22036(17) -0.16270(17) 0.77949(12)
H1 H 0.1319 -0.1761 0.7490
C2 C 0.3010(2) -0.26388(18) 0.81018(14)
H2 H 0.2666 -0.3426 0.7997
C3 C 0.4307(2) -0.24622(18) 0.85563(14)
H3 H 0.4853 -0.3128 0.8771
C4 C 0.48111(17) -0.12692(16) 0.86972(12)
C5 C 0.61523(18) -0.0985(2) 0.91759(13)
H4 H 0.6740 -0.1619 0.9402
C6 C 0.65775(16) 0.0169(2) 0.93051(12)
H5 H 0.7454 0.0320 0.9621
C7 C 0.57191(16) 0.11769(17) 0.89705(11)
C8 C 0.60898(18) 0.2410(2) 0.91063(13)
H6 H 0.6950 0.2614 0.9426
C9 C 0.5200(2) 0.3303(2) 0.87732(14)
H7 H 0.5441 0.4121 0.8869
C10 C 0.39116(18) 0.29864(16) 0.82830(12)
H8 H 0.3313 0.3609 0.8049
C11 C 0.43955(14) 0.09330(15) 0.84842(10)
C12 C 0.39400(14) -0.03041(15) 0.83627(10)
N3 N 0.09297(15) 0.28875(15) 0.67024(10)
C13 C 0.04425(15) 0.31380(16) 0.59314(12)
N4 N -0.02246(15) 0.3429(2) 0.50888(11)
C14 C 0.03389(15) 0.34709(16) 0.43381(11)
N5 N 0.07100(14) 0.35269(14) 0.36298(10)
N6 N 0.24864(15) 0.08613(15) 0.60760(10)
C15 C 0.22972(14) 0.05434(14) 0.52998(11)
N7 N 0.22373(14) 0.01678(19) 0.44289(11)
C16 C 0.10803(16) -0.00210(17) 0.38735(11)
N8 N 0.01408(15) -0.02355(16) 0.33163(11)
Fe1C Fe 0.15788(2) 0.38157(2) 0.238331(14)
Fe1B Fe -0.15788(2) -0.11843(2) 0.261669(14)
N5C N 0.07100(14) 0.14731(14) 0.86298(10)
N8B N -0.01408(15) 0.02355(16) 0.66837(11)
loop_
_geom_bond_atom_site_label_1
_geom_bond_atom_site_label_2
_geom_bond_site_symmetry_1
_geom_bond_site_symmetry_2
Fe1 N1 1_555 1_555
N1 C1 1_555 1_555
N2 Fe1 1_555 1_555
C1 H1 1_555 1_555
C2 C1 1_555 1_555
H2 C2 1_555 1_555
C3 C2 1_555 1_555
H3 C3 1_555 1_555
C4 C3 1_555 1_555
C5 C4 1_555 1_555
H4 C5 1_555 1_555
C6 C5 1_555 1_555
H5 C6 1_555 1_555
C7 C6 1_555 1_555
C8 C7 1_555 1_555
H6 C8 1_555 1_555
C9 C8 1_555 1_555
H7 C9 1_555 1_555
C10 N2 1_555 1_555
H8 C10 1_555 1_555
C11 N2 1_555 1_555
C12 N1 1_555 1_555
N3 Fe1 1_555 1_555
C13 N3 1_555 1_555
N4 C13 1_555 1_555
C14 N4 1_555 1_555
N5 C14 1_555 1_555
N6 Fe1 1_555 1_555
C15 N6 1_555 1_555
N7 C15 1_555 1_555
C16 N7 1_555 1_555
N8 C16 1_555 1_555
Fe1C N5 1_555 1_555
Fe1B N8 1_555 1_555
N5C Fe1 1_555 1_555
N8B Fe1 1_555 1_555
C4 C12 1_555 1_555
C7 C11 1_555 1_555
C9 C10 1_555 1_555
C11 C12 1_555 1_555

#END
