
#######################################################################
#
#                 Cambridge Crystallographic Data Centre
#                                CCDC 
#
#######################################################################
#
# If this CIF has been generated from an entry in the Cambridge 
# Structural Database, then it will include bibliographic, chemical, 
# crystal, experimental, refinement or atomic coordinate data resulting 
# from the CCDC's data processing and validation procedures.
#
#######################################################################

data_KEPNEZ
_symmetry_cell_setting           monoclinic
_symmetry_space_group_name_H-M   'P 21/c'
_symmetry_Int_Tables_number      14
_space_group_name_Hall           '-P 2ybc'
loop_
_symmetry_equiv_pos_site_id
_symmetry_equiv_pos_as_xyz
1 x,y,z
2 -x,1/2+y,1/2-z
3 -x,-y,-z
4 x,1/2-y,1/2+z
_cell_length_a                   10.9540(6)
_cell_length_b                   11.4147(6)
_cell_length_c                   13.9354(7)
_cell_angle_alpha                90
_cell_angle_beta                 101.6600(10)
_cell_angle_gamma                90
_cell_volume                     1706.48
loop_
_atom_site_label
_atom_site_type_symbol
_atom_site_fract_x
_atom_site_fract_y
_atom_site_fract_z
Co1 Co 0.16195(2) 0.08324(2) 0.745855(15)
N1 N 0.24129(13) -0.07955(13) 0.80066(10)
N2 N 0.34659(12) 0.13199(13) 0.81630(9)
C1 C 0.18620(17) -0.18415(17) 0.79076(14)
H1 H 0.1012 -0.1884 0.7645
C2 C 0.25180(19) -0.28763(18) 0.81850(15)
H2 H 0.2096 -0.3588 0.8105
C3 C 0.37683(19) -0.28632(17) 0.85718(14)
C4 C 0.43819(17) -0.17511(16) 0.86883(12)
C5 C 0.56902(17) -0.15952(18) 0.90717(14)
H3 H 0.6183 -0.2250 0.9270
C6 C 0.62208(17) -0.05333(19) 0.91517(14)
H4 H 0.7071 -0.0471 0.9406
C7 C 0.55148(16) 0.05139(17) 0.88566(12)
C8 C 0.60408(15) 0.16537(18) 0.89273(12)
C9 C 0.52406(19) 0.25695(17) 0.86268(14)
H5 H 0.5548 0.3331 0.8672
C10 C 0.39754(17) 0.23766(16) 0.82548(13)
H6 H 0.3465 0.3021 0.8062
C11 C 0.42273(14) 0.03896(15) 0.84706(11)
C12 C 0.36553(15) -0.07525(15) 0.83912(12)
C13 C 0.4483(3) -0.39807(19) 0.8859(2)
H7 H 0.3926 -0.4637 0.8724
H8 H 0.4848 -0.3961 0.9545
H9 H 0.5129 -0.4056 0.8489
C14 C 0.74166(18) 0.1849(2) 0.93051(16)
H10 H 0.7597 0.2671 0.9294
H11 H 0.7882 0.1437 0.8897
H12 H 0.7646 0.1562 0.9965
N3 N 0.11840(16) 0.24438(18) 0.67496(13)
C15 C 0.08545(15) 0.29823(18) 0.60532(14)
N4 N 0.04038(18) 0.3679(2) 0.53391(13)
C16 C 0.07150(16) 0.36677(18) 0.44890(14)
N5 N 0.09166(15) 0.37621(16) 0.37126(12)
N6 N 0.24091(18) 0.0357(2) 0.61290(13)
C17 C 0.21188(16) 0.04855(17) 0.53020(13)
N7 N 0.18906(18) 0.07078(19) 0.43741(14)
C18 C 0.08856(17) 0.02948(19) 0.38112(14)
N8 N 0.00468(15) -0.00418(16) 0.32499(12)
Co1C Co 0.16195(2) 0.41676(2) 0.245855(15)
Co1B Co -0.16195(2) -0.08324(2) 0.254145(15)
N5C N 0.09166(15) 0.12379(16) 0.87126(12)
N8B N -0.00468(15) 0.00418(16) 0.67501(12)
loop_
_geom_bond_atom_site_label_1
_geom_bond_atom_site_label_2
_geom_bond_site_symmetry_1
_geom_bond_site_symmetry_2
Co1 N1 1_555 1_555
N1 C1 1_555 1_555
N2 Co1 1_555 1_555
C1 H1 1_555 1_555
C2 C1 1_555 1_555
H2 C2 1_555 1_555
C3 C2 1_555 1_555
C4 C3 1_555 1_555
C5 C4 1_555 1_555
H3 C5 1_555 1_555
C6 C5 1_555 1_555
H4 C6 1_555 1_555
C7 C6 1_555 1_555
C8 C7 1_555 1_555
C9 C8 1_555 1_555
H5 C9 1_555 1_555
C10 N2 1_555 1_555
H6 C10 1_555 1_555
C11 N2 1_555 1_555
C12 N1 1_555 1_555
C13 C3 1_555 1_555
H7 C13 1_555 1_555
H8 C13 1_555 1_555
H9 C13 1_555 1_555
C14 C8 1_555 1_555
H10 C14 1_555 1_555
H11 C14 1_555 1_555
H12 C14 1_555 1_555
N3 Co1 1_555 1_555
C15 N3 1_555 1_555
N4 C15 1_555 1_555
C16 N4 1_555 1_555
N5 C16 1_555 1_555
N6 Co1 1_555 1_555
C17 N6 1_555 1_555
N7 C17 1_555 1_555
C18 N7 1_555 1_555
N8 C18 1_555 1_555
Co1C N5 1_555 1_555
Co1B N8 1_555 1_555
N5C Co1 1_555 1_555
N8B Co1 1_555 1_555
C4 C12 1_555 1_555
C7 C11 1_555 1_555
C9 C10 1_555 1_555
C11 C12 1_555 1_555

#END
