
#######################################################################
#
#                 Cambridge Crystallographic Data Centre
#                                CCDC 
#
#######################################################################
#
# If this CIF has been generated from an entry in the Cambridge 
# Structural Database, then it will include bibliographic, chemical, 
# crystal, experimental, refinement or atomic coordinate data resulting 
# from the CCDC's data processing and validation procedures.
#
#######################################################################

data_KEPPAX
_symmetry_cell_setting           monoclinic
_symmetry_space_group_name_H-M   'P 21/n'
_symmetry_Int_Tables_number      14
_space_group_name_Hall           '-P 2yn'
loop_
_symmetry_equiv_pos_site_id
_symmetry_equiv_pos_as_xyz
1 x,y,z
2 1/2-x,1/2+y,1/2-z
3 -x,-y,-z
4 1/2+x,1/2-y,1/2+z
_cell_length_a                   8.8604(2)
_cell_length_b                   15.4093(3)
_cell_length_c                   12.8625(2)
_cell_angle_alpha                90
_cell_angle_beta                 94.4930(10)
_cell_angle_gamma                90
_cell_volume                     1750.75
loop_
_atom_site_label
_atom_site_type_symbol
_atom_site_fract_x
_atom_site_fract_y
_atom_site_fract_z
Co1 Co 0.25870(3) 0.966699(15) 0.789755(18)
N1 N 0.44859(17) 0.89893(10) 0.73011(12)
N2 N 0.24898(18) 1.00853(12) 0.62678(13)
C1 C 0.5584(2) 0.85306(14) 0.78071(19)
C2 C 0.6425(3) 0.79214(17) 0.7256(3)
H1 H 0.7181 0.7596 0.7615
C3 C 0.6141(4) 0.78090(18) 0.6218(3)
H2 H 0.6680 0.7397 0.5871
C4 C 0.5048(3) 0.83073(17) 0.5671(2)
C5 C 0.4754(4) 0.8272(2) 0.4550(3)
H3 H 0.5225 0.7851 0.4172
C6 C 0.3805(4) 0.8843(3) 0.4048(2)
H4 H 0.3659 0.8820 0.3324
C7 C 0.3027(3) 0.9475(2) 0.45945(18)
C8 C 0.2080(4) 1.0121(3) 0.4111(2)
H5 H 0.1883 1.0122 0.3391
C9 C 0.1464(3) 1.0731(3) 0.4689(3)
H6 H 0.0885 1.1171 0.4362
C10 C 0.1680(2) 1.07161(18) 0.5775(2)
C11 C 0.3200(2) 0.94897(14) 0.56974(15)
C12 C 0.4250(2) 0.89038(13) 0.62431(16)
C13 C 0.5932(3) 0.86794(19) 0.8946(2)
H7 H 0.5290 0.9131 0.9177
H8 H 0.6972 0.8849 0.9076
H9 H 0.5756 0.8154 0.9320
C14 C 0.1048(3) 1.14404(18) 0.6388(3)
H10 H 0.1321 1.1353 0.7117
H11 H -0.0035 1.1448 0.6266
H12 H 0.1453 1.1983 0.6172
N3 N 0.13350(19) 0.85331(11) 0.73750(14)
C15 C 0.0830(2) 0.78995(12) 0.70405(14)
N4 N 0.0105(2) 0.72327(12) 0.66309(18)
C16 C 0.0731(2) 0.64666(13) 0.66626(15)
N5 N 0.1169(2) 0.57749(11) 0.66587(14)
N6 N 0.0511(2) 1.02250(13) 0.82456(15)
C17 C -0.0627(2) 1.04168(12) 0.85436(15)
N7 N -0.1991(2) 1.06417(15) 0.87553(14)
C18 C -0.2294(2) 1.07172(13) 0.97249(15)
N8 N -0.2672(2) 1.08076(13) 1.05462(14)
Co1A Co 0.24130(3) 0.466699(15) 0.710245(18)
Co1B Co -0.25870(3) 1.033301(15) 1.210245(18)
N5A N 0.3831(2) 1.07749(11) 0.83413(14)
N8B N 0.2672(2) 0.91924(13) 0.94538(14)
loop_
_geom_bond_atom_site_label_1
_geom_bond_atom_site_label_2
_geom_bond_site_symmetry_1
_geom_bond_site_symmetry_2
Co1 N1 1_555 1_555
N1 C1 1_555 1_555
N2 Co1 1_555 1_555
C1 C2 1_555 1_555
C2 H1 1_555 1_555
C3 C2 1_555 1_555
H2 C3 1_555 1_555
C4 C3 1_555 1_555
C5 C4 1_555 1_555
H3 C5 1_555 1_555
C6 C5 1_555 1_555
H4 C6 1_555 1_555
C7 C6 1_555 1_555
C8 C7 1_555 1_555
H5 C8 1_555 1_555
C9 C8 1_555 1_555
H6 C9 1_555 1_555
C10 N2 1_555 1_555
C11 N2 1_555 1_555
C12 N1 1_555 1_555
C13 C1 1_555 1_555
H7 C13 1_555 1_555
H8 C13 1_555 1_555
H9 C13 1_555 1_555
C14 C10 1_555 1_555
H10 C14 1_555 1_555
H11 C14 1_555 1_555
H12 C14 1_555 1_555
N3 Co1 1_555 1_555
C15 N3 1_555 1_555
N4 C15 1_555 1_555
C16 N4 1_555 1_555
N5 C16 1_555 1_555
N6 Co1 1_555 1_555
C17 N6 1_555 1_555
N7 C17 1_555 1_555
C18 N7 1_555 1_555
N8 C18 1_555 1_555
Co1A N5 1_555 1_555
Co1B N8 1_555 1_555
N5A Co1 1_555 1_555
N8B Co1 1_555 1_555
C4 C12 1_555 1_555
C7 C11 1_555 1_555
C9 C10 1_555 1_555
C11 C12 1_555 1_555

#END
