
#######################################################################
#
#                 Cambridge Crystallographic Data Centre
#                                CCDC 
#
#######################################################################
#
# If this CIF has been generated from an entry in the Cambridge 
# Structural Database, then it will include bibliographic, chemical, 
# crystal, experimental, refinement or atomic coordinate data resulting 
# from the CCDC's data processing and validation procedures.
#
#######################################################################

data_KEQGIW01
_symmetry_cell_setting           monoclinic
_symmetry_space_group_name_H-M   'C 2/c'
_symmetry_Int_Tables_number      15
_space_group_name_Hall           '-C 2yn'
loop_
_symmetry_equiv_pos_site_id
_symmetry_equiv_pos_as_xyz
1 x,y,z
2 -x,y,1/2-z
3 1/2+x,1/2+y,z
4 1/2-x,1/2+y,1/2-z
5 -x,-y,-z
6 x,-y,1/2+z
7 1/2-x,1/2-y,-z
8 1/2+x,1/2-y,1/2+z
_cell_length_a                   12.7126(13)
_cell_length_b                   13.0461(13)
_cell_length_c                   6.6202(7)
_cell_angle_alpha                90
_cell_angle_beta                 97.296(2)
_cell_angle_gamma                90
_cell_volume                     1089.07
loop_
_atom_site_label
_atom_site_type_symbol
_atom_site_fract_x
_atom_site_fract_y
_atom_site_fract_z
Ag1 Ag 0.06555(4) -0.09032(4) 0.07674(9)
Ag2 Ag 0.5000 0.0000 1.0000
Ag3 Ag 0.5000 0.18441(6) 0.7500
O1 O 0.4024(4) 0.2212(4) 0.4257(8)
O2 O 0.0828(4) 0.1608(4) 0.0734(8)
O3 O 0.3016(4) -0.1061(4) 0.2825(8)
N1 N 0.1851(4) 0.0218(4) 0.1749(9)
N2 N 0.2460(5) 0.1890(4) 0.2350(10)
H1 H 0.2360 0.2537 0.2165
N3 N 0.3586(4) 0.0555(4) 0.3473(9)
C1 C 0.1667(6) 0.1232(5) 0.1565(11)
C2 C 0.3388(5) 0.1579(5) 0.3396(10)
C3 C 0.2821(6) -0.0123(5) 0.2682(11)
Ag1A Ag -0.06555(4) -0.09032(4) 0.42326(9)
O1A O -0.4024(4) 0.2212(4) 0.0743(8)
O2A O -0.0828(4) 0.1608(4) 0.4266(8)
O3A O -0.3016(4) -0.1061(4) 0.2175(8)
N1A N -0.1851(4) 0.0218(4) 0.3251(9)
N2A N -0.2460(5) 0.1890(4) 0.2650(10)
H1A H -0.2360 0.2537 0.2835
N3A N -0.3586(4) 0.0555(4) 0.1527(9)
C1A C -0.1667(6) 0.1232(5) 0.3435(11)
C2A C -0.3388(5) 0.1579(5) 0.1604(10)
C3A C -0.2821(6) -0.0123(5) 0.2318(11)
Ag1B Ag -0.43445(4) 0.40968(4) 0.07674(9)
Ag1C Ag 0.43445(4) 0.40968(4) 0.42326(9)
Ag1D Ag -0.06555(4) 0.09032(4) -0.07674(9)
Ag1E Ag 0.06555(4) 0.09032(4) 0.57674(9)
Ag2_2 Ag -0.5000 0.0000 0.0000
Ag2A Ag 0.5000 0.0000 0.5000
Ag3_2 Ag -0.5000 0.18441(6) -0.2500
Ag3D Ag 0.5000 -0.18441(6) 1.2500
Ag3F Ag 0.0000 0.31559(6) 0.2500
O1A_2 O 0.5976(4) 0.2212(4) 1.0743(8)
O1B O -0.0976(4) -0.2788(4) 0.4257(8)
O1C O 0.0976(4) -0.2788(4) 0.0743(8)
O2D O -0.0828(4) -0.1608(4) -0.0734(8)
O2E O 0.0828(4) -0.1608(4) 0.5734(8)
O2F O 0.4172(4) 0.3392(4) 0.9266(8)
O2G O 0.5828(4) 0.3392(4) 0.5734(8)
N3A_2 N 0.6414(4) 0.0555(4) 1.1527(9)
N3E N 0.3586(4) -0.0555(4) 0.8473(9)
loop_
_geom_bond_atom_site_label_1
_geom_bond_atom_site_label_2
_geom_bond_site_symmetry_1
_geom_bond_site_symmetry_2
Ag1 N1 1_555 1_555
Ag2 Ag3 1_555 1_555
Ag3 O1 1_555 1_555
O1 C2 1_555 1_555
O2 C1 1_555 1_555
O3 C3 1_555 1_555
N1 C1 1_555 1_555
N2 H1 1_555 1_555
N3 C2 1_555 1_555
C1 N2 1_555 1_555
C2 N2 1_555 1_555
C3 N1 1_555 1_555
Ag1A Ag1 1_555 1_555
O1A C2A 1_555 1_555
O2A C1A 1_555 1_555
O3A C3A 1_555 1_555
N1A Ag1A 1_555 1_555
N2A H1A 1_555 1_555
N3A C2A 1_555 1_555
C1A N1A 1_555 1_555
C2A N2A 1_555 1_555
C3A N1A 1_555 1_555
Ag1B O1A 1_555 1_555
Ag1C O1 1_555 1_555
Ag1D Ag1 1_555 1_555
Ag1E Ag1A 1_555 1_555
Ag2_2 N3A 1_555 1_555
Ag2A Ag3 1_555 1_555
Ag3_2 O1A 1_555 1_555
Ag3D Ag2 1_555 1_555
Ag3F O2 1_555 1_555
O1A_2 Ag3 1_555 1_555
O1B Ag1A 1_555 1_555
O1C Ag1 1_555 1_555
O2D Ag1 1_555 1_555
O2E Ag1A 1_555 1_555
O2F Ag3 1_555 1_555
O2G Ag3 1_555 1_555
N3A_2 Ag2 1_555 1_555
N3E Ag2 1_555 1_555
O2 Ag1D 1_555 1_555
N3 C3 1_555 1_555
N3 Ag2A 1_555 1_555
O2A Ag1E 1_555 1_555
O2A Ag3F 1_555 1_555
N2A C1A 1_555 1_555
N3A C3A 1_555 1_555
Ag1C O2G 1_555 1_555
Ag2_2 Ag3_2 1_555 1_555

#END
