
#######################################################################
#
#                 Cambridge Crystallographic Data Centre
#                                CCDC 
#
#######################################################################
#
# If this CIF has been generated from an entry in the Cambridge 
# Structural Database, then it will include bibliographic, chemical, 
# crystal, experimental, refinement or atomic coordinate data resulting 
# from the CCDC's data processing and validation procedures.
#
#######################################################################

data_KEQRIH
_symmetry_cell_setting           orthorhombic
_symmetry_space_group_name_H-M   'P b c a'
_symmetry_Int_Tables_number      61
_space_group_name_Hall           '-P 2ac 2ab'
loop_
_symmetry_equiv_pos_site_id
_symmetry_equiv_pos_as_xyz
1 x,y,z
2 1/2-x,1/2+y,z
3 x,1/2-y,1/2+z
4 1/2+x,y,1/2-z
5 -x,-y,-z
6 1/2+x,1/2-y,-z
7 -x,1/2+y,1/2-z
8 1/2-x,-y,1/2+z
_cell_length_a                   12.6295(7)
_cell_length_b                   20.7874(9)
_cell_length_c                   18.3301(13)
_cell_angle_alpha                90
_cell_angle_beta                 90
_cell_angle_gamma                90
_cell_volume                     4812.28
loop_
_atom_site_label
_atom_site_type_symbol
_atom_site_fract_x
_atom_site_fract_y
_atom_site_fract_z
Gd1 Gd -0.197000(15) 0.203850(9) 0.512600(11)
Cu1 Cu -0.01528(4) 0.15027(2) 0.37033(3)
O1 O -0.1238(2) 0.11994(12) 0.43884(14)
C1 C -0.1499(3) 0.05762(18) 0.4437(2)
C2 C -0.2514(3) 0.04174(19) 0.4695(2)
C3 C -0.2839(4) -0.0212(2) 0.4736(3)
H1 H -0.3516 -0.0307 0.4903
C4 C -0.2166(4) -0.0705(2) 0.4531(3)
H2 H -0.2391 -0.1130 0.4557
C5 C -0.1174(4) -0.0564(2) 0.4292(3)
H3 H -0.0719 -0.0898 0.4164
C6 C -0.0821(3) 0.00746(18) 0.4234(2)
C7 C 0.0240(3) 0.01807(19) 0.3963(2)
H4 H 0.0679 -0.0178 0.3937
O2 O -0.3113(2) 0.09531(13) 0.48740(17)
C8 C -0.4186(4) 0.0822(2) 0.5095(3)
H5 H -0.4539 0.1219 0.5205
H6 H -0.4181 0.0553 0.5521
H7 H -0.4552 0.0606 0.4707
N1 N 0.0635(3) 0.07102(16) 0.37563(18)
C9 C 0.1731(3) 0.0708(2) 0.3481(2)
H8 H 0.2032 0.0283 0.3547
H9 H 0.2151 0.1009 0.3763
C10 C 0.1788(3) 0.0892(2) 0.2670(2)
C11 C 0.1664(4) 0.1624(2) 0.2569(3)
H10 H 0.2277 0.1836 0.2778
H11 H 0.1657 0.1719 0.2050
C12 C 0.0992(4) 0.0520(2) 0.2224(3)
H12 H 0.1047 0.0646 0.1721
H13 H 0.0291 0.0610 0.2398
H14 H 0.1133 0.0068 0.2267
C13 C 0.2908(4) 0.0733(2) 0.2419(3)
H15 H 0.2985 0.0845 0.1913
H16 H 0.3035 0.0280 0.2480
H17 H 0.3409 0.0972 0.2704
N2 N 0.0702(3) 0.18945(16) 0.29019(19)
C14 C 0.0391(3) 0.2464(2) 0.2732(2)
C15 C -0.0540(4) 0.2715(2) 0.3124(2)
C16 C 0.0903(4) 0.2884(2) 0.2169(2)
H18 H 0.1491 0.2661 0.1955
H19 H 0.1148 0.3273 0.2395
H20 H 0.0396 0.2988 0.1796
C17 C -0.0965(5) 0.3366(2) 0.3022(3)
H21 H -0.1564 0.3427 0.3336
H22 H -0.1179 0.3421 0.2523
H23 H -0.0428 0.3677 0.3139
N3 N -0.0923(3) 0.23094(16) 0.35922(18)
O3 O -0.1777(2) 0.24651(15) 0.39836(17)
O4 O -0.3802(3) 0.22495(16) 0.45900(19)
O5 O -0.3447(3) 0.28799(16) 0.5463(2)
N4 N -0.4075(3) 0.27119(16) 0.4977(2)
O6 O -0.4918(2) 0.29991(15) 0.4883(2)
O7 O -0.3089(3) 0.16904(15) 0.61761(18)
O8 O -0.1578(3) 0.12121(15) 0.60439(18)
N5 N -0.2456(4) 0.12492(17) 0.6378(2)
O9 O -0.2686(4) 0.08776(18) 0.6867(2)
O10 O -0.1226(3) 0.31321(15) 0.5252(2)
O11 O -0.1363(3) 0.25973(19) 0.6245(2)
N6 N -0.1072(3) 0.3105(2) 0.5932(3)
O12 O -0.0667(4) 0.3549(2) 0.6261(3)
Gd1E Gd -0.697000(15) 0.296150(9) 0.487400(11)
O6E O 0.0082(2) 0.20009(15) 0.5117(2)
loop_
_geom_bond_atom_site_label_1
_geom_bond_atom_site_label_2
_geom_bond_site_symmetry_1
_geom_bond_site_symmetry_2
Gd1 O1 1_555 1_555
Cu1 O1 1_555 1_555
O1 C1 1_555 1_555
C1 C2 1_555 1_555
C2 C3 1_555 1_555
C3 H1 1_555 1_555
C4 C3 1_555 1_555
H2 C4 1_555 1_555
C5 C4 1_555 1_555
H3 C5 1_555 1_555
C6 C1 1_555 1_555
C7 C6 1_555 1_555
H4 C7 1_555 1_555
O2 Gd1 1_555 1_555
C8 O2 1_555 1_555
H5 C8 1_555 1_555
H6 C8 1_555 1_555
H7 C8 1_555 1_555
N1 Cu1 1_555 1_555
C9 N1 1_555 1_555
H8 C9 1_555 1_555
H9 C9 1_555 1_555
C10 C9 1_555 1_555
C11 C10 1_555 1_555
H10 C11 1_555 1_555
H11 C11 1_555 1_555
C12 C10 1_555 1_555
H12 C12 1_555 1_555
H13 C12 1_555 1_555
H14 C12 1_555 1_555
C13 C10 1_555 1_555
H15 C13 1_555 1_555
H16 C13 1_555 1_555
H17 C13 1_555 1_555
N2 Cu1 1_555 1_555
C14 N2 1_555 1_555
C15 C14 1_555 1_555
C16 C14 1_555 1_555
H18 C16 1_555 1_555
H19 C16 1_555 1_555
H20 C16 1_555 1_555
C17 C15 1_555 1_555
H21 C17 1_555 1_555
H22 C17 1_555 1_555
H23 C17 1_555 1_555
N3 Cu1 1_555 1_555
O3 Gd1 1_555 1_555
O4 Gd1 1_555 1_555
O5 Gd1 1_555 1_555
N4 O4 1_555 1_555
O6 N4 1_555 1_555
O7 Gd1 1_555 1_555
O8 Gd1 1_555 1_555
N5 O7 1_555 1_555
O9 N5 1_555 1_555
O10 Gd1 1_555 1_555
O11 Gd1 1_555 1_555
N6 O10 1_555 1_555
O12 N6 1_555 1_555
Gd1E O6 1_555 1_555
O6E Gd1 1_555 1_555
C2 O2 1_555 1_555
C5 C6 1_555 1_555
C7 N1 1_555 1_555
C11 N2 1_555 1_555
C15 N3 1_555 1_555
N3 O3 1_555 1_555
O5 N4 1_555 1_555
O8 N5 1_555 1_555
O11 N6 1_555 1_555

#END
