
#######################################################################
#
#                 Cambridge Crystallographic Data Centre
#                                CCDC 
#
#######################################################################
#
# If this CIF has been generated from an entry in the Cambridge 
# Structural Database, then it will include bibliographic, chemical, 
# crystal, experimental, refinement or atomic coordinate data resulting 
# from the CCDC's data processing and validation procedures.
#
#######################################################################

data_KEQTEF
_symmetry_cell_setting           orthorhombic
_symmetry_space_group_name_H-M   'P m c 21'
_symmetry_Int_Tables_number      26
_space_group_name_Hall           'P 2c -2'
loop_
_symmetry_equiv_pos_site_id
_symmetry_equiv_pos_as_xyz
1 x,y,z
2 -x,-y,1/2+z
3 -x,y,z
4 x,-y,1/2+z
_cell_length_a                   10.7421(8)
_cell_length_b                   7.2339(10)
_cell_length_c                   5.7143(13)
_cell_angle_alpha                90
_cell_angle_beta                 90
_cell_angle_gamma                90
_cell_volume                     444.043
loop_
_atom_site_label
_atom_site_type_symbol
_atom_site_fract_x
_atom_site_fract_y
_atom_site_fract_z
C1 C -0.2302(3) 0.2612(4) 0.7462(6)
C2 C -0.3707(3) 0.2537(4) 0.7411(6)
C3 C -0.4344(3) 0.3205(3) 0.5474(17)
H1 H -0.3964 0.3737 0.4170
C4 C -0.4346(3) 0.1834(4) 0.9340(7)
H2 H -0.3912 0.1317 1.0808
Cu1 Cu 0.0000 0.32811(6) 0.5560
O1 O -0.1735(2) 0.2016(3) 0.9220(6)
O2 O -0.17830(19) 0.3293(3) 0.5618(12)
O3 O 0.0000 0.5948(4) 0.6431(7)
H3 H -0.0704 0.6489 0.5343
O4 O 0.0000 0.0664(5) 0.4788(8)
H4 H 0.0775 0.0040 0.4538
C3B C -0.5656(3) 0.3205(3) 0.5474(17)
C2B C -0.6293(3) 0.2537(4) 0.7411(6)
C1B C -0.7698(3) 0.2612(4) 0.7462(6)
O1B O -0.8265(2) 0.2016(3) 0.9220(6)
O2B O -0.82170(19) 0.3293(3) 0.5618(12)
Cu1B Cu -1.0000 0.32811(6) 0.5560
C4B C -0.5654(3) 0.1834(4) 0.9340(7)
H2B H -0.6088 0.1317 1.0808
H1B H -0.6036 0.3737 0.4170
O2B_2 O 0.17830(19) 0.3293(3) 0.5618(12)
O3A O 0.0000 0.4052(4) 0.1431(7)
Cu1A Cu 0.0000 0.67189(6) 1.0560
H3B H 0.0704 0.6489 0.5343
H4B H -0.0775 0.0040 0.4538
H3A H 0.0704 0.3511 0.0343
H3C H -0.0704 0.3511 0.0343
loop_
_geom_bond_atom_site_label_1
_geom_bond_atom_site_label_2
_geom_bond_site_symmetry_1
_geom_bond_site_symmetry_2
C1 C2 1_555 1_555
C2 C3 1_555 1_555
C3 H1 1_555 1_555
C4 C2 1_555 1_555
H2 C4 1_555 1_555
Cu1 O2 1_555 1_555
O1 C1 1_555 1_555
O2 C1 1_555 1_555
O3 Cu1 1_555 1_555
H3 O3 1_555 1_555
O4 Cu1 1_555 1_555
H4 O4 1_555 1_555
C3B C3 1_555 1_555
C2B C3B 1_555 1_555
C1B C2B 1_555 1_555
O1B C1B 1_555 1_555
O2B C1B 1_555 1_555
Cu1B O2B 1_555 1_555
C4B C4 1_555 1_555
H2B C4B 1_555 1_555
H1B C3B 1_555 1_555
O2B_2 Cu1 1_555 1_555
O3A Cu1 1_555 1_555
Cu1A O3 1_555 1_555
H3B O3 1_555 1_555
H4B O4 1_555 1_555
H3A O3A 1_555 1_555
H3C O3A 1_555 1_555
C2B C4B 1_555 1_555

#END
