
#######################################################################
#
#                 Cambridge Crystallographic Data Centre
#                                CCDC 
#
#######################################################################
#
# If this CIF has been generated from an entry in the Cambridge 
# Structural Database, then it will include bibliographic, chemical, 
# crystal, experimental, refinement or atomic coordinate data resulting 
# from the CCDC's data processing and validation procedures.
#
#######################################################################

data_KERGIY
_symmetry_cell_setting           monoclinic
_symmetry_space_group_name_H-M   'P 21/c'
_symmetry_Int_Tables_number      14
_space_group_name_Hall           '-P 2ybc'
loop_
_symmetry_equiv_pos_site_id
_symmetry_equiv_pos_as_xyz
1 x,y,z
2 -x,1/2+y,1/2-z
3 -x,-y,-z
4 x,1/2-y,1/2+z
_cell_length_a                   10.3001(14)
_cell_length_b                   10.1413(14)
_cell_length_c                   9.6613(13)
_cell_angle_alpha                90
_cell_angle_beta                 98.198(2)
_cell_angle_gamma                90
_cell_volume                     998.872
loop_
_atom_site_label
_atom_site_type_symbol
_atom_site_fract_x
_atom_site_fract_y
_atom_site_fract_z
C1 C 0.4797(2) 0.4958(2) 0.6908(2)
H1 H 0.4471 0.5504 0.6165
C2 C 0.6110(2) 0.4629(2) 0.7069(2)
H2 H 0.6648 0.4937 0.6444
C3 C 0.66075(19) 0.3837(2) 0.8172(2)
H3 H 0.7489 0.3600 0.8306
C4 C 0.57776(19) 0.3399(2) 0.9080(2)
H4 H 0.6093 0.2874 0.9843
C5 C 0.44642(16) 0.37564(17) 0.88291(18)
C6 C 0.35470(19) 0.32853(18) 0.9772(2)
H5 H 0.3864 0.2745 1.0522
C7 C 0.15162(19) 0.3073(2) 1.05561(19)
H6 H 0.1118 0.3790 1.1009
H7 H 0.2033 0.2546 1.1271
C8 C 0.04581(17) 0.22261(18) 0.97251(17)
H8 H 0.0864 0.1438 0.9412
H9 H 0.0078 0.2711 0.8901
N1 N 0.39663(15) 0.45371(17) 0.77558(16)
N2 N 0.23508(15) 0.35954(16) 0.95851(16)
Na1 Na 0.16606(6) 0.52184(7) 0.75924(6)
O1 O -0.02427(12) 0.09104(13) 1.18190(12)
O2 O -0.13476(14) 0.29554(14) 1.11748(14)
O3 O -0.17606(12) 0.10502(13) 0.96751(12)
S1 S -0.08189(3) 0.17499(4) 1.06755(4)
Na1C Na 0.16606(6) -0.02184(7) 1.25924(6)
Na1B Na -0.16606(6) 0.47816(7) 1.24076(6)
Na1A Na -0.16606(6) 0.02184(7) 0.74076(6)
O1C O -0.02427(12) 0.40896(13) 0.68190(12)
O2B O 0.13476(14) 0.70446(14) 0.88252(14)
O3A O 0.17606(12) 0.60502(13) 0.53249(12)
loop_
_geom_bond_atom_site_label_1
_geom_bond_atom_site_label_2
_geom_bond_site_symmetry_1
_geom_bond_site_symmetry_2
C1 H1 1_555 1_555
C2 C1 1_555 1_555
H2 C2 1_555 1_555
C3 C2 1_555 1_555
H3 C3 1_555 1_555
C4 C3 1_555 1_555
H4 C4 1_555 1_555
C5 C4 1_555 1_555
C6 C5 1_555 1_555
H5 C6 1_555 1_555
C7 H6 1_555 1_555
H7 C7 1_555 1_555
C8 C7 1_555 1_555
H8 C8 1_555 1_555
H9 C8 1_555 1_555
N1 C1 1_555 1_555
N2 C6 1_555 1_555
Na1 N1 1_555 1_555
O1 S1 1_555 1_555
O2 S1 1_555 1_555
O3 S1 1_555 1_555
S1 C8 1_555 1_555
Na1C O1 1_555 1_555
Na1B O2 1_555 1_555
Na1A O3 1_555 1_555
O1C Na1 1_555 1_555
O2B Na1 1_555 1_555
O3A Na1 1_555 1_555
C5 N1 1_555 1_555
C7 N2 1_555 1_555
N2 Na1 1_555 1_555

#END
