
#######################################################################
#
#                 Cambridge Crystallographic Data Centre
#                                CCDC 
#
#######################################################################
#
# If this CIF has been generated from an entry in the Cambridge 
# Structural Database, then it will include bibliographic, chemical, 
# crystal, experimental, refinement or atomic coordinate data resulting 
# from the CCDC's data processing and validation procedures.
#
#######################################################################

data_KERJUO
_symmetry_cell_setting           monoclinic
_symmetry_space_group_name_H-M   'P 21'
_symmetry_Int_Tables_number      4
_space_group_name_Hall           'P 2yb'
loop_
_symmetry_equiv_pos_site_id
_symmetry_equiv_pos_as_xyz
1 x,y,z
2 -x,1/2+y,-z
_cell_length_a                   13.2056(18)
_cell_length_b                   13.9642(18)
_cell_length_c                   20.884(3)
_cell_angle_alpha                90
_cell_angle_beta                 92.229(2)
_cell_angle_gamma                90
_cell_volume                     3848.21
loop_
_atom_site_label
_atom_site_type_symbol
_atom_site_fract_x
_atom_site_fract_y
_atom_site_fract_z
B1 B 0.6028(4) 0.4586(5) 0.8307(2)
H1 H 0.5562 0.4875 0.8001
C1 C 0.7495(4) 0.4817(5) 0.7514(2)
H3 H 0.7132 0.5029 0.7151
C2 C 0.8537(4) 0.4737(4) 0.7580(2)
H4 H 0.9015 0.4938 0.7293
C3 C 0.8718(4) 0.4278(4) 0.8185(3)
H5 H 0.9343 0.4103 0.8369
C4 C 0.5626(4) 0.5885(4) 0.9133(2)
H6 H 0.5155 0.6251 0.8899
C5 C 0.6016(4) 0.6076(4) 0.9745(2)
H7 H 0.5854 0.6609 0.9988
C6 C 0.6671(4) 0.5372(4) 0.9938(2)
H8 H 0.7050 0.5329 1.0322
C7 C 0.4780(5) 0.3079(5) 0.8359(3)
H9 H 0.4284 0.3267 0.8057
C8 C 0.4745(5) 0.2240(5) 0.8745(3)
H10 H 0.4233 0.1783 0.8748
C9 C 0.5650(4) 0.2253(5) 0.9120(3)
H11 H 0.5832 0.1792 0.9425
C10 C 0.7286(3) 0.3410(4) 1.0199(2)
C11 C 0.8838(3) 0.4021(3) 0.9565(2)
C12 C 0.7951(3) 0.2310(3) 0.92919(19)
C13 C 1.2614(3) 0.4345(4) 1.0601(2)
C14 C 1.3162(4) 0.4054(5) 1.1129(2)
H12 H 1.2827 0.3888 1.1497
C15 C 1.4221(3) 0.3999(5) 1.1132(2)
H13 H 1.4591 0.3779 1.1490
C16 C 1.4706(4) 0.4283(5) 1.0582(2)
H14 H 1.5410 0.4260 1.0575
C17 C 1.4163(3) 0.4590(4) 1.0062(3)
H15 H 1.4490 0.4751 0.9690
C18 C 1.3100(3) 0.4667(3) 1.0080(2)
C19 C 1.2581(3) 0.5006(3) 0.9505(2)
H16 H 1.2944 0.5025 0.9132
C20 C 1.1029(3) 0.5643(3) 0.88916(18)
H17 H 1.0436 0.5224 0.8837
C21 C 1.1505(4) 0.5758(4) 0.8235(2)
C22 C 1.2250(5) 0.6391(5) 0.8058(3)
H18 H 1.2551 0.6801 0.8361
C23 C 1.2537(5) 0.6413(5) 0.7448(3)
H19 H 1.3041 0.6840 0.7337
C24 C 1.2101(5) 0.5811(5) 0.6972(3)
H20 H 1.2273 0.5866 0.6546
C25 C 1.1410(5) 0.5140(6) 0.7158(2)
H21 H 1.1139 0.4717 0.6853
C26 C 1.1095(5) 0.5067(5) 0.7801(3)
H22 H 1.0648 0.4595 0.7928
C27 C 1.0667(3) 0.6618(3) 0.91212(19)
H23 H 1.1265 0.7024 0.9197
C28 C 0.9980(3) 0.7105(4) 0.8617(2)
C29 C 0.9227(4) 0.6565(5) 0.8296(2)
H24 H 0.9108 0.5936 0.8418
C30 C 0.8656(4) 0.6977(5) 0.7793(3)
H25 H 0.8204 0.6611 0.7544
C31 C 0.8784(5) 0.7981(5) 0.7670(3)
H26 H 0.8323 0.8306 0.7401
C32 C 0.9596(5) 0.8457(5) 0.7956(3)
H27 H 0.9771 0.9062 0.7810
C33 C 1.0141(4) 0.8053(4) 0.8447(2)
H28 H 1.0628 0.8413 0.8672
C34 C 0.9584(3) 0.7010(3) 0.9973(2)
H29 H 0.9369 0.7512 0.9708
C35 C 0.9154(3) 0.6970(4) 1.0605(2)
C36 C 0.8512(3) 0.7725(4) 1.0751(2)
H30 H 0.8348 0.8187 1.0444
C37 C 0.8117(4) 0.7788(4) 1.1359(2)
H31 H 0.7689 0.8292 1.1457
C38 C 0.8363(4) 0.7095(5) 1.1819(2)
H32 H 0.8099 0.7136 1.2225
C39 C 0.9005(4) 0.6339(4) 1.16727(19)
H33 H 0.9168 0.5877 1.1980
C40 C 0.9400(3) 0.6277(4) 1.1065(2)
Fe1 Fe 0.75138(5) 0.36107(8) 0.93003(3)
Mn1 Mn 1.07843(5) 0.53147(8) 1.02393(3)
N1 N 0.7094(4) 0.4532(4) 0.8070(2)
N2 N 0.7784(3) 0.4147(4) 0.8443(2)
N3 N 0.6075(3) 0.5041(3) 0.89359(16)
N4 N 0.6644(3) 0.4744(3) 0.9437(2)
N5 N 0.5673(3) 0.3570(4) 0.85070(19)
N6 N 0.6239(3) 0.3042(3) 0.89764(19)
N7 N 0.7185(3) 0.3298(4) 1.06811(19)
N8 N 0.9640(3) 0.4299(3) 0.9725(2)
N9 N 0.8195(3) 0.1526(3) 0.93099(17)
N10 N 1.1673(3) 0.5279(3) 0.94681(17)
N11 N 1.0217(3) 0.6435(3) 0.97464(17)
O1 O 1.1616(2) 0.4360(3) 1.06114(16)
O2 O 0.9889(2) 0.5482(3) 1.09012(14)
Mn1A Mn 0.92157(5) 0.03147(8) 0.97607(3)
N9A N 1.1805(3) 0.6526(3) 1.06901(17)
B2 B 0.8898(4) 1.0787(5) 0.6685(3)
H2 H 0.9360 1.0498 0.6995
C41 C 0.7321(6) 0.9555(5) 0.5516(4)
H34 H 0.6829 0.9569 0.5185
C42 C 0.7714(5) 0.8721(6) 0.5798(3)
H35 H 0.7515 0.8092 0.5717
C43 C 0.8461(6) 0.9038(5) 0.6224(3)
H36 H 0.8927 0.8649 0.6445
C44 C 0.9561(4) 1.2612(5) 0.5525(3)
H37 H 0.9400 1.2989 0.5169
C45 C 1.0545(4) 1.2517(5) 0.5879(3)
H38 H 1.1115 1.2900 0.5838
C46 C 1.0448(4) 1.1720(5) 0.6298(3)
H39 H 1.0958 1.1415 0.6541
C47 C 0.6917(5) 1.2270(6) 0.7044(3)
H40 H 0.6356 1.2638 0.6919
C48 C 0.7278(4) 1.2187(5) 0.7646(3)
H41 H 0.7101 1.2529 0.8007
C49 C 0.7979(5) 1.1465(6) 0.7597(3)
H42 H 0.8286 1.1143 0.7942
C50 C 0.7704(4) 1.1992(4) 0.4820(2)
C51 C 0.6113(4) 1.1298(4) 0.5452(2)
C52 C 0.6896(3) 1.2975(4) 0.5726(2)
C53 C 0.5746(3) 0.9027(4) 0.3977(2)
C54 C 0.6106(3) 0.8960(4) 0.3346(2)
H43 H 0.5953 0.9440 0.3049
C55 C 0.6688(4) 0.8178(4) 0.3171(2)
H44 H 0.6928 0.8148 0.2759
C56 C 0.6915(4) 0.7445(4) 0.3599(3)
H45 H 0.7297 0.6924 0.3473
C57 C 0.6573(3) 0.7491(4) 0.4216(2)
H46 H 0.6719 0.6996 0.4502
C58 C 0.6010(3) 0.8276(4) 0.4412(2)
C59 C 0.5723(3) 0.8280(4) 0.5054(2)
H47 H 0.5981 0.7806 0.5327
C60 C 0.4909(3) 0.8991(4) 0.6001(2)
H48 H 0.5216 0.9591 0.6155
C61 C 0.5313(3) 0.8230(4) 0.6422(2)
C62 C 0.5015(4) 0.7306(4) 0.6329(2)
H49 H 0.4607 0.7150 0.5971
C63 C 0.5318(3) 0.6576(4) 0.67689(19)
H50 H 0.5091 0.5949 0.6714
C64 C 0.5946(3) 0.6817(4) 0.72715(18)
H51 H 0.6167 0.6340 0.7555
C65 C 0.6277(3) 0.7761(4) 0.7379(2)
H52 H 0.6678 0.7917 0.7740
C66 C 0.5981(3) 0.8469(3) 0.69240(17)
H53 H 0.6234 0.9089 0.6962
C67 C 0.3786(3) 0.9098(4) 0.6053(2)
H54 H 0.3485 0.8465 0.5977
C68 C 0.3468(5) 0.9423(4) 0.6693(3)
C69 C 0.3898(4) 1.0161(5) 0.7034(2)
H55 H 0.4451 1.0479 0.6871
C70 C 0.3532(5) 1.0453(5) 0.7621(3)
H56 H 0.3796 1.0977 0.7846
C71 C 0.2725(5) 0.9887(5) 0.7849(2)
H57 H 0.2514 1.0003 0.8261
C72 C 0.2252(5) 0.9201(6) 0.7510(3)
H58 H 0.1669 0.8918 0.7658
C73 C 0.2636(5) 0.8921(5) 0.6943(3)
H59 H 0.2353 0.8403 0.6721
C74 C 0.2439(3) 0.9973(3) 0.5486(2)
H60 H 0.2050 0.9772 0.5823
C75 C 0.1945(3) 1.0507(4) 0.4979(2)
C76 C 0.0894(3) 1.0603(4) 0.4996(2)
H61 H 0.0550 1.0351 0.5337
C77 C 0.0360(4) 1.1078(4) 0.4502(2)
H62 H -0.0340 1.1142 0.4513
C78 C 0.0877(3) 1.1456(4) 0.3990(2)
H63 H 0.0522 1.1773 0.3661
C79 C 0.1928(3) 1.1360(4) 0.3973(2)
H64 H 0.2272 1.1613 0.3632
C80 C 0.2462(3) 1.0885(4) 0.4467(2)
Fe2 Fe 0.74661(5) 1.17210(8) 0.57202(3)
Mn2 Mn 0.43351(5) 0.98914(9) 0.47872(3)
N12 N 0.7750(3) 1.0334(3) 0.57872(19)
N13 N 0.8414(3) 0.9985(4) 0.6272(2)
N14 N 0.8935(3) 1.2005(4) 0.5852(2)
N15 N 0.9502(3) 1.1517(4) 0.62655(18)
N16 N 0.7429(3) 1.1789(4) 0.66681(18)
N17 N 0.8147(4) 1.1304(4) 0.7017(2)
N18 N 0.7821(4) 1.2176(4) 0.4269(2)
N19 N 0.5406(3) 1.1015(4) 0.5291(3)
N20 N 0.6564(3) 1.3746(4) 0.5705(2)
N21 N 0.5107(3) 0.8925(3) 0.52864(18)
N22 N 0.3410(3) 0.9749(3) 0.55050(17)
O3 O 0.5247(3) 0.9815(3) 0.41042(18)
O4 O 0.3497(2) 1.0850(3) 0.44139(17)
Mn2A Mn 0.56649(5) 1.48914(9) 0.52128(3)
N20A N 0.3436(3) 0.8746(4) 0.4295(2)
loop_
_geom_bond_atom_site_label_1
_geom_bond_atom_site_label_2
_geom_bond_site_symmetry_1
_geom_bond_site_symmetry_2
B1 H1 1_555 1_555
B2 H2 1_555 1_555
C1 H3 1_555 1_555
C2 C1 1_555 1_555
H4 C2 1_555 1_555
C3 C2 1_555 1_555
H5 C3 1_555 1_555
C4 H6 1_555 1_555
C5 C4 1_555 1_555
H7 C5 1_555 1_555
C6 C5 1_555 1_555
H8 C6 1_555 1_555
C7 H9 1_555 1_555
C8 C7 1_555 1_555
H10 C8 1_555 1_555
C9 C8 1_555 1_555
H11 C9 1_555 1_555
C10 Fe1 1_555 1_555
C11 Fe1 1_555 1_555
C12 Fe1 1_555 1_555
C13 C14 1_555 1_555
C14 H12 1_555 1_555
C15 C14 1_555 1_555
H13 C15 1_555 1_555
C16 C15 1_555 1_555
H14 C16 1_555 1_555
C17 C16 1_555 1_555
H15 C17 1_555 1_555
C18 C13 1_555 1_555
C19 C18 1_555 1_555
H16 C19 1_555 1_555
C20 H17 1_555 1_555
C21 C20 1_555 1_555
C22 C21 1_555 1_555
H18 C22 1_555 1_555
C23 C22 1_555 1_555
H19 C23 1_555 1_555
C24 C23 1_555 1_555
H20 C24 1_555 1_555
C25 C24 1_555 1_555
H21 C25 1_555 1_555
C26 C21 1_555 1_555
H22 C26 1_555 1_555
C27 C20 1_555 1_555
H23 C27 1_555 1_555
C28 C27 1_555 1_555
C29 C28 1_555 1_555
H24 C29 1_555 1_555
C30 C29 1_555 1_555
H25 C30 1_555 1_555
C31 C30 1_555 1_555
H26 C31 1_555 1_555
C32 C31 1_555 1_555
H27 C32 1_555 1_555
C33 C28 1_555 1_555
H28 C33 1_555 1_555
C34 H29 1_555 1_555
C35 C34 1_555 1_555
C36 C35 1_555 1_555
H30 C36 1_555 1_555
C37 C36 1_555 1_555
H31 C37 1_555 1_555
C38 C37 1_555 1_555
H32 C38 1_555 1_555
C39 C38 1_555 1_555
H33 C39 1_555 1_555
C40 C35 1_555 1_555
C41 H34 1_555 1_555
C42 C41 1_555 1_555
H35 C42 1_555 1_555
C43 C42 1_555 1_555
H36 C43 1_555 1_555
C44 H37 1_555 1_555
C45 C44 1_555 1_555
H38 C45 1_555 1_555
C46 C45 1_555 1_555
H39 C46 1_555 1_555
C47 H40 1_555 1_555
C48 C47 1_555 1_555
H41 C48 1_555 1_555
C49 C48 1_555 1_555
H42 C49 1_555 1_555
C50 Fe2 1_555 1_555
C51 Fe2 1_555 1_555
C52 Fe2 1_555 1_555
C53 C54 1_555 1_555
C54 H43 1_555 1_555
C55 C54 1_555 1_555
H44 C55 1_555 1_555
C56 C55 1_555 1_555
H45 C56 1_555 1_555
C57 C56 1_555 1_555
H46 C57 1_555 1_555
C58 C53 1_555 1_555
C59 C58 1_555 1_555
H47 C59 1_555 1_555
C60 H48 1_555 1_555
C61 C60 1_555 1_555
C62 C61 1_555 1_555
H49 C62 1_555 1_555
C63 C62 1_555 1_555
H50 C63 1_555 1_555
C64 C63 1_555 1_555
H51 C64 1_555 1_555
C65 C64 1_555 1_555
H52 C65 1_555 1_555
C66 C61 1_555 1_555
H53 C66 1_555 1_555
C67 C60 1_555 1_555
H54 C67 1_555 1_555
C68 C67 1_555 1_555
C69 C68 1_555 1_555
H55 C69 1_555 1_555
C70 C69 1_555 1_555
H56 C70 1_555 1_555
C71 C70 1_555 1_555
H57 C71 1_555 1_555
C72 C71 1_555 1_555
H58 C72 1_555 1_555
C73 C68 1_555 1_555
H59 C73 1_555 1_555
C74 H60 1_555 1_555
C75 C74 1_555 1_555
C76 C75 1_555 1_555
H61 C76 1_555 1_555
C77 C76 1_555 1_555
H62 C77 1_555 1_555
C78 C77 1_555 1_555
H63 C78 1_555 1_555
C79 C78 1_555 1_555
H64 C79 1_555 1_555
C80 C75 1_555 1_555
Fe1 N2 1_555 1_555
Fe2 N12 1_555 1_555
Mn1 N8 1_555 1_555
Mn2 N19 1_555 1_555
N1 B1 1_555 1_555
N2 C3 1_555 1_555
N3 B1 1_555 1_555
N4 C6 1_555 1_555
N5 B1 1_555 1_555
N6 C9 1_555 1_555
N7 C10 1_555 1_555
N8 C11 1_555 1_555
N9 C12 1_555 1_555
N10 C19 1_555 1_555
N11 C27 1_555 1_555
N12 C41 1_555 1_555
N13 B2 1_555 1_555
N14 C44 1_555 1_555
N15 B2 1_555 1_555
N16 C47 1_555 1_555
N17 B2 1_555 1_555
N18 C50 1_555 1_555
N19 C51 1_555 1_555
N20 C52 1_555 1_555
N21 C59 1_555 1_555
N22 C67 1_555 1_555
O1 C13 1_555 1_555
O2 C40 1_555 1_555
O3 C53 1_555 1_555
O4 C80 1_555 1_555
Mn1A N9 1_555 1_555
Mn2A N20 1_555 1_555
N9A Mn1 1_555 1_555
N20A Mn2 1_555 1_555
C1 N1 1_555 1_555
C4 N3 1_555 1_555
C7 N5 1_555 1_555
C17 C18 1_555 1_555
C20 N10 1_555 1_555
C25 C26 1_555 1_555
C32 C33 1_555 1_555
C34 N11 1_555 1_555
C39 C40 1_555 1_555
C43 N13 1_555 1_555
C46 N15 1_555 1_555
C49 N17 1_555 1_555
C57 C58 1_555 1_555
C60 N21 1_555 1_555
C65 C66 1_555 1_555
C72 C73 1_555 1_555
C74 N22 1_555 1_555
C79 C80 1_555 1_555
Fe1 N4 1_555 1_555
Fe1 N6 1_555 1_555
Fe2 N14 1_555 1_555
Fe2 N16 1_555 1_555
Mn1 N10 1_555 1_555
Mn1 N11 1_555 1_555
Mn1 O1 1_555 1_555
Mn1 O2 1_555 1_555
Mn2 N21 1_555 1_555
Mn2 N22 1_555 1_555
Mn2 O3 1_555 1_555
Mn2 O4 1_555 1_555
N1 N2 1_555 1_555
N3 N4 1_555 1_555
N5 N6 1_555 1_555
N12 N13 1_555 1_555
N14 N15 1_555 1_555
N16 N17 1_555 1_555

#END
