
#######################################################################
#
#                 Cambridge Crystallographic Data Centre
#                                CCDC 
#
#######################################################################
#
# If this CIF has been generated from an entry in the Cambridge 
# Structural Database, then it will include bibliographic, chemical, 
# crystal, experimental, refinement or atomic coordinate data resulting 
# from the CCDC's data processing and validation procedures.
#
#######################################################################

data_KERKEZ
_symmetry_cell_setting           monoclinic
_symmetry_space_group_name_H-M   'P 21'
_symmetry_Int_Tables_number      4
_space_group_name_Hall           'P 2yb'
loop_
_symmetry_equiv_pos_site_id
_symmetry_equiv_pos_as_xyz
1 x,y,z
2 -x,1/2+y,-z
_cell_length_a                   13.2852(17)
_cell_length_b                   14.9463(19)
_cell_length_c                   27.2850(15)
_cell_angle_alpha                90
_cell_angle_beta                 102.759(3)
_cell_angle_gamma                90
_cell_volume                     5284.06
loop_
_atom_site_label
_atom_site_type_symbol
_atom_site_fract_x
_atom_site_fract_y
_atom_site_fract_z
B1 B 0.1929(3) 0.3873(3) 0.1355(2)
H1 H 0.1595 0.3577 0.1606
C1 C 0.1234(3) 0.6768(3) 0.04807(17)
H3 H 0.1332 0.6509 0.0173
H4 H 0.1807 0.7152 0.0618
H5 H 0.0608 0.7111 0.0416
C2 C 0.1170(3) 0.6076(3) 0.08305(16)
C3 C 0.0640(3) 0.6077(3) 0.12232(15)
H6 H 0.0244 0.6545 0.1304
C4 C 0.0806(3) 0.5269(3) 0.14684(16)
C5 C 0.0391(4) 0.4965(3) 0.18837(16)
H7 H 0.0935 0.4713 0.2137
H8 H -0.0126 0.4518 0.1769
H9 H 0.0088 0.5461 0.2022
C6 C 0.1693(3) 0.3018(3) -0.04190(16)
H10 H 0.2361 0.3241 -0.0439
H11 H 0.1171 0.3429 -0.0582
H12 H 0.1581 0.2446 -0.0582
C7 C 0.1641(3) 0.2921(3) 0.01280(15)
C8 C 0.1202(3) 0.2226(3) 0.03113(18)
H13 H 0.0957 0.1701 0.0144
C9 C 0.1191(3) 0.2439(3) 0.07719(16)
C10 C 0.0771(3) 0.1980(3) 0.11930(18)
H14 H 0.0180 0.1624 0.1047
H15 H 0.0577 0.2428 0.1407
H16 H 0.1297 0.1604 0.1387
C11 C 0.5316(3) 0.4995(3) 0.11451(15)
H17 H 0.5250 0.5635 0.1148
H18 H 0.5186 0.4787 0.0804
H19 H 0.6003 0.4829 0.1315
C12 C 0.4560(3) 0.4587(3) 0.14049(15)
C13 C 0.4725(3) 0.4235(3) 0.18833(15)
H20 H 0.5350 0.4209 0.2117
C14 C 0.3771(3) 0.3924(3) 0.19483(16)
C15 C 0.3540(3) 0.3498(3) 0.23914(15)
H21 H 0.3434 0.2869 0.2330
H22 H 0.2927 0.3758 0.2462
H23 H 0.4108 0.3586 0.2673
C16 C 0.1875(3) 0.5069(3) -0.01683(15)
C17 C 0.3329(3) 0.5874(3) 0.04563(15)
C18 C 0.3694(3) 0.4218(3) 0.02069(16)
C19 C 0.2837(3) 0.8847(2) 0.03737(14)
C20 C 0.2419(3) 0.9300(3) 0.07230(16)
H24 H 0.2831 0.9434 0.1037
C21 C 0.1395(3) 0.9557(3) 0.06115(18)
H25 H 0.1117 0.9855 0.0850
C22 C 0.0781(3) 0.9368(3) 0.01392(17)
H26 H 0.0094 0.9548 0.0062
C23 C 0.1183(3) 0.8917(3) -0.02138(16)
H27 H 0.0771 0.8792 -0.0529
C24 C 0.2219(3) 0.8648(3) -0.00953(14)
C25 C 0.2583(3) 0.8219(3) -0.04833(17)
H28 H 0.2112 0.8146 -0.0788
C26 C 0.3853(3) 0.7528(3) -0.08895(15)
H29 H 0.4347 0.7945 -0.0984
C27 C 0.2972(3) 0.7402(3) -0.13427(13)
C28 C 0.2285(3) 0.6690(3) -0.13796(15)
H30 H 0.2382 0.6252 -0.1131
C29 C 0.1444(3) 0.6635(3) -0.17930(16)
H31 H 0.0983 0.6159 -0.1820
C30 C 0.1304(3) 0.7291(3) -0.21595(16)
H32 H 0.0748 0.7254 -0.2434
C31 C 0.1986(3) 0.8004(3) -0.21210(15)
H33 H 0.1882 0.8444 -0.2368
C32 C 0.2821(4) 0.8062(3) -0.17166(16)
H34 H 0.3280 0.8537 -0.1693
C33 C 0.4438(3) 0.6697(3) -0.06778(15)
H35 H 0.3935 0.6248 -0.0625
C34 C 0.5004(3) 0.6327(3) -0.10676(16)
C35 C 0.4725(4) 0.5460(3) -0.12163(18)
H36 H 0.4220 0.5166 -0.1090
C36 C 0.5201(3) 0.5030(3) -0.15549(17)
H37 H 0.5006 0.4450 -0.1657
C37 C 0.5961(4) 0.5451(3) -0.17433(18)
H38 H 0.6283 0.5156 -0.1967
C38 C 0.6242(3) 0.6333(3) -0.15923(17)
H39 H 0.6744 0.6626 -0.1721
C39 C 0.5765(3) 0.6774(3) -0.12469(16)
H40 H 0.5957 0.7354 -0.1141
C40 C 0.5934(3) 0.6365(3) -0.00379(16)
H41 H 0.6116 0.5955 -0.0260
C41 C 0.6561(3) 0.6400(3) 0.04607(16)
C42 C 0.7346(3) 0.5773(3) 0.05672(18)
H42 H 0.7468 0.5404 0.0312
C43 C 0.7957(3) 0.5688(4) 0.10505(19)
H43 H 0.8473 0.5257 0.1121
C44 C 0.7782(4) 0.6260(3) 0.14271(17)
H44 H 0.8195 0.6219 0.1749
C45 C 0.6997(3) 0.6888(3) 0.13244(17)
H45 H 0.6881 0.7263 0.1578
C46 C 0.6382(3) 0.6961(3) 0.08403(15)
Fe1 Fe 0.26902(4) 0.47372(6) 0.04946(2)
Mn1 Mn 0.45655(4) 0.77851(7) 0.01973(2)
N1 N 0.1659(2) 0.5248(3) 0.08351(13)
N2 N 0.1399(2) 0.4790(3) 0.12186(12)
N3 N 0.1955(2) 0.3551(2) 0.04600(12)
N4 N 0.1685(2) 0.3287(2) 0.08945(13)
N5 N 0.3570(3) 0.4423(3) 0.11701(13)
N6 N 0.3097(3) 0.4019(2) 0.15209(12)
N7 N 0.1442(3) 0.5303(3) -0.05567(14)
N8 N 0.3686(3) 0.6554(3) 0.04176(14)
N9 N 0.4346(3) 0.3847(3) 0.00448(13)
N10 N 0.3507(2) 0.7918(3) -0.04579(13)
N11 N 0.5110(3) 0.6874(3) -0.02081(14)
O1 O 0.3838(2) 0.8610(2) 0.05091(11)
O2 O 0.5627(2) 0.7589(2) 0.07749(10)
Mn1A Mn 0.54345(4) 0.27851(7) -0.01973(2)
N9A N 0.5654(3) 0.8847(3) -0.00448(13)
B2 B 0.7830(4) 0.1110(4) 0.35334(19)
H2 H 0.8032 0.1621 0.3224
C47 C 0.4368(4) -0.0025(3) 0.36835(19)
H46 H 0.4063 0.0373 0.3886
H47 H 0.4691 -0.0515 0.3886
H48 H 0.3841 -0.0250 0.3412
C48 C 0.5163(3) 0.0473(3) 0.34735(16)
C49 C 0.5008(4) 0.0801(3) 0.29846(17)
H49 H 0.4402 0.0796 0.2737
C50 C 0.5929(3) 0.1124(3) 0.29523(16)
C51 C 0.6250(3) 0.1547(3) 0.25075(17)
H50 H 0.6458 0.1088 0.2304
H51 H 0.6817 0.1947 0.2625
H52 H 0.5679 0.1874 0.2311
C52 C 0.8456(4) -0.1876(3) 0.43810(17)
H53 H 0.7784 -0.2137 0.4271
H54 H 0.8538 -0.1668 0.4720
H55 H 0.8974 -0.2317 0.4366
C53 C 0.8574(3) -0.1065(3) 0.40294(16)
C54 C 0.9164(3) -0.1028(3) 0.36774(16)
H56 H 0.9602 -0.1468 0.3603
C55 C 0.8979(3) -0.0249(3) 0.34699(17)
C56 C 0.9385(4) 0.0207(4) 0.30279(17)
H57 H 0.9874 -0.0182 0.2923
H58 H 0.9712 0.0764 0.3142
H59 H 0.8815 0.0314 0.2750
C57 C 0.8061(4) 0.1840(3) 0.53135(17)
H60 H 0.8610 0.1452 0.5477
H61 H 0.7409 0.1575 0.5326
H62 H 0.8125 0.2408 0.5482
C58 C 0.8122(3) 0.1973(3) 0.47715(18)
C59 C 0.8604(4) 0.2684(3) 0.45796(18)
H63 H 0.8904 0.3189 0.4751
C60 C 0.8536(3) 0.2469(3) 0.40739(18)
C61 C 0.8948(4) 0.3010(3) 0.37010(19)
H64 H 0.9400 0.2646 0.3555
H65 H 0.9323 0.3514 0.3867
H66 H 0.8385 0.3216 0.3442
C62 C 0.7789(3) -0.0155(3) 0.50179(17)
C63 C 0.5983(3) 0.0718(3) 0.47031(16)
C64 C 0.6350(3) -0.0917(3) 0.44101(17)
C65 C 0.2581(3) 0.1111(3) 0.52696(16)
C66 C 0.2206(4) 0.0575(4) 0.56097(18)
H67 H 0.2629 0.0430 0.5919
C67 C 0.1192(4) 0.0259(3) 0.54832(17)
H68 H 0.0936 -0.0095 0.5708
C68 C 0.0569(3) 0.0477(3) 0.50199(16)
H69 H -0.0103 0.0261 0.4931
C69 C 0.0952(3) 0.1023(3) 0.46866(18)
H70 H 0.0527 0.1182 0.4380
C70 C 0.1960(3) 0.1329(3) 0.48105(17)
C71 C 0.2267(3) 0.1912(3) 0.44523(16)
H71 H 0.1775 0.2066 0.4166
C72 C 0.3337(3) 0.2916(3) 0.41014(16)
H72 H 0.3156 0.3512 0.4204
C73 C 0.2641(3) 0.2696(3) 0.36068(15)
C74 C 0.1839(3) 0.3270(4) 0.3402(2)
H73 H 0.1713 0.3769 0.3583
C75 C 0.1225(3) 0.3106(3) 0.29316(18)
H74 H 0.0682 0.3488 0.2798
C76 C 0.1426(4) 0.2363(3) 0.26590(18)
H75 H 0.1017 0.2253 0.2342
C77 C 0.2233(4) 0.1789(4) 0.28585(18)
H76 H 0.2368 0.1294 0.2677
C78 C 0.2836(4) 0.1965(3) 0.33349(18)
H77 H 0.3379 0.1583 0.3471
C79 C 0.4510(3) 0.2888(3) 0.41362(14)
H78 H 0.4675 0.2302 0.4012
C80 C 0.4853(3) 0.3597(3) 0.38102(17)
C81 C 0.4477(3) 0.4473(3) 0.38136(18)
H79 H 0.4036 0.4618 0.4023
C82 C 0.4757(4) 0.5121(3) 0.35089(17)
H80 H 0.4513 0.5704 0.3515
C83 C 0.5410(4) 0.4895(4) 0.31921(16)
H81 H 0.5595 0.5327 0.2984
C84 C 0.5784(4) 0.4031(3) 0.31855(18)
H82 H 0.6221 0.3885 0.2974
C85 C 0.5507(4) 0.3382(3) 0.34958(16)
H83 H 0.5760 0.2802 0.3493
C86 C 0.5780(3) 0.3472(3) 0.48498(18)
H84 H 0.5994 0.3852 0.4623
C87 C 0.6317(3) 0.3503(3) 0.53720(17)
C88 C 0.7082(4) 0.4159(3) 0.54781(18)
H85 H 0.7191 0.4538 0.5225
C89 C 0.7679(4) 0.4245(4) 0.59613(18)
H86 H 0.8183 0.4687 0.6031
C90 C 0.7532(3) 0.3676(3) 0.63437(17)
H87 H 0.7936 0.3739 0.6667
C91 C 0.6773(4) 0.3009(3) 0.62407(18)
H88 H 0.6673 0.2625 0.6494
C92 C 0.6167(3) 0.2928(3) 0.57525(16)
Fe2 Fe 0.70346(4) 0.02086(6) 0.43816(2)
Mn2 Mn 0.43414(5) 0.21566(7) 0.51011(2)
N12 N 0.6184(3) 0.0559(2) 0.37071(14)
N13 N 0.6623(3) 0.0955(3) 0.33829(14)
N14 N 0.8070(3) -0.0325(3) 0.40252(14)
N15 N 0.8312(3) 0.0205(3) 0.36569(13)
N16 N 0.7796(3) 0.1364(3) 0.44263(14)
N17 N 0.8067(3) 0.1692(3) 0.39968(14)
N18 N 0.8228(3) -0.0412(3) 0.54032(16)
N19 N 0.5307(3) 0.1028(3) 0.48335(14)
N20 N 0.6344(3) -0.1585(3) 0.46475(14)
N21 N 0.3173(2) 0.2230(2) 0.45037(12)
N22 N 0.5014(3) 0.2938(2) 0.46854(14)
O3 O 0.3571(2) 0.1404(2) 0.54214(12)
O4 O 0.5452(2) 0.2276(2) 0.56576(11)
Mn2A Mn 0.56586(5) -0.28434(7) 0.48989(2)
N20A N 0.3656(3) 0.3415(3) 0.53525(14)
O5 O 0.4306(6) 0.6874(5) 0.1820(3)
H89 H 0.4613 0.6372 0.1828
H90 H 0.4702 0.7292 0.1765
O6 O 0.7937(8) 0.9163(8) 0.1659(4)
H91 H 0.8151 0.9002 0.1402
H92 H 0.7746 0.9708 0.1629
O7 O 0.7671(8) 0.0763(7) 0.6470(4)
H93 H 0.8259 0.0752 0.6671
H94 H 0.7209 0.0902 0.6627
O8 O 0.8654(6) 0.4751(5) 0.7839(3)
H95 H 0.8710 0.4641 0.8148
H96 H 0.9214 0.4980 0.7795
O9 O 0.3007(7) 0.6293(7) 0.2495(4)
H97 H 0.3397 0.6734 0.2604
H98 H 0.3360 0.5812 0.2531
O10 O 0.1256(6) 0.7990(6) 0.1769(3)
H99 H 0.1657 0.7598 0.1935
H100 H 0.1110 0.8380 0.1968
O11 O 0.4145(6) 0.8650(6) 0.2588(3)
H101 H 0.4591 0.8349 0.2478
H102 H 0.4192 0.8526 0.2895
O12 O 0.3720(6) 0.3476(5) 0.6872(3)
H103 H 0.4284 0.3531 0.7088
H104 H 0.3224 0.3661 0.6995
O13 O 1.0011(7) 0.2155(7) 0.7307(4)
H105 H 0.9922 0.2027 0.7638
H106 H 0.9722 0.2733 0.7204
O14 O 0.1894(7) 0.0653(7) 0.7112(3)
H107 H 0.2365 0.0160 0.7131
H108 H 0.2170 0.1168 0.6978
O15 O 0.9997(7) 0.0814(7) 0.6422(4)
H109 H 1.0052 0.1081 0.6155
H110 H 0.9457 0.0488 0.6362
O16 O 0.7090(5) 0.7129(5) 0.2440(3)
H111 H 0.6764 0.6839 0.2623
H112 H 0.7709 0.7212 0.2598
loop_
_geom_bond_atom_site_label_1
_geom_bond_atom_site_label_2
_geom_bond_site_symmetry_1
_geom_bond_site_symmetry_2
B1 H1 1_555 1_555
B2 H2 1_555 1_555
C1 H3 1_555 1_555
H4 C1 1_555 1_555
H5 C1 1_555 1_555
C2 C1 1_555 1_555
C3 C2 1_555 1_555
H6 C3 1_555 1_555
C4 C3 1_555 1_555
C5 C4 1_555 1_555
H7 C5 1_555 1_555
H8 C5 1_555 1_555
H9 C5 1_555 1_555
C6 H10 1_555 1_555
H11 C6 1_555 1_555
H12 C6 1_555 1_555
C7 C6 1_555 1_555
C8 C7 1_555 1_555
H13 C8 1_555 1_555
C9 C8 1_555 1_555
C10 C9 1_555 1_555
H14 C10 1_555 1_555
H15 C10 1_555 1_555
H16 C10 1_555 1_555
C11 H17 1_555 1_555
H18 C11 1_555 1_555
H19 C11 1_555 1_555
C12 C11 1_555 1_555
C13 C12 1_555 1_555
H20 C13 1_555 1_555
C14 C13 1_555 1_555
C15 C14 1_555 1_555
H21 C15 1_555 1_555
H22 C15 1_555 1_555
H23 C15 1_555 1_555
C16 Fe1 1_555 1_555
C17 Fe1 1_555 1_555
C18 Fe1 1_555 1_555
C19 C20 1_555 1_555
C20 H24 1_555 1_555
C21 C20 1_555 1_555
H25 C21 1_555 1_555
C22 C21 1_555 1_555
H26 C22 1_555 1_555
C23 C22 1_555 1_555
H27 C23 1_555 1_555
C24 C19 1_555 1_555
C25 C24 1_555 1_555
H28 C25 1_555 1_555
C26 H29 1_555 1_555
C27 C26 1_555 1_555
C28 C27 1_555 1_555
H30 C28 1_555 1_555
C29 C28 1_555 1_555
H31 C29 1_555 1_555
C30 C29 1_555 1_555
H32 C30 1_555 1_555
C31 C30 1_555 1_555
H33 C31 1_555 1_555
C32 C27 1_555 1_555
H34 C32 1_555 1_555
C33 C26 1_555 1_555
H35 C33 1_555 1_555
C34 C33 1_555 1_555
C35 C34 1_555 1_555
H36 C35 1_555 1_555
C36 C35 1_555 1_555
H37 C36 1_555 1_555
C37 C36 1_555 1_555
H38 C37 1_555 1_555
C38 C37 1_555 1_555
H39 C38 1_555 1_555
C39 C34 1_555 1_555
H40 C39 1_555 1_555
C40 H41 1_555 1_555
C41 C40 1_555 1_555
C42 C41 1_555 1_555
H42 C42 1_555 1_555
C43 C42 1_555 1_555
H43 C43 1_555 1_555
C44 C43 1_555 1_555
H44 C44 1_555 1_555
C45 C44 1_555 1_555
H45 C45 1_555 1_555
C46 C41 1_555 1_555
C47 H46 1_555 1_555
H47 C47 1_555 1_555
H48 C47 1_555 1_555
C48 C47 1_555 1_555
C49 C48 1_555 1_555
H49 C49 1_555 1_555
C50 C49 1_555 1_555
C51 C50 1_555 1_555
H50 C51 1_555 1_555
H51 C51 1_555 1_555
H52 C51 1_555 1_555
C52 H53 1_555 1_555
H54 C52 1_555 1_555
H55 C52 1_555 1_555
C53 C52 1_555 1_555
C54 C53 1_555 1_555
H56 C54 1_555 1_555
C55 C54 1_555 1_555
C56 C55 1_555 1_555
H57 C56 1_555 1_555
H58 C56 1_555 1_555
H59 C56 1_555 1_555
C57 H60 1_555 1_555
H61 C57 1_555 1_555
H62 C57 1_555 1_555
C58 C57 1_555 1_555
C59 C58 1_555 1_555
H63 C59 1_555 1_555
C60 C59 1_555 1_555
C61 C60 1_555 1_555
H64 C61 1_555 1_555
H65 C61 1_555 1_555
H66 C61 1_555 1_555
C62 Fe2 1_555 1_555
C63 Fe2 1_555 1_555
C64 Fe2 1_555 1_555
C65 C66 1_555 1_555
C66 H67 1_555 1_555
C67 C66 1_555 1_555
H68 C67 1_555 1_555
C68 C67 1_555 1_555
H69 C68 1_555 1_555
C69 C68 1_555 1_555
H70 C69 1_555 1_555
C70 C65 1_555 1_555
C71 C70 1_555 1_555
H71 C71 1_555 1_555
C72 H72 1_555 1_555
C73 C72 1_555 1_555
C74 C73 1_555 1_555
H73 C74 1_555 1_555
C75 C74 1_555 1_555
H74 C75 1_555 1_555
C76 C75 1_555 1_555
H75 C76 1_555 1_555
C77 C76 1_555 1_555
H76 C77 1_555 1_555
C78 C73 1_555 1_555
H77 C78 1_555 1_555
C79 C72 1_555 1_555
H78 C79 1_555 1_555
C80 C79 1_555 1_555
C81 C80 1_555 1_555
H79 C81 1_555 1_555
C82 C81 1_555 1_555
H80 C82 1_555 1_555
C83 C82 1_555 1_555
H81 C83 1_555 1_555
C84 C83 1_555 1_555
H82 C84 1_555 1_555
C85 C80 1_555 1_555
H83 C85 1_555 1_555
C86 H84 1_555 1_555
C87 C86 1_555 1_555
C88 C87 1_555 1_555
H85 C88 1_555 1_555
C89 C88 1_555 1_555
H86 C89 1_555 1_555
C90 C89 1_555 1_555
H87 C90 1_555 1_555
C91 C90 1_555 1_555
H88 C91 1_555 1_555
C92 C87 1_555 1_555
Fe1 N1 1_555 1_555
Fe2 N12 1_555 1_555
Mn1 N8 1_555 1_555
Mn2 N19 1_555 1_555
N1 C2 1_555 1_555
N2 B1 1_555 1_555
N3 C7 1_555 1_555
N4 B1 1_555 1_555
N5 C12 1_555 1_555
N6 B1 1_555 1_555
N7 C16 1_555 1_555
N8 C17 1_555 1_555
N9 C18 1_555 1_555
N10 C25 1_555 1_555
N11 C33 1_555 1_555
N12 C48 1_555 1_555
N13 B2 1_555 1_555
N14 C53 1_555 1_555
N15 B2 1_555 1_555
N16 C58 1_555 1_555
N17 B2 1_555 1_555
N18 C62 1_555 1_555
N19 C63 1_555 1_555
N20 C64 1_555 1_555
N21 C71 1_555 1_555
N22 C79 1_555 1_555
O1 C19 1_555 1_555
O2 C46 1_555 1_555
O3 C65 1_555 1_555
O4 C92 1_555 1_555
O5 H89 1_555 1_555
H90 O5 1_555 1_555
O6 H91 1_555 1_555
H92 O6 1_555 1_555
O7 H93 1_555 1_555
H94 O7 1_555 1_555
O8 H95 1_555 1_555
H96 O8 1_555 1_555
O9 H97 1_555 1_555
H98 O9 1_555 1_555
O10 H99 1_555 1_555
H100 O10 1_555 1_555
O11 H101 1_555 1_555
H102 O11 1_555 1_555
O12 H103 1_555 1_555
H104 O12 1_555 1_555
O13 H105 1_555 1_555
H106 O13 1_555 1_555
O14 H107 1_555 1_555
H108 O14 1_555 1_555
O15 H109 1_555 1_555
H110 O15 1_555 1_555
O16 H111 1_555 1_555
H112 O16 1_555 1_555
Mn1A N9 1_555 1_555
Mn2A N20 1_555 1_555
N9A Mn1 1_555 1_555
N20A Mn2 1_555 1_555
C4 N2 1_555 1_555
C9 N4 1_555 1_555
C14 N6 1_555 1_555
C23 C24 1_555 1_555
C26 N10 1_555 1_555
C31 C32 1_555 1_555
C38 C39 1_555 1_555
C40 N11 1_555 1_555
C45 C46 1_555 1_555
C50 N13 1_555 1_555
C55 N15 1_555 1_555
C60 N17 1_555 1_555
C69 C70 1_555 1_555
C72 N21 1_555 1_555
C77 C78 1_555 1_555
C84 C85 1_555 1_555
C86 N22 1_555 1_555
C91 C92 1_555 1_555
Fe1 N3 1_555 1_555
Fe1 N5 1_555 1_555
Fe2 N14 1_555 1_555
Fe2 N16 1_555 1_555
Mn1 N10 1_555 1_555
Mn1 N11 1_555 1_555
Mn1 O1 1_555 1_555
Mn1 O2 1_555 1_555
Mn2 N21 1_555 1_555
Mn2 N22 1_555 1_555
Mn2 O3 1_555 1_555
Mn2 O4 1_555 1_555
N1 N2 1_555 1_555
N3 N4 1_555 1_555
N5 N6 1_555 1_555
N12 N13 1_555 1_555
N14 N15 1_555 1_555
N16 N17 1_555 1_555

#END
