
#######################################################################
#
#                 Cambridge Crystallographic Data Centre
#                                CCDC 
#
#######################################################################
#
# If this CIF has been generated from an entry in the Cambridge 
# Structural Database, then it will include bibliographic, chemical, 
# crystal, experimental, refinement or atomic coordinate data resulting 
# from the CCDC's data processing and validation procedures.
#
#######################################################################

data_KERKAV
_symmetry_cell_setting           monoclinic
_symmetry_space_group_name_H-M   'P 21'
_symmetry_Int_Tables_number      4
_space_group_name_Hall           'P 2yb'
loop_
_symmetry_equiv_pos_site_id
_symmetry_equiv_pos_as_xyz
1 x,y,z
2 -x,1/2+y,-z
_cell_length_a                   13.1484(13)
_cell_length_b                   13.9231(18)
_cell_length_c                   20.837(2)
_cell_angle_alpha                90
_cell_angle_beta                 92.276(2)
_cell_angle_gamma                90
_cell_volume                     3811.55
loop_
_atom_site_label
_atom_site_type_symbol
_atom_site_fract_x
_atom_site_fract_y
_atom_site_fract_z
B1 B 0.3972(5) 0.5414(6) 0.1693(3)
H1 H 0.4438 0.5125 0.1999
C1 C 0.2505(4) 0.5183(5) 0.2486(3)
H3 H 0.2870 0.4970 0.2850
C2 C 0.1463(4) 0.5263(5) 0.2420(3)
H4 H 0.0983 0.5062 0.2708
C3 C 0.1282(5) 0.5722(5) 0.1815(3)
H5 H 0.0654 0.5898 0.1630
C4 C 0.4374(4) 0.4115(5) 0.0867(3)
H6 H 0.4847 0.3748 0.1102
C5 C 0.3984(4) 0.3923(5) 0.0255(3)
H7 H 0.4146 0.3389 0.0012
C6 C 0.3329(4) 0.4628(5) 0.0062(3)
H8 H 0.2949 0.4672 -0.0323
C7 C 0.5220(5) 0.6922(6) 0.1641(3)
H9 H 0.5719 0.6733 0.1944
C8 C 0.5255(5) 0.7760(6) 0.1255(3)
H10 H 0.5769 0.8218 0.1252
C9 C 0.4350(5) 0.7748(6) 0.0880(3)
H11 H 0.4168 0.8210 0.0575
C10 C 0.2714(4) 0.6590(5) -0.0199(3)
C11 C 0.1162(3) 0.5979(4) 0.0435(2)
C12 C 0.2049(4) 0.7690(4) 0.0708(2)
C13 C -0.2614(4) 0.5656(4) -0.0601(3)
C14 C -0.3162(4) 0.5946(5) -0.1129(3)
H12 H -0.2826 0.6112 -0.1498
C15 C -0.4221(4) 0.6001(5) -0.1132(3)
H13 H -0.4593 0.6222 -0.1491
C16 C -0.4706(4) 0.5717(5) -0.0582(3)
H14 H -0.5413 0.5740 -0.0575
C17 C -0.4163(4) 0.5410(4) -0.0062(3)
H15 H -0.4491 0.5249 0.0311
C18 C -0.3100(4) 0.5333(4) -0.0080(3)
C19 C -0.2581(4) 0.4994(4) 0.0496(3)
H16 H -0.2946 0.4976 0.0869
C20 C -0.1029(3) 0.4357(4) 0.1108(2)
H17 H -0.0433 0.4777 0.1164
C21 C -0.1505(5) 0.4242(5) 0.1765(3)
C22 C -0.2250(5) 0.3609(6) 0.1942(4)
H18 H -0.2553 0.3198 0.1639
C23 C -0.2537(5) 0.3587(6) 0.2552(3)
H19 H -0.3043 0.3158 0.2664
C24 C -0.2100(5) 0.4189(6) 0.3028(3)
H20 H -0.2274 0.4133 0.3455
C25 C -0.1410(6) 0.4860(7) 0.2842(3)
H21 H -0.1137 0.5285 0.3147
C26 C -0.1095(5) 0.4933(6) 0.2199(3)
H22 H -0.0646 0.5407 0.2072
C27 C -0.0667(4) 0.3383(4) 0.0879(2)
H23 H -0.1268 0.2975 0.0803
C28 C 0.0020(4) 0.2895(4) 0.1383(3)
C29 C 0.0773(4) 0.3435(5) 0.1704(3)
H24 H 0.0893 0.4066 0.1581
C30 C 0.1344(5) 0.3023(5) 0.2207(3)
H25 H 0.1797 0.3391 0.2457
C31 C 0.1217(5) 0.2019(6) 0.2330(3)
H26 H 0.1679 0.1693 0.2600
C32 C 0.0404(5) 0.1543(6) 0.2044(3)
H27 H 0.0228 0.0936 0.2191
C33 C -0.0141(4) 0.1947(5) 0.1553(3)
H28 H -0.0631 0.1586 0.1327
C34 C 0.0416(4) 0.2990(4) 0.0027(3)
H29 H 0.0631 0.2486 0.0292
C35 C 0.0846(4) 0.3030(4) -0.0605(3)
C36 C 0.1488(4) 0.2275(5) -0.0751(3)
H30 H 0.1653 0.1811 -0.0443
C37 C 0.1883(5) 0.2212(5) -0.1359(3)
H31 H 0.2313 0.1707 -0.1457
C38 C 0.1637(4) 0.2905(5) -0.1819(3)
H32 H 0.1902 0.2863 -0.2226
C39 C 0.0996(4) 0.3660(5) -0.1673(2)
H33 H 0.0831 0.4124 -0.1981
C40 C 0.0600(4) 0.3723(4) -0.1065(2)
Fe2 Fe 0.24862(6) 0.63893(9) 0.06997(4)
Mn2 Mn -0.07843(6) 0.46853(10) -0.02393(4)
N1 N 0.2906(4) 0.5468(5) 0.1930(2)
N2 N 0.2216(4) 0.5853(5) 0.1557(2)
N3 N 0.3926(3) 0.4959(4) 0.10641(19)
N4 N 0.3356(4) 0.5256(4) 0.0563(2)
N5 N 0.4327(3) 0.6430(4) 0.1493(2)
N6 N 0.3761(3) 0.6958(4) 0.1024(2)
N7 N 0.2815(4) 0.6702(4) -0.0681(2)
N8 N 0.0360(3) 0.5701(4) 0.0275(2)
N9 N 0.1805(4) 0.8474(4) 0.0690(2)
N10 N -0.1673(3) 0.4721(4) 0.0532(2)
N11 N -0.0217(3) 0.3565(4) 0.0254(2)
O1 O -0.1616(3) 0.5640(4) -0.0611(2)
O2 O 0.0111(3) 0.4518(3) -0.09013(17)
Mn2A Mn 0.07843(6) 0.96853(10) 0.02393(4)
N9A N -0.1805(4) 0.3474(4) -0.0690(2)
B2 B 0.1102(5) -0.0787(6) 0.3315(4)
H2 H 0.0640 -0.0498 0.3005
C41 C 0.2679(6) 0.0445(5) 0.4484(4)
H34 H 0.3173 0.0431 0.4816
C42 C 0.2286(6) 0.1279(6) 0.4202(4)
H35 H 0.2486 0.1910 0.4284
C43 C 0.1539(6) 0.0962(6) 0.3776(3)
H36 H 0.1072 0.1353 0.3554
C44 C 0.0439(5) -0.2612(6) 0.4475(3)
H37 H 0.0600 -0.2990 0.4833
C45 C -0.0545(5) -0.2517(5) 0.4121(3)
H38 H -0.1117 -0.2901 0.4162
C46 C -0.0448(5) -0.1720(6) 0.3702(3)
H39 H -0.0961 -0.1414 0.3459
C47 C 0.3083(5) -0.2270(6) 0.2956(3)
H40 H 0.3646 -0.2640 0.3081
C48 C 0.2722(5) -0.2187(6) 0.2354(3)
H41 H 0.2900 -0.2530 0.1992
C49 C 0.2021(5) -0.1466(6) 0.2403(3)
H42 H 0.1713 -0.1142 0.2057
C50 C 0.2296(4) -0.1992(5) 0.5180(3)
C51 C 0.3887(4) -0.1298(5) 0.4548(3)
C52 C 0.3104(4) -0.2975(5) 0.4274(3)
C53 C 0.4254(4) 0.0973(4) 0.6023(2)
C54 C 0.3894(4) 0.1040(5) 0.6654(3)
H43 H 0.4048 0.0559 0.6952
C55 C 0.3312(5) 0.1822(5) 0.6829(3)
H44 H 0.3071 0.1852 0.7242
C56 C 0.3085(5) 0.2555(5) 0.6401(3)
H45 H 0.2702 0.3078 0.6528
C57 C 0.3427(4) 0.2509(4) 0.5784(3)
H46 H 0.3280 0.3006 0.5497
C58 C 0.3990(3) 0.1724(4) 0.5588(2)
C59 C 0.4277(4) 0.1720(4) 0.4946(2)
H47 H 0.4018 0.2196 0.4672
C60 C 0.5091(4) 0.1009(4) 0.3999(2)
H48 H 0.4783 0.0407 0.3844
C61 C 0.4687(4) 0.1770(4) 0.3578(2)
C62 C 0.4985(4) 0.2694(4) 0.3671(2)
H49 H 0.5395 0.2851 0.4030
C63 C 0.4682(4) 0.3424(4) 0.3231(2)
H50 H 0.4910 0.4052 0.3286
C64 C 0.4054(4) 0.3183(5) 0.2729(2)
H51 H 0.3832 0.3661 0.2444
C65 C 0.3723(4) 0.2239(5) 0.2621(3)
H52 H 0.3320 0.2083 0.2259
C66 C 0.4019(4) 0.1531(4) 0.3076(2)
H53 H 0.3765 0.0909 0.3038
C67 C 0.6214(4) 0.0902(5) 0.3947(2)
H54 H 0.6517 0.1537 0.4024
C68 C 0.6532(5) 0.0577(5) 0.3307(3)
C69 C 0.6102(4) -0.0161(6) 0.2966(3)
H55 H 0.5547 -0.0480 0.3129
C70 C 0.6468(5) -0.0453(6) 0.2379(3)
H56 H 0.6203 -0.0979 0.2153
C71 C 0.7275(5) 0.0113(6) 0.2151(3)
H57 H 0.7486 -0.0003 0.1738
C72 C 0.7748(6) 0.0799(7) 0.2490(4)
H58 H 0.8334 0.1084 0.2341
C73 C 0.7364(5) 0.1079(6) 0.3057(4)
H59 H 0.7648 0.1599 0.3280
C74 C 0.7562(4) 0.0027(4) 0.4514(2)
H60 H 0.7951 0.0228 0.4177
C75 C 0.8055(4) -0.0507(5) 0.5021(2)
C76 C 0.9106(4) -0.0603(5) 0.5004(3)
H61 H 0.9452 -0.0350 0.4662
C77 C 0.9640(4) -0.1078(5) 0.5498(3)
H62 H 1.0343 -0.1142 0.5487
C78 C 0.9123(4) -0.1456(4) 0.6010(2)
H63 H 0.9480 -0.1774 0.6340
C79 C 0.8072(4) -0.1360(4) 0.6027(2)
H64 H 0.7726 -0.1613 0.6369
C80 C 0.7538(4) -0.0885(4) 0.5533(2)
Fe1 Fe 0.25339(6) -0.17210(9) 0.42798(4)
Mn1 Mn 0.56649(6) 0.01086(10) 0.52128(4)
N12 N 0.2250(4) -0.0334(4) 0.4213(2)
N13 N 0.1586(4) 0.0015(4) 0.3728(2)
N14 N 0.1065(4) -0.2005(4) 0.4148(3)
N15 N 0.0498(4) -0.1517(4) 0.3735(2)
N16 N 0.2571(4) -0.1789(5) 0.3332(2)
N17 N 0.1853(4) -0.1304(5) 0.2983(2)
N18 N 0.2179(4) -0.2176(5) 0.5731(3)
N19 N 0.4594(4) -0.1015(5) 0.4709(3)
N20 N 0.3436(4) -0.3746(5) 0.4295(3)
N21 N 0.4893(3) 0.1075(4) 0.4714(2)
N22 N 0.6590(3) 0.0251(4) 0.4495(2)
O3 O 0.4753(3) 0.0185(4) 0.5896(2)
O4 O 0.6503(3) -0.0850(3) 0.5586(2)
Mn1A Mn 0.43351(6) -0.48914(10) 0.47872(4)
N20A N 0.6564(4) 0.1254(5) 0.5705(3)
loop_
_geom_bond_atom_site_label_1
_geom_bond_atom_site_label_2
_geom_bond_site_symmetry_1
_geom_bond_site_symmetry_2
B1 H1 1_555 1_555
B2 H2 1_555 1_555
C1 H3 1_555 1_555
C2 C1 1_555 1_555
H4 C2 1_555 1_555
C3 C2 1_555 1_555
H5 C3 1_555 1_555
C4 H6 1_555 1_555
C5 C4 1_555 1_555
H7 C5 1_555 1_555
C6 C5 1_555 1_555
H8 C6 1_555 1_555
C7 H9 1_555 1_555
C8 C7 1_555 1_555
H10 C8 1_555 1_555
C9 C8 1_555 1_555
H11 C9 1_555 1_555
C10 Fe2 1_555 1_555
C11 Fe2 1_555 1_555
C12 Fe2 1_555 1_555
C13 C14 1_555 1_555
C14 H12 1_555 1_555
C15 C14 1_555 1_555
H13 C15 1_555 1_555
C16 C15 1_555 1_555
H14 C16 1_555 1_555
C17 C16 1_555 1_555
H15 C17 1_555 1_555
C18 C13 1_555 1_555
C19 C18 1_555 1_555
H16 C19 1_555 1_555
C20 H17 1_555 1_555
C21 C20 1_555 1_555
C22 C21 1_555 1_555
H18 C22 1_555 1_555
C23 C22 1_555 1_555
H19 C23 1_555 1_555
C24 C23 1_555 1_555
H20 C24 1_555 1_555
C25 C24 1_555 1_555
H21 C25 1_555 1_555
C26 C21 1_555 1_555
H22 C26 1_555 1_555
C27 C20 1_555 1_555
H23 C27 1_555 1_555
C28 C27 1_555 1_555
C29 C28 1_555 1_555
H24 C29 1_555 1_555
C30 C29 1_555 1_555
H25 C30 1_555 1_555
C31 C30 1_555 1_555
H26 C31 1_555 1_555
C32 C31 1_555 1_555
H27 C32 1_555 1_555
C33 C28 1_555 1_555
H28 C33 1_555 1_555
C34 H29 1_555 1_555
C35 C34 1_555 1_555
C36 C35 1_555 1_555
H30 C36 1_555 1_555
C37 C36 1_555 1_555
H31 C37 1_555 1_555
C38 C37 1_555 1_555
H32 C38 1_555 1_555
C39 C38 1_555 1_555
H33 C39 1_555 1_555
C40 C35 1_555 1_555
C41 H34 1_555 1_555
C42 C41 1_555 1_555
H35 C42 1_555 1_555
C43 C42 1_555 1_555
H36 C43 1_555 1_555
C44 H37 1_555 1_555
C45 C44 1_555 1_555
H38 C45 1_555 1_555
C46 C45 1_555 1_555
H39 C46 1_555 1_555
C47 H40 1_555 1_555
C48 C47 1_555 1_555
H41 C48 1_555 1_555
C49 C48 1_555 1_555
H42 C49 1_555 1_555
C50 Fe1 1_555 1_555
C51 Fe1 1_555 1_555
C52 Fe1 1_555 1_555
C53 C54 1_555 1_555
C54 H43 1_555 1_555
C55 C54 1_555 1_555
H44 C55 1_555 1_555
C56 C55 1_555 1_555
H45 C56 1_555 1_555
C57 C56 1_555 1_555
H46 C57 1_555 1_555
C58 C53 1_555 1_555
C59 C58 1_555 1_555
H47 C59 1_555 1_555
C60 H48 1_555 1_555
C61 C60 1_555 1_555
C62 C61 1_555 1_555
H49 C62 1_555 1_555
C63 C62 1_555 1_555
H50 C63 1_555 1_555
C64 C63 1_555 1_555
H51 C64 1_555 1_555
C65 C64 1_555 1_555
H52 C65 1_555 1_555
C66 C61 1_555 1_555
H53 C66 1_555 1_555
C67 C60 1_555 1_555
H54 C67 1_555 1_555
C68 C67 1_555 1_555
C69 C68 1_555 1_555
H55 C69 1_555 1_555
C70 C69 1_555 1_555
H56 C70 1_555 1_555
C71 C70 1_555 1_555
H57 C71 1_555 1_555
C72 C71 1_555 1_555
H58 C72 1_555 1_555
C73 C68 1_555 1_555
H59 C73 1_555 1_555
C74 H60 1_555 1_555
C75 C74 1_555 1_555
C76 C75 1_555 1_555
H61 C76 1_555 1_555
C77 C76 1_555 1_555
H62 C77 1_555 1_555
C78 C77 1_555 1_555
H63 C78 1_555 1_555
C79 C78 1_555 1_555
H64 C79 1_555 1_555
C80 C75 1_555 1_555
Fe1 N12 1_555 1_555
Fe2 N2 1_555 1_555
Mn1 N19 1_555 1_555
Mn2 N8 1_555 1_555
N1 B1 1_555 1_555
N2 C3 1_555 1_555
N3 B1 1_555 1_555
N4 C6 1_555 1_555
N5 B1 1_555 1_555
N6 C9 1_555 1_555
N7 C10 1_555 1_555
N8 C11 1_555 1_555
N9 C12 1_555 1_555
N10 C19 1_555 1_555
N11 C27 1_555 1_555
N12 C41 1_555 1_555
N13 B2 1_555 1_555
N14 C44 1_555 1_555
N15 B2 1_555 1_555
N16 C47 1_555 1_555
N17 B2 1_555 1_555
N18 C50 1_555 1_555
N19 C51 1_555 1_555
N20 C52 1_555 1_555
N21 C59 1_555 1_555
N22 C67 1_555 1_555
O1 C13 1_555 1_555
O2 C40 1_555 1_555
O3 C53 1_555 1_555
O4 C80 1_555 1_555
Mn1A N20 1_555 1_555
Mn2A N9 1_555 1_555
N9A Mn2 1_555 1_555
N20A Mn1 1_555 1_555
C1 N1 1_555 1_555
C4 N3 1_555 1_555
C7 N5 1_555 1_555
C17 C18 1_555 1_555
C20 N10 1_555 1_555
C25 C26 1_555 1_555
C32 C33 1_555 1_555
C34 N11 1_555 1_555
C39 C40 1_555 1_555
C43 N13 1_555 1_555
C46 N15 1_555 1_555
C49 N17 1_555 1_555
C57 C58 1_555 1_555
C60 N21 1_555 1_555
C65 C66 1_555 1_555
C72 C73 1_555 1_555
C74 N22 1_555 1_555
C79 C80 1_555 1_555
Fe1 N14 1_555 1_555
Fe1 N16 1_555 1_555
Fe2 N4 1_555 1_555
Fe2 N6 1_555 1_555
Mn1 N21 1_555 1_555
Mn1 N22 1_555 1_555
Mn1 O3 1_555 1_555
Mn1 O4 1_555 1_555
Mn2 N10 1_555 1_555
Mn2 N11 1_555 1_555
Mn2 O1 1_555 1_555
Mn2 O2 1_555 1_555
N1 N2 1_555 1_555
N3 N4 1_555 1_555
N5 N6 1_555 1_555
N12 N13 1_555 1_555
N14 N15 1_555 1_555
N16 N17 1_555 1_555

#END
