
#######################################################################
#
#                 Cambridge Crystallographic Data Centre
#                                CCDC 
#
#######################################################################
#
# If this CIF has been generated from an entry in the Cambridge 
# Structural Database, then it will include bibliographic, chemical, 
# crystal, experimental, refinement or atomic coordinate data resulting 
# from the CCDC's data processing and validation procedures.
#
#######################################################################

data_KERKUP
_symmetry_cell_setting           triclinic
_symmetry_space_group_name_H-M   'P -1'
_symmetry_Int_Tables_number      2
_space_group_name_Hall           '-P 1'
loop_
_symmetry_equiv_pos_site_id
_symmetry_equiv_pos_as_xyz
1 x,y,z
2 -x,-y,-z
_cell_length_a                   9.2937(18)
_cell_length_b                   10.255(2)
_cell_length_c                   17.223(3)
_cell_angle_alpha                74.199(4)
_cell_angle_beta                 89.193(4)
_cell_angle_gamma                79.930(4)
_cell_volume                     1554.14
loop_
_atom_site_label
_atom_site_type_symbol
_atom_site_fract_x
_atom_site_fract_y
_atom_site_fract_z
Mn1 Mn 0.61728(8) 0.58454(8) 0.44178(5)
Mn2 Mn 1.0000 0.5000 0.5000
Mn3 Mn 0.47755(9) 0.67418(9) 0.25183(5)
P1 P 0.84804(14) 0.57846(14) 0.29914(8)
P2 P 0.74298(14) 0.31344(14) 0.58849(8)
C1 C 0.9345(6) 0.1653(6) 0.2322(3)
C2 C 1.0241(6) 0.2596(6) 0.2013(3)
H1 H 1.1018 0.2358 0.1703
C3 C 1.0025(5) 0.3890(5) 0.2148(3)
C4 C 0.8901(6) 0.4232(5) 0.2647(3)
C5 C 0.8029(6) 0.3255(6) 0.2967(3)
H2 H 0.7282 0.3464 0.3301
C6 C 0.8227(6) 0.2000(6) 0.2809(3)
H3 H 0.7610 0.1381 0.3028
C7 C 0.9612(7) 0.0284(6) 0.2141(4)
C8 C 1.1095(6) 0.4784(6) 0.1740(3)
C9 C 0.7792(6) -0.0828(5) 0.5055(3)
C10 C 0.6732(5) 0.0305(5) 0.4695(3)
H4 H 0.6084 0.0233 0.4309
C11 C 0.6612(5) 0.1531(5) 0.4894(3)
C12 C 0.7549(5) 0.1649(5) 0.5495(3)
C13 C 0.8620(6) 0.0515(5) 0.5850(3)
H5 H 0.9268 0.0575 0.6240
C14 C 0.8733(6) -0.0706(6) 0.5629(3)
H6 H 0.9457 -0.1449 0.5873
C15 C 0.7918(6) -0.2162(5) 0.4831(3)
C16 C 0.5497(5) 0.2732(5) 0.4422(3)
C17 C 0.4536(8) 0.9827(7) 0.2620(4)
H7 H 0.4115 0.9506 0.3112
C18 C 0.4606(8) 1.1215(8) 0.2352(4)
H8 H 0.4196 1.1818 0.2645
C19 C 0.5279(8) 1.1675(8) 0.1660(4)
H9 H 0.5356 1.2601 0.1482
C20 C 0.5859(8) 1.0793(8) 0.1210(4)
C21 C 0.5677(7) 0.9418(8) 0.1504(4)
C22 C 0.6207(7) 0.8430(8) 0.1057(4)
C23 C 0.6473(8) 0.6232(9) 0.0943(4)
H10 H 0.6320 0.5329 0.1134
C24 C 0.7240(8) 0.6605(9) 0.0231(4)
H11 H 0.7589 0.5954 -0.0043
C25 C 0.7462(8) 0.7885(9) -0.0048(5)
H12 H 0.7967 0.8130 -0.0521
C26 C 0.6959(8) 0.8863(9) 0.0350(4)
C27 C 0.7179(8) 1.0274(9) 0.0098(5)
H13 H 0.7734 1.0555 -0.0350
C28 C 0.6617(8) 1.1166(9) 0.0485(4)
H14 H 0.6718 1.2081 0.0276
N1 N 0.5965(5) 0.7125(6) 0.1347(3)
N2 N 0.5039(5) 0.8935(5) 0.2209(3)
O1 O 0.6882(3) 0.5909(3) 0.3224(2)
O2 O 0.9501(4) 0.5625(4) 0.3697(2)
O3 O 0.8719(4) 0.7001(3) 0.2284(2)
O4 O 0.8669(5) -0.0481(4) 0.2482(3)
H15 H 0.8792 -0.1188 0.2335
O5 O 1.0621(5) -0.0066(4) 0.1752(3)
O6 O 1.2298(4) 0.4268(4) 0.1568(3)
O7 O 1.0713(5) 0.6115(4) 0.1550(3)
H16 H 0.9999 0.6322 0.1806
O8 O 0.7787(3) 0.4388(3) 0.5263(2)
O9 O 0.8634(4) 0.2676(4) 0.6576(2)
H17 H 0.9214 0.3213 0.6485
O10 O 0.5962(3) 0.3313(3) 0.62834(19)
O11 O 0.6865(4) -0.2342(4) 0.4449(2)
O12 O 0.9093(4) -0.3004(4) 0.5055(2)
O13 O 0.5338(4) 0.3862(3) 0.4642(2)
O14 O 0.4859(4) 0.2629(4) 0.3825(2)
O15 O 0.2746(4) 0.7600(4) 0.1783(2)
H18 H 0.2078 0.7248 0.1618
H19 H 0.4042 0.4720 0.2057
O16 O 0.4402(5) 0.4735(4) 0.2503(2)
H20 H 0.2660 0.8348 0.1924
H21 H 0.4742 0.4315 0.3008
Mn1A Mn 1.38272(8) 0.41546(8) 0.55822(5)
Mn1A_2 Mn 0.38272(8) 0.41546(8) 0.55822(5)
Mn1_2 Mn 0.61728(8) -0.41546(8) 0.44178(5)
Mn1_3 Mn 1.61728(8) 0.58454(8) 0.44178(5)
Mn1A_3 Mn 1.38272(8) 1.41546(8) 0.55822(5)
Mn2_2 Mn 1.0000 -0.5000 0.5000
Mn2_3 Mn 1.0000 1.5000 0.5000
Mn3A Mn 1.52245(9) 0.32582(9) 0.74817(5)
Mn3A_2 Mn 0.52245(9) 0.32582(9) 0.74817(5)
Mn3_2 Mn 1.47755(9) 0.67418(9) 0.25183(5)
P1A P 1.15196(14) 0.42154(14) 0.70086(8)
P2A P 1.25702(14) 0.68656(14) 0.41151(8)
C1A C 1.0655(6) 0.8347(6) 0.7678(3)
C2A C 0.9759(6) 0.7404(6) 0.7987(3)
H1A H 0.8982 0.7642 0.8297
C3A C 0.9975(5) 0.6110(5) 0.7852(3)
C4A C 1.1099(6) 0.5768(5) 0.7353(3)
C5A C 1.1971(6) 0.6745(6) 0.7033(3)
H2A H 1.2718 0.6536 0.6699
C6A C 1.1773(6) 0.8000(6) 0.7191(3)
H3A H 1.2390 0.8619 0.6972
C7A C 1.0388(7) 0.9716(6) 0.7859(4)
C8A C 0.8905(6) 0.5216(6) 0.8260(3)
C9A C 1.2208(6) 1.0828(5) 0.4945(3)
C10A C 1.3268(5) 0.9695(5) 0.5305(3)
H4A H 1.3916 0.9767 0.5691
C11A C 1.3388(5) 0.8469(5) 0.5106(3)
C12A C 1.2451(5) 0.8351(5) 0.4505(3)
C13A C 1.1380(6) 0.9485(5) 0.4150(3)
H5A H 1.0732 0.9425 0.3760
C14A C 1.1267(6) 1.0706(6) 0.4371(3)
H6A H 1.0543 1.1449 0.4127
C15A C 1.2082(6) 1.2162(5) 0.5169(3)
C16A C 1.4503(5) 0.7268(5) 0.5578(3)
C17A C 1.5464(8) 0.0173(7) 0.7380(4)
H7A H 1.5885 0.0494 0.6888
C18A C 1.5394(8) -0.1215(8) 0.7648(4)
H8A H 1.5804 -0.1818 0.7355
C19A C 1.4721(8) -0.1675(8) 0.8340(4)
H9A H 1.4644 -0.2601 0.8518
C20A C 1.4141(8) -0.0793(8) 0.8790(4)
C21A C 1.4323(7) 0.0582(8) 0.8496(4)
C22A C 1.3793(7) 0.1570(8) 0.8943(4)
C23A C 1.3527(8) 0.3768(9) 0.9057(4)
H10A H 1.3680 0.4671 0.8866
C24A C 1.2760(8) 0.3395(9) 0.9769(4)
H11A H 1.2411 0.4046 1.0043
C25A C 1.2538(8) 0.2115(9) 1.0048(5)
H12A H 1.2033 0.1870 1.0521
C26A C 1.3041(8) 0.1137(9) 0.9650(4)
C27A C 1.2821(8) -0.0274(9) 0.9902(5)
H13A H 1.2266 -0.0555 1.0350
C28A C 1.3383(8) -0.1166(9) 0.9515(4)
H14A H 1.3282 -0.2081 0.9724
N1A N 1.4035(5) 0.2875(6) 0.8653(3)
N2A N 1.4961(5) 0.1065(5) 0.7791(3)
O1A O 1.3118(3) 0.4091(3) 0.6776(2)
O2A O 1.0499(4) 0.4375(4) 0.6303(2)
O3A O 1.1281(4) 0.2999(3) 0.7716(2)
O4A O 1.1331(5) 1.0481(4) 0.7518(3)
H15A H 1.1208 1.1188 0.7665
O5A O 0.9379(5) 1.0066(4) 0.8248(3)
O6A O 0.7702(4) 0.5732(4) 0.8432(3)
O7A O 0.9287(5) 0.3885(4) 0.8450(3)
H16A H 1.0001 0.3678 0.8194
O8A O 1.2213(3) 0.5612(3) 0.4737(2)
O9A O 1.1366(4) 0.7324(4) 0.3424(2)
H17A H 1.0786 0.6787 0.3515
O10A O 1.4038(3) 0.6687(3) 0.37166(19)
O10A_2 O 0.4038(3) 0.6687(3) 0.37166(19)
O10_2 O 1.5962(3) 0.3313(3) 0.62834(19)
O11A O 1.3135(4) 1.2342(4) 0.5551(2)
O11_2 O 0.6865(4) 0.7658(4) 0.4449(2)
O11A_2 O 1.3135(4) 0.2342(4) 0.5551(2)
O12A O 1.0907(4) 1.3004(4) 0.4945(2)
O12_2 O 0.9093(4) 0.6996(4) 0.5055(2)
O12A_2 O 1.0907(4) 0.3004(4) 0.4945(2)
O13A O 1.4662(4) 0.6138(3) 0.5358(2)
O13A_2 O 0.4662(4) 0.6138(3) 0.5358(2)
O13_2 O 1.5338(4) 0.3862(3) 0.4642(2)
O14A O 1.5141(4) 0.7371(4) 0.6175(2)
O15A O 1.7254(4) 0.2400(4) 0.8217(2)
H18A H 1.7922 0.2752 0.8382
H19A H 1.5958 0.5280 0.7943
O16A O 1.5598(5) 0.5265(4) 0.7497(2)
H20A H 1.7340 0.1652 0.8076
H21A H 1.5258 0.5685 0.6992
loop_
_geom_bond_atom_site_label_1
_geom_bond_atom_site_label_2
_geom_bond_site_symmetry_1
_geom_bond_site_symmetry_2
Mn1 O1 1_555 1_555
Mn2 O2 1_555 1_555
Mn3 N1 1_555 1_555
P1 C4 1_555 1_555
P2 C12 1_555 1_555
C1 C2 1_555 1_555
C2 H1 1_555 1_555
C3 C2 1_555 1_555
C4 C3 1_555 1_555
C5 C4 1_555 1_555
H2 C5 1_555 1_555
C6 C1 1_555 1_555
H3 C6 1_555 1_555
C7 C1 1_555 1_555
C8 C3 1_555 1_555
C9 C10 1_555 1_555
C10 H4 1_555 1_555
C11 C10 1_555 1_555
C12 C11 1_555 1_555
C13 C12 1_555 1_555
H5 C13 1_555 1_555
C14 C9 1_555 1_555
H6 C14 1_555 1_555
C15 C9 1_555 1_555
C16 C11 1_555 1_555
C17 H7 1_555 1_555
C18 C17 1_555 1_555
H8 C18 1_555 1_555
C19 C18 1_555 1_555
H9 C19 1_555 1_555
C20 C19 1_555 1_555
C21 C20 1_555 1_555
C22 C21 1_555 1_555
C23 H10 1_555 1_555
C24 C23 1_555 1_555
H11 C24 1_555 1_555
C25 C24 1_555 1_555
H12 C25 1_555 1_555
C26 C22 1_555 1_555
C27 C26 1_555 1_555
H13 C27 1_555 1_555
C28 C20 1_555 1_555
H14 C28 1_555 1_555
N1 C22 1_555 1_555
N2 Mn3 1_555 1_555
O1 Mn3 1_555 1_555
O2 P1 1_555 1_555
O3 P1 1_555 1_555
O4 C7 1_555 1_555
H15 O4 1_555 1_555
O5 C7 1_555 1_555
O6 C8 1_555 1_555
O7 C8 1_555 1_555
H16 O7 1_555 1_555
O8 Mn1 1_555 1_555
O9 P2 1_555 1_555
H17 O9 1_555 1_555
O10 P2 1_555 1_555
O11 C15 1_555 1_555
O12 C15 1_555 1_555
O13 Mn1 1_555 1_555
O14 C16 1_555 1_555
O15 Mn3 1_555 1_555
H18 O15 1_555 1_555
H19 O16 1_555 1_555
O16 Mn3 1_555 1_555
H20 O15 1_555 1_555
H21 O16 1_555 1_555
Mn1A O1A 1_555 1_555
Mn1A_2 O10 1_555 1_555
Mn1_2 O11 1_555 1_555
Mn1_3 O10A 1_555 1_555
Mn1A_3 O11A 1_555 1_555
Mn2_2 O12 1_555 1_555
Mn2_3 O12A 1_555 1_555
Mn3A N1A 1_555 1_555
Mn3A_2 O10 1_555 1_555
Mn3_2 O10A 1_555 1_555
P1A C4A 1_555 1_555
P2A C12A 1_555 1_555
C1A C2A 1_555 1_555
C2A H1A 1_555 1_555
C3A C2A 1_555 1_555
C4A C3A 1_555 1_555
C5A C4A 1_555 1_555
H2A C5A 1_555 1_555
C6A C1A 1_555 1_555
H3A C6A 1_555 1_555
C7A C1A 1_555 1_555
C8A C3A 1_555 1_555
C9A C10A 1_555 1_555
C10A H4A 1_555 1_555
C11A C10A 1_555 1_555
C12A C11A 1_555 1_555
C13A C12A 1_555 1_555
H5A C13A 1_555 1_555
C14A C9A 1_555 1_555
H6A C14A 1_555 1_555
C15A C9A 1_555 1_555
C16A C11A 1_555 1_555
C17A H7A 1_555 1_555
C18A C17A 1_555 1_555
H8A C18A 1_555 1_555
C19A C18A 1_555 1_555
H9A C19A 1_555 1_555
C20A C19A 1_555 1_555
C21A C20A 1_555 1_555
C22A C21A 1_555 1_555
C23A H10A 1_555 1_555
C24A C23A 1_555 1_555
H11A C24A 1_555 1_555
C25A C24A 1_555 1_555
H12A C25A 1_555 1_555
C26A C22A 1_555 1_555
C27A C26A 1_555 1_555
H13A C27A 1_555 1_555
C28A C20A 1_555 1_555
H14A C28A 1_555 1_555
N1A C22A 1_555 1_555
N2A Mn3A 1_555 1_555
O1A Mn3A 1_555 1_555
O2A Mn2 1_555 1_555
O3A P1A 1_555 1_555
O4A C7A 1_555 1_555
H15A O4A 1_555 1_555
O5A C7A 1_555 1_555
O6A C8A 1_555 1_555
O7A C8A 1_555 1_555
H16A O7A 1_555 1_555
O8A Mn2 1_555 1_555
O9A P2A 1_555 1_555
H17A O9A 1_555 1_555
O10A P2A 1_555 1_555
O10A_2 Mn1 1_555 1_555
O10_2 Mn1A 1_555 1_555
O11A C15A 1_555 1_555
O11_2 Mn1 1_555 1_555
O11A_2 Mn1A 1_555 1_555
O12A C15A 1_555 1_555
O12_2 Mn2 1_555 1_555
O12A_2 Mn2 1_555 1_555
O13A Mn1A 1_555 1_555
O13A_2 Mn1 1_555 1_555
O13_2 Mn1A 1_555 1_555
O14A C16A 1_555 1_555
O15A Mn3A 1_555 1_555
H18A O15A 1_555 1_555
H19A O16A 1_555 1_555
O16A Mn3A 1_555 1_555
H20A O15A 1_555 1_555
H21A O16A 1_555 1_555
Mn2 O8 1_555 1_555
Mn3 O10A_2 1_555 1_555
P1 O1 1_555 1_555
P2 O8 1_555 1_555
C5 C6 1_555 1_555
C13 C14 1_555 1_555
C16 O13 1_555 1_555
C17 N2 1_555 1_555
C21 N2 1_555 1_555
C23 N1 1_555 1_555
C25 C26 1_555 1_555
C27 C28 1_555 1_555
O13 Mn1A_2 1_555 1_555
Mn1A O8A 1_555 1_555
Mn1A_2 O13A_2 1_555 1_555
Mn1_3 O13A 1_555 1_555
Mn1_3 O13_2 1_555 1_555
Mn3A O10_2 1_555 1_555
P1A O1A 1_555 1_555
P1A O2A 1_555 1_555
P2A O8A 1_555 1_555
C5A C6A 1_555 1_555
C13A C14A 1_555 1_555
C16A O13A 1_555 1_555
C17A N2A 1_555 1_555
C21A N2A 1_555 1_555
C23A N1A 1_555 1_555
C25A C26A 1_555 1_555
C27A C28A 1_555 1_555

#END
