
#######################################################################
#
#                 Cambridge Crystallographic Data Centre
#                                CCDC 
#
#######################################################################
#
# If this CIF has been generated from an entry in the Cambridge 
# Structural Database, then it will include bibliographic, chemical, 
# crystal, experimental, refinement or atomic coordinate data resulting 
# from the CCDC's data processing and validation procedures.
#
#######################################################################

data_KESBIU01
_symmetry_cell_setting           orthorhombic
_symmetry_space_group_name_H-M   'P b c n'
_symmetry_Int_Tables_number      60
_space_group_name_Hall           '-P 2n 2ab'
loop_
_symmetry_equiv_pos_site_id
_symmetry_equiv_pos_as_xyz
1 x,y,z
2 1/2-x,1/2-y,1/2+z
3 -x,y,1/2-z
4 1/2+x,1/2-y,-z
5 -x,-y,-z
6 1/2+x,1/2+y,1/2-z
7 x,-y,1/2+z
8 1/2-x,1/2+y,z
_cell_length_a                   27.062(7)
_cell_length_b                   13.006(3)
_cell_length_c                   33.486(8)
_cell_angle_alpha                90
_cell_angle_beta                 90
_cell_angle_gamma                90
_cell_volume                     11786
loop_
_atom_site_label
_atom_site_type_symbol
_atom_site_fract_x
_atom_site_fract_y
_atom_site_fract_z
P1 P 0.66147(8) 1.52693(18) 0.36944(8)
F1 F 0.6251(3) 1.5802(6) 0.3408(3)
F2 F 0.6503(3) 1.4167(4) 0.3605(2)
F3 F 0.7076(3) 1.5659(9) 0.3568(3)
F4 F 0.6543(4) 1.6124(7) 0.4042(2)
F5 F 0.6089(4) 1.5021(10) 0.3990(3)
F6 F 0.6872(3) 1.4662(6) 0.4088(3)
Ag1 Ag 0.717894(19) 1.27712(5) 0.359256(15)
Co1 Co 1.06843(3) 1.47425(7) 0.38622(2)
C1 C 1.0131(2) 1.6548(5) 0.3564(2)
H1 H 1.0415 1.6964 0.3566
C2 C 0.9659(2) 1.6879(5) 0.3424(2)
H2 H 0.9578 1.7531 0.3323
C3 C 0.9351(2) 1.6060(6) 0.3466(2)
H3 H 0.9015 1.6042 0.3396
C4 C 0.9634(2) 1.5213(5) 0.36396(19)
C5 C 0.9466(2) 1.4256(5) 0.37472(18)
C6 C 0.9763(2) 1.3478(5) 0.39157(17)
C7 C 0.9601(2) 1.2464(5) 0.4040(2)
H4 H 0.9278 1.2201 0.4024
C8 C 1.0009(3) 1.1961(5) 0.4183(2)
H5 H 1.0022 1.1284 0.4281
C9 C 1.0410(2) 1.2665(5) 0.4155(2)
H6 H 1.0736 1.2522 0.4236
C10 C 0.8940(2) 1.3989(5) 0.36667(18)
C11 C 0.8801(2) 1.3238(5) 0.3389(2)
H7 H 0.9040 1.2891 0.3237
C12 C 0.8303(2) 1.3016(5) 0.33425(19)
H8 H 0.8215 1.2505 0.3157
C13 C 0.8076(2) 1.4222(6) 0.3806(2)
H9 H 0.7827 1.4562 0.3951
C14 C 0.8560(2) 1.4518(5) 0.3876(2)
H10 H 0.8635 1.5051 0.4056
C15 C 0.5524(2) 0.8386(5) 0.1845(2)
H11 H 0.5367 0.7878 0.1691
C16 C 0.5588(3) 0.8325(7) 0.2257(2)
H12 H 0.5492 0.7779 0.2425
C17 C 0.5812(3) 0.9204(6) 0.2368(2)
H13 H 0.5892 0.9399 0.2631
C18 C 0.5908(2) 0.9787(5) 0.20143(19)
C19 C 0.6178(2) 1.0697(5) 0.19853(18)
C20 C 0.6289(2) 1.1210(5) 0.16268(18)
C21 C 0.6605(3) 1.2079(6) 0.1572(2)
H14 H 0.6768 1.2448 0.1775
C22 C 0.6627(3) 1.2275(7) 0.1168(2)
H15 H 0.6808 1.2795 0.1040
C23 C 0.6318(2) 1.1527(6) 0.09846(19)
H16 H 0.6259 1.1495 0.0708
C24 C 0.6378(2) 1.1167(6) 0.23653(19)
C25 C 0.6213(3) 1.2107(6) 0.2503(2)
H17 H 0.5960 1.2459 0.2367
C26 C 0.6427(3) 1.2535(6) 0.2849(2)
H18 H 0.6314 1.3177 0.2941
C27 C 0.6939(3) 1.1165(7) 0.2919(2)
H19 H 0.7189 1.0824 0.3061
C28 C 0.6752(3) 1.0691(7) 0.2579(2)
H20 H 0.6878 1.0054 0.2495
C29 C 0.6575(3) 1.1542(6) 0.6262(2)
H21 H 0.6549 1.1506 0.6542
C30 C 0.6927(3) 1.2096(7) 0.6060(2)
H22 H 0.7174 1.2506 0.6177
C31 C 0.6855(2) 1.1943(6) 0.5655(2)
H23 H 0.7040 1.2237 0.5446
C32 C 0.6452(2) 1.1262(5) 0.56149(19)
C33 C 0.6236(2) 1.0872(5) 0.52643(19)
C34 C 0.5858(2) 1.0163(5) 0.52474(17)
C35 C 0.5688(2) 0.9581(6) 0.4905(2)
H24 H 0.5796 0.9661 0.4640
C36 C 0.5342(2) 0.8894(6) 0.5037(2)
H25 H 0.5166 0.8418 0.4880
C37 C 0.5298(2) 0.9038(5) 0.54582(18)
H26 H 0.5084 0.8659 0.5624
C38 C 0.6458(2) 1.1239(5) 0.48719(19)
C39 C 0.6941(2) 1.1045(6) 0.4769(2)
H27 H 0.7144 1.0648 0.4936
C40 C 0.7123(2) 1.1448(6) 0.4412(2)
H28 H 0.7452 1.1302 0.4340
C41 C 0.6383(2) 1.2232(5) 0.4271(2)
H29 H 0.6192 1.2658 0.4106
C42 C 0.6167(2) 1.1835(5) 0.46145(19)
H30 H 0.5833 1.1962 0.4673
N1 N 1.01200(18) 1.5569(4) 0.36915(14)
N2 N 1.02615(17) 1.3563(4) 0.39971(15)
N3 N 0.79335(19) 1.3494(4) 0.35494(16)
N4 N 0.57166(18) 0.9266(4) 0.16920(15)
N5 N 0.61231(17) 1.0880(4) 0.12484(15)
N6 N 0.6789(2) 1.2050(5) 0.30521(17)
N7 N 0.62700(17) 1.1052(4) 0.60026(15)
N8 N 0.56023(17) 0.9786(4) 0.55876(15)
N9 N 0.6848(2) 1.2042(4) 0.41646(16)
Co1E Co 0.56843(3) 0.97425(7) 0.11378(2)
Co1C Co 0.56843(3) 1.02575(7) 0.61378(2)
N4E N 1.07166(18) 1.4266(4) 0.33080(15)
N5E N 1.11231(17) 1.5880(4) 0.37516(15)
N7C N 1.12700(17) 1.3948(4) 0.39974(15)
N8C N 1.06023(17) 1.5214(4) 0.44124(15)
loop_
_geom_bond_atom_site_label_1
_geom_bond_atom_site_label_2
_geom_bond_site_symmetry_1
_geom_bond_site_symmetry_2
Ag1 N3 1_555 1_555
Co1 N1 1_555 1_555
C1 H1 1_555 1_555
C2 C1 1_555 1_555
H2 C2 1_555 1_555
C3 C2 1_555 1_555
H3 C3 1_555 1_555
C4 C3 1_555 1_555
C5 C4 1_555 1_555
C6 C5 1_555 1_555
C7 C6 1_555 1_555
H4 C7 1_555 1_555
C8 C7 1_555 1_555
H5 C8 1_555 1_555
C9 C8 1_555 1_555
H6 C9 1_555 1_555
C10 C5 1_555 1_555
C11 C10 1_555 1_555
H7 C11 1_555 1_555
C12 C11 1_555 1_555
H8 C12 1_555 1_555
C13 H9 1_555 1_555
C14 C10 1_555 1_555
H10 C14 1_555 1_555
C15 H11 1_555 1_555
C16 C15 1_555 1_555
H12 C16 1_555 1_555
C17 C16 1_555 1_555
H13 C17 1_555 1_555
C18 C17 1_555 1_555
C19 C18 1_555 1_555
C20 C19 1_555 1_555
C21 C20 1_555 1_555
H14 C21 1_555 1_555
C22 C21 1_555 1_555
H15 C22 1_555 1_555
C23 C22 1_555 1_555
H16 C23 1_555 1_555
C24 C19 1_555 1_555
C25 C24 1_555 1_555
H17 C25 1_555 1_555
C26 C25 1_555 1_555
H18 C26 1_555 1_555
C27 H19 1_555 1_555
C28 C24 1_555 1_555
H20 C28 1_555 1_555
C29 H21 1_555 1_555
C30 C29 1_555 1_555
H22 C30 1_555 1_555
C31 C30 1_555 1_555
H23 C31 1_555 1_555
C32 C31 1_555 1_555
C33 C32 1_555 1_555
C34 C33 1_555 1_555
C35 C34 1_555 1_555
H24 C35 1_555 1_555
C36 C35 1_555 1_555
H25 C36 1_555 1_555
C37 C36 1_555 1_555
H26 C37 1_555 1_555
C38 C33 1_555 1_555
C39 C38 1_555 1_555
H27 C39 1_555 1_555
C40 C39 1_555 1_555
H28 C40 1_555 1_555
C41 H29 1_555 1_555
C42 C38 1_555 1_555
H30 C42 1_555 1_555
N1 C1 1_555 1_555
N2 Co1 1_555 1_555
N3 C12 1_555 1_555
N4 C15 1_555 1_555
N5 C20 1_555 1_555
N6 Ag1 1_555 1_555
N7 C29 1_555 1_555
N8 C34 1_555 1_555
N9 Ag1 1_555 1_555
P1 F1 1_555 1_555
F2 P1 1_555 1_555
F3 P1 1_555 1_555
F4 P1 1_555 1_555
F5 P1 1_555 1_555
F6 P1 1_555 1_555
Co1E N4 1_555 1_555
Co1C N7 1_555 1_555
N4E Co1 1_555 1_555
N5E Co1 1_555 1_555
N7C Co1 1_555 1_555
N8C Co1 1_555 1_555
C4 N1 1_555 1_555
C6 N2 1_555 1_555
C9 N2 1_555 1_555
C13 C14 1_555 1_555
C13 N3 1_555 1_555
C18 N4 1_555 1_555
C23 N5 1_555 1_555
C26 N6 1_555 1_555
C27 C28 1_555 1_555
C27 N6 1_555 1_555
C32 N7 1_555 1_555
C37 N8 1_555 1_555
C40 N9 1_555 1_555
C41 C42 1_555 1_555
C41 N9 1_555 1_555
N5 Co1E 1_555 1_555
N8 Co1C 1_555 1_555

#END
