
#######################################################################
#
#                 Cambridge Crystallographic Data Centre
#                                CCDC 
#
#######################################################################
#
# If this CIF has been generated from an entry in the Cambridge 
# Structural Database, then it will include bibliographic, chemical, 
# crystal, experimental, refinement or atomic coordinate data resulting 
# from the CCDC's data processing and validation procedures.
#
#######################################################################

data_KESFOF
_symmetry_cell_setting           triclinic
_symmetry_space_group_name_H-M   'P -1'
_symmetry_Int_Tables_number      2
_space_group_name_Hall           '-P 1'
loop_
_symmetry_equiv_pos_site_id
_symmetry_equiv_pos_as_xyz
1 x,y,z
2 -x,-y,-z
_cell_length_a                   10.121(2)
_cell_length_b                   10.500(2)
_cell_length_c                   11.763(2)
_cell_angle_alpha                97.69(3)
_cell_angle_beta                 98.08(3)
_cell_angle_gamma                118.19(3)
_cell_volume                     1061.75
loop_
_atom_site_label
_atom_site_type_symbol
_atom_site_fract_x
_atom_site_fract_y
_atom_site_fract_z
O1 O 1.49660(18) 0.6418(2) 0.15161(15)
C1 C 1.4239(3) 0.7106(3) 0.1685(2)
C2 C 1.2538(2) 0.6182(3) 0.16055(19)
C3 C 1.1855(3) 0.4691(3) 0.1623(2)
H1 H 1.2451 0.4236 0.1678
C4 C 0.9136(2) 0.6801(2) 0.13414(18)
C5 C 1.0059(2) 0.6025(2) 0.14468(18)
C6 C 0.9397(3) 0.4542(3) 0.1482(2)
H2 H 0.8349 0.3994 0.1454
C7 C 1.0291(3) 0.3875(3) 0.1560(2)
H3 H 0.9839 0.2874 0.1570
C8 C 1.1628(2) 0.6833(3) 0.15053(19)
H4 H 1.2075 0.7828 0.1477
C9 C 1.8044(3) 1.0091(3) 0.3584(2)
H5 H 1.7035 0.9830 0.3608
C10 C 2.0021(3) 1.0212(3) 0.3109(2)
H6 H 2.0643 1.0011 0.2693
C11 C 1.9396(4) 1.2136(3) 0.5416(2)
H7 H 2.0224 1.2293 0.6046
H8 H 1.8444 1.1681 0.5679
C12 C 1.9697(3) 1.3615(3) 0.5177(2)
C13 C 1.8823(3) 1.4202(3) 0.5537(2)
C14 C 2.0875(3) 1.4419(3) 0.4639(2)
C15 C 1.5375(3) 0.6892(3) -0.10608(19)
H9 H 1.4563 0.6065 -0.0914
C16 C 1.7465(3) 0.8857(3) -0.0883(2)
H10 H 1.8430 0.9687 -0.0548
C17 C 1.4231(3) 0.6523(4) -0.3192(2)
H11 H 1.4047 0.7253 -0.3499
H12 H 1.3277 0.5801 -0.3031
C18 C 1.4659(3) 0.5749(3) -0.4118(2)
C19 C 1.4384(4) 0.4332(4) -0.4137(2)
H13 H 1.3964 0.3867 -0.3554
C20 C 1.5281(4) 0.6415(4) -0.4994(3)
H14 H 1.5476 0.7372 -0.4999
H15 H 1.794(3) 1.361(3) 0.593(2)
H16 H 2.148(3) 1.403(3) 0.434(3)
N1 N 1.6663(2) 0.7868(2) -0.02709(16)
N2 N 1.6762(3) 0.8541(3) -0.1990(2)
N3 N 1.5417(2) 0.7266(2) -0.20861(17)
N4 N 1.8452(2) 0.9471(2) 0.27489(17)
N5 N 2.0574(3) 1.1231(3) 0.4092(2)
N6 N 1.9280(2) 1.1131(2) 0.43765(18)
O2 O 0.77971(16) 0.61699(18) 0.15672(15)
O3 O 0.96759(18) 0.80119(18) 0.10708(16)
O4 O 1.4855(2) 0.8476(3) 0.1918(3)
Zn1 Zn 1.71275(3) 0.76679(3) 0.13985(2)
O1_2 O 2.49660(18) 0.6418(2) 0.15161(15)
C1_2 C 2.4239(3) 0.7106(3) 0.1685(2)
C2_2 C 2.2538(2) 0.6182(3) 0.16055(19)
C3_2 C 2.1855(3) 0.4691(3) 0.1623(2)
H1_2 H 2.2451 0.4236 0.1678
C4_2 C 1.9136(2) 0.6801(2) 0.13414(18)
C5_2 C 2.0059(2) 0.6025(2) 0.14468(18)
C6_2 C 1.9397(3) 0.4542(3) 0.1482(2)
H2_2 H 1.8349 0.3994 0.1454
C7_2 C 2.0291(3) 0.3875(3) 0.1560(2)
H3_2 H 1.9839 0.2874 0.1570
C8_2 C 2.1628(2) 0.6833(3) 0.15053(19)
H4_2 H 2.2075 0.7828 0.1477
C9A C 2.1956(3) 1.9909(3) 0.6416(2)
H5A H 2.2965 2.0170 0.6392
C10A C 1.9979(3) 1.9788(3) 0.6891(2)
H6A H 1.9357 1.9989 0.7307
C11A C 2.0604(4) 1.7864(3) 0.4584(2)
H7A H 1.9776 1.7707 0.3954
H8A H 2.1556 1.8319 0.4321
C12A C 2.0303(3) 1.6385(3) 0.4823(2)
C13A C 2.1177(3) 1.5798(3) 0.4463(2)
C14A C 1.9125(3) 1.5581(3) 0.5361(2)
C15A C 1.4625(3) 0.3108(3) -0.89392(19)
H9A H 1.5437 0.3935 -0.9086
C16A C 1.2535(3) 0.1143(3) -0.9117(2)
H10A H 1.1570 0.0313 -0.9452
C17A C 1.5769(3) 0.3477(4) -0.6808(2)
H11A H 1.5953 0.2747 -0.6501
H12A H 1.6723 0.4199 -0.6969
C18A C 1.5341(3) 0.4251(3) -0.5882(2)
C19A C 1.5616(4) 0.5668(4) -0.5863(2)
H13A H 1.6036 0.6133 -0.6446
C20A C 1.4719(4) 0.3585(4) -0.5006(3)
H14A H 1.4524 0.2628 -0.5001
H15A H 2.206(3) 1.639(3) 0.407(2)
H16A H 1.852(3) 1.597(3) 0.566(3)
N1A N 1.3337(2) 0.2132(2) -0.97291(16)
N1_2 N 2.6663(2) 0.7868(2) -0.02709(16)
N2A N 1.3238(3) 0.1459(3) -0.8010(2)
N3A N 1.4583(2) 0.2734(2) -0.79139(17)
N4A N 2.1548(2) 2.0529(2) 0.72511(17)
N4_2 N 2.8452(2) 0.9471(2) 0.27489(17)
N5A N 1.9426(3) 1.8769(3) 0.5908(2)
N6A N 2.0720(2) 1.8869(2) 0.56235(18)
O2_2 O 1.77971(16) 0.61699(18) 0.15672(15)
O2_3 O 2.77971(16) 0.61699(18) 0.15672(15)
O3_2 O 1.96759(18) 0.80119(18) 0.10708(16)
O4_2 O 2.4855(2) 0.8476(3) 0.1918(3)
Zn1_2 Zn 2.71275(3) 0.76679(3) 0.13985(2)
Zn1_3 Zn 0.71275(3) 0.76679(3) 0.13985(2)
Zn1A Zn 2.28725(3) 2.23321(3) 0.86015(2)
Zn1A_2 Zn 1.28725(3) 0.23321(3) -1.13985(2)
O5 O 0.4118(7) 0.9863(6) 0.3834(6)
H17 H 0.426(16) 0.921(11) 0.406(11)
H18 H 0.492(5) 1.019(9) 0.436(5)
O6 O 0.6282(8) 0.1029(6) 0.0898(7)
loop_
_geom_bond_atom_site_label_1
_geom_bond_atom_site_label_2
_geom_bond_site_symmetry_1
_geom_bond_site_symmetry_2
O1 C1 1_555 1_555
C1 C2 1_555 1_555
C2 C3 1_555 1_555
C3 H1 1_555 1_555
C4 C5 1_555 1_555
C5 C6 1_555 1_555
C6 H2 1_555 1_555
C7 C3 1_555 1_555
H3 C7 1_555 1_555
C8 C2 1_555 1_555
H4 C8 1_555 1_555
C9 H5 1_555 1_555
C10 H6 1_555 1_555
C11 H7 1_555 1_555
H8 C11 1_555 1_555
C12 C11 1_555 1_555
C13 C12 1_555 1_555
C14 C12 1_555 1_555
C15 H9 1_555 1_555
C16 H10 1_555 1_555
C17 H11 1_555 1_555
H12 C17 1_555 1_555
C18 C17 1_555 1_555
C19 C18 1_555 1_555
H13 C19 1_555 1_555
C20 C18 1_555 1_555
H14 C20 1_555 1_555
H15 C13 1_555 1_555
H16 C14 1_555 1_555
N1 C15 1_555 1_555
N2 C16 1_555 1_555
N3 C15 1_555 1_555
N4 C9 1_555 1_555
N5 C10 1_555 1_555
N6 C9 1_555 1_555
O2 C4 1_555 1_555
O3 C4 1_555 1_555
O4 C1 1_555 1_555
Zn1 O1 1_555 1_555
O5 H17 1_555 1_555
H18 O5 1_555 1_555
O1_2 C1_2 1_555 1_555
C1_2 C2_2 1_555 1_555
C2_2 C3_2 1_555 1_555
C3_2 H1_2 1_555 1_555
C4_2 C5_2 1_555 1_555
C5_2 C6_2 1_555 1_555
C6_2 H2_2 1_555 1_555
C7_2 C3_2 1_555 1_555
H3_2 C7_2 1_555 1_555
C8_2 C2_2 1_555 1_555
H4_2 C8_2 1_555 1_555
C9A H5A 1_555 1_555
C10A H6A 1_555 1_555
C11A H7A 1_555 1_555
H8A C11A 1_555 1_555
C12A C11A 1_555 1_555
C13A C14 1_555 1_555
C14A C13 1_555 1_555
C15A H9A 1_555 1_555
C16A H10A 1_555 1_555
C17A H11A 1_555 1_555
H12A C17A 1_555 1_555
C18A C17A 1_555 1_555
C19A C20 1_555 1_555
H13A C19A 1_555 1_555
C20A C19 1_555 1_555
H14A C20A 1_555 1_555
H15A C13A 1_555 1_555
H16A C14A 1_555 1_555
N1A C15A 1_555 1_555
N1_2 Zn1_2 1_555 1_555
N2A C16A 1_555 1_555
N3A C15A 1_555 1_555
N4A C9A 1_555 1_555
N4_2 Zn1_2 1_555 1_555
N5A C10A 1_555 1_555
N6A C9A 1_555 1_555
O2_2 Zn1 1_555 1_555
O2_3 Zn1_2 1_555 1_555
O3_2 C4_2 1_555 1_555
O4_2 C1_2 1_555 1_555
Zn1_2 O1_2 1_555 1_555
Zn1_3 O2 1_555 1_555
Zn1A N4A 1_555 1_555
Zn1A_2 N1A 1_555 1_555
C5 C8 1_555 1_555
C6 C7 1_555 1_555
C10 N4 1_555 1_555
C11 N6 1_555 1_555
C16 N1 1_555 1_555
C17 N3 1_555 1_555
N1 Zn1 1_555 1_555
N2 N3 1_555 1_555
N4 Zn1 1_555 1_555
N5 N6 1_555 1_555
C4_2 O2_2 1_555 1_555
C5_2 C8_2 1_555 1_555
C6_2 C7_2 1_555 1_555
C10A N4A 1_555 1_555
C11A N6A 1_555 1_555
C12A C13A 1_555 1_555
C12A C14A 1_555 1_555
C16A N1A 1_555 1_555
C17A N3A 1_555 1_555
C18A C19A 1_555 1_555
C18A C20A 1_555 1_555
N2A N3A 1_555 1_555
N5A N6A 1_555 1_555

#END
