
#######################################################################
#
#                 Cambridge Crystallographic Data Centre
#                                CCDC 
#
#######################################################################
#
# If this CIF has been generated from an entry in the Cambridge 
# Structural Database, then it will include bibliographic, chemical, 
# crystal, experimental, refinement or atomic coordinate data resulting 
# from the CCDC's data processing and validation procedures.
#
#######################################################################

data_KESNON
_symmetry_cell_setting           monoclinic
_symmetry_space_group_name_H-M   'P 21/c'
_symmetry_Int_Tables_number      14
_space_group_name_Hall           '-P 2ybc'
loop_
_symmetry_equiv_pos_site_id
_symmetry_equiv_pos_as_xyz
1 x,y,z
2 -x,1/2+y,1/2-z
3 -x,-y,-z
4 x,1/2-y,1/2+z
_cell_length_a                   15.369(2)
_cell_length_b                   7.4345(11)
_cell_length_c                   9.1435(13)
_cell_angle_alpha                90
_cell_angle_beta                 106.532(3)
_cell_angle_gamma                90
_cell_volume                     1001.56
loop_
_atom_site_label
_atom_site_type_symbol
_atom_site_fract_x
_atom_site_fract_y
_atom_site_fract_z
Ni1 Ni 0.62703(2) -0.00470(4) 0.35386(4)
O1 O 0.50576(15) -0.0371(3) 0.1945(2)
H1 H 0.4646 -0.1113 0.1944
H2 H 0.4766 0.0527 0.1511
O2 O 0.58802(12) -0.2358(2) 0.4595(2)
H3 H 0.5392 -0.2130 0.4781
H4 H 0.6246 -0.2862 0.5338
O3 O 0.69398(13) -0.1247(3) 0.2195(2)
O4 O 0.58256(12) 0.1436(3) 0.5149(2)
O5 O 0.63087(14) 0.2481(3) 0.7523(2)
N1 N 0.74544(17) 0.0349(3) 0.5109(3)
C1 C 0.7756(2) -0.0697(4) 0.2156(3)
C2 C 0.8021(2) -0.0932(5) 0.0813(4)
H5 H 0.7621 -0.1483 -0.0025
C3 C 0.8849(3) -0.0371(5) 0.0709(4)
H6 H 0.8996 -0.0545 -0.0199
C4 C 0.9473(3) 0.0448(6) 0.1922(5)
H7 H 1.0034 0.0823 0.1842
C5 C 0.9236(2) 0.0689(5) 0.3245(4)
H8 H 0.9647 0.1245 0.4067
C6 C 0.8394(2) 0.0126(4) 0.3406(4)
C7 C 0.8215(2) 0.0516(4) 0.4838(3)
H9 H 0.8699 0.0926 0.5631
C8 C 0.7351(2) 0.0831(4) 0.6586(3)
H10 H 0.7826 0.1666 0.7092
H11 H 0.7409 -0.0237 0.7216
C9 C 0.64320(19) 0.1687(4) 0.6402(3)
Ni1C Ni 0.62703(2) 0.50470(4) 0.85386(4)
O5C O 0.63087(14) 0.2519(3) 0.2523(2)
loop_
_geom_bond_atom_site_label_1
_geom_bond_atom_site_label_2
_geom_bond_site_symmetry_1
_geom_bond_site_symmetry_2
Ni1 O1 1_555 1_555
O1 H1 1_555 1_555
H2 O1 1_555 1_555
O2 Ni1 1_555 1_555
H3 O2 1_555 1_555
H4 O2 1_555 1_555
O3 Ni1 1_555 1_555
O4 Ni1 1_555 1_555
O5 C9 1_555 1_555
N1 Ni1 1_555 1_555
C1 O3 1_555 1_555
C2 C1 1_555 1_555
H5 C2 1_555 1_555
C3 C2 1_555 1_555
H6 C3 1_555 1_555
C4 C3 1_555 1_555
H7 C4 1_555 1_555
C5 C4 1_555 1_555
H8 C5 1_555 1_555
C6 C1 1_555 1_555
C7 N1 1_555 1_555
H9 C7 1_555 1_555
C8 N1 1_555 1_555
H10 C8 1_555 1_555
H11 C8 1_555 1_555
C9 O4 1_555 1_555
Ni1C O5 1_555 1_555
O5C Ni1 1_555 1_555
C5 C6 1_555 1_555
C6 C7 1_555 1_555
C8 C9 1_555 1_555

#END
