
#######################################################################
#
#                 Cambridge Crystallographic Data Centre
#                                CCDC 
#
#######################################################################
#
# If this CIF has been generated from an entry in the Cambridge 
# Structural Database, then it will include bibliographic, chemical, 
# crystal, experimental, refinement or atomic coordinate data resulting 
# from the CCDC's data processing and validation procedures.
#
#######################################################################

data_KESNAZ
_symmetry_cell_setting           monoclinic
_symmetry_space_group_name_H-M   'P 21/n'
_symmetry_Int_Tables_number      14
_space_group_name_Hall           '-P 2yn'
loop_
_symmetry_equiv_pos_site_id
_symmetry_equiv_pos_as_xyz
1 x,y,z
2 1/2-x,1/2+y,1/2-z
3 -x,-y,-z
4 1/2+x,1/2-y,1/2+z
_cell_length_a                   9.6278(19)
_cell_length_b                   21.175(4)
_cell_length_c                   12.237(2)
_cell_angle_alpha                90
_cell_angle_beta                 94.92(3)
_cell_angle_gamma                90
_cell_volume                     2485.55
loop_
_atom_site_label
_atom_site_type_symbol
_atom_site_fract_x
_atom_site_fract_y
_atom_site_fract_z
Cd1 Cd 0.53572(2) 0.204758(10) 0.537898(19)
S1 S 0.65288(10) 0.11272(5) 0.93918(8)
S2 S 0.16024(11) 0.05777(5) 1.10577(9)
C1 C 0.0148(4) 0.09197(18) 1.0245(4)
H1 H -0.0702 0.0799 1.0563
H2 H 0.0111 0.0739 0.9515
N1 N 0.3120(3) 0.19700(13) 0.6003(3)
N2 N 0.3111(3) -0.00392(14) 0.6568(3)
H3 H 0.3637 0.0280 0.6741
H4 H 0.3475 -0.0406 0.6491
O1 O 0.5734(2) 0.09268(12) 0.6247(2)
N3 N 0.1656(2) 0.00384(12) 0.6408(2)
N4 N 0.2481(3) -0.18897(13) 0.5354(3)
N5 N -0.0441(3) 0.04321(14) 0.6462(3)
C2 C 0.1425(3) 0.12243(15) 0.6527(3)
O2 O 0.6249(3) 0.18074(12) 0.7155(2)
C3 C 0.1031(3) -0.11089(15) 0.6111(3)
C4 C 0.2189(3) -0.12901(15) 0.5597(3)
H5 H 0.2803 -0.0977 0.5408
C5 C 0.0886(3) 0.05770(15) 0.6491(3)
C6 C 0.2607(3) 0.13848(16) 0.6028(3)
H6 H 0.3076 0.1066 0.5688
C7 C 0.0713(3) -0.04454(15) 0.6306(3)
C8 C 0.6826(4) 0.08297(17) 0.8052(3)
H7 H 0.7824 0.0800 0.8004
H8 H 0.6449 0.0405 0.7985
C9 C 0.6208(3) 0.12154(15) 0.7092(3)
C10 C 0.0102(4) -0.15795(18) 0.6363(3)
H9 H -0.0697 -0.1479 0.6704
N6 N -0.0556(3) -0.02120(14) 0.6331(3)
C11 C 0.0714(4) 0.17050(18) 0.7007(3)
H10 H -0.0093 0.1619 0.7346
C12 C 0.1576(4) -0.23337(17) 0.5607(4)
H11 H 0.1763 -0.2752 0.5442
C13 C 0.2417(4) 0.24293(17) 0.6466(4)
H12 H 0.2749 0.2841 0.6441
C14 C 0.1224(5) 0.2316(2) 0.6975(4)
H13 H 0.0764 0.2646 0.7294
C15 C 0.0382(5) -0.2200(2) 0.6100(4)
H14 H -0.0229 -0.2521 0.6255
O3 O -0.0537(4) 0.18827(19) 0.9393(3)
O4 O 0.0883(5) 0.19408(14) 1.0844(3)
C16 C 0.0172(4) 0.16298(17) 1.0143(3)
O5 O 0.4547(3) 0.14657(12) 0.3881(2)
N7 N 0.4185(3) 0.08807(15) 1.0401(3)
C17 C 0.4837(4) 0.08630(18) 0.9447(3)
N8 N 0.4801(5) 0.1096(3) 1.1368(4)
H15 H 0.5647 0.1231 1.1407
H16 H 0.4347 0.1097 1.1944
N9 N 0.3992(4) 0.0629(2) 0.8660(3)
C18 C 0.2865(4) 0.06462(18) 1.0119(3)
N10 N 0.2728(4) 0.0487(3) 0.9103(3)
Cd1B Cd 0.46428(2) -0.204758(10) 0.462102(19)
Cd1C Cd 0.03572(2) 0.295242(10) 1.037898(19)
N4B N 0.7519(3) 0.18897(13) 0.4646(3)
O4C O 0.5883(5) 0.30592(14) 0.5844(3)
O6 O 0.6536(3) -0.02864(12) 0.5853(2)
O7 O 0.2897(4) 0.21209(17) 0.2473(4)
loop_
_geom_bond_atom_site_label_1
_geom_bond_atom_site_label_2
_geom_bond_site_symmetry_1
_geom_bond_site_symmetry_2
Cd1 N1 1_555 1_555
S1 C8 1_555 1_555
S2 C1 1_555 1_555
C1 H1 1_555 1_555
H2 C1 1_555 1_555
N1 C6 1_555 1_555
N2 H3 1_555 1_555
H4 N2 1_555 1_555
O1 C9 1_555 1_555
N3 N2 1_555 1_555
N4 C4 1_555 1_555
N5 C5 1_555 1_555
C2 C5 1_555 1_555
O2 Cd1 1_555 1_555
C3 C4 1_555 1_555
C4 H5 1_555 1_555
C5 N3 1_555 1_555
C6 C2 1_555 1_555
H6 C6 1_555 1_555
C7 N3 1_555 1_555
C8 H7 1_555 1_555
H8 C8 1_555 1_555
C9 O2 1_555 1_555
C10 C3 1_555 1_555
H9 C10 1_555 1_555
N6 N5 1_555 1_555
C11 C2 1_555 1_555
H10 C11 1_555 1_555
C12 N4 1_555 1_555
H11 C12 1_555 1_555
C13 N1 1_555 1_555
H12 C13 1_555 1_555
C14 C11 1_555 1_555
H13 C14 1_555 1_555
C15 C10 1_555 1_555
H14 C15 1_555 1_555
O3 C16 1_555 1_555
O4 C16 1_555 1_555
C16 C1 1_555 1_555
O5 Cd1 1_555 1_555
N7 C17 1_555 1_555
C17 S1 1_555 1_555
N8 N7 1_555 1_555
H15 N8 1_555 1_555
H16 N8 1_555 1_555
N9 C17 1_555 1_555
C18 S2 1_555 1_555
N10 N9 1_555 1_555
Cd1B N4 1_555 1_555
Cd1C O4 1_555 1_555
N4B Cd1 1_555 1_555
O4C Cd1 1_555 1_555
C3 C7 1_555 1_555
C7 N6 1_555 1_555
C8 C9 1_555 1_555
C12 C15 1_555 1_555
C13 C14 1_555 1_555
N7 C18 1_555 1_555
C18 N10 1_555 1_555

#END
