
#######################################################################
#
#                 Cambridge Crystallographic Data Centre
#                                CCDC 
#
#######################################################################
#
# If this CIF has been generated from an entry in the Cambridge 
# Structural Database, then it will include bibliographic, chemical, 
# crystal, experimental, refinement or atomic coordinate data resulting 
# from the CCDC's data processing and validation procedures.
#
#######################################################################

data_KESPIJ
_symmetry_cell_setting           triclinic
_symmetry_space_group_name_H-M   'P -1'
_symmetry_Int_Tables_number      2
_space_group_name_Hall           '-P 1'
loop_
_symmetry_equiv_pos_site_id
_symmetry_equiv_pos_as_xyz
1 x,y,z
2 -x,-y,-z
_cell_length_a                   9.233(2)
_cell_length_b                   10.865(3)
_cell_length_c                   12.803(3)
_cell_angle_alpha                65.329(3)
_cell_angle_beta                 82.373(3)
_cell_angle_gamma                67.156(3)
_cell_volume                     1074.91
loop_
_atom_site_label
_atom_site_type_symbol
_atom_site_fract_x
_atom_site_fract_y
_atom_site_fract_z
Zn1 Zn 0.92324(3) 0.83615(3) 0.74194(3)
O1 O 0.9340(3) 0.6775(2) 0.69755(18)
O2 O 1.0269(3) 0.8073(2) 0.54166(19)
O3 O 1.1183(2) 0.7127(2) 0.84830(19)
O4 O 1.2739(2) 0.8386(2) 0.76685(19)
O5 O 0.9907(2) 1.01059(19) 0.68378(17)
H1 H 1.0875 0.9625 0.7037
H2 H 0.9691 1.0700 0.6139
N1 N 0.6963(3) 0.9952(2) 0.63987(19)
N2 N 0.7544(3) 0.8399(2) 0.86372(19)
N3 N 0.7573(3) 0.7601(2) 0.9801(2)
N4 N 0.5128(2) 0.8970(2) 0.9164(2)
N5 N 0.3469(3) 0.9671(3) 0.9098(2)
H3 H 0.3101 0.9273 0.8754
H4 H 0.3163 0.9490 0.9827
N6 N 0.4079(3) 0.7904(3) 1.1473(2)
C1 C 0.5686(3) 1.0167(3) 0.7043(2)
C2 C 0.6785(4) 1.0751(3) 0.5264(3)
H5 H 0.7658 1.0612 0.4810
C3 C 0.5353(4) 1.1773(4) 0.4747(3)
H6 H 0.5259 1.2305 0.3955
C4 C 0.4075(4) 1.1994(4) 0.5411(3)
H7 H 0.3105 1.2691 0.5075
C5 C 0.4222(4) 1.1183(3) 0.6580(3)
H8 H 0.3360 1.1317 0.7045
C6 C 0.6073(3) 0.9218(3) 0.8270(2)
C7 C 0.6098(3) 0.7947(3) 1.0099(2)
C8 C 0.5580(3) 0.7254(3) 1.1266(2)
C9 C 0.3560(4) 0.7254(4) 1.2506(3)
H9 H 0.2520 0.7688 1.2668
C10 C 0.4494(4) 0.5976(4) 1.3336(3)
H10 H 0.4088 0.5548 1.4040
C11 C 0.6040(4) 0.5338(4) 1.3110(3)
H11 H 0.6692 0.4476 1.3664
C12 C 0.6612(4) 0.5976(3) 1.2068(3)
H12 H 0.7657 0.5569 1.1901
C13 C 0.9859(3) 0.7020(3) 0.5974(2)
C14 C 0.9955(3) 0.5958(3) 0.5476(2)
C15 C 1.0244(3) 0.6271(3) 0.4317(3)
H13 H 1.0407 0.7127 0.3854
C16 C 0.9708(3) 0.4680(3) 0.6151(2)
H14 H 0.9507 0.4462 0.6926
C17 C 1.2473(3) 0.7296(3) 0.8388(2)
C18 C 1.3781(3) 0.6098(3) 0.9226(2)
C19 C 1.3452(3) 0.5133(3) 1.0270(3)
H15 H 1.2417 0.5219 1.0450
C20 C 1.5332(3) 0.5952(3) 0.8965(2)
H16 H 1.5555 0.6590 0.8268
Zn1A Zn 1.07676(3) 0.16385(3) 0.25806(3)
Zn1A_2 Zn 2.07676(3) 0.16385(3) 1.25806(3)
O1A O 1.0660(3) 0.3225(2) 0.30245(18)
O2A O 0.9731(3) 0.1927(2) 0.45834(19)
O3A O 1.8817(2) 0.2873(2) 1.15170(19)
O3A_2 O 0.8817(2) 0.2873(2) 0.15170(19)
O4A O 1.7261(2) 0.1614(2) 1.23315(19)
O5A O 1.0093(2) -0.01059(19) 0.31622(17)
H1A H 0.9125 0.0375 0.2963
H2A H 1.0309 -0.0700 0.3861
N1A N 1.3037(3) 0.0048(2) 0.36013(19)
N2A N 1.2456(3) 0.1601(2) 0.13628(19)
N3A N 1.2427(3) 0.2399(2) 0.0199(2)
N4A N 1.4872(2) 0.1030(2) 0.0836(2)
N5A N 1.6531(3) 0.0329(3) 0.0902(2)
H3A H 1.6899 0.0727 0.1246
H4A H 1.6837 0.0510 0.0173
N6A N 1.5921(3) 0.2096(3) -0.1473(2)
C1A C 1.4314(3) -0.0167(3) 0.2957(2)
C2A C 1.3215(4) -0.0751(3) 0.4736(3)
H5A H 1.2342 -0.0612 0.5190
C3A C 1.4647(4) -0.1773(4) 0.5253(3)
H6A H 1.4741 -0.2305 0.6045
C4A C 1.5925(4) -0.1994(4) 0.4589(3)
H7A H 1.6895 -0.2691 0.4925
C5A C 1.5778(4) -0.1183(3) 0.3420(3)
H8A H 1.6640 -0.1317 0.2955
C6A C 1.3927(3) 0.0782(3) 0.1730(2)
C7A C 1.3902(3) 0.2053(3) -0.0099(2)
C8A C 1.4420(3) 0.2746(3) -0.1266(2)
C9A C 1.6440(4) 0.2746(4) -0.2506(3)
H9A H 1.7480 0.2312 -0.2668
C10A C 1.5506(4) 0.4024(4) -0.3336(3)
H10A H 1.5912 0.4452 -0.4040
C11A C 1.3960(4) 0.4662(4) -0.3110(3)
H11A H 1.3308 0.5524 -0.3664
C12A C 1.3388(4) 0.4024(3) -0.2068(3)
H12A H 1.2343 0.4431 -0.1901
C13A C 1.0141(3) 0.2980(3) 0.4026(2)
C14A C 1.0045(3) 0.4042(3) 0.4524(2)
C15A C 0.9756(3) 0.3729(3) 0.5683(3)
H13A H 0.9593 0.2873 0.6146
C16A C 1.0292(3) 0.5320(3) 0.3849(2)
H14A H 1.0493 0.5538 0.3074
C17A C 1.7527(3) 0.2704(3) 1.1612(2)
C18A C 1.6219(3) 0.3902(3) 1.0774(2)
C19A C 1.6548(3) 0.4867(3) 0.9730(3)
H15A H 1.7583 0.4781 0.9550
C20A C 1.4668(3) 0.4048(3) 1.1035(2)
H16A H 1.4445 0.3410 1.1732
O6 O 0.9833(15) 0.1765(14) 0.9268(11)
O7? O 0.987(3) 0.071(2) 1.008(2)
O8? O 0.987(3) 0.262(3) 0.891(2)
loop_
_geom_bond_atom_site_label_1
_geom_bond_atom_site_label_2
_geom_bond_site_symmetry_1
_geom_bond_site_symmetry_2
Zn1 O1 1_555 1_555
O1 C13 1_555 1_555
O2 C13 1_555 1_555
O3 Zn1 1_555 1_555
O4 C17 1_555 1_555
O5 Zn1 1_555 1_555
H1 O5 1_555 1_555
H2 O5 1_555 1_555
N1 Zn1 1_555 1_555
N2 Zn1 1_555 1_555
N3 N2 1_555 1_555
N4 N5 1_555 1_555
N5 H3 1_555 1_555
H4 N5 1_555 1_555
N6 C8 1_555 1_555
C1 N1 1_555 1_555
C2 N1 1_555 1_555
H5 C2 1_555 1_555
C3 C2 1_555 1_555
H6 C3 1_555 1_555
C4 C3 1_555 1_555
H7 C4 1_555 1_555
C5 C1 1_555 1_555
H8 C5 1_555 1_555
C6 N2 1_555 1_555
C7 N3 1_555 1_555
C8 C7 1_555 1_555
C9 N6 1_555 1_555
H9 C9 1_555 1_555
C10 C9 1_555 1_555
H10 C10 1_555 1_555
C11 C10 1_555 1_555
H11 C11 1_555 1_555
C12 C8 1_555 1_555
H12 C12 1_555 1_555
C13 C14 1_555 1_555
C14 C15 1_555 1_555
C15 H13 1_555 1_555
C16 C14 1_555 1_555
H14 C16 1_555 1_555
C17 O3 1_555 1_555
C18 C17 1_555 1_555
C19 C18 1_555 1_555
H15 C19 1_555 1_555
C20 C18 1_555 1_555
H16 C20 1_555 1_555
Zn1A O1A 1_555 1_555
Zn1A_2 O3A 1_555 1_555
O1A C13A 1_555 1_555
O2A C13A 1_555 1_555
O3A C17A 1_555 1_555
O3A_2 Zn1A 1_555 1_555
O4A C17A 1_555 1_555
O5A Zn1A 1_555 1_555
H1A O5A 1_555 1_555
H2A O5A 1_555 1_555
N1A Zn1A 1_555 1_555
N2A Zn1A 1_555 1_555
N3A N2A 1_555 1_555
N4A N5A 1_555 1_555
N5A H3A 1_555 1_555
H4A N5A 1_555 1_555
N6A C8A 1_555 1_555
C1A N1A 1_555 1_555
C2A N1A 1_555 1_555
H5A C2A 1_555 1_555
C3A C2A 1_555 1_555
H6A C3A 1_555 1_555
C4A C3A 1_555 1_555
H7A C4A 1_555 1_555
C5A C1A 1_555 1_555
H8A C5A 1_555 1_555
C6A N2A 1_555 1_555
C7A N3A 1_555 1_555
C8A C7A 1_555 1_555
C9A N6A 1_555 1_555
H9A C9A 1_555 1_555
C10A C9A 1_555 1_555
H10A C10A 1_555 1_555
C11A C10A 1_555 1_555
H11A C11A 1_555 1_555
C12A C8A 1_555 1_555
H12A C12A 1_555 1_555
C13A C14A 1_555 1_555
C14A C15A 1_555 1_555
C15A C16 1_555 1_555
H13A C15A 1_555 1_555
C16A C15 1_555 1_555
H14A C16A 1_555 1_555
C17A C18A 1_555 1_555
C18A C19A 1_555 1_555
C19A C20 1_555 1_555
H15A C19A 1_555 1_555
C20A C19 1_555 1_555
H16A C20A 1_555 1_555
N4 C6 1_555 1_555
N4 C7 1_555 1_555
C1 C6 1_555 1_555
C4 C5 1_555 1_555
C11 C12 1_555 1_555
N4A C6A 1_555 1_555
N4A C7A 1_555 1_555
C1A C6A 1_555 1_555
C4A C5A 1_555 1_555
C11A C12A 1_555 1_555
C14A C16A 1_555 1_555
C18A C20A 1_555 1_555

#END
