
#######################################################################
#
#                 Cambridge Crystallographic Data Centre
#                                CCDC 
#
#######################################################################
#
# If this CIF has been generated from an entry in the Cambridge 
# Structural Database, then it will include bibliographic, chemical, 
# crystal, experimental, refinement or atomic coordinate data resulting 
# from the CCDC's data processing and validation procedures.
#
#######################################################################

data_KESSEH
_symmetry_cell_setting           monoclinic
_symmetry_space_group_name_H-M   'C 2/m'
_symmetry_Int_Tables_number      12
_space_group_name_Hall           '-C 2y'
loop_
_symmetry_equiv_pos_site_id
_symmetry_equiv_pos_as_xyz
1 x,y,z
2 1/2+x,1/2+y,z
3 -x,y,-z
4 1/2-x,1/2+y,-z
5 -x,-y,-z
6 1/2-x,1/2-y,-z
7 x,-y,z
8 1/2+x,1/2-y,z
_cell_length_a                   16.072(2)
_cell_length_b                   13.100(2)
_cell_length_c                   8.4752(13)
_cell_angle_alpha                90
_cell_angle_beta                 94.335(3)
_cell_angle_gamma                90
_cell_volume                     1779.29
loop_
_atom_site_label
_atom_site_type_symbol
_atom_site_fract_x
_atom_site_fract_y
_atom_site_fract_z
C8 C 0.5000 0.0537(4) 0.0000
C9 C 0.4394(16) 0.0000 0.073(4)
C10 C 0.4481(19) 0.1080(9) 0.087(3)
C11 C 0.5000 0.168(2) 0.0000
C12 C 0.4026(15) -0.0535(4) 0.191(2)
C8F C 0.5000 -0.0537(4) 0.0000
C9D C 0.5606(16) 0.0000 -0.073(4)
C10F C 0.4481(19) -0.1080(9) 0.087(3)
C10B C 0.5519(19) 0.1080(9) -0.087(3)
C10D C 0.5519(19) -0.1080(9) -0.087(3)
C11F C 0.5000 -0.168(2) 0.0000
C12F C 0.4026(15) 0.0535(4) 0.191(2)
C12D C 0.5974(15) 0.0535(4) -0.191(2)
C12B C 0.5974(15) -0.0535(4) -0.191(2)
I1 I 0.59934(3) -0.5000 -0.18217(6)
Cu1 Cu 0.56237(6) -0.5000 0.11470(12)
N1 N 0.6109(3) -0.3702(3) 0.2202(5)
C1 C 0.6751(4) -0.3191(5) 0.1679(8)
H1 H 0.6990 -0.3438 0.0789
C2 C 0.7082(4) -0.2313(5) 0.2388(8)
H2 H 0.7533 -0.1991 0.1974
C3 C 0.6751(3) -0.1919(4) 0.3685(7)
C4 C 0.6107(4) -0.2460(5) 0.4257(8)
H3 H 0.5869 -0.2238 0.5163
C5 C 0.5812(4) -0.3336(5) 0.3490(8)
H4 H 0.5376 -0.3687 0.3911
C6 C 0.7065(4) -0.0955(4) 0.4468(8)
H5 H 0.7667 -0.0932 0.4452
H6 H 0.6933 -0.0965 0.5566
C7 C 0.6700(6) 0.0000 0.3691(11)
H7 H 0.6809 0.0000 0.2581
H8 H 0.6100 0.0000 0.3756
I1D I 0.40066(3) -0.5000 0.18217(6)
Cu1D Cu 0.43763(6) -0.5000 -0.11470(12)
Cu1_2 Cu 0.56237(6) 0.5000 0.11470(12)
Cu1_3 Cu 0.56237(6) -1.5000 0.11470(12)
N1F N 0.6109(3) 0.3702(3) 0.2202(5)
N1F_2 N 0.6109(3) -0.6298(3) 0.2202(5)
N1_2 N 0.6109(3) -1.3702(3) 0.2202(5)
N1D N 0.3891(3) -0.6298(3) -0.2202(5)
N1B N 0.3891(3) -0.3702(3) -0.2202(5)
C1F C 0.6751(4) 0.3191(5) 0.1679(8)
C1F_2 C 0.6751(4) -0.6809(5) 0.1679(8)
C1_2 C 0.6751(4) -1.3191(5) 0.1679(8)
H1F H 0.6990 0.3438 0.0789
H1F_2 H 0.6990 -0.6562 0.0789
H1_2 H 0.6990 -1.3438 0.0789
C2F C 0.7082(4) 0.2313(5) 0.2388(8)
C2F_2 C 0.7082(4) -0.7687(5) 0.2388(8)
C2_2 C 0.7082(4) -1.2313(5) 0.2388(8)
H2F H 0.7533 0.1991 0.1974
H2F_2 H 0.7533 -0.8009 0.1974
H2_2 H 0.7533 -1.1991 0.1974
C3F C 0.6751(3) 0.1919(4) 0.3685(7)
C3F_2 C 0.6751(3) -0.8081(4) 0.3685(7)
C3_2 C 0.6751(3) -1.1919(4) 0.3685(7)
C4F C 0.6107(4) 0.2460(5) 0.4257(8)
C4F_2 C 0.6107(4) -0.7540(5) 0.4257(8)
C4_2 C 0.6107(4) -1.2460(5) 0.4257(8)
H3F H 0.5869 0.2238 0.5163
H3F_2 H 0.5869 -0.7762 0.5163
H3_2 H 0.5869 -1.2238 0.5163
C5F C 0.5812(4) 0.3336(5) 0.3490(8)
C5F_2 C 0.5812(4) -0.6664(5) 0.3490(8)
C5_2 C 0.5812(4) -1.3336(5) 0.3490(8)
H4F H 0.5376 0.3687 0.3911
H4F_2 H 0.5376 -0.6313 0.3911
H4_2 H 0.5376 -1.3687 0.3911
C6F C 0.7065(4) 0.0955(4) 0.4468(8)
C6F_2 C 0.7065(4) -0.9045(4) 0.4468(8)
C6_2 C 0.7065(4) -1.0955(4) 0.4468(8)
H5F H 0.7667 0.0932 0.4452
H5F_2 H 0.7667 -0.9068 0.4452
H5_2 H 0.7667 -1.0932 0.4452
H6F H 0.6933 0.0965 0.5566
H6F_2 H 0.6933 -0.9035 0.5566
H6_2 H 0.6933 -1.0965 0.5566
C7_2 C 0.6700(6) -1.0000 0.3691(11)
H7_2 H 0.6809 -1.0000 0.2581
H8_2 H 0.6100 -1.0000 0.3756
loop_
_geom_bond_atom_site_label_1
_geom_bond_atom_site_label_2
_geom_bond_site_symmetry_1
_geom_bond_site_symmetry_2
I1 Cu1 1_555 1_555
Cu1 N1 1_555 1_555
N1 C1 1_555 1_555
C1 H1 1_555 1_555
C2 C1 1_555 1_555
H2 C2 1_555 1_555
C3 C2 1_555 1_555
C4 C3 1_555 1_555
H3 C4 1_555 1_555
C5 N1 1_555 1_555
H4 C5 1_555 1_555
C6 C3 1_555 1_555
H5 C6 1_555 1_555
H6 C6 1_555 1_555
C7 C6 1_555 1_555
H7 C7 1_555 1_555
H8 C7 1_555 1_555
C8 C9 1_555 1_555
C9 C10 1_555 1_555
C10 C8 1_555 1_555
C11 C8 1_555 1_555
C12 C9 1_555 1_555
I1D Cu1 1_555 1_555
Cu1D I1 1_555 1_555
Cu1_2 N1F 1_555 1_555
Cu1_3 N1_2 1_555 1_555
N1F C1F 1_555 1_555
N1F_2 Cu1 1_555 1_555
N1_2 C1_2 1_555 1_555
N1D Cu1D 1_555 1_555
N1B Cu1D 1_555 1_555
C1F H1F 1_555 1_555
C1F_2 N1F_2 1_555 1_555
C1_2 H1_2 1_555 1_555
H1F_2 C1F_2 1_555 1_555
C2F C1F 1_555 1_555
C2F_2 C1F_2 1_555 1_555
C2_2 C1_2 1_555 1_555
H2F C2F 1_555 1_555
H2F_2 C2F_2 1_555 1_555
H2_2 C2_2 1_555 1_555
C3F C2F 1_555 1_555
C3F_2 C2F_2 1_555 1_555
C3_2 C2_2 1_555 1_555
C4F C3F 1_555 1_555
C4F_2 C3F_2 1_555 1_555
C4_2 C3_2 1_555 1_555
H3F C4F 1_555 1_555
H3F_2 C4F_2 1_555 1_555
H3_2 C4_2 1_555 1_555
C5F N1F 1_555 1_555
C5F_2 N1F_2 1_555 1_555
C5_2 N1_2 1_555 1_555
H4F C5F 1_555 1_555
H4F_2 C5F_2 1_555 1_555
H4_2 C5_2 1_555 1_555
C6F C7 1_555 1_555
C6F_2 C3F_2 1_555 1_555
C6_2 C3_2 1_555 1_555
H5F C6F 1_555 1_555
H5F_2 C6F_2 1_555 1_555
H5_2 C6_2 1_555 1_555
H6F C6F 1_555 1_555
H6F_2 C6F_2 1_555 1_555
H6_2 C6_2 1_555 1_555
C7_2 C6F_2 1_555 1_555
H7_2 C7_2 1_555 1_555
H8_2 C7_2 1_555 1_555
C8F C8 1_555 1_555
C9D C8 1_555 1_555
C10F C9 1_555 1_555
C10B C8 1_555 1_555
C10D C8F 1_555 1_555
C11F C8F 1_555 1_555
C12F C9 1_555 1_555
C12D C9D 1_555 1_555
C12B C9D 1_555 1_555
C4 C5 1_555 1_555
C9 C8F 1_555 1_555
C10 C11 1_555 1_555
C10 C12F 1_555 1_555
C11 C10B 1_555 1_555
C12 C10F 1_555 1_555
C12 C12F 1_555 1_555
I1D Cu1D 1_555 1_555
C3F C6F 1_555 1_555
C4F C5F 1_555 1_555
C4F_2 C5F_2 1_555 1_555
C4_2 C5_2 1_555 1_555
C6_2 C7_2 1_555 1_555
C8F C9D 1_555 1_555
C8F C10F 1_555 1_555
C9D C10B 1_555 1_555
C9D C10D 1_555 1_555
C10F C11F 1_555 1_555
C10B C12D 1_555 1_555
C10D C11F 1_555 1_555
C10D C12B 1_555 1_555
C12D C12B 1_555 1_555

#END
