
#######################################################################
#
#                 Cambridge Crystallographic Data Centre
#                                CCDC 
#
#######################################################################
#
# If this CIF has been generated from an entry in the Cambridge 
# Structural Database, then it will include bibliographic, chemical, 
# crystal, experimental, refinement or atomic coordinate data resulting 
# from the CCDC's data processing and validation procedures.
#
#######################################################################

data_KESYAK
_symmetry_cell_setting           triclinic
_symmetry_space_group_name_H-M   'P -1'
_symmetry_Int_Tables_number      2
_space_group_name_Hall           '-P 1'
loop_
_symmetry_equiv_pos_site_id
_symmetry_equiv_pos_as_xyz
1 x,y,z
2 -x,-y,-z
_cell_length_a                   10.175(2)
_cell_length_b                   10.743(2)
_cell_length_c                   12.904(3)
_cell_angle_alpha                103.73(3)
_cell_angle_beta                 96.37(3)
_cell_angle_gamma                98.82(3)
_cell_volume                     1337.98
loop_
_atom_site_label
_atom_site_type_symbol
_atom_site_fract_x
_atom_site_fract_y
_atom_site_fract_z
Zn1 Zn 1.40612(3) 1.11911(4) 0.35226(3)
Zn2 Zn 1.0000 0.5000 0.5000
N1 N 1.3959(3) 1.1443(3) 0.2025(2)
N2 N 1.4044(4) 1.2196(3) 0.0576(3)
H1 H 1.4158 1.2743 0.0188
N3 N 1.5246(4) 1.4762(3) 0.1839(3)
N4 N 1.6444(5) 1.4703(5) 0.1500(4)
N5 N 1.5645(7) 1.6285(4) 0.1061(4)
N6 N 1.6676(6) 1.5619(5) 0.1031(4)
O1 O 1.2401(2) 0.9982(2) 0.3582(2)
O2 O 1.1639(2) 1.1768(2) 0.3495(2)
O3 O 0.9518(3) 0.6288(3) 0.4158(2)
O4 O 0.7309(2) 0.6179(2) 0.4163(2)
O5 O 0.5370(2) 1.0021(2) 0.3638(2)
O6 O 0.6716(2) 1.1797(2) 0.3561(2)
O7 O 1.4511(2) 1.2816(2) 0.4697(2)
H2 H 1.3882 1.2855 0.5078
H3 H 1.5095 1.2762 0.5201
O8 O 1.0244(3) 0.3724(3) 0.3526(2)
H4 H 1.0687 0.4064 0.3109
H5 H 1.0727 0.3160 0.3592
O9 O 0.7959(3) 0.4142(2) 0.4855(2)
H6 H 0.7592 0.3405 0.4435
H7 H 0.7575 0.4718 0.4663
C1 C 1.3562(3) 1.0395(3) 0.1111(3)
C2 C 1.3177(4) 0.9072(4) 0.1016(3)
H10 H 1.3140 0.8747 0.1621
C3 C 1.2852(5) 0.8259(4) -0.0016(4)
H11 H 1.2587 0.7368 -0.0106
C4 C 1.2909(5) 0.8736(5) -0.0927(4)
H12 H 1.2686 0.8157 -0.1609
C5 C 1.3290(4) 1.0049(5) -0.0838(3)
H13 H 1.3323 1.0374 -0.1443
C6 C 1.3620(4) 1.0859(4) 0.0196(3)
C7 C 1.4246(4) 1.2485(4) 0.1666(3)
C8 C 1.4692(6) 1.3818(4) 0.2394(4)
H14 H 1.3932 1.4101 0.2711
H15 H 1.5370 1.3792 0.2976
C9 C 1.4784(7) 1.5741(5) 0.1568(4)
H16 H 1.3977 1.5998 0.1715
C10 C 1.0057(3) 0.9930(3) 0.3592(3)
C11 C 0.9870(3) 0.8683(3) 0.3734(3)
H17 H 1.0601 0.8265 0.3779
C12 C 0.8594(3) 0.8044(3) 0.3809(3)
C13 C 0.7509(3) 0.8665(3) 0.3731(3)
H18 H 0.6652 0.8232 0.3755
C14 C 0.7689(3) 0.9931(3) 0.3617(3)
C15 C 0.8962(3) 1.0560(3) 0.3545(3)
H19 H 0.9083 1.1406 0.3464
C16 C 1.1441(3) 1.0615(3) 0.3547(3)
C17 C 0.8449(3) 0.6736(3) 0.4058(3)
C18 C 0.6521(3) 1.0643(3) 0.3610(3)
Zn1A Zn 0.59388(3) -0.11911(4) 0.64774(3)
Zn1_2 Zn 0.40612(3) 1.11911(4) 0.35226(3)
Zn1A_2 Zn 1.59388(3) -0.11911(4) 0.64774(3)
N1A N 0.6041(3) -0.1443(3) 0.7975(2)
N2A N 0.5956(4) -0.2196(3) 0.9424(3)
H1A H 0.5842 -0.2743 0.9812
N3A N 0.4754(4) -0.4762(3) 0.8161(3)
N4A N 0.3556(5) -0.4703(5) 0.8500(4)
N5A N 0.4355(7) -0.6285(4) 0.8939(4)
N6A N 0.3324(6) -0.5619(5) 0.8969(4)
O1A O 0.7599(2) 0.0018(2) 0.6418(2)
O2A O 0.8361(2) -0.1768(2) 0.6505(2)
O3A O 1.0482(3) 0.3712(3) 0.5842(2)
O4A O 1.2691(2) 0.3821(2) 0.5837(2)
O5A O 1.4630(2) -0.0021(2) 0.6362(2)
O5_2 O 1.5370(2) 1.0021(2) 0.3638(2)
O5A_2 O 0.4630(2) -0.0021(2) 0.6362(2)
O6A O 1.3284(2) -0.1797(2) 0.6439(2)
O7A O 0.5489(2) -0.2816(2) 0.5303(2)
H2A H 0.6118 -0.2855 0.4922
H3A H 0.4905 -0.2762 0.4799
O8A O 0.9756(3) 0.6276(3) 0.6474(2)
H4A H 0.9313 0.5936 0.6891
H5A H 0.9273 0.6840 0.6408
O9A O 1.2041(3) 0.5858(2) 0.5145(2)
H6A H 1.2408 0.6595 0.5565
H7A H 1.2425 0.5282 0.5337
C1A C 0.6438(3) -0.0395(3) 0.8889(3)
C2A C 0.6823(4) 0.0928(4) 0.8984(3)
H10A H 0.6860 0.1253 0.8379
C3A C 0.7148(5) 0.1741(4) 1.0016(4)
H11A H 0.7413 0.2632 1.0106
C4A C 0.7091(5) 0.1264(5) 1.0927(4)
H12A H 0.7314 0.1843 1.1609
C5A C 0.6710(4) -0.0049(5) 1.0838(3)
H13A H 0.6677 -0.0374 1.1443
C6A C 0.6380(4) -0.0859(4) 0.9804(3)
C7A C 0.5754(4) -0.2485(4) 0.8334(3)
C8A C 0.5308(6) -0.3818(4) 0.7606(4)
H14A H 0.6068 -0.4101 0.7289
H15A H 0.4630 -0.3792 0.7024
C9A C 0.5216(7) -0.5741(5) 0.8432(4)
H16A H 0.6023 -0.5998 0.8285
C10A C 0.9943(3) 0.0070(3) 0.6408(3)
C11A C 1.0130(3) 0.1317(3) 0.6266(3)
H17A H 0.9399 0.1735 0.6221
C12A C 1.1406(3) 0.1956(3) 0.6191(3)
C13A C 1.2491(3) 0.1335(3) 0.6269(3)
H18A H 1.3348 0.1768 0.6245
C14A C 1.2311(3) 0.0069(3) 0.6383(3)
C15A C 1.1038(3) -0.0560(3) 0.6455(3)
H19A H 1.0917 -0.1406 0.6536
C16A C 0.8559(3) -0.0615(3) 0.6453(3)
C17A C 1.1551(3) 0.3264(3) 0.5942(3)
C18A C 1.3479(3) -0.0643(3) 0.6390(3)
O10 O 0.6381(6) 0.2627(5) 0.6320(3)
H8 H 0.6780 0.3036 0.5933
H9 H 0.6702 0.1949 0.6347
C19 C 0.9385(14) 0.806(2) -0.0972(16)
H20 H 0.9676 0.8972 -0.0638
H21 H 0.8509 0.7910 -0.1391
H22 H 1.0011 0.7755 -0.1435
C20 C 0.9506(11) 0.7879(16) 0.1000(8)
H23 H 0.9413 0.7190 0.1358
H24 H 0.8841 0.8408 0.1173
H25 H 1.0389 0.8407 0.1235
C21 C 0.889(2) 0.6017(17) -0.0726(12)
H26 H 0.8852 0.5353 -0.0374
O11 O 0.8553(12) 0.5753(13) -0.1716(8)
N7 N 0.9324(10) 0.7337(17) -0.0130(8)
loop_
_geom_bond_atom_site_label_1
_geom_bond_atom_site_label_2
_geom_bond_site_symmetry_1
_geom_bond_site_symmetry_2
Zn1 N1 1_555 1_555
Zn2 O3 1_555 1_555
N1 C1 1_555 1_555
N2 H1 1_555 1_555
N3 N4 1_555 1_555
N4 N6 1_555 1_555
N5 N6 1_555 1_555
O1 Zn1 1_555 1_555
O2 C16 1_555 1_555
O3 C17 1_555 1_555
O4 C17 1_555 1_555
O5 C18 1_555 1_555
O6 C18 1_555 1_555
O7 Zn1 1_555 1_555
H2 O7 1_555 1_555
H3 O7 1_555 1_555
O8 Zn2 1_555 1_555
H4 O8 1_555 1_555
H5 O8 1_555 1_555
O9 Zn2 1_555 1_555
H6 O9 1_555 1_555
H7 O9 1_555 1_555
O10 H8 1_555 1_555
H9 O10 1_555 1_555
C1 C2 1_555 1_555
C2 H10 1_555 1_555
C3 C2 1_555 1_555
H11 C3 1_555 1_555
C4 C3 1_555 1_555
H12 C4 1_555 1_555
C5 C4 1_555 1_555
H13 C5 1_555 1_555
C6 N2 1_555 1_555
C7 N1 1_555 1_555
C8 N3 1_555 1_555
H14 C8 1_555 1_555
H15 C8 1_555 1_555
C9 N3 1_555 1_555
H16 C9 1_555 1_555
C10 C11 1_555 1_555
C11 H17 1_555 1_555
C12 C11 1_555 1_555
C13 C12 1_555 1_555
H18 C13 1_555 1_555
C14 C13 1_555 1_555
C15 C10 1_555 1_555
H19 C15 1_555 1_555
C16 O1 1_555 1_555
C17 C12 1_555 1_555
C18 C14 1_555 1_555
C19 H20 1_555 1_555
H21 C19 1_555 1_555
H22 C19 1_555 1_555
C20 H23 1_555 1_555
H24 C20 1_555 1_555
H25 C20 1_555 1_555
C21 H26 1_555 1_555
O11 C21 1_555 1_555
N7 C19 1_555 1_555
Zn1A N1A 1_555 1_555
Zn1_2 O5 1_555 1_555
Zn1A_2 O5A 1_555 1_555
N1A C1A 1_555 1_555
N2A H1A 1_555 1_555
N3A N4A 1_555 1_555
N4A N6A 1_555 1_555
N5A N6A 1_555 1_555
O1A Zn1A 1_555 1_555
O2A C16A 1_555 1_555
O3A Zn2 1_555 1_555
O4A C17A 1_555 1_555
O5A C18A 1_555 1_555
O5_2 Zn1 1_555 1_555
O5A_2 Zn1A 1_555 1_555
O6A C18A 1_555 1_555
O7A Zn1A 1_555 1_555
H2A O7A 1_555 1_555
H3A O7A 1_555 1_555
O8A Zn2 1_555 1_555
H4A O8A 1_555 1_555
H5A O8A 1_555 1_555
O9A Zn2 1_555 1_555
H6A O9A 1_555 1_555
H7A O9A 1_555 1_555
C1A C2A 1_555 1_555
C2A H10A 1_555 1_555
C3A C2A 1_555 1_555
H11A C3A 1_555 1_555
C4A C3A 1_555 1_555
H12A C4A 1_555 1_555
C5A C4A 1_555 1_555
H13A C5A 1_555 1_555
C6A N2A 1_555 1_555
C7A N1A 1_555 1_555
C8A N3A 1_555 1_555
H14A C8A 1_555 1_555
H15A C8A 1_555 1_555
C9A N3A 1_555 1_555
H16A C9A 1_555 1_555
C10A C11A 1_555 1_555
C11A H17A 1_555 1_555
C12A C11A 1_555 1_555
C13A C12A 1_555 1_555
H18A C13A 1_555 1_555
C14A C13A 1_555 1_555
C15A C10A 1_555 1_555
H19A C15A 1_555 1_555
C16A O1A 1_555 1_555
C17A O3A 1_555 1_555
C18A C14A 1_555 1_555
N2 C7 1_555 1_555
N5 C9 1_555 1_555
C1 C6 1_555 1_555
C5 C6 1_555 1_555
C7 C8 1_555 1_555
C10 C16 1_555 1_555
C14 C15 1_555 1_555
C20 N7 1_555 1_555
C21 N7 1_555 1_555
N2A C7A 1_555 1_555
N5A C9A 1_555 1_555
C1A C6A 1_555 1_555
C5A C6A 1_555 1_555
C7A C8A 1_555 1_555
C10A C16A 1_555 1_555
C12A C17A 1_555 1_555
C14A C15A 1_555 1_555

#END
