
#######################################################################
#
#                 Cambridge Crystallographic Data Centre
#                                CCDC 
#
#######################################################################
#
# If this CIF has been generated from an entry in the Cambridge 
# Structural Database, then it will include bibliographic, chemical, 
# crystal, experimental, refinement or atomic coordinate data resulting 
# from the CCDC's data processing and validation procedures.
#
#######################################################################

data_KETGEX
_symmetry_cell_setting           monoclinic
_symmetry_space_group_name_H-M   'C 2/c'
_symmetry_Int_Tables_number      15
_space_group_name_Hall           '-C 2yn'
loop_
_symmetry_equiv_pos_site_id
_symmetry_equiv_pos_as_xyz
1 x,y,z
2 -x,y,1/2-z
3 1/2+x,1/2+y,z
4 1/2-x,1/2+y,1/2-z
5 -x,-y,-z
6 x,-y,1/2+z
7 1/2-x,1/2-y,-z
8 1/2+x,1/2-y,1/2+z
_cell_length_a                   14.7597(6)
_cell_length_b                   11.4875(4)
_cell_length_c                   15.2916(6)
_cell_angle_alpha                90
_cell_angle_beta                 93.8340(10)
_cell_angle_gamma                90
_cell_volume                     2586.92
loop_
_atom_site_label
_atom_site_type_symbol
_atom_site_fract_x
_atom_site_fract_y
_atom_site_fract_z
C1 C 0.41854(15) 0.7943(2) 0.49067(17)
C2 C 0.37064(15) 0.72850(18) 0.42997(16)
C3 C 0.29646(14) 0.77712(17) 0.38414(14)
C4 C 0.39168(12) 0.90755(19) 0.50504(13)
F1 F 0.35095(6) 1.14061(9) 0.50245(7)
F2 F 0.25016(6) 1.11928(8) 0.39377(6)
O3 O 0.12655(7) 1.06796(11) 0.50603(7)
O4 O 0.23463(8) 1.06361(14) 0.61459(8)
C7 C 0.31679(10) 0.94986(13) 0.45565(10)
C8 C 0.28145(9) 1.07082(13) 0.47112(9)
N3 N 0.26911(9) 0.88689(12) 0.39552(9)
C9 C 0.20631(10) 1.06948(13) 0.53714(10)
H7 H 0.4214(17) 0.9552(18) 0.5447(16)
H8 H 0.2657(14) 0.7369(19) 0.3390(15)
H9 H 0.3850(16) 0.654(2) 0.4159(16)
H10 H 0.4701(19) 0.769(2) 0.5256(19)
Zn1 Zn 0.5000 0.459547(17) 0.2500
O1 O 0.35829(7) 0.46173(9) 0.24476(7)
N1 N 0.5000 0.64888(13) 0.2500
O2 O 0.50913(8) 0.45384(10) 0.38659(7)
N2 N 0.5000 1.26622(13) 0.2500
C5 C 0.5000 1.02167(15) 0.2500
C6 C 0.5000 0.89257(15) 0.2500
C10 C 0.57296(10) 1.20489(13) 0.23058(12)
C11 C 0.56602(9) 0.71015(12) 0.29364(10)
C12 C 0.57660(10) 1.08466(13) 0.23236(12)
C13 C 0.56944(9) 0.83027(11) 0.29431(10)
H1 H 0.6112(13) 0.6645(15) 0.3240(12)
H2 H 0.6206(13) 0.8673(15) 0.3263(12)
H3 H 0.3225(14) 0.4470(16) 0.2015(14)
H4 H 0.6259(13) 1.2489(17) 0.2147(14)
H5 H 0.3282(16) 0.4532(17) 0.2897(16)
H6 H 0.6303(16) 1.0472(18) 0.2154(16)
H11 H 0.4664(15) 0.4449(16) 0.4163(14)
H12 H 0.5455(15) 0.4862(19) 0.4122(14)
Zn1_2 Zn 0.5000 1.459547(17) 0.2500
O1A O 0.64171(7) 0.46173(9) 0.25524(7)
O2A O 0.49087(8) 0.45384(10) 0.11341(7)
N2_2 N 0.5000 0.26622(13) 0.2500
C10A C 0.42704(10) 1.20489(13) 0.26942(12)
C11A C 0.43398(9) 0.71015(12) 0.20636(10)
C12A C 0.42340(10) 1.08466(13) 0.26764(12)
C13A C 0.43056(9) 0.83027(11) 0.20569(10)
H1A H 0.3888(13) 0.6645(15) 0.1760(12)
H2A H 0.3794(13) 0.8673(15) 0.1737(12)
H3A H 0.6775(14) 0.4470(16) 0.2985(14)
H4A H 0.3741(13) 1.2489(17) 0.2853(14)
H5A H 0.6718(16) 0.4532(17) 0.2103(16)
H6A H 0.3697(16) 1.0472(18) 0.2846(16)
H11A H 0.5336(15) 0.4449(16) 0.0837(14)
H12A H 0.4545(15) 0.4862(19) 0.0878(14)
loop_
_geom_bond_atom_site_label_1
_geom_bond_atom_site_label_2
_geom_bond_site_symmetry_1
_geom_bond_site_symmetry_2
C1 C2 1_555 1_555
C2 C3 1_555 1_555
C3 N3 1_555 1_555
C4 C1 1_555 1_555
Zn1 O1 1_555 1_555
O1 H3 1_555 1_555
N1 Zn1 1_555 1_555
O2 Zn1 1_555 1_555
F1 C8 1_555 1_555
F2 C8 1_555 1_555
O3 C9 1_555 1_555
N2 C10 1_555 1_555
C5 C6 1_555 1_555
C6 C13 1_555 1_555
O4 C9 1_555 1_555
C7 C4 1_555 1_555
C8 C7 1_555 1_555
N3 C7 1_555 1_555
C9 C8 1_555 1_555
C10 C12 1_555 1_555
C11 N1 1_555 1_555
C12 C5 1_555 1_555
C13 C11 1_555 1_555
H1 C11 1_555 1_555
H2 C13 1_555 1_555
H4 C10 1_555 1_555
H5 O1 1_555 1_555
H6 C12 1_555 1_555
H7 C4 1_555 1_555
H8 C3 1_555 1_555
H9 C2 1_555 1_555
H10 C1 1_555 1_555
H11 O2 1_555 1_555
H12 O2 1_555 1_555
Zn1_2 N2 1_555 1_555
O1A Zn1 1_555 1_555
O2A Zn1 1_555 1_555
N2_2 Zn1 1_555 1_555
C10A N2 1_555 1_555
C11A N1 1_555 1_555
C12A C5 1_555 1_555
C13A C6 1_555 1_555
H1A C11A 1_555 1_555
H2A C13A 1_555 1_555
H3A O1A 1_555 1_555
H4A C10A 1_555 1_555
H5A O1A 1_555 1_555
H6A C12A 1_555 1_555
H11A O2A 1_555 1_555
H12A O2A 1_555 1_555
C10A C12A 1_555 1_555
C11A C13A 1_555 1_555

#END
