
#######################################################################
#
#                 Cambridge Crystallographic Data Centre
#                                CCDC 
#
#######################################################################
#
# If this CIF has been generated from an entry in the Cambridge 
# Structural Database, then it will include bibliographic, chemical, 
# crystal, experimental, refinement or atomic coordinate data resulting 
# from the CCDC's data processing and validation procedures.
#
#######################################################################

data_KETHEY01
_symmetry_cell_setting           monoclinic
_symmetry_space_group_name_H-M   'P 21/c'
_symmetry_Int_Tables_number      14
_space_group_name_Hall           '-P 2ybc'
loop_
_symmetry_equiv_pos_site_id
_symmetry_equiv_pos_as_xyz
1 x,y,z
2 -x,1/2+y,1/2-z
3 -x,-y,-z
4 x,1/2-y,1/2+z
_cell_length_a                   9.2420(18)
_cell_length_b                   18.201(4)
_cell_length_c                   9.7270(19)
_cell_angle_alpha                90
_cell_angle_beta                 105.11(3)
_cell_angle_gamma                90
_cell_volume                     1579.65
loop_
_atom_site_label
_atom_site_type_symbol
_atom_site_fract_x
_atom_site_fract_y
_atom_site_fract_z
Cd1 Cd 0.63363(2) 0.566274(11) 0.93828(2)
O1 O 0.4382(3) 0.59919(13) 0.7490(3)
O2 O 0.5773(3) 0.69438(15) 0.8389(3)
O3 O 0.2312(3) 0.95706(13) 0.4751(3)
O4 O 0.4685(3) 0.93897(12) 0.5921(3)
O5 O 0.7783(4) 0.5538(2) 0.7712(4)
N1 N -0.1739(3) 0.62755(15) 0.0916(3)
N2 N 0.7858(6) 0.5668(2) 0.5447(5)
C1 C -0.0402(4) 0.59464(18) 0.1419(4)
H1 H -0.0239 0.5491 0.1050
C2 C 0.0742(4) 0.62598(18) 0.2466(4)
H2 H 0.1652 0.6016 0.2785
C3 C 0.0530(3) 0.69397(16) 0.3041(3)
C4 C -0.0849(4) 0.72847(18) 0.2490(4)
H3 H -0.1039 0.7743 0.2830
C5 C -0.1930(4) 0.69401(19) 0.1434(4)
H4 H -0.2835 0.7182 0.1066
C6 C 0.1719(3) 0.72713(17) 0.4200(3)
C7 C 0.2632(3) 0.68329(15) 0.5249(3)
H5 H 0.2490 0.6327 0.5224
C8 C 0.3758(3) 0.71437(16) 0.6338(3)
C9 C 0.4004(3) 0.78966(16) 0.6342(3)
H6 H 0.4777 0.8104 0.7044
C10 C 0.3105(3) 0.83410(15) 0.5308(3)
C11 C 0.1941(3) 0.80326(16) 0.4259(3)
H7 H 0.1308 0.8334 0.3594
C12 C 0.4712(4) 0.66634(18) 0.7487(3)
C13 C 0.3368(4) 0.91525(16) 0.5318(3)
C14 C 0.7206(7) 0.5556(3) 0.6436(6)
H8 H 0.6176 0.5479 0.6149
C15 C 0.7089(11) 0.5676(5) 0.3948(10)
H9 H 0.7792 0.5782 0.3402
H10 H 0.6323 0.6046 0.3771
H11 H 0.6640 0.5204 0.3675
C16 C 0.9459(10) 0.5823(5) 0.5823(9)
H12 H 0.9779 0.5901 0.4971
H13 H 0.9995 0.5414 0.6338
H14 H 0.9658 0.6255 0.6407
Cd1_2 Cd -0.36637(2) 0.566274(11) -0.06172(2)
Cd1A Cd 0.36637(2) 1.066274(11) 0.56172(2)
Cd1C Cd 0.63363(2) 0.933726(11) 0.43828(2)
O3A O 0.7688(3) 0.45706(13) 1.0249(3)
O4A O 0.5315(3) 0.43897(12) 0.9079(3)
O4C O 0.4685(3) 0.56103(12) 1.0921(3)
N1_2 N 0.8261(3) 0.62755(15) 1.0916(3)
loop_
_geom_bond_atom_site_label_1
_geom_bond_atom_site_label_2
_geom_bond_site_symmetry_1
_geom_bond_site_symmetry_2
Cd1 O1 1_555 1_555
O1 C12 1_555 1_555
O2 Cd1 1_555 1_555
O3 C13 1_555 1_555
O4 C13 1_555 1_555
O5 Cd1 1_555 1_555
N1 C1 1_555 1_555
N2 C14 1_555 1_555
C1 H1 1_555 1_555
C2 C1 1_555 1_555
H2 C2 1_555 1_555
C3 C2 1_555 1_555
C4 C3 1_555 1_555
H3 C4 1_555 1_555
C5 N1 1_555 1_555
H4 C5 1_555 1_555
C6 C3 1_555 1_555
C7 C6 1_555 1_555
H5 C7 1_555 1_555
C8 C7 1_555 1_555
C9 C8 1_555 1_555
H6 C9 1_555 1_555
C10 C9 1_555 1_555
C11 C6 1_555 1_555
H7 C11 1_555 1_555
C12 O2 1_555 1_555
C13 C10 1_555 1_555
C14 O5 1_555 1_555
H8 C14 1_555 1_555
C15 N2 1_555 1_555
H9 C15 1_555 1_555
H10 C15 1_555 1_555
H11 C15 1_555 1_555
C16 N2 1_555 1_555
H12 C16 1_555 1_555
H13 C16 1_555 1_555
H14 C16 1_555 1_555
Cd1_2 N1 1_555 1_555
Cd1A O3 1_555 1_555
Cd1C O4 1_555 1_555
O3A Cd1 1_555 1_555
O4A Cd1 1_555 1_555
O4C Cd1 1_555 1_555
N1_2 Cd1 1_555 1_555
O4 Cd1A 1_555 1_555
C4 C5 1_555 1_555
C8 C12 1_555 1_555
C10 C11 1_555 1_555

#END
