
#######################################################################
#
#                 Cambridge Crystallographic Data Centre
#                                CCDC 
#
#######################################################################
#
# If this CIF has been generated from an entry in the Cambridge 
# Structural Database, then it will include bibliographic, chemical, 
# crystal, experimental, refinement or atomic coordinate data resulting 
# from the CCDC's data processing and validation procedures.
#
#######################################################################

data_KETKUP
_symmetry_cell_setting           monoclinic
_symmetry_space_group_name_H-M   'P 21/n'
_symmetry_Int_Tables_number      14
_space_group_name_Hall           '-P 2yn'
loop_
_symmetry_equiv_pos_site_id
_symmetry_equiv_pos_as_xyz
1 x,y,z
2 1/2-x,1/2+y,1/2-z
3 -x,-y,-z
4 1/2+x,1/2-y,1/2+z
_cell_length_a                   9.664(4)
_cell_length_b                   11.030(4)
_cell_length_c                   12.889(4)
_cell_angle_alpha                90
_cell_angle_beta                 108.61(3)
_cell_angle_gamma                90
_cell_volume                     1302.05
loop_
_atom_site_label
_atom_site_type_symbol
_atom_site_fract_x
_atom_site_fract_y
_atom_site_fract_z
U1 U -0.24577(6) 0.28407(6) -0.33406(4)
O1 O -0.381(1) 0.369(1) -0.3038(9)
O2 O -0.112(1) 0.198(1) -0.365(1)
O3 O -0.610(1) 0.216(1) -0.6464(8)
O4 O -0.432(1) 0.204(1) -0.4883(7)
O5 O -0.298(1) 0.397(1) -0.5163(8)
O6 O -0.325(1) 0.108(1) -0.2692(9)
O7 O -0.409(1) -0.045(1) -0.1975(9)
O8 O -0.681(2) -0.013(2) -0.313(1)
C1 C -0.491(2) 0.256(2) -0.578(1)
C2 C -0.425(2) 0.368(2) -0.606(1)
C3 C -0.196(2) 0.474(2) -0.548(2)
C4 C -0.234(2) 0.605(2) -0.547(2)
C5 C -0.427(2) 0.044(2) -0.260(1)
C6 C -0.582(2) 0.069(3) -0.334(2)
C7 C -0.811(3) -0.029(3) -0.391(2)
C8 C -0.900(3) -0.121(4) -0.367(2)
H1 H -0.4010 0.3581 -0.6717
H2 H -0.4948 0.4348 -0.6185
H3 H -0.1957 0.4523 -0.6205
H4 H -0.0982 0.4611 -0.4991
H5 H -0.3307 0.6191 -0.5961
H6 H -0.1678 0.6555 -0.5675
H7 H -0.2331 0.6280 -0.4746
H8 H -0.5851 0.0700 -0.4100
H9 H -0.6085 0.1536 -0.3203
H10 H -0.8672 0.0470 -0.4000
H11 H -0.8007 -0.0452 -0.4617
H12 H -0.9180 -0.1073 -0.2999
H13 H -0.9935 -0.1309 -0.4238
H14 H -0.8511 -0.1995 -0.3613
O7A O -0.091(1) 0.455(1) -0.3025(9)
O3C O -0.110(1) 0.284(1) -0.1464(8)
U1A U -0.25423(6) -0.21593(6) -0.16594(4)
U1C U -0.74577(6) 0.21593(6) -0.83406(4)
loop_
_geom_bond_atom_site_label_1
_geom_bond_atom_site_label_2
_geom_bond_site_symmetry_1
_geom_bond_site_symmetry_2
U1 O1 1_555 1_555
O2 U1 1_555 1_555
O3 C1 1_555 1_555
O4 U1 1_555 1_555
O5 U1 1_555 1_555
O6 U1 1_555 1_555
O7 C5 1_555 1_555
O8 C6 1_555 1_555
C1 O4 1_555 1_555
C2 O5 1_555 1_555
C3 O5 1_555 1_555
C4 C3 1_555 1_555
C5 O6 1_555 1_555
C6 C5 1_555 1_555
C7 O8 1_555 1_555
C8 C7 1_555 1_555
H1 C2 1_555 1_555
H2 C2 1_555 1_555
H3 C3 1_555 1_555
H4 C3 1_555 1_555
H5 C4 1_555 1_555
H6 C4 1_555 1_555
H7 C4 1_555 1_555
H8 C6 1_555 1_555
H9 C6 1_555 1_555
H10 C7 1_555 1_555
H11 C7 1_555 1_555
H12 C8 1_555 1_555
H13 C8 1_555 1_555
H14 C8 1_555 1_555
O7A U1 1_555 1_555
O3C U1 1_555 1_555
U1A O7 1_555 1_555
U1C O3 1_555 1_555
C1 C2 1_555 1_555

#END
