
#######################################################################
#
#                 Cambridge Crystallographic Data Centre
#                                CCDC 
#
#######################################################################
#
# If this CIF has been generated from an entry in the Cambridge 
# Structural Database, then it will include bibliographic, chemical, 
# crystal, experimental, refinement or atomic coordinate data resulting 
# from the CCDC's data processing and validation procedures.
#
#######################################################################

data_KETNUT
_symmetry_cell_setting           triclinic
_symmetry_space_group_name_H-M   'P -1'
_symmetry_Int_Tables_number      2
_space_group_name_Hall           '-P 1'
loop_
_symmetry_equiv_pos_site_id
_symmetry_equiv_pos_as_xyz
1 x,y,z
2 -x,-y,-z
_cell_length_a                   8.4530(17)
_cell_length_b                   9.870(2)
_cell_length_c                   15.051(3)
_cell_angle_alpha                83.04(3)
_cell_angle_beta                 79.49(3)
_cell_angle_gamma                88.40(3)
_cell_volume                     1225.53
loop_
_atom_site_label
_atom_site_type_symbol
_atom_site_fract_x
_atom_site_fract_y
_atom_site_fract_z
Hg1 Hg 0.23803(15) 1.07146(9) 0.31599(6)
Cu1 Cu 0.5000 0.5000 0.5000
S1 S 0.3054(12) 0.8854(8) 0.2175(5)
S2 S -0.0332(9) 1.1748(6) 0.3079(4)
S3 S 0.2486(11) 0.9679(7) 0.4750(4)
S4 S 0.4702(10) 0.2476(7) 0.2515(4)
N1 N 0.178(6) 0.978(4) 0.065(2)
N2 N 0.011(3) 1.2952(18) 0.1258(13)
N3 N 0.400(3) 0.723(2) 0.4321(15)
N4 N 0.502(3) 0.403(2) 0.3872(13)
N5 N 0.719(2) 0.5678(15) 0.4525(12)
N6 N 0.973(2) 0.5790(17) 0.3846(10)
C1 C 0.218(4) 0.946(3) 0.134(4)
C2 C -0.008(3) 1.242(2) 0.2013(14)
C3 C 0.337(3) 0.826(2) 0.4481(15)
C4 C 0.490(3) 0.335(3) 0.3366(16)
C5 C 0.838(3) 0.498(2) 0.4119(13)
H1 H 0.8327 0.4070 0.4026
C6 C 0.776(3) 0.697(2) 0.4488(15)
H2 H 0.7160 0.7695 0.4716
C7 C 0.933(4) 0.704(3) 0.4069(18)
H3 H 0.9986 0.7804 0.3960
C8 C 1.126(3) 0.537(2) 0.3343(16)
H4 H 1.2006 0.6112 0.3246
H5 H 1.1107 0.5124 0.2767
H6 H 1.1672 0.4601 0.3685
Hg1A Hg 0.76197(15) -0.07146(9) 0.68401(6)
Hg1_2 Hg 0.23803(15) 0.07146(9) 0.31599(6)
Hg1A_2 Hg 0.76197(15) 0.92854(9) 0.68401(6)
S1A S 0.6946(12) 0.1146(8) 0.7825(5)
S2A S 1.0332(9) -0.1748(6) 0.6921(4)
S3A S 0.7514(11) 0.0321(7) 0.5250(4)
S4A S 0.5298(10) 0.7524(7) 0.7485(4)
S4_2 S 0.4702(10) 1.2476(7) 0.2515(4)
S4A_2 S 0.5298(10) -0.2476(7) 0.7485(4)
N1A N 0.822(6) 0.022(4) 0.935(2)
N2A N 0.989(3) -0.2952(18) 0.8742(13)
N3A N 0.600(3) 0.277(2) 0.5679(15)
N4A N 0.498(3) 0.597(2) 0.6128(13)
N5A N 0.281(2) 0.4322(15) 0.5475(12)
N6A N 0.027(2) 0.4210(17) 0.6154(10)
C1A C 0.782(4) 0.054(3) 0.866(4)
C2A C 1.008(3) -0.242(2) 0.7987(14)
C3A C 0.663(3) 0.174(2) 0.5519(15)
C4A C 0.510(3) 0.665(3) 0.6634(16)
C5A C 0.162(3) 0.502(2) 0.5881(13)
H1A H 0.1673 0.5930 0.5974
C6A C 0.224(3) 0.303(2) 0.5512(15)
H2A H 0.2840 0.2305 0.5284
C7A C 0.067(4) 0.296(3) 0.5931(18)
H3A H 0.0014 0.2196 0.6040
C8A C -0.126(3) 0.463(2) 0.6657(16)
H4A H -0.2006 0.3888 0.6754
H5A H -0.1107 0.4876 0.7233
H6A H -0.1672 0.5399 0.6315
Cu2 Cu 1.0000 0.5000 0.0000
N7 N 0.793(2) 0.4288(16) -0.0203(11)
N8 N 0.578(3) 0.3049(16) -0.0148(12)
N9 N 0.880(2) 0.6095(18) 0.0983(12)
N10 N 0.799(3) 0.784(2) 0.1654(13)
C9 C 0.456(3) 0.197(3) 0.0169(17)
H7 H 0.4845 0.1394 0.0677
H8 H 0.4509 0.1432 -0.0316
H9 H 0.3526 0.2382 0.0351
C10 C 0.580(3) 0.406(2) -0.0852(15)
H10 H 0.5054 0.4196 -0.1239
C11 C 0.707(3) 0.478(3) -0.0877(15)
H11 H 0.7365 0.5543 -0.1297
C12 C 0.711(3) 0.323(2) 0.0207(15)
H12 H 0.7401 0.2663 0.0690
C13 C 0.774(4) 0.925(3) 0.189(2)
H13 H 0.8340 0.9869 0.1407
H14 H 0.8113 0.9324 0.2445
H15 H 0.6621 0.9482 0.1955
C14 C 0.729(3) 0.675(3) 0.2204(15)
H16 H 0.6588 0.6749 0.2757
C15 C 0.784(3) 0.564(3) 0.1776(14)
H17 H 0.7589 0.4734 0.1990
C16 C 0.891(4) 0.744(2) 0.0927(16)
H18 H 0.9530 0.8001 0.0459
N7A N 1.207(2) 0.5712(16) 0.0203(11)
N8A N 1.422(3) 0.6951(16) 0.0148(12)
N9A N 1.120(2) 0.3905(18) -0.0983(12)
N10A N 1.201(3) 0.216(2) -0.1654(13)
C9A C 1.544(3) 0.803(3) -0.0169(17)
H7A H 1.5155 0.8606 -0.0677
H8A H 1.5491 0.8568 0.0316
H9A H 1.6474 0.7618 -0.0351
C10A C 1.420(3) 0.594(2) 0.0852(15)
H10A H 1.4946 0.5804 0.1239
C11A C 1.293(3) 0.522(3) 0.0877(15)
H11A H 1.2635 0.4457 0.1297
C12A C 1.289(3) 0.677(2) -0.0207(15)
H12A H 1.2599 0.7337 -0.0690
C13A C 1.226(4) 0.075(3) -0.189(2)
H13A H 1.1660 0.0131 -0.1407
H14A H 1.1887 0.0676 -0.2445
H15A H 1.3379 0.0518 -0.1955
C14A C 1.271(3) 0.325(3) -0.2204(15)
H16A H 1.3412 0.3251 -0.2757
C15A C 1.216(3) 0.436(3) -0.1776(14)
H17A H 1.2411 0.5266 -0.1990
C16A C 1.109(4) 0.256(2) -0.0927(16)
H18A H 1.0470 0.1999 -0.0459
loop_
_geom_bond_atom_site_label_1
_geom_bond_atom_site_label_2
_geom_bond_site_symmetry_1
_geom_bond_site_symmetry_2
Hg1 S1 1_555 1_555
Cu1 N3 1_555 1_555
S1 C1 1_555 1_555
S2 Hg1 1_555 1_555
S3 Hg1 1_555 1_555
S4 C4 1_555 1_555
N1 C1 1_555 1_555
N2 C2 1_555 1_555
N3 C3 1_555 1_555
N4 Cu1 1_555 1_555
N5 Cu1 1_555 1_555
N6 C5 1_555 1_555
C2 S2 1_555 1_555
C3 S3 1_555 1_555
C4 N4 1_555 1_555
C5 N5 1_555 1_555
H1 C5 1_555 1_555
C6 N5 1_555 1_555
H2 C6 1_555 1_555
C7 N6 1_555 1_555
H3 C7 1_555 1_555
C8 N6 1_555 1_555
H4 C8 1_555 1_555
H5 C8 1_555 1_555
H6 C8 1_555 1_555
Cu2 N7 1_555 1_555
N7 C11 1_555 1_555
N8 C9 1_555 1_555
N9 Cu2 1_555 1_555
N10 C13 1_555 1_555
C9 H7 1_555 1_555
H8 C9 1_555 1_555
H9 C9 1_555 1_555
C10 N8 1_555 1_555
H10 C10 1_555 1_555
C11 C10 1_555 1_555
H11 C11 1_555 1_555
C12 N7 1_555 1_555
H12 C12 1_555 1_555
C13 H13 1_555 1_555
H14 C13 1_555 1_555
H15 C13 1_555 1_555
C14 N10 1_555 1_555
H16 C14 1_555 1_555
C15 N9 1_555 1_555
H17 C15 1_555 1_555
C16 N9 1_555 1_555
H18 C16 1_555 1_555
Hg1A S1A 1_555 1_555
Hg1_2 S4 1_555 1_555
Hg1A_2 S4A 1_555 1_555
S1A C1A 1_555 1_555
S2A Hg1A 1_555 1_555
S3A Hg1A 1_555 1_555
S4A C4A 1_555 1_555
S4_2 Hg1 1_555 1_555
S4A_2 Hg1A 1_555 1_555
N1A C1A 1_555 1_555
N2A C2A 1_555 1_555
N3A Cu1 1_555 1_555
N4A Cu1 1_555 1_555
N5A Cu1 1_555 1_555
N6A C5A 1_555 1_555
C2A S2A 1_555 1_555
C3A S3A 1_555 1_555
C4A N4A 1_555 1_555
C5A N5A 1_555 1_555
H1A C5A 1_555 1_555
C6A N5A 1_555 1_555
H2A C6A 1_555 1_555
C7A N6A 1_555 1_555
H3A C7A 1_555 1_555
C8A N6A 1_555 1_555
H4A C8A 1_555 1_555
H5A C8A 1_555 1_555
H6A C8A 1_555 1_555
N7A Cu2 1_555 1_555
N8A C9A 1_555 1_555
N9A Cu2 1_555 1_555
N10A C13A 1_555 1_555
C9A H7A 1_555 1_555
H8A C9A 1_555 1_555
H9A C9A 1_555 1_555
C10A N8A 1_555 1_555
H10A C10A 1_555 1_555
C11A N7A 1_555 1_555
H11A C11A 1_555 1_555
C12A N7A 1_555 1_555
H12A C12A 1_555 1_555
C13A H13A 1_555 1_555
H14A C13A 1_555 1_555
H15A C13A 1_555 1_555
C14A N10A 1_555 1_555
H16A C14A 1_555 1_555
C15A N9A 1_555 1_555
H17A C15A 1_555 1_555
C16A N9A 1_555 1_555
H18A C16A 1_555 1_555
C6 C7 1_555 1_555
N8 C12 1_555 1_555
N10 C16 1_555 1_555
C14 C15 1_555 1_555
N3A C3A 1_555 1_555
C6A C7A 1_555 1_555
N8A C12A 1_555 1_555
N10A C16A 1_555 1_555
C10A C11A 1_555 1_555
C14A C15A 1_555 1_555

#END
