
#######################################################################
#
#                 Cambridge Crystallographic Data Centre
#                                CCDC 
#
#######################################################################
#
# If this CIF has been generated from an entry in the Cambridge 
# Structural Database, then it will include bibliographic, chemical, 
# crystal, experimental, refinement or atomic coordinate data resulting 
# from the CCDC's data processing and validation procedures.
#
#######################################################################

data_KETPAC
_symmetry_cell_setting           monoclinic
_symmetry_space_group_name_H-M   'P 21/c'
_symmetry_Int_Tables_number      14
_space_group_name_Hall           '-P 2ybc'
loop_
_symmetry_equiv_pos_site_id
_symmetry_equiv_pos_as_xyz
1 x,y,z
2 -x,1/2+y,1/2-z
3 -x,-y,-z
4 x,1/2-y,1/2+z
_cell_length_a                   15.3005(8)
_cell_length_b                   12.6035(6)
_cell_length_c                   7.5670(4)
_cell_angle_alpha                90
_cell_angle_beta                 90.644(2)
_cell_angle_gamma                90
_cell_volume                     1459.13
loop_
_atom_site_label
_atom_site_type_symbol
_atom_site_fract_x
_atom_site_fract_y
_atom_site_fract_z
Zn1 Zn 0.224260(13) 0.048549(15) 0.06733(2)
N1 N 0.17635(10) -0.11042(11) 0.10185(18)
C1 C 0.09857(12) -0.13612(15) 0.1707(2)
H1 H 0.0604 -0.0807 0.2058
C2 C 0.07192(13) -0.24012(16) 0.1924(2)
H2 H 0.0166 -0.2558 0.2420
C3 C 0.12725(13) -0.32095(15) 0.1407(3)
C4 C 0.20815(13) -0.29568(15) 0.0681(2)
C5 C 0.23029(11) -0.18824(14) 0.0497(2)
C6 C 0.31313(11) -0.15345(14) -0.0330(2)
C7 C 0.37454(12) -0.22365(16) -0.1003(2)
H3 H 0.3665 -0.2981 -0.0899
C8 C 0.44823(13) -0.18264(18) -0.1835(3)
H4 H 0.4910 -0.2290 -0.2307
C9 C 0.45838(14) -0.07459(19) -0.1965(3)
H5 H 0.5076 -0.0451 -0.2540
C10 C 0.39483(13) -0.00916(17) -0.1234(2)
H6 H 0.4023 0.0655 -0.1303
N2 N 0.32374(11) -0.04727(11) -0.0438(2)
N3 N 0.30214(12) 0.18133(13) 0.0735(2)
C11 C 0.33536(13) 0.26177(14) 0.0473(2)
N4 N 0.38159(13) 0.34747(14) 0.0270(3)
C12 C 0.34806(13) 0.43086(15) -0.0512(3)
N5 N 0.32615(13) 0.50854(14) -0.1213(2)
N6 N 0.14389(12) 0.10267(13) 0.2650(2)
C13 C 0.12236(13) 0.11767(15) 0.4078(2)
N7 N 0.08966(15) 0.1384(2) 0.5617(2)
C14 C 0.12854(13) 0.11037(15) 0.7069(2)
N8 N 0.15483(12) 0.08785(14) 0.8442(2)
Zn1_2 Zn 0.224260(13) 0.048549(15) 1.06733(2)
N8_2 N 0.15483(12) 0.08785(14) -0.1558(2)
loop_
_geom_bond_atom_site_label_1
_geom_bond_atom_site_label_2
_geom_bond_site_symmetry_1
_geom_bond_site_symmetry_2
Zn1 N1 1_555 1_555
N1 C1 1_555 1_555
C1 H1 1_555 1_555
C2 C1 1_555 1_555
H2 C2 1_555 1_555
C3 C2 1_555 1_555
C4 C3 1_555 1_555
C5 N1 1_555 1_555
C6 C5 1_555 1_555
C7 C6 1_555 1_555
H3 C7 1_555 1_555
C8 C7 1_555 1_555
H4 C8 1_555 1_555
C9 C8 1_555 1_555
H5 C9 1_555 1_555
C10 C9 1_555 1_555
H6 C10 1_555 1_555
N2 Zn1 1_555 1_555
N3 Zn1 1_555 1_555
C11 N3 1_555 1_555
N4 C11 1_555 1_555
C12 N4 1_555 1_555
N5 C12 1_555 1_555
N6 Zn1 1_555 1_555
C13 N6 1_555 1_555
N7 C13 1_555 1_555
C14 N7 1_555 1_555
N8 C14 1_555 1_555
Zn1_2 N8 1_555 1_555
N8_2 Zn1 1_555 1_555
C4 C5 1_555 1_555
C6 N2 1_555 1_555
C10 N2 1_555 1_555

#END
