
#######################################################################
#
#                 Cambridge Crystallographic Data Centre
#                                CCDC 
#
#######################################################################
#
# If this CIF has been generated from an entry in the Cambridge 
# Structural Database, then it will include bibliographic, chemical, 
# crystal, experimental, refinement or atomic coordinate data resulting 
# from the CCDC's data processing and validation procedures.
#
#######################################################################

data_KEVWAK
_symmetry_cell_setting           monoclinic
_symmetry_space_group_name_H-M   'C 2/c'
_symmetry_Int_Tables_number      15
_space_group_name_Hall           '-C 2yn'
loop_
_symmetry_equiv_pos_site_id
_symmetry_equiv_pos_as_xyz
1 x,y,z
2 1/2+x,1/2+y,z
3 -x,y,1/2-z
4 1/2-x,1/2+y,1/2-z
5 -x,-y,-z
6 1/2-x,1/2-y,-z
7 x,-y,1/2+z
8 1/2+x,1/2-y,1/2+z
_cell_length_a                   12.284(3)
_cell_length_b                   11.609(3)
_cell_length_c                   26.995(4)
_cell_angle_alpha                90
_cell_angle_beta                 102.322(3)
_cell_angle_gamma                90
_cell_volume                     3760.94
loop_
_atom_site_label
_atom_site_type_symbol
_atom_site_fract_x
_atom_site_fract_y
_atom_site_fract_z
Cd1 Cd 1.0000 1.03466(8) 0.2500
N1 N 0.5313(5) 0.8470(7) -0.0087(3)
N2 N 1.0000 1.2257(7) 0.2500
N3 N 1.0000 1.8366(7) 0.2500
O1 O 0.9268(5) 1.0153(6) 0.1645(2)
O2 O 0.7993(5) 1.0070(5) 0.2105(2)
O3 O 0.9475(6) 0.9330(8) -0.1023(3)
H1 H 0.9908 0.9422 -0.1212
O4 O 0.8291(6) 0.9008(9) -0.1759(3)
C1 C 0.5927(6) 0.8793(8) 0.0377(3)
C2 C 0.5609(7) 0.8896(9) 0.0841(3)
H2 H 0.4891 0.8699 0.0870
C3 C 0.6374(7) 0.9293(8) 0.1260(3)
H3 H 0.6160 0.9383 0.1568
C4 C 0.7458(7) 0.9558(7) 0.1225(3)
C5 C 0.7775(7) 0.9439(7) 0.0763(3)
H4 H 0.8503 0.9614 0.0742
C6 C 0.7036(6) 0.9067(8) 0.0333(3)
C7 C 0.7066(6) 0.8887(7) -0.0188(3)
C8 C 0.7907(7) 0.9045(8) -0.0472(3)
H5 H 0.8619 0.9286 -0.0315
C9 C 0.7634(7) 0.8831(9) -0.0985(3)
C10 C 0.6582(8) 0.8428(10) -0.1217(4)
H6 H 0.6436 0.8267 -0.1562
C11 C 0.5754(7) 0.8260(10) -0.0955(4)
H7 H 0.5059 0.7977 -0.1115
C12 C 0.5997(6) 0.8530(8) -0.0434(3)
C13 C 0.4138(7) 0.8140(9) -0.0206(4)
H8 H 0.3803 0.8401 -0.0545
H9 H 0.3760 0.8525 0.0028
C14 C 0.3967(10) 0.6855(11) -0.0174(6)
H10 H 0.3183 0.6687 -0.0250
H11 H 0.4291 0.6591 0.0162
H12 H 0.4317 0.6470 -0.0413
C15 C 0.8277(7) 0.9959(7) 0.1685(3)
C16 C 0.8479(7) 0.9054(10) -0.1294(3)
C17 C 0.9196(7) 1.7751(6) 0.2633(3)
H13 H 0.8622 1.8152 0.2731
C18 C 0.9147(6) 1.6557(7) 0.2637(3)
H14 H 0.8552 1.6181 0.2729
C19 C 1.0000 1.5937(11) 0.2500
C20 C 0.9071(7) 1.2885(7) 0.2347(3)
H15 H 0.8407 1.2493 0.2225
C21 C 0.9033(6) 1.4055(7) 0.2357(3)
H16 H 0.8350 1.4431 0.2268
C22 C 1.0000 1.4690(11) 0.2500
Cd1_2 Cd 1.0000 2.03466(8) 0.2500
N1B N 1.4687(5) 0.8470(7) 0.5087(3)
N3_2 N 1.0000 0.8366(7) 0.2500
O1B O 1.0732(5) 1.0153(6) 0.3355(2)
O2B O 1.2007(5) 1.0070(5) 0.2895(2)
O3B O 1.0525(6) 0.9330(8) 0.6023(3)
H1B H 1.0092 0.9422 0.6212
O4B O 1.1709(6) 0.9008(9) 0.6759(3)
C1B C 1.4073(6) 0.8793(8) 0.4623(3)
C2B C 1.4391(7) 0.8896(9) 0.4159(3)
H2B H 1.5109 0.8699 0.4130
C3B C 1.3626(7) 0.9293(8) 0.3740(3)
H3B H 1.3840 0.9383 0.3432
C4B C 1.2542(7) 0.9558(7) 0.3775(3)
C5B C 1.2225(7) 0.9439(7) 0.4237(3)
H4B H 1.1497 0.9614 0.4258
C6B C 1.2964(6) 0.9067(8) 0.4667(3)
C7B C 1.2934(6) 0.8887(7) 0.5188(3)
C8B C 1.2093(7) 0.9045(8) 0.5472(3)
H5B H 1.1381 0.9286 0.5315
C9B C 1.2366(7) 0.8831(9) 0.5985(3)
C10B C 1.3418(8) 0.8428(10) 0.6217(4)
H6B H 1.3564 0.8267 0.6562
C11B C 1.4246(7) 0.8260(10) 0.5955(4)
H7B H 1.4941 0.7977 0.6115
C12B C 1.4003(6) 0.8530(8) 0.5434(3)
C13B C 1.5862(7) 0.8140(9) 0.5206(4)
H8B H 1.6197 0.8401 0.5545
H9B H 1.6240 0.8525 0.4972
C14B C 1.6033(10) 0.6855(11) 0.5174(6)
H10B H 1.6817 0.6687 0.5250
H11B H 1.5709 0.6591 0.4838
H12B H 1.5683 0.6470 0.5413
C15B C 1.1723(7) 0.9959(7) 0.3315(3)
C16B C 1.1521(7) 0.9054(10) 0.6294(3)
C17B C 1.0804(7) 1.7751(6) 0.2367(3)
H13B H 1.1378 1.8152 0.2269
C18B C 1.0853(6) 1.6557(7) 0.2363(3)
H14B H 1.1448 1.6181 0.2271
C20B C 1.0929(7) 1.2885(7) 0.2653(3)
H15B H 1.1593 1.2493 0.2775
C21B C 1.0967(6) 1.4055(7) 0.2643(3)
H16B H 1.1650 1.4431 0.2732
loop_
_geom_bond_atom_site_label_1
_geom_bond_atom_site_label_2
_geom_bond_site_symmetry_1
_geom_bond_site_symmetry_2
Cd1 N2 1_555 1_555
N1 C1 1_555 1_555
N2 C20 1_555 1_555
N3 C17 1_555 1_555
O1 Cd1 1_555 1_555
O2 Cd1 1_555 1_555
O3 H1 1_555 1_555
O4 C16 1_555 1_555
C1 C2 1_555 1_555
C2 H2 1_555 1_555
C3 C2 1_555 1_555
H3 C3 1_555 1_555
C4 C3 1_555 1_555
C5 C4 1_555 1_555
H4 C5 1_555 1_555
C6 C1 1_555 1_555
C7 C6 1_555 1_555
C8 C7 1_555 1_555
H5 C8 1_555 1_555
C9 C8 1_555 1_555
C10 C9 1_555 1_555
H6 C10 1_555 1_555
C11 C10 1_555 1_555
H7 C11 1_555 1_555
C12 N1 1_555 1_555
C13 N1 1_555 1_555
H8 C13 1_555 1_555
H9 C13 1_555 1_555
C14 C13 1_555 1_555
H10 C14 1_555 1_555
H11 C14 1_555 1_555
H12 C14 1_555 1_555
C15 O1 1_555 1_555
C16 O3 1_555 1_555
C17 H13 1_555 1_555
C18 C17 1_555 1_555
H14 C18 1_555 1_555
C19 C18 1_555 1_555
C20 H15 1_555 1_555
C21 C20 1_555 1_555
H16 C21 1_555 1_555
C22 C19 1_555 1_555
Cd1_2 N3 1_555 1_555
N1B C1B 1_555 1_555
N3_2 Cd1 1_555 1_555
O1B Cd1 1_555 1_555
O2B Cd1 1_555 1_555
O3B H1B 1_555 1_555
O4B C16B 1_555 1_555
C1B C2B 1_555 1_555
C2B H2B 1_555 1_555
C3B C2B 1_555 1_555
H3B C3B 1_555 1_555
C4B C3B 1_555 1_555
C5B C4B 1_555 1_555
H4B C5B 1_555 1_555
C6B C1B 1_555 1_555
C7B C6B 1_555 1_555
C8B C7B 1_555 1_555
H5B C8B 1_555 1_555
C9B C8B 1_555 1_555
C10B C9B 1_555 1_555
H6B C10B 1_555 1_555
C11B C10B 1_555 1_555
H7B C11B 1_555 1_555
C12B N1B 1_555 1_555
C13B N1B 1_555 1_555
H8B C13B 1_555 1_555
H9B C13B 1_555 1_555
C14B C13B 1_555 1_555
H10B C14B 1_555 1_555
H11B C14B 1_555 1_555
H12B C14B 1_555 1_555
C15B O1B 1_555 1_555
C16B O3B 1_555 1_555
C17B N3 1_555 1_555
H13B C17B 1_555 1_555
C18B C19 1_555 1_555
H14B C18B 1_555 1_555
C20B N2 1_555 1_555
H15B C20B 1_555 1_555
C21B C22 1_555 1_555
H16B C21B 1_555 1_555
O2 C15 1_555 1_555
C4 C15 1_555 1_555
C5 C6 1_555 1_555
C7 C12 1_555 1_555
C9 C16 1_555 1_555
C11 C12 1_555 1_555
C21 C22 1_555 1_555
O2B C15B 1_555 1_555
C4B C15B 1_555 1_555
C5B C6B 1_555 1_555
C7B C12B 1_555 1_555
C9B C16B 1_555 1_555
C11B C12B 1_555 1_555
C17B C18B 1_555 1_555
C20B C21B 1_555 1_555

#END
