
#######################################################################
#
#                 Cambridge Crystallographic Data Centre
#                                CCDC 
#
#######################################################################
#
# If this CIF has been generated from an entry in the Cambridge 
# Structural Database, then it will include bibliographic, chemical, 
# crystal, experimental, refinement or atomic coordinate data resulting 
# from the CCDC's data processing and validation procedures.
#
#######################################################################

data_KEVZUH
_symmetry_cell_setting           monoclinic
_symmetry_space_group_name_H-M   'C 2/c'
_symmetry_Int_Tables_number      15
_space_group_name_Hall           '-C 2yn'
loop_
_symmetry_equiv_pos_site_id
_symmetry_equiv_pos_as_xyz
1 x,y,z
2 1/2+x,1/2+y,z
3 -x,y,1/2-z
4 1/2-x,1/2+y,1/2-z
5 -x,-y,-z
6 1/2-x,1/2-y,-z
7 x,-y,1/2+z
8 1/2+x,1/2-y,1/2+z
_cell_length_a                   14.580(3)
_cell_length_b                   25.614(6)
_cell_length_c                   22.270(5)
_cell_angle_alpha                90
_cell_angle_beta                 99.109(4)
_cell_angle_gamma                90
_cell_volume                     8211.9
loop_
_atom_site_label
_atom_site_type_symbol
_atom_site_fract_x
_atom_site_fract_y
_atom_site_fract_z
Pt1 Pt 0.04619(4) 0.224329(19) 0.20039(3)
Pt2 Pt 0.15083(4) 0.231491(19) 0.10670(2)
Pt3 Pt 0.2500 0.2500 0.0000
O1 O 0.0876(6) 0.1502(3) 0.2155(4)
O2 O 0.1632(6) 0.2399(3) 0.2577(4)
O3 O -0.0686(6) 0.2077(3) 0.1406(4)
O4 O 0.0020(7) 0.2981(3) 0.1867(4)
O5 O 0.1953(7) 0.1046(4) 0.2747(5)
O6 O 0.2773(7) 0.1973(4) 0.3144(5)
O7 O -0.1871(7) 0.2494(4) 0.0880(5)
O8 O -0.1300(7) 0.3395(4) 0.1511(5)
O9 O 0.2631(6) 0.1997(3) 0.1553(4)
O10 O 0.2063(6) 0.2976(3) 0.1444(5)
O11 O 0.1016(6) 0.1649(3) 0.0670(4)
O12 O 0.0416(6) 0.2626(3) 0.0528(4)
O13 O 0.3946(7) 0.2207(4) 0.2137(4)
O14 O 0.3297(7) 0.3241(4) 0.2078(5)
O15 O -0.0093(6) 0.1373(3) -0.0049(4)
O16 O -0.0723(6) 0.2400(3) -0.0202(4)
O17 O 0.3248(6) 0.1845(3) 0.0167(4)
O18 O 0.1624(6) 0.2032(3) -0.0535(4)
O19 O 0.3327(7) 0.1049(4) -0.0224(5)
O20 O 0.1528(6) 0.1219(3) -0.0866(4)
C1 C 0.1602(10) 0.1449(5) 0.2561(7)
C2 C 0.2073(10) 0.1982(5) 0.2788(6)
C3 C -0.1183(11) 0.2489(5) 0.1249(7)
C4 C -0.0809(11) 0.3007(5) 0.1569(7)
C5 C 0.3213(9) 0.2334(5) 0.1840(6)
C6 C 0.2869(11) 0.2895(5) 0.1797(7)
C7 C 0.0299(9) 0.1719(5) 0.0250(6)
C8 C -0.0048(10) 0.2292(5) 0.0175(6)
C9 C 0.2903(9) 0.1461(5) -0.0191(7)
C10 C 0.1952(9) 0.1563(5) -0.0562(6)
Pt1E Pt 0.45381(4) 0.275671(19) -0.20039(3)
Pt1B Pt -0.04619(4) 0.224329(19) 0.29961(3)
Pt1G Pt 0.54619(4) 0.275671(19) -0.29961(3)
Pt2E Pt 0.34917(4) 0.268509(19) -0.10670(2)
O1E O 0.4124(6) 0.3498(3) -0.2155(4)
O2E O 0.3368(6) 0.2601(3) -0.2577(4)
O3E O 0.5686(6) 0.2923(3) -0.1406(4)
O4E O 0.4980(7) 0.2019(3) -0.1867(4)
O5E O 0.3047(7) 0.3954(4) -0.2747(5)
O6E O 0.2227(7) 0.3027(4) -0.3144(5)
O7E O 0.6871(7) 0.2506(4) -0.0880(5)
O8E O 0.6300(7) 0.1605(4) -0.1511(5)
O9E O 0.2369(6) 0.3003(3) -0.1553(4)
O10E O 0.2937(6) 0.2024(3) -0.1444(5)
O11E O 0.3984(6) 0.3351(3) -0.0670(4)
O12E O 0.4584(6) 0.2374(3) -0.0528(4)
O13E O 0.1054(7) 0.2793(4) -0.2137(4)
O14E O 0.1703(7) 0.1759(4) -0.2078(5)
O15E O 0.5093(6) 0.3627(3) 0.0049(4)
O16E O 0.5723(6) 0.2600(3) 0.0202(4)
O17E O 0.1752(6) 0.3155(3) -0.0167(4)
O18E O 0.3376(6) 0.2968(3) 0.0535(4)
O19E O 0.1673(7) 0.3951(4) 0.0224(5)
O20E O 0.3472(6) 0.3781(3) 0.0866(4)
C1E C 0.3398(10) 0.3551(5) -0.2561(7)
C2E C 0.2927(10) 0.3018(5) -0.2788(6)
C3E C 0.6183(11) 0.2511(5) -0.1249(7)
C4E C 0.5809(11) 0.1993(5) -0.1569(7)
C5E C 0.1787(9) 0.2666(5) -0.1840(6)
C6E C 0.2131(11) 0.2105(5) -0.1797(7)
C7E C 0.4701(9) 0.3281(5) -0.0250(6)
C8E C 0.5048(10) 0.2708(5) -0.0175(6)
C9E C 0.2097(9) 0.3539(5) 0.0191(7)
C10E C 0.3048(9) 0.3437(5) 0.0562(6)
Cu1 Cu 0.54104(12) 0.08785(6) 0.12027(8)
O21 O 0.6693(6) 0.1087(3) 0.1103(4)
H1 H 0.6975 0.0831 0.1007
O22 O 0.4947(6) 0.1577(4) 0.0904(5)
H2 H 0.4381 0.1566 0.0805
O23 O 0.5831(8) 0.1182(4) 0.2241(5)
H3 H 0.5386 0.1148 0.2422
O24 O 0.5031(8) 0.0554(5) 0.0126(5)
N1 N 0.5809(7) 0.0162(4) 0.1482(5)
N2 N 0.4207(8) 0.0613(4) 0.1360(5)
C11 C 0.6682(10) -0.0054(6) 0.1465(8)
H7 H 0.7156 0.0154 0.1361
C12 C 0.6847(12) -0.0574(6) 0.1602(8)
H8 H 0.7435 -0.0716 0.1604
C13 C 0.6126(12) -0.0882(6) 0.1736(7)
H9 H 0.6228 -0.1230 0.1843
C14 C 0.5280(10) -0.0672(5) 0.1709(8)
H10 H 0.4779 -0.0881 0.1765
C15 C 0.5150(11) -0.0142(5) 0.1599(7)
C16 C 0.4219(10) 0.0126(5) 0.1600(7)
C17 C 0.3478(10) -0.0093(6) 0.1791(7)
H11 H 0.3506 -0.0433 0.1940
C18 C 0.2699(12) 0.0191(6) 0.1762(8)
H12 H 0.2192 0.0051 0.1914
C19 C 0.2632(10) 0.0689(6) 0.1509(7)
H13 H 0.2079 0.0877 0.1455
C20 C 0.3383(9) 0.0876(5) 0.1353(6)
H14 H 0.3364 0.1221 0.1224
Cu2 Cu 0.60140(12) 0.38960(6) 0.11346(8)
O25 O 0.5159(6) 0.3452(4) 0.1485(4)
H4 H 0.4655 0.3449 0.1262
O26 O 0.6733(7) 0.3274(3) 0.0918(5)
H5 H 0.6372 0.3055 0.0747
O27 O 0.7115(7) 0.3905(4) 0.2018(5)
H6 H 0.7572 0.3737 0.1961
N3 N 0.5292(8) 0.4537(4) 0.1294(5)
N4 N 0.6577(7) 0.4397(4) 0.0642(5)
C21 C 0.4703(11) 0.4578(5) 0.1701(7)
H15 H 0.4583 0.4282 0.1917
C22 C 0.4257(11) 0.5050(6) 0.1815(7)
H16 H 0.3844 0.5073 0.2092
C23 C 0.4489(12) 0.5482(6) 0.1476(9)
H17 H 0.4229 0.5806 0.1532
C24 C 0.5077(10) 0.5433(5) 0.1073(7)
H18 H 0.5213 0.5722 0.0850
C25 C 0.5478(11) 0.4960(5) 0.0988(7)
C26 C 0.6155(9) 0.4872(5) 0.0569(6)
C27 C 0.6395(12) 0.5229(5) 0.0160(8)
H19 H 0.6096 0.5550 0.0115
C28 C 0.7079(11) 0.5114(6) -0.0184(7)
H20 H 0.7237 0.5349 -0.0469
C29 C 0.7515(11) 0.4638(6) -0.0091(7)
H21 H 0.7996 0.4561 -0.0305
C30 C 0.7283(12) 0.4288(5) 0.0289(8)
H22 H 0.7582 0.3967 0.0326
O28 O 0.6944(8) 0.1738(4) 0.0284(5)
O29 O 0.5526(7) 0.2432(3) 0.1583(4)
loop_
_geom_bond_atom_site_label_1
_geom_bond_atom_site_label_2
_geom_bond_site_symmetry_1
_geom_bond_site_symmetry_2
Pt1 Pt2 1_555 1_555
Pt2 Pt3 1_555 1_555
Pt3 O17 1_555 1_555
Cu1 O21 1_555 1_555
Cu2 O25 1_555 1_555
O1 Pt1 1_555 1_555
O2 Pt1 1_555 1_555
O3 Pt1 1_555 1_555
O4 Pt1 1_555 1_555
O5 C1 1_555 1_555
O6 C2 1_555 1_555
O7 C3 1_555 1_555
O8 C4 1_555 1_555
O9 Pt2 1_555 1_555
O10 Pt2 1_555 1_555
O11 Pt2 1_555 1_555
O12 Pt2 1_555 1_555
O13 C5 1_555 1_555
O14 C6 1_555 1_555
O15 C7 1_555 1_555
O16 C8 1_555 1_555
O17 C9 1_555 1_555
O18 Pt3 1_555 1_555
O19 C9 1_555 1_555
O20 C10 1_555 1_555
O21 H1 1_555 1_555
O22 Cu1 1_555 1_555
H2 O22 1_555 1_555
O23 Cu1 1_555 1_555
H3 O23 1_555 1_555
O24 Cu1 1_555 1_555
O25 H4 1_555 1_555
O26 Cu2 1_555 1_555
H5 O26 1_555 1_555
O27 Cu2 1_555 1_555
H6 O27 1_555 1_555
N1 Cu1 1_555 1_555
N2 Cu1 1_555 1_555
N3 Cu2 1_555 1_555
N4 Cu2 1_555 1_555
C1 O1 1_555 1_555
C2 O2 1_555 1_555
C3 O3 1_555 1_555
C4 O4 1_555 1_555
C5 O9 1_555 1_555
C6 O10 1_555 1_555
C7 O11 1_555 1_555
C8 O12 1_555 1_555
C9 C10 1_555 1_555
C10 O18 1_555 1_555
C11 N1 1_555 1_555
H7 C11 1_555 1_555
C12 C11 1_555 1_555
H8 C12 1_555 1_555
C13 C12 1_555 1_555
H9 C13 1_555 1_555
C14 C13 1_555 1_555
H10 C14 1_555 1_555
C15 N1 1_555 1_555
C16 N2 1_555 1_555
C17 C16 1_555 1_555
H11 C17 1_555 1_555
C18 C17 1_555 1_555
H12 C18 1_555 1_555
C19 C18 1_555 1_555
H13 C19 1_555 1_555
C20 N2 1_555 1_555
H14 C20 1_555 1_555
C21 N3 1_555 1_555
H15 C21 1_555 1_555
C22 C21 1_555 1_555
H16 C22 1_555 1_555
C23 C22 1_555 1_555
H17 C23 1_555 1_555
C24 C23 1_555 1_555
H18 C24 1_555 1_555
C25 N3 1_555 1_555
C26 N4 1_555 1_555
C27 C26 1_555 1_555
H19 C27 1_555 1_555
C28 C27 1_555 1_555
H20 C28 1_555 1_555
C29 C28 1_555 1_555
H21 C29 1_555 1_555
C30 N4 1_555 1_555
H22 C30 1_555 1_555
Pt1E Pt1G 1_555 1_555
Pt1B Pt1 1_555 1_555
Pt2E Pt3 1_555 1_555
O1E Pt1E 1_555 1_555
O2E Pt1E 1_555 1_555
O3E Pt1E 1_555 1_555
O4E Pt1E 1_555 1_555
O5E C1E 1_555 1_555
O6E C2E 1_555 1_555
O7E C3E 1_555 1_555
O8E C4E 1_555 1_555
O9E Pt2E 1_555 1_555
O10E Pt2E 1_555 1_555
O11E Pt2E 1_555 1_555
O12E Pt2E 1_555 1_555
O13E C5E 1_555 1_555
O14E C6E 1_555 1_555
O15E C7E 1_555 1_555
O16E C8E 1_555 1_555
O17E Pt3 1_555 1_555
O18E Pt3 1_555 1_555
O19E C9E 1_555 1_555
O20E C10E 1_555 1_555
C1E O1E 1_555 1_555
C2E O2E 1_555 1_555
C3E O3E 1_555 1_555
C4E O4E 1_555 1_555
C5E O9E 1_555 1_555
C6E O10E 1_555 1_555
C7E O11E 1_555 1_555
C8E O12E 1_555 1_555
C9E O17E 1_555 1_555
C10E O18E 1_555 1_555
C1 C2 1_555 1_555
C3 C4 1_555 1_555
C5 C6 1_555 1_555
C7 C8 1_555 1_555
C14 C15 1_555 1_555
C15 C16 1_555 1_555
C19 C20 1_555 1_555
C24 C25 1_555 1_555
C25 C26 1_555 1_555
C29 C30 1_555 1_555
Pt1E Pt2E 1_555 1_555
C1E C2E 1_555 1_555
C3E C4E 1_555 1_555
C5E C6E 1_555 1_555
C7E C8E 1_555 1_555
C9E C10E 1_555 1_555

#END
