
#######################################################################
#
#                 Cambridge Crystallographic Data Centre
#                                CCDC 
#
#######################################################################
#
# If this CIF has been generated from an entry in the Cambridge 
# Structural Database, then it will include bibliographic, chemical, 
# crystal, experimental, refinement or atomic coordinate data resulting 
# from the CCDC's data processing and validation procedures.
#
#######################################################################

data_KEWBOD
_symmetry_cell_setting           monoclinic
_symmetry_space_group_name_H-M   'P 21/n'
_symmetry_Int_Tables_number      14
_space_group_name_Hall           '-P 2yn'
loop_
_symmetry_equiv_pos_site_id
_symmetry_equiv_pos_as_xyz
1 x,y,z
2 1/2-x,1/2+y,1/2-z
3 -x,-y,-z
4 1/2+x,1/2-y,1/2+z
_cell_length_a                   14.387(3)
_cell_length_b                   10.045(2)
_cell_length_c                   15.528(4)
_cell_angle_alpha                90
_cell_angle_beta                 115.10(2)
_cell_angle_gamma                90
_cell_volume                     2032.16
loop_
_atom_site_label
_atom_site_type_symbol
_atom_site_fract_x
_atom_site_fract_y
_atom_site_fract_z
Mn1 Mn 0.4692(1) 0.0527(1) -0.2410(1)
N1 N 0.4336(1) -0.0368(2) -0.3822(1)
C1 C 0.5023(1) -0.1162(2) -0.3930(1)
C2 C 0.4810(2) -0.1781(2) -0.4798(1)
C3 C 0.3865(2) -0.1540(2) -0.5555(2)
C4 C 0.3158(2) -0.0726(2) -0.5429(1)
C5 C 0.3414(1) -0.0143(2) -0.4547(1)
C6 C 0.2737(2) 0.0791(2) -0.4318(1)
C7 C 0.1724(2) 0.1176(2) -0.5098(2)
N2 N 0.3099(1) 0.1203(2) -0.3459(1)
C8 C 0.2549(2) 0.2185(2) -0.3150(2)
C9 C 0.1889(2) 0.1515(2) -0.2726(2)
C10 C 0.1455(2) 0.2527(2) -0.2269(1)
O1 O 0.0891(1) 0.3567(2) -0.2920(1)
O2 O 0.8940(1) 0.0408(2) 0.0005(1)
C11 C 0.8089(2) 0.0074(3) 0.0203(2)
C12 C 0.7108(2) 0.0215(2) -0.0704(2)
C13 C 0.7070(2) -0.0764(2) -0.1456(1)
N3 N 0.6099(1) -0.0661(2) -0.2323(1)
C14 C 0.6020(1) -0.1300(2) -0.3066(1)
C15 C 0.6850(2) -0.2143(2) -0.3125(2)
N4 N 0.4612(2) 0.1197(2) -0.1142(1)
C16 C 0.4426(2) 0.1815(2) -0.0608(1)
S1 S 0.4165(1) 0.2727(1) 0.0138(1)
N5 N 0.5319(1) 0.2401(2) -0.2613(1)
C17 C 0.5432(2) 0.3538(2) -0.2654(1)
S2 S 0.5626(1) 0.5129(1) -0.2707(1)
H1 H 0.5303 -0.2360 -0.4870
H2 H 0.3705 -0.1937 -0.6164
H3 H 0.2499 -0.0565 -0.5945
H4 H 0.1356 0.1632 -0.4862
H5 H 0.1798 0.1603 -0.5586
H6 H 0.1284 0.0494 -0.5427
H7 H 0.3040 0.2754 -0.2679
H8 H 0.2116 0.2709 -0.3688
H9 H 0.2301 0.0886 -0.2253
H10 H 0.1332 0.1059 -0.3222
H11 H 0.2012 0.2921 -0.1735
H12 H 0.1003 0.2078 -0.2054
H13 H 0.0448 0.3224 -0.3422
H14 H 0.9554 0.0306 0.0524
H15 H 0.8157 -0.0827 0.0426
H16 H 0.8066 0.0663 0.0680
H17 H 0.7071 0.1103 -0.0946
H18 H 0.6531 0.0060 -0.0559
H19 H 0.7133 -0.1650 -0.1205
H20 H 0.7632 -0.0587 -0.1618
H21 H 0.6611 -0.2522 -0.3750
H22 H 0.7026 -0.2844 -0.2662
H23 H 0.7444 -0.1604 -0.3001
Mn1A Mn 0.0308(1) 0.5527(1) -0.2590(1)
O1A O 0.4109(1) -0.1433(2) -0.2080(1)
H13A H 0.4552 -0.1776 -0.1578
loop_
_geom_bond_atom_site_label_1
_geom_bond_atom_site_label_2
_geom_bond_site_symmetry_1
_geom_bond_site_symmetry_2
Mn1 N1 1_555 1_555
N1 C1 1_555 1_555
C1 C2 1_555 1_555
C2 C3 1_555 1_555
C3 C4 1_555 1_555
C4 C5 1_555 1_555
C5 N1 1_555 1_555
C6 C5 1_555 1_555
C7 C6 1_555 1_555
N2 Mn1 1_555 1_555
C8 N2 1_555 1_555
C9 C8 1_555 1_555
C10 C9 1_555 1_555
O1 C10 1_555 1_555
O2 C11 1_555 1_555
C11 C12 1_555 1_555
C12 C13 1_555 1_555
C13 N3 1_555 1_555
N3 Mn1 1_555 1_555
C14 C1 1_555 1_555
C15 C14 1_555 1_555
N4 Mn1 1_555 1_555
C16 N4 1_555 1_555
S1 C16 1_555 1_555
N5 Mn1 1_555 1_555
C17 N5 1_555 1_555
S2 C17 1_555 1_555
H1 C2 1_555 1_555
H2 C3 1_555 1_555
H3 C4 1_555 1_555
H4 C7 1_555 1_555
H5 C7 1_555 1_555
H6 C7 1_555 1_555
H7 C8 1_555 1_555
H8 C8 1_555 1_555
H9 C9 1_555 1_555
H10 C9 1_555 1_555
H11 C10 1_555 1_555
H12 C10 1_555 1_555
H13 O1 1_555 1_555
H14 O2 1_555 1_555
H15 C11 1_555 1_555
H16 C11 1_555 1_555
H17 C12 1_555 1_555
H18 C12 1_555 1_555
H19 C13 1_555 1_555
H20 C13 1_555 1_555
H21 C15 1_555 1_555
H22 C15 1_555 1_555
H23 C15 1_555 1_555
Mn1A O1 1_555 1_555
O1A Mn1 1_555 1_555
H13A O1A 1_555 1_555
C6 N2 1_555 1_555
N3 C14 1_555 1_555

#END
