
#######################################################################
#
#                 Cambridge Crystallographic Data Centre
#                                CCDC 
#
#######################################################################
#
# If this CIF has been generated from an entry in the Cambridge 
# Structural Database, then it will include bibliographic, chemical, 
# crystal, experimental, refinement or atomic coordinate data resulting 
# from the CCDC's data processing and validation procedures.
#
#######################################################################

data_KEWHUR
_symmetry_cell_setting           monoclinic
_symmetry_space_group_name_H-M   'C 2/c'
_symmetry_Int_Tables_number      15
_space_group_name_Hall           '-C 2yn'
loop_
_symmetry_equiv_pos_site_id
_symmetry_equiv_pos_as_xyz
1 x,y,z
2 -x,y,1/2-z
3 1/2+x,1/2+y,z
4 1/2-x,1/2+y,1/2-z
5 -x,-y,-z
6 x,-y,1/2+z
7 1/2-x,1/2-y,-z
8 1/2+x,1/2-y,1/2+z
_cell_length_a                   30.665(7)
_cell_length_b                   24.222(5)
_cell_length_c                   29.554(9)
_cell_angle_alpha                90
_cell_angle_beta                 103.908(5)
_cell_angle_gamma                90
_cell_volume                     21308.2
loop_
_atom_site_label
_atom_site_type_symbol
_atom_site_fract_x
_atom_site_fract_y
_atom_site_fract_z
Fe1 Fe 0.11457(9) 0.13460(11) 0.10201(8)
Fe2 Fe 0.16186(8) 0.05980(11) 0.19243(8)
Fe3 Fe 0.22383(9) 0.12020(12) 0.12611(9)
Fe4 Fe 0.24120(9) 0.08310(11) 0.30059(8)
Fe5 Fe 0.31125(9) 0.10134(12) 0.22968(9)
Fe6 Fe 0.33600(9) 0.14832(12) 0.33699(9)
O1 O 0.1666(3) 0.1045(4) 0.1404(4)
O2 O 0.2957(4) 0.1121(4) 0.2894(4)
O3 O 0.2074(3) 0.1053(4) 0.2375(4)
O4 O 0.2545(4) 0.1330(4) 0.1922(4)
O5 O 0.0724(4) 0.0704(5) 0.1015(4)
O6 O 0.1089(4) 0.0146(5) 0.1559(4)
O7 O 0.0936(4) 0.1734(6) 0.1521(4)
O8 O 0.1137(5) 0.1092(6) 0.2092(4)
O9 O 0.1247(4) 0.1073(5) 0.0417(4)
O10 O 0.1972(4) 0.1181(5) 0.0553(4)
O11 O 0.1413(5) 0.2064(5) 0.0881(4)
O12 O 0.2141(5) 0.2020(5) 0.1198(4)
O13 O 0.1985(4) 0.0021(5) 0.1705(4)
O14 O 0.2337(4) 0.0392(5) 0.1221(4)
O15 O 0.1562(4) 0.0114(5) 0.2444(4)
O16 O 0.1841(4) 0.0509(5) 0.3132(4)
O17 O 0.2836(5) 0.1304(6) 0.1105(4)
O18 O 0.3309(4) 0.0920(7) 0.1706(5)
O19 O 0.2575(4) 0.0081(5) 0.2839(4)
O20 O 0.2911(4) 0.0238(5) 0.2279(4)
O21 O 0.2704(5) 0.0619(5) 0.3690(4)
O22 O 0.3410(5) 0.0889(6) 0.3842(4)
O23 O 0.2249(5) 0.1559(6) 0.3269(4)
O24 O 0.2910(5) 0.1882(5) 0.3635(4)
O25 O 0.3734(4) 0.0716(7) 0.2609(5)
O26 O 0.3931(5) 0.1175(7) 0.3273(5)
O27 O 0.3398(5) 0.1774(6) 0.2322(5)
O28 O 0.3416(5) 0.2140(6) 0.2991(5)
C1 C 0.2259(5) 0.1501(7) 0.2196(6)
H1 H 0.2016 0.1731 0.2006
H2 H 0.2429 0.1732 0.2455
C2 C 0.0759(6) 0.0249(8) 0.1228(7)
C3 C 0.0393(5) -0.0179(6) 0.1093(5)
C4 C 0.0197(6) -0.0151(9) 0.0579(5)
H3 H 0.0069 0.0217 0.0497
H4 H -0.0040 -0.0429 0.0490
H5 H 0.0432 -0.0222 0.0414
C5 C 0.0068(6) -0.0071(9) 0.1390(6)
H6 H -0.0070 0.0293 0.1314
H7 H 0.0228 -0.0080 0.1720
H8 H -0.0166 -0.0355 0.1331
C6 C 0.0580(7) -0.0751(7) 0.1232(7)
H9 H 0.0340 -0.1025 0.1142
H10 H 0.0703 -0.0764 0.1571
H11 H 0.0819 -0.0833 0.1074
C7 C 0.0973(8) 0.1520(10) 0.1955(7)
C8 C 0.0843(6) 0.1956(8) 0.2268(6)
C9 C 0.0377(6) 0.2169(10) 0.2054(7)
H12 H 0.0375 0.2357 0.1760
H13 H 0.0288 0.2430 0.2269
H14 H 0.0165 0.1859 0.1995
C10 C 0.0826(8) 0.1702(10) 0.2731(6)
H15 H 0.1125 0.1565 0.2887
H16 H 0.0612 0.1395 0.2678
H17 H 0.0730 0.1981 0.2926
C11 C 0.1156(8) 0.2444(9) 0.2333(8)
H18 H 0.1154 0.2606 0.2029
H19 H 0.1462 0.2323 0.2484
H20 H 0.1057 0.2720 0.2529
C12 C 0.1599(8) 0.1107(8) 0.0292(5)
C13 C 0.1567(5) 0.1058(7) -0.0227(5)
C14 C 0.1160(6) 0.0715(9) -0.0457(6)
H21 H 0.0887 0.0892 -0.0408
H22 H 0.1188 0.0344 -0.0319
H23 H 0.1140 0.0686 -0.0792
C15 C 0.1540(7) 0.1643(7) -0.0411(7)
H24 H 0.1271 0.1823 -0.0357
H25 H 0.1525 0.1637 -0.0746
H26 H 0.1807 0.1849 -0.0249
C16 C 0.1978(6) 0.0772(9) -0.0315(6)
H27 H 0.2247 0.0983 -0.0168
H28 H 0.1952 0.0748 -0.0651
H29 H 0.2000 0.0400 -0.0182
C17 C 0.1785(10) 0.2275(8) 0.0976(8)
C18 C 0.1849(7) 0.2869(7) 0.0862(7)
C19 C 0.1427(8) 0.3136(10) 0.0582(9)
H30 H 0.1342 0.2967 0.0272
H31 H 0.1479 0.3532 0.0551
H32 H 0.1183 0.3083 0.0741
C20 C 0.2214(8) 0.2861(10) 0.0606(9)
H33 H 0.2484 0.2691 0.0802
H34 H 0.2283 0.3240 0.0529
H35 H 0.2115 0.2647 0.0318
C21 C 0.2164(9) 0.3185(10) 0.1237(8)
H36 H 0.2422 0.2952 0.1379
H37 H 0.2008 0.3298 0.1475
H38 H 0.2270 0.3514 0.1102
C22 C 0.2146(6) -0.0001(7) 0.1363(6)
C23 C 0.2048(5) -0.0505(6) 0.1048(5)
C24 C 0.1893(7) -0.0994(7) 0.1293(6)
H39 H 0.1620 -0.0893 0.1390
H40 H 0.2130 -0.1094 0.1567
H41 H 0.1831 -0.1309 0.1079
C25 C 0.1674(6) -0.0341(8) 0.0634(5)
H42 H 0.1401 -0.0266 0.0739
H43 H 0.1618 -0.0643 0.0407
H44 H 0.1763 -0.0009 0.0489
C26 C 0.2468(6) -0.0630(8) 0.0881(6)
H45 H 0.2551 -0.0305 0.0722
H46 H 0.2411 -0.0943 0.0665
H47 H 0.2715 -0.0722 0.1149
C27 C 0.1547(6) 0.0228(9) 0.2859(7)
C28 C 0.1234(5) -0.0105(7) 0.3069(5)
C29 C 0.0802(6) -0.0223(10) 0.2705(7)
H48 H 0.0647 0.0125 0.2602
H49 H 0.0608 -0.0460 0.2840
H50 H 0.0873 -0.0410 0.2437
C30 C 0.1131(7) 0.0226(9) 0.3455(6)
H51 H 0.1407 0.0282 0.3698
H52 H 0.0910 0.0029 0.3586
H53 H 0.1007 0.0585 0.3334
C31 C 0.1479(7) -0.0629(8) 0.3245(7)
H54 H 0.1752 -0.0540 0.3483
H55 H 0.1560 -0.0823 0.2986
H56 H 0.1285 -0.0866 0.3381
C32 C 0.3202(7) 0.1130(11) 0.1307(8)
C33 C 0.3550(6) 0.1222(9) 0.1033(6)
C34 C 0.3431(8) 0.0891(10) 0.0584(7)
H57 H 0.3434 0.0496 0.0658
H58 H 0.3651 0.0966 0.0400
H59 H 0.3130 0.0996 0.0404
C35 C 0.3558(8) 0.1830(9) 0.0902(8)
H60 H 0.3632 0.2054 0.1185
H61 H 0.3262 0.1937 0.0713
H62 H 0.3784 0.1888 0.0722
C36 C 0.4015(6) 0.1157(11) 0.1340(7)
H63 H 0.4058 0.0776 0.1452
H64 H 0.4053 0.1409 0.1606
H65 H 0.4237 0.1245 0.1161
C37 C 0.2801(7) -0.0059(7) 0.2559(7)
C38 C 0.2974(5) -0.0646(7) 0.2616(5)
C39 C 0.3180(7) -0.0817(9) 0.2227(6)
H66 H 0.2952 -0.0801 0.1931
H67 H 0.3295 -0.1195 0.2281
H68 H 0.3428 -0.0567 0.2214
C40 C 0.3322(7) -0.0678(9) 0.3078(6)
H69 H 0.3573 -0.0431 0.3069
H70 H 0.3433 -0.1058 0.3131
H71 H 0.3186 -0.0566 0.3331
C41 C 0.2599(6) -0.1045(8) 0.2634(7)
H72 H 0.2373 -0.1035 0.2337
H73 H 0.2460 -0.0939 0.2887
H74 H 0.2722 -0.1419 0.2690
C42 C 0.3092(9) 0.0603(9) 0.3931(7)
C43 C 0.3218(7) 0.0224(7) 0.4342(6)
C44 C 0.3663(7) -0.0062(10) 0.4371(8)
H75 H 0.3900 0.0216 0.4395
H76 H 0.3644 -0.0285 0.4091
H77 H 0.3734 -0.0300 0.4647
C45 C 0.3251(9) 0.0546(9) 0.4780(7)
H78 H 0.2962 0.0721 0.4772
H79 H 0.3484 0.0830 0.4807
H80 H 0.3330 0.0296 0.5049
C46 C 0.2894(8) -0.0248(9) 0.4327(8)
H81 H 0.2592 -0.0102 0.4307
H82 H 0.2989 -0.0471 0.4610
H83 H 0.2891 -0.0479 0.4053
C47 C 0.2486(9) 0.1898(9) 0.3527(8)
C48 C 0.2256(7) 0.2387(8) 0.3684(6)
C49 C 0.2549(8) 0.2588(10) 0.4143(7)
H84 H 0.2559 0.2307 0.4383
H85 H 0.2424 0.2931 0.4235
H86 H 0.2854 0.2657 0.4107
C50 C 0.1771(7) 0.2289(10) 0.3676(8)
H87 H 0.1749 0.2034 0.3927
H88 H 0.1617 0.2130 0.3375
H89 H 0.1628 0.2641 0.3721
C51 C 0.2227(9) 0.2780(9) 0.3274(7)
H90 H 0.2035 0.2617 0.2992
H91 H 0.2529 0.2842 0.3226
H92 H 0.2099 0.3133 0.3340
C52 C 0.4012(7) 0.0845(12) 0.2997(9)
C53 C 0.4476(7) 0.0595(9) 0.3080(7)
C54 C 0.4513(8) 0.0147(11) 0.2733(8)
H93 H 0.4320 -0.0165 0.2769
H94 H 0.4825 0.0022 0.2790
H95 H 0.4416 0.0294 0.2416
C55 C 0.4769(8) 0.1066(11) 0.2978(9)
H96 H 0.4771 0.1367 0.3200
H97 H 0.4648 0.1201 0.2660
H98 H 0.5077 0.0932 0.3009
C56 C 0.4579(9) 0.0426(12) 0.3586(8)
H99 H 0.4372 0.0133 0.3628
H100 H 0.4543 0.0745 0.3778
H101 H 0.4888 0.0291 0.3682
C57 C 0.3469(8) 0.2142(9) 0.2598(9)
C58 C 0.3496(7) 0.2703(8) 0.2404(7)
C59 C 0.3125(8) 0.2851(10) 0.1986(8)
H102 H 0.2841 0.2884 0.2080
H103 H 0.3099 0.2563 0.1748
H104 H 0.3195 0.3204 0.1858
C60 C 0.3925(9) 0.2676(11) 0.2254(9)
H105 H 0.4171 0.2581 0.2521
H106 H 0.3985 0.3036 0.2130
H107 H 0.3901 0.2394 0.2011
C61 C 0.3674(9) 0.3141(8) 0.2752(7)
H108 H 0.3923 0.2992 0.2994
H109 H 0.3434 0.3268 0.2895
H110 H 0.3782 0.3452 0.2597
C62 C 0.0296(7) 0.1458(9) 0.0174(7)
H111 H 0.0381 0.1093 0.0112
C63 C -0.0063(6) 0.1705(8) -0.0131(6)
H112 H -0.0240 0.1508 -0.0388
C64 C -0.0152(7) 0.2227(9) -0.0052(6)
C65 C -0.0515(7) 0.2531(9) -0.0397(6)
C66 C -0.0879(6) 0.2246(9) -0.0678(6)
H113 H -0.0915 0.1860 -0.0644
C67 C -0.1172(7) 0.2540(10) -0.0995(6)
H114 H -0.1413 0.2342 -0.1191
C68 C -0.0822(7) 0.3355(9) -0.0775(7)
H115 H -0.0807 0.3746 -0.0794
C69 C -0.0502(7) 0.3073(9) -0.0460(6)
H116 H -0.0257 0.3274 -0.0275
C70 C 0.0075(7) 0.2490(9) 0.0364(6)
H117 H -0.0010 0.2847 0.0446
C71 C 0.0416(7) 0.2210(9) 0.0640(7)
H118 H 0.0583 0.2388 0.0914
N1 N 0.0529(5) 0.1721(7) 0.0558(5)
N2 N -0.1161(6) 0.3075(7) -0.1062(5)
Fe6G Fe -0.16400(9) 0.35168(12) -0.16301(9)
N2G N 0.3839(6) 0.1925(7) 0.3938(5)
loop_
_geom_bond_atom_site_label_1
_geom_bond_atom_site_label_2
_geom_bond_site_symmetry_1
_geom_bond_site_symmetry_2
Fe1 O1 1_555 1_555
Fe2 O1 1_555 1_555
Fe3 O1 1_555 1_555
Fe4 O2 1_555 1_555
Fe5 O2 1_555 1_555
Fe6 O2 1_555 1_555
O3 Fe2 1_555 1_555
O4 Fe3 1_555 1_555
O5 Fe1 1_555 1_555
O6 Fe2 1_555 1_555
O7 Fe1 1_555 1_555
O8 Fe2 1_555 1_555
O9 Fe1 1_555 1_555
O10 Fe3 1_555 1_555
O11 Fe1 1_555 1_555
O12 Fe3 1_555 1_555
O13 Fe2 1_555 1_555
O14 Fe3 1_555 1_555
O15 Fe2 1_555 1_555
O16 Fe4 1_555 1_555
O17 Fe3 1_555 1_555
O18 Fe5 1_555 1_555
O19 Fe4 1_555 1_555
O20 Fe5 1_555 1_555
O21 Fe4 1_555 1_555
O22 Fe6 1_555 1_555
O23 Fe4 1_555 1_555
O24 Fe6 1_555 1_555
O25 Fe5 1_555 1_555
O26 Fe6 1_555 1_555
O27 Fe5 1_555 1_555
O28 Fe6 1_555 1_555
C1 O3 1_555 1_555
H1 C1 1_555 1_555
H2 C1 1_555 1_555
C2 O5 1_555 1_555
C3 C2 1_555 1_555
C4 C3 1_555 1_555
H3 C4 1_555 1_555
H4 C4 1_555 1_555
H5 C4 1_555 1_555
C5 C3 1_555 1_555
H6 C5 1_555 1_555
H7 C5 1_555 1_555
H8 C5 1_555 1_555
C6 C3 1_555 1_555
H9 C6 1_555 1_555
H10 C6 1_555 1_555
H11 C6 1_555 1_555
C7 O7 1_555 1_555
C8 C7 1_555 1_555
C9 C8 1_555 1_555
H12 C9 1_555 1_555
H13 C9 1_555 1_555
H14 C9 1_555 1_555
C10 C8 1_555 1_555
H15 C10 1_555 1_555
H16 C10 1_555 1_555
H17 C10 1_555 1_555
C11 C8 1_555 1_555
H18 C11 1_555 1_555
H19 C11 1_555 1_555
H20 C11 1_555 1_555
C12 O9 1_555 1_555
C13 C12 1_555 1_555
C14 C13 1_555 1_555
H21 C14 1_555 1_555
H22 C14 1_555 1_555
H23 C14 1_555 1_555
C15 C13 1_555 1_555
H24 C15 1_555 1_555
H25 C15 1_555 1_555
H26 C15 1_555 1_555
C16 C13 1_555 1_555
H27 C16 1_555 1_555
H28 C16 1_555 1_555
H29 C16 1_555 1_555
C17 O11 1_555 1_555
C18 C17 1_555 1_555
C19 C18 1_555 1_555
H30 C19 1_555 1_555
H31 C19 1_555 1_555
H32 C19 1_555 1_555
C20 C18 1_555 1_555
H33 C20 1_555 1_555
H34 C20 1_555 1_555
H35 C20 1_555 1_555
C21 C18 1_555 1_555
H36 C21 1_555 1_555
H37 C21 1_555 1_555
H38 C21 1_555 1_555
C22 O13 1_555 1_555
C23 C22 1_555 1_555
C24 C23 1_555 1_555
H39 C24 1_555 1_555
H40 C24 1_555 1_555
H41 C24 1_555 1_555
C25 C23 1_555 1_555
H42 C25 1_555 1_555
H43 C25 1_555 1_555
H44 C25 1_555 1_555
C26 C23 1_555 1_555
H45 C26 1_555 1_555
H46 C26 1_555 1_555
H47 C26 1_555 1_555
C27 O15 1_555 1_555
C28 C27 1_555 1_555
C29 C28 1_555 1_555
H48 C29 1_555 1_555
H49 C29 1_555 1_555
H50 C29 1_555 1_555
C30 C28 1_555 1_555
H51 C30 1_555 1_555
H52 C30 1_555 1_555
H53 C30 1_555 1_555
C31 C28 1_555 1_555
H54 C31 1_555 1_555
H55 C31 1_555 1_555
H56 C31 1_555 1_555
C32 O17 1_555 1_555
C33 C32 1_555 1_555
C34 C33 1_555 1_555
H57 C34 1_555 1_555
H58 C34 1_555 1_555
H59 C34 1_555 1_555
C35 C33 1_555 1_555
H60 C35 1_555 1_555
H61 C35 1_555 1_555
H62 C35 1_555 1_555
C36 C33 1_555 1_555
H63 C36 1_555 1_555
H64 C36 1_555 1_555
H65 C36 1_555 1_555
C37 O19 1_555 1_555
C38 C37 1_555 1_555
C39 C38 1_555 1_555
H66 C39 1_555 1_555
H67 C39 1_555 1_555
H68 C39 1_555 1_555
C40 C38 1_555 1_555
H69 C40 1_555 1_555
H70 C40 1_555 1_555
H71 C40 1_555 1_555
C41 C38 1_555 1_555
H72 C41 1_555 1_555
H73 C41 1_555 1_555
H74 C41 1_555 1_555
C42 O21 1_555 1_555
C43 C42 1_555 1_555
C44 C43 1_555 1_555
H75 C44 1_555 1_555
H76 C44 1_555 1_555
H77 C44 1_555 1_555
C45 C43 1_555 1_555
H78 C45 1_555 1_555
H79 C45 1_555 1_555
H80 C45 1_555 1_555
C46 C43 1_555 1_555
H81 C46 1_555 1_555
H82 C46 1_555 1_555
H83 C46 1_555 1_555
C47 O23 1_555 1_555
C48 C47 1_555 1_555
C49 C48 1_555 1_555
H84 C49 1_555 1_555
H85 C49 1_555 1_555
H86 C49 1_555 1_555
C50 C48 1_555 1_555
H87 C50 1_555 1_555
H88 C50 1_555 1_555
H89 C50 1_555 1_555
C51 C48 1_555 1_555
H90 C51 1_555 1_555
H91 C51 1_555 1_555
H92 C51 1_555 1_555
C52 O25 1_555 1_555
C53 C52 1_555 1_555
C54 C53 1_555 1_555
H93 C54 1_555 1_555
H94 C54 1_555 1_555
H95 C54 1_555 1_555
C55 C53 1_555 1_555
H96 C55 1_555 1_555
H97 C55 1_555 1_555
H98 C55 1_555 1_555
C56 C53 1_555 1_555
H99 C56 1_555 1_555
H100 C56 1_555 1_555
H101 C56 1_555 1_555
C57 O27 1_555 1_555
C58 C57 1_555 1_555
C59 C58 1_555 1_555
H102 C59 1_555 1_555
H103 C59 1_555 1_555
H104 C59 1_555 1_555
C60 C58 1_555 1_555
H105 C60 1_555 1_555
H106 C60 1_555 1_555
H107 C60 1_555 1_555
C61 C58 1_555 1_555
H108 C61 1_555 1_555
H109 C61 1_555 1_555
H110 C61 1_555 1_555
C62 H111 1_555 1_555
C63 C62 1_555 1_555
H112 C63 1_555 1_555
C64 C63 1_555 1_555
C65 C64 1_555 1_555
C66 C65 1_555 1_555
H113 C66 1_555 1_555
C67 C66 1_555 1_555
H114 C67 1_555 1_555
C68 H115 1_555 1_555
C69 C65 1_555 1_555
H116 C69 1_555 1_555
C70 C64 1_555 1_555
H117 C70 1_555 1_555
C71 C70 1_555 1_555
H118 C71 1_555 1_555
N1 Fe1 1_555 1_555
N2 C67 1_555 1_555
Fe6G N2 1_555 1_555
N2G Fe6 1_555 1_555
Fe4 O3 1_555 1_555
Fe5 O4 1_555 1_555
O4 C1 1_555 1_555
O6 C2 1_555 1_555
O8 C7 1_555 1_555
O10 C12 1_555 1_555
O12 C17 1_555 1_555
O14 C22 1_555 1_555
O16 C27 1_555 1_555
O18 C32 1_555 1_555
O20 C37 1_555 1_555
O22 C42 1_555 1_555
O24 C47 1_555 1_555
O26 C52 1_555 1_555
O28 C57 1_555 1_555
C62 N1 1_555 1_555
C68 C69 1_555 1_555
C68 N2 1_555 1_555
C71 N1 1_555 1_555

#END
