
#######################################################################
#
#                 Cambridge Crystallographic Data Centre
#                                CCDC 
#
#######################################################################
#
# If this CIF has been generated from an entry in the Cambridge 
# Structural Database, then it will include bibliographic, chemical, 
# crystal, experimental, refinement or atomic coordinate data resulting 
# from the CCDC's data processing and validation procedures.
#
#######################################################################

data_KEWJAZ
_symmetry_cell_setting           monoclinic
_symmetry_space_group_name_H-M   'P 21/n'
_symmetry_Int_Tables_number      14
_space_group_name_Hall           '-P 2yn'
loop_
_symmetry_equiv_pos_site_id
_symmetry_equiv_pos_as_xyz
1 x,y,z
2 1/2-x,1/2+y,1/2-z
3 -x,-y,-z
4 1/2+x,1/2-y,1/2+z
_cell_length_a                   15.192(3)
_cell_length_b                   24.745(4)
_cell_length_c                   23.761(4)
_cell_angle_alpha                90
_cell_angle_beta                 96.654(4)
_cell_angle_gamma                90
_cell_volume                     8872.21
loop_
_atom_site_label
_atom_site_type_symbol
_atom_site_fract_x
_atom_site_fract_y
_atom_site_fract_z
Fe1 Fe 0.30825(6) 0.17755(4) 0.61868(4)
Fe2 Fe 0.11409(6) 0.14984(4) 0.66035(4)
Fe3 Fe 0.30633(6) 0.10867(4) 0.73590(4)
Fe4 Fe 0.06532(6) 0.19347(4) 0.92233(4)
Fe5 Fe 0.23461(6) 0.13683(4) 0.87134(4)
Fe6 Fe 0.02962(6) 0.13892(4) 0.79581(4)
O1 O 0.2437(3) 0.14576(17) 0.67131(18)
O2 O 0.1090(3) 0.15766(18) 0.86304(17)
O3 O 0.2482(3) 0.15368(17) 0.79117(18)
O4 O 0.1111(3) 0.16674(18) 0.74212(18)
O5 O 0.2472(3) 0.14191(19) 0.54932(19)
O6 O 0.1100(3) 0.1375(2) 0.57515(19)
O7 O 0.2329(3) 0.24431(18) 0.60132(19)
O8 O 0.1116(3) 0.22996(19) 0.6438(2)
O9 O 0.1038(3) 0.07004(19) 0.66793(19)
O10 O 0.2210(3) 0.04721(18) 0.72890(19)
O11 O 0.3777(3) 0.06364(19) 0.6849(2)
O12 O 0.4037(3) 0.12121(19) 0.61618(19)
O13 O 0.4102(3) 0.1616(2) 0.74319(19)
O14 O 0.3898(3) 0.22230(18) 0.6732(2)
O15 O -0.0187(3) 0.1509(2) 0.64825(19)
O16 O -0.0537(3) 0.1157(2) 0.7294(2)
O17 O 0.3722(3) 0.06755(18) 0.8000(2)
O18 O 0.3598(3) 0.11062(19) 0.88076(19)
O19 O 0.1184(3) 0.14830(18) 0.98772(18)
O20 O 0.2454(3) 0.1246(2) 0.95691(19)
O21 O 0.1662(3) 0.24636(19) 0.9384(2)
O22 O 0.2737(3) 0.21322(19) 0.8916(2)
O23 O 0.1959(3) 0.05938(18) 0.86302(19)
O24 O 0.0677(3) 0.06139(19) 0.80590(19)
O25 O -0.0482(3) 0.1534(2) 0.9266(2)
O26 O -0.0733(3) 0.1185(2) 0.8401(2)
O27 O -0.0010(4) 0.2522(2) 0.8768(2)
O28 O -0.0265(3) 0.2145(2) 0.7911(2)
O29 O 0.3882(3) 0.21566(19) 0.55720(19)
O30 O 0.5152(3) 0.26174(19) 0.4941(2)
C1 C 0.1875(5) 0.1934(3) 0.7674(3)
H1 H 0.1719 0.2182 0.7973
H2 H 0.2145 0.2148 0.7387
C2 C 0.1662(6) 0.1302(3) 0.5402(3)
C3 C 0.1324(5) 0.1074(3) 0.4820(3)
C4 C 0.2013(6) 0.0677(4) 0.4639(4)
H3 H 0.2069 0.0369 0.4900
H4 H 0.2587 0.0860 0.4648
H5 H 0.1824 0.0550 0.4254
C5 C 0.1215(7) 0.1560(4) 0.4413(4)
H6 H 0.1790 0.1738 0.4404
H7 H 0.0793 0.1817 0.4545
H8 H 0.0994 0.1434 0.4032
C6 C 0.0427(5) 0.0788(4) 0.4835(3)
H9 H 0.0504 0.0477 0.5092
H10 H 0.0205 0.0664 0.4453
H11 H 0.0002 0.1041 0.4970
C7 C 0.1594(5) 0.2587(3) 0.6166(3)
C8 C 0.1304(5) 0.3175(3) 0.6065(3)
C9 C 0.1690(6) 0.3422(3) 0.5575(4)
H12 H 0.1455 0.3237 0.5225
H13 H 0.2337 0.3384 0.5632
H14 H 0.1533 0.3806 0.5548
C10 C 0.0316(6) 0.3221(4) 0.6016(5)
H15 H 0.0055 0.3031 0.5675
H16 H 0.0146 0.3603 0.5991
H17 H 0.0100 0.3059 0.6350
C11 C 0.1688(8) 0.3490(4) 0.6615(4)
H18 H 0.1522 0.3872 0.6577
H19 H 0.2336 0.3458 0.6667
H20 H 0.1446 0.3336 0.6945
C12 C 0.1558(5) 0.0359(3) 0.6935(3)
C13 C 0.1387(5) -0.0230(3) 0.6778(3)
C14 C 0.0393(5) -0.0348(3) 0.6746(4)
H21 H 0.0203 -0.0318 0.7126
H22 H 0.0274 -0.0715 0.6601
H23 H 0.0064 -0.0088 0.6492
C15 C 0.1941(6) -0.0601(3) 0.7190(3)
H24 H 0.1745 -0.0567 0.7567
H25 H 0.2566 -0.0498 0.7208
H26 H 0.1867 -0.0975 0.7060
C16 C 0.1688(6) -0.0280(3) 0.6179(3)
H27 H 0.2325 -0.0209 0.6200
H28 H 0.1365 -0.0017 0.5925
H29 H 0.1563 -0.0646 0.6033
C17 C 0.4151(5) 0.0769(3) 0.6422(3)
C18 C 0.4805(5) 0.0362(3) 0.6220(3)
C19 C 0.5404(6) 0.0620(4) 0.5825(4)
H30 H 0.5044 0.0747 0.5481
H31 H 0.5834 0.0353 0.5722
H32 H 0.5719 0.0926 0.6016
C20 C 0.5444(7) 0.0174(4) 0.6732(4)
H33 H 0.5864 -0.0087 0.6607
H34 H 0.5105 0.0004 0.7011
H35 H 0.5768 0.0486 0.6905
C21 C 0.4295(7) -0.0102(4) 0.5953(5)
H36 H 0.3897 0.0025 0.5626
H37 H 0.3946 -0.0267 0.6230
H38 H 0.4706 -0.0370 0.5828
C22 C 0.4279(4) 0.2051(3) 0.7204(3)
C23 C 0.5031(5) 0.2400(3) 0.7488(3)
C24 C 0.5287(6) 0.2219(4) 0.8093(3)
H39 H 0.4791 0.2284 0.8315
H40 H 0.5805 0.2424 0.8258
H41 H 0.5429 0.1833 0.8099
C25 C 0.4732(7) 0.2985(3) 0.7485(5)
H42 H 0.4233 0.3020 0.7709
H43 H 0.4547 0.3099 0.7094
H44 H 0.5223 0.3213 0.7649
C26 C 0.5811(6) 0.2316(5) 0.7150(4)
H45 H 0.5983 0.1934 0.7165
H46 H 0.6313 0.2537 0.7312
H47 H 0.5641 0.2423 0.6755
C27 C -0.0712(5) 0.1287(4) 0.6779(4)
C28 C -0.1664(6) 0.1183(5) 0.6503(4)
C29 C -0.2074(7) 0.1733(5) 0.6334(5)
H48 H -0.1758 0.1895 0.6039
H49 H -0.2027 0.1971 0.6666
H50 H -0.2700 0.1685 0.6189
C30 C -0.2212(8) 0.0955(7) 0.6943(5)
H51 H -0.1989 0.0596 0.7061
H52 H -0.2833 0.0927 0.6780
H53 H -0.2169 0.1196 0.7273
C31 C -0.1588(7) 0.0857(5) 0.5973(4)
H54 H -0.1340 0.0500 0.6078
H55 H -0.1198 0.1045 0.5737
H56 H -0.2176 0.0814 0.5761
C32 C 0.3953(4) 0.0760(3) 0.8515(3)
C33 C 0.4696(4) 0.0416(3) 0.8814(3)
C34 C 0.5290(5) 0.0764(3) 0.9234(3)
H57 H 0.5580 0.1042 0.9026
H58 H 0.5741 0.0535 0.9444
H59 H 0.4929 0.0937 0.9499
C35 C 0.4243(5) -0.0016(3) 0.9145(4)
H60 H 0.3911 0.0160 0.9424
H61 H 0.4694 -0.0255 0.9341
H62 H 0.3837 -0.0228 0.8882
C36 C 0.5228(5) 0.0156(4) 0.8378(3)
H63 H 0.5511 0.0439 0.8173
H64 H 0.4830 -0.0057 0.8110
H65 H 0.5684 -0.0080 0.8572
C37 C 0.1959(5) 0.1287(3) 0.9951(3)
C38 C 0.2325(4) 0.1121(3) 1.0544(3)
C39 C 0.1585(5) 0.0893(4) 1.0856(4)
H66 H 0.1357 0.0560 1.0669
H67 H 0.1106 0.1158 1.0850
H68 H 0.1818 0.0813 1.1249
C40 C 0.2684(7) 0.1635(4) 1.0839(4)
H69 H 0.3160 0.1782 1.0639
H70 H 0.2916 0.1552 1.1231
H71 H 0.2207 0.1902 1.0835
C41 C 0.3050(6) 0.0699(4) 1.0521(4)
H72 H 0.2797 0.0374 1.0329
H73 H 0.3303 0.0606 1.0907
H74 H 0.3515 0.0845 1.0311
C42 C 0.2408(6) 0.2491(3) 0.9209(3)
C43 C 0.3028(5) 0.2968(3) 0.9393(3)
C44 C 0.2489(6) 0.3430(3) 0.9598(4)
H75 H 0.2077 0.3566 0.9282
H76 H 0.2889 0.3721 0.9745
H77 H 0.2154 0.3300 0.9900
C45 C 0.3690(7) 0.2756(4) 0.9891(4)
H78 H 0.4101 0.3046 1.0025
H79 H 0.4024 0.2451 0.9761
H80 H 0.3363 0.2638 1.0201
C46 C 0.3553(7) 0.3131(4) 0.8918(4)
H81 H 0.3149 0.3270 0.8599
H82 H 0.3871 0.2817 0.8794
H83 H 0.3979 0.3413 0.9052
C47 C 0.1213(5) 0.0402(3) 0.8439(3)
C48 C 0.0927(4) -0.0110(3) 0.8735(3)
C49 C 0.0209(5) -0.0416(3) 0.8360(3)
H84 H 0.0451 -0.0545 0.8020
H85 H -0.0292 -0.0174 0.8250
H86 H 0.0008 -0.0724 0.8570
C50 C 0.0536(5) 0.0089(3) 0.9270(3)
H87 H 0.0342 -0.0222 0.9478
H88 H 0.0029 0.0326 0.9158
H89 H 0.0990 0.0289 0.9512
C51 C 0.1719(5) -0.0471(3) 0.8916(3)
H90 H 0.1971 -0.0601 0.8579
H91 H 0.1529 -0.0780 0.9129
H92 H 0.2169 -0.0265 0.9155
C52 C -0.0951(4) 0.1289(3) 0.8883(3)
C53 C -0.1885(4) 0.1120(3) 0.8997(3)
C54 C -0.2249(5) 0.0683(4) 0.8582(3)
H93 H -0.1875 0.0361 0.8635
H94 H -0.2251 0.0816 0.8193
H95 H -0.2856 0.0592 0.8650
C55 C -0.2448(5) 0.1633(3) 0.8929(4)
H96 H -0.2465 0.1767 0.8540
H97 H -0.2188 0.1910 0.9194
H98 H -0.3051 0.1552 0.9011
C56 C -0.1858(5) 0.0905(3) 0.9601(3)
H99 H -0.1500 0.0575 0.9640
H100 H -0.2462 0.0824 0.9683
H101 H -0.1595 0.1178 0.9868
C57 C -0.0302(6) 0.2532(4) 0.8249(4)
C58 C -0.0720(7) 0.3051(4) 0.8014(4)
C59 C 0.0079(9) 0.3400(5) 0.7897(6)
H102 H -0.0132 0.3750 0.7742
H103 H 0.0409 0.3215 0.7623
H104 H 0.0467 0.3457 0.8251
C60 C -0.1183(10) 0.2980(5) 0.7438(5)
H105 H -0.1719 0.2763 0.7456
H106 H -0.0791 0.2795 0.7201
H107 H -0.1348 0.3334 0.7275
C61 C -0.1125(9) 0.3384(5) 0.8436(4)
H108 H -0.1661 0.3206 0.8536
H109 H -0.1279 0.3741 0.8274
H110 H -0.0701 0.3426 0.8777
C62 C 0.4127(5) 0.1897(3) 0.5063(3)
H111 H 0.3727 0.2019 0.4729
H112 H 0.4069 0.1500 0.5096
C63 C 0.3964(5) 0.2738(3) 0.5521(3)
H113 H 0.3804 0.2915 0.5870
H114 H 0.3551 0.2869 0.5197
C64 C 0.5068(5) 0.2041(3) 0.4992(3)
H115 H 0.5468 0.1911 0.5323
H116 H 0.5242 0.1863 0.4648
C65 C 0.4899(5) 0.2884(3) 0.5434(3)
H117 H 0.4946 0.3281 0.5387
H118 H 0.5306 0.2777 0.5771
Fe4C Fe 0.56532(6) 0.30653(4) 0.42233(4)
O30C O 0.0152(3) 0.23826(19) 0.9941(2)
loop_
_geom_bond_atom_site_label_1
_geom_bond_atom_site_label_2
_geom_bond_site_symmetry_1
_geom_bond_site_symmetry_2
Fe1 O1 1_555 1_555
Fe2 O1 1_555 1_555
Fe3 O1 1_555 1_555
Fe4 O2 1_555 1_555
Fe5 O2 1_555 1_555
Fe6 O2 1_555 1_555
O3 Fe3 1_555 1_555
O4 Fe2 1_555 1_555
O5 Fe1 1_555 1_555
O6 Fe2 1_555 1_555
O7 Fe1 1_555 1_555
O8 Fe2 1_555 1_555
O9 Fe2 1_555 1_555
O10 Fe3 1_555 1_555
O11 Fe3 1_555 1_555
O12 Fe1 1_555 1_555
O13 Fe3 1_555 1_555
O14 Fe1 1_555 1_555
O15 Fe2 1_555 1_555
O16 Fe6 1_555 1_555
O17 Fe3 1_555 1_555
O18 Fe5 1_555 1_555
O19 Fe4 1_555 1_555
O20 Fe5 1_555 1_555
O21 Fe4 1_555 1_555
O22 Fe5 1_555 1_555
O23 Fe5 1_555 1_555
O24 Fe6 1_555 1_555
O25 Fe4 1_555 1_555
O26 Fe6 1_555 1_555
O27 Fe4 1_555 1_555
O28 Fe6 1_555 1_555
O29 Fe1 1_555 1_555
O30 C64 1_555 1_555
C1 O3 1_555 1_555
H1 C1 1_555 1_555
H2 C1 1_555 1_555
C2 O5 1_555 1_555
C3 C2 1_555 1_555
C4 C3 1_555 1_555
H3 C4 1_555 1_555
H4 C4 1_555 1_555
H5 C4 1_555 1_555
C5 C3 1_555 1_555
H6 C5 1_555 1_555
H7 C5 1_555 1_555
H8 C5 1_555 1_555
C6 C3 1_555 1_555
H9 C6 1_555 1_555
H10 C6 1_555 1_555
H11 C6 1_555 1_555
C7 O7 1_555 1_555
C8 C7 1_555 1_555
C9 C8 1_555 1_555
H12 C9 1_555 1_555
H13 C9 1_555 1_555
H14 C9 1_555 1_555
C10 C8 1_555 1_555
H15 C10 1_555 1_555
H16 C10 1_555 1_555
H17 C10 1_555 1_555
C11 C8 1_555 1_555
H18 C11 1_555 1_555
H19 C11 1_555 1_555
H20 C11 1_555 1_555
C12 O9 1_555 1_555
C13 C12 1_555 1_555
C14 C13 1_555 1_555
H21 C14 1_555 1_555
H22 C14 1_555 1_555
H23 C14 1_555 1_555
C15 C13 1_555 1_555
H24 C15 1_555 1_555
H25 C15 1_555 1_555
H26 C15 1_555 1_555
C16 C13 1_555 1_555
H27 C16 1_555 1_555
H28 C16 1_555 1_555
H29 C16 1_555 1_555
C17 O11 1_555 1_555
C18 C17 1_555 1_555
C19 C18 1_555 1_555
H30 C19 1_555 1_555
H31 C19 1_555 1_555
H32 C19 1_555 1_555
C20 C18 1_555 1_555
H33 C20 1_555 1_555
H34 C20 1_555 1_555
H35 C20 1_555 1_555
C21 C18 1_555 1_555
H36 C21 1_555 1_555
H37 C21 1_555 1_555
H38 C21 1_555 1_555
C22 O13 1_555 1_555
C23 C22 1_555 1_555
C24 C23 1_555 1_555
H39 C24 1_555 1_555
H40 C24 1_555 1_555
H41 C24 1_555 1_555
C25 C23 1_555 1_555
H42 C25 1_555 1_555
H43 C25 1_555 1_555
H44 C25 1_555 1_555
C26 C23 1_555 1_555
H45 C26 1_555 1_555
H46 C26 1_555 1_555
H47 C26 1_555 1_555
C27 O15 1_555 1_555
C28 C27 1_555 1_555
C29 C28 1_555 1_555
H48 C29 1_555 1_555
H49 C29 1_555 1_555
H50 C29 1_555 1_555
C30 C28 1_555 1_555
H51 C30 1_555 1_555
H52 C30 1_555 1_555
H53 C30 1_555 1_555
C31 C28 1_555 1_555
H54 C31 1_555 1_555
H55 C31 1_555 1_555
H56 C31 1_555 1_555
C32 O17 1_555 1_555
C33 C32 1_555 1_555
C34 C33 1_555 1_555
H57 C34 1_555 1_555
H58 C34 1_555 1_555
H59 C34 1_555 1_555
C35 C33 1_555 1_555
H60 C35 1_555 1_555
H61 C35 1_555 1_555
H62 C35 1_555 1_555
C36 C33 1_555 1_555
H63 C36 1_555 1_555
H64 C36 1_555 1_555
H65 C36 1_555 1_555
C37 O19 1_555 1_555
C38 C37 1_555 1_555
C39 C38 1_555 1_555
H66 C39 1_555 1_555
H67 C39 1_555 1_555
H68 C39 1_555 1_555
C40 C38 1_555 1_555
H69 C40 1_555 1_555
H70 C40 1_555 1_555
H71 C40 1_555 1_555
C41 C38 1_555 1_555
H72 C41 1_555 1_555
H73 C41 1_555 1_555
H74 C41 1_555 1_555
C42 O21 1_555 1_555
C43 C42 1_555 1_555
C44 C43 1_555 1_555
H75 C44 1_555 1_555
H76 C44 1_555 1_555
H77 C44 1_555 1_555
C45 C43 1_555 1_555
H78 C45 1_555 1_555
H79 C45 1_555 1_555
H80 C45 1_555 1_555
C46 C43 1_555 1_555
H81 C46 1_555 1_555
H82 C46 1_555 1_555
H83 C46 1_555 1_555
C47 O23 1_555 1_555
C48 C47 1_555 1_555
C49 C48 1_555 1_555
H84 C49 1_555 1_555
H85 C49 1_555 1_555
H86 C49 1_555 1_555
C50 C48 1_555 1_555
H87 C50 1_555 1_555
H88 C50 1_555 1_555
H89 C50 1_555 1_555
C51 C48 1_555 1_555
H90 C51 1_555 1_555
H91 C51 1_555 1_555
H92 C51 1_555 1_555
C52 O25 1_555 1_555
C53 C52 1_555 1_555
C54 C53 1_555 1_555
H93 C54 1_555 1_555
H94 C54 1_555 1_555
H95 C54 1_555 1_555
C55 C53 1_555 1_555
H96 C55 1_555 1_555
H97 C55 1_555 1_555
H98 C55 1_555 1_555
C56 C53 1_555 1_555
H99 C56 1_555 1_555
H100 C56 1_555 1_555
H101 C56 1_555 1_555
C57 O27 1_555 1_555
C58 C57 1_555 1_555
C59 C58 1_555 1_555
H102 C59 1_555 1_555
H103 C59 1_555 1_555
H104 C59 1_555 1_555
C60 C58 1_555 1_555
H105 C60 1_555 1_555
H106 C60 1_555 1_555
H107 C60 1_555 1_555
C61 C58 1_555 1_555
H108 C61 1_555 1_555
H109 C61 1_555 1_555
H110 C61 1_555 1_555
C62 O29 1_555 1_555
H111 C62 1_555 1_555
H112 C62 1_555 1_555
C63 O29 1_555 1_555
H113 C63 1_555 1_555
H114 C63 1_555 1_555
C64 C62 1_555 1_555
H115 C64 1_555 1_555
H116 C64 1_555 1_555
C65 O30 1_555 1_555
H117 C65 1_555 1_555
H118 C65 1_555 1_555
Fe4C O30 1_555 1_555
O30C Fe4 1_555 1_555
Fe5 O3 1_555 1_555
Fe6 O4 1_555 1_555
O4 C1 1_555 1_555
O6 C2 1_555 1_555
O8 C7 1_555 1_555
O10 C12 1_555 1_555
O12 C17 1_555 1_555
O14 C22 1_555 1_555
O16 C27 1_555 1_555
O18 C32 1_555 1_555
O20 C37 1_555 1_555
O22 C42 1_555 1_555
O24 C47 1_555 1_555
O26 C52 1_555 1_555
O28 C57 1_555 1_555
C63 C65 1_555 1_555

#END
