
#######################################################################
#
#                 Cambridge Crystallographic Data Centre
#                                CCDC 
#
#######################################################################
#
# If this CIF has been generated from an entry in the Cambridge 
# Structural Database, then it will include bibliographic, chemical, 
# crystal, experimental, refinement or atomic coordinate data resulting 
# from the CCDC's data processing and validation procedures.
#
#######################################################################

data_KEWMIK
_symmetry_cell_setting           monoclinic
_symmetry_space_group_name_H-M   'P 21/c'
_symmetry_Int_Tables_number      14
_space_group_name_Hall           '-P 2ybc'
loop_
_symmetry_equiv_pos_site_id
_symmetry_equiv_pos_as_xyz
1 x,y,z
2 -x,1/2+y,1/2-z
3 -x,-y,-z
4 x,1/2-y,1/2+z
_cell_length_a                   15.631(10)
_cell_length_b                   7.591(5)
_cell_length_c                   14.592(9)
_cell_angle_alpha                90
_cell_angle_beta                 93.045(11)
_cell_angle_gamma                90
_cell_volume                     1728.97
loop_
_atom_site_label
_atom_site_type_symbol
_atom_site_fract_x
_atom_site_fract_y
_atom_site_fract_z
Co1 Co 0.24263(6) 0.51066(14) 0.35217(7)
O1 O 0.3163(6) 0.5761(14) 0.2362(6)
O2 O 0.1956(6) 0.5059(13) 0.1997(5)
O3 O 0.2759(5) 0.5535(12) 0.0921(5)
O4 O 0.3143(6) 0.2324(14) 0.3548(7)
O5 O 0.1902(5) 0.2446(10) 0.3929(6)
O6 O 0.2476(6) -0.0035(9) 0.3665(7)
N1 N 0.3367(4) 0.6157(8) 0.4351(4)
N2 N 0.4499(4) 0.7798(8) 0.4775(4)
N3 N 0.1332(3) 0.6128(8) 0.3946(4)
N4 N 0.0436(4) 0.7799(7) 0.4705(4)
N5 N 0.2639(6) 0.5496(12) 0.1714(6)
N6 N 0.2495(5) 0.1500(10) 0.3711(5)
C1 C 0.3879(5) 0.7463(10) 0.4118(5)
H1 H 0.3817 0.8076 0.3567
C2 C 0.3683(4) 0.5595(9) 0.5215(5)
C3 C 0.3415(5) 0.4243(11) 0.5769(6)
H2 H 0.2944 0.3549 0.5595
C4 C 0.3879(6) 0.3968(13) 0.6592(6)
H3 H 0.3710 0.3077 0.6982
C5 C 0.4584(6) 0.4980(12) 0.6849(6)
H4 H 0.4880 0.4746 0.7406
C6 C 0.4863(5) 0.6324(11) 0.6309(5)
H5 H 0.5341 0.7001 0.6483
C7 C 0.4393(4) 0.6616(9) 0.5486(5)
C8 C 0.5143(5) 0.9185(10) 0.4754(6)
H6 H 0.5244 0.9478 0.4121
H7 H 0.5678 0.8764 0.5043
C9 C 0.1259(5) 0.7400(10) 0.4557(5)
H8 H 0.1725 0.7960 0.4853
C10 C -0.0074(4) 0.6686(9) 0.4146(4)
C11 C -0.0955(5) 0.6528(10) 0.4024(5)
H9 H -0.1327 0.7233 0.4339
C12 C -0.1247(5) 0.5266(11) 0.3408(6)
H10 H -0.1834 0.5106 0.3308
C13 C -0.0694(5) 0.4226(11) 0.2933(5)
H11 H -0.0920 0.3400 0.2516
C14 C 0.0180(5) 0.4379(10) 0.3059(5)
H12 H 0.0548 0.3665 0.2744
C15 C 0.0492(4) 0.5644(9) 0.3677(4)
C16 C 0.0137(5) 0.9203(10) 0.5290(5)
H13 H 0.0592 0.9539 0.5733
H14 H -0.0344 0.8785 0.5624
N1B N 0.6633(4) 1.3843(8) 0.5649(4)
N2B N 0.5501(4) 1.2202(8) 0.5225(4)
C1B C 0.6121(5) 1.2537(10) 0.5882(5)
H1B H 0.6183 1.1924 0.6433
C2B C 0.6317(4) 1.4405(9) 0.4785(5)
C3B C 0.6585(5) 1.5757(11) 0.4231(6)
H2B H 0.7056 1.6451 0.4405
C4B C 0.6121(6) 1.6032(13) 0.3408(6)
H3B H 0.6290 1.6923 0.3018
C5B C 0.5416(6) 1.5020(12) 0.3151(6)
H4B H 0.5120 1.5254 0.2594
C6B C 0.5137(5) 1.3676(11) 0.3691(5)
H5B H 0.4659 1.2999 0.3517
C7B C 0.5607(4) 1.3384(9) 0.4514(5)
C8B C 0.4857(5) 1.0815(10) 0.5246(6)
H6B H 0.4756 1.0522 0.5879
H7B H 0.4322 1.1236 0.4957
N3B N -0.1332(3) 1.3872(8) 0.6054(4)
N4B N -0.0436(4) 1.2201(7) 0.5295(4)
C9B C -0.1259(5) 1.2600(10) 0.5443(5)
H8B H -0.1725 1.2040 0.5147
C10B C 0.0074(4) 1.3314(9) 0.5854(4)
C11B C 0.0955(5) 1.3472(10) 0.5976(5)
H9B H 0.1327 1.2767 0.5661
C12B C 0.1247(5) 1.4734(11) 0.6592(6)
H10B H 0.1834 1.4894 0.6692
C13B C 0.0694(5) 1.5774(11) 0.7067(5)
H11B H 0.0920 1.6600 0.7484
C14B C -0.0180(5) 1.5621(10) 0.6941(5)
H12B H -0.0548 1.6335 0.7256
C15B C -0.0492(4) 1.4356(9) 0.6323(4)
C16B C -0.0137(5) 1.0797(10) 0.4710(5)
H13B H -0.0592 1.0461 0.4267
H14B H 0.0344 1.1215 0.4376
Co1B Co -0.24263(6) 1.48934(14) 0.64783(7)
O1B O -0.3163(6) 1.4239(14) 0.7638(6)
O2B O -0.1956(6) 1.4941(13) 0.8003(5)
O3B O -0.2759(5) 1.4465(12) 0.9079(5)
O4B O -0.3143(6) 1.7676(14) 0.6452(7)
O5B O -0.1902(5) 1.7554(10) 0.6071(6)
O6B O -0.2476(6) 2.0035(9) 0.6335(7)
N5B N -0.2639(6) 1.4504(12) 0.8286(6)
N6B N -0.2495(5) 1.8500(10) 0.6289(5)
Co1B_2 Co 0.75737(6) 1.48934(14) 0.64783(7)
N1B_2 N -0.3367(4) 1.3843(8) 0.5649(4)
loop_
_geom_bond_atom_site_label_1
_geom_bond_atom_site_label_2
_geom_bond_site_symmetry_1
_geom_bond_site_symmetry_2
Co1 O1 1_555 1_555
O1 N5 1_555 1_555
O2 Co1 1_555 1_555
O3 N5 1_555 1_555
O4 Co1 1_555 1_555
O5 Co1 1_555 1_555
O6 N6 1_555 1_555
N1 Co1 1_555 1_555
N2 C1 1_555 1_555
N3 Co1 1_555 1_555
N4 C9 1_555 1_555
N5 O2 1_555 1_555
N6 O4 1_555 1_555
C1 N1 1_555 1_555
H1 C1 1_555 1_555
C2 N1 1_555 1_555
C3 C2 1_555 1_555
H2 C3 1_555 1_555
C4 C3 1_555 1_555
H3 C4 1_555 1_555
C5 C4 1_555 1_555
H4 C5 1_555 1_555
C6 C5 1_555 1_555
H5 C6 1_555 1_555
C7 N2 1_555 1_555
C8 N2 1_555 1_555
H6 C8 1_555 1_555
H7 C8 1_555 1_555
C9 N3 1_555 1_555
H8 C9 1_555 1_555
C10 N4 1_555 1_555
C11 C10 1_555 1_555
H9 C11 1_555 1_555
C12 C11 1_555 1_555
H10 C12 1_555 1_555
C13 C12 1_555 1_555
H11 C13 1_555 1_555
C14 C13 1_555 1_555
H12 C14 1_555 1_555
C15 N3 1_555 1_555
C16 N4 1_555 1_555
H13 C16 1_555 1_555
H14 C16 1_555 1_555
N1B C1B 1_555 1_555
N2B C1B 1_555 1_555
C1B H1B 1_555 1_555
C2B N1B 1_555 1_555
C3B C2B 1_555 1_555
H2B C3B 1_555 1_555
C4B C3B 1_555 1_555
H3B C4B 1_555 1_555
C5B C4B 1_555 1_555
H4B C5B 1_555 1_555
C6B C5B 1_555 1_555
H5B C6B 1_555 1_555
C7B N2B 1_555 1_555
C8B C8 1_555 1_555
H6B C8B 1_555 1_555
H7B C8B 1_555 1_555
N3B C9B 1_555 1_555
N4B C9B 1_555 1_555
C9B H8B 1_555 1_555
C10B N4B 1_555 1_555
C11B C10B 1_555 1_555
H9B C11B 1_555 1_555
C12B C11B 1_555 1_555
H10B C12B 1_555 1_555
C13B C12B 1_555 1_555
H11B C13B 1_555 1_555
C14B C13B 1_555 1_555
H12B C14B 1_555 1_555
C15B N3B 1_555 1_555
C16B C16 1_555 1_555
H13B C16B 1_555 1_555
H14B C16B 1_555 1_555
Co1B N3B 1_555 1_555
O1B Co1B 1_555 1_555
O2B Co1B 1_555 1_555
O3B N5B 1_555 1_555
O4B Co1B 1_555 1_555
O5B Co1B 1_555 1_555
O6B N6B 1_555 1_555
N5B O1B 1_555 1_555
N6B O4B 1_555 1_555
Co1B_2 N1B 1_555 1_555
N1B_2 Co1B 1_555 1_555
O5 N6 1_555 1_555
C2 C7 1_555 1_555
C6 C7 1_555 1_555
C10 C15 1_555 1_555
C14 C15 1_555 1_555
N2B C8B 1_555 1_555
C2B C7B 1_555 1_555
C6B C7B 1_555 1_555
N4B C16B 1_555 1_555
C10B C15B 1_555 1_555
C14B C15B 1_555 1_555
O2B N5B 1_555 1_555
O5B N6B 1_555 1_555

#END
