
#######################################################################
#
#                 Cambridge Crystallographic Data Centre
#                                CCDC 
#
#######################################################################
#
# If this CIF has been generated from an entry in the Cambridge 
# Structural Database, then it will include bibliographic, chemical, 
# crystal, experimental, refinement or atomic coordinate data resulting 
# from the CCDC's data processing and validation procedures.
#
#######################################################################

data_KEWMUW
_symmetry_cell_setting           triclinic
_symmetry_space_group_name_H-M   'P -1'
_symmetry_Int_Tables_number      2
_space_group_name_Hall           '-P 1'
loop_
_symmetry_equiv_pos_site_id
_symmetry_equiv_pos_as_xyz
1 x,y,z
2 -x,-y,-z
_cell_length_a                   9.9683(16)
_cell_length_b                   11.4202(18)
_cell_length_c                   14.055(2)
_cell_angle_alpha                74.597(3)
_cell_angle_beta                 82.378(3)
_cell_angle_gamma                83.560(3)
_cell_volume                     1523.96
loop_
_atom_site_label
_atom_site_type_symbol
_atom_site_fract_x
_atom_site_fract_y
_atom_site_fract_z
Co1 Co 0.44478(12) 0.80680(10) 0.18891(8)
O1 O 0.4742(6) 0.8313(5) 0.3174(4)
O2 O 0.4859(8) 1.0231(7) 0.2346(5)
O3 O 0.2758(8) 0.9031(6) 0.1543(6)
O4 O 0.3339(8) 0.8278(8) 0.0249(7)
N1 N 0.6223(7) 0.7990(6) 0.1031(5)
N2 N 0.7716(7) 0.7784(6) -0.0257(5)
N3 N 0.6581(7) 0.5479(6) -0.2094(5)
N4 N 0.6055(7) 0.3711(6) -0.2269(5)
C1 C 0.7458(9) 0.7412(7) 0.1384(6)
C2 C 0.8386(9) 0.7286(7) 0.0574(6)
C3 C 0.9708(9) 0.6740(8) 0.0706(8)
H1 H 1.0322 0.6629 0.0172
C4 C 1.0043(11) 0.6381(8) 0.1654(9)
H2 H 1.0917 0.6038 0.1768
C5 C 0.9113(11) 0.6514(9) 0.2460(8)
H3 H 0.9385 0.6250 0.3096
C6 C 0.7817(10) 0.7020(8) 0.2347(7)
H4 H 0.7203 0.7098 0.2890
C7 C 0.6442(8) 0.8179(7) 0.0053(6)
H5 H 0.5791 0.8543 -0.0374
C8 C 0.8248(9) 0.7844(8) -0.1285(6)
H6 H 0.9191 0.8028 -0.1384
H7 H 0.7746 0.8503 -0.1718
C9 C 0.8152(9) 0.6661(7) -0.1572(6)
H8 H 0.8666 0.6692 -0.2214
H9 H 0.8546 0.5982 -0.1088
C10 C 0.6697(9) 0.6461(7) -0.1622(7)
H10 H 0.6233 0.6263 -0.0955
H11 H 0.6251 0.7210 -0.1992
C11 C 0.6869(11) 0.5524(8) -0.3097(6)
C12 C 0.6504(10) 0.4416(7) -0.3185(6)
C13 C 0.6647(13) 0.4175(9) -0.4108(7)
H12 H 0.6405 0.3445 -0.4186
C14 C 0.7163(15) 0.5058(13) -0.4911(11)
H13 H 0.7319 0.4900 -0.5534
C15 C 0.7461(14) 0.6212(12) -0.4801(10)
H14 H 0.7726 0.6818 -0.5361
C16 C 0.7361(14) 0.6431(9) -0.3880(7)
H15 H 0.7612 0.7152 -0.3790
C17 C 0.6098(9) 0.4387(7) -0.1649(6)
H16 H 0.5824 0.4137 -0.0972
C18 C 0.2568(13) 0.8916(8) 0.0727(9)
C19 C 0.1223(10) 0.9485(7) 0.0335(9)
C20 C 0.0122(12) 0.9685(8) 0.0993(8)
H17 H 0.0211 0.9472 0.1670
C21 C 0.1126(11) 0.9797(8) -0.0664(9)
H18 H 0.1869 0.9669 -0.1110
C22 C 0.4850(10) 0.9441(9) 0.3128(7)
C23 C 0.4942(9) 0.9706(7) 0.4102(6)
C24 C 0.5081(11) 1.0895(8) 0.4132(7)
H19 H 0.5121 1.1515 0.3548
C25 C 0.4840(11) 0.8845(9) 0.4975(7)
H20 H 0.4712 0.8052 0.4973
O1A O 0.5258(6) 1.1687(5) 0.6826(4)
O2A O 0.5141(8) 0.9769(7) 0.7654(5)
C22A C 0.5150(10) 1.0559(9) 0.6872(7)
C23A C 0.5058(9) 1.0294(7) 0.5898(6)
C24A C 0.4919(11) 0.9105(8) 0.5868(7)
H19A H 0.4879 0.8485 0.6452
C25A C 0.5160(11) 1.1155(9) 0.5025(7)
H20A H 0.5288 1.1948 0.5027
O3A O -0.2758(8) 1.0969(6) -0.1543(6)
O4A O -0.3339(8) 1.1722(8) -0.0249(7)
C18A C -0.2568(13) 1.1084(8) -0.0727(9)
C19A C -0.1223(10) 1.0515(7) -0.0335(9)
C20A C -0.0122(12) 1.0315(8) -0.0993(8)
H17A H -0.0211 1.0528 -0.1670
C21A C -0.1126(11) 1.0203(8) 0.0664(9)
H18A H -0.1869 1.0331 0.1110
Co1A Co -0.44478(12) 1.19320(10) -0.18891(8)
N1A N -0.6223(7) 1.2010(6) -0.1031(5)
N2A N -0.7716(7) 1.2216(6) 0.0257(5)
N3A N -0.6581(7) 1.4521(6) 0.2094(5)
N4A N -0.6055(7) 1.6289(6) 0.2269(5)
C1A C -0.7458(9) 1.2588(7) -0.1384(6)
C2A C -0.8386(9) 1.2714(7) -0.0574(6)
C3A C -0.9708(9) 1.3260(8) -0.0706(8)
H1A H -1.0322 1.3371 -0.0172
C4A C -1.0043(11) 1.3619(8) -0.1654(9)
H2A H -1.0917 1.3962 -0.1768
C5A C -0.9113(11) 1.3486(9) -0.2460(8)
H3A H -0.9385 1.3750 -0.3096
C6A C -0.7817(10) 1.2980(8) -0.2347(7)
H4A H -0.7203 1.2902 -0.2890
C7A C -0.6442(8) 1.1821(7) -0.0053(6)
H5A H -0.5791 1.1457 0.0374
C8A C -0.8248(9) 1.2156(8) 0.1285(6)
H6A H -0.9191 1.1972 0.1384
H7A H -0.7746 1.1497 0.1718
C9A C -0.8152(9) 1.3339(7) 0.1572(6)
H8A H -0.8666 1.3308 0.2214
H9A H -0.8546 1.4018 0.1088
C10A C -0.6697(9) 1.3539(7) 0.1622(7)
H10A H -0.6233 1.3737 0.0955
H11A H -0.6251 1.2790 0.1992
C11A C -0.6869(11) 1.4476(8) 0.3097(6)
C12A C -0.6504(10) 1.5584(7) 0.3185(6)
C13A C -0.6647(13) 1.5825(9) 0.4108(7)
H12A H -0.6405 1.6555 0.4186
C14A C -0.7163(15) 1.4942(13) 0.4911(11)
H13A H -0.7319 1.5100 0.5534
C15A C -0.7461(14) 1.3788(12) 0.4801(10)
H14A H -0.7726 1.3182 0.5361
C16A C -0.7361(14) 1.3569(9) 0.3880(7)
H15A H -0.7612 1.2848 0.3790
C17A C -0.6098(9) 1.5613(7) 0.1649(6)
H16A H -0.5824 1.5863 0.0972
Co1_2 Co -0.55522(12) 1.80680(10) 0.18891(8)
Co1A_2 Co 0.55522(12) 0.19320(10) -0.18891(8)
Co1A_3 Co 0.55522(12) 1.19320(10) 0.81109(8)
O1A_2 O -0.4742(6) 1.1687(5) -0.3174(4)
N4_2 N -0.3945(7) 1.3711(6) -0.2269(5)
N4A_2 N 0.3945(7) 0.6289(6) 0.2269(5)
O5 O 0.025(2) 1.1522(16) 0.3534(10)
N5 N 0.0101(13) 0.9559(11) 0.3824(6)
C26 C 0.0913(18) 1.0506(18) 0.3694(7)
H21 H 0.1847 1.0399 0.3723
C27 C -0.1295(16) 0.9601(17) 0.3799(12)
H22 H -0.1713 0.9210 0.4444
H23 H -0.1476 0.9187 0.3324
H24 H -0.1657 1.0435 0.3613
C28 C 0.083(2) 0.8282(16) 0.4024(13)
H25 H 0.1779 0.8334 0.4055
H26 H 0.0730 0.7917 0.3498
H27 H 0.0445 0.7791 0.4644
O6 O 0.3261(12) 0.5600(11) 0.9445(9)
C29 C 0.2645(18) 0.6085(14) 0.7729(11)
H28 H 0.3484 0.5923 0.7346
H29 H 0.2150 0.6791 0.7358
H30 H 0.2113 0.5396 0.7874
C30 C 0.2935(8) 0.6307(9) 0.8665(9)
C31 C 0.2777(14) 0.7628(9) 0.8564(10)
H31 H 0.2810 0.7784 0.9199
H32 H 0.1920 0.7956 0.8324
H33 H 0.3499 0.8007 0.8103
loop_
_geom_bond_atom_site_label_1
_geom_bond_atom_site_label_2
_geom_bond_site_symmetry_1
_geom_bond_site_symmetry_2
Co1 O1 1_555 1_555
O1 C22 1_555 1_555
O2 C22 1_555 1_555
O3 Co1 1_555 1_555
O4 C18 1_555 1_555
N1 Co1 1_555 1_555
N2 C2 1_555 1_555
N3 C10 1_555 1_555
N4 C12 1_555 1_555
C1 N1 1_555 1_555
C2 C1 1_555 1_555
C3 C2 1_555 1_555
H1 C3 1_555 1_555
C4 C3 1_555 1_555
H2 C4 1_555 1_555
C5 C4 1_555 1_555
H3 C5 1_555 1_555
C6 C1 1_555 1_555
H4 C6 1_555 1_555
C7 N1 1_555 1_555
H5 C7 1_555 1_555
C8 N2 1_555 1_555
H6 C8 1_555 1_555
H7 C8 1_555 1_555
C9 C8 1_555 1_555
H8 C9 1_555 1_555
H9 C9 1_555 1_555
C10 C9 1_555 1_555
H10 C10 1_555 1_555
H11 C10 1_555 1_555
C11 N3 1_555 1_555
C12 C11 1_555 1_555
C13 C12 1_555 1_555
H12 C13 1_555 1_555
C14 C13 1_555 1_555
H13 C14 1_555 1_555
C15 C14 1_555 1_555
H14 C15 1_555 1_555
C16 C11 1_555 1_555
H15 C16 1_555 1_555
C17 N3 1_555 1_555
H16 C17 1_555 1_555
C18 O3 1_555 1_555
C19 C18 1_555 1_555
C20 C19 1_555 1_555
H17 C20 1_555 1_555
C21 C19 1_555 1_555
H18 C21 1_555 1_555
C22 C23 1_555 1_555
C23 C24 1_555 1_555
C24 H19 1_555 1_555
C25 C23 1_555 1_555
H20 C25 1_555 1_555
O5 C26 1_555 1_555
N5 C26 1_555 1_555
C26 H21 1_555 1_555
C27 N5 1_555 1_555
H22 C27 1_555 1_555
H23 C27 1_555 1_555
H24 C27 1_555 1_555
C28 N5 1_555 1_555
H25 C28 1_555 1_555
H26 C28 1_555 1_555
H27 C28 1_555 1_555
O6 C30 1_555 1_555
C29 H28 1_555 1_555
H29 C29 1_555 1_555
H30 C29 1_555 1_555
C30 C29 1_555 1_555
C31 C30 1_555 1_555
H31 C31 1_555 1_555
H32 C31 1_555 1_555
H33 C31 1_555 1_555
O1A C22A 1_555 1_555
O2A C22A 1_555 1_555
C22A C23A 1_555 1_555
C23A C24A 1_555 1_555
C24A C25 1_555 1_555
H19A C24A 1_555 1_555
C25A C24 1_555 1_555
H20A C25A 1_555 1_555
O3A C18A 1_555 1_555
O4A C18A 1_555 1_555
C18A C19A 1_555 1_555
C19A C20A 1_555 1_555
C20A C21 1_555 1_555
H17A C20A 1_555 1_555
C21A C20 1_555 1_555
H18A C21A 1_555 1_555
Co1A O3A 1_555 1_555
N1A Co1A 1_555 1_555
N2A C2A 1_555 1_555
N3A C10A 1_555 1_555
N4A C12A 1_555 1_555
C1A N1A 1_555 1_555
C2A C1A 1_555 1_555
C3A C2A 1_555 1_555
H1A C3A 1_555 1_555
C4A C3A 1_555 1_555
H2A C4A 1_555 1_555
C5A C4A 1_555 1_555
H3A C5A 1_555 1_555
C6A C1A 1_555 1_555
H4A C6A 1_555 1_555
C7A N1A 1_555 1_555
H5A C7A 1_555 1_555
C8A N2A 1_555 1_555
H6A C8A 1_555 1_555
H7A C8A 1_555 1_555
C9A C8A 1_555 1_555
H8A C9A 1_555 1_555
H9A C9A 1_555 1_555
C10A C9A 1_555 1_555
H10A C10A 1_555 1_555
H11A C10A 1_555 1_555
C11A N3A 1_555 1_555
C12A C11A 1_555 1_555
C13A C12A 1_555 1_555
H12A C13A 1_555 1_555
C14A C13A 1_555 1_555
H13A C14A 1_555 1_555
C15A C14A 1_555 1_555
H14A C15A 1_555 1_555
C16A C11A 1_555 1_555
H15A C16A 1_555 1_555
C17A N3A 1_555 1_555
H16A C17A 1_555 1_555
Co1_2 N4A 1_555 1_555
Co1A_2 N4 1_555 1_555
Co1A_3 O1A 1_555 1_555
O1A_2 Co1A 1_555 1_555
N4_2 Co1A 1_555 1_555
N4A_2 Co1 1_555 1_555
N2 C7 1_555 1_555
N4 C17 1_555 1_555
C5 C6 1_555 1_555
C15 C16 1_555 1_555
C23A C25A 1_555 1_555
C19A C21A 1_555 1_555
N2A C7A 1_555 1_555
N4A C17A 1_555 1_555
C5A C6A 1_555 1_555
C15A C16A 1_555 1_555

#END
