
#######################################################################
#
#                 Cambridge Crystallographic Data Centre
#                                CCDC 
#
#######################################################################
#
# If this CIF has been generated from an entry in the Cambridge 
# Structural Database, then it will include bibliographic, chemical, 
# crystal, experimental, refinement or atomic coordinate data resulting 
# from the CCDC's data processing and validation procedures.
#
#######################################################################

data_KEWZAP
_symmetry_cell_setting           monoclinic
_symmetry_space_group_name_H-M   'P 21/c'
_symmetry_Int_Tables_number      14
_space_group_name_Hall           '-P 2ybc'
loop_
_symmetry_equiv_pos_site_id
_symmetry_equiv_pos_as_xyz
1 x,y,z
2 -x,1/2+y,1/2-z
3 -x,-y,-z
4 x,1/2-y,1/2+z
_cell_length_a                   15.0489(9)
_cell_length_b                   15.3344(9)
_cell_length_c                   13.6296(7)
_cell_angle_alpha                90
_cell_angle_beta                 116.0300(10)
_cell_angle_gamma                90
_cell_volume                     2826.21
loop_
_atom_site_label
_atom_site_type_symbol
_atom_site_fract_x
_atom_site_fract_y
_atom_site_fract_z
N1 N 0.877(2) 0.408(2) 0.942(2)
H12 H 0.8369 0.3644 0.9201
C19 C 0.935(3) 0.423(3) 1.050(3)
H13 H 0.9202 0.3808 1.0931
H14 H 0.9215 0.4806 1.0690
H15 H 1.0030 0.4189 1.0652
C20 C 0.885(3) 0.464(2) 0.873(3)
H16 H 0.8407 0.4470 0.7995
H17 H 0.9516 0.4633 0.8811
H18 H 0.8683 0.5212 0.8871
O11 O 0.7806(18) 0.3153(16) 0.8492(19)
N2 N 0.5018(17) 0.5009(14) 0.7342(18)
H19 H 0.4588 0.5335 0.7418
C21 C 0.527(2) 0.5177(18) 0.656(2)
H20 H 0.4908 0.5675 0.6154
H21 H 0.5123 0.4682 0.6083
H22 H 0.5966 0.5298 0.6869
C22 C 0.540(2) 0.4371(18) 0.800(2)
H23 H 0.5087 0.4324 0.8479
H24 H 0.6093 0.4468 0.8419
H25 H 0.5295 0.3841 0.7587
N3 N 0.2637(15) 0.7070(14) 0.4258(17)
H26 H 0.2334 0.7267 0.3603
C23 C 0.3543(18) 0.7576(17) 0.497(2)
H27 H 0.3661 0.8023 0.4552
H28 H 0.4102 0.7190 0.5271
H29 H 0.3447 0.7839 0.5560
C24 C 0.2217(19) 0.6366(17) 0.446(2)
H30 H 0.1671 0.6181 0.3793
H31 H 0.1983 0.6508 0.4989
H32 H 0.2694 0.5905 0.4731
Mn1 Mn 0.24180(4) 0.54103(4) 0.73892(5)
Mn2 Mn 0.0000 0.5000 0.5000
O1 O 0.2786(3) 0.4556(3) 0.6416(3)
O2 O 0.1333(2) 0.4559(2) 0.4940(3)
O3 O 0.5036(5) 0.2059(5) 0.6672(6)
H1 H 0.5439 0.2422 0.6678
O4 O 0.4655(3) 0.1204(3) 0.5201(3)
O5 O -0.0966(2) 0.09957(19) -0.1204(2)
O6 O -0.1607(3) 0.1524(2) -0.2872(3)
O7 O 0.1665(3) 0.4457(3) -0.2219(3)
O8 O 0.0232(2) 0.4094(2) -0.3627(2)
O9 O 0.3703(3) 0.5219(3) 0.8915(3)
H2 H 0.4105 0.5607 0.9001
H3 H 0.3806 0.4634 0.9225
O10 O 0.3214(4) 0.6480(3) 0.7099(4)
H4 H 0.3808 0.6375 0.7393
H5 H 0.3065 0.6979 0.7381
C1 C 0.2546(3) 0.3052(3) 0.3271(3)
C2 C 0.2190(3) 0.3639(3) 0.3792(3)
H6 H 0.1672 0.4011 0.3381
C3 C 0.2605(3) 0.3670(3) 0.4924(3)
C4 C 0.3366(3) 0.3097(3) 0.5539(4)
H7 H 0.3656 0.3125 0.6298
C5 C 0.3691(4) 0.2480(4) 0.5015(4)
C6 C 0.3287(3) 0.2458(3) 0.3883(4)
H8 H 0.3508 0.2051 0.3535
C7 C 0.2107(4) 0.3037(3) 0.2095(4)
C8 C 0.1710(4) 0.3038(3) 0.1126(3)
C9 C 0.1136(3) 0.2959(3) -0.0046(3)
C10 C 0.0408(3) 0.2333(3) -0.0428(3)
H9 H 0.0302 0.1978 0.0064
C11 C -0.0169(3) 0.2227(3) -0.1539(3)
C12 C -0.0028(3) 0.2774(3) -0.2276(3)
H10 H -0.0425 0.2714 -0.3022
C13 C 0.0708(3) 0.3411(3) -0.1896(3)
C14 C 0.1302(3) 0.3492(3) -0.0774(3)
H11 H 0.1809 0.3902 -0.0514
C15 C 0.2197(3) 0.4307(3) 0.5464(4)
C16 C 0.4471(5) 0.1828(5) 0.5668(4)
C17 C -0.0948(3) 0.1544(3) -0.1905(3)
C18 C 0.0874(3) 0.4032(3) -0.2658(3)
Mn1B Mn -0.24180(4) 0.45897(4) -0.73892(5)
O1B O -0.2786(3) 0.5444(3) -0.6416(3)
O2B O -0.1333(2) 0.5441(2) -0.4940(3)
O3B O -0.5036(5) 0.7941(5) -0.6672(6)
H1B H -0.5439 0.7578 -0.6678
O4B O -0.4655(3) 0.8796(3) -0.5201(3)
O5B O 0.0966(2) 0.90043(19) 0.1204(2)
O6B O 0.1607(3) 0.8476(2) 0.2872(3)
O7B O -0.1665(3) 0.5543(3) 0.2219(3)
O8B O -0.0232(2) 0.5906(2) 0.3627(2)
O9B O -0.3703(3) 0.4781(3) -0.8915(3)
H2B H -0.4105 0.4393 -0.9001
H3B H -0.3806 0.5366 -0.9225
O10B O -0.3214(4) 0.3520(3) -0.7099(4)
H4B H -0.3808 0.3625 -0.7393
H5B H -0.3065 0.3021 -0.7381
C1B C -0.2546(3) 0.6948(3) -0.3271(3)
C2B C -0.2190(3) 0.6361(3) -0.3792(3)
H6B H -0.1672 0.5989 -0.3381
C3B C -0.2605(3) 0.6330(3) -0.4924(3)
C4B C -0.3366(3) 0.6903(3) -0.5539(4)
H7B H -0.3656 0.6875 -0.6298
C5B C -0.3691(4) 0.7520(4) -0.5015(4)
C6B C -0.3287(3) 0.7542(3) -0.3883(4)
H8B H -0.3508 0.7949 -0.3535
C7B C -0.2107(4) 0.6963(3) -0.2095(4)
C8B C -0.1710(4) 0.6962(3) -0.1126(3)
C9B C -0.1136(3) 0.7041(3) 0.0046(3)
C10B C -0.0408(3) 0.7667(3) 0.0428(3)
H9B H -0.0302 0.8022 -0.0064
C11B C 0.0169(3) 0.7773(3) 0.1539(3)
C12B C 0.0028(3) 0.7226(3) 0.2276(3)
H10B H 0.0425 0.7286 0.3022
C13B C -0.0708(3) 0.6589(3) 0.1896(3)
C14B C -0.1302(3) 0.6508(3) 0.0774(3)
H11B H -0.1809 0.6098 0.0514
C15B C -0.2197(3) 0.5693(3) -0.5464(4)
C16B C -0.4471(5) 0.8172(5) -0.5668(4)
C17B C 0.0948(3) 0.8456(3) 0.1905(3)
C18B C -0.0874(3) 0.5968(3) 0.2658(3)
Mn1_2 Mn 0.24180(4) 0.54103(4) -0.26108(5)
Mn1A Mn -0.24180(4) 0.04103(4) -0.23892(5)
Mn1B_2 Mn -0.24180(4) 0.45897(4) 0.26108(5)
Mn1C Mn 0.24180(4) 0.95897(4) 0.23892(5)
Mn2_2 Mn 0.0000 0.5000 -0.5000
Mn2A Mn 0.0000 0.0000 0.0000
Mn2A_2 Mn 0.0000 1.0000 0.0000
O2B_2 O -0.1333(2) 0.5441(2) 0.5060(3)
O5A O 0.0966(2) 0.59957(19) 0.6204(2)
O5C O -0.0966(2) 0.40043(19) -0.6204(2)
O5C_2 O -0.0966(2) 0.40043(19) 0.3796(2)
O6A O 0.1607(3) 0.6524(2) 0.7872(3)
O6C O -0.1607(3) 0.3476(2) -0.7872(3)
O7_2 O 0.1665(3) 0.4457(3) 0.7781(3)
O7B_2 O -0.1665(3) 0.5543(3) -0.7781(3)
O8_2 O 0.0232(2) 0.4094(2) 0.6373(2)
O12? O 0.4607(10) 0.1681(9) 0.6716(10)
H33? H 0.4969 0.1257 0.6967
loop_
_geom_bond_atom_site_label_1
_geom_bond_atom_site_label_2
_geom_bond_site_symmetry_1
_geom_bond_site_symmetry_2
Mn1 O1 1_555 1_555
Mn2 O2 1_555 1_555
O1 C15 1_555 1_555
O2 C15 1_555 1_555
O3 H1 1_555 1_555
O4 C16 1_555 1_555
O5 C17 1_555 1_555
O6 C17 1_555 1_555
O7 C18 1_555 1_555
O8 C18 1_555 1_555
O9 Mn1 1_555 1_555
H2 O9 1_555 1_555
H3 O9 1_555 1_555
O10 Mn1 1_555 1_555
H4 O10 1_555 1_555
H5 O10 1_555 1_555
C1 C2 1_555 1_555
C2 H6 1_555 1_555
C3 C2 1_555 1_555
C4 C3 1_555 1_555
H7 C4 1_555 1_555
C5 C4 1_555 1_555
C6 C1 1_555 1_555
H8 C6 1_555 1_555
C7 C1 1_555 1_555
C8 C7 1_555 1_555
C9 C8 1_555 1_555
C10 C9 1_555 1_555
H9 C10 1_555 1_555
C11 C10 1_555 1_555
C12 C11 1_555 1_555
H10 C12 1_555 1_555
C13 C12 1_555 1_555
C14 C9 1_555 1_555
H11 C14 1_555 1_555
C15 C3 1_555 1_555
C16 O3 1_555 1_555
C17 C11 1_555 1_555
C18 C13 1_555 1_555
N1 H12 1_555 1_555
C19 N1 1_555 1_555
H13 C19 1_555 1_555
H14 C19 1_555 1_555
H15 C19 1_555 1_555
C20 N1 1_555 1_555
H16 C20 1_555 1_555
H17 C20 1_555 1_555
H18 C20 1_555 1_555
N2 H19 1_555 1_555
C21 N2 1_555 1_555
H20 C21 1_555 1_555
H21 C21 1_555 1_555
H22 C21 1_555 1_555
C22 N2 1_555 1_555
H23 C22 1_555 1_555
H24 C22 1_555 1_555
H25 C22 1_555 1_555
N3 H26 1_555 1_555
C23 N3 1_555 1_555
H27 C23 1_555 1_555
H28 C23 1_555 1_555
H29 C23 1_555 1_555
C24 N3 1_555 1_555
H30 C24 1_555 1_555
H31 C24 1_555 1_555
H32 C24 1_555 1_555
Mn1B O1B 1_555 1_555
O1B C15B 1_555 1_555
O2B C15B 1_555 1_555
O3B H1B 1_555 1_555
O4B C16B 1_555 1_555
O5B C17B 1_555 1_555
O6B C17B 1_555 1_555
O7B C18B 1_555 1_555
O8B Mn2 1_555 1_555
O9B Mn1B 1_555 1_555
H2B O9B 1_555 1_555
H3B O9B 1_555 1_555
O10B Mn1B 1_555 1_555
H4B O10B 1_555 1_555
H5B O10B 1_555 1_555
C1B C2B 1_555 1_555
C2B H6B 1_555 1_555
C3B C2B 1_555 1_555
C4B C3B 1_555 1_555
H7B C4B 1_555 1_555
C5B C4B 1_555 1_555
C6B C1B 1_555 1_555
H8B C6B 1_555 1_555
C7B C1B 1_555 1_555
C8B C7B 1_555 1_555
C9B C8B 1_555 1_555
C10B C9B 1_555 1_555
H9B C10B 1_555 1_555
C11B C10B 1_555 1_555
C12B C11B 1_555 1_555
H10B C12B 1_555 1_555
C13B C12B 1_555 1_555
C14B C9B 1_555 1_555
H11B C14B 1_555 1_555
C15B C3B 1_555 1_555
C16B O3B 1_555 1_555
C17B C11B 1_555 1_555
C18B O8B 1_555 1_555
Mn1_2 O7 1_555 1_555
Mn1A O5 1_555 1_555
Mn1B_2 O7B 1_555 1_555
Mn1C O5B 1_555 1_555
Mn2_2 O8 1_555 1_555
Mn2A O5 1_555 1_555
Mn2A_2 O5B 1_555 1_555
O2B_2 Mn2 1_555 1_555
O5A Mn1 1_555 1_555
O5C Mn1B 1_555 1_555
O5C_2 Mn2 1_555 1_555
O6A Mn1 1_555 1_555
O6C Mn1B 1_555 1_555
O7_2 Mn1 1_555 1_555
O7B_2 Mn1B 1_555 1_555
O8_2 Mn2 1_555 1_555
Mn2 O5A 1_555 1_555
O6 Mn1A 1_555 1_555
C5 C6 1_555 1_555
C5 C16 1_555 1_555
C13 C14 1_555 1_555
O2B Mn2_2 1_555 1_555
O6B Mn1C 1_555 1_555
C5B C6B 1_555 1_555
C5B C16B 1_555 1_555
C13B C14B 1_555 1_555
C13B C18B 1_555 1_555
Mn1B_2 O5C_2 1_555 1_555
Mn2_2 O5C 1_555 1_555

#END
