
#######################################################################
#
#                 Cambridge Crystallographic Data Centre
#                                CCDC 
#
#######################################################################
#
# If this CIF has been generated from an entry in the Cambridge 
# Structural Database, then it will include bibliographic, chemical, 
# crystal, experimental, refinement or atomic coordinate data resulting 
# from the CCDC's data processing and validation procedures.
#
#######################################################################

data_KEXDIC
_symmetry_cell_setting           monoclinic
_symmetry_space_group_name_H-M   'P 21/n'
_symmetry_Int_Tables_number      14
_space_group_name_Hall           '-P 2yn'
loop_
_symmetry_equiv_pos_site_id
_symmetry_equiv_pos_as_xyz
1 x,y,z
2 1/2-x,1/2+y,1/2-z
3 -x,-y,-z
4 1/2+x,1/2-y,1/2+z
_cell_length_a                   10.115(6)
_cell_length_b                   6.421(4)
_cell_length_c                   15.545(9)
_cell_angle_alpha                90
_cell_angle_beta                 97.435(9)
_cell_angle_gamma                90
_cell_volume                     1001.13
loop_
_atom_site_label
_atom_site_type_symbol
_atom_site_fract_x
_atom_site_fract_y
_atom_site_fract_z
Cd1 Cd 0.56553(3) 0.69689(5) 0.669427(19)
Br1 Br 1.18086(5) 0.09984(7) 0.56668(3)
O1 O 1.0330(3) 0.3279(5) 0.7220(2)
O2 O 0.8436(3) 0.1996(5) 0.6619(2)
O3 O 0.3661(3) 0.6944(5) 0.5881(2)
H1 H 0.3053 0.6570 0.6177
H2 H 0.3657 0.6100 0.5459
O4 O 0.7920(3) 0.6915(5) 0.65980(19)
O5 O 0.5250(3) 0.3591(5) 0.7128(2)
H3 H 0.5881 0.3215 0.7512
H4 H 0.4517 0.3532 0.7340
O6 O 0.6621(3) 0.5664(5) 0.5492(2)
O7 O 0.5845(3) 1.0291(5) 0.6013(2)
H5 H 0.5501 1.1215 0.6307
H6 H 0.6659 1.0589 0.5993
C1 C 0.9463(4) 0.2939(6) 0.6572(3)
C2 C 0.9736(4) 0.3933(6) 0.5735(2)
C3 C 1.0792(4) 0.3371(6) 0.5310(3)
C4 C 0.8927(4) 0.5576(6) 0.5415(2)
C5 C 0.7743(4) 0.6098(6) 0.5867(3)
Br1B Br 0.81914(5) 0.90016(7) 0.43332(3)
O1B O 0.9670(3) 0.6721(5) 0.2780(2)
O2B O 1.1564(3) 0.8004(5) 0.3381(2)
O4B O 1.2080(3) 0.3085(5) 0.34020(19)
O6B O 1.3379(3) 0.4336(5) 0.4508(2)
C1B C 1.0537(4) 0.7061(6) 0.3428(3)
C2B C 1.0264(4) 0.6067(6) 0.4265(2)
C3B C 0.9208(4) 0.6629(6) 0.4690(3)
C4B C 1.1073(4) 0.4424(6) 0.4585(2)
C5B C 1.2257(4) 0.3902(6) 0.4133(3)
Cd1B Cd 1.43447(3) 0.30311(5) 0.330573(19)
O3B O 1.6339(3) 0.3056(5) 0.4119(2)
H1B H 1.6947 0.3430 0.3823
H2B H 1.6343 0.3900 0.4541
O5B O 1.4750(3) 0.6409(5) 0.2872(2)
H3B H 1.4119 0.6785 0.2488
H4B H 1.5483 0.6468 0.2660
O7B O 1.4155(3) -0.0291(5) 0.3987(2)
H5B H 1.4499 -0.1215 0.3693
H6B H 1.3341 -0.0589 0.4007
Cd1A Cd 0.93447(3) 0.19689(5) 0.830573(19)
Cd1C Cd 1.06553(3) 0.80311(5) 0.169427(19)
O1A O 0.4670(3) 0.8279(5) 0.7780(2)
O1C O 1.5330(3) 0.1721(5) 0.2220(2)
O2A O 0.6564(3) 0.6996(5) 0.8381(2)
O2C O 1.3436(3) 0.3004(5) 0.1619(2)
O8 O 0.1999(4) 0.6624(7) 0.7099(3)
H7 H 0.1676 0.5472 0.7242
loop_
_geom_bond_atom_site_label_1
_geom_bond_atom_site_label_2
_geom_bond_site_symmetry_1
_geom_bond_site_symmetry_2
Cd1 O3 1_555 1_555
Br1 C3 1_555 1_555
O1 C1 1_555 1_555
O2 C1 1_555 1_555
O3 H1 1_555 1_555
H2 O3 1_555 1_555
O4 Cd1 1_555 1_555
O5 Cd1 1_555 1_555
H3 O5 1_555 1_555
H4 O5 1_555 1_555
O6 Cd1 1_555 1_555
O7 Cd1 1_555 1_555
H5 O7 1_555 1_555
H6 O7 1_555 1_555
C1 C2 1_555 1_555
C2 C3 1_555 1_555
C3 C4B 1_555 1_555
C4 C2 1_555 1_555
C5 O4 1_555 1_555
O8 H7 1_555 1_555
Br1B C3B 1_555 1_555
O1B C1B 1_555 1_555
O2B C1B 1_555 1_555
O4B C5B 1_555 1_555
O6B C5B 1_555 1_555
C1B C2B 1_555 1_555
C2B C3B 1_555 1_555
C3B C4 1_555 1_555
C4B C2B 1_555 1_555
C5B C4B 1_555 1_555
Cd1B O4B 1_555 1_555
O3B Cd1B 1_555 1_555
H1B O3B 1_555 1_555
H2B O3B 1_555 1_555
O5B Cd1B 1_555 1_555
H3B O5B 1_555 1_555
H4B O5B 1_555 1_555
O7B Cd1B 1_555 1_555
H5B O7B 1_555 1_555
H6B O7B 1_555 1_555
Cd1A O1 1_555 1_555
Cd1C O1B 1_555 1_555
O1A Cd1 1_555 1_555
O1C Cd1B 1_555 1_555
O2A Cd1 1_555 1_555
O2C Cd1B 1_555 1_555
O2 Cd1A 1_555 1_555
O6 C5 1_555 1_555
C4 C5 1_555 1_555
O2B Cd1C 1_555 1_555
O6B Cd1B 1_555 1_555

#END
