
#######################################################################
#
#                 Cambridge Crystallographic Data Centre
#                                CCDC 
#
#######################################################################
#
# If this CIF has been generated from an entry in the Cambridge 
# Structural Database, then it will include bibliographic, chemical, 
# crystal, experimental, refinement or atomic coordinate data resulting 
# from the CCDC's data processing and validation procedures.
#
#######################################################################

data_KEXJUT
_symmetry_cell_setting           monoclinic
_symmetry_space_group_name_H-M   'P 21/c'
_symmetry_Int_Tables_number      14
_space_group_name_Hall           '-P 2ybc'
loop_
_symmetry_equiv_pos_site_id
_symmetry_equiv_pos_as_xyz
1 x,y,z
2 -x,1/2+y,1/2-z
3 -x,-y,-z
4 x,1/2-y,1/2+z
_cell_length_a                   8.0710(1)
_cell_length_b                   13.4048(3)
_cell_length_c                   12.9065(2)
_cell_angle_alpha                90
_cell_angle_beta                 100.1110(7)
_cell_angle_gamma                90
_cell_volume                     1374.67
loop_
_atom_site_label
_atom_site_type_symbol
_atom_site_fract_x
_atom_site_fract_y
_atom_site_fract_z
Cu1 Cu 1.00015(2) 0.384510(10) 0.058290(10)
O1 O 1.54567(14) 0.50833(12) 0.32062(9)
O2 O 0.85478(17) 0.24302(11) 0.16568(9)
O3 O 1.17827(12) 0.28730(9) 0.04321(8)
O4 O 1.1476(2) 0.17426(16) 0.16439(18)
O5 O 0.85763(11) 0.50613(8) 0.04625(8)
O6 O 0.66530(14) 0.46573(10) 0.14341(10)
N1 N 1.12597(13) 0.43083(10) 0.19787(9)
N2 N 0.84513(15) 0.17545(10) 0.43600(10)
C1 C 1.21736(19) 0.20950(15) 0.09602(14)
C2 C 0.73037(18) 0.52335(13) 0.08858(12)
C3 C 1.29160(16) 0.45169(12) 0.21158(10)
C4 C 1.38005(18) 0.48556(13) 0.30654(12)
C5 C 1.2960(2) 0.49670(17) 0.39059(12)
C6 C 1.1273(2) 0.47383(19) 0.37592(13)
C7 C 1.04450(17) 0.44187(15) 0.27889(12)
C8 C 0.90091(18) 0.19271(12) 0.34646(12)
C9 C 0.7970(2) 0.22885(13) 0.25676(12)
C10 C 0.6310(2) 0.25104(14) 0.26288(13)
C11 C 0.57508(18) 0.23379(16) 0.35605(15)
C12 C 0.68344(19) 0.19522(14) 0.44151(12)
H1 H 1.58209 0.49922 0.25540
H2 H 1.34700 0.43910 0.15240
H3 H 1.34730 0.52520 0.46070
H4 H 1.06446 0.48052 0.43564
H5 H 0.91370 0.42800 0.26350
H6 H 1.03080 0.18540 0.34860
H7 H 0.96180 0.20060 0.15870
H8 H 0.56100 0.27080 0.20240
H9 H 0.46020 0.25000 0.36680
H10 H 0.63840 0.18060 0.50880
H11 H 1.31890 0.16870 0.09020
H12 H 0.68410 0.58970 0.08430
Cu1B Cu 0.99985(2) 0.615490(10) -0.058290(10)
Cu1C Cu 1.00015(2) 0.115490(10) 0.558290(10)
O5B O 1.14237(11) 0.49387(8) -0.04625(8)
N2C N 0.84513(15) 0.32455(10) -0.06400(10)
loop_
_geom_bond_atom_site_label_1
_geom_bond_atom_site_label_2
_geom_bond_site_symmetry_1
_geom_bond_site_symmetry_2
Cu1 O2 1_555 1_555
O1 C4 1_555 1_555
O2 C9 1_555 1_555
O3 Cu1 1_555 1_555
O4 C1 1_555 1_555
O5 Cu1 1_555 1_555
O6 C2 1_555 1_555
N1 Cu1 1_555 1_555
N2 C8 1_555 1_555
C1 O3 1_555 1_555
C2 O5 1_555 1_555
C3 N1 1_555 1_555
C4 C3 1_555 1_555
C5 C4 1_555 1_555
C6 C5 1_555 1_555
C7 N1 1_555 1_555
C8 C9 1_555 1_555
C9 C10 1_555 1_555
C10 C11 1_555 1_555
C11 C12 1_555 1_555
C12 N2 1_555 1_555
H1 O1 1_555 1_555
H2 C3 1_555 1_555
H3 C5 1_555 1_555
H4 C6 1_555 1_555
H5 C7 1_555 1_555
H6 C8 1_555 1_555
H7 O2 1_555 1_555
H8 C10 1_555 1_555
H9 C11 1_555 1_555
H10 C12 1_555 1_555
H11 C1 1_555 1_555
H12 C2 1_555 1_555
Cu1B O5 1_555 1_555
Cu1C N2 1_555 1_555
O5B Cu1 1_555 1_555
N2C Cu1 1_555 1_555
C6 C7 1_555 1_555
Cu1B O5B 1_555 1_555

#END
