
#######################################################################
#
#                 Cambridge Crystallographic Data Centre
#                                CCDC 
#
#######################################################################
#
# If this CIF has been generated from an entry in the Cambridge 
# Structural Database, then it will include bibliographic, chemical, 
# crystal, experimental, refinement or atomic coordinate data resulting 
# from the CCDC's data processing and validation procedures.
#
#######################################################################

data_KEXWEQ
_symmetry_cell_setting           monoclinic
_symmetry_space_group_name_H-M   'C 2/c'
_symmetry_Int_Tables_number      15
_space_group_name_Hall           '-C 2yn'
loop_
_symmetry_equiv_pos_site_id
_symmetry_equiv_pos_as_xyz
1 x,y,z
2 1/2+x,1/2+y,z
3 -x,y,1/2-z
4 1/2-x,1/2+y,1/2-z
5 -x,-y,-z
6 1/2-x,1/2-y,-z
7 x,-y,1/2+z
8 1/2+x,1/2-y,1/2+z
_cell_length_a                   19.1776(17)
_cell_length_b                   11.6295(17)
_cell_length_c                   21.629(2)
_cell_angle_alpha                90
_cell_angle_beta                 103.153(2)
_cell_angle_gamma                90
_cell_volume                     4697.28
loop_
_atom_site_label
_atom_site_type_symbol
_atom_site_fract_x
_atom_site_fract_y
_atom_site_fract_z
Co1 Co 0.03521(2) 0.60763(4) 0.382244(19)
N1 N 0.09976(13) 0.6193(2) 0.47379(11)
O1 O 0.07657(15) 0.5805(3) 0.30506(13)
O2 O 0.01850(11) 0.43777(19) 0.39272(10)
O3 O -0.09118(12) 0.7396(2) 0.28268(10)
O4 O -0.06257(11) 0.6670(2) 0.38087(11)
N2 N 0.07672(14) 0.7825(2) 0.38446(12)
N3 N -0.27142(13) 0.7775(2) 0.47961(11)
O5 O -0.20691(12) 0.8539(2) 0.24586(10)
H1 H -0.1688 0.8244 0.2433
C1 C -0.18757(17) 0.7506(3) 0.40879(14)
H2 H -0.1557 0.7101 0.4401
C2 C -0.03245(17) 0.2543(3) 0.36132(15)
C3 C -0.10366(18) 0.7220(3) 0.33730(17)
O6 O -0.04749(14) 0.4172(2) 0.29452(11)
N4 N 0.00611(15) 0.0522(2) 0.49604(13)
C4 C -0.25066(17) 0.7923(3) 0.42099(14)
C5 C -0.01906(18) 0.3778(3) 0.34874(17)
O7 O -0.09680(15) 0.2206(2) 0.25377(11)
H3 H -0.0877 0.2892 0.2518
C6 C -0.02309(17) 0.0937(3) 0.43362(15)
C7 C 0.13377(17) 0.7216(3) 0.48906(15)
C8 C -0.21938(18) 0.8325(3) 0.30432(15)
C9 C -0.17142(17) 0.7685(3) 0.35001(14)
C10 C 0.10902(18) 0.5391(3) 0.51884(16)
H4 H 0.0858 0.4689 0.5093
C11 C -0.00709(16) 0.2063(3) 0.42125(15)
H5 H 0.0210 0.2504 0.4534
C12 C 0.12177(17) 0.8086(3) 0.44054(15)
C13 C -0.07260(19) 0.1833(3) 0.31369(16)
C14 C 0.1424(2) 0.9982(3) 0.40469(19)
H6 H 0.1650 1.0694 0.4106
C15 C 0.0959(2) 0.9727(3) 0.34929(18)
H7 H 0.0850 1.0275 0.3172
C16 C 0.17846(18) 0.7442(3) 0.54852(15)
C17 C 0.15148(18) 0.5552(3) 0.57911(16)
H8 H 0.1560 0.4969 0.6092
C18 C -0.28114(18) 0.8785(3) 0.31731(16)
H9 H -0.3116 0.9235 0.2873
C19 C 0.15585(19) 0.9151(3) 0.45320(17)
C20 C -0.0900(2) 0.0719(3) 0.32713(17)
H10 H -0.1183 0.0271 0.2955
C21 C -0.29678(18) 0.8567(3) 0.37518(16)
H11 H -0.3388 0.8856 0.3837
C22 C -0.06589(19) 0.0276(3) 0.38643(16)
H12 H -0.0781 -0.0470 0.3953
C23 C 0.06479(18) 0.8647(3) 0.34065(16)
H13 H 0.0337 0.8488 0.3019
C24 C 0.2130(2) 0.8538(4) 0.55975(18)
H14 H 0.2433 0.8690 0.5990
C25 C 0.18658(19) 0.6568(3) 0.59420(16)
H15 H 0.2157 0.6680 0.6344
C26 C 0.2022(2) 0.9344(3) 0.51464(18)
H16 H 0.2253 1.0049 0.5231
H17 H 0.046(2) 0.534(4) 0.278(2)
H18 H 0.081(2) 0.620(3) 0.2839(18)
Co1D Co -0.03521(2) -0.60763(4) 0.617756(19)
Co1E Co -0.53521(2) 0.89237(4) 0.617756(19)
N1D N -0.09976(13) -0.6193(2) 0.52621(11)
O1D O -0.07657(15) -0.5805(3) 0.69494(13)
O2D O -0.01850(11) -0.43777(19) 0.60728(10)
O3E O -0.40882(12) 0.7604(2) 0.71732(10)
O4E O -0.43743(11) 0.8330(2) 0.61913(11)
O4D O 0.06257(11) -0.6670(2) 0.61913(11)
N2D N -0.07672(14) -0.7825(2) 0.61554(12)
N3E N -0.22858(13) 0.7225(2) 0.52039(11)
O5E O -0.29309(12) 0.6461(2) 0.75414(10)
H1E H -0.3312 0.6756 0.7567
C1E C -0.31243(17) 0.7494(3) 0.59121(14)
H2E H -0.3443 0.7899 0.5599
C2D C 0.03245(17) -0.2543(3) 0.63868(15)
C3E C -0.39634(18) 0.7780(3) 0.66270(17)
O6D O 0.04749(14) -0.4172(2) 0.70548(11)
N4D N -0.00611(15) -0.0522(2) 0.50396(13)
C4E C -0.24934(17) 0.7077(3) 0.57901(14)
C5D C 0.01906(18) -0.3778(3) 0.65126(17)
O7D O 0.09680(15) -0.2206(2) 0.74623(11)
H3D H 0.0877 -0.2892 0.7482
C6D C 0.02309(17) -0.0937(3) 0.56638(15)
C7D C -0.13377(17) -0.7216(3) 0.51094(15)
C8E C -0.28062(18) 0.6675(3) 0.69568(15)
C9E C -0.32858(17) 0.7315(3) 0.64999(14)
C10D C -0.10902(18) -0.5391(3) 0.48116(16)
H4D H -0.0858 -0.4689 0.4907
C11D C 0.00709(16) -0.2063(3) 0.57875(15)
H5D H -0.0210 -0.2504 0.5466
C12D C -0.12177(17) -0.8086(3) 0.55946(15)
C13D C 0.07260(19) -0.1833(3) 0.68631(16)
C14D C -0.1424(2) -0.9982(3) 0.59531(19)
H6D H -0.1650 -1.0694 0.5894
C15D C -0.0959(2) -0.9727(3) 0.65071(18)
H7D H -0.0850 -1.0275 0.6828
C16D C -0.17846(18) -0.7442(3) 0.45148(15)
C17D C -0.15148(18) -0.5552(3) 0.42089(16)
H8D H -0.1560 -0.4969 0.3908
C18E C -0.21886(18) 0.6215(3) 0.68269(16)
H9E H -0.1884 0.5765 0.7127
C19D C -0.15585(19) -0.9151(3) 0.54680(17)
C20D C 0.0900(2) -0.0719(3) 0.67287(17)
H10D H 0.1183 -0.0271 0.7045
C21E C -0.20322(18) 0.6433(3) 0.62482(16)
H11E H -0.1612 0.6144 0.6163
C22D C 0.06589(19) -0.0276(3) 0.61357(16)
H12D H 0.0781 0.0470 0.6047
C23D C -0.06479(18) -0.8647(3) 0.65935(16)
H13D H -0.0337 -0.8488 0.6981
C24D C -0.2130(2) -0.8538(4) 0.44025(18)
H14D H -0.2433 -0.8690 0.4010
C25D C -0.18658(19) -0.6568(3) 0.40580(16)
H15D H -0.2157 -0.6680 0.3656
C26D C -0.2022(2) -0.9344(3) 0.48536(18)
H16D H -0.2253 -1.0049 0.4769
H17D H -0.046(2) -0.534(4) 0.722(2)
H18D H -0.081(2) -0.620(3) 0.7161(18)
loop_
_geom_bond_atom_site_label_1
_geom_bond_atom_site_label_2
_geom_bond_site_symmetry_1
_geom_bond_site_symmetry_2
Co1 N1 1_555 1_555
N1 C7 1_555 1_555
O1 Co1 1_555 1_555
O2 Co1 1_555 1_555
O3 C3 1_555 1_555
O4 Co1 1_555 1_555
N2 Co1 1_555 1_555
N3 C4 1_555 1_555
O5 H1 1_555 1_555
C1 H2 1_555 1_555
C2 C5 1_555 1_555
C3 O4 1_555 1_555
O6 C5 1_555 1_555
N4 C6 1_555 1_555
C4 C1 1_555 1_555
C5 O2 1_555 1_555
O7 H3 1_555 1_555
C6 C11 1_555 1_555
C7 C12 1_555 1_555
C8 O5 1_555 1_555
C9 C1 1_555 1_555
C10 N1 1_555 1_555
H4 C10 1_555 1_555
C11 C2 1_555 1_555
H5 C11 1_555 1_555
C12 N2 1_555 1_555
C13 C2 1_555 1_555
C14 H6 1_555 1_555
C15 C14 1_555 1_555
H7 C15 1_555 1_555
C16 C7 1_555 1_555
C17 C10 1_555 1_555
H8 C17 1_555 1_555
C18 C8 1_555 1_555
H9 C18 1_555 1_555
C19 C12 1_555 1_555
C20 C13 1_555 1_555
H10 C20 1_555 1_555
C21 C4 1_555 1_555
H11 C21 1_555 1_555
C22 C6 1_555 1_555
H12 C22 1_555 1_555
C23 N2 1_555 1_555
H13 C23 1_555 1_555
C24 C16 1_555 1_555
H14 C24 1_555 1_555
C25 C16 1_555 1_555
H15 C25 1_555 1_555
C26 C19 1_555 1_555
H16 C26 1_555 1_555
H17 O1 1_555 1_555
H18 O1 1_555 1_555
Co1D N1D 1_555 1_555
Co1E O4E 1_555 1_555
N1D C7D 1_555 1_555
O1D Co1D 1_555 1_555
O2D Co1D 1_555 1_555
O3E C3E 1_555 1_555
O4E C3E 1_555 1_555
O4D Co1D 1_555 1_555
N2D Co1D 1_555 1_555
N3E N3 1_555 1_555
O5E H1E 1_555 1_555
C1E H2E 1_555 1_555
C2D C5D 1_555 1_555
C3E C9E 1_555 1_555
O6D C5D 1_555 1_555
N4D N4 1_555 1_555
C4E N3E 1_555 1_555
C5D O2D 1_555 1_555
O7D H3D 1_555 1_555
C6D N4D 1_555 1_555
C7D C12D 1_555 1_555
C8E O5E 1_555 1_555
C9E C1E 1_555 1_555
C10D N1D 1_555 1_555
H4D C10D 1_555 1_555
C11D C2D 1_555 1_555
H5D C11D 1_555 1_555
C12D N2D 1_555 1_555
C13D C2D 1_555 1_555
C14D H6D 1_555 1_555
C15D C14D 1_555 1_555
H7D C15D 1_555 1_555
C16D C7D 1_555 1_555
C17D C10D 1_555 1_555
H8D C17D 1_555 1_555
C18E C8E 1_555 1_555
H9E C18E 1_555 1_555
C19D C12D 1_555 1_555
C20D C13D 1_555 1_555
H10D C20D 1_555 1_555
C21E C4E 1_555 1_555
H11E C21E 1_555 1_555
C22D C6D 1_555 1_555
H12D C22D 1_555 1_555
C23D N2D 1_555 1_555
H13D C23D 1_555 1_555
C24D C16D 1_555 1_555
H14D C24D 1_555 1_555
C25D C16D 1_555 1_555
H15D C25D 1_555 1_555
C26D C19D 1_555 1_555
H16D C26D 1_555 1_555
H17D O1D 1_555 1_555
H18D O1D 1_555 1_555
C3 C9 1_555 1_555
O7 C13 1_555 1_555
C8 C9 1_555 1_555
C14 C19 1_555 1_555
C15 C23 1_555 1_555
C17 C25 1_555 1_555
C18 C21 1_555 1_555
C20 C22 1_555 1_555
C24 C26 1_555 1_555
C1E C4E 1_555 1_555
O7D C13D 1_555 1_555
C6D C11D 1_555 1_555
C8E C9E 1_555 1_555
C14D C19D 1_555 1_555
C15D C23D 1_555 1_555
C17D C25D 1_555 1_555
C18E C21E 1_555 1_555
C20D C22D 1_555 1_555
C24D C26D 1_555 1_555

#END
