
#######################################################################
#
#                 Cambridge Crystallographic Data Centre
#                                CCDC 
#
#######################################################################
#
# If this CIF has been generated from an entry in the Cambridge 
# Structural Database, then it will include bibliographic, chemical, 
# crystal, experimental, refinement or atomic coordinate data resulting 
# from the CCDC's data processing and validation procedures.
#
#######################################################################

data_KEYFAX
_symmetry_cell_setting           triclinic
_symmetry_space_group_name_H-M   'P -1'
_symmetry_Int_Tables_number      2
_space_group_name_Hall           '-P 1'
loop_
_symmetry_equiv_pos_site_id
_symmetry_equiv_pos_as_xyz
1 x,y,z
2 -x,-y,-z
_cell_length_a                   9.7716(19)
_cell_length_b                   9.8921(14)
_cell_length_c                   11.0502(18)
_cell_angle_alpha                113.155(8)
_cell_angle_beta                 94.191(13)
_cell_angle_gamma                93.937(17)
_cell_volume                     973.92
loop_
_atom_site_label
_atom_site_type_symbol
_atom_site_fract_x
_atom_site_fract_y
_atom_site_fract_z
Mn1 Mn 0.0000 1.0000 0.5000
S1 S -0.28950(9) 0.59865(9) 0.12147(8)
N1 N 0.2271(2) 0.7290(3) 0.6564(2)
N2 N 0.1230(3) 0.6237(3) 0.5849(3)
N3 N 0.0817(2) 0.8441(3) 0.5846(2)
N4 N -0.3215(2) 1.1264(3) 0.7708(2)
N5 N -0.4083(3) 1.0483(3) 0.6587(2)
N6 N -0.1865(2) 1.0354(3) 0.6166(2)
N7 N -0.1258(3) 0.8164(3) 0.3344(2)
C1 C 0.0380(3) 0.6983(3) 0.5447(3)
H1 H -0.0472 0.6540 0.4919
C2 C 0.2012(3) 0.8581(3) 0.6555(3)
H2 H 0.2598 0.9479 0.6993
C3 C 0.3514(3) 0.6876(3) 0.7106(3)
H3 H 0.3249 0.6351 0.7668
H4 H 0.4127 0.7780 0.7669
C4 C 0.4277(3) 0.5894(3) 0.6010(3)
C5 C 0.4798(3) 0.6403(3) 0.5121(3)
H5 H 0.4661 0.7373 0.5197
C6 C 0.5518(3) 0.5524(3) 0.4121(3)
H6 H 0.5872 0.5896 0.3521
C7 C -0.3219(3) 0.9966(3) 0.5706(3)
H7 H -0.3520 0.9361 0.4804
C8 C -0.1912(3) 1.1179(3) 0.7442(3)
H8 H -0.1128 1.1640 0.8072
C9 C -0.3760(3) 1.2035(3) 0.8972(3)
H9 H -0.4459 1.2665 0.8855
H10 H -0.3002 1.2686 0.9631
C10 C -0.4411(3) 1.0962(3) 0.9488(3)
C11 C -0.3634(3) 0.9992(3) 0.9780(3)
H11 H -0.2688 0.9984 0.9633
C12 C -0.4212(3) 0.9031(3) 1.0283(3)
H12 H -0.3665 0.8366 1.0472
C13 C -0.1916(3) 0.7269(3) 0.2470(3)
N1A N 0.7729(2) 0.2710(3) 0.3436(2)
N2A N 0.8770(3) 0.3763(3) 0.4151(3)
N3A N 0.9183(2) 0.1559(3) 0.4154(2)
C1A C 0.9620(3) 0.3017(3) 0.4553(3)
H1A H 1.0472 0.3460 0.5081
C2A C 0.7988(3) 0.1419(3) 0.3445(3)
H2A H 0.7402 0.0521 0.3007
C3A C 0.6486(3) 0.3124(3) 0.2894(3)
H3A H 0.6751 0.3649 0.2332
H4A H 0.5873 0.2220 0.2331
C4A C 0.5723(3) 0.4106(3) 0.3990(3)
C5A C 0.5202(3) 0.3597(3) 0.4879(3)
H5A H 0.5339 0.2627 0.4803
C6A C 0.4482(3) 0.4476(3) 0.5879(3)
H6A H 0.4128 0.4104 0.6479
N4A N -0.6785(2) 0.8736(3) 1.2292(2)
N5A N -0.5917(3) 0.9517(3) 1.3413(2)
N6A N -0.8135(2) 0.9646(3) 1.3834(2)
C7A C -0.6781(3) 1.0034(3) 1.4294(3)
H7A H -0.6480 1.0639 1.5196
C8A C -0.8088(3) 0.8821(3) 1.2558(3)
H8A H -0.8872 0.8360 1.1928
C9A C -0.6240(3) 0.7965(3) 1.1028(3)
H9A H -0.5541 0.7335 1.1145
H10A H -0.6998 0.7314 1.0369
C10A C -0.5589(3) 0.9038(3) 1.0512(3)
C11A C -0.6366(3) 1.0008(3) 1.0220(3)
H11A H -0.7312 1.0016 1.0367
C12A C -0.5788(3) 1.0969(3) 0.9717(3)
H12A H -0.6335 1.1634 0.9528
S1A S 0.28950(9) 1.40135(9) 0.87853(8)
N7A N 0.1258(3) 1.1836(3) 0.6656(2)
C13A C 0.1916(3) 1.2731(3) 0.7530(3)
Mn1_2 Mn -1.0000 1.0000 1.5000
Mn1_3 Mn 1.0000 0.0000 0.5000
N3A_2 N -0.0817(2) 1.1559(3) 0.4154(2)
N6A_2 N 0.1865(2) 0.9646(3) 0.3834(2)
O1 O -0.0696(3) 0.1934(4) 0.0315(3)
N8 N 0.1083(3) 0.3323(4) 0.1792(3)
C14 C 0.0795(6) 0.4652(6) 0.1730(5)
H13 H -0.0037 0.4483 0.1116
H14 H 0.1574 0.5053 0.1418
H15 H 0.0643 0.5358 0.2613
C15 C 0.2240(4) 0.3271(6) 0.2617(4)
H16 H 0.2287 0.2252 0.2534
H17 H 0.2150 0.3910 0.3540
H18 H 0.3085 0.3614 0.2349
C16 C 0.0280(4) 0.2052(5) 0.1071(4)
H19 H 0.0513 0.1184 0.1174
loop_
_geom_bond_atom_site_label_1
_geom_bond_atom_site_label_2
_geom_bond_site_symmetry_1
_geom_bond_site_symmetry_2
Mn1 N3 1_555 1_555
S1 C13 1_555 1_555
N1 N2 1_555 1_555
N2 C1 1_555 1_555
N3 C1 1_555 1_555
N4 N5 1_555 1_555
N5 C7 1_555 1_555
N6 Mn1 1_555 1_555
N7 Mn1 1_555 1_555
C1 H1 1_555 1_555
C2 N1 1_555 1_555
H2 C2 1_555 1_555
C3 N1 1_555 1_555
H3 C3 1_555 1_555
H4 C3 1_555 1_555
C4 C3 1_555 1_555
C5 C4 1_555 1_555
H5 C5 1_555 1_555
C6 C5 1_555 1_555
H6 C6 1_555 1_555
C7 N6 1_555 1_555
H7 C7 1_555 1_555
C8 N4 1_555 1_555
H8 C8 1_555 1_555
C9 N4 1_555 1_555
H9 C9 1_555 1_555
H10 C9 1_555 1_555
C10 C9 1_555 1_555
C11 C10 1_555 1_555
H11 C11 1_555 1_555
C12 C11 1_555 1_555
H12 C12 1_555 1_555
C13 N7 1_555 1_555
O1 C16 1_555 1_555
N8 C14 1_555 1_555
C14 H13 1_555 1_555
H14 C14 1_555 1_555
H15 C14 1_555 1_555
C15 N8 1_555 1_555
H16 C15 1_555 1_555
H17 C15 1_555 1_555
H18 C15 1_555 1_555
C16 N8 1_555 1_555
H19 C16 1_555 1_555
N1A N2A 1_555 1_555
N2A C1A 1_555 1_555
N3A C1A 1_555 1_555
C1A H1A 1_555 1_555
C2A N1A 1_555 1_555
H2A C2A 1_555 1_555
C3A N1A 1_555 1_555
H3A C3A 1_555 1_555
H4A C3A 1_555 1_555
C4A C6 1_555 1_555
C5A C4A 1_555 1_555
H5A C5A 1_555 1_555
C6A C4 1_555 1_555
H6A C6A 1_555 1_555
N4A N5A 1_555 1_555
N5A C7A 1_555 1_555
N6A C7A 1_555 1_555
C7A H7A 1_555 1_555
C8A N4A 1_555 1_555
H8A C8A 1_555 1_555
C9A N4A 1_555 1_555
H9A C9A 1_555 1_555
H10A C9A 1_555 1_555
C10A C12 1_555 1_555
C11A C10A 1_555 1_555
H11A C11A 1_555 1_555
C12A C10 1_555 1_555
H12A C12A 1_555 1_555
S1A C13A 1_555 1_555
N7A Mn1 1_555 1_555
C13A N7A 1_555 1_555
Mn1_2 N6A 1_555 1_555
Mn1_3 N3A 1_555 1_555
N3A_2 Mn1 1_555 1_555
N6A_2 Mn1 1_555 1_555
N3 C2 1_555 1_555
N6 C8 1_555 1_555
N3A C2A 1_555 1_555
C3A C4A 1_555 1_555
C5A C6A 1_555 1_555
N6A C8A 1_555 1_555
C9A C10A 1_555 1_555
C11A C12A 1_555 1_555

#END
