
#######################################################################
#
#                 Cambridge Crystallographic Data Centre
#                                CCDC 
#
#######################################################################
#
# If this CIF has been generated from an entry in the Cambridge 
# Structural Database, then it will include bibliographic, chemical, 
# crystal, experimental, refinement or atomic coordinate data resulting 
# from the CCDC's data processing and validation procedures.
#
#######################################################################

data_KEYFEB
_symmetry_cell_setting           triclinic
_symmetry_space_group_name_H-M   'P -1'
_symmetry_Int_Tables_number      2
_space_group_name_Hall           '-P 1'
loop_
_symmetry_equiv_pos_site_id
_symmetry_equiv_pos_as_xyz
1 x,y,z
2 -x,-y,-z
_cell_length_a                   8.605(2)
_cell_length_b                   8.900(3)
_cell_length_c                   9.934(3)
_cell_angle_alpha                98.202(8)
_cell_angle_beta                 97.902(7)
_cell_angle_gamma                96.238(7)
_cell_volume                     739.447
loop_
_atom_site_label
_atom_site_type_symbol
_atom_site_fract_x
_atom_site_fract_y
_atom_site_fract_z
Mn1 Mn 0.0000 0.5000 0.5000
S1 S -0.29600(11) 0.00739(9) 0.46871(8)
N1 N 0.2588(3) 0.3578(3) 0.8642(2)
N2 N 0.1605(4) 0.4354(3) 0.9333(2)
N3 N 0.1057(2) 0.4424(2) 0.7076(2)
N4 N 0.3867(2) 0.3442(2) 1.2926(2)
N5 N 0.4340(3) 0.4962(3) 1.3023(3)
N6 N 0.2207(2) 0.4573(2) 1.4046(2)
N7 N -0.0887(3) 0.2580(3) 0.4366(2)
C1 C 0.3184(3) 0.1423(3) 0.9856(3)
C2 C 0.3671(3) 0.1142(3) 1.1182(3)
C3 C 0.3116(4) -0.0251(4) 1.1539(3)
H1 H 0.3449 -0.0458 1.2416
C4 C 0.2083(5) -0.1327(4) 1.0613(4)
H2 H 0.1723 -0.2254 1.0868
C5 C 0.1584(5) -0.1036(4) 0.9321(4)
H3 H 0.0875 -0.1757 0.8697
C6 C 0.2136(4) 0.0327(4) 0.8949(3)
H4 H 0.1798 0.0518 0.8066
C7 C 0.3828(4) 0.2860(4) 0.9368(3)
H5 H 0.4383 0.3583 1.0155
H6 H 0.4585 0.2611 0.8760
C8 C 0.4738(3) 0.2283(3) 1.2265(3)
H7 H 0.5239 0.1752 1.2959
H8 H 0.5563 0.2788 1.1850
C9 C 0.0712(4) 0.4833(3) 0.8346(3)
H9 H -0.0099 0.5411 0.8511
C10 C 0.2238(3) 0.3630(3) 0.7314(3)
H10 H 0.2759 0.3166 0.6639
C11 C 0.3315(3) 0.5575(3) 1.3706(3)
H11 H 0.3348 0.6628 1.3941
C12 C 0.2606(3) 0.3241(3) 1.3531(3)
H12 H 0.2071 0.2292 1.3588
C13 C -0.1709(3) 0.1506(3) 0.4508(2)
S1A S 0.29600(11) 0.99261(9) 0.53129(8)
N1A N -0.2588(3) 0.6422(3) 0.1358(2)
N2A N -0.1605(4) 0.5646(3) 0.0667(2)
N3A N -0.1057(2) 0.5576(2) 0.2924(2)
N4A N -0.3867(2) 0.6558(2) -0.2926(2)
N5A N -0.4340(3) 0.5038(3) -0.3023(3)
N6A N -0.2207(2) 0.5427(2) -0.4046(2)
N7A N 0.0887(3) 0.7420(3) 0.5634(2)
C1A C -0.3184(3) 0.8577(3) 0.0144(3)
C2A C -0.3671(3) 0.8858(3) -0.1182(3)
C3A C -0.3116(4) 1.0251(4) -0.1539(3)
H1A H -0.3449 1.0458 -0.2416
C4A C -0.2083(5) 1.1327(4) -0.0613(4)
H2A H -0.1723 1.2254 -0.0868
C5A C -0.1584(5) 1.1036(4) 0.0679(4)
H3A H -0.0875 1.1757 0.1303
C6A C -0.2136(4) 0.9673(4) 0.1051(3)
H4A H -0.1798 0.9482 0.1934
C7A C -0.3828(4) 0.7140(4) 0.0632(3)
H5A H -0.4383 0.6417 -0.0155
H6A H -0.4585 0.7389 0.1240
C8A C -0.4738(3) 0.7717(3) -0.2265(3)
H7A H -0.5239 0.8248 -0.2959
H8A H -0.5563 0.7212 -0.1850
C9A C -0.0712(4) 0.5167(3) 0.1654(3)
H9A H 0.0099 0.4589 0.1489
C10A C -0.2238(3) 0.6370(3) 0.2686(3)
H10A H -0.2759 0.6834 0.3361
C11A C -0.3315(3) 0.4425(3) -0.3706(3)
H11A H -0.3348 0.3372 -0.3941
C12A C -0.2606(3) 0.6759(3) -0.3531(3)
H12A H -0.2071 0.7708 -0.3588
C13A C 0.1709(3) 0.8494(3) 0.5492(2)
Mn1_2 Mn 0.0000 0.5000 -0.5000
Mn1_3 Mn 0.0000 0.5000 1.5000
N6_2 N 0.2207(2) 0.4573(2) 0.4046(2)
N6A_2 N -0.2207(2) 0.5427(2) 0.5954(2)
loop_
_geom_bond_atom_site_label_1
_geom_bond_atom_site_label_2
_geom_bond_site_symmetry_1
_geom_bond_site_symmetry_2
Mn1 N3 1_555 1_555
S1 C13 1_555 1_555
N1 N2 1_555 1_555
N2 C9 1_555 1_555
N3 C9 1_555 1_555
N4 N5 1_555 1_555
N5 C11 1_555 1_555
N6 C11 1_555 1_555
N7 Mn1 1_555 1_555
C1 C2 1_555 1_555
C2 C3 1_555 1_555
C3 H1 1_555 1_555
C4 C3 1_555 1_555
H2 C4 1_555 1_555
C5 C4 1_555 1_555
H3 C5 1_555 1_555
C6 C1 1_555 1_555
H4 C6 1_555 1_555
C7 N1 1_555 1_555
H5 C7 1_555 1_555
H6 C7 1_555 1_555
C8 N4 1_555 1_555
H7 C8 1_555 1_555
H8 C8 1_555 1_555
C9 H9 1_555 1_555
C10 N1 1_555 1_555
H10 C10 1_555 1_555
C11 H11 1_555 1_555
C12 N4 1_555 1_555
H12 C12 1_555 1_555
C13 N7 1_555 1_555
S1A C13A 1_555 1_555
N1A N2A 1_555 1_555
N2A C9A 1_555 1_555
N3A Mn1 1_555 1_555
N4A N5A 1_555 1_555
N5A C11A 1_555 1_555
N6A C11A 1_555 1_555
N7A Mn1 1_555 1_555
C1A C2A 1_555 1_555
C2A C3A 1_555 1_555
C3A H1A 1_555 1_555
C4A C3A 1_555 1_555
H2A C4A 1_555 1_555
C5A C4A 1_555 1_555
H3A C5A 1_555 1_555
C6A C1A 1_555 1_555
H4A C6A 1_555 1_555
C7A N1A 1_555 1_555
H5A C7A 1_555 1_555
H6A C7A 1_555 1_555
C8A N4A 1_555 1_555
H7A C8A 1_555 1_555
H8A C8A 1_555 1_555
C9A N3A 1_555 1_555
H9A C9A 1_555 1_555
C10A N1A 1_555 1_555
H10A C10A 1_555 1_555
C11A H11A 1_555 1_555
C12A N4A 1_555 1_555
H12A C12A 1_555 1_555
C13A N7A 1_555 1_555
Mn1_2 N6A 1_555 1_555
Mn1_3 N6 1_555 1_555
N6_2 Mn1 1_555 1_555
N6A_2 Mn1 1_555 1_555
N3 C10 1_555 1_555
N6 C12 1_555 1_555
C1 C7 1_555 1_555
C2 C8 1_555 1_555
C5 C6 1_555 1_555
N3A C10A 1_555 1_555
N6A C12A 1_555 1_555
C1A C7A 1_555 1_555
C2A C8A 1_555 1_555
C5A C6A 1_555 1_555

#END
