
#######################################################################
#
#                 Cambridge Crystallographic Data Centre
#                                CCDC 
#
#######################################################################
#
# If this CIF has been generated from an entry in the Cambridge 
# Structural Database, then it will include bibliographic, chemical, 
# crystal, experimental, refinement or atomic coordinate data resulting 
# from the CCDC's data processing and validation procedures.
#
#######################################################################

data_KEYFIF01
_symmetry_cell_setting           rhombohedral
_symmetry_space_group_name_H-M   'R -3'
_symmetry_Int_Tables_number      148
_space_group_name_Hall           '-R 3'
loop_
_symmetry_equiv_pos_site_id
_symmetry_equiv_pos_as_xyz
1 x,y,z
2 -y,x-y,z
3 -x+y,-x,z
4 2/3+x,1/3+y,1/3+z
5 2/3-y,1/3+x-y,1/3+z
6 2/3-x+y,1/3-x,1/3+z
7 1/3+x,2/3+y,2/3+z
8 1/3-y,2/3+x-y,2/3+z
9 1/3-x+y,2/3-x,2/3+z
10 -x,-y,-z
11 y,-x+y,-z
12 x-y,x,-z
13 1/3-x,2/3-y,2/3-z
14 1/3+y,2/3-x+y,2/3-z
15 1/3+x-y,2/3+x,2/3-z
16 2/3-x,1/3-y,1/3-z
17 2/3+y,1/3-x+y,1/3-z
18 2/3+x-y,1/3+x,1/3-z
_cell_length_a                   26.9848(10)
_cell_length_b                   26.9848(10)
_cell_length_c                   6.9461(2)
_cell_angle_alpha                90
_cell_angle_beta                 90
_cell_angle_gamma                120
_cell_volume                     4380.36
loop_
_atom_site_label
_atom_site_type_symbol
_atom_site_fract_x
_atom_site_fract_y
_atom_site_fract_z
Cu1 Cu 0.345939(17) 0.123933(16) 0.26206(5)
N1 N 0.33152(10) 0.09334(10) 0.5199(3)
O1 O 0.29470(8) 0.15488(8) 0.2917(3)
O2 O 0.40009(10) 0.09679(11) 0.2535(3)
O3 O 0.43789(11) 0.05440(11) 0.4215(3)
C1 C 0.25541(12) 0.11191(11) 0.5991(4)
C2 C 0.25457(12) 0.13949(11) 0.4269(4)
C3 C 0.20936(15) 0.15095(15) 0.4028(6)
H1 H 0.2063 0.1670 0.2881
C4 C 0.16954(16) 0.13871(17) 0.5465(7)
H2 H 0.1404 0.1470 0.5273
C5 C 0.17223(17) 0.11428(18) 0.7186(6)
H3 H 0.1457 0.1071 0.8156
C6 C 0.21431(15) 0.10076(14) 0.7444(5)
H4 H 0.2160 0.0840 0.8593
C7 C 0.29512(12) 0.09229(12) 0.6392(4)
H5 H 0.2941 0.0777 0.7614
C8 C 0.36848(14) 0.07068(14) 0.5762(4)
H6 H 0.3453 0.0313 0.6183
H7 H 0.3928 0.0928 0.6825
C9 C 0.40514(13) 0.07360(13) 0.4064(4)
Cu1E Cu 0.444661(23) -0.012606(17) 0.59539(5)
Cu1O Cu 0.320728(17) 0.209400(16) 0.07127(5)
O1O O 0.37197(8) 0.17845(8) 0.0416(3)
O3G O 0.27893(11) 0.05016(16) 0.0882(3)
loop_
_geom_bond_atom_site_label_1
_geom_bond_atom_site_label_2
_geom_bond_site_symmetry_1
_geom_bond_site_symmetry_2
Cu1 N1 1_555 1_555
N1 C7 1_555 1_555
O1 Cu1 1_555 1_555
O2 Cu1 1_555 1_555
O3 C9 1_555 1_555
C1 C2 1_555 1_555
C2 O1 1_555 1_555
C3 C2 1_555 1_555
H1 C3 1_555 1_555
C4 C3 1_555 1_555
H2 C4 1_555 1_555
C5 C4 1_555 1_555
H3 C5 1_555 1_555
C6 C1 1_555 1_555
H4 C6 1_555 1_555
C7 C1 1_555 1_555
H5 C7 1_555 1_555
C8 N1 1_555 1_555
H6 C8 1_555 1_555
H7 C8 1_555 1_555
C9 O2 1_555 1_555
Cu1E O3 1_555 1_555
Cu1O O1 1_555 1_555
O1O Cu1 1_555 1_555
O3G Cu1 1_555 1_555
C5 C6 1_555 1_555
C8 C9 1_555 1_555
Cu1O O1O 1_555 1_555

#END
