
#######################################################################
#
#                 Cambridge Crystallographic Data Centre
#                                CCDC 
#
#######################################################################
#
# If this CIF has been generated from an entry in the Cambridge 
# Structural Database, then it will include bibliographic, chemical, 
# crystal, experimental, refinement or atomic coordinate data resulting 
# from the CCDC's data processing and validation procedures.
#
#######################################################################

data_KEYGIG
_symmetry_cell_setting           triclinic
_symmetry_space_group_name_H-M   'P -1'
_symmetry_Int_Tables_number      2
_space_group_name_Hall           '-P 1'
loop_
_symmetry_equiv_pos_site_id
_symmetry_equiv_pos_as_xyz
1 x,y,z
2 -x,-y,-z
_cell_length_a                   8.2051(19)
_cell_length_b                   11.839(3)
_cell_length_c                   11.934(3)
_cell_angle_alpha                95.088(2)
_cell_angle_beta                 102.258(3)
_cell_angle_gamma                95.243(3)
_cell_volume                     1121.12
loop_
_atom_site_label
_atom_site_type_symbol
_atom_site_fract_x
_atom_site_fract_y
_atom_site_fract_z
Cd1 Cd 0.5000 0.5000 0.5000
O1 O 0.2142(2) 0.47807(17) 0.46233(17)
H1 H 0.154(4) 0.516(3) 0.422(3)
H2 H 0.155(4) 0.424(2) 0.475(3)
N1 N 0.4797(3) 0.29973(17) 0.50653(18)
N2 N 0.4883(3) 0.48463(18) 0.29543(17)
C1 C 0.3777(4) 0.2260(2) 0.4256(2)
H3 H 0.2997 0.2545 0.3699
C2 C 0.3817(4) 0.1095(2) 0.4200(2)
H4 H 0.3083 0.0620 0.3609
C3 C 0.4942(3) 0.06248(19) 0.5020(2)
C4 C 0.5941(4) 0.1394(2) 0.5887(3)
H5 H 0.6695 0.1130 0.6477
C5 C 0.5832(4) 0.2550(2) 0.5887(3)
H6 H 0.6514 0.3043 0.6489
C6 C 0.3498(3) 0.4616(2) 0.2116(2)
H7 H 0.2482 0.4415 0.2315
C7 C 0.3507(3) 0.4665(3) 0.0960(2)
H8 H 0.2508 0.4491 0.0408
C8 C 0.4976(3) 0.4967(2) 0.0618(2)
C9 C 0.6421(4) 0.5182(3) 0.1496(2)
H9 H 0.7456 0.5378 0.1321
C10 C 0.6314(4) 0.5105(3) 0.2623(2)
H10 H 0.7302 0.5241 0.3190
N1A N 0.5203(3) -0.29973(17) 0.49347(18)
C1A C 0.6223(4) -0.2260(2) 0.5744(2)
H3A H 0.7003 -0.2545 0.6301
C2A C 0.6183(4) -0.1095(2) 0.5800(2)
H4A H 0.6917 -0.0620 0.6391
C3A C 0.5058(3) -0.06248(19) 0.4980(2)
C4A C 0.4059(4) -0.1394(2) 0.4113(3)
H5A H 0.3305 -0.1130 0.3523
C5A C 0.4168(4) -0.2550(2) 0.4113(3)
H6A H 0.3486 -0.3043 0.3511
N2A N 0.5117(3) 0.51537(18) -0.29543(17)
C6A C 0.6502(3) 0.5384(2) -0.2116(2)
H7A H 0.7518 0.5585 -0.2315
C7A C 0.6493(3) 0.5335(3) -0.0960(2)
H8A H 0.7492 0.5509 -0.0408
C8A C 0.5024(3) 0.5033(2) -0.0618(2)
C9A C 0.3579(4) 0.4818(3) -0.1496(2)
H9A H 0.2544 0.4622 -0.1321
C10A C 0.3686(4) 0.4895(3) -0.2623(2)
H10A H 0.2698 0.4759 -0.3190
O1A O 0.7858(2) 0.52193(17) 0.53767(17)
H1A H 0.846(4) 0.484(3) 0.578(3)
H2A H 0.845(4) 0.576(2) 0.525(3)
Cd1_2 Cd 0.5000 -0.5000 0.5000
Cd1_3 Cd 0.5000 0.5000 -0.5000
N1A_2 N 0.5203(3) 0.70027(17) 0.49347(18)
N2A_2 N 0.5117(3) 0.51537(18) 0.70457(17)
S1 S 0.06441(9) 0.66879(6) 0.13358(6)
S2 S 0.05046(10) 0.69661(7) -0.03529(6)
O2 O -0.0421(3) 0.7115(2) 0.47581(17)
O3 O 0.0333(3) 0.61281(18) 0.33148(18)
O4 O 0.0196(3) 0.7058(2) -0.2565(2)
O5 O 0.2219(3) 0.7356(3) -0.3517(2)
H11 H 0.141(4) 0.699(4) -0.398(4)
C11 C -0.0125(3) 0.7008(3) 0.3768(2)
C12 C -0.0286(3) 0.8006(2) 0.3077(2)
C13 C -0.0739(4) 0.9007(3) 0.3562(3)
H12 H -0.1036 0.9018 0.4273
C14 C -0.0760(5) 0.9983(3) 0.3014(3)
H13 H -0.1075 1.0644 0.3349
C15 C -0.0311(5) 0.9970(3) 0.1964(3)
H14 H -0.0292 1.0632 0.1600
C16 C 0.0108(4) 0.8986(3) 0.1452(3)
H15 H 0.0393 0.8986 0.0738
C17 C 0.0113(3) 0.7986(2) 0.1988(2)
C18 C 0.2567(4) 0.7561(2) -0.0407(2)
C19 C 0.3814(4) 0.7900(3) 0.0580(3)
H16 H 0.3576 0.7832 0.1301
C20 C 0.5392(5) 0.8334(4) 0.0508(3)
H17 H 0.6208 0.8560 0.1181
C21 C 0.5783(5) 0.8440(4) -0.0538(4)
H18 H 0.6858 0.8730 -0.0579
C22 C 0.4574(5) 0.8114(3) -0.1525(3)
H19 H 0.4836 0.8193 -0.2237
C23 C 0.2957(4) 0.7667(3) -0.1488(3)
C24 C 0.1667(4) 0.7323(3) -0.2550(3)
loop_
_geom_bond_atom_site_label_1
_geom_bond_atom_site_label_2
_geom_bond_site_symmetry_1
_geom_bond_site_symmetry_2
Cd1 O1 1_555 1_555
O1 H1 1_555 1_555
H2 O1 1_555 1_555
N1 Cd1 1_555 1_555
N2 Cd1 1_555 1_555
C1 N1 1_555 1_555
H3 C1 1_555 1_555
C2 C1 1_555 1_555
H4 C2 1_555 1_555
C3 C2 1_555 1_555
C4 C3 1_555 1_555
H5 C4 1_555 1_555
C5 N1 1_555 1_555
H6 C5 1_555 1_555
C6 N2 1_555 1_555
H7 C6 1_555 1_555
C7 C6 1_555 1_555
H8 C7 1_555 1_555
C8 C7 1_555 1_555
C9 C8 1_555 1_555
H9 C9 1_555 1_555
C10 N2 1_555 1_555
H10 C10 1_555 1_555
S1 S2 1_555 1_555
S2 C18 1_555 1_555
O2 C11 1_555 1_555
O3 C11 1_555 1_555
O4 C24 1_555 1_555
O5 H11 1_555 1_555
C11 C12 1_555 1_555
C12 C13 1_555 1_555
C13 H12 1_555 1_555
C14 C13 1_555 1_555
H13 C14 1_555 1_555
C15 C14 1_555 1_555
H14 C15 1_555 1_555
C16 C15 1_555 1_555
H15 C16 1_555 1_555
C17 S1 1_555 1_555
C18 C19 1_555 1_555
C19 H16 1_555 1_555
C20 C19 1_555 1_555
H17 C20 1_555 1_555
C21 C20 1_555 1_555
H18 C21 1_555 1_555
C22 C21 1_555 1_555
H19 C22 1_555 1_555
C23 C18 1_555 1_555
C24 O5 1_555 1_555
N1A C1A 1_555 1_555
C1A H3A 1_555 1_555
C2A C1A 1_555 1_555
H4A C2A 1_555 1_555
C3A C3 1_555 1_555
C4A C3A 1_555 1_555
H5A C4A 1_555 1_555
C5A N1A 1_555 1_555
H6A C5A 1_555 1_555
N2A C6A 1_555 1_555
C6A H7A 1_555 1_555
C7A C6A 1_555 1_555
H8A C7A 1_555 1_555
C8A C8 1_555 1_555
C9A C8A 1_555 1_555
H9A C9A 1_555 1_555
C10A N2A 1_555 1_555
H10A C10A 1_555 1_555
O1A Cd1 1_555 1_555
H1A O1A 1_555 1_555
H2A O1A 1_555 1_555
Cd1_2 N1A 1_555 1_555
Cd1_3 N2A 1_555 1_555
N1A_2 Cd1 1_555 1_555
N2A_2 Cd1 1_555 1_555
C4 C5 1_555 1_555
C9 C10 1_555 1_555
C12 C17 1_555 1_555
C16 C17 1_555 1_555
C22 C23 1_555 1_555
C23 C24 1_555 1_555
C2A C3A 1_555 1_555
C4A C5A 1_555 1_555
C7A C8A 1_555 1_555
C9A C10A 1_555 1_555

#END
