
#######################################################################
#
#                 Cambridge Crystallographic Data Centre
#                                CCDC 
#
#######################################################################
#
# If this CIF has been generated from an entry in the Cambridge 
# Structural Database, then it will include bibliographic, chemical, 
# crystal, experimental, refinement or atomic coordinate data resulting 
# from the CCDC's data processing and validation procedures.
#
#######################################################################

data_KEYJOO
_symmetry_cell_setting           monoclinic
_symmetry_space_group_name_H-M   'P 21/c'
_symmetry_Int_Tables_number      14
_space_group_name_Hall           '-P 2ybc'
loop_
_symmetry_equiv_pos_site_id
_symmetry_equiv_pos_as_xyz
1 x,y,z
2 -x,1/2+y,1/2-z
3 -x,-y,-z
4 x,1/2-y,1/2+z
_cell_length_a                   19.1563(5)
_cell_length_b                   8.9531(2)
_cell_length_c                   16.6221(4)
_cell_angle_alpha                90
_cell_angle_beta                 114.6330(10)
_cell_angle_gamma                90
_cell_volume                     2591.39
loop_
_atom_site_label
_atom_site_type_symbol
_atom_site_fract_x
_atom_site_fract_y
_atom_site_fract_z
U1 U 0.127811(15) 0.47478(3) 0.354695(14)
U2 U 0.388277(15) 0.91309(3) 0.618978(14)
F1 F 0.2020(2) 0.4736(4) 0.2856(2)
F2 F 0.1793(2) 0.2510(4) 0.3864(2)
F3 F 0.1236(2) 0.4727(4) 0.4830(2)
F4 F 0.4227(2) 0.9155(4) 0.5092(2)
F5 F 0.2860(2) 0.9134(4) 0.6488(2)
F6 F 0.3434(2) 1.1338(4) 0.5686(2)
O1 O 0.0163(3) 0.6296(5) 0.3462(3)
O2 O 0.0641(3) 0.6327(5) 0.2186(3)
O3 O -0.0646(3) 0.8157(5) 0.2807(3)
O4 O -0.0191(3) 0.8142(6) 0.1511(3)
O5 O 0.1770(3) 0.7350(5) 0.3839(3)
O6 O 0.2597(3) 0.5032(5) 0.4762(3)
O7 O 0.2658(3) 0.8907(5) 0.4753(3)
O8 O 0.3449(3) 0.6596(5) 0.5683(3)
O9 O 0.5073(3) 1.0702(5) 0.6595(3)
O10 O 0.4223(3) 1.0708(5) 0.7525(2)
O11 O 0.5832(3) 1.2453(5) 0.7501(2)
O12 O 0.4975(3) 1.2495(5) 0.8400(2)
C1 C -0.0145(4) 0.7227(7) 0.2869(4)
C2 C 0.0135(4) 0.7229(8) 0.2129(4)
C3 C 0.2383(4) 0.7650(7) 0.4495(4)
C4 C 0.2847(4) 0.6293(7) 0.5019(4)
C5 C 0.5267(4) 1.1579(7) 0.7230(4)
C6 C 0.4772(4) 1.1587(7) 0.7758(4)
U1A U -0.127811(15) 0.97478(3) 0.145305(14)
U2A U 0.611723(15) 1.41309(3) 0.881022(14)
O3A O 0.0646(3) 0.3157(5) 0.2193(3)
O4A O 0.0191(3) 0.3142(6) 0.3489(3)
O11A O 0.4168(3) 0.7453(5) 0.7499(2)
O12A O 0.5025(3) 0.7495(5) 0.6600(2)
C7 C 0.2456(4) 0.2593(7) 0.6815(4)
H1 H 0.2678 0.3288 0.6539
H2 H 0.2799 0.1743 0.7022
C8 C 0.1702(4) 0.2076(8) 0.6144(4)
H3 H 0.1473 0.1391 0.6416
H4 H 0.1361 0.2924 0.5918
C9 C 0.3183(4) 0.3651(8) 0.8338(4)
H5 H 0.3535 0.3946 0.8083
H6 H 0.3142 0.4476 0.8695
C10 C 0.3501(4) 0.2320(8) 0.8918(4)
H7 H 0.3171 0.2042 0.9205
H8 H 0.3539 0.1478 0.8571
C11 C 0.1908(4) 0.4752(7) 0.7339(4)
H9 H 0.1869 0.5164 0.7859
H10 H 0.1394 0.4495 0.6914
C12 C 0.2248(5) 0.5941(7) 0.6934(4)
H11 H 0.2803 0.5866 0.7205
H12 H 0.2072 0.5751 0.6305
N1 N 0.2400(3) 0.3345(6) 0.7599(3)
H13 H 0.2158 0.2687 0.7817
N2 N 0.1798(4) 0.1318(6) 0.5403(3)
H14 H 0.1321 0.0638 0.4954
H15 H 0.2112 0.0525 0.5612
H16 H 0.2008 0.1942 0.5149
N3 N 0.4274(4) 0.2742(7) 0.9589(3)
H17 H 0.4483 0.1962 0.9947
H18 H 0.4232 0.3503 0.9908
H19 H 0.4572 0.2995 0.9321
N4 N 0.2027(4) 0.7419(6) 0.7061(4)
H20 H 0.2236 0.8082 0.6823
H21 H 0.2198 0.7606 0.7640
H22 H 0.1522 0.7500 0.6806
O13 O 0.0605(4) 0.6955(7) 0.5462(3)
H23 H 0.0968 0.7353 0.5231
H24 H 0.0481 0.7859 0.5711
O14 O 0.3519(4) 0.7196(7) 0.3722(3)
H25 H 0.3388 0.6786 0.3137
H26 H 0.3155 0.6723 0.3917
O15 O 0.0514(5) -0.0354(8) 0.4545(4)
O16 O 0.4068(11) 0.3921(19) 0.6509(8)
O17? O 0.4222(11) 0.3882(19) 0.6142(8)
loop_
_geom_bond_atom_site_label_1
_geom_bond_atom_site_label_2
_geom_bond_site_symmetry_1
_geom_bond_site_symmetry_2
U1 F1 1_555 1_555
U2 F4 1_555 1_555
F2 U1 1_555 1_555
F3 U1 1_555 1_555
F5 U2 1_555 1_555
F6 U2 1_555 1_555
O1 U1 1_555 1_555
O2 U1 1_555 1_555
O3 C1 1_555 1_555
O4 C2 1_555 1_555
O5 U1 1_555 1_555
O6 U1 1_555 1_555
O7 U2 1_555 1_555
O8 U2 1_555 1_555
O9 U2 1_555 1_555
O10 U2 1_555 1_555
O11 C5 1_555 1_555
O12 C6 1_555 1_555
C1 O1 1_555 1_555
C2 O2 1_555 1_555
C3 O5 1_555 1_555
C4 O6 1_555 1_555
C5 O9 1_555 1_555
C6 O10 1_555 1_555
C7 H1 1_555 1_555
H2 C7 1_555 1_555
C8 C7 1_555 1_555
H3 C8 1_555 1_555
H4 C8 1_555 1_555
C9 H5 1_555 1_555
H6 C9 1_555 1_555
C10 C9 1_555 1_555
H7 C10 1_555 1_555
H8 C10 1_555 1_555
C11 H9 1_555 1_555
H10 C11 1_555 1_555
C12 C11 1_555 1_555
H11 C12 1_555 1_555
H12 C12 1_555 1_555
N1 C7 1_555 1_555
H13 N1 1_555 1_555
N2 C8 1_555 1_555
H14 N2 1_555 1_555
H15 N2 1_555 1_555
H16 N2 1_555 1_555
N3 C10 1_555 1_555
H17 N3 1_555 1_555
H18 N3 1_555 1_555
H19 N3 1_555 1_555
N4 C12 1_555 1_555
H20 N4 1_555 1_555
H21 N4 1_555 1_555
H22 N4 1_555 1_555
O13 H23 1_555 1_555
H24 O13 1_555 1_555
O14 H25 1_555 1_555
H26 O14 1_555 1_555
U1A O3 1_555 1_555
U2A O11 1_555 1_555
O3A U1 1_555 1_555
O4A U1 1_555 1_555
O11A U2 1_555 1_555
O12A U2 1_555 1_555
O4 U1A 1_555 1_555
O7 C3 1_555 1_555
O8 C4 1_555 1_555
O12 U2A 1_555 1_555
C1 C2 1_555 1_555
C3 C4 1_555 1_555
C5 C6 1_555 1_555
C9 N1 1_555 1_555
C11 N1 1_555 1_555

#END
