
#######################################################################
#
#                 Cambridge Crystallographic Data Centre
#                                CCDC 
#
#######################################################################
#
# If this CIF has been generated from an entry in the Cambridge 
# Structural Database, then it will include bibliographic, chemical, 
# crystal, experimental, refinement or atomic coordinate data resulting 
# from the CCDC's data processing and validation procedures.
#
#######################################################################

data_KEYPOT
_symmetry_cell_setting           orthorhombic
_symmetry_space_group_name_H-M   'P n a 21'
_symmetry_Int_Tables_number      33
_space_group_name_Hall           'P 2c -2n'
loop_
_symmetry_equiv_pos_site_id
_symmetry_equiv_pos_as_xyz
1 x,y,z
2 -x,-y,1/2+z
3 1/2-x,1/2+y,1/2+z
4 1/2+x,1/2-y,z
_cell_length_a                   9.6475(6)
_cell_length_b                   9.2578(6)
_cell_length_c                   13.8697(9)
_cell_angle_alpha                90
_cell_angle_beta                 90
_cell_angle_gamma                90
_cell_volume                     1238.77
loop_
_atom_site_label
_atom_site_type_symbol
_atom_site_fract_x
_atom_site_fract_y
_atom_site_fract_z
Mn1 Mn 0.11606(9) 0.4060(1) 0.5000
N1 N 0.1996(7) 0.5945(8) 0.5854(5)
N2 N 0.0482(7) 0.6081(7) 0.4247(5)
C1 C 0.1689(9) 0.7270(9) 0.5548(6)
C2 C 0.218(1) 0.848(1) 0.6026(9)
C3 C 0.303(1) 0.832(1) 0.6797(9)
C4 C 0.333(1) 0.697(1) 0.7122(7)
C5 C 0.279(1) 0.584(1) 0.6628(7)
C6 C 0.0820(9) 0.7353(8) 0.4662(6)
C7 C 0.036(1) 0.864(1) 0.4254(8)
C8 C -0.044(1) 0.861(1) 0.3422(8)
C9 C -0.072(1) 0.736(1) 0.3005(9)
C10 C -0.029(1) 0.609(1) 0.3446(7)
O1 O -0.0676(5) 0.3717(6) 0.5870(4)
O2 O 0.2315(5) 0.2475(6) 0.5863(5)
O3 O 0.2950(6) 0.3621(6) 0.4140(4)
O4 O -0.0084(6) 0.2647(7) 0.4118(5)
C11 C -0.1550(8) 0.2882(8) 0.5512(5)
C12 C 0.3794(7) 0.2756(8) 0.4502(6)
H1 H 0.19(1) 0.918(9) 0.590(7)
H2 H 0.318(8) 0.894(9) 0.716(6)
H3 H 0.385(9) 0.676(9) 0.764(6)
H4 H 0.292(9) 0.492(8) 0.683(7)
H5 H 0.057(8) 0.953(8) 0.448(5)
H6 H -0.075(8) 0.949(8) 0.313(6)
H7 H -0.119(9) 0.702(9) 0.243(6)
H8 H -0.043(8) 0.523(9) 0.317(7)
C11C C 0.3450(8) 0.2118(8) 0.5512(5)
C12C C -0.1206(7) 0.2244(8) 0.4502(6)
O2C O -0.2685(5) 0.2525(6) 0.5863(5)
O4C O 0.4916(6) 0.2353(7) 0.4118(5)
O1C O 0.4324(5) 0.1283(6) 0.5870(4)
O3C O -0.2050(6) 0.1379(6) 0.4140(4)
Mn1C Mn -0.38394(9) 0.0940(1) 0.5000
Mn1C_2 Mn 0.61606(9) 0.0940(1) 0.5000
N1C N -0.3004(7) -0.0945(8) 0.5854(5)
N2C N -0.4518(7) -0.1081(7) 0.4247(5)
O1C_2 O -0.5676(5) 0.1283(6) 0.5870(4)
O4C_2 O -0.5084(6) 0.2353(7) 0.4118(5)
C1C C -0.3311(9) -0.2270(9) 0.5548(6)
C5C C -0.221(1) -0.084(1) 0.6628(7)
C6C C -0.4180(9) -0.2353(8) 0.4662(6)
C10C C -0.529(1) -0.109(1) 0.3446(7)
C2C C -0.282(1) -0.348(1) 0.6026(9)
C4C C -0.167(1) -0.197(1) 0.7122(7)
H4C H -0.208(9) 0.008(8) 0.683(7)
C7C C -0.464(1) -0.364(1) 0.4254(8)
C9C C -0.572(1) -0.236(1) 0.3005(9)
H8C H -0.543(8) -0.023(9) 0.317(7)
C3C C -0.197(1) -0.332(1) 0.6797(9)
H1C H -0.31(1) -0.418(9) 0.590(7)
H3C H -0.115(9) -0.176(9) 0.764(6)
C8C C -0.544(1) -0.361(1) 0.3422(8)
H5C H -0.443(8) -0.453(8) 0.448(5)
H7C H -0.619(9) -0.202(9) 0.243(6)
H2C H -0.182(8) -0.394(9) 0.716(6)
H6C H -0.575(8) -0.449(8) 0.313(6)
loop_
_geom_bond_atom_site_label_1
_geom_bond_atom_site_label_2
_geom_bond_site_symmetry_1
_geom_bond_site_symmetry_2
Mn1 N1 1_555 1_555
N1 C1 1_555 1_555
N2 Mn1 1_555 1_555
C1 C2 1_555 1_555
C2 C3 1_555 1_555
C3 C4 1_555 1_555
C4 C5 1_555 1_555
C5 N1 1_555 1_555
C6 N2 1_555 1_555
C7 C6 1_555 1_555
C8 C7 1_555 1_555
C9 C8 1_555 1_555
C10 N2 1_555 1_555
O1 Mn1 1_555 1_555
O2 Mn1 1_555 1_555
O3 Mn1 1_555 1_555
O4 Mn1 1_555 1_555
C11 O1 1_555 1_555
C12 O3 1_555 1_555
H1 C2 1_555 1_555
H2 C3 1_555 1_555
H3 C4 1_555 1_555
H4 C5 1_555 1_555
H5 C7 1_555 1_555
H6 C8 1_555 1_555
H7 C9 1_555 1_555
H8 C10 1_555 1_555
C11C O2 1_555 1_555
C12C O4 1_555 1_555
O2C C11 1_555 1_555
O4C C12 1_555 1_555
O1C C11C 1_555 1_555
O3C C12C 1_555 1_555
Mn1C O2C 1_555 1_555
Mn1C_2 O4C 1_555 1_555
N1C Mn1C 1_555 1_555
N2C Mn1C 1_555 1_555
O1C_2 Mn1C 1_555 1_555
O4C_2 Mn1C 1_555 1_555
C1C N1C 1_555 1_555
C5C N1C 1_555 1_555
C6C N2C 1_555 1_555
C10C N2C 1_555 1_555
C2C C1C 1_555 1_555
C4C C5C 1_555 1_555
H4C C5C 1_555 1_555
C7C C6C 1_555 1_555
C9C C10C 1_555 1_555
H8C C10C 1_555 1_555
C3C C2C 1_555 1_555
H1C C2C 1_555 1_555
H3C C4C 1_555 1_555
C8C C7C 1_555 1_555
H5C C7C 1_555 1_555
H7C C9C 1_555 1_555
H2C C3C 1_555 1_555
H6C C8C 1_555 1_555
C1 C6 1_555 1_555
C9 C10 1_555 1_555
C11 C12C 1_555 1_555
C12 C11C 1_555 1_555
O1C Mn1C_2 1_555 1_555
O3C Mn1C 1_555 1_555
C1C C6C 1_555 1_555
C4C C3C 1_555 1_555
C9C C8C 1_555 1_555

#END
