
#######################################################################
#
#                 Cambridge Crystallographic Data Centre
#                                CCDC 
#
#######################################################################
#
# If this CIF has been generated from an entry in the Cambridge 
# Structural Database, then it will include bibliographic, chemical, 
# crystal, experimental, refinement or atomic coordinate data resulting 
# from the CCDC's data processing and validation procedures.
#
#######################################################################

data_KEYPAG
_symmetry_cell_setting           monoclinic
_symmetry_space_group_name_H-M   'C c'
_symmetry_Int_Tables_number      9
_space_group_name_Hall           'C -2yc'
loop_
_symmetry_equiv_pos_site_id
_symmetry_equiv_pos_as_xyz
1 x,y,z
2 x,-y,1/2+z
3 1/2+x,1/2+y,z
4 1/2+x,1/2-y,1/2+z
_cell_length_a                   33.319(7)
_cell_length_b                   5.9850(10)
_cell_length_c                   8.291(2)
_cell_angle_alpha                90
_cell_angle_beta                 91.07(3)
_cell_angle_gamma                90
_cell_volume                     1653.05
loop_
_atom_site_label
_atom_site_type_symbol
_atom_site_fract_x
_atom_site_fract_y
_atom_site_fract_z
Zn1 Zn 0.342981(6) 0.07973(7) 0.839900(6)
O1 O 0.28516(11) 0.0061(6) 0.8446(5)
O2 O 0.31562(11) -0.2958(6) 0.7557(4)
O3 O 0.35560(11) 0.1564(6) 0.6138(4)
O4 O 0.34250(13) 0.3714(5) 0.9543(4)
O5 O 0.39420(13) 0.0582(6) 0.4120(5)
N1 N 0.19837(18) -0.5597(7) 0.7255(7)
H1 H 0.1874 -0.6787 0.6866
N2 N 0.4626(2) 0.5194(10) 0.7406(7)
H2 H 0.4692 0.6329 0.7988
C1 C 0.20712(15) -0.2288(7) 0.8476(5)
C2 C 0.19464(18) -0.0424(8) 0.9367(7)
H3 H 0.2128 0.0695 0.9654
C3 C 0.1552(2) -0.0282(10) 0.9807(8)
H4 H 0.1468 0.0934 1.0411
C4 C 0.12746(17) -0.1936(10) 0.9362(8)
H5 H 0.1008 -0.1774 0.9650
C5 C 0.13866(18) -0.3778(10) 0.8517(8)
H6 H 0.1202 -0.4885 0.8243
C6 C 0.17831(19) -0.3949(8) 0.8080(7)
C7 C 0.23755(17) -0.5072(8) 0.7149(6)
H7 H 0.2568 -0.5958 0.6664
C8 C 0.24485(15) -0.3043(7) 0.7859(5)
C9 C 0.28374(15) -0.1934(9) 0.7936(5)
C10 C 0.38951(14) 0.1524(7) 0.5471(5)
C11 C 0.42459(15) 0.2648(7) 0.6172(5)
C12 C 0.4247(2) 0.4497(10) 0.7123(7)
H8 H 0.4019 0.5183 0.7521
C13 C 0.4889(2) 0.3840(11) 0.6634(7)
C14 C 0.5313(3) 0.3864(14) 0.6532(9)
H9 H 0.5465 0.4945 0.7069
C15 C 0.5489(2) 0.2292(17) 0.5644(10)
H10 H 0.5767 0.2305 0.5554
C16 C 0.5270(2) 0.0649(14) 0.4855(11)
H11 H 0.5405 -0.0420 0.4257
C17 C 0.48555(19) 0.0551(9) 0.4933(7)
H12 H 0.4712 -0.0572 0.4405
C18 C 0.46596(15) 0.2177(8) 0.5821(5)
H13 H 0.335(3) 0.388(5) 1.049(4)
H14 H 0.339(2) 0.494(3) 0.918(4)
Zn1A Zn 0.342981(6) -0.07973(7) 0.339900(6)
O5A O 0.39420(13) -0.0582(6) 0.9120(5)
loop_
_geom_bond_atom_site_label_1
_geom_bond_atom_site_label_2
_geom_bond_site_symmetry_1
_geom_bond_site_symmetry_2
Zn1 O1 1_555 1_555
O1 C9 1_555 1_555
O2 Zn1 1_555 1_555
O3 Zn1 1_555 1_555
O4 Zn1 1_555 1_555
O5 C10 1_555 1_555
N1 H1 1_555 1_555
N2 H2 1_555 1_555
C1 C2 1_555 1_555
C2 H3 1_555 1_555
C3 C2 1_555 1_555
H4 C3 1_555 1_555
C4 C3 1_555 1_555
H5 C4 1_555 1_555
C5 C4 1_555 1_555
H6 C5 1_555 1_555
C6 N1 1_555 1_555
C7 N1 1_555 1_555
H7 C7 1_555 1_555
C8 C1 1_555 1_555
C9 O2 1_555 1_555
C10 O3 1_555 1_555
C11 C10 1_555 1_555
C12 N2 1_555 1_555
H8 C12 1_555 1_555
C13 N2 1_555 1_555
C14 C13 1_555 1_555
H9 C14 1_555 1_555
C15 C14 1_555 1_555
H10 C15 1_555 1_555
C16 C15 1_555 1_555
H11 C16 1_555 1_555
C17 C16 1_555 1_555
H12 C17 1_555 1_555
C18 C11 1_555 1_555
H13 O4 1_555 1_555
H14 O4 1_555 1_555
Zn1A O5 1_555 1_555
O5A Zn1 1_555 1_555
C1 C6 1_555 1_555
C5 C6 1_555 1_555
C7 C8 1_555 1_555
C8 C9 1_555 1_555
C11 C12 1_555 1_555
C13 C18 1_555 1_555
C17 C18 1_555 1_555

#END
