
#######################################################################
#
#                 Cambridge Crystallographic Data Centre
#                                CCDC 
#
#######################################################################
#
# If this CIF has been generated from an entry in the Cambridge 
# Structural Database, then it will include bibliographic, chemical, 
# crystal, experimental, refinement or atomic coordinate data resulting 
# from the CCDC's data processing and validation procedures.
#
#######################################################################

data_KEYSUE
_symmetry_cell_setting           monoclinic
_symmetry_space_group_name_H-M   'P 21/c'
_symmetry_Int_Tables_number      14
_space_group_name_Hall           '-P 2ybc'
loop_
_symmetry_equiv_pos_site_id
_symmetry_equiv_pos_as_xyz
1 x,y,z
2 -x,1/2+y,1/2-z
3 -x,-y,-z
4 x,1/2-y,1/2+z
_cell_length_a                   3.853(6)
_cell_length_b                   7.368(11)
_cell_length_c                   29.04(4)
_cell_angle_alpha                90
_cell_angle_beta                 93.19(2)
_cell_angle_gamma                90
_cell_volume                     823.136
loop_
_atom_site_label
_atom_site_type_symbol
_atom_site_fract_x
_atom_site_fract_y
_atom_site_fract_z
Cu1 Cu 0.7277(3) 0.59768(14) 0.47331(3)
Br1 Br 0.76853(17) 0.25393(9) 0.48666(2)
O1 O 0.082(2) 0.3482(9) 0.2739(2)
O2 O 0.111(2) 0.2062(9) 0.3382(3)
C1 C 0.680(2) 0.7761(9) 0.3802(3)
C2 C 0.583(2) 0.7883(11) 0.3324(3)
H1 H 0.6324 0.8929 0.3161
C3 C 0.418(2) 0.6453(10) 0.3104(2)
H2 H 0.3539 0.6512 0.2791
C4 C 0.3476(18) 0.4928(10) 0.3357(2)
C5 C 0.4474(19) 0.4859(10) 0.3825(2)
H3 H 0.3997 0.3816 0.3990
N1 N 0.6090(15) 0.6236(8) 0.40437(19)
N2 N 0.8356(19) 0.9106(9) 0.4026(2)
H4 H 0.8891 0.9005 0.4317
H5 H 0.8839 1.0087 0.3883
N3 N 0.1740(19) 0.3383(10) 0.3145(2)
Cu1B Cu 0.2723(3) 0.40232(14) 0.52669(3)
Cu1B_2 Cu 1.2723(3) 0.40232(14) 0.52669(3)
Br1B Br 0.23147(17) 0.74607(9) 0.51334(2)
Br1B_2 Br 1.23147(17) 0.74607(9) 0.51334(2)
loop_
_geom_bond_atom_site_label_1
_geom_bond_atom_site_label_2
_geom_bond_site_symmetry_1
_geom_bond_site_symmetry_2
Cu1 Br1 1_555 1_555
Br1 Cu1B 1_555 1_555
O1 N3 1_555 1_555
O2 N3 1_555 1_555
C1 C2 1_555 1_555
C2 H1 1_555 1_555
C3 C2 1_555 1_555
H2 C3 1_555 1_555
C4 C3 1_555 1_555
C5 C4 1_555 1_555
H3 C5 1_555 1_555
N1 Cu1 1_555 1_555
N2 C1 1_555 1_555
H4 N2 1_555 1_555
H5 N2 1_555 1_555
N3 C4 1_555 1_555
Cu1B Cu1 1_555 1_555
Cu1B_2 Br1 1_555 1_555
Br1B Cu1 1_555 1_555
Br1B_2 Cu1 1_555 1_555
C1 N1 1_555 1_555
C5 N1 1_555 1_555
Cu1B Br1B 1_555 1_555
Cu1B_2 Br1B_2 1_555 1_555

#END
