
#######################################################################
#
#                 Cambridge Crystallographic Data Centre
#                                CCDC 
#
#######################################################################
#
# If this CIF has been generated from an entry in the Cambridge 
# Structural Database, then it will include bibliographic, chemical, 
# crystal, experimental, refinement or atomic coordinate data resulting 
# from the CCDC's data processing and validation procedures.
#
#######################################################################

data_KEYSIS
_symmetry_cell_setting           tetragonal
_symmetry_space_group_name_H-M   'P 42/m'
_symmetry_Int_Tables_number      84
_space_group_name_Hall           '-P 4c'
loop_
_symmetry_equiv_pos_site_id
_symmetry_equiv_pos_as_xyz
1 x,y,z
2 -y,x,1/2+z
3 -x,-y,z
4 y,-x,1/2+z
5 -x,-y,-z
6 y,-x,1/2-z
7 x,y,-z
8 -y,x,1/2-z
_cell_length_a                   9.735(2)
_cell_length_b                   9.735(2)
_cell_length_c                   18.974(4)
_cell_angle_alpha                90
_cell_angle_beta                 90
_cell_angle_gamma                90
_cell_volume                     1798.17
loop_
_atom_site_label
_atom_site_type_symbol
_atom_site_fract_x
_atom_site_fract_y
_atom_site_fract_z
Zn1 Zn 0.0000 0.0000 0.2500
O1 O 0.0000 0.0000 0.14019(16)
N1 N 0.3663(2) 0.2229(2) 0.19396(11)
N2 N 0.4042(3) 0.1971(4) 0.26044(15)
N3 N 0.2018(2) 0.0983(2) 0.23789(12)
C1 C 0.4349(3) 0.3045(3) 0.07322(14)
C2 C 0.5270(3) 0.2180(3) 0.03716(15)
C3 C 0.3388(3) 0.3844(3) 0.03707(14)
C4 C 0.6278(3) 0.1289(4) 0.0764(2)
H1 H 0.6149 0.1405 0.1262
H2 H 0.7198 0.1550 0.0639
H3 H 0.6131 0.0344 0.0640
C5 C 0.2358(4) 0.4733(3) 0.0753(2)
H4 H 0.2478 0.4630 0.1253
H5 H 0.1444 0.4458 0.0625
H6 H 0.2497 0.5677 0.0625
C6 C 0.4483(3) 0.3200(4) 0.15217(15)
H7 H 0.5442 0.3087 0.1648
H8 H 0.4216 0.4127 0.1650
C7 C 0.3023(4) 0.1224(4) 0.28418(17)
H9 H 0.3001 0.0886 0.3300
C8 C 0.2469(3) 0.1643(3) 0.18121(15)
H10 H 0.2006 0.1686 0.1384
H11 H -0.007(4) -0.063(4) 0.112(2)
H11B H 0.007(4) 0.063(4) 0.112(2)
N1F N 0.3663(2) 0.2229(2) -0.19396(11)
N2F N 0.4042(3) 0.1971(4) -0.26044(15)
N3F N 0.2018(2) 0.0983(2) -0.23789(12)
C1F C 0.4349(3) 0.3045(3) -0.07322(14)
C2F C 0.5270(3) 0.2180(3) -0.03716(15)
C3F C 0.3388(3) 0.3844(3) -0.03707(14)
C4F C 0.6278(3) 0.1289(4) -0.0764(2)
H1F H 0.6149 0.1405 -0.1262
H2F H 0.7198 0.1550 -0.0639
H3F H 0.6131 0.0344 -0.0640
C5F C 0.2358(4) 0.4733(3) -0.0753(2)
H4F H 0.2478 0.4630 -0.1253
H5F H 0.1444 0.4458 -0.0625
H6F H 0.2497 0.5677 -0.0625
C6F C 0.4483(3) 0.3200(4) -0.15217(15)
H7F H 0.5442 0.3087 -0.1648
H8F H 0.4216 0.4127 -0.1650
C7F C 0.3023(4) 0.1224(4) -0.28418(17)
H9F H 0.3001 0.0886 -0.3300
C8F C 0.2469(3) 0.1643(3) -0.18121(15)
H10F H 0.2006 0.1686 -0.1384
N1B N -0.3663(2) -0.2229(2) 0.19396(11)
N2B N -0.4042(3) -0.1971(4) 0.26044(15)
N3B N -0.2018(2) -0.0983(2) 0.23789(12)
C1B C -0.4349(3) -0.3045(3) 0.07322(14)
C2B C -0.5270(3) -0.2180(3) 0.03716(15)
C3B C -0.3388(3) -0.3844(3) 0.03707(14)
C4B C -0.6278(3) -0.1289(4) 0.0764(2)
H1B H -0.6149 -0.1405 0.1262
H2B H -0.7198 -0.1550 0.0639
H3B H -0.6131 -0.0344 0.0640
C5B C -0.2358(4) -0.4733(3) 0.0753(2)
H4B H -0.2478 -0.4630 0.1253
H5B H -0.1444 -0.4458 0.0625
H6B H -0.2497 -0.5677 0.0625
C6B C -0.4483(3) -0.3200(4) 0.15217(15)
H7B H -0.5442 -0.3087 0.1648
H8B H -0.4216 -0.4127 0.1650
C7B C -0.3023(4) -0.1224(4) 0.28418(17)
H9B H -0.3001 -0.0886 0.3300
C8B C -0.2469(3) -0.1643(3) 0.18121(15)
H10B H -0.2006 -0.1686 0.1384
N1D N -0.3663(2) -0.2229(2) -0.19396(11)
N2D N -0.4042(3) -0.1971(4) -0.26044(15)
N3D N -0.2018(2) -0.0983(2) -0.23789(12)
C1D C -0.4349(3) -0.3045(3) -0.07322(14)
C2D C -0.5270(3) -0.2180(3) -0.03716(15)
C3D C -0.3388(3) -0.3844(3) -0.03707(14)
C4D C -0.6278(3) -0.1289(4) -0.0764(2)
H1D H -0.6149 -0.1405 -0.1262
H2D H -0.7198 -0.1550 -0.0639
H3D H -0.6131 -0.0344 -0.0640
C5D C -0.2358(4) -0.4733(3) -0.0753(2)
H4D H -0.2478 -0.4630 -0.1253
H5D H -0.1444 -0.4458 -0.0625
H6D H -0.2497 -0.5677 -0.0625
C6D C -0.4483(3) -0.3200(4) -0.15217(15)
H7D H -0.5442 -0.3087 -0.1648
H8D H -0.4216 -0.4127 -0.1650
C7D C -0.3023(4) -0.1224(4) -0.28418(17)
H9D H -0.3001 -0.0886 -0.3300
C8D C -0.2469(3) -0.1643(3) -0.18121(15)
H10D H -0.2006 -0.1686 -0.1384
O1E O 0.0000 0.0000 0.35981(16)
H11E H -0.063(4) 0.007(4) 0.388(2)
H11G H 0.063(4) -0.007(4) 0.388(2)
Zn1A Zn 0.0000 0.0000 -0.2500
N3E N 0.0983(2) -0.2018(2) 0.26211(12)
N3G N -0.0983(2) 0.2018(2) 0.26211(12)
O2 O 0.0165(3) -0.2323(3) 0.05698(11)
O3 O -0.1263(3) -0.1077(4) 0.0000
N4 N -0.0311(4) -0.1912(4) 0.0000
O2F O 0.0165(3) -0.2323(3) -0.05698(11)
loop_
_geom_bond_atom_site_label_1
_geom_bond_atom_site_label_2
_geom_bond_site_symmetry_1
_geom_bond_site_symmetry_2
Zn1 O1 1_555 1_555
O1 H11 1_555 1_555
N1 N2 1_555 1_555
N2 C7 1_555 1_555
N3 Zn1 1_555 1_555
C1 C2 1_555 1_555
C2 C4 1_555 1_555
C3 C1 1_555 1_555
C4 H1 1_555 1_555
H2 C4 1_555 1_555
H3 C4 1_555 1_555
C5 C3 1_555 1_555
H4 C5 1_555 1_555
H5 C5 1_555 1_555
H6 C5 1_555 1_555
C6 N1 1_555 1_555
H7 C6 1_555 1_555
H8 C6 1_555 1_555
C7 N3 1_555 1_555
H9 C7 1_555 1_555
C8 N1 1_555 1_555
H10 C8 1_555 1_555
O2 N4 1_555 1_555
O3 N4 1_555 1_555
N4 O2F 1_555 1_555
H11B O1 1_555 1_555
N1F N2F 1_555 1_555
N2F C7F 1_555 1_555
N3F C7F 1_555 1_555
C1F C2F 1_555 1_555
C2F C2 1_555 1_555
C3F C3 1_555 1_555
C4F C2F 1_555 1_555
H1F C4F 1_555 1_555
H2F C4F 1_555 1_555
H3F C4F 1_555 1_555
C5F C3F 1_555 1_555
H4F C5F 1_555 1_555
H5F C5F 1_555 1_555
H6F C5F 1_555 1_555
C6F N1F 1_555 1_555
H7F C6F 1_555 1_555
H8F C6F 1_555 1_555
C7F H9F 1_555 1_555
C8F N1F 1_555 1_555
H10F C8F 1_555 1_555
N1B N2B 1_555 1_555
N2B C7B 1_555 1_555
N3B Zn1 1_555 1_555
C1B C2B 1_555 1_555
C2B C4B 1_555 1_555
C3B C1B 1_555 1_555
C4B H1B 1_555 1_555
H2B C4B 1_555 1_555
H3B C4B 1_555 1_555
C5B C3B 1_555 1_555
H4B C5B 1_555 1_555
H5B C5B 1_555 1_555
H6B C5B 1_555 1_555
C6B N1B 1_555 1_555
H7B C6B 1_555 1_555
H8B C6B 1_555 1_555
C7B N3B 1_555 1_555
H9B C7B 1_555 1_555
C8B N1B 1_555 1_555
H10B C8B 1_555 1_555
N1D N2D 1_555 1_555
N2D C7D 1_555 1_555
N3D C7D 1_555 1_555
C1D C2D 1_555 1_555
C2D C2B 1_555 1_555
C3D C3B 1_555 1_555
C4D C2D 1_555 1_555
H1D C4D 1_555 1_555
H2D C4D 1_555 1_555
H3D C4D 1_555 1_555
C5D C3D 1_555 1_555
H4D C5D 1_555 1_555
H5D C5D 1_555 1_555
H6D C5D 1_555 1_555
C6D N1D 1_555 1_555
H7D C6D 1_555 1_555
H8D C6D 1_555 1_555
C7D H9D 1_555 1_555
C8D N1D 1_555 1_555
H10D C8D 1_555 1_555
O1E Zn1 1_555 1_555
H11E O1E 1_555 1_555
H11G O1E 1_555 1_555
Zn1A N3F 1_555 1_555
N3E Zn1 1_555 1_555
N3G Zn1 1_555 1_555
N3 C8 1_555 1_555
C1 C6 1_555 1_555
N3F C8F 1_555 1_555
C1F C3F 1_555 1_555
C1F C6F 1_555 1_555
N3B C8B 1_555 1_555
C1B C6B 1_555 1_555
N3D C8D 1_555 1_555
N3D Zn1A 1_555 1_555
C1D C3D 1_555 1_555
C1D C6D 1_555 1_555

#END
