
#######################################################################
#
#                 Cambridge Crystallographic Data Centre
#                                CCDC 
#
#######################################################################
#
# If this CIF has been generated from an entry in the Cambridge 
# Structural Database, then it will include bibliographic, chemical, 
# crystal, experimental, refinement or atomic coordinate data resulting 
# from the CCDC's data processing and validation procedures.
#
#######################################################################

data_KEYTAL
_symmetry_cell_setting           triclinic
_symmetry_space_group_name_H-M   'P -1'
_symmetry_Int_Tables_number      2
_space_group_name_Hall           '-P 1'
loop_
_symmetry_equiv_pos_site_id
_symmetry_equiv_pos_as_xyz
1 x,y,z
2 -x,-y,-z
_cell_length_a                   9.4960(8)
_cell_length_b                   9.8786(9)
_cell_length_c                   13.8975(12)
_cell_angle_alpha                79.9030(10)
_cell_angle_beta                 70.6170(9)
_cell_angle_gamma                73.4910(10)
_cell_volume                     1174.36
loop_
_atom_site_label
_atom_site_type_symbol
_atom_site_fract_x
_atom_site_fract_y
_atom_site_fract_z
Co1 Co 0.68349(4) 0.81036(4) 0.26128(3)
Cl1 Cl 0.45324(8) 0.91583(8) 0.36381(6)
Cl2 Cl 0.77687(11) 0.93737(9) 0.11665(6)
N1 N 0.8150(2) 0.7578(2) 0.35690(16)
N2 N 0.9100(2) 0.7777(2) 0.47850(16)
N3 N 0.6836(3) 0.6309(2) 0.21118(16)
C1 C 0.6607(3) 0.5036(3) 0.26640(19)
C2 C 0.9587(3) 0.6628(3) 0.34336(19)
C3 C 0.7927(3) 0.8217(3) 0.4382(2)
H1 H 0.7042 0.8906 0.4650
C4 C 1.0188(3) 0.6750(3) 0.4189(2)
C5 C 0.6369(3) 0.4630(3) 0.3699(2)
H2 H 0.6331 0.5248 0.4146
C6 C 0.7047(4) 0.6117(3) 0.1151(2)
H3 H 0.7239 0.6805 0.0608
C7 C 0.6666(3) 0.4107(3) 0.2001(2)
C8 C 1.0306(3) 0.9329(3) 0.5304(2)
H4 H 1.1307 0.8847 0.4887
H5 H 1.0443 0.9587 0.5903
N4 N 0.6957(3) 0.4825(3) 0.10426(17)
C9 C 0.9258(3) 0.8310(3) 0.5648(2)
H6 H 0.9672 0.7517 0.6077
H7 H 0.8249 0.8792 0.6056
C10 C 1.1610(3) 0.5930(3) 0.4255(2)
H8 H 1.2010 0.6027 0.4759
C11 C 1.0399(3) 0.5635(3) 0.2715(2)
H9 H 1.0006 0.5529 0.2210
C12 C 0.6242(4) 0.2363(3) 0.3367(3)
H10 H 0.6121 0.1455 0.3623
C13 C 1.1798(3) 0.4827(3) 0.2790(2)
H11 H 1.2366 0.4159 0.2321
C14 C 0.6460(3) 0.2739(3) 0.2346(3)
H12 H 0.6471 0.2124 0.1906
C15 C 0.6192(3) 0.3273(3) 0.4043(2)
H13 H 0.6038 0.2963 0.4733
C16 C 1.2399(3) 0.4969(3) 0.3540(2)
H14 H 1.3358 0.4401 0.3559
C17 C 0.7097(4) 0.4310(4) 0.0074(2)
H15 H 0.7763 0.3361 0.0025
H16 H 0.7577 0.4917 -0.0495
C18 C 0.5563(4) 0.4284(3) -0.0017(3)
H17 H 0.5108 0.3645 0.0536
H18 H 0.5736 0.3907 -0.0657
N1A N 1.1850(2) 1.2422(2) 0.64310(16)
N2A N 1.0900(2) 1.2223(2) 0.52150(16)
C2A C 1.0413(3) 1.3372(3) 0.65664(19)
C3A C 1.2073(3) 1.1783(3) 0.5618(2)
H1A H 1.2958 1.1094 0.5350
C4A C 0.9812(3) 1.3250(3) 0.5811(2)
C8A C 0.9694(3) 1.0671(3) 0.4696(2)
H4A H 0.8693 1.1153 0.5113
H5A H 0.9557 1.0413 0.4097
C9A C 1.0742(3) 1.1690(3) 0.4352(2)
H6A H 1.0328 1.2483 0.3923
H7A H 1.1751 1.1208 0.3944
C10A C 0.8390(3) 1.4070(3) 0.5745(2)
H8A H 0.7990 1.3973 0.5241
C11A C 0.9601(3) 1.4365(3) 0.7285(2)
H9A H 0.9994 1.4471 0.7790
C13A C 0.8202(3) 1.5173(3) 0.7210(2)
H11A H 0.7634 1.5841 0.7679
C16A C 0.7601(3) 1.5031(3) 0.6460(2)
H14A H 0.6642 1.5599 0.6441
N3A N 0.3164(3) 0.3691(2) -0.21118(16)
C1A C 0.3393(3) 0.4964(3) -0.26640(19)
C5A C 0.3631(3) 0.5370(3) -0.3699(2)
H2A H 0.3669 0.4752 -0.4146
C6A C 0.2953(4) 0.3883(3) -0.1151(2)
H3A H 0.2761 0.3195 -0.0608
C7A C 0.3334(3) 0.5893(3) -0.2001(2)
N4A N 0.3043(3) 0.5175(3) -0.10426(17)
C12A C 0.3758(4) 0.7637(3) -0.3367(3)
H10A H 0.3879 0.8545 -0.3623
C14A C 0.3540(3) 0.7261(3) -0.2346(3)
H12A H 0.3529 0.7876 -0.1906
C15A C 0.3808(3) 0.6727(3) -0.4043(2)
H13A H 0.3962 0.7037 -0.4733
C17A C 0.2903(4) 0.5690(4) -0.0074(2)
H15A H 0.2237 0.6639 -0.0025
H16A H 0.2423 0.5083 0.0495
C18A C 0.4437(4) 0.5716(3) 0.0017(3)
H17A H 0.4892 0.6355 -0.0536
H18A H 0.4264 0.6093 0.0657
Co1A Co 0.31651(4) 0.18964(4) -0.26128(3)
Cl1A Cl 0.54676(8) 0.08417(8) -0.36381(6)
Cl2A Cl 0.22313(11) 0.06263(9) -0.11665(6)
Co1A_2 Co 1.31651(4) 1.18964(4) 0.73872(3)
N1A_2 N 0.1850(2) 0.2422(2) -0.35690(16)
loop_
_geom_bond_atom_site_label_1
_geom_bond_atom_site_label_2
_geom_bond_site_symmetry_1
_geom_bond_site_symmetry_2
Co1 Cl1 1_555 1_555
Cl2 Co1 1_555 1_555
N1 Co1 1_555 1_555
N2 C3 1_555 1_555
N3 Co1 1_555 1_555
C1 N3 1_555 1_555
C2 N1 1_555 1_555
C3 N1 1_555 1_555
H1 C3 1_555 1_555
C4 N2 1_555 1_555
C5 C1 1_555 1_555
H2 C5 1_555 1_555
C6 N3 1_555 1_555
H3 C6 1_555 1_555
C7 C1 1_555 1_555
C8 H4 1_555 1_555
H5 C8 1_555 1_555
N4 C6 1_555 1_555
C9 N2 1_555 1_555
H6 C9 1_555 1_555
H7 C9 1_555 1_555
C10 C4 1_555 1_555
H8 C10 1_555 1_555
C11 C2 1_555 1_555
H9 C11 1_555 1_555
C12 H10 1_555 1_555
C13 C11 1_555 1_555
H11 C13 1_555 1_555
C14 C7 1_555 1_555
H12 C14 1_555 1_555
C15 C5 1_555 1_555
H13 C15 1_555 1_555
C16 C10 1_555 1_555
H14 C16 1_555 1_555
C17 N4 1_555 1_555
H15 C17 1_555 1_555
H16 C17 1_555 1_555
C18 C17 1_555 1_555
H17 C18 1_555 1_555
H18 C18 1_555 1_555
N1A C2A 1_555 1_555
N2A C3A 1_555 1_555
C2A C4A 1_555 1_555
C3A N1A 1_555 1_555
H1A C3A 1_555 1_555
C4A N2A 1_555 1_555
C8A C8 1_555 1_555
H4A C8A 1_555 1_555
H5A C8A 1_555 1_555
C9A N2A 1_555 1_555
H6A C9A 1_555 1_555
H7A C9A 1_555 1_555
C10A C4A 1_555 1_555
H8A C10A 1_555 1_555
C11A C2A 1_555 1_555
H9A C11A 1_555 1_555
C13A C11A 1_555 1_555
H11A C13A 1_555 1_555
C16A C10A 1_555 1_555
H14A C16A 1_555 1_555
N3A C1A 1_555 1_555
C1A C5A 1_555 1_555
C5A H2A 1_555 1_555
C6A N3A 1_555 1_555
H3A C6A 1_555 1_555
C7A C1A 1_555 1_555
N4A C6A 1_555 1_555
C12A H10A 1_555 1_555
C14A C7A 1_555 1_555
H12A C14A 1_555 1_555
C15A C5A 1_555 1_555
H13A C15A 1_555 1_555
C17A N4A 1_555 1_555
H15A C17A 1_555 1_555
H16A C17A 1_555 1_555
C18A C18 1_555 1_555
H17A C18A 1_555 1_555
H18A C18A 1_555 1_555
Co1A N3A 1_555 1_555
Cl1A Co1A 1_555 1_555
Cl2A Co1A 1_555 1_555
Co1A_2 N1A 1_555 1_555
N1A_2 Co1A 1_555 1_555
C2 C4 1_555 1_555
C7 N4 1_555 1_555
C8 C9 1_555 1_555
C12 C14 1_555 1_555
C12 C15 1_555 1_555
C13 C16 1_555 1_555
C8A C9A 1_555 1_555
C13A C16A 1_555 1_555
C7A N4A 1_555 1_555
C12A C14A 1_555 1_555
C12A C15A 1_555 1_555
C17A C18A 1_555 1_555

#END
