
#######################################################################
#
#                 Cambridge Crystallographic Data Centre
#                                CCDC 
#
#######################################################################
#
# If this CIF has been generated from an entry in the Cambridge 
# Structural Database, then it will include bibliographic, chemical, 
# crystal, experimental, refinement or atomic coordinate data resulting 
# from the CCDC's data processing and validation procedures.
#
#######################################################################

data_KEYYIX
_symmetry_cell_setting           monoclinic
_symmetry_space_group_name_H-M   'P 21/c'
_symmetry_Int_Tables_number      14
_space_group_name_Hall           '-P 2ybc'
loop_
_symmetry_equiv_pos_site_id
_symmetry_equiv_pos_as_xyz
1 x,y,z
2 -x,1/2+y,1/2-z
3 -x,-y,-z
4 x,1/2-y,1/2+z
_cell_length_a                   27.756(2)
_cell_length_b                   11.3675(7)
_cell_length_c                   22.7132(15)
_cell_angle_alpha                90
_cell_angle_beta                 112.999(5)
_cell_angle_gamma                90
_cell_volume                     6596.74
loop_
_atom_site_label
_atom_site_type_symbol
_atom_site_fract_x
_atom_site_fract_y
_atom_site_fract_z
C1 C 0.0845(4) -0.7139(9) 0.0795(5)
H1 H 0.1151 -0.7289 0.1150
C2 C 0.0837(5) -0.7369(10) 0.0182(5)
H2 H 0.1130 -0.7682 0.0137
C3 C 0.0400(5) -0.7133(9) -0.0341(5)
H3 H 0.0397 -0.7265 -0.0747
C4 C -0.0044(4) -0.6692(9) -0.0275(5)
C5 C -0.0526(5) -0.6423(9) -0.0792(5)
H4 H -0.0550 -0.6502 -0.1210
C6 C -0.0944(5) -0.6060(9) -0.0690(5)
H5 H -0.1255 -0.5921 -0.1039
C7 C -0.0926(4) -0.5876(8) -0.0054(5)
C8 C -0.1345(4) -0.5532(9) 0.0093(5)
H6 H -0.1668 -0.5368 -0.0231
C9 C -0.1279(4) -0.5436(9) 0.0717(5)
H7 H -0.1557 -0.5216 0.0824
C10 C -0.0790(4) -0.5671(8) 0.1194(5)
H8 H -0.0756 -0.5630 0.1617
C11 C -0.0443(4) -0.6100(7) 0.0459(4)
C12 C -0.0004(4) -0.6504(8) 0.0355(5)
C13 C 0.0562(4) -0.9805(8) 0.2200(4)
C14 C 0.1049(4) -0.9377(9) 0.2556(5)
H9 H 0.1092 -0.8580 0.2657
C15 C 0.1477(4) -1.0116(10) 0.2767(5)
H10 H 0.1806 -0.9816 0.3016
C16 C 0.1425(5) -1.1270(10) 0.2616(6)
H11 H 0.1718 -1.1756 0.2760
C17 C 0.0952(4) -1.1728(9) 0.2257(5)
H12 H 0.0920 -1.2524 0.2155
C18 C 0.0509(4) -1.0996(8) 0.2036(4)
H13 H 0.0183 -1.1303 0.1783
C19 C -0.0350(4) -0.9162(7) 0.1408(4)
C20 C -0.0870(4) -0.9003(9) 0.1309(5)
H14 H -0.0962 -0.8892 0.1657
C21 C -0.1258(5) -0.9008(12) 0.0692(7)
H15 H -0.1606 -0.8887 0.0631
C22 C -0.1130(6) -0.9189(11) 0.0179(6)
H16 H -0.1391 -0.9197 -0.0231
C23 C -0.0629(6) -0.9356(10) 0.0262(5)
H17 H -0.0542 -0.9470 -0.0090
C24 C -0.0239(4) -0.9357(9) 0.0874(5)
H18 H 0.0105 -0.9494 0.0926
C25 C 0.2133(3) -0.6736(8) 0.2184(4)
C26 C 0.2242(4) -0.6312(9) 0.1681(5)
H19 H 0.2293 -0.5508 0.1655
C27 C 0.2277(5) -0.7034(11) 0.1219(6)
H20 H 0.2339 -0.6718 0.0877
C28 C 0.2222(5) -0.8230(10) 0.1260(7)
H21 H 0.2245 -0.8730 0.0948
C29 C 0.2130(5) -0.8671(9) 0.1766(6)
H22 H 0.2102 -0.9480 0.1806
C30 C 0.2080(4) -0.7935(8) 0.2214(5)
H23 H 0.2007 -0.8253 0.2548
C31 C 0.1772(5) -0.6543(11) 0.3557(5)
H24 H 0.1429 -0.6298 0.3326
C32 C 0.2133(4) -0.6418(8) 0.3291(5)
C33 C 0.2644(4) -0.6783(11) 0.3659(6)
H25 H 0.2903 -0.6704 0.3497
C34 C 0.2770(6) -0.7253(13) 0.4253(7)
H26 H 0.3112 -0.7495 0.4487
C35 C 0.2414(8) -0.7373(14) 0.4505(7)
H27 H 0.2508 -0.7690 0.4912
C36 C 0.1900(6) -0.7023(14) 0.4159(6)
H28 H 0.1647 -0.7111 0.4329
C37 C 0.2019(3) -0.5879(7) 0.2637(4)
C38 C 0.1435(4) -0.5545(9) 0.2305(4)
C39 C 0.0076(3) -0.9060(7) 0.2065(4)
C40 C -0.0106(3) -0.9422(8) 0.2612(4)
Cu1 Cu 0.03737(4) -0.61670(9) 0.16905(5)
N1 N 0.0437(3) -0.6722(6) 0.0884(3)
N2 N -0.0379(3) -0.5944(6) 0.1086(4)
O1 O 0.1110(2) -0.6361(5) 0.2140(3)
O2 O 0.1352(3) -0.4474(6) 0.2217(3)
O3 O 0.2334(3) -0.4855(6) 0.2724(3)
H57 H 0.2277 -0.4551 0.2376
O4 O 0.0209(2) -0.7844(5) 0.2161(3)
O5 O -0.0037(2) -0.8680(5) 0.3043(3)
O6 O -0.0283(2) -1.0446(5) 0.2590(3)
Cu1A Cu -0.03737(4) -1.11670(9) 0.33095(5)
O6A O 0.0283(2) -0.5446(5) 0.2410(3)
C41 C 0.4139(4) -0.2828(9) -0.0072(5)
H29 H 0.3836 -0.2624 -0.0013
C42 C 0.4140(5) -0.2795(10) -0.0687(5)
H30 H 0.3842 -0.2552 -0.1031
C43 C 0.4575(5) -0.3119(10) -0.0783(5)
H31 H 0.4570 -0.3126 -0.1194
C44 C 0.5023(4) -0.3437(8) -0.0270(5)
C45 C 0.5514(5) -0.3761(9) -0.0305(6)
H32 H 0.5535 -0.3802 -0.0704
C46 C 0.5933(5) -0.4000(9) 0.0211(6)
H33 H 0.6239 -0.4226 0.0167
C47 C 0.5930(4) -0.3921(8) 0.0845(5)
C48 C 0.6366(4) -0.4111(10) 0.1417(6)
H34 H 0.6689 -0.4300 0.1407
C49 C 0.6316(4) -0.4019(10) 0.1982(5)
H35 H 0.6606 -0.4099 0.2365
C50 C 0.5816(4) -0.3798(8) 0.1982(5)
H36 H 0.5786 -0.3773 0.2375
C51 C 0.5460(4) -0.3678(7) 0.0887(4)
C52 C 0.4994(4) -0.3403(8) 0.0334(4)
C53 C 0.2860(3) -0.3164(8) 0.0111(4)
C54 C 0.2883(4) -0.1964(10) 0.0072(5)
H37 H 0.2951 -0.1507 0.0435
C55 C 0.2807(5) -0.1422(12) -0.0510(7)
H38 H 0.2821 -0.0607 -0.0531
C56 C 0.2710(5) -0.2081(16) -0.1048(7)
H39 H 0.2657 -0.1719 -0.1435
C57 C 0.2691(5) -0.3275(17) -0.1009(6)
H40 H 0.2633 -0.3728 -0.1371
C58 C 0.2754(4) -0.3817(11) -0.0448(5)
H41 H 0.2726 -0.4631 -0.0436
C59 C 0.2874(4) -0.3096(8) 0.1242(5)
C60 C 0.2370(4) -0.2648(9) 0.1084(5)
H42 H 0.2121 -0.2733 0.0670
C61 C 0.2239(5) -0.2080(10) 0.1540(7)
H43 H 0.1905 -0.1773 0.1429
C62 C 0.2596(6) -0.1972(11) 0.2145(6)
H44 H 0.2506 -0.1595 0.2451
C63 C 0.3092(5) -0.2418(13) 0.2310(5)
H45 H 0.3335 -0.2336 0.2727
C64 C 0.3234(4) -0.2991(9) 0.1860(5)
H46 H 0.3569 -0.3299 0.1976
C65 C 0.5339(4) -0.0430(7) 0.1739(4)
C66 C 0.5867(4) -0.0412(9) 0.2114(5)
H47 H 0.5973 -0.0432 0.2556
C67 C 0.6239(5) -0.0367(11) 0.1863(7)
H48 H 0.6591 -0.0339 0.2131
C68 C 0.6087(5) -0.0363(10) 0.1204(7)
H49 H 0.6338 -0.0341 0.1027
C69 C 0.5576(5) -0.0391(10) 0.0824(6)
H50 H 0.5476 -0.0399 0.0382
C70 C 0.5199(4) -0.0408(9) 0.1074(5)
H51 H 0.4848 -0.0406 0.0800
C71 C 0.4416(3) 0.0113(8) 0.1645(4)
C72 C 0.4441(4) 0.1295(8) 0.1507(4)
H52 H 0.4762 0.1628 0.1564
C73 C 0.3999(5) 0.1977(10) 0.1289(5)
H53 H 0.4021 0.2771 0.1204
C74 C 0.3523(5) 0.1484(11) 0.1196(6)
H54 H 0.3222 0.1942 0.1043
C75 C 0.3493(4) 0.0311(11) 0.1328(6)
H55 H 0.3172 -0.0026 0.1271
C76 C 0.3943(4) -0.0358(9) 0.1545(5)
H56 H 0.3920 -0.1155 0.1625
C77 C 0.2999(4) -0.3805(7) 0.0737(4)
C78 C 0.3588(4) -0.4095(9) 0.0973(4)
C79 C 0.4917(3) -0.0577(7) 0.1995(4)
C80 C 0.5100(3) -0.0204(8) 0.2712(4)
Cu2 Cu 0.46385(4) -0.34650(9) 0.13397(5)
N3 N 0.4567(3) -0.3149(6) 0.0434(3)
N4 N 0.5388(3) -0.3624(6) 0.1465(3)
O7 O 0.3906(2) -0.3271(5) 0.1093(3)
O8 O 0.3689(3) -0.5167(6) 0.0994(4)
O9 O 0.2708(3) -0.4876(5) 0.0618(3)
H58 H 0.2780 -0.5234 0.0955
O10 O 0.4808(2) -0.1818(5) 0.1980(3)
O11 O 0.5042(3) -0.0939(5) 0.3084(3)
O12 O 0.5259(2) 0.0844(5) 0.2840(3)
Cu2A Cu 0.53615(4) 0.15350(9) 0.36603(5)
O12A O 0.4741(2) -0.4156(5) 0.2160(3)
loop_
_geom_bond_atom_site_label_1
_geom_bond_atom_site_label_2
_geom_bond_site_symmetry_1
_geom_bond_site_symmetry_2
C1 H1 1_555 1_555
C2 C1 1_555 1_555
H2 C2 1_555 1_555
C3 C2 1_555 1_555
H3 C3 1_555 1_555
C4 C3 1_555 1_555
C5 C4 1_555 1_555
H4 C5 1_555 1_555
C6 C5 1_555 1_555
H5 C6 1_555 1_555
C7 C6 1_555 1_555
C8 C7 1_555 1_555
H6 C8 1_555 1_555
C9 C8 1_555 1_555
H7 C9 1_555 1_555
C10 C9 1_555 1_555
H8 C10 1_555 1_555
C11 C7 1_555 1_555
C12 C4 1_555 1_555
C13 C14 1_555 1_555
C14 H9 1_555 1_555
C15 C14 1_555 1_555
H10 C15 1_555 1_555
C16 C15 1_555 1_555
H11 C16 1_555 1_555
C17 C16 1_555 1_555
H12 C17 1_555 1_555
C18 C13 1_555 1_555
H13 C18 1_555 1_555
C19 C20 1_555 1_555
C20 H14 1_555 1_555
C21 C20 1_555 1_555
H15 C21 1_555 1_555
C22 C21 1_555 1_555
H16 C22 1_555 1_555
C23 C22 1_555 1_555
H17 C23 1_555 1_555
C24 C19 1_555 1_555
H18 C24 1_555 1_555
C25 C26 1_555 1_555
C26 H19 1_555 1_555
C27 C26 1_555 1_555
H20 C27 1_555 1_555
C28 C27 1_555 1_555
H21 C28 1_555 1_555
C29 C28 1_555 1_555
H22 C29 1_555 1_555
C30 C25 1_555 1_555
H23 C30 1_555 1_555
C31 H24 1_555 1_555
C32 C31 1_555 1_555
C33 C32 1_555 1_555
H25 C33 1_555 1_555
C34 C33 1_555 1_555
H26 C34 1_555 1_555
C35 C34 1_555 1_555
H27 C35 1_555 1_555
C36 C31 1_555 1_555
H28 C36 1_555 1_555
C37 C25 1_555 1_555
C38 C37 1_555 1_555
C39 C13 1_555 1_555
C40 C39 1_555 1_555
C41 H29 1_555 1_555
C42 C41 1_555 1_555
H30 C42 1_555 1_555
C43 C42 1_555 1_555
H31 C43 1_555 1_555
C44 C43 1_555 1_555
C45 C44 1_555 1_555
H32 C45 1_555 1_555
C46 C45 1_555 1_555
H33 C46 1_555 1_555
C47 C46 1_555 1_555
C48 C47 1_555 1_555
H34 C48 1_555 1_555
C49 C48 1_555 1_555
H35 C49 1_555 1_555
C50 C49 1_555 1_555
H36 C50 1_555 1_555
C51 C47 1_555 1_555
C52 C44 1_555 1_555
C53 C54 1_555 1_555
C54 H37 1_555 1_555
C55 C54 1_555 1_555
H38 C55 1_555 1_555
C56 C55 1_555 1_555
H39 C56 1_555 1_555
C57 C56 1_555 1_555
H40 C57 1_555 1_555
C58 C53 1_555 1_555
H41 C58 1_555 1_555
C59 C60 1_555 1_555
C60 H42 1_555 1_555
C61 C60 1_555 1_555
H43 C61 1_555 1_555
C62 C61 1_555 1_555
H44 C62 1_555 1_555
C63 C62 1_555 1_555
H45 C63 1_555 1_555
C64 C59 1_555 1_555
H46 C64 1_555 1_555
C65 C66 1_555 1_555
C66 H47 1_555 1_555
C67 C66 1_555 1_555
H48 C67 1_555 1_555
C68 C67 1_555 1_555
H49 C68 1_555 1_555
C69 C68 1_555 1_555
H50 C69 1_555 1_555
C70 C65 1_555 1_555
H51 C70 1_555 1_555
C71 C72 1_555 1_555
C72 H52 1_555 1_555
C73 C72 1_555 1_555
H53 C73 1_555 1_555
C74 C73 1_555 1_555
H54 C74 1_555 1_555
C75 C74 1_555 1_555
H55 C75 1_555 1_555
C76 C71 1_555 1_555
H56 C76 1_555 1_555
C77 C53 1_555 1_555
C78 C77 1_555 1_555
C79 C65 1_555 1_555
C80 C79 1_555 1_555
Cu1 N1 1_555 1_555
Cu2 N3 1_555 1_555
N1 C1 1_555 1_555
N2 C10 1_555 1_555
N3 C41 1_555 1_555
N4 C50 1_555 1_555
O1 C38 1_555 1_555
O2 C38 1_555 1_555
O3 C37 1_555 1_555
H57 O3 1_555 1_555
O4 C39 1_555 1_555
O5 C40 1_555 1_555
O6 C40 1_555 1_555
O7 C78 1_555 1_555
O8 C78 1_555 1_555
O9 C77 1_555 1_555
H58 O9 1_555 1_555
O10 C79 1_555 1_555
O11 C80 1_555 1_555
O12 C80 1_555 1_555
Cu1A O6 1_555 1_555
Cu2A O12 1_555 1_555
O6A Cu1 1_555 1_555
O12A Cu2 1_555 1_555
C11 C12 1_555 1_555
C11 N2 1_555 1_555
C12 N1 1_555 1_555
C17 C18 1_555 1_555
C19 C39 1_555 1_555
C23 C24 1_555 1_555
C29 C30 1_555 1_555
C32 C37 1_555 1_555
C35 C36 1_555 1_555
C51 C52 1_555 1_555
C51 N4 1_555 1_555
C52 N3 1_555 1_555
C57 C58 1_555 1_555
C59 C77 1_555 1_555
C63 C64 1_555 1_555
C69 C70 1_555 1_555
C71 C79 1_555 1_555
C75 C76 1_555 1_555
Cu1 N2 1_555 1_555
Cu1 O1 1_555 1_555
Cu1 O4 1_555 1_555
Cu2 N4 1_555 1_555
Cu2 O7 1_555 1_555
Cu2 O10 1_555 1_555

#END
