
#######################################################################
#
#                 Cambridge Crystallographic Data Centre
#                                CCDC 
#
#######################################################################
#
# If this CIF has been generated from an entry in the Cambridge 
# Structural Database, then it will include bibliographic, chemical, 
# crystal, experimental, refinement or atomic coordinate data resulting 
# from the CCDC's data processing and validation procedures.
#
#######################################################################

data_KEYZUL
_symmetry_cell_setting           orthorhombic
_symmetry_space_group_name_H-M   'P b c a'
_symmetry_Int_Tables_number      61
_space_group_name_Hall           '-P 2ac 2ab'
loop_
_symmetry_equiv_pos_site_id
_symmetry_equiv_pos_as_xyz
1 x,y,z
2 1/2-x,-y,1/2+z
3 1/2+x,1/2-y,-z
4 -x,1/2+y,1/2-z
5 -x,-y,-z
6 1/2+x,y,1/2-z
7 1/2-x,1/2+y,z
8 x,1/2-y,1/2+z
_cell_length_a                   12.856(3)
_cell_length_b                   11.714(3)
_cell_length_c                   13.035(3)
_cell_angle_alpha                90
_cell_angle_beta                 90
_cell_angle_gamma                90
_cell_volume                     1963.01
loop_
_atom_site_label
_atom_site_type_symbol
_atom_site_fract_x
_atom_site_fract_y
_atom_site_fract_z
Cu1 Cu 0.11783(8) 0.76719(8) 0.34780(7)
Cu2 Cu 0.11513(8) 1.26913(8) 0.39145(7)
Cu3 Cu 0.30095(8) 0.85280(8) 0.12617(7)
Cu4 Cu 0.19996(8) 0.64716(8) 0.10653(6)
Br1 Br 0.10787(6) 1.32688(6) 0.60276(5)
Br2 Br 0.10625(6) 0.82557(6) 0.13537(5)
C1 C 0.0979(6) 1.0200(6) 0.3486(5)
H1 H 0.0745 1.0266 0.2813
C2 C 0.1240(6) 0.5200(6) 0.3923(5)
H2 H 0.1055 0.5265 0.4610
N1 N 0.1179(4) 1.1069(5) 0.4094(4)
N2 N 0.1513(4) 1.0613(4) 0.4976(4)
N3 N 0.1494(5) 0.9501(4) 0.4899(4)
N4 N 0.1159(5) 0.9207(5) 0.3964(4)
N5 N 0.1395(4) 0.6080(4) 0.3294(4)
N6 N 0.1647(4) 0.5617(4) 0.2388(4)
N7 N 0.1641(4) 0.4505(4) 0.2469(4)
N8 N 0.1387(4) 0.4223(5) 0.3436(4)
Cu2_2 Cu 0.11513(8) 0.26913(8) 0.39145(7)
Cu2C Cu -0.11513(8) 0.76913(8) 0.10855(7)
Cu3A Cu 0.19905(8) 1.14720(8) 0.62617(7)
Cu3F Cu 0.19905(8) 0.35280(8) 0.12617(7)
Cu4A Cu 0.30004(8) 1.35284(8) 0.60653(6)
Cu4G Cu 0.19996(8) 0.85284(8) 0.60653(6)
Br1A Br 0.39213(6) 0.67312(6) 0.10276(5)
Br2C Br -0.10625(6) 1.32557(6) 0.36463(5)
N2A N 0.3487(4) 0.9387(4) -0.0024(4)
N3G N 0.1494(5) 0.5499(4) -0.0101(4)
N7F N 0.3359(4) 0.9505(4) 0.2469(4)
N8_2 N 0.1387(4) 1.4223(5) 0.3436(4)
loop_
_geom_bond_atom_site_label_1
_geom_bond_atom_site_label_2
_geom_bond_site_symmetry_1
_geom_bond_site_symmetry_2
Cu1 Br2 1_555 1_555
Cu2 Br1 1_555 1_555
Cu3 Br2 1_555 1_555
Cu4 Br2 1_555 1_555
Br1 Cu3A 1_555 1_555
Br2 Cu2C 1_555 1_555
C1 H1 1_555 1_555
C2 H2 1_555 1_555
N1 Cu2 1_555 1_555
N2 N1 1_555 1_555
N3 N2 1_555 1_555
N4 Cu1 1_555 1_555
N5 Cu1 1_555 1_555
N6 Cu4 1_555 1_555
N7 N6 1_555 1_555
N8 C2 1_555 1_555
Cu2_2 N8 1_555 1_555
Cu3A N2 1_555 1_555
Cu3F N7 1_555 1_555
Cu4A Br1 1_555 1_555
Cu4G N3 1_555 1_555
Br1A Cu3 1_555 1_555
Br2C Cu2 1_555 1_555
N2A Cu3 1_555 1_555
N3G Cu4 1_555 1_555
N7F Cu3 1_555 1_555
N8_2 Cu2 1_555 1_555
Cu4 Br1A 1_555 1_555
C1 N1 1_555 1_555
C1 N4 1_555 1_555
C2 N5 1_555 1_555
N3 N4 1_555 1_555
N5 N6 1_555 1_555
N7 N8 1_555 1_555

#END
