
#######################################################################
#
#                 Cambridge Crystallographic Data Centre
#                                CCDC 
#
#######################################################################
#
# If this CIF has been generated from an entry in the Cambridge 
# Structural Database, then it will include bibliographic, chemical, 
# crystal, experimental, refinement or atomic coordinate data resulting 
# from the CCDC's data processing and validation procedures.
#
#######################################################################

data_KEZHUT
_symmetry_cell_setting           cubic
_symmetry_space_group_name_H-M   'I a -3 d'
_symmetry_Int_Tables_number      230
_space_group_name_Hall           '-I 4bd 2c 3'
loop_
_symmetry_equiv_pos_site_id
_symmetry_equiv_pos_as_xyz
1 x,y,z
2 z,x,y
3 y,z,x
4 3/4+y,1/4+x,1/4-z
5 1/4+y,1/4-x,3/4+z
6 1/4-y,3/4+x,1/4+z
7 3/4+x,1/4+z,1/4-y
8 1/4-x,3/4+z,1/4+y
9 1/4+x,1/4-z,3/4+y
10 3/4+z,1/4+y,1/4-x
11 1/4+z,1/4-y,3/4+x
12 1/4-z,3/4+y,1/4+x
13 1/2+x,1/2+y,1/2+z
14 1/2+z,1/2+x,1/2+y
15 1/2+y,1/2+z,1/2+x
16 1/4+y,3/4+x,3/4-z
17 1/4-y,1/4-x,1/4-z
18 3/4+y,3/4-x,1/4+z
19 3/4-y,1/4+x,3/4+z
20 1/4+x,3/4+z,3/4-y
21 3/4-x,1/4+z,3/4+y
22 1/4-x,1/4-z,1/4-y
23 3/4+x,3/4-z,1/4+y
24 1/4+z,3/4+y,3/4-x
25 3/4+z,3/4-y,1/4+x
26 3/4-z,1/4+y,3/4+x
27 1/4-z,1/4-y,1/4-x
28 1/2-x,-y,1/2+z
29 -x,1/2+y,1/2-z
30 1/2+x,1/2-y,-z
31 1/2+z,1/2-x,-y
32 1/2-z,-x,1/2+y
33 -z,1/2+x,1/2-y
34 -y,1/2+z,1/2-x
35 1/2+y,1/2-z,-x
36 1/2-y,-z,1/2+x
37 3/4-y,3/4-x,3/4-z
38 3/4-x,3/4-z,3/4-y
39 3/4-z,3/4-y,3/4-x
40 -x,1/2-y,z
41 1/2-x,y,-z
42 x,-y,1/2-z
43 z,-x,1/2-y
44 -z,1/2-x,y
45 1/2-z,x,-y
46 1/2-y,z,-x
47 y,-z,1/2-x
48 -y,1/2-z,x
49 -x,-y,-z
50 -z,-x,-y
51 -y,-z,-x
52 1/4-y,3/4-x,3/4+z
53 3/4-y,3/4+x,1/4-z
54 3/4+y,1/4-x,3/4-z
55 1/4-x,3/4-z,3/4+y
56 3/4+x,1/4-z,3/4-y
57 3/4-x,3/4+z,1/4-y
58 1/4-z,3/4-y,3/4+x
59 3/4-z,3/4+y,1/4-x
60 3/4+z,1/4-y,3/4-x
61 1/2-x,1/2-y,1/2-z
62 1/2-z,1/2-x,1/2-y
63 1/2-y,1/2-z,1/2-x
64 3/4-y,1/4-x,1/4+z
65 3/4+y,3/4+x,3/4+z
66 1/4-y,1/4+x,3/4-z
67 1/4+y,3/4-x,1/4-z
68 3/4-x,1/4-z,1/4+y
69 1/4+x,3/4-z,1/4-y
70 3/4+x,3/4+z,3/4+y
71 1/4-x,1/4+z,3/4-y
72 3/4-z,1/4-y,1/4+x
73 1/4-z,1/4+y,3/4-x
74 1/4+z,3/4-y,1/4-x
75 3/4+z,3/4+y,3/4+x
76 1/2+x,y,1/2-z
77 x,1/2-y,1/2+z
78 1/2-x,1/2+y,z
79 1/2-z,1/2+x,y
80 1/2+z,x,1/2-y
81 z,1/2-x,1/2+y
82 y,1/2-z,1/2+x
83 1/2-y,1/2+z,x
84 1/2+y,z,1/2-x
85 1/4+y,1/4+x,1/4+z
86 1/4+x,1/4+z,1/4+y
87 1/4+z,1/4+y,1/4+x
88 x,1/2+y,-z
89 1/2+x,-y,z
90 -x,y,1/2+z
91 -z,x,1/2+y
92 z,1/2+x,-y
93 1/2+z,-x,y
94 1/2+y,-z,x
95 -y,z,1/2+x
96 y,1/2+z,-x
_cell_length_a                   20.4250(7)
_cell_length_b                   20.4250(7)
_cell_length_c                   20.4250(7)
_cell_angle_alpha                90
_cell_angle_beta                 90
_cell_angle_gamma                90
_cell_volume                     8520.91
loop_
_atom_site_label
_atom_site_type_symbol
_atom_site_fract_x
_atom_site_fract_y
_atom_site_fract_z
F1 F 0.06252(19) 0.4764(2) 0.9610(2)
P1 P 0.0000 0.5000 1.0000
F1DC F 0.0236(2) 0.4610(2) 1.06252(19)
F1BC F -0.0390(2) 0.43748(19) 0.9764(2)
F1VA F -0.06252(19) 0.5236(2) 1.0390(2)
F1HA F -0.0236(2) 0.5390(2) 0.93748(19)
F1FA F 0.0390(2) 0.56252(19) 1.0236(2)
Ag1 Ag 0.72088(13) 0.3750 1.02912(13)
N1 N 0.82803(18) 0.3750 1.07803(18)
C1 C 0.8750 0.3302(2) 1.0802(2)
C2 C 0.8750 0.2790(2) 1.0290(2)
C3 C 0.8368(4) 0.2851(3) 0.9780(3)
C4 C 0.8365(7) 0.2374(5) 0.9316(5)
H2 H 0.8084 0.2414 0.8960
C5 C 0.8750 0.1854(5) 0.9354(5)
H3 H 0.8750 0.1532 0.9032
Ag1T Ag 1.02912(13) 0.27912(13) 1.1250
Ag1N Ag 0.8750 0.52912(13) 1.22088(13)
Ag1X Ag 0.77912(13) 0.3750 0.97088(13)
Ag1H Ag 0.97088(13) 0.22088(13) 1.1250
Ag1E Ag 0.8750 0.47088(13) 1.27912(13)
N1T N 0.92197(18) 0.32803(18) 1.1250
N1P N 0.8750 0.42197(18) 1.17197(18)
N1LA N 0.67197(18) 0.3750 0.92197(18)
N1H N 1.07803(18) 0.17197(18) 1.1250
N1E N 0.8750 0.57803(18) 1.32803(18)
C1P C 0.9198(2) 0.3750 1.1698(2)
C1X C 0.8302(2) 0.4198(2) 1.1250
C2X C 0.7790(2) 0.4710(2) 1.1250
C2P C 0.9710(2) 0.3750 1.2210(2)
C3HA C 0.7851(3) 0.5220(3) 1.1632(4)
C3X C 0.7280(3) 0.4649(3) 1.0868(4)
C3FA C 1.0220(3) 0.3368(4) 1.2149(3)
C3P C 0.9649(3) 0.4132(4) 1.2720(3)
C3T C 0.9132(4) 0.2280(3) 1.0351(3)
C3NA C 0.6632(4) 0.2851(3) 1.0220(3)
C3H C 1.0868(4) 0.2720(3) 1.0351(3)
C3E C 0.9649(3) 0.5868(4) 1.2280(3)
C4HA C 0.7374(5) 0.5684(5) 1.1635(7)
C4X C 0.6816(5) 0.5126(5) 1.0865(7)
C4FA C 1.0684(5) 0.3365(7) 1.2626(5)
C4P C 1.0126(5) 0.4135(7) 1.3184(5)
C4T C 0.9135(7) 0.1816(5) 0.9874(5)
H2HA H 0.7414 0.6040 1.1916
H2X H 0.6460 0.5086 1.0584
H2FA H 1.1040 0.3084 1.2586
H2P H 1.0086 0.4416 1.3540
H2T H 0.9416 0.1460 0.9914
C5X C 0.6854(5) 0.5646(5) 1.1250
C5P C 1.0646(5) 0.3750 1.3146(5)
H3X H 0.6532 0.5968 1.1250
H3P H 1.0968 0.3750 1.3468
N2? N 0.8368(4) 0.2851(3) 0.9780(3)
H1? H 0.8101 0.3217 0.9735
loop_
_geom_bond_atom_site_label_1
_geom_bond_atom_site_label_2
_geom_bond_site_symmetry_1
_geom_bond_site_symmetry_2
Ag1 N1 1_555 1_555
F1 P1 1_555 1_555
N1 C1 1_555 1_555
P1 F1DC 1_555 1_555
C1 C2 1_555 1_555
C2 C3 1_555 1_555
C3 C4 1_555 1_555
C4 H2 1_555 1_555
C5 C4 1_555 1_555
H3 C5 1_555 1_555
Ag1T Ag1H 1_555 1_555
Ag1N Ag1E 1_555 1_555
Ag1X Ag1 1_555 1_555
Ag1H N1T 1_555 1_555
Ag1E N1P 1_555 1_555
F1BC P1 1_555 1_555
F1VA P1 1_555 1_555
F1HA P1 1_555 1_555
F1FA P1 1_555 1_555
N1T C1 1_555 1_555
N1P Ag1N 1_555 1_555
N1LA Ag1 1_555 1_555
N1H Ag1T 1_555 1_555
N1E Ag1N 1_555 1_555
C1P N1T 1_555 1_555
C1X N1 1_555 1_555
C2X C1X 1_555 1_555
C2P C1P 1_555 1_555
C3HA Ag1N 1_555 1_555
C3X Ag1 1_555 1_555
C3FA Ag1T 1_555 1_555
C3P Ag1E 1_555 1_555
C3T C2 1_555 1_555
C3NA Ag1 1_555 1_555
C3H Ag1T 1_555 1_555
C3E Ag1N 1_555 1_555
C4HA C3HA 1_555 1_555
C4X C3X 1_555 1_555
C4FA C3FA 1_555 1_555
C4P C3P 1_555 1_555
C4T C5 1_555 1_555
H2HA C4HA 1_555 1_555
H2X C4X 1_555 1_555
H2FA C4FA 1_555 1_555
H2P C4P 1_555 1_555
H2T C4T 1_555 1_555
C5X C4HA 1_555 1_555
C5P C4FA 1_555 1_555
H3X C5X 1_555 1_555
H3P C5P 1_555 1_555
N1 Ag1X 1_555 1_555
C3 Ag1X 1_555 1_555
Ag1T N1T 1_555 1_555
Ag1X N1LA 1_555 1_555
Ag1H N1H 1_555 1_555
Ag1H C3T 1_555 1_555
Ag1E N1E 1_555 1_555
N1P C1P 1_555 1_555
N1P C1X 1_555 1_555
C2X C3HA 1_555 1_555
C2X C3X 1_555 1_555
C2P C3FA 1_555 1_555
C2P C3P 1_555 1_555
C3T C4T 1_555 1_555
C4X C5X 1_555 1_555
C4P C5P 1_555 1_555

#END
