
#######################################################################
#
#                 Cambridge Crystallographic Data Centre
#                                CCDC 
#
#######################################################################
#
# If this CIF has been generated from an entry in the Cambridge 
# Structural Database, then it will include bibliographic, chemical, 
# crystal, experimental, refinement or atomic coordinate data resulting 
# from the CCDC's data processing and validation procedures.
#
#######################################################################

data_KEZHIH
_symmetry_cell_setting           cubic
_symmetry_space_group_name_H-M   'I -4 3 d'
_symmetry_Int_Tables_number      220
_space_group_name_Hall           'I -4bd 2c 3'
loop_
_symmetry_equiv_pos_site_id
_symmetry_equiv_pos_as_xyz
1 x,y,z
2 -x,1/2-y,z
3 x,-y,1/2-z
4 1/2-x,y,-z
5 z,x,y
6 y,z,x
7 -z,1/2-x,y
8 1/2-y,z,-x
9 z,-x,1/2-y
10 -y,1/2-z,x
11 1/2-z,x,-y
12 y,-z,1/2-x
13 1/4+y,1/4+x,1/4+z
14 3/4-y,1/4-x,1/4+z
15 1/4-y,1/4+x,3/4-z
16 1/4+y,3/4-x,1/4-z
17 1/4+x,1/4+z,1/4+y
18 1/4+z,1/4+y,1/4+x
19 3/4-x,1/4-z,1/4+y
20 1/4+z,3/4-y,1/4-x
21 1/4-x,1/4+z,3/4-y
22 3/4-z,1/4-y,1/4+x
23 1/4+x,3/4-z,1/4-y
24 1/4-z,1/4+y,3/4-x
25 1/2+x,1/2+y,1/2+z
26 1/2-x,-y,1/2+z
27 1/2+x,1/2-y,-z
28 -x,1/2+y,1/2-z
29 1/2+z,1/2+x,1/2+y
30 1/2+y,1/2+z,1/2+x
31 1/2-z,-x,1/2+y
32 -y,1/2+z,1/2-x
33 1/2+z,1/2-x,-y
34 1/2-y,-z,1/2+x
35 -z,1/2+x,1/2-y
36 1/2+y,1/2-z,-x
37 3/4+y,3/4+x,3/4+z
38 1/4-y,3/4-x,3/4+z
39 3/4-y,3/4+x,1/4-z
40 3/4+y,1/4-x,3/4-z
41 3/4+x,3/4+z,3/4+y
42 3/4+z,3/4+y,3/4+x
43 1/4-x,3/4-z,3/4+y
44 3/4+z,1/4-y,3/4-x
45 3/4-x,3/4+z,1/4-y
46 1/4-z,3/4-y,3/4+x
47 3/4+x,1/4-z,3/4-y
48 3/4-z,3/4+y,1/4-x
_cell_length_a                   19.9271(7)
_cell_length_b                   19.9271(7)
_cell_length_c                   19.9271(7)
_cell_angle_alpha                90
_cell_angle_beta                 90
_cell_angle_gamma                90
_cell_volume                     7912.84
loop_
_atom_site_label
_atom_site_type_symbol
_atom_site_fract_x
_atom_site_fract_y
_atom_site_fract_z
Cl1 Cl 0.77455(5) 0.77455(5) 0.77455(5)
O1 O 0.73225(14) 0.73225(14) 0.73225(14)
O2 O 0.73474(18) 0.82622(18) 0.80561(17)
O2D O 0.80561(17) 0.73474(18) 0.82622(18)
O2E O 0.82622(18) 0.80561(17) 0.73474(18)
Ag1 Ag 0.72103(6) 0.86687(7) 0.97019(7)
N1 N 0.82893(19) 0.87495(18) 0.92616(18)
N2 N 0.7208(2) 0.9611(2) 0.91828(19)
C2 C 0.8290(2) 0.9218(2) 0.8785(2)
C3 C 0.7745(2) 0.9718(2) 0.87907(19)
C4 C 0.7781(2) 1.0266(2) 0.8397(2)
C5 C 0.7266(3) 1.0713(3) 0.8405(4)
H3 H 0.7287 1.1102 0.8130
C6 C 0.6723(3) 1.0612(3) 0.8798(3)
H4 H 0.6365 1.0927 0.8802
C7 C 0.6698(3) 1.0058(2) 0.9185(3)
H5 H 0.6317 0.9981 0.9462
Ag1E Ag 0.86687(7) 0.97019(7) 0.72103(6)
Ag1D Ag 0.97019(7) 0.72103(6) 0.86687(7)
Ag1C Ag 0.77897(6) 0.86687(7) 1.02981(7)
Ag1K Ag 0.86687(7) 1.02981(7) 0.77897(6)
Ag1F Ag 1.02981(7) 0.77897(6) 0.86687(7)
N1E N 0.87495(18) 0.92616(18) 0.82893(19)
N1D N 0.92616(18) 0.82893(19) 0.87495(18)
N1C N 0.67107(19) 0.87495(18) 1.07384(18)
N1K N 0.87495(18) 1.07384(18) 0.67107(19)
N1F N 1.07384(18) 0.67107(19) 0.87495(18)
N2D N 0.91828(19) 0.7208(2) 0.9611(2)
N2E N 0.9611(2) 0.91828(19) 0.7208(2)
C2E C 0.9218(2) 0.8785(2) 0.8290(2)
C2D C 0.8785(2) 0.8290(2) 0.9218(2)
C3D C 0.87907(19) 0.7745(2) 0.9718(2)
C3E C 0.9718(2) 0.87907(19) 0.7745(2)
C4D C 0.8397(2) 0.7781(2) 1.0266(2)
C4E C 1.0266(2) 0.8397(2) 0.7781(2)
C4J C 0.6603(2) 0.7781(2) 0.9734(2)
C4B C 0.7781(2) 0.9734(2) 0.6603(2)
C4I C 0.9734(2) 0.6603(2) 0.7781(2)
C5D C 0.8405(4) 0.7266(3) 1.0713(3)
C5E C 1.0713(3) 0.8405(4) 0.7266(3)
H3D H 0.8130 0.7287 1.1102
H3E H 1.1102 0.8130 0.7287
C6D C 0.8798(3) 0.6723(3) 1.0612(3)
C6E C 1.0612(3) 0.8798(3) 0.6723(3)
H4D H 0.8802 0.6365 1.0927
H4E H 1.0927 0.8802 0.6365
C7D C 0.9185(3) 0.6698(3) 1.0058(2)
C7E C 1.0058(2) 0.9185(3) 0.6698(3)
H5D H 0.9462 0.6317 0.9981
H5E H 0.9981 0.9462 0.6317
C1? C 0.7208(2) 0.9611(2) 0.91828(19)
H1? H 0.7187 0.9222 0.9458
H2? H 0.8161 1.0339 0.8118
N3? N 0.7781(2) 1.0266(2) 0.8397(2)
loop_
_geom_bond_atom_site_label_1
_geom_bond_atom_site_label_2
_geom_bond_site_symmetry_1
_geom_bond_site_symmetry_2
Ag1 N1 1_555 1_555
Cl1 O1 1_555 1_555
O2 Cl1 1_555 1_555
N1 C2 1_555 1_555
N2 Ag1 1_555 1_555
C2 C3 1_555 1_555
C3 N2 1_555 1_555
C4 C3 1_555 1_555
C5 C4 1_555 1_555
H3 C5 1_555 1_555
C6 C5 1_555 1_555
H4 C6 1_555 1_555
C7 N2 1_555 1_555
H5 C7 1_555 1_555
Ag1E Ag1K 1_555 1_555
Ag1D Ag1F 1_555 1_555
Ag1C Ag1 1_555 1_555
Ag1K C4 1_555 1_555
Ag1F N1D 1_555 1_555
O2D Cl1 1_555 1_555
O2E Cl1 1_555 1_555
N1E C2 1_555 1_555
N1D Ag1D 1_555 1_555
N1C Ag1 1_555 1_555
N1K Ag1E 1_555 1_555
N1F Ag1D 1_555 1_555
N2D Ag1D 1_555 1_555
N2E Ag1E 1_555 1_555
C2E N1E 1_555 1_555
C2D N1 1_555 1_555
C3D N2D 1_555 1_555
C3E N2E 1_555 1_555
C4D Ag1C 1_555 1_555
C4E Ag1F 1_555 1_555
C4J Ag1 1_555 1_555
C4B Ag1E 1_555 1_555
C4I Ag1D 1_555 1_555
C5D C4D 1_555 1_555
C5E C4E 1_555 1_555
H3D C5D 1_555 1_555
H3E C5E 1_555 1_555
C6D C5D 1_555 1_555
C6E C5E 1_555 1_555
H4D C6D 1_555 1_555
H4E C6E 1_555 1_555
C7D N2D 1_555 1_555
C7E N2E 1_555 1_555
H5D C7D 1_555 1_555
H5E C7E 1_555 1_555
N1 Ag1C 1_555 1_555
C6 C7 1_555 1_555
Ag1E N1E 1_555 1_555
Ag1C N1C 1_555 1_555
Ag1K N1E 1_555 1_555
Ag1K N1K 1_555 1_555
Ag1F N1F 1_555 1_555
N1D C2E 1_555 1_555
N1D C2D 1_555 1_555
C2E C3E 1_555 1_555
C2D C3D 1_555 1_555
C3D C4D 1_555 1_555
C3E C4E 1_555 1_555
C6D C7D 1_555 1_555
C6E C7E 1_555 1_555

#END
