
#######################################################################
#
#                 Cambridge Crystallographic Data Centre
#                                CCDC 
#
#######################################################################
#
# If this CIF has been generated from an entry in the Cambridge 
# Structural Database, then it will include bibliographic, chemical, 
# crystal, experimental, refinement or atomic coordinate data resulting 
# from the CCDC's data processing and validation procedures.
#
#######################################################################

data_KEZZOG
_symmetry_cell_setting           monoclinic
_symmetry_space_group_name_H-M   'P 21/n'
_symmetry_Int_Tables_number      14
_space_group_name_Hall           '-P 2yn'
loop_
_symmetry_equiv_pos_site_id
_symmetry_equiv_pos_as_xyz
1 x,y,z
2 1/2-x,1/2+y,1/2-z
3 -x,-y,-z
4 1/2+x,1/2-y,1/2+z
_cell_length_a                   17.568(2)
_cell_length_b                   11.2720(13)
_cell_length_c                   17.955(2)
_cell_angle_alpha                90
_cell_angle_beta                 115.915(2)
_cell_angle_gamma                90
_cell_volume                     3198.03
loop_
_atom_site_label
_atom_site_type_symbol
_atom_site_fract_x
_atom_site_fract_y
_atom_site_fract_z
O1 O 0.08630(19) 0.1169(3) 0.4859(2)
C1 C 0.1632(3) 0.1424(4) 0.5319(3)
C2 C 0.2113(3) 0.2001(4) 0.4892(3)
C3 C 0.1846(3) 0.1789(5) 0.4049(3)
H1 H 0.1365 0.1334 0.3758
C4 C 0.2827(3) 0.2691(4) 0.5311(3)
H2 H 0.3008 0.2840 0.5872
O2 O 0.1737(2) 0.8020(3) 0.6143(2)
O3 O 0.0744(2) 0.8657(3) 0.4920(2)
C5 C 0.1466(3) 0.8246(4) 0.5384(3)
C6 C 0.2044(3) 0.7986(4) 0.4990(3)
C7 C 0.1833(4) 0.8335(4) 0.4187(4)
H3 H 0.1317 0.8704 0.3875
C8 C 0.2822(3) 0.7437(5) 0.5452(3)
H4 H 0.2968 0.7211 0.5996
C9 C 0.3373(4) 0.7229(5) 0.5111(4)
H5 H 0.3884 0.6844 0.5416
C10 C 0.2396(4) 0.8132(5) 0.3846(4)
H6 H 0.2257 0.8358 0.3303
Co1 Co 0.62181(4) 0.67265(5) 0.19456(4)
Co2 Co 0.5000 0.5000 0.0000
O4 O 0.57968(19) 0.5015(2) 0.13180(19)
O5 O 0.6619(2) 0.8386(3) 0.2536(2)
H7 H 0.6258 0.8650 0.2665
O6 O 0.5552(2) 0.6326(3) 0.2640(2)
O7 O 0.5147(2) 0.7744(3) 0.1172(2)
H8 H 0.5028 0.8209 0.1456
O8 O 0.1994(2) 0.1203(3) 0.6071(2)
O9 O 0.5312(3) 0.4397(3) 0.2398(3)
O10 O 0.7271(2) 0.5914(3) 0.2839(2)
O11 O 0.3471(3) 0.3201(3) 0.3651(3)
N1 N 0.8597(3) 0.5724(4) 0.3862(3)
C11 C 0.3934(3) 0.6379(4) 0.3781(3)
C12 C 0.4699(3) 0.5351(4) 0.3166(3)
O12 O 0.3729(3) 0.7484(3) 0.3971(3)
C13 C 0.3586(3) 0.5346(5) 0.3894(3)
H9 H 0.3214 0.5347 0.4136
C14 C 0.4365(3) 0.4292(4) 0.3279(3)
H10 H 0.4514 0.3580 0.3116
C15 C 0.3010(4) 0.2916(4) 0.4090(4)
C16 C 0.5245(3) 0.5353(4) 0.2705(3)
C17 C 0.3809(3) 0.4299(4) 0.3636(3)
C18 C 0.4486(3) 0.6406(4) 0.3419(3)
H11 H 0.4710 0.7121 0.3347
C19 C 0.3161(4) 0.7593(5) 0.4317(4)
C20 C 0.3278(3) 0.3163(4) 0.4913(4)
H12 H 0.3751 0.3635 0.5198
C21 C 0.8497(3) 0.6789(5) 0.2726(4)
H13 H 0.8254 0.7574 0.2561
H14 H 0.8468 0.6372 0.2242
C22 C 0.8044(3) 0.6113(4) 0.3129(3)
C23 C 0.2289(4) 0.2249(5) 0.3649(4)
H15 H 0.2108 0.2114 0.3086
C24 C 0.9469(4) 0.5987(5) 0.4058(4)
H16 H 0.9769 0.5276 0.4035
H17 H 0.9757 0.6336 0.4605
C25 C 0.9410(4) 0.6868(5) 0.3393(4)
H18 H 0.9803 0.6658 0.3167
H19 H 0.9538 0.7664 0.3618
C26 C 0.8382(4) 0.4945(5) 0.4382(4)
H20 H 0.7779 0.4856 0.4150
H21 H 0.8587 0.5279 0.4927
H22 H 0.8639 0.4183 0.4414
H23 H 0.7174 0.8462 0.2938
H24 H 0.4664 0.7330 0.0853
O1B O 0.91370(19) 0.8831(3) -0.4859(2)
C1B C 0.8368(3) 0.8576(4) -0.5319(3)
C2B C 0.7887(3) 0.7999(4) -0.4892(3)
C3B C 0.8154(3) 0.8211(5) -0.4049(3)
H1B H 0.8635 0.8666 -0.3758
C4B C 0.7173(3) 0.7309(4) -0.5311(3)
H2B H 0.6992 0.7160 -0.5872
O2B O 0.8263(2) 0.1980(3) -0.6143(2)
O3B O 0.9256(2) 0.1343(3) -0.4920(2)
C5B C 0.8534(3) 0.1754(4) -0.5384(3)
C6B C 0.7956(3) 0.2014(4) -0.4990(3)
C7B C 0.8167(4) 0.1665(4) -0.4187(4)
H3B H 0.8683 0.1296 -0.3875
C8B C 0.7178(3) 0.2563(5) -0.5452(3)
H4B H 0.7032 0.2789 -0.5996
C9B C 0.6627(4) 0.2771(5) -0.5111(4)
H5B H 0.6116 0.3156 -0.5416
C10B C 0.7604(4) 0.1868(5) -0.3846(4)
H6B H 0.7743 0.1642 -0.3303
Co1B Co 0.37819(4) 0.32735(5) -0.19456(4)
O4B O 0.42032(19) 0.4985(2) -0.13180(19)
O5B O 0.3381(2) 0.1614(3) -0.2536(2)
H7B H 0.3742 0.1350 -0.2665
O6B O 0.4448(2) 0.3674(3) -0.2640(2)
O7B O 0.4853(2) 0.2256(3) -0.1172(2)
H8B H 0.4972 0.1791 -0.1456
O8B O 0.8006(2) 0.8797(3) -0.6071(2)
O9B O 0.4688(3) 0.5603(3) -0.2398(3)
O10B O 0.2729(2) 0.4086(3) -0.2839(2)
O11B O 0.6529(3) 0.6799(3) -0.3651(3)
N1B N 0.1403(3) 0.4276(4) -0.3862(3)
C11B C 0.6066(3) 0.3621(4) -0.3781(3)
C12B C 0.5301(3) 0.4649(4) -0.3166(3)
O12B O 0.6271(3) 0.2516(3) -0.3971(3)
C13B C 0.6414(3) 0.4654(5) -0.3894(3)
H9B H 0.6786 0.4653 -0.4136
C14B C 0.5635(3) 0.5708(4) -0.3279(3)
H10B H 0.5486 0.6420 -0.3116
C15B C 0.6990(4) 0.7084(4) -0.4090(4)
C16B C 0.4755(3) 0.4647(4) -0.2705(3)
C17B C 0.6191(3) 0.5701(4) -0.3636(3)
C18B C 0.5514(3) 0.3594(4) -0.3419(3)
H11B H 0.5290 0.2879 -0.3347
C19B C 0.6839(4) 0.2407(5) -0.4317(4)
C20B C 0.6722(3) 0.6837(4) -0.4913(4)
H12B H 0.6249 0.6365 -0.5198
C21B C 0.1503(3) 0.3211(5) -0.2726(4)
H13B H 0.1746 0.2426 -0.2561
H14B H 0.1532 0.3628 -0.2242
C22B C 0.1956(3) 0.3887(4) -0.3129(3)
C23B C 0.7711(4) 0.7751(5) -0.3649(4)
H15B H 0.7892 0.7886 -0.3086
C24B C 0.0531(4) 0.4013(5) -0.4058(4)
H16B H 0.0231 0.4724 -0.4035
H17B H 0.0243 0.3664 -0.4605
C25B C 0.0590(4) 0.3132(5) -0.3393(4)
H18B H 0.0197 0.3342 -0.3167
H19B H 0.0462 0.2336 -0.3618
C26B C 0.1618(4) 0.5055(5) -0.4382(4)
H20B H 0.2221 0.5144 -0.4150
H21B H 0.1413 0.4721 -0.4927
H22B H 0.1361 0.5817 -0.4414
H23B H 0.2826 0.1538 -0.2938
H24B H 0.5336 0.2670 -0.0853
O1A O 0.41370(19) 0.6169(3) 0.0141(2)
O1C O 0.58630(19) 0.3831(3) -0.0141(2)
O2A O 0.3263(2) 0.3020(3) -0.1143(2)
O2C O 0.6737(2) 0.6980(3) 0.1143(2)
O3A O 0.4256(2) 0.3657(3) 0.0080(2)
O3C O 0.5744(2) 0.6343(3) -0.0080(2)
Co1A Co 0.87819(4) 0.17265(5) -0.69456(4)
Co1C Co 0.12181(4) 0.82735(5) 0.69456(4)
Co2A Co 0.0000 0.0000 0.5000
Co2A_2 Co 0.0000 1.0000 0.5000
Co2A_3 Co 1.0000 0.0000 -0.5000
Co2A_4 Co 1.0000 1.0000 -0.5000
O13 O 0.5081(3) -0.0689(4) 0.2328(3)
C27 C 0.4688(6) -0.0269(6) 0.2663(6)
C28 C 0.4292(7) 0.0469(8) 0.3658(7)
H25 H 0.4471 0.1245 0.3906
H26 H 0.4183 -0.0044 0.4034
C29 C 0.3755(6) 0.0163(9) 0.2150(7)
H27 H 0.3734 0.0812 0.1786
H28 H 0.3402 -0.0479 0.1817
C30 C 0.3483(8) 0.0543(12) 0.2742(9)
H29 H 0.3028 0.0038 0.2725
H30 H 0.3274 0.1351 0.2626
N2 N 0.4870(6) -0.0034(5) 0.3400(5)
C31 C 0.5713(5) -0.0305(8) 0.4050(6)
H31 H 0.5662 -0.0704 0.4498
H32 H 0.6025 0.0419 0.4249
H33 H 0.6007 -0.0807 0.3830
loop_
_geom_bond_atom_site_label_1
_geom_bond_atom_site_label_2
_geom_bond_site_symmetry_1
_geom_bond_site_symmetry_2
O1 C1 1_555 1_555
C1 C2 1_555 1_555
C2 C3 1_555 1_555
C3 H1 1_555 1_555
C4 C2 1_555 1_555
H2 C4 1_555 1_555
O2 C5 1_555 1_555
O3 C5 1_555 1_555
C5 C6 1_555 1_555
C6 C7 1_555 1_555
C7 H3 1_555 1_555
C8 C6 1_555 1_555
H4 C8 1_555 1_555
C9 C8 1_555 1_555
H5 C9 1_555 1_555
C10 C7 1_555 1_555
H6 C10 1_555 1_555
Co1 O4 1_555 1_555
Co2 O4 1_555 1_555
O5 Co1 1_555 1_555
H7 O5 1_555 1_555
O6 Co1 1_555 1_555
O7 Co1 1_555 1_555
H8 O7 1_555 1_555
O8 C1 1_555 1_555
O9 C16 1_555 1_555
O10 Co1 1_555 1_555
O11 C15 1_555 1_555
N1 C22 1_555 1_555
C11 O12 1_555 1_555
C12 C14 1_555 1_555
O12 C19 1_555 1_555
C13 C11 1_555 1_555
H9 C13 1_555 1_555
C14 H10 1_555 1_555
C15 C20 1_555 1_555
C16 O6 1_555 1_555
C17 O11 1_555 1_555
C18 C11 1_555 1_555
H11 C18 1_555 1_555
C19 C9 1_555 1_555
C20 C4 1_555 1_555
H12 C20 1_555 1_555
C21 H13 1_555 1_555
H14 C21 1_555 1_555
C22 O10 1_555 1_555
C23 C3 1_555 1_555
H15 C23 1_555 1_555
C24 N1 1_555 1_555
H16 C24 1_555 1_555
H17 C24 1_555 1_555
C25 C21 1_555 1_555
H18 C25 1_555 1_555
H19 C25 1_555 1_555
C26 N1 1_555 1_555
H20 C26 1_555 1_555
H21 C26 1_555 1_555
H22 C26 1_555 1_555
H23 O5 1_555 1_555
H24 O7 1_555 1_555
O13 C27 1_555 1_555
C27 C29 1_555 1_555
C28 H25 1_555 1_555
H26 C28 1_555 1_555
C29 H27 1_555 1_555
H28 C29 1_555 1_555
C30 C28 1_555 1_555
H29 C30 1_555 1_555
H30 C30 1_555 1_555
N2 C27 1_555 1_555
C31 N2 1_555 1_555
H31 C31 1_555 1_555
H32 C31 1_555 1_555
H33 C31 1_555 1_555
O1B C1B 1_555 1_555
C1B C2B 1_555 1_555
C2B C3B 1_555 1_555
C3B H1B 1_555 1_555
C4B C2B 1_555 1_555
H2B C4B 1_555 1_555
O2B C5B 1_555 1_555
O3B C5B 1_555 1_555
C5B C6B 1_555 1_555
C6B C7B 1_555 1_555
C7B H3B 1_555 1_555
C8B C6B 1_555 1_555
H4B C8B 1_555 1_555
C9B C8B 1_555 1_555
H5B C9B 1_555 1_555
C10B C7B 1_555 1_555
H6B C10B 1_555 1_555
Co1B O4B 1_555 1_555
O4B Co2 1_555 1_555
O5B Co1B 1_555 1_555
H7B O5B 1_555 1_555
O6B Co1B 1_555 1_555
O7B Co1B 1_555 1_555
H8B O7B 1_555 1_555
O8B C1B 1_555 1_555
O9B C16B 1_555 1_555
O10B Co1B 1_555 1_555
O11B C15B 1_555 1_555
N1B C22B 1_555 1_555
C11B O12B 1_555 1_555
C12B C14B 1_555 1_555
O12B C19B 1_555 1_555
C13B C11B 1_555 1_555
H9B C13B 1_555 1_555
C14B H10B 1_555 1_555
C15B C20B 1_555 1_555
C16B O6B 1_555 1_555
C17B O11B 1_555 1_555
C18B C11B 1_555 1_555
H11B C18B 1_555 1_555
C19B C9B 1_555 1_555
C20B C4B 1_555 1_555
H12B C20B 1_555 1_555
C21B H13B 1_555 1_555
H14B C21B 1_555 1_555
C22B O10B 1_555 1_555
C23B C3B 1_555 1_555
H15B C23B 1_555 1_555
C24B N1B 1_555 1_555
H16B C24B 1_555 1_555
H17B C24B 1_555 1_555
C25B C21B 1_555 1_555
H18B C25B 1_555 1_555
H19B C25B 1_555 1_555
C26B N1B 1_555 1_555
H20B C26B 1_555 1_555
H21B C26B 1_555 1_555
H22B C26B 1_555 1_555
H23B O5B 1_555 1_555
H24B O7B 1_555 1_555
O1A Co2 1_555 1_555
O1C Co2 1_555 1_555
O2A Co1B 1_555 1_555
O2C Co1 1_555 1_555
O3A Co2 1_555 1_555
O3C Co2 1_555 1_555
Co1A O2B 1_555 1_555
Co1C O2 1_555 1_555
Co2A O1 1_555 1_555
Co2A_2 O3 1_555 1_555
Co2A_3 O3B 1_555 1_555
Co2A_4 O1B 1_555 1_555
C10 C19 1_555 1_555
C12 C16 1_555 1_555
C12 C18 1_555 1_555
C13 C17 1_555 1_555
C14 C17 1_555 1_555
C15 C23 1_555 1_555
C21 C22 1_555 1_555
C24 C25 1_555 1_555
C28 N2 1_555 1_555
C29 C30 1_555 1_555
C10B C19B 1_555 1_555
C12B C16B 1_555 1_555
C12B C18B 1_555 1_555
C13B C17B 1_555 1_555
C14B C17B 1_555 1_555
C15B C23B 1_555 1_555
C21B C22B 1_555 1_555
C24B C25B 1_555 1_555

#END
