
#######################################################################
#
#                 Cambridge Crystallographic Data Centre
#                                CCDC 
#
#######################################################################
#
# If this CIF has been generated from an entry in the Cambridge 
# Structural Database, then it will include bibliographic, chemical, 
# crystal, experimental, refinement or atomic coordinate data resulting 
# from the CCDC's data processing and validation procedures.
#
#######################################################################

data_KHDIAN01
_symmetry_cell_setting           orthorhombic
_symmetry_space_group_name_H-M   'P b c n'
_symmetry_Int_Tables_number      60
_space_group_name_Hall           '-P 2n 2ab'
loop_
_symmetry_equiv_pos_site_id
_symmetry_equiv_pos_as_xyz
1 x,y,z
2 1/2+x,1/2-y,-z
3 -x,y,1/2-z
4 1/2-x,1/2-y,1/2+z
5 -x,-y,-z
6 1/2-x,1/2+y,z
7 x,-y,1/2+z
8 1/2+x,1/2+y,1/2-z
_cell_length_a                   35.457(9)
_cell_length_b                   6.8790(16)
_cell_length_c                   6.1155(15)
_cell_angle_alpha                90
_cell_angle_beta                 90
_cell_angle_gamma                90
_cell_volume                     1491.62
loop_
_atom_site_label
_atom_site_type_symbol
_atom_site_fract_x
_atom_site_fract_y
_atom_site_fract_z
K1 K 0.5000 0.29311(7) 0.7500
H1 H 0.5000 0.146(6) 1.2500
O1 O 0.54468(3) 0.37763(13) 1.09872(17)
O2 O 0.53093(3) 0.14466(13) 1.33966(18)
C1 C 0.55401(4) 0.2649(2) 1.2458(2)
C2 C 0.59367(4) 0.25822(18) 1.3269(2)
C3 C 0.62220(4) 0.34501(19) 1.2054(2)
H2 H 0.6168(4) 0.404(2) 1.076(3)
C4 C 0.65896(4) 0.3408(2) 1.2782(2)
H3 H 0.6788(4) 0.398(2) 1.196(3)
C5 C 0.66769(4) 0.25161(17) 1.4758(2)
O3 O 0.70489(3) 0.26015(14) 1.53502(18)
C6 C 0.71561(5) 0.1655(3) 1.7328(3)
H4 H 0.7039(5) 0.225(3) 1.864(4)
H5 H 0.7419(6) 0.182(3) 1.744(3)
H6 H 0.7095(4) 0.022(3) 1.721(3)
C7 C 0.63963(4) 0.16415(18) 1.5989(2)
H7 H 0.6451(4) 0.104(2) 1.736(3)
C8 C 0.60283(4) 0.16771(18) 1.5223(2)
H8 H 0.5835(4) 0.109(2) 1.605(3)
K1F K 0.5000 0.70689(7) 1.2500
K1_2 K 0.5000 0.29311(7) 1.7500
O1B O 0.45532(3) 0.37763(13) 1.40128(17)
O1F O 0.54468(3) 0.62237(13) 0.59872(17)
O1D O 0.45532(3) 0.62237(13) 0.90128(17)
O1B_2 O 0.45532(3) 0.37763(13) 0.40128(17)
O2B O 0.46907(3) 0.14466(13) 1.16034(18)
O2_2 O 0.53093(3) 0.14466(13) 0.33966(18)
C1B C 0.44599(4) 0.2649(2) 1.2542(2)
C2B C 0.40633(4) 0.25822(18) 1.1731(2)
C3B C 0.37780(4) 0.34501(19) 1.2946(2)
H2B H 0.3832(4) 0.404(2) 1.424(3)
C4B C 0.34104(4) 0.3408(2) 1.2218(2)
H3B H 0.3212(4) 0.398(2) 1.304(3)
C5B C 0.33231(4) 0.25161(17) 1.0242(2)
O3B O 0.29511(3) 0.26015(14) 0.96498(18)
C6B C 0.28439(5) 0.1655(3) 0.7672(3)
H4B H 0.2961(5) 0.225(3) 0.636(4)
H5B H 0.2581(6) 0.182(3) 0.756(3)
H6B H 0.2905(4) 0.022(3) 0.779(3)
C7B C 0.36037(4) 0.16415(18) 0.9011(2)
H7B H 0.3549(4) 0.104(2) 0.764(3)
C8B C 0.39717(4) 0.16771(18) 0.9777(2)
H8B H 0.4165(4) 0.109(2) 0.895(3)
loop_
_geom_bond_atom_site_label_1
_geom_bond_atom_site_label_2
_geom_bond_site_symmetry_1
_geom_bond_site_symmetry_2
K1 O1 1_555 1_555
H1 O2 1_555 1_555
O1 C1 1_555 1_555
O2 C1 1_555 1_555
C1 C2 1_555 1_555
C2 C3 1_555 1_555
C3 H2 1_555 1_555
C4 C3 1_555 1_555
H3 C4 1_555 1_555
C5 C4 1_555 1_555
O3 C5 1_555 1_555
C6 O3 1_555 1_555
H4 C6 1_555 1_555
H5 C6 1_555 1_555
H6 C6 1_555 1_555
C7 C5 1_555 1_555
H7 C7 1_555 1_555
C8 C2 1_555 1_555
H8 C8 1_555 1_555
K1F O1 1_555 1_555
K1_2 O2 1_555 1_555
O1B K1F 1_555 1_555
O1F K1 1_555 1_555
O1D K1 1_555 1_555
O1B_2 K1 1_555 1_555
O2B K1 1_555 1_555
O2_2 K1 1_555 1_555
C1B O1B 1_555 1_555
C2B C1B 1_555 1_555
C3B C2B 1_555 1_555
H2B C3B 1_555 1_555
C4B C3B 1_555 1_555
H3B C4B 1_555 1_555
C5B C4B 1_555 1_555
O3B C5B 1_555 1_555
C6B O3B 1_555 1_555
H4B C6B 1_555 1_555
H5B C6B 1_555 1_555
H6B C6B 1_555 1_555
C7B C5B 1_555 1_555
H7B C7B 1_555 1_555
C8B C2B 1_555 1_555
H8B C8B 1_555 1_555
H1 O2B 1_555 1_555
C7 C8 1_555 1_555
K1F O1D 1_555 1_555
K1_2 O1B 1_555 1_555
O2B C1B 1_555 1_555
C7B C8B 1_555 1_555

#END
