
#######################################################################
#
#                 Cambridge Crystallographic Data Centre
#                                CCDC 
#
#######################################################################
#
# If this CIF has been generated from an entry in the Cambridge 
# Structural Database, then it will include bibliographic, chemical, 
# crystal, experimental, refinement or atomic coordinate data resulting 
# from the CCDC's data processing and validation procedures.
#
#######################################################################

data_KHPHAL02
_symmetry_cell_setting           orthorhombic
_symmetry_space_group_name_H-M   'P c a 21'
_symmetry_Int_Tables_number      29
_space_group_name_Hall           'P 2c -2ac'
loop_
_symmetry_equiv_pos_site_id
_symmetry_equiv_pos_as_xyz
1 x,y,z
2 -x,-y,1/2+z
3 1/2+x,-y,z
4 1/2-x,y,1/2+z
_cell_length_a                   9.5885(12)
_cell_length_b                   13.2674(18)
_cell_length_c                   6.4349(8)
_cell_angle_alpha                90
_cell_angle_beta                 90
_cell_angle_gamma                90
_cell_volume                     818.612
loop_
_atom_site_label
_atom_site_type_symbol
_atom_site_fract_x
_atom_site_fract_y
_atom_site_fract_z
K1 K 0.90291(2) 0.462118(18) 0.32030(5)
C1 C 0.94253(13) 0.79034(9) 0.0904(2)
C2 C 1.06029(13) 0.75982(9) 0.2037(2)
C3 C 1.17240(13) 0.82647(9) 0.2260(2)
H1 H 1.2501(18) 0.8057(10) 0.305(3)
C4 C 1.16587(14) 0.92298(10) 0.1406(2)
H2 H 1.241(2) 0.9682(12) 0.160(3)
C5 C 1.04930(15) 0.95331(9) 0.0271(2)
H3 H 1.043(2) 1.0201(14) -0.032(4)
C6 C 0.93792(14) 0.88661(9) 0.0012(2)
H4 H 0.8595(18) 0.9032(12) -0.076(3)
C7 C 0.82287(13) 0.71845(10) 0.0609(2)
O1 O 0.70136(10) 0.76423(7) 0.04733(16)
H5 H 0.634(3) 0.7262(17) 0.039(4)
O2 O 0.83991(10) 0.62672(7) 0.05106(17)
C8 C 1.07004(11) 0.65743(8) 0.3078(2)
O3 O 1.14661(9) 0.59240(7) 0.22624(17)
O4 O 1.00044(9) 0.64445(7) 0.47484(16)
K1A K 1.09709(2) 0.537882(18) -0.17970(5)
K1A_2 K 1.09709(2) 0.537882(18) 0.82030(5)
K1B K 1.40291(2) 0.537882(18) 0.32030(5)
O3A O 0.85339(9) 0.40760(7) 0.72624(17)
O3B O 0.64661(9) 0.40760(7) 0.22624(17)
O4A O 0.99956(9) 0.35555(7) -0.02516(16)
loop_
_geom_bond_atom_site_label_1
_geom_bond_atom_site_label_2
_geom_bond_site_symmetry_1
_geom_bond_site_symmetry_2
K1 O2 1_555 1_555
C1 C2 1_555 1_555
C2 C3 1_555 1_555
C3 H1 1_555 1_555
C4 C3 1_555 1_555
H2 C4 1_555 1_555
C5 C4 1_555 1_555
H3 C5 1_555 1_555
C6 C1 1_555 1_555
H4 C6 1_555 1_555
C7 C1 1_555 1_555
O1 C7 1_555 1_555
H5 O1 1_555 1_555
O2 C7 1_555 1_555
C8 C2 1_555 1_555
O3 K1 1_555 1_555
O4 K1 1_555 1_555
K1A O3 1_555 1_555
K1A_2 O4 1_555 1_555
K1B O3 1_555 1_555
O3A K1 1_555 1_555
O3B K1 1_555 1_555
O4A K1 1_555 1_555
C5 C6 1_555 1_555
C8 O3 1_555 1_555
C8 O4 1_555 1_555
K1A O4A 1_555 1_555
K1A_2 O3A 1_555 1_555

#END
