
#######################################################################
#
#                 Cambridge Crystallographic Data Centre
#                                CCDC 
#
#######################################################################
#
# If this CIF has been generated from an entry in the Cambridge 
# Structural Database, then it will include bibliographic, chemical, 
# crystal, experimental, refinement or atomic coordinate data resulting 
# from the CCDC's data processing and validation procedures.
#
#######################################################################

data_KIBDIJ
_symmetry_cell_setting           orthorhombic
_symmetry_space_group_name_H-M   'F d d d'
_symmetry_Int_Tables_number      70
_space_group_name_Hall           '-F 2uv 2vw'
loop_
_symmetry_equiv_pos_site_id
_symmetry_equiv_pos_as_xyz
1 x,y,z
2 x,1/2+y,1/2+z
3 x,1/4-y,1/4-z
4 1/2+x,y,1/2+z
5 1/4-x,y,1/4-z
6 1/2+x,1/2+y,z
7 1/4-x,1/4-y,z
8 3/4-x,3/4-y,z
9 3/4-x,y,3/4-z
10 x,3/4-y,3/4-z
11 3/4-x,1/4-y,1/2+z
12 3/4-x,1/2+y,1/4-z
13 1/4-x,3/4-y,1/2+z
14 1/2+x,3/4-y,1/4-z
15 1/4-x,1/2+y,3/4-z
16 1/2+x,1/4-y,3/4-z
17 -x,-y,-z
18 -x,1/2-y,1/2-z
19 -x,3/4+y,3/4+z
20 1/2-x,-y,1/2-z
21 3/4+x,-y,3/4+z
22 1/2-x,1/2-y,-z
23 3/4+x,3/4+y,-z
24 1/4+x,1/4+y,-z
25 1/4+x,-y,1/4+z
26 -x,1/4+y,1/4+z
27 1/4+x,3/4+y,1/2-z
28 1/4+x,1/2-y,3/4+z
29 3/4+x,1/4+y,1/2-z
30 1/2-x,1/4+y,3/4+z
31 3/4+x,1/2-y,1/4+z
32 1/2-x,3/4+y,1/4+z
_cell_length_a                   9.6648(2)
_cell_length_b                   15.4844(3)
_cell_length_c                   27.1305(6)
_cell_angle_alpha                90
_cell_angle_beta                 90
_cell_angle_gamma                90
_cell_volume                     4060.18
loop_
_atom_site_label
_atom_site_type_symbol
_atom_site_fract_x
_atom_site_fract_y
_atom_site_fract_z
Tb1 Tb 0.6250 0.1250 0.509301(7)
O1 O 0.6176(3) 0.26829(15) 0.48328(9)
O2 O 0.6384(3) 0.40385(17) 0.46205(10)
O3 O 0.6153(2) 0.03892(15) 0.58409(8)
O4 O 0.4750(3) 0.12545(15) 0.43621(9)
C1 C 0.5652(4) 0.3382(2) 0.47096(12)
C2 C 0.4110(4) 0.3396(3) 0.46794(17)
H1 H 0.3642 0.2872 0.4660
C3 C 0.6250 0.0751(3) 0.6250
H2 H 0.494(5) 0.158(2) 0.4079(11)
H3 H 0.434(5) 0.0745(18) 0.4243(14)
Tb1E Tb 0.1250 0.6250 0.509301(7)
Tb1W Tb 0.8750 0.3750 0.490699(7)
Tb1W_2 Tb -0.1250 0.3750 0.490699(7)
Tb1B Tb 0.6250 0.1250 0.740699(7)
Tb1P Tb 0.3750 -0.1250 0.490699(7)
Tb1E_2 Tb 1.1250 -0.3750 0.509301(7)
Tb1P_2 Tb 1.3750 -0.1250 0.490699(7)
O1G O 0.1324(3) 0.48171(15) 0.48328(9)
O1F O 0.6324(3) -0.01829(15) 0.48328(9)
O1E O 1.1176(3) -0.23171(15) 0.48328(9)
O1E_2 O 0.1176(3) 0.76829(15) 0.48328(9)
O2G O 0.1116(3) 0.34615(17) 0.46205(10)
O2F O 0.6116(3) -0.15385(17) 0.46205(10)
O2E O 1.1384(3) -0.09615(17) 0.46205(10)
O2U O 0.8616(3) 0.09615(17) 0.53795(10)
O2V O 0.3884(3) 0.15385(17) 0.53795(10)
O2W O -0.1116(3) 0.65385(17) 0.53795(10)
O2P O 0.3616(3) 0.59615(17) 0.53795(10)
O3D O 0.6347(2) 0.03892(15) 0.66591(8)
O3B O 0.6153(2) 0.21108(15) 0.66591(8)
O3F O 0.6347(2) 0.21108(15) 0.58409(8)
O3E O 0.1153(2) 0.53892(15) 0.58409(8)
O3G O 0.1347(2) 0.71108(15) 0.58409(8)
O4F O 0.7750(3) 0.12455(15) 0.43621(9)
O4G O 0.2750(3) 0.62455(15) 0.43621(9)
O4E O -0.0250(3) 0.62545(15) 0.43621(9)
C1G C 0.1848(4) 0.4118(2) 0.47096(12)
C1F C 0.6848(4) -0.0882(2) 0.47096(12)
C1E C 1.0652(4) -0.1618(2) 0.47096(12)
C2G C 0.3390(4) 0.4104(3) 0.46794(17)
C2F C 0.8390(4) -0.0896(3) 0.46794(17)
C2E C 0.9110(4) -0.1604(3) 0.46794(17)
H1G H 0.3858 0.4628 0.4660
H1F H 0.8858 -0.0372 0.4660
H1E H 0.8642 -0.2128 0.4660
C3B C 0.6250 0.1749(3) 0.6250
H2F H 0.756(5) 0.092(2) 0.4079(11)
H2G H 0.256(5) 0.592(2) 0.4079(11)
H2E H -0.006(5) 0.658(2) 0.4079(11)
H3F H 0.816(5) 0.1755(18) 0.4243(14)
H3G H 0.316(5) 0.6755(18) 0.4243(14)
H3E H -0.066(5) 0.5745(18) 0.4243(14)
O5 O 0.5545(5) 0.2017(3) 0.34718(18)
loop_
_geom_bond_atom_site_label_1
_geom_bond_atom_site_label_2
_geom_bond_site_symmetry_1
_geom_bond_site_symmetry_2
Tb1 O1 1_555 1_555
O1 C1 1_555 1_555
O2 C1 1_555 1_555
O3 Tb1 1_555 1_555
O4 Tb1 1_555 1_555
C1 C2 1_555 1_555
C2 H1 1_555 1_555
C3 O3 1_555 1_555
H2 O4 1_555 1_555
H3 O4 1_555 1_555
Tb1E O1G 1_555 1_555
Tb1W O2 1_555 1_555
Tb1W_2 O2G 1_555 1_555
Tb1B O3D 1_555 1_555
Tb1P O2F 1_555 1_555
Tb1E_2 O1E 1_555 1_555
Tb1P_2 O2E 1_555 1_555
O1G C1G 1_555 1_555
O1F Tb1 1_555 1_555
O1E C1E 1_555 1_555
O1E_2 Tb1E 1_555 1_555
O2G C1G 1_555 1_555
O2F C1F 1_555 1_555
O2E C1E 1_555 1_555
O2U Tb1 1_555 1_555
O2V Tb1 1_555 1_555
O2W Tb1E 1_555 1_555
O2P Tb1E 1_555 1_555
O3D C3 1_555 1_555
O3B Tb1B 1_555 1_555
O3F Tb1 1_555 1_555
O3E Tb1E 1_555 1_555
O3G Tb1E 1_555 1_555
O4F Tb1 1_555 1_555
O4G Tb1E 1_555 1_555
O4E Tb1E 1_555 1_555
C1G C2G 1_555 1_555
C1F O1F 1_555 1_555
C1E C2E 1_555 1_555
C2G C2 1_555 1_555
C2F C1F 1_555 1_555
C2E C2F 1_555 1_555
H1G C2G 1_555 1_555
H1F C2F 1_555 1_555
H1E C2E 1_555 1_555
C3B C3 1_555 1_555
H2F O4F 1_555 1_555
H2G O4G 1_555 1_555
H2E O4E 1_555 1_555
H3F O4F 1_555 1_555
H3G O4G 1_555 1_555
H3E O4E 1_555 1_555
O3B C3B 1_555 1_555
O3F C3B 1_555 1_555

#END
