
#######################################################################
#
#                 Cambridge Crystallographic Data Centre
#                                CCDC 
#
#######################################################################
#
# If this CIF has been generated from an entry in the Cambridge 
# Structural Database, then it will include bibliographic, chemical, 
# crystal, experimental, refinement or atomic coordinate data resulting 
# from the CCDC's data processing and validation procedures.
#
#######################################################################

data_KIBFAE
_symmetry_cell_setting           monoclinic
_symmetry_space_group_name_H-M   'P 21/c'
_symmetry_Int_Tables_number      14
_space_group_name_Hall           '-P 2ybc'
loop_
_symmetry_equiv_pos_site_id
_symmetry_equiv_pos_as_xyz
1 x,y,z
2 -x,1/2+y,1/2-z
3 -x,-y,-z
4 x,1/2-y,1/2+z
_cell_length_a                   10.3556(11)
_cell_length_b                   16.8325(19)
_cell_length_c                   16.4542(18)
_cell_angle_alpha                90
_cell_angle_beta                 107.475(2)
_cell_angle_gamma                90
_cell_volume                     2735.77
loop_
_atom_site_label
_atom_site_type_symbol
_atom_site_fract_x
_atom_site_fract_y
_atom_site_fract_z
C1 C 1.0156(4) 0.65796(17) 0.2083(2)
H1 H 1.0261 0.6844 0.2616
H2 H 1.0666 0.6094 0.2183
H3 H 0.9216 0.6462 0.1817
C2 C 1.0654(3) 0.70998(14) 0.15194(17)
C3 C 1.1767(3) 0.74788(17) 0.0646(2)
H4 H 1.2317 0.7482 0.0292
C4 C 1.1044(3) 0.80909(16) 0.08038(19)
H5 H 1.1018 0.8598 0.0575
C5 C 1.2028(3) 0.60368(16) 0.1088(2)
H6 H 1.2309 0.5822 0.1661
H7 H 1.2814 0.6048 0.0884
C6 C 1.0970(3) 0.54996(15) 0.05218(17)
C7 C 1.0693(3) 0.47754(16) 0.08195(18)
H8 H 1.1157 0.4619 0.1372
C8 C 1.0264(3) 0.57179(16) -0.03044(19)
H9 H 1.0440 0.6206 -0.0513
C9 C 1.5724(4) 0.9418(3) 0.4766(3)
H10 H 1.6230 0.9016 0.4621
C10 C 1.4838(3) 0.9841(2) 0.4136(3)
C11 C 1.4107(4) 1.0427(3) 0.4381(3)
H11 H 1.3489 1.0725 0.3966
C12 C 1.4677(3) 0.9664(3) 0.3213(2)
H12 H 1.5180 1.0052 0.2995
H13 H 1.5051 0.9143 0.3168
C13 C 1.2629(4) 1.0263(2) 0.2133(2)
H14 H 1.3039 1.0708 0.1986
C14 C 1.1324(3) 1.00700(16) 0.18362(19)
H15 H 1.0665 1.0359 0.1436
C15 C 1.2277(3) 0.91562(17) 0.27327(19)
C16 C 1.2540(3) 0.84453(19) 0.3289(2)
H16 H 1.1714 0.8153 0.3203
H17 H 1.2878 0.8608 0.3874
H18 H 1.3199 0.8115 0.3150
C17 C 0.2083(2) 0.48026(14) 0.38601(16)
C18 C 0.8082(2) 0.79354(13) 0.25645(16)
C19 C 0.7226(2) 0.75600(13) 0.30363(16)
C20 C 0.7731(3) 0.73941(15) 0.38967(16)
H19 H 0.8618 0.7534 0.4190
C21 C 0.6944(2) 0.70253(15) 0.43263(16)
H20 H 0.7310 0.6912 0.4903
C22 C 0.5606(2) 0.68202(13) 0.39087(15)
C23 C 0.5099(2) 0.70016(14) 0.30397(15)
H21 H 0.4207 0.6875 0.2745
C24 C 0.5896(2) 0.73633(14) 0.26140(16)
H22 H 0.5537 0.7477 0.2037
C25 C 0.4773(2) 0.63929(13) 0.43559(15)
C26 C 0.3806(2) 0.58478(13) 0.39277(15)
H23 H 0.3650 0.5775 0.3346
C27 C 0.3065(2) 0.54076(13) 0.43420(15)
C28 C 0.3297(3) 0.55114(15) 0.52065(16)
H24 H 0.2808 0.5218 0.5492
C29 C 0.4259(3) 0.60517(16) 0.56467(17)
H25 H 0.4417 0.6119 0.6229
C30 C 0.4982(3) 0.64897(15) 0.52293(16)
H26 H 0.5620 0.6855 0.5532
N1 N 1.0355(2) 0.78560(11) 0.13516(13)
N2 N 1.1532(2) 0.68488(12) 0.11110(15)
N3 N 1.1106(2) 0.93716(11) 0.22180(14)
N4 N 1.3251(2) 0.96821(18) 0.26963(17)
Ni1 Ni 0.93746(3) 0.871259(17) 0.183900(19)
O1 O 0.92624(16) 0.81797(9) 0.29669(10)
O2 O 0.76419(16) 0.80104(10) 0.17694(11)
O3 O 0.18632(17) 0.47251(10) 0.30709(11)
O4 O 0.14777(17) 0.43661(9) 0.42596(10)
C1B C 0.9844(4) 0.34204(17) -0.2083(2)
H1B H 0.9739 0.3156 -0.2616
H2B H 0.9334 0.3906 -0.2183
H3B H 1.0784 0.3538 -0.1817
C2B C 0.9346(3) 0.29002(14) -0.15194(17)
C3B C 0.8233(3) 0.25212(17) -0.0646(2)
H4B H 0.7683 0.2518 -0.0292
C4B C 0.8956(3) 0.19091(16) -0.08038(19)
H5B H 0.8982 0.1402 -0.0575
C5B C 0.7972(3) 0.39632(16) -0.1088(2)
H6B H 0.7691 0.4178 -0.1661
H7B H 0.7186 0.3952 -0.0884
C6B C 0.9030(3) 0.45004(15) -0.05218(17)
C7B C 0.9307(3) 0.52246(16) -0.08195(18)
H8B H 0.8843 0.5381 -0.1372
C8B C 0.9736(3) 0.42821(16) 0.03044(19)
H9B H 0.9560 0.3794 0.0513
N1B N 0.9645(2) 0.21440(11) -0.13516(13)
N2B N 0.8468(2) 0.31512(12) -0.11110(15)
C9B C 1.4276(4) 1.0582(3) 0.5234(3)
H10B H 1.3770 1.0984 0.5379
C10B C 1.5162(3) 1.0159(2) 0.5864(3)
C11B C 1.5893(4) 0.9573(3) 0.5619(3)
H11B H 1.6511 0.9275 0.6034
C12B C 1.5323(3) 1.0336(3) 0.6787(2)
H12B H 1.4820 0.9948 0.7005
H13B H 1.4949 1.0857 0.6832
C13B C 1.7371(4) 0.9737(2) 0.7867(2)
H14B H 1.6961 0.9292 0.8014
C14B C 1.8676(3) 0.99300(16) 0.81638(19)
H15B H 1.9335 0.9641 0.8564
C15B C 1.7723(3) 1.08438(17) 0.72673(19)
C16B C 1.7460(3) 1.15547(19) 0.6711(2)
H16B H 1.8286 1.1847 0.6797
H17B H 1.7122 1.1392 0.6126
H18B H 1.6801 1.1885 0.6850
N3B N 1.8894(2) 1.06284(11) 0.77820(14)
N4B N 1.6749(2) 1.03179(18) 0.73037(17)
C17B C 1.7917(2) 0.51974(14) -0.38601(16)
C18B C 1.1918(2) 0.20646(13) -0.25645(16)
C19B C 1.2774(2) 0.24400(13) -0.30363(16)
C20B C 1.2269(3) 0.26059(15) -0.38967(16)
H19B H 1.1382 0.2466 -0.4190
C21B C 1.3056(2) 0.29747(15) -0.43263(16)
H20B H 1.2690 0.3088 -0.4903
C22B C 1.4394(2) 0.31798(13) -0.39087(15)
C23B C 1.4901(2) 0.29984(14) -0.30397(15)
H21B H 1.5793 0.3125 -0.2745
C24B C 1.4104(2) 0.26367(14) -0.26140(16)
H22B H 1.4463 0.2523 -0.2037
C25B C 1.5227(2) 0.36071(13) -0.43559(15)
C26B C 1.6194(2) 0.41522(13) -0.39277(15)
H23B H 1.6350 0.4225 -0.3346
C27B C 1.6935(2) 0.45924(13) -0.43420(15)
C28B C 1.6703(3) 0.44886(15) -0.52065(16)
H24B H 1.7192 0.4782 -0.5492
C29B C 1.5741(3) 0.39483(16) -0.56467(17)
H25B H 1.5583 0.3881 -0.6229
C30B C 1.5018(3) 0.35103(15) -0.52293(16)
H26B H 1.4380 0.3145 -0.5532
Ni1B Ni 1.06254(3) 0.128741(17) -0.183900(19)
O1B O 1.07376(16) 0.18203(9) -0.29669(10)
O2B O 1.23581(16) 0.19896(10) -0.17694(11)
O3B O 1.81368(17) 0.52749(10) -0.30709(11)
O4B O 1.85223(17) 0.56339(9) -0.42596(10)
N3B_2 N 0.8894(2) 0.06284(11) -0.22180(14)
Ni1A Ni 0.06254(3) 0.371259(17) 0.316100(19)
Ni1B_2 Ni 2.06254(3) 1.128741(17) 0.816100(19)
Ni1C Ni 1.93746(3) 0.628741(17) -0.316100(19)
O3A O 0.81368(17) 0.97251(10) 0.19291(11)
O3C O 1.18632(17) 0.02749(10) -0.19291(11)
O4A O 0.85223(17) 0.93661(9) 0.07404(10)
O4C O 1.14777(17) 0.06339(9) -0.07404(10)
loop_
_geom_bond_atom_site_label_1
_geom_bond_atom_site_label_2
_geom_bond_site_symmetry_1
_geom_bond_site_symmetry_2
C1 H1 1_555 1_555
H2 C1 1_555 1_555
H3 C1 1_555 1_555
C2 C1 1_555 1_555
C3 H4 1_555 1_555
C4 C3 1_555 1_555
H5 C4 1_555 1_555
C5 H6 1_555 1_555
H7 C5 1_555 1_555
C6 C5 1_555 1_555
C7 C6 1_555 1_555
H8 C7 1_555 1_555
C8 C6 1_555 1_555
H9 C8 1_555 1_555
C9 H10 1_555 1_555
C10 C9 1_555 1_555
C11 C10 1_555 1_555
H11 C11 1_555 1_555
C12 C10 1_555 1_555
H12 C12 1_555 1_555
H13 C12 1_555 1_555
C13 H14 1_555 1_555
C14 C13 1_555 1_555
H15 C14 1_555 1_555
C15 C16 1_555 1_555
C16 H16 1_555 1_555
H17 C16 1_555 1_555
H18 C16 1_555 1_555
C17 C27 1_555 1_555
C18 C19 1_555 1_555
C19 C20 1_555 1_555
C20 H19 1_555 1_555
C21 C20 1_555 1_555
H20 C21 1_555 1_555
C22 C21 1_555 1_555
C23 C22 1_555 1_555
H21 C23 1_555 1_555
C24 C19 1_555 1_555
H22 C24 1_555 1_555
C25 C22 1_555 1_555
C26 C25 1_555 1_555
H23 C26 1_555 1_555
C27 C26 1_555 1_555
C28 C27 1_555 1_555
H24 C28 1_555 1_555
C29 C28 1_555 1_555
H25 C29 1_555 1_555
C30 C25 1_555 1_555
H26 C30 1_555 1_555
N1 C2 1_555 1_555
N2 C2 1_555 1_555
N3 C14 1_555 1_555
N4 C12 1_555 1_555
Ni1 N1 1_555 1_555
O1 C18 1_555 1_555
O2 C18 1_555 1_555
O3 C17 1_555 1_555
O4 C17 1_555 1_555
C1B H1B 1_555 1_555
H2B C1B 1_555 1_555
H3B C1B 1_555 1_555
C2B C1B 1_555 1_555
C3B H4B 1_555 1_555
C4B C3B 1_555 1_555
H5B C4B 1_555 1_555
C5B H6B 1_555 1_555
H7B C5B 1_555 1_555
C6B C5B 1_555 1_555
C7B C8 1_555 1_555
H8B C7B 1_555 1_555
C8B C7 1_555 1_555
H9B C8B 1_555 1_555
N1B C2B 1_555 1_555
N2B C2B 1_555 1_555
C9B C11 1_555 1_555
H10B C9B 1_555 1_555
C10B C9B 1_555 1_555
C11B C9 1_555 1_555
H11B C11B 1_555 1_555
C12B C10B 1_555 1_555
H12B C12B 1_555 1_555
H13B C12B 1_555 1_555
C13B H14B 1_555 1_555
C14B C13B 1_555 1_555
H15B C14B 1_555 1_555
C15B C16B 1_555 1_555
C16B H16B 1_555 1_555
H17B C16B 1_555 1_555
H18B C16B 1_555 1_555
N3B C14B 1_555 1_555
N4B C12B 1_555 1_555
C17B C27B 1_555 1_555
C18B C19B 1_555 1_555
C19B C20B 1_555 1_555
C20B H19B 1_555 1_555
C21B C20B 1_555 1_555
H20B C21B 1_555 1_555
C22B C21B 1_555 1_555
C23B C22B 1_555 1_555
H21B C23B 1_555 1_555
C24B C19B 1_555 1_555
H22B C24B 1_555 1_555
C25B C22B 1_555 1_555
C26B C25B 1_555 1_555
H23B C26B 1_555 1_555
C27B C26B 1_555 1_555
C28B C27B 1_555 1_555
H24B C28B 1_555 1_555
C29B C28B 1_555 1_555
H25B C29B 1_555 1_555
C30B C25B 1_555 1_555
H26B C30B 1_555 1_555
Ni1B N1B 1_555 1_555
O1B C18B 1_555 1_555
O2B C18B 1_555 1_555
O3B C17B 1_555 1_555
O4B C17B 1_555 1_555
N3B_2 Ni1B 1_555 1_555
Ni1A O3 1_555 1_555
Ni1B_2 N3B 1_555 1_555
Ni1C O3B 1_555 1_555
O3A Ni1 1_555 1_555
O3C Ni1B 1_555 1_555
O4A Ni1 1_555 1_555
O4C Ni1B 1_555 1_555
C3 N2 1_555 1_555
C4 N1 1_555 1_555
C5 N2 1_555 1_555
C13 N4 1_555 1_555
C15 N3 1_555 1_555
C15 N4 1_555 1_555
C23 C24 1_555 1_555
C29 C30 1_555 1_555
N3 Ni1 1_555 1_555
Ni1 O1 1_555 1_555
Ni1 O2 1_555 1_555
O4 Ni1A 1_555 1_555
C3B N2B 1_555 1_555
C4B N1B 1_555 1_555
C5B N2B 1_555 1_555
C6B C7B 1_555 1_555
C6B C8B 1_555 1_555
C10B C11B 1_555 1_555
C13B N4B 1_555 1_555
C15B N3B 1_555 1_555
C15B N4B 1_555 1_555
C23B C24B 1_555 1_555
C29B C30B 1_555 1_555
Ni1B O1B 1_555 1_555
Ni1B O2B 1_555 1_555
O4B Ni1C 1_555 1_555

#END
