
#######################################################################
#
#                 Cambridge Crystallographic Data Centre
#                                CCDC 
#
#######################################################################
#
# If this CIF has been generated from an entry in the Cambridge 
# Structural Database, then it will include bibliographic, chemical, 
# crystal, experimental, refinement or atomic coordinate data resulting 
# from the CCDC's data processing and validation procedures.
#
#######################################################################

data_KIBJIQ
_symmetry_cell_setting           monoclinic
_symmetry_space_group_name_H-M   'P 21/n'
_symmetry_Int_Tables_number      14
_space_group_name_Hall           '-P 2yn'
loop_
_symmetry_equiv_pos_site_id
_symmetry_equiv_pos_as_xyz
1 x,y,z
2 1/2-x,1/2+y,1/2-z
3 -x,-y,-z
4 1/2+x,1/2-y,1/2+z
_cell_length_a                   7.904(2)
_cell_length_b                   16.610(5)
_cell_length_c                   12.665(4)
_cell_angle_alpha                90
_cell_angle_beta                 106.859(4)
_cell_angle_gamma                90
_cell_volume                     1591.27
loop_
_atom_site_label
_atom_site_type_symbol
_atom_site_fract_x
_atom_site_fract_y
_atom_site_fract_z
C1 C 0.5546(12) 0.3087(6) 0.9647(7)
C2 C 0.4315(11) 0.2544(5) 0.9971(7)
H1 H 0.3778 0.2117 0.9491
C3 C 0.3936(11) 0.2636(5) 1.0915(7)
H2 H 0.4423 0.3077 1.1382
C4 C 0.2756(12) 0.2056(5) 1.1251(7)
C5 C 0.7041(12) 0.4336(5) 0.9859(7)
H3 H 0.7054 0.4850 1.0241
H4 H 0.6746 0.4431 0.9062
H5 H 0.8209 0.4083 1.0118
C6 C 0.1445(13) 0.0784(5) 1.1065(7)
H6 H 0.1468 0.0273 1.0681
H7 H 0.0246 0.1007 1.0830
H8 H 0.1798 0.0690 1.1863
Cl1 Cl 0.3579(3) 0.21032(14) 0.71793(18)
Cl2 Cl 0.9570(3) 0.20191(16) 0.8773(2)
Cl3 Cl 0.6762(4) 0.08480(14) 0.6797(2)
Cl4 Cl 0.6256(4) 0.09735(18) 0.9307(2)
Mo1 Mo 0.65536(13) 0.18433(5) 0.80097(7)
O1 O 0.6391(8) 0.2877(3) 0.9010(4)
O2 O 0.5710(8) 0.3800(4) 1.0091(5)
O3 O 0.1855(8) 0.2214(3) 1.1890(4)
O4 O 0.2659(8) 0.1345(4) 1.0798(5)
Mo1C Mo 0.15536(13) 0.31567(5) 1.30097(7)
O3C O 0.6855(8) 0.2786(3) 0.6890(4)
C7 C 0.179(3) 0.4262(18) 0.7044(14)
H9 H 0.0763 0.4491 0.6481
H10 H 0.2238 0.3803 0.6702
Cl5 Cl 0.110(3) 0.3905(12) 0.8152(16)
Cl6 Cl 0.345(3) 0.4997(13) 0.7423(15)
C8? C 0.147(4) 0.463(3) 0.714(3)
H11? H 0.0585 0.5038 0.7198
H12? H 0.1030 0.4386 0.6396
Cl7? Cl 0.155(4) 0.3886(18) 0.811(3)
Cl8? Cl 0.342(4) 0.515(2) 0.719(3)
loop_
_geom_bond_atom_site_label_1
_geom_bond_atom_site_label_2
_geom_bond_site_symmetry_1
_geom_bond_site_symmetry_2
C1 C2 1_555 1_555
C2 H1 1_555 1_555
C3 C2 1_555 1_555
H2 C3 1_555 1_555
C4 C3 1_555 1_555
C5 H3 1_555 1_555
H4 C5 1_555 1_555
H5 C5 1_555 1_555
C6 H6 1_555 1_555
H7 C6 1_555 1_555
H8 C6 1_555 1_555
Cl1 Mo1 1_555 1_555
Cl2 Mo1 1_555 1_555
Cl3 Mo1 1_555 1_555
Cl4 Mo1 1_555 1_555
Mo1 O1 1_555 1_555
O1 C1 1_555 1_555
O2 C1 1_555 1_555
O3 C4 1_555 1_555
O4 C4 1_555 1_555
C7 H9 1_555 1_555
H10 C7 1_555 1_555
Cl5 C7 1_555 1_555
Cl6 C7 1_555 1_555
Mo1C O3 1_555 1_555
O3C Mo1 1_555 1_555
C5 O2 1_555 1_555
C6 O4 1_555 1_555

#END
