
#######################################################################
#
#                 Cambridge Crystallographic Data Centre
#                                CCDC 
#
#######################################################################
#
# If this CIF has been generated from an entry in the Cambridge 
# Structural Database, then it will include bibliographic, chemical, 
# crystal, experimental, refinement or atomic coordinate data resulting 
# from the CCDC's data processing and validation procedures.
#
#######################################################################

data_KIBKUC
_symmetry_cell_setting           triclinic
_symmetry_space_group_name_H-M   'P -1'
_symmetry_Int_Tables_number      2
_space_group_name_Hall           '-P 1'
loop_
_symmetry_equiv_pos_site_id
_symmetry_equiv_pos_as_xyz
1 x,y,z
2 -x,-y,-z
_cell_length_a                   6.8979(11)
_cell_length_b                   10.2354(17)
_cell_length_c                   12.573(2)
_cell_angle_alpha                73.391(3)
_cell_angle_beta                 86.603(2)
_cell_angle_gamma                71.549(2)
_cell_volume                     806.448
loop_
_atom_site_label
_atom_site_type_symbol
_atom_site_fract_x
_atom_site_fract_y
_atom_site_fract_z
S1 S 1.83986(6) 0.70405(5) 0.65294(3)
O1 O 1.9102(2) 0.59108(15) 0.59863(10)
O2 O 1.64929(19) 0.81418(14) 0.60424(10)
O3 O 1.9948(2) 0.76714(16) 0.66536(11)
O4 O 1.49233(18) 0.56524(13) 0.61399(10)
O5 O 1.7327(2) 0.37678(14) 0.57915(10)
H1 H 1.6688 0.4059 0.5196
O6 O 1.9003(2) 0.06816(15) 1.14153(11)
H2 H 1.8914 0.0310 1.2079
O7 O 1.67429(19) 0.25823(14) 1.17882(10)
O8 O 1.7503(3) 0.67060(19) 1.15418(12)
O9 O 1.7020(3) 0.85902(18) 1.01443(15)
C1 C 1.7810(2) 0.62214(18) 0.79235(13)
C2 C 1.7525(2) 0.48313(17) 0.82985(13)
C3 C 1.7279(2) 0.39955(18) 0.76034(13)
C4 C 1.6438(3) 0.45973(18) 0.64289(13)
C5 C 1.7471(3) 0.25627(19) 0.80567(14)
H3 H 1.7397 0.2019 0.7590
C6 C 1.7774(3) 0.19036(19) 0.92062(14)
H4 H 1.8017 0.0919 0.9486
C7 C 1.7711(2) 0.27110(18) 0.99105(13)
C8 C 1.7765(2) 0.20036(19) 1.11364(13)
C9 C 1.7557(2) 0.42047(18) 0.94799(13)
C10 C 1.7502(2) 0.50449(19) 1.02089(14)
H5 H 1.7462 0.4660 1.0972
C11 C 1.7509(2) 0.64253(19) 0.97752(14)
N1 N 1.7339(2) 0.73105(18) 1.05403(14)
C12 C 1.7757(2) 0.70104(19) 0.86474(14)
H6 H 1.7884 0.7925 0.8390
O11 O 1.3078(2) 0.90437(17) 0.42462(12)
H9 H 1.425(4) 0.853(3) 0.404(2)
H10 H 1.311(4) 0.990(3) 0.416(2)
O12 O 1.1043(2) 1.04780(16) 0.64366(12)
H11 H 0.978(4) 1.073(3) 0.624(2)
H12 H 1.135(4) 1.119(3) 0.631(2)
Na1 Na 1.30656(10) 0.80785(8) 0.62487(5)
O3_2 O 0.9948(2) 0.76714(16) 0.66536(11)
O7A O 1.32571(19) 0.74177(14) 0.82118(10)
Na1_2 Na 2.30656(10) 0.80785(8) 0.62487(5)
Na1A Na 1.69344(10) 0.19215(8) 1.37513(5)
O10 O 0.2747(3) 0.2730(2) 0.62313(14)
H7 H 0.219(5) 0.340(4) 0.567(3)
H8 H 0.244(5) 0.309(4) 0.670(3)
loop_
_geom_bond_atom_site_label_1
_geom_bond_atom_site_label_2
_geom_bond_site_symmetry_1
_geom_bond_site_symmetry_2
S1 O1 1_555 1_555
O2 S1 1_555 1_555
O3 S1 1_555 1_555
O4 C4 1_555 1_555
O5 H1 1_555 1_555
O6 H2 1_555 1_555
O7 C8 1_555 1_555
O8 N1 1_555 1_555
O9 N1 1_555 1_555
C1 S1 1_555 1_555
C2 C1 1_555 1_555
C3 C2 1_555 1_555
C4 O5 1_555 1_555
C5 C3 1_555 1_555
H3 C5 1_555 1_555
C6 C5 1_555 1_555
H4 C6 1_555 1_555
C7 C6 1_555 1_555
C8 O6 1_555 1_555
C9 C2 1_555 1_555
C10 C9 1_555 1_555
H5 C10 1_555 1_555
C11 C10 1_555 1_555
N1 C11 1_555 1_555
C12 C1 1_555 1_555
H6 C12 1_555 1_555
O10 H7 1_555 1_555
H8 O10 1_555 1_555
O11 H9 1_555 1_555
H10 O11 1_555 1_555
O12 H11 1_555 1_555
H12 O12 1_555 1_555
Na1 O2 1_555 1_555
O3_2 Na1 1_555 1_555
O7A Na1 1_555 1_555
Na1_2 O3 1_555 1_555
Na1A O7 1_555 1_555
O4 Na1 1_555 1_555
C3 C4 1_555 1_555
C7 C8 1_555 1_555
C7 C9 1_555 1_555
C11 C12 1_555 1_555
O11 Na1 1_555 1_555
O12 Na1 1_555 1_555

#END
