
#######################################################################
#
#                 Cambridge Crystallographic Data Centre
#                                CCDC 
#
#######################################################################
#
# If this CIF has been generated from an entry in the Cambridge 
# Structural Database, then it will include bibliographic, chemical, 
# crystal, experimental, refinement or atomic coordinate data resulting 
# from the CCDC's data processing and validation procedures.
#
#######################################################################

data_KIBKOX
_symmetry_cell_setting           monoclinic
_symmetry_space_group_name_H-M   'C 2/c'
_symmetry_Int_Tables_number      15
_space_group_name_Hall           '-C 2yn'
loop_
_symmetry_equiv_pos_site_id
_symmetry_equiv_pos_as_xyz
1 x,y,z
2 -x,y,1/2-z
3 1/2+x,1/2+y,z
4 1/2-x,1/2+y,1/2-z
5 -x,-y,-z
6 x,-y,1/2+z
7 1/2-x,1/2-y,-z
8 1/2+x,1/2-y,1/2+z
_cell_length_a                   20.1840(11)
_cell_length_b                   9.0210(5)
_cell_length_c                   19.7136(11)
_cell_angle_alpha                90
_cell_angle_beta                 114.8790(10)
_cell_angle_gamma                90
_cell_volume                     3256.34
loop_
_atom_site_label
_atom_site_type_symbol
_atom_site_fract_x
_atom_site_fract_y
_atom_site_fract_z
U1 U 0.7500 -0.7500 0.5000
As1 As 0.64507(3) 0.01666(7) 0.57592(4)
As2 As 0.80169(3) -0.62172(7) 0.69129(3)
Cu1 Cu 0.68304(4) -0.33453(8) 0.63232(4)
N1 N 0.7779(3) -0.2505(6) 0.6394(3)
N2 N 1.0868(3) 0.0774(6) 0.6189(3)
O1 O 0.5629(3) 0.0952(6) 0.5160(3)
H1 H 0.5465 0.0620 0.4723
O2 O 0.6680(3) 0.0974(6) 0.6586(3)
O3 O 0.7065(3) 0.0534(5) 0.5418(3)
O4 O 0.6287(3) -0.1620(5) 0.5778(3)
O5 O 0.7256(2) -0.5275(5) 0.6675(3)
O6 O 0.8764(3) -0.5315(5) 0.7538(3)
H2 H 0.8613 -0.5037 0.7915
O7 O 0.8227(3) -0.6770(6) 0.6221(2)
O8 O 0.7926(3) -0.7772(5) 0.7383(3)
O9 O 0.6786(3) -0.6357(6) 0.5002(3)
C1 C 0.8159(4) -0.1444(8) 0.6871(4)
H3 H 0.8013 -0.0901 0.7194
C2 C 0.8755(4) -0.0773(8) 0.6835(4)
H4 H 0.9022 0.0156 0.7171
C3 C 0.8009(4) -0.2957(8) 0.5887(4)
H5 H 0.7823 -0.3722 0.5541
C4 C 0.8600(4) -0.2343(8) 0.5804(4)
H6 H 0.8850 -0.2775 0.5525
C5 C 0.8989(3) -0.1193(7) 0.6297(4)
C6 C 0.9627(3) -0.0514(8) 0.6230(4)
C7 C 0.9793(4) 0.0983(7) 0.6403(4)
H7 H 0.9531 0.1742 0.6464
C8 C 1.0414(4) 0.1570(7) 0.6369(4)
H8 H 1.0497 0.2556 0.6417
C9 C 1.0081(4) -0.1308(8) 0.6000(4)
H9 H 1.0076 -0.2203 0.5946
C10 C 1.0702(4) -0.0655(8) 0.6002(4)
H10 H 1.0985 -0.1161 0.5849
As1F As 0.85493(3) -1.51666(7) 0.42408(4)
As2F As 0.69831(3) -0.87828(7) 0.30871(3)
Cu1F Cu 0.81696(4) -1.16547(8) 0.36768(4)
N1F N 0.7221(3) -1.2495(6) 0.3606(3)
N2F N 0.4132(3) -1.5774(6) 0.3811(3)
O1F O 0.9371(3) -1.5952(6) 0.4840(3)
H1F H 0.9535 -1.5620 0.5277
O2F O 0.8320(3) -1.5974(6) 0.3414(3)
O3F O 0.7935(3) -1.5534(5) 0.4582(3)
O4F O 0.8713(3) -1.3380(5) 0.4222(3)
O5F O 0.7744(2) -0.9725(5) 0.3325(3)
O6F O 0.6236(3) -0.9685(5) 0.2462(3)
H2F H 0.6387 -0.9963 0.2085
O7F O 0.6773(3) -0.8230(6) 0.3779(2)
O8F O 0.7074(3) -0.7228(5) 0.2617(3)
O9F O 0.8214(3) -0.8643(6) 0.4998(3)
C1F C 0.6841(4) -1.3556(8) 0.3129(4)
H3F H 0.6987 -1.4099 0.2806
C2F C 0.6245(4) -1.4227(8) 0.3165(4)
H4F H 0.5978 -1.5156 0.2829
C3F C 0.6991(4) -1.2043(8) 0.4113(4)
H5F H 0.7177 -1.1278 0.4459
C4F C 0.6400(4) -1.2657(8) 0.4196(4)
H6F H 0.6150 -1.2225 0.4475
C5F C 0.6011(3) -1.3807(7) 0.3703(4)
C6F C 0.5373(3) -1.4486(8) 0.3770(4)
C7F C 0.5207(4) -1.5983(7) 0.3597(4)
H7F H 0.5469 -1.6742 0.3536
C8F C 0.4586(4) -1.6570(7) 0.3631(4)
H8F H 0.4503 -1.7556 0.3583
C9F C 0.4919(4) -1.3692(8) 0.4000(4)
H9F H 0.4924 -1.2797 0.4054
C10F C 0.4298(4) -1.4345(8) 0.3998(4)
H10F H 0.4015 -1.3839 0.4151
U1_2 U 0.7500 -1.7500 0.5000
U1_3 U 0.7500 0.2500 0.5000
Cu1B Cu 1.18304(4) 0.16547(8) 0.63232(4)
Cu1C Cu 0.81696(4) -0.83453(8) 0.86768(4)
Cu1D Cu 0.31696(4) -1.66547(8) 0.36768(4)
Cu1E Cu 0.68304(4) -0.66547(8) 0.13232(4)
N2B N 0.5868(3) -0.4226(6) 0.6189(3)
N2D N 0.9132(3) -1.0774(6) 0.3811(3)
O3_2 O 0.7065(3) -0.9466(5) 0.5418(3)
O3F_2 O 0.7935(3) -0.5534(5) 0.4582(3)
O8C O 0.7074(3) -0.2772(5) 0.7617(3)
O8E O 0.7926(3) -1.2228(5) 0.2383(3)
O10 O 0.5415(6) 0.0312(13) 0.3734(7)
O11 O 0.5000 -0.142(7) 0.2500
loop_
_geom_bond_atom_site_label_1
_geom_bond_atom_site_label_2
_geom_bond_site_symmetry_1
_geom_bond_site_symmetry_2
U1 O7 1_555 1_555
As1 O1 1_555 1_555
As2 O5 1_555 1_555
Cu1 N1 1_555 1_555
N1 C1 1_555 1_555
N2 C8 1_555 1_555
O1 H1 1_555 1_555
O2 As1 1_555 1_555
O3 As1 1_555 1_555
O4 As1 1_555 1_555
O5 Cu1 1_555 1_555
O6 As2 1_555 1_555
H2 O6 1_555 1_555
O7 As2 1_555 1_555
O8 As2 1_555 1_555
O9 U1 1_555 1_555
C1 H3 1_555 1_555
C2 C1 1_555 1_555
H4 C2 1_555 1_555
C3 N1 1_555 1_555
H5 C3 1_555 1_555
C4 C3 1_555 1_555
H6 C4 1_555 1_555
C5 C2 1_555 1_555
C6 C5 1_555 1_555
C7 C6 1_555 1_555
H7 C7 1_555 1_555
C8 C7 1_555 1_555
H8 C8 1_555 1_555
C9 C6 1_555 1_555
H9 C9 1_555 1_555
C10 N2 1_555 1_555
H10 C10 1_555 1_555
As1F O1F 1_555 1_555
As2F O5F 1_555 1_555
Cu1F N1F 1_555 1_555
N1F C1F 1_555 1_555
N2F C8F 1_555 1_555
O1F H1F 1_555 1_555
O2F As1F 1_555 1_555
O3F As1F 1_555 1_555
O4F As1F 1_555 1_555
O5F Cu1F 1_555 1_555
O6F As2F 1_555 1_555
H2F O6F 1_555 1_555
O7F U1 1_555 1_555
O8F As2F 1_555 1_555
O9F U1 1_555 1_555
C1F H3F 1_555 1_555
C2F C1F 1_555 1_555
H4F C2F 1_555 1_555
C3F N1F 1_555 1_555
H5F C3F 1_555 1_555
C4F C3F 1_555 1_555
H6F C4F 1_555 1_555
C5F C2F 1_555 1_555
C6F C5F 1_555 1_555
C7F C6F 1_555 1_555
H7F C7F 1_555 1_555
C8F C7F 1_555 1_555
H8F C8F 1_555 1_555
C9F C6F 1_555 1_555
H9F C9F 1_555 1_555
C10F N2F 1_555 1_555
H10F C10F 1_555 1_555
U1_2 O3F 1_555 1_555
U1_3 O3 1_555 1_555
Cu1B N2 1_555 1_555
Cu1C O8 1_555 1_555
Cu1D N2F 1_555 1_555
Cu1E O8F 1_555 1_555
N2B Cu1 1_555 1_555
N2D Cu1F 1_555 1_555
O3_2 U1 1_555 1_555
O3F_2 U1 1_555 1_555
O8C Cu1 1_555 1_555
O8E Cu1F 1_555 1_555
Cu1 O4 1_555 1_555
C4 C5 1_555 1_555
C9 C10 1_555 1_555
As2F O7F 1_555 1_555
Cu1F O4F 1_555 1_555
C4F C5F 1_555 1_555
C9F C10F 1_555 1_555

#END
