
#######################################################################
#
#                 Cambridge Crystallographic Data Centre
#                                CCDC 
#
#######################################################################
#
# If this CIF has been generated from an entry in the Cambridge 
# Structural Database, then it will include bibliographic, chemical, 
# crystal, experimental, refinement or atomic coordinate data resulting 
# from the CCDC's data processing and validation procedures.
#
#######################################################################

data_KIBLIR
_symmetry_cell_setting           monoclinic
_symmetry_space_group_name_H-M   'P 21'
_symmetry_Int_Tables_number      4
_space_group_name_Hall           'P 2yb'
loop_
_symmetry_equiv_pos_site_id
_symmetry_equiv_pos_as_xyz
1 x,y,z
2 -x,1/2+y,-z
_cell_length_a                   8.3160(7)
_cell_length_b                   13.2616(11)
_cell_length_c                   10.7806(9)
_cell_angle_alpha                90
_cell_angle_beta                 100.241(2)
_cell_angle_gamma                90
_cell_volume                     1169.98
loop_
_atom_site_label
_atom_site_type_symbol
_atom_site_fract_x
_atom_site_fract_y
_atom_site_fract_z
Ni1 Ni 0.48854(6) 0.39790(4) 0.24508(5)
S1 S 0.22509(17) 0.51935(10) 0.57111(12)
S2 S 0.8076(3) 0.33453(11) -0.05900(17)
N1 N 0.6422(4) 0.3440(3) 0.4095(3)
N2 N 1.3617(4) 0.0285(3) 0.7515(3)
N3 N 0.9432(4) 0.2096(3) 0.7185(3)
H1 H 0.903(5) 0.208(4) 0.789(3)
N4 N 0.3437(4) 0.4446(3) 0.0762(3)
N5 N -0.3377(4) 0.7693(3) -0.2467(3)
N6 N -0.0267(4) 0.5178(3) -0.2269(3)
H2 H -0.070(5) 0.466(2) -0.271(4)
N7 N 0.3480(4) 0.4734(3) 0.3534(4)
N8 N 0.6356(4) 0.3218(3) 0.1383(4)
C1 C 0.5839(5) 0.3058(3) 0.5071(4)
H3 H 0.4718 0.3094 0.5056
C2 C 0.6795(5) 0.2614(3) 0.6097(4)
H4 H 0.6326 0.2358 0.6753
C3 C 0.8479(5) 0.2552(3) 0.6142(4)
C4 C 0.9115(5) 0.3004(3) 0.5179(4)
H5 H 1.0238 0.3030 0.5205
C5 C 0.8052(5) 0.3416(3) 0.4177(4)
H6 H 0.8492 0.3693 0.3519
C6 C 1.2939(5) 0.0687(3) 0.6394(4)
H7 H 1.3420 0.0540 0.5699
C7 C 1.1581(5) 0.1298(3) 0.6212(4)
H8 H 1.1144 0.1537 0.5412
C8 C 1.0875(5) 0.1553(3) 0.7245(4)
C9 C 1.1635(5) 0.1202(3) 0.8426(4)
H9 H 1.1249 0.1393 0.9149
C10 C 1.2959(5) 0.0570(3) 0.8507(4)
H10 H 1.3425 0.0325 0.9298
C11 C 0.2727(5) 0.5363(3) 0.0672(4)
H11 H 0.3048 0.5819 0.1325
C12 C 0.1560(5) 0.5668(3) -0.0323(4)
H12 H 0.1127 0.6316 -0.0338
C13 C 0.1030(5) 0.5002(3) -0.1308(4)
C14 C 0.1854(5) 0.4082(4) -0.1267(4)
H13 H 0.1621 0.3635 -0.1940
C15 C 0.3009(5) 0.3835(3) -0.0237(4)
H14 H 0.3522 0.3212 -0.0229
C16 C -0.1746(5) 0.7795(3) -0.2320(4)
H15 H -0.1310 0.8443 -0.2247
C17 C -0.0683(5) 0.6993(3) -0.2271(4)
H16 H 0.0437 0.7102 -0.2179
C18 C -0.1306(5) 0.6023(3) -0.2362(4)
C19 C -0.2998(5) 0.5902(3) -0.2566(4)
H17 H -0.3462 0.5263 -0.2674
C20 C -0.3972(5) 0.6746(3) -0.2606(4)
H18 H -0.5099 0.6658 -0.2735
C21 C 0.2981(5) 0.4931(3) 0.4432(4)
C22 C 0.7047(5) 0.3247(3) 0.0550(4)
Ni1A Ni 1.51146(6) -0.10210(4) 0.75492(5)
Ni1A_2 Ni -0.48854(6) 0.89790(4) -0.24508(5)
N2A N 0.6383(4) 0.5285(3) 0.2485(3)
N5A N 0.3377(4) 0.2693(3) 0.2467(3)
loop_
_geom_bond_atom_site_label_1
_geom_bond_atom_site_label_2
_geom_bond_site_symmetry_1
_geom_bond_site_symmetry_2
Ni1 N1 1_555 1_555
S1 C21 1_555 1_555
S2 C22 1_555 1_555
N1 C1 1_555 1_555
N2 C6 1_555 1_555
N3 H1 1_555 1_555
N4 Ni1 1_555 1_555
N5 C16 1_555 1_555
N6 H2 1_555 1_555
N7 Ni1 1_555 1_555
N8 Ni1 1_555 1_555
C1 H3 1_555 1_555
C2 C1 1_555 1_555
H4 C2 1_555 1_555
C3 N3 1_555 1_555
C4 C3 1_555 1_555
H5 C4 1_555 1_555
C5 N1 1_555 1_555
H6 C5 1_555 1_555
C6 H7 1_555 1_555
C7 C6 1_555 1_555
H8 C7 1_555 1_555
C8 N3 1_555 1_555
C9 C8 1_555 1_555
H9 C9 1_555 1_555
C10 N2 1_555 1_555
H10 C10 1_555 1_555
C11 N4 1_555 1_555
H11 C11 1_555 1_555
C12 C11 1_555 1_555
H12 C12 1_555 1_555
C13 N6 1_555 1_555
C14 C13 1_555 1_555
H13 C14 1_555 1_555
C15 N4 1_555 1_555
H14 C15 1_555 1_555
C16 H15 1_555 1_555
C17 C16 1_555 1_555
H16 C17 1_555 1_555
C18 N6 1_555 1_555
C19 C18 1_555 1_555
H17 C19 1_555 1_555
C20 N5 1_555 1_555
H18 C20 1_555 1_555
C21 N7 1_555 1_555
C22 N8 1_555 1_555
Ni1A N2 1_555 1_555
Ni1A_2 N5 1_555 1_555
N2A Ni1 1_555 1_555
N5A Ni1 1_555 1_555
C2 C3 1_555 1_555
C4 C5 1_555 1_555
C7 C8 1_555 1_555
C9 C10 1_555 1_555
C12 C13 1_555 1_555
C14 C15 1_555 1_555
C17 C18 1_555 1_555
C19 C20 1_555 1_555

#END
