
#######################################################################
#
#                 Cambridge Crystallographic Data Centre
#                                CCDC 
#
#######################################################################
#
# If this CIF has been generated from an entry in the Cambridge 
# Structural Database, then it will include bibliographic, chemical, 
# crystal, experimental, refinement or atomic coordinate data resulting 
# from the CCDC's data processing and validation procedures.
#
#######################################################################

data_KIBNUG
_symmetry_cell_setting           triclinic
_symmetry_space_group_name_H-M   'P -1'
_symmetry_Int_Tables_number      2
_space_group_name_Hall           '-P 1'
loop_
_symmetry_equiv_pos_site_id
_symmetry_equiv_pos_as_xyz
1 x,y,z
2 -x,-y,-z
_cell_length_a                   8.3462(7)
_cell_length_b                   12.9000(12)
_cell_length_c                   13.4127(12)
_cell_angle_alpha                107.0080(10)
_cell_angle_beta                 104.3200(10)
_cell_angle_gamma                92.9090(10)
_cell_volume                     1326.17
loop_
_atom_site_label
_atom_site_type_symbol
_atom_site_fract_x
_atom_site_fract_y
_atom_site_fract_z
Gd1 Gd 0.752844(13) 0.511702(9) 0.509075(9)
Zn1 Zn 0.67433(4) 0.77796(2) 0.33649(2)
Cl1 Cl 0.76994(9) 0.86942(6) 0.24177(6)
O1 O 0.2268(2) 0.38186(15) 0.29828(14)
O2 O 0.4673(2) 0.48299(14) 0.39304(13)
O3 O 0.7793(2) 0.54236(14) 0.34456(13)
O4 O 0.5968(2) 0.62298(14) 0.24955(15)
O5 O 0.7396(3) 0.45368(17) 0.08217(16)
O6 O 1.2872(2) 0.67932(14) 0.61270(15)
O7 O 1.0243(2) 0.60619(13) 0.55387(13)
O8 O 0.6977(2) 0.69543(14) 0.52254(14)
O9 O 0.8445(2) 0.81414(15) 0.47745(15)
O10 O 0.7311(2) 0.93338(16) 0.70480(18)
O11 O 0.8731(2) 0.41260(16) 0.63021(15)
H1 H 0.9796 0.4173 0.6408
H2 H 0.8640 0.4206 0.6956
N1 N 0.8568(3) 0.3972(2) -0.16977(19)
N2 N 0.5301(3) 1.15114(19) 0.6333(2)
C1 C 0.4399(3) 0.3701(2) 0.20820(19)
C2 C 0.5672(3) 0.4303(2) 0.19056(19)
C3 C 0.6153(3) 0.3880(2) 0.0950(2)
C4 C 0.5380(4) 0.2889(2) 0.0195(2)
H3 H 0.5684 0.2627 -0.0446
C5 C 0.4143(3) 0.2289(2) 0.0404(2)
H4 H 0.3652 0.1608 -0.0088
C6 C 0.3638(3) 0.2688(2) 0.1327(2)
H5 H 0.2793 0.2286 0.1451
C7 C 0.3737(3) 0.4127(2) 0.30438(19)
C8 C 0.6545(3) 0.5408(2) 0.26813(19)
C9 C 0.7856(3) 0.4369(2) -0.0898(2)
H6 H 0.7122 0.4879 -0.0966
C10 C 0.8167(3) 0.4055(2) 0.0018(2)
C11 C 0.9263(4) 0.3314(3) 0.0156(3)
H7 H 0.9509 0.3109 0.0781
C12 C 0.9983(4) 0.2889(3) -0.0676(3)
H8 H 1.0708 0.2370 -0.0631
C13 C 0.9617(4) 0.3241(3) -0.1570(2)
H9 H 1.0127 0.2956 -0.2116
C14 C 1.0902(3) 0.7820(2) 0.6887(2)
C15 C 0.9332(3) 0.8160(2) 0.6576(2)
C16 C 0.8901(3) 0.9019(2) 0.7321(2)
C17 C 0.9938(4) 0.9510(2) 0.8355(2)
H10 H 0.9604 1.0067 0.8849
C18 C 1.1486(4) 0.9164(2) 0.8650(2)
H11 H 1.2193 0.9487 0.9345
C19 C 1.1972(3) 0.8337(2) 0.7906(2)
H12 H 1.3026 0.8128 0.8093
C20 C 1.1389(3) 0.6851(2) 0.61425(19)
C21 C 0.8159(3) 0.7696(2) 0.5443(2)
C22 C 0.5713(3) 1.0692(2) 0.6739(2)
H13 H 0.5036 1.0456 0.7107
C23 C 0.7109(3) 1.0191(2) 0.6624(2)
C24 C 0.8141(3) 1.0540(2) 0.6088(2)
H14 H 0.9101 1.0226 0.6017
C25 C 0.7695(4) 1.1371(3) 0.5665(3)
H15 H 0.8352 1.1619 0.5293
C26 C 0.6274(4) 1.1833(2) 0.5793(3)
H16 H 0.5983 1.2386 0.5495
Gd1A Gd 0.247156(13) 0.488298(9) 0.490925(9)
Gd1A_2 Gd 1.247156(13) 0.488298(9) 0.490925(9)
Zn1A Zn 0.32567(4) 1.22204(2) 0.66351(2)
O1A O 0.7732(2) 0.61814(15) 0.70172(14)
O2A O 0.5327(2) 0.51701(14) 0.60696(13)
O6A O 0.7128(2) 0.32068(14) 0.38730(15)
O7A O 0.9757(2) 0.39381(13) 0.44613(13)
N2A N 0.4699(3) 0.84886(19) 0.3667(2)
loop_
_geom_bond_atom_site_label_1
_geom_bond_atom_site_label_2
_geom_bond_site_symmetry_1
_geom_bond_site_symmetry_2
Gd1 O2 1_555 1_555
Zn1 Cl1 1_555 1_555
O1 C7 1_555 1_555
O2 C7 1_555 1_555
O3 Gd1 1_555 1_555
O4 Zn1 1_555 1_555
O5 C3 1_555 1_555
O6 C20 1_555 1_555
O7 Gd1 1_555 1_555
O8 Gd1 1_555 1_555
O9 Zn1 1_555 1_555
O10 C16 1_555 1_555
O11 Gd1 1_555 1_555
H1 O11 1_555 1_555
H2 O11 1_555 1_555
N1 C9 1_555 1_555
N2 C22 1_555 1_555
C1 C2 1_555 1_555
C2 C3 1_555 1_555
C3 C4 1_555 1_555
C4 H3 1_555 1_555
C5 C4 1_555 1_555
H4 C5 1_555 1_555
C6 C1 1_555 1_555
H5 C6 1_555 1_555
C7 C1 1_555 1_555
C8 O3 1_555 1_555
C9 H6 1_555 1_555
C10 O5 1_555 1_555
C11 C10 1_555 1_555
H7 C11 1_555 1_555
C12 C11 1_555 1_555
H8 C12 1_555 1_555
C13 N1 1_555 1_555
H9 C13 1_555 1_555
C14 C15 1_555 1_555
C15 C16 1_555 1_555
C16 C17 1_555 1_555
C17 H10 1_555 1_555
C18 C17 1_555 1_555
H11 C18 1_555 1_555
C19 C14 1_555 1_555
H12 C19 1_555 1_555
C20 O7 1_555 1_555
C21 O8 1_555 1_555
C22 H13 1_555 1_555
C23 O10 1_555 1_555
C24 C23 1_555 1_555
H14 C24 1_555 1_555
C25 C24 1_555 1_555
H15 C25 1_555 1_555
C26 N2 1_555 1_555
H16 C26 1_555 1_555
Gd1A O1 1_555 1_555
Gd1A_2 O6 1_555 1_555
Zn1A N2 1_555 1_555
O1A Gd1 1_555 1_555
O2A Gd1 1_555 1_555
O6A Gd1 1_555 1_555
O7A Gd1 1_555 1_555
N2A Zn1 1_555 1_555
O2 Gd1A 1_555 1_555
O4 C8 1_555 1_555
O7 Gd1A_2 1_555 1_555
O9 C21 1_555 1_555
C2 C8 1_555 1_555
C5 C6 1_555 1_555
C9 C10 1_555 1_555
C12 C13 1_555 1_555
C14 C20 1_555 1_555
C15 C21 1_555 1_555
C18 C19 1_555 1_555
C22 C23 1_555 1_555
C25 C26 1_555 1_555
Gd1A O2A 1_555 1_555
Gd1A_2 O7A 1_555 1_555

#END
