
#######################################################################
#
#                 Cambridge Crystallographic Data Centre
#                                CCDC 
#
#######################################################################
#
# If this CIF has been generated from an entry in the Cambridge 
# Structural Database, then it will include bibliographic, chemical, 
# crystal, experimental, refinement or atomic coordinate data resulting 
# from the CCDC's data processing and validation procedures.
#
#######################################################################

data_KIBPES
_symmetry_cell_setting           triclinic
_symmetry_space_group_name_H-M   'P -1'
_symmetry_Int_Tables_number      2
_space_group_name_Hall           '-P 1'
loop_
_symmetry_equiv_pos_site_id
_symmetry_equiv_pos_as_xyz
1 x,y,z
2 -x,-y,-z
_cell_length_a                   9.6121(8)
_cell_length_b                   12.8091(11)
_cell_length_c                   12.4524(10)
_cell_angle_alpha                106.3450(10)
_cell_angle_beta                 108.0720(10)
_cell_angle_gamma                83.8620(10)
_cell_volume                     1398.3
loop_
_atom_site_label
_atom_site_type_symbol
_atom_site_fract_x
_atom_site_fract_y
_atom_site_fract_z
Er1 Er 0.791422(11) 0.031071(9) 0.526316(9)
Zn1 Zn 0.66243(4) 0.30702(3) 0.34852(3)
O1 O 0.8095(3) 0.33253(18) 0.5020(2)
O2 O 0.7540(2) 0.21499(17) 0.5840(2)
O3 O 1.02298(19) 0.10558(14) 0.55672(16)
O4 O 1.2462(2) 0.15332(16) 0.58285(18)
O5 O 0.8134(2) 0.46435(18) 0.7713(2)
O6 O 0.6030(2) 0.15898(16) 0.25088(17)
O7 O 0.78524(18) 0.06947(15) 0.35119(15)
O8 O 0.54765(18) 0.03851(16) 0.41920(15)
C1 C 0.4528(3) -0.0210(2) 0.3378(2)
O9 O 0.7241(3) -0.02940(17) 0.0650(2)
O10 O 0.9472(2) -0.0309(2) 0.6773(2)
H1 H 0.9268 -0.0390 0.7336
H2 H 1.0505 -0.0313 0.6885
N1 N 0.5419(3) 0.6401(2) 0.6377(3)
N2 N 0.9251(3) -0.1111(2) -0.1468(2)
Cl1 Cl 0.73408(11) 0.39862(8) 0.24981(9)
C2 C 1.0723(4) 0.4590(3) 0.8675(3)
H3 H 1.0605 0.5187 0.9273
C3 C 0.9647(3) 0.3257(2) 0.6854(2)
C4 C 1.1042(3) 0.2770(2) 0.6915(2)
C5 C 1.2255(3) 0.3217(2) 0.7837(3)
H4 H 1.3183 0.2912 0.7857
C6 C 1.2087(4) 0.4110(3) 0.8720(3)
H5 H 1.2894 0.4389 0.9346
C7 C 0.9526(3) 0.4176(2) 0.7730(3)
C8 C 0.8316(3) 0.2865(2) 0.5827(3)
C9 C 1.1253(3) 0.1739(2) 0.6046(2)
C10 C 0.6123(3) 0.5679(2) 0.6968(3)
H6 H 0.5625 0.5373 0.7333
C11 C 0.7565(3) 0.5376(2) 0.7052(3)
C12 C 0.8319(4) 0.5816(3) 0.6501(4)
H7 H 0.9292 0.5623 0.6546
C13 C 0.7581(4) 0.6546(4) 0.5890(4)
H8 H 0.8053 0.6851 0.5506
C14 C 0.6138(5) 0.6832(3) 0.5840(4)
H9 H 0.5655 0.7333 0.5427
C15 C 0.6248(3) -0.0828(2) 0.0908(2)
C16 C 0.5927(3) -0.0316(2) 0.1956(2)
C17 C 0.4884(3) -0.0768(2) 0.2249(2)
C18 C 0.4169(3) -0.1707(2) 0.1504(3)
H10 H 0.3476 -0.2008 0.1703
C19 C 0.4497(3) -0.2194(3) 0.0460(3)
H11 H 0.4013 -0.2818 -0.0042
C20 C 0.5538(3) -0.1757(3) 0.0158(2)
H12 H 0.5754 -0.2086 -0.0540
C21 C 0.6659(3) 0.0733(2) 0.2724(2)
O11 O 0.32731(19) -0.03512(18) 0.34129(16)
C22 C 0.8294(3) -0.0632(3) -0.0894(3)
H13 H 0.7671 -0.0088 -0.1152
C23 C 0.8193(3) -0.0916(2) 0.0070(2)
C24 C 0.9113(4) -0.1719(3) 0.0470(3)
H14 H 0.9064 -0.1924 0.1116
C25 C 1.0107(4) -0.2206(3) -0.0125(3)
H15 H 1.0752 -0.2746 0.0120
C26 C 1.0137(4) -0.1886(3) -0.1087(3)
H16 H 1.0806 -0.2226 -0.1485
Er1A Er 0.208578(11) -0.031071(9) 0.473684(9)
Er1A_2 Er 1.208578(11) -0.031071(9) 0.473684(9)
Zn1A Zn 0.33757(4) 0.69298(3) 0.65148(3)
O3A O 0.97702(19) -0.10558(14) 0.44328(16)
O4A O 0.7538(2) -0.15332(16) 0.41715(18)
N1A N 0.4581(3) 0.3599(2) 0.3623(3)
O11A O 0.67269(19) 0.03512(18) 0.65871(16)
loop_
_geom_bond_atom_site_label_1
_geom_bond_atom_site_label_2
_geom_bond_site_symmetry_1
_geom_bond_site_symmetry_2
Er1 O2 1_555 1_555
Zn1 O1 1_555 1_555
O1 C8 1_555 1_555
O2 C8 1_555 1_555
O3 Er1 1_555 1_555
O4 C9 1_555 1_555
O5 C7 1_555 1_555
O6 Zn1 1_555 1_555
O7 Er1 1_555 1_555
O8 Er1 1_555 1_555
C1 O8 1_555 1_555
O9 C15 1_555 1_555
O10 Er1 1_555 1_555
H1 O10 1_555 1_555
H2 O10 1_555 1_555
N1 C10 1_555 1_555
N2 C22 1_555 1_555
Cl1 Zn1 1_555 1_555
C2 H3 1_555 1_555
C3 C4 1_555 1_555
C4 C5 1_555 1_555
C5 H4 1_555 1_555
C6 C2 1_555 1_555
H5 C6 1_555 1_555
C7 C2 1_555 1_555
C8 C3 1_555 1_555
C9 O3 1_555 1_555
C10 H6 1_555 1_555
C11 O5 1_555 1_555
C12 C11 1_555 1_555
H7 C12 1_555 1_555
C13 C12 1_555 1_555
H8 C13 1_555 1_555
C14 N1 1_555 1_555
H9 C14 1_555 1_555
C15 C16 1_555 1_555
C16 C17 1_555 1_555
C17 C1 1_555 1_555
C18 C17 1_555 1_555
H10 C18 1_555 1_555
C19 C18 1_555 1_555
H11 C19 1_555 1_555
C20 C15 1_555 1_555
H12 C20 1_555 1_555
C21 O6 1_555 1_555
O11 C1 1_555 1_555
C22 H13 1_555 1_555
C23 O9 1_555 1_555
C24 C23 1_555 1_555
H14 C24 1_555 1_555
C25 C24 1_555 1_555
H15 C25 1_555 1_555
C26 N2 1_555 1_555
H16 C26 1_555 1_555
Er1A O11 1_555 1_555
Er1A_2 O3 1_555 1_555
Zn1A N1 1_555 1_555
O3A Er1 1_555 1_555
O4A Er1 1_555 1_555
N1A Zn1 1_555 1_555
O11A Er1 1_555 1_555
O4 Er1A_2 1_555 1_555
O7 C21 1_555 1_555
C3 C7 1_555 1_555
C4 C9 1_555 1_555
C5 C6 1_555 1_555
C10 C11 1_555 1_555
C13 C14 1_555 1_555
C16 C21 1_555 1_555
C19 C20 1_555 1_555
C22 C23 1_555 1_555
C25 C26 1_555 1_555
Er1A_2 O3A 1_555 1_555

#END
