
#######################################################################
#
#                 Cambridge Crystallographic Data Centre
#                                CCDC 
#
#######################################################################
#
# If this CIF has been generated from an entry in the Cambridge 
# Structural Database, then it will include bibliographic, chemical, 
# crystal, experimental, refinement or atomic coordinate data resulting 
# from the CCDC's data processing and validation procedures.
#
#######################################################################

data_KIBRUJ
_symmetry_cell_setting           monoclinic
_symmetry_space_group_name_H-M   'C 2/c'
_symmetry_Int_Tables_number      15
_space_group_name_Hall           '-C 2yn'
loop_
_symmetry_equiv_pos_site_id
_symmetry_equiv_pos_as_xyz
1 x,y,z
2 1/2+x,1/2+y,z
3 -x,y,1/2-z
4 1/2-x,1/2+y,1/2-z
5 -x,-y,-z
6 1/2-x,1/2-y,-z
7 x,-y,1/2+z
8 1/2+x,1/2-y,1/2+z
_cell_length_a                   24.236(5)
_cell_length_b                   5.1343(10)
_cell_length_c                   15.771(3)
_cell_angle_alpha                90
_cell_angle_beta                 94.68(3)
_cell_angle_gamma                90
_cell_volume                     1955.92
loop_
_atom_site_label
_atom_site_type_symbol
_atom_site_fract_x
_atom_site_fract_y
_atom_site_fract_z
Hg1 Hg 0.0000 1.47685(5) 0.2500
Br1 Br -0.034157(19) 1.59044(11) 0.38960(3)
N1 N 0.06546(15) 1.1607(8) 0.3066(2)
N2 N 0.11043(14) 0.8677(8) 0.3840(2)
N3 N 0.13081(15) 0.8511(8) 0.3059(2)
C1 C 0.07175(19) 1.0545(10) 0.3829(3)
H1 H 0.0523 1.1019 0.4290
C2 C 0.1023(2) 1.0330(10) 0.2625(3)
H2 H 0.1073 1.0702 0.2059
C3 C 0.13121(17) 0.6949(9) 0.4523(3)
H3 H 0.1237 0.5161 0.4351
H4 H 0.1114 0.7292 0.5021
C4 C 0.19284(17) 0.7258(9) 0.4757(3)
C5 C 0.23070(19) 0.5629(9) 0.4385(3)
C6 C 0.21350(18) 0.3759(9) 0.3751(3)
H5 H 0.1762 0.3636 0.3564
C7 C 0.25063(19) 0.2142(9) 0.3413(3)
H6 H 0.2384 0.0924 0.3004
C8 C 0.30723(19) 0.2312(9) 0.3680(3)
H7 H 0.3323 0.1183 0.3456
C9 C 0.32547(18) 0.4118(9) 0.4266(3)
H8 H 0.3631 0.4222 0.4429
C10 C 0.21151(18) 0.9140(9) 0.5363(3)
Hg1G Hg 0.5000 0.02315(5) 0.7500
Br1B Br 0.034157(19) 1.59044(11) 0.11040(3)
N1E N 0.43454(15) 0.3393(8) 0.6934(2)
N1B N -0.06546(15) 1.1607(8) 0.1934(2)
N2E N 0.38957(14) 0.6323(8) 0.6160(2)
N3E N 0.36919(15) 0.6489(8) 0.6941(2)
C1E C 0.42825(19) 0.4455(10) 0.6171(3)
H1E H 0.4477 0.3981 0.5710
C2E C 0.3977(2) 0.4670(10) 0.7375(3)
H2E H 0.3927 0.4298 0.7941
C3E C 0.36879(17) 0.8051(9) 0.5477(3)
H3E H 0.3763 0.9839 0.5649
H4E H 0.3886 0.7708 0.4979
C4E C 0.30716(17) 0.7742(9) 0.5243(3)
C5E C 0.26930(19) 0.9371(9) 0.5615(3)
C6E C 0.28650(18) 1.1241(9) 0.6249(3)
H5E H 0.3238 1.1364 0.6436
C7E C 0.24937(19) 1.2858(9) 0.6587(3)
H6E H 0.2616 1.4076 0.6996
C8E C 0.19277(19) 1.2688(9) 0.6320(3)
H7E H 0.1677 1.3817 0.6544
C9E C 0.17453(18) 1.0882(9) 0.5734(3)
H8E H 0.1369 1.0778 0.5571
C10E C 0.28849(18) 0.5860(9) 0.4637(3)
loop_
_geom_bond_atom_site_label_1
_geom_bond_atom_site_label_2
_geom_bond_site_symmetry_1
_geom_bond_site_symmetry_2
Hg1 Br1 1_555 1_555
N1 Hg1 1_555 1_555
N2 N3 1_555 1_555
N3 C2 1_555 1_555
C1 N1 1_555 1_555
H1 C1 1_555 1_555
C2 N1 1_555 1_555
H2 C2 1_555 1_555
C3 N2 1_555 1_555
H3 C3 1_555 1_555
H4 C3 1_555 1_555
C4 C3 1_555 1_555
C5 C4 1_555 1_555
C6 C5 1_555 1_555
H5 C6 1_555 1_555
C7 C6 1_555 1_555
H6 C7 1_555 1_555
C8 C7 1_555 1_555
H7 C8 1_555 1_555
C9 C8 1_555 1_555
H8 C9 1_555 1_555
C10 C4 1_555 1_555
Hg1G N1E 1_555 1_555
Br1B Hg1 1_555 1_555
N1E C1E 1_555 1_555
N1B Hg1 1_555 1_555
N2E N3E 1_555 1_555
N3E C2E 1_555 1_555
C1E N2E 1_555 1_555
H1E C1E 1_555 1_555
C2E N1E 1_555 1_555
H2E C2E 1_555 1_555
C3E N2E 1_555 1_555
H3E C3E 1_555 1_555
H4E C3E 1_555 1_555
C4E C3E 1_555 1_555
C5E C10 1_555 1_555
C6E C5E 1_555 1_555
H5E C6E 1_555 1_555
C7E C6E 1_555 1_555
H6E C7E 1_555 1_555
C8E C7E 1_555 1_555
H7E C8E 1_555 1_555
C9E C10 1_555 1_555
H8E C9E 1_555 1_555
C10E C5 1_555 1_555
N2 C1 1_555 1_555
C9 C10E 1_555 1_555
C4E C5E 1_555 1_555
C4E C10E 1_555 1_555
C8E C9E 1_555 1_555

#END
