
#######################################################################
#
#                 Cambridge Crystallographic Data Centre
#                                CCDC 
#
#######################################################################
#
# If this CIF has been generated from an entry in the Cambridge 
# Structural Database, then it will include bibliographic, chemical, 
# crystal, experimental, refinement or atomic coordinate data resulting 
# from the CCDC's data processing and validation procedures.
#
#######################################################################

data_KIBVOH
_symmetry_cell_setting           triclinic
_symmetry_space_group_name_H-M   'P -1'
_symmetry_Int_Tables_number      2
_space_group_name_Hall           '-P 1'
loop_
_symmetry_equiv_pos_site_id
_symmetry_equiv_pos_as_xyz
1 x,y,z
2 -x,-y,-z
_cell_length_a                   9.4640(19)
_cell_length_b                   12.346(3)
_cell_length_c                   18.082(4)
_cell_angle_alpha                100.51(3)
_cell_angle_beta                 103.36(3)
_cell_angle_gamma                102.01(3)
_cell_volume                     1950.71
loop_
_atom_site_label
_atom_site_type_symbol
_atom_site_fract_x
_atom_site_fract_y
_atom_site_fract_z
Ag1 Ag 0.59527(4) 0.07945(3) 0.44828(2)
Ag2 Ag 0.02838(4) 0.71385(3) 0.89894(2)
S1 S 0.69749(13) 0.13361(9) 0.68625(6)
S2 S 0.17492(13) 0.81965(9) 0.75109(6)
N1 N 0.4718(4) 0.2104(3) 0.4458(2)
N2 N 0.7414(4) -0.0365(3) 0.4508(2)
N3 N 0.0999(4) 0.4470(3) 0.3879(2)
H1 H 0.0469 0.4958 0.3880
H2 H 0.0789 0.3910 0.3477
N4 N 1.0939(4) -0.2858(3) 0.5103(2)
H3 H 1.1459 -0.3353 0.5100
H4 H 1.1071 -0.2356 0.5528
N5 N 0.1099(4) 0.5605(3) 0.8899(2)
N6 N -0.1059(4) 0.8353(3) 0.9109(2)
N7 N 0.1422(4) 0.1529(3) 0.8158(2)
H5 H 0.1639 0.0882 0.8112
H6 H 0.0630 0.1596 0.7842
N8 N -0.4808(4) 1.0746(3) 0.9071(3)
H7 H -0.5272 1.1270 0.9130
H8 H -0.5284 1.0080 0.8774
O1 O 0.2502(4) 0.5360(3) 0.50911(19)
O2 O 0.9700(4) -0.3571(3) 0.38287(18)
O3 O 0.3455(3) 0.2397(3) 0.91863(18)
O4 O -0.2657(5) 1.1894(3) 0.9859(2)
O5 O 0.6276(4) 0.5713(3) 0.85216(19)
O6 O 0.6617(5) 0.1311(3) 0.60417(19)
O7 O 0.8514(4) 0.1358(3) 0.7200(3)
O8 O 0.5921(4) 0.0446(3) 0.7032(2)
O9 O 0.1717(4) 0.8353(3) 0.67412(19)
O10 O 0.2172(4) 0.9260(3) 0.81067(19)
O11 O 0.0348(3) 0.7446(3) 0.7528(2)
C1 C 0.3830(5) 0.2179(4) 0.3794(3)
H9 H 0.3793 0.1696 0.3326
C2 C 0.2957(5) 0.2952(4) 0.3774(3)
H10 H 0.2325 0.2969 0.3300
C3 C 0.3029(4) 0.3696(3) 0.4460(2)
C4 C 0.3974(5) 0.3632(4) 0.5145(3)
H11 H 0.4058 0.4124 0.5618
C5 C 0.4795(5) 0.2834(4) 0.5127(3)
H12 H 0.5426 0.2796 0.5594
C6 C 0.2140(5) 0.4583(3) 0.4499(3)
C7 C 0.8217(4) -0.0501(3) 0.5181(2)
H13 H 0.8200 -0.0054 0.5650
C8 C 0.9078(4) -0.1286(3) 0.5203(2)
H14 H 0.9639 -0.1354 0.5680
C9 C 0.9087(4) -0.1968(3) 0.4503(2)
C10 C 0.8251(6) -0.1813(4) 0.3810(3)
H15 H 0.8239 -0.2251 0.3331
C11 C 0.7436(6) -0.1007(4) 0.3835(3)
H16 H 0.6885 -0.0908 0.3366
C12 C 0.9941(5) -0.2871(4) 0.4457(3)
C13 C 0.1741(7) 0.5284(4) 0.9531(3)
H17 H 0.1933 0.5767 1.0022
C14 C 0.2130(6) 0.4268(4) 0.9484(3)
H18 H 0.2576 0.4075 0.9939
C15 C 0.1862(4) 0.3537(3) 0.8768(2)
C16 C 0.1213(5) 0.3877(4) 0.8109(3)
H19 H 0.1005 0.3410 0.7610
C17 C 0.0883(5) 0.4925(4) 0.8208(3)
H20 H 0.0487 0.5162 0.7764
C18 C 0.2306(5) 0.2422(3) 0.8713(2)
C19 C -0.1304(5) 0.8729(4) 0.9792(3)
H21 H -0.0948 0.8417 1.0207
C20 C -0.2061(5) 0.9557(4) 0.9919(3)
H22 H -0.2199 0.9803 1.0409
C21 C -0.2613(4) 1.0017(3) 0.9302(2)
C22 C -0.2372(6) 0.9613(4) 0.8589(3)
H23 H -0.2742 0.9891 0.8159
C23 C -0.1594(6) 0.8808(4) 0.8518(3)
H24 H -0.1424 0.8560 0.8037
C24 C -0.3361(5) 1.0962(4) 0.9435(2)
C25 C 0.6713(5) 0.2652(3) 0.7335(2)
C26 C 0.7317(5) 0.3650(4) 0.7150(3)
H25 H 0.7844 0.3640 0.6774
C27 C 0.7127(5) 0.4677(4) 0.7534(3)
H26 H 0.7536 0.5357 0.7419
C28 C 0.6351(5) 0.4684(4) 0.8073(3)
C29 C 0.5761(6) 0.3706(4) 0.8264(3)
H27 H 0.5253 0.3726 0.8647
C30 C 0.5927(6) 0.2679(4) 0.7882(3)
H28 H 0.5500 0.2004 0.7998
C31 C 0.3144(4) 0.7465(3) 0.7777(2)
C32 C 0.3401(5) 0.6656(4) 0.7219(3)
H29 H 0.2894 0.6528 0.6692
C33 C 0.4426(6) 0.6034(4) 0.7454(3)
H30 H 0.4595 0.5481 0.7085
C34 C 0.5179(5) 0.6242(3) 0.8226(3)
C35 C 0.4915(5) 0.7033(4) 0.8789(2)
H31 H 0.5424 0.7156 0.9315
C36 C 0.3880(5) 0.7639(4) 0.8559(2)
H32 H 0.3681 0.8165 0.8934
Ag2A Ag -0.02838(4) 1.28615(3) 1.10106(2)
O4A O 0.2657(5) 0.8106(3) 1.0141(2)
loop_
_geom_bond_atom_site_label_1
_geom_bond_atom_site_label_2
_geom_bond_site_symmetry_1
_geom_bond_site_symmetry_2
Ag1 N1 1_555 1_555
Ag2 N5 1_555 1_555
S1 O6 1_555 1_555
S2 O9 1_555 1_555
N1 C1 1_555 1_555
N2 Ag1 1_555 1_555
N3 H1 1_555 1_555
H2 N3 1_555 1_555
N4 H3 1_555 1_555
H4 N4 1_555 1_555
N5 C13 1_555 1_555
N6 Ag2 1_555 1_555
N7 H5 1_555 1_555
H6 N7 1_555 1_555
N8 H7 1_555 1_555
H8 N8 1_555 1_555
O1 C6 1_555 1_555
O2 C12 1_555 1_555
O3 C18 1_555 1_555
O4 C24 1_555 1_555
O5 C28 1_555 1_555
O6 Ag1 1_555 1_555
O7 S1 1_555 1_555
O8 S1 1_555 1_555
O10 S2 1_555 1_555
O11 Ag2 1_555 1_555
C1 H9 1_555 1_555
C2 C1 1_555 1_555
H10 C2 1_555 1_555
C3 C2 1_555 1_555
C4 C3 1_555 1_555
H11 C4 1_555 1_555
C5 N1 1_555 1_555
H12 C5 1_555 1_555
C6 N3 1_555 1_555
C7 N2 1_555 1_555
H13 C7 1_555 1_555
C8 C7 1_555 1_555
H14 C8 1_555 1_555
C9 C8 1_555 1_555
C10 C9 1_555 1_555
H15 C10 1_555 1_555
C11 N2 1_555 1_555
H16 C11 1_555 1_555
C12 N4 1_555 1_555
C13 H17 1_555 1_555
C14 C13 1_555 1_555
H18 C14 1_555 1_555
C15 C14 1_555 1_555
C16 C15 1_555 1_555
H19 C16 1_555 1_555
C17 N5 1_555 1_555
H20 C17 1_555 1_555
C18 N7 1_555 1_555
C19 N6 1_555 1_555
H21 C19 1_555 1_555
C20 C19 1_555 1_555
H22 C20 1_555 1_555
C21 C20 1_555 1_555
C22 C21 1_555 1_555
H23 C22 1_555 1_555
C23 N6 1_555 1_555
H24 C23 1_555 1_555
C24 N8 1_555 1_555
C25 S1 1_555 1_555
C26 C25 1_555 1_555
H25 C26 1_555 1_555
C27 C26 1_555 1_555
H26 C27 1_555 1_555
C28 C27 1_555 1_555
C29 C28 1_555 1_555
H27 C29 1_555 1_555
C30 C25 1_555 1_555
H28 C30 1_555 1_555
C31 S2 1_555 1_555
C32 C31 1_555 1_555
H29 C32 1_555 1_555
C33 C32 1_555 1_555
H30 C33 1_555 1_555
C34 O5 1_555 1_555
C35 C34 1_555 1_555
H31 C35 1_555 1_555
C36 C31 1_555 1_555
H32 C36 1_555 1_555
Ag2A O4 1_555 1_555
O4A Ag2 1_555 1_555
S2 O11 1_555 1_555
C3 C6 1_555 1_555
C4 C5 1_555 1_555
C9 C12 1_555 1_555
C10 C11 1_555 1_555
C15 C18 1_555 1_555
C16 C17 1_555 1_555
C21 C24 1_555 1_555
C22 C23 1_555 1_555
C29 C30 1_555 1_555
C33 C34 1_555 1_555
C35 C36 1_555 1_555

#END
