
#######################################################################
#
#                 Cambridge Crystallographic Data Centre
#                                CCDC 
#
#######################################################################
#
# If this CIF has been generated from an entry in the Cambridge 
# Structural Database, then it will include bibliographic, chemical, 
# crystal, experimental, refinement or atomic coordinate data resulting 
# from the CCDC's data processing and validation procedures.
#
#######################################################################

data_KIBVEX
_symmetry_cell_setting           triclinic
_symmetry_space_group_name_H-M   'P -1'
_symmetry_Int_Tables_number      2
_space_group_name_Hall           '-P 1'
loop_
_symmetry_equiv_pos_site_id
_symmetry_equiv_pos_as_xyz
1 x,y,z
2 -x,-y,-z
_cell_length_a                   8.281(4)
_cell_length_b                   10.145(5)
_cell_length_c                   12.334(7)
_cell_angle_alpha                78.948(9)
_cell_angle_beta                 80.966(10)
_cell_angle_gamma                82.189(9)
_cell_volume                     998.354
loop_
_atom_site_label
_atom_site_type_symbol
_atom_site_fract_x
_atom_site_fract_y
_atom_site_fract_z
Ag1 Ag 0.32532(3) 0.41575(2) 0.536428(17)
S1 S 0.61551(7) 0.24271(6) 0.34200(5)
O1 O 0.7188(3) -0.07557(19) 0.92242(19)
O2 O -0.1261(3) 0.8954(2) 0.17439(18)
O3 O 0.4783(2) 0.1668(2) 0.38537(18)
O4 O 0.6075(3) 0.36208(18) 0.39083(19)
O5 O 0.6415(3) 0.2729(2) 0.22125(16)
N1 N 0.4276(3) 0.2936(2) 0.67610(17)
N2 N 0.1862(3) 0.5311(2) 0.41114(17)
N3 N 0.7171(3) 0.0941(2) 1.0130(2)
H5 H 0.7696 0.0434 1.0632
H6 H 0.6885 0.1780 1.0165
N4 N -0.0704(4) 0.7405(3) 0.0631(2)
H7 H -0.1183 0.7917 0.0108
H8 H -0.0257 0.6609 0.0546
C1 C 0.4730(4) 0.3474(3) 0.7559(2)
H9 H 0.4494 0.4400 0.7539
C2 C 0.5527(3) 0.2726(2) 0.8406(2)
H10 H 0.5819 0.3140 0.8946
C3 C 0.5890(3) 0.1346(2) 0.84459(19)
C4 C 0.5401(3) 0.0785(3) 0.7636(2)
H11 H 0.5613 -0.0140 0.7643
C5 C 0.4599(3) 0.1602(3) 0.6818(2)
H12 H 0.4266 0.1207 0.6280
C6 C 0.6807(3) 0.0433(3) 0.9309(2)
C7 C 0.1559(4) 0.4805(3) 0.3252(2)
H13 H 0.1915 0.3902 0.3219
C8 C 0.0743(4) 0.5559(3) 0.2414(2)
H14 H 0.0553 0.5169 0.1829
C9 C 0.0207(3) 0.6900(2) 0.2447(2)
C10 C 0.0507(4) 0.7416(3) 0.3339(2)
H15 H 0.0149 0.8313 0.3398
C11 C 0.1331(4) 0.6609(3) 0.4138(2)
H16 H 0.1534 0.6980 0.4730
C12 C -0.0656(3) 0.7840(3) 0.1562(2)
C13 C 0.7943(3) 0.1422(2) 0.38554(19)
C14 C 0.7803(3) 0.0467(2) 0.47924(19)
H17 H 0.6769 0.0235 0.5126
C15 C 0.9222(3) -0.0178(2) 0.52634(19)
C16 C 0.9494(3) 0.1745(2) 0.3306(2)
H18 H 0.9576 0.2370 0.2647
C17 C 0.9124(3) -0.1143(2) 0.6260(2)
H19 H 0.8101 -0.1368 0.6622
Ag1A Ag 1.67468(3) -0.41575(2) 0.463572(17)
Ag1A_2 Ag 0.67468(3) 0.58425(2) 0.463572(17)
Ag1_2 Ag 1.32532(3) -0.58425(2) 0.536428(17)
S1A S 1.38449(7) -0.24271(6) 0.65800(5)
O1A O 1.2812(3) 0.07557(19) 0.07758(19)
O2A O 2.1261(3) -0.8954(2) 0.82561(18)
O3A O 1.5217(2) -0.1668(2) 0.61463(18)
O4A O 1.3925(3) -0.36208(18) 0.60917(19)
O4A_2 O 0.3925(3) 0.63792(18) 0.60917(19)
O4_2 O 1.6075(3) -0.63792(18) 0.39083(19)
O5A O 1.3585(3) -0.2729(2) 0.77875(16)
N1A N 1.5724(3) -0.2936(2) 0.32390(17)
N2A N 1.8138(3) -0.5311(2) 0.58886(17)
N3A N 1.2829(3) -0.0941(2) -0.0130(2)
H5A H 1.2304 -0.0434 -0.0632
H6A H 1.3115 -0.1780 -0.0165
N4A N 2.0704(4) -0.7405(3) 0.9369(2)
H7A H 2.1183 -0.7917 0.9892
H8A H 2.0257 -0.6609 0.9454
C1A C 1.5270(4) -0.3474(3) 0.2441(2)
H9A H 1.5506 -0.4400 0.2461
C2A C 1.4473(3) -0.2726(2) 0.1594(2)
H10A H 1.4181 -0.3140 0.1054
C3A C 1.4110(3) -0.1346(2) 0.15541(19)
C4A C 1.4599(3) -0.0785(3) 0.2364(2)
H11A H 1.4387 0.0140 0.2357
C5A C 1.5401(3) -0.1602(3) 0.3182(2)
H12A H 1.5734 -0.1207 0.3720
C6A C 1.3193(3) -0.0433(3) 0.0691(2)
C7A C 1.8441(4) -0.4805(3) 0.6748(2)
H13A H 1.8085 -0.3902 0.6781
C8A C 1.9257(4) -0.5559(3) 0.7586(2)
H14A H 1.9447 -0.5169 0.8171
C9A C 1.9793(3) -0.6900(2) 0.7553(2)
C10A C 1.9493(4) -0.7416(3) 0.6661(2)
H15A H 1.9851 -0.8313 0.6602
C11A C 1.8669(4) -0.6609(3) 0.5862(2)
H16A H 1.8466 -0.6980 0.5270
C12A C 2.0656(3) -0.7840(3) 0.8438(2)
C13A C 1.2057(3) -0.1422(2) 0.61446(19)
C14A C 1.2197(3) -0.0467(2) 0.52076(19)
H17A H 1.3231 -0.0235 0.4874
C15A C 1.0778(3) 0.0178(2) 0.47366(19)
C16A C 1.0506(3) -0.1745(2) 0.6694(2)
H18A H 1.0424 -0.2370 0.7353
C17A C 1.0876(3) 0.1143(2) 0.3740(2)
H19A H 1.1899 0.1368 0.3378
O6 O 0.6432(4) -0.3260(2) 0.8939(2)
H1 H 0.7043 -0.2639 0.8881
H2 H 0.5614 -0.3105 0.8580
O7 O 0.7801(4) 0.4362(3) 0.0250(3)
H3 H 0.7375 0.4038 0.0906
H4 H 0.7156 0.4922 -0.0123
loop_
_geom_bond_atom_site_label_1
_geom_bond_atom_site_label_2
_geom_bond_site_symmetry_1
_geom_bond_site_symmetry_2
Ag1 O4 1_555 1_555
S1 O3 1_555 1_555
O1 C6 1_555 1_555
O2 C12 1_555 1_555
O4 S1 1_555 1_555
O5 S1 1_555 1_555
O6 H1 1_555 1_555
H2 O6 1_555 1_555
O7 H3 1_555 1_555
H4 O7 1_555 1_555
N1 Ag1 1_555 1_555
N2 Ag1 1_555 1_555
N3 H5 1_555 1_555
H6 N3 1_555 1_555
N4 H7 1_555 1_555
H8 N4 1_555 1_555
C1 N1 1_555 1_555
H9 C1 1_555 1_555
C2 C1 1_555 1_555
H10 C2 1_555 1_555
C3 C2 1_555 1_555
C4 C3 1_555 1_555
H11 C4 1_555 1_555
C5 N1 1_555 1_555
H12 C5 1_555 1_555
C6 N3 1_555 1_555
C7 N2 1_555 1_555
H13 C7 1_555 1_555
C8 C7 1_555 1_555
H14 C8 1_555 1_555
C9 C8 1_555 1_555
C10 C9 1_555 1_555
H15 C10 1_555 1_555
C11 N2 1_555 1_555
H16 C11 1_555 1_555
C12 N4 1_555 1_555
C13 S1 1_555 1_555
C14 C13 1_555 1_555
H17 C14 1_555 1_555
C15 C14 1_555 1_555
C16 C13 1_555 1_555
H18 C16 1_555 1_555
C17 C15 1_555 1_555
H19 C17 1_555 1_555
Ag1A Ag1_2 1_555 1_555
Ag1A_2 Ag1 1_555 1_555
Ag1_2 O4A 1_555 1_555
S1A O3A 1_555 1_555
O1A C6A 1_555 1_555
O2A C12A 1_555 1_555
O4A Ag1A 1_555 1_555
O4A_2 Ag1 1_555 1_555
O4_2 Ag1A 1_555 1_555
O5A S1A 1_555 1_555
N1A Ag1A 1_555 1_555
N2A Ag1A 1_555 1_555
N3A H5A 1_555 1_555
H6A N3A 1_555 1_555
N4A H7A 1_555 1_555
H8A N4A 1_555 1_555
C1A N1A 1_555 1_555
H9A C1A 1_555 1_555
C2A C1A 1_555 1_555
H10A C2A 1_555 1_555
C3A C2A 1_555 1_555
C4A C3A 1_555 1_555
H11A C4A 1_555 1_555
C5A N1A 1_555 1_555
H12A C5A 1_555 1_555
C6A N3A 1_555 1_555
C7A N2A 1_555 1_555
H13A C7A 1_555 1_555
C8A C7A 1_555 1_555
H14A C8A 1_555 1_555
C9A C8A 1_555 1_555
C10A C9A 1_555 1_555
H15A C10A 1_555 1_555
C11A N2A 1_555 1_555
H16A C11A 1_555 1_555
C12A N4A 1_555 1_555
C13A S1A 1_555 1_555
C14A C13A 1_555 1_555
H17A C14A 1_555 1_555
C15A C15 1_555 1_555
C16A C17 1_555 1_555
H18A C16A 1_555 1_555
C17A C16 1_555 1_555
H19A C17A 1_555 1_555
O4 Ag1A_2 1_555 1_555
C3 C6 1_555 1_555
C4 C5 1_555 1_555
C9 C12 1_555 1_555
C10 C11 1_555 1_555
Ag1A_2 O4A_2 1_555 1_555
Ag1_2 O4_2 1_555 1_555
S1A O4A 1_555 1_555
C3A C6A 1_555 1_555
C4A C5A 1_555 1_555
C9A C12A 1_555 1_555
C10A C11A 1_555 1_555
C13A C16A 1_555 1_555
C14A C15A 1_555 1_555
C15A C17A 1_555 1_555

#END
