
#######################################################################
#
#                 Cambridge Crystallographic Data Centre
#                                CCDC 
#
#######################################################################
#
# If this CIF has been generated from an entry in the Cambridge 
# Structural Database, then it will include bibliographic, chemical, 
# crystal, experimental, refinement or atomic coordinate data resulting 
# from the CCDC's data processing and validation procedures.
#
#######################################################################

data_KIBXOJ
_symmetry_cell_setting           orthorhombic
_symmetry_space_group_name_H-M   'P b c a'
_symmetry_Int_Tables_number      61
_space_group_name_Hall           '-P 2ac 2ab'
loop_
_symmetry_equiv_pos_site_id
_symmetry_equiv_pos_as_xyz
1 x,y,z
2 1/2-x,-y,1/2+z
3 1/2+x,1/2-y,-z
4 -x,1/2+y,1/2-z
5 -x,-y,-z
6 1/2+x,y,1/2-z
7 1/2-x,1/2+y,z
8 x,1/2-y,1/2+z
_cell_length_a                   12.887(5)
_cell_length_b                   14.284(5)
_cell_length_c                   21.617(5)
_cell_angle_alpha                90
_cell_angle_beta                 90
_cell_angle_gamma                90
_cell_volume                     3979.21
loop_
_atom_site_label
_atom_site_type_symbol
_atom_site_fract_x
_atom_site_fract_y
_atom_site_fract_z
C1 C 0.2392(2) 0.2646(2) 0.20774(13)
H1 H 0.2658 0.2065 0.1967
C2 C 0.3017(2) 0.3250(2) 0.24085(14)
H2 H 0.3685 0.3074 0.2521
C3 C 0.2634(2) 0.41257(19) 0.25724(13)
H3 H 0.3044 0.4544 0.2794
C4 C 0.16253(19) 0.43689(17) 0.24003(11)
C5 C 0.10469(18) 0.37103(18) 0.20670(11)
H4 H 0.0375 0.3867 0.1950
C6 C 0.1161(2) 0.53057(17) 0.25603(12)
H5 H 0.0816 0.5561 0.2199
H6 H 0.1710 0.5734 0.2679
C7 C 0.11146(19) 0.48821(19) 0.38240(12)
H7 H 0.1352 0.4244 0.3767
H8 H 0.1715 0.5291 0.3819
C8 C 0.05578(18) 0.49694(17) 0.44366(12)
C9 C 0.07232(19) 0.57099(17) 0.48562(11)
C10 C -0.01652(19) 0.42826(17) 0.45905(12)
H9 H -0.0281 0.3798 0.4312
C11 C 0.1452(2) 0.65187(17) 0.47327(13)
H10 H 0.1977 0.6335 0.4434
H11 H 0.1798 0.6704 0.5112
C12 C 0.17150(19) 0.83371(18) 0.42544(12)
H12 H 0.2304 0.8012 0.4076
H13 H 0.1468 0.8792 0.3955
C13 C 0.20473(19) 0.88367(17) 0.48440(12)
C14 C 0.28356(19) 0.84868(17) 0.52216(12)
H14 H 0.3185 0.7952 0.5092
C15 C 0.15453(19) 0.96527(18) 0.50364(13)
H15 H 0.1023 0.9914 0.4795
C16 C 0.1832(2) 1.00701(19) 0.55899(13)
H16 H 0.1505 1.0613 0.5726
C17 C 0.2618(2) 0.96607(19) 0.59366(13)
H17 H 0.2806 0.9942 0.6308
N1 N 0.14139(16) 0.28609(15) 0.19071(10)
N2 N 0.31197(16) 0.88783(15) 0.57627(10)
S1 S 0.02245(5) 0.52049(4) 0.31966(3)
S2 S 0.06815(5) 0.74967(4) 0.44282(3)
Ag1 Ag 0.046328(15) 0.175107(14) 0.141490(9)
C1D C -0.2392(2) 0.7354(2) 0.79226(13)
H1D H -0.2658 0.7935 0.8033
C2D C -0.3017(2) 0.6750(2) 0.75915(14)
H2D H -0.3685 0.6926 0.7479
C3D C -0.2634(2) 0.58743(19) 0.74276(13)
H3D H -0.3044 0.5456 0.7206
C4D C -0.16253(19) 0.56311(17) 0.75997(11)
C5D C -0.10469(18) 0.62897(18) 0.79330(11)
H4D H -0.0375 0.6133 0.8050
C6D C -0.1161(2) 0.46943(17) 0.74397(12)
H5D H -0.0816 0.4439 0.7801
H6D H -0.1710 0.4266 0.7321
C7D C -0.11146(19) 0.51179(19) 0.61760(12)
H7D H -0.1352 0.5756 0.6233
H8D H -0.1715 0.4709 0.6181
C8D C -0.05578(18) 0.50306(17) 0.55634(12)
C9D C -0.07232(19) 0.42901(17) 0.51438(11)
C10D C 0.01652(19) 0.57174(17) 0.54095(12)
H9D H 0.0281 0.6202 0.5688
C11D C -0.1452(2) 0.34813(17) 0.52673(13)
H10D H -0.1977 0.3665 0.5566
H11D H -0.1798 0.3296 0.4888
C12D C -0.17150(19) 0.16629(18) 0.57456(12)
H12D H -0.2304 0.1988 0.5924
H13D H -0.1468 0.1208 0.6045
C13D C -0.20473(19) 0.11633(17) 0.51560(12)
C14D C -0.28356(19) 0.15132(17) 0.47784(12)
H14D H -0.3185 0.2048 0.4908
C15D C -0.15453(19) 0.03473(18) 0.49636(13)
H15D H -0.1023 0.0086 0.5205
C16D C -0.1832(2) -0.00701(19) 0.44101(13)
H16D H -0.1505 -0.0613 0.4274
C17D C -0.2618(2) 0.03393(19) 0.40634(13)
H17D H -0.2806 0.0058 0.3692
N1D N -0.14139(16) 0.71391(15) 0.80929(10)
N2D N -0.31197(16) 0.11217(15) 0.42373(10)
N2A N 0.18803(16) 0.11217(15) 0.07627(10)
N2E N -0.18803(16) 0.88783(15) 0.92373(10)
S1D S -0.02245(5) 0.47951(4) 0.68034(3)
S1C S -0.02245(5) 0.02049(4) 0.18034(3)
S1G S 0.02245(5) 0.97951(4) 0.81966(3)
S2D S -0.06815(5) 0.25033(4) 0.55718(3)
S2C S -0.06815(5) 0.24967(4) 0.05718(3)
S2G S 0.06815(5) 0.75033(4) 0.94282(3)
Ag1D Ag -0.046328(15) 0.824893(14) 0.858510(9)
Ag1A Ag 0.453672(15) 0.824893(14) 0.641490(9)
Ag1C Ag -0.046328(15) 0.675107(14) 0.358510(9)
Ag1G Ag 0.046328(15) 0.324893(14) 0.641490(9)
Ag1E Ag -0.453672(15) 0.175107(14) 0.358510(9)
C18 C 0.6112(2) 0.3963(2) -0.35260(13)
O1 O 0.70350(18) 0.3725(2) -0.34412(13)
O2 O 0.56864(18) 0.47412(15) -0.35041(11)
C19 C 0.5414(2) 0.3128(2) -0.36826(15)
F1 F 0.4408(4) 0.3327(4) -0.37765(19)
F2 F 0.5470(3) 0.2414(3) -0.3308(3)
F3 F 0.5728(3) 0.2792(4) -0.4250(2)
F4? F 0.5106(13) 0.2902(13) -0.2995(8)
F5? F 0.5833(10) 0.2376(11) -0.3760(16)
F6? F 0.456(2) 0.314(3) -0.3759(19)
loop_
_geom_bond_atom_site_label_1
_geom_bond_atom_site_label_2
_geom_bond_site_symmetry_1
_geom_bond_site_symmetry_2
C1 H1 1_555 1_555
C2 C1 1_555 1_555
H2 C2 1_555 1_555
C3 C2 1_555 1_555
H3 C3 1_555 1_555
C4 C3 1_555 1_555
C5 C4 1_555 1_555
H4 C5 1_555 1_555
C6 C4 1_555 1_555
H5 C6 1_555 1_555
H6 C6 1_555 1_555
C7 H7 1_555 1_555
H8 C7 1_555 1_555
C8 C7 1_555 1_555
C9 C8 1_555 1_555
C10 C8 1_555 1_555
H9 C10 1_555 1_555
C11 C9 1_555 1_555
H10 C11 1_555 1_555
H11 C11 1_555 1_555
C12 H12 1_555 1_555
H13 C12 1_555 1_555
C13 C12 1_555 1_555
C14 C13 1_555 1_555
H14 C14 1_555 1_555
C15 C13 1_555 1_555
H15 C15 1_555 1_555
C16 C15 1_555 1_555
H16 C16 1_555 1_555
C17 C16 1_555 1_555
H17 C17 1_555 1_555
C18 O1 1_555 1_555
N1 C1 1_555 1_555
N2 C14 1_555 1_555
O2 C18 1_555 1_555
S1 C6 1_555 1_555
S2 C11 1_555 1_555
Ag1 N1 1_555 1_555
C19 C18 1_555 1_555
F1 C19 1_555 1_555
F2 C19 1_555 1_555
F3 C19 1_555 1_555
C1D H1D 1_555 1_555
C2D C1D 1_555 1_555
H2D C2D 1_555 1_555
C3D C2D 1_555 1_555
H3D C3D 1_555 1_555
C4D C3D 1_555 1_555
C5D C4D 1_555 1_555
H4D C5D 1_555 1_555
C6D C4D 1_555 1_555
H5D C6D 1_555 1_555
H6D C6D 1_555 1_555
C7D H7D 1_555 1_555
H8D C7D 1_555 1_555
C8D C7D 1_555 1_555
C9D C10 1_555 1_555
C10D C9 1_555 1_555
H9D C10D 1_555 1_555
C11D C9D 1_555 1_555
H10D C11D 1_555 1_555
H11D C11D 1_555 1_555
C12D H12D 1_555 1_555
H13D C12D 1_555 1_555
C13D C12D 1_555 1_555
C14D C13D 1_555 1_555
H14D C14D 1_555 1_555
C15D C13D 1_555 1_555
H15D C15D 1_555 1_555
C16D C15D 1_555 1_555
H16D C16D 1_555 1_555
C17D C16D 1_555 1_555
H17D C17D 1_555 1_555
N1D C1D 1_555 1_555
N2D C14D 1_555 1_555
N2A Ag1 1_555 1_555
N2E Ag1D 1_555 1_555
S1D C6D 1_555 1_555
S1C Ag1 1_555 1_555
S1G Ag1D 1_555 1_555
S2D C11D 1_555 1_555
S2C Ag1 1_555 1_555
S2G Ag1D 1_555 1_555
Ag1D N1D 1_555 1_555
Ag1A N2 1_555 1_555
Ag1C S1 1_555 1_555
Ag1G S1D 1_555 1_555
Ag1E N2D 1_555 1_555
C5 N1 1_555 1_555
C7 S1 1_555 1_555
C12 S2 1_555 1_555
C17 N2 1_555 1_555
S2 Ag1C 1_555 1_555
C5D N1D 1_555 1_555
C7D S1D 1_555 1_555
C8D C9D 1_555 1_555
C8D C10D 1_555 1_555
C12D S2D 1_555 1_555
C17D N2D 1_555 1_555
S2D Ag1G 1_555 1_555

#END
