
#######################################################################
#
#                 Cambridge Crystallographic Data Centre
#                                CCDC 
#
#######################################################################
#
# If this CIF has been generated from an entry in the Cambridge 
# Structural Database, then it will include bibliographic, chemical, 
# crystal, experimental, refinement or atomic coordinate data resulting 
# from the CCDC's data processing and validation procedures.
#
#######################################################################

data_KIBYAW
_symmetry_cell_setting           monoclinic
_symmetry_space_group_name_H-M   'P 21/c'
_symmetry_Int_Tables_number      14
_space_group_name_Hall           '-P 2ybc'
loop_
_symmetry_equiv_pos_site_id
_symmetry_equiv_pos_as_xyz
1 x,y,z
2 -x,1/2+y,1/2-z
3 -x,-y,-z
4 x,1/2-y,1/2+z
_cell_length_a                   14.044(3)
_cell_length_b                   16.321(3)
_cell_length_c                   13.627(3)
_cell_angle_alpha                90
_cell_angle_beta                 115.186(2)
_cell_angle_gamma                90
_cell_volume                     2826.53
loop_
_atom_site_label
_atom_site_type_symbol
_atom_site_fract_x
_atom_site_fract_y
_atom_site_fract_z
C1 C 0.4330(3) -0.0472(2) 0.7785(3)
H1 H 0.4284 -0.0019 0.8177
C2 C 0.5100(3) -0.1051(2) 0.8315(3)
H2 H 0.5549 -0.0987 0.9046
C3 C 0.5195(2) -0.1724(2) 0.7749(3)
C4 C 0.4474(3) -0.1793(2) 0.6672(3)
H3 H 0.4496 -0.2242 0.6263
C5 C 0.3725(3) -0.1191(2) 0.6211(3)
H4 H 0.3246 -0.1252 0.5490
C6 C 0.6082(3) -0.2329(2) 0.8270(3)
H5 H 0.6503 -0.2160 0.9013
H6 H 0.6530 -0.2308 0.7891
C7 C 0.5184(2) -0.33338(18) 0.9326(3)
H7 H 0.5658 -0.3007 0.9932
H8 H 0.4495 -0.3078 0.9037
C8 C 0.5116(2) -0.41929(18) 0.9702(3)
C9 C 0.5861(2) -0.45182(17) 1.0682(2)
C10 C 0.4279(2) -0.46843(18) 0.9041(2)
H9 H 0.3792 -0.4471 0.8387
C11 C 0.6802(2) -0.40400(19) 1.1455(3)
H10 H 0.6994 -0.4239 1.2185
H11 H 0.6603 -0.3469 1.1434
C12 C 0.8464(2) -0.5113(2) 1.1720(3)
H12 H 0.8637 -0.5126 1.2489
H13 H 0.7938 -0.5531 1.1361
C13 C 0.9438(2) -0.52728(19) 1.1539(3)
C14 C 1.0351(3) -0.4823(2) 1.2085(3)
H14 H 1.0373 -0.4419 1.2576
C15 C 0.9448(2) -0.58600(19) 1.0808(3)
H15 H 0.8852 -0.6172 1.0419
C16 C 1.0356(3) -0.5976(2) 1.0666(3)
H16 H 1.0351 -0.6370 1.0170
C17 C 1.1224(3) -0.4977(2) 1.1897(3)
H17 H 1.1828 -0.4668 1.2269
N1 N 0.3649(2) -0.05267(17) 0.6741(2)
N2 N 1.1243(2) -0.55507(16) 1.1205(2)
S1 S 0.56685(6) -0.33815(5) 0.82757(7)
S2 S 0.79560(6) -0.41059(5) 1.11605(6)
Ag1 Ag 0.271027(19) 0.069277(16) 0.59012(2)
C1B C 0.5670(3) -0.9528(2) 1.2215(3)
H1B H 0.5716 -0.9981 1.1823
C2B C 0.4900(3) -0.8949(2) 1.1685(3)
H2B H 0.4451 -0.9013 1.0954
C3B C 0.4805(2) -0.8276(2) 1.2251(3)
C4B C 0.5526(3) -0.8207(2) 1.3328(3)
H3B H 0.5504 -0.7758 1.3737
C5B C 0.6275(3) -0.8809(2) 1.3789(3)
H4B H 0.6754 -0.8748 1.4510
C6B C 0.3918(3) -0.7671(2) 1.1730(3)
H5B H 0.3497 -0.7840 1.0987
H6B H 0.3470 -0.7692 1.2109
C7B C 0.4816(2) -0.66662(18) 1.0674(3)
H7B H 0.4342 -0.6993 1.0068
H8B H 0.5505 -0.6922 1.0963
C8B C 0.4884(2) -0.58071(18) 1.0298(3)
C9B C 0.4139(2) -0.54818(17) 0.9318(2)
C10B C 0.5721(2) -0.53157(18) 1.0959(2)
H9B H 0.6208 -0.5529 1.1613
C11B C 0.3198(2) -0.59600(19) 0.8545(3)
H10B H 0.3006 -0.5761 0.7815
H11B H 0.3397 -0.6531 0.8566
C12B C 0.1536(2) -0.4887(2) 0.8280(3)
H12B H 0.1363 -0.4874 0.7511
H13B H 0.2062 -0.4469 0.8639
C13B C 0.0562(2) -0.47272(19) 0.8461(3)
C14B C -0.0351(3) -0.5177(2) 0.7915(3)
H14B H -0.0373 -0.5581 0.7424
C15B C 0.0552(2) -0.41400(19) 0.9192(3)
H15B H 0.1148 -0.3828 0.9581
C16B C -0.0356(3) -0.4024(2) 0.9334(3)
H16B H -0.0351 -0.3630 0.9830
C17B C -0.1224(3) -0.5023(2) 0.8103(3)
H17B H -0.1828 -0.5332 0.7731
N1B N 0.6351(2) -0.94733(17) 1.3259(2)
N2B N -0.1243(2) -0.44493(16) 0.8795(2)
N2C N 0.1243(2) 0.05507(16) 0.6205(2)
N2A N 0.8757(2) -1.05507(16) 1.3795(2)
S1B S 0.43315(6) -0.66185(5) 1.17243(7)
S1A S 0.43315(6) 0.16185(5) 0.67243(7)
S1C S 0.56685(6) -1.16185(5) 1.32757(7)
S2B S 0.20440(6) -0.58941(5) 0.88395(6)
S2A S 0.20440(6) 0.08941(5) 0.38395(6)
S2C S 0.79560(6) -1.08941(5) 1.61605(6)
Ag1B Ag 0.728973(19) -1.069277(16) 1.40988(2)
Ag1C Ag 1.271027(19) -0.569277(16) 1.09012(2)
Ag1A Ag 0.728973(19) -0.430723(16) 0.90988(2)
Ag1C_2 Ag 0.271027(19) -0.569277(16) 1.09012(2)
Ag1A_2 Ag -0.271027(19) -0.430723(16) 0.90988(2)
C18 C 0.2651(5) -0.0374(4) 0.0531(6)
C19 C 0.3301(6) -0.1051(5) 0.0451(6)
H18 H 0.3781 -0.1222 0.1166
H19 H 0.3691 -0.0872 0.0059
H20 H 0.2856 -0.1502 0.0077
N3 N 0.2197(6) 0.0114(4) 0.0610(7)
C20 C -0.0771(4) -0.3201(4) 0.4100(4)
C21 C 0.0130(5) -0.3701(5) 0.4629(5)
H21 H 0.0430 -0.3595 0.5395
H22 H 0.0638 -0.3580 0.4352
H23 H -0.0070 -0.4267 0.4499
N4 N -0.1476(4) -0.2816(4) 0.3690(5)
C22 C -0.2581(4) -0.1667(3) 0.1346(3)
C23 C -0.1513(4) -0.1783(3) 0.1461(4)
H24 H -0.1526 -0.2101 0.0862
H25 H -0.1109 -0.2067 0.2127
H26 H -0.1198 -0.1260 0.1470
N5 N -0.3414(4) -0.1584(4) 0.1246(4)
F1 F 0.2542(3) -0.1891(3) 0.2222(3)
F2 F 0.1280(4) -0.3060(3) 0.3054(4)
F3 F 0.1372(3) -0.2888(2) 0.1456(3)
F4 F 0.0993(3) -0.1810(2) 0.2238(3)
F5 F 0.2805(3) -0.3130(2) 0.2985(3)
F6 F 0.2433(2) -0.20674(17) 0.3787(2)
P1 P 0.18886(8) -0.24822(6) 0.26109(9)
loop_
_geom_bond_atom_site_label_1
_geom_bond_atom_site_label_2
_geom_bond_site_symmetry_1
_geom_bond_site_symmetry_2
C1 H1 1_555 1_555
C2 C1 1_555 1_555
H2 C2 1_555 1_555
C3 C2 1_555 1_555
C4 C3 1_555 1_555
H3 C4 1_555 1_555
C5 C4 1_555 1_555
H4 C5 1_555 1_555
C6 C3 1_555 1_555
H5 C6 1_555 1_555
H6 C6 1_555 1_555
C7 H7 1_555 1_555
H8 C7 1_555 1_555
C8 C7 1_555 1_555
C9 C8 1_555 1_555
C10 C8 1_555 1_555
H9 C10 1_555 1_555
C11 C9 1_555 1_555
H10 C11 1_555 1_555
H11 C11 1_555 1_555
C12 H12 1_555 1_555
H13 C12 1_555 1_555
C13 C12 1_555 1_555
C14 C13 1_555 1_555
H14 C14 1_555 1_555
C15 C13 1_555 1_555
H15 C15 1_555 1_555
C16 C15 1_555 1_555
H16 C16 1_555 1_555
C17 C14 1_555 1_555
H17 C17 1_555 1_555
C18 C19 1_555 1_555
C19 H18 1_555 1_555
H19 C19 1_555 1_555
H20 C19 1_555 1_555
C20 C21 1_555 1_555
C21 H21 1_555 1_555
H22 C21 1_555 1_555
H23 C21 1_555 1_555
C22 C23 1_555 1_555
C23 H24 1_555 1_555
H25 C23 1_555 1_555
H26 C23 1_555 1_555
N1 C1 1_555 1_555
N2 C16 1_555 1_555
N3 C18 1_555 1_555
N4 C20 1_555 1_555
N5 C22 1_555 1_555
F1 P1 1_555 1_555
F2 P1 1_555 1_555
F3 P1 1_555 1_555
F4 P1 1_555 1_555
F5 P1 1_555 1_555
F6 P1 1_555 1_555
S1 C6 1_555 1_555
S2 C11 1_555 1_555
Ag1 N1 1_555 1_555
C1B H1B 1_555 1_555
C2B C1B 1_555 1_555
H2B C2B 1_555 1_555
C3B C2B 1_555 1_555
C4B C3B 1_555 1_555
H3B C4B 1_555 1_555
C5B C4B 1_555 1_555
H4B C5B 1_555 1_555
C6B C3B 1_555 1_555
H5B C6B 1_555 1_555
H6B C6B 1_555 1_555
C7B H7B 1_555 1_555
H8B C7B 1_555 1_555
C8B C7B 1_555 1_555
C9B C10 1_555 1_555
C10B C9 1_555 1_555
H9B C10B 1_555 1_555
C11B C9B 1_555 1_555
H10B C11B 1_555 1_555
H11B C11B 1_555 1_555
C12B H12B 1_555 1_555
H13B C12B 1_555 1_555
C13B C12B 1_555 1_555
C14B C13B 1_555 1_555
H14B C14B 1_555 1_555
C15B C13B 1_555 1_555
H15B C15B 1_555 1_555
C16B C15B 1_555 1_555
H16B C16B 1_555 1_555
C17B C14B 1_555 1_555
H17B C17B 1_555 1_555
N1B C1B 1_555 1_555
N2B C16B 1_555 1_555
N2C Ag1 1_555 1_555
N2A Ag1B 1_555 1_555
S1B C6B 1_555 1_555
S1A Ag1 1_555 1_555
S1C Ag1B 1_555 1_555
S2B C11B 1_555 1_555
S2A Ag1 1_555 1_555
S2C Ag1B 1_555 1_555
Ag1B N1B 1_555 1_555
Ag1C N2 1_555 1_555
Ag1A S1 1_555 1_555
Ag1C_2 S1B 1_555 1_555
Ag1A_2 N2B 1_555 1_555
C5 N1 1_555 1_555
C7 S1 1_555 1_555
C12 S2 1_555 1_555
C17 N2 1_555 1_555
S2 Ag1A 1_555 1_555
C5B N1B 1_555 1_555
C7B S1B 1_555 1_555
C8B C9B 1_555 1_555
C8B C10B 1_555 1_555
C12B S2B 1_555 1_555
C17B N2B 1_555 1_555
S2B Ag1C_2 1_555 1_555

#END
