
#######################################################################
#
#                 Cambridge Crystallographic Data Centre
#                                CCDC 
#
#######################################################################
#
# If this CIF has been generated from an entry in the Cambridge 
# Structural Database, then it will include bibliographic, chemical, 
# crystal, experimental, refinement or atomic coordinate data resulting 
# from the CCDC's data processing and validation procedures.
#
#######################################################################

data_KICHAH
_symmetry_cell_setting           orthorhombic
_symmetry_space_group_name_H-M   'P b c a'
_symmetry_Int_Tables_number      61
_space_group_name_Hall           '-P 2ac 2ab'
loop_
_symmetry_equiv_pos_site_id
_symmetry_equiv_pos_as_xyz
1 x,y,z
2 1/2-x,-y,1/2+z
3 1/2+x,1/2-y,-z
4 -x,1/2+y,1/2-z
5 -x,-y,-z
6 1/2+x,y,1/2-z
7 1/2-x,1/2+y,z
8 x,1/2-y,1/2+z
_cell_length_a                   11.6590(4)
_cell_length_b                   12.0484(3)
_cell_length_c                   28.1225(7)
_cell_angle_alpha                90
_cell_angle_beta                 90
_cell_angle_gamma                90
_cell_volume                     3950.43
loop_
_atom_site_label
_atom_site_type_symbol
_atom_site_fract_x
_atom_site_fract_y
_atom_site_fract_z
Cu1 Cu 0.21461(5) 0.10089(4) 0.41657(2)
Cu2 Cu -0.03662(7) -0.01700(5) 0.40779(2)
S1 S 0.16060(9) -0.04317(8) 0.36165(4)
S2 S 0.01838(10) 0.16487(8) 0.43944(4)
S3 S -0.27059(12) -0.00109(11) 0.27260(5)
N1 N 0.2229(3) -0.2578(3) 0.39192(13)
N2 N 0.0301(4) 0.1113(3) 0.53661(14)
N3 N -0.1531(4) -0.0136(3) 0.35864(15)
N4 N 0.2892(3) 0.0375(3) 0.47606(12)
N5 N 0.5211(3) -0.1809(3) 0.68899(11)
C1 C 0.1986(3) -0.1689(3) 0.38049(14)
C2 C 0.0257(4) 0.1339(3) 0.49690(16)
C3 C -0.2011(4) -0.0079(3) 0.32301(17)
C4 C 0.2703(4) -0.0670(4) 0.49024(16)
H1 H 0.2258 -0.1125 0.4710
C5 C 0.3134(4) -0.1109(3) 0.53188(16)
H2 H 0.2984 -0.1845 0.5397
C6 C 0.3784(3) -0.0463(3) 0.56186(14)
C7 C 0.3961(4) 0.0618(3) 0.54761(18)
H3 H 0.4383 0.1096 0.5668
C8 C 0.3521(4) 0.0995(3) 0.50523(17)
H4 H 0.3671 0.1726 0.4965
C9 C 0.5560(4) -0.0815(3) 0.67326(15)
H5 H 0.6119 -0.0430 0.6901
C10 C 0.5111(4) -0.0356(3) 0.63284(15)
H6 H 0.5370 0.0333 0.6225
C11 C 0.4265(3) -0.0918(3) 0.60698(13)
C12 C 0.3914(4) -0.1938(3) 0.62457(15)
H7 H 0.3349 -0.2337 0.6086
C13 C 0.4388(4) -0.2363(3) 0.66505(15)
H8 H 0.4140 -0.3047 0.6763
C14 C 0.5755(4) -0.2317(4) 0.73190(14)
H9 H 0.6543 -0.2064 0.7340
H10 H 0.5769 -0.3117 0.7280
C15 C 0.5143(4) -0.2040(4) 0.77827(15)
H11 H 0.5107 -0.1230 0.7810
C16 C 0.5883(5) -0.2475(4) 0.81889(15)
H12 H 0.5962 -0.3265 0.8161
H13 H 0.5525 -0.2299 0.8487
H14 H 0.6626 -0.2134 0.8175
C17 C 0.3932(4) -0.2481(6) 0.7809(2)
H15 H 0.3467 -0.2115 0.7574
H16 H 0.3623 -0.2342 0.8120
H17 H 0.3936 -0.3265 0.7749
Cu1F Cu 0.28539(5) -0.39911(4) 0.41657(2)
Cu2D Cu 0.03662(7) 0.01700(5) 0.59221(2)
N1F N 0.2771(3) 0.2422(3) 0.39192(13)
N2D N -0.0301(4) -0.1113(3) 0.46339(14)
loop_
_geom_bond_atom_site_label_1
_geom_bond_atom_site_label_2
_geom_bond_site_symmetry_1
_geom_bond_site_symmetry_2
Cu1 S1 1_555 1_555
Cu2 S1 1_555 1_555
S1 C1 1_555 1_555
S2 Cu1 1_555 1_555
S3 C3 1_555 1_555
N1 C1 1_555 1_555
N2 C2 1_555 1_555
N3 Cu2 1_555 1_555
N4 Cu1 1_555 1_555
N5 C9 1_555 1_555
C2 S2 1_555 1_555
C3 N3 1_555 1_555
C4 N4 1_555 1_555
H1 C4 1_555 1_555
C5 C4 1_555 1_555
H2 C5 1_555 1_555
C6 C5 1_555 1_555
C7 C6 1_555 1_555
H3 C7 1_555 1_555
C8 N4 1_555 1_555
H4 C8 1_555 1_555
C9 H5 1_555 1_555
C10 C9 1_555 1_555
H6 C10 1_555 1_555
C11 C6 1_555 1_555
C12 C11 1_555 1_555
H7 C12 1_555 1_555
C13 N5 1_555 1_555
H8 C13 1_555 1_555
C14 N5 1_555 1_555
H9 C14 1_555 1_555
H10 C14 1_555 1_555
C15 C14 1_555 1_555
H11 C15 1_555 1_555
C16 C15 1_555 1_555
H12 C16 1_555 1_555
H13 C16 1_555 1_555
H14 C16 1_555 1_555
C17 C15 1_555 1_555
H15 C17 1_555 1_555
H16 C17 1_555 1_555
H17 C17 1_555 1_555
Cu1F N1 1_555 1_555
Cu2D N2 1_555 1_555
N1F Cu1 1_555 1_555
N2D Cu2 1_555 1_555
Cu2 S2 1_555 1_555
C7 C8 1_555 1_555
C10 C11 1_555 1_555
C12 C13 1_555 1_555

#END
