
#######################################################################
#
#                 Cambridge Crystallographic Data Centre
#                                CCDC 
#
#######################################################################
#
# If this CIF has been generated from an entry in the Cambridge 
# Structural Database, then it will include bibliographic, chemical, 
# crystal, experimental, refinement or atomic coordinate data resulting 
# from the CCDC's data processing and validation procedures.
#
#######################################################################

data_KICKUE
_symmetry_cell_setting           monoclinic
_symmetry_space_group_name_H-M   'P 21'
_symmetry_Int_Tables_number      4
_space_group_name_Hall           'P 2yb'
loop_
_symmetry_equiv_pos_site_id
_symmetry_equiv_pos_as_xyz
1 x,y,z
2 -x,1/2+y,-z
_cell_length_a                   10.3393(12)
_cell_length_b                   7.2348(6)
_cell_length_c                   14.4078(15)
_cell_angle_alpha                90
_cell_angle_beta                 100.337(13)
_cell_angle_gamma                90
_cell_volume                     1060.25
loop_
_atom_site_label
_atom_site_type_symbol
_atom_site_fract_x
_atom_site_fract_y
_atom_site_fract_z
Eu1 Eu 0.41901(4) 0.52206(11) 0.46970(3)
O1 O 0.5293(7) 0.7158(11) 0.5936(4)
O2 O 0.5723(7) 0.3534(10) 0.5734(5)
O3 O 0.6646(7) 0.1866(10) 0.6928(4)
O4 O 0.3753(6) 0.0573(8) 0.5899(4)
O5 O 0.3045(7) 0.3492(10) 0.5749(5)
O6 O 0.1154(7) 0.4595(10) 0.6563(5)
H1 H 0.1709 0.4674 0.6224
O7 O 0.2085(6) 0.4194(10) 0.3758(5)
O8 O 0.2519(7) 0.7176(10) 0.5351(5)
C1 C 0.6175(10) 0.3409(15) 0.6602(7)
C2 C 0.6098(8) 0.502(2) 0.7231(6)
C3 C 0.6501(9) 0.4759(14) 0.8186(6)
H2 H 0.6813 0.3600 0.8397
C4 C 0.6463(10) 0.6173(15) 0.8859(7)
C5 C 0.5961(9) 0.7931(14) 0.8506(7)
C6 C 0.5567(9) 0.8195(14) 0.7523(6)
H3 H 0.5249 0.9344 0.7298
C7 C 0.5646(10) 0.6753(15) 0.6877(7)
C8 C 0.6861(10) 0.5940(16) 0.9833(7)
H4 H 0.7176 0.4799 1.0070
C9 C 0.6792(10) 0.7369(14) 1.0437(7)
H5 H 0.7085 0.7208 1.1081
C10 C 0.5889(9) 0.9361(15) 0.9148(7)
H6 H 0.5571 1.0513 0.8928
C11 C 0.6279(9) 0.9087(15) 1.0092(7)
H7 H 0.6205 1.0042 1.0511
C12 C 0.3050(8) 0.1883(13) 0.6092(6)
C13 C 0.2134(8) 0.1514(14) 0.6767(7)
C14 C 0.2175(9) -0.0134(19) 0.7219(6)
H8 H 0.2791 -0.1007 0.7110
C15 C 0.1320(10) -0.0579(14) 0.7846(6)
C16 C 0.0381(10) 0.0745(14) 0.8002(7)
C17 C 0.0365(10) 0.2479(17) 0.7555(7)
H9 H -0.0243 0.3363 0.7665
C18 C 0.1217(10) 0.2895(15) 0.6966(7)
C19 C -0.0508(9) 0.029(3) 0.8620(7)
H10 H -0.1140 0.1144 0.8723
C20 C -0.0441(12) -0.137(2) 0.9059(8)
H11 H -0.1012 -0.1632 0.9472
C21 C 0.0495(11) -0.2725(19) 0.8896(8)
H12 H 0.0518 -0.3866 0.9196
C22 C 0.1351(11) -0.2365(17) 0.8307(7)
H13 H 0.1954 -0.3259 0.8200
C23 C 0.1293(11) 0.7765(18) 0.4822(8)
H14 H 0.0840 0.8506 0.5215
H15 H 0.0768 0.6704 0.4603
H16 H 0.1443 0.8483 0.4291
C24 C 0.1414(11) 0.2422(17) 0.3669(9)
H17 H 0.0481 0.2619 0.3561
H18 H 0.1671 0.1724 0.4239
H19 H 0.1646 0.1750 0.3148
Eu1A Eu 0.58099(4) 0.02206(11) 0.53030(3)
Eu1A_2 Eu 0.58099(4) 1.02206(11) 0.53030(3)
O1A O 0.4707(7) 0.2158(11) 0.4064(4)
O2A O 0.4277(7) 0.8534(10) 0.4266(5)
O3A O 0.3354(7) 0.6866(10) 0.3072(4)
O4A O 0.6247(6) 0.5573(8) 0.4101(4)
loop_
_geom_bond_atom_site_label_1
_geom_bond_atom_site_label_2
_geom_bond_site_symmetry_1
_geom_bond_site_symmetry_2
Eu1 O1 1_555 1_555
O1 C7 1_555 1_555
O2 Eu1 1_555 1_555
O3 C1 1_555 1_555
O4 C12 1_555 1_555
O5 Eu1 1_555 1_555
O6 H1 1_555 1_555
O7 Eu1 1_555 1_555
O8 Eu1 1_555 1_555
C1 O2 1_555 1_555
C2 C1 1_555 1_555
C3 C2 1_555 1_555
H2 C3 1_555 1_555
C4 C3 1_555 1_555
C5 C4 1_555 1_555
C6 C5 1_555 1_555
H3 C6 1_555 1_555
C7 C2 1_555 1_555
C8 C4 1_555 1_555
H4 C8 1_555 1_555
C9 C8 1_555 1_555
H5 C9 1_555 1_555
C10 C5 1_555 1_555
H6 C10 1_555 1_555
C11 C9 1_555 1_555
H7 C11 1_555 1_555
C12 O5 1_555 1_555
C13 C12 1_555 1_555
C14 C13 1_555 1_555
H8 C14 1_555 1_555
C15 C14 1_555 1_555
C16 C15 1_555 1_555
C17 C16 1_555 1_555
H9 C17 1_555 1_555
C18 O6 1_555 1_555
C19 C16 1_555 1_555
H10 C19 1_555 1_555
C20 C19 1_555 1_555
H11 C20 1_555 1_555
C21 C20 1_555 1_555
H12 C21 1_555 1_555
C22 C15 1_555 1_555
H13 C22 1_555 1_555
C23 O8 1_555 1_555
H14 C23 1_555 1_555
H15 C23 1_555 1_555
H16 C23 1_555 1_555
C24 O7 1_555 1_555
H17 C24 1_555 1_555
H18 C24 1_555 1_555
H19 C24 1_555 1_555
Eu1A O2 1_555 1_555
Eu1A_2 O1 1_555 1_555
O1A Eu1 1_555 1_555
O2A Eu1 1_555 1_555
O3A Eu1 1_555 1_555
O4A Eu1 1_555 1_555
O3 Eu1A 1_555 1_555
O4 Eu1A 1_555 1_555
C6 C7 1_555 1_555
C10 C11 1_555 1_555
C13 C18 1_555 1_555
C17 C18 1_555 1_555
C21 C22 1_555 1_555
Eu1A O1A 1_555 1_555
Eu1A_2 O2A 1_555 1_555

#END
