
#######################################################################
#
#                 Cambridge Crystallographic Data Centre
#                                CCDC 
#
#######################################################################
#
# If this CIF has been generated from an entry in the Cambridge 
# Structural Database, then it will include bibliographic, chemical, 
# crystal, experimental, refinement or atomic coordinate data resulting 
# from the CCDC's data processing and validation procedures.
#
#######################################################################

data_KICLAL
_symmetry_cell_setting           monoclinic
_symmetry_space_group_name_H-M   'P 21/c'
_symmetry_Int_Tables_number      14
_space_group_name_Hall           '-P 2ybc'
loop_
_symmetry_equiv_pos_site_id
_symmetry_equiv_pos_as_xyz
1 x,y,z
2 -x,1/2+y,1/2-z
3 -x,-y,-z
4 x,1/2-y,1/2+z
_cell_length_a                   16.6988(8)
_cell_length_b                   8.6735(4)
_cell_length_c                   10.8705(5)
_cell_angle_alpha                90
_cell_angle_beta                 91.910(4)
_cell_angle_gamma                90
_cell_volume                     1573.58
loop_
_atom_site_label
_atom_site_type_symbol
_atom_site_fract_x
_atom_site_fract_y
_atom_site_fract_z
Gd1 Gd 0.46252(3) 0.56591(6) 0.15752(4)
O1 O 0.5599(5) 0.5468(8) 0.3210(7)
O2 O 0.5388(4) 0.7974(8) 0.2972(8)
O3 O 0.5687(5) 0.9374(6) 0.5264(7)
O4 O 0.3733(4) 0.6653(8) 0.3185(6)
O5 O 0.3198(5) 0.5337(8) 0.1632(6)
O6 O 0.1683(5) 0.4699(9) 0.1475(7)
H1 H 0.2156 0.4485 0.1388
O7 O 0.4241(5) 0.7897(8) 0.0519(6)
H2 H 0.4287 0.8865 0.0745
H3 H 0.4087 0.8027 -0.0250
C1 C 0.5760(6) 0.6870(11) 0.3504(9)
C2 C 0.6385(6) 0.7175(11) 0.4476(8)
C3 C 0.6341(6) 0.8441(13) 0.5267(9)
C4 C 0.6989(6) 0.8769(13) 0.6046(9)
H4 H 0.6952 0.9576 0.6603
C5 C 0.7700(7) 0.7921(12) 0.6019(9)
C6 C 0.7722(6) 0.6690(12) 0.5256(9)
H5 H 0.8187 0.6104 0.5234
C7 C 0.7085(6) 0.6288(12) 0.4522(9)
H6 H 0.7114 0.5405 0.4040
C8 C 0.8436(7) 0.8459(14) 0.6781(11)
H7 H 0.8762 0.7583 0.7005
H8 H 0.8266 0.8966 0.7513
H9 H 0.8742 0.9163 0.6304
C9 C 0.3101(7) 0.6120(12) 0.2615(9)
C10 C 0.2292(6) 0.6384(11) 0.3047(9)
C11 C 0.1615(8) 0.5636(9) 0.2469(10)
C12 C 0.0864(8) 0.5838(12) 0.2921(11)
H10 H 0.0430 0.5350 0.2529
C13 C 0.0732(7) 0.6755(13) 0.3951(10)
C14 C 0.1400(7) 0.7457(13) 0.4523(10)
H11 H 0.1333 0.8065 0.5216
C15 C 0.2154(7) 0.7264(14) 0.4078(9)
H12 H 0.2585 0.7740 0.4485
C16 C -0.0087(7) 0.6972(13) 0.4413(10)
H13 H -0.0068 0.6927 0.5296
H14 H -0.0432 0.6172 0.4092
H15 H -0.0291 0.7957 0.4150
Gd1A Gd 0.53748(3) 1.06591(6) 0.34248(4)
Gd1C Gd 0.46252(3) 0.93409(6) 0.65752(4)
O2A O 0.4612(4) 0.2974(8) 0.2028(8)
O3A O 0.4313(5) 0.4374(6) -0.0264(7)
O3C O 0.5687(5) 0.5626(6) 0.0264(7)
loop_
_geom_bond_atom_site_label_1
_geom_bond_atom_site_label_2
_geom_bond_site_symmetry_1
_geom_bond_site_symmetry_2
Gd1 O1 1_555 1_555
O1 C1 1_555 1_555
O2 Gd1 1_555 1_555
O3 C3 1_555 1_555
O4 Gd1 1_555 1_555
O5 Gd1 1_555 1_555
O6 H1 1_555 1_555
O7 Gd1 1_555 1_555
H2 O7 1_555 1_555
H3 O7 1_555 1_555
C1 O2 1_555 1_555
C2 C1 1_555 1_555
C3 C2 1_555 1_555
C4 C3 1_555 1_555
H4 C4 1_555 1_555
C5 C4 1_555 1_555
C6 C5 1_555 1_555
H5 C6 1_555 1_555
C7 C2 1_555 1_555
H6 C7 1_555 1_555
C8 C5 1_555 1_555
H7 C8 1_555 1_555
H8 C8 1_555 1_555
H9 C8 1_555 1_555
C9 O4 1_555 1_555
C10 C9 1_555 1_555
C11 O6 1_555 1_555
C12 C11 1_555 1_555
H10 C12 1_555 1_555
C13 C12 1_555 1_555
C14 C13 1_555 1_555
H11 C14 1_555 1_555
C15 C10 1_555 1_555
H12 C15 1_555 1_555
C16 C13 1_555 1_555
H13 C16 1_555 1_555
H14 C16 1_555 1_555
H15 C16 1_555 1_555
Gd1A O2 1_555 1_555
Gd1C O3 1_555 1_555
O2A Gd1 1_555 1_555
O3A Gd1 1_555 1_555
O3C Gd1 1_555 1_555
O3 Gd1A 1_555 1_555
O5 C9 1_555 1_555
C6 C7 1_555 1_555
C10 C11 1_555 1_555
C14 C15 1_555 1_555

#END
