
#######################################################################
#
#                 Cambridge Crystallographic Data Centre
#                                CCDC 
#
#######################################################################
#
# If this CIF has been generated from an entry in the Cambridge 
# Structural Database, then it will include bibliographic, chemical, 
# crystal, experimental, refinement or atomic coordinate data resulting 
# from the CCDC's data processing and validation procedures.
#
#######################################################################

data_KICWOJ
_symmetry_cell_setting           monoclinic
_symmetry_space_group_name_H-M   'C 2/c'
_symmetry_Int_Tables_number      15
_space_group_name_Hall           '-C 2yn'
loop_
_symmetry_equiv_pos_site_id
_symmetry_equiv_pos_as_xyz
1 x,y,z
2 1/2+x,1/2+y,z
3 -x,y,1/2-z
4 1/2-x,1/2+y,1/2-z
5 -x,-y,-z
6 1/2-x,1/2-y,-z
7 x,-y,1/2+z
8 1/2+x,1/2-y,1/2+z
_cell_length_a                   10.5853(16)
_cell_length_b                   13.746(2)
_cell_length_c                   14.809(2)
_cell_angle_alpha                90
_cell_angle_beta                 103.151(3)
_cell_angle_gamma                90
_cell_volume                     2098.28
loop_
_atom_site_label
_atom_site_type_symbol
_atom_site_fract_x
_atom_site_fract_y
_atom_site_fract_z
Ag1 Ag 0.96494(6) 1.13311(4) 0.47030(3)
N1 N 0.9114(6) 1.0130(4) 0.3644(3)
N2 N 0.9316(6) 0.9161(4) 0.3868(4)
N3 N 0.8213(5) 0.9270(3) 0.2427(3)
N4 N 0.6284(5) 0.7821(4) 0.0517(3)
C1 C 0.8465(7) 1.0170(4) 0.2784(4)
H1 H 0.8209 1.0743 0.2460
C2 C 0.8765(9) 0.8675(5) 0.3124(5)
H2 H 0.8756 0.8000 0.3083
C3 C 0.7497(6) 0.9024(4) 0.1519(4)
C4 C 0.7281(7) 0.9696(5) 0.0817(4)
H3 H 0.7626 1.0320 0.0912
C5 C 0.6541(8) 0.9421(5) -0.0031(4)
H4 H 0.6365 0.9862 -0.0520
C6 C 0.6060(8) 0.8483(5) -0.0151(4)
H5 H 0.5555 0.8309 -0.0728
C7 C 0.7008(6) 0.8089(4) 0.1352(4)
H6 H 0.7183 0.7635 0.1829
Ag1D Ag 1.03506(6) 0.86689(4) 0.52970(3)
Ag1C Ag 0.53506(6) 0.63311(4) 0.02970(3)
Ag1G Ag 1.46494(6) 1.36689(4) 0.97030(3)
N1D N 1.0886(6) 0.9870(4) 0.6356(3)
N2D N 1.0684(6) 1.0839(4) 0.6132(4)
N3D N 1.1787(5) 1.0730(3) 0.7573(3)
N4D N 1.3716(5) 1.2179(4) 0.9483(3)
N4C N 0.8716(5) 1.2821(4) 0.4483(3)
N4G N 1.1284(5) 0.7179(4) 0.5517(3)
C1D C 1.1535(7) 0.9830(4) 0.7216(4)
H1D H 1.1791 0.9257 0.7540
C2D C 1.1235(9) 1.1325(5) 0.6876(5)
H2D H 1.1244 1.2000 0.6917
C3D C 1.2503(6) 1.0976(4) 0.8481(4)
C4D C 1.2719(7) 1.0304(5) 0.9183(4)
H3D H 1.2374 0.9680 0.9088
C5D C 1.3459(8) 1.0579(5) 1.0031(4)
H4D H 1.3635 1.0138 1.0520
C6D C 1.3940(8) 1.1517(5) 1.0151(4)
H5D H 1.4445 1.1691 1.0728
C7D C 1.2992(6) 1.1911(4) 0.8648(4)
H6D H 1.2817 1.2365 0.8171
N5 N 1.0000 0.3916(6) 0.7500
O1 O 1.0000 0.4796(9) 0.7500
O7 O 0.8985(18) 0.3789(18) 0.773(2)
O7B O 1.1015(18) 0.3789(18) 0.727(2)
O13 O 0.0000 0.667(2) 0.7500
O2? O 0.9041(19) 0.3483(17) 0.758(2)
O3? O 1.0959(19) 0.3482(17) 0.742(2)
O4? O 0.916(2) 0.4349(17) 0.7752(19)
O5? O 1.0000 0.3040(9) 0.7500
O6? O 1.084(2) 0.4350(17) 0.7248(19)
O8? O 1.0763(19) 0.3246(13) 0.756(2)
O9? O 1.026(2) 0.4702(13) 0.721(2)
N6? N 0.1916(14) 0.2431(12) 0.4168(10)
O10? O 0.264(2) 0.2016(15) 0.4787(13)
O11? O 0.175(2) 0.3301(13) 0.4218(16)
O12? O 0.1352(19) 0.2006(14) 0.3503(12)
O14? O -0.055(4) 0.646(3) 0.705(3)
O15? O 0.152(3) 0.192(2) 0.393(2)
O16? O 0.103(4) 0.219(3) 0.314(3)
loop_
_geom_bond_atom_site_label_1
_geom_bond_atom_site_label_2
_geom_bond_site_symmetry_1
_geom_bond_site_symmetry_2
Ag1 N1 1_555 1_555
N1 N2 1_555 1_555
N2 C2 1_555 1_555
N3 C1 1_555 1_555
N4 C6 1_555 1_555
C1 N1 1_555 1_555
H1 C1 1_555 1_555
C2 N3 1_555 1_555
H2 C2 1_555 1_555
C3 N3 1_555 1_555
C4 C3 1_555 1_555
H3 C4 1_555 1_555
C5 C4 1_555 1_555
H4 C5 1_555 1_555
C6 C5 1_555 1_555
H5 C6 1_555 1_555
C7 N4 1_555 1_555
H6 C7 1_555 1_555
N5 O1 1_555 1_555
O7 N5 1_555 1_555
Ag1D N2 1_555 1_555
Ag1C N4 1_555 1_555
Ag1G N4D 1_555 1_555
N1D Ag1D 1_555 1_555
N2D Ag1 1_555 1_555
N3D C1D 1_555 1_555
N4D C6D 1_555 1_555
N4C Ag1 1_555 1_555
N4G Ag1D 1_555 1_555
C1D N1D 1_555 1_555
H1D C1D 1_555 1_555
C2D N2D 1_555 1_555
H2D C2D 1_555 1_555
C3D N3D 1_555 1_555
C4D C3D 1_555 1_555
H3D C4D 1_555 1_555
C5D C4D 1_555 1_555
H4D C5D 1_555 1_555
C6D C5D 1_555 1_555
H5D C6D 1_555 1_555
C7D N4D 1_555 1_555
H6D C7D 1_555 1_555
O7B N5 1_555 1_555
C3 C7 1_555 1_555
N1D N2D 1_555 1_555
N3D C2D 1_555 1_555
C3D C7D 1_555 1_555

#END
