
#######################################################################
#
#                 Cambridge Crystallographic Data Centre
#                                CCDC 
#
#######################################################################
#
# If this CIF has been generated from an entry in the Cambridge 
# Structural Database, then it will include bibliographic, chemical, 
# crystal, experimental, refinement or atomic coordinate data resulting 
# from the CCDC's data processing and validation procedures.
#
#######################################################################

data_KIDCIL
_symmetry_cell_setting           triclinic
_symmetry_space_group_name_H-M   'P -1'
_symmetry_Int_Tables_number      2
_space_group_name_Hall           '-P 1'
loop_
_symmetry_equiv_pos_site_id
_symmetry_equiv_pos_as_xyz
1 x,y,z
2 -x,-y,-z
_cell_length_a                   8.1362(3)
_cell_length_b                   9.2795(4)
_cell_length_c                   9.5305(4)
_cell_angle_alpha                66.2600(10)
_cell_angle_beta                 66.986(2)
_cell_angle_gamma                84.300(2)
_cell_volume                     604.799
loop_
_atom_site_label
_atom_site_type_symbol
_atom_site_fract_x
_atom_site_fract_y
_atom_site_fract_z
C1 C 0.7063(2) 0.28260(18) 0.5009(2)
O1 O 0.93600(16) 0.29952(15) 0.21789(15)
O2 O 0.93490(15) 0.51895(13) 0.29430(13)
O3 O 0.69291(15) 0.47603(14) 0.22173(14)
F1 F 0.81462(15) 0.20832(13) 0.57760(13)
F2 F 0.60239(14) 0.17264(11) 0.51244(14)
F3 F 0.59948(16) 0.36416(13) 0.58349(13)
S1 S 0.83044(5) 0.40967(4) 0.28336(4)
C2 C 1.17621(19) 0.18641(17) 0.60890(18)
C3 C 1.24885(19) 0.29236(17) 0.43292(17)
H1 H 1.3524 0.3577 0.4104
H2 H 1.1565 0.3641 0.4073
C4 C 1.3085(2) 0.20213(16) 0.31889(17)
H3 H 1.3984 0.1277 0.3457
H4 H 1.2045 0.1405 0.3363
C5 C 1.38918(19) 0.31921(16) 0.13851(16)
H5 H 1.4861 0.3861 0.1253
H6 H 1.2959 0.3890 0.1119
C6 C 1.46507(19) 0.24074(17) 0.01433(17)
H7 H 1.5247 0.3230 -0.0985
H8 H 1.5565 0.1690 0.0420
C7 C 1.32693(19) 0.15092(17) 0.01433(17)
N1 N 1.12005(16) 0.10267(14) 0.74526(15)
N2 N 1.21933(16) 0.08150(14) 0.01399(15)
O4 O 0.88633(14) 0.21013(12) -0.00489(13)
Ni1 Ni 1.0000 0.0000 0.0000
H9 H 0.892(3) 0.237(2) 0.0664(19)
H10 H 0.938(2) 0.2855(17) -0.0936(16)
C2A C 0.82379(19) -0.18641(17) -0.60890(18)
C3A C 0.75115(19) -0.29236(17) -0.43292(17)
H1A H 0.6476 -0.3577 -0.4104
H2A H 0.8435 -0.3641 -0.4073
C4A C 0.6915(2) -0.20213(16) -0.31889(17)
H3A H 0.6016 -0.1277 -0.3457
H4A H 0.7955 -0.1405 -0.3363
C5A C 0.61082(19) -0.31921(16) -0.13851(16)
H5A H 0.5139 -0.3861 -0.1253
H6A H 0.7041 -0.3890 -0.1119
C6A C 0.53493(19) -0.24074(17) -0.01433(17)
H7A H 0.4753 -0.3230 0.0985
H8A H 0.4435 -0.1690 -0.0420
C7A C 0.67307(19) -0.15092(17) -0.01433(17)
N1A N 0.87995(16) -0.10267(14) -0.74526(15)
N2A N 0.78067(16) -0.08150(14) -0.01399(15)
O4A O 1.11367(14) -0.21013(12) 0.00489(13)
H9A H 1.108(3) -0.237(2) -0.0664(19)
H10A H 1.062(2) -0.2855(17) 0.0936(16)
N1_2 N 1.12005(16) 0.10267(14) -0.25474(15)
N1A_2 N 0.87995(16) -0.10267(14) 0.25474(15)
Ni1_2 Ni 1.0000 0.0000 -1.0000
Ni1_3 Ni 1.0000 0.0000 1.0000
loop_
_geom_bond_atom_site_label_1
_geom_bond_atom_site_label_2
_geom_bond_site_symmetry_1
_geom_bond_site_symmetry_2
C1 F1 1_555 1_555
O1 S1 1_555 1_555
O2 S1 1_555 1_555
O3 S1 1_555 1_555
F2 C1 1_555 1_555
F3 C1 1_555 1_555
S1 C1 1_555 1_555
C2 C3 1_555 1_555
C3 H1 1_555 1_555
H2 C3 1_555 1_555
C4 C3 1_555 1_555
H3 C4 1_555 1_555
H4 C4 1_555 1_555
C5 C4 1_555 1_555
H5 C5 1_555 1_555
H6 C5 1_555 1_555
C6 C5 1_555 1_555
H7 C6 1_555 1_555
H8 C6 1_555 1_555
C7 C6 1_555 1_555
N1 C2 1_555 1_555
N2 C7 1_555 1_555
O4 Ni1 1_555 1_555
Ni1 N2 1_555 1_555
H9 O4 1_555 1_555
H10 O4 1_555 1_555
C2A C3A 1_555 1_555
C3A H1A 1_555 1_555
H2A C3A 1_555 1_555
C4A C3A 1_555 1_555
H3A C4A 1_555 1_555
H4A C4A 1_555 1_555
C5A C4A 1_555 1_555
H5A C5A 1_555 1_555
H6A C5A 1_555 1_555
C6A C5A 1_555 1_555
H7A C6A 1_555 1_555
H8A C6A 1_555 1_555
C7A C6A 1_555 1_555
N1A C2A 1_555 1_555
N2A Ni1 1_555 1_555
O4A Ni1 1_555 1_555
H9A O4A 1_555 1_555
H10A O4A 1_555 1_555
N1_2 Ni1 1_555 1_555
N1A_2 Ni1 1_555 1_555
Ni1_2 N1A 1_555 1_555
Ni1_3 N1 1_555 1_555
C7A N2A 1_555 1_555

#END
