
#######################################################################
#
#                 Cambridge Crystallographic Data Centre
#                                CCDC 
#
#######################################################################
#
# If this CIF has been generated from an entry in the Cambridge 
# Structural Database, then it will include bibliographic, chemical, 
# crystal, experimental, refinement or atomic coordinate data resulting 
# from the CCDC's data processing and validation procedures.
#
#######################################################################

data_KIDDIM
_symmetry_cell_setting           rhombohedral
_symmetry_space_group_name_H-M   'R -3 c'
_symmetry_Int_Tables_number      167
_space_group_name_Hall           '-R 3 2"c'
loop_
_symmetry_equiv_pos_site_id
_symmetry_equiv_pos_as_xyz
1 x,y,z
2 -y,x-y,z
3 -x+y,-x,z
4 y,x,1/2-z
5 x-y,-y,1/2-z
6 -x,-x+y,1/2-z
7 2/3+x,1/3+y,1/3+z
8 2/3-y,1/3+x-y,1/3+z
9 2/3-x+y,1/3-x,1/3+z
10 2/3+y,1/3+x,5/6-z
11 2/3+x-y,1/3-y,5/6-z
12 2/3-x,1/3-x+y,5/6-z
13 1/3+x,2/3+y,2/3+z
14 1/3-y,2/3+x-y,2/3+z
15 1/3-x+y,2/3-x,2/3+z
16 1/3+y,2/3+x,1/6-z
17 1/3+x-y,2/3-y,1/6-z
18 1/3-x,2/3-x+y,1/6-z
19 -x,-y,-z
20 y,-x+y,-z
21 x-y,x,-z
22 -y,-x,1/2+z
23 -x+y,y,1/2+z
24 x,x-y,1/2+z
25 1/3-x,2/3-y,2/3-z
26 1/3+y,2/3-x+y,2/3-z
27 1/3+x-y,2/3+x,2/3-z
28 1/3-y,2/3-x,1/6+z
29 1/3-x+y,2/3+y,1/6+z
30 1/3+x,2/3+x-y,1/6+z
31 2/3-x,1/3-y,1/3-z
32 2/3+y,1/3-x+y,1/3-z
33 2/3+x-y,1/3+x,1/3-z
34 2/3-y,1/3-x,5/6+z
35 2/3-x+y,1/3+y,5/6+z
36 2/3+x,1/3+x-y,5/6+z
_cell_length_a                   16.2636(5)
_cell_length_b                   16.2636(5)
_cell_length_c                   60.347(3)
_cell_angle_alpha                90
_cell_angle_beta                 90
_cell_angle_gamma                120
_cell_volume                     13823.6
loop_
_atom_site_label
_atom_site_type_symbol
_atom_site_fract_x
_atom_site_fract_y
_atom_site_fract_z
Cd1 Cd 0.903042(16) 0.541837(16) -0.093716(4)
O1 O 1.0483(2) 0.6667 -0.0833
H1 H 1.080(3) 0.668(3) -0.0949(7)
O2 O 0.97524(19) 0.5331(2) -0.12523(4)
O3 O 1.1184(2) 0.6637(2) -0.12092(5)
C1 C 1.0577(3) 0.5951(3) -0.13179(6)
C2 C 1.0833(3) 0.5830(3) -0.15473(6)
C3 C 1.1719(3) 0.6274(3) -0.16413(7)
H2 H 1.2277 0.6730 -0.1567
S1 S 0.99885(6) 0.50442(7) -0.172819(14)
C4 C 1.1709(3) 0.5976(3) -0.18625(6)
H3 H 1.2261 0.6206 -0.1952
C5 C 1.0820(3) 0.5322(3) -0.19328(6)
C6 C 1.0539(3) 0.4857(3) -0.21550(6)
O4 O 1.12102(19) 0.49892(19) -0.22819(4)
O5 O 0.96676(19) 0.4375(2) -0.21936(4)
N1 N 0.7595(2) 0.4129(2) -0.10627(5)
C7 C 0.7565(3) 0.4101(3) -0.13121(6)
H4 H 0.7660 0.4713 -0.1369
H5 H 0.8090 0.4016 -0.1369
C8 C 0.7448(2) 0.3202(2) -0.09841(6)
H6 H 0.7973 0.3113 -0.1038
H7 H 0.7459 0.3199 -0.0820
N2 N 0.6667 0.3333 -0.13923(8)
O6 O 0.9380(2) 0.4394(2) -0.07490(5)
C9 C 0.9643(3) 0.4559(3) -0.05538(7)
H8 H 0.9538 0.5012 -0.0479
N3 N 1.0048(3) 0.4180(3) -0.04393(7)
C10 C 1.0389(4) 0.4448(4) -0.02183(9)
H9 H 1.0661 0.4063 -0.0167
H10 H 0.9862 0.4343 -0.0121
H11 H 1.0878 0.5121 -0.0215
C11 C 1.0110(5) 0.3384(4) -0.05308(9)
H12 H 1.0429 0.3182 -0.0424
H13 H 1.0472 0.3579 -0.0669
H14 H 0.9469 0.2855 -0.0560
H1J H 1.079(4) 0.665(3) -0.0718(7)
N1A N 0.5871(2) 0.3466(3) -0.10627(5)
C7A C 0.5899(3) 0.3464(4) -0.13121(6)
H4A H 0.5287 0.2947 -0.1369
H5A H 0.5984 0.4074 -0.1369
C8A C 0.6798(2) 0.4246(3) -0.09841(6)
H6A H 0.6887 0.4860 -0.1038
H7A H 0.6801 0.4260 -0.0820
N1B N 0.6534(3) 0.2405(2) -0.10627(5)
C7B C 0.6536(4) 0.2435(3) -0.13121(6)
H4B H 0.7053 0.2340 -0.1369
H5B H 0.5926 0.1910 -0.1369
C8B C 0.5754(3) 0.2552(2) -0.09841(6)
H6B H 0.5140 0.2027 -0.1038
H7B H 0.5740 0.2541 -0.0820
Cd1A Cd 0.458163(16) 0.361205(23) -0.093716(4)
O1A O 0.3333 0.3816(2) -0.0833
H1A H 0.332(3) 0.412(4) -0.0949(7)
O2A O 0.4669(2) 0.44214(28) -0.12523(4)
O3A O 0.3363(2) 0.4547(3) -0.12092(5)
C1A C 0.4049(3) 0.4626(4) -0.13179(6)
C2A C 0.4170(3) 0.5003(4) -0.15473(6)
C3A C 0.3726(3) 0.5445(4) -0.16413(7)
H2A H 0.3270 0.5547 -0.1567
S1A S 0.49558(7) 0.49443(9) -0.172819(14)
C4A C 0.4024(3) 0.5733(4) -0.18625(6)
H3A H 0.3794 0.6055 -0.1952
C5A C 0.4678(3) 0.5498(4) -0.19328(6)
C6A C 0.5143(3) 0.5682(4) -0.21550(6)
O4A O 0.50108(19) 0.62210(27) -0.22819(4)
O5A O 0.5625(2) 0.52926(28) -0.21936(4)
O6A O 0.5606(2) 0.4986(3) -0.07490(5)
C9A C 0.5441(3) 0.5084(4) -0.05538(7)
H8A H 0.4988 0.4526 -0.0479
N3A N 0.5820(3) 0.5868(4) -0.04393(7)
C10A C 0.5552(4) 0.5941(6) -0.02183(9)
H9A H 0.5937 0.6598 -0.0167
H10A H 0.5657 0.5519 -0.0121
H11A H 0.4879 0.5757 -0.0215
C11A C 0.6616(4) 0.6726(6) -0.05308(9)
H12A H 0.6818 0.7247 -0.0424
H13A H 0.6421 0.6893 -0.0669
H14A H 0.7145 0.6614 -0.0560
H1I H 0.335(3) 0.413(3) -0.0718(7)
Cd1B Cd 0.638795(23) 0.096958(16) -0.093716(4)
O1B O 0.6184(2) -0.0483(2) -0.0833
H1B H 0.588(4) -0.080(3) -0.0949(7)
O2B O 0.55786(28) 0.02476(19) -0.12523(4)
O3B O 0.5453(3) -0.1184(2) -0.12092(5)
C1B C 0.5374(4) -0.0577(3) -0.13179(6)
C2B C 0.4997(4) -0.0833(3) -0.15473(6)
C3B C 0.4555(4) -0.1719(3) -0.16413(7)
H2B H 0.4453 -0.2277 -0.1567
S1B S 0.50557(9) 0.00115(6) -0.172819(14)
C4B C 0.4267(4) -0.1709(3) -0.18625(6)
H3B H 0.3945 -0.2261 -0.1952
C5B C 0.4502(4) -0.0820(3) -0.19328(6)
C6B C 0.4318(4) -0.0539(3) -0.21550(6)
O4B O 0.37790(27) -0.12102(19) -0.22819(4)
O5B O 0.47074(28) 0.03324(19) -0.21936(4)
O6B O 0.5014(3) 0.0620(2) -0.07490(5)
C9B C 0.4916(4) 0.0357(3) -0.05538(7)
H8B H 0.5474 0.0462 -0.0479
N3B N 0.4132(4) -0.0048(3) -0.04393(7)
C10B C 0.4059(6) -0.0389(4) -0.02183(9)
H9B H 0.3402 -0.0661 -0.0167
H10B H 0.4481 0.0138 -0.0121
H11B H 0.4243 -0.0878 -0.0215
C11B C 0.3274(6) -0.0110(5) -0.05308(9)
H12B H 0.2753 -0.0429 -0.0424
H13B H 0.3107 -0.0472 -0.0669
H14B H 0.3386 0.0531 -0.0560
H1K H 0.587(3) -0.079(4) -0.0718(7)
Cd1X Cd 0.430291(16) 0.124830(16) -0.239617(4)
O2X O 0.35809(19) 0.1336(2) -0.20810(4)
O3X O 0.2149(2) 0.0030(2) -0.21241(5)
C1X C 0.2756(3) 0.0716(3) -0.20154(6)
C2X C 0.2500(3) 0.0837(3) -0.17860(6)
C3X C 0.1614(3) 0.0393(3) -0.16920(7)
H2X H 0.1056 -0.0063 -0.1766
S1X S 0.33448(6) 0.16225(7) -0.160514(14)
C4X C 0.1624(3) 0.0691(3) -0.14708(6)
H3X H 0.1072 0.0461 -0.1381
C5X C 0.2513(3) 0.1345(3) -0.14005(6)
C6X C 0.2794(3) 0.1810(3) -0.11783(6)
O4X O 0.21231(19) 0.16775(19) -0.10514(4)
O5X O 0.36657(19) 0.2292(2) -0.11397(4)
N1X N 0.5738(2) 0.2538(2) -0.22706(5)
C7X C 0.5768(3) 0.2566(3) -0.20212(6)
H4X H 0.5673 0.1954 -0.1964
H5X H 0.5243 0.2651 -0.1964
C8X C 0.5885(2) 0.3465(2) -0.23492(6)
H6X H 0.5360 0.3554 -0.2295
H7X H 0.5874 0.3468 -0.2513
N2X N 0.6666 0.3334 -0.19410(8)
O6X O 0.3953(2) 0.2273(2) -0.25843(5)
C9X C 0.3690(3) 0.2108(3) -0.27795(7)
H8X H 0.3795 0.1655 -0.2854
N3X N 0.3285(3) 0.2487(3) -0.28940(7)
C10X C 0.2944(4) 0.2219(4) -0.31150(9)
H9X H 0.2672 0.2604 -0.3166
H10X H 0.3471 0.2324 -0.3212
H11X H 0.2455 0.1546 -0.3118
C11X C 0.3223(5) 0.3283(4) -0.28025(9)
H12X H 0.2904 0.3485 -0.2909
H13X H 0.2861 0.3088 -0.2664
H14X H 0.3864 0.3812 -0.2773
N1Y N 0.7462(2) 0.3201(3) -0.22706(5)
C7Y C 0.7434(3) 0.3203(4) -0.20212(6)
H4Y H 0.8046 0.3720 -0.1964
H5Y H 0.7349 0.2593 -0.1964
C8Y C 0.6535(2) 0.2421(3) -0.23492(6)
H6Y H 0.6446 0.1807 -0.2295
H7Y H 0.6532 0.2407 -0.2513
N1Z N 0.6799(3) 0.4262(2) -0.22706(5)
C7Z C 0.6797(4) 0.4232(3) -0.20212(6)
H4Z H 0.6280 0.4327 -0.1964
H5Z H 0.7407 0.4757 -0.1964
C8Z C 0.7579(3) 0.4115(2) -0.23492(6)
H6Z H 0.8193 0.4640 -0.2295
H7Z H 0.7593 0.4126 -0.2513
Cd1Y Cd 0.875170(16) 0.305462(23) -0.239617(4)
O2Y O 0.8664(2) 0.22453(28) -0.20810(4)
O3Y O 0.9970(2) 0.2120(3) -0.21241(5)
C1Y C 0.9284(3) 0.2041(4) -0.20154(6)
C2Y C 0.9163(3) 0.1664(4) -0.17860(6)
C3Y C 0.9607(3) 0.1222(4) -0.16920(7)
H2Y H 1.0063 0.1120 -0.1766
S1Y S 0.83775(7) 0.17224(9) -0.160514(14)
C4Y C 0.9309(3) 0.0934(4) -0.14708(6)
H3Y H 0.9539 0.0612 -0.1381
C5Y C 0.8655(3) 0.1169(4) -0.14005(6)
C6Y C 0.8190(3) 0.0985(4) -0.11783(6)
O4Y O 0.83225(19) 0.04457(27) -0.10514(4)
O5Y O 0.7708(2) 0.13741(28) -0.11397(4)
O6Y O 0.7727(2) 0.1681(3) -0.25843(5)
C9Y C 0.7892(3) 0.1583(4) -0.27795(7)
H8Y H 0.8345 0.2141 -0.2854
N3Y N 0.7513(3) 0.0799(4) -0.28940(7)
C10Y C 0.7781(4) 0.0726(6) -0.31150(9)
H9Y H 0.7396 0.0069 -0.3166
H10Y H 0.7676 0.1148 -0.3212
H11Y H 0.8454 0.0910 -0.3118
C11Y C 0.6717(4) -0.0059(6) -0.28025(9)
H12Y H 0.6515 -0.0580 -0.2909
H13Y H 0.6912 -0.0226 -0.2664
H14Y H 0.6188 0.0053 -0.2773
Cd1Z Cd 0.694538(23) 0.569709(16) -0.239617(4)
O2Z O 0.77547(28) 0.64191(19) -0.20810(4)
O3Z O 0.7880(3) 0.7851(2) -0.21241(5)
C1Z C 0.7959(4) 0.7244(3) -0.20154(6)
C2Z C 0.8336(4) 0.7500(3) -0.17860(6)
C3Z C 0.8778(4) 0.8386(3) -0.16920(7)
H2Z H 0.8880 0.8944 -0.1766
S1Z S 0.82776(9) 0.66552(6) -0.160514(14)
C4Z C 0.9066(4) 0.8376(3) -0.14708(6)
H3Z H 0.9388 0.8928 -0.1381
C5Z C 0.8831(4) 0.7487(3) -0.14005(6)
C6Z C 0.9015(4) 0.7206(3) -0.11783(6)
O4Z O 0.95543(27) 0.78769(19) -0.10514(4)
O5Z O 0.86259(28) 0.63343(19) -0.11397(4)
O6Z O 0.8319(3) 0.6047(2) -0.25843(5)
C9Z C 0.8417(4) 0.6310(3) -0.27795(7)
H8Z H 0.7859 0.6205 -0.2854
N3Z N 0.9201(4) 0.6715(3) -0.28940(7)
C10Z C 0.9274(6) 0.7056(4) -0.31150(9)
H9Z H 0.9931 0.7328 -0.3166
H10Z H 0.8852 0.6529 -0.3212
H11Z H 0.9090 0.7545 -0.3118
C11Z C 1.0059(6) 0.6777(5) -0.28025(9)
H12Z H 1.0580 0.7096 -0.2909
H13Z H 1.0226 0.7139 -0.2664
H14Z H 0.9947 0.6136 -0.2773
Cd1I Cd 0.208504(16) 0.236375(16) -0.072951(4)
Cd1J Cd 1.027872(23) 0.791496(16) -0.072951(4)
Cd1K Cd 0.763625(16) -0.027872(23) -0.072951(4)
Cd1GA Cd 1.124830(16) 0.430291(16) -0.260383(4)
Cd1HA Cd 0.305462(23) -0.124830(16) -0.260383(4)
Cd1IA Cd 0.569709(16) 0.694538(23) -0.260383(4)
O1GA O 1.0000 0.2850(2) -0.2500
O1HA O 0.2851(2) 0.0000 -0.2500
O1IA O 0.7150(2) 0.7149(2) -0.2500
O4C O 0.49892(19) 0.12102(19) -0.27181(4)
O4D O 0.62210(27) 0.50108(19) -0.27181(4)
O4E O 0.87898(19) 0.37790(27) -0.27181(4)
O4AA O 0.83441(19) 0.54565(19) -0.06152(4)
O4BA O 0.71123(27) 0.16559(19) -0.06152(4)
O4CA O 0.45435(19) 0.28877(27) -0.06152(4)
O7 O 1.3333 0.6667 -0.1255(3)
O8 O 1.3333 0.698(2) -0.0833
O8A O 1.302(2) 0.6353(20) -0.0833
O8B O 1.3647(20) 0.6667 -0.0833
O9? O 1.3333 0.6667 -0.0991(7)
loop_
_geom_bond_atom_site_label_1
_geom_bond_atom_site_label_2
_geom_bond_site_symmetry_1
_geom_bond_site_symmetry_2
Cd1 O1 1_555 1_555
O1 H1 1_555 1_555
O2 Cd1 1_555 1_555
O3 C1 1_555 1_555
C1 O2 1_555 1_555
C2 C1 1_555 1_555
C3 C2 1_555 1_555
H2 C3 1_555 1_555
S1 C2 1_555 1_555
C4 C3 1_555 1_555
H3 C4 1_555 1_555
C5 S1 1_555 1_555
C6 C5 1_555 1_555
O4 C6 1_555 1_555
O5 C6 1_555 1_555
N1 Cd1 1_555 1_555
C7 N1 1_555 1_555
H4 C7 1_555 1_555
H5 C7 1_555 1_555
C8 N1 1_555 1_555
H6 C8 1_555 1_555
H7 C8 1_555 1_555
N2 C7 1_555 1_555
O6 Cd1 1_555 1_555
C9 O6 1_555 1_555
H8 C9 1_555 1_555
N3 C9 1_555 1_555
C10 N3 1_555 1_555
H9 C10 1_555 1_555
H10 C10 1_555 1_555
H11 C10 1_555 1_555
C11 N3 1_555 1_555
H12 C11 1_555 1_555
H13 C11 1_555 1_555
H14 C11 1_555 1_555
H1J O1 1_555 1_555
N1A C7A 1_555 1_555
C7A N2 1_555 1_555
H4A C7A 1_555 1_555
H5A C7A 1_555 1_555
C8A N1 1_555 1_555
H6A C8A 1_555 1_555
H7A C8A 1_555 1_555
N1B C8 1_555 1_555
C7B N2 1_555 1_555
H4B C7B 1_555 1_555
H5B C7B 1_555 1_555
C8B N1A 1_555 1_555
H6B C8B 1_555 1_555
H7B C8B 1_555 1_555
Cd1A N1A 1_555 1_555
O1A Cd1A 1_555 1_555
H1A O1A 1_555 1_555
O2A Cd1A 1_555 1_555
O3A C1A 1_555 1_555
C1A O2A 1_555 1_555
C2A C1A 1_555 1_555
C3A C2A 1_555 1_555
H2A C3A 1_555 1_555
S1A C2A 1_555 1_555
C4A C3A 1_555 1_555
H3A C4A 1_555 1_555
C5A S1A 1_555 1_555
C6A C5A 1_555 1_555
O4A C6A 1_555 1_555
O5A C6A 1_555 1_555
O6A Cd1A 1_555 1_555
C9A O6A 1_555 1_555
H8A C9A 1_555 1_555
N3A C9A 1_555 1_555
C10A N3A 1_555 1_555
H9A C10A 1_555 1_555
H10A C10A 1_555 1_555
H11A C10A 1_555 1_555
C11A N3A 1_555 1_555
H12A C11A 1_555 1_555
H13A C11A 1_555 1_555
H14A C11A 1_555 1_555
H1I O1A 1_555 1_555
Cd1B N1B 1_555 1_555
O1B Cd1B 1_555 1_555
H1B O1B 1_555 1_555
O2B Cd1B 1_555 1_555
O3B C1B 1_555 1_555
C1B O2B 1_555 1_555
C2B C1B 1_555 1_555
C3B C2B 1_555 1_555
H2B C3B 1_555 1_555
S1B C2B 1_555 1_555
C4B C3B 1_555 1_555
H3B C4B 1_555 1_555
C5B S1B 1_555 1_555
C6B C5B 1_555 1_555
O4B C6B 1_555 1_555
O5B C6B 1_555 1_555
O6B Cd1B 1_555 1_555
C9B O6B 1_555 1_555
H8B C9B 1_555 1_555
N3B C9B 1_555 1_555
C10B N3B 1_555 1_555
H9B C10B 1_555 1_555
H10B C10B 1_555 1_555
H11B C10B 1_555 1_555
C11B N3B 1_555 1_555
H12B C11B 1_555 1_555
H13B C11B 1_555 1_555
H14B C11B 1_555 1_555
H1K O1B 1_555 1_555
Cd1X O5B 1_555 1_555
O2X Cd1X 1_555 1_555
O3X C1X 1_555 1_555
C1X O2X 1_555 1_555
C2X C1X 1_555 1_555
C3X C2X 1_555 1_555
H2X C3X 1_555 1_555
S1X C2X 1_555 1_555
C4X C3X 1_555 1_555
H3X C4X 1_555 1_555
C5X S1X 1_555 1_555
C6X C5X 1_555 1_555
O4X C6X 1_555 1_555
O5X Cd1A 1_555 1_555
N1X Cd1X 1_555 1_555
C7X N1X 1_555 1_555
H4X C7X 1_555 1_555
H5X C7X 1_555 1_555
C8X N1X 1_555 1_555
H6X C8X 1_555 1_555
H7X C8X 1_555 1_555
N2X C7X 1_555 1_555
O6X Cd1X 1_555 1_555
C9X O6X 1_555 1_555
H8X C9X 1_555 1_555
N3X C9X 1_555 1_555
C10X N3X 1_555 1_555
H9X C10X 1_555 1_555
H10X C10X 1_555 1_555
H11X C10X 1_555 1_555
C11X N3X 1_555 1_555
H12X C11X 1_555 1_555
H13X C11X 1_555 1_555
H14X C11X 1_555 1_555
N1Y C7Y 1_555 1_555
C7Y N2X 1_555 1_555
H4Y C7Y 1_555 1_555
H5Y C7Y 1_555 1_555
C8Y N1X 1_555 1_555
H6Y C8Y 1_555 1_555
H7Y C8Y 1_555 1_555
N1Z C8X 1_555 1_555
C7Z N2X 1_555 1_555
H4Z C7Z 1_555 1_555
H5Z C7Z 1_555 1_555
C8Z N1Y 1_555 1_555
H6Z C8Z 1_555 1_555
H7Z C8Z 1_555 1_555
Cd1Y O5 1_555 1_555
O2Y Cd1Y 1_555 1_555
O3Y C1Y 1_555 1_555
C1Y O2Y 1_555 1_555
C2Y C1Y 1_555 1_555
C3Y C2Y 1_555 1_555
H2Y C3Y 1_555 1_555
S1Y C2Y 1_555 1_555
C4Y C3Y 1_555 1_555
H3Y C4Y 1_555 1_555
C5Y S1Y 1_555 1_555
C6Y C5Y 1_555 1_555
O4Y C6Y 1_555 1_555
O5Y Cd1B 1_555 1_555
O6Y Cd1Y 1_555 1_555
C9Y O6Y 1_555 1_555
H8Y C9Y 1_555 1_555
N3Y C9Y 1_555 1_555
C10Y N3Y 1_555 1_555
H9Y C10Y 1_555 1_555
H10Y C10Y 1_555 1_555
H11Y C10Y 1_555 1_555
C11Y N3Y 1_555 1_555
H12Y C11Y 1_555 1_555
H13Y C11Y 1_555 1_555
H14Y C11Y 1_555 1_555
Cd1Z O5A 1_555 1_555
O2Z Cd1Z 1_555 1_555
O3Z C1Z 1_555 1_555
C1Z O2Z 1_555 1_555
C2Z C1Z 1_555 1_555
C3Z C2Z 1_555 1_555
H2Z C3Z 1_555 1_555
S1Z C2Z 1_555 1_555
C4Z C3Z 1_555 1_555
H3Z C4Z 1_555 1_555
C5Z S1Z 1_555 1_555
C6Z C5Z 1_555 1_555
O4Z C6Z 1_555 1_555
O5Z Cd1 1_555 1_555
O6Z Cd1Z 1_555 1_555
C9Z O6Z 1_555 1_555
H8Z C9Z 1_555 1_555
N3Z C9Z 1_555 1_555
C10Z N3Z 1_555 1_555
H9Z C10Z 1_555 1_555
H10Z C10Z 1_555 1_555
H11Z C10Z 1_555 1_555
C11Z N3Z 1_555 1_555
H12Z C11Z 1_555 1_555
H13Z C11Z 1_555 1_555
H14Z C11Z 1_555 1_555
Cd1I O1A 1_555 1_555
Cd1J O1 1_555 1_555
Cd1K O1B 1_555 1_555
Cd1GA O4 1_555 1_555
Cd1HA O4B 1_555 1_555
Cd1IA O4A 1_555 1_555
O1GA Cd1Y 1_555 1_555
O1HA Cd1X 1_555 1_555
O1IA Cd1Z 1_555 1_555
O4C Cd1X 1_555 1_555
O4D Cd1Z 1_555 1_555
O4E Cd1Y 1_555 1_555
O4AA Cd1 1_555 1_555
O4BA Cd1B 1_555 1_555
O4CA Cd1A 1_555 1_555
C4 C5 1_555 1_555
N1A C8A 1_555 1_555
N1B C7B 1_555 1_555
N1B C8B 1_555 1_555
C4A C5A 1_555 1_555
C4B C5B 1_555 1_555
C4X C5X 1_555 1_555
C6X O5X 1_555 1_555
O4X Cd1I 1_555 1_555
N1Y C8Y 1_555 1_555
N1Y Cd1Y 1_555 1_555
N1Z C7Z 1_555 1_555
N1Z C8Z 1_555 1_555
N1Z Cd1Z 1_555 1_555
C4Y C5Y 1_555 1_555
C6Y O5Y 1_555 1_555
O4Y Cd1K 1_555 1_555
C4Z C5Z 1_555 1_555
C6Z O5Z 1_555 1_555
O4Z Cd1J 1_555 1_555
Cd1GA O1GA 1_555 1_555
Cd1HA O1HA 1_555 1_555
Cd1IA O1IA 1_555 1_555

#END
