
#######################################################################
#
#                 Cambridge Crystallographic Data Centre
#                                CCDC 
#
#######################################################################
#
# If this CIF has been generated from an entry in the Cambridge 
# Structural Database, then it will include bibliographic, chemical, 
# crystal, experimental, refinement or atomic coordinate data resulting 
# from the CCDC's data processing and validation procedures.
#
#######################################################################

data_KIDDOS
_symmetry_cell_setting           rhombohedral
_symmetry_space_group_name_H-M   'R -3 c'
_symmetry_Int_Tables_number      167
_space_group_name_Hall           '-R 3 2"c'
loop_
_symmetry_equiv_pos_site_id
_symmetry_equiv_pos_as_xyz
1 x,y,z
2 -y,x-y,z
3 -x+y,-x,z
4 y,x,1/2-z
5 x-y,-y,1/2-z
6 -x,-x+y,1/2-z
7 2/3+x,1/3+y,1/3+z
8 2/3-y,1/3+x-y,1/3+z
9 2/3-x+y,1/3-x,1/3+z
10 2/3+y,1/3+x,5/6-z
11 2/3+x-y,1/3-y,5/6-z
12 2/3-x,1/3-x+y,5/6-z
13 1/3+x,2/3+y,2/3+z
14 1/3-y,2/3+x-y,2/3+z
15 1/3-x+y,2/3-x,2/3+z
16 1/3+y,2/3+x,1/6-z
17 1/3+x-y,2/3-y,1/6-z
18 1/3-x,2/3-x+y,1/6-z
19 -x,-y,-z
20 y,-x+y,-z
21 x-y,x,-z
22 -y,-x,1/2+z
23 -x+y,y,1/2+z
24 x,x-y,1/2+z
25 1/3-x,2/3-y,2/3-z
26 1/3+y,2/3-x+y,2/3-z
27 1/3+x-y,2/3+x,2/3-z
28 1/3-y,2/3-x,1/6+z
29 1/3-x+y,2/3+y,1/6+z
30 1/3+x,2/3+x-y,1/6+z
31 2/3-x,1/3-y,1/3-z
32 2/3+y,1/3-x+y,1/3-z
33 2/3+x-y,1/3+x,1/3-z
34 2/3-y,1/3-x,5/6+z
35 2/3-x+y,1/3+y,5/6+z
36 2/3+x,1/3+x-y,5/6+z
_cell_length_a                   15.9531(4)
_cell_length_b                   15.9531(4)
_cell_length_c                   58.7453(15)
_cell_angle_alpha                90
_cell_angle_beta                 90
_cell_angle_gamma                120
_cell_volume                     12947.7
loop_
_atom_site_label
_atom_site_type_symbol
_atom_site_fract_x
_atom_site_fract_y
_atom_site_fract_z
Zn1 Zn 0.10132(3) 0.45792(3) 0.093600(7)
O1 O -0.0310(2) 0.3333 0.0833
H1 H -0.070(3) 0.329(3) 0.0958(7)
O2 O 0.03136(18) 0.46763(19) 0.12326(4)
O3 O -0.1140(2) 0.3342(2) 0.12018(5)
C1 C -0.0514(3) 0.4066(3) 0.13056(6)
C2 C -0.0784(3) 0.4221(3) 0.15391(6)
C3 C -0.1685(3) 0.3780(3) 0.16326(6)
H2 H -0.2251 0.3319 0.1554
S1 S 0.00784(6) 0.50071(6) 0.172737(13)
C4 C -0.1689(3) 0.4082(3) 0.18595(6)
H3 H -0.2258 0.3858 0.1949
C5 C -0.0781(3) 0.4734(3) 0.19350(6)
C6 C -0.0502(3) 0.5181(2) 0.21664(6)
O4 O -0.11909(17) 0.50259(17) 0.22963(4)
O5 O 0.03885(17) 0.56677(18) 0.22073(4)
N1 N 0.2387(2) 0.5840(2) 0.10495(4)
C7 C 0.2421(2) 0.5874(2) 0.13056(5)
H4 H 0.1883 0.5954 0.1364
H5 H 0.2335 0.5255 0.1365
C8 C 0.2523(2) 0.6780(2) 0.09679(5)
H6 H 0.1979 0.6858 0.1022
H7 H 0.2515 0.6780 0.0799
N2 N 0.3333 0.6667 0.13869(8)
O6 O 0.0591(2) 0.5481(2) 0.07682(4)
C9 C 0.0390(3) 0.5415(3) 0.05667(7)
H8 H 0.0586 0.5040 0.0480
N3 N -0.0045(3) 0.5775(3) 0.04525(7)
C10 C -0.0326(4) 0.5604(5) 0.02201(9)
H9 H -0.0597 0.6012 0.0175
H10 H -0.0815 0.4922 0.0199
H11 H 0.0240 0.5762 0.0126
C11 C -0.0046(5) 0.6631(5) 0.05421(11)
H12 H -0.0372 0.6841 0.0434
H13 H 0.0622 0.7153 0.0564
H14 H -0.0389 0.6471 0.0688
H1P H -0.066(4) 0.338(3) 0.0709(7)
N1A N 0.4160(2) 0.6547(3) 0.10495(4)
C7A C 0.4126(2) 0.6547(3) 0.13056(5)
H4A H 0.4046 0.5929 0.1364
H5A H 0.4745 0.7080 0.1365
C8A C 0.3220(2) 0.5743(3) 0.09679(5)
H6A H 0.3142 0.5121 0.1022
H7A H 0.3220 0.5735 0.0799
N1B N 0.3453(3) 0.7613(2) 0.10495(4)
C7B C 0.3453(3) 0.7579(2) 0.13056(5)
H4B H 0.4071 0.8117 0.1364
H5B H 0.2920 0.7665 0.1365
C8B C 0.4257(3) 0.7477(2) 0.09679(5)
H6B H 0.4879 0.8021 0.1022
H7B H 0.4265 0.7485 0.0799
Zn1A Zn 0.54208(3) 0.64340(4) 0.093600(7)
O1A O 0.6667 0.6357(2) 0.0833
H1A H 0.671(3) 0.601(4) 0.0958(7)
O2A O 0.53237(19) 0.56373(26) 0.12326(4)
O3A O 0.6658(2) 0.5518(3) 0.12018(5)
C1A C 0.5934(3) 0.5420(4) 0.13056(6)
C2A C 0.5779(3) 0.4995(4) 0.15391(6)
C3A C 0.6220(3) 0.4535(4) 0.16326(6)
H2A H 0.6681 0.4430 0.1554
S1A S 0.49929(6) 0.50713(8) 0.172737(13)
C4A C 0.5918(3) 0.4229(4) 0.18595(6)
H3A H 0.6142 0.3884 0.1949
C5A C 0.5266(3) 0.4485(4) 0.19350(6)
C6A C 0.4819(2) 0.4317(4) 0.21664(6)
O4A O 0.49741(17) 0.37832(24) 0.22963(4)
O5A O 0.43323(18) 0.47208(25) 0.22073(4)
O6A O 0.4519(2) 0.5110(3) 0.07682(4)
C9A C 0.4585(3) 0.4975(4) 0.05667(7)
H8A H 0.4960 0.5546 0.0480
N3A N 0.4225(3) 0.4180(4) 0.04525(7)
C10A C 0.4396(5) 0.4070(6) 0.02201(9)
H9A H 0.3988 0.3391 0.0175
H10A H 0.5078 0.4263 0.0199
H11A H 0.4238 0.4478 0.0126
C11A C 0.3369(5) 0.3323(7) 0.05421(11)
H12A H 0.3159 0.2787 0.0434
H13A H 0.2847 0.3469 0.0564
H14A H 0.3529 0.3140 0.0688
H1O H 0.662(3) 0.597(3) 0.0709(7)
Zn1B Zn 0.35660(4) 0.89868(3) 0.093600(7)
O1B O 0.3643(2) 1.0310(2) 0.0833
H1B H 0.399(4) 1.070(3) 0.0958(7)
O2B O 0.43627(26) 0.96864(18) 0.12326(4)
O3B O 0.4482(3) 1.1140(2) 0.12018(5)
C1B C 0.4580(4) 1.0514(3) 0.13056(6)
C2B C 0.5005(4) 1.0784(3) 0.15391(6)
C3B C 0.5465(4) 1.1685(3) 0.16326(6)
H2B H 0.5570 1.2251 0.1554
S1B S 0.49287(8) 0.99216(6) 0.172737(13)
C4B C 0.5771(4) 1.1689(3) 0.18595(6)
H3B H 0.6116 1.2258 0.1949
C5B C 0.5515(4) 1.0781(3) 0.19350(6)
C6B C 0.5683(4) 1.0502(3) 0.21664(6)
O4B O 0.62168(24) 1.11909(17) 0.22963(4)
O5B O 0.52792(25) 0.96115(17) 0.22073(4)
O6B O 0.4890(3) 0.9409(2) 0.07682(4)
C9B C 0.5025(4) 0.9610(3) 0.05667(7)
H8B H 0.4454 0.9414 0.0480
N3B N 0.5820(4) 1.0045(3) 0.04525(7)
C10B C 0.5930(6) 1.0326(4) 0.02201(9)
H9B H 0.6609 1.0597 0.0175
H10B H 0.5737 1.0815 0.0199
H11B H 0.5522 0.9760 0.0126
C11B C 0.6677(7) 1.0046(5) 0.05421(11)
H12B H 0.7213 1.0372 0.0434
H13B H 0.6531 0.9378 0.0564
H14B H 0.6860 1.0389 0.0688
H1Q H 0.403(3) 1.066(4) 0.0709(7)
Zn1DA Zn 0.56535(3) 0.87541(3) 0.239733(7)
O2DA O 0.63531(18) 0.86570(19) 0.21007(4)
O3DA O 0.7807(2) 0.9991(2) 0.21315(5)
C1DA C 0.7181(3) 0.9267(3) 0.20277(6)
C2DA C 0.7451(3) 0.9112(3) 0.17942(6)
C3DA C 0.8352(3) 0.9553(3) 0.17007(6)
H2DA H 0.8918 1.0014 0.1779
S1DA S 0.65883(6) 0.83262(6) 0.160596(13)
C4DA C 0.8356(3) 0.9251(3) 0.14738(6)
H3DA H 0.8925 0.9475 0.1384
C5DA C 0.7448(3) 0.8599(3) 0.13983(6)
C6DA C 0.7169(3) 0.8152(2) 0.11669(6)
O4DA O 0.78576(17) 0.83074(17) 0.10370(4)
O5DA O 0.62782(17) 0.76656(18) 0.11260(4)
N1DA N 0.4280(2) 0.7493(2) 0.22838(4)
C7DA C 0.4246(2) 0.7459(2) 0.20277(5)
H4DA H 0.4784 0.7379 0.1969
H5DA H 0.4332 0.8078 0.1968
C8DA C 0.4144(2) 0.6553(2) 0.23654(5)
H6DA H 0.4688 0.6475 0.2311
H7DA H 0.4152 0.6553 0.2534
N2DA N 0.3334 0.6666 0.19464(8)
O6DA O 0.6076(2) 0.7852(2) 0.25651(4)
C9DA C 0.6277(3) 0.7918(3) 0.27666(7)
H8DA H 0.6081 0.8293 0.2853
N3DA N 0.6712(3) 0.7558(3) 0.28808(7)
C10DA C 0.6993(4) 0.7729(5) 0.31132(9)
H9DA H 0.7264 0.7321 0.3158
H10DA H 0.7482 0.8411 0.3134
H11DA H 0.6427 0.7571 0.3207
C11DA C 0.6713(5) 0.6702(5) 0.27912(11)
H12DA H 0.7039 0.6492 0.2899
H13DA H 0.6045 0.6180 0.2769
H14DA H 0.7056 0.6862 0.2645
N1EA N 0.2507(2) 0.6786(3) 0.22838(4)
C7EA C 0.2541(2) 0.6786(3) 0.20277(5)
H4EA H 0.2621 0.7404 0.1969
H5EA H 0.1922 0.6253 0.1968
C8EA C 0.3447(2) 0.7590(3) 0.23654(5)
H6EA H 0.3525 0.8212 0.2311
H7EA H 0.3447 0.7598 0.2534
N1FA N 0.3214(3) 0.5720(2) 0.22838(4)
C7FA C 0.3214(3) 0.5754(2) 0.20277(5)
H4FA H 0.2596 0.5216 0.1969
H5FA H 0.3747 0.5668 0.1968
C8FA C 0.2410(3) 0.5856(2) 0.23654(5)
H6FA H 0.1788 0.5312 0.2311
H7FA H 0.2402 0.5848 0.2534
Zn1EA Zn 0.12459(3) 0.68993(4) 0.239733(7)
O2EA O 0.13430(19) 0.76960(26) 0.21007(4)
O3EA O 0.0009(2) 0.7815(3) 0.21315(5)
C1EA C 0.0733(3) 0.7913(4) 0.20277(6)
C2EA C 0.0888(3) 0.8338(4) 0.17942(6)
C3EA C 0.0447(3) 0.8798(4) 0.17007(6)
H2EA H -0.0014 0.8903 0.1779
S1EA S 0.16738(6) 0.82620(8) 0.160596(13)
C4EA C 0.0749(3) 0.9104(4) 0.14738(6)
H3EA H 0.0525 0.9449 0.1384
C5EA C 0.1401(3) 0.8848(4) 0.13983(6)
C6EA C 0.1848(2) 0.9016(4) 0.11669(6)
O4EA O 0.16926(17) 0.95501(24) 0.10370(4)
O5EA O 0.23344(18) 0.86125(25) 0.11260(4)
O6EA O 0.2148(2) 0.8223(3) 0.25651(4)
C9EA C 0.2082(3) 0.8358(4) 0.27666(7)
H8EA H 0.1707 0.7787 0.2853
N3EA N 0.2442(3) 0.9153(4) 0.28808(7)
C10EA C 0.2271(5) 0.9263(6) 0.31132(9)
H9EA H 0.2679 0.9942 0.3158
H10EA H 0.1589 0.9070 0.3134
H11EA H 0.2429 0.8855 0.3207
C11EA C 0.3298(5) 1.0010(7) 0.27912(11)
H12EA H 0.3508 1.0546 0.2899
H13EA H 0.3820 0.9864 0.2769
H14EA H 0.3138 1.0193 0.2645
Zn1FA Zn 0.31007(4) 0.43465(3) 0.239733(7)
O2FA O 0.23040(26) 0.36469(18) 0.21007(4)
O3FA O 0.2185(3) 0.2193(2) 0.21315(5)
C1FA C 0.2087(4) 0.2819(3) 0.20277(6)
C2FA C 0.1662(4) 0.2549(3) 0.17942(6)
C3FA C 0.1202(4) 0.1648(3) 0.17007(6)
H2FA H 0.1097 0.1082 0.1779
S1FA S 0.17380(8) 0.34117(6) 0.160596(13)
C4FA C 0.0896(4) 0.1644(3) 0.14738(6)
H3FA H 0.0551 0.1075 0.1384
C5FA C 0.1152(4) 0.2552(3) 0.13983(6)
C6FA C 0.0984(4) 0.2831(3) 0.11669(6)
O4FA O 0.04499(24) 0.21424(17) 0.10370(4)
O5FA O 0.13875(25) 0.37218(17) 0.11260(4)
O6FA O 0.1777(3) 0.3924(2) 0.25651(4)
C9FA C 0.1642(4) 0.3723(3) 0.27666(7)
H8FA H 0.2213 0.3919 0.2853
N3FA N 0.0847(4) 0.3288(3) 0.28808(7)
C10FA C 0.0737(6) 0.3007(4) 0.31132(9)
H9FA H 0.0058 0.2736 0.3158
H10FA H 0.0930 0.2518 0.3134
H11FA H 0.1145 0.3573 0.3207
C11FA C -0.0010(7) 0.3287(5) 0.27912(11)
H12FA H -0.0546 0.2961 0.2899
H13FA H 0.0136 0.3955 0.2769
H14FA H -0.0193 0.2944 0.2645
Zn1O Zn 0.79125(3) 0.76799(3) 0.073067(7)
Zn1P Zn -0.02327(4) 0.20875(3) 0.073067(7)
Zn1Q Zn 0.23201(3) 1.02327(4) 0.073067(7)
Zn1AA Zn -0.12459(3) 0.56535(3) 0.260267(7)
Zn1BA Zn 0.68993(4) 1.12459(3) 0.260267(7)
Zn1CA Zn 0.43465(3) 0.31007(4) 0.260267(7)
O1DA O 0.6977(2) 1.0000 0.2500
O1EA O -0.0000 0.6976(2) 0.2500
O1FA O 0.3024(2) 0.3023(2) 0.2500
O4C O 0.50259(17) 0.88091(17) 0.27037(4)
O4D O 0.37832(24) 0.49741(17) 0.27037(4)
O4E O 0.11909(17) 0.62168(24) 0.27037(4)
O4GA O 0.16408(17) 0.45242(17) 0.06296(4)
O4HA O 0.28835(24) 0.83592(17) 0.06296(4)
O4IA O 0.54758(17) 0.71165(24) 0.06296(4)
O7 O -0.3333 0.3333 0.12373(18)
O8? O -0.330(3) 0.304(2) 0.1059(4)
O9? O -0.2978(13) 0.3689(13) 0.0833
O10? O -0.217(2) 0.450(2) 0.0750(5)
O11? O -0.3333 0.3333 0.0938(16)
loop_
_geom_bond_atom_site_label_1
_geom_bond_atom_site_label_2
_geom_bond_site_symmetry_1
_geom_bond_site_symmetry_2
Zn1 O1 1_555 1_555
O1 H1 1_555 1_555
O2 Zn1 1_555 1_555
O3 C1 1_555 1_555
C1 O2 1_555 1_555
C2 C1 1_555 1_555
C3 C2 1_555 1_555
H2 C3 1_555 1_555
S1 C2 1_555 1_555
C4 C3 1_555 1_555
H3 C4 1_555 1_555
C5 S1 1_555 1_555
C6 C5 1_555 1_555
O4 C6 1_555 1_555
O5 C6 1_555 1_555
N1 Zn1 1_555 1_555
C7 N1 1_555 1_555
H4 C7 1_555 1_555
H5 C7 1_555 1_555
C8 N1 1_555 1_555
H6 C8 1_555 1_555
H7 C8 1_555 1_555
N2 C7 1_555 1_555
O6 Zn1 1_555 1_555
C9 O6 1_555 1_555
H8 C9 1_555 1_555
N3 C9 1_555 1_555
C10 N3 1_555 1_555
H9 C10 1_555 1_555
H10 C10 1_555 1_555
H11 C10 1_555 1_555
C11 N3 1_555 1_555
H12 C11 1_555 1_555
H13 C11 1_555 1_555
H14 C11 1_555 1_555
H1P O1 1_555 1_555
N1A C7A 1_555 1_555
C7A N2 1_555 1_555
H4A C7A 1_555 1_555
H5A C7A 1_555 1_555
C8A N1 1_555 1_555
H6A C8A 1_555 1_555
H7A C8A 1_555 1_555
N1B C8 1_555 1_555
C7B N2 1_555 1_555
H4B C7B 1_555 1_555
H5B C7B 1_555 1_555
C8B N1A 1_555 1_555
H6B C8B 1_555 1_555
H7B C8B 1_555 1_555
Zn1A N1A 1_555 1_555
O1A Zn1A 1_555 1_555
H1A O1A 1_555 1_555
O2A Zn1A 1_555 1_555
O3A C1A 1_555 1_555
C1A O2A 1_555 1_555
C2A C1A 1_555 1_555
C3A C2A 1_555 1_555
H2A C3A 1_555 1_555
S1A C2A 1_555 1_555
C4A C3A 1_555 1_555
H3A C4A 1_555 1_555
C5A S1A 1_555 1_555
C6A C5A 1_555 1_555
O4A C6A 1_555 1_555
O5A C6A 1_555 1_555
O6A Zn1A 1_555 1_555
C9A O6A 1_555 1_555
H8A C9A 1_555 1_555
N3A C9A 1_555 1_555
C10A N3A 1_555 1_555
H9A C10A 1_555 1_555
H10A C10A 1_555 1_555
H11A C10A 1_555 1_555
C11A N3A 1_555 1_555
H12A C11A 1_555 1_555
H13A C11A 1_555 1_555
H14A C11A 1_555 1_555
H1O O1A 1_555 1_555
Zn1B N1B 1_555 1_555
O1B Zn1B 1_555 1_555
H1B O1B 1_555 1_555
O2B Zn1B 1_555 1_555
O3B C1B 1_555 1_555
C1B O2B 1_555 1_555
C2B C1B 1_555 1_555
C3B C2B 1_555 1_555
H2B C3B 1_555 1_555
S1B C2B 1_555 1_555
C4B C3B 1_555 1_555
H3B C4B 1_555 1_555
C5B S1B 1_555 1_555
C6B C5B 1_555 1_555
O4B C6B 1_555 1_555
O5B C6B 1_555 1_555
O6B Zn1B 1_555 1_555
C9B O6B 1_555 1_555
H8B C9B 1_555 1_555
N3B C9B 1_555 1_555
C10B N3B 1_555 1_555
H9B C10B 1_555 1_555
H10B C10B 1_555 1_555
H11B C10B 1_555 1_555
C11B N3B 1_555 1_555
H12B C11B 1_555 1_555
H13B C11B 1_555 1_555
H14B C11B 1_555 1_555
H1Q O1B 1_555 1_555
Zn1DA O5B 1_555 1_555
O2DA Zn1DA 1_555 1_555
O3DA C1DA 1_555 1_555
C1DA O2DA 1_555 1_555
C2DA C1DA 1_555 1_555
C3DA C2DA 1_555 1_555
H2DA C3DA 1_555 1_555
S1DA C2DA 1_555 1_555
C4DA C3DA 1_555 1_555
H3DA C4DA 1_555 1_555
C5DA S1DA 1_555 1_555
C6DA C5DA 1_555 1_555
O4DA C6DA 1_555 1_555
O5DA Zn1A 1_555 1_555
N1DA Zn1DA 1_555 1_555
C7DA N1DA 1_555 1_555
H4DA C7DA 1_555 1_555
H5DA C7DA 1_555 1_555
C8DA N1DA 1_555 1_555
H6DA C8DA 1_555 1_555
H7DA C8DA 1_555 1_555
N2DA C7DA 1_555 1_555
O6DA Zn1DA 1_555 1_555
C9DA O6DA 1_555 1_555
H8DA C9DA 1_555 1_555
N3DA C9DA 1_555 1_555
C10DA N3DA 1_555 1_555
H9DA C10DA 1_555 1_555
H10DA C10DA 1_555 1_555
H11DA C10DA 1_555 1_555
C11DA N3DA 1_555 1_555
H12DA C11DA 1_555 1_555
H13DA C11DA 1_555 1_555
H14DA C11DA 1_555 1_555
N1EA C7EA 1_555 1_555
C7EA N2DA 1_555 1_555
H4EA C7EA 1_555 1_555
H5EA C7EA 1_555 1_555
C8EA N1DA 1_555 1_555
H6EA C8EA 1_555 1_555
H7EA C8EA 1_555 1_555
N1FA C8DA 1_555 1_555
C7FA N2DA 1_555 1_555
H4FA C7FA 1_555 1_555
H5FA C7FA 1_555 1_555
C8FA N1EA 1_555 1_555
H6FA C8FA 1_555 1_555
H7FA C8FA 1_555 1_555
Zn1EA O5 1_555 1_555
O2EA Zn1EA 1_555 1_555
O3EA C1EA 1_555 1_555
C1EA O2EA 1_555 1_555
C2EA C1EA 1_555 1_555
C3EA C2EA 1_555 1_555
H2EA C3EA 1_555 1_555
S1EA C2EA 1_555 1_555
C4EA C3EA 1_555 1_555
H3EA C4EA 1_555 1_555
C5EA S1EA 1_555 1_555
C6EA C5EA 1_555 1_555
O4EA C6EA 1_555 1_555
O5EA Zn1B 1_555 1_555
O6EA Zn1EA 1_555 1_555
C9EA O6EA 1_555 1_555
H8EA C9EA 1_555 1_555
N3EA C9EA 1_555 1_555
C10EA N3EA 1_555 1_555
H9EA C10EA 1_555 1_555
H10EA C10EA 1_555 1_555
H11EA C10EA 1_555 1_555
C11EA N3EA 1_555 1_555
H12EA C11EA 1_555 1_555
H13EA C11EA 1_555 1_555
H14EA C11EA 1_555 1_555
Zn1FA O5A 1_555 1_555
O2FA Zn1FA 1_555 1_555
O3FA C1FA 1_555 1_555
C1FA O2FA 1_555 1_555
C2FA C1FA 1_555 1_555
C3FA C2FA 1_555 1_555
H2FA C3FA 1_555 1_555
S1FA C2FA 1_555 1_555
C4FA C3FA 1_555 1_555
H3FA C4FA 1_555 1_555
C5FA S1FA 1_555 1_555
C6FA C5FA 1_555 1_555
O4FA C6FA 1_555 1_555
O5FA Zn1 1_555 1_555
O6FA Zn1FA 1_555 1_555
C9FA O6FA 1_555 1_555
H8FA C9FA 1_555 1_555
N3FA C9FA 1_555 1_555
C10FA N3FA 1_555 1_555
H9FA C10FA 1_555 1_555
H10FA C10FA 1_555 1_555
H11FA C10FA 1_555 1_555
C11FA N3FA 1_555 1_555
H12FA C11FA 1_555 1_555
H13FA C11FA 1_555 1_555
H14FA C11FA 1_555 1_555
Zn1O O1A 1_555 1_555
Zn1P O1 1_555 1_555
Zn1Q O1B 1_555 1_555
Zn1AA O4 1_555 1_555
Zn1BA O4B 1_555 1_555
Zn1CA O4A 1_555 1_555
O1DA Zn1DA 1_555 1_555
O1EA Zn1EA 1_555 1_555
O1FA Zn1FA 1_555 1_555
O4C Zn1DA 1_555 1_555
O4D Zn1FA 1_555 1_555
O4E Zn1EA 1_555 1_555
O4GA Zn1 1_555 1_555
O4HA Zn1B 1_555 1_555
O4IA Zn1A 1_555 1_555
C4 C5 1_555 1_555
N1A C8A 1_555 1_555
N1B C7B 1_555 1_555
N1B C8B 1_555 1_555
C4A C5A 1_555 1_555
C4B C5B 1_555 1_555
C4DA C5DA 1_555 1_555
C6DA O5DA 1_555 1_555
O4DA Zn1O 1_555 1_555
N1EA C8EA 1_555 1_555
N1EA Zn1EA 1_555 1_555
N1FA C7FA 1_555 1_555
N1FA C8FA 1_555 1_555
N1FA Zn1FA 1_555 1_555
C4EA C5EA 1_555 1_555
C6EA O5EA 1_555 1_555
O4EA Zn1Q 1_555 1_555
C4FA C5FA 1_555 1_555
C6FA O5FA 1_555 1_555
O4FA Zn1P 1_555 1_555
Zn1AA O1EA 1_555 1_555
Zn1BA O1DA 1_555 1_555
Zn1CA O1FA 1_555 1_555

#END
