
#######################################################################
#
#                 Cambridge Crystallographic Data Centre
#                                CCDC 
#
#######################################################################
#
# If this CIF has been generated from an entry in the Cambridge 
# Structural Database, then it will include bibliographic, chemical, 
# crystal, experimental, refinement or atomic coordinate data resulting 
# from the CCDC's data processing and validation procedures.
#
#######################################################################

data_KIDFOU
_symmetry_cell_setting           monoclinic
_symmetry_space_group_name_H-M   'C 2/c'
_symmetry_Int_Tables_number      15
_space_group_name_Hall           '-C 2yn'
loop_
_symmetry_equiv_pos_site_id
_symmetry_equiv_pos_as_xyz
1 x,y,z
2 -x,y,1/2-z
3 1/2+x,1/2+y,z
4 1/2-x,1/2+y,1/2-z
5 -x,-y,-z
6 x,-y,1/2+z
7 1/2-x,1/2-y,-z
8 1/2+x,1/2-y,1/2+z
_cell_length_a                   15.946(3)
_cell_length_b                   12.850(3)
_cell_length_c                   12.988(3)
_cell_angle_alpha                90
_cell_angle_beta                 105.911(4)
_cell_angle_gamma                90
_cell_volume                     2559.36
loop_
_atom_site_label
_atom_site_type_symbol
_atom_site_fract_x
_atom_site_fract_y
_atom_site_fract_z
Mn1 Mn 0.13112(3) 0.50288(4) 1.02137(4)
O1 O 0.10000(14) 0.65799(17) 1.0621(2)
O2 O -0.03552(14) 0.60879(18) 1.0501(2)
O3 O -0.26291(14) 0.88431(17) 1.0189(2)
O4 O -0.22228(14) 1.04334(18) 1.07551(19)
O5 O 0.08912(15) 1.12713(18) 1.1923(2)
O6 O 0.18527(14) 1.01348(18) 1.1773(2)
N1 N 0.13136(18) 0.5500(2) 0.6856(2)
N2 N 0.1606(2) 0.6452(2) 0.7288(3)
H1 H 0.1796 0.6952 0.6946
N3 N 0.12373(17) 0.5606(2) 0.8562(2)
N4 N 0.1798(2) 0.7314(3) 0.8939(3)
H2 H 0.2008 0.7876 0.8710
H3 H 0.1748 0.7290 0.9596
N5 N 0.10978(17) 1.0391(2) 1.1704(2)
C1 C 0.1562(2) 0.6513(3) 0.8299(3)
C2 C 0.1103(2) 0.5035(3) 0.7658(3)
H4 H 0.0875 0.4348 0.7603
C3 C -0.0007(2) 0.7872(2) 1.0806(3)
C4 C -0.0882(2) 0.8169(3) 1.0611(3)
H5 H -0.1329 0.7665 1.0370
C5 C -0.11037(19) 0.9190(3) 1.0767(3)
C6 C -0.0450(2) 0.9927(2) 1.1136(3)
H6 H -0.0591 1.0628 1.1252
C7 C 0.0408(2) 0.9614(3) 1.1330(3)
C8 C 0.0648(2) 0.8598(2) 1.1167(3)
H7 H 0.1244 0.8410 1.1300
C9 C 0.0222(2) 0.6764(2) 1.0616(3)
C10 C -0.2044(2) 0.9510(3) 1.0560(3)
Mn1B Mn -0.36888(3) 1.00288(4) 1.02137(4)
Mn1D Mn -0.13112(3) 0.49712(4) 0.97863(4)
Mn1E Mn 0.13112(3) 0.49712(4) 0.52137(4)
O2D O 0.03552(14) 0.39121(18) 0.9499(2)
O3B O 0.23709(14) 0.38431(17) 1.0189(2)
O4B O 0.27772(14) 0.54334(18) 1.07551(19)
N1E N 0.13136(18) 0.4500(2) 1.1856(2)
O7 O 0.27683(19) 0.2125(2) 0.1878(3)
H8 H 0.2717 0.2054 0.1213
H9 H 0.2770 0.1508 0.2118
loop_
_geom_bond_atom_site_label_1
_geom_bond_atom_site_label_2
_geom_bond_site_symmetry_1
_geom_bond_site_symmetry_2
Mn1 O1 1_555 1_555
O1 C9 1_555 1_555
O2 C9 1_555 1_555
O3 C10 1_555 1_555
O4 C10 1_555 1_555
O5 N5 1_555 1_555
O6 N5 1_555 1_555
N1 N2 1_555 1_555
N2 H1 1_555 1_555
N3 Mn1 1_555 1_555
N4 H2 1_555 1_555
H3 N4 1_555 1_555
N5 C7 1_555 1_555
C1 N2 1_555 1_555
C2 N1 1_555 1_555
H4 C2 1_555 1_555
C3 C4 1_555 1_555
C4 H5 1_555 1_555
C5 C4 1_555 1_555
C6 C5 1_555 1_555
H6 C6 1_555 1_555
C7 C6 1_555 1_555
C8 C3 1_555 1_555
H7 C8 1_555 1_555
C9 C3 1_555 1_555
C10 C5 1_555 1_555
O7 H8 1_555 1_555
H9 O7 1_555 1_555
Mn1B O3 1_555 1_555
Mn1D O2 1_555 1_555
Mn1E N1 1_555 1_555
O2D Mn1 1_555 1_555
O3B Mn1 1_555 1_555
O4B Mn1 1_555 1_555
N1E Mn1 1_555 1_555
O4 Mn1B 1_555 1_555
N3 C1 1_555 1_555
N3 C2 1_555 1_555
N4 C1 1_555 1_555
C7 C8 1_555 1_555

#END
