
#######################################################################
#
#                 Cambridge Crystallographic Data Centre
#                                CCDC 
#
#######################################################################
#
# If this CIF has been generated from an entry in the Cambridge 
# Structural Database, then it will include bibliographic, chemical, 
# crystal, experimental, refinement or atomic coordinate data resulting 
# from the CCDC's data processing and validation procedures.
#
#######################################################################

data_KIDHAI
_symmetry_cell_setting           triclinic
_symmetry_space_group_name_H-M   'P -1'
_symmetry_Int_Tables_number      2
_space_group_name_Hall           '-P 1'
loop_
_symmetry_equiv_pos_site_id
_symmetry_equiv_pos_as_xyz
1 x,y,z
2 -x,-y,-z
_cell_length_a                   9.7550(10)
_cell_length_b                   10.3996(11)
_cell_length_c                   10.9516(11)
_cell_angle_alpha                77.622(2)
_cell_angle_beta                 89.602(2)
_cell_angle_gamma                87.610(2)
_cell_volume                     1084.25
loop_
_atom_site_label
_atom_site_type_symbol
_atom_site_fract_x
_atom_site_fract_y
_atom_site_fract_z
Mo1 Mo 0.58017(3) 0.52368(3) 0.63276(3)
Mo2 Mo 0.83645(3) 0.31083(3) 0.61750(3)
Mo3 Mo 0.80371(3) 0.58251(3) 0.38361(3)
Mo4 Mo 0.53432(4) 0.77628(3) 0.36793(3)
Cu1 Cu 0.5000 0.5000 1.0000
Cu2 Cu 1.0000 0.0000 0.5000
N1 N 0.2548(4) 0.8362(4) 0.9352(3)
N2 N 0.2490(4) 0.8181(4) 0.8160(3)
N3 N 0.3720(4) 0.6537(3) 0.9354(3)
N4 N 1.1201(4) 0.3059(3) 0.2334(3)
N5 N 1.2313(4) 0.2293(4) 0.2225(4)
N6 N 1.0933(4) 0.1305(3) 0.3732(3)
C1 C 0.3197(5) 0.7083(5) 0.8205(4)
H1 H 0.3331 0.6706 0.7514
C2 C 0.3267(4) 0.7371(4) 1.0051(4)
H2 H 0.3432 0.7270 1.0902
C3 C 0.1866(6) 0.9492(5) 0.9722(5)
H3 H 0.2115 1.0290 0.9141
H4 H 0.2192 0.9544 1.0544
C4 C 0.0328(5) 0.9427(5) 0.9756(5)
H5 H 0.0074 0.8602 1.0290
H6 H -0.0012 0.9451 0.8921
C5 C 1.0118(5) 0.4312(4) 0.0405(4)
H7 H 0.9243 0.3941 0.0675
H8 H 1.0584 0.3746 -0.0078
C6 C 1.0974(5) 0.4370(4) 0.1531(4)
H9 H 1.1851 0.4735 0.1258
H10 H 1.0512 0.4947 0.2005
C7 C 1.2124(5) 0.1244(5) 0.3093(6)
H11 H 1.2744 0.0524 0.3259
C8 C 1.0379(5) 0.2469(4) 0.3212(4)
H12 H 0.9541 0.2815 0.3430
O1 O 0.5690(3) 0.4919(3) 0.7924(3)
O2 O 0.8608(3) 0.1629(3) 0.5766(3)
O3 O 0.8590(3) 0.2780(3) 0.7742(3)
O4 O 0.7957(3) 0.6136(3) 0.2250(3)
O5 O 0.4822(4) 0.9215(3) 0.4000(4)
O6 O 0.5417(3) 0.8077(4) 0.2085(3)
O7 O 0.5251(3) 0.6872(3) 0.5858(3)
O8 O 0.8189(3) 0.4075(3) 0.4207(3)
O9 O 0.7235(3) 0.7552(3) 0.4070(3)
O10 O 0.9758(3) 0.6255(3) 0.4142(3)
O11 O 0.6373(3) 0.3205(3) 0.6171(3)
O12 O 0.7672(3) 0.5248(3) 0.5988(3)
O13 O 0.4125(3) 0.4423(3) 0.5910(3)
O14 O 0.3592(3) 0.3706(3) 0.9887(3)
H13 H 0.3045 0.4025 0.9287
H14 H 0.3986 0.3003 0.9757
O15 O 1.1369(3) 0.0221(3) 0.6247(3)
H15 H 1.2069 -0.0282 0.6205
H16 H 1.1603 0.1018 0.6093
N1A N -0.2548(4) 1.1638(4) 1.0648(3)
N2A N -0.2490(4) 1.1819(4) 1.1840(3)
N3A N -0.3720(4) 1.3463(3) 1.0646(3)
C1A C -0.3197(5) 1.2917(5) 1.1795(4)
H1A H -0.3331 1.3294 1.2486
C2A C -0.3267(4) 1.2629(4) 0.9949(4)
H2A H -0.3432 1.2730 0.9098
C3A C -0.1866(6) 1.0508(5) 1.0278(5)
H3A H -0.2115 0.9710 1.0859
H4A H -0.2192 1.0456 0.9456
C4A C -0.0328(5) 1.0573(5) 1.0244(5)
H5A H -0.0074 1.1398 0.9710
H6A H 0.0012 1.0549 1.1079
N4A N 0.8799(4) 0.6941(3) -0.2334(3)
N5A N 0.7687(4) 0.7707(4) -0.2225(4)
N6A N 0.9067(4) 0.8695(3) -0.3732(3)
C5A C 0.9882(5) 0.5688(4) -0.0405(4)
H7A H 1.0757 0.6059 -0.0675
H8A H 0.9416 0.6254 0.0078
C6A C 0.9026(5) 0.5630(4) -0.1531(4)
H9A H 0.8149 0.5265 -0.1258
H10A H 0.9488 0.5053 -0.2005
C7A C 0.7876(5) 0.8756(5) -0.3093(6)
H11A H 0.7256 0.9476 -0.3259
C8A C 0.9621(5) 0.7531(4) -0.3212(4)
H12A H 1.0459 0.7185 -0.3430
Mo1A Mo 0.41983(3) 0.47632(3) 0.36724(3)
Mo2A Mo 0.16355(3) 0.68917(3) 0.38250(3)
Mo3A Mo 0.19629(3) 0.41749(3) 0.61639(3)
Mo4A Mo 0.46568(4) 0.22372(3) 0.63207(3)
O1A O 0.4310(3) 0.5081(3) 0.2076(3)
O2A O 0.1392(3) 0.8371(3) 0.4234(3)
O3A O 0.1410(3) 0.7220(3) 0.2258(3)
O4A O 0.2043(3) 0.3864(3) 0.7750(3)
O5A O 0.5178(4) 0.0785(3) 0.6000(4)
O6A O 0.4583(3) 0.1923(4) 0.7915(3)
O7A O 0.4749(3) 0.3128(3) 0.4142(3)
O8A O 0.1811(3) 0.5925(3) 0.5793(3)
O9A O 0.2765(3) 0.2448(3) 0.5930(3)
O10A O 0.0242(3) 0.3745(3) 0.5858(3)
O11A O 0.3627(3) 0.6795(3) 0.3829(3)
O12A O 0.2328(3) 0.4752(3) 0.4012(3)
O13A O 0.5875(3) 0.5577(3) 0.4090(3)
O14A O 0.6408(3) 0.6294(3) 1.0113(3)
H13A H 0.6955 0.5975 1.0713
H14A H 0.6014 0.6997 1.0243
O15A O 0.8631(3) -0.0221(3) 0.3753(3)
H15A H 0.7931 0.0282 0.3795
H16A H 0.8397 -0.1018 0.3907
Mo2_2 Mo -0.16355(3) 0.31083(3) 0.61750(3)
Mo2A_2 Mo 1.16355(3) 0.68917(3) 0.38250(3)
Cu1_2 Cu -0.5000 1.5000 1.0000
Cu1_3 Cu 0.5000 0.5000 0.0000
Cu2_2 Cu 0.0000 1.0000 0.5000
Cu2_3 Cu 1.0000 1.0000 -0.5000
N3A_2 N 0.6280(4) 0.3463(3) 1.0646(3)
N6A_2 N 0.9067(4) -0.1305(3) 0.6268(3)
O1A_2 O 0.4310(3) 0.5081(3) 1.2076(3)
O2A_2 O 1.1392(3) -0.1629(3) 0.4234(3)
O10_2 O -0.0242(3) 0.6255(3) 0.4142(3)
O10A_2 O 1.0242(3) 0.3745(3) 0.5858(3)
O16 O 0.4325(10) 0.0725(10) 0.0967(11)
H17 H 0.4183 0.1232 0.1473
H18 H 0.5182 0.0647 0.0837
loop_
_geom_bond_atom_site_label_1
_geom_bond_atom_site_label_2
_geom_bond_site_symmetry_1
_geom_bond_site_symmetry_2
Mo1 O1 1_555 1_555
Mo2 O2 1_555 1_555
Mo3 O4 1_555 1_555
Mo4 O5 1_555 1_555
Cu1 N3 1_555 1_555
Cu2 N6 1_555 1_555
N1 N2 1_555 1_555
N2 C1 1_555 1_555
N3 C1 1_555 1_555
N4 N5 1_555 1_555
N5 C7 1_555 1_555
N6 C7 1_555 1_555
C1 H1 1_555 1_555
C2 N1 1_555 1_555
H2 C2 1_555 1_555
C3 N1 1_555 1_555
H3 C3 1_555 1_555
H4 C3 1_555 1_555
C4 C3 1_555 1_555
H5 C4 1_555 1_555
H6 C4 1_555 1_555
C5 H7 1_555 1_555
H8 C5 1_555 1_555
C6 N4 1_555 1_555
H9 C6 1_555 1_555
H10 C6 1_555 1_555
C7 H11 1_555 1_555
C8 N4 1_555 1_555
H12 C8 1_555 1_555
O1 Cu1 1_555 1_555
O2 Cu2 1_555 1_555
O3 Mo2 1_555 1_555
O6 Mo4 1_555 1_555
O7 Mo1 1_555 1_555
O8 Mo2 1_555 1_555
O9 Mo3 1_555 1_555
O10 Mo3 1_555 1_555
O11 Mo1 1_555 1_555
O12 Mo1 1_555 1_555
O13 Mo1 1_555 1_555
O14 Cu1 1_555 1_555
H13 O14 1_555 1_555
H14 O14 1_555 1_555
O15 Cu2 1_555 1_555
H15 O15 1_555 1_555
H16 O15 1_555 1_555
O16 H17 1_555 1_555
H18 O16 1_555 1_555
N1A N2A 1_555 1_555
N2A C1A 1_555 1_555
N3A C1A 1_555 1_555
C1A H1A 1_555 1_555
C2A N1A 1_555 1_555
H2A C2A 1_555 1_555
C3A N1A 1_555 1_555
H3A C3A 1_555 1_555
H4A C3A 1_555 1_555
C4A C4 1_555 1_555
H5A C4A 1_555 1_555
H6A C4A 1_555 1_555
N4A N5A 1_555 1_555
N5A C7A 1_555 1_555
N6A C7A 1_555 1_555
C5A C5 1_555 1_555
H7A C5A 1_555 1_555
H8A C5A 1_555 1_555
C6A N4A 1_555 1_555
H9A C6A 1_555 1_555
H10A C6A 1_555 1_555
C7A H11A 1_555 1_555
C8A N4A 1_555 1_555
H12A C8A 1_555 1_555
Mo1A O13 1_555 1_555
Mo2A O2A 1_555 1_555
Mo3A O13 1_555 1_555
Mo4A O11 1_555 1_555
O1A Mo1A 1_555 1_555
O2A Cu2_2 1_555 1_555
O3A Mo2A 1_555 1_555
O4A Mo3A 1_555 1_555
O5A Mo4A 1_555 1_555
O6A Mo4A 1_555 1_555
O7A Mo1A 1_555 1_555
O8A Mo2A 1_555 1_555
O9A Mo3A 1_555 1_555
O10A Mo3A 1_555 1_555
O11A Mo4 1_555 1_555
O12A Mo1A 1_555 1_555
O13A Mo1 1_555 1_555
O14A Cu1 1_555 1_555
H13A O14A 1_555 1_555
H14A O14A 1_555 1_555
O15A Cu2 1_555 1_555
H15A O15A 1_555 1_555
H16A O15A 1_555 1_555
Mo2_2 O10A 1_555 1_555
Mo2A_2 O10 1_555 1_555
Cu1_2 N3A 1_555 1_555
Cu1_3 O1A 1_555 1_555
Cu2_3 N6A 1_555 1_555
N3A_2 Cu1 1_555 1_555
N6A_2 Cu2 1_555 1_555
O1A_2 Cu1 1_555 1_555
O2A_2 Cu2 1_555 1_555
O10_2 Mo2A 1_555 1_555
O10A_2 Mo2 1_555 1_555
Mo2 O11 1_555 1_555
Mo2 O12 1_555 1_555
Mo3 O8 1_555 1_555
Mo3 O12 1_555 1_555
Mo3 O13A 1_555 1_555
Mo4 O7 1_555 1_555
Mo4 O9 1_555 1_555
Mo4 O13A 1_555 1_555
N3 C2 1_555 1_555
N6 C8 1_555 1_555
C5 C6 1_555 1_555
O13 Mo4A 1_555 1_555
N3A C2A 1_555 1_555
C3A C4A 1_555 1_555
N6A C8A 1_555 1_555
C5A C6A 1_555 1_555
Mo1A O11A 1_555 1_555
Mo1A O13A 1_555 1_555
Mo2A O11A 1_555 1_555
Mo2A O12A 1_555 1_555
Mo3A O8A 1_555 1_555
Mo3A O12A 1_555 1_555
Mo4A O7A 1_555 1_555
Mo4A O9A 1_555 1_555

#END
