
#######################################################################
#
#                 Cambridge Crystallographic Data Centre
#                                CCDC 
#
#######################################################################
#
# If this CIF has been generated from an entry in the Cambridge 
# Structural Database, then it will include bibliographic, chemical, 
# crystal, experimental, refinement or atomic coordinate data resulting 
# from the CCDC's data processing and validation procedures.
#
#######################################################################

data_KIDLIT
_symmetry_cell_setting           triclinic
_symmetry_space_group_name_H-M   'P -1'
_symmetry_Int_Tables_number      2
_space_group_name_Hall           '-P 1'
loop_
_symmetry_equiv_pos_site_id
_symmetry_equiv_pos_as_xyz
1 x,y,z
2 -x,-y,-z
_cell_length_a                   7.8091(18)
_cell_length_b                   8.672(2)
_cell_length_c                   11.560(3)
_cell_angle_alpha                107.434(5)
_cell_angle_beta                 101.067(5)
_cell_angle_gamma                107.813(6)
_cell_volume                     675.531
loop_
_atom_site_label
_atom_site_type_symbol
_atom_site_fract_x
_atom_site_fract_y
_atom_site_fract_z
Co1 Co 0.80887(5) 1.00507(5) 0.53420(4)
C1 C 0.7534(4) 0.4695(3) 0.1125(3)
C2 C 0.4851(4) 0.2496(3) -0.0315(3)
C3 C 0.6718(4) 0.4310(3) -0.1035(3)
C4 C 0.8571(4) 0.5160(4) 0.3382(3)
H1 H 0.9548 0.4746 0.3635
H2 H 0.7355 0.4207 0.3138
C5 C 0.8709(4) 0.6684(4) 0.4524(3)
C6 C 0.2909(4) 0.0487(4) 0.0437(3)
H3 H 0.2626 0.1345 0.1042
H4 H 0.4022 0.0381 0.0889
C7 C 0.1249(4) -0.1266(4) -0.0107(3)
C8 C 0.5895(4) 0.4140(4) -0.3210(3)
H5 H 0.6117 0.5031 -0.3572
H6 H 0.4608 0.3814 -0.3176
C9 C 0.6060(4) 0.2534(4) -0.4103(3)
N1 N 0.5961(3) 0.3337(3) 0.0900(2)
N2 N 0.5148(3) 0.2908(3) -0.1328(2)
N3 N 0.7931(3) 0.5226(3) 0.0174(2)
N4 N 0.8756(3) 0.5572(3) 0.2280(2)
H7 H 0.9778 0.6504 0.2391
N5 N 0.3308(3) 0.1096(3) -0.0555(2)
H8 H 0.2499 0.0515 -0.1355
N6 N 0.7155(3) 0.4887(3) -0.1923(2)
H9 H 0.8276 0.5771 -0.1715
O1 O 0.9105(3) 0.8197(2) 0.44323(18)
O2 O 0.8432(3) 0.6393(3) 0.5456(2)
O3 O 0.0889(3) -0.1849(3) 0.0743(2)
H10 H -0.0050 -0.2829 0.0388
O4 O 0.0379(3) -0.1972(3) -0.1256(2)
O5 O 0.4754(3) 0.1676(3) -0.51538(19)
O6 O 0.7460(3) 0.2168(2) -0.37437(19)
O7 O 0.6865(3) 1.0147(3) 0.3606(2)
H11 H 0.6188 0.9110 0.3068
H12 H 0.6205 1.0721 0.3709
O8 O 0.9158(3) 0.9852(3) 0.70154(19)
H13 H 0.8604 1.0215 0.7539
H14 H 0.8984 0.8826 0.6889
Co1A Co 1.19113(5) 0.99493(5) 0.46580(4)
Co1A_2 Co 0.19113(5) -0.00507(5) -0.53420(4)
Co1_2 Co 0.80887(5) 0.00507(5) -0.46580(4)
O1A O 1.0895(3) 1.1803(2) 0.55677(18)
O5A O 0.5246(3) 0.8324(3) 0.51538(19)
O6_2 O 0.7460(3) 1.2168(2) 0.62563(19)
loop_
_geom_bond_atom_site_label_1
_geom_bond_atom_site_label_2
_geom_bond_site_symmetry_1
_geom_bond_site_symmetry_2
Co1 O1 1_555 1_555
C1 N1 1_555 1_555
C2 N1 1_555 1_555
C3 N2 1_555 1_555
C4 H1 1_555 1_555
H2 C4 1_555 1_555
C5 C4 1_555 1_555
C6 H3 1_555 1_555
H4 C6 1_555 1_555
C7 C6 1_555 1_555
C8 H5 1_555 1_555
H6 C8 1_555 1_555
C9 C8 1_555 1_555
N2 C2 1_555 1_555
N3 C1 1_555 1_555
N4 C1 1_555 1_555
H7 N4 1_555 1_555
N5 C2 1_555 1_555
H8 N5 1_555 1_555
N6 C3 1_555 1_555
H9 N6 1_555 1_555
O1 C5 1_555 1_555
O2 C5 1_555 1_555
O3 C7 1_555 1_555
H10 O3 1_555 1_555
O4 C7 1_555 1_555
O5 C9 1_555 1_555
O6 C9 1_555 1_555
O7 Co1 1_555 1_555
H11 O7 1_555 1_555
H12 O7 1_555 1_555
O8 Co1 1_555 1_555
H13 O8 1_555 1_555
H14 O8 1_555 1_555
Co1A O1 1_555 1_555
Co1A_2 O5 1_555 1_555
Co1_2 O6 1_555 1_555
O1A Co1 1_555 1_555
O5A Co1 1_555 1_555
O6_2 Co1 1_555 1_555
C3 N3 1_555 1_555
C4 N4 1_555 1_555
C6 N5 1_555 1_555
C8 N6 1_555 1_555
Co1A O1A 1_555 1_555

#END
