
#######################################################################
#
#                 Cambridge Crystallographic Data Centre
#                                CCDC 
#
#######################################################################
#
# If this CIF has been generated from an entry in the Cambridge 
# Structural Database, then it will include bibliographic, chemical, 
# crystal, experimental, refinement or atomic coordinate data resulting 
# from the CCDC's data processing and validation procedures.
#
#######################################################################

data_KIDMOB
_symmetry_cell_setting           orthorhombic
_symmetry_space_group_name_H-M   'P b c m'
_symmetry_Int_Tables_number      57
_space_group_name_Hall           '-P 2c 2b'
loop_
_symmetry_equiv_pos_site_id
_symmetry_equiv_pos_as_xyz
1 x,y,z
2 -x,-y,1/2+z
3 -x,1/2+y,1/2-z
4 x,1/2-y,-z
5 -x,-y,-z
6 x,y,1/2-z
7 x,1/2-y,1/2+z
8 -x,1/2+y,z
_cell_length_a                   5.9661(3)
_cell_length_b                   8.8937(4)
_cell_length_c                   23.1707(11)
_cell_angle_alpha                90
_cell_angle_beta                 90
_cell_angle_gamma                90
_cell_volume                     1229.45
loop_
_atom_site_label
_atom_site_type_symbol
_atom_site_fract_x
_atom_site_fract_y
_atom_site_fract_z
Ag1 Ag 0.0000 0.0000 0.5000
S1 S 0.30928(10) 0.30999(7) 0.2500
O1 O 0.5503(3) 0.3071(3) 0.2500
O2 O 0.1950(4) 0.4514(2) 0.2500
N1 N 0.0847(3) 0.07082(19) 0.41184(7)
C1 C -0.0522(3) 0.1641(3) 0.38384(9)
H1 H -0.1936 0.1820 0.3992
C2 C 0.0058(3) 0.2353(2) 0.33307(9)
H2 H -0.0939 0.2991 0.3143
C3 C 0.2165(3) 0.20853(18) 0.31125(7)
C4 C 0.3596(3) 0.1107(2) 0.33879(7)
H3 H 0.5008 0.0898 0.3238
C5 C 0.2871(3) 0.0448(2) 0.38933(8)
H4 H 0.3833 -0.0206 0.4085
N1E N 0.0847(3) 0.07082(19) 0.08816(7)
C1E C -0.0522(3) 0.1641(3) 0.11616(9)
H1E H -0.1936 0.1820 0.1008
C2E C 0.0058(3) 0.2353(2) 0.16693(9)
H2E H -0.0939 0.2991 0.1857
C3E C 0.2165(3) 0.20853(18) 0.18875(7)
C4E C 0.3596(3) 0.1107(2) 0.16121(7)
H3E H 0.5008 0.0898 0.1762
C5E C 0.2871(3) 0.0448(2) 0.11067(8)
H4E H 0.3833 -0.0206 0.0915
Ag1A Ag 0.0000 0.0000 0.0000
N1D N -0.0847(3) -0.07082(19) 0.58816(7)
N2 N 0.4729(4) 0.2500 0.5000
O3 O 0.3694(3) 0.16840(19) 0.53442(7)
O4 O 0.6811(4) 0.2500 0.5000
O3C O 0.3694(3) 0.33160(19) 0.46558(7)
loop_
_geom_bond_atom_site_label_1
_geom_bond_atom_site_label_2
_geom_bond_site_symmetry_1
_geom_bond_site_symmetry_2
Ag1 N1 1_555 1_555
S1 O1 1_555 1_555
O2 S1 1_555 1_555
N1 C1 1_555 1_555
C1 H1 1_555 1_555
C2 C1 1_555 1_555
H2 C2 1_555 1_555
C3 S1 1_555 1_555
C4 C3 1_555 1_555
H3 C4 1_555 1_555
C5 N1 1_555 1_555
H4 C5 1_555 1_555
N2 O3 1_555 1_555
O4 N2 1_555 1_555
N1E C1E 1_555 1_555
C1E H1E 1_555 1_555
C2E C1E 1_555 1_555
H2E C2E 1_555 1_555
C3E S1 1_555 1_555
C4E C3E 1_555 1_555
H3E C4E 1_555 1_555
C5E N1E 1_555 1_555
H4E C5E 1_555 1_555
Ag1A N1E 1_555 1_555
N1D Ag1 1_555 1_555
O3C N2 1_555 1_555
C2 C3 1_555 1_555
C4 C5 1_555 1_555
C2E C3E 1_555 1_555
C4E C5E 1_555 1_555

#END
