
#######################################################################
#
#                 Cambridge Crystallographic Data Centre
#                                CCDC 
#
#######################################################################
#
# If this CIF has been generated from an entry in the Cambridge 
# Structural Database, then it will include bibliographic, chemical, 
# crystal, experimental, refinement or atomic coordinate data resulting 
# from the CCDC's data processing and validation procedures.
#
#######################################################################

data_KIDNOC
_symmetry_cell_setting           orthorhombic
_symmetry_space_group_name_H-M   'P b c a'
_symmetry_Int_Tables_number      61
_space_group_name_Hall           '-P 2ac 2ab'
loop_
_symmetry_equiv_pos_site_id
_symmetry_equiv_pos_as_xyz
1 x,y,z
2 1/2-x,-y,1/2+z
3 -x,1/2+y,1/2-z
4 1/2+x,1/2-y,-z
5 -x,-y,-z
6 1/2+x,y,1/2-z
7 x,1/2-y,1/2+z
8 1/2-x,1/2+y,z
_cell_length_a                   17.6097(5)
_cell_length_b                   9.6671(2)
_cell_length_c                   19.3083(5)
_cell_angle_alpha                90
_cell_angle_beta                 90
_cell_angle_gamma                90
_cell_volume                     3286.94
loop_
_atom_site_label
_atom_site_type_symbol
_atom_site_fract_x
_atom_site_fract_y
_atom_site_fract_z
Ag1 Ag 0.27589(5) 0.74926(5) 0.14665(3)
S1 S 0.27516(13) 0.26598(17) 0.39737(9)
O1 O 0.1965(4) 0.2120(6) 0.3976(3)
N1 N 0.2784(4) 0.5898(6) 0.2254(3)
N2 N 0.2795(4) 0.5878(6) 0.5700(3)
C1 C 0.2132(5) 0.5447(9) 0.2530(4)
H1 H 0.1677 0.5809 0.2366
C2 C 0.2107(5) 0.4470(8) 0.3046(4)
H2 H 0.1646 0.4173 0.3227
C3 C 0.2779(4) 0.3947(6) 0.3286(3)
C4 C 0.3451(5) 0.4362(8) 0.3005(4)
H3 H 0.3910 0.3993 0.3155
C5 C 0.3427(5) 0.5355(8) 0.2486(4)
H4 H 0.3882 0.5652 0.2292
C6 C 0.2785(4) 0.3939(6) 0.4656(3)
C7 C 0.2119(5) 0.4334(8) 0.4967(4)
H5 H 0.1658 0.3948 0.4833
C8 C 0.2151(5) 0.5316(9) 0.5483(4)
H6 H 0.1699 0.5598 0.5689
C9 C 0.3440(5) 0.5460(8) 0.5407(4)
H7 H 0.3895 0.5838 0.5561
C10 C 0.3460(4) 0.4484(7) 0.4883(4)
H8 H 0.3918 0.4205 0.4689
Ag1F Ag 0.27589(5) 0.75074(5) 0.64665(3)
N2F N 0.2795(4) 0.9122(6) 0.0700(3)
N3 N 0.1195(8) 0.7412(8) 0.1440(5)
C11 C 0.0594(9) 0.7483(10) 0.1312(9)
C12 C -0.0218(16) 0.761(3) 0.1171(16)
H9 H -0.0066 0.7531 0.0495
H10 H -0.0638 0.7486 0.1719
H11 H -0.0179 0.8685 0.1046
B1 B 0.5058(9) 0.195(2) 0.3796(11)
F1 F 0.4682(6) 0.1420(13) 0.3289(6)
F2 F 0.4846(7) 0.3088(14) 0.4056(6)
F3 F 0.5701(4) 0.1389(10) 0.3978(4)
F4 F 0.5493(18) 0.285(2) 0.3301(13)
F5? F 0.4545(14) 0.131(4) 0.4316(18)
loop_
_geom_bond_atom_site_label_1
_geom_bond_atom_site_label_2
_geom_bond_site_symmetry_1
_geom_bond_site_symmetry_2
Ag1 N1 1_555 1_555
S1 O1 1_555 1_555
N1 C1 1_555 1_555
N2 C8 1_555 1_555
C1 H1 1_555 1_555
C2 C1 1_555 1_555
H2 C2 1_555 1_555
C3 S1 1_555 1_555
C4 C3 1_555 1_555
H3 C4 1_555 1_555
C5 N1 1_555 1_555
H4 C5 1_555 1_555
C6 S1 1_555 1_555
C7 C6 1_555 1_555
H5 C7 1_555 1_555
C8 C7 1_555 1_555
H6 C8 1_555 1_555
C9 N2 1_555 1_555
H7 C9 1_555 1_555
C10 C6 1_555 1_555
H8 C10 1_555 1_555
N3 C11 1_555 1_555
C11 C12 1_555 1_555
C12 H9 1_555 1_555
H10 C12 1_555 1_555
H11 C12 1_555 1_555
B1 F1 1_555 1_555
F2 B1 1_555 1_555
F3 B1 1_555 1_555
F4 B1 1_555 1_555
Ag1F N2 1_555 1_555
N2F Ag1 1_555 1_555
C2 C3 1_555 1_555
C4 C5 1_555 1_555
C9 C10 1_555 1_555

#END
