
#######################################################################
#
#                 Cambridge Crystallographic Data Centre
#                                CCDC 
#
#######################################################################
#
# If this CIF has been generated from an entry in the Cambridge 
# Structural Database, then it will include bibliographic, chemical, 
# crystal, experimental, refinement or atomic coordinate data resulting 
# from the CCDC's data processing and validation procedures.
#
#######################################################################

data_KIDPUK
_symmetry_cell_setting           monoclinic
_symmetry_space_group_name_H-M   'P 21/c'
_symmetry_Int_Tables_number      14
_space_group_name_Hall           '-P 2ybc'
loop_
_symmetry_equiv_pos_site_id
_symmetry_equiv_pos_as_xyz
1 x,y,z
2 -x,1/2+y,1/2-z
3 -x,-y,-z
4 x,1/2-y,1/2+z
_cell_length_a                   10.0238(15)
_cell_length_b                   13.683(2)
_cell_length_c                   15.710(2)
_cell_angle_alpha                90
_cell_angle_beta                 106.576(2)
_cell_angle_gamma                90
_cell_volume                     2065.17
loop_
_atom_site_label
_atom_site_type_symbol
_atom_site_fract_x
_atom_site_fract_y
_atom_site_fract_z
Sn1 Sn 0.694305(19) 0.296510(14) 0.343340(13)
O1 O -0.1083(2) 0.24263(15) -0.05828(13)
O2 O -0.1793(2) 0.39650(15) -0.07930(15)
C1 C -0.0920(3) 0.3329(2) -0.04157(19)
C2 C 0.0372(3) 0.3648(2) 0.02524(19)
H1 H 0.0465 0.4322 0.0403
C3 C 0.1399(3) 0.3062(2) 0.06516(19)
H2 H 0.1302 0.2389 0.0501
N1 N 0.4732(2) 0.34636(18) 0.23346(16)
C4 C 0.4196(3) 0.4340(2) 0.21592(19)
H3 H 0.4639 0.4919 0.2435
N2 N 0.2959(2) 0.43267(18) 0.15483(15)
H4 H 0.250(3) 0.4846(15) 0.133(2)
C5 C 0.2654(3) 0.3365(2) 0.12970(19)
C6 C 0.3774(3) 0.2847(2) 0.1796(2)
H5 H 0.3874 0.2158 0.1773
C7 C 0.5653(3) 0.2493(2) 0.4219(2)
H6 H 0.6248 0.2394 0.4835
H7 H 0.4991 0.3026 0.4234
C8 C 0.4819(3) 0.1558(2) 0.3918(2)
H8 H 0.4269 0.1634 0.3289
H9 H 0.5476 0.1010 0.3950
C9 C 0.3841(3) 0.1298(2) 0.4461(2)
H10 H 0.3162 0.1834 0.4416
H11 H 0.4384 0.1234 0.5093
C10 C 0.3058(4) 0.0350(2) 0.4157(2)
H12 H 0.2456 0.0206 0.4535
H13 H 0.3725 -0.0184 0.4200
H14 H 0.2488 0.0419 0.3540
C11 C 0.7339(3) 0.2177(2) 0.2348(2)
H15 H 0.7859 0.1572 0.2580
H16 H 0.6439 0.1983 0.1927
C12 C 0.8163(4) 0.2763(3) 0.1851(2)
H17 H 0.7688 0.3396 0.1670
H18 H 0.8166 0.2405 0.1304
C13 C 0.9665(5) 0.2960(3) 0.2390(3)
H19 H 1.0083 0.3429 0.2059
H20 H 0.9665 0.3272 0.2958
C14 C 1.0547(5) 0.2069(4) 0.2582(3)
H21 H 1.1513 0.2256 0.2877
H22 H 1.0501 0.1730 0.2026
H23 H 1.0209 0.1635 0.2972
C15 C 0.7565(3) 0.4475(2) 0.3562(2)
H24 H 0.8592 0.4504 0.3701
H25 H 0.7174 0.4798 0.2980
C16 C 0.7129(4) 0.5054(3) 0.4262(3)
H26 H 0.7345 0.5752 0.4202
H27 H 0.6107 0.4996 0.4144
C17 C 0.7808(5) 0.4741(3) 0.5193(3)
H28 H 0.8827 0.4734 0.5288
H29 H 0.7517 0.4061 0.5264
C18 C 0.7507(6) 0.5352(3) 0.5906(3)
H30 H 0.8008 0.5086 0.6489
H31 H 0.6504 0.5344 0.5839
H32 H 0.7811 0.6025 0.5858
Sn1C Sn -0.305695(19) 0.203490(14) -0.156660(13)
O1C O 0.8917(2) 0.25737(15) 0.44172(13)
loop_
_geom_bond_atom_site_label_1
_geom_bond_atom_site_label_2
_geom_bond_site_symmetry_1
_geom_bond_site_symmetry_2
Sn1 N1 1_555 1_555
O1 C1 1_555 1_555
O2 C1 1_555 1_555
C1 C2 1_555 1_555
C2 H1 1_555 1_555
C3 C2 1_555 1_555
H2 C3 1_555 1_555
N1 C4 1_555 1_555
C4 H3 1_555 1_555
N2 C4 1_555 1_555
H4 N2 1_555 1_555
C5 C3 1_555 1_555
C6 N1 1_555 1_555
H5 C6 1_555 1_555
C7 Sn1 1_555 1_555
H6 C7 1_555 1_555
H7 C7 1_555 1_555
C8 C7 1_555 1_555
H8 C8 1_555 1_555
H9 C8 1_555 1_555
C9 C8 1_555 1_555
H10 C9 1_555 1_555
H11 C9 1_555 1_555
C10 C9 1_555 1_555
H12 C10 1_555 1_555
H13 C10 1_555 1_555
H14 C10 1_555 1_555
C11 Sn1 1_555 1_555
H15 C11 1_555 1_555
H16 C11 1_555 1_555
C12 C11 1_555 1_555
H17 C12 1_555 1_555
H18 C12 1_555 1_555
C13 C12 1_555 1_555
H19 C13 1_555 1_555
H20 C13 1_555 1_555
C14 C13 1_555 1_555
H21 C14 1_555 1_555
H22 C14 1_555 1_555
H23 C14 1_555 1_555
C15 Sn1 1_555 1_555
H24 C15 1_555 1_555
H25 C15 1_555 1_555
C16 C15 1_555 1_555
H26 C16 1_555 1_555
H27 C16 1_555 1_555
C17 C16 1_555 1_555
H28 C17 1_555 1_555
H29 C17 1_555 1_555
C18 C17 1_555 1_555
H30 C18 1_555 1_555
H31 C18 1_555 1_555
H32 C18 1_555 1_555
Sn1C O1 1_555 1_555
O1C Sn1 1_555 1_555
N2 C5 1_555 1_555
C5 C6 1_555 1_555

#END
