
#######################################################################
#
#                 Cambridge Crystallographic Data Centre
#                                CCDC 
#
#######################################################################
#
# If this CIF has been generated from an entry in the Cambridge 
# Structural Database, then it will include bibliographic, chemical, 
# crystal, experimental, refinement or atomic coordinate data resulting 
# from the CCDC's data processing and validation procedures.
#
#######################################################################

data_KIDYOM
_symmetry_cell_setting           triclinic
_symmetry_space_group_name_H-M   'P 1'
_symmetry_Int_Tables_number      1
_space_group_name_Hall           'P 1'
loop_
_symmetry_equiv_pos_site_id
_symmetry_equiv_pos_as_xyz
1 x,y,z
_cell_length_a                   9.8733(19)
_cell_length_b                   10.3078(18)
_cell_length_c                   11.5645(14)
_cell_angle_alpha                111.169(10)
_cell_angle_beta                 93.351(13)
_cell_angle_gamma                93.971(13)
_cell_volume                     1090.47
loop_
_atom_site_label
_atom_site_type_symbol
_atom_site_fract_x
_atom_site_fract_y
_atom_site_fract_z
Ag1 Ag 0.50044(3) 0.58313(3) 0.48791(3)
Ag2 Ag 1.01250(3) 0.57285(3) -0.52050(3)
O1 O 0.8867(5) 0.4452(6) 0.2124(5)
O2 O 0.6287(4) 0.7118(5) -0.2435(4)
O3 O 0.3926(4) 0.4653(6) 1.2264(5)
O4 O 0.1219(5) 0.6919(6) 0.7450(4)
N1 N 0.6387(5) 0.4236(5) 0.4699(5)
N2 N 0.6771(5) 0.4203(5) 0.2729(5)
H1 H 0.5924 0.4280 0.2574
N3 N 0.8410(5) 0.7267(6) -0.3065(4)
H2 H 0.9248 0.7137 -0.2939
N4 N 0.8800(6) 0.7269(6) -0.5006(5)
N5 N 0.1516(5) 0.4163(6) 1.4627(5)
N6 N 0.1846(5) 0.4078(6) 1.2630(5)
H3 H 0.0993 0.4091 1.2443
N7 N 0.3395(5) 0.7434(6) 0.7051(5)
H4 H 0.4245 0.7393 0.7229
N8 N 0.3698(6) 0.7411(6) 0.5094(5)
C1 C 0.6561(7) 0.3797(6) 0.5587(6)
H5 H 0.6024 0.4081 0.6252
C2 C 0.7611(9) 0.2841(8) 0.5569(8)
H6 H 0.7833 0.2582 0.6243
C3 C 0.8204(8) 0.2384(7) 0.4538(8)
H7 H 0.8806 0.1704 0.4434
C4 C 0.7975(8) 0.2855(8) 0.3658(8)
H8 H 0.8496 0.2556 0.2983
C5 C 0.7059(5) 0.3730(7) 0.3636(6)
C6 C 0.7615(6) 0.4563(6) 0.2045(5)
C7 C 0.6955(7) 0.5172(7) 0.1165(6)
H9 H 0.6613 0.6045 0.1654
H10 H 0.6180 0.4535 0.0687
C8 C 0.7943(6) 0.5456(7) 0.0224(5)
H11 H 0.8722 0.6093 0.0693
H12 H 0.8277 0.4585 -0.0281
C9 C 0.7216(7) 0.6082(8) -0.0626(7)
H13 H 0.6511 0.5396 -0.1173
H14 H 0.6781 0.6886 -0.0123
C10 C 0.8137(6) 0.6496(8) -0.1354(6)
H15 H 0.8629 0.5706 -0.1792
H16 H 0.8798 0.7230 -0.0800
C11 C 0.7476(6) 0.7011(7) -0.2286(6)
C12 C 0.8042(7) 0.7746(6) -0.4087(6)
C13 C 0.7047(6) 0.8721(6) -0.3941(7)
H17 H 0.6600 0.9071 -0.3222
C14 C 0.6790(8) 0.9126(8) -0.5021(8)
H18 H 0.6087 0.9664 -0.5074
C15 C 0.7681(8) 0.8646(8) -0.5985(6)
H19 H 0.7628 0.8979 -0.6632
C16 C 0.8537(10) 0.7788(10) -0.5997(8)
H20 H 0.9032 0.7469 -0.6688
C17 C 0.1688(6) 0.3727(6) 1.5536(5)
H21 H 0.1160 0.4016 1.6207
C18 C 0.2718(9) 0.2781(8) 1.5495(9)
H22 H 0.2960 0.2536 1.6173
C19 C 0.3294(8) 0.2284(8) 1.4441(9)
H23 H 0.3885 0.1596 1.4346
C20 C 0.3069(8) 0.2713(8) 1.3548(7)
H24 H 0.3573 0.2389 1.2862
C21 C 0.2144(6) 0.3607(7) 1.3546(6)
C22 C 0.2671(6) 0.4515(7) 1.1988(6)
C23 C 0.1957(8) 0.4843(10) 1.0924(8)
H25 H 0.1215 0.5402 1.1242
H26 H 0.1565 0.3972 1.0285
C24 C 0.2899(7) 0.5626(8) 1.0326(6)
H27 H 0.3218 0.6537 1.0946
H28 H 0.3689 0.5114 1.0087
C25 C 0.2251(8) 0.5826(9) 0.9211(6)
H29 H 0.2158 0.4939 0.8513
H30 H 0.1344 0.6108 0.9378
C26 C 0.3002(7) 0.6839(8) 0.8872(6)
H31 H 0.3914 0.6560 0.8729
H32 H 0.3085 0.7722 0.9573
C27 C 0.2419(7) 0.7079(8) 0.7742(6)
C28 C 0.2974(7) 0.7878(6) 0.6022(6)
C29 C 0.1990(6) 0.8854(7) 0.6198(8)
H33 H 0.1574 0.9210 0.6934
C30 C 0.1678(8) 0.9266(8) 0.5109(8)
H34 H 0.0974 0.9812 0.5086
C31 C 0.2498(10) 0.8788(9) 0.4125(7)
H35 H 0.2422 0.9109 0.3471
C32 C 0.3325(11) 0.7938(10) 0.4121(9)
H36 H 0.3767 0.7589 0.3399
Ag2_2 Ag 0.01250(3) 0.57285(3) 1.47950(3)
N5_2 N 1.1516(5) 0.4163(6) -0.5373(5)
N9 N 1.5067(9) -0.0297(10) -0.7432(8)
C33 C 1.5848(14) 0.0266(13) -0.9338(13)
H37 H 1.5705 -0.0465 -1.0146
H38 H 1.6796 0.0608 -0.9165
H39 H 1.5314 0.1015 -0.9322
C34 C 1.5456(9) -0.0259(11) -0.8437(8)
Cl1 Cl 0.0121(3) 0.9705(3) 0.1643(3)
O5 O 0.0291(3) 1.1082(5) 0.1535(6)
O6 O -0.1222(9) 0.9346(8) 0.0999(12)
O7 O 0.1126(14) 0.9008(15) 0.1322(10)
O8 O 0.0233(6) 1.0303(7) 0.3024(5)
Cl2 Cl 0.4985(3) 1.1824(3) 0.7982(3)
O9 O 0.4091(13) 1.2000(14) 0.8860(14)
O10 O 0.4951(11) 1.3192(8) 0.7984(8)
O11 O 0.4684(9) 1.0841(9) 0.7078(15)
O12 O 0.6344(7) 1.2109(11) 0.8344(9)
N10? N 0.9910(10) 1.2152(17) -0.2478(9)
C35? C 0.9300(15) 1.1298(13) -0.0936(9)
H40? H 0.9779 1.0590 -0.0782
H41? H 0.8352 1.0971 -0.1158
H42? H 0.9396 1.2130 -0.0199
C36? C 0.9921(15) 1.1639(14) -0.2050(11)
loop_
_geom_bond_atom_site_label_1
_geom_bond_atom_site_label_2
_geom_bond_site_symmetry_1
_geom_bond_site_symmetry_2
Ag1 N1 1_555 1_555
Ag2 N4 1_555 1_555
O1 C6 1_555 1_555
O2 C11 1_555 1_555
O3 C22 1_555 1_555
O4 C27 1_555 1_555
N1 C1 1_555 1_555
N2 H1 1_555 1_555
N3 H2 1_555 1_555
N4 C12 1_555 1_555
N5 C17 1_555 1_555
N6 H3 1_555 1_555
N7 H4 1_555 1_555
N8 Ag1 1_555 1_555
C1 H5 1_555 1_555
C2 C1 1_555 1_555
H6 C2 1_555 1_555
C3 C2 1_555 1_555
H7 C3 1_555 1_555
C4 C3 1_555 1_555
H8 C4 1_555 1_555
C5 N1 1_555 1_555
C6 N2 1_555 1_555
C7 C6 1_555 1_555
H9 C7 1_555 1_555
H10 C7 1_555 1_555
C8 C7 1_555 1_555
H11 C8 1_555 1_555
H12 C8 1_555 1_555
C9 C8 1_555 1_555
H13 C9 1_555 1_555
H14 C9 1_555 1_555
C10 C9 1_555 1_555
H15 C10 1_555 1_555
H16 C10 1_555 1_555
C11 N3 1_555 1_555
C12 N3 1_555 1_555
C13 C12 1_555 1_555
H17 C13 1_555 1_555
C14 C13 1_555 1_555
H18 C14 1_555 1_555
C15 C14 1_555 1_555
H19 C15 1_555 1_555
C16 N4 1_555 1_555
H20 C16 1_555 1_555
C17 H21 1_555 1_555
C18 C17 1_555 1_555
H22 C18 1_555 1_555
C19 C18 1_555 1_555
H23 C19 1_555 1_555
C20 C19 1_555 1_555
H24 C20 1_555 1_555
C21 N5 1_555 1_555
C22 N6 1_555 1_555
C23 C22 1_555 1_555
H25 C23 1_555 1_555
H26 C23 1_555 1_555
C24 C23 1_555 1_555
H27 C24 1_555 1_555
H28 C24 1_555 1_555
C25 C24 1_555 1_555
H29 C25 1_555 1_555
H30 C25 1_555 1_555
C26 C25 1_555 1_555
H31 C26 1_555 1_555
H32 C26 1_555 1_555
C27 N7 1_555 1_555
C28 N7 1_555 1_555
C29 C28 1_555 1_555
H33 C29 1_555 1_555
C30 C29 1_555 1_555
H34 C30 1_555 1_555
C31 C30 1_555 1_555
H35 C31 1_555 1_555
C32 N8 1_555 1_555
H36 C32 1_555 1_555
N9 C34 1_555 1_555
C33 H37 1_555 1_555
H38 C33 1_555 1_555
H39 C33 1_555 1_555
C34 C33 1_555 1_555
Cl1 O5 1_555 1_555
O6 Cl1 1_555 1_555
O7 Cl1 1_555 1_555
O8 Cl1 1_555 1_555
Cl2 O9 1_555 1_555
O10 Cl2 1_555 1_555
O11 Cl2 1_555 1_555
O12 Cl2 1_555 1_555
Ag2_2 N5 1_555 1_555
N5_2 Ag2 1_555 1_555
N2 C5 1_555 1_555
N6 C21 1_555 1_555
N8 C28 1_555 1_555
C4 C5 1_555 1_555
C10 C11 1_555 1_555
C15 C16 1_555 1_555
C20 C21 1_555 1_555
C26 C27 1_555 1_555
C31 C32 1_555 1_555

#END
