
#######################################################################
#
#                 Cambridge Crystallographic Data Centre
#                                CCDC 
#
#######################################################################
#
# If this CIF has been generated from an entry in the Cambridge 
# Structural Database, then it will include bibliographic, chemical, 
# crystal, experimental, refinement or atomic coordinate data resulting 
# from the CCDC's data processing and validation procedures.
#
#######################################################################

data_KIDYUS
_symmetry_cell_setting           monoclinic
_symmetry_space_group_name_H-M   'P 21/n'
_symmetry_Int_Tables_number      14
_space_group_name_Hall           '-P 2yn'
loop_
_symmetry_equiv_pos_site_id
_symmetry_equiv_pos_as_xyz
1 x,y,z
2 1/2-x,1/2+y,1/2-z
3 -x,-y,-z
4 1/2+x,1/2-y,1/2+z
_cell_length_a                   17.281(4)
_cell_length_b                   14.731(3)
_cell_length_c                   23.027(5)
_cell_angle_alpha                90
_cell_angle_beta                 101.453(4)
_cell_angle_gamma                90
_cell_volume                     5745.18
loop_
_atom_site_label
_atom_site_type_symbol
_atom_site_fract_x
_atom_site_fract_y
_atom_site_fract_z
Ag1 Ag -0.66019(3) -0.23892(4) 0.38640(3)
O1 O -0.3655(3) -0.1231(4) 0.4635(2)
O2 O -0.4215(3) -0.1224(5) 0.7605(2)
N1 N -0.5811(3) -0.1524(4) 0.3506(2)
N2 N -0.4996(3) -0.1214(4) 0.4407(2)
H1 H -0.5409 -0.1240 0.4562
N3 N -0.2550(3) -0.1822(4) 0.9072(2)
N4 N -0.2966(3) -0.1397(4) 0.8090(2)
H2 H -0.2487 -0.1479 0.8048
C1 C -0.5991(4) -0.1453(5) 0.2904(3)
H7 H -0.6470 -0.1688 0.2704
C2 C -0.5500(5) -0.1053(5) 0.2582(3)
H8 H -0.5641 -0.1015 0.2171
C3 C -0.4797(4) -0.0710(5) 0.2877(3)
H9 H -0.4446 -0.0452 0.2666
C4 C -0.4603(4) -0.0746(5) 0.3490(3)
H10 H -0.4134 -0.0497 0.3696
C5 C -0.5133(4) -0.1165(4) 0.3790(3)
C6 C -0.4287(4) -0.1227(4) 0.4797(3)
C7 C -0.4376(4) -0.1264(5) 0.5429(3)
H11 H -0.4751 -0.0798 0.5485
H12 H -0.4610 -0.1845 0.5492
C8 C -0.3656(4) -0.1147(6) 0.5899(3)
H13 H -0.3431 -0.0551 0.5867
H14 H -0.3265 -0.1600 0.5852
C9 C -0.2631(5) -0.1810(5) 0.9650(3)
H15 H -0.2247 -0.2089 0.9933
C10 C -0.3254(5) -0.1406(6) 0.9826(3)
H16 H -0.3293 -0.1410 1.0223
C11 C -0.3824(4) -0.0992(5) 0.9408(3)
H17 H -0.4262 -0.0729 0.9520
C12 C -0.3745(4) -0.0969(5) 0.8821(3)
H18 H -0.4115 -0.0670 0.8537
C13 C -0.3101(3) -0.1401(4) 0.8668(3)
C14 C -0.3518(4) -0.1276(5) 0.7592(3)
C15 C -0.3226(4) -0.1226(6) 0.7022(3)
H19 H -0.2872 -0.1730 0.7002
H20 H -0.2930 -0.0668 0.7014
C16 C -0.3880(4) -0.1253(6) 0.6502(3)
H21 H -0.4154 -0.1827 0.6506
H22 H -0.4251 -0.0775 0.6545
Ag1C Ag -0.16019(3) -0.26108(4) 0.88640(3)
N3C N -0.7550(3) -0.3178(4) 0.4072(2)
Ag2 Ag -0.14588(3) -0.75334(4) 0.12971(2)
O3 O -0.4285(2) -0.6371(4) 0.03090(19)
O4 O -0.3678(2) -0.6393(3) -0.26995(19)
N5 N -0.2270(3) -0.6630(3) 0.1612(2)
N6 N -0.2961(3) -0.6396(3) 0.0664(2)
H3 H -0.2512 -0.6438 0.0558
N7 N -0.5623(3) -0.6616(3) -0.4027(2)
N8 N -0.4991(3) -0.6293(4) -0.3071(2)
H4 H -0.5447 -0.6295 -0.2974
C17 C -0.2170(4) -0.6522(4) 0.2208(3)
H23 H -0.1696 -0.6710 0.2443
C18 C -0.2729(4) -0.6154(5) 0.2478(3)
H24 H -0.2642 -0.6092 0.2888
C19 C -0.3438(4) -0.5872(5) 0.2119(3)
H25 H -0.3838 -0.5630 0.2288
C20 C -0.3539(4) -0.5955(4) 0.1512(3)
H26 H -0.4006 -0.5765 0.1267
C21 C -0.2935(3) -0.6325(4) 0.1273(2)
C22 C -0.3612(3) -0.6408(4) 0.0214(3)
C23 C -0.3422(4) -0.6494(5) -0.0391(3)
H27 H -0.3200 -0.7092 -0.0426
H28 H -0.3019 -0.6051 -0.0428
C24 C -0.4114(4) -0.6362(5) -0.0896(3)
H29 H -0.4331 -0.5759 -0.0871
H30 H -0.4522 -0.6799 -0.0861
C25 C -0.5672(4) -0.6562(4) -0.4621(3)
H31 H -0.6123 -0.6786 -0.4869
C26 C -0.5097(4) -0.6198(5) -0.4873(3)
H32 H -0.5146 -0.6190 -0.5282
C27 C -0.4436(4) -0.5841(5) -0.4505(3)
H33 H -0.4029 -0.5595 -0.4666
C28 C -0.4384(3) -0.5851(4) -0.3901(3)
H34 H -0.3953 -0.5592 -0.3649
C29 C -0.4982(3) -0.6255(4) -0.3674(2)
C30 C -0.4348(3) -0.6329(4) -0.2619(3)
C31 C -0.4556(4) -0.6291(5) -0.2008(3)
H35 H -0.4971 -0.6730 -0.1995
H36 H -0.4767 -0.5694 -0.1954
C32 C -0.3883(4) -0.6477(5) -0.1501(3)
H37 H -0.3697 -0.7092 -0.1534
H38 H -0.3452 -0.6066 -0.1525
Ag2C Ag -0.64588(3) -0.74666(4) -0.37029(2)
N7C N -0.0623(3) -0.8384(3) 0.0973(2)
Ag3 Ag -0.45523(3) -0.77006(4) 0.14056(2)
O5 O -0.1604(2) -0.8703(3) 0.22277(18)
O6 O -0.2097(3) -0.9121(4) 0.5194(2)
N9 N -0.3719(3) -0.8494(3) 0.1038(2)
N10 N -0.2947(3) -0.8775(3) 0.1958(2)
H5 H -0.3373 -0.8759 0.2097
N11 N -0.0413(3) -0.8244(4) 0.6634(2)
N12 N -0.0910(3) -0.8602(4) 0.5659(2)
H6 H -0.0464 -0.8405 0.5600
C33 C -0.3860(4) -0.8590(4) 0.0442(3)
H39 H -0.4341 -0.8382 0.0227
C34 C -0.3347(4) -0.8970(5) 0.0138(3)
H40 H -0.3461 -0.8992 -0.0274
C35 C -0.2656(4) -0.9319(5) 0.0454(3)
H41 H -0.2294 -0.9589 0.0258
C36 C -0.2496(4) -0.9269(4) 0.1065(3)
H42 H -0.2034 -0.9513 0.1285
C37 C -0.3040(3) -0.8848(4) 0.1341(2)
C38 C -0.2255(3) -0.8725(4) 0.2361(2)
C39 C -0.2379(4) -0.8675(5) 0.2992(2)
H43 H -0.2665 -0.9213 0.3071
H44 H -0.2711 -0.8154 0.3027
C40 C -0.1634(4) -0.8601(4) 0.3465(2)
H45 H -0.1383 -0.8017 0.3438
H46 H -0.1264 -0.9075 0.3412
C41 C -0.0429(4) -0.8306(5) 0.7218(3)
H47 H -0.0020 -0.8037 0.7487
C42 C -0.1002(5) -0.8734(5) 0.7430(3)
H48 H -0.0982 -0.8776 0.7836
C43 C -0.1618(4) -0.9106(5) 0.7033(3)
H49 H -0.2035 -0.9381 0.7166
C44 C -0.1615(4) -0.9072(5) 0.6438(3)
H50 H -0.2024 -0.9330 0.6164
C45 C -0.0992(3) -0.8649(4) 0.6253(2)
C46 C -0.1445(3) -0.8829(4) 0.5170(3)
C47 C -0.1188(4) -0.8680(5) 0.4583(3)
H51 H -0.0813 -0.9148 0.4531
H52 H -0.0923 -0.8098 0.4592
C48 C -0.1869(4) -0.8700(5) 0.4069(3)
H53 H -0.2149 -0.9270 0.4076
H54 H -0.2230 -0.8214 0.4115
Ag3C Ag 0.04477(3) -0.72994(4) 0.64056(2)
N11C N -0.5413(3) -0.6756(4) 0.1634(2)
Cl1 Cl -0.77210(14) -0.11191(15) 0.12692(9)
O7 O -0.7059(13) -0.1445(13) 0.1192(8)
O8 O -0.8450(10) -0.1518(9) 0.1152(6)
O9 O -0.7630(7) -0.0782(15) 0.1800(4)
O10 O -0.7835(5) -0.0352(6) 0.0856(4)
Cl2 Cl -0.44120(11) -0.10226(15) 0.12249(8)
O11 O -0.4689(6) -0.0918(13) 0.0647(4)
O12 O -0.4656(8) -0.1709(6) 0.1537(6)
O13 O -0.3580(4) -0.1135(7) 0.1278(4)
O14 O -0.4525(6) -0.0204(5) 0.1530(4)
Cl3 Cl -0.89690(15) -0.8326(2) -0.11957(9)
O15 O -0.9077(12) -0.7590(14) -0.0909(11)
O16 O -0.8810(10) -0.820(2) -0.1675(6)
O17 O -0.8539(13) -0.8762(15) -0.0832(8)
O18 O -0.9638(13) -0.862(2) -0.1344(7)
O19 O -1.0766(3) -0.3478(5) 0.2440(3)
O20 O -0.8689(3) -0.6373(6) -0.0007(3)
loop_
_geom_bond_atom_site_label_1
_geom_bond_atom_site_label_2
_geom_bond_site_symmetry_1
_geom_bond_site_symmetry_2
Ag1 N1 1_555 1_555
Ag2 N5 1_555 1_555
Ag3 N9 1_555 1_555
O1 C6 1_555 1_555
O2 C14 1_555 1_555
O3 C22 1_555 1_555
O4 C30 1_555 1_555
O5 C38 1_555 1_555
O6 C46 1_555 1_555
N1 C1 1_555 1_555
N2 H1 1_555 1_555
N3 C9 1_555 1_555
N4 H2 1_555 1_555
N5 C17 1_555 1_555
N6 H3 1_555 1_555
N7 C25 1_555 1_555
N8 H4 1_555 1_555
N9 C33 1_555 1_555
N10 H5 1_555 1_555
N11 C41 1_555 1_555
N12 H6 1_555 1_555
C1 H7 1_555 1_555
C2 C1 1_555 1_555
H8 C2 1_555 1_555
C3 C2 1_555 1_555
H9 C3 1_555 1_555
C4 C3 1_555 1_555
H10 C4 1_555 1_555
C5 N1 1_555 1_555
C6 N2 1_555 1_555
C7 C6 1_555 1_555
H11 C7 1_555 1_555
H12 C7 1_555 1_555
C8 C7 1_555 1_555
H13 C8 1_555 1_555
H14 C8 1_555 1_555
C9 H15 1_555 1_555
C10 C9 1_555 1_555
H16 C10 1_555 1_555
C11 C10 1_555 1_555
H17 C11 1_555 1_555
C12 C11 1_555 1_555
H18 C12 1_555 1_555
C13 N3 1_555 1_555
C14 N4 1_555 1_555
C15 C14 1_555 1_555
H19 C15 1_555 1_555
H20 C15 1_555 1_555
C16 C8 1_555 1_555
H21 C16 1_555 1_555
H22 C16 1_555 1_555
C17 H23 1_555 1_555
C18 C17 1_555 1_555
H24 C18 1_555 1_555
C19 C18 1_555 1_555
H25 C19 1_555 1_555
C20 C19 1_555 1_555
H26 C20 1_555 1_555
C21 N5 1_555 1_555
C22 N6 1_555 1_555
C23 C22 1_555 1_555
H27 C23 1_555 1_555
H28 C23 1_555 1_555
C24 C23 1_555 1_555
H29 C24 1_555 1_555
H30 C24 1_555 1_555
C25 H31 1_555 1_555
C26 C25 1_555 1_555
H32 C26 1_555 1_555
C27 C26 1_555 1_555
H33 C27 1_555 1_555
C28 C27 1_555 1_555
H34 C28 1_555 1_555
C29 N7 1_555 1_555
C30 N8 1_555 1_555
C31 C30 1_555 1_555
H35 C31 1_555 1_555
H36 C31 1_555 1_555
C32 C24 1_555 1_555
H37 C32 1_555 1_555
H38 C32 1_555 1_555
C33 H39 1_555 1_555
C34 C33 1_555 1_555
H40 C34 1_555 1_555
C35 C34 1_555 1_555
H41 C35 1_555 1_555
C36 C35 1_555 1_555
H42 C36 1_555 1_555
C37 N9 1_555 1_555
C38 N10 1_555 1_555
C39 C38 1_555 1_555
H43 C39 1_555 1_555
H44 C39 1_555 1_555
C40 C39 1_555 1_555
H45 C40 1_555 1_555
H46 C40 1_555 1_555
C41 H47 1_555 1_555
C42 C41 1_555 1_555
H48 C42 1_555 1_555
C43 C42 1_555 1_555
H49 C43 1_555 1_555
C44 C43 1_555 1_555
H50 C44 1_555 1_555
C45 N11 1_555 1_555
C46 N12 1_555 1_555
C47 C46 1_555 1_555
H51 C47 1_555 1_555
H52 C47 1_555 1_555
C48 C40 1_555 1_555
H53 C48 1_555 1_555
H54 C48 1_555 1_555
Cl1 O7 1_555 1_555
O8 Cl1 1_555 1_555
O9 Cl1 1_555 1_555
O10 Cl1 1_555 1_555
Cl2 O11 1_555 1_555
O12 Cl2 1_555 1_555
O13 Cl2 1_555 1_555
O14 Cl2 1_555 1_555
Cl3 O15 1_555 1_555
O16 Cl3 1_555 1_555
O17 Cl3 1_555 1_555
O18 Cl3 1_555 1_555
Ag1C N3 1_555 1_555
Ag2C N7 1_555 1_555
Ag3C N11 1_555 1_555
N3C Ag1 1_555 1_555
N7C Ag2 1_555 1_555
N11C Ag3 1_555 1_555
N2 C5 1_555 1_555
N4 C13 1_555 1_555
N6 C21 1_555 1_555
N8 C29 1_555 1_555
N10 C37 1_555 1_555
N12 C45 1_555 1_555
C4 C5 1_555 1_555
C12 C13 1_555 1_555
C15 C16 1_555 1_555
C20 C21 1_555 1_555
C28 C29 1_555 1_555
C31 C32 1_555 1_555
C36 C37 1_555 1_555
C44 C45 1_555 1_555
C47 C48 1_555 1_555

#END
