
#######################################################################
#
#                 Cambridge Crystallographic Data Centre
#                                CCDC 
#
#######################################################################
#
# If this CIF has been generated from an entry in the Cambridge 
# Structural Database, then it will include bibliographic, chemical, 
# crystal, experimental, refinement or atomic coordinate data resulting 
# from the CCDC's data processing and validation procedures.
#
#######################################################################

data_KIFBIM
_symmetry_cell_setting           monoclinic
_symmetry_space_group_name_H-M   'C 2/c'
_symmetry_Int_Tables_number      15
_space_group_name_Hall           '-C 2yn'
loop_
_symmetry_equiv_pos_site_id
_symmetry_equiv_pos_as_xyz
1 x,y,z
2 -x,y,1/2-z
3 1/2+x,1/2+y,z
4 1/2-x,1/2+y,1/2-z
5 -x,-y,-z
6 x,-y,1/2+z
7 1/2-x,1/2-y,-z
8 1/2+x,1/2-y,1/2+z
_cell_length_a                   23.719(2)
_cell_length_b                   10.7570(9)
_cell_length_c                   16.0846(13)
_cell_angle_alpha                90
_cell_angle_beta                 105.226(2)
_cell_angle_gamma                90
_cell_volume                     3959.85
loop_
_atom_site_label
_atom_site_type_symbol
_atom_site_fract_x
_atom_site_fract_y
_atom_site_fract_z
C1 C 0.14942(14) 0.0782(3) 0.2611(2)
C2 C 0.19622(16) 0.0400(4) 0.2291(2)
C3 C 0.18523(15) -0.0489(3) 0.1660(2)
H1 H 0.2164 -0.0775 0.1463
C4 C 0.13076(15) -0.0986(3) 0.1301(2)
C5 C 0.08311(15) -0.0576(4) 0.1588(2)
C6 C 0.09418(16) 0.0304(3) 0.2233(2)
H2 H 0.0629 0.0594 0.2427
C7 C 0.15665(16) 0.1690(3) 0.3334(2)
C8 C 0.12724(17) -0.1944(3) 0.0597(2)
C9 C 0.25736(17) 0.0934(6) 0.2607(4)
H3 H 0.2793 0.0747 0.2200
H4 H 0.2764 0.0575 0.3155
H5 H 0.2550 0.1819 0.2667
C10 C 0.02114(18) -0.1040(5) 0.1249(4)
H6 H -0.0045 -0.0555 0.1493
H7 H 0.0191 -0.1897 0.1406
H8 H 0.0095 -0.0963 0.0633
C11 C 0.22072(15) 0.6375(3) 0.4779(2)
C12 C 0.19138(16) 0.7488(3) 0.4489(3)
C13 C 0.27774(16) 0.6416(3) 0.5278(3)
H9 H 0.2964 0.5669 0.5468
C14 C 0.19319(15) 0.5105(3) 0.4597(2)
C15 C 0.1302(2) 0.7547(4) 0.3897(4)
H10 H 0.1178 0.8398 0.3820
H11 H 0.1040 0.7090 0.4148
H12 H 0.1300 0.7192 0.3349
C16 C -0.02294(19) 0.3560(4) 0.3831(3)
H13 H -0.0203 0.2783 0.4093
C17 C -0.1257(2) 0.3431(6) 0.3680(4)
H14 H -0.1167 0.2582 0.3846
H15 H -0.1558 0.3456 0.3148
H16 H -0.1392 0.3847 0.4120
C18 C -0.0802(3) 0.5204(6) 0.3097(5)
H17 H -0.0423 0.5500 0.3080
H18 H -0.0987 0.5809 0.3376
H19 H -0.1037 0.5069 0.2520
N1 N -0.07392(14) 0.4047(4) 0.3571(2)
O1 O 0.11321(12) 0.2352(2) 0.33464(17)
O2 O 0.20453(12) 0.1671(3) 0.38906(18)
O3 O 0.17247(12) -0.2403(2) 0.04845(19)
O4 O 0.07824(13) -0.2273(3) 0.0138(2)
O5 O 0.22586(11) 0.4234(2) 0.45373(19)
O6 O 0.13973(11) 0.4996(2) 0.45065(18)
O7 O 0.02296(11) 0.4039(3) 0.3761(2)
Zn1 Zn 0.103372(16) 0.33716(3) 0.42860(2)
Zn2 Zn 0.2500 0.2500 0.5000
C11F C 0.27928(15) 0.8625(3) 0.5221(2)
C12F C 0.30862(16) 0.7512(3) 0.5511(3)
C13F C 0.22226(16) 0.8584(3) 0.4722(3)
H9F H 0.2036 0.9331 0.4532
C14F C 0.30681(15) 0.9895(3) 0.5403(2)
C15F C 0.3698(2) 0.7453(4) 0.6103(4)
H10F H 0.3822 0.6602 0.6180
H11F H 0.3960 0.7910 0.5852
H12F H 0.3700 0.7808 0.6651
O5F O 0.27414(11) 1.0766(2) 0.54627(19)
O6F O 0.36027(11) 1.0004(2) 0.54935(18)
C1F C 0.35058(14) 0.4218(3) 0.7389(2)
C2F C 0.30378(16) 0.4600(4) 0.7709(2)
C3F C 0.31477(15) 0.5489(3) 0.8340(2)
H1F H 0.2836 0.5775 0.8537
C4F C 0.36924(15) 0.5986(3) 0.8699(2)
C5F C 0.41689(15) 0.5576(4) 0.8412(2)
C6F C 0.40582(16) 0.4696(3) 0.7767(2)
H2F H 0.4371 0.4406 0.7573
C7F C 0.34335(16) 0.3310(3) 0.6666(2)
C8F C 0.37276(17) 0.6944(3) 0.9403(2)
C9F C 0.24264(17) 0.4066(6) 0.7393(4)
H3F H 0.2207 0.4253 0.7800
H4F H 0.2236 0.4425 0.6845
H5F H 0.2450 0.3181 0.7333
C10F C 0.47886(18) 0.6040(5) 0.8751(4)
H6F H 0.5045 0.5555 0.8507
H7F H 0.4809 0.6897 0.8594
H8F H 0.4905 0.5963 0.9367
C16F C 0.52294(19) 0.1440(4) 0.6169(3)
H13F H 0.5203 0.2217 0.5907
C17F C 0.6257(2) 0.1569(6) 0.6320(4)
H14F H 0.6167 0.2418 0.6154
H15F H 0.6558 0.1544 0.6852
H16F H 0.6392 0.1153 0.5880
C18F C 0.5802(3) -0.0204(6) 0.6903(5)
H17F H 0.5423 -0.0500 0.6920
H18F H 0.5987 -0.0809 0.6624
H19F H 0.6037 -0.0069 0.7480
N1F N 0.57392(14) 0.0953(4) 0.6429(2)
O1F O 0.38679(12) 0.2648(2) 0.66536(17)
O2F O 0.29547(12) 0.3329(3) 0.61094(18)
O3F O 0.32753(12) 0.7403(2) 0.95155(19)
O4F O 0.42176(13) 0.7273(3) 0.9862(2)
O7F O 0.47704(11) 0.0961(3) 0.6239(2)
Zn1F Zn 0.396628(16) 0.16284(3) 0.57140(2)
O3C O 0.32753(12) 0.2597(2) 0.45155(19)
O3E O 0.17247(12) 0.2403(2) 0.54845(19)
O4C O 0.42176(13) 0.2727(3) 0.4862(2)
O4E O 0.07824(13) 0.2273(3) 0.5138(2)
O5F_2 O 0.27414(11) 0.0766(2) 0.54627(19)
O6F_2 O 0.36027(11) 0.0004(2) 0.54935(18)
Zn1C Zn 0.396628(16) 0.83716(3) 1.07140(2)
Zn1E Zn 0.103372(16) -0.33716(3) -0.07140(2)
Zn1F_2 Zn 0.396628(16) 1.16284(3) 0.57140(2)
Zn2_2 Zn 0.2500 1.2500 0.5000
Zn2C Zn 0.2500 -0.2500 0.0000
Zn2C_2 Zn 0.2500 0.7500 1.0000
loop_
_geom_bond_atom_site_label_1
_geom_bond_atom_site_label_2
_geom_bond_site_symmetry_1
_geom_bond_site_symmetry_2
C1 C2 1_555 1_555
C2 C3 1_555 1_555
C3 H1 1_555 1_555
C4 C3 1_555 1_555
C5 C4 1_555 1_555
C6 C1 1_555 1_555
H2 C6 1_555 1_555
C7 C1 1_555 1_555
C8 C4 1_555 1_555
C9 C2 1_555 1_555
H3 C9 1_555 1_555
H4 C9 1_555 1_555
H5 C9 1_555 1_555
C10 C5 1_555 1_555
H6 C10 1_555 1_555
H7 C10 1_555 1_555
H8 C10 1_555 1_555
C11 C12 1_555 1_555
C12 C15 1_555 1_555
C13 C11 1_555 1_555
H9 C13 1_555 1_555
C14 C11 1_555 1_555
C15 H10 1_555 1_555
H11 C15 1_555 1_555
H12 C15 1_555 1_555
C16 H13 1_555 1_555
C17 H14 1_555 1_555
H15 C17 1_555 1_555
H16 C17 1_555 1_555
C18 H17 1_555 1_555
H18 C18 1_555 1_555
H19 C18 1_555 1_555
N1 C16 1_555 1_555
O1 C7 1_555 1_555
O2 C7 1_555 1_555
O3 C8 1_555 1_555
O4 C8 1_555 1_555
O5 C14 1_555 1_555
O6 C14 1_555 1_555
O7 C16 1_555 1_555
Zn1 O1 1_555 1_555
Zn2 O2 1_555 1_555
C11F C12F 1_555 1_555
C12F C13 1_555 1_555
C13F C12 1_555 1_555
H9F C13F 1_555 1_555
C14F C11F 1_555 1_555
C15F C12F 1_555 1_555
H10F C15F 1_555 1_555
H11F C15F 1_555 1_555
H12F C15F 1_555 1_555
O5F C14F 1_555 1_555
O6F C14F 1_555 1_555
C1F C2F 1_555 1_555
C2F C3F 1_555 1_555
C3F H1F 1_555 1_555
C4F C3F 1_555 1_555
C5F C4F 1_555 1_555
C6F C1F 1_555 1_555
H2F C6F 1_555 1_555
C7F C1F 1_555 1_555
C8F C4F 1_555 1_555
C9F C2F 1_555 1_555
H3F C9F 1_555 1_555
H4F C9F 1_555 1_555
H5F C9F 1_555 1_555
C10F C5F 1_555 1_555
H6F C10F 1_555 1_555
H7F C10F 1_555 1_555
H8F C10F 1_555 1_555
C16F H13F 1_555 1_555
C17F H14F 1_555 1_555
H15F C17F 1_555 1_555
H16F C17F 1_555 1_555
C18F H17F 1_555 1_555
H18F C18F 1_555 1_555
H19F C18F 1_555 1_555
N1F C16F 1_555 1_555
O1F C7F 1_555 1_555
O2F Zn2 1_555 1_555
O3F C8F 1_555 1_555
O4F C8F 1_555 1_555
O7F C16F 1_555 1_555
Zn1F O1F 1_555 1_555
O3C Zn2 1_555 1_555
O3E Zn1 1_555 1_555
O4C Zn1F 1_555 1_555
O4E Zn1 1_555 1_555
O5F_2 Zn2 1_555 1_555
O6F_2 Zn1F 1_555 1_555
Zn1C O3F 1_555 1_555
Zn1E O3 1_555 1_555
Zn1F_2 O6F 1_555 1_555
Zn2_2 O5F 1_555 1_555
Zn2C O3 1_555 1_555
Zn2C_2 O3F 1_555 1_555
C5 C6 1_555 1_555
C17 N1 1_555 1_555
C18 N1 1_555 1_555
O4 Zn1E 1_555 1_555
O5 Zn2 1_555 1_555
O6 Zn1 1_555 1_555
O7 Zn1 1_555 1_555
Zn2 O3E 1_555 1_555
C11F C13F 1_555 1_555
C5F C6F 1_555 1_555
C7F O2F 1_555 1_555
C17F N1F 1_555 1_555
C18F N1F 1_555 1_555
O4F Zn1C 1_555 1_555
O7F Zn1F 1_555 1_555
Zn1F O3C 1_555 1_555

#END
