
#######################################################################
#
#                 Cambridge Crystallographic Data Centre
#                                CCDC 
#
#######################################################################
#
# If this CIF has been generated from an entry in the Cambridge 
# Structural Database, then it will include bibliographic, chemical, 
# crystal, experimental, refinement or atomic coordinate data resulting 
# from the CCDC's data processing and validation procedures.
#
#######################################################################

data_KIFBEI
_symmetry_cell_setting           orthorhombic
_symmetry_space_group_name_H-M   'P b c a'
_symmetry_Int_Tables_number      61
_space_group_name_Hall           '-P 2ac 2ab'
loop_
_symmetry_equiv_pos_site_id
_symmetry_equiv_pos_as_xyz
1 x,y,z
2 1/2-x,-y,1/2+z
3 -x,1/2+y,1/2-z
4 1/2+x,1/2-y,-z
5 -x,-y,-z
6 1/2+x,y,1/2-z
7 x,1/2-y,1/2+z
8 1/2-x,1/2+y,z
_cell_length_a                   11.8253(18)
_cell_length_b                   17.268(3)
_cell_length_c                   19.299(3)
_cell_angle_alpha                90
_cell_angle_beta                 90
_cell_angle_gamma                90
_cell_volume                     3940.84
loop_
_atom_site_label
_atom_site_type_symbol
_atom_site_fract_x
_atom_site_fract_y
_atom_site_fract_z
C1 C 0.9780(6) 0.2930(4) 0.3202(3)
C2 C 1.0640(6) 0.2533(4) 0.3506(3)
C3 C 1.0490(6) 0.2270(4) 0.4178(3)
H1 H 1.1078 0.1998 0.4387
C4 C 0.9515(5) 0.2389(3) 0.4554(3)
C5 C 0.8639(6) 0.2804(4) 0.4244(4)
H2 H 0.7973 0.2904 0.4484
C6 C 0.8786(6) 0.3067(4) 0.3566(4)
H3 H 0.8205 0.3340 0.3353
C7 C 0.9888(8) 0.3246(4) 0.2463(5)
C8 C 0.9373(6) 0.2042(4) 0.5263(3)
C9 C 0.7190(6) 0.0770(4) 0.6139(4)
H4 H 0.7194 0.1298 0.6234
C10 C 0.6158(6) 0.0417(4) 0.6033(4)
H5 H 0.5498 0.0710 0.6053
C11 C 0.6098(6) -0.0347(4) 0.5902(4)
C12 C 0.7093(7) -0.0724(4) 0.5888(5)
H6 H 0.7093 -0.1255 0.5807
C13 C 0.8131(6) -0.0346(4) 0.5993(5)
H7 H 0.8796 -0.0633 0.5977
C14 C 0.5002(6) -0.0758(5) 0.5818(5)
H8 H 0.5071 -0.1131 0.5445
H9 H 0.4426 -0.0386 0.5687
C15 C 0.4625(7) -0.1172(5) 0.6467(6)
H10 H 0.5166 -0.1578 0.6573
H11 H 0.4629 -0.0808 0.6850
C16 C 0.3477(7) -0.1524(5) 0.6412(6)
H12 H 0.3357 -0.1865 0.6804
H13 H 0.3440 -0.1835 0.5994
C17 C 0.2535(7) -0.0924(4) 0.6394(5)
C18 C 0.2049(6) -0.0704(5) 0.5798(5)
H14 H 0.2272 -0.0935 0.5384
C19 C 0.1228(6) -0.0143(5) 0.5789(4)
H15 H 0.0908 -0.0002 0.5368
C20 C 0.1344(9) -0.0009(6) 0.6938(5)
H16 H 0.1126 0.0231 0.7349
C21 C 0.2171(9) -0.0586(7) 0.6973(5)
H17 H 0.2467 -0.0734 0.7399
N1 N 1.1711(10) 0.2409(7) 0.3209(5)
H18 H 1.1861 0.2591 0.2804
H19 H 1.2215 0.2151 0.3432
N2 N 0.8187(4) 0.0405(3) 0.6112(3)
N3 N 0.0869(5) 0.0210(3) 0.6374(3)
O1 O 0.9098(5) 0.3629(4) 0.2231(3)
O2 O 1.0764(6) 0.3143(3) 0.2129(3)
O3 O 0.8594(5) 0.2247(3) 0.5636(3)
O4 O 1.0087(4) 0.1526(3) 0.5436(2)
Zn1 Zn 0.96398(6) 0.10505(4) 0.63153(4)
N3_2 N 1.0869(5) 0.0210(3) 0.6374(3)
O1F O 0.9098(5) 0.1371(4) 0.7231(3)
O2F O 1.0764(6) 0.1857(3) 0.7129(3)
Zn1_2 Zn -0.03602(6) 0.10505(4) 0.63153(4)
Zn1F Zn 0.96398(6) 0.39495(4) 0.13153(4)
loop_
_geom_bond_atom_site_label_1
_geom_bond_atom_site_label_2
_geom_bond_site_symmetry_1
_geom_bond_site_symmetry_2
C1 C2 1_555 1_555
C2 C3 1_555 1_555
C3 H1 1_555 1_555
C4 C3 1_555 1_555
C5 C4 1_555 1_555
H2 C5 1_555 1_555
C6 C1 1_555 1_555
H3 C6 1_555 1_555
C7 C1 1_555 1_555
C8 C4 1_555 1_555
C9 H4 1_555 1_555
C10 C9 1_555 1_555
H5 C10 1_555 1_555
C11 C10 1_555 1_555
C12 C11 1_555 1_555
H6 C12 1_555 1_555
C13 C12 1_555 1_555
H7 C13 1_555 1_555
C14 C11 1_555 1_555
H8 C14 1_555 1_555
H9 C14 1_555 1_555
C15 C14 1_555 1_555
H10 C15 1_555 1_555
H11 C15 1_555 1_555
C16 C15 1_555 1_555
H12 C16 1_555 1_555
H13 C16 1_555 1_555
C17 C16 1_555 1_555
C18 C17 1_555 1_555
H14 C18 1_555 1_555
C19 C18 1_555 1_555
H15 C19 1_555 1_555
C20 H16 1_555 1_555
C21 C17 1_555 1_555
H17 C21 1_555 1_555
N1 C2 1_555 1_555
H18 N1 1_555 1_555
H19 N1 1_555 1_555
N2 C9 1_555 1_555
N3 C19 1_555 1_555
O1 C7 1_555 1_555
O2 C7 1_555 1_555
O3 C8 1_555 1_555
O4 C8 1_555 1_555
Zn1 N2 1_555 1_555
N3_2 Zn1 1_555 1_555
O1F Zn1 1_555 1_555
O2F Zn1 1_555 1_555
Zn1_2 N3 1_555 1_555
Zn1F O1 1_555 1_555
C5 C6 1_555 1_555
C13 N2 1_555 1_555
C20 C21 1_555 1_555
C20 N3 1_555 1_555
O2 Zn1F 1_555 1_555
O4 Zn1 1_555 1_555

#END
