
#######################################################################
#
#                 Cambridge Crystallographic Data Centre
#                                CCDC 
#
#######################################################################
#
# If this CIF has been generated from an entry in the Cambridge 
# Structural Database, then it will include bibliographic, chemical, 
# crystal, experimental, refinement or atomic coordinate data resulting 
# from the CCDC's data processing and validation procedures.
#
#######################################################################

data_KIFCIL01
_symmetry_cell_setting           orthorhombic
_symmetry_space_group_name_H-M   'P 21 21 21'
_symmetry_Int_Tables_number      19
_space_group_name_Hall           'P 2ac 2ab'
loop_
_symmetry_equiv_pos_site_id
_symmetry_equiv_pos_as_xyz
1 x,y,z
2 1/2+x,1/2-y,-z
3 -x,1/2+y,1/2-z
4 1/2-x,-y,1/2+z
_cell_length_a                   5.0365(2)
_cell_length_b                   13.2159(6)
_cell_length_c                   37.354(2)
_cell_angle_alpha                90
_cell_angle_beta                 90
_cell_angle_gamma                90
_cell_volume                     2486.35
loop_
_atom_site_label
_atom_site_type_symbol
_atom_site_fract_x
_atom_site_fract_y
_atom_site_fract_z
Cu1 Cu 0.26641(7) 0.86539(2) 0.842419(9)
Cu2 Cu -0.23360(7) 0.72070(2) 0.890690(9)
S1 S -0.10836(16) 0.29196(5) 0.83125(2)
S2 S 0.21034(15) 1.22600(5) 0.93758(2)
N1 N -0.0796(4) 0.59439(16) 0.90434(7)
N2 N 0.4027(4) 1.00287(15) 0.84196(7)
O1 O -0.5007(4) 0.71457(14) 0.92614(5)
O2 O 0.0972(4) 0.73063(13) 0.85867(5)
O3 O 0.4624(4) 0.64020(14) 0.84577(5)
O4 O -0.0159(4) 0.89703(13) 0.81015(5)
O5 O 0.5924(4) 0.84349(12) 0.87260(5)
O6 O 0.9461(4) 0.92152(14) 0.89532(6)
O7 O 0.5257(4) 0.79096(16) 0.79703(6)
C1 C -0.5048(5) 0.6542(2) 0.95408(8)
C2 C -0.6975(6) 0.6716(2) 0.98061(8)
H1 H -0.8212 0.7251 0.9774
C3 C -0.7123(6) 0.6132(2) 1.01114(8)
H2 H -0.8438 0.6274 1.0287
C4 C -0.5333(6) 0.5325(2) 1.01646(9)
H3 H -0.5423 0.4925 1.0375
C5 C -0.3461(6) 0.5128(2) 0.99075(8)
H4 H -0.2256 0.4583 0.9942
C6 C -0.3279(5) 0.57166(19) 0.95914(8)
C7 C -0.1249(6) 0.5462(2) 0.93400(8)
H5 H -0.0148 0.4899 0.9394
C8 C 0.1277(5) 0.55935(19) 0.88001(8)
H6 H 0.2701 0.5239 0.8938
C9 C 0.2443(6) 0.64963(18) 0.86031(7)
C10 C 0.0187(6) 0.48881(19) 0.85058(8)
H7 H -0.1149 0.5264 0.8364
H8 H 0.1660 0.4707 0.8342
C11 C -0.1086(6) 0.3913(2) 0.86448(8)
H9 H -0.2938 0.4055 0.8718
H10 H -0.0105 0.3679 0.8859
C12 C -0.3115(6) 0.3473(2) 0.79657(9)
H11 H -0.4905 0.3595 0.8059
H12 H -0.3212 0.3009 0.7761
H13 H -0.2329 0.4115 0.7888
C13 C -0.0172(5) 0.97483(19) 0.78761(8)
C14 C -0.2109(6) 0.9779(2) 0.76028(8)
H14 H -0.3334 0.9236 0.7582
C15 C -0.2272(6) 1.0573(2) 0.73653(7)
H15 H -0.3635 1.0579 0.7189
C16 C -0.0446(6) 1.1374(2) 0.73806(8)
H16 H -0.0531 1.1913 0.7213
C17 C 0.1447(6) 1.1366(2) 0.76398(8)
H17 H 0.2701 1.1902 0.7649
C18 C 0.1602(5) 1.05762(19) 0.78972(8)
C19 C 0.3580(5) 1.06809(19) 0.81714(8)
H18 H 0.4637 1.1276 0.8169
C20 C 0.6031(6) 1.02384(19) 0.86919(8)
H19 H 0.7404 1.0709 0.8594
C21 C 0.7315(6) 0.92457(17) 0.87987(7)
C22 C 0.4813(6) 1.0690(2) 0.90362(8)
H20 H 0.3505 1.0207 0.9135
H21 H 0.6234 1.0782 0.9216
C23 C 0.3446(6) 1.1704(2) 0.89714(9)
H22 H 0.1988 1.1607 0.8797
H23 H 0.4740 1.2180 0.8864
C24 C 0.5081(7) 1.2540(3) 0.96201(11)
H24 H 0.5977 1.1907 0.9684
H25 H 0.4629 1.2913 0.9838
H26 H 0.6262 1.2952 0.9471
H27 H 0.665(5) 0.826(3) 0.8014(11)
H28 H 0.539(10) 0.7322(16) 0.8063(11)
Cu2_2 Cu 0.76640(7) 0.72070(2) 0.890690(9)
O5_2 O -0.4076(4) 0.84349(12) 0.87260(5)
loop_
_geom_bond_atom_site_label_1
_geom_bond_atom_site_label_2
_geom_bond_site_symmetry_1
_geom_bond_site_symmetry_2
Cu1 N2 1_555 1_555
Cu2 N1 1_555 1_555
S1 C11 1_555 1_555
S2 C23 1_555 1_555
N1 C7 1_555 1_555
N2 C19 1_555 1_555
O1 Cu2 1_555 1_555
O2 Cu1 1_555 1_555
O3 C9 1_555 1_555
O4 Cu1 1_555 1_555
O5 Cu1 1_555 1_555
O6 C21 1_555 1_555
O7 Cu1 1_555 1_555
C1 O1 1_555 1_555
C2 C1 1_555 1_555
H1 C2 1_555 1_555
C3 C2 1_555 1_555
H2 C3 1_555 1_555
C4 C3 1_555 1_555
H3 C4 1_555 1_555
C5 C4 1_555 1_555
H4 C5 1_555 1_555
C6 C1 1_555 1_555
C7 C6 1_555 1_555
H5 C7 1_555 1_555
C8 N1 1_555 1_555
H6 C8 1_555 1_555
C9 O2 1_555 1_555
C10 C8 1_555 1_555
H7 C10 1_555 1_555
H8 C10 1_555 1_555
C11 C10 1_555 1_555
H9 C11 1_555 1_555
H10 C11 1_555 1_555
C12 S1 1_555 1_555
H11 C12 1_555 1_555
H12 C12 1_555 1_555
H13 C12 1_555 1_555
C13 O4 1_555 1_555
C14 C13 1_555 1_555
H14 C14 1_555 1_555
C15 C14 1_555 1_555
H15 C15 1_555 1_555
C16 C15 1_555 1_555
H16 C16 1_555 1_555
C17 C16 1_555 1_555
H17 C17 1_555 1_555
C18 C13 1_555 1_555
C19 C18 1_555 1_555
H18 C19 1_555 1_555
C20 N2 1_555 1_555
H19 C20 1_555 1_555
C21 O5 1_555 1_555
C22 C20 1_555 1_555
H20 C22 1_555 1_555
H21 C22 1_555 1_555
C23 C22 1_555 1_555
H22 C23 1_555 1_555
H23 C23 1_555 1_555
C24 S2 1_555 1_555
H24 C24 1_555 1_555
H25 C24 1_555 1_555
H26 C24 1_555 1_555
H27 O7 1_555 1_555
H28 O7 1_555 1_555
Cu2_2 O5 1_555 1_555
O5_2 Cu2 1_555 1_555
Cu2 O2 1_555 1_555
C5 C6 1_555 1_555
C8 C9 1_555 1_555
C17 C18 1_555 1_555
C20 C21 1_555 1_555

#END
