
#######################################################################
#
#                 Cambridge Crystallographic Data Centre
#                                CCDC 
#
#######################################################################
#
# If this CIF has been generated from an entry in the Cambridge 
# Structural Database, then it will include bibliographic, chemical, 
# crystal, experimental, refinement or atomic coordinate data resulting 
# from the CCDC's data processing and validation procedures.
#
#######################################################################

data_KIFGAJ
_symmetry_cell_setting           triclinic
_symmetry_space_group_name_H-M   'P -1'
_symmetry_Int_Tables_number      2
_space_group_name_Hall           '-P 1'
loop_
_symmetry_equiv_pos_site_id
_symmetry_equiv_pos_as_xyz
1 x,y,z
2 -x,-y,-z
_cell_length_a                   6.925(2)
_cell_length_b                   11.216(2)
_cell_length_c                   14.643(3)
_cell_angle_alpha                94.895(10)
_cell_angle_beta                 100.09(2)
_cell_angle_gamma                95.069(10)
_cell_volume                     1109.46
loop_
_atom_site_label
_atom_site_type_symbol
_atom_site_fract_x
_atom_site_fract_y
_atom_site_fract_z
Pb1 Pb 0.25524(13) 0.09842(7) 0.45019(6)
Pb2 Pb 0.39521(14) 0.76162(8) 0.75447(5)
Pb3 Pb 0.04953(15) 0.67847(9) 0.95868(6)
S1 S 0.3689(11) 0.0650(5) 0.6946(4)
S2 S 0.1890(8) 0.7834(5) 0.5115(4)
O1 O 0.181(3) -0.0079(15) 0.6870(12)
O2 O 0.538(3) -0.0004(15) 0.7258(12)
O3 O 0.395(3) 0.1217(14) 0.6144(10)
O4 O 0.350(3) 0.5400(13) 0.7271(12)
O5 O 0.304(3) 0.5935(15) 0.8695(13)
O6 O 0.524(3) 0.1453(18) 1.0725(11)
O7 O 0.299(3) 0.2671(16) 1.0950(10)
O8 O 0.156(2) 0.7250(14) 0.5924(10)
O9 O 0.381(2) 0.8570(14) 0.5277(12)
O10 O 0.030(2) 0.8519(13) 0.4756(10)
O11 O 0.295(3) 0.3127(13) 0.4799(10)
O12 O 0.279(2) 0.2600(13) 0.3303(11)
O13 O 0.134(3) 0.5392(13) 0.0963(10)
O14 O 0.121(3) 0.7303(15) 0.1383(10)
C1 C 0.368(3) 0.1841(16) 0.7834(14)
C2 C 0.394(3) 0.1594(19) 0.8730(14)
H1 H 0.4248 0.0834 0.8875
C3 C 0.374(3) 0.247(2) 0.9452(14)
C4 C 0.354(4) 0.363(2) 0.9223(16)
H2 H 0.3477 0.4241 0.9688
C5 C 0.341(3) 0.3893(19) 0.8315(15)
C6 C 0.348(3) 0.2962(18) 0.7606(16)
H3 H 0.3381 0.3128 0.6989
C7 C 0.193(3) 0.6675(17) 0.4224(13)
C8 C 0.235(4) 0.555(2) 0.4443(15)
H4 H 0.2560 0.5388 0.5063
C9 C 0.247(3) 0.4634(16) 0.3739(13)
C10 C 0.212(4) 0.4910(19) 0.2806(14)
H5 H 0.2140 0.4308 0.2331
C11 C 0.177(4) 0.6031(18) 0.2583(13)
C12 C 0.169(4) 0.6954(18) 0.3294(16)
H6 H 0.1488 0.7730 0.3150
C13 C 0.317(3) 0.510(3) 0.809(2)
C14 C 0.402(5) 0.219(2) 1.0429(19)
C15 C 0.280(3) 0.3406(16) 0.3971(15)
C16 C 0.138(3) 0.6227(16) 0.1574(15)
O15 O 0.056(2) 0.7926(14) 0.8013(9)
H7 H -0.0555 0.7751 0.7578
H8 H 0.0539 0.8683 0.8122
O16 O 0.144(4) 0.906(2) 0.9956(18)
H9 H 0.0924 0.9458 1.0353
H10 H 0.1952 0.9584 0.9658
Pb1A Pb -0.25524(13) 0.90158(7) 0.54981(6)
Pb1A_2 Pb 0.74476(13) 0.90158(7) 0.54981(6)
Pb2_2 Pb 0.39521(14) -0.23838(8) 0.75447(5)
Pb2A Pb 0.60479(14) 0.23838(8) 0.24553(5)
Pb2A_2 Pb 0.60479(14) 0.23838(8) 1.24553(5)
Pb3_2 Pb 0.04953(15) 0.67847(9) -0.04132(6)
Pb3A Pb -0.04953(15) 0.32153(9) 0.04132(6)
Pb3A_2 Pb -0.04953(15) 0.32153(9) 1.04132(6)
O2_2 O 0.538(3) 0.9996(15) 0.7258(12)
O6A O 0.476(3) 0.8547(18) 0.9275(11)
O7A O -0.299(3) 0.7329(16) 0.9050(10)
O7A_2 O 0.701(3) 0.7329(16) 0.9050(10)
O9A O 0.619(2) 0.1430(14) 0.4723(12)
O10A O -0.030(2) 0.1481(13) 0.5244(10)
O12A O 0.721(2) 0.7400(13) 0.6697(11)
O13_2 O 0.134(3) 0.5392(13) 1.0963(10)
O13A O -0.134(3) 0.4608(13) 0.9037(10)
O14_2 O 0.121(3) 0.7303(15) 1.1383(10)
O17 O 0.905(3) 0.0150(19) 0.8303(16)
H11 H 0.7810 0.0070 0.8299
H12 H 0.9423 0.0881 0.8511
loop_
_geom_bond_atom_site_label_1
_geom_bond_atom_site_label_2
_geom_bond_site_symmetry_1
_geom_bond_site_symmetry_2
Pb1 O3 1_555 1_555
Pb2 O4 1_555 1_555
Pb3 O5 1_555 1_555
S1 O1 1_555 1_555
S2 O8 1_555 1_555
O2 S1 1_555 1_555
O3 S1 1_555 1_555
O4 C13 1_555 1_555
O5 Pb2 1_555 1_555
O6 C14 1_555 1_555
O7 C14 1_555 1_555
O8 Pb2 1_555 1_555
O9 S2 1_555 1_555
O10 S2 1_555 1_555
O11 Pb1 1_555 1_555
O12 Pb1 1_555 1_555
O13 C16 1_555 1_555
O14 C16 1_555 1_555
C1 S1 1_555 1_555
C2 C1 1_555 1_555
H1 C2 1_555 1_555
C3 C2 1_555 1_555
C4 C3 1_555 1_555
H2 C4 1_555 1_555
C5 C4 1_555 1_555
C6 C1 1_555 1_555
H3 C6 1_555 1_555
C7 S2 1_555 1_555
C8 C7 1_555 1_555
H4 C8 1_555 1_555
C9 C8 1_555 1_555
C10 C9 1_555 1_555
H5 C10 1_555 1_555
C11 C10 1_555 1_555
C12 C7 1_555 1_555
H6 C12 1_555 1_555
C13 O5 1_555 1_555
C14 C3 1_555 1_555
C15 O11 1_555 1_555
C16 C11 1_555 1_555
O15 Pb2 1_555 1_555
H7 O15 1_555 1_555
H8 O15 1_555 1_555
O16 Pb3 1_555 1_555
H9 O16 1_555 1_555
H10 O16 1_555 1_555
O17 H11 1_555 1_555
H12 O17 1_555 1_555
Pb1A O10 1_555 1_555
Pb1A_2 O9 1_555 1_555
Pb2_2 O2 1_555 1_555
Pb2A O12 1_555 1_555
Pb2A_2 O6 1_555 1_555
Pb3_2 O13 1_555 1_555
Pb3A O13 1_555 1_555
Pb3A_2 O7 1_555 1_555
O2_2 Pb2 1_555 1_555
O6A Pb2 1_555 1_555
O7A Pb3 1_555 1_555
O7A_2 Pb2 1_555 1_555
O9A Pb1 1_555 1_555
O10A Pb1 1_555 1_555
O12A Pb2 1_555 1_555
O13_2 Pb3 1_555 1_555
O13A Pb3 1_555 1_555
O14_2 Pb3 1_555 1_555
Pb3 O15 1_555 1_555
O7 Pb2A_2 1_555 1_555
O12 C15 1_555 1_555
O14 Pb3_2 1_555 1_555
C5 C6 1_555 1_555
C5 C13 1_555 1_555
C9 C15 1_555 1_555
C11 C12 1_555 1_555
Pb1A_2 O12A 1_555 1_555
Pb3A_2 O13_2 1_555 1_555
Pb3A_2 O13A 1_555 1_555

#END
