
#######################################################################
#
#                 Cambridge Crystallographic Data Centre
#                                CCDC 
#
#######################################################################
#
# If this CIF has been generated from an entry in the Cambridge 
# Structural Database, then it will include bibliographic, chemical, 
# crystal, experimental, refinement or atomic coordinate data resulting 
# from the CCDC's data processing and validation procedures.
#
#######################################################################

data_KIFHUD
_symmetry_cell_setting           monoclinic
_symmetry_space_group_name_H-M   'P 21/c'
_symmetry_Int_Tables_number      14
_space_group_name_Hall           '-P 2ybc'
loop_
_symmetry_equiv_pos_site_id
_symmetry_equiv_pos_as_xyz
1 x,y,z
2 -x,1/2+y,1/2-z
3 -x,-y,-z
4 x,1/2-y,1/2+z
_cell_length_a                   14.0460(1)
_cell_length_b                   11.3220(1)
_cell_length_c                   15.0110(1)
_cell_angle_alpha                90
_cell_angle_beta                 116.650(1)
_cell_angle_gamma                90
_cell_volume                     2133.57
loop_
_atom_site_label
_atom_site_type_symbol
_atom_site_fract_x
_atom_site_fract_y
_atom_site_fract_z
Ag1 Ag -0.283054(10) 0.165392(12) -0.218096(9)
Fe1 Fe 0.206588(16) 0.120428(18) 0.296714(15)
O1 O 0.09552(8) 0.23756(9) 0.22342(8)
O2 O 0.10224(8) -0.00237(9) 0.21594(8)
O3 O 0.16790(9) 0.12348(10) 0.40796(8)
O4 O 0.30855(9) -0.00785(10) 0.37239(8)
O5 O -0.69294(9) 0.24604(10) -0.13910(8)
O6 O -0.73231(9) 0.38438(10) -0.30062(8)
O7 O -0.12438(15) 0.33713(16) -0.15402(16)
O8 O -0.1568(2) 0.46848(15) -0.26974(17)
O9 O -0.23051(16) 0.29599(16) -0.30785(14)
N1 N -0.21858(15) 0.12206(15) -0.05140(13)
N2 N 0.36203(13) -0.11042(15) 0.69371(12)
N3 N -0.46370(12) 0.11850(14) -0.27195(12)
N4 N -0.16967(16) 0.36858(16) -0.24361(17)
C1 C -0.05849(13) 0.33803(13) 0.11174(13)
H1 H -0.1164 0.3395 0.1312
H2 H -0.0885 0.3405 0.0389
H3 H -0.0122 0.4067 0.1403
C2 C 0.00482(11) 0.22753(12) 0.14955(10)
C3 C -0.03777(12) 0.11734(13) 0.10461(11)
C4 C 0.01053(12) 0.00693(13) 0.14291(10)
C5 C -0.04786(13) -0.10557(14) 0.09917(13)
H4 H 0.0031 -0.1709 0.1168
H5 H -0.0860 -0.0981 0.0265
H6 H -0.0990 -0.1213 0.1256
C6 C -0.13879(14) 0.11859(14) 0.01952(13)
C7 C 0.15097(14) 0.09649(15) 0.55489(12)
H7 H 0.1609 0.1799 0.5743
H8 H 0.1820 0.0470 0.6147
H9 H 0.0747 0.0794 0.5177
C8 C 0.20479(12) 0.07082(12) 0.49071(11)
C9 C 0.29090(11) -0.01033(13) 0.52161(11)
C10 C 0.33679(11) -0.04799(14) 0.45958(11)
C11 C 0.42106(16) -0.14146(19) 0.49509(14)
H10 H 0.3890 -0.2178 0.4968
H11 H 0.4757 -0.1215 0.5621
H12 H 0.4536 -0.1463 0.4495
C12 C 0.32908(13) -0.06510(14) 0.61736(12)
C13 C -0.57783(15) 0.08309(15) -0.10506(13)
H13 H -0.6115 0.0125 -0.1445
H14 H -0.5020 0.0838 -0.0888
H15 H -0.5856 0.0821 -0.0434
C14 C -0.63023(12) 0.19088(13) -0.16383(10)
C15 C -0.60834(11) 0.22803(13) -0.24329(10)
C16 C -0.65990(11) 0.32465(13) -0.30745(11)
C17 C -0.63093(14) 0.35708(15) -0.38867(12)
H16 H -0.6591 0.4357 -0.4143
H17 H -0.5532 0.3576 -0.3623
H18 H -0.6615 0.2992 -0.4427
C18 C -0.52853(12) 0.16644(13) -0.25895(12)
Fe1C Fe -0.793412(16) 0.379572(18) -0.203286(15)
O5C O 0.30706(9) 0.25396(10) 0.36090(8)
O6C O 0.26769(9) 0.11562(10) 0.19938(8)
loop_
_geom_bond_atom_site_label_1
_geom_bond_atom_site_label_2
_geom_bond_site_symmetry_1
_geom_bond_site_symmetry_2
Ag1 O9 1_555 1_555
Fe1 O1 1_555 1_555
O1 C2 1_555 1_555
O2 Fe1 1_555 1_555
O3 Fe1 1_555 1_555
O4 Fe1 1_555 1_555
O5 C14 1_555 1_555
O6 C16 1_555 1_555
O7 N4 1_555 1_555
O8 N4 1_555 1_555
O9 N4 1_555 1_555
N1 Ag1 1_555 1_555
N2 C12 1_555 1_555
N3 Ag1 1_555 1_555
C1 H1 1_555 1_555
H2 C1 1_555 1_555
H3 C1 1_555 1_555
C2 C1 1_555 1_555
C3 C2 1_555 1_555
C4 O2 1_555 1_555
C5 C4 1_555 1_555
H4 C5 1_555 1_555
H5 C5 1_555 1_555
H6 C5 1_555 1_555
C6 N1 1_555 1_555
C7 H7 1_555 1_555
H8 C7 1_555 1_555
H9 C7 1_555 1_555
C8 O3 1_555 1_555
C9 C8 1_555 1_555
C10 O4 1_555 1_555
C11 C10 1_555 1_555
H10 C11 1_555 1_555
H11 C11 1_555 1_555
H12 C11 1_555 1_555
C12 C9 1_555 1_555
C13 H13 1_555 1_555
H14 C13 1_555 1_555
H15 C13 1_555 1_555
C14 C13 1_555 1_555
C15 C14 1_555 1_555
C16 C15 1_555 1_555
C17 C16 1_555 1_555
H16 C17 1_555 1_555
H17 C17 1_555 1_555
H18 C17 1_555 1_555
C18 N3 1_555 1_555
Fe1C O5 1_555 1_555
O5C Fe1 1_555 1_555
O6C Fe1 1_555 1_555
O6 Fe1C 1_555 1_555
C3 C4 1_555 1_555
C3 C6 1_555 1_555
C7 C8 1_555 1_555
C9 C10 1_555 1_555
C15 C18 1_555 1_555

#END
