
#######################################################################
#
#                 Cambridge Crystallographic Data Centre
#                                CCDC 
#
#######################################################################
#
# If this CIF has been generated from an entry in the Cambridge 
# Structural Database, then it will include bibliographic, chemical, 
# crystal, experimental, refinement or atomic coordinate data resulting 
# from the CCDC's data processing and validation procedures.
#
#######################################################################

data_KIFHEM
_symmetry_cell_setting           monoclinic
_symmetry_space_group_name_H-M   'P 21/c'
_symmetry_Int_Tables_number      14
_space_group_name_Hall           '-P 2ybc'
loop_
_symmetry_equiv_pos_site_id
_symmetry_equiv_pos_as_xyz
1 x,y,z
2 -x,1/2+y,1/2-z
3 -x,-y,-z
4 x,1/2-y,1/2+z
_cell_length_a                   8.1657(5)
_cell_length_b                   19.9051(24)
_cell_length_c                   10.3097(7)
_cell_angle_alpha                90
_cell_angle_beta                 94.534(5)
_cell_angle_gamma                90
_cell_volume                     1670.49
loop_
_atom_site_label
_atom_site_type_symbol
_atom_site_fract_x
_atom_site_fract_y
_atom_site_fract_z
Pb1 Pb 0.26142(4) 0.45320(2) 0.08443(4)
I1 I -0.04354(8) 0.53652(3) 0.18918(7)
I2 I 0.44056(7) 0.59890(3) 0.07456(7)
N1 N 0.4177(9) 0.4293(5) 0.3202(9)
N2 N 0.1383(11) 0.3300(5) 0.1227(11)
C1 C 0.5856(13) 0.4329(6) 0.3149(12)
C2 C 0.6901(13) 0.4232(7) 0.4208(13)
C3 C 0.6312(15) 0.4065(7) 0.5336(13)
C4 C 0.4676(15) 0.4025(7) 0.5416(11)
C5 C 0.3606(13) 0.4143(6) 0.4323(11)
C6 C 0.1787(13) 0.4077(8) 0.4368(12)
C7 C -0.0272(14) 0.3300(6) 0.1177(16)
C8 C -0.1223(16) 0.2850(7) 0.1674(17)
C9 C -0.0432(17) 0.2320(7) 0.2321(21)
C10 C 0.1183(16) 0.2277(6) 0.2431(18)
C11 C 0.2089(13) 0.2766(5) 0.1850(13)
C12 C 0.3904(17) 0.2711(7) 0.1864(22)
H1 H 0.615(11) 0.426(5) 0.204(11)
H2 H 0.808(12) 0.437(5) 0.411(11)
H3 H 0.701(9) 0.403(4) 0.594(9)
H4 H 0.438(8) 0.403(4) 0.603(8)
H5 H 0.130(11) 0.430(5) 0.373(11)
H6 H 0.162(12) 0.414(5) 0.554(11)
H7 H 0.157(14) 0.360(7) 0.441(14)
H8 H -0.064(7) 0.356(4) 0.093(7)
H9 H -0.281(15) 0.287(7) 0.147(14)
H10 H 0.113(12) 0.189(6) 0.318(11)
H11 H 0.434(15) 0.238(8) 0.250(16)
H12 H 0.422(22) 0.300(10) 0.218(21)
I1B I 0.04354(8) 0.46348(3) -0.18918(7)
I2B I 0.55944(7) 0.40110(3) -0.07456(7)
Pb1B Pb -0.26142(4) 0.54680(2) -0.08443(4)
Pb1B_2 Pb 0.73858(4) 0.54680(2) -0.08443(4)
I2_2 I -0.55944(7) 0.59890(3) 0.07456(7)
I2B_2 I -0.44056(7) 0.40110(3) -0.07456(7)
N1B N -0.4177(9) 0.5707(5) -0.3202(9)
N2B N -0.1383(11) 0.6700(5) -0.1227(11)
C1B C -0.5856(13) 0.5671(6) -0.3149(12)
C5B C -0.3606(13) 0.5857(6) -0.4323(11)
C7B C 0.0272(14) 0.6700(6) -0.1177(16)
C11B C -0.2089(13) 0.7234(5) -0.1850(13)
C2B C -0.6901(13) 0.5768(7) -0.4208(13)
H1B H -0.615(11) 0.574(5) -0.204(11)
C4B C -0.4676(15) 0.5975(7) -0.5416(11)
C6B C -0.1787(13) 0.5923(8) -0.4368(12)
C8B C 0.1223(16) 0.7150(7) -0.1674(17)
H8B H 0.064(7) 0.644(4) -0.093(7)
C10B C -0.1183(16) 0.7723(6) -0.2431(18)
C12B C -0.3904(17) 0.7289(7) -0.1864(22)
C3B C -0.6312(15) 0.5935(7) -0.5336(13)
H2B H -0.808(12) 0.563(5) -0.411(11)
H4B H -0.438(8) 0.597(4) -0.603(8)
H5B H -0.130(11) 0.570(5) -0.373(11)
H6B H -0.162(12) 0.586(5) -0.554(11)
H7B H -0.157(14) 0.640(7) -0.441(14)
C9B C 0.0432(17) 0.7680(7) -0.2321(21)
H9B H 0.281(15) 0.713(7) -0.147(14)
H10B H -0.113(12) 0.811(6) -0.318(11)
H11B H -0.434(15) 0.762(8) -0.250(16)
H12B H -0.422(22) 0.700(10) -0.218(21)
H3B H -0.701(9) 0.597(4) -0.594(9)
loop_
_geom_bond_atom_site_label_1
_geom_bond_atom_site_label_2
_geom_bond_site_symmetry_1
_geom_bond_site_symmetry_2
Pb1 I1 1_555 1_555
I1 Pb1B 1_555 1_555
I2 Pb1 1_555 1_555
N1 Pb1 1_555 1_555
N2 Pb1 1_555 1_555
C1 N1 1_555 1_555
C2 C1 1_555 1_555
C3 C2 1_555 1_555
C4 C3 1_555 1_555
C5 N1 1_555 1_555
C6 C5 1_555 1_555
C7 N2 1_555 1_555
C8 C7 1_555 1_555
C9 C8 1_555 1_555
C10 C9 1_555 1_555
C11 N2 1_555 1_555
C12 C11 1_555 1_555
H1 C1 1_555 1_555
H2 C2 1_555 1_555
H3 C3 1_555 1_555
H4 C4 1_555 1_555
H5 C6 1_555 1_555
H6 C6 1_555 1_555
H7 C6 1_555 1_555
H8 C7 1_555 1_555
H9 C8 1_555 1_555
H10 C10 1_555 1_555
H11 C12 1_555 1_555
H12 C12 1_555 1_555
I1B Pb1 1_555 1_555
I2B Pb1 1_555 1_555
Pb1B I1B 1_555 1_555
Pb1B_2 I2 1_555 1_555
I2_2 Pb1B 1_555 1_555
I2B_2 Pb1B 1_555 1_555
N1B Pb1B 1_555 1_555
N2B Pb1B 1_555 1_555
C1B N1B 1_555 1_555
C5B N1B 1_555 1_555
C7B N2B 1_555 1_555
C11B N2B 1_555 1_555
C2B C1B 1_555 1_555
H1B C1B 1_555 1_555
C4B C5B 1_555 1_555
C6B C5B 1_555 1_555
C8B C7B 1_555 1_555
H8B C7B 1_555 1_555
C10B C11B 1_555 1_555
C12B C11B 1_555 1_555
C3B C2B 1_555 1_555
H2B C2B 1_555 1_555
H4B C4B 1_555 1_555
H5B C6B 1_555 1_555
H6B C6B 1_555 1_555
H7B C6B 1_555 1_555
C9B C8B 1_555 1_555
H9B C8B 1_555 1_555
H10B C10B 1_555 1_555
H11B C12B 1_555 1_555
H12B C12B 1_555 1_555
H3B C3B 1_555 1_555
C4 C5 1_555 1_555
C10 C11 1_555 1_555
I2B Pb1B_2 1_555 1_555
C4B C3B 1_555 1_555
C10B C9B 1_555 1_555

#END
