
#######################################################################
#
#                 Cambridge Crystallographic Data Centre
#                                CCDC 
#
#######################################################################
#
# If this CIF has been generated from an entry in the Cambridge 
# Structural Database, then it will include bibliographic, chemical, 
# crystal, experimental, refinement or atomic coordinate data resulting 
# from the CCDC's data processing and validation procedures.
#
#######################################################################

data_KIFNIX
_symmetry_cell_setting           triclinic
_symmetry_space_group_name_H-M   'P -1'
_symmetry_Int_Tables_number      2
_space_group_name_Hall           '-P 1'
loop_
_symmetry_equiv_pos_site_id
_symmetry_equiv_pos_as_xyz
1 x,y,z
2 -x,-y,-z
_cell_length_a                   7.0037(3)
_cell_length_b                   11.3631(5)
_cell_length_c                   17.4016(7)
_cell_angle_alpha                96.213(2)
_cell_angle_beta                 92.173(2)
_cell_angle_gamma                98.756(2)
_cell_volume                     1358.62
loop_
_atom_site_label
_atom_site_type_symbol
_atom_site_fract_x
_atom_site_fract_y
_atom_site_fract_z
Pb1 Pb 0.56664(3) 1.09075(2) 0.775644(13)
Pb2 Pb 0.73313(3) 0.89195(2) 0.450408(13)
N1 N 0.3870(7) 1.1772(5) 0.8915(3)
N2 N 0.3691(7) 0.9339(5) 0.8533(3)
N3 N 0.8473(7) 0.7719(5) 0.5550(3)
N4 N 0.7099(7) 0.6693(5) 0.4095(3)
N5 N 0.5433(8) 0.8928(5) 0.6873(3)
N6 N 0.5016(7) 0.8921(5) 0.6204(3)
N7 N 0.4602(7) 0.8894(5) 0.5539(3)
N8 N 0.6451(8) 1.1618(5) 0.6292(3)
N9 N 0.7704(7) 1.1208(5) 0.5975(3)
N10 N 0.8912(8) 1.0771(5) 0.5641(3)
N11 N 0.2677(7) 1.1018(5) 0.7093(3)
N12 N 0.1223(7) 1.0727(5) 0.7432(3)
N13 N -0.0145(8) 1.0445(6) 0.7745(4)
C1 C 0.3213(8) 1.1009(6) 0.9449(4)
C2 C 0.3866(9) 1.2935(7) 0.9094(4)
H1 H 0.4291 1.3453 0.8736
C3 C 0.3254(9) 1.3418(7) 0.9798(4)
H2 H 0.3241 1.4238 0.9892
C4 C 0.2682(9) 1.2697(6) 1.0342(4)
H3 H 0.2323 1.3018 1.0820
C5 C 0.2636(8) 1.1443(6) 1.0173(4)
C6 C 0.1961(8) 1.0613(6) 1.0700(4)
H4 H 0.1616 1.0902 1.1188
C7 C 0.1812(8) 0.9414(6) 1.0507(4)
H5 H 0.1338 0.8893 1.0856
C8 C 0.2375(8) 0.8946(6) 0.9772(4)
C9 C 0.2163(8) 0.7706(6) 0.9526(4)
H6 H 0.1654 0.7157 0.9853
C10 C 0.2709(9) 0.7303(6) 0.8801(4)
H7 H 0.2563 0.6488 0.8632
C11 C 0.3485(9) 0.8153(6) 0.8331(4)
H8 H 0.3884 0.7881 0.7849
C12 C 0.3107(8) 0.9736(6) 0.9239(4)
C13 C 0.8128(8) 0.6493(6) 0.5410(4)
C14 C 0.9177(9) 0.8214(6) 0.6247(4)
H9 H 0.9418 0.9046 0.6344
C15 C 0.9576(9) 0.7536(6) 0.6846(4)
H10 H 1.0083 0.7920 0.7326
C16 C 0.9219(9) 0.6325(7) 0.6723(4)
H11 H 0.9472 0.5871 0.7117
C17 C 0.8449(9) 0.5751(6) 0.5979(4)
C18 C 0.8037(9) 0.4486(6) 0.5815(4)
H12 H 0.8228 0.4001 0.6199
C19 C 0.7359(9) 0.3988(6) 0.5091(4)
H13 H 0.7107 0.3158 0.4984
C20 C 0.7026(8) 0.4712(6) 0.4489(4)
C21 C 0.6320(9) 0.4221(6) 0.3730(4)
H14 H 0.6041 0.3394 0.3605
C22 C 0.6049(9) 0.4966(6) 0.3179(4)
H15 H 0.5605 0.4656 0.2677
C23 C 0.6457(9) 0.6201(6) 0.3393(4)
H16 H 0.6266 0.6705 0.3020
C24 C 0.7387(8) 0.5958(6) 0.4643(4)
Pb2A Pb 1.26687(3) 1.10805(2) 0.549592(13)
Pb2A_2 Pb 0.26687(3) 1.10805(2) 0.549592(13)
N10A N 1.1088(8) 0.9229(5) 0.4359(3)
N11A N 0.7323(7) 0.8982(5) 0.2907(3)
Cl1 Cl 1.1242(3) 0.59477(18) 0.16647(12)
O1 O 1.2855(12) 0.6389(9) 0.2263(5)
O2 O 1.164(2) 0.5052(8) 0.1245(11)
O3 O 1.1297(13) 0.6945(7) 0.1285(6)
O4 O 0.9487(8) 0.5671(6) 0.2026(4)
loop_
_geom_bond_atom_site_label_1
_geom_bond_atom_site_label_2
_geom_bond_site_symmetry_1
_geom_bond_site_symmetry_2
Pb1 N1 1_555 1_555
Pb2 N3 1_555 1_555
Cl1 O1 1_555 1_555
O2 Cl1 1_555 1_555
O3 Cl1 1_555 1_555
O4 Cl1 1_555 1_555
N1 C1 1_555 1_555
N2 Pb1 1_555 1_555
N3 C13 1_555 1_555
N4 Pb2 1_555 1_555
N5 Pb1 1_555 1_555
N6 N5 1_555 1_555
N7 Pb2 1_555 1_555
N8 Pb1 1_555 1_555
N9 N8 1_555 1_555
N10 Pb2 1_555 1_555
N11 Pb1 1_555 1_555
N12 N11 1_555 1_555
N13 N12 1_555 1_555
C1 C5 1_555 1_555
C2 N1 1_555 1_555
H1 C2 1_555 1_555
C3 C2 1_555 1_555
H2 C3 1_555 1_555
C4 C3 1_555 1_555
H3 C4 1_555 1_555
C5 C4 1_555 1_555
C6 C5 1_555 1_555
H4 C6 1_555 1_555
C7 C6 1_555 1_555
H5 C7 1_555 1_555
C8 C7 1_555 1_555
C9 C8 1_555 1_555
H6 C9 1_555 1_555
C10 C9 1_555 1_555
H7 C10 1_555 1_555
C11 N2 1_555 1_555
H8 C11 1_555 1_555
C12 N2 1_555 1_555
C13 C17 1_555 1_555
C14 N3 1_555 1_555
H9 C14 1_555 1_555
C15 C14 1_555 1_555
H10 C15 1_555 1_555
C16 C15 1_555 1_555
H11 C16 1_555 1_555
C17 C16 1_555 1_555
C18 C17 1_555 1_555
H12 C18 1_555 1_555
C19 C18 1_555 1_555
H13 C19 1_555 1_555
C20 C19 1_555 1_555
C21 C20 1_555 1_555
H14 C21 1_555 1_555
C22 C21 1_555 1_555
H15 C22 1_555 1_555
C23 N4 1_555 1_555
H16 C23 1_555 1_555
C24 N4 1_555 1_555
Pb2A N10 1_555 1_555
Pb2A_2 N11 1_555 1_555
N10A Pb2 1_555 1_555
N11A Pb2 1_555 1_555
N6 N7 1_555 1_555
N9 N10 1_555 1_555
C1 C12 1_555 1_555
C8 C12 1_555 1_555
C10 C11 1_555 1_555
C13 C24 1_555 1_555
C20 C24 1_555 1_555
C22 C23 1_555 1_555
Pb2A N10A 1_555 1_555

#END
