
#######################################################################
#
#                 Cambridge Crystallographic Data Centre
#                                CCDC 
#
#######################################################################
#
# If this CIF has been generated from an entry in the Cambridge 
# Structural Database, then it will include bibliographic, chemical, 
# crystal, experimental, refinement or atomic coordinate data resulting 
# from the CCDC's data processing and validation procedures.
#
#######################################################################

data_KIFPEV
_symmetry_cell_setting           orthorhombic
_symmetry_space_group_name_H-M   'P 21 21 21'
_symmetry_Int_Tables_number      19
_space_group_name_Hall           'P 2ac 2ab'
loop_
_symmetry_equiv_pos_site_id
_symmetry_equiv_pos_as_xyz
1 x,y,z
2 1/2-x,-y,1/2+z
3 1/2+x,1/2-y,-z
4 -x,1/2+y,1/2-z
_cell_length_a                   5.653(1)
_cell_length_b                   14.340(3)
_cell_length_c                   18.640(2)
_cell_angle_alpha                90
_cell_angle_beta                 90
_cell_angle_gamma                90
_cell_volume                     1511.03
loop_
_atom_site_label
_atom_site_type_symbol
_atom_site_fract_x
_atom_site_fract_y
_atom_site_fract_z
Cu1 Cu 0.84830(13) 0.47229(5) 0.62517(3)
O1 O 0.8404(8) 0.4653(3) 0.52057(15)
O2 O 0.4786(8) 0.5228(3) 0.50576(17)
O3 O 0.6448(9) 0.5153(2) 0.22945(16)
O4 O 1.0194(8) 0.5528(3) 0.24943(17)
C1 C 0.6743(15) 0.4997(3) 0.4827(3)
C2 C 0.7315(8) 0.5124(3) 0.4075(4)
C3 C 0.7716(9) 0.5233(4) 0.3462(4)
C4 C 0.8221(13) 0.5320(4) 0.2687(2)
N1 N 0.8169(11) 0.6119(2) 0.6185(2)
C5 C 0.6471(16) 0.6578(4) 0.6533(3)
H1 H 0.5401 0.6240 0.6808
C6 C 0.6237(16) 0.7521(4) 0.6504(4)
H2 H 0.5035 0.7819 0.6757
C7 C 0.7801(14) 0.8029(4) 0.6096(5)
H3 H 0.7677 0.8674 0.6062
C8 C 0.9503(15) 0.7568(4) 0.5750(4)
H4 H 1.0592 0.7896 0.5474
C9 C 0.9664(12) 0.6620(4) 0.5795(3)
H5 H 1.0859 0.6316 0.5545
N2 N 0.8106(9) 0.3334(3) 0.6323(3)
C10 C 0.9294(12) 0.2843(4) 0.6818(3)
H6 H 1.0307 0.3167 0.7123
C11 C 0.9116(16) 0.1905(5) 0.6904(4)
H7 H 0.9959 0.1598 0.7262
C12 C 0.7679(14) 0.1435(5) 0.6456(6)
H8 H 0.7504 0.0793 0.6504
C13 C 0.6465(19) 0.1905(4) 0.5923(4)
H9 H 0.5527 0.1585 0.5595
C14 C 0.6680(15) 0.2840(4) 0.5892(3)
H10 H 0.5789 0.3160 0.5553
O5 O 1.2343(5) 0.4667(3) 0.6236(3)
H11 H 1.311(12) 0.485(4) 0.580(2)
H12 H 1.324(8) 0.456(3) 0.6664(17)
Cu1A Cu 0.65170(13) 0.52771(5) 0.12517(3)
O3A O 0.8552(9) 0.4847(2) 0.72945(16)
loop_
_geom_bond_atom_site_label_1
_geom_bond_atom_site_label_2
_geom_bond_site_symmetry_1
_geom_bond_site_symmetry_2
Cu1 O1 1_555 1_555
O1 C1 1_555 1_555
O2 C1 1_555 1_555
O3 C4 1_555 1_555
O4 C4 1_555 1_555
C1 C2 1_555 1_555
C2 C3 1_555 1_555
C3 C4 1_555 1_555
N1 Cu1 1_555 1_555
C5 N1 1_555 1_555
H1 C5 1_555 1_555
C6 C5 1_555 1_555
H2 C6 1_555 1_555
C7 C6 1_555 1_555
H3 C7 1_555 1_555
C8 C7 1_555 1_555
H4 C8 1_555 1_555
C9 N1 1_555 1_555
H5 C9 1_555 1_555
N2 Cu1 1_555 1_555
C10 N2 1_555 1_555
H6 C10 1_555 1_555
C11 C10 1_555 1_555
H7 C11 1_555 1_555
C12 C11 1_555 1_555
H8 C12 1_555 1_555
C13 C12 1_555 1_555
H9 C13 1_555 1_555
C14 N2 1_555 1_555
H10 C14 1_555 1_555
O5 Cu1 1_555 1_555
H11 O5 1_555 1_555
H12 O5 1_555 1_555
Cu1A O3 1_555 1_555
O3A Cu1 1_555 1_555
C8 C9 1_555 1_555
C13 C14 1_555 1_555

#END
