
#######################################################################
#
#                 Cambridge Crystallographic Data Centre
#                                CCDC 
#
#######################################################################
#
# If this CIF has been generated from an entry in the Cambridge 
# Structural Database, then it will include bibliographic, chemical, 
# crystal, experimental, refinement or atomic coordinate data resulting 
# from the CCDC's data processing and validation procedures.
#
#######################################################################

data_KIFTUQ
_symmetry_cell_setting           monoclinic
_symmetry_space_group_name_H-M   'P 21/c'
_symmetry_Int_Tables_number      14
_space_group_name_Hall           '-P 2ybc'
loop_
_symmetry_equiv_pos_site_id
_symmetry_equiv_pos_as_xyz
1 x,y,z
2 -x,1/2+y,1/2-z
3 -x,-y,-z
4 x,1/2-y,1/2+z
_cell_length_a                   10.3115(4)
_cell_length_b                   7.3868(3)
_cell_length_c                   14.2596(7)
_cell_angle_alpha                90
_cell_angle_beta                 126.966(3)
_cell_angle_gamma                90
_cell_volume                     867.817
loop_
_atom_site_label
_atom_site_type_symbol
_atom_site_fract_x
_atom_site_fract_y
_atom_site_fract_z
Co1 Co 0.93625(5) -0.05316(6) 0.11882(3)
C1 C 0.7977(4) 0.2253(4) 0.1889(2)
C2 C 0.6440(3) 0.2865(4) 0.1711(3)
C3 C 0.6393(3) 0.3667(4) 0.2585(3)
C4 C 0.4891(4) 0.4254(4) 0.2274(3)
H1 H 0.4833 0.4786 0.2854
C5 C 0.3491(4) 0.4073(4) 0.1140(3)
H2 H 0.2485 0.4503 0.0942
C6 C 0.3559(4) 0.3261(4) 0.0292(3)
C7 C 0.5030(4) 0.2648(4) 0.0580(3)
H3 H 0.5071 0.2079 0.0001
C8 C 0.7853(4) 0.3826(4) 0.3837(3)
N1 N 0.2110(3) 0.2960(4) -0.0856(2)
H4 H 0.2385 0.2921 -0.1361
H5 H 0.1455 0.3956 -0.1058
O1 O 0.8065(3) 0.0624(3) 0.17168(19)
O2 O 0.9010(2) 0.3455(3) 0.21090(17)
O3 O 0.9185(2) 0.3092(3) 0.41500(17)
O4 O 0.7672(2) 0.4656(3) 0.45163(18)
O5 O 1.0776(3) 0.1842(3) 0.15463(19)
H6 H 1.0582 0.2229 0.0919
H7 H 1.028(4) 0.262(5) 0.171(3)
Co1A Co 1.06375(5) 0.44684(6) 0.38118(3)
Co1B Co 0.06375(5) 0.05316(6) -0.11882(3)
Co1C Co 0.93625(5) 0.55316(6) 0.61882(3)
N1B N 0.7890(3) -0.2960(4) 0.0856(2)
O2A O 1.0990(2) -0.1545(3) 0.28910(17)
O3A O 1.0815(2) -0.1908(3) 0.08500(17)
O4C O 0.7672(2) 0.0344(3) -0.04837(18)
loop_
_geom_bond_atom_site_label_1
_geom_bond_atom_site_label_2
_geom_bond_site_symmetry_1
_geom_bond_site_symmetry_2
Co1 O1 1_555 1_555
C1 C2 1_555 1_555
C2 C3 1_555 1_555
C3 C4 1_555 1_555
C4 H1 1_555 1_555
C5 C4 1_555 1_555
H2 C5 1_555 1_555
C6 C5 1_555 1_555
C7 C2 1_555 1_555
H3 C7 1_555 1_555
C8 C3 1_555 1_555
N1 C6 1_555 1_555
H4 N1 1_555 1_555
H5 N1 1_555 1_555
O1 C1 1_555 1_555
O2 C1 1_555 1_555
O3 C8 1_555 1_555
O4 C8 1_555 1_555
O5 Co1 1_555 1_555
H6 O5 1_555 1_555
H7 O5 1_555 1_555
Co1A O2 1_555 1_555
Co1B N1 1_555 1_555
Co1C O4 1_555 1_555
N1B Co1 1_555 1_555
O2A Co1 1_555 1_555
O3A Co1 1_555 1_555
O4C Co1 1_555 1_555
C6 C7 1_555 1_555
O3 Co1A 1_555 1_555

#END
