
#######################################################################
#
#                 Cambridge Crystallographic Data Centre
#                                CCDC 
#
#######################################################################
#
# If this CIF has been generated from an entry in the Cambridge 
# Structural Database, then it will include bibliographic, chemical, 
# crystal, experimental, refinement or atomic coordinate data resulting 
# from the CCDC's data processing and validation procedures.
#
#######################################################################

data_KIFTEA
_symmetry_cell_setting           monoclinic
_symmetry_space_group_name_H-M   'C 2/c'
_symmetry_Int_Tables_number      15
_space_group_name_Hall           '-C 2yn'
loop_
_symmetry_equiv_pos_site_id
_symmetry_equiv_pos_as_xyz
1 x,y,z
2 -x,y,1/2-z
3 1/2+x,1/2+y,z
4 1/2-x,1/2+y,1/2-z
5 -x,-y,-z
6 x,-y,1/2+z
7 1/2-x,1/2-y,-z
8 1/2+x,1/2-y,1/2+z
_cell_length_a                   37.186(3)
_cell_length_b                   5.9373(4)
_cell_length_c                   14.9209(9)
_cell_angle_alpha                90
_cell_angle_beta                 112.981(8)
_cell_angle_gamma                90
_cell_volume                     3032.85
loop_
_atom_site_label
_atom_site_type_symbol
_atom_site_fract_x
_atom_site_fract_y
_atom_site_fract_z
Co1 Co 0.205887(8) 0.73362(5) 0.334000(19)
C1 C 0.10158(6) 0.9302(4) 0.44818(15)
C2 C 0.09015(7) 0.7412(4) 0.48405(16)
H1 H 0.0633 0.7126 0.4697
C3 C 0.11858(6) 0.5955(4) 0.54103(15)
H2 H 0.1114 0.4661 0.5677
C4 C 0.15805(6) 0.6361(4) 0.56015(14)
C5 C 0.16861(6) 0.8275(4) 0.52151(14)
C6 C 0.14027(6) 0.9779(4) 0.46593(15)
H3 H 0.1471 1.1104 0.4406
C7 C 0.21085(6) 0.8659(4) 0.53700(15)
C8 C 0.18835(6) 0.4704(4) 0.62114(16)
C9 C 0.12596(7) 0.9895(5) 0.22068(16)
H4 H 0.1391 1.1186 0.2111
C10 C 0.11647(6) 0.6693(4) 0.26736(15)
H5 H 0.1199 0.5239 0.2962
C11 C 0.04291(6) 0.6769(5) 0.19491(16)
H6 H 0.0269 0.7997 0.2052
H7 H 0.0448 0.5561 0.2423
C12 C 0.02200(6) 0.5845(4) 0.09328(15)
C13 C 0.00568(7) 0.3714(5) 0.08111(16)
H8 H 0.0096 0.2815 0.1368
C14 C -0.01631(7) 0.2864(5) -0.01080(17)
H9 H -0.0275 0.1403 -0.0175
N1 N 0.14512(5) 0.8078(4) 0.27286(12)
N2 N 0.08222(6) 0.7636(4) 0.21557(13)
N3 N 0.08768(6) 0.9718(4) 0.18460(14)
N4 N 0.07155(6) 1.0826(4) 0.38384(13)
O1 O 0.19132(4) 0.4534(3) 0.70728(10)
O2 O 0.20798(4) 0.3673(3) 0.58200(10)
O3 O 0.21836(4) 0.9119(3) 0.46460(10)
O4 O 0.23548(4) 0.8484(3) 0.62398(10)
O5 O 0.08128(5) 1.2676(3) 0.36553(13)
O6 O 0.03746(5) 1.0143(3) 0.35017(11)
O7 O 0.19206(5) 0.4255(3) 0.38721(12)
O8 O 0.21852(5) 1.0539(3) 0.28913(12)
H10 H 0.2406(7) 1.074(5) 0.3298(16)
H11 H 0.2207(7) 1.071(5) 0.2403(18)
H12 H 0.1974(7) 0.413(5) 0.4418(17)
H13 H 0.1990(7) 0.332(5) 0.3672(18)
C9D C -0.12596(7) 0.0105(5) -0.22068(16)
H4D H -0.1391 -0.1186 -0.2111
C10D C -0.11647(6) 0.3307(4) -0.26736(15)
H5D H -0.1199 0.4761 -0.2962
C11D C -0.04291(6) 0.3231(5) -0.19491(16)
H6D H -0.0269 0.2003 -0.2052
H7D H -0.0448 0.4439 -0.2423
C12D C -0.02200(6) 0.4155(4) -0.09328(15)
C13D C -0.00568(7) 0.6286(5) -0.08111(16)
H8D H -0.0096 0.7185 -0.1368
C14D C 0.01631(7) 0.7136(5) 0.01080(17)
H9D H 0.0275 0.8597 0.0175
N1D N -0.14512(5) 0.1922(4) -0.27286(12)
N2D N -0.08222(6) 0.2364(4) -0.21557(13)
N3D N -0.08768(6) 0.0282(4) -0.18460(14)
Co1D Co -0.205887(8) 0.26638(5) -0.334000(19)
C1D C -0.10158(6) 0.0698(4) -0.44818(15)
C2D C -0.09015(7) 0.2588(4) -0.48405(16)
H1D H -0.0633 0.2874 -0.4697
C3D C -0.11858(6) 0.4045(4) -0.54103(15)
H2D H -0.1114 0.5339 -0.5677
C4D C -0.15805(6) 0.3639(4) -0.56015(14)
C5D C -0.16861(6) 0.1725(4) -0.52151(14)
C6D C -0.14027(6) 0.0221(4) -0.46593(15)
H3D H -0.1471 -0.1104 -0.4406
C7D C -0.21085(6) 0.1341(4) -0.53700(15)
C8D C -0.18835(6) 0.5296(4) -0.62114(16)
N4D N -0.07155(6) -0.0826(4) -0.38384(13)
O1D O -0.19132(4) 0.5466(3) -0.70728(10)
O2D O -0.20798(4) 0.6327(3) -0.58200(10)
O3D O -0.21836(4) 0.0881(3) -0.46460(10)
O4D O -0.23548(4) 0.1516(3) -0.62398(10)
O5D O -0.08128(5) -0.2676(3) -0.36553(13)
O6D O -0.03746(5) -0.0143(3) -0.35017(11)
O7D O -0.19206(5) 0.5745(3) -0.38721(12)
O8D O -0.21852(5) -0.0539(3) -0.28913(12)
H10D H -0.2406(7) -0.074(5) -0.3298(16)
H11D H -0.2207(7) -0.071(5) -0.2403(18)
H12D H -0.1974(7) 0.587(5) -0.4418(17)
H13D H -0.1990(7) 0.668(5) -0.3672(18)
Co1A Co -0.205887(8) 0.73362(5) -0.834000(19)
Co1B Co -0.294113(8) 0.23362(5) -0.666000(19)
Co1E Co 0.205887(8) 0.26638(5) 0.834000(19)
Co1F Co 0.294113(8) 0.76638(5) 0.666000(19)
O1A O -0.19132(4) 0.4534(3) -0.20728(10)
O1E O 0.19132(4) 0.5466(3) 0.20728(10)
O4B O -0.26452(4) 0.3484(3) -0.37602(10)
O4F O 0.26452(4) 0.6516(3) 0.37602(10)
loop_
_geom_bond_atom_site_label_1
_geom_bond_atom_site_label_2
_geom_bond_site_symmetry_1
_geom_bond_site_symmetry_2
Co1 N1 1_555 1_555
C1 C2 1_555 1_555
C2 H1 1_555 1_555
C3 C2 1_555 1_555
H2 C3 1_555 1_555
C4 C3 1_555 1_555
C5 C4 1_555 1_555
C6 C1 1_555 1_555
H3 C6 1_555 1_555
C7 C5 1_555 1_555
C8 C4 1_555 1_555
C9 H4 1_555 1_555
C10 H5 1_555 1_555
C11 H6 1_555 1_555
H7 C11 1_555 1_555
C12 C11 1_555 1_555
C13 C12 1_555 1_555
H8 C13 1_555 1_555
C14 C13 1_555 1_555
H9 C14 1_555 1_555
N1 C9 1_555 1_555
N2 C10 1_555 1_555
N3 C9 1_555 1_555
N4 C1 1_555 1_555
O1 C8 1_555 1_555
O2 C8 1_555 1_555
O3 Co1 1_555 1_555
O4 C7 1_555 1_555
O5 N4 1_555 1_555
O6 N4 1_555 1_555
O7 Co1 1_555 1_555
O8 Co1 1_555 1_555
H10 O8 1_555 1_555
H11 O8 1_555 1_555
H12 O7 1_555 1_555
H13 O7 1_555 1_555
C9D H4D 1_555 1_555
C10D H5D 1_555 1_555
C11D H6D 1_555 1_555
H7D C11D 1_555 1_555
C12D C14 1_555 1_555
C13D C12D 1_555 1_555
H8D C13D 1_555 1_555
C14D C12 1_555 1_555
H9D C14D 1_555 1_555
N1D C9D 1_555 1_555
N2D C10D 1_555 1_555
N3D C9D 1_555 1_555
Co1D N1D 1_555 1_555
C1D C2D 1_555 1_555
C2D H1D 1_555 1_555
C3D C2D 1_555 1_555
H2D C3D 1_555 1_555
C4D C3D 1_555 1_555
C5D C4D 1_555 1_555
C6D C1D 1_555 1_555
H3D C6D 1_555 1_555
C7D C5D 1_555 1_555
C8D C4D 1_555 1_555
N4D C1D 1_555 1_555
O1D C8D 1_555 1_555
O2D C8D 1_555 1_555
O3D Co1D 1_555 1_555
O4D C7D 1_555 1_555
O5D N4D 1_555 1_555
O6D N4D 1_555 1_555
O7D Co1D 1_555 1_555
O8D Co1D 1_555 1_555
H10D O8D 1_555 1_555
H11D O8D 1_555 1_555
H12D O7D 1_555 1_555
H13D O7D 1_555 1_555
Co1A O1D 1_555 1_555
Co1B O4D 1_555 1_555
Co1E O1 1_555 1_555
Co1F O4 1_555 1_555
O1A Co1D 1_555 1_555
O1E Co1 1_555 1_555
O4B Co1D 1_555 1_555
O4F Co1 1_555 1_555
C5 C6 1_555 1_555
C7 O3 1_555 1_555
C10 N1 1_555 1_555
C11 N2 1_555 1_555
N2 N3 1_555 1_555
C10D N1D 1_555 1_555
C11D C12D 1_555 1_555
C11D N2D 1_555 1_555
C13D C14D 1_555 1_555
N2D N3D 1_555 1_555
C5D C6D 1_555 1_555
C7D O3D 1_555 1_555

#END
