
#######################################################################
#
#                 Cambridge Crystallographic Data Centre
#                                CCDC 
#
#######################################################################
#
# If this CIF has been generated from an entry in the Cambridge 
# Structural Database, then it will include bibliographic, chemical, 
# crystal, experimental, refinement or atomic coordinate data resulting 
# from the CCDC's data processing and validation procedures.
#
#######################################################################

data_KIGCEI
_symmetry_cell_setting           monoclinic
_symmetry_space_group_name_H-M   'P 21/c'
_symmetry_Int_Tables_number      14
_space_group_name_Hall           '-P 2ybc'
loop_
_symmetry_equiv_pos_site_id
_symmetry_equiv_pos_as_xyz
1 x,y,z
2 -x,1/2+y,1/2-z
3 -x,-y,-z
4 x,1/2-y,1/2+z
_cell_length_a                   6.018(2)
_cell_length_b                   16.562(6)
_cell_length_c                   12.518(4)
_cell_angle_alpha                90
_cell_angle_beta                 116.18(4)
_cell_angle_gamma                90
_cell_volume                     1119.68
loop_
_atom_site_label
_atom_site_type_symbol
_atom_site_fract_x
_atom_site_fract_y
_atom_site_fract_z
Nd1 Nd 0.16114(5) 0.14777(2) 0.24738(2)
Cl1 Cl 0.1615(3) 0.0345(1) 0.4176(2)
Cl2 Cl -0.1746(3) 0.0279(1) 0.1117(2)
Cl3 Cl -0.0867(3) 0.2494(1) 0.0473(1)
O1 O -0.1900(8) 0.2002(3) 0.2660(4)
O2 O -0.5495(8) 0.2460(3) 0.2487(4)
O3 O 0.5797(9) 0.0890(3) 0.3622(4)
O4 O 0.3101(9) 0.2339(4) 0.4319(4)
O5 O 0.3147(9) 0.0979(3) 0.1009(4)
N1 N -0.6755(12) 0.4074(4) 0.1929(6)
C1 C -0.3338(11) 0.2570(4) 0.2578(5)
C2 C -0.2586(14) 0.3440(4) 0.2555(7)
C3 C -0.4123(14) 0.4047(5) 0.2828(6)
H1 H -0.273 0.356 0.174
H2 H -0.082 0.351 0.316
H3 H -0.339 0.459 0.288
H4 H -0.407 0.391 0.362
H5 H -0.783 0.418 0.229
H6 H -0.702 0.448 0.130
H7 H -0.721 0.353 0.154
H8 H 0.622 0.064 0.438
H9 H 0.708 0.115 0.375
H10 H 0.260 0.244 0.497
H11 H 0.477 0.234 0.483
H12 H 0.294 0.048 0.057
H13 H 0.442 0.126 0.082
O2_2 O 0.4505(8) 0.2460(3) 0.2487(4)
Nd1_2 Nd -0.83886(5) 0.14777(2) 0.24738(2)
loop_
_geom_bond_atom_site_label_1
_geom_bond_atom_site_label_2
_geom_bond_site_symmetry_1
_geom_bond_site_symmetry_2
Nd1 Cl1 1_555 1_555
Cl2 Nd1 1_555 1_555
Cl3 Nd1 1_555 1_555
O1 Nd1 1_555 1_555
O2 C1 1_555 1_555
O3 Nd1 1_555 1_555
O4 Nd1 1_555 1_555
O5 Nd1 1_555 1_555
N1 C3 1_555 1_555
C1 O1 1_555 1_555
C2 C1 1_555 1_555
C3 C2 1_555 1_555
H1 C2 1_555 1_555
H2 C2 1_555 1_555
H3 C3 1_555 1_555
H4 C3 1_555 1_555
H5 N1 1_555 1_555
H6 N1 1_555 1_555
H7 N1 1_555 1_555
H8 O3 1_555 1_555
H9 O3 1_555 1_555
H10 O4 1_555 1_555
H11 O4 1_555 1_555
H12 O5 1_555 1_555
H13 O5 1_555 1_555
O2_2 Nd1 1_555 1_555
Nd1_2 O2 1_555 1_555

#END
