
#######################################################################
#
#                 Cambridge Crystallographic Data Centre
#                                CCDC 
#
#######################################################################
#
# If this CIF has been generated from an entry in the Cambridge 
# Structural Database, then it will include bibliographic, chemical, 
# crystal, experimental, refinement or atomic coordinate data resulting 
# from the CCDC's data processing and validation procedures.
#
#######################################################################

data_KIGCEK
_symmetry_cell_setting           hexagonal
_symmetry_space_group_name_H-M   'P 61'
_symmetry_Int_Tables_number      169
_space_group_name_Hall           'P 61'
loop_
_symmetry_equiv_pos_site_id
_symmetry_equiv_pos_as_xyz
1 x,y,z
2 x-y,x,1/6+z
3 -y,x-y,1/3+z
4 -x,-y,1/2+z
5 -x+y,-x,2/3+z
6 y,-x+y,5/6+z
_cell_length_a                   17.4807(3)
_cell_length_b                   17.4807(3)
_cell_length_c                   10.4350(2)
_cell_angle_alpha                90
_cell_angle_beta                 90
_cell_angle_gamma                120
_cell_volume                     2761.47
loop_
_atom_site_label
_atom_site_type_symbol
_atom_site_fract_x
_atom_site_fract_y
_atom_site_fract_z
Zn1 Zn 0.46481(4) 0.53607(4) 0.08799(8)
O1 O 0.4905(2) 0.5164(2) 0.2809(4)
O2 O 0.5605(3) 0.4615(3) 0.3931(4)
O3 O 0.6707(4) 0.5461(5) 0.0502(7)
H1 H 0.6525 0.5789 0.0742
O4 O 0.5360(3) 0.6651(3) 0.0943(5)
O5 O 0.6627(8) 0.6851(8) 0.1796(12)
N1 N 0.4912(3) 0.1577(3) -0.0410(4)
N2 N 0.4960(3) 0.4366(3) 0.0625(4)
H2 H 0.5300 0.4493 -0.0090
C1 C 0.5026(4) 0.2201(4) -0.1264(6)
H3 H 0.5305 0.2229 -0.2037
C2 C 0.4748(5) 0.2801(4) -0.1043(6)
H4 H 0.4832 0.3218 -0.1664
C3 C 0.4343(4) 0.2783(4) 0.0108(6)
C4 C 0.4206(4) 0.2132(4) 0.0978(7)
H5 H 0.3925 0.2088 0.1754
C5 C 0.4493(4) 0.1541(4) 0.0682(6)
H6 H 0.4390 0.1100 0.1270
C6 C 0.4126(3) 0.3496(4) 0.0414(6)
H7 H 0.3793 0.3551 -0.0287
H8 H 0.3763 0.3335 0.1179
C7 C 0.5471(3) 0.4340(4) 0.1719(5)
H9 H 0.5264 0.3717 0.1911
C8 C 0.5311(3) 0.4750(4) 0.2911(5)
C9 C 0.6478(4) 0.4790(4) 0.1397(6)
H10 H 0.6825 0.5035 0.2181
C10 C 0.6732(7) 0.4173(7) 0.0769(13)
H11 H 0.6308 0.3574 0.0990
H12 H 0.7307 0.4307 0.1062
H13 H 0.6743 0.4243 -0.0144
C11 C 0.6139(7) 0.7097(7) 0.1010(12)
C12 C 0.6595(5) 0.8065(5) 0.0946(15)
H14 H 0.6474 0.8243 0.0136
H15 H 0.7220 0.8300 0.1033
H16 H 0.6389 0.8286 0.1626
Zn1C Zn 0.53519(4) 0.46393(4) 0.58799(8)
Zn1E Zn 0.53607(4) 0.07126(6) -0.07868(8)
O2C O 0.4395(3) 0.5385(3) -0.1069(4)
N1A N 0.3335(4) 0.4912(3) 0.1257(4)
O6 O 0.1735(17) 0.2248(16) 0.065(3)
O7 O 0.2441(11) 0.2122(11) 0.273(3)
O8 O 0.070(3) 0.077(3) 0.638(7)
O9 O 0.0278(13) 0.2108(10) 0.021(2)
O10 O 0.2314(15) 0.0471(13) 0.285(4)
loop_
_geom_bond_atom_site_label_1
_geom_bond_atom_site_label_2
_geom_bond_site_symmetry_1
_geom_bond_site_symmetry_2
Zn1 O1 1_555 1_555
O1 C8 1_555 1_555
O2 C8 1_555 1_555
O3 H1 1_555 1_555
O4 Zn1 1_555 1_555
O5 C11 1_555 1_555
N1 C1 1_555 1_555
N2 Zn1 1_555 1_555
H2 N2 1_555 1_555
C1 H3 1_555 1_555
C2 C1 1_555 1_555
H4 C2 1_555 1_555
C3 C2 1_555 1_555
C4 C3 1_555 1_555
H5 C4 1_555 1_555
C5 N1 1_555 1_555
H6 C5 1_555 1_555
C6 N2 1_555 1_555
H7 C6 1_555 1_555
H8 C6 1_555 1_555
C7 N2 1_555 1_555
H9 C7 1_555 1_555
C8 C7 1_555 1_555
C9 O3 1_555 1_555
H10 C9 1_555 1_555
C10 C9 1_555 1_555
H11 C10 1_555 1_555
H12 C10 1_555 1_555
H13 C10 1_555 1_555
C11 O4 1_555 1_555
C12 C11 1_555 1_555
H14 C12 1_555 1_555
H15 C12 1_555 1_555
H16 C12 1_555 1_555
Zn1C O2 1_555 1_555
Zn1E N1 1_555 1_555
O2C Zn1 1_555 1_555
N1A Zn1 1_555 1_555
C3 C6 1_555 1_555
C4 C5 1_555 1_555
C7 C9 1_555 1_555

#END
