
#######################################################################
#
#                 Cambridge Crystallographic Data Centre
#                                CCDC 
#
#######################################################################
#
# If this CIF has been generated from an entry in the Cambridge 
# Structural Database, then it will include bibliographic, chemical, 
# crystal, experimental, refinement or atomic coordinate data resulting 
# from the CCDC's data processing and validation procedures.
#
#######################################################################

data_KIGHIR
_symmetry_cell_setting           monoclinic
_symmetry_space_group_name_H-M   'I 2/a'
_symmetry_Int_Tables_number      15
_space_group_name_Hall           '-I 2ya'
loop_
_symmetry_equiv_pos_site_id
_symmetry_equiv_pos_as_xyz
1 x,y,z
2 1/2+x,1/2+y,1/2+z
3 1/2-x,y,-z
4 -x,1/2+y,1/2-z
5 -x,-y,-z
6 1/2-x,1/2-y,1/2-z
7 1/2+x,-y,z
8 x,1/2-y,1/2+z
_cell_length_a                   13.6953(15)
_cell_length_b                   12.4347(5)
_cell_length_c                   15.7589(7)
_cell_angle_alpha                90
_cell_angle_beta                 91.960(11)
_cell_angle_gamma                90
_cell_volume                     2682.12
loop_
_atom_site_label
_atom_site_type_symbol
_atom_site_fract_x
_atom_site_fract_y
_atom_site_fract_z
Cu1 Cu -0.65831(9) 0.46468(8) -0.27749(7)
Cu2 Cu -0.61926(8) 0.19146(7) -0.30441(5)
Br1 Br -0.59652(6) 0.62760(6) -0.22066(5)
Br2 Br -0.61534(7) 0.34739(5) -0.39814(4)
Br3 Br -0.62133(6) 0.30239(5) -0.18030(4)
C1 C -0.6179(6) -0.0625(5) -0.2845(5)
N1 N -0.6225(5) -0.0086(5) -0.5127(3)
C2 C -0.6243(6) 0.0904(6) -0.4776(4)
N2 N -0.6247(5) 0.0822(4) -0.3944(3)
C3 C -0.6221(5) -0.0263(5) -0.3754(4)
C4 C -0.6208(5) -0.0841(5) -0.4483(4)
C5 C -0.6156(7) -0.2011(6) -0.4631(6)
C6 C -0.6430(8) -0.0693(7) -0.0773(5)
C7 C -0.6123(6) 0.0325(5) -0.1208(4)
S1 S -0.67253(12) 0.04487(11) -0.22403(9)
H1 H -0.5486(6) -0.0742(5) -0.2647(4)
H2 H -0.6556(6) -0.1307(5) -0.2781(4)
H3 H -0.625(7) -0.034(6) -0.5726(18)
H4 H -0.615(7) 0.158(4) -0.510(5)
H5 H -0.6257(7) -0.2466(6) -0.4118(6)
H6 H -0.6714(7) -0.2118(6) -0.5049(6)
H7 H -0.5532(7) -0.2225(6) -0.4898(6)
H8 H -0.6124(8) -0.0677(7) -0.0188(5)
H9 H -0.7157(8) -0.0718(7) -0.0736(5)
H10 H -0.6200(8) -0.1345(7) -0.1080(5)
H11 H -0.5400(6) 0.0311(5) -0.1277(4)
H12 H -0.6298(6) 0.0957(5) -0.0851(4)
Br1C Br -0.40348(6) 0.12760(6) -0.27934(5)
Cu2C Cu -0.38074(8) 0.69146(7) -0.19559(5)
Cu1E Cu -0.84169(9) 0.03532(8) -0.22251(7)
S1E S -0.82747(12) 0.45513(11) -0.27597(9)
loop_
_geom_bond_atom_site_label_1
_geom_bond_atom_site_label_2
_geom_bond_site_symmetry_1
_geom_bond_site_symmetry_2
Cu1 Br1 1_555 1_555
Cu2 Br2 1_555 1_555
Br1 Cu2C 1_555 1_555
Br2 Cu1 1_555 1_555
Br3 Cu1 1_555 1_555
C1 C3 1_555 1_555
N1 C2 1_555 1_555
C2 N2 1_555 1_555
N2 Cu2 1_555 1_555
C3 N2 1_555 1_555
C4 N1 1_555 1_555
C5 C4 1_555 1_555
C6 C7 1_555 1_555
C7 S1 1_555 1_555
S1 Cu2 1_555 1_555
H1 C1 1_555 1_555
H2 C1 1_555 1_555
H3 N1 1_555 1_555
H4 C2 1_555 1_555
H5 C5 1_555 1_555
H6 C5 1_555 1_555
H7 C5 1_555 1_555
H8 C6 1_555 1_555
H9 C6 1_555 1_555
H10 C6 1_555 1_555
H11 C7 1_555 1_555
H12 C7 1_555 1_555
Br1C Cu2 1_555 1_555
Cu1E S1 1_555 1_555
S1E Cu1 1_555 1_555
Cu2 Br3 1_555 1_555
C1 S1 1_555 1_555
C3 C4 1_555 1_555

#END
