
#######################################################################
#
#                 Cambridge Crystallographic Data Centre
#                                CCDC 
#
#######################################################################
#
# If this CIF has been generated from an entry in the Cambridge 
# Structural Database, then it will include bibliographic, chemical, 
# crystal, experimental, refinement or atomic coordinate data resulting 
# from the CCDC's data processing and validation procedures.
#
#######################################################################

data_KIGLUJ
_symmetry_cell_setting           monoclinic
_symmetry_space_group_name_H-M   'P 21'
_symmetry_Int_Tables_number      4
_space_group_name_Hall           'P 2yb'
loop_
_symmetry_equiv_pos_site_id
_symmetry_equiv_pos_as_xyz
1 x,y,z
2 -x,1/2+y,-z
_cell_length_a                   12.395(3)
_cell_length_b                   18.092(4)
_cell_length_c                   14.144(3)
_cell_angle_alpha                90
_cell_angle_beta                 115.46(3)
_cell_angle_gamma                90
_cell_volume                     2863.77
loop_
_atom_site_label
_atom_site_type_symbol
_atom_site_fract_x
_atom_site_fract_y
_atom_site_fract_z
Co1 Co 0.51346(6) 0.52713(3) 1.05591(5)
P1 P 0.57152(12) 0.63596(8) 0.90045(10)
P2 P -0.41658(12) 0.49199(8) 0.40091(10)
C1 C -0.2255(5) 0.6372(3) 0.6728(4)
H1 H -0.2558 0.6810 0.6365
C2 C -0.1026(5) 0.6305(3) 0.7272(4)
H2 H -0.0525 0.6688 0.7270
C3 C -0.0553(5) 0.5653(3) 0.7822(4)
C4 C -0.1366(5) 0.5111(3) 0.7797(4)
H3 H -0.1094 0.4671 0.8165
C5 C -0.2571(5) 0.5230(3) 0.7226(4)
H4 H -0.3096 0.4858 0.7211
C6 C 0.2502(5) 0.4766(3) 0.9197(4)
H5 H 0.2825 0.4293 0.9356
C7 C 0.1280(5) 0.4843(3) 0.8644(4)
H6 H 0.0800 0.4424 0.8441
C8 C 0.0756(4) 0.5536(3) 0.8386(4)
C9 C 0.1534(5) 0.6140(3) 0.8695(4)
H7 H 0.1237 0.6618 0.8534
C10 C 0.2749(5) 0.6020(3) 0.9243(4)
H8 H 0.3252 0.6429 0.9435
C11 C 0.7747(5) 0.4725(3) 1.1754(5)
H9 H 0.7422 0.4264 1.1496
C12 C 0.8971(5) 0.4784(3) 1.2306(4)
H10 H 0.9451 0.4369 1.2410
C13 C 0.9482(4) 0.5458(3) 1.2702(4)
C14 C 0.8719(5) 0.6050(3) 1.2527(5)
H11 H 0.9019 0.6516 1.2786
C15 C 0.7487(5) 0.5943(3) 1.1955(4)
H12 H 0.6985 0.6348 1.1839
C16 C 1.0805(5) 0.5556(3) 1.3324(4)
C17 C 1.1276(5) 0.6250(3) 1.3655(5)
H13 H 1.0779 0.6662 1.3479
C18 C 1.2501(5) 0.6328(3) 1.4254(4)
H14 H 1.2803 0.6799 1.4482
C19 C 1.2789(5) 0.5099(3) 1.4148(4)
H15 H 1.3308 0.4699 1.4293
C20 C 0.1910(5) 0.4569(3) 0.6028(4)
C21 C 0.1649(5) 0.5834(3) 0.6221(4)
C22 C 0.0378(5) 0.5769(3) 0.5650(4)
H16 H -0.0117 0.6180 0.5516
C23 C -0.0075(5) 0.5093(3) 0.5315(4)
H17 H -0.0898 0.5032 0.4953
C24 C 1.1969(5) 0.6709(3) 1.1274(4)
C25 C 1.1770(5) 0.5444(3) 1.1280(4)
C26 C 1.0500(5) 0.5503(3) 1.0797(4)
H18 H 1.0014 0.5086 1.0596
C27 C 1.0037(5) 0.6188(3) 1.0645(4)
H19 H 0.9212 0.6250 1.0354
C28 C 1.0020(4) 0.7923(3) 0.9761(4)
H20 H 1.0508 0.7706 0.9440
C29 C 0.8236(4) 0.7865(3) 0.9966(4)
H21 H 0.8225 0.8396 1.0103
C30 C 0.7042(5) 0.7546(3) 0.9758(5)
H22 H 0.6916 0.7575 1.0388
H23 H 0.6419 0.7829 0.9214
C31 C 0.0231(4) 0.3724(3) 0.5223(4)
H24 H 0.0731 0.3462 0.4951
C32 C -0.1716(5) 0.3372(3) 0.4895(4)
H25 H -0.1753 0.2842 0.4745
C33 C -0.2972(4) 0.3684(3) 0.4371(4)
H26 H -0.3346 0.3536 0.3641
H27 H -0.3447 0.3491 0.4710
C34 C 0.0259(4) 0.3315(3) 0.6177(4)
H28 H 0.0889 0.3493 0.6839
C35 C -0.1006(4) 0.3482(3) 0.6067(4)
H29 H -0.1058 0.3998 0.6252
C36 C 0.8705(4) 0.7756(3) 0.9134(4)
H30 H 0.8600 0.7240 0.8901
C37 C 1.0254(4) 0.7555(3) 1.0799(4)
H31 H 1.0814 0.7862 1.1371
C38 C 1.1596(5) 0.4975(3) 1.3575(4)
H32 H 1.1319 0.4499 1.3355
Co2 Co -0.48979(6) 0.58980(3) 0.56121(5)
H33 H -0.504(5) 0.693(3) 0.424(4)
H34 H -0.431(5) 0.639(3) 0.428(4)
N1 N 1.3257(4) 0.5767(3) 1.4516(3)
N2 N -0.3028(4) 0.5852(3) 0.6690(3)
N3 N 0.3241(4) 0.5351(3) 0.9513(3)
N4 N 0.7003(4) 0.5301(3) 1.1574(3)
N5 N 0.0669(3) 0.4488(2) 0.5503(3)
N6 N 0.2367(4) 0.5251(3) 0.6377(3)
N7 N 0.2165(4) 0.6482(3) 0.6623(4)
H35 H 0.2929 0.6510 0.6964
H36 H 0.1732 0.6870 0.6539
N8 N 1.0754(4) 0.6790(2) 1.0909(3)
N9 N 1.2471(4) 0.6039(2) 1.1479(4)
N10 N 1.2300(4) 0.4783(3) 1.1543(4)
H37 H 1.3067 0.4753 1.1830
H38 H 1.1874 0.4389 1.1425
O1 O 0.2546(3) 0.4011(2) 0.6178(3)
O2 O 1.2599(3) 0.7286(2) 1.1390(3)
O3 O 0.48631(17) 0.42878(18) 1.12292(14)
H39 H 0.4886 0.4345 1.1834
H40 H 0.5253 0.3899 1.1237
O4 O -0.52406(17) 0.68693(18) 0.62536(14)
H41 H -0.5267 0.6823 0.6841
H42 H -0.4872 0.7268 0.6265
O5 O 0.4772(3) 0.6834(2) 0.8153(3)
O6 O 0.5979(3) 0.5639(2) 0.8606(3)
O7 O 0.6977(3) 0.6788(2) 0.9436(3)
O8 O -0.4552(4) 0.6668(2) 0.4646(3)
O9 O -0.4512(3) 0.49867(19) 0.4910(2)
O10 O -0.5069(3) 0.4466(2) 0.3119(3)
O11 O -0.2918(3) 0.4466(2) 0.4446(3)
O12 O -0.3864(3) 0.5660(2) 0.3677(3)
O13 O 0.47871(18) 0.59010(12) 1.16406(16)
H43 H 0.4865 0.6354 1.1525
H44 H 0.5250 0.5776 1.2156
O14 O 0.54070(18) 0.62497(12) 0.99374(16)
O15 O 0.55077(18) 0.45443(12) 0.95295(16)
H45 H 0.5542 0.4954 0.9249
H46 H 0.6024 0.4256 0.9483
O16 O -0.1319(3) 0.3011(2) 0.6698(3)
H47 H -0.2044 0.3022 0.6503
O17 O 0.0331(3) 0.25425(19) 0.6024(3)
H48 H 0.0994 0.2443 0.6062
O18 O 0.9155(3) 0.7517(2) 1.0883(3)
O19 O -0.0973(3) 0.37240(19) 0.4457(3)
O20 O 1.0172(3) 0.86967(19) 0.9876(3)
H49 H 1.0866 0.8803 1.0010
O21 O 0.8128(3) 0.8229(2) 0.8268(3)
H50 H 0.8628 0.8434 0.8125
O22 O -0.5270(3) 0.52706(18) 0.6672(2)
H51 H -0.5987 0.5269 0.6601
H52 H -0.4824 0.5375 0.7261
Co2_2 Co 1.51021(6) 0.58980(3) 1.56121(5)
N1_2 N -0.6743(4) 0.5767(3) 0.4516(3)
H53 H 0.412(4) 0.806(2) 0.358(4)
H54 H 0.346(7) 0.772(5) 0.290(6)
O23 O 0.3624(4) 0.7719(2) 0.3503(4)
O24 O 0.4893(4) 0.3853(3) 0.5857(4)
H55 H 0.4705 0.4103 0.6273
H56 H 0.5130 0.4186 0.5565
O25 O 0.3810(3) 0.7971(2) 0.8729(3)
H57 H 0.3976 0.7902 0.9372
H58 H 0.4114 0.7610 0.8543
O26 O 0.3788(4) 0.3600(2) 0.8299(3)
H59 H 0.3441 0.3750 0.7670
H60 H 0.4319 0.3914 0.8653
O27 O 0.4657(4) 0.7419(2) 0.0832(3)
H61 H 0.5082 0.7794 0.1127
H62 H 0.4067 0.7380 0.0985
O28 O 0.4018(3) 0.3189(2) 0.3524(3)
H63 H 0.4236 0.3629 0.3483
H64 H 0.3626 0.3157 0.3889
O29 O 0.8560(3) 0.2851(2) 0.2694(3)
H65 H 0.7832 0.2885 0.2255
H66 H 0.8685 0.3119 0.3225
O30 O 0.2702(4) 0.3070(3) 0.4730(4)
H67 H 0.2247 0.3251 0.4981
H68 H 0.3362 0.3282 0.5101
O31 O 0.7791(4) 0.6911(2) 0.4212(4)
H69 H 0.7286 0.6562 0.4071
H70 H 0.7602 0.7251 0.4528
O32 O 0.9237(4) 0.8180(3) 0.7118(4)
H71 H 0.8683 0.8133 0.6503
H72 H 0.9898 0.8066 0.7109
O33 O 0.2589(11) 0.8869(6) 0.0827(9)
H73 H 0.2605 0.8419 0.0982
H74 H 0.2963 0.8345 0.0970
O34? O 0.2493(10) 0.8653(5) 0.0302(10)
loop_
_geom_bond_atom_site_label_1
_geom_bond_atom_site_label_2
_geom_bond_site_symmetry_1
_geom_bond_site_symmetry_2
Co1 N3 1_555 1_555
P1 O5 1_555 1_555
P2 O9 1_555 1_555
C1 H1 1_555 1_555
C2 C1 1_555 1_555
H2 C2 1_555 1_555
C3 C2 1_555 1_555
C4 C3 1_555 1_555
H3 C4 1_555 1_555
C5 C4 1_555 1_555
H4 C5 1_555 1_555
C6 H5 1_555 1_555
C7 C6 1_555 1_555
H6 C7 1_555 1_555
C8 C3 1_555 1_555
C9 C8 1_555 1_555
H7 C9 1_555 1_555
C10 C9 1_555 1_555
H8 C10 1_555 1_555
C11 H9 1_555 1_555
C12 C11 1_555 1_555
H10 C12 1_555 1_555
C13 C12 1_555 1_555
C14 C13 1_555 1_555
H11 C14 1_555 1_555
C15 C14 1_555 1_555
H12 C15 1_555 1_555
C16 C13 1_555 1_555
C17 C16 1_555 1_555
H13 C17 1_555 1_555
C18 C17 1_555 1_555
H14 C18 1_555 1_555
C19 H15 1_555 1_555
C20 N5 1_555 1_555
C21 C22 1_555 1_555
C22 H16 1_555 1_555
C23 C22 1_555 1_555
H17 C23 1_555 1_555
C24 N8 1_555 1_555
C25 C26 1_555 1_555
C26 H18 1_555 1_555
C27 C26 1_555 1_555
H19 C27 1_555 1_555
C28 H20 1_555 1_555
C29 H21 1_555 1_555
C30 C29 1_555 1_555
H22 C30 1_555 1_555
H23 C30 1_555 1_555
C31 H24 1_555 1_555
C32 H25 1_555 1_555
C33 C32 1_555 1_555
H26 C33 1_555 1_555
H27 C33 1_555 1_555
C34 C31 1_555 1_555
H28 C34 1_555 1_555
C35 C32 1_555 1_555
H29 C35 1_555 1_555
C36 C28 1_555 1_555
H30 C36 1_555 1_555
C37 C28 1_555 1_555
H31 C37 1_555 1_555
C38 C16 1_555 1_555
H32 C38 1_555 1_555
Co2 N2 1_555 1_555
H33 O8 1_555 1_555
H34 O8 1_555 1_555
N1 C18 1_555 1_555
N2 C1 1_555 1_555
N3 C6 1_555 1_555
N4 Co1 1_555 1_555
N5 C23 1_555 1_555
N6 C20 1_555 1_555
N7 C21 1_555 1_555
H35 N7 1_555 1_555
H36 N7 1_555 1_555
N8 C27 1_555 1_555
N9 C24 1_555 1_555
N10 C25 1_555 1_555
H37 N10 1_555 1_555
H38 N10 1_555 1_555
O1 C20 1_555 1_555
O2 C24 1_555 1_555
O3 Co1 1_555 1_555
H39 O3 1_555 1_555
H40 O3 1_555 1_555
O4 Co2 1_555 1_555
H41 O4 1_555 1_555
H42 O4 1_555 1_555
O6 P1 1_555 1_555
O7 P1 1_555 1_555
O8 Co2 1_555 1_555
O9 Co2 1_555 1_555
O10 P2 1_555 1_555
O11 P2 1_555 1_555
O12 P2 1_555 1_555
O13 Co1 1_555 1_555
H43 O13 1_555 1_555
H44 O13 1_555 1_555
O14 Co1 1_555 1_555
O15 Co1 1_555 1_555
H45 O15 1_555 1_555
H46 O15 1_555 1_555
O16 C35 1_555 1_555
H47 O16 1_555 1_555
O17 C34 1_555 1_555
H48 O17 1_555 1_555
O18 C29 1_555 1_555
O19 C31 1_555 1_555
O20 C28 1_555 1_555
H49 O20 1_555 1_555
O21 C36 1_555 1_555
H50 O21 1_555 1_555
O22 Co2 1_555 1_555
H51 O22 1_555 1_555
H52 O22 1_555 1_555
H53 O23 1_555 1_555
H54 O23 1_555 1_555
O24 H55 1_555 1_555
H56 O24 1_555 1_555
O25 H57 1_555 1_555
H58 O25 1_555 1_555
O26 H59 1_555 1_555
H60 O26 1_555 1_555
O27 H61 1_555 1_555
H62 O27 1_555 1_555
O28 H63 1_555 1_555
H64 O28 1_555 1_555
O29 H65 1_555 1_555
H66 O29 1_555 1_555
O30 H67 1_555 1_555
H68 O30 1_555 1_555
O31 H69 1_555 1_555
H70 O31 1_555 1_555
O32 H71 1_555 1_555
H72 O32 1_555 1_555
O33 H73 1_555 1_555
H74 O33 1_555 1_555
Co2_2 N1 1_555 1_555
N1_2 Co2 1_555 1_555
P1 O14 1_555 1_555
C5 N2 1_555 1_555
C7 C8 1_555 1_555
C10 N3 1_555 1_555
C11 N4 1_555 1_555
C15 N4 1_555 1_555
C19 C38 1_555 1_555
C19 N1 1_555 1_555
C21 N6 1_555 1_555
C25 N9 1_555 1_555
C29 C36 1_555 1_555
C30 O7 1_555 1_555
C31 N5 1_555 1_555
C32 O19 1_555 1_555
C33 O11 1_555 1_555
C34 C35 1_555 1_555
C37 N8 1_555 1_555
C37 O18 1_555 1_555

#END
