
#######################################################################
#
#                 Cambridge Crystallographic Data Centre
#                                CCDC 
#
#######################################################################
#
# If this CIF has been generated from an entry in the Cambridge 
# Structural Database, then it will include bibliographic, chemical, 
# crystal, experimental, refinement or atomic coordinate data resulting 
# from the CCDC's data processing and validation procedures.
#
#######################################################################

data_KIGQUN
_symmetry_cell_setting           orthorhombic
_symmetry_space_group_name_H-M   'P b c a'
_symmetry_Int_Tables_number      61
_space_group_name_Hall           '-P 2ac 2ab'
loop_
_symmetry_equiv_pos_site_id
_symmetry_equiv_pos_as_xyz
1 x,y,z
2 1/2-x,-y,1/2+z
3 -x,1/2+y,1/2-z
4 1/2+x,1/2-y,-z
5 -x,-y,-z
6 1/2+x,y,1/2-z
7 x,1/2-y,1/2+z
8 1/2-x,1/2+y,z
_cell_length_a                   9.953(2)
_cell_length_b                   16.715(3)
_cell_length_c                   19.719(4)
_cell_angle_alpha                90
_cell_angle_beta                 90
_cell_angle_gamma                90
_cell_volume                     3280.54
loop_
_atom_site_label
_atom_site_type_symbol
_atom_site_fract_x
_atom_site_fract_y
_atom_site_fract_z
C1 C 0.3117(10) 0.2518(6) 0.2391(4)
N1 N 0.2357(7) 0.2848(4) 0.1266(4)
C2 C 0.2249(10) 0.3004(6) 0.1940(5)
N2 N 0.3973(7) 0.2007(4) 0.2097(3)
In1 In 0.40232(6) 0.19812(3) 0.09527(3)
Cl1 Cl 0.5882(2) 0.10735(15) 0.08540(13)
O1 O 0.4618(6) 0.2862(3) 0.0191(3)
O2 O 0.7527(6) 0.4047(4) -0.1082(3)
C3 C 0.5991(8) 0.4474(5) -0.0236(4)
O3 O 0.5261(7) 0.3280(4) 0.1195(3)
O4 O 0.7603(6) 0.3414(4) -0.0102(3)
C4 C 0.5075(8) 0.3405(4) 0.0588(4)
C5 C 0.4146(8) 0.4768(5) 0.0525(4)
H1 H 0.3583 0.4615 0.0879
C6 C 0.5130(8) 0.4234(4) 0.0285(4)
C7 C 0.7096(8) 0.3952(5) -0.0482(4)
C8 C 0.0729(12) 0.3859(7) 0.1022(6)
H2 H 0.0229 0.4141 0.0703
C9 C 0.4758(11) 0.1526(6) 0.2475(5)
H3 H 0.5362 0.1187 0.2258
C10 C 0.1621(10) 0.3260(6) 0.0825(5)
H4 H 0.1706 0.3144 0.0366
C11 C 0.3783(14) 0.2032(9) 0.3494(6)
H5 H 0.3708 0.2038 0.3964
C12 C 0.1360(12) 0.3593(7) 0.2172(6)
H6 H 0.1272 0.3696 0.2634
C13 C 0.0615(13) 0.4018(8) 0.1699(7)
H7 H 0.0030 0.4417 0.1845
C14 C 0.2987(11) 0.2535(8) 0.3104(5)
H8 H 0.2375 0.2879 0.3310
C15 C 0.4695(13) 0.1520(9) 0.3181(6)
H9 H 0.5244 0.1184 0.3435
C1D C 0.6883(10) 0.7482(6) -0.2391(4)
N1D N 0.7643(7) 0.7152(4) -0.1266(4)
C2D C 0.7751(10) 0.6996(6) -0.1940(5)
N2D N 0.6027(7) 0.7993(4) -0.2097(3)
In1D In 0.59768(6) 0.80188(3) -0.09527(3)
In1C In 0.90232(6) 0.30188(3) -0.09527(3)
In1G In 0.09768(6) 0.69812(3) 0.09527(3)
Cl1D Cl 0.4118(2) 0.89265(15) -0.08540(13)
O1D O 0.5382(6) 0.7138(3) -0.0191(3)
O2D O 0.2473(6) 0.5953(4) 0.1082(3)
O2C O 0.2527(6) 0.0953(4) 0.1082(3)
O2G O 0.7473(6) 0.9047(4) -0.1082(3)
C3D C 0.4009(8) 0.5526(5) 0.0236(4)
O3D O 0.4739(7) 0.6720(4) -0.1195(3)
O4D O 0.2397(6) 0.6586(4) 0.0102(3)
O4C O 0.2603(6) 0.1586(4) 0.0102(3)
O4G O 0.7397(6) 0.8414(4) -0.0102(3)
C4D C 0.4925(8) 0.6595(4) -0.0588(4)
C5D C 0.5854(8) 0.5232(5) -0.0525(4)
H1D H 0.6417 0.5385 -0.0879
C6D C 0.4870(8) 0.5766(4) -0.0285(4)
C7D C 0.2904(8) 0.6048(5) 0.0482(4)
C8D C 0.9271(12) 0.6141(7) -0.1022(6)
H2D H 0.9771 0.5859 -0.0703
C9D C 0.5242(11) 0.8474(6) -0.2475(5)
H3D H 0.4638 0.8813 -0.2258
C10D C 0.8379(10) 0.6740(6) -0.0825(5)
H4D H 0.8294 0.6856 -0.0366
C11D C 0.6217(14) 0.7968(9) -0.3494(6)
H5D H 0.6292 0.7962 -0.3964
C12D C 0.8640(12) 0.6407(7) -0.2172(6)
H6D H 0.8728 0.6304 -0.2634
C13D C 0.9385(13) 0.5982(8) -0.1699(7)
H7D H 0.9970 0.5583 -0.1845
C14D C 0.7013(11) 0.7465(8) -0.3104(5)
H8D H 0.7625 0.7121 -0.3310
C15D C 0.5305(13) 0.8480(9) -0.3181(6)
H9D H 0.4756 0.8816 -0.3435
loop_
_geom_bond_atom_site_label_1
_geom_bond_atom_site_label_2
_geom_bond_site_symmetry_1
_geom_bond_site_symmetry_2
C1 C2 1_555 1_555
N1 C2 1_555 1_555
C2 C12 1_555 1_555
N2 C1 1_555 1_555
In1 N1 1_555 1_555
Cl1 In1 1_555 1_555
O1 In1 1_555 1_555
O2 C7 1_555 1_555
C3 C6 1_555 1_555
O3 In1 1_555 1_555
O4 C7 1_555 1_555
C4 O1 1_555 1_555
C5 H1 1_555 1_555
C6 C4 1_555 1_555
C7 C3 1_555 1_555
C8 H2 1_555 1_555
C9 N2 1_555 1_555
H3 C9 1_555 1_555
C10 N1 1_555 1_555
H4 C10 1_555 1_555
C11 H5 1_555 1_555
C12 H6 1_555 1_555
C13 C8 1_555 1_555
H7 C13 1_555 1_555
C14 C1 1_555 1_555
H8 C14 1_555 1_555
C15 C9 1_555 1_555
H9 C15 1_555 1_555
C1D C2D 1_555 1_555
N1D C2D 1_555 1_555
C2D C12D 1_555 1_555
N2D C1D 1_555 1_555
In1D N1D 1_555 1_555
In1C O2 1_555 1_555
In1G O2D 1_555 1_555
Cl1D In1D 1_555 1_555
O1D In1D 1_555 1_555
O2D C7D 1_555 1_555
O2C In1 1_555 1_555
O2G In1D 1_555 1_555
C3D C5 1_555 1_555
O3D In1D 1_555 1_555
O4D In1G 1_555 1_555
O4C In1 1_555 1_555
O4G In1D 1_555 1_555
C4D O1D 1_555 1_555
C5D C3 1_555 1_555
H1D C5D 1_555 1_555
C6D C3D 1_555 1_555
C7D C3D 1_555 1_555
C8D H2D 1_555 1_555
C9D N2D 1_555 1_555
H3D C9D 1_555 1_555
C10D N1D 1_555 1_555
H4D C10D 1_555 1_555
C11D H5D 1_555 1_555
C12D H6D 1_555 1_555
C13D C8D 1_555 1_555
H7D C13D 1_555 1_555
C14D C1D 1_555 1_555
H8D C14D 1_555 1_555
C15D C9D 1_555 1_555
H9D C15D 1_555 1_555
N2 In1 1_555 1_555
O3 C4 1_555 1_555
O4 In1C 1_555 1_555
C5 C6 1_555 1_555
C8 C10 1_555 1_555
C11 C14 1_555 1_555
C11 C15 1_555 1_555
C12 C13 1_555 1_555
N2D In1D 1_555 1_555
O3D C4D 1_555 1_555
O4D C7D 1_555 1_555
C4D C6D 1_555 1_555
C5D C6D 1_555 1_555
C8D C10D 1_555 1_555
C11D C14D 1_555 1_555
C11D C15D 1_555 1_555
C12D C13D 1_555 1_555

#END
