
#######################################################################
#
#                 Cambridge Crystallographic Data Centre
#                                CCDC 
#
#######################################################################
#
# If this CIF has been generated from an entry in the Cambridge 
# Structural Database, then it will include bibliographic, chemical, 
# crystal, experimental, refinement or atomic coordinate data resulting 
# from the CCDC's data processing and validation procedures.
#
#######################################################################

data_KIHNEU
_symmetry_cell_setting           monoclinic
_symmetry_space_group_name_H-M   'C 2/c'
_symmetry_Int_Tables_number      15
_space_group_name_Hall           '-C 2yn'
loop_
_symmetry_equiv_pos_site_id
_symmetry_equiv_pos_as_xyz
1 x,y,z
2 1/2+x,1/2+y,z
3 -x,y,1/2-z
4 1/2-x,1/2+y,1/2-z
5 -x,-y,-z
6 1/2-x,1/2-y,-z
7 x,-y,1/2+z
8 1/2+x,1/2-y,1/2+z
_cell_length_a                   17.464(2)
_cell_length_b                   7.323(1)
_cell_length_c                   18.981(2)
_cell_angle_alpha                90
_cell_angle_beta                 110.72(1)
_cell_angle_gamma                90
_cell_volume                     2270.45
loop_
_atom_site_label
_atom_site_type_symbol
_atom_site_fract_x
_atom_site_fract_y
_atom_site_fract_z
Cd1 Cd 0.48835(1) 0.73813(3) 0.46993(1)
S1 S 0.61627(5) 0.53719(12) 0.57285(5)
S2 S 0.55752(5) 1.09304(13) 0.43476(5)
N1 N 0.4232(2) 0.9072(4) 0.3603(2)
N2 N 0.5939(2) 0.6264(4) 0.4327(2)
C1 C 0.4652(2) 1.0620(4) 0.3599(2)
C2 C 0.4351(3) 1.1859(6) 0.3002(2)
C3 C 0.3649(3) 1.1464(7) 0.2422(3)
C4 C 0.3228(3) 0.9893(7) 0.2435(2)
C5 C 0.3535(2) 0.8739(6) 0.3030(2)
C6 C 0.6472(2) 0.5481(4) 0.4947(2)
C7 C 0.7236(2) 0.4890(6) 0.4963(2)
C8 C 0.7435(3) 0.5107(6) 0.4328(3)
C9 C 0.6882(3) 0.5868(6) 0.3690(3)
C10 C 0.6146(3) 0.6455(6) 0.3720(3)
H1 H 0.4687(29) 1.3044(68) 0.3023(27)
H2 H 0.3443(33) 1.2025(75) 0.1967(33)
H3 H 0.2789(35) 0.9715(79) 0.2054(32)
H4 H 0.3295(31) 0.7637(56) 0.3080(28)
H5 H 0.7607(29) 0.4237(69) 0.5404(30)
H6 H 0.7923(27) 0.4754(59) 0.4264(22)
H7 H 0.7007(43) 0.622(10) 0.3193(42)
H8 H 0.5719(34) 0.7169(66) 0.3261(31)
Cd1D Cd 0.51165(1) 0.26187(3) 0.53007(1)
S1D S 0.38373(5) 0.46281(12) 0.42715(5)
Cd1D_2 Cd 0.51165(1) 1.26187(3) 0.53007(1)
S2D S 0.44248(5) 0.90696(13) 0.56524(5)
C1D C 0.5348(2) 0.9380(4) 0.6401(2)
N1D N 0.5768(2) 1.0928(4) 0.6397(2)
C5D C 0.6465(2) 1.1261(6) 0.6970(2)
C4D C 0.6772(3) 1.0107(7) 0.7565(2)
C3D C 0.6351(3) 0.8536(7) 0.7578(3)
C2D C 0.5649(3) 0.8141(6) 0.6998(2)
H1D H 0.5313(29) 0.6956(68) 0.6977(27)
H2D H 0.6557(33) 0.7975(75) 0.8033(33)
H3D H 0.7211(35) 1.0285(79) 0.7946(32)
H4D H 0.6705(31) 1.2363(56) 0.6920(28)
C6D C 0.3528(2) 0.4519(4) 0.5053(2)
S2D_2 S 0.44248(5) -0.09304(13) 0.56524(5)
S2_2 S 0.55752(5) 0.09304(13) 0.43476(5)
N1D_2 N 0.5768(2) 0.0928(4) 0.6397(2)
N2D N 0.4061(2) 0.3736(4) 0.5673(2)
C10D C 0.3854(3) 0.3545(6) 0.6280(3)
C7D C 0.2764(2) 0.5110(6) 0.5037(2)
C9D C 0.3118(3) 0.4132(6) 0.6310(3)
H8D H 0.4281(34) 0.2831(66) 0.6739(31)
C8D C 0.2565(3) 0.4893(6) 0.5672(3)
H5D H 0.2393(29) 0.5763(69) 0.4596(30)
H7D H 0.2993(43) 0.378(10) 0.6807(42)
H6D H 0.2077(27) 0.5246(59) 0.5736(22)
loop_
_geom_bond_atom_site_label_1
_geom_bond_atom_site_label_2
_geom_bond_site_symmetry_1
_geom_bond_site_symmetry_2
Cd1 S1 1_555 1_555
S1 C6 1_555 1_555
S2 Cd1 1_555 1_555
N1 Cd1 1_555 1_555
N2 Cd1 1_555 1_555
C1 S2 1_555 1_555
C2 C1 1_555 1_555
C3 C2 1_555 1_555
C4 C3 1_555 1_555
C5 N1 1_555 1_555
C6 N2 1_555 1_555
C7 C6 1_555 1_555
C8 C7 1_555 1_555
C9 C8 1_555 1_555
C10 N2 1_555 1_555
H1 C2 1_555 1_555
H2 C3 1_555 1_555
H3 C4 1_555 1_555
H4 C5 1_555 1_555
H5 C7 1_555 1_555
H6 C8 1_555 1_555
H7 C9 1_555 1_555
H8 C10 1_555 1_555
Cd1D S1 1_555 1_555
S1D Cd1 1_555 1_555
Cd1D_2 S2 1_555 1_555
S2D Cd1 1_555 1_555
C1D S2D 1_555 1_555
N1D Cd1D_2 1_555 1_555
C5D N1D 1_555 1_555
C4D C5D 1_555 1_555
C3D C4D 1_555 1_555
C2D C1D 1_555 1_555
H1D C2D 1_555 1_555
H2D C3D 1_555 1_555
H3D C4D 1_555 1_555
H4D C5D 1_555 1_555
C6D S1D 1_555 1_555
S2D_2 Cd1D 1_555 1_555
S2_2 Cd1D 1_555 1_555
N1D_2 Cd1D 1_555 1_555
N2D Cd1D 1_555 1_555
C10D N2D 1_555 1_555
C7D C6D 1_555 1_555
C9D C10D 1_555 1_555
H8D C10D 1_555 1_555
C8D C7D 1_555 1_555
H5D C7D 1_555 1_555
H7D C9D 1_555 1_555
H6D C8D 1_555 1_555
N1 C1 1_555 1_555
C4 C5 1_555 1_555
C9 C10 1_555 1_555
Cd1D S1D 1_555 1_555
Cd1D_2 S2D 1_555 1_555
C1D N1D 1_555 1_555
C3D C2D 1_555 1_555
C6D N2D 1_555 1_555
C9D C8D 1_555 1_555

#END
