
#######################################################################
#
#                 Cambridge Crystallographic Data Centre
#                                CCDC 
#
#######################################################################
#
# If this CIF has been generated from an entry in the Cambridge 
# Structural Database, then it will include bibliographic, chemical, 
# crystal, experimental, refinement or atomic coordinate data resulting 
# from the CCDC's data processing and validation procedures.
#
#######################################################################

data_KIHQIB
_symmetry_cell_setting           triclinic
_symmetry_space_group_name_H-M   'P -1'
_symmetry_Int_Tables_number      2
_space_group_name_Hall           '-P 1'
loop_
_symmetry_equiv_pos_site_id
_symmetry_equiv_pos_as_xyz
1 x,y,z
2 -x,-y,-z
_cell_length_a                   10.0894(8)
_cell_length_b                   11.6222(14)
_cell_length_c                   13.4327(15)
_cell_angle_alpha                113.459(12)
_cell_angle_beta                 100.007(8)
_cell_angle_gamma                92.219(9)
_cell_volume                     1412.77
loop_
_atom_site_label
_atom_site_type_symbol
_atom_site_fract_x
_atom_site_fract_y
_atom_site_fract_z
Ni1 Ni -0.5000 0.0000 -0.5000
Mo1 Mo -0.57942(3) 0.80924(2) 0.19469(2)
O1 O -0.5181(3) 0.8611(2) 0.33789(18)
O2 O -0.5762(3) 0.9415(3) 0.1626(2)
O3 O -0.7459(2) 0.7346(3) 0.1591(2)
O4 O -0.4772(2) 0.6971(2) 0.12150(19)
N1 N -0.4876(3) -0.1341(3) -0.4317(2)
H1 H -0.4840 -0.0875 -0.3583
N2 N -0.2924(3) -0.0005(3) -0.4833(2)
H2 H -0.7234 0.0498 -0.4487
C1 C -0.3508(3) -0.1768(3) -0.4346(3)
H3 H -0.3524 -0.2379 -0.5105
C2 C -0.3085(4) -0.2419(4) -0.3571(4)
H4 H -0.3107 -0.1848 -0.2817
H5 H -0.3727 -0.3160 -0.3779
C3 C -0.1672(4) -0.2811(5) -0.3620(4)
H6 H -0.1681 -0.3469 -0.4348
H7 H -0.1408 -0.3157 -0.3076
C4 C -0.0654(4) -0.1725(5) -0.3399(4)
H8 H -0.0556 -0.1119 -0.2636
H9 H 0.0218 -0.2027 -0.3494
C5 C -0.1067(4) -0.1072(4) -0.4171(3)
H10 H -0.0409 -0.0346 -0.3975
H11 H -0.1072 -0.1650 -0.4928
C6 C -0.2475(3) -0.0640(3) -0.4091(3)
H12 H -0.7564 0.0036 -0.6674
C7 C -0.7815(3) -0.1258(3) -0.5514(3)
H13 H -0.7642 -0.1822 -0.6225
H14 H -0.8782 -0.1199 -0.5600
C8 C -0.7372(4) -0.1794(4) -0.4659(3)
H15 H -0.7329 -0.1123 -0.3932
H16 H -0.8082 -0.2443 -0.4766
C9 C -0.6027(4) -0.2361(3) -0.4636(3)
H17 H -0.5927 -0.2667 -0.4048
C10 C -0.6011(4) -0.3479(4) -0.5701(4)
H18 H -0.5150 -0.3799 -0.5649
H19 H -0.6720 -0.4127 -0.5828
H20 H -0.6152 -0.3224 -0.6305
Ni2 Ni -0.5000 0.5000 0.0000
N3 N -0.4617(3) 0.4636(3) 0.1414(2)
H21 H -0.4621 0.5408 0.1967
N4 N -0.7066(3) 0.4886(3) -0.0157(2)
H22 H -0.7254 0.5649 0.0311
C11 C -0.3177(3) 0.4406(3) 0.1621(3)
H23 H -0.3110 0.3530 0.1132
C12 C -0.2632(4) 0.4590(5) 0.2806(4)
H24 H -0.2752 0.5434 0.3306
H25 H -0.3149 0.3992 0.2972
C13 C -0.1137(5) 0.4409(6) 0.3007(5)
H26 H -0.1026 0.3535 0.2582
H27 H -0.0812 0.4604 0.3787
C14 C -0.0292(4) 0.5278(5) 0.2665(4)
H28 H 0.0644 0.5105 0.2745
H29 H -0.0315 0.6154 0.3150
C15 C -0.0838(4) 0.5068(4) 0.1491(4)
H30 H -0.0309 0.5638 0.1303
H31 H -0.0742 0.4210 0.1004
C16 C -0.7675(3) 0.4719(3) -0.1299(3)
H32 H -0.7609 0.3847 -0.1797
C17 C -0.7631(4) 0.3926(3) 0.0170(3)
H33 H -0.7450 0.3098 -0.0316
H34 H -0.8606 0.3925 0.0076
C18 C -0.7030(4) 0.4173(4) 0.1367(3)
H35 H -0.7638 0.3718 0.1608
H36 H -0.7016 0.5066 0.1818
C19 C -0.5617(4) 0.3819(3) 0.1613(3)
H37 H -0.5398 0.3997 0.2404
C20 C -0.5521(5) 0.2427(4) 0.0972(4)
H38 H -0.4611 0.2252 0.1156
H39 H -0.5760 0.2216 0.0191
H40 H -0.6133 0.1931 0.1162
O4A O -0.5228(2) 0.3029(2) -0.12150(19)
Mo1A Mo -0.42058(3) 0.19076(2) -0.19469(2)
O1A O -0.4819(3) 0.1389(2) -0.33789(18)
Ni1_2 Ni -0.5000 1.0000 0.5000
O1_2 O -0.5181(3) -0.1389(2) -0.66211(18)
N1A N -0.5124(3) 0.1341(3) -0.5683(2)
H1A H -0.5160 0.0875 -0.6417
C1A C -0.6492(3) 0.1768(3) -0.5654(3)
H3A H -0.6476 0.2379 -0.4895
C2A C -0.6915(4) 0.2419(4) -0.6429(4)
H4A H -0.6893 0.1848 -0.7183
H5A H -0.6273 0.3160 -0.6221
C3A C -0.8328(4) 0.2811(5) -0.6380(4)
H6A H -0.8319 0.3469 -0.5652
H7A H -0.8592 0.3157 -0.6924
C4A C -0.9346(4) 0.1725(5) -0.6601(4)
H8A H -0.9444 0.1119 -0.7364
H9A H -1.0218 0.2027 -0.6506
C5A C -0.8933(4) 0.1072(4) -0.5829(3)
H10A H -0.9591 0.0346 -0.6025
H11A H -0.8928 0.1650 -0.5072
C6A C -0.7525(3) 0.0640(3) -0.5909(3)
N2A N -0.7076(3) 0.0005(3) -0.5167(2)
C9A C -0.3973(4) 0.2361(3) -0.5364(3)
C8A C -0.2628(4) 0.1794(4) -0.5341(3)
C7A C -0.2185(3) 0.1258(3) -0.4486(3)
H2A H -0.2766 -0.0498 -0.5513
H13A H -0.2358 0.1822 -0.3775
H14A H -0.1218 0.1199 -0.4400
H15A H -0.2671 0.1123 -0.6068
H16A H -0.1918 0.2443 -0.5234
H17A H -0.4073 0.2667 -0.5952
C10A C -0.3989(4) 0.3479(4) -0.4299(4)
H18A H -0.4850 0.3799 -0.4351
H19A H -0.3280 0.4127 -0.4172
H20A H -0.3848 0.3224 -0.3695
H12A H -0.2436 -0.0036 -0.3326
O2A O -0.4238(3) 0.0585(3) -0.1626(2)
O3A O -0.2541(2) 0.2654(3) -0.1591(2)
C16A C -0.2325(3) 0.5281(3) 0.1299(3)
N4A N -0.2934(3) 0.5114(3) 0.0157(2)
N3A N -0.5383(3) 0.5364(3) -0.1414(2)
H21A H -0.5379 0.4592 -0.1967
C11A C -0.6823(3) 0.5594(3) -0.1621(3)
H23A H -0.6890 0.6470 -0.1132
C12A C -0.7368(4) 0.5410(5) -0.2806(4)
H24A H -0.7248 0.4566 -0.3306
H25A H -0.6851 0.6008 -0.2972
C13A C -0.8863(5) 0.5591(6) -0.3007(5)
H26A H -0.8974 0.6465 -0.2582
H27A H -0.9188 0.5396 -0.3787
C14A C -0.9708(4) 0.4722(5) -0.2665(4)
H28A H -1.0644 0.4895 -0.2745
H29A H -0.9685 0.3846 -0.3150
C15A C -0.9162(4) 0.4932(4) -0.1491(4)
H30A H -0.9691 0.4362 -0.1303
H31A H -0.9258 0.5790 -0.1004
C19A C -0.4383(4) 0.6181(3) -0.1613(3)
C18A C -0.2970(4) 0.5827(4) -0.1367(3)
C17A C -0.2369(4) 0.6074(3) -0.0170(3)
H22A H -0.2746 0.4351 -0.0311
H33A H -0.2550 0.6902 0.0316
H34A H -0.1394 0.6075 -0.0076
H35A H -0.2362 0.6282 -0.1608
H36A H -0.2984 0.4934 -0.1818
H37A H -0.4602 0.6003 -0.2404
C20A C -0.4479(5) 0.7573(4) -0.0972(4)
H38A H -0.5389 0.7748 -0.1156
H39A H -0.4240 0.7784 -0.0191
H40A H -0.3867 0.8069 -0.1162
H32A H -0.2391 0.6153 0.1797
O5 O -0.2118(3) 0.8774(3) 0.2720(3)
O6 O -0.9924(3) 0.8313(3) 0.1727(3)
O7 O -0.3177(4) 1.0517(4) 0.1749(3)
O8 O -0.7894(3) 0.9516(4) 0.0004(3)
O9 O -1.0520(4) 0.8381(4) -0.0369(4)
loop_
_geom_bond_atom_site_label_1
_geom_bond_atom_site_label_2
_geom_bond_site_symmetry_1
_geom_bond_site_symmetry_2
Ni1 N1 1_555 1_555
Mo1 O1 1_555 1_555
O1 Ni1_2 1_555 1_555
O2 Mo1 1_555 1_555
O3 Mo1 1_555 1_555
O4 Mo1 1_555 1_555
N1 H1 1_555 1_555
N2 Ni1 1_555 1_555
H2 N2A 1_555 1_555
C1 N1 1_555 1_555
H3 C1 1_555 1_555
C2 C1 1_555 1_555
H4 C2 1_555 1_555
H5 C2 1_555 1_555
C3 C2 1_555 1_555
H6 C3 1_555 1_555
H7 C3 1_555 1_555
C4 C3 1_555 1_555
H8 C4 1_555 1_555
H9 C4 1_555 1_555
C5 C4 1_555 1_555
H10 C5 1_555 1_555
H11 C5 1_555 1_555
C6 N2 1_555 1_555
H12 C6A 1_555 1_555
C7 H13 1_555 1_555
H14 C7 1_555 1_555
C8 C7 1_555 1_555
H15 C8 1_555 1_555
H16 C8 1_555 1_555
C9 N1 1_555 1_555
H17 C9 1_555 1_555
C10 C9 1_555 1_555
H18 C10 1_555 1_555
H19 C10 1_555 1_555
H20 C10 1_555 1_555
Ni2 O4 1_555 1_555
N3 Ni2 1_555 1_555
H21 N3 1_555 1_555
N4 Ni2 1_555 1_555
H22 N4 1_555 1_555
C11 N3 1_555 1_555
H23 C11 1_555 1_555
C12 C11 1_555 1_555
H24 C12 1_555 1_555
H25 C12 1_555 1_555
C13 C12 1_555 1_555
H26 C13 1_555 1_555
H27 C13 1_555 1_555
C14 C13 1_555 1_555
H28 C14 1_555 1_555
H29 C14 1_555 1_555
C15 C14 1_555 1_555
H30 C15 1_555 1_555
H31 C15 1_555 1_555
C16 N4 1_555 1_555
H32 C16 1_555 1_555
C17 N4 1_555 1_555
H33 C17 1_555 1_555
H34 C17 1_555 1_555
C18 C17 1_555 1_555
H35 C18 1_555 1_555
H36 C18 1_555 1_555
C19 N3 1_555 1_555
H37 C19 1_555 1_555
C20 C19 1_555 1_555
H38 C20 1_555 1_555
H39 C20 1_555 1_555
H40 C20 1_555 1_555
O4A Ni2 1_555 1_555
Mo1A O4A 1_555 1_555
O1A Ni1 1_555 1_555
O1_2 Ni1 1_555 1_555
N1A Ni1 1_555 1_555
H1A N1A 1_555 1_555
C1A N1A 1_555 1_555
H3A C1A 1_555 1_555
C2A C1A 1_555 1_555
H4A C2A 1_555 1_555
H5A C2A 1_555 1_555
C3A C2A 1_555 1_555
H6A C3A 1_555 1_555
H7A C3A 1_555 1_555
C4A C3A 1_555 1_555
H8A C4A 1_555 1_555
H9A C4A 1_555 1_555
C5A C4A 1_555 1_555
H10A C5A 1_555 1_555
H11A C5A 1_555 1_555
C6A C1A 1_555 1_555
N2A Ni1 1_555 1_555
C9A N1A 1_555 1_555
C8A C9A 1_555 1_555
C7A N2 1_555 1_555
H2A N2 1_555 1_555
H13A C7A 1_555 1_555
H14A C7A 1_555 1_555
H15A C8A 1_555 1_555
H16A C8A 1_555 1_555
H17A C9A 1_555 1_555
C10A C9A 1_555 1_555
H18A C10A 1_555 1_555
H19A C10A 1_555 1_555
H20A C10A 1_555 1_555
H12A C6 1_555 1_555
O2A Mo1A 1_555 1_555
O3A Mo1A 1_555 1_555
C16A C11 1_555 1_555
N4A Ni2 1_555 1_555
N3A Ni2 1_555 1_555
H21A N3A 1_555 1_555
C11A C16 1_555 1_555
H23A C11A 1_555 1_555
C12A C11A 1_555 1_555
H24A C12A 1_555 1_555
H25A C12A 1_555 1_555
C13A C12A 1_555 1_555
H26A C13A 1_555 1_555
H27A C13A 1_555 1_555
C14A C13A 1_555 1_555
H28A C14A 1_555 1_555
H29A C14A 1_555 1_555
C15A C16 1_555 1_555
H30A C15A 1_555 1_555
H31A C15A 1_555 1_555
C19A N3A 1_555 1_555
C18A C19A 1_555 1_555
C17A N4A 1_555 1_555
H22A N4A 1_555 1_555
H33A C17A 1_555 1_555
H34A C17A 1_555 1_555
H35A C18A 1_555 1_555
H36A C18A 1_555 1_555
H37A C19A 1_555 1_555
C20A C19A 1_555 1_555
H38A C20A 1_555 1_555
H39A C20A 1_555 1_555
H40A C20A 1_555 1_555
H32A C16A 1_555 1_555
C1 C6 1_555 1_555
C5 C6 1_555 1_555
C7 N2A 1_555 1_555
C8 C9 1_555 1_555
C15 C16A 1_555 1_555
C18 C19 1_555 1_555
Mo1A O1A 1_555 1_555
C5A C6A 1_555 1_555
C6A N2A 1_555 1_555
C8A C7A 1_555 1_555
C16A N4A 1_555 1_555
N3A C11A 1_555 1_555
C14A C15A 1_555 1_555
C18A C17A 1_555 1_555

#END
