
#######################################################################
#
#                 Cambridge Crystallographic Data Centre
#                                CCDC 
#
#######################################################################
#
# If this CIF has been generated from an entry in the Cambridge 
# Structural Database, then it will include bibliographic, chemical, 
# crystal, experimental, refinement or atomic coordinate data resulting 
# from the CCDC's data processing and validation procedures.
#
#######################################################################

data_KIHTIF
_symmetry_cell_setting           triclinic
_symmetry_space_group_name_H-M   'P -1'
_symmetry_Int_Tables_number      2
_space_group_name_Hall           '-P 1'
loop_
_symmetry_equiv_pos_site_id
_symmetry_equiv_pos_as_xyz
1 x,y,z
2 -x,-y,-z
_cell_length_a                   6.0473(3)
_cell_length_b                   10.6506(5)
_cell_length_c                   13.4922(6)
_cell_angle_alpha                111.948(3)
_cell_angle_beta                 96.815(3)
_cell_angle_gamma                97.776(3)
_cell_volume                     784.946
loop_
_atom_site_label
_atom_site_type_symbol
_atom_site_fract_x
_atom_site_fract_y
_atom_site_fract_z
C1 C 0.3667(7) 0.3199(5) 0.5175(3)
C2 C 0.3179(8) 0.1659(5) 0.4840(4)
H1 H 0.1600 0.1309 0.4488
H2 H 0.4096 0.1257 0.4304
C3 C 0.1984(8) 0.1238(5) 0.6334(4)
C4 C 0.0183(8) 0.1917(5) 0.6357(4)
H3 H -0.0045 0.2363 0.5889
C5 C -0.1275(8) 0.1935(5) 0.7074(4)
H4 H -0.2489 0.2387 0.7082
C6 C -0.0940(8) 0.1283(5) 0.7784(4)
C7 C 0.0815(8) 0.0571(5) 0.7744(4)
H5 H 0.1021 0.0107 0.8201
C8 C 0.2271(8) 0.0551(5) 0.7018(4)
H6 H 0.3453 0.0071 0.6991
C9 C -0.2409(9) 0.0585(5) 0.9113(4)
H7 H -0.3419 0.0849 0.9630
H8 H -0.0886 0.0774 0.9523
C10 C -0.3104(7) -0.0962(5) 0.8432(4)
C11 C 1.0756(7) 0.5952(4) 0.7894(3)
C12 C 0.9707(6) 0.5601(5) 0.8725(3)
H9 H 1.0137 0.4768 0.8752
H10 H 1.0238 0.6344 0.9436
C13 C 0.6138(6) 0.5196(4) 0.9237(3)
C14 C 0.6277(7) 0.6283(5) 1.0214(3)
H11 H 0.7137 0.7143 1.0353
C15 C 0.4881(7) 0.3914(4) 0.9005(3)
H12 H 0.4804 0.3190 0.8340
O1 O 0.4639(5) 0.3979(3) 0.6126(2)
O2 O 0.3060(5) 0.3623(3) 0.4443(2)
O3 O -0.2492(6) -0.1786(4) 0.8806(3)
O4 O -0.4296(6) -0.1384(3) 0.7505(3)
O5 O 0.3588(5) 0.1194(3) 0.5687(3)
O6 O -0.2452(6) 0.1415(3) 0.8500(3)
O7 O 0.9475(5) 0.6067(4) 0.7140(3)
O8 O 1.2871(5) 0.6111(3) 0.7988(2)
O9 O 0.7277(4) 0.5393(3) 0.8437(2)
O10 O 0.2542(5) 0.6265(3) 0.5865(2)
Tm1 Tm 0.57582(3) 0.63049(2) 0.709263(14)
H13 H 0.1369 0.6329 0.6095
H14 H 0.2318 0.5515 0.5370
C1A C 0.6333(7) 0.6801(5) 0.4825(3)
C2A C 0.6821(8) 0.8341(5) 0.5160(4)
H1A H 0.8400 0.8691 0.5512
H2A H 0.5904 0.8743 0.5696
C3A C 0.8016(8) 0.8762(5) 0.3666(4)
C4A C 0.9817(8) 0.8083(5) 0.3643(4)
H3A H 1.0045 0.7637 0.4111
C5A C 1.1275(8) 0.8065(5) 0.2926(4)
H4A H 1.2489 0.7613 0.2918
C6A C 1.0940(8) 0.8717(5) 0.2216(4)
C7A C 0.9185(8) 0.9429(5) 0.2256(4)
H5A H 0.8979 0.9893 0.1799
C8A C 0.7729(8) 0.9449(5) 0.2982(4)
H6A H 0.6547 0.9929 0.3009
C9A C 1.2409(9) 0.9415(5) 0.0887(4)
H7A H 1.3419 0.9151 0.0370
H8A H 1.0886 0.9226 0.0477
C10A C 1.3104(7) 1.0962(5) 0.1568(4)
C11A C -0.0756(7) 0.4048(4) 1.2106(3)
C12A C 0.0293(6) 0.4399(5) 1.1275(3)
H9A H -0.0137 0.5232 1.1248
H10A H -0.0238 0.3656 1.0564
C13A C 0.3862(6) 0.4804(4) 1.0763(3)
C14A C 0.3723(7) 0.3717(5) 0.9786(3)
H11A H 0.2863 0.2857 0.9647
C15A C 0.5119(7) 0.6086(4) 1.0995(3)
H12A H 0.5196 0.6810 1.1660
O1A O 0.5361(5) 0.6021(3) 0.3874(2)
O2A O 0.6940(5) 0.6377(3) 0.5557(2)
O3A O 1.2492(6) 1.1786(4) 0.1194(3)
O3_2 O 0.7508(6) 0.8214(4) 0.8806(3)
O3A_2 O 0.2492(6) 0.1786(4) 0.1194(3)
O4A O 1.4296(6) 1.1384(3) 0.2495(3)
O4_2 O 0.5704(6) 0.8616(3) 0.7505(3)
O4A_2 O 0.4296(6) 0.1384(3) 0.2495(3)
O5A O 0.6412(5) 0.8806(3) 0.4313(3)
O6A O 1.2452(6) 0.8585(3) 0.1500(3)
O7A O 0.0525(5) 0.3933(4) 1.2860(3)
O7A_2 O 0.0525(5) 0.3933(4) 0.2860(3)
O8A O -0.2871(5) 0.3889(3) 1.2012(2)
O8_2 O 0.2871(5) 0.6111(3) 0.7988(2)
O8A_2 O 0.7129(5) 0.3889(3) 0.2012(2)
O9A O 0.2723(4) 0.4607(3) 1.1563(2)
O9A_2 O 0.2723(4) 0.4607(3) 0.1563(2)
O10A O 0.7458(5) 0.3735(3) 0.4135(2)
Tm1A Tm 0.42418(3) 0.36951(2) 0.290737(14)
Tm1_2 Tm -0.42418(3) -0.36951(2) 0.709263(14)
Tm1_3 Tm 1.57582(3) 0.63049(2) 0.709263(14)
Tm1A_2 Tm 0.42418(3) 0.36951(2) 1.290737(14)
Tm1A_3 Tm -0.57582(3) 0.36951(2) 1.290737(14)
Tm1A_4 Tm 1.42418(3) 1.36951(2) 0.290737(14)
H13A H 0.8631 0.3671 0.3905
H14A H 0.7682 0.4485 0.4630
loop_
_geom_bond_atom_site_label_1
_geom_bond_atom_site_label_2
_geom_bond_site_symmetry_1
_geom_bond_site_symmetry_2
C1 C2 1_555 1_555
C2 H1 1_555 1_555
H2 C2 1_555 1_555
C3 C4 1_555 1_555
C4 H3 1_555 1_555
C5 C4 1_555 1_555
H4 C5 1_555 1_555
C6 C5 1_555 1_555
C7 C6 1_555 1_555
H5 C7 1_555 1_555
C8 C3 1_555 1_555
H6 C8 1_555 1_555
C9 H7 1_555 1_555
H8 C9 1_555 1_555
C10 C9 1_555 1_555
C11 C12 1_555 1_555
C12 H9 1_555 1_555
H10 C12 1_555 1_555
C13 C14 1_555 1_555
C14 H11 1_555 1_555
C15 C13 1_555 1_555
H12 C15 1_555 1_555
O1 C1 1_555 1_555
O2 C1 1_555 1_555
O3 C10 1_555 1_555
O4 C10 1_555 1_555
O5 C2 1_555 1_555
O6 C6 1_555 1_555
O7 C11 1_555 1_555
O8 C11 1_555 1_555
O9 C12 1_555 1_555
O10 Tm1 1_555 1_555
Tm1 O1 1_555 1_555
H13 O10 1_555 1_555
H14 O10 1_555 1_555
C1A C2A 1_555 1_555
C2A H1A 1_555 1_555
H2A C2A 1_555 1_555
C3A C4A 1_555 1_555
C4A H3A 1_555 1_555
C5A C4A 1_555 1_555
H4A C5A 1_555 1_555
C6A C5A 1_555 1_555
C7A C6A 1_555 1_555
H5A C7A 1_555 1_555
C8A C3A 1_555 1_555
H6A C8A 1_555 1_555
C9A H7A 1_555 1_555
H8A C9A 1_555 1_555
C10A C9A 1_555 1_555
C11A C12A 1_555 1_555
C12A H9A 1_555 1_555
H10A C12A 1_555 1_555
C13A C14A 1_555 1_555
C14A C15 1_555 1_555
H11A C14A 1_555 1_555
C15A C14 1_555 1_555
H12A C15A 1_555 1_555
O1A C1A 1_555 1_555
O2A Tm1 1_555 1_555
O3A C10A 1_555 1_555
O3_2 Tm1 1_555 1_555
O3A_2 Tm1A 1_555 1_555
O4A C10A 1_555 1_555
O4_2 Tm1 1_555 1_555
O4A_2 Tm1A 1_555 1_555
O5A C2A 1_555 1_555
O6A C6A 1_555 1_555
O7A C11A 1_555 1_555
O7A_2 Tm1A 1_555 1_555
O8A C11A 1_555 1_555
O8_2 Tm1 1_555 1_555
O8A_2 Tm1A 1_555 1_555
O9A C12A 1_555 1_555
O9A_2 Tm1A 1_555 1_555
O10A Tm1A 1_555 1_555
Tm1A O2 1_555 1_555
Tm1_2 O3 1_555 1_555
Tm1_3 O8 1_555 1_555
Tm1A_2 O7A 1_555 1_555
Tm1A_3 O8A 1_555 1_555
Tm1A_4 O3A 1_555 1_555
H13A O10A 1_555 1_555
H14A O10A 1_555 1_555
C3 O5 1_555 1_555
C7 C8 1_555 1_555
C9 O6 1_555 1_555
C13 O9 1_555 1_555
O4 Tm1_2 1_555 1_555
O7 Tm1 1_555 1_555
O9 Tm1 1_555 1_555
C1A O2A 1_555 1_555
C3A O5A 1_555 1_555
C7A C8A 1_555 1_555
C9A O6A 1_555 1_555
C13A C15A 1_555 1_555
C13A O9A 1_555 1_555
O1A Tm1A 1_555 1_555
O4A Tm1A_4 1_555 1_555
O9A Tm1A_2 1_555 1_555

#END
