
#######################################################################
#
#                 Cambridge Crystallographic Data Centre
#                                CCDC 
#
#######################################################################
#
# If this CIF has been generated from an entry in the Cambridge 
# Structural Database, then it will include bibliographic, chemical, 
# crystal, experimental, refinement or atomic coordinate data resulting 
# from the CCDC's data processing and validation procedures.
#
#######################################################################

data_KIHYEH
_symmetry_cell_setting           monoclinic
_symmetry_space_group_name_H-M   'P 21/c'
_symmetry_Int_Tables_number      14
_space_group_name_Hall           '-P 2ybc'
loop_
_symmetry_equiv_pos_site_id
_symmetry_equiv_pos_as_xyz
1 x,y,z
2 -x,1/2+y,1/2-z
3 -x,-y,-z
4 x,1/2-y,1/2+z
_cell_length_a                   11.2950(10)
_cell_length_b                   13.1770(12)
_cell_length_c                   18.9798(13)
_cell_angle_alpha                90
_cell_angle_beta                 122.218(4)
_cell_angle_gamma                90
_cell_volume                     2389.89
loop_
_atom_site_label
_atom_site_type_symbol
_atom_site_fract_x
_atom_site_fract_y
_atom_site_fract_z
O1 O 0.3803(3) 0.9670(2) 0.72340(18)
H1 H 0.4675 0.9873 0.7553
H2 H 0.360(5) 0.914(4) 0.696(3)
Ni1 Ni 1.0000 1.0000 1.0000
Ni2 Ni 1.0000 1.5000 1.0000
O2 O 0.67967(19) 1.01801(14) 0.83406(12)
O3 O 0.9277(2) 0.92420(16) 0.88520(12)
O4 O 0.85318(16) 1.11152(13) 0.93550(11)
O5 O 0.8233(2) 1.58355(16) 0.91018(12)
O6 O 1.00692(19) 1.28008(14) 1.09674(12)
O7 O 0.86610(17) 1.38922(13) 0.99637(11)
N1 N 0.0294(2) 0.80156(18) 0.68362(13)
N2 N 0.0007(2) 0.92332(16) 0.59609(13)
N3 N 0.7355(2) 0.79215(17) 1.02052(13)
N4 N 0.8621(2) 0.92007(16) 1.02054(13)
C1 C 0.6244(2) 1.18151(18) 0.86211(15)
C2 C 0.6418(2) 1.24796(18) 0.92500(15)
C3 C 0.5388(3) 1.3219(2) 0.90352(18)
H3 H 0.5478 1.3659 0.9444
C4 C 0.4246(3) 1.3313(2) 0.82338(19)
H4 H 0.3581 1.3813 0.8108
C5 C 0.4087(3) 1.2665(2) 0.76171(19)
H5 H 0.3317 1.2727 0.7076
C6 C 0.5082(3) 1.1925(2) 0.78099(17)
H6 H 0.4978 1.1493 0.7393
C7 C 0.7260(3) 1.09653(19) 0.87779(15)
C8 C 0.7618(3) 1.24306(19) 1.01443(15)
H7 H 0.7922 1.1730 1.0277
H8 H 0.7277 1.2634 1.0496
C9 C 0.8887(3) 1.30824(19) 1.03663(15)
C10 C 0.2325(3) 0.7057(2) 0.79442(15)
C11 C 0.2993(3) 0.6141(2) 0.82925(17)
H9 H 0.2503 0.5536 0.8086
C12 C 0.4376(3) 0.6120(2) 0.89418(17)
H10 H 0.4802 0.5502 0.9175
C13 C 0.5138(2) 0.7015(2) 0.92512(16)
C14 C 0.4492(3) 0.7921(2) 0.88825(17)
H11 H 0.4997 0.8524 0.9068
C15 C 0.3095(3) 0.7944(2) 0.82375(16)
H12 H 0.2672 0.8562 0.8000
C16 C 0.0780(3) 0.7053(2) 0.72829(18)
H13 H 0.0591 0.6515 0.6887
H14 H 0.0256 0.6906 0.7543
C17 C 0.0460(3) 0.8300(2) 0.62094(16)
H15 H 0.0844 0.7889 0.5983
C18 C -0.0446(3) 0.9565(2) 0.64618(18)
H16 H -0.0821 1.0203 0.6433
C19 C -0.0268(3) 0.8825(2) 0.70057(18)
H17 H -0.0486 0.8861 0.7413
C20 C 0.6637(3) 0.6946(2) 0.99793(18)
H18 H 0.6647 0.6673 1.0457
H19 H 0.7145 0.6478 0.9840
C21 C 0.8158(2) 0.8276(2) 0.99339(16)
H20 H 0.8364 0.7910 0.9593
C22 C 0.8065(3) 0.9457(2) 1.06772(17)
H21 H 0.8206 1.0073 1.0951
C23 C 0.7287(3) 0.8681(2) 1.06826(18)
H22 H 0.6804 0.8663 1.0954
H23 H 0.864(4) 1.626(3) 0.890(2)
H24 H 0.755(5) 1.555(4) 0.864(3)
H25 H 0.944(3) 0.856(3) 0.8908(19)
H26 H 0.845(3) 0.937(2) 0.861(2)
O2B O 1.32033(19) 0.98199(14) 1.16594(12)
O3B O 1.0723(2) 1.07580(16) 1.11480(12)
O4B O 1.14682(16) 0.88848(13) 1.06450(11)
O6B O 0.99308(19) 0.71992(14) 0.90326(12)
O7B O 1.13390(17) 0.61078(13) 1.00363(11)
N1B N 1.9706(2) 1.19844(18) 1.31638(13)
N2B N 1.9993(2) 1.07668(16) 1.40391(13)
N3B N 1.2645(2) 1.20785(17) 0.97948(13)
N4B N 1.1379(2) 1.07993(16) 0.97946(13)
C1B C 1.3756(2) 0.81849(18) 1.13789(15)
C2B C 1.3582(2) 0.75204(18) 1.07500(15)
C3B C 1.4612(3) 0.6781(2) 1.09648(18)
H3B H 1.4522 0.6341 1.0556
C4B C 1.5754(3) 0.6687(2) 1.17662(19)
H4B H 1.6419 0.6187 1.1892
C5B C 1.5913(3) 0.7335(2) 1.23829(19)
H5B H 1.6683 0.7273 1.2924
C6B C 1.4918(3) 0.8075(2) 1.21901(17)
H6B H 1.5022 0.8507 1.2607
C7B C 1.2740(3) 0.90347(19) 1.12221(15)
C8B C 1.2382(3) 0.75694(19) 0.98557(15)
H7B H 1.2078 0.8270 0.9723
H8B H 1.2723 0.7366 0.9504
C9B C 1.1113(3) 0.69176(19) 0.96337(15)
C10B C 1.7675(3) 1.2943(2) 1.20558(15)
C11B C 1.7007(3) 1.3859(2) 1.17075(17)
H9B H 1.7497 1.4464 1.1914
C12B C 1.5624(3) 1.3880(2) 1.10582(17)
H10B H 1.5198 1.4498 1.0825
C13B C 1.4862(2) 1.2985(2) 1.07488(16)
C14B C 1.5508(3) 1.2079(2) 1.11175(17)
H11B H 1.5003 1.1476 1.0932
C15B C 1.6905(3) 1.2056(2) 1.17625(16)
H12B H 1.7328 1.1438 1.2000
C16B C 1.9220(3) 1.2947(2) 1.27171(18)
H13B H 1.9409 1.3485 1.3113
H14B H 1.9744 1.3094 1.2457
C17B C 1.9540(3) 1.1700(2) 1.37906(16)
H15B H 1.9156 1.2111 1.4017
C18B C 2.0446(3) 1.0435(2) 1.35382(18)
H16B H 2.0821 0.9797 1.3567
C19B C 2.0268(3) 1.1175(2) 1.29943(18)
H17B H 2.0486 1.1139 1.2587
C20B C 1.3363(3) 1.3054(2) 1.00207(18)
H18B H 1.3353 1.3327 0.9543
H19B H 1.2855 1.3522 1.0160
C21B C 1.1842(2) 1.1724(2) 1.00661(16)
H20B H 1.1636 1.2090 1.0407
C22B C 1.1935(3) 1.0543(2) 0.93228(17)
H21B H 1.1794 0.9927 0.9049
C23B C 1.2713(3) 1.1319(2) 0.93174(18)
H22B H 1.3196 1.1337 0.9046
H25B H 1.056(3) 1.144(3) 1.1092(19)
H26B H 1.155(3) 1.063(2) 1.139(2)
O5B O 1.1767(2) 1.41645(16) 1.08982(12)
H23B H 1.136(4) 1.374(3) 1.110(2)
H24B H 1.245(5) 1.445(4) 1.136(3)
Ni2_2 Ni 1.0000 0.5000 1.0000
Ni2A Ni 0.0000 1.0000 0.5000
Ni2A_2 Ni 2.0000 1.0000 1.5000
O7B_2 O 1.13390(17) 1.61078(13) 1.00363(11)
N2A N 0.9993(2) 1.42332(16) 0.90391(13)
N2C N 1.0007(2) 1.57668(16) 1.09609(13)
loop_
_geom_bond_atom_site_label_1
_geom_bond_atom_site_label_2
_geom_bond_site_symmetry_1
_geom_bond_site_symmetry_2
O1 H1 1_555 1_555
H2 O1 1_555 1_555
Ni1 O3 1_555 1_555
Ni2 O5 1_555 1_555
O2 C7 1_555 1_555
O3 H25 1_555 1_555
O4 Ni1 1_555 1_555
O5 H23 1_555 1_555
O6 C9 1_555 1_555
O7 Ni2 1_555 1_555
N1 C16 1_555 1_555
N2 C17 1_555 1_555
N3 C20 1_555 1_555
N4 Ni1 1_555 1_555
C1 C2 1_555 1_555
C2 C3 1_555 1_555
C3 H3 1_555 1_555
C4 C3 1_555 1_555
H4 C4 1_555 1_555
C5 C4 1_555 1_555
H5 C5 1_555 1_555
C6 C1 1_555 1_555
H6 C6 1_555 1_555
C7 O4 1_555 1_555
C8 C2 1_555 1_555
H7 C8 1_555 1_555
H8 C8 1_555 1_555
C9 O7 1_555 1_555
C10 C11 1_555 1_555
C11 H9 1_555 1_555
C12 C11 1_555 1_555
H10 C12 1_555 1_555
C13 C12 1_555 1_555
C14 C13 1_555 1_555
H11 C14 1_555 1_555
C15 C10 1_555 1_555
H12 C15 1_555 1_555
C16 C10 1_555 1_555
H13 C16 1_555 1_555
H14 C16 1_555 1_555
C17 N1 1_555 1_555
H15 C17 1_555 1_555
C18 N2 1_555 1_555
H16 C18 1_555 1_555
C19 N1 1_555 1_555
H17 C19 1_555 1_555
C20 C13 1_555 1_555
H18 C20 1_555 1_555
H19 C20 1_555 1_555
C21 N3 1_555 1_555
H20 C21 1_555 1_555
C22 N4 1_555 1_555
H21 C22 1_555 1_555
C23 N3 1_555 1_555
H22 C23 1_555 1_555
H24 O5 1_555 1_555
H26 O3 1_555 1_555
O2B C7B 1_555 1_555
O3B Ni1 1_555 1_555
O4B Ni1 1_555 1_555
O6B C9B 1_555 1_555
O7B C9B 1_555 1_555
N1B C16B 1_555 1_555
N2B C17B 1_555 1_555
N3B C20B 1_555 1_555
N4B Ni1 1_555 1_555
C1B C2B 1_555 1_555
C2B C3B 1_555 1_555
C3B H3B 1_555 1_555
C4B C3B 1_555 1_555
H4B C4B 1_555 1_555
C5B C4B 1_555 1_555
H5B C5B 1_555 1_555
C6B C1B 1_555 1_555
H6B C6B 1_555 1_555
C7B O4B 1_555 1_555
C8B C2B 1_555 1_555
H7B C8B 1_555 1_555
H8B C8B 1_555 1_555
C9B C8B 1_555 1_555
C10B C11B 1_555 1_555
C11B H9B 1_555 1_555
C12B C11B 1_555 1_555
H10B C12B 1_555 1_555
C13B C12B 1_555 1_555
C14B C13B 1_555 1_555
H11B C14B 1_555 1_555
C15B C10B 1_555 1_555
H12B C15B 1_555 1_555
C16B C10B 1_555 1_555
H13B C16B 1_555 1_555
H14B C16B 1_555 1_555
C17B N1B 1_555 1_555
H15B C17B 1_555 1_555
C18B N2B 1_555 1_555
H16B C18B 1_555 1_555
C19B N1B 1_555 1_555
H17B C19B 1_555 1_555
C20B C13B 1_555 1_555
H18B C20B 1_555 1_555
H19B C20B 1_555 1_555
C21B N3B 1_555 1_555
H20B C21B 1_555 1_555
C22B N4B 1_555 1_555
H21B C22B 1_555 1_555
C23B N3B 1_555 1_555
H22B C23B 1_555 1_555
H25B O3B 1_555 1_555
H26B O3B 1_555 1_555
O5B Ni2 1_555 1_555
H23B O5B 1_555 1_555
H24B O5B 1_555 1_555
Ni2_2 O7B 1_555 1_555
Ni2A N2 1_555 1_555
Ni2A_2 N2B 1_555 1_555
O7B_2 Ni2 1_555 1_555
N2A Ni2 1_555 1_555
N2C Ni2 1_555 1_555
N4 C21 1_555 1_555
C1 C7 1_555 1_555
C5 C6 1_555 1_555
C8 C9 1_555 1_555
C14 C15 1_555 1_555
C18 C19 1_555 1_555
C22 C23 1_555 1_555
N4B C21B 1_555 1_555
C1B C7B 1_555 1_555
C5B C6B 1_555 1_555
C14B C15B 1_555 1_555
C18B C19B 1_555 1_555
C22B C23B 1_555 1_555

#END
