
#######################################################################
#
#                 Cambridge Crystallographic Data Centre
#                                CCDC 
#
#######################################################################
#
# If this CIF has been generated from an entry in the Cambridge 
# Structural Database, then it will include bibliographic, chemical, 
# crystal, experimental, refinement or atomic coordinate data resulting 
# from the CCDC's data processing and validation procedures.
#
#######################################################################

data_KIJHUI01
_symmetry_cell_setting           monoclinic
_symmetry_space_group_name_H-M   'C 2/c'
_symmetry_Int_Tables_number      15
_space_group_name_Hall           '-C 2yn'
loop_
_symmetry_equiv_pos_site_id
_symmetry_equiv_pos_as_xyz
1 x,y,z
2 -x,y,1/2-z
3 1/2+x,1/2+y,z
4 1/2-x,1/2+y,1/2-z
5 -x,-y,-z
6 x,-y,1/2+z
7 1/2-x,1/2-y,-z
8 1/2+x,1/2-y,1/2+z
_cell_length_a                   14.0226(14)
_cell_length_b                   12.0988(12)
_cell_length_c                   11.0172(11)
_cell_angle_alpha                90
_cell_angle_beta                 111.7570(10)
_cell_angle_gamma                90
_cell_volume                     1735.99
loop_
_atom_site_label
_atom_site_type_symbol
_atom_site_fract_x
_atom_site_fract_y
_atom_site_fract_z
Cd1 Cd 1.0000 0.44999(3) 0.7500
O1 O 0.8135(3) 0.6466(3) 0.7135(3)
O2 O 0.9062(2) 0.5766(3) 0.6057(3)
O3 O 0.8851(3) 0.4647(2) 0.8499(3)
H1 H 0.8548 0.5338 0.8340
H2 H 0.9175 0.4555 0.9396
N1 N 0.9113(3) 0.3129(3) 0.6209(3)
N2 N 0.8800(3) 0.1679(3) 0.4923(4)
C1 C 0.8548(3) 0.2370(4) 0.6597(4)
H3 H 0.8335 0.2461 0.7296
C2 C 0.8354(3) 0.1486(4) 0.5819(5)
H4 H 0.7987 0.0860 0.5873
C3 C 0.9248(3) 0.2676(3) 0.5202(4)
H5 H 0.9609 0.3004 0.4739
C4 C 0.8856(4) 0.0911(4) 0.3916(5)
H6 H 0.9123 0.1297 0.3337
H7 H 0.8171 0.0649 0.3398
C5 C 0.9533(7) -0.0058(8) 0.4516(7)
H8 H 0.9138 -0.0548 0.4847
H9 H 0.9641 -0.0448 0.3809
C6 C 0.8385(3) 0.6412(3) 0.6174(4)
C7 C 0.7870(4) 0.7158(4) 0.5041(4)
H10 H 0.8092 0.7133 0.4344
O1F O 0.6865(3) 0.8534(3) 0.2865(3)
O2F O 0.5938(2) 0.9234(3) 0.3943(3)
C6F C 0.6615(3) 0.8588(3) 0.3826(4)
C7F C 0.7130(4) 0.7842(4) 0.4959(4)
H10F H 0.6908 0.7867 0.5656
N1D N 1.0887(3) -0.3129(3) 0.3791(3)
N2D N 1.1200(3) -0.1679(3) 0.5077(4)
C1D C 1.1452(3) -0.2370(4) 0.3403(4)
H3D H 1.1665 -0.2461 0.2704
C2D C 1.1646(3) -0.1486(4) 0.4181(5)
H4D H 1.2013 -0.0860 0.4127
C3D C 1.0752(3) -0.2676(3) 0.4798(4)
H5D H 1.0391 -0.3004 0.5261
C4D C 1.1144(4) -0.0911(4) 0.6084(5)
H6D H 1.0877 -0.1297 0.6663
H7D H 1.1829 -0.0649 0.6602
C5D C 1.0467(7) 0.0058(8) 0.5484(7)
H8D H 1.0862 0.0548 0.5153
H9D H 1.0359 0.0448 0.6191
O3A O 1.1149(3) 0.4647(2) 0.6501(3)
H1A H 1.1452 0.5338 0.6660
H2A H 1.0825 0.4555 0.5604
Cd1D Cd 1.0000 -0.44999(3) 0.2500
Cd1F Cd 0.5000 1.05001(3) 0.2500
O2A O 1.0938(2) 0.5766(3) 0.8943(3)
N1A N 1.0887(3) 0.3129(3) 0.8791(3)
loop_
_geom_bond_atom_site_label_1
_geom_bond_atom_site_label_2
_geom_bond_site_symmetry_1
_geom_bond_site_symmetry_2
Cd1 O2 1_555 1_555
O1 C6 1_555 1_555
O2 C6 1_555 1_555
O3 Cd1 1_555 1_555
H1 O3 1_555 1_555
H2 O3 1_555 1_555
N1 Cd1 1_555 1_555
N2 C2 1_555 1_555
C1 N1 1_555 1_555
H3 C1 1_555 1_555
C2 C1 1_555 1_555
H4 C2 1_555 1_555
C3 N1 1_555 1_555
H5 C3 1_555 1_555
C4 N2 1_555 1_555
H6 C4 1_555 1_555
H7 C4 1_555 1_555
C5 C4 1_555 1_555
H8 C5 1_555 1_555
H9 C5 1_555 1_555
C6 C7 1_555 1_555
C7 H10 1_555 1_555
O1F C6F 1_555 1_555
O2F C6F 1_555 1_555
C6F C7F 1_555 1_555
C7F C7 1_555 1_555
H10F C7F 1_555 1_555
N1D C1D 1_555 1_555
N2D C2D 1_555 1_555
C1D H3D 1_555 1_555
C2D C1D 1_555 1_555
H4D C2D 1_555 1_555
C3D N1D 1_555 1_555
H5D C3D 1_555 1_555
C4D N2D 1_555 1_555
H6D C4D 1_555 1_555
H7D C4D 1_555 1_555
C5D C5 1_555 1_555
H8D C5D 1_555 1_555
H9D C5D 1_555 1_555
O3A Cd1 1_555 1_555
H1A O3A 1_555 1_555
H2A O3A 1_555 1_555
Cd1D N1D 1_555 1_555
Cd1F O2F 1_555 1_555
O2A Cd1 1_555 1_555
N1A Cd1 1_555 1_555
N2 C3 1_555 1_555
N2D C3D 1_555 1_555
C4D C5D 1_555 1_555

#END
