
#######################################################################
#
#                 Cambridge Crystallographic Data Centre
#                                CCDC 
#
#######################################################################
#
# If this CIF has been generated from an entry in the Cambridge 
# Structural Database, then it will include bibliographic, chemical, 
# crystal, experimental, refinement or atomic coordinate data resulting 
# from the CCDC's data processing and validation procedures.
#
#######################################################################

data_KIJJAQ
_symmetry_cell_setting           monoclinic
_symmetry_space_group_name_H-M   'P 21/c'
_symmetry_Int_Tables_number      14
_space_group_name_Hall           '-P 2ybc'
loop_
_symmetry_equiv_pos_site_id
_symmetry_equiv_pos_as_xyz
1 x,y,z
2 -x,1/2+y,1/2-z
3 -x,-y,-z
4 x,1/2-y,1/2+z
_cell_length_a                   13.0107(6)
_cell_length_b                   11.5342(5)
_cell_length_c                   18.3427(15)
_cell_angle_alpha                90
_cell_angle_beta                 115.469(5)
_cell_angle_gamma                90
_cell_volume                     2485.14
loop_
_atom_site_label
_atom_site_type_symbol
_atom_site_fract_x
_atom_site_fract_y
_atom_site_fract_z
Cd1 Cd 0.05015(2) -0.24944(2) -0.180595(16)
C1 C 0.0171(3) -0.0706(3) -0.0886(2)
C2 C -0.0052(3) 0.0134(3) -0.0357(2)
H1 H -0.0275 0.0883 -0.0546
C3 C 0.2969(4) -0.1431(4) -0.0693(3)
H2 H 0.2818 -0.1484 -0.0242
C4 C 0.3959(4) -0.1095(5) -0.0686(4)
H3 H 0.4613 -0.0880 -0.0235
C5 C 0.2773(3) -0.1476(3) -0.1902(3)
H4 H 0.2456 -0.1566 -0.2459
C6 C 0.4686(4) -0.0872(4) -0.1748(4)
H5 H 0.4990 -0.0102 -0.1569
H6 H 0.4335 -0.0875 -0.2334
C7 C 0.5650(3) -0.1744(4) -0.1441(3)
C8 C 0.6745(4) -0.1379(4) -0.1062(3)
H7 H 0.6908 -0.0595 -0.0957
C9 C 0.7629(4) -0.2190(4) -0.0830(4)
H8 H 0.8378 -0.1930 -0.0581
C10 C 0.7430(3) -0.3331(4) -0.0955(3)
C11 C 0.6326(4) -0.3698(4) -0.1334(3)
H9 H 0.6166 -0.4484 -0.1430
C12 C 0.5449(4) -0.2905(5) -0.1573(4)
H10 H 0.4702 -0.3168 -0.1830
C13 C 0.8409(4) -0.4185(4) -0.0701(3)
H11 H 0.8177 -0.4841 -0.1067
H12 H 0.9046 -0.3815 -0.0749
C14 C 0.9525(4) -0.4727(4) 0.1435(3)
H13 H 0.9879 -0.4533 0.1980
C15 C 0.9292(4) -0.3997(4) 0.0822(3)
H14 H 0.9450 -0.3207 0.0865
C16 C 0.8723(3) -0.5703(3) 0.0341(2)
H15 H 0.8412 -0.6310 -0.0022
C17 C -0.1994(4) -0.3234(4) -0.3234(3)
H16 H -0.1716 -0.3908 -0.3363
C18 C -0.3064(4) -0.2858(5) -0.3605(4)
H17 H -0.3657 -0.3219 -0.4033
C19 C -0.2098(3) -0.1675(4) -0.2670(3)
H18 H -0.1905 -0.1040 -0.2324
C20 C -0.4146(3) -0.1125(4) -0.3434(3)
H19 H -0.3959 -0.0529 -0.3024
H20 H -0.4749 -0.1598 -0.3413
C21 C -0.4575(3) -0.0558(4) -0.4248(3)
C22 C -0.3945(3) 0.0261(4) -0.4423(3)
H21 H -0.3220 0.0447 -0.4034
C23 C -0.5638(3) -0.0808(4) -0.4844(3)
H22 H -0.6083 -0.1362 -0.4746
N1 N 0.2223(3) -0.1680(3) -0.1462(2)
N2 N 0.3828(3) -0.1127(3) -0.1464(2)
N3 N 0.9156(2) -0.5815(3) 0.11285(19)
N4 N 0.8783(3) -0.4606(3) 0.0125(2)
N5 N -0.1377(3) -0.2486(3) -0.2642(2)
N6 N -0.3132(3) -0.1860(3) -0.3247(2)
O1 O 0.0405(2) -0.1737(2) -0.06599(17)
O2 O 0.0759(2) -0.3263(3) -0.28966(18)
H23 H 0.0448 -0.3928 -0.3016
H24 H 0.1411 -0.3411 -0.2876
O3 O 0.0089(2) -0.0356(2) -0.15532(16)
C1B C -0.0171(3) 0.0706(3) 0.0886(2)
C2B C 0.0052(3) -0.0134(3) 0.0357(2)
H1B H 0.0275 -0.0883 0.0546
O1B O -0.0405(2) 0.1737(2) 0.06599(17)
O3B O -0.0089(2) 0.0356(2) 0.15532(16)
C17B C -0.8006(4) 0.3234(4) -0.6766(3)
H16B H -0.8284 0.3908 -0.6637
C18B C -0.6936(4) 0.2858(5) -0.6395(4)
H17B H -0.6343 0.3219 -0.5967
C19B C -0.7902(3) 0.1675(4) -0.7330(3)
H18B H -0.8095 0.1040 -0.7676
C20B C -0.5854(3) 0.1125(4) -0.6566(3)
H19B H -0.6041 0.0529 -0.6976
H20B H -0.5251 0.1598 -0.6587
C21B C -0.5425(3) 0.0558(4) -0.5752(3)
C22B C -0.6055(3) -0.0261(4) -0.5577(3)
H21B H -0.6780 -0.0447 -0.5966
C23B C -0.4362(3) 0.0808(4) -0.5156(3)
H22B H -0.3917 0.1362 -0.5254
N5B N -0.8623(3) 0.2486(3) -0.7358(2)
N6B N -0.6868(3) 0.1860(3) -0.6753(2)
Cd1B Cd -1.05015(2) 0.24944(2) -0.819405(16)
C3B C -1.2969(4) 0.1431(4) -0.9307(3)
H2B H -1.2818 0.1484 -0.9758
C4B C -1.3959(4) 0.1095(5) -0.9314(4)
H3B H -1.4613 0.0880 -0.9765
C5B C -1.2773(3) 0.1476(3) -0.8098(3)
H4B H -1.2456 0.1566 -0.7541
C6B C -1.4686(4) 0.0872(4) -0.8252(4)
H5B H -1.4990 0.0102 -0.8431
H6B H -1.4335 0.0875 -0.7666
C7B C -1.5650(3) 0.1744(4) -0.8559(3)
C8B C -1.6745(4) 0.1379(4) -0.8938(3)
H7B H -1.6908 0.0595 -0.9043
C9B C -1.7629(4) 0.2190(4) -0.9170(4)
H8B H -1.8378 0.1930 -0.9419
C10B C -1.7430(3) 0.3331(4) -0.9045(3)
C11B C -1.6326(4) 0.3698(4) -0.8666(3)
H9B H -1.6166 0.4484 -0.8570
C12B C -1.5449(4) 0.2905(5) -0.8427(4)
H10B H -1.4702 0.3168 -0.8170
C13B C -1.8409(4) 0.4185(4) -0.9299(3)
H11B H -1.8177 0.4841 -0.8933
H12B H -1.9046 0.3815 -0.9251
C14B C -1.9525(4) 0.4727(4) -1.1435(3)
H13B H -1.9879 0.4533 -1.1980
C15B C -1.9292(4) 0.3997(4) -1.0822(3)
H14B H -1.9450 0.3207 -1.0865
C16B C -1.8723(3) 0.5703(3) -1.0341(2)
H15B H -1.8412 0.6310 -0.9978
N1B N -1.2223(3) 0.1680(3) -0.8538(2)
N2B N -1.3828(3) 0.1127(3) -0.8536(2)
N3B N -1.9156(2) 0.5815(3) -1.11285(19)
N4B N -1.8783(3) 0.4606(3) -1.0125(2)
O2B O -1.0759(2) 0.3263(3) -0.71034(18)
H23B H -1.0448 0.3928 -0.6984
H24B H -1.1411 0.3411 -0.7124
Cd1_2 Cd -1.94985(2) 0.75056(2) -1.180595(16)
Cd1B_2 Cd -0.05015(2) 0.24944(2) 0.180595(16)
Cd1B_3 Cd 0.94985(2) -0.75056(2) 0.180595(16)
N3_2 N -1.0844(2) 0.4185(3) -0.88715(19)
N3B_2 N 0.0844(2) -0.4185(3) -0.11285(19)
O1B_2 O -1.0405(2) 0.1737(2) -0.93401(17)
O3B_2 O -1.0089(2) 0.0356(2) -0.84468(16)
N7 N 0.3032(4) -0.3061(4) -0.3503(2)
O4 O 0.2780(3) -0.3757(3) -0.3093(2)
O5 O 0.3753(3) -0.3334(4) -0.3736(2)
O6 O 0.2635(5) -0.2092(4) -0.3635(3)
loop_
_geom_bond_atom_site_label_1
_geom_bond_atom_site_label_2
_geom_bond_site_symmetry_1
_geom_bond_site_symmetry_2
Cd1 N1 1_555 1_555
C1 C2 1_555 1_555
C2 H1 1_555 1_555
C3 H2 1_555 1_555
C4 C3 1_555 1_555
H3 C4 1_555 1_555
C5 H4 1_555 1_555
C6 H5 1_555 1_555
H6 C6 1_555 1_555
C7 C6 1_555 1_555
C8 C7 1_555 1_555
H7 C8 1_555 1_555
C9 C8 1_555 1_555
H8 C9 1_555 1_555
C10 C9 1_555 1_555
C11 C10 1_555 1_555
H9 C11 1_555 1_555
C12 C7 1_555 1_555
H10 C12 1_555 1_555
C13 C10 1_555 1_555
H11 C13 1_555 1_555
H12 C13 1_555 1_555
C14 H13 1_555 1_555
C15 C14 1_555 1_555
H14 C15 1_555 1_555
C16 H15 1_555 1_555
C17 H16 1_555 1_555
C18 C17 1_555 1_555
H17 C18 1_555 1_555
C19 H18 1_555 1_555
C20 H19 1_555 1_555
H20 C20 1_555 1_555
C21 C20 1_555 1_555
C22 C21 1_555 1_555
H21 C22 1_555 1_555
C23 C21 1_555 1_555
H22 C23 1_555 1_555
N1 C3 1_555 1_555
N2 C4 1_555 1_555
N3 C14 1_555 1_555
N4 C13 1_555 1_555
N5 Cd1 1_555 1_555
N6 C18 1_555 1_555
O1 Cd1 1_555 1_555
O2 Cd1 1_555 1_555
H23 O2 1_555 1_555
H24 O2 1_555 1_555
O3 Cd1 1_555 1_555
N7 O4 1_555 1_555
O5 N7 1_555 1_555
O6 N7 1_555 1_555
C1B C2B 1_555 1_555
C2B C2 1_555 1_555
H1B C2B 1_555 1_555
O1B C1B 1_555 1_555
O3B C1B 1_555 1_555
C17B H16B 1_555 1_555
C18B C17B 1_555 1_555
H17B C18B 1_555 1_555
C19B H18B 1_555 1_555
C20B H19B 1_555 1_555
H20B C20B 1_555 1_555
C21B C20B 1_555 1_555
C22B C23 1_555 1_555
H21B C22B 1_555 1_555
C23B C22 1_555 1_555
H22B C23B 1_555 1_555
N5B C17B 1_555 1_555
N6B C18B 1_555 1_555
Cd1B N5B 1_555 1_555
C3B H2B 1_555 1_555
C4B C3B 1_555 1_555
H3B C4B 1_555 1_555
C5B H4B 1_555 1_555
C6B H5B 1_555 1_555
H6B C6B 1_555 1_555
C7B C6B 1_555 1_555
C8B C7B 1_555 1_555
H7B C8B 1_555 1_555
C9B C8B 1_555 1_555
H8B C9B 1_555 1_555
C10B C9B 1_555 1_555
C11B C10B 1_555 1_555
H9B C11B 1_555 1_555
C12B C7B 1_555 1_555
H10B C12B 1_555 1_555
C13B C10B 1_555 1_555
H11B C13B 1_555 1_555
H12B C13B 1_555 1_555
C14B H13B 1_555 1_555
C15B C14B 1_555 1_555
H14B C15B 1_555 1_555
C16B H15B 1_555 1_555
N1B Cd1B 1_555 1_555
N2B C4B 1_555 1_555
N3B C14B 1_555 1_555
N4B C13B 1_555 1_555
O2B Cd1B 1_555 1_555
H23B O2B 1_555 1_555
H24B O2B 1_555 1_555
Cd1_2 N3B 1_555 1_555
Cd1B_2 O1B 1_555 1_555
Cd1B_3 N3 1_555 1_555
N3_2 Cd1B 1_555 1_555
N3B_2 Cd1 1_555 1_555
O1B_2 Cd1B 1_555 1_555
O3B_2 Cd1B 1_555 1_555
C1 O1 1_555 1_555
C1 O3 1_555 1_555
C5 N1 1_555 1_555
C5 N2 1_555 1_555
C6 N2 1_555 1_555
C11 C12 1_555 1_555
C15 N4 1_555 1_555
C16 N3 1_555 1_555
C16 N4 1_555 1_555
C17 N5 1_555 1_555
C19 N5 1_555 1_555
C19 N6 1_555 1_555
C20 N6 1_555 1_555
O3B Cd1B_2 1_555 1_555
C19B N5B 1_555 1_555
C19B N6B 1_555 1_555
C20B N6B 1_555 1_555
C21B C22B 1_555 1_555
C21B C23B 1_555 1_555
C3B N1B 1_555 1_555
C5B N1B 1_555 1_555
C5B N2B 1_555 1_555
C6B N2B 1_555 1_555
C11B C12B 1_555 1_555
C15B N4B 1_555 1_555
C16B N3B 1_555 1_555
C16B N4B 1_555 1_555

#END
