
#######################################################################
#
#                 Cambridge Crystallographic Data Centre
#                                CCDC 
#
#######################################################################
#
# If this CIF has been generated from an entry in the Cambridge 
# Structural Database, then it will include bibliographic, chemical, 
# crystal, experimental, refinement or atomic coordinate data resulting 
# from the CCDC's data processing and validation procedures.
#
#######################################################################

data_KIJRIG
_symmetry_cell_setting           monoclinic
_symmetry_space_group_name_H-M   'C 2/c'
_symmetry_Int_Tables_number      15
_space_group_name_Hall           '-C 2yn'
loop_
_symmetry_equiv_pos_site_id
_symmetry_equiv_pos_as_xyz
1 x,y,z
2 -x,y,1/2-z
3 1/2+x,1/2+y,z
4 1/2-x,1/2+y,1/2-z
5 -x,-y,-z
6 x,-y,1/2+z
7 1/2-x,1/2-y,-z
8 1/2+x,1/2-y,1/2+z
_cell_length_a                   25.339(5)
_cell_length_b                   6.221(5)
_cell_length_c                   26.305(5)
_cell_angle_alpha                90
_cell_angle_beta                 95.545(5)
_cell_angle_gamma                90
_cell_volume                     4127.16
loop_
_atom_site_label
_atom_site_type_symbol
_atom_site_fract_x
_atom_site_fract_y
_atom_site_fract_z
Ag1 Ag 0.5000 0.0000 0.5000
Ag2 Ag 0.5000 0.31660(7) 0.2500
O1 O 0.45785(10) 0.3374(4) 0.33753(9)
O2 O 0.50996(11) 0.0773(4) 0.32457(9)
N1 N 0.45538(10) 0.2754(4) 0.52141(9)
O3 O 0.48085(11) 0.1162(4) 0.39822(8)
C1 C 0.41062(11) 0.6054(5) 0.49633(10)
C2 C 0.30528(12) 1.1466(5) 0.32950(11)
C3 C 0.39610(11) 0.7373(5) 0.40674(10)
H1 H 0.4167 0.6228 0.3974
C4 C 0.36992(11) 0.9684(5) 0.27497(11)
C5 C 0.37489(11) 0.8793(4) 0.36581(10)
C6 C 0.34059(12) 1.0679(5) 0.37648(11)
H2 H 0.3631 1.1853 0.3895
H3 H 0.3182 1.0280 0.4029
C7 C 0.40679(12) 0.6537(5) 0.54731(11)
H4 H 0.3908 0.7809 0.5564
C8 C 0.38916(12) 0.7537(5) 0.45583(11)
H5 H 0.3690 0.8689 0.4656
C9 C 0.38768(12) 0.8387(5) 0.31823(10)
H6 H 0.4091 0.7207 0.3132
C10 C 0.33940(12) 1.1696(5) 0.28454(11)
H7 H 0.3166 1.2053 0.2539
H8 H 0.3642 1.2873 0.2915
C11 C 0.43522(12) 0.4136(5) 0.48560(11)
H9 H 0.4379 0.3790 0.4515
N2 N 0.48309(10) 0.1767(4) 0.35398(9)
C12 C 0.42690(14) 0.5111(6) 0.58447(11)
H10 H 0.4242 0.5413 0.6187
C13 C 0.38153(12) 0.9138(5) 0.22699(11)
C14 C 0.36345(13) 1.0369(6) 0.18194(12)
C15 C 0.28244(14) 1.3671(5) 0.34100(13)
H11 H 0.3109 1.4682 0.3479
H12 H 0.2627 1.3565 0.3703
H13 H 0.2595 1.4150 0.3121
N3 N 0.43353(16) 0.5667(6) 0.21620(12)
C16 C 0.25979(14) 0.9898(5) 0.31607(14)
H14 H 0.2376 1.0434 0.2872
H15 H 0.2393 0.9750 0.3447
H16 H 0.2739 0.8523 0.3078
N4 N 0.34877(13) 1.1290(6) 0.14632(12)
C17 C 0.41106(15) 0.7234(7) 0.21955(11)
C18 C 0.45082(13) 0.3247(5) 0.57081(11)
H17 H 0.4642 0.2300 0.5962
O1A O 0.54215(10) 0.3374(4) 0.16247(9)
O2A O 0.49004(11) 0.0773(4) 0.17543(9)
N1A N 0.54462(10) 0.2754(4) -0.02141(9)
O3A O 0.51915(11) 0.1162(4) 0.10178(8)
C1A C 0.58938(11) 0.6054(5) 0.00367(10)
C2A C 0.69472(12) 1.1466(5) 0.17050(11)
C3A C 0.60390(11) 0.7373(5) 0.09326(10)
H1A H 0.5833 0.6228 0.1026
C4A C 0.63008(11) 0.9684(5) 0.22503(11)
C5A C 0.62511(11) 0.8793(4) 0.13419(10)
C6A C 0.65941(12) 1.0679(5) 0.12352(11)
H2A H 0.6369 1.1853 0.1105
H3A H 0.6818 1.0280 0.0971
C7A C 0.59321(12) 0.6537(5) -0.04731(11)
H4A H 0.6092 0.7809 -0.0564
C8A C 0.61084(12) 0.7537(5) 0.04417(11)
H5A H 0.6310 0.8689 0.0344
C9A C 0.61232(12) 0.8387(5) 0.18177(10)
H6A H 0.5909 0.7207 0.1868
C10A C 0.66060(12) 1.1696(5) 0.21546(11)
H7A H 0.6834 1.2053 0.2461
H8A H 0.6358 1.2873 0.2085
C11A C 0.56478(12) 0.4136(5) 0.01440(11)
H9A H 0.5621 0.3790 0.0485
N2A N 0.51691(10) 0.1767(4) 0.14602(9)
C12A C 0.57310(14) 0.5111(6) -0.08447(11)
H10A H 0.5758 0.5413 -0.1187
C13A C 0.61847(12) 0.9138(5) 0.27301(11)
C14A C 0.63655(13) 1.0369(6) 0.31806(12)
C15A C 0.71756(14) 1.3671(5) 0.15900(13)
H11A H 0.6891 1.4682 0.1521
H12A H 0.7373 1.3565 0.1297
H13A H 0.7405 1.4150 0.1879
N3A N 0.56647(16) 0.5667(6) 0.28380(12)
C16A C 0.74021(14) 0.9898(5) 0.18393(14)
H14A H 0.7624 1.0434 0.2128
H15A H 0.7607 0.9750 0.1553
H16A H 0.7261 0.8523 0.1922
N4A N 0.65123(13) 1.1290(6) 0.35368(12)
C17A C 0.58894(15) 0.7234(7) 0.28045(11)
C18A C 0.54918(13) 0.3247(5) -0.07081(11)
H17A H 0.5358 0.2300 -0.0962
Ag1A Ag 0.5000 0.0000 0.0000
N1D N 0.54462(10) -0.2754(4) 0.47859(9)
C19 C 0.2721(3) 0.0742(14) 0.5275(3)
C20 C 0.2721(4) 0.4471(14) 0.5078(4)
C21 C 0.2937(3) 0.2698(18) 0.5342(3)
C19F C 0.2279(3) 0.4258(14) 0.4725(3)
C20F C 0.2279(4) 0.0529(14) 0.4922(4)
C21F C 0.2063(3) 0.2302(18) 0.4658(3)
loop_
_geom_bond_atom_site_label_1
_geom_bond_atom_site_label_2
_geom_bond_site_symmetry_1
_geom_bond_site_symmetry_2
Ag1 N1 1_555 1_555
Ag2 O1 1_555 1_555
O1 N2 1_555 1_555
O2 Ag2 1_555 1_555
N1 C11 1_555 1_555
O3 N2 1_555 1_555
C1 C7 1_555 1_555
C2 C6 1_555 1_555
C3 H1 1_555 1_555
C4 C9 1_555 1_555
C5 C3 1_555 1_555
C6 C5 1_555 1_555
H2 C6 1_555 1_555
H3 C6 1_555 1_555
C7 H4 1_555 1_555
C8 C1 1_555 1_555
H5 C8 1_555 1_555
C9 C5 1_555 1_555
H6 C9 1_555 1_555
C10 C2 1_555 1_555
H7 C10 1_555 1_555
H8 C10 1_555 1_555
C11 C1 1_555 1_555
H9 C11 1_555 1_555
N2 O2 1_555 1_555
C12 C7 1_555 1_555
H10 C12 1_555 1_555
C13 C4 1_555 1_555
C14 C13 1_555 1_555
C15 C2 1_555 1_555
H11 C15 1_555 1_555
H12 C15 1_555 1_555
H13 C15 1_555 1_555
N3 Ag2 1_555 1_555
C16 C2 1_555 1_555
H14 C16 1_555 1_555
H15 C16 1_555 1_555
H16 C16 1_555 1_555
N4 C14 1_555 1_555
C17 C13 1_555 1_555
C18 N1 1_555 1_555
H17 C18 1_555 1_555
C19 C21 1_555 1_555
C20 C21 1_555 1_555
O1A Ag2 1_555 1_555
O2A Ag2 1_555 1_555
N1A C11A 1_555 1_555
O3A N2A 1_555 1_555
C1A C7A 1_555 1_555
C2A C6A 1_555 1_555
C3A H1A 1_555 1_555
C4A C9A 1_555 1_555
C5A C3A 1_555 1_555
C6A C5A 1_555 1_555
H2A C6A 1_555 1_555
H3A C6A 1_555 1_555
C7A H4A 1_555 1_555
C8A C1A 1_555 1_555
H5A C8A 1_555 1_555
C9A C5A 1_555 1_555
H6A C9A 1_555 1_555
C10A C2A 1_555 1_555
H7A C10A 1_555 1_555
H8A C10A 1_555 1_555
C11A C1A 1_555 1_555
H9A C11A 1_555 1_555
N2A O1A 1_555 1_555
C12A C7A 1_555 1_555
H10A C12A 1_555 1_555
C13A C4A 1_555 1_555
C14A C13A 1_555 1_555
C15A C2A 1_555 1_555
H11A C15A 1_555 1_555
H12A C15A 1_555 1_555
H13A C15A 1_555 1_555
N3A Ag2 1_555 1_555
C16A C2A 1_555 1_555
H14A C16A 1_555 1_555
H15A C16A 1_555 1_555
H16A C16A 1_555 1_555
N4A C14A 1_555 1_555
C17A C13A 1_555 1_555
C18A N1A 1_555 1_555
H17A C18A 1_555 1_555
Ag1A N1A 1_555 1_555
N1D Ag1 1_555 1_555
C19F C20 1_555 1_555
C20F C19 1_555 1_555
C21F C19F 1_555 1_555
C3 C8 1_555 1_555
C4 C10 1_555 1_555
C12 C18 1_555 1_555
N3 C17 1_555 1_555
O2A N2A 1_555 1_555
C3A C8A 1_555 1_555
C4A C10A 1_555 1_555
C12A C18A 1_555 1_555
N3A C17A 1_555 1_555
C20F C21F 1_555 1_555

#END
