
#######################################################################
#
#                 Cambridge Crystallographic Data Centre
#                                CCDC 
#
#######################################################################
#
# If this CIF has been generated from an entry in the Cambridge 
# Structural Database, then it will include bibliographic, chemical, 
# crystal, experimental, refinement or atomic coordinate data resulting 
# from the CCDC's data processing and validation procedures.
#
#######################################################################

data_KIJXEI
_symmetry_cell_setting           monoclinic
_symmetry_space_group_name_H-M   'C 2'
_symmetry_Int_Tables_number      5
_space_group_name_Hall           'C 2y'
loop_
_symmetry_equiv_pos_site_id
_symmetry_equiv_pos_as_xyz
1 x,y,z
2 -x,y,-z
3 1/2+x,1/2+y,z
4 1/2-x,1/2+y,-z
_cell_length_a                   24.905(3)
_cell_length_b                   9.213(1)
_cell_length_c                   16.7594(18)
_cell_angle_alpha                90
_cell_angle_beta                 112.323(1)
_cell_angle_gamma                90
_cell_volume                     3557.25
loop_
_atom_site_label
_atom_site_type_symbol
_atom_site_fract_x
_atom_site_fract_y
_atom_site_fract_z
Cd1 Cd 0.836382(8) 0.727140(16) 0.025716(14)
O1 O 1.00883(9) 1.2333(3) -0.10925(16)
O2 O 0.73362(9) 1.1621(2) 0.10661(14)
O3 O 0.76684(8) 0.8418(2) 0.07909(12)
O4 O 0.64985(8) 1.0618(2) 0.09148(14)
O5 O 0.85999(8) 0.8514(3) 0.15906(14)
O6 O 0.80910(10) 0.5068(2) 0.06009(15)
H1 H 0.8223(15) 0.445(3) 0.0999(16)
H2 H 0.7909(14) 0.460(3) 0.0147(14)
N1 N 0.86003(10) 0.9359(3) -0.02995(16)
N2 N 0.92297(10) 1.3132(3) -0.10326(17)
H3 H 0.9016(13) 1.387(3) -0.103(2)
N3 N 1.06444(10) 1.6621(3) -0.09222(16)
C1 C 1.02429(13) 1.7619(4) -0.1338(2)
H4 H 1.0361 1.8574 -0.1348
C2 C 0.70387(12) 1.0732(3) 0.13047(18)
C3 C 0.80745(12) 0.8747(3) 0.14805(19)
C4 C 0.90270(13) 1.1842(3) -0.0819(2)
C5 C 0.97486(12) 1.3314(3) -0.11353(18)
C6 C 0.85708(13) 1.1928(3) -0.0542(2)
H5 H 0.8398 1.2817 -0.0527
C7 C 1.04668(11) 1.5265(3) -0.08982(18)
H6 H 1.0743 1.4561 -0.0625
C8 C 0.98844(12) 1.4854(3) -0.12646(18)
C9 C 0.83735(12) 1.0670(3) -0.0286(2)
H7 H 0.8069 1.0743 -0.0097
C10 C 0.92529(13) 1.0474(4) -0.0867(2)
H8 H 0.9548 1.0365 -0.1075
C11 C 0.96599(13) 1.7285(4) -0.1752(2)
H9 H 0.9396 1.7996 -0.2055
C12 C 0.79669(12) 0.9422(3) 0.22308(19)
H10 H 0.8191 1.0311 0.2392
H11 H 0.8115 0.8765 0.2718
C13 C 0.90290(13) 0.9291(3) -0.05998(19)
H12 H 0.9184 0.8384 -0.0629
C14 C 0.73388(13) 0.9776(3) 0.20785(19)
H13 H 0.7124 0.8875 0.2005
H14 H 0.7328 1.0255 0.2588
C15 C 0.94750(12) 1.5889(3) -0.17090(19)
H15 H 0.9085 1.5646 -0.1972
Cd1A Cd 1.163618(8) 1.727140(16) -0.025716(14)
Cd1C Cd 0.663618(8) 1.227140(16) -0.025716(14)
O2C O 0.76638(9) 0.6621(2) -0.10661(14)
O4C O 0.85015(8) 0.5618(2) -0.09148(14)
N3A N 0.93556(10) 0.6621(3) 0.09222(16)
Cd2 Cd 0.662779(9) 0.182516(17) 0.473628(14)
O7 O 0.48873(9) 0.6889(3) 0.60427(15)
O8 O 0.73251(8) 0.1193(2) 0.60518(13)
O9 O 0.76534(8) -0.2032(2) 0.57893(13)
O10 O 0.85892(9) -0.1836(3) 0.65444(14)
O11 O 0.68945(10) -0.0383(2) 0.43773(15)
H16 H 0.7116(14) -0.084(4) 0.4816(15)
H17 H 0.6793(15) -0.093(3) 0.3943(15)
O12 O 0.64925(8) 0.0149(2) 0.59043(14)
N4 N 0.63867(10) 0.3885(3) 0.53104(16)
N5 N 0.57622(10) 0.7663(3) 0.60421(16)
H18 H 0.5963(13) 0.845(3) 0.602(2)
N6 N 0.43660(10) 1.1193(3) 0.59560(16)
C16 C 0.80658(12) -0.1654(3) 0.64611(18)
C17 C 0.47710(13) 1.2146(4) 0.6401(2)
H19 H 0.4659 1.3100 0.6433
C18 C 0.64305(13) 0.6440(4) 0.5567(2)
H20 H 0.6611 0.7323 0.5566
C19 C 0.51116(12) 0.9386(3) 0.62807(18)
C20 C 0.70310(12) 0.0290(3) 0.62934(19)
C21 C 0.53518(13) 1.1789(4) 0.6817(2)
H21 H 0.5618 1.2484 0.7135
C22 C 0.59594(12) 0.6367(4) 0.58249(19)
C23 C 0.57232(12) 0.5011(3) 0.5855(2)
H22 H 0.5422 0.4910 0.6050
C24 C 0.52416(11) 0.7860(3) 0.61313(17)
C25 C 0.45348(12) 0.9827(3) 0.59061(18)
H23 H 0.4255 0.9144 0.5609
C26 C 0.79678(12) -0.0979(3) 0.72195(18)
H24 H 0.8189 -0.0085 0.7373
H25 H 0.8123 -0.1632 0.7708
C27 C 0.66240(12) 0.5188(3) 0.5315(2)
H26 H 0.6935 0.5252 0.5138
C28 C 0.59460(13) 0.3820(3) 0.55896(19)
H27 H 0.5783 0.2918 0.5604
C29 C 0.73424(12) -0.0642(4) 0.70789(19)
H28 H 0.7133 -0.1548 0.7020
H29 H 0.7334 -0.0149 0.7586
C30 C 0.55283(12) 1.0403(3) 0.67542(19)
H30 H 0.5917 1.0141 0.7020
Cd2A Cd 0.337221(9) 1.182516(17) 0.526372(14)
Cd2C Cd 0.837221(9) -0.317484(17) 0.526372(14)
O9C O 0.73466(8) 0.2968(2) 0.42107(13)
O10C O 0.64108(9) 0.3164(3) 0.34556(14)
N6A N 0.56340(10) 0.1193(3) 0.40440(16)
O13 O 0.66460(10) 0.7730(3) 0.30873(15)
H31 H 0.6355(11) 0.717(3) 0.300(2)
H32 H 0.6952(10) 0.721(3) 0.332(2)
O14 O 0.57525(11) 0.5789(3) 0.29551(17)
H33 H 0.5543(15) 0.607(4) 0.321(2)
H34 H 0.5915(16) 0.499(3) 0.313(2)
O15 O 1.07337(10) 1.1124(3) -0.20591(18)
H35 H 1.0524(15) 1.130(4) -0.177(2)
H36 H 1.0890(16) 1.029(3) -0.196(3)
O16 O 0.83942(10) 0.3080(3) 0.18327(15)
H37 H 0.8076(10) 0.260(4) 0.161(2)
H38 H 0.8666(11) 0.252(3) 0.184(2)
loop_
_geom_bond_atom_site_label_1
_geom_bond_atom_site_label_2
_geom_bond_site_symmetry_1
_geom_bond_site_symmetry_2
Cd1 O3 1_555 1_555
O1 C5 1_555 1_555
O2 C2 1_555 1_555
O3 C3 1_555 1_555
O4 C2 1_555 1_555
O5 Cd1 1_555 1_555
O6 Cd1 1_555 1_555
H1 O6 1_555 1_555
H2 O6 1_555 1_555
N1 Cd1 1_555 1_555
N2 H3 1_555 1_555
N3 C1 1_555 1_555
C1 H4 1_555 1_555
C2 C14 1_555 1_555
C3 O5 1_555 1_555
C4 N2 1_555 1_555
C5 N2 1_555 1_555
C6 C4 1_555 1_555
H5 C6 1_555 1_555
C7 N3 1_555 1_555
H6 C7 1_555 1_555
C8 C5 1_555 1_555
C9 N1 1_555 1_555
H7 C9 1_555 1_555
C10 C4 1_555 1_555
H8 C10 1_555 1_555
C11 C1 1_555 1_555
H9 C11 1_555 1_555
C12 C3 1_555 1_555
H10 C12 1_555 1_555
H11 C12 1_555 1_555
C13 N1 1_555 1_555
H12 C13 1_555 1_555
C14 C12 1_555 1_555
H13 C14 1_555 1_555
H14 C14 1_555 1_555
C15 C8 1_555 1_555
H15 C15 1_555 1_555
Cd2 O8 1_555 1_555
O7 C24 1_555 1_555
O8 C20 1_555 1_555
O9 C16 1_555 1_555
O10 C16 1_555 1_555
O11 Cd2 1_555 1_555
H16 O11 1_555 1_555
H17 O11 1_555 1_555
O12 Cd2 1_555 1_555
N4 Cd2 1_555 1_555
N5 H18 1_555 1_555
N6 C17 1_555 1_555
C16 C26 1_555 1_555
C17 H19 1_555 1_555
C18 H20 1_555 1_555
C19 C24 1_555 1_555
C20 O12 1_555 1_555
C21 C17 1_555 1_555
H21 C21 1_555 1_555
C22 N5 1_555 1_555
C23 C22 1_555 1_555
H22 C23 1_555 1_555
C24 N5 1_555 1_555
C25 N6 1_555 1_555
H23 C25 1_555 1_555
C26 H24 1_555 1_555
H25 C26 1_555 1_555
C27 N4 1_555 1_555
H26 C27 1_555 1_555
C28 N4 1_555 1_555
H27 C28 1_555 1_555
C29 C20 1_555 1_555
H28 C29 1_555 1_555
H29 C29 1_555 1_555
C30 C19 1_555 1_555
H30 C30 1_555 1_555
O13 H31 1_555 1_555
H32 O13 1_555 1_555
O14 H33 1_555 1_555
H34 O14 1_555 1_555
O15 H35 1_555 1_555
H36 O15 1_555 1_555
O16 H37 1_555 1_555
H38 O16 1_555 1_555
Cd1A N3 1_555 1_555
Cd1C O2 1_555 1_555
O2C Cd1 1_555 1_555
O4C Cd1 1_555 1_555
N3A Cd1 1_555 1_555
Cd2A N6 1_555 1_555
Cd2C O9 1_555 1_555
O9C Cd2 1_555 1_555
O10C Cd2 1_555 1_555
N6A Cd2 1_555 1_555
O4 Cd1C 1_555 1_555
C6 C9 1_555 1_555
C7 C8 1_555 1_555
C10 C13 1_555 1_555
C11 C15 1_555 1_555
O10 Cd2C 1_555 1_555
C18 C22 1_555 1_555
C18 C27 1_555 1_555
C19 C25 1_555 1_555
C21 C30 1_555 1_555
C23 C28 1_555 1_555
C26 C29 1_555 1_555

#END
