
#######################################################################
#
#                 Cambridge Crystallographic Data Centre
#                                CCDC 
#
#######################################################################
#
# If this CIF has been generated from an entry in the Cambridge 
# Structural Database, then it will include bibliographic, chemical, 
# crystal, experimental, refinement or atomic coordinate data resulting 
# from the CCDC's data processing and validation procedures.
#
#######################################################################

data_KIKDOZ
_symmetry_cell_setting           monoclinic
_symmetry_space_group_name_H-M   'C 2/c'
_symmetry_Int_Tables_number      15
_space_group_name_Hall           '-C 2yn'
loop_
_symmetry_equiv_pos_site_id
_symmetry_equiv_pos_as_xyz
1 x,y,z
2 -x,y,1/2-z
3 1/2+x,1/2+y,z
4 1/2-x,1/2+y,1/2-z
5 -x,-y,-z
6 x,-y,1/2+z
7 1/2-x,1/2-y,-z
8 1/2+x,1/2-y,1/2+z
_cell_length_a                   13.6869(10)
_cell_length_b                   15.5383(9)
_cell_length_c                   15.8770(12)
_cell_angle_alpha                90
_cell_angle_beta                 90.047(8)
_cell_angle_gamma                90
_cell_volume                     3376.58
loop_
_atom_site_label
_atom_site_type_symbol
_atom_site_fract_x
_atom_site_fract_y
_atom_site_fract_z
Cd1 Cd 0.0000 -0.016052(16) 0.7500
Si1 Si 0.0000 0.0000 1.0000
F1 F -0.02551(14) -0.01322(13) 0.89567(15)
F2 F -0.0113(2) 0.10664(12) 0.98842(13)
F3 F 0.11920(16) 0.00636(15) 0.97583(14)
N1 N 0.1087(2) 0.09683(19) 0.7760(2)
N2 N 0.0852(2) 0.15123(19) 0.8393(2)
H1 H 0.0437 0.1391 0.8790
N3 N 0.3805(2) 0.3843(2) 0.72454(19)
N4 N 0.3265(2) 0.3875(2) 0.6532(2)
H2 H 0.3377 0.4226 0.6116
C1 C 0.2167(3) 0.0987(3) 0.6517(3)
H3 H 0.2218 0.0370 0.6596
H4 H 0.2813 0.1227 0.6425
H5 H 0.1757 0.1107 0.6033
C2 C 0.1726(2) 0.1385(2) 0.7286(2)
C3 C 0.1904(2) 0.2217(2) 0.7621(3)
C4 C 0.1336(3) 0.2265(2) 0.8335(3)
C5 C 0.1227(5) 0.2945(4) 0.8991(4)
H6 H 0.0540 0.3032 0.9111
H7 H 0.1511 0.3478 0.8789
H8 H 0.1561 0.2766 0.9501
C6 C 0.3803(4) 0.3003(4) 0.8561(3)
H9 H 0.4511 0.3029 0.8539
H10 H 0.3601 0.2424 0.8709
H11 H 0.3566 0.3404 0.8982
C7 C 0.3395(3) 0.3235(2) 0.7725(2)
C8 C 0.2575(3) 0.2888(2) 0.7302(2)
C9 C 0.2533(3) 0.3300(3) 0.6544(3)
C10 C 0.1808(4) 0.3245(4) 0.5839(3)
H12 H 0.2072 0.2890 0.5391
H13 H 0.1676 0.3817 0.5624
H14 H 0.1206 0.2991 0.6045
F1D F 0.02551(14) 0.01322(13) 1.10433(15)
F2D F 0.0113(2) -0.10664(12) 1.01158(13)
F3D F -0.11920(16) -0.00636(15) 1.02417(14)
N1A N -0.1087(2) 0.09683(19) 0.7240(2)
N2A N -0.0852(2) 0.15123(19) 0.6607(2)
H1A H -0.0437 0.1391 0.6210
N3A N -0.3805(2) 0.3843(2) 0.77546(19)
N4A N -0.3265(2) 0.3875(2) 0.8468(2)
H2A H -0.3377 0.4226 0.8884
C1A C -0.2167(3) 0.0987(3) 0.8483(3)
H3A H -0.2218 0.0370 0.8404
H4A H -0.2813 0.1227 0.8575
H5A H -0.1757 0.1107 0.8967
C2A C -0.1726(2) 0.1385(2) 0.7714(2)
C3A C -0.1904(2) 0.2217(2) 0.7379(3)
C4A C -0.1336(3) 0.2265(2) 0.6665(3)
C5A C -0.1227(5) 0.2945(4) 0.6009(4)
H6A H -0.0540 0.3032 0.5889
H7A H -0.1511 0.3478 0.6211
H8A H -0.1561 0.2766 0.5499
C6A C -0.3803(4) 0.3003(4) 0.6439(3)
H9A H -0.4511 0.3029 0.6461
H10A H -0.3601 0.2424 0.6291
H11A H -0.3566 0.3404 0.6018
C7A C -0.3395(3) 0.3235(2) 0.7275(2)
C8A C -0.2575(3) 0.2888(2) 0.7698(2)
C9A C -0.2533(3) 0.3300(3) 0.8456(3)
C10A C -0.1808(4) 0.3245(4) 0.9161(3)
H12A H -0.2072 0.2890 0.9609
H13A H -0.1676 0.3817 0.9376
H14A H -0.1206 0.2991 0.8955
Cd1B Cd -0.5000 0.483948(16) 0.7500
Cd1B_2 Cd 0.5000 0.483948(16) 0.7500
Cd1D Cd 0.0000 0.016052(16) 1.2500
F1A F 0.02551(14) -0.01322(13) 0.60433(15)
N3B N -0.1195(2) -0.1157(2) 0.72454(19)
N3C N 0.1195(2) -0.1157(2) 0.77546(19)
O1 O -0.0301(10) 0.5253(8) 0.5974(10)
O2 O 0.1596(9) 0.5563(9) 0.6139(8)
O3? O 0.0370(17) 0.5160(14) 0.528(2)
O4? O 0.1694(18) 0.5324(14) 0.5176(17)
O5? O 0.4835(15) 0.1418(10) 0.7207(10)
O6? O -0.0517(10) 0.4647(10) 0.7624(18)
loop_
_geom_bond_atom_site_label_1
_geom_bond_atom_site_label_2
_geom_bond_site_symmetry_1
_geom_bond_site_symmetry_2
Cd1 F1 1_555 1_555
Si1 F1 1_555 1_555
F2 Si1 1_555 1_555
F3 Si1 1_555 1_555
N1 Cd1 1_555 1_555
N2 N1 1_555 1_555
H1 N2 1_555 1_555
N3 N4 1_555 1_555
N4 H2 1_555 1_555
C1 H3 1_555 1_555
H4 C1 1_555 1_555
H5 C1 1_555 1_555
C2 N1 1_555 1_555
C3 C2 1_555 1_555
C4 N2 1_555 1_555
C5 C4 1_555 1_555
H6 C5 1_555 1_555
H7 C5 1_555 1_555
H8 C5 1_555 1_555
C6 H9 1_555 1_555
H10 C6 1_555 1_555
H11 C6 1_555 1_555
C7 N3 1_555 1_555
C8 C3 1_555 1_555
C9 N4 1_555 1_555
C10 C9 1_555 1_555
H12 C10 1_555 1_555
H13 C10 1_555 1_555
H14 C10 1_555 1_555
F1D Si1 1_555 1_555
F2D Si1 1_555 1_555
F3D Si1 1_555 1_555
N1A Cd1 1_555 1_555
N2A N1A 1_555 1_555
H1A N2A 1_555 1_555
N3A N4A 1_555 1_555
N4A H2A 1_555 1_555
C1A H3A 1_555 1_555
H4A C1A 1_555 1_555
H5A C1A 1_555 1_555
C2A N1A 1_555 1_555
C3A C2A 1_555 1_555
C4A N2A 1_555 1_555
C5A C4A 1_555 1_555
H6A C5A 1_555 1_555
H7A C5A 1_555 1_555
H8A C5A 1_555 1_555
C6A H9A 1_555 1_555
H10A C6A 1_555 1_555
H11A C6A 1_555 1_555
C7A N3A 1_555 1_555
C8A C3A 1_555 1_555
C9A N4A 1_555 1_555
C10A C9A 1_555 1_555
H12A C10A 1_555 1_555
H13A C10A 1_555 1_555
H14A C10A 1_555 1_555
Cd1B N3A 1_555 1_555
Cd1B_2 N3 1_555 1_555
Cd1D F1D 1_555 1_555
F1A Cd1 1_555 1_555
N3B Cd1 1_555 1_555
N3C Cd1 1_555 1_555
C1 C2 1_555 1_555
C3 C4 1_555 1_555
C6 C7 1_555 1_555
C7 C8 1_555 1_555
C8 C9 1_555 1_555
C1A C2A 1_555 1_555
C3A C4A 1_555 1_555
C6A C7A 1_555 1_555
C7A C8A 1_555 1_555
C8A C9A 1_555 1_555

#END
