
#######################################################################
#
#                 Cambridge Crystallographic Data Centre
#                                CCDC 
#
#######################################################################
#
# If this CIF has been generated from an entry in the Cambridge 
# Structural Database, then it will include bibliographic, chemical, 
# crystal, experimental, refinement or atomic coordinate data resulting 
# from the CCDC's data processing and validation procedures.
#
#######################################################################

data_KIKFER
_symmetry_cell_setting           orthorhombic
_symmetry_space_group_name_H-M   'P n m a'
_symmetry_Int_Tables_number      62
_space_group_name_Hall           '-P 2ac 2n'
loop_
_symmetry_equiv_pos_site_id
_symmetry_equiv_pos_as_xyz
1 x,y,z
2 1/2-x,-y,1/2+z
3 1/2+x,1/2-y,1/2-z
4 -x,1/2+y,-z
5 -x,-y,-z
6 1/2+x,y,1/2-z
7 1/2-x,1/2+y,1/2+z
8 x,1/2-y,z
_cell_length_a                   18.4701(16)
_cell_length_b                   44.767(5)
_cell_length_c                   7.2462(8)
_cell_angle_alpha                90
_cell_angle_beta                 90
_cell_angle_gamma                90
_cell_volume                     5991.53
loop_
_atom_site_label
_atom_site_type_symbol
_atom_site_fract_x
_atom_site_fract_y
_atom_site_fract_z
Cd1 Cd 0.11754(6) 0.2500 0.43358(17)
Cd2 Cd 0.69107(6) -0.2500 0.22588(17)
O1 O 0.1095(4) 0.19591(15) 0.4658(10)
O2 O 0.2036(4) 0.21517(16) 0.3206(11)
O3 O 0.6024(4) -0.21285(16) 0.1419(13)
O4 O 0.0141(5) 0.2500 0.6031(16)
O5 O 0.7098(4) -0.19739(16) 0.2249(12)
O6 O 0.0582(6) 0.2500 0.1527(17)
O7 O 0.1801(5) 0.2500 0.7120(16)
O8 O 0.7278(6) -0.2500 -0.0714(14)
C1 C 0.2999(6) 0.0772(2) 0.3355(17)
C2 C 0.3587(6) -0.0547(2) 0.3229(17)
H1 H 0.3862 -0.0715 0.2956
C3 C 0.5285(6) -0.1246(2) 0.0960(16)
H2 H 0.4848 -0.1202 0.0388
C4 C 0.5721(6) 0.0105(2) 0.2199(17)
H3 H 0.6019 -0.0059 0.1999
C5 C 0.2632(6) 0.1055(2) 0.3418(16)
C6 C 0.3470(6) -0.0001(2) 0.3381(16)
C7 C 0.5073(6) -0.0488(2) 0.2291(17)
C8 C 0.5525(6) -0.1537(2) 0.0952(16)
H4 H 0.5241 -0.1687 0.0432
C9 C 0.6186(6) -0.1606(2) 0.1717(16)
C10 C 0.1677(6) 0.1932(2) 0.3878(15)
C11 C 0.6459(6) -0.1921(2) 0.1797(17)
C12 C 0.2465(6) -0.0325(3) 0.4137(17)
H5 H 0.1990 -0.0348 0.4536
C13 C 0.1711(5) 0.1386(2) 0.4583(16)
H6 H 0.1303 0.1417 0.5311
C14 C 0.3911(6) -0.0260(2) 0.3080(16)
C15 C 0.2003(5) 0.1099(2) 0.4447(15)
H7 H 0.1780 0.0940 0.5038
C16 C 0.2019(6) 0.1627(2) 0.3647(16)
C17 C 0.5676(6) -0.1015(2) 0.1797(16)
C18 C 0.4531(6) 0.0317(2) 0.2813(15)
C19 C 0.3772(6) 0.0284(2) 0.3219(18)
C20 C 0.2650(6) 0.1580(2) 0.2624(17)
H8 H 0.2875 0.1740 0.2042
C21 C 0.2946(6) 0.1296(2) 0.2467(16)
H9 H 0.3352 0.1265 0.1732
C22 C 0.6596(6) -0.1378(2) 0.2526(15)
H10 H 0.7040 -0.1424 0.3058
C23 C 0.2743(6) -0.0043(3) 0.3927(17)
H11 H 0.2450 0.0122 0.4146
C24 C 0.4859(6) 0.0604(2) 0.2713(17)
H12 H 0.4575 0.0775 0.2829
C25 C 0.3336(6) 0.0545(3) 0.3370(18)
C26 C 0.4971(6) 0.0057(2) 0.2534(15)
C27 C 0.5373(6) -0.0721(2) 0.1999(16)
C28 C 0.6006(6) 0.0374(2) 0.2165(17)
H13 H 0.6500 0.0396 0.1947
C29 C 0.4662(6) -0.0227(2) 0.2632(16)
C30 C 0.5579(6) 0.0631(3) 0.2451(18)
H14 H 0.5793 0.0819 0.2460
C31 C 0.6354(6) -0.1093(2) 0.2545(16)
H15 H 0.6642 -0.0945 0.3064
C32 C 0.2892(7) -0.0582(3) 0.3755(19)
H16 H 0.2694 -0.0772 0.3866
O9 O 0.6631(11) -0.2500 0.518(3)
O1G O 0.1095(4) 0.30409(15) 0.4658(10)
O2G O 0.2036(4) 0.28483(16) 0.3206(11)
O3G O 0.6024(4) 0.71285(16) 0.1419(13)
O5G O 0.7098(4) 0.69739(16) 0.2249(12)
C1G C 0.2999(6) 0.4228(2) 0.3355(17)
C2G C 0.3587(6) 0.5547(2) 0.3229(17)
H1G H 0.3862 0.5715 0.2956
C3G C 0.5285(6) 0.6246(2) 0.0960(16)
H2G H 0.4848 0.6202 0.0388
C4G C 0.5721(6) 0.4895(2) 0.2199(17)
H3G H 0.6019 0.5059 0.1999
C5G C 0.2632(6) 0.3945(2) 0.3418(16)
C6G C 0.3470(6) 0.5001(2) 0.3381(16)
C7G C 0.5073(6) 0.5488(2) 0.2291(17)
C8G C 0.5525(6) 0.6537(2) 0.0952(16)
H4G H 0.5241 0.6687 0.0432
C9G C 0.6186(6) 0.6606(2) 0.1717(16)
C10G C 0.1677(6) 0.3068(2) 0.3878(15)
C11G C 0.6459(6) 0.6921(2) 0.1797(17)
C12G C 0.2465(6) 0.5325(3) 0.4137(17)
H5G H 0.1990 0.5348 0.4536
C13G C 0.1711(5) 0.3614(2) 0.4583(16)
H6G H 0.1303 0.3583 0.5311
C14G C 0.3911(6) 0.5260(2) 0.3080(16)
C15G C 0.2003(5) 0.3901(2) 0.4447(15)
H7G H 0.1780 0.4060 0.5038
C16G C 0.2019(6) 0.3373(2) 0.3647(16)
C17G C 0.5676(6) 0.6015(2) 0.1797(16)
C18G C 0.4531(6) 0.4683(2) 0.2813(15)
C19G C 0.3772(6) 0.4716(2) 0.3219(18)
C20G C 0.2650(6) 0.3420(2) 0.2624(17)
H8G H 0.2875 0.3260 0.2042
C21G C 0.2946(6) 0.3704(2) 0.2467(16)
H9G H 0.3352 0.3735 0.1732
C22G C 0.6596(6) 0.6378(2) 0.2526(15)
H10G H 0.7040 0.6424 0.3058
C23G C 0.2743(6) 0.5043(3) 0.3927(17)
H11G H 0.2450 0.4878 0.4146
C24G C 0.4859(6) 0.4396(2) 0.2713(17)
H12G H 0.4575 0.4225 0.2829
C25G C 0.3336(6) 0.4455(3) 0.3370(18)
C26G C 0.4971(6) 0.4943(2) 0.2534(15)
C27G C 0.5373(6) 0.5721(2) 0.1999(16)
C28G C 0.6006(6) 0.4626(2) 0.2165(17)
H13G H 0.6500 0.4604 0.1947
C29G C 0.4662(6) 0.5227(2) 0.2632(16)
C30G C 0.5579(6) 0.4369(3) 0.2451(18)
H14G H 0.5793 0.4181 0.2460
C31G C 0.6354(6) 0.6093(2) 0.2545(16)
H15G H 0.6642 0.5945 0.3064
C32G C 0.2892(7) 0.5582(3) 0.3755(19)
H16G H 0.2694 0.5772 0.3866
Cd2_2 Cd 0.69107(6) 0.7500 0.22588(17)
Cd2C Cd 0.30893(6) 0.2500 0.77412(17)
O3G_2 O 0.6024(4) -0.28715(16) 0.1419(13)
O5G_2 O 0.7098(4) -0.30261(16) 0.2249(12)
O7C O 0.8199(5) -0.2500 0.2880(16)
O10 O 0.1121(5) 0.20900(19) -0.0834(12)
N1 N 0.0870(7) 0.1603(2) -0.0273(18)
C33 C 0.1264(7) 0.1819(3) -0.0958(18)
C34 C 0.0211(9) 0.1670(3) 0.061(2)
H17 H 0.0126 0.1881 0.0556
H18 H 0.0235 0.1608 0.1877
H19 H -0.0177 0.1566 0.0003
C35 C 0.1111(9) 0.1294(3) -0.036(2)
H20 H 0.1565 0.1284 -0.0997
H21 H 0.0758 0.1177 -0.1003
H22 H 0.1169 0.1218 0.0872
O11 O 0.5907(15) -0.2214(4) 0.708(4)
loop_
_geom_bond_atom_site_label_1
_geom_bond_atom_site_label_2
_geom_bond_site_symmetry_1
_geom_bond_site_symmetry_2
Cd1 O1 1_555 1_555
Cd2 O3 1_555 1_555
O1 C10 1_555 1_555
O2 Cd1 1_555 1_555
O3 C11 1_555 1_555
O4 Cd1 1_555 1_555
O5 Cd2 1_555 1_555
O6 Cd1 1_555 1_555
O7 Cd1 1_555 1_555
O8 Cd2 1_555 1_555
C1 C5 1_555 1_555
C2 H1 1_555 1_555
C3 H2 1_555 1_555
C4 H3 1_555 1_555
C5 C15 1_555 1_555
C6 C14 1_555 1_555
C7 C27 1_555 1_555
C8 C3 1_555 1_555
H4 C8 1_555 1_555
C9 C8 1_555 1_555
C10 O2 1_555 1_555
C11 O5 1_555 1_555
C12 H5 1_555 1_555
C13 H6 1_555 1_555
C14 C2 1_555 1_555
C15 C13 1_555 1_555
H7 C15 1_555 1_555
C16 C10 1_555 1_555
C17 C3 1_555 1_555
C18 C19 1_555 1_555
C19 C6 1_555 1_555
C20 C16 1_555 1_555
H8 C20 1_555 1_555
C21 C5 1_555 1_555
H9 C21 1_555 1_555
C22 C9 1_555 1_555
H10 C22 1_555 1_555
C23 C6 1_555 1_555
H11 C23 1_555 1_555
C24 C18 1_555 1_555
H12 C24 1_555 1_555
C25 C1 1_555 1_555
C26 C4 1_555 1_555
C27 C17 1_555 1_555
C28 C4 1_555 1_555
H13 C28 1_555 1_555
C29 C7 1_555 1_555
C30 C24 1_555 1_555
H14 C30 1_555 1_555
C31 C17 1_555 1_555
H15 C31 1_555 1_555
C32 C2 1_555 1_555
H16 C32 1_555 1_555
O9 Cd2 1_555 1_555
O10 C33 1_555 1_555
N1 C33 1_555 1_555
C34 N1 1_555 1_555
H17 C34 1_555 1_555
H18 C34 1_555 1_555
H19 C34 1_555 1_555
C35 N1 1_555 1_555
H20 C35 1_555 1_555
H21 C35 1_555 1_555
H22 C35 1_555 1_555
O1G Cd1 1_555 1_555
O2G Cd1 1_555 1_555
O3G C11G 1_555 1_555
O5G C11G 1_555 1_555
C1G C5G 1_555 1_555
C2G H1G 1_555 1_555
C3G H2G 1_555 1_555
C4G H3G 1_555 1_555
C5G C15G 1_555 1_555
C6G C14G 1_555 1_555
C7G C27G 1_555 1_555
C8G C3G 1_555 1_555
H4G C8G 1_555 1_555
C9G C8G 1_555 1_555
C10G O1G 1_555 1_555
C11G C9G 1_555 1_555
C12G H5G 1_555 1_555
C13G H6G 1_555 1_555
C14G C2G 1_555 1_555
C15G C13G 1_555 1_555
H7G C15G 1_555 1_555
C16G C10G 1_555 1_555
C17G C3G 1_555 1_555
C18G C19G 1_555 1_555
C19G C6G 1_555 1_555
C20G C16G 1_555 1_555
H8G C20G 1_555 1_555
C21G C5G 1_555 1_555
H9G C21G 1_555 1_555
C22G C9G 1_555 1_555
H10G C22G 1_555 1_555
C23G C6G 1_555 1_555
H11G C23G 1_555 1_555
C24G C18G 1_555 1_555
H12G C24G 1_555 1_555
C25G C1G 1_555 1_555
C26G C4G 1_555 1_555
C27G C17G 1_555 1_555
C28G C4G 1_555 1_555
H13G C28G 1_555 1_555
C29G C7G 1_555 1_555
C30G C24G 1_555 1_555
H14G C30G 1_555 1_555
C31G C17G 1_555 1_555
H15G C31G 1_555 1_555
C32G C2G 1_555 1_555
H16G C32G 1_555 1_555
Cd2_2 O3G 1_555 1_555
Cd2C O7 1_555 1_555
O3G_2 Cd2 1_555 1_555
O5G_2 Cd2 1_555 1_555
O7C Cd2 1_555 1_555
C9 C11 1_555 1_555
C12 C23 1_555 1_555
C12 C32 1_555 1_555
C13 C16 1_555 1_555
C14 C29 1_555 1_555
C18 C26 1_555 1_555
C19 C25 1_555 1_555
C20 C21 1_555 1_555
C22 C31 1_555 1_555
C26 C29 1_555 1_555
C28 C30 1_555 1_555
O2G C10G 1_555 1_555
O5G Cd2_2 1_555 1_555
C12G C23G 1_555 1_555
C12G C32G 1_555 1_555
C13G C16G 1_555 1_555
C14G C29G 1_555 1_555
C18G C26G 1_555 1_555
C19G C25G 1_555 1_555
C20G C21G 1_555 1_555
C22G C31G 1_555 1_555
C26G C29G 1_555 1_555
C28G C30G 1_555 1_555

#END
