
#######################################################################
#
#                 Cambridge Crystallographic Data Centre
#                                CCDC 
#
#######################################################################
#
# If this CIF has been generated from an entry in the Cambridge 
# Structural Database, then it will include bibliographic, chemical, 
# crystal, experimental, refinement or atomic coordinate data resulting 
# from the CCDC's data processing and validation procedures.
#
#######################################################################

data_KILCOX
_symmetry_cell_setting           monoclinic
_symmetry_space_group_name_H-M   'P 21/c'
_symmetry_Int_Tables_number      14
_space_group_name_Hall           '-P 2ybc'
loop_
_symmetry_equiv_pos_site_id
_symmetry_equiv_pos_as_xyz
1 x,y,z
2 -x,1/2+y,1/2-z
3 -x,-y,-z
4 x,1/2-y,1/2+z
_cell_length_a                   9.743(2)
_cell_length_b                   12.289(3)
_cell_length_c                   24.618(4)
_cell_angle_alpha                90
_cell_angle_beta                 90.51(2)
_cell_angle_gamma                90
_cell_volume                     2947.44
loop_
_atom_site_label
_atom_site_type_symbol
_atom_site_fract_x
_atom_site_fract_y
_atom_site_fract_z
Hg1 Hg 0.45051(12) 0.14634(10) 0.02336(4)
Hg2 Hg 0.55917(13) 0.42335(11) 0.06474(4)
S1 S 0.3623(9) 0.3756(7) 0.1144(4)
S2 S 0.5349(8) 0.1733(7) 0.1138(3)
S3 S 0.3109(7) -0.0639(6) 0.0204(3)
S4 S 0.2982(8) 0.1276(6) -0.0538(3)
S5 S 0.7724(7) 0.4371(7) 0.0203(3)
S6 S 0.5387(7) 0.3584(6) -0.0486(3)
N1 N 0.3573(23) 0.2282(18) 0.1904(9)
N2 N 0.1699(24) -0.0588(19) -0.0726(9)
N3 N 0.7966(29) 0.3737(23) -0.0804(11)
C1 C 0.4176(25) 0.2516(21) 0.1441(10)
C2 C 0.3877(31) 0.1224(20) 0.2170(11)
C3 C 0.4676(31) 0.1446(28) 0.2700(11)
C4 C 0.3871(37) 0.2243(26) 0.3057(13)
C5 C 0.3512(35) 0.3298(27) 0.2753(12)
C6 C 0.2692(28) 0.3012(25) 0.2233(11)
C7 C 0.2484(26) -0.0012(22) -0.0388(10)
C8 C 0.1282(26) -0.0120(26) -0.1256(10)
C9 C -0.0292(26) -0.0119(25) -0.1272(14)
C10 C -0.0828(33) -0.1276(25) -0.1154(11)
C11 C -0.0308(24) -0.1722(26) -0.0607(11)
C12 C 0.1266(24) -0.1720(20) -0.0620(12)
C13 C 0.7112(28) 0.3883(23) -0.0396(11)
C14 C 0.9348(32) 0.4245(32) -0.0776(19)
C15 C 1.0366(39) 0.3436(32) -0.1020(14)
C16 C 0.9930(41) 0.3218(36) -0.1611(14)
C17 C 0.8487(39) 0.2702(36) -0.1609(21)
C18 C 0.7467(39) 0.3507(34) -0.1364(12)
H1 H 0.2929 0.0807 0.2258
H2 H 0.4490 0.0727 0.1903
H3 H 0.5665 0.1791 0.2605
H4 H 0.4818 0.0690 0.2917
H5 H 0.4491 0.2445 0.3409
H6 H 0.2933 0.1857 0.3187
H7 H 0.2898 0.3813 0.3010
H8 H 0.4430 0.3720 0.2645
H9 H 0.2455 0.3743 0.2008
H10 H 0.1751 0.2601 0.2337
H11 H 0.1668 0.0700 -0.1295
H12 H 0.1673 -0.0614 -0.1583
H13 H -0.0670 0.0435 -0.0967
H14 H -0.0647 0.0140 -0.1668
H15 H -0.0489 -0.1812 -0.1473
H16 H -0.1936 -0.1256 -0.1150
H17 H -0.0680 -0.2541 -0.0548
H18 H -0.0662 -0.1210 -0.0280
H19 H 0.1623 -0.2249 -0.0939
H20 H 0.1676 -0.1993 -0.0234
H21 H 0.9623 0.4423 -0.0360
H22 H 0.9351 0.4988 -0.1010
H23 H 1.0345 0.2686 -0.0792
H24 H 1.1391 0.3771 -0.1007
H25 H 1.0649 0.2669 -0.1800
H26 H 0.9902 0.3975 -0.1834
H27 H 0.8177 0.2504 -0.2020
H28 H 0.8506 0.1970 -0.1366
H29 H 0.7451 0.4249 -0.1600
H30 H 0.6448 0.3161 -0.1356
S6B S 0.4613(7) 0.6416(6) 0.0486(3)
Hg2B Hg 0.44083(13) 0.57665(11) -0.06474(4)
S3B S 0.6891(7) 0.0639(6) -0.0204(3)
Hg1B Hg 0.54949(12) -0.14634(10) -0.02336(4)
Cl1 Cl 0.1828(13) -0.3822(11) -0.2000(5)
O1 O 0.2440(39) -0.4418(33) -0.1574(16)
O2 O 0.1232(47) -0.4459(40) -0.2359(19)
O3 O 0.1467(55) -0.2759(49) -0.1997(20)
O4 O 0.3007(55) -0.3538(43) -0.2235(19)
loop_
_geom_bond_atom_site_label_1
_geom_bond_atom_site_label_2
_geom_bond_site_symmetry_1
_geom_bond_site_symmetry_2
Hg1 S2 1_555 1_555
Hg2 S1 1_555 1_555
S1 C1 1_555 1_555
S2 C1 1_555 1_555
S3 Hg1 1_555 1_555
S4 Hg1 1_555 1_555
S5 Hg2 1_555 1_555
S6 Hg2 1_555 1_555
N1 C1 1_555 1_555
N2 C7 1_555 1_555
N3 C13 1_555 1_555
C2 N1 1_555 1_555
C3 C2 1_555 1_555
C4 C3 1_555 1_555
C5 C4 1_555 1_555
C6 N1 1_555 1_555
C7 S3 1_555 1_555
C8 N2 1_555 1_555
C9 C8 1_555 1_555
C10 C9 1_555 1_555
C11 C10 1_555 1_555
C12 N2 1_555 1_555
C13 S5 1_555 1_555
C14 N3 1_555 1_555
C15 C14 1_555 1_555
C16 C15 1_555 1_555
C17 C16 1_555 1_555
C18 N3 1_555 1_555
Cl1 O1 1_555 1_555
O2 Cl1 1_555 1_555
O3 Cl1 1_555 1_555
O4 Cl1 1_555 1_555
H1 C2 1_555 1_555
H2 C2 1_555 1_555
H3 C3 1_555 1_555
H4 C3 1_555 1_555
H5 C4 1_555 1_555
H6 C4 1_555 1_555
H7 C5 1_555 1_555
H8 C5 1_555 1_555
H9 C6 1_555 1_555
H10 C6 1_555 1_555
H11 C8 1_555 1_555
H12 C8 1_555 1_555
H13 C9 1_555 1_555
H14 C9 1_555 1_555
H15 C10 1_555 1_555
H16 C10 1_555 1_555
H17 C11 1_555 1_555
H18 C11 1_555 1_555
H19 C12 1_555 1_555
H20 C12 1_555 1_555
H21 C14 1_555 1_555
H22 C14 1_555 1_555
H23 C15 1_555 1_555
H24 C15 1_555 1_555
H25 C16 1_555 1_555
H26 C16 1_555 1_555
H27 C17 1_555 1_555
H28 C17 1_555 1_555
H29 C18 1_555 1_555
H30 C18 1_555 1_555
S6B Hg2 1_555 1_555
Hg2B S6 1_555 1_555
S3B Hg1 1_555 1_555
Hg1B S3 1_555 1_555
S4 C7 1_555 1_555
S6 C13 1_555 1_555
C5 C6 1_555 1_555
C11 C12 1_555 1_555
C17 C18 1_555 1_555
S6B Hg2B 1_555 1_555
S3B Hg1B 1_555 1_555

#END
