
#######################################################################
#
#                 Cambridge Crystallographic Data Centre
#                                CCDC 
#
#######################################################################
#
# If this CIF has been generated from an entry in the Cambridge 
# Structural Database, then it will include bibliographic, chemical, 
# crystal, experimental, refinement or atomic coordinate data resulting 
# from the CCDC's data processing and validation procedures.
#
#######################################################################

data_KILJAR
_symmetry_cell_setting           orthorhombic
_symmetry_space_group_name_H-M   'P n m a'
_symmetry_Int_Tables_number      62
_space_group_name_Hall           '-P 2ac 2n'
loop_
_symmetry_equiv_pos_site_id
_symmetry_equiv_pos_as_xyz
1 x,y,z
2 1/2-x,-y,1/2+z
3 -x,1/2+y,-z
4 1/2+x,1/2-y,1/2-z
5 -x,-y,-z
6 1/2+x,y,1/2-z
7 x,1/2-y,z
8 1/2-x,1/2+y,1/2+z
_cell_length_a                   21.744(4)
_cell_length_b                   5.6744(10)
_cell_length_c                   4.7927(9)
_cell_angle_alpha                90
_cell_angle_beta                 90
_cell_angle_gamma                90
_cell_volume                     591.343
loop_
_atom_site_label
_atom_site_type_symbol
_atom_site_fract_x
_atom_site_fract_y
_atom_site_fract_z
C1 C 0.4668(6) -0.081(2) 1.232(3)
H1 H 0.4835 -0.0412 1.4159
C2 C 0.4533(7) 0.141(2) 1.113(3)
C3 C 0.5122(5) -0.2500 1.119(2)
O1 O 0.1650(3) 0.2500 0.2859(15)
H2 H 0.1694 0.1422 0.1737
Co1 Co 0.24054(6) 0.2500 0.5742(2)
P1 P 0.32562(11) 0.2500 1.1373(5)
O2 O 0.3194(3) 0.2500 0.8230(15)
O3 O 0.2948(2) 0.0354(8) 1.2786(10)
C4 C 0.4040(5) 0.2500 1.232(3)
H3 H 0.4081 0.2500 1.4354
C1F C 0.4668(6) -0.419(2) 1.232(3)
C1F_2 C 0.4668(6) 0.581(2) 1.232(3)
C1_2 C 0.4668(6) 0.919(2) 1.232(3)
C1D C 0.5332(6) 0.081(2) 0.768(3)
C1B C 0.5332(6) 0.419(2) 0.768(3)
C1B_2 C 0.5332(6) -0.581(2) 0.768(3)
C1D_2 C 0.5332(6) 1.081(2) 0.768(3)
H1F H 0.4835 0.5412 1.4159
H1F_2 H 0.4835 -0.4588 1.4159
H1_2 H 0.4835 0.9588 1.4159
H1D H 0.5165 0.0412 0.5841
H1B H 0.5165 0.4588 0.5841
H1B_2 H 0.5165 -0.5412 0.5841
H1D_2 H 0.5165 1.0412 0.5841
C2F C 0.4533(7) 0.359(2) 1.113(3)
C2D C 0.5467(7) -0.141(2) 0.887(3)
C2B C 0.5467(7) -0.359(2) 0.887(3)
C2B_2 C 0.5467(7) 0.641(2) 0.887(3)
C2D_2 C 0.5467(7) 0.859(2) 0.887(3)
C2F_2 C 0.4533(7) -0.641(2) 1.113(3)
C2_2 C 0.4533(7) 1.141(2) 1.113(3)
C3D C 0.4878(5) 0.2500 0.881(2)
C3_2 C 0.5122(5) 0.7500 1.119(2)
O1_2 O 0.1650(3) 0.2500 1.2859(15)
O1G O 0.3350(3) -0.2500 0.7859(15)
H2F H 0.1694 0.3578 0.1737
H2_2 H 0.1694 0.1422 1.1737
H2F_2 H 0.1694 0.3578 1.1737
H2G H 0.3306 -0.3578 0.6737
H2A H 0.3306 -0.1422 0.6737
Co1_2 Co 0.24054(6) 0.2500 1.5742(2)
Co1G Co 0.25946(6) -0.2500 1.0742(2)
Co1G_2 Co 0.25946(6) 0.7500 1.0742(2)
O2_2 O 0.3194(3) 0.2500 1.8230(15)
O2G O 0.1806(3) -0.2500 1.3230(15)
O3F O 0.2948(2) 0.4646(8) 1.2786(10)
O3_2 O 0.2948(2) 0.0354(8) 0.2786(10)
O3F_2 O 0.2948(2) 0.4646(8) 0.2786(10)
O3G O 0.2052(2) 0.5354(8) 0.7786(10)
O3A O 0.2052(2) -0.0354(8) 0.7786(10)
O3G_2 O 0.2052(2) 0.5354(8) 1.7786(10)
O3A_2 O 0.2052(2) -0.0354(8) 1.7786(10)
O3F_3 O 0.2948(2) -0.5354(8) 1.2786(10)
O3G_3 O 0.2052(2) -0.4646(8) 0.7786(10)
C4D C 0.5960(5) -0.2500 0.768(3)
C4D_2 C 0.5960(5) 0.7500 0.768(3)
H3D H 0.5919 -0.2500 0.5646
H3D_2 H 0.5919 0.7500 0.5646
loop_
_geom_bond_atom_site_label_1
_geom_bond_atom_site_label_2
_geom_bond_site_symmetry_1
_geom_bond_site_symmetry_2
C1 H1 1_555 1_555
C2 C1 1_555 1_555
C3 C1 1_555 1_555
O1 H2 1_555 1_555
Co1 O1 1_555 1_555
P1 O2 1_555 1_555
O2 Co1 1_555 1_555
O3 P1 1_555 1_555
C4 C2 1_555 1_555
H3 C4 1_555 1_555
C1F C3 1_555 1_555
C1F_2 H1F 1_555 1_555
C1_2 H1_2 1_555 1_555
C1D H1D 1_555 1_555
C1B H1B 1_555 1_555
C1B_2 H1B_2 1_555 1_555
C1D_2 H1D_2 1_555 1_555
H1F_2 C1F 1_555 1_555
C2F C2 1_555 1_555
C2D C3 1_555 1_555
C2B C3 1_555 1_555
C2B_2 C1B 1_555 1_555
C2D_2 C1D_2 1_555 1_555
C2F_2 C1F 1_555 1_555
C2_2 C1_2 1_555 1_555
C3D C2 1_555 1_555
C3_2 C1F_2 1_555 1_555
O1_2 H2_2 1_555 1_555
O1G H2G 1_555 1_555
H2F O1 1_555 1_555
H2F_2 O1_2 1_555 1_555
H2A O1G 1_555 1_555
Co1_2 O3 1_555 1_555
Co1G O3 1_555 1_555
Co1G_2 O3F 1_555 1_555
O2_2 Co1_2 1_555 1_555
O2G Co1G 1_555 1_555
O3F P1 1_555 1_555
O3_2 Co1 1_555 1_555
O3F_2 Co1 1_555 1_555
O3G Co1 1_555 1_555
O3A Co1 1_555 1_555
O3G_2 Co1_2 1_555 1_555
O3A_2 Co1_2 1_555 1_555
O3F_3 Co1G 1_555 1_555
O3G_3 Co1G 1_555 1_555
C4D C2D 1_555 1_555
C4D_2 C2B_2 1_555 1_555
H3D C4D 1_555 1_555
H3D_2 C4D_2 1_555 1_555
P1 C4 1_555 1_555
C4 C2F 1_555 1_555
C1F_2 C2F 1_555 1_555
C1_2 C3_2 1_555 1_555
C1D C2D 1_555 1_555
C1D C3D 1_555 1_555
C1B C3D 1_555 1_555
C1B_2 C2B 1_555 1_555
C2F C3D 1_555 1_555
C2D C2B 1_555 1_555
C2B C4D 1_555 1_555
C2B_2 C2D_2 1_555 1_555
C2B_2 C3_2 1_555 1_555
C2D_2 C3_2 1_555 1_555
C2D_2 C4D_2 1_555 1_555
O1_2 Co1_2 1_555 1_555
O1G Co1G 1_555 1_555
Co1_2 O3F 1_555 1_555
Co1G O3A 1_555 1_555
Co1G_2 O3G 1_555 1_555

#END
