
#######################################################################
#
#                 Cambridge Crystallographic Data Centre
#                                CCDC 
#
#######################################################################
#
# If this CIF has been generated from an entry in the Cambridge 
# Structural Database, then it will include bibliographic, chemical, 
# crystal, experimental, refinement or atomic coordinate data resulting 
# from the CCDC's data processing and validation procedures.
#
#######################################################################

data_KIMWIO
_symmetry_cell_setting           monoclinic
_symmetry_space_group_name_H-M   'P 21/n'
_symmetry_Int_Tables_number      14
_space_group_name_Hall           '-P 2yn'
loop_
_symmetry_equiv_pos_site_id
_symmetry_equiv_pos_as_xyz
1 x,y,z
2 1/2-x,1/2+y,1/2-z
3 -x,-y,-z
4 1/2+x,1/2-y,1/2+z
_cell_length_a                   11.015(3)
_cell_length_b                   12.395(4)
_cell_length_c                   18.034(6)
_cell_angle_alpha                90
_cell_angle_beta                 90.529(8)
_cell_angle_gamma                90
_cell_volume                     2462.09
loop_
_atom_site_label
_atom_site_type_symbol
_atom_site_fract_x
_atom_site_fract_y
_atom_site_fract_z
Zn1 Zn 0.7272(2) 0.93023(17) 0.14663(12)
Br1 Br 0.92497(19) 0.97685(19) 0.18839(15)
Br2 Br 0.6683(2) 0.75008(16) 0.13866(12)
N1 N 0.6072(14) 1.0121(14) 0.2076(9)
C1 C 0.514(2) 0.9716(17) 0.2408(16)
H1 H 0.5019 0.8957 0.2386
C2 C 0.430(2) 1.0330(18) 0.2793(12)
H2 H 0.3581 1.0003 0.2979
C3 C 0.4509(19) 1.1433(17) 0.2906(11)
C4 C 0.5508(19) 1.1879(18) 0.2557(13)
H3 H 0.5666 1.2631 0.2584
C5 C 0.626(2) 1.120(2) 0.2170(14)
H4 H 0.6967 1.1510 0.1954
N2 N 0.2080(16) 1.4836(13) 0.5491(10)
C6 C 0.1124(19) 1.4244(17) 0.5326(12)
H5 H 0.0446 1.4275 0.5648
C7 C 0.105(2) 1.3582(16) 0.4716(11)
H6 H 0.0351 1.3144 0.4639
C8 C 0.1982(19) 1.3554(15) 0.4216(13)
C9 C 0.294(2) 1.4219(17) 0.4351(11)
H7 H 0.3568 1.4276 0.3999
C10 C 0.299(2) 1.4830(17) 0.5015(11)
H8 H 0.3701 1.5244 0.5121
F1 F 0.0659(18) 1.098(2) 0.4585(11)
F2 F 0.397(4) 1.393(5) 0.172(2)
C11 C 0.370(2) 1.2135(17) 0.3331(13)
H9 H 0.4205 1.2506 0.3717
C12 C 0.2577(19) 1.1698(16) 0.3712(12)
H10 H 0.2198 1.1138 0.3385
C13 C 0.1913(18) 1.2823(16) 0.3559(12)
H11 H 0.1069 1.2738 0.3358
C14 C 0.288(2) 1.3029(17) 0.2940(13)
H12 H 0.3249 1.3762 0.2989
C15 C 0.2663(19) 1.125(2) 0.4498(11)
C16 C 0.165(2) 1.0988(17) 0.4867(11)
C17 C 0.171(3) 1.058(2) 0.5608(17)
H13 H 0.0994 1.0331 0.5845
C18 C 0.276(3) 1.055(3) 0.5954(19)
H14 H 0.2787 1.0320 0.6455
C19 C 0.379(3) 1.085(3) 0.5620(16)
H15 H 0.4549 1.0799 0.5873
C20 C 0.373(3) 1.124(3) 0.4907(16)
H16 H 0.4451 1.1502 0.4685
C21 C 0.249(2) 1.2807(16) 0.2157(12)
C22 C 0.316(2) 1.327(2) 0.1583(16)
C23 C 0.283(3) 1.314(2) 0.0816(16)
H17 H 0.3267 1.3488 0.0436
C24 C 0.196(4) 1.256(3) 0.0669(14)
H18 H 0.1761 1.2444 0.0162
C25 C 0.124(3) 1.206(2) 0.1217(13)
H19 H 0.0572 1.1627 0.1072
C26 C 0.150(2) 1.2200(16) 0.1961(12)
H20 H 0.1009 1.1879 0.2328
Zn1C Zn 0.2272(2) 1.56977(17) 0.64663(12)
N2C N 0.7080(16) 1.0164(13) 0.0491(10)
loop_
_geom_bond_atom_site_label_1
_geom_bond_atom_site_label_2
_geom_bond_site_symmetry_1
_geom_bond_site_symmetry_2
Zn1 Br1 1_555 1_555
Br2 Zn1 1_555 1_555
N1 Zn1 1_555 1_555
C1 N1 1_555 1_555
H1 C1 1_555 1_555
C2 C1 1_555 1_555
H2 C2 1_555 1_555
C3 C2 1_555 1_555
C4 C3 1_555 1_555
H3 C4 1_555 1_555
C5 N1 1_555 1_555
H4 C5 1_555 1_555
N2 C6 1_555 1_555
C6 H5 1_555 1_555
C7 C6 1_555 1_555
H6 C7 1_555 1_555
C8 C7 1_555 1_555
C9 C8 1_555 1_555
H7 C9 1_555 1_555
C10 N2 1_555 1_555
H8 C10 1_555 1_555
F1 C16 1_555 1_555
F2 C22 1_555 1_555
C11 C3 1_555 1_555
H9 C11 1_555 1_555
C12 C11 1_555 1_555
H10 C12 1_555 1_555
C13 C8 1_555 1_555
H11 C13 1_555 1_555
C14 C11 1_555 1_555
H12 C14 1_555 1_555
C15 C12 1_555 1_555
C16 C15 1_555 1_555
C17 C16 1_555 1_555
H13 C17 1_555 1_555
C18 C17 1_555 1_555
H14 C18 1_555 1_555
C19 C18 1_555 1_555
H15 C19 1_555 1_555
C20 C15 1_555 1_555
H16 C20 1_555 1_555
C21 C14 1_555 1_555
C22 C21 1_555 1_555
C23 C22 1_555 1_555
H17 C23 1_555 1_555
C24 C23 1_555 1_555
H18 C24 1_555 1_555
C25 C24 1_555 1_555
H19 C25 1_555 1_555
C26 C21 1_555 1_555
H20 C26 1_555 1_555
Zn1C N2 1_555 1_555
N2C Zn1 1_555 1_555
C4 C5 1_555 1_555
C9 C10 1_555 1_555
C12 C13 1_555 1_555
C13 C14 1_555 1_555
C19 C20 1_555 1_555
C25 C26 1_555 1_555

#END
