
#######################################################################
#
#                 Cambridge Crystallographic Data Centre
#                                CCDC 
#
#######################################################################
#
# If this CIF has been generated from an entry in the Cambridge 
# Structural Database, then it will include bibliographic, chemical, 
# crystal, experimental, refinement or atomic coordinate data resulting 
# from the CCDC's data processing and validation procedures.
#
#######################################################################

data_KIMXUB
_symmetry_cell_setting           triclinic
_symmetry_space_group_name_H-M   'P -1'
_symmetry_Int_Tables_number      2
_space_group_name_Hall           '-P 1'
loop_
_symmetry_equiv_pos_site_id
_symmetry_equiv_pos_as_xyz
1 x,y,z
2 -x,-y,-z
_cell_length_a                   9.6467(5)
_cell_length_b                   11.4738(7)
_cell_length_c                   12.0802(7)
_cell_angle_alpha                71.2450(10)
_cell_angle_beta                 70.1560(10)
_cell_angle_gamma                74.9200(10)
_cell_volume                     1173.67
loop_
_atom_site_label
_atom_site_type_symbol
_atom_site_fract_x
_atom_site_fract_y
_atom_site_fract_z
C1 C 1.1594(4) 0.2306(3) 0.4706(3)
C2 C 1.3212(4) 0.1825(3) 0.4228(3)
C3 C 1.4326(4) 0.2107(3) 0.4540(3)
H1 H 1.4077 0.2644 0.5039
C4 C 1.5808(4) 0.1585(3) 0.4105(3)
C5 C 1.6169(4) 0.0787(3) 0.3354(3)
H2 H 1.7157 0.0422 0.3069
C6 C 1.5054(4) 0.0543(3) 0.3038(3)
C7 C 1.3582(4) 0.1048(3) 0.3454(3)
H3 H 1.2844 0.0875 0.3224
C8 C 1.6084(4) 0.0014(3) 0.1148(3)
C9 C 1.5860(4) 0.1243(3) 0.0457(4)
H4 H 1.5235 0.1862 0.0825
C10 C 1.6569(4) 0.1540(3) -0.0779(3)
H5 H 1.6412 0.2363 -0.1234
C11 C 1.7512(4) 0.0635(3) -0.1357(3)
C12 C 1.7725(4) -0.0596(3) -0.0674(3)
H6 H 1.8351 -0.1215 -0.1043
C13 C 1.7001(4) -0.0891(3) 0.0552(4)
C14 C 1.8290(4) 0.0998(3) -0.2703(3)
C15 C 1.7072(4) 0.1765(3) 0.4460(3)
C16 C 1.0172(4) 0.5073(4) 0.2725(4)
H7 H 1.0131 0.5644 0.3140
C17 C 0.9842(5) 0.3507(4) 0.2298(4)
H8 H 0.9516 0.2783 0.2374
C18 C 1.0727(5) 0.4149(4) 0.1264(4)
H9 H 1.1118 0.3952 0.0516
C19 C 1.1842(4) 0.6088(4) 0.0714(4)
H10 H 1.1725 0.6739 0.1104
H11 H 1.1498 0.6467 -0.0009
C20 C 1.3477(5) 0.5516(4) 0.0350(4)
C21 C 1.4259(5) 0.4922(4) 0.1205(4)
H12 H 1.3768 0.4865 0.2025
C22 C 1.4234(5) 0.5593(4) -0.0864(4)
H13 H 1.3731 0.5991 -0.1456
N1 N 1.7237(4) -0.2197(3) 0.1242(3)
N2 N 0.9500(3) 0.4086(3) 0.3218(3)
N3 N 1.0924(4) 0.5149(3) 0.1549(3)
O1 O 1.1166(3) 0.3262(2) 0.5118(2)
O2 O 1.0631(3) 0.1766(2) 0.4652(2)
O3 O 1.5409(3) -0.0349(2) 0.2364(2)
O4 O 1.6226(5) -0.2620(3) 0.2063(4)
O5 O 1.8461(4) -0.2823(3) 0.0913(3)
O6 O 1.8890(3) 0.0124(2) -0.3219(2)
O7 O 1.8245(3) 0.2154(2) -0.3174(2)
O8 O 1.6928(3) 0.2736(2) 0.4805(2)
O9 O 1.8205(3) 0.0939(2) 0.4365(2)
O10 O 0.7529(4) 0.4700(3) 0.5617(3)
Co1 Co 1.0000 0.0000 0.5000
Co2 Co 0.87567(5) 0.31618(4) 0.50625(5)
H14 H 0.665(7) 0.477(5) 0.579(5)
H15 H 0.773(5) 0.532(4) 0.535(4)
C16A C 1.9828(4) 0.4927(4) -0.2725(4)
H7A H 1.9869 0.4356 -0.3140
C17A C 2.0158(5) 0.6493(4) -0.2298(4)
H8A H 2.0484 0.7217 -0.2374
C18A C 1.9273(5) 0.5851(4) -0.1264(4)
H9A H 1.8882 0.6048 -0.0516
C19A C 1.8158(4) 0.3912(4) -0.0714(4)
H10A H 1.8275 0.3261 -0.1104
H11A H 1.8502 0.3533 0.0009
C20A C 1.6523(5) 0.4484(4) -0.0350(4)
C21A C 1.5741(5) 0.5078(4) -0.1205(4)
H12A H 1.6232 0.5135 -0.2025
C22A C 1.5766(5) 0.4407(4) 0.0864(4)
H13A H 1.6269 0.4009 0.1456
N2A N 2.0500(3) 0.5914(3) -0.3218(3)
N3A N 1.9076(4) 0.4851(3) -0.1549(3)
C1A C 0.8406(4) -0.2306(3) 0.5294(3)
C2A C 0.6788(4) -0.1825(3) 0.5772(3)
C3A C 0.5674(4) -0.2107(3) 0.5460(3)
H1A H 0.5923 -0.2644 0.4961
C4A C 0.4192(4) -0.1585(3) 0.5895(3)
C5A C 0.3831(4) -0.0787(3) 0.6646(3)
H2A H 0.2843 -0.0422 0.6931
C6A C 0.4946(4) -0.0543(3) 0.6962(3)
C7A C 0.6418(4) -0.1048(3) 0.6546(3)
H3A H 0.7156 -0.0875 0.6776
C8A C 0.3916(4) -0.0014(3) 0.8852(3)
C9A C 0.4140(4) -0.1243(3) 0.9543(4)
H4A H 0.4765 -0.1862 0.9175
C10A C 0.3431(4) -0.1540(3) 1.0779(3)
H5A H 0.3588 -0.2363 1.1234
C11A C 0.2488(4) -0.0635(3) 1.1357(3)
C12A C 0.2275(4) 0.0596(3) 1.0674(3)
H6A H 0.1649 0.1215 1.1043
C13A C 0.2999(4) 0.0891(3) 0.9448(4)
C14A C 0.1710(4) -0.0998(3) 1.2703(3)
C15A C 0.2928(4) -0.1765(3) 0.5540(3)
N1A N 0.2763(4) 0.2197(3) 0.8758(3)
O1A O 0.8834(3) -0.3262(2) 0.4882(2)
O2A O 0.9369(3) -0.1766(2) 0.5348(2)
O3A O 0.4591(3) 0.0349(2) 0.7636(2)
O4A O 0.3774(5) 0.2620(3) 0.7937(4)
O5A O 0.1539(4) 0.2823(3) 0.9087(3)
O6A O 0.1110(3) -0.0124(2) 1.3219(2)
O7A O 0.1755(3) -0.2154(2) 1.3174(2)
O8A O 0.3072(3) -0.2736(2) 0.5195(2)
O9A O 0.1795(3) -0.0939(2) 0.5635(2)
O10A O 1.2471(4) -0.4700(3) 0.4383(3)
Co2A Co 1.12433(5) -0.31618(4) 0.49375(5)
H14A H 1.335(7) -0.477(5) 0.421(5)
H15A H 1.227(5) -0.532(4) 0.465(4)
N2A_2 N 1.0500(3) -0.4086(3) 0.6782(3)
O6_2 O 0.8890(3) 0.0124(2) 0.6781(2)
O6A_2 O 1.1110(3) -0.0124(2) 0.3219(2)
O7_2 O 0.8245(3) 0.2154(2) 0.6826(2)
O7A_2 O 1.1755(3) -0.2154(2) 0.3174(2)
O8_2 O 0.6928(3) 0.2736(2) 0.4805(2)
O8A_2 O 1.3072(3) -0.2736(2) 0.5195(2)
O9_2 O 0.8205(3) 0.0939(2) 0.4365(2)
O9A_2 O 1.1795(3) -0.0939(2) 0.5635(2)
Co1_2 Co 0.0000 0.0000 0.5000
Co1_3 Co 0.0000 0.0000 1.5000
Co1_4 Co 2.0000 0.0000 -0.5000
Co1_5 Co 2.0000 0.0000 0.5000
Co2_2 Co 1.87567(5) 0.31618(4) -0.49375(5)
Co2_3 Co 1.87567(5) 0.31618(4) 0.50625(5)
Co2A_2 Co 0.12433(5) -0.31618(4) 0.49375(5)
Co2A_3 Co 0.12433(5) -0.31618(4) 1.49375(5)
Co2A_4 Co 2.12433(5) 0.68382(4) -0.50625(5)
O11 O 0.4555(4) 0.5070(3) 0.6472(3)
H16 H 0.405(6) 0.564(5) 0.600(5)
H17 H 0.412(6) 0.459(5) 0.679(5)
loop_
_geom_bond_atom_site_label_1
_geom_bond_atom_site_label_2
_geom_bond_site_symmetry_1
_geom_bond_site_symmetry_2
C1 C2 1_555 1_555
C2 C3 1_555 1_555
C3 H1 1_555 1_555
C4 C3 1_555 1_555
C5 C4 1_555 1_555
H2 C5 1_555 1_555
C6 C5 1_555 1_555
C7 C2 1_555 1_555
H3 C7 1_555 1_555
C8 C9 1_555 1_555
C9 H4 1_555 1_555
C10 C9 1_555 1_555
H5 C10 1_555 1_555
C11 C10 1_555 1_555
C12 C11 1_555 1_555
H6 C12 1_555 1_555
C13 C8 1_555 1_555
C14 C11 1_555 1_555
C15 C4 1_555 1_555
C16 H7 1_555 1_555
C17 H8 1_555 1_555
C18 C17 1_555 1_555
H9 C18 1_555 1_555
C19 H10 1_555 1_555
H11 C19 1_555 1_555
C20 C19 1_555 1_555
C21 C20 1_555 1_555
H12 C21 1_555 1_555
C22 C20 1_555 1_555
H13 C22 1_555 1_555
N1 C13 1_555 1_555
N2 C16 1_555 1_555
N3 C16 1_555 1_555
O1 C1 1_555 1_555
O2 C1 1_555 1_555
O3 C6 1_555 1_555
O4 N1 1_555 1_555
O5 N1 1_555 1_555
O6 C14 1_555 1_555
O7 C14 1_555 1_555
O8 C15 1_555 1_555
O9 C15 1_555 1_555
O10 Co2 1_555 1_555
Co1 O2 1_555 1_555
Co2 N2 1_555 1_555
H14 O10 1_555 1_555
H15 O10 1_555 1_555
O11 H16 1_555 1_555
H17 O11 1_555 1_555
C16A H7A 1_555 1_555
C17A H8A 1_555 1_555
C18A C17A 1_555 1_555
H9A C18A 1_555 1_555
C19A H10A 1_555 1_555
H11A C19A 1_555 1_555
C20A C19A 1_555 1_555
C21A C22 1_555 1_555
H12A C21A 1_555 1_555
C22A C21 1_555 1_555
H13A C22A 1_555 1_555
N2A C16A 1_555 1_555
N3A C16A 1_555 1_555
C1A C2A 1_555 1_555
C2A C3A 1_555 1_555
C3A H1A 1_555 1_555
C4A C3A 1_555 1_555
C5A C4A 1_555 1_555
H2A C5A 1_555 1_555
C6A C5A 1_555 1_555
C7A C2A 1_555 1_555
H3A C7A 1_555 1_555
C8A C9A 1_555 1_555
C9A H4A 1_555 1_555
C10A C9A 1_555 1_555
H5A C10A 1_555 1_555
C11A C10A 1_555 1_555
C12A C11A 1_555 1_555
H6A C12A 1_555 1_555
C13A C8A 1_555 1_555
C14A C11A 1_555 1_555
C15A C4A 1_555 1_555
N1A C13A 1_555 1_555
O1A C1A 1_555 1_555
O2A Co1 1_555 1_555
O3A C6A 1_555 1_555
O4A N1A 1_555 1_555
O5A N1A 1_555 1_555
O6A C14A 1_555 1_555
O7A C14A 1_555 1_555
O8A C15A 1_555 1_555
O9A C15A 1_555 1_555
O10A Co2A 1_555 1_555
Co2A O1A 1_555 1_555
H14A O10A 1_555 1_555
H15A O10A 1_555 1_555
N2A_2 Co2A 1_555 1_555
O6_2 Co1 1_555 1_555
O6A_2 Co1 1_555 1_555
O7_2 Co2 1_555 1_555
O7A_2 Co2A 1_555 1_555
O8_2 Co2 1_555 1_555
O8A_2 Co2A 1_555 1_555
O9_2 Co1 1_555 1_555
O9A_2 Co1 1_555 1_555
Co1_2 O9A 1_555 1_555
Co1_3 O6A 1_555 1_555
Co1_4 O6 1_555 1_555
Co1_5 O9 1_555 1_555
Co2_2 O7 1_555 1_555
Co2_3 O8 1_555 1_555
Co2A_2 O8A 1_555 1_555
Co2A_3 O7A 1_555 1_555
Co2A_4 N2A 1_555 1_555
C6 C7 1_555 1_555
C8 O3 1_555 1_555
C12 C13 1_555 1_555
C17 N2 1_555 1_555
C18 N3 1_555 1_555
C19 N3 1_555 1_555
O1 Co2 1_555 1_555
O2 Co2 1_555 1_555
C17A N2A 1_555 1_555
C18A N3A 1_555 1_555
C19A N3A 1_555 1_555
C20A C21A 1_555 1_555
C20A C22A 1_555 1_555
C1A O2A 1_555 1_555
C6A C7A 1_555 1_555
C8A O3A 1_555 1_555
C12A C13A 1_555 1_555
O2A Co2A 1_555 1_555

#END
