
#######################################################################
#
#                 Cambridge Crystallographic Data Centre
#                                CCDC 
#
#######################################################################
#
# If this CIF has been generated from an entry in the Cambridge 
# Structural Database, then it will include bibliographic, chemical, 
# crystal, experimental, refinement or atomic coordinate data resulting 
# from the CCDC's data processing and validation procedures.
#
#######################################################################

data_KIMXOV
_symmetry_cell_setting           triclinic
_symmetry_space_group_name_H-M   'P -1'
_symmetry_Int_Tables_number      2
_space_group_name_Hall           '-P 1'
loop_
_symmetry_equiv_pos_site_id
_symmetry_equiv_pos_as_xyz
1 x,y,z
2 -x,-y,-z
_cell_length_a                   9.7041(4)
_cell_length_b                   11.4915(5)
_cell_length_c                   12.1747(5)
_cell_angle_alpha                71.1220(10)
_cell_angle_beta                 69.0980(10)
_cell_angle_gamma                74.0570(10)
_cell_volume                     1180.45
loop_
_atom_site_label
_atom_site_type_symbol
_atom_site_fract_x
_atom_site_fract_y
_atom_site_fract_z
C1 C 1.8423(2) -0.23142(19) -0.47447(19)
C2 C 1.6790(2) -0.18131(19) -0.42437(19)
C3 C 1.6396(2) -0.10317(19) -0.34712(19)
H1 H 1.7125 -0.0861 -0.3245
C4 C 1.4914(2) -0.05182(19) -0.30480(19)
C5 C 1.3799(2) -0.07527(19) -0.33553(19)
H2 H 1.2805 -0.0380 -0.3068
C6 C 1.4187(2) -0.15580(19) -0.41048(19)
C7 C 1.5682(2) -0.20953(19) -0.45423(19)
H3 H 1.5941 -0.2642 -0.5033
C8 C 1.3913(2) 0.0017(2) -0.11617(19)
C9 C 1.4118(3) -0.1221(2) -0.0485(2)
H4 H 1.4712 -0.1848 -0.0868
C10 C 1.3441(3) -0.1516(2) 0.0751(2)
H5 H 1.3601 -0.2343 0.1194
C11 C 1.2523(2) -0.0610(2) 0.13550(19)
C12 C 1.2316(3) 0.0626(2) 0.0692(2)
H6 H 1.1711 0.1248 0.1077
C13 C 1.3018(2) 0.0927(2) -0.0545(2)
C14 C 1.1775(2) -0.0982(2) 0.2710(2)
C15 C 2.0182(3) -0.3515(2) -0.2296(2)
H7 H 2.0505 -0.2805 -0.2342
C16 C 1.9863(3) -0.5038(2) -0.2797(2)
H8 H 1.9917 -0.5583 -0.3239
C17 C 1.9274(3) -0.4171(2) -0.1289(2)
H9 H 1.8867 -0.4001 -0.0528
C18 C 1.8166(3) -0.6084(2) -0.0827(2)
H10 H 1.8526 -0.6517 -0.0126
H11 H 1.8275 -0.6693 -0.1262
C19 C 1.6521(3) -0.5512(2) -0.0402(2)
C20 C 1.5790(3) -0.5604(2) 0.0828(2)
H12 H 1.6318 -0.6011 0.1392
C21 C 1.5714(3) -0.4904(2) -0.1219(2)
H13 H 1.6186 -0.4834 -0.2044
C22 C 1.2950(2) -0.1764(2) -0.44513(19)
N1 N 1.2785(2) 0.22395(18) -0.12117(17)
N2 N 2.0550(2) -0.40651(17) -0.32418(17)
N3 N 1.9075(2) -0.51368(18) -0.16186(18)
O1 O 1.93748(16) -0.17859(13) -0.46688(14)
O2 O 1.88274(17) -0.32467(14) -0.51743(14)
O3 O 1.45416(17) 0.03824(14) -0.23822(13)
O4 O 1.3837(2) 0.26428(16) -0.20387(17)
O5 O 1.1548(2) 0.28798(17) -0.08879(17)
O6 O 1.18584(18) -0.21392(14) 0.31699(14)
O7 O 1.11508(17) -0.01117(14) 0.32359(13)
O8 O 1.17794(17) -0.09579(14) -0.43413(14)
O9 O 1.31535(17) -0.27388(14) -0.48032(14)
O10 O 2.2398(2) -0.46829(16) -0.56691(16)
Zn1 Zn 2.13650(3) -0.31178(2) -0.50673(2)
Zn2 Zn 2.0000 0.0000 -0.5000
H14 H 2.335(4) -0.484(3) -0.587(3)
H15 H 2.208(4) -0.534(3) -0.537(3)
C15A C 0.9818(3) -0.6485(2) 0.2296(2)
H7A H 0.9495 -0.7195 0.2342
C16A C 1.0137(3) -0.4962(2) 0.2797(2)
H8A H 1.0083 -0.4417 0.3239
C17A C 1.0726(3) -0.5829(2) 0.1289(2)
H9A H 1.1133 -0.5999 0.0528
C18A C 1.1834(3) -0.3916(2) 0.0827(2)
H10A H 1.1474 -0.3483 0.0126
H11A H 1.1725 -0.3307 0.1262
C19A C 1.3479(3) -0.4488(2) 0.0402(2)
C20A C 1.4210(3) -0.4396(2) -0.0828(2)
H12A H 1.3682 -0.3989 -0.1392
C21A C 1.4286(3) -0.5096(2) 0.1219(2)
H13A H 1.3814 -0.5166 0.2044
N2A N 0.9450(2) -0.59349(17) 0.32418(17)
N3A N 1.0925(2) -0.48632(18) 0.16186(18)
C1A C 1.1577(2) -0.76858(19) 0.47447(19)
C2A C 1.3210(2) -0.81869(19) 0.42437(19)
C3A C 1.3604(2) -0.89683(19) 0.34712(19)
H1A H 1.2875 -0.9139 0.3245
C4A C 1.5086(2) -0.94818(19) 0.30480(19)
C5A C 1.6201(2) -0.92473(19) 0.33553(19)
H2A H 1.7195 -0.9620 0.3068
C6A C 1.5813(2) -0.84420(19) 0.41048(19)
C7A C 1.4318(2) -0.79047(19) 0.45423(19)
H3A H 1.4059 -0.7358 0.5033
C8A C 1.6087(2) -1.0017(2) 0.11617(19)
C9A C 1.5882(3) -0.8779(2) 0.0485(2)
H4A H 1.5288 -0.8152 0.0868
C10A C 1.6559(3) -0.8484(2) -0.0751(2)
H5A H 1.6399 -0.7657 -0.1194
C11A C 1.7477(2) -0.9390(2) -0.13550(19)
C12A C 1.7684(3) -1.0626(2) -0.0692(2)
H6A H 1.8289 -1.1248 -0.1077
C13A C 1.6982(2) -1.0927(2) 0.0545(2)
C14A C 1.8225(2) -0.9018(2) -0.2710(2)
C22A C 1.7050(2) -0.8236(2) 0.44513(19)
N1A N 1.7215(2) -1.22395(18) 0.12117(17)
O1A O 1.06252(16) -0.82141(13) 0.46688(14)
O2A O 1.11726(17) -0.67533(14) 0.51743(14)
O3A O 1.54584(17) -1.03824(14) 0.23822(13)
O4A O 1.6163(2) -1.26428(16) 0.20387(17)
O5A O 1.8452(2) -1.28798(17) 0.08879(17)
O6A O 1.81416(18) -0.78608(14) -0.31699(14)
O7A O 1.88492(17) -0.98883(14) -0.32359(13)
O8A O 1.82206(17) -0.90421(14) 0.43413(14)
O9A O 1.68465(17) -0.72612(14) 0.48032(14)
O10A O 0.7602(2) -0.53171(16) 0.56691(16)
Zn1A Zn 0.86350(3) -0.68822(2) 0.50673(2)
H14A H 0.665(4) -0.516(3) 0.587(3)
H15A H 0.792(4) -0.466(3) 0.537(3)
O1A_2 O 2.06252(16) 0.17859(13) -0.53312(14)
O6_2 O 2.18584(18) -0.21392(14) -0.68301(14)
O6A_2 O 0.81416(18) -0.78608(14) 0.68301(14)
O7_2 O 2.11508(17) -0.01117(14) -0.67641(13)
O7A_2 O 1.88492(17) 0.01117(14) -0.32359(13)
O8_2 O 2.17794(17) -0.09579(14) -0.43413(14)
O8A_2 O 1.82206(17) 0.09579(14) -0.56587(14)
O9_2 O 2.31535(17) -0.27388(14) -0.48032(14)
O9A_2 O 0.68465(17) -0.72612(14) 0.48032(14)
Zn1_2 Zn 1.13650(3) -0.31178(2) -0.50673(2)
Zn1_3 Zn 1.13650(3) -0.31178(2) 0.49327(2)
Zn1A_2 Zn 1.86350(3) -0.68822(2) -0.49327(2)
Zn1A_3 Zn 1.86350(3) -0.68822(2) 0.50673(2)
Zn2_2 Zn 1.0000 -1.0000 0.5000
Zn2_3 Zn 1.0000 0.0000 -0.5000
Zn2_4 Zn 1.0000 0.0000 0.5000
Zn2_5 Zn 2.0000 -1.0000 -0.5000
Zn2_6 Zn 2.0000 -1.0000 0.5000
O11 O 1.5382(2) -0.50850(19) 0.35135(19)
H16 H 1.580(3) -0.455(3) 0.321(3)
H17 H 1.587(4) -0.560(3) 0.395(3)
loop_
_geom_bond_atom_site_label_1
_geom_bond_atom_site_label_2
_geom_bond_site_symmetry_1
_geom_bond_site_symmetry_2
C1 C2 1_555 1_555
C2 C3 1_555 1_555
C3 H1 1_555 1_555
C4 C3 1_555 1_555
C5 C4 1_555 1_555
H2 C5 1_555 1_555
C6 C5 1_555 1_555
C7 C2 1_555 1_555
H3 C7 1_555 1_555
C8 C9 1_555 1_555
C9 H4 1_555 1_555
C10 C9 1_555 1_555
H5 C10 1_555 1_555
C11 C10 1_555 1_555
C12 C11 1_555 1_555
H6 C12 1_555 1_555
C13 C8 1_555 1_555
C14 C11 1_555 1_555
C15 H7 1_555 1_555
C16 H8 1_555 1_555
C17 C15 1_555 1_555
H9 C17 1_555 1_555
C18 H10 1_555 1_555
H11 C18 1_555 1_555
C19 C18 1_555 1_555
C20 C19 1_555 1_555
H12 C20 1_555 1_555
C21 C19 1_555 1_555
H13 C21 1_555 1_555
C22 C6 1_555 1_555
N1 C13 1_555 1_555
N2 C15 1_555 1_555
N3 C16 1_555 1_555
O1 C1 1_555 1_555
O2 C1 1_555 1_555
O3 C4 1_555 1_555
O4 N1 1_555 1_555
O5 N1 1_555 1_555
O6 C14 1_555 1_555
O7 C14 1_555 1_555
O8 C22 1_555 1_555
O9 C22 1_555 1_555
O10 Zn1 1_555 1_555
Zn1 N2 1_555 1_555
Zn2 O1 1_555 1_555
H14 O10 1_555 1_555
H15 O10 1_555 1_555
O11 H16 1_555 1_555
H17 O11 1_555 1_555
C15A H7A 1_555 1_555
C16A H8A 1_555 1_555
C17A C15A 1_555 1_555
H9A C17A 1_555 1_555
C18A H10A 1_555 1_555
H11A C18A 1_555 1_555
C19A C18A 1_555 1_555
C20A C21 1_555 1_555
H12A C20A 1_555 1_555
C21A C20 1_555 1_555
H13A C21A 1_555 1_555
N2A C15A 1_555 1_555
N3A C16A 1_555 1_555
C1A C2A 1_555 1_555
C2A C3A 1_555 1_555
C3A H1A 1_555 1_555
C4A C3A 1_555 1_555
C5A C4A 1_555 1_555
H2A C5A 1_555 1_555
C6A C5A 1_555 1_555
C7A C2A 1_555 1_555
H3A C7A 1_555 1_555
C8A C9A 1_555 1_555
C9A H4A 1_555 1_555
C10A C9A 1_555 1_555
H5A C10A 1_555 1_555
C11A C10A 1_555 1_555
C12A C11A 1_555 1_555
H6A C12A 1_555 1_555
C13A C8A 1_555 1_555
C14A C11A 1_555 1_555
C22A C6A 1_555 1_555
N1A C13A 1_555 1_555
O1A C1A 1_555 1_555
O2A C1A 1_555 1_555
O3A C4A 1_555 1_555
O4A N1A 1_555 1_555
O5A N1A 1_555 1_555
O6A C14A 1_555 1_555
O7A C14A 1_555 1_555
O8A C22A 1_555 1_555
O9A C22A 1_555 1_555
O10A Zn1A 1_555 1_555
Zn1A N2A 1_555 1_555
H14A O10A 1_555 1_555
H15A O10A 1_555 1_555
O1A_2 Zn2 1_555 1_555
O6_2 Zn1 1_555 1_555
O6A_2 Zn1A 1_555 1_555
O7_2 Zn2 1_555 1_555
O7A_2 Zn2 1_555 1_555
O8_2 Zn2 1_555 1_555
O8A_2 Zn2 1_555 1_555
O9_2 Zn1 1_555 1_555
O9A_2 Zn1A 1_555 1_555
Zn1_2 O9 1_555 1_555
Zn1_3 O6 1_555 1_555
Zn1A_2 O6A 1_555 1_555
Zn1A_3 O9A 1_555 1_555
Zn2_2 O1A 1_555 1_555
Zn2_3 O8 1_555 1_555
Zn2_4 O7 1_555 1_555
Zn2_5 O7A 1_555 1_555
Zn2_6 O8A 1_555 1_555
C6 C7 1_555 1_555
C8 O3 1_555 1_555
C12 C13 1_555 1_555
C16 N2 1_555 1_555
C17 N3 1_555 1_555
C18 N3 1_555 1_555
O1 Zn1 1_555 1_555
O2 Zn1 1_555 1_555
C16A N2A 1_555 1_555
C17A N3A 1_555 1_555
C18A N3A 1_555 1_555
C19A C20A 1_555 1_555
C19A C21A 1_555 1_555
C6A C7A 1_555 1_555
C8A O3A 1_555 1_555
C12A C13A 1_555 1_555
O1A Zn1A 1_555 1_555
O2A Zn1A 1_555 1_555

#END
