
#######################################################################
#
#                 Cambridge Crystallographic Data Centre
#                                CCDC 
#
#######################################################################
#
# If this CIF has been generated from an entry in the Cambridge 
# Structural Database, then it will include bibliographic, chemical, 
# crystal, experimental, refinement or atomic coordinate data resulting 
# from the CCDC's data processing and validation procedures.
#
#######################################################################

data_KIMXEL
_symmetry_cell_setting           triclinic
_symmetry_space_group_name_H-M   'P -1'
_symmetry_Int_Tables_number      2
_space_group_name_Hall           '-P 1'
loop_
_symmetry_equiv_pos_site_id
_symmetry_equiv_pos_as_xyz
1 x,y,z
2 -x,-y,-z
_cell_length_a                   7.288(5)
_cell_length_b                   13.934(5)
_cell_length_c                   14.172(5)
_cell_angle_alpha                70.316(5)
_cell_angle_beta                 89.974(5)
_cell_angle_gamma                89.992(5)
_cell_volume                     1355.08
loop_
_atom_site_label
_atom_site_type_symbol
_atom_site_fract_x
_atom_site_fract_y
_atom_site_fract_z
Hg1 Hg 0.0000 1.0000 0.0000
Hg2 Hg 0.48635(8) 0.84294(4) 0.05957(4)
Hg3 Hg 0.5000 0.5000 0.0000
Hg4 Hg 0.98637(8) 0.65696(4) -0.05948(4)
Cl1 Cl 0.1775(4) 0.8380(3) -0.0465(3)
Cl2 Cl 0.4063(5) 0.7645(3) 0.2258(3)
Cl3 Cl 0.6503(5) 0.9469(3) -0.0810(3)
Cl4 Cl 0.6775(4) 0.6620(3) 0.0466(3)
Cl5 Cl 1.1509(5) 0.5533(3) 0.0810(3)
Cl6 Cl 0.9069(5) 0.7355(3) -0.2258(3)
N1 N -0.0345(15) 0.8952(8) 0.1463(9)
N2 N -0.0820(15) 0.7428(9) 0.2621(9)
N3 N -0.0634(18) 0.7881(10) 0.4106(10)
N4 N -0.0049(16) 0.9698(9) 0.3750(9)
N5 N -0.0383(17) 0.8589(11) 0.5360(11)
H1 H -0.0599 0.7995 0.5788
H2 H -0.0200 0.9098 0.5560
N6 N 0.5041(16) 0.4693(9) 0.3742(10)
N7 N 0.5349(19) 0.3603(11) 0.5352(10)
H3 H 0.5574 0.3014 0.5788
H4 H 0.5156 0.4118 0.5544
N8 N 0.5608(17) 0.2892(10) 0.4091(10)
N9 N 0.5347(15) 0.3949(8) 0.1458(9)
C1 C -0.061(2) 0.7980(11) 0.1615(12)
H5 H -0.0644 0.7697 0.1107
C2 C -0.0270(17) 0.9050(10) 0.2403(10)
C3 C 0.0004(19) 0.9875(11) 0.2747(12)
H6 H 0.0217 1.0527 0.2298
C4 C -0.0332(19) 0.8718(11) 0.4387(11)
C5 C -0.0559(18) 0.8096(10) 0.3122(11)
C6 C -0.117(2) 0.6361(11) 0.3027(12)
H7 H -0.1797 0.6151 0.2525
H8 H -0.1991 0.6235 0.3595
C7 C 0.0536(19) 0.5699(10) 0.3369(11)
H9 H 0.1378 0.5831 0.2810
H10 H 0.1147 0.5885 0.3891
C8 C 0.008(2) 0.4570(13) 0.3766(13)
H11 H 0.1193 0.4185 0.3972
H12 H -0.0498 0.4378 0.3248
H13 H -0.0730 0.4433 0.4329
C9 C 0.4973(19) 0.4873(11) 0.2749(12)
H14 H 0.4751 0.5523 0.2298
C10 C 0.5244(18) 0.4055(10) 0.2428(11)
C11 C 0.5562(19) 0.3118(10) 0.3128(11)
C12 C 0.5299(19) 0.3717(10) 0.4384(11)
C13 C 0.5624(18) 0.2961(11) 0.1638(11)
H15 H 0.5690 0.2666 0.1141
N10 N 0.5796(15) 0.2444(8) 0.2607(9)
C14 C 0.614(2) 0.1337(11) 0.3052(11)
H16 H 0.6927 0.1217 0.3631
H17 H 0.6794 0.1113 0.2568
C15 C 0.492(2) -0.0430(13) 0.3792(15)
H18 H 0.3814 -0.0817 0.3991
H19 H 0.5714 -0.0554 0.4362
H20 H 0.5535 -0.0632 0.3288
C16 C 0.446(2) 0.0706(11) 0.3366(12)
H21 H 0.3649 0.0828 0.2795
H22 H 0.3817 0.0905 0.3871
Hg2A Hg -0.48635(8) 1.15706(4) -0.05957(4)
Hg4A Hg -0.98637(8) 1.34304(4) 0.05948(4)
Cl1A Cl -0.1775(4) 1.1620(3) 0.0465(3)
Cl2A Cl -0.4063(5) 1.2355(3) -0.2258(3)
Cl3A Cl -0.6503(5) 1.0531(3) 0.0810(3)
Cl4A Cl -0.6775(4) 1.3380(3) -0.0466(3)
Cl5A Cl -1.1509(5) 1.4467(3) -0.0810(3)
Cl6A Cl -0.9069(5) 1.2645(3) 0.2258(3)
N1A N 0.0345(15) 1.1048(8) -0.1463(9)
N2A N 0.0820(15) 1.2572(9) -0.2621(9)
N3A N 0.0634(18) 1.2119(10) -0.4106(10)
N4A N 0.0049(16) 1.0302(9) -0.3750(9)
N5A N 0.0383(17) 1.1411(11) -0.5360(11)
H1A H 0.0599 1.2005 -0.5788
H2A H 0.0200 1.0902 -0.5560
C1A C 0.061(2) 1.2020(11) -0.1615(12)
H5A H 0.0644 1.2303 -0.1107
C2A C 0.0270(17) 1.0950(10) -0.2403(10)
C3A C -0.0004(19) 1.0125(11) -0.2747(12)
H6A H -0.0217 0.9473 -0.2298
C4A C 0.0332(19) 1.1282(11) -0.4387(11)
C5A C 0.0559(18) 1.1904(10) -0.3122(11)
C6A C 0.117(2) 1.3639(11) -0.3027(12)
H7A H 0.1797 1.3849 -0.2525
H8A H 0.1991 1.3765 -0.3595
C7A C -0.0536(19) 1.4301(10) -0.3369(11)
H9A H -0.1378 1.4169 -0.2810
H10A H -0.1147 1.4115 -0.3891
C8A C -0.008(2) 1.5430(13) -0.3766(13)
H11A H -0.1193 1.5815 -0.3972
H12A H 0.0498 1.5622 -0.3248
H13A H 0.0730 1.5567 -0.4329
N6A N 0.4959(16) 0.5307(9) -0.3742(10)
N7A N 0.4651(19) 0.6397(11) -0.5352(10)
H3A H 0.4426 0.6986 -0.5788
H4A H 0.4844 0.5882 -0.5544
N8A N 0.4392(17) 0.7108(10) -0.4091(10)
N9A N 0.4653(15) 0.6051(8) -0.1458(9)
C9A C 0.5027(19) 0.5127(11) -0.2749(12)
H14A H 0.5249 0.4477 -0.2298
C10A C 0.4756(18) 0.5945(10) -0.2428(11)
C11A C 0.4438(19) 0.6882(10) -0.3128(11)
C12A C 0.4701(19) 0.6283(10) -0.4384(11)
C13A C 0.4376(18) 0.7039(11) -0.1638(11)
H15A H 0.4310 0.7334 -0.1141
N10A N 0.4204(15) 0.7556(8) -0.2607(9)
C14A C 0.386(2) 0.8663(11) -0.3052(11)
H16A H 0.3073 0.8783 -0.3631
H17A H 0.3206 0.8887 -0.2568
C15A C 0.508(2) 1.0430(13) -0.3792(15)
H18A H 0.6186 1.0817 -0.3991
H19A H 0.4286 1.0554 -0.4362
H20A H 0.4465 1.0632 -0.3288
C16A C 0.554(2) 0.9294(11) -0.3366(12)
H21A H 0.6351 0.9172 -0.2795
H22A H 0.6183 0.9095 -0.3871
Hg1_2 Hg -1.0000 1.0000 0.0000
Hg1_3 Hg 1.0000 1.0000 0.0000
Hg3_2 Hg -1.5000 1.5000 0.0000
Hg3_3 Hg -0.5000 1.5000 0.0000
Hg3_4 Hg 1.5000 0.5000 0.0000
Hg4_2 Hg -0.01363(8) 0.65696(4) -0.05948(4)
Hg4A_2 Hg 0.01363(8) 1.34304(4) 0.05948(4)
Cl1_2 Cl 1.1775(4) 0.8380(3) -0.0465(3)
Cl1A_2 Cl -1.1775(4) 1.1620(3) 0.0465(3)
Cl3_2 Cl -0.3497(5) 0.9469(3) -0.0810(3)
Cl3A_2 Cl 0.3497(5) 1.0531(3) 0.0810(3)
Cl4A_2 Cl 0.3225(4) 0.3380(3) -0.0466(3)
Cl5_2 Cl 0.1509(5) 0.5533(3) 0.0810(3)
Cl5A_2 Cl 0.8491(5) 0.4467(3) -0.0810(3)
loop_
_geom_bond_atom_site_label_1
_geom_bond_atom_site_label_2
_geom_bond_site_symmetry_1
_geom_bond_site_symmetry_2
Hg1 Cl1 1_555 1_555
Hg2 Cl1 1_555 1_555
Hg3 Cl4 1_555 1_555
Hg4 Cl4 1_555 1_555
Cl1 Hg4_2 1_555 1_555
Cl2 Hg2 1_555 1_555
Cl3 Hg2 1_555 1_555
Cl4 Hg2 1_555 1_555
Cl5 Hg4 1_555 1_555
Cl6 Hg4 1_555 1_555
N1 Hg1 1_555 1_555
N2 C1 1_555 1_555
N3 C4 1_555 1_555
N4 C3 1_555 1_555
N5 H1 1_555 1_555
H2 N5 1_555 1_555
N6 C9 1_555 1_555
N7 H3 1_555 1_555
H4 N7 1_555 1_555
N8 C11 1_555 1_555
N9 Hg3 1_555 1_555
C1 N1 1_555 1_555
H5 C1 1_555 1_555
C2 N1 1_555 1_555
C3 C2 1_555 1_555
H6 C3 1_555 1_555
C4 N4 1_555 1_555
C5 N2 1_555 1_555
C6 N2 1_555 1_555
H7 C6 1_555 1_555
H8 C6 1_555 1_555
C7 C6 1_555 1_555
H9 C7 1_555 1_555
H10 C7 1_555 1_555
C8 C7 1_555 1_555
H11 C8 1_555 1_555
H12 C8 1_555 1_555
H13 C8 1_555 1_555
C9 H14 1_555 1_555
C10 N9 1_555 1_555
C11 C10 1_555 1_555
C12 N6 1_555 1_555
C13 N9 1_555 1_555
H15 C13 1_555 1_555
N10 C11 1_555 1_555
C14 N10 1_555 1_555
H16 C14 1_555 1_555
H17 C14 1_555 1_555
C15 H18 1_555 1_555
H19 C15 1_555 1_555
H20 C15 1_555 1_555
C16 C14 1_555 1_555
H21 C16 1_555 1_555
H22 C16 1_555 1_555
Hg2A Cl1A 1_555 1_555
Hg4A Cl4A 1_555 1_555
Cl1A Hg1 1_555 1_555
Cl2A Hg2A 1_555 1_555
Cl3A Hg2A 1_555 1_555
Cl4A Hg2A 1_555 1_555
Cl5A Hg4A 1_555 1_555
Cl6A Hg4A 1_555 1_555
N1A Hg1 1_555 1_555
N2A C1A 1_555 1_555
N3A C4A 1_555 1_555
N4A C3A 1_555 1_555
N5A H1A 1_555 1_555
H2A N5A 1_555 1_555
C1A N1A 1_555 1_555
H5A C1A 1_555 1_555
C2A N1A 1_555 1_555
C3A C2A 1_555 1_555
H6A C3A 1_555 1_555
C4A N4A 1_555 1_555
C5A N2A 1_555 1_555
C6A N2A 1_555 1_555
H7A C6A 1_555 1_555
H8A C6A 1_555 1_555
C7A C6A 1_555 1_555
H9A C7A 1_555 1_555
H10A C7A 1_555 1_555
C8A C7A 1_555 1_555
H11A C8A 1_555 1_555
H12A C8A 1_555 1_555
H13A C8A 1_555 1_555
N6A C9A 1_555 1_555
N7A H3A 1_555 1_555
H4A N7A 1_555 1_555
N8A C11A 1_555 1_555
N9A Hg3 1_555 1_555
C9A H14A 1_555 1_555
C10A N9A 1_555 1_555
C11A C10A 1_555 1_555
C12A N6A 1_555 1_555
C13A N9A 1_555 1_555
H15A C13A 1_555 1_555
N10A C11A 1_555 1_555
C14A N10A 1_555 1_555
H16A C14A 1_555 1_555
H17A C14A 1_555 1_555
C15A H18A 1_555 1_555
H19A C15A 1_555 1_555
H20A C15A 1_555 1_555
C16A C14A 1_555 1_555
H21A C16A 1_555 1_555
H22A C16A 1_555 1_555
Hg1_2 Cl3A 1_555 1_555
Hg1_3 Cl3 1_555 1_555
Hg3_2 Cl5A 1_555 1_555
Hg3_3 Cl4A 1_555 1_555
Hg3_4 Cl5 1_555 1_555
Hg4_2 Cl5_2 1_555 1_555
Hg4A_2 Cl1A 1_555 1_555
Cl1_2 Hg4 1_555 1_555
Cl1A_2 Hg4A 1_555 1_555
Cl3_2 Hg1 1_555 1_555
Cl3A_2 Hg1 1_555 1_555
Cl4A_2 Hg3 1_555 1_555
Cl5_2 Hg3 1_555 1_555
Cl5A_2 Hg3 1_555 1_555
N3 C5 1_555 1_555
N5 C4 1_555 1_555
N7 C12 1_555 1_555
N8 C12 1_555 1_555
C2 C5 1_555 1_555
C9 C10 1_555 1_555
C13 N10 1_555 1_555
C15 C16 1_555 1_555
N3A C5A 1_555 1_555
N5A C4A 1_555 1_555
C2A C5A 1_555 1_555
N7A C12A 1_555 1_555
N8A C12A 1_555 1_555
C9A C10A 1_555 1_555
C13A N10A 1_555 1_555
C15A C16A 1_555 1_555
Hg1_2 Cl1A_2 1_555 1_555
Hg1_3 Cl1_2 1_555 1_555

#END
