
#######################################################################
#
#                 Cambridge Crystallographic Data Centre
#                                CCDC 
#
#######################################################################
#
# If this CIF has been generated from an entry in the Cambridge 
# Structural Database, then it will include bibliographic, chemical, 
# crystal, experimental, refinement or atomic coordinate data resulting 
# from the CCDC's data processing and validation procedures.
#
#######################################################################

data_KINGIZ
_symmetry_cell_setting           monoclinic
_symmetry_space_group_name_H-M   'P 2/c'
_symmetry_Int_Tables_number      13
_space_group_name_Hall           '-P 2yc'
loop_
_symmetry_equiv_pos_site_id
_symmetry_equiv_pos_as_xyz
1 x,y,z
2 -x,y,1/2-z
3 -x,-y,-z
4 x,-y,1/2+z
_cell_length_a                   15.9717(15)
_cell_length_b                   7.6328(7)
_cell_length_c                   23.774(2)
_cell_angle_alpha                90
_cell_angle_beta                 96.924(2)
_cell_angle_gamma                90
_cell_volume                     2877.12
loop_
_atom_site_label
_atom_site_type_symbol
_atom_site_fract_x
_atom_site_fract_y
_atom_site_fract_z
C1 C 0.4002(2) -0.2956(5) 0.42380(14)
C2 C 0.3457(2) -0.1995(4) 0.37832(13)
C3 C 0.2740(2) -0.2757(5) 0.35122(15)
H1 H 0.2579 -0.3856 0.3629
C4 C 0.2254(2) -0.1933(5) 0.30709(16)
H2 H 0.1772 -0.2480 0.2895
C5 C 0.24796(19) -0.0303(4) 0.28883(13)
C6 C 0.3187(2) 0.0497(4) 0.31722(13)
H3 H 0.3338 0.1613 0.3064
C7 C 0.3673(2) -0.0333(5) 0.36133(14)
H4 H 0.4146 0.0224 0.3797
C8 C 0.1978(2) 0.0710(5) 0.23953(14)
C9 C 0.1407(2) -0.0524(5) 0.19920(14)
C10 C 0.1416(2) 0.2032(6) 0.26620(17)
C11 C 0.2580(2) 0.1583(4) 0.20168(14)
C12 C 0.2448(2) 0.3252(5) 0.17823(15)
H5 H 0.1992 0.3920 0.1867
C13 C 0.2987(2) 0.3910(5) 0.14275(14)
H6 H 0.2896 0.5029 0.1278
C14 C 0.3662(2) 0.2948(5) 0.12887(13)
C15 C 0.3802(2) 0.1293(5) 0.15249(14)
H7 H 0.4258 0.0627 0.1440
C16 C 0.3263(2) 0.0644(5) 0.18840(13)
H8 H 0.3365 -0.0462 0.2042
C17 C 0.4214(2) 0.3631(4) 0.08651(14)
C18 C 0.6694(2) -0.0132(4) 0.48976(15)
H9 H 0.6186 0.0199 0.4693
C19 C 0.7366(2) 0.0988(5) 0.49197(17)
H10 H 0.7304 0.2064 0.4736
C20 C 0.8128(2) 0.0542(5) 0.52090(16)
C21 C 0.8175(2) -0.1059(6) 0.5489(2)
H11 H 0.8676 -0.1422 0.5697
C22 C 0.7466(2) -0.2099(5) 0.54538(18)
H12 H 0.7500 -0.3156 0.5650
C23 C 0.8857(3) 0.1728(5) 0.5242(2)
C24 C 0.9616(3) 0.1571(7) 0.5544(3)
H13 H 0.9771 0.0635 0.5785
C25 C 1.0163(3) 0.2998(8) 0.5457(3)
H14 H 1.0713 0.3079 0.5635
C26 C 0.9817(3) 0.4197(7) 0.5098(2)
Cd1 Cd 0.560844(12) -0.34200(2) 0.509462(8)
F1 F 0.18294(18) -0.1880(3) 0.18284(11)
F2 F 0.10867(18) 0.0328(4) 0.15264(10)
F3 F 0.07484(15) -0.1159(4) 0.22289(12)
F4 F 0.08455(15) 0.2802(4) 0.22886(11)
F5 F 0.09918(16) 0.1271(4) 0.30460(12)
F6 F 0.18740(17) 0.3307(3) 0.29294(11)
N1 N 0.67409(16) -0.1684(3) 0.51589(11)
O1 O 0.37827(17) -0.4467(3) 0.43580(11)
O2 O 0.46546(16) -0.2172(4) 0.44660(10)
O3 O 0.48263(16) 0.2706(3) 0.07695(10)
O4 O 0.40034(18) 0.5064(3) 0.06406(11)
S1 S 0.88197(7) 0.35915(15) 0.48379(6)
C18B C 1.3306(2) 1.0132(4) 0.51024(15)
H9B H 1.3814 0.9801 0.5307
C19B C 1.2634(2) 0.9012(5) 0.50803(17)
H10B H 1.2696 0.7936 0.5264
C20B C 1.1872(2) 0.9458(5) 0.47910(16)
C21B C 1.1825(2) 1.1059(6) 0.4511(2)
H11B H 1.1324 1.1422 0.4303
C22B C 1.2534(2) 1.2099(5) 0.45462(18)
H12B H 1.2500 1.3156 0.4350
C23B C 1.1143(3) 0.8272(5) 0.4758(2)
C24B C 1.0384(3) 0.8429(7) 0.4456(3)
H13B H 1.0229 0.9365 0.4215
C25B C 0.9837(3) 0.7002(8) 0.4543(3)
H14B H 0.9287 0.6921 0.4365
C26B C 1.0183(3) 0.5803(7) 0.4902(2)
N1B N 1.32591(16) 1.1684(3) 0.48411(11)
S1B S 1.11803(7) 0.64085(15) 0.51621(6)
C1B C 0.5998(2) -0.7044(5) 0.57620(14)
C2B C 0.6543(2) -0.8005(4) 0.62168(13)
C3B C 0.7260(2) -0.7243(5) 0.64878(15)
H1B H 0.7421 -0.6144 0.6371
C4B C 0.7746(2) -0.8067(5) 0.69291(16)
H2B H 0.8228 -0.7520 0.7105
C5B C 0.75204(19) -0.9697(4) 0.71117(13)
C6B C 0.6813(2) -1.0497(4) 0.68278(13)
H3B H 0.6662 -1.1613 0.6936
C7B C 0.6327(2) -0.9667(5) 0.63867(14)
H4B H 0.5854 -1.0224 0.6203
C8B C 0.8022(2) -1.0710(5) 0.76047(14)
C9B C 0.8593(2) -0.9476(5) 0.80080(14)
C10B C 0.8584(2) -1.2032(6) 0.73380(17)
C11B C 0.7420(2) -1.1583(4) 0.79832(14)
C12B C 0.7552(2) -1.3252(5) 0.82177(15)
H5B H 0.8008 -1.3920 0.8133
C13B C 0.7013(2) -1.3910(5) 0.85725(14)
H6B H 0.7104 -1.5029 0.8722
C14B C 0.6338(2) -1.2948(5) 0.87113(13)
C15B C 0.6198(2) -1.1293(5) 0.84751(14)
H7B H 0.5742 -1.0627 0.8560
C16B C 0.6737(2) -1.0644(5) 0.81160(13)
H8B H 0.6635 -0.9538 0.7958
C17B C 0.5786(2) -1.3631(4) 0.91349(14)
Cd1B Cd 0.439156(12) -0.65800(2) 0.490538(8)
F1B F 0.81706(18) -0.8120(3) 0.81716(11)
F2B F 0.89133(18) -1.0328(4) 0.84736(10)
F3B F 0.92516(15) -0.8841(4) 0.77711(12)
F4B F 0.91545(15) -1.2802(4) 0.77114(11)
F5B F 0.90082(16) -1.1271(4) 0.69540(12)
F6B F 0.81260(17) -1.3307(3) 0.70706(11)
O1B O 0.62173(17) -0.5533(3) 0.56420(11)
O2B O 0.53454(16) -0.7828(4) 0.55340(10)
O3B O 0.51737(16) -1.2706(3) 0.92305(10)
O4B O 0.59966(18) -1.5064(3) 0.93594(11)
Cd1A Cd 0.439156(12) -1.34200(2) 0.990538(8)
Cd1A_2 Cd 0.439156(12) 0.65800(2) -0.009462(8)
Cd1B_2 Cd 1.439156(12) 1.34200(2) 0.490538(8)
Cd1C Cd 0.560844(12) -1.65800(2) 1.009462(8)
Cd1C_2 Cd 0.560844(12) 0.34200(2) 0.009462(8)
N1B_2 N 0.32591(16) -0.8316(3) 0.48411(11)
O3A O 0.51737(16) -0.7294(3) 0.42305(10)
O3C O 0.48263(16) -0.2706(3) 0.57695(10)
O4A O 0.59966(18) -0.4936(3) 0.43594(11)
O4C O 0.40034(18) -0.5064(3) 0.56406(11)
loop_
_geom_bond_atom_site_label_1
_geom_bond_atom_site_label_2
_geom_bond_site_symmetry_1
_geom_bond_site_symmetry_2
C1 C2 1_555 1_555
C2 C3 1_555 1_555
C3 H1 1_555 1_555
C4 C3 1_555 1_555
H2 C4 1_555 1_555
C5 C4 1_555 1_555
C6 C5 1_555 1_555
H3 C6 1_555 1_555
C7 C2 1_555 1_555
H4 C7 1_555 1_555
C8 C5 1_555 1_555
C9 C8 1_555 1_555
C10 C8 1_555 1_555
C11 C8 1_555 1_555
C12 C11 1_555 1_555
H5 C12 1_555 1_555
C13 C12 1_555 1_555
H6 C13 1_555 1_555
C14 C13 1_555 1_555
C15 C14 1_555 1_555
H7 C15 1_555 1_555
C16 C11 1_555 1_555
H8 C16 1_555 1_555
C17 C14 1_555 1_555
C18 H9 1_555 1_555
C19 C18 1_555 1_555
H10 C19 1_555 1_555
C20 C19 1_555 1_555
C21 C20 1_555 1_555
H11 C21 1_555 1_555
C22 C21 1_555 1_555
H12 C22 1_555 1_555
C23 C20 1_555 1_555
C24 C23 1_555 1_555
H13 C24 1_555 1_555
C25 C24 1_555 1_555
H14 C25 1_555 1_555
C26 C25 1_555 1_555
Cd1 N1 1_555 1_555
F1 C9 1_555 1_555
F2 C9 1_555 1_555
F3 C9 1_555 1_555
F4 C10 1_555 1_555
F5 C10 1_555 1_555
F6 C10 1_555 1_555
N1 C18 1_555 1_555
O1 C1 1_555 1_555
O2 C1 1_555 1_555
O3 C17 1_555 1_555
O4 C17 1_555 1_555
S1 C23 1_555 1_555
C18B H9B 1_555 1_555
C19B C18B 1_555 1_555
H10B C19B 1_555 1_555
C20B C19B 1_555 1_555
C21B C20B 1_555 1_555
H11B C21B 1_555 1_555
C22B C21B 1_555 1_555
H12B C22B 1_555 1_555
C23B C20B 1_555 1_555
C24B C23B 1_555 1_555
H13B C24B 1_555 1_555
C25B C24B 1_555 1_555
H14B C25B 1_555 1_555
C26B C26 1_555 1_555
N1B C18B 1_555 1_555
S1B C23B 1_555 1_555
C1B C2B 1_555 1_555
C2B C3B 1_555 1_555
C3B H1B 1_555 1_555
C4B C3B 1_555 1_555
H2B C4B 1_555 1_555
C5B C4B 1_555 1_555
C6B C5B 1_555 1_555
H3B C6B 1_555 1_555
C7B C2B 1_555 1_555
H4B C7B 1_555 1_555
C8B C5B 1_555 1_555
C9B C8B 1_555 1_555
C10B C8B 1_555 1_555
C11B C8B 1_555 1_555
C12B C11B 1_555 1_555
H5B C12B 1_555 1_555
C13B C12B 1_555 1_555
H6B C13B 1_555 1_555
C14B C13B 1_555 1_555
C15B C14B 1_555 1_555
H7B C15B 1_555 1_555
C16B C11B 1_555 1_555
H8B C16B 1_555 1_555
C17B C14B 1_555 1_555
Cd1B O1 1_555 1_555
F1B C9B 1_555 1_555
F2B C9B 1_555 1_555
F3B C9B 1_555 1_555
F4B C10B 1_555 1_555
F5B C10B 1_555 1_555
F6B C10B 1_555 1_555
O1B Cd1 1_555 1_555
O2B C1B 1_555 1_555
O3B C17B 1_555 1_555
O4B C17B 1_555 1_555
Cd1A O3B 1_555 1_555
Cd1A_2 O4 1_555 1_555
Cd1B_2 N1B 1_555 1_555
Cd1C O4B 1_555 1_555
Cd1C_2 O3 1_555 1_555
N1B_2 Cd1B 1_555 1_555
O3A Cd1B 1_555 1_555
O3C Cd1 1_555 1_555
O4A Cd1 1_555 1_555
O4C Cd1B 1_555 1_555
C6 C7 1_555 1_555
C15 C16 1_555 1_555
C22 N1 1_555 1_555
C26 S1 1_555 1_555
Cd1 O2 1_555 1_555
C22B N1B 1_555 1_555
C25B C26B 1_555 1_555
C26B S1B 1_555 1_555
C1B O1B 1_555 1_555
C6B C7B 1_555 1_555
C15B C16B 1_555 1_555
Cd1B O2B 1_555 1_555

#END
