
#######################################################################
#
#                 Cambridge Crystallographic Data Centre
#                                CCDC 
#
#######################################################################
#
# If this CIF has been generated from an entry in the Cambridge 
# Structural Database, then it will include bibliographic, chemical, 
# crystal, experimental, refinement or atomic coordinate data resulting 
# from the CCDC's data processing and validation procedures.
#
#######################################################################

data_KINHEW
_symmetry_cell_setting           monoclinic
_symmetry_space_group_name_H-M   'P 21/c'
_symmetry_Int_Tables_number      14
_space_group_name_Hall           '-P 2ybc'
loop_
_symmetry_equiv_pos_site_id
_symmetry_equiv_pos_as_xyz
1 x,y,z
2 -x,1/2+y,1/2-z
3 -x,-y,-z
4 x,1/2-y,1/2+z
_cell_length_a                   13.7472(12)
_cell_length_b                   21.8339(19)
_cell_length_c                   15.9121(14)
_cell_angle_alpha                90
_cell_angle_beta                 115.59
_cell_angle_gamma                90
_cell_volume                     4307.6
loop_
_atom_site_label
_atom_site_type_symbol
_atom_site_fract_x
_atom_site_fract_y
_atom_site_fract_z
C1 C 0.3045(5) -0.1354(3) 0.6179(5)
C2 C 0.3673(5) -0.1330(3) 0.5594(5)
C3 C 0.3683(5) -0.1833(3) 0.5048(5)
H1 H 0.3293 -0.2184 0.5034
C4 C 0.4278(5) -0.1805(3) 0.4528(5)
H2 H 0.4276 -0.2131 0.4151
C5 C 0.4878(5) -0.1277(3) 0.4585(5)
C6 C 0.4919(6) -0.0789(3) 0.5166(5)
H3 H 0.5357 -0.0451 0.5224
C7 C 0.4292(6) -0.0818(3) 0.5652(5)
H4 H 0.4288 -0.0489 0.6023
C8 C 0.6910(5) -0.1147(3) 0.4567(5)
C9 C 0.7417(5) -0.1670(3) 0.5085(5)
H5 H 0.7011 -0.2007 0.5099
C10 C 0.8518(6) -0.1676(3) 0.5570(5)
H6 H 0.8863 -0.2028 0.5889
C11 C 0.9140(5) -0.1152(3) 0.5592(5)
C12 C 0.8609(5) -0.0629(3) 0.5111(5)
H7 H 0.9005 -0.0276 0.5153
C13 C 0.7495(5) -0.0624(3) 0.4567(5)
H8 H 0.7152 -0.0282 0.4215
C14 C 1.0349(5) -0.1153(3) 0.6229(5)
C15 C 0.1579(5) -0.1328(3) 0.8664(4)
C16 C 0.0997(5) -0.1346(3) 0.9262(5)
C17 C 0.0851(5) -0.1887(3) 0.9657(5)
H9 H 0.1151 -0.2250 0.9572
C18 C 0.0256(5) -0.1887(3) 1.0180(5)
H10 H 0.0157 -0.2248 1.0444
C19 C -0.0182(5) -0.1347(3) 1.0302(5)
C20 C -0.0046(6) -0.0802(3) 0.9904(6)
H11 H -0.0372 -0.0443 0.9969
C21 C 0.0564(6) -0.0798(3) 0.9420(5)
H12 H 0.0695 -0.0431 0.9192
C22 C -0.2306(5) -0.1262(3) 1.0206(5)
C23 C -0.2798(6) -0.1775(3) 0.9664(5)
H13 H -0.2388 -0.2104 0.9630
C24 C -0.3894(5) -0.1781(3) 0.9185(5)
H14 H -0.4242 -0.2134 0.8872
C25 C -0.4497(5) -0.1259(3) 0.9162(4)
C26 C -0.3981(5) -0.0749(3) 0.9642(5)
H15 H -0.4380 -0.0398 0.9605
C27 C -0.2874(5) -0.0741(3) 1.0186(5)
H16 H -0.2529 -0.0395 1.0525
C28 C -0.5706(6) -0.1266(3) 0.8584(6)
C29 C 0.3455(6) 0.0593(3) 0.7912(5)
H17 H 0.4051 0.0336 0.8159
C30 C 0.3636(6) 0.1214(3) 0.7991(5)
H18 H 0.4332 0.1367 0.8310
C31 C 0.2762(6) 0.1609(3) 0.7587(5)
C32 C 0.1731(6) 0.1345(3) 0.7124(5)
H19 H 0.1124 0.1592 0.6834
C33 C 0.1633(6) 0.0711(3) 0.7108(5)
H20 H 0.0948 0.0540 0.6810
C34 C 0.2921(6) 0.2278(3) 0.7624(5)
C35 C 0.3862(6) 0.2586(3) 0.7840(5)
H21 H 0.4520 0.2394 0.7987
C36 C 0.3726(6) 0.3226(3) 0.7814(5)
H22 H 0.4294 0.3499 0.7954
C37 C 0.2711(6) 0.3408(3) 0.7571(5)
C38 C 0.2293(6) 0.4029(3) 0.7547(4)
C39 C 0.1362(6) 0.4203(3) 0.7596(5)
H23 H 0.0858 0.3928 0.7619
C40 C 0.1253(6) 0.4838(3) 0.7609(5)
H24 H 0.0680 0.5029 0.7667
C41 C 0.2060(6) 0.5154(3) 0.7528(5)
C42 C 0.2153(5) 0.5816(3) 0.7495(4)
C43 C 0.1650(6) 0.6200(3) 0.7879(5)
H25 H 0.1280 0.6032 0.8194
C44 C 0.1687(6) 0.6827(3) 0.7802(5)
H26 H 0.1303 0.7066 0.8038
C45 C 0.2748(5) 0.6751(3) 0.7027(6)
H27 H 0.3120 0.6936 0.6727
C46 C 0.2725(6) 0.6110(3) 0.7074(6)
H28 H 0.3099 0.5877 0.6820
N1 N 0.2479(4) 0.0334(3) 0.7502(4)
N2 N 0.2232(4) 0.7106(3) 0.7415(4)
O1 O 0.2978(4) -0.0860(2) 0.6564(4)
O2 O 0.2667(4) -0.1867(2) 0.6260(4)
O3 O 1.0814(4) -0.0646(2) 0.6370(4)
O4 O 1.0758(4) -0.1663(2) 0.6555(3)
O5 O 0.5191(4) -0.0608(2) 0.3382(3)
O6 O 0.5315(4) -0.1742(2) 0.3285(4)
O7 O 0.1635(4) -0.0820(2) 0.8310(4)
O8 O 0.1936(4) -0.1834(2) 0.8511(4)
O9 O -0.6197(4) -0.0763(2) 0.8507(4)
O10 O -0.6138(4) -0.1764(2) 0.8180(3)
O11 O -0.0636(4) -0.0743(2) 1.1503(3)
O12 O -0.0756(4) -0.1891(2) 1.1471(3)
S1 S 0.18635(15) 0.27835(8) 0.73819(14)
S2 S 0.29957(15) 0.46588(8) 0.74498(14)
S3 S 0.55199(13) -0.11917(7) 0.38416(12)
S4 S -0.09152(13) -0.13139(7) 1.09814(12)
Zn1 Zn 0.23145(6) -0.05883(3) 0.74344(5)
Zn2 Zn 0.22870(6) -0.19645(3) 0.73725(5)
N2_2 N 0.2232(4) -0.2894(3) 0.7415(4)
O3_2 O 0.0814(4) -0.0646(2) 0.6370(4)
O4_2 O 0.0758(4) -0.1663(2) 0.6555(3)
O9_2 O 0.3803(4) -0.0763(2) 0.8507(4)
O10_2 O 0.3862(4) -0.1764(2) 0.8180(3)
Zn1_2 Zn -0.76855(6) -0.05883(3) 0.74344(5)
Zn1_3 Zn 1.23145(6) -0.05883(3) 0.74344(5)
Zn2_2 Zn -0.77130(6) -0.19645(3) 0.73725(5)
Zn2_3 Zn 0.22870(6) 0.80355(3) 0.73725(5)
Zn2_4 Zn 1.22870(6) -0.19645(3) 0.73725(5)
loop_
_geom_bond_atom_site_label_1
_geom_bond_atom_site_label_2
_geom_bond_site_symmetry_1
_geom_bond_site_symmetry_2
C1 C2 1_555 1_555
C2 C3 1_555 1_555
C3 H1 1_555 1_555
C4 C3 1_555 1_555
H2 C4 1_555 1_555
C5 C4 1_555 1_555
C6 C5 1_555 1_555
H3 C6 1_555 1_555
C7 C2 1_555 1_555
H4 C7 1_555 1_555
C8 C9 1_555 1_555
C9 H5 1_555 1_555
C10 C9 1_555 1_555
H6 C10 1_555 1_555
C11 C10 1_555 1_555
C12 C11 1_555 1_555
H7 C12 1_555 1_555
C13 C8 1_555 1_555
H8 C13 1_555 1_555
C14 C11 1_555 1_555
C15 C16 1_555 1_555
C16 C17 1_555 1_555
C17 H9 1_555 1_555
C18 C17 1_555 1_555
H10 C18 1_555 1_555
C19 C18 1_555 1_555
C20 C19 1_555 1_555
H11 C20 1_555 1_555
C21 C16 1_555 1_555
H12 C21 1_555 1_555
C22 C23 1_555 1_555
C23 H13 1_555 1_555
C24 C23 1_555 1_555
H14 C24 1_555 1_555
C25 C24 1_555 1_555
C26 C25 1_555 1_555
H15 C26 1_555 1_555
C27 C22 1_555 1_555
H16 C27 1_555 1_555
C28 C25 1_555 1_555
C29 H17 1_555 1_555
C30 C29 1_555 1_555
H18 C30 1_555 1_555
C31 C30 1_555 1_555
C32 C31 1_555 1_555
H19 C32 1_555 1_555
C33 C32 1_555 1_555
H20 C33 1_555 1_555
C34 C31 1_555 1_555
C35 C34 1_555 1_555
H21 C35 1_555 1_555
C36 C35 1_555 1_555
H22 C36 1_555 1_555
C37 C36 1_555 1_555
C38 C37 1_555 1_555
C39 C38 1_555 1_555
H23 C39 1_555 1_555
C40 C39 1_555 1_555
H24 C40 1_555 1_555
C41 C40 1_555 1_555
C42 C41 1_555 1_555
C43 C42 1_555 1_555
H25 C43 1_555 1_555
C44 C43 1_555 1_555
H26 C44 1_555 1_555
C45 H27 1_555 1_555
C46 C42 1_555 1_555
H28 C46 1_555 1_555
N1 C29 1_555 1_555
N2 C44 1_555 1_555
O1 C1 1_555 1_555
O2 C1 1_555 1_555
O3 C14 1_555 1_555
O4 C14 1_555 1_555
O5 S3 1_555 1_555
O6 S3 1_555 1_555
O7 C15 1_555 1_555
O8 C15 1_555 1_555
O9 C28 1_555 1_555
O10 C28 1_555 1_555
O11 S4 1_555 1_555
O12 S4 1_555 1_555
S1 C34 1_555 1_555
S2 C38 1_555 1_555
S3 C5 1_555 1_555
S4 C19 1_555 1_555
Zn1 N1 1_555 1_555
Zn2 O2 1_555 1_555
N2_2 Zn2 1_555 1_555
O3_2 Zn1 1_555 1_555
O4_2 Zn2 1_555 1_555
O9_2 Zn1 1_555 1_555
O10_2 Zn2 1_555 1_555
Zn1_2 O9 1_555 1_555
Zn1_3 O3 1_555 1_555
Zn2_2 O10 1_555 1_555
Zn2_3 N2 1_555 1_555
Zn2_4 O4 1_555 1_555
C6 C7 1_555 1_555
C8 S3 1_555 1_555
C12 C13 1_555 1_555
C20 C21 1_555 1_555
C22 S4 1_555 1_555
C26 C27 1_555 1_555
C33 N1 1_555 1_555
C37 S1 1_555 1_555
C41 S2 1_555 1_555
C45 C46 1_555 1_555
C45 N2 1_555 1_555
O1 Zn1 1_555 1_555
O7 Zn1 1_555 1_555
O8 Zn2 1_555 1_555

#END
