
#######################################################################
#
#                 Cambridge Crystallographic Data Centre
#                                CCDC 
#
#######################################################################
#
# If this CIF has been generated from an entry in the Cambridge 
# Structural Database, then it will include bibliographic, chemical, 
# crystal, experimental, refinement or atomic coordinate data resulting 
# from the CCDC's data processing and validation procedures.
#
#######################################################################

data_KINKOJ
_symmetry_cell_setting           triclinic
_symmetry_space_group_name_H-M   'P -1'
_symmetry_Int_Tables_number      2
_space_group_name_Hall           '-P 1'
loop_
_symmetry_equiv_pos_site_id
_symmetry_equiv_pos_as_xyz
1 x,y,z
2 -x,-y,-z
_cell_length_a                   11.857(5)
_cell_length_b                   12.448(3)
_cell_length_c                   22.213(5)
_cell_angle_alpha                101.996(5)
_cell_angle_beta                 99.977(5)
_cell_angle_gamma                107.559(5)
_cell_volume                     2958.05
loop_
_atom_site_label
_atom_site_type_symbol
_atom_site_fract_x
_atom_site_fract_y
_atom_site_fract_z
Cd1 Cd -0.97229(5) 0.57423(4) 0.88858(2)
O1 O -0.8954(4) 0.7175(4) 0.8451(2)
O2 O -0.8654(8) 0.5576(6) 0.8003(4)
O3 O -0.5293(4) 0.9385(4) 0.6903(2)
O4 O -0.0807(4) 1.3809(4) 0.8625(2)
O5 O -0.1863(4) 1.4770(4) 0.8181(2)
N1 N -1.0373(5) 0.6896(5) 0.9562(3)
N2 N -1.1233(5) 0.8204(5) 0.9832(3)
N3 N -1.3833(7) 1.1338(7) 0.9812(4)
N4 N -1.4470(7) 1.1217(7) 0.9316(4)
N5 N -1.6971(6) 1.4479(5) 0.9699(4)
N6 N -1.8162(5) 1.5500(5) 0.9494(3)
C1 C -1.1027(6) 0.7485(5) 0.9346(3)
H1 H -1.1311 0.7418 0.8917
C2 C -1.0135(6) 0.7243(6) 1.0221(3)
H2 H -0.9694 0.6962 1.0499
C3 C -1.0652(6) 0.8060(6) 1.0394(3)
H3 H -1.0622 0.8445 1.0806
C4 C -1.1890(6) 0.8979(6) 0.9776(3)
C5 C -1.1648(7) 0.9935(6) 1.0283(4)
H4 H -1.1034 1.0090 1.0646
C6 C -1.2317(7) 1.0664(7) 1.0252(4)
H5 H -1.2154 1.1306 1.0596
C7 C -1.3215(7) 1.0454(7) 0.9722(4)
C8 C -1.3449(7) 0.9490(7) 0.9199(4)
H6 H -1.4047 0.9352 0.8831
C9 C -1.2792(7) 0.8747(7) 0.9230(4)
H7 H -1.2952 0.8099 0.8888
C10 C -1.7657(7) 1.4756(7) 0.9245(5)
H8 H -1.7761 1.4462 0.8810
C11 C -1.7767(6) 1.5729(7) 1.0140(4)
H9 H -1.7954 1.6239 1.0442
C12 C -1.7061(7) 1.5091(7) 1.0264(5)
H10 H -1.6697 1.5072 1.0666
C13 C -1.6341(7) 1.3662(7) 0.9587(4)
C14 C -1.6269(9) 1.3162(8) 0.8987(5)
H11 H -1.6645 1.3346 0.8639
C15 C -1.5646(8) 1.2393(8) 0.8897(4)
H12 H -1.5583 1.2072 0.8492
C16 C -1.5120(8) 1.2110(7) 0.9416(4)
C17 C -1.5152(8) 1.2586(8) 1.0021(4)
H13 H -1.4776 1.2390 1.0364
C18 C -1.5785(8) 1.3399(8) 1.0108(5)
H14 H -1.5821 1.3747 1.0514
C19 C -0.8459(8) 0.6654(6) 0.8095(4)
C20 C -0.7606(8) 0.7359(7) 0.7775(4)
C21 C -0.7000(7) 0.6861(7) 0.7377(4)
H15 H -0.7125 0.6065 0.7298
C22 C -0.6200(7) 0.7556(6) 0.7096(3)
H16 H -0.5798 0.7228 0.6828
C23 C -0.6025(6) 0.8733(6) 0.7226(3)
C24 C -0.6568(7) 0.9254(7) 0.7640(4)
H17 H -0.6408 1.0057 0.7731
C25 C -0.7358(7) 0.8571(6) 0.7922(4)
H18 H -0.7721 0.8918 0.8207
C26 C -0.4482(6) 1.0502(6) 0.7271(3)
C27 C -0.3549(6) 1.0573(6) 0.7772(3)
H19 H -0.3508 0.9904 0.7884
C28 C -0.2694(6) 1.1655(6) 0.8093(3)
H20 H -0.2065 1.1715 0.8427
C29 C -0.2743(6) 1.2680(6) 0.7933(3)
C30 C -0.3713(6) 1.2570(6) 0.7437(3)
H21 H -0.3781 1.3237 0.7333
C31 C -0.4572(6) 1.1482(6) 0.7101(3)
H22 H -0.5203 1.1413 0.6766
C32 C -0.1764(6) 1.3823(7) 0.8268(3)
Cd1_2 Cd -1.97229(5) 1.57423(4) 0.88858(2)
Cd1_3 Cd 0.02771(5) 1.57423(4) 0.88858(2)
O4_2 O -1.0807(4) 0.3809(4) 0.8625(2)
O5_2 O -1.1863(4) 0.4770(4) 0.8181(2)
N6_2 N -0.8162(5) 0.5500(5) 0.9494(3)
Cd2 Cd -0.55126(4) 0.41386(4) 0.60484(2)
O6 O -0.3470(4) 0.5144(4) 0.6856(2)
O7 O -0.4496(4) 0.6090(4) 0.6376(2)
O8 O 0.0047(4) 1.0522(4) 0.8053(2)
O9 O 0.2984(5) 1.4155(4) 0.6720(2)
O10 O 0.3662(4) 1.2691(4) 0.6469(2)
N7 N 0.3119(5) -0.5553(5) 0.5316(3)
N8 N 0.1949(5) -0.4595(5) 0.5003(3)
N9 N -0.0872(5) -0.1674(5) 0.5011(3)
N10 N -0.0740(5) -0.0943(5) 0.5509(3)
N11 N -0.3743(5) 0.1783(5) 0.5232(2)
N12 N -0.4675(5) 0.3059(5) 0.5453(3)
C33 C -0.3561(6) 0.6090(6) 0.6762(3)
C34 C -0.2574(6) 0.7243(6) 0.7096(3)
C35 C -0.1603(6) 0.7364(6) 0.7578(3)
H23 H -0.1537 0.6705 0.7694
C36 C -0.0729(6) 0.8449(6) 0.7892(3)
H24 H -0.0089 0.8524 0.8225
C37 C -0.0808(6) 0.9421(6) 0.7711(3)
C38 C -0.1750(6) 0.9341(6) 0.7211(3)
H25 H -0.1781 1.0000 0.7084
C39 C -0.2637(6) 0.8248(6) 0.6910(3)
H26 H -0.3283 0.8175 0.6581
C40 C 0.0722(6) 1.1154(6) 0.7696(3)
C41 C 0.1283(6) 1.0616(6) 0.7291(3)
H27 H 0.1178 0.9827 0.7232
C42 C 0.2006(6) 1.1280(6) 0.6977(3)
H28 H 0.2389 1.0935 0.6704
C43 C 0.2157(6) 1.2443(6) 0.7068(3)
C44 C 0.1553(7) 1.2963(6) 0.7445(3)
H29 H 0.1638 1.3744 0.7487
C45 C 0.0800(6) 1.2303(6) 0.7768(3)
H30 H 0.0374 1.2634 0.8019
C46 C 0.3004(6) 1.3166(6) 0.6731(3)
C47 C 0.2612(6) -0.4798(6) 0.5500(4)
H31 H 0.2695 -0.4437 0.5924
C48 C 0.2769(6) -0.5867(7) 0.4662(4)
H32 H 0.2997 -0.6404 0.4398
C49 C 0.2056(6) -0.5292(6) 0.4458(4)
H33 H 0.1706 -0.5350 0.4039
C50 C 0.1251(6) -0.3838(6) 0.5030(4)
C51 C 0.0437(6) -0.3919(7) 0.4476(4)
H34 H 0.0336 -0.4468 0.4098
C52 C -0.0221(7) -0.3171(7) 0.4498(4)
H35 H -0.0760 -0.3215 0.4128
C53 C -0.0095(6) -0.2362(6) 0.5056(4)
C54 C 0.0735(7) -0.2270(7) 0.5609(4)
H36 H 0.0839 -0.1714 0.5986
C55 C 0.1410(6) -0.3020(7) 0.5594(4)
H37 H 0.1962 -0.2968 0.5961
C56 C -0.4005(6) 0.2496(6) 0.5700(3)
H38 H -0.3750 0.2576 0.6132
C57 C -0.4858(6) 0.2690(6) 0.4801(3)
H39 H -0.5302 0.2938 0.4506
C58 C -0.4289(6) 0.1907(6) 0.4658(3)
H40 H -0.4270 0.1528 0.4254
C59 C -0.3000(6) 0.1068(5) 0.5318(3)
C60 C -0.2091(6) 0.1368(6) 0.5866(3)
H41 H -0.1969 0.2017 0.6199
C61 C -0.1369(7) 0.0696(6) 0.5913(3)
H42 H -0.0746 0.0899 0.6280
C62 C -0.1558(6) -0.0287(6) 0.5419(3)
C63 C -0.2499(6) -0.0590(6) 0.4877(3)
H43 H -0.2638 -0.1247 0.4546
C64 C -0.3227(6) 0.0082(6) 0.4831(3)
H44 H -0.3869 -0.0130 0.4472
Cd2_2 Cd 0.44874(4) -0.58614(4) 0.60484(2)
Cd2_3 Cd 0.44874(4) 1.41386(4) 0.60484(2)
O9_2 O -0.7016(5) 0.4155(4) 0.6720(2)
O10_2 O -0.6338(4) 0.2691(4) 0.6469(2)
N7_2 N -0.6881(5) 0.4447(5) 0.5316(3)
O11 O -0.3657(5) 1.5731(6) 0.8431(3)
C65 C -0.4877(10) 1.5461(13) 0.8047(5)
O12 O -0.1317(7) 0.4413(6) 0.6833(3)
loop_
_geom_bond_atom_site_label_1
_geom_bond_atom_site_label_2
_geom_bond_site_symmetry_1
_geom_bond_site_symmetry_2
Cd1 O1 1_555 1_555
O1 C19 1_555 1_555
O2 Cd1 1_555 1_555
O3 C23 1_555 1_555
O4 C32 1_555 1_555
O5 C32 1_555 1_555
N1 Cd1 1_555 1_555
N2 C1 1_555 1_555
N3 N4 1_555 1_555
N4 C16 1_555 1_555
N5 C10 1_555 1_555
N6 C10 1_555 1_555
C1 N1 1_555 1_555
H1 C1 1_555 1_555
C2 N1 1_555 1_555
H2 C2 1_555 1_555
C3 N2 1_555 1_555
H3 C3 1_555 1_555
C4 N2 1_555 1_555
C5 C4 1_555 1_555
H4 C5 1_555 1_555
C6 C5 1_555 1_555
H5 C6 1_555 1_555
C7 N3 1_555 1_555
C8 C7 1_555 1_555
H6 C8 1_555 1_555
C9 C4 1_555 1_555
H7 C9 1_555 1_555
C10 H8 1_555 1_555
C11 N6 1_555 1_555
H9 C11 1_555 1_555
C12 N5 1_555 1_555
H10 C12 1_555 1_555
C13 N5 1_555 1_555
C14 C13 1_555 1_555
H11 C14 1_555 1_555
C15 C14 1_555 1_555
H12 C15 1_555 1_555
C16 C15 1_555 1_555
C17 C16 1_555 1_555
H13 C17 1_555 1_555
C18 C13 1_555 1_555
H14 C18 1_555 1_555
C19 O2 1_555 1_555
C20 C19 1_555 1_555
C21 C20 1_555 1_555
H15 C21 1_555 1_555
C22 C21 1_555 1_555
H16 C22 1_555 1_555
C23 C22 1_555 1_555
C24 C23 1_555 1_555
H17 C24 1_555 1_555
C25 C20 1_555 1_555
H18 C25 1_555 1_555
C26 O3 1_555 1_555
C27 C26 1_555 1_555
H19 C27 1_555 1_555
C28 C27 1_555 1_555
H20 C28 1_555 1_555
C29 C28 1_555 1_555
C30 C29 1_555 1_555
H21 C30 1_555 1_555
C31 C26 1_555 1_555
H22 C31 1_555 1_555
C32 C29 1_555 1_555
Cd2 O6 1_555 1_555
O6 C33 1_555 1_555
O7 Cd2 1_555 1_555
O8 C37 1_555 1_555
O9 C46 1_555 1_555
O10 C46 1_555 1_555
N7 C47 1_555 1_555
N8 C47 1_555 1_555
N9 N10 1_555 1_555
N10 C62 1_555 1_555
N11 C56 1_555 1_555
N12 Cd2 1_555 1_555
C33 O7 1_555 1_555
C34 C33 1_555 1_555
C35 C34 1_555 1_555
H23 C35 1_555 1_555
C36 C35 1_555 1_555
H24 C36 1_555 1_555
C37 C36 1_555 1_555
C38 C37 1_555 1_555
H25 C38 1_555 1_555
C39 C34 1_555 1_555
H26 C39 1_555 1_555
C40 O8 1_555 1_555
C41 C40 1_555 1_555
H27 C41 1_555 1_555
C42 C41 1_555 1_555
H28 C42 1_555 1_555
C43 C42 1_555 1_555
C44 C43 1_555 1_555
H29 C44 1_555 1_555
C45 C40 1_555 1_555
H30 C45 1_555 1_555
C46 C43 1_555 1_555
C47 H31 1_555 1_555
C48 N7 1_555 1_555
H32 C48 1_555 1_555
C49 N8 1_555 1_555
H33 C49 1_555 1_555
C50 N8 1_555 1_555
C51 C50 1_555 1_555
H34 C51 1_555 1_555
C52 C51 1_555 1_555
H35 C52 1_555 1_555
C53 N9 1_555 1_555
C54 C53 1_555 1_555
H36 C54 1_555 1_555
C55 C50 1_555 1_555
H37 C55 1_555 1_555
C56 N12 1_555 1_555
H38 C56 1_555 1_555
C57 N12 1_555 1_555
H39 C57 1_555 1_555
C58 N11 1_555 1_555
H40 C58 1_555 1_555
C59 N11 1_555 1_555
C60 C59 1_555 1_555
H41 C60 1_555 1_555
C61 C60 1_555 1_555
H42 C61 1_555 1_555
C62 C61 1_555 1_555
C63 C62 1_555 1_555
H43 C63 1_555 1_555
C64 C59 1_555 1_555
H44 C64 1_555 1_555
O11 C65 1_555 1_555
Cd1_2 N6 1_555 1_555
Cd1_3 O4 1_555 1_555
O4_2 Cd1 1_555 1_555
O5_2 Cd1 1_555 1_555
N6_2 Cd1 1_555 1_555
Cd2_2 N7 1_555 1_555
Cd2_3 O9 1_555 1_555
O9_2 Cd2 1_555 1_555
O10_2 Cd2 1_555 1_555
N7_2 Cd2 1_555 1_555
O5 Cd1_3 1_555 1_555
C2 C3 1_555 1_555
C6 C7 1_555 1_555
C8 C9 1_555 1_555
C11 C12 1_555 1_555
C17 C18 1_555 1_555
C24 C25 1_555 1_555
C30 C31 1_555 1_555
O10 Cd2_3 1_555 1_555
C38 C39 1_555 1_555
C44 C45 1_555 1_555
C48 C49 1_555 1_555
C52 C53 1_555 1_555
C54 C55 1_555 1_555
C57 C58 1_555 1_555
C63 C64 1_555 1_555

#END
