
#######################################################################
#
#                 Cambridge Crystallographic Data Centre
#                                CCDC 
#
#######################################################################
#
# If this CIF has been generated from an entry in the Cambridge 
# Structural Database, then it will include bibliographic, chemical, 
# crystal, experimental, refinement or atomic coordinate data resulting 
# from the CCDC's data processing and validation procedures.
#
#######################################################################

data_KINKUP
_symmetry_cell_setting           triclinic
_symmetry_space_group_name_H-M   'P 1'
_symmetry_Int_Tables_number      1
_space_group_name_Hall           'P 1'
loop_
_symmetry_equiv_pos_site_id
_symmetry_equiv_pos_as_xyz
1 x,y,z
_cell_length_a                   11.443(5)
_cell_length_b                   12.965(3)
_cell_length_c                   17.669(5)
_cell_angle_alpha                99.748(5)
_cell_angle_beta                 101.328(5)
_cell_angle_gamma                103.586(5)
_cell_volume                     2433.68
loop_
_atom_site_label
_atom_site_type_symbol
_atom_site_fract_x
_atom_site_fract_y
_atom_site_fract_z
Zn1 Zn -0.51954(13) 0.69780(14) 0.87998(8)
Zn2 Zn -0.45065(11) 0.98878(11) 0.69202(8)
Zn3 Zn 0.44878(12) 0.40330(11) 0.09527(8)
O1 O -0.6076(7) 0.7412(6) 0.7806(4)
O2 O -0.4583(7) 0.8670(7) 0.7570(4)
O3 O -0.5892(7) 0.8491(7) 0.6077(4)
O4 O -0.6062(7) 1.0171(7) 0.7268(5)
O5 O -0.8063(8) 1.0061(9) 0.7136(6)
O6 O 0.4739(7) 0.5161(7) 0.0243(4)
O7 O 0.5721(7) 0.6562(7) -0.0218(4)
O8 O 0.6005(7) 0.5213(7) 0.1829(5)
O9 O 0.6044(7) 0.3572(7) 0.0670(5)
O10 O 0.8046(7) 0.4319(8) 0.0771(5)
N1 N -0.6776(8) 0.6950(9) 0.9257(5)
N2 N -0.7995(9) 0.7280(9) 1.0060(6)
N3 N -1.0113(17) 0.8220(16) 1.2688(12)
N4 N -0.8326(10) 1.2154(10) 0.2399(6)
N5 N -0.5511(9) 1.1713(9) 0.5266(5)
N6 N -0.4667(9) 1.0972(8) 0.6175(6)
N7 N -0.4389(8) 0.8643(8) 0.9517(5)
N8 N -0.3531(9) 0.9963(8) 1.0614(5)
N9 N -0.0413(9) 1.2276(8) 1.3595(5)
N10 N -0.0039(10) 1.1706(9) 1.4058(6)
N11 N 0.3055(8) 1.3994(8) 1.7042(5)
N12 N 0.4011(8) 1.5317(8) 1.8097(5)
N13 N -0.3547(9) 0.6994(9) 0.8395(5)
N14 N -0.2201(9) 0.6732(9) 0.7701(6)
N15 N 0.0179(11) 0.5861(10) 0.5256(7)
N16 N -0.0474(11) 0.5726(10) 0.4566(6)
N17 N 0.1907(8) 0.5161(8) 0.2082(5)
N18 N 0.3185(9) 0.4735(9) 0.1371(6)
N19 N -1.3090(9) 0.9343(8) 1.6514(5)
N20 N -1.1864(9) 0.8900(9) 1.5757(5)
N21 N -0.9370(13) 0.8350(13) 1.3178(9)
N22 N -0.8690(9) 1.1325(9) 0.1821(5)
N23 N -1.1971(9) 1.1620(9) -0.0879(5)
N24 N -1.3332(9) 1.1047(8) -0.2048(5)
N25 N 0.4490(8) 0.2903(8) 0.1693(5)
N26 N 0.5303(9) 0.2206(8) 0.2686(5)
N27 N 0.8157(8) 0.1908(9) 0.5550(6)
N28 N 0.8482(9) 0.2735(8) 0.6148(6)
N29 N 1.1815(9) 0.2375(8) 0.8826(5)
N30 N 1.3230(8) 0.2930(8) 0.9976(5)
C1 C -0.6805(10) 0.7485(11) 0.9938(7)
H1 H -0.6107 0.7955 1.0305
C2 C -0.7982(11) 0.6328(11) 0.8916(7)
H2 H -0.8245 0.5884 0.8407
C3 C -0.8708(11) 0.6435(11) 0.9389(7)
H3 H -0.9531 0.6037 0.9305
C4 C -0.8401(10) 0.7641(13) 1.0730(7)
C5 C -0.7545(14) 0.7959(12) 1.1482(6)
H4 H -0.6710 0.8005 1.1527
C6 C -0.7987(16) 0.8201(14) 1.2148(8)
H5 H -0.7417 0.8471 1.2637
C7 C -0.9287(14) 0.8053(15) 1.2118(9)
C8 C -1.0010(15) 0.7820(13) 1.1350(9)
H6 H -1.0843 0.7793 1.1291
C9 C -0.9622(13) 0.7626(16) 1.0671(9)
H7 H -1.0171 0.7486 1.0177
C10 C -0.5376(11) 1.0771(11) 0.5480(7)
H8 H -0.5751 1.0076 0.5161
C11 C -0.4292(12) 1.2135(10) 0.6449(7)
H9 H -0.3778 1.2526 0.6939
C12 C -0.4799(11) 1.2546(10) 0.5890(7)
H10 H -0.4696 1.3284 0.5911
C13 C -0.6212(11) 1.1799(10) 0.4497(6)
C14 C -0.6782(13) 1.0867(12) 0.3906(7)
H11 H -0.6684 1.0195 0.3975
C15 C -0.7501(12) 1.0963(11) 0.3212(7)
H12 H -0.7907 1.0344 0.2810
C16 C -0.7619(10) 1.1932(10) 0.3110(7)
C17 C -0.7048(10) 1.2862(10) 0.3713(7)
H13 H -0.7130 1.3537 0.3637
C18 C -0.6367(11) 1.2780(11) 0.4414(7)
H14 H -0.6014 1.3390 0.4830
C19 C -0.3697(10) 0.8876(9) 1.0272(7)
H15 H -0.3383 0.8387 1.0521
C20 C -0.4660(11) 0.9547(11) 0.9368(7)
H16 H -0.5111 0.9604 0.8885
C21 C -0.4145(12) 1.0429(11) 1.0071(7)
H17 H -0.4213 1.1138 1.0139
C22 C -0.2739(10) 1.0530(10) 1.1370(7)
C23 C -0.2530(10) 1.1628(11) 1.1618(7)
H18 H -0.2932 1.2007 1.1302
C24 C -0.1716(12) 1.2178(10) 1.2344(7)
H19 H -0.1526 1.2934 1.2486
C25 C -0.1186(12) 1.1640(13) 1.2853(7)
C26 C -0.1378(12) 1.0506(11) 1.2591(7)
H20 H -0.0945 1.0133 1.2896
C27 C -0.2201(14) 0.9965(11) 1.1889(7)
H21 H -0.2411 0.9208 1.1750
C28 C 0.0747(11) 1.2363(9) 1.4800(7)
C29 C 0.0997(12) 1.3452(12) 1.5009(7)
H22 H 0.0649 1.3837 1.4671
C30 C 0.1808(13) 1.4001(11) 1.5760(8)
H23 H 0.2012 1.4755 1.5919
C31 C 0.2304(11) 1.3390(10) 1.6265(7)
C32 C 0.2016(12) 1.2261(10) 1.6024(7)
H24 H 0.2344 1.1854 1.6350
C33 C 0.1246(12) 1.1774(10) 1.5301(6)
H25 H 0.1045 1.1020 1.5135
C34 C 0.3322(11) 1.5031(11) 1.7353(6)
H26 H 0.3059 1.5524 1.7082
C35 C 0.3581(11) 1.3515(10) 1.7618(7)
H27 H 0.3545 1.2782 1.7572
C36 C 0.4162(11) 1.4351(10) 1.8265(7)
H28 H 0.4596 1.4278 1.8747
C37 C -0.3394(11) 0.6506(9) 0.7714(6)
H29 H -0.4040 0.6060 0.7296
C38 C -0.2375(10) 0.7613(11) 0.8823(6)
H30 H -0.2176 0.8069 0.9324
C39 C -0.1541(13) 0.7432(12) 0.8369(8)
H31 H -0.0687 0.7742 0.8510
C40 C -0.1704(13) 0.6357(13) 0.7061(7)
C41 C -0.2385(14) 0.6086(12) 0.6293(8)
H32 H -0.3227 0.6039 0.6172
C42 C -0.1783(16) 0.5883(11) 0.5698(7)
H33 H -0.2234 0.5696 0.5173
C43 C -0.0568(12) 0.5950(11) 0.5861(7)
C44 C 0.0061(13) 0.6186(13) 0.6580(9)
H34 H 0.0902 0.6227 0.6679
C45 C -0.0448(12) 0.6380(12) 0.7210(9)
H35 H 0.0029 0.6524 0.7727
C46 C 0.0249(12) 0.5606(11) 0.3980(8)
C47 C -0.0471(13) 0.5309(13) 0.3226(8)
H36 H -0.1318 0.5236 0.3135
C48 C 0.0068(12) 0.5110(11) 0.2586(7)
H37 H -0.0419 0.4834 0.2070
C49 C 0.1335(10) 0.5337(10) 0.2747(7)
C50 C 0.2087(14) 0.5676(13) 0.3507(7)
H38 H 0.2942 0.5801 0.3600
C51 C 0.1516(14) 0.5823(11) 0.4133(8)
H39 H 0.1995 0.6067 0.4652
C52 C 0.2900(11) 0.4739(11) 0.2061(7)
H40 H 0.3311 0.4493 0.2472
C53 C 0.1551(12) 0.5403(11) 0.1384(8)
H41 H 0.0898 0.5697 0.1233
C54 C 0.2332(9) 0.5135(10) 0.0929(6)
H42 H 0.2292 0.5211 0.0411
C55 C -1.2845(11) 0.9271(10) 1.5791(6)
H43 H -1.3308 0.9459 1.5368
C56 C -1.2179(10) 0.8949(10) 1.6948(7)
H44 H -1.2108 0.8880 1.7469
C57 C -1.1422(12) 0.8686(11) 1.6484(7)
H45 H -1.0746 0.8418 1.6628
C58 C -1.1377(12) 0.8736(13) 1.5079(7)
C59 C -1.2162(15) 0.8303(15) 1.4299(8)
H46 H -1.3023 0.8104 1.4201
C60 C -1.154(2) 0.8200(17) 1.3692(9)
H47 H -1.2050 0.7966 1.3180
C61 C -1.0258(19) 0.8401(15) 1.3746(9)
C62 C -0.9601(16) 0.8719(13) 1.4522(9)
H48 H -0.8749 0.8815 1.4617
C63 C -1.0078(12) 0.8913(14) 1.5185(8)
H49 H -0.9551 0.9156 1.5691
C64 C -1.2310(10) 1.0956(10) -0.1614(7)
H50 H -1.1865 1.0490 -0.1790
C65 C -1.3677(11) 1.1831(11) -0.1568(6)
H51 H -1.4380 1.2061 -0.1723
C66 C -1.2887(11) 1.2209(11) -0.0867(7)
H52 H -1.2917 1.2743 -0.0454
C67 C -1.1030(11) 1.1613(11) -0.0210(7)
C68 C -1.0691(14) 1.0671(12) -0.0185(8)
H53 H -1.0985 1.0093 -0.0628
C69 C -0.9907(17) 1.0566(15) 0.0499(9)
H54 H -0.9711 0.9917 0.0537
C70 C -0.9426(10) 1.1520(10) 0.1136(7)
C71 C -0.9767(11) 1.2434(11) 0.1085(7)
H55 H -0.9455 1.3037 0.1509
C72 C -1.0597(9) 1.2491(11) 0.0393(6)
H56 H -1.0834 1.3123 0.0358
C73 C 0.5221(11) 0.3091(9) 0.2406(7)
H57 H 0.5652 0.3792 0.2697
C74 C 0.4055(11) 0.1778(11) 0.1473(7)
H58 H 0.3509 0.1386 0.0993
C75 C 0.4560(11) 0.1310(13) 0.2084(7)
H59 H 0.4427 0.0575 0.2085
C76 C 0.6035(11) 0.2128(11) 0.3387(7)
C77 C 0.6259(10) 0.1181(10) 0.3521(7)
H60 H 0.5946 0.0552 0.3119
C78 C 0.6924(11) 0.1140(11) 0.4226(7)
H61 H 0.7055 0.0478 0.4296
C79 C 0.7434(11) 0.2057(11) 0.4864(6)
C80 C 0.7215(12) 0.3017(11) 0.4762(8)
H62 H 0.7516 0.3622 0.5185
C81 C 0.6543(12) 0.3117(10) 0.4031(7)
H63 H 0.6425 0.3783 0.3959
C82 C 1.2210(12) 0.3037(11) 0.9550(7)
H64 H 1.1798 0.3528 0.9734
C83 C 1.3578(12) 0.2167(11) 0.9437(7)
H65 H 1.4282 0.1924 0.9552
C84 C 1.2718(11) 0.1857(10) 0.8733(6)
H66 H 1.2735 0.1387 0.8278
C85 C 1.0855(10) 0.2438(10) 0.8197(7)
C86 C 1.0298(12) 0.1512(10) 0.7542(7)
H67 H 1.0460 0.0846 0.7562
C87 C 0.9528(11) 0.1633(10) 0.6892(7)
H68 H 0.9180 0.1036 0.6466
C88 C 0.9240(11) 0.2580(10) 0.6833(7)
C89 C 0.9627(16) 0.3380(14) 0.7479(8)
H69 H 0.9352 0.4001 0.7481
C90 C 1.0450(17) 0.3305(14) 0.8165(9)
H70 H 1.0712 0.3884 0.8606
C91 C -0.5638(12) 0.7988(11) 0.7388(7)
C92 C -0.6532(10) 0.7936(9) 0.6603(6)
H71 H -0.6910 0.7169 0.6332
C93 C -0.7550(10) 0.8456(11) 0.6700(7)
H72 H -0.8121 0.8313 0.6186
H73 H -0.8004 0.8103 0.7039
C94 C -0.7156(12) 0.9651(11) 0.7038(7)
C95 C 0.5635(11) 0.5902(10) 0.0283(7)
C96 C 0.6869(11) 0.6246(10) 0.0908(6)
H74 H 0.6943 0.6941 0.1248
H75 H 0.7541 0.6349 0.0644
C97 C 0.7016(10) 0.5395(10) 0.1440(6)
H76 H 0.7797 0.5703 0.1849
C98 C 0.7061(13) 0.4312(12) 0.0951(7)
Zn1_2 Zn 0.48046(13) 0.69780(14) -0.12002(8)
Zn1_3 Zn 0.48046(13) 1.69780(14) 1.87998(8)
Zn2_2 Zn -1.45065(11) 0.98878(11) -0.30798(8)
Zn2_3 Zn -1.45065(11) 0.98878(11) 1.69202(8)
Zn3_2 Zn 1.44878(12) 0.40330(11) 1.09527(8)
O7_2 O -0.4279(7) 0.6562(7) 0.9782(4)
N12_2 N -0.5989(8) 0.5317(8) 0.8097(5)
N19_2 N -0.3090(9) 0.9343(8) 0.6514(5)
N24_2 N -0.3332(9) 1.1047(8) 0.7952(5)
N30_2 N 0.3230(8) 0.2930(8) -0.0024(5)
loop_
_geom_bond_atom_site_label_1
_geom_bond_atom_site_label_2
_geom_bond_site_symmetry_1
_geom_bond_site_symmetry_2
Zn1 O1 1_555 1_555
Zn2 O2 1_555 1_555
Zn3 O6 1_555 1_555
O1 C91 1_555 1_555
O2 C91 1_555 1_555
O3 Zn2 1_555 1_555
O4 Zn2 1_555 1_555
O5 C94 1_555 1_555
O6 C95 1_555 1_555
O7 C95 1_555 1_555
O8 Zn3 1_555 1_555
O9 Zn3 1_555 1_555
O10 C98 1_555 1_555
N1 Zn1 1_555 1_555
N2 C1 1_555 1_555
N3 N21 1_555 1_555
N4 N22 1_555 1_555
N5 C10 1_555 1_555
N6 Zn2 1_555 1_555
N7 Zn1 1_555 1_555
N8 C19 1_555 1_555
N9 N10 1_555 1_555
N10 C28 1_555 1_555
N11 C31 1_555 1_555
N12 C34 1_555 1_555
N13 Zn1 1_555 1_555
N14 C37 1_555 1_555
N15 N16 1_555 1_555
N16 C46 1_555 1_555
N17 C49 1_555 1_555
N18 Zn3 1_555 1_555
N19 C55 1_555 1_555
N20 C55 1_555 1_555
N21 C61 1_555 1_555
N22 C70 1_555 1_555
N23 C64 1_555 1_555
N24 C64 1_555 1_555
N25 Zn3 1_555 1_555
N26 C73 1_555 1_555
N27 N28 1_555 1_555
N28 C88 1_555 1_555
N29 C82 1_555 1_555
N30 C82 1_555 1_555
C1 N1 1_555 1_555
H1 C1 1_555 1_555
C2 N1 1_555 1_555
H2 C2 1_555 1_555
C3 N2 1_555 1_555
H3 C3 1_555 1_555
C4 N2 1_555 1_555
C5 C4 1_555 1_555
H4 C5 1_555 1_555
C6 C5 1_555 1_555
H5 C6 1_555 1_555
C7 N3 1_555 1_555
C8 C7 1_555 1_555
H6 C8 1_555 1_555
C9 C4 1_555 1_555
H7 C9 1_555 1_555
C10 N6 1_555 1_555
H8 C10 1_555 1_555
C11 N6 1_555 1_555
H9 C11 1_555 1_555
C12 N5 1_555 1_555
H10 C12 1_555 1_555
C13 N5 1_555 1_555
C14 C13 1_555 1_555
H11 C14 1_555 1_555
C15 C14 1_555 1_555
H12 C15 1_555 1_555
C16 N4 1_555 1_555
C17 C16 1_555 1_555
H13 C17 1_555 1_555
C18 C13 1_555 1_555
H14 C18 1_555 1_555
C19 N7 1_555 1_555
H15 C19 1_555 1_555
C20 N7 1_555 1_555
H16 C20 1_555 1_555
C21 N8 1_555 1_555
H17 C21 1_555 1_555
C22 N8 1_555 1_555
C23 C22 1_555 1_555
H18 C23 1_555 1_555
C24 C23 1_555 1_555
H19 C24 1_555 1_555
C25 N9 1_555 1_555
C26 C25 1_555 1_555
H20 C26 1_555 1_555
C27 C22 1_555 1_555
H21 C27 1_555 1_555
C28 C29 1_555 1_555
C29 H22 1_555 1_555
C30 C29 1_555 1_555
H23 C30 1_555 1_555
C31 C30 1_555 1_555
C32 C31 1_555 1_555
H24 C32 1_555 1_555
C33 C28 1_555 1_555
H25 C33 1_555 1_555
C34 N11 1_555 1_555
H26 C34 1_555 1_555
C35 N11 1_555 1_555
H27 C35 1_555 1_555
C36 N12 1_555 1_555
H28 C36 1_555 1_555
C37 N13 1_555 1_555
H29 C37 1_555 1_555
C38 N13 1_555 1_555
H30 C38 1_555 1_555
C39 N14 1_555 1_555
H31 C39 1_555 1_555
C40 N14 1_555 1_555
C41 C40 1_555 1_555
H32 C41 1_555 1_555
C42 C41 1_555 1_555
H33 C42 1_555 1_555
C43 N15 1_555 1_555
C44 C43 1_555 1_555
H34 C44 1_555 1_555
C45 C40 1_555 1_555
H35 C45 1_555 1_555
C46 C47 1_555 1_555
C47 H36 1_555 1_555
C48 C47 1_555 1_555
H37 C48 1_555 1_555
C49 C48 1_555 1_555
C50 C49 1_555 1_555
H38 C50 1_555 1_555
C51 C46 1_555 1_555
H39 C51 1_555 1_555
C52 N17 1_555 1_555
H40 C52 1_555 1_555
C53 N17 1_555 1_555
H41 C53 1_555 1_555
C54 N18 1_555 1_555
H42 C54 1_555 1_555
C55 H43 1_555 1_555
C56 N19 1_555 1_555
H44 C56 1_555 1_555
C57 N20 1_555 1_555
H45 C57 1_555 1_555
C58 N20 1_555 1_555
C59 C58 1_555 1_555
H46 C59 1_555 1_555
C60 C59 1_555 1_555
H47 C60 1_555 1_555
C61 C60 1_555 1_555
C62 C61 1_555 1_555
H48 C62 1_555 1_555
C63 C58 1_555 1_555
H49 C63 1_555 1_555
C64 H50 1_555 1_555
C65 N24 1_555 1_555
H51 C65 1_555 1_555
C66 N23 1_555 1_555
H52 C66 1_555 1_555
C67 N23 1_555 1_555
C68 C67 1_555 1_555
H53 C68 1_555 1_555
C69 C68 1_555 1_555
H54 C69 1_555 1_555
C70 C69 1_555 1_555
C71 C70 1_555 1_555
H55 C71 1_555 1_555
C72 C67 1_555 1_555
H56 C72 1_555 1_555
C73 N25 1_555 1_555
H57 C73 1_555 1_555
C74 N25 1_555 1_555
H58 C74 1_555 1_555
C75 N26 1_555 1_555
H59 C75 1_555 1_555
C76 N26 1_555 1_555
C77 C76 1_555 1_555
H60 C77 1_555 1_555
C78 C77 1_555 1_555
H61 C78 1_555 1_555
C79 N27 1_555 1_555
C80 C79 1_555 1_555
H62 C80 1_555 1_555
C81 C76 1_555 1_555
H63 C81 1_555 1_555
C82 H64 1_555 1_555
C83 N30 1_555 1_555
H65 C83 1_555 1_555
C84 N29 1_555 1_555
H66 C84 1_555 1_555
C85 N29 1_555 1_555
C86 C85 1_555 1_555
H67 C86 1_555 1_555
C87 C86 1_555 1_555
H68 C87 1_555 1_555
C88 C87 1_555 1_555
C89 C88 1_555 1_555
H69 C89 1_555 1_555
C90 C85 1_555 1_555
H70 C90 1_555 1_555
C91 C92 1_555 1_555
C92 O3 1_555 1_555
H71 C92 1_555 1_555
C93 C92 1_555 1_555
H72 C93 1_555 1_555
H73 C93 1_555 1_555
C94 O4 1_555 1_555
C95 C96 1_555 1_555
C96 H74 1_555 1_555
H75 C96 1_555 1_555
C97 O8 1_555 1_555
H76 C97 1_555 1_555
C98 O9 1_555 1_555
Zn1_2 O7 1_555 1_555
Zn1_3 N12 1_555 1_555
Zn2_2 N24 1_555 1_555
Zn2_3 N19 1_555 1_555
Zn3_2 N30 1_555 1_555
O7_2 Zn1 1_555 1_555
N12_2 Zn1 1_555 1_555
N19_2 Zn2 1_555 1_555
N24_2 Zn2 1_555 1_555
N30_2 Zn3 1_555 1_555
N18 C52 1_555 1_555
C2 C3 1_555 1_555
C6 C7 1_555 1_555
C8 C9 1_555 1_555
C11 C12 1_555 1_555
C15 C16 1_555 1_555
C17 C18 1_555 1_555
C20 C21 1_555 1_555
C24 C25 1_555 1_555
C26 C27 1_555 1_555
C32 C33 1_555 1_555
C35 C36 1_555 1_555
C38 C39 1_555 1_555
C42 C43 1_555 1_555
C44 C45 1_555 1_555
C50 C51 1_555 1_555
C53 C54 1_555 1_555
C56 C57 1_555 1_555
C62 C63 1_555 1_555
C65 C66 1_555 1_555
C71 C72 1_555 1_555
C74 C75 1_555 1_555
C78 C79 1_555 1_555
C80 C81 1_555 1_555
C83 C84 1_555 1_555
C89 C90 1_555 1_555
C93 C94 1_555 1_555
C96 C97 1_555 1_555
C97 C98 1_555 1_555

#END
