
#######################################################################
#
#                 Cambridge Crystallographic Data Centre
#                                CCDC 
#
#######################################################################
#
# If this CIF has been generated from an entry in the Cambridge 
# Structural Database, then it will include bibliographic, chemical, 
# crystal, experimental, refinement or atomic coordinate data resulting 
# from the CCDC's data processing and validation procedures.
#
#######################################################################

data_KIPBAO
_symmetry_cell_setting           orthorhombic
_symmetry_space_group_name_H-M   'P 21 21 21'
_symmetry_Int_Tables_number      19
_space_group_name_Hall           'P 2ac 2ab'
loop_
_symmetry_equiv_pos_site_id
_symmetry_equiv_pos_as_xyz
1 x,y,z
2 1/2-x,-y,1/2+z
3 -x,1/2+y,1/2-z
4 1/2+x,1/2-y,-z
_cell_length_a                   8.5961(11)
_cell_length_b                   15.1874(18)
_cell_length_c                   25.425(3)
_cell_angle_alpha                90
_cell_angle_beta                 90
_cell_angle_gamma                90
_cell_volume                     3319.3
loop_
_atom_site_label
_atom_site_type_symbol
_atom_site_fract_x
_atom_site_fract_y
_atom_site_fract_z
C1 C 0.6819(6) 1.1987(3) 0.8170(2)
H1 H 0.6411 1.2486 0.8009
C2 C 0.5967(6) 1.1302(4) 0.8338(2)
H2 H 0.4891 1.1240 0.8322
C3 C 0.8434(6) 1.1077(3) 0.8486(2)
H3 H 0.9350 1.0804 0.8593
C4 C 0.5527(6) 0.7265(3) 1.19808(17)
H4 H 0.5179 0.7837 1.1925
C5 C 0.6157(7) 0.6084(3) 1.23504(19)
H5 H 0.6346 0.5664 1.2609
C6 C 0.6414(7) 0.5965(3) 1.1834(2)
H6 H 0.6788 0.5458 1.1672
C7 C 0.3973(10) 0.4344(6) 0.7750(3)
H7 H 0.505(11) 0.446(5) 0.756(3)
C8 C 0.3027(9) 0.3650(5) 0.7644(3)
H8 H 0.2954 0.3371 0.7319
C9 C 0.2738(7) 0.3948(4) 0.8436(2)
H9 H 0.2381 0.3938 0.8781
C10 C 0.4426(6) 0.5248(3) 0.85462(18)
C11 C 0.5829(7) 0.5594(4) 0.8421(2)
H10 H 0.6412 0.5350 0.8149
C12 C 0.6396(7) 0.6309(4) 0.8697(2)
H11 H 0.7351 0.6552 0.8605
C13 C 0.5568(5) 0.6661(3) 0.91033(16)
C14 C 0.4130(6) 0.6311(4) 0.9217(2)
H12 H 0.3539 0.6554 0.9487
C15 C 0.3557(6) 0.5611(4) 0.8940(2)
H13 H 0.2580 0.5383 0.9020
C16 C 0.6073(5) 0.6928(3) 1.10455(16)
C17 C 0.6616(6) 0.6290(3) 1.07037(18)
H14 H 0.6946 0.5749 1.0834
C18 C 0.6673(6) 0.6452(3) 1.01693(17)
H15 H 0.7072 0.6026 0.9944
C19 C 0.6143(5) 0.7240(3) 0.99655(16)
C20 C 0.5597(5) 0.7879(3) 1.03163(17)
H16 H 0.5243 0.8415 1.0187
C21 C 0.5575(5) 0.7728(3) 1.08505(17)
H17 H 0.5225 0.8163 1.1079
C22 C 0.6329(5) 0.8206(3) 0.91953(16)
C23 C 0.5356(6) 0.8507(3) 0.87998(18)
H18 H 0.4559 0.8150 0.8675
C24 C 0.5568(6) 0.9336(3) 0.85902(18)
H19 H 0.4908 0.9533 0.8325
C25 C 0.6738(5) 0.9876(3) 0.87663(18)
C26 C 0.7665(6) 0.9582(3) 0.9173(2)
H20 H 0.8425 0.9952 0.9310
C27 C 0.7484(6) 0.8758(3) 0.93761(19)
H21 H 0.8150 0.8565 0.9641
C28 C 0.8481(9) 1.4166(6) 0.9413(2)
H22 H 0.8161 1.4761 0.9504
C29 C 0.9659(8) 1.3978(5) 0.9811(2)
H23 H 1.0425 1.4447 0.9803
H24 H 1.0188 1.3438 0.9713
C30 C 0.9097(7) 1.3881(6) 1.0369(2)
H25 H 0.9839 1.3522 1.0560
H26 H 0.9086 1.4459 1.0532
C31 C 0.7566(8) 1.3492(6) 1.0428(2)
H27 H 0.7847 1.2880 1.0367
C32 C 0.6427(8) 1.3587(6) 1.0027(2)
H28 H 0.5811 1.4106 1.0105
H29 H 0.5735 1.3084 1.0043
C33 C 0.7020(8) 1.3668(5) 0.9476(2)
H30 H 0.7175 1.3080 0.9337
H31 H 0.6223 1.3949 0.9265
C34 C 0.9133(6) 1.4241(4) 0.8870(2)
C35 C 0.6968(6) 1.3427(4) 1.09960(19)
Ni1 Ni 1.02760(7) 1.26440(3) 0.81616(2)
N1 N 0.8385(5) 1.1851(2) 0.82676(15)
N2 N 0.7019(5) 1.0713(3) 0.85386(16)
N3 N 0.5588(5) 0.6897(3) 1.24427(14)
N4 N 0.6015(5) 0.6736(3) 1.15954(14)
N5 N 0.2243(5) 0.3413(3) 0.80778(16)
N6 N 0.3801(5) 0.4512(3) 0.82657(16)
N7 N 0.6148(5) 0.7368(3) 0.94163(14)
O1 O 0.9062(5) 1.3637(3) 0.85414(15)
O2 O 0.9722(6) 1.4979(3) 0.8782(2)
O3 O 0.6224(4) 1.2748(2) 1.11158(12)
O4 O 0.7221(5) 1.4059(3) 1.12929(17)
O5 O 1.1461(4) 1.1611(2) 0.77761(12)
H32 H 1.1550 1.1617 0.7445
H33 H 1.2152 1.1331 0.7945
Ni1_2 Ni 0.02760(7) 0.26440(3) 0.81616(2)
Ni1A Ni 0.47240(7) 0.73560(3) 1.31616(2)
Ni1C Ni 0.52760(7) 1.23560(3) 1.18384(2)
N3A N 0.9412(5) 1.3103(3) 0.74427(14)
N5_2 N 1.2243(5) 1.3413(3) 0.80778(16)
O3C O 1.1224(4) 1.2252(2) 0.88842(12)
O6 O 0.0468(7) 0.5667(3) 0.7895(2)
H34 H 0.0934 0.5232 0.8029
H35 H 0.0289 0.5565 0.7574
loop_
_geom_bond_atom_site_label_1
_geom_bond_atom_site_label_2
_geom_bond_site_symmetry_1
_geom_bond_site_symmetry_2
C1 H1 1_555 1_555
C2 C1 1_555 1_555
H2 C2 1_555 1_555
C3 H3 1_555 1_555
C4 H4 1_555 1_555
C5 H5 1_555 1_555
C6 C5 1_555 1_555
H6 C6 1_555 1_555
C7 H7 1_555 1_555
C8 C7 1_555 1_555
H8 C8 1_555 1_555
C9 H9 1_555 1_555
C10 C11 1_555 1_555
C11 H10 1_555 1_555
C12 C11 1_555 1_555
H11 C12 1_555 1_555
C13 C12 1_555 1_555
C14 C13 1_555 1_555
H12 C14 1_555 1_555
C15 C10 1_555 1_555
H13 C15 1_555 1_555
C16 C17 1_555 1_555
C17 H14 1_555 1_555
C18 C17 1_555 1_555
H15 C18 1_555 1_555
C19 C18 1_555 1_555
C20 C19 1_555 1_555
H16 C20 1_555 1_555
C21 C16 1_555 1_555
H17 C21 1_555 1_555
C22 C23 1_555 1_555
C23 H18 1_555 1_555
C24 C23 1_555 1_555
H19 C24 1_555 1_555
C25 C24 1_555 1_555
C26 C25 1_555 1_555
H20 C26 1_555 1_555
C27 C22 1_555 1_555
H21 C27 1_555 1_555
C28 H22 1_555 1_555
C29 C28 1_555 1_555
H23 C29 1_555 1_555
H24 C29 1_555 1_555
C30 C29 1_555 1_555
H25 C30 1_555 1_555
H26 C30 1_555 1_555
C31 C30 1_555 1_555
H27 C31 1_555 1_555
C32 C31 1_555 1_555
H28 C32 1_555 1_555
H29 C32 1_555 1_555
C33 C28 1_555 1_555
H30 C33 1_555 1_555
H31 C33 1_555 1_555
C34 C28 1_555 1_555
C35 C31 1_555 1_555
Ni1 N1 1_555 1_555
N1 C1 1_555 1_555
N2 C2 1_555 1_555
N3 C4 1_555 1_555
N4 C4 1_555 1_555
N5 C8 1_555 1_555
N6 C7 1_555 1_555
N7 C13 1_555 1_555
O1 C34 1_555 1_555
O2 C34 1_555 1_555
O3 C35 1_555 1_555
O4 C35 1_555 1_555
O5 Ni1 1_555 1_555
H32 O5 1_555 1_555
H33 O5 1_555 1_555
O6 H34 1_555 1_555
H35 O6 1_555 1_555
Ni1_2 N5 1_555 1_555
Ni1A N3 1_555 1_555
Ni1C O3 1_555 1_555
N3A Ni1 1_555 1_555
N5_2 Ni1 1_555 1_555
O3C Ni1 1_555 1_555
C3 N1 1_555 1_555
C3 N2 1_555 1_555
C5 N3 1_555 1_555
C6 N4 1_555 1_555
C9 N5 1_555 1_555
C9 N6 1_555 1_555
C10 N6 1_555 1_555
C14 C15 1_555 1_555
C16 N4 1_555 1_555
C19 N7 1_555 1_555
C20 C21 1_555 1_555
C22 N7 1_555 1_555
C25 N2 1_555 1_555
C26 C27 1_555 1_555
C32 C33 1_555 1_555
Ni1 O1 1_555 1_555

#END
