
#######################################################################
#
#                 Cambridge Crystallographic Data Centre
#                                CCDC 
#
#######################################################################
#
# If this CIF has been generated from an entry in the Cambridge 
# Structural Database, then it will include bibliographic, chemical, 
# crystal, experimental, refinement or atomic coordinate data resulting 
# from the CCDC's data processing and validation procedures.
#
#######################################################################

data_KIPJEA
_symmetry_cell_setting           monoclinic
_symmetry_space_group_name_H-M   'P 2/c'
_symmetry_Int_Tables_number      13
_space_group_name_Hall           '-P 2yc'
loop_
_symmetry_equiv_pos_site_id
_symmetry_equiv_pos_as_xyz
1 x,y,z
2 -x,y,1/2-z
3 -x,-y,-z
4 x,-y,1/2+z
_cell_length_a                   15.9819(10)
_cell_length_b                   6.6086(2)
_cell_length_c                   12.5145(7)
_cell_angle_alpha                90
_cell_angle_beta                 107.808(3)
_cell_angle_gamma                90
_cell_volume                     1258.43
loop_
_atom_site_label
_atom_site_type_symbol
_atom_site_fract_x
_atom_site_fract_y
_atom_site_fract_z
U1 U 0.155556(9) 0.050409(19) 0.924923(10)
O1 O 0.0410(2) 0.0254(5) 0.8865(3)
O2 O 0.2702(2) 0.0783(4) 0.9647(3)
O3 O 0.1439(2) 0.4025(5) 0.9619(3)
O4 O 0.1685(2) 0.7247(4) 1.0063(2)
O5 O 0.1575(2) 0.0923(5) 1.1143(2)
O6 O 0.1733(2) 0.1798(4) 1.2887(2)
O7 O 0.1385(2) 0.2378(5) 0.7506(2)
H1 H 0.1322 0.1444 0.6924
H2 H 0.1046 0.3538 0.7185
F1 F 0.4420(2) 1.0057(5) 1.1360(2)
F2 F 0.5782(2) 0.9281(4) 1.1616(3)
F3 F 0.47618(18) 0.7465(4) 1.05223(19)
C1 C 0.5000 0.7133(8) 1.2500
C2 C 0.4171(3) 0.5811(6) 1.2269(3)
C3 C 0.3400(3) 0.6166(6) 1.1391(3)
H3 H 0.3378 0.7246 1.0907
C4 C 0.2657(3) 0.4918(6) 1.1225(3)
C5 C 0.2662(3) 0.3410(6) 1.2019(3)
C6 C 0.3406(3) 0.3199(6) 1.2948(3)
H4 H 0.3395 0.2305 1.3517
C7 C 0.4161(3) 0.4301(6) 1.3036(4)
H5 H 0.4670 0.4024 1.3619
C8 C 0.1874(3) 0.5411(5) 1.0236(3)
C9 C 0.1930(3) 0.1986(6) 1.2001(3)
C10 C 0.4987(3) 0.8508(7) 1.1495(4)
O3A O 0.8561(2) 0.4025(5) 1.5381(3)
O4A O 0.8315(2) 0.7247(4) 1.4937(2)
O5A O 0.8425(2) 0.0923(5) 1.3857(2)
O6A O 0.8267(2) 0.1798(4) 1.2113(2)
F1A F 0.5580(2) 1.0057(5) 1.3640(2)
F2A F 0.4218(2) 0.9281(4) 1.3384(3)
F3A F 0.52382(18) 0.7465(4) 1.44777(19)
C2A C 0.5829(3) 0.5811(6) 1.2731(3)
C3A C 0.6600(3) 0.6166(6) 1.3609(3)
H3A H 0.6622 0.7246 1.4093
C4A C 0.7343(3) 0.4918(6) 1.3775(3)
C5A C 0.7338(3) 0.3410(6) 1.2981(3)
C6A C 0.6594(3) 0.3199(6) 1.2052(3)
H4A H 0.6605 0.2305 1.1483
C7A C 0.5839(3) 0.4301(6) 1.1964(4)
H5A H 0.5330 0.4024 1.1381
C8A C 0.8126(3) 0.5411(5) 1.4764(3)
C9A C 0.8070(3) 0.1986(6) 1.2999(3)
C10A C 0.5013(3) 0.8508(7) 1.3505(4)
U1A U 0.844444(9) 0.050409(19) 1.575077(10)
O1A O 0.9590(2) 0.0254(5) 1.6135(3)
O2A O 0.7298(2) 0.0783(4) 1.5353(3)
O7A O 0.8615(2) 0.2378(5) 1.7494(2)
H1A H 0.8678 0.1444 1.8076
H2A H 0.8954 0.3538 1.7815
U1_2 U 0.155556(9) 1.050409(19) 0.924923(10)
U1A_2 U 0.844444(9) 1.050409(19) 1.575077(10)
U1B U 0.844444(9) -0.050409(19) 1.075077(10)
U1C U 0.155556(9) -0.050409(19) 1.424923(10)
O4_2 O 0.1685(2) -0.2753(4) 1.0063(2)
O4A_2 O 0.8315(2) -0.2753(4) 1.4937(2)
O6B O 0.8267(2) -0.1798(4) 1.7113(2)
O6C O 0.1733(2) -0.1798(4) 0.7887(2)
O8 O 0.0319(3) 0.5430(5) 0.6450(4)
loop_
_geom_bond_atom_site_label_1
_geom_bond_atom_site_label_2
_geom_bond_site_symmetry_1
_geom_bond_site_symmetry_2
U1 O1 1_555 1_555
O2 U1 1_555 1_555
O3 U1 1_555 1_555
O4 C8 1_555 1_555
O5 U1 1_555 1_555
O6 C9 1_555 1_555
O7 U1 1_555 1_555
H1 O7 1_555 1_555
H2 O7 1_555 1_555
F1 C10 1_555 1_555
F2 C10 1_555 1_555
F3 C10 1_555 1_555
C1 C2 1_555 1_555
C2 C3 1_555 1_555
C3 H3 1_555 1_555
C4 C3 1_555 1_555
C5 C4 1_555 1_555
C6 C5 1_555 1_555
H4 C6 1_555 1_555
C7 C2 1_555 1_555
H5 C7 1_555 1_555
C8 O3 1_555 1_555
C9 O5 1_555 1_555
C10 C1 1_555 1_555
O3A C8A 1_555 1_555
O4A C8A 1_555 1_555
O5A C9A 1_555 1_555
O6A C9A 1_555 1_555
F1A C10A 1_555 1_555
F2A C10A 1_555 1_555
F3A C10A 1_555 1_555
C2A C1 1_555 1_555
C3A C2A 1_555 1_555
H3A C3A 1_555 1_555
C4A C3A 1_555 1_555
C5A C4A 1_555 1_555
C6A C5A 1_555 1_555
H4A C6A 1_555 1_555
C7A C2A 1_555 1_555
H5A C7A 1_555 1_555
C8A C4A 1_555 1_555
C9A C5A 1_555 1_555
C10A C1 1_555 1_555
U1A O3A 1_555 1_555
O1A U1A 1_555 1_555
O2A U1A 1_555 1_555
O7A U1A 1_555 1_555
H1A O7A 1_555 1_555
H2A O7A 1_555 1_555
U1_2 O4 1_555 1_555
U1A_2 O4A 1_555 1_555
U1B O6A 1_555 1_555
U1C O6 1_555 1_555
O4_2 U1 1_555 1_555
O4A_2 U1A 1_555 1_555
O6B U1A 1_555 1_555
O6C U1 1_555 1_555
C4 C8 1_555 1_555
C5 C9 1_555 1_555
C6 C7 1_555 1_555
O5A U1A 1_555 1_555
C6A C7A 1_555 1_555

#END
