
#######################################################################
#
#                 Cambridge Crystallographic Data Centre
#                                CCDC 
#
#######################################################################
#
# If this CIF has been generated from an entry in the Cambridge 
# Structural Database, then it will include bibliographic, chemical, 
# crystal, experimental, refinement or atomic coordinate data resulting 
# from the CCDC's data processing and validation procedures.
#
#######################################################################

data_KIPLAY
_symmetry_cell_setting           orthorhombic
_symmetry_space_group_name_H-M   'P n a 21'
_symmetry_Int_Tables_number      33
_space_group_name_Hall           'P 2c -2n'
loop_
_symmetry_equiv_pos_site_id
_symmetry_equiv_pos_as_xyz
1 x,y,z
2 -x,-y,1/2+z
3 1/2+x,1/2-y,z
4 1/2-x,1/2+y,1/2+z
_cell_length_a                   17.317(16)
_cell_length_b                   13.148(12)
_cell_length_c                   9.133(9)
_cell_angle_alpha                90
_cell_angle_beta                 90
_cell_angle_gamma                90
_cell_volume                     2079.44
loop_
_atom_site_label
_atom_site_type_symbol
_atom_site_fract_x
_atom_site_fract_y
_atom_site_fract_z
Ag1 Ag 0.96073(4) 0.33943(4) 0.05448(12)
N1 N 0.9463(4) 0.1962(5) 0.1692(8)
N2 N 0.9996(4) 0.1586(4) 0.2650(7)
N3 N 1.0984(4) 0.2908(4) 0.0450(9)
N4 N 1.1136(4) 0.2160(5) 0.1406(7)
N5 N 1.0550(4) 0.5082(6) 0.4758(8)
C1 C 0.9734(5) 0.0776(6) 0.3363(9)
C2 C 0.8996(6) 0.0597(7) 0.2840(10)
H1 H 0.8670 0.0069 0.3120
C3 C 0.8832(5) 0.1344(6) 0.1826(10)
C4 C 1.0195(8) 0.0206(12) 0.4462(16)
H2 H 1.0708 0.0482 0.4503
H3 H 1.0220 -0.0498 0.4186
H4 H 0.9956 0.0266 0.5406
C5 C 0.8161(6) 0.1519(10) 0.0930(17)
H5 H 0.7763 0.1828 0.1510
H6 H 0.7979 0.0882 0.0548
H7 H 0.8294 0.1962 0.0134
C6 C 1.1625(5) 0.1453(6) 0.0812(12)
C7 C 1.1798(6) 0.1804(7) -0.0581(9)
H8 H 1.2126 0.1508 -0.1266
C8 C 1.1361(5) 0.2720(7) -0.0732(8)
C9 C 1.1895(6) 0.0541(8) 0.1563(12)
H9 H 1.2090 0.0722 0.2512
H10 H 1.2299 0.0229 0.1000
H11 H 1.1474 0.0072 0.1671
C10 C 1.1308(9) 0.3427(9) -0.2054(15)
H12 H 1.1015 0.3102 -0.2814
H13 H 1.1818 0.3574 -0.2407
H14 H 1.1058 0.4048 -0.1773
C11 C 1.0727(5) 0.2101(5) 0.2779(8)
H15 H 1.1046 0.1688 0.3437
C12 C 1.0661(5) 0.3159(6) 0.3485(8)
C13 C 1.1292(5) 0.3832(7) 0.3495(12)
H16 H 1.1762 0.3646 0.3079
C14 C 1.1202(6) 0.4757(7) 0.4125(11)
H17 H 1.1622 0.5198 0.4116
C15 C 0.9958(6) 0.4419(6) 0.4774(9)
H18 H 0.9506 0.4608 0.5251
C16 C 0.9985(5) 0.3489(6) 0.4131(9)
H19 H 0.9549 0.3076 0.4125
Ag1A Ag 1.03927(4) 0.66057(4) 0.55448(12)
N5A N 0.9450(4) 0.4918(6) -0.0242(8)
B1 B 0.7761(5) 0.3463(8) -0.4654(12)
F1 F 0.6987(8) 0.3382(16) -0.490(2)
F2 F 0.8134(10) 0.3838(16) -0.5867(17)
F3 F 0.7926(11) 0.4040(16) -0.3462(18)
F4 F 0.8032(15) 0.2466(13) -0.444(4)
F5? F 0.6959(7) 0.3580(17) -0.464(2)
F6? F 0.7990(16) 0.2709(19) -0.557(3)
F7? F 0.8065(13) 0.4387(15) -0.517(3)
F8? F 0.8043(12) 0.3307(18) -0.3288(19)
F9? F 0.7104(17) 0.401(3) -0.455(4)
F10? F 0.788(2) 0.313(3) -0.606(2)
F11? F 0.8394(19) 0.404(3) -0.420(5)
F12? F 0.776(2) 0.261(2) -0.375(4)
loop_
_geom_bond_atom_site_label_1
_geom_bond_atom_site_label_2
_geom_bond_site_symmetry_1
_geom_bond_site_symmetry_2
Ag1 N1 1_555 1_555
N1 N2 1_555 1_555
N2 C1 1_555 1_555
N3 Ag1 1_555 1_555
N4 N3 1_555 1_555
N5 C14 1_555 1_555
C1 C2 1_555 1_555
C2 H1 1_555 1_555
C3 N1 1_555 1_555
C4 C1 1_555 1_555
H2 C4 1_555 1_555
H3 C4 1_555 1_555
H4 C4 1_555 1_555
C5 C3 1_555 1_555
H5 C5 1_555 1_555
H6 C5 1_555 1_555
H7 C5 1_555 1_555
C6 N4 1_555 1_555
C7 C6 1_555 1_555
H8 C7 1_555 1_555
C8 N3 1_555 1_555
C9 C6 1_555 1_555
H9 C9 1_555 1_555
H10 C9 1_555 1_555
H11 C9 1_555 1_555
C10 C8 1_555 1_555
H12 C10 1_555 1_555
H13 C10 1_555 1_555
H14 C10 1_555 1_555
C11 N2 1_555 1_555
H15 C11 1_555 1_555
C12 C11 1_555 1_555
C13 C12 1_555 1_555
H16 C13 1_555 1_555
C14 C13 1_555 1_555
H17 C14 1_555 1_555
C15 N5 1_555 1_555
H18 C15 1_555 1_555
C16 C12 1_555 1_555
H19 C16 1_555 1_555
B1 F1 1_555 1_555
F2 B1 1_555 1_555
F3 B1 1_555 1_555
F4 B1 1_555 1_555
Ag1A N5 1_555 1_555
N5A Ag1 1_555 1_555
N4 C11 1_555 1_555
C2 C3 1_555 1_555
C7 C8 1_555 1_555
C15 C16 1_555 1_555

#END
