
#######################################################################
#
#                 Cambridge Crystallographic Data Centre
#                                CCDC 
#
#######################################################################
#
# If this CIF has been generated from an entry in the Cambridge 
# Structural Database, then it will include bibliographic, chemical, 
# crystal, experimental, refinement or atomic coordinate data resulting 
# from the CCDC's data processing and validation procedures.
#
#######################################################################

data_KIPQEH
_symmetry_cell_setting           monoclinic
_symmetry_space_group_name_H-M   'P 21/c'
_symmetry_Int_Tables_number      14
_space_group_name_Hall           '-P 2ybc'
loop_
_symmetry_equiv_pos_site_id
_symmetry_equiv_pos_as_xyz
1 x,y,z
2 -x,1/2+y,1/2-z
3 -x,-y,-z
4 x,1/2-y,1/2+z
_cell_length_a                   9.289(4)
_cell_length_b                   10.210(5)
_cell_length_c                   17.241(7)
_cell_angle_alpha                90
_cell_angle_beta                 99.938(3)
_cell_angle_gamma                90
_cell_volume                     1610.61
loop_
_atom_site_label
_atom_site_type_symbol
_atom_site_fract_x
_atom_site_fract_y
_atom_site_fract_z
Cu1 Cu 0.92970(4) 0.06019(3) 0.83656(2)
N1 N 0.4859(3) -0.1397(2) 0.92443(15)
C1 C 0.4259(3) -0.2358(3) 0.87672(19)
H1 H 0.3398 -0.2707 0.8885
N2 N 0.4723(3) -0.2885(2) 0.81458(15)
C2 C 0.5967(3) -0.2304(3) 0.80210(17)
C3 C 0.6708(3) -0.1296(3) 0.84557(17)
C4 C 0.6128(3) -0.0834(3) 0.91135(18)
N3 N 0.6726(3) 0.0116(3) 0.95897(16)
H2 H 0.6313 0.0369 0.9974
H3 H 0.7525 0.0479 0.9514
N4 N 0.7932(3) -0.0955(2) 0.81328(15)
C5 C 0.7904(3) -0.1746(3) 0.75256(18)
H4 H 0.8606 -0.1740 0.7201
N5 N 0.6735(3) -0.2573(2) 0.74249(15)
C6 C 0.6335(4) -0.3530(3) 0.67910(19)
H5 H 0.5468 -0.3242 0.6448
H6 H 0.6156 -0.4364 0.7013
H7 H 0.7120 -0.3611 0.6497
C7 C 1.1411(3) 0.0322(3) 0.62211(17)
C8 C 1.2573(3) -0.0308(3) 0.59701(18)
H8 H 1.3084 -0.0959 0.6280
C9 C 1.2975(4) 0.0033(3) 0.52536(19)
H9 H 1.3752 -0.0395 0.5087
C10 C 1.2222(3) 0.1009(3) 0.47872(18)
H10 H 1.2491 0.1228 0.4309
C11 C 1.1065(3) 0.1658(3) 0.50377(17)
C12 C 1.0662(3) 0.1307(3) 0.57523(17)
H11 H 0.9886 0.1735 0.5919
C13 C 1.0942(3) -0.0010(3) 0.69925(17)
O1 O 0.9981(2) 0.0692(2) 0.72134(12)
O2 O 1.1566(2) -0.0977(2) 0.73832(12)
C14 C 1.0231(3) 0.2715(3) 0.45485(17)
O3 O 0.9375(2) 0.3433(2) 0.48449(12)
O4 O 1.0434(2) 0.28445(19) 0.38383(12)
O5 O 0.7610(2) 0.17731(19) 0.80907(12)
O6 O 1.0990(2) -0.05082(19) 0.87952(12)
H12 H 0.7996 0.2550 0.8061
H13 H 0.6863 0.1795 0.7717
H14 H 1.0960 -0.1049 0.9189
H15 H 1.1157 -0.0990 0.8368
Cu1C Cu 0.92970(4) 0.43981(3) 0.33656(2)
O3C O 0.9375(2) 0.1567(2) 0.98449(12)
O4C O 1.0434(2) 0.21555(19) 0.88383(12)
loop_
_geom_bond_atom_site_label_1
_geom_bond_atom_site_label_2
_geom_bond_site_symmetry_1
_geom_bond_site_symmetry_2
Cu1 N4 1_555 1_555
N1 C1 1_555 1_555
C1 H1 1_555 1_555
N2 C1 1_555 1_555
C2 N2 1_555 1_555
C3 C2 1_555 1_555
C4 N1 1_555 1_555
N3 C4 1_555 1_555
H2 N3 1_555 1_555
H3 N3 1_555 1_555
N4 C3 1_555 1_555
C5 N4 1_555 1_555
H4 C5 1_555 1_555
N5 C2 1_555 1_555
C6 N5 1_555 1_555
H5 C6 1_555 1_555
H6 C6 1_555 1_555
H7 C6 1_555 1_555
C7 C8 1_555 1_555
C8 H8 1_555 1_555
C9 C8 1_555 1_555
H9 C9 1_555 1_555
C10 C9 1_555 1_555
H10 C10 1_555 1_555
C11 C10 1_555 1_555
C12 C7 1_555 1_555
H11 C12 1_555 1_555
C13 C7 1_555 1_555
O1 Cu1 1_555 1_555
O2 C13 1_555 1_555
C14 C11 1_555 1_555
O3 C14 1_555 1_555
O4 C14 1_555 1_555
O5 Cu1 1_555 1_555
O6 Cu1 1_555 1_555
H12 O5 1_555 1_555
H13 O5 1_555 1_555
H14 O6 1_555 1_555
H15 O6 1_555 1_555
Cu1C O3 1_555 1_555
O3C Cu1 1_555 1_555
O4C Cu1 1_555 1_555
C3 C4 1_555 1_555
C5 N5 1_555 1_555
C11 C12 1_555 1_555
C13 O1 1_555 1_555
O4 Cu1C 1_555 1_555

#END
