
#######################################################################
#
#                 Cambridge Crystallographic Data Centre
#                                CCDC 
#
#######################################################################
#
# If this CIF has been generated from an entry in the Cambridge 
# Structural Database, then it will include bibliographic, chemical, 
# crystal, experimental, refinement or atomic coordinate data resulting 
# from the CCDC's data processing and validation procedures.
#
#######################################################################

data_KIPROS
_symmetry_cell_setting           triclinic
_symmetry_space_group_name_H-M   'P -1'
_symmetry_Int_Tables_number      2
_space_group_name_Hall           '-P 1'
loop_
_symmetry_equiv_pos_site_id
_symmetry_equiv_pos_as_xyz
1 x,y,z
2 -x,-y,-z
_cell_length_a                   9.2360(4)
_cell_length_b                   12.4650(7)
_cell_length_c                   23.2130(9)
_cell_angle_alpha                90.297(4)
_cell_angle_beta                 96.642(4)
_cell_angle_gamma                104.656(4)
_cell_volume                     2566.48
loop_
_atom_site_label
_atom_site_type_symbol
_atom_site_fract_x
_atom_site_fract_y
_atom_site_fract_z
Cu1 Cu 0.53793(10) 0.39197(7) 0.13804(4)
Cu2 Cu 0.47270(10) 0.10194(7) 0.50191(3)
Cu3 Cu 0.96288(9) 0.09657(6) -0.00516(3)
Cu4 Cu 1.05673(10) 0.61344(7) 0.64096(4)
N1 N 0.1377(6) 0.3840(4) 0.4429(2)
C1 C 0.1736(7) 0.4739(5) 0.4789(3)
H1 H 0.1177 0.5255 0.4703
N2 N 0.2767(6) 0.4998(4) 0.5245(2)
C2 C 0.3531(7) 0.4208(5) 0.5338(2)
C3 C 0.3309(7) 0.3248(5) 0.4997(3)
C4 C 0.2184(8) 0.3070(5) 0.4524(2)
N3 N 0.1859(7) 0.2193(4) 0.4154(2)
H2 H 0.1160 0.2130 0.3868
H3 H 0.2350 0.1693 0.4203
N4 N 0.4318(6) 0.2644(4) 0.5212(2)
C5 C 0.5104(7) 0.3254(5) 0.5674(3)
H4 H 0.5867 0.3049 0.5910
C6 C 0.5246(8) 0.5022(6) 0.6240(3)
H5 H 0.4744 0.5609 0.6194
H6 H 0.6310 0.5322 0.6238
H7 H 0.5061 0.4674 0.6601
N5 N 0.4676(6) 0.4209(4) 0.5766(2)
N6 N 0.6701(5) 0.3823(4) 0.0571(2)
C7 C 0.6835(6) 0.4681(4) 0.0219(2)
H8 H 0.6301 0.5193 0.0299
N7 N 0.7623(5) 0.4903(4) -0.0229(2)
C8 C 0.8354(6) 0.4123(4) -0.0313(2)
C9 C 0.8305(6) 0.3182(4) 0.0006(2)
C10 C 0.7419(6) 0.3023(4) 0.0471(2)
N8 N 0.7274(6) 0.2161(4) 0.0806(2)
H9 H 0.6728 0.2106 0.1086
H10 H 0.7724 0.1654 0.0745
N9 N 0.9196(5) 0.2566(4) -0.02056(19)
C11 C 0.9744(6) 0.3139(4) -0.0651(2)
H11 H 1.0374 0.2913 -0.0885
N10 N 0.9288(5) 0.4079(4) -0.07274(19)
C12 C 0.9657(7) 0.4870(5) -0.1187(2)
H12 H 0.9191 0.5468 -0.1144
H13 H 0.9291 0.4500 -0.1559
H14 H 1.0731 0.5160 -0.1159
C13 C 0.5080(6) 0.1278(4) 0.2407(2)
C14 C 0.5428(7) 0.0419(5) 0.2120(2)
H15 H 0.5578 0.0480 0.1731
C15 C 0.5554(8) -0.0530(5) 0.2406(2)
H16 H 0.5757 -0.1115 0.2207
C16 C 0.5377(7) -0.0601(5) 0.2990(2)
H17 H 0.5453 -0.1240 0.3183
C17 C 0.5086(6) 0.0276(5) 0.3289(2)
C18 C 0.4909(6) 0.1208(5) 0.2992(2)
H18 H 0.4675 0.1786 0.3186
C19 C 0.4892(6) 0.2300(5) 0.2106(2)
O1 O 0.4498(5) 0.3021(3) 0.23677(17)
O2 O 0.5210(4) 0.2390(3) 0.15793(15)
C20 C 0.5017(7) 0.0237(5) 0.3923(3)
O3 O 0.4819(7) 0.1063(4) 0.41828(18)
O4 O 0.5182(6) -0.0638(4) 0.41628(17)
C21 C 0.9256(7) 0.1387(5) 0.5597(2)
C22 C 0.9584(7) 0.2460(5) 0.5837(3)
H19 H 0.8920 0.2901 0.5748
C23 C 1.0913(7) 0.2877(5) 0.6213(3)
C24 C 1.1904(7) 0.2214(5) 0.6333(3)
H20 H 1.2775 0.2474 0.6591
C25 C 1.1604(7) 0.1163(5) 0.6071(3)
H21 H 1.2296 0.0737 0.6141
C26 C 1.0300(7) 0.0752(5) 0.5710(2)
H22 H 1.0105 0.0047 0.5538
C27 C 0.7738(7) 0.0908(5) 0.5268(3)
O5 O 0.6928(5) 0.1557(4) 0.5143(2)
O6 O 0.7365(5) -0.0121(4) 0.5168(2)
C28 C 1.1218(8) 0.4033(5) 0.6482(3)
O7 O 1.0560(5) 0.4658(3) 0.6189(2)
O8 O 1.2029(7) 0.4277(4) 0.6962(3)
C29 C 0.9756(6) 0.1321(5) 0.2541(2)
C30 C 0.9870(6) 0.1272(5) 0.1955(2)
H23 H 0.9521 0.1768 0.1713
C31 C 1.0506(6) 0.0484(5) 0.1720(2)
C32 C 1.1044(7) -0.0247(5) 0.2089(3)
H24 H 1.1485 -0.0763 0.1938
C33 C 1.0927(8) -0.0214(5) 0.2675(2)
H25 H 1.1283 -0.0706 0.2917
C34 C 1.0271(7) 0.0566(5) 0.2903(2)
H26 H 1.0176 0.0582 0.3297
C35 C 0.9110(6) 0.2199(5) 0.2774(2)
O9 O 0.8436(5) 0.2716(3) 0.24465(17)
O10 O 0.9410(5) 0.2377(3) 0.33319(17)
C36 C 1.0520(6) 0.0403(5) 0.1081(3)
O11 O 1.0204(6) 0.1181(3) 0.07893(17)
O12 O 1.0762(5) -0.0456(3) 0.08726(16)
C37 C 0.6093(6) -0.1413(4) 0.0579(2)
C38 C 0.5055(6) -0.0812(4) 0.0671(2)
H27 H 0.5136 -0.0122 0.0508
C39 C 0.3901(6) -0.1234(4) 0.1002(2)
H28 H 0.3198 -0.0836 0.1055
C40 C 0.3793(6) -0.2252(4) 0.1255(2)
H29 H 0.3034 -0.2523 0.1487
C41 C 0.4816(7) -0.2872(4) 0.1165(2)
C42 C 0.5941(7) -0.2457(5) 0.0818(3)
H30 H 0.6602 -0.2878 0.0743
C43 C 0.7416(6) -0.0929(5) 0.0267(2)
O13 O 0.7664(4) 0.0072(3) 0.01391(18)
O14 O 0.8268(5) -0.1548(3) 0.0184(2)
C44 C 0.4687(7) -0.3991(5) 0.1425(3)
O15 O 0.5501(5) -0.4554(3) 0.1234(2)
O16 O 0.3821(5) -0.4279(4) 0.1803(2)
O17 O 0.7317(5) 0.4401(3) 0.19558(19)
O18 O 0.3302(5) 0.3479(3) 0.09111(18)
O19 O 1.2349(5) 0.6664(4) 0.5973(2)
O20 O 0.8963(5) 0.5476(4) 0.68952(19)
H31 H 0.7635 0.4902 0.2235
H32 H 0.7691 0.3870 0.2084
H33 H 0.2991 0.3528 0.1237
H34 H 0.2978 0.3955 0.0706
H35 H 1.2523 0.6168 0.5755
H36 H 1.3028 0.7254 0.5913
H37 H 0.8691 0.5795 0.7180
H38 H 0.8634 0.4781 0.6952
Cu1_2 Cu 0.53793(10) -0.60803(7) 0.13804(4)
Cu2A Cu 0.52730(10) -0.10194(7) 0.49809(3)
Cu3A Cu 1.03712(9) -0.09657(6) 0.00516(3)
Cu4A Cu -0.05673(10) 0.38656(7) 0.35904(4)
Cu4A_2 Cu 0.94327(10) 0.38656(7) 0.35904(4)
N1A N 0.8623(6) 0.6160(4) 0.5571(2)
O4A O 0.4818(6) 0.0638(4) 0.58372(17)
O6A O 0.2635(5) 0.0121(4) 0.4832(2)
O10A O 1.0590(5) 0.7623(3) 0.66681(17)
O12A O 0.9238(5) 0.0456(3) -0.08726(16)
O14A O 1.1732(5) 0.1548(3) -0.0184(2)
O15_2 O 0.5501(5) 0.5446(3) 0.1234(2)
O21 O 0.7989(5) 0.6202(4) 0.77937(19)
O22 O 1.0247(9) 0.2937(6) 0.7803(3)
O23 O 0.7618(10) 0.3379(7) 0.7224(4)
loop_
_geom_bond_atom_site_label_1
_geom_bond_atom_site_label_2
_geom_bond_site_symmetry_1
_geom_bond_site_symmetry_2
Cu1 N6 1_555 1_555
Cu2 N4 1_555 1_555
Cu3 N9 1_555 1_555
Cu4 O7 1_555 1_555
N1 C1 1_555 1_555
C1 H1 1_555 1_555
N2 C1 1_555 1_555
C2 N2 1_555 1_555
C3 C2 1_555 1_555
C4 N1 1_555 1_555
N3 C4 1_555 1_555
H2 N3 1_555 1_555
H3 N3 1_555 1_555
N4 C3 1_555 1_555
C5 N4 1_555 1_555
H4 C5 1_555 1_555
C6 H5 1_555 1_555
H6 C6 1_555 1_555
H7 C6 1_555 1_555
N5 C2 1_555 1_555
N6 C7 1_555 1_555
C7 H8 1_555 1_555
N7 C7 1_555 1_555
C8 N7 1_555 1_555
C9 C8 1_555 1_555
C10 N6 1_555 1_555
N8 C10 1_555 1_555
H9 N8 1_555 1_555
H10 N8 1_555 1_555
N9 C9 1_555 1_555
C11 N9 1_555 1_555
H11 C11 1_555 1_555
N10 C8 1_555 1_555
C12 N10 1_555 1_555
H12 C12 1_555 1_555
H13 C12 1_555 1_555
H14 C12 1_555 1_555
C13 C14 1_555 1_555
C14 H15 1_555 1_555
C15 C14 1_555 1_555
H16 C15 1_555 1_555
C16 C15 1_555 1_555
H17 C16 1_555 1_555
C17 C16 1_555 1_555
C18 C13 1_555 1_555
H18 C18 1_555 1_555
C19 C13 1_555 1_555
O1 Cu1 1_555 1_555
O2 Cu1 1_555 1_555
C20 C17 1_555 1_555
O3 Cu2 1_555 1_555
O4 C20 1_555 1_555
C21 C22 1_555 1_555
C22 H19 1_555 1_555
C23 C22 1_555 1_555
C24 C23 1_555 1_555
H20 C24 1_555 1_555
C25 C24 1_555 1_555
H21 C25 1_555 1_555
C26 C21 1_555 1_555
H22 C26 1_555 1_555
C27 C21 1_555 1_555
O5 Cu2 1_555 1_555
O6 C27 1_555 1_555
C28 C23 1_555 1_555
O7 C28 1_555 1_555
O8 C28 1_555 1_555
C29 C30 1_555 1_555
C30 H23 1_555 1_555
C31 C30 1_555 1_555
C32 C31 1_555 1_555
H24 C32 1_555 1_555
C33 C32 1_555 1_555
H25 C33 1_555 1_555
C34 C29 1_555 1_555
H26 C34 1_555 1_555
C35 C29 1_555 1_555
O9 C35 1_555 1_555
O10 C35 1_555 1_555
C36 C31 1_555 1_555
O11 Cu3 1_555 1_555
O12 C36 1_555 1_555
C37 C38 1_555 1_555
C38 H27 1_555 1_555
C39 C38 1_555 1_555
H28 C39 1_555 1_555
C40 C39 1_555 1_555
H29 C40 1_555 1_555
C41 C40 1_555 1_555
C42 C37 1_555 1_555
H30 C42 1_555 1_555
C43 C37 1_555 1_555
O13 Cu3 1_555 1_555
O14 C43 1_555 1_555
C44 C41 1_555 1_555
O15 C44 1_555 1_555
O16 C44 1_555 1_555
O17 Cu1 1_555 1_555
O18 Cu1 1_555 1_555
O19 Cu4 1_555 1_555
O20 Cu4 1_555 1_555
H31 O17 1_555 1_555
H32 O17 1_555 1_555
H33 O18 1_555 1_555
H34 O18 1_555 1_555
H35 O19 1_555 1_555
H36 O19 1_555 1_555
H37 O20 1_555 1_555
H38 O20 1_555 1_555
Cu1_2 O15 1_555 1_555
Cu2A Cu2 1_555 1_555
Cu3A Cu3 1_555 1_555
Cu4A N1 1_555 1_555
Cu4A_2 O10 1_555 1_555
N1A Cu4 1_555 1_555
O4A Cu2 1_555 1_555
O6A Cu2 1_555 1_555
O10A Cu4 1_555 1_555
O12A Cu3 1_555 1_555
O14A Cu3 1_555 1_555
O15_2 Cu1 1_555 1_555
C3 C4 1_555 1_555
C5 N5 1_555 1_555
C6 N5 1_555 1_555
C9 C10 1_555 1_555
C11 N10 1_555 1_555
C17 C18 1_555 1_555
C19 O1 1_555 1_555
C19 O2 1_555 1_555
C20 O3 1_555 1_555
O4 Cu2A 1_555 1_555
C25 C26 1_555 1_555
C27 O5 1_555 1_555
O6 Cu2A 1_555 1_555
C33 C34 1_555 1_555
C36 O11 1_555 1_555
O12 Cu3A 1_555 1_555
C41 C42 1_555 1_555
C43 O13 1_555 1_555
O14 Cu3A 1_555 1_555

#END
