
#######################################################################
#
#                 Cambridge Crystallographic Data Centre
#                                CCDC 
#
#######################################################################
#
# If this CIF has been generated from an entry in the Cambridge 
# Structural Database, then it will include bibliographic, chemical, 
# crystal, experimental, refinement or atomic coordinate data resulting 
# from the CCDC's data processing and validation procedures.
#
#######################################################################

data_KIPXOY
_symmetry_cell_setting           monoclinic
_symmetry_space_group_name_H-M   'P 21'
_symmetry_Int_Tables_number      4
_space_group_name_Hall           'P 2yb'
loop_
_symmetry_equiv_pos_site_id
_symmetry_equiv_pos_as_xyz
1 x,y,z
2 -x,1/2+y,-z
_cell_length_a                   10.7983(11)
_cell_length_b                   19.3351(19)
_cell_length_c                   13.5576(13)
_cell_angle_alpha                90
_cell_angle_beta                 96.192(4)
_cell_angle_gamma                90
_cell_volume                     2814.13
loop_
_atom_site_label
_atom_site_type_symbol
_atom_site_fract_x
_atom_site_fract_y
_atom_site_fract_z
Zn1 Zn 0.25189(8) 0.32607(6) 0.75085(6)
N1 N 0.4135(6) 0.3837(3) 0.7539(4)
N2 N 0.2060(6) 0.3736(3) 0.8765(4)
N3 N 0.0905(6) 0.2690(3) 0.7457(4)
N4 N 0.3026(6) 0.2749(3) 0.6260(4)
C1 C 0.5011(7) 0.3808(4) 0.6872(5)
C2 C 0.5912(8) 0.4364(4) 0.7107(6)
H1 H 0.6606 0.4470 0.6759
C3 C 0.5573(7) 0.4702(4) 0.7916(6)
H2 H 0.5994 0.5084 0.8241
C4 C 0.4459(8) 0.4377(4) 0.8190(6)
C5 C 0.3789(7) 0.4580(4) 0.9001(5)
C6 C 0.2693(7) 0.4281(4) 0.9261(6)
C7 C 0.2020(9) 0.4518(5) 1.0085(6)
H3 H 0.2254 0.4880 1.0541
C8 C 0.1022(9) 0.4121(5) 1.0057(7)
H4 H 0.0417 0.4145 1.0516
C9 C 0.0981(8) 0.3653(4) 0.9243(6)
C10 C 0.0025(6) 0.3171(4) 0.8936(5)
C11 C 0.0048(7) 0.2695(3) 0.8117(5)
C12 C -0.0862(8) 0.2143(4) 0.7916(6)
H5 H -0.1572 0.2053 0.8252
C13 C -0.0477(9) 0.1790(4) 0.7148(6)
H6 H -0.0849 0.1385 0.6850
C14 C 0.0612(8) 0.2144(4) 0.6862(6)
C15 C 0.1270(8) 0.1924(4) 0.6087(6)
C16 C 0.2391(7) 0.2205(4) 0.5809(6)
C17 C 0.3053(8) 0.1970(4) 0.5020(6)
H7 H 0.2802 0.1605 0.4574
C18 C 0.4129(8) 0.2364(4) 0.5010(6)
H8 H 0.4764 0.2321 0.4581
C19 C 0.4052(7) 0.2865(3) 0.5818(5)
C20 C 0.4979(7) 0.3350(4) 0.6099(5)
C21 C 0.4298(8) 0.5140(4) 0.9558(6)
C22 C 0.4771(8) 0.5620(4) 1.0031(7)
C23 C 0.5314(7) 0.6214(4) 1.0556(5)
C24 C 0.6485(9) 0.6465(5) 1.0368(7)
H9 H 0.6929 0.6234 0.9898
C25 C 0.6986(9) 0.7021(5) 1.0836(7)
H10 H 0.7764 0.7184 1.0663
N5 N 0.6442(6) 0.7367(3) 1.1549(5)
C26 C 0.5338(7) 0.7111(3) 1.1760(6)
H11 H 0.4960 0.7330 1.2278
C27 C 0.4697(7) 0.6551(3) 1.1286(5)
H12 H 0.3900 0.6408 1.1445
C28 C -0.1083(7) 0.3139(4) 0.9500(5)
C29 C -0.1029(8) 0.2913(5) 1.0451(6)
H13 H -0.0247 0.2792 1.0797
C30 C -0.2101(11) 0.2856(6) 1.0924(8)
H14 H -0.2031 0.2733 1.1606
C31 C -0.3248(8) 0.2972(5) 1.0437(7)
C32 C -0.3325(7) 0.3223(4) 0.9520(7)
H15 H -0.4117 0.3348 0.9195
C33 C -0.2249(7) 0.3310(5) 0.9014(5)
H16 H -0.2321 0.3482 0.8354
O1 O -0.4356(9) 0.2863(6) 1.0836(7)
C34 C -0.4448(14) 0.2741(8) 1.1793(10)
H17 H -0.3777 0.2981 1.2231
C35 C -0.4276(14) 0.1917(8) 1.1824(10)
H18 H -0.5040 0.1700 1.1492
H19 H -0.3578 0.1792 1.1442
C36 C -0.4019(14) 0.1618(9) 1.2869(10)
H20 H -0.3158 0.1449 1.2973
H21 H -0.4592 0.1234 1.2948
H22 H -0.4140 0.1978 1.3358
C37 C -0.5654(14) 0.2862(10) 1.2109(10)
H23 H -0.6291 0.2641 1.1643
H24 H -0.5812 0.3361 1.2127
H25 H -0.5685 0.2666 1.2773
C38 C 0.0768(9) 0.1310(5) 0.5529(7)
C39 C 0.0363(9) 0.0830(4) 0.5067(6)
C40 C -0.0229(9) 0.0261(4) 0.4529(6)
C41 C 0.0400(9) -0.0224(5) 0.4072(7)
H26 H 0.1283 -0.0206 0.4113
C42 C -0.0250(8) -0.0754(4) 0.3535(6)
H27 H 0.0217 -0.1087 0.3215
N6 N -0.1475(6) -0.0818(3) 0.3449(4)
C43 C -0.2086(10) -0.0360(5) 0.3896(7)
H28 H -0.2969 -0.0392 0.3841
C44 C -0.1492(9) 0.0192(5) 0.4470(9)
H29 H -0.1973 0.0508 0.4807
C45 C 0.6070(7) 0.3388(4) 0.5469(5)
C46 C 0.7193(8) 0.3100(5) 0.5799(6)
H30 H 0.7304 0.2894 0.6439
C47 C 0.8210(9) 0.3101(5) 0.5200(7)
H31 H 0.8982 0.2887 0.5426
C48 C 0.8038(9) 0.3410(6) 0.4320(6)
C49 C 0.6929(9) 0.3720(5) 0.3955(6)
H32 H 0.6850 0.3945 0.3329
C50 C 0.5920(10) 0.3696(5) 0.4527(7)
H33 H 0.5139 0.3887 0.4277
O2 O 0.8989(9) 0.3468(6) 0.3657(6)
C51 C 1.0105(13) 0.2921(9) 0.3771(10)
H34 H 1.0419 0.2915 0.4492
C52 C 1.1068(12) 0.3152(9) 0.3292(9)
H35 H 1.0714 0.3279 0.2612
H36 H 1.1623 0.2751 0.3226
C53 C 1.1886(13) 0.3744(8) 0.3678(9)
H37 H 1.1387 0.4167 0.3679
H38 H 1.2553 0.3809 0.3249
H39 H 1.2252 0.3641 0.4355
C54 C 0.9606(13) 0.2206(9) 0.3534(10)
H40 H 1.0123 0.1865 0.3922
H41 H 0.9622 0.2114 0.2825
H42 H 0.8747 0.2175 0.3702
Zn1A Zn -0.25189(8) -0.17393(6) 0.24915(6)
Zn1A_2 Zn 0.74811(8) 0.82607(6) 1.24915(6)
N5A N 0.3558(6) 0.2367(3) 0.8451(5)
N6A N 0.1475(6) 0.4182(3) 0.6551(4)
C55 C 0.9787(15) 0.5709(8) 0.8748(10)
H43 H 0.9730 0.5217 0.8967
Cl1 Cl 0.8436(5) 0.5895(4) 0.8034(4)
Cl2 Cl 1.0035(6) 0.6216(3) 0.9825(4)
Cl3 Cl 1.1109(4) 0.5773(2) 0.8114(3)
C56 C 0.4634(10) 0.5760(5) 0.3893(8)
H44 H 0.5409 0.5990 0.3717
Cl4 Cl 0.3464(3) 0.63912(16) 0.3854(3)
Cl5 Cl 0.4958(3) 0.54081(14) 0.5052(2)
Cl6 Cl 0.4231(5) 0.51215(18) 0.3004(3)
C57 C 0.836(2) 0.5103(13) 0.1935(17)
H45 H 0.8193 0.4648 0.2246
Cl7 Cl 0.7393(5) 0.5481(4) 0.2622(5)
Cl8 Cl 0.9867(6) 0.4986(3) 0.2208(5)
Cl9 Cl 0.7753(6) 0.4772(3) 0.0747(5)
loop_
_geom_bond_atom_site_label_1
_geom_bond_atom_site_label_2
_geom_bond_site_symmetry_1
_geom_bond_site_symmetry_2
Zn1 N1 1_555 1_555
N1 C1 1_555 1_555
N2 Zn1 1_555 1_555
N3 Zn1 1_555 1_555
N4 Zn1 1_555 1_555
C1 C2 1_555 1_555
C2 H1 1_555 1_555
C3 C2 1_555 1_555
H2 C3 1_555 1_555
C4 N1 1_555 1_555
C5 C4 1_555 1_555
C6 N2 1_555 1_555
C7 C6 1_555 1_555
H3 C7 1_555 1_555
C8 C7 1_555 1_555
H4 C8 1_555 1_555
C9 N2 1_555 1_555
C10 C9 1_555 1_555
C11 N3 1_555 1_555
C12 C11 1_555 1_555
H5 C12 1_555 1_555
C13 C12 1_555 1_555
H6 C13 1_555 1_555
C14 N3 1_555 1_555
C15 C14 1_555 1_555
C16 N4 1_555 1_555
C17 C16 1_555 1_555
H7 C17 1_555 1_555
C18 C17 1_555 1_555
H8 C18 1_555 1_555
C19 N4 1_555 1_555
C20 C1 1_555 1_555
C21 C5 1_555 1_555
C22 C21 1_555 1_555
C23 C22 1_555 1_555
C24 C23 1_555 1_555
H9 C24 1_555 1_555
C25 C24 1_555 1_555
H10 C25 1_555 1_555
N5 C25 1_555 1_555
C26 N5 1_555 1_555
H11 C26 1_555 1_555
C27 C23 1_555 1_555
H12 C27 1_555 1_555
C28 C10 1_555 1_555
C29 C28 1_555 1_555
H13 C29 1_555 1_555
C30 C29 1_555 1_555
H14 C30 1_555 1_555
C31 C30 1_555 1_555
C32 C31 1_555 1_555
H15 C32 1_555 1_555
C33 C28 1_555 1_555
H16 C33 1_555 1_555
O1 C31 1_555 1_555
C34 O1 1_555 1_555
H17 C34 1_555 1_555
C35 C34 1_555 1_555
H18 C35 1_555 1_555
H19 C35 1_555 1_555
C36 C35 1_555 1_555
H20 C36 1_555 1_555
H21 C36 1_555 1_555
H22 C36 1_555 1_555
C37 C34 1_555 1_555
H23 C37 1_555 1_555
H24 C37 1_555 1_555
H25 C37 1_555 1_555
C38 C15 1_555 1_555
C39 C38 1_555 1_555
C40 C39 1_555 1_555
C41 C40 1_555 1_555
H26 C41 1_555 1_555
C42 C41 1_555 1_555
H27 C42 1_555 1_555
N6 C42 1_555 1_555
C43 N6 1_555 1_555
H28 C43 1_555 1_555
C44 C40 1_555 1_555
H29 C44 1_555 1_555
C45 C20 1_555 1_555
C46 C45 1_555 1_555
H30 C46 1_555 1_555
C47 C46 1_555 1_555
H31 C47 1_555 1_555
C48 C47 1_555 1_555
C49 C48 1_555 1_555
H32 C49 1_555 1_555
C50 C45 1_555 1_555
H33 C50 1_555 1_555
O2 C48 1_555 1_555
C51 O2 1_555 1_555
H34 C51 1_555 1_555
C52 C51 1_555 1_555
H35 C52 1_555 1_555
H36 C52 1_555 1_555
C53 C52 1_555 1_555
H37 C53 1_555 1_555
H38 C53 1_555 1_555
H39 C53 1_555 1_555
C54 C51 1_555 1_555
H40 C54 1_555 1_555
H41 C54 1_555 1_555
H42 C54 1_555 1_555
C55 H43 1_555 1_555
Cl1 C55 1_555 1_555
Cl2 C55 1_555 1_555
Cl3 C55 1_555 1_555
C56 H44 1_555 1_555
Cl4 C56 1_555 1_555
Cl5 C56 1_555 1_555
Cl6 C56 1_555 1_555
C57 H45 1_555 1_555
Cl7 C57 1_555 1_555
Cl8 C57 1_555 1_555
Cl9 C57 1_555 1_555
Zn1A N6 1_555 1_555
Zn1A_2 N5 1_555 1_555
N5A Zn1 1_555 1_555
N6A Zn1 1_555 1_555
C3 C4 1_555 1_555
C5 C6 1_555 1_555
C8 C9 1_555 1_555
C10 C11 1_555 1_555
C13 C14 1_555 1_555
C15 C16 1_555 1_555
C18 C19 1_555 1_555
C19 C20 1_555 1_555
C26 C27 1_555 1_555
C32 C33 1_555 1_555
C43 C44 1_555 1_555
C49 C50 1_555 1_555

#END
