
#######################################################################
#
#                 Cambridge Crystallographic Data Centre
#                                CCDC 
#
#######################################################################
#
# If this CIF has been generated from an entry in the Cambridge 
# Structural Database, then it will include bibliographic, chemical, 
# crystal, experimental, refinement or atomic coordinate data resulting 
# from the CCDC's data processing and validation procedures.
#
#######################################################################

data_KIPYOZ
_symmetry_cell_setting           orthorhombic
_symmetry_space_group_name_H-M   'P 21 21 21'
_symmetry_Int_Tables_number      19
_space_group_name_Hall           'P 2ac 2ab'
loop_
_symmetry_equiv_pos_site_id
_symmetry_equiv_pos_as_xyz
1 x,y,z
2 1/2-x,-y,1/2+z
3 -x,1/2+y,1/2-z
4 1/2+x,1/2-y,-z
_cell_length_a                   14.4445(4)
_cell_length_b                   19.8624(7)
_cell_length_c                   27.9292(12)
_cell_angle_alpha                90
_cell_angle_beta                 90
_cell_angle_gamma                90
_cell_volume                     8012.96
loop_
_atom_site_label
_atom_site_type_symbol
_atom_site_fract_x
_atom_site_fract_y
_atom_site_fract_z
Pt1 Pt 1.38791(8) -0.02884(7) 0.40143(6)
Pt2 Pt 0.95350(8) 0.02660(8) 0.25237(6)
Pt3 Pt 0.92229(8) 0.00269(8) 0.53684(5)
Cd1 Cd 1.38233(19) 0.19583(15) 0.20372(11)
Cd2 Cd 0.81877(18) 0.30202(14) 0.40093(12)
O1 O 1.3985(18) 0.0964(14) 0.1659(10)
H1 H 1.3883 0.0723 0.1413
H2 H 1.4212 0.0709 0.1874
O2 O 1.5353(16) 0.2012(15) 0.2016(11)
H3 H 1.5726 0.1802 0.1835
H4 H 1.5648 0.213 0.2266
O3 O 1.376(2) 0.2940(16) 0.2413(12)
H5 H 1.4029 0.3312 0.2352
H6 H 1.3464 0.2988 0.2674
O4 O 1.3412(17) 0.2461(14) 0.1375(10)
H7 H 1.36 0.2427 0.1088
H8 H 1.3133 0.2836 0.1402
O5 O 0.974(2) 0.3256(19) 0.3930(14)
H9 H 1.0026 0.3629 0.3936
H10 H 1.0128 0.2944 0.3977
O6 O 0.684(2) 0.2407(15) 0.3729(14)
H11 H 0.6271 0.2491 0.3685
H12 H 0.6906 0.1982 0.3737
O7 O 0.813(2) 0.3716(15) 0.3359(11)
H13 H 0.785 0.3694 0.309
H14 H 0.815 0.4128 0.344
N1 N 1.389(2) -0.1024(13) 0.4508(12)
H15 H 1.4443 -0.1025 0.4667
H16 H 1.3424 -0.0949 0.4728
C1 C 1.374(3) -0.167(2) 0.4277(15)
H17 H 1.3076 -0.1732 0.4212
H18 H 1.3951 -0.2033 0.4493
C2 C 1.428(2) -0.1699(19) 0.3812(14)
H19 H 1.4096 -0.2099 0.3623
H20 H 1.4953 -0.1719 0.3874
N2 N 1.4023(18) -0.1052(15) 0.3552(12)
H21 H 1.3477 -0.1114 0.3388
H22 H 1.4477 -0.0948 0.3333
N3 N 0.989(2) -0.0515(16) 0.2104(12)
H23 H 1.0045 -0.0361 0.1804
H24 H 1.0399 -0.0729 0.2231
C3 C 0.910(3) -0.100(2) 0.2069(17)
H25 H 0.8695 -0.0864 0.18
H26 H 0.9344 -0.1454 0.2001
C4 C 0.860(3) -0.101(2) 0.249(2)
H27 H 0.8939 -0.1269 0.2734
H28 H 0.7998 -0.1238 0.2432
N4 N 0.8404(16) -0.0295(15) 0.2686(11)
H29 H 0.8315 -0.0308 0.3012
H30 H 0.7884 -0.0116 0.2545
N5 N 0.8043(18) -0.0485(15) 0.5234(11)
H31 H 0.7538 -0.0213 0.5286
H32 H 0.8032 -0.0624 0.4919
C5 C 0.801(2) -0.1079(19) 0.5557(15)
H33 H 0.775 -0.0943 0.5871
H34 H 0.7591 -0.1425 0.5418
C6 C 0.893(2) -0.136(2) 0.5621(14)
H35 H 0.9147 -0.1566 0.5319
H36 H 0.8917 -0.1712 0.5873
N6 N 0.9544(18) -0.0796(15) 0.5765(11)
H37 H 1.0152 -0.0914 0.5715
H38 H 0.9467 -0.0703 0.6085
N7 N 1.3815(19) 0.1348(14) 0.2745(11)
C7 C 1.309(2) 0.0983(19) 0.2867(15)
C8 C 1.311(2) 0.0521(18) 0.3225(14)
H39 H 1.2569 0.0261 0.3286
N8 N 1.3856(19) 0.0424(14) 0.3493(11)
C9 C 1.462(2) 0.0764(18) 0.3384(14)
H40 H 1.5179 0.0683 0.355
C10 C 1.457(2) 0.1254(18) 0.3013(14)
H41 H 1.5098 0.1526 0.2953
N9 N 1.2313(18) 0.1471(15) 0.2199(12)
C11 C 1.226(2) 0.1075(18) 0.2544(15)
C12 C 1.141(2) 0.074(2) 0.2632(15)
H42 H 1.1373 0.0454 0.2905
N10 N 1.0731(19) 0.0789(16) 0.2372(11)
C13 C 1.076(3) 0.121(2) 0.1988(16)
H43 H 1.0246 0.1258 0.1777
C14 C 1.159(3) 0.155(2) 0.1927(16)
H44 H 1.1632 0.1867 0.1672
N11 N 0.871(2) 0.2105(16) 0.3515(12)
C15 C 0.883(3) 0.148(2) 0.3722(18)
C16 C 0.909(2) 0.0968(18) 0.3418(14)
H45 H 0.9238 0.0544 0.3555
N12 N 0.9136(17) 0.1024(15) 0.2969(12)
C17 C 0.892(3) 0.161(2) 0.2758(16)
H46 H 0.8923 0.1651 0.2419
C18 C 0.868(3) 0.217(3) 0.3053(16)
H47 H 0.8496 0.2581 0.2913
N13 N 0.845(2) 0.2038(15) 0.4474(11)
C19 C 0.876(2) 0.1472(17) 0.4248(14)
C20 C 0.892(2) 0.0866(19) 0.4500(15)
H48 H 0.9061 0.0465 0.4331
N14 N 0.886(2) 0.0861(17) 0.4975(12)
C21 C 0.861(2) 0.140(2) 0.5191(16)
H49 H 0.8543 0.1393 0.5529
C22 C 0.843(2) 0.200(2) 0.4960(16)
H50 H 0.8289 0.2391 0.5143
N15 N 1.194(2) 0.1217(16) 0.5837(12)
C23 C 1.192(2) 0.0902(18) 0.5407(15)
C24 C 1.114(2) 0.0527(16) 0.5275(13)
H51 H 1.1131 0.0282 0.4983
N16 N 1.0407(18) 0.0517(14) 0.5562(11)
C25 C 1.041(3) 0.083(2) 0.5978(17)
H52 H 0.9888 0.0816 0.6185
C26 C 1.122(3) 0.1174(19) 0.6105(16)
H53 H 1.1232 0.1392 0.6408
N17 N 1.3439(17) 0.1342(15) 0.5250(12)
C27 C 1.278(2) 0.0889(18) 0.5128(15)
C28 C 1.291(2) 0.0442(17) 0.4746(14)
H54 H 1.2413 0.0154 0.4651
N18 N 1.3717(17) 0.0419(14) 0.4514(11)
C29 C 1.435(2) 0.0870(16) 0.4631(14)
H55 H 1.4914 0.0885 0.4459
C30 C 1.420(2) 0.1334(17) 0.5011(14)
H56 H 1.4671 0.1646 0.509
Cd2C Cd 1.31877(18) 0.19798(14) 0.59907(12)
N15C N 0.694(2) 0.3783(16) 0.4163(12)
N17C N 0.8439(17) 0.3658(15) 0.4750(12)
Cd3 Cd 0.96608(19) 0.26041(15) 0.07505(11)
O8 O 1.1096(16) 0.2694(12) 0.0409(9)
H57 H 1.1525 0.2824 0.0222
H58 H 1.1171 0.2275 0.0458
O9 O 0.8368(15) 0.2402(14) 0.1197(9)
H59 H 0.7995 0.2683 0.1322
H60 H 0.8115 0.2016 0.1209
O10 O 1.0148(15) 0.1558(12) 0.0891(10)
H61 H 1.0504 0.1321 0.1065
H62 H 0.9636 0.135 0.0867
O11 O 0.895(2) 0.2320(14) 0.0069(11)
H63 H 0.8926 0.2009 -0.014
H64 H 0.8635 0.2651 -0.0036
O12 O 1.0295(18) 0.2950(16) 0.1448(10)
H65 H 1.0025 0.3181 0.1663
H66 H 1.0874 0.3008 0.148
O13 O 0.938(2) 0.3669(13) 0.0493(12)
H67 H 0.9846 0.3923 0.045
H68 H 0.8896 0.39 0.044
S1 S 0.7862(6) 0.3808(5) -0.0529(4)
O14 O 0.6972(16) 0.3504(14) -0.0625(12)
O15 O 0.7892(17) 0.4061(14) -0.0033(11)
O16 O 0.8003(17) 0.4385(13) -0.0883(10)
O17 O 0.8619(17) 0.3329(13) -0.0588(10)
S2 S 1.2190(7) 0.4012(6) 0.1114(4)
O18 O 1.3201(18) 0.4182(14) 0.1094(10)
O19 O 1.2081(18) 0.3403(14) 0.1411(12)
O20 O 1.185(2) 0.3859(14) 0.0617(11)
O21 O 1.164(2) 0.4546(16) 0.1324(12)
S3 S 1.6133(6) 0.0277(5) 0.2057(4)
O22 O 1.599(3) 0.033(2) 0.2559(8)
O23 O 1.5299(19) 0.001(2) 0.1809(14)
O24 O 1.636(3) 0.0924(14) 0.1821(15)
O25 O 1.691(2) -0.0190(18) 0.1948(15)
S4 S 0.9245(9) -0.0037(8) 0.0770(6)
O26 O 0.9138(18) 0.0156(15) 0.1276(8)
O27 O 0.8462(16) -0.0392(14) 0.0600(11)
O28 O 1.0129(14) -0.0330(15) 0.0674(11)
O29 O 0.9285(19) 0.0679(11) 0.0540(11)
S5 S 1.115(2) 0.2151(17) 0.4593(13)
O30 O 1.056(2) 0.1601(18) 0.4718(12)
O31 O 1.212(2) 0.190(3) 0.453(3)
O32 O 1.086(4) 0.249(3) 0.4157(18)
O33 O 1.116(5) 0.264(3) 0.499(2)
O34 O 1.348(3) 0.199(2) 0.3924(15)
O35 O 1.125(3) 0.217(2) 0.321(2)
O36 O 1.4057(19) 0.3856(14) 0.0288(10)
O37 O 0.8473(17) 0.4978(15) 0.3705(9)
O38 O 1.8232(18) 0.1239(15) 0.1689(11)
O39 O 1.4182(16) 0.4084(14) 0.1925(10)
O40 O 0.8413(17) -0.1153(17) -0.0172(12)
O41 O 1.352(2) 0.5549(16) 0.1027(15)
O42 O 0.716(2) -0.0980(18) 0.1238(12)
O43 O 1.282(2) 0.2876(19) 0.3261(16)
O44 O 1.693(2) 0.123(2) 0.3164(14)
O45 O 1.628(4) 0.288(2) 0.2522(15)
O46 O 1.401(3) -0.076(2) 0.2369(16)
O47 O 0.522(2) 0.241(2) 0.4233(14)
O48 O 1.043(3) -0.021(3) 0.3949(19)
O49? O 1.5158(15) 0.022(2) 0.2215(15)
O50? O 1.647(3) 0.0962(13) 0.2186(16)
O51? O 1.669(2) -0.0222(17) 0.2297(14)
O52? O 1.617(3) 0.022(2) 0.1538(8)
S6? S 1.116(2) 0.1622(18) 0.4285(12)
O53? O 1.056(2) 0.1601(18) 0.4718(12)
O54? O 1.134(5) 0.092(2) 0.411(2)
O55? O 1.068(4) 0.199(3) 0.3912(16)
O56? O 1.205(3) 0.193(3) 0.440(2)
S7? S 1.1707(11) -0.1224(9) 0.2928(8)
O57? O 1.229(2) -0.1660(19) 0.3192(15)
O58? O 1.219(2) -0.076(2) 0.2697(15)
O59? O 1.092(2) -0.1497(18) 0.2784(14)
O60? O 1.144(2) -0.082(2) 0.3208(15)
loop_
_geom_bond_atom_site_label_1
_geom_bond_atom_site_label_2
_geom_bond_site_symmetry_1
_geom_bond_site_symmetry_2
Pt1 N1 1_555 1_555
Pt2 N3 1_555 1_555
Pt3 N5 1_555 1_555
Cd1 O1 1_555 1_555
Cd2 O5 1_555 1_555
O1 H1 1_555 1_555
H2 O1 1_555 1_555
O2 Cd1 1_555 1_555
H3 O2 1_555 1_555
H4 O2 1_555 1_555
O3 Cd1 1_555 1_555
H5 O3 1_555 1_555
H6 O3 1_555 1_555
O4 Cd1 1_555 1_555
H7 O4 1_555 1_555
H8 O4 1_555 1_555
O5 H9 1_555 1_555
H10 O5 1_555 1_555
O6 Cd2 1_555 1_555
H11 O6 1_555 1_555
H12 O6 1_555 1_555
O7 Cd2 1_555 1_555
H13 O7 1_555 1_555
H14 O7 1_555 1_555
N1 H15 1_555 1_555
H16 N1 1_555 1_555
C1 N1 1_555 1_555
H17 C1 1_555 1_555
H18 C1 1_555 1_555
C2 C1 1_555 1_555
H19 C2 1_555 1_555
H20 C2 1_555 1_555
N2 Pt1 1_555 1_555
H21 N2 1_555 1_555
H22 N2 1_555 1_555
N3 H23 1_555 1_555
H24 N3 1_555 1_555
C3 N3 1_555 1_555
H25 C3 1_555 1_555
H26 C3 1_555 1_555
C4 C3 1_555 1_555
H27 C4 1_555 1_555
H28 C4 1_555 1_555
N4 Pt2 1_555 1_555
H29 N4 1_555 1_555
H30 N4 1_555 1_555
N5 H31 1_555 1_555
H32 N5 1_555 1_555
C5 N5 1_555 1_555
H33 C5 1_555 1_555
H34 C5 1_555 1_555
C6 C5 1_555 1_555
H35 C6 1_555 1_555
H36 C6 1_555 1_555
N6 Pt3 1_555 1_555
H37 N6 1_555 1_555
H38 N6 1_555 1_555
N7 Cd1 1_555 1_555
C7 N7 1_555 1_555
C8 C7 1_555 1_555
H39 C8 1_555 1_555
N8 Pt1 1_555 1_555
C9 N8 1_555 1_555
H40 C9 1_555 1_555
C10 N7 1_555 1_555
H41 C10 1_555 1_555
N9 Cd1 1_555 1_555
C11 C7 1_555 1_555
C12 C11 1_555 1_555
H42 C12 1_555 1_555
N10 Pt2 1_555 1_555
C13 N10 1_555 1_555
H43 C13 1_555 1_555
C14 N9 1_555 1_555
H44 C14 1_555 1_555
N11 Cd2 1_555 1_555
C15 N11 1_555 1_555
C16 C15 1_555 1_555
H45 C16 1_555 1_555
N12 Pt2 1_555 1_555
C17 N12 1_555 1_555
H46 C17 1_555 1_555
C18 N11 1_555 1_555
H47 C18 1_555 1_555
N13 Cd2 1_555 1_555
C19 C15 1_555 1_555
C20 C19 1_555 1_555
H48 C20 1_555 1_555
N14 Pt3 1_555 1_555
C21 N14 1_555 1_555
H49 C21 1_555 1_555
C22 N13 1_555 1_555
H50 C22 1_555 1_555
N15 C23 1_555 1_555
C23 C24 1_555 1_555
C24 H51 1_555 1_555
N16 Pt3 1_555 1_555
C25 N16 1_555 1_555
H52 C25 1_555 1_555
C26 N15 1_555 1_555
H53 C26 1_555 1_555
N17 C27 1_555 1_555
C27 C23 1_555 1_555
C28 C27 1_555 1_555
H54 C28 1_555 1_555
N18 Pt1 1_555 1_555
C29 N18 1_555 1_555
H55 C29 1_555 1_555
C30 N17 1_555 1_555
H56 C30 1_555 1_555
Cd3 O8 1_555 1_555
O8 H57 1_555 1_555
H58 O8 1_555 1_555
O9 Cd3 1_555 1_555
H59 O9 1_555 1_555
H60 O9 1_555 1_555
O10 Cd3 1_555 1_555
H61 O10 1_555 1_555
H62 O10 1_555 1_555
O11 Cd3 1_555 1_555
H63 O11 1_555 1_555
H64 O11 1_555 1_555
O12 Cd3 1_555 1_555
H65 O12 1_555 1_555
H66 O12 1_555 1_555
O13 Cd3 1_555 1_555
H67 O13 1_555 1_555
H68 O13 1_555 1_555
S1 O14 1_555 1_555
O15 S1 1_555 1_555
O16 S1 1_555 1_555
O17 S1 1_555 1_555
S2 O18 1_555 1_555
O19 S2 1_555 1_555
O20 S2 1_555 1_555
O21 S2 1_555 1_555
S3 O22 1_555 1_555
O23 S3 1_555 1_555
O24 S3 1_555 1_555
O25 S3 1_555 1_555
S4 O26 1_555 1_555
O27 S4 1_555 1_555
O28 S4 1_555 1_555
O29 S4 1_555 1_555
S5 O30 1_555 1_555
O31 S5 1_555 1_555
O32 S5 1_555 1_555
O33 S5 1_555 1_555
Cd2C N15 1_555 1_555
N15C Cd2 1_555 1_555
N17C Cd2 1_555 1_555
C2 N2 1_555 1_555
C4 N4 1_555 1_555
C6 N6 1_555 1_555
C8 N8 1_555 1_555
C9 C10 1_555 1_555
N9 C11 1_555 1_555
C12 N10 1_555 1_555
C13 C14 1_555 1_555
C16 N12 1_555 1_555
C17 C18 1_555 1_555
N13 C19 1_555 1_555
C20 N14 1_555 1_555
C21 C22 1_555 1_555
C24 N16 1_555 1_555
C25 C26 1_555 1_555
N17 Cd2C 1_555 1_555
C28 N18 1_555 1_555
C29 C30 1_555 1_555

#END
