
#######################################################################
#
#                 Cambridge Crystallographic Data Centre
#                                CCDC 
#
#######################################################################
#
# If this CIF has been generated from an entry in the Cambridge 
# Structural Database, then it will include bibliographic, chemical, 
# crystal, experimental, refinement or atomic coordinate data resulting 
# from the CCDC's data processing and validation procedures.
#
#######################################################################

data_KIPZIU
_symmetry_cell_setting           rhombohedral
_symmetry_space_group_name_H-M   'R -3'
_symmetry_Int_Tables_number      148
_space_group_name_Hall           '-R 3'
loop_
_symmetry_equiv_pos_site_id
_symmetry_equiv_pos_as_xyz
1 x,y,z
2 -y,x-y,z
3 -x+y,-x,z
4 2/3+x,1/3+y,1/3+z
5 2/3-y,1/3+x-y,1/3+z
6 2/3-x+y,1/3-x,1/3+z
7 1/3+x,2/3+y,2/3+z
8 1/3-y,2/3+x-y,2/3+z
9 1/3-x+y,2/3-x,2/3+z
10 -x,-y,-z
11 y,-x+y,-z
12 x-y,x,-z
13 1/3-x,2/3-y,2/3-z
14 1/3+y,2/3-x+y,2/3-z
15 1/3+x-y,2/3+x,2/3-z
16 2/3-x,1/3-y,1/3-z
17 2/3+y,1/3-x+y,1/3-z
18 2/3+x-y,1/3+x,1/3-z
_cell_length_a                   22.575(12)
_cell_length_b                   22.575(12)
_cell_length_c                   11.483(2)
_cell_angle_alpha                90
_cell_angle_beta                 90
_cell_angle_gamma                120
_cell_volume                     5068.06
loop_
_atom_site_label
_atom_site_type_symbol
_atom_site_fract_x
_atom_site_fract_y
_atom_site_fract_z
Co1 Co 0.11781(6) -0.03824(6) 0.57026(10)
O1 O 0.2011(3) -0.0046(3) 0.4638(5)
O2 O 0.0341(3) -0.0784(3) 0.6877(5)
O3 O -0.0619(3) -0.1177(3) 0.5799(5)
O4 O 0.2432(3) 0.1078(3) 0.4251(5)
N1 N 0.4733(3) 0.1464(4) 0.0506(6)
C1 C 0.4563(5) 0.0430(5) 0.1382(10)
H1 H 0.4664 0.0078 0.1402
C2 C -0.0278(4) -0.1007(5) 0.6760(8)
H2 H -0.0525 -0.1058 0.7437
C3 C 0.2426(5) 0.0513(5) 0.4187(8)
C4 C 0.4862(5) 0.0944(5) 0.0569(9)
H3 H 0.5168 0.0932 0.0040
C5 C 0.4311(5) 0.1480(5) 0.1278(9)
H4 H 0.4234 0.1847 0.1253
C6 C 0.2977(5) 0.0506(5) 0.3460(9)
H5 H 0.2968 0.0090 0.3405
C7 C 0.3970(5) 0.0982(5) 0.2135(9)
C8 C 0.4119(6) 0.0448(5) 0.2153(10)
H6 H 0.3909 0.0102 0.2703
C9 C 0.3472(5) 0.1027(5) 0.2893(9)
H7 H 0.3508 0.1453 0.2981
Co1B Co -0.15605(8) -0.11781(6) 0.57026(10)
Co1E Co 0.51062(8) 0.21552(6) -0.09641(10)
Co1J Co -0.03824(6) -0.15605(8) 0.42974(10)
Co1K Co 0.15605(8) 0.11781(6) 0.42974(10)
O3A O 0.1177(3) 0.0558(4) 0.5799(5)
O3K O 0.0558(4) -0.0619(3) 0.4201(5)
O4J O 0.1078(3) -0.1354(4) 0.5749(5)
N1G N 0.1869(4) -0.0064(5) 0.7173(6)
loop_
_geom_bond_atom_site_label_1
_geom_bond_atom_site_label_2
_geom_bond_site_symmetry_1
_geom_bond_site_symmetry_2
Co1 O1 1_555 1_555
O1 C3 1_555 1_555
O2 Co1 1_555 1_555
O3 C2 1_555 1_555
O4 C3 1_555 1_555
N1 C4 1_555 1_555
C1 H1 1_555 1_555
C2 O2 1_555 1_555
H2 C2 1_555 1_555
C3 C6 1_555 1_555
C4 C1 1_555 1_555
H3 C4 1_555 1_555
C5 N1 1_555 1_555
H4 C5 1_555 1_555
C6 H5 1_555 1_555
C7 C5 1_555 1_555
C8 C1 1_555 1_555
H6 C8 1_555 1_555
C9 C6 1_555 1_555
H7 C9 1_555 1_555
Co1B O3 1_555 1_555
Co1E N1 1_555 1_555
Co1J O3 1_555 1_555
Co1K O4 1_555 1_555
O3A Co1 1_555 1_555
O3K Co1 1_555 1_555
O4J Co1 1_555 1_555
N1G Co1 1_555 1_555
C7 C8 1_555 1_555
C7 C9 1_555 1_555
Co1J O3K 1_555 1_555
Co1K O3A 1_555 1_555

#END
