
#######################################################################
#
#                 Cambridge Crystallographic Data Centre
#                                CCDC 
#
#######################################################################
#
# If this CIF has been generated from an entry in the Cambridge 
# Structural Database, then it will include bibliographic, chemical, 
# crystal, experimental, refinement or atomic coordinate data resulting 
# from the CCDC's data processing and validation procedures.
#
#######################################################################

data_KIQHOH
_symmetry_cell_setting           monoclinic
_symmetry_space_group_name_H-M   'P 21/n'
_symmetry_Int_Tables_number      14
_space_group_name_Hall           '-P 2yn'
loop_
_symmetry_equiv_pos_site_id
_symmetry_equiv_pos_as_xyz
1 x,y,z
2 1/2-x,1/2+y,1/2-z
3 -x,-y,-z
4 1/2+x,1/2-y,1/2+z
_cell_length_a                   5.3516(8)
_cell_length_b                   4.9746(2)
_cell_length_c                   25.386(5)
_cell_angle_alpha                90
_cell_angle_beta                 91.547(8)
_cell_angle_gamma                90
_cell_volume                     675.582
loop_
_atom_site_label
_atom_site_type_symbol
_atom_site_fract_x
_atom_site_fract_y
_atom_site_fract_z
Ag1 Ag -0.7531(1) 0.1211(1) 0.0061(1)
C1 C -0.7720(9) 0.2720(10) 0.1223(2)
N1 N -0.9505(9) 0.2587(13) 0.0808(2)
C2 C -0.5695(9) 0.4549(10) 0.1222(2)
C3 C -0.5298(11) 0.6469(10) 0.0780(2)
O1 O -0.6990(8) 0.6798(9) 0.0437(2)
O2 O -0.3186(7) 0.7626(9) 0.0767(2)
C4 C -0.3963(10) 0.4462(12) 0.1642(2)
C5 C -0.4160(11) 0.2664(13) 0.2045(3)
C6 C -0.6132(12) 0.0846(12) 0.2044(3)
C7 C -0.7878(10) 0.0895(11) 0.1639(3)
H1 H -0.975(13) 0.384(13) 0.0696(28)
H2 H -1.041(13) 0.147(14) 0.0865(29)
H3 H -0.924(12) -0.048(13) 0.1632(26)
H4 H -0.641(13) -0.034(15) 0.2320(31)
H5 H -0.307(13) 0.255(16) 0.2315(30)
H6 H -0.259(11) 0.578(11) 0.1616(23)
Ag1_2 Ag -0.7531(1) 1.1211(1) 0.0061(1)
Ag1B Ag -0.2469(1) 0.8789(1) -0.0061(1)
O1_2 O -0.6990(8) -0.3202(9) 0.0437(2)
O2B O -0.6814(7) 0.2374(9) -0.0767(2)
loop_
_geom_bond_atom_site_label_1
_geom_bond_atom_site_label_2
_geom_bond_site_symmetry_1
_geom_bond_site_symmetry_2
Ag1 N1 1_555 1_555
C1 N1 1_555 1_555
N1 H1 1_555 1_555
C2 C1 1_555 1_555
C3 C2 1_555 1_555
O1 C3 1_555 1_555
O2 C3 1_555 1_555
C4 C2 1_555 1_555
C5 C4 1_555 1_555
C6 C5 1_555 1_555
C7 C1 1_555 1_555
H2 N1 1_555 1_555
H3 C7 1_555 1_555
H4 C6 1_555 1_555
H5 C5 1_555 1_555
H6 C4 1_555 1_555
Ag1_2 O1 1_555 1_555
Ag1B O2 1_555 1_555
O1_2 Ag1 1_555 1_555
O2B Ag1 1_555 1_555
C6 C7 1_555 1_555

#END
