
#######################################################################
#
#                 Cambridge Crystallographic Data Centre
#                                CCDC 
#
#######################################################################
#
# If this CIF has been generated from an entry in the Cambridge 
# Structural Database, then it will include bibliographic, chemical, 
# crystal, experimental, refinement or atomic coordinate data resulting 
# from the CCDC's data processing and validation procedures.
#
#######################################################################

data_KIQJID
_symmetry_cell_setting           monoclinic
_symmetry_space_group_name_H-M   'C 2/c'
_symmetry_Int_Tables_number      15
_space_group_name_Hall           '-C 2yn'
loop_
_symmetry_equiv_pos_site_id
_symmetry_equiv_pos_as_xyz
1 x,y,z
2 -x,y,1/2-z
3 1/2+x,1/2+y,z
4 1/2-x,1/2+y,1/2-z
5 -x,-y,-z
6 x,-y,1/2+z
7 1/2-x,1/2-y,-z
8 1/2+x,1/2-y,1/2+z
_cell_length_a                   4.914(2)
_cell_length_b                   14.222(2)
_cell_length_c                   13.987(2)
_cell_angle_alpha                90
_cell_angle_beta                 94.98(2)
_cell_angle_gamma                90
_cell_volume                     973.818
loop_
_atom_site_label
_atom_site_type_symbol
_atom_site_fract_x
_atom_site_fract_y
_atom_site_fract_z
Fe1 Fe 1.5000 0.12189(9) 0.7500
Cl1 Cl 2.2193(3) 0.0975(1) 1.0370(1)
O1 O 1.8169(8) 0.1216(3) 0.8633(3)
O2 O 2.1014(8) 0.2652(3) 1.1570(3)
O3 O 1.287(1) 0.0162(3) 0.8150(4)
C1 C 1.794(1) 0.1780(4) 0.9312(4)
C2 C 1.941(1) 0.2522(4) 1.0831(4)
C3 C 1.963(1) 0.1804(4) 1.0168(4)
H1 H 1.31(1) -0.034(5) 0.806(5)
H2 H 1.14(1) 0.029(4) 0.837(4)
C2F C 1.559(1) 0.2478(4) 0.9169(4)
O2F O 1.3986(8) 0.2348(3) 0.8430(3)
C3F C 1.537(1) 0.3196(4) 0.9832(4)
Cl1F Cl 1.2807(3) 0.4025(1) 0.9630(1)
C1F C 1.706(1) 0.3220(4) 1.0688(4)
O1F O 1.6831(8) 0.3784(3) 1.1367(3)
O1A O 1.1831(8) 0.1216(3) 0.6367(3)
O2G O 1.6014(8) 0.2348(3) 0.6570(3)
O3A O 1.713(1) 0.0162(3) 0.6850(4)
H1A H 1.69(1) -0.034(5) 0.694(5)
H2A H 1.86(1) 0.029(4) 0.663(4)
Fe1F Fe 2.0000 0.37811(9) 1.2500
O4 O 1.0000 0.3515(5) 0.7500
H3 H 1.11(1) 0.319(5) 0.771(6)
H3A H 0.89(1) 0.319(5) 0.729(6)
loop_
_geom_bond_atom_site_label_1
_geom_bond_atom_site_label_2
_geom_bond_site_symmetry_1
_geom_bond_site_symmetry_2
Fe1 O1 1_555 1_555
Cl1 C3 1_555 1_555
O1 C1 1_555 1_555
O2 C2 1_555 1_555
O3 Fe1 1_555 1_555
O4 H3 1_555 1_555
C1 C3 1_555 1_555
C2 C3 1_555 1_555
H1 O3 1_555 1_555
H2 O3 1_555 1_555
C2F C1 1_555 1_555
O2F Fe1 1_555 1_555
C3F C2F 1_555 1_555
Cl1F C3F 1_555 1_555
C1F C2 1_555 1_555
O1F C1F 1_555 1_555
H3A O4 1_555 1_555
O1A Fe1 1_555 1_555
O2G Fe1 1_555 1_555
O3A Fe1 1_555 1_555
H1A O3A 1_555 1_555
H2A O3A 1_555 1_555
Fe1F O2 1_555 1_555
C2F O2F 1_555 1_555
C3F C1F 1_555 1_555
O1F Fe1F 1_555 1_555

#END
