
#######################################################################
#
#                 Cambridge Crystallographic Data Centre
#                                CCDC 
#
#######################################################################
#
# If this CIF has been generated from an entry in the Cambridge 
# Structural Database, then it will include bibliographic, chemical, 
# crystal, experimental, refinement or atomic coordinate data resulting 
# from the CCDC's data processing and validation procedures.
#
#######################################################################

data_KIQKEA
_symmetry_cell_setting           triclinic
_symmetry_space_group_name_H-M   'P -1'
_symmetry_Int_Tables_number      2
_space_group_name_Hall           '-P 1'
loop_
_symmetry_equiv_pos_site_id
_symmetry_equiv_pos_as_xyz
1 x,y,z
2 -x,-y,-z
_cell_length_a                   7.959(2)
_cell_length_b                   11.362(3)
_cell_length_c                   5.074(2)
_cell_angle_alpha                96.69(3)
_cell_angle_beta                 98.29(2)
_cell_angle_gamma                83.21(2)
_cell_volume                     448.548
loop_
_atom_site_label
_atom_site_type_symbol
_atom_site_fract_x
_atom_site_fract_y
_atom_site_fract_z
Co1 Co -0.5000 0.5000 0.0000
Cl1 Cl -0.0727(9) 0.69204(9) -0.4203(2)
O1 O -0.2634(3) 0.4186(2) 0.1696(5)
O2 O -0.3262(3) 0.5798(2) -0.1729(5)
O3 O -0.5096(3) 0.3712(2) -0.3224(5)
C1 C -0.1352(4) 0.4527(3) 0.0977(7)
C2 C -0.1704(4) 0.5467(3) -0.1034(7)
C3 C -0.0338(4) 0.5881(3) -0.1886(7)
H1 H -0.4931 0.2822 -0.3251
H2 H -0.5817 0.3871 -0.4786
O1A O -0.7366(3) 0.5814(2) -0.1696(5)
O2A O -0.6738(3) 0.4202(2) 0.1729(5)
O3A O -0.4904(3) 0.6288(2) 0.3224(5)
H1A H -0.5069 0.7178 0.3251
H2A H -0.4183 0.6129 0.4786
C1A C 0.1352(4) 0.5473(3) -0.0977(7)
O1A_2 O 0.2634(3) 0.5814(2) -0.1696(5)
C2A C 0.1704(4) 0.4533(3) 0.1034(7)
C3A C 0.0338(4) 0.4119(3) 0.1886(7)
Cl1A Cl 0.0727(9) 0.30796(9) 0.4203(2)
O2A_2 O 0.3262(3) 0.4202(2) 0.1729(5)
Co1_2 Co 0.5000 0.5000 0.0000
N1 N -0.5040(4) 0.1228(3) 0.5869(7)
C4 C -0.2137(5) 0.0935(4) 0.0926(9)
C5 C -0.3076(5) 0.1433(4) 0.2854(9)
C6 C -0.4061(5) 0.0720(3) 0.4023(8)
C7 C -0.5983(5) 0.0528(3) 0.6864(8)
C8 C -0.7005(5) 0.1006(4) 0.8882(9)
C9 C -0.2103(5) -0.0288(4) 0.0020(9)
H3 H -0.1377 0.1464 -0.0005
H4 H -0.2963 0.2308 0.3703
H5 H -0.7012 0.1875 0.9433
H6 H -0.1249 -0.0764 -0.1361
C8A C -0.2995(5) -0.1006(4) 0.1118(9)
C7A C -0.4017(5) -0.0528(3) 0.3136(8)
N1A N -0.4960(4) -0.1228(3) 0.4131(7)
C6A C -0.5939(5) -0.0720(3) 0.5977(8)
C5A C -0.6924(5) -0.1433(4) 0.7146(9)
C4A C -0.7863(5) -0.0935(4) 0.9074(9)
C9A C -0.7897(5) 0.0288(4) 0.9980(9)
H6A H -0.8751 0.0764 1.1361
H3A H -0.8623 -0.1464 1.0005
H4A H -0.7037 -0.2308 0.6297
H5A H -0.2988 -0.1875 0.0567
loop_
_geom_bond_atom_site_label_1
_geom_bond_atom_site_label_2
_geom_bond_site_symmetry_1
_geom_bond_site_symmetry_2
Co1 O1 1_555 1_555
Cl1 C3 1_555 1_555
O1 C1 1_555 1_555
O2 Co1 1_555 1_555
O3 Co1 1_555 1_555
N1 C6 1_555 1_555
C1 C2 1_555 1_555
C2 O2 1_555 1_555
C3 C2 1_555 1_555
C4 C5 1_555 1_555
C5 C6 1_555 1_555
C6 C7A 1_555 1_555
C7 N1 1_555 1_555
C8 C7 1_555 1_555
C9 C4 1_555 1_555
H1 O3 1_555 1_555
H2 O3 1_555 1_555
H3 C4 1_555 1_555
H4 C5 1_555 1_555
H5 C8 1_555 1_555
H6 C9 1_555 1_555
O1A Co1 1_555 1_555
O2A Co1 1_555 1_555
O3A Co1 1_555 1_555
H1A O3A 1_555 1_555
H2A O3A 1_555 1_555
C1A C3 1_555 1_555
O1A_2 C1A 1_555 1_555
C2A C1A 1_555 1_555
C3A C1 1_555 1_555
Cl1A C3A 1_555 1_555
O2A_2 C2A 1_555 1_555
C8A C9 1_555 1_555
C7A C8A 1_555 1_555
N1A C7A 1_555 1_555
C6A C7 1_555 1_555
C5A C6A 1_555 1_555
C4A C5A 1_555 1_555
C9A C8 1_555 1_555
H6A C9A 1_555 1_555
H3A C4A 1_555 1_555
H4A C5A 1_555 1_555
H5A C8A 1_555 1_555
Co1_2 O1A_2 1_555 1_555
C2A C3A 1_555 1_555
O2A_2 Co1_2 1_555 1_555
N1A C6A 1_555 1_555
C4A C9A 1_555 1_555

#END
