
#######################################################################
#
#                 Cambridge Crystallographic Data Centre
#                                CCDC 
#
#######################################################################
#
# If this CIF has been generated from an entry in the Cambridge 
# Structural Database, then it will include bibliographic, chemical, 
# crystal, experimental, refinement or atomic coordinate data resulting 
# from the CCDC's data processing and validation procedures.
#
#######################################################################

data_KIRJIG
_symmetry_cell_setting           monoclinic
_symmetry_space_group_name_H-M   'P 2/c'
_symmetry_Int_Tables_number      13
_space_group_name_Hall           '-P 2yc'
loop_
_symmetry_equiv_pos_site_id
_symmetry_equiv_pos_as_xyz
1 x,y,z
2 -x,y,1/2-z
3 -x,-y,-z
4 x,-y,1/2+z
_cell_length_a                   9.5305(14)
_cell_length_b                   9.8936(14)
_cell_length_c                   16.379(2)
_cell_angle_alpha                90
_cell_angle_beta                 98.188(2)
_cell_angle_gamma                90
_cell_volume                     1528.65
loop_
_atom_site_label
_atom_site_type_symbol
_atom_site_fract_x
_atom_site_fract_y
_atom_site_fract_z
C1 C 0.3880(3) 0.2226(4) 0.36917(18)
C2 C 0.3560(3) 0.1613(3) 0.44920(16)
C3 C 0.4083(3) 0.2223(3) 0.52337(16)
H1 H 0.4549 0.3047 0.5225
C4 C 0.3938(3) 0.1645(3) 0.59936(15)
C5 C 0.3202(3) 0.0433(3) 0.59937(17)
H2 H 0.3094 0.0018 0.6490
C6 C 0.2628(4) -0.0158(3) 0.52520(19)
H3 H 0.2094 -0.0944 0.5256
C7 C 0.2839(4) 0.0407(3) 0.45087(18)
H4 H 0.2494 -0.0027 0.4017
C8 C 0.4518(3) 0.2325(3) 0.67795(15)
C9 C 0.5000 0.1612(4) 0.7500
H5 H 0.5000 0.0672 0.7500
C10 C 0.4549(3) 0.3728(3) 0.68161(15)
H6 H 0.4238 0.4206 0.6336
C11 C 0.2835(3) 0.6477(3) 0.58976(16)
H7 H 0.3593 0.6308 0.5612
C12 C 0.0685(3) 0.6822(4) 0.61554(18)
H8 H -0.0292 0.6937 0.6102
C13 C 0.1623(3) 0.6894(4) 0.68601(18)
H9 H 0.1381 0.7068 0.7380
C14 C 0.1015(3) 0.6479(3) 0.46590(16)
C15 C -0.0282(3) 0.6985(3) 0.43289(18)
H10 H -0.0892 0.7338 0.4670
C16 C -0.0675(3) 0.6964(4) 0.34791(18)
H11 H -0.1562 0.7292 0.3257
C17 C 0.0215(3) 0.6470(3) 0.29575(16)
C18 C 0.1516(3) 0.5945(4) 0.33046(18)
H12 H 0.2134 0.5601 0.2965
C19 C 0.1900(3) 0.5932(3) 0.41553(18)
H13 H 0.2759 0.5551 0.4384
Co1 Co 0.5000 0.66681(5) 0.7500
N1 N 0.2971(2) 0.6676(2) 0.66993(13)
N2 N 0.5000 0.4433(3) 0.7500
N3 N 0.1475(2) 0.6544(2) 0.55384(13)
O1 O 0.4127(2) 0.3473(3) 0.36661(13)
O2 O 0.3969(3) 0.1492(3) 0.30936(13)
C1A C 0.6120(3) 0.2226(4) 1.13083(18)
C2A C 0.6440(3) 0.1613(3) 1.05080(16)
C3A C 0.5917(3) 0.2223(3) 0.97663(16)
H1A H 0.5451 0.3047 0.9775
C4A C 0.6062(3) 0.1645(3) 0.90064(15)
C5A C 0.6798(3) 0.0433(3) 0.90063(17)
H2A H 0.6906 0.0018 0.8510
C6A C 0.7372(4) -0.0158(3) 0.97480(19)
H3A H 0.7906 -0.0944 0.9744
C7A C 0.7161(4) 0.0407(3) 1.04913(18)
H4A H 0.7506 -0.0027 1.0983
C8A C 0.5482(3) 0.2325(3) 0.82205(15)
C10A C 0.5451(3) 0.3728(3) 0.81839(15)
H6A H 0.5762 0.4206 0.8664
O1A O 0.5873(2) 0.3473(3) 1.13339(13)
O2A O 0.6031(3) 0.1492(3) 1.19064(13)
C11A C -0.2835(3) 0.6477(3) -0.08976(16)
H7A H -0.3593 0.6308 -0.0612
C12A C -0.0685(3) 0.6822(4) -0.11554(18)
H8A H 0.0292 0.6937 -0.1102
C13A C -0.1623(3) 0.6894(4) -0.18601(18)
H9A H -0.1381 0.7068 -0.2380
C14A C -0.1015(3) 0.6479(3) 0.03410(16)
C15A C 0.0282(3) 0.6985(3) 0.06711(18)
H10A H 0.0892 0.7338 0.0330
C16A C 0.0675(3) 0.6964(4) 0.15209(18)
H11A H 0.1562 0.7292 0.1743
C17A C -0.0215(3) 0.6470(3) 0.20425(16)
C18A C -0.1516(3) 0.5945(4) 0.16954(18)
H12A H -0.2134 0.5601 0.2035
C19A C -0.1900(3) 0.5932(3) 0.08447(18)
H13A H -0.2759 0.5551 0.0616
N1A N -0.2971(2) 0.6676(2) -0.16993(13)
N3A N -0.1475(2) 0.6544(2) -0.05384(13)
Co1_2 Co -0.5000 0.66681(5) -0.2500
Co1B Co 0.5000 0.33319(5) 0.2500
Co1B_2 Co 0.5000 0.33319(5) 1.2500
N1A_2 N 0.7029(2) 0.6676(2) 0.83007(13)
O1B O 0.5873(2) 0.6527(3) 0.63339(13)
O1C O 0.4127(2) 0.6527(3) 0.86661(13)
O2B O 0.6031(3) 0.8508(3) 0.69064(13)
O2C O 0.3969(3) 0.8508(3) 0.80936(13)
loop_
_geom_bond_atom_site_label_1
_geom_bond_atom_site_label_2
_geom_bond_site_symmetry_1
_geom_bond_site_symmetry_2
C1 C2 1_555 1_555
C2 C3 1_555 1_555
C3 H1 1_555 1_555
C4 C3 1_555 1_555
C5 C4 1_555 1_555
H2 C5 1_555 1_555
C6 C5 1_555 1_555
H3 C6 1_555 1_555
C7 C2 1_555 1_555
H4 C7 1_555 1_555
C8 C4 1_555 1_555
C9 C8 1_555 1_555
H5 C9 1_555 1_555
C10 C8 1_555 1_555
H6 C10 1_555 1_555
C11 H7 1_555 1_555
C12 H8 1_555 1_555
C13 C12 1_555 1_555
H9 C13 1_555 1_555
C14 C15 1_555 1_555
C15 H10 1_555 1_555
C16 C15 1_555 1_555
H11 C16 1_555 1_555
C17 C16 1_555 1_555
C18 C17 1_555 1_555
H12 C18 1_555 1_555
C19 C14 1_555 1_555
H13 C19 1_555 1_555
Co1 N1 1_555 1_555
N1 C11 1_555 1_555
N2 C10 1_555 1_555
N3 C11 1_555 1_555
O1 C1 1_555 1_555
O2 C1 1_555 1_555
C1A C2A 1_555 1_555
C2A C3A 1_555 1_555
C3A H1A 1_555 1_555
C4A C3A 1_555 1_555
C5A C4A 1_555 1_555
H2A C5A 1_555 1_555
C6A C5A 1_555 1_555
H3A C6A 1_555 1_555
C7A C2A 1_555 1_555
H4A C7A 1_555 1_555
C8A C9 1_555 1_555
C10A N2 1_555 1_555
H6A C10A 1_555 1_555
O1A C1A 1_555 1_555
O2A C1A 1_555 1_555
C11A H7A 1_555 1_555
C12A H8A 1_555 1_555
C13A C12A 1_555 1_555
H9A C13A 1_555 1_555
C14A C15A 1_555 1_555
C15A H10A 1_555 1_555
C16A C15A 1_555 1_555
H11A C16A 1_555 1_555
C17A C17 1_555 1_555
C18A C17A 1_555 1_555
H12A C18A 1_555 1_555
C19A C14A 1_555 1_555
H13A C19A 1_555 1_555
N1A C11A 1_555 1_555
N3A C11A 1_555 1_555
Co1_2 N1A 1_555 1_555
Co1B O1 1_555 1_555
Co1B_2 O1A 1_555 1_555
N1A_2 Co1 1_555 1_555
O1B Co1 1_555 1_555
O1C Co1 1_555 1_555
O2B Co1 1_555 1_555
O2C Co1 1_555 1_555
C6 C7 1_555 1_555
C12 N3 1_555 1_555
C13 N1 1_555 1_555
C14 N3 1_555 1_555
C18 C19 1_555 1_555
Co1 N2 1_555 1_555
O2 Co1B 1_555 1_555
C4A C8A 1_555 1_555
C6A C7A 1_555 1_555
C8A C10A 1_555 1_555
O2A Co1B_2 1_555 1_555
C12A N3A 1_555 1_555
C13A N1A 1_555 1_555
C14A N3A 1_555 1_555
C16A C17A 1_555 1_555
C18A C19A 1_555 1_555

#END
