
#######################################################################
#
#                 Cambridge Crystallographic Data Centre
#                                CCDC 
#
#######################################################################
#
# If this CIF has been generated from an entry in the Cambridge 
# Structural Database, then it will include bibliographic, chemical, 
# crystal, experimental, refinement or atomic coordinate data resulting 
# from the CCDC's data processing and validation procedures.
#
#######################################################################

data_KIRKIH
_symmetry_cell_setting           monoclinic
_symmetry_space_group_name_H-M   'P 21/c'
_symmetry_Int_Tables_number      14
_space_group_name_Hall           '-P 2ybc'
loop_
_symmetry_equiv_pos_site_id
_symmetry_equiv_pos_as_xyz
1 x,y,z
2 -x,1/2+y,1/2-z
3 -x,-y,-z
4 x,1/2-y,1/2+z
_cell_length_a                   12.426(8)
_cell_length_b                   12.012(8)
_cell_length_c                   10.386(7)
_cell_angle_alpha                90
_cell_angle_beta                 107.141(12)
_cell_angle_gamma                90
_cell_volume                     1481.37
loop_
_atom_site_label
_atom_site_type_symbol
_atom_site_fract_x
_atom_site_fract_y
_atom_site_fract_z
C1 C 0.1976(4) 0.7126(4) 0.5632(5)
H1 H 0.1420 0.7149 0.6066
C2 C 0.2350(4) 0.6084(4) 0.5358(5)
C3 C 0.3199(4) 0.6058(4) 0.4735(5)
H2 H 0.3470 0.5379 0.4530
C4 C 0.3643(4) 0.7049(4) 0.4418(5)
C5 C 0.3179(4) 0.8041(4) 0.4701(5)
H3 H 0.3448 0.8705 0.4454
C6 C 0.4575(4) 0.7077(4) 0.3786(5)
C7 C 0.4756(4) 0.6198(4) 0.2982(6)
H4 H 0.4289 0.5577 0.2831
C8 C 0.5632(4) 0.6259(4) 0.2413(5)
H5 H 0.5745 0.5671 0.1886
C9 C 0.6339(4) 0.7164(4) 0.2606(5)
H6 H 0.6896 0.7203 0.2174
C10 C 0.6214(4) 0.8018(4) 0.3450(5)
C11 C 0.5335(4) 0.7969(4) 0.4019(5)
H7 H 0.5247 0.8549 0.4573
C12 C 0.7047(4) 0.8968(4) 0.3848(6)
C13 C 0.1787(4) 0.5068(4) 0.5711(5)
C14 C 0.1315(4) 0.5124(4) 0.6762(5)
H8 H 0.1413 0.5766 0.7284
C15 C 0.0698(4) 0.4244(4) 0.7059(5)
C16 C 0.0590(4) 0.3265(4) 0.6317(6)
H9 H 0.0195 0.2663 0.6514
C17 C 0.1079(4) 0.3199(4) 0.5275(6)
H10 H 0.1019 0.2541 0.4786
C18 C 0.1651(4) 0.4087(4) 0.4952(5)
H11 H 0.1948 0.4035 0.4230
C19 C 0.0096(4) 0.4451(4) 0.8101(6)
Co1 Co 0.84742(6) 1.04826(5) 0.43518(7)
N1 N 0.2361(3) 0.8094(3) 0.5313(4)
O1 O 0.7175(3) 0.9437(3) 0.4949(4)
O2 O 0.7620(3) 0.9262(3) 0.3083(4)
O3 O 0.0336(3) 0.5311(3) 0.8851(4)
O4 O -0.0680(3) 0.3793(3) 0.8156(4)
Co1A Co 0.15258(6) 0.54826(5) 1.06482(7)
Co1B Co 0.15258(6) 0.95174(5) 0.56482(7)
Co1C Co -0.15258(6) 0.45174(5) 0.93518(7)
N1B N 0.7639(3) 1.1906(3) 0.4687(4)
O3A O 0.9664(3) 1.0311(3) 0.6149(4)
O4C O 0.9320(3) 1.1207(3) 0.3156(4)
loop_
_geom_bond_atom_site_label_1
_geom_bond_atom_site_label_2
_geom_bond_site_symmetry_1
_geom_bond_site_symmetry_2
C1 H1 1_555 1_555
C2 C1 1_555 1_555
C3 C2 1_555 1_555
H2 C3 1_555 1_555
C4 C3 1_555 1_555
C5 C4 1_555 1_555
H3 C5 1_555 1_555
C6 C4 1_555 1_555
C7 C6 1_555 1_555
H4 C7 1_555 1_555
C8 C7 1_555 1_555
H5 C8 1_555 1_555
C9 C8 1_555 1_555
H6 C9 1_555 1_555
C10 C9 1_555 1_555
C11 C6 1_555 1_555
H7 C11 1_555 1_555
C12 C10 1_555 1_555
C13 C2 1_555 1_555
C14 C13 1_555 1_555
H8 C14 1_555 1_555
C15 C14 1_555 1_555
C16 C15 1_555 1_555
H9 C16 1_555 1_555
C17 C16 1_555 1_555
H10 C17 1_555 1_555
C18 C13 1_555 1_555
H11 C18 1_555 1_555
C19 C15 1_555 1_555
Co1 O1 1_555 1_555
N1 C1 1_555 1_555
O1 C12 1_555 1_555
O2 C12 1_555 1_555
O3 C19 1_555 1_555
O4 C19 1_555 1_555
Co1A O3 1_555 1_555
Co1B N1 1_555 1_555
Co1C O4 1_555 1_555
N1B Co1 1_555 1_555
O3A Co1 1_555 1_555
O4C Co1 1_555 1_555
C5 N1 1_555 1_555
C10 C11 1_555 1_555
C17 C18 1_555 1_555
Co1 O2 1_555 1_555

#END
