
#######################################################################
#
#                 Cambridge Crystallographic Data Centre
#                                CCDC 
#
#######################################################################
#
# If this CIF has been generated from an entry in the Cambridge 
# Structural Database, then it will include bibliographic, chemical, 
# crystal, experimental, refinement or atomic coordinate data resulting 
# from the CCDC's data processing and validation procedures.
#
#######################################################################

data_KIRKIF
_symmetry_cell_setting           monoclinic
_symmetry_space_group_name_H-M   'P 21'
_symmetry_Int_Tables_number      4
_space_group_name_Hall           'P 2yb'
loop_
_symmetry_equiv_pos_site_id
_symmetry_equiv_pos_as_xyz
1 x,y,z
2 -x,1/2+y,-z
_cell_length_a                   13.022(1)
_cell_length_b                   7.753(1)
_cell_length_c                   10.533(1)
_cell_angle_alpha                90
_cell_angle_beta                 91.18(1)
_cell_angle_gamma                90
_cell_volume                     1063.18
loop_
_atom_site_label
_atom_site_type_symbol
_atom_site_fract_x
_atom_site_fract_y
_atom_site_fract_z
Cu1 Cu -0.3818(1) 0.5000 -0.3725(1)
C1 C -0.2439(5) 0.5017(17) -0.1601(7)
C2 C -0.1569(6) 0.5239(17) -0.0842(8)
C3 C -0.0737(7) 0.6057(18) -0.1351(10)
C4 C -0.0797(7) 0.6698(16) -0.2537(10)
C5 C -0.1701(6) 0.6496(14) -0.3238(8)
C6 C -0.3379(6) 0.4126(12) -0.1150(7)
C7 C -0.3501(7) 0.3442(15) 0.0030(8)
C8 C -0.4410(8) 0.2692(16) 0.0368(8)
C9 C -0.5207(7) 0.2681(16) -0.0519(8)
C10 C -0.5039(7) 0.3374(15) -0.1714(8)
C11 C -0.4575(6) 0.3129(12) -0.5776(7)
C12 C -0.3695(6) 0.4201(12) -0.6305(7)
C13 C -0.2729(6) 0.2986(15) -0.6470(7)
C14 C -0.2091(7) 0.2684(15) -0.5301(8)
C15 C -0.1123(7) 0.3366(17) -0.5115(9)
C16 C -0.1433(8) 0.1797(15) -0.3366(10)
C17 C -0.2326(7) 0.1655(14) -0.4203(9)
C18 C -0.3142(7) 0.0636(14) -0.3798(10)
C19 C -0.3142(8) -0.0064(21) -0.2618(10)
C20 C -0.2287(9) 0.0058(23) -0.1783(10)
C21 C -0.1440(9) 0.1012(18) -0.2165(11)
N1 N -0.2516(5) 0.5671(9) -0.2784(6)
N2 N -0.4156(5) 0.4101(10) -0.2039(6)
N3 N -0.3471(5) 0.5669(10) -0.5488(6)
N4 N -0.0744(6) 0.2786(14) -0.3962(8)
O1 O -0.4809(4) 0.3424(8) -0.4632(4)
O2 O -0.5009(4) 0.2060(8) -0.6486(5)
Cu1A Cu -0.6182(1) 0.0000 -0.6275(1)
O2A O -0.4991(4) 0.7060(8) -0.3514(5)
Cl1 Cl -0.8188(2) 0.3023(4) -0.2186(2)
O3 O -0.7914(12) 0.4690(23) -0.1709(12)
O4 O -0.9084(6) 0.2642(20) -0.1620(10)
O5 O -0.7436(6) 0.1848(13) -0.1829(8)
O6 O -0.8323(6) 0.3059(18) -0.3502(7)
loop_
_geom_bond_atom_site_label_1
_geom_bond_atom_site_label_2
_geom_bond_site_symmetry_1
_geom_bond_site_symmetry_2
Cu1 N1 1_555 1_555
Cl1 O3 1_555 1_555
C1 C2 1_555 1_555
C2 C3 1_555 1_555
C3 C4 1_555 1_555
C4 C5 1_555 1_555
C5 N1 1_555 1_555
C6 C1 1_555 1_555
C7 C6 1_555 1_555
C8 C7 1_555 1_555
C9 C8 1_555 1_555
C10 C9 1_555 1_555
C11 C12 1_555 1_555
C12 C13 1_555 1_555
C13 C14 1_555 1_555
C14 C15 1_555 1_555
C15 N4 1_555 1_555
C16 C17 1_555 1_555
C17 C14 1_555 1_555
C18 C17 1_555 1_555
C19 C18 1_555 1_555
C20 C19 1_555 1_555
C21 C16 1_555 1_555
N1 C1 1_555 1_555
N2 Cu1 1_555 1_555
N3 Cu1 1_555 1_555
N4 C16 1_555 1_555
O1 Cu1 1_555 1_555
O2 C11 1_555 1_555
O4 Cl1 1_555 1_555
O5 Cl1 1_555 1_555
O6 Cl1 1_555 1_555
Cu1A O2 1_555 1_555
O2A Cu1 1_555 1_555
C6 N2 1_555 1_555
C10 N2 1_555 1_555
C11 O1 1_555 1_555
C12 N3 1_555 1_555
C20 C21 1_555 1_555

#END
