
#######################################################################
#
#                 Cambridge Crystallographic Data Centre
#                                CCDC 
#
#######################################################################
#
# If this CIF has been generated from an entry in the Cambridge 
# Structural Database, then it will include bibliographic, chemical, 
# crystal, experimental, refinement or atomic coordinate data resulting 
# from the CCDC's data processing and validation procedures.
#
#######################################################################

data_KISDUM
_symmetry_cell_setting           monoclinic
_symmetry_space_group_name_H-M   'C 2/c'
_symmetry_Int_Tables_number      15
_space_group_name_Hall           '-C 2yn'
loop_
_symmetry_equiv_pos_site_id
_symmetry_equiv_pos_as_xyz
1 x,y,z
2 1/2+x,1/2+y,z
3 -x,y,1/2-z
4 1/2-x,1/2+y,1/2-z
5 -x,-y,-z
6 1/2-x,1/2-y,-z
7 x,-y,1/2+z
8 1/2+x,1/2-y,1/2+z
_cell_length_a                   11.3836(14)
_cell_length_b                   16.413(3)
_cell_length_c                   11.867(2)
_cell_angle_alpha                90
_cell_angle_beta                 106.294(11)
_cell_angle_gamma                90
_cell_volume                     2128.16
loop_
_atom_site_label
_atom_site_type_symbol
_atom_site_fract_x
_atom_site_fract_y
_atom_site_fract_z
Pb1 Pb 1.0000 0.19348(4) 0.2500
Ag1 Ag 0.5000 0.13899(8) 0.2500
Ag2 Ag 1.0000 0.5000 0.5000
N1 N 0.7806(7) 0.1521(5) 0.2585(8)
N2 N 0.9433(11) 0.3204(8) 0.4110(10)
N3 N 0.8993(7) 0.1291(5) 0.0535(7)
N4 N 1.0000 0.0401(6) 0.2500
C1 C 0.6818(9) 0.1448(6) 0.2545(10)
C2 C 0.9608(13) 0.3859(10) 0.4418(13)
C3 C 0.8464(9) 0.1744(7) -0.0385(9)
C4 C 0.7647(10) 0.1430(8) -0.1397(10)
C5 C 0.7402(10) 0.0627(9) -0.1434(11)
C6 C 0.7924(10) 0.0144(7) -0.0506(11)
C7 C 0.8732(8) 0.0487(7) 0.0506(9)
C8 C 0.9390(8) 0.0000(6) 0.1533(9)
C9 C 0.9371(9) -0.0834(7) 0.1529(10)
C10 C 1.000000(7) -0.1256(10) 0.250000(7)
H1 H 0.8649 0.2297 -0.0346
H2 H 0.7281 0.1766 -0.2029
H3 H 0.6868 0.0400 -0.2101
H4 H 0.7765 -0.0413 -0.0533
H5 H 0.8931 -0.1115 0.0863
H6 H 1.0000 -0.1823 0.2500
Ag1_2 Ag 1.5000 0.13899(8) 0.2500
Ag2F Ag 1.0000 0.5000 0.0000
N1B N 1.2194(7) 0.1521(5) 0.2415(8)
N2B N 1.0567(11) 0.3204(8) 0.0890(10)
N3B N 1.1007(7) 0.1291(5) 0.4465(7)
C1B C 1.3182(9) 0.1448(6) 0.2455(10)
C1B_2 C 0.3182(9) 0.1448(6) 0.2455(10)
C2B C 1.0392(13) 0.3859(10) 0.0582(13)
C2D C 1.0392(13) 0.6141(10) 0.5582(13)
C3B C 1.1536(9) 0.1744(7) 0.5385(9)
C4B C 1.2353(10) 0.1430(8) 0.6397(10)
C5B C 1.2598(10) 0.0627(9) 0.6434(11)
C6B C 1.2076(10) 0.0144(7) 0.5506(11)
C7B C 1.1268(8) 0.0487(7) 0.4494(9)
C8B C 1.0610(8) 0.0000(6) 0.3467(9)
C9B C 1.0629(9) -0.0834(7) 0.3471(10)
H1B H 1.1351 0.2297 0.5346
H2B H 1.2719 0.1766 0.7029
H3B H 1.3132 0.0400 0.7101
H4B H 1.2235 -0.0413 0.5533
H5B H 1.1069 -0.1115 0.4137
loop_
_geom_bond_atom_site_label_1
_geom_bond_atom_site_label_2
_geom_bond_site_symmetry_1
_geom_bond_site_symmetry_2
Pb1 N1 1_555 1_555
Ag1 C1 1_555 1_555
Ag2 C2 1_555 1_555
N1 C1 1_555 1_555
N2 Pb1 1_555 1_555
N3 Pb1 1_555 1_555
N4 Pb1 1_555 1_555
C2 N2 1_555 1_555
C3 N3 1_555 1_555
C4 C3 1_555 1_555
C5 C4 1_555 1_555
C6 C5 1_555 1_555
C7 N3 1_555 1_555
C8 N4 1_555 1_555
C9 C8 1_555 1_555
C10 C9 1_555 1_555
H1 C3 1_555 1_555
H2 C4 1_555 1_555
H3 C5 1_555 1_555
H4 C6 1_555 1_555
H5 C9 1_555 1_555
H6 C10 1_555 1_555
Ag1_2 C1B 1_555 1_555
Ag2F C2B 1_555 1_555
N1B Pb1 1_555 1_555
N2B Pb1 1_555 1_555
N3B Pb1 1_555 1_555
C1B N1B 1_555 1_555
C1B_2 Ag1 1_555 1_555
C2B N2B 1_555 1_555
C2D Ag2 1_555 1_555
C3B N3B 1_555 1_555
C4B C3B 1_555 1_555
C5B C4B 1_555 1_555
C6B C5B 1_555 1_555
C7B N3B 1_555 1_555
C8B N4 1_555 1_555
C9B C10 1_555 1_555
H1B C3B 1_555 1_555
H2B C4B 1_555 1_555
H3B C5B 1_555 1_555
H4B C6B 1_555 1_555
H5B C9B 1_555 1_555
C6 C7 1_555 1_555
C7 C8 1_555 1_555
C6B C7B 1_555 1_555
C7B C8B 1_555 1_555
C8B C9B 1_555 1_555

#END
