
#######################################################################
#
#                 Cambridge Crystallographic Data Centre
#                                CCDC 
#
#######################################################################
#
# If this CIF has been generated from an entry in the Cambridge 
# Structural Database, then it will include bibliographic, chemical, 
# crystal, experimental, refinement or atomic coordinate data resulting 
# from the CCDC's data processing and validation procedures.
#
#######################################################################

data_KISSOV
_symmetry_cell_setting           monoclinic
_symmetry_space_group_name_H-M   'P 21/c'
_symmetry_Int_Tables_number      14
_space_group_name_Hall           '-P 2ybc'
loop_
_symmetry_equiv_pos_site_id
_symmetry_equiv_pos_as_xyz
1 x,y,z
2 -x,1/2+y,1/2-z
3 -x,-y,-z
4 x,1/2-y,1/2+z
_cell_length_a                   17.723(1)
_cell_length_b                   8.817(1)
_cell_length_c                   11.386(2)
_cell_angle_alpha                90.00
_cell_angle_beta                 90.00
_cell_angle_gamma                90.00
_cell_volume                     1779.22
loop_
_atom_site_label
_atom_site_type_symbol
_atom_site_fract_x
_atom_site_fract_y
_atom_site_fract_z
Cd1 Cd 0.273526(12) 0.69431(3) 0.601580(17)
S1 S 0.15035(5) 0.79832(15) 0.49665(8)
S2 S 0.34191(6) 0.92292(11) 0.70000(7)
O1 O 0.25731(12) 0.4478(3) 0.5631(2)
O2 O 0.38658(12) 0.5224(3) 0.66501(19)
N1 N 0.1859(2) 0.2898(4) 0.4063(3)
N2 N 0.20113(17) 0.8445(4) 0.2685(2)
N3 N 0.34330(17) 0.8028(4) 0.9274(2)
C1 C 0.3124(2) 0.2382(4) 0.4645(3)
C2 C 0.31598(18) 0.3638(4) 0.5420(3)
C3 C 0.38692(18) 0.3961(4) 0.5944(3)
C4 C 0.4491(2) 0.3091(4) 0.5711(3)
H1 H 0.4953 0.3336 0.6050
C5 C 0.4435(2) 0.1829(4) 0.4963(4)
H2 H 0.4858 0.1234 0.4819
C6 C 0.3775(3) 0.1476(4) 0.4454(4)
H3 H 0.3744 0.0627 0.3971
C7 C 0.2462(3) 0.2100(4) 0.3994(3)
H4 H 0.2463 0.1280 0.3480
C8 C 0.1181(3) 0.2719(6) 0.3333(5)
H5 H 0.1113 0.1648 0.3130
C9 C 0.1222(3) 0.3669(11) 0.2217(5)
H6 H 0.1542 0.4550 0.2333
H7 H 0.1422 0.3076 0.1570
C10 C 0.0459(4) 0.4119(12) 0.1986(7)
H8 H 0.0449 0.5154 0.1697
H9 H 0.0241 0.3466 0.1390
C11 C 0.0034(5) 0.4012(13) 0.3036(7)
H10 H -0.0418 0.3415 0.2900
H11 H -0.0118 0.5016 0.3292
C12 C 0.0492(3) 0.3302(8) 0.3929(5)
H12 H 0.0218 0.2476 0.4297
H13 H 0.0627 0.4033 0.4530
C13 C 0.4580(2) 0.5712(5) 0.7107(3)
H14 H 0.4796 0.4914 0.7572
H15 H 0.4508 0.6595 0.7587
H16 H 0.4913 0.5952 0.6469
C14 C 0.18110(18) 0.8243(3) 0.3623(3)
C15 C 0.34178(18) 0.8518(4) 0.8341(3)
H17 H 0.186(2) 0.372(3) 0.453(3)
Cd1C Cd 0.273526(12) 0.80569(3) 0.101580(17)
Cd1C_2 Cd 0.273526(12) 0.80569(3) 1.101580(17)
N2C N 0.20113(17) 0.6555(4) 0.7685(2)
N3C N 0.34330(17) 0.6972(4) 0.4274(2)
loop_
_geom_bond_atom_site_label_1
_geom_bond_atom_site_label_2
_geom_bond_site_symmetry_1
_geom_bond_site_symmetry_2
Cd1 S1 1_555 1_555
S1 C14 1_555 1_555
S2 Cd1 1_555 1_555
O1 Cd1 1_555 1_555
O2 Cd1 1_555 1_555
N1 C7 1_555 1_555
N2 C14 1_555 1_555
N3 C15 1_555 1_555
C1 C2 1_555 1_555
C2 O1 1_555 1_555
C3 O2 1_555 1_555
C4 C3 1_555 1_555
H1 C4 1_555 1_555
C5 C4 1_555 1_555
H2 C5 1_555 1_555
C6 C1 1_555 1_555
H3 C6 1_555 1_555
C7 C1 1_555 1_555
H4 C7 1_555 1_555
C8 N1 1_555 1_555
H5 C8 1_555 1_555
C9 C8 1_555 1_555
H6 C9 1_555 1_555
H7 C9 1_555 1_555
C10 C9 1_555 1_555
H8 C10 1_555 1_555
H9 C10 1_555 1_555
C11 C10 1_555 1_555
H10 C11 1_555 1_555
H11 C11 1_555 1_555
C12 C8 1_555 1_555
H12 C12 1_555 1_555
H13 C12 1_555 1_555
C13 O2 1_555 1_555
H14 C13 1_555 1_555
H15 C13 1_555 1_555
H16 C13 1_555 1_555
C15 S2 1_555 1_555
H17 N1 1_555 1_555
Cd1C N2 1_555 1_555
Cd1C_2 N3 1_555 1_555
N2C Cd1 1_555 1_555
N3C Cd1 1_555 1_555
C2 C3 1_555 1_555
C5 C6 1_555 1_555
C11 C12 1_555 1_555

#END
