
#######################################################################
#
#                 Cambridge Crystallographic Data Centre
#                                CCDC 
#
#######################################################################
#
# If this CIF has been generated from an entry in the Cambridge 
# Structural Database, then it will include bibliographic, chemical, 
# crystal, experimental, refinement or atomic coordinate data resulting 
# from the CCDC's data processing and validation procedures.
#
#######################################################################

data_KISSIP
_symmetry_cell_setting           triclinic
_symmetry_space_group_name_H-M   'P -1'
_symmetry_Int_Tables_number      2
_space_group_name_Hall           '-P 1'
loop_
_symmetry_equiv_pos_site_id
_symmetry_equiv_pos_as_xyz
1 x,y,z
2 -x,-y,-z
_cell_length_a                   8.439(1)
_cell_length_b                   9.240(1)
_cell_length_c                   10.565(2)
_cell_angle_alpha                83.057(1)
_cell_angle_beta                 73.996(1)
_cell_angle_gamma                80.076(1)
_cell_volume                     777.697
loop_
_atom_site_label
_atom_site_type_symbol
_atom_site_fract_x
_atom_site_fract_y
_atom_site_fract_z
Cd1 Cd 0.42605(2) 0.376908(18) 0.276780(16)
S1 S 0.48538(10) 0.21676(7) 0.49873(7)
S2 S 0.73474(9) 0.33358(9) 0.12113(7)
O1 O 0.3945(2) 0.15463(19) 0.23916(18)
O2 O 0.1226(2) 0.3362(2) 0.35611(19)
N1 N 0.5283(3) -0.0952(2) 0.1441(2)
N2 N 0.5892(3) 0.4180(2) 0.6248(2)
N3 N 0.6827(3) 0.4896(3) -0.1111(2)
C1 C 0.2368(3) -0.0365(3) 0.2471(3)
C2 C 0.2511(3) 0.1074(3) 0.2732(2)
C3 C 0.1024(3) 0.1979(3) 0.3337(2)
C4 C -0.0488(3) 0.1477(3) 0.3670(3)
H1 H -0.1448 0.2087 0.4073
C5 C -0.0593(4) 0.0045(4) 0.3405(3)
H2 H -0.1623 -0.0286 0.3632
C6 C 0.0789(4) -0.0849(3) 0.2825(3)
H3 H 0.0705 -0.1793 0.2655
C7 C 0.3787(4) -0.1296(3) 0.1796(3)
H4 H 0.3638 -0.2207 0.1594
C8 C 0.6720(4) -0.1866(3) 0.0743(3)
H5 H 0.6553 -0.2448 0.0086
C9 C 0.8335(4) -0.1300(4) 0.0417(3)
H6 H 0.8342 -0.0347 0.0710
H7 H 0.9118 -0.1518 -0.0425
C10 C 0.8013(4) -0.2545(4) 0.1442(3)
H8 H 0.7821 -0.2347 0.2357
H9 H 0.8596 -0.3519 0.1222
C11 C -0.0129(4) 0.4502(4) 0.3531(4)
H10 H -0.0543 0.4428 0.2785
H11 H 0.0241 0.5441 0.3460
H12 H -0.1000 0.4407 0.4329
C12 C 0.5434(3) 0.3372(3) 0.5720(2)
C13 C 0.7029(3) 0.4266(3) -0.0146(2)
H13 H 0.540(5) -0.011(2) 0.173(4)
Cd1A Cd 0.57395(2) 0.623092(18) 0.723220(16)
Cd1A_2 Cd 0.57395(2) 0.623092(18) -0.276780(16)
N2A N 0.4108(3) 0.5820(2) 0.3752(2)
N3A N 0.3173(3) 0.5104(3) 0.1111(2)
loop_
_geom_bond_atom_site_label_1
_geom_bond_atom_site_label_2
_geom_bond_site_symmetry_1
_geom_bond_site_symmetry_2
Cd1 S1 1_555 1_555
S1 C12 1_555 1_555
S2 Cd1 1_555 1_555
O1 Cd1 1_555 1_555
O2 Cd1 1_555 1_555
N1 C7 1_555 1_555
N2 C12 1_555 1_555
N3 C13 1_555 1_555
C1 C2 1_555 1_555
C2 O1 1_555 1_555
C3 O2 1_555 1_555
C4 C3 1_555 1_555
H1 C4 1_555 1_555
C5 C4 1_555 1_555
H2 C5 1_555 1_555
C6 C1 1_555 1_555
H3 C6 1_555 1_555
C7 C1 1_555 1_555
H4 C7 1_555 1_555
C8 N1 1_555 1_555
H5 C8 1_555 1_555
C9 C8 1_555 1_555
H6 C9 1_555 1_555
H7 C9 1_555 1_555
C10 C8 1_555 1_555
H8 C10 1_555 1_555
H9 C10 1_555 1_555
C11 O2 1_555 1_555
H10 C11 1_555 1_555
H11 C11 1_555 1_555
H12 C11 1_555 1_555
C13 S2 1_555 1_555
H13 N1 1_555 1_555
Cd1A N2 1_555 1_555
Cd1A_2 N3 1_555 1_555
N2A Cd1 1_555 1_555
N3A Cd1 1_555 1_555
C2 C3 1_555 1_555
C5 C6 1_555 1_555
C9 C10 1_555 1_555

#END
