
#######################################################################
#
#                 Cambridge Crystallographic Data Centre
#                                CCDC 
#
#######################################################################
#
# If this CIF has been generated from an entry in the Cambridge 
# Structural Database, then it will include bibliographic, chemical, 
# crystal, experimental, refinement or atomic coordinate data resulting 
# from the CCDC's data processing and validation procedures.
#
#######################################################################

data_KISWEO
_symmetry_cell_setting           orthorhombic
_symmetry_space_group_name_H-M   'P 21 21 21'
_symmetry_Int_Tables_number      19
_space_group_name_Hall           'P 2ac 2ab'
loop_
_symmetry_equiv_pos_site_id
_symmetry_equiv_pos_as_xyz
1 x,y,z
2 1/2+x,1/2-y,-z
3 -x,1/2+y,1/2-z
4 1/2-x,-y,1/2+z
_cell_length_a                   8.578(1)
_cell_length_b                   15.493(1)
_cell_length_c                   8.867(1)
_cell_angle_alpha                90
_cell_angle_beta                 90
_cell_angle_gamma                90
_cell_volume                     1178.42
loop_
_atom_site_label
_atom_site_type_symbol
_atom_site_fract_x
_atom_site_fract_y
_atom_site_fract_z
O1 O 0.5550(1) 0.15384(8) 0.3910(1)
O2 O 0.3584(1) 0.20998(8) 0.5222(1)
O3 O -0.0782(1) 0.12159(7) 0.2701(2)
N1 N 0.1466(2) 0.1006(1) 0.4008(2)
C1 C 0.4165(2) 0.1557(1) 0.4341(2)
C2 C 0.3116(2) 0.0818(1) 0.3789(2)
C3 C 0.3227(2) 0.0593(1) 0.2100(2)
C4 C 0.1648(2) 0.0825(1) 0.1432(2)
C5 C 0.0626(2) 0.1035(1) 0.2755(2)
O4 O 0.9120(1) 0.30475(8) 0.1023(1)
O5 O 1.1128(1) 0.30673(9) -0.0530(1)
O6 O 1.5626(1) 0.35278(7) 0.2740(1)
N2 N 1.3263(2) 0.30882(9) 0.1805(2)
C6 C 1.0547(2) 0.3104(1) 0.0749(2)
C7 C 1.1607(2) 0.3240(1) 0.2097(2)
C8 C 1.1610(2) 0.4178(1) 0.2639(2)
C9 C 1.3202(2) 0.4263(1) 0.3400(2)
C10 C 1.4187(2) 0.35933(9) 0.2615(2)
Ca1 Ca 0.74179(3) 0.23409(2) 0.26627(3)
H1 H 0.103(2) 0.116(1) 0.488(2)
H2 H 0.337(2) 0.031(1) 0.439(2)
H3 H 0.415(2) 0.091(1) 0.162(2)
H4 H 0.347(2) -0.001(1) 0.197(2)
H5 H 0.168(2) 0.129(1) 0.076(3)
H6 H 0.119(2) 0.038(1) 0.082(2)
H7 H 1.364(2) 0.268(1) 0.127(2)
H8 H 1.123(2) 0.2899(9) 0.296(2)
H9 H 1.076(2) 0.426(1) 0.327(2)
H10 H 1.159(2) 0.457(1) 0.174(2)
H11 H 1.316(2) 0.412(1) 0.440(1)
H12 H 1.371(2) 0.484(1) 0.327(2)
Ca1A Ca 0.24179(3) 0.26591(2) 0.73373(3)
Ca1_2 Ca -0.25821(3) 0.23409(2) 0.26627(3)
Ca1A_2 Ca 1.24179(3) 0.26591(2) -0.26627(3)
Ca1_3 Ca 1.74179(3) 0.23409(2) 0.26627(3)
O2A O 0.8584(1) 0.29002(8) 0.4778(1)
O3_2 O 0.9218(1) 0.12159(7) 0.2701(2)
O5A O 0.6128(1) 0.19327(9) 0.0530(1)
O6_2 O 0.5626(1) 0.35278(7) 0.2740(1)
loop_
_geom_bond_atom_site_label_1
_geom_bond_atom_site_label_2
_geom_bond_site_symmetry_1
_geom_bond_site_symmetry_2
O1 C1 1_555 1_555
O2 C1 1_555 1_555
O3 C5 1_555 1_555
N1 C2 1_555 1_555
C1 C2 1_555 1_555
C2 C3 1_555 1_555
C3 C4 1_555 1_555
C4 C5 1_555 1_555
C5 N1 1_555 1_555
O4 C6 1_555 1_555
O5 C6 1_555 1_555
O6 C10 1_555 1_555
N2 C7 1_555 1_555
C6 C7 1_555 1_555
C7 C8 1_555 1_555
C8 C9 1_555 1_555
C9 C10 1_555 1_555
C10 N2 1_555 1_555
Ca1 O1 1_555 1_555
H1 N1 1_555 1_555
H2 C2 1_555 1_555
H3 C3 1_555 1_555
H4 C3 1_555 1_555
H5 C4 1_555 1_555
H6 C4 1_555 1_555
H7 N2 1_555 1_555
H8 C7 1_555 1_555
H9 C8 1_555 1_555
H10 C8 1_555 1_555
H11 C9 1_555 1_555
H12 C9 1_555 1_555
Ca1A O2 1_555 1_555
Ca1_2 O3 1_555 1_555
Ca1A_2 O5 1_555 1_555
Ca1_3 O6 1_555 1_555
O2A Ca1 1_555 1_555
O3_2 Ca1 1_555 1_555
O5A Ca1 1_555 1_555
O6_2 Ca1 1_555 1_555
O4 Ca1 1_555 1_555

#END
