
#######################################################################
#
#                 Cambridge Crystallographic Data Centre
#                                CCDC 
#
#######################################################################
#
# If this CIF has been generated from an entry in the Cambridge 
# Structural Database, then it will include bibliographic, chemical, 
# crystal, experimental, refinement or atomic coordinate data resulting 
# from the CCDC's data processing and validation procedures.
#
#######################################################################

data_KITGUQ
_symmetry_cell_setting           trigonal
_symmetry_space_group_name_H-M   'P -3 c 1'
_symmetry_Int_Tables_number      165
_space_group_name_Hall           '-P 3 2"c'
loop_
_symmetry_equiv_pos_site_id
_symmetry_equiv_pos_as_xyz
1 x,y,z
2 -y,x-y,z
3 -x+y,-x,z
4 y,x,1/2-z
5 x-y,-y,1/2-z
6 -x,-x+y,1/2-z
7 -x,-y,-z
8 y,-x+y,-z
9 x-y,x,-z
10 -y,-x,1/2+z
11 -x+y,y,1/2+z
12 x,x-y,1/2+z
_cell_length_a                   16.096(2)
_cell_length_b                   16.096(2)
_cell_length_c                   16.674(3)
_cell_angle_alpha                90
_cell_angle_beta                 90
_cell_angle_gamma                120
_cell_volume                     3741.16
loop_
_atom_site_label
_atom_site_type_symbol
_atom_site_fract_x
_atom_site_fract_y
_atom_site_fract_z
C1 C 0.5883(2) 0.5492(2) 0.42332(19)
C2 C 0.6328(2) 0.4948(2) 0.44236(19)
C3 C 0.7103(3) 0.5363(3) 0.4966(2)
H1 H 0.7393 0.5014 0.5124
C4 C 0.6241(3) 0.6415(3) 0.4568(2)
H2 H 0.5942 0.6766 0.4443
C5 C 0.7437(3) 0.6261(3) 0.5265(2)
H3 H 0.7963 0.6522 0.5608
C6 C 0.7004(4) 0.6801(3) 0.5065(2)
H4 H 0.7239 0.7415 0.5271
C7 C 0.5053(3) 0.5125(3) 0.3739(2)
H5 H 0.4784 0.5512 0.3656
C8 C 0.3761(2) 0.3892(3) 0.2938(2)
H6 H 0.3491 0.4310 0.2988
H7 H 0.3305 0.3275 0.3166
N1 N 0.4647(2) 0.4297(2) 0.33984(17)
N2 N 0.4890(3) 0.2092(2) 0.2396(2)
Nd1 Nd 0.6667 0.3333 0.33564(2)
O1 O 0.60146(15) 0.40901(15) 0.41189(18)
O2 O 0.4869(2) 0.2585(2) 0.2983(2)
O3 O 0.5674(2) 0.2116(2) 0.22617(17)
O4 O 0.4181(3) 0.1635(3) 0.1984(3)
H8 H 0.497(3) 0.397(3) 0.351(2)
C1C C 0.5492(2) 0.5883(2) 0.07668(19)
C1A C 0.4508(2) 0.0391(3) 0.42332(19)
C1E C 0.4117(2) -0.0391(3) 0.07668(19)
C1B C 0.9609(3) 0.4117(2) 0.42332(19)
C1D C 1.0391(3) 0.4508(2) 0.07668(19)
C2C C 0.4948(2) 0.6328(2) 0.05764(19)
C2A C 0.5052(2) 0.1380(3) 0.44236(19)
C2E C 0.3672(2) -0.1380(3) 0.05764(19)
C2B C 0.8620(3) 0.3672(2) 0.44236(19)
C2D C 1.1380(3) 0.5052(2) 0.05764(19)
C3C C 0.5363(3) 0.7103(3) 0.0034(2)
C3A C 0.4637(3) 0.1740(4) 0.4966(2)
C3E C 0.2897(3) -0.1740(4) 0.0034(2)
C3B C 0.8260(4) 0.2897(3) 0.4966(2)
C3D C 1.1740(4) 0.4637(3) 0.0034(2)
H1C H 0.5014 0.7393 -0.0124
H1A H 0.4986 0.2379 0.5124
H1E H 0.2607 -0.2379 -0.0124
H1B H 0.7621 0.2607 0.5124
H1D H 1.2379 0.4986 -0.0124
C4C C 0.6415(3) 0.6241(3) 0.0432(2)
C4A C 0.3585(3) -0.0174(4) 0.4568(2)
C4E C 0.3759(3) 0.0174(4) 0.0432(2)
C4B C 1.0174(4) 0.3759(3) 0.4568(2)
C4D C 0.9826(4) 0.3585(3) 0.0432(2)
H2C H 0.6766 0.5942 0.0557
H2A H 0.3234 -0.0824 0.4443
H2E H 0.4058 0.0824 0.0557
H2B H 1.0824 0.4058 0.4443
H2D H 0.9176 0.3234 0.0557
C5C C 0.6261(3) 0.7437(3) -0.0265(2)
C5A C 0.3739(3) 0.1176(4) 0.5265(2)
C5E C 0.2563(3) -0.1176(4) -0.0265(2)
C5B C 0.8824(4) 0.2563(3) 0.5265(2)
C5D C 1.1176(4) 0.3739(3) -0.0265(2)
H3C H 0.6522 0.7963 -0.0608
H3A H 0.3478 0.1441 0.5608
H3E H 0.2037 -0.1441 -0.0608
H3B H 0.8559 0.2037 0.5608
H3D H 1.1441 0.3478 -0.0608
C6C C 0.6801(3) 0.7004(4) -0.0065(2)
C6A C 0.3199(3) 0.0203(5) 0.5065(2)
C6E C 0.2996(4) -0.0203(5) -0.0065(2)
C6B C 0.9797(5) 0.2996(4) 0.5065(2)
C6D C 1.0203(5) 0.3199(3) -0.0065(2)
H4C H 0.7415 0.7239 -0.0271
H4A H 0.2585 -0.0176 0.5271
H4E H 0.2761 0.0176 -0.0271
H4B H 1.0176 0.2761 0.5271
H4D H 0.9824 0.2585 -0.0271
C7C C 0.5125(3) 0.5053(3) 0.1261(2)
C7A C 0.4875(3) -0.0072(4) 0.3739(2)
C7E C 0.4947(3) 0.0072(4) 0.1261(2)
C7B C 1.0072(4) 0.4947(3) 0.3739(2)
C7D C 0.9928(4) 0.4875(3) 0.1261(2)
H5C H 0.5512 0.4784 0.1344
H5A H 0.4488 -0.0728 0.3656
H5E H 0.5216 0.0728 0.1344
H5B H 1.0728 0.5216 0.3656
H5D H 0.9272 0.4488 0.1344
C8C C 0.3892(3) 0.3761(2) 0.2062(2)
C8A C 0.6108(3) -0.0131(4) 0.2938(2)
C8E C 0.6239(2) 0.0131(4) 0.2062(2)
C8B C 1.0131(4) 0.6239(2) 0.2938(2)
C8D C 0.9869(4) 0.6108(3) 0.2062(2)
H6C H 0.4310 0.3491 0.2012
H6A H 0.5690 -0.0819 0.2988
H6E H 0.6509 0.0819 0.2012
H6B H 1.0819 0.6509 0.2988
H6D H 0.9181 0.5690 0.2012
H7C H 0.3275 0.3305 0.1834
H7A H 0.6725 0.0030 0.3166
H7E H 0.6695 -0.0030 0.1834
H7B H 0.9970 0.6695 0.3166
H7D H 1.0030 0.6725 0.1834
N1C N 0.4297(2) 0.4647(2) 0.16016(17)
N1A N 0.5703(2) 0.0350(3) 0.33984(17)
N1E N 0.5353(2) -0.0350(3) 0.16016(17)
N1B N 0.9650(3) 0.5353(2) 0.33984(17)
N1D N 1.0350(3) 0.5703(2) 0.16016(17)
N2A N 0.7908(2) 0.2798(4) 0.2396(2)
N2B N 0.7202(4) 0.5110(3) 0.2396(2)
N2C N 0.2092(2) 0.4890(3) 0.2604(2)
N2D N 0.2798(4) 0.7908(2) 0.2604(2)
N2E N 0.5110(3) 0.7202(4) 0.2604(2)
Nd1C Nd 0.3333 0.6667 0.16436(2)
Nd1C_2 Nd 0.3333 -0.3333 0.16436(2)
Nd1C_3 Nd 1.3333 0.6667 0.16436(2)
O1C O 0.40901(15) 0.60146(15) 0.08811(18)
O1A O 0.59099(15) 0.19245(21) 0.41189(18)
O1E O 0.39854(15) -0.19245(21) 0.08811(18)
O1B O 0.80755(21) 0.39854(15) 0.41189(18)
O1D O 1.19245(21) 0.59099(15) 0.08811(18)
O1D_2 O 0.19245(21) 0.59099(15) 0.08811(18)
O1E_2 O 0.39854(15) 0.80755(21) 0.08811(18)
O2A O 0.7415(2) 0.2284(3) 0.2983(2)
O2B O 0.7716(3) 0.5131(2) 0.2983(2)
O2C O 0.2585(2) 0.4869(2) 0.2017(2)
O2D O 0.2284(3) 0.7415(2) 0.2017(2)
O2E O 0.5131(2) 0.7716(3) 0.2017(2)
O3A O 0.7884(2) 0.3558(3) 0.22617(17)
O3B O 0.6442(3) 0.4326(2) 0.22617(17)
O3C O 0.2116(2) 0.5674(2) 0.27383(17)
O3D O 0.3558(3) 0.7884(2) 0.27383(17)
O3E O 0.4326(2) 0.6442(3) 0.27383(17)
O4A O 0.8365(3) 0.2546(4) 0.1984(3)
O4B O 0.7454(4) 0.5819(3) 0.1984(3)
O4C O 0.1635(3) 0.4181(3) 0.3016(3)
O4D O 0.2546(4) 0.8365(3) 0.3016(3)
O4E O 0.5819(3) 0.7454(4) 0.3016(3)
H8C H 0.397(3) 0.497(3) 0.149(2)
H8A H 0.603(3) 0.100(4) 0.351(2)
H8E H 0.503(3) -0.100(4) 0.149(2)
H8B H 0.900(4) 0.503(3) 0.351(2)
H8D H 1.100(4) 0.603(3) 0.149(2)
loop_
_geom_bond_atom_site_label_1
_geom_bond_atom_site_label_2
_geom_bond_site_symmetry_1
_geom_bond_site_symmetry_2
C1 C2 1_555 1_555
C2 C3 1_555 1_555
C3 H1 1_555 1_555
C4 C1 1_555 1_555
H2 C4 1_555 1_555
C5 C3 1_555 1_555
H3 C5 1_555 1_555
C6 C4 1_555 1_555
H4 C6 1_555 1_555
C7 C1 1_555 1_555
H5 C7 1_555 1_555
C8 H6 1_555 1_555
H7 C8 1_555 1_555
N1 C7 1_555 1_555
N2 O2 1_555 1_555
Nd1 O1 1_555 1_555
O1 C2 1_555 1_555
O2 Nd1 1_555 1_555
O3 N2 1_555 1_555
O4 N2 1_555 1_555
H8 N1 1_555 1_555
C1C C2C 1_555 1_555
C1A C2A 1_555 1_555
C1E C2E 1_555 1_555
C1B C2B 1_555 1_555
C1D C2D 1_555 1_555
C2C C3C 1_555 1_555
C2A C3A 1_555 1_555
C2E C3E 1_555 1_555
C2B C3B 1_555 1_555
C2D C3D 1_555 1_555
C3C H1C 1_555 1_555
C3A H1A 1_555 1_555
C3E H1E 1_555 1_555
C3B H1B 1_555 1_555
C3D H1D 1_555 1_555
C4C C1C 1_555 1_555
C4A C1A 1_555 1_555
C4E C1E 1_555 1_555
C4B C1B 1_555 1_555
C4D C1D 1_555 1_555
H2C C4C 1_555 1_555
H2A C4A 1_555 1_555
H2E C4E 1_555 1_555
H2B C4B 1_555 1_555
H2D C4D 1_555 1_555
C5C C3C 1_555 1_555
C5A C3A 1_555 1_555
C5E C3E 1_555 1_555
C5B C3B 1_555 1_555
C5D C3D 1_555 1_555
H3C C5C 1_555 1_555
H3A C5A 1_555 1_555
H3E C5E 1_555 1_555
H3B C5B 1_555 1_555
H3D C5D 1_555 1_555
C6C C4C 1_555 1_555
C6A C4A 1_555 1_555
C6E C4E 1_555 1_555
C6B C4B 1_555 1_555
C6D C4D 1_555 1_555
H4C C6C 1_555 1_555
H4A C6A 1_555 1_555
H4E C6E 1_555 1_555
H4B C6B 1_555 1_555
H4D C6D 1_555 1_555
C7C C1C 1_555 1_555
C7A C1A 1_555 1_555
C7E C1E 1_555 1_555
C7B C1B 1_555 1_555
C7D C1D 1_555 1_555
H5C C7C 1_555 1_555
H5A C7A 1_555 1_555
H5E C7E 1_555 1_555
H5B C7B 1_555 1_555
H5D C7D 1_555 1_555
C8C C8 1_555 1_555
C8A C8E 1_555 1_555
C8E H6E 1_555 1_555
C8B C8D 1_555 1_555
C8D H6D 1_555 1_555
H6C C8C 1_555 1_555
H6A C8A 1_555 1_555
H6B C8B 1_555 1_555
H7C C8C 1_555 1_555
H7A C8A 1_555 1_555
H7E C8E 1_555 1_555
H7B C8B 1_555 1_555
H7D C8D 1_555 1_555
N1C C7C 1_555 1_555
N1A C7A 1_555 1_555
N1E C7E 1_555 1_555
N1B C7B 1_555 1_555
N1D C7D 1_555 1_555
N2A O2A 1_555 1_555
N2B O2B 1_555 1_555
N2C O2C 1_555 1_555
N2D O2D 1_555 1_555
N2E O2E 1_555 1_555
Nd1C O1C 1_555 1_555
Nd1C_2 O1E 1_555 1_555
Nd1C_3 O1D 1_555 1_555
O1C C2C 1_555 1_555
O1A Nd1 1_555 1_555
O1E C2E 1_555 1_555
O1B Nd1 1_555 1_555
O1D C2D 1_555 1_555
O1D_2 Nd1C 1_555 1_555
O1E_2 Nd1C 1_555 1_555
O2A Nd1 1_555 1_555
O2B Nd1 1_555 1_555
O2C Nd1C 1_555 1_555
O2D Nd1C 1_555 1_555
O2E Nd1C 1_555 1_555
O3A Nd1 1_555 1_555
O3B Nd1 1_555 1_555
O3C N2C 1_555 1_555
O3D N2D 1_555 1_555
O3E N2E 1_555 1_555
O4A N2A 1_555 1_555
O4B N2B 1_555 1_555
O4C N2C 1_555 1_555
O4D N2D 1_555 1_555
O4E N2E 1_555 1_555
H8C N1C 1_555 1_555
H8A N1A 1_555 1_555
H8E N1E 1_555 1_555
H8B N1B 1_555 1_555
H8D N1D 1_555 1_555
C5 C6 1_555 1_555
C8 N1 1_555 1_555
Nd1 O3 1_555 1_555
C2A O1A 1_555 1_555
C2B O1B 1_555 1_555
C5C C6C 1_555 1_555
C5A C6A 1_555 1_555
C5E C6E 1_555 1_555
C5B C6B 1_555 1_555
C5D C6D 1_555 1_555
C8C N1C 1_555 1_555
C8A N1A 1_555 1_555
C8E N1E 1_555 1_555
C8B N1B 1_555 1_555
C8D N1D 1_555 1_555
N2A O3A 1_555 1_555
N2B O3B 1_555 1_555
Nd1C O3C 1_555 1_555
Nd1C O3D 1_555 1_555
Nd1C O3E 1_555 1_555

#END
