
#######################################################################
#
#                 Cambridge Crystallographic Data Centre
#                                CCDC 
#
#######################################################################
#
# If this CIF has been generated from an entry in the Cambridge 
# Structural Database, then it will include bibliographic, chemical, 
# crystal, experimental, refinement or atomic coordinate data resulting 
# from the CCDC's data processing and validation procedures.
#
#######################################################################

data_KITHIF
_symmetry_cell_setting           trigonal
_symmetry_space_group_name_H-M   'P -3 c 1'
_symmetry_Int_Tables_number      165
_space_group_name_Hall           '-P 3 2"c'
loop_
_symmetry_equiv_pos_site_id
_symmetry_equiv_pos_as_xyz
1 x,y,z
2 -y,x-y,z
3 -x+y,-x,z
4 y,x,1/2-z
5 x-y,-y,1/2-z
6 -x,-x+y,1/2-z
7 -x,-y,-z
8 y,-x+y,-z
9 x-y,x,-z
10 -y,-x,1/2+z
11 -x+y,y,1/2+z
12 x,x-y,1/2+z
_cell_length_a                   15.778(2)
_cell_length_b                   15.778(2)
_cell_length_c                   16.855(3)
_cell_angle_alpha                90
_cell_angle_beta                 90
_cell_angle_gamma                120
_cell_volume                     3633.82
loop_
_atom_site_label
_atom_site_type_symbol
_atom_site_fract_x
_atom_site_fract_y
_atom_site_fract_z
C1 C 0.8547(3) 0.4887(3) 0.4372(2)
C2 C 0.8173(3) 0.5300(4) 0.4911(3)
H1 H 0.7515 0.4950 0.5049
C3 C 0.8761(4) 0.6212(4) 0.5240(3)
H2 H 0.8489 0.6471 0.5585
C4 C 0.9748(4) 0.6748(4) 0.5064(3)
H3 H 1.0135 0.7364 0.5285
C5 C 1.0145(3) 0.6370(3) 0.4570(3)
H4 H 1.0811 0.6728 0.4460
C6 C 0.9566(3) 0.5433(3) 0.4211(2)
C7 C 1.0047(3) 0.5063(3) 0.3732(2)
H5 H 1.0721 0.5449 0.3673
C8 C 1.0122(3) 0.3818(3) 0.2944(2)
H6 H 0.9943 0.3184 0.3169
H7 H 1.0822 0.4239 0.3010
Lu1 Lu 0.6667 0.3333 0.329768(17)
N1 N 0.9618(3) 0.4233(3) 0.3373(2)
N2 N 0.7911(3) 0.5068(3) 0.2389(2)
O1 O 0.8002(2) 0.40426(19) 0.40384(18)
O2 O 0.7848(2) 0.4237(3) 0.2262(2)
O3 O 0.8392(4) 0.5770(3) 0.1967(3)
O4 O 0.7433(2) 0.5113(3) 0.2971(2)
H8 H 0.894(4) 0.394(4) 0.347(3)
C1E C 1.1453(3) 0.6340(4) 0.0628(2)
C1A C 0.5113(3) 0.3660(4) 0.4372(2)
C1D C 0.3660(4) 0.5113(3) 0.0628(2)
C1B C 0.6340(4) 0.1453(3) 0.4372(2)
C1C C 0.4887(3) -0.1453(3) 0.0628(2)
C2E C 1.1827(3) 0.7127(5) 0.0089(3)
C2A C 0.4700(4) 0.2873(5) 0.4911(3)
C2D C 0.2873(5) 0.4700(4) 0.0089(3)
C2B C 0.7127(5) 0.1827(3) 0.4911(3)
C2C C 0.5300(4) -0.1827(3) 0.0089(3)
H1E H 1.2485 0.7435 -0.0049
H1A H 0.5050 0.2565 0.5049
H1D H 0.2565 0.5050 -0.0049
H1B H 0.7435 0.2485 0.5049
H1C H 0.4950 -0.2485 -0.0049
C3E C 1.1239(4) 0.7451(6) -0.0240(3)
C3A C 0.3788(4) 0.2549(6) 0.5240(3)
C3D C 0.2549(6) 0.3788(4) -0.0240(3)
C3B C 0.7451(6) 0.1239(4) 0.5240(3)
C3C C 0.6212(4) -0.1239(4) -0.0240(3)
H2E H 1.1511 0.7982 -0.0585
H2A H 0.3529 0.2018 0.5585
H2D H 0.2018 0.3529 -0.0585
H2B H 0.7982 0.1511 0.5585
H2C H 0.6471 -0.1511 -0.0585
C4E C 1.0252(4) 0.7000(6) -0.0064(3)
C4A C 0.3252(4) 0.3000(6) 0.5064(3)
C4D C 0.3000(6) 0.3252(4) -0.0064(3)
C4B C 0.7000(6) 0.0252(4) 0.5064(3)
C4C C 0.6748(4) -0.0252(4) -0.0064(3)
H3E H 0.9865 0.7229 -0.0285
H3A H 0.2636 0.2771 0.5285
H3D H 0.2771 0.2636 -0.0285
H3B H 0.7229 -0.0135 0.5285
H3C H 0.7364 0.0135 -0.0285
C5E C 0.9855(3) 0.6225(4) 0.0430(3)
C5A C 0.3630(3) 0.3775(4) 0.4570(3)
C5D C 0.3775(4) 0.3630(3) 0.0430(3)
C5B C 0.6225(4) -0.0145(3) 0.4570(3)
C5C C 0.6370(3) 0.0145(3) 0.0430(3)
H4E H 0.9189 0.5917 0.0540
H4A H 0.3272 0.4083 0.4460
H4D H 0.4083 0.3272 0.0540
H4B H 0.5917 -0.0811 0.4460
H4C H 0.6728 0.0811 0.0540
C6E C 1.0434(3) 0.5867(4) 0.0789(2)
C6A C 0.4567(3) 0.4133(4) 0.4211(2)
C6D C 0.4133(4) 0.4567(3) 0.0789(2)
C6B C 0.5867(4) 0.0434(3) 0.4211(2)
C6C C 0.5433(3) -0.0434(3) 0.0789(2)
C7E C 0.9953(3) 0.5016(4) 0.1268(2)
C7A C 0.4937(3) 0.4984(4) 0.3732(2)
C7D C 0.4984(4) 0.4937(3) 0.1268(2)
C7B C 0.5016(4) -0.0047(3) 0.3732(2)
C7C C 0.5063(3) 0.0047(3) 0.1268(2)
H5E H 0.9279 0.4728 0.1327
H5A H 0.4551 0.5272 0.3673
H5D H 0.5272 0.4551 0.1327
H5B H 0.4728 -0.0721 0.3673
H5C H 0.5449 0.0721 0.1327
C8E C 0.9878(3) 0.3696(4) 0.2056(2)
C8A C 0.6182(3) 0.6304(4) 0.2944(2)
C8D C 0.6304(4) 0.6182(3) 0.2056(2)
C8B C 0.3696(4) -0.0122(3) 0.2944(2)
C8C C 0.3818(3) 0.0122(3) 0.2056(2)
H6E H 1.0057 0.3241 0.1831
H6A H 0.6816 0.6759 0.3169
H6D H 0.6759 0.6816 0.1831
H6B H 0.3241 0.0057 0.3169
H6C H 0.3184 -0.0057 0.1831
H7E H 0.9178 0.3417 0.1990
H7A H 0.5761 0.6583 0.3010
H7D H 0.6583 0.5761 0.1990
H7B H 0.3417 -0.0822 0.3010
H7C H 0.4239 0.0822 0.1990
Lu1E Lu 1.3333 0.6666 0.170232(17)
Lu1C Lu 0.3333 0.6667 0.170232(17)
Lu1C_2 Lu 0.3333 -0.3333 0.170232(17)
N1E N 1.0382(3) 0.4615(4) 0.1627(2)
N1A N 0.5767(3) 0.5385(4) 0.3373(2)
N1D N 0.5385(4) 0.5767(3) 0.1627(2)
N1B N 0.4615(4) 0.0382(3) 0.3373(2)
N1C N 0.4233(3) -0.0382(3) 0.1627(2)
N2A N 0.4932(3) 0.2843(4) 0.2389(2)
N2B N 0.7157(4) 0.2089(3) 0.2389(2)
N2E N 1.2089(3) 0.7157(4) 0.2611(2)
N2C N 1.5068(3) 0.7911(3) 0.2611(2)
N2D N 1.2843(4) 0.4932(3) 0.2611(2)
O1E O 1.1998(2) 0.60406(28) 0.09616(18)
O1A O 0.59574(19) 0.39594(28) 0.40384(18)
O1D O 0.39594(28) 0.59574(19) 0.09616(18)
O1B O 0.60406(28) 0.1998(2) 0.40384(18)
O1C O 0.40426(19) -0.1998(2) 0.09616(18)
O1C_2 O 1.40426(19) 0.8002(2) 0.09616(18)
O1D_2 O 1.39594(28) 0.59574(19) 0.09616(18)
O2A O 0.5763(3) 0.3611(4) 0.2262(2)
O2B O 0.6389(4) 0.2152(2) 0.2262(2)
O2E O 1.2152(2) 0.6389(4) 0.2738(2)
O2C O 1.4237(3) 0.7848(2) 0.2738(2)
O2D O 1.3611(4) 0.5763(3) 0.2738(2)
O3A O 0.4230(3) 0.2622(5) 0.1967(3)
O3B O 0.7378(5) 0.1608(4) 0.1967(3)
O3E O 1.1608(4) 0.7378(5) 0.3033(3)
O3C O 1.5770(3) 0.8392(4) 0.3033(3)
O3D O 1.2622(5) 0.4230(3) 0.3033(3)
O4A O 0.4887(3) 0.2320(4) 0.2971(2)
O4B O 0.7680(4) 0.2567(2) 0.2971(2)
O4E O 1.2567(2) 0.7680(4) 0.2029(2)
O4C O 1.5113(3) 0.7433(2) 0.2029(2)
O4D O 1.2320(4) 0.4887(3) 0.2029(2)
H8E H 1.106(4) 0.500(6) 0.153(3)
H8A H 0.606(4) 0.500(6) 0.347(3)
H8D H 0.500(6) 0.606(4) 0.153(3)
H8B H 0.500(6) 0.106(4) 0.347(3)
H8C H 0.394(4) -0.106(4) 0.153(3)
loop_
_geom_bond_atom_site_label_1
_geom_bond_atom_site_label_2
_geom_bond_site_symmetry_1
_geom_bond_site_symmetry_2
C1 C2 1_555 1_555
C2 H1 1_555 1_555
C3 C2 1_555 1_555
H2 C3 1_555 1_555
C4 C3 1_555 1_555
H3 C4 1_555 1_555
C5 C4 1_555 1_555
H4 C5 1_555 1_555
C6 C1 1_555 1_555
C7 C6 1_555 1_555
H5 C7 1_555 1_555
C8 H6 1_555 1_555
H7 C8 1_555 1_555
Lu1 O1 1_555 1_555
N1 C7 1_555 1_555
N2 O2 1_555 1_555
O1 C1 1_555 1_555
O2 Lu1 1_555 1_555
O3 N2 1_555 1_555
O4 Lu1 1_555 1_555
H8 N1 1_555 1_555
C1E C2E 1_555 1_555
C1A C2A 1_555 1_555
C1D C2D 1_555 1_555
C1B C2B 1_555 1_555
C1C C2C 1_555 1_555
C2E H1E 1_555 1_555
C2A H1A 1_555 1_555
C2D H1D 1_555 1_555
C2B H1B 1_555 1_555
C2C H1C 1_555 1_555
C3E C2E 1_555 1_555
C3A C2A 1_555 1_555
C3D C2D 1_555 1_555
C3B C2B 1_555 1_555
C3C C2C 1_555 1_555
H2E C3E 1_555 1_555
H2A C3A 1_555 1_555
H2D C3D 1_555 1_555
H2B C3B 1_555 1_555
H2C C3C 1_555 1_555
C4E C3E 1_555 1_555
C4A C3A 1_555 1_555
C4D C3D 1_555 1_555
C4B C3B 1_555 1_555
C4C C3C 1_555 1_555
H3E C4E 1_555 1_555
H3A C4A 1_555 1_555
H3D C4D 1_555 1_555
H3B C4B 1_555 1_555
H3C C4C 1_555 1_555
C5E C4E 1_555 1_555
C5A C4A 1_555 1_555
C5D C4D 1_555 1_555
C5B C4B 1_555 1_555
C5C C4C 1_555 1_555
H4E C5E 1_555 1_555
H4A C5A 1_555 1_555
H4D C5D 1_555 1_555
H4B C5B 1_555 1_555
H4C C5C 1_555 1_555
C6E C1E 1_555 1_555
C6A C1A 1_555 1_555
C6D C1D 1_555 1_555
C6B C1B 1_555 1_555
C6C C1C 1_555 1_555
C7E C6E 1_555 1_555
C7A C6A 1_555 1_555
C7D C6D 1_555 1_555
C7B C6B 1_555 1_555
C7C C6C 1_555 1_555
H5E C7E 1_555 1_555
H5A C7A 1_555 1_555
H5D C7D 1_555 1_555
H5B C7B 1_555 1_555
H5C C7C 1_555 1_555
C8E C8 1_555 1_555
C8A C8D 1_555 1_555
C8D H6D 1_555 1_555
C8B C8C 1_555 1_555
C8C H6C 1_555 1_555
H6E C8E 1_555 1_555
H6A C8A 1_555 1_555
H6B C8B 1_555 1_555
H7E C8E 1_555 1_555
H7A C8A 1_555 1_555
H7D C8D 1_555 1_555
H7B C8B 1_555 1_555
H7C C8C 1_555 1_555
Lu1E O1E 1_555 1_555
Lu1C O1D 1_555 1_555
Lu1C_2 O1C 1_555 1_555
N1E C7E 1_555 1_555
N1A C7A 1_555 1_555
N1D C7D 1_555 1_555
N1B C7B 1_555 1_555
N1C C7C 1_555 1_555
N2A O2A 1_555 1_555
N2B O2B 1_555 1_555
N2E O2E 1_555 1_555
N2C O2C 1_555 1_555
N2D O2D 1_555 1_555
O1E C1E 1_555 1_555
O1A Lu1 1_555 1_555
O1D C1D 1_555 1_555
O1B Lu1 1_555 1_555
O1C C1C 1_555 1_555
O1C_2 Lu1E 1_555 1_555
O1D_2 Lu1E 1_555 1_555
O2A Lu1 1_555 1_555
O2B Lu1 1_555 1_555
O2E Lu1E 1_555 1_555
O2C Lu1E 1_555 1_555
O2D Lu1E 1_555 1_555
O3A N2A 1_555 1_555
O3B N2B 1_555 1_555
O3E N2E 1_555 1_555
O3C N2C 1_555 1_555
O3D N2D 1_555 1_555
O4A Lu1 1_555 1_555
O4B Lu1 1_555 1_555
O4E Lu1E 1_555 1_555
O4C Lu1E 1_555 1_555
O4D Lu1E 1_555 1_555
H8E N1E 1_555 1_555
H8A N1A 1_555 1_555
H8D N1D 1_555 1_555
H8B N1B 1_555 1_555
H8C N1C 1_555 1_555
C5 C6 1_555 1_555
C8 N1 1_555 1_555
N2 O4 1_555 1_555
C1A O1A 1_555 1_555
C1B O1B 1_555 1_555
C5E C6E 1_555 1_555
C5A C6A 1_555 1_555
C5D C6D 1_555 1_555
C5B C6B 1_555 1_555
C5C C6C 1_555 1_555
C8E N1E 1_555 1_555
C8A N1A 1_555 1_555
C8D N1D 1_555 1_555
C8B N1B 1_555 1_555
C8C N1C 1_555 1_555
N2A O4A 1_555 1_555
N2B O4B 1_555 1_555
N2E O4E 1_555 1_555
N2C O4C 1_555 1_555
N2D O4D 1_555 1_555

#END
