
#######################################################################
#
#                 Cambridge Crystallographic Data Centre
#                                CCDC 
#
#######################################################################
#
# If this CIF has been generated from an entry in the Cambridge 
# Structural Database, then it will include bibliographic, chemical, 
# crystal, experimental, refinement or atomic coordinate data resulting 
# from the CCDC's data processing and validation procedures.
#
#######################################################################

data_KITMEG
_symmetry_cell_setting           triclinic
_symmetry_space_group_name_H-M   'P -1'
_symmetry_Int_Tables_number      2
_space_group_name_Hall           '-P 1'
loop_
_symmetry_equiv_pos_site_id
_symmetry_equiv_pos_as_xyz
1 x,y,z
2 -x,-y,-z
_cell_length_a                   11.4720(6)
_cell_length_b                   11.4802(6)
_cell_length_c                   26.1102(13)
_cell_angle_alpha                77.8250(10)
_cell_angle_beta                 87.8230(10)
_cell_angle_gamma                89.7150(10)
_cell_volume                     3358.95
loop_
_atom_site_label
_atom_site_type_symbol
_atom_site_fract_x
_atom_site_fract_y
_atom_site_fract_z
W1 W -0.24059(4) -0.60054(5) -0.34801(2)
W2 W 0.17491(4) -0.41911(5) -0.25286(2)
W3 W -0.30369(5) -0.40332(5) -0.15013(2)
W4 W 0.04298(4) -0.66163(5) -0.15130(2)
W5 W -0.41569(4) -0.53631(5) -0.25706(2)
W6 W -0.02383(5) -0.34492(5) -0.15037(2)
W7 W -0.05614(5) -0.77648(5) -0.24634(2)
W8 W -0.23281(4) -0.71297(5) -0.15644(2)
W9 W 0.01789(4) -0.25403(5) -0.34679(2)
W10 W 0.07510(5) -0.53511(5) -0.34806(2)
W11 W -0.18405(5) -0.18944(5) -0.24199(2)
W12 W -0.29525(4) -0.32789(5) -0.34438(2)
La1 La -0.44323(6) -0.99211(7) -0.07468(3)
La2 La -0.53380(6) -0.08512(7) -0.42473(3)
O1 O -0.1710(7) -0.3666(8) -0.1119(3)
O2 O -0.3095(7) -0.2382(8) -0.1856(3)
O3 O -0.1398(7) -0.2871(8) -0.3647(3)
O4 O -0.3710(7) -0.2165(8) -0.3866(3)
O5 O -0.4455(7) -0.3965(8) -0.3092(4)
O6 O -0.2624(7) -0.5687(8) -0.1334(3)
O7 O -0.2942(7) -0.4462(8) -0.3864(3)
O8 O -0.2804(7) -0.2487(8) -0.2882(3)
O9 O -0.1733(7) -0.8372(8) -0.1928(4)
O10 O -0.1721(7) -0.7241(8) -0.2967(3)
O11 O -0.3931(7) -0.4457(8) -0.2042(3)
O12 O -0.3349(7) -0.6631(8) -0.2099(3)
O13 O -0.0922(7) -0.7343(8) -0.1144(3)
O14 O -0.3878(7) -0.6303(8) -0.3113(3)
O15 O 0.0476(7) -0.6706(8) -0.2942(3)
O16 O 0.0027(7) -0.5130(8) -0.1340(4)
O17 O -0.0822(7) -0.5484(8) -0.3668(4)
O18 O 0.0737(7) -0.3674(8) -0.3857(3)
O19 O 0.1482(8) -0.5949(9) -0.3948(4)
O20 O -0.0791(7) -0.1908(8) -0.1866(3)
O21 O -0.0591(7) -0.1877(8) -0.2919(4)
O22 O 0.1578(7) -0.2656(8) -0.3079(3)
O23 O 0.0905(7) -0.3405(8) -0.2068(3)
O24 O 0.0600(8) -0.2990(9) -0.1052(4)
O25 O -0.2666(8) -0.6754(8) -0.3970(4)
O26 O -0.5567(7) -0.5878(9) -0.2417(4)
O27 O 0.2067(7) -0.4955(8) -0.3108(3)
O28 O -0.5409(8) 0.1360(9) -0.4297(4)
O29 O -0.0991(7) -0.6265(8) -0.2087(3)
O30 O -0.3226(7) -0.8108(8) -0.1127(4)
O31 O 0.1459(7) -0.5605(8) -0.2055(3)
O32 O -0.1549(7) -0.3807(8) -0.2078(4)
O33 O 0.0603(7) -0.7812(8) -0.1924(3)
O34 O 0.0045(7) -0.4312(8) -0.2895(3)
O35 O 0.3147(7) -0.3801(8) -0.2397(4)
O36 O -0.2461(7) -0.4816(8) -0.2914(4)
O37 O -0.3290(8) -1.1837(8) -0.0336(3)
O38 O -0.4742(7) -1.1479(8) 0.0195(4)
O39 O -0.0135(8) -0.9086(8) -0.2619(4)
O40 O -0.2265(8) -0.0414(8) -0.2542(4)
O41 O -0.3647(8) 0.0182(9) -0.4814(4)
O42 O -0.6617(8) -1.0019(10) -0.0709(4)
O43 O 0.0491(7) -0.1265(8) -0.3925(4)
O44 O -0.4099(8) -0.3979(8) -0.1028(4)
O45 O 0.1425(7) -0.7145(9) -0.1053(3)
O50 O -0.2860(7) -1.0419(8) -0.1380(3)
H9 H -0.2426 -1.1080 -0.1288
H10 H -0.2738 -0.9935 -0.1697
O51 O -0.6207(7) -0.2666(8) -0.3607(4)
H11 H -0.6974 -0.2690 -0.3519
H12 H -0.5745 -0.3280 -0.3471
O52 O -0.2984(8) 0.1838(9) -0.5332(4)
O53 O -0.5390(8) 0.2169(9) -0.5151(4)
O54 O -0.5174(9) -1.1795(9) -0.0973(4)
H13 H -0.5061 -1.2503 -0.0756
H14 H -0.5555 -1.1759 -0.1271
O55 O -0.4953(9) -0.0411(10) -0.3368(4)
H15 H -0.4742 0.0329 -0.3343
H16 H -0.5026 -0.0992 -0.3077
O56 O -0.7114(8) -1.0476(9) 0.0149(4)
O57 O -0.7313(8) -0.0189(10) -0.4021(5)
H17 H -0.7564 0.0540 -0.4175
H18 H -0.7779 -0.0676 -0.3786
C1 C -0.3897(12) -1.2113(13) 0.0069(6)
C2 C -0.5838(11) 0.3396(13) -0.4555(5)
C3 C -0.5514(11) 0.2208(12) -0.4686(5)
C4 C -0.7342(11) -1.0359(13) -0.0325(5)
C5 C -0.5565(12) 0.3644(13) -0.4073(6)
H19 H -0.5198 0.3076 -0.3824
C6 C -0.3651(12) -1.3279(13) 0.0437(5)
C7 C -0.6398(12) 0.4268(12) -0.4935(5)
H20 H -0.6562 0.4118 -0.5261
C8 C -0.5852(11) 0.4764(14) -0.3971(6)
H21 H -0.5680 0.4949 -0.3652
C9 C -0.8578(12) -1.0604(13) -0.0454(5)
C10 C -0.1987(12) 0.1175(13) -0.4556(5)
C11 C -1.0150(12) -1.0327(15) -0.1036(6)
H22 H -1.0455 -0.9988 -0.1359
C12 C -0.6695(13) 0.5347(14) -0.4807(6)
H23 H -0.7106 0.5915 -0.5039
C13 C -0.9263(11) -1.1317(13) -0.0083(6)
H24 H -0.8981 -1.1646 0.0245
C14 C -0.3771(12) -1.4616(13) 0.1275(5)
H25 H -0.4044 -1.4789 0.1623
C15 C -1.0409(13) -1.1547(14) -0.0206(6)
H26 H -1.0889 -1.2059 0.0035
C16 C -0.2074(14) 0.0583(15) -0.4030(6)
H27 H -0.2716 0.0105 -0.3901
C17 C -0.4049(12) -1.3569(14) 0.0947(6)
H28 H -0.4528 -1.3033 0.1076
C18 C -0.1172(13) 0.0728(13) -0.3703(6)
H29 H -0.1190 0.0323 -0.3355
C19 C -0.8997(12) -1.0090(13) -0.0940(6)
H30 H -0.8525 -0.9603 -0.1194
C20 C -0.2965(11) 0.1045(13) -0.4928(5)
C21 C -0.2926(14) -1.4108(14) 0.0245(6)
H31 H -0.2637 -1.3945 -0.0100
C22 C -0.2659(14) -1.5178(16) 0.0589(6)
H32 H -0.2181 -1.5735 0.0474
C23 C -0.0210(15) 0.2017(16) -0.4405(6)
H33 H 0.0442 0.2484 -0.4531
C24 C -0.1055(13) 0.1917(17) -0.4731(7)
H34 H -0.1013 0.2349 -0.5075
N1 N -0.6378(10) 0.5567(10) -0.4339(5)
N2 N -1.0809(10) -1.1017(11) -0.0680(5)
N3 N -0.3087(10) -1.5398(11) 0.1080(5)
N4 N -0.0287(11) 0.1453(12) -0.3897(5)
O58 O -0.5186(8) -0.9073(10) -0.1626(4)
H35 H -0.5438 -0.9560 -0.1827
H36 H -0.5208 -0.8278 -0.1743
La1A La -0.55677(6) -1.00789(7) 0.07468(3)
La2A La -0.46620(6) 0.08512(7) -0.57527(3)
O30A O -0.6774(7) -1.1892(8) 0.1127(4)
O38A O -0.5258(7) -0.8521(8) -0.0195(4)
O41A O -0.6353(8) -0.0182(9) -0.5186(4)
O52A O -0.7016(8) -0.1838(9) -0.4668(4)
O53A O -0.4610(8) -0.2169(9) -0.4849(4)
O56A O -0.2886(8) -0.9524(9) -0.0149(4)
O46 O -1.4743(8) 0.1984(9) -0.7601(4)
H1 H -1.4730 0.2664 -0.7846
H2 H -1.5355 0.1484 -0.7569
O47 O -0.5846(9) 0.8782(10) -0.7384(5)
H3 H -0.5188 0.9190 -0.7502
H4 H -0.6542 0.9077 -0.7496
O48 O -0.2997(10) 1.2189(10) -0.8423(4)
H5 H -0.3603 1.2659 -0.8540
H6 H -0.2264 1.2422 -0.8532
O49 O -1.1672(10) 1.0803(11) -0.7570(6)
H7 H -1.1242 1.1388 -0.7773
H8 H -1.2454 1.0866 -0.7551
O59 O 0.1891(11) 0.1550(14) -0.3546(8)
H37 H 0.2191 0.2243 -0.3730
H38 H 0.2304 0.1095 -0.3293
loop_
_geom_bond_atom_site_label_1
_geom_bond_atom_site_label_2
_geom_bond_site_symmetry_1
_geom_bond_site_symmetry_2
W1 O7 1_555 1_555
W2 O22 1_555 1_555
W3 O1 1_555 1_555
W4 O13 1_555 1_555
W5 O5 1_555 1_555
W6 O1 1_555 1_555
W7 O9 1_555 1_555
W8 O6 1_555 1_555
W9 O3 1_555 1_555
W10 O15 1_555 1_555
W11 O2 1_555 1_555
W12 O3 1_555 1_555
La1 O30 1_555 1_555
La2 O4 1_555 1_555
O2 W3 1_555 1_555
O4 W12 1_555 1_555
O5 W12 1_555 1_555
O6 W3 1_555 1_555
O7 W12 1_555 1_555
O8 W11 1_555 1_555
O9 W8 1_555 1_555
O10 W1 1_555 1_555
O11 W3 1_555 1_555
O12 W5 1_555 1_555
O13 W8 1_555 1_555
O14 W1 1_555 1_555
O15 W7 1_555 1_555
O16 W4 1_555 1_555
O17 W1 1_555 1_555
O18 W9 1_555 1_555
O19 W10 1_555 1_555
O20 W6 1_555 1_555
O21 W9 1_555 1_555
O22 W9 1_555 1_555
O23 W2 1_555 1_555
O24 W6 1_555 1_555
O25 W1 1_555 1_555
O26 W5 1_555 1_555
O27 W2 1_555 1_555
O28 La2 1_555 1_555
O29 W4 1_555 1_555
O30 W8 1_555 1_555
O31 W2 1_555 1_555
O32 W3 1_555 1_555
O33 W4 1_555 1_555
O34 W2 1_555 1_555
O35 W2 1_555 1_555
O36 W1 1_555 1_555
O37 La1 1_555 1_555
O38 La1 1_555 1_555
O39 W7 1_555 1_555
O40 W11 1_555 1_555
O41 La2 1_555 1_555
O42 La1 1_555 1_555
O43 W9 1_555 1_555
O44 W3 1_555 1_555
O45 W4 1_555 1_555
O46 H1 1_555 1_555
H2 O46 1_555 1_555
O47 H3 1_555 1_555
H4 O47 1_555 1_555
O48 H5 1_555 1_555
H6 O48 1_555 1_555
O49 H7 1_555 1_555
H8 O49 1_555 1_555
O50 La1 1_555 1_555
H9 O50 1_555 1_555
H10 O50 1_555 1_555
O51 La2 1_555 1_555
H11 O51 1_555 1_555
H12 O51 1_555 1_555
O52 C20 1_555 1_555
O53 C3 1_555 1_555
O54 La1 1_555 1_555
H13 O54 1_555 1_555
H14 O54 1_555 1_555
O55 La2 1_555 1_555
H15 O55 1_555 1_555
H16 O55 1_555 1_555
O56 C4 1_555 1_555
O57 La2 1_555 1_555
H17 O57 1_555 1_555
H18 O57 1_555 1_555
C1 O37 1_555 1_555
C2 C3 1_555 1_555
C3 O28 1_555 1_555
C4 O42 1_555 1_555
C5 C2 1_555 1_555
H19 C5 1_555 1_555
C6 C1 1_555 1_555
C7 C2 1_555 1_555
H20 C7 1_555 1_555
C8 C5 1_555 1_555
H21 C8 1_555 1_555
C9 C4 1_555 1_555
C10 C16 1_555 1_555
C11 H22 1_555 1_555
C12 C7 1_555 1_555
H23 C12 1_555 1_555
C13 C9 1_555 1_555
H24 C13 1_555 1_555
C14 H25 1_555 1_555
C15 C13 1_555 1_555
H26 C15 1_555 1_555
C16 H27 1_555 1_555
C17 C6 1_555 1_555
H28 C17 1_555 1_555
C18 C16 1_555 1_555
H29 C18 1_555 1_555
C19 C9 1_555 1_555
H30 C19 1_555 1_555
C20 O41 1_555 1_555
C21 C6 1_555 1_555
H31 C21 1_555 1_555
C22 C21 1_555 1_555
H32 C22 1_555 1_555
C23 H33 1_555 1_555
C24 C10 1_555 1_555
H34 C24 1_555 1_555
N1 C8 1_555 1_555
N2 C11 1_555 1_555
N3 C14 1_555 1_555
N4 C18 1_555 1_555
O58 La1 1_555 1_555
H35 O58 1_555 1_555
H36 O58 1_555 1_555
O59 H37 1_555 1_555
H38 O59 1_555 1_555
La1A O38 1_555 1_555
La2A O41 1_555 1_555
O30A La1A 1_555 1_555
O38A La1 1_555 1_555
O41A La2 1_555 1_555
O52A La2 1_555 1_555
O53A La2 1_555 1_555
O56A La1 1_555 1_555
W4 O31 1_555 1_555
W5 O11 1_555 1_555
W5 O14 1_555 1_555
W5 O36 1_555 1_555
W6 O16 1_555 1_555
W6 O23 1_555 1_555
W6 O32 1_555 1_555
W7 O10 1_555 1_555
W7 O29 1_555 1_555
W7 O33 1_555 1_555
W8 O12 1_555 1_555
W8 O29 1_555 1_555
W9 O34 1_555 1_555
W10 O17 1_555 1_555
W10 O18 1_555 1_555
W10 O27 1_555 1_555
W10 O34 1_555 1_555
W11 O20 1_555 1_555
W11 O21 1_555 1_555
W11 O32 1_555 1_555
W12 O8 1_555 1_555
W12 O36 1_555 1_555
O38 C1 1_555 1_555
O52 La2A 1_555 1_555
O53 La2A 1_555 1_555
O56 La1A 1_555 1_555
C10 C20 1_555 1_555
C11 C19 1_555 1_555
C12 N1 1_555 1_555
C14 C17 1_555 1_555
C15 N2 1_555 1_555
C22 N3 1_555 1_555
C23 C24 1_555 1_555
C23 N4 1_555 1_555
La1A O38A 1_555 1_555
La2A O41A 1_555 1_555

#END
