
#######################################################################
#
#                 Cambridge Crystallographic Data Centre
#                                CCDC 
#
#######################################################################
#
# If this CIF has been generated from an entry in the Cambridge 
# Structural Database, then it will include bibliographic, chemical, 
# crystal, experimental, refinement or atomic coordinate data resulting 
# from the CCDC's data processing and validation procedures.
#
#######################################################################

data_KITNIM
_symmetry_cell_setting           monoclinic
_symmetry_space_group_name_H-M   'C 2/c'
_symmetry_Int_Tables_number      15
_space_group_name_Hall           '-C 2yn'
loop_
_symmetry_equiv_pos_site_id
_symmetry_equiv_pos_as_xyz
1 x,y,z
2 -x,y,1/2-z
3 1/2+x,1/2+y,z
4 1/2-x,1/2+y,1/2-z
5 -x,-y,-z
6 x,-y,1/2+z
7 1/2-x,1/2-y,-z
8 1/2+x,1/2-y,1/2+z
_cell_length_a                   18.4648(10)
_cell_length_b                   18.9507(10)
_cell_length_c                   12.1406(7)
_cell_angle_alpha                90
_cell_angle_beta                 114.5222(10)
_cell_angle_gamma                90
_cell_volume                     3865.06
loop_
_atom_site_label
_atom_site_type_symbol
_atom_site_fract_x
_atom_site_fract_y
_atom_site_fract_z
Cu1 Cu 0.43607(5) 0.15271(4) 0.63942(8)
Cu2 Cu 0.55491(5) 0.25256(4) 0.70967(8)
I1 I 0.57682(3) 0.11600(2) 0.65413(4)
I2 I 0.41015(3) 0.28834(2) 0.55515(4)
C1 C 0.2780(4) 0.0845(4) 0.5276(6)
H1 H 0.2728 0.1050 0.5953
C2 C 0.2155(5) 0.0454(4) 0.4481(7)
H2 H 0.1692 0.0383 0.4625
C3 C 0.2206(5) 0.0159(3) 0.3452(7)
C4 C 0.2897(5) 0.0289(4) 0.3302(7)
H3 H 0.2956 0.0112 0.2612
C5 C 0.3505(5) 0.0680(4) 0.4168(7)
H4 H 0.3978 0.0755 0.4054
C6 C 0.1554(5) -0.0299(4) 0.2568(7)
H5 H 0.1412 -0.0123 0.1737
H6 H 0.1756 -0.0787 0.2614
C7 C 0.0346(5) 0.0322(4) 0.2321(7)
H7 H 0.0144 0.0330 0.1427
H8 H 0.0673 0.0750 0.2643
C8 C 0.0351(4) -0.0939(4) 0.2336(8)
H9 H 0.0679 -0.1365 0.2677
H10 H 0.0159 -0.0956 0.1444
C9 C 0.6318(4) 0.3330(4) 0.5779(7)
H11 H 0.5785 0.3439 0.5247
C10 C 0.6906(4) 0.3563(4) 0.5464(7)
H12 H 0.6780 0.3829 0.4744
C11 C 0.7700(4) 0.3404(4) 0.6221(7)
C12 C 0.7837(5) 0.3038(4) 0.7269(7)
H13 H 0.8368 0.2930 0.7816
C13 C 0.7206(5) 0.2824(4) 0.7536(7)
H14 H 0.7318 0.2578 0.8270
C14 C 0.8364(4) 0.3692(5) 0.5901(7)
H15 H 0.8394 0.3402 0.5243
H16 H 0.8229 0.4181 0.5594
C15 C 0.9610(4) 0.4322(4) 0.6940(6)
H17 H 0.9302 0.4751 0.6931
H18 H 0.9718 0.4326 0.6206
C16 C 0.9616(5) 0.3055(4) 0.6940(7)
H19 H 0.9730 0.3053 0.6212
H20 H 0.9306 0.2626 0.6923
N1 N 0.3461(4) 0.0955(3) 0.5150(5)
N2 N 0.6434(4) 0.2957(3) 0.6781(6)
N3 N 0.9149(4) 0.3694(3) 0.6935(6)
N4 N 0.0836(4) -0.0311(3) 0.2801(6)
C1A C -0.2780(4) 0.0845(4) -0.0276(6)
H1A H -0.2728 0.1050 -0.0953
C2A C -0.2155(5) 0.0454(4) 0.0519(7)
H2A H -0.1692 0.0383 0.0375
C3A C -0.2206(5) 0.0159(3) 0.1548(7)
C4A C -0.2897(5) 0.0289(4) 0.1698(7)
H3A H -0.2956 0.0112 0.2388
C5A C -0.3505(5) 0.0680(4) 0.0832(7)
H4A H -0.3978 0.0755 0.0946
C6A C -0.1554(5) -0.0299(4) 0.2432(7)
H5A H -0.1412 -0.0123 0.3263
H6A H -0.1756 -0.0787 0.2386
C7A C -0.0346(5) 0.0322(4) 0.2679(7)
H7A H -0.0144 0.0330 0.3573
H8A H -0.0673 0.0750 0.2357
C8A C -0.0351(4) -0.0939(4) 0.2664(8)
H9A H -0.0679 -0.1365 0.2323
H10A H -0.0159 -0.0956 0.3556
N1A N -0.3461(4) 0.0955(3) -0.0150(5)
N4A N -0.0836(4) -0.0311(3) 0.2199(6)
C9A C 1.3682(4) 0.3330(4) 0.9221(7)
H11A H 1.4215 0.3439 0.9753
C10A C 1.3094(4) 0.3563(4) 0.9536(7)
H12A H 1.3220 0.3829 1.0256
C11A C 1.2300(4) 0.3404(4) 0.8779(7)
C12A C 1.2163(5) 0.3038(4) 0.7731(7)
H13A H 1.1632 0.2930 0.7184
C13A C 1.2794(5) 0.2824(4) 0.7464(7)
H14A H 1.2682 0.2578 0.6730
C14A C 1.1636(4) 0.3692(5) 0.9099(7)
H15A H 1.1606 0.3402 0.9757
H16A H 1.1771 0.4181 0.9406
C15A C 1.0390(4) 0.4322(4) 0.8060(6)
H17A H 1.0698 0.4751 0.8069
H18A H 1.0282 0.4326 0.8794
C16A C 1.0384(5) 0.3055(4) 0.8060(7)
H19A H 1.0270 0.3053 0.8788
H20A H 1.0694 0.2626 0.8077
N2A N 1.3566(4) 0.2957(3) 0.8219(6)
N3A N 1.0851(4) 0.3694(3) 0.8065(6)
Cu1A Cu -0.43607(5) 0.15271(4) -0.13942(8)
Cu2A Cu -0.55491(5) 0.25256(4) -0.20967(8)
I1A I -0.57682(3) 0.11600(2) -0.15413(4)
I2A I -0.41015(3) 0.28834(2) -0.05515(4)
Cu1_2 Cu -0.56393(5) 0.15271(4) -0.36058(8)
Cu1A_2 Cu 0.56393(5) 0.15271(4) 0.86058(8)
Cu2_2 Cu -0.44509(5) 0.25256(4) -0.29033(8)
Cu2A_2 Cu 0.44509(5) 0.25256(4) 0.79033(8)
Cu2A_3 Cu 1.44509(5) 0.25256(4) 0.79033(8)
I1_2 I -0.42318(3) 0.11600(2) -0.34587(4)
I1A_2 I 0.42318(3) 0.11600(2) 0.84587(4)
I2_2 I -0.58985(3) 0.28834(2) -0.44485(4)
I2A_2 I 0.58985(3) 0.28834(2) 0.94485(4)
N2A_2 N -0.6434(4) 0.2957(3) -0.1781(6)
loop_
_geom_bond_atom_site_label_1
_geom_bond_atom_site_label_2
_geom_bond_site_symmetry_1
_geom_bond_site_symmetry_2
Cu1 I1 1_555 1_555
Cu2 I1 1_555 1_555
I1 Cu1A_2 1_555 1_555
I2 Cu1 1_555 1_555
C1 H1 1_555 1_555
C2 C1 1_555 1_555
H2 C2 1_555 1_555
C3 C2 1_555 1_555
C4 C3 1_555 1_555
H3 C4 1_555 1_555
C5 C4 1_555 1_555
H4 C5 1_555 1_555
C6 C3 1_555 1_555
H5 C6 1_555 1_555
H6 C6 1_555 1_555
C7 H7 1_555 1_555
H8 C7 1_555 1_555
C8 H9 1_555 1_555
H10 C8 1_555 1_555
C9 H11 1_555 1_555
C10 C9 1_555 1_555
H12 C10 1_555 1_555
C11 C10 1_555 1_555
C12 C11 1_555 1_555
H13 C12 1_555 1_555
C13 C12 1_555 1_555
H14 C13 1_555 1_555
C14 C11 1_555 1_555
H15 C14 1_555 1_555
H16 C14 1_555 1_555
C15 H17 1_555 1_555
H18 C15 1_555 1_555
C16 H19 1_555 1_555
H20 C16 1_555 1_555
N1 Cu1 1_555 1_555
N2 Cu2 1_555 1_555
N3 C14 1_555 1_555
N4 C6 1_555 1_555
C1A H1A 1_555 1_555
C2A C1A 1_555 1_555
H2A C2A 1_555 1_555
C3A C2A 1_555 1_555
C4A C3A 1_555 1_555
H3A C4A 1_555 1_555
C5A C4A 1_555 1_555
H4A C5A 1_555 1_555
C6A C3A 1_555 1_555
H5A C6A 1_555 1_555
H6A C6A 1_555 1_555
C7A C7 1_555 1_555
H7A C7A 1_555 1_555
H8A C7A 1_555 1_555
C8A C8 1_555 1_555
H9A C8A 1_555 1_555
H10A C8A 1_555 1_555
N1A C1A 1_555 1_555
N4A C6A 1_555 1_555
C9A H11A 1_555 1_555
C10A C9A 1_555 1_555
H12A C10A 1_555 1_555
C11A C10A 1_555 1_555
C12A C11A 1_555 1_555
H13A C12A 1_555 1_555
C13A C12A 1_555 1_555
H14A C13A 1_555 1_555
C14A C11A 1_555 1_555
H15A C14A 1_555 1_555
H16A C14A 1_555 1_555
C15A C15 1_555 1_555
H17A C15A 1_555 1_555
H18A C15A 1_555 1_555
C16A C16 1_555 1_555
H19A C16A 1_555 1_555
H20A C16A 1_555 1_555
N2A C9A 1_555 1_555
N3A C14A 1_555 1_555
Cu1A N1A 1_555 1_555
Cu2A I1A 1_555 1_555
I1A Cu1A 1_555 1_555
I2A Cu1A 1_555 1_555
Cu1_2 I1A 1_555 1_555
Cu1A_2 I1A_2 1_555 1_555
Cu2_2 I2A 1_555 1_555
Cu2A_2 I2 1_555 1_555
Cu2A_3 N2A 1_555 1_555
I1_2 Cu1A 1_555 1_555
I1A_2 Cu1 1_555 1_555
I2_2 Cu2A 1_555 1_555
I2A_2 Cu2 1_555 1_555
N2A_2 Cu2A 1_555 1_555
Cu2 I2 1_555 1_555
C1 N1 1_555 1_555
C5 N1 1_555 1_555
C7 N4 1_555 1_555
C8 N4 1_555 1_555
C9 N2 1_555 1_555
C13 N2 1_555 1_555
C15 N3 1_555 1_555
C16 N3 1_555 1_555
C5A N1A 1_555 1_555
C7A N4A 1_555 1_555
C8A N4A 1_555 1_555
C13A N2A 1_555 1_555
C15A N3A 1_555 1_555
C16A N3A 1_555 1_555
Cu2A I2A 1_555 1_555
Cu1_2 I1_2 1_555 1_555
Cu1_2 I2_2 1_555 1_555
Cu1A_2 I2A_2 1_555 1_555
Cu2_2 I1_2 1_555 1_555
Cu2_2 I2_2 1_555 1_555
Cu2A_2 I1A_2 1_555 1_555
Cu2A_2 I2A_2 1_555 1_555

#END
