
#######################################################################
#
#                 Cambridge Crystallographic Data Centre
#                                CCDC 
#
#######################################################################
#
# If this CIF has been generated from an entry in the Cambridge 
# Structural Database, then it will include bibliographic, chemical, 
# crystal, experimental, refinement or atomic coordinate data resulting 
# from the CCDC's data processing and validation procedures.
#
#######################################################################

data_KITNIM02
_symmetry_cell_setting           monoclinic
_symmetry_space_group_name_H-M   'C 2/c'
_symmetry_Int_Tables_number      15
_space_group_name_Hall           '-C 2yn'
loop_
_symmetry_equiv_pos_site_id
_symmetry_equiv_pos_as_xyz
1 x,y,z
2 -x,y,1/2-z
3 1/2+x,1/2+y,z
4 1/2-x,1/2+y,1/2-z
5 -x,-y,-z
6 x,-y,1/2+z
7 1/2-x,1/2-y,-z
8 1/2+x,1/2-y,1/2+z
_cell_length_a                   18.4183(15)
_cell_length_b                   19.1626(16)
_cell_length_c                   12.2780(10)
_cell_angle_alpha                90
_cell_angle_beta                 114.6330(10)
_cell_angle_gamma                90
_cell_volume                     3939.07
loop_
_atom_site_label
_atom_site_type_symbol
_atom_site_fract_x
_atom_site_fract_y
_atom_site_fract_z
Cu1 Cu 0.43525(3) 0.15155(3) 0.64017(5)
Cu2 Cu 0.55502(3) 0.25192(3) 0.70944(5)
I1 I 0.576790(16) 0.116119(15) 0.65480(2)
I2 I 0.409771(16) 0.286565(14) 0.55718(2)
C1 C 0.2782(2) 0.0831(2) 0.5291(4)
H1 H 0.2728 0.1027 0.5946
C2 C 0.2158(2) 0.0437(2) 0.4500(4)
H2 H 0.1706 0.0362 0.4640
C3 C 0.2210(2) 0.0156(2) 0.3499(4)
C4 C 0.2900(3) 0.0287(2) 0.3361(4)
H3 H 0.2960 0.0114 0.2695
C5 C 0.3500(3) 0.0670(2) 0.4198(4)
H4 H 0.3964 0.0741 0.4085
C6 C 0.1562(3) -0.0300(2) 0.2627(4)
H5 H 0.1435 -0.0139 0.1819
H6 H 0.1762 -0.0774 0.2692
C7 C 0.0349(3) 0.0315(2) 0.2334(4)
H7 H 0.0157 0.0320 0.1469
H8 H 0.0668 0.0731 0.2650
C8 C 0.0352(3) -0.0924(2) 0.2341(4)
H9 H 0.0672 -0.1339 0.2666
H10 H 0.0167 -0.0934 0.1477
C9 C 0.6317(2) 0.3308(2) 0.5787(4)
H11 H 0.5792 0.3412 0.5272
C10 C 0.6919(3) 0.3530(3) 0.5486(4)
H12 H 0.6796 0.3769 0.4773
C11 C 0.7704(2) 0.3397(2) 0.6241(4)
C12 C 0.7841(2) 0.3035(2) 0.7282(4)
H13 H 0.8360 0.2929 0.7819
C13 C 0.7208(3) 0.2834(2) 0.7517(4)
H14 H 0.7313 0.2601 0.8232
C14 C 0.8365(3) 0.3670(3) 0.5927(4)
H15 H 0.8389 0.3386 0.5289
H16 H 0.8236 0.4143 0.5627
C15 C 0.9607(2) 0.4285(2) 0.6951(4)
H17 H 0.9303 0.4698 0.6952
H18 H 0.9706 0.4295 0.6234
C16 C 0.9610(3) 0.3049(2) 0.6956(4)
H19 H 0.9709 0.3036 0.6239
H20 H 0.9306 0.2636 0.6960
N1 N 0.34585(19) 0.09477(17) 0.5171(3)
N2 N 0.6450(2) 0.29520(18) 0.6777(3)
N3 N 0.9153(2) 0.36692(19) 0.6941(3)
N4 N 0.0839(2) -0.03052(17) 0.2821(3)
C1A C -0.2782(2) 0.0831(2) -0.0291(4)
H1A H -0.2728 0.1027 -0.0946
C2A C -0.2158(2) 0.0437(2) 0.0500(4)
H2A H -0.1706 0.0362 0.0360
C3A C -0.2210(2) 0.0156(2) 0.1501(4)
C4A C -0.2900(3) 0.0287(2) 0.1639(4)
H3A H -0.2960 0.0114 0.2305
C5A C -0.3500(3) 0.0670(2) 0.0802(4)
H4A H -0.3964 0.0741 0.0915
C6A C -0.1562(3) -0.0300(2) 0.2373(4)
H5A H -0.1435 -0.0139 0.3181
H6A H -0.1762 -0.0774 0.2308
C7A C -0.0349(3) 0.0315(2) 0.2666(4)
H7A H -0.0157 0.0320 0.3531
H8A H -0.0668 0.0731 0.2350
C8A C -0.0352(3) -0.0924(2) 0.2659(4)
H9A H -0.0672 -0.1339 0.2334
H10A H -0.0167 -0.0934 0.3523
N1A N -0.34585(19) 0.09477(17) -0.0171(3)
N4A N -0.0839(2) -0.03052(17) 0.2179(3)
C9A C 1.3683(2) 0.3308(2) 0.9213(4)
H11A H 1.4208 0.3412 0.9728
C10A C 1.3081(3) 0.3530(3) 0.9514(4)
H12A H 1.3204 0.3769 1.0227
C11A C 1.2296(2) 0.3397(2) 0.8759(4)
C12A C 1.2159(2) 0.3035(2) 0.7718(4)
H13A H 1.1640 0.2929 0.7181
C13A C 1.2792(3) 0.2834(2) 0.7483(4)
H14A H 1.2687 0.2601 0.6768
C14A C 1.1635(3) 0.3670(3) 0.9073(4)
H15A H 1.1611 0.3386 0.9711
H16A H 1.1764 0.4143 0.9373
C15A C 1.0393(2) 0.4285(2) 0.8049(4)
H17A H 1.0697 0.4698 0.8048
H18A H 1.0294 0.4295 0.8766
C16A C 1.0390(3) 0.3049(2) 0.8044(4)
H19A H 1.0291 0.3036 0.8761
H20A H 1.0694 0.2636 0.8040
N2A N 1.3550(2) 0.29520(18) 0.8223(3)
N3A N 1.0847(2) 0.36692(19) 0.8059(3)
Cu1A Cu -0.43525(3) 0.15155(3) -0.14017(5)
Cu2A Cu -0.55502(3) 0.25192(3) -0.20944(5)
I1A I -0.576790(16) 0.116119(15) -0.15480(2)
I2A I -0.409771(16) 0.286565(14) -0.05718(2)
Cu1_2 Cu -0.56475(3) 0.15155(3) -0.35983(5)
Cu1A_2 Cu 0.56475(3) 0.15155(3) 0.85983(5)
Cu2_2 Cu -0.44498(3) 0.25192(3) -0.29056(5)
Cu2A_2 Cu 0.44498(3) 0.25192(3) 0.79056(5)
Cu2A_3 Cu 1.44498(3) 0.25192(3) 0.79056(5)
I1_2 I -0.423210(16) 0.116119(15) -0.34520(2)
I1A_2 I 0.423210(16) 0.116119(15) 0.84520(2)
I2_2 I -0.590229(16) 0.286565(14) -0.44282(2)
I2A_2 I 0.590229(16) 0.286565(14) 0.94282(2)
N2A_2 N -0.6450(2) 0.29520(18) -0.1777(3)
loop_
_geom_bond_atom_site_label_1
_geom_bond_atom_site_label_2
_geom_bond_site_symmetry_1
_geom_bond_site_symmetry_2
Cu1 I1 1_555 1_555
Cu2 I1 1_555 1_555
I1 Cu1A_2 1_555 1_555
I2 Cu1 1_555 1_555
C1 H1 1_555 1_555
C2 C1 1_555 1_555
H2 C2 1_555 1_555
C3 C2 1_555 1_555
C4 C3 1_555 1_555
H3 C4 1_555 1_555
C5 C4 1_555 1_555
H4 C5 1_555 1_555
C6 C3 1_555 1_555
H5 C6 1_555 1_555
H6 C6 1_555 1_555
C7 H7 1_555 1_555
H8 C7 1_555 1_555
C8 H9 1_555 1_555
H10 C8 1_555 1_555
C9 H11 1_555 1_555
C10 C9 1_555 1_555
H12 C10 1_555 1_555
C11 C10 1_555 1_555
C12 C11 1_555 1_555
H13 C12 1_555 1_555
C13 C12 1_555 1_555
H14 C13 1_555 1_555
C14 C11 1_555 1_555
H15 C14 1_555 1_555
H16 C14 1_555 1_555
C15 H17 1_555 1_555
H18 C15 1_555 1_555
C16 H19 1_555 1_555
H20 C16 1_555 1_555
N1 Cu1 1_555 1_555
N2 Cu2 1_555 1_555
N3 C14 1_555 1_555
N4 C6 1_555 1_555
C1A H1A 1_555 1_555
C2A C1A 1_555 1_555
H2A C2A 1_555 1_555
C3A C2A 1_555 1_555
C4A C3A 1_555 1_555
H3A C4A 1_555 1_555
C5A C4A 1_555 1_555
H4A C5A 1_555 1_555
C6A C3A 1_555 1_555
H5A C6A 1_555 1_555
H6A C6A 1_555 1_555
C7A C7 1_555 1_555
H7A C7A 1_555 1_555
H8A C7A 1_555 1_555
C8A C8 1_555 1_555
H9A C8A 1_555 1_555
H10A C8A 1_555 1_555
N1A C1A 1_555 1_555
N4A C6A 1_555 1_555
C9A H11A 1_555 1_555
C10A C9A 1_555 1_555
H12A C10A 1_555 1_555
C11A C10A 1_555 1_555
C12A C11A 1_555 1_555
H13A C12A 1_555 1_555
C13A C12A 1_555 1_555
H14A C13A 1_555 1_555
C14A C11A 1_555 1_555
H15A C14A 1_555 1_555
H16A C14A 1_555 1_555
C15A C15 1_555 1_555
H17A C15A 1_555 1_555
H18A C15A 1_555 1_555
C16A C16 1_555 1_555
H19A C16A 1_555 1_555
H20A C16A 1_555 1_555
N2A C9A 1_555 1_555
N3A C14A 1_555 1_555
Cu1A N1A 1_555 1_555
Cu2A I1A 1_555 1_555
I1A Cu1A 1_555 1_555
I2A Cu1A 1_555 1_555
Cu1_2 I1A 1_555 1_555
Cu1A_2 I1A_2 1_555 1_555
Cu2_2 I2A 1_555 1_555
Cu2A_2 I2 1_555 1_555
Cu2A_3 N2A 1_555 1_555
I1_2 Cu1A 1_555 1_555
I1A_2 Cu1 1_555 1_555
I2_2 Cu2A 1_555 1_555
I2A_2 Cu2 1_555 1_555
N2A_2 Cu2A 1_555 1_555
Cu2 I2 1_555 1_555
C1 N1 1_555 1_555
C5 N1 1_555 1_555
C7 N4 1_555 1_555
C8 N4 1_555 1_555
C9 N2 1_555 1_555
C13 N2 1_555 1_555
C15 N3 1_555 1_555
C16 N3 1_555 1_555
C5A N1A 1_555 1_555
C7A N4A 1_555 1_555
C8A N4A 1_555 1_555
C13A N2A 1_555 1_555
C15A N3A 1_555 1_555
C16A N3A 1_555 1_555
Cu2A I2A 1_555 1_555
Cu1_2 I1_2 1_555 1_555
Cu1_2 I2_2 1_555 1_555
Cu1A_2 I2A_2 1_555 1_555
Cu2_2 I1_2 1_555 1_555
Cu2_2 I2_2 1_555 1_555
Cu2A_2 I1A_2 1_555 1_555
Cu2A_2 I2A_2 1_555 1_555

#END
