
#######################################################################
#
#                 Cambridge Crystallographic Data Centre
#                                CCDC 
#
#######################################################################
#
# If this CIF has been generated from an entry in the Cambridge 
# Structural Database, then it will include bibliographic, chemical, 
# crystal, experimental, refinement or atomic coordinate data resulting 
# from the CCDC's data processing and validation procedures.
#
#######################################################################

data_KITPEK
_symmetry_cell_setting           monoclinic
_symmetry_space_group_name_H-M   'C 2/c'
_symmetry_Int_Tables_number      15
_space_group_name_Hall           '-C 2yn'
loop_
_symmetry_equiv_pos_site_id
_symmetry_equiv_pos_as_xyz
1 x,y,z
2 -x,y,1/2-z
3 1/2+x,1/2+y,z
4 1/2-x,1/2+y,1/2-z
5 -x,-y,-z
6 x,-y,1/2+z
7 1/2-x,1/2-y,-z
8 1/2+x,1/2-y,1/2+z
_cell_length_a                   17.9843(18)
_cell_length_b                   14.9569(14)
_cell_length_c                   22.464(2)
_cell_angle_alpha                90
_cell_angle_beta                 111.631(2)
_cell_angle_gamma                90
_cell_volume                     5617.04
loop_
_atom_site_label
_atom_site_type_symbol
_atom_site_fract_x
_atom_site_fract_y
_atom_site_fract_z
Cu1 Cu 0.24761(5) 0.32473(6) 0.35732(4)
Cu2 Cu 0.19532(5) 0.21701(6) 0.43131(4)
I1 I 0.23356(3) 0.38859(3) 0.46447(2)
I2 I 0.22908(3) 0.15105(3) 0.33473(2)
C1 C 0.3946(5) 0.3281(7) 0.3243(4)
H1 H 0.3620 0.2932 0.2904
C2 C 0.4721(5) 0.3433(8) 0.3287(4)
H2 H 0.4909 0.3173 0.2993
C3 C 0.5214(4) 0.3971(5) 0.3768(4)
C4 C 0.4900(4) 0.4301(5) 0.4179(4)
H3 H 0.5211 0.4666 0.4513
C5 C 0.4111(4) 0.4103(5) 0.4114(4)
H4 H 0.3920 0.4340 0.4413
C6 C 0.6076(4) 0.4187(5) 0.3829(4)
H5 H 0.6065 0.4677 0.3543
H6 H 0.6377 0.4384 0.4263
C7 C 0.6599(4) 0.2706(5) 0.4130(3)
H7 H 0.6083 0.2499 0.4119
H8 H 0.6902 0.2917 0.4560
C8 C 0.7043(4) 0.1935(5) 0.3967(4)
H9 H 0.7108 0.1451 0.4269
H10 H 0.6733 0.1713 0.3541
C9 C 0.7715(4) 0.2965(5) 0.3542(3)
H11 H 0.7413 0.2755 0.3111
H12 H 0.8231 0.3172 0.3553
C10 C 0.7274(4) 0.3735(5) 0.3697(4)
H13 H 0.7585 0.3967 0.4119
H14 H 0.7203 0.4212 0.3388
C11 C 0.8248(4) 0.1468(5) 0.3828(4)
H15 H 0.7968 0.1304 0.3384
H16 H 0.8236 0.0958 0.4091
C12 C 1.0254(4) 0.1570(5) 0.3611(3)
H17 H 1.0460 0.1370 0.3311
C13 C 0.9455(4) 0.1402(5) 0.3502(3)
H18 H 0.9142 0.1092 0.3137
C14 C 0.9120(4) 0.1693(4) 0.3934(4)
C15 C 0.9618(4) 0.2158(5) 0.4457(4)
H19 H 0.9420 0.2368 0.4760
C16 C 1.0417(4) 0.2321(5) 0.4544(3)
H20 H 1.0734 0.2652 0.4897
C17 C 0.1649(5) 0.4782(6) 0.2767(4)
H21 H 0.2065 0.5086 0.3075
C18 C 0.1123(5) 0.5269(5) 0.2267(4)
H22 H 0.1188 0.5884 0.2247
C19 C 0.0503(4) 0.4845(5) 0.1799(3)
C20 C 0.0427(4) 0.3950(5) 0.1874(3)
H23 H 0.0006 0.3635 0.1579
C21 C 0.0980(4) 0.3510(5) 0.2393(3)
H24 H 0.0910 0.2900 0.2431
C22 C -0.0070(4) 0.5336(5) 0.1216(3)
H25 H -0.0607 0.5302 0.1218
H26 H 0.0081 0.5961 0.1240
C23 C 0.0709(3) 0.5080(5) 0.0542(3)
H27 H 0.1133 0.4821 0.0906
H28 H 0.0816 0.5714 0.0531
C24 C -0.0703(4) 0.5348(5) 0.0059(3)
H29 H -0.0615 0.5986 0.0043
H30 H -0.1217 0.5260 0.0099
N1 N 0.3630(3) 0.3601(4) 0.3654(3)
N2 N 0.6486(3) 0.3430(4) 0.3681(3)
N3 N 0.7832(3) 0.2230(4) 0.3990(3)
N4 N 1.0741(3) 0.2009(4) 0.4129(3)
N5 N 0.1596(3) 0.3895(4) 0.2834(2)
N6 N -0.0062(3) 0.4955(4) 0.0620(2)
C17D C -0.1649(5) 0.5218(6) -0.2767(4)
H21D H -0.2065 0.4914 -0.3075
C18D C -0.1123(5) 0.4731(5) -0.2267(4)
H22D H -0.1188 0.4116 -0.2247
C19D C -0.0503(4) 0.5155(5) -0.1799(3)
C20D C -0.0427(4) 0.6050(5) -0.1874(3)
H23D H -0.0006 0.6365 -0.1579
C21D C -0.0980(4) 0.6490(5) -0.2393(3)
H24D H -0.0910 0.7100 -0.2431
C22D C 0.0070(4) 0.4664(5) -0.1216(3)
H25D H 0.0607 0.4698 -0.1218
H26D H -0.0081 0.4039 -0.1240
C23D C -0.0709(3) 0.4920(5) -0.0542(3)
H27D H -0.1133 0.5179 -0.0906
H28D H -0.0816 0.4286 -0.0531
C24D C 0.0703(4) 0.4652(5) -0.0059(3)
H29D H 0.0615 0.4014 -0.0043
H30D H 0.1217 0.4740 -0.0099
N5D N -0.1596(3) 0.6105(4) -0.2834(2)
N6D N 0.0062(3) 0.5045(4) -0.0620(2)
Cu1D Cu -0.24761(5) 0.67527(6) -0.35732(4)
Cu2D Cu -0.19532(5) 0.78299(6) -0.43131(4)
I1D I -0.23356(3) 0.61141(3) -0.46447(2)
I2D I -0.22908(3) 0.84895(3) -0.33473(2)
C1D C -0.3946(5) 0.6719(7) -0.3243(4)
H1D H -0.3620 0.7068 -0.2904
C2D C -0.4721(5) 0.6567(8) -0.3287(4)
H2D H -0.4909 0.6827 -0.2993
C3D C -0.5214(4) 0.6029(5) -0.3768(4)
C4D C -0.4900(4) 0.5699(5) -0.4179(4)
H3D H -0.5211 0.5334 -0.4513
C5D C -0.4111(4) 0.5897(5) -0.4114(4)
H4D H -0.3920 0.5660 -0.4413
C6D C -0.6076(4) 0.5813(5) -0.3829(4)
H5D H -0.6065 0.5323 -0.3543
H6D H -0.6377 0.5616 -0.4263
C7D C -0.6599(4) 0.7294(5) -0.4130(3)
H7D H -0.6083 0.7501 -0.4119
H8D H -0.6902 0.7083 -0.4560
C8D C -0.7043(4) 0.8065(5) -0.3967(4)
H9D H -0.7108 0.8549 -0.4269
H10D H -0.6733 0.8287 -0.3541
C9D C -0.7715(4) 0.7035(5) -0.3542(3)
H11D H -0.7413 0.7245 -0.3111
H12D H -0.8231 0.6828 -0.3553
C10D C -0.7274(4) 0.6265(5) -0.3697(4)
H13D H -0.7585 0.6033 -0.4119
H14D H -0.7203 0.5788 -0.3388
C11D C -0.8248(4) 0.8532(5) -0.3828(4)
H15D H -0.7968 0.8696 -0.3384
H16D H -0.8236 0.9042 -0.4091
C12D C -1.0254(4) 0.8430(5) -0.3611(3)
H17D H -1.0460 0.8630 -0.3311
C13D C -0.9455(4) 0.8598(5) -0.3502(3)
H18D H -0.9142 0.8908 -0.3137
C14D C -0.9120(4) 0.8307(4) -0.3934(4)
C15D C -0.9618(4) 0.7842(5) -0.4457(4)
H19D H -0.9420 0.7632 -0.4760
C16D C -1.0417(4) 0.7679(5) -0.4544(3)
H20D H -1.0734 0.7348 -0.4897
N1D N -0.3630(3) 0.6399(4) -0.3654(3)
N2D N -0.6486(3) 0.6570(4) -0.3681(3)
N3D N -0.7832(3) 0.7770(4) -0.3990(3)
N4D N -1.0741(3) 0.7991(4) -0.4129(3)
Cu2_2 Cu 1.19532(5) 0.21701(6) 0.43131(4)
Cu2B Cu -0.30468(5) 0.71701(6) -0.56869(4)
Cu2D_2 Cu -1.19532(5) 0.78299(6) -0.43131(4)
Cu2F Cu 0.30468(5) 0.28299(6) 0.56869(4)
I1B I -0.26644(3) 0.88859(3) -0.53553(2)
I1F I 0.26644(3) 0.11141(3) 0.53553(2)
N4_2 N 0.0741(3) 0.2009(4) 0.4129(3)
N4D_2 N -0.0741(3) 0.7991(4) -0.4129(3)
loop_
_geom_bond_atom_site_label_1
_geom_bond_atom_site_label_2
_geom_bond_site_symmetry_1
_geom_bond_site_symmetry_2
Cu1 I1 1_555 1_555
Cu2 I1 1_555 1_555
I1 Cu2F 1_555 1_555
I2 Cu1 1_555 1_555
C1 H1 1_555 1_555
C2 C1 1_555 1_555
H2 C2 1_555 1_555
C3 C2 1_555 1_555
C4 C3 1_555 1_555
H3 C4 1_555 1_555
C5 C4 1_555 1_555
H4 C5 1_555 1_555
C6 C3 1_555 1_555
H5 C6 1_555 1_555
H6 C6 1_555 1_555
C7 H7 1_555 1_555
H8 C7 1_555 1_555
C8 C7 1_555 1_555
H9 C8 1_555 1_555
H10 C8 1_555 1_555
C9 H11 1_555 1_555
H12 C9 1_555 1_555
C10 C9 1_555 1_555
H13 C10 1_555 1_555
H14 C10 1_555 1_555
C11 H15 1_555 1_555
H16 C11 1_555 1_555
C12 H17 1_555 1_555
C13 C12 1_555 1_555
H18 C13 1_555 1_555
C14 C11 1_555 1_555
C15 C14 1_555 1_555
H19 C15 1_555 1_555
C16 C15 1_555 1_555
H20 C16 1_555 1_555
C17 H21 1_555 1_555
C18 C17 1_555 1_555
H22 C18 1_555 1_555
C19 C18 1_555 1_555
C20 C19 1_555 1_555
H23 C20 1_555 1_555
C21 C20 1_555 1_555
H24 C21 1_555 1_555
C22 C19 1_555 1_555
H25 C22 1_555 1_555
H26 C22 1_555 1_555
C23 H27 1_555 1_555
H28 C23 1_555 1_555
C24 H29 1_555 1_555
H30 C24 1_555 1_555
N1 Cu1 1_555 1_555
N2 C6 1_555 1_555
N3 C8 1_555 1_555
N4 C12 1_555 1_555
N5 Cu1 1_555 1_555
N6 C22 1_555 1_555
C17D H21D 1_555 1_555
C18D C17D 1_555 1_555
H22D C18D 1_555 1_555
C19D C18D 1_555 1_555
C20D C19D 1_555 1_555
H23D C20D 1_555 1_555
C21D C20D 1_555 1_555
H24D C21D 1_555 1_555
C22D C19D 1_555 1_555
H25D C22D 1_555 1_555
H26D C22D 1_555 1_555
C23D C24 1_555 1_555
H27D C23D 1_555 1_555
H28D C23D 1_555 1_555
C24D C23 1_555 1_555
H29D C24D 1_555 1_555
H30D C24D 1_555 1_555
N5D C17D 1_555 1_555
N6D C22D 1_555 1_555
Cu1D N5D 1_555 1_555
Cu2D I1D 1_555 1_555
I1D Cu1D 1_555 1_555
I2D Cu1D 1_555 1_555
C1D H1D 1_555 1_555
C2D C1D 1_555 1_555
H2D C2D 1_555 1_555
C3D C2D 1_555 1_555
C4D C3D 1_555 1_555
H3D C4D 1_555 1_555
C5D C4D 1_555 1_555
H4D C5D 1_555 1_555
C6D C3D 1_555 1_555
H5D C6D 1_555 1_555
H6D C6D 1_555 1_555
C7D H7D 1_555 1_555
H8D C7D 1_555 1_555
C8D C7D 1_555 1_555
H9D C8D 1_555 1_555
H10D C8D 1_555 1_555
C9D H11D 1_555 1_555
H12D C9D 1_555 1_555
C10D C9D 1_555 1_555
H13D C10D 1_555 1_555
H14D C10D 1_555 1_555
C11D H15D 1_555 1_555
H16D C11D 1_555 1_555
C12D H17D 1_555 1_555
C13D C12D 1_555 1_555
H18D C13D 1_555 1_555
C14D C11D 1_555 1_555
C15D C14D 1_555 1_555
H19D C15D 1_555 1_555
C16D C15D 1_555 1_555
H20D C16D 1_555 1_555
N1D Cu1D 1_555 1_555
N2D C6D 1_555 1_555
N3D C8D 1_555 1_555
N4D C12D 1_555 1_555
Cu2_2 N4 1_555 1_555
Cu2B I1D 1_555 1_555
Cu2D_2 N4D 1_555 1_555
Cu2F I1F 1_555 1_555
I1B Cu2D 1_555 1_555
I1F Cu2 1_555 1_555
N4_2 Cu2 1_555 1_555
N4D_2 Cu2D 1_555 1_555
Cu2 I2 1_555 1_555
C1 N1 1_555 1_555
C5 N1 1_555 1_555
C7 N2 1_555 1_555
C9 N3 1_555 1_555
C10 N2 1_555 1_555
C11 N3 1_555 1_555
C13 C14 1_555 1_555
C16 N4 1_555 1_555
C17 N5 1_555 1_555
C21 N5 1_555 1_555
C23 N6 1_555 1_555
C24 N6 1_555 1_555
C21D N5D 1_555 1_555
C23D N6D 1_555 1_555
C24D N6D 1_555 1_555
Cu2D I2D 1_555 1_555
C1D N1D 1_555 1_555
C5D N1D 1_555 1_555
C7D N2D 1_555 1_555
C9D N3D 1_555 1_555
C10D N2D 1_555 1_555
C11D N3D 1_555 1_555
C13D C14D 1_555 1_555
C16D N4D 1_555 1_555
Cu2B I1B 1_555 1_555

#END
