
#######################################################################
#
#                 Cambridge Crystallographic Data Centre
#                                CCDC 
#
#######################################################################
#
# If this CIF has been generated from an entry in the Cambridge 
# Structural Database, then it will include bibliographic, chemical, 
# crystal, experimental, refinement or atomic coordinate data resulting 
# from the CCDC's data processing and validation procedures.
#
#######################################################################

data_KITQEK
_symmetry_cell_setting           triclinic
_symmetry_space_group_name_H-M   'P -1'
_symmetry_Int_Tables_number      2
_space_group_name_Hall           '-P 1'
loop_
_symmetry_equiv_pos_site_id
_symmetry_equiv_pos_as_xyz
1 x,y,z
2 -x,-y,-z
_cell_length_a                   9.925(6)
_cell_length_b                   16.079(9)
_cell_length_c                   18.757(11)
_cell_angle_alpha                79.607(9)
_cell_angle_beta                 85.817(10)
_cell_angle_gamma                86.177(9)
_cell_volume                     2931.99
loop_
_atom_site_label
_atom_site_type_symbol
_atom_site_fract_x
_atom_site_fract_y
_atom_site_fract_z
Ga1 Ga 0.45711(4) 0.27532(3) 0.23227(2)
Ga2 Ga -0.03946(4) 0.21587(3) 0.26403(2)
O1 O 0.4089(3) 0.18630(18) 0.19333(16)
O2 O 0.3846(3) 0.26753(18) 0.32525(16)
O3 O -0.1194(3) 0.30505(18) 0.30210(17)
O4 O -0.0860(3) 0.22196(18) 0.17101(15)
S1 S 0.64726(10) 0.18899(7) 0.27858(6)
S2 S 0.14369(10) 0.30339(7) 0.21727(6)
C1 C 0.4853(4) 0.1156(3) 0.1996(2)
C2 C 0.5991(4) 0.1038(3) 0.2399(2)
C3 C 0.6842(4) 0.0320(3) 0.2443(2)
H1 H 0.7595 0.0269 0.2718
C4 C 0.6592(4) -0.0313(3) 0.2088(3)
C5 C 0.5437(4) -0.0199(3) 0.1699(3)
H2 H 0.5245 -0.0631 0.1458
C6 C 0.4558(4) 0.0499(3) 0.1642(2)
C7 C 0.8734(6) -0.1089(4) 0.2530(4)
H3 H 0.8443 -0.1037 0.3020
H4 H 0.9254 -0.0615 0.2313
H5 H 0.9282 -0.1604 0.2530
C8 C 0.7510(5) -0.1106(3) 0.2097(3)
C9 C 0.6759(7) -0.1872(4) 0.2432(4)
H6 H 0.5974 -0.1896 0.2168
H7 H 0.6484 -0.1839 0.2928
H8 H 0.7338 -0.2372 0.2416
C10 C 0.8001(7) -0.1190(4) 0.1330(4)
H9 H 0.7237 -0.1198 0.1046
H10 H 0.8546 -0.1707 0.1338
H11 H 0.8530 -0.0719 0.1120
C11 C 0.3307(4) 0.0582(3) 0.1198(3)
C12 C 0.3164(6) -0.0203(4) 0.0863(4)
H12 H 0.3932 -0.0276 0.0534
H13 H 0.2353 -0.0135 0.0604
H14 H 0.3115 -0.0692 0.1241
C13 C 0.3380(6) 0.1343(4) 0.0578(3)
H15 H 0.4171 0.1271 0.0264
H16 H 0.3428 0.1851 0.0775
H17 H 0.2587 0.1384 0.0307
C14 C 0.2050(5) 0.0685(4) 0.1701(3)
H18 H 0.2107 0.1181 0.1914
H19 H 0.1996 0.0196 0.2078
H20 H 0.1258 0.0744 0.1428
C15 C 0.4505(4) 0.2232(2) 0.3807(2)
C16 C 0.5734(4) 0.1792(2) 0.3681(2)
C17 C 0.6458(4) 0.1362(3) 0.4253(2)
H21 H 0.7281 0.1079 0.4154
C18 C 0.5990(4) 0.1346(3) 0.4949(2)
C19 C 0.4734(4) 0.1764(3) 0.5065(2)
H22 H 0.4385 0.1740 0.5541
C20 C 0.3981(4) 0.2211(3) 0.4519(2)
C21 C 0.6758(5) 0.0895(3) 0.5586(3)
C22 C 0.8084(8) 0.0548(8) 0.5369(4)
H23 H 0.7981 0.0129 0.5074
H24 H 0.8543 0.0291 0.5794
H25 H 0.8604 0.0994 0.5096
C23 C 0.5996(9) 0.0224(6) 0.6037(5)
H26 H 0.5817 -0.0191 0.5751
H27 H 0.5156 0.0462 0.6219
H28 H 0.6516 -0.0041 0.6437
C24 C 0.6985(10) 0.1512(6) 0.6085(5)
H29 H 0.7474 0.1223 0.6489
H30 H 0.6128 0.1735 0.6260
H31 H 0.7498 0.1968 0.5822
C25 C 0.2629(4) 0.2665(3) 0.4687(3)
C26 C 0.1522(4) 0.2302(4) 0.4332(3)
H32 H 0.0667 0.2585 0.4436
H33 H 0.1483 0.1707 0.4521
H34 H 0.1718 0.2385 0.3816
C27 C 0.2689(5) 0.3599(3) 0.4401(3)
H35 H 0.3380 0.3825 0.4631
H36 H 0.1831 0.3879 0.4504
H37 H 0.2895 0.3689 0.3885
C28 C 0.2267(5) 0.2562(4) 0.5495(3)
H38 H 0.2952 0.2793 0.5726
H39 H 0.2206 0.1972 0.5696
H40 H 0.1412 0.2857 0.5577
C29 C 0.4876(4) 0.3819(3) 0.1724(3)
H41 H 0.4026 0.4094 0.1580
H42 H 0.5434 0.3734 0.1300
H43 H 0.5324 0.4166 0.1989
C30 C -0.0552(4) 0.3761(3) 0.2971(2)
C31 C 0.0665(4) 0.3881(2) 0.2575(2)
C32 C 0.1376(4) 0.4591(2) 0.2543(2)
H44 H 0.2199 0.4641 0.2272
C33 C 0.0894(4) 0.5224(3) 0.2903(3)
C34 C -0.0352(5) 0.5108(3) 0.3282(3)
H45 H -0.0707 0.5540 0.3521
C35 C -0.1113(4) 0.4408(3) 0.3336(2)
C36 C 0.1663(5) 0.6009(3) 0.2908(3)
C37 C 0.2955(6) 0.6027(4) 0.2458(5)
H46 H 0.3532 0.5544 0.2640
H47 H 0.3394 0.6536 0.2479
H48 H 0.2777 0.6014 0.1964
C38 C 0.0802(7) 0.6781(4) 0.2618(4)
H49 H 0.0610 0.6766 0.2126
H50 H 0.1275 0.7279 0.2631
H51 H -0.0031 0.6792 0.2911
C39 C 0.1961(9) 0.6041(5) 0.3678(4)
H52 H 0.2515 0.5549 0.3867
H53 H 0.1127 0.6052 0.3971
H54 H 0.2429 0.6541 0.3688
C40 C -0.2454(5) 0.4327(3) 0.3760(3)
C41 C -0.2872(6) 0.5113(4) 0.4097(4)
H55 H -0.2919 0.5603 0.3720
H56 H -0.2216 0.5186 0.4430
H57 H -0.3742 0.5043 0.4353
C42 C -0.2398(6) 0.3561(4) 0.4382(3)
H58 H -0.2140 0.3057 0.4187
H59 H -0.3273 0.3504 0.4635
H60 H -0.1746 0.3644 0.4713
C43 C -0.3548(5) 0.4231(4) 0.3253(3)
H61 H -0.3328 0.3737 0.3038
H62 H -0.3600 0.4723 0.2878
H63 H -0.4405 0.4173 0.3525
C44 C -0.0179(4) 0.2681(2) 0.1162(2)
C45 C 0.0899(4) 0.3148(3) 0.1281(2)
C46 C 0.1629(4) 0.3611(3) 0.0721(3)
H64 H 0.2346 0.3904 0.0825
C47 C 0.1344(4) 0.3658(3) 0.0016(3)
C48 C 0.0249(4) 0.3200(3) -0.0099(2)
H65 H 0.0026 0.3221 -0.0575
C49 C -0.0515(4) 0.2724(3) 0.0444(2)
C50 C 0.2128(5) 0.4164(3) -0.0611(3)
C51 C 0.1381(11) 0.4845(8) -0.0973(7)
H66 H 0.0565 0.4652 -0.1118
H67 H 0.1902 0.5106 -0.1396
H68 H 0.1156 0.5248 -0.0658
C52 C 0.3351(12) 0.4464(11) -0.0420(6)
H69 H 0.3800 0.4777 -0.0846
H70 H 0.3932 0.3991 -0.0219
H71 H 0.3144 0.4826 -0.0067
C53 C 0.2593(16) 0.3656(7) -0.1171(7)
H72 H 0.1836 0.3398 -0.1316
H73 H 0.3247 0.3222 -0.0977
H74 H 0.3000 0.4015 -0.1584
C54 C -0.1695(4) 0.2236(3) 0.0275(2)
C55 C -0.1891(5) 0.2371(4) -0.0536(3)
H75 H -0.1090 0.2166 -0.0783
H76 H -0.2056 0.2964 -0.0716
H77 H -0.2649 0.2068 -0.0619
C56 C -0.1446(6) 0.1299(3) 0.0541(3)
H78 H -0.0635 0.1101 0.0298
H79 H -0.2198 0.1003 0.0438
H80 H -0.1348 0.1197 0.1055
C57 C -0.2992(5) 0.2554(4) 0.0650(3)
H81 H -0.3738 0.2253 0.0546
H82 H -0.3152 0.3149 0.0474
H83 H -0.2904 0.2460 0.1165
C58 C -0.0018(5) 0.1088(3) 0.3243(3)
H84 H -0.0847 0.0812 0.3387
H85 H 0.0405 0.1173 0.3667
H86 H 0.0578 0.0742 0.2977
Ga2_2 Ga 0.96054(4) 0.21587(3) 0.26403(2)
S1_2 S -0.35274(10) 0.18899(7) 0.27858(6)
loop_
_geom_bond_atom_site_label_1
_geom_bond_atom_site_label_2
_geom_bond_site_symmetry_1
_geom_bond_site_symmetry_2
Ga1 O1 1_555 1_555
Ga2 O3 1_555 1_555
O1 C1 1_555 1_555
O2 Ga1 1_555 1_555
O3 C30 1_555 1_555
O4 Ga2 1_555 1_555
S1 Ga1 1_555 1_555
S2 Ga1 1_555 1_555
C1 C2 1_555 1_555
C2 S1 1_555 1_555
C3 C2 1_555 1_555
H1 C3 1_555 1_555
C4 C3 1_555 1_555
C5 C4 1_555 1_555
H2 C5 1_555 1_555
C6 C1 1_555 1_555
C7 H3 1_555 1_555
H4 C7 1_555 1_555
H5 C7 1_555 1_555
C8 C4 1_555 1_555
C9 C8 1_555 1_555
H6 C9 1_555 1_555
H7 C9 1_555 1_555
H8 C9 1_555 1_555
C10 C8 1_555 1_555
H9 C10 1_555 1_555
H10 C10 1_555 1_555
H11 C10 1_555 1_555
C11 C6 1_555 1_555
C12 C11 1_555 1_555
H12 C12 1_555 1_555
H13 C12 1_555 1_555
H14 C12 1_555 1_555
C13 C11 1_555 1_555
H15 C13 1_555 1_555
H16 C13 1_555 1_555
H17 C13 1_555 1_555
C14 C11 1_555 1_555
H18 C14 1_555 1_555
H19 C14 1_555 1_555
H20 C14 1_555 1_555
C15 O2 1_555 1_555
C16 S1 1_555 1_555
C17 C16 1_555 1_555
H21 C17 1_555 1_555
C18 C17 1_555 1_555
C19 C18 1_555 1_555
H22 C19 1_555 1_555
C20 C15 1_555 1_555
C21 C18 1_555 1_555
C22 C21 1_555 1_555
H23 C22 1_555 1_555
H24 C22 1_555 1_555
H25 C22 1_555 1_555
C23 C21 1_555 1_555
H26 C23 1_555 1_555
H27 C23 1_555 1_555
H28 C23 1_555 1_555
C24 C21 1_555 1_555
H29 C24 1_555 1_555
H30 C24 1_555 1_555
H31 C24 1_555 1_555
C25 C20 1_555 1_555
C26 C25 1_555 1_555
H32 C26 1_555 1_555
H33 C26 1_555 1_555
H34 C26 1_555 1_555
C27 C25 1_555 1_555
H35 C27 1_555 1_555
H36 C27 1_555 1_555
H37 C27 1_555 1_555
C28 C25 1_555 1_555
H38 C28 1_555 1_555
H39 C28 1_555 1_555
H40 C28 1_555 1_555
C29 Ga1 1_555 1_555
H41 C29 1_555 1_555
H42 C29 1_555 1_555
H43 C29 1_555 1_555
C30 C31 1_555 1_555
C31 S2 1_555 1_555
C32 C31 1_555 1_555
H44 C32 1_555 1_555
C33 C32 1_555 1_555
C34 C33 1_555 1_555
H45 C34 1_555 1_555
C35 C30 1_555 1_555
C36 C33 1_555 1_555
C37 C36 1_555 1_555
H46 C37 1_555 1_555
H47 C37 1_555 1_555
H48 C37 1_555 1_555
C38 C36 1_555 1_555
H49 C38 1_555 1_555
H50 C38 1_555 1_555
H51 C38 1_555 1_555
C39 C36 1_555 1_555
H52 C39 1_555 1_555
H53 C39 1_555 1_555
H54 C39 1_555 1_555
C40 C35 1_555 1_555
C41 C40 1_555 1_555
H55 C41 1_555 1_555
H56 C41 1_555 1_555
H57 C41 1_555 1_555
C42 C40 1_555 1_555
H58 C42 1_555 1_555
H59 C42 1_555 1_555
H60 C42 1_555 1_555
C43 C40 1_555 1_555
H61 C43 1_555 1_555
H62 C43 1_555 1_555
H63 C43 1_555 1_555
C44 O4 1_555 1_555
C45 S2 1_555 1_555
C46 C45 1_555 1_555
H64 C46 1_555 1_555
C47 C46 1_555 1_555
C48 C47 1_555 1_555
H65 C48 1_555 1_555
C49 C44 1_555 1_555
C50 C47 1_555 1_555
C51 C50 1_555 1_555
H66 C51 1_555 1_555
H67 C51 1_555 1_555
H68 C51 1_555 1_555
C52 C50 1_555 1_555
H69 C52 1_555 1_555
H70 C52 1_555 1_555
H71 C52 1_555 1_555
C53 C50 1_555 1_555
H72 C53 1_555 1_555
H73 C53 1_555 1_555
H74 C53 1_555 1_555
C54 C49 1_555 1_555
C55 C54 1_555 1_555
H75 C55 1_555 1_555
H76 C55 1_555 1_555
H77 C55 1_555 1_555
C56 C54 1_555 1_555
H78 C56 1_555 1_555
H79 C56 1_555 1_555
H80 C56 1_555 1_555
C57 C54 1_555 1_555
H81 C57 1_555 1_555
H82 C57 1_555 1_555
H83 C57 1_555 1_555
C58 Ga2 1_555 1_555
H84 C58 1_555 1_555
H85 C58 1_555 1_555
H86 C58 1_555 1_555
Ga2_2 S1 1_555 1_555
S1_2 Ga2 1_555 1_555
Ga2 S2 1_555 1_555
C5 C6 1_555 1_555
C7 C8 1_555 1_555
C15 C16 1_555 1_555
C19 C20 1_555 1_555
C34 C35 1_555 1_555
C44 C45 1_555 1_555
C48 C49 1_555 1_555

#END
