
#######################################################################
#
#                 Cambridge Crystallographic Data Centre
#                                CCDC 
#
#######################################################################
#
# If this CIF has been generated from an entry in the Cambridge 
# Structural Database, then it will include bibliographic, chemical, 
# crystal, experimental, refinement or atomic coordinate data resulting 
# from the CCDC's data processing and validation procedures.
#
#######################################################################

data_KITTOY
_symmetry_cell_setting           monoclinic
_symmetry_space_group_name_H-M   'P 21/n'
_symmetry_Int_Tables_number      14
_space_group_name_Hall           '-P 2yn'
loop_
_symmetry_equiv_pos_site_id
_symmetry_equiv_pos_as_xyz
1 x,y,z
2 1/2-x,1/2+y,1/2-z
3 -x,-y,-z
4 1/2+x,1/2-y,1/2+z
_cell_length_a                   12.7947(5)
_cell_length_b                   16.9353(7)
_cell_length_c                   18.0105(8)
_cell_angle_alpha                90
_cell_angle_beta                 104.7400(10)
_cell_angle_gamma                90
_cell_volume                     3774.12
loop_
_atom_site_label
_atom_site_type_symbol
_atom_site_fract_x
_atom_site_fract_y
_atom_site_fract_z
Co1 Co 1.00848(3) 0.17260(2) 0.25130(2)
O1 O 0.95634(17) 0.47533(13) 0.08074(13)
O2 O 1.14192(18) 0.49023(14) 0.18163(13)
O3 O 0.93760(17) 0.14109(13) 0.33908(11)
O4 O 1.09604(17) 0.08878(13) 0.34414(12)
O5 O 0.9659(2) 0.07131(14) 0.18414(13)
O6 O 1.0791(2) 0.15161(15) 0.15032(13)
N1 N 0.8969(2) 0.24764(15) 0.18072(14)
N2 N 0.83213(19) 0.33324(14) 0.08647(14)
N3 N 1.2283(2) 0.36129(16) 0.28706(15)
N4 N 1.1184(2) 0.26096(15) 0.29271(14)
C1 C 0.7990(3) 0.2766(2) 0.18925(19)
C2 C 0.7573(3) 0.3301(2) 0.12977(19)
C3 C 0.6592(3) 0.3672(3) 0.1222(3)
H1 H 0.6323 0.4030 0.0829
C4 C 0.6036(4) 0.3490(4) 0.1751(4)
H2 H 0.5362 0.3717 0.1710
C5 C 0.6462(4) 0.2963(4) 0.2360(4)
H3 H 0.6071 0.2864 0.2720
C6 C 0.7430(3) 0.2596(3) 0.2433(3)
H4 H 0.7703 0.2245 0.2833
C7 C 0.9120(2) 0.28322(19) 0.11942(17)
H5 H 0.9724 0.2746 0.1006
C8 C 0.8282(3) 0.37979(19) 0.01717(17)
H6 H 0.7574 0.3735 -0.0181
H7 H 0.8812 0.3591 -0.0078
C9 C 0.8494(2) 0.46611(19) 0.03258(19)
H8 H 0.8427 0.4942 -0.0154
H9 H 0.7972 0.4878 0.0578
C10 C 0.9892(3) 0.5514(2) 0.1011(2)
C11 C 1.0892(3) 0.5590(2) 0.1557(2)
C12 C 1.1291(4) 0.6339(2) 0.1786(2)
H10 H 1.1953 0.6395 0.2145
C13 C 1.0701(4) 0.7003(3) 0.1478(3)
H11 H 1.0972 0.7503 0.1631
C14 C 0.9730(4) 0.6928(2) 0.0956(3)
H12 H 0.9336 0.7377 0.0761
C15 C 0.9320(3) 0.6181(2) 0.0710(3)
H13 H 0.8663 0.6133 0.0345
C16 C 1.2415(3) 0.4972(2) 0.2396(2)
H14 H 1.2281 0.5179 0.2866
H15 H 1.2899 0.5331 0.2227
C17 C 1.2912(3) 0.4168(2) 0.2536(2)
H16 H 1.2991 0.3956 0.2053
H17 H 1.3630 0.4217 0.2878
C18 C 1.2188(2) 0.3592(2) 0.36207(18)
C19 C 1.1501(2) 0.29615(18) 0.36522(17)
C20 C 1.1227(3) 0.2781(2) 0.43323(18)
H18 H 1.0761 0.2366 0.4358
C21 C 1.1670(3) 0.3237(2) 0.4964(2)
H19 H 1.1504 0.3128 0.5426
C22 C 1.2367(3) 0.3864(3) 0.4926(2)
H20 H 1.2655 0.4160 0.5365
C23 C 1.2635(3) 0.4053(2) 0.4259(2)
H21 H 1.3096 0.4471 0.4235
C24 C 1.1666(3) 0.3023(2) 0.24924(18)
H22 H 1.1587 0.2918 0.1974
C25 C 1.0134(2) 0.09385(17) 0.36886(15)
C26 C 1.0053(2) 0.04475(16) 0.43629(15)
C27 C 1.0772(2) -0.01719(16) 0.46047(15)
H23 H 1.1289 -0.0289 0.4340
C28 C 0.9282(2) 0.06156(17) 0.47563(16)
H24 H 0.8797 0.1027 0.4593
C29 C 1.0195(3) 0.0918(2) 0.13810(19)
C30 C 1.0105(3) 0.04403(18) 0.06654(17)
C31 C 0.9537(3) -0.02669(19) 0.05725(18)
H25 H 0.9226 -0.0448 0.0955
C32 C 0.9436(3) -0.07034(19) -0.00982(19)
H26 H 0.9054 -0.1177 -0.0163
O3B O 1.06240(17) -0.14109(13) 0.66092(11)
O4B O 0.90396(17) -0.08878(13) 0.65586(12)
C25B C 0.9866(2) -0.09385(17) 0.63114(15)
C26B C 0.9947(2) -0.04475(16) 0.56371(15)
C27B C 0.9228(2) 0.01719(16) 0.53953(15)
H23B H 0.8711 0.0289 0.5660
C28B C 1.0718(2) -0.06156(17) 0.52437(16)
H24B H 1.1203 -0.1027 0.5407
O5B O 1.0341(2) -0.07131(14) -0.18414(13)
O6B O 0.9209(2) -0.15161(15) -0.15032(13)
C29B C 0.9805(3) -0.0918(2) -0.13810(19)
C30B C 0.9895(3) -0.04403(18) -0.06654(17)
C31B C 1.0463(3) 0.02669(19) -0.05725(18)
H25B H 1.0774 0.0448 -0.0955
C32B C 1.0564(3) 0.07034(19) 0.00982(19)
H26B H 1.0946 0.1177 0.0163
Co1B Co 0.99152(3) -0.17260(2) -0.25130(2)
O1B O 1.04366(17) -0.47533(13) -0.08074(13)
O2B O 0.85808(18) -0.49023(14) -0.18163(13)
N1B N 1.1031(2) -0.24764(15) -0.18072(14)
N2B N 1.16787(19) -0.33324(14) -0.08647(14)
N3B N 0.7717(2) -0.36129(16) -0.28706(15)
N4B N 0.8816(2) -0.26096(15) -0.29271(14)
C1B C 1.2010(3) -0.2766(2) -0.18925(19)
C2B C 1.2427(3) -0.3301(2) -0.12977(19)
C3B C 1.3408(3) -0.3672(3) -0.1222(3)
H1B H 1.3677 -0.4030 -0.0829
C4B C 1.3964(4) -0.3490(4) -0.1751(4)
H2B H 1.4638 -0.3717 -0.1710
C5B C 1.3538(4) -0.2963(4) -0.2360(4)
H3B H 1.3929 -0.2864 -0.2720
C6B C 1.2570(3) -0.2596(3) -0.2433(3)
H4B H 1.2297 -0.2245 -0.2833
C7B C 1.0880(2) -0.28322(19) -0.11942(17)
H5B H 1.0276 -0.2746 -0.1006
C8B C 1.1718(3) -0.37979(19) -0.01717(17)
H6B H 1.2426 -0.3735 0.0181
H7B H 1.1188 -0.3591 0.0078
C9B C 1.1506(2) -0.46611(19) -0.03258(19)
H8B H 1.1573 -0.4942 0.0154
H9B H 1.2028 -0.4878 -0.0578
C10B C 1.0108(3) -0.5514(2) -0.1011(2)
C11B C 0.9108(3) -0.5590(2) -0.1557(2)
C12B C 0.8709(4) -0.6339(2) -0.1786(2)
H10B H 0.8047 -0.6395 -0.2145
C13B C 0.9299(4) -0.7003(3) -0.1478(3)
H11B H 0.9028 -0.7503 -0.1631
C14B C 1.0270(4) -0.6928(2) -0.0956(3)
H12B H 1.0664 -0.7377 -0.0761
C15B C 1.0680(3) -0.6181(2) -0.0710(3)
H13B H 1.1337 -0.6133 -0.0345
C16B C 0.7585(3) -0.4972(2) -0.2396(2)
H14B H 0.7719 -0.5179 -0.2866
H15B H 0.7101 -0.5331 -0.2227
C17B C 0.7088(3) -0.4168(2) -0.2536(2)
H16B H 0.7009 -0.3956 -0.2053
H17B H 0.6370 -0.4217 -0.2878
C18B C 0.7812(2) -0.3592(2) -0.36207(18)
C19B C 0.8499(2) -0.29615(18) -0.36522(17)
C20B C 0.8773(3) -0.2781(2) -0.43323(18)
H18B H 0.9239 -0.2366 -0.4358
C21B C 0.8330(3) -0.3237(2) -0.4964(2)
H19B H 0.8496 -0.3128 -0.5426
C22B C 0.7633(3) -0.3864(3) -0.4926(2)
H20B H 0.7345 -0.4160 -0.5365
C23B C 0.7365(3) -0.4053(2) -0.4259(2)
H21B H 0.6904 -0.4471 -0.4235
C24B C 0.8334(3) -0.3023(2) -0.24924(18)
H22B H 0.8413 -0.2918 -0.1974
Co1B_2 Co 0.99152(3) -0.17260(2) 0.74870(2)
O3B_2 O 1.06240(17) -0.14109(13) -0.33908(11)
O4B_2 O 0.90396(17) -0.08878(13) -0.34414(12)
N5 N 0.3426(4) 0.1965(3) 0.0591(3)
O7 O 0.2684(5) 0.3085(3) 0.0874(3)
C33 C 0.3062(8) 0.2444(5) 0.1080(4)
H27 H 0.3106 0.2275 0.1578
C34 C 0.3850(8) 0.1192(5) 0.0794(5)
H28 H 0.4599 0.1229 0.1064
H29 H 0.3781 0.0883 0.0336
H30 H 0.3455 0.0943 0.1117
C35 C 0.3328(8) 0.2208(5) -0.0192(4)
H31 H 0.2859 0.2658 -0.0307
H32 H 0.3030 0.1783 -0.0533
H33 H 0.4028 0.2344 -0.0255
N6 N 0.6470(4) 0.9893(3) 0.1990(3)
O8 O 0.6956(10) 0.9354(7) 0.1011(6)
C36 C 0.7236(8) 0.9802(7) 0.1557(6)
H34 H 0.7899 1.0061 0.1677
C37 C 0.6760(7) 1.0443(5) 0.2631(5)
H35 H 0.7478 1.0329 0.2932
H36 H 0.6261 1.0390 0.2945
H37 H 0.6733 1.0973 0.2438
C38 C 0.5528(6) 0.9460(5) 0.1886(5)
H38 H 0.4997 0.9661 0.1451
H39 H 0.5260 0.9502 0.2336
H40 H 0.5673 0.8916 0.1800
loop_
_geom_bond_atom_site_label_1
_geom_bond_atom_site_label_2
_geom_bond_site_symmetry_1
_geom_bond_site_symmetry_2
Co1 O3 1_555 1_555
O1 C9 1_555 1_555
O2 C11 1_555 1_555
O3 C25 1_555 1_555
O4 Co1 1_555 1_555
O5 Co1 1_555 1_555
O6 Co1 1_555 1_555
N1 Co1 1_555 1_555
N2 C2 1_555 1_555
N3 C17 1_555 1_555
N4 Co1 1_555 1_555
C1 N1 1_555 1_555
C2 C1 1_555 1_555
C3 C2 1_555 1_555
H1 C3 1_555 1_555
C4 C3 1_555 1_555
H2 C4 1_555 1_555
C5 C4 1_555 1_555
H3 C5 1_555 1_555
C6 C1 1_555 1_555
H4 C6 1_555 1_555
C7 N1 1_555 1_555
H5 C7 1_555 1_555
C8 N2 1_555 1_555
H6 C8 1_555 1_555
H7 C8 1_555 1_555
C9 C8 1_555 1_555
H8 C9 1_555 1_555
H9 C9 1_555 1_555
C10 O1 1_555 1_555
C11 C10 1_555 1_555
C12 C11 1_555 1_555
H10 C12 1_555 1_555
C13 C12 1_555 1_555
H11 C13 1_555 1_555
C14 C13 1_555 1_555
H12 C14 1_555 1_555
C15 C10 1_555 1_555
H13 C15 1_555 1_555
C16 O2 1_555 1_555
H14 C16 1_555 1_555
H15 C16 1_555 1_555
C17 C16 1_555 1_555
H16 C17 1_555 1_555
H17 C17 1_555 1_555
C18 N3 1_555 1_555
C19 N4 1_555 1_555
C20 C19 1_555 1_555
H18 C20 1_555 1_555
C21 C20 1_555 1_555
H19 C21 1_555 1_555
C22 C21 1_555 1_555
H20 C22 1_555 1_555
C23 C18 1_555 1_555
H21 C23 1_555 1_555
C24 N3 1_555 1_555
H22 C24 1_555 1_555
C25 O4 1_555 1_555
C26 C25 1_555 1_555
C27 C26 1_555 1_555
H23 C27 1_555 1_555
C28 C26 1_555 1_555
H24 C28 1_555 1_555
C29 O5 1_555 1_555
C30 C29 1_555 1_555
C31 C30 1_555 1_555
H25 C31 1_555 1_555
C32 C31 1_555 1_555
H26 C32 1_555 1_555
N5 C33 1_555 1_555
O7 C33 1_555 1_555
C33 H27 1_555 1_555
C34 N5 1_555 1_555
H28 C34 1_555 1_555
H29 C34 1_555 1_555
H30 C34 1_555 1_555
C35 N5 1_555 1_555
H31 C35 1_555 1_555
H32 C35 1_555 1_555
H33 C35 1_555 1_555
N6 C36 1_555 1_555
O8 C36 1_555 1_555
C36 H34 1_555 1_555
C37 N6 1_555 1_555
H35 C37 1_555 1_555
H36 C37 1_555 1_555
H37 C37 1_555 1_555
C38 N6 1_555 1_555
H38 C38 1_555 1_555
H39 C38 1_555 1_555
H40 C38 1_555 1_555
O3B C25B 1_555 1_555
O4B C25B 1_555 1_555
C25B C26B 1_555 1_555
C26B C27B 1_555 1_555
C27B C28 1_555 1_555
H23B C27B 1_555 1_555
C28B C27 1_555 1_555
H24B C28B 1_555 1_555
O5B C29B 1_555 1_555
O6B C29B 1_555 1_555
C29B C30B 1_555 1_555
C30B C32 1_555 1_555
C31B C30B 1_555 1_555
H25B C31B 1_555 1_555
C32B C30 1_555 1_555
H26B C32B 1_555 1_555
Co1B O5B 1_555 1_555
O1B C9B 1_555 1_555
O2B C11B 1_555 1_555
N1B Co1B 1_555 1_555
N2B C2B 1_555 1_555
N3B C17B 1_555 1_555
N4B Co1B 1_555 1_555
C1B N1B 1_555 1_555
C2B C1B 1_555 1_555
C3B C2B 1_555 1_555
H1B C3B 1_555 1_555
C4B C3B 1_555 1_555
H2B C4B 1_555 1_555
C5B C4B 1_555 1_555
H3B C5B 1_555 1_555
C6B C1B 1_555 1_555
H4B C6B 1_555 1_555
C7B N1B 1_555 1_555
H5B C7B 1_555 1_555
C8B N2B 1_555 1_555
H6B C8B 1_555 1_555
H7B C8B 1_555 1_555
C9B C8B 1_555 1_555
H8B C9B 1_555 1_555
H9B C9B 1_555 1_555
C10B O1B 1_555 1_555
C11B C10B 1_555 1_555
C12B C11B 1_555 1_555
H10B C12B 1_555 1_555
C13B C12B 1_555 1_555
H11B C13B 1_555 1_555
C14B C13B 1_555 1_555
H12B C14B 1_555 1_555
C15B C10B 1_555 1_555
H13B C15B 1_555 1_555
C16B O2B 1_555 1_555
H14B C16B 1_555 1_555
H15B C16B 1_555 1_555
C17B C16B 1_555 1_555
H16B C17B 1_555 1_555
H17B C17B 1_555 1_555
C18B N3B 1_555 1_555
C19B N4B 1_555 1_555
C20B C19B 1_555 1_555
H18B C20B 1_555 1_555
C21B C20B 1_555 1_555
H19B C21B 1_555 1_555
C22B C21B 1_555 1_555
H20B C22B 1_555 1_555
C23B C18B 1_555 1_555
H21B C23B 1_555 1_555
C24B N3B 1_555 1_555
H22B C24B 1_555 1_555
Co1B_2 O3B 1_555 1_555
O3B_2 Co1B 1_555 1_555
O4B_2 Co1B 1_555 1_555
O6 C29 1_555 1_555
N2 C7 1_555 1_555
N4 C24 1_555 1_555
C5 C6 1_555 1_555
C14 C15 1_555 1_555
C18 C19 1_555 1_555
C22 C23 1_555 1_555
O4B Co1B_2 1_555 1_555
C26B C28B 1_555 1_555
O6B Co1B 1_555 1_555
C31B C32B 1_555 1_555
N2B C7B 1_555 1_555
N4B C24B 1_555 1_555
C5B C6B 1_555 1_555
C14B C15B 1_555 1_555
C18B C19B 1_555 1_555
C22B C23B 1_555 1_555

#END
