
#######################################################################
#
#                 Cambridge Crystallographic Data Centre
#                                CCDC 
#
#######################################################################
#
# If this CIF has been generated from an entry in the Cambridge 
# Structural Database, then it will include bibliographic, chemical, 
# crystal, experimental, refinement or atomic coordinate data resulting 
# from the CCDC's data processing and validation procedures.
#
#######################################################################

data_KITWUH04
_symmetry_cell_setting           triclinic
_symmetry_space_group_name_H-M   'P -1'
_symmetry_Int_Tables_number      2
_space_group_name_Hall           '-P 1'
loop_
_symmetry_equiv_pos_site_id
_symmetry_equiv_pos_as_xyz
1 x,y,z
2 -x,-y,-z
_cell_length_a                   9.3935(12)
_cell_length_b                   15.778(2)
_cell_length_c                   20.977(3)
_cell_angle_alpha                86.724(2)
_cell_angle_beta                 77.803(2)
_cell_angle_gamma                73.100(2)
_cell_volume                     2907.57
loop_
_atom_site_label
_atom_site_type_symbol
_atom_site_fract_x
_atom_site_fract_y
_atom_site_fract_z
Cu1 Cu -1.0000 0.5000 0.0000
O1 O -1.0379(4) 0.4429(2) -0.07385(17)
C1 C -1.1673(7) 0.3950(4) -0.1399(3)
F1 F -1.2958(5) 0.4164(3) -0.1607(2)
F2 F -1.0564(6) 0.3888(3) -0.19062(19)
F3 F -1.1510(5) 0.3144(2) -0.11465(19)
C2 C -1.1643(7) 0.4596(4) -0.0891(3)
C3 C -1.2950(7) 0.5250(4) -0.0657(3)
H1 H -1.3834 0.5299 -0.0825
C4 C -1.3009(6) 0.5843(4) -0.0177(3)
C5 C -1.4483(7) 0.6563(4) 0.0030(4)
F4 F -1.5682(4) 0.6334(2) -0.0027(2)
F5 F -1.4496(5) 0.7271(3) -0.0343(3)
F6 F -1.4678(5) 0.6832(4) 0.0619(3)
O2 O -1.1992(4) 0.5867(2) 0.01029(18)
Cu2 Cu -0.5000 0.0000 0.0000
O3 O -0.4173(4) 0.0356(2) -0.08660(16)
C6 C -0.2711(7) 0.0943(4) -0.1721(3)
F7 F -0.3924(5) 0.1243(3) -0.19886(18)
F8 F -0.1952(5) 0.1510(3) -0.18469(18)
F9 F -0.1908(6) 0.0196(3) -0.20258(19)
C7 C -0.3179(6) 0.0763(4) -0.0997(3)
C8 C -0.2489(6) 0.1040(4) -0.0563(3)
H2 H -0.1718 0.1319 -0.0730
C9 C -0.2867(6) 0.0929(4) 0.0102(3)
C10 C -0.1970(7) 0.1243(5) 0.0518(3)
F10 F -0.0536(4) 0.0899(2) 0.0335(2)
F11 F -0.2163(5) 0.2123(3) 0.0435(3)
F12 F -0.2421(7) 0.1162(6) 0.1122(2)
O4 O -0.3856(4) 0.0593(2) 0.04099(16)
O5 O -1.1266(4) 0.4094(2) 0.05962(17)
N1 N -1.1058(5) 0.3728(3) 0.1145(2)
C11 C -1.2124(6) 0.4068(4) 0.1775(3)
C12 C -1.2526(7) 0.5073(4) 0.1798(3)
H3 H -1.3137 0.5326 0.1471
H4 H -1.1591 0.5256 0.1705
H5 H -1.3109 0.5285 0.2233
C13 C -1.3527(6) 0.3772(4) 0.1785(3)
H6 H -1.4085 0.4111 0.1464
H7 H -1.4181 0.3874 0.2221
H8 H -1.3222 0.3140 0.1677
C14 C -1.1159(6) 0.3573(4) 0.2265(3)
C15 C -1.2031(7) 0.3312(4) 0.2893(3)
H9 H -1.1322 0.3004 0.3170
H10 H -1.2599 0.2917 0.2800
H11 H -1.2742 0.3843 0.3119
C16 C -1.0029(7) 0.4031(5) 0.2388(3)
H12 H -0.9452 0.3687 0.2702
H13 H -1.0575 0.4626 0.2565
H14 H -0.9329 0.4077 0.1977
N2 N -1.0224(5) 0.2772(3) 0.1865(2)
O6 O -0.9484(5) 0.2068(3) 0.21111(19)
C17 C -1.0092(6) 0.2941(3) 0.1222(2)
C18 C -0.9068(6) 0.2395(3) 0.0703(2)
C19 C -0.7886(6) 0.1604(3) 0.0737(3)
H15 H -0.7648 0.1328 0.1131
N3 N -0.7170(5) 0.1305(3) 0.0154(2)
N4 N -0.7873(5) 0.1885(3) -0.0267(2)
C20 C -0.7360(7) 0.1793(4) -0.0972(3)
H16 H -0.7805 0.2362 -0.1178
H17 H -0.6241 0.1673 -0.1080
C21 C -0.7754(9) 0.1110(5) -0.1242(3)
H18 H -0.7283 0.0520 -0.1125
C22 C -0.8697(8) 0.1209(6) -0.1635(3)
H19 H -0.9198 0.1786 -0.1766
H20 H -0.8883 0.0705 -0.1789
C23 C -0.9005(6) 0.2536(3) 0.0049(2)
H21 H -0.9652 0.3013 -0.0144
O1A O -0.9621(4) 0.5571(2) 0.07385(17)
C1A C -0.8327(7) 0.6050(4) 0.1399(3)
F1A F -0.7042(5) 0.5836(3) 0.1607(2)
F2A F -0.9436(6) 0.6112(3) 0.19062(19)
F3A F -0.8490(5) 0.6856(2) 0.11465(19)
C2A C -0.8357(7) 0.5404(4) 0.0891(3)
C3A C -0.7050(7) 0.4750(4) 0.0657(3)
H1A H -0.6166 0.4701 0.0825
C4A C -0.6991(6) 0.4157(4) 0.0177(3)
C5A C -0.5517(7) 0.3437(4) -0.0030(4)
F4A F -0.4318(4) 0.3666(2) 0.0027(2)
F5A F -0.5504(5) 0.2729(3) 0.0343(3)
F6A F -0.5322(5) 0.3168(4) -0.0619(3)
O2A O -0.8008(4) 0.4133(2) -0.01029(18)
O5A O -0.8734(4) 0.5906(2) -0.05962(17)
N1A N -0.8942(5) 0.6272(3) -0.1145(2)
C11A C -0.7876(6) 0.5932(4) -0.1775(3)
C12A C -0.7474(7) 0.4927(4) -0.1798(3)
H3A H -0.6863 0.4674 -0.1471
H4A H -0.8409 0.4744 -0.1705
H5A H -0.6891 0.4715 -0.2233
C13A C -0.6473(6) 0.6228(4) -0.1785(3)
H6A H -0.5915 0.5889 -0.1464
H7A H -0.5819 0.6126 -0.2221
H8A H -0.6778 0.6860 -0.1677
C14A C -0.8841(6) 0.6427(4) -0.2265(3)
C15A C -0.7969(7) 0.6688(4) -0.2893(3)
H9A H -0.8678 0.6996 -0.3170
H10A H -0.7401 0.7083 -0.2800
H11A H -0.7258 0.6157 -0.3119
C16A C -0.9971(7) 0.5969(5) -0.2388(3)
H12A H -1.0548 0.6313 -0.2702
H13A H -0.9425 0.5374 -0.2565
H14A H -1.0671 0.5923 -0.1977
N2A N -0.9776(5) 0.7228(3) -0.1865(2)
O6A O -1.0516(5) 0.7932(3) -0.21111(19)
C17A C -0.9908(6) 0.7059(3) -0.1222(2)
C18A C -1.0932(6) 0.7605(3) -0.0703(2)
C19A C -1.2114(6) 0.8396(3) -0.0737(3)
H15A H -1.2352 0.8672 -0.1131
N3A N -1.2830(5) 0.8695(3) -0.0154(2)
N4A N -1.2127(5) 0.8115(3) 0.0267(2)
C20A C -1.2640(7) 0.8207(4) 0.0972(3)
H16A H -1.2195 0.7638 0.1178
H17A H -1.3759 0.8327 0.1080
C21A C -1.2246(9) 0.8890(5) 0.1242(3)
H18A H -1.2717 0.9480 0.1125
C22A C -1.1303(8) 0.8791(6) 0.1635(3)
H19A H -1.0802 0.8214 0.1766
H20A H -1.1117 0.9295 0.1789
C23A C -1.0995(6) 0.7464(3) -0.0049(2)
H21A H -1.0348 0.6987 0.0144
O3A O -0.5827(4) -0.0356(2) 0.08660(16)
C6A C -0.7289(7) -0.0943(4) 0.1721(3)
F7A F -0.6076(5) -0.1243(3) 0.19886(18)
F8A F -0.8048(5) -0.1510(3) 0.18469(18)
F9A F -0.8092(6) -0.0196(3) 0.20258(19)
C7A C -0.6821(6) -0.0763(4) 0.0997(3)
C8A C -0.7511(6) -0.1040(4) 0.0563(3)
H2A H -0.8282 -0.1319 0.0730
C9A C -0.7133(6) -0.0929(4) -0.0102(3)
C10A C -0.8030(7) -0.1243(5) -0.0518(3)
F10A F -0.9464(4) -0.0899(2) -0.0335(2)
F11A F -0.7837(5) -0.2123(3) -0.0435(3)
F12A F -0.7579(7) -0.1162(6) -0.1122(2)
O4A O -0.6144(4) -0.0593(2) -0.04099(16)
Cu2_2 Cu -1.5000 1.0000 0.0000
N3A_2 N -0.2830(5) -0.1305(3) -0.0154(2)
Cu3 Cu 0.5000 0.0000 0.5000
O7 O 0.3075(5) 0.0622(3) 0.58208(18)
C24 C 0.0566(7) 0.1118(4) 0.6365(3)
F13 F -0.0774(5) 0.0955(3) 0.6448(2)
F14 F 0.0906(6) 0.1124(3) 0.69363(19)
F15 F 0.0363(5) 0.1935(3) 0.61306(19)
C25 C 0.1833(7) 0.0467(4) 0.5907(3)
C26 C 0.1503(7) -0.0231(4) 0.5650(3)
H22 H 0.0494 -0.0277 0.5768
C27 C 0.2556(6) -0.0854(4) 0.5236(3)
C28 C 0.2071(7) -0.1637(4) 0.5060(4)
F16 F 0.0607(4) -0.1458(2) 0.50830(19)
F17 F 0.2397(6) -0.2292(3) 0.5480(3)
F18 F 0.2791(6) -0.1953(4) 0.4482(3)
O8 O 0.3912(4) -0.0902(2) 0.49970(19)
Cu4 Cu 0.5000 0.5000 0.5000
O9 O 0.2892(4) 0.5554(2) 0.54437(16)
C29 C 0.0269(6) 0.6022(4) 0.5594(3)
F19 F -0.0117(4) 0.6795(3) 0.5874(2)
F20 F 0.0223(4) 0.5428(3) 0.60729(19)
F21 F -0.0815(4) 0.5980(3) 0.52959(17)
C30 C 0.1814(6) 0.5808(3) 0.5155(3)
C31 C 0.1889(6) 0.5908(4) 0.4485(3)
H23 H 0.0970 0.6138 0.4332
C32 C 0.3225(6) 0.5689(3) 0.4042(3)
C33 C 0.3164(7) 0.5825(5) 0.3327(3)
F22 F 0.3673(7) 0.5072(3) 0.3018(2)
F23 F 0.1838(5) 0.6198(4) 0.3211(2)
F24 F 0.4067(8) 0.6260(5) 0.3035(3)
O10 O 0.4546(4) 0.5368(2) 0.41395(17)
O11 O 0.3531(4) 0.0803(2) 0.45140(16)
N5 N 0.3928(5) 0.1150(3) 0.3953(2)
C34 C 0.3796(6) 0.0793(4) 0.3325(2)
C35 C 0.4403(7) -0.0207(4) 0.3312(3)
H24 H 0.3735 -0.0457 0.3644
H25 H 0.5429 -0.0383 0.3404
H26 H 0.4436 -0.0428 0.2881
C36 C 0.2105(7) 0.1071(4) 0.3333(3)
H27 H 0.1606 0.0721 0.3658
H28 H 0.1941 0.0969 0.2901
H29 H 0.1676 0.1701 0.3445
C37 C 0.4708(6) 0.1295(4) 0.2837(3)
C38 C 0.4176(7) 0.1529(4) 0.2205(3)
H30 H 0.4827 0.1845 0.1925
H31 H 0.3124 0.1908 0.2293
H32 H 0.4231 0.0986 0.1984
C39 C 0.6419(6) 0.0860(4) 0.2712(3)
H33 H 0.6933 0.1212 0.2395
H34 H 0.6647 0.0261 0.2538
H35 H 0.6776 0.0828 0.3121
N6 N 0.4454(5) 0.2103(3) 0.3222(2)
O12 O 0.4657(5) 0.2817(3) 0.29717(18)
C40 C 0.4138(6) 0.1950(3) 0.3875(2)
C41 C 0.4031(6) 0.2555(3) 0.4368(2)
C42 C 0.4439(6) 0.3342(3) 0.4301(2)
H36 H 0.4845 0.3568 0.3896
N7 N 0.4193(5) 0.3732(3) 0.4869(2)
N8 N 0.3611(5) 0.3193(3) 0.5311(2)
C43 C 0.3096(8) 0.3448(4) 0.5998(3)
H37 H 0.3392 0.3985 0.6063
H38 H 0.1973 0.3606 0.6106
C44 C 0.3682(11) 0.2782(6) 0.6442(4)
H39 H 0.4742 0.2490 0.6351
C45 C 0.2845(14) 0.2548(6) 0.6972(4)
H40 H 0.1782 0.2828 0.7077
H41 H 0.3306 0.2100 0.7247
C46 C 0.3504(6) 0.2483(3) 0.5033(2)
H42 H 0.3139 0.2018 0.5247
O7A O 0.6925(5) -0.0622(3) 0.41792(18)
C24A C 0.9434(7) -0.1118(4) 0.3635(3)
F13A F 1.0774(5) -0.0955(3) 0.3552(2)
F14A F 0.9094(6) -0.1124(3) 0.30637(19)
F15A F 0.9637(5) -0.1935(3) 0.38694(19)
C25A C 0.8167(7) -0.0467(4) 0.4093(3)
C26A C 0.8497(7) 0.0231(4) 0.4350(3)
H22A H 0.9506 0.0277 0.4232
C27A C 0.7444(6) 0.0854(4) 0.4764(3)
C28A C 0.7929(7) 0.1637(4) 0.4940(4)
F16A F 0.9393(4) 0.1458(2) 0.49170(19)
F17A F 0.7603(6) 0.2292(3) 0.4520(3)
F18A F 0.7209(6) 0.1953(4) 0.5518(3)
O8A O 0.6088(4) 0.0902(2) 0.50030(19)
O11A O 0.6469(4) -0.0803(2) 0.54860(16)
N5A N 0.6072(5) -0.1150(3) 0.6047(2)
C34A C 0.6204(6) -0.0793(4) 0.6675(2)
C35A C 0.5597(7) 0.0207(4) 0.6688(3)
H24A H 0.6265 0.0457 0.6356
H25A H 0.4571 0.0383 0.6596
H26A H 0.5564 0.0428 0.7119
C36A C 0.7895(7) -0.1071(4) 0.6667(3)
H27A H 0.8394 -0.0721 0.6342
H28A H 0.8059 -0.0969 0.7099
H29A H 0.8324 -0.1701 0.6555
C37A C 0.5292(6) -0.1295(4) 0.7163(3)
C38A C 0.5824(7) -0.1529(4) 0.7795(3)
H30A H 0.5173 -0.1845 0.8075
H31A H 0.6876 -0.1908 0.7707
H32A H 0.5769 -0.0986 0.8016
C39A C 0.3581(6) -0.0860(4) 0.7288(3)
H33A H 0.3067 -0.1212 0.7605
H34A H 0.3353 -0.0261 0.7462
H35A H 0.3224 -0.0828 0.6879
N6A N 0.5546(5) -0.2103(3) 0.6778(2)
O12A O 0.5343(5) -0.2817(3) 0.70283(18)
C40A C 0.5862(6) -0.1950(3) 0.6125(2)
C41A C 0.5969(6) -0.2555(3) 0.5632(2)
C42A C 0.5561(6) -0.3342(3) 0.5699(2)
H36A H 0.5155 -0.3568 0.6104
N7A N 0.5807(5) -0.3732(3) 0.5131(2)
N8A N 0.6389(5) -0.3193(3) 0.4689(2)
C43A C 0.6904(8) -0.3448(4) 0.4002(3)
H37A H 0.6608 -0.3985 0.3937
H38A H 0.8027 -0.3606 0.3894
C44A C 0.6318(11) -0.2782(6) 0.3558(4)
H39A H 0.5258 -0.2490 0.3649
C45A C 0.7155(14) -0.2548(6) 0.3028(4)
H40A H 0.8218 -0.2828 0.2923
H41A H 0.6694 -0.2100 0.2753
C46A C 0.6496(6) -0.2483(3) 0.4967(2)
H42A H 0.6861 -0.2018 0.4753
O9A O 0.7108(4) 0.4446(2) 0.45563(16)
C29A C 0.9731(6) 0.3978(4) 0.4406(3)
F19A F 1.0117(4) 0.3205(3) 0.4126(2)
F20A F 0.9777(4) 0.4572(3) 0.39271(19)
F21A F 1.0815(4) 0.4020(3) 0.47041(17)
C30A C 0.8186(6) 0.4192(3) 0.4845(3)
C31A C 0.8111(6) 0.4092(4) 0.5515(3)
H23A H 0.9030 0.3862 0.5668
C32A C 0.6775(6) 0.4311(3) 0.5958(3)
C33A C 0.6836(7) 0.4175(5) 0.6673(3)
F22A F 0.6327(7) 0.4928(3) 0.6982(2)
F23A F 0.8162(5) 0.3802(4) 0.6789(2)
F24A F 0.5933(8) 0.3740(5) 0.6965(3)
O10A O 0.5454(4) 0.4632(2) 0.58605(17)
Cu4_2 Cu 0.5000 -0.5000 0.5000
N7A_2 N 0.5807(5) 0.6268(3) 0.5131(2)
loop_
_geom_bond_atom_site_label_1
_geom_bond_atom_site_label_2
_geom_bond_site_symmetry_1
_geom_bond_site_symmetry_2
Cu1 O1 1_555 1_555
O1 C2 1_555 1_555
C1 F1 1_555 1_555
F2 C1 1_555 1_555
F3 C1 1_555 1_555
C2 C1 1_555 1_555
C3 C2 1_555 1_555
H1 C3 1_555 1_555
C4 C3 1_555 1_555
C5 C4 1_555 1_555
F4 C5 1_555 1_555
F5 C5 1_555 1_555
F6 C5 1_555 1_555
O2 Cu1 1_555 1_555
Cu2 O3 1_555 1_555
O3 C7 1_555 1_555
C6 F7 1_555 1_555
F8 C6 1_555 1_555
F9 C6 1_555 1_555
C7 C6 1_555 1_555
C8 C7 1_555 1_555
H2 C8 1_555 1_555
C9 C8 1_555 1_555
C10 C9 1_555 1_555
F10 C10 1_555 1_555
F11 C10 1_555 1_555
F12 C10 1_555 1_555
O4 Cu2 1_555 1_555
O5 Cu1 1_555 1_555
N1 O5 1_555 1_555
C11 N1 1_555 1_555
C12 C11 1_555 1_555
H3 C12 1_555 1_555
H4 C12 1_555 1_555
H5 C12 1_555 1_555
C13 C11 1_555 1_555
H6 C13 1_555 1_555
H7 C13 1_555 1_555
H8 C13 1_555 1_555
C14 C11 1_555 1_555
C15 C14 1_555 1_555
H9 C15 1_555 1_555
H10 C15 1_555 1_555
H11 C15 1_555 1_555
C16 C14 1_555 1_555
H12 C16 1_555 1_555
H13 C16 1_555 1_555
H14 C16 1_555 1_555
N2 C14 1_555 1_555
O6 N2 1_555 1_555
C17 N1 1_555 1_555
C18 C17 1_555 1_555
C19 C18 1_555 1_555
H15 C19 1_555 1_555
N3 Cu2 1_555 1_555
N4 N3 1_555 1_555
C20 N4 1_555 1_555
H16 C20 1_555 1_555
H17 C20 1_555 1_555
C21 C20 1_555 1_555
H18 C21 1_555 1_555
C22 C21 1_555 1_555
H19 C22 1_555 1_555
H20 C22 1_555 1_555
C23 C18 1_555 1_555
H21 C23 1_555 1_555
Cu3 O7 1_555 1_555
O7 C25 1_555 1_555
C24 F13 1_555 1_555
F14 C24 1_555 1_555
F15 C24 1_555 1_555
C25 C24 1_555 1_555
C26 C25 1_555 1_555
H22 C26 1_555 1_555
C27 C26 1_555 1_555
C28 C27 1_555 1_555
F16 C28 1_555 1_555
F17 C28 1_555 1_555
F18 C28 1_555 1_555
O8 Cu3 1_555 1_555
Cu4 O9 1_555 1_555
O9 C30 1_555 1_555
C29 F19 1_555 1_555
F20 C29 1_555 1_555
F21 C29 1_555 1_555
C30 C29 1_555 1_555
C31 C30 1_555 1_555
H23 C31 1_555 1_555
C32 C31 1_555 1_555
C33 C32 1_555 1_555
F22 C33 1_555 1_555
F23 C33 1_555 1_555
F24 C33 1_555 1_555
O10 Cu4 1_555 1_555
O11 Cu3 1_555 1_555
N5 O11 1_555 1_555
C34 N5 1_555 1_555
C35 C34 1_555 1_555
H24 C35 1_555 1_555
H25 C35 1_555 1_555
H26 C35 1_555 1_555
C36 C34 1_555 1_555
H27 C36 1_555 1_555
H28 C36 1_555 1_555
H29 C36 1_555 1_555
C37 C34 1_555 1_555
C38 C37 1_555 1_555
H30 C38 1_555 1_555
H31 C38 1_555 1_555
H32 C38 1_555 1_555
C39 C37 1_555 1_555
H33 C39 1_555 1_555
H34 C39 1_555 1_555
H35 C39 1_555 1_555
N6 C37 1_555 1_555
O12 N6 1_555 1_555
C40 N5 1_555 1_555
C41 C40 1_555 1_555
C42 C41 1_555 1_555
H36 C42 1_555 1_555
N7 Cu4 1_555 1_555
N8 N7 1_555 1_555
C43 N8 1_555 1_555
H37 C43 1_555 1_555
H38 C43 1_555 1_555
C44 C43 1_555 1_555
H39 C44 1_555 1_555
C45 C44 1_555 1_555
H40 C45 1_555 1_555
H41 C45 1_555 1_555
C46 C41 1_555 1_555
H42 C46 1_555 1_555
O1A Cu1 1_555 1_555
C1A F1A 1_555 1_555
F2A C1A 1_555 1_555
F3A C1A 1_555 1_555
C2A O1A 1_555 1_555
C3A C2A 1_555 1_555
H1A C3A 1_555 1_555
C4A C3A 1_555 1_555
C5A C4A 1_555 1_555
F4A C5A 1_555 1_555
F5A C5A 1_555 1_555
F6A C5A 1_555 1_555
O2A Cu1 1_555 1_555
O5A Cu1 1_555 1_555
N1A O5A 1_555 1_555
C11A N1A 1_555 1_555
C12A C11A 1_555 1_555
H3A C12A 1_555 1_555
H4A C12A 1_555 1_555
H5A C12A 1_555 1_555
C13A C11A 1_555 1_555
H6A C13A 1_555 1_555
H7A C13A 1_555 1_555
H8A C13A 1_555 1_555
C14A C11A 1_555 1_555
C15A C14A 1_555 1_555
H9A C15A 1_555 1_555
H10A C15A 1_555 1_555
H11A C15A 1_555 1_555
C16A C14A 1_555 1_555
H12A C16A 1_555 1_555
H13A C16A 1_555 1_555
H14A C16A 1_555 1_555
N2A C14A 1_555 1_555
O6A N2A 1_555 1_555
C17A N1A 1_555 1_555
C18A C17A 1_555 1_555
C19A C18A 1_555 1_555
H15A C19A 1_555 1_555
N3A C19A 1_555 1_555
N4A N3A 1_555 1_555
C20A N4A 1_555 1_555
H16A C20A 1_555 1_555
H17A C20A 1_555 1_555
C21A C20A 1_555 1_555
H18A C21A 1_555 1_555
C22A C21A 1_555 1_555
H19A C22A 1_555 1_555
H20A C22A 1_555 1_555
C23A C18A 1_555 1_555
H21A C23A 1_555 1_555
O3A Cu2 1_555 1_555
C6A F7A 1_555 1_555
F8A C6A 1_555 1_555
F9A C6A 1_555 1_555
C7A O3A 1_555 1_555
C8A C7A 1_555 1_555
H2A C8A 1_555 1_555
C9A C8A 1_555 1_555
C10A C9A 1_555 1_555
F10A C10A 1_555 1_555
F11A C10A 1_555 1_555
F12A C10A 1_555 1_555
O4A Cu2 1_555 1_555
Cu2_2 N3A 1_555 1_555
N3A_2 Cu2 1_555 1_555
O7A Cu3 1_555 1_555
C24A F13A 1_555 1_555
F14A C24A 1_555 1_555
F15A C24A 1_555 1_555
C25A O7A 1_555 1_555
C26A C25A 1_555 1_555
H22A C26A 1_555 1_555
C27A C26A 1_555 1_555
C28A C27A 1_555 1_555
F16A C28A 1_555 1_555
F17A C28A 1_555 1_555
F18A C28A 1_555 1_555
O8A Cu3 1_555 1_555
O11A Cu3 1_555 1_555
N5A O11A 1_555 1_555
C34A N5A 1_555 1_555
C35A C34A 1_555 1_555
H24A C35A 1_555 1_555
H25A C35A 1_555 1_555
H26A C35A 1_555 1_555
C36A C34A 1_555 1_555
H27A C36A 1_555 1_555
H28A C36A 1_555 1_555
H29A C36A 1_555 1_555
C37A C34A 1_555 1_555
C38A C37A 1_555 1_555
H30A C38A 1_555 1_555
H31A C38A 1_555 1_555
H32A C38A 1_555 1_555
C39A C37A 1_555 1_555
H33A C39A 1_555 1_555
H34A C39A 1_555 1_555
H35A C39A 1_555 1_555
N6A C37A 1_555 1_555
O12A N6A 1_555 1_555
C40A N5A 1_555 1_555
C41A C40A 1_555 1_555
C42A C41A 1_555 1_555
H36A C42A 1_555 1_555
N7A C42A 1_555 1_555
N8A N7A 1_555 1_555
C43A N8A 1_555 1_555
H37A C43A 1_555 1_555
H38A C43A 1_555 1_555
C44A C43A 1_555 1_555
H39A C44A 1_555 1_555
C45A C44A 1_555 1_555
H40A C45A 1_555 1_555
H41A C45A 1_555 1_555
C46A C41A 1_555 1_555
H42A C46A 1_555 1_555
O9A Cu4 1_555 1_555
C29A F19A 1_555 1_555
F20A C29A 1_555 1_555
F21A C29A 1_555 1_555
C30A O9A 1_555 1_555
C31A C30A 1_555 1_555
H23A C31A 1_555 1_555
C32A C31A 1_555 1_555
C33A C32A 1_555 1_555
F22A C33A 1_555 1_555
F23A C33A 1_555 1_555
F24A C33A 1_555 1_555
O10A Cu4 1_555 1_555
Cu4_2 N7A 1_555 1_555
N7A_2 Cu4 1_555 1_555
C4 O2 1_555 1_555
C9 O4 1_555 1_555
N2 C17 1_555 1_555
C19 N3 1_555 1_555
N4 C23 1_555 1_555
C27 O8 1_555 1_555
C32 O10 1_555 1_555
N6 C40 1_555 1_555
C42 N7 1_555 1_555
N8 C46 1_555 1_555
C1A C2A 1_555 1_555
C4A O2A 1_555 1_555
N2A C17A 1_555 1_555
N4A C23A 1_555 1_555
C6A C7A 1_555 1_555
C9A O4A 1_555 1_555
C24A C25A 1_555 1_555
C27A O8A 1_555 1_555
N6A C40A 1_555 1_555
N8A C46A 1_555 1_555
C29A C30A 1_555 1_555
C32A O10A 1_555 1_555

#END
