
#######################################################################
#
#                 Cambridge Crystallographic Data Centre
#                                CCDC 
#
#######################################################################
#
# If this CIF has been generated from an entry in the Cambridge 
# Structural Database, then it will include bibliographic, chemical, 
# crystal, experimental, refinement or atomic coordinate data resulting 
# from the CCDC's data processing and validation procedures.
#
#######################################################################

data_KITYOD
_symmetry_cell_setting           triclinic
_symmetry_space_group_name_H-M   'P -1'
_symmetry_Int_Tables_number      2
_space_group_name_Hall           '-P 1'
loop_
_symmetry_equiv_pos_site_id
_symmetry_equiv_pos_as_xyz
1 x,y,z
2 -x,-y,-z
_cell_length_a                   12.743(4)
_cell_length_b                   21.485(7)
_cell_length_c                   27.099(10)
_cell_angle_alpha                108.335(8)
_cell_angle_beta                 99.510(6)
_cell_angle_gamma                91.605(6)
_cell_volume                     6920.42
loop_
_atom_site_label
_atom_site_type_symbol
_atom_site_fract_x
_atom_site_fract_y
_atom_site_fract_z
Cu1 Cu 0.52783(8) 0.25307(5) 0.75581(4)
O1 O 0.3855(4) 0.2599(3) 0.7733(2)
C1 C 0.2035(7) 0.2454(5) 0.7676(3)
F1 F 0.1121(4) 0.2164(3) 0.7346(2)
F2 F 0.1934(4) 0.3116(3) 0.7783(2)
F3 F 0.2053(4) 0.2341(3) 0.8126(2)
C2 C 0.3033(7) 0.2260(4) 0.7450(3)
C3 C 0.2947(7) 0.1749(4) 0.6977(4)
H1 H 0.2260 0.1540 0.6799
C4 C 0.3826(7) 0.1532(5) 0.6755(4)
C5 C 0.3672(7) 0.0944(5) 0.6254(3)
F4 F 0.4109(5) 0.0420(3) 0.6344(2)
F5 F 0.2666(4) 0.0754(3) 0.6021(2)
F6 F 0.4175(4) 0.1078(3) 0.5894(2)
O2 O 0.4796(4) 0.1750(3) 0.6941(2)
O3 O 0.5771(5) 0.3325(3) 0.8174(2)
C6 C 0.6888(7) 0.4148(5) 0.8843(4)
F7 F 0.7901(4) 0.4322(3) 0.9075(2)
F8 F 0.6386(4) 0.4039(3) 0.9207(2)
F9 F 0.6487(5) 0.4671(3) 0.8742(2)
C7 C 0.6721(7) 0.3555(4) 0.8342(3)
C8 C 0.7611(7) 0.3329(4) 0.8121(4)
H2 H 0.8304 0.3526 0.8301
C9 C 0.7499(7) 0.2830(4) 0.7650(4)
C10 C 0.8509(7) 0.2625(5) 0.7404(4)
F10 F 0.9423(4) 0.2924(3) 0.7741(2)
F11 F 0.8597(4) 0.1984(3) 0.7252(2)
F12 F 0.8467(4) 0.2821(3) 0.6977(2)
O4 O 0.6699(5) 0.2468(3) 0.7372(2)
O5 O 0.5880(5) 0.1970(3) 0.8148(2)
N1 N 0.5456(6) 0.1436(3) 0.8188(3)
C11 C 0.5925(7) 0.0791(4) 0.7977(4)
C12 C 0.6979(7) 0.0831(5) 0.8340(4)
H3 H 0.7495 0.1139 0.8286
H4 H 0.7248 0.0394 0.8262
H5 H 0.6877 0.0986 0.8709
C13 C 0.6113(8) 0.0682(5) 0.7426(4)
H6 H 0.6673 0.1008 0.7431
H7 H 0.5452 0.0729 0.7203
H8 H 0.6338 0.0239 0.7282
C14 C 0.5059(7) 0.0312(4) 0.8038(4)
C15 C 0.4171(8) 0.0052(5) 0.7549(4)
H9 H 0.3651 -0.0246 0.7611
H10 H 0.4482 -0.0186 0.7242
H11 H 0.3814 0.0423 0.7480
C16 C 0.5447(8) -0.0260(4) 0.8213(4)
H12 H 0.4833 -0.0527 0.8237
H13 H 0.5916 -0.0090 0.8560
H14 H 0.5843 -0.0531 0.7955
N2 N 0.4535(6) 0.0769(4) 0.8455(3)
O6 O 0.3885(5) 0.0560(3) 0.8690(2)
C17 C 0.4758(7) 0.1408(4) 0.8501(3)
C18 C 0.4313(7) 0.1958(4) 0.8829(3)
C19 C 0.3565(7) 0.1959(5) 0.9156(3)
H15 H 0.3231 0.1571 0.9180
N3 N 0.3380(6) 0.2561(4) 0.9425(3)
N4 N 0.4045(6) 0.2959(3) 0.9285(3)
C20 C 0.4007(7) 0.3683(4) 0.9485(4)
H16 H 0.4744 0.3897 0.9598
H17 H 0.3654 0.3801 0.9797
C21 C 0.3401(8) 0.3937(5) 0.9063(4)
H18 H 0.2641 0.3766 0.8981
H19 H 0.3699 0.3775 0.8736
C22 C 0.3482(8) 0.4699(5) 0.9254(5)
H20 H 0.4225 0.4870 0.9280
H21 H 0.3293 0.4864 0.9610
C23 C 0.2716(9) 0.4949(5) 0.8863(5)
H22 H 0.2777 0.5431 0.8987
H23 H 0.1980 0.4785 0.8843
H24 H 0.2909 0.4789 0.8512
C24 C 0.4595(7) 0.2621(4) 0.8928(3)
H25 H 0.5088 0.2799 0.8771
Cu2 Cu 0.79826(8) 0.23801(5) 0.50666(4)
O7 O 0.8816(5) 0.1532(3) 0.5215(2)
C25 C 0.9929(8) 0.0982(5) 0.5685(4)
F13 F 1.0644(4) 0.0798(3) 0.5375(2)
F14 F 1.0384(5) 0.1050(3) 0.6173(2)
F15 F 0.9163(4) 0.0486(3) 0.5526(2)
C26 C 0.9467(7) 0.1624(4) 0.5627(3)
C27 C 0.9886(7) 0.2213(5) 0.6018(4)
H26 H 1.0349 0.2192 0.6324
C28 C 0.9664(7) 0.2833(4) 0.5985(3)
C29 C 1.0224(7) 0.3442(5) 0.6431(4)
F16 F 1.0804(5) 0.3309(3) 0.6834(2)
F17 F 0.9525(4) 0.3857(3) 0.6613(2)
F18 F 1.0897(4) 0.3775(3) 0.6241(2)
O8 O 0.9100(4) 0.2983(3) 0.5619(2)
O9 O 0.7186(5) 0.3254(3) 0.4849(2)
C30 C 0.5189(8) 0.1365(5) 0.4024(4)
F19 F 0.5637(5) 0.0892(3) 0.3694(2)
F20 F 0.4894(5) 0.1094(3) 0.4361(3)
F21 F 0.4326(6) 0.1487(3) 0.3740(3)
C31 C 0.5975(7) 0.1964(5) 0.4308(4)
C32 C 0.5717(7) 0.2560(5) 0.4261(4)
H27 H 0.5052 0.2579 0.4050
C33 C 0.6383(7) 0.3146(5) 0.4508(4)
C34 C 0.6078(7) 0.3741(5) 0.4324(4)
F22 F 0.6046(5) 0.4277(3) 0.4734(2)
F23 F 0.5164(5) 0.3645(3) 0.4001(3)
F24 F 0.6832(5) 0.3879(3) 0.4082(3)
O10 O 0.6815(4) 0.1803(3) 0.4556(2)
O11 O 0.4664(4) 0.3072(3) 0.6945(2)
N5 N 0.5049(6) 0.3617(3) 0.6906(3)
C35 C 0.4557(7) 0.4258(4) 0.7108(3)
C36 C 0.4348(7) 0.4360(4) 0.7663(4)
H28 H 0.3795 0.4027 0.7651
H29 H 0.4107 0.4799 0.7805
H30 H 0.5007 0.4320 0.7891
C37 C 0.3488(7) 0.4185(5) 0.6737(3)
H31 H 0.2994 0.3869 0.6796
H32 H 0.3595 0.4027 0.6370
H33 H 0.3188 0.4613 0.6808
C38 C 0.5409(7) 0.4743(4) 0.7049(4)
C39 C 0.6307(7) 0.5007(5) 0.7538(4)
H34 H 0.6816 0.5311 0.7476
H35 H 0.6676 0.4638 0.7603
H36 H 0.5998 0.5238 0.7847
C40 C 0.4991(8) 0.5304(5) 0.6872(4)
H37 H 0.5593 0.5584 0.6852
H38 H 0.4578 0.5565 0.7127
H39 H 0.4532 0.5127 0.6523
O12 O 0.6567(5) 0.4504(3) 0.6387(2)
N6 N 0.5923(6) 0.4289(4) 0.6631(3)
C41 C 0.5730(7) 0.3649(4) 0.6587(4)
C42 C 0.6177(6) 0.3103(4) 0.6258(3)
C43 C 0.6918(7) 0.3127(4) 0.5932(3)
H40 H 0.7249 0.3522 0.5919
N7 N 0.7097(5) 0.2520(4) 0.5641(3)
N8 N 0.6469(5) 0.2101(4) 0.5786(3)
C44 C 0.6457(7) 0.1381(4) 0.5567(4)
H41 H 0.6870 0.1269 0.5276
H42 H 0.5712 0.1192 0.5416
C45 C 0.6923(7) 0.1072(4) 0.5975(4)
H43 H 0.6552 0.1215 0.6281
H44 H 0.7687 0.1230 0.6103
C46 C 0.6818(7) 0.0321(4) 0.5755(4)
H45 H 0.6052 0.0162 0.5660
H46 H 0.7125 0.0181 0.5428
C47 C 0.7377(9) 0.0007(5) 0.6144(4)
H47 H 0.7283 -0.0473 0.5985
H48 H 0.7069 0.0137 0.6467
H49 H 0.8141 0.0153 0.6233
C48 C 0.5929(6) 0.2444(4) 0.6154(4)
H50 H 0.5451 0.2259 0.6315
Cu3 Cu -0.00899(8) 0.24821(5) 1.25495(4)
O13 O -0.1539(5) 0.2269(3) 1.2909(2)
C49 C -0.3404(9) 0.2145(5) 1.2871(5)
F25 F -0.3856(5) 0.1732(3) 1.2397(3)
F26 F -0.4140(4) 0.2549(3) 1.3043(2)
F27 F -0.3189(5) 0.1787(4) 1.3181(3)
C50 C -0.2387(7) 0.2507(4) 1.2814(3)
C51 C -0.2545(7) 0.3060(5) 1.2643(4)
H51 H -0.3245 0.3199 1.2599
C52 C -0.1713(7) 0.3414(4) 1.2536(3)
C53 C -0.1989(7) 0.3983(5) 1.2346(4)
F28 F -0.1313(4) 0.4513(3) 1.2608(2)
F29 F -0.1929(4) 0.3834(3) 1.1830(2)
F30 F -0.2976(4) 0.4170(3) 1.2382(2)
O14 O -0.0745(4) 0.3287(3) 1.2557(2)
O15 O 0.1355(4) 0.2685(3) 1.2186(2)
C54 C 0.3167(7) 0.2724(5) 1.2111(4)
F31 F 0.1169(4) 0.0511(3) 1.2642(2)
F32 F 0.1873(4) 0.1281(3) 1.3366(2)
F33 F 0.2837(4) 0.0845(3) 1.2783(2)
C55 C 0.2220(6) 0.2424(4) 1.2259(3)
C56 C 0.2345(7) 0.1890(5) 1.2444(4)
H52 H 0.3030 0.1725 1.2467
C57 C 0.1568(7) 0.1587(4) 1.2593(3)
C58 C 0.1872(7) 0.1048(5) 1.2840(4)
F34 F 0.3845(5) 0.2290(3) 1.1937(3)
F35 F 0.3752(5) 0.3161(4) 1.2548(3)
F36 F 0.2901(5) 0.3045(4) 1.1779(3)
O16 O 0.0575(4) 0.1672(3) 1.2565(2)
O17 O 0.0918(4) 0.2864(3) 1.3233(2)
N9 N 0.0847(5) 0.3423(3) 1.3596(3)
C59 C 0.1511(7) 0.4055(4) 1.3662(3)
C60 C 0.2663(7) 0.3951(5) 1.3859(4)
H53 H 0.2936 0.3633 1.3572
H54 H 0.2690 0.3782 1.4157
H55 H 0.3102 0.4370 1.3974
C61 C 0.1410(7) 0.4179(5) 1.3128(4)
H56 H 0.0667 0.4245 1.3006
H57 H 0.1630 0.3798 1.2867
H58 H 0.1870 0.4572 1.3169
C62 C 0.0985(7) 0.4545(4) 1.4074(3)
C63 C 0.1741(8) 0.5117(4) 1.4456(4)
H59 H 0.2387 0.4948 1.4599
H60 H 0.1388 0.5357 1.4746
H61 H 0.1933 0.5414 1.4269
C64 C -0.0037(8) 0.4797(5) 1.3841(4)
H62 H -0.0324 0.5106 1.4128
H63 H -0.0569 0.4425 1.3651
H64 H 0.0131 0.5021 1.3596
N10 N 0.0605(5) 0.4105(3) 1.4353(3)
O18 O 0.0348(5) 0.4319(3) 1.4803(2)
C65 C 0.0443(7) 0.3456(5) 1.4019(4)
C66 C -0.0094(6) 0.2947(4) 1.4143(3)
C67 C -0.0659(6) 0.3017(4) 1.4553(3)
H65 H -0.0725 0.3424 1.4813
N11 N -0.1093(6) 0.2434(4) 1.4529(3)
N12 N -0.0799(5) 0.1981(3) 1.4106(3)
C68 C -0.1185(7) 0.1293(4) 1.3971(4)
H66 H -0.1975 0.1259 1.3918
H67 H -0.0917 0.1137 1.4272
C69 C -0.0850(8) 0.0854(5) 1.3484(4)
H68 H -0.0061 0.0868 1.3541
H69 H -0.1093 0.1017 1.3184
C70 C -0.1311(7) 0.0150(4) 1.3347(4)
H70 H -0.2100 0.0140 1.3281
H71 H -0.1093 0.0000 1.3656
C71 C -0.0966(9) -0.0335(5) 1.2864(4)
H72 H -0.1296 -0.0777 1.2802
H73 H -0.0187 -0.0339 1.2929
H74 H -0.1194 -0.0198 1.2553
C72 C -0.0196(7) 0.2277(4) 1.3870(4)
H75 H 0.0109 0.2065 1.3570
Cu4 Cu 0.22679(8) 0.26469(5) 1.00752(4)
O19 O 0.3406(4) 0.3252(3) 1.0611(2)
C73 C 0.5034(9) 0.3585(6) 1.1168(5)
F37 F 0.5060(7) 0.3664(5) 1.1697(4)
F38 F 0.6016(5) 0.3460(3) 1.1152(3)
F39 F 0.4859(6) 0.4163(4) 1.1201(5)
C74 C 0.4218(7) 0.3037(5) 1.0818(4)
C75 C 0.4447(7) 0.2405(5) 1.0788(4)
H76 H 0.5111 0.2337 1.0974
C76 C 0.3728(7) 0.1859(5) 1.0491(4)
C77 C 0.3930(8) 0.1176(5) 1.0535(4)
F40 F 0.4853(5) 0.1176(3) 1.0847(2)
F41 F 0.3923(4) 0.0744(3) 1.0070(2)
F42 F 0.3162(5) 0.0970(3) 1.0745(2)
O20 O 0.2857(4) 0.1860(3) 1.0190(2)
O21 O 0.1258(4) 0.2051(3) 0.9467(2)
C78 C 0.0219(7) 0.1673(5) 0.8625(4)
F43 F 0.0923(4) 0.1271(3) 0.8424(2)
F44 F -0.0499(4) 0.1320(3) 0.8765(2)
F45 F -0.0306(5) 0.1865(3) 0.8242(2)
C79 C 0.0751(7) 0.2246(4) 0.9110(3)
C80 C 0.0605(7) 0.2884(5) 0.9115(4)
H77 H 0.0213 0.2955 0.8811
C81 C 0.1024(7) 0.3428(4) 0.9559(4)
C82 C 0.0661(7) 0.4103(4) 0.9583(4)
F46 F -0.0090(4) 0.4248(3) 0.9890(2)
F47 F 0.1450(4) 0.4580(2) 0.9796(2)
F48 F 0.0223(5) 0.4142(3) 0.9110(2)
O22 O 0.1660(5) 0.3430(3) 0.9974(2)
O23 O -0.1069(5) 0.2082(3) 1.1855(2)
N13 N -0.0904(5) 0.1521(3) 1.1505(3)
C83 C -0.1530(7) 0.0896(4) 1.1436(3)
C84 C -0.1573(7) 0.0780(4) 1.1957(3)
H78 H -0.2002 0.1103 1.2160
H79 H -0.0848 0.0828 1.2161
H80 H -0.1899 0.0335 1.1888
C85 C -0.2637(7) 0.0929(5) 1.1144(4)
H81 H -0.3019 0.1245 1.1382
H82 H -0.3029 0.0493 1.1024
H83 H -0.2579 0.1069 1.0838
C86 C -0.0848(7) 0.0398(4) 1.1081(3)
C87 C 0.0118(7) 0.0197(5) 1.1396(4)
H84 H 0.0497 -0.0113 1.1152
H85 H -0.0125 -0.0014 1.1635
H86 H 0.0600 0.0588 1.1604
C88 C -0.1480(8) -0.0201(5) 1.0659(4)
H87 H -0.0990 -0.0478 1.0463
H88 H -0.1993 -0.0055 1.0415
H89 H -0.1865 -0.0453 1.0828
N14 N -0.0387(6) 0.0851(3) 1.0830(3)
O24 O 0.0070(5) 0.0624(3) 1.0436(2)
C89 C -0.0378(6) 0.1494(4) 1.1123(3)
C90 C 0.0142(7) 0.2017(4) 1.1010(3)
C91 C 0.0835(7) 0.1967(4) 1.0649(3)
H90 H 0.1045 0.1565 1.0435
N15 N 0.1153(6) 0.2556(3) 1.0647(3)
N16 N 0.0694(5) 0.2994(3) 1.1005(3)
C92 C 0.0895(8) 0.3703(4) 1.1104(3)
H91 H 0.0480 0.3816 1.0806
H92 H 0.1661 0.3800 1.1108
C93 C 0.0621(8) 0.4137(4) 1.1606(4)
H93 H 0.1023 0.4025 1.1907
H94 H -0.0151 0.4057 1.1601
C94 C 0.0883(8) 0.4866(4) 1.1685(4)
H95 H 0.1655 0.4942 1.1690
H96 H 0.0486 0.4973 1.1380
C95 C 0.0607(11) 0.5326(5) 1.2190(4)
H97 H 0.0794 0.5783 1.2218
H98 H 0.1009 0.5230 1.2495
H99 H -0.0160 0.5262 1.2185
C96 C 0.0077(7) 0.2695(4) 1.1245(4)
H100 H -0.0314 0.2901 1.1513
Cu2_2 Cu -0.20174(8) 0.23801(5) 1.50666(4)
N11_2 N 0.8907(6) 0.2434(4) 0.4529(3)
C97 C 0.2793(8) 0.3086(5) -0.4733(4)
C98 C 0.2297(8) 0.3642(5) -0.4685(4)
H101 H 0.1550 0.3633 -0.4688
C99 C 0.2868(9) 0.4233(5) -0.4632(4)
H102 H 0.2511 0.4620 -0.4611
C100 C 0.3963(8) 0.4244(5) -0.4609(4)
H103 H 0.4359 0.4647 -0.4561
C101 C 0.4485(8) 0.3683(5) -0.4656(4)
H104 H 0.5234 0.3694 -0.4649
C102 C 0.3909(8) 0.3108(5) -0.4713(4)
H105 H 0.4265 0.2719 -0.4740
C103 C 0.2157(9) 0.2446(5) -0.4782(4)
H106 H 0.1395 0.2547 -0.4787
C104 C 0.2526(9) 0.2264(5) -0.4266(5)
H107 H 0.2126 0.1856 -0.4292
H108 H 0.2392 0.2621 -0.3959
H109 H 0.3291 0.2204 -0.4226
C105 C 0.2174(10) 0.1880(6) -0.5277(5)
H110 H 0.1938 0.2018 -0.5587
H111 H 0.1694 0.1510 -0.5289
H112 H 0.2902 0.1745 -0.5278
C106 C 0.7684(8) 0.1969(5) -0.0187(4)
C107 C 0.8253(8) 0.1422(5) -0.0219(4)
H113 H 0.9005 0.1462 -0.0197
C108 C 0.7734(9) 0.0812(5) -0.0284(4)
H114 H 0.8127 0.0437 -0.0306
C109 C 0.6653(9) 0.0762(5) -0.0315(4)
H115 H 0.6299 0.0350 -0.0353
C110 C 0.6071(9) 0.1289(5) -0.0292(4)
H116 H 0.5318 0.1239 -0.0321
C111 C 0.6574(8) 0.1898(5) -0.0225(4)
H117 H 0.6167 0.2266 -0.0206
C112 C 0.8241(8) 0.2625(5) -0.0151(4)
H118 H 0.9030 0.2594 -0.0083
C113 C 0.7945(8) 0.2769(5) -0.0662(4)
H119 H 0.8118 0.2405 -0.0953
H120 H 0.8345 0.3177 -0.0639
H121 H 0.7177 0.2820 -0.0728
C114 C 0.7965(9) 0.3191(5) 0.0306(5)
H122 H 0.8332 0.3605 0.0320
H123 H 0.8195 0.3105 0.0640
H124 H 0.7192 0.3223 0.0249
loop_
_geom_bond_atom_site_label_1
_geom_bond_atom_site_label_2
_geom_bond_site_symmetry_1
_geom_bond_site_symmetry_2
Cu1 O1 1_555 1_555
O1 C2 1_555 1_555
C1 F1 1_555 1_555
F2 C1 1_555 1_555
F3 C1 1_555 1_555
C2 C1 1_555 1_555
C3 C2 1_555 1_555
H1 C3 1_555 1_555
C4 C3 1_555 1_555
C5 C4 1_555 1_555
F4 C5 1_555 1_555
F5 C5 1_555 1_555
F6 C5 1_555 1_555
O2 Cu1 1_555 1_555
O3 Cu1 1_555 1_555
C6 F7 1_555 1_555
F8 C6 1_555 1_555
F9 C6 1_555 1_555
C7 O3 1_555 1_555
C8 C7 1_555 1_555
H2 C8 1_555 1_555
C9 C8 1_555 1_555
C10 C9 1_555 1_555
F10 C10 1_555 1_555
F11 C10 1_555 1_555
F12 C10 1_555 1_555
O4 Cu1 1_555 1_555
O5 Cu1 1_555 1_555
N1 O5 1_555 1_555
C11 N1 1_555 1_555
C12 C11 1_555 1_555
H3 C12 1_555 1_555
H4 C12 1_555 1_555
H5 C12 1_555 1_555
C13 C11 1_555 1_555
H6 C13 1_555 1_555
H7 C13 1_555 1_555
H8 C13 1_555 1_555
C14 C11 1_555 1_555
C15 C14 1_555 1_555
H9 C15 1_555 1_555
H10 C15 1_555 1_555
H11 C15 1_555 1_555
C16 C14 1_555 1_555
H12 C16 1_555 1_555
H13 C16 1_555 1_555
H14 C16 1_555 1_555
N2 C14 1_555 1_555
O6 N2 1_555 1_555
C17 N1 1_555 1_555
C18 C17 1_555 1_555
C19 C18 1_555 1_555
H15 C19 1_555 1_555
N3 C19 1_555 1_555
N4 N3 1_555 1_555
C20 N4 1_555 1_555
H16 C20 1_555 1_555
H17 C20 1_555 1_555
C21 C20 1_555 1_555
H18 C21 1_555 1_555
H19 C21 1_555 1_555
C22 C21 1_555 1_555
H20 C22 1_555 1_555
H21 C22 1_555 1_555
C23 C22 1_555 1_555
H22 C23 1_555 1_555
H23 C23 1_555 1_555
H24 C23 1_555 1_555
C24 C18 1_555 1_555
H25 C24 1_555 1_555
Cu2 O7 1_555 1_555
O7 C26 1_555 1_555
C25 F13 1_555 1_555
F14 C25 1_555 1_555
F15 C25 1_555 1_555
C26 C25 1_555 1_555
C27 C26 1_555 1_555
H26 C27 1_555 1_555
C28 C27 1_555 1_555
C29 C28 1_555 1_555
F16 C29 1_555 1_555
F17 C29 1_555 1_555
F18 C29 1_555 1_555
O8 Cu2 1_555 1_555
O9 Cu2 1_555 1_555
C30 F19 1_555 1_555
F20 C30 1_555 1_555
F21 C30 1_555 1_555
C31 C30 1_555 1_555
C32 C31 1_555 1_555
H27 C32 1_555 1_555
C33 O9 1_555 1_555
C34 C33 1_555 1_555
F22 C34 1_555 1_555
F23 C34 1_555 1_555
F24 C34 1_555 1_555
O10 Cu2 1_555 1_555
O11 Cu1 1_555 1_555
N5 O11 1_555 1_555
C35 N5 1_555 1_555
C36 C35 1_555 1_555
H28 C36 1_555 1_555
H29 C36 1_555 1_555
H30 C36 1_555 1_555
C37 C35 1_555 1_555
H31 C37 1_555 1_555
H32 C37 1_555 1_555
H33 C37 1_555 1_555
C38 C35 1_555 1_555
C39 C38 1_555 1_555
H34 C39 1_555 1_555
H35 C39 1_555 1_555
H36 C39 1_555 1_555
C40 C38 1_555 1_555
H37 C40 1_555 1_555
H38 C40 1_555 1_555
H39 C40 1_555 1_555
O12 N6 1_555 1_555
N6 C38 1_555 1_555
C41 N5 1_555 1_555
C42 C41 1_555 1_555
C43 C42 1_555 1_555
H40 C43 1_555 1_555
N7 Cu2 1_555 1_555
N8 N7 1_555 1_555
C44 N8 1_555 1_555
H41 C44 1_555 1_555
H42 C44 1_555 1_555
C45 C44 1_555 1_555
H43 C45 1_555 1_555
H44 C45 1_555 1_555
C46 C45 1_555 1_555
H45 C46 1_555 1_555
H46 C46 1_555 1_555
C47 C46 1_555 1_555
H47 C47 1_555 1_555
H48 C47 1_555 1_555
H49 C47 1_555 1_555
C48 C42 1_555 1_555
H50 C48 1_555 1_555
Cu3 O13 1_555 1_555
O13 C50 1_555 1_555
C49 F25 1_555 1_555
F26 C49 1_555 1_555
F27 C49 1_555 1_555
C50 C49 1_555 1_555
C51 C50 1_555 1_555
H51 C51 1_555 1_555
C52 C51 1_555 1_555
C53 C52 1_555 1_555
F28 C53 1_555 1_555
F29 C53 1_555 1_555
F30 C53 1_555 1_555
O14 Cu3 1_555 1_555
O15 Cu3 1_555 1_555
C54 C55 1_555 1_555
F31 C58 1_555 1_555
F32 C58 1_555 1_555
F33 C58 1_555 1_555
C55 O15 1_555 1_555
C56 C55 1_555 1_555
H52 C56 1_555 1_555
C57 C56 1_555 1_555
C58 C57 1_555 1_555
F34 C54 1_555 1_555
F35 C54 1_555 1_555
F36 C54 1_555 1_555
O16 Cu3 1_555 1_555
O17 Cu3 1_555 1_555
N9 O17 1_555 1_555
C59 N9 1_555 1_555
C60 C59 1_555 1_555
H53 C60 1_555 1_555
H54 C60 1_555 1_555
H55 C60 1_555 1_555
C61 C59 1_555 1_555
H56 C61 1_555 1_555
H57 C61 1_555 1_555
H58 C61 1_555 1_555
C62 C59 1_555 1_555
C63 C62 1_555 1_555
H59 C63 1_555 1_555
H60 C63 1_555 1_555
H61 C63 1_555 1_555
C64 C62 1_555 1_555
H62 C64 1_555 1_555
H63 C64 1_555 1_555
H64 C64 1_555 1_555
N10 C62 1_555 1_555
O18 N10 1_555 1_555
C65 N9 1_555 1_555
C66 C65 1_555 1_555
C67 C66 1_555 1_555
H65 C67 1_555 1_555
N11 C67 1_555 1_555
N12 N11 1_555 1_555
C68 N12 1_555 1_555
H66 C68 1_555 1_555
H67 C68 1_555 1_555
C69 C68 1_555 1_555
H68 C69 1_555 1_555
H69 C69 1_555 1_555
C70 C69 1_555 1_555
H70 C70 1_555 1_555
H71 C70 1_555 1_555
C71 C70 1_555 1_555
H72 C71 1_555 1_555
H73 C71 1_555 1_555
H74 C71 1_555 1_555
C72 C66 1_555 1_555
H75 C72 1_555 1_555
Cu4 N3 1_555 1_555
O19 Cu4 1_555 1_555
C73 F37 1_555 1_555
F38 C73 1_555 1_555
F39 C73 1_555 1_555
C74 O19 1_555 1_555
C75 C74 1_555 1_555
H76 C75 1_555 1_555
C76 C75 1_555 1_555
C77 C76 1_555 1_555
F40 C77 1_555 1_555
F41 C77 1_555 1_555
F42 C77 1_555 1_555
O20 Cu4 1_555 1_555
O21 Cu4 1_555 1_555
C78 F43 1_555 1_555
F44 C78 1_555 1_555
F45 C78 1_555 1_555
C79 O21 1_555 1_555
C80 C79 1_555 1_555
H77 C80 1_555 1_555
C81 C80 1_555 1_555
C82 C81 1_555 1_555
F46 C82 1_555 1_555
F47 C82 1_555 1_555
F48 C82 1_555 1_555
O22 Cu4 1_555 1_555
O23 Cu3 1_555 1_555
N13 O23 1_555 1_555
C83 N13 1_555 1_555
C84 C83 1_555 1_555
H78 C84 1_555 1_555
H79 C84 1_555 1_555
H80 C84 1_555 1_555
C85 C83 1_555 1_555
H81 C85 1_555 1_555
H82 C85 1_555 1_555
H83 C85 1_555 1_555
C86 C83 1_555 1_555
C87 C86 1_555 1_555
H84 C87 1_555 1_555
H85 C87 1_555 1_555
H86 C87 1_555 1_555
C88 C86 1_555 1_555
H87 C88 1_555 1_555
H88 C88 1_555 1_555
H89 C88 1_555 1_555
N14 C86 1_555 1_555
O24 N14 1_555 1_555
C89 N13 1_555 1_555
C90 C89 1_555 1_555
C91 C90 1_555 1_555
H90 C91 1_555 1_555
N15 Cu4 1_555 1_555
N16 N15 1_555 1_555
C92 N16 1_555 1_555
H91 C92 1_555 1_555
H92 C92 1_555 1_555
C93 C92 1_555 1_555
H93 C93 1_555 1_555
H94 C93 1_555 1_555
C94 C93 1_555 1_555
H95 C94 1_555 1_555
H96 C94 1_555 1_555
C95 C94 1_555 1_555
H97 C95 1_555 1_555
H98 C95 1_555 1_555
H99 C95 1_555 1_555
C96 C90 1_555 1_555
H100 C96 1_555 1_555
C97 C98 1_555 1_555
C98 H101 1_555 1_555
C99 C98 1_555 1_555
H102 C99 1_555 1_555
C100 C99 1_555 1_555
H103 C100 1_555 1_555
C101 C100 1_555 1_555
H104 C101 1_555 1_555
C102 C97 1_555 1_555
H105 C102 1_555 1_555
C103 C97 1_555 1_555
H106 C103 1_555 1_555
C104 C103 1_555 1_555
H107 C104 1_555 1_555
H108 C104 1_555 1_555
H109 C104 1_555 1_555
C105 C103 1_555 1_555
H110 C105 1_555 1_555
H111 C105 1_555 1_555
H112 C105 1_555 1_555
C106 C107 1_555 1_555
C107 H113 1_555 1_555
C108 C107 1_555 1_555
H114 C108 1_555 1_555
C109 C108 1_555 1_555
H115 C109 1_555 1_555
C110 C109 1_555 1_555
H116 C110 1_555 1_555
C111 C106 1_555 1_555
H117 C111 1_555 1_555
C112 C106 1_555 1_555
H118 C112 1_555 1_555
C113 C112 1_555 1_555
H119 C113 1_555 1_555
H120 C113 1_555 1_555
H121 C113 1_555 1_555
C114 C112 1_555 1_555
H122 C114 1_555 1_555
H123 C114 1_555 1_555
H124 C114 1_555 1_555
Cu2_2 N11 1_555 1_555
N11_2 Cu2 1_555 1_555
C4 O2 1_555 1_555
C6 C7 1_555 1_555
C9 O4 1_555 1_555
N2 C17 1_555 1_555
N4 C24 1_555 1_555
C28 O8 1_555 1_555
C31 O10 1_555 1_555
C32 C33 1_555 1_555
N6 C41 1_555 1_555
C43 N7 1_555 1_555
N8 C48 1_555 1_555
C52 O14 1_555 1_555
C57 O16 1_555 1_555
N10 C65 1_555 1_555
N12 C72 1_555 1_555
C73 C74 1_555 1_555
C76 O20 1_555 1_555
C78 C79 1_555 1_555
C81 O22 1_555 1_555
N14 C89 1_555 1_555
C91 N15 1_555 1_555
N16 C96 1_555 1_555
C101 C102 1_555 1_555
C110 C111 1_555 1_555

#END
