
#######################################################################
#
#                 Cambridge Crystallographic Data Centre
#                                CCDC 
#
#######################################################################
#
# If this CIF has been generated from an entry in the Cambridge 
# Structural Database, then it will include bibliographic, chemical, 
# crystal, experimental, refinement or atomic coordinate data resulting 
# from the CCDC's data processing and validation procedures.
#
#######################################################################

data_KIVJEF
_symmetry_cell_setting           monoclinic
_symmetry_space_group_name_H-M   'P 21/c'
_symmetry_Int_Tables_number      14
_space_group_name_Hall           '-P 2ybc'
loop_
_symmetry_equiv_pos_site_id
_symmetry_equiv_pos_as_xyz
1 x,y,z
2 -x,1/2+y,1/2-z
3 -x,-y,-z
4 x,1/2-y,1/2+z
_cell_length_a                   10.852(2)
_cell_length_b                   12.688(3)
_cell_length_c                   17.865(4)
_cell_angle_alpha                90
_cell_angle_beta                 90.793(4)
_cell_angle_gamma                90
_cell_volume                     2459.6
loop_
_atom_site_label
_atom_site_type_symbol
_atom_site_fract_x
_atom_site_fract_y
_atom_site_fract_z
C1 C -0.0306(5) 0.3521(4) 0.4109(3)
C2 C 0.0746(5) 0.4127(4) 0.4235(3)
H1 H 0.1011 0.4577 0.3859
C3 C 0.1406(5) 0.4083(4) 0.4896(3)
C4 C 0.0993(5) 0.3410(4) 0.5451(3)
H2 H 0.1409 0.3387 0.5909
C5 C -0.0022(5) 0.2775(4) 0.5335(3)
C6 C -0.0671(5) 0.2821(4) 0.4664(3)
H3 H -0.1350 0.2386 0.4584
C7 C -0.1035(5) 0.3577(4) 0.3396(3)
C8 C 0.2537(4) 0.4734(4) 0.5010(3)
H4 H 0.2410 0.5203 0.5430
H5 H 0.2656 0.5167 0.4569
C9 C -0.0447(5) 0.2013(5) 0.5908(3)
C10 C 0.5392(5) 0.3598(4) 0.5967(3)
C11 C 0.4312(5) 0.4164(4) 0.5830(3)
H6 H 0.4000 0.4594 0.6204
C12 C 0.3700(5) 0.4099(4) 0.5155(3)
C13 C 0.4169(5) 0.3451(4) 0.4595(3)
H7 H 0.3776 0.3420 0.4129
C14 C 0.5227(4) 0.2851(4) 0.4732(3)
C15 C 0.5830(5) 0.2954(4) 0.5417(3)
H8 H 0.6552 0.2575 0.5505
C16 C 0.6113(5) 0.3712(4) 0.6684(3)
C17 C 0.5753(5) 0.2125(4) 0.4161(3)
O1 O -0.0919(3) 0.4394(3) 0.2997(2)
O2 O -0.1746(3) 0.2844(3) 0.32203(19)
O3 O -0.0227(3) 0.2175(3) 0.6599(2)
O4 O -0.1026(3) 0.1205(3) 0.5697(2)
O5 O 0.6929(3) 0.3044(3) 0.6835(2)
O6 O 0.5909(3) 0.4472(3) 0.7104(2)
O7 O 0.6495(3) 0.1430(3) 0.43960(19)
O8 O 0.5480(3) 0.2219(3) 0.3478(2)
O9 O -0.3792(3) 0.4503(3) 0.07915(19)
H9 H -0.3674 0.4125 0.0407
H10 H -0.3611 0.5136 0.0682
O10 O -0.1818(3) 0.5831(3) 0.1710(2)
H11 H -0.1900 0.5995 0.1250
H12 H -0.1086 0.5971 0.1853
O11 O -0.4197(3) 0.4044(3) 0.26832(19)
H13 H -0.4522 0.4640 0.2590
H14 H -0.4704 0.3557 0.2570
O12 O -0.0347(3) 0.1079(3) 0.24797(18)
H15 H -0.0366 0.1586 0.2168
H16 H -0.0187 0.0515 0.2244
O13 O -0.3757(3) -0.0757(3) 0.3701(2)
H17 H -0.3766 -0.1247 0.3377
H18 H -0.4468 -0.0582 0.3789
O14 O -0.1042(3) 0.0300(3) 0.42534(19)
H19 H -0.0938 0.0776 0.4583
H20 H -0.0348 0.0083 0.4101
O15 O -0.1731(3) -0.0907(3) 0.2640(2)
H21 H -0.2264 -0.1393 0.2686
H22 H -0.1050 -0.1095 0.2840
Sr1 Sr -0.23332(4) 0.38300(4) 0.19183(3)
Sr2 Sr -0.25007(5) 0.09127(4) 0.31458(3)
O3C O -0.0227(3) 0.2825(3) 0.1599(2)
O4C O -0.1026(3) 0.3795(3) 0.0697(2)
O5C O -0.3071(3) 0.1956(3) 0.1835(2)
O6C O -0.4091(3) 0.0528(3) 0.2104(2)
O7_2 O -0.3505(3) 0.1430(3) 0.43960(19)
O8_2 O -0.4520(3) 0.2219(3) 0.3478(2)
Sr1C Sr -0.23332(4) 0.11700(4) 0.69183(3)
Sr1C_2 Sr 0.76668(4) 0.11700(4) 0.69183(3)
Sr2C Sr 0.74993(5) 0.40873(4) 0.81458(3)
Sr2_2 Sr 0.74993(5) 0.09127(4) 0.31458(3)
O16 O -0.2551(3) 0.6272(3) 0.0198(2)
H23 H -0.2968 0.6526 -0.0166
H24 H -0.1847 0.6083 0.0045
O17 O 0.6636(3) 0.7417(3) 0.2468(2)
H25 H 0.6033 0.7299 0.2171
H26 H 0.7067 0.6859 0.2500
loop_
_geom_bond_atom_site_label_1
_geom_bond_atom_site_label_2
_geom_bond_site_symmetry_1
_geom_bond_site_symmetry_2
C1 C2 1_555 1_555
C2 H1 1_555 1_555
C3 C2 1_555 1_555
C4 C3 1_555 1_555
H2 C4 1_555 1_555
C5 C4 1_555 1_555
C6 C1 1_555 1_555
H3 C6 1_555 1_555
C7 C1 1_555 1_555
C8 C3 1_555 1_555
H4 C8 1_555 1_555
H5 C8 1_555 1_555
C9 C5 1_555 1_555
C10 C11 1_555 1_555
C11 H6 1_555 1_555
C12 C8 1_555 1_555
C13 C12 1_555 1_555
H7 C13 1_555 1_555
C14 C13 1_555 1_555
C15 C10 1_555 1_555
H8 C15 1_555 1_555
C16 C10 1_555 1_555
C17 C14 1_555 1_555
O1 C7 1_555 1_555
O2 C7 1_555 1_555
O3 C9 1_555 1_555
O4 C9 1_555 1_555
O5 C16 1_555 1_555
O6 C16 1_555 1_555
O7 C17 1_555 1_555
O8 C17 1_555 1_555
O9 H9 1_555 1_555
H10 O9 1_555 1_555
O10 H11 1_555 1_555
H12 O10 1_555 1_555
O11 H13 1_555 1_555
H14 O11 1_555 1_555
O12 H15 1_555 1_555
H16 O12 1_555 1_555
O13 H17 1_555 1_555
H18 O13 1_555 1_555
O14 H19 1_555 1_555
H20 O14 1_555 1_555
O15 H21 1_555 1_555
H22 O15 1_555 1_555
O16 H23 1_555 1_555
H24 O16 1_555 1_555
O17 H25 1_555 1_555
H26 O17 1_555 1_555
Sr1 O1 1_555 1_555
Sr2 O2 1_555 1_555
O3C Sr1 1_555 1_555
O4C Sr1 1_555 1_555
O5C Sr1 1_555 1_555
O6C Sr2 1_555 1_555
O7_2 Sr2 1_555 1_555
O8_2 Sr2 1_555 1_555
Sr1C O3 1_555 1_555
Sr1C_2 O5 1_555 1_555
Sr2C O5 1_555 1_555
Sr2_2 O7 1_555 1_555
C5 C6 1_555 1_555
C11 C12 1_555 1_555
C14 C15 1_555 1_555
O2 Sr1 1_555 1_555
O4 Sr1C 1_555 1_555
O6 Sr2C 1_555 1_555
O8 Sr2_2 1_555 1_555
O9 Sr1 1_555 1_555
O10 Sr1 1_555 1_555
O11 Sr1 1_555 1_555
O12 Sr2 1_555 1_555
O13 Sr2 1_555 1_555
O14 Sr2 1_555 1_555
O15 Sr2 1_555 1_555
Sr2 O5C 1_555 1_555

#END
