
#######################################################################
#
#                 Cambridge Crystallographic Data Centre
#                                CCDC 
#
#######################################################################
#
# If this CIF has been generated from an entry in the Cambridge 
# Structural Database, then it will include bibliographic, chemical, 
# crystal, experimental, refinement or atomic coordinate data resulting 
# from the CCDC's data processing and validation procedures.
#
#######################################################################

data_KIVVIW
_symmetry_cell_setting           monoclinic
_symmetry_space_group_name_H-M   'P 21/n'
_symmetry_Int_Tables_number      14
_space_group_name_Hall           '-P 2yn'
loop_
_symmetry_equiv_pos_site_id
_symmetry_equiv_pos_as_xyz
1 x,y,z
2 1/2-x,1/2+y,1/2-z
3 -x,-y,-z
4 1/2+x,1/2-y,1/2+z
_cell_length_a                   12.305(9)
_cell_length_b                   12.945(9)
_cell_length_c                   13.619(10)
_cell_angle_alpha                90
_cell_angle_beta                 116.833(8)
_cell_angle_gamma                90
_cell_volume                     1935.76
loop_
_atom_site_label
_atom_site_type_symbol
_atom_site_fract_x
_atom_site_fract_y
_atom_site_fract_z
Zn1 Zn 0.94140(5) 0.02253(4) 1.07042(4)
O1 O 0.8833(3) -0.0563(3) 0.8245(3)
O2 O 0.7938(3) -0.0222(3) 0.9316(3)
O3 O 0.5364(3) -0.3579(3) 0.5345(3)
O4 O 0.4510(3) -0.3823(3) 0.6444(3)
N1 N 0.8579(3) 0.1310(3) 1.1232(3)
N2 N 0.5777(4) 0.4279(4) 1.0817(4)
C1 C 0.7919(4) -0.0509(4) 0.8424(4)
C2 C 0.6681(4) -0.0807(4) 0.7491(4)
C3 C 0.5736(14) -0.0088(14) 0.7522(15)
H1 H 0.5802 -0.0077 0.8252
H2 H 0.4939 -0.0324 0.7014
H3 H 0.5864 0.0595 0.7321
C4 C 0.6330(5) -0.1946(4) 0.7534(5)
C5 C 0.5912(8) -0.2088(7) 0.8452(6)
H4 H 0.5817 -0.2810 0.8553
H5 H 0.5149 -0.1740 0.8239
H6 H 0.6514 -0.1799 0.9129
C6 C 0.7360(5) -0.2694(4) 0.7760(5)
H7 H 0.8034 -0.2534 0.8457
H8 H 0.7612 -0.2637 0.7190
H9 H 0.7088 -0.3386 0.7776
C7 C 0.5238(5) -0.2113(4) 0.6370(4)
H10 H 0.4494 -0.1824 0.6354
C8 C 0.5032(4) -0.3252(4) 0.6030(4)
C9 C 0.5628(8) -0.1454(6) 0.5617(5)
H11 H 0.5898 -0.1905 0.5202
H12 H 0.4941 -0.1055 0.5101
C10 C 0.6650(7) -0.0739(6) 0.6330(5)
H13 H 0.6486 -0.0038 0.6050
H14 H 0.7417 -0.0964 0.6364
C11 C 0.7363(5) 0.1408(4) 1.0753(5)
H15 H 0.6892 0.0886 1.0285
C12 C 0.6782(5) 0.2250(5) 1.0924(5)
H16 H 0.5936 0.2290 1.0570
C13 C 0.7454(5) 0.3034(4) 1.1621(4)
C14 C 0.8693(5) 0.2917(4) 1.2131(5)
H17 H 0.9182 0.3417 1.2623
C15 C 0.9221(5) 0.2050(4) 1.1916(5)
H18 H 1.0065 0.1990 1.2269
C16 C 0.6834(6) 0.3973(5) 1.1809(5)
H19 H 0.6589 0.3818 1.2378
H20 H 0.7408 0.4542 1.2066
C17 C 0.6096(6) 0.4718(5) 0.9993(5)
H21 H 0.6590 0.4230 0.9830
H22 H 0.6569 0.5343 1.0280
C18 C 0.4966(6) 0.4964(5) 0.8958(5)
H23 H 0.5189 0.5239 0.8411
H24 H 0.4498 0.4338 0.8664
N1B N 0.1421(3) 0.8690(3) 0.8768(3)
N2B N 0.4223(4) 0.5721(4) 0.9183(4)
C11B C 0.2637(5) 0.8592(4) 0.9247(5)
H15B H 0.3108 0.9114 0.9715
C12B C 0.3218(5) 0.7750(5) 0.9076(5)
H16B H 0.4064 0.7710 0.9430
C13B C 0.2546(5) 0.6966(4) 0.8379(4)
C14B C 0.1307(5) 0.7083(4) 0.7869(5)
H17B H 0.0818 0.6583 0.7377
C15B C 0.0779(5) 0.7950(4) 0.8084(5)
H18B H -0.0065 0.8010 0.7731
C16B C 0.3166(6) 0.6027(5) 0.8191(5)
H19B H 0.3411 0.6182 0.7622
H20B H 0.2592 0.5458 0.7934
C17B C 0.3904(6) 0.5282(5) 1.0007(5)
H21B H 0.3410 0.5770 1.0170
H22B H 0.3431 0.4657 0.9720
C18B C 0.5034(6) 0.5036(5) 1.1042(5)
H23B H 0.4811 0.4761 1.1589
H24B H 0.5502 0.5662 1.1336
Zn1B Zn 0.05860(5) 0.97747(4) 0.92958(4)
O1B O 0.1167(3) 1.0563(3) 1.1755(3)
O2B O 0.2062(3) 1.0222(3) 1.0684(3)
O3B O 0.4636(3) 1.3579(3) 1.4655(3)
O4B O 0.5490(3) 1.3823(3) 1.3556(3)
C1B C 0.2081(4) 1.0509(4) 1.1576(4)
C2B C 0.3319(4) 1.0807(4) 1.2509(4)
C3B C 0.4264(14) 1.0088(14) 1.2478(15)
H1B H 0.4198 1.0077 1.1748
H2B H 0.5061 1.0324 1.2986
H3B H 0.4136 0.9405 1.2679
C4B C 0.3670(5) 1.1946(4) 1.2466(5)
C5B C 0.4088(8) 1.2088(7) 1.1548(6)
H4B H 0.4183 1.2810 1.1447
H5B H 0.4851 1.1740 1.1761
H6B H 0.3486 1.1799 1.0871
C6B C 0.2640(5) 1.2694(4) 1.2240(5)
H7B H 0.1966 1.2534 1.1543
H8B H 0.2388 1.2637 1.2810
H9B H 0.2912 1.3386 1.2224
C7B C 0.4762(5) 1.2113(4) 1.3630(4)
H10B H 0.5506 1.1824 1.3646
C8B C 0.4968(4) 1.3252(4) 1.3970(4)
C9B C 0.4372(8) 1.1454(6) 1.4383(5)
H11B H 0.4102 1.1905 1.4798
H12B H 0.5059 1.1055 1.4899
C10B C 0.3350(7) 1.0739(6) 1.3670(5)
H13B H 0.3514 1.0038 1.3950
H14B H 0.2583 1.0964 1.3636
Zn1_2 Zn -0.05860(5) 1.02253(4) 1.07042(4)
Zn1A Zn 0.55860(5) -0.47747(4) 0.42958(4)
Zn1A_2 Zn 0.55860(5) 1.52253(4) 1.42958(4)
Zn1B_2 Zn 1.05860(5) -0.02253(4) 0.92958(4)
Zn1C Zn 0.44140(5) -0.52253(4) 0.57042(4)
Zn1C_2 Zn 0.44140(5) 1.47747(4) 1.57042(4)
O1_2 O -0.1167(3) 0.9437(3) 0.8245(3)
O1B_2 O 1.1167(3) 0.0563(3) 1.1755(3)
O3A O 0.9636(3) 0.1421(3) 0.9655(3)
O3C O 0.0364(3) 0.8579(3) 1.0345(3)
O4A O 0.0490(3) 1.1177(3) 0.8556(3)
O4C O 0.9510(3) -0.1177(3) 1.1444(3)
loop_
_geom_bond_atom_site_label_1
_geom_bond_atom_site_label_2
_geom_bond_site_symmetry_1
_geom_bond_site_symmetry_2
Zn1 O2 1_555 1_555
O1 C1 1_555 1_555
O2 C1 1_555 1_555
O3 C8 1_555 1_555
O4 C8 1_555 1_555
N1 Zn1 1_555 1_555
N2 C16 1_555 1_555
C1 C2 1_555 1_555
C2 C3 1_555 1_555
C3 H1 1_555 1_555
H2 C3 1_555 1_555
H3 C3 1_555 1_555
C4 C2 1_555 1_555
C5 C4 1_555 1_555
H4 C5 1_555 1_555
H5 C5 1_555 1_555
H6 C5 1_555 1_555
C6 C4 1_555 1_555
H7 C6 1_555 1_555
H8 C6 1_555 1_555
H9 C6 1_555 1_555
C7 C4 1_555 1_555
H10 C7 1_555 1_555
C8 C7 1_555 1_555
C9 C7 1_555 1_555
H11 C9 1_555 1_555
H12 C9 1_555 1_555
C10 C2 1_555 1_555
H13 C10 1_555 1_555
H14 C10 1_555 1_555
C11 N1 1_555 1_555
H15 C11 1_555 1_555
C12 C11 1_555 1_555
H16 C12 1_555 1_555
C13 C12 1_555 1_555
C14 C13 1_555 1_555
H17 C14 1_555 1_555
C15 N1 1_555 1_555
H18 C15 1_555 1_555
C16 C13 1_555 1_555
H19 C16 1_555 1_555
H20 C16 1_555 1_555
C17 N2 1_555 1_555
H21 C17 1_555 1_555
H22 C17 1_555 1_555
C18 C17 1_555 1_555
H23 C18 1_555 1_555
H24 C18 1_555 1_555
N1B C11B 1_555 1_555
N2B C18 1_555 1_555
C11B H15B 1_555 1_555
C12B C11B 1_555 1_555
H16B C12B 1_555 1_555
C13B C12B 1_555 1_555
C14B C13B 1_555 1_555
H17B C14B 1_555 1_555
C15B N1B 1_555 1_555
H18B C15B 1_555 1_555
C16B N2B 1_555 1_555
H19B C16B 1_555 1_555
H20B C16B 1_555 1_555
C17B N2B 1_555 1_555
H21B C17B 1_555 1_555
H22B C17B 1_555 1_555
C18B N2 1_555 1_555
H23B C18B 1_555 1_555
H24B C18B 1_555 1_555
Zn1B N1B 1_555 1_555
O1B C1B 1_555 1_555
O2B Zn1B 1_555 1_555
O3B C8B 1_555 1_555
O4B C8B 1_555 1_555
C1B O2B 1_555 1_555
C2B C1B 1_555 1_555
C3B C2B 1_555 1_555
H1B C3B 1_555 1_555
H2B C3B 1_555 1_555
H3B C3B 1_555 1_555
C4B C2B 1_555 1_555
C5B C4B 1_555 1_555
H4B C5B 1_555 1_555
H5B C5B 1_555 1_555
H6B C5B 1_555 1_555
C6B C4B 1_555 1_555
H7B C6B 1_555 1_555
H8B C6B 1_555 1_555
H9B C6B 1_555 1_555
C7B C4B 1_555 1_555
H10B C7B 1_555 1_555
C8B C7B 1_555 1_555
C9B C7B 1_555 1_555
H11B C9B 1_555 1_555
H12B C9B 1_555 1_555
C10B C2B 1_555 1_555
H13B C10B 1_555 1_555
H14B C10B 1_555 1_555
Zn1_2 O1B 1_555 1_555
Zn1A O3 1_555 1_555
Zn1A_2 O4B 1_555 1_555
Zn1B_2 O1 1_555 1_555
Zn1C O4 1_555 1_555
Zn1C_2 O3B 1_555 1_555
O1_2 Zn1B 1_555 1_555
O1B_2 Zn1 1_555 1_555
O3A Zn1 1_555 1_555
O3C Zn1B 1_555 1_555
O4A Zn1B 1_555 1_555
O4C Zn1 1_555 1_555
C9 C10 1_555 1_555
C14 C15 1_555 1_555
C13B C16B 1_555 1_555
C14B C15B 1_555 1_555
C17B C18B 1_555 1_555
C9B C10B 1_555 1_555

#END
