
#######################################################################
#
#                 Cambridge Crystallographic Data Centre
#                                CCDC 
#
#######################################################################
#
# If this CIF has been generated from an entry in the Cambridge 
# Structural Database, then it will include bibliographic, chemical, 
# crystal, experimental, refinement or atomic coordinate data resulting 
# from the CCDC's data processing and validation procedures.
#
#######################################################################

data_KIVWAO
_symmetry_cell_setting           orthorhombic
_symmetry_space_group_name_H-M   'P n m a'
_symmetry_Int_Tables_number      62
_space_group_name_Hall           '-P 2ac 2n'
loop_
_symmetry_equiv_pos_site_id
_symmetry_equiv_pos_as_xyz
1 x,y,z
2 1/2-x,-y,1/2+z
3 -x,1/2+y,-z
4 1/2+x,1/2-y,1/2-z
5 -x,-y,-z
6 1/2+x,y,1/2-z
7 x,1/2-y,z
8 1/2-x,1/2+y,1/2+z
_cell_length_a                   7.9240(8)
_cell_length_b                   12.3558(13)
_cell_length_c                   11.5765(12)
_cell_angle_alpha                90
_cell_angle_beta                 90
_cell_angle_gamma                90
_cell_volume                     1133.42
loop_
_atom_site_label
_atom_site_type_symbol
_atom_site_fract_x
_atom_site_fract_y
_atom_site_fract_z
Cu1 Cu 0.24030(5) 0.2500 0.43964(3)
S1 S -0.05177(11) 0.2500 0.43967(6)
N1 N 0.3204(2) 0.35717(14) 0.56713(12)
N2 N -0.1563(3) 0.2500 0.2094(2)
C1 C 0.3168(3) 0.46518(19) 0.56271(18)
H1 H 0.2727 0.4979 0.4969
C2 C 0.3748(3) 0.5306(2) 0.6501(2)
H2 H 0.3715 0.6056 0.6433
C3 C 0.4377(3) 0.4822(2) 0.7478(2)
H3 H 0.4767 0.5243 0.8089
C4 C 0.4426(3) 0.3710(2) 0.7547(2)
H4 H 0.4849 0.3372 0.8203
C5 C 0.3838(2) 0.31013(17) 0.66256(16)
C6 C -0.1095(3) 0.2500 0.3033(2)
Cu1E Cu -0.25970(5) 0.2500 0.06036(3)
N1F N 0.3204(2) 0.14283(14) 0.56713(12)
N2E N 0.3437(3) 0.2500 0.2906(2)
C1F C 0.3168(3) 0.03482(19) 0.56271(18)
H1F H 0.2727 0.0021 0.4969
C2F C 0.3748(3) -0.0306(2) 0.6501(2)
H2F H 0.3715 -0.1056 0.6433
C3F C 0.4377(3) 0.0178(2) 0.7478(2)
H3F H 0.4767 -0.0243 0.8089
C4F C 0.4426(3) 0.1290(2) 0.7547(2)
H4F H 0.4849 0.1628 0.8203
C5F C 0.3838(2) 0.18987(17) 0.66256(16)
loop_
_geom_bond_atom_site_label_1
_geom_bond_atom_site_label_2
_geom_bond_site_symmetry_1
_geom_bond_site_symmetry_2
Cu1 S1 1_555 1_555
S1 C6 1_555 1_555
N1 Cu1 1_555 1_555
N2 C6 1_555 1_555
C1 N1 1_555 1_555
H1 C1 1_555 1_555
C2 C1 1_555 1_555
H2 C2 1_555 1_555
C3 C2 1_555 1_555
H3 C3 1_555 1_555
C4 C3 1_555 1_555
H4 C4 1_555 1_555
C5 N1 1_555 1_555
Cu1E N2 1_555 1_555
N1F Cu1 1_555 1_555
N2E Cu1 1_555 1_555
C1F N1F 1_555 1_555
H1F C1F 1_555 1_555
C2F C1F 1_555 1_555
H2F C2F 1_555 1_555
C3F C2F 1_555 1_555
H3F C3F 1_555 1_555
C4F C3F 1_555 1_555
H4F C4F 1_555 1_555
C5F C5 1_555 1_555
C4 C5 1_555 1_555
N1F C5F 1_555 1_555
C4F C5F 1_555 1_555

#END
