
#######################################################################
#
#                 Cambridge Crystallographic Data Centre
#                                CCDC 
#
#######################################################################
#
# If this CIF has been generated from an entry in the Cambridge 
# Structural Database, then it will include bibliographic, chemical, 
# crystal, experimental, refinement or atomic coordinate data resulting 
# from the CCDC's data processing and validation procedures.
#
#######################################################################

data_KIVWAO01
_symmetry_cell_setting           orthorhombic
_symmetry_space_group_name_H-M   'P n m a'
_symmetry_Int_Tables_number      62
_space_group_name_Hall           '-P 2ac 2n'
loop_
_symmetry_equiv_pos_site_id
_symmetry_equiv_pos_as_xyz
1 x,y,z
2 1/2-x,-y,1/2+z
3 -x,1/2+y,-z
4 1/2+x,1/2-y,1/2-z
5 -x,-y,-z
6 1/2+x,y,1/2-z
7 x,1/2-y,z
8 1/2-x,1/2+y,1/2+z
_cell_length_a                   7.9382(5)
_cell_length_b                   12.3696(8)
_cell_length_c                   11.5718(6)
_cell_angle_alpha                90
_cell_angle_beta                 90
_cell_angle_gamma                90
_cell_volume                     1136.26
loop_
_atom_site_label
_atom_site_type_symbol
_atom_site_fract_x
_atom_site_fract_y
_atom_site_fract_z
Cu1 Cu 0.23992(4) 0.7500 0.06049(2)
S1 S -0.05165(9) 0.7500 0.06019(4)
N1 N 0.32031(17) 0.64280(11) -0.06691(9)
C1 C 0.3163(2) 0.53474(15) -0.06221(14)
H1 H 0.2716 0.5022 0.0035
N2 N -0.1565(3) 0.7500 0.29040(15)
C2 C -0.1097(3) 0.7500 0.19669(18)
C3 C 0.38339(18) 0.69007(13) -0.16225(12)
C4 C 0.4427(3) 0.62843(17) -0.25436(15)
H2 H 0.4850 0.6620 -0.3201
C5 C 0.3750(2) 0.46908(15) -0.14982(17)
H3 H 0.3718 0.3942 -0.1430
C6 C 0.4381(3) 0.51764(18) -0.24735(18)
H4 H 0.4775 0.4757 -0.3083
Cu1C Cu -0.26008(4) 0.7500 0.43951(2)
N1F N 0.32031(17) 0.85720(11) -0.06691(9)
C1F C 0.3163(2) 0.96526(15) -0.06221(14)
H1F H 0.2716 0.9978 0.0035
N2C N 0.3435(3) 0.7500 0.20960(15)
C3F C 0.38339(18) 0.80993(13) -0.16225(12)
C4F C 0.4427(3) 0.87157(17) -0.25436(15)
H2F H 0.4850 0.8380 -0.3201
C5F C 0.3750(2) 1.03092(15) -0.14982(17)
H3F H 0.3718 1.1058 -0.1430
C6F C 0.4381(3) 0.98236(18) -0.24735(18)
H4F H 0.4775 1.0243 -0.3083
loop_
_geom_bond_atom_site_label_1
_geom_bond_atom_site_label_2
_geom_bond_site_symmetry_1
_geom_bond_site_symmetry_2
Cu1 S1 1_555 1_555
S1 C2 1_555 1_555
N1 Cu1 1_555 1_555
C1 N1 1_555 1_555
H1 C1 1_555 1_555
N2 C2 1_555 1_555
C3 N1 1_555 1_555
C4 C3 1_555 1_555
H2 C4 1_555 1_555
C5 C1 1_555 1_555
H3 C5 1_555 1_555
C6 C4 1_555 1_555
H4 C6 1_555 1_555
Cu1C N2 1_555 1_555
N1F Cu1 1_555 1_555
C1F N1F 1_555 1_555
H1F C1F 1_555 1_555
N2C Cu1 1_555 1_555
C3F C3 1_555 1_555
C4F C3F 1_555 1_555
H2F C4F 1_555 1_555
C5F C1F 1_555 1_555
H3F C5F 1_555 1_555
C6F C4F 1_555 1_555
H4F C6F 1_555 1_555
C5 C6 1_555 1_555
N1F C3F 1_555 1_555
C5F C6F 1_555 1_555

#END
