
#######################################################################
#
#                 Cambridge Crystallographic Data Centre
#                                CCDC 
#
#######################################################################
#
# If this CIF has been generated from an entry in the Cambridge 
# Structural Database, then it will include bibliographic, chemical, 
# crystal, experimental, refinement or atomic coordinate data resulting 
# from the CCDC's data processing and validation procedures.
#
#######################################################################

data_KIVYEV
_symmetry_cell_setting           orthorhombic
_symmetry_space_group_name_H-M   'P b c a'
_symmetry_Int_Tables_number      61
_space_group_name_Hall           '-P 2ac 2ab'
loop_
_symmetry_equiv_pos_site_id
_symmetry_equiv_pos_as_xyz
1 x,y,z
2 1/2-x,-y,1/2+z
3 -x,1/2+y,1/2-z
4 1/2+x,1/2-y,-z
5 -x,-y,-z
6 1/2+x,y,1/2-z
7 x,1/2-y,1/2+z
8 1/2-x,1/2+y,z
_cell_length_a                   11.708(2)
_cell_length_b                   11.942(2)
_cell_length_c                   12.256(2)
_cell_angle_alpha                90
_cell_angle_beta                 90
_cell_angle_gamma                90
_cell_volume                     1713.6
loop_
_atom_site_label
_atom_site_type_symbol
_atom_site_fract_x
_atom_site_fract_y
_atom_site_fract_z
Cu1 Cu 0.21022(2) 0.75860(2) 0.18184(2)
O1 O 0.02300(16) 0.77676(15) 0.18047(14)
H1 H -0.0131 0.7161 0.1765
H2 H -0.0238 0.8259 0.2006
N1 N 0.23084(18) 0.76978(17) 0.01953(17)
N2 N 0.31065(18) 0.84269(18) -0.01843(17)
N3 N 0.31170(18) 0.83750(17) -0.12352(17)
N4 N 0.23344(19) 0.76088(16) -0.15693(18)
N5 N 0.19877(17) 0.59236(17) 0.17647(15)
N6 N 0.11436(17) 0.54246(17) 0.23408(17)
N7 N 0.13954(17) 0.43807(17) 0.24538(17)
N8 N 0.24047(18) 0.41703(17) 0.19612(16)
C1 C 0.1850(2) 0.7199(2) -0.06745(19)
C2 C 0.0938(2) 0.6334(2) -0.0664(2)
H3 H 0.0189 0.6699 -0.0637
H4 H 0.1032 0.5854 -0.0021
H5 H 0.0992 0.5877 -0.1326
C3 C 0.2752(2) 0.5138(2) 0.1537(2)
C4 C 0.3814(2) 0.5309(2) 0.0904(2)
H6 H 0.3644 0.5748 0.0249
H7 H 0.4129 0.4580 0.0692
H8 H 0.4372 0.5711 0.1353
Cu1F Cu 0.21022(2) 0.74140(2) -0.31816(2)
Cu1G Cu 0.28978(2) 0.25860(2) 0.18184(2)
N4F N 0.23344(19) 0.73912(16) 0.34307(18)
N8G N 0.25953(18) 0.91703(17) 0.19612(16)
loop_
_geom_bond_atom_site_label_1
_geom_bond_atom_site_label_2
_geom_bond_site_symmetry_1
_geom_bond_site_symmetry_2
Cu1 O1 1_555 1_555
O1 H1 1_555 1_555
H2 O1 1_555 1_555
N1 Cu1 1_555 1_555
N2 N1 1_555 1_555
N3 N2 1_555 1_555
N4 N3 1_555 1_555
N5 Cu1 1_555 1_555
N6 N5 1_555 1_555
N7 N6 1_555 1_555
N8 N7 1_555 1_555
C1 N1 1_555 1_555
C2 C1 1_555 1_555
H3 C2 1_555 1_555
H4 C2 1_555 1_555
H5 C2 1_555 1_555
C3 N5 1_555 1_555
C4 C3 1_555 1_555
H6 C4 1_555 1_555
H7 C4 1_555 1_555
H8 C4 1_555 1_555
Cu1F N4 1_555 1_555
Cu1G N8 1_555 1_555
N4F Cu1 1_555 1_555
N8G Cu1 1_555 1_555
N4 C1 1_555 1_555
N8 C3 1_555 1_555

#END
