
#######################################################################
#
#                 Cambridge Crystallographic Data Centre
#                                CCDC 
#
#######################################################################
#
# If this CIF has been generated from an entry in the Cambridge 
# Structural Database, then it will include bibliographic, chemical, 
# crystal, experimental, refinement or atomic coordinate data resulting 
# from the CCDC's data processing and validation procedures.
#
#######################################################################

data_KIWCAV
_symmetry_cell_setting           monoclinic
_symmetry_space_group_name_H-M   'C c'
_symmetry_Int_Tables_number      9
_space_group_name_Hall           'C -2yc'
loop_
_symmetry_equiv_pos_site_id
_symmetry_equiv_pos_as_xyz
1 x,y,z
2 x,-y,1/2+z
3 1/2+x,1/2+y,z
4 1/2+x,1/2-y,1/2+z
_cell_length_a                   10.5816(8)
_cell_length_b                   14.0388(10)
_cell_length_c                   14.5487(12)
_cell_angle_alpha                90
_cell_angle_beta                 94.380(5)
_cell_angle_gamma                90
_cell_volume                     2154.94
loop_
_atom_site_label
_atom_site_type_symbol
_atom_site_fract_x
_atom_site_fract_y
_atom_site_fract_z
Cu1 Cu -0.05060(6) 0.23017(4) 0.61173(5)
O1 O 0.0611(4) 0.2152(3) 0.5115(3)
N1 N -0.1692(5) 0.1324(4) 0.5494(4)
C1 C 0.0256(5) 0.2593(4) 0.4377(4)
O2 O -0.0648(4) 0.3120(3) 0.4240(3)
N2 N 0.0420(5) 0.3494(3) 0.6553(3)
C2 C 0.1094(5) 0.2402(4) 0.3620(4)
O3 O 0.3501(5) 0.2690(3) 0.2215(3)
C3 C 0.1742(5) 0.2302(4) 0.2993(4)
O4 O 0.2012(4) 0.1772(3) 0.1513(3)
C4 C 0.2477(6) 0.2231(4) 0.2174(4)
O5 O 0.0920(5) 0.1335(3) 0.6881(3)
C5 C -0.1303(6) 0.0411(4) 0.5439(4)
H1 H -0.0494 0.0249 0.5724
C6 C -0.2007(6) -0.0299(4) 0.4997(4)
C7 C -0.3191(6) -0.0047(4) 0.4600(4)
H2 H -0.3720 -0.0522 0.4308
C8 C -0.3619(6) 0.0890(4) 0.4621(4)
C9 C -0.2817(6) 0.1551(4) 0.5085(4)
H3 H -0.3090 0.2195 0.5109
C10 C -0.1521(6) -0.1301(4) 0.4950(4)
H4 H -0.1415 -0.1469 0.4307
H5 H -0.2128 -0.1739 0.5203
H6 H -0.0702 -0.1350 0.5310
C11 C -0.4902(6) 0.1182(5) 0.4183(4)
H7 H -0.5424 0.1425 0.4659
H8 H -0.5319 0.0629 0.3881
H9 H -0.4794 0.1681 0.3725
C12 C 0.1639(6) 0.3459(4) 0.6908(4)
H10 H 0.2063 0.2863 0.6928
C13 C 0.2293(6) 0.4254(4) 0.7243(4)
C14 C 0.1657(6) 0.5118(5) 0.7200(4)
H11 H 0.2083 0.5676 0.7425
C15 C 0.0406(5) 0.5182(4) 0.6832(3)
C16 C -0.0160(5) 0.4340(4) 0.6519(4)
H12 H -0.1013 0.4365 0.6264
C17 C 0.3653(6) 0.4169(5) 0.7653(4)
H13 H 0.4058 0.4797 0.7659
H14 H 0.4120 0.3730 0.7279
H15 H 0.3659 0.3926 0.8285
C18 C -0.0315(6) 0.6105(4) 0.6777(4)
H16 H -0.1160 0.5998 0.6470
H17 H 0.0142 0.6570 0.6425
H18 H -0.0397 0.6350 0.7401
C19 C 0.1225(6) 0.1118(4) 0.7814(4)
H19 H 0.2007 0.1450 0.8031
H20 H 0.1348 0.0429 0.7885
H21 H 0.0533 0.1323 0.8179
H26 H 0.0927 0.0901 0.6505
Cu1C Cu 0.44940(6) 0.26983(4) 0.11173(5)
O3C O -0.1499(5) 0.2310(3) 0.7215(3)
O6 O 0.1845(4) -0.0012(2) 0.5838(3)
C20 C 0.1901(7) -0.0038(6) 0.4863(5)
H22 H 0.1866 0.0613 0.4619
H23 H 0.1181 -0.0405 0.4586
H24 H 0.2694 -0.0341 0.4714
H25 H 0.1939 -0.0510 0.6130
loop_
_geom_bond_atom_site_label_1
_geom_bond_atom_site_label_2
_geom_bond_site_symmetry_1
_geom_bond_site_symmetry_2
Cu1 O1 1_555 1_555
O1 C1 1_555 1_555
N1 Cu1 1_555 1_555
C1 O2 1_555 1_555
N2 Cu1 1_555 1_555
C2 C1 1_555 1_555
O3 C4 1_555 1_555
C3 C2 1_555 1_555
O4 C4 1_555 1_555
C4 C3 1_555 1_555
O5 Cu1 1_555 1_555
C5 N1 1_555 1_555
H1 C5 1_555 1_555
O6 C20 1_555 1_555
C6 C5 1_555 1_555
C7 C6 1_555 1_555
H2 C7 1_555 1_555
C8 C7 1_555 1_555
C9 N1 1_555 1_555
H3 C9 1_555 1_555
C10 C6 1_555 1_555
H4 C10 1_555 1_555
H5 C10 1_555 1_555
H6 C10 1_555 1_555
C11 C8 1_555 1_555
H7 C11 1_555 1_555
H8 C11 1_555 1_555
H9 C11 1_555 1_555
C12 N2 1_555 1_555
H10 C12 1_555 1_555
C13 C12 1_555 1_555
C14 C13 1_555 1_555
H11 C14 1_555 1_555
C15 C14 1_555 1_555
C16 N2 1_555 1_555
H12 C16 1_555 1_555
C17 C13 1_555 1_555
H13 C17 1_555 1_555
H14 C17 1_555 1_555
H15 C17 1_555 1_555
C18 C15 1_555 1_555
H16 C18 1_555 1_555
H17 C18 1_555 1_555
H18 C18 1_555 1_555
C19 O5 1_555 1_555
H19 C19 1_555 1_555
H20 C19 1_555 1_555
H21 C19 1_555 1_555
C20 H22 1_555 1_555
H23 C20 1_555 1_555
H24 C20 1_555 1_555
H25 O6 1_555 1_555
H26 O5 1_555 1_555
Cu1C O3 1_555 1_555
O3C Cu1 1_555 1_555
C8 C9 1_555 1_555
C15 C16 1_555 1_555

#END
