
#######################################################################
#
#                 Cambridge Crystallographic Data Centre
#                                CCDC 
#
#######################################################################
#
# If this CIF has been generated from an entry in the Cambridge 
# Structural Database, then it will include bibliographic, chemical, 
# crystal, experimental, refinement or atomic coordinate data resulting 
# from the CCDC's data processing and validation procedures.
#
#######################################################################

data_KIWDEB
_symmetry_cell_setting           monoclinic
_symmetry_space_group_name_H-M   'C 2/c'
_symmetry_Int_Tables_number      15
_space_group_name_Hall           '-C 2yn'
loop_
_symmetry_equiv_pos_site_id
_symmetry_equiv_pos_as_xyz
1 x,y,z
2 -x,y,1/2-z
3 1/2+x,1/2+y,z
4 1/2-x,1/2+y,1/2-z
5 -x,-y,-z
6 x,-y,1/2+z
7 1/2-x,1/2-y,-z
8 1/2+x,1/2-y,1/2+z
_cell_length_a                   21.699(7)
_cell_length_b                   12.192(4)
_cell_length_c                   17.566(5)
_cell_angle_alpha                90
_cell_angle_beta                 105.254(5)
_cell_angle_gamma                90
_cell_volume                     4483.43
loop_
_atom_site_label
_atom_site_type_symbol
_atom_site_fract_x
_atom_site_fract_y
_atom_site_fract_z
Cd1 Cd 0.407205(8) -0.014290(14) 0.010112(9)
N1 N 0.30863(10) 0.08231(19) -0.04027(13)
N2 N 0.15183(10) 0.2712(2) -0.16203(12)
H1 H 0.1230 0.2817 -0.1373
N3 N 0.11197(9) 0.41586(17) -0.38607(12)
O1 O 0.43391(9) 0.15382(15) 0.07895(11)
O2 O 0.48143(9) 0.12326(14) -0.01502(10)
O3 O 0.62931(13) 0.5523(2) 0.13523(16)
O4 O 0.56760(11) 0.90671(17) 0.36874(12)
O5 O 0.65307(12) 0.8359(2) 0.44720(13)
C1 C 0.47229(10) 0.18248(19) 0.04002(13)
C2 C 0.50871(11) 0.28682(19) 0.06198(14)
C3 C 0.50776(13) 0.3414(2) 0.13100(16)
H2 H 0.4811 0.3162 0.1609
C4 C 0.54568(15) 0.4325(3) 0.15626(18)
H3 H 0.5442 0.4691 0.2022
C5 C 0.58597(15) 0.4684(2) 0.11155(19)
C6 C 0.58620(14) 0.4175(2) 0.04171(17)
H4 H 0.6120 0.4443 0.0112
C7 C 0.54823(12) 0.3270(2) 0.01708(15)
H5 H 0.5489 0.2922 -0.0298
C8 C 0.62323(16) 0.6189(2) 0.19766(19)
C9 C 0.66374(17) 0.6031(3) 0.2715(2)
H6 H 0.6927 0.5453 0.2808
C10 C 0.66080(16) 0.6747(3) 0.33171(19)
H7 H 0.6880 0.6648 0.3819
C11 C 0.61764(13) 0.7611(2) 0.31775(15)
C12 C 0.57715(14) 0.7746(2) 0.24266(16)
H8 H 0.5479 0.8320 0.2326
C13 C 0.58021(15) 0.7027(3) 0.18264(18)
H9 H 0.5530 0.7116 0.1324
C14 C 0.61297(14) 0.8401(2) 0.38204(16)
C15 C 0.31306(13) 0.1542(3) -0.09635(17)
H10 H 0.3524 0.1613 -0.1077
C16 C 0.26357(12) 0.2178(3) -0.13815(17)
H11 H 0.2698 0.2663 -0.1763
C17 C 0.20425(11) 0.2091(2) -0.12298(14)
C18 C 0.19949(12) 0.1379(2) -0.06292(16)
H12 H 0.1611 0.1312 -0.0491
C19 C 0.25209(13) 0.0771(2) -0.02396(16)
H13 H 0.2478 0.0299 0.0159
C20 C 0.14071(11) 0.3180(2) -0.23590(14)
C21 C 0.17013(12) 0.2837(2) -0.29357(15)
H14 H 0.1999 0.2270 -0.2831
C22 C 0.15476(12) 0.3344(2) -0.36598(15)
H15 H 0.1753 0.3109 -0.4033
C23 C 0.08249(11) 0.4467(2) -0.33130(15)
H16 H 0.0516 0.5014 -0.3444
C24 C 0.09538(11) 0.4020(2) -0.25690(14)
H17 H 0.0741 0.4273 -0.2208
Cd1A Cd 0.592795(8) 0.985710(14) 0.489888(9)
Cd1C Cd 0.092795(8) 0.485710(14) -0.510112(9)
Cd1D Cd 0.592795(8) 0.014290(14) -0.010112(9)
N3C N 0.38803(9) -0.08414(17) -0.11393(12)
O2D O 0.51857(9) -0.12326(14) 0.01502(10)
O4A O 0.43240(11) -0.09329(17) 0.13126(12)
O5A O 0.34693(12) -0.1641(2) 0.05280(13)
O6 O 0.7717(17) 0.867(2) 0.4555(18)
H18 H 0.7321 0.8622 0.4525
H19 H 0.7908 0.8135 0.4829
loop_
_geom_bond_atom_site_label_1
_geom_bond_atom_site_label_2
_geom_bond_site_symmetry_1
_geom_bond_site_symmetry_2
Cd1 N1 1_555 1_555
N1 C15 1_555 1_555
N2 H1 1_555 1_555
N3 C22 1_555 1_555
O1 Cd1 1_555 1_555
O2 Cd1 1_555 1_555
O3 C5 1_555 1_555
O4 C14 1_555 1_555
O5 C14 1_555 1_555
C1 O1 1_555 1_555
C2 C1 1_555 1_555
C3 C2 1_555 1_555
H2 C3 1_555 1_555
C4 C3 1_555 1_555
H3 C4 1_555 1_555
C5 C4 1_555 1_555
C6 C5 1_555 1_555
H4 C6 1_555 1_555
C7 C2 1_555 1_555
H5 C7 1_555 1_555
C8 O3 1_555 1_555
C9 C8 1_555 1_555
H6 C9 1_555 1_555
C10 C9 1_555 1_555
H7 C10 1_555 1_555
C11 C10 1_555 1_555
C12 C11 1_555 1_555
H8 C12 1_555 1_555
C13 C8 1_555 1_555
H9 C13 1_555 1_555
C14 C11 1_555 1_555
C15 H10 1_555 1_555
C16 C15 1_555 1_555
H11 C16 1_555 1_555
C17 N2 1_555 1_555
C18 C17 1_555 1_555
H12 C18 1_555 1_555
C19 N1 1_555 1_555
H13 C19 1_555 1_555
C20 N2 1_555 1_555
C21 C20 1_555 1_555
H14 C21 1_555 1_555
C22 C21 1_555 1_555
H15 C22 1_555 1_555
C23 N3 1_555 1_555
H16 C23 1_555 1_555
C24 C20 1_555 1_555
H17 C24 1_555 1_555
O6 H18 1_555 1_555
H19 O6 1_555 1_555
Cd1A O4 1_555 1_555
Cd1C N3 1_555 1_555
Cd1D O2 1_555 1_555
N3C Cd1 1_555 1_555
O2D Cd1 1_555 1_555
O4A Cd1 1_555 1_555
O5A Cd1 1_555 1_555
O2 C1 1_555 1_555
O5 Cd1A 1_555 1_555
C6 C7 1_555 1_555
C12 C13 1_555 1_555
C16 C17 1_555 1_555
C18 C19 1_555 1_555
C23 C24 1_555 1_555
Cd1D O2D 1_555 1_555

#END
