
#######################################################################
#
#                 Cambridge Crystallographic Data Centre
#                                CCDC 
#
#######################################################################
#
# If this CIF has been generated from an entry in the Cambridge 
# Structural Database, then it will include bibliographic, chemical, 
# crystal, experimental, refinement or atomic coordinate data resulting 
# from the CCDC's data processing and validation procedures.
#
#######################################################################

data_KIWMIN
_symmetry_cell_setting           monoclinic
_symmetry_space_group_name_H-M   'C 2/m'
_symmetry_Int_Tables_number      12
_space_group_name_Hall           '-C 2y'
loop_
_symmetry_equiv_pos_site_id
_symmetry_equiv_pos_as_xyz
1 x,y,z
2 1/2+x,1/2+y,z
3 -x,y,-z
4 1/2-x,1/2+y,-z
5 -x,-y,-z
6 1/2-x,1/2-y,-z
7 x,-y,z
8 1/2+x,1/2-y,z
_cell_length_a                   13.761(6)
_cell_length_b                   7.374(3)
_cell_length_c                   8.709(4)
_cell_angle_alpha                90
_cell_angle_beta                 124.515(4)
_cell_angle_gamma                90
_cell_volume                     728.177
loop_
_atom_site_label
_atom_site_type_symbol
_atom_site_fract_x
_atom_site_fract_y
_atom_site_fract_z
Cu1 Cu 0.84469(3) 0.5000 0.85475(5)
O1 O 0.9788(2) 0.5000 0.8255(3)
O2 O 0.8291(2) 0.5000 0.5275(4)
O3 O 0.7184(2) 0.5000 0.8984(4)
O4 O 0.5330(2) 0.5000 0.8099(4)
N1 N 0.83799(18) 0.7693(4) 0.8316(3)
H1 H 0.8335 0.8263 0.9134
H2 H 0.7797 0.8073 0.7251
H3 H 0.8990 0.8131 0.8407
C1 C 0.9363(3) 0.5000 0.6510(5)
C2 C 1.0265(3) 0.5000 0.6041(5)
H4 H 1.0763 0.3939 0.6599
C3 C 0.6069(3) 0.5000 0.7718(5)
C4 C 0.5663(3) 0.5000 0.5694(5)
H5 H 0.5987 0.3939 0.5480
Cu1D Cu 1.15531(3) 0.5000 0.14525(5)
Cu1D_2 Cu 1.15531(3) 0.5000 1.14525(5)
Cu1_2 Cu 0.84469(3) 0.5000 -0.14525(5)
Cu1D_3 Cu 0.15531(3) 0.5000 0.14525(5)
O1D O 1.0212(2) 0.5000 0.1745(3)
O1D_2 O 1.0212(2) 0.5000 1.1745(3)
O1_2 O 0.9788(2) 0.5000 -0.1745(3)
O2D O 1.1709(2) 0.5000 0.4725(4)
O3D O 0.2816(2) 0.5000 0.1016(4)
O3D_2 O 1.2816(2) 0.5000 0.1016(4)
O4D O 0.4670(2) 0.5000 0.1901(4)
N1F N 0.83799(18) 0.2307(4) 0.8316(3)
N1D N 1.16201(18) 0.2307(4) 0.1684(3)
N1B N 1.16201(18) 0.7693(4) 0.1684(3)
H1F H 0.8335 0.1737 0.9134
H1D H 1.1665 0.1737 0.0866
H1B H 1.1665 0.8263 0.0866
H2F H 0.7797 0.1927 0.7251
H2D H 1.2203 0.1927 0.2749
H2B H 1.2203 0.8073 0.2749
H3F H 0.8990 0.1869 0.8407
H3D H 1.1010 0.1869 0.1593
H3B H 1.1010 0.8131 0.1593
C1D C 1.0637(3) 0.5000 0.3490(5)
C2D C 0.9735(3) 0.5000 0.3959(5)
H4D H 0.9237 0.6061 0.3401
H4B H 0.9237 0.3939 0.3401
H4F H 1.0763 0.6061 0.6599
C3D C 0.3931(3) 0.5000 0.2282(5)
C4D C 0.4337(3) 0.5000 0.4306(5)
H5D H 0.4013 0.6061 0.4520
H5B H 0.4013 0.3939 0.4520
H5F H 0.5987 0.6061 0.5480
loop_
_geom_bond_atom_site_label_1
_geom_bond_atom_site_label_2
_geom_bond_site_symmetry_1
_geom_bond_site_symmetry_2
Cu1 O1 1_555 1_555
O1 C1 1_555 1_555
O2 Cu1 1_555 1_555
O3 Cu1 1_555 1_555
O4 C3 1_555 1_555
N1 Cu1 1_555 1_555
H1 N1 1_555 1_555
H2 N1 1_555 1_555
H3 N1 1_555 1_555
C1 O2 1_555 1_555
C2 C1 1_555 1_555
H4 C2 1_555 1_555
C3 O3 1_555 1_555
C4 C3 1_555 1_555
H5 C4 1_555 1_555
Cu1D O1D 1_555 1_555
Cu1D_2 O1 1_555 1_555
Cu1_2 O1D 1_555 1_555
Cu1D_3 O3D 1_555 1_555
O1D C1D 1_555 1_555
O1D_2 Cu1 1_555 1_555
O1_2 Cu1D 1_555 1_555
O2D Cu1D 1_555 1_555
O3D C3D 1_555 1_555
O3D_2 Cu1D 1_555 1_555
O4D C3D 1_555 1_555
N1F Cu1 1_555 1_555
N1D Cu1D 1_555 1_555
N1B Cu1D 1_555 1_555
H1F N1F 1_555 1_555
H1D N1D 1_555 1_555
H1B N1B 1_555 1_555
H2F N1F 1_555 1_555
H2D N1D 1_555 1_555
H2B N1B 1_555 1_555
H3F N1F 1_555 1_555
H3D N1D 1_555 1_555
H3B N1B 1_555 1_555
C1D O2D 1_555 1_555
C2D C2 1_555 1_555
H4D C2D 1_555 1_555
H4B C2D 1_555 1_555
H4F C2 1_555 1_555
C3D C4D 1_555 1_555
C4D C4 1_555 1_555
H5D C4D 1_555 1_555
H5B C4D 1_555 1_555
H5F C4 1_555 1_555
Cu1D_2 O1D_2 1_555 1_555
Cu1_2 O1_2 1_555 1_555
C1D C2D 1_555 1_555

#END
