
#######################################################################
#
#                 Cambridge Crystallographic Data Centre
#                                CCDC 
#
#######################################################################
#
# If this CIF has been generated from an entry in the Cambridge 
# Structural Database, then it will include bibliographic, chemical, 
# crystal, experimental, refinement or atomic coordinate data resulting 
# from the CCDC's data processing and validation procedures.
#
#######################################################################

data_KIWMUZ
_symmetry_cell_setting           monoclinic
_symmetry_space_group_name_H-M   'P 21/c'
_symmetry_Int_Tables_number      14
_space_group_name_Hall           '-P 2ybc'
loop_
_symmetry_equiv_pos_site_id
_symmetry_equiv_pos_as_xyz
1 x,y,z
2 -x,1/2+y,1/2-z
3 -x,-y,-z
4 x,1/2-y,1/2+z
_cell_length_a                   11.6765(4)
_cell_length_b                   6.6878(2)
_cell_length_c                   27.0324(9)
_cell_angle_alpha                90
_cell_angle_beta                 95.608(2)
_cell_angle_gamma                90
_cell_volume                     2100.86
loop_
_atom_site_label
_atom_site_type_symbol
_atom_site_fract_x
_atom_site_fract_y
_atom_site_fract_z
C1 C 1.2555(4) 1.1054(8) 0.13511(18)
C2 C 1.1690(4) 1.1014(7) 0.09309(19)
C3 C 1.2195(4) 1.1225(7) 0.04666(18)
C4 C 1.3344(4) 1.1314(8) 0.04212(19)
H1 H 1.3617 1.1369 0.0110
C5 C 1.4101(4) 1.1319(8) 0.0851(2)
C6 C 1.3720(4) 1.1214(7) 0.13149(19)
H2 H 1.4238 1.1251 0.1599
C7 C 1.3226(4) 0.6198(7) 0.09934(18)
C8 C 1.4352(4) 0.6309(8) 0.0885(2)
H3 H 1.4527 0.6363 0.0557
C9 C 1.5217(4) 0.6338(8) 0.12707(19)
C10 C 1.4971(4) 0.6212(8) 0.1761(2)
H4 H 1.5561 0.6187 0.2018
C11 C 1.3855(5) 0.6125(8) 0.18597(19)
C12 C 1.2861(4) 0.6108(8) 0.1489(2)
N1 N 1.2203(4) 1.0954(7) 0.18515(16)
N2 N 1.5322(4) 1.1492(8) 0.0809(2)
N3 N 1.1438(4) 1.1353(7) 0.00065(17)
N4 N 1.2374(4) 0.6143(7) 0.05641(16)
N5 N 1.6402(4) 0.6485(8) 0.11597(19)
N6 N 1.3656(4) 0.6031(9) 0.23850(18)
O1 O 1.1282(4) 1.0179(7) 0.19220(15)
O2 O 1.2845(4) 1.1681(8) 0.21915(15)
O3 O 1.5656(4) 1.1695(9) 0.03987(19)
O4 O 1.5960(4) 1.1459(10) 0.1193(2)
O5 O 1.1760(4) 1.0643(9) -0.03692(16)
O6 O 1.0527(4) 1.2218(8) 0.00097(17)
O7 O 1.0641(3) 1.0833(6) 0.09589(14)
O8 O 1.1364(3) 0.6458(8) 0.06148(16)
O9 O 1.2699(4) 0.5776(7) 0.01567(14)
O10 O 1.6600(4) 0.6531(9) 0.07262(19)
O11 O 1.7160(3) 0.6578(8) 0.15020(18)
O12 O 1.2822(5) 0.6819(10) 0.25207(18)
O13 O 1.4367(4) 0.5156(8) 0.26667(17)
O14 O 1.1854(3) 0.5971(7) 0.15895(15)
O15 O 0.9006(4) 0.4119(7) 0.07251(15)
O16 O 0.8349(4) 1.1003(8) 0.13919(18)
O17 O 0.9062(4) 0.8444(9) 0.22439(17)
O18 O 0.9301(5) 0.4269(8) 0.19520(18)
Ba1 Ba 0.96482(2) 0.74829(6) 0.130390(11)
H5 H 0.955(3) 0.334(7) 0.067(2)
H6 H 0.852(4) 0.415(11) 0.0470(14)
H7 H 0.7657(17) 1.072(11) 0.144(3)
H8 H 0.835(5) 1.182(10) 0.115(2)
H9 H 0.852(3) 0.930(6) 0.222(2)
H10 H 0.948(5) 0.866(11) 0.2514(15)
H11 H 0.925(6) 0.318(5) 0.179(2)
H12 H 0.901(6) 0.410(10) 0.2224(15)
O5B O 0.8240(4) 0.9357(9) 0.03692(16)
O11_2 O 0.7160(3) 0.6578(8) 0.15020(18)
Ba1B Ba 1.03518(2) 1.25171(6) -0.130390(11)
Ba1_2 Ba 1.96482(2) 0.74829(6) 0.130390(11)
loop_
_geom_bond_atom_site_label_1
_geom_bond_atom_site_label_2
_geom_bond_site_symmetry_1
_geom_bond_site_symmetry_2
C1 C2 1_555 1_555
C2 C3 1_555 1_555
C3 C4 1_555 1_555
C4 H1 1_555 1_555
C5 C4 1_555 1_555
C6 C1 1_555 1_555
H2 C6 1_555 1_555
C7 C8 1_555 1_555
C8 H3 1_555 1_555
C9 C8 1_555 1_555
C10 C9 1_555 1_555
H4 C10 1_555 1_555
C11 C10 1_555 1_555
C12 C7 1_555 1_555
N1 C1 1_555 1_555
N2 C5 1_555 1_555
N3 C3 1_555 1_555
N4 C7 1_555 1_555
N5 C9 1_555 1_555
N6 C11 1_555 1_555
O1 N1 1_555 1_555
O2 N1 1_555 1_555
O3 N2 1_555 1_555
O4 N2 1_555 1_555
O5 N3 1_555 1_555
O6 N3 1_555 1_555
O7 C2 1_555 1_555
O8 N4 1_555 1_555
O9 N4 1_555 1_555
O10 N5 1_555 1_555
O11 N5 1_555 1_555
O12 N6 1_555 1_555
O13 N6 1_555 1_555
O14 C12 1_555 1_555
O15 Ba1 1_555 1_555
O16 Ba1 1_555 1_555
O17 Ba1 1_555 1_555
O18 Ba1 1_555 1_555
Ba1 O1 1_555 1_555
H5 O15 1_555 1_555
H6 O15 1_555 1_555
H7 O16 1_555 1_555
H8 O16 1_555 1_555
H9 O17 1_555 1_555
H10 O17 1_555 1_555
H11 O18 1_555 1_555
H12 O18 1_555 1_555
O5B Ba1 1_555 1_555
O11_2 Ba1 1_555 1_555
Ba1B O5 1_555 1_555
Ba1_2 O11 1_555 1_555
C5 C6 1_555 1_555
C11 C12 1_555 1_555
O7 Ba1 1_555 1_555
O8 Ba1 1_555 1_555
O14 Ba1 1_555 1_555

#END
