
#######################################################################
#
#                 Cambridge Crystallographic Data Centre
#                                CCDC 
#
#######################################################################
#
# If this CIF has been generated from an entry in the Cambridge 
# Structural Database, then it will include bibliographic, chemical, 
# crystal, experimental, refinement or atomic coordinate data resulting 
# from the CCDC's data processing and validation procedures.
#
#######################################################################

data_KIWPAI
_symmetry_cell_setting           monoclinic
_symmetry_space_group_name_H-M   'P 21/c'
_symmetry_Int_Tables_number      14
_space_group_name_Hall           '-P 2ybc'
loop_
_symmetry_equiv_pos_site_id
_symmetry_equiv_pos_as_xyz
1 x,y,z
2 -x,1/2+y,1/2-z
3 -x,-y,-z
4 x,1/2-y,1/2+z
_cell_length_a                   22.492(7)
_cell_length_b                   7.047(2)
_cell_length_c                   20.881(7)
_cell_angle_alpha                90
_cell_angle_beta                 119.31(4)
_cell_angle_gamma                90
_cell_volume                     2885.97
loop_
_atom_site_label
_atom_site_type_symbol
_atom_site_fract_x
_atom_site_fract_y
_atom_site_fract_z
C1 C 0.3919(2) -0.1763(6) 0.4763(2)
C2 C 0.4254(2) -0.1700(6) 0.4334(3)
H1 H 0.4699 -0.1245 0.4558
C3 C 0.3978(3) -0.2239(7) 0.3642(3)
H2 H 0.4214 -0.2175 0.3381
C4 C 0.3336(3) -0.2888(7) 0.3338(3)
H3 H 0.3113 -0.3282 0.2851
C5 C 0.3001(2) -0.2975(6) 0.3752(3)
H4 H 0.2557 -0.3438 0.3529
C6 C 0.2170(2) 0.0318(6) 0.6268(3)
C7 C 0.1856(3) 0.0303(7) 0.6722(3)
H5 H 0.2122 0.0646 0.7212
C8 C 0.1214(3) -0.0163(6) 0.6493(3)
H6 H 0.1028 -0.0120 0.6805
C9 C 0.0846(3) -0.0697(6) 0.5797(3)
H7 H 0.0395 -0.1073 0.5609
C10 C 0.1149(3) -0.0686(6) 0.5349(3)
H8 H 0.0887 -0.1059 0.4861
C11 C 0.1076(2) 0.4132(6) 0.5198(2)
C12 C 0.0749(2) 0.4095(6) 0.5644(3)
H9 H 0.0301 0.3665 0.5432
C13 C 0.1047(3) 0.4630(7) 0.6326(3)
H10 H 0.0824 0.4585 0.6602
C14 C 0.1692(3) 0.5252(7) 0.6615(3)
H11 H 0.1929 0.5617 0.7105
C15 C 0.2008(2) 0.5354(6) 0.6187(3)
H12 H 0.2450 0.5824 0.6396
C16 C 0.2826(2) 0.2062(6) 0.3712(3)
C17 C 0.3156(3) 0.2097(6) 0.3269(2)
H13 H 0.2897 0.1730 0.2781
C18 C 0.3795(3) 0.2606(6) 0.3499(3)
H14 H 0.3982 0.2626 0.3189
C19 C 0.4145(2) 0.3083(6) 0.4196(3)
H15 H 0.4598 0.3455 0.4390
C20 C 0.3856(2) 0.3042(6) 0.4644(2)
H16 H 0.4122 0.3381 0.5134
C21 C 0.4071(3) -0.4784(9) 0.6919(3)
H17 H 0.3826 -0.5591 0.7088
H18 H 0.4172 -0.3595 0.7186
C22 C 0.4667(4) -0.5651(10) 0.7052(4)
H19 H 0.4565 -0.6755 0.6747
H20 H 0.4918 -0.6019 0.7559
H21 H 0.4935 -0.4784 0.6944
C23 C 0.0849(4) -0.2585(12) 0.3053(4)
H22 H 0.1082 -0.1707 0.2893
H23 H 0.0715 -0.3695 0.2738
C24 C 0.0319(4) -0.1783(11) 0.3032(6)
H24 H 0.0463 -0.0711 0.3358
H25 H 0.0090 -0.2679 0.3184
H26 H 0.0013 -0.1367 0.2541
Li1 Li 0.3025(4) 0.0014(11) 0.5407(4)
Li2 Li 0.1956(4) 0.2363(11) 0.4551(4)
N1 N 0.3283(2) -0.2435(5) 0.4436(2)
N2 N 0.1786(2) -0.0174(5) 0.5582(2)
N3 N 0.1707(2) 0.4819(5) 0.5507(2)
N4 N 0.3213(2) 0.2539(5) 0.4404(2)
O1 O 0.29231(15) -0.2565(4) 0.48172(16)
O2 O 0.20416(14) -0.0166(4) 0.51000(15)
O3 O 0.20569(14) 0.4927(4) 0.51171(15)
O4 O 0.29464(15) 0.2503(4) 0.48815(15)
O5 O 0.36826(15) -0.4456(5) 0.61947(16)
H27 H 0.3835 -0.3545 0.6078
O6 O 0.12663(16) -0.3096(5) 0.37800(19)
H28 H 0.1102 -0.4016 0.3878
Li3 Li 0.1999(4) -0.2468(13) 0.4565(5)
Li4 Li 0.2976(5) -0.5189(15) 0.5386(5)
S1 S 0.42243(5) -0.10135(16) 0.56162(6)
S2 S 0.29818(6) 0.08162(19) 0.65231(6)
S3 S 0.07545(5) 0.33344(16) 0.43499(6)
S4 S 0.20225(6) 0.15195(19) 0.34460(6)
O3_2 O 0.20569(14) -0.5073(4) 0.51171(15)
O4_2 O 0.29464(15) -0.7497(4) 0.48815(15)
Li3_2 Li 0.1999(4) 0.7532(13) 0.4565(5)
Li4_2 Li 0.2976(5) 0.4811(15) 0.5386(5)
loop_
_geom_bond_atom_site_label_1
_geom_bond_atom_site_label_2
_geom_bond_site_symmetry_1
_geom_bond_site_symmetry_2
C1 C2 1_555 1_555
C2 H1 1_555 1_555
C3 C2 1_555 1_555
H2 C3 1_555 1_555
C4 C3 1_555 1_555
H3 C4 1_555 1_555
C5 C4 1_555 1_555
H4 C5 1_555 1_555
C6 C7 1_555 1_555
C7 H5 1_555 1_555
C8 C7 1_555 1_555
H6 C8 1_555 1_555
C9 C8 1_555 1_555
H7 C9 1_555 1_555
C10 C9 1_555 1_555
H8 C10 1_555 1_555
C11 C12 1_555 1_555
C12 H9 1_555 1_555
C13 C12 1_555 1_555
H10 C13 1_555 1_555
C14 C13 1_555 1_555
H11 C14 1_555 1_555
C15 C14 1_555 1_555
H12 C15 1_555 1_555
C16 C17 1_555 1_555
C17 H13 1_555 1_555
C18 C17 1_555 1_555
H14 C18 1_555 1_555
C19 C18 1_555 1_555
H15 C19 1_555 1_555
C20 C19 1_555 1_555
H16 C20 1_555 1_555
C21 H17 1_555 1_555
H18 C21 1_555 1_555
C22 C21 1_555 1_555
H19 C22 1_555 1_555
H20 C22 1_555 1_555
H21 C22 1_555 1_555
C23 H22 1_555 1_555
H23 C23 1_555 1_555
C24 C23 1_555 1_555
H24 C24 1_555 1_555
H25 C24 1_555 1_555
H26 C24 1_555 1_555
Li1 O1 1_555 1_555
Li2 O2 1_555 1_555
N1 C1 1_555 1_555
N2 C6 1_555 1_555
N3 C11 1_555 1_555
N4 C16 1_555 1_555
O1 N1 1_555 1_555
O2 Li1 1_555 1_555
O3 Li2 1_555 1_555
O4 Li1 1_555 1_555
O5 C21 1_555 1_555
H27 O5 1_555 1_555
O6 C23 1_555 1_555
H28 O6 1_555 1_555
Li3 O1 1_555 1_555
Li4 O1 1_555 1_555
S1 C1 1_555 1_555
S2 C6 1_555 1_555
S3 C11 1_555 1_555
S4 C16 1_555 1_555
O3_2 Li3 1_555 1_555
O4_2 Li4 1_555 1_555
Li3_2 O3 1_555 1_555
Li4_2 O3 1_555 1_555
C5 N1 1_555 1_555
C10 N2 1_555 1_555
C15 N3 1_555 1_555
C20 N4 1_555 1_555
Li1 S1 1_555 1_555
Li1 S2 1_555 1_555
Li2 O4 1_555 1_555
Li2 S3 1_555 1_555
Li2 S4 1_555 1_555
N2 O2 1_555 1_555
N3 O3 1_555 1_555
N4 O4 1_555 1_555
O2 Li3 1_555 1_555
O4 Li4_2 1_555 1_555
O5 Li4 1_555 1_555
O6 Li3 1_555 1_555
Li4 O3_2 1_555 1_555

#END
