
#######################################################################
#
#                 Cambridge Crystallographic Data Centre
#                                CCDC 
#
#######################################################################
#
# If this CIF has been generated from an entry in the Cambridge 
# Structural Database, then it will include bibliographic, chemical, 
# crystal, experimental, refinement or atomic coordinate data resulting 
# from the CCDC's data processing and validation procedures.
#
#######################################################################

data_KIXDIE
_symmetry_cell_setting           monoclinic
_symmetry_space_group_name_H-M   'P 21/n'
_symmetry_Int_Tables_number      14
_space_group_name_Hall           '-P 2yn'
loop_
_symmetry_equiv_pos_site_id
_symmetry_equiv_pos_as_xyz
1 x,y,z
2 1/2-x,1/2+y,1/2-z
3 -x,-y,-z
4 1/2+x,1/2-y,1/2+z
_cell_length_a                   12.360(2)
_cell_length_b                   6.908
_cell_length_c                   25.936(6)
_cell_angle_alpha                90
_cell_angle_beta                 101.30(2)
_cell_angle_gamma                90
_cell_volume                     2171.56
loop_
_atom_site_label
_atom_site_type_symbol
_atom_site_fract_x
_atom_site_fract_y
_atom_site_fract_z
Tb1 Tb 0.7313(1) 0.8804(1) 0.2035(1)
Cl1 Cl 0.9644(2) 0.8217(4) 0.0549(1)
Cl2 Cl 0.5169(2) 0.8407(4) 0.3548(1)
Cl3 Cl 0.3649(2) 0.5405(4) 0.1329(1)
O1 O 0.9206(3) 0.8795(6) 0.2486(2)
O2 O 0.8281(4) 0.8695(8) 0.1332(2)
O3 O 0.6493(4) 0.8798(9) 0.1136(2)
O4 O 0.7313(4) 1.0372(6) 0.2951(2)
O5 O 0.7332(4) 0.7222(6) 0.2943(2)
O6 O 0.5503(4) 1.0394(6) 0.2001(2)
O7 O 0.5553(2) 0.7232(6) 0.2023(2)
C1 C 0.7399(5) 0.8667(9) 0.0416(2)
C2 C 0.8321(5) 0.8477(10) 0.0185(3)
C3 C 0.8212(7) 0.8501(11) -0.0355(3)
C4 C 0.7198(7) 0.8710(11) -0.0677(3)
C5 C 0.6271(6) 0.8871(12) -0.0461(3)
C6 C 0.6363(6) 0.8850(11) 0.0078(2)
C7 C 0.7405(5) 0.8719(9) 0.0994(2)
C8 C 0.7373(5) 0.8747(8) 0.3776(2)
C9 C 0.6422(6) 0.8551(10) 0.3977(3)
C10 C 0.6466(8) 0.8469(11) 0.4518(3)
C11 C 0.7462(9) 0.8602(12) 0.4854(3)
C12 C 0.8415(8) 0.8798(11) 0.4658(3)
C13 C 0.8389(6) 0.8904(11) 0.4130(3)
C14 C 0.7332(4) 0.8773(8) 0.3190(2)
C15 C 0.3769(4) 0.8783(9) 0.1912(2)
C16 C 0.3114(5) 0.7331(10) 0.1631(3)
C17 C 0.1959(6) 0.7427(13) 0.1577(3)
C18 C 0.1483(6) 0.8910(5) 0.1792(3)
C19 C 0.2112(6) 1.0288(17) 0.2076(3)
C20 C 0.3263(6) 1.0257(11) 0.2125(3)
C21 C 0.5022(4) 0.8763(9) 0.1982(2)
O4A O 0.7687(4) 0.5372(6) 0.2049(2)
O5A O 0.7668(4) 1.2222(6) 0.2057(2)
Tb1A Tb 0.7687(1) 1.3804(1) 0.2965(1)
Tb1A_2 Tb 0.7687(1) 0.3804(1) 0.2965(1)
loop_
_geom_bond_atom_site_label_1
_geom_bond_atom_site_label_2
_geom_bond_site_symmetry_1
_geom_bond_site_symmetry_2
Tb1 O1 1_555 1_555
Cl1 C2 1_555 1_555
Cl2 C9 1_555 1_555
Cl3 C16 1_555 1_555
O2 Tb1 1_555 1_555
O3 Tb1 1_555 1_555
O4 Tb1 1_555 1_555
O5 Tb1 1_555 1_555
O6 Tb1 1_555 1_555
O7 Tb1 1_555 1_555
C1 C2 1_555 1_555
C2 C3 1_555 1_555
C3 C4 1_555 1_555
C4 C5 1_555 1_555
C5 C6 1_555 1_555
C6 C1 1_555 1_555
C7 O2 1_555 1_555
C8 C9 1_555 1_555
C9 C10 1_555 1_555
C10 C11 1_555 1_555
C11 C12 1_555 1_555
C12 C13 1_555 1_555
C13 C8 1_555 1_555
C14 O4 1_555 1_555
C15 C16 1_555 1_555
C16 C17 1_555 1_555
C17 C18 1_555 1_555
C18 C19 1_555 1_555
C19 C20 1_555 1_555
C20 C15 1_555 1_555
C21 O6 1_555 1_555
O4A Tb1 1_555 1_555
O5A Tb1 1_555 1_555
Tb1A O4 1_555 1_555
Tb1A_2 O5 1_555 1_555
O3 C7 1_555 1_555
O5 C14 1_555 1_555
O7 C21 1_555 1_555
C1 C7 1_555 1_555
C8 C14 1_555 1_555
C15 C21 1_555 1_555
O4A Tb1A_2 1_555 1_555
O5A Tb1A 1_555 1_555

#END
