
#######################################################################
#
#                 Cambridge Crystallographic Data Centre
#                                CCDC 
#
#######################################################################
#
# If this CIF has been generated from an entry in the Cambridge 
# Structural Database, then it will include bibliographic, chemical, 
# crystal, experimental, refinement or atomic coordinate data resulting 
# from the CCDC's data processing and validation procedures.
#
#######################################################################

data_KIXFAY
_symmetry_cell_setting           monoclinic
_symmetry_space_group_name_H-M   'C c'
_symmetry_Int_Tables_number      9
_space_group_name_Hall           'C -2yc'
loop_
_symmetry_equiv_pos_site_id
_symmetry_equiv_pos_as_xyz
1 x,y,z
2 1/2+x,1/2+y,z
3 x,-y,1/2+z
4 1/2+x,1/2-y,1/2+z
_cell_length_a                   16.280(4)
_cell_length_b                   14.889(3)
_cell_length_c                   9.867(1)
_cell_angle_alpha                90
_cell_angle_beta                 101.49(1)
_cell_angle_gamma                90
_cell_volume                     2343.76
loop_
_atom_site_label
_atom_site_type_symbol
_atom_site_fract_x
_atom_site_fract_y
_atom_site_fract_z
Tb1 Tb 0.1170 0.0000 0.0010
O1 O 0.0153(4) 0.0372(5) -0.1784(6)
O2 O 0.0057(5) 0.0556(6) -0.4052(8)
O3 O -0.1127(11) 0.1544(10) -0.5436(15)
O4 O 0.2351(4) -0.0512(5) -0.0842(6)
O5 O 0.2171(5) -0.0333(5) -0.3045(7)
O6 O 0.3614(10) -0.1290(11) 0.0513(14)
O7 O 0.1613(10) -0.1488(9) 0.1052(12)
O8 O 0.0803(4) -0.1466(5) -0.1013(7)
O9 O 0.2201(5) -0.3083(5) 0.1899(7)
O10 O 0.1711(4) 0.1340(4) -0.1013(6)
O11 O 0.0579(4) 0.1231(4) 0.1111(6)
C1 C -0.0237(9) 0.0616(13) -0.3022(18)
C2 C 0.2614(9) -0.0580(13) -0.1986(18)
C3 C 0.1261(16) -0.1912(5) 0.0035(25)
C4 C -0.1091(3) 0.0990(5) -0.3078(7)
C5 C -0.1504(3) 0.1351(5) -0.4334(7)
C6 C -0.2300(3) 0.1727(5) -0.4445(7)
C7 C -0.2683(3) 0.1740(5) -0.3301(7)
C8 C -0.2270(3) 0.1378(5) -0.2045(7)
C9 C -0.1474(3) 0.1003(5) -0.1933(7)
C10 C 0.3467(3) -0.1000(4) -0.1863(5)
C11 C 0.3913(3) -0.1410(4) -0.0669(5)
C12 C 0.4685(3) -0.1813(4) -0.0679(5)
C13 C 0.5011(3) -0.1807(4) -0.1883(5)
C14 C 0.4566(3) -0.1397(4) -0.3077(5)
C15 C 0.3794(3) -0.0994(4) -0.3067(5)
C16 C 0.1128(10) -0.2908(3) -0.0188(11)
C17 C 0.1639(10) -0.3430(3) 0.0813(11)
C18 C 0.1619(10) -0.4365(3) 0.0704(11)
C19 C 0.1087(10) -0.4776(3) -0.0407(11)
C20 C 0.0577(10) -0.4253(3) -0.1408(11)
C21 C 0.0597(10) -0.3319(3) -0.1298(11)
O2B O 0.0057(5) -0.0556(6) 0.0948(8)
O5B O 0.2171(5) 0.0333(5) 0.1955(7)
Tb1B Tb 0.1170 0.0000 -0.4990
O12 O 0.8374(6) 0.3459(7) 0.3492(10)
O13 O 0.9014(5) 0.1613(6) 0.1500(8)
loop_
_geom_bond_atom_site_label_1
_geom_bond_atom_site_label_2
_geom_bond_site_symmetry_1
_geom_bond_site_symmetry_2
Tb1 O1 1_555 1_555
O1 C1 1_555 1_555
O2 C1 1_555 1_555
O3 C5 1_555 1_555
O4 Tb1 1_555 1_555
O5 C2 1_555 1_555
O6 C11 1_555 1_555
O7 Tb1 1_555 1_555
O8 Tb1 1_555 1_555
O9 C17 1_555 1_555
O10 Tb1 1_555 1_555
O11 Tb1 1_555 1_555
C1 C4 1_555 1_555
C2 O4 1_555 1_555
C3 O7 1_555 1_555
C4 C5 1_555 1_555
C5 C6 1_555 1_555
C6 C7 1_555 1_555
C7 C8 1_555 1_555
C8 C9 1_555 1_555
C9 C4 1_555 1_555
C10 C2 1_555 1_555
C11 C10 1_555 1_555
C12 C11 1_555 1_555
C13 C12 1_555 1_555
C14 C13 1_555 1_555
C15 C10 1_555 1_555
C16 C3 1_555 1_555
C17 C16 1_555 1_555
C18 C17 1_555 1_555
C19 C18 1_555 1_555
C20 C19 1_555 1_555
C21 C16 1_555 1_555
O2B Tb1 1_555 1_555
O5B Tb1 1_555 1_555
Tb1B O2 1_555 1_555
O5 Tb1B 1_555 1_555
O8 C3 1_555 1_555
C14 C15 1_555 1_555
C20 C21 1_555 1_555

#END
