
#######################################################################
#
#                 Cambridge Crystallographic Data Centre
#                                CCDC 
#
#######################################################################
#
# If this CIF has been generated from an entry in the Cambridge 
# Structural Database, then it will include bibliographic, chemical, 
# crystal, experimental, refinement or atomic coordinate data resulting 
# from the CCDC's data processing and validation procedures.
#
#######################################################################

data_KIXFEC
_symmetry_cell_setting           monoclinic
_symmetry_space_group_name_H-M   'C c'
_symmetry_Int_Tables_number      9
_space_group_name_Hall           'C -2yc'
loop_
_symmetry_equiv_pos_site_id
_symmetry_equiv_pos_as_xyz
1 x,y,z
2 1/2+x,1/2+y,z
3 x,-y,1/2+z
4 1/2+x,1/2-y,1/2+z
_cell_length_a                   16.217(2)
_cell_length_b                   14.877(2)
_cell_length_c                   9.835(2)
_cell_angle_alpha                90
_cell_angle_beta                 101.46(1)
_cell_angle_gamma                90
_cell_volume                     2325.49
loop_
_atom_site_label
_atom_site_type_symbol
_atom_site_fract_x
_atom_site_fract_y
_atom_site_fract_z
Ho1 Ho 0.1170 0.0000 0.0010
O1 O 0.0147(6) 0.0393(7) -0.1759(8)
O2 O 0.0082(4) 0.0564(4) -0.4001(5)
O3 O -0.1139(6) 0.1529(5) -0.5438(8)
O4 O 0.2332(3) -0.0494(3) -0.0840(4)
O5 O 0.2157(7) -0.0300(6) -0.3081(8)
O6 O 0.3599(6) -0.1309(7) 0.0543(8)
O7 O 0.1599(3) -0.1499(3) 0.1002(4)
O8 O 0.0792(6) -0.1424(6) -0.1074(7)
O9 O 0.2167(4) -0.3061(3) 0.1885(6)
O10 O 0.1739(3) 0.1325(3) -0.0953(5)
O11 O 0.0609(3) 0.1247(3) 0.1063(4)
C1 C -0.0242(4) 0.0608(6) -0.3000(7)
C2 C 0.2583(7) -0.0573(7) -0.2000(11)
C3 C 0.1224(11) -0.1906(3) 0.0093(14)
C4 C -0.1115(2) 0.0952(3) -0.3106(4)
C5 C -0.1515 0.1334 -0.4357
C6 C -0.2306 0.1729 -0.4469
C7 C -0.2697 0.1741 -0.3329
C8 C -0.2297 0.1359 -0.2078
C9 C -0.1506 0.0965 -0.1966
C10 C 0.3421(2) -0.1016(3) -0.1889(4)
C11 C 0.3878 -0.1405 -0.0682
C12 C 0.4660 -0.1794 -0.0684
C13 C 0.4987 -0.1793 -0.1891
C14 C 0.4530 -0.1404 -0.3098
C15 C 0.3748 -0.1015 -0.3096
C16 C 0.1116(5) -0.2894(2) -0.0205(5)
C17 C 0.1610(5) -0.3433(2) 0.0798(5)
C18 C 0.1558(5) -0.4367(2) 0.0688(5)
C19 C 0.1012(5) -0.4762(2) -0.0425(5)
C20 C 0.0518(5) -0.4224(2) -0.1428(5)
C21 C 0.0570(5) -0.3290(2) -0.1318(5)
O2B O 0.0082(4) -0.0564(4) 0.0999(5)
O5B O 0.2157(7) 0.0300(6) 0.1919(8)
Ho1B Ho 0.1170 0.0000 -0.4990
O12 O 0.8350(8) 0.3432(6) 0.3550(11)
O13 O 0.9009(6) 0.1590(6) 0.1512(9)
loop_
_geom_bond_atom_site_label_1
_geom_bond_atom_site_label_2
_geom_bond_site_symmetry_1
_geom_bond_site_symmetry_2
Ho1 O1 1_555 1_555
O1 C1 1_555 1_555
O2 C1 1_555 1_555
O3 C5 1_555 1_555
O4 Ho1 1_555 1_555
O5 C2 1_555 1_555
O6 C11 1_555 1_555
O7 Ho1 1_555 1_555
O8 Ho1 1_555 1_555
O9 C17 1_555 1_555
O10 Ho1 1_555 1_555
O11 Ho1 1_555 1_555
C1 C4 1_555 1_555
C2 O4 1_555 1_555
C3 O7 1_555 1_555
C4 C5 1_555 1_555
C5 C6 1_555 1_555
C6 C7 1_555 1_555
C7 C8 1_555 1_555
C8 C9 1_555 1_555
C9 C4 1_555 1_555
C10 C2 1_555 1_555
C11 C10 1_555 1_555
C12 C11 1_555 1_555
C13 C12 1_555 1_555
C14 C13 1_555 1_555
C15 C10 1_555 1_555
C16 C3 1_555 1_555
C17 C16 1_555 1_555
C18 C17 1_555 1_555
C19 C18 1_555 1_555
C20 C19 1_555 1_555
C21 C16 1_555 1_555
O2B Ho1 1_555 1_555
O5B Ho1 1_555 1_555
Ho1B O2 1_555 1_555
O5 Ho1B 1_555 1_555
O8 C3 1_555 1_555
C14 C15 1_555 1_555
C20 C21 1_555 1_555

#END
