
#######################################################################
#
#                 Cambridge Crystallographic Data Centre
#                                CCDC 
#
#######################################################################
#
# If this CIF has been generated from an entry in the Cambridge 
# Structural Database, then it will include bibliographic, chemical, 
# crystal, experimental, refinement or atomic coordinate data resulting 
# from the CCDC's data processing and validation procedures.
#
#######################################################################

data_KIXWIX10
_symmetry_cell_setting           triclinic
_symmetry_space_group_name_H-M   'P -1'
_symmetry_Int_Tables_number      2
_space_group_name_Hall           '-P 1'
loop_
_symmetry_equiv_pos_site_id
_symmetry_equiv_pos_as_xyz
1 x,y,z
2 -x,-y,-z
_cell_length_a                   10.649(1)
_cell_length_b                   14.122(1)
_cell_length_c                   10.635(1)
_cell_angle_alpha                94.64(1)
_cell_angle_beta                 98.04(1)
_cell_angle_gamma                108.81(1)
_cell_volume                     1485.44
loop_
_atom_site_label
_atom_site_type_symbol
_atom_site_fract_x
_atom_site_fract_y
_atom_site_fract_z
Cr1 Cr -0.51516(5) 0.23851(4) -0.14666(5)
K1 K -0.02664(6) 0.25551(5) -0.35473(6)
O1 O -0.1412(2) 0.1268(2) -0.5849(2)
O2 O 0.0473(2) 0.3173(2) -0.5911(2)
O3 O 0.1426(2) 0.4531(2) -0.3620(2)
O4 O 0.1427(2) 0.3720(2) -0.1303(2)
O5 O -0.0283(2) 0.1755(2) -0.1254(2)
O6 O -0.1237(2) 0.0428(2) -0.3562(2)
O7 O -0.2323(2) 0.3107(2) -0.3222(2)
O8 O -0.7628(2) 0.2305(2) -0.3305(2)
O9 O -0.4732(3) 0.0742(2) -0.3187(3)
O10 O -0.2628(3) 0.2501(3) 0.0332(3)
O11 O -0.5594(3) 0.3944(2) 0.0389(2)
O12 O -0.6843(3) 0.0728(2) -0.0229(3)
C1 C -0.0945(4) 0.1586(4) -0.6974(3)
C2 C -0.0642(4) 0.2685(3) -0.6908(3)
C3 C 0.0938(4) 0.4229(3) -0.5887(4)
C4 C 0.1996(4) 0.4700(3) -0.4729(4)
C5 C 0.2379(4) 0.5018(3) -0.2494(4)
C6 C 0.1723(4) 0.4759(3) -0.1373(4)
C7 C 0.0904(4) 0.3414(3) -0.0206(4)
C8 C 0.0719(4) 0.2320(3) -0.0202(3)
C9 C -0.0539(4) 0.0712(3) -0.1320(4)
C10 C -0.1660(4) 0.0171(3) -0.2405(4)
C11 C -0.2257(4) -0.0061(3) -0.4648(4)
C12 C -0.1708(4) 0.0225(3) -0.5827(4)
C13 C -0.4273(3) 0.2966(2) -0.4660(3)
C14 C -0.4077(4) 0.2261(3) -0.5508(4)
C15 C -0.4788(5) 0.2020(3) -0.6747(4)
C16 C -0.5695(5) 0.2467(4) -0.7156(4)
C17 C -0.5903(5) 0.3155(4) -0.6332(4)
C18 C -0.5203(4) 0.3407(3) -0.5084(3)
C19 C -0.3404(3) 0.3275(2) -0.3344(3)
C20 C -0.3848(3) 0.3720(3) -0.2324(3)
C21 C -0.6676(3) 0.2351(2) -0.2622(3)
C22 C -0.4871(3) 0.1394(3) -0.2564(3)
C23 C -0.3568(4) 0.2463(3) -0.0349(3)
C24 C -0.5409(3) 0.3371(3) -0.0321(3)
C25 C -0.6176(3) 0.1377(3) -0.0700(3)
H1 H -0.0184 0.1428 -0.6952
H2 H -0.1498 0.1229 -0.7726
H3 H -0.1529 0.2859 -0.6674
H4 H -0.0376 0.2908 -0.7689
H5 H 0.0143 0.4414 -0.5833
H6 H 0.1309 0.4410 -0.6658
H7 H 0.2225 0.5354 -0.4798
H8 H 0.2634 0.4420 -0.4798
H9 H 0.2732 0.5768 -0.2529
H10 H 0.3088 0.4731 -0.2470
H11 H 0.0870 0.4890 -0.1342
H12 H 0.2370 0.5172 -0.0631
H13 H 0.1488 0.3815 0.0561
H14 H -0.0020 0.3484 -0.0233
H15 H 0.0299 0.2117 0.0585
H16 H 0.1554 0.2146 -0.0320
H17 H 0.0272 0.0580 -0.1435
H18 H -0.0896 0.0500 -0.0584
H19 H -0.2385 0.0404 -0.2316
H20 H -0.1878 -0.0544 -0.2370
H21 H -0.2518 -0.0738 -0.4678
H22 H -0.2968 0.0147 -0.4608
H23 H -0.0909 0.0025 -0.5845
H24 H -0.2410 -0.0113 -0.6547
H25 H -0.3408 0.2031 -0.5226
H26 H -0.4780 0.1538 -0.7243
H27 H -0.6227 0.2215 -0.7984
H28 H -0.6455 0.3520 -0.6528
H29 H -0.5323 0.3934 -0.4512
H30 H -0.3125 0.4115 -0.1651
H31 H -0.4397 0.4078 -0.2578
O8_2 O 0.2372(2) 0.2305(2) -0.3305(2)
K1_2 K -1.02664(6) 0.25551(5) -0.35473(6)
loop_
_geom_bond_atom_site_label_1
_geom_bond_atom_site_label_2
_geom_bond_site_symmetry_1
_geom_bond_site_symmetry_2
Cr1 C20 1_555 1_555
K1 O1 1_555 1_555
O1 C1 1_555 1_555
O2 K1 1_555 1_555
O3 K1 1_555 1_555
O4 K1 1_555 1_555
O5 K1 1_555 1_555
O6 K1 1_555 1_555
O7 K1 1_555 1_555
O8 C21 1_555 1_555
O9 C22 1_555 1_555
O10 C23 1_555 1_555
O11 C24 1_555 1_555
O12 C25 1_555 1_555
C1 C2 1_555 1_555
C2 O2 1_555 1_555
C3 O2 1_555 1_555
C4 O3 1_555 1_555
C5 O3 1_555 1_555
C6 O4 1_555 1_555
C7 O4 1_555 1_555
C8 O5 1_555 1_555
C9 O5 1_555 1_555
C10 O6 1_555 1_555
C11 O6 1_555 1_555
C12 O1 1_555 1_555
C13 C14 1_555 1_555
C14 C15 1_555 1_555
C15 C16 1_555 1_555
C16 C17 1_555 1_555
C17 C18 1_555 1_555
C18 C13 1_555 1_555
C19 O7 1_555 1_555
C20 C19 1_555 1_555
C21 Cr1 1_555 1_555
C22 Cr1 1_555 1_555
C23 Cr1 1_555 1_555
C24 Cr1 1_555 1_555
C25 Cr1 1_555 1_555
H1 C1 1_555 1_555
H2 C1 1_555 1_555
H3 C2 1_555 1_555
H4 C2 1_555 1_555
H5 C3 1_555 1_555
H6 C3 1_555 1_555
H7 C4 1_555 1_555
H8 C4 1_555 1_555
H9 C5 1_555 1_555
H10 C5 1_555 1_555
H11 C6 1_555 1_555
H12 C6 1_555 1_555
H13 C7 1_555 1_555
H14 C7 1_555 1_555
H15 C8 1_555 1_555
H16 C8 1_555 1_555
H17 C9 1_555 1_555
H18 C9 1_555 1_555
H19 C10 1_555 1_555
H20 C10 1_555 1_555
H21 C11 1_555 1_555
H22 C11 1_555 1_555
H23 C12 1_555 1_555
H24 C12 1_555 1_555
H25 C14 1_555 1_555
H26 C15 1_555 1_555
H27 C16 1_555 1_555
H28 C17 1_555 1_555
H29 C18 1_555 1_555
H30 C20 1_555 1_555
H31 C20 1_555 1_555
O8_2 K1 1_555 1_555
K1_2 O8 1_555 1_555
C3 C4 1_555 1_555
C5 C6 1_555 1_555
C7 C8 1_555 1_555
C9 C10 1_555 1_555
C11 C12 1_555 1_555
C13 C19 1_555 1_555

#END
