
#######################################################################
#
#                 Cambridge Crystallographic Data Centre
#                                CCDC 
#
#######################################################################
#
# If this CIF has been generated from an entry in the Cambridge 
# Structural Database, then it will include bibliographic, chemical, 
# crystal, experimental, refinement or atomic coordinate data resulting 
# from the CCDC's data processing and validation procedures.
#
#######################################################################

data_KIXXAS
_symmetry_cell_setting           monoclinic
_symmetry_space_group_name_H-M   'C 2/c'
_symmetry_Int_Tables_number      15
_space_group_name_Hall           '-C 2yn'
loop_
_symmetry_equiv_pos_site_id
_symmetry_equiv_pos_as_xyz
1 x,y,z
2 -x,y,1/2-z
3 1/2+x,1/2+y,z
4 1/2-x,1/2+y,1/2-z
5 -x,-y,-z
6 x,-y,1/2+z
7 1/2-x,1/2-y,-z
8 1/2+x,1/2-y,1/2+z
_cell_length_a                   22.1032(5)
_cell_length_b                   6.9925(2)
_cell_length_c                   12.3366(3)
_cell_angle_alpha                90
_cell_angle_beta                 94.160(3)
_cell_angle_gamma                90
_cell_volume                     1901.68
loop_
_atom_site_label
_atom_site_type_symbol
_atom_site_fract_x
_atom_site_fract_y
_atom_site_fract_z
Ni1 Ni 0.00000 0.44790(12) 0.25000
O1 O 0.13672(19) 0.3246(7) 0.3338(3)
O2 O 0.08397(17) 0.4511(5) 0.1900(3)
O3 O 0.3999(2) 0.3724(9) 0.0460(4)
O4 O 0.0372(2) 0.4332(6) 0.4119(3)
N1 N 0.00000 0.1464(8) 0.25000
N2 N 0.00000 -0.2500(8) 0.25000
C1 C 0.1321(2) 0.3907(7) 0.2394(5)
C2 C 0.1890(2) 0.3983(7) 0.1787(5)
C3 C 0.1889(3) 0.4908(8) 0.0787(5)
C4 C 0.2420(3) 0.5042(9) 0.0271(5)
C5 C 0.2955(3) 0.4294(8) 0.0736(5)
C6 C 0.2958(3) 0.3342(8) 0.1733(5)
C7 C 0.2424(2) 0.3196(8) 0.2243(5)
C8 C 0.3520(3) 0.4471(10) 0.0178(6)
C9 C 0.0252(3) 0.0463(7) 0.1723(5)
C10 C 0.0250(2) -0.1506(7) 0.1733(4)
H1 H 0.15320 0.54320 0.04700
H2 H 0.24170 0.56450 -0.04010
H3 H 0.33140 0.28130 0.20480
H4 H 0.24240 0.25590 0.29040
H5 H 0.35070 0.52240 -0.04450
H6 H 0.04310 0.11080 0.11700
H7 H 0.04300 -0.21600 0.11840
H8 H 0.040(4) 0.545(5) 0.430(7)
H9 H 0.0721(18) 0.396(13) 0.407(7)
C9A C -0.0252(3) 0.0463(7) 0.3277(5)
H6A H -0.04310 0.11080 0.38300
C10A C -0.0250(2) -0.1506(7) 0.3267(4)
H7A H -0.04300 -0.21600 0.38160
O1A O -0.13672(19) 0.3246(7) 0.1662(3)
O2A O -0.08397(17) 0.4511(5) 0.3100(3)
O3A O -0.3999(2) 0.3724(9) 0.4540(4)
O4A O -0.0372(2) 0.4332(6) 0.0881(3)
C1A C -0.1321(2) 0.3907(7) 0.2606(5)
C2A C -0.1890(2) 0.3983(7) 0.3213(5)
C3A C -0.1889(3) 0.4908(8) 0.4213(5)
C4A C -0.2420(3) 0.5042(9) 0.4729(5)
C5A C -0.2955(3) 0.4294(8) 0.4264(5)
C6A C -0.2958(3) 0.3342(8) 0.3267(5)
C7A C -0.2424(2) 0.3196(8) 0.2757(5)
C8A C -0.3520(3) 0.4471(10) 0.4822(6)
H1A H -0.15320 0.54320 0.45300
H2A H -0.24170 0.56450 0.54010
H3A H -0.33140 0.28130 0.29520
H4A H -0.24240 0.25590 0.20960
H5A H -0.35070 0.52240 0.54450
H8A H -0.040(4) 0.545(5) 0.070(7)
H9A H -0.0721(18) 0.396(13) 0.093(7)
Ni1_2 Ni 0.00000 -0.55210(12) 0.25000
N2_2 N 0.00000 0.7500(8) 0.25000
loop_
_geom_bond_atom_site_label_1
_geom_bond_atom_site_label_2
_geom_bond_site_symmetry_1
_geom_bond_site_symmetry_2
Ni1 O2 1_555 1_555
O1 C1 1_555 1_555
O2 C1 1_555 1_555
O3 C8 1_555 1_555
O4 Ni1 1_555 1_555
N1 Ni1 1_555 1_555
N2 C10 1_555 1_555
C1 C2 1_555 1_555
C2 C3 1_555 1_555
C3 C4 1_555 1_555
C4 C5 1_555 1_555
C5 C6 1_555 1_555
C6 C7 1_555 1_555
C7 C2 1_555 1_555
C8 C5 1_555 1_555
C9 N1 1_555 1_555
C10 C9 1_555 1_555
H1 C3 1_555 1_555
H2 C4 1_555 1_555
H3 C6 1_555 1_555
H4 C7 1_555 1_555
H5 C8 1_555 1_555
H6 C9 1_555 1_555
H7 C10 1_555 1_555
H8 O4 1_555 1_555
H9 O4 1_555 1_555
C9A N1 1_555 1_555
H6A C9A 1_555 1_555
C10A N2 1_555 1_555
H7A C10A 1_555 1_555
O1A C1A 1_555 1_555
O2A Ni1 1_555 1_555
O3A C8A 1_555 1_555
O4A Ni1 1_555 1_555
C1A O2A 1_555 1_555
C2A C1A 1_555 1_555
C3A C2A 1_555 1_555
C4A C3A 1_555 1_555
C5A C4A 1_555 1_555
C6A C5A 1_555 1_555
C7A C2A 1_555 1_555
C8A C5A 1_555 1_555
H1A C3A 1_555 1_555
H2A C4A 1_555 1_555
H3A C6A 1_555 1_555
H4A C7A 1_555 1_555
H5A C8A 1_555 1_555
H8A O4A 1_555 1_555
H9A O4A 1_555 1_555
Ni1_2 N2 1_555 1_555
N2_2 Ni1 1_555 1_555
C9A C10A 1_555 1_555
C6A C7A 1_555 1_555

#END
