
#######################################################################
#
#                 Cambridge Crystallographic Data Centre
#                                CCDC 
#
#######################################################################
#
# If this CIF has been generated from an entry in the Cambridge 
# Structural Database, then it will include bibliographic, chemical, 
# crystal, experimental, refinement or atomic coordinate data resulting 
# from the CCDC's data processing and validation procedures.
#
#######################################################################

data_KIXZUO
_symmetry_cell_setting           monoclinic
_symmetry_space_group_name_H-M   'P 2/n'
_symmetry_Int_Tables_number      13
_space_group_name_Hall           '-P 2yac'
loop_
_symmetry_equiv_pos_site_id
_symmetry_equiv_pos_as_xyz
1 x,y,z
2 1/2-x,y,1/2-z
3 -x,-y,-z
4 1/2+x,-y,1/2+z
_cell_length_a                   12.2794(14)
_cell_length_b                   9.1360(10)
_cell_length_c                   16.2151(17)
_cell_angle_alpha                90
_cell_angle_beta                 103.224(4)
_cell_angle_gamma                90
_cell_volume                     1770.85
loop_
_atom_site_label
_atom_site_type_symbol
_atom_site_fract_x
_atom_site_fract_y
_atom_site_fract_z
Ni1 Ni -0.2500 1.71451(4) 0.2500
O1 O -0.13980(14) 1.71129(18) 0.16646(11)
N1 N -0.34664(15) 0.8769(2) 0.17419(12)
N2 N -0.33381(16) 1.5495(2) 0.16650(12)
N3 N -0.45750(16) 0.8745(2) 0.17331(13)
H1 H -0.4897 0.8060 0.1952
N4 N -0.32205(17) 1.5671(2) 0.08565(12)
H2 H -0.2942 1.6442 0.0680
O2 O 0.04050(15) 1.6872(2) 0.23065(13)
C1 C -0.3824(2) 1.4182(3) 0.16683(15)
C2 C -0.35867(19) 1.4507(3) 0.03643(15)
C3 C -0.3995(2) 1.3523(3) 0.08596(15)
C4 C -0.4328(2) 1.0761(3) 0.10618(16)
C5 C -0.33090(19) 0.9991(3) 0.13302(14)
C6 C 0.0380(2) 1.8593(3) 0.02785(18)
C7 C -0.0398(2) 1.6773(3) 0.16720(17)
C8 C -0.5103(2) 0.9918(3) 0.13424(16)
C9 C -0.2182(2) 1.0397(3) 0.11954(17)
H3 H -0.1629 1.0269 0.1715
H4 H -0.2189 1.1402 0.1020
H5 H -0.2003 0.9782 0.0765
C10 C -0.4598(3) 1.2129(3) 0.05379(18)
H6 H -0.5394 1.2310 0.0457
H7 H -0.4458 1.1928 -0.0016
C11 C -0.4150(3) 1.3612(3) 0.24420(17)
H8 H -0.3672 1.4031 0.2937
H9 H -0.4076 1.2566 0.2462
H10 H -0.4913 1.3874 0.2423
C12 C 0.0767(2) 1.7076(3) 0.0571(2)
H11 H 0.1419 1.7148 0.1038
H12 H 0.0988 1.6561 0.0112
C13 C -0.0144(2) 1.6189(3) 0.08571(18)
H13 H -0.0824 1.6211 0.0412
H14 H 0.0095 1.5178 0.0942
C14 C -0.3528(2) 1.4448(3) -0.05485(16)
H15 H -0.3090 1.5255 -0.0671
H16 H -0.4270 1.4509 -0.0901
H17 H -0.3188 1.3544 -0.0657
C15 C -0.0276(2) 1.8813(4) -0.05387(18)
H18 H -0.0468 1.8021 -0.0904
C16 C 0.0642(2) 1.9793(3) 0.08070(18)
H19 H 0.1072 1.9663 0.1354
C17 C -0.6334(2) 1.0120(4) 0.1254(2)
H20 H -0.6593 0.9449 0.1623
H21 H -0.6720 0.9935 0.0679
H22 H -0.6480 1.1106 0.1405
O1B O 0.13980(14) 2.28871(18) -0.16646(11)
O2B O -0.04050(15) 2.3128(2) -0.23065(13)
C6B C -0.0380(2) 2.1407(3) -0.02785(18)
C7B C 0.0398(2) 2.3227(3) -0.16720(17)
C12B C -0.0767(2) 2.2924(3) -0.0571(2)
H11B H -0.1419 2.2852 -0.1038
H12B H -0.0988 2.3439 -0.0112
C13B C 0.0144(2) 2.3811(3) -0.08571(18)
H13B H 0.0824 2.3789 -0.0412
H14B H -0.0095 2.4822 -0.0942
C15B C 0.0276(2) 2.1187(4) 0.05387(18)
H18B H 0.0468 2.1979 0.0904
C16B C -0.0642(2) 2.0207(3) -0.08070(18)
H19B H -0.1072 2.0337 -0.1354
N1A N -0.15336(15) 0.8769(2) 0.32581(12)
N2A N -0.16619(16) 1.5495(2) 0.33350(12)
N3A N -0.04250(16) 0.8745(2) 0.32669(13)
H1A H -0.0103 0.8060 0.3048
N4A N -0.17795(17) 1.5671(2) 0.41435(12)
H2A H -0.2058 1.6442 0.4320
C1A C -0.1176(2) 1.4182(3) 0.33317(15)
C2A C -0.14133(19) 1.4507(3) 0.46357(15)
C3A C -0.1005(2) 1.3523(3) 0.41404(15)
C4A C -0.0672(2) 1.0761(3) 0.39382(16)
C5A C -0.16910(19) 0.9991(3) 0.36698(14)
C8A C 0.0103(2) 0.9918(3) 0.36576(16)
C9A C -0.2818(2) 1.0397(3) 0.38046(17)
H3A H -0.3371 1.0269 0.3285
H4A H -0.2811 1.1402 0.3980
H5A H -0.2997 0.9782 0.4235
C10A C -0.0402(3) 1.2129(3) 0.44621(18)
H6A H 0.0394 1.2310 0.4543
H7A H -0.0542 1.1928 0.5016
C11A C -0.0850(3) 1.3612(3) 0.25580(17)
H8A H -0.1328 1.4031 0.2063
H9A H -0.0924 1.2566 0.2538
H10A H -0.0087 1.3874 0.2577
C14A C -0.1472(2) 1.4448(3) 0.55485(16)
H15A H -0.1910 1.5255 0.5671
H16A H -0.0730 1.4509 0.5901
H17A H -0.1812 1.3544 0.5657
C17A C 0.1334(2) 1.0120(4) 0.3746(2)
H20A H 0.1593 0.9449 0.3377
H21A H 0.1720 0.9935 0.4321
H22A H 0.1480 1.1106 0.3595
Ni1_2 Ni -0.2500 0.71451(4) 0.2500
Ni1B Ni 0.2500 2.28549(4) -0.2500
O1A O -0.36020(14) 1.71129(18) 0.33354(11)
N1_2 N -0.34664(15) 1.8769(2) 0.17419(12)
N1A_2 N -0.15336(15) 1.8769(2) 0.32581(12)
O3 O -0.7500 2.5548(8) 0.2500
O4 O -0.7500 2.305(3) 0.2500
H23 H -0.7760 2.3490 0.1707
H23A H -0.7240 2.3490 0.3293
loop_
_geom_bond_atom_site_label_1
_geom_bond_atom_site_label_2
_geom_bond_site_symmetry_1
_geom_bond_site_symmetry_2
Ni1 O1 1_555 1_555
O1 C7 1_555 1_555
N1 N3 1_555 1_555
N2 Ni1 1_555 1_555
N3 H1 1_555 1_555
N4 N2 1_555 1_555
H2 N4 1_555 1_555
O2 C7 1_555 1_555
C1 N2 1_555 1_555
C2 N4 1_555 1_555
C3 C1 1_555 1_555
C4 C5 1_555 1_555
C5 N1 1_555 1_555
C6 C12 1_555 1_555
C7 C13 1_555 1_555
C8 N3 1_555 1_555
C9 C5 1_555 1_555
H3 C9 1_555 1_555
H4 C9 1_555 1_555
H5 C9 1_555 1_555
C10 C3 1_555 1_555
H6 C10 1_555 1_555
H7 C10 1_555 1_555
C11 C1 1_555 1_555
H8 C11 1_555 1_555
H9 C11 1_555 1_555
H10 C11 1_555 1_555
C12 H11 1_555 1_555
H12 C12 1_555 1_555
C13 C12 1_555 1_555
H13 C13 1_555 1_555
H14 C13 1_555 1_555
C14 C2 1_555 1_555
H15 C14 1_555 1_555
H16 C14 1_555 1_555
H17 C14 1_555 1_555
C15 C6 1_555 1_555
H18 C15 1_555 1_555
C16 C6 1_555 1_555
H19 C16 1_555 1_555
C17 C8 1_555 1_555
H20 C17 1_555 1_555
H21 C17 1_555 1_555
H22 C17 1_555 1_555
O4 H23 1_555 1_555
O1B C7B 1_555 1_555
O2B C7B 1_555 1_555
C6B C12B 1_555 1_555
C7B C13B 1_555 1_555
C12B H11B 1_555 1_555
H12B C12B 1_555 1_555
C13B C12B 1_555 1_555
H13B C13B 1_555 1_555
H14B C13B 1_555 1_555
C15B C16 1_555 1_555
H18B C15B 1_555 1_555
C16B C15 1_555 1_555
H19B C16B 1_555 1_555
N1A N3A 1_555 1_555
N2A Ni1 1_555 1_555
N3A H1A 1_555 1_555
N4A N2A 1_555 1_555
H2A N4A 1_555 1_555
C1A N2A 1_555 1_555
C2A N4A 1_555 1_555
C3A C1A 1_555 1_555
C4A C5A 1_555 1_555
C5A N1A 1_555 1_555
C8A N3A 1_555 1_555
C9A C5A 1_555 1_555
H3A C9A 1_555 1_555
H4A C9A 1_555 1_555
H5A C9A 1_555 1_555
C10A C3A 1_555 1_555
H6A C10A 1_555 1_555
H7A C10A 1_555 1_555
C11A C1A 1_555 1_555
H8A C11A 1_555 1_555
H9A C11A 1_555 1_555
H10A C11A 1_555 1_555
C14A C2A 1_555 1_555
H15A C14A 1_555 1_555
H16A C14A 1_555 1_555
H17A C14A 1_555 1_555
C17A C8A 1_555 1_555
H20A C17A 1_555 1_555
H21A C17A 1_555 1_555
H22A C17A 1_555 1_555
Ni1_2 N1 1_555 1_555
Ni1B O1B 1_555 1_555
O1A Ni1 1_555 1_555
N1_2 Ni1 1_555 1_555
N1A_2 Ni1 1_555 1_555
H23A O4 1_555 1_555
C2 C3 1_555 1_555
C4 C8 1_555 1_555
C4 C10 1_555 1_555
C6B C15B 1_555 1_555
C6B C16B 1_555 1_555
N1A Ni1_2 1_555 1_555
C2A C3A 1_555 1_555
C4A C8A 1_555 1_555
C4A C10A 1_555 1_555

#END
