
#######################################################################
#
#                 Cambridge Crystallographic Data Centre
#                                CCDC 
#
#######################################################################
#
# If this CIF has been generated from an entry in the Cambridge 
# Structural Database, then it will include bibliographic, chemical, 
# crystal, experimental, refinement or atomic coordinate data resulting 
# from the CCDC's data processing and validation procedures.
#
#######################################################################

data_KIYCOM
_symmetry_cell_setting           monoclinic
_symmetry_space_group_name_H-M   'P 21/n'
_symmetry_Int_Tables_number      14
_space_group_name_Hall           '-P 2yn'
loop_
_symmetry_equiv_pos_site_id
_symmetry_equiv_pos_as_xyz
1 x,y,z
2 1/2-x,1/2+y,1/2-z
3 -x,-y,-z
4 1/2+x,1/2-y,1/2+z
_cell_length_a                   8.6131(9)
_cell_length_b                   13.4894(13)
_cell_length_c                   22.967(3)
_cell_angle_alpha                90
_cell_angle_beta                 97.547(7)
_cell_angle_gamma                90
_cell_volume                     2645.32
loop_
_atom_site_label
_atom_site_type_symbol
_atom_site_fract_x
_atom_site_fract_y
_atom_site_fract_z
Cu1 Cu 0.36318(6) 0.59591(4) 0.00932(2)
Cu2 Cu 0.50240(6) 0.81859(4) -0.00367(2)
Cu3 Cu 0.25244(6) 0.37737(4) -0.00595(2)
N1 N -0.9168(5) 1.3293(3) 0.2208(2)
N2 N -0.2081(4) 0.9773(3) 0.23971(15)
N3 N 0.3359(4) 0.8680(2) 0.04623(16)
N4 N 0.6757(4) 0.7467(3) -0.04160(16)
N5 N 0.7761(4) 0.7968(3) -0.06075(15)
N6 N 0.8686(5) 0.8422(3) -0.07991(17)
N7 N 0.3465(4) 0.7167(3) -0.04030(15)
N8 N 0.3015(4) 0.7168(3) -0.09292(16)
N9 N 0.2555(6) 0.7185(3) -0.14165(18)
N10 N 0.6619(4) 0.9123(3) 0.03306(17)
N11 N 0.6366(4) 0.9893(3) 0.05676(16)
N12 N 0.6162(5) 1.0631(3) 0.08081(16)
N13 N 0.5418(4) 0.6640(3) 0.05885(16)
N14 N 0.5578(4) 0.6771(2) 0.11049(16)
N15 N 0.5767(5) 0.6942(3) 0.15966(17)
N16 N 0.1780(4) 0.6472(3) 0.06945(16)
N17 N 0.0450(4) 0.6662(2) 0.06248(15)
N18 N -0.0884(4) 0.6904(3) 0.05973(17)
N19 N 0.4007(4) 0.4627(2) 0.04837(15)
N20 N 0.4143(4) 0.4542(3) 0.10131(17)
N21 N 0.4302(6) 0.4464(3) 0.15100(18)
N22 N 0.2115(4) 0.5141(3) -0.04600(15)
N23 N 0.0818(4) 0.5503(3) -0.05769(15)
N24 N -0.0401(4) 0.5846(3) -0.06994(17)
C1 C -0.8126(6) 1.2753(4) 0.2275(2)
C2 C -0.6851(5) 1.2048(3) 0.2404(2)
C3 C -0.5726(6) 1.1964(4) 0.2036(2)
H1 H -0.5777 1.2357 0.1701
C4 C -0.6813(6) 1.1454(4) 0.2892(2)
H2 H -0.7595 1.1505 0.3134
C5 C -0.5597(6) 1.0776(4) 0.3022(2)
H3 H -0.5570 1.0371 0.3351
C6 C -0.4510(6) 1.1290(3) 0.2166(2)
H4 H -0.3748 1.1234 0.1916
C7 C -0.4419(5) 1.0701(3) 0.26626(18)
C8 C -0.3103(5) 0.9981(3) 0.28581(18)
H5 H -0.2465 1.0249 0.3201
H6 H -0.3550 0.9362 0.2972
C9 C -0.2254(5) 0.8932(3) 0.20784(19)
H7 H -0.3035 0.8483 0.2139
C10 C -0.0969(5) 1.0447(3) 0.2305(2)
H8 H -0.0884 1.1034 0.2520
C11 C 0.0026(6) 1.0270(4) 0.1900(2)
H9 H 0.0786 1.0736 0.1841
C12 C -0.1273(5) 0.8735(3) 0.1660(2)
H10 H -0.1408 0.8158 0.1437
C13 C -0.0090(5) 0.9395(3) 0.15744(18)
C14 C 0.1085(5) 0.9175(3) 0.11710(19)
C15 C 0.0679(5) 0.8981(3) 0.0581(2)
H11 H -0.0361 0.9015 0.0412
C16 C 0.2665(5) 0.9143(3) 0.14004(19)
H12 H 0.2979 0.9285 0.1794
C17 C 0.3755(5) 0.8898(3) 0.10367(19)
H13 H 0.4807 0.8881 0.1193
C18 C 0.1848(5) 0.8733(3) 0.02442(18)
H14 H 0.1564 0.8598 -0.0153
Cu1B Cu 0.63682(6) 0.40409(4) -0.00932(2)
Cu2B Cu 0.49760(6) 1.18141(4) 0.00367(2)
Cu3B Cu -0.25244(6) 0.62263(4) 0.00595(2)
Cu3B_2 Cu 0.74756(6) 0.62263(4) 0.00595(2)
N4B N 0.3243(4) 0.2533(3) 0.04160(16)
N12B N 0.3838(5) 0.9369(3) -0.08081(16)
N13B N 0.4582(4) 0.3360(3) -0.05885(16)
N18B N 0.0884(4) 0.3096(3) -0.05973(17)
N19B N 0.5993(4) 0.5373(2) -0.04837(15)
N24B N 0.0401(4) 0.4154(3) 0.06994(17)
loop_
_geom_bond_atom_site_label_1
_geom_bond_atom_site_label_2
_geom_bond_site_symmetry_1
_geom_bond_site_symmetry_2
Cu1 N7 1_555 1_555
Cu2 N3 1_555 1_555
Cu3 N19 1_555 1_555
N1 C1 1_555 1_555
N2 C8 1_555 1_555
N3 C17 1_555 1_555
N4 Cu2 1_555 1_555
N5 N4 1_555 1_555
N6 N5 1_555 1_555
N7 Cu2 1_555 1_555
N8 N7 1_555 1_555
N9 N8 1_555 1_555
N10 Cu2 1_555 1_555
N11 N10 1_555 1_555
N12 N11 1_555 1_555
N13 Cu1 1_555 1_555
N14 N13 1_555 1_555
N15 N14 1_555 1_555
N16 Cu1 1_555 1_555
N17 N16 1_555 1_555
N18 N17 1_555 1_555
N19 Cu1 1_555 1_555
N20 N19 1_555 1_555
N21 N20 1_555 1_555
N22 Cu1 1_555 1_555
N23 N22 1_555 1_555
N24 N23 1_555 1_555
C1 C2 1_555 1_555
C2 C3 1_555 1_555
C3 H1 1_555 1_555
C4 C2 1_555 1_555
H2 C4 1_555 1_555
C5 C4 1_555 1_555
H3 C5 1_555 1_555
C6 C3 1_555 1_555
H4 C6 1_555 1_555
C7 C5 1_555 1_555
C8 C7 1_555 1_555
H5 C8 1_555 1_555
H6 C8 1_555 1_555
C9 N2 1_555 1_555
H7 C9 1_555 1_555
C10 N2 1_555 1_555
H8 C10 1_555 1_555
C11 C10 1_555 1_555
H9 C11 1_555 1_555
C12 C9 1_555 1_555
H10 C12 1_555 1_555
C13 C11 1_555 1_555
C14 C13 1_555 1_555
C15 C14 1_555 1_555
H11 C15 1_555 1_555
C16 C14 1_555 1_555
H12 C16 1_555 1_555
C17 C16 1_555 1_555
H13 C17 1_555 1_555
C18 N3 1_555 1_555
H14 C18 1_555 1_555
Cu1B N19 1_555 1_555
Cu2B N12 1_555 1_555
Cu3B N18 1_555 1_555
Cu3B_2 N4 1_555 1_555
N4B Cu3 1_555 1_555
N12B Cu2 1_555 1_555
N13B Cu3 1_555 1_555
N18B Cu3 1_555 1_555
N19B Cu1 1_555 1_555
N24B Cu3 1_555 1_555
Cu2 N13 1_555 1_555
Cu3 N22 1_555 1_555
N13 Cu3B_2 1_555 1_555
N24 Cu3B 1_555 1_555
C6 C7 1_555 1_555
C12 C13 1_555 1_555
C15 C18 1_555 1_555
Cu1B N13B 1_555 1_555
Cu1B N19B 1_555 1_555
Cu3B_2 N19B 1_555 1_555

#END
