
#######################################################################
#
#                 Cambridge Crystallographic Data Centre
#                                CCDC 
#
#######################################################################
#
# If this CIF has been generated from an entry in the Cambridge 
# Structural Database, then it will include bibliographic, chemical, 
# crystal, experimental, refinement or atomic coordinate data resulting 
# from the CCDC's data processing and validation procedures.
#
#######################################################################

data_KIYCEC
_symmetry_cell_setting           monoclinic
_symmetry_space_group_name_H-M   'C 2/c'
_symmetry_Int_Tables_number      15
_space_group_name_Hall           '-C 2yn'
loop_
_symmetry_equiv_pos_site_id
_symmetry_equiv_pos_as_xyz
1 x,y,z
2 -x,y,1/2-z
3 1/2+x,1/2+y,z
4 1/2-x,1/2+y,1/2-z
5 -x,-y,-z
6 x,-y,1/2+z
7 1/2-x,1/2-y,-z
8 1/2+x,1/2-y,1/2+z
_cell_length_a                   11.2796(5)
_cell_length_b                   16.9872(8)
_cell_length_c                   33.1264(17)
_cell_angle_alpha                90
_cell_angle_beta                 92.110(4)
_cell_angle_gamma                90
_cell_volume                     6343.01
loop_
_atom_site_label
_atom_site_type_symbol
_atom_site_fract_x
_atom_site_fract_y
_atom_site_fract_z
Co1 Co 0.65653(4) 0.70294(2) 0.027159(13)
Co2 Co 0.45939(4) 0.61260(3) 0.086855(13)
O1 O 0.4301(2) 0.66602(15) 0.14497(7)
O2 O 0.5031(2) 0.54642(16) 0.14326(7)
O3 O 0.3793(2) 0.70281(14) 0.05654(8)
O4 O 0.5162(2) 0.76962(16) 0.02363(9)
O5 O 0.0215(2) 1.03224(13) 0.04864(7)
O6 O 0.1506(2) 1.09333(13) 0.00904(8)
N1 N -0.3196(9) 0.0428(8) 0.2879(3)
N2 N -0.2510(3) 0.3884(2) 0.14449(10)
N3 N 0.2910(3) 0.55299(17) 0.08702(9)
N4 N 0.6347(3) 0.66739(19) 0.08783(9)
N5 N 0.6725(3) 0.7037(2) 0.11575(10)
N6 N 0.7034(5) 0.7432(3) 0.14307(14)
N7 N 0.8117(3) 0.76082(18) 0.03549(9)
N8 N 0.8873(3) 0.7539(2) 0.06122(10)
N9 N 0.9627(4) 0.7485(3) 0.08537(14)
C1 C -0.3252(8) 0.0987(8) 0.2682(3)
C2 C -0.3363(6) 0.1698(7) 0.2427(2)
C3 C -0.3764(7) 0.1562(5) 0.2044(2)
H1 H -0.3968 0.1055 0.1961
C4 C -0.3070(7) 0.2446(8) 0.2551(2)
H2 H -0.2809 0.2536 0.2816
C5 C -0.3161(6) 0.3061(5) 0.22847(19)
H3 H -0.2952 0.3566 0.2370
C6 C -0.3867(5) 0.2195(4) 0.17732(17)
H4 H -0.4150 0.2104 0.1510
C7 C -0.3562(4) 0.2940(3) 0.18878(14)
C8 C -0.3670(4) 0.3584(3) 0.15847(16)
H5 H -0.4101 0.4017 0.1701
H6 H -0.4134 0.3394 0.1352
C9 C -0.1533(4) 0.3421(2) 0.14416(13)
H7 H -0.1572 0.2905 0.1534
C10 C -0.2474(3) 0.4621(2) 0.13031(13)
H8 H -0.3154 0.4931 0.1303
C11 C -0.0488(4) 0.3709(2) 0.13028(13)
H9 H 0.0178 0.3386 0.1303
C12 C -0.1453(4) 0.4922(2) 0.11582(14)
H10 H -0.1451 0.5432 0.1056
C13 C -0.0410(3) 0.4478(2) 0.11615(11)
C14 C 0.0723(3) 0.4830(2) 0.10360(11)
C15 C 0.0857(4) 0.5632(2) 0.09999(16)
H11 H 0.0209 0.5961 0.1032
C16 C 0.1719(4) 0.4386(3) 0.09570(19)
H12 H 0.1678 0.3840 0.0958
C17 C 0.2781(4) 0.4761(3) 0.08757(17)
H13 H 0.3435 0.4450 0.0822
C18 C 0.1935(4) 0.5948(2) 0.09179(16)
H14 H 0.1987 0.6492 0.0894
C19 C 0.4717(3) 0.6060(2) 0.16284(11)
C20 C 0.4848(3) 0.6062(2) 0.20820(11)
C21 C 0.4916(4) 0.6759(2) 0.22946(12)
H15 H 0.4846 0.7235 0.2157
C22 C 0.4936(5) 0.5363(2) 0.22907(12)
H16 H 0.4911 0.4888 0.2151
C23 C 0.4145(3) 0.7615(2) 0.03790(11)
C24 C 0.3318(3) 0.82977(19) 0.03158(10)
C25 C 0.3734(3) 0.8991(2) 0.01494(11)
H17 H 0.4505 0.9017 0.0060
C26 C 0.2154(3) 0.82530(19) 0.04378(11)
H18 H 0.1865 0.7783 0.0539
C27 C 0.1427(3) 0.89049(19) 0.04086(11)
H19 H 0.0649 0.8873 0.0492
C28 C 0.3004(3) 0.9642(2) 0.01175(11)
H20 H 0.3280 1.0104 0.0004
C29 C 0.1850(3) 0.96083(19) 0.02555(10)
C30 C 0.1124(3) 1.03435(19) 0.02782(10)
O1A O 0.5699(2) 0.66602(15) 0.35503(7)
O2A O 0.4969(2) 0.54642(16) 0.35674(7)
C19A C 0.5283(3) 0.6060(2) 0.33716(11)
C20A C 0.5152(3) 0.6062(2) 0.29180(11)
C21A C 0.5084(4) 0.6759(2) 0.27054(12)
H15A H 0.5154 0.7235 0.2843
C22A C 0.5064(5) 0.5363(2) 0.27093(12)
H16A H 0.5089 0.4888 0.2849
Co1A Co 0.34347(4) 0.70294(2) 0.472841(13)
Co2A Co 0.54061(4) 0.61260(3) 0.413145(13)
O3A O 0.6207(2) 0.70281(14) 0.44346(8)
O4A O 0.4838(2) 0.76962(16) 0.47637(9)
O5A O 0.9785(2) 1.03224(13) 0.45136(7)
O6A O 0.8494(2) 1.09333(13) 0.49096(8)
N1A N 1.3196(9) 0.0428(8) 0.2121(3)
N2A N 1.2510(3) 0.3884(2) 0.35551(10)
N3A N 0.7090(3) 0.55299(17) 0.41298(9)
N4A N 0.3653(3) 0.66739(19) 0.41217(9)
N5A N 0.3275(3) 0.7037(2) 0.38425(10)
N6A N 0.2966(5) 0.7432(3) 0.35693(14)
N7A N 0.1883(3) 0.76082(18) 0.46451(9)
N8A N 0.1127(3) 0.7539(2) 0.43878(10)
N9A N 0.0373(4) 0.7485(3) 0.41463(14)
C1A C 1.3252(8) 0.0987(8) 0.2318(3)
C2A C 1.3363(6) 0.1698(7) 0.2573(2)
C3A C 1.3764(7) 0.1562(5) 0.2956(2)
H1A H 1.3968 0.1055 0.3039
C4A C 1.3070(7) 0.2446(8) 0.2449(2)
H2A H 1.2809 0.2536 0.2184
C5A C 1.3161(6) 0.3061(5) 0.27153(19)
H3A H 1.2952 0.3566 0.2630
C6A C 1.3867(5) 0.2195(4) 0.32268(17)
H4A H 1.4150 0.2104 0.3490
C7A C 1.3562(4) 0.2940(3) 0.31122(14)
C8A C 1.3670(4) 0.3584(3) 0.34153(16)
H5A H 1.4101 0.4017 0.3299
H6A H 1.4134 0.3394 0.3648
C9A C 1.1533(4) 0.3421(2) 0.35584(13)
H7A H 1.1572 0.2905 0.3466
C10A C 1.2474(3) 0.4621(2) 0.36969(13)
H8A H 1.3154 0.4931 0.3697
C11A C 1.0488(4) 0.3709(2) 0.36972(13)
H9A H 0.9822 0.3386 0.3697
C12A C 1.1453(4) 0.4922(2) 0.38418(14)
H10A H 1.1451 0.5432 0.3944
C13A C 1.0410(3) 0.4478(2) 0.38385(11)
C14A C 0.9277(3) 0.4830(2) 0.39640(11)
C15A C 0.9143(4) 0.5632(2) 0.40001(16)
H11A H 0.9791 0.5961 0.3968
C16A C 0.8281(4) 0.4386(3) 0.40430(19)
H12A H 0.8322 0.3840 0.4042
C17A C 0.7219(4) 0.4761(3) 0.41243(17)
H13A H 0.6565 0.4450 0.4178
C18A C 0.8065(4) 0.5948(2) 0.40821(16)
H14A H 0.8013 0.6492 0.4106
C23A C 0.5855(3) 0.7615(2) 0.46210(11)
C24A C 0.6682(3) 0.82977(19) 0.46842(10)
C25A C 0.6266(3) 0.8991(2) 0.48506(11)
H17A H 0.5495 0.9017 0.4940
C26A C 0.7846(3) 0.82530(19) 0.45622(11)
H18A H 0.8135 0.7783 0.4461
C27A C 0.8573(3) 0.89049(19) 0.45914(11)
H19A H 0.9351 0.8873 0.4508
C28A C 0.6996(3) 0.9642(2) 0.48825(11)
H20A H 0.6720 1.0104 0.4996
C29A C 0.8150(3) 0.96083(19) 0.47445(10)
C30A C 0.8876(3) 1.03435(19) 0.47218(10)
Co1B Co 0.15653(4) 1.20294(2) 0.027159(13)
Co1C Co 0.84347(4) 1.20294(2) 0.472841(13)
Co1F Co 0.84347(4) 0.79706(2) -0.027159(13)
Co1G Co 0.15653(4) 0.79706(2) 0.527159(13)
Co2B Co -0.04061(4) 1.11260(3) 0.086855(13)
Co2C Co 1.04061(4) 1.11260(3) 0.413145(13)
O5B O 0.5215(2) 0.53224(13) 0.04864(7)
O5C O 0.4785(2) 0.53224(13) 0.45136(7)
O6B O 0.6506(2) 0.59333(13) 0.00904(8)
O6C O 0.3494(2) 0.59333(13) 0.49096(8)
N7F N 0.6883(3) 0.73918(18) -0.03549(9)
N7G N 0.3117(3) 0.73918(18) 0.53549(9)
O7 O -0.658(3) 0.3772(17) 0.1771(9)
loop_
_geom_bond_atom_site_label_1
_geom_bond_atom_site_label_2
_geom_bond_site_symmetry_1
_geom_bond_site_symmetry_2
Co1 O4 1_555 1_555
Co2 O1 1_555 1_555
O1 C19 1_555 1_555
O2 Co2 1_555 1_555
O3 Co2 1_555 1_555
O4 C23 1_555 1_555
O5 C30 1_555 1_555
O6 C30 1_555 1_555
N1 C1 1_555 1_555
N2 C8 1_555 1_555
N3 Co2 1_555 1_555
N4 Co1 1_555 1_555
N5 N4 1_555 1_555
N6 N5 1_555 1_555
N7 Co1 1_555 1_555
N8 N7 1_555 1_555
N9 N8 1_555 1_555
C1 C2 1_555 1_555
C2 C3 1_555 1_555
C3 H1 1_555 1_555
C4 C2 1_555 1_555
H2 C4 1_555 1_555
C5 C4 1_555 1_555
H3 C5 1_555 1_555
C6 C3 1_555 1_555
H4 C6 1_555 1_555
C7 C5 1_555 1_555
C8 C7 1_555 1_555
H5 C8 1_555 1_555
H6 C8 1_555 1_555
C9 N2 1_555 1_555
H7 C9 1_555 1_555
C10 N2 1_555 1_555
H8 C10 1_555 1_555
C11 C9 1_555 1_555
H9 C11 1_555 1_555
C12 C10 1_555 1_555
H10 C12 1_555 1_555
C13 C11 1_555 1_555
C14 C13 1_555 1_555
C15 C14 1_555 1_555
H11 C15 1_555 1_555
C16 C14 1_555 1_555
H12 C16 1_555 1_555
C17 N3 1_555 1_555
H13 C17 1_555 1_555
C18 N3 1_555 1_555
H14 C18 1_555 1_555
C19 O2 1_555 1_555
C20 C19 1_555 1_555
C21 C20 1_555 1_555
H15 C21 1_555 1_555
C22 C20 1_555 1_555
H16 C22 1_555 1_555
C23 O3 1_555 1_555
C24 C23 1_555 1_555
C25 C24 1_555 1_555
H17 C25 1_555 1_555
C26 C24 1_555 1_555
H18 C26 1_555 1_555
C27 C26 1_555 1_555
H19 C27 1_555 1_555
C28 C25 1_555 1_555
H20 C28 1_555 1_555
C29 C27 1_555 1_555
C30 C29 1_555 1_555
O1A C19A 1_555 1_555
O2A C19A 1_555 1_555
C19A C20A 1_555 1_555
C20A C21A 1_555 1_555
C21A C21 1_555 1_555
H15A C21A 1_555 1_555
C22A C22 1_555 1_555
H16A C22A 1_555 1_555
Co1A O4A 1_555 1_555
Co2A O1A 1_555 1_555
O3A Co2A 1_555 1_555
O4A C23A 1_555 1_555
O5A C30A 1_555 1_555
O6A C30A 1_555 1_555
N1A C1A 1_555 1_555
N2A C8A 1_555 1_555
N3A Co2A 1_555 1_555
N4A Co1A 1_555 1_555
N5A N4A 1_555 1_555
N6A N5A 1_555 1_555
N7A Co1A 1_555 1_555
N8A N7A 1_555 1_555
N9A N8A 1_555 1_555
C1A C2A 1_555 1_555
C2A C3A 1_555 1_555
C3A H1A 1_555 1_555
C4A C2A 1_555 1_555
H2A C4A 1_555 1_555
C5A C4A 1_555 1_555
H3A C5A 1_555 1_555
C6A C3A 1_555 1_555
H4A C6A 1_555 1_555
C7A C5A 1_555 1_555
C8A C7A 1_555 1_555
H5A C8A 1_555 1_555
H6A C8A 1_555 1_555
C9A N2A 1_555 1_555
H7A C9A 1_555 1_555
C10A N2A 1_555 1_555
H8A C10A 1_555 1_555
C11A C9A 1_555 1_555
H9A C11A 1_555 1_555
C12A C10A 1_555 1_555
H10A C12A 1_555 1_555
C13A C11A 1_555 1_555
C14A C13A 1_555 1_555
C15A C14A 1_555 1_555
H11A C15A 1_555 1_555
C16A C14A 1_555 1_555
H12A C16A 1_555 1_555
C17A N3A 1_555 1_555
H13A C17A 1_555 1_555
C18A N3A 1_555 1_555
H14A C18A 1_555 1_555
C23A O3A 1_555 1_555
C24A C23A 1_555 1_555
C25A C24A 1_555 1_555
H17A C25A 1_555 1_555
C26A C24A 1_555 1_555
H18A C26A 1_555 1_555
C27A C26A 1_555 1_555
H19A C27A 1_555 1_555
C28A C25A 1_555 1_555
H20A C28A 1_555 1_555
C29A C27A 1_555 1_555
C30A C29A 1_555 1_555
Co1B O6 1_555 1_555
Co1C O6A 1_555 1_555
Co1F N7 1_555 1_555
Co1G N7A 1_555 1_555
Co2B O5 1_555 1_555
Co2C O5A 1_555 1_555
O5B Co2 1_555 1_555
O5C Co2A 1_555 1_555
O6B Co1 1_555 1_555
O6C Co1A 1_555 1_555
N7F Co1 1_555 1_555
N7G Co1A 1_555 1_555
Co2 N4 1_555 1_555
C6 C7 1_555 1_555
C12 C13 1_555 1_555
C15 C18 1_555 1_555
C16 C17 1_555 1_555
C28 C29 1_555 1_555
O2A Co2A 1_555 1_555
C20A C22A 1_555 1_555
Co2A N4A 1_555 1_555
C6A C7A 1_555 1_555
C12A C13A 1_555 1_555
C15A C18A 1_555 1_555
C16A C17A 1_555 1_555
C28A C29A 1_555 1_555
Co1F N7F 1_555 1_555
Co1G N7G 1_555 1_555

#END
