
#######################################################################
#
#                 Cambridge Crystallographic Data Centre
#                                CCDC 
#
#######################################################################
#
# If this CIF has been generated from an entry in the Cambridge 
# Structural Database, then it will include bibliographic, chemical, 
# crystal, experimental, refinement or atomic coordinate data resulting 
# from the CCDC's data processing and validation procedures.
#
#######################################################################

data_KIYHOR
_symmetry_cell_setting           monoclinic
_symmetry_space_group_name_H-M   'P 21/n'
_symmetry_Int_Tables_number      14
_space_group_name_Hall           '-P 2yn'
loop_
_symmetry_equiv_pos_site_id
_symmetry_equiv_pos_as_xyz
1 x,y,z
2 1/2-x,1/2+y,1/2-z
3 -x,-y,-z
4 1/2+x,1/2-y,1/2+z
_cell_length_a                   12.8344(4)
_cell_length_b                   10.3729(4)
_cell_length_c                   17.5387(6)
_cell_angle_alpha                90
_cell_angle_beta                 93.849(2)
_cell_angle_gamma                90
_cell_volume                     2329.66
loop_
_atom_site_label
_atom_site_type_symbol
_atom_site_fract_x
_atom_site_fract_y
_atom_site_fract_z
Co1 Co 0.93431(2) 0.44625(3) 0.240657(15)
N1 N 0.85464(15) 0.54137(17) 0.32420(10)
N2 N 0.75952(15) 0.58523(17) 0.42050(10)
N3 N 0.54870(15) 0.91156(18) 0.71590(10)
N4 N 0.62920(15) 0.76338(18) 0.65159(10)
N5 N 0.49202(16) 0.16326(18) 0.65091(10)
N6 N 0.56157(16) 0.31727(17) 0.58447(10)
C1 C 0.94803(19) 0.2025(2) 0.47187(13)
C2 C 0.8606(2) 0.1291(2) 0.48748(13)
C3 C 0.8120(2) 0.1554(4) 0.55418(16)
H1 H 0.7565 0.1039 0.5670
C4 C 0.8434(3) 0.2552(4) 0.60184(17)
H2 H 0.8091 0.2708 0.6460
C5 C 0.9252(3) 0.3316(4) 0.58424(18)
H3 H 0.9455 0.4013 0.6151
C6 C 0.9768(2) 0.3037(3) 0.52032(17)
H4 H 1.0334 0.3547 0.5090
C7 C 1.0126(2) 0.1776(3) 0.40421(15)
H5 H 1.0861 0.1866 0.4202
H6 H 1.0010 0.0898 0.3866
C8 C 0.98507(19) 0.2702(2) 0.33871(12)
C9 C 0.8161(2) 0.0260(3) 0.43537(17)
H7 H 0.7943 -0.0455 0.4662
H8 H 0.8707 -0.0052 0.4045
C10 C 0.72300(19) 0.0685(2) 0.38202(12)
C11 C 0.70557(17) 0.5690(2) 0.48821(12)
C12 C 0.69761(18) 0.6722(2) 0.53753(12)
H9 H 0.7291 0.7507 0.5276
C13 C 0.64191(17) 0.6565(2) 0.60187(12)
C14 C 0.59491(19) 0.5411(2) 0.61735(13)
H10 H 0.5562 0.5322 0.6600
C15 C 0.60647(18) 0.4379(2) 0.56788(12)
C16 C 0.66155(18) 0.4512(2) 0.50278(12)
H11 H 0.6685 0.3820 0.4698
C17 C 0.81581(18) 0.4948(2) 0.38587(12)
H12 H 0.8257 0.4108 0.4034
C18 C 0.8202(2) 0.6664(2) 0.31802(13)
H13 H 0.8350 0.7229 0.2790
C19 C 0.76150(19) 0.6953(2) 0.37701(13)
H14 H 0.7292 0.7735 0.3862
C20 C 0.53689(18) 0.8052(2) 0.67599(12)
H15 H 0.4733 0.7637 0.6657
C21 C 0.6534(2) 0.9393(2) 0.71762(15)
H16 H 0.6851 1.0099 0.7423
C22 C 0.70374(19) 0.8499(3) 0.67861(14)
H17 H 0.7748 0.8472 0.6713
C23 C 0.5286(2) 0.2804(2) 0.65328(12)
H18 H 0.5318 0.3323 0.6966
C24 C 0.5019(2) 0.1204(2) 0.57765(13)
H19 H 0.4820 0.0393 0.5594
C25 C 0.5448(2) 0.2134(2) 0.53631(13)
H20 H 0.5601 0.2085 0.4853
O1 O 0.90009(14) 0.25969(17) 0.30019(10)
O2 O 1.04792(15) 0.35808(18) 0.32494(11)
O3 O 0.69372(15) -0.01645(18) 0.33269(10)
O4 O 0.68274(15) 0.1752(2) 0.38966(11)
Co1A Co 0.56569(2) -0.05375(3) 0.259343(15)
Co1C Co 0.43431(2) 0.05375(3) 0.740657(15)
Co1C_2 Co 0.43431(2) 1.05375(3) 0.740657(15)
N3C N 1.04870(15) 0.58844(18) 0.21590(10)
N5C N 0.99202(16) 0.33674(18) 0.15091(10)
O3A O 0.80628(15) 0.48355(18) 0.16731(10)
O5 O 0.8941(2) -0.0067(3) 0.24027(17)
loop_
_geom_bond_atom_site_label_1
_geom_bond_atom_site_label_2
_geom_bond_site_symmetry_1
_geom_bond_site_symmetry_2
Co1 N1 1_555 1_555
N1 C17 1_555 1_555
N2 C11 1_555 1_555
N3 C20 1_555 1_555
N4 C13 1_555 1_555
N5 C23 1_555 1_555
N6 C15 1_555 1_555
C1 C2 1_555 1_555
C2 C3 1_555 1_555
C3 H1 1_555 1_555
C4 C3 1_555 1_555
H2 C4 1_555 1_555
C5 C4 1_555 1_555
H3 C5 1_555 1_555
C6 C1 1_555 1_555
H4 C6 1_555 1_555
C7 C1 1_555 1_555
H5 C7 1_555 1_555
H6 C7 1_555 1_555
C8 C7 1_555 1_555
C9 C2 1_555 1_555
H7 C9 1_555 1_555
H8 C9 1_555 1_555
C10 C9 1_555 1_555
C11 C12 1_555 1_555
C12 H9 1_555 1_555
C13 C12 1_555 1_555
C14 C13 1_555 1_555
H10 C14 1_555 1_555
C15 C14 1_555 1_555
C16 C11 1_555 1_555
H11 C16 1_555 1_555
C17 N2 1_555 1_555
H12 C17 1_555 1_555
C18 N1 1_555 1_555
H13 C18 1_555 1_555
C19 N2 1_555 1_555
H14 C19 1_555 1_555
C20 N4 1_555 1_555
H15 C20 1_555 1_555
C21 N3 1_555 1_555
H16 C21 1_555 1_555
C22 N4 1_555 1_555
H17 C22 1_555 1_555
C23 N6 1_555 1_555
H18 C23 1_555 1_555
C24 N5 1_555 1_555
H19 C24 1_555 1_555
C25 N6 1_555 1_555
H20 C25 1_555 1_555
O1 Co1 1_555 1_555
O2 Co1 1_555 1_555
O3 C10 1_555 1_555
O4 C10 1_555 1_555
Co1A O3 1_555 1_555
Co1C N5 1_555 1_555
Co1C_2 N3 1_555 1_555
N3C Co1 1_555 1_555
N5C Co1 1_555 1_555
O3A Co1 1_555 1_555
C5 C6 1_555 1_555
C8 O1 1_555 1_555
C8 O2 1_555 1_555
C15 C16 1_555 1_555
C18 C19 1_555 1_555
C21 C22 1_555 1_555
C24 C25 1_555 1_555

#END
