
#######################################################################
#
#                 Cambridge Crystallographic Data Centre
#                                CCDC 
#
#######################################################################
#
# If this CIF has been generated from an entry in the Cambridge 
# Structural Database, then it will include bibliographic, chemical, 
# crystal, experimental, refinement or atomic coordinate data resulting 
# from the CCDC's data processing and validation procedures.
#
#######################################################################

data_KIYJIN
_symmetry_cell_setting           monoclinic
_symmetry_space_group_name_H-M   'P 21/n'
_symmetry_Int_Tables_number      14
_space_group_name_Hall           '-P 2yn'
loop_
_symmetry_equiv_pos_site_id
_symmetry_equiv_pos_as_xyz
1 x,y,z
2 1/2-x,1/2+y,1/2-z
3 -x,-y,-z
4 1/2+x,1/2-y,1/2+z
_cell_length_a                   8.5478(4)
_cell_length_b                   18.0515(7)
_cell_length_c                   16.6294(6)
_cell_angle_alpha                90
_cell_angle_beta                 98.933(2)
_cell_angle_gamma                90
_cell_volume                     2534.8
loop_
_atom_site_label
_atom_site_type_symbol
_atom_site_fract_x
_atom_site_fract_y
_atom_site_fract_z
C1 C 0.6427(2) 0.33158(12) 0.20985(11)
C2 C 0.7885(3) 0.36649(11) 0.21587(12)
H1 H 0.8143 0.4036 0.2545
C3 C 0.8964(3) 0.34710(12) 0.16529(12)
H2 H 0.9930 0.3717 0.1698
C4 C 0.8612(2) 0.29119(12) 0.10775(10)
C5 C 0.7184(3) 0.25453(13) 0.10453(12)
H3 H 0.6946 0.2155 0.0682
C6 C 0.6101(3) 0.27478(14) 0.15440(13)
H4 H 0.5141 0.2498 0.1504
C7 C 0.5246(3) 0.35544(15) 0.26377(13)
H5 H 0.5259 0.4090 0.2681
H6 H 0.4192 0.3406 0.2387
C8 C 0.5597(2) 0.32241(13) 0.34765(11)
C9 C 0.9739(3) 0.27048(16) 0.04989(13)
H7 H 1.0078 0.3154 0.0256
H8 H 0.9174 0.2405 0.0064
C10 C 1.1205(2) 0.22802(12) 0.08925(12)
O1 O 0.5560(2) 0.37042(10) 0.40593(10)
O2 O 0.5872(2) 0.25768(10) 0.35991(9)
O3 O 1.1675(2) 0.17714(9) 0.04691(9)
O4 O 1.1828(2) 0.24414(11) 0.15874(12)
H9 H 0.588(4) 0.348(2) 0.458(2)
C11 C 0.4496(2) 0.29673(9) 0.88090(9)
C12 C 0.4296(2) 0.32517(9) 0.80267(9)
H10 H 0.4609 0.2985 0.7600
C13 C 0.3615(2) 0.39446(9) 0.78997(9)
C14 C 0.3138(2) 0.43481(10) 0.85254(9)
H11 H 0.2667 0.4810 0.8426
C15 C 0.3373(2) 0.40501(10) 0.93056(9)
C16 C 0.4053(2) 0.33572(10) 0.94513(9)
H12 H 0.4208 0.3158 0.9973
C17 C 0.4585(2) 0.17022(9) 0.93893(9)
H13 H 0.3734 0.1760 0.9671
C18 C 0.6386(2) 0.19487(11) 0.86272(12)
H14 H 0.7003 0.2187 0.8292
C19 C 0.6538(2) 0.12441(10) 0.88980(12)
H15 H 0.7303 0.0912 0.8781
C20 C 0.1958(2) 0.45117(10) 0.67118(9)
H16 H 0.1052 0.4567 0.6952
C21 C 0.4382(2) 0.42373(11) 0.65424(10)
H17 H 0.5428 0.4076 0.6628
C22 C 0.3570(2) 0.45192(11) 0.58478(10)
H18 H 0.3983 0.4588 0.5367
C23 C 0.2909(4) 0.42477(15) 1.07236(12)
H19 H 0.3140 0.3765 1.0900
C24 C 0.2351(5) 0.53693(16) 1.07307(16)
H20 H 0.2055 0.5833 1.0900
C25 C 0.2678(5) 0.52133(16) 0.99801(16)
H21 H 0.2707 0.5548 0.9557
N1 N 0.53965(17) 0.10875(8) 0.93727(8)
N2 N 0.51406(17) 0.22416(8) 0.89464(8)
N3 N 0.20548(18) 0.46893(8) 0.59523(8)
N4 N 0.33461(17) 0.42387(8) 0.70949(7)
N5 N 0.2512(3) 0.47646(12) 1.11943(11)
N6 N 0.2957(2) 0.44713(9) 0.99621(9)
O5 O 0.33283(19) 0.04887(9) 1.07432(8)
Mn1 Mn 0.5000 0.0000 1.0000
H22 H 0.333(3) 0.0373(16) 1.1195(18)
H23 H 0.288(3) 0.0873(17) 1.0682(16)
C11B C 0.5504(2) -0.29673(9) 1.11910(9)
C12B C 0.5704(2) -0.32517(9) 1.19733(9)
H10B H 0.5391 -0.2985 1.2400
C13B C 0.6385(2) -0.39446(9) 1.21003(9)
C14B C 0.6862(2) -0.43481(10) 1.14746(9)
H11B H 0.7333 -0.4810 1.1574
C15B C 0.6627(2) -0.40501(10) 1.06944(9)
C16B C 0.5947(2) -0.33572(10) 1.05487(9)
H12B H 0.5792 -0.3158 1.0027
C17B C 0.5415(2) -0.17022(9) 1.06107(9)
H13B H 0.6266 -0.1760 1.0329
C18B C 0.3614(2) -0.19487(11) 1.13728(12)
H14B H 0.2997 -0.2187 1.1708
C19B C 0.3462(2) -0.12441(10) 1.11020(12)
H15B H 0.2697 -0.0912 1.1219
C20B C 0.8042(2) -0.45117(10) 1.32882(9)
H16B H 0.8948 -0.4567 1.3048
C21B C 0.5618(2) -0.42373(11) 1.34576(10)
H17B H 0.4572 -0.4076 1.3372
C22B C 0.6430(2) -0.45192(11) 1.41522(10)
H18B H 0.6017 -0.4588 1.4633
C23B C 0.7091(4) -0.42477(15) 0.92764(12)
H19B H 0.6860 -0.3765 0.9100
C24B C 0.7649(5) -0.53693(16) 0.92693(16)
H20B H 0.7945 -0.5833 0.9100
C25B C 0.7322(5) -0.52133(16) 1.00199(16)
H21B H 0.7293 -0.5548 1.0443
N1B N 0.46035(17) -0.10875(8) 1.06273(8)
N2B N 0.48594(17) -0.22416(8) 1.10536(8)
N3B N 0.79452(18) -0.46893(8) 1.40477(8)
N4B N 0.66539(17) -0.42387(8) 1.29051(7)
N5B N 0.7488(3) -0.47646(12) 0.88057(11)
N6B N 0.7043(2) -0.44713(9) 1.00379(9)
O5B O 0.66717(19) -0.04887(9) 0.92568(8)
H22B H 0.667(3) -0.0373(16) 0.8805(18)
H23B H 0.712(3) -0.0873(17) 0.9318(16)
N3A N 0.29452(18) -0.03107(8) 0.90477(8)
N3C N 0.70548(18) 0.03107(8) 1.09523(8)
Mn1A Mn 0.0000 0.5000 0.5000
Mn1A_2 Mn 1.0000 -0.5000 1.5000
O6 O 0.3612(3) 0.16337(13) 0.27575(16)
H24 H 0.311(4) 0.188(2) 0.232(2)
H25 H 0.462(6) 0.187(3) 0.298(3)
O7 O 0.3581(3) 0.02040(11) 0.23670(10)
H26 H 0.362(4) 0.071(2) 0.2503(19)
H27 H 0.321(4) -0.0048(17) 0.273(2)
loop_
_geom_bond_atom_site_label_1
_geom_bond_atom_site_label_2
_geom_bond_site_symmetry_1
_geom_bond_site_symmetry_2
C1 C2 1_555 1_555
C2 H1 1_555 1_555
C3 C2 1_555 1_555
H2 C3 1_555 1_555
C4 C3 1_555 1_555
C5 C4 1_555 1_555
H3 C5 1_555 1_555
C6 C1 1_555 1_555
H4 C6 1_555 1_555
C7 C1 1_555 1_555
H5 C7 1_555 1_555
H6 C7 1_555 1_555
C8 C7 1_555 1_555
C9 C4 1_555 1_555
H7 C9 1_555 1_555
H8 C9 1_555 1_555
C10 C9 1_555 1_555
O1 C8 1_555 1_555
O2 C8 1_555 1_555
O3 C10 1_555 1_555
O4 C10 1_555 1_555
H9 O1 1_555 1_555
C11 C12 1_555 1_555
C12 H10 1_555 1_555
C13 C12 1_555 1_555
C14 C13 1_555 1_555
H11 C14 1_555 1_555
C15 C14 1_555 1_555
C16 C11 1_555 1_555
H12 C16 1_555 1_555
C17 H13 1_555 1_555
C18 H14 1_555 1_555
C19 C18 1_555 1_555
H15 C19 1_555 1_555
C20 H16 1_555 1_555
C21 H17 1_555 1_555
C22 C21 1_555 1_555
H18 C22 1_555 1_555
C23 H19 1_555 1_555
C24 H20 1_555 1_555
C25 C24 1_555 1_555
H21 C25 1_555 1_555
N1 C17 1_555 1_555
N2 C11 1_555 1_555
N3 C20 1_555 1_555
N4 C13 1_555 1_555
N5 C23 1_555 1_555
N6 C15 1_555 1_555
O5 Mn1 1_555 1_555
Mn1 N1 1_555 1_555
H22 O5 1_555 1_555
H23 O5 1_555 1_555
O6 H24 1_555 1_555
H25 O6 1_555 1_555
O7 H26 1_555 1_555
H27 O7 1_555 1_555
C11B C12B 1_555 1_555
C12B H10B 1_555 1_555
C13B C12B 1_555 1_555
C14B C13B 1_555 1_555
H11B C14B 1_555 1_555
C15B C14B 1_555 1_555
C16B C11B 1_555 1_555
H12B C16B 1_555 1_555
C17B H13B 1_555 1_555
C18B H14B 1_555 1_555
C19B C18B 1_555 1_555
H15B C19B 1_555 1_555
C20B H16B 1_555 1_555
C21B H17B 1_555 1_555
C22B C21B 1_555 1_555
H18B C22B 1_555 1_555
C23B H19B 1_555 1_555
C24B H20B 1_555 1_555
C25B C24B 1_555 1_555
H21B C25B 1_555 1_555
N1B Mn1 1_555 1_555
N2B C11B 1_555 1_555
N3B C20B 1_555 1_555
N4B C13B 1_555 1_555
N5B C23B 1_555 1_555
N6B C15B 1_555 1_555
O5B Mn1 1_555 1_555
H22B O5B 1_555 1_555
H23B O5B 1_555 1_555
N3A Mn1 1_555 1_555
N3C Mn1 1_555 1_555
Mn1A N3 1_555 1_555
Mn1A_2 N3B 1_555 1_555
C5 C6 1_555 1_555
C15 C16 1_555 1_555
C17 N2 1_555 1_555
C18 N2 1_555 1_555
C19 N1 1_555 1_555
C20 N4 1_555 1_555
C21 N4 1_555 1_555
C22 N3 1_555 1_555
C23 N6 1_555 1_555
C24 N5 1_555 1_555
C25 N6 1_555 1_555
C15B C16B 1_555 1_555
C17B N1B 1_555 1_555
C17B N2B 1_555 1_555
C18B N2B 1_555 1_555
C19B N1B 1_555 1_555
C20B N4B 1_555 1_555
C21B N4B 1_555 1_555
C22B N3B 1_555 1_555
C23B N6B 1_555 1_555
C24B N5B 1_555 1_555
C25B N6B 1_555 1_555

#END
