
#######################################################################
#
#                 Cambridge Crystallographic Data Centre
#                                CCDC 
#
#######################################################################
#
# If this CIF has been generated from an entry in the Cambridge 
# Structural Database, then it will include bibliographic, chemical, 
# crystal, experimental, refinement or atomic coordinate data resulting 
# from the CCDC's data processing and validation procedures.
#
#######################################################################

data_KIYJEJ
_symmetry_cell_setting           monoclinic
_symmetry_space_group_name_H-M   'P 21/c'
_symmetry_Int_Tables_number      14
_space_group_name_Hall           '-P 2ybc'
loop_
_symmetry_equiv_pos_site_id
_symmetry_equiv_pos_as_xyz
1 x,y,z
2 -x,1/2+y,1/2-z
3 -x,-y,-z
4 x,1/2-y,1/2+z
_cell_length_a                   21.534(2)
_cell_length_b                   13.1110(14)
_cell_length_c                   21.387(2)
_cell_angle_alpha                90
_cell_angle_beta                 97.236(5)
_cell_angle_gamma                90
_cell_volume                     5990.15
loop_
_atom_site_label
_atom_site_type_symbol
_atom_site_fract_x
_atom_site_fract_y
_atom_site_fract_z
Zn1 Zn 0.49390(2) 0.70079(4) 0.24193(3)
Zn2 Zn 0.83674(2) 0.70532(4) 0.60268(2)
Zn3 Zn 0.83768(2) 1.27948(4) 0.10535(2)
C1 C 0.5481(3) 0.5132(6) 0.4434(3)
C2 C 0.5958(2) 0.5399(4) 0.4906(2)
H1 H 0.5974 0.6060 0.5065
C3 C 0.6405(2) 0.4711(4) 0.5141(2)
C4 C 0.6384(3) 0.3745(4) 0.4895(3)
H2 H 0.6686 0.3268 0.5046
C5 C 0.5918(3) 0.3482(6) 0.4426(3)
H3 H 0.5908 0.2826 0.4260
C6 C 0.5472(3) 0.4163(7) 0.4201(3)
H4 H 0.5158 0.3968 0.3886
C7 C 0.4963(3) 0.5869(7) 0.4207(3)
H5 H 0.4569 0.5502 0.4146
H6 H 0.4934 0.6380 0.4531
C8 C 0.5059(3) 0.6392(6) 0.3608(3)
C9 C 0.6883(3) 0.4974(5) 0.5690(3)
H7 H 0.7096 0.4350 0.5836
H8 H 0.6662 0.5220 0.6028
C10 C 0.7377(2) 0.5757(4) 0.5581(3)
C11 C 0.4185(2) 0.4694(4) 0.0380(2)
C12 C 0.4003(2) 0.5429(4) -0.0070(2)
H9 H 0.4177 0.6078 -0.0022
C13 C 0.3570(2) 0.5228(4) -0.0587(2)
C14 C 0.3313(3) 0.4265(5) -0.0640(3)
H10 H 0.3014 0.4113 -0.0980
C15 C 0.3489(3) 0.3534(5) -0.0202(3)
H11 H 0.3312 0.2888 -0.0246
C16 C 0.3927(3) 0.3749(5) 0.0301(3)
H12 H 0.4050 0.3241 0.0594
C17 C 0.4675(3) 0.4945(5) 0.0917(3)
H13 H 0.5040 0.5203 0.0744
H14 H 0.4798 0.4317 0.1138
C18 C 0.4497(3) 0.5704(4) 0.1388(2)
C19 C 0.3388(2) 0.6036(5) -0.1071(3)
H15 H 0.3508 0.5822 -0.1473
H16 H 0.3611 0.6662 -0.0948
C20 C 0.2692(3) 0.6234(4) -0.1143(3)
C21 C 1.0144(2) 0.5417(4) 0.6928(3)
C22 C 1.0100(2) 0.5791(4) 0.7523(3)
H17 H 1.0140 0.6491 0.7586
C23 C 1.0001(2) 0.5194(4) 0.8028(3)
C24 C 0.9948(3) 0.4166(5) 0.7926(3)
H18 H 0.9886 0.3731 0.8255
C25 C 0.9987(3) 0.3775(5) 0.7332(4)
H19 H 0.9941 0.3077 0.7265
C26 C 1.0092(3) 0.4389(5) 0.6842(3)
H20 H 1.0127 0.4106 0.6449
C27 C 1.0227(2) 0.6108(5) 0.6391(3)
H21 H 1.0390 0.5711 0.6065
H22 H 1.0539 0.6617 0.6536
C28 C 0.9643(2) 0.6648(4) 0.6102(2)
C29 C 0.9940(3) 0.5649(5) 0.8661(3)
H23 H 0.9955 0.5105 0.8970
H24 H 0.9533 0.5975 0.8644
C30 C 1.0441(2) 0.6420(4) 0.8875(2)
C31 C 0.7208(2) 0.8906(4) 0.2922(2)
C32 C 0.7394(2) 0.8682(4) 0.3544(2)
H25 H 0.7201 0.8161 0.3744
C33 C 0.7870(2) 0.9239(3) 0.3865(2)
C34 C 0.8160(2) 1.0022(3) 0.3579(2)
H26 H 0.8489 1.0388 0.3797
C35 C 0.7946(2) 1.0241(4) 0.2959(2)
C36 C 0.7476(2) 0.9686(4) 0.2621(2)
H27 H 0.7344 0.9835 0.2201
C37 C 0.6176(2) 0.8097(4) 0.2788(2)
H28 H 0.6079 0.8254 0.3189
C38 C 0.6682(2) 0.7996(4) 0.1980(2)
H29 H 0.6988 0.8059 0.1712
C39 C 0.6124(2) 0.7536(4) 0.1853(2)
H30 H 0.5977 0.7221 0.1473
C40 C 0.8011(2) 0.8127(3) 0.4797(2)
H31 H 0.7813 0.7561 0.4601
C41 C 0.8390(3) 0.9653(4) 0.4950(2)
H32 H 0.8505 1.0325 0.4888
C42 C 0.8493(2) 0.9119(4) 0.5484(2)
H33 H 0.8694 0.9367 0.5864
C43 C 0.8235(2) 1.1187(4) 0.2042(2)
H34 H 0.8160 1.0662 0.1750
C44 C 0.8342(2) 1.2016(4) 0.2930(2)
H35 H 0.8358 1.2180 0.3355
C45 C 0.8458(2) 1.2639(4) 0.2464(2)
H36 H 0.8566 1.3324 0.2513
C46 C 0.7110(2) 1.0546(3) 0.8135(2)
C47 C 0.7380(2) 0.9815(3) 0.7801(2)
H37 H 0.7180 0.9585 0.7416
C48 C 0.7950(2) 0.9426(3) 0.8045(2)
C49 C 0.8253(2) 0.9751(3) 0.8613(2)
H38 H 0.8641 0.9482 0.8771
C50 C 0.7971(2) 1.0483(3) 0.8943(2)
C51 C 0.7398(2) 1.0888(3) 0.8707(2)
H39 H 0.7210 1.1384 0.8931
C52 C 0.6260(2) 1.1827(3) 0.7926(2)
H40 H 0.6488 1.2396 0.8078
C53 C 0.6010(2) 1.0267(4) 0.7660(2)
H41 H 0.6028 0.9568 0.7591
C54 C 0.5514(2) 1.0867(4) 0.7536(2)
H42 H 0.5118 1.0649 0.7363
C55 C 0.8164(2) 0.8577(4) 0.7070(2)
H43 H 0.7979 0.9071 0.6795
C56 C 0.8517(2) 0.7791(3) 0.7940(2)
H44 H 0.8621 0.7626 0.8363
C57 C 0.8629(2) 0.7232(4) 0.7436(2)
H45 H 0.8830 0.6603 0.7456
C58 C 0.8122(2) 1.1642(4) 0.9850(2)
H46 H 0.7830 1.2127 0.9687
C59 C 0.8700(2) 1.0284(4) 0.9940(2)
H47 H 0.8886 0.9666 0.9859
C60 C 0.8804(2) 1.0839(4) 1.0468(2)
H48 H 0.9080 1.0665 1.0822
N1 N 0.58038(17) 0.7599(3) 0.23622(18)
N2 N 0.67096(17) 0.8351(3) 0.25779(17)
N3 N 0.82585(17) 0.8150(3) 0.53914(17)
N4 N 0.80798(17) 0.9014(3) 0.45130(17)
N5 N 0.83937(18) 1.2119(3) 0.19043(17)
N6 N 0.81949(17) 1.1091(3) 0.26580(17)
N7 N 0.56643(17) 1.1842(3) 0.76989(18)
N8 N 0.64922(16) 1.0888(3) 0.79094(16)
N9 N 0.84029(17) 0.7729(3) 0.68910(16)
N10 N 0.82188(16) 0.8647(3) 0.76997(16)
N11 N 0.84438(17) 1.1696(3) 1.04107(17)
N12 N 0.82643(16) 1.0808(3) 0.95420(16)
O1 O 0.4739(2) 0.6186(4) 0.3123(2)
O2 O 0.5439(4) 0.7014(6) 0.3610(3)
O3 O 0.77063(14) 0.6061(3) 0.60853(15)
O4 O 0.74521(16) 0.6034(3) 0.50505(17)
O5 O 0.49677(16) 0.6088(3) 0.17249(18)
O6 O 0.39587(19) 0.5922(4) 0.1443(2)
O7 O 0.24929(17) 0.6819(3) -0.07495(17)
O8 O 0.2338(2) 0.5805(3) -0.1562(2)
O9 O 0.91238(15) 0.6247(2) 0.61844(16)
O10 O 0.96900(17) 0.7424(3) 0.5803(2)
O11 O 1.09983(16) 0.6150(3) 0.88568(19)
O12 O 1.03039(19) 0.7258(4) 0.9033(3)
Zn1B Zn 0.50610(2) 1.29921(4) 0.75807(3)
Zn3_2 Zn 0.83768(2) 1.27948(4) 1.10535(2)
Zn3B Zn 0.16232(2) 0.72052(4) -0.10535(2)
Zn3B_2 Zn 1.16232(2) 0.72052(4) 0.89465(2)
N7B N 0.43357(17) 0.8158(3) 0.23011(18)
N11_2 N 0.84438(17) 1.1696(3) 0.04107(17)
O7B O 0.75071(17) 1.3181(3) 0.07495(17)
O11B O 0.90017(16) 1.3850(3) 0.11432(19)
O13 O 0.0771(2) 0.2034(4) 0.0552(3)
H49 H 0.068(3) 0.219(6) 0.021(4)
H50 H 0.052(4) 0.223(6) 0.071(4)
O14 O 0.0824(3) 0.8254(5) 0.5542(3)
H51 H 0.054(3) 0.802(5) 0.566(3)
H52 H 0.080(4) 0.813(7) 0.524(4)
O15 O 0.6785(3) 0.6574(4) 0.3890(2)
H53 H 0.695(3) 0.627(5) 0.421(3)
H54 H 0.638(6) 0.658(9) 0.390(5)
O16 O 0.28323(19) 0.6525(3) 0.0685(2)
loop_
_geom_bond_atom_site_label_1
_geom_bond_atom_site_label_2
_geom_bond_site_symmetry_1
_geom_bond_site_symmetry_2
Zn1 N1 1_555 1_555
Zn2 N3 1_555 1_555
Zn3 N5 1_555 1_555
C1 C2 1_555 1_555
C2 H1 1_555 1_555
C3 C2 1_555 1_555
C4 C3 1_555 1_555
H2 C4 1_555 1_555
C5 C4 1_555 1_555
H3 C5 1_555 1_555
C6 C1 1_555 1_555
H4 C6 1_555 1_555
C7 C1 1_555 1_555
H5 C7 1_555 1_555
H6 C7 1_555 1_555
C8 C7 1_555 1_555
C9 C3 1_555 1_555
H7 C9 1_555 1_555
H8 C9 1_555 1_555
C10 C9 1_555 1_555
C11 C12 1_555 1_555
C12 H9 1_555 1_555
C13 C12 1_555 1_555
C14 C13 1_555 1_555
H10 C14 1_555 1_555
C15 C14 1_555 1_555
H11 C15 1_555 1_555
C16 C11 1_555 1_555
H12 C16 1_555 1_555
C17 C11 1_555 1_555
H13 C17 1_555 1_555
H14 C17 1_555 1_555
C18 C17 1_555 1_555
C19 C13 1_555 1_555
H15 C19 1_555 1_555
H16 C19 1_555 1_555
C20 C19 1_555 1_555
C21 C22 1_555 1_555
C22 H17 1_555 1_555
C23 C22 1_555 1_555
C24 C23 1_555 1_555
H18 C24 1_555 1_555
C25 C24 1_555 1_555
H19 C25 1_555 1_555
C26 C21 1_555 1_555
H20 C26 1_555 1_555
C27 C21 1_555 1_555
H21 C27 1_555 1_555
H22 C27 1_555 1_555
C28 C27 1_555 1_555
C29 C23 1_555 1_555
H23 C29 1_555 1_555
H24 C29 1_555 1_555
C30 C29 1_555 1_555
C31 C32 1_555 1_555
C32 H25 1_555 1_555
C33 C32 1_555 1_555
C34 C33 1_555 1_555
H26 C34 1_555 1_555
C35 C34 1_555 1_555
C36 C31 1_555 1_555
H27 C36 1_555 1_555
C37 H28 1_555 1_555
C38 H29 1_555 1_555
C39 C38 1_555 1_555
H30 C39 1_555 1_555
C40 H31 1_555 1_555
C41 H32 1_555 1_555
C42 C41 1_555 1_555
H33 C42 1_555 1_555
C43 H34 1_555 1_555
C44 H35 1_555 1_555
C45 C44 1_555 1_555
H36 C45 1_555 1_555
C46 C47 1_555 1_555
C47 H37 1_555 1_555
C48 C47 1_555 1_555
C49 C48 1_555 1_555
H38 C49 1_555 1_555
C50 C49 1_555 1_555
C51 C46 1_555 1_555
H39 C51 1_555 1_555
C52 H40 1_555 1_555
C53 H41 1_555 1_555
C54 C53 1_555 1_555
H42 C54 1_555 1_555
C55 H43 1_555 1_555
C56 H44 1_555 1_555
C57 C56 1_555 1_555
H45 C57 1_555 1_555
C58 H46 1_555 1_555
C59 H47 1_555 1_555
C60 C59 1_555 1_555
H48 C60 1_555 1_555
N1 C37 1_555 1_555
N2 C31 1_555 1_555
N3 C40 1_555 1_555
N4 C33 1_555 1_555
N5 C43 1_555 1_555
N6 C35 1_555 1_555
N7 C52 1_555 1_555
N8 C46 1_555 1_555
N9 Zn2 1_555 1_555
N10 C48 1_555 1_555
N11 C58 1_555 1_555
N12 C50 1_555 1_555
O1 Zn1 1_555 1_555
O2 C8 1_555 1_555
O3 Zn2 1_555 1_555
O4 C10 1_555 1_555
O5 Zn1 1_555 1_555
O6 C18 1_555 1_555
O7 C20 1_555 1_555
O8 C20 1_555 1_555
O9 Zn2 1_555 1_555
O10 C28 1_555 1_555
O11 C30 1_555 1_555
O12 C30 1_555 1_555
O13 H49 1_555 1_555
H50 O13 1_555 1_555
O14 H51 1_555 1_555
H52 O14 1_555 1_555
O15 H53 1_555 1_555
H54 O15 1_555 1_555
Zn1B N7 1_555 1_555
Zn3_2 N11 1_555 1_555
Zn3B O7 1_555 1_555
Zn3B_2 O11 1_555 1_555
N7B Zn1 1_555 1_555
N11_2 Zn3 1_555 1_555
O7B Zn3 1_555 1_555
O11B Zn3 1_555 1_555
C5 C6 1_555 1_555
C8 O1 1_555 1_555
C10 O3 1_555 1_555
C15 C16 1_555 1_555
C18 O5 1_555 1_555
C25 C26 1_555 1_555
C28 O9 1_555 1_555
C35 C36 1_555 1_555
C37 N2 1_555 1_555
C38 N2 1_555 1_555
C39 N1 1_555 1_555
C40 N4 1_555 1_555
C41 N4 1_555 1_555
C42 N3 1_555 1_555
C43 N6 1_555 1_555
C44 N6 1_555 1_555
C45 N5 1_555 1_555
C50 C51 1_555 1_555
C52 N8 1_555 1_555
C53 N8 1_555 1_555
C54 N7 1_555 1_555
C55 N9 1_555 1_555
C55 N10 1_555 1_555
C56 N10 1_555 1_555
C57 N9 1_555 1_555
C58 N12 1_555 1_555
C59 N12 1_555 1_555
C60 N11 1_555 1_555

#END
