
#######################################################################
#
#                 Cambridge Crystallographic Data Centre
#                                CCDC 
#
#######################################################################
#
# If this CIF has been generated from an entry in the Cambridge 
# Structural Database, then it will include bibliographic, chemical, 
# crystal, experimental, refinement or atomic coordinate data resulting 
# from the CCDC's data processing and validation procedures.
#
#######################################################################

data_KIYMAI01
_symmetry_cell_setting           orthorhombic
_symmetry_space_group_name_H-M   'P 21 21 21'
_symmetry_Int_Tables_number      19
_space_group_name_Hall           'P 2ac 2ab'
loop_
_symmetry_equiv_pos_site_id
_symmetry_equiv_pos_as_xyz
1 x,y,z
2 1/2-x,-y,1/2+z
3 -x,1/2+y,1/2-z
4 1/2+x,1/2-y,-z
_cell_length_a                   6.901(2)
_cell_length_b                   14.700(3)
_cell_length_c                   15.012(3)
_cell_angle_alpha                90
_cell_angle_beta                 90
_cell_angle_gamma                90
_cell_volume                     1522.89
loop_
_atom_site_label
_atom_site_type_symbol
_atom_site_fract_x
_atom_site_fract_y
_atom_site_fract_z
Sr1 Sr 0.85560(6) 0.19228(2) 0.54638(2)
O1 O 0.9950(4) 0.34777(19) 0.47821(18)
O2 O 0.7191(4) 0.2996(2) 0.41966(17)
O3 O 1.0149(6) 0.6021(3) 0.0790(3)
O4 O 0.8139(5) 0.7003(3) 0.1455(2)
O5 O 0.8599(7) 0.0732(3) 0.6587(3)
N1 N 0.8816(8) -0.0673(5) 0.7074(5)
C1 C 0.8587(7) 0.3543(2) 0.4234(2)
C2 C 0.9092(7) 0.6272(4) 0.1418(3)
C3 C 0.8637(7) 0.4297(3) 0.3548(3)
C4 C 0.8607(7) 0.4058(3) 0.2671(3)
H1 H 0.8429 0.3451 0.2516
C5 C 0.8841(8) 0.4711(3) 0.1997(3)
H2 H 0.8939 0.4524 0.1407
C6 C 0.8928(6) 0.5609(3) 0.2194(3)
C7 C 0.8840(6) 0.5896(3) 0.3115(3)
C8 C 0.8780(6) 0.5223(3) 0.3778(3)
C9 C 0.8794(9) 0.5510(3) 0.4691(3)
H3 H 0.8760 0.5076 0.5141
C10 C 0.8857(12) 0.6407(4) 0.4910(3)
H4 H 0.8886 0.6578 0.5506
C11 C 0.8878(11) 0.7070(3) 0.4251(4)
H5 H 0.8905 0.7681 0.4412
C12 C 0.8860(8) 0.6840(3) 0.3376(3)
H6 H 0.8862 0.7292 0.2943
C13 C 0.8839(11) -0.1448(5) 0.7589(6)
H7 H 0.8845 -0.1282 0.8207
H8 H 0.9980 -0.1796 0.7456
H9 H 0.7708 -0.1806 0.7463
C14 C 0.8800(13) -0.0830(10) 0.6062(8)
H10 H 0.8779 -0.0254 0.5761
H11 H 0.7670 -0.1174 0.5901
H12 H 0.9942 -0.1160 0.5892
C15 C 0.8675(11) 0.0096(6) 0.7112(8)
H13 H 0.8597 0.0296 0.7698
Sr1A Sr 0.64440(6) 0.80772(2) 0.04638(2)
Sr1B Sr 1.14440(6) 0.69228(2) -0.04638(2)
Sr1C Sr 0.35560(6) 0.30772(2) 0.45362(2)
Sr1C_2 Sr 1.35560(6) 0.30772(2) 0.45362(2)
O1C O 0.4950(4) 0.15223(19) 0.52179(18)
O2C O 1.2191(4) 0.2004(2) 0.58034(17)
O3B O 0.9851(6) 0.1021(3) 0.4210(3)
O4A O 0.6861(5) 0.2997(3) 0.6455(2)
loop_
_geom_bond_atom_site_label_1
_geom_bond_atom_site_label_2
_geom_bond_site_symmetry_1
_geom_bond_site_symmetry_2
Sr1 O1 1_555 1_555
O1 C1 1_555 1_555
O2 Sr1 1_555 1_555
O3 C2 1_555 1_555
O4 C2 1_555 1_555
O5 Sr1 1_555 1_555
N1 C13 1_555 1_555
C1 O2 1_555 1_555
C2 C6 1_555 1_555
C3 C1 1_555 1_555
C4 C3 1_555 1_555
H1 C4 1_555 1_555
C5 C4 1_555 1_555
H2 C5 1_555 1_555
C6 C5 1_555 1_555
C7 C6 1_555 1_555
C8 C3 1_555 1_555
C9 C8 1_555 1_555
H3 C9 1_555 1_555
C10 C9 1_555 1_555
H4 C10 1_555 1_555
C11 C10 1_555 1_555
H5 C11 1_555 1_555
C12 C7 1_555 1_555
H6 C12 1_555 1_555
C13 H7 1_555 1_555
H8 C13 1_555 1_555
H9 C13 1_555 1_555
C14 N1 1_555 1_555
H10 C14 1_555 1_555
H11 C14 1_555 1_555
H12 C14 1_555 1_555
C15 O5 1_555 1_555
H13 C15 1_555 1_555
Sr1A O4 1_555 1_555
Sr1B O3 1_555 1_555
Sr1C O2 1_555 1_555
Sr1C_2 O1 1_555 1_555
O1C Sr1 1_555 1_555
O2C Sr1 1_555 1_555
O3B Sr1 1_555 1_555
O4A Sr1 1_555 1_555
N1 C15 1_555 1_555
C7 C8 1_555 1_555
C11 C12 1_555 1_555
Sr1C O1C 1_555 1_555
Sr1C_2 O2C 1_555 1_555

#END
