
#######################################################################
#
#                 Cambridge Crystallographic Data Centre
#                                CCDC 
#
#######################################################################
#
# If this CIF has been generated from an entry in the Cambridge 
# Structural Database, then it will include bibliographic, chemical, 
# crystal, experimental, refinement or atomic coordinate data resulting 
# from the CCDC's data processing and validation procedures.
#
#######################################################################

data_KIYMUB
_symmetry_cell_setting           monoclinic
_symmetry_space_group_name_H-M   'C 2/c'
_symmetry_Int_Tables_number      15
_space_group_name_Hall           '-C 2yn'
loop_
_symmetry_equiv_pos_site_id
_symmetry_equiv_pos_as_xyz
1 x,y,z
2 1/2+x,1/2+y,z
3 -x,y,1/2-z
4 1/2-x,1/2+y,1/2-z
5 -x,-y,-z
6 1/2-x,1/2-y,-z
7 x,-y,1/2+z
8 1/2+x,1/2-y,1/2+z
_cell_length_a                   24.619(5)
_cell_length_b                   7.6758(15)
_cell_length_c                   10.940(2)
_cell_angle_alpha                90
_cell_angle_beta                 92.26(3)
_cell_angle_gamma                90
_cell_volume                     2065.73
loop_
_atom_site_label
_atom_site_type_symbol
_atom_site_fract_x
_atom_site_fract_y
_atom_site_fract_z
Mn1 Mn 0.231070(10) 0.05226(3) -0.41317(2)
C1 C 0.44890(6) -0.0974(2) -0.23657(15)
C2 C 0.40741(6) -0.1355(2) -0.15756(15)
H1 H 0.4095 -0.2358 -0.1099
C3 C 0.36282(7) -0.0245(2) -0.14929(14)
C4 C 0.35843(6) 0.1236(2) -0.22336(14)
C5 C 0.39934(7) 0.1599(2) -0.30348(15)
H2 H 0.3968 0.2583 -0.3530
C6 C 0.44380(7) 0.0508(2) -0.31005(16)
H3 H 0.4708 0.0766 -0.3644
C7 C 0.32144(6) -0.0620(2) -0.05518(15)
C8 C 0.30951(7) 0.2410(2) -0.22287(14)
C9 C 0.5000 -0.2123(3) -0.2500
C10 C 0.51159(7) -0.3304(2) -0.13706(17)
F1 F 0.47462(5) -0.45540(14) -0.12584(12)
F2 F 0.55984(5) -0.40776(17) -0.14154(12)
F3 F 0.51236(5) -0.23658(16) -0.03417(10)
O1 O 0.26410(5) 0.18020(18) -0.25522(11)
O2 O 0.68191(6) 0.39628(17) -0.30739(13)
O3 O 0.30104(5) 0.06306(16) 0.00133(12)
O4 O 0.30863(5) -0.21675(17) -0.03292(11)
O5 O 0.18376(6) -0.07333(18) -0.56346(12)
H4 H 0.1822 -0.1759 -0.5521
H5 H 0.1934 -0.0640 -0.6296
Mn1B Mn 0.768930(10) 0.05226(3) -0.08683(2)
Mn1A Mn 0.731070(10) -0.44774(3) -0.41317(2)
Mn1A_2 Mn 0.731070(10) 0.55226(3) -0.41317(2)
Mn1C Mn 0.268930(10) 0.55226(3) -0.08683(2)
Mn1F Mn 0.231070(10) -0.05226(3) 0.08683(2)
Mn1C_2 Mn 0.268930(10) -0.44774(3) -0.08683(2)
Mn1D Mn 0.768930(10) -0.05226(3) -0.58683(2)
C1B C 0.55110(6) -0.0974(2) -0.26343(15)
C2B C 0.59259(6) -0.1355(2) -0.34244(15)
H1B H 0.5905 -0.2358 -0.3901
C3B C 0.63718(7) -0.0245(2) -0.35071(14)
C4B C 0.64157(6) 0.1236(2) -0.27664(14)
C5B C 0.60066(7) 0.1599(2) -0.19652(15)
H2B H 0.6032 0.2583 -0.1470
C6B C 0.55620(7) 0.0508(2) -0.18995(16)
H3B H 0.5292 0.0766 -0.1356
C7B C 0.67856(6) -0.0620(2) -0.44482(15)
C8B C 0.69049(7) 0.2410(2) -0.27713(14)
C10B C 0.48841(7) -0.3304(2) -0.36294(17)
F1B F 0.52538(5) -0.45540(14) -0.37416(12)
F2B F 0.44016(5) -0.40776(17) -0.35846(12)
F3B F 0.48764(5) -0.23658(16) -0.46583(10)
O1B O 0.73590(5) 0.18020(18) -0.24478(11)
O2C O 0.81809(6) -0.10372(17) -0.19261(13)
O2A O 0.18191(6) -0.10372(17) -0.30739(13)
O2B O 0.31809(6) 0.39628(17) -0.19261(13)
O3D O 0.69896(5) -0.06306(16) -0.00133(12)
O3F O 0.30104(5) -0.06306(16) -0.49867(12)
O3B O 0.69896(5) 0.06306(16) -0.50133(12)
O4A O 0.80863(5) 0.28325(17) -0.03292(11)
O4C O 0.19137(5) 0.28325(17) -0.46708(11)
O4B O 0.69137(5) -0.21675(17) -0.46708(11)
O5B O 0.81624(6) -0.07333(18) 0.06346(12)
H4B H 0.8178 -0.1759 0.0521
H5B H 0.8066 -0.0640 0.1296
loop_
_geom_bond_atom_site_label_1
_geom_bond_atom_site_label_2
_geom_bond_site_symmetry_1
_geom_bond_site_symmetry_2
Mn1 O1 1_555 1_555
C1 C2 1_555 1_555
C2 H1 1_555 1_555
C3 C2 1_555 1_555
C4 C3 1_555 1_555
C5 C4 1_555 1_555
H2 C5 1_555 1_555
C6 C1 1_555 1_555
H3 C6 1_555 1_555
C7 C3 1_555 1_555
C8 C4 1_555 1_555
C9 C1 1_555 1_555
C10 C9 1_555 1_555
F1 C10 1_555 1_555
F2 C10 1_555 1_555
F3 C10 1_555 1_555
O1 C8 1_555 1_555
O2 Mn1A_2 1_555 1_555
O3 C7 1_555 1_555
O4 C7 1_555 1_555
O5 Mn1 1_555 1_555
H4 O5 1_555 1_555
H5 O5 1_555 1_555
Mn1B O1B 1_555 1_555
Mn1A O4B 1_555 1_555
Mn1C O2B 1_555 1_555
Mn1F O3 1_555 1_555
Mn1C_2 O4 1_555 1_555
Mn1D O3B 1_555 1_555
C1B C9 1_555 1_555
C2B C1B 1_555 1_555
H1B C2B 1_555 1_555
C3B C2B 1_555 1_555
C4B C3B 1_555 1_555
C5B C4B 1_555 1_555
H2B C5B 1_555 1_555
C6B C1B 1_555 1_555
H3B C6B 1_555 1_555
C7B C3B 1_555 1_555
C8B O2 1_555 1_555
C10B C9 1_555 1_555
F1B C10B 1_555 1_555
F2B C10B 1_555 1_555
F3B C10B 1_555 1_555
O1B C8B 1_555 1_555
O2C Mn1B 1_555 1_555
O2A Mn1 1_555 1_555
O2B C8 1_555 1_555
O3D Mn1B 1_555 1_555
O3F Mn1 1_555 1_555
O3B C7B 1_555 1_555
O4A Mn1B 1_555 1_555
O4C Mn1 1_555 1_555
O4B C7B 1_555 1_555
O5B Mn1B 1_555 1_555
H4B O5B 1_555 1_555
H5B O5B 1_555 1_555
C5 C6 1_555 1_555
C4B C8B 1_555 1_555
C5B C6B 1_555 1_555

#END
