
#######################################################################
#
#                 Cambridge Crystallographic Data Centre
#                                CCDC 
#
#######################################################################
#
# If this CIF has been generated from an entry in the Cambridge 
# Structural Database, then it will include bibliographic, chemical, 
# crystal, experimental, refinement or atomic coordinate data resulting 
# from the CCDC's data processing and validation procedures.
#
#######################################################################

data_KIYWIZ
_symmetry_cell_setting           monoclinic
_symmetry_space_group_name_H-M   'C 2/c'
_symmetry_Int_Tables_number      15
_space_group_name_Hall           '-C 2yn'
loop_
_symmetry_equiv_pos_site_id
_symmetry_equiv_pos_as_xyz
1 x,y,z
2 1/2+x,1/2+y,z
3 -x,y,1/2-z
4 1/2-x,1/2+y,1/2-z
5 -x,-y,-z
6 1/2-x,1/2-y,-z
7 x,-y,1/2+z
8 1/2+x,1/2-y,1/2+z
_cell_length_a                   15.9415(10)
_cell_length_b                   7.8449(6)
_cell_length_c                   32.230(2)
_cell_angle_alpha                90
_cell_angle_beta                 100.387(8)
_cell_angle_gamma                90
_cell_volume                     3964.61
loop_
_atom_site_label
_atom_site_type_symbol
_atom_site_fract_x
_atom_site_fract_y
_atom_site_fract_z
Ba1 Ba 0.00000 0.55561(4) 0.25000
Co1 Co -0.22020(3) -0.00461(6) 0.12661(1)
O1 O -0.14741(16) 0.1151(3) 0.09657(8)
O2 O -0.12877(18) 0.1811(4) 0.03142(9)
O3 O -0.17850(17) -0.2187(3) 0.11001(8)
O4 O -0.22426(19) -0.4434(3) 0.06911(9)
O5 O -0.13763(17) 0.0421(3) 0.17693(8)
O6 O -0.07393(18) 0.2684(4) 0.21036(8)
O7 O -0.28986(16) -0.1298(3) 0.15824(7)
O8 O -0.37732(17) -0.0973(3) 0.20454(8)
O9 O 0.00000 0.9219(6) 0.25000
O10 O 0.1611(2) 0.7047(5) 0.27383(10)
O11 O 0.03440(19) 0.6232(4) 0.33828(9)
N1 N -0.3018(2) -0.0190(4) 0.07433(9)
N2 N -0.27516(19) 0.1999(4) 0.14228(9)
C1 C -0.3754(2) 0.0924(4) 0.08204(11)
C2 C -0.3337(2) 0.2568(4) 0.10194(11)
C3 C -0.3985(2) 0.3952(5) 0.10701(11)
C4 C -0.4541(3) 0.4275(5) 0.06354(12)
C5 C -0.5051(3) 0.2654(5) 0.04874(12)
C6 C -0.4453(2) 0.1171(5) 0.04299(11)
C7 C -0.2592(2) 0.0464(5) 0.03908(11)
C8 C -0.1716(2) 0.1197(5) 0.05543(11)
C9 C -0.3202(2) -0.2044(4) 0.06884(11)
C10 C -0.2351(2) -0.3010(5) 0.08290(11)
C11 C -0.2025(2) 0.3165(4) 0.15916(11)
C12 C -0.1318(2) 0.2043(5) 0.18445(11)
C13 C -0.3217(2) 0.1533(5) 0.17714(11)
C14 C -0.3319(2) -0.0384(5) 0.18059(11)
H1 H -0.40240 0.03430 0.10400
H2 H -0.29670 0.30240 0.08250
H3 H -0.36860 0.50130 0.11780
H4 H -0.43440 0.35780 0.12740
H5 H -0.49380 0.52320 0.06540
H6 H -0.41760 0.45870 0.04290
H7 H -0.54050 0.23330 0.06980
H8 H -0.54370 0.28840 0.02160
H9 H -0.47900 0.01090 0.03750
H10 H -0.41840 0.13990 0.01810
H11 H -0.25390 -0.04820 0.01940
H12 H -0.29550 0.13560 0.02320
H13 H -0.34380 -0.23000 0.03890
H14 H -0.36230 -0.23980 0.08630
H15 H 0.010(5) 0.990(7) 0.2644(19)
H16 H 0.173(4) 0.755(7) 0.2948(18)
H17 H 0.207(4) 0.660(7) 0.2748(17)
H18 H -0.22110 0.40440 0.17760
H19 H -0.18150 0.37430 0.13570
H20 H 0.031(3) 0.538(7) 0.3501(16)
H21 H 0.075(3) 0.669(6) 0.3538(15)
H22 H -0.37880 0.20740 0.17190
H23 H -0.29000 0.19790 0.20420
Ba1A Ba -0.50000 0.05561(4) 0.25000
Ba1A_2 Ba 0.50000 0.05561(4) 0.25000
Co1B Co 0.22020(3) -0.00461(6) 0.37339(1)
O1B O 0.14741(16) 0.1151(3) 0.40343(8)
O2B O 0.12877(18) 0.1811(4) 0.46858(9)
O3B O 0.17850(17) -0.2187(3) 0.38999(8)
O4B O 0.22426(19) -0.4434(3) 0.43089(9)
O5B O 0.13763(17) 0.0421(3) 0.32307(8)
O6B O 0.07393(18) 0.2684(4) 0.28964(8)
O7B O 0.28986(16) -0.1298(3) 0.34176(7)
O8B O 0.37732(17) -0.0973(3) 0.29546(8)
O8A O 0.12268(17) 0.4027(3) 0.20454(8)
O8C O -0.12268(17) 0.4027(3) 0.29546(8)
O10B O -0.1611(2) 0.7047(5) 0.22617(10)
O11B O -0.03440(19) 0.6232(4) 0.16172(9)
N1B N 0.3018(2) -0.0190(4) 0.42567(9)
N2B N 0.27516(19) 0.1999(4) 0.35772(9)
C1B C 0.3754(2) 0.0924(4) 0.41796(11)
C2B C 0.3337(2) 0.2568(4) 0.39806(11)
C3B C 0.3985(2) 0.3952(5) 0.39299(11)
C4B C 0.4541(3) 0.4275(5) 0.43646(12)
C5B C 0.5051(3) 0.2654(5) 0.45126(12)
C6B C 0.4453(2) 0.1171(5) 0.45701(11)
C7B C 0.2592(2) 0.0464(5) 0.46092(11)
C8B C 0.1716(2) 0.1197(5) 0.44457(11)
C9B C 0.3202(2) -0.2044(4) 0.43116(11)
C10B C 0.2351(2) -0.3010(5) 0.41710(11)
C11B C 0.2025(2) 0.3165(4) 0.34084(11)
C12B C 0.1318(2) 0.2043(5) 0.31555(11)
C13B C 0.3217(2) 0.1533(5) 0.32286(11)
C14B C 0.3319(2) -0.0384(5) 0.31941(11)
H1B H 0.40240 0.03430 0.39600
H2B H 0.29670 0.30240 0.41750
H3B H 0.36860 0.50130 0.38220
H4B H 0.43440 0.35780 0.37260
H5B H 0.49380 0.52320 0.43460
H6B H 0.41760 0.45870 0.45710
H7B H 0.54050 0.23330 0.43020
H8B H 0.54370 0.28840 0.47840
H9B H 0.47900 0.01090 0.46250
H10B H 0.41840 0.13990 0.48190
H11B H 0.25390 -0.04820 0.48060
H12B H 0.29550 0.13560 0.47680
H13B H 0.34380 -0.23000 0.46110
H14B H 0.36230 -0.23980 0.41370
H15B H -0.010(5) 0.990(7) 0.2356(19)
H16B H -0.173(4) 0.755(7) 0.2052(18)
H17B H -0.207(4) 0.660(7) 0.2252(17)
H18B H 0.22110 0.40440 0.32240
H19B H 0.18150 0.37430 0.36430
H20B H -0.031(3) 0.538(7) 0.1499(16)
H21B H -0.075(3) 0.669(6) 0.1462(15)
H22B H 0.37880 0.20740 0.32810
H23B H 0.29000 0.19790 0.29580
O12 O 0.3221(2) 0.5567(4) 0.27898(11)
H24 H 0.357(4) 0.630(7) 0.2837(17)
H25 H 0.358(4) 0.480(7) 0.2653(17)
O13 O 0.5038(2) 0.8103(4) 0.12351(11)
H26 H 0.463(4) 0.766(7) 0.1127(18)
H27 H 0.520(3) 0.753(7) 0.1490(18)
loop_
_geom_bond_atom_site_label_1
_geom_bond_atom_site_label_2
_geom_bond_site_symmetry_1
_geom_bond_site_symmetry_2
Ba1 O6 1_555 1_555
Co1 O1 1_555 1_555
O1 C8 1_555 1_555
O2 C8 1_555 1_555
O3 Co1 1_555 1_555
O4 C10 1_555 1_555
O5 Co1 1_555 1_555
O6 C12 1_555 1_555
O7 Co1 1_555 1_555
O8 C14 1_555 1_555
O9 Ba1 1_555 1_555
O10 Ba1 1_555 1_555
O11 Ba1 1_555 1_555
N1 Co1 1_555 1_555
N2 Co1 1_555 1_555
C1 N1 1_555 1_555
C2 N2 1_555 1_555
C3 C2 1_555 1_555
C4 C3 1_555 1_555
C5 C4 1_555 1_555
C6 C1 1_555 1_555
C7 N1 1_555 1_555
C8 C7 1_555 1_555
C9 N1 1_555 1_555
C10 O3 1_555 1_555
C11 N2 1_555 1_555
C12 O5 1_555 1_555
C13 N2 1_555 1_555
C14 O7 1_555 1_555
H1 C1 1_555 1_555
H2 C2 1_555 1_555
H3 C3 1_555 1_555
H4 C3 1_555 1_555
H5 C4 1_555 1_555
H6 C4 1_555 1_555
H7 C5 1_555 1_555
H8 C5 1_555 1_555
H9 C6 1_555 1_555
H10 C6 1_555 1_555
H11 C7 1_555 1_555
H12 C7 1_555 1_555
H13 C9 1_555 1_555
H14 C9 1_555 1_555
H15 O9 1_555 1_555
H16 O10 1_555 1_555
H17 O10 1_555 1_555
H18 C11 1_555 1_555
H19 C11 1_555 1_555
H20 O11 1_555 1_555
H21 O11 1_555 1_555
H22 C13 1_555 1_555
H23 C13 1_555 1_555
O12 H24 1_555 1_555
H25 O12 1_555 1_555
O13 H26 1_555 1_555
H27 O13 1_555 1_555
Ba1A O8 1_555 1_555
Ba1A_2 O8B 1_555 1_555
Co1B O1B 1_555 1_555
O1B C8B 1_555 1_555
O2B C8B 1_555 1_555
O3B Co1B 1_555 1_555
O4B C10B 1_555 1_555
O5B Co1B 1_555 1_555
O6B Ba1 1_555 1_555
O7B Co1B 1_555 1_555
O8B C14B 1_555 1_555
O8A Ba1 1_555 1_555
O8C Ba1 1_555 1_555
O10B Ba1 1_555 1_555
O11B Ba1 1_555 1_555
N1B Co1B 1_555 1_555
N2B Co1B 1_555 1_555
C1B N1B 1_555 1_555
C2B N2B 1_555 1_555
C3B C2B 1_555 1_555
C4B C3B 1_555 1_555
C5B C4B 1_555 1_555
C6B C1B 1_555 1_555
C7B N1B 1_555 1_555
C8B C7B 1_555 1_555
C9B N1B 1_555 1_555
C10B O3B 1_555 1_555
C11B N2B 1_555 1_555
C12B O5B 1_555 1_555
C13B N2B 1_555 1_555
C14B O7B 1_555 1_555
H1B C1B 1_555 1_555
H2B C2B 1_555 1_555
H3B C3B 1_555 1_555
H4B C3B 1_555 1_555
H5B C4B 1_555 1_555
H6B C4B 1_555 1_555
H7B C5B 1_555 1_555
H8B C5B 1_555 1_555
H9B C6B 1_555 1_555
H10B C6B 1_555 1_555
H11B C7B 1_555 1_555
H12B C7B 1_555 1_555
H13B C9B 1_555 1_555
H14B C9B 1_555 1_555
H15B O9 1_555 1_555
H16B O10B 1_555 1_555
H17B O10B 1_555 1_555
H18B C11B 1_555 1_555
H19B C11B 1_555 1_555
H20B O11B 1_555 1_555
H21B O11B 1_555 1_555
H22B C13B 1_555 1_555
H23B C13B 1_555 1_555
C1 C2 1_555 1_555
C5 C6 1_555 1_555
C9 C10 1_555 1_555
C11 C12 1_555 1_555
C13 C14 1_555 1_555
O6B C12B 1_555 1_555
C1B C2B 1_555 1_555
C5B C6B 1_555 1_555
C9B C10B 1_555 1_555
C11B C12B 1_555 1_555
C13B C14B 1_555 1_555

#END
